data_crystal

_cell_length_a 34.71508
_cell_length_b 34.69794
_cell_length_c 21.64126
_cell_angle_alpha 89.92191
_cell_angle_beta  90.18402
_cell_angle_gamma 89.93565

_symmetry_space_group_name_	'P 1'
_symmetry_space_group_name_H-M	'P 1'

loop_
_symmetry_equiv_pos_as_xyz
  x,y,z

loop_
_atom_site_label
_atom_site_type_symbol
_atom_site_fract_x
_atom_site_fract_y
_atom_site_fract_z
_atom_site_charge
Cd	Cd	0.08659 0.83842 0.33041 1.24200
Cd	Cd	0.06432 0.90711 0.44699 1.15700
O 	O 	0.11246 0.77485 0.36005 -0.31000
O 	O 	0.09661 0.78836 0.26404 -0.32700
C 	C 	0.11023 0.76323 0.30305 0.24200
O 	O 	0.05443 0.88497 0.28037 -0.38800
O 	O 	0.06800 0.93184 0.35130 -0.45400
C 	C 	0.04710 0.91912 0.30473 0.30100
C 	C 	0.01658 0.83185 0.39731 0.31700
O 	O 	0.12125 0.87606 0.42042 -0.46700
O 	O 	0.01714 0.80836 0.35015 -0.29200
O 	O 	0.04955 0.84719 0.41087 -0.54600
C 	C 	0.14632 0.88775 0.37987 0.29700
O 	O 	0.14380 0.87240 0.32498 -0.35200
Cd	Cd	0.09777 0.86691 0.05207 1.24100
Cd	Cd	0.15154 0.93262 0.96346 1.16300
O 	O 	0.12171 0.80103 0.07224 -0.29600
O 	O 	0.06813 0.82259 0.11328 -0.35400
C 	C 	0.09163 0.79369 0.10589 0.24800
O 	O 	0.06651 0.92261 0.06135 -0.40700
O 	O 	0.08923 0.95039 0.97220 -0.45100
C 	C 	0.06836 0.95222 0.02304 0.31300
C 	C 	0.16053 0.90621 0.10801 0.31400
O 	O 	0.12620 0.87231 0.93863 -0.46400
O 	O 	0.13952 0.88892 0.14971 -0.30100
O 	O 	0.15284 0.89657 0.05138 -0.54400
C 	C 	0.09129 0.86528 0.91892 0.30500
O 	O 	0.06609 0.85665 0.96112 -0.38800
C 	C 	0.95256 0.63561 0.90942 0.11000
N 	N 	0.96623 0.64057 0.85106 -0.12600
C 	C 	0.94359 0.63185 0.80170 0.18000
N 	N 	0.90775 0.61741 0.81075 -0.13900
C 	C 	0.89441 0.61148 0.86880 0.18000
N 	N 	0.91662 0.62114 0.91816 -0.11000
C 	C 	0.98874 0.59351 0.45113 0.11000
N 	N 	0.99353 0.60866 0.50861 -0.12600
C 	C 	0.96357 0.60903 0.54887 0.18400
N 	N 	0.92928 0.59342 0.53215 -0.11200
C 	C 	0.92465 0.57763 0.47535 0.18600
N 	N 	0.95437 0.57776 0.43479 -0.13500
Cd	Cd	0.83754 0.81693 0.75703 1.24000
Cd	Cd	0.91987 0.83373 0.85405 1.17200
O 	O 	0.78509 0.77804 0.80128 -0.29300
O 	O 	0.77838 0.80830 0.71303 -0.33700
C 	C 	0.76204 0.78841 0.75689 0.24900
O 	O 	0.87042 0.86183 0.70518 -0.38100
O 	O 	0.92759 0.85081 0.75481 -0.43000
C 	C 	0.90389 0.87443 0.72601 0.29900
C 	C 	0.83314 0.87468 0.85091 0.30800
O 	O 	0.89252 0.77862 0.81278 -0.46000
O 	O 	0.80460 0.87640 0.81162 -0.30400
O 	O 	0.85452 0.84388 0.84679 -0.52400
C 	C 	0.90114 0.76299 0.75981 0.30900
O 	O 	0.87634 0.76912 0.71537 -0.34900
Cd	Cd	0.76114 0.02929 0.65172 1.23800
Cd	Cd	0.78808 0.08052 0.51628 1.14000
O 	O 	0.71771 0.97509 0.63375 -0.31100
O 	O 	0.73862 0.98836 0.72700 -0.34600
C 	C 	0.71704 0.96663 0.69204 0.24700
O 	O 	0.80976 0.06622 0.68417 -0.40800
O 	O 	0.80320 0.10945 0.60540 -0.44000
C 	C 	0.82480 0.09242 0.64724 0.29700
C 	C 	0.81567 0.99504 0.56950 0.31200
O 	O 	0.72884 0.07038 0.56342 -0.47400
O 	O 	0.81588 0.97899 0.62420 -0.30400
O 	O 	0.78868 0.02054 0.56110 -0.55300
C 	C 	0.71194 0.09086 0.60608 0.30600
O 	O 	0.71778 0.07926 0.66264 -0.36800
C 	C 	0.58849 0.88163 0.01920 0.12800
N 	N 	0.58952 0.87755 0.08173 -0.13500
C 	C 	0.56237 0.89501 0.11726 0.18600
N 	N 	0.53458 0.91686 0.09010 -0.13100
C 	C 	0.53389 0.92158 0.02782 0.19700
N 	N 	0.56059 0.90351 0.99250 -0.11500
C 	C 	0.55322 0.95636 0.46867 0.10800
N 	N 	0.56060 0.93256 0.42006 -0.13200
C 	C 	0.55763 0.94613 0.36130 0.18200
N 	N 	0.54671 0.98311 0.35116 -0.13400
C 	C 	0.53872 0.00676 0.39930 0.17200
N 	N 	0.54223 0.99343 0.45811 -0.10900
Cd	Cd	0.76421 0.13825 0.25532 1.24100
Cd	Cd	0.78990 0.06809 0.36853 1.13300
O 	O 	0.73609 0.19903 0.29218 -0.31500
O 	O 	0.75011 0.19041 0.19416 -0.32600
C 	C 	0.73589 0.21291 0.23646 0.24400
O 	O 	0.79593 0.09296 0.20175 -0.38300
O 	O 	0.78251 0.04610 0.27255 -0.44200
C 	C 	0.80351 0.05890 0.22651 0.29600
C 	C 	0.83504 0.14761 0.32109 0.32000
O 	O 	0.73169 0.09921 0.34576 -0.48300
O 	O 	0.83177 0.17210 0.27544 -0.29800
O 	O 	0.80380 0.12839 0.33307 -0.55900
C 	C 	0.70462 0.08901 0.30681 0.30500
O 	O 	0.70844 0.10250 0.25084 -0.35100
Cd	Cd	0.79365 0.20791 0.99719 1.23900
Cd	Cd	0.83193 0.15566 0.86959 1.16900
O 	O 	0.73054 0.23957 0.98462 -0.30200
O 	O 	0.76184 0.24074 0.07294 -0.32800
C 	C 	0.73173 0.25169 0.04135 0.25400
O 	O 	0.84483 0.17662 0.03678 -0.37800
O 	O 	0.87493 0.16964 0.94340 -0.44700
C 	C 	0.87077 0.15942 0.00156 0.30300
C 	C 	0.76560 0.13235 0.97279 0.30600
O 	O 	0.81488 0.22028 0.88143 -0.45300
O 	O 	0.75281 0.14550 0.02550 -0.28300
O 	O 	0.78210 0.15806 0.93807 -0.53700
C 	C 	0.83655 0.24812 0.90265 0.30800
O 	O 	0.83332 0.25563 0.96133 -0.37000
C 	C 	0.71869 0.46805 0.89320 0.11200
N 	N 	0.70818 0.46095 0.83361 -0.13500
C 	C 	0.72341 0.48229 0.78699 0.18700
N 	N 	0.74925 0.51049 0.79999 -0.11200
C 	C 	0.76016 0.51735 0.85923 0.18500
N 	N 	0.74496 0.49599 0.90575 -0.12500
C 	C 	0.75087 0.43394 0.43542 0.11800
N 	N 	0.77850 0.46046 0.42275 -0.11600
C 	C 	0.78734 0.48815 0.46462 0.18200
N 	N 	0.76780 0.48989 0.51871 -0.13800
C 	C 	0.74019 0.46348 0.53185 0.18200
N 	N 	0.73172 0.43540 0.49016 -0.10900
Cd	Cd	0.13819 0.14672 0.79077 1.23900
Cd	Cd	0.07810 0.17390 0.91661 1.16500
O 	O 	0.20010 0.18003 0.77276 -0.29900
O 	O 	0.18293 0.12873 0.71981 -0.35400
C 	C 	0.20866 0.15522 0.72996 0.24300
O 	O 	0.09301 0.10089 0.79389 -0.39700
O 	O 	0.04777 0.13466 0.84927 -0.43500
C 	C 	0.06041 0.10191 0.82553 0.30600
C 	C 	0.15727 0.12184 0.91250 0.32700
O 	O 	0.09883 0.20703 0.82928 -0.46400
O 	O 	0.17681 0.10289 0.87108 -0.31800
O 	O 	0.13773 0.15116 0.89220 -0.54600
C 	C 	0.08269 0.20788 0.77474 0.30800
O 	O 	0.09810 0.18579 0.73293 -0.35800
Cd	Cd	0.17300 0.17219 0.51881 1.24100
Cd	Cd	0.12904 0.08453 0.46553 1.16600
O 	O 	0.21635 0.20714 0.44819 -0.30000
O 	O 	0.20154 0.22994 0.53974 -0.33800
C 	C 	0.22073 0.23441 0.48867 0.24400
O 	O 	0.12920 0.15920 0.59108 -0.37800
O 	O 	0.12450 0.09533 0.56681 -0.44600
C 	C 	0.10902 0.12700 0.58906 0.29700
C 	C 	0.10830 0.17569 0.43680 0.30700
O 	O 	0.19258 0.10312 0.48013 -0.46000
O 	O 	0.11630 0.20957 0.46013 -0.29700
O 	O 	0.13387 0.14925 0.44793 -0.53200
C 	C 	0.21268 0.09939 0.53073 0.30200
O 	O 	0.21631 0.13008 0.56486 -0.35400
C 	C 	0.41512 0.09636 0.88603 0.11000
N 	N 	0.42978 0.06048 0.89543 -0.12500
C 	C 	0.44232 0.04989 0.95249 0.18100
N 	N 	0.44014 0.07517 0.00008 -0.11100
C 	C 	0.42571 0.11105 0.99087 0.17100
N 	N 	0.41326 0.12173 0.93384 -0.13100
C 	C 	0.42770 0.20069 0.32460 0.11100
N 	N 	0.42232 0.19991 0.26227 -0.12400
C 	C 	0.43992 0.17250 0.22769 0.18500
N 	N 	0.46278 0.14586 0.25531 -0.12000
C 	C 	0.46821 0.14635 0.31739 0.17900
N 	N 	0.45053 0.17374 0.35213 -0.12800
C 	C 	0.39300 0.14039 0.08091 -0.10400
C 	C 	0.42525 0.13860 0.04214 -0.06300
C 	C 	0.45962 0.15663 0.06026 0.33000
C 	C 	0.46307 0.17214 0.11961 -0.09800
C 	C 	0.43223 0.16971 0.16113 -0.07300
C 	C 	0.39642 0.15600 0.14029 0.32900
F 	F 	0.36594 0.15461 0.17936 -0.43900
H 	H 	0.36611 0.12721 0.06677 0.10100
H 	H 	0.49057 0.18350 0.13483 0.11300
F 	F 	0.49063 0.15634 0.02220 -0.42400
C 	C 	0.30164 0.28192 0.43463 0.12400
C 	C 	0.32471 0.28381 0.38165 -0.08700
C 	C 	0.36296 0.27093 0.38566 0.02800
C 	C 	0.37662 0.25271 0.43811 0.11700
C 	C 	0.35314 0.24970 0.49051 -0.08100
C 	C 	0.31635 0.26665 0.48880 0.01500
O 	O 	0.26179 0.27977 0.43027 -0.18400
C 	C 	0.25389 0.26030 0.48527 0.06000
C 	C 	0.28612 0.25331 0.52108 -0.05600
O 	O 	0.40606 0.22646 0.42673 -0.19500
C 	C 	0.40804 0.22991 0.36251 0.10600
C 	C 	0.38274 0.25650 0.33774 -0.08200
H 	H 	0.31213 0.29148 0.33742 0.07800
H 	H 	0.36178 0.23161 0.52900 0.07400
H 	H 	0.28811 0.23022 0.55479 0.06300
H 	H 	0.37236 0.25616 0.29044 0.08000
C 	C 	0.36248 0.10450 0.74721 0.11700
C 	C 	0.32846 0.09325 0.71718 -0.08100
C 	C 	0.30273 0.12199 0.69724 0.01000
C 	C 	0.30850 0.16026 0.71230 0.12200
C 	C 	0.34184 0.17132 0.74434 -0.09000
C 	C 	0.36944 0.14307 0.75852 0.02700
O 	O 	0.38188 0.07973 0.78717 -0.19500
C 	C 	0.39985 0.10697 0.82487 0.10500
C 	C 	0.39297 0.14467 0.80784 -0.08300
O 	O 	0.27466 0.18144 0.71671 -0.18500
C 	C 	0.24798 0.15215 0.70582 0.05500
C 	C 	0.26444 0.11685 0.69299 -0.04900
H 	H 	0.32056 0.06309 0.71488 0.07000
H 	H 	0.34436 0.20019 0.76292 0.07500
H 	H 	0.39527 0.16919 0.83863 0.07400
H 	H 	0.25021 0.08943 0.70025 0.05800
C 	C 	0.72679 0.43696 0.69823 -0.10300
C 	C 	0.71499 0.47265 0.72210 -0.07300
C 	C 	0.70263 0.50170 0.68134 0.33500
C 	C 	0.70654 0.49676 0.61753 -0.10200
C 	C 	0.72299 0.46289 0.59396 -0.07000
C 	C 	0.73086 0.43205 0.63431 0.32800
F 	F 	0.74568 0.39862 0.61215 -0.43200
H 	H 	0.73560 0.41403 0.72928 0.09900
H 	H 	0.69937 0.52034 0.58666 0.10800
F 	F 	0.68933 0.53573 0.70372 -0.41200
C 	C 	0.86519 0.26811 0.86326 -0.12600
C 	C 	0.89663 0.28809 0.89000 0.13600
C 	C 	0.93188 0.28889 0.85869 -0.10400
C 	C 	0.93423 0.27541 0.79773 0.00200
C 	C 	0.89980 0.26635 0.76578 0.05600
C 	C 	0.86573 0.26082 0.79947 -0.03100
N 	N 	0.89237 0.30863 0.94291 -0.20300
H 	H 	0.95757 0.29892 0.88226 0.05400
C 	C 	0.97167 0.26060 0.77501 -0.00400
N 	N 	0.89973 0.26176 0.70345 -0.19300
H 	H 	0.84038 0.24932 0.77670 0.03300
C 	C 	0.97509 0.22111 0.76301 -0.10300
C 	C 	0.01124 0.20409 0.75501 0.12300
C 	C 	0.04491 0.22637 0.76480 -0.13400
C 	C 	0.04157 0.26637 0.77264 -0.02500
C 	C 	0.00509 0.28394 0.77517 0.05800
H 	H 	0.94952 0.20320 0.76228 0.04300
N 	N 	0.01327 0.16639 0.73866 -0.20500
H 	H 	0.06733 0.28379 0.77734 0.04200
N 	N 	0.00229 0.32300 0.77701 -0.19300
H 	H 	0.98821 0.15004 0.73468 0.08600
H 	H 	0.03919 0.15322 0.72749 0.11000
H 	H 	0.02707 0.34003 0.77941 0.09200
H 	H 	0.97563 0.33680 0.77334 0.09700
H 	H 	0.87453 0.25383 0.68018 0.08700
H 	H 	0.92440 0.26740 0.67744 0.09300
H 	H 	0.86511 0.31724 0.95781 0.11200
H 	H 	0.91643 0.32013 0.96540 0.09100
C 	C 	0.70296 0.40960 0.02468 0.13800
C 	C 	0.71993 0.38423 0.06731 -0.08600
C 	C 	0.70431 0.34712 0.07376 0.01500
C 	C 	0.67537 0.33426 0.03499 0.13100
C 	C 	0.65968 0.35909 0.99027 -0.09300
C 	C 	0.67263 0.39736 0.98823 0.01400
O 	O 	0.72337 0.44031 0.99968 -0.20200
C 	C 	0.70336 0.44438 0.94399 0.10400
C 	C 	0.67302 0.41915 0.93680 -0.07800
O 	O 	0.67543 0.29462 0.02650 -0.17600
C 	C 	0.70849 0.28500 0.06013 0.05900
C 	C 	0.72522 0.31599 0.08978 -0.05600
H 	H 	0.74662 0.39188 0.09030 0.07800
H 	H 	0.64075 0.34796 0.95464 0.07900
H 	H 	0.66083 0.41060 0.89273 0.07300
H 	H 	0.75540 0.31724 0.10268 0.07000
C 	C 	0.87371 0.13397 0.34046 -0.15400
C 	C 	0.88370 0.12874 0.40367 0.10000
C 	C 	0.92289 0.12708 0.42063 -0.09900
C 	C 	0.95178 0.13397 0.37672 -0.00100
C 	C 	0.94182 0.13663 0.31346 0.05700
C 	C 	0.90306 0.13450 0.29596 -0.01500
N 	N 	0.85627 0.12664 0.44831 -0.21100
H 	H 	0.93077 0.12361 0.46883 0.05200
C 	C 	0.99107 0.14423 0.39796 -0.00500
N 	N 	0.96905 0.14365 0.26970 -0.19100
H 	H 	0.89555 0.13756 0.24758 0.04200
C 	C 	0.02073 0.11704 0.39175 -0.09700
C 	C 	0.05939 0.12886 0.39296 0.07000
C 	C 	0.06860 0.16593 0.41605 -0.12800
C 	C 	0.03888 0.19288 0.42469 -0.02400
C 	C 	0.00032 0.18282 0.41352 0.06300
H 	H 	0.01371 0.08785 0.37786 0.03600
N 	N 	0.08650 0.10683 0.36478 -0.23900
H 	H 	0.04564 0.22178 0.44022 0.05300
N 	N 	0.97245 0.21033 0.41762 -0.19300
H 	H 	0.08008 0.07867 0.35109 0.02700
H 	H 	0.11282 0.11855 0.35111 0.05000
H 	H 	0.97967 0.23872 0.42879 0.09000
H 	H 	0.94345 0.20395 0.41020 0.09500
H 	H 	0.96098 0.14918 0.22397 0.08100
H 	H 	0.99836 0.14391 0.28032 0.08700
H 	H 	0.82701 0.12793 0.43785 -0.03500
H 	H 	0.86419 0.12339 0.49468 0.04000
C 	C 	0.72234 0.35106 0.35172 0.11800
C 	C 	0.69630 0.32770 0.31952 -0.08300
C 	C 	0.70960 0.30782 0.26700 0.01800
C 	C 	0.74743 0.31114 0.24751 0.11800
C 	C 	0.77246 0.33684 0.27749 -0.08800
C 	C 	0.75963 0.35451 0.33175 0.02900
O 	O 	0.71086 0.37984 0.39248 -0.18800
C 	C 	0.74497 0.40134 0.39323 0.11300
C 	C 	0.77413 0.38644 0.35719 -0.08000
O 	O 	0.76131 0.27837 0.21821 -0.18400
C 	C 	0.72960 0.25409 0.22572 0.06300
C 	C 	0.69820 0.27203 0.25222 -0.05900
H 	H 	0.66698 0.32425 0.33558 0.07600
H 	H 	0.80199 0.34003 0.26231 0.07700
H 	H 	0.79930 0.40197 0.34135 0.09200
H 	H 	0.67554 0.25673 0.27637 0.06300
C 	C 	0.54122 0.06700 0.33715 -0.10900
C 	C 	0.52570 0.04659 0.38722 -0.07500
C 	C 	0.49456 0.06243 0.42009 0.31900
C 	C 	0.47755 0.09692 0.40009 -0.10400
C 	C 	0.49129 0.11566 0.34699 -0.07800
C 	C 	0.52424 0.10133 0.31719 0.32700
F 	F 	0.53937 0.12033 0.26806 -0.43700
H 	H 	0.56598 0.05572 0.31269 0.10800
H 	H 	0.45239 0.10787 0.42384 0.10300
F 	F 	0.47930 0.04333 0.46900 -0.43600
C 	C 	0.49654 0.00505 0.93220 -0.10200
C 	C 	0.46146 0.01255 0.96174 -0.08200
C 	C 	0.44792 0.98697 0.00701 0.33900
C 	C 	0.47056 0.95564 0.02557 -0.09200
C 	C 	0.50717 0.94988 0.99967 -0.08700
C 	C 	0.51953 0.97409 0.95127 0.33300
F 	F 	0.55473 0.96910 0.92533 -0.43100
H 	H 	0.50705 0.02452 0.89689 0.10600
H 	H 	0.46021 0.93661 0.06161 0.11400
F 	F 	0.41341 0.99327 0.03458 -0.43100
C 	C 	0.59920 0.91250 0.21185 -0.10300
C 	C 	0.56648 0.89556 0.18504 -0.07400
C 	C 	0.53463 0.88685 0.22245 0.32900
C 	C 	0.53378 0.89923 0.28399 -0.10100
C 	C 	0.56451 0.92065 0.30832 -0.07700
C 	C 	0.59818 0.92518 0.27324 0.32700
F 	F 	0.62866 0.94478 0.29690 -0.44800
H 	H 	0.62428 0.91860 0.18382 0.10000
H 	H 	0.50798 0.89484 0.31115 0.10400
F 	F 	0.50345 0.86882 0.19798 -0.43000
C 	C 	0.67608 0.11095 0.59043 -0.11600
C 	C 	0.67749 0.14211 0.54879 0.11700
C 	C 	0.65004 0.14416 0.50122 -0.09400
C 	C 	0.62304 0.11421 0.49461 0.00200
C 	C 	0.61415 0.09237 0.54770 0.06700
C 	C 	0.64134 0.09046 0.59585 -0.01600
N 	N 	0.70665 0.16811 0.55152 -0.21200
H 	H 	0.65340 0.16534 0.46478 0.06100
C 	C 	0.61918 0.09613 0.43273 -0.00100
N 	N 	0.58177 0.07054 0.54969 -0.19300
H 	H 	0.63797 0.06936 0.63244 0.04900
C 	C 	0.63521 0.05922 0.42438 -0.09200
C 	C 	0.65953 0.05246 0.37385 0.12300
C 	C 	0.66565 0.08232 0.33085 -0.10900
C 	C 	0.63921 0.11302 0.32899 -0.01200
C 	C 	0.61549 0.12000 0.38024 0.07400
H 	H 	0.63321 0.03791 0.46088 0.06500
N 	N 	0.67831 0.01829 0.36843 -0.20900
H 	H 	0.64058 0.13397 0.29184 0.06500
N 	N 	0.59190 0.15122 0.38117 -0.19100
H 	H 	0.67459 0.99660 0.40142 0.10100
H 	H 	0.69578 0.01266 0.33026 0.09100
H 	H 	0.59060 0.16999 0.34341 0.11500
H 	H 	0.57368 0.15618 0.41868 0.10100
H 	H 	0.57630 0.05262 0.58752 0.10900
H 	H 	0.56141 0.07197 0.51410 0.11600
H 	H 	0.72697 0.16706 0.58723 0.08200
H 	H 	0.70863 0.19022 0.51884 0.08600
C 	C 	0.06803 0.12699 0.60715 -0.13000
C 	C 	0.05176 0.09457 0.63687 0.11600
C 	C 	0.01163 0.09019 0.63807 -0.10300
C 	C 	0.98725 0.11835 0.61238 -0.00400
C 	C 	0.00353 0.15199 0.58588 0.05800
C 	C 	0.04380 0.15636 0.58499 -0.02500
N 	N 	0.07450 0.06811 0.66572 -0.20500
H 	H 	0.99928 0.06480 0.65919 0.05700
C 	C 	0.94470 0.11313 0.61714 -0.00000
N 	N 	0.98086 0.17977 0.56034 -0.19200
H 	H 	0.05628 0.18164 0.56345 0.04700
C 	C 	0.92292 0.13952 0.65188 -0.10400
C 	C 	0.88419 0.13197 0.66626 0.11600
C 	C 	0.86686 0.09760 0.64496 -0.13800
C 	C 	0.88893 0.07072 0.61224 -0.03500
C 	C 	0.92697 0.07906 0.59515 0.05300
H 	H 	0.93618 0.16586 0.66812 0.05400
N 	N 	0.86438 0.15701 0.70261 -0.21000
H 	H 	0.87615 0.04366 0.59855 0.02900
N 	N 	0.94617 0.05456 0.55711 -0.19300
H 	H 	0.87754 0.18211 0.71885 0.05600
H 	H 	0.83632 0.15111 0.71706 0.04300
H 	H 	0.93497 0.02731 0.54724 0.07500
H 	H 	0.97146 0.06298 0.53486 0.06800
H 	H 	0.99262 0.20633 0.54768 0.08900
H 	H 	0.95195 0.17466 0.54989 0.08600
H 	H 	0.10363 0.07350 0.67414 0.09300
H 	H 	0.06267 0.04273 0.68330 0.07700
C 	C 	0.63643 0.91277 0.68366 0.12400
C 	C 	0.61851 0.89432 0.63361 -0.08800
C 	C 	0.58540 0.91101 0.60759 0.03000
C 	C 	0.57166 0.94608 0.62806 0.11600
C 	C 	0.58922 0.96432 0.67857 -0.07800
C 	C 	0.62111 0.94654 0.70704 0.01800
O 	O 	0.67586 0.90945 0.69277 -0.19400
C 	C 	0.68386 0.94590 0.71668 0.05100
C 	C 	0.65102 0.96676 0.72997 -0.05200
O 	O 	0.55246 0.96719 0.58277 -0.19100
C 	C 	0.55728 0.94232 0.53272 0.10800
C 	C 	0.57634 0.90858 0.54721 -0.08400
H 	H 	0.63278 0.87050 0.61077 0.07800
H 	H 	0.58149 0.99371 0.69008 0.07500
H 	H 	0.65077 0.99793 0.73410 0.06100
H 	H 	0.59192 0.89111 0.51412 0.07400
C 	C 	0.91582 0.91466 0.71519 -0.12500
C 	C 	0.89878 0.94454 0.74967 0.12400
C 	C 	0.92168 0.97534 0.76978 -0.10500
C 	C 	0.95789 0.98191 0.74285 0.00200
C 	C 	0.97090 0.95650 0.69591 0.04600
C 	C 	0.95101 0.92174 0.68558 -0.01800
N 	N 	0.86034 0.94473 0.76086 -0.20600
H 	H 	0.91086 0.99472 0.80495 0.05100
C 	C 	0.98349 0.01280 0.76826 -0.00600
N 	N 	0.00163 0.96566 0.66007 -0.18900
H 	H 	0.96341 0.89989 0.65587 0.02900
C 	C 	0.02066 0.00297 0.78928 -0.10500
C 	C 	0.04519 0.03107 0.81472 0.12300
C 	C 	0.03263 0.06979 0.81764 -0.11700
C 	C 	0.99384 0.07827 0.80559 -0.02200
C 	C 	0.96993 0.05107 0.77686 0.05000
H 	H 	0.03053 0.97346 0.78574 0.05100
N 	N 	0.07978 0.02036 0.83892 -0.20300
H 	H 	0.98275 0.10679 0.81527 0.03300
N 	N 	0.93486 0.06228 0.75529 -0.19300
H 	H 	0.08929 0.99187 0.83527 0.06100
H 	H 	0.09647 0.03964 0.86455 0.08000
H 	H 	0.92372 0.08930 0.76686 0.06300
H 	H 	0.91950 0.04548 0.72388 0.08800
H 	H 	0.01211 0.94602 0.62761 0.04400
H 	H 	0.01378 0.99314 0.66132 0.06900
H 	H 	0.84204 0.92540 0.73847 0.11100
H 	H 	0.84799 0.96650 0.78766 0.09100
C 	C 	0.77368 0.09068 0.96519 -0.14400
C 	C 	0.77823 0.07375 0.90609 0.08900
C 	C 	0.79194 0.03570 0.90168 -0.09400
C 	C 	0.79821 0.01343 0.95500 -0.01400
C 	C 	0.79131 0.02959 0.01385 0.06600
C 	C 	0.77903 0.06795 0.01834 -0.01200
N 	N 	0.76758 0.09291 0.85389 -0.22600
H 	H 	0.79645 0.02294 0.85654 0.05100
C 	C 	0.81149 0.97304 0.94832 0.00200
N 	N 	0.79572 0.00829 0.06615 -0.19500
H 	H 	0.77488 0.08053 0.06367 0.05600
C 	C 	0.84989 0.96598 0.93193 -0.09800
C 	C 	0.86113 0.92935 0.91111 0.10700
C 	C 	0.83322 0.89988 0.90570 -0.13200
C 	C 	0.79799 0.90466 0.93632 -0.01500
C 	C 	0.78555 0.94166 0.95336 0.06300
H 	H 	0.87053 0.98944 0.93233 0.04800
N 	N 	0.89838 0.92287 0.89552 -0.19000
H 	H 	0.77780 0.88083 0.93776 0.04700
N 	N 	0.74849 0.94703 0.97184 -0.19200
H 	H 	0.91899 0.94459 0.90038 0.06600
H 	H 	0.90731 0.89607 0.87974 -0.03600
H 	H 	0.72965 0.92363 0.97506 0.09800
H 	H 	0.73781 0.97433 0.98243 0.10300
H 	H 	0.78718 0.01947 0.10867 0.09400
H 	H 	0.80787 0.98077 0.06533 0.09200
H 	H 	0.75105 0.11801 0.85590 0.07200
H 	H 	0.77335 0.08121 0.81040 0.06300
C 	C 	0.65685 0.86246 0.90334 0.11300
C 	C 	0.66757 0.86525 0.84123 -0.08100
C 	C 	0.67720 0.83126 0.80953 0.02000
C 	C 	0.67722 0.79593 0.83909 0.12300
C 	C 	0.66470 0.79310 0.90067 -0.08800
C 	C 	0.65669 0.82732 0.93263 0.02800
O 	O 	0.63469 0.89036 0.93230 -0.18000
C 	C 	0.62093 0.86831 0.98165 0.09700
C 	C 	0.63360 0.83056 0.98208 -0.09400
O 	O 	0.70338 0.76983 0.81454 -0.17300
C 	C 	0.72089 0.79337 0.77021 0.06200
C 	C 	0.70433 0.82951 0.76550 -0.05600
H 	H 	0.66854 0.89298 0.81843 0.08300
H 	H 	0.66415 0.76551 0.92411 0.08000
H 	H 	0.61858 0.80681 0.00385 0.08200
H 	H 	0.71946 0.85461 0.74824 0.07700
C 	C 	0.88996 0.51940 0.43824 -0.10400
C 	C 	0.88864 0.55742 0.46008 -0.07300
C 	C 	0.85294 0.57418 0.47461 0.33200
C 	C 	0.81934 0.55209 0.47208 -0.10100
C 	C 	0.82107 0.51313 0.45500 -0.07300
C 	C 	0.85639 0.49723 0.43592 0.32900
F 	F 	0.85863 0.45964 0.41894 -0.43600
H 	H 	0.91730 0.50634 0.42630 0.10300
H 	H 	0.79212 0.56490 0.48539 0.11000
F 	F 	0.85100 0.61155 0.49288 -0.41300
C 	C 	0.82483 0.60403 0.84415 -0.10100
C 	C 	0.85726 0.59183 0.87779 -0.07200
C 	C 	0.85541 0.55763 0.91255 0.32900
C 	C 	0.82247 0.53447 0.90975 -0.10400
C 	C 	0.79121 0.54521 0.87212 -0.07000
C 	C 	0.79191 0.58091 0.84138 0.33200
F 	F 	0.76110 0.59269 0.80746 -0.41000
H 	H 	0.82568 0.63077 0.81826 0.10700
H 	H 	0.82207 0.50722 0.93426 0.10500
F 	F 	0.88640 0.54557 0.94579 -0.43000
C 	C 	0.99345 0.60798 0.65341 -0.10600
C 	C 	0.96814 0.62544 0.61108 -0.07300
C 	C 	0.94125 0.65258 0.63233 0.32900
C 	C 	0.93593 0.65786 0.69571 -0.10500
C 	C 	0.95799 0.63673 0.73835 -0.07700
C 	C 	0.98846 0.61366 0.71700 0.32700
F 	F 	0.01091 0.59400 0.75773 -0.43500
H 	H 	0.01496 0.58771 0.63740 0.10300
H 	H 	0.91266 0.67610 0.71167 0.10100
F 	F 	0.91795 0.67128 0.59165 -0.42400
C 	C 	0.03912 0.98302 0.02824 -0.11500
C 	C 	0.03660 0.00654 0.08164 0.11900
C 	C 	0.00966 0.03677 0.08314 -0.10300
C 	C 	0.98404 0.04279 0.03385 0.00900
C 	C 	0.98635 0.01913 0.98069 0.04000
C 	C 	0.01385 0.98947 0.97851 -0.02600
N 	N 	0.06022 0.00073 0.13107 -0.20500
H 	H 	0.00904 0.05601 0.12247 0.05100
C 	C 	0.95474 0.07389 0.03862 -0.00700
N 	N 	0.96219 0.02456 0.93183 -0.19000
H 	H 	0.01565 0.97140 0.93778 0.03700
C 	C 	0.96634 0.11235 0.03186 -0.09700
C 	C 	0.93889 0.14207 0.02813 0.11800
C 	C 	0.89920 0.13291 0.02929 -0.11700
C 	C 	0.88780 0.09504 0.04263 -0.03700
C 	C 	0.91520 0.06528 0.04701 0.06200
H 	H 	0.99674 0.11909 0.02794 0.03000
N 	N 	0.95075 0.17927 0.02307 -0.20200
H 	H 	0.85742 0.08832 0.04617 0.03900
N 	N 	0.90338 0.02856 0.05821 -0.19300
H 	H 	0.98005 0.18582 0.01980 0.05100
H 	H 	0.93108 0.20206 0.02462 0.09700
H 	H 	0.87409 0.02222 0.06187 0.08800
H 	H 	0.92308 0.00633 0.06607 0.08800
H 	H 	0.96169 0.00481 0.89550 0.07700
H 	H 	0.94432 0.04870 0.92871 0.07500
H 	H 	0.08170 0.97973 0.13064 0.08700
H 	H 	0.05746 0.01767 0.17072 0.08000
C 	C 	0.94145 0.75167 0.74679 -0.13200
C 	C 	0.96038 0.76530 0.69327 0.14400
C 	C 	0.99882 0.77765 0.69806 -0.10100
C 	C 	0.01843 0.77464 0.75471 -0.00300
C 	C 	0.00267 0.75053 0.80125 0.05000
C 	C 	0.96408 0.73893 0.79644 -0.03600
N 	N 	0.94249 0.76516 0.63740 -0.20500
H 	H 	0.01219 0.79259 0.65968 0.05500
C 	C 	0.04512 0.80616 0.77219 -0.00200
N 	N 	0.02371 0.74009 0.85167 -0.19400
H 	H 	0.95058 0.72398 0.83471 0.04000
C 	C 	0.02960 0.84243 0.78593 -0.11700
C 	C 	0.04895 0.86718 0.82653 0.11500
C 	C 	0.08368 0.85482 0.85428 -0.13500
C 	C 	0.10320 0.82311 0.82883 -0.02300
C 	C 	0.08416 0.79883 0.78660 0.05500
H 	H 	0.00126 0.85010 0.76893 0.04100
N 	N 	0.03293 0.90155 0.84203 -0.21000
H 	H 	0.13146 0.81524 0.84623 0.03900
N 	N 	0.10278 0.76799 0.76217 -0.19300
H 	H 	0.00584 0.90942 0.82487 0.06500
H 	H 	0.04788 0.92122 0.86959 0.07800
H 	H 	0.13126 0.76194 0.77463 0.08700
H 	H 	0.08941 0.75044 0.72932 0.09300
H 	H 	0.01107 0.72421 0.88733 0.08500
H 	H 	0.05312 0.74571 0.85453 0.09400
H 	H 	0.91737 0.74924 0.63035 0.14300
H 	H 	0.95556 0.77791 0.59906 0.10300
C 	C 	0.15776 0.11027 0.97791 -0.18500
C 	C 	0.12850 0.08603 0.00122 0.12700
C 	C 	0.13715 0.06022 0.04902 -0.11700
C 	C 	0.17417 0.05908 0.07498 0.00200
C 	C 	0.20089 0.08823 0.05975 0.04700
C 	C 	0.19250 0.11361 0.01083 0.01600
N 	N 	0.09249 0.08663 0.97667 -0.20900
H 	H 	0.11596 0.03902 0.06274 0.05100
C 	C 	0.18678 0.02318 0.10606 -0.00800
N 	N 	0.23470 0.09154 0.09111 -0.18900
H 	H 	0.21420 0.13387 0.99533 0.02800
C 	C 	0.21121 0.99806 0.07379 -0.10500
C 	C 	0.20780 0.95807 0.08187 0.08400
C 	C 	0.17897 0.94356 0.12146 -0.13900
C 	C 	0.16123 0.96876 0.16337 -0.01900
C 	C 	0.16558 0.00874 0.15658 0.05000
H 	H 	0.23011 0.00934 0.03833 0.05000
N 	N 	0.23151 0.93380 0.05069 -0.21900
H 	H 	0.14092 0.95762 0.19679 0.04200
N 	N 	0.14732 0.03314 0.19587 -0.19100
H 	H 	0.25167 0.94459 0.01936 0.07400
H 	H 	0.23121 0.90417 0.05934 0.08900
H 	H 	0.12942 0.02245 0.23062 0.06700
H 	H 	0.15158 0.06290 0.19306 0.08000
H 	H 	0.25499 0.11226 0.07824 0.10100
H 	H 	0.24050 0.07448 0.12986 0.10000
H 	H 	0.08425 0.10805 0.94578 -0.01200
H 	H 	0.07175 0.06675 0.99095 0.07200
C 	C 	0.06656 0.69752 0.08083 0.12600
C 	C 	0.06319 0.67070 0.03266 -0.09700
C 	C 	0.02684 0.65479 0.02043 0.04000
C 	C 	0.99416 0.66816 0.04968 0.11100
C 	C 	0.99719 0.69691 0.09490 -0.08400
C 	C 	0.03410 0.70959 0.11223 0.01100
O 	O 	0.09667 0.72380 0.08265 -0.18200
C 	C 	0.07868 0.75374 0.11459 0.06200
C 	C 	0.04169 0.74519 0.13349 -0.04800
O 	O 	0.96045 0.66263 0.01595 -0.19000
C 	C 	0.97630 0.64605 0.96307 0.10100
C 	C 	0.01563 0.64107 0.96522 -0.09400
H 	H 	0.08737 0.66496 0.00251 0.08000
H 	H 	0.97162 0.71114 0.11220 0.06900
H 	H 	0.01980 0.76660 0.14341 0.06200
H 	H 	0.03407 0.63788 0.92522 0.08000
C 	C 	0.83879 0.03754 0.20897 -0.13500
C 	C 	0.84098 0.99706 0.21708 0.11700
C 	C 	0.87710 0.97949 0.22477 -0.10200
C 	C 	0.91087 0.00151 0.22361 -0.00900
C 	C 	0.90890 0.04079 0.20595 0.05800
C 	C 	0.87268 0.05819 0.19717 -0.03000
N 	N 	0.80866 0.97495 0.21652 -0.20800
H 	H 	0.87886 0.94868 0.23214 0.05200
C 	C 	0.94783 0.98334 0.24269 0.00800
N 	N 	0.94143 0.06190 0.19777 -0.19200
H 	H 	0.87097 0.08836 0.18460 0.04500
C 	C 	0.96618 0.95783 0.20211 -0.10600
C 	C 	0.00054 0.93910 0.21929 0.13700
C 	C 	0.01508 0.94353 0.28025 -0.13300
C 	C 	0.99704 0.96979 0.32035 -0.02000
C 	C 	0.96396 0.99020 0.30189 0.04500
H 	H 	0.95443 0.95355 0.15614 0.05700
N 	N 	0.02027 0.91869 0.17628 -0.20200
H 	H 	0.00819 0.97371 0.36677 -0.00600
N 	N 	0.94809 0.01645 0.34101 -0.19000
H 	H 	0.00687 0.91069 0.13493 0.09200
H 	H 	0.04993 0.91447 0.18035 0.10400
H 	H 	0.96154 0.02295 0.38300 0.06300
H 	H 	0.92218 0.03034 0.33075 0.07100
H 	H 	0.93983 0.08970 0.17938 0.08300
H 	H 	0.96851 0.05096 0.20933 0.08400
H 	H 	0.78185 0.98656 0.20483 0.10000
H 	H 	0.81038 0.94534 0.22504 0.08500
C 	C 	0.98073 0.85174 0.41411 -0.15300
C 	C 	0.97176 0.85973 0.47654 0.09500
C 	C 	0.94063 0.88409 0.49012 -0.10700
C 	C 	0.91768 0.89943 0.44262 -0.00100
C 	C 	0.92578 0.89026 0.38036 0.05200
C 	C 	0.95739 0.86669 0.36674 -0.01900
N 	N 	0.99231 0.84350 0.52350 -0.21700
H 	H 	0.93399 0.89084 0.53785 0.05700
C 	C 	0.88539 0.92520 0.45886 -0.00500
N 	N 	0.90326 0.90377 0.33356 -0.19000
H 	H 	0.96453 0.86084 0.31889 0.04600
C 	C 	0.89108 0.96516 0.45759 -0.09700
C 	C 	0.86381 0.99003 0.48386 0.08900
C 	C 	0.83253 0.97428 0.51688 -0.14300
C 	C 	0.82411 0.93495 0.51042 -0.01800
C 	C 	0.85032 0.91014 0.48142 0.06300
H 	H 	0.91720 0.97679 0.43781 0.04300
N 	N 	0.86719 0.02869 0.47584 -0.20100
H 	H 	0.79852 0.92319 0.53200 0.04900
N 	N 	0.84200 0.87198 0.47627 -0.19200
H 	H 	0.89033 0.04014 0.45111 0.05400
H 	H 	0.84623 0.04754 0.49219 -0.05800
H 	H 	0.81659 0.86088 0.49496 0.09700
H 	H 	0.85999 0.85323 0.45205 0.10000
H 	H 	0.90962 0.89680 0.28775 0.08400
H 	H 	0.87903 0.92078 0.34203 0.08200
H 	H 	0.01350 0.82281 0.51513 0.07700
H 	H 	0.98615 0.85042 0.56942 0.06900
C 	C 	0.23430 0.06397 0.54344 -0.12000
C 	C 	0.21606 0.03379 0.57574 0.10300
C 	C 	0.22169 0.99569 0.55608 -0.10100
C 	C 	0.24530 0.98823 0.50494 -0.00500
C 	C 	0.27158 0.01691 0.48614 0.06400
C 	C 	0.26566 0.05510 0.50532 -0.02200
N 	N 	0.19135 0.04146 0.62267 -0.21000
H 	H 	0.20421 0.97277 0.57532 0.04000
C 	C 	0.23250 0.95868 0.46012 -0.00400
N 	N 	0.30067 0.00833 0.44669 -0.19300
H 	H 	0.28244 0.07819 0.48502 0.05100
C 	C 	0.21400 0.97106 0.40584 -0.10100
C 	C 	0.18722 0.94729 0.37590 0.11200
C 	C 	0.18050 0.90974 0.39903 -0.12300
C 	C 	0.20353 0.89543 0.44735 -0.02500
C 	C 	0.22988 0.91959 0.47776 0.05700
H 	H 	0.21754 0.00061 0.39047 0.04300
N 	N 	0.16682 0.96134 0.32704 -0.20900
H 	H 	0.19976 0.86597 0.46301 0.04400
N 	N 	0.25217 0.90534 0.52422 -0.19300
H 	H 	0.17198 0.98917 0.31057 0.07300
H 	H 	0.14565 0.94500 0.30508 0.09700
H 	H 	0.24921 0.87674 0.53861 0.08600
H 	H 	0.27352 0.92219 0.54492 0.09300
H 	H 	0.31912 0.02991 0.43071 0.10200
H 	H 	0.30584 0.97989 0.43318 0.10300
H 	H 	0.18761 0.06956 0.63879 0.10500
H 	H 	0.17651 0.01917 0.64469 0.07000
C 	C 	0.07379 0.61379 0.36973 0.11800
C 	C 	0.10693 0.63673 0.36945 -0.08200
C 	C 	0.11234 0.66266 0.32037 0.01700
C 	C 	0.08408 0.66821 0.27605 0.12200
C 	C 	0.05090 0.64521 0.27635 -0.08700
C 	C 	0.04732 0.61670 0.32209 0.02600
O 	O 	0.05834 0.59993 0.42461 -0.19500
C 	C 	0.02011 0.59551 0.40592 0.10500
C 	C 	0.01336 0.60496 0.34495 -0.08100
O 	O 	0.08340 0.70528 0.25170 -0.18300
C 	C 	0.11216 0.72210 0.28782 0.06100
C 	C 	0.13047 0.69655 0.32697 -0.05900
H 	H 	0.12558 0.63757 0.40968 0.07400
H 	H 	0.02687 0.65214 0.24620 0.07600
H 	H 	0.98557 0.61382 0.32683 0.07500
H 	H 	0.14578 0.70503 0.36855 0.06600
