data_crystal

_cell_length_a 42.80090
_cell_length_b 41.61992
_cell_length_c 29.03362
_cell_angle_alpha 89.96299
_cell_angle_beta  89.94678
_cell_angle_gamma 89.99844

_symmetry_space_group_name_	'P 1'
_symmetry_space_group_name_H-M	'P 1'

loop_
_symmetry_equiv_pos_as_xyz
  x,y,z

loop_
_atom_site_label
_atom_site_type_symbol
_atom_site_fract_x
_atom_site_fract_y
_atom_site_fract_z
_atom_site_charge
C 	C 	0.55011 0.44020 0.04763 0.09900
N 	N 	0.52036 0.44871 0.03884 -0.17200
C 	C 	0.50223 0.42488 0.05537 0.10000
C 	C 	0.46862 0.42163 0.04379 -0.07500
C 	C 	0.44964 0.45067 0.03470 0.08900
C 	C 	0.45351 0.38973 0.04429 0.04200
C 	C 	0.45924 0.36780 0.00861 -0.06000
C 	C 	0.44292 0.33871 0.00702 -0.03400
C 	C 	0.42102 0.33125 0.04137 -0.00300
C 	C 	0.43191 0.38208 0.07894 -0.05900
N 	N 	0.45733 0.48011 0.05028 -0.12900
C 	C 	0.42148 0.45114 0.01142 -0.06400
C 	C 	0.43367 0.49944 0.03719 0.08700
C 	C 	0.43549 0.53495 0.03965 -0.07600
C 	C 	0.40791 0.55464 0.02794 0.04000
C 	C 	0.36235 0.58496 0.05194 -0.03200
C 	C 	0.39965 0.55940 0.98170 -0.05800
C 	C 	0.37225 0.57596 0.97065 -0.03100
C 	C 	0.35323 0.58834 0.00578 -0.00600
N 	N 	0.49310 0.54188 0.03686 -0.17200
C 	C 	0.51313 0.56563 0.04771 0.09900
C 	C 	0.49786 0.58973 0.07180 -0.06400
C 	C 	0.46705 0.58014 0.07558 -0.06500
C 	C 	0.54392 0.56943 0.02490 -0.07500
C 	C 	0.55629 0.60189 0.01472 0.03900
C 	C 	0.59484 0.64361 0.02810 -0.03300
C 	C 	0.57737 0.66501 0.00111 -0.00500
C 	C 	0.54960 0.65460 0.98033 -0.03100
C 	C 	0.53930 0.62303 0.98661 -0.05800
N 	N 	0.55892 0.51262 0.03836 -0.12900
C 	C 	0.59041 0.50496 0.97706 -0.06300
C 	C 	0.57513 0.49086 0.01375 0.08600
C 	C 	0.57735 0.45659 0.02650 -0.07600
C 	C 	0.60799 0.44038 0.02389 0.04100
C 	C 	0.63332 0.45249 0.04910 -0.05800
C 	C 	0.66337 0.44067 0.04133 -0.03200
C 	C 	0.66836 0.41678 0.00812 -0.00500
C 	C 	0.64275 0.40293 0.98542 -0.03100
C 	C 	0.61267 0.41503 0.99281 -0.05900
C 	C 	0.55114 0.41073 0.06987 -0.06400
C 	C 	0.52044 0.40090 0.07480 -0.06400
C 	C 	0.41562 0.35302 0.07738 -0.03300
C 	C 	0.41132 0.48250 0.01276 -0.06300
C 	C 	0.46506 0.55060 0.05380 0.10000
C 	C 	0.58282 0.53709 0.97863 -0.06200
C 	C 	0.56375 0.54090 0.01680 0.08500
C 	C 	0.58435 0.61216 0.03486 -0.05800
H 	H 	0.51370 0.46453 0.01266 0.09400
H 	H 	0.49622 0.52600 0.00935 0.09300
H 	H 	0.68296 0.45091 0.05983 0.03500
H 	H 	0.64635 0.38386 0.96062 0.03500
H 	H 	0.62984 0.47178 0.07360 0.04600
H 	H 	0.59319 0.40536 0.97347 0.04300
H 	H 	0.44698 0.32218 0.97884 0.03600
H 	H 	0.42734 0.39891 0.10659 0.04500
H 	H 	0.39855 0.34753 0.10383 0.03500
H 	H 	0.47585 0.37358 0.98167 0.04400
H 	H 	0.36565 0.57890 0.93488 0.03400
H 	H 	0.41412 0.54969 0.95441 0.04300
C 	C 	0.38912 0.56739 0.06302 -0.06000
H 	H 	0.34818 0.59511 0.07923 0.03400
H 	H 	0.61620 0.65155 0.04453 0.03500
H 	H 	0.59764 0.59602 0.05661 0.04500
H 	H 	0.51772 0.61524 0.97065 0.04300
H 	H 	0.53574 0.67113 0.95999 0.03400
H 	H 	0.57113 0.39482 0.07071 0.04600
H 	H 	0.51315 0.37625 0.07991 0.04600
H 	H 	0.40716 0.43045 0.00346 0.04600
H 	H 	0.38786 0.49058 0.00513 0.04500
H 	H 	0.50581 0.61433 0.07470 0.04700
H 	H 	0.44768 0.59634 0.08137 0.04600
H 	H 	0.59900 0.49238 0.94698 0.04400
H 	H 	0.58350 0.55318 0.94932 0.04400
H 	H 	0.39528 0.56371 0.09882 0.04400
Zn	Zn	0.32160 0.15705 0.01670 1.22000
C 	C 	0.31825 0.14706 0.11488 0.32500
O 	O 	0.28257 0.13260 0.02271 -0.45300
O 	O 	0.29036 0.16031 0.11385 -0.45700
O 	O 	0.25318 0.17783 0.02952 -0.51100
C 	C 	0.33894 0.22202 0.04063 0.32600
O 	O 	0.33612 0.20116 0.00702 -0.47100
O 	O 	0.32096 0.22003 0.07700 -0.49800
C 	C 	0.25523 0.14679 0.02248 0.33100
O 	O 	0.31723 0.15356 0.93578 -0.33000
Zn	Zn	0.28045 0.19957 0.07326 1.17000
O 	O 	0.33738 0.15031 0.07962 -0.44300
C 	C 	0.33959 0.13259 0.93869 0.28700
O 	O 	0.34972 0.12690 0.97994 -0.38700
C 	C 	0.48670 0.99384 0.53912 0.01000
C 	C 	0.46192 0.01643 0.54320 0.01000
C 	C 	0.48486 0.96911 0.50633 -0.05500
C 	C 	0.45917 0.96737 0.47635 0.01100
C 	C 	0.43641 0.01498 0.51278 -0.05400
C 	C 	0.43517 0.99094 0.47879 0.01000
H 	H 	0.41780 0.03252 0.51534 0.05000
H 	H 	0.50338 0.95147 0.50397 0.05000
C 	C 	0.41020 0.98937 0.44703 -0.01300
C 	C 	0.41014 0.96692 0.41094 0.00800
C 	C 	0.39162 0.97667 0.37263 -0.05700
C 	C 	0.37723 0.00653 0.37925 0.00700
S 	S 	0.38872 0.02069 0.43023 -0.01000
H 	H 	0.39162 0.96449 0.33975 0.04400
C 	C 	0.45667 0.94262 0.44328 -0.01400
C 	C 	0.43354 0.94332 0.40914 0.00800
C 	C 	0.44175 0.92553 0.36897 -0.05700
C 	C 	0.47118 0.91091 0.37223 0.00700
S 	S 	0.48654 0.92126 0.42282 -0.00900
H 	H 	0.42872 0.92645 0.33710 0.04400
C 	C 	0.51367 0.01961 0.60388 0.00800
C 	C 	0.51306 0.99711 0.56797 -0.01300
S 	S 	0.53743 0.96742 0.58193 -0.01100
C 	C 	0.55065 0.98234 0.63160 0.00800
C 	C 	0.53490 0.01129 0.63975 -0.05700
C 	C 	0.46404 0.04067 0.57712 -0.01300
C 	C 	0.48887 0.04146 0.60867 0.00800
C 	C 	0.48137 0.05793 0.65024 -0.05700
C 	C 	0.45074 0.06978 0.65085 0.00700
S 	S 	0.43351 0.05875 0.60181 -0.00900
H 	H 	0.49631 0.05830 0.68026 0.04400
H 	H 	0.53592 0.02358 0.67252 0.04400
Zn	Zn	0.62678 0.85768 0.00956 1.22100
C 	C 	0.67849 0.90159 0.01591 0.32400
O 	O 	0.60049 0.86246 0.06476 -0.47100
O 	O 	0.66022 0.92463 0.00067 -0.45200
O 	O 	0.61929 0.91186 0.08249 -0.49700
C 	C 	0.60812 0.89656 0.93365 0.33500
O 	O 	0.62878 0.87535 0.94743 -0.46000
O 	O 	0.59392 0.91498 0.96374 -0.51300
C 	C 	0.60452 0.88563 0.09482 0.32200
O 	O 	0.59036 0.82026 0.98033 -0.33000
Zn	Zn	0.61407 0.92829 0.02054 1.17100
O 	O 	0.66633 0.87514 0.03295 -0.44600
C 	C 	0.61106 0.79880 0.99122 0.28500
O 	O 	0.63659 0.80983 0.00901 -0.39700
Zn	Zn	0.17658 0.67612 0.96793 1.22000
C 	C 	0.17209 0.66210 0.06547 0.32700
O 	O 	0.16471 0.72140 0.96031 -0.47300
O 	O 	0.20004 0.67472 0.07054 -0.45500
O 	O 	0.17434 0.73627 0.03415 -0.50100
C 	C 	0.24167 0.66334 0.98188 0.33200
O 	O 	0.21386 0.65036 0.97784 -0.45900
O 	O 	0.24429 0.69373 0.99326 -0.51400
C 	C 	0.15849 0.73967 0.99589 0.32400
O 	O 	0.18794 0.67324 0.88825 -0.33100
Zn	Zn	0.21446 0.71450 0.03414 1.16900
O 	O 	0.15611 0.66706 0.02739 -0.44700
C 	C 	0.16204 0.65712 0.88545 0.28800
O 	O 	0.14734 0.65281 0.92396 -0.39100
C 	C 	0.05949 0.49047 0.51265 0.01000
C 	C 	0.03802 0.46433 0.51442 0.01100
C 	C 	0.07342 0.49907 0.47053 -0.05500
C 	C 	0.06636 0.48176 0.43029 0.01000
C 	C 	0.03207 0.44618 0.47463 -0.05500
C 	C 	0.04614 0.45465 0.43259 0.01000
H 	H 	0.01754 0.42492 0.47677 0.05000
H 	H 	0.09044 0.51832 0.46934 0.05000
C 	C 	0.04174 0.43587 0.39261 -0.01300
C 	C 	0.05428 0.44509 0.34997 0.00800
C 	C 	0.03838 0.43121 0.31179 -0.05700
C 	C 	0.01349 0.41140 0.32495 0.00700
S 	S 	0.01081 0.41253 0.38232 -0.01200
H 	H 	0.04226 0.43837 0.27643 0.04500
C 	C 	0.08030 0.48972 0.38765 -0.01300
C 	C 	0.07321 0.47254 0.34729 0.00800
C 	C 	0.07806 0.49070 0.30635 -0.05800
C 	C 	0.08767 0.52217 0.31524 0.00800
S 	S 	0.09113 0.52679 0.37207 -0.01100
H 	H 	0.07471 0.48137 0.27194 0.04400
C 	C 	0.05106 0.50001 0.59506 0.00800
C 	C 	0.06712 0.50643 0.55412 -0.01300
S 	S 	0.08271 0.54308 0.55859 -0.01200
C 	C 	0.07013 0.55169 0.61183 0.00800
C 	C 	0.05294 0.52530 0.62776 -0.05700
C 	C 	0.02425 0.45619 0.55716 -0.01400
C 	C 	0.02926 0.47500 0.59655 0.00800
C 	C 	0.00485 0.47258 0.62957 -0.05700
C 	C 	0.98055 0.45253 0.61523 0.00800
S 	S 	0.98985 0.43767 0.56354 -0.01100
H 	H 	0.00528 0.48423 0.66288 0.04500
H 	H 	0.04424 0.52345 0.66267 0.04600
Zn	Zn	0.85612 0.35972 0.98254 1.22100
C 	C 	0.79947 0.39707 0.98261 0.32400
O 	O 	0.87834 0.36779 0.92420 -0.46500
O 	O 	0.81574 0.42192 0.99677 -0.45200
O 	O 	0.85320 0.41489 0.91059 -0.49700
C 	C 	0.87458 0.39972 0.05745 0.33600
O 	O 	0.85535 0.37678 0.04496 -0.46600
O 	O 	0.88409 0.42103 0.02720 -0.51200
C 	C 	0.86950 0.39040 0.89545 0.32200
O 	O 	0.89779 0.32691 0.00799 -0.33000
Zn	Zn	0.85999 0.43123 0.97233 1.17100
O 	O 	0.81357 0.37206 0.96445 -0.44400
C 	C 	0.87862 0.30325 0.00096 0.28200
O 	O 	0.85166 0.31110 0.98431 -0.39500
C 	C 	0.97848 0.92601 0.99337 0.09800
N 	N 	0.95871 0.95103 0.98924 -0.17100
C 	C 	0.93371 0.94405 0.01563 0.09800
C 	C 	0.90397 0.96229 0.01365 -0.07500
C 	C 	0.90438 0.99787 0.01007 0.08700
C 	C 	0.87379 0.94508 0.01306 0.03900
C 	C 	0.85621 0.94401 0.97235 -0.05600
C 	C 	0.82507 0.93396 0.97353 -0.03300
C 	C 	0.81135 0.92487 0.01543 -0.00300
C 	C 	0.86064 0.93400 0.05441 -0.05900
N 	N 	0.93096 0.01518 0.01037 -0.13000
C 	C 	0.87856 0.01740 0.01679 -0.06300
C 	C 	0.92198 0.04597 0.01597 0.08800
C 	C 	0.94421 0.07211 0.02695 -0.07700
C 	C 	0.93391 0.10590 0.02408 0.04000
C 	C 	0.92258 0.15680 0.06113 -0.03400
C 	C 	0.92687 0.11952 0.98113 -0.05600
C 	C 	0.91768 0.15166 0.97820 -0.03300
C 	C 	0.91640 0.17067 0.01804 -0.00200
N 	N 	0.99373 0.04831 0.99869 -0.17100
C 	C 	0.02423 0.05358 0.00681 0.09500
C 	C 	0.02808 0.07264 0.04540 -0.06300
C 	C 	0.99835 0.08028 0.06054 -0.06500
C 	C 	0.04962 0.03582 0.98325 -0.07300
C 	C 	0.08166 0.04924 0.98262 0.04100
C 	C 	0.13605 0.04601 0.00589 -0.03500
C 	C 	0.14103 0.07741 0.98991 -0.00100
C 	C 	0.11633 0.09454 0.96984 -0.03300
C 	C 	0.08690 0.08033 0.96556 -0.05900
N 	N 	0.02056 0.98434 0.97891 -0.12700
C 	C 	0.05046 0.95740 0.92814 -0.06300
C 	C 	0.02485 0.95605 0.95734 0.08700
C 	C 	0.01070 0.92586 0.97441 -0.07500
C 	C 	0.03022 0.89679 0.97871 0.04300
C 	C 	0.05298 0.89495 0.01330 -0.06000
C 	C 	0.07269 0.86826 0.01587 -0.03400
C 	C 	0.07013 0.84353 0.98334 -0.00200
C 	C 	0.04668 0.84485 0.94965 -0.03300
C 	C 	0.02682 0.87147 0.94728 -0.06000
C 	C 	0.96651 0.90328 0.02342 -0.06500
C 	C 	0.93762 0.91461 0.03725 -0.06400
C 	C 	0.82971 0.92321 0.05535 -0.03300
C 	C 	0.88989 0.04828 0.02058 -0.06300
C 	C 	0.97788 0.06475 0.03103 0.10000
C 	C 	0.06200 0.98824 0.93139 -0.06300
C 	C 	0.04297 0.00400 0.96258 0.08700
C 	C 	0.10642 0.03206 0.00260 -0.05900
H 	H 	0.95870 0.96728 0.96179 0.09600
H 	H 	0.98451 0.04073 0.96719 0.09400
H 	H 	0.09032 0.86707 0.04256 0.03400
H 	H 	0.04429 0.82560 0.92482 0.03700
H 	H 	0.05558 0.91434 0.03788 0.04600
H 	H 	0.00915 0.87266 0.92065 0.04400
H 	H 	0.81125 0.93453 0.94230 0.03600
H 	H 	0.87398 0.93488 0.08607 0.04300
H 	H 	0.81949 0.91536 0.08760 0.03600
H 	H 	0.86624 0.95238 0.94023 0.04400
H 	H 	0.91217 0.16200 0.94492 0.03700
H 	H 	0.92860 0.10521 0.95007 0.04400
C 	C 	0.93108 0.12445 0.06417 -0.05900
H 	H 	0.92094 0.17114 0.09218 0.03500
H 	H 	0.15493 0.03275 0.02188 0.03500
H 	H 	0.10255 0.00820 0.01639 0.04400
H 	H 	0.06791 0.09383 0.95025 0.04200
H 	H 	0.11975 0.11910 0.95859 0.03400
H 	H 	0.97438 0.87865 0.02640 0.04600
H 	H 	0.91906 0.89986 0.05116 0.04600
H 	H 	0.85628 0.00944 0.03035 0.04500
H 	H 	0.87774 0.06776 0.03763 0.04500
H 	H 	0.04931 0.08506 0.05501 0.04500
H 	H 	0.99267 0.10064 0.08211 0.04500
H 	H 	0.06388 0.93685 0.91670 0.04500
H 	H 	0.08551 0.99534 0.92213 0.04500
H 	H 	0.93562 0.11385 0.09758 0.04200
C 	C 	0.88823 0.26942 0.00702 -0.09100
C 	C 	0.86786 0.24627 0.02670 0.06000
C 	C 	0.87737 0.21403 0.02910 -0.07900
C 	C 	0.90735 0.20485 0.01485 0.00900
C 	C 	0.92840 0.22827 0.99787 -0.00500
C 	C 	0.91847 0.26028 0.99366 -0.00600
H 	H 	0.86149 0.19608 0.04275 0.04800
H 	H 	0.93443 0.27818 0.98008 0.04100
C 	C 	0.83627 0.25547 0.04638 -0.07200
C 	C 	0.96218 0.22001 0.98743 -0.05100
C 	C 	0.81010 0.24841 0.01213 -0.13700
H 	H 	0.83538 0.28103 0.05713 0.04900
H 	H 	0.83185 0.24134 0.07826 0.03900
H 	H 	0.81352 0.26213 0.97973 0.07200
H 	H 	0.78729 0.25537 0.02739 0.05100
H 	H 	0.80935 0.22234 0.00400 0.05400
C 	C 	0.98212 0.22158 0.03092 -0.14500
H 	H 	0.97186 0.23717 0.96175 0.03600
H 	H 	0.96440 0.19587 0.97162 0.03900
H 	H 	0.98115 0.24606 0.04613 0.05900
H 	H 	0.00679 0.21599 0.02216 0.05300
H 	H 	0.97388 0.20383 0.05677 0.05900
C 	C 	0.90716 0.40069 0.76102 0.06400
N 	N 	0.87786 0.41150 0.77097 -0.12100
C 	C 	0.86459 0.40657 0.81300 0.07000
C 	C 	0.88119 0.39046 0.84766 -0.12400
C 	C 	0.91059 0.37759 0.83730 0.03600
C 	C 	0.92372 0.38282 0.79398 -0.08600
H 	H 	0.84149 0.41605 0.81992 0.02500
H 	H 	0.92390 0.36499 0.86338 0.02800
H 	H 	0.94725 0.37456 0.78695 0.04900
C 	C 	0.95825 0.43754 0.64727 -0.01300
C 	C 	0.95987 0.40463 0.65705 -0.02000
C 	C 	0.94201 0.39192 0.69291 -0.05900
C 	C 	0.92302 0.41243 0.71921 0.05000
N 	N 	0.92054 0.44402 0.70750 -0.11000
C 	C 	0.93760 0.45684 0.67246 0.02000
H 	H 	0.97570 0.38920 0.63810 0.03600
H 	H 	0.94346 0.36654 0.70093 0.04300
H 	H 	0.93580 0.48228 0.66506 0.03100
C 	C 	0.94106 0.39993 0.22712 0.05000
N 	N 	0.96736 0.38156 0.22495 -0.10900
C 	C 	0.99008 0.38368 0.25756 0.02000
C 	C 	0.98676 0.40496 0.29460 -0.01200
C 	C 	0.95917 0.42279 0.29879 -0.02000
C 	C 	0.93609 0.42012 0.26513 -0.05800
H 	H 	0.01119 0.36954 0.25394 0.03100
H 	H 	0.95611 0.43951 0.32702 0.03700
H 	H 	0.91496 0.43432 0.26781 0.04300
C 	C 	0.88738 0.40022 0.10449 -0.12500
C 	C 	0.89495 0.42946 0.12544 0.04200
C 	C 	0.91101 0.42959 0.16714 -0.08800
C 	C 	0.91940 0.40033 0.18776 0.06700
N 	N 	0.91089 0.37208 0.16761 -0.12000
C 	C 	0.89489 0.37144 0.12710 0.07500
H 	H 	0.88914 0.45202 0.10888 0.01500
H 	H 	0.91809 0.45222 0.18231 0.04900
H 	H 	0.88917 0.34854 0.11154 0.02900
C 	C 	0.09222 0.81633 0.98435 0.01500
C 	C 	0.12062 0.81739 0.95935 -0.01100
C 	C 	0.14203 0.79203 0.96370 0.00200
C 	C 	0.13529 0.76552 0.99175 -0.11400
C 	C 	0.10640 0.76388 0.01537 0.07000
C 	C 	0.08512 0.78940 0.01142 -0.08600
H 	H 	0.16412 0.79306 0.94542 0.02400
H 	H 	0.06294 0.78831 0.02945 0.04900
C 	C 	0.12888 0.84580 0.92897 -0.05200
C 	C 	0.09709 0.73414 0.04228 -0.08400
C 	C 	0.14839 0.87043 0.95518 -0.14300
H 	H 	0.10775 0.85764 0.91476 0.04000
H 	H 	0.14252 0.83737 0.89868 0.03600
H 	H 	0.13524 0.87995 0.98515 0.05600
H 	H 	0.15424 0.89079 0.93199 0.05200
H 	H 	0.17051 0.85938 0.96743 0.05100
C 	C 	0.08369 0.70844 0.01043 -0.13300
H 	H 	0.07917 0.74032 0.06858 0.04200
H 	H 	0.11721 0.72412 0.06163 0.05600
H 	H 	0.06289 0.71785 0.99194 0.05700
H 	H 	0.07648 0.68723 0.03108 0.05600
H 	H 	0.10145 0.70061 0.98488 0.06300
C 	C 	0.12676 0.62027 0.75887 0.06500
N 	N 	0.10918 0.61929 0.79799 -0.11800
C 	C 	0.12004 0.63105 0.83867 0.06500
C 	C 	0.14993 0.64484 0.84116 -0.10000
C 	C 	0.16810 0.64668 0.80105 0.03000
C 	C 	0.15647 0.63450 0.75973 -0.08100
H 	H 	0.10541 0.62970 0.86904 0.03400
H 	H 	0.19117 0.65737 0.80185 0.03400
H 	H 	0.17038 0.63614 0.72863 0.04900
C 	C 	0.08676 0.57345 0.64329 -0.01200
C 	C 	0.11835 0.56837 0.65342 -0.02000
C 	C 	0.13217 0.58486 0.68990 -0.05800
C 	C 	0.11421 0.60644 0.71600 0.05000
N 	N 	0.08378 0.61181 0.70459 -0.10900
C 	C 	0.06992 0.59607 0.66897 0.02100
H 	H 	0.13172 0.55059 0.63459 0.03600
H 	H 	0.15619 0.57982 0.69914 0.04300
H 	H 	0.04543 0.60022 0.66175 0.03200
C 	C 	0.12318 0.58399 0.21101 0.04900
N 	N 	0.13224 0.55264 0.21312 -0.10900
C 	C 	0.12163 0.53263 0.24679 0.02000
C 	C 	0.10110 0.54414 0.28069 -0.01300
C 	C 	0.09230 0.57651 0.27995 -0.02000
C 	C 	0.10336 0.59656 0.24505 -0.05800
H 	H 	0.12917 0.50781 0.24723 0.03100
H 	H 	0.07655 0.58596 0.30584 0.03500
H 	H 	0.09665 0.62166 0.24448 0.04200
C 	C 	0.15890 0.64190 0.10234 -0.12000
C 	C 	0.12680 0.64226 0.11162 0.03900
C 	C 	0.11489 0.62358 0.14747 -0.08700
C 	C 	0.13529 0.60469 0.17393 0.06600
N 	N 	0.16638 0.60428 0.16389 -0.12100
C 	C 	0.17850 0.62244 0.12921 0.07100
H 	H 	0.11119 0.65717 0.09148 0.02400
H 	H 	0.09002 0.62356 0.15442 0.04900
H 	H 	0.20334 0.62152 0.12224 0.02400
C 	C 	0.77743 0.91847 0.01779 0.01300
C 	C 	0.75645 0.94172 0.03552 -0.01200
C 	C 	0.72427 0.93531 0.03541 0.00300
C 	C 	0.71260 0.90658 0.01703 -0.10900
C 	C 	0.73355 0.88373 0.99806 0.06800
C 	C 	0.76584 0.88957 0.99990 -0.08100
H 	H 	0.70816 0.95305 0.04905 0.02600
H 	H 	0.78198 0.87189 0.98619 0.04900
C 	C 	0.76776 0.97436 0.05172 -0.05000
C 	C 	0.72195 0.85333 0.97491 -0.07400
C 	C 	0.76969 0.99812 0.01175 -0.14700
H 	H 	0.79079 0.97282 0.06901 0.03800
H 	H 	0.75141 0.98415 0.07798 0.03300
H 	H 	0.78674 0.98980 0.98553 0.06000
H 	H 	0.77747 0.02188 0.02479 0.05200
H 	H 	0.74642 0.00102 0.99535 0.05700
C 	C 	0.72272 0.82485 0.00807 -0.14000
H 	H 	0.73711 0.84767 0.94486 0.04200
H 	H 	0.69805 0.85622 0.96070 0.04700
H 	H 	0.74714 0.81964 0.01865 0.05600
H 	H 	0.71307 0.80325 0.99072 0.06100
H 	H 	0.70853 0.82982 0.03927 0.07200
C 	C 	0.58043 0.92926 0.74825 0.04900
N 	N 	0.59614 0.95610 0.73457 -0.11000
C 	C 	0.58778 0.97255 0.69596 0.02000
C 	C 	0.56258 0.96202 0.66917 -0.01200
C 	C 	0.54715 0.93358 0.68140 -0.02000
C 	C 	0.55629 0.91695 0.72080 -0.05900
H 	H 	0.60019 0.99431 0.68678 0.03200
H 	H 	0.52746 0.92502 0.66146 0.03600
H 	H 	0.54403 0.89527 0.73083 0.04300
C 	C 	0.60040 0.89947 0.88459 -0.12500
C 	C 	0.56927 0.90307 0.87094 0.04200
C 	C 	0.56241 0.91103 0.82550 -0.08700
C 	C 	0.58685 0.91537 0.79386 0.06600
N 	N 	0.61699 0.91065 0.80742 -0.12100
C 	C 	0.62415 0.90244 0.85159 0.07400
H 	H 	0.55051 0.90069 0.89580 0.02300
H 	H 	0.53839 0.91523 0.81543 0.05000
H 	H 	0.64838 0.89966 0.86151 0.02500
C 	C 	0.53093 0.89337 0.25834 0.04900
N 	N 	0.51892 0.92322 0.26591 -0.11000
C 	C 	0.49908 0.92909 0.30157 0.02000
C 	C 	0.49075 0.90425 0.33183 -0.01200
C 	C 	0.50311 0.87354 0.32500 -0.02100
C 	C 	0.52325 0.86798 0.28809 -0.05800
H 	H 	0.49018 0.95316 0.30686 0.03300
H 	H 	0.49733 0.85413 0.34839 0.03500
H 	H 	0.53308 0.84427 0.28289 0.04200
C 	C 	0.58812 0.88441 0.13961 -0.12700
C 	C 	0.56397 0.86222 0.14698 0.03500
C 	C 	0.54598 0.86408 0.18690 -0.08800
C 	C 	0.55222 0.88819 0.21931 0.06500
N 	N 	0.57639 0.90891 0.21230 -0.12200
C 	C 	0.59452 0.90729 0.17384 0.06800
H 	H 	0.55835 0.84438 0.12115 0.02500
H 	H 	0.52658 0.84771 0.19180 0.04800
H 	H 	0.61344 0.92428 0.16940 0.02300
C 	C 	0.17121 0.09347 0.99844 0.01300
C 	C 	0.19415 0.09605 0.96346 -0.01000
C 	C 	0.22151 0.11370 0.97199 0.00400
C 	C 	0.22674 0.12772 0.01517 -0.11100
C 	C 	0.20477 0.12324 0.05109 0.06200
C 	C 	0.17698 0.10651 0.04210 -0.08200
H 	H 	0.23875 0.11654 0.94488 0.03500
H 	H 	0.15989 0.10336 0.06932 0.04700
C 	C 	0.18987 0.08016 0.91693 -0.05100
C 	C 	0.21192 0.13353 0.10004 -0.06700
C 	C 	0.17790 0.10408 0.88120 -0.14400
H 	H 	0.17373 0.05931 0.91878 0.03900
H 	H 	0.21266 0.07041 0.90492 0.03800
H 	H 	0.15488 0.11392 0.89164 0.05700
H 	H 	0.17516 0.09177 0.84753 0.05400
H 	H 	0.19474 0.12418 0.87688 0.05700
C 	C 	0.23152 0.10822 0.12482 -0.14200
H 	H 	0.18984 0.13709 0.11962 0.03300
H 	H 	0.22416 0.15701 0.10092 0.01900
H 	H 	0.21843 0.08523 0.12725 0.05700
H 	H 	0.23701 0.11662 0.16020 0.05600
H 	H 	0.25384 0.10397 0.10626 0.07300
C 	C 	0.38528 0.09884 0.81770 0.06500
N 	N 	0.35592 0.11138 0.81559 -0.11800
C 	C 	0.34066 0.12149 0.85411 0.06500
C 	C 	0.35520 0.11956 0.89734 -0.09900
C 	C 	0.38526 0.10640 0.90028 0.03000
C 	C 	0.40045 0.09618 0.86039 -0.08100
H 	H 	0.31731 0.13127 0.85105 0.03200
H 	H 	0.39712 0.10478 0.93314 0.03500
H 	H 	0.42409 0.08701 0.86246 0.04900
C 	C 	0.43321 0.07613 0.69354 -0.01200
C 	C 	0.43430 0.05445 0.73042 -0.02000
C 	C 	0.41842 0.06152 0.77111 -0.05900
C 	C 	0.40170 0.09043 0.77472 0.05100
N 	N 	0.40016 0.11073 0.73792 -0.10800
C 	C 	0.41542 0.10421 0.69783 0.02100
H 	H 	0.44729 0.03220 0.72751 0.03500
H 	H 	0.41896 0.04465 0.79952 0.04300
H 	H 	0.41401 0.12105 0.66947 0.03300
C 	C 	0.34328 0.08906 0.22980 0.06600
N 	N 	0.35616 0.08366 0.18755 -0.12000
C 	C 	0.34885 0.10231 0.15053 0.07200
C 	C 	0.32773 0.12790 0.15527 -0.11900
C 	C 	0.31483 0.13426 0.19865 0.03800
C 	C 	0.32278 0.11500 0.23611 -0.08700
H 	H 	0.35906 0.09690 0.11729 0.02900
H 	H 	0.29879 0.15412 0.20340 0.01800
H 	H 	0.31321 0.12026 0.26983 0.04800
C 	C 	0.36813 0.02763 0.34100 -0.01200
C 	C 	0.33689 0.03647 0.33530 -0.02100
C 	C 	0.32848 0.05650 0.29887 -0.05800
C 	C 	0.35163 0.06801 0.26876 0.04900
N 	N 	0.38194 0.05884 0.27468 -0.10800
C 	C 	0.39058 0.03916 0.30992 0.02000
H 	H 	0.31916 0.02766 0.35879 0.03500
H 	H 	0.30416 0.06276 0.29377 0.04100
H 	H 	0.41490 0.03253 0.31385 0.03300
C 	C 	0.36140 0.24860 0.03664 -0.11200
C 	C 	0.35474 0.27586 0.00920 0.07100
C 	C 	0.37508 0.30230 0.01023 -0.08600
C 	C 	0.40194 0.30183 0.03778 0.01400
C 	C 	0.40921 0.27409 0.06389 -0.01100
C 	C 	0.38886 0.24763 0.06283 0.00400
H 	H 	0.36956 0.32365 0.99040 0.05000
H 	H 	0.39424 0.22636 0.08291 0.03400
C 	C 	0.32507 0.27794 0.98090 -0.09000
C 	C 	0.43930 0.27174 0.09116 -0.05100
C 	C 	0.29808 0.29129 0.00949 -0.12300
H 	H 	0.31849 0.25417 0.96660 0.04900
H 	H 	0.32882 0.29394 0.95070 0.04500
H 	H 	0.29291 0.27526 0.03912 0.02100
H 	H 	0.27684 0.29302 0.98772 0.03900
H 	H 	0.30390 0.31566 0.02250 0.04800
C 	C 	0.46596 0.25938 0.06108 -0.14400
H 	H 	0.43619 0.25503 0.12072 0.03700
H 	H 	0.44591 0.29524 0.10635 0.03900
H 	H 	0.46025 0.23519 0.04726 0.05800
H 	H 	0.48759 0.25753 0.08198 0.05400
H 	H 	0.47040 0.27607 0.03196 0.05800
C 	C 	0.26970 0.64253 0.98115 -0.11600
C 	C 	0.29886 0.65380 0.96437 0.07100
C 	C 	0.32593 0.63566 0.97268 -0.08700
C 	C 	0.32408 0.60556 0.99419 0.01700
C 	C 	0.29451 0.59254 0.00552 -0.01500
C 	C 	0.26766 0.61147 0.99983 0.00500
H 	H 	0.34850 0.64490 0.96199 0.04900
H 	H 	0.24514 0.60209 0.01044 0.04000
C 	C 	0.30134 0.68396 0.93532 -0.08300
C 	C 	0.29095 0.55768 0.01982 -0.05000
C 	C 	0.31494 0.71187 0.96296 -0.12500
H 	H 	0.27849 0.69107 0.92035 0.05200
H 	H 	0.31693 0.67920 0.90543 0.04200
H 	H 	0.30088 0.71650 0.99441 0.04500
H 	H 	0.31497 0.73394 0.94146 0.04400
H 	H 	0.33938 0.70651 0.97323 0.04700
C 	C 	0.29108 0.53558 0.97789 -0.14300
H 	H 	0.26860 0.55419 0.03874 0.03600
H 	H 	0.30963 0.55018 0.04397 0.03900
H 	H 	0.27176 0.54207 0.95409 0.06000
H 	H 	0.28777 0.51033 0.98922 0.05400
H 	H 	0.31368 0.53732 0.95924 0.05900
C 	C 	0.70054 0.40712 0.99622 0.01600
C 	C 	0.71641 0.42137 0.95854 -0.01100
C 	C 	0.74868 0.41655 0.95357 0.00200
C 	C 	0.76525 0.39790 0.98541 -0.10800
C 	C 	0.74918 0.38248 0.02184 0.06900
C 	C 	0.71677 0.38668 0.02622 -0.08500
H 	H 	0.76111 0.42820 0.92559 0.02800
H 	H 	0.70437 0.37515 0.05433 0.04900
C 	C 	0.69963 0.44308 0.92469 -0.05100
C 	C 	0.76626 0.36150 0.05630 -0.08300
C 	C 	0.70130 0.47819 0.93968 -0.14400
H 	H 	0.67485 0.43596 0.92016 0.03900
H 	H 	0.71057 0.44084 0.89008 0.03500
H 	H 	0.68953 0.48165 0.97337 0.05900
H 	H 	0.68939 0.49348 0.91373 0.05200
H 	H 	0.72603 0.48607 0.94247 0.05300
C 	C 	0.76820 0.32680 0.03959 -0.13400
H 	H 	0.75386 0.36186 0.08997 0.04300
H 	H 	0.79014 0.37070 0.06329 0.05400
H 	H 	0.74439 0.31678 0.03453 0.05400
H 	H 	0.78051 0.31204 0.06575 0.05100
H 	H 	0.78133 0.32530 0.00668 0.06400
C 	C 	0.58656 0.69913 0.99840 0.01400
C 	C 	0.60665 0.71042 0.96318 -0.00800
C 	C 	0.61429 0.74322 0.96134 -0.00600
C 	C 	0.60285 0.76459 0.99459 -0.09200
C 	C 	0.58357 0.75309 0.03066 0.06300
C 	C 	0.57553 0.72042 0.03204 -0.08200
H 	H 	0.62911 0.75213 0.93383 0.03300
H 	H 	0.56087 0.71146 0.05970 0.04900
C 	C 	0.61934 0.68804 0.92650 -0.05200
C 	C 	0.57315 0.77485 0.06965 -0.07900
C 	C 	0.59815 0.68757 0.88427 -0.14400
H 	H 	0.62232 0.66320 0.93974 0.03900
H 	H 	0.64301 0.69614 0.91572 0.03600
H 	H 	0.57448 0.67879 0.89353 0.05800
H 	H 	0.60815 0.67124 0.85787 0.05300
H 	H 	0.59622 0.71203 0.86920 0.05800
C 	C 	0.59788 0.77646 0.10743 -0.13400
H 	H 	0.55106 0.76568 0.08495 0.04100
H 	H 	0.56783 0.79945 0.05720 0.05700
H 	H 	0.60287 0.75203 0.12102 0.05500
H 	H 	0.58924 0.79161 0.13621 0.05600
H 	H 	0.61983 0.78719 0.09402 0.06700
