data_crystal

_cell_length_a 44.01878
_cell_length_b 44.74522
_cell_length_c 30.13692
_cell_angle_alpha 92.19392
_cell_angle_beta  88.09320
_cell_angle_gamma 89.89703

_symmetry_space_group_name_	'P 1'
_symmetry_space_group_name_H-M	'P 1'

loop_
_symmetry_equiv_pos_as_xyz
  x,y,z

loop_
_atom_site_label
_atom_site_type_symbol
_atom_site_fract_x
_atom_site_fract_y
_atom_site_fract_z
_atom_site_charge
Cd	Cd	0.97517 0.81774 0.18165 1.24500
Cd	Cd	0.98922 0.86939 0.27078 1.19100
O 	O 	0.99364 0.76598 0.18572 -0.28100
O 	O 	0.96342 0.77913 0.13344 -0.34100
C 	C 	0.97775 0.75758 0.15188 0.32700
O 	O 	0.94744 0.85809 0.16725 -0.37100
O 	O 	0.97620 0.89127 0.20796 -0.41000
C 	C 	0.95185 0.88522 0.18488 0.29600
C 	C 	0.93998 0.81476 0.26261 0.30100
O 	O 	0.02150 0.84124 0.22304 -0.41500
O 	O 	0.92746 0.79912 0.23073 -0.26700
O 	O 	0.96656 0.82539 0.25258 -0.53100
C 	C 	0.03277 0.84909 0.18473 0.31300
O 	O 	0.01823 0.83945 0.14986 -0.33100
Cd	Cd	0.04856 0.78518 0.96727 1.24500
Cd	Cd	0.07356 0.82595 0.87489 1.18900
O 	O 	0.06466 0.73284 0.97465 -0.28200
O 	O 	0.03660 0.75648 0.02622 -0.33500
C 	C 	0.04924 0.73139 0.01211 0.33800
O 	O 	0.03282 0.83167 0.98387 -0.36400
O 	O 	0.03245 0.84642 0.91169 -0.42500
C 	C 	0.02982 0.85275 0.95481 0.30600
C 	C 	0.10848 0.80901 0.96475 0.30900
O 	O 	0.04676 0.78156 0.88023 -0.43700
O 	O 	0.10122 0.80056 0.00482 -0.24100
O 	O 	0.08952 0.80139 0.93448 -0.53000
C 	C 	0.01731 0.77926 0.88398 0.31500
O 	O 	0.00618 0.77750 0.92451 -0.32900
C 	C 	0.94746 0.55860 0.91113 0.18000
N 	N 	0.94953 0.56455 0.86725 -0.13900
C 	C 	0.93950 0.54436 0.83637 0.13100
N 	N 	0.92765 0.51801 0.84942 -0.13900
C 	C 	0.92548 0.51192 0.89322 0.13200
N 	N 	0.93524 0.53233 0.92413 -0.11800
C 	C 	0.90684 0.58417 0.30188 0.18100
N 	N 	0.89138 0.55896 0.29012 -0.13700
C 	C 	0.88418 0.53863 0.32108 0.13100
N 	N 	0.89213 0.54367 0.36379 -0.13900
C 	C 	0.90718 0.56897 0.37585 0.13300
N 	N 	0.91479 0.58910 0.34479 -0.11900
Cd	Cd	0.93154 0.89184 0.72491 1.24700
Cd	Cd	0.93420 0.88495 0.84254 1.18700
O 	O 	0.88230 0.88346 0.69102 -0.30300
O 	O 	0.92029 0.90338 0.65451 -0.29600
C 	C 	0.89097 0.89919 0.65751 0.31200
O 	O 	0.97778 0.90925 0.74252 -0.34000
O 	O 	0.98007 0.88467 0.80781 -0.42300
C 	C 	0.99047 0.90526 0.78117 0.29600
C 	C 	0.90720 0.93851 0.78251 0.33200
O 	O 	0.92301 0.85119 0.78479 -0.43300
O 	O 	0.91090 0.94716 0.74193 -0.25000
O 	O 	0.91247 0.91038 0.78793 -0.51700
C 	C 	0.94229 0.83429 0.76148 0.30200
O 	O 	0.94955 0.84338 0.72189 -0.32100
Cd	Cd	0.86915 0.91212 0.44894 1.24900
Cd	Cd	0.86153 0.88609 0.33828 1.18200
O 	O 	0.83027 0.90087 0.50629 -0.30500
O 	O 	0.87099 0.92643 0.52166 -0.28900
C 	C 	0.84328 0.91957 0.53380 0.30300
O 	O 	0.91318 0.92362 0.41556 -0.34900
O 	O 	0.89463 0.92434 0.34528 -0.42700
C 	C 	0.91757 0.92640 0.37236 0.29900
C 	C 	0.88497 0.85229 0.42447 0.31100
O 	O 	0.83003 0.91598 0.38478 -0.41600
O 	O 	0.89466 0.85922 0.46415 -0.25300
O 	O 	0.86614 0.87116 0.40903 -0.53600
C 	C 	0.83162 0.94494 0.39053 0.30000
O 	O 	0.84760 0.95478 0.42362 -0.33400
C 	C 	0.77200 0.05489 0.79294 0.18100
N 	N 	0.77559 0.04935 0.83655 -0.13500
C 	C 	0.75822 0.06404 0.86855 0.13800
N 	N 	0.73717 0.08420 0.85676 -0.13800
C 	C 	0.73334 0.08978 0.81334 0.13000
N 	N 	0.75108 0.07538 0.78147 -0.11900
C 	C 	0.71123 0.03523 0.40374 0.18600
N 	N 	0.68420 0.04937 0.41212 -0.14000
C 	C 	0.66858 0.06043 0.37825 0.13300
N 	N 	0.68016 0.05745 0.33599 -0.13600
C 	C 	0.70724 0.04344 0.32747 0.14000
N 	N 	0.72277 0.03238 0.36138 -0.11700
Cd	Cd	0.85039 0.05347 0.19209 1.24500
Cd	Cd	0.89262 0.02888 0.28273 1.19800
O 	O 	0.83381 0.10592 0.19556 -0.28000
O 	O 	0.82482 0.07638 0.13768 -0.35400
C 	C 	0.82197 0.10288 0.15677 0.32700
O 	O 	0.86797 0.00822 0.16862 -0.35500
O 	O 	0.87475 0.99172 0.23874 -0.41200
C 	C 	0.88014 0.98914 0.19550 0.29300
C 	C 	0.91249 0.07047 0.19900 0.32300
O 	O 	0.84375 0.04792 0.27841 -0.41600
O 	O 	0.90275 0.07563 0.15949 -0.27400
O 	O 	0.89195 0.06187 0.22743 -0.51600
C 	C 	0.81911 0.03263 0.27115 0.31800
O 	O 	0.81034 0.03146 0.23021 -0.35200
Cd	Cd	0.95448 0.03410 0.00712 1.24700
Cd	Cd	0.99029 0.01636 0.90108 1.19100
O 	O 	0.92882 0.08276 0.01533 -0.29300
O 	O 	0.92291 0.04906 0.06565 -0.32500
C 	C 	0.91457 0.07488 0.05139 0.32400
O 	O 	0.96819 0.98582 0.01069 -0.35100
O 	O 	0.00556 0.98787 0.95591 -0.42400
C 	C 	0.98760 0.97218 0.98200 0.28700
C 	C 	0.91841 0.01554 0.93454 0.32000
O 	O 	0.99741 0.05445 0.95394 -0.41900
O 	O 	0.90292 0.01426 0.97205 -0.24600
O 	O 	0.94522 0.02719 0.93715 -0.51400
C 	C 	0.01574 0.05412 0.98702 0.31200
O 	O 	0.00294 0.04888 0.02572 -0.33600
C 	C 	0.76702 0.18748 0.91635 0.18100
N 	N 	0.75397 0.17990 0.87725 -0.14500
C 	C 	0.74700 0.20144 0.84862 0.12700
N 	N 	0.75371 0.23048 0.85876 -0.13900
C 	C 	0.76763 0.23804 0.89715 0.13100
N 	N 	0.77390 0.21652 0.92609 -0.12300
C 	C 	0.70433 0.22761 0.32120 0.17600
N 	N 	0.71070 0.25713 0.31792 -0.12000
C 	C 	0.71191 0.27531 0.35489 0.12900
N 	N 	0.70657 0.26389 0.39553 -0.13900
C 	C 	0.70023 0.23435 0.39922 0.12700
N 	N 	0.69902 0.21625 0.36199 -0.14200
Cd	Cd	0.16694 0.96786 0.87633 1.24600
Cd	Cd	0.11665 0.94204 0.96079 1.19600
O 	O 	0.21987 0.98203 0.89228 -0.27600
O 	O 	0.20264 0.98158 0.82467 -0.34000
C 	C 	0.22532 0.98678 0.85044 0.33100
O 	O 	0.12626 0.95193 0.84005 -0.35800
O 	O 	0.09276 0.95644 0.89999 -0.42400
C 	C 	0.09917 0.94715 0.85865 0.30500
C 	C 	0.17257 0.90805 0.90452 0.31400
O 	O 	0.14282 0.98655 0.95344 -0.41600
O 	O 	0.18809 0.91154 0.86735 -0.24700
O 	O 	0.16157 0.93238 0.92345 -0.52400
C 	C 	0.13325 0.01030 0.93443 0.30500
O 	O 	0.14293 0.01321 0.89336 -0.34300
Cd	Cd	0.08256 0.01126 0.26407 1.24600
Cd	Cd	0.02965 0.98915 0.18170 1.20000
O 	O 	0.12632 0.04333 0.24449 -0.30000
O 	O 	0.11568 0.03123 0.31343 -0.30300
C 	C 	0.13344 0.04539 0.28606 0.31900
O 	O 	0.04473 0.99021 0.30258 -0.35300
O 	O 	0.02549 0.96300 0.24391 -0.41000
C 	C 	0.02243 0.97469 0.28468 0.29300
C 	C 	0.03781 0.05257 0.23765 0.31900
O 	O 	0.08122 0.98086 0.18812 -0.40900
O 	O 	0.05046 0.06213 0.27420 -0.27300
O 	O 	0.05039 0.02914 0.21833 -0.51400
C 	C 	0.09366 0.95843 0.20708 0.30900
O 	O 	0.10348 0.96447 0.24691 -0.32800
C 	C 	0.37878 0.14850 0.83408 0.18100
N 	N 	0.40668 0.14683 0.81343 -0.12100
C 	C 	0.42786 0.16822 0.82186 0.13000
N 	N 	0.42101 0.19125 0.85126 -0.13900
C 	C 	0.39320 0.19297 0.87211 0.13000
N 	N 	0.37198 0.17189 0.86276 -0.13900
C 	C 	0.31816 0.16606 0.34605 0.18200
N 	N 	0.34302 0.15889 0.36900 -0.12200
C 	C 	0.36995 0.17279 0.36088 0.13300
N 	N 	0.37178 0.19418 0.33010 -0.13800
C 	C 	0.34710 0.20117 0.30664 0.13300
N 	N 	0.32023 0.18730 0.31513 -0.13600
C 	C 	0.38806 0.21393 0.91056 -0.01800
C 	C 	0.41047 0.21750 0.94240 -0.01200
C 	C 	0.40311 0.23067 0.98417 -0.04900
C 	C 	0.37333 0.24063 0.99436 0.01500
C 	C 	0.35185 0.24001 0.96091 -0.04200
C 	C 	0.35914 0.22657 0.91923 -0.01200
C 	C 	0.36347 0.24664 0.04123 0.01600
C 	C 	0.34074 0.22889 0.06059 -0.03300
C 	C 	0.33599 0.22959 0.10665 -0.03100
C 	C 	0.35398 0.24796 0.13387 0.01000
C 	C 	0.37495 0.26754 0.11434 -0.03300
C 	C 	0.37962 0.26694 0.06815 -0.03600
C 	C 	0.35418 0.24320 0.18205 0.02100
C 	C 	0.38027 0.23153 0.20065 -0.04300
C 	C 	0.37858 0.21985 0.24298 -0.01200
C 	C 	0.35070 0.21965 0.26714 -0.01500
C 	C 	0.32535 0.23399 0.25025 -0.01000
C 	C 	0.32708 0.24566 0.20783 -0.04100
H 	H 	0.43302 0.20826 0.93592 0.04600
H 	H 	0.42001 0.23136 0.00951 0.05500
H 	H 	0.32903 0.24838 0.96801 0.05500
H 	H 	0.34188 0.22469 0.89448 0.05600
H 	H 	0.32798 0.21327 0.04017 0.05800
H 	H 	0.31959 0.21455 0.12135 0.05800
H 	H 	0.38859 0.28219 0.13502 0.04900
H 	H 	0.39678 0.28120 0.05350 0.05000
H 	H 	0.40141 0.22986 0.18124 0.05100
H 	H 	0.39853 0.20942 0.25582 0.05000
H 	H 	0.30398 0.23500 0.26915 0.05800
H 	H 	0.30698 0.25526 0.19416 0.05800
C 	C 	0.26515 0.10021 0.33837 -0.13300
C 	C 	0.23683 0.11469 0.34047 0.00500
C 	C 	0.23526 0.14561 0.35025 0.31700
C 	C 	0.26195 0.16219 0.35471 -0.08500
C 	C 	0.29038 0.14798 0.34988 -0.08200
C 	C 	0.29186 0.11674 0.34306 0.34800
C 	C 	0.20933 0.09806 0.32791 0.01800
F 	F 	0.20791 0.15971 0.35384 -0.40700
H 	H 	0.26058 0.18621 0.36055 0.10400
F 	F 	0.31918 0.10265 0.33832 -0.43500
H 	H 	0.26653 0.07631 0.33124 0.11900
C 	C 	0.19565 0.10343 0.28755 0.30600
C 	C 	0.17060 0.08657 0.27444 -0.06200
C 	C 	0.15912 0.06391 0.30125 -0.12000
C 	C 	0.17279 0.05861 0.34183 0.37000
C 	C 	0.19773 0.07570 0.35505 -0.14200
F 	F 	0.20704 0.12463 0.26061 -0.40600
H 	H 	0.16022 0.09101 0.24327 0.11400
F 	F 	0.16250 0.03641 0.36782 -0.41800
H 	H 	0.20831 0.07131 0.38610 0.12400
C 	C 	0.30275 0.02240 0.84834 -0.13100
C 	C 	0.29712 0.04806 0.82452 0.01500
C 	C 	0.26933 0.05103 0.80352 0.29500
C 	C 	0.24657 0.02959 0.80914 -0.05600
C 	C 	0.25127 0.00526 0.83622 -0.12700
C 	C 	0.27989 0.00113 0.85438 0.37300
C 	C 	0.31843 0.07345 0.82682 0.00500
F 	F 	0.26374 0.07553 0.77983 -0.41400
H 	H 	0.22471 0.03281 0.79450 0.10500
F 	F 	0.28521 0.97705 0.87909 -0.41800
H 	H 	0.32438 0.01964 0.86387 0.12700
C 	C 	0.32175 0.08971 0.86712 0.30200
C 	C 	0.34144 0.11410 0.86929 -0.08600
C 	C 	0.35783 0.12279 0.83113 -0.08300
C 	C 	0.35438 0.10660 0.79064 0.34500
C 	C 	0.33482 0.08196 0.78862 -0.12200
F 	F 	0.30564 0.08199 0.90412 -0.41800
H 	H 	0.34410 0.12617 0.90077 0.10100
F 	F 	0.36947 0.11505 0.75318 -0.42900
H 	H 	0.33223 0.06962 0.75734 0.12700
C 	C 	0.73492 0.19317 0.80485 -0.02100
C 	C 	0.71082 0.20957 0.78841 -0.01500
C 	C 	0.70263 0.20524 0.74420 -0.04700
C 	C 	0.71853 0.18451 0.71597 0.01900
C 	C 	0.74108 0.16650 0.73337 -0.04500
C 	C 	0.74939 0.17096 0.77754 -0.01300
C 	C 	0.71447 0.18460 0.66742 0.00900
C 	C 	0.68544 0.18081 0.65003 -0.03300
C 	C 	0.68092 0.18526 0.60497 -0.03500
C 	C 	0.70544 0.19321 0.57688 0.01000
C 	C 	0.73467 0.19561 0.59384 -0.03300
C 	C 	0.73916 0.19141 0.63888 -0.03100
C 	C 	0.70023 0.20132 0.53068 0.01800
C 	C 	0.68440 0.22767 0.52240 -0.04600
C 	C 	0.68317 0.23774 0.47912 -0.01500
C 	C 	0.69772 0.22152 0.44364 -0.01800
C 	C 	0.71228 0.19436 0.45167 -0.01300
C 	C 	0.71359 0.18436 0.49502 -0.04400
H 	H 	0.69908 0.22635 0.80947 0.04500
H 	H 	0.68490 0.21899 0.73135 0.04600
H 	H 	0.75294 0.14986 0.71222 0.06100
H 	H 	0.76768 0.15779 0.79010 0.05200
H 	H 	0.66630 0.17519 0.67162 0.04100
H 	H 	0.65831 0.18312 0.59211 0.04600
H 	H 	0.75374 0.20172 0.57242 0.05200
H 	H 	0.76163 0.19449 0.65190 0.05100
H 	H 	0.67393 0.24087 0.54969 0.04800
H 	H 	0.67151 0.25850 0.47331 0.04600
H 	H 	0.72358 0.18160 0.42464 0.05300
H 	H 	0.72572 0.16390 0.50105 0.05900
C 	C 	0.09175 0.04749 0.92606 -0.03700
C 	C 	0.10693 0.02790 0.95321 -0.08500
C 	C 	0.09488 0.02320 0.99646 0.09000
C 	C 	0.06540 0.03296 0.00823 -0.01100
C 	C 	0.04879 0.04970 0.97884 -0.10300
C 	C 	0.06324 0.05914 0.93932 0.10800
Br	Br	0.04571 0.08963 0.90486 -0.22300
H 	H 	0.10192 0.05345 0.89439 0.08100
H 	H 	0.05537 0.02727 0.04009 0.07500
Br	Br	0.11938 0.00752 0.04184 -0.22800
C 	C 	0.83292 0.08249 0.03207 -0.12600
C 	C 	0.83114 0.11376 0.03137 0.00900
C 	C 	0.85360 0.13112 0.05205 0.30400
C 	C 	0.87959 0.11733 0.06736 -0.05200
C 	C 	0.88368 0.08635 0.06084 -0.12300
C 	C 	0.85890 0.06878 0.04752 0.36400
C 	C 	0.80965 0.12793 0.00190 0.00400
F 	F 	0.85163 0.16142 0.05337 -0.40200
H 	H 	0.89801 0.13104 0.07964 0.11300
F 	F 	0.86135 0.03853 0.04489 -0.43700
H 	H 	0.81539 0.06889 0.01724 0.11300
C 	C 	0.81329 0.12365 0.95554 0.29100
C 	C 	0.79719 0.14152 0.92733 -0.09000
C 	C 	0.77766 0.16404 0.94511 -0.08600
C 	C 	0.77215 0.16666 0.99133 0.33200
C 	C 	0.78803 0.14857 0.01957 -0.11700
F 	F 	0.83358 0.10324 0.93790 -0.42300
H 	H 	0.80112 0.13889 0.89171 0.09700
F 	F 	0.75232 0.18752 0.00892 -0.42900
H 	H 	0.78455 0.15156 0.05519 0.11900
C 	C 	0.96647 0.06301 0.17374 -0.03300
C 	C 	0.94521 0.06992 0.20838 -0.11800
C 	C 	0.95545 0.07549 0.25186 0.09700
C 	C 	0.98597 0.07060 0.26096 -0.03900
C 	C 	0.00690 0.06197 0.22668 -0.10900
C 	C 	0.99729 0.05991 0.18249 0.08200
Br	Br	0.02608 0.05523 0.13337 -0.28400
H 	H 	0.95908 0.06002 0.13994 0.06700
H 	H 	0.99336 0.07335 0.29481 0.07700
Br	Br	0.92910 0.09262 0.29826 -0.28000
C 	C 	0.78069 0.17405 0.16526 -0.14100
C 	C 	0.75124 0.16244 0.16988 0.01400
C 	C 	0.74508 0.13427 0.15017 0.29900
C 	C 	0.76921 0.11503 0.13722 -0.06600
C 	C 	0.79926 0.12451 0.14321 -0.13400
C 	C 	0.80474 0.15511 0.15141 0.37700
C 	C 	0.73087 0.17481 0.20587 0.00600
F 	F 	0.71597 0.12469 0.14725 -0.43400
H 	H 	0.76457 0.09208 0.12699 0.08400
F 	F 	0.83369 0.16544 0.15238 -0.41300
H 	H 	0.78544 0.19661 0.17735 0.12200
C 	C 	0.73087 0.16210 0.24784 0.30000
C 	C 	0.71948 0.17830 0.28537 -0.09200
C 	C 	0.70793 0.20732 0.28134 -0.08400
C 	C 	0.70443 0.21835 0.23858 0.34200
C 	C 	0.71629 0.20231 0.20112 -0.13500
F 	F 	0.74434 0.13516 0.25276 -0.43200
H 	H 	0.72149 0.16904 0.31784 0.09700
F 	F 	0.69057 0.24508 0.23351 -0.43800
H 	H 	0.71546 0.21191 0.16872 0.12200
C 	C 	0.63839 0.07422 0.38694 -0.01600
C 	C 	0.61836 0.06286 0.41942 -0.01200
C 	C 	0.58870 0.07400 0.42459 -0.04300
C 	C 	0.57882 0.09656 0.39737 0.01900
C 	C 	0.59913 0.10871 0.36612 -0.04400
C 	C 	0.62879 0.09764 0.36096 -0.01300
C 	C 	0.54669 0.10590 0.39924 0.00900
C 	C 	0.52803 0.09844 0.36370 -0.03300
C 	C 	0.49796 0.10847 0.36431 -0.03400
C 	C 	0.48625 0.12603 0.40052 0.01100
C 	C 	0.50473 0.13300 0.43654 -0.03500
C 	C 	0.53486 0.12292 0.43592 -0.03400
C 	C 	0.45527 0.13852 0.39934 0.01800
C 	C 	0.43025 0.11932 0.39562 -0.03700
C 	C 	0.40174 0.13075 0.38599 -0.01500
C 	C 	0.39801 0.16153 0.38003 -0.00800
C 	C 	0.42256 0.18095 0.38719 -0.01600
C 	C 	0.45108 0.16948 0.39666 -0.04100
H 	H 	0.62544 0.04479 0.43970 0.05800
H 	H 	0.57316 0.06454 0.44887 0.05500
H 	H 	0.59174 0.12635 0.34527 0.05300
H 	H 	0.64416 0.10699 0.33637 0.05300
H 	H 	0.53695 0.08515 0.33538 0.05200
H 	H 	0.48391 0.10308 0.33627 0.05200
H 	H 	0.49586 0.14648 0.46469 0.04900
H 	H 	0.54910 0.12870 0.46358 0.04700
H 	H 	0.43317 0.09542 0.39833 0.05900
H 	H 	0.38297 0.11550 0.38099 0.08000
H 	H 	0.41983 0.20481 0.38377 0.05000
H 	H 	0.47020 0.18452 0.40000 0.05000
C 	C 	0.70768 0.10874 0.80084 -0.00800
C 	C 	0.69576 0.13066 0.83126 -0.01900
C 	C 	0.66776 0.14404 0.82411 -0.04100
C 	C 	0.65103 0.13513 0.78710 0.01400
C 	C 	0.66433 0.11565 0.75437 -0.03700
C 	C 	0.69259 0.10252 0.76115 -0.01900
C 	C 	0.61812 0.14140 0.78710 0.00900
C 	C 	0.59899 0.13054 0.82098 -0.03400
C 	C 	0.56769 0.13540 0.82052 -0.03500
C 	C 	0.55509 0.15095 0.78600 0.00900
C 	C 	0.57417 0.16199 0.75215 -0.03600
C 	C 	0.60562 0.15721 0.75269 -0.03600
C 	C 	0.52195 0.15589 0.78583 0.01800
C 	C 	0.51005 0.18487 0.79251 -0.04300
C 	C 	0.47892 0.18909 0.80137 -0.01600
C 	C 	0.45943 0.16429 0.80407 -0.01100
C 	C 	0.47111 0.13546 0.79405 -0.01300
C 	C 	0.50219 0.13132 0.78487 -0.04200
H 	H 	0.70764 0.13651 0.86125 0.05400
H 	H 	0.65817 0.15993 0.84878 0.05000
H 	H 	0.65193 0.10920 0.72508 0.05500
H 	H 	0.70182 0.08624 0.73678 0.08400
H 	H 	0.60839 0.11810 0.84748 0.05100
H 	H 	0.55318 0.12704 0.84700 0.04900
H 	H 	0.56466 0.17411 0.72542 0.04600
H 	H 	0.62020 0.16570 0.72642 0.04100
H 	H 	0.52508 0.20402 0.79275 0.04800
H 	H 	0.47013 0.21154 0.80762 0.05000
H 	H 	0.45639 0.11611 0.79531 0.06200
H 	H 	0.51113 0.10889 0.77900 0.05500
C 	C 	0.76060 0.05669 0.91583 -0.01300
C 	C 	0.76961 0.02791 0.92750 0.00200
C 	C 	0.76782 0.01987 0.97198 -0.05200
C 	C 	0.75715 0.04052 0.00510 0.04000
C 	C 	0.74979 0.06970 0.99381 -0.06500
C 	C 	0.75133 0.07771 0.94947 0.00100
C 	C 	0.75162 0.03117 0.05106 0.01100
C 	C 	0.72177 0.02996 0.06863 -0.02900
C 	C 	0.71646 0.02721 0.11423 -0.02600
C 	C 	0.74097 0.02586 0.14271 0.00800
C 	C 	0.77076 0.02431 0.12465 -0.01900
C 	C 	0.77608 0.02696 0.07890 -0.03700
C 	C 	0.73561 0.03115 0.19094 0.03100
C 	C 	0.74043 0.00826 0.22050 -0.03700
C 	C 	0.73235 0.01264 0.26566 -0.00900
C 	C 	0.71939 0.03993 0.28141 -0.00700
C 	C 	0.71586 0.06315 0.25204 0.00600
C 	C 	0.72381 0.05872 0.20710 -0.04300
H 	H 	0.77693 0.01145 0.90206 0.06300
H 	H 	0.77388 0.99737 0.98048 0.06900
H 	H 	0.74227 0.08601 0.01936 0.06900
H 	H 	0.74475 0.10010 0.94119 0.04800
H 	H 	0.70272 0.03254 0.04722 0.05600
H 	H 	0.69334 0.02781 0.12776 0.05700
H 	H 	0.78982 0.02255 0.14620 0.04900
H 	H 	0.79919 0.02692 0.06545 0.07900
H 	H 	0.74978 0.98695 0.20841 0.06700
H 	H 	0.73532 0.99456 0.28805 0.07800
H 	H 	0.70624 0.08442 0.26386 0.07700
H 	H 	0.71988 0.07637 0.18452 0.09600
C 	C 	0.81089 0.99553 0.37903 -0.01900
C 	C 	0.81439 0.96564 0.36369 -0.08000
C 	C 	0.80753 0.95804 0.31922 0.12700
C 	C 	0.80516 0.98071 0.28882 -0.03200
C 	C 	0.80830 0.01071 0.30301 -0.10100
C 	C 	0.80762 0.01809 0.34877 0.11900
Br	Br	0.80257 0.05875 0.37028 -0.20100
H 	H 	0.81267 0.00140 0.41408 0.07700
H 	H 	0.80224 0.97496 0.25400 0.08300
Br	Br	0.79790 0.91778 0.30049 -0.28400
C 	C 	0.97180 0.92194 0.34743 -0.06600
C 	C 	0.94602 0.93994 0.35615 -0.08300
C 	C 	0.94709 0.97052 0.34679 0.12600
C 	C 	0.97271 0.98211 0.32475 -0.05600
C 	C 	0.99787 0.96368 0.31383 -0.07500
C 	C 	0.99801 0.93394 0.32745 0.08800
Br	Br	0.03432 0.91008 0.32131 -0.31300
H 	H 	0.97139 0.89860 0.35565 0.01400
H 	H 	0.97289 0.00530 0.31558 0.03500
Br	Br	0.91431 0.99692 0.36558 -0.34600
C 	C 	0.80775 0.99337 0.54389 -0.14200
C 	C 	0.77767 0.98328 0.54242 0.01900
C 	C 	0.77043 0.95565 0.56061 0.29500
C 	C 	0.79372 0.93535 0.56821 -0.06100
C 	C 	0.82394 0.94270 0.55682 -0.13200
C 	C 	0.83103 0.97310 0.55143 0.35300
C 	C 	0.75773 0.99555 0.50926 0.00900
F 	F 	0.74100 0.94687 0.56456 -0.40400
H 	H 	0.78803 0.91271 0.57689 0.10900
F 	F 	0.86039 0.98209 0.54743 -0.41900
H 	H 	0.81343 0.01565 0.53354 0.12900
C 	C 	0.74588 0.02463 0.51509 0.29900
C 	C 	0.73052 0.03753 0.48064 -0.08100
C 	C 	0.72709 0.02153 0.44008 -0.08700
C 	C 	0.73856 0.99227 0.43461 0.34800
C 	C 	0.75383 0.97943 0.46896 -0.13200
F 	F 	0.74973 0.04054 0.55374 -0.41700
H 	H 	0.72171 0.06011 0.48519 0.09800
F 	F 	0.73486 0.97626 0.39598 -0.43300
H 	H 	0.76346 0.95720 0.46387 0.11900
C 	C 	0.04534 0.89806 0.79395 -0.04600
C 	C 	0.02088 0.91775 0.78921 -0.07000
C 	C 	0.02424 0.94821 0.80158 0.10600
C 	C 	0.05058 0.95802 0.82256 -0.03500
C 	C 	0.07405 0.93779 0.83022 -0.08900
C 	C 	0.07188 0.90797 0.81414 0.12200
Br	Br	0.10415 0.88002 0.82174 -0.36300
H 	H 	0.04309 0.87465 0.78422 0.06300
H 	H 	0.05245 0.98120 0.83392 0.03900
Br	Br	0.99282 0.97656 0.79146 -0.31700
C 	C 	0.91614 0.98927 0.81514 -0.01100
C 	C 	0.90439 0.96039 0.82002 -0.10300
C 	C 	0.89031 0.95296 0.86077 0.10500
C 	C 	0.89246 0.97263 0.89767 -0.02900
C 	C 	0.90878 0.99939 0.89417 -0.10100
C 	C 	0.91831 0.00882 0.85198 0.09300
Br	Br	0.93223 0.04893 0.84347 -0.24700
H 	H 	0.92427 0.99629 0.78285 0.10500
H 	H 	0.88228 0.96666 0.92932 0.09100
Br	Br	0.86586 0.91766 0.86586 -0.28200
C 	C 	0.86451 0.97706 0.65074 -0.11500
C 	C 	0.83535 0.97360 0.67011 0.01000
C 	C 	0.82191 0.94514 0.66931 0.29300
C 	C 	0.83901 0.92006 0.65474 -0.06400
C 	C 	0.87017 0.92299 0.64410 -0.11900
C 	C 	0.88167 0.95183 0.63674 0.38200
C 	C 	0.82125 0.99834 0.69751 0.01100
F 	F 	0.79305 0.94153 0.68546 -0.41400
H 	H 	0.82900 0.89803 0.65677 0.10500
F 	F 	0.91017 0.95542 0.61924 -0.40000
H 	H 	0.87444 0.99912 0.64868 0.14200
C 	C 	0.83506 0.00868 0.73656 0.30000
C 	C 	0.81950 0.02835 0.76648 -0.08400
C 	C 	0.78980 0.03760 0.75815 -0.08000
C 	C 	0.77653 0.02840 0.71794 0.35000
C 	C 	0.79239 0.00913 0.68761 -0.12000
F 	F 	0.86303 0.99862 0.74645 -0.42200
H 	H 	0.83025 0.03576 0.79679 0.11000
F 	F 	0.74779 0.03690 0.70920 -0.42400
H 	H 	0.78174 0.00158 0.65728 0.13900
C 	C 	0.86618 0.51210 0.30924 -0.01600
C 	C 	0.83682 0.51544 0.29330 -0.01200
C 	C 	0.81712 0.49095 0.29140 -0.04300
C 	C 	0.82679 0.46294 0.30502 0.01900
C 	C 	0.85678 0.45921 0.31814 -0.04400
C 	C 	0.87638 0.48370 0.32033 -0.01300
C 	C 	0.80488 0.43831 0.30951 0.00900
C 	C 	0.78217 0.43989 0.34335 -0.03500
C 	C 	0.76374 0.41512 0.35126 -0.03600
C 	C 	0.76779 0.38865 0.32529 0.01000
C 	C 	0.78982 0.38741 0.29050 -0.03400
C 	C 	0.80832 0.41214 0.28269 -0.03400
C 	C 	0.75021 0.36173 0.33597 0.01700
C 	C 	0.72945 0.34986 0.30578 -0.04000
C 	C 	0.71548 0.32241 0.31333 -0.01400
C 	C 	0.72234 0.30646 0.35104 -0.01100
C 	C 	0.74191 0.31917 0.38243 -0.01600
C 	C 	0.75578 0.34668 0.37489 -0.04200
H 	H 	0.82876 0.53726 0.28455 0.05600
H 	H 	0.79408 0.49396 0.28077 0.05400
H 	H 	0.86451 0.43760 0.32836 0.05200
H 	H 	0.89910 0.48086 0.33232 0.04900
H 	H 	0.77940 0.46000 0.36429 0.04800
H 	H 	0.74668 0.41632 0.37805 0.04800
H 	H 	0.79308 0.36705 0.27024 0.05300
H 	H 	0.82577 0.41074 0.25646 0.05100
H 	H 	0.72471 0.36154 0.27593 0.05500
H 	H 	0.69997 0.31315 0.28929 0.07000
H 	H 	0.74737 0.30718 0.41170 0.04900
H 	H 	0.77165 0.35580 0.39852 0.05000
C 	C 	0.91155 0.48373 0.90705 -0.00900
C 	C 	0.88871 0.48400 0.94072 -0.01200
C 	C 	0.87233 0.45794 0.94923 -0.04200
C 	C 	0.87881 0.43141 0.92431 0.01900
C 	C 	0.90265 0.43081 0.89221 -0.04200
C 	C 	0.91892 0.45685 0.88360 -0.01300
C 	C 	0.85913 0.40501 0.92912 0.00900
C 	C 	0.87135 0.37800 0.94274 -0.03400
C 	C 	0.85388 0.35193 0.94135 -0.03400
C 	C 	0.82407 0.35268 0.92628 0.01000
C 	C 	0.81142 0.37994 0.91450 -0.03600
C 	C 	0.82887 0.40601 0.91594 -0.03500
C 	C 	0.80713 0.32460 0.91918 0.01800
C 	C 	0.79817 0.30756 0.95543 -0.04000
C 	C 	0.78412 0.27984 0.94838 -0.01300
C 	C 	0.77914 0.26879 0.90491 -0.01100
C 	C 	0.78728 0.28639 0.86874 -0.01600
C 	C 	0.80118 0.31413 0.87588 -0.04300
H 	H 	0.88286 0.50460 0.95911 0.05800
H 	H 	0.85412 0.45855 0.97433 0.05300
H 	H 	0.90790 0.41040 0.87295 0.05200
H 	H 	0.93677 0.45630 0.85793 0.05200
H 	H 	0.89464 0.37704 0.95320 0.05300
H 	H 	0.86381 0.33099 0.95063 0.05400
H 	H 	0.78836 0.38077 0.90311 0.04700
H 	H 	0.81923 0.42677 0.90540 0.04700
H 	H 	0.80243 0.31561 0.98901 0.05600
H 	H 	0.77750 0.26680 0.97666 0.06900
H 	H 	0.78369 0.27822 0.83502 0.04900
H 	H 	0.80801 0.32717 0.84770 0.04900
C 	C 	0.91324 0.57542 0.42300 -0.00900
C 	C 	0.89066 0.56995 0.45566 -0.01100
C 	C 	0.89721 0.57285 0.50061 -0.04200
C 	C 	0.92640 0.58131 0.51347 0.02000
C 	C 	0.94872 0.58785 0.48091 -0.04100
C 	C 	0.94213 0.58499 0.43580 -0.01000
C 	C 	0.93402 0.58133 0.56080 0.01000
C 	C 	0.91748 0.59945 0.59212 -0.03300
C 	C 	0.92064 0.59555 0.63754 -0.03300
C 	C 	0.94049 0.57366 0.65200 0.00900
C 	C 	0.95837 0.55681 0.62078 -0.03400
C 	C 	0.95513 0.56060 0.57534 -0.03400
C 	C 	0.94029 0.56635 0.69924 0.01900
C 	C 	0.91560 0.55091 0.71788 -0.04400
C 	C 	0.91543 0.54357 0.76254 -0.01300
C 	C 	0.93995 0.55170 0.78905 -0.01600
C 	C 	0.96468 0.56720 0.77035 -0.01100
C 	C 	0.96487 0.57442 0.72557 -0.04200
H 	H 	0.86816 0.56296 0.44616 0.05200
H 	H 	0.87983 0.56778 0.52548 0.05100
H 	H 	0.97127 0.59459 0.49051 0.05600
H 	H 	0.95972 0.58934 0.41089 0.05700
H 	H 	0.90137 0.61574 0.58125 0.05400
H 	H 	0.90696 0.60887 0.66146 0.05300
H 	H 	0.97390 0.53998 0.63169 0.05000
H 	H 	0.96807 0.54656 0.55145 0.04900
H 	H 	0.89656 0.54454 0.69772 0.05000
H 	H 	0.89610 0.53187 0.77664 0.04800
H 	H 	0.98382 0.57345 0.79037 0.05600
H 	H 	0.98407 0.58627 0.71137 0.05700
C 	C 	0.98678 0.88888 0.96205 -0.03700
C 	C 	0.01710 0.88192 0.97017 -0.09100
C 	C 	0.03565 0.90361 0.99051 0.12000
C 	C 	0.02475 0.93280 0.99857 -0.05000
C 	C 	0.99513 0.94044 0.98725 -0.07400
C 	C 	0.97555 0.91785 0.97145 0.10300
Br	Br	0.93363 0.92614 0.96215 -0.30200
H 	H 	0.97205 0.87194 0.94778 0.03500
H 	H 	0.03986 0.94994 0.01133 0.06000
Br	Br	0.07632 0.89408 0.00562 -0.36200
C 	C 	0.01137 0.80036 0.80958 -0.03100
C 	C 	0.99799 0.78683 0.84669 -0.10700
C 	C 	0.96623 0.78231 0.84849 0.12500
C 	C 	0.94809 0.79583 0.81762 -0.05400
C 	C 	0.96136 0.81252 0.78359 -0.09000
C 	C 	0.99335 0.81239 0.77743 0.11200
Br	Br	0.01320 0.82678 0.72462 -0.20100
H 	H 	0.03588 0.80196 0.80597 0.01400
H 	H 	0.92357 0.79402 0.82079 0.06900
Br	Br	0.94744 0.75542 0.88927 -0.17700
C 	C 	0.14699 0.82791 0.91092 -0.06300
C 	C 	0.13485 0.82841 0.95464 -0.10000
C 	C 	0.14375 0.85148 0.98469 0.12000
C 	C 	0.15862 0.87668 0.96847 -0.05600
C 	C 	0.16628 0.87832 0.92296 -0.10200
C 	C 	0.16319 0.85242 0.89513 0.12100
Br	Br	0.18243 0.84881 0.83697 -0.17800
H 	H 	0.14263 0.80897 0.88854 0.04600
H 	H 	0.16342 0.89538 0.99106 0.04600
Br	Br	0.13822 0.84824 0.04783 -0.16300
C 	C 	0.98972 0.59546 0.00551 -0.11500
C 	C 	0.98459 0.62579 0.99787 -0.00500
C 	C 	0.96419 0.63365 0.96527 0.31800
C 	C 	0.95045 0.61145 0.93911 -0.09100
C 	C 	0.95735 0.58121 0.94443 -0.07800
C 	C 	0.97631 0.57321 0.97874 0.33800
C 	C 	0.00405 0.64901 0.01848 0.03000
F 	F 	0.95922 0.66284 0.95702 -0.40700
H 	H 	0.93537 0.61782 0.91336 0.10600
F 	F 	0.98310 0.54404 0.98455 -0.42800
H 	H 	0.00521 0.58916 0.03077 0.12500
C 	C 	0.99078 0.67418 0.04078 0.30500
C 	C 	0.00705 0.70097 0.04407 -0.04100
C 	C 	0.03689 0.70243 0.02614 -0.12000
C 	C 	0.05182 0.67573 0.01208 0.38200
C 	C 	0.03530 0.64918 0.00764 -0.14300
F 	F 	0.96130 0.67345 0.05543 -0.39600
H 	H 	0.99564 0.72105 0.05711 0.11000
F 	F 	0.08164 0.67606 0.99911 -0.42300
H 	H 	0.04621 0.62942 0.99249 0.11800
C 	C 	0.90033 0.90796 0.18215 -0.04500
C 	C 	0.93173 0.91005 0.17331 -0.08800
C 	C 	0.94399 0.93749 0.15973 0.13000
C 	C 	0.92593 0.96339 0.16259 -0.05400
C 	C 	0.89537 0.96187 0.17695 -0.07800
C 	C 	0.88204 0.93367 0.18300 0.12000
Br	Br	0.83891 0.92988 0.19133 -0.22600
H 	H 	0.89034 0.88663 0.19016 0.05300
H 	H 	0.93603 0.98485 0.15557 0.04100
Br	Br	0.98451 0.93962 0.13460 -0.33600
C 	C 	0.94582 0.82797 0.34291 -0.05100
C 	C 	0.92759 0.81598 0.30917 -0.11900
C 	C 	0.89733 0.80749 0.32032 0.10200
C 	C 	0.88505 0.81471 0.36282 -0.06800
C 	C 	0.90180 0.83157 0.39356 -0.11000
C 	C 	0.93315 0.83564 0.38495 0.10300
Br	Br	0.95911 0.85210 0.42962 -0.19800
H 	H 	0.96969 0.83234 0.33604 0.01000
H 	H 	0.86138 0.80980 0.37041 0.06100
Br	Br	0.87196 0.78619 0.27915 -0.20700
C 	C 	0.09218 0.90393 0.22133 -0.02200
C 	C 	0.08680 0.92717 0.19255 -0.08700
C 	C 	0.07069 0.92078 0.15349 0.11300
C 	C 	0.05469 0.89387 0.14905 -0.02600
C 	C 	0.05618 0.87257 0.18189 -0.08600
C 	C 	0.07740 0.87649 0.21564 0.12200
Br	Br	0.08765 0.84426 0.25277 -0.18100
H 	H 	0.10696 0.90748 0.24906 0.09300
H 	H 	0.04056 0.88990 0.12067 0.09400
Br	Br	0.07284 0.94667 0.10411 -0.28200
C 	C 	0.97503 0.67602 0.17214 -0.13000
C 	C 	0.94348 0.67214 0.17671 0.02900
C 	C 	0.92398 0.69364 0.16016 0.30400
C 	C 	0.93579 0.72069 0.14550 -0.04500
C 	C 	0.96708 0.72644 0.14771 -0.12600
C 	C 	0.98683 0.70304 0.15745 0.37200
C 	C 	0.93123 0.64935 0.20657 0.00800
F 	F 	0.89345 0.68934 0.16170 -0.40400
H 	H 	0.92036 0.73810 0.13624 0.11100
F 	F 	0.01736 0.70738 0.15615 -0.42300
H 	H 	0.99034 0.65904 0.18315 0.13100
C 	C 	0.93527 0.61875 0.19580 0.30500
C 	C 	0.92673 0.59743 0.22665 -0.08500
C 	C 	0.91420 0.60653 0.26850 -0.08300
C 	C 	0.90927 0.63711 0.27863 0.34700
C 	C 	0.91785 0.65836 0.24787 -0.12500
F 	F 	0.94785 0.60972 0.15577 -0.41000
H 	H 	0.93044 0.57390 0.21838 0.10300
F 	F 	0.89608 0.64623 0.31822 -0.42700
H 	H 	0.91467 0.68192 0.25646 0.12900
