data_crystal

_cell_length_a 39.45944
_cell_length_b 40.85992
_cell_length_c 22.59092
_cell_angle_alpha 89.82901
_cell_angle_beta  89.99874
_cell_angle_gamma 90.00031

_symmetry_space_group_name_	'P 1'
_symmetry_space_group_name_H-M	'P 1'

loop_
_symmetry_equiv_pos_as_xyz
  x,y,z

loop_
_atom_site_label
_atom_site_type_symbol
_atom_site_fract_x
_atom_site_fract_y
_atom_site_fract_z
_atom_site_charge
C 	C 	0.49255 0.56903 0.90755 0.10100
N 	N 	0.47495 0.54233 0.92419 -0.17200
C 	C 	0.44489 0.54392 0.89624 0.10100
C 	C 	0.41487 0.52571 0.91729 -0.07600
C 	C 	0.41646 0.48969 0.92381 0.08900
C 	C 	0.38350 0.54343 0.93290 0.03900
C 	C 	0.38359 0.56610 0.97945 -0.05300
C 	C 	0.35322 0.58032 0.99822 -0.02300
C 	C 	0.32261 0.57173 0.97085 -0.00800
C 	C 	0.35307 0.53604 0.90382 -0.06000
N 	N 	0.44277 0.47179 0.90387 -0.12900
C 	C 	0.39719 0.47203 0.96392 -0.06800
C 	C 	0.43974 0.44234 0.93043 0.08400
C 	C 	0.46761 0.41816 0.93209 -0.07600
C 	C 	0.45972 0.38332 0.94283 0.04800
C 	C 	0.44357 0.32995 0.90545 -0.03900
C 	C 	0.45825 0.37118 0.00087 -0.06700
C 	C 	0.44855 0.33877 0.01128 -0.04600
C 	C 	0.44044 0.31822 0.96366 0.01500
N 	N 	0.51682 0.45581 0.93977 -0.17300
C 	C 	0.55057 0.45260 0.93298 0.10100
C 	C 	0.55819 0.42299 0.90629 -0.06500
C 	C 	0.52758 0.40747 0.89669 -0.06500
C 	C 	0.57539 0.47306 0.96546 -0.08300
C 	C 	0.60964 0.46038 0.97844 0.05800
C 	C 	0.67031 0.46204 0.96176 -0.01700
C 	C 	0.67470 0.43594 0.00142 -0.01600
C 	C 	0.64656 0.42270 0.03093 -0.02700
C 	C 	0.61408 0.43484 0.01935 -0.07800
N 	N 	0.55213 0.52682 0.93445 -0.13300
C 	C 	0.56081 0.55565 0.01799 -0.07300
C 	C 	0.54787 0.55603 0.96104 0.09500
C 	C 	0.52314 0.58042 0.93963 -0.07800
C 	C 	0.53048 0.61587 0.94637 0.04200
C 	C 	0.56311 0.62795 0.93426 -0.05800
C 	C 	0.57013 0.66126 0.94060 -0.03200
C 	C 	0.54446 0.68300 0.95772 -0.00300
C 	C 	0.51175 0.67104 0.96916 -0.03200
C 	C 	0.50511 0.63749 0.96557 -0.06100
C 	C 	0.47384 0.58776 0.86814 -0.06600
C 	C 	0.44321 0.57177 0.86118 -0.06500
C 	C 	0.32275 0.55022 0.92261 -0.03100
C 	C 	0.41211 0.44165 0.96810 -0.05000
C 	C 	0.50272 0.42838 0.91778 0.10000
C 	C 	0.57424 0.52485 0.02638 -0.07500
C 	C 	0.56846 0.50813 0.97439 0.09900
C 	C 	0.63790 0.47401 0.94990 -0.06800
H 	H 	0.47918 0.52935 0.96346 0.09100
H 	H 	0.50535 0.47086 0.97130 0.09200
H 	H 	0.59539 0.67030 0.93118 0.03400
H 	H 	0.49160 0.68771 0.98143 0.03300
H 	H 	0.58293 0.61157 0.91944 0.04500
H 	H 	0.48011 0.62838 0.97669 0.04300
H 	H 	0.35338 0.59750 0.03465 0.02400
H 	H 	0.35284 0.51883 0.86742 0.04300
H 	H 	0.29924 0.54396 0.90058 0.03200
H 	H 	0.40704 0.57212 0.00187 0.03300
H 	H 	0.44715 0.32966 0.05630 0.03400
H 	H 	0.46412 0.38698 0.03790 0.04000
C 	C 	0.45248 0.36258 0.89513 -0.05800
H 	H 	0.43835 0.31398 0.86835 0.03500
H 	H 	0.69202 0.47278 0.93967 0.03100
H 	H 	0.63470 0.49380 0.91835 0.04800
H 	H 	0.59240 0.42436 0.04191 0.04300
H 	H 	0.64984 0.40286 0.06232 0.03000
H 	H 	0.47808 0.61338 0.85846 0.04500
H 	H 	0.41997 0.58350 0.84704 0.04500
H 	H 	0.38140 0.48274 0.99794 0.04600
H 	H 	0.40946 0.42543 0.00578 0.03200
H 	H 	0.58240 0.41062 0.90882 0.04600
H 	H 	0.52472 0.38130 0.89133 0.04600
H 	H 	0.55253 0.57159 0.05336 0.04200
H 	H 	0.57854 0.51350 0.06909 0.04300
H 	H 	0.45381 0.37174 0.85014 0.04300
Co	Co	0.37749 0.12368 0.99436 1.18200
Co	Co	0.38638 0.04735 0.98463 1.09200
O 	O 	0.37368 0.17300 0.00458 -0.38500
O 	O 	0.42488 0.15813 0.99260 -0.32400
O 	O 	0.33058 0.10689 0.99475 -0.41500
O 	O 	0.42160 0.07289 0.94193 -0.48600
C 	C 	0.32158 0.08090 0.96405 0.31000
C 	C 	0.40481 0.18239 0.00228 0.27300
O 	O 	0.34474 0.06252 0.93861 -0.44200
O 	O 	0.38813 0.11468 0.91263 -0.43900
C 	C 	0.41255 0.09403 0.90112 0.32100
O 	O 	0.39081 0.11105 0.07385 -0.44000
O 	O 	0.36964 0.05941 0.06402 -0.48200
C 	C 	0.38423 0.08198 0.09626 0.30600
C 	C 	0.49285 0.02215 0.53461 0.00700
C 	C 	0.51767 0.99713 0.52817 0.00700
C 	C 	0.46639 0.02487 0.49317 -0.05600
C 	C 	0.46388 0.00235 0.44641 0.00700
C 	C 	0.51578 0.97539 0.48023 -0.05700
C 	C 	0.48873 0.97742 0.44001 0.00800
H 	H 	0.53488 0.95659 0.47491 0.04700
H 	H 	0.44753 0.04394 0.49788 0.04700
C 	C 	0.48482 0.95412 0.39456 -0.01500
C 	C 	0.45822 0.95627 0.35343 0.00300
C 	C 	0.46544 0.93991 0.29921 -0.05700
C 	C 	0.49760 0.92560 0.29850 -0.00200
S 	S 	0.51663 0.93380 0.36259 -0.01900
H 	H 	0.44910 0.94050 0.26083 0.03500
C 	C 	0.43612 0.00302 0.40694 -0.01500
C 	C 	0.43359 0.98084 0.35983 0.00400
C 	C 	0.41298 0.99260 0.31262 -0.05700
C 	C 	0.40039 0.02422 0.32202 -0.00300
S 	S 	0.41506 0.03674 0.38743 -0.01800
H 	H 	0.41108 0.98057 0.27023 0.03400
C 	C 	0.51911 0.03852 0.62847 0.00500
C 	C 	0.49540 0.04375 0.58319 -0.01400
S 	S 	0.46356 0.06568 0.61146 -0.01800
C 	C 	0.47937 0.07082 0.67944 -0.00200
C 	C 	0.51024 0.05407 0.68257 -0.05500
C 	C 	0.54345 0.99418 0.57133 -0.01300
C 	C 	0.54254 0.01285 0.62345 0.00300
C 	C 	0.55868 0.99724 0.67240 -0.05500
C 	C 	0.57261 0.96687 0.65774 -0.00200
S 	S 	0.56402 0.95945 0.58680 -0.02200
H 	H 	0.55658 0.00563 0.71762 0.04000
H 	H 	0.52446 0.05141 0.72321 0.04000
Co	Co	0.60672 0.88021 0.98615 1.17900
Co	Co	0.53048 0.88512 0.95534 1.09200
O 	O 	0.65780 0.87855 0.99864 -0.38300
O 	O 	0.64051 0.92716 0.98386 -0.33300
O 	O 	0.58934 0.83522 0.99541 -0.42100
O 	O 	0.53519 0.87516 0.04109 -0.47800
C 	C 	0.56776 0.82242 0.95740 0.31100
C 	C 	0.66637 0.90894 0.99461 0.29900
O 	O 	0.54824 0.84137 0.92484 -0.44400
O 	O 	0.58650 0.89959 0.05577 -0.44900
C 	C 	0.55662 0.89065 0.07552 0.31200
O 	O 	0.60462 0.88268 0.90123 -0.44100
O 	O 	0.55905 0.91574 0.90885 -0.48700
C 	C 	0.58434 0.90427 0.87747 0.32000
Co	Co	0.12704 0.63940 0.02307 1.17700
Co	Co	0.04781 0.63371 0.02538 1.08900
O 	O 	0.17809 0.64528 0.02755 -0.39900
O 	O 	0.16406 0.59515 0.03515 -0.33800
O 	O 	0.10896 0.68348 0.00635 -0.42900
O 	O 	0.06444 0.64365 0.94418 -0.46000
C 	C 	0.08400 0.69619 0.03721 0.31700
C 	C 	0.18878 0.61573 0.03333 0.30100
O 	O 	0.06186 0.67694 0.06333 -0.44300
O 	O 	0.11579 0.61867 0.94866 -0.44100
C 	C 	0.08835 0.62621 0.91887 0.30600
O 	O 	0.11498 0.63555 0.10539 -0.43800
O 	O 	0.07138 0.60282 0.07903 -0.49000
C 	C 	0.09173 0.61417 0.12000 0.31800
C 	C 	0.01631 0.51063 0.57602 0.00800
C 	C 	0.99591 0.48186 0.57682 0.00700
C 	C 	0.03040 0.52180 0.52256 -0.05600
C 	C 	0.02339 0.50531 0.46946 0.00800
C 	C 	0.98975 0.46480 0.52402 -0.05600
C 	C 	0.00250 0.47687 0.47007 0.00800
H 	H 	0.97572 0.44202 0.52501 0.04600
H 	H 	0.04625 0.54342 0.52218 0.04700
C 	C 	0.99487 0.46133 0.41584 -0.01400
C 	C 	0.00460 0.47538 0.36160 0.00500
C 	C 	0.98273 0.46705 0.31398 -0.05700
C 	C 	0.95571 0.44712 0.33131 -0.00200
S 	S 	0.95996 0.43920 0.40337 -0.02300
H 	H 	0.98684 0.47461 0.26859 0.03600
C 	C 	0.03662 0.51641 0.41482 -0.01300
C 	C 	0.02626 0.50251 0.36115 0.00400
C 	C 	0.03057 0.52371 0.31181 -0.05600
C 	C 	0.04276 0.55456 0.32760 -0.00200
S 	S 	0.04963 0.55461 0.40049 -0.02000
H 	H 	0.02674 0.51629 0.26636 0.03700
C 	C 	0.00639 0.51744 0.68254 0.00400
C 	C 	0.02008 0.52856 0.62894 -0.01400
S 	S 	0.05166 0.55437 0.64444 -0.02200
C 	C 	0.04852 0.55265 0.71809 -0.00100
C 	C 	0.02208 0.53139 0.73296 -0.05800
C 	C 	0.98344 0.47039 0.63181 -0.01300
C 	C 	0.98781 0.48844 0.68387 0.00400
C 	C 	0.96388 0.48068 0.72849 -0.05600
C 	C 	0.94028 0.45719 0.71053 -0.00300
S 	S 	0.94995 0.44587 0.64143 -0.02000
H 	H 	0.96343 0.49210 0.77168 0.03600
H 	H 	0.01507 0.52562 0.77813 0.03700
Co	Co	0.87504 0.36327 0.02077 1.17600
Co	Co	0.88039 0.43981 0.02142 1.08600
O 	O 	0.87219 0.31392 0.01138 -0.38400
O 	O 	0.92239 0.33143 0.99710 -0.32700
O 	O 	0.82927 0.37806 0.04309 -0.42100
O 	O 	0.87528 0.42238 0.10287 -0.47600
C 	C 	0.81527 0.40416 0.01915 0.30500
C 	C 	0.90313 0.30607 0.00035 0.28200
O 	O 	0.83380 0.42592 0.99083 -0.43200
O 	O 	0.89759 0.37125 0.09545 -0.44100
C 	C 	0.89485 0.39911 0.12384 0.30500
O 	O 	0.87461 0.37723 0.93923 -0.43200
O 	O 	0.90994 0.41876 0.96197 -0.48700
C 	C 	0.89649 0.39939 0.92230 0.31900
C 	C 	0.98580 0.92704 0.91825 0.09700
N 	N 	0.96722 0.95023 0.89089 -0.17200
C 	C 	0.93498 0.94577 0.90881 0.09500
C 	C 	0.90731 0.96952 0.89684 -0.07200
C 	C 	0.91539 0.00291 0.87515 0.08600
C 	C 	0.87197 0.96078 0.91168 0.03700
C 	C 	0.85013 0.94904 0.86765 -0.06000
C 	C 	0.81676 0.94059 0.88186 -0.03400
C 	C 	0.80539 0.94283 0.94055 -0.00400
C 	C 	0.86026 0.96407 0.96996 -0.05000
N 	N 	0.94438 0.01841 0.88947 -0.12800
C 	C 	0.89181 0.02469 0.85239 -0.06300
C 	C 	0.93959 0.05000 0.87449 0.08700
C 	C 	0.96271 0.07636 0.89429 -0.07600
C 	C 	0.95055 0.11040 0.89966 0.04000
C 	C 	0.91695 0.15097 0.95139 -0.03400
C 	C 	0.96578 0.13533 0.86615 -0.05900
C 	C 	0.95714 0.16800 0.87607 -0.03500
C 	C 	0.93272 0.17594 0.91876 -0.00000
N 	N 	0.01753 0.04752 0.87980 -0.17300
C 	C 	0.04939 0.05118 0.90009 0.09500
C 	C 	0.04998 0.07359 0.94597 -0.06200
C 	C 	0.01715 0.08487 0.95241 -0.06400
C 	C 	0.07665 0.02714 0.88830 -0.07400
C 	C 	0.11262 0.03634 0.89792 0.03900
C 	C 	0.16747 0.02537 0.94246 -0.03400
C 	C 	0.18046 0.05415 0.91717 0.00000
C 	C 	0.15912 0.07456 0.88384 -0.03400
C 	C 	0.12555 0.06532 0.87309 -0.05900
N 	N 	0.03958 0.97818 0.89234 -0.12700
C 	C 	0.07335 0.94112 0.84827 -0.06300
C 	C 	0.04303 0.94646 0.87757 0.08600
C 	C 	0.02192 0.92045 0.90433 -0.07100
C 	C 	0.03792 0.89004 0.92575 0.02900
C 	C 	0.04819 0.88745 0.98502 -0.03000
C 	C 	0.05789 0.85713 0.00816 -0.06200
C 	C 	0.05732 0.82925 0.97215 0.01000
C 	C 	0.04987 0.83241 0.91164 -0.04000
C 	C 	0.03968 0.86264 0.88872 -0.05300
C 	C 	0.96554 0.90795 0.95472 -0.06400
C 	C 	0.93304 0.92021 0.94911 -0.06300
C 	C 	0.82710 0.95507 0.98439 -0.02600
C 	C 	0.90737 0.05489 0.85184 -0.06400
C 	C 	0.99798 0.06822 0.91092 0.10100
C 	C 	0.08893 0.97123 0.84393 -0.06500
C 	C 	0.06742 0.99329 0.87119 0.08700
C 	C 	0.13357 0.01680 0.93376 -0.05800
H 	H 	0.97439 0.96260 0.85233 0.09400
H 	H 	0.01083 0.03637 0.83990 0.09200
H 	H 	0.06462 0.85507 0.05451 0.03700
H 	H 	0.05031 0.81113 0.88317 0.03600
H 	H 	0.04731 0.90865 0.01367 0.03100
H 	H 	0.03218 0.86457 0.84271 0.03900
H 	H 	0.79977 0.93232 0.84735 0.03000
H 	H 	0.87694 0.97336 0.00410 0.03600
H 	H 	0.81829 0.95749 0.02958 0.02700
H 	H 	0.85891 0.94674 0.82242 0.04000
H 	H 	0.96996 0.18718 0.85159 0.03300
H 	H 	0.98500 0.12942 0.83364 0.04200
C 	C 	0.92590 0.11832 0.94200 -0.05900
H 	H 	0.89836 0.15695 0.98496 0.03700
H 	H 	0.18362 0.00979 0.96920 0.03400
H 	H 	0.12360 0.99495 0.95472 0.04500
H 	H 	0.10951 0.08084 0.84607 0.04100
H 	H 	0.16846 0.09757 0.86649 0.03500
H 	H 	0.97179 0.88374 0.97095 0.04400
H 	H 	0.91011 0.90759 0.96219 0.04400
H 	H 	0.86465 0.02097 0.85221 0.04500
H 	H 	0.89412 0.07806 0.85051 0.04400
H 	H 	0.07237 0.08421 0.96581 0.04600
H 	H 	0.00990 0.10727 0.97452 0.04700
H 	H 	0.08635 0.91785 0.84550 0.04400
H 	H 	0.11573 0.97491 0.83618 0.04400
H 	H 	0.91426 0.09925 0.96849 0.04500
C 	C 	0.92653 0.21046 0.93418 0.00700
C 	C 	0.89714 0.22711 0.91450 0.00600
C 	C 	0.89038 0.25869 0.93575 -0.01000
C 	C 	0.91269 0.27409 0.97521 -0.09500
C 	C 	0.94299 0.25801 0.99243 0.07900
C 	C 	0.94935 0.22619 0.97209 -0.08600
H 	H 	0.86761 0.27130 0.92147 0.04200
H 	H 	0.97182 0.21327 0.98694 0.05000
C 	C 	0.87310 0.21199 0.86975 -0.09600
C 	C 	0.96799 0.27360 0.03488 -0.13000
C 	C 	0.87661 0.22770 0.80816 -0.02300
H 	H 	0.87338 0.25468 0.81110 0.03000
H 	H 	0.85602 0.21819 0.77937 0.02500
C 	C 	0.95591 0.27071 0.09930 -0.01300
H 	H 	0.94870 0.24496 0.10925 0.02600
H 	H 	0.93333 0.28645 0.10632 0.03200
H 	H 	0.87603 0.18507 0.86595 0.04900
H 	H 	0.97260 0.29956 0.02307 0.06200
C 	C 	0.91059 0.22003 0.77892 -0.15600
C 	C 	0.98359 0.28111 0.14258 -0.16200
H 	H 	0.91445 0.19316 0.77606 0.05800
H 	H 	0.91090 0.23034 0.73339 0.05300
H 	H 	0.93172 0.23123 0.80423 0.06000
H 	H 	0.84668 0.21587 0.88535 0.04500
H 	H 	0.00519 0.26371 0.14078 0.05400
H 	H 	0.97328 0.28123 0.18832 0.05500
H 	H 	0.99288 0.30605 0.13170 0.05400
H 	H 	0.99309 0.26140 0.03059 0.04800
C 	C 	0.90039 0.40725 0.85917 -0.12000
C 	C 	0.92562 0.39190 0.82451 0.08300
C 	C 	0.93604 0.40670 0.77131 -0.09000
C 	C 	0.92170 0.43644 0.75286 0.01300
C 	C 	0.89326 0.44903 0.78318 -0.00600
C 	C 	0.88271 0.43413 0.83610 -0.00500
H 	H 	0.95659 0.39602 0.74603 0.05100
H 	H 	0.86188 0.44458 0.86105 0.01900
C 	C 	0.94145 0.35966 0.84335 -0.13000
C 	C 	0.87357 0.47789 0.75865 -0.08900
C 	C 	0.97872 0.36331 0.86199 -0.00600
H 	H 	0.99396 0.37323 0.82465 0.02300
H 	H 	0.98888 0.33863 0.87274 0.02500
C 	C 	0.85117 0.46729 0.70660 -0.02800
H 	H 	0.83301 0.44819 0.72170 0.03100
H 	H 	0.86712 0.45674 0.67084 0.03300
H 	H 	0.92693 0.34755 0.87935 0.07100
H 	H 	0.89118 0.49760 0.74432 0.04300
C 	C 	0.98330 0.38524 0.91604 -0.16600
C 	C 	0.83126 0.49612 0.68124 -0.15500
H 	H 	0.96771 0.37620 0.95354 0.07200
H 	H 	0.01033 0.38500 0.92966 0.05500
H 	H 	0.97611 0.41086 0.90546 0.06500
H 	H 	0.94034 0.34253 0.80524 0.05300
H 	H 	0.81445 0.50678 0.71561 0.05100
H 	H 	0.81533 0.48762 0.64379 0.05200
H 	H 	0.84885 0.51530 0.66466 0.05300
H 	H 	0.85730 0.48872 0.79373 0.03600
C 	C 	0.93716 0.42587 0.28992 0.00900
C 	C 	0.90223 0.43075 0.27912 -0.00100
C 	C 	0.88781 0.41838 0.22703 -0.00800
C 	C 	0.90777 0.40191 0.18516 -0.11600
C 	C 	0.94158 0.39322 0.20008 0.07500
C 	C 	0.95573 0.40508 0.25286 -0.09000
H 	H 	0.86138 0.42335 0.21744 0.03200
H 	H 	0.98211 0.40010 0.26289 0.04900
C 	C 	0.87989 0.44937 0.32220 -0.09300
C 	C 	0.96367 0.37306 0.15913 -0.13100
C 	C 	0.85559 0.42653 0.35579 -0.02300
H 	H 	0.84115 0.41107 0.32419 0.02700
H 	H 	0.83690 0.44174 0.38019 0.02300
C 	C 	0.98072 0.39463 0.11200 -0.00400
H 	H 	0.99474 0.41489 0.13383 0.01600
H 	H 	0.96132 0.40553 0.08226 0.00600
H 	H 	0.89453 0.46420 0.35434 0.04700
H 	H 	0.94918 0.35289 0.13844 0.07100
C 	C 	0.87393 0.40458 0.40032 -0.15700
C 	C 	0.00562 0.37496 0.07461 -0.16600
H 	H 	0.88707 0.41968 0.43407 0.05900
H 	H 	0.85519 0.38873 0.42325 0.05300
H 	H 	0.89261 0.38863 0.37763 0.06300
H 	H 	0.86446 0.46727 0.29664 0.03700
H 	H 	0.02571 0.36410 0.10299 0.05300
H 	H 	0.01783 0.39133 0.04163 0.04800
H 	H 	0.99216 0.35511 0.05078 0.05800
H 	H 	0.98372 0.36069 0.18565 0.05000
C 	C 	0.06295 0.79655 0.99822 0.03100
C 	C 	0.03599 0.77392 0.00447 -0.02500
C 	C 	0.04324 0.74142 0.02005 0.00700
C 	C 	0.07663 0.73149 0.03169 -0.12100
C 	C 	0.10290 0.75515 0.03259 0.08300
C 	C 	0.09588 0.78734 0.01445 -0.10400
H 	H 	0.02285 0.72364 0.02183 0.01300
H 	H 	0.11618 0.80521 0.01256 0.04900
C 	C 	0.99920 0.78424 0.99726 -0.07000
C 	C 	0.13812 0.74690 0.05496 -0.11600
C 	C 	0.98133 0.78837 0.05719 -0.03700
H 	H 	0.98465 0.76601 0.08476 0.02600
H 	H 	0.95372 0.79144 0.04912 0.02200
C 	C 	0.16339 0.74367 0.00356 -0.03400
H 	H 	0.16507 0.76728 0.97913 0.03500
H 	H 	0.15474 0.72462 0.97203 0.05000
H 	H 	0.99610 0.80695 0.97081 0.04500
H 	H 	0.13811 0.72421 0.08222 0.05700
C 	C 	0.99404 0.81816 0.09135 -0.15100
C 	C 	0.19870 0.73460 0.02582 -0.16700
H 	H 	0.99123 0.84072 0.06424 0.05400
H 	H 	0.97890 0.82106 0.13242 0.05000
H 	H 	0.02102 0.81492 0.10404 0.05800
H 	H 	0.98565 0.76496 0.97194 0.03500
H 	H 	0.20832 0.75362 0.05657 0.05300
H 	H 	0.21636 0.73282 0.98770 0.05900
H 	H 	0.19809 0.71061 0.04903 0.06600
H 	H 	0.14675 0.76681 0.08489 0.04700
C 	C 	0.06221 0.57762 0.75824 0.00900
C 	C 	0.04199 0.60384 0.77867 -0.00100
C 	C 	0.05259 0.62168 0.82831 -0.01400
C 	C 	0.08331 0.61424 0.85702 -0.11500
C 	C 	0.10619 0.59209 0.82917 0.07600
C 	C 	0.09465 0.57304 0.78162 -0.08900
H 	H 	0.03633 0.64078 0.84560 0.03000
H 	H 	0.11103 0.55440 0.76299 0.04900
C 	C 	0.00966 0.61399 0.74698 -0.09300
C 	C 	0.14344 0.59033 0.84519 -0.11700
C 	C 	0.01411 0.64621 0.71256 -0.02300
H 	H 	0.02467 0.66550 0.74187 0.02800
H 	H 	0.98877 0.65472 0.69750 0.02200
C 	C 	0.15102 0.55991 0.88320 -0.01400
H 	H 	0.14133 0.53760 0.86080 0.02500
H 	H 	0.13816 0.56180 0.92675 0.04500
H 	H 	0.99981 0.59498 0.71659 0.04800
H 	H 	0.15258 0.61305 0.86667 0.06400
C 	C 	0.03686 0.64240 0.65829 -0.15700
C 	C 	0.18900 0.55564 0.89332 -0.16200
H 	H 	0.02581 0.62433 0.62717 0.05900
H 	H 	0.03897 0.66629 0.63504 0.05300
H 	H 	0.06269 0.63443 0.67148 0.06300
H 	H 	0.98947 0.61758 0.78069 0.03500
H 	H 	0.20211 0.55082 0.85071 0.05500
H 	H 	0.19352 0.53465 0.92365 0.06200
H 	H 	0.19978 0.57796 0.91353 0.06900
H 	H 	0.15834 0.58864 0.80347 0.04700
C 	C 	0.05972 0.57676 0.28567 0.01100
C 	C 	0.04177 0.60297 0.25931 -0.00000
C 	C 	0.05465 0.61766 0.20777 -0.00500
C 	C 	0.08496 0.60658 0.18254 -0.12000
C 	C 	0.10517 0.58372 0.21365 0.08000
C 	C 	0.09217 0.56876 0.26492 -0.08900
H 	H 	0.04030 0.63682 0.18585 0.01500
H 	H 	0.10684 0.55008 0.28752 0.05000
C 	C 	0.00927 0.61604 0.28638 -0.09500
C 	C 	0.14153 0.57727 0.19572 -0.12400
C 	C 	0.97783 0.60867 0.24848 -0.02200
H 	H 	0.98119 0.61853 0.20295 0.01200
H 	H 	0.95572 0.62143 0.26832 0.01900
C 	C 	0.16520 0.60259 0.22403 -0.01300
H 	H 	0.16329 0.60093 0.27307 0.02700
H 	H 	0.15755 0.62768 0.21025 0.03900
H 	H 	0.00519 0.60689 0.33218 0.04800
H 	H 	0.14439 0.57765 0.14685 0.06600
C 	C 	0.96974 0.57217 0.24513 -0.15700
C 	C 	0.20205 0.59711 0.20606 -0.16200
H 	H 	0.96731 0.56154 0.29025 0.05800
H 	H 	0.94536 0.56865 0.22147 0.04200
H 	H 	0.98982 0.55909 0.22022 0.05200
H 	H 	0.01166 0.64306 0.29046 0.04200
H 	H 	0.21021 0.57180 0.21718 0.05500
H 	H 	0.21857 0.61461 0.23006 0.05500
H 	H 	0.20514 0.60137 0.15788 0.06300
H 	H 	0.14918 0.55231 0.21033 0.05000
C 	C 	0.77007 0.93418 0.95556 0.01000
C 	C 	0.76180 0.90338 0.98044 -0.00300
C 	C 	0.72809 0.89669 0.99610 0.00100
C 	C 	0.70219 0.91959 0.98550 -0.10800
C 	C 	0.71096 0.95129 0.96346 0.07100
C 	C 	0.74475 0.95774 0.94758 -0.08800
H 	H 	0.72189 0.87313 0.01550 0.03100
H 	H 	0.75157 0.98161 0.93016 0.04800
C 	C 	0.78850 0.87709 0.99017 -0.08100
C 	C 	0.68570 0.97934 0.96103 -0.11000
C 	C 	0.78478 0.84851 0.94654 -0.02800
H 	H 	0.75855 0.83859 0.94787 0.03200
H 	H 	0.80214 0.82851 0.96053 0.02600
C 	C 	0.67705 0.99188 0.02330 -0.01700
H 	H 	0.70020 0.00240 0.04387 0.02400
H 	H 	0.66808 0.97158 0.05209 0.03900
H 	H 	0.81479 0.88664 0.98823 0.04700
H 	H 	0.66280 0.97264 0.93550 0.06500
C 	C 	0.79358 0.85821 0.88304 -0.15400
C 	C 	0.64961 0.01820 0.02107 -0.16900
H 	H 	0.81979 0.86804 0.88071 0.05700
H 	H 	0.79196 0.83635 0.85411 0.05100
H 	H 	0.77546 0.87681 0.86627 0.05700
H 	H 	0.78547 0.86724 0.03580 0.03300
H 	H 	0.65815 0.03930 0.99377 0.06200
H 	H 	0.64424 0.02698 0.06658 0.05400
H 	H 	0.62587 0.00805 0.00209 0.05900
H 	H 	0.69662 0.00017 0.93556 0.04600
C 	C 	0.58130 0.94158 0.70210 0.01200
C 	C 	0.55755 0.91726 0.71908 -0.00400
C 	C 	0.55906 0.90473 0.77721 -0.00100
C 	C 	0.58666 0.91206 0.81391 -0.12200
C 	C 	0.61427 0.93011 0.79081 0.08200
C 	C 	0.61068 0.94591 0.73595 -0.09000
H 	H 	0.53873 0.88988 0.79458 0.01100
H 	H 	0.63044 0.96221 0.72024 0.04900
C 	C 	0.53267 0.90351 0.67370 -0.09200
C 	C 	0.64875 0.92937 0.82018 -0.12700
C 	C 	0.51397 0.87151 0.68994 -0.03000
H 	H 	0.53039 0.85477 0.71603 0.02800
H 	H 	0.50792 0.85830 0.64828 0.02600
C 	C 	0.66985 0.90084 0.79592 -0.00900
H 	H 	0.67429 0.90456 0.74775 0.02600
H 	H 	0.65585 0.87743 0.80195 0.03700
H 	H 	0.51404 0.92267 0.66127 0.04700
H 	H 	0.64652 0.92737 0.86886 0.06900
C 	C 	0.48040 0.87759 0.72198 -0.15000
C 	C 	0.70406 0.89802 0.82701 -0.16500
H 	H 	0.46288 0.89162 0.69299 0.04900
H 	H 	0.46832 0.85379 0.73288 0.04300
H 	H 	0.48423 0.89132 0.76366 0.03900
H 	H 	0.54747 0.89780 0.63319 0.04700
H 	H 	0.71769 0.92181 0.82633 0.05900
H 	H 	0.71988 0.87949 0.80411 0.05400
H 	H 	0.70038 0.88992 0.87344 0.06900
H 	H 	0.66225 0.95279 0.81139 0.05000
C 	C 	0.51604 0.91718 0.24391 0.00900
C 	C 	0.52967 0.94161 0.20584 0.00100
C 	C 	0.54532 0.93204 0.15275 -0.00900
C 	C 	0.54651 0.89905 0.13630 -0.11900
C 	C 	0.53564 0.87465 0.17657 0.07800
C 	C 	0.52000 0.88405 0.22967 -0.09000
H 	H 	0.55622 0.95039 0.12371 0.02700
H 	H 	0.51121 0.86545 0.26040 0.04700
C 	C 	0.53025 0.97763 0.22309 -0.09600
C 	C 	0.54457 0.83892 0.16723 -0.12500
C 	C 	0.51186 0.99987 0.17829 -0.02300
H 	H 	0.52258 0.99689 0.13318 0.01800
H 	H 	0.51611 0.02576 0.19128 0.02100
C 	C 	0.58059 0.83179 0.18945 -0.01400
H 	H 	0.58227 0.83749 0.23748 0.02700
H 	H 	0.59909 0.84751 0.16545 0.03300
H 	H 	0.51970 0.98234 0.26769 0.05300
H 	H 	0.54229 0.83193 0.12001 0.06300
C 	C 	0.47375 0.99369 0.17639 -0.15400
C 	C 	0.59035 0.79599 0.18025 -0.16200
H 	H 	0.46255 0.99855 0.22045 0.05800
H 	H 	0.46182 0.01045 0.14372 0.03700
H 	H 	0.46828 0.96810 0.16304 0.04700
H 	H 	0.55719 0.98551 0.22532 0.04500
H 	H 	0.57144 0.77947 0.20121 0.05300
H 	H 	0.61548 0.79127 0.20064 0.05400
H 	H 	0.59210 0.79046 0.13230 0.06000
H 	H 	0.52630 0.82313 0.19166 0.04700
C 	C 	0.28530 0.07427 0.95277 -0.11300
C 	C 	0.26064 0.07615 0.99847 0.08700
C 	C 	0.22619 0.07332 0.98377 -0.07800
C 	C 	0.21627 0.06324 0.92714 0.00600
C 	C 	0.24111 0.05862 0.88268 0.00000
C 	C 	0.27518 0.06559 0.89534 -0.00800
H 	H 	0.20714 0.07646 0.01791 0.04100
H 	H 	0.29398 0.06371 0.86048 0.03600
C 	C 	0.27039 0.07714 0.06362 -0.13700
C 	C 	0.23183 0.04638 0.82145 -0.09400
C 	C 	0.26288 0.04458 0.09526 -0.00900
H 	H 	0.23619 0.03698 0.08772 0.02200
H 	H 	0.26598 0.04828 0.14365 0.02000
C 	C 	0.22956 0.07482 0.77711 -0.02600
H 	H 	0.25481 0.08665 0.77254 0.03000
H 	H 	0.21137 0.09353 0.79313 0.03100
H 	H 	0.29719 0.08362 0.07174 0.07100
H 	H 	0.20775 0.03231 0.82175 0.04800
C 	C 	0.28663 0.01713 0.07566 -0.16200
C 	C 	0.21805 0.06304 0.71628 -0.15600
H 	H 	0.31339 0.02385 0.08457 0.05300
H 	H 	0.28066 0.99448 0.10087 0.04700
H 	H 	0.28341 0.01199 0.02774 0.04900
H 	H 	0.25526 0.09667 0.08532 0.05400
H 	H 	0.23610 0.04462 0.69861 0.05300
H 	H 	0.21708 0.08410 0.68515 0.05300
H 	H 	0.19235 0.05203 0.71915 0.05500
H 	H 	0.25164 0.02893 0.80627 0.04100
C 	C 	0.42517 0.09017 0.84007 -0.12300
C 	C 	0.44303 0.11558 0.81058 0.08500
C 	C 	0.45860 0.10909 0.75592 -0.09100
C 	C 	0.45817 0.07755 0.73183 0.01400
C 	C 	0.43973 0.05235 0.76072 -0.00300
C 	C 	0.42243 0.05935 0.81341 0.00100
H 	H 	0.47262 0.12833 0.73356 0.05000
H 	H 	0.40845 0.04006 0.83570 0.00500
C 	C 	0.44772 0.14911 0.83818 -0.13000
C 	C 	0.44125 0.01716 0.73983 -0.09500
C 	C 	0.42677 0.17574 0.80689 -0.00500
H 	H 	0.43097 0.17482 0.75826 0.02400
H 	H 	0.43563 0.20006 0.82248 0.02400
C 	C 	0.46814 0.99792 0.77467 -0.02100
H 	H 	0.45875 0.99310 0.82027 0.01200
H 	H 	0.49197 0.01222 0.77834 0.02800
H 	H 	0.44219 0.14927 0.88610 0.07100
H 	H 	0.44608 0.01555 0.69162 0.05200
C 	C 	0.38890 0.17296 0.81982 -0.16500
C 	C 	0.47624 0.96541 0.74502 -0.16100
H 	H 	0.38407 0.17581 0.86796 0.07200
H 	H 	0.37515 0.19271 0.79599 0.05700
H 	H 	0.37890 0.14903 0.80456 0.07400
H 	H 	0.47494 0.15590 0.83458 0.05100
H 	H 	0.45312 0.94998 0.74235 0.04800
H 	H 	0.49575 0.95225 0.77127 0.05000
H 	H 	0.48628 0.96977 0.69976 0.06100
H 	H 	0.41613 0.00540 0.74683 0.03800
C 	C 	0.39502 0.04705 0.27237 0.00900
C 	C 	0.36230 0.05221 0.24863 0.00100
C 	C 	0.35899 0.06723 0.19292 -0.00500
C 	C 	0.38776 0.07641 0.16036 -0.11300
C 	C 	0.42015 0.07437 0.18701 0.06400
C 	C 	0.42334 0.06018 0.24336 -0.08500
H 	H 	0.33402 0.07046 0.17372 0.03200
H 	H 	0.44822 0.05776 0.26331 0.04800
C 	C 	0.33066 0.04262 0.28275 -0.09300
C 	C 	0.45134 0.08834 0.15711 -0.11200
C 	C 	0.31161 0.01388 0.25423 -0.02600
H 	H 	0.30517 0.01978 0.20760 0.02500
H 	H 	0.28739 0.01016 0.27844 0.02300
C 	C 	0.45563 0.12465 0.17255 -0.02000
H 	H 	0.45497 0.12792 0.22140 0.03000
H 	H 	0.43453 0.13906 0.15289 0.04300
H 	H 	0.33614 0.03682 0.32986 0.04800
H 	H 	0.45026 0.08518 0.10833 0.03900
C 	C 	0.33165 0.98194 0.25592 -0.15300
C 	C 	0.48920 0.13804 0.14934 -0.15700
H 	H 	0.33958 0.97608 0.30192 0.05700
H 	H 	0.31548 0.96169 0.23942 0.04700
H 	H 	0.35426 0.98373 0.22686 0.05300
H 	H 	0.31334 0.06408 0.28367 0.04300
H 	H 	0.51079 0.12572 0.17177 0.05200
H 	H 	0.49073 0.16472 0.15814 0.05300
H 	H 	0.49115 0.13401 0.10096 0.05500
H 	H 	0.47414 0.07458 0.17207 0.04200
C 	C 	0.43075 0.28378 0.97469 -0.00800
C 	C 	0.39738 0.27247 0.96397 0.01300
C 	C 	0.38998 0.23908 0.97113 -0.02300
C 	C 	0.41463 0.21707 0.99199 -0.07500
C 	C 	0.44770 0.22885 0.00532 0.04000
C 	C 	0.45543 0.26194 0.99534 -0.05300
H 	H 	0.36465 0.23035 0.96136 0.04500
H 	H 	0.48097 0.27071 0.00336 0.03400
C 	C 	0.36877 0.29584 0.94823 -0.08600
C 	C 	0.47576 0.20631 0.02637 -0.11300
C 	C 	0.34570 0.30290 0.00148 -0.04300
H 	H 	0.33654 0.27960 0.02140 0.03200
H 	H 	0.32311 0.31659 0.98558 0.03500
C 	C 	0.49675 0.19419 0.97349 -0.01500
H 	H 	0.51229 0.21476 0.95596 0.02700
H 	H 	0.47983 0.18582 0.93734 0.03800
H 	H 	0.37778 0.31927 0.92907 0.04900
H 	H 	0.46580 0.18577 0.05337 0.06100
C 	C 	0.36328 0.32333 0.04897 -0.14900
C 	C 	0.52024 0.16606 0.99060 -0.13700
H 	H 	0.37325 0.34643 0.02965 0.05500
H 	H 	0.34478 0.32960 0.08419 0.05000
H 	H 	0.38433 0.30930 0.06949 0.05800
H 	H 	0.35310 0.28444 0.91296 0.04200
H 	H 	0.53572 0.17262 0.02989 0.04300
H 	H 	0.53754 0.16059 0.95314 0.05000
H 	H 	0.50516 0.14375 0.00029 0.04800
H 	H 	0.49282 0.21994 0.05681 0.04400
C 	C 	0.22373 0.60560 0.01826 -0.12700
C 	C 	0.24346 0.62256 0.97523 0.09000
C 	C 	0.27783 0.61409 0.96874 -0.09600
C 	C 	0.29022 0.58489 0.99293 0.02400
C 	C 	0.26974 0.56647 0.03211 -0.01600
C 	C 	0.23704 0.57756 0.04568 -0.00200
H 	H 	0.29455 0.62904 0.94214 0.05200
H 	H 	0.22170 0.56404 0.07719 0.02900
C 	C 	0.22778 0.64927 0.93632 -0.12700
C 	C 	0.28321 0.53610 0.06280 -0.08800
C 	C 	0.24420 0.65488 0.87516 -0.01400
H 	H 	0.27088 0.66311 0.87938 0.02200
H 	H 	0.23046 0.67528 0.85303 0.02200
C 	C 	0.30094 0.54508 0.12096 -0.02800
H 	H 	0.28243 0.55671 0.15150 0.02700
H 	H 	0.32169 0.56284 0.11230 0.02900
H 	H 	0.20075 0.64353 0.92735 0.06100
H 	H 	0.30084 0.52236 0.03369 0.04400
C 	C 	0.24198 0.62492 0.83491 -0.16100
C 	C 	0.31592 0.51490 0.15115 -0.15500
H 	H 	0.21510 0.61821 0.82729 0.05400
H 	H 	0.25372 0.63074 0.79148 0.05300
H 	H 	0.25557 0.60368 0.85432 0.05900
H 	H 	0.22870 0.67267 0.96114 0.06000
H 	H 	0.29566 0.49686 0.16135 0.05200
H 	H 	0.32832 0.52220 0.19322 0.05100
H 	H 	0.33522 0.50330 0.12217 0.05300
H 	H 	0.26188 0.51909 0.07249 0.04000
C 	C 	0.77838 0.40845 0.02204 -0.11700
C 	C 	0.76362 0.43134 0.06126 0.07100
C 	C 	0.72901 0.43867 0.05610 -0.08600
C 	C 	0.70900 0.42322 0.01325 0.00200
C 	C 	0.72310 0.39809 0.97800 0.00800
C 	C 	0.75786 0.39123 0.98228 0.00400
H 	H 	0.71779 0.45702 0.08463 0.04600
H 	H 	0.76912 0.37307 0.95339 0.03400
C 	C 	0.78405 0.44718 0.11042 -0.11700
C 	C 	0.70164 0.37913 0.93430 -0.09500
C 	C 	0.77763 0.43089 0.17080 -0.01000
H 	H 	0.75014 0.43159 0.18151 0.02300
H 	H 	0.79114 0.44515 0.20535 0.01900
C 	C 	0.70396 0.39414 0.87209 -0.02500
H 	H 	0.73053 0.39272 0.85591 0.03000
H 	H 	0.69641 0.42031 0.87321 0.03200
H 	H 	0.81164 0.44748 0.10105 0.03700
H 	H 	0.67478 0.37800 0.94891 0.05100
C 	C 	0.79010 0.39549 0.17346 -0.16600
C 	C 	0.68097 0.37625 0.82852 -0.15700
H 	H 	0.81720 0.39401 0.16070 0.07700
H 	H 	0.78741 0.38604 0.21935 0.05600
H 	H 	0.77486 0.37974 0.14364 0.07100
H 	H 	0.77660 0.47335 0.11370 0.03800
H 	H 	0.68822 0.35003 0.82563 0.05500
H 	H 	0.68351 0.38747 0.78392 0.05400
H 	H 	0.65408 0.37816 0.84270 0.05600
H 	H 	0.71063 0.35333 0.93269 0.04600
C 	C 	0.56258 0.78671 0.95655 -0.10600
C 	C 	0.56403 0.76858 0.90314 0.07800
C 	C 	0.55794 0.73471 0.90473 -0.09000
C 	C 	0.55113 0.71864 0.95837 0.01800
C 	C 	0.55112 0.73657 0.01191 -0.01100
C 	C 	0.55587 0.77057 0.01009 -0.01500
H 	H 	0.55911 0.72068 0.86412 0.04900
H 	H 	0.55458 0.78453 0.05070 0.03000
C 	C 	0.57402 0.78441 0.84462 -0.12400
C 	C 	0.54970 0.71950 0.07155 -0.09000
C 	C 	0.54515 0.78389 0.79883 -0.01000
H 	H 	0.53644 0.75838 0.79121 0.02300
H 	H 	0.55511 0.79327 0.75599 0.02200
C 	C 	0.58508 0.70788 0.09033 -0.02800
H 	H 	0.60274 0.72907 0.09175 0.02900
H 	H 	0.59496 0.68994 0.05771 0.03000
H 	H 	0.58359 0.80978 0.84948 0.06700
H 	H 	0.53186 0.69854 0.07096 0.04300
C 	C 	0.51487 0.80493 0.81678 -0.15700
C 	C 	0.58433 0.69172 0.15132 -0.15500
H 	H 	0.52250 0.83100 0.82014 0.05300
H 	H 	0.49481 0.80293 0.78254 0.04700
H 	H 	0.50416 0.79655 0.85967 0.05700
H 	H 	0.59567 0.77036 0.82607 0.05000
H 	H 	0.57538 0.70938 0.18521 0.05000
H 	H 	0.61025 0.68353 0.16345 0.05000
H 	H 	0.56731 0.67006 0.15098 0.05300
H 	H 	0.53970 0.73668 0.10549 0.03900
