data_crystal

_cell_length_a 48.62389
_cell_length_b 47.29934
_cell_length_c 19.27128
_cell_angle_alpha 94.44005
_cell_angle_beta  90.78060
_cell_angle_gamma 90.12701

_symmetry_space_group_name_	'P 1'
_symmetry_space_group_name_H-M	'P 1'

loop_
_symmetry_equiv_pos_as_xyz
  x,y,z

loop_
_atom_site_label
_atom_site_type_symbol
_atom_site_fract_x
_atom_site_fract_y
_atom_site_fract_z
_atom_site_charge
Cd	Cd	0.98477 0.86619 0.16379 1.23900
Cd	Cd	0.95310 0.90249 0.30936 1.15800
O 	O 	0.97071 0.81715 0.12716 -0.32700
O 	O 	0.00094 0.83985 0.06894 -0.35900
C 	C 	0.98839 0.81597 0.07697 0.27000
O 	O 	0.00016 0.91060 0.16167 -0.38300
O 	O 	0.99200 0.92343 0.27663 -0.44800
C 	C 	0.99716 0.93041 0.21316 0.28000
C 	C 	0.93120 0.88921 0.14957 0.30000
O 	O 	0.97858 0.86098 0.29829 -0.46000
O 	O 	0.94182 0.88293 0.08834 -0.30500
O 	O 	0.94499 0.88060 0.20168 -0.55000
C 	C 	0.00523 0.85874 0.30283 0.29200
O 	O 	0.01845 0.85698 0.24421 -0.37100
Cd	Cd	0.07623 0.94601 0.03916 1.24100
Cd	Cd	0.05994 0.97199 0.87405 1.17000
O 	O 	0.10742 0.90533 0.03936 -0.32400
O 	O 	0.09195 0.92611 0.13685 -0.36800
C 	C 	0.10679 0.90592 0.10679 0.27500
O 	O 	0.05486 0.98735 0.06576 -0.37800
O 	O 	0.03241 0.98769 0.96056 -0.43300
C 	C 	0.04141 0.00114 0.01876 0.28500
C 	C 	0.11532 0.97975 0.97436 0.30500
O 	O 	0.05167 0.92891 0.92001 -0.44800
O 	O 	0.12229 0.97685 0.03912 -0.30300
O 	O 	0.09492 0.96406 0.95021 -0.53900
C 	C 	0.03046 0.92231 0.95650 0.29700
O 	O 	0.03456 0.92328 0.02365 -0.35600
C 	C 	0.11530 0.71752 0.95157 0.11600
N 	N 	0.12155 0.69195 0.97532 -0.14300
C 	C 	0.11626 0.66772 0.93488 0.12900
N 	N 	0.10503 0.66901 0.87049 -0.14500
C 	C 	0.09835 0.69440 0.84689 0.12700
N 	N 	0.10356 0.71866 0.88729 -0.14300
C 	C 	0.07929 0.65454 0.22948 0.11500
N 	N 	0.07426 0.66087 0.29803 -0.14300
C 	C 	0.07866 0.64124 0.34462 0.12700
N 	N 	0.08867 0.61539 0.32263 -0.14400
C 	C 	0.09504 0.60932 0.25469 0.12600
N 	N 	0.09043 0.62902 0.20797 -0.14300
Cd	Cd	0.86485 0.04011 0.80285 1.23900
Cd	Cd	0.91861 0.04432 0.93013 1.16600
O 	O 	0.81824 0.02822 0.84004 -0.32700
O 	O 	0.82615 0.03986 0.73372 -0.35000
C 	C 	0.80831 0.03253 0.77886 0.27400
O 	O 	0.90065 0.05801 0.74846 -0.38600
O 	O 	0.93335 0.03996 0.81990 -0.43800
C 	C 	0.92660 0.05608 0.76947 0.28200
C 	C 	0.86907 0.08925 0.89797 0.30200
O 	O 	0.88975 0.00747 0.88852 -0.46000
O 	O 	0.85240 0.09349 0.84606 -0.30900
O 	O 	0.87748 0.06334 0.90095 -0.54100
C 	C 	0.89431 0.98955 0.83501 0.29400
O 	O 	0.88203 0.99509 0.77704 -0.36100
Cd	Cd	0.84913 0.04373 0.49478 1.23900
Cd	Cd	0.89686 0.04594 0.35715 1.16000
O 	O 	0.79960 0.04854 0.46942 -0.32500
O 	O 	0.81482 0.03739 0.57156 -0.35000
C 	C 	0.79370 0.04175 0.53158 0.27200
O 	O 	0.88904 0.03106 0.54203 -0.38800
O 	O 	0.91635 0.05187 0.46406 -0.44400
C 	C 	0.91341 0.03466 0.51419 0.28200
C 	C 	0.85518 0.99506 0.39920 0.29600
O 	O 	0.86543 0.07880 0.40417 -0.46100
O 	O 	0.84213 0.98900 0.45492 -0.31000
O 	O 	0.85976 0.02186 0.39388 -0.53900
C 	C 	0.86995 0.09760 0.45626 0.29400
O 	O 	0.86104 0.09094 0.51651 -0.36100
C 	C 	0.61359 0.97819 0.76838 0.11700
N 	N 	0.61474 0.96547 0.82910 -0.14200
C 	C 	0.59133 0.95993 0.86301 0.12700
N 	N 	0.56666 0.96720 0.83614 -0.14400
C 	C 	0.56531 0.97957 0.77492 0.12700
N 	N 	0.58881 0.98492 0.74068 -0.14400
C 	C 	0.61226 0.94946 0.46678 0.11600
N 	N 	0.58931 0.94897 0.50621 -0.14200
C 	C 	0.56507 0.93962 0.47679 0.12700
N 	N 	0.56377 0.93125 0.40780 -0.14400
C 	C 	0.58649 0.93225 0.36806 0.12700
N 	N 	0.61072 0.94131 0.39770 -0.14300
Cd	Cd	0.05212 0.14903 0.26923 1.24100
Cd	Cd	0.02244 0.11039 0.40324 1.16900
O 	O 	0.08514 0.18668 0.30710 -0.32200
O 	O 	0.07676 0.17513 0.19611 -0.35500
C 	C 	0.09023 0.19120 0.24289 0.27300
O 	O 	0.03040 0.11275 0.21040 -0.37700
O 	O 	0.00134 0.10406 0.29896 -0.43800
C 	C 	0.01435 0.09527 0.24186 0.28200
C 	C 	0.08323 0.10603 0.32943 0.30600
O 	O 	0.02137 0.15763 0.37971 -0.45500
O 	O 	0.09506 0.11390 0.27350 -0.30300
O 	O 	0.06263 0.12140 0.35145 -0.53600
C 	C 	0.00315 0.16932 0.34085 0.29400
O 	O 	0.01125 0.17401 0.27837 -0.35200
Cd	Cd	0.01239 0.23047 0.08186 1.24100
Cd	Cd	0.97698 0.19425 0.93840 1.15800
O 	O 	0.99744 0.27827 0.12641 -0.32600
O 	O 	0.03070 0.25591 0.17654 -0.35600
C 	C 	0.01705 0.27946 0.17326 0.27300
O 	O 	0.03054 0.18721 0.07715 -0.38600
O 	O 	0.01729 0.17413 0.96474 -0.45500
C 	C 	0.02449 0.16729 0.02748 0.28500
C 	C 	0.96123 0.20322 0.10250 0.29600
O 	O 	0.00086 0.23704 0.94953 -0.46100
O 	O 	0.97394 0.20941 0.16203 -0.29300
O 	O 	0.97202 0.21383 0.04926 -0.54700
C 	C 	0.02712 0.24096 0.94127 0.28900
O 	O 	0.04230 0.24298 0.99775 -0.37200
C 	C 	0.13987 0.41700 0.02257 0.11700
N 	N 	0.15266 0.40543 0.96471 -0.14500
C 	C 	0.16039 0.42216 0.91409 0.12600
N 	N 	0.15759 0.45068 0.92413 -0.14400
C 	C 	0.14594 0.46245 0.98296 0.12700
N 	N 	0.13703 0.44562 0.03202 -0.14200
C 	C 	0.17895 0.37005 0.29360 0.11500
N 	N 	0.17345 0.39484 0.26481 -0.14300
C 	C 	0.17289 0.41963 0.30552 0.12600
N 	N 	0.17782 0.41953 0.37501 -0.14300
C 	C 	0.18160 0.39467 0.40457 0.12700
N 	N 	0.18276 0.37007 0.36364 -0.14300
Cd	Cd	0.12772 0.13420 0.61533 1.23900
Cd	Cd	0.09899 0.15736 0.78026 1.16600
O 	O 	0.17645 0.14518 0.59784 -0.32700
O 	O 	0.15341 0.11645 0.52386 -0.36100
O 	O 	0.08661 0.11284 0.61352 -0.39700
O 	O 	0.06765 0.14356 0.69756 -0.43500
C 	C 	0.06769 0.11880 0.66111 0.28100
C 	C 	0.13895 0.10321 0.73366 0.30800
O 	O 	0.11884 0.18103 0.69221 -0.46100
O 	O 	0.14648 0.08912 0.67618 -0.30100
C 	C 	0.10577 0.19094 0.63992 0.29300
O 	O 	0.10718 0.17545 0.58085 -0.36000
Cd	Cd	0.11731 0.95357 0.65567 1.23400
Cd	Cd	0.09428 0.93601 0.48086 1.16600
O 	O 	0.16274 0.93629 0.68860 -0.33100
O 	O 	0.14044 0.96709 0.75707 -0.38400
C 	C 	0.16336 0.95347 0.74452 0.27900
O 	O 	0.07884 0.97897 0.64579 -0.41700
O 	O 	0.06068 0.95056 0.55436 -0.43600
C 	C 	0.06058 0.97444 0.59451 0.28700
C 	C 	0.13761 0.98488 0.54631 0.30800
O 	O 	0.10723 0.90886 0.57108 -0.46300
O 	O 	0.14400 0.99723 0.60734 -0.30300
O 	O 	0.12708 0.95973 0.54728 -0.54400
C 	C 	0.09077 0.89965 0.61716 0.30000
O 	O 	0.09096 0.91419 0.67771 -0.38300
C 	C 	0.32327 0.03548 0.78279 0.11500
N 	N 	0.35036 0.03191 0.76799 -0.14300
C 	C 	0.36665 0.01640 0.80845 0.12600
N 	N 	0.35641 0.00683 0.86758 -0.14500
C 	C 	0.32980 0.01183 0.88505 0.12500
N 	N 	0.31312 0.02569 0.84193 -0.14400
C 	C 	0.32333 0.98386 0.50692 0.11300
N 	N 	0.35017 0.97852 0.52147 -0.14600
C 	C 	0.36850 0.97422 0.46914 0.12500
N 	N 	0.36031 0.97720 0.40246 -0.14400
C 	C 	0.33403 0.98472 0.38813 0.12600
N 	N 	0.31539 0.98741 0.44011 -0.14400
C 	C 	0.32002 0.00509 0.95433 -0.05000
C 	C 	0.32664 0.97892 0.98143 0.09700
C 	C 	0.32456 0.97626 0.05328 -0.08300
C 	C 	0.31393 0.99845 0.09740 -0.00700
C 	C 	0.30372 0.02306 0.06857 0.07200
C 	C 	0.30739 0.02641 0.99744 -0.05600
N 	N 	0.33430 0.95618 0.93862 -0.19800
H 	H 	0.33139 0.95694 0.07497 0.05400
C 	C 	0.31655 0.99710 0.17399 -0.00500
N 	N 	0.29044 0.04346 0.10879 -0.19500
H 	H 	0.30126 0.04605 0.97622 0.04900
C 	C 	0.33672 0.01369 0.21055 -0.08600
C 	C 	0.34101 0.01176 0.28221 0.10000
C 	C 	0.32619 0.99134 0.31684 -0.05100
C 	C 	0.30532 0.97547 0.28096 -0.05300
C 	C 	0.29998 0.97853 0.21000 0.06800
H 	H 	0.34893 0.02839 0.18325 0.05400
N 	N 	0.35880 0.03002 0.31774 -0.19900
H 	H 	0.29350 0.96036 0.30797 0.04700
N 	N 	0.27885 0.96384 0.17711 -0.19400
H 	H 	0.37065 0.04407 0.29127 0.08300
H 	H 	0.35995 0.03153 0.37204 0.09000
H 	H 	0.26721 0.94962 0.20359 0.08200
H 	H 	0.27323 0.96700 0.12583 0.08700
H 	H 	0.28381 0.06202 0.08772 0.08300
H 	H 	0.28566 0.04065 0.16047 0.08800
H 	H 	0.33272 0.95644 0.88457 0.08900
H 	H 	0.34042 0.93735 0.95924 0.08300
C 	C 	0.23815 0.95572 0.75010 -0.06000
C 	C 	0.24161 0.98192 0.72153 0.02400
C 	C 	0.22081 0.00239 0.73068 -0.06000
C 	C 	0.19489 0.99454 0.75333 0.01000
C 	C 	0.18984 0.96628 0.76709 -0.08000
C 	C 	0.21238 0.94823 0.77457 0.01200
C 	C 	0.26321 0.98516 0.66909 0.01000
H 	H 	0.22371 0.02331 0.71281 0.04700
H 	H 	0.20911 0.92690 0.78966 0.03100
H 	H 	0.25445 0.94013 0.74694 0.04500
C 	C 	0.29047 0.97739 0.68272 -0.04400
C 	C 	0.30984 0.97626 0.62958 -0.02200
C 	C 	0.30267 0.98475 0.56322 -0.02200
C 	C 	0.27553 0.99330 0.55033 -0.02200
C 	C 	0.25582 0.99276 0.60227 -0.04400
H 	H 	0.29647 0.97141 0.73391 0.04200
H 	H 	0.33012 0.96805 0.63955 0.03700
H 	H 	0.26950 0.99986 0.49973 0.04100
H 	H 	0.23458 0.99728 0.58985 0.04200
C 	C 	0.22318 0.06646 0.57243 -0.05900
C 	C 	0.24780 0.08133 0.58738 0.02200
C 	C 	0.25079 0.10879 0.56569 -0.06000
C 	C 	0.22807 0.12265 0.53869 0.01100
C 	C 	0.20056 0.08028 0.54527 0.00900
C 	C 	0.26772 0.07068 0.63749 0.00800
H 	H 	0.27000 0.12019 0.57499 0.04600
H 	H 	0.22991 0.14474 0.52810 0.03300
H 	H 	0.18088 0.06950 0.54131 0.04400
H 	H 	0.22075 0.04511 0.58785 0.04600
C 	C 	0.26080 0.07060 0.70789 -0.04700
C 	C 	0.27908 0.05966 0.75546 -0.02100
C 	C 	0.30466 0.04882 0.73324 -0.02000
C 	C 	0.31189 0.04973 0.66288 -0.02000
H 	H 	0.24107 0.07871 0.72560 0.04300
H 	H 	0.27329 0.05952 0.80949 0.04000
H 	H 	0.29898 0.06063 0.56103 0.04300
C 	C 	0.16948 0.40947 0.84576 -0.05000
C 	C 	0.15236 0.39050 0.80377 0.09800
C 	C 	0.16002 0.38244 0.73510 -0.08600
C 	C 	0.18205 0.39587 0.70472 -0.00700
C 	C 	0.19979 0.41383 0.74716 0.07000
C 	C 	0.19378 0.41966 0.81790 -0.05300
N 	N 	0.12785 0.38139 0.82723 -0.20000
H 	H 	0.14697 0.36799 0.70287 0.05300
C 	C 	0.18275 0.39557 0.62772 -0.00400
N 	N 	0.22226 0.42595 0.72017 -0.19500
H 	H 	0.20723 0.43358 0.85041 0.04800
C 	C 	0.16304 0.41136 0.59378 -0.08700
C 	C 	0.16069 0.40909 0.52101 0.10100
C 	C 	0.18094 0.39399 0.48116 -0.05100
C 	C 	0.20089 0.37836 0.51495 -0.05300
C 	C 	0.20140 0.37821 0.58794 0.06800
H 	H 	0.14834 0.42406 0.62432 0.05400
N 	N 	0.13809 0.41978 0.49005 -0.19800
H 	H 	0.21599 0.36620 0.48447 0.04800
N 	N 	0.21985 0.36157 0.61927 -0.19400
H 	H 	0.12445 0.43282 0.51911 0.08300
H 	H 	0.13250 0.41318 0.43886 0.09100
H 	H 	0.23369 0.34905 0.58948 0.08200
H 	H 	0.22053 0.36067 0.67321 0.08700
H 	H 	0.23498 0.43954 0.75171 0.08200
H 	H 	0.22752 0.42183 0.66807 0.08800
H 	H 	0.11856 0.39133 0.87098 0.09000
H 	H 	0.11663 0.36564 0.79810 0.08200
C 	C 	0.03862 0.24591 0.87301 -0.10600
C 	C 	0.06226 0.26280 0.86930 0.01000
C 	C 	0.07759 0.26160 0.80843 -0.07400
C 	C 	0.06970 0.24304 0.75136 0.00500
C 	C 	0.04407 0.22885 0.75174 -0.01400
C 	C 	0.02836 0.23074 0.81255 -0.01800
C 	C 	0.03649 0.20996 0.69483 -0.06500
C 	C 	0.05609 0.20146 0.64496 0.00100
C 	C 	0.08332 0.21116 0.65356 -0.09600
C 	C 	0.08866 0.23510 0.69931 -0.03100
H 	H 	0.06952 0.27577 0.91471 0.03200
H 	H 	0.09663 0.27353 0.80751 0.04000
H 	H 	0.00958 0.21842 0.81471 -0.02200
H 	H 	0.01633 0.20008 0.69235 0.02700
H 	H 	0.05108 0.18457 0.60556 0.03200
H 	H 	0.10915 0.24430 0.70184 0.03400
C 	C 	0.03947 0.35398 0.15812 -0.06200
C 	C 	0.06700 0.35170 0.17953 0.02200
C 	C 	0.07459 0.32965 0.22048 -0.06300
C 	C 	0.05616 0.30744 0.22887 0.01000
C 	C 	0.03038 0.30697 0.19493 -0.07600
C 	C 	0.02108 0.33177 0.16640 0.00900
C 	C 	0.08837 0.36703 0.14403 0.00600
H 	H 	0.09535 0.32861 0.24110 0.04700
H 	H 	0.06271 0.28960 0.25676 0.03900
H 	H 	0.00047 0.33273 0.14467 0.04000
H 	H 	0.03302 0.37165 0.12928 0.04600
C 	C 	0.09781 0.35586 0.07920 -0.04800
C 	C 	0.11602 0.37137 0.04151 -0.02100
C 	C 	0.12473 0.39854 0.06778 -0.02200
C 	C 	0.11618 0.40917 0.13431 -0.02100
C 	C 	0.09802 0.39347 0.17218 -0.04600
H 	H 	0.09058 0.33533 0.05740 0.04300
H 	H 	0.12249 0.36270 0.99071 0.03800
H 	H 	0.12299 0.42988 0.15581 0.04500
H 	H 	0.09107 0.40210 0.22262 0.04100
C 	C 	0.13364 0.00174 0.48637 -0.13000
C 	C 	0.15534 0.01849 0.46511 0.02400
C 	C 	0.15011 0.04062 0.42279 -0.06500
C 	C 	0.12300 0.04667 0.40310 0.01300
C 	C 	0.10136 0.02857 0.42037 0.00400
C 	C 	0.10701 0.00556 0.45993 -0.02000
C 	C 	0.07416 0.03505 0.40261 -0.07600
C 	C 	0.06825 0.06038 0.37299 0.00700
C 	C 	0.08959 0.07882 0.35756 -0.11800
C 	C 	0.11701 0.07146 0.37041 -0.00400
H 	H 	0.17607 0.01527 0.48427 0.02300
H 	H 	0.16695 0.05394 0.40842 0.05000
H 	H 	0.09037 0.99212 0.47489 -0.04000
H 	H 	0.05749 0.02092 0.41376 0.02500
H 	H 	0.04709 0.06559 0.36164 -0.06600
H 	H 	0.13350 0.08563 0.35792 0.04400
C 	C 	0.13989 0.24038 0.16277 -0.06400
C 	C 	0.13736 0.26482 0.20836 0.02400
C 	C 	0.11768 0.26570 0.26085 -0.06200
C 	C 	0.10117 0.24215 0.26923 0.01500
C 	C 	0.10438 0.21722 0.22583 -0.07500
C 	C 	0.12333 0.21660 0.17134 0.01000
C 	C 	0.15629 0.28893 0.20484 0.00500
H 	H 	0.11564 0.28449 0.29628 0.04700
H 	H 	0.08629 0.24303 0.31069 0.04100
H 	H 	0.12594 0.19748 0.13738 0.03000
H 	H 	0.15502 0.23956 0.12194 0.04200
C 	C 	0.17887 0.29147 0.25101 -0.04500
C 	C 	0.18890 0.31832 0.27422 -0.02200
C 	C 	0.17639 0.34272 0.25113 -0.02000
C 	C 	0.15740 0.33975 0.19543 -0.02400
C 	C 	0.14742 0.31285 0.17223 -0.04500
H 	H 	0.18673 0.27293 0.27429 0.04300
H 	H 	0.20487 0.32019 0.31408 0.04000
H 	H 	0.14885 0.35828 0.17384 0.04700
H 	H 	0.13084 0.31092 0.13406 0.04200
C 	C 	0.53947 0.94238 0.51656 -0.05200
C 	C 	0.52031 0.91984 0.51252 0.10100
C 	C 	0.49218 0.92584 0.51852 -0.08700
C 	C 	0.48324 0.95392 0.53123 -0.00500
C 	C 	0.50286 0.97558 0.54938 0.07100
C 	C 	0.53099 0.96947 0.54220 -0.05300
N 	N 	0.52881 0.89253 0.50140 -0.19900
H 	H 	0.47721 0.90888 0.50959 0.05300
C 	C 	0.45394 0.96063 0.51717 -0.00700
N 	N 	0.49484 0.00235 0.57047 -0.19300
H 	H 	0.54602 0.98642 0.55042 0.05100
C 	C 	0.43350 0.94857 0.55640 -0.08800
C 	C 	0.40561 0.95063 0.53767 0.09800
C 	C 	0.39779 0.96848 0.48495 -0.05300
C 	C 	0.44618 0.97617 0.45997 0.06900
H 	H 	0.43942 0.93568 0.59819 0.05100
N 	N 	0.38680 0.93415 0.56729 -0.19900
N 	N 	0.46527 0.98525 0.41562 -0.19400
H 	H 	0.39223 0.92325 0.61058 0.08200
H 	H 	0.36761 0.92984 0.54392 0.09100
H 	H 	0.45945 0.99808 0.37617 0.08200
H 	H 	0.48560 0.97830 0.41686 0.08900
H 	H 	0.50947 0.01816 0.58359 0.08500
H 	H 	0.47411 0.00768 0.57462 0.08600
H 	H 	0.54972 0.88749 0.50099 0.08900
H 	H 	0.51450 0.87595 0.49575 0.08300
C 	C 	0.53829 0.98680 0.74590 -0.05100
C 	C 	0.52870 0.01514 0.75203 0.09800
C 	C 	0.50027 0.02031 0.75019 -0.08700
C 	C 	0.48148 0.99771 0.74413 -0.00500
C 	C 	0.49117 0.96970 0.72947 0.07200
C 	C 	0.51961 0.96469 0.72838 -0.05100
N 	N 	0.54654 0.03733 0.76150 -0.20000
H 	H 	0.49275 0.04188 0.75776 0.05300
C 	C 	0.45225 0.00328 0.76115 -0.00600
N 	N 	0.47339 0.94750 0.71861 -0.19400
H 	H 	0.52712 0.94315 0.71987 0.04800
C 	C 	0.43301 0.00509 0.70695 -0.08800
C 	C 	0.40483 0.00737 0.72084 0.10000
C 	C 	0.44346 0.00609 0.83110 0.07000
H 	H 	0.43973 0.00258 0.65357 0.05300
H 	H 	0.40901 0.01420 0.89880 0.05100
N 	N 	0.46160 0.00395 0.88487 -0.19400
H 	H 	0.39283 0.00575 0.61608 0.09100
H 	H 	0.36641 0.99731 0.67482 0.09500
H 	H 	0.45493 0.00646 0.93631 0.08200
H 	H 	0.48231 0.99929 0.87643 0.08900
H 	H 	0.48078 0.92699 0.70670 0.08200
H 	H 	0.45216 0.95030 0.72172 0.08600
H 	H 	0.56777 0.03434 0.76024 0.09100
H 	H 	0.53920 0.05810 0.76830 0.08200
C 	C 	0.58381 0.92840 0.29161 -0.05100
C 	C 	0.60225 0.91092 0.25167 0.10000
C 	C 	0.60327 0.91281 0.17938 -0.08700
C 	C 	0.58558 0.93112 0.14644 -0.00500
C 	C 	0.56515 0.94624 0.18544 0.07000
C 	C 	0.56460 0.94487 0.25785 -0.05300
N 	N 	0.61858 0.89197 0.28213 -0.19900
H 	H 	0.61824 0.90047 0.14891 0.05400
C 	C 	0.59032 0.93637 0.07286 -0.00700
N 	N 	0.54632 0.96238 0.15386 -0.19400
H 	H 	0.54987 0.95756 0.28830 0.04900
C 	C 	0.57733 0.91889 0.02011 -0.08400
C 	C 	0.57880 0.92523 0.95024 0.09600
C 	C 	0.59296 0.94994 0.93347 -0.04900
C 	C 	0.60725 0.96646 0.98576 -0.05700
C 	C 	0.60624 0.95982 0.05536 0.07400
H 	H 	0.56574 0.90053 0.03357 0.05300
N 	N 	0.56710 0.90728 0.89961 -0.19900
H 	H 	0.61860 0.98503 0.97252 0.05000
N 	N 	0.62039 0.97614 0.10509 -0.19500
H 	H 	0.55586 0.88964 0.91268 0.08200
H 	H 	0.56996 0.90996 0.84693 0.09100
H 	H 	0.63159 0.99378 0.09183 0.08400
H 	H 	0.62091 0.97123 0.15697 0.09000
H 	H 	0.53179 0.97409 0.18334 0.08200
H 	H 	0.54546 0.96297 0.09984 0.08800
H 	H 	0.61629 0.88801 0.33430 0.09000
H 	H 	0.63294 0.87997 0.25277 0.08300
C 	C 	0.97362 0.16699 0.35618 -0.09200
C 	C 	0.95412 0.16458 0.30157 0.01100
C 	C 	0.92790 0.15380 0.31251 -0.06500
C 	C 	0.92087 0.14561 0.37842 0.00400
C 	C 	0.93932 0.15107 0.43518 0.00300
C 	C 	0.96546 0.16230 0.42397 -0.04100
C 	C 	0.93222 0.14310 0.50120 -0.07200
C 	C 	0.90838 0.12725 0.50939 0.01000
C 	C 	0.89117 0.11961 0.45173 -0.09800
C 	C 	0.89664 0.13023 0.38726 -0.03600
H 	H 	0.95972 0.16959 0.24989 0.05200
H 	H 	0.91355 0.15064 0.26905 0.04000
H 	H 	0.98008 0.16544 0.46693 0.01400
H 	H 	0.94573 0.14816 0.54558 0.03000
H 	H 	0.90404 0.11973 0.55980 0.03700
H 	H 	0.88289 0.12514 0.34324 0.02200
C 	C 	0.93825 0.02324 0.54731 -0.08700
C 	C 	0.93647 0.99829 0.58213 0.00100
C 	C 	0.96034 0.98488 0.60390 -0.06900
C 	C 	0.98629 0.99638 0.59168 0.01000
C 	C 	0.98822 0.02210 0.55932 -0.00600
C 	C 	0.96417 0.03569 0.53840 -0.01800
C 	C 	0.01422 0.03342 0.54637 -0.04900
C 	C 	0.03808 0.01886 0.56348 -0.01200
C 	C 	0.01035 0.98186 0.60855 -0.02900
H 	H 	0.91663 0.98867 0.59007 0.03300
H 	H 	0.95863 0.96514 0.62854 0.03600
H 	H 	0.96564 0.05549 0.51380 0.01500
H 	H 	0.01598 0.05339 0.52268 -0.00200
H 	H 	0.00895 0.96161 0.63120 0.02700
C 	C 	0.71714 0.03144 0.52372 -0.06200
C 	C 	0.71474 0.00370 0.54424 0.02300
C 	C 	0.73808 0.99010 0.56948 -0.06000
C 	C 	0.76377 0.00344 0.57024 0.01300
C 	C 	0.76636 0.03054 0.54601 -0.07400
C 	C 	0.74281 0.04480 0.52480 0.00900
C 	C 	0.68852 0.98798 0.53286 0.00800
H 	H 	0.73640 0.96898 0.58712 0.04400
H 	H 	0.78178 0.99232 0.58739 0.04200
H 	H 	0.74457 0.06579 0.50639 0.03400
H 	H 	0.69932 0.04219 0.50420 0.04500
C 	C 	0.66364 0.00031 0.55564 -0.04400
C 	C 	0.63863 0.98670 0.53830 -0.02000
C 	C 	0.63829 0.96085 0.49723 -0.02100
C 	C 	0.66321 0.94784 0.47770 -0.02100
C 	C 	0.68817 0.96137 0.49512 -0.04600
H 	H 	0.66366 0.02057 0.58602 0.04200
H 	H 	0.61953 0.99680 0.55441 0.04200
H 	H 	0.66319 0.92770 0.44682 0.03800
H 	H 	0.70720 0.95164 0.47713 0.04200
C 	C 	0.94880 0.06719 0.72744 -0.08000
C 	C 	0.94496 0.09233 0.69430 -0.00300
C 	C 	0.96750 0.10620 0.66758 -0.06900
C 	C 	0.99410 0.09509 0.67390 -0.00000
C 	C 	0.99782 0.06895 0.70354 0.00400
C 	C 	0.97505 0.05474 0.72834 -0.02200
C 	C 	0.02442 0.05795 0.71059 -0.05700
C 	C 	0.04723 0.07324 0.69053 -0.00600
C 	C 	0.04379 0.09997 0.66490 -0.09300
C 	C 	0.01716 0.11047 0.65446 -0.03500
H 	H 	0.92475 0.10185 0.69211 0.03000
H 	H 	0.96440 0.12617 0.64475 0.02600
H 	H 	0.97789 0.03459 0.75078 0.03300
H 	H 	0.02747 0.03769 0.73221 0.02300
H 	H 	0.06770 0.06480 0.69756 0.02800
H 	H 	0.01449 0.13108 0.63418 0.01700
C 	C 	0.94179 0.17948 0.09256 -0.11400
C 	C 	0.95045 0.15198 0.10483 -0.01300
C 	C 	0.93577 0.12835 0.07591 -0.06600
C 	C 	0.91276 0.13204 0.03276 -0.02600
C 	C 	0.90297 0.15969 0.02426 0.01000
C 	C 	0.91720 0.18323 0.05564 -0.04900
C 	C 	0.88023 0.16350 0.98053 -0.08600
C 	C 	0.86854 0.14032 0.94153 0.01900
C 	C 	0.87926 0.11295 0.94621 -0.12800
C 	C 	0.90053 0.10869 0.99454 -0.00700
H 	H 	0.96960 0.14886 0.13262 0.03300
H 	H 	0.94322 0.10725 0.08389 0.01700
H 	H 	0.91037 0.20450 0.04684 0.02400
H 	H 	0.87217 0.18456 0.97487 0.03700
H 	H 	0.85149 0.14376 0.90644 0.03200
H 	H 	0.90802 0.08751 0.00099 -0.07900
C 	C 	0.74139 0.99232 0.76925 -0.06200
C 	C 	0.72408 0.01094 0.73592 0.02400
C 	C 	0.73503 0.03615 0.71332 -0.06000
C 	C 	0.76292 0.04270 0.72461 0.01300
C 	C 	0.78002 0.02418 0.75872 -0.07300
C 	C 	0.76919 0.99882 0.78008 0.01100
C 	C 	0.69434 0.00439 0.72709 0.00700
H 	H 	0.72203 0.05050 0.68658 0.04600
H 	H 	0.77111 0.06232 0.70776 0.03900
H 	H 	0.78223 0.98437 0.80645 0.03600
H 	H 	0.73318 0.97307 0.78805 0.04600
C 	C 	0.68571 0.97676 0.70452 -0.04400
C 	C 	0.65822 0.96881 0.71094 -0.01900
C 	C 	0.63907 0.98844 0.73917 -0.02200
C 	C 	0.64705 0.01677 0.75446 -0.02200
C 	C 	0.67463 0.02469 0.74918 -0.04700
H 	H 	0.70048 0.96118 0.68456 0.04000
H 	H 	0.65212 0.94701 0.69746 0.03900
H 	H 	0.63231 0.03217 0.77556 0.03500
H 	H 	0.68088 0.04615 0.76605 0.04000
C 	C 	0.11136 0.58368 0.23516 -0.05100
C 	C 	0.10011 0.56080 0.19192 0.09900
C 	C 	0.11220 0.53381 0.19237 -0.08400
C 	C 	0.13432 0.52910 0.23762 -0.00600
C 	C 	0.14692 0.55248 0.27623 0.06800
C 	C 	0.13597 0.57972 0.27194 -0.05300
N 	N 	0.07758 0.56440 0.15100 -0.20000
H 	H 	0.10345 0.51612 0.16021 0.05600
C 	C 	0.14257 0.49951 0.24846 -0.00600
N 	N 	0.16887 0.54885 0.31922 -0.19500
H 	H 	0.14527 0.59756 0.30247 0.04700
C 	C 	0.16738 0.48899 0.22052 -0.08600
C 	C 	0.17693 0.46196 0.23459 0.09900
C 	C 	0.16134 0.44528 0.27766 -0.05100
C 	C 	0.13568 0.45500 0.30157 -0.05300
C 	C 	0.12641 0.48223 0.28903 0.06900
H 	H 	0.18010 0.50253 0.19134 0.04900
N 	N 	0.20121 0.45244 0.20751 -0.19900
H 	H 	0.12342 0.44179 0.33289 0.04400
N 	N 	0.10252 0.49195 0.31804 -0.19400
H 	H 	0.21267 0.46505 0.17625 0.08400
H 	H 	0.20875 0.43237 0.21621 0.09300
H 	H 	0.09049 0.47877 0.34651 0.08200
H 	H 	0.09601 0.51280 0.31450 0.08900
H 	H 	0.17819 0.56633 0.34664 0.08100
H 	H 	0.17658 0.52877 0.32711 0.08800
H 	H 	0.06839 0.58419 0.14835 0.09000
H 	H 	0.06933 0.54730 0.11983 0.08300
C 	C 	0.13958 0.49286 0.98897 -0.05300
C 	C 	0.12121 0.50455 0.94146 0.10100
C 	C 	0.11908 0.53406 0.94107 -0.08700
C 	C 	0.13332 0.55200 0.99066 -0.00700
C 	C 	0.14973 0.54018 0.04230 0.07100
C 	C 	0.15359 0.51071 0.03905 -0.05200
N 	N 	0.10524 0.48758 0.89703 -0.19900
H 	H 	0.10597 0.54314 0.90264 0.05300
C 	C 	0.13052 0.58306 0.98792 -0.00300
N 	N 	0.16209 0.55697 0.09420 -0.19400
H 	H 	0.16795 0.50170 0.07450 0.04600
C 	C 	0.10454 0.59525 0.99872 -0.08800
C 	C 	0.09940 0.62309 0.98224 0.10300
C 	C 	0.12143 0.64003 0.96175 -0.05100
C 	C 	0.14798 0.62869 0.95711 -0.05200
C 	C 	0.15253 0.59991 0.96624 0.06900
H 	H 	0.08775 0.58234 0.01520 0.05500
N 	N 	0.07314 0.63298 0.98314 -0.19900
H 	H 	0.16479 0.64175 0.94124 0.04700
N 	N 	0.17766 0.58846 0.95178 -0.19400
H 	H 	0.05687 0.61985 0.99534 0.08000
H 	H 	0.06857 0.65368 0.97181 0.09000
H 	H 	0.19389 0.60129 0.93787 0.08200
H 	H 	0.18115 0.56671 0.95172 0.08800
H 	H 	0.17557 0.54826 0.12939 0.08300
H 	H 	0.15763 0.57855 0.10189 0.09200
H 	H 	0.10427 0.46570 0.90065 0.09100
H 	H 	0.09257 0.49640 0.86018 0.08300
C 	C 	0.08654 0.69552 0.77634 -0.05200
C 	C 	0.06452 0.67738 0.75351 0.10100
C 	C 	0.06017 0.67081 0.68196 -0.08700
C 	C 	0.07651 0.68331 0.63332 -0.00600
C 	C 	0.09523 0.70514 0.65622 0.07000
C 	C 	0.10046 0.71073 0.72785 -0.05400
N 	N 	0.04750 0.66639 0.80002 -0.19800
H 	H 	0.04470 0.65525 0.66420 0.05300
C 	C 	0.07643 0.67089 0.56035 -0.00600
N 	N 	0.10857 0.72031 0.60981 -0.19400
H 	H 	0.11639 0.72578 0.74555 0.04800
C 	C 	0.05412 0.67620 0.51641 -0.08700
C 	C 	0.05331 0.66454 0.44712 0.10000
C 	C 	0.07633 0.64929 0.41993 -0.05100
C 	C 	0.09832 0.64342 0.46442 -0.05400
C 	C 	0.09822 0.65333 0.53491 0.07000
H 	H 	0.03703 0.68885 0.53668 0.05300
N 	N 	0.03003 0.66700 0.40812 -0.19900
H 	H 	0.11572 0.63128 0.44399 0.04900
N 	N 	0.11891 0.64572 0.57790 -0.19400
H 	H 	0.01373 0.67953 0.42727 0.08400
H 	H 	0.02718 0.65511 0.36061 0.09200
H 	H 	0.13537 0.63358 0.55806 0.08300
H 	H 	0.11843 0.65081 0.63153 0.09000
H 	H 	0.12314 0.73566 0.62697 0.08300
H 	H 	0.10393 0.71772 0.55663 0.08800
H 	H 	0.04859 0.67311 0.85291 0.08800
H 	H 	0.03204 0.65198 0.78307 0.08300
C 	C 	0.00533 0.03820 0.02146 -0.00500
C 	C 	0.99808 0.06669 0.02001 -0.06000
C 	C 	0.01806 0.08795 0.03258 0.00400
C 	C 	0.04527 0.08053 0.05037 0.02200
C 	C 	0.05238 0.05179 0.05231 -0.02800
C 	C 	0.06522 0.10189 0.06317 -0.06400
C 	C 	0.05833 0.13032 0.05682 0.00400
C 	C 	0.03148 0.13764 0.03753 -0.09100
C 	C 	0.01140 0.11645 0.02554 -0.01700
H 	H 	0.98988 0.02194 0.00949 0.00600
H 	H 	0.97703 0.07218 0.00771 -0.01500
H 	H 	0.08612 0.09650 0.07711 0.04600
H 	H 	0.07403 0.14655 0.06522 0.03300
H 	H 	0.99080 0.12210 0.00954 -0.00000
C 	C 	0.00221 0.92358 0.92802 -0.09700
C 	C 	0.98006 0.91547 0.96823 0.02400
C 	C 	0.95336 0.92405 0.95288 -0.06900
C 	C 	0.94849 0.94056 0.89675 0.01700
C 	C 	0.97018 0.94601 0.85144 -0.00700
C 	C 	0.99696 0.93711 0.86678 -0.00700
C 	C 	0.96511 0.96201 0.79431 -0.06100
C 	C 	0.91855 0.97112 0.83420 -0.09600
C 	C 	0.92276 0.95323 0.88795 -0.03300
H 	H 	0.98376 0.90383 0.01366 0.04100
H 	H 	0.93665 0.91880 0.98624 0.05700
H 	H 	0.01383 0.94233 0.83379 -0.03400
H 	H 	0.98141 0.96587 0.75836 0.02500
H 	H 	0.90649 0.95031 0.92474 0.03400
C 	C 	0.12481 0.00404 0.93851 -0.11500
C 	C 	0.15293 0.00752 0.92634 0.02400
C 	C 	0.16204 0.03028 0.89061 -0.06100
C 	C 	0.14303 0.04956 0.86609 0.00700
C 	C 	0.11493 0.04724 0.88259 0.00700
C 	C 	0.10589 0.02425 0.91809 -0.03100
C 	C 	0.09614 0.06735 0.86090 -0.07800
C 	C 	0.10476 0.08800 0.81780 0.00700
C 	C 	0.13206 0.08835 0.79506 -0.13000
C 	C 	0.15145 0.07011 0.82215 -0.00300
H 	H 	0.16767 0.99229 0.94344 0.03100
H 	H 	0.18379 0.03255 0.88070 0.04500
H 	H 	0.08424 0.02189 0.92903 -0.02900
H 	H 	0.07471 0.06642 0.87540 0.02700
H 	H 	0.17269 0.07083 0.80572 0.03200
C 	C 	0.12429 0.76892 0.11109 -0.04800
C 	C 	0.12375 0.79493 0.08093 0.00600
C 	C 	0.12304 0.79541 0.00827 -0.04200
C 	C 	0.12158 0.77013 0.96600 -0.02500
C 	C 	0.12061 0.74400 0.99595 -0.02200
C 	C 	0.12304 0.74350 0.06876 -0.02200
C 	C 	0.12205 0.82178 0.12465 0.02200
H 	H 	0.12289 0.81546 0.98461 0.04500
H 	H 	0.12067 0.77091 0.90999 0.04200
H 	H 	0.12301 0.72353 0.09271 0.04400
H 	H 	0.12504 0.76838 0.16718 0.03900
C 	C 	0.09611 0.83219 0.14477 -0.06300
C 	C 	0.09181 0.86148 0.15386 0.00900
C 	C 	0.11332 0.88020 0.14133 -0.08500
C 	C 	0.14023 0.86966 0.13686 0.01000
C 	C 	0.14460 0.84040 0.12809 -0.06300
H 	H 	0.07872 0.81786 0.14555 0.04700
H 	H 	0.07109 0.86945 0.16123 0.03400
H 	H 	0.15730 0.88402 0.13107 0.02800
H 	H 	0.16500 0.83245 0.11604 0.04500
C 	C 	0.00649 0.95943 0.20388 -0.07900
C 	C 	0.03376 0.96739 0.22037 0.00200
C 	C 	0.04167 0.99593 0.22242 -0.06100
C 	C 	0.02230 0.01678 0.20826 0.01900
C 	C 	0.99498 0.00873 0.19001 0.00400
C 	C 	0.98733 0.98001 0.18695 -0.03000
C 	C 	0.97533 0.02966 0.17880 -0.07500
C 	C 	0.98232 0.05837 0.19002 -0.00700
C 	C 	0.00916 0.06645 0.21063 -0.08200
C 	C 	0.02947 0.04565 0.21572 -0.02900
H 	H 	0.04865 0.95158 0.23346 0.02300
H 	H 	0.06268 0.00184 0.23644 0.04100
H 	H 	0.96626 0.97386 0.17475 0.01400
H 	H 	0.95441 0.02374 0.16382 0.00500
H 	H 	0.96661 0.07433 0.18502 0.00900
H 	H 	0.05045 0.05195 0.22913 0.03900
C 	C 	0.91041 0.91135 0.16106 -0.11400
C 	C 	0.91683 0.93928 0.14713 -0.01300
C 	C 	0.90476 0.96212 0.18596 -0.06800
C 	C 	0.88589 0.95705 0.23816 -0.02900
C 	C 	0.87666 0.92907 0.24517 0.00300
C 	C 	0.88844 0.90642 0.20489 -0.04600
C 	C 	0.85771 0.92386 0.29677 -0.08400
C 	C 	0.87771 0.97911 0.28657 -0.00500
H 	H 	0.93289 0.94326 0.11072 0.02300
H 	H 	0.91122 0.98357 0.17807 0.00900
H 	H 	0.88269 0.88479 0.21337 0.02600
H 	H 	0.84990 0.90261 0.30130 0.03800
H 	H 	0.83581 0.94114 0.38592 0.03200
H 	H 	0.88547 0.00042 0.28269 -0.07400
C 	C 	0.01911 0.85389 0.36906 -0.10300
C 	C 	0.04288 0.83710 0.36942 0.01100
C 	C 	0.05911 0.83681 0.42965 -0.07400
C 	C 	0.05212 0.85392 0.48946 0.00400
C 	C 	0.02688 0.86872 0.49136 -0.00900
C 	C 	0.01018 0.86818 0.43128 -0.01500
C 	C 	0.02037 0.88649 0.55062 -0.06400
C 	C 	0.04048 0.89295 0.60208 0.00700
C 	C 	0.06713 0.88193 0.59375 -0.10300
C 	C 	0.07152 0.85951 0.54323 -0.03100
H 	H 	0.04930 0.82506 0.32231 0.03300
H 	H 	0.07800 0.82466 0.42841 0.03900
H 	H 	0.99144 0.88059 0.43143 -0.01900
H 	H 	0.00061 0.89702 0.55422 0.03000
H 	H 	0.03630 0.90902 0.64375 0.02800
H 	H 	0.09158 0.84953 0.53987 0.03200
C 	C 	0.04196 0.68774 0.08399 -0.04700
C 	C 	0.04782 0.71659 0.10061 0.00900
C 	C 	0.06677 0.72438 0.15441 -0.04500
C 	C 	0.07903 0.70369 0.19244 -0.02000
C 	C 	0.07181 0.67505 0.17880 -0.02100
C 	C 	0.05359 0.66710 0.12364 -0.01900
C 	C 	0.03137 0.73873 0.06903 0.02200
H 	H 	0.07114 0.74655 0.16866 0.04100
H 	H 	0.09313 0.71008 0.23481 0.03800
H 	H 	0.04734 0.64515 0.11376 0.03500
H 	H 	0.02751 0.68140 0.04236 0.03800
C 	C 	0.04444 0.76273 0.04592 -0.06200
C 	C 	0.02952 0.78762 0.03886 0.00900
C 	C 	0.00137 0.78859 0.05460 -0.07400
C 	C 	0.98760 0.76321 0.06563 0.00800
C 	C 	0.00258 0.73847 0.07395 -0.05900
H 	H 	0.06644 0.76279 0.03866 0.05200
H 	H 	0.04030 0.80667 0.02681 0.04100
H 	H 	0.96561 0.76326 0.07410 0.03800
H 	H 	0.99204 0.71982 0.08945 0.04400
C 	C 	0.17735 0.12675 0.54428 0.27400
O 	O 	0.13151 0.12918 0.72725 -0.54300
H 	H 	0.17793 0.00923 0.75040 0.04200
C 	C 	0.20220 0.10928 0.53461 -0.07600
C 	C 	0.29346 0.06060 0.61530 -0.04500
H 	H 	0.33141 0.04131 0.64459 0.04300
C 	C 	0.41824 0.98147 0.44754 -0.05600
H 	H 	0.41239 0.99502 0.40694 0.04900
C 	C 	0.39601 0.01139 0.79088 -0.05100
C 	C 	0.41555 0.01095 0.84521 -0.05400
N 	N 	0.38642 0.00418 0.66716 -0.19900
C 	C 	0.03623 0.99267 0.59261 -0.08800
H 	H 	0.05801 0.02761 0.55251 0.02700
C 	C 	0.03263 0.03057 0.03547 -0.07600
H 	H 	0.07346 0.04592 0.06333 0.04200
C 	C 	0.93932 0.97430 0.78544 0.00000
H 	H 	0.93600 0.98772 0.74308 0.04200
H 	H 	0.08984 0.10256 0.79858 -0.05100
C 	C 	0.84982 0.94573 0.34502 0.01600
C 	C 	0.86066 0.97320 0.34207 -0.12600
