data_crystal

_cell_length_a 46.65825
_cell_length_b 47.54404
_cell_length_c 21.96399
_cell_angle_alpha 94.53757
_cell_angle_beta  94.16089
_cell_angle_gamma 89.99218

_symmetry_space_group_name_	'P 1'
_symmetry_space_group_name_H-M	'P 1'

loop_
_symmetry_equiv_pos_as_xyz
  x,y,z

loop_
_atom_site_label
_atom_site_type_symbol
_atom_site_fract_x
_atom_site_fract_y
_atom_site_fract_z
_atom_site_charge
Cd	Cd	0.85165 0.00875 0.78493 1.24100
O 	O 	0.80557 0.03380 0.77620 -0.32900
O 	O 	0.81874 0.00365 0.70256 -0.35900
C 	C 	0.79946 0.02125 0.72215 0.30400
O 	O 	0.83940 0.97161 0.83991 -0.37000
O 	O 	0.82694 0.99218 0.46758 -0.31700
O 	O 	0.84335 0.02269 0.54203 -0.35300
C 	C 	0.82266 0.00558 0.51994 0.30400
C 	C 	0.59803 0.03027 0.77281 0.13800
N 	N 	0.57146 0.02926 0.74277 -0.13700
C 	C 	0.54772 0.02789 0.77490 0.12800
N 	N 	0.55067 0.02726 0.83673 -0.14400
C 	C 	0.57717 0.02676 0.86626 0.12900
N 	N 	0.60080 0.02865 0.83441 -0.14600
C 	C 	0.61721 0.00717 0.41348 0.14400
N 	N 	0.59293 0.00515 0.44360 -0.13900
C 	C 	0.56678 0.00495 0.41201 0.13100
N 	N 	0.56498 0.00596 0.35027 -0.14400
C 	C 	0.58917 0.00774 0.32011 0.13000
N 	N 	0.61523 0.00893 0.35191 -0.14400
Cd	Cd	0.96724 0.14097 0.20371 1.24000
Cd	Cd	0.94838 0.12136 0.34897 1.17000
O 	O 	0.96281 0.19081 0.18210 -0.32100
O 	O 	0.98427 0.16019 0.12117 -0.35100
C 	C 	0.97778 0.18650 0.13465 0.29800
O 	O 	0.98217 0.09642 0.20668 -0.39400
O 	O 	0.95233 0.08421 0.27942 -0.42700
C 	C 	0.97396 0.07832 0.24494 0.27500
C 	C 	0.00579 0.15339 0.30900 0.29500
O 	O 	0.92247 0.14104 0.26883 -0.45700
O 	O 	0.01843 0.15592 0.25869 -0.30000
O 	O 	0.97828 0.14908 0.30224 -0.53700
Cd	Cd	0.04171 0.11675 0.94863 1.23900
Cd	Cd	0.02555 0.06660 0.82095 1.17400
O 	O 	0.05457 0.16440 0.92388 -0.32900
O 	O 	0.04860 0.15498 0.01860 -0.35500
C 	C 	0.05459 0.17366 0.98104 0.29400
O 	O 	0.02400 0.07921 0.99014 -0.38300
O 	O 	0.03458 0.04767 0.91056 -0.42800
C 	C 	0.02090 0.05397 0.96013 0.27500
O 	O 	0.06646 0.09282 0.85433 -0.45300
O 	O 	0.01168 0.10830 0.86789 -0.53500
C 	C 	0.08723 0.08528 0.89256 0.29200
O 	O 	0.08635 0.09561 0.94920 -0.36100
C 	C 	0.09578 0.36854 0.90667 0.14000
N 	N 	0.09928 0.36831 0.84579 -0.13600
C 	C 	0.10497 0.39265 0.82047 0.12900
N 	N 	0.10592 0.41743 0.85579 -0.14500
C 	C 	0.10124 0.41795 0.91615 0.12900
N 	N 	0.09624 0.39346 0.94165 -0.14400
C 	C 	0.07246 0.36314 0.26428 0.14000
N 	N 	0.08048 0.38635 0.23715 -0.13600
C 	C 	0.09162 0.40918 0.27206 0.12900
N 	N 	0.09386 0.40905 0.33400 -0.14500
C 	C 	0.08603 0.38589 0.36114 0.12900
N 	N 	0.07587 0.36272 0.32616 -0.14500
Cd	Cd	0.08614 0.93980 0.69189 1.23800
Cd	Cd	0.07438 0.94026 0.84988 1.16500
O 	O 	0.04207 0.95834 0.69829 -0.39800
O 	O 	0.04958 0.97288 0.80014 -0.44200
C 	C 	0.03193 0.96737 0.75107 0.27300
O 	O 	0.11200 0.95721 0.79965 -0.45400
C 	C 	0.11407 0.98193 0.77830 0.30200
O 	O 	0.10654 0.98311 0.72030 -0.38100
C 	C 	0.08575 0.13540 0.50034 0.29700
O 	O 	0.08884 0.13643 0.56015 -0.30000
C 	C 	0.10653 0.39269 0.75348 -0.05000
C 	C 	0.12149 0.37138 0.72005 0.10400
C 	C 	0.11789 0.36900 0.65582 -0.08700
C 	C 	0.10243 0.38938 0.62449 -0.00500
C 	C 	0.08973 0.41222 0.65791 0.07000
C 	C 	0.09123 0.41320 0.72205 -0.05300
N 	N 	0.14034 0.35418 0.74905 -0.19800
H 	H 	0.12816 0.35190 0.63009 0.05700
C 	C 	0.09929 0.38640 0.55670 -0.00500
N 	N 	0.07624 0.43331 0.62879 -0.19400
H 	H 	0.08020 0.42983 0.74756 0.05100
C 	C 	0.07294 0.37701 0.52731 -0.08600
C 	C 	0.06764 0.37783 0.46374 0.10100
C 	C 	0.09024 0.38541 0.42829 -0.05100
C 	C 	0.11711 0.39333 0.45748 -0.05200
C 	C 	0.12167 0.39460 0.52149 0.07000
H 	H 	0.05587 0.37074 0.55449 0.05600
N 	N 	0.04059 0.37275 0.43770 -0.19900
H 	H 	0.13440 0.39906 0.43031 0.04900
N 	N 	0.14737 0.40410 0.54875 -0.19400
H 	H 	0.02455 0.36557 0.46360 0.08700
H 	H 	0.03468 0.37763 0.39305 0.09400
H 	H 	0.16380 0.40988 0.52224 0.08300
H 	H 	0.15124 0.40621 0.59629 0.08800
H 	H 	0.06625 0.44965 0.65381 0.08400
H 	H 	0.07626 0.43421 0.58147 0.08900
H 	H 	0.14732 0.35852 0.79508 0.10100
H 	H 	0.14989 0.33741 0.72447 0.09100
C 	C 	0.10093 0.03570 0.90678 -0.02800
C 	C 	0.10448 0.06038 0.87693 -0.08200
C 	C 	0.11895 0.05904 0.82313 -0.02100
C 	C 	0.12576 0.03291 0.79454 -0.00100
C 	C 	0.11760 0.00797 0.81895 -0.10100
C 	C 	0.10717 0.00945 0.87750 0.00400
H 	H 	0.09095 0.03663 0.94993 0.04200
H 	H 	0.12280 0.07810 0.80089 0.04500
H 	H 	0.13495 0.03200 0.75059 0.05200
H 	H 	0.10178 0.99036 0.89810 -0.03600
C 	C 	0.09753 0.29161 0.93860 -0.10300
C 	C 	0.07386 0.28987 0.97408 -0.00700
C 	C 	0.05862 0.31455 0.99088 0.13500
C 	C 	0.06698 0.34052 0.97165 -0.06400
C 	C 	0.08981 0.34198 0.93385 -0.06100
C 	C 	0.10567 0.31751 0.91888 0.16500
C 	C 	0.06472 0.26195 0.99164 0.00400
O 	O 	0.03562 0.31337 0.02604 -0.27200
H 	H 	0.05490 0.35933 0.98405 0.06400
O 	O 	0.12876 0.31876 0.88386 -0.28600
H 	H 	0.10941 0.27275 0.92559 0.06900
C 	C 	0.03892 0.24945 0.96523 0.12000
C 	C 	0.03354 0.22085 0.97081 -0.03600
C 	C 	0.05458 0.20407 0.99877 -0.11800
C 	C 	0.07914 0.21697 0.02972 0.18800
C 	C 	0.08406 0.24587 0.02645 -0.11600
O 	O 	0.01967 0.26473 0.93118 -0.28400
H 	H 	0.01411 0.21115 0.94846 0.06100
O 	O 	0.09886 0.20122 0.06146 -0.29700
H 	H 	0.10369 0.25543 0.04806 0.07100
H 	H 	0.14559 0.32285 0.91349 0.14500
H 	H 	0.02567 0.26223 0.88868 0.14800
H 	H 	0.11296 0.19491 0.03162 0.14900
H 	H 	0.01841 0.31376 0.99689 0.15200
C 	C 	0.01479 0.13868 0.41503 -0.00600
C 	C 	0.02184 0.15589 0.36925 -0.12900
C 	C 	0.04695 0.17242 0.37796 -0.00700
C 	C 	0.06669 0.16877 0.42753 -0.03200
C 	C 	0.06138 0.14867 0.46869 -0.10100
C 	C 	0.03438 0.13545 0.46517 -0.05200
H 	H 	0.99523 0.12624 0.40966 -0.08100
H 	H 	0.05206 0.18671 0.34418 0.04200
H 	H 	0.08718 0.17972 0.43086 0.03300
H 	H 	0.02973 0.12058 0.49798 0.02500
C 	C 	0.06155 0.29977 0.15005 -0.09500
C 	C 	0.03470 0.28981 0.16424 0.00400
C 	C 	0.01993 0.30463 0.21040 0.13600
C 	C 	0.03203 0.32910 0.24156 -0.06400
C 	C 	0.05883 0.33901 0.22719 -0.06000
C 	C 	0.07346 0.32443 0.18073 0.16700
C 	C 	0.02395 0.26199 0.13685 0.01300
O 	O 	0.99475 0.29407 0.22820 -0.27500
H 	H 	0.02081 0.34007 0.27781 0.06000
O 	O 	0.09956 0.33404 0.16572 -0.28000
H 	H 	0.07350 0.28805 0.11631 0.07700
C 	C 	0.99695 0.25951 0.10370 0.12900
C 	C 	0.98311 0.23319 0.09461 -0.03600
C 	C 	0.99615 0.20935 0.11798 -0.10800
C 	C 	0.02494 0.21120 0.14234 0.20000
C 	C 	0.03863 0.23752 0.15204 -0.11200
O 	O 	0.98302 0.28304 0.08488 -0.27700
H 	H 	0.96130 0.23180 0.07389 0.05800
O 	O 	0.03844 0.18793 0.16366 -0.28700
H 	H 	0.05994 0.23910 0.17527 0.07800
H 	H 	0.11407 0.32468 0.19241 0.14600
H 	H 	0.98642 0.28329 0.04092 0.15800
H 	H 	0.04967 0.18009 0.12975 0.17300
H 	H 	0.97925 0.30382 0.20492 0.15900
C 	C 	0.48335 0.99661 0.47341 -0.00400
N 	N 	0.44614 0.02133 0.56322 -0.19500
C 	C 	0.49182 0.02243 0.45339 -0.08500
C 	C 	0.52034 0.02689 0.44024 0.10400
C 	C 	0.54033 0.00466 0.44451 -0.04800
C 	C 	0.53265 0.98000 0.47057 -0.05000
C 	C 	0.50433 0.97596 0.48616 0.07100
H 	H 	0.47596 0.03874 0.44617 0.05600
N 	N 	0.52842 0.05247 0.42336 -0.19900
H 	H 	0.54836 0.96343 0.47631 0.05200
H 	H 	0.51330 0.06846 0.41791 0.08600
H 	H 	0.54994 0.05708 0.41802 0.09700
H 	H 	0.43312 0.03404 0.59064 0.08400
H 	H 	0.46792 0.01983 0.57729 0.09100
C 	C 	0.42867 0.01877 0.74759 -0.00500
C 	C 	0.42086 0.03089 0.80507 0.07200
C 	C 	0.39242 0.02836 0.82080 -0.05300
C 	C 	0.45917 0.01746 0.73291 -0.00600
N 	N 	0.44058 0.04458 0.84566 -0.19400
H 	H 	0.38615 0.03858 0.86368 0.05200
C 	C 	0.47236 0.04176 0.71523 -0.08800
C 	C 	0.50245 0.04453 0.72087 0.10000
C 	C 	0.51932 0.02223 0.74275 -0.04900
C 	C 	0.50625 0.99615 0.74867 -0.05200
C 	C 	0.47623 0.99370 0.74581 0.07100
H 	H 	0.45921 0.05933 0.70170 0.05300
N 	N 	0.51491 0.06880 0.70680 -0.20000
H 	H 	0.51943 0.97851 0.76177 0.04700
N 	N 	0.46403 0.96893 0.75789 -0.19400
H 	H 	0.50226 0.08556 0.69262 0.08600
H 	H 	0.53721 0.07093 0.70795 0.09700
H 	H 	0.47690 0.95175 0.76857 0.08300
H 	H 	0.43447 0.05363 0.88767 0.08500
H 	H 	0.46214 0.04609 0.83661 0.09100
C 	C 	0.58704 0.00961 0.25324 -0.05000
C 	C 	0.60297 0.99142 0.21426 0.10200
C 	C 	0.60262 0.99581 0.15180 -0.08700
C 	C 	0.58495 0.01647 0.12680 -0.00400
C 	C 	0.56770 0.03355 0.16513 0.07000
C 	C 	0.56938 0.03031 0.22824 -0.05200
N 	N 	0.61757 0.96907 0.23589 -0.19900
H 	H 	0.61539 0.98243 0.12207 0.05600
C 	C 	0.58375 0.01905 0.05994 -0.00600
N 	N 	0.54953 0.05304 0.14173 -0.19400
H 	H 	0.55693 0.04399 0.25804 0.05000
C 	C 	0.56787 0.99909 0.02087 -0.08400
C 	C 	0.56699 0.00019 0.95713 0.09900
C 	C 	0.58034 0.02305 0.93239 -0.05000
C 	C 	0.59646 0.04287 0.97142 -0.05500
C 	C 	0.59881 0.04078 0.03499 0.07300
H 	H 	0.55689 0.98214 0.04010 0.05400
N 	N 	0.55436 0.97870 0.92007 -0.19900
H 	H 	0.60714 0.06005 0.95229 0.05000
N 	N 	0.61547 0.05964 0.07167 -0.19400
H 	H 	0.54315 0.96279 0.93868 0.08400
H 	H 	0.55707 0.97655 0.87318 0.09200
H 	H 	0.62610 0.07587 0.05287 0.08600
H 	H 	0.61842 0.05818 0.11887 0.09100
H 	H 	0.53720 0.06580 0.17057 0.08400
H 	H 	0.54712 0.05549 0.09484 0.08900
H 	H 	0.61486 0.96265 0.27947 0.09400
H 	H 	0.63052 0.95674 0.20758 0.08700
C 	C 	0.97663 0.06099 0.51465 -0.02500
C 	C 	0.96619 0.03976 0.47046 -0.08800
C 	C 	0.98564 0.02180 0.44112 -0.03200
H 	H 	0.96181 0.07474 0.53830 0.02500
H 	H 	0.97784 0.00497 0.40788 -0.01800
C 	C 	0.68152 0.02589 0.52402 -0.09800
C 	C 	0.70248 0.00799 0.49961 -0.00300
C 	C 	0.69480 0.98872 0.44901 0.13200
C 	C 	0.66646 0.98749 0.42339 -0.06300
C 	C 	0.64570 0.00591 0.44667 -0.06100
C 	C 	0.65317 0.02478 0.49805 0.16600
C 	C 	0.73286 0.01064 0.52418 0.00800
O 	O 	0.71506 0.97128 0.42412 -0.27600
H 	H 	0.66080 0.97272 0.38420 0.06200
O 	O 	0.63329 0.04338 0.52048 -0.28400
H 	H 	0.68733 0.04118 0.56199 0.07200
C 	C 	0.74880 0.03511 0.51654 0.12000
C 	C 	0.77885 0.03468 0.52436 -0.02700
C 	C 	0.79317 0.00974 0.53796 -0.10800
C 	C 	0.77717 0.98643 0.55248 0.19800
C 	C 	0.74708 0.98710 0.54635 -0.10700
O 	O 	0.73524 0.05864 0.49659 -0.27300
H 	H 	0.79105 0.05297 0.51454 0.06200
O 	O 	0.79085 0.96213 0.56754 -0.28500
H 	H 	0.73488 0.96861 0.55495 0.08400
H 	H 	0.62435 0.03367 0.55272 0.15900
H 	H 	0.73164 0.07057 0.53435 0.15000
H 	H 	0.79368 0.96387 0.61286 0.16000
H 	H 	0.72331 0.98201 0.39255 0.15200
C 	C 	0.99472 0.99902 0.79455 -0.02700
C 	C 	0.00171 0.97654 0.75290 -0.09200
H 	H 	0.01150 0.01228 0.81826 -0.03400
C 	C 	0.65726 0.01323 0.66813 -0.09800
C 	C 	0.67940 0.03046 0.69744 -0.01000
C 	C 	0.67304 0.05088 0.74451 0.12900
C 	C 	0.64522 0.05282 0.76402 -0.06600
C 	C 	0.62389 0.03356 0.73937 -0.06100
C 	C 	0.62966 0.01439 0.68954 0.16000
C 	C 	0.70968 0.02483 0.68453 0.00500
O 	O 	0.69422 0.06835 0.77286 -0.28000
H 	H 	0.64071 0.06816 0.80124 0.06200
O 	O 	0.60861 0.99637 0.66269 -0.28400
H 	H 	0.66181 0.99790 0.63095 0.07600
C 	C 	0.72259 0.99918 0.69909 0.11400
C 	C 	0.75255 0.99684 0.70331 -0.03600
C 	C 	0.76977 0.02022 0.69540 -0.12000
C 	C 	0.75690 0.04488 0.67521 0.19300
C 	C 	0.72694 0.04685 0.66834 -0.11400
O 	O 	0.70602 0.97682 0.71173 -0.27700
H 	H 	0.76239 0.97751 0.71740 0.05200
O 	O 	0.77359 0.06727 0.66322 -0.29300
H 	H 	0.71714 0.06625 0.65461 0.07700
H 	H 	0.61046 0.97913 0.68528 0.14800
H 	H 	0.70401 0.97924 0.75650 0.14400
H 	H 	0.77582 0.07936 0.70222 0.15800
H 	H 	0.70266 0.05812 0.80748 0.14500
C 	C 	0.12371 0.54072 0.21884 -0.08800
C 	C 	0.10303 0.52346 0.24087 -0.00600
N 	N 	0.14614 0.58581 0.21687 -0.20100
H 	H 	0.13918 0.53141 0.18878 0.05100
C 	C 	0.10518 0.49240 0.22914 -0.00600
C 	C 	0.12765 0.47831 0.25956 -0.08600
C 	C 	0.12571 0.44922 0.26527 0.10300
C 	C 	0.10019 0.43459 0.24336 -0.04900
C 	C 	0.08009 0.44764 0.20424 -0.05300
C 	C 	0.08278 0.47650 0.19574 0.07100
H 	H 	0.14594 0.49019 0.28142 0.05500
N 	N 	0.14820 0.43548 0.29216 -0.19900
H 	H 	0.06139 0.43592 0.18387 0.05300
N 	N 	0.06309 0.48906 0.15825 -0.19400
H 	H 	0.16652 0.44660 0.31079 0.08500
H 	H 	0.14820 0.41350 0.29222 0.09300
H 	H 	0.04545 0.47763 0.13721 0.08600
H 	H 	0.16102 0.57674 0.18793 0.08300
C 	C 	0.08370 0.50187 0.98144 -0.00500
N 	N 	0.10342 0.54790 0.06910 -0.19500
C 	C 	0.11155 0.49485 0.96558 -0.08600
C 	C 	0.11906 0.46659 0.95195 0.10200
C 	C 	0.09794 0.44525 0.95154 -0.05000
C 	C 	0.07132 0.45191 0.97471 -0.05100
H 	H 	0.12704 0.51147 0.96144 0.05500
N 	N 	0.14647 0.46006 0.93920 -0.19900
H 	H 	0.05559 0.43534 0.97727 0.05000
H 	H 	0.16171 0.47600 0.93717 0.08500
H 	H 	0.15318 0.43910 0.93386 0.09200
H 	H 	0.11402 0.56421 0.09652 0.08600
H 	H 	0.10511 0.52745 0.08312 0.08700
C 	C 	0.01309 0.98237 0.01657 -0.02400
C 	C 	0.02528 0.00863 0.00862 -0.01400
C 	C 	0.00787 0.03081 0.98927 -0.07200
H 	H 	0.04844 0.01116 0.01355 0.02600
C 	C 	0.98499 0.04909 0.23989 -0.07600
C 	C 	0.01315 0.04384 0.22351 -0.02400
H 	H 	0.02608 0.06071 0.20920 0.02500
N 	N 	0.11876 0.60968 0.37368 -0.14400
C 	C 	0.11136 0.60896 0.31266 0.12900
Cd	Cd	0.89938 0.02718 0.91710 1.17000
O 	O 	0.89253 0.98731 0.76192 -0.38500
O 	O 	0.91202 0.98839 0.86071 -0.44300
C 	C 	0.91523 0.98804 0.80158 0.26600
C 	C 	0.88419 0.05962 0.79286 0.29600
O 	O 	0.85351 0.00761 0.90502 -0.45400
O 	O 	0.87357 0.05331 0.73672 -0.29200
O 	O 	0.87535 0.04417 0.83370 -0.54200
Cd	Cd	0.87283 0.01717 0.46303 1.24000
Cd	Cd	0.91312 0.99896 0.33326 1.17100
O 	O 	0.91548 0.03833 0.48858 -0.38600
O 	O 	0.92823 0.03811 0.38992 -0.44100
C 	C 	0.93550 0.03839 0.44900 0.26600
O 	O 	0.86783 0.01835 0.34266 -0.45200
O 	O 	0.89378 0.98180 0.41546 -0.54100
C 	C 	0.86145 0.04502 0.35117 0.29400
O 	O 	0.85775 0.05436 0.40754 -0.37100
C 	C 	0.90837 0.12693 0.22290 0.29100
O 	O 	0.92121 0.12477 0.17178 -0.36500
C 	C 	0.98696 0.11818 0.88251 0.30100
O 	O 	0.98756 0.13410 0.93388 -0.30300
C 	C 	0.89147 0.07727 0.21835 -0.01900
C 	C 	0.88686 0.10595 0.23515 -0.09000
C 	C 	0.86697 0.11337 0.27849 -0.03000
C 	C 	0.85617 0.09280 0.31280 -0.01200
C 	C 	0.86507 0.06468 0.30357 -0.09800
C 	C 	0.88096 0.05666 0.25312 -0.00900
H 	H 	0.90574 0.07114 0.18291 0.03500
H 	H 	0.86208 0.13537 0.28970 0.03100
H 	H 	0.84247 0.09904 0.34925 0.03900
H 	H 	0.88690 0.03482 0.24351 -0.02300
C 	C 	0.95089 0.96483 0.73444 -0.02300
C 	C 	0.94433 0.98583 0.77988 -0.08900
C 	C 	0.96625 0.00352 0.80820 -0.03200
H 	H 	0.96130 0.02031 0.84207 -0.01500
C 	C 	0.90853 0.09865 0.85742 -0.04000
C 	C 	0.90872 0.07872 0.80702 -0.10200
C 	C 	0.93400 0.07419 0.77682 -0.03200
C 	C 	0.95938 0.08821 0.79942 -0.01100
C 	C 	0.95965 0.10663 0.85276 -0.11700
C 	C 	0.93379 0.11267 0.87999 -0.00700
H 	H 	0.88901 0.10247 0.88061 0.02100
H 	H 	0.93431 0.05884 0.73767 0.03200
H 	H 	0.97884 0.08430 0.77623 -0.06300
H 	H 	0.93343 0.12747 0.92005 0.03800
C 	C 	0.10562 0.58154 0.27803 -0.05000
C 	C 	0.12537 0.56968 0.23747 0.09900
C 	C 	0.08250 0.53570 0.27949 0.07200
C 	C 	0.08315 0.56490 0.29474 -0.05200
N 	N 	0.06312 0.51948 0.30450 -0.19400
H 	H 	0.06761 0.57427 0.32459 0.04900
H 	H 	0.06554 0.51003 0.14849 0.08800
H 	H 	0.04721 0.52890 0.33024 0.08400
H 	H 	0.06453 0.49753 0.30178 0.09100
H 	H 	0.14732 0.60755 0.22809 0.09300
C 	C 	0.06558 0.58791 0.95180 -0.05100
C 	C 	0.04944 0.56614 0.91755 0.10300
C 	C 	0.05439 0.53800 0.93006 -0.08500
C 	C 	0.07397 0.53146 0.97838 -0.00700
C 	C 	0.08698 0.55354 0.01791 0.07100
C 	C 	0.08300 0.58164 0.00367 -0.05100
N 	N 	0.02911 0.57215 0.87297 -0.19900
H 	H 	0.04358 0.52112 0.90110 0.05500
C 	C 	0.06407 0.48012 0.99023 0.06800
N 	N 	0.03815 0.48623 0.01243 -0.19400
H 	H 	0.02322 0.47018 0.01620 0.08300
H 	H 	0.03312 0.50673 0.02879 0.08700
H 	H 	0.02312 0.59293 0.86651 0.09500
H 	H 	0.01810 0.55590 0.84611 0.08600
C 	C 	0.10574 0.61322 0.50350 -0.05200
H 	H 	0.09561 0.59582 0.47496 0.05100
N 	N 	0.08901 0.59432 0.59209 -0.19400
H 	H 	0.08004 0.57717 0.56449 0.08400
H 	H 	0.08774 0.59441 0.63936 0.08900
C 	C 	0.96569 0.00104 0.99141 -0.01900
C 	C 	0.98335 0.97807 0.00527 -0.07500
C 	C 	0.97793 0.02728 0.98351 -0.03200
H 	H 	0.94260 0.99832 0.98446 -0.02600
H 	H 	0.96425 0.04426 0.96873 -0.02200
H 	H 	0.88042 0.99158 0.00280 -0.02900
C 	C 	0.96835 0.02669 0.25679 -0.02200
H 	H 	0.94622 0.03008 0.26711 -0.03000
Cd	Cd	0.04388 0.96018 0.41866 1.17900
O 	O 	0.04338 0.97922 0.32859 -0.42700
C 	C 	0.02518 0.97268 0.28096 0.27600
O 	O 	0.08198 0.93483 0.37960 -0.44400
C 	C 	0.09848 0.94260 0.33838 0.29100
O 	O 	0.09197 0.93211 0.28244 -0.36000
C 	C 	0.99850 0.87491 0.93572 0.29900
O 	O 	0.01441 0.87184 0.98604 -0.31900
O 	O 	0.12831 0.91432 0.65687 -0.32600
O 	O 	0.09901 0.93542 0.59328 -0.37800
C 	C 	0.12393 0.92347 0.60281 0.29500
C 	C 	0.06241 0.89137 0.73736 0.29700
O 	O 	0.05918 0.88984 0.67753 -0.30000
O 	O 	0.07869 0.91176 0.76243 -0.54400
Cd	Cd	0.11522 0.08698 0.53914 1.23900
Cd	Cd	0.08663 0.08754 0.38494 1.16600
O 	O 	0.16028 0.11295 0.56717 -0.32900
O 	O 	0.13861 0.09090 0.63453 -0.35900
C 	C 	0.16197 0.10343 0.62115 0.29100
O 	O 	0.07121 0.06764 0.53975 -0.39300
O 	O 	0.06807 0.05406 0.43708 -0.43900
C 	C 	0.05569 0.05891 0.48889 0.27300
O 	O 	0.12977 0.07109 0.42734 -0.45500
O 	O 	0.09960 0.11543 0.47191 -0.54400
C 	C 	0.13488 0.04620 0.44673 0.30100
O 	O 	0.13351 0.04422 0.50527 -0.36900
C 	C 	0.29359 0.99963 0.78026 0.14000
N 	N 	0.31977 0.00678 0.76260 -0.14000
C 	C 	0.34307 0.00811 0.80353 0.13000
N 	N 	0.33954 0.00586 0.86382 -0.14400
C 	C 	0.31303 0.00115 0.88271 0.12800
N 	N 	0.29030 0.99668 0.84061 -0.13300
C 	C 	0.31703 0.01436 0.44334 0.13700
N 	N 	0.31093 0.01584 0.38206 -0.13400
C 	C 	0.33005 0.00594 0.34170 0.12700
N 	N 	0.35619 0.99675 0.36288 -0.14400
C 	C 	0.36254 0.99553 0.42401 0.12800
N 	N 	0.34264 0.00368 0.46385 -0.14600
C 	C 	0.30929 0.99986 0.94880 -0.04600
C 	C 	0.29436 0.02127 0.98220 0.10000
C 	C 	0.29487 0.02148 0.04640 -0.08300
C 	C 	0.31082 0.00144 0.07787 -0.00600
C 	C 	0.32480 0.97944 0.04437 0.07300
C 	C 	0.32370 0.97880 0.98012 -0.05500
N 	N 	0.28019 0.04206 0.95337 -0.19900
H 	H 	0.28380 0.03801 0.07213 0.05600
C 	C 	0.31431 0.00479 0.14598 -0.00500
N 	N 	0.33958 0.95912 0.07349 -0.19400
H 	H 	0.33485 0.96229 0.95451 0.05000
C 	C 	0.29563 0.99023 0.17986 -0.08600
C 	C 	0.30027 0.99027 0.24393 0.10200
C 	C 	0.32316 0.00657 0.27490 -0.04700
C 	C 	0.34098 0.02219 0.24113 -0.05300
C 	C 	0.33697 0.02131 0.17694 0.07100
H 	H 	0.27816 0.97780 0.15606 0.05500
N 	N 	0.28331 0.97392 0.27486 -0.19800
H 	H 	0.35839 0.03474 0.26484 0.05100
N 	N 	0.35507 0.03616 0.14543 -0.19400
H 	H 	0.26599 0.96270 0.25182 0.08700
H 	H 	0.28765 0.97135 0.32134 0.09700
H 	H 	0.37184 0.04812 0.16867 0.08500
H 	H 	0.35269 0.03611 0.09781 0.09000
H 	H 	0.35010 0.94317 0.04841 0.08500
H 	H 	0.34062 0.95875 0.12105 0.08900
H 	H 	0.28022 0.04328 0.90617 0.10000
H 	H 	0.26913 0.05760 0.97845 0.08800
C 	C 	0.24915 0.04125 0.51390 -0.10500
C 	C 	0.26022 0.05203 0.57219 -0.01200
C 	C 	0.28957 0.04908 0.58943 0.13600
C 	C 	0.30791 0.03656 0.54745 -0.07000
C 	C 	0.29707 0.02655 0.48809 -0.06000
C 	C 	0.26727 0.02811 0.47228 0.15800
C 	C 	0.24100 0.06724 0.61398 0.01000
O 	O 	0.30026 0.05767 0.64777 -0.27600
H 	H 	0.33062 0.03494 0.56090 0.06400
O 	O 	0.25577 0.01667 0.41654 -0.28200
H 	H 	0.22639 0.04298 0.50089 0.06800
C 	C 	0.23940 0.09686 0.61659 0.11900
C 	C 	0.21451 0.11043 0.63561 -0.03500
C 	C 	0.19040 0.09431 0.64632 -0.11400
C 	C 	0.19461 0.06565 0.65683 0.18800
C 	C 	0.21988 0.05216 0.64006 -0.11800
O 	O 	0.26131 0.11238 0.59725 -0.27800
H 	H 	0.21247 0.13301 0.63296 0.06000
O 	O 	0.17357 0.05051 0.68031 -0.29100
H 	H 	0.22184 0.02962 0.64194 0.07100
H 	H 	0.25086 0.99688 0.42310 0.14300
H 	H 	0.25648 0.11389 0.55289 0.14700
H 	H 	0.16263 0.04073 0.64434 0.14700
H 	H 	0.30688 0.07738 0.64577 0.15600
C 	C 	0.17991 0.97484 0.58366 -0.12100
C 	C 	0.20312 0.95809 0.60246 0.00800
C 	C 	0.20070 0.92857 0.59192 0.12100
C 	C 	0.17370 0.91628 0.57490 -0.03500
C 	C 	0.14907 0.93328 0.57333 -0.12000
C 	C 	0.15273 0.96251 0.56920 0.18700
C 	C 	0.22607 0.97065 0.64622 -0.00700
O 	O 	0.22381 0.91172 0.60516 -0.26900
H 	H 	0.17141 0.89352 0.57265 0.06000
O 	O 	0.12951 0.97929 0.55610 -0.30100
H 	H 	0.18224 0.99758 0.58614 0.06800
C 	C 	0.25445 0.97250 0.62945 0.13500
C 	C 	0.27625 0.98270 0.67281 -0.06400
C 	C 	0.26986 0.99169 0.73303 -0.05500
C 	C 	0.24096 0.99184 0.74815 0.16400
C 	C 	0.21943 0.98054 0.70546 -0.09800
O 	O 	0.26113 0.96344 0.57136 -0.28000
H 	H 	0.29818 0.98315 0.65979 0.06900
O 	O 	0.23368 0.00308 0.80437 -0.28000
H 	H 	0.19743 0.97982 0.71814 0.07500
H 	H 	0.12350 0.98719 0.59634 0.14700
H 	H 	0.25877 0.98022 0.54744 0.14300
H 	H 	0.22977 0.02329 0.79915 0.15200
H 	H 	0.23312 0.90832 0.56609 0.15300
C 	C 	0.39231 0.98956 0.44752 -0.05100
C 	C 	0.40960 0.96992 0.41526 0.10100
C 	C 	0.43959 0.97125 0.42653 -0.08600
C 	C 	0.45226 0.99016 0.47306 -0.00600
C 	C 	0.43458 0.00607 0.51239 0.06900
C 	C 	0.40474 0.00619 0.49840 -0.05400
N 	N 	0.39752 0.94925 0.37521 -0.19900
H 	H 	0.45311 0.95795 0.39832 0.05600
H 	H 	0.39136 0.02003 0.52579 0.05000
N 	N 	0.49744 0.95239 0.51330 -0.19400
H 	H 	0.51279 0.93678 0.52069 0.08600
H 	H 	0.47716 0.94986 0.52942 0.08800
H 	H 	0.37545 0.94518 0.37266 0.09300
H 	H 	0.41042 0.93577 0.34914 0.08500
C 	C 	0.37230 0.01192 0.78282 -0.04800
C 	C 	0.38050 0.99913 0.72604 0.10200
C 	C 	0.40772 0.00510 0.70669 -0.08900
N 	N 	0.36361 0.97930 0.69290 -0.19900
H 	H 	0.41371 0.99610 0.66251 0.05400
H 	H 	0.44180 0.96631 0.75628 0.08900
H 	H 	0.34820 0.96807 0.71338 0.09600
H 	H 	0.36811 0.97253 0.64817 0.08800
C 	C 	0.01519 0.02636 0.45204 -0.02400
C 	C 	0.02572 0.04922 0.49182 -0.09100
C 	C 	0.00636 0.06559 0.52560 -0.02600
H 	H 	0.02988 0.01305 0.42707 -0.03900
H 	H 	0.01419 0.08274 0.55789 0.02600
H 	H 	0.98450 0.94333 0.68737 0.03300
N 	N 	0.04350 0.66374 0.74974 -0.20000
H 	H 	0.03473 0.66175 0.79155 0.09500
H 	H 	0.03031 0.67150 0.71444 0.08700
H 	H 	0.02695 0.96501 0.02819 0.02300
C 	C 	0.03595 0.85695 0.86796 -0.00600
C 	C 	0.01048 0.87216 0.87549 -0.13300
C 	C 	0.99883 0.88755 0.82776 0.00100
C 	C 	0.01423 0.89032 0.77633 -0.05200
C 	C 	0.04164 0.87843 0.77323 -0.10000
C 	C 	0.05152 0.86018 0.81706 -0.03800
H 	H 	0.04454 0.84396 0.90329 0.03400
H 	H 	0.00606 0.90380 0.74166 0.02900
H 	H 	0.07236 0.85030 0.81423 0.03200
C 	C 	0.02538 0.01724 0.22965 -0.01400
C 	C 	0.00968 0.99574 0.25266 -0.07000
H 	H 	0.04772 0.01395 0.22069 0.02800
C 	C 	0.14742 0.99598 0.42484 0.00800
C 	C 	0.13488 0.02069 0.40441 -0.10100
C 	C 	0.11710 0.01903 0.34987 0.00600
C 	C 	0.10824 0.99265 0.32229 -0.02900
C 	C 	0.11627 0.96807 0.35052 -0.08000
C 	C 	0.13746 0.96968 0.39920 -0.01800
H 	H 	0.16304 0.99717 0.46389 0.04400
H 	H 	0.10837 0.03799 0.33162 -0.03900
H 	H 	0.09325 0.99147 0.28213 0.04300
H 	H 	0.14482 0.95071 0.41965 0.04400
Cd	Cd	0.04824 0.91030 0.28981 1.24000
O 	O 	0.06462 0.86288 0.31180 -0.32500
O 	O 	0.04911 0.87242 0.21866 -0.34600
C 	C 	0.05935 0.85384 0.25482 0.29700
O 	O 	0.02574 0.94740 0.25103 -0.38300
C 	C 	0.00040 0.90796 0.36300 0.30100
O 	O 	0.99640 0.89199 0.31191 -0.30000
O 	O 	0.02620 0.91825 0.37433 -0.53200
Cd	Cd	0.96682 0.88625 0.04089 1.23900
Cd	Cd	0.93832 0.90721 0.89636 1.17100
O 	O 	0.96349 0.83607 0.05942 -0.33100
O 	O 	0.98961 0.86568 0.12155 -0.35300
C 	C 	0.98244 0.83946 0.10577 0.29900
O 	O 	0.98166 0.93101 0.03997 -0.39100
O 	O 	0.94693 0.94368 0.96761 -0.42900
C 	C 	0.97116 0.94917 0.00144 0.27500
O 	O 	0.91783 0.88652 0.97511 -0.45900
O 	O 	0.97142 0.87913 0.94228 -0.54000
C 	C 	0.90656 0.90004 0.02136 0.29200
O 	O 	0.92275 0.90205 0.07270 -0.36300
C 	C 	0.06387 0.66526 0.94103 0.14200
N 	N 	0.06140 0.63953 0.96307 -0.14100
C 	C 	0.06802 0.61588 0.92820 0.13000
N 	N 	0.07729 0.61802 0.87158 -0.14400
C 	C 	0.07964 0.64369 0.84945 0.13000
N 	N 	0.07329 0.66734 0.88451 -0.14500
C 	C 	0.10528 0.65821 0.32143 0.14100
N 	N 	0.11133 0.65856 0.38288 -0.13500
C 	C 	0.11835 0.63436 0.40910 0.13000
N 	N 	0.10449 0.63327 0.28651 -0.14600
C 	C 	0.84675 0.98091 0.89645 0.29300
C 	C 	0.90481 0.96627 0.45682 0.29600
O 	O 	0.89715 0.97240 0.51240 -0.29400
C 	C 	0.97952 0.96028 0.72077 -0.02200
H 	H 	0.93406 0.95133 0.71154 0.03100
H 	H 	0.09443 0.59850 0.03150 0.05000
C 	C 	0.08939 0.64579 0.78777 -0.05100
C 	C 	0.07082 0.65542 0.73991 0.10200
C 	C 	0.08041 0.65535 0.68081 -0.08500
C 	C 	0.10735 0.64426 0.66796 -0.00400
C 	C 	0.12623 0.63545 0.71608 0.07000
C 	C 	0.11708 0.63649 0.77567 -0.05200
H 	H 	0.06619 0.66243 0.64388 0.05700
C 	C 	0.11410 0.63911 0.60328 -0.00400
N 	N 	0.15292 0.62560 0.70527 -0.19400
H 	H 	0.13135 0.62947 0.81258 0.04900
C 	C 	0.13027 0.65918 0.57692 -0.08700
C 	C 	0.13477 0.65616 0.51423 0.10500
C 	C 	0.12062 0.63409 0.47651 -0.05000
C 	C 	0.10282 0.61523 0.56678 0.07100
H 	H 	0.13971 0.67695 0.60542 0.05700
N 	N 	0.15345 0.67374 0.49106 -0.19800
H 	H 	0.16259 0.69090 0.51836 0.09200
H 	H 	0.16051 0.66949 0.44725 0.10200
H 	H 	0.16653 0.61874 0.74098 0.08400
H 	H 	0.16057 0.62489 0.66169 0.08800
C 	C 	0.86060 0.91247 0.96715 -0.03100
C 	C 	0.88356 0.92044 0.00982 -0.08900
C 	C 	0.88858 0.94922 0.02667 -0.02000
C 	C 	0.87454 0.96957 0.99296 -0.01100
C 	C 	0.85492 0.96117 0.94323 -0.10000
C 	C 	0.84637 0.93276 0.93376 -0.01100
H 	H 	0.85560 0.89034 0.95579 0.03100
H 	H 	0.90545 0.95573 0.06144 0.03500
H 	H 	0.83006 0.92616 0.89784 0.03700
H 	H 	0.97888 0.89887 0.83218 -0.08300
C 	C 	0.02079 0.72765 0.99874 -0.10600
C 	C 	0.04026 0.74071 0.04400 -0.00800
C 	C 	0.06766 0.72885 0.05497 0.13300
C 	C 	0.07489 0.70366 0.02242 -0.06800
C 	C 	0.05543 0.69072 0.97727 -0.06500
C 	C 	0.02839 0.70290 0.96501 0.16500
C 	C 	0.03169 0.76676 0.07954 0.01000
O 	O 	0.08688 0.74111 0.09924 -0.28300
H 	H 	0.09581 0.69437 0.03179 0.06000
O 	O 	0.00909 0.69027 0.92114 -0.28800
H 	H 	0.99978 0.73678 0.98953 0.07000
C 	C 	0.04316 0.79306 0.06813 0.12300
C 	C 	0.02961 0.81799 0.08852 -0.03200
C 	C 	0.00334 0.81684 0.11559 -0.10800
C 	C 	0.99380 0.79084 0.13330 0.19000
C 	C 	0.00824 0.76594 0.11601 -0.11500
O 	O 	0.06672 0.79443 0.03456 -0.27200
H 	H 	0.03792 0.83809 0.07736 0.07300
O 	O 	0.96982 0.78963 0.16563 -0.29200
H 	H 	0.99988 0.74583 0.12697 0.08000
H 	H 	0.01292 0.69875 0.88268 0.14500
H 	H 	0.05890 0.79454 0.99135 0.14100
H 	H 	0.95353 0.78613 0.13433 0.15500
H 	H 	0.09960 0.75290 0.07730 0.15800
C 	C 	0.98069 0.00016 0.26324 -0.03300
H 	H 	0.96829 0.98366 0.28062 -0.03600
C 	C 	0.94767 0.91129 0.37353 -0.00600
C 	C 	0.97577 0.91915 0.39579 -0.11600
C 	C 	0.97988 0.93915 0.44635 -0.00700
C 	C 	0.95624 0.95310 0.47018 -0.03500
C 	C 	0.92841 0.94698 0.44391 -0.10100
C 	C 	0.92417 0.92531 0.39717 -0.03500
H 	H 	0.94404 0.89513 0.33615 0.04200
H 	H 	0.00128 0.94435 0.46630 -0.06500
H 	H 	0.95968 0.96964 0.50686 0.03100
H 	H 	0.90270 0.92018 0.37724 0.02800
C 	C 	0.08892 0.78309 0.20888 -0.10900
C 	C 	0.07096 0.76565 0.23839 0.01500
C 	C 	0.04593 0.77704 0.26269 0.12600
C 	C 	0.04023 0.80587 0.26088 -0.03200
C 	C 	0.05952 0.82362 0.23602 -0.10900
C 	C 	0.08312 0.81190 0.20717 0.19200
C 	C 	0.08116 0.73733 0.25358 0.00200
O 	O 	0.02859 0.76067 0.29354 -0.26700
H 	H 	0.02179 0.81477 0.28264 0.06900
O 	O 	0.10118 0.82878 0.17926 -0.28600
H 	H 	0.10849 0.77471 0.19100 0.08000
C 	C 	0.06470 0.71290 0.23465 0.14200
C 	C 	0.07326 0.68680 0.25513 -0.06600
C 	C 	0.09847 0.68474 0.29335 -0.06000
C 	C 	0.11586 0.70881 0.30887 0.16500
C 	C 	0.10698 0.73497 0.28971 -0.10000
O 	O 	0.03955 0.71471 0.19884 -0.28100
H 	H 	0.05986 0.66833 0.24264 0.06500
O 	O 	0.14109 0.70694 0.34446 -0.28500
H 	H 	0.11991 0.75359 0.30401 0.07200
H 	H 	0.11641 0.83498 0.21138 0.14800
H 	H 	0.04451 0.70895 0.15660 0.15500
H 	H 	0.15601 0.70264 0.31518 0.14400
H 	H 	0.01237 0.75475 0.26357 0.16400
