data_crystal

_cell_length_a 16.52479
_cell_length_b 16.27879
_cell_length_c 88.00872
_cell_angle_alpha 90.06440
_cell_angle_beta  90.02731
_cell_angle_gamma 119.74478

_symmetry_space_group_name_	'P 1'
_symmetry_space_group_name_H-M	'P 1'

loop_
_symmetry_equiv_pos_as_xyz
  x,y,z

loop_
_atom_site_label
_atom_site_type_symbol
_atom_site_fract_x
_atom_site_fract_y
_atom_site_fract_z
_atom_site_charge
Ni	Ni	0.97054 0.12135 0.00169 1.12000
C 	C 	0.16233 0.27357 0.00607 0.28100
O 	O 	0.83478 0.02557 0.00436 -0.38800
Ni	Ni	0.97480 0.94303 0.01739 1.11500
O 	O 	0.98938 0.06472 0.01913 -0.71500
Ni	Ni	0.07790 0.15237 0.03316 1.11700
O 	O 	0.09080 0.95970 0.02956 -0.36000
O 	O 	0.14456 0.27247 0.02067 -0.37600
C 	C 	0.17006 0.03991 0.03061 0.27400
O 	O 	0.17478 0.11914 0.02632 -0.38100
H 	H 	0.34389 0.18891 0.03646 0.09100
O 	O 	0.95911 0.21971 0.01437 -0.37200
C 	C 	0.93490 0.20667 0.02894 0.26000
H 	H 	0.93184 0.04828 0.02475 0.15500
O 	O 	0.91044 0.91579 0.03849 -0.36500
H 	H 	0.03962 0.95009 0.07545 0.05200
O 	O 	0.98589 0.19315 0.03923 -0.36900
O 	O 	0.03236 0.04968 0.04968 -0.38100
H 	H 	0.15768 0.93092 0.05579 0.05100
C 	C 	0.22718 0.98505 0.05251 -0.02200
C 	C 	0.24582 0.04374 0.03996 -0.01100
C 	C 	0.28484 0.02819 0.07859 -0.09000
C 	C 	0.29824 0.03516 0.06279 0.00200
N 	N 	0.32683 0.12568 0.04204 -0.15100
C 	C 	0.35841 0.12177 0.05597 0.08000
H 	H 	0.90962 0.35278 0.03766 0.09100
C 	C 	0.94850 0.97205 0.05046 0.27200
C 	C 	0.81772 0.81374 0.07946 0.08400
C 	C 	0.75130 0.71729 0.08077 -0.08200
N 	N 	0.82065 0.86597 0.06742 -0.15200
C 	C 	0.91079 0.93353 0.06555 0.00800
C 	C 	0.96596 0.92599 0.07680 -0.03200
H 	H 	0.68178 0.68960 0.07615 0.05800
H 	H 	0.77119 0.84088 0.05867 0.09300
C 	C 	0.40997 0.20321 0.06489 -0.08500
C 	C 	0.39173 0.19692 0.08051 0.01600
H 	H 	0.45786 0.27036 0.05970 0.05600
C 	C 	0.78126 0.25997 0.04826 0.07900
C 	C 	0.78539 0.32044 0.05998 -0.08200
C 	C 	0.73617 0.27970 0.07341 0.01400
C 	C 	0.69412 0.18243 0.07584 0.08000
C 	C 	0.69639 0.12273 0.06456 -0.08100
C 	C 	0.73510 0.16232 0.05040 0.01500
N 	N 	0.85037 0.28555 0.03805 -0.15100
C 	C 	0.84967 0.20556 0.03374 0.00700
C 	C 	0.77860 0.12768 0.04109 -0.04400
H 	H 	0.83216 0.39610 0.05921 0.05700
H 	H 	0.67662 0.05008 0.06715 0.05700
H 	H 	0.78000 0.06288 0.04330 0.04700
H 	H 	0.23716 0.96124 0.08387 0.06400
C 	C 	0.33144 0.11105 0.08727 0.08300
N 	N 	0.35387 0.11184 0.10198 -0.15100
C 	C 	0.77903 0.65706 0.08743 0.01600
C 	C 	0.86783 0.69218 0.09346 0.07800
C 	C 	0.93323 0.78900 0.09270 -0.07400
C 	C 	0.90661 0.84921 0.08561 0.01500
N 	N 	0.86674 0.63585 0.10474 -0.15200
C 	C 	0.77743 0.56520 0.10602 0.01000
C 	C 	0.72068 0.57598 0.09546 -0.04800
H 	H 	0.00272 0.81643 0.09732 0.05700
H 	H 	0.64640 0.54806 0.09681 0.05800
C 	C 	0.42820 0.19822 0.10464 0.01800
C 	C 	0.45473 0.25285 0.09153 -0.04900
H 	H 	0.52494 0.30939 0.08922 0.04800
N 	N 	0.69379 0.16436 0.09080 -0.15000
C 	C 	0.73592 0.24918 0.09784 0.00400
C 	C 	0.76276 0.32240 0.08750 -0.04800
H 	H 	0.81814 0.39442 0.08940 0.05600
H 	H 	0.68981 0.10290 0.09524 0.09800
H 	H 	0.33776 0.05132 0.10831 0.09600
C 	C 	0.74215 0.50490 0.11959 0.25700
C 	C 	0.48964 0.21800 0.11772 0.25600
C 	C 	0.76532 0.26221 0.11383 0.26200
O 	O 	0.65119 0.46017 0.12248 -0.35800
O 	O 	0.82209 0.34917 0.11887 -0.36400
O 	O 	0.71949 0.19164 0.12357 -0.35600
O 	O 	0.48174 0.26568 0.12932 -0.34500
O 	O 	0.53656 0.17164 0.11901 -0.36400
H 	H 	0.66685 0.32476 0.12492 0.14700
H 	H 	0.91582 0.65821 0.11352 0.10000
Ni	Ni	0.59512 0.37234 0.14128 1.12100
Ni	Ni	0.61732 0.18532 0.13726 1.12200
Ni	Ni	0.80030 0.39152 0.13918 1.12200
O 	O 	0.80285 0.50810 0.12986 -0.36400
O 	O 	0.50067 0.15043 0.14985 -0.36600
O 	O 	0.82934 0.29556 0.14859 -0.36200
O 	O 	0.66888 0.31904 0.13601 -0.71200
O 	O 	0.96244 0.17889 0.14184 -0.08800
C 	C 	0.49667 0.20316 0.16089 0.31700
C 	C 	0.75232 0.48933 0.16284 0.32200
C 	C 	0.77355 0.22706 0.15785 0.32000
O 	O 	0.68237 0.18688 0.15666 -0.37700
O 	O 	0.55464 0.29445 0.16115 -0.34800
O 	O 	0.69047 0.48981 0.15355 -0.35700
O 	O 	0.78712 0.43321 0.16039 -0.36800
N 	N 	0.87896 0.13907 0.14757 -0.01900
O 	O 	0.80748 0.08551 0.13906 -0.09500
O 	O 	0.38114 0.31023 0.15518 -0.11300
C 	C 	0.86067 0.65655 0.16913 -0.02200
H 	H 	0.88495 0.66756 0.15747 0.06800
N 	N 	0.95101 0.82780 0.17320 -0.01800
O 	O 	0.02607 0.84543 0.16581 -0.08600
O 	O 	0.92774 0.89306 0.17439 -0.08300
O 	O 	0.18497 0.87017 0.18744 -0.08200
C 	C 	0.30003 0.17572 0.18636 -0.02400
C 	C 	0.30651 0.02966 0.18696 0.09400
C 	C 	0.37329 0.21423 0.17592 0.10600
C 	C 	0.38294 0.07000 0.17703 -0.01900
C 	C 	0.90568 0.11161 0.17400 -0.02400
C 	C 	0.79946 0.19168 0.18429 -0.02300
C 	C 	0.81376 0.18792 0.16867 -0.07300
C 	C 	0.86658 0.14690 0.16349 0.10200
H 	H 	0.94648 0.08048 0.16999 0.07800
H 	H 	0.75860 0.22271 0.18833 0.07800
C 	C 	0.41686 0.16216 0.17148 -0.07200
H 	H 	0.41507 0.02903 0.17348 0.06800
N 	N 	0.40044 0.30456 0.16934 -0.02200
O 	O 	0.43642 0.37988 0.17785 -0.09000
C 	C 	0.88996 0.73441 0.17884 0.10500
C 	C 	0.79616 0.56537 0.17410 -0.07500
O 	O 	0.88224 0.23728 0.21832 -0.08600
O 	O 	0.12912 0.07768 0.20271 -0.37700
C 	C 	0.18733 0.04490 0.20281 0.30500
O 	O 	0.18270 0.98694 0.21361 -0.33500
C 	C 	0.26568 0.08352 0.19190 -0.06700
N 	N 	0.26879 0.93322 0.19157 -0.01500
H 	H 	0.26883 0.21740 0.18999 0.06600
O 	O 	0.32112 0.90698 0.19871 -0.09100
C 	C 	0.90174 0.79823 0.20505 0.31800
C 	C 	0.93589 0.08178 0.20058 0.31500
O 	O 	0.89651 0.99042 0.20321 -0.36100
O 	O 	0.99271 0.84371 0.20614 -0.35100
O 	O 	0.00400 0.14344 0.20930 -0.36900
C 	C 	0.89223 0.11650 0.18963 -0.07100
C 	C 	0.83888 0.15688 0.19478 0.10100
N 	N 	0.82447 0.16255 0.21066 -0.02000
C 	C 	0.79224 0.62940 0.19890 -0.02400
C 	C 	0.85726 0.72069 0.19394 -0.07300
C 	C 	0.76165 0.55165 0.18907 0.10300
N 	N 	0.69487 0.45901 0.19428 -0.02200
O 	O 	0.71351 0.39029 0.19352 -0.08500
O 	O 	0.61790 0.44476 0.20063 -0.08600
O 	O 	0.74841 0.09809 0.21705 -0.10300
Ni	Ni	0.06182 0.90436 0.22619 1.11600
O 	O 	0.04157 0.15205 0.24023 -0.38300
Ni	Ni	0.08956 0.11529 0.22204 1.11900
O 	O 	0.19863 0.12119 0.23424 -0.36100
Ni	Ni	0.88348 0.93906 0.22436 1.12600
O 	O 	0.85045 0.81058 0.21526 -0.36600
O 	O 	0.88523 0.05459 0.23381 -0.36000
O 	O 	0.01303 0.98704 0.22765 -0.71100
H 	H 	0.01503 0.99567 0.23873 0.15300
H 	H 	0.76773 0.61826 0.21055 0.07300
O 	O 	0.14432 0.97270 0.24476 -0.34800
C 	C 	0.18951 0.06598 0.24606 0.24600
C 	C 	0.95134 0.11879 0.24287 0.27300
O 	O 	0.95134 0.80690 0.23975 -0.35100
O 	O 	0.85849 0.87281 0.24474 -0.36000
N 	N 	0.84060 0.16338 0.25398 -0.14600
C 	C 	0.92551 0.17042 0.25369 0.01000
H 	H 	0.77813 0.10205 0.25133 0.10400
C 	C 	0.24985 0.10713 0.25927 0.01900
N 	N 	0.29923 0.06840 0.26497 -0.15200
H 	H 	0.33620 0.04429 0.25846 0.09500
C 	C 	0.90813 0.83410 0.24958 0.25800
C 	C 	0.84827 0.23307 0.26317 0.09000
C 	C 	0.77347 0.22579 0.27178 -0.08200
C 	C 	0.98934 0.24724 0.26218 -0.02900
H 	H 	0.70234 0.18494 0.26775 0.06100
H 	H 	0.05438 0.25596 0.26659 0.04400
C 	C 	0.93986 0.28676 0.26840 0.01000
H 	H 	0.20670 0.20409 0.26896 0.05000
C 	C 	0.22948 0.15285 0.27072 -0.05500
C 	C 	0.27101 0.14364 0.28377 0.01600
C 	C 	0.31363 0.09134 0.27976 0.07800
C 	C 	0.39199 0.10203 0.28770 -0.08100
H 	H 	0.42531 0.06146 0.28462 0.05500
N 	N 	0.99428 0.81963 0.27157 -0.14400
C 	C 	0.92709 0.83534 0.26596 0.00800
C 	C 	0.90172 0.88120 0.27665 -0.04900
H 	H 	0.83793 0.88464 0.27636 0.05700
H 	H 	0.01202 0.77118 0.26709 0.09000
C 	C 	0.79371 0.26985 0.28603 0.01200
C 	C 	0.95941 0.33151 0.28261 -0.07200
C 	C 	0.74290 0.30502 0.29317 -0.04000
H 	H 	0.66765 0.26812 0.29408 0.05100
H 	H 	0.03031 0.37202 0.28676 0.05000
H 	H 	0.06882 0.76796 0.29458 0.05500
H 	H 	0.27432 0.25215 0.29857 0.05500
C 	C 	0.30669 0.21061 0.29554 -0.08400
C 	C 	0.77403 0.39394 0.31760 0.28100
O 	O 	0.70179 0.40717 0.31793 -0.37500
C 	C 	0.38588 0.22192 0.30323 0.07900
C 	C 	0.42813 0.17009 0.29922 0.01100
N 	N 	0.40665 0.25193 0.31766 -0.15300
C 	C 	0.46560 0.22274 0.32283 0.00300
C 	C 	0.47644 0.16727 0.31179 -0.04300
H 	H 	0.53195 0.15016 0.31150 0.05000
C 	C 	0.00934 0.85120 0.28604 0.06700
C 	C 	0.03783 0.81100 0.29748 -0.06800
C 	C 	0.92155 0.88749 0.30440 -0.08900
C 	C 	0.95350 0.89042 0.28954 0.02700
H 	H 	0.86523 0.90184 0.30661 0.05800
C 	C 	0.88435 0.32194 0.29128 0.07600
N 	N 	0.89127 0.38666 0.30143 -0.15000
C 	C 	0.80472 0.37482 0.30310 0.00300
H 	H 	0.94639 0.42196 0.30908 0.09500
C 	C 	0.54084 0.28063 0.33357 0.26900
Ni	Ni	0.68065 0.48186 0.33456 1.12100
O 	O 	0.80906 0.58680 0.32989 -0.38200
O 	O 	0.80819 0.38080 0.33021 -0.37100
O 	O 	0.60366 0.25420 0.33694 -0.36400
O 	O 	0.55465 0.36577 0.33700 -0.38100
H 	H 	0.39803 0.30591 0.32244 0.09100
C 	C 	0.01484 0.81823 0.31262 -0.00500
C 	C 	0.95604 0.85414 0.31603 0.09200
N 	N 	0.90586 0.81181 0.32857 -0.15100
C 	C 	0.92936 0.74689 0.33302 -0.00000
C 	C 	0.99866 0.75081 0.32355 -0.02200
H 	H 	0.00997 0.69142 0.32166 0.04500
H 	H 	0.84128 0.80623 0.33094 0.09000
C 	C 	0.05721 0.46315 0.39516 0.00400
C 	C 	0.09952 0.59490 0.41823 0.01500
C 	C 	0.11829 0.62635 0.40315 -0.08400
H 	H 	0.37448 0.38088 0.40207 0.05600
C 	C 	0.38060 0.51014 0.40984 0.08000
H 	H 	0.14687 0.70054 0.40044 0.05500
C 	C 	0.38715 0.45067 0.39896 -0.08200
C 	C 	0.09307 0.55834 0.39158 0.07900
H 	H 	0.93920 0.34073 0.38480 0.05200
C 	C 	0.99775 0.41166 0.38345 -0.03400
C 	C 	0.68888 0.34096 0.38274 0.25700
C 	C 	0.91775 0.45718 0.36372 0.28100
C 	C 	0.85855 0.65619 0.33934 0.28300
C 	C 	0.62083 0.54451 0.36205 0.26000
Ni	Ni	0.72833 0.32882 0.34964 1.11300
Ni	Ni	0.78951 0.53038 0.36621 1.11900
O 	O 	0.66245 0.28575 0.37049 -0.36600
O 	O 	0.76193 0.42869 0.38245 -0.36500
O 	O 	0.67908 0.54311 0.37230 -0.37200
O 	O 	0.85066 0.36909 0.36200 -0.36500
O 	O 	0.90457 0.52678 0.35958 -0.38000
O 	O 	0.64475 0.56253 0.34751 -0.37300
O 	O 	0.83555 0.65022 0.35380 -0.37400
O 	O 	0.71418 0.43570 0.35186 -0.71500
H 	H 	0.65471 0.40674 0.35742 0.15700
C 	C 	0.45832 0.58398 0.38155 0.07900
C 	C 	0.45900 0.64509 0.39287 -0.08100
C 	C 	0.41437 0.60560 0.40668 0.01400
C 	C 	0.42082 0.48776 0.38446 0.01500
N 	N 	0.52567 0.61226 0.37095 -0.15100
C 	C 	0.53260 0.53555 0.36717 0.00800
C 	C 	0.46816 0.45691 0.37526 -0.04600
C 	C 	0.44060 0.65291 0.42043 -0.04000
H 	H 	0.50004 0.72113 0.39150 0.05700
H 	H 	0.47719 0.39690 0.37791 0.04700
H 	H 	0.49205 0.72708 0.42172 0.05600
H 	H 	0.58046 0.68186 0.36991 0.09100
N 	N 	0.05873 0.56654 0.37816 -0.15400
C 	C 	0.99908 0.47770 0.37325 0.00200
H 	H 	0.05478 0.62630 0.37495 0.08800
C 	C 	0.49125 0.09629 0.41854 -0.07900
C 	C 	0.56502 0.16023 0.40943 0.01200
C 	C 	0.65665 0.19594 0.41374 0.08100
N 	N 	0.71141 0.27894 0.40681 -0.15100
C 	C 	0.65523 0.29496 0.39750 0.01100
C 	C 	0.56261 0.22423 0.39948 -0.04600
H 	H 	0.41948 0.06854 0.41503 0.05300
H 	H 	0.50635 0.20808 0.39158 0.04800
H 	H 	0.78345 0.30886 0.40547 0.09400
H 	H 	0.20850 0.71848 0.43004 0.05000
C 	C 	0.15056 0.64670 0.43066 -0.04300
C 	C 	0.06446 0.50023 0.42179 0.08100
C 	C 	0.04306 0.43260 0.41033 -0.08000
H 	H 	0.01469 0.35852 0.41310 0.05400
C 	C 	0.14340 0.58047 0.44132 0.01500
N 	N 	0.09132 0.49161 0.43584 -0.14800
N 	N 	0.38465 0.49748 0.42489 -0.15000
H 	H 	0.38763 0.44040 0.42973 0.09400
C 	C 	0.42146 0.58402 0.43130 0.00600
C 	C 	0.51357 0.06536 0.43197 0.07100
C 	C 	0.67991 0.16784 0.42733 -0.08400
C 	C 	0.60649 0.10182 0.43641 0.02400
N 	N 	0.46092 0.97727 0.43748 -0.14700
H 	H 	0.75197 0.19514 0.43061 0.06300
H 	H 	0.39596 0.92710 0.43315 0.09200
C 	C 	0.21201 0.60322 0.45344 0.28400
H 	H 	0.09665 0.43344 0.43954 0.09700
O 	O 	0.26365 0.56275 0.45346 -0.37500
C 	C 	0.45667 0.60424 0.44699 0.27900
O 	O 	0.51787 0.69123 0.45085 -0.37500
O 	O 	0.41549 0.53958 0.45753 -0.37300
C 	C 	0.51956 0.95625 0.44499 0.01200
C 	C 	0.61003 0.03207 0.44487 -0.04900
H 	H 	0.67204 0.02675 0.44677 0.05700
O 	O 	0.99118 0.38470 0.48326 -0.08000
N 	N 	0.02270 0.47086 0.48807 -0.02000
O 	O 	0.02286 0.53406 0.47902 -0.08600
C 	C 	0.21676 0.58768 0.49637 0.30300
O 	O 	0.21684 0.53001 0.48552 -0.34900
O 	O 	0.21561 0.65771 0.46470 -0.35500
O 	O 	0.26859 0.68131 0.49541 -0.35500
Ni	Ni	0.33851 0.75132 0.47581 1.11600
Ni	Ni	0.32687 0.54804 0.47220 1.12300
C 	C 	0.48806 0.86951 0.45396 0.27600
C 	C 	0.51298 0.85955 0.49606 0.30400
C 	C 	0.48219 0.56867 0.49168 0.29500
Ni	Ni	0.52733 0.73842 0.47223 1.12300
O 	O 	0.39853 0.80979 0.45508 -0.37300
O 	O 	0.54749 0.86245 0.46310 -0.36500
O 	O 	0.39046 0.51942 0.48928 -0.35500
O 	O 	0.53950 0.62987 0.48134 -0.36800
O 	O 	0.44945 0.86417 0.48734 -0.35900
O 	O 	0.54980 0.80567 0.49245 -0.36300
O 	O 	0.39736 0.67902 0.47678 -0.72200
H 	H 	0.40076 0.67400 0.48790 0.16400
C 	C 	0.61528 0.55624 0.50294 -0.02600
C 	C 	0.52282 0.53815 0.50411 -0.06200
H 	H 	0.65767 0.59479 0.49327 0.07500
N 	N 	0.74653 0.54074 0.51246 -0.02300
O 	O 	0.76296 0.47075 0.51117 -0.08800
O 	O 	0.81469 0.62729 0.51120 -0.08900
H 	H 	0.65479 0.03535 0.49139 0.06900
O 	O 	0.70926 0.25988 0.50790 -0.09000
C 	C 	0.09545 0.54486 0.53425 0.11200
C 	C 	0.04803 0.49354 0.50368 0.09400
C 	C 	0.16560 0.57320 0.52325 -0.02900
C 	C 	0.14261 0.54832 0.50796 -0.05700
H 	H 	0.23798 0.61643 0.52657 0.09000
O 	O 	0.47569 0.75571 0.52659 -0.08700
O 	O 	0.38247 0.81251 0.53398 -0.09400
C 	C 	0.66019 0.16440 0.53886 0.30700
C 	C 	0.92675 0.45603 0.54144 0.31300
C 	C 	0.63572 0.43420 0.53821 0.30400
O 	O 	0.75122 0.21471 0.54173 -0.35600
O 	O 	0.59663 0.16708 0.54792 -0.37300
O 	O 	0.59209 0.34126 0.54074 -0.37200
O 	O 	0.69816 0.49696 0.54791 -0.36000
O 	O 	0.87681 0.49946 0.54267 -0.35100
H 	H 	0.73983 0.34979 0.54651 0.16000
C 	C 	0.50600 0.45259 0.52772 -0.02200
C 	C 	0.59752 0.46946 0.52635 -0.06700
C 	C 	0.65277 0.52244 0.51399 0.10000
C 	C 	0.46897 0.48820 0.51691 0.09900
N 	N 	0.37798 0.47610 0.51925 -0.01800
H 	H 	0.46414 0.41381 0.53742 0.06800
O 	O 	0.30628 0.39147 0.52034 -0.09400
O 	O 	0.36799 0.54941 0.52165 -0.08900
C 	C 	0.56109 0.99412 0.53276 -0.01300
C 	C 	0.62772 0.08544 0.52805 -0.08000
C 	C 	0.66321 0.09997 0.51315 0.10400
C 	C 	0.62973 0.02358 0.50301 -0.03300
C 	C 	0.56016 0.93325 0.50756 -0.06000
C 	C 	0.52724 0.91807 0.52259 0.09300
N 	N 	0.45878 0.82551 0.52754 -0.02400
H 	H 	0.53585 0.98209 0.54437 0.07100
N 	N 	0.73027 0.19274 0.50807 -0.02300
O 	O 	0.80948 0.20811 0.50250 -0.09000
C 	C 	0.97799 0.46413 0.51471 -0.00300
C 	C 	0.00104 0.49002 0.52995 -0.08300
H 	H 	0.90558 0.42138 0.51139 0.08300
N 	N 	0.12027 0.57341 0.54974 -0.02000
O 	O 	0.17773 0.55366 0.55678 -0.08700
O 	O 	0.09166 0.62583 0.55637 -0.09100
H 	H 	0.32178 0.93453 0.60781 0.05800
C 	C 	0.88057 0.43693 0.58582 0.27600
C 	C 	0.63198 0.15054 0.57941 0.28400
C 	C 	0.64495 0.42029 0.58336 0.28000
Ni	Ni	0.80536 0.28711 0.56198 1.11600
Ni	Ni	0.79321 0.48215 0.56072 1.12500
Ni	Ni	0.60602 0.28023 0.55972 1.12100
O 	O 	0.73044 0.48523 0.58004 -0.37500
O 	O 	0.84707 0.34616 0.58345 -0.36100
O 	O 	0.89795 0.49430 0.57427 -0.35300
O 	O 	0.70571 0.16113 0.57206 -0.36400
O 	O 	0.61038 0.21783 0.57932 -0.38300
O 	O 	0.92572 0.39843 0.55222 -0.34900
O 	O 	0.58632 0.37101 0.57250 -0.37900
O 	O 	0.73684 0.34884 0.55769 -0.71900
C 	C 	0.52236 0.35068 0.61858 0.07800
N 	N 	0.53189 0.33267 0.60395 -0.15000
C 	C 	0.61448 0.40483 0.59929 0.00400
C 	C 	0.65935 0.46933 0.61092 -0.04000
H 	H 	0.71079 0.54307 0.60922 0.05700
H 	H 	0.47650 0.28996 0.59672 0.09100
N 	N 	0.92312 0.56455 0.60485 -0.15000
C 	C 	0.88776 0.47219 0.60142 0.01000
H 	H 	0.97684 0.62039 0.59886 0.10200
C 	C 	0.44141 0.94467 0.59582 0.08800
C 	C 	0.37275 0.91123 0.60720 -0.08000
C 	C 	0.44177 0.82277 0.61779 0.08400
C 	C 	0.50788 0.85188 0.60614 -0.07800
C 	C 	0.50649 0.91345 0.59509 0.01600
N 	N 	0.47764 0.03193 0.58981 -0.15200
C 	C 	0.56516 0.05681 0.58544 -0.00500
C 	C 	0.58553 0.98529 0.58836 -0.02900
H 	H 	0.55961 0.82950 0.60586 0.06100
H 	H 	0.65527 0.99605 0.58978 0.05500
H 	H 	0.45466 0.07982 0.59229 0.08900
C 	C 	0.30311 0.78670 0.62692 -0.04000
C 	C 	0.43495 0.32021 0.62533 -0.08100
C 	C 	0.42826 0.37990 0.63606 0.01400
C 	C 	0.59319 0.49238 0.63449 -0.08200
C 	C 	0.60061 0.43478 0.62331 0.01400
H 	H 	0.37402 0.25522 0.62176 0.05500
C 	C 	0.90205 0.56810 0.61954 0.07600
C 	C 	0.84987 0.47688 0.62535 0.01400
C 	C 	0.84004 0.41552 0.61370 -0.04200
H 	H 	0.01020 0.71153 0.62445 0.04900
H 	H 	0.82274 0.34250 0.61512 0.05600
C 	C 	0.37638 0.85153 0.61825 0.01400
N 	N 	0.41324 0.74357 0.62597 -0.15200
H 	H 	0.45774 0.72062 0.63023 0.09000
C 	C 	0.02987 0.67671 0.65448 -0.04800
H 	H 	0.09490 0.73753 0.65098 0.05400
O 	O 	0.22602 0.60902 0.65033 -0.36700
H 	H 	0.25211 0.80043 0.63233 0.04900
C 	C 	0.30773 0.68687 0.64778 0.26000
O 	O 	0.28359 0.47043 0.65804 -0.37600
C 	C 	0.33040 0.72323 0.63226 0.01200
C 	C 	0.95498 0.62706 0.64483 0.01900
C 	C 	0.50487 0.46304 0.64060 0.08100
N 	N 	0.48988 0.48998 0.65425 -0.15400
C 	C 	0.40137 0.42568 0.65825 0.00800
C 	C 	0.36293 0.35316 0.64744 -0.04300
H 	H 	0.65326 0.55825 0.63800 0.05800
H 	H 	0.28913 0.30446 0.64594 0.05200
H 	H 	0.52682 0.55915 0.65844 0.08800
C 	C 	0.95875 0.64403 0.62913 -0.07200
C 	C 	0.90516 0.53537 0.65056 0.07700
C 	C 	0.85478 0.45831 0.64076 -0.08200
H 	H 	0.82799 0.38643 0.64473 0.05600
C 	C 	0.02331 0.61294 0.66561 -0.00800
C 	C 	0.10671 0.62098 0.67310 0.28000
O 	O 	0.10742 0.54383 0.67702 -0.38600
O 	O 	0.18522 0.70217 0.67260 -0.36500
O 	O 	0.14439 0.39197 0.68015 -0.37800
Ni	Ni	0.19763 0.51055 0.66718 1.11900
Ni	Ni	0.31214 0.72383 0.68131 1.11400
O 	O 	0.29753 0.60185 0.67919 -0.71600
O 	O 	0.35590 0.74609 0.65892 -0.36300
H 	H 	0.34952 0.61735 0.67216 0.15600
N 	N 	0.94627 0.52787 0.66328 -0.14600
H 	H 	0.93806 0.46384 0.66736 0.09100
C 	C 	0.34270 0.45562 0.66624 0.26000
O 	O 	0.33813 0.45081 0.68137 -0.37400
H 	H 	0.01242 0.37211 0.71673 0.05000
C 	C 	0.01831 0.30977 0.71448 -0.04600
C 	C 	0.06201 0.20493 0.72064 0.07400
C 	C 	0.07557 0.30574 0.70325 0.00200
N 	N 	0.09953 0.23989 0.70693 -0.15000
C 	C 	0.14161 0.39182 0.69511 0.28200
O 	O 	0.25533 0.70344 0.70287 -0.36800
O 	O 	0.20546 0.46239 0.70300 -0.38700
H 	H 	0.15949 0.24101 0.70283 0.08800
Ni	Ni	0.33374 0.54944 0.69520 1.11900
C 	C 	0.49618 0.73942 0.69373 0.27000
O 	O 	0.44883 0.78333 0.69001 -0.36000
O 	O 	0.46537 0.64961 0.69024 -0.38100
N 	N 	0.62073 0.74326 0.70975 -0.15100
C 	C 	0.57681 0.78794 0.70400 0.00600
H 	H 	0.60553 0.67510 0.70660 0.09000
C 	C 	0.01050 0.24642 0.72563 0.01900
H 	H 	0.09159 0.59173 0.72142 0.09100
C 	C 	0.27488 0.66118 0.71375 0.28100
O 	O 	0.34026 0.63864 0.71194 -0.37900
C 	C 	0.65329 0.78113 0.72355 0.07900
C 	C 	0.58405 0.85719 0.71408 -0.04100
H 	H 	0.53459 0.88257 0.71457 0.05400
C 	C 	0.80169 0.93471 0.00141 0.27600
O 	O 	0.84914 0.89034 0.00490 -0.36000
H 	H 	0.15878 0.43234 0.99860 0.08900
C 	C 	0.23565 0.36016 0.99904 0.00200
N 	N 	0.21847 0.43045 0.99518 -0.15100
O 	O 	0.97981 0.11517 0.79444 -0.33500
H 	H 	0.95773 0.79305 0.93783 0.07100
C 	C 	0.01226 0.81063 0.79125 0.25800
N 	N 	0.02726 0.21423 0.76614 -0.15800
C 	C 	0.01395 0.94078 0.95902 -0.05600
O 	O 	0.96314 0.19857 0.88595 -0.08100
C 	C 	0.00348 0.26146 0.74120 -0.09900
H 	H 	0.98964 0.10601 0.85848 0.08300
C 	C 	0.04942 0.63697 0.75021 -0.09100
C 	C 	0.04493 0.75288 0.78339 -0.00000
C 	C 	0.03480 0.10310 0.78471 0.24700
C 	C 	0.01134 0.84691 0.83259 0.30700
C 	C 	0.05618 0.66419 0.76548 0.00200
C 	C 	0.02488 0.11992 0.82849 0.30400
C 	C 	0.06229 0.15846 0.77053 0.02100
C 	C 	0.00092 0.73627 0.85325 0.09100
C 	C 	0.05245 0.23671 0.75152 0.08800
Ni	Ni	0.05897 0.99020 0.80901 1.12100
O 	O 	0.07350 0.88317 0.79974 -0.37000
C 	C 	0.02511 0.82194 0.94332 -0.09500
O 	O 	0.07981 0.05760 0.78878 -0.36300
O 	O 	0.08048 0.11411 0.81839 -0.35900
O 	O 	0.04553 0.93788 0.83009 -0.38000
C 	C 	0.06484 0.90929 0.95087 0.02700
C 	C 	0.07164 0.99556 0.97080 0.01900
H 	H 	0.02753 0.70516 0.92167 0.09900
C 	C 	0.05562 0.81615 0.84412 -0.06800
C 	C 	0.04401 0.69745 0.86215 -0.01900
H 	H 	0.00169 0.63677 0.86929 0.05900
C 	C 	0.07146 0.25101 0.86573 0.10600
C 	C 	0.03638 0.17820 0.85492 -0.04100
C 	C 	0.06309 0.19773 0.83965 -0.06800
N 	N 	0.04809 0.22851 0.88139 -0.02400
C 	C 	0.13229 0.66886 0.74205 0.08400
C 	C 	0.14286 0.72138 0.77230 0.08700
N 	N 	0.14107 0.62299 0.73007 -0.15200
N 	N 	0.13518 0.77467 0.78327 -0.14900
O 	O 	0.08530 0.30783 0.80983 -0.09500
C 	C 	0.10349 0.19534 0.74656 0.01200
C 	C 	0.10951 0.14426 0.75863 -0.04600
C 	C 	0.07550 0.77350 0.94288 0.08400
O 	O 	0.10919 0.22884 0.89074 -0.09300
N 	N 	0.07097 0.71873 0.93109 -0.15300
H 	H 	0.13004 0.50252 0.94458 0.05400
C 	C 	0.12427 0.29181 0.83510 0.09700
O 	O 	0.11470 0.42648 0.88274 -0.35600
H 	H 	0.11945 0.08355 0.75754 0.05300
N 	N 	0.14797 0.31413 0.81944 -0.01800
C 	C 	0.10555 0.17428 0.73117 -0.08100
C 	C 	0.13255 0.34514 0.86119 -0.07800
H 	H 	0.19052 0.83858 0.78720 0.09900
O 	O 	0.11738 0.46803 0.91315 -0.36000
C 	C 	0.15315 0.85852 0.84453 -0.02500
N 	N 	0.15525 0.99966 0.96995 -0.14900
C 	C 	0.14142 0.73872 0.86234 -0.07500
O 	O 	0.12961 0.64887 0.90585 -0.37200
C 	C 	0.15119 0.94637 0.95798 0.07800
C 	C 	0.15936 0.36469 0.84592 -0.02200
Ni	Ni	0.13822 0.54594 0.89405 1.12200
C 	C 	0.21803 0.72550 0.74877 0.01200
O 	O 	0.15117 0.61010 0.87401 -0.38100
C 	C 	0.22569 0.75068 0.76411 -0.08000
C 	C 	0.17043 0.42287 0.87239 0.31700
H 	H 	0.19551 0.91908 0.83738 0.06400
C 	C 	0.23305 0.65242 0.72869 0.00400
C 	C 	0.18898 0.49084 0.94378 -0.04900
C 	C 	0.19625 0.81976 0.85345 0.10300
H 	H 	0.14495 0.14119 0.72738 0.05400
C 	C 	0.17327 0.43412 0.91674 0.26200
C 	C 	0.16137 0.81014 0.95013 0.01200
C 	C 	0.15384 0.72099 0.93060 0.00900
H 	H 	0.19986 0.01380 0.97923 0.09000
H 	H 	0.20609 0.43688 0.84237 0.07200
O 	O 	0.23401 0.34907 0.81508 -0.09000
C 	C 	0.18550 0.70219 0.87290 0.31900
C 	C 	0.20046 0.43654 0.93273 0.00500
C 	C 	0.18983 0.70226 0.91654 0.26100
C 	C 	0.20174 0.89813 0.95745 -0.07800
C 	C 	0.28258 0.71338 0.74059 -0.03800
O 	O 	0.22026 0.41841 0.90599 -0.34400
C 	C 	0.24706 0.49838 0.95568 0.01500
H 	H 	0.29314 0.79476 0.76933 0.06200
C 	C 	0.21152 0.77654 0.94233 -0.04600
O 	O 	0.26096 0.47847 0.87329 -0.36900
N 	N 	0.29550 0.86094 0.85303 -0.02200
O 	O 	0.33250 0.81115 0.84835 -0.08200
N 	N 	0.26530 0.41404 0.93714 -0.15100
O 	O 	0.24744 0.76092 0.88279 -0.35900
O 	O 	0.26911 0.60224 0.89734 -0.71100
H 	H 	0.26879 0.60231 0.90849 0.14500
C 	C 	0.29254 0.44974 0.95123 0.07900
H 	H 	0.26918 0.92703 0.96292 0.05700
H 	H 	0.35697 0.76232 0.74064 0.05000
H 	H 	0.27385 0.36000 0.93237 0.09600
O 	O 	0.28063 0.75277 0.91369 -0.37100
C 	C 	0.32318 0.40819 0.96206 -0.08200
H 	H 	0.28699 0.81180 0.94206 0.05800
Ni	Ni	0.32791 0.52997 0.89391 1.11500
O 	O 	0.34867 0.95033 0.85608 -0.08500
H 	H 	0.34604 0.35905 0.95861 0.05700
C 	C 	0.99352 0.68449 0.77258 -0.01700
N 	N 	0.90168 0.69555 0.85376 -0.01700
O 	O 	0.86517 0.74753 0.85747 -0.07900
H 	H 	0.93847 0.90312 0.95960 0.06400
H 	H 	0.98230 0.59339 0.74486 0.06600
O 	O 	0.93436 0.06602 0.82735 -0.36100
H 	H 	0.96418 0.29449 0.74508 0.07000
C 	C 	0.74552 0.85293 0.82885 0.31900
C 	C 	0.75222 0.84329 0.78605 0.25800
Ni	Ni	0.87097 0.00579 0.80684 1.11300
Ni	Ni	0.86078 0.80248 0.80994 1.12800
O 	O 	0.95003 0.78326 0.82320 -0.35200
O 	O 	0.74960 0.91371 0.81863 -0.35900
O 	O 	0.80844 0.82629 0.82916 -0.35600
O 	O 	0.92094 0.77792 0.79204 -0.36900
O 	O 	0.79568 0.93670 0.78761 -0.36000
O 	O 	0.74922 0.78729 0.79736 -0.34800
O 	O 	0.92934 0.93251 0.80504 -0.71400
H 	H 	0.93045 0.92722 0.79390 0.15900
C 	C 	0.43674 0.67781 0.91715 0.25700
C 	C 	0.45264 0.69499 0.87356 0.31700
Ni	Ni	0.33772 0.73543 0.89465 1.12700
O 	O 	0.40617 0.58843 0.91337 -0.35800
O 	O 	0.44681 0.74143 0.90672 -0.35000
O 	O 	0.44818 0.62845 0.88259 -0.35900
O 	O 	0.39144 0.72394 0.87458 -0.35400
C 	C 	0.64741 0.79194 0.97283 0.08100
C 	C 	0.57930 0.70694 0.96636 -0.08200
C 	C 	0.51556 0.71079 0.95624 0.01500
C 	C 	0.52035 0.79674 0.95265 0.07900
C 	C 	0.58695 0.88112 0.95959 -0.07800
C 	C 	0.65103 0.87671 0.96948 0.01200
N 	N 	0.48874 0.79369 0.93843 -0.15300
C 	C 	0.46521 0.70728 0.93292 0.01100
C 	C 	0.48008 0.65358 0.94361 -0.04400
H 	H 	0.57627 0.64048 0.96899 0.05700
H 	H 	0.59060 0.94790 0.95700 0.05900
H 	H 	0.49120 0.59496 0.94091 0.05700
H 	H 	0.50591 0.85310 0.93172 0.09900
O 	O 	0.84803 0.60516 0.85161 -0.08400
C 	C 	0.64691 0.87198 0.84830 -0.02000
C 	C 	0.66784 0.81205 0.83979 -0.07000
C 	C 	0.61644 0.71342 0.84216 0.10600
C 	C 	0.54658 0.67617 0.85324 -0.02000
C 	C 	0.52639 0.73607 0.86192 -0.06900
C 	C 	0.57749 0.83480 0.85950 0.10600
N 	N 	0.56212 0.89781 0.86885 -0.02200
H 	H 	0.68677 0.94787 0.84661 0.07300
H 	H 	0.50686 0.60025 0.85492 0.07100
N 	N 	0.63304 0.65064 0.83299 -0.02500
O 	O 	0.57744 0.90163 0.88340 -0.10100
O 	O 	0.54233 0.95812 0.86261 -0.07900
O 	O 	0.65965 0.59580 0.83932 -0.08400
O 	O 	0.61259 0.64150 0.81860 -0.09900
C 	C 	0.61814 0.81332 0.75325 0.08200
C 	C 	0.61219 0.86805 0.74149 -0.08200
C 	C 	0.63124 0.85163 0.72662 0.01500
C 	C 	0.66365 0.72945 0.73543 -0.08300
C 	C 	0.64360 0.74545 0.75026 0.01700
N 	N 	0.64217 0.84606 0.76750 -0.15100
C 	C 	0.68479 0.80125 0.77361 0.02200
C 	C 	0.68716 0.73803 0.76321 -0.04600
H 	H 	0.59282 0.92138 0.74382 0.05700
H 	H 	0.68290 0.67602 0.73312 0.05700
H 	H 	0.73948 0.71636 0.76321 0.05200
H 	H 	0.65268 0.91180 0.77117 0.09800
H 	H 	0.97036 0.21473 0.77124 0.10600
H 	H 	0.93001 0.67522 0.76739 0.05000
O 	O 	0.97136 0.03191 0.98560 -0.37000
C 	C 	0.03407 0.00481 0.98537 0.25700
H 	H 	0.17742 0.52556 0.97420 0.05500
C 	C 	0.22695 0.50331 0.97101 -0.08200
C 	C 	0.26282 0.46703 0.98196 0.07800
C 	C 	0.31208 0.42205 0.97752 0.01300
H 	H 	0.29929 0.29134 0.98636 0.05200
N 	N 	0.68757 0.79744 0.98636 -0.15100
C 	C 	0.71892 0.88645 0.99161 0.00300
C 	C 	0.69356 0.93629 0.98161 -0.03300
H 	H 	0.72339 0.01242 0.98134 0.04400
H 	H 	0.70943 0.75075 0.99015 0.09300
O 	O 	0.05325 0.97268 0.99771 -0.36000
O 	O 	0.10597 0.20408 0.99716 -0.38900
C 	C 	0.29598 0.35520 0.98854 -0.04300
