data_crystal

_cell_length_a 33.19149
_cell_length_b 33.28060
_cell_length_c 26.61308
_cell_angle_alpha 90.00343
_cell_angle_beta  90.00091
_cell_angle_gamma 90.00774

_symmetry_space_group_name_	'P 1'
_symmetry_space_group_name_H-M	'P 1'

loop_
_symmetry_equiv_pos_as_xyz
  x,y,z

loop_
_atom_site_label
_atom_site_type_symbol
_atom_site_fract_x
_atom_site_fract_y
_atom_site_fract_z
_atom_site_charge
Zn	Zn	0.60176 0.07982 0.71166 1.20400
Zn	Zn	0.54164 0.01677 0.67268 1.21800
Zn	Zn	0.54595 0.14295 0.65887 1.22000
P 	P 	0.51442 0.08603 0.73222 0.31100
P 	P 	0.58275 0.07458 0.60664 0.31200
C 	C 	0.48674 0.18972 0.61304 0.26200
C 	C 	0.61418 0.16205 0.72546 0.31400
C 	C 	0.61133 0.99890 0.73755 0.29600
O 	O 	0.55570 0.07162 0.75644 -0.45100
O 	O 	0.61552 0.09277 0.64321 -0.44200
O 	O 	0.50387 0.06015 0.68347 -0.42600
O 	O 	0.54110 0.09750 0.61404 -0.43800
O 	O 	0.51643 0.13294 0.71956 -0.42100
O 	O 	0.57828 0.02741 0.61701 -0.41900
O 	O 	0.52253 0.19166 0.63391 -0.41200
O 	O 	0.45629 0.99546 0.65037 -0.24600
O 	O 	0.47070 0.15448 0.60337 -0.24800
O 	O 	0.60080 0.16427 0.67871 -0.43400
O 	O 	0.57179 0.99723 0.73318 -0.43000
O 	O 	0.62333 0.12697 0.74498 -0.43400
O 	O 	0.63097 0.02939 0.71830 -0.44000
C 	C 	0.48044 0.96553 0.63903 0.29400
O 	O 	0.51765 0.96615 0.65557 -0.41600
Zn	Zn	0.35292 0.87476 0.27658 1.20000
Zn	Zn	0.40717 0.91492 0.35382 1.21500
Zn	Zn	0.42692 0.88394 0.20406 1.22200
P 	P 	0.43160 0.84079 0.29950 0.30600
P 	P 	0.39252 0.95301 0.25747 0.29700
C 	C 	0.50458 0.87736 0.16761 0.29200
C 	C 	0.34958 0.84826 0.17428 0.32200
C 	C 	0.32251 0.89145 0.37300 0.28500
O 	O 	0.38575 0.83539 0.31502 -0.42600
O 	O 	0.35510 0.92624 0.24158 -0.44000
O 	O 	0.44716 0.88409 0.31661 -0.42700
O 	O 	0.43365 0.93030 0.24595 -0.44400
O 	O 	0.43486 0.83468 0.24019 -0.41700
O 	O 	0.38970 0.96296 0.31631 -0.40700
O 	O 	0.46715 0.88120 0.15208 -0.41600
O 	O 	0.45428 0.87096 0.42698 -0.24700
O 	O 	0.51157 0.86994 0.21531 -0.24800
O 	O 	0.37496 0.87821 0.16569 -0.43900
O 	O 	0.36039 0.88467 0.38509 -0.42800
O 	O 	0.33640 0.84098 0.22018 -0.44000
O 	O 	0.31130 0.88907 0.32581 -0.42700
C 	C 	0.44553 0.90649 0.44542 0.26800
O 	O 	0.42689 0.93302 0.41735 -0.41200
Zn	Zn	0.71362 0.90838 0.01663 1.21200
Zn	Zn	0.74764 0.84753 0.93324 1.21700
Zn	Zn	0.62917 0.88318 0.97196 1.22100
P 	P 	0.68784 0.82538 0.01346 0.30400
P 	P 	0.69305 0.91269 0.90807 0.31900
C 	C 	0.55858 0.87856 0.91589 0.29600
C 	C 	0.63964 0.93491 0.05547 0.28400
C 	C 	0.79705 0.90087 0.99743 0.25700
O 	O 	0.71987 0.85365 0.03994 -0.43700
O 	O 	0.69717 0.93856 0.95787 -0.45100
O 	O 	0.69922 0.81875 0.95554 -0.42900
O 	O 	0.66173 0.87683 0.91392 -0.44600
O 	O 	0.64312 0.84273 0.02034 -0.42500
O 	O 	0.73606 0.89506 0.89301 -0.41100
O 	O 	0.57226 0.87881 0.96209 -0.42500
O 	O 	0.72588 0.78995 0.85391 -0.24900
O 	O 	0.57836 0.89779 0.88064 -0.24900
O 	O 	0.63136 0.93560 0.00730 -0.43300
O 	O 	0.78803 0.86305 0.98675 -0.43000
O 	O 	0.67725 0.92928 0.06924 -0.41500
O 	O 	0.76919 0.92526 0.01495 -0.41000
C 	C 	0.76523 0.79402 0.85435 0.29000
O 	O 	0.78225 0.81675 0.88880 -0.41700
Zn	Zn	0.89670 0.63328 0.51068 1.19800
Zn	Zn	0.85625 0.68699 0.59083 1.21500
Zn	Zn	0.88555 0.70610 0.43843 1.22100
P 	P 	0.92753 0.71350 0.53518 0.31500
P 	P 	0.81853 0.66867 0.49107 0.30000
C 	C 	0.86231 0.77847 0.39314 0.29300
C 	C 	0.92518 0.62965 0.40844 0.29300
C 	C 	0.88112 0.60133 0.60926 0.31800
O 	O 	0.94108 0.67282 0.50918 -0.43800
O 	O 	0.83731 0.62867 0.51328 -0.44100
O 	O 	0.91204 0.70290 0.59051 -0.42100
O 	O 	0.83785 0.67631 0.43700 -0.44300
O 	O 	0.89267 0.73388 0.50287 -0.42500
O 	O 	0.82589 0.70477 0.52992 -0.41400
O 	O 	0.88779 0.74848 0.38869 -0.42100
O 	O 	0.86965 0.76134 0.65090 -0.24000
O 	O 	0.83718 0.77940 0.43122 -0.24700
O 	O 	0.92933 0.66904 0.41303 -0.42700
O 	O 	0.85153 0.62800 0.61052 -0.43000
O 	O 	0.91008 0.60812 0.44560 -0.43100
O 	O 	0.90743 0.60172 0.57213 -0.43900
C 	C 	0.83944 0.74114 0.67036 0.26100
O 	O 	0.82620 0.70865 0.64744 -0.40500
Zn	Zn	0.14257 0.18235 0.78076 1.20000
Zn	Zn	0.09119 0.13767 0.85961 1.21400
Zn	Zn	0.07187 0.16333 0.70576 1.22000
P 	P 	0.05900 0.20727 0.80078 0.31600
P 	P 	0.11245 0.10025 0.76353 0.29800
C 	C 	0.00256 0.13840 0.65341 0.26400
C 	C 	0.14766 0.20618 0.67768 0.31900
C 	C 	0.17203 0.17044 0.87947 0.28600
O 	O 	0.10405 0.21792 0.81608 -0.43500
O 	O 	0.14690 0.13047 0.74689 -0.44600
O 	O 	0.04800 0.16322 0.82092 -0.42600
O 	O 	0.06926 0.11779 0.74988 -0.43500
O 	O 	0.05487 0.21090 0.74095 -0.41900
O 	O 	0.11562 0.09269 0.82282 -0.40700
O 	O 	0.03573 0.15975 0.64863 -0.40500
O 	O 	0.01268 0.10220 0.89920 -0.24600
O 	O 	0.99527 0.11972 0.69592 -0.24000
O 	O 	0.12438 0.17452 0.66917 -0.43600
O 	O 	0.13342 0.17423 0.88986 -0.43400
O 	O 	0.15596 0.21738 0.72410 -0.44300
O 	O 	0.18429 0.17349 0.83267 -0.42400
C 	C 	0.04018 0.10386 0.93459 0.26900
O 	O 	0.07704 0.11496 0.92373 -0.41500
Zn	Zn	0.86910 0.98004 0.22002 1.20400
Zn	Zn	0.94352 0.02846 0.18328 1.21700
Zn	Zn	0.92196 0.90333 0.19616 1.22200
P 	P 	0.94975 0.96729 0.26304 0.29700
P 	P 	0.90678 0.96592 0.12177 0.31700
C 	C 	0.91829 0.82297 0.16123 0.30100
C 	C 	0.84458 0.90257 0.24498 0.28400
C 	C 	0.86746 0.06470 0.22254 0.29300
O 	O 	0.90893 0.99086 0.27290 -0.43800
O 	O 	0.86569 0.95930 0.15109 -0.42700
O 	O 	0.97166 0.98366 0.21365 -0.43100
O 	O 	0.94206 0.93996 0.14618 -0.44900
O 	O 	0.94143 0.91993 0.26078 -0.42000
O 	O 	0.91668 0.01286 0.12180 -0.42400
O 	O 	0.93743 0.84804 0.19084 -0.42300
O 	O 	0.03640 0.03810 0.16461 -0.24100
O 	O 	0.88595 0.83463 0.13692 -0.25000
O 	O 	0.86240 0.89524 0.20189 -0.42400
O 	O 	0.90690 0.06092 0.22833 -0.43100
O 	O 	0.83757 0.94007 0.25739 -0.41900
O 	O 	0.84589 0.03327 0.20948 -0.43600
C 	C 	0.01238 0.06315 0.14105 0.29500
O 	O 	0.97713 0.07178 0.16046 -0.41900
Zn	Zn	0.09826 0.92573 0.52663 1.19900
Zn	Zn	0.14309 0.87087 0.59904 1.21400
Zn	Zn	0.10749 0.85603 0.44941 1.22200
P 	P 	0.07127 0.84332 0.54823 0.30000
P 	P 	0.17598 0.89452 0.49889 0.31600
C 	C 	0.13714 0.79569 0.38600 0.29200
C 	C 	0.06130 0.93044 0.42920 0.32300
C 	C 	0.11610 0.95493 0.62499 0.32000
O 	O 	0.05546 0.88514 0.52770 -0.44200
O 	O 	0.15719 0.93263 0.52560 -0.44500
O 	O 	0.08884 0.85015 0.60344 -0.41700
O 	O 	0.15363 0.88886 0.44614 -0.43900
O 	O 	0.10509 0.82573 0.51197 -0.42900
O 	O 	0.17107 0.85650 0.53520 -0.41800
O 	O 	0.10402 0.81514 0.39791 -0.41400
O 	O 	0.14866 0.78890 0.64311 -0.24700
O 	O 	0.17123 0.80509 0.40814 -0.24600
O 	O 	0.05987 0.89072 0.43132 -0.43300
O 	O 	0.14626 0.92898 0.62286 -0.43300
O 	O 	0.08069 0.95124 0.46372 -0.44000
O 	O 	0.08880 0.95572 0.58915 -0.44000
C 	C 	0.17187 0.81387 0.66808 0.29500
O 	O 	0.17799 0.85018 0.65049 -0.42100
Zn	Zn	0.30255 0.66054 0.96487 1.20400
Zn	Zn	0.24882 0.72908 0.92101 1.21600
Zn	Zn	0.37459 0.71604 0.92795 1.22300
P 	P 	0.31245 0.74358 0.99799 0.28300
P 	P 	0.31041 0.69055 0.86173 0.29700
C 	C 	0.42995 0.76766 0.88168 0.26100
C 	C 	0.38419 0.64105 0.98224 0.29100
C 	C 	0.21757 0.65484 0.97130 0.33100
O 	O 	0.29110 0.70271 0.01295 -0.42900
O 	O 	0.31886 0.65253 0.89597 -0.44300
O 	O 	0.29224 0.76236 0.94861 -0.41700
O 	O 	0.33357 0.72934 0.88093 -0.44500
O 	O 	0.36007 0.73721 0.99232 -0.42500
O 	O 	0.26317 0.69884 0.86044 -0.40900
O 	O 	0.42693 0.73780 0.91370 -0.41900
O 	O 	0.23395 0.81987 0.89931 -0.23200
O 	O 	0.39933 0.77642 0.85240 -0.24400
O 	O 	0.38866 0.65798 0.93775 -0.43800
O 	O 	0.21971 0.69456 0.97142 -0.44700
O 	O 	0.34770 0.63518 0.00019 -0.41600
O 	O 	0.25034 0.63352 0.96300 -0.44900
C 	C 	0.20974 0.79428 0.87692 0.26000
O 	O 	0.20313 0.75918 0.89772 -0.40900
Zn	Zn	0.19223 0.39753 0.46789 1.20600
Zn	Zn	0.24677 0.32728 0.42877 1.21800
Zn	Zn	0.12120 0.34564 0.42531 1.22200
P 	P 	0.17772 0.31312 0.49861 0.29900
P 	P 	0.18951 0.37122 0.36528 0.29700
C 	C 	0.06466 0.30824 0.36298 0.29400
C 	C 	0.11243 0.41722 0.48659 0.28400
C 	C 	0.27561 0.39809 0.48655 0.32300
O 	O 	0.19818 0.35398 0.51590 -0.45200
O 	O 	0.17721 0.40809 0.39936 -0.43700
O 	O 	0.20047 0.29518 0.45050 -0.41500
O 	O 	0.16389 0.33255 0.37956 -0.43900
O 	O 	0.13053 0.31898 0.48827 -0.41600
O 	O 	0.23653 0.36272 0.37151 -0.41100
O 	O 	0.06881 0.33032 0.40347 -0.42200
O 	O 	0.25279 0.23972 0.40143 -0.24300
O 	O 	0.09642 0.29207 0.34166 -0.24900
O 	O 	0.10840 0.40341 0.44048 -0.43100
O 	O 	0.27496 0.35837 0.48388 -0.42900
O 	O 	0.14879 0.42543 0.50316 -0.42200
O 	O 	0.24663 0.41932 0.46599 -0.44500
C 	C 	0.28404 0.26004 0.38502 0.28900
O 	O 	0.29145 0.29589 0.40357 -0.41400
Zn	Zn	0.39680 0.12826 0.01540 1.20000
Zn	Zn	0.36142 0.18188 0.09908 1.21400
Zn	Zn	0.38113 0.20041 0.94499 1.21900
P 	P 	0.42899 0.20860 0.03662 0.31300
P 	P 	0.31729 0.16318 0.00357 0.33100
C 	C 	0.34693 0.26440 0.89313 0.29500
C 	C 	0.41880 0.12456 0.91078 0.29300
C 	C 	0.38909 0.09756 0.11599 0.31900
O 	O 	0.44081 0.16794 0.00933 -0.43400
O 	O 	0.33762 0.12339 0.02426 -0.43100
O 	O 	0.41689 0.19800 0.09318 -0.42100
O 	O 	0.33380 0.17025 0.94801 -0.44700
O 	O 	0.39224 0.22898 0.00783 -0.43000
O 	O 	0.32741 0.19948 0.04115 -0.42200
O 	O 	0.37978 0.24255 0.89575 -0.42200
O 	O 	0.39670 0.21700 0.19152 -0.24600
O 	O 	0.31508 0.25420 0.91944 -0.25200
O 	O 	0.42326 0.16391 0.91504 -0.42900
O 	O 	0.35858 0.12300 0.11893 -0.42800
O 	O 	0.40622 0.10294 0.94929 -0.43500
O 	O 	0.41218 0.09723 0.07566 -0.43600
C 	C 	0.35739 0.21526 0.19669 0.26000
O 	O 	0.33509 0.20250 0.15899 -0.40900
Zn	Zn	0.63997 0.68041 0.27008 1.19700
Zn	Zn	0.58814 0.63324 0.34617 1.21500
Zn	Zn	0.56739 0.66794 0.19801 1.21900
P 	P 	0.55819 0.70726 0.29569 0.32000
P 	P 	0.60585 0.59908 0.24782 0.31300
C 	C 	0.49714 0.65035 0.14357 0.26100
C 	C 	0.64450 0.70614 0.16836 0.32100
C 	C 	0.67046 0.66349 0.36714 0.31300
O 	O 	0.60388 0.71534 0.31012 -0.43300
O 	O 	0.64169 0.62870 0.23375 -0.43800
O 	O 	0.54607 0.66230 0.31052 -0.43300
O 	O 	0.56326 0.61968 0.23758 -0.43400
O 	O 	0.55343 0.71500 0.23666 -0.41900
O 	O 	0.60948 0.58814 0.30629 -0.41100
O 	O 	0.53142 0.66998 0.14105 -0.41100
O 	O 	0.55296 0.67346 0.43313 -0.25200
O 	O 	0.48643 0.63319 0.18596 -0.24000
O 	O 	0.61988 0.67568 0.16097 -0.44200
O 	O 	0.63201 0.66668 0.37856 -0.43600
O 	O 	0.65329 0.71759 0.21450 -0.44000
O 	O 	0.68212 0.66853 0.32032 -0.43400
C 	C 	0.55775 0.63519 0.44357 0.30000
O 	O 	0.57056 0.61046 0.40863 -0.42200
Zn	Zn	0.37944 0.48516 0.74962 1.20700
Zn	Zn	0.44317 0.52864 0.68163 1.21800
Zn	Zn	0.41342 0.40649 0.70050 1.22200
P 	P 	0.46376 0.46459 0.75529 0.29600
P 	P 	0.38542 0.47302 0.63964 0.29900
C 	C 	0.40329 0.33436 0.64746 0.30000
C 	C 	0.35056 0.40828 0.77536 0.28500
C 	C 	0.38302 0.56977 0.74684 0.32400
O 	O 	0.43139 0.49249 0.78164 -0.44400
O 	O 	0.35535 0.47063 0.68586 -0.44100
O 	O 	0.47296 0.48021 0.69968 -0.42400
O 	O 	0.42220 0.44264 0.64571 -0.44600
O 	O 	0.44887 0.41879 0.75578 -0.42200
O 	O 	0.40094 0.51806 0.63302 -0.41100
O 	O 	0.42198 0.35087 0.68565 -0.42100
O 	O 	0.52620 0.52557 0.63822 -0.24100
O 	O 	0.37309 0.35312 0.62595 -0.25300
O 	O 	0.35735 0.40204 0.72728 -0.42500
O 	O 	0.42166 0.56335 0.73761 -0.44400
O 	O 	0.35656 0.44426 0.79436 -0.42600
O 	O 	0.35836 0.53927 0.75298 -0.44300
C 	C 	0.50867 0.55977 0.62689 0.26300
O 	O 	0.47460 0.56948 0.64881 -0.41000
Zn	Zn	0.79087 0.15379 0.48740 1.20400
Zn	Zn	0.73280 0.21272 0.43000 1.21800
Zn	Zn	0.85771 0.20920 0.44335 1.22200
P 	P 	0.79284 0.24023 0.50557 0.29900
P 	P 	0.79819 0.17043 0.37943 0.31500
C 	C 	0.90791 0.26212 0.39271 0.26500
C 	C 	0.87364 0.14121 0.50935 0.31600
C 	C 	0.70593 0.14154 0.48647 0.28900
O 	O 	0.77377 0.20005 0.52695 -0.43800
O 	O 	0.81016 0.13850 0.42099 -0.44100
O 	O 	0.77405 0.25082 0.45183 -0.41900
O 	O 	0.81833 0.21287 0.39061 -0.43600
O 	O 	0.84073 0.23611 0.50318 -0.42000
O 	O 	0.75041 0.17512 0.37841 -0.41800
O 	O 	0.90787 0.23354 0.42663 -0.41600
O 	O 	0.71482 0.29897 0.40109 -0.24200
O 	O 	0.87381 0.27880 0.37889 -0.23800
O 	O 	0.87787 0.15455 0.46301 -0.43800
O 	O 	0.70512 0.18125 0.48440 -0.43200
O 	O 	0.83729 0.13715 0.52869 -0.43200
O 	O 	0.74079 0.12250 0.48745 -0.43000
C 	C 	0.69034 0.27324 0.37945 0.28900
O 	O 	0.68646 0.23707 0.39863 -0.41700
Zn	Zn	0.60494 0.41645 0.01498 1.20200
Zn	Zn	0.64439 0.36506 0.09642 1.21400
Zn	Zn	0.61686 0.34480 0.94371 1.21800
P 	P 	0.57486 0.33664 0.03916 0.30000
P 	P 	0.68405 0.38242 0.99752 0.29500
C 	C 	0.63303 0.29854 0.85605 0.26600
C 	C 	0.57896 0.42132 0.91317 0.32300
C 	C 	0.61603 0.44911 0.11381 0.29300
O 	O 	0.56116 0.37685 0.01236 -0.43500
O 	O 	0.66388 0.42210 0.01893 -0.43100
O 	O 	0.58917 0.34727 0.09495 -0.42200
O 	O 	0.66602 0.37309 0.94288 -0.43400
O 	O 	0.61024 0.31659 0.00762 -0.42500
O 	O 	0.67641 0.34685 0.03696 -0.41100
O 	O 	0.60845 0.30352 0.89423 -0.41500
O 	O 	0.64487 0.28320 0.14183 -0.24100
O 	O 	0.66396 0.32273 0.85028 -0.24500
O 	O 	0.57353 0.38225 0.91863 -0.43600
O 	O 	0.64692 0.42410 0.11707 -0.42200
O 	O 	0.59286 0.44283 0.95082 -0.44500
O 	O 	0.59100 0.44648 0.07562 -0.43900
C 	C 	0.66400 0.30866 0.17104 0.26300
O 	O 	0.67303 0.34459 0.15401 -0.41000
Zn	Zn	0.12222 0.57381 0.23817 1.20400
Zn	Zn	0.06179 0.52244 0.17342 1.21900
Zn	Zn	0.07742 0.64651 0.18762 1.22300
P 	P 	0.03551 0.58508 0.24684 0.31400
P 	P 	0.11260 0.58264 0.12837 0.29800
C 	C 	0.03397 0.70244 0.13178 0.26200
C 	C 	0.14100 0.65512 0.26073 0.28400
C 	C 	0.12698 0.48858 0.23466 0.31700
O 	O 	0.07163 0.56178 0.27277 -0.43500
O 	O 	0.14360 0.59010 0.17280 -0.43700
O 	O 	0.02683 0.56719 0.19214 -0.42300
O 	O 	0.07197 0.60692 0.13655 -0.43700
O 	O 	0.04567 0.63208 0.24508 -0.42700
O 	O 	0.10309 0.53589 0.12420 -0.41100
O 	O 	0.05900 0.69898 0.16972 -0.41200
O 	O 	0.00523 0.52852 0.09247 -0.24300
O 	O 	0.03582 0.67672 0.09446 -0.23200
O 	O 	0.13262 0.65969 0.21266 -0.43200
O 	O 	0.08749 0.49158 0.22950 -0.44800
O 	O 	0.14069 0.61884 0.28060 -0.42100
O 	O 	0.14863 0.52126 0.24222 -0.43400
C 	C 	0.01173 0.49027 0.10140 0.29700
O 	O 	0.03376 0.47973 0.14011 -0.42300
Zn	Zn	0.85063 0.37365 0.76821 1.19900
Zn	Zn	0.90888 0.41594 0.83915 1.21500
Zn	Zn	0.91722 0.38411 0.68673 1.21900
P 	P 	0.93192 0.34261 0.78260 0.30300
P 	P 	0.88543 0.45302 0.74415 0.29700
C 	C 	0.98933 0.39361 0.63430 0.28500
C 	C 	0.83522 0.35002 0.66684 0.32300
C 	C 	0.82673 0.38895 0.86828 0.28500
O 	O 	0.88744 0.33590 0.80277 -0.43000
O 	O 	0.84773 0.42515 0.73299 -0.44400
O 	O 	0.94686 0.38670 0.79719 -0.43000
O 	O 	0.92597 0.43153 0.72683 -0.43500
O 	O 	0.93184 0.33582 0.72306 -0.41400
O 	O 	0.88700 0.46270 0.80317 -0.40900
O 	O 	0.95163 0.38255 0.62792 -0.41200
O 	O 	0.96380 0.37627 0.90975 -0.25000
O 	O 	0.00140 0.40581 0.67877 -0.24500
O 	O 	0.86235 0.37746 0.65409 -0.43800
O 	O 	0.86568 0.38420 0.87610 -0.42700
O 	O 	0.83145 0.33873 0.71412 -0.44400
O 	O 	0.81237 0.38627 0.82241 -0.42500
C 	C 	0.95515 0.41233 0.92658 0.27100
O 	O 	0.93263 0.43654 0.89960 -0.41400
C 	C 	0.97002 0.42526 0.97568 -0.04000
C 	C 	0.94288 0.43822 0.01246 -0.01500
C 	C 	0.95710 0.45509 0.05701 0.02100
C 	C 	0.99858 0.46025 0.06464 -0.11600
C 	C 	0.02622 0.44407 0.02932 0.14700
C 	C 	0.01148 0.42640 0.98507 -0.08100
H 	H 	0.93577 0.46676 0.08418 0.03800
H 	H 	0.03236 0.41508 0.95710 0.06100
H 	H 	0.91071 0.43629 0.00591 0.05200
N 	N 	0.06670 0.44642 0.03693 -0.20500
H 	H 	0.07871 0.45824 0.06997 0.10300
H 	H 	0.08674 0.43550 0.00988 0.09600
C 	C 	0.79875 0.39086 0.91138 -0.04100
C 	C 	0.77680 0.42602 0.92077 -0.01800
C 	C 	0.74679 0.42642 0.95781 -0.00300
C 	C 	0.73688 0.39105 0.98388 -0.06200
C 	C 	0.76374 0.35806 0.98074 0.10000
C 	C 	0.79332 0.35739 0.94267 -0.05100
H 	H 	0.72812 0.45290 0.96195 0.04700
H 	H 	0.81217 0.33106 0.93782 0.05800
H 	H 	0.78192 0.45262 0.89818 0.04200
N 	N 	0.76265 0.32822 0.01545 -0.19100
H 	H 	0.74791 0.33234 0.04970 0.10700
H 	H 	0.78005 0.30233 0.01069 0.09900
C 	C 	0.78466 0.27993 0.55006 0.01400
C 	C 	0.77634 0.26996 0.60016 -0.05500
C 	C 	0.78901 0.29522 0.63894 0.03400
C 	C 	0.80900 0.33138 0.62786 -0.12900
C 	C 	0.80867 0.34550 0.57758 0.14500
C 	C 	0.79829 0.31877 0.53868 -0.09100
H 	H 	0.78581 0.28529 0.67749 0.04100
H 	H 	0.80215 0.32770 0.49981 0.07500
H 	H 	0.76360 0.24093 0.60935 0.06600
N 	N 	0.81520 0.38489 0.56695 -0.20300
H 	H 	0.81376 0.40669 0.59512 0.10300
H 	H 	0.81780 0.39449 0.52970 0.09200
C 	C 	0.66925 0.29938 0.22471 -0.02600
C 	C 	0.68009 0.26052 0.23971 -0.03200
C 	C 	0.68406 0.25132 0.29065 0.02000
C 	C 	0.67694 0.28079 0.32742 -0.11300
C 	C 	0.66311 0.31928 0.31254 0.13200
C 	C 	0.66063 0.32864 0.26113 -0.07100
H 	H 	0.69438 0.22167 0.30149 0.03900
H 	H 	0.65066 0.35826 0.24955 0.05900
H 	H 	0.68624 0.23760 0.21184 0.05500
N 	N 	0.65085 0.34669 0.34722 -0.20200
H 	H 	0.64762 0.33894 0.38503 0.10200
H 	H 	0.64233 0.37560 0.33612 0.09200
C 	C 	0.50892 0.46513 0.79226 0.01200
C 	C 	0.50960 0.48631 0.83779 -0.05700
C 	C 	0.53564 0.47444 0.87621 0.03700
C 	C 	0.56170 0.44176 0.86903 -0.13000
C 	C 	0.56599 0.42518 0.82034 0.14300
C 	C 	0.53901 0.43671 0.78231 -0.08600
H 	H 	0.53344 0.48873 0.91269 0.03200
H 	H 	0.53996 0.42188 0.74606 0.06900
H 	H 	0.48789 0.50991 0.84489 0.06000
N 	N 	0.59597 0.39863 0.80994 -0.20400
H 	H 	0.61892 0.39301 0.83584 0.09500
H 	H 	0.59771 0.38489 0.77469 0.09600
C 	C 	0.61306 0.48451 0.14775 -0.04200
C 	C 	0.63539 0.48695 0.19260 -0.01900
C 	C 	0.63306 0.52161 0.22285 -0.00300
C 	C 	0.60974 0.55474 0.20752 -0.06200
C 	C 	0.58876 0.55264 0.16106 0.11000
C 	C 	0.58801 0.51657 0.13416 -0.05800
H 	H 	0.64970 0.52279 0.25782 0.04700
H 	H 	0.57039 0.51486 0.09992 0.06400
H 	H 	0.65419 0.46206 0.20435 0.04900
N 	N 	0.57232 0.58581 0.14000 -0.19300
H 	H 	0.58501 0.61379 0.14624 0.05600
H 	H 	0.55153 0.58307 0.11069 0.09300
C 	C 	0.52332 0.58354 0.58391 -0.02500
C 	C 	0.49657 0.60822 0.55717 -0.03500
C 	C 	0.50863 0.62622 0.51237 0.02400
C 	C 	0.54760 0.62002 0.49373 -0.11400
C 	C 	0.57586 0.59790 0.52251 0.13500
C 	C 	0.56317 0.57917 0.56709 -0.07400
H 	H 	0.48717 0.64394 0.49115 0.04000
H 	H 	0.58434 0.56134 0.58867 0.06600
H 	H 	0.46588 0.61224 0.57007 0.05700
N 	N 	0.61520 0.59552 0.50841 -0.20300
H 	H 	0.62648 0.61252 0.47859 0.10200
H 	H 	0.63545 0.57788 0.52885 0.09200
C 	C 	0.53301 0.30195 0.03922 0.01600
C 	C 	0.52459 0.27842 0.08161 -0.03800
C 	C 	0.49393 0.24943 0.08002 0.00600
C 	C 	0.47183 0.24297 0.03565 -0.05500
C 	C 	0.48165 0.26565 0.99200 0.10500
C 	C 	0.51103 0.29600 0.99499 -0.09200
H 	H 	0.48738 0.23202 0.11340 0.05600
H 	H 	0.51820 0.31360 0.96189 0.06100
H 	H 	0.54182 0.28239 0.11581 0.06500
N 	N 	0.46459 0.25728 0.94686 -0.19600
H 	H 	0.45065 0.22987 0.94020 0.06800
H 	H 	0.46875 0.27664 0.91636 0.09700
C 	C 	0.34596 0.37365 0.80892 -0.04400
C 	C 	0.32283 0.34064 0.79361 -0.02800
C 	C 	0.32323 0.30519 0.82151 0.02000
C 	C 	0.34695 0.30217 0.86490 -0.11200
C 	C 	0.36945 0.33584 0.88160 0.13000
C 	C 	0.36887 0.37134 0.85312 -0.06800
H 	H 	0.30548 0.27975 0.80899 0.03700
H 	H 	0.38707 0.39677 0.86472 0.06300
H 	H 	0.30512 0.34220 0.75946 0.05500
N 	N 	0.39126 0.33441 0.92488 -0.20300
H 	H 	0.39039 0.30944 0.94859 0.10100
H 	H 	0.40876 0.35898 0.93592 0.09300
C 	C 	0.94546 0.27311 0.36772 -0.02700
C 	C 	0.97508 0.24384 0.35945 -0.03500
C 	C 	0.01437 0.25544 0.34839 0.02400
C 	C 	0.02435 0.29630 0.34711 -0.11300
C 	C 	0.99323 0.32523 0.34553 0.13100
C 	C 	0.95375 0.31346 0.35695 -0.07100
H 	H 	0.03784 0.23285 0.34661 0.04200
H 	H 	0.93016 0.33586 0.36007 0.06500
H 	H 	0.96828 0.21231 0.36496 0.05000
N 	N 	0.00142 0.36427 0.33455 -0.19900
H 	H 	0.03023 0.37312 0.32324 0.09400
H 	H 	0.97859 0.38589 0.33545 0.09000
C 	C 	0.35594 0.45890 0.58629 0.01200
C 	C 	0.37079 0.43062 0.55196 -0.05100
C 	C 	0.34437 0.41052 0.51971 0.04200
C 	C 	0.30279 0.41784 0.52240 -0.12600
C 	C 	0.28784 0.44626 0.55745 0.14600
C 	C 	0.31507 0.46904 0.58564 -0.08500
H 	H 	0.35615 0.38893 0.49301 0.03500
H 	H 	0.30382 0.49164 0.61142 0.07300
H 	H 	0.40255 0.42318 0.55140 0.05900
N 	N 	0.24769 0.44944 0.56698 -0.20000
H 	H 	0.22754 0.42708 0.55583 0.08100
H 	H 	0.23678 0.47253 0.58986 0.09600
C 	C 	0.33869 0.22601 0.24534 -0.02500
C 	C 	0.29751 0.23510 0.24800 -0.03300
C 	C 	0.28005 0.24584 0.29380 0.02000
C 	C 	0.30343 0.24774 0.33770 -0.11200
C 	C 	0.34498 0.23823 0.33556 0.13200
C 	C 	0.36229 0.22749 0.28922 -0.07500
H 	H 	0.24825 0.25319 0.29511 0.04000
H 	H 	0.39402 0.21988 0.28752 0.06500
H 	H 	0.27902 0.23429 0.21447 0.05700
N 	N 	0.36820 0.23863 0.37771 -0.20400
H 	H 	0.35600 0.24490 0.41299 0.10400
H 	H 	0.39893 0.23200 0.37558 0.09300
C 	C 	0.08016 0.40939 0.52321 -0.05300
C 	C 	0.04085 0.42294 0.51405 -0.02300
C 	C 	0.01009 0.41488 0.54863 0.01800
C 	C 	0.01819 0.39249 0.59221 -0.10500
C 	C 	0.05692 0.37539 0.59889 0.13100
C 	C 	0.08801 0.38537 0.56538 -0.06500
H 	H 	0.98040 0.42751 0.54263 0.03600
H 	H 	0.11802 0.37342 0.57134 0.05900
H 	H 	0.03429 0.44053 0.48078 0.04700
N 	N 	0.06404 0.34862 0.63648 -0.20100
H 	H 	0.04057 0.33731 0.65848 0.10600
H 	H 	0.09301 0.33723 0.64233 0.09400
C 	C 	0.17706 0.38719 0.30312 0.01200
C 	C 	0.13659 0.38570 0.28833 -0.05600
C 	C 	0.12042 0.41673 0.25947 0.03600
C 	C 	0.14516 0.44861 0.24394 -0.13000
C 	C 	0.18746 0.44385 0.24711 0.14700
C 	C 	0.20322 0.41360 0.27825 -0.08800
H 	H 	0.08819 0.41780 0.25323 0.03600
H 	H 	0.23527 0.41255 0.28592 0.07300
H 	H 	0.11654 0.36371 0.30470 0.04900
N 	N 	0.21266 0.46695 0.21911 -0.20300
H 	H 	0.20154 0.48525 0.19039 0.10300
H 	H 	0.24387 0.46462 0.22349 0.09500
C 	C 	0.13511 0.60175 0.07216 0.01900
C 	C 	0.13295 0.64292 0.06210 -0.05700
C 	C 	0.15568 0.65955 0.02346 0.06200
C 	C 	0.18244 0.63546 0.99582 -0.16300
C 	C 	0.17973 0.59307 0.00050 0.17500
C 	C 	0.15758 0.57658 0.04060 -0.09900
H 	H 	0.15481 0.69175 0.01769 0.04200
H 	H 	0.15756 0.54439 0.04674 0.07400
H 	H 	0.11542 0.66248 0.08613 0.04900
N 	N 	0.19573 0.56846 0.96501 -0.21300
H 	H 	0.20526 0.57978 0.93039 0.10600
H 	H 	0.19564 0.53732 0.97012 0.08900
C 	C 	0.47209 0.64541 0.09841 -0.02300
C 	C 	0.46994 0.67622 0.06270 -0.04000
C 	C 	0.44350 0.67308 0.02216 0.03900
C 	C 	0.41886 0.63904 0.01669 -0.12200
C 	C 	0.42371 0.60621 0.04998 0.14000
C 	C 	0.44974 0.61004 0.09135 -0.07900
H 	H 	0.44047 0.69817 0.99663 0.01100
H 	H 	0.45288 0.58536 0.11766 0.06600
H 	H 	0.48759 0.70335 0.06739 0.05900
N 	N 	0.40435 0.57081 0.04172 -0.20300
H 	H 	0.38824 0.56572 0.00862 0.10600
H 	H 	0.40687 0.54723 0.06746 0.09400
C 	C 	0.33133 0.67701 0.80238 0.00900
C 	C 	0.30882 0.65228 0.77061 -0.04800
C 	C 	0.32738 0.61955 0.74726 0.03500
C 	C 	0.36812 0.61077 0.75733 -0.12900
C 	C 	0.39190 0.63997 0.78278 0.14700
C 	C 	0.37337 0.67546 0.79913 -0.09300
H 	H 	0.30930 0.59898 0.72516 0.03700
H 	H 	0.39113 0.69757 0.81919 0.05400
H 	H 	0.27637 0.65537 0.76888 0.06100
N 	N 	0.43057 0.63236 0.79662 -0.20400
H 	H 	0.43972 0.60343 0.80637 0.11100
H 	H 	0.44961 0.65610 0.80650 0.09400
C 	C 	0.14157 0.69065 0.29362 -0.04100
C 	C 	0.11744 0.69160 0.33685 -0.02900
C 	C 	0.11437 0.72677 0.36525 0.02100
C 	C 	0.13569 0.76137 0.35116 -0.10800
C 	C 	0.15936 0.76095 0.30679 0.13000
C 	C 	0.16237 0.72531 0.27863 -0.06500
H 	H 	0.09609 0.72686 0.39900 0.04200
H 	H 	0.18032 0.72482 0.24459 0.06400
H 	H 	0.10044 0.66527 0.34798 0.05500
N 	N 	0.17833 0.79474 0.29041 -0.20200
H 	H 	0.17396 0.82244 0.30802 0.10400
H 	H 	0.19670 0.79384 0.25853 0.09700
C 	C 	0.20017 0.79977 0.82348 -0.03000
C 	C 	0.16266 0.78760 0.80487 -0.03300
C 	C 	0.15445 0.79002 0.75355 0.02000
C 	C 	0.18377 0.80438 0.72001 -0.11400
C 	C 	0.22258 0.81446 0.73824 0.13600
C 	C 	0.23007 0.81315 0.79015 -0.07400
H 	H 	0.12474 0.78196 0.73999 0.04000
H 	H 	0.25969 0.82095 0.80433 0.06700
H 	H 	0.13968 0.77657 0.83029 0.05300
N 	N 	0.25304 0.82381 0.70609 -0.20200
H 	H 	0.24984 0.82029 0.66731 0.10100
H 	H 	0.28112 0.83278 0.71992 0.09500
C 	C 	0.99859 0.72824 0.13690 -0.02700
C 	C 	0.98461 0.75049 0.09581 -0.03300
C 	C 	0.95348 0.77816 0.10226 0.02400
C 	C 	0.93659 0.78411 0.14999 -0.11900
C 	C 	0.94678 0.75777 0.18963 0.13700
C 	C 	0.97836 0.73039 0.18305 -0.07300
H 	H 	0.94490 0.79741 0.07121 0.03500
H 	H 	0.98735 0.71102 0.21385 0.06000
H 	H 	0.99911 0.74774 0.05949 0.05500
N 	N 	0.92653 0.75895 0.23400 -0.20300
H 	H 	0.90126 0.77725 0.23855 0.10000
H 	H 	0.93504 0.74035 0.26383 0.09500
C 	C 	0.84702 0.09986 0.24495 -0.04300
C 	C 	0.80595 0.09796 0.25726 -0.01800
C 	C 	0.79019 0.12336 0.29416 -0.00200
C 	C 	0.81555 0.14988 0.32031 -0.06200
C 	C 	0.85604 0.15470 0.30389 0.10900
C 	C 	0.87011 0.13184 0.26332 -0.05500
H 	H 	0.75893 0.12016 0.30512 0.05000
H 	H 	0.90094 0.13560 0.25066 0.06300
H 	H 	0.78678 0.07521 0.24064 0.05400
N 	N 	0.88229 0.17837 0.32919 -0.18800
H 	H 	0.88180 0.17922 0.36818 0.05400
H 	H 	0.90802 0.18927 0.31113 0.09200
C 	C 	0.98251 0.97342 0.31590 0.01000
C 	C 	0.96770 0.96506 0.36404 -0.04900
C 	C 	0.99408 0.95391 0.40239 0.03400
C 	C 	0.03557 0.95163 0.39316 -0.12600
C 	C 	0.05109 0.96504 0.34657 0.14300
C 	C 	0.02422 0.97594 0.30814 -0.09000
H 	H 	0.98204 0.94470 0.43846 0.03200
H 	H 	0.03580 0.98396 0.27141 0.07700
H 	H 	0.93552 0.96386 0.37062 0.05600
N 	N 	0.09149 0.96668 0.33818 -0.20700
H 	H 	0.11219 0.96019 0.36660 0.09800
H 	H 	0.10264 0.97553 0.30315 0.09700
C 	C 	0.96672 0.30626 0.80861 0.00900
C 	C 	0.00770 0.31594 0.81305 -0.03500
C 	C 	0.03631 0.28567 0.82132 0.00900
C 	C 	0.02439 0.24525 0.82440 -0.07000
C 	C 	0.98269 0.23658 0.82878 0.12000
C 	C 	0.95416 0.26673 0.81772 -0.07600
H 	H 	0.06803 0.29325 0.82029 0.04700
H 	H 	0.92236 0.25940 0.81676 0.07000
H 	H 	0.01774 0.34652 0.80704 0.06300
N 	N 	0.97000 0.20051 0.84649 -0.19900
H 	H 	0.98909 0.18254 0.86801 0.10900
H 	H 	0.93957 0.19259 0.84447 0.09900
C 	C 	0.97265 0.13684 0.61239 -0.02300
C 	C 	0.96753 0.16983 0.58031 -0.03500
C 	C 	0.93610 0.17024 0.54542 0.02600
C 	C 	0.90942 0.13759 0.54188 -0.12600
C 	C 	0.91603 0.10302 0.57182 0.14100
C 	C 	0.94727 0.10326 0.60753 -0.07600
H 	H 	0.93159 0.19664 0.52224 0.03000
H 	H 	0.95196 0.07719 0.63127 0.06700
H 	H 	0.98700 0.19583 0.58359 0.05800
N 	N 	0.89345 0.06928 0.56551 -0.20400
H 	H 	0.87296 0.06664 0.53594 0.10300
H 	H 	0.89759 0.04446 0.58902 0.09400
C 	C 	0.11821 0.05396 0.72879 0.00800
C 	C 	0.08885 0.02388 0.73265 -0.05200
C 	C 	0.08879 0.99139 0.69918 0.03400
C 	C 	0.11802 0.98862 0.66120 -0.12500
C 	C 	0.14826 0.01868 0.65757 0.14300
C 	C 	0.14850 0.05064 0.69223 -0.09500
H 	H 	0.06559 0.96862 0.70232 0.03200
H 	H 	0.17134 0.07377 0.68921 0.07200
H 	H 	0.06528 0.02624 0.76065 0.06200
N 	N 	0.17615 0.01790 0.62008 -0.20700
H 	H 	0.17501 0.99660 0.59137 0.11000
H 	H 	0.19878 0.03971 0.61848 0.09200
C 	C 	0.02978 0.09417 0.98670 -0.03900
C 	C 	0.03831 0.12187 0.02490 -0.01800
C 	C 	0.03305 0.11128 0.07519 0.02300
C 	C 	0.01995 0.07262 0.08802 -0.11700
C 	C 	0.01138 0.04430 0.04952 0.14100
C 	C 	0.01566 0.05577 0.99897 -0.08300
H 	H 	0.03930 0.13316 0.10432 0.03800
H 	H 	0.00941 0.03429 0.96933 0.06100
H 	H 	0.04933 0.15160 0.01557 0.05000
N 	N 	0.99968 0.00615 0.06075 -0.20700
H 	H 	0.99795 0.99603 0.09777 0.09700
H 	H 	0.99260 0.98587 0.03209 0.09800
C 	C 	0.18001 0.28002 0.55198 0.01400
C 	C 	0.17665 0.29640 0.60028 -0.05400
C 	C 	0.16801 0.27187 0.64130 0.03100
C 	C 	0.16357 0.23024 0.63508 -0.13000
C 	C 	0.17169 0.21289 0.58731 0.14500
C 	C 	0.17786 0.23826 0.54553 -0.09300
H 	H 	0.16298 0.28554 0.67771 0.03600
H 	H 	0.18131 0.22543 0.50834 0.07600
H 	H 	0.17831 0.32860 0.60569 0.05900
N 	N 	0.17613 0.17251 0.58197 -0.20400
H 	H 	0.18013 0.15390 0.61315 0.10500
H 	H 	0.17926 0.15982 0.54626 0.09500
C 	C 	0.20157 0.16486 0.92053 -0.04200
C 	C 	0.22217 0.12832 0.92547 -0.01900
C 	C 	0.25226 0.12392 0.96206 0.00300
C 	C 	0.26384 0.15682 0.99186 -0.07100
C 	C 	0.23809 0.19074 0.99324 0.10700
C 	C 	0.20832 0.19547 0.95580 -0.05100
H 	H 	0.26992 0.09656 0.96284 0.04600
H 	H 	0.19027 0.22261 0.95462 0.05700
H 	H 	0.21577 0.10370 0.90006 0.04400
N 	N 	0.24049 0.21760 0.03147 -0.19000
H 	H 	0.25611 0.21059 0.06437 0.10300
H 	H 	0.22363 0.24411 0.03054 0.09900
C 	C 	0.02973 0.80834 0.54615 0.00100
C 	C 	0.02043 0.78393 0.58749 -0.03200
C 	C 	0.99032 0.75441 0.58353 0.00500
C 	C 	0.97010 0.74813 0.53770 -0.06400
C 	C 	0.98111 0.77161 0.49525 0.11400
C 	C 	0.00921 0.80282 0.50078 -0.07500
H 	H 	0.98279 0.73644 0.61612 0.05300
H 	H 	0.01698 0.82122 0.46859 0.05600
H 	H 	0.03642 0.78767 0.62264 0.06200
N 	N 	0.96664 0.76302 0.44880 -0.19700
H 	H 	0.95504 0.73481 0.44055 0.07000
H 	H 	0.97112 0.78303 0.41903 0.09600
C 	C 	0.76592 0.66324 0.47581 0.01200
C 	C 	0.74302 0.69806 0.46752 -0.05400
C 	C 	0.71096 0.69764 0.43329 0.03800
C 	C 	0.70072 0.66213 0.40794 -0.12500
C 	C 	0.72001 0.62572 0.42146 0.13400
C 	C 	0.75248 0.62663 0.45561 -0.08700
H 	H 	0.69523 0.72536 0.42487 0.03600
H 	H 	0.76914 0.59931 0.46337 0.06700
H 	H 	0.75240 0.72635 0.48390 0.06600
N 	N 	0.70780 0.59003 0.40173 -0.20500
H 	H 	0.68287 0.58817 0.37792 0.08700
H 	H 	0.72272 0.56342 0.41116 0.09100
C 	C 	0.84646 0.87182 0.28459 -0.05000
C 	C 	0.83376 0.83253 0.27432 -0.02800
C 	C 	0.84033 0.80190 0.30926 0.01500
C 	C 	0.86041 0.80996 0.35451 -0.11200
C 	C 	0.87434 0.84939 0.36460 0.13100
C 	C 	0.86641 0.88024 0.32990 -0.06800
H 	H 	0.82959 0.77182 0.30125 0.03300
H 	H 	0.87728 0.91040 0.33724 0.06100
H 	H 	0.81907 0.82562 0.23899 0.05200
N 	N 	0.89622 0.85757 0.40663 -0.20300
H 	H 	0.90468 0.83488 0.43159 0.10300
H 	H 	0.90606 0.88682 0.41397 0.09400
C 	C 	0.94288 0.60930 0.36458 -0.04500
C 	C 	0.93760 0.62557 0.31648 -0.01900
C 	C 	0.96057 0.61137 0.27627 0.00000
C 	C 	0.99033 0.58216 0.28431 -0.06900
C 	C 	0.99017 0.56061 0.33009 0.11100
C 	C 	0.96766 0.57548 0.37089 -0.05500
H 	H 	0.95846 0.62633 0.24020 0.04300
H 	H 	0.96981 0.56106 0.40733 0.05800
H 	H 	0.91718 0.65056 0.31075 0.03900
N 	N 	0.00950 0.52481 0.33411 -0.19500
H 	H 	0.02021 0.50996 0.30221 0.10100
H 	H 	0.01117 0.51003 0.36870 0.09400
C 	C 	0.88026 0.49783 0.70622 0.00900
C 	C 	0.89401 0.53507 0.72386 -0.05000
C 	C 	0.89335 0.56889 0.69237 0.03100
C 	C 	0.87921 0.56580 0.64273 -0.12300
C 	C 	0.86440 0.52836 0.62510 0.14200
C 	C 	0.86552 0.49461 0.65698 -0.09400
H 	H 	0.90448 0.59739 0.70634 0.02800
H 	H 	0.85521 0.46575 0.64317 0.06100
H 	H 	0.90583 0.53778 0.76163 0.06000
N 	N 	0.84886 0.52462 0.57801 -0.20500
H 	H 	0.84574 0.54936 0.55423 0.09800
H 	H 	0.83879 0.49671 0.56506 0.08900
C 	C 	0.46465 0.79496 0.88436 -0.02700
C 	C 	0.45986 0.83587 0.87306 -0.03600
C 	C 	0.49124 0.86279 0.88179 0.02400
C 	C 	0.52782 0.84920 0.90166 -0.11500
C 	C 	0.53396 0.80750 0.90958 0.13000
C 	C 	0.50188 0.78079 0.90183 -0.07200
H 	H 	0.48671 0.89452 0.87454 0.03600
H 	H 	0.50597 0.74900 0.90914 0.06200
H 	H 	0.43129 0.84707 0.85924 0.05700
N 	N 	0.57066 0.79294 0.92340 -0.20000
H 	H 	0.59623 0.81121 0.92379 0.08300
H 	H 	0.57431 0.76244 0.93159 0.08900
C 	C 	0.68657 0.77857 0.04685 0.01000
C 	C 	0.65325 0.75337 0.04030 -0.04900
C 	C 	0.64076 0.72823 0.07923 0.03100
C 	C 	0.66275 0.72643 0.12430 -0.13000
C 	C 	0.70068 0.74591 0.12700 0.14600
C 	C 	0.71164 0.77305 0.08881 -0.09400
H 	H 	0.61274 0.71181 0.07538 0.03600
H 	H 	0.73915 0.79035 0.09232 0.07600
H 	H 	0.63459 0.75629 0.00710 0.05700
N 	N 	0.72747 0.73690 0.16393 -0.20300
H 	H 	0.72394 0.71129 0.18615 0.10000
H 	H 	0.75406 0.75346 0.16771 0.09400
C 	C 	0.83921 0.91342 0.00117 -0.00100
C 	C 	0.86729 0.88836 0.02497 -0.03100
C 	C 	0.89868 0.90557 0.05255 0.01200
C 	C 	0.89977 0.94735 0.05904 -0.08500
C 	C 	0.87970 0.97138 0.02342 0.14600
C 	C 	0.84855 0.95427 0.99503 -0.10100
H 	H 	0.91835 0.88649 0.07449 0.03300
H 	H 	0.82964 0.97315 0.97165 0.06700
H 	H 	0.86238 0.85621 0.02668 0.06600
N 	N 	0.89096 0.01003 0.01535 -0.19700
H 	H 	0.91817 0.02095 0.02945 0.11000
H 	H 	0.87429 0.02844 0.99127 0.08700
C 	C 	0.82184 0.75386 0.71900 -0.02300
C 	C 	0.82740 0.79335 0.73626 -0.03600
C 	C 	0.81132 0.80543 0.78237 0.02200
C 	C 	0.78919 0.77838 0.81190 -0.11100
C 	C 	0.78534 0.73785 0.79609 0.13100
C 	C 	0.80104 0.72614 0.74919 -0.07300
H 	H 	0.81463 0.83642 0.79419 0.03800
H 	H 	0.79782 0.69526 0.73685 0.06600
H 	H 	0.84360 0.81498 0.71353 0.05800
N 	N 	0.76771 0.70994 0.82627 -0.20200
H 	H 	0.75952 0.71672 0.86319 0.10000
H 	H 	0.76365 0.68047 0.81365 0.09300
C 	C 	0.46405 0.80248 0.32539 0.01500
C 	C 	0.45231 0.76212 0.32265 -0.03700
C 	C 	0.48139 0.73159 0.32305 0.01000
C 	C 	0.52258 0.74112 0.32583 -0.06600
C 	C 	0.53367 0.78098 0.33820 0.12900
C 	C 	0.50453 0.81172 0.33561 -0.07500
H 	H 	0.47211 0.70088 0.31614 0.05000
H 	H 	0.51357 0.84275 0.34056 0.08000
H 	H 	0.42106 0.75449 0.31583 0.05800
N 	N 	0.57109 0.78944 0.35579 -0.20000
H 	H 	0.58901 0.76692 0.37139 0.11800
H 	H 	0.58047 0.81924 0.35983 0.09900
C 	C 	0.39174 0.99661 0.21710 0.00800
C 	C 	0.39371 0.99117 0.16498 -0.04900
C 	C 	0.39334 0.02416 0.13262 0.03300
C 	C 	0.39135 0.06339 0.15174 -0.12000
C 	C 	0.39050 0.06932 0.20472 0.13900
C 	C 	0.38989 0.03559 0.23699 -0.08700
H 	H 	0.39411 0.01916 0.09240 0.03700
H 	H 	0.38887 0.03985 0.27734 0.07100
H 	H 	0.39544 0.96115 0.14939 0.04100
N 	N 	0.39183 0.10690 0.22474 -0.20300
H 	H 	0.39728 0.13208 0.20242 0.09700
H 	H 	0.38939 0.11105 0.26355 0.09400
C 	C 	0.60716 0.92340 0.09002 -0.05100
C 	C 	0.56988 0.94299 0.08677 -0.02500
C 	C 	0.53573 0.92635 0.10925 0.02000
C 	C 	0.53825 0.88967 0.13506 -0.10900
C 	C 	0.57557 0.86900 0.13693 0.13500
C 	C 	0.61015 0.88720 0.11682 -0.06900
H 	H 	0.50743 0.94254 0.10769 0.03900
H 	H 	0.63880 0.87161 0.11866 0.06700
H 	H 	0.56716 0.97071 0.06569 0.05100
N 	N 	0.57793 0.83105 0.15574 -0.20200
H 	H 	0.55205 0.81490 0.16523 0.10900
H 	H 	0.60574 0.81644 0.15832 0.10000
C 	C 	0.30823 0.77618 0.05120 0.02700
C 	C 	0.31383 0.81759 0.04507 -0.05800
C 	C 	0.32653 0.84116 0.08564 0.04100
C 	C 	0.33528 0.82321 0.13220 -0.13300
C 	C 	0.32922 0.78132 0.13837 0.14900
C 	C 	0.31196 0.75922 0.09913 -0.09500
H 	H 	0.33063 0.87319 0.08048 0.04000
H 	H 	0.30681 0.72730 0.10411 0.07700
H 	H 	0.31044 0.83119 0.00834 0.07100
N 	N 	0.34324 0.76167 0.17966 -0.20400
H 	H 	0.36509 0.77447 0.20289 0.10400
H 	H 	0.33553 0.73163 0.18590 0.09600
C 	C 	0.29206 0.89753 0.41274 -0.04100
C 	C 	0.26591 0.93048 0.41031 -0.02100
C 	C 	0.23458 0.93438 0.44511 0.00200
C 	C 	0.22773 0.90429 0.48109 -0.06600
C 	C 	0.25791 0.87489 0.48886 0.11400
C 	C 	0.28904 0.87056 0.45316 -0.05600
H 	H 	0.21300 0.95854 0.44062 0.04600
H 	H 	0.31095 0.84662 0.45720 0.06400
H 	H 	0.26908 0.95248 0.38056 0.04700
N 	N 	0.25892 0.85309 0.53194 -0.19600
H 	H 	0.24211 0.86186 0.56324 0.09600
H 	H 	0.27949 0.82956 0.53612 0.09400
C 	C 	0.46203 0.22611 0.60940 -0.02700
C 	C 	0.42171 0.22534 0.62516 -0.03500
C 	C 	0.40083 0.26122 0.63268 0.02300
C 	C 	0.42003 0.29810 0.62445 -0.11600
C 	C 	0.45888 0.29886 0.60256 0.13200
C 	C 	0.47994 0.26270 0.59603 -0.07100
H 	H 	0.37066 0.26040 0.64823 0.03500
H 	H 	0.51053 0.26313 0.58172 0.06100
H 	H 	0.40739 0.19709 0.63470 0.05200
N 	N 	0.47602 0.33412 0.58804 -0.20300
H 	H 	0.45990 0.36107 0.58913 0.09300
H 	H 	0.50530 0.33463 0.57362 0.09100
C 	C 	0.43324 0.10441 0.86514 -0.04600
C 	C 	0.46354 0.07520 0.86813 -0.01500
C 	C 	0.48405 0.06324 0.82473 -0.00700
C 	C 	0.47489 0.08101 0.77825 -0.06700
C 	C 	0.43974 0.10486 0.77412 0.11900
C 	C 	0.42004 0.11768 0.81798 -0.05900
H 	H 	0.50928 0.04277 0.82797 0.04700
H 	H 	0.39506 0.13859 0.81545 0.05200
H 	H 	0.47299 0.06371 0.90436 0.04400
N 	N 	0.42519 0.11590 0.72842 -0.19900
H 	H 	0.43656 0.10337 0.69537 0.11700
H 	H 	0.40076 0.13559 0.72569 0.09400
C 	C 	0.63039 0.97649 0.77806 -0.04500
C 	C 	0.66642 0.95572 0.76950 -0.01400
C 	C 	0.68765 0.93919 0.80981 0.00100
C 	C 	0.67398 0.94487 0.85922 -0.06500
C 	C 	0.63950 0.96907 0.86779 0.11200
C 	C 	0.61620 0.98155 0.82703 -0.04900
H 	H 	0.71416 0.92117 0.80253 0.05100
H 	H 	0.58902 0.99889 0.83361 0.06100
H 	H 	0.67783 0.95217 0.73161 0.04700
N 	N 	0.63050 0.98296 0.91433 -0.20300
H 	H 	0.60119 0.99237 0.92262 0.09500
H 	H 	0.65339 0.99182 0.93871 0.11400
C 	C 	0.45346 0.91508 0.49821 -0.02600
C 	C 	0.49270 0.91223 0.51692 -0.03200
C 	C 	0.50096 0.92374 0.56617 0.02000
C 	C 	0.46993 0.93848 0.59708 -0.11400
C 	C 	0.42948 0.93465 0.58087 0.13400
C 	C 	0.42164 0.92497 0.53051 -0.07000
H 	H 	0.53190 0.92391 0.57908 0.04300
H 	H 	0.39086 0.92424 0.51683 0.06200
H 	H 	0.51712 0.90275 0.49262 0.05200
N 	N 	0.39846 0.93835 0.61386 -0.20100
H 	H 	0.40368 0.93952 0.65254 0.10500
H 	H 	0.36865 0.93735 0.60127 0.09300
C 	C 	0.62714 0.26419 0.82184 -0.02400
C 	C 	0.64356 0.26454 0.77324 -0.03900
C 	C 	0.63783 0.23174 0.74116 0.02900
C 	C 	0.61555 0.19828 0.75722 -0.12900
C 	C 	0.59726 0.19869 0.80547 0.13600
C 	C 	0.60418 0.23120 0.83772 -0.07400
H 	H 	0.65151 0.23195 0.70419 0.03800
H 	H 	0.59122 0.23095 0.87512 0.06800
H 	H 	0.66082 0.29015 0.76028 0.05500
N 	N 	0.57226 0.16860 0.82050 -0.20400
H 	H 	0.56286 0.14625 0.79583 0.10200
H 	H 	0.56028 0.16848 0.85682 0.09700
C 	C 	0.66842 0.11929 0.49746 -0.04200
C 	C 	0.66961 0.07800 0.50838 -0.01700
C 	C 	0.63640 0.05952 0.53092 0.00100
C 	C 	0.60297 0.08269 0.54490 -0.06700
C 	C 	0.59793 0.12061 0.52207 0.10600
C 	C 	0.63148 0.13974 0.50067 -0.05700
H 	H 	0.63906 0.02880 0.54391 0.04900
H 	H 	0.62886 0.17030 0.48694 0.06100
H 	H 	0.69691 0.06084 0.50236 0.05400
N 	N 	0.56106 0.13808 0.51950 -0.20500
H 	H 	0.53500 0.12140 0.52642 0.10900
H 	H 	0.55794 0.16750 0.50631 0.09100
