data_crystal

_cell_length_a 39.44674
_cell_length_b 36.29959
_cell_length_c 48.42191
_cell_angle_alpha 104.42480
_cell_angle_beta  116.12098
_cell_angle_gamma 110.62136

_symmetry_space_group_name_	'P 1'
_symmetry_space_group_name_H-M	'P 1'

loop_
_symmetry_equiv_pos_as_xyz
  x,y,z

loop_
_atom_site_label
_atom_site_type_symbol
_atom_site_fract_x
_atom_site_fract_y
_atom_site_fract_z
_atom_site_charge
C 	C 	0.24644 0.10573 0.92974 -0.01700
C 	C 	0.25700 0.14540 0.92724 -0.03000
C 	C 	0.29250 0.16547 0.92491 -0.02000
C 	C 	0.31682 0.14535 0.92433 -0.03000
C 	C 	0.30723 0.10646 0.92783 -0.01700
C 	C 	0.27134 0.08609 0.92969 -0.02900
H 	H 	0.23870 0.16141 0.92834 0.04400
H 	H 	0.34485 0.16140 0.92326 0.04700
H 	H 	0.26407 0.05618 0.93266 0.06100
C 	C 	0.29899 0.13539 0.45760 0.00700
C 	C 	0.30823 0.17343 0.45288 -0.06400
C 	C 	0.34207 0.19149 0.44847 0.10400
C 	C 	0.36502 0.17003 0.44681 -0.07500
C 	C 	0.35652 0.13248 0.45214 0.00500
C 	C 	0.32288 0.11470 0.45689 -0.04500
H 	H 	0.29058 0.19014 0.45429 0.07500
H 	H 	0.39157 0.18435 0.44381 0.06100
H 	H 	0.31695 0.08634 0.46188 0.05000
C 	C 	0.21812 0.37979 0.98350 -0.01700
C 	C 	0.19477 0.40140 0.98360 -0.03100
C 	C 	0.15420 0.37949 0.97935 -0.01900
C 	C 	0.13890 0.33750 0.97810 -0.03100
C 	C 	0.16309 0.31659 0.97974 -0.01900
C 	C 	0.20238 0.33745 0.98193 -0.03200
H 	H 	0.20707 0.43432 0.98534 0.05500
H 	H 	0.10744 0.32041 0.97466 0.04500
H 	H 	0.22010 0.32046 0.98171 0.04200
C 	C 	0.26875 0.40616 0.50756 -0.01900
C 	C 	0.24546 0.42821 0.50536 -0.03100
C 	C 	0.20630 0.40950 0.50363 -0.01900
C 	C 	0.19118 0.36925 0.50508 -0.03100
C 	C 	0.21447 0.34720 0.50749 -0.01900
C 	C 	0.25372 0.36617 0.50942 -0.03100
H 	H 	0.25657 0.45869 0.50332 0.04600
H 	H 	0.16019 0.35401 0.50260 0.04600
H 	H 	0.27156 0.34899 0.51098 0.05100
Zn	Zn	0.08060 0.57519 0.99249 1.18800
Zn	Zn	0.00515 0.54475 0.92017 1.19300
O 	O 	0.99287 0.46572 0.86078 -0.43600
O 	O 	0.98316 0.52527 0.86919 -0.42600
O 	O 	0.99289 0.41046 0.90797 -0.45700
C 	C 	0.11404 0.54673 0.95642 0.38500
O 	O 	0.96180 0.48422 0.90696 -0.86600
C 	C 	0.08345 0.64061 0.96682 0.38400
O 	O 	0.12612 0.57080 0.98796 -0.43800
O 	O 	0.07149 0.51913 0.93087 -0.36600
O 	O 	0.02069 0.55098 0.96821 -0.77400
O 	O 	0.03435 0.47089 0.96196 -0.46200
O 	O 	0.05279 0.60578 0.93489 -0.47000
O 	O 	0.09746 0.63508 0.99481 -0.43200
Zn	Zn	0.88223 0.41516 0.92245 1.18700
Zn	Zn	0.95836 0.43273 0.98499 1.18900
Zn	Zn	0.97912 0.48986 0.95250 1.22100
C 	C 	0.87537 0.34194 0.94150 0.39400
C 	C 	0.86265 0.44527 0.96955 0.38000
O 	O 	0.92496 0.51205 0.94419 -0.44300
Zn	Zn	0.96909 0.51776 0.01413 1.20300
O 	O 	0.91770 0.36890 0.96868 -0.46400
O 	O 	0.85593 0.35400 0.91855 -0.43400
O 	O 	0.85039 0.43468 0.93733 -0.42000
O 	O 	0.90259 0.45503 0.99332 -0.48400
C 	C 	0.99561 0.48413 0.06296 0.33400
O 	O 	0.93784 0.42890 0.93676 -0.78700
C 	C 	0.92433 0.54130 0.96625 0.39600
O 	O 	0.98331 0.44778 0.03673 -0.43000
O 	O 	0.99596 0.51899 0.05924 -0.46100
O 	O 	0.94404 0.55026 0.99911 -0.49600
O 	O 	0.99527 0.49455 0.99745 -0.88300
Zn	Zn	0.97148 0.44167 0.88614 1.19800
C 	C 	0.98801 0.49580 0.85166 0.30200
C 	C 	0.02719 0.43363 0.94099 0.37700
H 	H 	0.02741 0.50781 0.01507 0.16100
H 	H 	0.93061 0.47616 0.89201 0.16600
Zn	Zn	0.12809 0.60463 0.51771 1.19100
Zn	Zn	0.05274 0.57364 0.44412 1.19800
O 	O 	0.04748 0.50099 0.38725 -0.45200
O 	O 	0.03097 0.55566 0.39328 -0.42900
O 	O 	0.04574 0.44094 0.43078 -0.50700
C 	C 	0.16733 0.58162 0.48538 0.38000
O 	O 	0.01108 0.51189 0.43012 -0.88500
C 	C 	0.13052 0.67015 0.49176 0.38800
O 	O 	0.17619 0.60254 0.51628 -0.46400
O 	O 	0.12576 0.55688 0.45764 -0.34100
O 	O 	0.06794 0.57821 0.49168 -0.76900
O 	O 	0.08525 0.50002 0.48510 -0.43800
O 	O 	0.09899 0.63583 0.45966 -0.42800
O 	O 	0.14366 0.66426 0.51961 -0.46200
Zn	Zn	0.93181 0.43965 0.44372 1.18100
Zn	Zn	0.00808 0.45741 0.50664 1.19000
Zn	Zn	0.02808 0.51629 0.47527 1.21600
C 	C 	0.92576 0.36683 0.46336 0.29500
C 	C 	0.90979 0.46728 0.48950 0.38500
O 	O 	0.97209 0.53578 0.46665 -0.47500
Zn	Zn	0.01650 0.54154 0.53621 1.19900
O 	O 	0.96863 0.39314 0.48943 -0.43000
O 	O 	0.90606 0.37848 0.44016 -0.42100
O 	O 	0.89913 0.45865 0.45788 -0.46100
O 	O 	0.94973 0.47787 0.51401 -0.47100
C 	C 	0.04038 0.50551 0.58356 0.31400
O 	O 	0.98794 0.45464 0.45879 -0.78300
C 	C 	0.97231 0.56581 0.48886 0.40200
O 	O 	0.03133 0.47100 0.55787 -0.41900
O 	O 	0.04217 0.54126 0.58078 -0.46100
O 	O 	0.99153 0.57430 0.52158 -0.47000
O 	O 	0.04383 0.51981 0.51989 -0.89500
Zn	Zn	0.02374 0.47227 0.40962 1.18800
C 	C 	0.03789 0.52804 0.37631 0.30600
C 	C 	0.07934 0.46370 0.46402 0.39600
H 	H 	0.07604 0.53365 0.53772 0.18600
H 	H 	0.97951 0.50256 0.41478 0.16200
C 	C 	0.99253 0.49908 0.82371 -0.05900
C 	C 	0.97054 0.45996 0.79243 0.00400
C 	C 	0.97977 0.46175 0.76789 -0.02000
C 	C 	0.01136 0.50268 0.77449 -0.01200
C 	C 	0.02290 0.54033 0.82979 -0.01100
C 	C 	0.02294 0.50400 0.74947 0.10700
N 	N 	0.02260 0.46865 0.73111 -0.08200
N 	N 	0.03099 0.46888 0.70732 -0.08000
C 	C 	0.04013 0.50452 0.70127 0.10100
N 	N 	0.04121 0.54019 0.72005 -0.08100
N 	N 	0.03276 0.53995 0.74381 -0.08200
C 	C 	0.04568 0.50322 0.67290 0.01500
C 	C 	0.02007 0.46307 0.61264 0.00500
C 	C 	0.04700 0.50338 0.61538 -0.08000
C 	C 	0.07560 0.54293 0.64775 0.01600
C 	C 	0.07492 0.54287 0.67635 -0.04800
C 	C 	0.03239 0.54213 0.80533 -0.03400
C 	C 	0.01935 0.46299 0.64125 -0.05800
H 	H 	0.94687 0.42800 0.78742 0.03500
H 	H 	0.96261 0.43123 0.74389 0.05500
H 	H 	0.05689 0.57393 0.81081 0.05000
H 	H 	0.04044 0.57066 0.85405 0.04100
H 	H 	0.99689 0.43206 0.63829 0.07500
H 	H 	0.99798 0.43227 0.58786 0.06000
H 	H 	0.09633 0.57387 0.70092 0.05700
H 	H 	0.09728 0.57406 0.65043 0.03800
C 	C 	0.03945 0.53049 0.34700 -0.07400
C 	C 	0.07213 0.52738 0.34376 0.01400
C 	C 	0.07047 0.52387 0.31374 -0.04400
C 	C 	0.03607 0.52342 0.28661 0.01400
C 	C 	0.00622 0.53208 0.32064 -0.00100
C 	C 	0.03227 0.51607 0.25375 0.09100
N 	N 	0.06946 0.53353 0.25446 -0.08000
N 	N 	0.06607 0.52572 0.22469 -0.08200
C 	C 	0.02541 0.50003 0.19334 0.09300
N 	N 	0.98823 0.48244 0.19262 -0.07400
N 	N 	0.99162 0.49026 0.22239 -0.07300
C 	C 	0.02153 0.49375 0.16056 0.00200
C 	C 	0.04340 0.52519 0.12818 0.02400
C 	C 	0.00797 0.48533 0.09673 -0.11900
C 	C 	0.98089 0.44879 0.09757 0.03500
C 	C 	0.98755 0.45301 0.12934 -0.04100
C 	C 	0.00443 0.52841 0.29050 -0.05900
C 	C 	0.05020 0.52938 0.15993 -0.05300
H 	H 	0.09839 0.52687 0.36425 0.06700
H 	H 	0.09521 0.52027 0.31118 0.05700
H 	H 	0.97821 0.52897 0.27005 0.06600
H 	H 	0.98098 0.53472 0.32296 0.04600
H 	H 	0.07672 0.56088 0.18384 0.05400
H 	H 	0.06484 0.55342 0.12787 0.02600
H 	H 	0.96576 0.42495 0.12957 0.05500
H 	H 	0.95349 0.41782 0.07346 0.03400
C 	C 	0.19545 0.30221 0.50468 0.10700
C 	C 	0.18668 0.29599 0.52882 -0.12500
C 	C 	0.16572 0.25291 0.52467 0.09800
C 	C 	0.15335 0.21560 0.49635 -0.23000
C 	C 	0.16312 0.22197 0.47264 0.41600
C 	C 	0.18385 0.26506 0.47673 -0.21900
H 	H 	0.15855 0.24848 0.54320 0.02000
H 	H 	0.19048 0.26954 0.45796 0.11900
H 	H 	0.19567 0.32447 0.55057 0.06900
F 	F 	0.15316 0.18657 0.44598 -0.45400
C 	C 	0.30535 0.42170 0.50339 0.10800
C 	C 	0.34477 0.46392 0.52839 -0.12600
C 	C 	0.37898 0.47876 0.52391 0.10000
C 	C 	0.37385 0.45165 0.49426 -0.23500
C 	C 	0.33454 0.40913 0.46946 0.41700
C 	C 	0.30046 0.39442 0.47398 -0.22100
H 	H 	0.40926 0.51141 0.54331 0.01300
H 	H 	0.27016 0.36177 0.45457 0.11900
H 	H 	0.34890 0.48518 0.55124 0.07000
F 	F 	0.32972 0.38173 0.44134 -0.46800
C 	C 	0.17803 0.42871 0.49569 0.10700
C 	C 	0.15927 0.42972 0.46387 -0.12300
C 	C 	0.12784 0.44216 0.45401 0.11000
C 	C 	0.11486 0.45384 0.47589 -0.24100
C 	C 	0.13495 0.45463 0.50845 0.41400
C 	C 	0.16638 0.44201 0.51826 -0.22100
H 	H 	0.11307 0.44208 0.42909 0.03600
H 	H 	0.18087 0.44152 0.54297 0.11600
H 	H 	0.16803 0.41955 0.44628 0.07400
F 	F 	0.12286 0.46597 0.52994 -0.48800
C 	C 	0.14633 0.27210 0.97802 0.10300
C 	C 	0.13305 0.23447 0.94945 -0.12600
C 	C 	0.11286 0.19163 0.94595 0.09600
C 	C 	0.10564 0.18598 0.97097 -0.22900
C 	C 	0.11966 0.22383 0.99990 0.40900
C 	C 	0.14008 0.26663 0.00344 -0.21600
H 	H 	0.10278 0.16286 0.92378 0.01700
H 	H 	0.15021 0.29550 0.02556 0.11500
H 	H 	0.13757 0.23831 0.92962 0.06700
F 	F 	0.11226 0.21902 0.02400 -0.46400
C 	C 	0.25666 0.39972 0.98184 0.10400
C 	C 	0.29654 0.40292 0.00431 -0.12200
C 	C 	0.33193 0.41953 0.00134 0.09500
C 	C 	0.32806 0.43377 0.97618 -0.22600
C 	C 	0.28906 0.43298 0.95511 0.41500
C 	C 	0.25330 0.41517 0.95743 -0.21600
H 	H 	0.36184 0.42024 0.01798 0.01900
H 	H 	0.22277 0.41299 0.93998 0.12000
H 	H 	0.29993 0.39203 0.02377 0.06600
F 	F 	0.28569 0.44919 0.93221 -0.43900
C 	C 	0.12509 0.39777 0.97170 0.11200
C 	C 	0.10943 0.40552 0.99224 -0.13100
C 	C 	0.07818 0.41834 0.98268 0.10400
C 	C 	0.06223 0.42324 0.95245 -0.24100
C 	C 	0.07934 0.41737 0.93279 0.42400
C 	C 	0.11046 0.40452 0.94231 -0.21900
H 	H 	0.06565 0.42344 0.99829 -0.00800
H 	H 	0.12254 0.39888 0.92641 0.12200
H 	H 	0.12087 0.40085 0.01519 0.06800
F 	F 	0.06576 0.42411 0.90443 -0.46700
C 	C 	0.38735 0.11644 0.45837 0.10200
C 	C 	0.37118 0.07125 0.43814 -0.12900
C 	C 	0.39972 0.05513 0.44675 0.10100
C 	C 	0.44454 0.08407 0.47573 -0.24900
C 	C 	0.46118 0.12976 0.49475 0.42100
C 	C 	0.43266 0.14580 0.48619 -0.22200
H 	H 	0.44548 0.18080 0.50184 0.12800
H 	H 	0.33634 0.04843 0.41637 0.06500
F 	F 	0.50479 0.15838 0.52215 -0.46600
C 	C 	0.40030 0.32228 0.45879 0.00000
C 	C 	0.37169 0.28427 0.42547 -0.03900
C 	C 	0.35099 0.24146 0.42182 0.02100
C 	C 	0.35844 0.23644 0.45139 -0.12400
C 	C 	0.38544 0.27461 0.48447 0.35000
C 	C 	0.40631 0.31732 0.48812 -0.13800
H 	H 	0.33015 0.21218 0.39621 0.03000
H 	H 	0.42776 0.34655 0.51385 0.10800
H 	H 	0.36665 0.28777 0.40263 0.05100
F 	F 	0.39275 0.27012 0.51324 -0.45000
C 	C 	0.26724 0.11978 0.46649 0.10500
C 	C 	0.27490 0.14857 0.49687 -0.12000
C 	C 	0.24331 0.13515 0.50404 0.10300
C 	C 	0.20369 0.09270 0.48091 -0.22200
C 	C 	0.19719 0.06291 0.45146 0.41400
C 	C 	0.22878 0.07657 0.44424 -0.21700
H 	H 	0.24892 0.15840 0.52690 0.02500
H 	H 	0.22299 0.05388 0.42103 0.11400
H 	H 	0.30496 0.18171 0.51455 0.08500
F 	F 	0.16005 0.02102 0.42961 -0.46800
C 	C 	0.33871 0.09121 0.93495 0.11100
C 	C 	0.38280 0.11980 0.96497 -0.12900
C 	C 	0.41155 0.10412 0.97393 0.10600
C 	C 	0.39650 0.05959 0.95311 -0.24300
C 	C 	0.35298 0.03155 0.92200 0.43200
C 	C 	0.32416 0.04734 0.91307 -0.21600
H 	H 	0.44520 0.12619 0.99769 0.01500
H 	H 	0.29029 0.02522 0.88961 0.12900
H 	H 	0.39436 0.15380 0.98195 0.06900
C 	C 	0.30781 0.21026 0.92750 0.10800
C 	C 	0.33022 0.24808 0.95975 -0.13000
C 	C 	0.35130 0.29114 0.96400 0.10200
C 	C 	0.34994 0.29674 0.93597 -0.23400
C 	C 	0.32581 0.25887 0.90319 0.41900
C 	C 	0.30491 0.21579 0.89904 -0.22200
H 	H 	0.36929 0.32015 0.98924 0.01300
H 	H 	0.28764 0.18670 0.87405 0.12000
H 	H 	0.33259 0.24408 0.98186 0.06700
F 	F 	0.32427 0.26379 0.87585 -0.46400
C 	C 	0.21166 0.08682 0.93524 0.10900
C 	C 	0.16762 0.07284 0.91012 -0.12400
C 	C 	0.13540 0.05820 0.91654 0.10300
C 	C 	0.14692 0.05745 0.94822 -0.22000
C 	C 	0.19065 0.06979 0.97279 0.41800
C 	C 	0.22290 0.08459 0.96636 -0.21800
H 	H 	0.10178 0.04870 0.89734 0.02100
H 	H 	0.25679 0.09504 0.98580 0.11900
H 	H 	0.15856 0.07406 0.88588 0.07000
F 	F 	0.20189 0.06752 0.00288 -0.45400
C 	C 	0.24644 0.60573 0.92974 -0.01800
C 	C 	0.25700 0.64540 0.92724 -0.03100
C 	C 	0.31682 0.64535 0.92433 -0.03100
C 	C 	0.30723 0.60646 0.92783 -0.01800
C 	C 	0.27134 0.58609 0.92969 -0.03000
H 	H 	0.34485 0.66140 0.92326 0.04600
H 	H 	0.26407 0.55618 0.93266 0.06000
C 	C 	0.29899 0.63539 0.45760 0.00600
C 	C 	0.30823 0.67343 0.45288 -0.06400
C 	C 	0.36502 0.67003 0.44681 -0.07500
C 	C 	0.35652 0.63248 0.45214 0.00500
C 	C 	0.32288 0.61470 0.45689 -0.04500
H 	H 	0.39157 0.68435 0.44381 0.06100
H 	H 	0.31695 0.58634 0.46188 0.05000
Zn	Zn	0.08060 0.07519 0.99249 1.18800
Zn	Zn	0.00515 0.04476 0.92017 1.19300
O 	O 	0.98316 0.02527 0.86919 -0.42600
C 	C 	0.11404 0.04673 0.95642 0.38500
C 	C 	0.08345 0.14061 0.96682 0.38400
O 	O 	0.12612 0.07080 0.98796 -0.43800
O 	O 	0.07149 0.01913 0.93087 -0.36600
O 	O 	0.02069 0.05098 0.96821 -0.77400
O 	O 	0.05279 0.10578 0.93489 -0.47000
O 	O 	0.09746 0.13508 0.99481 -0.43200
O 	O 	0.92496 0.01205 0.94419 -0.44300
C 	C 	0.92433 0.04130 0.96625 0.39600
O 	O 	0.94404 0.05026 0.99911 -0.49600
H 	H 	0.02741 0.00781 0.01507 0.16100
Zn	Zn	0.12809 0.10463 0.51771 1.19100
Zn	Zn	0.05274 0.07364 0.44412 1.19800
O 	O 	0.03097 0.05566 0.39328 -0.42900
C 	C 	0.16733 0.08162 0.48538 0.38000
C 	C 	0.13052 0.17014 0.49176 0.38800
O 	O 	0.17619 0.10254 0.51628 -0.46400
O 	O 	0.12576 0.05688 0.45764 -0.34100
O 	O 	0.06794 0.07821 0.49168 -0.76900
O 	O 	0.09899 0.13583 0.45966 -0.42800
O 	O 	0.14366 0.16426 0.51961 -0.46200
O 	O 	0.97209 0.03578 0.46665 -0.47600
C 	C 	0.97231 0.06581 0.48886 0.40200
O 	O 	0.99153 0.07430 0.52158 -0.47000
C 	C 	0.03789 0.02805 0.37631 0.30600
H 	H 	0.07604 0.03365 0.53772 0.18600
C 	C 	0.01136 0.00268 0.77449 -0.01100
C 	C 	0.02290 0.04033 0.82979 -0.01000
C 	C 	0.02294 0.00400 0.74947 0.10700
N 	N 	0.04121 0.04019 0.72005 -0.08100
N 	N 	0.03276 0.03995 0.74381 -0.08200
C 	C 	0.07492 0.04287 0.67635 -0.04800
C 	C 	0.03239 0.04213 0.80533 -0.03400
H 	H 	0.05689 0.07393 0.81081 0.05000
H 	H 	0.04044 0.07066 0.85405 0.04100
H 	H 	0.09633 0.07387 0.70092 0.05700
H 	H 	0.09728 0.07406 0.65043 0.03800
C 	C 	0.03945 0.03049 0.34700 -0.07400
C 	C 	0.07213 0.02738 0.34376 0.01400
C 	C 	0.07047 0.02387 0.31374 -0.04400
C 	C 	0.03607 0.02342 0.28661 0.01400
C 	C 	0.00622 0.03208 0.32064 -0.00100
C 	C 	0.03227 0.01607 0.25375 0.09100
N 	N 	0.06946 0.03353 0.25446 -0.08000
N 	N 	0.06607 0.02572 0.22469 -0.08200
C 	C 	0.00443 0.02841 0.29050 -0.05900
H 	H 	0.09839 0.02687 0.36425 0.06700
H 	H 	0.09521 0.02027 0.31118 0.05700
H 	H 	0.98098 0.03472 0.32296 0.04500
F 	F 	0.15316 0.68657 0.44598 -0.45400
H 	H 	0.10278 0.66286 0.92378 0.01700
C 	C 	0.38735 0.61644 0.45837 0.10200
C 	C 	0.37118 0.57125 0.43814 -0.12900
C 	C 	0.39972 0.55513 0.44675 0.10100
C 	C 	0.44454 0.58407 0.47573 -0.24900
C 	C 	0.46118 0.62976 0.49475 0.42100
C 	C 	0.43266 0.64580 0.48619 -0.22200
H 	H 	0.38660 0.51985 0.43179 0.00700
H 	H 	0.44548 0.68080 0.50184 0.12800
H 	H 	0.33634 0.54844 0.41637 0.06500
F 	F 	0.50479 0.65838 0.52215 -0.46600
H 	H 	0.33015 0.71218 0.39621 0.03000
C 	C 	0.26724 0.61978 0.46649 0.10500
C 	C 	0.27490 0.64857 0.49687 -0.12000
C 	C 	0.24331 0.63515 0.50404 0.10300
C 	C 	0.20369 0.59270 0.48091 -0.22200
C 	C 	0.19719 0.56291 0.45146 0.41400
C 	C 	0.22878 0.57657 0.44424 -0.21700
H 	H 	0.24892 0.65840 0.52690 0.02500
H 	H 	0.22299 0.55388 0.42103 0.11400
H 	H 	0.30496 0.68171 0.51455 0.08500
F 	F 	0.16005 0.52102 0.42961 -0.46800
C 	C 	0.33871 0.59121 0.93495 0.11100
C 	C 	0.38280 0.61980 0.96497 -0.12900
C 	C 	0.41155 0.60412 0.97393 0.10600
C 	C 	0.39650 0.55959 0.95311 -0.24300
C 	C 	0.35298 0.53155 0.92200 0.43200
C 	C 	0.32416 0.54734 0.91307 -0.21600
H 	H 	0.44520 0.62619 0.99769 0.01500
H 	H 	0.29029 0.52522 0.88961 0.12900
H 	H 	0.39436 0.65380 0.98195 0.06900
F 	F 	0.33808 0.48860 0.90118 -0.46300
H 	H 	0.28764 0.68670 0.87405 0.12000
C 	C 	0.21166 0.58682 0.93524 0.10900
C 	C 	0.16762 0.57284 0.91012 -0.12400
C 	C 	0.13540 0.55820 0.91654 0.10300
C 	C 	0.14692 0.55745 0.94822 -0.22000
C 	C 	0.19065 0.56979 0.97279 0.41800
C 	C 	0.22290 0.58459 0.96636 -0.21800
H 	H 	0.10178 0.54870 0.89734 0.02100
H 	H 	0.25679 0.59504 0.98580 0.11900
H 	H 	0.15856 0.57406 0.88588 0.07000
F 	F 	0.20189 0.56752 0.00288 -0.45400
C 	C 	0.74644 0.10573 0.92974 -0.01800
C 	C 	0.75700 0.14540 0.92724 -0.03100
C 	C 	0.79250 0.16547 0.92491 -0.02000
C 	C 	0.81682 0.14535 0.92433 -0.03100
C 	C 	0.80723 0.10646 0.92783 -0.01700
C 	C 	0.77134 0.08609 0.92969 -0.03000
H 	H 	0.73870 0.16141 0.92834 0.04300
H 	H 	0.84485 0.16140 0.92326 0.04700
H 	H 	0.76407 0.05618 0.93266 0.06000
C 	C 	0.79899 0.13539 0.45760 0.00600
C 	C 	0.80823 0.17343 0.45288 -0.06400
C 	C 	0.84207 0.19149 0.44847 0.10400
C 	C 	0.86502 0.17003 0.44681 -0.07400
C 	C 	0.85652 0.13248 0.45214 0.00400
C 	C 	0.82288 0.11470 0.45689 -0.04400
H 	H 	0.79058 0.19014 0.45429 0.07500
H 	H 	0.89157 0.18435 0.44381 0.06200
H 	H 	0.81695 0.08634 0.46188 0.05100
C 	C 	0.71812 0.37979 0.98350 -0.01700
C 	C 	0.69477 0.40140 0.98360 -0.03100
C 	C 	0.65420 0.37949 0.97935 -0.01900
C 	C 	0.63890 0.33750 0.97810 -0.03100
C 	C 	0.66309 0.31659 0.97974 -0.01800
C 	C 	0.70238 0.33745 0.98193 -0.03100
H 	H 	0.70707 0.43432 0.98534 0.05500
H 	H 	0.60744 0.32041 0.97466 0.04600
H 	H 	0.72010 0.32046 0.98171 0.04200
C 	C 	0.76875 0.40616 0.50756 -0.01900
C 	C 	0.74546 0.42821 0.50536 -0.03100
C 	C 	0.70630 0.40950 0.50363 -0.01900
C 	C 	0.69118 0.36925 0.50508 -0.03100
C 	C 	0.71447 0.34720 0.50749 -0.01800
C 	C 	0.75372 0.36617 0.50942 -0.03100
H 	H 	0.75657 0.45869 0.50332 0.04600
H 	H 	0.66019 0.35401 0.50260 0.04700
H 	H 	0.77156 0.34899 0.51098 0.05100
Zn	Zn	0.58060 0.57519 0.99249 1.18900
Zn	Zn	0.50515 0.54475 0.92017 1.19700
O 	O 	0.49287 0.46572 0.86078 -0.44200
O 	O 	0.48316 0.52527 0.86919 -0.43400
O 	O 	0.49289 0.41046 0.90797 -0.47100
C 	C 	0.61404 0.54673 0.95642 0.38400
O 	O 	0.46180 0.48422 0.90696 -0.87100
C 	C 	0.58345 0.64061 0.96682 0.38400
O 	O 	0.62612 0.57080 0.98796 -0.43700
O 	O 	0.57149 0.51913 0.93087 -0.36200
O 	O 	0.52069 0.55098 0.96821 -0.76700
O 	O 	0.53435 0.47089 0.96196 -0.46000
O 	O 	0.55279 0.60578 0.93489 -0.46600
O 	O 	0.59746 0.63508 0.99481 -0.43100
Zn	Zn	0.38223 0.41516 0.92245 1.18700
Zn	Zn	0.45836 0.43273 0.98499 1.18800
Zn	Zn	0.47912 0.48986 0.95250 1.21900
C 	C 	0.37537 0.34194 0.94150 0.39400
C 	C 	0.36265 0.44527 0.96955 0.38000
O 	O 	0.42496 0.51205 0.94419 -0.44500
Zn	Zn	0.46909 0.51776 0.01413 1.20300
O 	O 	0.41770 0.36890 0.96868 -0.46600
O 	O 	0.35593 0.35400 0.91855 -0.43500
O 	O 	0.35039 0.43468 0.93733 -0.42000
O 	O 	0.40259 0.45503 0.99332 -0.48400
C 	C 	0.49561 0.48413 0.06296 0.31600
O 	O 	0.43784 0.42890 0.93676 -0.78900
C 	C 	0.42433 0.54130 0.96625 0.39600
O 	O 	0.48331 0.44778 0.03673 -0.42900
O 	O 	0.49596 0.51899 0.05924 -0.46200
O 	O 	0.44404 0.55026 0.99911 -0.49900
O 	O 	0.49527 0.49455 0.99745 -0.89600
Zn	Zn	0.47148 0.44167 0.88614 1.19600
C 	C 	0.48801 0.49580 0.85166 0.30900
C 	C 	0.52719 0.43363 0.94099 0.39300
H 	H 	0.52741 0.50781 0.01507 0.17300
H 	H 	0.43061 0.47616 0.89201 0.16600
Zn	Zn	0.62809 0.60463 0.51771 1.19100
Zn	Zn	0.55274 0.57364 0.44412 1.19900
O 	O 	0.54748 0.50099 0.38725 -0.45100
O 	O 	0.53097 0.55566 0.39328 -0.42600
O 	O 	0.54574 0.44094 0.43078 -0.50400
C 	C 	0.66733 0.58162 0.48538 0.38000
O 	O 	0.51108 0.51189 0.43012 -0.87200
C 	C 	0.63052 0.67015 0.49176 0.38800
O 	O 	0.67619 0.60254 0.51628 -0.46400
O 	O 	0.62576 0.55688 0.45764 -0.34100
O 	O 	0.56794 0.57821 0.49168 -0.76700
O 	O 	0.58524 0.50002 0.48510 -0.43700
O 	O 	0.59899 0.63583 0.45966 -0.42700
O 	O 	0.64366 0.66426 0.51961 -0.46100
Zn	Zn	0.43181 0.43965 0.44372 1.18000
Zn	Zn	0.50808 0.45741 0.50664 1.19400
Zn	Zn	0.52808 0.51629 0.47527 1.21800
C 	C 	0.42576 0.36683 0.46336 0.29500
C 	C 	0.40979 0.46728 0.48950 0.38600
O 	O 	0.47209 0.53578 0.46665 -0.48000
Zn	Zn	0.51650 0.54154 0.53621 1.20300
O 	O 	0.46863 0.39314 0.48943 -0.43600
O 	O 	0.40606 0.37848 0.44016 -0.42200
O 	O 	0.39913 0.45865 0.45788 -0.46200
O 	O 	0.44973 0.47787 0.51401 -0.47700
C 	C 	0.54038 0.50551 0.58356 0.31700
O 	O 	0.48794 0.45464 0.45879 -0.79200
C 	C 	0.47231 0.56581 0.48886 0.39900
O 	O 	0.53133 0.47100 0.55787 -0.41400
O 	O 	0.54217 0.54126 0.58078 -0.45800
O 	O 	0.49153 0.57430 0.52158 -0.47700
O 	O 	0.54383 0.51981 0.51989 -0.89100
Zn	Zn	0.52374 0.47227 0.40962 1.18900
C 	C 	0.53788 0.52804 0.37631 0.30900
C 	C 	0.57934 0.46370 0.46402 0.39600
H 	H 	0.57604 0.53365 0.53772 0.18600
H 	H 	0.47951 0.50256 0.41478 0.15000
C 	C 	0.49253 0.49908 0.82371 -0.08500
C 	C 	0.47054 0.45996 0.79243 0.01900
C 	C 	0.47977 0.46175 0.76789 -0.04700
C 	C 	0.51136 0.50268 0.77449 0.01300
C 	C 	0.52290 0.54033 0.82979 0.01600
C 	C 	0.52294 0.50400 0.74947 0.10300
N 	N 	0.52260 0.46865 0.73111 -0.07800
N 	N 	0.53099 0.46888 0.70732 -0.07800
C 	C 	0.54013 0.50452 0.70127 0.10400
N 	N 	0.54121 0.54019 0.72005 -0.08000
N 	N 	0.53276 0.53995 0.74381 -0.08000
C 	C 	0.54568 0.50322 0.67290 0.01300
C 	C 	0.52007 0.46307 0.61264 0.01800
C 	C 	0.54700 0.50338 0.61538 -0.08200
C 	C 	0.57560 0.54293 0.64775 0.01800
C 	C 	0.57492 0.54287 0.67635 -0.04700
C 	C 	0.53238 0.54213 0.80533 -0.04800
C 	C 	0.51935 0.46299 0.64125 -0.04500
H 	H 	0.44687 0.42800 0.78742 0.02900
H 	H 	0.46261 0.43123 0.74389 0.05700
H 	H 	0.55689 0.57393 0.81081 0.05500
H 	H 	0.54044 0.57066 0.85405 0.03700
H 	H 	0.49689 0.43206 0.63829 0.06300
H 	H 	0.49798 0.43227 0.58786 0.04800
H 	H 	0.59632 0.57387 0.70092 0.05800
H 	H 	0.59728 0.57406 0.65043 0.03900
C 	C 	0.53945 0.53049 0.34700 -0.07600
C 	C 	0.57213 0.52738 0.34376 0.01400
C 	C 	0.57047 0.52387 0.31374 -0.04100
C 	C 	0.53607 0.52342 0.28661 0.00900
C 	C 	0.50622 0.53208 0.32064 0.01100
C 	C 	0.53228 0.51607 0.25375 0.10400
N 	N 	0.56946 0.53353 0.25446 -0.08000
N 	N 	0.56607 0.52572 0.22469 -0.08100
C 	C 	0.52541 0.50003 0.19334 0.10200
N 	N 	0.48823 0.48244 0.19262 -0.08200
N 	N 	0.49162 0.49026 0.22239 -0.08200
C 	C 	0.52153 0.49375 0.16056 0.01100
C 	C 	0.54340 0.52519 0.12818 0.01600
C 	C 	0.50797 0.48533 0.09673 -0.08900
C 	C 	0.48089 0.44879 0.09757 0.01600
C 	C 	0.48755 0.45301 0.12934 -0.04900
C 	C 	0.50443 0.52841 0.29050 -0.04500
C 	C 	0.55020 0.52938 0.15993 -0.05000
H 	H 	0.59839 0.52687 0.36425 0.06700
H 	H 	0.59521 0.52027 0.31118 0.05800
H 	H 	0.47821 0.52897 0.27005 0.05300
H 	H 	0.48098 0.53472 0.32296 0.03300
H 	H 	0.57672 0.56088 0.18384 0.05500
H 	H 	0.56484 0.55342 0.12787 0.03200
H 	H 	0.46577 0.42495 0.12957 0.05400
H 	H 	0.45349 0.41782 0.07346 0.03800
C 	C 	0.69545 0.30221 0.50468 0.10700
C 	C 	0.68668 0.29599 0.52882 -0.12500
C 	C 	0.66572 0.25291 0.52467 0.09900
C 	C 	0.65335 0.21560 0.49635 -0.22900
C 	C 	0.66312 0.22197 0.47264 0.41600
C 	C 	0.68385 0.26506 0.47673 -0.21800
H 	H 	0.65855 0.24848 0.54320 0.02100
H 	H 	0.69048 0.26954 0.45796 0.12000
H 	H 	0.69567 0.32447 0.55057 0.07000
F 	F 	0.65316 0.18657 0.44598 -0.45300
C 	C 	0.80535 0.42170 0.50339 0.10800
C 	C 	0.84477 0.46392 0.52839 -0.12600
C 	C 	0.87898 0.47876 0.52391 0.10100
C 	C 	0.87386 0.45165 0.49426 -0.23400
C 	C 	0.83454 0.40913 0.46946 0.41700
C 	C 	0.80046 0.39442 0.47398 -0.22000
H 	H 	0.90926 0.51141 0.54331 0.01600
H 	H 	0.77016 0.36177 0.45457 0.11900
H 	H 	0.84890 0.48518 0.55124 0.07100
F 	F 	0.82972 0.38173 0.44134 -0.46800
C 	C 	0.67803 0.42871 0.49569 0.10700
C 	C 	0.65926 0.42972 0.46387 -0.12300
C 	C 	0.62784 0.44216 0.45401 0.11000
C 	C 	0.61486 0.45384 0.47589 -0.24100
C 	C 	0.63495 0.45463 0.50845 0.41500
C 	C 	0.66638 0.44201 0.51826 -0.22000
H 	H 	0.61307 0.44208 0.42909 0.03700
H 	H 	0.68087 0.44152 0.54297 0.11700
H 	H 	0.66803 0.41955 0.44628 0.07400
F 	F 	0.62286 0.46597 0.52994 -0.48700
C 	C 	0.64633 0.27210 0.97802 0.10300
C 	C 	0.63305 0.23447 0.94945 -0.12500
C 	C 	0.61286 0.19163 0.94595 0.09700
C 	C 	0.60564 0.18598 0.97097 -0.22800
C 	C 	0.61966 0.22383 0.99990 0.41000
C 	C 	0.64008 0.26663 0.00344 -0.21600
H 	H 	0.60278 0.16286 0.92378 0.01800
H 	H 	0.65021 0.29550 0.02556 0.11600
H 	H 	0.63757 0.23831 0.92962 0.06800
F 	F 	0.61226 0.21902 0.02400 -0.46200
C 	C 	0.75666 0.39972 0.98184 0.10400
C 	C 	0.79654 0.40292 0.00431 -0.12200
C 	C 	0.83193 0.41953 0.00134 0.09500
C 	C 	0.82806 0.43377 0.97618 -0.22600
C 	C 	0.78906 0.43298 0.95511 0.41500
C 	C 	0.75330 0.41517 0.95743 -0.21600
H 	H 	0.86184 0.42024 0.01798 0.02000
H 	H 	0.72277 0.41299 0.93998 0.12100
H 	H 	0.79993 0.39203 0.02377 0.06600
F 	F 	0.78569 0.44919 0.93221 -0.43900
C 	C 	0.62509 0.39777 0.97170 0.11400
C 	C 	0.60943 0.40552 0.99224 -0.13100
C 	C 	0.57818 0.41834 0.98268 0.10700
C 	C 	0.56223 0.42324 0.95245 -0.24500
C 	C 	0.57934 0.41737 0.93279 0.42700
C 	C 	0.61046 0.40452 0.94231 -0.22000
H 	H 	0.56565 0.42344 0.99829 -0.00600
H 	H 	0.62254 0.39888 0.92641 0.12300
H 	H 	0.62087 0.40085 0.01519 0.06900
F 	F 	0.56576 0.42411 0.90443 -0.46400
C 	C 	0.88735 0.11644 0.45837 0.10500
C 	C 	0.87118 0.07125 0.43814 -0.13100
C 	C 	0.89972 0.05513 0.44675 0.10400
C 	C 	0.94454 0.08407 0.47573 -0.25200
C 	C 	0.96118 0.12976 0.49475 0.43400
C 	C 	0.93266 0.14580 0.48619 -0.22600
H 	H 	0.94548 0.18080 0.50184 0.13200
H 	H 	0.83634 0.04843 0.41637 0.06600
F 	F 	0.00479 0.15838 0.52215 -0.47800
C 	C 	0.90030 0.32228 0.45879 0.00200
C 	C 	0.87169 0.28427 0.42547 -0.03900
C 	C 	0.85099 0.24146 0.42182 0.02200
C 	C 	0.85844 0.23644 0.45139 -0.12400
C 	C 	0.88544 0.27461 0.48447 0.35100
C 	C 	0.90631 0.31732 0.48812 -0.13800
H 	H 	0.83015 0.21218 0.39621 0.03100
H 	H 	0.92776 0.34655 0.51385 0.11000
H 	H 	0.86665 0.28777 0.40263 0.05200
F 	F 	0.89275 0.27012 0.51324 -0.44900
C 	C 	0.76724 0.11978 0.46649 0.10500
C 	C 	0.77490 0.14857 0.49687 -0.12000
C 	C 	0.74331 0.13515 0.50404 0.10300
C 	C 	0.70369 0.09270 0.48091 -0.22200
C 	C 	0.69719 0.06291 0.45146 0.41400
C 	C 	0.72878 0.07657 0.44424 -0.21700
H 	H 	0.74892 0.15840 0.52690 0.02600
H 	H 	0.72299 0.05388 0.42103 0.11400
H 	H 	0.80496 0.18171 0.51455 0.08600
F 	F 	0.66005 0.02102 0.42961 -0.46800
C 	C 	0.83871 0.09121 0.93495 0.11100
C 	C 	0.88280 0.11980 0.96497 -0.12800
C 	C 	0.91155 0.10412 0.97393 0.10700
C 	C 	0.89650 0.05959 0.95311 -0.24200
C 	C 	0.85298 0.03155 0.92200 0.43200
C 	C 	0.82416 0.04734 0.91307 -0.21600
H 	H 	0.94520 0.12619 0.99769 0.01700
H 	H 	0.79028 0.02522 0.88961 0.12900
H 	H 	0.89436 0.15380 0.98195 0.07000
C 	C 	0.80781 0.21026 0.92750 0.10800
C 	C 	0.83022 0.24808 0.95975 -0.12900
C 	C 	0.85130 0.29114 0.96400 0.10200
C 	C 	0.84993 0.29674 0.93597 -0.23400
C 	C 	0.82581 0.25887 0.90319 0.42000
C 	C 	0.80491 0.21579 0.89904 -0.22200
H 	H 	0.86929 0.32015 0.98924 0.01400
H 	H 	0.78764 0.18670 0.87405 0.12100
H 	H 	0.83259 0.24408 0.98186 0.06800
F 	F 	0.82427 0.26379 0.87585 -0.46300
C 	C 	0.71166 0.08682 0.93524 0.10900
C 	C 	0.66763 0.07284 0.91012 -0.12300
C 	C 	0.63540 0.05820 0.91654 0.10200
C 	C 	0.64692 0.05745 0.94822 -0.21900
C 	C 	0.69065 0.06979 0.97279 0.41800
C 	C 	0.72290 0.08459 0.96636 -0.21700
H 	H 	0.60178 0.04870 0.89734 0.02300
H 	H 	0.75679 0.09504 0.98580 0.12000
H 	H 	0.65856 0.07406 0.88588 0.07000
F 	F 	0.70189 0.06752 0.00288 -0.45400
C 	C 	0.74644 0.60573 0.92974 -0.01800
C 	C 	0.75700 0.64540 0.92724 -0.03100
C 	C 	0.81682 0.64535 0.92433 -0.03100
C 	C 	0.80723 0.60646 0.92783 -0.01700
C 	C 	0.77134 0.58609 0.92969 -0.03000
H 	H 	0.84485 0.66140 0.92326 0.04700
H 	H 	0.76407 0.55618 0.93266 0.06000
C 	C 	0.79899 0.63539 0.45760 0.00600
C 	C 	0.80823 0.67343 0.45288 -0.06400
C 	C 	0.86502 0.67003 0.44681 -0.07400
C 	C 	0.85652 0.63248 0.45214 0.00400
C 	C 	0.82288 0.61470 0.45689 -0.04400
H 	H 	0.89157 0.68435 0.44381 0.06200
H 	H 	0.81695 0.58634 0.46188 0.05100
Zn	Zn	0.58060 0.07519 0.99249 1.18900
Zn	Zn	0.50515 0.04476 0.92017 1.19700
O 	O 	0.48316 0.02527 0.86919 -0.43500
C 	C 	0.61404 0.04673 0.95642 0.38400
C 	C 	0.58345 0.14061 0.96682 0.38400
O 	O 	0.62612 0.07080 0.98796 -0.43700
O 	O 	0.57149 0.01913 0.93087 -0.36200
O 	O 	0.52069 0.05098 0.96821 -0.76700
O 	O 	0.55279 0.10578 0.93489 -0.46600
O 	O 	0.59746 0.13508 0.99481 -0.43100
O 	O 	0.42496 0.01205 0.94419 -0.44500
C 	C 	0.42433 0.04130 0.96625 0.39600
O 	O 	0.44404 0.05026 0.99911 -0.49900
H 	H 	0.52741 0.00781 0.01507 0.17300
Zn	Zn	0.62809 0.10463 0.51771 1.19100
Zn	Zn	0.55274 0.07364 0.44412 1.19900
O 	O 	0.53097 0.05566 0.39328 -0.42600
C 	C 	0.66733 0.08162 0.48538 0.38000
C 	C 	0.63052 0.17014 0.49176 0.38800
O 	O 	0.67619 0.10254 0.51628 -0.46400
O 	O 	0.62576 0.05688 0.45764 -0.34100
O 	O 	0.56794 0.07821 0.49168 -0.76700
O 	O 	0.59899 0.13583 0.45966 -0.42700
O 	O 	0.64366 0.16426 0.51961 -0.46100
O 	O 	0.47209 0.03578 0.46665 -0.48000
C 	C 	0.47231 0.06581 0.48886 0.39900
O 	O 	0.49153 0.07430 0.52158 -0.47700
C 	C 	0.53788 0.02805 0.37631 0.30900
H 	H 	0.57604 0.03365 0.53772 0.18600
C 	C 	0.51136 0.00268 0.77449 0.01200
C 	C 	0.52290 0.04033 0.82979 0.01600
C 	C 	0.52294 0.00400 0.74947 0.10300
N 	N 	0.54121 0.04019 0.72005 -0.08000
N 	N 	0.53276 0.03995 0.74381 -0.08000
C 	C 	0.57492 0.04287 0.67635 -0.04700
C 	C 	0.53238 0.04213 0.80533 -0.04800
H 	H 	0.55689 0.07393 0.81081 0.05500
H 	H 	0.54044 0.07066 0.85405 0.03700
H 	H 	0.59632 0.07387 0.70092 0.05800
H 	H 	0.59728 0.07406 0.65043 0.03900
C 	C 	0.53945 0.03049 0.34700 -0.07600
C 	C 	0.57213 0.02738 0.34376 0.01400
C 	C 	0.57047 0.02387 0.31374 -0.04100
C 	C 	0.53607 0.02342 0.28661 0.00900
C 	C 	0.50622 0.03208 0.32064 0.01100
C 	C 	0.53228 0.01607 0.25375 0.10300
N 	N 	0.56946 0.03353 0.25446 -0.08000
N 	N 	0.56607 0.02572 0.22469 -0.08100
C 	C 	0.50443 0.02841 0.29050 -0.04500
H 	H 	0.59839 0.02687 0.36425 0.06700
H 	H 	0.59521 0.02027 0.31118 0.05800
H 	H 	0.48098 0.03472 0.32296 0.03300
F 	F 	0.65316 0.68657 0.44598 -0.45300
H 	H 	0.60278 0.66286 0.92378 0.01800
C 	C 	0.88735 0.61644 0.45837 0.10500
C 	C 	0.87118 0.57125 0.43814 -0.13100
C 	C 	0.89972 0.55513 0.44675 0.10400
C 	C 	0.94454 0.58407 0.47573 -0.25200
C 	C 	0.96118 0.62976 0.49475 0.43400
C 	C 	0.93266 0.64580 0.48619 -0.22600
H 	H 	0.88660 0.51985 0.43179 0.00700
H 	H 	0.94548 0.68080 0.50184 0.13200
H 	H 	0.83634 0.54844 0.41637 0.06600
F 	F 	0.00479 0.65838 0.52215 -0.47800
H 	H 	0.83015 0.71218 0.39621 0.03100
C 	C 	0.76724 0.61978 0.46649 0.10500
C 	C 	0.77490 0.64857 0.49687 -0.12000
C 	C 	0.74331 0.63515 0.50404 0.10300
C 	C 	0.70369 0.59270 0.48091 -0.22200
C 	C 	0.69719 0.56291 0.45146 0.41400
C 	C 	0.72878 0.57657 0.44424 -0.21700
H 	H 	0.74892 0.65840 0.52690 0.02600
H 	H 	0.72299 0.55388 0.42103 0.11400
H 	H 	0.80496 0.68171 0.51455 0.08600
F 	F 	0.66005 0.52102 0.42961 -0.46800
C 	C 	0.83871 0.59121 0.93495 0.11100
C 	C 	0.88280 0.61980 0.96497 -0.12800
C 	C 	0.91155 0.60412 0.97393 0.10700
C 	C 	0.89650 0.55959 0.95311 -0.24200
C 	C 	0.85298 0.53155 0.92200 0.43200
C 	C 	0.82416 0.54734 0.91307 -0.21600
H 	H 	0.94520 0.62619 0.99769 0.01700
H 	H 	0.79028 0.52522 0.88961 0.12900
H 	H 	0.89436 0.65380 0.98195 0.07000
F 	F 	0.83808 0.48860 0.90118 -0.46200
H 	H 	0.78764 0.68670 0.87405 0.12100
C 	C 	0.71166 0.58682 0.93524 0.10900
C 	C 	0.66763 0.57284 0.91012 -0.12300
C 	C 	0.63540 0.55820 0.91654 0.10200
C 	C 	0.64692 0.55745 0.94822 -0.21900
C 	C 	0.69065 0.56979 0.97279 0.41800
C 	C 	0.72290 0.58459 0.96636 -0.21700
H 	H 	0.60178 0.54870 0.89734 0.02300
H 	H 	0.75679 0.59504 0.98580 0.12000
H 	H 	0.65856 0.57406 0.88588 0.07000
F 	F 	0.70189 0.56752 0.00288 -0.45400
C 	C 	0.29250 0.66547 0.92491 -0.02100
H 	H 	0.23870 0.66141 0.92834 0.04300
C 	C 	0.34207 0.69149 0.44847 0.10400
H 	H 	0.29058 0.69014 0.45429 0.07500
C 	C 	0.13890 0.83750 0.97810 -0.03100
C 	C 	0.16309 0.81659 0.97974 -0.01900
C 	C 	0.20238 0.83745 0.98193 -0.03200
H 	H 	0.10744 0.82041 0.97466 0.04500
H 	H 	0.22010 0.82046 0.98171 0.04200
C 	C 	0.19545 0.80221 0.50468 0.10700
C 	C 	0.18668 0.79599 0.52882 -0.12500
C 	C 	0.16572 0.75291 0.52467 0.09800
C 	C 	0.15335 0.71560 0.49635 -0.23000
C 	C 	0.16311 0.72197 0.47264 0.41600
C 	C 	0.18385 0.76506 0.47673 -0.21900
H 	H 	0.15855 0.74848 0.54320 0.02000
H 	H 	0.19048 0.76954 0.45796 0.11900
H 	H 	0.19567 0.82447 0.55057 0.06900
C 	C 	0.14633 0.77210 0.97802 0.10200
C 	C 	0.13305 0.73447 0.94945 -0.12600
C 	C 	0.11286 0.69163 0.94595 0.09600
C 	C 	0.10564 0.68598 0.97097 -0.22900
C 	C 	0.11966 0.72383 0.99990 0.40900
C 	C 	0.14008 0.76663 0.00344 -0.21600
H 	H 	0.15021 0.79550 0.02556 0.11500
H 	H 	0.13757 0.73831 0.92962 0.06700
F 	F 	0.11226 0.71902 0.02400 -0.46400
C 	C 	0.40030 0.82228 0.45879 0.00000
C 	C 	0.37169 0.78427 0.42547 -0.03900
C 	C 	0.35099 0.74146 0.42182 0.02100
C 	C 	0.35844 0.73644 0.45139 -0.12400
C 	C 	0.38544 0.77461 0.48447 0.35000
C 	C 	0.40631 0.81732 0.48812 -0.13800
H 	H 	0.36665 0.78777 0.40263 0.05100
F 	F 	0.39275 0.77012 0.51324 -0.45000
C 	C 	0.30781 0.71026 0.92750 0.10800
C 	C 	0.33022 0.74808 0.95975 -0.13000
C 	C 	0.35130 0.79114 0.96400 0.10200
C 	C 	0.34994 0.79674 0.93597 -0.23400
C 	C 	0.32581 0.75887 0.90319 0.41900
C 	C 	0.30491 0.71579 0.89904 -0.22200
H 	H 	0.36929 0.82015 0.98924 0.01300
H 	H 	0.33259 0.74408 0.98186 0.06700
F 	F 	0.32427 0.76379 0.87585 -0.46400
C 	C 	0.79250 0.66547 0.92491 -0.02000
H 	H 	0.73870 0.66141 0.92834 0.04300
C 	C 	0.84207 0.69149 0.44847 0.10400
H 	H 	0.79058 0.69014 0.45429 0.07500
C 	C 	0.63890 0.83750 0.97810 -0.03100
C 	C 	0.66309 0.81659 0.97974 -0.01800
C 	C 	0.70238 0.83745 0.98193 -0.03200
H 	H 	0.60744 0.82041 0.97466 0.04600
H 	H 	0.72010 0.82046 0.98171 0.04200
C 	C 	0.69545 0.80221 0.50468 0.10700
C 	C 	0.68668 0.79599 0.52882 -0.12500
C 	C 	0.66572 0.75291 0.52467 0.09900
C 	C 	0.65335 0.71560 0.49635 -0.22900
C 	C 	0.66312 0.72197 0.47264 0.41600
C 	C 	0.68385 0.76506 0.47673 -0.21800
H 	H 	0.65855 0.74848 0.54320 0.02100
H 	H 	0.69048 0.76954 0.45796 0.12000
H 	H 	0.69567 0.82447 0.55057 0.07000
C 	C 	0.64633 0.77210 0.97802 0.10300
C 	C 	0.63305 0.73447 0.94945 -0.12500
C 	C 	0.61286 0.69163 0.94595 0.09700
C 	C 	0.60564 0.68598 0.97097 -0.22800
C 	C 	0.61966 0.72383 0.99990 0.41000
C 	C 	0.64008 0.76663 0.00344 -0.21600
H 	H 	0.65021 0.79550 0.02556 0.11600
H 	H 	0.63757 0.73831 0.92962 0.06800
F 	F 	0.61226 0.71902 0.02400 -0.46200
C 	C 	0.90030 0.82228 0.45879 0.00200
C 	C 	0.87169 0.78427 0.42547 -0.03900
C 	C 	0.85099 0.74146 0.42182 0.02200
C 	C 	0.85844 0.73644 0.45139 -0.12400
C 	C 	0.88544 0.77461 0.48447 0.35100
C 	C 	0.90631 0.81732 0.48812 -0.13800
H 	H 	0.86665 0.78777 0.40263 0.05200
F 	F 	0.89275 0.77012 0.51324 -0.44900
C 	C 	0.80781 0.71026 0.92750 0.10800
C 	C 	0.83022 0.74808 0.95975 -0.12900
C 	C 	0.85130 0.79114 0.96400 0.10200
C 	C 	0.84994 0.79674 0.93597 -0.23400
C 	C 	0.82581 0.75887 0.90319 0.42000
C 	C 	0.80491 0.71579 0.89904 -0.22200
H 	H 	0.86929 0.82015 0.98924 0.01400
H 	H 	0.83259 0.74408 0.98186 0.06800
F 	F 	0.82427 0.76379 0.87585 -0.46300
H 	H 	0.38660 0.01985 0.43179 0.00700
Zn	Zn	0.96909 0.01776 0.01413 1.20300
O 	O 	0.99596 0.01899 0.05924 -0.46100
Zn	Zn	0.02808 0.01629 0.47527 1.21600
Zn	Zn	0.01650 0.04154 0.53621 1.19900
O 	O 	0.04217 0.04126 0.58078 -0.46100
O 	O 	0.04383 0.01981 0.51989 -0.89500
C 	C 	0.07560 0.04294 0.64775 0.01600
H 	H 	0.97821 0.02897 0.27005 0.06500
H 	H 	0.88660 0.01985 0.43179 0.00700
Zn	Zn	0.46909 0.01776 0.01413 1.20200
O 	O 	0.49596 0.01899 0.05924 -0.46200
Zn	Zn	0.52808 0.01629 0.47527 1.21800
Zn	Zn	0.51650 0.04154 0.53621 1.20300
O 	O 	0.54217 0.04126 0.58078 -0.45800
O 	O 	0.54383 0.01981 0.51989 -0.89100
C 	C 	0.57560 0.04294 0.64775 0.01800
H 	H 	0.47821 0.02897 0.27005 0.05300
H 	H 	0.07672 0.06088 0.18384 0.05400
H 	H 	0.57672 0.06088 0.18384 0.05500
C 	C 	0.04340 0.02519 0.12818 0.02400
C 	C 	0.05020 0.02938 0.15993 -0.05300
H 	H 	0.06484 0.05343 0.12787 0.02600
C 	C 	0.54340 0.02519 0.12818 0.01600
C 	C 	0.55020 0.02938 0.15993 -0.05000
H 	H 	0.56484 0.05343 0.12787 0.03200
H 	H 	0.40926 0.01141 0.54331 0.01300
H 	H 	0.90926 0.01141 0.54331 0.01500
C 	C 	0.04013 0.00452 0.70127 0.10100
C 	C 	0.02541 0.00003 0.19334 0.09300
C 	C 	0.54013 0.00452 0.70127 0.10400
C 	C 	0.52541 0.00003 0.19334 0.10100
O 	O 	0.01108 0.01189 0.43012 -0.88400
O 	O 	0.51108 0.01189 0.43012 -0.87200
C 	C 	0.04568 0.00322 0.67290 0.01500
C 	C 	0.54568 0.00322 0.67290 0.01200
C 	C 	0.04038 0.00551 0.58356 0.31400
C 	C 	0.54038 0.00551 0.58356 0.31700
C 	C 	0.04700 0.00338 0.61538 -0.08000
C 	C 	0.54700 0.00338 0.61538 -0.08300
H 	H 	0.97951 0.00256 0.41478 0.16200
H 	H 	0.47951 0.00256 0.41478 0.15000
C 	C 	0.87537 0.84194 0.94150 0.39400
C 	C 	0.37537 0.84194 0.94150 0.39400
O 	O 	0.04748 0.00099 0.38725 -0.45200
O 	O 	0.54748 0.00099 0.38725 -0.45100
O 	O 	0.08525 0.00002 0.48510 -0.43800
O 	O 	0.58525 0.00002 0.48510 -0.43700
C 	C 	0.99253 0.99908 0.82371 -0.06000
C 	C 	0.49253 0.99908 0.82371 -0.08500
H 	H 	0.42776 0.84655 0.51385 0.10800
H 	H 	0.92776 0.84655 0.51385 0.11000
C 	C 	0.21447 0.84720 0.50749 -0.01900
C 	C 	0.71447 0.84720 0.50749 -0.01800
H 	H 	0.27156 0.84899 0.51098 0.05100
H 	H 	0.77156 0.84899 0.51098 0.05100
H 	H 	0.16019 0.85401 0.50260 0.04600
H 	H 	0.66019 0.85401 0.50260 0.04700
O 	O 	0.85593 0.85400 0.91855 -0.43400
O 	O 	0.35593 0.85400 0.91855 -0.43500
H 	H 	0.27016 0.86177 0.45457 0.11900
H 	H 	0.77016 0.86177 0.45457 0.11900
C 	C 	0.92576 0.86683 0.46336 0.29500
C 	C 	0.42576 0.86683 0.46336 0.29500
C 	C 	0.98801 0.99580 0.85166 0.30200
C 	C 	0.48801 0.99580 0.85166 0.30900
C 	C 	0.25372 0.86618 0.50942 -0.03100
C 	C 	0.75372 0.86618 0.50942 -0.03100
C 	C 	0.19118 0.86925 0.50508 -0.03100
C 	C 	0.69118 0.86925 0.50508 -0.03100
O 	O 	0.91770 0.86890 0.96868 -0.46400
O 	O 	0.90606 0.87848 0.44016 -0.42100
O 	O 	0.41770 0.86890 0.96868 -0.46600
O 	O 	0.40606 0.87848 0.44016 -0.42200
F 	F 	0.32972 0.88173 0.44134 -0.46800
F 	F 	0.82972 0.88173 0.44134 -0.46800
O 	O 	0.99527 0.99455 0.99745 -0.88400
O 	O 	0.49527 0.99455 0.99745 -0.89600
O 	O 	0.96863 0.89314 0.48943 -0.43000
O 	O 	0.46863 0.89314 0.48943 -0.43600
C 	C 	0.21812 0.87979 0.98350 -0.01700
C 	C 	0.15420 0.87949 0.97935 -0.01900
C 	C 	0.30046 0.89442 0.47398 -0.22100
C 	C 	0.71812 0.87979 0.98350 -0.01700
C 	C 	0.65420 0.87949 0.97935 -0.01900
C 	C 	0.80046 0.89442 0.47398 -0.22000
C 	C 	0.26875 0.90616 0.50756 -0.01900
C 	C 	0.76875 0.90616 0.50756 -0.01900
C 	C 	0.33454 0.90913 0.46946 0.41700
C 	C 	0.83454 0.90913 0.46946 0.41700
C 	C 	0.20630 0.90950 0.50363 -0.01900
H 	H 	0.29993 0.89203 0.02377 0.06600
C 	C 	0.70630 0.90950 0.50363 -0.01900
H 	H 	0.79993 0.89203 0.02377 0.06600
H 	H 	0.16803 0.91954 0.44628 0.07400
C 	C 	0.25666 0.89972 0.98184 0.10400
C 	C 	0.12509 0.89777 0.97170 0.11200
H 	H 	0.12254 0.89888 0.92641 0.12200
H 	H 	0.66803 0.91954 0.44628 0.07400
C 	C 	0.75666 0.89972 0.98184 0.10400
C 	C 	0.62509 0.89777 0.97170 0.11400
H 	H 	0.62254 0.89888 0.92641 0.12300
C 	C 	0.19477 0.90140 0.98360 -0.03100
O 	O 	0.99289 0.91046 0.90797 -0.45800
H 	H 	0.95349 0.91782 0.07346 0.03400
C 	C 	0.30535 0.92170 0.50339 0.10800
C 	C 	0.29654 0.90292 0.00431 -0.12200
C 	C 	0.11046 0.90452 0.94231 -0.21900
H 	H 	0.12087 0.90085 0.01519 0.06800
C 	C 	0.69477 0.90140 0.98360 -0.03100
O 	O 	0.49289 0.91046 0.90797 -0.47100
H 	H 	0.45349 0.91782 0.07346 0.03800
C 	C 	0.80535 0.92170 0.50339 0.10800
C 	C 	0.79654 0.90292 0.00431 -0.12200
C 	C 	0.61046 0.90452 0.94231 -0.22000
H 	H 	0.62087 0.90085 0.01519 0.06900
C 	C 	0.15927 0.92972 0.46387 -0.12300
C 	C 	0.65926 0.92972 0.46387 -0.12300
C 	C 	0.24546 0.92821 0.50536 -0.03100
Zn	Zn	0.88223 0.91516 0.92245 1.18700
H 	H 	0.99689 0.93206 0.63829 0.07500
H 	H 	0.99798 0.93227 0.58786 0.06000
H 	H 	0.96577 0.92495 0.12957 0.05500
C 	C 	0.17803 0.92871 0.49569 0.10700
H 	H 	0.11307 0.94208 0.42909 0.03600
C 	C 	0.10943 0.90552 0.99224 -0.13100
C 	C 	0.74546 0.92821 0.50536 -0.03100
Zn	Zn	0.38223 0.91516 0.92245 1.18700
H 	H 	0.49689 0.93206 0.63829 0.06300
H 	H 	0.49798 0.93227 0.58786 0.04800
H 	H 	0.46576 0.92495 0.12957 0.05400
C 	C 	0.67803 0.92871 0.49569 0.10700
H 	H 	0.61307 0.94208 0.42909 0.03700
C 	C 	0.60943 0.90552 0.99224 -0.13100
O 	O 	0.04574 0.94093 0.43078 -0.50700
Zn	Zn	0.93181 0.93965 0.44372 1.18100
C 	C 	0.12784 0.94216 0.45401 0.11000
C 	C 	0.25330 0.91517 0.95743 -0.21600
O 	O 	0.54574 0.94093 0.43078 -0.50400
Zn	Zn	0.43181 0.93965 0.44372 1.18000
C 	C 	0.62784 0.94216 0.45401 0.11100
C 	C 	0.75330 0.91517 0.95743 -0.21600
H 	H 	0.22277 0.91299 0.93998 0.12000
C 	C 	0.07934 0.91737 0.93279 0.42400
H 	H 	0.72277 0.91299 0.93998 0.12100
C 	C 	0.57934 0.91737 0.93279 0.42700
Zn	Zn	0.97912 0.98986 0.95250 1.22100
Zn	Zn	0.47912 0.98986 0.95250 1.21900
O 	O 	0.93784 0.92890 0.93676 -0.78700
H 	H 	0.96261 0.93123 0.74389 0.05500
C 	C 	0.16638 0.94201 0.51826 -0.22100
C 	C 	0.33193 0.91953 0.00134 0.09500
H 	H 	0.36184 0.92024 0.01798 0.01900
C 	C 	0.07818 0.91834 0.98268 0.10400
C 	C 	0.06223 0.92324 0.95245 -0.24100
O 	O 	0.43784 0.92890 0.93676 -0.78900
H 	H 	0.46261 0.93123 0.74389 0.05700
C 	C 	0.66638 0.94201 0.51826 -0.22000
C 	C 	0.83193 0.91953 0.00134 0.09500
H 	H 	0.86184 0.92024 0.01798 0.02000
C 	C 	0.57818 0.91834 0.98268 0.10700
C 	C 	0.56223 0.92324 0.95245 -0.24500
H 	H 	0.94687 0.92800 0.78742 0.03500
F 	F 	0.06576 0.92411 0.90443 -0.46700
H 	H 	0.44687 0.92800 0.78742 0.02900
F 	F 	0.56576 0.92411 0.90443 -0.46400
F 	F 	0.33808 0.98860 0.90118 -0.46200
F 	F 	0.83808 0.98860 0.90118 -0.46200
Zn	Zn	0.95836 0.93273 0.98499 1.18900
O 	O 	0.85039 0.93468 0.93733 -0.42000
Zn	Zn	0.00808 0.95741 0.50664 1.19000
O 	O 	0.98794 0.95464 0.45879 -0.78300
C 	C 	0.37386 0.95165 0.49426 -0.23500
C 	C 	0.11486 0.95384 0.47589 -0.24100
H 	H 	0.18087 0.94152 0.54297 0.11600
H 	H 	0.06565 0.92344 0.99829 -0.00800
Zn	Zn	0.45836 0.93273 0.98499 1.18800
O 	O 	0.35039 0.93468 0.93733 -0.42000
Zn	Zn	0.50808 0.95741 0.50664 1.19400
O 	O 	0.48794 0.95464 0.45879 -0.79200
C 	C 	0.87386 0.95165 0.49426 -0.23400
C 	C 	0.61486 0.95384 0.47589 -0.24100
H 	H 	0.68087 0.94152 0.54297 0.11700
H 	H 	0.56565 0.92344 0.99829 -0.00600
C 	C 	0.02719 0.93363 0.94099 0.37700
C 	C 	0.52719 0.93363 0.94099 0.39300
H 	H 	0.20707 0.93432 0.98534 0.05500
H 	H 	0.25657 0.95869 0.50332 0.04600
O 	O 	0.89913 0.95865 0.45788 -0.46100
C 	C 	0.02007 0.96307 0.61264 0.00600
C 	C 	0.98089 0.94879 0.09757 0.03500
C 	C 	0.13495 0.95463 0.50845 0.41400
C 	C 	0.32806 0.93377 0.97618 -0.22600
C 	C 	0.28906 0.93297 0.95511 0.41500
H 	H 	0.70707 0.93432 0.98534 0.05500
H 	H 	0.75657 0.95869 0.50332 0.04600
O 	O 	0.39913 0.95865 0.45788 -0.46200
C 	C 	0.52007 0.96307 0.61264 0.01800
C 	C 	0.48089 0.94879 0.09757 0.01600
C 	C 	0.63495 0.95463 0.50845 0.41500
C 	C 	0.82806 0.93377 0.97618 -0.22600
C 	C 	0.78906 0.93297 0.95511 0.41600
C 	C 	0.07934 0.96370 0.46402 0.39600
C 	C 	0.57934 0.96370 0.46402 0.39700
C 	C 	0.86265 0.94527 0.96955 0.38000
O 	O 	0.98331 0.94778 0.03673 -0.43000
C 	C 	0.90979 0.96728 0.48950 0.38500
O 	O 	0.03133 0.97100 0.55787 -0.41900
C 	C 	0.01935 0.96299 0.64125 -0.05800
C 	C 	0.98755 0.95301 0.12934 -0.04200
C 	C 	0.34477 0.96392 0.52839 -0.12600
C 	C 	0.36265 0.94527 0.96955 0.38000
O 	O 	0.48331 0.94778 0.03673 -0.42900
C 	C 	0.40979 0.96728 0.48950 0.38600
O 	O 	0.53133 0.97100 0.55787 -0.41400
C 	C 	0.51935 0.96299 0.64125 -0.04500
C 	C 	0.48755 0.95301 0.12934 -0.04900
C 	C 	0.84477 0.96392 0.52839 -0.12600
Zn	Zn	0.97148 0.94167 0.88614 1.19800
Zn	Zn	0.47148 0.94167 0.88614 1.19600
Zn	Zn	0.02374 0.97227 0.40962 1.18800
Zn	Zn	0.52374 0.97227 0.40962 1.18900
O 	O 	0.90259 0.95503 0.99332 -0.48400
O 	O 	0.94973 0.97787 0.51401 -0.47100
N 	N 	0.02260 0.96865 0.73111 -0.08200
N 	N 	0.03099 0.96888 0.70732 -0.08000
O 	O 	0.40259 0.95503 0.99332 -0.48400
O 	O 	0.44973 0.97787 0.51401 -0.47700
N 	N 	0.52260 0.96865 0.73111 -0.07800
N 	N 	0.53099 0.96888 0.70732 -0.07800
F 	F 	0.28569 0.94918 0.93221 -0.43900
F 	F 	0.78569 0.94918 0.93221 -0.43900
F 	F 	0.12286 0.96597 0.52994 -0.48800
F 	F 	0.62286 0.96597 0.52994 -0.48600
C 	C 	0.37898 0.97876 0.52391 0.10100
C 	C 	0.87898 0.97876 0.52391 0.10100
N 	N 	0.98823 0.98244 0.19262 -0.07400
N 	N 	0.48823 0.98244 0.19262 -0.08100
O 	O 	0.99287 0.96573 0.86078 -0.43600
O 	O 	0.96180 0.98421 0.90696 -0.86600
O 	O 	0.49287 0.96573 0.86078 -0.44200
O 	O 	0.46180 0.98421 0.90696 -0.87100
C 	C 	0.99561 0.98413 0.06296 0.33400
C 	C 	0.00797 0.98533 0.09673 -0.11900
H 	H 	0.34890 0.98518 0.55124 0.07000
C 	C 	0.49561 0.98413 0.06296 0.31600
C 	C 	0.50797 0.98533 0.09673 -0.08900
H 	H 	0.84890 0.98518 0.55124 0.07100
O 	O 	0.03435 0.97089 0.96196 -0.46200
H 	H 	0.93061 0.97616 0.89201 0.16600
C 	C 	0.97054 0.95996 0.79243 0.00400
C 	C 	0.97977 0.96175 0.76789 -0.02100
N 	N 	0.99162 0.99026 0.22239 -0.07400
C 	C 	0.02153 0.99375 0.16056 0.00200
O 	O 	0.53435 0.97089 0.96196 -0.46000
H 	H 	0.43061 0.97616 0.89201 0.16600
C 	C 	0.47054 0.95996 0.79243 0.01800
C 	C 	0.47977 0.96175 0.76789 -0.04700
N 	N 	0.49162 0.99026 0.22239 -0.08200
C 	C 	0.52153 0.99375 0.16056 0.01200
