data_crystal

_cell_length_a 47.37808
_cell_length_b 73.41867
_cell_length_c 24.79835
_cell_angle_alpha 89.99969
_cell_angle_beta  90.00058
_cell_angle_gamma 91.90237

_symmetry_space_group_name_	'P 1'
_symmetry_space_group_name_H-M	'P 1'

loop_
_symmetry_equiv_pos_as_xyz
  x,y,z

loop_
_atom_site_label
_atom_site_type_symbol
_atom_site_fract_x
_atom_site_fract_y
_atom_site_fract_z
_atom_site_charge
Cu	Cu	0.19927 0.54588 0.23826 0.92900
Cu	Cu	0.16904 0.58512 0.22973 0.87000
Cu	Cu	0.13576 0.54984 0.22379 0.89700
Cu	Cu	0.15629 0.51227 0.24803 0.89700
C 	C 	0.21185 0.51483 0.30253 0.31300
O 	O 	0.20620 0.53039 0.17262 -0.36000
C 	C 	0.11702 0.58376 0.17198 0.31100
O 	O 	0.16014 0.53681 0.27103 -0.63900
O 	O 	0.17253 0.56102 0.19879 -0.64300
O 	O 	0.18822 0.58218 0.29623 -0.44200
O 	O 	0.19430 0.50476 0.27283 -0.37800
O 	O 	0.10122 0.53892 0.25307 -0.38400
C 	C 	0.09508 0.52125 0.25546 0.31100
C 	C 	0.18536 0.52383 0.14266 0.30800
O 	O 	0.16028 0.52056 0.16390 -0.38700
O 	O 	0.11492 0.50918 0.26252 -0.37400
O 	O 	0.22020 0.53128 0.28676 -0.35700
C 	C 	0.21521 0.57882 0.29620 0.31400
O 	O 	0.11148 0.56639 0.18364 -0.37600
O 	O 	0.14287 0.59088 0.17443 -0.41500
H 	H 	0.15674 0.53885 0.30993 0.16600
H 	H 	0.17464 0.56107 0.15908 0.18900
Cu	Cu	0.10795 0.79439 0.46605 0.93100
Cu	Cu	0.07639 0.83271 0.48283 0.87600
Cu	Cu	0.06129 0.79953 0.54921 0.89800
Cu	Cu	0.09244 0.76383 0.55037 0.89600
C 	C 	0.14850 0.76796 0.49538 0.31200
O 	O 	0.08953 0.77376 0.42312 -0.35100
C 	C 	0.02144 0.82908 0.52578 0.30500
O 	O 	0.09838 0.78938 0.54758 -0.63600
O 	O 	0.07185 0.80663 0.47381 -0.64200
O 	O 	0.13066 0.81553 0.43805 -0.37000
O 	O 	0.11501 0.83449 0.50274 -0.42300
O 	O 	0.12733 0.75691 0.51036 -0.38300
O 	O 	0.05302 0.79150 0.62218 -0.37100
C 	C 	0.05391 0.77446 0.63905 0.31200
C 	C 	0.06568 0.76575 0.43899 0.30100
O 	O 	0.05907 0.76536 0.49048 -0.39400
O 	O 	0.07382 0.76356 0.62244 -0.38600
O 	O 	0.14388 0.78380 0.47262 -0.35400
C 	C 	0.13434 0.83023 0.46757 0.31000
O 	O 	0.02741 0.81460 0.55517 -0.36800
O 	O 	0.03650 0.83365 0.48306 -0.41800
H 	H 	0.11166 0.79448 0.57493 0.17100
H 	H 	0.05730 0.80302 0.44686 0.17600
Cu	Cu	0.10106 0.30053 0.97799 0.93200
Cu	Cu	0.07174 0.33949 0.99808 0.87200
Cu	Cu	0.05150 0.30570 0.05374 0.89700
Cu	Cu	0.08204 0.27035 0.06249 0.89600
C 	C 	0.13954 0.27437 0.01694 0.31300
O 	O 	0.08267 0.28013 0.93409 -0.34800
C 	C 	0.01399 0.33586 0.03158 0.30100
O 	O 	0.08873 0.29589 0.05870 -0.63700
O 	O 	0.06567 0.31374 0.98167 -0.64200
O 	O 	0.12524 0.32111 0.95136 -0.35800
O 	O 	0.11067 0.34012 0.01703 -0.43600
O 	O 	0.11787 0.26318 0.02724 -0.38600
O 	O 	0.03968 0.29828 0.12544 -0.37300
C 	C 	0.04000 0.28137 0.14335 0.31000
C 	C 	0.05836 0.27234 0.94835 0.30200
O 	O 	0.05054 0.27220 0.99921 -0.39700
O 	O 	0.06127 0.27081 0.13210 -0.39200
O 	O 	0.13632 0.28913 0.98778 -0.34400
C 	C 	0.12968 0.33561 0.98140 0.31700
O 	O 	0.01638 0.31899 0.04942 -0.37500
O 	O 	0.03191 0.34295 0.99602 -0.40000
H 	H 	0.10070 0.30122 0.08779 0.16800
H 	H 	0.05210 0.31121 0.95203 0.17800
Cu	Cu	0.20010 0.04911 0.75735 0.93000
Cu	Cu	0.16920 0.08797 0.74489 0.87700
Cu	Cu	0.13746 0.05182 0.73002 0.89800
Cu	Cu	0.15862 0.01451 0.75716 0.89600
C 	C 	0.21084 0.01794 0.82236 0.31100
O 	O 	0.21159 0.03421 0.69291 -0.35200
C 	C 	0.11927 0.08617 0.68227 0.30400
O 	O 	0.15980 0.03897 0.78156 -0.63700
O 	O 	0.17492 0.06404 0.71360 -0.64000
O 	O 	0.18442 0.08470 0.81492 -0.42400
O 	O 	0.19563 0.00770 0.78881 -0.37000
O 	O 	0.10207 0.03976 0.75063 -0.36900
C 	C 	0.09711 0.02195 0.74969 0.30800
C 	C 	0.19298 0.02696 0.65922 0.30600
O 	O 	0.16683 0.02364 0.67495 -0.39600
O 	O 	0.11686 0.01050 0.76355 -0.39000
O 	O 	0.21895 0.03468 0.80922 -0.36100
C 	C 	0.21133 0.08161 0.82054 0.31400
O 	O 	0.11474 0.06834 0.68651 -0.37200
O 	O 	0.14491 0.09346 0.68645 -0.40200
H 	H 	0.15415 0.04069 0.81961 0.16700
H 	H 	0.17936 0.06440 0.67459 0.17400
C 	C 	0.01157 0.00119 0.73713 0.00500
C 	C 	0.03011 0.99366 0.77468 0.11800
C 	C 	0.05790 0.00061 0.77906 -0.03400
C 	C 	0.06755 0.01496 0.74558 -0.11700
C 	C 	0.04902 0.02232 0.70743 0.18900
C 	C 	0.02111 0.01550 0.70366 -0.10800
O 	O 	0.02084 0.97988 0.80831 -0.27400
H 	H 	0.07188 0.99493 0.80878 0.06100
O 	O 	0.05806 0.03627 0.67419 -0.27900
H 	H 	0.00687 0.02135 0.67467 0.07700
H 	H 	0.02475 0.96844 0.78878 0.14800
H 	H 	0.06555 0.03026 0.64162 0.14500
C 	C 	0.22075 0.09961 0.90488 0.19300
O 	O 	0.19574 0.09303 0.92632 -0.28800
H 	H 	0.20058 0.08183 0.94617 0.14800
C 	C 	0.20417 0.24616 0.00345 0.11500
C 	C 	0.17621 0.25163 0.00016 -0.02900
C 	C 	0.16822 0.26787 0.02469 -0.12100
C 	C 	0.18825 0.27848 0.05380 0.19100
C 	C 	0.21621 0.27300 0.05717 -0.11000
O 	O 	0.21204 0.23073 0.97694 -0.26600
H 	H 	0.16090 0.24348 0.97735 0.06400
O 	O 	0.18069 0.29443 0.07780 -0.29400
H 	H 	0.20881 0.22065 0.00308 0.14700
H 	H 	0.17453 0.29095 0.11472 0.14100
H 	H 	0.01715 0.86502 0.50617 0.04900
C 	C 	0.21406 0.74308 0.53485 0.12000
C 	C 	0.18647 0.74939 0.53506 -0.03500
C 	C 	0.17737 0.76091 0.49379 -0.11900
C 	C 	0.19619 0.76598 0.45180 0.19500
H 	H 	0.17224 0.74543 0.56751 0.05200
O 	O 	0.18745 0.77656 0.40976 -0.27900
H 	H 	0.18011 0.76783 0.38219 0.15600
H 	H 	0.21833 0.71925 0.56209 0.14900
C 	C 	0.22232 0.99259 0.42013 -0.11300
O 	O 	0.22000 0.97471 0.33937 -0.27700
H 	H 	0.20057 0.98863 0.42898 0.07300
C 	C 	0.20360 0.02232 0.50918 0.11500
C 	C 	0.19253 0.02763 0.55897 -0.03400
C 	C 	0.20254 0.02007 0.60696 -0.12500
O 	O 	0.19455 0.03036 0.46263 -0.27400
H 	H 	0.17669 0.03794 0.56032 0.04900
H 	H 	0.21172 0.98304 0.31263 0.15300
H 	H 	0.17819 0.02267 0.45033 0.14400
H 	H 	0.22036 0.98831 0.65838 0.15000
C 	C 	0.22036 0.01629 0.92040 -0.03400
H 	H 	0.20580 0.02718 0.92664 0.04900
H 	H 	0.22245 0.96417 0.01559 0.15200
C 	C 	0.17779 0.87361 0.44319 -0.11300
C 	C 	0.20272 0.86657 0.42263 0.00400
C 	C 	0.20632 0.84764 0.42252 0.12500
C 	C 	0.18445 0.83585 0.44038 -0.03300
C 	C 	0.15864 0.84282 0.45721 -0.12400
C 	C 	0.15558 0.86186 0.45958 0.19000
H 	H 	0.18726 0.82126 0.43963 0.07400
O 	O 	0.13072 0.86901 0.47666 -0.29700
H 	H 	0.17506 0.88821 0.44373 0.07400
C 	C 	0.21773 0.88374 0.34030 0.11400
O 	O 	0.19492 0.87628 0.31312 -0.27700
H 	H 	0.11919 0.87031 0.44358 0.13000
H 	H 	0.17936 0.88474 0.31948 0.14600
C 	C 	0.03375 0.24570 0.82564 -0.11000
C 	C 	0.00484 0.24915 0.82554 0.00600
C 	C 	0.01076 0.26674 0.90800 -0.03600
C 	C 	0.03988 0.26380 0.90717 -0.12400
C 	C 	0.05126 0.25287 0.86641 0.19300
O 	O 	0.07954 0.24939 0.86595 -0.27700
H 	H 	0.04272 0.23765 0.79368 0.08100
H 	H 	0.08135 0.23808 0.88736 0.15000
C 	C 	0.01077 0.25924 0.27000 0.12200
C 	C 	0.02977 0.26569 0.23069 -0.03400
C 	C 	0.02017 0.27574 0.18655 -0.12000
O 	O 	0.02034 0.24909 0.31227 -0.27400
H 	H 	0.05198 0.26283 0.23448 0.06100
H 	H 	0.02514 0.25804 0.34109 0.15500
C 	C 	0.04110 0.14247 0.55227 -0.11500
C 	C 	0.03474 0.13341 0.60072 0.00500
C 	C 	0.00964 0.13706 0.62840 0.12100
C 	C 	0.02234 0.15489 0.53081 0.19500
C 	C 	0.05508 0.12077 0.62370 0.00700
O 	O 	0.02923 0.16407 0.48419 -0.28200
H 	H 	0.06066 0.13993 0.53131 0.07300
C 	C 	0.05764 0.10318 0.60200 0.11600
C 	C 	0.07810 0.09165 0.62232 -0.02700
C 	C 	0.09631 0.09768 0.66375 -0.12200
C 	C 	0.09306 0.11507 0.68653 0.19300
C 	C 	0.07269 0.12657 0.66612 -0.10900
O 	O 	0.03984 0.09713 0.56172 -0.27400
H 	H 	0.08019 0.07820 0.60506 0.06400
O 	O 	0.11010 0.12095 0.72819 -0.30300
H 	H 	0.07069 0.14007 0.68309 0.08200
H 	H 	0.02230 0.15603 0.45453 0.15100
H 	H 	0.04965 0.10045 0.52759 0.14400
H 	H 	0.09999 0.11709 0.76151 0.14400
C 	C 	0.20085 0.35312 0.93212 -0.11500
C 	C 	0.19611 0.37181 0.92783 0.00600
C 	C 	0.17117 0.37886 0.94884 0.11800
C 	C 	0.15009 0.36703 0.96954 -0.03300
C 	C 	0.15385 0.34814 0.96977 -0.12900
C 	C 	0.17995 0.34129 0.95352 0.19700
C 	C 	0.21534 0.38346 0.89508 0.00700
O 	O 	0.16665 0.39720 0.94610 -0.27100
H 	H 	0.13031 0.37248 0.98302 0.04500
O 	O 	0.18463 0.32298 0.95653 -0.27500
H 	H 	0.22031 0.34767 0.91703 0.07400
C 	C 	0.20808 0.38748 0.84173 -0.11000
O 	O 	0.21909 0.40175 0.75719 -0.28000
H 	H 	0.18838 0.38212 0.82494 0.08000
H 	H 	0.19304 0.32111 0.99265 0.16400
H 	H 	0.17438 0.40232 0.98026 0.15300
C 	C 	0.21213 0.49429 0.89330 0.12700
C 	C 	0.21213 0.50748 0.98644 0.01000
O 	O 	0.18315 0.49387 0.89309 -0.26800
H 	H 	0.21510 0.48200 0.81473 0.07100
C 	C 	0.20120 0.49442 0.02315 0.11700
C 	C 	0.19020 0.50001 0.07265 -0.02700
C 	C 	0.19099 0.51851 0.08671 -0.12300
C 	C 	0.20102 0.53160 0.04927 0.19700
C 	C 	0.21121 0.52606 0.99908 -0.11200
O 	O 	0.20165 0.47620 0.01103 -0.27400
H 	H 	0.18240 0.48987 0.10124 0.05400
O 	O 	0.20065 0.54982 0.06150 -0.30000
H 	H 	0.21929 0.53618 0.97072 0.08000
H 	H 	0.22000 0.47207 0.02493 0.14700
H 	H 	0.21938 0.55281 0.07772 0.15000
H 	H 	0.17737 0.48174 0.90768 0.16200
C 	C 	0.21182 0.49933 0.39143 -0.03600
O 	O 	0.21100 0.48693 0.48082 -0.27000
H 	H 	0.18897 0.49973 0.39194 0.04700
H 	H 	0.20636 0.47382 0.47463 0.15900
H 	H 	0.21099 0.59130 0.39844 0.05500
C 	C 	0.00850 0.50232 0.26350 0.00600
C 	C 	0.01684 0.51603 0.22659 0.12000
C 	C 	0.04510 0.52228 0.22458 -0.03500
C 	C 	0.06513 0.51512 0.25976 -0.11800
C 	C 	0.05649 0.50189 0.29814 0.19300
C 	C 	0.02835 0.49541 0.29939 -0.11100
H 	H 	0.05148 0.53255 0.19520 0.06300
O 	O 	0.07549 0.49523 0.33429 -0.28400
H 	H 	0.02193 0.48504 0.32842 0.07600
H 	H 	0.07465 0.50341 0.36606 0.14700
C 	C 	0.01653 0.77424 0.77429 -0.11600
C 	C 	0.02320 0.75123 0.68535 -0.03500
C 	C 	0.03635 0.76864 0.68548 -0.11900
C 	C 	0.03303 0.78017 0.73038 0.19700
H 	H 	0.02561 0.74229 0.65098 0.05300
O 	O 	0.04689 0.79687 0.73253 -0.28800
H 	H 	0.01405 0.78313 0.80873 0.07300
O 	O 	0.02317 0.73647 0.86260 -0.27600
H 	H 	0.03321 0.80565 0.71851 0.16000
H 	H 	0.03267 0.74646 0.88336 0.14700
C 	C 	0.00912 0.74456 0.31798 0.00500
O 	O 	0.00128 0.76706 0.22634 -0.27300
C 	C 	0.01712 0.76096 0.40204 -0.03600
C 	C 	0.04609 0.75767 0.39879 -0.12500
C 	C 	0.05635 0.74719 0.35589 0.19200
C 	C 	0.03789 0.74081 0.31552 -0.11000
H 	H 	0.00903 0.76896 0.43499 0.05200
O 	O 	0.08449 0.74343 0.35288 -0.28000
H 	H 	0.04601 0.73311 0.28196 0.07900
H 	H 	0.08640 0.73180 0.37270 0.14800
C 	C 	0.07734 0.61571 0.08215 -0.11300
C 	C 	0.05300 0.61832 0.11298 0.00600
C 	C 	0.04921 0.60893 0.16205 0.11900
C 	C 	0.06969 0.59702 0.17987 -0.03600
C 	C 	0.09440 0.59478 0.14982 -0.12300
C 	C 	0.09816 0.60413 0.10060 0.19500
C 	C 	0.03096 0.63033 0.09281 0.00600
O 	O 	0.02529 0.61118 0.19219 -0.27500
H 	H 	0.06668 0.58986 0.21778 0.05200
O 	O 	0.12159 0.60140 0.06949 -0.28400
H 	H 	0.08012 0.62266 0.04386 0.07300
C 	C 	0.03533 0.64939 0.09311 0.11600
C 	C 	0.01399 0.66065 0.07487 -0.03000
C 	C 	0.00535 0.62268 0.07400 -0.10900
O 	O 	0.06003 0.65705 0.11287 -0.27400
H 	H 	0.01754 0.67530 0.07504 0.06400
H 	H 	0.00191 0.60801 0.07370 0.08200
H 	H 	0.13538 0.61124 0.07989 0.15200
H 	H 	0.07269 0.65842 0.08118 0.14400
H 	H 	0.02994 0.62151 0.21676 0.14900
C 	C 	0.00675 0.74533 0.72924 0.12300
H 	H 	0.00704 0.72006 0.74434 0.15400
H 	H 	0.00179 0.27495 0.93959 0.05300
C 	C 	0.00316 0.75692 0.77367 0.00600
O 	O 	0.00350 0.12855 0.67642 -0.27200
O 	O 	0.22265 0.73178 0.57530 -0.27600
O 	O 	0.22302 0.06935 0.79017 -0.37300
C 	C 	0.22311 0.00670 0.60494 0.19300
C 	C 	0.22294 0.87877 0.39403 0.00600
C 	C 	0.22436 0.25698 0.03158 0.00600
C 	C 	0.22399 0.76019 0.45280 -0.11300
C 	C 	0.22455 0.00935 0.86849 -0.12200
O 	O 	0.22469 0.56587 0.26536 -0.35900
C 	C 	0.22484 0.00937 0.50736 0.00600
C 	C 	0.22629 0.39823 0.80967 0.19200
C 	C 	0.22678 0.48778 0.84857 -0.03000
C 	C 	0.22606 0.49256 0.43624 0.12400
H 	H 	0.22705 0.39172 0.73582 0.13800
C 	C 	0.22716 0.50167 0.93755 0.00300
C 	C 	0.22701 0.50618 0.34693 -0.12100
H 	H 	0.22826 0.83851 0.36536 0.15300
C 	C 	0.22934 0.09410 0.85314 -0.13200
O 	O 	0.23012 0.01591 0.01517 -0.27600
C 	C 	0.22985 0.59643 0.37800 -0.03100
H 	H 	0.23096 0.11630 0.97414 0.08000
H 	H 	0.23164 0.28132 0.07917 0.07800
O 	O 	0.23110 0.84064 0.40452 -0.27300
H 	H 	0.23206 0.89974 0.27246 0.05100
C 	C 	0.23298 0.74861 0.49381 0.00700
O 	O 	0.23294 0.99913 0.65162 -0.27900
H 	H 	0.23271 0.62414 0.45570 0.14300
C 	C 	0.23420 0.00143 0.55529 -0.10900
C 	C 	0.23529 0.98580 0.37390 0.19500
C 	C 	0.23507 0.00936 0.96434 0.11600
C 	C 	0.23529 0.59118 0.32467 -0.13200
C 	C 	0.23772 0.11199 0.93452 -0.11200
C 	C 	0.23752 0.00413 0.45546 0.00600
C 	C 	0.23616 0.89602 0.31397 -0.03100
H 	H 	0.23847 0.76444 0.42102 0.07500
O 	O 	0.24073 0.96030 0.00070 -0.27400
C 	C 	0.24104 0.39028 0.91655 0.11500
C 	C 	0.24356 0.99525 0.86061 0.19700
O 	O 	0.24370 0.61289 0.45780 -0.27300
H 	H 	0.24366 0.02639 0.01978 0.14400
H 	H 	0.24599 0.22860 0.08515 0.07100
C 	C 	0.24680 0.88602 0.42092 -0.11300
O 	O 	0.24778 0.98828 0.81001 -0.28100
O 	O 	0.24811 0.38667 0.96903 -0.27300
C 	C 	0.24888 0.60819 0.40528 0.11400
O 	O 	0.25034 0.72274 0.41614 -0.27400
H 	H 	0.25030 0.99129 0.55404 0.08200
H 	H 	0.25117 0.73104 0.38459 0.14600
H 	H 	0.25080 0.88228 0.46243 0.08000
C 	C 	0.25182 0.40537 0.83134 -0.13100
O 	O 	0.25233 0.15661 0.91866 -0.27000
C 	C 	0.25417 0.25177 0.03314 0.00500
C 	C 	0.25418 0.99534 0.95652 0.00600
C 	C 	0.25513 0.10082 0.83205 -0.03300
C 	C 	0.25676 0.50297 0.93595 -0.11300
C 	C 	0.25643 0.48860 0.84767 -0.11600
C 	C 	0.25576 0.49244 0.43649 0.00700
C 	C 	0.25671 0.50567 0.34664 0.20000
H 	H 	0.25613 0.60287 0.22378 0.13600
H 	H 	0.25732 0.15861 0.88021 0.15400
C 	C 	0.25819 0.98823 0.90467 -0.11000
C 	C 	0.25914 0.40127 0.88474 -0.03100
H 	H 	0.25893 0.37534 0.96757 0.14400
O 	O 	0.25935 0.45512 0.46676 -0.27600
O 	O 	0.26073 0.42918 0.76601 -0.35800
C 	C 	0.25983 0.90352 0.34096 -0.13500
C 	C 	0.25981 0.59800 0.29838 0.19100
C 	C 	0.26177 0.23628 0.06212 -0.11000
C 	C 	0.26093 0.97114 0.02569 0.12200
H 	H 	0.26179 0.09677 0.79212 0.05600
C 	C 	0.26197 0.74184 0.49253 0.00300
O 	O 	0.26357 0.46388 0.78633 -0.35700
C 	C 	0.26341 0.11873 0.91317 0.00500
H 	H 	0.26220 0.27279 0.93947 0.15600
C 	C 	0.26403 0.99013 0.36363 -0.11900
H 	H 	0.26556 0.95268 0.09222 0.05300
H 	H 	0.26362 0.99576 0.79456 0.16000
C 	C 	0.26558 0.00950 0.44319 0.12000
C 	C 	0.26538 0.89827 0.39444 0.19600
O 	O 	0.26510 0.59338 0.24581 -0.28300
O 	O 	0.26726 0.92971 0.28411 -0.36900
O 	O 	0.26776 0.27714 0.97594 -0.27300
C 	C 	0.27001 0.72975 0.45177 0.11800
C 	C 	0.26963 0.98792 0.00283 0.00400
H 	H 	0.26842 0.50877 0.96978 0.07400
C 	C 	0.27088 0.46824 0.50030 0.11900
H 	H 	0.27024 0.65094 0.39411 0.07300
C 	C 	0.27172 0.48029 0.80284 0.30900
C 	C 	0.27101 0.41685 0.79805 0.31300
O 	O 	0.27206 0.96412 0.30711 -0.34800
C 	C 	0.27141 0.49642 0.89134 0.18900
C 	C 	0.27094 0.49869 0.39123 -0.11700
C 	C 	0.27099 0.48671 0.48524 0.00700
C 	C 	0.27217 0.11302 0.86188 0.11400
C 	C 	0.27267 0.96552 0.07446 -0.03300
H 	H 	0.27277 0.97735 0.89849 0.08200
O 	O 	0.27178 0.51146 0.30224 -0.28400
H 	H 	0.27521 0.45122 0.44385 0.14600
C 	C 	0.27365 0.61463 0.37930 0.00600
O 	O 	0.99860 0.27089 0.73197 -0.27000
C 	C 	0.27482 0.26180 0.00378 0.12100
C 	C 	0.27638 0.15047 0.94237 0.12300
H 	H 	0.27586 0.75751 0.56186 0.08200
O 	O 	0.27747 0.46481 0.67223 -0.35700
H 	H 	0.27698 0.03349 0.46337 0.15100
H 	H 	0.27698 0.52443 0.30941 0.16400
C 	C 	0.27915 0.98113 0.31948 0.31000
C 	C 	0.27843 0.91688 0.31313 0.32200
C 	C 	0.27878 0.00241 0.39763 -0.03600
H 	H 	0.27875 0.40671 0.90171 0.05400
H 	H 	0.27986 0.44913 0.56338 0.04800
C 	C 	0.27896 0.60952 0.32593 -0.11100
O 	O 	0.28087 0.96587 0.19077 -0.36300
C 	C 	0.28129 0.13170 0.94450 0.00500
O 	O 	0.28050 0.02106 0.47697 -0.27200
C 	C 	0.28126 0.46329 0.55088 -0.03000
C 	C 	0.28197 0.74820 0.53036 -0.10700
Cu	Cu	0.28506 0.44954 0.73802 0.93000
C 	C 	0.28378 0.49991 0.51898 -0.11200
H 	H 	0.28434 0.51413 0.50718 0.07800
O 	O 	0.28880 0.49069 0.77311 -0.36300
C 	C 	0.28955 0.23041 0.06043 0.19100
O 	O 	0.28816 0.90575 0.42166 -0.28900
Cu	Cu	0.29087 0.95007 0.25417 0.93000
H 	H 	0.29249 0.17744 0.96165 0.07100
C 	C 	0.29247 0.47662 0.58607 -0.12500
C 	C 	0.28986 0.64560 0.40883 -0.11600
C 	C 	0.29109 0.99853 0.02767 -0.11200
C 	C 	0.29256 0.97679 0.10156 -0.12200
O 	O 	0.29645 0.21480 0.08708 -0.29100
H 	H 	0.29380 0.49840 0.39095 0.07500
C 	C 	0.29471 0.49491 0.56912 0.19700
C 	C 	0.29408 0.62680 0.40760 0.00600
O 	O 	0.29560 0.99114 0.28738 -0.38300
C 	C 	0.29623 0.16298 0.96409 -0.03000
O 	O 	0.29809 0.41373 0.79708 -0.44200
C 	C 	0.29804 0.47185 0.64251 0.31000
O 	O 	0.29694 0.11987 0.84010 -0.27500
C 	C 	0.29801 0.72443 0.44832 -0.03700
H 	H 	0.29791 0.61458 0.30565 0.07800
H 	H 	0.29935 0.67864 0.46372 0.15100
C 	C 	0.30031 0.97246 0.15760 0.30100
H 	H 	0.30256 0.21885 0.12353 0.14100
H 	H 	0.30074 0.00605 0.38961 0.05000
H 	H 	0.29817 0.01135 0.00973 0.07200
O 	O 	0.30037 0.49763 0.89055 -0.29600
C 	C 	0.30273 0.25611 0.00289 -0.03000
C 	C 	0.30228 0.99319 0.07727 0.19300
H 	H 	0.30404 0.71537 0.41613 0.07600
H 	H 	0.30367 0.89724 0.41563 0.15100
O 	O 	0.30545 0.91392 0.30881 -0.43700
C 	C 	0.30537 0.12554 0.97074 -0.11300
H 	H 	0.30659 0.48616 0.90724 0.14100
O 	O 	0.30570 0.50809 0.60305 -0.29200
O 	O 	0.30704 0.67602 0.42744 -0.28100
H 	H 	0.31010 0.43463 0.65887 0.17400
H 	H 	0.30908 0.11107 0.97291 0.07100
C 	C 	0.31004 0.24018 0.03004 -0.12100
C 	C 	0.30991 0.74257 0.52771 0.18800
O 	O 	0.31230 0.43478 0.69857 -0.64100
H 	H 	0.31179 0.93525 0.17047 0.17500
H 	H 	0.31154 0.11124 0.85117 0.14500
C 	C 	0.31133 0.65763 0.42711 0.19500
H 	H 	0.31138 0.01269 0.12485 0.14500
Cu	Cu	0.31677 0.41078 0.73000 0.87000
O 	O 	0.31592 0.93531 0.20962 -0.64100
H 	H 	0.31632 0.59710 0.46313 0.15200
H 	H 	0.31846 0.26372 0.97957 0.06300
C 	C 	0.31823 0.73092 0.48578 -0.11500
C 	C 	0.31931 0.61993 0.42786 0.11800
O 	O 	0.32392 0.45919 0.77073 -0.63900
O 	O 	0.32307 0.47534 0.66373 -0.38800
Cu	Cu	0.32166 0.91123 0.23941 0.87100
C 	C 	0.32138 0.15691 0.98686 -0.12400
O 	O 	0.32222 0.00419 0.10240 -0.29000
O 	O 	0.32345 0.60152 0.42772 -0.27300
Cu	Cu	0.32697 0.48375 0.74775 0.90200
H 	H 	0.32748 0.45718 0.80959 0.16700
C 	C 	0.32562 0.13803 0.99115 0.19100
H 	H 	0.32613 0.50904 0.59431 0.15100
O 	O 	0.32621 0.97574 0.17497 -0.38200
H 	H 	0.32778 0.73934 0.59516 0.14400
O 	O 	0.32902 0.74854 0.56589 -0.29000
O 	O 	0.33108 0.95936 0.28067 -0.63800
Cu	Cu	0.33311 0.98403 0.25838 0.89600
H 	H 	0.33642 0.95715 0.31866 0.17000
C 	C 	0.33749 0.65085 0.44333 -0.13100
C 	C 	0.33834 0.23297 0.02327 0.31300
O 	O 	0.34077 0.21757 0.99672 -0.35000
C 	C 	0.34095 0.63194 0.44543 -0.03400
O 	O 	0.34360 0.40536 0.67540 -0.41900
O 	O 	0.34561 0.90579 0.18015 -0.41900
C 	C 	0.34427 0.17026 0.00051 0.31300
Cu	Cu	0.34865 0.44660 0.72322 0.89700
C 	C 	0.34769 0.72494 0.48202 0.30500
O 	O 	0.34948 0.18422 0.96864 -0.36600
O 	O 	0.34980 0.13175 0.01408 -0.30300
O 	O 	0.35265 0.70989 0.45515 -0.35900
Cu	Cu	0.35340 0.94692 0.22809 0.89800
H 	H 	0.36082 0.62656 0.45869 0.04400
C 	C 	0.36178 0.66340 0.45414 0.31300
O 	O 	0.36161 0.16701 0.04028 -0.42100
O 	O 	0.36060 0.24381 0.03202 -0.38400
O 	O 	0.36619 0.67778 0.42358 -0.36500
H 	H 	0.36336 0.13065 0.98386 0.12700
O 	O 	0.36833 0.48739 0.76182 -0.37000
H 	H 	0.36834 0.39010 0.58814 0.05800
H 	H 	0.36516 0.89157 0.08618 0.05900
C 	C 	0.36912 0.41302 0.67364 0.30300
O 	O 	0.36854 0.73662 0.49401 -0.36600
O 	O 	0.37325 0.43073 0.68171 -0.36900
C 	C 	0.37096 0.91339 0.17365 0.30400
Cu	Cu	0.37500 0.20471 0.99225 0.93100
H 	H 	0.37362 0.20715 0.10204 0.17000
O 	O 	0.37473 0.98740 0.26808 -0.38700
O 	O 	0.37573 0.93104 0.18194 -0.36300
O 	O 	0.38286 0.45782 0.75256 -0.38000
O 	O 	0.38078 0.65907 0.48994 -0.43900
H 	H 	0.38436 0.70008 0.56005 0.16700
C 	C 	0.99862 0.75438 0.36192 0.11600
C 	C 	0.38852 0.47553 0.75533 0.31000
Cu	Cu	0.38862 0.69912 0.45097 0.93000
O 	O 	0.38643 0.21119 0.07252 -0.63800
C 	C 	0.38837 0.39052 0.60930 -0.03300
C 	C 	0.38614 0.89148 0.10358 -0.03300
O 	O 	0.38901 0.95828 0.25046 -0.36400
C 	C 	0.39263 0.40232 0.65334 -0.12300
H 	H 	0.39159 0.85784 0.05268 0.14400
C 	C 	0.39431 0.97605 0.25284 0.31100
Cu	Cu	0.39547 0.23647 0.07043 0.89700
O 	O 	0.39563 0.22318 0.94452 -0.34900
H 	H 	0.39924 0.26380 0.89018 0.14900
C 	C 	0.39300 0.90274 0.14776 -0.12000
O 	O 	0.39774 0.70493 0.53251 -0.63700
Cu	Cu	0.40087 0.16586 0.02611 0.87400
O 	O 	0.40103 0.25212 0.87058 -0.27800
H 	H 	0.40770 0.49374 0.86594 0.14800
H 	H 	0.40179 0.23464 0.26953 0.14800
O 	O 	0.40706 0.50188 0.83406 -0.28100
O 	O 	0.39952 0.86946 0.03779 -0.27300
Cu	Cu	0.40381 0.73051 0.53356 0.90000
O 	O 	0.40726 0.71932 0.40671 -0.36300
O 	O 	0.40550 0.36779 0.54931 -0.27600
H 	H 	0.40809 0.72752 0.73434 0.14800
C 	C 	0.40626 0.88001 0.08188 0.11600
O 	O 	0.40925 0.19060 0.00183 -0.64400
C 	C 	0.40994 0.37925 0.59240 0.11500
H 	H 	0.41188 0.37490 0.51728 0.14600
H 	H 	0.41311 0.00633 0.20086 0.05700
O 	O 	0.41134 0.24501 0.25050 -0.28500
H 	H 	0.41557 0.74856 0.33865 0.06400
Cu	Cu	0.41980 0.66085 0.47213 0.87300
O 	O 	0.41525 0.23748 0.14136 -0.37700
C 	C 	0.41877 0.40281 0.68041 0.18700
H 	H 	0.41747 0.40738 0.75552 0.13800
C 	C 	0.41829 0.48195 0.76011 -0.11600
O 	O 	0.41672 0.73821 0.71530 -0.28200
O 	O 	0.42460 0.68690 0.46094 -0.64100
O 	O 	0.42261 0.73162 0.60557 -0.37100
Cu	Cu	0.42274 0.20012 0.07284 0.89600
C 	C 	0.42024 0.23063 0.95832 0.30200
H 	H 	0.42351 0.19169 0.97273 0.17900
O 	O 	0.42340 0.41443 0.72309 -0.28400
C 	C 	0.42645 0.49526 0.79861 0.19200
C 	C 	0.42041 0.90267 0.16971 0.18600
O 	O 	0.42745 0.23182 0.00944 -0.39800
C 	C 	0.42383 0.98301 0.24892 -0.11700
C 	C 	0.42915 0.24831 0.87331 0.19200
H 	H 	0.42316 0.90640 0.24512 0.14100
C 	C 	0.43095 0.72757 0.42229 0.30000
C 	C 	0.42996 0.99910 0.22006 -0.03400
O 	O 	0.42755 0.91376 0.21245 -0.27500
Cu	Cu	0.43477 0.69492 0.53583 0.89900
O 	O 	0.43342 0.20871 0.14411 -0.38200
C 	C 	0.43361 0.22587 0.16020 0.31100
H 	H 	0.43932 0.26233 0.79918 0.08100
C 	C 	0.43582 0.37947 0.62023 0.00400
H 	H 	0.43718 0.34278 0.62923 0.08000
C 	C 	0.43355 0.87983 0.10419 0.00400
H 	H 	0.43565 0.84312 0.11108 0.07200
O 	O 	0.43730 0.72857 0.47386 -0.37700
H 	H 	0.43933 0.69019 0.43399 0.17400
O 	O 	0.44009 0.16082 0.02578 -0.41800
C 	C 	0.43955 0.23795 0.91639 -0.12300
C 	C 	0.44021 0.39140 0.66382 -0.10800
H 	H 	0.43267 0.46454 0.69616 0.06800
C 	C 	0.43812 0.74656 0.34001 -0.03500
H 	H 	0.44408 0.77655 0.27047 0.15600
O 	O 	0.44214 0.70326 0.60883 -0.37800
C 	C 	0.44141 0.72039 0.62495 0.31000
H 	H 	0.43700 0.96253 0.34097 0.14900
C 	C 	0.43946 0.24112 0.25024 0.19400
C 	C 	0.43870 0.47486 0.72560 -0.03500
O 	O 	0.44374 0.76368 0.25820 -0.27200
C 	C 	0.44054 0.89126 0.14784 -0.10600
O 	O 	0.44028 0.95827 0.30360 -0.27800
C 	C 	0.44751 0.25463 0.83268 -0.10900
C 	C 	0.44522 0.73546 0.71558 0.19300
H 	H 	0.44796 0.25514 0.32509 0.07800
C 	C 	0.44591 0.97380 0.27416 0.19600
C 	C 	0.45101 0.23120 0.20730 -0.12000
C 	C 	0.45452 0.50185 0.80071 -0.11000
H 	H 	0.46059 0.51227 0.82984 0.07700
C 	C 	0.45549 0.75413 0.29962 0.12300
C 	C 	0.44974 0.73635 0.38189 -0.12100
H 	H 	0.45207 0.75003 0.79008 0.07800
C 	C 	0.45327 0.84918 0.08884 -0.11200
C 	C 	0.45616 0.34872 0.61109 -0.10900
O 	O 	0.45973 0.65970 0.47519 -0.41900
C 	C 	0.45893 0.16853 0.05847 0.31000
O 	O 	0.45690 0.18567 0.07435 -0.37600
C 	C 	0.45788 0.00575 0.21505 0.11900
C 	C 	0.45680 0.24719 0.29275 -0.11100
C 	C 	0.45869 0.36761 0.60286 0.00400
H 	H 	0.46023 0.39176 0.68502 0.08000
C 	C 	0.45792 0.72601 0.67295 -0.11600
C 	C 	0.45513 0.86810 0.08088 0.00500
H 	H 	0.46090 0.81490 0.04317 0.15100
O 	O 	0.46355 0.02151 0.18676 -0.27600
C 	C 	0.46181 0.74235 0.75816 -0.10900
H 	H 	0.46691 0.01756 0.14911 0.14800
H 	H 	0.46633 0.31426 0.56891 0.15100
H 	H 	0.46160 0.89125 0.16492 0.08000
O 	O 	0.46885 0.68026 0.54349 -0.36500
C 	C 	0.46850 0.23457 0.91920 -0.03500
C 	C 	0.46685 0.48124 0.72843 0.12100
O 	O 	0.47158 0.81950 0.07506 -0.27900
C 	C 	0.47409 0.66480 0.51831 0.30300
C 	C 	0.47633 0.25097 0.83508 0.00500
O 	O 	0.47494 0.31893 0.60287 -0.27800
H 	H 	0.47787 0.62852 0.50379 0.04800
C 	C 	0.47474 0.49498 0.76553 0.00500
C 	C 	0.47411 0.83802 0.06807 0.19200
C 	C 	0.47383 0.98048 0.26908 -0.11000
H 	H 	0.47669 0.22664 0.95223 0.05400
C 	C 	0.47806 0.33742 0.59579 0.19300
H 	H 	0.47799 0.39555 0.53341 0.14600
H 	H 	0.46970 0.89638 0.00873 0.15300
C 	C 	0.47990 0.99646 0.23977 0.00600
C 	C 	0.47956 0.22671 0.20888 -0.03300
O 	O 	0.48085 0.23073 0.73795 -0.27100
C 	C 	0.48320 0.37521 0.57879 0.11500
C 	C 	0.47910 0.73387 0.38335 0.18800
C 	C 	0.47785 0.87587 0.05154 0.12000
C 	C 	0.48470 0.75137 0.30053 0.00400
C 	C 	0.48516 0.15890 0.06961 -0.12200
H 	H 	0.48616 0.14607 0.99113 0.06100
C 	C 	0.48548 0.24312 0.29345 0.00500
C 	C 	0.48690 0.24110 0.87885 0.11600
O 	O 	0.48579 0.39364 0.57002 -0.27300
O 	O 	0.47977 0.89434 0.04316 -0.27300
O 	O 	0.48787 0.17147 0.15953 -0.29200
H 	H 	0.48855 0.21896 0.17628 0.05700
C 	C 	0.49508 0.63430 0.52772 -0.03700
O 	O 	0.48648 0.47439 0.69392 -0.27400
C 	C 	0.48688 0.72261 0.67519 -0.03600
C 	C 	0.49522 0.25697 0.79074 0.00600
C 	C 	0.49689 0.24652 0.74342 0.12300
H 	H 	0.49275 0.22096 0.75221 0.15200
C 	C 	0.49680 0.65313 0.53807 -0.12400
O 	O 	0.49615 0.52216 0.69308 -0.26800
O 	O 	0.49083 0.72394 0.42399 -0.28900
H 	H 	0.49778 0.73310 0.21008 0.07700
C 	C 	0.49092 0.73956 0.75921 0.00400
C 	C 	0.49571 0.14696 0.03080 -0.03500
H 	H 	0.49076 0.97326 0.28812 0.07900
H 	H 	0.49466 0.03460 0.29088 0.15700
H 	H 	0.49481 0.22761 0.39028 0.07300
C 	C 	0.49676 0.23255 0.25186 0.11700
H 	H 	0.49441 0.46388 0.71321 0.15100
H 	H 	0.49816 0.51425 0.66096 0.15800
C 	C 	0.49646 0.74148 0.34289 -0.11300
H 	H 	0.49054 0.71119 0.41071 0.14100
C 	C 	0.49756 0.84590 0.04052 -0.12200
C 	C 	0.49824 0.16022 0.12062 0.19100
H 	H 	0.49889 0.18313 0.15570 0.15800
C 	C 	0.50314 0.34513 0.57356 -0.12200
C 	C 	0.50423 0.50208 0.76798 0.00500
C 	C 	0.50277 0.75802 0.25573 0.00600
C 	C 	0.50714 0.74677 0.21107 -0.11000
H 	H 	0.49676 0.71517 0.64290 0.06800
C 	C 	0.49908 0.86484 0.03209 -0.03700
C 	C 	0.50386 0.25032 0.33705 0.00500
H 	H 	0.51039 0.28123 0.83224 0.07300
C 	C 	0.50541 0.36405 0.56494 -0.03500
O 	O 	0.51283 0.60439 0.53940 -0.27300
O 	O 	0.51037 0.78699 0.29994 -0.27300
H 	H 	0.51107 0.74451 0.09882 0.15300
H 	H 	0.50358 0.72533 0.85642 0.07300
C 	C 	0.50336 0.72930 0.71818 0.12000
O 	O 	0.50417 0.02414 0.30744 -0.27500
C 	C 	0.50654 0.24041 0.38497 -0.11500
C 	C 	0.51151 0.27318 0.79570 -0.11300
C 	C 	0.51507 0.62276 0.54930 0.11900
H 	H 	0.51495 0.48548 0.83634 0.07300
C 	C 	0.50856 0.74813 0.80187 0.00600
C 	C 	0.51408 0.51535 0.73095 0.12700
C 	C 	0.52094 0.83466 0.02142 0.30100
C 	C 	0.51803 0.13573 0.04344 0.11900
H 	H 	0.51617 0.11227 0.01169 0.14800
C 	C 	0.50944 0.00316 0.23366 0.00500
H 	H 	0.51795 0.98521 0.16712 0.07700
C 	C 	0.51913 0.26691 0.33032 0.12300
O 	O 	0.51614 0.27693 0.28410 -0.27400
C 	C 	0.51449 0.25243 0.70113 -0.03500
H 	H 	0.51543 0.24440 0.66454 0.05700
O 	O 	0.51500 0.23722 0.88119 -0.27500
C 	C 	0.51946 0.66042 0.56915 0.19300
H 	H 	0.52418 0.60246 0.50640 0.15200
C 	C 	0.52250 0.49563 0.80755 -0.11400
H 	H 	0.51900 0.73941 0.34389 0.07300
C 	C 	0.51489 0.77577 0.25679 0.11800
C 	C 	0.52318 0.75319 0.16719 0.19200
C 	C 	0.51322 0.73876 0.85015 -0.11500
C 	C 	0.52109 0.76555 0.79394 0.12300
O 	O 	0.51614 0.77501 0.74736 -0.27200
H 	H 	0.52572 0.60689 0.66524 0.08000
O 	O 	0.52699 0.74207 0.12350 -0.29000
H 	H 	0.51696 0.87107 0.01101 0.05000
O 	O 	0.52644 0.81920 0.04640 -0.36500
C 	C 	0.52720 0.33367 0.55956 0.30600
C 	C 	0.52095 0.14918 0.13285 -0.11300
C 	C 	0.52044 0.01714 0.26715 0.12400
C 	C 	0.52478 0.24679 0.42576 0.19300
C 	C 	0.52950 0.27897 0.75376 0.19500
H 	H 	0.52407 0.24749 0.90143 0.14500
H 	H 	0.52455 0.37015 0.54791 0.05100
O 	O 	0.52236 0.67884 0.57787 -0.28200
C 	C 	0.53103 0.78221 0.21298 -0.03000
H 	H 	0.52604 0.78474 0.32536 0.14700
O 	O 	0.53164 0.31863 0.58761 -0.36500
H 	H 	0.52791 0.10751 0.16025 0.07300
O 	O 	0.52746 0.12371 0.00566 -0.27700
C 	C 	0.52641 0.99588 0.19328 -0.11500
O 	O 	0.52765 0.23673 0.47196 -0.29200
O 	O 	0.52481 0.22850 0.25217 -0.27600
H 	H 	0.52574 0.21676 0.27179 0.14600
C 	C 	0.53079 0.26867 0.70588 -0.11600
C 	C 	0.53543 0.77094 0.16817 -0.11700
C 	C 	0.53074 0.74655 0.89009 0.19300
C 	C 	0.53077 0.13685 0.09457 0.00600
H 	H 	0.53089 0.27264 0.25919 0.15500
C 	C 	0.53676 0.62992 0.58247 0.00500
H 	H 	0.53133 0.77157 0.72217 0.15500
O 	O 	0.53555 0.84013 0.97897 -0.41300
H 	H 	0.53067 0.15005 0.17237 0.07400
C 	C 	0.53705 0.27345 0.37137 -0.03400
H 	H 	0.53429 0.68356 0.54778 0.15200
H 	H 	0.54036 0.79588 0.21416 0.06300
C 	C 	0.53825 0.77346 0.83412 -0.03400
O 	O 	0.53555 0.73705 0.93668 -0.29000
O 	O 	0.53183 0.72647 0.71887 -0.27400
C 	C 	0.53904 0.64875 0.59185 -0.11400
C 	C 	0.54013 0.26342 0.41907 -0.12200
C 	C 	0.54211 0.52199 0.73355 -0.03500
H 	H 	0.53393 0.71492 0.73900 0.14800
O 	O 	0.54427 0.33904 0.52034 -0.41800
O 	O 	0.54573 0.29467 0.75966 -0.28100
C 	C 	0.54740 0.60648 0.65146 -0.10700
H 	H 	0.54957 0.53216 0.70474 0.07000
C 	C 	0.54336 0.76400 0.88215 -0.12100
H 	H 	0.54771 0.78694 0.82780 0.05300
O 	O 	0.55233 0.79497 0.10904 -0.37700
C 	C 	0.55301 0.77758 0.12264 0.30900
O 	O 	0.55216 0.29186 0.64876 -0.36300
C 	C 	0.54971 0.27439 0.66132 0.30900
C 	C 	0.54835 0.02364 0.26033 -0.03400
H 	H 	0.54863 0.28630 0.36602 0.05300
H 	H 	0.54328 0.22843 0.46449 0.14600
C 	C 	0.55050 0.50231 0.81038 0.19200
O 	O 	0.55729 0.77075 0.97413 -0.37600
H 	H 	0.55518 0.80970 0.93572 0.17600
O 	O 	0.55385 0.26879 0.51183 -0.38000
C 	C 	0.54865 0.10976 0.14254 -0.11300
C 	C 	0.55391 0.12474 0.10853 0.00100
C 	C 	0.55418 0.00254 0.18587 0.19400
C 	C 	0.55663 0.61764 0.60861 0.00500
H 	H 	0.55595 0.65434 0.61689 0.07100
O 	O 	0.55691 0.58428 0.71935 -0.28000
H 	H 	0.56006 0.59185 0.75207 0.14100
C 	C 	0.56059 0.51533 0.77258 -0.11600
H 	H 	0.55240 0.72981 0.92914 0.14900
Cu	Cu	0.56022 0.80431 0.03715 0.89700
C 	C 	0.56313 0.77198 0.92238 0.30100
Cu	Cu	0.56228 0.30119 0.57784 0.89700
C 	C 	0.56048 0.26988 0.46041 0.30100
H 	H 	0.55910 0.30773 0.47679 0.17600
H 	H 	0.55678 0.03428 0.28665 0.05700
H 	H 	0.56366 0.29078 0.77604 0.14800
O 	O 	0.57011 0.81270 0.96253 -0.64100
O 	O 	0.57336 0.76721 0.10514 -0.37300
O 	O 	0.56777 0.26256 0.64275 -0.38800
O 	O 	0.56467 0.08324 0.18801 -0.27900
C 	C 	0.56539 0.01636 0.21991 -0.11700
O 	O 	0.57030 0.99555 0.14535 -0.28500
H 	H 	0.56670 0.00325 0.11337 0.15400
C 	C 	0.56617 0.59498 0.67712 0.18800
O 	O 	0.56795 0.49609 0.85001 -0.28600
H 	H 	0.56554 0.50448 0.88090 0.14800
Cu	Cu	0.57542 0.83861 0.97558 0.87800
O 	O 	0.57416 0.30938 0.50422 -0.64300
C 	C 	0.57005 0.09761 0.15372 0.18500
H 	H 	0.56972 0.08788 0.22444 0.13800
O 	O 	0.58654 0.78045 0.90620 -0.36200
C 	C 	0.59037 0.52194 0.77340 0.31100
Cu	Cu	0.58355 0.33463 0.52031 0.87400
Cu	Cu	0.58641 0.26319 0.57077 0.89800
O 	O 	0.58537 0.27666 0.44566 -0.36100
C 	C 	0.58088 0.12767 0.08592 0.12600
H 	H 	0.58312 0.13891 0.01722 0.15900
C 	C 	0.58468 0.61689 0.59042 0.11600
Cu	Cu	0.59129 0.76843 0.03256 0.90100
O 	O 	0.59590 0.53968 0.77048 -0.37800
O 	O 	0.58669 0.14283 0.05496 -0.27600
C 	C 	0.59442 0.59450 0.65969 -0.12100
O 	O 	0.59360 0.62712 0.54697 -0.27300
O 	O 	0.59719 0.79406 0.03243 -0.63600
O 	O 	0.59703 0.28822 0.57333 -0.63600
C 	C 	0.59467 0.02343 0.21284 0.30700
O 	O 	0.59938 0.04126 0.20968 -0.37300
C 	C 	0.59684 0.10011 0.12941 -0.11900
C 	C 	0.60341 0.60528 0.61578 -0.03200
H 	H 	0.60130 0.63871 0.56244 0.14300
Cu	Cu	0.60584 0.80032 0.95092 0.92900
O 	O 	0.61461 0.83997 0.99185 -0.43000
H 	H 	0.61082 0.79880 0.05971 0.16400
C 	C 	0.61517 0.58426 0.69057 0.30600
O 	O 	0.61028 0.51025 0.78447 -0.37400
O 	O 	0.60964 0.56685 0.70187 -0.36800
Cu	Cu	0.60752 0.29457 0.49282 0.93000
O 	O 	0.61983 0.25478 0.52932 -0.38300
H 	H 	0.61109 0.29160 0.60145 0.16600
C 	C 	0.61958 0.08720 0.13996 0.29200
O 	O 	0.61484 0.01176 0.20310 -0.37600
O 	O 	0.61274 0.06977 0.14605 -0.35700
C 	C 	0.60215 0.11538 0.09617 -0.04100
O 	O 	0.62831 0.82168 0.92375 -0.37400
O 	O 	0.62618 0.76256 0.99160 -0.36600
Cu	Cu	0.63163 0.55104 0.74912 0.89700
O 	O 	0.62231 0.33290 0.53841 -0.43800
H 	H 	0.62273 0.11768 0.07789 0.06000
H 	H 	0.62504 0.60483 0.60170 0.05800
O 	O 	0.63032 0.87477 0.96376 -0.30700
C 	C 	0.63301 0.83597 0.95457 0.31600
H 	H 	0.63317 0.87708 0.00282 0.14800
O 	O 	0.64012 0.59201 0.70038 -0.42000
O 	O 	0.63387 0.31457 0.46891 -0.35800
Cu	Cu	0.63484 0.05277 0.18790 0.90500
O 	O 	0.64179 0.78942 0.95340 -0.36500
H 	H 	0.64710 0.54068 0.84039 0.16900
C 	C 	0.64280 0.26469 0.51767 0.30800
O 	O 	0.64107 0.28097 0.49577 -0.34800
C 	C 	0.64038 0.32819 0.50130 0.31100
C 	C 	0.64694 0.77433 0.97994 0.30600
Cu	Cu	0.65215 0.51418 0.77947 0.89800
O 	O 	0.64559 0.09213 0.12682 -0.41100
H 	H 	0.64562 0.36469 0.51650 0.04400
O 	O 	0.65322 0.53869 0.80272 -0.64000
H 	H 	0.64851 0.04078 0.27695 0.16400
C 	C 	0.65495 0.86741 0.94633 0.19400
Cu	Cu	0.66211 0.58674 0.76235 0.87400
O 	O 	0.66099 0.52276 0.69699 -0.38100
Cu	Cu	0.65661 0.01537 0.21518 0.89700
O 	O 	0.65555 0.03953 0.23958 -0.64600
H 	H 	0.66244 0.24182 0.59332 0.04800
C 	C 	0.65756 0.84834 0.94386 -0.13000
O 	O 	0.66493 0.74832 0.05816 -0.29000
O 	O 	0.66922 0.56286 0.73280 -0.64200
O 	O 	0.66685 0.49385 0.62709 -0.28800
C 	C 	0.66401 0.35902 0.49765 -0.03600
C 	C 	0.66537 0.34012 0.48974 -0.12800
H 	H 	0.67415 0.89355 0.92665 0.07900
H 	H 	0.66577 0.75654 0.08992 0.14200
O 	O 	0.67617 0.58394 0.83341 -0.42400
H 	H 	0.67403 0.56297 0.69393 0.17600
O 	O 	0.67241 0.02395 0.13655 -0.37100
C 	C 	0.67037 0.25589 0.51799 -0.12000
H 	H 	0.67728 0.48546 0.65060 0.14800
C 	C 	0.67680 0.87894 0.92705 -0.11200
C 	C 	0.67653 0.76849 0.98376 -0.11600
O 	O 	0.67356 0.06328 0.16896 -0.63500
C 	C 	0.67752 0.24461 0.56127 -0.03600
H 	H 	0.67481 0.26056 0.40563 0.15600
H 	H 	0.68399 0.49163 0.91317 0.05200
O 	O 	0.68908 0.50721 0.81165 -0.38100
Cu	Cu	0.67720 0.08968 0.17400 0.87700
H 	H 	0.67857 0.05989 0.13170 0.17200
H 	H 	0.68207 0.02790 0.41066 0.14200
O 	O 	0.67813 0.04058 0.02990 -0.29100
C 	C 	0.68561 0.37076 0.47849 0.12000
O 	O 	0.68325 0.38925 0.48378 -0.27200
O 	O 	0.69195 0.61946 0.84854 -0.30000
O 	O 	0.68943 0.88262 0.79820 -0.27100
C 	C 	0.68296 0.84114 0.92577 -0.02900
C 	C 	0.68443 0.75553 0.02254 0.18700
H 	H 	0.69393 0.87106 0.77992 0.15000
Cu	Cu	0.69370 0.54840 0.77925 0.93000
C 	C 	0.68729 0.52600 0.68194 0.30200
H 	H 	0.69029 0.99728 0.89314 0.14800
O 	O 	0.68300 0.26940 0.43205 -0.27100
C 	C 	0.68722 0.50475 0.60281 0.19400
H 	H 	0.69240 0.48633 0.53623 0.08200
H 	H 	0.69788 0.62194 0.81081 0.12500
H 	H 	0.68545 0.82651 0.92496 0.06300
H 	H 	0.69168 0.78658 0.92027 0.06800
O 	O 	0.69061 0.00893 0.25858 -0.38400
H 	H 	0.68616 0.05322 0.03076 0.13800
C 	C 	0.69002 0.25915 0.47604 0.19400
O 	O 	0.70428 0.47667 0.00059 -0.27300
C 	C 	0.68977 0.33294 0.46643 0.19200
O 	O 	0.69229 0.31446 0.46130 -0.27000
H 	H 	0.69277 0.39240 0.51833 0.15400
C 	C 	0.70126 0.87164 0.90525 0.00500
C 	C 	0.69726 0.77635 0.94955 -0.03500
C 	C 	0.69652 0.52125 0.62706 -0.12200
C 	C 	0.70500 0.51727 0.84462 0.31100
C 	C 	0.70315 0.58137 0.84066 0.31200
Cu	Cu	0.69602 0.05045 0.22434 0.92600
C 	C 	0.69957 0.02718 0.12913 0.30300
O 	O 	0.70357 0.98884 0.91017 -0.27100
C 	C 	0.70438 0.23723 0.56399 0.11500
C 	C 	0.69922 0.49921 0.55414 -0.10900
C 	C 	0.70575 0.49561 0.92181 -0.03600
H 	H 	0.70844 0.46438 0.98674 0.15200
H 	H 	0.70267 0.37450 0.34795 0.07800
C 	C 	0.70479 0.85271 0.90657 0.11500
O 	O 	0.70576 0.53292 0.71649 -0.36200
C 	C 	0.70454 0.01949 0.29358 0.31000
O 	O 	0.70091 0.03312 0.40055 -0.28700
C 	C 	0.70103 0.02962 0.02869 0.18900
H 	H 	0.70361 0.02977 0.94202 0.07200
O 	O 	0.71089 0.22592 0.60591 -0.27400
H 	H 	0.70160 0.31053 0.49498 0.15200
C 	C 	0.71430 0.88869 0.82142 0.11900
C 	C 	0.71537 0.61293 0.87363 0.19000
O 	O 	0.71571 0.56897 0.81217 -0.36900
O 	O 	0.71164 0.53443 0.83332 -0.35200
C 	C 	0.71895 0.48861 0.96752 0.12000
C 	C 	0.71116 0.34474 0.44655 -0.11500
C 	C 	0.70868 0.36366 0.45084 0.00500
C 	C 	0.71237 0.74990 0.02470 -0.10900
O 	O 	0.71471 0.03546 0.16678 -0.36300
O 	O 	0.71035 0.07172 0.26733 -0.37300
O 	O 	0.71541 0.09138 0.19693 -0.42300
O 	O 	0.71105 0.03677 0.28269 -0.35100
C 	C 	0.71896 0.01090 0.33906 -0.12000
C 	C 	0.71729 0.01839 0.39115 0.19000
C 	C 	0.71267 0.02476 0.97908 -0.11000
C 	C 	0.71251 0.02300 0.07695 -0.12300
C 	C 	0.71695 0.25198 0.47922 -0.11000
H 	H 	0.71853 0.23408 0.63466 0.14200
C 	C 	0.72023 0.50824 0.88855 -0.12000
C 	C 	0.72132 0.38053 0.36704 -0.11100
C 	C 	0.72022 0.59407 0.87440 -0.12500
C 	C 	0.72105 0.88351 0.87432 0.00700
H 	H 	0.72722 0.90435 0.75194 0.05600
H 	H 	0.71815 0.73959 0.05361 0.08100
H 	H 	0.72844 0.97790 0.82209 0.06800
O 	O 	0.72195 0.09214 0.35885 -0.29400
C 	C 	0.72427 0.24104 0.52303 0.00600
C 	C 	0.72097 0.50977 0.53007 0.00500
H 	H 	0.71854 0.52063 0.42597 0.07400
C 	C 	0.71708 0.53233 0.60107 -0.03300
H 	H 	0.72756 0.50236 0.32189 0.16200
H 	H 	0.73187 0.50616 0.07940 0.08200
H 	H 	0.73158 0.63969 0.89508 0.07300
C 	C 	0.73264 0.90040 0.79266 -0.03300
C 	C 	0.72525 0.77096 0.95258 0.11700
C 	C 	0.73496 0.62518 0.89728 -0.11200
C 	C 	0.72303 0.08596 0.24496 0.31400
H 	H 	0.74059 0.96360 0.47257 0.07100
H 	H 	0.73151 0.01691 0.47343 0.08000
C 	C 	0.72991 0.99466 0.89313 0.11600
H 	H 	0.72759 0.08013 0.37279 0.16700
H 	H 	0.73464 0.20218 0.47075 0.15300
H 	H 	0.72411 0.54514 0.61906 0.05300
C 	C 	0.72801 0.37593 0.42024 0.00700
H 	H 	0.72921 0.33920 0.42621 0.07300
O 	O 	0.73155 0.39747 0.28647 -0.28400
O 	O 	0.72879 0.84543 0.88590 -0.27300
C 	C 	0.73283 0.75754 0.98982 0.00600
C 	C 	0.73593 0.99588 0.32998 -0.03100
C 	C 	0.73285 0.01106 0.43342 -0.10800
H 	H 	0.73757 0.99017 0.28984 0.06000
H 	H 	0.73216 0.25487 0.44745 0.08300
C 	C 	0.73289 0.50963 0.43214 -0.11200
C 	C 	0.72932 0.52664 0.55283 0.11600
C 	C 	0.73841 0.39308 0.33853 0.19200
C 	C 	0.73563 0.01320 0.97719 0.00600
C 	C 	0.73612 0.01200 0.07514 -0.03300
C 	C 	0.74108 0.98756 0.84568 -0.03100
O 	O 	0.74272 0.21321 0.45264 -0.27200
C 	C 	0.73661 0.50241 0.48392 0.00700
C 	C 	0.74670 0.49443 0.98064 0.00600
C 	C 	0.74896 0.49671 0.08067 -0.10900
O 	O 	0.74999 0.49908 0.17700 -0.27900
H 	H 	0.74152 0.38866 0.26358 0.13400
C 	C 	0.74385 0.58769 0.90185 -0.03100
H 	H 	0.74505 0.77203 0.88625 0.14600
C 	C 	0.75754 0.97160 0.49134 -0.11200
C 	C 	0.75012 0.99621 0.42421 0.00600
O 	O 	0.76134 0.94876 0.55968 -0.29100
C 	C 	0.75147 0.98852 0.37233 0.11500
H 	H 	0.75684 0.96313 0.36774 0.14300
C 	C 	0.74627 0.00694 0.92464 0.00400
H 	H 	0.74523 0.00702 0.11220 0.06000
C 	C 	0.74472 0.09870 0.32974 0.19600
C 	C 	0.74746 0.50255 0.38812 0.19700
O 	O 	0.74352 0.50965 0.33760 -0.28300
C 	C 	0.74874 0.51302 0.89962 0.19500
H 	H 	0.74738 0.57319 0.90389 0.07000
C 	C 	0.74651 0.88980 0.89769 -0.11500
H 	H 	0.74200 0.84479 0.91680 0.14700
O 	O 	0.74537 0.77920 0.92014 -0.27400
C 	C 	0.74745 0.00687 0.02550 0.11900
C 	C 	0.74611 0.09584 0.27358 -0.12800
C 	C 	0.75296 0.23384 0.52615 0.00400
H 	H 	0.74095 0.54539 0.50458 0.14600
C 	C 	0.75926 0.48929 0.03272 0.00600
C 	C 	0.76059 0.49194 0.13033 0.19400
H 	H 	0.76143 0.51042 0.18362 0.15100
C 	C 	0.75239 0.38365 0.44467 0.11500
C 	C 	0.75983 0.61884 0.92018 0.00500
C 	C 	0.75807 0.90681 0.81597 -0.13300
H 	H 	0.75187 0.88575 0.93835 0.07300
H 	H 	0.75767 0.73757 0.91306 0.07400
O 	O 	0.76643 0.93165 0.75417 -0.37000
C 	C 	0.76614 0.98848 0.46940 0.00600
C 	C 	0.77011 0.96526 0.53852 0.19200
O 	O 	0.76884 0.97432 0.36245 -0.27300
H 	H 	0.77397 0.93974 0.54349 0.14000
H 	H 	0.76183 0.98314 0.02300 0.15000
H 	H 	0.76450 0.11161 0.39864 0.07900
C 	C 	0.76165 0.22075 0.48881 0.12100
C 	C 	0.75547 0.48823 0.49175 0.12100
O 	O 	0.75936 0.48111 0.54225 -0.27300
O 	O 	0.75057 0.53709 0.52964 -0.27300
C 	C 	0.76167 0.50634 0.94599 -0.11300
O 	O 	0.76381 0.52448 0.86576 -0.27900
C 	C 	0.76224 0.40134 0.36355 -0.13200
O 	O 	0.75903 0.37931 0.49686 -0.27400
C 	C 	0.76381 0.60000 0.92404 0.12300
C 	C 	0.76498 0.90149 0.86881 0.19500
C 	C 	0.76187 0.75082 0.99048 0.00700
O 	O 	0.77559 0.46616 0.22001 -0.34900
O 	O 	0.76685 0.42868 0.31041 -0.35500
O 	O 	0.77244 0.46289 0.33682 -0.35800
O 	O 	0.77239 0.96643 0.77136 -0.36100
C 	C 	0.76867 0.99252 0.82935 -0.12100
C 	C 	0.76591 0.10916 0.35563 -0.11200
H 	H 	0.76569 0.25111 0.59292 0.07100
C 	C 	0.76984 0.48106 0.44773 -0.03300
C 	C 	0.76606 0.48821 0.39592 -0.11900
C 	C 	0.76941 0.39635 0.41629 -0.02900
H 	H 	0.78136 0.64418 0.82508 0.14600
C 	C 	0.77152 0.74058 0.94692 -0.11200
C 	C 	0.78000 0.47977 0.34976 0.31100
C 	C 	0.77935 0.41532 0.33480 0.31600
Cu	Cu	0.79065 0.95114 0.72097 0.93100
C 	C 	0.78151 0.98311 0.78330 0.31300
O 	O 	0.78034 0.96576 0.65537 -0.35100
C 	C 	0.77712 0.91911 0.78495 0.31500
C 	C 	0.79086 0.97612 0.56513 -0.12300
O 	O 	0.77011 0.99572 0.02422 -0.27300
C 	C 	0.77335 0.01254 0.90725 -0.11000
O 	O 	0.77870 0.15344 0.35469 -0.27200
C 	C 	0.76916 0.10316 0.24426 -0.03200
H 	H 	0.77054 0.10092 0.20115 0.05900
H 	H 	0.78053 0.15860 0.31783 0.15300
C 	C 	0.77236 0.24117 0.56365 -0.11100
H 	H 	0.78394 0.46992 0.45387 0.05300
H 	H 	0.77519 0.48849 0.55814 0.15100
H 	H 	0.78318 0.51067 0.95552 0.07400
C 	C 	0.78177 0.47726 0.03457 0.11500
C 	C 	0.78264 0.47958 0.13234 -0.12400
H 	H 	0.77262 0.51639 0.83900 0.15400
H 	H 	0.77127 0.36865 0.49412 0.14300
C 	C 	0.78322 0.63187 0.93282 0.00500
C 	C 	0.78945 0.63630 0.98659 -0.11000
H 	H 	0.77650 0.63062 0.01887 0.07900
H 	H 	0.78511 0.91910 0.91081 0.15100
C 	C 	0.78003 0.75482 0.03412 0.11800
O 	O 	0.77086 0.76488 0.07690 -0.27600
H 	H 	0.77575 0.77774 0.06751 0.14900
Cu	Cu	0.78886 0.44963 0.27934 0.93100
C 	C 	0.79329 0.47336 0.18456 0.30500
C 	C 	0.78860 0.99859 0.49331 0.11900
C 	C 	0.78464 0.00537 0.85989 0.19100
H 	H 	0.78595 0.02211 0.93121 0.08000
C 	C 	0.78863 0.11670 0.32605 0.00600
C 	C 	0.78996 0.21594 0.48688 -0.03300
C 	C 	0.79337 0.47245 0.08436 -0.03300
O 	O 	0.79165 0.46962 0.98805 -0.27300
H 	H 	0.78787 0.40255 0.43562 0.05400
O 	O 	0.78745 0.59361 0.94870 -0.27400
O 	O 	0.79436 0.63486 0.83834 -0.27600
O 	O 	0.78977 0.90763 0.89217 -0.29100
O 	O 	0.79476 0.49023 0.31603 -0.36900
O 	O 	0.79719 0.99264 0.74874 -0.37600
C 	C 	0.79949 0.97161 0.62056 0.30300
C 	C 	0.80076 0.99245 0.54120 -0.03300
C 	C 	0.79042 0.11349 0.27031 0.11500
H 	H 	0.79664 0.20639 0.45649 0.06800
C 	C 	0.79987 0.63946 0.89102 0.11500
C 	C 	0.79911 0.73439 0.94648 0.19600
O 	O 	0.80627 0.41285 0.32646 -0.44100
H 	H 	0.80626 0.43619 0.19040 0.17900
O 	O 	0.80395 0.91554 0.78078 -0.42700
H 	H 	0.81135 0.93484 0.63957 0.17600
O 	O 	0.79774 0.01489 0.47138 -0.27300
C 	C 	0.80458 0.14652 0.36607 0.12100
C 	C 	0.80054 0.23600 0.56279 0.18900
H 	H 	0.81029 0.46288 0.08570 0.05000
H 	H 	0.80735 0.47791 0.97592 0.14500
C 	C 	0.81260 0.64793 0.99887 0.19700
H 	H 	0.80170 0.59269 0.91960 0.15200
C 	C 	0.80739 0.74813 0.03455 -0.03700
O 	O 	0.80853 0.72502 0.90248 -0.27700
Cu	Cu	0.82013 0.41158 0.25474 0.87100
O 	O 	0.81206 0.43581 0.22874 -0.64200
O 	O 	0.81996 0.47628 0.19738 -0.39500
Cu	Cu	0.81995 0.91163 0.71166 0.87200
O 	O 	0.81539 0.93541 0.67872 -0.64000
H 	H 	0.81704 0.00076 0.56088 0.05400
H 	H 	0.81288 0.01176 0.44570 0.15100
O 	O 	0.81187 0.01006 0.84540 -0.30200
H 	H 	0.81040 0.02114 0.82282 0.15000
C 	C 	0.81018 0.12833 0.35330 0.00600
H 	H 	0.82085 0.17155 0.40097 0.06300
O 	O 	0.81237 0.12104 0.24088 -0.27300
C 	C 	0.80974 0.22387 0.52287 -0.11700
H 	H 	0.81826 0.23444 0.63096 0.14100
C 	C 	0.82287 0.65114 0.90320 -0.03000
O 	O 	0.81802 0.65257 0.05154 -0.29100
C 	C 	0.81699 0.73774 0.99115 -0.11700
H 	H 	0.81689 0.73446 0.87811 0.15600
H 	H 	0.98831 0.77580 0.24285 0.15200
Cu	Cu	0.83084 0.48368 0.27996 0.89700
O 	O 	0.83003 0.45886 0.30033 -0.64100
O 	O 	0.83117 0.96063 0.74563 -0.64000
O 	O 	0.82561 0.97497 0.63649 -0.39300
C 	C 	0.82530 0.15754 0.39126 -0.03000
O 	O 	0.81915 0.24310 0.60026 -0.29500
C 	C 	0.82947 0.65537 0.95700 -0.13000
H 	H 	0.83589 0.65668 0.87080 0.05700
H 	H 	0.83034 0.64296 0.06543 0.15100
H 	H 	0.82102 0.75086 0.06893 0.05000
C 	C 	0.99029 0.73896 0.27317 0.00500
Cu	Cu	0.83383 0.98468 0.71827 0.89800
H 	H 	0.83649 0.95929 0.78401 0.17200
C 	C 	0.84527 0.72991 0.99340 0.31400
O 	O 	0.84114 0.40701 0.19076 -0.40400
H 	H 	0.83720 0.45630 0.33697 0.16600
O 	O 	0.84424 0.90516 0.65402 -0.41900
C 	C 	0.83657 0.12132 0.36564 -0.11400
H 	H 	0.82713 0.11177 0.24101 0.14700
O 	O 	0.84893 0.71390 0.97088 -0.34900
C 	C 	0.85429 0.66725 0.96914 0.32100
C 	C 	0.84006 0.22006 0.51718 0.30700
O 	O 	0.84708 0.20477 0.49309 -0.36300
Cu	Cu	0.85321 0.94693 0.69622 0.89800
H 	H 	0.84094 0.10730 0.35587 0.07300
O 	O 	0.85006 0.39009 0.09449 -0.28800
H 	H 	0.84789 0.39825 0.06298 0.15100
O 	O 	0.86009 0.68148 0.93874 -0.37000
Cu	Cu	0.85004 0.44746 0.24280 0.89500
C 	C 	0.85186 0.15062 0.40305 -0.12600
Cu	Cu	0.88399 0.70201 0.96683 0.93100
Cu	Cu	0.91163 0.66264 0.98928 0.87600
Cu	Cu	0.92967 0.69645 0.05156 0.89700
Cu	Cu	0.90100 0.73286 0.04956 0.89500
O 	O 	0.90439 0.72163 0.92301 -0.35000
C 	C 	0.96589 0.66481 0.03635 0.30100
O 	O 	0.89322 0.70743 0.04839 -0.63700
O 	O 	0.91880 0.68851 0.97701 -0.64000
O 	O 	0.87247 0.66236 0.00577 -0.43500
O 	O 	0.86705 0.74048 0.00804 -0.38500
O 	O 	0.93810 0.70478 0.12417 -0.36900
C 	C 	0.93817 0.72198 0.13988 0.30900
C 	C 	0.92845 0.72924 0.93925 0.30200
O 	O 	0.93466 0.72981 0.99090 -0.39500
O 	O 	0.91903 0.73323 0.12215 -0.39000
O 	O 	0.96306 0.68115 0.05801 -0.37500
O 	O 	0.95126 0.65976 0.99351 -0.40000
H 	H 	0.87953 0.70289 0.07583 0.17000
H 	H 	0.93374 0.69116 0.94992 0.17600
C 	C 	0.86541 0.41535 0.17877 0.30400
O 	O 	0.88657 0.45826 0.26216 -0.38600
C 	C 	0.89249 0.47584 0.26900 0.31100
O 	O 	0.87280 0.48750 0.28174 -0.37700
O 	O 	0.87017 0.43285 0.18971 -0.38100
Cu	Cu	0.88488 0.19785 0.47831 0.92700
Cu	Cu	0.93066 0.16564 0.46035 0.87800
Cu	Cu	0.93559 0.19856 0.55359 0.90400
Cu	Cu	0.89830 0.23154 0.55277 0.89900
O 	O 	0.89296 0.21856 0.42586 -0.34800
C 	C 	0.97620 0.17044 0.53444 0.29900
O 	O 	0.89761 0.20602 0.55547 -0.64600
O 	O 	0.92526 0.19114 0.47741 -0.63400
O 	O 	0.86668 0.17327 0.46830 -0.38500
O 	O 	0.89986 0.16216 0.41201 -0.40600
O 	O 	0.85886 0.23356 0.52481 -0.36900
O 	O 	0.94285 0.20713 0.62598 -0.36800
C 	C 	0.93991 0.22413 0.64224 0.31000
C 	C 	0.91444 0.23008 0.43371 0.30000
O 	O 	0.92538 0.23198 0.48216 -0.38400
O 	O 	0.92526 0.23599 0.61421 -0.39000
C 	C 	0.87364 0.16246 0.42875 0.31300
O 	O 	0.97135 0.18607 0.55827 -0.36400
O 	O 	0.96909 0.16793 0.48377 -0.40700
H 	H 	0.88653 0.20076 0.58589 0.16400
H 	H 	0.93675 0.19844 0.45153 0.16900
C 	C 	0.87005 0.91214 0.64867 0.30200
O 	O 	0.88900 0.95798 0.71909 -0.36600
C 	C 	0.89541 0.97565 0.72046 0.31000
O 	O 	0.87575 0.98801 0.72451 -0.38800
O 	O 	0.87536 0.92988 0.65370 -0.36200
C 	C 	0.97461 0.97996 0.69879 -0.11100
C 	C 	0.98192 0.99439 0.73367 0.00400
C 	C 	0.96099 0.00230 0.76535 0.12400
C 	C 	0.93285 0.99600 0.76123 -0.03600
C 	C 	0.92536 0.98168 0.72589 -0.11500
C 	C 	0.94644 0.97365 0.69452 0.18800
O 	O 	0.96789 0.01649 0.79938 -0.27200
H 	H 	0.91685 0.00223 0.78571 0.06200
O 	O 	0.93959 0.95962 0.65985 -0.27000
H 	H 	0.99073 0.97373 0.67463 0.07300
H 	H 	0.93526 0.96555 0.62500 0.14800
H 	H 	0.97248 0.01072 0.83433 0.15500
C 	C 	0.95324 0.84513 0.58759 -0.11400
C 	C 	0.95488 0.86374 0.57462 0.00500
C 	C 	0.97770 0.87074 0.54404 0.11900
C 	C 	0.99921 0.85932 0.52828 -0.03600
C 	C 	0.99789 0.84070 0.54160 -0.12400
C 	C 	0.97439 0.83353 0.57053 0.19300
C 	C 	0.93295 0.87598 0.59387 0.00300
O 	O 	0.97942 0.88889 0.53082 -0.27300
O 	O 	0.97213 0.81529 0.58247 -0.28300
H 	H 	0.93553 0.83965 0.61081 0.07100
C 	C 	0.90607 0.87559 0.56978 0.11600
C 	C 	0.88587 0.88787 0.58654 -0.03400
C 	C 	0.89225 0.90053 0.62760 -0.12000
C 	C 	0.91923 0.90095 0.65147 0.18600
C 	C 	0.93944 0.88872 0.63451 -0.10600
O 	O 	0.89984 0.86365 0.52856 -0.27400
H 	H 	0.86522 0.88753 0.56770 0.05800
O 	O 	0.92590 0.91335 0.69127 -0.27200
H 	H 	0.96021 0.88915 0.65289 0.07900
H 	H 	0.96174 0.80965 0.55166 0.15000
H 	H 	0.89151 0.85262 0.54625 0.14300
H 	H 	0.92075 0.90714 0.72558 0.13800
H 	H 	0.96957 0.88981 0.49568 0.15100
C 	C 	0.99328 0.25957 0.86715 0.11700
C 	C 	0.98719 0.24303 0.77967 0.00600
O 	O 	0.96487 0.26262 0.86818 -0.27500
C 	C 	0.98483 0.25416 0.73391 0.11700
C 	C 	0.96923 0.24793 0.68934 -0.03300
C 	C 	0.95560 0.23066 0.69021 -0.11900
C 	C 	0.95733 0.21971 0.73671 0.19300
C 	C 	0.97332 0.22587 0.78103 -0.11000
H 	H 	0.96808 0.25644 0.65373 0.06000
O 	O 	0.94367 0.20295 0.73874 -0.28300
H 	H 	0.97498 0.21729 0.81639 0.07800
H 	H 	0.98491 0.27961 0.74630 0.14200
H 	H 	0.92472 0.20526 0.75375 0.14600
H 	H 	0.96260 0.27412 0.84788 0.14200
C 	C 	0.97229 0.27309 0.22192 -0.11300
C 	C 	0.98187 0.26270 0.26521 0.00500
C 	C 	0.99127 0.27954 0.18246 0.18900
C 	C 	0.96161 0.25522 0.30517 0.00400
O 	O 	0.98155 0.28954 0.13997 -0.28500
H 	H 	0.95007 0.27596 0.21847 0.07300
C 	C 	0.95535 0.26523 0.35171 0.11800
C 	C 	0.93895 0.25715 0.39271 -0.03300
C 	C 	0.92853 0.23911 0.38746 -0.12000
C 	C 	0.93391 0.22934 0.33979 0.19000
C 	C 	0.95019 0.23750 0.29871 -0.10900
O 	O 	0.96637 0.28260 0.35833 -0.27400
H 	H 	0.93477 0.26480 0.42906 0.05400
O 	O 	0.92365 0.21177 0.33359 -0.28400
H 	H 	0.95473 0.22982 0.26258 0.07600
H 	H 	0.97643 0.28048 0.11164 0.14700
H 	H 	0.95211 0.29067 0.34269 0.14700
H 	H 	0.93873 0.20397 0.34745 0.13700
C 	C 	0.99109 0.14972 0.60745 -0.03800
C 	C 	0.99710 0.15848 0.55834 -0.12300
H 	H 	0.97174 0.15246 0.62888 0.04800
H 	H 	0.99266 0.11724 0.66655 0.14900
C 	C 	0.85734 0.13234 0.39073 0.19400
O 	O 	0.88300 0.12524 0.40299 -0.29800
H 	H 	0.88079 0.12016 0.43987 0.13700
C 	C 	0.89778 0.38059 0.08712 -0.11700
C 	C 	0.92633 0.38262 0.10135 0.00500
C 	C 	0.93521 0.39685 0.13605 0.12400
C 	C 	0.91532 0.40828 0.15865 -0.03800
C 	C 	0.88648 0.40552 0.14721 -0.12200
C 	C 	0.87790 0.39213 0.10925 0.19200
C 	C 	0.94669 0.36938 0.08173 0.00300
O 	O 	0.96335 0.39972 0.14741 -0.27100
H 	H 	0.92222 0.41884 0.18669 0.06100
H 	H 	0.89094 0.36990 0.05946 0.07300
C 	C 	0.95683 0.35598 0.11661 0.12100
C 	C 	0.97799 0.34451 0.09918 -0.03900
C 	C 	0.98881 0.34607 0.04661 -0.11800
C 	C 	0.97694 0.35851 0.01037 0.19000
C 	C 	0.95629 0.37030 0.02834 -0.11100
O 	O 	0.94685 0.35455 0.16843 -0.27900
H 	H 	0.98659 0.33477 0.12710 0.06900
O 	O 	0.98572 0.35934 0.95768 -0.28400
H 	H 	0.94793 0.38025 0.00088 0.07600
H 	H 	0.93050 0.34578 0.16644 0.14800
H 	H 	0.97309 0.35057 0.93806 0.14900
H 	H 	0.96677 0.39261 0.18066 0.15500
C 	C 	0.96071 0.50141 0.30554 -0.11600
C 	C 	0.97888 0.49536 0.26519 0.00500
C 	C 	0.96888 0.48256 0.22691 0.12500
C 	C 	0.94078 0.47600 0.22897 -0.03600
C 	C 	0.92240 0.48226 0.26881 -0.11900
C 	C 	0.93266 0.49478 0.30789 0.19200
O 	O 	0.98673 0.47607 0.18836 -0.26900
H 	H 	0.93320 0.46622 0.19914 0.06300
O 	O 	0.91534 0.50057 0.34832 -0.28700
H 	H 	0.96838 0.51117 0.33533 0.07300
O 	O 	0.99757 0.52299 0.19153 -0.27500
H 	H 	0.91773 0.49180 0.37826 0.14700
H 	H 	0.98960 0.53352 0.21062 0.14900
H 	H 	0.98473 0.48430 0.15695 0.15800
C 	C 	0.98464 0.75115 0.81876 0.00500
O 	O 	0.99346 0.72844 0.72795 -0.27300
C 	C 	0.99520 0.74070 0.86134 0.11700
C 	C 	0.97685 0.73392 0.90146 -0.03600
C 	C 	0.94800 0.73762 0.89951 -0.12400
C 	C 	0.93773 0.74877 0.85815 0.19200
C 	C 	0.95602 0.75536 0.81780 -0.11100
H 	H 	0.98495 0.72544 0.93332 0.05300
O 	O 	0.90973 0.75295 0.85655 -0.28000
H 	H 	0.94786 0.76356 0.78535 0.07800
H 	H 	0.90838 0.76436 0.87770 0.14700
C 	C 	0.97591 0.72197 0.27470 -0.11500
C 	C 	0.98710 0.75048 0.22844 0.12200
C 	C 	0.97006 0.74480 0.18508 -0.03600
C 	C 	0.95588 0.72772 0.18617 -0.12000
C 	C 	0.95849 0.71638 0.23171 0.19500
H 	H 	0.96807 0.75363 0.15035 0.05300
O 	O 	0.94417 0.69986 0.23421 -0.28300
H 	H 	0.97816 0.71312 0.30931 0.07300
O 	O 	0.97051 0.75822 0.36454 -0.27700
H 	H 	0.92581 0.70241 0.25138 0.14800
H 	H 	0.96151 0.74790 0.38467 0.14500
C 	C 	0.98829 0.65298 0.05602 -0.12200
C 	C 	0.98389 0.63388 0.05647 0.19200
O 	O 	0.95861 0.62615 0.03979 -0.30100
H 	H 	0.94674 0.62527 0.07272 0.13900
