data_crystal

_cell_length_a 27.98227
_cell_length_b 41.50170
_cell_length_c 35.22960
_cell_angle_alpha 90.00282
_cell_angle_beta  89.99906
_cell_angle_gamma 89.99729

_symmetry_space_group_name_	'P 1'
_symmetry_space_group_name_H-M	'P 1'

loop_
_symmetry_equiv_pos_as_xyz
  x,y,z

loop_
_atom_site_label
_atom_site_type_symbol
_atom_site_fract_x
_atom_site_fract_y
_atom_site_fract_z
_atom_site_charge
Cu	Cu	0.05445 0.86670 0.09871 0.93100
Cu	Cu	0.99662 0.86131 0.17923 0.85500
Cu	Cu	0.95143 0.84427 0.10548 0.88800
Cu	Cu	0.99992 0.83460 0.02986 0.88100
C 	C 	0.10513 0.83458 0.03897 0.29200
O 	O 	0.04246 0.90262 0.06107 -0.37400
C 	C 	0.89514 0.86664 0.17055 0.29200
O 	O 	0.00932 0.82837 0.08266 -0.62500
O 	O 	0.99582 0.87698 0.12720 -0.65400
O 	O 	0.09919 0.86769 0.14233 -0.37600
O 	O 	0.05220 0.83496 0.17806 -0.43600
O 	O 	0.06871 0.84042 0.01620 -0.38300
O 	O 	0.91134 0.81058 0.08501 -0.39600
C 	C 	0.90617 0.80508 0.04838 0.29600
C 	C 	0.00042 0.90693 0.04510 0.34100
O 	O 	0.97122 0.88241 0.04072 -0.42600
O 	O 	0.94345 0.80551 0.02532 -0.40400
O 	O 	0.10791 0.84861 0.07248 -0.36500
C 	C 	0.09407 0.84779 0.17094 0.30000
O 	O 	0.89558 0.85868 0.13422 -0.39600
O 	O 	0.93360 0.87798 0.18753 -0.43000
H 	H 	0.01827 0.80622 0.09032 0.16200
H 	H 	0.98423 0.89941 0.12466 0.16400
Cu	Cu	0.43770 0.84212 0.39741 0.92700
Cu	Cu	0.48329 0.84233 0.31203 0.86300
Cu	Cu	0.54003 0.82298 0.37918 0.89400
Cu	Cu	0.50397 0.80722 0.45743 0.89100
C 	C 	0.39885 0.80395 0.45739 0.29600
O 	O 	0.45358 0.87597 0.43670 -0.37000
C 	C 	0.58520 0.85087 0.31175 0.29100
O 	O 	0.48674 0.80411 0.40556 -0.63900
O 	O 	0.49112 0.85560 0.36465 -0.64400
O 	O 	0.38689 0.84418 0.35828 -0.38200
O 	O 	0.42977 0.81420 0.31658 -0.44500
O 	O 	0.43753 0.80948 0.47768 -0.39400
O 	O 	0.58468 0.78914 0.39218 -0.39400
C 	C 	0.59493 0.78036 0.42724 0.29700
C 	C 	0.49745 0.88028 0.44910 0.29100
O 	O 	0.52832 0.85644 0.44847 -0.40100
O 	O 	0.56145 0.77914 0.45370 -0.40000
O 	O 	0.38954 0.82127 0.42695 -0.37200
C 	C 	0.38847 0.82527 0.32850 0.29900
O 	O 	0.59032 0.84129 0.34731 -0.39100
O 	O 	0.54368 0.86126 0.29887 -0.42300
H 	H 	0.47782 0.78227 0.39672 0.15800
H 	H 	0.50204 0.87813 0.36787 0.17000
Cu	Cu	0.04617 0.16596 0.88039 0.93100
Cu	Cu	0.99091 0.17336 0.79902 0.85400
Cu	Cu	0.94361 0.18862 0.87173 0.89000
Cu	Cu	0.98916 0.19817 0.94779 0.88100
C 	C 	0.09465 0.19770 0.94149 0.29300
O 	O 	0.03234 0.12991 0.91755 -0.34900
C 	C 	0.88878 0.16765 0.80563 0.28700
O 	O 	0.00083 0.20454 0.89539 -0.62700
O 	O 	0.98852 0.15608 0.85043 -0.65400
O 	O 	0.09273 0.16464 0.83795 -0.37500
O 	O 	0.04786 0.19822 0.80164 -0.43700
O 	O 	0.05725 0.19193 0.96326 -0.38500
O 	O 	0.90275 0.22257 0.89064 -0.40000
C 	C 	0.89728 0.23007 0.92678 0.30000
C 	C 	0.98982 0.12601 0.93280 0.26500
O 	O 	0.96052 0.15058 0.93587 -0.40000
O 	O 	0.93292 0.22757 0.95130 -0.40800
O 	O 	0.09872 0.18370 0.90804 -0.36600
C 	C 	0.08879 0.18413 0.80884 0.30000
O 	O 	0.88880 0.17315 0.84260 -0.38900
O 	O 	0.92783 0.15768 0.78816 -0.42900
H 	H 	0.00995 0.22672 0.88796 0.16100
H 	H 	0.97661 0.13366 0.85214 0.16800
Cu	Cu	0.42384 0.15262 0.58399 0.92700
Cu	Cu	0.47759 0.16981 0.66371 0.86200
Cu	Cu	0.52756 0.17282 0.58977 0.89400
Cu	Cu	0.48293 0.17542 0.51228 0.89200
C 	C 	0.37747 0.17760 0.51774 0.29800
O 	O 	0.43679 0.11217 0.55359 -0.37100
C 	C 	0.57946 0.16024 0.65980 0.28700
O 	O 	0.47152 0.18777 0.56319 -0.63900
O 	O 	0.47998 0.14540 0.61641 -0.64500
O 	O 	0.37711 0.15839 0.62561 -0.38300
O 	O 	0.42276 0.19607 0.65507 -0.44500
O 	O 	0.41481 0.16897 0.49734 -0.39300
O 	O 	0.57191 0.20193 0.56539 -0.39700
C 	C 	0.57700 0.20500 0.52837 0.29900
C 	C 	0.47937 0.10562 0.53963 0.28800
O 	O 	0.50941 0.12909 0.53195 -0.40500
O 	O 	0.53975 0.20365 0.50541 -0.40000
O 	O 	0.37251 0.16768 0.55303 -0.37600
C 	C 	0.38084 0.18291 0.64886 0.30100
O 	O 	0.58028 0.15946 0.62231 -0.39100
O 	O 	0.53958 0.15430 0.67863 -0.42400
H 	H 	0.46385 0.21081 0.56722 0.15800
H 	H 	0.49009 0.12268 0.61939 0.16800
Cu	Cu	0.93641 0.65221 0.59478 0.92600
Cu	Cu	0.98604 0.66538 0.67751 0.85600
Cu	Cu	0.04013 0.67230 0.60463 0.90100
Cu	Cu	0.99895 0.67693 0.52564 0.88300
C 	C 	0.89379 0.68061 0.52889 0.29400
O 	O 	0.95011 0.61262 0.56309 -0.36100
C 	C 	0.08794 0.65810 0.67619 0.28800
O 	O 	0.98538 0.68785 0.57677 -0.64500
O 	O 	0.99123 0.64383 0.62844 -0.66700
O 	O 	0.88724 0.65600 0.63508 -0.38000
O 	O 	0.93130 0.69165 0.66913 -0.45100
O 	O 	0.93142 0.67208 0.50875 -0.39700
O 	O 	0.08552 0.70188 0.58214 -0.39100
C 	C 	0.09292 0.70458 0.54532 0.29600
C 	C 	0.99285 0.60633 0.54938 0.23600
O 	O 	0.02368 0.62978 0.54401 -0.37500
O 	O 	0.05680 0.70445 0.52123 -0.39100
O 	O 	0.88648 0.66813 0.56280 -0.36700
C 	C 	0.88991 0.67843 0.66120 0.29800
O 	O 	0.09138 0.65908 0.63881 -0.38900
O 	O 	0.04761 0.64957 0.69278 -0.41600
H 	H 	0.97739 0.71076 0.58141 0.15200
H 	H 	0.00129 0.62101 0.63012 0.18700
Cu	Cu	0.55609 0.66828 0.89345 0.92700
Cu	Cu	0.49918 0.67820 0.81360 0.86100
Cu	Cu	0.45233 0.68834 0.88699 0.89300
Cu	Cu	0.49953 0.70007 0.96179 0.89100
C 	C 	0.60436 0.70130 0.95343 0.29600
O 	O 	0.54327 0.63203 0.93050 -0.37000
C 	C 	0.39724 0.66823 0.82127 0.28700
O 	O 	0.50955 0.70612 0.90918 -0.64000
O 	O 	0.49871 0.65801 0.86364 -0.64500
O 	O 	0.60186 0.66781 0.85050 -0.37700
O 	O 	0.55660 0.70280 0.81645 -0.44300
O 	O 	0.56806 0.69500 0.97608 -0.39500
O 	O 	0.40832 0.72015 0.90711 -0.39800
C 	C 	0.40582 0.72956 0.94286 0.30000
C 	C 	0.50106 0.62770 0.94619 0.29000
O 	O 	0.47158 0.65210 0.95044 -0.40300
O 	O 	0.44390 0.72978 0.96503 -0.40100
O 	O 	0.60877 0.68622 0.92073 -0.36900
C 	C 	0.59765 0.68840 0.82249 0.29700
O 	O 	0.39874 0.67069 0.85863 -0.38800
O 	O 	0.43638 0.66206 0.80153 -0.42400
H 	H 	0.51710 0.72840 0.90113 0.15600
H 	H 	0.48820 0.63522 0.86396 0.17100
Cu	Cu	0.92849 0.35203 0.39005 0.92600
Cu	Cu	0.98190 0.35248 0.30757 0.85400
Cu	Cu	0.03134 0.33185 0.37747 0.90200
Cu	Cu	0.98577 0.31061 0.45071 0.88200
C 	C 	0.88080 0.31158 0.44380 0.29400
O 	O 	0.94386 0.38289 0.43276 -0.36200
C 	C 	0.08434 0.35850 0.31416 0.28700
O 	O 	0.97430 0.31205 0.39776 -0.64600
O 	O 	0.98511 0.36531 0.36085 -0.65100
O 	O 	0.88140 0.35806 0.34866 -0.38100
O 	O 	0.92475 0.32758 0.30765 -0.45000
O 	O 	0.91774 0.31391 0.46685 -0.39800
O 	O 	0.07489 0.29754 0.39119 -0.39200
C 	C 	0.07907 0.28560 0.42570 0.29700
C 	C 	0.98660 0.38439 0.44826 0.23800
O 	O 	0.01500 0.35916 0.44793 -0.37500
O 	O 	0.04100 0.28071 0.44702 -0.39100
O 	O 	0.87597 0.33177 0.41521 -0.36800
C 	C 	0.88402 0.34071 0.31765 0.29900
O 	O 	0.08449 0.35183 0.35080 -0.38500
O 	O 	0.04503 0.36887 0.29734 -0.41400
H 	H 	0.96561 0.29127 0.38578 0.15300
H 	H 	0.99633 0.38764 0.36520 0.16400
Cu	Cu	0.54798 0.35836 0.09104 0.92800
Cu	Cu	0.49227 0.34989 0.17186 0.86200
Cu	Cu	0.44323 0.34116 0.09804 0.89300
Cu	Cu	0.48866 0.33035 0.02248 0.89100
C 	C 	0.59471 0.32782 0.02805 0.29800
O 	O 	0.53723 0.39590 0.05539 -0.37000
C 	C 	0.39098 0.36146 0.16526 0.28600
O 	O 	0.49898 0.32243 0.07460 -0.64100
O 	O 	0.49184 0.36975 0.12167 -0.64500
O 	O 	0.59407 0.35587 0.13365 -0.38100
O 	O 	0.54645 0.32228 0.16772 -0.44500
O 	O 	0.55706 0.33450 0.00691 -0.39600
O 	O 	0.39722 0.31094 0.07732 -0.39800
C 	C 	0.39379 0.30218 0.04137 0.30000
C 	C 	0.49501 0.40212 0.04059 0.28800
O 	O 	0.46386 0.37875 0.03571 -0.40400
O 	O 	0.43128 0.30223 0.01854 -0.40100
O 	O 	0.59888 0.33944 0.06270 -0.37400
C 	C 	0.58891 0.33419 0.16040 0.30000
O 	O 	0.39104 0.35924 0.12784 -0.38900
O 	O 	0.43076 0.36790 0.18400 -0.42400
H 	H 	0.50527 0.29972 0.08165 0.15800
H 	H 	0.48299 0.39284 0.12169 0.16900
C 	C 	0.71474 0.31488 0.19184 -0.09800
C 	C 	0.71192 0.32229 0.23059 0.00500
C 	C 	0.66704 0.32881 0.24726 0.01700
C 	C 	0.62633 0.33097 0.22412 -0.01300
C 	C 	0.62978 0.32585 0.18487 -0.12300
C 	C 	0.67369 0.31571 0.16901 0.10400
C 	C 	0.75654 0.32659 0.25252 0.00200
C 	C 	0.66289 0.33539 0.28923 -0.16800
H 	H 	0.59233 0.33792 0.23643 0.01400
C 	C 	0.67728 0.30660 0.12769 -0.20800
H 	H 	0.74910 0.30914 0.17931 0.04800
C 	C 	0.78054 0.29992 0.26853 0.01800
C 	C 	0.82313 0.30484 0.28880 -0.01400
C 	C 	0.84123 0.33603 0.29404 -0.12000
C 	C 	0.81781 0.36260 0.27721 0.09200
C 	C 	0.77536 0.35766 0.25688 -0.09400
C 	C 	0.76096 0.26628 0.26398 -0.16800
H 	H 	0.84177 0.28444 0.30110 0.02700
C 	C 	0.83762 0.39625 0.28113 -0.19600
H 	H 	0.75686 0.37803 0.24439 0.04800
H 	H 	0.70912 0.29127 0.12228 0.06400
H 	H 	0.68025 0.32869 0.11008 0.08900
H 	H 	0.64535 0.29262 0.11884 0.07300
H 	H 	0.67736 0.35970 0.29565 0.06000
H 	H 	0.68308 0.31708 0.30568 0.06000
H 	H 	0.62510 0.33444 0.29884 0.05200
H 	H 	0.78202 0.24839 0.28043 0.05200
H 	H 	0.76200 0.25920 0.23360 0.05700
H 	H 	0.72349 0.26527 0.27429 0.05800
H 	H 	0.87647 0.39648 0.27466 0.04500
H 	H 	0.83177 0.40509 0.31051 0.07100
H 	H 	0.81999 0.41327 0.26122 0.05800
C 	C 	0.26300 0.34622 0.19692 -0.09400
C 	C 	0.25951 0.36710 0.22803 0.00200
C 	C 	0.29867 0.38680 0.23797 0.02100
C 	C 	0.34040 0.38591 0.21587 -0.01800
C 	C 	0.34469 0.36416 0.18546 -0.11000
C 	C 	0.30583 0.34359 0.17644 0.09200
C 	C 	0.21578 0.36644 0.25162 0.00200
C 	C 	0.29696 0.40761 0.27308 -0.17000
H 	H 	0.37002 0.40166 0.22289 0.03600
C 	C 	0.31005 0.31829 0.14585 -0.20000
H 	H 	0.23278 0.33112 0.18950 0.04800
C 	C 	0.17798 0.38821 0.24487 0.02200
C 	C 	0.13629 0.38628 0.26692 -0.01800
C 	C 	0.13058 0.36164 0.29393 -0.10800
C 	C 	0.16795 0.33901 0.29952 0.09200
C 	C 	0.21087 0.34247 0.27932 -0.09300
C 	C 	0.18108 0.41255 0.21315 -0.17100
H 	H 	0.10782 0.40360 0.26250 0.03900
C 	C 	0.16218 0.31084 0.32627 -0.20100
H 	H 	0.24003 0.32577 0.28425 0.04700
H 	H 	0.30908 0.32986 0.11746 0.08500
H 	H 	0.28026 0.30062 0.14728 0.06300
H 	H 	0.34380 0.30453 0.14925 0.06300
H 	H 	0.29287 0.39218 0.29862 0.06000
H 	H 	0.26643 0.42461 0.27151 0.06000
H 	H 	0.33011 0.42206 0.27649 0.05500
H 	H 	0.14880 0.42811 0.21191 0.05700
H 	H 	0.18443 0.39989 0.18550 0.06200
H 	H 	0.21256 0.42843 0.21723 0.06000
H 	H 	0.19071 0.29257 0.32203 0.06300
H 	H 	0.12751 0.29852 0.32131 0.06800
H 	H 	0.16427 0.31932 0.35611 0.08500
C 	C 	0.50653 0.55355 0.00809 -0.09300
C 	C 	0.47709 0.53243 0.98767 0.00300
C 	C 	0.45051 0.54398 0.95641 0.02200
C 	C 	0.45722 0.57583 0.94398 -0.01700
C 	C 	0.48920 0.59627 0.96289 -0.11200
C 	C 	0.51245 0.58554 0.99615 0.09600
C 	C 	0.47763 0.49772 0.99727 0.00100
C 	C 	0.41662 0.52210 0.93538 -0.17000
H 	H 	0.43865 0.58441 0.91891 0.02800
C 	C 	0.54517 0.60768 0.01803 -0.20100
H 	H 	0.52611 0.54474 0.03254 0.04900
C 	C 	0.51332 0.47726 0.98235 0.02300
C 	C 	0.51739 0.44562 0.99594 -0.01700
C 	C 	0.48600 0.43402 0.02378 -0.11000
C 	C 	0.44861 0.45391 0.03719 0.09200
C 	C 	0.44492 0.48575 0.02391 -0.09200
C 	C 	0.54858 0.48955 0.95336 -0.17100
H 	H 	0.54567 0.43014 0.98539 0.03400
C 	C 	0.41383 0.44179 0.06663 -0.20100
H 	H 	0.41729 0.50148 0.03498 0.04800
H 	H 	0.55399 0.59765 0.04642 0.06300
H 	H 	0.52777 0.63143 0.02255 0.06500
H 	H 	0.57897 0.61117 0.00205 0.07900
H 	H 	0.39121 0.51078 0.95559 0.06100
H 	H 	0.43704 0.50296 0.92050 0.05900
H 	H 	0.39532 0.53552 0.91397 0.05700
H 	H 	0.57078 0.46975 0.94155 0.05600
H 	H 	0.57275 0.50747 0.96673 0.06300
H 	H 	0.52946 0.50105 0.92929 0.06000
H 	H 	0.38624 0.46013 0.07353 0.06500
H 	H 	0.43316 0.43579 0.09321 0.06100
H 	H 	0.39508 0.42002 0.05596 0.07300
C 	C 	0.04492 0.52299 0.53463 -0.08700
C 	C 	0.01351 0.51065 0.50723 0.01600
C 	C 	0.97761 0.53061 0.49171 0.01200
C 	C 	0.97232 0.56221 0.50511 -0.05000
C 	C 	0.00257 0.57423 0.53347 -0.05600
C 	C 	0.03987 0.55477 0.54784 0.07700
C 	C 	0.01579 0.47610 0.49713 0.01700
C 	C 	0.94357 0.51786 0.46206 -0.16800
H 	H 	0.94408 0.57736 0.49388 0.04400
C 	C 	0.07348 0.56746 0.57780 -0.19100
H 	H 	0.07270 0.50764 0.54619 0.04800
C 	C 	0.04220 0.46565 0.46526 0.03000
C 	C 	0.03422 0.43466 0.45055 -0.03400
C 	C 	0.00142 0.41390 0.46801 -0.05800
C 	C 	0.97945 0.42302 0.50245 0.06500
C 	C 	0.98650 0.45425 0.51660 -0.10600
C 	C 	0.07659 0.48807 0.44559 -0.17400
H 	H 	0.05208 0.42720 0.42468 0.03500
C 	C 	0.94647 0.40021 0.52305 -0.18800
H 	H 	0.96735 0.46209 0.54171 0.04800
H 	H 	0.09997 0.54897 0.58662 0.06200
H 	H 	0.05302 0.57480 0.60337 0.06200
H 	H 	0.09349 0.58852 0.56661 0.06900
H 	H 	0.92038 0.49900 0.47470 0.06100
H 	H 	0.96377 0.50742 0.43789 0.05300
H 	H 	0.92023 0.53720 0.45057 0.05500
H 	H 	0.09935 0.47499 0.42484 0.05900
H 	H 	0.10066 0.49958 0.46667 0.06200
H 	H 	0.05645 0.50706 0.43020 0.06400
H 	H 	0.93975 0.40832 0.55264 0.05700
H 	H 	0.96251 0.37576 0.52454 0.05700
H 	H 	0.91172 0.39886 0.50792 0.07400
C 	C 	0.20865 0.68377 0.71458 -0.09300
C 	C 	0.21733 0.65961 0.74149 0.00200
C 	C 	0.18229 0.63586 0.74852 0.02200
C 	C 	0.14065 0.63518 0.72628 -0.01600
C 	C 	0.13214 0.65920 0.69903 -0.11000
C 	C 	0.16536 0.68463 0.69454 0.09100
C 	C 	0.26261 0.66016 0.76317 0.00200
C 	C 	0.18863 0.61177 0.78020 -0.17100
H 	H 	0.11469 0.61610 0.73037 0.03700
C 	C 	0.15460 0.71299 0.66912 -0.20000
H 	H 	0.23523 0.70236 0.70988 0.04800
C 	C 	0.30221 0.64158 0.75145 0.02100
C 	C 	0.34514 0.64333 0.77195 -0.01800
C 	C 	0.35019 0.66508 0.80228 -0.10900
C 	C 	0.31102 0.68490 0.81271 0.09300
C 	C 	0.26704 0.68120 0.79406 -0.09400
C 	C 	0.29948 0.62097 0.71622 -0.17000
H 	H 	0.37502 0.62821 0.76378 0.03600
C 	C 	0.31605 0.71055 0.84282 -0.20100
H 	H 	0.23658 0.69559 0.80271 0.04900
H 	H 	0.16081 0.70630 0.63907 0.07900
H 	H 	0.17785 0.73389 0.67597 0.06300
H 	H 	0.11701 0.72103 0.67274 0.05800
H 	H 	0.19426 0.62458 0.80751 0.06200
H 	H 	0.21991 0.59610 0.77441 0.06000
H 	H 	0.15673 0.59608 0.78345 0.05700
H 	H 	0.33375 0.60832 0.71058 0.05500
H 	H 	0.29123 0.63627 0.69120 0.06100
H 	H 	0.27120 0.60243 0.71938 0.05900
H 	H 	0.28575 0.72785 0.84205 0.06400
H 	H 	0.34923 0.72467 0.83824 0.06500
H 	H 	0.31673 0.69925 0.87138 0.08500
C 	C 	0.79113 0.72056 0.71608 -0.09600
C 	C 	0.76699 0.69406 0.73160 0.00300
C 	C 	0.78393 0.66254 0.72477 0.02000
C 	C 	0.82433 0.65798 0.70186 -0.01600
C 	C 	0.84840 0.68441 0.68604 -0.12300
C 	C 	0.83179 0.71604 0.69326 0.09400
C 	C 	0.72315 0.69935 0.75429 0.00100
C 	C 	0.75856 0.63370 0.74134 -0.16900
H 	H 	0.83722 0.63378 0.69640 0.02700
C 	C 	0.85797 0.74501 0.67790 -0.19900
H 	H 	0.77825 0.74472 0.72179 0.04700
C 	C 	0.72575 0.70327 0.79402 0.02200
C 	C 	0.68391 0.70109 0.81584 -0.01600
C 	C 	0.63948 0.69574 0.79843 -0.11300
C 	C 	0.63660 0.69406 0.75833 0.08700
C 	C 	0.67851 0.69654 0.73660 -0.09100
C 	C 	0.77327 0.70803 0.81342 -0.16900
H 	H 	0.68613 0.70245 0.84651 0.03900
C 	C 	0.58941 0.68855 0.73861 -0.19100
H 	H 	0.67669 0.69446 0.70595 0.04800
H 	H 	0.83589 0.76719 0.68003 0.05800
H 	H 	0.86698 0.74161 0.64750 0.06500
H 	H 	0.89134 0.74883 0.69434 0.06300
H 	H 	0.72219 0.63169 0.72898 0.06100
H 	H 	0.75570 0.63618 0.77264 0.06000
H 	H 	0.77799 0.61092 0.73533 0.05400
H 	H 	0.76881 0.71409 0.84394 0.05600
H 	H 	0.79309 0.72815 0.79986 0.05700
H 	H 	0.79480 0.68563 0.81132 0.05700
H 	H 	0.56600 0.70989 0.74249 0.05300
H 	H 	0.57154 0.66679 0.75024 0.03600
H 	H 	0.59413 0.68471 0.70762 0.05700
C 	C 	0.18693 0.25932 0.48298 -0.09200
C 	C 	0.21030 0.23926 0.45693 0.00200
C 	C 	0.19124 0.23502 0.42016 0.02100
C 	C 	0.14812 0.25019 0.41041 -0.01400
C 	C 	0.12449 0.27011 0.43658 -0.11000
C 	C 	0.14486 0.27553 0.47278 0.09300
C 	C 	0.25441 0.22236 0.46872 0.00500
C 	C 	0.21626 0.21388 0.39155 -0.17000
H 	H 	0.13277 0.24634 0.38252 0.03600
C 	C 	0.12182 0.29832 0.50070 -0.20100
H 	H 	0.20183 0.26255 0.51115 0.04800
C 	C 	0.29901 0.23830 0.46824 0.01900
C 	C 	0.33936 0.22289 0.48343 -0.01700
C 	C 	0.33587 0.19166 0.49830 -0.11600
C 	C 	0.29199 0.17484 0.49616 0.10300
C 	C 	0.25129 0.19070 0.48230 -0.09800
C 	C 	0.30332 0.27213 0.45298 -0.16900
H 	H 	0.37328 0.23550 0.48453 0.02100
C 	C 	0.28806 0.14034 0.50928 -0.20600
H 	H 	0.21706 0.17845 0.48224 0.05100
H 	H 	0.14660 0.30455 0.52424 0.06300
H 	H 	0.08953 0.28692 0.51313 0.06700
H 	H 	0.11167 0.32121 0.48648 0.06500
H 	H 	0.21492 0.18839 0.40102 0.06100
H 	H 	0.25414 0.22142 0.38845 0.05900
H 	H 	0.19927 0.21547 0.36310 0.05500
H 	H 	0.34127 0.27959 0.45010 0.05400
H 	H 	0.28522 0.28921 0.47252 0.05900
H 	H 	0.28663 0.27379 0.42445 0.05900
H 	H 	0.28595 0.13956 0.54073 0.07900
H 	H 	0.31939 0.12611 0.49959 0.07900
H 	H 	0.25560 0.12857 0.49754 0.06500
C 	C 	0.70724 0.21439 0.50197 -0.09400
C 	C 	0.70850 0.24681 0.49085 0.00200
C 	C 	0.66589 0.26505 0.49005 0.02100
C 	C 	0.62289 0.25087 0.50193 -0.01300
C 	C 	0.62185 0.21867 0.51389 -0.11300
C 	C 	0.66406 0.20004 0.51314 0.09300
C 	C 	0.75458 0.26141 0.47960 0.00300
C 	C 	0.66616 0.29954 0.47651 -0.17000
H 	H 	0.59027 0.26498 0.50222 0.03200
C 	C 	0.66289 0.16469 0.52316 -0.20400
H 	H 	0.73993 0.20036 0.50190 0.04600
C 	C 	0.78355 0.27731 0.50654 0.02000
C 	C 	0.82503 0.29334 0.49449 -0.01600
C 	C 	0.83865 0.29286 0.45612 -0.11100
C 	C 	0.81122 0.27503 0.42964 0.09300
C 	C 	0.76890 0.25999 0.44155 -0.09400
C 	C 	0.76992 0.27768 0.54797 -0.16900
H 	H 	0.84629 0.30667 0.51488 0.03600
C 	C 	0.82593 0.27279 0.38851 -0.20100
H 	H 	0.74676 0.24740 0.42108 0.04800
H 	H 	0.65197 0.16153 0.55321 0.07100
H 	H 	0.69841 0.15317 0.51940 0.06200
H 	H 	0.63701 0.15193 0.50458 0.06300
H 	H 	0.67934 0.30068 0.44681 0.06200
H 	H 	0.68975 0.31432 0.49491 0.06100
H 	H 	0.62984 0.31034 0.47720 0.05500
H 	H 	0.79764 0.28959 0.56566 0.05300
H 	H 	0.76559 0.25263 0.55852 0.05900
H 	H 	0.73581 0.29093 0.55184 0.05900
H 	H 	0.80759 0.25253 0.37392 0.06000
H 	H 	0.86499 0.26852 0.38596 0.05900
H 	H 	0.81634 0.29548 0.37368 0.08200
C 	C 	0.17605 0.25538 0.99479 -0.09100
C 	C 	0.22089 0.24151 0.98784 0.00100
C 	C 	0.22418 0.21279 0.96650 0.02400
C 	C 	0.18239 0.19818 0.95278 -0.01500
C 	C 	0.13757 0.21259 0.95858 -0.10400
C 	C 	0.13445 0.24179 0.97924 0.08900
C 	C 	0.26449 0.25777 0.00208 0.00500
C 	C 	0.27210 0.19759 0.95844 -0.17100
H 	H 	0.18478 0.17569 0.93724 0.04400
C 	C 	0.08714 0.25864 0.98466 -0.19700
H 	H 	0.17372 0.27731 0.01142 0.04800
C 	C 	0.28437 0.28420 0.98235 0.02100
C 	C 	0.32629 0.29871 0.99601 -0.01700
C 	C 	0.34949 0.28651 0.02822 -0.11200
C 	C 	0.33070 0.25913 0.04697 0.09700
C 	C 	0.28722 0.24587 0.03465 -0.09600
C 	C 	0.26092 0.29707 0.94689 -0.17000
H 	H 	0.34104 0.31948 0.98146 0.02800
C 	C 	0.35705 0.24362 0.07956 -0.19900
H 	H 	0.27185 0.22556 0.04967 0.04900
H 	H 	0.09206 0.28362 0.99532 0.06200
H 	H 	0.06517 0.24525 0.00562 0.06400
H 	H 	0.06757 0.26029 0.95730 0.05400
H 	H 	0.28807 0.18857 0.98526 0.06000
H 	H 	0.29653 0.21552 0.94536 0.06100
H 	H 	0.26893 0.17697 0.93848 0.05800
H 	H 	0.28302 0.31597 0.93309 0.05600
H 	H 	0.22572 0.30778 0.95409 0.06000
H 	H 	0.25574 0.27733 0.92601 0.06100
H 	H 	0.35245 0.25829 0.10560 0.06800
H 	H 	0.39571 0.24133 0.07292 0.06600
H 	H 	0.34334 0.21899 0.08540 0.06000
C 	C 	0.70014 0.31382 0.96221 -0.09600
C 	C 	0.72232 0.28765 0.98013 0.00300
C 	C 	0.70259 0.27479 0.01377 0.02100
C 	C 	0.65914 0.28694 0.02750 -0.01700
C 	C 	0.63731 0.31351 0.01008 -0.11300
C 	C 	0.65860 0.32761 0.97761 0.09900
C 	C 	0.76681 0.27420 0.96386 0.00200
C 	C 	0.72824 0.24868 0.03553 -0.16900
H 	H 	0.64263 0.27606 0.05219 0.02600
C 	C 	0.63749 0.35727 0.95933 -0.20200
H 	H 	0.71569 0.32379 0.93658 0.04800
C 	C 	0.76572 0.24630 0.94096 0.02100
C 	C 	0.80881 0.23176 0.92999 -0.01800
C 	C 	0.85276 0.24628 0.93862 -0.11300
C 	C 	0.85354 0.27607 0.95825 0.09500
C 	C 	0.81057 0.28913 0.97193 -0.09500
C 	C 	0.71884 0.23184 0.92845 -0.17000
H 	H 	0.80819 0.20897 0.91498 0.03200
C 	C 	0.89974 0.29395 0.96487 -0.19700
H 	H 	0.81115 0.31098 0.98880 0.04800
H 	H 	0.60418 0.35077 0.94402 0.07200
H 	H 	0.66260 0.36821 0.93858 0.06200
H 	H 	0.62953 0.37588 0.98109 0.07800
H 	H 	0.76530 0.25644 0.04212 0.06000
H 	H 	0.72942 0.22619 0.01852 0.05800
H 	H 	0.71015 0.24323 0.06286 0.05300
H 	H 	0.72416 0.21304 0.90639 0.05600
H 	H 	0.69550 0.25077 0.91607 0.06000
H 	H 	0.70042 0.22066 0.95302 0.05800
H 	H 	0.89304 0.31962 0.97212 0.05700
H 	H 	0.92226 0.29367 0.93892 0.06300
H 	H 	0.91953 0.28271 0.98875 0.06500
C 	C 	0.25380 0.20343 0.67590 -0.09800
C 	C 	0.25595 0.19967 0.71541 0.00500
C 	C 	0.30060 0.19521 0.73336 0.01800
C 	C 	0.34192 0.19178 0.71117 -0.01300
C 	C 	0.33919 0.19301 0.67146 -0.12300
C 	C 	0.29532 0.20079 0.65377 0.10300
C 	C 	0.21100 0.19632 0.73713 0.00300
C 	C 	0.30385 0.19178 0.77591 -0.16900
H 	H 	0.37586 0.18658 0.72472 0.01400
C 	C 	0.29207 0.20486 0.61129 -0.20700
H 	H 	0.21956 0.20745 0.66229 0.05000
C 	C 	0.18798 0.22351 0.75284 0.02000
C 	C 	0.14743 0.21920 0.77581 -0.01300
C 	C 	0.12927 0.18822 0.78257 -0.11800
C 	C 	0.15044 0.16129 0.76462 0.09400
C 	C 	0.19176 0.16553 0.74270 -0.09300
C 	C 	0.20681 0.25699 0.74554 -0.16900
H 	H 	0.13043 0.23988 0.78890 0.03300
C 	C 	0.12964 0.12796 0.76918 -0.19800
H 	H 	0.20923 0.14479 0.73009 0.05000
H 	H 	0.32384 0.21783 0.60016 0.07600
H 	H 	0.26004 0.21915 0.60326 0.06600
H 	H 	0.28951 0.18085 0.59756 0.08600
H 	H 	0.28901 0.16810 0.78464 0.06100
H 	H 	0.28352 0.21131 0.79016 0.06000
H 	H 	0.34144 0.19330 0.78591 0.05200
H 	H 	0.18396 0.27571 0.75892 0.05600
H 	H 	0.20778 0.26174 0.71453 0.06000
H 	H 	0.24344 0.25938 0.75731 0.05900
H 	H 	0.14380 0.11114 0.74737 0.06100
H 	H 	0.09017 0.12857 0.76590 0.05100
H 	H 	0.13891 0.11830 0.79762 0.07400
C 	C 	0.76296 0.18601 0.77111 -0.09400
C 	C 	0.75622 0.16138 0.74446 0.00200
C 	C 	0.79309 0.13890 0.73763 0.02000
C 	C 	0.83530 0.14045 0.75908 -0.01800
C 	C 	0.84249 0.16541 0.78543 -0.11100
C 	C 	0.80647 0.18903 0.79058 0.09100
C 	C 	0.71122 0.16033 0.72246 0.00100
C 	C 	0.78822 0.11397 0.70668 -0.16900
H 	H 	0.86293 0.12249 0.75483 0.03400
C 	C 	0.81418 0.21756 0.81642 -0.20000
H 	H 	0.73464 0.20337 0.77598 0.04700
C 	C 	0.67286 0.14054 0.73401 0.02100
C 	C 	0.63079 0.13983 0.71232 -0.01800
C 	C 	0.62530 0.16022 0.68077 -0.11000
C 	C 	0.66280 0.18155 0.67072 0.09000
C 	C 	0.70610 0.18042 0.69077 -0.09400
C 	C 	0.67607 0.12096 0.77002 -0.17000
H 	H 	0.60201 0.12372 0.72032 0.03600
C 	C 	0.65687 0.20578 0.63910 -0.19900
H 	H 	0.73553 0.19582 0.68229 0.04600
H 	H 	0.81131 0.20973 0.84641 0.08100
H 	H 	0.78703 0.23664 0.81145 0.06200
H 	H 	0.84980 0.22855 0.81137 0.06100
H 	H 	0.78249 0.12605 0.67893 0.05900
H 	H 	0.75751 0.09785 0.71268 0.05800
H 	H 	0.82076 0.09877 0.70425 0.05200
H 	H 	0.64245 0.10757 0.77572 0.05400
H 	H 	0.68289 0.13712 0.79456 0.06000
H 	H 	0.70551 0.10315 0.76786 0.05900
H 	H 	0.68467 0.22486 0.64050 0.06200
H 	H 	0.62163 0.21798 0.64109 0.06300
H 	H 	0.66012 0.19351 0.61126 0.08000
C 	C 	0.72786 0.76458 0.43701 -0.09400
C 	C 	0.72752 0.73578 0.45776 0.00200
C 	C 	0.68378 0.72012 0.46543 0.02200
C 	C 	0.64081 0.73430 0.45360 -0.01500
C 	C 	0.64086 0.76404 0.43462 -0.11000
C 	C 	0.68484 0.77907 0.42562 0.09400
C 	C 	0.77267 0.72367 0.47426 0.00300
C 	C 	0.68265 0.68916 0.48788 -0.17100
H 	H 	0.60713 0.72254 0.45994 0.03500
C 	C 	0.68619 0.81052 0.40409 -0.20300
H 	H 	0.76165 0.77617 0.43064 0.04600
C 	C 	0.80133 0.70133 0.45442 0.02000
C 	C 	0.84118 0.68764 0.47249 -0.01600
C 	C 	0.85358 0.69684 0.50959 -0.11100
C 	C 	0.82685 0.72108 0.52824 0.09300
C 	C 	0.78601 0.73377 0.51068 -0.09400
C 	C 	0.78905 0.69160 0.41433 -0.16900
H 	H 	0.86206 0.66943 0.45794 0.03700
C 	C 	0.84075 0.73286 0.56723 -0.20000
H 	H 	0.76418 0.75130 0.52556 0.04900
H 	H 	0.72276 0.82093 0.40347 0.06300
H 	H 	0.66238 0.82853 0.41773 0.07000
H 	H 	0.67463 0.80650 0.37432 0.08400
H 	H 	0.69387 0.69390 0.51760 0.06300
H 	H 	0.70710 0.67114 0.47505 0.06200
H 	H 	0.64628 0.67844 0.48845 0.05600
H 	H 	0.81663 0.67546 0.40196 0.05400
H 	H 	0.78655 0.71332 0.39602 0.05800
H 	H 	0.75432 0.67869 0.41391 0.05900
H 	H 	0.82371 0.75639 0.57380 0.05900
H 	H 	0.88002 0.73639 0.56921 0.05600
H 	H 	0.82908 0.71511 0.58891 0.07900
C 	C 	0.30080 0.74226 0.46846 -0.09300
C 	C 	0.27624 0.75469 0.49988 0.00200
C 	C 	0.29617 0.78042 0.52080 0.02100
C 	C 	0.33714 0.79603 0.50703 -0.01300
C 	C 	0.36001 0.78486 0.47415 -0.11100
C 	C 	0.34324 0.75676 0.45587 0.09000
C 	C 	0.22897 0.74124 0.50998 0.00300
C 	C 	0.27352 0.79158 0.55737 -0.17000
H 	H 	0.35084 0.81713 0.52156 0.03600
C 	C 	0.37282 0.74041 0.42566 -0.20000
H 	H 	0.28672 0.72139 0.45370 0.04800
C 	C 	0.18646 0.75673 0.49834 0.02200
C 	C 	0.14220 0.74480 0.51072 -0.01400
C 	C 	0.13975 0.71634 0.53212 -0.11100
C 	C 	0.18207 0.69911 0.54042 0.09400
C 	C 	0.22651 0.71242 0.53061 -0.09400
C 	C 	0.18814 0.78575 0.47256 -0.17100
H 	H 	0.10963 0.75759 0.50356 0.03700
C 	C 	0.18004 0.66624 0.55867 -0.20600
H 	H 	0.25920 0.70010 0.53853 0.04800
H 	H 	0.35216 0.72133 0.41083 0.06100
H 	H 	0.40468 0.72916 0.43897 0.05700
H 	H 	0.38492 0.75788 0.40387 0.06000
H 	H 	0.26601 0.77063 0.57606 0.06100
H 	H 	0.23960 0.80443 0.55129 0.06000
H 	H 	0.29744 0.80818 0.57322 0.05600
H 	H 	0.15191 0.79267 0.46256 0.05800
H 	H 	0.21019 0.78043 0.44710 0.06200
H 	H 	0.20375 0.80662 0.48784 0.06100
H 	H 	0.15263 0.65102 0.54456 0.06500
H 	H 	0.17117 0.66858 0.58920 0.07900
H 	H 	0.21480 0.65346 0.55626 0.06400
C 	C 	0.49716 0.95047 0.51680 -0.09500
C 	C 	0.51618 0.97467 0.49354 0.00500
C 	C 	0.53743 0.96636 0.45851 0.02000
C 	C 	0.53373 0.93459 0.44512 -0.01600
C 	C 	0.51047 0.91105 0.46685 -0.11400
C 	C 	0.49448 0.91856 0.50382 0.09800
C 	C 	0.50789 0.00881 0.50369 0.00100
C 	C 	0.56127 0.99165 0.43432 -0.16900
H 	H 	0.54711 0.92850 0.41713 0.02500
C 	C 	0.47179 0.89312 0.52850 -0.20200
H 	H 	0.48214 0.95679 0.54418 0.05000
C 	C 	0.46536 0.02452 0.49257 0.02400
C 	C 	0.45692 0.05627 0.50434 -0.01800
C 	C 	0.49023 0.07255 0.52707 -0.11100
C 	C 	0.53290 0.05686 0.53817 0.09000
C 	C 	0.54151 0.02511 0.52607 -0.09300
C 	C 	0.42845 0.00726 0.46884 -0.17200
H 	H 	0.42430 0.06839 0.49583 0.03800
C 	C 	0.56929 0.07375 0.56275 -0.19800
H 	H 	0.57416 0.01295 0.53441 0.04700
H 	H 	0.46920 0.90117 0.55851 0.06300
H 	H 	0.49350 0.87071 0.52804 0.06300
H 	H 	0.43525 0.88772 0.51799 0.07700
H 	H 	0.58636 0.00618 0.45175 0.05900
H 	H 	0.53382 0.00779 0.42181 0.05800
H 	H 	0.58215 0.98063 0.41086 0.05500
H 	H 	0.39814 0.02330 0.46125 0.05800
H 	H 	0.41389 0.98641 0.48485 0.06500
H 	H 	0.44477 0.99856 0.44201 0.06200
H 	H 	0.59709 0.05680 0.57317 0.06200
H 	H 	0.55175 0.08452 0.58801 0.06100
H 	H 	0.58733 0.09297 0.54617 0.07000
C 	C 	0.77406 0.78940 0.03208 -0.09600
C 	C 	0.77579 0.76171 0.00940 0.00500
C 	C 	0.82037 0.74864 0.99863 0.01800
C 	C 	0.86267 0.76288 0.01197 -0.01400
C 	C 	0.86104 0.79055 0.03487 -0.11300
C 	C 	0.81631 0.80446 0.04416 0.09600
C 	C 	0.73059 0.74699 0.99620 0.00100
C 	C 	0.82296 0.71981 0.97262 -0.16800
H 	H 	0.89691 0.75238 0.00457 0.03200
C 	C 	0.81322 0.83496 0.06738 -0.20400
H 	H 	0.73970 0.79941 0.04007 0.04900
C 	C 	0.70820 0.72231 0.01734 0.02200
C 	C 	0.66651 0.70780 0.00322 -0.01400
C 	C 	0.64626 0.71827 0.96894 -0.11100
C 	C 	0.66704 0.74434 0.94909 0.09200
C 	C 	0.70969 0.75801 0.96248 -0.09300
C 	C 	0.72867 0.71142 0.05482 -0.17000
H 	H 	0.65011 0.68809 0.01867 0.03600
C 	C 	0.64374 0.75778 0.91385 -0.20000
H 	H 	0.72662 0.77733 0.94671 0.04700
H 	H 	0.81915 0.82925 0.09779 0.08400
H 	H 	0.77754 0.84647 0.06458 0.06300
H 	H 	0.84010 0.85287 0.05773 0.06500
H 	H 	0.80545 0.72550 0.94514 0.05900
H 	H 	0.80468 0.69890 0.98584 0.05900
H 	H 	0.86049 0.71270 0.96662 0.05200
H 	H 	0.70612 0.69263 0.06837 0.05500
H 	H 	0.73096 0.73216 0.07465 0.06100
H 	H 	0.76493 0.70120 0.05052 0.05900
H 	H 	0.60517 0.76230 0.91906 0.05600
H 	H 	0.64763 0.74048 0.89006 0.07400
H 	H 	0.66019 0.78099 0.90515 0.06100
C 	C 	0.29974 0.78630 0.94896 -0.09500
C 	C 	0.27708 0.77487 0.98179 0.00300
C 	C 	0.29722 0.74891 0.00220 0.02300
C 	C 	0.33919 0.73426 0.98885 -0.01800
C 	C 	0.36210 0.74583 0.95619 -0.11200
C 	C 	0.34319 0.77286 0.93684 0.09700
C 	C 	0.23299 0.79093 0.99533 0.00100
C 	C 	0.27387 0.73660 0.03798 -0.17100
H 	H 	0.35408 0.71378 0.00389 0.02900
C 	C 	0.36929 0.78775 0.90373 -0.19900
H 	H 	0.28422 0.80630 0.93346 0.04900
C 	C 	0.23543 0.81989 0.01629 0.02400
C 	C 	0.19317 0.83434 0.02930 -0.01500
C 	C 	0.14867 0.81963 0.02301 -0.10400
C 	C 	0.14639 0.79020 0.00275 0.09000
C 	C 	0.18851 0.77668 0.98804 -0.09100
C 	C 	0.28297 0.83550 0.02469 -0.17000
H 	H 	0.19490 0.85698 0.04459 0.04400
C 	C 	0.09940 0.77307 0.99683 -0.19800
H 	H 	0.18684 0.75454 0.97174 0.04800
H 	H 	0.40807 0.78990 0.90998 0.06600
H 	H 	0.35582 0.81238 0.89754 0.06000
H 	H 	0.36415 0.77274 0.87801 0.06800
H 	H 	0.23883 0.72554 0.03103 0.06100
H 	H 	0.26839 0.75671 0.05832 0.06100
H 	H 	0.29620 0.71811 0.05232 0.05600
H 	H 	0.27908 0.85645 0.04409 0.05800
H 	H 	0.29948 0.84413 0.99791 0.06000
H 	H 	0.30728 0.81793 0.03857 0.06100
H 	H 	0.07785 0.78614 0.97531 0.06500
H 	H 	0.07915 0.77166 0.02389 0.05500
H 	H 	0.10485 0.74800 0.98665 0.06300
C 	C 	0.99163 0.05783 0.00360 -0.11400
C 	C 	0.96986 0.03328 0.98246 0.01000
C 	C 	0.94813 0.04060 0.94731 0.01700
C 	C 	0.95324 0.07163 0.93192 -0.02200
C 	C 	0.97830 0.09550 0.95181 -0.10100
C 	C 	0.99577 0.08902 0.98863 0.07100
C 	C 	0.97509 0.99949 0.99519 -0.02100
C 	C 	0.92168 0.01503 0.92534 -0.16800
H 	H 	0.93895 0.07694 0.90399 0.02500
C 	C 	0.02105 0.11481 0.01116 -0.15000
H 	H 	0.00726 0.05226 0.03099 0.06800
C 	C 	0.01604 0.98148 0.98524 0.04000
C 	C 	0.02300 0.95086 0.00109 0.01500
C 	C 	0.98968 0.93792 0.02660 -0.16200
C 	C 	0.94785 0.95548 0.03563 0.10200
C 	C 	0.94089 0.98619 0.01971 -0.09400
C 	C 	0.05334 0.99538 0.95898 -0.17600
H 	H 	0.05479 0.93719 0.99396 0.03300
C 	C 	0.91106 0.94192 0.06259 -0.20400
H 	H 	0.90933 0.00004 0.02699 0.04600
H 	H 	0.02679 0.10729 0.04109 0.05900
H 	H 	0.99941 0.13724 0.01157 0.03700
H 	H 	0.05640 0.11994 0.99818 0.07200
H 	H 	0.89561 0.00261 0.94407 0.05900
H 	H 	0.94740 0.99710 0.91396 0.05300
H 	H 	0.90147 0.02552 0.90117 0.05400
H 	H 	0.08127 0.97737 0.95173 0.06100
H 	H 	0.07106 0.01625 0.97278 0.06900
H 	H 	0.03657 0.00338 0.93203 0.06900
H 	H 	0.88213 0.95954 0.06856 0.06000
H 	H 	0.92803 0.93560 0.09008 0.05600
H 	H 	0.89441 0.92008 0.05009 0.06900
C 	C 	0.25892 0.81511 0.29967 -0.09900
C 	C 	0.26154 0.82235 0.26089 0.00500
C 	C 	0.30652 0.82679 0.24348 0.01700
C 	C 	0.34806 0.82617 0.26578 -0.01300
C 	C 	0.34528 0.82075 0.30503 -0.12300
C 	C 	0.30055 0.81352 0.32179 0.10400
C 	C 	0.21693 0.82826 0.23952 0.00300
C 	C 	0.31014 0.83406 0.20163 -0.16900
H 	H 	0.38242 0.83116 0.25281 0.01400
C 	C 	0.29674 0.80484 0.36325 -0.20800
H 	H 	0.22432 0.81125 0.31278 0.05000
C 	C 	0.19228 0.80272 0.22167 0.02100
C 	C 	0.15140 0.80942 0.19991 -0.01200
C 	C 	0.13479 0.84113 0.19615 -0.11700
C 	C 	0.15795 0.86638 0.21582 0.09400
C 	C 	0.19936 0.85978 0.23682 -0.09300
C 	C 	0.20966 0.76848 0.22548 -0.17000
H 	H 	0.13299 0.79002 0.18536 0.03200
C 	C 	0.13919 0.90044 0.21403 -0.19800
H 	H 	0.21815 0.87923 0.25097 0.04900
H 	H 	0.32613 0.78838 0.37150 0.07800
H 	H 	0.26262 0.79220 0.36945 0.06600
H 	H 	0.29830 0.82701 0.38083 0.08800
H 	H 	0.29658 0.85874 0.19598 0.06000
H 	H 	0.28885 0.81645 0.18500 0.06000
H 	H 	0.34766 0.83259 0.19146 0.05200
H 	H 	0.18633 0.75130 0.20993 0.05600
H 	H 	0.20994 0.76134 0.25585 0.06000
H 	H 	0.24637 0.76631 0.21380 0.05900
H 	H 	0.15528 0.91577 0.23651 0.06100
H 	H 	0.09986 0.90077 0.21829 0.05100
H 	H 	0.14793 0.91119 0.18603 0.07400
C 	C 	0.76772 0.88705 0.19821 -0.09700
C 	C 	0.76109 0.86640 0.22927 0.00400
C 	C 	0.79883 0.84628 0.24141 0.01900
C 	C 	0.84273 0.84719 0.22223 -0.01700
C 	C 	0.84926 0.86753 0.19092 -0.11700
C 	C 	0.81181 0.88813 0.17917 0.09900
C 	C 	0.71393 0.86512 0.24823 0.00100
C 	C 	0.79196 0.82320 0.27405 -0.16800
H 	H 	0.87168 0.83159 0.23126 0.01600
C 	C 	0.81835 0.91085 0.14613 -0.20100
H 	H 	0.73852 0.90231 0.18889 0.04800
C 	C 	0.70423 0.88442 0.28035 0.02100
C 	C 	0.66175 0.87960 0.30079 -0.01400
C 	C 	0.62832 0.85658 0.28882 -0.10900
C 	C 	0.63701 0.83839 0.25563 0.08800
C 	C 	0.67976 0.84294 0.23549 -0.09100
C 	C 	0.73947 0.90962 0.29331 -0.16900
H 	H 	0.65474 0.89370 0.32611 0.03300
C 	C 	0.60137 0.81365 0.24212 -0.19600
H 	H 	0.68711 0.82854 0.21047 0.04700
H 	H 	0.85262 0.92417 0.14881 0.06800
H 	H 	0.78921 0.92900 0.14484 0.06000
H 	H 	0.81827 0.89704 0.11915 0.07100
H 	H 	0.76394 0.80529 0.26677 0.06000
H 	H 	0.78103 0.83653 0.29995 0.05800
H 	H 	0.82534 0.80987 0.28076 0.05100
H 	H 	0.72490 0.92442 0.31690 0.05400
H 	H 	0.74816 0.92613 0.26948 0.05900
H 	H 	0.77277 0.89786 0.30337 0.05700
H 	H 	0.56722 0.82566 0.23454 0.05300
H 	H 	0.59472 0.79563 0.26482 0.05100
H 	H 	0.61440 0.80053 0.21665 0.05900
