data_crystal

_cell_length_a 29.07668
_cell_length_b 29.26995
_cell_length_c 29.06486
_cell_angle_alpha 90.00026
_cell_angle_beta  90.00507
_cell_angle_gamma 90.00017

_symmetry_space_group_name_	'P 1'
_symmetry_space_group_name_H-M	'P 1'

loop_
_symmetry_equiv_pos_as_xyz
  x,y,z

loop_
_atom_site_label
_atom_site_type_symbol
_atom_site_fract_x
_atom_site_fract_y
_atom_site_fract_z
_atom_site_charge
C 	C 	0.28403 0.41269 0.18939 0.28500
C 	C 	0.20158 0.57200 0.28664 0.30500
C 	C 	0.19591 0.41974 0.28307 0.30500
C 	C 	0.29613 0.57349 0.20177 0.28800
C 	C 	0.10544 0.50103 0.19406 0.30200
C 	C 	0.19587 0.50422 0.09891 0.28200
Ni	Ni	0.25867 0.49307 0.25315 1.12000
Ni	Ni	0.19297 0.55340 0.18732 1.12600
Ni	Ni	0.18702 0.44456 0.18370 1.12600
O 	O 	0.28468 0.42942 0.23199 -0.35300
O 	O 	0.24747 0.41733 0.16216 -0.36000
O 	O 	0.12748 0.53409 0.17243 -0.36500
O 	O 	0.24319 0.55492 0.28459 -0.36100
O 	O 	0.17214 0.56491 0.25308 -0.36700
O 	O 	0.17215 0.47125 0.12022 -0.36200
O 	O 	0.20716 0.46221 0.29106 -0.36300
O 	O 	0.19536 0.40418 0.24057 -0.35900
O 	O 	0.20887 0.54183 0.12113 -0.36500
O 	O 	0.30515 0.53113 0.21525 -0.35700
O 	O 	0.25302 0.58944 0.19867 -0.35600
O 	O 	0.12847 0.46700 0.21217 -0.37300
O 	O 	0.22164 0.49673 0.20105 -0.72200
H 	H 	0.24530 0.49616 0.17683 0.16600
C 	C 	0.73050 0.58776 0.18806 0.28800
C 	C 	0.80198 0.42318 0.28738 0.30400
C 	C 	0.81543 0.57962 0.28353 0.30500
C 	C 	0.71108 0.43027 0.19940 0.28900
C 	C 	0.90515 0.49291 0.19697 0.30400
C 	C 	0.81559 0.49197 0.10078 0.28400
Ni	Ni	0.75144 0.50750 0.25370 1.12000
Ni	Ni	0.81564 0.44382 0.18949 1.12500
Ni	Ni	0.82610 0.55235 0.18469 1.12600
O 	O 	0.72881 0.57194 0.23099 -0.35400
O 	O 	0.76731 0.58158 0.16156 -0.36300
O 	O 	0.88251 0.45945 0.17661 -0.36500
O 	O 	0.76253 0.44519 0.28723 -0.35800
O 	O 	0.83314 0.43153 0.25584 -0.36900
O 	O 	0.84038 0.52434 0.12174 -0.36400
O 	O 	0.80331 0.53741 0.29194 -0.36200
O 	O 	0.81851 0.59410 0.24072 -0.35700
O 	O 	0.80326 0.45395 0.12246 -0.36500
O 	O 	0.70375 0.47234 0.21456 -0.35700
O 	O 	0.75320 0.41175 0.19894 -0.35800
O 	O 	0.88279 0.52753 0.21472 -0.37300
O 	O 	0.78929 0.50175 0.20216 -0.72100
H 	H 	0.76634 0.50289 0.17728 0.16500
C 	C 	0.43665 0.71289 0.20934 0.28700
C 	C 	0.58953 0.81893 0.28727 0.30400
C 	C 	0.43849 0.80374 0.29766 0.30500
C 	C 	0.59624 0.72720 0.19176 0.28600
C 	C 	0.50539 0.90322 0.20584 0.30800
C 	C 	0.49979 0.81481 0.10772 0.28400
Ni	Ni	0.51864 0.74997 0.26036 1.11800
Ni	Ni	0.56270 0.82308 0.18938 1.12600
Ni	Ni	0.45385 0.81579 0.19831 1.12500
O 	O 	0.47908 0.70358 0.22363 -0.35600
O 	O 	0.41960 0.75533 0.21016 -0.35900
O 	O 	0.54247 0.88139 0.21903 -0.37900
O 	O 	0.55121 0.79907 0.30037 -0.36000
O 	O 	0.60409 0.81371 0.24482 -0.36600
O 	O 	0.46246 0.80193 0.13091 -0.36400
O 	O 	0.45782 0.76326 0.29578 -0.35800
O 	O 	0.44626 0.83405 0.26526 -0.36800
O 	O 	0.53282 0.83907 0.12803 -0.36200
O 	O 	0.58200 0.72575 0.23534 -0.35300
O 	O 	0.58961 0.76381 0.16545 -0.36000
O 	O 	0.47160 0.88147 0.18495 -0.36700
O 	O 	0.51167 0.78806 0.20918 -0.72200
H 	H 	0.51120 0.76496 0.18457 0.16200
C 	C 	0.57840 0.28686 0.20581 0.28500
C 	C 	0.42586 0.18616 0.29488 0.30900
C 	C 	0.57551 0.19442 0.29944 0.30400
C 	C 	0.42160 0.27914 0.20172 0.28200
C 	C 	0.51004 0.10001 0.20829 0.30700
C 	C 	0.50297 0.19012 0.11101 0.28600
Ni	Ni	0.49859 0.25237 0.26547 1.11800
Ni	Ni	0.44991 0.18026 0.19671 1.12600
Ni	Ni	0.55934 0.18724 0.19851 1.12500
O 	O 	0.56126 0.28360 0.24817 -0.35600
O 	O 	0.58140 0.25018 0.17885 -0.36000
O 	O 	0.47748 0.11864 0.18320 -0.37100
O 	O 	0.43713 0.22951 0.29359 -0.35900
O 	O 	0.43840 0.15835 0.26180 -0.37100
O 	O 	0.53821 0.17112 0.13349 -0.36000
O 	O 	0.53214 0.20457 0.30601 -0.36200
O 	O 	0.59408 0.19930 0.25840 -0.36100
O 	O 	0.46237 0.19673 0.13099 -0.37000
O 	O 	0.45705 0.29525 0.22586 -0.35100
O 	O 	0.40846 0.23585 0.20654 -0.36000
O 	O 	0.54484 0.12459 0.22324 -0.37100
O 	O 	0.50231 0.21498 0.21342 -0.72000
H 	H 	0.50150 0.23848 0.18920 0.15900
C 	C 	0.59026 0.19053 0.73453 0.29000
C 	C 	0.42214 0.28151 0.81175 0.30600
C 	C 	0.58004 0.28290 0.82009 0.30800
C 	C 	0.42762 0.19474 0.72083 0.29000
C 	C 	0.49811 0.19477 0.91237 0.30600
C 	C 	0.49974 0.09836 0.82392 0.28700
Ni	Ni	0.50601 0.25088 0.75802 1.12000
Ni	Ni	0.44690 0.18468 0.82422 1.12500
Ni	Ni	0.55646 0.18412 0.83093 1.12600
O 	O 	0.57064 0.23159 0.73243 -0.35600
O 	O 	0.58484 0.16308 0.77072 -0.36500
O 	O 	0.46521 0.17326 0.89001 -0.37200
O 	O 	0.44295 0.28188 0.77166 -0.36000
O 	O 	0.43179 0.24999 0.84243 -0.37100
O 	O 	0.53227 0.12102 0.84665 -0.37000
O 	O 	0.53722 0.29057 0.80823 -0.36200
O 	O 	0.59575 0.24091 0.82216 -0.36400
O 	O 	0.46009 0.11813 0.81232 -0.36200
O 	O 	0.46921 0.21122 0.71156 -0.35600
O 	O 	0.41134 0.19242 0.76374 -0.36100
O 	O 	0.53430 0.21078 0.89050 -0.37300
O 	O 	0.50361 0.19971 0.79609 -0.72400
H 	H 	0.50486 0.17516 0.77293 0.16400
C 	C 	0.71400 0.18873 0.43603 0.28800
C 	C 	0.82361 0.28849 0.57756 0.30800
C 	C 	0.80550 0.27934 0.42373 0.30200
C 	C 	0.72779 0.20366 0.59485 0.28500
C 	C 	0.90414 0.19395 0.49736 0.30900
C 	C 	0.81270 0.09980 0.51591 0.28600
Ni	Ni	0.75363 0.25507 0.50866 1.11700
Ni	Ni	0.82581 0.18899 0.56124 1.12500
Ni	Ni	0.81480 0.18138 0.45251 1.12500
O 	O 	0.71744 0.23189 0.45052 -0.35700
O 	O 	0.75023 0.16086 0.43602 -0.36100
O 	O 	0.88624 0.17195 0.53240 -0.37200
O 	O 	0.77994 0.28889 0.56597 -0.36000
O 	O 	0.85005 0.25384 0.56640 -0.37000
O 	O 	0.83147 0.11901 0.47882 -0.36200
O 	O 	0.79842 0.29131 0.46667 -0.36300
O 	O 	0.80180 0.23623 0.41123 -0.36500
O 	O 	0.80761 0.12289 0.55507 -0.36800
O 	O 	0.71165 0.22231 0.55630 -0.35400
O 	O 	0.77258 0.20389 0.60475 -0.36400
O 	O 	0.87833 0.20658 0.46247 -0.37500
O 	O 	0.78947 0.20220 0.50887 -0.72300
H 	H 	0.76516 0.17917 0.51324 0.16100
C 	C 	0.20379 0.28239 0.42566 0.28800
C 	C 	0.28353 0.18716 0.58389 0.30700
C 	C 	0.28948 0.18779 0.43159 0.31100
C 	C 	0.18973 0.27453 0.58767 0.28800
C 	C 	0.19818 0.09560 0.50164 0.30700
C 	C 	0.10152 0.18616 0.49540 0.28600
Ni	Ni	0.25514 0.24766 0.50808 1.12000
Ni	Ni	0.18459 0.17771 0.55746 1.12500
Ni	Ni	0.19041 0.18092 0.44799 1.12600
O 	O 	0.21879 0.29320 0.46742 -0.35600
O 	O 	0.20347 0.23924 0.41058 -0.35800
O 	O 	0.21178 0.11748 0.53865 -0.37100
O 	O 	0.29211 0.19710 0.54101 -0.36400
O 	O 	0.24081 0.18677 0.59893 -0.35900
O 	O 	0.12387 0.19604 0.45679 -0.36500
O 	O 	0.28884 0.22971 0.44752 -0.35800
O 	O 	0.25601 0.15947 0.44096 -0.37300
O 	O 	0.12162 0.16333 0.52977 -0.36100
O 	O 	0.23253 0.27521 0.57112 -0.35200
O 	O 	0.16268 0.23810 0.58331 -0.36300
O 	O 	0.17529 0.11699 0.46912 -0.36800
O 	O 	0.20280 0.21102 0.50441 -0.72200
H 	H 	0.17865 0.23462 0.50382 0.16600
C 	C 	0.18410 0.41718 0.71912 0.29000
C 	C 	0.29056 0.57253 0.80120 0.30600
C 	C 	0.28192 0.41851 0.80268 0.30600
C 	C 	0.19677 0.57667 0.71163 0.28300
C 	C 	0.20216 0.50153 0.89911 0.30600
C 	C 	0.10219 0.51036 0.81357 0.28600
Ni	Ni	0.25241 0.49570 0.74281 1.11700
Ni	Ni	0.19208 0.55617 0.81405 1.12600
Ni	Ni	0.18453 0.44779 0.81657 1.12500
O 	O 	0.22648 0.43444 0.71483 -0.35100
O 	O 	0.15861 0.42402 0.75653 -0.36400
O 	O 	0.17966 0.53515 0.87910 -0.36700
O 	O 	0.28888 0.55508 0.75950 -0.35600
O 	O 	0.25908 0.56216 0.83168 -0.37000
O 	O 	0.12320 0.47608 0.83533 -0.36500
O 	O 	0.29325 0.45958 0.78873 -0.36200
O 	O 	0.23861 0.40564 0.80299 -0.36500
O 	O 	0.12452 0.54835 0.80215 -0.36500
O 	O 	0.21489 0.53709 0.69858 -0.35600
O 	O 	0.20305 0.59222 0.75433 -0.35900
O 	O 	0.21653 0.46655 0.87478 -0.37500
O 	O 	0.20232 0.50018 0.78284 -0.72200
H 	H 	0.17703 0.50151 0.76034 0.16400
C 	C 	0.18654 0.72097 0.58506 0.28700
C 	C 	0.29326 0.80146 0.43067 0.30600
C 	C 	0.28196 0.80924 0.58278 0.30600
C 	C 	0.20390 0.70930 0.42693 0.28600
C 	C 	0.19963 0.89854 0.49757 0.30700
C 	C 	0.10282 0.80968 0.48979 0.28500
Ni	Ni	0.25520 0.74567 0.50866 1.11900
Ni	Ni	0.19368 0.81186 0.44483 1.12500
Ni	Ni	0.18393 0.81753 0.55427 1.12500
O 	O 	0.23043 0.72114 0.57195 -0.35400
O 	O 	0.16026 0.75800 0.58104 -0.36100
O 	O 	0.17933 0.87693 0.46340 -0.36600
O 	O 	0.29057 0.76016 0.44807 -0.35900
O 	O 	0.26029 0.83122 0.43785 -0.36800
O 	O 	0.12234 0.83260 0.52435 -0.36200
O 	O 	0.29183 0.79713 0.54068 -0.36300
O 	O 	0.23900 0.80877 0.59702 -0.36100
O 	O 	0.12625 0.79852 0.45206 -0.36300
O 	O 	0.21804 0.69969 0.46925 -0.35700
O 	O 	0.20651 0.75178 0.41009 -0.35900
O 	O 	0.21285 0.87652 0.53460 -0.37400
O 	O 	0.20365 0.78320 0.50247 -0.72100
H 	H 	0.17894 0.76022 0.50170 0.16400
C 	C 	0.79876 0.72065 0.42201 0.28600
C 	C 	0.72554 0.81093 0.58769 0.30300
C 	C 	0.71514 0.81633 0.43270 0.30900
C 	C 	0.81686 0.71881 0.58253 0.29000
C 	C 	0.81026 0.90291 0.50789 0.30700
C 	C 	0.90483 0.81161 0.49273 0.28700
Ni	Ni	0.74903 0.75250 0.50705 1.11800
Ni	Ni	0.82376 0.81699 0.55751 1.12500
Ni	Ni	0.81432 0.82076 0.44852 1.12600
O 	O 	0.78210 0.70791 0.46259 -0.35700
O 	O 	0.79908 0.76440 0.40882 -0.35800
O 	O 	0.79732 0.87881 0.54373 -0.37600
O 	O 	0.71254 0.79976 0.54600 -0.36100
O 	O 	0.76887 0.80613 0.59999 -0.36500
O 	O 	0.88089 0.80372 0.45459 -0.36500
O 	O 	0.71320 0.77441 0.44876 -0.35600
O 	O 	0.74892 0.84345 0.44431 -0.37400
O 	O 	0.88603 0.83229 0.52905 -0.36300
O 	O 	0.77373 0.71955 0.56661 -0.35100
O 	O 	0.84513 0.75419 0.57740 -0.36400
O 	O 	0.83109 0.88330 0.47284 -0.36700
O 	O 	0.80223 0.78809 0.50336 -0.72400
H 	H 	0.82554 0.76388 0.50022 0.16400
C 	C 	0.57882 0.71542 0.80210 0.29000
C 	C 	0.42331 0.81563 0.72201 0.30600
C 	C 	0.58250 0.81337 0.72277 0.30500
C 	C 	0.41932 0.72053 0.80795 0.28400
C 	C 	0.50085 0.90108 0.81564 0.30600
C 	C 	0.50461 0.80769 0.90779 0.28900
Ni	Ni	0.49979 0.75446 0.74768 1.12000
Ni	Ni	0.44623 0.81747 0.82203 1.12600
Ni	Ni	0.55597 0.81588 0.82060 1.12500
O 	O 	0.53848 0.70611 0.78277 -0.35600
O 	O 	0.59374 0.75821 0.80746 -0.36200
O 	O 	0.46476 0.87938 0.79946 -0.37300
O 	O 	0.46671 0.80717 0.71363 -0.36100
O 	O 	0.40717 0.81145 0.76406 -0.36100
O 	O 	0.54269 0.79582 0.88541 -0.36700
O 	O 	0.56212 0.77360 0.71752 -0.35600
O 	O 	0.57115 0.84045 0.75697 -0.37200
O 	O 	0.47042 0.82982 0.88678 -0.36500
O 	O 	0.43645 0.72458 0.76561 -0.35300
O 	O 	0.42168 0.75461 0.83828 -0.35900
O 	O 	0.53369 0.87889 0.83754 -0.37300
O 	O 	0.50069 0.78722 0.80260 -0.72300
H 	H 	0.50066 0.76187 0.82485 0.16300
C 	C 	0.80786 0.57934 0.72004 0.28500
C 	C 	0.72727 0.41347 0.80262 0.30600
C 	C 	0.71528 0.57194 0.80079 0.30700
C 	C 	0.82544 0.42023 0.71620 0.28900
C 	C 	0.80537 0.49040 0.90303 0.30800
C 	C 	0.90407 0.50869 0.81687 0.28600
Ni	Ni	0.75478 0.49286 0.74529 1.12000
Ni	Ni	0.82441 0.44295 0.81602 1.12400
Ni	Ni	0.81231 0.55132 0.82090 1.12600
O 	O 	0.79060 0.53996 0.70416 -0.34800
O 	O 	0.80416 0.59092 0.76408 -0.37100
O 	O 	0.79394 0.45564 0.87675 -0.37400
O 	O 	0.71590 0.45508 0.79102 -0.36100
O 	O 	0.77058 0.40045 0.80143 -0.36200
O 	O 	0.88047 0.54706 0.81048 -0.36800
O 	O 	0.71306 0.54692 0.76342 -0.36000
O 	O 	0.74449 0.56172 0.83401 -0.36700
O 	O 	0.88486 0.47199 0.83599 -0.36500
O 	O 	0.78171 0.43322 0.71578 -0.35600
O 	O 	0.85074 0.42327 0.75428 -0.36100
O 	O 	0.82288 0.52803 0.88546 -0.37000
O 	O 	0.80384 0.49706 0.78644 -0.72200
H 	H 	0.82913 0.50084 0.76420 0.15600
C 	C 	0.61359 0.67871 0.80292 -0.04900
C 	C 	0.63290 0.66395 0.84497 0.00600
C 	C 	0.66860 0.63097 0.84509 0.00800
C 	C 	0.68593 0.61395 0.80280 -0.05700
C 	C 	0.66943 0.63305 0.76092 0.01000
C 	C 	0.63119 0.66213 0.76108 0.00700
C 	C 	0.61562 0.68216 0.88804 0.09700
C 	C 	0.69032 0.62095 0.71719 0.10400
C 	C 	0.60962 0.67466 0.71780 0.09700
C 	C 	0.68792 0.61582 0.88844 0.10500
N 	N 	0.59261 0.68430 0.68313 -0.10200
N 	N 	0.70332 0.60396 0.92316 -0.09800
N 	N 	0.70642 0.61062 0.68229 -0.09800
N 	N 	0.60180 0.69674 0.92238 -0.09800
C 	C 	0.81986 0.61648 0.68647 -0.04700
C 	C 	0.81346 0.66351 0.69796 0.00600
C 	C 	0.82306 0.69733 0.66503 0.00900
C 	C 	0.82802 0.68502 0.61859 -0.05000
C 	C 	0.83644 0.63893 0.60723 0.00600
C 	C 	0.83718 0.60552 0.64236 0.00700
C 	C 	0.79362 0.67725 0.74165 0.10400
C 	C 	0.84467 0.62596 0.55984 0.10000
C 	C 	0.86254 0.56354 0.63550 0.10200
C 	C 	0.82497 0.74502 0.67852 0.09700
N 	N 	0.88327 0.53024 0.62999 -0.09700
N 	N 	0.82648 0.78303 0.68937 -0.10500
N 	N 	0.85120 0.61564 0.52196 -0.09600
N 	N 	0.77777 0.68849 0.77639 -0.10300
C 	C 	0.69009 0.81546 0.62417 -0.05900
C 	C 	0.68884 0.78367 0.66039 0.00800
C 	C 	0.66194 0.79270 0.69914 0.00800
C 	C 	0.62458 0.82290 0.69556 -0.06200
C 	C 	0.62343 0.85392 0.65826 0.00700
C 	C 	0.65788 0.85167 0.62367 0.00600
C 	C 	0.70613 0.73809 0.65338 0.09700
C 	C 	0.58758 0.88809 0.65560 0.10000
C 	C 	0.66004 0.88621 0.58804 0.10300
C 	C 	0.67607 0.77526 0.74342 0.09300
N 	N 	0.66177 0.91385 0.55963 -0.09500
N 	N 	0.68819 0.76148 0.77872 -0.09800
N 	N 	0.55907 0.91555 0.65326 -0.09300
N 	N 	0.71920 0.70132 0.64741 -0.09900
C 	C 	0.95537 0.80996 0.48975 -0.05000
C 	C 	0.97973 0.84768 0.47190 0.00900
C 	C 	0.02812 0.84695 0.47058 0.00900
C 	C 	0.05225 0.80869 0.48756 -0.05000
C 	C 	0.02792 0.77039 0.50407 0.00500
C 	C 	0.97941 0.77095 0.50501 0.00600
C 	C 	0.95492 0.88731 0.45500 0.10500
C 	C 	0.05281 0.73054 0.52023 0.09300
C 	C 	0.95424 0.73144 0.52152 0.09500
C 	C 	0.05317 0.88554 0.45175 0.10600
N 	N 	0.93418 0.69989 0.53467 -0.10000
N 	N 	0.07315 0.91631 0.43671 -0.09500
N 	N 	0.07268 0.69876 0.53310 -0.10100
N 	N 	0.93515 0.91891 0.44151 -0.09600
C 	C 	0.31952 0.81211 0.61693 -0.05900
C 	C 	0.35082 0.77548 0.62166 0.01100
C 	C 	0.38714 0.77842 0.65348 0.00900
C 	C 	0.39040 0.81647 0.68324 -0.05800
C 	C 	0.35877 0.85286 0.67895 0.00900
C 	C 	0.32417 0.85123 0.64492 0.00900
C 	C 	0.34461 0.73396 0.59503 0.09100
C 	C 	0.36141 0.89163 0.70991 0.10300
C 	C 	0.29390 0.89006 0.63818 0.10000
C 	C 	0.42053 0.74165 0.65634 0.08900
N 	N 	0.26974 0.92103 0.63275 -0.09700
N 	N 	0.44714 0.71231 0.65849 -0.11800
N 	N 	0.36340 0.92254 0.73467 -0.09600
N 	N 	0.33972 0.70085 0.57380 -0.11600
C 	C 	0.95465 0.51109 0.81504 -0.05300
C 	C 	0.97938 0.52920 0.85263 0.00900
C 	C 	0.02782 0.52872 0.85223 0.00800
C 	C 	0.05156 0.51140 0.81367 -0.05300
C 	C 	0.02686 0.49493 0.77539 0.00400
C 	C 	0.97839 0.49475 0.77607 0.00400
C 	C 	0.95495 0.54882 0.89142 0.10400
C 	C 	0.05132 0.47822 0.73531 0.09200
C 	C 	0.95299 0.47853 0.73635 0.09200
C 	C 	0.05332 0.54571 0.89161 0.10300
N 	N 	0.93295 0.46561 0.70451 -0.09800
N 	N 	0.07369 0.55922 0.92300 -0.09700
N 	N 	0.07076 0.46488 0.70328 -0.10000
N 	N 	0.93546 0.56450 0.92234 -0.09900
C 	C 	0.32358 0.60969 0.81128 -0.06000
C 	C 	0.37120 0.60060 0.81228 0.01000
C 	C 	0.40287 0.63700 0.81577 0.00300
C 	C 	0.38695 0.68254 0.81687 -0.04900
C 	C 	0.33928 0.69132 0.81968 0.00600
C 	C 	0.30764 0.65487 0.81751 0.01100
C 	C 	0.38756 0.55384 0.80988 0.09800
C 	C 	0.32270 0.73797 0.82286 0.10500
C 	C 	0.25870 0.66401 0.82073 0.09200
C 	C 	0.45176 0.62762 0.81861 0.09400
N 	N 	0.21970 0.67141 0.82339 -0.10800
N 	N 	0.49075 0.62003 0.82095 -0.09800
N 	N 	0.30948 0.77519 0.82537 -0.10000
N 	N 	0.40059 0.51653 0.80795 -0.09700
C 	C 	0.16999 0.68192 0.61278 -0.05200
C 	C 	0.17765 0.63748 0.59654 0.00500
C 	C 	0.18784 0.60228 0.62786 0.00500
C 	C 	0.17913 0.60917 0.67567 -0.05000
C 	C 	0.15718 0.65028 0.68931 0.00500
C 	C 	0.15664 0.68800 0.65905 0.00700
C 	C 	0.17177 0.62741 0.54816 0.09800
C 	C 	0.13233 0.65260 0.73248 0.10000
C 	C 	0.14317 0.73269 0.67570 0.10300
C 	C 	0.20994 0.56122 0.61094 0.11000
N 	N 	0.13242 0.76838 0.68905 -0.10000
N 	N 	0.22784 0.52868 0.59708 -0.09900
N 	N 	0.11243 0.65450 0.76692 -0.10000
N 	N 	0.16656 0.61911 0.50960 -0.09700
C 	C 	0.19924 0.94891 0.49828 -0.05700
C 	C 	0.16274 0.97236 0.51989 0.01000
C 	C 	0.16268 0.02046 0.52134 0.01000
C 	C 	0.19924 0.04523 0.50147 -0.05700
C 	C 	0.23626 0.02180 0.48078 0.00800
C 	C 	0.23602 0.97363 0.47877 0.00900
C 	C 	0.12541 0.94701 0.54098 0.09700
C 	C 	0.27494 0.04714 0.46230 0.10000
C 	C 	0.27373 0.94951 0.45689 0.10000
C 	C 	0.12515 0.04450 0.54365 0.09900
N 	N 	0.30385 0.93033 0.43944 -0.09400
N 	N 	0.09520 0.06359 0.56148 -0.09800
N 	N 	0.30594 0.06717 0.44757 -0.09500
N 	N 	0.09555 0.92699 0.55791 -0.09900
C 	C 	0.17671 0.30984 0.62155 -0.05000
C 	C 	0.17617 0.29918 0.66895 0.00900
C 	C 	0.17221 0.33445 0.70173 0.00800
C 	C 	0.17036 0.38040 0.68712 -0.04900
C 	C 	0.16418 0.39025 0.64011 0.00600
C 	C 	0.16880 0.35519 0.60712 0.00800
C 	C 	0.18267 0.25236 0.68402 0.10100
C 	C 	0.15099 0.43585 0.62601 0.10100
C 	C 	0.16635 0.36588 0.55846 0.09800
C 	C 	0.17268 0.32366 0.75044 0.09900
N 	N 	0.16439 0.37441 0.51963 -0.09500
N 	N 	0.17310 0.31502 0.78929 -0.10300
N 	N 	0.14011 0.47219 0.61473 -0.09600
N 	N 	0.18791 0.21503 0.69606 -0.10000
C 	C 	0.81029 0.04946 0.51752 -0.05100
C 	C 	0.77176 0.02652 0.49922 0.00300
C 	C 	0.77205 0.97848 0.49526 0.00900
C 	C 	0.81016 0.95323 0.51126 -0.05900
C 	C 	0.84803 0.97610 0.53107 0.01000
C 	C 	0.84835 0.02419 0.53366 0.00700
C 	C 	0.73170 0.05228 0.48478 0.09600
C 	C 	0.88671 0.95015 0.54872 0.09700
C 	C 	0.88819 0.04777 0.55211 0.10400
C 	C 	0.73348 0.95517 0.47403 0.10200
N 	N 	0.91998 0.06659 0.56679 -0.09700
N 	N 	0.70262 0.93676 0.45702 -0.09400
N 	N 	0.91761 0.92953 0.56285 -0.09800
N 	N 	0.69961 0.07266 0.47324 -0.09700
C 	C 	0.95443 0.19430 0.49223 -0.06000
C 	C 	0.98036 0.23103 0.50996 0.01000
C 	C 	0.02873 0.22845 0.51079 0.00400
C 	C 	0.05107 0.18885 0.49469 -0.05000
C 	C 	0.02523 0.15260 0.47593 0.00800
C 	C 	0.97695 0.15547 0.47437 0.01200
C 	C 	0.95732 0.27108 0.52816 0.10000
C 	C 	0.04839 0.11232 0.45828 0.10600
C 	C 	0.95032 0.11821 0.45498 0.09800
C 	C 	0.05551 0.26653 0.52816 0.09500
N 	N 	0.92914 0.08846 0.43952 -0.09700
N 	N 	0.07680 0.29696 0.54200 -0.10100
N 	N 	0.06686 0.08021 0.44419 -0.09600
N 	N 	0.93922 0.30314 0.54280 -0.09300
C 	C 	0.84253 0.39286 0.67638 -0.04600
C 	C 	0.82804 0.40444 0.63129 0.00600
C 	C 	0.82972 0.37150 0.59601 0.01200
C 	C 	0.84196 0.32615 0.60639 -0.05600
C 	C 	0.86363 0.31661 0.64880 0.01200
C 	C 	0.86474 0.35033 0.68361 0.00600
C 	C 	0.80722 0.44855 0.62216 0.09900
C 	C 	0.88331 0.27188 0.65728 0.09700
C 	C 	0.88793 0.34086 0.72672 0.10600
C 	C 	0.81700 0.38382 0.54937 0.10100
N 	N 	0.90650 0.33320 0.76109 -0.10200
N 	N 	0.80670 0.39377 0.51224 -0.10000
N 	N 	0.89903 0.23618 0.66405 -0.10700
N 	N 	0.79007 0.48341 0.61456 -0.10100
C 	C 	0.50329 0.04793 0.82094 -0.05200
C 	C 	0.51459 0.02180 0.86035 0.00500
C 	C 	0.50922 0.97412 0.85958 0.00800
C 	C 	0.50002 0.95156 0.81766 -0.06100
C 	C 	0.49124 0.97740 0.77754 0.00900
C 	C 	0.49328 0.02552 0.77913 0.00500
C 	C 	0.53468 0.04333 0.90056 0.10800
C 	C 	0.47923 0.95461 0.73489 0.10800
C 	C 	0.48749 0.05183 0.73728 0.10000
C 	C 	0.51075 0.94858 0.90238 0.10400
N 	N 	0.48285 0.07278 0.70385 -0.09700
N 	N 	0.51197 0.92826 0.93653 -0.09700
N 	N 	0.46941 0.93649 0.70090 -0.09100
N 	N 	0.55104 0.06024 0.93262 -0.10000
C 	C 	0.38162 0.31129 0.81830 -0.06200
C 	C 	0.38452 0.35050 0.84656 0.00700
C 	C 	0.35119 0.38555 0.84233 0.00700
C 	C 	0.31806 0.38325 0.80683 -0.06000
C 	C 	0.31746 0.34509 0.77735 0.00900
C 	C 	0.34414 0.30682 0.78807 0.00800
C 	C 	0.42169 0.35505 0.87936 0.10000
C 	C 	0.29592 0.34793 0.73257 0.09700
C 	C 	0.33055 0.26239 0.77109 0.09500
C 	C 	0.35107 0.42368 0.87416 0.10300
N 	N 	0.31879 0.22709 0.75758 -0.09800
N 	N 	0.35090 0.45414 0.89956 -0.09500
N 	N 	0.27952 0.34984 0.69636 -0.09900
N 	N 	0.45132 0.35894 0.90562 -0.09300
C 	C 	0.39408 0.19081 0.68257 -0.04700
C 	C 	0.38538 0.22900 0.65404 0.00600
C 	C 	0.34975 0.22743 0.62128 0.01300
C 	C 	0.32185 0.18807 0.61742 -0.05900
C 	C 	0.33063 0.14981 0.64553 0.01200
C 	C 	0.36627 0.15134 0.67851 0.00700
C 	C 	0.41121 0.27101 0.66026 0.10000
C 	C 	0.30342 0.10861 0.64010 0.10100
C 	C 	0.37301 0.11308 0.70951 0.10300
C 	C 	0.34136 0.26676 0.59203 0.08800
N 	N 	0.37807 0.08256 0.73431 -0.09700
N 	N 	0.33488 0.29818 0.56872 -0.11600
N 	N 	0.28170 0.07576 0.63572 -0.09500
N 	N 	0.43171 0.30455 0.66515 -0.10500
C 	C 	0.61383 0.32063 0.81800 -0.05800
C 	C 	0.64513 0.32704 0.85470 0.01000
C 	C 	0.68264 0.35723 0.84965 0.00900
C 	C 	0.69054 0.37894 0.80709 -0.05900
C 	C 	0.66043 0.37103 0.76987 0.00900
C 	C 	0.62084 0.34408 0.77606 0.00800
C 	C 	0.63964 0.30142 0.89707 0.10300
C 	C 	0.67104 0.38947 0.72473 0.09100
C 	C 	0.58781 0.33977 0.73888 0.08800
C 	C 	0.71280 0.36622 0.88837 0.10000
N 	N 	0.56149 0.33644 0.70919 -0.11700
N 	N 	0.73682 0.37335 0.91931 -0.09700
N 	N 	0.67947 0.40412 0.68872 -0.10700
N 	N 	0.63553 0.28089 0.93085 -0.09700
C 	C 	0.62906 0.18191 0.70312 -0.05500
C 	C 	0.67205 0.20170 0.71313 0.00600
C 	C 	0.70272 0.21203 0.67725 0.00400
C 	C 	0.69487 0.19410 0.63269 -0.05200
C 	C 	0.65478 0.16811 0.62428 0.00500
C 	C 	0.62076 0.16424 0.65873 0.00500
C 	C 	0.68400 0.21306 0.76020 0.09700
C 	C 	0.64847 0.14546 0.58037 0.09900
C 	C 	0.57641 0.14446 0.64774 0.09500
C 	C 	0.73932 0.24480 0.68517 0.10500
N 	N 	0.54100 0.12884 0.63869 -0.09300
N 	N 	0.76836 0.27106 0.69168 -0.10200
N 	N 	0.64333 0.12739 0.54534 -0.09700
N 	N 	0.69384 0.22213 0.79769 -0.10000
C 	C 	0.50438 0.19078 0.06047 -0.05200
C 	C 	0.51459 0.23166 0.03701 0.00400
C 	C 	0.51244 0.23316 0.98855 0.00800
C 	C 	0.49794 0.19421 0.96357 -0.05900
C 	C 	0.48425 0.15435 0.98778 0.00700
C 	C 	0.48990 0.15200 0.03576 0.00700
C 	C 	0.52536 0.27270 0.06286 0.09500
C 	C 	0.46164 0.11693 0.96406 0.10800
C 	C 	0.47904 0.11000 0.06003 0.10500
C 	C 	0.52330 0.27528 0.96465 0.10800
N 	N 	0.47023 0.07650 0.07927 -0.09700
N 	N 	0.53210 0.30892 0.94570 -0.09100
N 	N 	0.44329 0.08713 0.94540 -0.09900
N 	N 	0.53375 0.30549 0.08346 -0.10000
C 	C 	0.39250 0.17066 0.32939 -0.05900
C 	C 	0.40518 0.16951 0.37613 0.00900
C 	C 	0.37105 0.17232 0.41035 0.01200
C 	C 	0.32438 0.17473 0.39751 -0.06000
C 	C 	0.31170 0.16820 0.35111 0.01000
C 	C 	0.34594 0.16572 0.31702 0.00900
C 	C 	0.45313 0.16463 0.38882 0.10300
C 	C 	0.26352 0.16595 0.33830 0.09100
C 	C 	0.33332 0.15947 0.26917 0.09400
C 	C 	0.38381 0.17309 0.45859 0.10100
N 	N 	0.32323 0.15442 0.23099 -0.10400
N 	N 	0.39396 0.17372 0.49709 -0.09500
N 	N 	0.22509 0.16415 0.32808 -0.10800
N 	N 	0.49137 0.16052 0.39904 -0.09600
C 	C 	0.67170 0.17544 0.41008 -0.04500
C 	C 	0.67428 0.14700 0.37064 0.00700
C 	C 	0.64019 0.15040 0.33611 0.01000
C 	C 	0.60535 0.18393 0.33970 -0.05600
C 	C 	0.60024 0.20827 0.38154 0.01300
C 	C 	0.63072 0.19983 0.41813 0.00600
C 	C 	0.71054 0.11330 0.36616 0.10800
C 	C 	0.56646 0.24450 0.38573 0.09800
C 	C 	0.62014 0.21636 0.46394 0.10000
C 	C 	0.64031 0.11878 0.29767 0.09800
N 	N 	0.61164 0.22960 0.50048 -0.10100
N 	N 	0.64044 0.09351 0.26704 -0.10000
N 	N 	0.53954 0.27343 0.38913 -0.10900
N 	N 	0.73941 0.08633 0.36246 -0.10100
C 	C 	0.50582 0.95365 0.20621 -0.05900
C 	C 	0.48571 0.97767 0.24317 0.00800
C 	C 	0.48960 0.02569 0.24551 0.00600
C 	C 	0.51290 0.04972 0.21049 -0.05700
C 	C 	0.53480 0.02552 0.17475 0.01000
C 	C 	0.53031 0.97767 0.17194 0.00900
C 	C 	0.46124 0.95298 0.27887 0.09800
C 	C 	0.56248 0.04985 0.14122 0.10100
C 	C 	0.55055 0.95319 0.13354 0.09600
C 	C 	0.47073 0.05017 0.28455 0.09900
N 	N 	0.56676 0.93384 0.10284 -0.09700
N 	N 	0.45570 0.06951 0.31585 -0.09500
N 	N 	0.58458 0.06926 0.11448 -0.09800
N 	N 	0.44171 0.93334 0.30738 -0.09300
C 	C 	0.50107 0.80925 0.05650 -0.04900
C 	C 	0.54380 0.80896 0.03296 0.00600
C 	C 	0.54480 0.81263 0.98471 0.00900
C 	C 	0.50414 0.80507 0.95900 -0.05100
C 	C 	0.46223 0.79832 0.98265 0.00700
C 	C 	0.45988 0.80618 0.03041 0.00700
C 	C 	0.58667 0.80348 0.05785 0.09900
C 	C 	0.42191 0.78198 0.95832 0.09800
C 	C 	0.41556 0.81537 0.05132 0.11000
C 	C 	0.58676 0.82755 0.96225 0.10800
N 	N 	0.38012 0.82274 0.06786 -0.09900
N 	N 	0.62026 0.83950 0.94443 -0.10300
N 	N 	0.38965 0.76892 0.93905 -0.09800
N 	N 	0.62117 0.79924 0.07723 -0.10000
C 	C 	0.62105 0.83804 0.32277 -0.05900
C 	C 	0.66857 0.84201 0.31394 0.00800
C 	C 	0.70001 0.83638 0.35036 0.00900
C 	C 	0.68347 0.83036 0.39570 -0.06000
C 	C 	0.63632 0.83701 0.40502 0.01000
C 	C 	0.60547 0.84380 0.36826 0.00800
C 	C 	0.68452 0.85807 0.26959 0.10400
C 	C 	0.61971 0.83680 0.45203 0.10300
C 	C 	0.56033 0.86295 0.37660 0.10800
C 	C 	0.74903 0.83662 0.34118 0.08900
N 	N 	0.52436 0.87858 0.38316 -0.09500
N 	N 	0.78812 0.83693 0.33372 -0.11100
N 	N 	0.60645 0.83659 0.48957 -0.09500
N 	N 	0.69730 0.87113 0.23425 -0.09800
C 	C 	0.40319 0.81284 0.33341 -0.05500
C 	C 	0.35824 0.82621 0.32045 0.00800
C 	C 	0.32235 0.82555 0.35314 0.00900
C 	C 	0.33155 0.81279 0.39909 -0.05700
C 	C 	0.37729 0.80502 0.41308 0.01000
C 	C 	0.41273 0.80292 0.38008 0.00900
C 	C 	0.34832 0.83823 0.27304 0.09400
C 	C 	0.38787 0.79924 0.46153 0.10000
C 	C 	0.45833 0.78805 0.39375 0.10400
C 	C 	0.27568 0.83611 0.33900 0.09400
N 	N 	0.49457 0.77589 0.40476 -0.10000
N 	N 	0.23845 0.84451 0.32773 -0.10800
N 	N 	0.39634 0.79465 0.50016 -0.09800
N 	N 	0.34040 0.84782 0.23523 -0.11000
C 	C 	0.80651 0.48433 0.95346 -0.05900
C 	C 	0.84884 0.47636 0.97578 0.01100
C 	C 	0.85241 0.48192 0.02380 0.00600
C 	C 	0.81291 0.49218 0.05003 -0.05000
C 	C 	0.76981 0.49655 0.02805 0.00500
C 	C 	0.76657 0.49210 0.97977 0.01100
C 	C 	0.88799 0.45986 0.94973 0.09700
C 	C 	0.72896 0.50593 0.05509 0.09600
C 	C 	0.72207 0.49399 0.95734 0.10400
C 	C 	0.89660 0.47639 0.04636 0.10500
N 	N 	0.68657 0.49535 0.93938 -0.09400
N 	N 	0.93181 0.47200 0.06440 -0.09800
N 	N 	0.69641 0.51339 0.07673 -0.10000
N 	N 	0.91934 0.44646 0.92926 -0.09800
C 	C 	0.80824 0.38402 0.31906 -0.06100
C 	C 	0.78260 0.34373 0.31243 0.00700
C 	C 	0.77825 0.31202 0.34841 0.00500
C 	C 	0.80707 0.31529 0.38750 -0.05800
C 	C 	0.83781 0.35260 0.39128 0.00600
C 	C 	0.83668 0.38810 0.35820 0.00800
C 	C 	0.76407 0.33262 0.26755 0.09300
C 	C 	0.87182 0.35350 0.42772 0.10500
C 	C 	0.86476 0.42857 0.36439 0.10200
C 	C 	0.74276 0.27736 0.34572 0.10300
N 	N 	0.88716 0.46090 0.36927 -0.09300
N 	N 	0.71425 0.24996 0.34289 -0.10100
N 	N 	0.89905 0.35428 0.45674 -0.09300
N 	N 	0.74928 0.32256 0.23201 -0.10000
C 	C 	0.67071 0.39960 0.19314 -0.04900
C 	C 	0.67092 0.36625 0.15800 0.00900
C 	C 	0.63855 0.33015 0.15889 0.00700
C 	C 	0.60344 0.32987 0.19295 -0.04800
C 	C 	0.59724 0.36943 0.22008 0.00600
C 	C 	0.63306 0.40139 0.22405 0.00800
C 	C 	0.70357 0.36973 0.12041 0.10000
C 	C 	0.55377 0.37781 0.24305 0.10100
C 	C 	0.63257 0.43368 0.26193 0.10200
C 	C 	0.64024 0.29524 0.12355 0.11000
N 	N 	0.63209 0.45937 0.29220 -0.10500
N 	N 	0.64179 0.26747 0.09523 -0.09800
N 	N 	0.51915 0.38457 0.26151 -0.10400
N 	N 	0.72959 0.37255 0.09041 -0.09700
C 	C 	0.69653 0.62280 0.17454 -0.05200
C 	C 	0.64944 0.61136 0.17234 0.00600
C 	C 	0.61590 0.64618 0.17324 0.00500
C 	C 	0.62955 0.69228 0.17634 -0.05200
C 	C 	0.67644 0.70376 0.17155 0.00700
C 	C 	0.71002 0.66905 0.17134 0.00700
C 	C 	0.63555 0.56384 0.16989 0.09700
C 	C 	0.69023 0.75123 0.16799 0.10400
C 	C 	0.75844 0.68101 0.17042 0.10200
C 	C 	0.56745 0.63466 0.17099 0.09200
N 	N 	0.79706 0.69056 0.16973 -0.10000
N 	N 	0.52879 0.62541 0.16913 -0.09700
N 	N 	0.70130 0.78908 0.16502 -0.09600
N 	N 	0.62435 0.52594 0.16792 -0.09400
C 	C 	0.80342 0.68505 0.38613 -0.04900
C 	C 	0.84655 0.67603 0.36574 0.00400
C 	C 	0.85074 0.64110 0.33236 0.01100
C 	C 	0.81231 0.61379 0.32106 -0.06000
C 	C 	0.76978 0.62155 0.34330 0.01000
C 	C 	0.76473 0.65881 0.37344 0.00600
C 	C 	0.88666 0.70207 0.37961 0.09700
C 	C 	0.73139 0.59073 0.33593 0.08500
C 	C 	0.71938 0.67113 0.39021 0.09900
C 	C 	0.89469 0.63271 0.31032 0.10100
N 	N 	0.68317 0.68091 0.40351 -0.10200
N 	N 	0.92974 0.62597 0.29270 -0.09500
N 	N 	0.70069 0.56617 0.33034 -0.11900
N 	N 	0.91870 0.72281 0.39069 -0.09700
C 	C 	0.05397 0.49897 0.19248 -0.05500
C 	C 	0.02746 0.53955 0.19253 0.00800
C 	C 	0.97923 0.53711 0.18824 0.01000
C 	C 	0.95642 0.49473 0.19408 -0.05600
C 	C 	0.98288 0.45432 0.19722 0.00900
C 	C 	0.03097 0.45624 0.19114 0.00900
C 	C 	0.04924 0.58364 0.19872 0.10500
C 	C 	0.96120 0.41120 0.20876 0.10500
C 	C 	0.05590 0.41485 0.17971 0.09900
C 	C 	0.95364 0.57759 0.17502 0.09600
N 	N 	0.07574 0.38180 0.17053 -0.10600
N 	N 	0.93325 0.60989 0.16445 -0.10800
N 	N 	0.94394 0.37678 0.21803 -0.10100
N 	N 	0.06636 0.61898 0.20361 -0.09700
C 	C 	0.20000 0.50302 0.04761 -0.04900
C 	C 	0.20044 0.54414 0.02174 0.00500
C 	C 	0.20999 0.54277 0.97437 0.01100
C 	C 	0.20661 0.50109 0.95023 -0.05800
C 	C 	0.20300 0.45977 0.97550 0.00900
C 	C 	0.20413 0.46080 0.02406 0.00300
C 	C 	0.18686 0.58713 0.04251 0.11000
C 	C 	0.19628 0.41653 0.95207 0.09700
C 	C 	0.21107 0.41864 0.04936 0.09700
C 	C 	0.22509 0.58388 0.95096 0.10300
N 	N 	0.21657 0.38482 0.06925 -0.10100
N 	N 	0.23720 0.61669 0.93234 -0.09900
N 	N 	0.19090 0.38197 0.93346 -0.10500
N 	N 	0.17601 0.62148 0.05897 -0.09900
C 	C 	0.31975 0.37902 0.17665 -0.05200
C 	C 	0.30816 0.33242 0.17160 0.00700
C 	C 	0.34323 0.29927 0.17011 0.00600
C 	C 	0.38906 0.31222 0.17976 -0.05300
C 	C 	0.40123 0.35861 0.17494 0.00700
C 	C 	0.36644 0.39228 0.17497 0.00400
C 	C 	0.26035 0.31838 0.17003 0.10400
C 	C 	0.44817 0.37094 0.16385 0.10300
C 	C 	0.37856 0.44029 0.17321 0.09400
C 	C 	0.33316 0.25391 0.15288 0.10200
N 	N 	0.38832 0.47860 0.17176 -0.09700
N 	N 	0.32507 0.21774 0.13897 -0.10100
N 	N 	0.48560 0.38082 0.15468 -0.09800
N 	N 	0.22220 0.30717 0.16880 -0.09900
C 	C 	0.19670 0.38680 0.32170 -0.05900
C 	C 	0.23755 0.38041 0.34725 0.01200
C 	C 	0.23998 0.34580 0.38075 0.00700
C 	C 	0.20068 0.31938 0.39113 -0.04900
C 	C 	0.15910 0.32736 0.36740 0.00400
C 	C 	0.15725 0.36070 0.33227 0.01000
C 	C 	0.27712 0.40959 0.33930 0.09000
C 	C 	0.11811 0.30186 0.37965 0.09700
C 	C 	0.11454 0.36895 0.30787 0.10000
C 	C 	0.28342 0.33642 0.40351 0.10100
N 	N 	0.08044 0.37556 0.28845 -0.09600
N 	N 	0.31809 0.32904 0.42159 -0.10200
N 	N 	0.08542 0.28151 0.38948 -0.09800
N 	N 	0.30872 0.43287 0.33321 -0.11600
C 	C 	0.33432 0.60696 0.20261 -0.05100
C 	C 	0.34621 0.63143 0.16249 0.00600
C 	C 	0.38127 0.66486 0.16414 0.00500
C 	C 	0.40368 0.67451 0.20612 -0.05000
C 	C 	0.39250 0.64921 0.24594 0.00700
C 	C 	0.35828 0.61526 0.24411 0.00700
C 	C 	0.32279 0.62185 0.11949 0.09800
C 	C 	0.41555 0.65877 0.28921 0.09900
C 	C 	0.34734 0.58930 0.28525 0.09800
C 	C 	0.39503 0.68850 0.12251 0.09700
N 	N 	0.33891 0.56869 0.31817 -0.10400
N 	N 	0.40606 0.70727 0.08926 -0.09900
N 	N 	0.43383 0.66620 0.32378 -0.10300
N 	N 	0.30407 0.61417 0.08520 -0.09800
C 	C 	0.19481 0.67071 0.39438 -0.04900
C 	C 	0.16865 0.67819 0.35397 0.00300
C 	C 	0.17093 0.64645 0.31752 0.01000
C 	C 	0.18965 0.60254 0.32551 -0.06000
C 	C 	0.20596 0.59174 0.36979 0.01100
C 	C 	0.21487 0.62694 0.40141 0.00600
C 	C 	0.13812 0.71720 0.35054 0.10100
C 	C 	0.21493 0.54460 0.38228 0.10100
C 	C 	0.24901 0.61950 0.43702 0.10900
C 	C 	0.15916 0.66089 0.27133 0.09700
N 	N 	0.27632 0.61340 0.46534 -0.10300
N 	N 	0.15007 0.67271 0.23444 -0.10100
N 	N 	0.22208 0.50700 0.39229 -0.09800
N 	N 	0.11371 0.74832 0.34780 -0.09900
