data_crystal

_cell_length_a 36.41495
_cell_length_b 37.28339
_cell_length_c 30.14631
_cell_angle_alpha 89.51197
_cell_angle_beta  90.00000
_cell_angle_gamma 90.00001

_symmetry_space_group_name_	'P 1'
_symmetry_space_group_name_H-M	'P 1'

loop_
_symmetry_equiv_pos_as_xyz
  x,y,z

loop_
_atom_site_label
_atom_site_type_symbol
_atom_site_fract_x
_atom_site_fract_y
_atom_site_fract_z
_atom_site_charge
C 	C 	0.47445 0.57320 0.93334 0.09800
N 	N 	0.46305 0.54254 0.95283 -0.17400
C 	C 	0.42894 0.53627 0.93753 0.09600
C 	C 	0.40358 0.51031 0.95897 -0.07600
C 	C 	0.41778 0.47531 0.97491 0.07300
C 	C 	0.36416 0.51897 0.96386 0.04000
C 	C 	0.35331 0.54938 0.98764 -0.06900
C 	C 	0.31603 0.55691 0.99345 -0.04900
C 	C 	0.28934 0.53420 0.97533 0.00600
C 	C 	0.33744 0.49614 0.94600 -0.05800
N 	N 	0.45099 0.46251 0.96319 -0.12600
C 	C 	0.40377 0.45655 0.01089 -0.05100
C 	C 	0.45774 0.43518 0.99158 0.07200
C 	C 	0.48945 0.41080 0.98688 -0.07100
C 	C 	0.48293 0.37176 0.98436 0.02700
C 	C 	0.47430 0.31824 0.94033 -0.03200
C 	C 	0.47648 0.35167 0.02311 -0.04800
C 	C 	0.46751 0.31531 0.02036 -0.02300
C 	C 	0.46541 0.29869 0.97884 -0.01600
N 	N 	0.53452 0.46081 0.97840 -0.17100
C 	C 	0.57126 0.46318 0.97390 0.09300
C 	C 	0.58645 0.42941 0.96815 -0.06400
C 	C 	0.55748 0.40546 0.96885 -0.06500
C 	C 	0.59252 0.49600 0.98495 -0.06800
C 	C 	0.63293 0.49413 0.98905 0.02800
C 	C 	0.69264 0.48476 0.95541 -0.02500
C 	C 	0.70927 0.48701 0.99725 -0.03400
C 	C 	0.68778 0.49431 0.03470 -0.01500
C 	C 	0.64962 0.49681 0.03082 -0.05100
N 	N 	0.54568 0.54005 0.95903 -0.12800
C 	C 	0.56340 0.58871 0.99730 -0.10600
C 	C 	0.53954 0.57525 0.96589 0.09900
C 	C 	0.50621 0.59408 0.94985 -0.08000
C 	C 	0.50487 0.63369 0.95003 0.03700
C 	C 	0.52898 0.65356 0.92315 -0.05800
C 	C 	0.52909 0.69099 0.92501 -0.03900
C 	C 	0.50467 0.70885 0.95323 0.00700
C 	C 	0.48073 0.68895 0.98037 -0.05500
C 	C 	0.48061 0.65150 0.97848 -0.05200
C 	C 	0.44744 0.58679 0.90549 -0.06600
C 	C 	0.41827 0.56310 0.90816 -0.06500
C 	C 	0.30019 0.50348 0.95220 -0.03800
C 	C 	0.42920 0.43053 0.02130 -0.05000
C 	C 	0.52604 0.42574 0.97506 0.09400
C 	C 	0.58578 0.56068 0.00982 -0.02000
C 	C 	0.57397 0.53134 0.98591 0.06300
C 	C 	0.65464 0.48870 0.95126 -0.06000
H 	H 	0.47302 0.53283 0.98315 0.09200
H 	H 	0.51849 0.47955 0.99520 0.09400
H 	H 	0.54831 0.70611 0.90479 0.03500
H 	H 	0.46226 0.70252 0.00285 0.04900
H 	H 	0.54793 0.63999 0.90125 0.04300
H 	H 	0.46206 0.63631 0.99954 0.03700
H 	H 	0.30788 0.58030 0.01211 0.04500
H 	H 	0.34556 0.47257 0.92765 0.04300
H 	H 	0.27973 0.48550 0.93873 0.03600
H 	H 	0.37375 0.56697 0.00191 0.05400
H 	H 	0.46180 0.30014 0.05039 0.03200
H 	H 	0.47794 0.36434 0.05527 0.04100
C 	C 	0.48228 0.35482 0.94299 -0.05600
H 	H 	0.47387 0.30534 0.90827 0.03600
H 	H 	0.70913 0.47964 0.92623 0.03200
H 	H 	0.64196 0.48681 0.91885 0.04500
H 	H 	0.63306 0.50103 0.06017 0.04200
H 	H 	0.70058 0.49766 0.06680 0.02900
H 	H 	0.44515 0.61456 0.89508 0.04400
H 	H 	0.39013 0.56982 0.90003 0.04400
H 	H 	0.37606 0.45822 0.02370 0.04600
H 	H 	0.42407 0.40692 0.04146 0.04200
H 	H 	0.61461 0.42229 0.97564 0.04300
H 	H 	0.56007 0.37723 0.97691 0.04400
H 	H 	0.56821 0.61677 0.00417 0.06500
H 	H 	0.61209 0.56336 0.02609 0.03700
H 	H 	0.48772 0.37005 0.91294 0.04600
Co	Co	0.41826 0.08010 0.96716 1.17600
Co	Co	0.44286 0.00106 0.96277 1.05100
O 	O 	0.40442 0.13245 0.97521 -0.38800
O 	O 	0.45544 0.12707 0.94127 -0.32800
O 	O 	0.37718 0.05219 0.99221 -0.43600
O 	O 	0.46179 0.03064 0.91228 -0.48600
C 	C 	0.36561 0.02247 0.97365 0.31500
C 	C 	0.43125 0.14902 0.95641 0.29800
O 	O 	0.38795 0.00334 0.94904 -0.46100
O 	O 	0.41254 0.06727 0.90598 -0.43700
C 	C 	0.43897 0.04915 0.88723 0.31400
O 	O 	0.45316 0.07334 0.01452 -0.44700
O 	O 	0.44121 0.01405 0.02663 -0.47300
C 	C 	0.45138 0.04560 0.04150 0.31600
S 	S 	0.49719 0.05547 0.51875 -0.00800
C 	C 	0.51043 0.04864 0.57264 -0.01600
C 	C 	0.53714 0.02151 0.57608 -0.01500
S 	S 	0.54760 0.00381 0.52549 -0.00800
C 	C 	0.52143 0.02601 0.48822 -0.00800
C 	C 	0.53493 0.03455 0.44347 -0.00700
S 	S 	0.55635 0.00454 0.41106 -0.00800
C 	C 	0.54920 0.01889 0.35768 -0.01700
C 	C 	0.52690 0.04976 0.35618 -0.01500
S 	S 	0.51378 0.06300 0.40809 -0.00800
C 	C 	0.54987 0.97002 0.23197 -0.00600
C 	C 	0.52176 0.96179 0.26224 -0.03200
C 	C 	0.52392 0.97382 0.30593 -0.04700
C 	C 	0.55357 0.99521 0.31929 0.02400
C 	C 	0.58308 0.00083 0.29017 -0.04900
C 	C 	0.58125 0.98831 0.24663 -0.03200
H 	H 	0.49749 0.94752 0.25140 0.03400
H 	H 	0.50109 0.96915 0.32830 0.04100
H 	H 	0.60624 0.01707 0.30027 0.04000
H 	H 	0.60350 0.99408 0.22381 0.03400
C 	C 	0.48358 0.06385 0.22731 -0.00500
C 	C 	0.51842 0.07756 0.23754 -0.03300
C 	C 	0.53083 0.07741 0.28137 -0.04600
C 	C 	0.50906 0.06250 0.31518 0.02200
C 	C 	0.47308 0.05153 0.30554 -0.04700
C 	C 	0.46040 0.05211 0.26171 -0.03300
H 	H 	0.53651 0.08683 0.21132 0.03500
H 	H 	0.55857 0.08616 0.28853 0.04100
H 	H 	0.45596 0.04008 0.33141 0.04100
H 	H 	0.43316 0.04214 0.25431 0.03400
C 	C 	0.46493 0.06350 0.69936 -0.00400
C 	C 	0.44983 0.03757 0.67123 -0.03300
C 	C 	0.46076 0.03602 0.62683 -0.04500
C 	C 	0.48783 0.05955 0.61067 0.02200
C 	C 	0.50001 0.08770 0.63750 -0.04600
C 	C 	0.48873 0.08960 0.68176 -0.03300
H 	H 	0.43116 0.01748 0.68430 0.03400
H 	H 	0.45084 0.01443 0.60620 0.04100
H 	H 	0.52053 0.10631 0.62517 0.04100
H 	H 	0.49983 0.11030 0.70290 0.03700
C 	C 	0.54408 0.98088 0.70730 -0.00400
C 	C 	0.56399 0.01165 0.69518 -0.03400
C 	C 	0.56542 0.02267 0.65082 -0.04500
C 	C 	0.54617 0.00359 0.61836 0.02100
C 	C 	0.52846 0.97143 0.62998 -0.04600
C 	C 	0.52732 0.96016 0.67433 -0.03400
H 	H 	0.57716 0.02778 0.72032 0.03500
H 	H 	0.57926 0.04748 0.64215 0.04100
H 	H 	0.51349 0.95649 0.60517 0.04100
H 	H 	0.51243 0.93599 0.68323 0.03600
Co	Co	0.56436 0.92198 0.96868 1.17400
Co	Co	0.48062 0.93439 0.97139 1.04600
O 	O 	0.61937 0.91445 0.96259 -0.39400
O 	O 	0.60703 0.96381 0.99502 -0.33700
O 	O 	0.54113 0.87878 0.94434 -0.42900
O 	O 	0.50681 0.95731 0.02190 -0.50300
C 	C 	0.51433 0.86266 0.96580 0.31100
C 	C 	0.63237 0.94283 0.98064 0.30700
O 	O 	0.48957 0.88157 0.98709 -0.44800
O 	O 	0.55073 0.91492 0.02959 -0.44600
C 	C 	0.52854 0.93814 0.04753 0.32500
O 	O 	0.55404 0.95487 0.92071 -0.45400
O 	O 	0.49599 0.93434 0.90802 -0.48900
C 	C 	0.52630 0.94979 0.89368 0.30800
Co	Co	0.06503 0.57093 0.99668 1.17200
Co	Co	0.98262 0.55736 0.97724 1.06600
O 	O 	0.11786 0.57897 0.01568 -0.39000
O 	O 	0.11167 0.52963 0.98134 -0.33800
O 	O 	0.03807 0.61413 0.01499 -0.41500
O 	O 	0.01634 0.53473 0.93353 -0.48300
C 	C 	0.01416 0.62959 0.98839 0.30000
C 	C 	0.13393 0.55041 0.00217 0.33000
O 	O 	0.99295 0.61013 0.96276 -0.44200
O 	O 	0.06083 0.57707 0.93369 -0.44700
C 	C 	0.04052 0.55435 0.91189 0.31900
O 	O 	0.04769 0.53816 0.04157 -0.45000
O 	O 	0.98858 0.55819 0.04286 -0.50700
C 	C 	0.01725 0.54439 0.06337 0.30800
S 	S 	0.95489 0.47629 0.44476 -0.00700
C 	C 	0.97742 0.47708 0.39495 -0.01600
C 	C 	0.99859 0.50857 0.38982 -0.01500
S 	S 	0.99482 0.53582 0.43500 -0.00800
C 	C 	0.96599 0.51480 0.47018 -0.00800
C 	C 	0.96818 0.51834 0.51862 -0.00700
S 	S 	0.00539 0.53435 0.54496 -0.00800
C 	C 	0.00618 0.51349 0.59570 -0.01600
C 	C 	0.97658 0.48936 0.60066 -0.01500
S 	S 	0.94940 0.48869 0.55434 -0.00800
C 	C 	0.04360 0.54265 0.72251 -0.00500
C 	C 	0.01658 0.56349 0.70140 -0.03200
C 	C 	0.00753 0.55714 0.65716 -0.04700
C 	C 	0.02478 0.52932 0.63407 0.02200
C 	C 	0.05431 0.51102 0.65373 -0.04700
C 	C 	0.06359 0.51752 0.69792 -0.03300
H 	H 	0.00118 0.58319 0.71997 0.03400
H 	H 	0.98490 0.57164 0.64209 0.04200
H 	H 	0.06810 0.48979 0.63594 0.04000
H 	H 	0.08502 0.50179 0.71367 0.03600
C 	C 	0.95129 0.46996 0.73606 -0.00600
C 	C 	0.97909 0.45014 0.71528 -0.03300
C 	C 	0.98466 0.45344 0.66960 -0.04500
C 	C 	0.96332 0.47745 0.64449 0.02200
C 	C 	0.93413 0.49565 0.66474 -0.04700
C 	C 	0.92809 0.49187 0.71035 -0.03300
H 	H 	0.99719 0.43315 0.73475 0.03400
H 	H 	0.00718 0.43920 0.65422 0.04000
H 	H 	0.91753 0.51432 0.64568 0.04100
H 	H 	0.90610 0.50676 0.72588 0.03500
C 	C 	0.95482 0.43646 0.26801 -0.00400
C 	C 	0.93014 0.46052 0.28756 -0.03300
C 	C 	0.93447 0.47022 0.33188 -0.04600
C 	C 	0.96415 0.45677 0.35658 0.02200
C 	C 	0.98651 0.43002 0.33842 -0.04600
C 	C 	0.98201 0.42002 0.29417 -0.03300
H 	H 	0.90885 0.47317 0.26778 0.03500
H 	H 	0.91683 0.49065 0.34578 0.04100
H 	H 	0.00922 0.41913 0.35745 0.04000
H 	H 	0.00071 0.40081 0.27965 0.03500
C 	C 	0.01553 0.53331 0.25398 -0.00600
C 	C 	0.03900 0.50905 0.27576 -0.03300
C 	C 	0.03639 0.50406 0.32162 -0.04600
C 	C 	0.00952 0.52237 0.34588 0.02100
C 	C 	0.98779 0.54841 0.32460 -0.04600
C 	C 	0.99081 0.55389 0.27884 -0.03200
H 	H 	0.05831 0.49313 0.25696 0.03400
H 	H 	0.05347 0.48407 0.33782 0.04000
H 	H 	0.96696 0.56273 0.34301 0.04100
H 	H 	0.97313 0.57329 0.26250 0.03500
Co	Co	0.92513 0.41459 0.99337 1.17600
Co	Co	0.93993 0.49442 0.01582 1.07600
O 	O 	0.91724 0.36329 0.97343 -0.38900
O 	O 	0.96992 0.37011 0.00284 -0.30800
O 	O 	0.87938 0.44020 0.97854 -0.43800
O 	O 	0.96521 0.45972 0.05613 -0.47100
C 	C 	0.86561 0.46472 0.00482 0.32500
C 	C 	0.94795 0.34821 0.98328 0.28800
O 	O 	0.88692 0.48223 0.03239 -0.44100
O 	O 	0.92187 0.41628 0.05679 -0.43200
C 	C 	0.94598 0.43558 0.07808 0.31500
O 	O 	0.95558 0.43406 0.94701 -0.45700
O 	O 	0.93580 0.49197 0.95005 -0.51600
C 	C 	0.94704 0.46426 0.92697 0.32700
C 	C 	0.97425 0.91623 0.03311 0.09600
N 	N 	0.96249 0.94847 0.01864 -0.16600
C 	C 	0.92878 0.95320 0.03591 0.10200
C 	C 	0.90311 0.98109 0.01938 -0.08000
C 	C 	0.91750 0.01638 0.00487 0.10300
C 	C 	0.86328 0.97378 0.01709 0.05600
C 	C 	0.84985 0.94749 0.98830 -0.07300
C 	C 	0.81205 0.94194 0.98432 -0.04200
C 	C 	0.78743 0.96302 0.00860 0.00600
C 	C 	0.83869 0.99396 0.04255 -0.06100
N 	N 	0.95125 0.02817 0.01606 -0.12500
C 	C 	0.90328 0.03620 0.96993 -0.08200
C 	C 	0.95815 0.05598 0.98848 0.07600
C 	C 	0.98849 0.08148 0.99607 -0.08500
C 	C 	0.98169 0.12074 0.99540 0.03000
C 	C 	0.94361 0.17188 0.01432 -0.02400
C 	C 	0.00672 0.14397 0.97434 -0.05800
C 	C 	0.00063 0.18096 0.97420 -0.03500
C 	C 	0.96918 0.19505 0.99440 -0.01000
N 	N 	0.04018 0.03961 0.98117 -0.19100
C 	C 	0.07178 0.03108 0.00186 0.11900
C 	C 	0.07801 0.05369 0.03725 -0.06700
C 	C 	0.04864 0.07727 0.03805 -0.06700
C 	C 	0.09241 0.99766 0.99358 -0.08600
C 	C 	0.13312 0.99847 0.99192 0.03100
C 	C 	0.19209 0.97159 0.01001 -0.02400
C 	C 	0.21012 0.99920 0.98681 -0.01000
C 	C 	0.18961 0.02718 0.96769 -0.03400
C 	C 	0.15129 0.02648 0.96951 -0.05900
N 	N 	0.04463 0.95235 0.01095 -0.11500
C 	C 	0.06154 0.90850 0.96421 -0.05700
C 	C 	0.03845 0.91824 0.99846 0.06300
C 	C 	0.00592 0.89743 0.01301 -0.06100
C 	C 	0.00549 0.85800 0.00844 0.04400
C 	C 	0.03182 0.83698 0.03049 -0.05200
C 	C 	0.03136 0.79970 0.02628 -0.04500
C 	C 	0.00424 0.78314 0.00053 0.03200
C 	C 	0.97827 0.80418 0.97789 -0.05600
C 	C 	0.97881 0.84149 0.98194 -0.06400
C 	C 	0.94789 0.90004 0.05975 -0.06200
C 	C 	0.91872 0.92376 0.06153 -0.06600
C 	C 	0.80088 0.98839 0.03859 -0.03100
C 	C 	0.92912 0.06191 0.95974 -0.05700
C 	C 	0.02611 0.06771 0.00312 0.11800
C 	C 	0.08357 0.93778 0.95581 -0.06500
C 	C 	0.07224 0.96409 0.98487 0.07900
C 	C 	0.15377 0.97132 0.01279 -0.04700
H 	H 	0.97182 0.96101 0.98961 0.08700
H 	H 	0.02562 0.02294 0.95971 0.09100
H 	H 	0.05183 0.78363 0.04334 0.04100
H 	H 	0.95763 0.79161 0.95733 0.03700
H 	H 	0.05257 0.84952 0.05091 0.04400
H 	H 	0.95856 0.85757 0.96452 0.04000
H 	H 	0.80185 0.92181 0.96174 0.03400
H 	H 	0.84886 0.01415 0.06508 0.04500
H 	H 	0.78203 0.00437 0.05796 0.03600
H 	H 	0.86868 0.93168 0.96866 0.04300
H 	H 	0.02022 0.19868 0.95815 0.03500
H 	H 	0.03078 0.13336 0.95789 0.04200
C 	C 	0.95029 0.13498 0.01587 -0.04700
H 	H 	0.91860 0.18245 0.02857 0.03400
H 	H 	0.20776 0.95033 0.02578 0.03300
H 	H 	0.14012 0.95000 0.03103 0.04500
H 	H 	0.13573 0.04758 0.95326 0.04200
H 	H 	0.20337 0.04903 0.95057 0.03500
H 	H 	0.94585 0.87152 0.06631 0.04500
H 	H 	0.89077 0.91629 0.06960 0.04800
H 	H 	0.87503 0.03603 0.95875 0.04400
H 	H 	0.92382 0.08652 0.94152 0.04100
H 	H 	0.09527 0.04733 0.06548 0.05100
H 	H 	0.03978 0.09193 0.06698 0.05000
H 	H 	0.06662 0.88144 0.95304 0.04000
H 	H 	0.10970 0.93706 0.93873 0.04200
H 	H 	0.93096 0.11746 0.03269 0.04500
C 	C 	0.96236 0.23404 0.99305 -0.00400
C 	C 	0.97412 0.25661 0.02786 0.01600
C 	C 	0.96899 0.29381 0.02392 0.00200
C 	C 	0.95240 0.30886 0.98608 -0.11200
C 	C 	0.94133 0.28627 0.95087 0.07500
C 	C 	0.94603 0.24902 0.95513 -0.08500
H 	H 	0.97826 0.31117 0.05034 0.04200
H 	H 	0.93789 0.23163 0.92819 0.04800
C 	C 	0.99358 0.24172 0.06871 -0.09800
C 	C 	0.92722 0.30151 0.90720 -0.12400
C 	C 	0.97095 0.24636 0.11134 -0.02100
H 	H 	0.96337 0.27497 0.11588 0.03200
H 	H 	0.98826 0.23836 0.14013 0.02700
C 	C 	0.95869 0.31673 0.87882 -0.01300
H 	H 	0.98002 0.29578 0.87398 0.02800
H 	H 	0.97161 0.33985 0.89579 0.03400
H 	H 	0.00151 0.21313 0.06551 0.05400
H 	H 	0.90600 0.32228 0.91283 0.06900
C 	C 	0.93620 0.22343 0.11188 -0.15700
C 	C 	0.94496 0.32928 0.83340 -0.16100
H 	H 	0.94329 0.19464 0.10823 0.06000
H 	H 	0.92177 0.22689 0.14400 0.05700
H 	H 	0.91731 0.23184 0.08480 0.06300
H 	H 	0.01984 0.25656 0.07271 0.04800
H 	H 	0.93425 0.30619 0.81429 0.05700
H 	H 	0.96797 0.34164 0.81454 0.05700
H 	H 	0.92284 0.34954 0.83711 0.05900
H 	H 	0.91310 0.28008 0.88819 0.05100
C 	C 	0.94860 0.50062 0.80942 -0.07600
C 	C 	0.94747 0.46878 0.78485 0.03200
C 	C 	0.94491 0.43567 0.80708 -0.07400
C 	C 	0.94484 0.43426 0.85336 0.02400
C 	C 	0.94688 0.46600 0.87804 -0.11100
C 	C 	0.94817 0.49924 0.85580 0.02900
H 	H 	0.95101 0.52632 0.79263 0.04700
H 	H 	0.94340 0.41099 0.78845 0.04300
H 	H 	0.94306 0.40848 0.87003 0.02800
H 	H 	0.94986 0.52394 0.87435 0.01000
C 	C 	0.98500 0.44101 0.19390 -0.06800
C 	C 	0.95434 0.43126 0.21956 0.02900
C 	C 	0.92205 0.42000 0.19851 -0.07100
C 	C 	0.91971 0.42037 0.15227 0.02000
C 	C 	0.94973 0.43191 0.12658 -0.10100
C 	C 	0.98270 0.44135 0.14761 0.01900
H 	H 	0.01012 0.44965 0.20982 0.04700
H 	H 	0.89840 0.41197 0.21802 0.04500
H 	H 	0.89418 0.41275 0.13648 0.03500
H 	H 	0.00627 0.44975 0.12818 0.03500
C 	C 	0.00953 0.66873 0.98941 -0.12000
C 	C 	0.02420 0.69106 0.95552 0.07500
C 	C 	0.02063 0.72842 0.95890 -0.07800
C 	C 	0.00392 0.74378 0.99602 -0.02500
C 	C 	0.98875 0.72147 0.02952 0.01900
C 	C 	0.99146 0.68407 0.02563 0.00300
H 	H 	0.03181 0.74564 0.93306 0.04500
H 	H 	0.97964 0.66685 0.05105 0.03100
C 	C 	0.04483 0.67568 0.91624 -0.12700
C 	C 	0.96778 0.73711 0.06827 -0.10000
C 	C 	0.08640 0.68255 0.91903 -0.01000
H 	H 	0.09191 0.71176 0.92195 0.02400
H 	H 	0.09932 0.67340 0.88769 0.02400
C 	C 	0.92734 0.74319 0.05607 -0.02200
H 	H 	0.91423 0.71705 0.04828 0.02800
H 	H 	0.92526 0.76079 0.02626 0.03400
H 	H 	0.03973 0.64664 0.91174 0.06600
H 	H 	0.98042 0.76261 0.07937 0.05200
C 	C 	0.10461 0.66270 0.95775 -0.16000
C 	C 	0.90634 0.76068 0.09399 -0.15800
H 	H 	0.10003 0.63341 0.95498 0.05800
H 	H 	0.13465 0.66776 0.95710 0.05700
H 	H 	0.09363 0.67223 0.98993 0.06500
H 	H 	0.03437 0.68879 0.88547 0.05000
H 	H 	0.90740 0.74344 0.12421 0.05600
H 	H 	0.87716 0.76436 0.08427 0.05500
H 	H 	0.91823 0.78739 0.10155 0.05700
H 	H 	0.96934 0.71847 0.09723 0.04700
C 	C 	0.05511 0.58007 0.83740 0.02000
C 	C 	0.04529 0.55032 0.86372 -0.10500
C 	C 	0.03898 0.51707 0.84362 0.02200
C 	C 	0.04029 0.51413 0.79747 -0.07000
C 	C 	0.04801 0.54439 0.77105 0.03000
C 	C 	0.05638 0.57712 0.79127 -0.07300
H 	H 	0.06081 0.60570 0.85257 0.02700
H 	H 	0.03237 0.49368 0.86364 0.03500
H 	H 	0.03399 0.48867 0.78218 0.04900
H 	H 	0.06290 0.60050 0.77118 0.04400
C 	C 	0.98386 0.53336 0.13452 0.02800
C 	C 	0.01687 0.54043 0.11203 -0.10800
C 	C 	0.04941 0.54517 0.13635 0.02500
C 	C 	0.04889 0.54316 0.18260 -0.07400
C 	C 	0.01590 0.53618 0.20510 0.03100
C 	C 	0.98339 0.53119 0.18083 -0.07400
H 	H 	0.95869 0.52912 0.11614 0.00100
H 	H 	0.07499 0.55110 0.11945 0.02700
H 	H 	0.07408 0.54724 0.20100 0.04500
H 	H 	0.95791 0.52499 0.19783 0.04700
C 	C 	0.67166 0.94839 0.98942 -0.12900
C 	C 	0.69100 0.92674 0.02045 0.10000
C 	C 	0.72890 0.93196 0.02610 -0.09700
C 	C 	0.74748 0.95879 0.00224 0.02700
C 	C 	0.72786 0.98128 0.97251 -0.01800
C 	C 	0.69014 0.97560 0.96616 0.00500
H 	H 	0.74393 0.91524 0.04946 0.05300
H 	H 	0.67520 0.99218 0.94255 0.03000
C 	C 	0.67153 0.89908 0.04933 -0.13300
C 	C 	0.74708 0.01034 0.94576 -0.08700
C 	C 	0.66505 0.91260 0.09672 -0.00500
H 	H 	0.69125 0.92220 0.11137 0.02500
H 	H 	0.65524 0.88976 0.11750 0.02100
C 	C 	0.76076 0.99575 0.90128 -0.02700
H 	H 	0.73693 0.98704 0.88098 0.03100
H 	H 	0.77884 0.97216 0.90689 0.03200
H 	H 	0.64522 0.88985 0.03488 0.06500
H 	H 	0.77026 0.02210 0.96463 0.04400
C 	C 	0.63645 0.94252 0.09870 -0.17100
C 	C 	0.78229 0.02415 0.87538 -0.15600
H 	H 	0.61049 0.93374 0.08295 0.07800
H 	H 	0.63066 0.94915 0.13385 0.06300
H 	H 	0.64670 0.96706 0.08166 0.07600
H 	H 	0.68898 0.87465 0.05142 0.05300
H 	H 	0.76477 0.04797 0.86862 0.05500
H 	H 	0.79140 0.01288 0.84323 0.05400
H 	H 	0.80695 0.03250 0.89439 0.05500
H 	H 	0.72767 0.03284 0.93932 0.04200
C 	C 	0.57033 0.96636 0.78175 -0.07100
C 	C 	0.53943 0.97135 0.75462 0.02900
C 	C 	0.50413 0.96909 0.77317 -0.07100
C 	C 	0.49980 0.96241 0.81860 0.02200
C 	C 	0.53075 0.95774 0.84588 -0.10000
C 	C 	0.56605 0.95967 0.82712 0.02100
H 	H 	0.59768 0.96780 0.76770 0.04600
H 	H 	0.48010 0.97346 0.75263 0.04700
H 	H 	0.47243 0.96149 0.83265 0.01900
H 	H 	0.59018 0.95566 0.84757 0.03400
C 	C 	0.54661 0.98935 0.15253 -0.07300
C 	C 	0.54527 0.96172 0.18447 0.02900
C 	C 	0.53772 0.92649 0.17122 -0.07500
C 	C 	0.53108 0.91905 0.12659 0.02000
C 	C 	0.53226 0.94665 0.09475 -0.11200
C 	C 	0.54009 0.98184 0.10786 0.02500
H 	H 	0.55199 0.01672 0.16244 0.04800
H 	H 	0.53681 0.90494 0.19552 0.04400
H 	H 	0.52486 0.89185 0.11678 0.02200
H 	H 	0.54137 0.00330 0.08344 0.03000
C 	C 	0.25065 0.99969 0.98409 -0.00100
C 	C 	0.26903 0.99545 0.94304 0.00200
C 	C 	0.30686 0.00238 0.94049 -0.00500
C 	C 	0.32685 0.01160 0.97847 -0.12900
C 	C 	0.30919 0.01152 0.02038 0.08700
C 	C 	0.27101 0.00661 0.02254 -0.07700
H 	H 	0.32073 0.00074 0.90873 0.03400
H 	H 	0.25709 0.00839 0.05426 0.04800
C 	C 	0.24934 0.98127 0.90237 -0.09500
C 	C 	0.33068 0.01551 0.06317 -0.12100
C 	C 	0.25684 0.94117 0.89529 -0.02300
H 	H 	0.28690 0.93596 0.89497 0.02500
H 	H 	0.24586 0.93352 0.86230 0.02400
C 	C 	0.32705 0.05362 0.08161 -0.01300
H 	H 	0.29798 0.05877 0.09088 0.02800
H 	H 	0.33510 0.07376 0.05605 0.04700
H 	H 	0.21928 0.98594 0.90321 0.04900
H 	H 	0.36008 0.00842 0.05865 0.06000
C 	C 	0.23866 0.91744 0.93057 -0.15500
C 	C 	0.35113 0.05872 0.12254 -0.16300
H 	H 	0.20869 0.92285 0.93212 0.05600
H 	H 	0.24276 0.88881 0.92204 0.05000
H 	H 	0.25117 0.92217 0.96360 0.05500
H 	H 	0.25932 0.99624 0.87268 0.04300
H 	H 	0.34347 0.03917 0.14896 0.05700
H 	H 	0.34736 0.08627 0.13549 0.06000
H 	H 	0.38051 0.05510 0.11386 0.06700
H 	H 	0.31983 0.99607 0.08813 0.04800
C 	C 	0.41608 0.05770 0.80988 0.01900
C 	C 	0.44571 0.05311 0.83920 -0.10200
C 	C 	0.48174 0.05305 0.82258 0.02100
C 	C 	0.48802 0.05728 0.77707 -0.06900
C 	C 	0.45835 0.06140 0.74770 0.02900
C 	C 	0.42237 0.06182 0.76436 -0.07100
H 	H 	0.38816 0.05776 0.82229 0.03100
H 	H 	0.50486 0.04967 0.84484 0.03300
H 	H 	0.51589 0.05656 0.76453 0.04800
H 	H 	0.39929 0.06513 0.74201 0.04500
C 	C 	0.45662 0.02097 0.11891 0.01800
C 	C 	0.45879 0.05036 0.08944 -0.10300
C 	C 	0.46695 0.08457 0.10612 0.01700
C 	C 	0.47361 0.08917 0.15135 -0.07200
C 	C 	0.47245 0.05966 0.18049 0.02800
C 	C 	0.46339 0.02564 0.16417 -0.07100
H 	H 	0.45022 0.99444 0.10678 0.02900
H 	H 	0.46811 0.10762 0.08415 0.03100
H 	H 	0.48015 0.11562 0.16369 0.04500
H 	H 	0.46277 0.00259 0.18630 0.04600
C 	C 	0.45501 0.26045 0.97582 0.01300
C 	C 	0.42139 0.24979 0.95617 0.00000
C 	C 	0.41445 0.21315 0.94972 -0.00800
C 	C 	0.43927 0.18710 0.96489 -0.10300
C 	C 	0.47097 0.19772 0.98869 0.06500
C 	C 	0.47926 0.23434 0.99225 -0.09900
H 	H 	0.38934 0.20491 0.93337 0.03400
H 	H 	0.50445 0.24253 0.00848 0.06000
C 	C 	0.39153 0.27678 0.94464 -0.09100
C 	C 	0.49534 0.17055 0.01204 -0.09100
C 	C 	0.36076 0.27717 0.97951 -0.03500
H 	H 	0.35004 0.24959 0.98518 0.03200
H 	H 	0.33772 0.29374 0.96651 0.02700
C 	C 	0.52947 0.16196 0.98421 -0.04800
H 	H 	0.54701 0.18628 0.98131 0.03100
H 	H 	0.52134 0.15383 0.95022 0.05100
H 	H 	0.40212 0.30439 0.93969 0.04800
H 	H 	0.48000 0.14562 0.02007 0.06400
C 	C 	0.37325 0.29291 0.02365 -0.14300
C 	C 	0.55194 0.13175 0.00534 -0.12500
H 	H 	0.38477 0.32023 0.01856 0.06100
H 	H 	0.34937 0.29485 0.04641 0.05600
H 	H 	0.39419 0.27537 0.03952 0.06300
H 	H 	0.37925 0.26927 0.91224 0.04400
H 	H 	0.56098 0.13936 0.03917 0.05300
H 	H 	0.57664 0.12649 0.98480 0.04300
H 	H 	0.53538 0.10675 0.00739 0.06200
H 	H 	0.50426 0.18157 0.04449 0.04700
C 	C 	0.24996 0.54152 0.98261 -0.00500
C 	C 	0.22699 0.55344 0.94749 0.00400
C 	C 	0.18898 0.55592 0.95453 0.00300
C 	C 	0.17388 0.54844 0.99631 -0.13600
C 	C 	0.19706 0.53892 0.03211 0.09100
C 	C 	0.23485 0.53476 0.02465 -0.07500
H 	H 	0.17115 0.56422 0.92749 0.03300
H 	H 	0.25251 0.52582 0.05153 0.04900
C 	C 	0.24263 0.56542 0.90305 -0.09500
C 	C 	0.18160 0.53168 0.07801 -0.12800
C 	C 	0.24337 0.60648 0.89821 -0.02300
H 	H 	0.21567 0.61781 0.90472 0.02800
H 	H 	0.25073 0.61343 0.86340 0.02500
C 	C 	0.16779 0.49292 0.08230 -0.01400
H 	H 	0.19102 0.47406 0.07703 0.03100
H 	H 	0.14653 0.48757 0.05674 0.04100
H 	H 	0.27045 0.55456 0.89657 0.05000
H 	H 	0.15900 0.55077 0.08543 0.06300
C 	C 	0.27132 0.62399 0.92901 -0.15500
C 	C 	0.15118 0.48570 0.12802 -0.16100
H 	H 	0.29912 0.61260 0.92348 0.05700
H 	H 	0.27236 0.65326 0.92207 0.05100
H 	H 	0.26327 0.61999 0.96423 0.05800
H 	H 	0.22498 0.55449 0.87626 0.04500
H 	H 	0.17201 0.49007 0.15435 0.05700
H 	H 	0.14160 0.45746 0.13008 0.06000
H 	H 	0.12733 0.50365 0.13376 0.06100
H 	H 	0.20316 0.53644 0.10345 0.05300
C 	C 	0.74920 0.48142 0.00178 0.04100
C 	C 	0.76383 0.44744 0.01376 -0.00700
C 	C 	0.80208 0.44285 0.01520 0.00200
C 	C 	0.82579 0.47127 0.00475 -0.10000
C 	C 	0.81119 0.50491 0.99162 0.06300
C 	C 	0.77297 0.50979 0.99106 -0.10400
H 	H 	0.81344 0.41676 0.02351 0.03500
H 	H 	0.76161 0.53543 0.98075 0.05100
C 	C 	0.73920 0.41514 0.02233 -0.07500
C 	C 	0.83579 0.53456 0.97382 -0.10700
C 	C 	0.74188 0.40106 0.07033 -0.02900
H 	H 	0.77086 0.39492 0.07909 0.03300
H 	H 	0.72625 0.37551 0.07284 0.03000
C 	C 	0.84561 0.52816 0.92498 -0.03600
H 	H 	0.82011 0.52799 0.90468 0.03300
H 	H 	0.85934 0.50173 0.92128 0.04300
H 	H 	0.70993 0.42017 0.01416 0.05000
H 	H 	0.86112 0.53686 0.99405 0.02200
C 	C 	0.72612 0.42726 0.10400 -0.15400
C 	C 	0.87124 0.55726 0.90705 -0.13900
H 	H 	0.69681 0.43290 0.09653 0.05800
H 	H 	0.72787 0.41524 0.13776 0.05500
H 	H 	0.74199 0.45269 0.10378 0.06100
H 	H 	0.74800 0.39329 0.99981 0.03300
H 	H 	0.85786 0.58398 0.90898 0.04400
H 	H 	0.87787 0.55173 0.87181 0.05000
H 	H 	0.89725 0.55766 0.92630 0.01600
H 	H 	0.82161 0.56089 0.97663 0.04100
C 	C 	0.50622 0.74830 0.95691 0.00100
C 	C 	0.47945 0.77060 0.93653 0.00400
C 	C 	0.48198 0.80796 0.94122 -0.00800
C 	C 	0.51121 0.82337 0.96449 -0.10600
C 	C 	0.53786 0.80110 0.98501 0.05800
C 	C 	0.53486 0.76372 0.98127 -0.07900
H 	H 	0.46151 0.82514 0.92582 0.02400
H 	H 	0.55482 0.74652 0.99760 0.04300
C 	C 	0.44849 0.75520 0.90876 -0.09500
C 	C 	0.56796 0.81664 0.01386 -0.08900
C 	C 	0.45428 0.76182 0.85886 -0.02200
H 	H 	0.45858 0.79088 0.85206 0.02800
H 	H 	0.42897 0.75363 0.84100 0.02400
C 	C 	0.55415 0.82241 0.06135 -0.02400
H 	H 	0.54521 0.79633 0.07591 0.03100
H 	H 	0.53019 0.84088 0.06100 0.04300
H 	H 	0.44388 0.72618 0.91487 0.04700
H 	H 	0.57858 0.84222 0.99979 0.03900
C 	C 	0.48660 0.74059 0.84027 -0.15700
C 	C 	0.58408 0.83830 0.09074 -0.15700
H 	H 	0.48307 0.71149 0.84725 0.05900
H 	H 	0.48799 0.74461 0.80378 0.05500
H 	H 	0.51282 0.75004 0.85487 0.06300
H 	H 	0.42244 0.76850 0.91863 0.03900
H 	H 	0.60870 0.82071 0.09121 0.05600
H 	H 	0.57367 0.84082 0.12519 0.05600
H 	H 	0.59194 0.86536 0.07844 0.06600
H 	H 	0.59182 0.79800 0.01472 0.04900
