data_crystal

_cell_length_a 29.09319
_cell_length_b 29.05625
_cell_length_c 29.00065
_cell_angle_alpha 90.00026
_cell_angle_beta  90.00513
_cell_angle_gamma 90.00017

_symmetry_space_group_name_	'P 1'
_symmetry_space_group_name_H-M	'P 1'

loop_
_symmetry_equiv_pos_as_xyz
  x,y,z

loop_
_atom_site_label
_atom_site_type_symbol
_atom_site_fract_x
_atom_site_fract_y
_atom_site_fract_z
_atom_site_charge
C 	C 	0.28373 0.41751 0.19411 0.28300
C 	C 	0.19196 0.57272 0.29086 0.30500
C 	C 	0.18972 0.42018 0.28591 0.30300
C 	C 	0.28803 0.57522 0.20187 0.28200
C 	C 	0.10119 0.49824 0.19803 0.30300
C 	C 	0.19445 0.50469 0.10232 0.28100
Ni	Ni	0.25290 0.49571 0.25834 1.11300
Ni	Ni	0.18618 0.55388 0.19091 1.12000
Ni	Ni	0.18542 0.44409 0.18616 1.12000
O 	O 	0.28149 0.43282 0.23734 -0.36900
O 	O 	0.24738 0.41899 0.16619 -0.37900
O 	O 	0.12224 0.53154 0.17555 -0.38400
O 	O 	0.23425 0.55708 0.28998 -0.37300
O 	O 	0.16379 0.56499 0.25631 -0.38400
O 	O 	0.17146 0.47041 0.12250 -0.37900
O 	O 	0.20235 0.46232 0.29589 -0.38000
O 	O 	0.19422 0.40458 0.24353 -0.37800
O 	O 	0.20248 0.54415 0.12428 -0.38400
O 	O 	0.29975 0.53599 0.22244 -0.37300
O 	O 	0.24491 0.59098 0.20362 -0.37500
O 	O 	0.12395 0.46173 0.21197 -0.38900
O 	O 	0.21676 0.49809 0.20520 -0.72000
H 	H 	0.24098 0.49882 0.18150 0.15600
C 	C 	0.72109 0.58113 0.19442 0.28200
C 	C 	0.81188 0.42535 0.29143 0.30200
C 	C 	0.81310 0.57722 0.28773 0.30200
C 	C 	0.71645 0.42263 0.20078 0.28100
C 	C 	0.90340 0.49952 0.19943 0.30300
C 	C 	0.81110 0.49388 0.10311 0.28100
Ni	Ni	0.75062 0.50179 0.25829 1.11300
Ni	Ni	0.81833 0.44407 0.19143 1.12000
Ni	Ni	0.81937 0.55389 0.18769 1.12000
O 	O 	0.72222 0.56492 0.23741 -0.36900
O 	O 	0.75779 0.57924 0.16701 -0.37900
O 	O 	0.88239 0.46642 0.17663 -0.38400
O 	O 	0.76932 0.44024 0.28965 -0.37300
O 	O 	0.84027 0.43260 0.25695 -0.38300
O 	O 	0.83384 0.52805 0.12385 -0.37800
O 	O 	0.80049 0.53492 0.29696 -0.38000
O 	O 	0.80997 0.59314 0.24530 -0.37700
O 	O 	0.80261 0.45434 0.12476 -0.38300
O 	O 	0.70434 0.46171 0.22140 -0.37400
O 	O 	0.75951 0.40687 0.20331 -0.37400
O 	O 	0.88056 0.53578 0.21388 -0.38900
O 	O 	0.78765 0.49982 0.20580 -0.72000
H 	H 	0.76375 0.49937 0.18177 0.15600
C 	C 	0.42630 0.71286 0.20062 0.28200
C 	C 	0.57976 0.81068 0.28877 0.30100
C 	C 	0.42780 0.80749 0.29141 0.30200
C 	C 	0.58466 0.71869 0.19470 0.28200
C 	C 	0.50203 0.90063 0.20085 0.30300
C 	C 	0.49811 0.80926 0.10350 0.28000
Ni	Ni	0.50517 0.74736 0.25839 1.11300
Ni	Ni	0.55714 0.81706 0.18871 1.12000
Ni	Ni	0.44742 0.81514 0.19152 1.12000
O 	O 	0.46569 0.70109 0.22079 -0.37400
O 	O 	0.41049 0.75599 0.20263 -0.37500
O 	O 	0.53809 0.87771 0.21563 -0.38900
O 	O 	0.53778 0.79702 0.29797 -0.37900
O 	O 	0.59596 0.80737 0.24650 -0.37700
O 	O 	0.45845 0.80018 0.12464 -0.38200
O 	O 	0.44328 0.76512 0.28941 -0.37300
O 	O 	0.43490 0.83633 0.25719 -0.38200
O 	O 	0.53175 0.83215 0.12487 -0.37800
O 	O 	0.56849 0.71957 0.23767 -0.36900
O 	O 	0.58307 0.75573 0.16766 -0.37900
O 	O 	0.46925 0.87964 0.17763 -0.38400
O 	O 	0.50324 0.78477 0.20613 -0.72000
H 	H 	0.50310 0.76104 0.18190 0.15600
C 	C 	0.58296 0.28179 0.19489 0.28300
C 	C 	0.42831 0.18874 0.29107 0.30300
C 	C 	0.58028 0.18885 0.28724 0.30200
C 	C 	0.42510 0.28510 0.20100 0.28100
C 	C 	0.50273 0.09870 0.19896 0.30300
C 	C 	0.49682 0.19178 0.10279 0.28100
Ni	Ni	0.50419 0.25092 0.25854 1.11300
Ni	Ni	0.44698 0.18339 0.19094 1.12000
Ni	Ni	0.55670 0.18317 0.18726 1.12000
O 	O 	0.56694 0.28003 0.23789 -0.36900
O 	O 	0.58157 0.24525 0.16715 -0.37900
O 	O 	0.46984 0.11958 0.17581 -0.38400
O 	O 	0.44287 0.23146 0.28968 -0.37300
O 	O 	0.43553 0.16073 0.25623 -0.38300
O 	O 	0.53096 0.16893 0.12337 -0.37800
O 	O 	0.53794 0.20102 0.29677 -0.38000
O 	O 	0.59596 0.19250 0.24479 -0.37700
O 	O 	0.45718 0.19972 0.12437 -0.38300
O 	O 	0.46380 0.29738 0.22216 -0.37300
O 	O 	0.40952 0.24193 0.20334 -0.37400
O 	O 	0.53903 0.12164 0.21316 -0.38900
O 	O 	0.50247 0.21434 0.20568 -0.72000
H 	H 	0.50184 0.23850 0.18188 0.15600
C 	C 	0.58788 0.19071 0.72261 0.28200
C 	C 	0.43162 0.28883 0.81171 0.30200
C 	C 	0.58381 0.28423 0.81473 0.30000
C 	C 	0.42896 0.19828 0.71715 0.28100
C 	C 	0.50486 0.19781 0.90493 0.30400
C 	C 	0.49941 0.10019 0.81363 0.28000
Ni	Ni	0.50871 0.25496 0.75140 1.11200
Ni	Ni	0.45032 0.18905 0.81938 1.12000
Ni	Ni	0.55994 0.18453 0.82116 1.12000
O 	O 	0.57181 0.23366 0.72342 -0.36900
O 	O 	0.58563 0.16352 0.75957 -0.37800
O 	O 	0.47233 0.17455 0.88368 -0.38600
O 	O 	0.44732 0.28691 0.76931 -0.37300
O 	O 	0.43891 0.25476 0.84067 -0.38300
O 	O 	0.53387 0.12094 0.83597 -0.37700
O 	O 	0.54184 0.29381 0.80131 -0.37900
O 	O 	0.59949 0.24180 0.81170 -0.37700
O 	O 	0.46040 0.12229 0.80404 -0.38300
O 	O 	0.46849 0.21803 0.70508 -0.37300
O 	O 	0.41332 0.20084 0.76035 -0.37500
O 	O 	0.54206 0.21080 0.88269 -0.38800
O 	O 	0.50624 0.20285 0.78891 -0.72100
H 	H 	0.50578 0.17871 0.76508 0.15600
C 	C 	0.71843 0.19932 0.42651 0.28100
C 	C 	0.81820 0.28356 0.58090 0.30200
C 	C 	0.81399 0.28907 0.42903 0.30200
C 	C 	0.72523 0.19091 0.58545 0.28200
C 	C 	0.90655 0.19589 0.50102 0.30300
C 	C 	0.81353 0.10035 0.49567 0.28100
Ni	Ni	0.75393 0.25534 0.50626 1.11300
Ni	Ni	0.82316 0.18397 0.55661 1.12000
Ni	Ni	0.82055 0.18906 0.44668 1.12000
O 	O 	0.70699 0.21914 0.46627 -0.37400
O 	O 	0.76134 0.20165 0.41029 -0.37400
O 	O 	0.88443 0.20980 0.53801 -0.38900
O 	O 	0.80445 0.29350 0.53902 -0.38000
O 	O 	0.81466 0.24114 0.59651 -0.37800
O 	O 	0.80472 0.12241 0.45637 -0.38300
O 	O 	0.77170 0.28725 0.44467 -0.37300
O 	O 	0.84247 0.25456 0.43563 -0.38300
O 	O 	0.83688 0.12051 0.52981 -0.37800
O 	O 	0.72641 0.23399 0.56971 -0.36900
O 	O 	0.76182 0.16342 0.58290 -0.37900
O 	O 	0.88485 0.17368 0.46794 -0.38400
O 	O 	0.79073 0.20283 0.50314 -0.72000
H 	H 	0.76672 0.17895 0.50276 0.15600
C 	C 	0.20209 0.28309 0.42488 0.28100
C 	C 	0.28835 0.18726 0.58030 0.30200
C 	C 	0.29242 0.18746 0.42821 0.30300
C 	C 	0.19590 0.27993 0.58330 0.28200
C 	C 	0.20040 0.09677 0.50272 0.30400
C 	C 	0.10433 0.18918 0.49617 0.28000
Ni	Ni	0.25947 0.24939 0.50426 1.11300
Ni	Ni	0.18858 0.18130 0.55679 1.12000
Ni	Ni	0.19267 0.18145 0.44679 1.12000
O 	O 	0.22306 0.29563 0.46369 -0.37300
O 	O 	0.20494 0.23997 0.40928 -0.37500
O 	O 	0.21446 0.11974 0.53915 -0.38900
O 	O 	0.29758 0.19935 0.53778 -0.38000
O 	O 	0.24603 0.19058 0.59617 -0.37700
O 	O 	0.12626 0.19757 0.45673 -0.38300
O 	O 	0.29070 0.23018 0.44279 -0.37300
O 	O 	0.25795 0.15917 0.43558 -0.38300
O 	O 	0.12483 0.16695 0.53091 -0.37800
O 	O 	0.23879 0.27829 0.56728 -0.36900
O 	O 	0.16839 0.24329 0.58191 -0.37900
O 	O 	0.17756 0.11763 0.46958 -0.38500
O 	O 	0.20692 0.21258 0.50245 -0.72000
H 	H 	0.18305 0.23659 0.50180 0.15600
C 	C 	0.19970 0.42171 0.71660 0.28100
C 	C 	0.28978 0.57580 0.81241 0.30200
C 	C 	0.29204 0.42352 0.81003 0.30100
C 	C 	0.19394 0.58012 0.72186 0.28200
C 	C 	0.20395 0.49859 0.90440 0.30400
C 	C 	0.10496 0.49460 0.81623 0.28100
Ni	Ni	0.25823 0.50072 0.74976 1.11200
Ni	Ni	0.19045 0.55317 0.82070 1.12000
Ni	Ni	0.19257 0.44336 0.81924 1.12000
O 	O 	0.21988 0.46097 0.70432 -0.37400
O 	O 	0.20223 0.40604 0.75986 -0.37400
O 	O 	0.21902 0.53399 0.88060 -0.39100
O 	O 	0.29943 0.53417 0.79773 -0.37900
O 	O 	0.24764 0.59179 0.80898 -0.37900
O 	O 	0.12557 0.45495 0.80585 -0.38200
O 	O 	0.28947 0.43882 0.76751 -0.37300
O 	O 	0.25833 0.43068 0.83936 -0.38200
O 	O 	0.12739 0.52820 0.83810 -0.38100
O 	O 	0.23678 0.56382 0.72171 -0.36800
O 	O 	0.16787 0.57863 0.75962 -0.37800
O 	O 	0.18044 0.46551 0.88415 -0.38300
O 	O 	0.20687 0.49902 0.78828 -0.72100
H 	H 	0.18220 0.49880 0.76502 0.15600
C 	C 	0.19193 0.71645 0.58428 0.28200
C 	C 	0.29061 0.80612 0.42850 0.30200
C 	C 	0.28552 0.80837 0.58125 0.30100
C 	C 	0.19924 0.71157 0.42614 0.28000
C 	C 	0.19957 0.89878 0.50238 0.30400
C 	C 	0.10198 0.80859 0.49583 0.28200
Ni	Ni	0.25663 0.74561 0.50552 1.11300
Ni	Ni	0.19091 0.81371 0.44696 1.12000
Ni	Ni	0.18612 0.81489 0.55689 1.12000
O 	O 	0.23497 0.71739 0.56855 -0.36900
O 	O 	0.16481 0.75335 0.58208 -0.37900
O 	O 	0.17682 0.87807 0.46905 -0.38500
O 	O 	0.28868 0.76371 0.44402 -0.37300
O 	O 	0.25653 0.83492 0.43574 -0.38300
O 	O 	0.12278 0.83035 0.53067 -0.37800
O 	O 	0.29548 0.79505 0.53922 -0.37900
O 	O 	0.24309 0.80490 0.59671 -0.37700
O 	O 	0.12421 0.79870 0.45690 -0.38400
O 	O 	0.22000 0.69935 0.46517 -0.37300
O 	O 	0.20234 0.75453 0.41004 -0.37400
O 	O 	0.21330 0.87571 0.53885 -0.39000
O 	O 	0.20450 0.78298 0.50296 -0.72100
H 	H 	0.18034 0.75926 0.50230 0.15700
C 	C 	0.80436 0.71440 0.42828 0.28100
C 	C 	0.72133 0.81423 0.58351 0.30000
C 	C 	0.71471 0.80889 0.43060 0.30200
C 	C 	0.81461 0.72147 0.58695 0.28200
C 	C 	0.80709 0.90272 0.50240 0.30400
C 	C 	0.90382 0.81108 0.49629 0.28100
Ni	Ni	0.74907 0.74975 0.50865 1.11200
Ni	Ni	0.82056 0.81956 0.55821 1.12000
Ni	Ni	0.81438 0.81665 0.44839 1.12000
O 	O 	0.78511 0.70289 0.46831 -0.37400
O 	O 	0.80181 0.75735 0.41213 -0.37500
O 	O 	0.79418 0.88074 0.53986 -0.38900
O 	O 	0.71100 0.80015 0.54182 -0.37900
O 	O 	0.76387 0.81081 0.59873 -0.37700
O 	O 	0.88108 0.80114 0.45765 -0.38300
O 	O 	0.71612 0.76693 0.44736 -0.37300
O 	O 	0.74864 0.83785 0.43801 -0.38400
O 	O 	0.88375 0.83378 0.53097 -0.37700
O 	O 	0.77134 0.72249 0.57190 -0.36900
O 	O 	0.84172 0.75834 0.58439 -0.37800
O 	O 	0.82944 0.88109 0.46942 -0.38600
O 	O 	0.80133 0.78685 0.50498 -0.72100
H 	H 	0.82533 0.76295 0.50440 0.15600
C 	C 	0.58109 0.71510 0.80512 0.28100
C 	C 	0.42514 0.81206 0.72036 0.30100
C 	C 	0.57935 0.81175 0.71766 0.30300
C 	C 	0.42324 0.71797 0.81156 0.28100
C 	C 	0.50229 0.90171 0.80983 0.30300
C 	C 	0.50815 0.80847 0.90531 0.28100
Ni	Ni	0.50170 0.75024 0.74834 1.11200
Ni	Ni	0.44874 0.81675 0.82036 1.12000
Ni	Ni	0.55844 0.81687 0.81726 1.12000
O 	O 	0.54204 0.70341 0.78425 -0.37400
O 	O 	0.59631 0.75852 0.80464 -0.37500
O 	O 	0.46641 0.87852 0.79491 -0.38800
O 	O 	0.46757 0.80030 0.71057 -0.37900
O 	O 	0.40958 0.80770 0.76276 -0.37700
O 	O 	0.54776 0.80014 0.88378 -0.38300
O 	O 	0.56316 0.76959 0.71726 -0.37400
O 	O 	0.57043 0.83969 0.75215 -0.38300
O 	O 	0.47398 0.83097 0.88442 -0.37900
O 	O 	0.43909 0.72056 0.76854 -0.36900
O 	O 	0.42424 0.75421 0.83976 -0.37800
O 	O 	0.53554 0.88079 0.83250 -0.38300
O 	O 	0.50319 0.78599 0.80181 -0.72000
H 	H 	0.50388 0.76157 0.82534 0.15600
C 	C 	0.81633 0.58284 0.72262 0.28200
C 	C 	0.71981 0.42493 0.81099 0.30200
C 	C 	0.72159 0.57809 0.81311 0.30100
C 	C 	0.81120 0.42370 0.71775 0.28100
C 	C 	0.80752 0.50062 0.90515 0.30300
C 	C 	0.90669 0.49654 0.81596 0.28100
Ni	Ni	0.75285 0.50277 0.75092 1.11200
Ni	Ni	0.81891 0.44573 0.82005 1.12000
Ni	Ni	0.82122 0.55549 0.82137 1.12000
O 	O 	0.77369 0.56602 0.72274 -0.36900
O 	O 	0.84296 0.58103 0.75998 -0.37800
O 	O 	0.83173 0.46835 0.88453 -0.38500
O 	O 	0.72159 0.44087 0.76867 -0.37300
O 	O 	0.75322 0.43327 0.84036 -0.38400
O 	O 	0.88468 0.53054 0.83775 -0.38000
O 	O 	0.71258 0.53591 0.79972 -0.37900
O 	O 	0.76380 0.59418 0.81042 -0.37800
O 	O 	0.88570 0.45703 0.80588 -0.38200
O 	O 	0.79100 0.46292 0.70535 -0.37400
O 	O 	0.80868 0.40822 0.76103 -0.37500
O 	O 	0.79403 0.53737 0.88239 -0.38900
O 	O 	0.80444 0.50128 0.78912 -0.72100
H 	H 	0.82892 0.50109 0.76567 0.15600
C 	C 	0.60361 0.63186 0.80695 -0.01300
C 	C 	0.61392 0.67801 0.81738 -0.05800
C 	C 	0.65765 0.68902 0.83482 -0.01200
C 	C 	0.69207 0.65548 0.83665 -0.00500
C 	C 	0.68314 0.61052 0.82115 -0.06700
C 	C 	0.63805 0.59835 0.80871 -0.00800
H 	H 	0.56947 0.62221 0.79563 0.04400
H 	H 	0.66557 0.72390 0.84535 0.04200
H 	H 	0.72609 0.66491 0.84854 0.04100
H 	H 	0.63002 0.56341 0.79851 0.04100
C 	C 	0.84691 0.69221 0.66093 -0.00800
C 	C 	0.82831 0.68315 0.61717 -0.06100
C 	C 	0.81521 0.63806 0.60585 -0.01000
C 	C 	0.81578 0.60362 0.63949 -0.01000
C 	C 	0.82933 0.61401 0.68476 -0.06000
C 	C 	0.84741 0.65774 0.69464 -0.00900
H 	H 	0.85793 0.72669 0.66987 0.04100
H 	H 	0.80205 0.63034 0.57176 0.03600
H 	H 	0.80307 0.56958 0.63108 0.03600
H 	H 	0.85878 0.66602 0.72923 0.04200
C 	C 	0.63758 0.81931 0.60277 -0.01100
C 	C 	0.68370 0.82458 0.61640 -0.06400
C 	C 	0.69363 0.83505 0.66271 -0.01000
C 	C 	0.65844 0.83532 0.69562 -0.00500
C 	C 	0.61314 0.82513 0.68255 -0.06900
C 	C 	0.60258 0.81922 0.63576 -0.00500
H 	H 	0.62899 0.81313 0.56696 0.04400
H 	H 	0.72873 0.84102 0.67361 0.04300
H 	H 	0.66684 0.84061 0.73164 0.03400
H 	H 	0.56753 0.81228 0.62522 0.03700
C 	C 	0.02673 0.80476 0.45431 -0.01000
C 	C 	0.05123 0.80536 0.49608 -0.05900
C 	C 	0.02700 0.80487 0.53800 -0.01000
C 	C 	0.97888 0.80551 0.53811 -0.01000
C 	C 	0.95447 0.80664 0.49630 -0.05900
C 	C 	0.97873 0.80540 0.45442 -0.01000
H 	H 	0.04481 0.80500 0.42167 0.04400
H 	H 	0.04538 0.80431 0.57048 0.04100
H 	H 	0.96064 0.80543 0.57067 0.04100
H 	H 	0.96049 0.80612 0.42187 0.04400
C 	C 	0.31364 0.83571 0.65807 -0.00700
C 	C 	0.32331 0.81771 0.61416 -0.06500
C 	C 	0.36864 0.80481 0.60335 -0.01000
C 	C 	0.40280 0.80591 0.63723 -0.01000
C 	C 	0.39207 0.81993 0.68236 -0.06600
C 	C 	0.34784 0.83686 0.69196 -0.00700
H 	H 	0.27933 0.84756 0.66642 0.04200
H 	H 	0.37709 0.79215 0.56926 0.04100
H 	H 	0.43705 0.79397 0.62882 0.04000
H 	H 	0.33949 0.84953 0.72608 0.04100
C 	C 	0.02966 0.46858 0.78338 -0.01100
C 	C 	0.05421 0.49704 0.81387 -0.06000
C 	C 	0.03007 0.52713 0.84308 -0.01100
C 	C 	0.98211 0.52777 0.84287 -0.01100
C 	C 	0.95746 0.49830 0.81348 -0.05900
C 	C 	0.98153 0.46922 0.78318 -0.01100
H 	H 	0.04778 0.44588 0.75999 0.04400
H 	H 	0.04840 0.54936 0.86676 0.04500
H 	H 	0.96416 0.55044 0.86642 0.04600
H 	H 	0.96302 0.44695 0.75966 0.04400
C 	C 	0.37227 0.59947 0.80648 -0.00700
C 	C 	0.32766 0.60812 0.82294 -0.06700
C 	C 	0.31818 0.65041 0.84451 -0.00600
C 	C 	0.35119 0.68542 0.84474 -0.01000
C 	C 	0.39405 0.67834 0.82367 -0.05900
C 	C 	0.40529 0.63444 0.80690 -0.01200
H 	H 	0.38071 0.56656 0.79114 0.04000
H 	H 	0.28454 0.65694 0.85915 0.04000
H 	H 	0.34239 0.71883 0.85877 0.04200
H 	H 	0.43880 0.62814 0.79186 0.03700
C 	C 	0.19314 0.59946 0.63841 -0.01000
C 	C 	0.17997 0.61038 0.68365 -0.06000
C 	C 	0.16099 0.65384 0.69299 -0.00900
C 	C 	0.16038 0.68772 0.65872 -0.00800
C 	C 	0.17876 0.67833 0.61494 -0.06100
C 	C 	0.19255 0.63332 0.60418 -0.01000
H 	H 	0.20645 0.56555 0.63042 0.03700
H 	H 	0.14980 0.66245 0.72756 0.04200
H 	H 	0.14876 0.72211 0.66723 0.04100
H 	H 	0.20546 0.62529 0.57007 0.03600
C 	C 	0.20701 0.02171 0.54406 -0.00800
C 	C 	0.20395 0.04614 0.50238 -0.06600
C 	C 	0.20228 0.02190 0.46050 -0.00600
C 	C 	0.20201 0.97379 0.46041 -0.00600
C 	C 	0.20342 0.94940 0.50220 -0.06600
C 	C 	0.20674 0.97366 0.54397 -0.00700
H 	H 	0.20840 0.03989 0.57664 0.04100
H 	H 	0.20090 0.04030 0.42804 0.04100
H 	H 	0.20043 0.95552 0.42789 0.04100
H 	H 	0.20795 0.95536 0.57649 0.04100
C 	C 	0.16714 0.31045 0.65813 -0.00700
C 	C 	0.18334 0.31875 0.61330 -0.06100
C 	C 	0.19554 0.36365 0.60043 -0.01000
C 	C 	0.19669 0.39873 0.63338 -0.01100
C 	C 	0.18614 0.38905 0.67972 -0.05900
C 	C 	0.16835 0.34550 0.69119 -0.01100
H 	H 	0.15650 0.27616 0.66820 0.04100
H 	H 	0.20663 0.37078 0.56548 0.03600
H 	H 	0.20818 0.43273 0.62329 0.04300
H 	H 	0.15772 0.33805 0.72619 0.04200
C 	C 	0.80411 0.02725 0.53993 -0.01300
C 	C 	0.80687 0.05000 0.49729 -0.05800
C 	C 	0.80556 0.02420 0.45630 -0.01200
C 	C 	0.80375 0.97618 0.45802 -0.00400
C 	C 	0.80339 0.95335 0.50068 -0.06700
C 	C 	0.80246 0.97919 0.54164 -0.00500
H 	H 	0.80398 0.04674 0.57178 0.04100
H 	H 	0.80717 0.04121 0.42311 0.04500
H 	H 	0.80344 0.95672 0.42616 0.04000
H 	H 	0.80174 0.96210 0.57482 0.04100
C 	C 	0.98265 0.19914 0.54107 -0.00500
C 	C 	0.95723 0.19864 0.49984 -0.06700
C 	C 	0.98046 0.19817 0.45743 -0.00500
C 	C 	0.02843 0.19627 0.45619 -0.01200
C 	C 	0.05384 0.19493 0.49743 -0.05700
C 	C 	0.03068 0.19736 0.53985 -0.01300
H 	H 	0.96523 0.19978 0.57408 0.04000
H 	H 	0.96134 0.19865 0.42537 0.04000
H 	H 	0.04573 0.19479 0.42315 0.04500
H 	H 	0.04982 0.19734 0.57190 0.04100
C 	C 	0.81886 0.36735 0.60091 -0.00800
C 	C 	0.82770 0.32149 0.61362 -0.06800
C 	C 	0.84075 0.31170 0.65923 -0.00600
C 	C 	0.83942 0.34623 0.69275 -0.01200
C 	C 	0.82471 0.39085 0.68109 -0.05900
C 	C 	0.81743 0.40185 0.63445 -0.01300
H 	H 	0.81104 0.37600 0.56544 0.04100
H 	H 	0.85014 0.27701 0.66914 0.04200
H 	H 	0.84785 0.33773 0.72812 0.04300
H 	H 	0.80861 0.43664 0.62437 0.04300
C 	C 	0.45910 0.02444 0.80596 -0.01200
C 	C 	0.50037 0.04943 0.80910 -0.05700
C 	C 	0.54244 0.02565 0.80979 -0.01300
C 	C 	0.54314 0.97748 0.80908 -0.00400
C 	C 	0.50179 0.95254 0.80745 -0.06700
C 	C 	0.45982 0.97635 0.80514 -0.00600
H 	H 	0.42635 0.04215 0.80524 0.04500
H 	H 	0.57459 0.04441 0.81118 0.04200
H 	H 	0.57580 0.95960 0.80995 0.04100
H 	H 	0.42764 0.95765 0.80382 0.04000
C 	C 	0.40998 0.37144 0.81019 -0.00600
C 	C 	0.40008 0.32634 0.82434 -0.06700
C 	C 	0.35646 0.31616 0.84242 -0.00700
C 	C 	0.32172 0.34954 0.84170 -0.00700
C 	C 	0.33046 0.39320 0.82289 -0.06600
C 	C 	0.37530 0.40470 0.80937 -0.00700
H 	H 	0.44387 0.38000 0.79726 0.03700
H 	H 	0.34856 0.28163 0.85406 0.03600
H 	H 	0.28737 0.34047 0.85289 0.03600
H 	H 	0.38271 0.43869 0.79591 0.03800
C 	C 	0.35246 0.16795 0.69180 -0.01200
C 	C 	0.39621 0.18508 0.68029 -0.05800
C 	C 	0.40641 0.19448 0.63385 -0.01300
C 	C 	0.37189 0.19198 0.60042 -0.00800
C 	C 	0.32675 0.18002 0.61302 -0.06700
C 	C 	0.31788 0.16563 0.65839 -0.00500
H 	H 	0.34465 0.15816 0.72698 0.04200
H 	H 	0.44052 0.20559 0.62387 0.04400
H 	H 	0.37987 0.20132 0.56516 0.04000
H 	H 	0.28383 0.15415 0.66820 0.04100
C 	C 	0.66127 0.31319 0.83910 -0.00900
C 	C 	0.61637 0.32245 0.82366 -0.06400
C 	C 	0.60417 0.36793 0.81238 -0.01100
C 	C 	0.63751 0.40254 0.81194 -0.00600
C 	C 	0.68323 0.39228 0.82326 -0.06800
C 	C 	0.69455 0.34800 0.83888 -0.00600
H 	H 	0.67088 0.27873 0.84958 0.04200
H 	H 	0.56939 0.37612 0.80189 0.04200
H 	H 	0.62823 0.43690 0.80076 0.03700
H 	H 	0.72965 0.33986 0.84833 0.03500
C 	C 	0.60806 0.19152 0.63933 -0.01000
C 	C 	0.61867 0.17768 0.68447 -0.06000
C 	C 	0.66225 0.15911 0.69393 -0.00900
C 	C 	0.69636 0.15921 0.65989 -0.00900
C 	C 	0.68710 0.17790 0.61619 -0.06000
C 	C 	0.64214 0.19165 0.60535 -0.01000
H 	H 	0.57415 0.20468 0.63127 0.03700
H 	H 	0.67069 0.14757 0.72843 0.04100
H 	H 	0.73074 0.14774 0.66850 0.04100
H 	H 	0.63425 0.20492 0.57133 0.03700
C 	C 	0.45837 0.20161 0.02626 -0.01200
C 	C 	0.49899 0.19872 0.05235 -0.05800
C 	C 	0.54171 0.20020 0.02981 -0.01300
C 	C 	0.54374 0.20187 0.98166 -0.00500
C 	C 	0.50306 0.20226 0.95556 -0.06700
C 	C 	0.46043 0.20343 0.97818 -0.00400
H 	H 	0.42514 0.20118 0.04309 0.04500
H 	H 	0.57334 0.19925 0.04950 0.04100
H 	H 	0.57691 0.20143 0.96470 0.04000
H 	H 	0.42882 0.20481 0.95847 0.04000
C 	C 	0.40913 0.18698 0.37436 -0.00600
C 	C 	0.39803 0.17451 0.32898 -0.06700
C 	C 	0.35433 0.15639 0.31934 -0.00600
C 	C 	0.32045 0.15595 0.35361 -0.00600
C 	C 	0.33017 0.17363 0.39759 -0.06700
C 	C 	0.37533 0.18651 0.40854 -0.00600
H 	H 	0.44318 0.19976 0.38247 0.03800
H 	H 	0.34561 0.14584 0.28459 0.03600
H 	H 	0.28587 0.14511 0.34498 0.03600
H 	H 	0.38352 0.19897 0.44279 0.03700
C 	C 	0.65806 0.16622 0.31617 -0.00500
C 	C 	0.61311 0.18127 0.32549 -0.06700
C 	C 	0.60128 0.19383 0.37079 -0.00800
C 	C 	0.63508 0.19627 0.40494 -0.01300
C 	C 	0.68115 0.18629 0.39419 -0.05800
C 	C 	0.69187 0.16861 0.35035 -0.01200
H 	H 	0.66725 0.15426 0.28201 0.04100
H 	H 	0.56636 0.20372 0.37912 0.04000
H 	H 	0.62570 0.20782 0.43918 0.04400
H 	H 	0.72673 0.15838 0.34215 0.04200
C 	C 	0.46029 0.97576 0.20120 -0.00600
C 	C 	0.50186 0.95132 0.20393 -0.06600
C 	C 	0.54347 0.97556 0.20769 -0.00700
C 	C 	0.54365 0.02361 0.20714 -0.00800
C 	C 	0.50222 0.04807 0.20285 -0.06500
C 	C 	0.46047 0.02388 0.20066 -0.00700
H 	H 	0.42787 0.95752 0.19923 0.04100
H 	H 	0.57581 0.95723 0.20988 0.04100
H 	H 	0.57612 0.04175 0.20894 0.04200
H 	H 	0.42818 0.04230 0.19832 0.04100
C 	C 	0.54383 0.80371 0.03068 -0.01100
C 	C 	0.50088 0.80344 0.05286 -0.05900
C 	C 	0.46060 0.80011 0.02627 -0.01000
C 	C 	0.46317 0.79961 0.97812 -0.01000
C 	C 	0.50598 0.80265 0.95593 -0.06000
C 	C 	0.54637 0.80345 0.98252 -0.00900
H 	H 	0.57524 0.80498 0.05071 0.04100
H 	H 	0.42722 0.79916 0.04276 0.04500
H 	H 	0.43180 0.79779 0.95808 0.04000
H 	H 	0.57970 0.80523 0.96598 0.04400
C 	C 	0.59942 0.80884 0.37281 -0.01100
C 	C 	0.61178 0.82026 0.32734 -0.06400
C 	C 	0.65647 0.83646 0.31840 -0.00900
C 	C 	0.68950 0.83674 0.35350 -0.00500
C 	C 	0.67814 0.82089 0.39776 -0.06800
C 	C 	0.63250 0.80896 0.40773 -0.00500
H 	H 	0.56475 0.79779 0.38074 0.04200
H 	H 	0.66615 0.84710 0.28395 0.04200
H 	H 	0.72450 0.84671 0.34559 0.03500
H 	H 	0.62315 0.79767 0.44209 0.03700
C 	C 	0.35305 0.83816 0.31979 -0.00700
C 	C 	0.39690 0.82037 0.32940 -0.06600
C 	C 	0.40766 0.80676 0.37455 -0.00600
C 	C 	0.37357 0.80611 0.40846 -0.00600
C 	C 	0.32846 0.81922 0.39757 -0.06600
C 	C 	0.31890 0.83760 0.35382 -0.00700
H 	H 	0.34451 0.84941 0.28522 0.03600
H 	H 	0.44175 0.79408 0.38265 0.03800
H 	H 	0.38162 0.79300 0.44251 0.03800
H 	H 	0.28434 0.84851 0.34521 0.03600
C 	C 	0.80211 0.45495 0.02672 -0.01200
C 	C 	0.80492 0.49579 0.05257 -0.05800
C 	C 	0.80397 0.53842 0.02971 -0.01300
C 	C 	0.80283 0.54012 0.98153 -0.00500
C 	C 	0.80247 0.49921 0.95571 -0.06800
C 	C 	0.80085 0.45669 0.97860 -0.00400
H 	H 	0.80217 0.42179 0.04377 0.04500
H 	H 	0.80490 0.57021 0.04920 0.04100
H 	H 	0.80367 0.57321 0.96434 0.04000
H 	H 	0.79956 0.42492 0.95909 0.04000
C 	C 	0.84418 0.35130 0.31992 -0.00700
C 	C 	0.82558 0.39487 0.32944 -0.06700
C 	C 	0.81261 0.40582 0.37471 -0.00600
C 	C 	0.81339 0.37203 0.40895 -0.00600
C 	C 	0.82700 0.32698 0.39816 -0.06700
C 	C 	0.84489 0.31741 0.35423 -0.00700
H 	H 	0.85506 0.34269 0.28525 0.03600
H 	H 	0.79941 0.43977 0.38273 0.03700
H 	H 	0.80073 0.38013 0.44315 0.03700
H 	H 	0.85623 0.28293 0.34570 0.03600
C 	C 	0.63341 0.40022 0.19682 -0.01100
C 	C 	0.67965 0.39028 0.18669 -0.05900
C 	C 	0.69098 0.34684 0.16854 -0.01100
C 	C 	0.65781 0.31205 0.16664 -0.00700
C 	C 	0.61304 0.32051 0.18254 -0.06100
C 	C 	0.60036 0.36538 0.19497 -0.01000
H 	H 	0.62347 0.43418 0.20852 0.04400
H 	H 	0.72594 0.33926 0.15817 0.04100
H 	H 	0.66774 0.27778 0.15578 0.04100
H 	H 	0.56545 0.37265 0.20581 0.03600
C 	C 	0.69205 0.65503 0.16201 -0.00900
C 	C 	0.68290 0.61179 0.18162 -0.06100
C 	C 	0.63811 0.60138 0.19624 -0.01000
C 	C 	0.60424 0.63547 0.19617 -0.01000
C 	C 	0.61491 0.68027 0.18158 -0.06100
C 	C 	0.65816 0.68917 0.16199 -0.00900
H 	H 	0.72625 0.66325 0.14974 0.04100
H 	H 	0.63026 0.56764 0.21009 0.03700
H 	H 	0.57050 0.62780 0.20999 0.03700
H 	H 	0.66658 0.72337 0.14974 0.04100
C 	C 	0.83654 0.65460 0.31738 -0.00500
C 	C 	0.82082 0.60975 0.32624 -0.06700
C 	C 	0.80805 0.59763 0.37141 -0.00800
C 	C 	0.80614 0.63113 0.40593 -0.01300
C 	C 	0.81692 0.67718 0.39569 -0.05800
C 	C 	0.83478 0.68809 0.35196 -0.01200
H 	H 	0.84862 0.66397 0.28332 0.04100
H 	H 	0.79763 0.56274 0.37939 0.04000
H 	H 	0.79436 0.62157 0.44004 0.04300
H 	H 	0.84560 0.72290 0.34415 0.04200
C 	C 	0.02599 0.45703 0.20273 -0.00700
C 	C 	0.05060 0.49864 0.20143 -0.06600
C 	C 	0.02663 0.54056 0.20200 -0.00700
C 	C 	0.97859 0.54090 0.20252 -0.00700
C 	C 	0.95399 0.49927 0.20245 -0.06600
C 	C 	0.97797 0.45737 0.20324 -0.00600
H 	H 	0.04400 0.42440 0.20243 0.04100
H 	H 	0.04518 0.57290 0.20174 0.04100
H 	H 	0.96055 0.57351 0.20197 0.04000
H 	H 	0.95942 0.42504 0.20388 0.04100
C 	C 	0.20229 0.46040 0.02887 -0.01300
C 	C 	0.20155 0.50293 0.05192 -0.05800
C 	C 	0.20551 0.54384 0.02637 -0.01300
C 	C 	0.20797 0.54232 0.97832 -0.00600
C 	C 	0.20645 0.49989 0.95516 -0.06800
C 	C 	0.20461 0.45890 0.98074 -0.00400
H 	H 	0.20054 0.42852 0.04816 0.04100
H 	H 	0.20541 0.57693 0.04357 0.04500
H 	H 	0.20961 0.57422 0.95907 0.03900
H 	H 	0.20449 0.42590 0.96334 0.04000
C 	C 	0.36735 0.40097 0.19448 -0.01000
C 	C 	0.32274 0.38795 0.18159 -0.06200
C 	C 	0.31482 0.34314 0.16539 -0.00700
C 	C 	0.34978 0.31018 0.16761 -0.01100
C 	C 	0.39282 0.32176 0.18642 -0.05900
C 	C 	0.40234 0.36811 0.19670 -0.01100
H 	H 	0.37423 0.43594 0.20550 0.03600
H 	H 	0.28079 0.33298 0.15412 0.04100
H 	H 	0.34259 0.27516 0.15705 0.04100
H 	H 	0.43605 0.37826 0.20884 0.04400
C 	C 	0.17175 0.30786 0.34807 -0.01200
C 	C 	0.18711 0.31953 0.39253 -0.05900
C 	C 	0.19323 0.36616 0.40390 -0.01300
C 	C 	0.19023 0.39987 0.36970 -0.00800
C 	C 	0.18096 0.38730 0.32381 -0.06800
C 	C 	0.16877 0.34159 0.31386 -0.00500
H 	H 	0.16410 0.27243 0.33940 0.04200
H 	H 	0.20239 0.37614 0.43869 0.04400
H 	H 	0.19732 0.43539 0.37852 0.04100
H 	H 	0.15894 0.33176 0.27920 0.04200
C 	C 	0.31437 0.65282 0.17521 -0.01000
C 	C 	0.32513 0.60766 0.18884 -0.06000
C 	C 	0.37146 0.59550 0.19546 -0.01100
C 	C 	0.40556 0.62938 0.19505 -0.01100
C 	C 	0.39368 0.67576 0.18798 -0.06000
C 	C 	0.34848 0.68669 0.17472 -0.01000
H 	H 	0.27928 0.66224 0.16707 0.04200
H 	H 	0.38085 0.56024 0.20307 0.04300
H 	H 	0.44078 0.61981 0.20240 0.04300
H 	H 	0.33924 0.72178 0.16621 0.04200
C 	C 	0.18662 0.59376 0.37343 -0.00300
C 	C 	0.17891 0.60532 0.32714 -0.07000
C 	C 	0.16809 0.65089 0.31550 -0.00300
C 	C 	0.17059 0.68551 0.34892 -0.01300
C 	C 	0.18415 0.67470 0.39422 -0.05700
C 	C 	0.18882 0.62822 0.40694 -0.01400
H 	H 	0.19363 0.55839 0.38298 0.03600
H 	H 	0.16097 0.66001 0.27998 0.03400
H 	H 	0.16441 0.72090 0.33896 0.04300
H 	H 	0.19665 0.61893 0.44225 0.04400
