data_crystal

_cell_length_a 44.18689
_cell_length_b 22.35040
_cell_length_c 22.78965
_cell_angle_alpha 90.00222
_cell_angle_beta  89.99513
_cell_angle_gamma 89.99984

_symmetry_space_group_name_	'P 1'
_symmetry_space_group_name_H-M	'P 1'

loop_
_symmetry_equiv_pos_as_xyz
  x,y,z

loop_
_atom_site_label
_atom_site_type_symbol
_atom_site_fract_x
_atom_site_fract_y
_atom_site_fract_z
_atom_site_charge
C 	C 	0.65139 0.26631 0.29709 0.32000
C 	C 	0.64585 0.24757 0.55754 0.34500
C 	C 	0.69394 0.16920 0.39872 0.34100
C 	C 	0.61390 0.36179 0.46590 0.32800
C 	C 	0.60674 0.09709 0.46932 0.34400
C 	C 	0.56083 0.20044 0.36946 0.32000
Ni	Ni	0.66107 0.27477 0.43117 1.13500
Ni	Ni	0.59645 0.22753 0.47577 1.13400
Ni	Ni	0.62793 0.16347 0.36572 1.13000
O 	O 	0.67126 0.27493 0.34039 -0.32600
O 	O 	0.63223 0.22040 0.29736 -0.34200
O 	O 	0.58629 0.13952 0.47466 -0.35000
O 	O 	0.65872 0.28645 0.52242 -0.32500
O 	O 	0.62840 0.20630 0.53561 -0.35400
O 	O 	0.58165 0.15894 0.35546 -0.33400
O 	O 	0.68352 0.19561 0.44490 -0.34000
O 	O 	0.67444 0.15276 0.35787 -0.32900
O 	O 	0.56468 0.23850 0.41384 -0.34800
O 	O 	0.63415 0.34950 0.42524 -0.33600
O 	O 	0.59917 0.31844 0.49513 -0.33200
O 	O 	0.62813 0.10104 0.42921 -0.35100
O 	O 	0.62551 0.23263 0.41502 -0.72100
H 	H 	0.61507 0.26057 0.38839 0.17900
C 	C 	0.59991 0.21708 0.97032 0.33100
C 	C 	0.68313 0.40967 0.90768 0.34900
C 	C 	0.63593 0.33199 0.06143 0.34300
C 	C 	0.64218 0.31452 0.80007 0.32100
C 	C 	0.59655 0.48172 0.97352 0.33500
C 	C 	0.55187 0.37749 0.87088 0.32000
Ni	Ni	0.64945 0.30103 0.93563 1.12800
Ni	Ni	0.61819 0.41477 0.87171 1.13200
Ni	Ni	0.58536 0.35202 0.97977 1.13000
O 	O 	0.62169 0.22664 0.93139 -0.34200
O 	O 	0.58637 0.26192 0.99918 -0.34100
O 	O 	0.61890 0.47620 0.93595 -0.34800
O 	O 	0.67339 0.37852 0.95185 -0.34700
O 	O 	0.66428 0.42358 0.86519 -0.34100
O 	O 	0.55375 0.34187 0.91759 -0.34900
O 	O 	0.64609 0.28975 0.02651 -0.33000
O 	O 	0.61703 0.37194 0.04112 -0.34600
O 	O 	0.57233 0.42056 0.86103 -0.33800
O 	O 	0.66055 0.30101 0.84491 -0.32300
O 	O 	0.62240 0.35929 0.80263 -0.34800
O 	O 	0.57571 0.44011 0.97784 -0.35600
O 	O 	0.61461 0.34493 0.91939 -0.72600
H 	H 	0.60415 0.31746 0.89226 0.18000
C 	C 	0.83558 0.32250 0.45707 0.32300
C 	C 	0.86289 0.33180 0.20106 0.34800
C 	C 	0.81735 0.22531 0.33675 0.34300
C 	C 	0.87784 0.45730 0.30687 0.31800
C 	C 	0.91654 0.20136 0.29489 0.34400
C 	C 	0.93660 0.31996 0.40999 0.31400
Ni	Ni	0.83788 0.34911 0.32183 1.12900
Ni	Ni	0.90910 0.33374 0.29306 1.13100
Ni	Ni	0.87881 0.24969 0.38856 1.13300
O 	O 	0.82055 0.33780 0.40820 -0.32100
O 	O 	0.86304 0.29860 0.45593 -0.35600
O 	O 	0.93066 0.25332 0.29388 -0.34900
O 	O 	0.84555 0.36650 0.23308 -0.33000
O 	O 	0.88451 0.30094 0.22570 -0.35500
O 	O 	0.92277 0.26672 0.41185 -0.33600
O 	O 	0.82510 0.26388 0.29683 -0.34200
O 	O 	0.83542 0.21652 0.38194 -0.33600
O 	O 	0.93405 0.35550 0.36329 -0.35100
O 	O 	0.85398 0.43545 0.33532 -0.32800
O 	O 	0.89653 0.42162 0.27615 -0.33200
O 	O 	0.89046 0.19588 0.32183 -0.35300
O 	O 	0.87611 0.32234 0.34519 -0.72300
H 	H 	0.88079 0.35254 0.37541 0.17800
C 	C 	0.89855 0.23125 0.78958 0.32300
C 	C 	0.80936 0.41524 0.84348 0.35000
C 	C 	0.84825 0.32801 0.69054 0.34000
C 	C 	0.85865 0.34045 0.95149 0.31300
C 	C 	0.89098 0.49132 0.75557 0.35400
C 	C 	0.94177 0.39850 0.85427 0.31400
Ni	Ni	0.84527 0.30867 0.82052 1.13100
Ni	Ni	0.87550 0.43204 0.86365 1.13400
Ni	Ni	0.90400 0.36186 0.75455 1.13300
O 	O 	0.87561 0.23841 0.82671 -0.33400
O 	O 	0.90361 0.27058 0.74676 -0.34100
O 	O 	0.86855 0.48006 0.79118 -0.35700
O 	O 	0.81798 0.38073 0.80106 -0.34800
O 	O 	0.82979 0.43635 0.87993 -0.34000
O 	O 	0.94029 0.36322 0.80727 -0.34000
O 	O 	0.84354 0.28801 0.73167 -0.33300
O 	O 	0.86888 0.36977 0.69765 -0.34800
O 	O 	0.92156 0.44230 0.86290 -0.33500
O 	O 	0.83913 0.31757 0.91252 -0.32200
O 	O 	0.87756 0.38444 0.93804 -0.35300
O 	O 	0.91131 0.45015 0.74416 -0.35100
O 	O 	0.87911 0.35813 0.82292 -0.72200
H 	H 	0.89220 0.33545 0.84997 0.17600
C 	C 	0.11683 0.46241 0.34035 0.32500
C 	C 	0.17736 0.23629 0.39176 0.34600
C 	C 	0.14381 0.33119 0.24444 0.33700
C 	C 	0.14341 0.33845 0.50408 0.31600
C 	C 	0.08178 0.20456 0.32174 0.34400
C 	C 	0.05237 0.32322 0.42610 0.31400
Ni	Ni	0.15574 0.35680 0.37039 1.13300
Ni	Ni	0.11209 0.25452 0.42356 1.13300
Ni	Ni	0.08858 0.33744 0.31849 1.13000
O 	O 	0.13735 0.44161 0.37758 -0.33400
O 	O 	0.10082 0.42592 0.30530 -0.33500
O 	O 	0.10660 0.20191 0.35321 -0.35600
O 	O 	0.17084 0.27230 0.34942 -0.35200
O 	O 	0.15636 0.22486 0.43125 -0.33300
O 	O 	0.05781 0.35792 0.37973 -0.34800
O 	O 	0.15485 0.37139 0.28043 -0.33200
O 	O 	0.11683 0.30840 0.25412 -0.34800
O 	O 	0.06649 0.27046 0.43280 -0.33200
O 	O 	0.16413 0.34734 0.46194 -0.32000
O 	O 	0.12080 0.29992 0.49760 -0.34300
O 	O 	0.06796 0.25618 0.31358 -0.34900
O 	O 	0.11683 0.32747 0.38102 -0.72400
H 	H 	0.10917 0.35685 0.40968 0.17600
C 	C 	0.15608 0.34521 0.01148 0.33500
C 	C 	0.14605 0.38195 0.75182 0.34300
C 	C 	0.18505 0.46800 0.90971 0.33700
C 	C 	0.11956 0.25399 0.83532 0.32900
C 	C 	0.09553 0.51355 0.85781 0.34900
C 	C 	0.05766 0.39266 0.93836 0.32200
Ni	Ni	0.16293 0.34744 0.87589 1.12500
Ni	Ni	0.09573 0.38342 0.83412 1.13500
Ni	Ni	0.12247 0.44168 0.95046 1.13200
O 	O 	0.17495 0.34385 0.96562 -0.34400
O 	O 	0.13146 0.37930 0.01196 -0.34600
O 	O 	0.07884 0.46699 0.84401 -0.35500
O 	O 	0.16060 0.34252 0.78400 -0.33000
O 	O 	0.12615 0.41712 0.77658 -0.35000
O 	O 	0.07638 0.43352 0.96199 -0.33600
O 	O 	0.18112 0.43158 0.86554 -0.35100
O 	O 	0.16736 0.46404 0.95608 -0.34200
O 	O 	0.06622 0.35696 0.89498 -0.35500
O 	O 	0.14056 0.26621 0.87507 -0.34000
O 	O 	0.10462 0.29721 0.80688 -0.33400
O 	O 	0.11924 0.50752 0.89159 -0.36200
O 	O 	0.12492 0.37876 0.89475 -0.72400
H 	H 	0.11662 0.34590 0.91862 0.17900
C 	C 	0.39002 0.39939 0.45995 0.32900
C 	C 	0.30528 0.20366 0.44055 0.34300
C 	C 	0.35967 0.30545 0.57349 0.34700
C 	C 	0.34331 0.28121 0.31587 0.32200
C 	C 	0.39405 0.13622 0.50004 0.34700
C 	C 	0.43706 0.21603 0.38550 0.31800
Ni	Ni	0.34058 0.31178 0.44684 1.13500
Ni	Ni	0.36844 0.18919 0.39549 1.13300
Ni	Ni	0.40618 0.26689 0.48884 1.13000
O 	O 	0.36851 0.38162 0.42398 -0.33100
O 	O 	0.40671 0.36008 0.49096 -0.32800
O 	O 	0.36871 0.14547 0.47200 -0.35300
O 	O 	0.31849 0.23745 0.47878 -0.34200
O 	O 	0.32179 0.18225 0.39725 -0.32900
O 	O 	0.43557 0.26238 0.42210 -0.34800
O 	O 	0.34788 0.33969 0.53286 -0.33600
O 	O 	0.37837 0.26231 0.55950 -0.35000
O 	O 	0.41408 0.17691 0.37899 -0.33200
O 	O 	0.32550 0.29721 0.36029 -0.32700
O 	O 	0.36189 0.23456 0.31978 -0.34300
O 	O 	0.41481 0.17855 0.50237 -0.34900
O 	O 	0.37477 0.26514 0.43189 -0.72200
H 	H 	0.38465 0.28693 0.39953 0.18300
C 	C 	0.34823 0.36961 0.81457 0.32700
C 	C 	0.34460 0.35674 0.07558 0.34400
C 	C 	0.30557 0.46076 0.92505 0.33700
C 	C 	0.38448 0.25431 0.97305 0.31100
C 	C 	0.39202 0.51316 0.00940 0.36300
C 	C 	0.43539 0.41087 0.90343 0.32100
Ni	Ni	0.33470 0.34191 0.94560 1.12100
Ni	Ni	0.39808 0.38285 0.00643 1.14000
Ni	Ni	0.37220 0.45791 0.89990 1.13400
O 	O 	0.32763 0.35307 0.85442 -0.33000
O 	O 	0.37104 0.40575 0.82793 -0.34900
O 	O 	0.41080 0.46842 0.01554 -0.34800
O 	O 	0.33324 0.32107 0.03530 -0.33000
O 	O 	0.36261 0.40011 0.05965 -0.34700
O 	O 	0.41810 0.45917 0.89794 -0.34300
O 	O 	0.30871 0.41718 0.96316 -0.34700
O 	O 	0.32710 0.47219 0.88665 -0.34000
O 	O 	0.43257 0.37459 0.94949 -0.34900
O 	O 	0.36086 0.26461 0.93816 -0.33200
O 	O 	0.39165 0.29292 0.01520 -0.33600
O 	O 	0.37012 0.51127 0.97044 -0.36900
O 	O 	0.37123 0.38466 0.94163 -0.72300
H 	H 	0.38242 0.35830 0.91467 0.17100
C 	C 	0.64527 0.82055 0.23081 0.32900
C 	C 	0.63550 0.79776 0.97220 0.33600
C 	C 	0.68963 0.88290 0.10978 0.34700
C 	C 	0.59394 0.70940 0.08324 0.32700
C 	C 	0.60693 0.97068 0.04009 0.33100
C 	C 	0.55721 0.90156 0.15068 0.31900
Ni	Ni	0.64834 0.78455 0.10038 1.13400
Ni	Ni	0.58734 0.84378 0.05034 1.13100
Ni	Ni	0.62665 0.91377 0.14639 1.13300
O 	O 	0.66211 0.79776 0.18786 -0.33200
O 	O 	0.62836 0.86908 0.22318 -0.34800
O 	O 	0.58390 0.93339 0.03597 -0.34500
O 	O 	0.64217 0.75937 0.01365 -0.33100
O 	O 	0.61725 0.84277 0.98280 -0.35300
O 	O 	0.58180 0.93631 0.15748 -0.33900
O 	O 	0.67622 0.85106 0.07043 -0.34500
O 	O 	0.67309 0.90996 0.14974 -0.33600
O 	O 	0.55690 0.85466 0.11466 -0.35200
O 	O 	0.61582 0.72218 0.12044 -0.33500
O 	O 	0.58237 0.75137 0.04731 -0.33200
O 	O 	0.63101 0.95513 0.06933 -0.35300
O 	O 	0.61700 0.83919 0.11064 -0.72200
H 	H 	0.60515 0.82043 0.14234 0.18300
C 	C 	0.69987 0.68943 0.63373 0.32300
C 	C 	0.60693 0.86230 0.57134 0.34200
C 	C 	0.64990 0.77154 0.72725 0.34800
C 	C 	0.64569 0.75824 0.46747 0.31500
C 	C 	0.56607 0.70360 0.66106 0.34500
C 	C 	0.60955 0.59928 0.55764 0.32000
Ni	Ni	0.65945 0.78801 0.59759 1.12800
Ni	Ni	0.59638 0.73141 0.55132 1.13100
Ni	Ni	0.63099 0.66996 0.65825 1.13500
O 	O 	0.69345 0.72566 0.58991 -0.34700
O 	O 	0.67804 0.66587 0.66785 -0.32400
O 	O 	0.57118 0.74609 0.62266 -0.36000
O 	O 	0.62406 0.84553 0.61464 -0.34200
O 	O 	0.59617 0.82181 0.53497 -0.34400
O 	O 	0.62860 0.60031 0.60299 -0.34500
O 	O 	0.66970 0.78940 0.68787 -0.33300
O 	O 	0.62633 0.74164 0.71048 -0.36300
O 	O 	0.58841 0.64134 0.55082 -0.33900
O 	O 	0.65512 0.79966 0.50578 -0.32600
O 	O 	0.62107 0.72578 0.47775 -0.34600
O 	O 	0.58583 0.66019 0.66884 -0.34500
O 	O 	0.63369 0.72151 0.59230 -0.71900
H 	H 	0.64499 0.69537 0.56524 0.18000
C 	C 	0.92293 0.96882 0.22942 0.30300
C 	C 	0.81347 0.83720 0.17407 0.35200
C 	C 	0.86091 0.90987 0.32423 0.33700
C 	C 	0.86896 0.87268 0.06330 0.33200
C 	C 	0.88020 0.71560 0.26474 0.34000
C 	C 	0.94319 0.77411 0.17501 0.31900
Ni	Ni	0.86297 0.92033 0.19273 1.12900
Ni	Ni	0.87475 0.78218 0.15718 1.13500
Ni	Ni	0.90913 0.83806 0.26748 1.12800
O 	O 	0.90309 0.96705 0.18579 -0.33900
O 	O 	0.92321 0.92663 0.27149 -0.33300
O 	O 	0.86046 0.73898 0.22879 -0.35100
O 	O 	0.82602 0.86956 0.21423 -0.35100
O 	O 	0.83035 0.80309 0.14005 -0.33700
O 	O 	0.94466 0.81446 0.21793 -0.35700
O 	O 	0.86325 0.94758 0.28026 -0.33800
O 	O 	0.87329 0.85632 0.32085 -0.34900
O 	O 	0.91743 0.74576 0.16130 -0.33300
O 	O 	0.85575 0.91088 0.10073 -0.32400
O 	O 	0.88419 0.82504 0.08147 -0.34700
O 	O 	0.90314 0.74839 0.28382 -0.34000
O 	O 	0.88753 0.85244 0.19654 -0.72300
H 	H 	0.90409 0.86471 0.17019 0.17600
C 	C 	0.89144 0.99403 0.72590 0.30900
C 	C 	0.81316 0.79553 0.65215 0.33800
C 	C 	0.86367 0.86660 0.81065 0.34300
C 	C 	0.84261 0.91758 0.55359 0.32300
C 	C 	0.90158 0.73407 0.68844 0.35100
C 	C 	0.94185 0.85286 0.60712 0.32500
Ni	Ni	0.84147 0.90927 0.69112 1.12400
Ni	Ni	0.87496 0.81566 0.60473 1.13400
Ni	Ni	0.90928 0.86175 0.71837 1.13400
O 	O 	0.86577 0.98873 0.69579 -0.33700
O 	O 	0.90497 0.94707 0.75075 -0.33900
O 	O 	0.87683 0.74711 0.66008 -0.36600
O 	O 	0.82000 0.82715 0.69849 -0.34100
O 	O 	0.82906 0.80239 0.60384 -0.33900
O 	O 	0.93719 0.88691 0.65387 -0.36000
O 	O 	0.84752 0.90717 0.78261 -0.33000
O 	O 	0.88134 0.83035 0.78144 -0.35000
O 	O 	0.92055 0.81559 0.58653 -0.33700
O 	O 	0.82631 0.92272 0.60318 -0.32600
O 	O 	0.86730 0.88437 0.55055 -0.35900
O 	O 	0.92129 0.77600 0.70179 -0.35400
O 	O 	0.87748 0.87478 0.66434 -0.72400
H 	H 	0.88595 0.90859 0.64198 0.17900
C 	C 	0.13893 0.88548 0.10369 0.32800
C 	C 	0.13392 0.90432 0.36371 0.34300
C 	C 	0.19003 0.84799 0.22067 0.34100
C 	C 	0.07568 0.97018 0.26310 0.30700
C 	C 	0.11953 0.71813 0.29434 0.34400
C 	C 	0.06166 0.77660 0.19194 0.32100
Ni	Ni	0.13772 0.92599 0.23490 1.12300
Ni	Ni	0.08835 0.83750 0.29433 1.13000
Ni	Ni	0.13039 0.78924 0.19095 1.13600
O 	O 	0.15000 0.92181 0.14517 -0.34300
O 	O 	0.12369 0.83615 0.11657 -0.34400
O 	O 	0.09453 0.74795 0.30660 -0.34500
O 	O 	0.13213 0.94567 0.32313 -0.34700
O 	O 	0.12026 0.85247 0.35679 -0.34900
O 	O 	0.08851 0.74998 0.18415 -0.33200
O 	O 	0.17492 0.87746 0.25977 -0.35300
O 	O 	0.17529 0.81312 0.18356 -0.33300
O 	O 	0.05676 0.81537 0.23523 -0.35800
O 	O 	0.09742 0.97134 0.22295 -0.34200
O 	O 	0.07279 0.92439 0.30068 -0.33500
O 	O 	0.14096 0.74338 0.26342 -0.35000
O 	O 	0.11433 0.85671 0.23041 -0.72300
H 	H 	0.09923 0.86985 0.20132 0.17500
C 	C 	0.15716 0.89475 0.59550 0.32300
C 	C 	0.14314 0.90439 0.85577 0.34100
C 	C 	0.19101 0.79815 0.71098 0.34600
C 	C 	0.11741 0.01109 0.75100 0.36400
C 	C 	0.10078 0.75006 0.77342 0.35200
C 	C 	0.06220 0.84996 0.66224 0.32400
Ni	Ni	0.16274 0.91558 0.72884 1.13000
Ni	Ni	0.09476 0.88190 0.77043 1.13200
Ni	Ni	0.12704 0.80480 0.67054 1.13600
O 	O 	0.17575 0.90534 0.64041 -0.32800
O 	O 	0.13458 0.85563 0.59915 -0.35100
O 	O 	0.08180 0.79531 0.77683 -0.34800
O 	O 	0.15853 0.93674 0.81802 -0.33400
O 	O 	0.12322 0.86523 0.83771 -0.35600
O 	O 	0.08131 0.80381 0.65770 -0.34100
O 	O 	0.18330 0.83586 0.75199 -0.33900
O 	O 	0.17238 0.78815 0.66723 -0.34000
O 	O 	0.06481 0.89045 0.70474 -0.34900
O 	O 	0.13792 0.99221 0.71320 -0.35500
O 	O 	0.09980 0.97312 0.78115 -0.35400
O 	O 	0.12561 0.75448 0.74262 -0.35800
O 	O 	0.12590 0.87774 0.71323 -0.72200
H 	H 	0.11704 0.90417 0.68323 0.17700
C 	C 	0.38311 0.75159 0.08074 0.33600
C 	C 	0.30016 0.94277 0.12768 0.33400
C 	C 	0.34346 0.84492 0.97532 0.33200
C 	C 	0.34835 0.86220 0.23620 0.32300
C 	C 	0.38278 0.01337 0.04214 0.36500
C 	C 	0.43339 0.92491 0.14398 0.32000
Ni	Ni	0.33378 0.83650 0.10651 1.12700
Ni	Ni	0.36603 0.95750 0.15283 1.12900
Ni	Ni	0.39511 0.88272 0.04651 1.13200
O 	O 	0.36326 0.76759 0.12052 -0.34100
O 	O 	0.39371 0.79037 0.04083 -0.34000
O 	O 	0.36066 0.00607 0.07976 -0.34700
O 	O 	0.31099 0.91274 0.08434 -0.35300
O 	O 	0.31976 0.96447 0.16574 -0.33300
O 	O 	0.42960 0.88262 0.10355 -0.35100
O 	O 	0.33311 0.81098 0.01799 -0.32100
O 	O 	0.36137 0.88998 0.98713 -0.36100
O 	O 	0.41240 0.96717 0.15418 -0.33900
O 	O 	0.32671 0.84819 0.19762 -0.33800
O 	O 	0.36617 0.90936 0.22798 -0.34200
O 	O 	0.40309 0.97099 0.03405 -0.36200
O 	O 	0.36872 0.88311 0.11202 -0.72000
H 	H 	0.38108 0.86058 0.14034 0.18000
C 	C 	0.37152 0.79971 0.47155 0.31800
C 	C 	0.35778 0.81037 0.73078 0.33800
C 	C 	0.41465 0.89547 0.57584 0.34600
C 	C 	0.31109 0.74560 0.63096 0.32700
C 	C 	0.44324 0.72553 0.67127 0.34200
C 	C 	0.39802 0.63356 0.56135 0.32200
Ni	Ni	0.35756 0.83303 0.59869 1.12700
Ni	Ni	0.37662 0.70733 0.66095 1.13400
Ni	Ni	0.41823 0.76210 0.55839 1.13000
O 	O 	0.36522 0.84409 0.50847 -0.33700
O 	O 	0.39523 0.76416 0.48111 -0.33500
O 	O 	0.42039 0.68841 0.67851 -0.34200
O 	O 	0.34397 0.83747 0.68710 -0.33300
O 	O 	0.38032 0.77408 0.72029 -0.35400
O 	O 	0.42119 0.67129 0.55773 -0.34700
O 	O 	0.39510 0.88426 0.61738 -0.34900
O 	O 	0.42576 0.85127 0.54443 -0.33700
O 	O 	0.37764 0.63796 0.60435 -0.33300
O 	O 	0.32115 0.77698 0.58640 -0.33700
O 	O 	0.32961 0.71061 0.66246 -0.32800
O 	O 	0.44158 0.76961 0.63328 -0.35900
O 	O 	0.37989 0.76165 0.59688 -0.71600
H 	H 	0.36827 0.73824 0.56803 0.17000
C 	C 	0.32938 0.87733 0.87434 0.11100
C 	C 	0.33649 0.83057 0.91323 -0.09300
C 	C 	0.34271 0.77324 0.89018 0.10700
C 	C 	0.34550 0.76554 0.82909 0.10900
C 	C 	0.34600 0.81612 0.79175 -0.09700
C 	C 	0.33686 0.87225 0.81446 0.11000
Br	Br	0.33730 0.94311 0.76617 -0.11200
Br	Br	0.30671 0.94516 0.90224 -0.11800
Br	Br	0.34597 0.68576 0.79664 -0.18600
Br	Br	0.34727 0.70514 0.94125 -0.14800
C 	C 	0.33190 0.86407 0.34099 0.11200
C 	C 	0.34753 0.83506 0.29525 -0.08700
C 	C 	0.36482 0.78347 0.30774 0.10800
C 	C 	0.36852 0.76448 0.36626 0.11400
C 	C 	0.35697 0.80005 0.41232 -0.08200
C 	C 	0.33474 0.84322 0.39886 0.10900
Br	Br	0.30445 0.86434 0.45604 -0.12700
Br	Br	0.30861 0.93502 0.32533 -0.12500
Br	Br	0.38347 0.68489 0.38176 -0.12500
Br	Br	0.38417 0.73980 0.24550 -0.13500
C 	C 	0.26028 0.71030 0.66661 0.11000
C 	C 	0.28011 0.75783 0.65287 -0.08700
C 	C 	0.27065 0.81746 0.66327 0.11200
C 	C 	0.24472 0.82803 0.69665 0.11400
C 	C 	0.22318 0.78223 0.70364 -0.09500
C 	C 	0.23122 0.72288 0.68937 0.11400
Br	Br	0.20206 0.65956 0.69884 -0.11700
Br	Br	0.27171 0.62881 0.64956 -0.10100
Br	Br	0.23905 0.90557 0.73228 -0.17200
Br	Br	0.28849 0.88415 0.62197 -0.16900
C 	C 	0.16077 0.85187 0.00781 0.12000
C 	C 	0.14657 0.89694 0.04157 -0.09100
C 	C 	0.13697 0.95022 0.01414 0.10700
C 	C 	0.13875 0.95569 0.95266 0.09200
C 	C 	0.15016 0.90801 0.91876 -0.09000
C 	C 	0.16333 0.85849 0.94673 0.10500
Br	Br	0.18440 0.79910 0.90080 -0.12000
Br	Br	0.17531 0.77964 0.04444 -0.12600
Br	Br	0.12485 0.02769 0.91493 -0.12700
Br	Br	0.11968 0.01416 0.06016 -0.09900
C 	C 	0.14322 0.96590 0.45373 0.10700
C 	C 	0.15083 0.91633 0.41821 -0.09400
C 	C 	0.17161 0.87363 0.43959 0.11400
C 	C 	0.17992 0.87480 0.49906 0.11100
C 	C 	0.16573 0.91539 0.53713 -0.08700
C 	C 	0.15079 0.96520 0.51360 0.09600
Br	Br	0.13826 0.02927 0.56463 -0.11500
Br	Br	0.12242 0.03382 0.42128 -0.11400
Br	Br	0.20854 0.81786 0.52984 -0.12200
Br	Br	0.18763 0.81269 0.38839 -0.11700
C 	C 	0.25631 0.95257 0.19805 0.10300
C 	C 	0.26906 0.92642 0.14749 -0.09400
C 	C 	0.25532 0.87444 0.12416 0.08000
C 	C 	0.23652 0.84008 0.15967 0.11200
C 	C 	0.22157 0.86716 0.20676 -0.09400
C 	C 	0.23353 0.92169 0.22950 0.10200
Br	Br	0.22367 0.94788 0.30793 -0.13000
Br	Br	0.26591 0.03415 0.21811 -0.10000
Br	Br	0.23613 0.75459 0.15079 -0.11900
Br	Br	0.25554 0.85889 0.04102 -0.14000
C 	C 	0.98768 0.79071 0.60679 0.10400
C 	C 	0.97347 0.84358 0.58897 -0.09000
C 	C 	0.99176 0.89392 0.57792 0.10600
C 	C 	0.02198 0.89472 0.59823 0.10600
C 	C 	0.03303 0.84587 0.63125 -0.09100
C 	C 	0.01517 0.79387 0.63659 0.10900
Br	Br	0.02377 0.73480 0.69569 -0.12900
Br	Br	0.97065 0.71450 0.58787 -0.11900
Br	Br	0.04796 0.96175 0.58103 -0.13100
Br	Br	0.97518 0.96114 0.53625 -0.11300
C 	C 	0.98899 0.78379 0.11321 0.10500
C 	C 	0.97199 0.74977 0.15319 -0.08400
C 	C 	0.98675 0.70516 0.18602 0.10900
C 	C 	0.01854 0.70587 0.19029 0.11000
C 	C 	0.03498 0.75167 0.16234 -0.08600
C 	C 	0.02072 0.78559 0.11841 0.10800
Br	Br	0.04439 0.83823 0.06974 -0.13300
Br	Br	0.96869 0.82887 0.05339 -0.12400
Br	Br	0.03936 0.64805 0.23819 -0.13500
Br	Br	0.96334 0.64699 0.22871 -0.13500
C 	C 	0.83878 0.86169 0.97030 0.10300
C 	C 	0.86525 0.88164 0.99913 -0.09000
C 	C 	0.89035 0.89896 0.96549 0.10400
C 	C 	0.89138 0.88574 0.90521 0.11900
C 	C 	0.86481 0.86728 0.87579 -0.09200
C 	C 	0.83852 0.85503 0.90863 0.11200
Br	Br	0.80288 0.82496 0.86971 -0.12000
Br	Br	0.80258 0.84612 0.01437 -0.12900
Br	Br	0.92963 0.88861 0.86482 -0.17000
Br	Br	0.92130 0.94778 0.00021 -0.10500
C 	C 	0.82234 0.89149 0.40308 0.11000
C 	C 	0.84503 0.92834 0.37880 -0.09100
C 	C 	0.85455 0.97939 0.41055 0.10500
C 	C 	0.84588 0.98592 0.46974 0.09600
C 	C 	0.83027 0.93940 0.49776 -0.08500
C 	C 	0.81432 0.89843 0.46262 0.10600
Br	Br	0.78452 0.84718 0.49797 -0.12300
Br	Br	0.80207 0.83307 0.35491 -0.11700
Br	Br	0.85902 0.05382 0.51496 -0.11000
Br	Br	0.87965 0.03906 0.37435 -0.12500
C 	C 	0.51733 0.64924 0.67737 0.11000
C 	C 	0.53591 0.69947 0.68820 -0.09800
C 	C 	0.52325 0.75059 0.71476 0.11000
C 	C 	0.49160 0.75656 0.71803 0.10900
C 	C 	0.47298 0.71042 0.69662 -0.09600
C 	C 	0.48590 0.65397 0.68523 0.11000
Br	Br	0.46105 0.58308 0.68333 -0.11000
Br	Br	0.53418 0.57620 0.64642 -0.11600
Br	Br	0.47365 0.82794 0.75019 -0.12300
Br	Br	0.54931 0.81257 0.74490 -0.12700
C 	C 	0.73906 0.72642 0.70124 0.10400
C 	C 	0.73162 0.68891 0.65443 -0.08200
C 	C 	0.75477 0.67449 0.61432 0.10800
C 	C 	0.78247 0.70652 0.61552 0.11300
C 	C 	0.78530 0.75740 0.65267 -0.08800
C 	C 	0.76203 0.76861 0.69400 0.11200
Br	Br	0.75658 0.84627 0.72894 -0.14300
Br	Br	0.72516 0.70812 0.77845 -0.11800
Br	Br	0.81655 0.67679 0.57145 -0.11900
Br	Br	0.74868 0.61088 0.55889 -0.09900
C 	C 	0.50922 0.88494 0.20586 0.10800
C 	C 	0.52773 0.92347 0.17270 -0.08600
C 	C 	0.51465 0.97457 0.14708 0.09800
C 	C 	0.48315 0.97762 0.13962 0.09700
C 	C 	0.46441 0.93434 0.16622 -0.08400
C 	C 	0.47746 0.89152 0.20389 0.10700
Br	Br	0.45185 0.84157 0.25146 -0.13100
Br	Br	0.52739 0.82263 0.25235 -0.12900
Br	Br	0.46646 0.03548 0.08610 -0.11100
Br	Br	0.53948 0.04091 0.12377 -0.11800
C 	C 	0.64351 0.73107 0.88542 0.11200
C 	C 	0.64663 0.78771 0.91193 -0.09300
C 	C 	0.65851 0.83583 0.87907 0.11200
C 	C 	0.66203 0.83020 0.81784 0.11600
C 	C 	0.65656 0.77460 0.79063 -0.09600
C 	C 	0.65034 0.72395 0.82584 0.11900
Br	Br	0.64991 0.64463 0.79202 -0.19200
Br	Br	0.62731 0.66407 0.92869 -0.14700
Br	Br	0.67207 0.89946 0.77131 -0.11700
Br	Br	0.67142 0.90795 0.91827 -0.12300
C 	C 	0.67143 0.82744 0.32742 0.11100
C 	C 	0.65026 0.79893 0.29043 -0.09500
C 	C 	0.63545 0.74704 0.30951 0.10700
C 	C 	0.64254 0.72322 0.36430 0.11000
C 	C 	0.65701 0.75961 0.40619 -0.08400
C 	C 	0.67479 0.80783 0.38588 0.10700
Br	Br	0.70718 0.83884 0.43345 -0.11600
Br	Br	0.69576 0.89252 0.29796 -0.13500
Br	Br	0.63475 0.64006 0.38012 -0.12100
Br	Br	0.60169 0.71551 0.26616 -0.13000
C 	C 	0.74153 0.91943 0.13210 0.10400
C 	C 	0.72187 0.87114 0.12202 -0.09400
C 	C 	0.73279 0.81156 0.12762 0.11700
C 	C 	0.76175 0.80130 0.15045 0.11800
C 	C 	0.78177 0.84925 0.15826 -0.09700
C 	C 	0.77158 0.90878 0.14927 0.12400
Br	Br	0.79868 0.97599 0.15876 -0.19800
Br	Br	0.72767 0.00037 0.11912 -0.08600
Br	Br	0.77347 0.72157 0.17402 -0.11200
Br	Br	0.70998 0.74389 0.09874 -0.21400
C 	C 	0.41668 0.66675 0.05124 0.11000
C 	C 	0.38863 0.68720 0.07296 -0.08500
C 	C 	0.36585 0.64481 0.08767 0.11600
C 	C 	0.37212 0.58420 0.08149 0.11900
C 	C 	0.39586 0.56643 0.04534 -0.10400
C 	C 	0.41957 0.60670 0.03374 0.12100
Br	Br	0.45557 0.57983 0.99429 -0.12300
Br	Br	0.45148 0.71866 0.05116 -0.12600
Br	Br	0.34979 0.52580 0.12561 -0.11300
Br	Br	0.32436 0.66804 0.10234 -0.13100
C 	C 	0.38707 0.14662 0.93981 0.11200
C 	C 	0.39538 0.19182 0.98007 -0.09200
C 	C 	0.40725 0.17427 0.03465 0.11800
C 	C 	0.39923 0.11879 0.05764 0.11500
C 	C 	0.38886 0.07371 0.01948 -0.08800
C 	C 	0.38524 0.08668 0.95925 0.10300
Br	Br	0.37950 0.02283 0.90366 -0.11000
Br	Br	0.38226 0.16506 0.85779 -0.10200
Br	Br	0.39872 0.10812 0.14150 -0.16200
Br	Br	0.43916 0.21946 0.07123 -0.12200
C 	C 	0.42373 0.54739 0.50810 0.11500
C 	C 	0.39715 0.58017 0.52231 -0.08200
C 	C 	0.36899 0.55891 0.50274 0.11300
C 	C 	0.36619 0.49983 0.48248 0.11400
C 	C 	0.39252 0.46451 0.47319 -0.07800
C 	C 	0.42121 0.49081 0.48093 0.11100
Br	Br	0.45681 0.45112 0.45100 -0.10500
Br	Br	0.46349 0.57928 0.52374 -0.11300
Br	Br	0.32614 0.46724 0.47229 -0.13500
Br	Br	0.33441 0.61186 0.50101 -0.12700
C 	C 	0.41177 0.06395 0.57696 0.10900
C 	C 	0.40167 0.07475 0.51913 -0.09400
C 	C 	0.40010 0.02678 0.47881 0.13000
C 	C 	0.41152 0.97057 0.49446 0.09700
C 	C 	0.41757 0.95772 0.55397 -0.11100
C 	C 	0.41971 0.00537 0.59433 0.13600
Br	Br	0.43489 0.99071 0.67234 -0.12200
Br	Br	0.41211 0.12801 0.63371 -0.11300
Br	Br	0.42283 0.91527 0.43319 -0.13000
Br	Br	0.38121 0.03647 0.40285 -0.16400
C 	C 	0.33995 0.28158 0.67375 0.11500
C 	C 	0.35515 0.32111 0.63553 -0.09700
C 	C 	0.36360 0.37809 0.65554 0.11400
C 	C 	0.35335 0.39820 0.70981 0.11200
C 	C 	0.34303 0.35656 0.75170 -0.08200
C 	C 	0.33482 0.29841 0.73272 0.10900
Br	Br	0.31567 0.24283 0.78573 -0.12200
Br	Br	0.32608 0.20500 0.64540 -0.10600
Br	Br	0.35356 0.48293 0.72637 -0.13300
Br	Br	0.39431 0.42298 0.61548 -0.15100
C 	C 	0.36732 0.35240 0.17665 0.11900
C 	C 	0.34269 0.34028 0.13867 -0.09400
C 	C 	0.31598 0.31454 0.16231 0.11400
C 	C 	0.31538 0.29652 0.22171 0.11100
C 	C 	0.33981 0.31090 0.25878 -0.08800
C 	C 	0.36363 0.34561 0.23711 0.10700
Br	Br	0.38930 0.38885 0.29016 -0.12900
Br	Br	0.40755 0.36660 0.14665 -0.17700
Br	Br	0.28124 0.25260 0.25220 -0.12400
Br	Br	0.27987 0.30724 0.11536 -0.12500
C 	C 	0.08369 0.58510 0.77731 0.11100
C 	C 	0.08682 0.57374 0.83776 -0.09500
C 	C 	0.08786 0.62228 0.87745 0.11400
C 	C 	0.08949 0.68112 0.85602 0.11400
C 	C 	0.09167 0.69118 0.79525 -0.09700
C 	C 	0.08845 0.64299 0.75574 0.11800
Br	Br	0.09340 0.65507 0.67229 -0.14600
Br	Br	0.07263 0.52201 0.72395 -0.12300
Br	Br	0.09107 0.74760 0.91006 -0.13500
Br	Br	0.08854 0.60821 0.96100 -0.13900
C 	C 	0.14583 0.16491 0.79346 0.11100
C 	C 	0.11871 0.19308 0.81075 -0.08700
C 	C 	0.09087 0.16324 0.80298 0.11000
C 	C 	0.09037 0.10579 0.77766 0.11600
C 	C 	0.11777 0.07483 0.76805 -0.09300
C 	C 	0.14565 0.10446 0.77778 0.11800
Br	Br	0.18371 0.06178 0.77547 -0.13900
Br	Br	0.18299 0.20984 0.78651 -0.14800
Br	Br	0.05250 0.07185 0.75184 -0.11100
Br	Br	0.05370 0.19953 0.82951 -0.11600
C 	C 	0.22746 0.51693 0.96428 0.10900
C 	C 	0.21293 0.50486 0.91088 -0.09400
C 	C 	0.23043 0.50729 0.85972 0.10900
C 	C 	0.26117 0.49225 0.86264 0.10500
C 	C 	0.27549 0.48955 0.91827 -0.09100
C 	C 	0.25906 0.50814 0.96845 0.10200
Br	Br	0.27969 0.52296 0.04126 -0.09300
Br	Br	0.20575 0.55816 0.02530 -0.09200
Br	Br	0.28104 0.46457 0.79260 -0.11900
Br	Br	0.21156 0.52506 0.78573 -0.10900
C 	C 	0.12350 0.54928 0.27106 0.10900
C 	C 	0.11671 0.52796 0.32801 -0.08100
C 	C 	0.11319 0.56934 0.37445 0.10500
C 	C 	0.11591 0.63137 0.36386 0.11500
C 	C 	0.12087 0.65270 0.30647 -0.09200
C 	C 	0.12508 0.61134 0.26011 0.11700
Br	Br	0.13313 0.63899 0.18130 -0.16200
Br	Br	0.13275 0.49387 0.20847 -0.13000
Br	Br	0.11475 0.68696 0.42867 -0.13100
Br	Br	0.10478 0.54135 0.45274 -0.11300
C 	C 	0.06122 0.13232 0.24733 0.11400
C 	C 	0.06601 0.14818 0.30642 -0.09600
C 	C 	0.05944 0.10598 0.35052 0.11100
C 	C 	0.05582 0.04533 0.33553 0.11900
C 	C 	0.05992 0.02743 0.27659 -0.07000
C 	C 	0.05757 0.07143 0.23250 0.10200
Br	Br	0.04793 0.04818 0.15340 -0.09800
Br	Br	0.05741 0.19343 0.18823 -0.12100
Br	Br	0.04297 0.98877 0.39455 -0.12800
Br	Br	0.05387 0.13150 0.43031 -0.12900
C 	C 	0.17457 0.36804 0.65670 0.11500
C 	C 	0.14693 0.37732 0.68674 -0.09500
C 	C 	0.11991 0.38121 0.65405 0.11900
C 	C 	0.12136 0.38531 0.59287 0.10700
C 	C 	0.14741 0.36562 0.56304 -0.08100
C 	C 	0.17434 0.35669 0.59560 0.10800
Br	Br	0.20963 0.32269 0.55907 -0.11700
Br	Br	0.21256 0.37289 0.69806 -0.11400
Br	Br	0.08665 0.41275 0.54976 -0.12800
Br	Br	0.08136 0.36479 0.69030 -0.17300
C 	C 	0.18203 0.35409 0.16506 0.11400
C 	C 	0.16026 0.31519 0.18959 -0.09000
C 	C 	0.14958 0.26762 0.15483 0.11500
C 	C 	0.15076 0.27265 0.09337 0.10500
C 	C 	0.16638 0.32094 0.06797 -0.09100
C 	C 	0.18537 0.35599 0.10362 0.11200
Br	Br	0.21623 0.40436 0.06832 -0.12000
Br	Br	0.21076 0.39501 0.21442 -0.10500
Br	Br	0.12974 0.21613 0.04443 -0.11800
Br	Br	0.13966 0.19242 0.19096 -0.12800
C 	C 	0.25881 0.26825 0.43216 0.11600
C 	C 	0.27199 0.21054 0.43250 -0.09200
C 	C 	0.25334 0.16026 0.42207 0.11200
C 	C 	0.22198 0.16827 0.41098 0.11600
C 	C 	0.20991 0.22664 0.40586 -0.09800
C 	C 	0.22972 0.27617 0.41008 0.12300
Br	Br	0.21939 0.35374 0.37848 -0.21700
Br	Br	0.27870 0.33660 0.46651 -0.20500
Br	Br	0.19651 0.09987 0.39744 -0.11700
Br	Br	0.27029 0.08082 0.42522 -0.09800
C 	C 	0.91026 0.65526 0.76276 0.11100
C 	C 	0.90759 0.67155 0.70340 -0.09500
C 	C 	0.90298 0.62677 0.66049 0.11400
C 	C 	0.89883 0.56718 0.67773 0.11700
C 	C 	0.89684 0.55296 0.73770 -0.10200
C 	C 	0.90227 0.59740 0.78041 0.11900
Br	Br	0.89631 0.58081 0.86278 -0.16900
Br	Br	0.92430 0.71232 0.82015 -0.12800
Br	Br	0.89456 0.50533 0.61905 -0.12000
Br	Br	0.90003 0.64754 0.57838 -0.12000
C 	C 	0.91618 0.09314 0.70978 0.10300
C 	C 	0.90009 0.05380 0.74674 -0.07000
C 	C 	0.89395 0.07080 0.80524 0.10900
C 	C 	0.90325 0.12701 0.82511 0.11200
C 	C 	0.91172 0.17058 0.78416 -0.08300
C 	C 	0.92318 0.15117 0.72972 0.11600
Br	Br	0.95297 0.19857 0.68934 -0.11100
Br	Br	0.92769 0.06840 0.63198 -0.10400
Br	Br	0.90493 0.14412 0.90781 -0.10600
Br	Br	0.86792 0.02333 0.85407 -0.12600
C 	C 	0.98209 0.34252 0.91000 0.10600
C 	C 	0.96979 0.39761 0.89013 -0.08400
C 	C 	0.98450 0.45175 0.90540 0.10600
C 	C 	0.01001 0.45006 0.94198 0.10700
C 	C 	0.02499 0.39569 0.95118 -0.08900
C 	C 	0.00815 0.34291 0.94550 0.11100
Br	Br	0.02274 0.27046 0.98120 -0.10800
Br	Br	0.96713 0.26710 0.88052 -0.12400
Br	Br	0.02210 0.52008 0.98441 -0.12300
Br	Br	0.97501 0.52536 0.86546 -0.12100
C 	C 	0.87648 0.54624 0.23855 0.10800
C 	C 	0.87907 0.52354 0.29622 -0.07600
C 	C 	0.88052 0.56407 0.34386 0.10400
C 	C 	0.88089 0.62669 0.33363 0.11600
C 	C 	0.87972 0.64928 0.27573 -0.08900
C 	C 	0.87723 0.60855 0.22820 0.11800
Br	Br	0.87454 0.63722 0.14839 -0.17800
Br	Br	0.86923 0.49258 0.17366 -0.12500
Br	Br	0.88090 0.68131 0.39923 -0.12500
Br	Br	0.88081 0.53423 0.42322 -0.10500
C 	C 	0.94357 0.10499 0.31444 0.10900
C 	C 	0.93219 0.14686 0.27379 -0.09400
C 	C 	0.93150 0.13150 0.21391 0.11200
C 	C 	0.93719 0.07195 0.19706 0.10100
C 	C 	0.93876 0.02699 0.24025 -0.06800
C 	C 	0.94674 0.04443 0.29778 0.11800
Br	Br	0.96479 0.98795 0.35108 -0.14300
Br	Br	0.95544 0.13080 0.39153 -0.11800
Br	Br	0.94579 0.05279 0.11659 -0.08800
Br	Br	0.92155 0.19054 0.15574 -0.12400
C 	C 	0.97665 0.38783 0.44866 0.10700
C 	C 	0.96166 0.33242 0.45180 -0.08700
C 	C 	0.97660 0.28505 0.48070 0.11000
C 	C 	0.00843 0.28720 0.48624 0.11000
C 	C 	0.02424 0.33503 0.46012 -0.08000
C 	C 	0.00839 0.38909 0.45128 0.10700
Br	Br	0.02981 0.46366 0.44364 -0.11300
Br	Br	0.95376 0.46076 0.44397 -0.12000
Br	Br	0.02885 0.23670 0.54188 -0.10100
Br	Br	0.95349 0.22656 0.52348 -0.10800
C 	C 	0.81904 0.37937 0.54482 0.10700
C 	C 	0.82007 0.32495 0.51408 -0.08300
C 	C 	0.81746 0.27158 0.54608 0.10700
C 	C 	0.82604 0.27061 0.60543 0.11200
C 	C 	0.83084 0.32556 0.63498 -0.09200
C 	C 	0.82294 0.37933 0.60621 0.11400
Br	Br	0.81498 0.45057 0.65123 -0.11300
Br	Br	0.81396 0.45328 0.50279 -0.10300
Br	Br	0.83441 0.19483 0.64275 -0.12400
Br	Br	0.80325 0.20024 0.50791 -0.12800
C 	C 	0.83203 0.32649 0.10843 0.11500
C 	C 	0.86042 0.33202 0.13654 -0.09500
C 	C 	0.88696 0.33064 0.10253 0.12200
C 	C 	0.88518 0.31527 0.04335 0.10600
C 	C 	0.85759 0.32112 0.01340 -0.07300
C 	C 	0.83059 0.32609 0.04652 0.10700
Br	Br	0.79210 0.33599 0.00828 -0.11100
Br	Br	0.79561 0.31526 0.15377 -0.11200
Br	Br	0.92044 0.28675 0.00325 -0.11400
Br	Br	0.92485 0.35915 0.13406 -0.15600
C 	C 	0.61406 0.55114 0.05180 0.11000
C 	C 	0.59322 0.53746 0.00722 -0.07000
C 	C 	0.56803 0.57517 0.99791 0.09400
C 	C 	0.56511 0.62855 0.03038 0.12300
C 	C 	0.58786 0.64494 0.07065 -0.08200
C 	C 	0.60925 0.60112 0.08765 0.11000
Br	Br	0.62678 0.60192 0.16502 -0.10800
Br	Br	0.64987 0.50302 0.06259 -0.11500
Br	Br	0.52851 0.67477 0.02503 -0.11200
Br	Br	0.53879 0.55610 0.93808 -0.12100
C 	C 	0.59357 0.04886 0.96592 0.10900
C 	C 	0.60302 0.03405 0.02316 -0.06700
C 	C 	0.60793 0.08008 0.06478 0.11200
C 	C 	0.60199 0.13985 0.04978 0.12300
C 	C 	0.59514 0.15503 0.99116 -0.09900
C 	C 	0.58902 0.10918 0.95041 0.11100
Br	Br	0.57238 0.12874 0.87494 -0.10400
Br	Br	0.58929 0.98703 0.90733 -0.13900
Br	Br	0.60100 0.19968 0.11082 -0.14000
Br	Br	0.62264 0.06200 0.14282 -0.17600
C 	C 	0.50214 0.33271 0.84356 0.10700
C 	C 	0.52216 0.38176 0.84121 -0.08500
C 	C 	0.50987 0.43865 0.82983 0.11100
C 	C 	0.47956 0.45003 0.84485 0.11300
C 	C 	0.46103 0.40171 0.86281 -0.09200
C 	C 	0.47114 0.34314 0.85218 0.10900
Br	Br	0.44256 0.27837 0.84853 -0.14300
Br	Br	0.51717 0.25225 0.83914 -0.10800
Br	Br	0.46368 0.53000 0.83757 -0.11400
Br	Br	0.53274 0.49657 0.78590 -0.11900
C 	C 	0.73292 0.35862 0.89313 0.12200
C 	C 	0.71604 0.41213 0.89663 -0.09700
C 	C 	0.73037 0.46734 0.88533 0.11300
C 	C 	0.76117 0.46862 0.86876 0.11400
C 	C 	0.77712 0.41453 0.86077 -0.09800
C 	C 	0.76199 0.35938 0.86905 0.12300
Br	Br	0.77980 0.28441 0.84429 -0.20100
Br	Br	0.71733 0.28418 0.92400 -0.19400
Br	Br	0.78085 0.54403 0.85329 -0.12000
Br	Br	0.70822 0.54106 0.89505 -0.11300
C 	C 	0.58400 0.45477 0.48778 0.10900
C 	C 	0.61203 0.42440 0.48697 -0.08500
C 	C 	0.63897 0.45683 0.49801 0.10900
C 	C 	0.63773 0.51855 0.50747 0.11100
C 	C 	0.60992 0.54623 0.51857 -0.08700
C 	C 	0.58294 0.51621 0.50261 0.11300
Br	Br	0.54642 0.56085 0.48820 -0.10700
Br	Br	0.54736 0.41322 0.46624 -0.11400
Br	Br	0.67414 0.56583 0.50380 -0.12700
Br	Br	0.67720 0.41663 0.50696 -0.13600
C 	C 	0.57780 0.01165 0.51577 0.12900
C 	C 	0.60529 0.04315 0.50733 -0.10100
C 	C 	0.63222 0.01975 0.53093 0.12900
C 	C 	0.63315 0.96039 0.55118 0.09500
C 	C 	0.60609 0.92645 0.55462 -0.08900
C 	C 	0.57828 0.95366 0.54028 0.09200
Br	Br	0.54078 0.91264 0.55699 -0.13600
Br	Br	0.53943 0.04832 0.49737 -0.11500
Br	Br	0.67186 0.92545 0.57078 -0.19300
Br	Br	0.66732 0.07050 0.53938 -0.11300
C 	C 	0.51482 0.24806 0.32660 0.10900
C 	C 	0.53002 0.19573 0.34394 -0.08500
C 	C 	0.51294 0.14353 0.35307 0.11000
C 	C 	0.48175 0.14815 0.36518 0.10600
C 	C 	0.46676 0.20359 0.35679 -0.08200
C 	C 	0.48303 0.25129 0.33115 0.10700
Br	Br	0.46187 0.32039 0.30228 -0.10900
Br	Br	0.53753 0.31478 0.29670 -0.11400
Br	Br	0.46106 0.08057 0.39829 -0.12300
Br	Br	0.53097 0.06634 0.33979 -0.12000
C 	C 	0.67289 0.29022 0.71035 0.10900
C 	C 	0.64596 0.28369 0.74315 -0.08600
C 	C 	0.62028 0.25917 0.71606 0.10500
C 	C 	0.61938 0.25204 0.65500 0.11600
C 	C 	0.64633 0.25728 0.62194 -0.09700
C 	C 	0.67354 0.27281 0.65079 0.11300
Br	Br	0.71177 0.26658 0.61032 -0.11100
Br	Br	0.70794 0.32739 0.74493 -0.13000
Br	Br	0.58051 0.24360 0.61687 -0.18500
Br	Br	0.58580 0.23772 0.76257 -0.12600
C 	C 	0.62567 0.35562 0.16898 0.11500
C 	C 	0.64526 0.33312 0.12452 -0.08300
C 	C 	0.67243 0.30471 0.14177 0.11100
C 	C 	0.67571 0.28418 0.19982 0.11400
C 	C 	0.65441 0.30108 0.24258 -0.08600
C 	C 	0.63206 0.34309 0.22824 0.10800
Br	Br	0.61168 0.38587 0.28995 -0.12700
Br	Br	0.58979 0.40136 0.15050 -0.13200
Br	Br	0.70850 0.23121 0.22000 -0.12000
Br	Br	0.70647 0.30191 0.08906 -0.10500
C 	C 	0.74555 0.13488 0.36402 0.11400
C 	C 	0.72598 0.18152 0.38194 -0.09000
C 	C 	0.73701 0.24100 0.38154 0.11300
C 	C 	0.76335 0.25411 0.35088 0.12000
C 	C 	0.78490 0.20893 0.34190 -0.09300
C 	C 	0.77570 0.14852 0.34680 0.11800
Br	Br	0.80315 0.08548 0.32528 -0.12000
Br	Br	0.73203 0.05300 0.36705 -0.10300
Br	Br	0.76774 0.33217 0.31619 -0.18800
Br	Br	0.72256 0.30017 0.43591 -0.21800
