data_crystal

_cell_length_a 24.42639
_cell_length_b 19.04116
_cell_length_c 45.55774
_cell_angle_alpha 89.89272
_cell_angle_beta  89.89496
_cell_angle_gamma 119.41549

_symmetry_space_group_name_	'P 1'
_symmetry_space_group_name_H-M	'P 1'

loop_
_symmetry_equiv_pos_as_xyz
  x,y,z

loop_
_atom_site_label
_atom_site_type_symbol
_atom_site_fract_x
_atom_site_fract_y
_atom_site_fract_z
_atom_site_charge
C 	C 	0.61558 0.33942 0.87154 0.31400
C 	C 	0.83767 0.56918 0.93669 0.33300
C 	C 	0.78291 0.45650 0.84756 0.33200
C 	C 	0.67231 0.44599 0.96569 0.30100
C 	C 	0.85169 0.37079 0.91385 0.31900
C 	C 	0.68209 0.21437 0.93980 0.30900
Ni	Ni	0.72251 0.48007 0.90151 1.12700
Ni	Ni	0.76501 0.39436 0.95132 1.13800
Ni	Ni	0.72870 0.31805 0.88716 1.12700
O 	O 	0.63131 0.40264 0.88870 -0.31100
O 	O 	0.65776 0.31834 0.86254 -0.35800
O 	O 	0.84726 0.41229 0.93572 -0.32100
O 	O 	0.81695 0.55227 0.90982 -0.37100
O 	O 	0.80893 0.51654 0.95789 -0.33300
O 	O 	0.66959 0.22435 0.91220 -0.33600
O 	O 	0.74520 0.48260 0.85687 -0.35300
O 	O 	0.79548 0.41076 0.86422 -0.39700
O 	O 	0.73001 0.27251 0.95469 -0.30200
O 	O 	0.69759 0.50012 0.94397 -0.30000
O 	O 	0.68918 0.39038 0.97036 -0.31300
O 	O 	0.80135 0.30795 0.90333 -0.33400
O 	O 	0.72378 0.38776 0.91508 -0.72600
H 	H 	0.67963 0.35394 0.92119 0.19000
C 	C 	0.84666 0.51004 0.58069 0.29100
C 	C 	0.58180 0.26193 0.57519 0.32200
C 	C 	0.68651 0.52227 0.56715 0.31600
C 	C 	0.72961 0.25274 0.59600 0.32000
C 	C 	0.62108 0.42912 0.64988 0.33700
C 	C 	0.76373 0.42574 0.67231 0.32600
Ni	Ni	0.71423 0.38586 0.56512 1.12500
Ni	Ni	0.65952 0.31620 0.62996 1.12900
Ni	Ni	0.74748 0.50727 0.62125 1.13100
O 	O 	0.81143 0.44895 0.56314 -0.33000
O 	O 	0.82381 0.55340 0.59337 -0.31000
O 	O 	0.60564 0.36748 0.63259 -0.36600
O 	O 	0.61769 0.33314 0.56395 -0.32400
O 	O 	0.59973 0.23935 0.59893 -0.34800
O 	O 	0.79309 0.48067 0.65168 -0.33100
O 	O 	0.71647 0.49226 0.55228 -0.28600
O 	O 	0.70194 0.54593 0.59435 -0.33600
O 	O 	0.70506 0.36509 0.66877 -0.36000
O 	O 	0.71084 0.27384 0.57161 -0.34100
O 	O 	0.70980 0.25975 0.62250 -0.33800
O 	O 	0.68016 0.48741 0.65168 -0.37200
O 	O 	0.71822 0.40186 0.60569 -0.72300
H 	H 	0.75581 0.39729 0.60990 0.18200
C 	C 	0.99759 0.92136 0.75649 0.32600
C 	C 	0.19340 0.22693 0.80308 0.33200
C 	C 	0.01027 0.02236 0.83010 0.31200
C 	C 	0.19904 0.18209 0.73582 0.31600
C 	C 	0.00117 0.22875 0.78591 0.30700
C 	C 	0.99116 0.13893 0.71450 0.32400
Ni	Ni	0.10805 0.06403 0.78304 1.12000
Ni	Ni	0.10390 0.22185 0.75645 1.12700
Ni	Ni	0.97604 0.06166 0.77247 1.12800
O 	O 	0.05964 0.96428 0.75646 -0.34900
O 	O 	0.96253 0.94647 0.77050 -0.37000
O 	O 	0.06122 0.25178 0.78759 -0.35700
O 	O 	0.14784 0.15821 0.81209 -0.37000
O 	O 	0.18236 0.26811 0.78292 -0.35300
O 	O 	0.96571 0.06902 0.72901 -0.36500
O 	O 	0.04317 0.99650 0.81540 -0.35400
O 	O 	0.98699 0.06332 0.81678 -0.34900
O 	O 	0.03825 0.20726 0.72552 -0.37500
O 	O 	0.18431 0.11904 0.75337 -0.35100
O 	O 	0.15667 0.20183 0.72718 -0.36500
O 	O 	0.96071 0.15651 0.77625 -0.36500
O 	O 	0.06396 0.10933 0.76489 -0.72000
H 	H 	0.06319 0.08906 0.74491 0.16400
C 	C 	0.20546 0.75208 0.41845 0.31500
C 	C 	0.35970 0.63166 0.47968 0.31600
C 	C 	0.37994 0.85025 0.42766 0.32800
C 	C 	0.18759 0.54591 0.47799 0.29700
C 	C 	0.38281 0.64743 0.38717 0.32900
C 	C 	0.20165 0.53498 0.37636 0.30800
Ni	Ni	0.28548 0.71387 0.46156 1.13100
Ni	Ni	0.27891 0.55975 0.42884 1.14600
Ni	Ni	0.29486 0.70942 0.39065 1.12900
O 	O 	0.24389 0.77692 0.44166 -0.32000
O 	O 	0.21787 0.72173 0.39473 -0.36100
O 	O 	0.33420 0.57679 0.39354 -0.34800
O 	O 	0.32595 0.66353 0.48940 -0.30400
O 	O 	0.35943 0.61543 0.45188 -0.33700
O 	O 	0.24797 0.60584 0.36673 -0.35600
O 	O 	0.37411 0.79712 0.44723 -0.32400
O 	O 	0.34318 0.82672 0.40451 -0.33900
O 	O 	0.20412 0.50540 0.40247 -0.33100
O 	O 	0.19997 0.62152 0.47539 -0.30700
O 	O 	0.22537 0.52033 0.46671 -0.26800
O 	O 	0.37776 0.71287 0.38725 -0.35700
O 	O 	0.27078 0.65341 0.42727 -0.72300
H 	H 	0.22471 0.62777 0.42576 0.17800
C 	C 	0.34538 0.43373 0.05466 0.29100
C 	C 	0.18438 0.57778 0.07802 0.33800
C 	C 	0.17935 0.36880 0.02820 0.33100
C 	C 	0.34780 0.62752 0.10521 0.30700
C 	C 	0.24447 0.60013 0.98786 0.32100
C 	C 	0.41664 0.67553 0.01263 0.28700
Ni	Ni	0.24865 0.47731 0.07678 1.11800
Ni	Ni	0.30480 0.65252 0.04583 1.12800
Ni	Ni	0.30251 0.50733 0.00964 1.14000
O 	O 	0.28912 0.40493 0.06712 -0.32200
O 	O 	0.35772 0.46848 0.02833 -0.31900
O 	O 	0.28730 0.66127 0.00300 -0.33100
O 	O 	0.20255 0.53555 0.09399 -0.36300
O 	O 	0.21163 0.60856 0.05282 -0.37300
O 	O 	0.37727 0.61384 0.99576 -0.27200
O 	O 	0.17623 0.41743 0.04740 -0.37800
O 	O 	0.23262 0.39020 0.01436 -0.33100
O 	O 	0.39599 0.69956 0.03544 -0.36100
O 	O 	0.31855 0.54766 0.10611 -0.36200
O 	O 	0.32445 0.66693 0.09006 -0.35000
O 	O 	0.23925 0.52832 0.98964 -0.33700
O 	O 	0.29846 0.54944 0.04714 -0.71800
H 	H 	0.34092 0.56521 0.05431 0.15500
C 	C 	0.76633 0.80664 0.26966 0.31600
C 	C 	0.94315 0.99244 0.17314 0.31000
C 	C 	0.76052 0.77480 0.19102 0.34600
C 	C 	0.95132 0.05068 0.25490 0.30600
C 	C 	0.94546 0.77442 0.19462 0.32800
C 	C 	0.95558 0.82521 0.27716 0.30700
Ni	Ni	0.84365 0.92654 0.21984 1.11400
Ni	Ni	0.97561 0.92649 0.22499 1.12500
Ni	Ni	0.84721 0.76172 0.23457 1.12700
O 	O 	0.76648 0.85106 0.24685 -0.36600
O 	O 	0.80088 0.77018 0.26989 -0.37300
O 	O 	0.98556 0.83228 0.21184 -0.37500
O 	O 	0.90924 0.01028 0.19080 -0.35500
O 	O 	0.96531 0.94562 0.18201 -0.36200
O 	O 	0.91605 0.76336 0.26049 -0.35600
O 	O 	0.80746 0.84625 0.18569 -0.37600
O 	O 	0.76581 0.73040 0.21183 -0.36100
O 	O 	0.98831 0.89946 0.26621 -0.37100
O 	O 	0.88934 0.01303 0.25183 -0.35600
O 	O 	0.98767 0.03739 0.23646 -0.35100
O 	O 	0.88470 0.74672 0.19746 -0.35800
O 	O 	0.88818 0.87646 0.23314 -0.71900
H 	H 	0.88969 0.88868 0.25421 0.16000
C 	C 	0.02489 0.19504 0.04660 -0.11400
C 	C 	0.04611 0.15179 0.06363 0.02400
C 	C 	0.10735 0.16452 0.05914 0.13600
C 	C 	0.14961 0.22901 0.04161 -0.02700
C 	C 	0.13188 0.28316 0.02999 -0.10100
C 	C 	0.06782 0.26125 0.02991 0.20900
C 	C 	0.01103 0.10952 0.09033 -0.01200
O 	O 	0.12708 0.11729 0.07331 -0.23700
H 	H 	0.19812 0.24259 0.04018 0.12900
O 	O 	0.04789 0.30727 0.01501 -0.24200
H 	H 	0.97666 0.18238 0.04857 0.11900
C 	C 	0.01137 0.15422 0.11500 0.12500
C 	C 	0.98673 0.11511 0.14176 -0.02400
C 	C 	0.96176 0.03151 0.14417 -0.08800
C 	C 	0.95812 0.98625 0.11909 0.17800
C 	C 	0.98305 0.02542 0.09232 -0.05700
O 	O 	0.03949 0.23670 0.11347 -0.27300
H 	H 	0.98924 0.15026 0.16091 0.07700
O 	O 	0.93179 0.90407 0.12090 -0.27200
H 	H 	0.98213 0.99064 0.07334 0.09200
H 	H 	0.04914 0.34688 0.02949 0.18000
H 	H 	0.00542 0.24828 0.10800 0.15900
H 	H 	0.88652 0.88252 0.11665 0.17800
H 	H 	0.14517 0.14507 0.09214 0.18200
C 	C 	0.59665 0.67206 0.15894 -0.09200
C 	C 	0.57969 0.73214 0.16271 0.02200
C 	C 	0.62090 0.80418 0.17706 0.12800
C 	C 	0.67943 0.81698 0.18662 -0.01500
C 	C 	0.69734 0.75805 0.18208 -0.12200
C 	C 	0.65525 0.68473 0.16866 0.21500
C 	C 	0.51902 0.71960 0.15130 0.02100
O 	O 	0.60319 0.86101 0.18263 -0.26100
H 	H 	0.71113 0.87304 0.19746 0.04200
O 	O 	0.67228 0.62695 0.16382 -0.23300
H 	H 	0.56455 0.61579 0.14833 0.12600
C 	C 	0.51669 0.75776 0.12521 0.15400
C 	C 	0.45877 0.73422 0.11168 -0.02400
C 	C 	0.40320 0.67246 0.12400 -0.10100
C 	C 	0.40516 0.64197 0.15199 0.20400
C 	C 	0.46304 0.66513 0.16539 -0.10300
O 	O 	0.57080 0.81829 0.11306 -0.23800
H 	H 	0.45749 0.76068 0.09081 0.08700
O 	O 	0.35051 0.58971 0.16625 -0.27100
H 	H 	0.46445 0.63866 0.18626 0.08700
H 	H 	0.65742 0.59145 0.18137 0.17500
H 	H 	0.58647 0.79101 0.09971 0.23600
H 	H 	0.34404 0.53503 0.16209 0.17000
H 	H 	0.61961 0.89921 0.16587 0.18500
C 	C 	0.96653 0.66285 0.13063 -0.09000
C 	C 	0.01998 0.65925 0.13957 0.00200
C 	C 	0.04569 0.68753 0.16748 0.13600
C 	C 	0.01992 0.72288 0.18566 -0.03900
C 	C 	0.96821 0.73020 0.17626 -0.09700
C 	C 	0.94052 0.69820 0.14884 0.19900
C 	C 	0.05206 0.63190 0.11894 0.01900
O 	O 	0.09792 0.68411 0.17646 -0.26000
H 	H 	0.04059 0.74538 0.20700 0.07500
O 	O 	0.88800 0.70090 0.13990 -0.24900
H 	H 	0.94599 0.63990 0.10931 0.10400
C 	C 	0.04523 0.55448 0.12182 0.12900
C 	C 	0.08646 0.53541 0.10701 -0.01800
C 	C 	0.13444 0.59316 0.08913 -0.11200
C 	C 	0.13749 0.66821 0.08424 0.21600
C 	C 	0.09643 0.68721 0.09922 -0.10100
O 	O 	0.00083 0.49915 0.14050 -0.27300
H 	H 	0.08234 0.47655 0.11015 0.07000
O 	O 	0.18333 0.72514 0.06651 -0.27500
H 	H 	0.10117 0.74655 0.09661 0.10000
H 	H 	0.90401 0.75117 0.12822 0.18000
H 	H 	0.96270 0.46879 0.12833 0.18200
H 	H 	0.16392 0.71659 0.04679 0.18900
H 	H 	0.08148 0.63170 0.18682 0.16600
C 	C 	0.64224 0.80694 0.31951 -0.10600
C 	C 	0.61434 0.72844 0.33100 0.01400
C 	C 	0.63961 0.67824 0.32421 0.13000
C 	C 	0.68998 0.70475 0.30462 -0.02600
C 	C 	0.71642 0.78214 0.29202 -0.10900
C 	C 	0.69321 0.83407 0.30013 0.20100
C 	C 	0.55537 0.69660 0.34783 0.01400
O 	O 	0.61332 0.60186 0.33575 -0.25600
H 	H 	0.70750 0.66430 0.29866 0.07800
O 	O 	0.72148 0.91197 0.28994 -0.27400
H 	H 	0.62344 0.84629 0.32507 0.09400
C 	C 	0.55499 0.72611 0.37604 0.13900
C 	C 	0.49779 0.70344 0.39017 -0.01600
C 	C 	0.44087 0.65240 0.37610 -0.10000
C 	C 	0.44143 0.61895 0.34869 0.20400
C 	C 	0.49863 0.64067 0.33476 -0.09900
O 	O 	0.61043 0.77676 0.38986 -0.23400
H 	H 	0.49760 0.72855 0.41148 0.11200
O 	O 	0.38611 0.56724 0.33503 -0.27000
H 	H 	0.49878 0.61672 0.31321 0.09200
H 	H 	0.69696 0.91052 0.27239 0.16500
H 	H 	0.61933 0.83205 0.38474 0.18900
H 	H 	0.37596 0.60209 0.32258 0.16100
H 	H 	0.63614 0.60765 0.35437 0.18200
C 	C 	0.06185 0.20990 0.30758 -0.09700
C 	C 	0.04179 0.26724 0.30535 -0.00900
C 	C 	0.99007 0.25164 0.28762 0.14900
C 	C 	0.95985 0.17995 0.27159 -0.03600
C 	C 	0.98076 0.12327 0.27329 -0.08900
C 	C 	0.03136 0.13790 0.29174 0.17900
C 	C 	0.07663 0.34468 0.32080 0.01800
O 	O 	0.97071 0.30787 0.28494 -0.26100
H 	H 	0.92105 0.16924 0.25733 0.07900
O 	O 	0.05191 0.08273 0.29383 -0.27700
H 	H 	0.10147 0.22154 0.32141 0.08800
C 	C 	0.05580 0.35577 0.34828 0.12600
C 	C 	0.09453 0.42369 0.36509 -0.02500
C 	C 	0.15515 0.47921 0.35514 -0.09400
C 	C 	0.17399 0.47085 0.32665 0.20000
C 	C 	0.13428 0.40426 0.30951 -0.10700
O 	O 	0.99802 0.29970 0.35893 -0.22900
H 	H 	0.07892 0.43071 0.38662 0.12300
O 	O 	0.23199 0.52593 0.31595 -0.27500
H 	H 	0.14982 0.39676 0.28803 0.08900
H 	H 	0.02766 0.04665 0.31032 0.15700
H 	H 	0.00562 0.26072 0.37022 0.17300
H 	H 	0.26001 0.50387 0.32114 0.17200
H 	H 	0.93836 0.29392 0.30042 0.17800
C 	C 	0.12813 0.85902 0.38610 -0.09700
C 	C 	0.06699 0.79390 0.38339 0.01100
C 	C 	0.04854 0.72468 0.40080 0.14100
C 	C 	0.09369 0.71614 0.41701 -0.02100
C 	C 	0.15710 0.77619 0.41573 -0.08000
C 	C 	0.17304 0.85069 0.40249 0.21100
C 	C 	0.02797 0.79170 0.35824 0.02400
O 	O 	0.98780 0.66244 0.39991 -0.23800
H 	H 	0.08045 0.65966 0.42817 0.12300
O 	O 	0.23413 0.91200 0.40253 -0.27600
H 	H 	0.14224 0.91373 0.37357 0.08800
C 	C 	0.00477 0.84620 0.35656 0.11200
C 	C 	0.97809 0.85391 0.33036 -0.01200
C 	C 	0.97496 0.80811 0.30567 -0.11300
C 	C 	0.99584 0.75125 0.30776 0.21200
C 	C 	0.02151 0.74265 0.33407 -0.11600
O 	O 	0.00755 0.89131 0.38053 -0.23900
H 	H 	0.96108 0.89675 0.32906 0.06200
O 	O 	0.99243 0.70523 0.28395 -0.26200
H 	H 	0.03919 0.70048 0.33523 0.09600
H 	H 	0.23660 0.94725 0.41906 0.20900
H 	H 	0.04743 0.94293 0.37833 0.16200
H 	H 	0.03280 0.73699 0.27331 0.15400
H 	H 	0.96569 0.67372 0.41593 0.20300
C 	C 	0.48087 0.17721 0.50922 0.03500
C 	C 	0.47258 0.09903 0.50881 0.09800
C 	C 	0.48684 0.06796 0.53425 -0.10600
C 	C 	0.51884 0.12065 0.55754 0.08100
C 	C 	0.53037 0.20057 0.55701 -0.00200
C 	C 	0.50259 0.22422 0.53462 -0.05800
C 	C 	0.45126 0.05136 0.48141 0.08700
C 	C 	0.47223 0.98075 0.53590 0.78900
H 	H 	0.53764 0.10080 0.57524 0.09600
C 	C 	0.49600 0.29893 0.53746 0.77700
H 	H 	0.46979 0.20114 0.48992 0.12500
C 	C 	0.38753 0.01446 0.47248 -0.10000
C 	C 	0.36795 0.96038 0.44883 0.06500
C 	C 	0.40804 0.93455 0.43710 0.00100
C 	C 	0.47302 0.97936 0.44297 -0.06500
C 	C 	0.49425 0.03812 0.46514 0.04300
C 	C 	0.34030 0.03158 0.48819 0.78700
H 	H 	0.31953 0.93117 0.44189 0.08800
C 	C 	0.51882 0.95918 0.42785 0.77500
H 	H 	0.54353 0.06966 0.47111 0.11400
F 	F 	0.49336 0.31715 0.56665 -0.41100
F 	F 	0.44116 0.28682 0.52413 -0.37300
F 	F 	0.54637 0.36322 0.52387 -0.43200
F 	F 	0.51748 0.97199 0.52065 -0.41000
F 	F 	0.41374 0.92971 0.52412 -0.40200
F 	F 	0.47172 0.95724 0.56472 -0.39500
F 	F 	0.57878 0.02518 0.42753 -0.41100
F 	F 	0.50092 0.93645 0.39906 -0.43500
F 	F 	0.52018 0.89654 0.44261 -0.41000
F 	F 	0.27926 0.97847 0.47971 -0.41300
F 	F 	0.35261 0.10886 0.48159 -0.40500
F 	F 	0.34355 0.02395 0.51825 -0.38300
C 	C 	0.03527 0.46125 0.51392 0.03100
C 	C 	0.05729 0.50500 0.54013 0.09000
C 	C 	0.11994 0.53093 0.54919 -0.09600
C 	C 	0.16031 0.52011 0.52994 0.07400
C 	C 	0.14224 0.49754 0.50079 0.04200
C 	C 	0.07765 0.45704 0.49402 -0.06800
C 	C 	0.01643 0.52956 0.55617 0.08300
C 	C 	0.14411 0.57112 0.57878 0.78800
H 	H 	0.20878 0.54130 0.53603 0.12800
C 	C 	0.05514 0.42029 0.46402 0.77300
H 	H 	0.98628 0.43652 0.50796 0.11600
C 	C 	0.00061 0.58582 0.54384 -0.11100
C 	C 	0.94780 0.58876 0.55482 0.08400
C 	C 	0.91506 0.54225 0.57933 0.01800
C 	C 	0.94192 0.50393 0.59568 -0.09600
C 	C 	0.98797 0.49063 0.58251 0.06000
C 	C 	0.03644 0.63808 0.51776 0.78900
H 	H 	0.92912 0.62163 0.54290 0.10700
C 	C 	0.92173 0.47774 0.62698 0.78000
H 	H 	0.00079 0.44913 0.59241 0.09700
F 	F 	0.05836 0.47872 0.44491 -0.43500
F 	F 	0.99366 0.35799 0.46542 -0.40800
F 	F 	0.09207 0.38948 0.45329 -0.42400
F 	F 	0.11658 0.51476 0.60096 -0.41800
F 	F 	0.13043 0.63282 0.58290 -0.39000
F 	F 	0.20864 0.60409 0.58095 -0.39100
F 	F 	0.86410 0.40804 0.62739 -0.49000
F 	F 	0.91738 0.53818 0.64176 -0.45100
F 	F 	0.96489 0.46330 0.64160 -0.44400
F 	F 	0.02934 0.70579 0.51619 -0.40500
F 	F 	0.01380 0.59465 0.49212 -0.43200
F 	F 	0.10002 0.66407 0.52009 -0.40200
C 	C 	0.59777 0.59258 0.51719 0.04100
C 	C 	0.54268 0.56809 0.53370 0.10300
C 	C 	0.53301 0.52290 0.55983 -0.08900
C 	C 	0.57922 0.50400 0.56894 0.10000
C 	C 	0.63584 0.53214 0.55336 0.01900
C 	C 	0.64592 0.57823 0.52739 -0.04900
C 	C 	0.49330 0.58517 0.52232 0.09400
C 	C 	0.47208 0.49088 0.57723 0.79300
H 	H 	0.57176 0.46816 0.58858 0.10500
C 	C 	0.70696 0.61066 0.51018 0.77900
H 	H 	0.60316 0.62340 0.49648 0.12200
C 	C 	0.49851 0.66256 0.52517 -0.09400
C 	C 	0.45174 0.67641 0.51267 0.08100
C 	C 	0.39787 0.61291 0.50000 0.01400
C 	C 	0.38914 0.53380 0.50127 -0.06300
C 	C 	0.43975 0.52260 0.50925 0.03800
C 	C 	0.55546 0.73152 0.53964 0.78800
H 	H 	0.45848 0.73703 0.51166 0.12200
C 	C 	0.32565 0.46135 0.49484 0.78300
H 	H 	0.43662 0.46425 0.50634 0.14100
F 	F 	0.71081 0.66315 0.48817 -0.40100
F 	F 	0.71063 0.54734 0.49736 -0.40700
F 	F 	0.75788 0.65231 0.52857 -0.40500
F 	F 	0.42409 0.42743 0.56233 -0.37700
F 	F 	0.45647 0.55084 0.58141 -0.39200
F 	F 	0.47702 0.46312 0.60463 -0.40800
F 	F 	0.31536 0.45386 0.46490 -0.45500
F 	F 	0.27881 0.47026 0.50847 -0.41400
F 	F 	0.32211 0.39090 0.50532 -0.37200
F 	F 	0.54561 0.79586 0.54537 -0.38300
F 	F 	0.60700 0.75789 0.52128 -0.40900
F 	F 	0.56834 0.70682 0.56606 -0.39600
C 	C 	0.91194 0.10696 0.64049 -0.09800
C 	C 	0.88635 0.15855 0.64276 0.01600
C 	C 	0.89565 0.20374 0.66852 0.12900
C 	C 	0.93041 0.19737 0.69167 -0.02000
C 	C 	0.95622 0.14610 0.68947 -0.10700
C 	C 	0.94698 0.10072 0.66376 0.20600
C 	C 	0.84742 0.16310 0.61885 0.02100
O 	O 	0.86812 0.25115 0.67162 -0.25900
H 	H 	0.93620 0.23110 0.71166 0.06800
O 	O 	0.97096 0.04917 0.66155 -0.25900
H 	H 	0.90443 0.07147 0.62082 0.11000
C 	C 	0.87173 0.23222 0.60088 0.14200
C 	C 	0.83082 0.25553 0.58816 -0.00900
C 	C 	0.76606 0.21042 0.59372 -0.09200
C 	C 	0.74162 0.13321 0.60634 0.21300
C 	C 	0.78243 0.11007 0.61918 -0.09200
O 	O 	0.93540 0.27919 0.59707 -0.24500
H 	H 	0.84995 0.31283 0.57676 0.08700
O 	O 	0.67790 0.08463 0.60931 -0.25900
H 	H 	0.76332 0.05457 0.63175 0.10600
H 	H 	0.01341 0.08182 0.65283 0.17000
H 	H 	0.94980 0.31758 0.61371 0.18800
H 	H 	0.66453 0.05090 0.59138 0.20800
H 	H 	0.90018 0.30557 0.66485 0.19600
C 	C 	0.35168 0.23781 0.69697 -0.09500
C 	C 	0.39062 0.31589 0.70783 0.02100
C 	C 	0.36554 0.35089 0.72692 0.12800
C 	C 	0.30187 0.30835 0.73463 -0.02700
C 	C 	0.26371 0.22908 0.72481 -0.10900
C 	C 	0.28863 0.19407 0.70568 0.21000
C 	C 	0.45785 0.35984 0.69957 0.01700
O 	O 	0.40306 0.42673 0.73794 -0.24700
H 	H 	0.28259 0.33638 0.74881 0.08100
O 	O 	0.25181 0.11663 0.69592 -0.26100
H 	H 	0.37056 0.21073 0.68205 0.11600
C 	C 	0.49695 0.32720 0.70638 0.12900
C 	C 	0.55574 0.35819 0.69287 -0.02400
C 	C 	0.57586 0.42157 0.67253 -0.11700
C 	C 	0.54092 0.46157 0.66908 0.21800
C 	C 	0.48131 0.42964 0.68209 -0.08700
O 	O 	0.47541 0.26037 0.72406 -0.25900
H 	H 	0.58330 0.32837 0.69624 0.07100
O 	O 	0.56278 0.52817 0.65128 -0.22500
H 	H 	0.45227 0.45676 0.67748 0.13000
H 	H 	0.23262 0.12182 0.67745 0.18700
H 	H 	0.48959 0.28157 0.74410 0.17000
H 	H 	0.58707 0.57484 0.66439 0.17600
H 	H 	0.41966 0.41834 0.75669 0.16000
C 	C 	0.94578 0.69993 0.76348 -0.10700
C 	C 	0.90314 0.66798 0.74024 0.01300
C 	C 	0.89534 0.72029 0.72091 0.13000
C 	C 	0.92755 0.80349 0.72592 -0.02400
C 	C 	0.96875 0.83521 0.74968 -0.10800
C 	C 	0.97801 0.78316 0.76849 0.21400
C 	C 	0.86633 0.57993 0.73598 0.00400
O 	O 	0.85496 0.68986 0.69758 -0.26700
H 	H 	0.92005 0.84324 0.71145 0.07700
O 	O 	0.01848 0.81359 0.79179 -0.27100
H 	H 	0.95356 0.66037 0.77782 0.10700
C 	C 	0.89326 0.53960 0.72110 0.14100
C 	C 	0.85457 0.46975 0.70510 -0.02400
C 	C 	0.79050 0.44521 0.70197 -0.09700
C 	C 	0.76267 0.47289 0.72267 0.19700
C 	C 	0.80089 0.54089 0.73961 -0.09900
O 	O 	0.95721 0.57076 0.72074 -0.25300
H 	H 	0.87565 0.44221 0.69178 0.11700
O 	O 	0.69856 0.43830 0.72449 -0.27200
H 	H 	0.77964 0.56778 0.75317 0.08900
H 	H 	0.99234 0.81343 0.80851 0.17400
H 	H 	0.97232 0.60649 0.70325 0.20200
H 	H 	0.68762 0.47240 0.71206 0.16500
H 	H 	0.88070 0.68734 0.68117 0.17600
C 	C 	0.01213 0.40980 0.92009 0.01800
C 	C 	0.04116 0.49282 0.91424 0.09300
C 	C 	0.01093 0.52271 0.89566 -0.13000
C 	C 	0.94706 0.47218 0.88900 0.07900
C 	C 	0.91412 0.39514 0.90172 -0.01600
C 	C 	0.94862 0.35966 0.91292 -0.05400
C 	C 	0.09743 0.54827 0.93125 0.09600
C 	C 	0.04621 0.60806 0.88352 0.78600
H 	H 	0.92111 0.49625 0.87749 0.06100
C 	C 	0.91612 0.27107 0.92086 0.77600
H 	H 	0.03722 0.38590 0.93248 0.10600
C 	C 	0.09196 0.56783 0.96079 -0.11500
C 	C 	0.14536 0.59970 0.97885 0.07900
C 	C 	0.20290 0.61199 0.96781 -0.00300
C 	C 	0.21056 0.60888 0.93720 -0.06400
C 	C 	0.15706 0.57304 0.91930 0.03300
C 	C 	0.02843 0.54595 0.97408 0.78000
H 	H 	0.14062 0.60621 0.00221 0.07100
C 	C 	0.27459 0.63455 0.92408 0.78100
H 	H 	0.16134 0.56017 0.89651 0.12000
F 	F 	0.88741 0.25958 0.94799 -0.39800
F 	F 	0.95874 0.24305 0.92202 -0.41800
F 	F 	0.87124 0.22643 0.90005 -0.42500
F 	F 	0.09497 0.61589 0.86584 -0.43200
F 	F 	0.07060 0.66325 0.90615 -0.41900
F 	F 	0.00769 0.62682 0.86695 -0.46600
F 	F 	0.28667 0.57090 0.92550 -0.40100
F 	F 	0.32073 0.69965 0.93921 -0.39400
F 	F 	0.27696 0.65729 0.89502 -0.39600
F 	F 	0.03526 0.58735 1.00000 -0.43800
F 	F 	0.99558 0.46420 0.98004 -0.42300
F 	F 	0.99376 0.56535 0.95512 -0.42400
C 	C 	0.53263 0.82199 0.96083 0.03300
C 	C 	0.56783 0.88497 0.98046 0.11200
C 	C 	0.56802 0.86723 0.01070 -0.11300
C 	C 	0.52396 0.79014 0.02117 0.09300
C 	C 	0.48133 0.73151 0.00178 0.01800
C 	C 	0.49448 0.74318 0.97137 -0.04900
C 	C 	0.59796 0.96960 0.96983 0.07300
C 	C 	0.60960 0.93209 0.03233 0.79500
H 	H 	0.51889 0.77829 0.04457 0.08500
C 	C 	0.47390 0.67259 0.95070 0.78000
H 	H 	0.53482 0.83425 0.93749 0.13000
C 	C 	0.65607 0.00493 0.95451 -0.07600
C 	C 	0.68262 0.08537 0.94487 0.06900
C 	C 	0.65361 0.13144 0.95120 0.02300
C 	C 	0.59644 0.09686 0.96704 -0.06900
C 	C 	0.56833 0.01537 0.97558 0.05700
C 	C 	0.68788 0.95589 0.94673 0.77600
H 	H 	0.72571 0.11225 0.93211 0.11800
C 	C 	0.56555 0.14683 0.97480 0.78100
H 	H 	0.52359 0.98735 0.98700 0.11200
F 	F 	0.51767 0.69141 0.92844 -0.37600
F 	F 	0.41691 0.65418 0.93827 -0.36900
F 	F 	0.46835 0.60569 0.96541 -0.38900
F 	F 	0.58063 0.97567 0.04069 -0.42000
F 	F 	0.66766 0.98396 0.02018 -0.39400
F 	F 	0.61993 0.89816 0.05709 -0.41900
F 	F 	0.54971 0.17237 0.94938 -0.42600
F 	F 	0.60680 0.21346 0.99091 -0.40900
F 	F 	0.51147 0.10344 0.99133 -0.39700
F 	F 	0.74930 0.00501 0.93758 -0.39300
F 	F 	0.65536 0.90329 0.92423 -0.41400
F 	F 	0.68943 0.91232 0.97073 -0.38500
C 	C 	0.55287 0.48154 0.00703 0.03400
C 	C 	0.56208 0.46268 0.03572 0.09300
C 	C 	0.61216 0.44772 0.04183 -0.09600
C 	C 	0.65088 0.44974 0.01866 0.08100
C 	C 	0.63765 0.46025 0.98945 0.01700
C 	C 	0.58776 0.47608 0.98347 -0.06000
C 	C 	0.51394 0.44883 0.05806 0.11000
C 	C 	0.61989 0.41982 0.07209 0.79000
H 	H 	0.68965 0.43884 0.02311 0.10200
C 	C 	0.57066 0.48563 0.95221 0.77900
H 	H 	0.51569 0.49577 0.00294 0.13000
C 	C 	0.50925 0.51481 0.06954 -0.12700
C 	C 	0.44950 0.50327 0.07682 0.07500
C 	C 	0.39602 0.42980 0.07031 -0.01100
C 	C 	0.40256 0.36066 0.06737 -0.06500
C 	C 	0.46216 0.37085 0.06067 0.02400
C 	C 	0.56470 0.59964 0.06874 0.79500
H 	H 	0.44404 0.55486 0.08239 0.05400
C 	C 	0.34545 0.27746 0.06677 0.77700
H 	H 	0.46670 0.31950 0.05376 0.13500
F 	F 	0.61733 0.55709 0.94039 -0.41400
F 	F 	0.51466 0.48727 0.95111 -0.38600
F 	F 	0.56349 0.42166 0.93518 -0.44300
F 	F 	0.57712 0.33876 0.07538 -0.40600
F 	F 	0.61010 0.46244 0.09407 -0.39900
F 	F 	0.67981 0.43062 0.07569 -0.40800
F 	F 	0.32016 0.26141 0.03885 -0.42500
F 	F 	0.30058 0.27254 0.08652 -0.43800
F 	F 	0.36146 0.21945 0.07437 -0.40500
F 	F 	0.55901 0.64556 0.09071 -0.46500
F 	F 	0.56633 0.63482 0.04194 -0.42800
F 	F 	0.62087 0.59995 0.07288 -0.40100
C 	C 	0.97076 0.40112 0.76982 -0.08100
C 	C 	0.91877 0.38100 0.78805 -0.00300
C 	C 	0.89906 0.31640 0.80804 0.13900
C 	C 	0.92931 0.27025 0.80866 -0.03500
C 	C 	0.97980 0.28828 0.78971 -0.07800
C 	C 	0.00135 0.35508 0.77058 0.17400
C 	C 	0.88822 0.43157 0.78827 0.01500
O 	O 	0.84896 0.29685 0.82639 -0.26300
H 	H 	0.91236 0.21892 0.82338 0.10000
O 	O 	0.05227 0.37556 0.75269 -0.26300
H 	H 	0.98730 0.45211 0.75498 0.10800
C 	C 	0.91628 0.50451 0.80393 0.12200
C 	C 	0.87804 0.53002 0.81808 -0.03000
C 	C 	0.81273 0.47881 0.81862 -0.11800
C 	C 	0.78624 0.42103 0.79622 0.19500
C 	C 	0.82419 0.39648 0.78121 -0.10700
O 	O 	0.98032 0.54762 0.80710 -0.23100
H 	H 	0.89926 0.58152 0.83263 0.09000
O 	O 	0.72255 0.38173 0.79160 -0.27400
H 	H 	0.80277 0.34466 0.76681 0.09200
H 	H 	0.03451 0.34849 0.73374 0.16400
H 	H 	0.98981 0.52334 0.82426 0.19100
H 	H 	0.70518 0.33313 0.80433 0.16400
H 	H 	0.86734 0.32924 0.84434 0.17000
C 	C 	0.36696 0.33782 0.82229 -0.11000
C 	C 	0.38031 0.27390 0.82235 0.01800
C 	C 	0.33358 0.19648 0.81403 0.12000
C 	C 	0.27279 0.18175 0.80816 -0.01300
C 	C 	0.25866 0.24496 0.80865 -0.13000
C 	C 	0.30635 0.32364 0.81532 0.20900
C 	C 	0.44095 0.28610 0.83388 0.01200
O 	O 	0.34664 0.13420 0.81288 -0.24600
H 	H 	0.23636 0.12077 0.80344 0.04900
O 	O 	0.29393 0.38649 0.81520 -0.26400
H 	H 	0.40302 0.39794 0.82834 0.10400
C 	C 	0.49689 0.33075 0.81782 0.13500
C 	C 	0.55363 0.33957 0.82865 -0.02800
C 	C 	0.55542 0.30687 0.85605 -0.08900
C 	C 	0.49912 0.25994 0.87157 0.21100
C 	C 	0.44222 0.24948 0.86044 -0.08500
O 	O 	0.49622 0.36552 0.79152 -0.28200
H 	H 	0.59687 0.37606 0.81659 0.07900
O 	O 	0.49971 0.22461 0.89776 -0.23700
H 	H 	0.39911 0.21373 0.87267 0.11300
H 	H 	0.28043 0.38915 0.83553 0.19200
H 	H 	0.50477 0.42070 0.79647 0.16400
H 	H 	0.50441 0.26414 0.91307 0.22800
H 	H 	0.36104 0.13462 0.79247 0.16800
C 	C 	0.89367 0.78556 0.94754 -0.09100
C 	C 	0.94233 0.81525 0.92666 0.01200
C 	C 	0.96961 0.76762 0.91890 0.15000
C 	C 	0.94150 0.68720 0.92816 -0.01300
C 	C 	0.88436 0.65279 0.94351 -0.08500
C 	C 	0.86410 0.70399 0.95579 0.20300
C 	C 	0.95406 0.88533 0.90813 0.02000
O 	O 	0.02100 0.79780 0.90065 -0.22300
H 	H 	0.95915 0.64889 0.91983 0.14200
O 	O 	0.81277 0.67333 0.97408 -0.24600
H 	H 	0.87482 0.82335 0.95511 0.10900
C 	C 	0.90808 0.87842 0.88787 0.13300
C 	C 	0.92535 0.93118 0.86388 -0.02200
C 	C 	0.98830 0.99017 0.85973 -0.09300
C 	C 	0.03229 0.00386 0.88200 0.20200
C 	C 	0.01489 0.95185 0.90627 -0.10100
O 	O 	0.84780 0.81527 0.88983 -0.26500
H 	H 	0.89084 0.92165 0.84718 0.07700
O 	O 	0.09353 0.06376 0.87886 -0.26800
H 	H 	0.04998 0.95942 0.92237 0.11000
H 	H 	0.77626 0.65953 0.96114 0.19200
H 	H 	0.82460 0.83591 0.90164 0.19400
H 	H 	0.09538 0.11200 0.88810 0.18300
H 	H 	0.00372 0.78443 0.88047 0.17700
