data_crystal

_cell_length_a 23.95673
_cell_length_b 19.75956
_cell_length_c 46.53331
_cell_angle_alpha 89.92753
_cell_angle_beta  89.92873
_cell_angle_gamma 119.42639

_symmetry_space_group_name_	'P 1'
_symmetry_space_group_name_H-M	'P 1'

loop_
_symmetry_equiv_pos_as_xyz
  x,y,z

loop_
_atom_site_label
_atom_site_type_symbol
_atom_site_fract_x
_atom_site_fract_y
_atom_site_fract_z
_atom_site_charge
C 	C 	0.53517 0.22665 0.87673 0.30100
C 	C 	0.73213 0.55034 0.89460 0.31900
C 	C 	0.70426 0.33540 0.84747 0.31700
C 	C 	0.56527 0.43307 0.92849 0.30200
C 	C 	0.78733 0.39326 0.93271 0.32500
C 	C 	0.62603 0.26646 0.96657 0.31200
Ni	Ni	0.62554 0.39855 0.87589 1.11400
Ni	Ni	0.68464 0.42873 0.94025 1.12700
Ni	Ni	0.66419 0.27928 0.90604 1.12200
O 	O 	0.53990 0.29590 0.87349 -0.36700
O 	O 	0.58710 0.21818 0.87898 -0.38100
O 	O 	0.77103 0.44678 0.92907 -0.38800
O 	O 	0.71466 0.49686 0.87487 -0.38300
O 	O 	0.70849 0.53221 0.92076 -0.37300
O 	O 	0.61158 0.23126 0.94125 -0.38200
O 	O 	0.65692 0.35035 0.84368 -0.37500
O 	O 	0.72470 0.33348 0.87322 -0.39000
O 	O 	0.66818 0.34225 0.96917 -0.35000
O 	O 	0.58641 0.45345 0.90153 -0.36500
O 	O 	0.60028 0.42348 0.94852 -0.36000
O 	O 	0.74414 0.31899 0.93071 -0.36700
O 	O 	0.64243 0.35898 0.90947 -0.71900
H 	H 	0.59890 0.32856 0.91749 0.16900
C 	C 	0.69634 0.43870 0.54126 0.30900
C 	C 	0.84241 0.47046 0.64955 0.32400
C 	C 	0.86732 0.56386 0.56019 0.31400
C 	C 	0.66450 0.34814 0.63719 0.29700
C 	C 	0.89215 0.37307 0.58192 0.32400
C 	C 	0.71208 0.22300 0.56705 0.30900
Ni	Ni	0.76224 0.48057 0.60165 1.11400
Ni	Ni	0.77590 0.32882 0.61535 1.12400
Ni	Ni	0.79476 0.39262 0.55100 1.12400
O 	O 	0.72331 0.49192 0.56214 -0.35400
O 	O 	0.71224 0.38397 0.53681 -0.37800
O 	O 	0.84382 0.31481 0.59505 -0.36400
O 	O 	0.79955 0.49137 0.64326 -0.38000
O 	O 	0.85005 0.42251 0.63304 -0.39700
O 	O 	0.75919 0.27515 0.55047 -0.36300
O 	O 	0.85493 0.55019 0.58751 -0.38700
O 	O 	0.83521 0.50864 0.54134 -0.37400
O 	O 	0.70923 0.23423 0.59505 -0.37200
O 	O 	0.67427 0.40695 0.62016 -0.36100
O 	O 	0.71160 0.33304 0.64370 -0.37800
O 	O 	0.88235 0.41431 0.56253 -0.38400
O 	O 	0.76171 0.39072 0.58846 -0.71900
H 	H 	0.71550 0.35676 0.58509 0.16500
C 	C 	0.02938 0.98785 0.67547 0.30400
C 	C 	0.15941 0.11334 0.78760 0.31700
C 	C 	0.97408 0.96148 0.75714 0.29400
C 	C 	0.22661 0.17521 0.71312 0.29800
C 	C 	0.00095 0.19023 0.75834 0.33600
C 	C 	0.07167 0.25676 0.70232 0.29100
Ni	Ni	0.10522 0.03406 0.73163 1.11200
Ni	Ni	0.13041 0.20698 0.74661 1.11800
Ni	Ni	0.99823 0.08417 0.71467 1.11000
O 	O 	0.04612 0.96356 0.69871 -0.36800
O 	O 	0.00938 0.03946 0.67720 -0.37400
O 	O 	0.06240 0.22608 0.76516 -0.39000
O 	O 	0.16985 0.08140 0.76516 -0.38300
O 	O 	0.13228 0.15680 0.78464 -0.38300
O 	O 	0.02530 0.18705 0.69392 -0.37500
O 	O 	0.03277 0.97470 0.76121 -0.36400
O 	O 	0.95666 0.97534 0.73192 -0.37800
O 	O 	0.12717 0.26688 0.71225 -0.38500
O 	O 	0.18388 0.10271 0.70608 -0.37700
O 	O 	0.21583 0.21379 0.73416 -0.37100
O 	O 	0.97240 0.11740 0.75044 -0.42000
O 	O 	0.08304 0.11241 0.72587 -0.71300
H 	H 	0.10180 0.13129 0.70668 0.14900
C 	C 	0.42405 0.74711 0.37960 0.29600
C 	C 	0.23493 0.43656 0.41720 0.32000
C 	C 	0.23767 0.64332 0.37827 0.31600
C 	C 	0.41561 0.53780 0.42233 0.30700
C 	C 	0.23672 0.61858 0.47285 0.33000
C 	C 	0.41459 0.73100 0.47404 0.31000
Ni	Ni	0.32758 0.57899 0.38656 1.11300
Ni	Ni	0.32342 0.56500 0.45589 1.12400
Ni	Ni	0.32739 0.71352 0.42669 1.12500
O 	O 	0.41042 0.67560 0.37252 -0.36300
O 	O 	0.37897 0.76176 0.38973 -0.37100
O 	O 	0.23906 0.55961 0.46160 -0.39500
O 	O 	0.23927 0.48893 0.39885 -0.38700
O 	O 	0.27633 0.45626 0.43836 -0.37500
O 	O 	0.40605 0.76476 0.45107 -0.37700
O 	O 	0.28010 0.62962 0.36546 -0.37500
O 	O 	0.24273 0.66050 0.40566 -0.37600
O 	O 	0.37112 0.65923 0.48223 -0.36700
O 	O 	0.37516 0.51829 0.40015 -0.36500
O 	O 	0.40375 0.56036 0.44738 -0.37100
O 	O 	0.27552 0.68954 0.46353 -0.35500
O 	O 	0.34222 0.62767 0.42250 -0.71700
H 	H 	0.38939 0.65487 0.42313 0.16400
C 	C 	0.35750 0.54940 0.08037 0.31500
C 	C 	0.15403 0.57879 0.14537 0.32100
C 	C 	0.18625 0.43846 0.07992 0.31900
C 	C 	0.33448 0.70694 0.15351 0.29400
C 	C 	0.16810 0.63607 0.05236 0.33000
C 	C 	0.34475 0.77692 0.06223 0.30500
Ni	Ni	0.26086 0.55078 0.12544 1.11300
Ni	Ni	0.24406 0.69796 0.10586 1.12100
Ni	Ni	0.27039 0.60058 0.05859 1.12900
O 	O 	0.32262 0.51814 0.10417 -0.36400
O 	O 	0.35496 0.60574 0.06619 -0.36900
O 	O 	0.19673 0.69703 0.06936 -0.36500
O 	O 	0.19856 0.56280 0.15389 -0.37800
O 	O 	0.15922 0.61312 0.12071 -0.38500
O 	O 	0.31184 0.71443 0.04561 -0.34600
O 	O 	0.18099 0.46757 0.10423 -0.38300
O 	O 	0.23107 0.48231 0.06134 -0.37100
O 	O 	0.32389 0.78270 0.08804 -0.38500
O 	O 	0.33284 0.63966 0.14881 -0.36800
O 	O 	0.28546 0.71778 0.14610 -0.37700
O 	O 	0.18085 0.57945 0.05441 -0.38500
O 	O 	0.27451 0.62716 0.09791 -0.71600
H 	H 	0.32095 0.66225 0.10000 0.16500
C 	C 	0.95055 0.00892 0.19778 0.29000
C 	C 	0.82877 0.90741 0.31064 0.31800
C 	C 	0.02006 0.03131 0.27503 0.33200
C 	C 	0.74622 0.86334 0.24153 0.29900
C 	C 	0.93708 0.78584 0.28572 0.31200
C 	C 	0.87302 0.74207 0.21355 0.30400
Ni	Ni	0.88767 0.98303 0.25573 1.11300
Ni	Ni	0.82495 0.79659 0.26514 1.12200
Ni	Ni	0.96423 0.89392 0.23683 1.11700
O 	O 	0.90312 0.00962 0.21232 -0.37500
O 	O 	0.98983 0.98780 0.21023 -0.37800
O 	O 	0.88458 0.78705 0.29346 -0.39000
O 	O 	0.88234 0.96031 0.29926 -0.39400
O 	O 	0.79419 0.84034 0.29759 -0.38000
O 	O 	0.91456 0.81514 0.20659 -0.39600
O 	O 	0.98584 0.05418 0.26027 -0.39900
O 	O 	0.01464 0.96289 0.27029 -0.37700
O 	O 	0.83214 0.72414 0.23567 -0.37600
O 	O 	0.78741 0.93179 0.25309 -0.37300
O 	O 	0.75697 0.80322 0.24128 -0.37600
O 	O 	0.95952 0.80427 0.25941 -0.39800
O 	O 	0.88582 0.88988 0.24676 -0.72300
H 	H 	0.86572 0.88050 0.22764 0.16100
C 	C 	0.15403 0.35353 0.07726 -0.11000
C 	C 	0.08860 0.31212 0.06963 0.13400
C 	C 	0.04915 0.23824 0.08166 -0.07700
C 	C 	0.07491 0.20648 0.10105 0.00300
C 	C 	0.14215 0.24017 0.10315 0.06700
C 	C 	0.18136 0.31413 0.09139 -0.02100
N 	N 	0.06302 0.34450 0.05196 -0.20400
H 	H 	0.99779 0.20937 0.07826 0.05000
C 	C 	0.03343 0.15457 0.12419 -0.00500
N 	N 	0.16898 0.20378 0.11779 -0.19200
H 	H 	0.23210 0.34457 0.09630 0.04600
C 	C 	0.00749 0.07393 0.12145 -0.06900
C 	C 	0.97746 0.02432 0.14497 0.10100
C 	C 	0.97296 0.05638 0.17149 -0.09000
C 	C 	0.99460 0.13618 0.17352 -0.04700
C 	C 	0.02502 0.18580 0.15021 0.08700
H 	H 	0.01267 0.05001 0.10130 0.06200
N 	N 	0.95261 0.94632 0.14187 -0.19900
H 	H 	0.98984 0.16026 0.19372 0.04700
N 	N 	0.04691 0.26341 0.15310 -0.19600
H 	H 	0.95770 0.92330 0.12246 0.08900
H 	H 	0.92647 0.90771 0.15833 0.09500
H 	H 	0.04129 0.28584 0.17254 0.09100
H 	H 	0.06891 0.30217 0.13614 0.09700
H 	H 	0.21866 0.23059 0.12038 0.09200
H 	H 	0.14101 0.14752 0.12579 0.09500
H 	H 	0.09200 0.39807 0.04202 0.11400
H 	H 	0.01406 0.31508 0.04727 0.10500
C 	C 	0.68309 0.85089 0.23159 -0.10200
C 	C 	0.65043 0.88411 0.24629 0.12900
C 	C 	0.59495 0.87920 0.23417 -0.09800
C 	C 	0.56615 0.83202 0.21019 0.00200
C 	C 	0.59696 0.79551 0.19621 0.06900
C 	C 	0.65600 0.80705 0.20666 -0.02400
N 	N 	0.66923 0.91542 0.27288 -0.20400
H 	H 	0.57100 0.90655 0.24493 0.05900
C 	C 	0.50152 0.81643 0.20125 0.00400
N 	N 	0.57010 0.74914 0.17291 -0.19200
H 	H 	0.68074 0.78145 0.19541 0.05300
C 	C 	0.49560 0.85630 0.17751 -0.09600
C 	C 	0.43589 0.82943 0.16408 0.13100
C 	C 	0.38244 0.76053 0.17408 -0.10600
C 	C 	0.38600 0.73070 0.20095 -0.01900
C 	C 	0.44557 0.75625 0.21427 0.06100
H 	H 	0.53786 0.90583 0.16869 0.06900
N 	N 	0.43018 0.86959 0.14165 -0.20600
H 	H 	0.34358 0.68142 0.20981 0.04300
N 	N 	0.44895 0.72093 0.23882 -0.19200
H 	H 	0.47049 0.91817 0.13329 0.10500
H 	H 	0.38521 0.85585 0.13362 0.10500
H 	H 	0.40737 0.67622 0.24810 0.08500
H 	H 	0.49253 0.73753 0.24902 0.08800
H 	H 	0.59340 0.72284 0.16271 0.10300
H 	H 	0.52582 0.73811 0.16482 0.10500
H 	H 	0.69737 0.90089 0.28577 0.10500
H 	H 	0.64984 0.94750 0.28213 0.08700
C 	C 	0.09765 0.55864 0.16350 -0.11800
C 	C 	0.10269 0.60524 0.18749 0.12800
C 	C 	0.04888 0.61049 0.19632 -0.07900
C 	C 	0.99048 0.56939 0.18174 -0.01300
C 	C 	0.98303 0.51348 0.16096 0.04900
C 	C 	0.03685 0.50817 0.15216 0.00000
N 	N 	0.15930 0.64674 0.20154 -0.20600
H 	H 	0.05342 0.64996 0.21349 0.05900
C 	C 	0.94166 0.59405 0.18517 0.00700
N 	N 	0.92478 0.46569 0.14917 -0.19000
H 	H 	0.03235 0.46915 0.13483 0.04900
C 	C 	0.94145 0.64847 0.16584 -0.09900
C 	C 	0.90880 0.68905 0.17267 0.13300
C 	C 	0.88026 0.67890 0.20009 -0.10900
C 	C 	0.87172 0.61575 0.21717 -0.01900
C 	C 	0.90219 0.57293 0.20985 0.05500
H 	H 	0.96823 0.66088 0.14590 0.06400
N 	N 	0.90343 0.73573 0.15270 -0.20300
H 	H 	0.84484 0.60302 0.23707 0.04800
N 	N 	0.89364 0.51209 0.22657 -0.19300
H 	H 	0.92737 0.74628 0.13301 0.09300
H 	H 	0.87231 0.75793 0.15588 0.10100
H 	H 	0.86565 0.49798 0.24520 0.08300
H 	H 	0.91304 0.47688 0.22079 0.08500
H 	H 	0.92000 0.42622 0.13313 0.09100
H 	H 	0.88346 0.46552 0.15646 0.09500
H 	H 	0.19903 0.64050 0.19662 0.10600
H 	H 	0.16329 0.68361 0.21845 0.08800
C 	C 	0.48770 0.81194 0.37207 -0.09800
C 	C 	0.51456 0.81343 0.34489 0.13700
C 	C 	0.58125 0.84868 0.34199 -0.09300
C 	C 	0.62150 0.88911 0.36502 0.00600
C 	C 	0.59458 0.89972 0.39058 0.07300
C 	C 	0.52756 0.85958 0.39410 -0.02300
N 	N 	0.47643 0.78057 0.32165 -0.20200
H 	H 	0.60180 0.84289 0.32203 0.06000
C 	C 	0.69108 0.91646 0.36233 0.00000
N 	N 	0.63251 0.94664 0.41192 -0.19300
H 	H 	0.50683 0.86163 0.41459 0.05900
C 	C 	0.72813 0.98026 0.34450 -0.09400
C 	C 	0.78374 0.98808 0.33127 0.12800
C 	C 	0.79963 0.92818 0.33465 -0.11500
C 	C 	0.76997 0.87367 0.35672 -0.02000
C 	C 	0.71605 0.86793 0.37093 0.07100
H 	H 	0.71155 0.02104 0.33947 0.05500
N 	N 	0.82081 0.05213 0.31514 -0.20700
H 	H 	0.78546 0.83156 0.36118 0.04700
N 	N 	0.68787 0.81512 0.39235 -0.19200
H 	H 	0.80468 0.09109 0.30993 0.08300
H 	H 	0.86817 0.06809 0.31024 0.08100
H 	H 	0.70402 0.77614 0.39747 0.10400
H 	H 	0.65232 0.81548 0.40515 0.11900
H 	H 	0.61216 0.95319 0.43085 0.11700
H 	H 	0.68226 0.97845 0.40964 0.10400
H 	H 	0.42702 0.75935 0.32279 0.10000
H 	H 	0.49639 0.77945 0.30179 0.08700
C 	C 	0.05659 0.07688 0.30005 -0.12300
C 	C 	0.10912 0.15280 0.29678 0.13600
C 	C 	0.13641 0.19889 0.32124 -0.10000
C 	C 	0.11298 0.16982 0.34879 0.00600
C 	C 	0.06329 0.09217 0.35214 0.05500
C 	C 	0.03494 0.04683 0.32766 0.00100
N 	N 	0.13387 0.18146 0.27035 -0.20600
H 	H 	0.17536 0.25801 0.31881 0.05900
C 	C 	0.13706 0.22340 0.37359 0.00100
N 	N 	0.04267 0.06087 0.37870 -0.19000
H 	H 	0.99448 0.98889 0.33008 0.03500
C 	C 	0.10276 0.26011 0.38267 -0.09700
C 	C 	0.13125 0.32454 0.40105 0.13600
C 	C 	0.19576 0.35418 0.40943 -0.11400
C 	C 	0.22668 0.31106 0.40359 -0.01900
C 	C 	0.19774 0.24553 0.38571 0.06200
H 	H 	0.05480 0.24038 0.37455 0.06300
N 	N 	0.09685 0.35818 0.41039 -0.20500
H 	H 	0.27514 0.33168 0.41123 0.05400
N 	N 	0.22861 0.20483 0.37998 -0.19200
H 	H 	0.05012 0.33838 0.40310 0.09500
H 	H 	0.11531 0.40211 0.42584 0.10600
H 	H 	0.27436 0.22305 0.38825 0.09600
H 	H 	0.20671 0.15345 0.36810 0.09300
H 	H 	0.00494 0.00397 0.38094 0.09100
H 	H 	0.06494 0.09171 0.39733 0.09500
H 	H 	0.11733 0.14703 0.25195 0.10100
H 	H 	0.17158 0.23835 0.26808 0.08900
C 	C 	0.96209 0.74590 0.30412 -0.10000
C 	C 	0.99884 0.78265 0.32883 0.10700
C 	C 	0.04027 0.75784 0.34007 -0.06900
C 	C 	0.04380 0.69541 0.32761 -0.01000
C 	C 	0.00227 0.65377 0.30471 0.08400
C 	C 	0.96136 0.67911 0.29337 -0.04500
N 	N 	0.99454 0.84146 0.34184 -0.21100
H 	H 	0.07039 0.78779 0.35833 0.06100
C 	C 	0.09240 0.67560 0.33822 0.01000
N 	N 	0.00260 0.59085 0.29304 -0.18700
H 	H 	0.93157 0.64939 0.27503 0.04800
C 	C 	0.07615 0.62204 0.36077 -0.10000
C 	C 	0.12151 0.60376 0.37200 0.14200
C 	C 	0.18532 0.64324 0.36156 -0.11400
C 	C 	0.20060 0.69333 0.33789 -0.01800
C 	C 	0.15467 0.70989 0.32602 0.05800
H 	H 	0.02785 0.59392 0.36942 0.06900
N 	N 	0.10338 0.54746 0.39242 -0.20300
H 	H 	0.24914 0.72230 0.32950 0.04700
N 	N 	0.17081 0.75911 0.30317 -0.19100
H 	H 	0.05698 0.52084 0.40092 0.10400
H 	H 	0.13411 0.52712 0.39905 0.11200
H 	H 	0.21698 0.78449 0.29446 0.08600
H 	H 	0.13778 0.77213 0.29365 0.09200
H 	H 	0.97300 0.56177 0.27564 0.07500
H 	H 	0.03169 0.56975 0.30119 0.09100
H 	H 	0.95910 0.85500 0.33606 0.10100
H 	H 	0.02459 0.87154 0.35901 0.10200
C 	C 	0.63860 0.00636 0.55660 -0.08900
C 	C 	0.59600 0.99391 0.53408 0.04200
C 	C 	0.59125 0.05684 0.52247 0.05100
C 	C 	0.62990 0.13176 0.53325 -0.00100
C 	C 	0.67256 0.14427 0.55578 -0.08900
C 	C 	0.67698 0.08118 0.56751 0.12900
C 	C 	0.55429 0.91453 0.52354 0.02100
N 	N 	0.54616 0.04446 0.50016 -0.01400
H 	H 	0.62634 0.18014 0.52425 0.06300
N 	N 	0.72110 0.09314 0.59021 -0.02700
H 	H 	0.64211 0.95794 0.56559 0.08800
C 	C 	0.57385 0.88473 0.50052 0.06200
C 	C 	0.52824 0.81886 0.48588 -0.00600
C 	C 	0.46387 0.78124 0.49459 -0.08400
C 	C 	0.44634 0.80568 0.51983 0.12500
C 	C 	0.49170 0.87213 0.53419 -0.07000
N 	N 	0.63982 0.92113 0.49195 -0.01800
H 	H 	0.54198 0.80038 0.46652 0.06600
N 	N 	0.38147 0.76665 0.52971 -0.02500
H 	H 	0.47719 0.89351 0.55257 0.08100
O 	O 	0.78242 0.13420 0.58560 -0.07700
O 	O 	0.70017 0.05742 0.61465 -0.10600
O 	O 	0.50054 0.06092 0.50457 -0.09200
O 	O 	0.55331 0.02189 0.47484 -0.09600
O 	O 	0.36715 0.72781 0.55369 -0.08500
O 	O 	0.33936 0.78046 0.51741 -0.08100
O 	O 	0.66833 0.87983 0.48961 -0.09800
O 	O 	0.66955 0.99359 0.48393 -0.09600
C 	C 	0.05128 0.40352 0.56524 -0.05000
C 	C 	0.08463 0.48339 0.57115 0.01600
C 	C 	0.06029 0.51309 0.59220 0.07500
C 	C 	0.99673 0.46772 0.60140 -0.03800
C 	C 	0.95806 0.39434 0.58919 -0.08600
C 	C 	0.98766 0.35850 0.57437 0.08800
C 	C 	0.12935 0.53608 0.54930 0.03100
N 	N 	0.09788 0.59145 0.60215 -0.02000
H 	H 	0.97540 0.49307 0.61514 0.06600
N 	N 	0.95154 0.27854 0.56624 -0.02200
H 	H 	0.07207 0.37861 0.55093 0.07900
C 	C 	0.19358 0.55303 0.54877 0.05900
C 	C 	0.23146 0.58928 0.52463 0.00300
C 	C 	0.20541 0.60764 0.50080 -0.09000
C 	C 	0.14304 0.59706 0.50244 0.12200
C 	C 	0.10513 0.56074 0.52659 -0.07800
N 	N 	0.21967 0.53045 0.57213 -0.01400
H 	H 	0.27952 0.59738 0.52345 0.06500
N 	N 	0.11660 0.61842 0.47879 -0.02600
H 	H 	0.05556 0.54732 0.52693 0.07700
O 	O 	0.95064 0.25840 0.53957 -0.10100
O 	O 	0.92222 0.22545 0.58576 -0.09100
O 	O 	0.07182 0.63532 0.60518 -0.11300
O 	O 	0.15745 0.61788 0.60936 -0.08900
O 	O 	0.06115 0.56848 0.46828 -0.10500
O 	O 	0.14671 0.68878 0.46855 -0.09000
O 	O 	0.20134 0.45741 0.57642 -0.10300
O 	O 	0.26613 0.58321 0.58735 -0.07700
C 	C 	0.57719 0.48256 0.50369 -0.07100
C 	C 	0.58850 0.47261 0.47479 0.02600
C 	C 	0.63523 0.45189 0.46781 0.05800
C 	C 	0.67031 0.44147 0.48970 -0.00200
C 	C 	0.65895 0.45099 0.51869 -0.08500
C 	C 	0.61152 0.47083 0.52570 0.11900
C 	C 	0.55211 0.48582 0.45199 0.02800
N 	N 	0.64692 0.44084 0.43848 -0.01500
H 	H 	0.70698 0.42673 0.48413 0.06100
N 	N 	0.59660 0.47665 0.55508 -0.02400
H 	H 	0.54087 0.49805 0.50908 0.08100
C 	C 	0.49353 0.42450 0.44202 0.05700
C 	C 	0.45199 0.44126 0.42619 -0.00300
C 	C 	0.46745 0.51874 0.42157 -0.08800
C 	C 	0.53038 0.57839 0.42711 0.11500
C 	C 	0.57227 0.56169 0.44261 -0.07200
N 	N 	0.47493 0.34564 0.44892 -0.01500
H 	H 	0.40474 0.39460 0.42058 0.05700
N 	N 	0.54868 0.65742 0.42059 -0.02700
H 	H 	0.61898 0.60845 0.44884 0.07800
O 	O 	0.57519 0.41630 0.57189 -0.09600
O 	O 	0.59939 0.54030 0.56435 -0.10100
O 	O 	0.66972 0.49909 0.42063 -0.10300
O 	O 	0.63918 0.37396 0.43016 -0.08900
O 	O 	0.57562 0.71068 0.44017 -0.11500
O 	O 	0.53652 0.67575 0.39541 -0.11100
O 	O 	0.46080 0.32111 0.47530 -0.09300
O 	O 	0.46677 0.29678 0.42850 -0.09000
C 	C 	0.06231 0.32503 0.69885 -0.10400
C 	C 	0.03574 0.33610 0.67336 0.13800
C 	C 	0.00867 0.38505 0.67370 -0.07700
C 	C 	0.01116 0.42668 0.69854 0.01500
C 	C 	0.04354 0.42163 0.72317 0.06300
C 	C 	0.06979 0.37168 0.72289 -0.02200
N 	N 	0.03767 0.30171 0.64838 -0.20200
H 	H 	0.98452 0.38964 0.65475 0.05600
C 	C 	0.97471 0.46952 0.69911 -0.01300
N 	N 	0.04908 0.46378 0.74714 -0.19100
H 	H 	0.09322 0.36627 0.74197 0.04700
C 	C 	0.91218 0.43222 0.71020 -0.09600
C 	C 	0.86634 0.44985 0.69904 0.12700
C 	C 	0.88276 0.50008 0.67518 -0.12100
C 	C 	0.94795 0.55293 0.67066 -0.01800
C 	C 	0.99460 0.53676 0.68204 0.05500
H 	H 	0.89784 0.38509 0.72535 0.05500
N 	N 	0.80527 0.41236 0.70911 -0.20600
H 	H 	0.96171 0.59879 0.65483 0.04500
N 	N 	0.05760 0.58432 0.67604 -0.18400
H 	H 	0.79237 0.37239 0.72597 0.08800
H 	H 	0.77072 0.42460 0.70078 0.09800
H 	H 	0.07212 0.63422 0.66356 0.11100
H 	H 	0.09280 0.57386 0.68478 0.10200
H 	H 	0.07030 0.45687 0.76570 0.09200
H 	H 	0.03362 0.50482 0.74742 0.09300
H 	H 	0.06387 0.27246 0.64669 0.11300
H 	H 	0.01583 0.30775 0.62988 0.11500
C 	C 	0.60646 0.31367 0.65512 -0.10000
C 	C 	0.59401 0.36059 0.67413 0.13400
C 	C 	0.53181 0.33306 0.68479 -0.09400
C 	C 	0.48290 0.25800 0.67816 0.00300
C 	C 	0.49708 0.20803 0.66171 0.06600
C 	C 	0.55876 0.23688 0.64998 -0.02300
N 	N 	0.64161 0.43182 0.68227 -0.20400
H 	H 	0.52130 0.37033 0.69818 0.06200
C 	C 	0.41647 0.23421 0.68719 0.00400
N 	N 	0.45197 0.13266 0.65717 -0.19200
H 	H 	0.56896 0.20028 0.63606 0.05000
C 	C 	0.37327 0.23385 0.66675 -0.09500
C 	C 	0.31166 0.21837 0.67496 0.13100
C 	C 	0.29333 0.20351 0.70420 -0.10300
C 	C 	0.33706 0.20570 0.72470 -0.02100
C 	C 	0.39785 0.21876 0.71640 0.06000
H 	H 	0.38797 0.24659 0.64444 0.06800
N 	N 	0.27092 0.21927 0.65481 -0.20300
H 	H 	0.32255 0.19346 0.74706 0.05100
N 	N 	0.43742 0.21450 0.73640 -0.19200
H 	H 	0.28433 0.22856 0.63316 0.09700
H 	H 	0.22629 0.21261 0.66046 0.09700
H 	H 	0.42395 0.20517 0.75805 0.08300
H 	H 	0.48080 0.21780 0.73062 0.08800
H 	H 	0.46232 0.09684 0.64434 0.09500
H 	H 	0.40702 0.10822 0.66702 0.09400
H 	H 	0.68926 0.45141 0.67653 0.10000
H 	H 	0.63159 0.46724 0.69551 0.09000
C 	C 	0.90475 0.64509 0.55083 -0.09800
C 	C 	0.97165 0.68397 0.55484 0.09900
C 	C 	0.00176 0.75830 0.56732 -0.04600
C 	C 	0.96529 0.79380 0.57453 -0.02200
C 	C 	0.90348 0.76410 0.56251 0.07500
C 	C 	0.87362 0.68944 0.55029 -0.03500
N 	N 	0.00612 0.64834 0.54836 -0.18100
H 	H 	0.05132 0.78443 0.57412 0.06300
C 	C 	0.98290 0.84347 0.60051 -0.01200
N 	N 	0.87151 0.80480 0.56422 -0.19400
H 	H 	0.82356 0.66224 0.54417 0.05500
C 	C 	0.02397 0.92386 0.59791 -0.07100
C 	C 	0.04070 0.97241 0.62219 0.12600
C 	C 	0.01393 0.93976 0.64932 -0.07900
C 	C 	0.97278 0.85948 0.65180 -0.04700
C 	C 	0.95827 0.81069 0.62790 0.07300
H 	H 	0.04338 0.94865 0.57701 0.06400
N 	N 	0.08342 0.04950 0.61940 -0.20300
H 	H 	0.95251 0.83461 0.67260 0.05400
N 	N 	0.92140 0.73245 0.63145 -0.19500
H 	H 	0.10194 0.07321 0.59921 0.09600
H 	H 	0.10000 0.08621 0.63720 0.09700
H 	H 	0.90246 0.70915 0.65164 0.08800
H 	H 	0.91270 0.69381 0.61461 0.09800
H 	H 	0.82473 0.78117 0.55644 0.09800
H 	H 	0.89369 0.86124 0.57243 0.09700
H 	H 	0.98388 0.59274 0.53941 0.09400
H 	H 	0.05580 0.67717 0.55117 0.11200
C 	C 	0.08039 0.57315 0.98311 -0.07700
C 	C 	0.02140 0.56561 0.99125 0.04400
C 	C 	0.01686 0.60081 0.01689 0.06300
C 	C 	0.06941 0.63475 0.03567 0.00100
C 	C 	0.12609 0.63379 0.02896 -0.09100
C 	C 	0.13299 0.60825 0.00152 0.12700
C 	C 	0.96353 0.51426 0.97444 0.01200
N 	N 	0.95851 0.60013 0.02427 -0.02200
H 	H 	0.06455 0.65684 0.05629 0.06500
N 	N 	0.19173 0.61094 0.99350 -0.03100
H 	H 	0.08465 0.54838 0.96299 0.09000
C 	C 	0.95813 0.53124 0.94548 0.04400
C 	C 	0.90369 0.48079 0.92974 0.00100
C 	C 	0.85210 0.41730 0.94326 -0.09600
C 	C 	0.86036 0.39602 0.97118 0.12000
C 	C 	0.91588 0.44478 0.98669 -0.06900
N 	N 	0.00625 0.60159 0.93245 -0.01000
H 	H 	0.89842 0.49596 0.90789 0.05500
N 	N 	0.81138 0.32656 0.98425 -0.02400
H 	H 	0.92159 0.42910 0.00839 0.07500
O 	O 	0.19241 0.54704 0.98754 -0.10300
O 	O 	0.24357 0.67749 0.99031 -0.07500
O 	O 	0.93351 0.57737 0.04969 -0.10800
O 	O 	0.93188 0.62548 0.00603 -0.09300
O 	O 	0.79904 0.25913 0.97432 -0.09400
O 	O 	0.78294 0.33060 0.00749 -0.08900
O 	O 	0.03302 0.59888 0.90846 -0.10000
O 	O 	0.01950 0.66850 0.94327 -0.08300
C 	C 	0.43028 0.96117 0.01840 -0.06400
C 	C 	0.48837 0.00058 0.03333 0.01400
C 	C 	0.50103 0.96332 0.05624 0.07300
C 	C 	0.45589 0.88669 0.06354 -0.01000
C 	C 	0.39660 0.84836 0.04940 -0.07800
C 	C 	0.38379 0.88613 0.02666 0.12100
C 	C 	0.53684 0.07932 0.02374 0.03000
N 	N 	0.55885 0.00372 0.07260 -0.02000
H 	H 	0.46562 0.85829 0.08124 0.06100
N 	N 	0.32270 0.85000 0.01269 -0.02100
H 	H 	0.42058 0.98961 0.00070 0.08000
C 	C 	0.59146 0.09065 0.00835 0.06200
C 	C 	0.62824 0.16021 0.99339 -0.00100
C 	C 	0.60888 0.21663 0.99221 -0.07500
C 	C 	0.56000 0.21014 0.01080 0.11700
C 	C 	0.52385 0.14105 0.02640 -0.07300
N 	N 	0.60730 0.02978 0.00631 -0.01700
H 	H 	0.66767 0.16658 0.98006 0.07500
N 	N 	0.54627 0.27283 0.01355 -0.02400
H 	H 	0.48407 0.13411 0.03961 0.08000
O 	O 	0.31988 0.84496 0.98481 -0.07800
O 	O 	0.27133 0.83418 0.02727 -0.08100
O 	O 	0.57345 0.06967 0.08471 -0.10000
O 	O 	0.59384 0.97132 0.07750 -0.08300
O 	O 	0.59283 0.34359 0.01694 -0.08700
O 	O 	0.48726 0.25818 0.01597 -0.09300
O 	O 	0.56958 0.96618 0.99257 -0.08200
O 	O 	0.66264 0.04140 0.01540 -0.07900
C 	C 	0.43196 0.38098 0.97715 -0.06800
C 	C 	0.44458 0.45570 0.98509 0.03100
C 	C 	0.48111 0.51894 0.96647 0.05500
C 	C 	0.51395 0.50907 0.94328 -0.00100
C 	C 	0.50849 0.43620 0.93814 -0.08800
C 	C 	0.46012 0.37079 0.95236 0.12300
C 	C 	0.42403 0.46842 0.01374 0.02600
N 	N 	0.48584 0.59317 0.97138 -0.01600
H 	H 	0.54756 0.55909 0.93086 0.05800
N 	N 	0.44158 0.29417 0.94217 -0.02500
H 	H 	0.40153 0.33133 0.99049 0.09400
C 	C 	0.35939 0.42574 0.02243 0.05800
C 	C 	0.34106 0.44096 0.04910 -0.00800
C 	C 	0.38371 0.50635 0.06496 -0.08700
C 	C 	0.44936 0.54402 0.05788 0.12200
C 	C 	0.46943 0.52350 0.03259 -0.06700
N 	N 	0.31141 0.37168 0.00333 -0.01800
H 	H 	0.29142 0.40835 0.05546 0.06700
N 	N 	0.49524 0.60549 0.07561 -0.02400
H 	H 	0.51991 0.55251 0.02704 0.08700
O 	O 	0.42623 0.23741 0.96025 -0.09700
O 	O 	0.43665 0.28034 0.91473 -0.11300
O 	O 	0.54158 0.65587 0.97109 -0.09200
O 	O 	0.43422 0.59842 0.97490 -0.08200
O 	O 	0.49191 0.59833 0.10345 -0.10100
O 	O 	0.54114 0.66798 0.06391 -0.08600
O 	O 	0.27342 0.30069 0.01173 -0.09900
O 	O 	0.30130 0.39552 0.97882 -0.08600
C 	C 	0.73485 0.31990 0.82281 -0.11600
C 	C 	0.72713 0.24463 0.81926 0.13000
C 	C 	0.77580 0.23583 0.80617 -0.09800
C 	C 	0.83118 0.30041 0.79580 0.00400
C 	C 	0.83535 0.37448 0.79595 0.05500
C 	C 	0.78634 0.38321 0.80915 -0.01700
N 	N 	0.67384 0.18090 0.82912 -0.20900
H 	H 	0.77116 0.17851 0.80459 0.06100
C 	C 	0.88335 0.28862 0.78417 -0.00200
N 	N 	0.88698 0.43757 0.78449 -0.19200
H 	H 	0.79129 0.44061 0.81103 0.04300
C 	C 	0.87552 0.25575 0.75687 -0.09800
C 	C 	0.91344 0.22389 0.74776 0.12700
C 	C 	0.96124 0.22589 0.76647 -0.12400
C 	C 	0.97202 0.26389 0.79304 -0.03800
C 	C 	0.93357 0.29539 0.80208 0.06500
H 	H 	0.83702 0.25081 0.74321 0.05500
N 	N 	0.90380 0.19209 0.72107 -0.20200
H 	H 	0.00956 0.26755 0.80704 0.06600
N 	N 	0.94471 0.33131 0.82804 -0.19400
H 	H 	0.87376 0.19901 0.70652 0.09000
H 	H 	0.92216 0.15635 0.71503 0.07600
H 	H 	0.98100 0.33462 0.84140 0.08800
H 	H 	0.91855 0.35770 0.83495 0.09500
H 	H 	0.88919 0.49173 0.78433 0.08400
H 	H 	0.92556 0.43374 0.77587 0.08400
H 	H 	0.63552 0.18521 0.83758 0.09700
H 	H 	0.66945 0.12574 0.82747 0.09100
C 	C 	0.47314 0.15884 0.86956 -0.10000
C 	C 	0.45335 0.14543 0.84049 0.13000
C 	C 	0.38859 0.11742 0.83382 -0.09100
C 	C 	0.34425 0.10481 0.85568 -0.00200
C 	C 	0.36174 0.10344 0.88461 0.07800
C 	C 	0.42627 0.12816 0.89119 -0.02000
N 	N 	0.49691 0.16473 0.81894 -0.20400
H 	H 	0.37395 0.11280 0.81153 0.05700
C 	C 	0.28564 0.10859 0.84834 0.01000
N 	N 	0.31770 0.08152 0.90609 -0.19100
H 	H 	0.44094 0.13276 0.91347 0.06200
C 	C 	0.22895 0.03955 0.84238 -0.10500
C 	C 	0.17980 0.04135 0.82655 0.13400
C 	C 	0.18964 0.11262 0.81503 -0.11300
C 	C 	0.24134 0.18211 0.82488 -0.01600
C 	C 	0.28961 0.18083 0.84160 0.06500
H 	H 	0.22426 0.98430 0.84892 0.07000
N 	N 	0.12372 0.97467 0.82211 -0.20400
H 	H 	0.24701 0.23720 0.81747 0.04500
N 	N 	0.34062 0.24885 0.85021 -0.19200
H 	H 	0.11754 0.92148 0.82956 0.09600
H 	H 	0.08477 0.97580 0.81256 0.10700
H 	H 	0.34425 0.30198 0.84439 0.09500
H 	H 	0.37624 0.24964 0.86331 0.11000
H 	H 	0.33147 0.08345 0.92751 0.11100
H 	H 	0.26924 0.06061 0.90169 0.10100
H 	H 	0.54549 0.18729 0.82331 0.10100
H 	H 	0.48228 0.15662 0.79747 0.08600
C 	C 	0.77147 0.63217 0.88612 -0.11100
C 	C 	0.74223 0.67760 0.87959 0.13400
C 	C 	0.77304 0.74089 0.86069 -0.09800
C 	C 	0.83254 0.75971 0.84863 0.00300
C 	C 	0.86548 0.72095 0.85827 0.06400
C 	C 	0.83463 0.65775 0.87719 -0.01600
N 	N 	0.68422 0.65983 0.89089 -0.20700
H 	H 	0.74940 0.77338 0.85439 0.06300
C 	C 	0.85739 0.81525 0.82434 0.00300
N 	N 	0.92593 0.74293 0.84900 -0.19200
H 	H 	0.85807 0.62482 0.88326 0.05200
C 	C 	0.89907 0.89389 0.83005 -0.09900
C 	C 	0.93352 0.94536 0.80770 0.13200
C 	C 	0.92539 0.91741 0.77912 -0.10700
C 	C 	0.87819 0.84092 0.77311 -0.02200
C 	C 	0.84427 0.78912 0.79552 0.06100
H 	H 	0.90702 0.91433 0.85208 0.06400
N 	N 	0.97498 0.02116 0.81381 -0.20800
H 	H 	0.87068 0.82022 0.75112 0.04700
N 	N 	0.80025 0.71431 0.78927 -0.19200
H 	H 	0.98229 0.04080 0.83505 0.09100
H 	H 	0.99923 0.06158 0.79757 0.10300
H 	H 	0.79199 0.69515 0.76797 0.08500
H 	H 	0.77300 0.67489 0.80534 0.09000
H 	H 	0.94921 0.71271 0.85571 0.09200
H 	H 	0.95091 0.79099 0.83557 0.08900
H 	H 	0.66244 0.61714 0.90666 0.11500
H 	H 	0.66153 0.69128 0.88484 0.09800
