data_crystal

_cell_length_a 49.16519
_cell_length_b 48.63242
_cell_length_c 20.39305
_cell_angle_alpha 94.73100
_cell_angle_beta  85.99496
_cell_angle_gamma 90.12071

_symmetry_space_group_name_	'P 1'
_symmetry_space_group_name_H-M	'P 1'

loop_
_symmetry_equiv_pos_as_xyz
  x,y,z

loop_
_atom_site_label
_atom_site_type_symbol
_atom_site_fract_x
_atom_site_fract_y
_atom_site_fract_z
_atom_site_charge
C 	C 	0.87109 0.01977 0.79312 0.29800
O 	O 	0.85847 0.02370 0.74044 -0.31100
O 	O 	0.88176 0.99541 0.79437 -0.53700
C 	C 	0.85327 0.07532 0.44322 0.29200
O 	O 	0.84436 0.06846 0.50142 -0.36300
Cd	Cd	0.00140 0.08079 0.26179 1.24000
Cd	Cd	0.98590 0.05072 0.41379 1.17400
O 	O 	0.03472 0.11845 0.26226 -0.32300
O 	O 	0.01604 0.10342 0.17201 -0.35900
C 	C 	0.03131 0.12197 0.20098 0.29200
O 	O 	0.97709 0.04302 0.23294 -0.38400
O 	O 	0.95636 0.04144 0.33657 -0.43100
C 	C 	0.96339 0.02928 0.27783 0.27800
C 	C 	0.03848 0.04255 0.30511 0.29800
O 	O 	0.98040 0.09501 0.38273 -0.44900
O 	O 	0.04477 0.04722 0.24366 -0.29600
O 	O 	0.02004 0.05875 0.33595 -0.53700
C 	C 	0.95929 0.10447 0.35607 0.29500
O 	O 	0.96194 0.10535 0.29219 -0.36400
Cd	Cd	0.94288 0.15034 0.96936 1.23700
Cd	Cd	0.92978 0.11943 0.81030 1.16400
O 	O 	0.96707 0.11116 0.96087 -0.39300
O 	O 	0.96883 0.10568 0.84818 -0.45300
C 	C 	0.97040 0.09514 0.90530 0.26100
C 	C 	0.89712 0.11509 0.95432 0.28400
O 	O 	0.94436 0.16324 0.84561 -0.45800
O 	O 	0.90201 0.11960 0.01654 -0.29200
O 	O 	0.91071 0.13034 0.91453 -0.54300
C 	C 	0.96938 0.17136 0.85258 0.29600
O 	O 	0.97756 0.17191 0.91212 -0.37700
Cd	Cd	0.09032 0.09263 0.65059 1.23800
Cd	Cd	0.04821 0.09569 0.80116 1.17600
O 	O 	0.13653 0.11122 0.65745 -0.32700
O 	O 	0.12460 0.08766 0.56818 -0.35900
C 	C 	0.14428 0.09930 0.59997 0.29200
O 	O 	0.05342 0.06790 0.62474 -0.39300
O 	O 	0.02561 0.08879 0.70928 -0.42900
C 	C 	0.03052 0.06852 0.66306 0.27600
C 	C 	0.09787 0.05265 0.74254 0.30100
O 	O 	0.07020 0.12916 0.74246 -0.45500
O 	O 	0.11067 0.04568 0.68540 -0.31000
O 	O 	0.08742 0.07731 0.74941 -0.53300
C 	C 	0.05998 0.14230 0.69667 0.29000
O 	O 	0.06717 0.13308 0.63594 -0.35900
Cd	Cd	0.03680 0.92476 0.56364 1.23700
O 	O 	0.08174 0.90898 0.59094 -0.33200
O 	O 	0.05790 0.93909 0.65627 -0.49300
C 	C 	0.08135 0.92684 0.64193 0.30700
O 	O 	0.99851 0.94917 0.55742 -0.39700
C 	C 	0.98060 0.94420 0.51229 0.28500
C 	C 	0.05849 0.95482 0.45782 0.30800
O 	O 	0.06365 0.96705 0.51489 -0.31000
O 	O 	0.04815 0.93034 0.45996 -0.54400
C 	C 	0.32779 0.04313 0.78392 0.12700
N 	N 	0.35472 0.03936 0.76577 -0.14500
C 	C 	0.37266 0.03614 0.81244 0.12600
N 	N 	0.36337 0.03510 0.87650 -0.14600
C 	C 	0.33635 0.03791 0.89431 0.12800
N 	N 	0.31870 0.04274 0.84825 -0.14300
C 	C 	0.27097 0.00517 0.47418 0.12900
N 	N 	0.29538 0.00394 0.50102 -0.14300
C 	C 	0.31884 0.00714 0.46330 0.12800
N 	N 	0.31782 0.01191 0.39887 -0.14300
C 	C 	0.29347 0.01281 0.37162 0.12800
N 	N 	0.27000 0.00950 0.40938 -0.14200
C 	C 	0.32623 0.03528 0.96345 -0.05700
C 	C 	0.30573 0.01595 0.97981 0.09300
C 	C 	0.29620 0.01471 0.04603 -0.07700
C 	C 	0.30855 0.03036 0.09658 -0.00700
C 	C 	0.32959 0.04912 0.08043 0.07000
C 	C 	0.33772 0.05185 0.01387 -0.04400
N 	N 	0.29615 0.99761 0.93290 -0.19800
H 	H 	0.28023 0.00025 0.05860 0.05500
C 	C 	0.30145 0.02450 0.16597 -0.00400
N 	N 	0.34226 0.06431 0.12836 -0.19400
H 	H 	0.35343 0.06660 0.00133 0.05000
C 	C 	0.31163 0.00041 0.18878 -0.08600
C 	C 	0.30650 0.99476 0.25482 0.10200
C 	C 	0.29277 0.01460 0.29991 -0.05000
C 	C 	0.28124 0.03794 0.27654 -0.05300
C 	C 	0.28494 0.04280 0.20945 0.07000
H 	H 	0.32335 0.98588 0.15483 0.05500
N 	N 	0.31410 0.97000 0.27429 -0.19900
H 	H 	0.26999 0.05273 0.31082 0.05000
N 	N 	0.27291 0.06513 0.18739 -0.19400
H 	H 	0.32561 0.95607 0.24182 0.08500
H 	H 	0.30723 0.96367 0.32022 0.09000
H 	H 	0.26133 0.07888 0.22014 0.08600
H 	H 	0.27441 0.06873 0.13751 0.09100
H 	H 	0.35763 0.07821 0.11583 0.08500
H 	H 	0.33724 0.06237 0.17832 0.09000
H 	H 	0.30576 0.99477 0.88557 0.09300
H 	H 	0.27994 0.98457 0.94486 0.08300
C 	C 	0.15223 0.96902 0.64310 -0.01500
C 	C 	0.15258 0.99201 0.60578 -0.02400
C 	C 	0.17702 0.00057 0.57478 -0.04300
C 	C 	0.20136 0.98666 0.58236 0.01700
C 	C 	0.20144 0.96531 0.62450 -0.04500
C 	C 	0.17689 0.95647 0.65478 -0.02700
C 	C 	0.12703 0.95438 0.65334 0.05500
C 	C 	0.10590 0.94181 0.65358 -0.13900
C 	C 	0.22594 0.99342 0.54449 0.00500
C 	C 	0.24644 0.99898 0.51240 -0.03700
H 	H 	0.13365 0.00195 0.59675 0.05200
H 	H 	0.17688 0.01747 0.54332 0.05000
H 	H 	0.22030 0.95484 0.63173 0.04400
H 	H 	0.17688 0.93882 0.68391 0.03700
C 	C 	0.21890 0.06548 0.60726 -0.00400
C 	C 	0.21853 0.04678 0.65600 -0.02900
C 	C 	0.24275 0.03890 0.68094 -0.04000
C 	C 	0.26752 0.05056 0.65957 0.01600
C 	C 	0.26823 0.06824 0.60844 -0.04000
C 	C 	0.24391 0.07564 0.58213 -0.02900
C 	C 	0.19360 0.07796 0.59351 0.04300
C 	C 	0.17132 0.08797 0.59085 -0.09300
C 	C 	0.29076 0.04813 0.69799 0.00400
C 	C 	0.30855 0.04594 0.73506 -0.04300
H 	H 	0.19929 0.03928 0.67674 0.04500
H 	H 	0.24205 0.02502 0.71997 0.04400
H 	H 	0.28735 0.07718 0.59115 0.04300
H 	H 	0.24443 0.09024 0.54470 0.04100
C 	C 	0.98696 0.15554 0.73806 0.00100
C 	C 	0.98917 0.17317 0.79555 -0.10600
C 	C 	0.01337 0.18803 0.80369 -0.00500
C 	C 	0.03661 0.18119 0.76230 -0.02500
C 	C 	0.03565 0.15954 0.71273 -0.08100
C 	C 	0.01016 0.14919 0.69584 -0.03300
H 	H 	0.96799 0.14497 0.72910 -0.04100
H 	H 	0.01487 0.20299 0.84568 0.03600
H 	H 	0.05596 0.19052 0.77344 0.03500
H 	H 	0.00884 0.13390 0.65445 0.04000
C 	C 	0.02375 0.99808 0.34701 -0.04400
C 	C 	0.04489 0.01611 0.32992 -0.10100
C 	C 	0.07166 0.01012 0.34355 -0.01200
C 	C 	0.07680 0.98776 0.37987 0.00100
C 	C 	0.05522 0.97111 0.40176 -0.12700
C 	C 	0.02903 0.97532 0.38144 -0.02000
H 	H 	0.00304 0.00256 0.33696 -0.01900
H 	H 	0.08819 0.02369 0.32959 0.03900
H 	H 	0.09722 0.98445 0.39457 0.03300
H 	H 	0.01229 0.96235 0.39718 -0.04200
C 	C 	0.03172 0.14958 0.18125 -0.09600
H 	H 	0.43286 0.04274 0.48975 0.05500
C 	C 	0.40018 0.00035 0.51991 -0.00500
C 	C 	0.39013 0.98062 0.47368 -0.08500
C 	C 	0.36256 0.98058 0.46046 0.10200
C 	C 	0.34531 0.00208 0.48968 -0.05000
C 	C 	0.35478 0.02069 0.53914 -0.05200
C 	C 	0.38201 0.01961 0.55570 0.07100
N 	N 	0.35261 0.95961 0.42088 -0.19900
H 	H 	0.34115 0.03642 0.56368 0.05000
N 	N 	0.39051 0.03686 0.60600 -0.19400
H 	H 	0.36573 0.94465 0.39636 0.08400
H 	H 	0.33166 0.95699 0.41745 0.08900
H 	H 	0.37722 0.05160 0.63080 0.09000
H 	H 	0.41003 0.03519 0.62239 0.09000
C 	C 	0.50463 0.03821 0.79931 -0.08600
C 	C 	0.48867 0.02012 0.76115 -0.00600
H 	H 	0.49525 0.05614 0.82701 0.05300
C 	C 	0.45854 0.02280 0.76947 -0.00500
C 	C 	0.44600 0.04563 0.74620 -0.08800
C 	C 	0.41803 0.05081 0.76075 0.09700
C 	C 	0.40184 0.03117 0.79321 -0.05000
C 	C 	0.41415 0.00746 0.81270 -0.05400
C 	C 	0.44250 0.00381 0.80445 0.07000
H 	H 	0.45831 0.06016 0.71958 0.05300
N 	N 	0.40717 0.07501 0.74552 -0.20000
H 	H 	0.40175 0.99245 0.83751 0.04800
N 	N 	0.45421 0.98254 0.83178 -0.19400
H 	H 	0.41903 0.08873 0.71894 0.08200
H 	H 	0.38736 0.08104 0.76208 0.09100
H 	H 	0.44208 0.96799 0.85489 0.08200
H 	H 	0.47531 0.98091 0.83323 0.08900
H 	H 	0.53872 0.06788 0.86726 0.08300
C 	C 	0.90085 0.08523 0.47202 -0.01900
C 	C 	0.87881 0.09076 0.43472 -0.08800
C 	C 	0.88304 0.10671 0.38079 -0.02800
C 	C 	0.90945 0.11401 0.35928 -0.00800
C 	C 	0.93190 0.10486 0.39071 -0.09400
C 	C 	0.92736 0.09207 0.44982 -0.01100
H 	H 	0.89774 0.07363 0.51504 0.03700
H 	H 	0.91256 0.12519 0.31558 0.04200
H 	H 	0.94438 0.08585 0.47624 -0.02800
C 	C 	0.93457 0.00438 0.49310 -0.01600
C 	C 	0.95793 0.98930 0.50317 -0.02200
H 	H 	0.93658 0.02576 0.48227 -0.01100
H 	H 	0.97775 0.99907 0.49923 -0.01500
C 	C 	0.98966 0.00364 0.66103 -0.01400
C 	C 	0.96306 0.01437 0.66241 -0.07400
C 	C 	0.95937 0.04192 0.64920 -0.03600
C 	C 	0.98195 0.05931 0.64215 -0.03400
C 	C 	0.00840 0.04916 0.64748 -0.08600
C 	C 	0.01221 0.02090 0.65278 -0.03100
H 	H 	0.99284 0.98233 0.67050 0.01700
H 	H 	0.93900 0.05034 0.64881 0.01300
H 	H 	0.97878 0.08102 0.63672 0.00900
H 	H 	0.03252 0.01276 0.65616 0.01400
C 	C 	0.85780 0.06608 0.84709 -0.00800
C 	C 	0.87382 0.04211 0.84587 -0.12800
C 	C 	0.89395 0.04088 0.89117 0.00400
C 	C 	0.89959 0.06422 0.93282 -0.05000
C 	C 	0.88543 0.08898 0.92884 -0.10200
C 	C 	0.86374 0.08944 0.88797 -0.04400
H 	H 	0.84150 0.06702 0.81422 0.03500
H 	H 	0.90593 0.02236 0.89247 -0.08500
H 	H 	0.91607 0.06353 0.96521 0.02800
H 	H 	0.85244 0.10837 0.88521 0.02400
C 	C 	0.98218 0.02371 0.95981 -0.03100
C 	C 	0.00041 0.02527 0.84652 -0.02700
C 	C 	0.99368 0.05319 0.84883 -0.05200
C 	C 	0.98074 0.06660 0.90624 -0.09400
C 	C 	0.97552 0.05183 0.96227 -0.03100
H 	H 	0.01052 0.01533 0.80192 -0.01000
H 	H 	0.99817 0.06428 0.80556 -0.00800
H 	H 	0.96559 0.06186 0.00698 0.04600
C 	C 	0.09568 0.03353 0.79515 -0.12400
H 	H 	0.06172 0.05460 0.85097 -0.07700
C 	C 	0.97091 0.98070 0.23004 -0.01600
C 	C 	0.95318 0.00125 0.26083 -0.09400
H 	H 	0.99045 0.98631 0.20707 0.03800
Cd	Cd	0.91520 0.85676 0.23549 1.23900
Cd	Cd	0.88934 0.89502 0.38308 1.16600
O 	O 	0.89479 0.81191 0.20102 -0.32400
O 	O 	0.92757 0.83014 0.14114 -0.36300
C 	C 	0.91265 0.80852 0.15090 0.29200
O 	O 	0.93699 0.89694 0.23195 -0.39300
O 	O 	0.93000 0.90967 0.34242 -0.44100
C 	C 	0.93478 0.91630 0.28132 0.27000
C 	C 	0.86630 0.88809 0.23608 0.29300
O 	O 	0.90830 0.85116 0.36353 -0.45700
O 	O 	0.87589 0.88103 0.17553 -0.29800
O 	O 	0.87828 0.87680 0.28166 -0.54300
C 	C 	0.93403 0.84450 0.36115 0.29400
O 	O 	0.94673 0.84152 0.30268 -0.38000
Cd	Cd	0.03187 0.93000 0.94129 1.23900
Cd	Cd	0.03869 0.95339 0.77992 1.18700
O 	O 	0.06231 0.89301 0.96774 -0.33100
O 	O 	0.03232 0.91232 0.04129 -0.36500
C 	C 	0.04978 0.89233 0.02580 0.29900
O 	O 	0.00549 0.96786 0.94943 -0.39300
O 	O 	0.00010 0.96613 0.83883 -0.44800
C 	C 	0.00008 0.98029 0.89659 0.26000
C 	C 	0.07500 0.96639 0.90760 0.29500
O 	O 	0.02797 0.91067 0.81720 -0.44200
O 	O 	0.07204 0.96494 0.97149 -0.29900
O 	O 	0.06106 0.94867 0.87294 -0.53400
C 	C 	0.00376 0.90175 0.83529 0.29600
O 	O 	0.99733 0.90374 0.89865 -0.37200
C 	C 	0.00374 0.68150 0.95464 0.13200
N 	N 	0.99762 0.66033 0.99251 -0.14300
C 	C 	0.99132 0.63517 0.96364 0.11500
N 	N 	0.99137 0.63120 0.89692 -0.14200
C 	C 	0.99746 0.65233 0.85905 0.12700
N 	N 	0.00387 0.67744 0.88795 -0.14400
C 	C 	0.99646 0.62179 0.26116 0.12900
N 	N 	0.00340 0.59591 0.23549 -0.14400
C 	C 	0.01197 0.57712 0.27539 0.12700
N 	N 	0.01338 0.58420 0.34085 -0.14400
C 	C 	0.00635 0.61002 0.36659 0.12700
N 	N 	0.99767 0.62873 0.32675 -0.14200
Cd	Cd	0.87948 0.97476 0.69501 1.23900
Cd	Cd	0.92095 0.97971 0.83170 1.17300
O 	O 	0.83350 0.95636 0.71561 -0.33000
O 	O 	0.84582 0.97378 0.62231 -0.36000
C 	C 	0.82658 0.96267 0.65854 0.28600
O 	O 	0.91651 0.99794 0.65968 -0.38300
O 	O 	0.94418 0.98105 0.73332 -0.42900
C 	C 	0.93982 0.99838 0.68875 0.27700
O 	O 	0.89967 0.94269 0.77702 -0.45600
C 	C 	0.90999 0.92728 0.72599 0.29100
O 	O 	0.90283 0.93359 0.66869 -0.36900
Cd	Cd	0.82356 0.02646 0.47740 1.24000
Cd	Cd	0.86812 0.02458 0.33231 1.17700
O 	O 	0.77652 0.04235 0.46944 -0.32600
O 	O 	0.78918 0.02522 0.55879 -0.35400
C 	C 	0.76958 0.03542 0.52835 0.28900
O 	O 	0.86107 0.00473 0.50409 -0.37900
O 	O 	0.88970 0.02343 0.42588 -0.41900
C 	C 	0.88522 0.00581 0.47118 0.27000
C 	C 	0.81937 0.98177 0.37863 0.29900
O 	O 	0.84435 0.06025 0.39336 -0.45600
O 	O 	0.80585 0.97689 0.43382 -0.31000
O 	O 	0.82885 0.00668 0.37639 -0.53600
C 	C 	0.61316 0.98096 0.78999 0.12800
N 	N 	0.61054 0.97244 0.85184 -0.14400
C 	C 	0.58625 0.97496 0.88767 0.13100
N 	N 	0.56469 0.98641 0.86196 -0.14500
C 	C 	0.56722 0.99501 0.80026 0.12700
N 	N 	0.59148 0.99226 0.76406 -0.14200
C 	C 	0.56194 0.99323 0.47166 0.12900
N 	N 	0.53663 0.99767 0.50177 -0.14300
C 	C 	0.51436 0.99430 0.46595 0.12700
N 	N 	0.51748 0.98645 0.40041 -0.14400
C 	C 	0.54275 0.98177 0.37062 0.12800
N 	N 	0.56494 0.98539 0.40621 -0.14300
O 	O 	0.91607 0.19103 0.01537 -0.32200
O 	O 	0.94659 0.17251 0.07132 -0.35700
C 	C 	0.92988 0.19296 0.06761 0.29100
C 	C 	0.97210 0.39444 0.00299 0.13500
N 	N 	0.97159 0.38919 0.93672 -0.14800
C 	C 	0.97471 0.41004 0.89658 0.12600
N 	N 	0.97911 0.43609 0.92282 -0.14200
C 	C 	0.98045 0.44130 0.98903 0.11000
N 	N 	0.97657 0.42049 0.02927 -0.14100
C 	C 	0.02037 0.33605 0.31334 0.13000
N 	N 	0.02941 0.35907 0.28536 -0.14300
C 	C 	0.02709 0.38409 0.32035 0.12800
N 	N 	0.01536 0.38597 0.38287 -0.14400
C 	C 	0.00655 0.36298 0.41110 0.12700
N 	N 	0.00915 0.33798 0.37634 -0.14200
Cd	Cd	0.01673 0.90700 0.40084 1.16900
O 	O 	0.98181 0.92119 0.47307 -0.42700
O 	O 	0.02819 0.88082 0.48530 -0.45800
C 	C 	0.01123 0.87224 0.53118 0.29100
O 	O 	0.01086 0.88656 0.58835 -0.36400
C 	C 	0.99595 0.36504 0.48085 -0.04900
C 	C 	0.97553 0.38459 0.50440 0.10100
C 	C 	0.97091 0.39126 0.57255 -0.08600
C 	C 	0.98522 0.37762 0.61743 -0.00500
C 	C 	0.00329 0.35578 0.59405 0.07000
C 	C 	0.00881 0.34998 0.52578 -0.05500
N 	N 	0.95993 0.39651 0.46198 -0.19900
H 	H 	0.95626 0.40722 0.59070 0.05400
C 	C 	0.98209 0.38731 0.68841 -0.00400
N 	N 	0.01557 0.34055 0.63671 -0.19400
H 	H 	0.02386 0.33439 0.50769 0.05100
C 	C 	0.95872 0.37987 0.72616 -0.08800
C 	C 	0.95495 0.38882 0.79343 0.10100
C 	C 	0.97586 0.40400 0.82429 -0.05100
C 	C 	0.99895 0.41200 0.78619 -0.05100
C 	C 	0.00206 0.40424 0.71822 0.06700
H 	H 	0.94314 0.36751 0.70280 0.05400
N 	N 	0.93093 0.38365 0.82738 -0.19900
H 	H 	0.01473 0.42402 0.80966 0.04600
N 	N 	0.02416 0.41314 0.68199 -0.19400
H 	H 	0.91615 0.37135 0.80509 0.08400
H 	H 	0.92606 0.39299 0.87467 0.09200
H 	H 	0.03907 0.42510 0.70475 0.08200
H 	H 	0.02652 0.40885 0.63091 0.08800
H 	H 	0.02949 0.32501 0.61904 0.08400
H 	H 	0.01090 0.34344 0.68754 0.08900
H 	H 	0.96072 0.38971 0.41196 0.09300
H 	H 	0.94574 0.41184 0.47945 0.08400
C 	C 	0.96285 0.32682 0.10725 0.01400
C 	C 	0.98349 0.30682 0.09685 -0.03900
C 	C 	0.97743 0.27918 0.10482 -0.03000
C 	C 	0.95093 0.27150 0.12567 -0.00500
C 	C 	0.93116 0.29197 0.14384 -0.03000
C 	C 	0.93707 0.31960 0.13437 -0.04100
C 	C 	0.96610 0.35214 0.07568 0.00700
C 	C 	0.96886 0.37214 0.04468 -0.04300
C 	C 	0.94267 0.24324 0.11310 0.04300
C 	C 	0.93639 0.21989 0.09618 -0.09500
H 	H 	0.00363 0.31230 0.07709 0.04400
H 	H 	0.99281 0.26353 0.09004 0.04500
H 	H 	0.91066 0.28629 0.16056 0.04100
H 	H 	0.92107 0.33501 0.14361 0.04300
C 	C 	0.02748 0.20320 0.17268 -0.00400
C 	C 	0.05069 0.21986 0.16625 -0.03000
C 	C 	0.04913 0.24802 0.18717 -0.04300
C 	C 	0.02442 0.25950 0.21510 0.01500
C 	C 	0.00095 0.24318 0.21793 -0.04300
C 	C 	0.00234 0.21532 0.19515 -0.02900
C 	C 	0.03053 0.17380 0.17322 0.04600
C 	C 	0.02368 0.28702 0.24723 0.00400
C 	C 	0.02245 0.30963 0.27636 -0.03900
H 	H 	0.07023 0.21073 0.14878 0.04000
H 	H 	0.06737 0.26054 0.18447 0.04400
H 	H 	0.98177 0.25189 0.23946 0.04700
H 	H 	0.98423 0.20267 0.19967 0.05000
C 	C 	0.48688 0.99939 0.49756 -0.05000
C 	C 	0.47258 0.02384 0.48849 0.10100
C 	C 	0.44416 0.02483 0.50127 -0.08600
C 	C 	0.43007 0.00223 0.52542 -0.00500
C 	C 	0.44494 0.97944 0.54308 0.06700
C 	C 	0.47311 0.97772 0.52651 -0.05200
N 	N 	0.48596 0.04618 0.46652 -0.20000
N 	N 	0.43227 0.95921 0.57582 -0.19500
H 	H 	0.48418 0.95916 0.53447 0.04400
H 	H 	0.40385 0.96531 0.44775 0.05600
H 	H 	0.44318 0.94193 0.58670 0.08100
H 	H 	0.41186 0.96114 0.59362 0.08700
H 	H 	0.50721 0.04658 0.46007 0.09200
H 	H 	0.47515 0.06385 0.45775 0.08400
C 	C 	0.54372 0.00769 0.77357 -0.05100
C 	C 	0.53224 0.03236 0.80513 0.10100
C 	C 	0.50133 0.99783 0.72140 0.07200
C 	C 	0.52892 0.99188 0.72788 -0.05300
N 	N 	0.54753 0.05018 0.84192 -0.19900
N 	N 	0.48680 0.98128 0.67988 -0.19400
H 	H 	0.53821 0.97367 0.70121 0.04900
H 	H 	0.49587 0.96388 0.65375 0.08400
H 	H 	0.46653 0.98569 0.67261 0.09100
H 	H 	0.56849 0.04714 0.84367 0.09100
C 	C 	0.58393 0.96787 0.95658 -0.06200
C 	C 	0.56312 0.95004 0.97894 0.09500
C 	C 	0.55659 0.94946 0.04689 -0.07900
C 	C 	0.57110 0.96563 0.09250 -0.00500
C 	C 	0.59396 0.98094 0.07023 0.06600
C 	C 	0.60004 0.98206 0.00225 -0.03200
N 	N 	0.54963 0.93327 0.93552 -0.19900
H 	H 	0.53977 0.93687 0.06427 0.05400
C 	C 	0.56084 0.96822 0.16263 -0.00500
N 	N 	0.60986 0.99486 0.11374 -0.19300
H 	H 	0.61658 0.99500 0.98493 0.03900
C 	C 	0.56830 0.94827 0.20389 -0.08700
C 	C 	0.56070 0.95122 0.27173 0.10100
C 	C 	0.54626 0.97514 0.29883 -0.05100
C 	C 	0.53746 0.99426 0.25700 -0.05300
C 	C 	0.54440 0.99094 0.18892 0.07100
H 	H 	0.58018 0.93046 0.18319 0.05500
N 	N 	0.56680 0.93085 0.31023 -0.19900
H 	H 	0.52584 0.01224 0.27775 0.04900
N 	N 	0.53541 0.00966 0.14923 -0.19400
H 	H 	0.57837 0.91377 0.29033 0.08500
H 	H 	0.55915 0.93114 0.35935 0.09200
H 	H 	0.52381 0.02668 0.16934 0.08500
H 	H 	0.53931 0.00726 0.09810 0.09100
H 	H 	0.62621 0.00675 0.09684 0.08600
H 	H 	0.60661 0.99346 0.16449 0.09000
H 	H 	0.55572 0.93138 0.88526 0.09100
H 	H 	0.53355 0.92098 0.95223 0.08100
H 	H 	0.86604 0.11196 0.35305 0.03100
C 	C 	0.90659 0.96408 0.51010 -0.03600
C 	C 	0.90884 0.99160 0.49450 -0.06700
C 	C 	0.95583 0.96137 0.51509 -0.06900
C 	C 	0.92998 0.94901 0.52019 -0.01600
H 	H 	0.88692 0.95397 0.51146 0.00400
H 	H 	0.92810 0.92749 0.52975 0.02200
C 	C 	0.63404 0.00474 0.55581 0.01700
C 	C 	0.65374 0.98433 0.53674 -0.04200
C 	C 	0.68139 0.99046 0.53980 -0.02800
C 	C 	0.68951 0.01671 0.56433 -0.00300
C 	C 	0.66978 0.03640 0.58884 -0.03000
C 	C 	0.64205 0.03045 0.58439 -0.04100
C 	C 	0.60714 0.00135 0.53270 0.00600
C 	C 	0.58574 0.99792 0.50779 -0.04000
C 	C 	0.71781 0.02428 0.55683 0.04400
C 	C 	0.74157 0.02974 0.54658 -0.09300
H 	H 	0.64772 0.96429 0.51532 0.04300
H 	H 	0.69652 0.97507 0.52109 0.04200
H 	H 	0.67590 0.05667 0.60853 0.03900
H 	H 	0.62695 0.04631 0.59980 0.04400
C 	C 	0.74513 0.97502 0.65656 -0.00200
C 	C 	0.73488 0.99887 0.69324 -0.02700
C 	C 	0.70725 0.00079 0.71432 -0.04200
C 	C 	0.68969 0.97882 0.69918 0.01700
C 	C 	0.69971 0.95527 0.66089 -0.04300
C 	C 	0.72735 0.95346 0.63921 -0.03100
C 	C 	0.77413 0.97054 0.64885 0.05200
C 	C 	0.79836 0.96692 0.64889 -0.09500
C 	C 	0.66210 0.97949 0.72789 0.00400
C 	C 	0.63944 0.98017 0.75465 -0.04000
H 	H 	0.74849 0.01558 0.70715 0.04700
H 	H 	0.69962 0.01911 0.74365 0.04300
H 	H 	0.68624 0.93821 0.64885 0.04200
H 	H 	0.73512 0.93485 0.61133 0.03800
C 	C 	0.01723 0.54846 0.24926 -0.05300
C 	C 	0.04417 0.53876 0.23342 0.09800
C 	C 	0.04917 0.51024 0.22485 -0.08800
C 	C 	0.02788 0.49140 0.23426 -0.00500
C 	C 	0.00060 0.50119 0.24368 0.07000
C 	C 	0.99561 0.52971 0.25033 -0.05000
N 	N 	0.06525 0.55668 0.22643 -0.20000
H 	H 	0.06992 0.50269 0.21509 0.05300
C 	C 	0.03479 0.46291 0.24817 -0.00500
N 	N 	0.97926 0.48344 0.24850 -0.19300
H 	H 	0.97489 0.53731 0.26059 0.04600
C 	C 	0.04471 0.45854 0.30925 -0.08600
C 	C 	0.04688 0.43173 0.32882 0.10200
C 	C 	0.03615 0.40941 0.28990 -0.05100
C 	C 	0.02955 0.41335 0.22536 -0.05400
C 	C 	0.02993 0.43999 0.20318 0.07000
H 	H 	0.05047 0.47602 0.34182 0.05500
N 	N 	0.05974 0.42741 0.38397 -0.19900
H 	H 	0.02296 0.39601 0.19355 0.05300
N 	N 	0.02514 0.44347 0.13955 -0.19500
H 	H 	0.06639 0.44409 0.41436 0.08400
H 	H 	0.06473 0.40750 0.39483 0.09200
H 	H 	0.02128 0.42645 0.10684 0.09200
H 	H 	0.02638 0.46291 0.12132 0.09200
H 	H 	0.95930 0.49095 0.25633 0.08200
H 	H 	0.98209 0.46212 0.24389 0.09100
H 	H 	0.06196 0.57796 0.22896 0.08800
H 	H 	0.08520 0.54936 0.21629 0.08300
C 	C 	0.98658 0.61160 0.00388 -0.02600
C 	C 	0.96318 0.59500 0.99688 0.07700
C 	C 	0.96356 0.56773 0.01448 -0.06700
C 	C 	0.98648 0.55730 0.04166 -0.01200
C 	C 	0.00811 0.57535 0.05789 0.08100
C 	C 	0.00787 0.60248 0.03899 -0.06100
N 	N 	0.94040 0.60514 0.97319 -0.19500
H 	H 	0.94645 0.55427 0.00458 0.05300
C 	C 	0.98944 0.52695 0.04287 0.00600
N 	N 	0.02937 0.56658 0.09002 -0.19400
H 	H 	0.02517 0.61584 0.04764 0.05500
C 	C 	0.00924 0.51307 0.99952 -0.09500
C 	C 	0.00878 0.48425 0.98831 0.08800
C 	C 	0.98686 0.46936 0.01667 -0.03300
C 	C 	0.96879 0.48279 0.06518 -0.05700
C 	C 	0.97024 0.51151 0.07956 0.07000
H 	H 	0.02469 0.52478 0.97341 0.05400
N 	N 	0.02957 0.47094 0.95123 -0.19800
H 	H 	0.95292 0.47111 0.08990 0.05100
N 	N 	0.95313 0.52413 0.12805 -0.19400
H 	H 	0.04506 0.48212 0.92787 0.08100
H 	H 	0.03133 0.44947 0.94825 0.08700
H 	H 	0.93832 0.51277 0.15324 0.08200
H 	H 	0.95518 0.54503 0.14317 0.08900
H 	H 	0.04538 0.57993 0.10125 0.08700
H 	H 	0.02998 0.54662 0.10507 0.09200
H 	H 	0.93881 0.62596 0.96484 0.08800
H 	H 	0.92352 0.59246 0.96564 0.08100
C 	C 	0.99904 0.64744 0.78657 -0.04900
C 	C 	0.98084 0.66061 0.74811 0.09900
C 	C 	0.98322 0.65547 0.67913 -0.08500
C 	C 	0.00258 0.63662 0.64832 -0.00700
C 	C 	0.02073 0.62343 0.68677 0.07000
C 	C 	0.01878 0.62905 0.75558 -0.05400
N 	N 	0.96062 0.67751 0.77700 -0.19900
H 	H 	0.96938 0.66553 0.64946 0.05400
C 	C 	0.00291 0.63004 0.57600 -0.00600
N 	N 	0.03993 0.60529 0.65808 -0.19400
H 	H 	0.03269 0.61902 0.78516 0.04800
C 	C 	0.01998 0.64515 0.53438 -0.08600
C 	C 	0.02213 0.63839 0.46589 0.10000
C 	C 	0.00583 0.61691 0.43846 -0.05100
C 	C 	0.98851 0.60203 0.48007 -0.05200
C 	C 	0.98692 0.60830 0.54868 0.07100
H 	H 	0.03226 0.66170 0.55557 0.05400
N 	N 	0.04044 0.65197 0.42722 -0.19900
H 	H 	0.97609 0.58558 0.45894 0.04900
N 	N 	0.97008 0.59337 0.58789 -0.19400
H 	H 	0.05173 0.66835 0.44767 0.08400
H 	H 	0.04442 0.64581 0.37723 0.09200
H 	H 	0.95845 0.57730 0.56722 0.08300
H 	H 	0.96830 0.59750 0.63905 0.08900
H 	H 	0.05310 0.59553 0.68697 0.08200
H 	H 	0.04210 0.60076 0.60706 0.08800
H 	H 	0.95692 0.68015 0.82815 0.09200
H 	H 	0.94774 0.68762 0.74807 0.08500
C 	C 	0.99421 0.01020 0.90142 -0.10500
H 	H 	0.97745 0.01239 0.00271 0.04000
C 	C 	0.93381 0.89163 0.77981 -0.02400
C 	C 	0.93429 0.91053 0.73151 -0.08400
C 	C 	0.95948 0.91868 0.70274 -0.02900
C 	C 	0.98351 0.91287 0.73184 0.01000
C 	C 	0.98231 0.89818 0.78850 -0.09800
C 	C 	0.95785 0.88522 0.80784 -0.00300
H 	H 	0.91453 0.88402 0.80001 0.03300
H 	H 	0.96019 0.93188 0.66240 0.05100
H 	H 	0.00254 0.92174 0.71385 -0.03700
H 	H 	0.95700 0.87236 0.84886 0.03800
C 	C 	0.06996 0.01568 0.88829 -0.04700
C 	C 	0.08544 0.99129 0.87920 -0.09800
C 	C 	0.10758 0.98918 0.83203 -0.03300
C 	C 	0.11294 0.01036 0.79086 -0.00100
C 	C 	0.07484 0.03663 0.84593 0.00900
H 	H 	0.05311 0.01770 0.92555 0.03700
H 	H 	0.11983 0.97053 0.82508 0.03300
H 	H 	0.12986 0.00826 0.75384 0.03900
C 	C 	0.01940 0.75884 0.03610 0.00600
C 	C 	0.04556 0.76646 0.05384 -0.03900
C 	C 	0.05150 0.79426 0.07020 -0.03300
C 	C 	0.03122 0.81445 0.06924 -0.00700
C 	C 	0.00448 0.80639 0.05743 -0.03300
C 	C 	0.99872 0.77876 0.03953 -0.03500
C 	C 	0.01429 0.73116 0.00907 0.02200
C 	C 	0.00960 0.70832 0.98500 -0.05700
C 	C 	0.03894 0.84270 0.06276 0.04200
C 	C 	0.04450 0.86592 0.05024 -0.10300
H 	H 	0.06159 0.75111 0.05211 0.04200
H 	H 	0.07220 0.80024 0.07960 0.03900
H 	H 	0.98861 0.82180 0.05711 0.05000
H 	H 	0.97845 0.77304 0.02581 0.04800
C 	C 	0.92201 0.96580 0.29645 -0.03800
C 	C 	0.94030 0.94526 0.26923 -0.08000
C 	C 	0.96441 0.95272 0.23394 -0.02100
C 	C 	0.92795 0.99352 0.28994 -0.00200
H 	H 	0.90355 0.96033 0.32449 -0.01400
H 	H 	0.97866 0.93699 0.21236 0.02800
H 	H 	0.91390 0.00914 0.31214 -0.06600
C 	C 	0.85930 0.93877 0.24208 -0.04600
C 	C 	0.84893 0.91248 0.25275 -0.09900
C 	C 	0.82522 0.91012 0.29409 -0.04100
C 	C 	0.81404 0.93337 0.33091 -0.00800
C 	C 	0.82666 0.95920 0.32721 -0.12700
C 	C 	0.84818 0.96212 0.27922 0.00500
H 	H 	0.87722 0.94091 0.20888 0.03200
H 	H 	0.81660 0.88998 0.30135 0.02700
H 	H 	0.79648 0.93100 0.36512 0.03400
H 	H 	0.85714 0.98210 0.27272 -0.08200
C 	C 	0.97257 0.82722 0.41880 -0.01000
C 	C 	0.94874 0.84319 0.42112 -0.10600
C 	C 	0.94214 0.86160 0.47665 -0.00000
C 	C 	0.96143 0.86741 0.52310 -0.02200
C 	C 	0.98763 0.85574 0.51220 -0.08400
C 	C 	0.99189 0.83333 0.46478 -0.02900
H 	H 	0.97713 0.81170 0.37832 0.03500
H 	H 	0.92319 0.87316 0.48079 -0.02400
H 	H 	0.95723 0.88351 0.56247 0.04900
H 	H 	0.01147 0.82290 0.45859 0.03100
C 	C 	0.95004 0.73367 0.12574 -0.00500
C 	C 	0.93704 0.70857 0.10948 -0.02900
C 	C 	0.94867 0.68370 0.12419 -0.03900
C 	C 	0.97333 0.68395 0.15499 0.01900
C 	C 	0.98739 0.70879 0.16560 -0.03900
C 	C 	0.97557 0.73359 0.15222 -0.02900
C 	C 	0.93538 0.75936 0.12713 0.04200
C 	C 	0.92429 0.78160 0.13426 -0.09700
C 	C 	0.98132 0.66038 0.18754 0.00700
C 	C 	0.98820 0.64205 0.21919 -0.04100
H 	H 	0.91733 0.70840 0.08880 0.04100
H 	H 	0.93783 0.66451 0.11486 0.04500
H 	H 	0.00664 0.70912 0.18853 0.04200
H 	H 	0.98563 0.75289 0.16562 0.04100
