data_crystal

_cell_length_a 25.21596
_cell_length_b 21.37611
_cell_length_c 53.35165
_cell_angle_alpha 90.57377
_cell_angle_beta  91.23553
_cell_angle_gamma 110.74439

_symmetry_space_group_name_	'P 1'
_symmetry_space_group_name_H-M	'P 1'

loop_
_symmetry_equiv_pos_as_xyz
  x,y,z

loop_
_atom_site_label
_atom_site_type_symbol
_atom_site_fract_x
_atom_site_fract_y
_atom_site_fract_z
_atom_site_charge
Ni	Ni	0.71312 0.32312 0.88196 1.10300
O 	O 	0.63738 0.27777 0.86298 -0.70200
Ni	Ni	0.58335 0.29319 0.88683 1.10500
O 	O 	0.75574 0.29871 0.85347 -0.35100
O 	O 	0.70028 0.18775 0.85510 -0.39400
O 	O 	0.71414 0.40649 0.86300 -0.38400
Ni	Ni	0.61621 0.18205 0.85788 1.07200
O 	O 	0.75099 0.39522 0.93696 -0.39200
O 	O 	0.62191 0.16485 0.89522 -0.40500
O 	O 	0.51282 0.25513 0.86436 -0.36700
O 	O 	0.65732 0.32517 0.90777 -0.69900
O 	O 	0.78975 0.37592 0.90009 -0.36200
O 	O 	0.54091 0.33480 0.91038 -0.36200
O 	O 	0.61399 0.43438 0.90896 -0.39800
Ni	Ni	0.68356 0.41470 0.92296 1.08700
H 	H 	0.63553 0.29941 0.84682 0.16900
H 	H 	0.65685 0.29258 0.92088 0.16900
C 	C 	0.58137 0.16433 0.91024 0.29400
O 	O 	0.73614 0.47588 0.89747 -0.38200
C 	C 	0.73995 0.23726 0.84420 0.27800
C 	C 	0.50046 0.19576 0.85336 0.28300
C 	C 	0.73118 0.46689 0.87306 0.30700
C 	C 	0.56315 0.39869 0.91650 0.28300
C 	C 	0.79548 0.40155 0.92324 0.29600
O 	O 	0.55425 0.20632 0.90707 -0.36100
O 	O 	0.52957 0.15657 0.85926 -0.39900
Ni	Ni	0.62372 0.31892 0.56033 1.10400
O 	O 	0.68052 0.32731 0.53266 -0.70100
Ni	Ni	0.73424 0.28990 0.54954 1.10200
O 	O 	0.59444 0.38995 0.54622 -0.36200
O 	O 	0.68496 0.46326 0.54369 -0.40300
O 	O 	0.56125 0.24699 0.53921 -0.36100
Ni	Ni	0.72385 0.41563 0.52021 1.07700
O 	O 	0.54750 0.18806 0.58443 -0.39100
O 	O 	0.79737 0.44783 0.54194 -0.38400
O 	O 	0.80111 0.31661 0.52521 -0.36200
O 	O 	0.67064 0.26969 0.57488 -0.70200
O 	O 	0.56848 0.30179 0.58870 -0.36800
O 	O 	0.77133 0.23377 0.56928 -0.35400
O 	O 	0.68900 0.14258 0.56820 -0.39500
Ni	Ni	0.62274 0.17597 0.57619 1.07300
H 	H 	0.66209 0.29797 0.51814 0.16000
H 	H 	0.68491 0.28739 0.59191 0.17100
C 	C 	0.80214 0.43116 0.56527 0.30600
O 	O 	0.60383 0.16885 0.53883 -0.40900
C 	C 	0.63008 0.45010 0.54129 0.28300
C 	C 	0.80457 0.35313 0.50489 0.29800
C 	C 	0.56712 0.19321 0.52926 0.29100
C 	C 	0.74155 0.17301 0.57663 0.28100
C 	C 	0.54149 0.24018 0.59623 0.28700
O 	O 	0.77562 0.36999 0.57285 -0.38100
O 	O 	0.76146 0.36974 0.49701 -0.40700
Ni	Ni	0.01123 0.96720 0.73985 1.10200
O 	O 	0.01736 0.88561 0.72144 -0.70600
Ni	Ni	0.06372 0.92969 0.69235 1.10400
O 	O 	0.96227 0.90894 0.76706 -0.35000
O 	O 	0.90008 0.84074 0.73788 -0.39000
O 	O 	0.08365 0.97179 0.75936 -0.37400
Ni	Ni	0.94549 0.82442 0.70786 1.07400
O 	O 	0.05001 0.13272 0.72731 -0.38300
O 	O 	0.92689 0.89738 0.68910 -0.39700
O 	O 	0.07230 0.84589 0.67743 -0.35900
O 	O 	0.04685 0.00792 0.70814 -0.69900
O 	O 	0.01148 0.05301 0.75739 -0.35900
O 	O 	0.12687 0.98972 0.67033 -0.35500
O 	O 	0.16902 0.05489 0.70452 -0.39800
Ni	Ni	0.10787 0.09245 0.71612 1.08600
H 	H 	0.03723 0.86175 0.73162 0.17100
H 	H 	0.01761 0.01868 0.69838 0.16500
C 	C 	0.95334 0.92395 0.66871 0.29100
O 	O 	0.12657 0.08328 0.75290 -0.38000
C 	C 	0.92082 0.85229 0.76111 0.27600
C 	C 	0.02642 0.79196 0.67334 0.27800
C 	C 	0.12749 0.02753 0.76248 0.30500
C 	C 	0.17055 0.03753 0.68087 0.28200
C 	C 	0.01192 0.10608 0.74468 0.28600
O 	O 	0.00419 0.92293 0.66433 -0.35800
O 	O 	0.97511 0.79498 0.67599 -0.38800
Ni	Ni	0.24790 0.65572 0.38847 1.10000
O 	O 	0.31565 0.69779 0.36618 -0.70600
Ni	Ni	0.38074 0.70699 0.39020 1.10100
O 	O 	0.19095 0.66011 0.36112 -0.35500
O 	O 	0.23526 0.77209 0.35611 -0.39300
O 	O 	0.23052 0.56107 0.37286 -0.35600
Ni	Ni	0.32216 0.78925 0.35738 1.07100
O 	O 	0.21831 0.53312 0.42315 -0.39600
O 	O 	0.31913 0.82003 0.39356 -0.40800
O 	O 	0.44337 0.74865 0.36559 -0.36800
O 	O 	0.31294 0.66679 0.41304 -0.70100
O 	O 	0.18420 0.61563 0.41276 -0.37200
O 	O 	0.44010 0.70129 0.41634 -0.35200
O 	O 	0.39099 0.59421 0.42695 -0.38700
Ni	Ni	0.30492 0.57650 0.42403 1.07800
H 	H 	0.31574 0.66990 0.35127 0.17100
H 	H 	0.31250 0.69637 0.42736 0.16500
C 	C 	0.36179 0.83021 0.40941 0.29400
O 	O 	0.30911 0.54521 0.38848 -0.41000
C 	C 	0.19570 0.71513 0.34915 0.28500
C 	C 	0.44595 0.80271 0.35318 0.28800
C 	C 	0.26335 0.52509 0.37424 0.30100
C 	C 	0.42858 0.65311 0.43272 0.28700
C 	C 	0.18225 0.56435 0.42666 0.28900
O 	O 	0.39897 0.80125 0.40565 -0.36200
O 	O 	0.40907 0.83296 0.35735 -0.39300
Ni	Ni	0.35301 0.71121 0.06862 1.10000
O 	O 	0.28519 0.68033 0.04385 -0.70300
Ni	Ni	0.23005 0.71435 0.06118 1.10000
O 	O 	0.39816 0.66318 0.04970 -0.35500
O 	O 	0.32465 0.56353 0.04747 -0.39300
O 	O 	0.39424 0.79084 0.04602 -0.36100
Ni	Ni	0.25016 0.58258 0.04185 1.07400
O 	O 	0.41803 0.85299 0.09013 -0.39600
O 	O 	0.24226 0.57525 0.07968 -0.40700
O 	O 	0.16648 0.68153 0.03457 -0.36200
O 	O 	0.29769 0.74416 0.08635 -0.69900
O 	O 	0.41792 0.74657 0.09439 -0.37100
O 	O 	0.18516 0.76287 0.08004 -0.34900
O 	O 	0.25864 0.86096 0.08643 -0.39000
Ni	Ni	0.33398 0.84245 0.08813 1.07400
H 	H 	0.29415 0.69968 0.02701 0.16600
H 	H 	0.28849 0.72430 0.10312 0.17100
C 	C 	0.20009 0.58582 0.09039 0.29900
O 	O 	0.33481 0.84911 0.05022 -0.41300
C 	C 	0.37408 0.60299 0.03974 0.28400
C 	C 	0.15094 0.61996 0.02542 0.28400
C 	C 	0.37204 0.83369 0.03723 0.29200
C 	C 	0.21043 0.81742 0.09359 0.28700
C 	C 	0.43893 0.81058 0.10059 0.29300
O 	O 	0.18412 0.63515 0.08311 -0.35900
O 	O 	0.16765 0.57541 0.03686 -0.39700
Ni	Ni	0.94237 0.00774 0.26576 1.10300
O 	O 	0.96026 0.10022 0.25048 -0.70300
Ni	Ni	0.92372 0.07676 0.21644 1.10200
O 	O 	0.98888 0.04656 0.29805 -0.35000
O 	O 	0.06421 0.10001 0.27399 -0.39900
O 	O 	0.87236 0.02161 0.28013 -0.37200
Ni	Ni	0.03943 0.15727 0.24834 1.07800
O 	O 	0.87701 0.84733 0.24480 -0.38500
O 	O 	0.06742 0.11271 0.21978 -0.37400
O 	O 	0.94197 0.17156 0.20318 -0.35800
O 	O 	0.91443 0.98446 0.23043 -0.69800
O 	O 	0.91757 0.91326 0.27976 -0.36100
O 	O 	0.86574 0.03777 0.18733 -0.35500
O 	O 	0.80141 0.97234 0.21463 -0.39900
Ni	Ni	0.84112 0.91181 0.23061 1.08100
H 	H 	0.94039 0.12547 0.25967 0.16600
H 	H 	0.94099 0.96675 0.22211 0.15500
C 	C 	0.03486 0.06646 0.20414 0.27700
O 	O 	0.81194 0.92082 0.26533 -0.38100
C 	C 	0.04120 0.08887 0.29613 0.28000
C 	C 	0.99426 0.21673 0.20552 0.29200
C 	C 	0.82059 0.97831 0.27671 0.30100
C 	C 	0.81416 0.99594 0.19197 0.27800
C 	C 	0.90993 0.85966 0.26544 0.28600
O 	O 	0.98779 0.07100 0.19490 -0.37100
O 	O 	0.02226 0.22763 0.22742 -0.39500
C 	C 	0.09479 0.41879 0.11060 -0.03700
C 	C 	0.08778 0.43262 0.13591 0.02400
C 	C 	0.11351 0.49836 0.14566 -0.03600
C 	C 	0.15005 0.54877 0.13069 0.02500
C 	C 	0.16170 0.53306 0.10613 -0.07500
C 	C 	0.13351 0.46787 0.09602 0.02700
C 	C 	0.06263 0.37600 0.15324 0.02400
C 	C 	0.10318 0.51368 0.17122 0.10500
C 	C 	0.14524 0.45071 0.07089 0.07900
C 	C 	0.09654 0.34142 0.16288 -0.03500
C 	C 	0.07345 0.28759 0.17908 0.02400
C 	C 	0.01587 0.26790 0.18590 -0.06700
C 	C 	0.98202 0.30344 0.17645 0.02700
C 	C 	0.00508 0.35619 0.15958 -0.03700
C 	C 	0.15574 0.36183 0.15623 0.10500
C 	C 	0.92519 0.28937 0.18545 0.10000
C 	C 	0.10993 0.25455 0.18957 0.08400
C 	C 	0.96975 0.39044 0.14891 0.10800
C 	C 	0.06332 0.35315 0.09983 0.10600
C 	C 	0.17649 0.61638 0.14071 0.08500
N 	N 	0.13997 0.22925 0.19776 -0.10300
N 	N 	0.20290 0.37817 0.15090 -0.10300
N 	N 	0.87988 0.27841 0.19266 -0.09200
N 	N 	0.94160 0.41782 0.14038 -0.10100
N 	N 	0.09489 0.52582 0.19163 -0.10100
N 	N 	0.19756 0.67036 0.14866 -0.10700
N 	N 	0.15450 0.43652 0.05089 -0.12300
N 	N 	0.03818 0.30075 0.09127 -0.10000
C 	C 	0.69932 0.88411 0.14838 -0.03600
C 	C 	0.66572 0.92399 0.14476 0.02300
C 	C 	0.68673 0.99176 0.15266 -0.03600
C 	C 	0.73895 0.01784 0.16612 0.02700
C 	C 	0.76979 0.97598 0.17189 -0.07300
C 	C 	0.75156 0.91030 0.16179 0.02000
C 	C 	0.60732 0.89394 0.13335 0.02300
C 	C 	0.65411 0.03415 0.14731 0.10600
C 	C 	0.78616 0.86940 0.16560 0.05700
C 	C 	0.56043 0.86505 0.14881 -0.03500
C 	C 	0.50524 0.83694 0.13805 0.02000
C 	C 	0.49690 0.83764 0.11185 -0.07100
C 	C 	0.54393 0.86577 0.09637 0.02500
C 	C 	0.59901 0.89412 0.10714 -0.03600
C 	C 	0.56905 0.86453 0.17576 0.10300
C 	C 	0.53562 0.86524 0.06935 0.09700
C 	C 	0.45701 0.80795 0.15395 0.07800
C 	C 	0.64721 0.92362 0.09127 0.10400
C 	C 	0.67960 0.81585 0.13870 0.10300
C 	C 	0.76028 0.08721 0.17452 0.09500
N 	N 	0.41850 0.78482 0.16662 -0.10300
N 	N 	0.57604 0.86419 0.19726 -0.10400
N 	N 	0.52906 0.86488 0.04781 -0.09700
N 	N 	0.68571 0.94718 0.07863 -0.10300
N 	N 	0.62803 0.06792 0.14302 -0.10400
N 	N 	0.77725 0.14259 0.18123 -0.09200
N 	N 	0.81380 0.83680 0.16867 -0.11800
N 	N 	0.66380 0.76138 0.13097 -0.10300
C 	C 	0.09652 0.86006 0.12797 -0.03600
C 	C 	0.12929 0.89906 0.14813 0.02400
C 	C 	0.18522 0.90105 0.15254 -0.03600
C 	C 	0.20885 0.86655 0.13617 0.02300
C 	C 	0.17940 0.83701 0.11375 -0.07400
C 	C 	0.12229 0.83214 0.10999 0.02700
C 	C 	0.10693 0.94347 0.16299 0.02100
C 	C 	0.21899 0.94033 0.17340 0.10500
C 	C 	0.09091 0.80141 0.08725 0.10200
C 	C 	0.08877 0.92693 0.18770 -0.03300
C 	C 	0.06806 0.96938 0.20165 0.01500
C 	C 	0.06099 0.02525 0.19021 -0.07000
C 	C 	0.07877 0.04149 0.16542 0.02600
C 	C 	0.10370 0.00209 0.15222 -0.03500
C 	C 	0.09169 0.86651 0.19875 0.10600
C 	C 	0.07101 0.09838 0.15342 0.10100
C 	C 	0.05517 0.95646 0.22789 0.06600
C 	C 	0.12643 0.02199 0.12761 0.10500
C 	C 	0.03667 0.85003 0.12549 0.10400
C 	C 	0.26311 0.86063 0.14249 0.05800
N 	N 	0.04503 0.94636 0.24883 -0.12300
N 	N 	0.09418 0.81832 0.20753 -0.10100
N 	N 	0.06472 0.14357 0.14375 -0.09700
N 	N 	0.14458 0.03778 0.10797 -0.10300
N 	N 	0.24589 0.97168 0.19006 -0.10200
N 	N 	0.30637 0.85583 0.14752 -0.13200
N 	N 	0.06580 0.77692 0.06912 -0.09300
N 	N 	0.98891 0.84209 0.12354 -0.10100
C 	C 	0.58744 0.94046 0.34176 -0.03600
C 	C 	0.60854 0.91119 0.32241 0.02300
C 	C 	0.57461 0.84841 0.31199 -0.03500
C 	C 	0.52013 0.81439 0.32127 0.02000
C 	C 	0.50041 0.84177 0.34167 -0.07000
C 	C 	0.53444 0.90481 0.35203 0.02400
C 	C 	0.66754 0.94518 0.31366 0.02300
C 	C 	0.59606 0.81862 0.29189 0.10500
C 	C 	0.51619 0.93149 0.37400 0.10000
C 	C 	0.71392 0.93811 0.32707 -0.03600
C 	C 	0.76806 0.96032 0.31651 0.02800
C 	C 	0.77476 0.98494 0.29195 -0.07300
C 	C 	0.73076 0.00111 0.28029 0.02100
C 	C 	0.67691 0.98107 0.29114 -0.03500
C 	C 	0.70548 0.90612 0.35123 0.10700
C 	C 	0.74113 0.03877 0.25735 0.08100
C 	C 	0.81689 0.95838 0.33085 0.10200
C 	C 	0.63089 0.99578 0.27891 0.10400
C 	C 	0.62057 0.00706 0.35121 0.10500
C 	C 	0.48425 0.75141 0.30977 0.08000
N 	N 	0.85598 0.95715 0.34232 -0.08800
N 	N 	0.69867 0.88056 0.37052 -0.10200
N 	N 	0.74934 0.06902 0.23907 -0.10200
N 	N 	0.59410 0.00745 0.26915 -0.10300
N 	N 	0.61325 0.79495 0.27584 -0.10500
N 	N 	0.45561 0.70116 0.30060 -0.10500
N 	N 	0.50163 0.95272 0.39152 -0.09600
N 	N 	0.64704 0.06019 0.35874 -0.10200
C 	C 	0.16309 0.20652 0.33376 -0.03900
C 	C 	0.13839 0.25234 0.34226 0.02000
C 	C 	0.07882 0.23352 0.34194 -0.03900
C 	C 	0.04474 0.17414 0.32930 0.01200
C 	C 	0.07045 0.13296 0.31757 -0.08200
C 	C 	0.12867 0.14569 0.32218 0.02100
C 	C 	0.17511 0.32187 0.34997 0.02400
C 	C 	0.05274 0.27533 0.35444 0.10300
C 	C 	0.15314 0.09676 0.31451 0.09300
C 	C 	0.18823 0.37373 0.33238 -0.03700
C 	C 	0.22075 0.43999 0.33992 0.02700
C 	C 	0.24046 0.45452 0.36503 -0.07400
C 	C 	0.23098 0.40152 0.38211 0.02800
C 	C 	0.19709 0.33570 0.37473 -0.03600
C 	C 	0.16783 0.35886 0.30660 0.09900
C 	C 	0.25595 0.41452 0.40725 0.07800
C 	C 	0.23430 0.49320 0.32182 0.08700
C 	C 	0.18412 0.28223 0.39272 0.10600
C 	C 	0.22388 0.22283 0.33629 0.10300
C 	C 	0.98370 0.15678 0.32762 0.08200
N 	N 	0.24512 0.53569 0.30739 -0.10600
N 	N 	0.15150 0.34687 0.28603 -0.12000
N 	N 	0.27588 0.42467 0.42730 -0.12700
N 	N 	0.17374 0.23953 0.40704 -0.10200
N 	N 	0.03170 0.30846 0.36444 -0.10300
N 	N 	0.93499 0.14296 0.32629 -0.09800
N 	N 	0.17264 0.05768 0.30837 -0.09600
N 	N 	0.27242 0.23592 0.33833 -0.10300
C 	C 	0.97834 0.77666 0.31036 -0.03400
C 	C 	0.00991 0.75189 0.29400 0.01900
C 	C 	0.99690 0.74714 0.26802 -0.03100
C 	C 	0.96083 0.77895 0.25807 0.02000
C 	C 	0.93272 0.80848 0.27452 -0.06800
C 	C 	0.93592 0.79855 0.30050 0.02400
C 	C 	0.05810 0.73336 0.30406 0.02500
C 	C 	0.02011 0.70921 0.25172 0.10600
C 	C 	0.89390 0.80764 0.31681 0.10300
C 	C 	0.04743 0.67919 0.32041 -0.03800
C 	C 	0.09128 0.67509 0.33636 0.02500
C 	C 	0.14834 0.71645 0.33211 -0.07100
C 	C 	0.15973 0.76209 0.31215 0.02200
C 	C 	0.11469 0.77439 0.29962 -0.03600
C 	C 	0.99101 0.62892 0.32131 0.10700
C 	C 	0.21739 0.79466 0.30400 0.07200
C 	C 	0.07685 0.63365 0.35833 0.10100
C 	C 	0.12653 0.83036 0.28283 0.10700
C 	C 	0.99114 0.78235 0.33710 0.10700
C 	C 	0.95390 0.78261 0.23115 0.09100
N 	N 	0.06508 0.60067 0.37589 -0.09600
N 	N 	0.94596 0.58885 0.32202 -0.10400
N 	N 	0.26338 0.82064 0.29749 -0.12300
N 	N 	0.13600 0.87503 0.26943 -0.09900
N 	N 	0.03864 0.67883 0.23874 -0.09800
N 	N 	0.94838 0.78552 0.20965 -0.10400
N 	N 	0.86024 0.81461 0.32984 -0.09200
N 	N 	0.00138 0.78688 0.35843 -0.10400
C 	C 	0.40213 0.00677 0.43465 -0.03600
C 	C 	0.42837 0.00193 0.45779 0.02600
C 	C 	0.42498 0.93898 0.46644 -0.05600
C 	C 	0.39853 0.88142 0.45167 0.03000
C 	C 	0.37637 0.88671 0.42760 -0.07700
C 	C 	0.37649 0.94924 0.41962 0.01900
C 	C 	0.45977 0.06233 0.47322 0.02500
C 	C 	0.43650 0.07358 0.49568 -0.05700
C 	C 	0.47044 0.11873 0.51382 0.02900
C 	C 	0.52786 0.15559 0.50898 -0.08000
C 	C 	0.54968 0.14866 0.48559 0.01300
C 	C 	0.51618 0.10185 0.46778 -0.03700
C 	C 	0.44725 0.12243 0.53807 0.08500
C 	C 	0.54061 0.09304 0.44437 0.10000
C 	C 	0.40200 0.07057 0.42606 0.10100
C 	C 	0.39358 0.81700 0.46151 0.07200
N 	N 	0.42823 0.12463 0.55745 -0.09800
N 	N 	0.56025 0.08608 0.42562 -0.10100
N 	N 	0.38965 0.76547 0.46947 -0.11800
N 	N 	0.40194 0.12172 0.41919 -0.10400
H 	H 	0.35885 0.95356 0.40127 0.04500
H 	H 	0.44351 0.93498 0.48463 0.05800
H 	H 	0.39291 0.04382 0.49974 0.06000
H 	H 	0.59356 0.17756 0.48169 0.03400
C 	C 	0.94482 0.36255 0.47836 -0.03600
C 	C 	0.96695 0.42973 0.47086 0.02700
C 	C 	0.93451 0.47060 0.47331 -0.05500
C 	C 	0.88106 0.44604 0.48394 0.03200
C 	C 	0.85874 0.37872 0.49168 -0.07500
C 	C 	0.89074 0.33728 0.48856 0.02000
C 	C 	0.02430 0.45818 0.46049 0.02400
C 	C 	0.03198 0.44643 0.43516 -0.05500
C 	C 	0.08384 0.48023 0.42405 0.03400
C 	C 	0.12836 0.52692 0.43830 -0.07200
C 	C 	0.12146 0.53691 0.46382 0.01000
C 	C 	0.06976 0.50251 0.47503 -0.03500
C 	C 	0.09101 0.46743 0.39792 0.09800
C 	C 	0.06352 0.51305 0.50143 0.09900
C 	C 	0.97772 0.31964 0.47606 0.10400
C 	C 	0.85054 0.49111 0.48770 0.07200
N 	N 	0.09701 0.45753 0.37699 -0.09200
N 	N 	0.05844 0.52144 0.52258 -0.10200
N 	N 	0.82622 0.52735 0.49068 -0.12500
N 	N 	0.00412 0.28530 0.47421 -0.10300
H 	H 	0.87389 0.28566 0.49445 0.05300
H 	H 	0.95155 0.52218 0.46737 0.06300
H 	H 	0.99715 0.41201 0.42402 0.06500
H 	H 	0.15620 0.57171 0.47490 0.03500
C 	C 	0.55583 0.51535 0.49169 -0.03900
C 	C 	0.56759 0.58171 0.50019 0.02400
C 	C 	0.60145 0.60552 0.52188 -0.05800
C 	C 	0.62262 0.56320 0.53545 0.03000
C 	C 	0.60939 0.49621 0.52730 -0.08800
C 	C 	0.57654 0.47303 0.50531 0.01000
C 	C 	0.54007 0.62405 0.48770 0.02300
C 	C 	0.48500 0.61748 0.49443 -0.05400
C 	C 	0.44903 0.63323 0.47734 0.02800
C 	C 	0.46906 0.65802 0.45359 -0.07300
C 	C 	0.52689 0.67502 0.44867 0.01800
C 	C 	0.56251 0.65793 0.46563 -0.03700
C 	C 	0.39063 0.61978 0.48365 0.05900
C 	C 	0.62103 0.67153 0.45960 0.09900
C 	C 	0.52181 0.49013 0.46914 0.09600
C 	C 	0.65648 0.58836 0.55802 0.08400
N 	N 	0.34383 0.60889 0.48869 -0.12700
N 	N 	0.66794 0.68239 0.45477 -0.10600
N 	N 	0.68362 0.60865 0.57610 -0.09400
N 	N 	0.49455 0.47004 0.45109 -0.10500
H 	H 	0.56718 0.42190 0.49878 0.03600
H 	H 	0.61044 0.65656 0.52842 0.06100
H 	H 	0.46856 0.59427 0.51201 0.06100
H 	H 	0.54310 0.69679 0.43086 0.05500
C 	C 	0.80066 0.08774 0.62600 -0.03500
C 	C 	0.83022 0.05681 0.61108 0.02200
C 	C 	0.82950 0.06271 0.58479 -0.03600
C 	C 	0.80066 0.10117 0.57347 0.02600
C 	C 	0.77164 0.13270 0.58842 -0.07400
C 	C 	0.77110 0.12535 0.61465 0.02000
C 	C 	0.86406 0.02019 0.62319 0.02500
C 	C 	0.85869 0.02941 0.56944 0.10500
C 	C 	0.74030 0.15679 0.62993 0.06600
C 	C 	0.83823 0.95182 0.62863 -0.03700
C 	C 	0.86900 0.91873 0.64199 0.02800
C 	C 	0.92524 0.95446 0.65040 -0.07300
C 	C 	0.95266 0.02120 0.64284 0.02300
C 	C 	0.92172 0.05430 0.62963 -0.03600
C 	C 	0.77986 0.91582 0.62067 0.10500
C 	C 	0.01261 0.05568 0.64840 0.07700
C 	C 	0.84342 0.84761 0.64649 0.09000
C 	C 	0.94892 0.12380 0.62293 0.10400
C 	C 	0.80113 0.08121 0.65304 0.10400
C 	C 	0.80104 0.10863 0.54647 0.09200
N 	N 	0.82303 0.79086 0.65008 -0.10200
N 	N 	0.73327 0.88717 0.61431 -0.10600
N 	N 	0.06046 0.08351 0.65272 -0.12200
N 	N 	0.97055 0.17924 0.61757 -0.10200
N 	N 	0.88200 0.00282 0.55723 -0.10100
N 	N 	0.80135 0.11465 0.52493 -0.10200
N 	N 	0.71571 0.18187 0.64210 -0.11200
N 	N 	0.80155 0.07599 0.67461 -0.10200
C 	C 	0.43381 0.17269 0.64655 -0.03400
C 	C 	0.38445 0.17474 0.63416 0.02300
C 	C 	0.38886 0.20844 0.61127 -0.03500
C 	C 	0.44213 0.23729 0.60029 0.02800
C 	C 	0.49026 0.22782 0.61114 -0.06700
C 	C 	0.48656 0.19801 0.63479 0.01900
C 	C 	0.32756 0.13953 0.64481 0.02400
C 	C 	0.33834 0.21167 0.59870 0.10600
C 	C 	0.53694 0.19317 0.64693 0.07100
C 	C 	0.29961 0.17622 0.65771 -0.03600
C 	C 	0.24533 0.14311 0.66720 0.02500
C 	C 	0.22145 0.07251 0.66622 -0.07400
C 	C 	0.24918 0.03574 0.65307 0.02800
C 	C 	0.30132 0.06955 0.64170 -0.03700
C 	C 	0.32705 0.24791 0.66144 0.10600
C 	C 	0.22506 0.96323 0.65187 0.09300
C 	C 	0.21331 0.18168 0.67734 0.06200
C 	C 	0.32814 0.03246 0.62685 0.10600
C 	C 	0.43009 0.14401 0.67126 0.10300
C 	C 	0.44715 0.27494 0.57742 0.10200
N 	N 	0.18774 0.21241 0.68542 -0.13100
N 	N 	0.34899 0.30511 0.66440 -0.10300
N 	N 	0.20583 0.90538 0.65092 -0.09300
N 	N 	0.34960 0.00297 0.61498 -0.10500
N 	N 	0.29800 0.21421 0.58869 -0.10200
N 	N 	0.45116 0.30493 0.55918 -0.09400
N 	N 	0.57717 0.18932 0.65660 -0.10800
N 	N 	0.42705 0.12110 0.69098 -0.10200
C 	C 	0.87565 0.56630 0.61393 -0.03600
C 	C 	0.93295 0.57278 0.61118 0.02300
C 	C 	0.94691 0.53020 0.59429 -0.03500
C 	C 	0.90397 0.48333 0.57934 0.02700
C 	C 	0.84682 0.47783 0.58175 -0.07400
C 	C 	0.83258 0.51803 0.59955 0.02300
C 	C 	0.97859 0.62594 0.62565 0.02300
C 	C 	0.00543 0.53483 0.59227 0.10600
C 	C 	0.77355 0.50935 0.60316 0.08200
C 	C 	0.98911 0.61656 0.65115 -0.03300
C 	C 	0.01535 0.67273 0.66703 0.01400
C 	C 	0.03065 0.73754 0.65729 -0.06400
C 	C 	0.03185 0.74534 0.63107 0.02500
C 	C 	0.00463 0.68950 0.61519 -0.03500
C 	C 	0.97074 0.54966 0.66112 0.10300
C 	C 	0.05761 0.81130 0.62067 0.10300
C 	C 	0.02378 0.66423 0.69355 0.07300
C 	C 	0.00101 0.69779 0.58835 0.10400
C 	C 	0.86123 0.60989 0.63138 0.10400
C 	C 	0.91853 0.44054 0.56159 0.09600
N 	N 	0.03052 0.65747 0.71473 -0.10700
N 	N 	0.95602 0.49620 0.66906 -0.10200
N 	N 	0.07818 0.86400 0.61238 -0.09200
N 	N 	0.99808 0.70432 0.56692 -0.10200
N 	N 	0.05215 0.53859 0.59067 -0.10000
N 	N 	0.93032 0.40645 0.54746 -0.09500
N 	N 	0.72644 0.50226 0.60606 -0.10300
N 	N 	0.84985 0.64472 0.64532 -0.10700
C 	C 	0.94724 0.44457 0.94604 -0.03700
C 	C 	0.95738 0.50644 0.95848 0.02600
C 	C 	0.91668 0.53698 0.95691 -0.05500
C 	C 	0.86442 0.50439 0.94461 0.03100
C 	C 	0.85263 0.44028 0.93358 -0.07200
C 	C 	0.89497 0.41186 0.93361 0.01700
C 	C 	0.00717 0.53562 0.97567 0.02300
C 	C 	0.05555 0.58666 0.96730 -0.05400
C 	C 	0.10223 0.61651 0.98366 0.02300
C 	C 	0.10046 0.59514 0.00866 -0.07300
C 	C 	0.05159 0.54500 0.01710 0.01800
C 	C 	0.00510 0.51517 0.00078 -0.03700
C 	C 	0.15213 0.66797 0.97454 0.07200
C 	C 	0.95535 0.46344 0.00990 0.10300
C 	C 	0.98977 0.41373 0.94644 0.10200
C 	C 	0.82321 0.53717 0.94343 0.07800
N 	N 	0.19212 0.70919 0.96724 -0.10600
N 	N 	0.91548 0.42200 0.01718 -0.10300
N 	N 	0.79037 0.56366 0.94259 -0.10900
N 	N 	0.02388 0.38905 0.94679 -0.10600
H 	H 	0.88657 0.36336 0.92467 0.05000
H 	H 	0.92498 0.58520 0.96607 0.06300
H 	H 	0.05686 0.60298 0.94806 0.06100
H 	H 	0.05011 0.52864 0.03635 0.05500
C 	C 	0.47344 0.01169 0.93714 -0.03500
C 	C 	0.49901 0.00798 0.96059 0.02500
C 	C 	0.55497 0.05079 0.96605 -0.05400
C 	C 	0.58351 0.10089 0.94927 0.02900
C 	C 	0.55663 0.10659 0.92644 -0.07800
C 	C 	0.50311 0.05959 0.91995 0.01700
C 	C 	0.46599 0.96330 0.98027 0.02500
C 	C 	0.44917 0.89366 0.97702 -0.05300
C 	C 	0.41465 0.85069 0.99457 0.03100
C 	C 	0.40029 0.87746 0.01659 -0.07600
C 	C 	0.41699 0.94710 0.01979 0.01900
C 	C 	0.44878 0.99000 0.00159 -0.03900
C 	C 	0.39025 0.77990 0.98883 0.07500
C 	C 	0.46283 0.06132 0.00472 0.10000
C 	C 	0.41595 0.96846 0.93099 0.09800
C 	C 	0.63963 0.14717 0.95590 0.07500
N 	N 	0.37041 0.72325 0.98412 -0.12100
N 	N 	0.47410 0.11846 0.00722 -0.10700
N 	N 	0.68459 0.18429 0.96120 -0.10600
N 	N 	0.36989 0.93387 0.92607 -0.10400
H 	H 	0.48385 0.06171 0.90176 0.05000
H 	H 	0.57525 0.04692 0.98381 0.06300
H 	H 	0.46135 0.87300 0.96038 0.06100
H 	H 	0.40576 0.96793 0.03663 0.04100
C 	C 	0.45569 0.45745 0.94747 -0.03900
C 	C 	0.48481 0.48618 0.97001 0.02700
C 	C 	0.53882 0.48422 0.97524 -0.05700
C 	C 	0.56435 0.45448 0.95816 0.03400
C 	C 	0.53587 0.42713 0.93529 -0.08400
C 	C 	0.48137 0.42806 0.93024 0.02200
C 	C 	0.45866 0.51738 0.98851 0.02200
C 	C 	0.43054 0.47991 0.00878 -0.05600
C 	C 	0.40592 0.50855 0.02669 0.02600
C 	C 	0.40776 0.57502 0.02384 -0.07600
C 	C 	0.43896 0.61361 0.00440 0.00900
C 	C 	0.46395 0.58502 0.98662 -0.03500
C 	C 	0.38198 0.47088 0.04863 0.08800
C 	C 	0.49465 0.62524 0.96638 0.09900
C 	C 	0.39960 0.45816 0.94190 0.10000
C 	C 	0.61885 0.45011 0.96465 0.03400
N 	N 	0.36284 0.44066 0.06620 -0.09700
N 	N 	0.51924 0.65742 0.95017 -0.10500
N 	N 	0.66248 0.44671 0.96996 -0.14700
N 	N 	0.35467 0.45878 0.93745 -0.10800
H 	H 	0.45925 0.40656 0.91278 0.04900
H 	H 	0.56081 0.50556 0.99275 0.06300
H 	H 	0.42837 0.42858 0.01071 0.06000
H 	H 	0.44297 0.66561 0.00288 0.05300
C 	C 	0.84378 0.16598 0.81593 -0.03600
C 	C 	0.85225 0.19664 0.79233 0.02300
C 	C 	0.82255 0.23895 0.78546 -0.03500
C 	C 	0.78422 0.25039 0.80215 0.02100
C 	C 	0.77701 0.22130 0.82607 -0.07300
C 	C 	0.80737 0.17962 0.83303 0.02300
C 	C 	0.89331 0.18491 0.77491 0.02400
C 	C 	0.83171 0.27090 0.76128 0.10600
C 	C 	0.80280 0.15283 0.85811 0.09300
C 	C 	0.87453 0.13166 0.75722 -0.03500
C 	C 	0.91425 0.10940 0.74544 0.02300
C 	C 	0.97248 0.13978 0.75167 -0.07100
C 	C 	0.99156 0.19794 0.76703 0.02800
C 	C 	0.95186 0.22110 0.77837 -0.03600
C 	C 	0.81438 0.09869 0.75176 0.10600
C 	C 	0.05181 0.23235 0.77187 0.09700
C 	C 	0.89532 0.05463 0.72721 0.07100
C 	C 	0.97102 0.28085 0.79421 0.10800
C 	C 	0.87290 0.12064 0.82261 0.10500
C 	C 	0.75181 0.29157 0.79467 0.08200
N 	N 	0.88029 0.01096 0.71266 -0.10600
N 	N 	0.76635 0.07242 0.74741 -0.10300
N 	N 	0.09990 0.25976 0.77572 -0.09600
N 	N 	0.98624 0.32853 0.80685 -0.10100
N 	N 	0.83907 0.29636 0.74197 -0.10100
N 	N 	0.72595 0.32445 0.78873 -0.10500
N 	N 	0.79919 0.13148 0.87811 -0.09900
N 	N 	0.89617 0.08449 0.82790 -0.09900
C 	C 	0.23646 0.10070 0.81389 -0.03500
C 	C 	0.27625 0.07017 0.80837 0.02200
C 	C 	0.26094 0.01487 0.79154 -0.03000
C 	C 	0.20929 0.99647 0.77762 0.01700
C 	C 	0.17186 0.03124 0.78156 -0.06900
C 	C 	0.18318 0.07873 0.80137 0.02600
C 	C 	0.33508 0.09839 0.81938 0.02300
C 	C 	0.29872 0.97787 0.78828 0.10100
C 	C 	0.14001 0.10512 0.80870 0.10200
C 	C 	0.34508 0.08895 0.84492 -0.03700
C 	C 	0.39784 0.12564 0.85647 0.02500
C 	C 	0.44335 0.16408 0.84176 -0.07100
C 	C 	0.43444 0.17061 0.81589 0.01800
C 	C 	0.37990 0.13940 0.80484 -0.03500
C 	C 	0.30093 0.04174 0.85930 0.10500
C 	C 	0.48119 0.20995 0.80073 0.07100
C 	C 	0.40401 0.12802 0.88358 0.09500
C 	C 	0.36966 0.15004 0.77865 0.10300
C 	C 	0.25115 0.15619 0.83176 0.10500
C 	C 	0.19572 0.94377 0.75862 0.08600
N 	N 	0.40864 0.13019 0.90523 -0.09700
N 	N 	0.26567 0.00406 0.87076 -0.10100
N 	N 	0.51852 0.24134 0.78865 -0.10900
N 	N 	0.36142 0.15846 0.75775 -0.10400
N 	N 	0.32894 0.94840 0.78570 -0.10400
N 	N 	0.18485 0.90175 0.74344 -0.11200
N 	N 	0.10553 0.12613 0.81452 -0.09100
N 	N 	0.26292 0.20045 0.84603 -0.10200
C 	C 	0.81191 0.58182 0.82177 -0.03800
C 	C 	0.80281 0.64147 0.82789 0.02300
C 	C 	0.76799 0.64285 0.84807 -0.03600
C 	C 	0.74088 0.58408 0.86149 0.02500
C 	C 	0.75388 0.52592 0.85674 -0.07500
C 	C 	0.79132 0.52599 0.83732 0.02600
C 	C 	0.83191 0.70358 0.81365 0.02100
C 	C 	0.76080 0.70491 0.85526 0.10600
C 	C 	0.81260 0.47157 0.83470 0.09500
C 	C 	0.80134 0.72621 0.79567 -0.03700
C 	C 	0.83006 0.78122 0.78071 0.02000
C 	C 	0.89002 0.80790 0.78135 -0.07200
C 	C 	0.92038 0.78722 0.80012 0.01700
C 	C 	0.89089 0.73737 0.81701 -0.03500
C 	C 	0.74070 0.69185 0.79212 0.10200
C 	C 	0.98189 0.81511 0.80143 0.08900
C 	C 	0.79803 0.81221 0.76560 0.09500
C 	C 	0.92123 0.71997 0.83760 0.10400
C 	C 	0.84299 0.57820 0.79957 0.10300
C 	C 	0.69902 0.58322 0.87984 0.08800
N 	N 	0.77246 0.83697 0.75355 -0.09600
N 	N 	0.69230 0.66439 0.78931 -0.10400
N 	N 	0.03096 0.83735 0.80247 -0.09900
N 	N 	0.94538 0.70601 0.85403 -0.10300
N 	N 	0.75509 0.75447 0.86098 -0.10300
N 	N 	0.66567 0.58279 0.89448 -0.09900
N 	N 	0.82999 0.42850 0.83255 -0.09100
N 	N 	0.86780 0.57540 0.78185 -0.10800
