data_crystal

_cell_length_a 24.95604
_cell_length_b 21.94933
_cell_length_c 52.82045
_cell_angle_alpha 90.52813
_cell_angle_beta  91.19958
_cell_angle_gamma 110.71038

_symmetry_space_group_name_	'P 1'
_symmetry_space_group_name_H-M	'P 1'

loop_
_symmetry_equiv_pos_as_xyz
  x,y,z

loop_
_atom_site_label
_atom_site_type_symbol
_atom_site_fract_x
_atom_site_fract_y
_atom_site_fract_z
_atom_site_charge
Ni	Ni	0.00607 0.94405 0.73880 1.09500
O 	O 	0.01087 0.80394 0.67035 -0.40500
H 	H 	0.01034 0.02435 0.64002 0.03800
C 	C 	0.00936 0.06801 0.76049 0.27600
C 	C 	0.00121 0.92890 0.31135 -0.03100
H 	H 	0.00698 0.75894 0.29480 0.04500
O 	O 	0.00636 0.36519 0.44187 -0.09100
H 	H 	0.00256 0.62237 0.94994 0.08200
H 	H 	0.01167 0.19069 0.84214 0.04400
H 	H 	0.01333 0.01109 0.69892 0.15400
O 	O 	0.01734 0.92427 0.66250 -0.37100
O 	O 	0.00505 0.18149 0.18009 -0.40400
C 	C 	0.00932 0.80837 0.29838 -0.05400
C 	C 	0.01032 0.61033 0.96920 -0.07800
O 	O 	0.00203 0.43684 0.41243 -0.10200
C 	C 	0.02517 0.70275 0.59211 -0.04400
C 	C 	0.02245 0.64638 0.63187 -0.00200
C 	C 	0.00477 0.26881 0.08858 -0.05000
C 	C 	0.00974 0.34451 0.12357 -0.01000
N 	N 	0.02066 0.42498 0.43434 -0.01700
H 	H 	0.01494 0.40112 0.15829 0.03400
C 	C 	0.01844 0.95285 0.16337 -0.00600
H 	H 	0.01908 0.87399 0.13971 0.04500
O 	O 	0.03383 0.88198 0.71874 -0.71300
Ni	Ni	0.02470 0.16859 0.21703 1.06400
C 	C 	0.02328 0.05212 0.18798 0.27700
H 	H 	0.03047 0.12916 0.80641 0.04300
H 	H 	0.04333 0.74531 0.58052 0.05200
C 	C 	0.02998 0.57983 0.01910 -0.00700
C 	C 	0.03024 0.17183 0.27374 0.26800
H 	H 	0.03306 0.17936 0.32511 0.04900
C 	C 	0.04317 0.70368 0.61743 0.02000
H 	H 	0.04252 0.60250 0.66593 0.04000
O 	O 	0.04254 0.00102 0.70925 -0.69300
C 	C 	0.03791 0.90554 0.32544 0.01500
N 	N 	0.04035 0.39004 0.51334 -0.01700
C 	C 	0.04678 0.64715 0.65631 -0.04800
H 	H 	0.03786 0.56708 0.03826 0.06500
H 	H 	0.03910 0.47712 0.13186 0.04600
O 	O 	0.04603 0.08931 0.20788 -0.41100
C 	C 	0.04223 0.31930 0.07483 -0.02600
C 	C 	0.04456 0.91283 0.15237 -0.04900
C 	C 	0.04550 0.84713 0.31783 0.00600
C 	C 	0.05012 0.48632 0.47476 0.02400
H 	H 	0.05838 0.86401 0.72891 0.15500
C 	C 	0.04437 0.39707 0.10854 0.01700
C 	C 	0.05100 0.00841 0.17757 -0.07200
H 	H 	0.05633 0.79906 0.13917 0.04400
C 	C 	0.05325 0.23072 0.28992 -0.07700
C 	C 	0.05351 0.22617 0.31637 -0.01100
H 	H 	0.05513 0.23274 0.36688 0.04900
H 	H 	0.05501 0.30881 0.05629 0.04800
C 	C 	0.06051 0.47701 0.44914 0.05600
O 	O 	0.05799 0.39662 0.53690 -0.10000
O 	O 	0.05801 0.16671 0.25335 -0.40900
C 	C 	0.06613 0.81324 0.66983 0.27100
O 	O 	0.06503 0.08574 0.75759 -0.40800
C 	C 	0.06009 0.46306 0.11640 -0.05400
H 	H 	0.05975 0.98350 0.35344 0.04600
C 	C 	0.06298 0.64399 0.98146 0.12200
O 	O 	0.06563 0.36605 0.49675 -0.08700
C 	C 	0.06357 0.38290 0.08490 0.00800
C 	C 	0.06663 0.93972 0.34717 -0.03900
C 	C 	0.07590 0.76283 0.62954 -0.01400
Ni	Ni	0.07743 0.93984 0.69144 1.09700
O 	O 	0.07779 0.96940 0.76271 -0.37000
H 	H 	0.07419 0.29616 0.25835 0.00100
C 	C 	0.07717 0.70691 0.66831 -0.00900
C 	C 	0.07379 0.62655 0.00615 -0.09100
C 	C 	0.07728 0.29173 0.27870 0.00500
C 	C 	0.07921 0.27821 0.35797 -0.03300
C 	C 	0.08144 0.28188 0.33152 0.00900
H 	H 	0.08269 0.54354 0.50889 0.08100
C 	C 	0.08270 0.76502 0.65598 -0.06400
H 	H 	0.08668 0.80804 0.61929 0.05400
H 	H 	0.08936 0.70803 0.68817 0.02000
C 	C 	0.08798 0.82821 0.33051 0.00600
C 	C 	0.09084 0.53585 0.48925 -0.07100
H 	H 	0.09135 0.75677 0.30223 0.04100
Ni	Ni	0.09930 0.08176 0.72314 1.06900
C 	C 	0.10103 0.82369 0.13513 -0.04900
O 	O 	0.10442 0.87173 0.67478 -0.37200
C 	C 	0.10021 0.51228 0.10287 0.00900
C 	C 	0.10383 0.92618 0.15630 0.00600
H 	H 	0.10425 0.74400 0.11214 0.04800
C 	C 	0.10386 0.91754 0.36108 -0.03800
C 	C 	0.10361 0.43272 0.07140 -0.01000
C 	C 	0.10491 0.34731 0.29358 -0.05500
H 	H 	0.10401 0.32972 0.39349 0.05700
C 	C 	0.10631 0.77891 0.32062 -0.04900
N 	N 	0.10556 0.69556 0.96875 -0.02300
C 	C 	0.11020 0.02341 0.18098 -0.01700
C 	C 	0.10722 0.33322 0.37308 -0.03500
C 	C 	0.11033 0.51879 0.43808 -0.00400
H 	H 	0.11197 0.56247 0.10926 0.04100
C 	C 	0.11134 0.34210 0.31998 0.01000
C 	C 	0.11575 0.86298 0.35270 0.01300
H 	H 	0.11798 0.51179 0.41833 0.06100
O 	O 	0.11875 0.68676 0.94565 -0.09100
H 	H 	0.11876 0.39422 0.28462 0.04100
H 	H 	0.11967 0.42124 0.05374 0.04800
C 	C 	0.12287 0.49729 0.08057 -0.07200
H 	H 	0.12506 0.94422 0.37803 0.04800
C 	C 	0.12894 0.79080 0.12074 0.00400
O 	O 	0.12903 0.75233 0.97981 -0.08200
C 	C 	0.13132 0.98996 0.75494 0.27000
C 	C 	0.13181 0.88654 0.14519 0.00600
C 	C 	0.99875 0.35363 0.14925 -0.03300
H 	H 	0.99725 0.97491 0.31671 0.05800
C 	C 	0.99046 0.28010 0.11327 0.03100
H 	H 	0.98914 0.21992 0.08048 0.05600
Ni	Ni	0.70110 0.31628 0.88202 1.10300
O 	O 	0.63290 0.26263 0.85923 -0.70400
Ni	Ni	0.56770 0.27042 0.87836 1.10400
O 	O 	0.75730 0.29823 0.85789 -0.35800
O 	O 	0.70945 0.18809 0.85951 -0.39600
O 	O 	0.70106 0.39346 0.86050 -0.39500
Ni	Ni	0.62162 0.17069 0.85664 1.06600
O 	O 	0.71494 0.39151 0.93697 -0.38000
O 	O 	0.61853 0.15803 0.89493 -0.40500
O 	O 	0.50533 0.22318 0.85249 -0.37800
O 	O 	0.63478 0.31237 0.90328 -0.69800
O 	O 	0.76899 0.37646 0.90395 -0.36000
O 	O 	0.51166 0.30361 0.89703 -0.35500
O 	O 	0.57770 0.40621 0.89727 -0.39800
Ni	Ni	0.64828 0.39968 0.91676 1.09800
H 	H 	0.63403 0.28135 0.84218 0.15600
H 	H 	0.63350 0.28333 0.91763 0.18700
C 	C 	0.57309 0.15530 0.90758 0.31000
O 	O 	0.70529 0.46376 0.89344 -0.38800
C 	C 	0.74887 0.23873 0.84946 0.26900
C 	C 	0.49978 0.16428 0.84405 0.27400
C 	C 	0.71376 0.45294 0.86958 0.30300
C 	C 	0.52630 0.36592 0.90266 0.29800
C 	C 	0.76497 0.39991 0.92684 0.31000
O 	O 	0.54039 0.18764 0.89994 -0.35600
O 	O 	0.53347 0.13367 0.85306 -0.40000
Ni	Ni	0.64721 0.33309 0.57339 1.10100
O 	O 	0.71629 0.35422 0.55023 -0.69900
Ni	Ni	0.76473 0.31271 0.56871 1.10300
O 	O 	0.60912 0.38130 0.55016 -0.34800
O 	O 	0.68942 0.47309 0.55149 -0.40200
O 	O 	0.61290 0.25212 0.55043 -0.37400
Ni	Ni	0.76061 0.44619 0.54666 1.07800
O 	O 	0.61074 0.25704 0.62714 -0.41700
O 	O 	0.77831 0.45972 0.58451 -0.41400
O 	O 	0.82576 0.32835 0.54201 -0.36800
O 	O 	0.70202 0.30429 0.59417 -0.70100
O 	O 	0.57500 0.30481 0.59529 -0.36700
O 	O 	0.79579 0.24965 0.58698 -0.37300
O 	O 	0.70666 0.17146 0.58803 -0.39100
Ni	Ni	0.66032 0.21824 0.60759 1.07100
H 	H 	0.70522 0.33347 0.53326 0.18000
H 	H 	0.71723 0.33556 0.60847 0.15600
C 	C 	0.82015 0.44446 0.59456 0.29200
O 	O 	0.59275 0.17968 0.58261 -0.38500
C 	C 	0.63892 0.43900 0.54129 0.29600
C 	C 	0.84617 0.38539 0.53079 0.30200
C 	C 	0.59500 0.19181 0.55834 0.31200
C 	C 	0.76264 0.18914 0.59094 0.27000
C 	C 	0.56772 0.26956 0.61613 0.29100
O 	O 	0.82294 0.38649 0.59035 -0.36700
O 	O 	0.83845 0.43730 0.54074 -0.39600
O 	O 	0.96385 0.87151 0.76343 -0.36300
O 	O 	0.91197 0.80736 0.73082 -0.41100
Ni	Ni	0.96941 0.81331 0.70214 1.06600
O 	O 	0.93654 0.87592 0.68483 -0.41300
O 	O 	0.97648 0.00685 0.75730 -0.37500
O 	O 	0.13620 0.00880 0.66999 -0.36000
O 	O 	0.14215 0.10412 0.68931 -0.40400
C 	C 	0.96305 0.91396 0.66650 0.29000
O 	O 	0.14688 0.02950 0.73570 -0.42300
C 	C 	0.92712 0.81520 0.75498 0.27000
C 	C 	0.16739 0.06724 0.67880 0.28200
Ni	Ni	0.26773 0.69481 0.39782 1.10300
O 	O 	0.33449 0.74579 0.37565 -0.70400
Ni	Ni	0.40020 0.73289 0.39388 1.10300
O 	O 	0.21181 0.71773 0.37412 -0.36200
O 	O 	0.26307 0.82662 0.37961 -0.39900
O 	O 	0.26177 0.61629 0.37521 -0.39600
Ni	Ni	0.34923 0.83870 0.37529 1.06600
O 	O 	0.25391 0.61614 0.45120 -0.37200
O 	O 	0.35831 0.84960 0.41377 -0.39700
O 	O 	0.46063 0.77792 0.36824 -0.37000
O 	O 	0.33522 0.69404 0.41871 -0.69600
O 	O 	0.19981 0.63752 0.41863 -0.36700
O 	O 	0.45568 0.69521 0.41144 -0.35400
O 	O 	0.38561 0.59521 0.41138 -0.40000
Ni	Ni	0.31865 0.60603 0.43113 1.09600
H 	H 	0.33032 0.72769 0.35818 0.15600
H 	H 	0.33967 0.72345 0.43352 0.18700
C 	C 	0.40469 0.84909 0.42573 0.31000
O 	O 	0.25867 0.54402 0.40674 -0.39000
C 	C 	0.22014 0.77890 0.36871 0.26700
C 	C 	0.46503 0.83630 0.36001 0.26900
C 	C 	0.24635 0.55636 0.38344 0.30200
C 	C 	0.43841 0.63316 0.41712 0.29800
C 	C 	0.20378 0.61019 0.44057 0.31000
O 	O 	0.43414 0.81486 0.41670 -0.36200
O 	O 	0.43657 0.86991 0.37107 -0.40200
Ni	Ni	0.34009 0.68100 0.05490 1.10400
O 	O 	0.26876 0.67443 0.03370 -0.70000
Ni	Ni	0.22000 0.69348 0.05992 1.10300
O 	O 	0.36743 0.62593 0.03027 -0.35300
O 	O 	0.27880 0.54672 0.02950 -0.40800
O 	O 	0.38726 0.76292 0.03546 -0.35600
Ni	Ni	0.22443 0.59302 0.01640 1.08500
O 	O 	0.41960 0.80390 0.08323 -0.40400
O 	O 	0.16074 0.54338 0.04070 -0.39200
O 	O 	0.14200 0.66775 0.04075 -0.36800
O 	O 	0.29608 0.71294 0.07945 -0.70400
O 	O 	0.41029 0.69628 0.07770 -0.37200
O 	O 	0.18823 0.73053 0.08944 -0.36700
O 	O 	0.26336 0.82747 0.08803 -0.39900
Ni	Ni	0.33780 0.80538 0.08506 1.06600
H 	H 	0.27794 0.70936 0.02106 0.18600
H 	H 	0.29165 0.68899 0.09552 0.15700
C 	C 	0.16279 0.54979 0.06552 0.30000
O 	O 	0.33741 0.82701 0.04772 -0.40400
C 	C 	0.33263 0.56783 0.02278 0.29700
C 	C 	0.13250 0.64796 0.01669 0.31500
C 	C 	0.37202 0.81389 0.03204 0.31200
C 	C 	0.21654 0.78927 0.09895 0.26900
C 	C 	0.43605 0.75401 0.08870 0.27300
O 	O 	0.19519 0.60440 0.07686 -0.39500
O 	O 	0.17294 0.63928 0.00293 -0.38600
Ni	Ni	0.94311 0.05087 0.25409 1.09900
O 	O 	0.94709 0.11838 0.22700 -0.70400
Ni	Ni	0.90843 0.06045 0.19765 1.10000
O 	O 	0.98412 0.12306 0.28027 -0.36300
O 	O 	0.86478 0.05534 0.26337 -0.38200
O 	O 	0.90635 0.88700 0.25411 -0.40600
O 	O 	0.90758 0.13278 0.17379 -0.37000
O 	O 	0.91771 0.99443 0.22296 -0.70100
O 	O 	0.93368 0.97913 0.28006 -0.37100
O 	O 	0.85113 0.99073 0.17439 -0.37300
O 	O 	0.79771 0.94370 0.20836 -0.41700
Ni	Ni	0.85360 0.91639 0.23130 1.07100
H 	H 	0.92595 0.14726 0.23168 0.15800
H 	H 	0.94933 0.97967 0.21833 0.15200
O 	O 	0.82293 0.94503 0.26286 -0.39000
C 	C 	0.95529 0.18431 0.17200 0.26900
C 	C 	0.81895 0.00258 0.26531 0.29300
C 	C 	0.80411 0.94836 0.18368 0.26600
C 	C 	0.93632 0.92160 0.27383 0.27700
O 	O 	0.97541 0.05294 0.17736 -0.36600
C 	C 	0.95683 0.23653 0.15456 -0.06000
C 	C 	0.97157 0.30000 0.16432 -0.01100
C 	C 	0.96193 0.22696 0.12862 -0.01900
H 	H 	0.96706 0.30775 0.18434 0.01900
H 	H 	0.94953 0.17769 0.12098 0.05500
C 	C 	0.75553 0.91192 0.16665 -0.07300
C 	C 	0.74662 0.93860 0.14364 0.00700
C 	C 	0.69672 0.90824 0.12905 -0.05000
C 	C 	0.65542 0.84907 0.13692 0.00800
C 	C 	0.66407 0.82307 0.16048 0.00800
C 	C 	0.71493 0.85327 0.17465 -0.01900
C 	C 	0.62032 0.76971 0.17042 -0.03900
C 	C 	0.56697 0.74432 0.15803 -0.04100
C 	C 	0.55757 0.76905 0.13467 0.01200
C 	C 	0.60313 0.81822 0.12301 0.00700
C 	C 	0.59536 0.83452 0.09775 -0.04700
C 	C 	0.54090 0.81136 0.08623 0.01000
C 	C 	0.49423 0.76905 0.09913 -0.06200
C 	C 	0.50301 0.74551 0.12280 -0.02300
H 	H 	0.77707 0.98464 0.13759 0.04700
H 	H 	0.68884 0.93330 0.11268 0.05100
H 	H 	0.72187 0.83255 0.19245 0.02400
H 	H 	0.62689 0.74958 0.18838 0.03700
H 	H 	0.53284 0.70521 0.16663 0.03900
H 	H 	0.63133 0.86277 0.08667 0.05400
H 	H 	0.53484 0.82670 0.06727 0.05300
H 	H 	0.46722 0.71056 0.13227 0.03200
C 	C 	0.13704 0.98369 0.16988 0.00900
C 	C 	0.19696 0.00277 0.17106 -0.03900
C 	C 	0.22444 0.96740 0.15789 -0.04000
C 	C 	0.19239 0.91018 0.14452 0.01000
C 	C 	0.18825 0.81851 0.11727 -0.06800
C 	C 	0.22022 0.87639 0.13034 -0.01900
H 	H 	0.97279 0.94124 0.16040 0.04000
H 	H 	0.13566 0.06715 0.19148 0.04300
H 	H 	0.22250 0.04658 0.18146 0.04000
H 	H 	0.27086 0.98456 0.15809 0.03900
H 	H 	0.26653 0.89572 0.12908 0.02900
C 	C 	0.76638 0.00674 0.27589 -0.07100
C 	C 	0.76663 0.02607 0.30124 0.01100
C 	C 	0.71587 0.00599 0.31478 -0.04900
C 	C 	0.66334 0.96728 0.30280 0.00800
C 	C 	0.66313 0.95061 0.27677 0.01200
C 	C 	0.71405 0.97370 0.26326 -0.01900
C 	C 	0.61357 0.90586 0.26515 -0.04100
C 	C 	0.56591 0.87329 0.27944 -0.04000
C 	C 	0.56528 0.88826 0.30524 0.01100
C 	C 	0.61218 0.93902 0.31668 0.00800
C 	C 	0.60626 0.96073 0.34138 -0.04800
C 	C 	0.55847 0.92658 0.35549 0.00900
C 	C 	0.51485 0.87216 0.34493 -0.06300
C 	C 	0.51775 0.85379 0.31970 -0.02200
H 	H 	0.80694 0.05174 0.31113 0.04600
H 	H 	0.71880 0.01606 0.33490 0.05200
H 	H 	0.71392 0.95973 0.24348 0.04000
H 	H 	0.61309 0.89363 0.24519 0.03900
H 	H 	0.52923 0.83631 0.27037 0.03700
H 	H 	0.63654 0.00561 0.34923 0.05200
H 	H 	0.55507 0.94290 0.37462 0.05000
H 	H 	0.48278 0.81336 0.31124 0.03000
C 	C 	0.21120 0.50174 0.36687 -0.07000
C 	C 	0.21754 0.50492 0.34057 0.00700
C 	C 	0.18583 0.45221 0.32494 -0.05000
C 	C 	0.14519 0.39612 0.33540 0.00700
C 	C 	0.14108 0.39177 0.36208 0.01600
C 	C 	0.17289 0.44514 0.37755 -0.01200
H 	H 	0.24854 0.54743 0.33224 0.03400
H 	H 	0.19558 0.45391 0.30507 0.04100
H 	H 	0.16861 0.44215 0.39794 0.05400
C 	C 	0.17367 0.79445 0.35604 -0.06500
C 	C 	0.14787 0.76142 0.33365 -0.00100
C 	C 	0.15720 0.84471 0.36563 -0.01900
C 	C 	0.97308 0.83216 0.28434 0.00500
C 	C 	0.97018 0.89344 0.29022 -0.06100
H 	H 	0.16160 0.72373 0.32579 0.03400
H 	H 	0.17745 0.87047 0.38292 0.05400
H 	H 	0.94698 0.80258 0.26899 0.03800
C 	C 	0.42111 0.95488 0.48450 -0.07000
C 	C 	0.47935 0.99364 0.48372 0.02700
C 	C 	0.51317 0.98395 0.46416 0.05800
C 	C 	0.48856 0.93545 0.44570 -0.00000
C 	C 	0.43022 0.89686 0.44632 -0.08900
C 	C 	0.39640 0.90632 0.46598 0.12100
C 	C 	0.50537 0.04260 0.50398 0.02600
N 	N 	0.57256 0.02361 0.46294 -0.01600
H 	H 	0.51458 0.92890 0.43045 0.06800
N 	N 	0.33742 0.86560 0.46759 -0.02400
H 	H 	0.39521 0.96180 0.49971 0.08300
C 	C 	0.49570 0.10206 0.50450 0.06300
C 	C 	0.52405 0.14982 0.52278 -0.00100
C 	C 	0.56263 0.13918 0.54039 -0.08600
C 	C 	0.57110 0.07892 0.54022 0.11700
C 	C 	0.54221 0.03096 0.52212 -0.06600
N 	N 	0.45769 0.11446 0.48628 -0.01500
H 	H 	0.51665 0.19560 0.52306 0.08000
N 	N 	0.61075 0.06722 0.55768 -0.02400
H 	H 	0.54943 0.98507 0.52183 0.08300
O 	O 	0.29790 0.89147 0.46764 -0.09000
O 	O 	0.32369 0.80345 0.47122 -0.09900
O 	O 	0.61123 0.99653 0.46248 -0.09100
O 	O 	0.58766 0.08634 0.46053 -0.08300
O 	O 	0.65919 0.06570 0.54966 -0.09200
O 	O 	0.59476 0.04804 0.58044 -0.11300
O 	O 	0.41389 0.12815 0.49380 -0.09000
O 	O 	0.46938 0.11715 0.46234 -0.08300
C 	C 	0.94506 0.46058 0.47791 -0.06900
C 	C 	0.99438 0.44872 0.48585 0.03000
C 	C 	0.99134 0.40587 0.50596 0.05900
C 	C 	0.94041 0.38001 0.51928 -0.00100
C 	C 	0.89248 0.39635 0.51264 -0.08500
C 	C 	0.89396 0.43403 0.49101 0.11300
H 	H 	0.93906 0.34976 0.53554 0.06900
N 	N 	0.84395 0.44677 0.48270 -0.02900
H 	H 	0.94681 0.49187 0.46196 0.08600
C 	C 	0.15082 0.56864 0.45249 -0.08700
C 	C 	0.14105 0.57712 0.47826 0.12200
N 	N 	0.18097 0.62897 0.49309 -0.02300
O 	O 	0.84760 0.50583 0.47737 -0.10900
O 	O 	0.79528 0.39895 0.47944 -0.11400
O 	O 	0.19248 0.68915 0.48651 -0.08300
O 	O 	0.20225 0.61632 0.51424 -0.08400
C 	C 	0.55635 0.46425 0.48385 -0.07100
C 	C 	0.56225 0.52976 0.48720 0.02800
C 	C 	0.59364 0.56561 0.50831 0.05700
C 	C 	0.61792 0.53527 0.52604 -0.00500
C 	C 	0.61203 0.46968 0.52272 -0.09300
C 	C 	0.58167 0.43425 0.50127 0.11900
C 	C 	0.53250 0.55942 0.46943 0.02600
N 	N 	0.60079 0.63284 0.51182 -0.01700
H 	H 	0.64151 0.56284 0.54238 0.06300
N 	N 	0.57780 0.36837 0.49678 -0.02200
H 	H 	0.53239 0.43669 0.46758 0.08500
C 	C 	0.55173 0.57429 0.44452 0.05800
C 	C 	0.52125 0.59964 0.42762 0.00200
C 	C 	0.47214 0.61078 0.43543 -0.09500
C 	C 	0.45400 0.59779 0.46054 0.11100
C 	C 	0.48378 0.57137 0.47728 -0.06600
N 	N 	0.60200 0.56342 0.43633 -0.01600
H 	H 	0.53561 0.61030 0.40839 0.06100
N 	N 	0.40575 0.61224 0.46920 -0.04600
H 	H 	0.46927 0.56057 0.49648 0.08400
O 	O 	0.52786 0.32224 0.49453 -0.08400
O 	O 	0.62396 0.35531 0.49295 -0.10400
O 	O 	0.58596 0.65271 0.53292 -0.09600
O 	O 	0.62541 0.67483 0.49461 -0.08200
O 	O 	0.36256 0.56654 0.47878 -0.14100
O 	O 	0.40698 0.67199 0.46934 -0.13600
O 	O 	0.59947 0.52775 0.41622 -0.09600
O 	O 	0.65102 0.59256 0.44798 -0.08400
C 	C 	0.78866 0.13991 0.59649 -0.06100
C 	C 	0.84445 0.14944 0.58876 0.00600
C 	C 	0.87216 0.10756 0.59677 -0.04500
C 	C 	0.84528 0.05725 0.61374 0.00400
C 	C 	0.78654 0.04254 0.61871 0.01800
C 	C 	0.75881 0.08466 0.61044 -0.02000
C 	C 	0.75632 0.98620 0.63192 -0.04400
C 	C 	0.78436 0.94579 0.64113 -0.03400
C 	C 	0.84379 0.96327 0.63873 0.00400
C 	C 	0.87521 0.02039 0.62561 0.01300
C 	C 	0.93572 0.04234 0.62667 -0.05500
C 	C 	0.96392 0.00598 0.63902 0.01000
C 	C 	0.93271 0.94828 0.65126 -0.08100
C 	C 	0.87260 0.92642 0.65066 -0.01300
H 	H 	0.86633 0.18922 0.57641 0.05300
H 	H 	0.91318 0.11282 0.58892 0.05200
H 	H 	0.71471 0.07544 0.61542 0.04200
H 	H 	0.71090 0.97352 0.63504 0.04500
H 	H 	0.76014 0.90207 0.65109 0.04200
H 	H 	0.96121 0.08938 0.61949 0.04800
H 	H 	0.84834 0.88194 0.66019 0.04400
C 	C 	0.22619 0.09858 0.66947 -0.06700
C 	C 	0.24674 0.16505 0.66364 0.00500
C 	C 	0.30325 0.19573 0.65617 -0.04900
C 	C 	0.33974 0.15955 0.65323 0.00700
C 	C 	0.32007 0.09352 0.66068 0.01300
C 	C 	0.26302 0.06305 0.66807 -0.01800
C 	C 	0.35806 0.05935 0.66163 -0.03900
C 	C 	0.41529 0.08984 0.65536 -0.03700
C 	C 	0.43491 0.15384 0.64649 0.01000
C 	C 	0.39668 0.18846 0.64428 0.00900
C 	C 	0.41511 0.24890 0.63182 -0.04900
C 	C 	0.47162 0.27660 0.62389 0.00900
C 	C 	0.51018 0.24363 0.62720 -0.06800
C 	C 	0.49177 0.18246 0.63865 -0.01300
H 	H 	0.21922 0.19346 0.66535 0.03900
H 	H 	0.31907 0.24799 0.65416 0.04500
H 	H 	0.24785 0.01228 0.67345 0.04300
H 	H 	0.34348 0.00923 0.66774 0.04300
H 	H 	0.44421 0.06294 0.65680 0.04100
H 	H 	0.38533 0.27274 0.62678 0.05000
H 	H 	0.48494 0.32305 0.61448 0.04700
H 	H 	0.52092 0.15587 0.64046 0.03500
C 	C 	0.87149 0.49668 0.60454 -0.07500
C 	C 	0.89230 0.49336 0.62909 0.01100
C 	C 	0.94268 0.54148 0.63824 -0.05500
C 	C 	0.97420 0.59306 0.62249 0.01700
C 	C 	0.95318 0.59551 0.59747 0.00600
C 	C 	0.90229 0.54713 0.58868 -0.00600
C 	C 	0.98119 0.64853 0.58206 -0.02600
H 	H 	0.86884 0.45401 0.64131 0.02800
H 	H 	0.95536 0.53961 0.65779 0.04200
H 	H 	0.88624 0.54922 0.56959 0.03500
H 	H 	0.96656 0.64936 0.56264 0.04700
C 	C 	0.96812 0.56024 0.98152 0.03100
C 	C 	0.97730 0.54634 0.00690 0.06000
C 	C 	0.91623 0.51957 0.96726 0.02500
N 	N 	0.93395 0.49656 0.02000 -0.01600
C 	C 	0.87206 0.54353 0.96151 0.06000
C 	C 	0.82291 0.50395 0.94815 -0.00200
C 	C 	0.81732 0.44059 0.94051 -0.08600
C 	C 	0.86179 0.41686 0.94599 0.12300
C 	C 	0.91116 0.45665 0.95921 -0.07100
N 	N 	0.87713 0.60817 0.96910 -0.01600
H 	H 	0.78896 0.52250 0.94371 0.05900
N 	N 	0.85648 0.35201 0.93861 -0.02400
H 	H 	0.94528 0.43830 0.96354 0.08100
O 	O 	0.94621 0.45008 0.03093 -0.09800
O 	O 	0.88329 0.49995 0.02236 -0.08200
O 	O 	0.89494 0.34246 0.92448 -0.09900
O 	O 	0.81558 0.30239 0.94751 -0.09200
O 	O 	0.87305 0.64921 0.95223 -0.09800
O 	O 	0.88172 0.62450 0.99300 -0.08200
C 	C 	0.50407 0.07348 0.96723 -0.07200
C 	C 	0.49763 0.00852 0.96194 0.03200
C 	C 	0.52022 0.99269 0.93962 0.05300
C 	C 	0.54735 0.04168 0.92247 0.00400
C 	C 	0.55246 0.10645 0.92745 -0.09100
C 	C 	0.53195 0.12255 0.95027 0.12500
C 	C 	0.46625 0.95715 0.97964 0.02600
N 	N 	0.51496 0.92677 0.93415 -0.01600
H 	H 	0.56323 0.02905 0.90498 0.05400
N 	N 	0.54086 0.18892 0.95661 -0.02600
H 	H 	0.48762 0.08596 0.98459 0.08600
C 	C 	0.49077 0.95205 0.00345 0.05800
C 	C 	0.45919 0.90542 0.02054 0.00000
C 	C 	0.40350 0.86353 0.01407 -0.08900
C 	C 	0.37914 0.86810 0.99021 0.12300
C 	C 	0.41065 0.91483 0.97309 -0.06800
N 	N 	0.54776 0.99416 0.01031 -0.01700
H 	H 	0.47821 0.90138 0.03881 0.05800
N 	N 	0.32269 0.82491 0.98318 -0.02900
H 	H 	0.39167 0.91870 0.95480 0.08400
O 	O 	0.59205 0.22889 0.96274 -0.09600
O 	O 	0.49723 0.20786 0.95847 -0.07900
O 	O 	0.49101 0.89888 0.91290 -0.09700
O 	O 	0.53726 0.89604 0.94965 -0.08000
O 	O 	0.27865 0.82770 0.99521 -0.09800
O 	O 	0.31497 0.78611 0.96360 -0.08200
O 	O 	0.55719 0.02887 0.03113 -0.09900
O 	O 	0.59067 0.99439 0.99670 -0.08300
C 	C 	0.39308 0.52514 0.96306 -0.07100
C 	C 	0.39462 0.46367 0.96900 0.02800
C 	C 	0.37206 0.43451 0.99199 0.05600
C 	C 	0.35056 0.46842 0.00925 -0.00300
C 	C 	0.35138 0.53106 0.00376 -0.09800
C 	C 	0.37122 0.55881 0.98022 0.11600
C 	C 	0.42610 0.43386 0.95262 0.02800
N 	N 	0.37215 0.37109 0.99811 -0.01600
H 	H 	0.33408 0.44643 0.02710 0.05900
N 	N 	0.36896 0.62105 0.97365 -0.02100
H 	H 	0.40977 0.54727 0.94526 0.08400
C 	C 	0.40326 0.40676 0.92871 0.05700
C 	C 	0.43603 0.38355 0.91262 0.00300
C 	C 	0.49132 0.38739 0.92016 -0.09300
C 	C 	0.51344 0.41296 0.94434 0.11800
C 	C 	0.48091 0.43643 0.96031 -0.06700
N 	N 	0.34719 0.40354 0.92059 -0.01600
H 	H 	0.41866 0.36314 0.89417 0.06000
N 	N 	0.56867 0.41431 0.95284 -0.04400
H 	H 	0.49839 0.45694 0.97874 0.08600
O 	O 	0.41513 0.66745 0.96675 -0.08000
O 	O 	0.32014 0.63003 0.97303 -0.13600
O 	O 	0.39427 0.36189 0.01961 -0.09500
O 	O 	0.34741 0.32188 0.98281 -0.08200
O 	O 	0.57752 0.36007 0.95644 -0.14100
O 	O 	0.60863 0.46953 0.95893 -0.13400
O 	O 	0.33995 0.42811 0.89903 -0.10100
O 	O 	0.30294 0.37255 0.93397 -0.08800
C 	C 	0.79303 0.22752 0.83422 -0.06400
C 	C 	0.77899 0.20051 0.80982 -0.00200
C 	C 	0.81867 0.18303 0.79607 -0.04800
C 	C 	0.87393 0.19345 0.80651 0.00400
C 	C 	0.88708 0.21823 0.83167 0.01700
C 	C 	0.84731 0.23737 0.84498 -0.01400
C 	C 	0.93798 0.21934 0.84385 -0.04000
C 	C 	0.97416 0.19256 0.83193 -0.02800
C 	C 	0.96208 0.16826 0.80701 0.00600
C 	C 	0.91444 0.17361 0.79343 0.01100
C 	C 	0.90878 0.15923 0.76720 -0.05300
C 	C 	0.94274 0.12830 0.75603 0.00300
C 	C 	0.98465 0.11450 0.77046 -0.07900
C 	C 	0.99643 0.13758 0.79555 -0.00500
H 	H 	0.73648 0.19115 0.80175 0.01300
H 	H 	0.80481 0.15759 0.77816 0.04000
H 	H 	0.85748 0.25683 0.86416 0.05900
H 	H 	0.94829 0.23839 0.86305 0.05500
H 	H 	0.87959 0.17345 0.75530 0.04100
H 	H 	0.93561 0.11370 0.73623 0.01800
C 	C 	0.44456 0.12452 0.83233 -0.06100
C 	C 	0.44154 0.10269 0.80721 -0.00200
C 	C 	0.38852 0.06777 0.79560 -0.04700
C 	C 	0.33748 0.05230 0.80940 0.00400
C 	C 	0.34092 0.07545 0.83478 0.01600
C 	C 	0.39450 0.10990 0.84621 -0.01300
C 	C 	0.29069 0.06756 0.84793 -0.03700
C 	C 	0.23729 0.04190 0.83561 -0.03400
C 	C 	0.23298 0.02030 0.81036 0.00900
C 	C 	0.28249 0.01996 0.79781 0.01300
C 	C 	0.27557 0.98860 0.77388 -0.05600
C 	C 	0.22318 0.97156 0.76060 0.00400
C 	C 	0.17663 0.98274 0.77148 -0.07500
C 	C 	0.18019 0.00178 0.79705 -0.01100
H 	H 	0.48018 0.11459 0.79637 0.02000
H 	H 	0.38734 0.05646 0.77561 0.04200
H 	H 	0.39717 0.12706 0.86570 0.05900
H 	H 	0.29318 0.08428 0.86744 0.05300
H 	H 	0.19921 0.03973 0.84563 0.04800
H 	H 	0.30978 0.97608 0.76575 0.04300
H 	H 	0.21955 0.95255 0.74138 0.02300
H 	H 	0.14327 0.00721 0.80592 0.05200
C 	C 	0.74371 0.50877 0.85353 -0.07000
C 	C 	0.78744 0.56330 0.86402 0.01200
C 	C 	0.81649 0.61615 0.84891 -0.04900
C 	C 	0.80365 0.61416 0.82266 0.01000
C 	C 	0.75641 0.56133 0.81259 0.00900
C 	C 	0.72796 0.50813 0.82789 -0.01200
C 	C 	0.73688 0.56317 0.78764 -0.03800
C 	C 	0.76352 0.61670 0.77259 -0.04100
C 	C 	0.81264 0.66742 0.78156 0.01100
C 	C 	0.83476 0.66533 0.80633 0.00500
C 	C 	0.88896 0.71160 0.81349 -0.04800
C 	C 	0.91777 0.76182 0.79715 0.00100
C 	C 	0.89423 0.76569 0.77313 -0.06800
C 	C 	0.84131 0.71875 0.76555 -0.02300
H 	H 	0.79876 0.56501 0.88400 0.05000
H 	H 	0.84650 0.65945 0.85798 0.05300
H 	H 	0.69279 0.46697 0.81998 0.03900
H 	H 	0.70012 0.52349 0.78002 0.03900
H 	H 	0.74683 0.61784 0.75355 0.03900
H 	H 	0.91067 0.70675 0.83084 0.04900
H 	H 	0.95954 0.79628 0.80283 0.04500
H 	H 	0.82311 0.72115 0.74692 0.04300
