data_crystal

_cell_length_a 33.28109
_cell_length_b 23.78941
_cell_length_c 50.80952
_cell_angle_alpha 90.00098
_cell_angle_beta  90.00169
_cell_angle_gamma 90.00522

_symmetry_space_group_name_	'P 1'
_symmetry_space_group_name_H-M	'P 1'

loop_
_symmetry_equiv_pos_as_xyz
  x,y,z

loop_
_atom_site_label
_atom_site_type_symbol
_atom_site_fract_x
_atom_site_fract_y
_atom_site_fract_z
_atom_site_charge
Cu	Cu	0.14702 0.44021 0.38778 0.92900
Cu	Cu	0.21006 0.40280 0.34131 0.86700
Cu	Cu	0.18414 0.52263 0.34824 0.89700
Cu	Cu	0.13474 0.57091 0.39214 0.89400
C 	C 	0.13302 0.49298 0.43770 0.30600
O 	O 	0.08823 0.45281 0.38018 -0.36000
C 	C 	0.21312 0.47732 0.29770 0.30200
O 	O 	0.17639 0.51866 0.38560 -0.64100
O 	O 	0.16150 0.44445 0.34987 -0.63900
O 	O 	0.17066 0.36559 0.39630 -0.35500
O 	O 	0.22876 0.38758 0.37568 -0.44200
O 	O 	0.11542 0.53531 0.42542 -0.38300
O 	O 	0.20884 0.59645 0.34925 -0.37600
C 	C 	0.19698 0.63880 0.36421 0.30800
C 	C 	0.07579 0.49288 0.36440 0.30100
O 	O 	0.09896 0.53659 0.36003 -0.38800
O 	O 	0.16195 0.63780 0.37650 -0.39200
O 	O 	0.14126 0.44582 0.42513 -0.35200
C 	C 	0.20811 0.35352 0.39073 0.30500
O 	O 	0.19849 0.52102 0.31065 -0.37200
O 	O 	0.20575 0.42560 0.30549 -0.41800
H 	H 	0.20109 0.52418 0.39616 0.17100
H 	H 	0.13913 0.43803 0.33738 0.18100
Cu	Cu	0.15183 0.54776 0.60013 0.92900
Cu	Cu	0.21511 0.58679 0.64621 0.87300
Cu	Cu	0.18829 0.46673 0.64058 0.89700
Cu	Cu	0.13842 0.41706 0.59728 0.89900
C 	C 	0.13660 0.49277 0.55087 0.30500
O 	O 	0.09291 0.53671 0.60801 -0.35900
C 	C 	0.21795 0.51415 0.69045 0.30000
O 	O 	0.18053 0.46894 0.60317 -0.64000
O 	O 	0.16635 0.54522 0.63806 -0.63700
O 	O 	0.17609 0.62160 0.59074 -0.35700
O 	O 	0.23398 0.60002 0.61170 -0.44000
O 	O 	0.11897 0.45132 0.56371 -0.37000
O 	O 	0.21233 0.39242 0.64041 -0.37500
C 	C 	0.20021 0.34968 0.62579 0.30700
C 	C 	0.08011 0.49718 0.62399 0.30000
O 	O 	0.10320 0.45374 0.62901 -0.37800
O 	O 	0.16509 0.35053 0.61362 -0.38700
O 	O 	0.14587 0.54023 0.56286 -0.35800
C 	C 	0.21359 0.63357 0.59625 0.30700
O 	O 	0.20255 0.47011 0.67817 -0.37800
O 	O 	0.21062 0.56558 0.68222 -0.40700
H 	H 	0.20515 0.46243 0.59266 0.16700
H 	H 	0.14401 0.55256 0.65046 0.17400
Cu	Cu	0.83541 0.54980 0.38879 0.93000
Cu	Cu	0.77226 0.58691 0.34238 0.86800
Cu	Cu	0.79799 0.46730 0.34940 0.89700
Cu	Cu	0.84766 0.41913 0.39325 0.89600
C 	C 	0.84984 0.49733 0.43873 0.30700
O 	O 	0.89417 0.53701 0.38114 -0.35900
C 	C 	0.76952 0.51244 0.29866 0.30400
O 	O 	0.80599 0.47140 0.38675 -0.64000
O 	O 	0.82084 0.54534 0.35091 -0.63800
O 	O 	0.81174 0.62452 0.39711 -0.36900
O 	O 	0.75356 0.60194 0.37678 -0.43900
O 	O 	0.86723 0.45491 0.42645 -0.37500
O 	O 	0.77315 0.39356 0.35056 -0.37900
C 	C 	0.78491 0.35164 0.36580 0.31000
C 	C 	0.90645 0.49701 0.36527 0.30200
O 	O 	0.88327 0.45325 0.36101 -0.38700
O 	O 	0.82022 0.35231 0.37770 -0.38800
O 	O 	0.84123 0.54435 0.42617 -0.35600
C 	C 	0.77410 0.63610 0.39185 0.31200
O 	O 	0.78367 0.46870 0.31180 -0.37200
O 	O 	0.77665 0.56418 0.30653 -0.41900
H 	H 	0.78137 0.46596 0.39739 0.16900
H 	H 	0.84315 0.55161 0.33836 0.18100
Cu	Cu	0.83915 0.44672 0.60195 0.93000
Cu	Cu	0.77979 0.40615 0.65014 0.87100
Cu	Cu	0.79975 0.52746 0.64139 0.89800
Cu	Cu	0.85042 0.57768 0.59796 0.89700
C 	C 	0.85209 0.50029 0.55197 0.30600
O 	O 	0.89812 0.45916 0.60908 -0.36000
C 	C 	0.78026 0.47982 0.69413 0.30500
O 	O 	0.80940 0.52461 0.60427 -0.64000
O 	O 	0.82556 0.45119 0.64000 -0.63900
O 	O 	0.81482 0.37239 0.59348 -0.35500
O 	O 	0.75821 0.39249 0.61634 -0.44100
O 	O 	0.86912 0.54324 0.56419 -0.38100
O 	O 	0.77367 0.60019 0.63956 -0.37200
C 	C 	0.78691 0.64347 0.62572 0.30700
C 	C 	0.91088 0.49994 0.62434 0.29600
O 	O 	0.88726 0.54278 0.62938 -0.37500
O 	O 	0.82306 0.64312 0.61490 -0.38900
O 	O 	0.84448 0.45288 0.56457 -0.35000
C 	C 	0.77780 0.35975 0.60006 0.30400
O 	O 	0.77931 0.52346 0.67795 -0.38500
O 	O 	0.78832 0.42880 0.68560 -0.41000
H 	H 	0.78502 0.52953 0.59333 0.17300
H 	H 	0.84868 0.44744 0.65214 0.17500
Cu	Cu	0.64902 0.94485 0.38808 0.92900
Cu	Cu	0.70971 0.90751 0.34035 0.86900
Cu	Cu	0.68520 0.02712 0.34819 0.89900
Cu	Cu	0.63514 0.07480 0.39211 0.89500
C 	C 	0.63346 0.99689 0.43803 0.29800
O 	O 	0.58985 0.95630 0.38131 -0.35800
C 	C 	0.70826 0.98049 0.29596 0.30000
O 	O 	0.67740 0.02358 0.38553 -0.63800
O 	O 	0.66201 0.94930 0.35000 -0.64200
O 	O 	0.67397 0.87094 0.39623 -0.36900
O 	O 	0.73086 0.89342 0.37428 -0.43800
O 	O 	0.61570 0.03860 0.42534 -0.37200
O 	O 	0.70961 0.10112 0.34941 -0.37300
C 	C 	0.69709 0.14316 0.36434 0.30700
C 	C 	0.57679 0.99521 0.36512 0.29400
O 	O 	0.59931 0.03939 0.36032 -0.38100
O 	O 	0.66169 0.14190 0.37612 -0.38700
O 	O 	0.64487 0.95096 0.42547 -0.35200
C 	C 	0.71145 0.85980 0.39027 0.30800
O 	O 	0.70125 0.02531 0.31075 -0.36700
O 	O 	0.70160 0.92922 0.30470 -0.42100
H 	H 	0.70200 0.02972 0.39611 0.16600
H 	H 	0.63914 0.94335 0.33786 0.17800
Cu	Cu	0.65028 0.05216 0.60190 0.93100
Cu	Cu	0.71354 0.08884 0.64833 0.86800
Cu	Cu	0.68682 0.96933 0.64134 0.89600
Cu	Cu	0.63751 0.92183 0.59741 0.89800
C 	C 	0.63396 0.00048 0.55197 0.30700
O 	O 	0.59141 0.03962 0.60962 -0.35100
C 	C 	0.71608 0.01407 0.69190 0.30900
O 	O 	0.67942 0.97364 0.60395 -0.64400
O 	O 	0.66471 0.04779 0.63977 -0.63600
O 	O 	0.67405 0.12676 0.59349 -0.35300
O 	O 	0.73218 0.10435 0.61397 -0.44300
O 	O 	0.61669 0.95849 0.56471 -0.38000
O 	O 	0.71106 0.89523 0.64039 -0.37600
C 	C 	0.69947 0.85310 0.62519 0.30700
C 	C 	0.57906 0.99927 0.62531 0.29200
O 	O 	0.60255 0.95599 0.62982 -0.37800
O 	O 	0.66485 0.85442 0.61241 -0.38800
O 	O 	0.64495 0.04656 0.56454 -0.34800
C 	C 	0.71156 0.13862 0.59901 0.30300
O 	O 	0.70095 0.97070 0.67896 -0.37900
O 	O 	0.70919 0.06596 0.68415 -0.42100
H 	H 	0.70412 0.96790 0.59343 0.16600
H 	H 	0.64239 0.05445 0.65227 0.17600
Cu	Cu	0.33557 0.04544 0.38802 0.93100
Cu	Cu	0.27615 0.08593 0.33978 0.87300
Cu	Cu	0.29681 0.96468 0.34837 0.89600
Cu	Cu	0.34802 0.91468 0.39153 0.89500
C 	C 	0.34969 0.99154 0.43772 0.30000
O 	O 	0.39455 0.03349 0.38093 -0.35100
C 	C 	0.27747 0.01248 0.29570 0.31100
O 	O 	0.30651 0.96715 0.38549 -0.64300
O 	O 	0.32209 0.04129 0.34994 -0.63700
O 	O 	0.31091 0.11945 0.39666 -0.35300
O 	O 	0.25451 0.09930 0.37358 -0.44100
O 	O 	0.36694 0.94919 0.42523 -0.37500
O 	O 	0.27126 0.89158 0.35000 -0.37400
C 	C 	0.28459 0.84842 0.36388 0.30600
C 	C 	0.40739 0.99406 0.36495 0.29500
O 	O 	0.38446 0.95036 0.36005 -0.38700
O 	O 	0.32076 0.84895 0.37469 -0.39200
O 	O 	0.34085 0.03878 0.42536 -0.34900
C 	C 	0.27398 0.13212 0.38989 0.30300
O 	O 	0.27612 0.96894 0.31192 -0.39200
O 	O 	0.28498 0.06362 0.30429 -0.40900
H 	H 	0.28221 0.96162 0.39643 0.16700
H 	H 	0.34519 0.04550 0.33782 0.18000
Cu	Cu	0.33978 0.94201 0.60093 0.92800
Cu	Cu	0.27706 0.90300 0.64717 0.87200
Cu	Cu	0.30137 0.02370 0.64026 0.89900
Cu	Cu	0.34995 0.07306 0.59630 0.90000
C 	C 	0.35295 0.99470 0.55091 0.30000
O 	O 	0.39836 0.95618 0.60876 -0.36000
C 	C 	0.27264 0.97761 0.69064 0.29800
O 	O 	0.30914 0.01964 0.60291 -0.63700
O 	O 	0.32501 0.94611 0.63872 -0.63900
O 	O 	0.31703 0.86678 0.59250 -0.35800
O 	O 	0.25840 0.88758 0.61277 -0.43800
O 	O 	0.36975 0.03786 0.56304 -0.37100
O 	O 	0.27568 0.09686 0.63919 -0.37300
C 	C 	0.28740 0.13997 0.62465 0.30800
C 	C 	0.41014 0.99733 0.62416 0.29400
O 	O 	0.38605 0.04002 0.62850 -0.37400
O 	O 	0.32205 0.13945 0.61190 -0.38700
O 	O 	0.34579 0.94737 0.56361 -0.35300
C 	C 	0.27945 0.85436 0.59753 0.30700
O 	O 	0.28700 0.02167 0.67784 -0.37100
O 	O 	0.28105 0.92613 0.68295 -0.41600
H 	H 	0.28436 0.02433 0.59235 0.17400
H 	H 	0.34741 0.94034 0.65126 0.17300
Cu	Cu	0.64997 0.54412 0.10140 0.93000
Cu	Cu	0.71085 0.58359 0.14915 0.87100
Cu	Cu	0.68883 0.46265 0.14078 0.89800
Cu	Cu	0.63570 0.41352 0.09816 0.90000
C 	C 	0.63493 0.48990 0.05185 0.30500
O 	O 	0.59093 0.53433 0.10914 -0.36000
C 	C 	0.70902 0.51026 0.19329 0.30900
O 	O 	0.67800 0.46502 0.10377 -0.63900
O 	O 	0.66431 0.53978 0.13936 -0.63900
O 	O 	0.67553 0.61733 0.09232 -0.35400
O 	O 	0.73199 0.59631 0.11517 -0.44100
O 	O 	0.61711 0.44804 0.06440 -0.37600
O 	O 	0.71339 0.38884 0.13895 -0.37500
C 	C 	0.69905 0.34640 0.12504 0.30800
C 	C 	0.57759 0.49446 0.12471 0.29900
O 	O 	0.60039 0.45074 0.12974 -0.37500
O 	O 	0.66229 0.34761 0.11520 -0.38500
O 	O 	0.64363 0.53735 0.06412 -0.35000
C 	C 	0.71260 0.62952 0.09899 0.30300
O 	O 	0.71080 0.46703 0.17691 -0.38500
O 	O 	0.70236 0.56166 0.18473 -0.42000
H 	H 	0.70192 0.45890 0.09254 0.17300
H 	H 	0.64147 0.54436 0.15166 0.17400
Cu	Cu	0.65014 0.43770 0.88873 0.92900
Cu	Cu	0.71271 0.40013 0.84199 0.86700
Cu	Cu	0.68718 0.52002 0.84918 0.89600
Cu	Cu	0.63854 0.56844 0.89315 0.89900
C 	C 	0.63629 0.49047 0.93865 0.30500
O 	O 	0.59133 0.45072 0.88121 -0.35700
C 	C 	0.71561 0.47499 0.79847 0.30200
O 	O 	0.67991 0.51590 0.88654 -0.64100
O 	O 	0.66433 0.44198 0.85078 -0.63800
O 	O 	0.67364 0.36294 0.89710 -0.35500
O 	O 	0.73164 0.38472 0.87629 -0.44600
O 	O 	0.61892 0.53288 0.92636 -0.36900
O 	O 	0.71223 0.59352 0.85018 -0.38300
C 	C 	0.69973 0.63697 0.86419 0.30400
C 	C 	0.57900 0.49137 0.86571 0.30000
O 	O 	0.60268 0.53439 0.86109 -0.37700
O 	O 	0.66572 0.63550 0.87766 -0.37500
O 	O 	0.64463 0.44332 0.92612 -0.35300
C 	C 	0.71103 0.35075 0.89141 0.30500
O 	O 	0.70105 0.51859 0.81151 -0.37300
O 	O 	0.70825 0.42321 0.80619 -0.42000
H 	H 	0.70473 0.52128 0.89699 0.16400
H 	H 	0.64185 0.43579 0.83835 0.17400
Cu	Cu	0.33709 0.44839 0.10122 0.93000
Cu	Cu	0.27720 0.40763 0.14913 0.87100
Cu	Cu	0.29774 0.52887 0.14077 0.89800
Cu	Cu	0.34892 0.57932 0.09767 0.89900
C 	C 	0.35055 0.50258 0.05146 0.30500
O 	O 	0.39601 0.46041 0.10857 -0.36000
C 	C 	0.27773 0.48082 0.19332 0.30800
O 	O 	0.30764 0.52646 0.10367 -0.64000
O 	O 	0.32324 0.45242 0.13925 -0.63900
O 	O 	0.31267 0.37429 0.09245 -0.35400
O 	O 	0.25595 0.39430 0.11522 -0.44100
O 	O 	0.36771 0.54518 0.06387 -0.37700
O 	O 	0.27192 0.60177 0.13908 -0.37200
C 	C 	0.28531 0.64508 0.12532 0.30600
C 	C 	0.40875 0.50062 0.12416 0.30000
O 	O 	0.38539 0.54380 0.12915 -0.37600
O 	O 	0.32157 0.64472 0.11465 -0.38800
O 	O 	0.34272 0.45503 0.06389 -0.35000
C 	C 	0.27565 0.36158 0.09897 0.30300
O 	O 	0.27700 0.52460 0.17722 -0.38400
O 	O 	0.28550 0.42979 0.18469 -0.42100
H 	H 	0.28336 0.53171 0.09268 0.17300
H 	H 	0.34624 0.44831 0.15146 0.17400
Cu	Cu	0.33885 0.54998 0.88763 0.92900
Cu	Cu	0.28014 0.58833 0.83904 0.86900
Cu	Cu	0.30089 0.46798 0.84823 0.89700
Cu	Cu	0.34796 0.41915 0.89321 0.89900
C 	C 	0.34991 0.49879 0.93824 0.30500
O 	O 	0.39773 0.53481 0.88141 -0.35800
C 	C 	0.28010 0.51328 0.79542 0.30500
O 	O 	0.30781 0.47291 0.88561 -0.64100
O 	O 	0.32643 0.54434 0.84950 -0.64000
O 	O 	0.31569 0.62555 0.89473 -0.37000
O 	O 	0.25860 0.60449 0.87266 -0.43800
O 	O 	0.36674 0.45512 0.92657 -0.36900
O 	O 	0.27396 0.39577 0.84988 -0.37500
C 	C 	0.28518 0.35317 0.86489 0.30800
C 	C 	0.40994 0.49348 0.86627 0.30000
O 	O 	0.38588 0.45089 0.86162 -0.37600
O 	O 	0.32009 0.35308 0.87729 -0.38300
O 	O 	0.34264 0.54563 0.92514 -0.35400
C 	C 	0.27843 0.63774 0.88859 0.31100
O 	O 	0.28645 0.46876 0.81053 -0.37400
O 	O 	0.28814 0.56454 0.80366 -0.42200
H 	H 	0.28272 0.46897 0.89593 0.16600
H 	H 	0.34969 0.54833 0.83749 0.17300
Cu	Cu	0.14889 0.05340 0.10075 0.93100
Cu	Cu	0.21223 0.09063 0.14709 0.86900
Cu	Cu	0.18533 0.97112 0.14051 0.89600
Cu	Cu	0.13575 0.92295 0.09686 0.89700
C 	C 	0.13328 0.00028 0.05115 0.32100
O 	O 	0.09004 0.04092 0.10852 -0.35800
C 	C 	0.21456 0.01655 0.19095 0.30900
O 	O 	0.17783 0.97473 0.10312 -0.64200
O 	O 	0.16335 0.04963 0.13864 -0.63600
O 	O 	0.17267 0.12785 0.09205 -0.35300
O 	O 	0.23077 0.10581 0.11268 -0.44200
O 	O 	0.11523 0.95920 0.06402 -0.38100
O 	O 	0.20944 0.89691 0.13981 -0.37700
C 	C 	0.19780 0.85464 0.12473 0.30900
C 	C 	0.07781 0.00147 0.12473 0.30500
O 	O 	0.10100 0.95785 0.12923 -0.39500
O 	O 	0.16306 0.85577 0.11208 -0.38900
O 	O 	0.14345 0.04712 0.06340 -0.35900
C 	C 	0.21010 0.13997 0.09768 0.30500
O 	O 	0.19945 0.97303 0.17811 -0.37800
O 	O 	0.20784 0.06835 0.18299 -0.41800
H 	H 	0.20249 0.96864 0.09260 0.17000
H 	H 	0.14107 0.05661 0.15113 0.18100
Cu	Cu	0.15202 0.94527 0.88780 0.92900
Cu	Cu	0.21379 0.90868 0.84036 0.87000
Cu	Cu	0.18814 0.02798 0.84800 0.90000
Cu	Cu	0.13603 0.07506 0.89113 0.89800
C 	C 	0.13521 0.99838 0.93729 0.29900
O 	O 	0.09282 0.95479 0.88038 -0.36100
C 	C 	0.21160 0.98111 0.79583 0.30200
O 	O 	0.17918 0.02490 0.88524 -0.63600
O 	O 	0.16572 0.94968 0.84978 -0.64100
O 	O 	0.17796 0.87220 0.89650 -0.36800
O 	O 	0.23456 0.89558 0.87442 -0.43700
O 	O 	0.11652 0.03874 0.92426 -0.36800
O 	O 	0.21150 0.10264 0.84932 -0.37400
C 	C 	0.19798 0.14431 0.86409 0.30900
C 	C 	0.07947 0.99332 0.86408 0.29400
O 	O 	0.10165 0.03776 0.85918 -0.38300
O 	O 	0.16195 0.14240 0.87499 -0.38700
O 	O 	0.14673 0.95196 0.92515 -0.35800
C 	C 	0.21539 0.86134 0.89024 0.31100
O 	O 	0.20618 0.02586 0.81094 -0.37000
O 	O 	0.20549 0.92980 0.80467 -0.42200
H 	H 	0.20338 0.03192 0.89610 0.17500
H 	H 	0.14308 0.94330 0.83750 0.17700
Cu	Cu	0.83808 0.93943 0.10151 0.92800
Cu	Cu	0.77571 0.90095 0.14819 0.87000
Cu	Cu	0.79988 0.02163 0.14074 0.89900
Cu	Cu	0.84872 0.07037 0.09670 0.89600
C 	C 	0.85170 0.99175 0.05146 0.29900
O 	O 	0.89669 0.95380 0.10911 -0.35800
C 	C 	0.77117 0.97645 0.19128 0.29400
O 	O 	0.80771 0.01719 0.10339 -0.63800
O 	O 	0.82355 0.94399 0.13940 -0.64000
O 	O 	0.81538 0.86402 0.09330 -0.35500
O 	O 	0.75703 0.88488 0.11390 -0.44500
O 	O 	0.86869 0.03464 0.06362 -0.36900
O 	O 	0.77422 0.09477 0.13942 -0.37800
C 	C 	0.78570 0.13715 0.12437 0.30900
C 	C 	0.90849 0.99440 0.12482 0.29700
O 	O 	0.88472 0.03754 0.12900 -0.38200
O 	O 	0.82064 0.13686 0.11202 -0.38600
O 	O 	0.84380 0.94461 0.06413 -0.35600
C 	C 	0.77804 0.85124 0.09886 0.30400
O 	O 	0.78562 0.02028 0.17836 -0.36900
O 	O 	0.77974 0.92485 0.18386 -0.40800
H 	H 	0.78297 0.02195 0.09280 0.16400
H 	H 	0.84603 0.93842 0.15190 0.17900
Cu	Cu	0.83883 0.04330 0.88851 0.93200
Cu	Cu	0.77864 0.08323 0.84068 0.87100
Cu	Cu	0.79998 0.96239 0.84902 0.89700
Cu	Cu	0.85103 0.91259 0.89213 0.89500
C 	C 	0.85269 0.98950 0.93825 0.29900
O 	O 	0.89771 0.03105 0.88118 -0.35400
C 	C 	0.77983 0.01011 0.79643 0.31500
O 	O 	0.80955 0.96509 0.88612 -0.64300
O 	O 	0.82503 0.03911 0.85049 -0.63700
O 	O 	0.81429 0.11731 0.89717 -0.35500
O 	O 	0.75751 0.09661 0.87462 -0.44100
O 	O 	0.87004 0.94713 0.92580 -0.38300
O 	O 	0.77443 0.88936 0.85074 -0.37900
C 	C 	0.78843 0.84542 0.86379 0.30700
C 	C 	0.91023 0.99155 0.86514 0.29400
O 	O 	0.88717 0.94789 0.86043 -0.38500
O 	O 	0.82394 0.84650 0.87551 -0.38600
O 	O 	0.84439 0.03689 0.92583 -0.34700
C 	C 	0.77716 0.12962 0.89075 0.30400
O 	O 	0.77956 0.96625 0.81249 -0.38800
O 	O 	0.78703 0.06129 0.80510 -0.42000
H 	H 	0.78524 0.95963 0.89706 0.16800
H 	H 	0.84795 0.04358 0.83825 0.18200
C 	C 	0.85200 0.99079 0.02261 -0.10800
C 	C 	0.81996 0.01458 0.00864 -0.05400
C 	C 	0.81990 0.01408 0.98108 0.17500
C 	C 	0.85215 0.98942 0.96729 -0.10700
C 	C 	0.88416 0.96538 0.98137 -0.05900
C 	C 	0.88404 0.96572 0.00893 0.17500
H 	H 	0.79498 0.03334 0.01914 0.05100
O 	O 	0.78753 0.03549 0.96769 -0.29000
H 	H 	0.90935 0.94693 0.97097 0.06800
O 	O 	0.91587 0.94312 0.02244 -0.28100
H 	H 	0.90876 0.90306 0.02521 0.15700
H 	H 	0.79344 0.07607 0.96538 0.16300
C 	C 	0.03690 0.99216 0.85582 -0.11000
C 	C 	0.01558 0.04276 0.85316 -0.05500
C 	C 	0.97352 0.04264 0.85345 0.17700
C 	C 	0.95251 0.99154 0.85633 -0.10900
C 	C 	0.97375 0.94067 0.85487 -0.06000
C 	C 	0.01582 0.94078 0.85462 0.17100
H 	H 	0.03150 0.08247 0.85243 0.06000
O 	O 	0.95300 0.09233 0.85068 -0.29200
H 	H 	0.95781 0.90097 0.85551 0.06100
O 	O 	0.03626 0.89080 0.85293 -0.29200
H 	H 	0.03756 0.87621 0.87120 0.15400
H 	H 	0.95212 0.10906 0.86856 0.15500
C 	C 	0.03530 0.00046 0.13319 -0.09300
C 	C 	0.01538 0.94879 0.13607 -0.07100
C 	C 	0.97333 0.94672 0.13610 0.17700
C 	C 	0.95093 0.99666 0.13330 -0.11200
C 	C 	0.97084 0.04862 0.13453 -0.04900
C 	C 	0.01289 0.05071 0.13447 0.16700
H 	H 	0.03234 0.90995 0.13676 0.06300
O 	O 	0.95420 0.89601 0.13912 -0.29300
H 	H 	0.95385 0.08746 0.13399 0.06000
O 	O 	0.03201 0.10173 0.13597 -0.28800
H 	H 	0.03260 0.11630 0.11768 0.15700
H 	H 	0.95349 0.87906 0.12128 0.15700
C 	C 	0.13431 0.99907 0.96644 -0.10300
C 	C 	0.13395 0.94820 0.98050 -0.05900
C 	C 	0.13363 0.94819 0.00806 0.17300
C 	C 	0.13316 0.99953 0.02196 -0.11600
C 	C 	0.13375 0.05040 0.00789 -0.04700
C 	C 	0.13459 0.05039 0.98034 0.17200
H 	H 	0.13400 0.90844 0.97009 0.07500
O 	O 	0.13581 0.89802 0.02130 -0.29400
H 	H 	0.13371 0.09017 0.01829 0.07600
O 	O 	0.13775 0.10050 0.96712 -0.29000
H 	H 	0.10974 0.11397 0.96493 0.15200
H 	H 	0.10761 0.88500 0.02299 0.15200
C 	C 	0.26148 0.30097 0.86439 -0.10400
C 	C 	0.24889 0.27673 0.88815 -0.05800
C 	C 	0.22782 0.22579 0.88814 0.16700
C 	C 	0.21998 0.19801 0.86422 -0.10300
C 	C 	0.23280 0.22206 0.84044 -0.05600
C 	C 	0.25314 0.27364 0.84041 0.17100
H 	H 	0.25549 0.29736 0.90667 0.05500
O 	O 	0.21657 0.20193 0.91159 -0.28900
H 	H 	0.22679 0.20096 0.82194 0.06700
O 	O 	0.26646 0.29589 0.81708 -0.28000
H 	H 	0.24391 0.31924 0.81050 0.15300
H 	H 	0.18964 0.21773 0.91550 0.15000
C 	C 	0.26251 0.69438 0.89440 -0.11700
C 	C 	0.28882 0.74055 0.89537 -0.06300
C 	C 	0.27370 0.79547 0.89570 0.16200
C 	C 	0.23188 0.80461 0.89527 -0.11800
C 	C 	0.20572 0.75837 0.89707 -0.06300
C 	C 	0.22083 0.70348 0.89649 0.16400
H 	H 	0.32103 0.73401 0.89479 0.06300
O 	O 	0.29981 0.84002 0.89708 -0.27700
H 	H 	0.17351 0.76485 0.89781 0.06400
O 	O 	0.19488 0.65886 0.89858 -0.27900
H 	H 	0.18523 0.65167 0.88042 0.13900
H 	H 	0.30796 0.84759 0.87863 0.13700
C 	C 	0.26272 0.69858 0.12621 -0.10200
C 	C 	0.28355 0.74991 0.12723 -0.06000
C 	C 	0.26259 0.80095 0.12711 0.16900
C 	C 	0.22028 0.80108 0.12596 -0.10300
C 	C 	0.19943 0.74975 0.12520 -0.05800
C 	C 	0.22039 0.69871 0.12532 0.16800
H 	H 	0.31609 0.75032 0.12805 0.06700
O 	O 	0.28359 0.85057 0.12677 -0.29100
H 	H 	0.16689 0.74934 0.12443 0.06600
O 	O 	0.19952 0.64917 0.12320 -0.28800
H 	H 	0.19256 0.63856 0.14153 0.15300
H 	H 	0.28844 0.85993 0.14553 0.15100
C 	C 	0.22622 0.19653 0.09179 -0.11500
C 	C 	0.26791 0.20412 0.08980 -0.06200
C 	C 	0.28450 0.25815 0.09059 0.16000
C 	C 	0.25912 0.30559 0.09241 -0.11500
C 	C 	0.21734 0.29813 0.09140 -0.06200
C 	C 	0.20077 0.24406 0.09160 0.16100
H 	H 	0.28765 0.16794 0.08894 0.06200
O 	O 	0.32549 0.26434 0.09011 -0.27100
H 	H 	0.19758 0.33434 0.09179 0.06300
O 	O 	0.15979 0.23787 0.09212 -0.27100
H 	H 	0.15238 0.23839 0.11103 0.13400
H 	H 	0.33410 0.26215 0.10877 0.13200
C 	C 	0.34991 0.50265 0.02241 -0.09900
C 	C 	0.38147 0.52773 0.00829 -0.05700
C 	C 	0.38137 0.52718 0.98074 0.17500
C 	C 	0.34981 0.50083 0.96709 -0.10000
C 	C 	0.31816 0.47612 0.98110 -0.06000
C 	C 	0.31806 0.47688 0.00866 0.17000
H 	H 	0.40634 0.54709 0.01866 0.07400
O 	O 	0.41285 0.55065 0.96720 -0.27200
H 	H 	0.29356 0.45635 0.97062 0.05300
O 	O 	0.28603 0.45455 0.02207 -0.28900
H 	H 	0.29256 0.41417 0.02442 0.16400
H 	H 	0.40510 0.59045 0.96434 0.15800
C 	C 	0.76590 0.79189 0.86264 -0.10300
C 	C 	0.72375 0.79276 0.86317 -0.06000
C 	C 	0.70187 0.74251 0.86270 0.16800
C 	C 	0.72220 0.69047 0.86252 -0.10300
C 	C 	0.76431 0.68961 0.86119 -0.06100
C 	C 	0.78620 0.73989 0.86118 0.16700
H 	H 	0.70785 0.83248 0.86404 0.06200
O 	O 	0.66066 0.74438 0.86254 -0.27900
H 	H 	0.78019 0.64986 0.86049 0.06000
O 	O 	0.82721 0.73813 0.85856 -0.28000
H 	H 	0.83771 0.73333 0.87670 0.14700
H 	H 	0.65300 0.74529 0.84367 0.15000
C 	C 	0.72724 0.29438 0.89754 -0.11600
C 	C 	0.76893 0.28706 0.89971 -0.06200
C 	C 	0.78568 0.23313 0.89909 0.16000
C 	C 	0.76044 0.18553 0.89725 -0.11600
C 	C 	0.71863 0.19276 0.89812 -0.06300
C 	C 	0.70192 0.24673 0.89775 0.16000
H 	H 	0.78856 0.32336 0.90057 0.06000
O 	O 	0.82667 0.22717 0.89977 -0.27300
H 	H 	0.69897 0.15644 0.89774 0.06200
O 	O 	0.66093 0.25270 0.89706 -0.27100
H 	H 	0.65368 0.25196 0.87812 0.13200
H 	H 	0.83548 0.22932 0.88114 0.13300
C 	C 	0.45220 0.49222 0.85727 -0.10400
C 	C 	0.47337 0.54302 0.85476 -0.05800
C 	C 	0.51543 0.54327 0.85469 0.16800
C 	C 	0.53665 0.49215 0.85686 -0.10300
C 	C 	0.51542 0.44124 0.85515 -0.05800
C 	C 	0.47336 0.44100 0.85554 0.16900
H 	H 	0.45726 0.58261 0.85450 0.06100
O 	O 	0.53552 0.59362 0.85445 -0.28500
H 	H 	0.53152 0.40164 0.85524 0.06300
O 	O 	0.45327 0.39068 0.85624 -0.28500
H 	H 	0.44826 0.38088 0.83755 0.15000
H 	H 	0.54007 0.60217 0.83558 0.14900
C 	C 	0.72110 0.29278 0.12492 -0.10300
C 	C 	0.73425 0.26906 0.14870 -0.05700
C 	C 	0.75445 0.21737 0.14877 0.17100
C 	C 	0.76232 0.18962 0.12483 -0.10500
C 	C 	0.74943 0.21356 0.10108 -0.05900
C 	C 	0.72848 0.26458 0.10106 0.16700
H 	H 	0.72858 0.29048 0.16716 0.06900
O 	O 	0.76807 0.19540 0.17208 -0.27900
H 	H 	0.75567 0.19258 0.08258 0.05400
O 	O 	0.71679 0.28804 0.07761 -0.29300
H 	H 	0.68973 0.27231 0.07402 0.14700
H 	H 	0.74561 0.17213 0.17887 0.15600
C 	C 	0.76231 0.79463 0.09268 -0.11600
C 	C 	0.72078 0.78698 0.08969 -0.06100
C 	C 	0.70417 0.73294 0.09016 0.15900
C 	C 	0.72946 0.68553 0.09271 -0.11500
C 	C 	0.77128 0.69306 0.09272 -0.06300
C 	C 	0.78778 0.74717 0.09323 0.16000
H 	H 	0.70108 0.82313 0.08829 0.06000
O 	O 	0.66326 0.72671 0.08859 -0.27200
H 	H 	0.79105 0.65690 0.09366 0.06200
O 	O 	0.82869 0.75349 0.09482 -0.27300
H 	H 	0.83492 0.75329 0.11392 0.13300
H 	H 	0.65348 0.72921 0.10700 0.13400
C 	C 	0.45089 0.49996 0.13337 -0.10500
C 	C 	0.47078 0.44821 0.13605 -0.05800
C 	C 	0.51282 0.44590 0.13603 0.16700
C 	C 	0.53529 0.49591 0.13364 -0.10500
C 	C 	0.51535 0.54785 0.13522 -0.05800
C 	C 	0.47332 0.55014 0.13489 0.16800
H 	H 	0.45369 0.40943 0.13643 0.06200
O 	O 	0.53164 0.39461 0.13636 -0.28900
H 	H 	0.53243 0.58665 0.13496 0.06200
O 	O 	0.45448 0.60138 0.13398 -0.28900
H 	H 	0.44975 0.61179 0.15263 0.14900
H 	H 	0.53607 0.38606 0.15524 0.15000
C 	C 	0.63593 0.48984 0.96750 -0.10000
C 	C 	0.66857 0.51206 0.98144 -0.06000
C 	C 	0.66849 0.51208 0.00900 0.17000
C 	C 	0.63554 0.48939 0.02282 -0.09900
C 	C 	0.60293 0.46688 0.00878 -0.05700
C 	C 	0.60315 0.46679 0.98122 0.17600
H 	H 	0.69409 0.52926 0.97092 0.05200
O 	O 	0.70134 0.53206 0.02238 -0.29000
H 	H 	0.57723 0.44995 0.01920 0.07400
O 	O 	0.57077 0.44570 0.96773 -0.27200
H 	H 	0.57679 0.40526 0.96509 0.16000
H 	H 	0.69645 0.57293 0.02456 0.16200
C 	C 	0.25359 0.98570 0.71651 -0.11300
C 	C 	0.27216 0.01944 0.73562 -0.05000
C 	C 	0.25695 0.02123 0.76134 0.17100
C 	C 	0.22304 0.98878 0.76807 -0.11400
C 	C 	0.20297 0.95817 0.74849 -0.05800
C 	C 	0.21820 0.95625 0.72285 0.16600
H 	H 	0.29923 0.04262 0.73084 0.06600
O 	O 	0.27685 0.05158 0.78024 -0.28900
H 	H 	0.17619 0.93440 0.75335 0.06000
O 	O 	0.19810 0.92634 0.70388 -0.30200
H 	H 	0.20856 0.88740 0.70523 0.13800
H 	H 	0.26464 0.08960 0.77970 0.15900
C 	C 	0.26539 0.00489 0.26803 -0.10200
C 	C 	0.23022 0.97487 0.26204 -0.06900
C 	C 	0.21429 0.97616 0.23650 0.16600
C 	C 	0.23359 0.00781 0.21678 -0.10300
C 	C 	0.27003 0.03488 0.22242 -0.06200
C 	C 	0.28616 0.03307 0.24783 0.16600
H 	H 	0.21421 0.95266 0.27743 0.06300
O 	O 	0.17850 0.94971 0.23138 -0.28300
H 	H 	0.28550 0.05829 0.20717 0.04500
O 	O 	0.32148 0.06059 0.25311 -0.28700
H 	H 	0.34293 0.03241 0.25001 0.14600
H 	H 	0.18590 0.91097 0.22604 0.15500
C 	C 	0.35080 0.99209 0.46656 -0.10700
C 	C 	0.31975 0.96666 0.48085 -0.06000
C 	C 	0.32021 0.96746 0.50841 0.16900
C 	C 	0.35201 0.99406 0.52187 -0.10600
C 	C 	0.38311 0.01952 0.50747 -0.05200
C 	C 	0.38245 0.01890 0.47993 0.18100
H 	H 	0.29508 0.94653 0.47060 0.05100
O 	O 	0.28870 0.94450 0.52211 -0.29100
H 	H 	0.40799 0.03939 0.51762 0.07400
O 	O 	0.41339 0.04301 0.46610 -0.27500
H 	H 	0.40520 0.08267 0.46335 0.15900
H 	H 	0.29576 0.90430 0.52448 0.15800
C 	C 	0.73529 0.00503 0.71765 -0.10400
C 	C 	0.77225 0.03094 0.72300 -0.06100
C 	C 	0.78823 0.03003 0.74847 0.16700
C 	C 	0.76733 0.00261 0.76884 -0.10000
C 	C 	0.73168 0.97349 0.76310 -0.06900
C 	C 	0.71559 0.97461 0.73761 0.16700
H 	H 	0.78812 0.05308 0.70752 0.04500
O 	O 	0.82464 0.05506 0.75331 -0.28400
H 	H 	0.71548 0.95207 0.77866 0.06300
O 	O 	0.67935 0.94917 0.73273 -0.28600
H 	H 	0.68609 0.91009 0.72755 0.15500
H 	H 	0.81839 0.09505 0.75703 0.14600
C 	C 	0.53668 0.99869 0.63414 -0.10900
C 	C 	0.51548 0.04964 0.63562 -0.05300
C 	C 	0.47342 0.04993 0.63512 0.17300
C 	C 	0.45223 0.99870 0.63349 -0.11100
C 	C 	0.47334 0.94793 0.63629 -0.05800
C 	C 	0.51540 0.94763 0.63649 0.16700
H 	H 	0.53161 0.08923 0.63543 0.06300
O 	O 	0.45336 0.10025 0.63419 -0.28800
H 	H 	0.45720 0.90836 0.63664 0.06200
O 	O 	0.53545 0.89727 0.63706 -0.28800
H 	H 	0.53987 0.88917 0.65599 0.14900
H 	H 	0.44822 0.11033 0.65283 0.15000
C 	C 	0.72000 0.98808 0.26824 -0.11300
C 	C 	0.70071 0.95658 0.24863 -0.05900
C 	C 	0.71610 0.95522 0.22303 0.16500
C 	C 	0.75143 0.98501 0.21690 -0.11200
C 	C 	0.76923 0.01956 0.23601 -0.05000
C 	C 	0.75354 0.02140 0.26162 0.17200
H 	H 	0.67433 0.93187 0.25342 0.06000
O 	O 	0.69745 0.92304 0.20424 -0.30600
H 	H 	0.79611 0.04326 0.23134 0.06800
O 	O 	0.77265 0.05267 0.28053 -0.29100
H 	H 	0.75995 0.09034 0.27970 0.15700
H 	H 	0.67773 0.94845 0.19572 0.13700
C 	C 	0.53429 0.99448 0.35665 -0.10900
C 	C 	0.51312 0.04523 0.35417 -0.05400
C 	C 	0.47104 0.04525 0.35411 0.17800
C 	C 	0.44988 0.99414 0.35651 -0.10900
C 	C 	0.47106 0.94324 0.35493 -0.06000
C 	C 	0.51314 0.94321 0.35500 0.17200
H 	H 	0.52912 0.08489 0.35383 0.06200
O 	O 	0.45067 0.09509 0.35147 -0.29200
H 	H 	0.45504 0.90358 0.35520 0.05900
O 	O 	0.53352 0.89321 0.35318 -0.29300
H 	H 	0.53451 0.87816 0.37138 0.15700
H 	H 	0.44951 0.11137 0.36943 0.15800
C 	C 	0.63344 0.99736 0.46721 -0.10900
C 	C 	0.63438 0.04896 0.48060 -0.04900
C 	C 	0.63432 0.05067 0.50815 0.16300
C 	C 	0.63365 0.00010 0.52275 -0.08700
C 	C 	0.63269 0.94849 0.50934 -0.07200
C 	C 	0.63236 0.94682 0.48180 0.17500
H 	H 	0.63519 0.08802 0.46964 0.05700
O 	O 	0.63304 0.10177 0.52064 -0.26500
H 	H 	0.63220 0.90939 0.52028 0.06200
O 	O 	0.62904 0.89592 0.46929 -0.27300
H 	H 	0.65697 0.88188 0.46751 0.15700
H 	H 	0.66149 0.11367 0.52236 0.15700
C 	C 	0.76774 0.48727 0.72174 -0.10700
C 	C 	0.73245 0.51721 0.72754 -0.06300
C 	C 	0.71608 0.51567 0.75296 0.17200
C 	C 	0.73503 0.48383 0.77275 -0.10900
C 	C 	0.77156 0.45682 0.76733 -0.06200
C 	C 	0.78815 0.45892 0.74205 0.16600
H 	H 	0.71670 0.53955 0.71207 0.06300
O 	O 	0.68023 0.54211 0.75789 -0.28500
H 	H 	0.78676 0.43325 0.78264 0.04300
O 	O 	0.82360 0.43153 0.73699 -0.28900
H 	H 	0.84496 0.45973 0.74032 0.14500
H 	H 	0.68757 0.58078 0.76339 0.15500
C 	C 	0.76432 0.69697 0.62666 -0.10300
C 	C 	0.78517 0.74828 0.62771 -0.06000
C 	C 	0.76423 0.79933 0.62758 0.16800
C 	C 	0.72192 0.79950 0.62638 -0.10400
C 	C 	0.70105 0.74819 0.62559 -0.05900
C 	C 	0.72199 0.69713 0.62574 0.16800
H 	H 	0.81771 0.74866 0.62855 0.06700
O 	O 	0.78525 0.84894 0.62726 -0.29200
H 	H 	0.66851 0.74781 0.62480 0.06700
O 	O 	0.70111 0.64760 0.62363 -0.28900
H 	H 	0.69415 0.63699 0.64196 0.15300
H 	H 	0.79006 0.85828 0.64603 0.15300
C 	C 	0.76118 0.30384 0.59348 -0.11500
C 	C 	0.71938 0.29665 0.59228 -0.06200
C 	C 	0.70263 0.24269 0.59251 0.16000
C 	C 	0.72791 0.19499 0.59297 -0.11600
C 	C 	0.76965 0.20230 0.59114 -0.06300
C 	C 	0.78642 0.25623 0.59189 0.15900
H 	H 	0.69974 0.33299 0.59248 0.06300
O 	O 	0.66162 0.23677 0.59276 -0.26900
H 	H 	0.78929 0.16599 0.59046 0.06100
O 	O 	0.82742 0.26217 0.59160 -0.27200
H 	H 	0.83581 0.26013 0.61031 0.13300
H 	H 	0.65391 0.23763 0.61162 0.13300
C 	C 	0.72059 0.50223 0.22103 -0.10700
C 	C 	0.75592 0.47270 0.22718 -0.06100
C 	C 	0.77119 0.47338 0.25289 0.17200
C 	C 	0.75104 0.50380 0.27265 -0.10800
C 	C 	0.71438 0.53011 0.26687 -0.06100
C 	C 	0.69918 0.52959 0.24119 0.16700
H 	H 	0.77251 0.45130 0.21180 0.06500
O 	O 	0.80711 0.44748 0.25821 -0.28300
H 	H 	0.69814 0.55225 0.28219 0.04400
O 	O 	0.66303 0.55496 0.23593 -0.28900
H 	H 	0.66956 0.59495 0.23240 0.14500
H 	H 	0.79998 0.40843 0.26322 0.15700
C 	C 	0.76197 0.29872 0.36538 -0.10400
C 	C 	0.75135 0.27407 0.34127 -0.05600
C 	C 	0.73080 0.22265 0.34072 0.17100
C 	C 	0.72003 0.19609 0.36448 -0.10400
C 	C 	0.73015 0.22117 0.38855 -0.06000
C 	C 	0.75144 0.27192 0.38909 0.16800
H 	H 	0.75937 0.29446 0.32293 0.06800
O 	O 	0.71975 0.19975 0.31702 -0.28000
H 	H 	0.72167 0.20116 0.40690 0.05400
O 	O 	0.76046 0.29645 0.41281 -0.29500
H 	H 	0.78683 0.28046 0.41800 0.14700
H 	H 	0.74289 0.17624 0.31152 0.15500
C 	C 	0.75849 0.69317 0.39710 -0.11900
C 	C 	0.78488 0.73929 0.39692 -0.06300
C 	C 	0.76986 0.79425 0.39636 0.16100
C 	C 	0.72803 0.80349 0.39618 -0.11700
C 	C 	0.70187 0.75755 0.39925 -0.06400
C 	C 	0.71689 0.70260 0.39958 0.16300
H 	H 	0.81707 0.73259 0.39609 0.06200
O 	O 	0.79606 0.83878 0.39665 -0.28000
H 	H 	0.66970 0.76419 0.40030 0.06600
O 	O 	0.69096 0.65830 0.40290 -0.27800
H 	H 	0.68066 0.64958 0.38504 0.13800
H 	H 	0.80387 0.84468 0.37801 0.13700
C 	C 	0.85132 0.49991 0.52292 -0.10000
C 	C 	0.88291 0.52451 0.50865 -0.05800
C 	C 	0.88248 0.52402 0.48110 0.17500
C 	C 	0.85055 0.49821 0.46759 -0.10100
C 	C 	0.81896 0.47373 0.48175 -0.06000
C 	C 	0.81921 0.47440 0.50932 0.17000
H 	H 	0.90801 0.54358 0.51890 0.07100
O 	O 	0.91391 0.54722 0.46740 -0.27800
H 	H 	0.79408 0.45436 0.47140 0.05500
O 	O 	0.78725 0.45232 0.52289 -0.28900
H 	H 	0.79368 0.41191 0.52524 0.16300
H 	H 	0.90634 0.58712 0.46463 0.15500
C 	C 	0.23720 0.50652 0.71630 -0.10700
C 	C 	0.21848 0.47395 0.73579 -0.05700
C 	C 	0.23394 0.47290 0.76146 0.16600
C 	C 	0.26818 0.50505 0.76777 -0.10700
C 	C 	0.28826 0.53466 0.74786 -0.05900
C 	C 	0.27309 0.53519 0.72219 0.16500
H 	H 	0.19111 0.45117 0.73133 0.06500
O 	O 	0.21398 0.44362 0.78070 -0.29300
H 	H 	0.31514 0.55848 0.75243 0.06000
O 	O 	0.29258 0.56545 0.70307 -0.30400
H 	H 	0.31181 0.53873 0.69496 0.13900
H 	H 	0.22578 0.40535 0.78036 0.15500
C 	C 	0.26494 0.19348 0.62648 -0.10200
C 	C 	0.28588 0.24476 0.62680 -0.05900
C 	C 	0.26499 0.29585 0.62713 0.16800
C 	C 	0.22266 0.29610 0.62709 -0.10300
C 	C 	0.20171 0.24480 0.62724 -0.05900
C 	C 	0.22261 0.19370 0.62696 0.16900
H 	H 	0.31845 0.24507 0.62665 0.06700
O 	O 	0.28601 0.34542 0.62606 -0.29100
H 	H 	0.16915 0.24449 0.62742 0.06800
O 	O 	0.20157 0.14416 0.62575 -0.28800
H 	H 	0.19611 0.13384 0.64433 0.15600
H 	H 	0.29193 0.35512 0.64465 0.15200
C 	C 	0.23015 0.68959 0.58964 -0.11800
C 	C 	0.27196 0.69696 0.58857 -0.06500
C 	C 	0.28861 0.75099 0.58895 0.16300
C 	C 	0.26323 0.79849 0.59035 -0.11700
C 	C 	0.22152 0.79117 0.58829 -0.06500
C 	C 	0.20486 0.73715 0.58796 0.16300
H 	H 	0.29167 0.66070 0.58867 0.06200
O 	O 	0.32958 0.75701 0.58974 -0.28800
H 	H 	0.20180 0.82744 0.58816 0.06200
O 	O 	0.16387 0.73114 0.58774 -0.28800
H 	H 	0.15635 0.72970 0.56886 0.15600
H 	H 	0.33813 0.75897 0.57105 0.15700
C 	C 	0.03782 0.49807 0.63297 -0.10500
C 	C 	0.01737 0.54966 0.63419 -0.05800
C 	C 	0.97532 0.55113 0.63358 0.16700
C 	C 	0.95333 0.50048 0.63292 -0.10300
C 	C 	0.97378 0.44922 0.63592 -0.05800
C 	C 	0.01584 0.44772 0.63577 0.16800
H 	H 	0.03407 0.58876 0.63374 0.06300
O 	O 	0.95594 0.60202 0.63287 -0.28300
H 	H 	0.95708 0.41015 0.63675 0.06200
O 	O 	0.03516 0.39681 0.63645 -0.28700
H 	H 	0.03979 0.38904 0.65539 0.15000
H 	H 	0.95419 0.61202 0.61395 0.14100
C 	C 	0.26491 0.48813 0.22087 -0.10800
C 	C 	0.22930 0.51748 0.22649 -0.06200
C 	C 	0.21303 0.51650 0.25194 0.17100
C 	C 	0.23247 0.48597 0.27197 -0.10900
C 	C 	0.26934 0.45970 0.26673 -0.06200
C 	C 	0.28553 0.46051 0.24131 0.16700
H 	H 	0.21330 0.53903 0.21089 0.06200
O 	O 	0.17688 0.54225 0.25671 -0.28300
H 	H 	0.28501 0.43745 0.28226 0.04400
O 	O 	0.32190 0.43527 0.23660 -0.28800
H 	H 	0.31556 0.39531 0.23288 0.14500
H 	H 	0.18376 0.58128 0.26190 0.15600
C 	C 	0.26201 0.79487 0.36304 -0.10400
C 	C 	0.28284 0.74352 0.36224 -0.06000
C 	C 	0.26186 0.69248 0.36226 0.16800
C 	C 	0.21952 0.69236 0.36311 -0.10400
C 	C 	0.19869 0.74371 0.36369 -0.06000
C 	C 	0.21967 0.79474 0.36367 0.16700
H 	H 	0.31539 0.74310 0.36165 0.06500
O 	O 	0.28283 0.64284 0.36280 -0.29100
H 	H 	0.16614 0.74414 0.36424 0.06500
O 	O 	0.19877 0.84429 0.36560 -0.29100
H 	H 	0.19205 0.85480 0.34723 0.15300
H 	H 	0.28798 0.63341 0.34408 0.15200
C 	C 	0.25734 0.18810 0.39632 -0.11500
C 	C 	0.21554 0.19543 0.39721 -0.06200
C 	C 	0.19889 0.24945 0.39693 0.16100
C 	C 	0.22427 0.29706 0.39675 -0.11600
C 	C 	0.26596 0.28960 0.39884 -0.06200
C 	C 	0.28264 0.23562 0.39813 0.16000
H 	H 	0.19583 0.15917 0.39681 0.06200
O 	O 	0.15791 0.25552 0.39632 -0.27200
H 	H 	0.28566 0.32585 0.39970 0.06200
O 	O 	0.32363 0.22955 0.39867 -0.27200
H 	H 	0.33230 0.23165 0.38002 0.13400
H 	H 	0.15058 0.25489 0.37739 0.13400
C 	C 	0.94884 0.49622 0.35654 -0.10300
C 	C 	0.96918 0.44477 0.35421 -0.06000
C 	C 	0.01125 0.44343 0.35395 0.17200
C 	C 	0.03324 0.49391 0.35604 -0.10300
C 	C 	0.01285 0.54542 0.35425 -0.06000
C 	C 	0.97078 0.54677 0.35450 0.17200
H 	H 	0.95255 0.40561 0.35412 0.06200
O 	O 	0.03078 0.39292 0.35138 -0.29000
H 	H 	0.02948 0.58458 0.35421 0.06100
O 	O 	0.95119 0.59734 0.35246 -0.29100
H 	H 	0.95068 0.61295 0.37056 0.15500
H 	H 	0.03181 0.37684 0.36939 0.15700
C 	C 	0.13393 0.49281 0.46672 -0.10100
C 	C 	0.10168 0.51557 0.48102 -0.05800
C 	C 	0.10241 0.51567 0.50857 0.17400
C 	C 	0.13535 0.49236 0.52202 -0.10100
C 	C 	0.16754 0.46961 0.50783 -0.06100
C 	C 	0.16694 0.46958 0.48027 0.17000
H 	H 	0.07590 0.53283 0.47079 0.07100
O 	O 	0.07043 0.53719 0.52231 -0.27600
H 	H 	0.19317 0.45217 0.51815 0.05300
O 	O 	0.19940 0.44915 0.46663 -0.29100
H 	H 	0.19414 0.40837 0.46444 0.16300
H 	H 	0.07675 0.57757 0.52487 0.15500
