data_crystal

_cell_length_a 33.07331
_cell_length_b 32.96175
_cell_length_c 26.89070
_cell_angle_alpha 90.62781
_cell_angle_beta  89.29055
_cell_angle_gamma 119.95060

_symmetry_space_group_name_	'P 1'
_symmetry_space_group_name_H-M	'P 1'

loop_
_symmetry_equiv_pos_as_xyz
  x,y,z

loop_
_atom_site_label
_atom_site_type_symbol
_atom_site_fract_x
_atom_site_fract_y
_atom_site_fract_z
_atom_site_charge
Ni	Ni	0.45568 0.25389 0.94521 1.10200
O 	O 	0.50197 0.23097 0.95624 -0.70300
Ni	Ni	0.52137 0.25129 0.02670 1.11200
O 	O 	0.45945 0.25240 0.86864 -0.33300
O 	O 	0.53875 0.29608 0.87103 -0.39600
O 	O 	0.40063 0.18571 0.94337 -0.34400
Ni	Ni	0.55776 0.25638 0.91394 1.09400
O 	O 	0.36605 0.22696 0.00643 -0.34800
O 	O 	0.60963 0.31583 0.94837 -0.35300
O 	O 	0.57759 0.24039 0.03349 -0.31800
O 	O 	0.46911 0.26669 0.01789 -0.69300
O 	O 	0.40789 0.27523 0.94155 -0.36100
O 	O 	0.52612 0.26835 0.10096 -0.32200
O 	O 	0.44834 0.21691 0.11418 -0.38000
Ni	Ni	0.41275 0.22559 0.05515 1.07800
H 	H 	0.48598 0.19638 0.95458 0.18900
H 	H 	0.47939 0.29986 0.02565 0.17100
C 	C 	0.60502 0.33571 0.98915 0.32200
O 	O 	0.40758 0.16706 0.02322 -0.36800
C 	C 	0.49995 0.27551 0.84536 0.32200
C 	C 	0.59778 0.23052 0.99586 0.29600
C 	C 	0.39158 0.15423 0.97801 0.32100
C 	C 	0.48918 0.25020 0.13059 0.31500
C 	C 	0.37544 0.26247 0.97653 0.30000
O 	O 	0.56442 0.32019 0.01078 -0.37400
O 	O 	0.57717 0.21674 0.95237 -0.35300
Ni	Ni	0.46674 0.26024 0.44575 1.10500
O 	O 	0.51267 0.23744 0.45986 -0.70300
Ni	Ni	0.53441 0.26322 0.52858 1.10500
O 	O 	0.46730 0.25210 0.36986 -0.32500
O 	O 	0.54689 0.29362 0.36645 -0.39700
O 	O 	0.41082 0.19254 0.44697 -0.35200
Ni	Ni	0.56665 0.25853 0.41589 1.07900
O 	O 	0.37886 0.23879 0.50733 -0.37500
O 	O 	0.59047 0.25262 0.53764 -0.32900
O 	O 	0.48184 0.27776 0.51748 -0.70000
O 	O 	0.41971 0.28233 0.43937 -0.32000
O 	O 	0.53846 0.28213 0.60264 -0.30400
O 	O 	0.46124 0.22850 0.61411 -0.38400
Ni	Ni	0.42584 0.23851 0.55635 1.08500
H 	H 	0.49619 0.20284 0.46137 0.16600
H 	H 	0.49214 0.31130 0.52282 0.17900
C 	C 	0.61666 0.34603 0.48179 0.35800
O 	O 	0.41859 0.17807 0.52777 -0.37800
C 	C 	0.50632 0.27200 0.34377 0.31700
C 	C 	0.61128 0.24214 0.50125 0.33300
C 	C 	0.40048 0.16301 0.48387 0.33400
C 	C 	0.50127 0.26161 0.63197 0.31300
C 	C 	0.38855 0.27281 0.47520 0.31400
O 	O 	0.57844 0.33156 0.50875 -0.35500
O 	O 	0.59019 0.22457 0.45850 -0.40400
Ni	Ni	0.19832 0.79074 0.90668 1.10400
O 	O 	0.22652 0.86107 0.91971 -0.70200
Ni	Ni	0.21691 0.86273 0.99317 1.09500
O 	O 	0.21129 0.80147 0.83169 -0.33700
O 	O 	0.17359 0.84358 0.82714 -0.35900
O 	O 	0.26538 0.80390 0.91499 -0.34100
Ni	Ni	0.19604 0.89080 0.88640 1.09300
O 	O 	0.14951 0.69712 0.97637 -0.40700
O 	O 	0.13092 0.84908 0.91598 -0.35700
O 	O 	0.25258 0.93342 0.00153 -0.33900
O 	O 	0.18088 0.79250 0.97834 -0.70800
O 	O 	0.17477 0.72021 0.89573 -0.33000
O 	O 	0.21278 0.85486 0.06894 -0.35900
O 	O 	0.24212 0.80531 0.06443 -0.37400
Ni	Ni	0.19551 0.75217 0.01775 1.09900
H 	H 	0.26035 0.87849 0.91199 0.17100
H 	H 	0.14682 0.77989 0.98034 0.16000
C 	C 	0.12211 0.84382 0.96389 0.33600
O 	O 	0.24938 0.75316 0.97880 -0.37700
C 	C 	0.19940 0.82788 0.80629 0.32100
C 	C 	0.25110 0.96000 0.96611 0.29300
C 	C 	0.27955 0.78890 0.95230 0.33600
C 	C 	0.22899 0.83056 0.09097 0.32200
C 	C 	0.16056 0.68854 0.93168 0.33700
O 	O 	0.15590 0.86516 0.99627 -0.36400
O 	O 	0.21398 0.94393 0.93708 -0.33700
Ni	Ni	0.21078 0.79650 0.40663 1.10100
O 	O 	0.24462 0.86735 0.41825 -0.69900
Ni	Ni	0.23210 0.87066 0.49152 1.10500
O 	O 	0.22226 0.80187 0.33110 -0.34900
O 	O 	0.19645 0.85358 0.32019 -0.36200
O 	O 	0.27355 0.79720 0.40904 -0.32900
Ni	Ni	0.21621 0.89809 0.38163 1.09300
O 	O 	0.22116 0.72260 0.46397 -0.36800
O 	O 	0.14956 0.85514 0.40687 -0.39200
O 	O 	0.26768 0.94157 0.49808 -0.36600
O 	O 	0.19751 0.79977 0.47974 -0.70000
O 	O 	0.17721 0.72532 0.40088 -0.36400
O 	O 	0.21916 0.86482 0.56689 -0.33500
O 	O 	0.24598 0.81412 0.57824 -0.36500
Ni	Ni	0.22845 0.77139 0.51581 1.09400
H 	H 	0.27853 0.88266 0.41121 0.17600
H 	H 	0.16366 0.78385 0.48707 0.19900
C 	C 	0.13900 0.84913 0.45434 0.32000
O 	O 	0.29214 0.81966 0.48966 -0.41200
C 	C 	0.21951 0.83320 0.30367 0.32800
C 	C 	0.26555 0.96769 0.46270 0.32500
C 	C 	0.30504 0.81836 0.44383 0.32800
C 	C 	0.22208 0.83360 0.59431 0.34400
C 	C 	0.18512 0.70107 0.43404 0.34000
O 	O 	0.17120 0.87284 0.48749 -0.33400
O 	O 	0.22961 0.95010 0.43216 -0.36400
Ni	Ni	0.53697 0.79332 0.93820 1.09800
O 	O 	0.53197 0.78315 0.86214 -0.32200
O 	O 	0.48180 0.72495 0.93974 -0.35900
O 	O 	0.44940 0.76919 0.00201 -0.34600
O 	O 	0.55443 0.80962 0.01062 -0.69100
O 	O 	0.48943 0.81553 0.93586 -0.35700
O 	O 	0.52992 0.75847 0.10913 -0.34200
Ni	Ni	0.49763 0.77063 0.04996 1.10100
H 	H 	0.56747 0.84345 0.01742 0.19100
O 	O 	0.49077 0.71090 0.02009 -0.36200
C 	C 	0.47005 0.69585 0.97739 0.31500
C 	C 	0.45664 0.80258 0.97040 0.31500
Ni	Ni	0.55468 0.80527 0.43749 1.10600
O 	O 	0.55532 0.78967 0.36364 -0.35600
O 	O 	0.51019 0.73586 0.45209 -0.37000
O 	O 	0.49753 0.84471 0.50358 -0.36700
O 	O 	0.57043 0.82632 0.50820 -0.70300
O 	O 	0.49914 0.81554 0.42521 -0.36900
O 	O 	0.52574 0.76144 0.59259 -0.38500
Ni	Ni	0.51211 0.80283 0.54539 1.08300
O 	O 	0.46220 0.74589 0.50690 -0.38800
C 	C 	0.46967 0.72004 0.47454 0.35700
C 	C 	0.48202 0.83405 0.45737 0.33900
Ni	Ni	0.21650 0.39740 0.99855 1.09900
O 	O 	0.18298 0.43377 0.98335 -0.70800
Ni	Ni	0.20479 0.45448 0.91328 1.10500
O 	O 	0.21147 0.40155 0.07425 -0.34700
O 	O 	0.24199 0.48063 0.07086 -0.37700
O 	O 	0.15424 0.33461 0.00117 -0.31000
Ni	Ni	0.19754 0.48903 0.02349 1.09000
O 	O 	0.20960 0.31191 0.94074 -0.38200
O 	O 	0.25332 0.54234 0.98681 -0.39300
O 	O 	0.18500 0.50415 0.90232 -0.35400
O 	O 	0.22907 0.40938 0.92575 -0.70300
O 	O 	0.24939 0.35995 0.00646 -0.31100
O 	O 	0.22120 0.45756 0.83921 -0.34200
O 	O 	0.17782 0.37779 0.83115 -0.35700
Ni	Ni	0.19599 0.34994 0.89042 1.08100
H 	H 	0.14875 0.41271 0.98326 0.16800
H 	H 	0.26300 0.42406 0.91904 0.18500
C 	C 	0.28489 0.53702 0.96227 0.33800
O 	O 	0.13262 0.33229 0.92044 -0.39500
C 	C 	0.22676 0.44208 0.09686 0.32900
C 	C 	0.16579 0.51894 0.93639 0.33800
C 	C 	0.12172 0.31937 0.96686 0.31400
C 	C 	0.20599 0.41933 0.81186 0.31500
C 	C 	0.24620 0.33077 0.97073 0.30600
O 	O 	0.27242 0.50547 0.92674 -0.34800
O 	O 	0.15367 0.49961 0.98089 -0.37800
Ni	Ni	0.23436 0.41484 0.49653 1.10300
O 	O 	0.19836 0.44963 0.48618 -0.70400
Ni	Ni	0.21123 0.46574 0.41310 1.10500
O 	O 	0.22385 0.40934 0.57209 -0.34100
O 	O 	0.24882 0.48678 0.58382 -0.36400
O 	O 	0.17407 0.35037 0.49571 -0.36000
Ni	Ni	0.22811 0.50944 0.52247 1.07500
O 	O 	0.23007 0.33170 0.43716 -0.38500
O 	O 	0.29197 0.52638 0.49430 -0.40500
O 	O 	0.17578 0.50127 0.40810 -0.33000
O 	O 	0.24573 0.42965 0.42335 -0.70400
O 	O 	0.27128 0.38098 0.50105 -0.33300
O 	O 	0.22129 0.46984 0.33734 -0.33000
O 	O 	0.19186 0.39124 0.32804 -0.35200
Ni	Ni	0.21549 0.36933 0.38764 1.07600
H 	H 	0.16457 0.43071 0.49368 0.16900
H 	H 	0.27947 0.44821 0.41542 0.16700
C 	C 	0.30443 0.54370 0.44975 0.33000
O 	O 	0.15049 0.34712 0.41612 -0.35900
C 	C 	0.22755 0.44370 0.60042 0.32500
C 	C 	0.18349 0.53451 0.44049 0.32700
C 	C 	0.14044 0.33755 0.46327 0.32200
C 	C 	0.21363 0.43370 0.30951 0.31900
C 	C 	0.26682 0.35033 0.46662 0.32200
O 	O 	0.27340 0.52926 0.41392 -0.32600
O 	O 	0.21895 0.54968 0.47141 -0.37300
C 	C 	0.17982 0.40214 0.67443 -0.08300
C 	C 	0.22242 0.43648 0.65431 -0.11900
C 	C 	0.26009 0.46386 0.68589 0.35400
C 	C 	0.25470 0.45764 0.73727 -0.09000
C 	C 	0.21181 0.42395 0.75759 -0.11300
C 	C 	0.17430 0.39602 0.72589 0.34300
F 	F 	0.13215 0.36409 0.74496 -0.41600
H 	H 	0.15070 0.38078 0.65024 0.10300
H 	H 	0.28391 0.47898 0.76136 0.12000
F 	F 	0.30211 0.49599 0.66670 -0.41600
C 	C 	0.18050 0.41098 0.17436 -0.08400
C 	C 	0.22235 0.44341 0.15112 -0.12700
C 	C 	0.26038 0.47504 0.18010 0.35100
C 	C 	0.25704 0.47274 0.23205 -0.08600
C 	C 	0.21578 0.43888 0.25521 -0.11000
C 	C 	0.17706 0.40885 0.22610 0.34800
F 	F 	0.13603 0.37774 0.24800 -0.41000
H 	H 	0.15069 0.38714 0.15222 0.10800
H 	H 	0.28687 0.49642 0.25425 0.11000
F 	F 	0.30101 0.50679 0.15802 -0.41800
C 	C 	0.00804 0.26657 0.46267 -0.09200
C 	C 	0.03605 0.24497 0.53510 0.34900
C 	C 	0.08212 0.27699 0.52129 -0.08800
C 	C 	0.09149 0.30441 0.47837 -0.11500
C 	C 	0.05401 0.29910 0.44922 0.33700
F 	F 	0.06199 0.32622 0.40856 -0.42600
H 	H 	0.11051 0.28013 0.54376 0.12300
F 	F 	0.02784 0.21836 0.57624 -0.41000
C 	C 	0.03641 0.27987 0.94856 -0.08100
C 	C 	0.07247 0.28568 0.98021 -0.13800
C 	C 	0.06126 0.25842 0.02361 0.36700
C 	C 	0.01457 0.22706 0.03576 -0.09500
H 	H 	0.04439 0.30041 0.91496 0.10800
H 	H 	0.00642 0.20669 0.06952 0.11800
F 	F 	0.09547 0.26167 0.05363 -0.41500
C 	C 	0.38982 0.67242 0.44009 -0.07600
C 	C 	0.43014 0.67459 0.45917 -0.12500
C 	C 	0.43097 0.63300 0.46718 0.35100
C 	C 	0.39059 0.58958 0.45966 -0.08500
C 	C 	0.34929 0.58743 0.44360 -0.11500
C 	C 	0.34970 0.62909 0.43183 0.34500
F 	F 	0.31025 0.62771 0.41584 -0.40400
H 	H 	0.38903 0.70434 0.43330 0.10600
H 	H 	0.39076 0.55769 0.46857 0.10100
F 	F 	0.47002 0.63459 0.48483 -0.42900
C 	C 	0.40857 0.62928 0.92814 -0.08200
C 	C 	0.42606 0.65009 0.97471 -0.12800
C 	C 	0.39831 0.63041 0.01765 0.36000
C 	C 	0.35290 0.59248 0.01341 -0.06500
C 	C 	0.33450 0.57367 0.96656 -0.13400
C 	C 	0.36297 0.59157 0.92393 0.35200
F 	F 	0.34587 0.57393 0.87820 -0.41900
H 	H 	0.42973 0.64342 0.89489 0.11200
H 	H 	0.33162 0.57831 0.04658 0.11800
F 	F 	0.41448 0.64915 0.06328 -0.42500
C 	C 	0.52741 0.78475 0.70083 -0.08500
C 	C 	0.52829 0.78777 0.75289 0.34800
F 	F 	0.49969 0.80015 0.77691 -0.41900
H 	H 	0.50375 0.79209 0.68043 0.08600
C 	C 	0.54784 0.80414 0.20709 0.34500
C 	C 	0.55263 0.80864 0.25872 -0.07600
H 	H 	0.52744 0.81313 0.28072 0.11400
F 	F 	0.51194 0.80584 0.18521 -0.43300
C 	C 	0.38954 0.86875 0.46073 -0.08600
C 	C 	0.35390 0.83136 0.43408 -0.12100
C 	C 	0.36435 0.80129 0.40636 0.34800
C 	C 	0.40823 0.80521 0.41033 -0.08500
C 	C 	0.44166 0.83854 0.44263 -0.11900
C 	C 	0.43321 0.87224 0.46526 0.34500
F 	F 	0.46674 0.90745 0.49284 -0.42400
H 	H 	0.38246 0.89342 0.48044 0.09800
H 	H 	0.41518 0.78044 0.39071 0.11200
F 	F 	0.33097 0.76604 0.37869 -0.40800
C 	C 	0.17687 0.63376 0.38437 -0.07300
C 	C 	0.16478 0.65046 0.42693 -0.11600
C 	C 	0.14507 0.62081 0.46801 0.34000
C 	C 	0.14522 0.57853 0.46981 -0.08600
C 	C 	0.16477 0.56564 0.43049 -0.11000
C 	C 	0.17706 0.59145 0.38613 0.36200
F 	F 	0.19398 0.57824 0.34674 -0.39900
H 	H 	0.19062 0.65569 0.35175 0.12600
H 	H 	0.13395 0.55789 0.50350 0.08600
F 	F 	0.13040 0.63527 0.50830 -0.44600
C 	C 	0.03096 0.76861 0.52914 -0.09500
C 	C 	0.00704 0.78805 0.45211 0.33600
C 	C 	0.05394 0.81642 0.43853 -0.08100
C 	C 	0.08959 0.82111 0.47011 -0.12500
C 	C 	0.07777 0.79756 0.51591 0.33900
F 	F 	0.11161 0.80205 0.54731 -0.44600
H 	H 	0.02252 0.74993 0.56406 0.10800
H 	H 	0.06254 0.83504 0.40356 0.11300
C 	C 	0.35224 0.81475 0.00023 -0.06800
C 	C 	0.32912 0.80225 0.95450 -0.13500
C 	C 	0.35229 0.79849 0.91200 0.36000
C 	C 	0.39680 0.80374 0.91621 -0.08300
C 	C 	0.41827 0.81228 0.96287 -0.12300
C 	C 	0.39675 0.82010 0.00438 0.35600
F 	F 	0.41791 0.83025 0.04937 -0.43400
H 	H 	0.33508 0.81879 0.03295 0.10300
H 	H 	0.41317 0.79799 0.88383 0.13000
F 	F 	0.33054 0.78678 0.86733 -0.39900
C 	C 	0.11857 0.60201 0.94223 -0.08400
C 	C 	0.15601 0.64242 0.92145 -0.12000
C 	C 	0.19284 0.63957 0.89825 0.34700
C 	C 	0.19414 0.59781 0.89985 -0.08500
C 	C 	0.15882 0.55866 0.92474 -0.11500
C 	C 	0.11989 0.56027 0.94386 0.33900
F 	F 	0.08394 0.52182 0.96518 -0.41700
H 	H 	0.08933 0.60345 0.95895 0.09900
H 	H 	0.22402 0.59678 0.88435 0.12200
F 	F 	0.22910 0.67814 0.87747 -0.40300
C 	C 	0.06324 0.78412 0.02142 -0.05600
C 	C 	0.07344 0.81481 0.98136 -0.15100
C 	C 	0.03667 0.81397 0.95478 0.36700
C 	C 	0.01691 0.75123 0.03318 0.32100
F 	F 	0.00785 0.72027 0.07041 -0.43200
H 	H 	0.09126 0.78465 0.04241 0.08200
F 	F 	0.04579 0.84485 0.91745 -0.41500
C 	C 	0.19176 0.78797 0.72513 -0.07800
C 	C 	0.20397 0.82919 0.75190 -0.11000
C 	C 	0.21862 0.87128 0.72635 0.34400
C 	C 	0.22237 0.87232 0.67450 -0.07600
C 	C 	0.21147 0.83132 0.64779 -0.11100
C 	C 	0.19515 0.78890 0.67331 0.35000
F 	F 	0.18287 0.74865 0.64783 -0.43700
H 	H 	0.17927 0.75511 0.74446 0.12000
H 	H 	0.23516 0.90526 0.65526 0.11600
F 	F 	0.23035 0.91139 0.75186 -0.44600
C 	C 	0.24642 0.87470 0.17088 -0.07800
C 	C 	0.23339 0.83257 0.14546 -0.12000
C 	C 	0.22041 0.79159 0.17258 0.34600
C 	C 	0.21804 0.79233 0.22449 -0.07900
C 	C 	0.22851 0.83393 0.24978 -0.11300
C 	C 	0.24413 0.87545 0.22278 0.34400
F 	F 	0.25647 0.91640 0.24682 -0.43900
H 	H 	0.25749 0.90671 0.15034 0.11400
H 	H 	0.20625 0.76013 0.24490 0.11900
F 	F 	0.20773 0.75055 0.14859 -0.45000
C 	C 	0.35933 0.09069 0.43167 -0.07800
C 	C 	0.36389 0.11358 0.47737 -0.12000
C 	C 	0.33290 0.08922 0.51667 0.34900
C 	C 	0.29941 0.04199 0.51097 -0.08100
C 	C 	0.29601 0.01871 0.46594 -0.11100
C 	C 	0.32543 0.04345 0.42591 0.33700
F 	F 	0.32237 0.02130 0.38207 -0.44400
H 	H 	0.38262 0.10920 0.40094 0.10600
H 	H 	0.27638 0.02329 0.54181 0.11800
F 	F 	0.33482 0.11144 0.56014 -0.43400
C 	C 	0.34054 0.30218 0.51671 -0.09000
C 	C 	0.35691 0.29207 0.47259 -0.11100
C 	C 	0.34204 0.29943 0.42644 0.34600
C 	C 	0.31198 0.31773 0.42473 -0.08500
C 	C 	0.29637 0.32869 0.46889 -0.12000
C 	C 	0.31028 0.32018 0.51499 0.35200
F 	F 	0.29385 0.32856 0.55811 -0.41500
H 	H 	0.35139 0.29617 0.55244 0.09000
H 	H 	0.30117 0.32384 0.38903 0.08600
F 	F 	0.35589 0.28798 0.38338 -0.40200
C 	C 	0.48422 0.22490 0.71570 -0.09000
C 	C 	0.50700 0.26554 0.68656 -0.10400
C 	C 	0.52935 0.30963 0.71007 0.33900
C 	C 	0.52722 0.31288 0.76205 -0.07700
C 	C 	0.50230 0.27220 0.79075 -0.12800
C 	C 	0.48150 0.22818 0.76736 0.34500
F 	F 	0.45901 0.18848 0.79476 -0.43300
H 	H 	0.46764 0.19067 0.69812 0.11600
H 	H 	0.54415 0.34700 0.77987 0.10700
F 	F 	0.55160 0.34928 0.68260 -0.41000
C 	C 	0.53819 0.26668 0.26069 -0.08700
C 	C 	0.50444 0.27106 0.28874 -0.11600
C 	C 	0.46710 0.27113 0.26421 0.34600
C 	C 	0.46266 0.26493 0.21257 -0.08500
C 	C 	0.49565 0.25921 0.18472 -0.11300
C 	C 	0.53384 0.26067 0.20899 0.34700
F 	F 	0.56573 0.25446 0.18283 -0.41500
H 	H 	0.56704 0.26647 0.27909 0.09000
H 	H 	0.43350 0.26455 0.19418 0.08900
F 	F 	0.43526 0.27747 0.29032 -0.40500
C 	C 	0.33377 0.02270 0.97720 -0.08300
C 	C 	0.28788 0.00984 0.96408 -0.11100
C 	C 	0.27740 0.04480 0.95098 0.34800
C 	C 	0.31223 0.09204 0.95275 -0.08300
C 	C 	0.35748 0.10478 0.96817 -0.11100
C 	C 	0.36829 0.06988 0.97952 0.34200
F 	F 	0.41217 0.08172 0.99348 -0.43700
H 	H 	0.34253 0.99608 0.98629 0.09100
H 	H 	0.30355 0.11883 0.94413 0.13400
F 	F 	0.23325 0.03329 0.93863 -0.40700
C 	C 	0.35860 0.32781 0.97378 -0.09100
C 	C 	0.34211 0.27953 0.97385 -0.11800
C 	C 	0.29387 0.24789 0.97096 0.34400
C 	C 	0.26250 0.26464 0.96896 -0.08500
C 	C 	0.27904 0.31299 0.97006 -0.11900
C 	C 	0.32728 0.34452 0.97213 0.33700
F 	F 	0.34377 0.39140 0.97216 -0.44500
H 	H 	0.39574 0.35241 0.97553 0.09200
H 	H 	0.22536 0.24007 0.96723 0.11600
F 	F 	0.27749 0.20104 0.96937 -0.42000
C 	C 	0.57218 0.78832 0.12424 0.32800
O 	O 	0.61880 0.32123 0.44399 -0.38200
O 	O 	0.58470 0.77153 0.94673 -0.70800
Ni	Ni	0.60179 0.78748 0.01914 1.10700
O 	O 	0.61044 0.82135 0.84823 -0.38900
Ni	Ni	0.64224 0.80973 0.90828 1.07200
O 	O 	0.65010 0.87114 0.93584 -0.40800
O 	O 	0.60812 0.79954 0.09467 -0.32900
H 	H 	0.57156 0.73765 0.94017 0.16600
C 	C 	0.56792 0.79191 0.83336 0.31900
O 	O 	0.60622 0.79008 0.45089 -0.70100
Ni	Ni	0.61450 0.80174 0.52411 1.11000
O 	O 	0.63331 0.84331 0.35647 -0.36200
O 	O 	0.60528 0.80217 0.59986 -0.32500
H 	H 	0.59660 0.75707 0.44305 0.18600
H 	H 	0.58705 0.86094 0.50917 0.18800
C 	C 	0.59380 0.81086 0.33652 0.32600
C 	C 	0.56341 0.77988 0.62048 0.31900
C 	C 	0.55884 0.77501 0.67511 -0.11500
C 	C 	0.58899 0.76509 0.70206 0.34900
C 	C 	0.58969 0.76780 0.75404 -0.08600
C 	C 	0.56044 0.78054 0.77971 -0.11600
H 	H 	0.61401 0.76135 0.77434 0.08600
F 	F 	0.61814 0.75354 0.67787 -0.40700
C 	C 	0.61808 0.79825 0.20116 -0.08000
C 	C 	0.58005 0.79800 0.17806 -0.10200
C 	C 	0.58986 0.80757 0.28193 -0.11500
C 	C 	0.62302 0.80308 0.25286 0.34900
F 	F 	0.65921 0.80201 0.27480 -0.44000
H 	H 	0.64313 0.79349 0.17925 0.13300
C 	C 	0.68309 0.42008 0.44908 -0.08100
C 	C 	0.65675 0.39362 0.49004 -0.11100
C 	C 	0.67249 0.41020 0.53846 0.36300
H 	H 	0.67075 0.40842 0.41162 0.10900
F 	F 	0.64713 0.38564 0.57861 -0.38800
C 	C 	0.66892 0.21480 0.48962 -0.08400
C 	C 	0.65772 0.24754 0.50975 -0.11600
C 	C 	0.69238 0.28761 0.53423 0.34400
H 	H 	0.64248 0.18364 0.47096 0.10800
F 	F 	0.68229 0.31962 0.55393 -0.41100
C 	C 	0.64295 0.42165 0.00279 -0.06000
C 	C 	0.64455 0.38007 0.00622 -0.10900
C 	C 	0.68223 0.46454 0.01472 0.34100
F 	F 	0.68132 0.50487 0.00828 -0.43200
H 	H 	0.61190 0.42091 0.98912 0.08300
C 	C 	0.65949 0.23229 0.05007 -0.08200
C 	C 	0.64433 0.23546 0.00247 -0.05300
C 	C 	0.67511 0.24671 0.96159 0.33300
F 	F 	0.66184 0.25160 0.91549 -0.43400
H 	H 	0.63624 0.22373 0.08185 0.13600
O 	O 	0.64767 0.76354 0.02250 -0.32300
O 	O 	0.65792 0.85513 0.01599 -0.31200
C 	C 	0.68432 0.38119 0.02554 0.35400
C 	C 	0.66558 0.88561 0.98078 0.31800
C 	C 	0.68021 0.77518 0.98809 0.31200
O 	O 	0.68943 0.80952 0.95686 -0.39300
Ni	Ni	0.66475 0.83215 0.41790 1.08500
O 	O 	0.66890 0.89061 0.44981 -0.38400
O 	O 	0.66092 0.77914 0.53286 -0.31600
C 	C 	0.68166 0.90185 0.49619 0.33800
C 	C 	0.69510 0.79203 0.49983 0.31700
O 	O 	0.67006 0.86920 0.52997 -0.35400
O 	O 	0.70713 0.82874 0.47080 -0.38400
C 	C 	0.71504 0.95076 0.50886 -0.12000
C 	C 	0.70383 0.98582 0.50023 0.34000
F 	F 	0.66042 0.97433 0.48488 -0.43400
C 	C 	0.70010 0.93575 0.98903 -0.13400
C 	C 	0.70474 0.95663 0.03615 0.36100
F 	F 	0.67615 0.93161 0.07431 -0.42800
C 	C 	0.71413 0.75879 0.99279 -0.14100
F 	F 	0.71368 0.76525 0.08178 -0.41800
H 	H 	0.72151 0.75326 0.91344 0.08400
C 	C 	0.71577 0.45098 0.54550 -0.07700
C 	C 	0.74354 0.47549 0.50430 -0.11600
C 	C 	0.72631 0.46048 0.45606 0.34400
F 	F 	0.75197 0.48439 0.41584 -0.43200
H 	H 	0.72846 0.46239 0.58290 0.12800
C 	C 	0.73790 0.29541 0.53718 -0.07500
C 	C 	0.74913 0.26309 0.51636 -0.11700
C 	C 	0.71440 0.22244 0.49312 0.34400
F 	F 	0.72486 0.19068 0.47333 -0.44500
C 	C 	0.72332 0.42400 0.03819 -0.08300
C 	C 	0.72328 0.46602 0.03050 -0.11800
F 	F 	0.68558 0.34097 0.03094 -0.42300
C 	C 	0.72029 0.25473 0.96843 -0.09300
C 	C 	0.73579 0.25254 0.01607 -0.10200
C 	C 	0.70505 0.24114 0.05702 0.36100
H 	H 	0.74354 0.26324 0.93664 0.11400
F 	F 	0.71971 0.24015 0.10370 -0.41100
O 	O 	0.79771 0.52326 0.06324 -0.34500
H 	H 	0.79089 0.60328 0.05930 0.18100
O 	O 	0.78210 0.52757 0.98232 -0.42200
C 	C 	0.76793 0.50979 0.02637 0.36100
O 	O 	0.80170 0.54351 0.54860 -0.36600
C 	C 	0.79205 0.51401 0.51127 0.33800
C 	C 	0.78440 0.26330 0.02278 0.34500
O 	O 	0.79441 0.24535 0.06083 -0.34400
C 	C 	0.79697 0.27154 0.51968 0.33700
O 	O 	0.80758 0.25405 0.55768 -0.36800
H 	H 	0.79324 0.22485 0.72520 0.10800
F 	F 	0.77175 0.21785 0.82001 -0.42400
C 	C 	0.75970 0.96300 0.52590 -0.08800
C 	C 	0.73755 0.03287 0.50670 -0.08100
H 	H 	0.76854 0.93603 0.53280 0.11800
H 	H 	0.72866 0.05973 0.49932 0.10600
C 	C 	0.72960 0.96257 0.94986 -0.08100
C 	C 	0.73825 0.00387 0.04364 -0.09000
C 	C 	0.76699 0.03074 0.00415 -0.09400
C 	C 	0.76284 0.00971 0.95734 0.33400
H 	H 	0.72714 0.94677 0.91367 0.10200
H 	H 	0.74106 0.01984 0.07981 0.09400
C 	C 	0.77107 0.74670 0.55048 -0.08600
C 	C 	0.74532 0.76550 0.45851 -0.08700
C 	C 	0.72648 0.77262 0.50253 -0.11300
C 	C 	0.73976 0.76349 0.54869 0.35000
F 	F 	0.72321 0.77185 0.59174 -0.40400
H 	H 	0.73567 0.77293 0.42280 0.09500
C 	C 	0.75897 0.73533 0.04401 -0.09900
C 	C 	0.77547 0.72336 0.00119 -0.09200
C 	C 	0.76245 0.73080 0.95398 0.32500
C 	C 	0.73186 0.74832 0.94993 -0.07500
C 	C 	0.72856 0.75305 0.03995 0.37400
H 	H 	0.76920 0.73027 0.08051 0.09200
F 	F 	0.78254 0.55956 0.71218 -0.42200
H 	H 	0.78345 0.55610 0.80900 0.11300
H 	H 	0.76452 0.32671 0.55550 0.11200
H 	H 	0.75472 0.42474 0.05071 0.13300
O 	O 	0.82491 0.62230 0.05309 -0.69700
O 	O 	0.84666 0.58187 0.14116 -0.30700
O 	O 	0.85266 0.50214 0.00923 -0.38600
O 	O 	0.80193 0.67095 0.97249 -0.34200
O 	O 	0.82687 0.56563 0.89437 -0.39500
Ni	Ni	0.84610 0.54325 0.95698 1.07100
C 	C 	0.80494 0.70170 0.00608 0.33500
O 	O 	0.83976 0.64004 0.55251 -0.70300
O 	O 	0.85107 0.59256 0.63764 -0.32400
O 	O 	0.81613 0.68837 0.47335 -0.31700
O 	O 	0.83049 0.57282 0.40676 -0.36600
H 	H 	0.80576 0.62361 0.55929 0.17700
O 	O 	0.82580 0.51211 0.48721 -0.36800
C 	C 	0.81966 0.71829 0.50841 0.31900
C 	C 	0.84202 0.61086 0.38119 0.31800
O 	O 	0.82571 0.24536 0.91221 -0.38600
O 	O 	0.81774 0.29836 0.99806 -0.40400
O 	O 	0.82601 0.18208 0.05901 -0.69700
O 	O 	0.79886 0.11024 0.97686 -0.34800
O 	O 	0.84074 0.24066 0.14734 -0.34400
H 	H 	0.79196 0.16668 0.06521 0.17800
C 	C 	0.83816 0.21885 0.88703 0.32900
C 	C 	0.79879 0.08149 0.01080 0.33200
O 	O 	0.83640 0.24910 0.41295 -0.35000
O 	O 	0.82993 0.30617 0.49413 -0.34800
O 	O 	0.82038 0.12114 0.48247 -0.35300
H 	H 	0.81072 0.17859 0.56790 0.17400
C 	C 	0.81983 0.09518 0.51972 0.31600
C 	C 	0.81268 0.22394 0.80117 0.34400
C 	C 	0.82023 0.22729 0.74958 -0.08800
C 	C 	0.83409 0.17662 0.30943 -0.07900
C 	C 	0.83389 0.17412 0.25745 0.34500
F 	F 	0.82299 0.13300 0.23464 -0.44300
H 	H 	0.82582 0.14575 0.33089 0.11700
C 	C 	0.78309 0.04544 0.52097 -0.12100
C 	C 	0.79379 0.01018 0.53165 0.35300
F 	F 	0.79129 0.03486 0.91915 -0.41200
C 	C 	0.78934 0.73895 0.50636 -0.11400
C 	C 	0.77674 0.74898 0.46031 0.35400
H 	H 	0.78073 0.73922 0.58615 0.08700
F 	F 	0.79557 0.74348 0.41738 -0.39400
H 	H 	0.85427 0.37746 0.11416 0.12600
F 	F 	0.83977 0.44838 0.11687 -0.40500
F 	F 	0.77990 0.72167 0.91208 -0.41400
C 	C 	0.81527 0.58394 0.79270 -0.08000
C 	C 	0.81897 0.58914 0.74118 0.34600
C 	C 	0.83889 0.60833 0.32671 -0.11000
C 	C 	0.82457 0.63570 0.30075 0.35200
C 	C 	0.82615 0.63658 0.24882 -0.08400
C 	C 	0.84211 0.61028 0.22238 -0.11100
H 	H 	0.81583 0.65843 0.22911 0.09300
F 	F 	0.80920 0.66145 0.32582 -0.40000
Ni	Ni	0.85962 0.58670 0.06601 1.11000
Ni	Ni	0.83918 0.63757 0.98031 1.10300
O 	O 	0.87249 0.65974 0.15121 -0.37700
Ni	Ni	0.85228 0.68223 0.08925 1.07700
O 	O 	0.87508 0.60311 0.99336 -0.70800
O 	O 	0.89446 0.55072 0.07318 -0.33200
O 	O 	0.85317 0.64345 0.90534 -0.32500
C 	C 	0.85007 0.61680 0.16839 0.31900
C 	C 	0.84840 0.60851 0.87724 0.33500
C 	C 	0.88642 0.51633 0.04221 0.32900
O 	O 	0.84018 0.72011 0.03760 -0.38300
Ni	Ni	0.86778 0.59783 0.56351 1.10500
Ni	Ni	0.85213 0.65393 0.48004 1.10700
Ni	Ni	0.87058 0.69926 0.58844 1.07800
O 	O 	0.89155 0.55108 0.57269 -0.33100
O 	O 	0.85715 0.65120 0.40413 -0.31700
Ni	Ni	0.87879 0.56816 0.45135 1.08200
C 	C 	0.86432 0.63027 0.66541 0.32300
O 	O 	0.85604 0.73698 0.53871 -0.37800
Ni	Ni	0.83844 0.18066 0.98620 1.10100
O 	O 	0.87846 0.25044 0.00269 -0.69000
Ni	Ni	0.85864 0.25250 0.07333 1.10300
O 	O 	0.84728 0.18956 0.91049 -0.33000
Ni	Ni	0.87131 0.29525 0.96239 1.07900
O 	O 	0.83403 0.09603 0.04242 -0.36900
O 	O 	0.88752 0.32374 0.08568 -0.35400
O 	O 	0.87333 0.19394 0.15544 -0.36200
Ni	Ni	0.85186 0.14869 0.09410 1.08700
C 	C 	0.84956 0.21288 0.17450 0.32200
Ni	Ni	0.85680 0.19174 0.48872 1.10700
Ni	Ni	0.87343 0.26618 0.57205 1.10300
O 	O 	0.86332 0.19759 0.41265 -0.35800
Ni	Ni	0.88359 0.30289 0.45854 1.10700
O 	O 	0.85578 0.11128 0.55059 -0.34400
O 	O 	0.84478 0.19551 0.56136 -0.70000
O 	O 	0.85666 0.25695 0.64664 -0.35100
Ni	Ni	0.87382 0.16651 0.59874 1.08400
C 	C 	0.84877 0.22226 0.38839 0.32200
C 	C 	0.86823 0.23189 0.67498 0.31000
C 	C 	0.84676 0.22539 0.83303 -0.11800
C 	C 	0.86194 0.23239 0.72950 -0.11400
C 	C 	0.84519 0.21886 0.33364 -0.11300
C 	C 	0.85485 0.25835 0.30525 0.34500
C 	C 	0.85455 0.25580 0.25330 -0.07800
C 	C 	0.84493 0.21398 0.22910 -0.11000
H 	H 	0.86330 0.28682 0.23189 0.11900
F 	F 	0.86640 0.29971 0.32791 -0.43700
F 	F 	0.83759 0.02150 0.54527 -0.41400
C 	C 	0.90049 0.46637 0.49772 -0.08100
C 	C 	0.90120 0.42459 0.49888 0.34700
F 	F 	0.88991 0.39759 0.45722 -0.45500
H 	H 	0.89080 0.47654 0.46367 0.09000
C 	C 	0.87362 0.44663 0.08944 0.35700
C 	C 	0.87810 0.40666 0.09115 -0.08400
C 	C 	0.85227 0.61484 0.82323 -0.12000
C 	C 	0.85985 0.62527 0.71967 -0.11800
C 	C 	0.85249 0.58015 0.30026 -0.08200
C 	C 	0.85441 0.58124 0.24838 0.35100
F 	F 	0.87040 0.55588 0.22358 -0.40400
H 	H 	0.86330 0.55870 0.31999 0.09300
O 	O 	0.89820 0.33746 0.57986 -0.35800
C 	C 	0.90136 0.48302 0.05644 -0.11300
H 	H 	0.90908 0.62206 0.98702 0.17300
O 	O 	0.89903 0.70222 0.98362 -0.36700
O 	O 	0.89101 0.67228 0.64650 -0.39400
O 	O 	0.88895 0.62075 0.49371 -0.70000
C 	C 	0.91218 0.53960 0.53708 0.34500
O 	O 	0.89626 0.17261 0.98720 -0.33900
C 	C 	0.90550 0.35623 0.05053 0.33400
O 	O 	0.91772 0.34727 0.00665 -0.36200
O 	O 	0.89374 0.26207 0.50205 -0.69800
O 	O 	0.89431 0.21519 0.65679 -0.35000
C 	C 	0.91663 0.36756 0.54259 0.33300
C 	C 	0.88892 0.23186 0.81306 -0.09000
C 	C 	0.89678 0.23586 0.76172 0.34700
C 	C 	0.91200 0.49499 0.54007 -0.12100
C 	C 	0.92309 0.48068 0.58449 0.35000
C 	C 	0.92367 0.43842 0.58580 -0.08000
C 	C 	0.91339 0.41054 0.54277 -0.12400
C 	C 	0.91043 0.40280 0.05998 -0.11100
C 	C 	0.89284 0.65143 0.80187 0.34700
C 	C 	0.89666 0.65655 0.75028 -0.08500
O 	O 	0.92533 0.56298 0.49495 -0.40400
O 	O 	0.91886 0.70501 0.06466 -0.36600
H 	H 	0.92283 0.64339 0.49425 0.16700
O 	O 	0.91261 0.71821 0.47862 -0.32000
H 	H 	0.91203 0.26055 0.00290 0.18700
O 	O 	0.91865 0.18791 0.06815 -0.39000
O 	O 	0.91673 0.18739 0.49025 -0.35400
H 	H 	0.92762 0.27364 0.50241 0.16400
O 	O 	0.93025 0.35583 0.50142 -0.37100
H 	H 	0.91576 0.23395 0.83740 0.13400
H 	H 	0.93301 0.42790 0.61984 0.10900
F 	F 	0.93439 0.50809 0.62582 -0.41900
C 	C 	0.93713 0.48149 0.02953 -0.08500
C 	C 	0.94212 0.44180 0.03170 0.34300
H 	H 	0.92849 0.68441 0.73405 0.11200
F 	F 	0.92891 0.68141 0.83104 -0.42900
C 	C 	0.93107 0.71507 0.01800 0.33800
O 	O 	0.93528 0.72061 0.55884 -0.39800
C 	C 	0.94571 0.73255 0.51210 0.32300
C 	C 	0.92922 0.19295 0.02058 0.33200
O 	O 	0.93983 0.20645 0.57079 -0.35000
C 	C 	0.94984 0.20979 0.52308 0.32600
F 	F 	0.93849 0.24370 0.74337 -0.41100
H 	H 	0.95952 0.51000 0.00497 0.10000
F 	F 	0.95572 0.24344 0.92936 -0.45800
F 	F 	0.97656 0.44057 0.00492 -0.40700
H 	H 	0.96241 0.78121 0.94600 0.13400
C 	C 	0.98985 0.24801 0.96034 0.31500
C 	C 	0.99037 0.78139 0.96675 -0.11100
H 	H 	0.97959 0.26305 0.44001 0.08900
C 	C 	0.97854 0.22206 0.00462 -0.09800
F 	F 	0.97329 0.78524 0.42166 -0.40500
C 	C 	0.98015 0.74943 0.00558 -0.08600
C 	C 	0.99868 0.23996 0.50612 -0.11800
C 	C 	0.99520 0.76341 0.49738 -0.11300
