data_crystal

_cell_length_a 21.80549
_cell_length_b 22.99993
_cell_length_c 77.91752
_cell_angle_alpha 90.03658
_cell_angle_beta  90.01042
_cell_angle_gamma 119.53628

_symmetry_space_group_name_	'P 1'
_symmetry_space_group_name_H-M	'P 1'

loop_
_symmetry_equiv_pos_as_xyz
  x,y,z

loop_
_atom_site_label
_atom_site_type_symbol
_atom_site_fract_x
_atom_site_fract_y
_atom_site_fract_z
_atom_site_charge
C 	C 	0.77874 0.40357 0.58497 0.32800
C 	C 	0.62333 0.20166 0.53142 0.27500
C 	C 	0.80273 0.40957 0.53670 0.28000
C 	C 	0.60700 0.18206 0.57900 0.33300
C 	C 	0.58304 0.37208 0.53112 0.27800
C 	C 	0.55502 0.35857 0.57837 0.32500
Ni	Ni	0.72355 0.29068 0.55862 1.12200
Ni	Ni	0.56300 0.26175 0.55485 1.12700
Ni	Ni	0.68931 0.41243 0.55755 1.12700
O 	O 	0.79622 0.37091 0.57365 -0.34600
O 	O 	0.73826 0.42951 0.58062 -0.33900
O 	O 	0.53813 0.32163 0.54073 -0.33900
O 	O 	0.66534 0.20509 0.54392 -0.34400
O 	O 	0.58847 0.23461 0.53231 -0.34600
O 	O 	0.59983 0.40570 0.56769 -0.35900
O 	O 	0.76477 0.34447 0.53630 -0.34500
O 	O 	0.78711 0.44430 0.54749 -0.34800
O 	O 	0.53494 0.29424 0.57594 -0.34000
O 	O 	0.67371 0.23018 0.57950 -0.34200
O 	O 	0.56138 0.18164 0.56737 -0.34600
O 	O 	0.65108 0.39891 0.53369 -0.36900
O 	O 	0.65825 0.32027 0.56109 -0.72200
H 	H 	0.65279 0.31809 0.57365 0.17400
C 	C 	0.39024 0.80908 0.42478 0.33200
C 	C 	0.22220 0.61103 0.47727 0.28000
C 	C 	0.41405 0.82118 0.47026 0.27700
C 	C 	0.20966 0.59480 0.42784 0.32600
C 	C 	0.43190 0.63395 0.47433 0.28000
C 	C 	0.43082 0.62194 0.42728 0.33100
Ni	Ni	0.28722 0.71675 0.45067 1.12400
Ni	Ni	0.31087 0.58868 0.45210 1.12700
Ni	Ni	0.44463 0.73507 0.44824 1.12800
O 	O 	0.32383 0.76275 0.42723 -0.34500
O 	O 	0.44346 0.81037 0.43380 -0.34300
O 	O 	0.36381 0.61162 0.47422 -0.37300
O 	O 	0.25779 0.67586 0.47502 -0.33500
O 	O 	0.22334 0.57077 0.46547 -0.35600
O 	O 	0.45389 0.68745 0.42744 -0.34100
O 	O 	0.35754 0.80906 0.46145 -0.34000
O 	O 	0.43752 0.77855 0.47019 -0.34500
O 	O 	0.38900 0.58171 0.43958 -0.36100
O 	O 	0.20239 0.63305 0.43951 -0.34000
O 	O 	0.24803 0.56547 0.43105 -0.33800
O 	O 	0.47324 0.67918 0.46302 -0.33400
O 	O 	0.34562 0.67985 0.44646 -0.72100
H 	H 	0.34261 0.67568 0.43388 0.17400
C 	C 	0.22284 0.75324 0.67158 0.32600
C 	C 	0.32816 0.57665 0.64423 0.35000
C 	C 	0.13628 0.56434 0.66939 0.34300
C 	C 	0.41608 0.76330 0.64523 0.32300
C 	C 	0.29414 0.56032 0.69987 0.35200
C 	C 	0.40449 0.74725 0.70419 0.33200
Ni	Ni	0.26324 0.66361 0.65033 1.12500
Ni	Ni	0.38383 0.66203 0.67412 1.13500
Ni	Ni	0.25216 0.66010 0.69190 1.13300
O 	O 	0.20684 0.71110 0.65840 -0.33200
O 	O 	0.24801 0.74414 0.68634 -0.34300
O 	O 	0.35904 0.60502 0.69558 -0.34500
O 	O 	0.31004 0.61696 0.63672 -0.33100
O 	O 	0.33088 0.57584 0.66091 -0.35600
O 	O 	0.33646 0.70805 0.70829 -0.33900
O 	O 	0.18089 0.57082 0.65725 -0.34400
O 	O 	0.15462 0.61129 0.68106 -0.34400
O 	O 	0.43103 0.74252 0.68927 -0.35100
O 	O 	0.35064 0.75138 0.64279 -0.34100
O 	O 	0.42935 0.71731 0.65216 -0.33000
O 	O 	0.24100 0.56937 0.69597 -0.36100
O 	O 	0.30798 0.67925 0.67187 -0.72300
H 	H 	0.33364 0.72846 0.67237 0.17600
C 	C 	0.09659 0.13606 0.76721 0.33400
C 	C 	0.86207 0.92477 0.80837 0.27900
C 	C 	0.08307 0.08915 0.81446 0.27700
C 	C 	0.85847 0.96695 0.76281 0.35900
C 	C 	0.04334 0.89077 0.80129 0.28000
C 	C 	0.04168 0.92457 0.75336 0.33300
Ni	Ni	0.96617 0.04901 0.78951 1.11600
Ni	Ni	0.93519 0.90005 0.77994 1.12900
Ni	Ni	0.09399 0.01831 0.78365 1.11600
O 	O 	0.05508 0.13461 0.77995 -0.34800
O 	O 	0.11744 0.09071 0.76591 -0.35100
O 	O 	0.99468 0.86198 0.78935 -0.33600
O 	O 	0.87150 0.97908 0.80054 -0.33200
O 	O 	0.89995 0.89688 0.80420 -0.34100
O 	O 	0.08958 0.95158 0.76582 -0.35300
O 	O 	0.01445 0.05756 0.81296 -0.35200
O 	O 	0.12268 0.09259 0.80134 -0.35500
O 	O 	0.97296 0.89743 0.75654 -0.34100
O 	O 	0.90715 0.02851 0.76719 -0.35400
O 	O 	0.85463 0.91277 0.77023 -0.35400
O 	O 	0.07683 0.95588 0.80326 -0.35500
O 	O 	0.99800 0.99362 0.78037 -0.69300
H 	H 	0.99881 0.00375 0.76806 0.15200
C 	C 	0.46205 0.73687 0.90117 0.32500
C 	C 	0.25454 0.48729 0.86638 0.28100
C 	C 	0.43399 0.68648 0.85325 0.28200
C 	C 	0.28335 0.53547 0.91425 0.32000
C 	C 	0.22591 0.65957 0.85480 0.28300
C 	C 	0.23237 0.70105 0.90133 0.33200
Ni	Ni	0.37897 0.59952 0.88407 1.12100
Ni	Ni	0.22129 0.57966 0.88535 1.12600
Ni	Ni	0.35111 0.72289 0.87668 1.12900
O 	O 	0.46557 0.68974 0.89198 -0.34200
O 	O 	0.42014 0.76102 0.89650 -0.34100
O 	O 	0.18864 0.62482 0.86815 -0.35700
O 	O 	0.30693 0.50210 0.87696 -0.33900
O 	O 	0.22479 0.52473 0.86543 -0.36200
O 	O 	0.27664 0.73731 0.88877 -0.35100
O 	O 	0.40337 0.62420 0.85841 -0.35100
O 	O 	0.43559 0.73302 0.86328 -0.34000
O 	O 	0.21071 0.63632 0.90341 -0.35400
O 	O 	0.34970 0.56494 0.90884 -0.34300
O 	O 	0.23025 0.51779 0.90313 -0.34500
O 	O 	0.29498 0.68935 0.85500 -0.35300
O 	O 	0.32005 0.63715 0.88612 -0.72500
H 	H 	0.32551 0.64900 0.89840 0.17000
C 	C 	0.78178 0.48945 0.08768 0.33200
C 	C 	0.54334 0.28457 0.12998 0.27900
C 	C 	0.76800 0.46758 0.13506 0.28000
C 	C 	0.53954 0.31242 0.08668 0.33100
C 	C 	0.73293 0.26329 0.13010 0.28100
C 	C 	0.73899 0.28023 0.08044 0.33000
Ni	Ni	0.65053 0.40756 0.11060 1.12300
Ni	Ni	0.62720 0.25794 0.10503 1.12700
Ni	Ni	0.78335 0.38211 0.10849 1.12800
O 	O 	0.73734 0.49075 0.09927 -0.34400
O 	O 	0.80452 0.44541 0.08854 -0.34700
O 	O 	0.68981 0.22939 0.11746 -0.33800
O 	O 	0.55674 0.34137 0.12287 -0.34200
O 	O 	0.58681 0.26110 0.12815 -0.35200
O 	O 	0.78371 0.31041 0.09331 -0.35600
O 	O 	0.70031 0.42717 0.13410 -0.34400
O 	O 	0.81000 0.46390 0.12354 -0.34700
O 	O 	0.66967 0.24915 0.08291 -0.34500
O 	O 	0.59103 0.37494 0.08839 -0.33400
O 	O 	0.54482 0.26010 0.09246 -0.34900
O 	O 	0.76671 0.32895 0.13008 -0.36500
O 	O 	0.68631 0.35213 0.10391 -0.72200
H 	H 	0.68753 0.35783 0.09136 0.17600
C 	C 	0.13936 0.03317 0.23851 0.31300
C 	C 	0.91510 0.87229 0.18942 0.28000
C 	C 	0.13396 0.05622 0.19334 0.28100
C 	C 	0.90100 0.85246 0.23684 0.33300
C 	C 	0.94421 0.07560 0.19377 0.28100
C 	C 	0.93925 0.05992 0.24340 0.33000
Ni	Ni	0.03189 0.93557 0.21407 1.12300
Ni	Ni	0.89662 0.95754 0.21554 1.13500
Ni	Ni	0.05148 0.08381 0.21873 1.12300
O 	O 	0.09017 0.96981 0.23646 -0.32000
O 	O 	0.13549 0.08366 0.23095 -0.34700
O 	O 	0.91154 0.00994 0.19387 -0.37400
O 	O 	0.98270 0.91340 0.19045 -0.33600
O 	O 	0.87220 0.87583 0.20070 -0.34400
O 	O 	0.00866 0.09213 0.24089 -0.35200
O 	O 	0.12508 0.00380 0.20205 -0.35500
O 	O 	0.09126 0.08057 0.19545 -0.35500
O 	O 	0.89459 0.02877 0.23059 -0.36300
O 	O 	0.94602 0.85169 0.22537 -0.34300
O 	O 	0.87640 0.89503 0.23567 -0.34300
O 	O 	0.98699 0.11017 0.20640 -0.33600
O 	O 	0.99388 0.98956 0.22019 -0.71100
H 	H 	0.99254 0.98450 0.23276 0.17900
C 	C 	0.54272 0.20048 0.35235 0.32700
C 	C 	0.83743 0.40083 0.34181 0.35200
C 	C 	0.63630 0.38301 0.36117 0.34900
C 	C 	0.75192 0.22222 0.32832 0.33000
C 	C 	0.70029 0.43631 0.30766 0.35300
C 	C 	0.59283 0.25387 0.29539 0.32700
Ni	Ni	0.69798 0.29465 0.35288 1.12700
Ni	Ni	0.73675 0.33202 0.31285 1.13300
Ni	Ni	0.59586 0.32019 0.32783 1.13600
O 	O 	0.60516 0.20536 0.35486 -0.34400
O 	O 	0.53635 0.25222 0.34668 -0.33100
O 	O 	0.74969 0.42433 0.31312 -0.35700
O 	O 	0.78351 0.38960 0.35127 -0.34700
O 	O 	0.82774 0.36940 0.32705 -0.34000
O 	O 	0.55636 0.25159 0.30926 -0.35100
O 	O 	0.64615 0.33491 0.36723 -0.32900
O 	O 	0.64354 0.39557 0.34480 -0.35500
O 	O 	0.66170 0.29814 0.29375 -0.33500
O 	O 	0.75657 0.25002 0.34370 -0.32400
O 	O 	0.73585 0.24411 0.31418 -0.34700
O 	O 	0.63338 0.39069 0.30915 -0.34500
O 	O 	0.66812 0.29782 0.33050 -0.72300
H 	H 	0.64258 0.25001 0.32745 0.17900
C 	C 	0.94195 0.12599 0.99804 0.32800
C 	C 	0.07579 0.97592 0.96830 0.38100
C 	C 	0.86528 0.95005 0.98302 0.35400
C 	C 	0.15909 0.16028 0.98019 0.32500
C 	C 	0.99383 0.91363 0.02006 0.35600
C 	C 	0.08868 0.09327 0.03505 0.32700
Ni	Ni	0.00689 0.05952 0.97510 1.12400
Ni	Ni	0.10320 0.03585 0.00262 1.12500
Ni	Ni	0.95365 0.01506 0.01409 1.12500
O 	O 	0.94234 0.09967 0.98278 -0.32700
O 	O 	0.95169 0.10166 0.01263 -0.34800
O 	O 	0.06038 0.96129 0.02023 -0.33900
O 	O 	0.06660 0.02443 0.96228 -0.35900
O 	O 	0.07071 0.96317 0.98472 -0.35300
O 	O 	0.02024 0.04691 0.03492 -0.34600
O 	O 	0.92332 0.96326 0.97514 -0.33300
O 	O 	0.86813 0.97801 0.99797 -0.32700
O 	O 	0.13138 0.10057 0.02209 -0.35500
O 	O 	0.09769 0.15113 0.97450 -0.34000
O 	O 	0.16720 0.10909 0.98542 -0.33400
O 	O 	0.94512 0.92447 0.01349 -0.35000
O 	O 	0.02877 0.05380 0.99804 -0.73200
H 	H 	0.05114 0.10111 0.00151 0.17600
C 	C 	0.20584 0.04808 0.24716 -0.09500
C 	C 	0.22654 0.08683 0.26225 0.12200
C 	C 	0.29612 0.11357 0.26837 0.07000
C 	C 	0.34631 0.10586 0.25867 0.01800
C 	C 	0.32488 0.06549 0.24387 0.07200
C 	C 	0.25355 0.03223 0.23901 0.11100
C 	C 	0.42181 0.14229 0.26369 0.01900
C 	C 	0.46294 0.21118 0.26027 0.06900
C 	C 	0.52767 0.24914 0.26883 0.12500
C 	C 	0.55228 0.21741 0.28016 -0.09700
C 	C 	0.51895 0.14734 0.28026 0.12400
C 	C 	0.45133 0.10965 0.27306 0.07200
Br	Br	0.39375 0.05902 0.22968 -0.14400
Br	Br	0.15939 0.10247 0.27458 -0.12700
Br	Br	0.57934 0.34481 0.26625 -0.12700
Br	Br	0.39731 0.01481 0.27717 -0.10900
Br	Br	0.22040 0.96075 0.22250 -0.15300
Br	Br	0.32291 0.16082 0.28995 -0.11600
Br	Br	0.42928 0.25349 0.24443 -0.13500
Br	Br	0.56577 0.10384 0.29057 -0.12600
C 	C 	0.86560 0.79539 0.24867 -0.10400
C 	C 	0.90391 0.78708 0.26210 0.13100
C 	C 	0.87088 0.73095 0.27289 0.06800
C 	C 	0.80040 0.68174 0.26987 0.02200
C 	C 	0.76139 0.69105 0.25683 0.06700
C 	C 	0.79408 0.74740 0.24610 0.13000
C 	C 	0.77017 0.61700 0.27900 0.02100
C 	C 	0.78100 0.56568 0.27249 0.07000
C 	C 	0.75715 0.50600 0.28175 0.13500
C 	C 	0.72028 0.49659 0.29731 -0.10600
C 	C 	0.70715 0.54703 0.30350 0.13100
C 	C 	0.73242 0.60738 0.29438 0.07000
Br	Br	0.66363 0.62530 0.25338 -0.11700
Br	Br	0.00228 0.85119 0.26532 -0.13400
Br	Br	0.77633 0.43769 0.27324 -0.15500
Br	Br	0.71650 0.67740 0.30306 -0.09800
Br	Br	0.74224 0.75638 0.22717 -0.16500
Br	Br	0.92241 0.72041 0.29164 -0.09700
Br	Br	0.82921 0.57764 0.25090 -0.12900
Br	Br	0.65738 0.53470 0.32484 -0.12200
C 	C 	0.78016 0.17634 0.32620 -0.10000
C 	C 	0.85319 0.20277 0.32372 0.12900
C 	C 	0.87749 0.16767 0.31363 0.06500
C 	C 	0.82866 0.10835 0.30539 0.02500
C 	C 	0.75750 0.07622 0.31054 0.05900
C 	C 	0.73389 0.10969 0.32154 0.12800
C 	C 	0.84898 0.08907 0.28915 0.01400
C 	C 	0.84776 0.12056 0.27374 0.06700
C 	C 	0.88060 0.11372 0.25898 0.12700
C 	C 	0.91134 0.07237 0.25931 -0.10300
C 	C 	0.91011 0.03872 0.27451 0.11100
C 	C 	0.87878 0.04694 0.28943 0.07400
Br	Br	0.69204 0.98959 0.30141 -0.07900
Br	Br	0.91913 0.28939 0.33262 -0.12500
Br	Br	0.88648 0.16343 0.23849 -0.14200
Br	Br	0.87769 0.00164 0.31034 -0.11200
Br	Br	0.63850 0.06567 0.32993 -0.12600
Br	Br	0.97705 0.20364 0.30974 -0.10900
Br	Br	0.80175 0.17390 0.27301 -0.13400
Br	Br	0.95135 0.98146 0.27488 -0.11300
C 	C 	0.97210 0.85186 0.02991 -0.10500
C 	C 	0.98680 0.80258 0.02360 0.13400
C 	C 	0.95934 0.74060 0.03204 0.07000
C 	C 	0.91854 0.72850 0.04701 0.02200
C 	C 	0.90621 0.77870 0.05368 0.07000
C 	C 	0.93134 0.83960 0.04493 0.13400
C 	C 	0.88719 0.66258 0.05560 0.02000
C 	C 	0.81690 0.61400 0.05208 0.06900
C 	C 	0.78223 0.55713 0.06258 0.12600
C 	C 	0.81887 0.54727 0.07615 -0.10300
C 	C 	0.89046 0.59424 0.07909 0.12900
C 	C 	0.92458 0.65165 0.06876 0.07100
Br	Br	0.85442 0.76362 0.07484 -0.12600
Br	Br	0.04193 0.81888 0.00298 -0.12800
Br	Br	0.68394 0.49403 0.05878 -0.12700
Br	Br	0.02200 0.71672 0.07296 -0.12400
Br	Br	0.90775 0.90524 0.05322 -0.14100
Br	Br	0.97643 0.67178 0.02300 -0.09800
Br	Br	0.76787 0.62641 0.03305 -0.10300
Br	Br	0.94063 0.58208 0.09790 -0.16400
C 	C 	0.12181 0.12571 0.05136 -0.09500
C 	C 	0.14898 0.09460 0.06210 0.10800
C 	C 	0.21294 0.13386 0.07084 0.07200
C 	C 	0.25019 0.20347 0.06823 0.01700
C 	C 	0.21574 0.23465 0.06030 0.07300
C 	C 	0.14889 0.19489 0.05287 0.12300
C 	C 	0.32738 0.24134 0.07132 0.01900
C 	C 	0.35455 0.28182 0.08601 0.07000
C 	C 	0.42760 0.31670 0.08885 0.12200
C 	C 	0.47163 0.29991 0.07935 -0.10100
C 	C 	0.44537 0.26118 0.06436 0.12600
C 	C 	0.37377 0.23438 0.05993 0.06900
Br	Br	0.26210 0.33058 0.05840 -0.10000
Br	Br	0.10249 0.99866 0.06343 -0.10500
Br	Br	0.46769 0.39395 0.10356 -0.17700
Br	Br	0.33909 0.18808 0.03841 -0.12600
Br	Br	0.09474 0.23426 0.04448 -0.12300
Br	Br	0.25147 0.09265 0.08560 -0.15100
Br	Br	0.29184 0.28516 0.10291 -0.14700
Br	Br	0.50777 0.24636 0.04978 -0.12000
C 	C 	0.91403 0.17233 0.99924 -0.10000
C 	C 	0.84052 0.14648 0.99940 0.12900
C 	C 	0.81165 0.17805 0.00934 0.06700
C 	C 	0.85654 0.23469 0.01914 0.02200
C 	C 	0.92958 0.26798 0.01590 0.07100
C 	C 	0.95811 0.23715 0.00551 0.13000
C 	C 	0.82943 0.24916 0.03503 0.01800
C 	C 	0.80118 0.29255 0.03462 0.07100
C 	C 	0.76913 0.30092 0.04938 0.12400
C 	C 	0.76628 0.26667 0.06460 -0.10500
C 	C 	0.79392 0.22280 0.06495 0.12800
C 	C 	0.82664 0.21500 0.05029 0.06600
Br	Br	0.99038 0.35219 0.02689 -0.10100
Br	Br	0.77958 0.06545 0.98719 -0.14200
Br	Br	0.72880 0.35894 0.04877 -0.13800
Br	Br	0.86771 0.15741 0.05103 -0.13500
Br	Br	0.05732 0.28158 0.00045 -0.12600
Br	Br	0.71092 0.14056 0.01090 -0.11800
Br	Br	0.80637 0.34024 0.01383 -0.10300
Br	Br	0.78446 0.17146 0.08536 -0.14500
C 	C 	0.77603 0.15643 0.15348 0.12500
C 	C 	0.79732 0.10793 0.15318 -0.07400
C 	C 	0.86085 0.12283 0.16137 0.02300
C 	C 	0.89948 0.18137 0.17042 0.12700
C 	C 	0.87801 0.22970 0.17078 -0.07500
C 	C 	0.81437 0.21474 0.16265 0.02500
O 	O 	0.73364 0.16068 0.14075 -0.16200
C 	C 	0.75130 0.22752 0.14300 0.05700
C 	C 	0.79939 0.26010 0.15600 -0.04700
O 	O 	0.94242 0.17751 0.18305 -0.16000
C 	C 	0.92461 0.11059 0.18092 0.05600
C 	C 	0.87596 0.07755 0.16805 -0.04700
H 	H 	0.76697 0.06144 0.14627 0.08800
H 	H 	0.90841 0.27620 0.17769 0.09100
H 	H 	0.83349 0.31375 0.15683 0.07700
H 	H 	0.84176 0.02389 0.16735 0.07300
C 	C 	0.28253 0.17096 0.16948 0.12700
C 	C 	0.31585 0.21528 0.15587 -0.07600
C 	C 	0.36845 0.20988 0.14681 0.03000
C 	C 	0.38998 0.16489 0.15157 0.12500
C 	C 	0.35624 0.12031 0.16509 -0.07500
C 	C 	0.30424 0.12623 0.17425 0.02600
O 	O 	0.21468 0.15325 0.17485 -0.16800
C 	C 	0.19742 0.09259 0.18279 0.05200
C 	C 	0.25051 0.07646 0.18259 -0.04500
O 	O 	0.45842 0.18335 0.14659 -0.16900
C 	C 	0.47629 0.24463 0.13897 0.05500
C 	C 	0.42302 0.26052 0.13888 -0.04700
H 	H 	0.30000 0.25132 0.15216 0.09500
H 	H 	0.37211 0.08430 0.16883 0.09000
H 	H 	0.24337 0.02683 0.18449 0.08300
H 	H 	0.43059 0.31050 0.13751 0.09000
C 	C 	0.78717 0.60880 0.15682 0.12700
C 	C 	0.77455 0.64401 0.16972 -0.07600
C 	C 	0.83159 0.70416 0.17543 0.02700
C 	C 	0.89723 0.73070 0.16799 0.12700
C 	C 	0.90986 0.69543 0.15509 -0.07500
C 	C 	0.85272 0.63535 0.14934 0.02600
O 	O 	0.74593 0.54018 0.15482 -0.17000
C 	C 	0.79341 0.52792 0.14556 0.05200
C 	C 	0.85719 0.58445 0.14234 -0.04400
O 	O 	0.93837 0.79940 0.16997 -0.16700
C 	C 	0.89052 0.81159 0.17909 0.05500
C 	C 	0.82686 0.75502 0.18232 -0.04500
H 	H 	0.72291 0.62407 0.17551 0.09300
H 	H 	0.96149 0.71537 0.14930 0.09400
H 	H 	0.90536 0.58515 0.13856 0.08700
H 	H 	0.77858 0.75418 0.18607 0.08800
C 	C 	0.79868 0.91838 0.97326 -0.10800
C 	C 	0.74429 0.85413 0.97779 0.13400
C 	C 	0.68314 0.82197 0.96754 0.06900
C 	C 	0.67395 0.85652 0.95372 0.02500
C 	C 	0.72505 0.92316 0.95048 0.06600
C 	C 	0.79020 0.95112 0.95887 0.16000
C 	C 	0.61704 0.82050 0.94102 0.02000
C 	C 	0.63354 0.80287 0.92509 0.06600
C 	C 	0.58645 0.78598 0.91131 0.12900
C 	C 	0.51707 0.77315 0.91426 -0.10200
C 	C 	0.49936 0.78889 0.93042 0.12700
C 	C 	0.55012 0.81428 0.94362 0.07200
Br	Br	0.70626 0.97537 0.93412 -0.10000
Br	Br	0.75530 0.80898 0.99741 -0.11700
Br	Br	0.62017 0.79045 0.88816 -0.15200
Br	Br	0.52891 0.84242 0.96508 -0.09200
Br	Br	0.86943 0.02902 0.94915 -0.20800
Br	Br	0.61368 0.73013 0.97190 -0.09700
Br	Br	0.72128 0.80271 0.92212 -0.11900
Br	Br	0.40654 0.77685 0.93448 -0.12700
C 	C 	0.26860 0.50503 0.93170 -0.09700
C 	C 	0.20323 0.44825 0.93545 0.12700
C 	C 	0.20124 0.39899 0.94655 0.06800
C 	C 	0.26396 0.40862 0.95441 0.02000
C 	C 	0.32561 0.47121 0.95319 0.06900
C 	C 	0.32556 0.52127 0.94292 0.12800
C 	C 	0.26607 0.35163 0.96265 0.01900
C 	C 	0.25570 0.34129 0.98048 0.07300
C 	C 	0.23806 0.27845 0.98736 0.12400
C 	C 	0.22158 0.22460 0.97629 -0.09700
C 	C 	0.24512 0.23816 0.95918 0.12700
C 	C 	0.26842 0.30236 0.95238 0.06900
Br	Br	0.41138 0.48624 0.96420 -0.10500
Br	Br	0.11664 0.44457 0.92844 -0.14400
Br	Br	0.23329 0.26480 0.01170 -0.12900
Br	Br	0.29939 0.32186 0.92888 -0.14100
Br	Br	0.39975 0.61251 0.94523 -0.13100
Br	Br	0.11369 0.31776 0.95057 -0.13000
Br	Br	0.25948 0.41059 0.99511 -0.09200
Br	Br	0.23649 0.16691 0.94462 -0.13000
C 	C 	0.19553 0.73053 0.91085 -0.10400
C 	C 	0.17061 0.76836 0.90198 0.12900
C 	C 	0.15086 0.80902 0.91114 0.06700
C 	C 	0.14666 0.80525 0.92914 0.01900
C 	C 	0.16230 0.76066 0.93796 0.06900
C 	C 	0.18851 0.72450 0.92890 0.12700
C 	C 	0.12849 0.85006 0.93882 0.02500
C 	C 	0.18242 0.91004 0.94579 0.06400
C 	C 	0.16523 0.95170 0.95540 0.15200
C 	C 	0.09444 0.93677 0.95667 -0.11700
C 	C 	0.04073 0.87839 0.94894 0.13300
C 	C 	0.05750 0.83381 0.94059 0.06700
Br	Br	0.14829 0.74978 0.96245 -0.09900
Br	Br	0.15635 0.75923 0.87748 -0.17500
Br	Br	0.23796 0.02616 0.96790 -0.16400
Br	Br	0.98340 0.74974 0.93193 -0.11100
Br	Br	0.21448 0.66710 0.94126 -0.11700
Br	Br	0.13200 0.87180 0.89907 -0.12700
Br	Br	0.27990 0.93521 0.94205 -0.10000
Br	Br	0.94411 0.85898 0.95010 -0.11900
C 	C 	0.17861 0.73764 0.82291 0.13200
C 	C 	0.19452 0.80093 0.81681 -0.07300
C 	C 	0.14392 0.82104 0.81889 0.02900
C 	C 	0.07722 0.77784 0.82479 0.13100
C 	C 	0.06050 0.71414 0.83071 -0.07000
C 	C 	0.11241 0.69485 0.82946 0.02600
O 	O 	0.23088 0.72519 0.82895 -0.16600
C 	C 	0.19113 0.67375 0.84050 0.06000
C 	C 	0.12019 0.65452 0.84069 -0.04400
O 	O 	0.02640 0.79415 0.81964 -0.16400
C 	C 	0.07001 0.85157 0.81015 0.06300
C 	C 	0.13982 0.86787 0.80958 -0.04700
H 	H 	0.24628 0.83495 0.81172 0.09200
H 	H 	0.00894 0.68065 0.83598 0.09100
H 	H 	0.08502 0.62986 0.85137 0.08400
H 	H 	0.17715 0.89853 0.79981 0.07600
C 	C 	0.12406 0.20988 0.84608 0.12600
C 	C 	0.10638 0.25865 0.85078 -0.07600
C 	C 	0.15615 0.32578 0.84796 0.02200
C 	C 	0.22380 0.34476 0.84287 0.13000
C 	C 	0.24253 0.29650 0.83857 -0.07700
C 	C 	0.19143 0.22881 0.84035 0.02700
O 	O 	0.07328 0.14770 0.84015 -0.17300
C 	C 	0.11498 0.13319 0.82932 0.05600
C 	C 	0.18577 0.18032 0.82976 -0.05100
O 	O 	0.27309 0.40956 0.84752 -0.16900
C 	C 	0.22781 0.42738 0.85577 0.05500
C 	C 	0.15823 0.37779 0.85620 -0.04700
H 	H 	0.05378 0.24445 0.85523 0.08600
H 	H 	0.29505 0.31105 0.83399 0.09100
H 	H 	0.22277 0.18801 0.81955 0.08600
H 	H 	0.12022 0.37415 0.86572 0.07100
C 	C 	0.70866 0.80734 0.82958 0.12800
C 	C 	0.65244 0.74157 0.82994 -0.07200
C 	C 	0.58366 0.73117 0.82799 0.02400
C 	C 	0.57115 0.78409 0.82593 0.13500
C 	C 	0.62767 0.84966 0.82557 -0.07600
C 	C 	0.69568 0.86003 0.82853 0.03400
O 	O 	0.77616 0.82294 0.82446 -0.16600
C 	C 	0.80195 0.88997 0.82005 0.06400
C 	C 	0.75453 0.91246 0.82266 -0.05000
O 	O 	0.50499 0.77052 0.83141 -0.16500
C 	C 	0.48116 0.70711 0.83840 0.06000
C 	C 	0.52681 0.68234 0.83590 -0.04200
H 	H 	0.66193 0.69985 0.83143 0.08900
H 	H 	0.61839 0.89152 0.82409 0.09800
H 	H 	0.75607 0.95472 0.81611 0.09600
H 	H 	0.52840 0.64480 0.84400 0.07400
C 	C 	0.79672 0.95831 0.75298 -0.10900
C 	C 	0.78169 0.92658 0.73685 0.13000
C 	C 	0.71453 0.90258 0.72947 0.06800
C 	C 	0.66143 0.90736 0.73863 0.02400
C 	C 	0.67816 0.94374 0.75409 0.06400
C 	C 	0.74669 0.97167 0.76086 0.14900
C 	C 	0.58697 0.86809 0.73299 0.01800
C 	C 	0.55631 0.89811 0.72300 0.07200
C 	C 	0.48816 0.85859 0.71624 0.12600
C 	C 	0.45455 0.78866 0.71765 -0.09900
C 	C 	0.48194 0.75955 0.72904 0.12500
C 	C 	0.54750 0.79964 0.73702 0.07000
Br	Br	0.60601 0.95150 0.76651 -0.12400
Br	Br	0.85271 0.91502 0.72510 -0.11600
Br	Br	0.43940 0.89977 0.70575 -0.11500
Br	Br	0.58427 0.76076 0.75311 -0.14000
Br	Br	0.77200 0.02854 0.78080 -0.20800
Br	Br	0.69432 0.86146 0.70708 -0.10500
Br	Br	0.60912 0.99211 0.71772 -0.09000
Br	Br	0.43142 0.66473 0.73314 -0.13100
C 	C 	0.28159 0.50395 0.71118 -0.10400
C 	C 	0.29414 0.45288 0.70513 0.13000
C 	C 	0.27050 0.39368 0.71466 0.07000
C 	C 	0.23368 0.38506 0.73013 0.02000
C 	C 	0.22522 0.43763 0.73675 0.07000
C 	C 	0.24907 0.49700 0.72730 0.13200
C 	C 	0.20011 0.31938 0.73890 0.02100
C 	C 	0.13028 0.27110 0.73481 0.06800
C 	C 	0.09671 0.21040 0.74388 0.12600
C 	C 	0.13326 0.19747 0.75689 -0.10600
C 	C 	0.20363 0.24529 0.76075 0.13000
C 	C 	0.23713 0.30600 0.75168 0.06700
Br	Br	0.17930 0.42741 0.75859 -0.13400
Br	Br	0.34016 0.46217 0.68342 -0.12400
Br	Br	0.00032 0.14539 0.73868 -0.14000
Br	Br	0.33350 0.37139 0.75685 -0.12400
Br	Br	0.23612 0.56842 0.73634 -0.15000
Br	Br	0.28678 0.32339 0.70634 -0.10700
Br	Br	0.08058 0.28866 0.71686 -0.11500
Br	Br	0.25302 0.22893 0.77900 -0.17400
C 	C 	0.19698 0.80147 0.67139 -0.10000
C 	C 	0.12397 0.77800 0.67077 0.13000
C 	C 	0.09544 0.80979 0.68078 0.06700
C 	C 	0.14072 0.86575 0.69078 0.02200
C 	C 	0.21392 0.89805 0.68769 0.07000
C 	C 	0.24158 0.86661 0.67727 0.12600
C 	C 	0.11381 0.88028 0.70670 0.02000
C 	C 	0.09485 0.93061 0.70692 0.06800
C 	C 	0.07178 0.94569 0.72229 0.14100
C 	C 	0.06349 0.90765 0.73715 -0.10800
C 	C 	0.07976 0.85555 0.73673 0.13000
C 	C 	0.10664 0.84303 0.72166 0.06600
Br	Br	0.27603 0.98100 0.69905 -0.10100
Br	Br	0.06456 0.70588 0.65562 -0.12000
Br	Br	0.05522 0.02054 0.72329 -0.16000
Br	Br	0.13481 0.77549 0.72154 -0.13700
Br	Br	0.33874 0.91265 0.67035 -0.11500
Br	Br	0.99491 0.77349 0.68214 -0.09800
Br	Br	0.09985 0.97822 0.68613 -0.08800
Br	Br	0.06459 0.80096 0.75682 -0.15200
C 	C 	0.60230 0.41254 0.37184 -0.10600
C 	C 	0.62715 0.43667 0.38855 0.13200
C 	C 	0.59846 0.47061 0.39773 0.07100
C 	C 	0.55371 0.48957 0.38929 0.02200
C 	C 	0.53347 0.46961 0.37222 0.06900
C 	C 	0.55015 0.42425 0.36448 0.13800
C 	C 	0.52303 0.52532 0.39871 0.02000
C 	C 	0.45080 0.49182 0.40277 0.06800
C 	C 	0.41925 0.52805 0.40897 0.12500
C 	C 	0.46169 0.59401 0.41501 -0.09800
C 	C 	0.53539 0.62684 0.41187 0.12800
C 	C 	0.56438 0.59404 0.40236 0.06900
Br	Br	0.48448 0.50568 0.35929 -0.09700
Br	Br	0.70327 0.42783 0.39843 -0.12500
Br	Br	0.31812 0.48856 0.40831 -0.13900
Br	Br	0.65978 0.64353 0.39395 -0.10400
Br	Br	0.49464 0.37166 0.34528 -0.17600
Br	Br	0.61824 0.48879 0.42186 -0.13200
Br	Br	0.39574 0.39598 0.40049 -0.12000
Br	Br	0.59796 0.71283 0.42196 -0.13800
C 	C 	0.16606 0.57675 0.41221 -0.10600
C 	C 	0.19781 0.58713 0.39588 0.12800
C 	C 	0.15534 0.56615 0.38106 0.07000
C 	C 	0.08262 0.54374 0.38240 0.02300
C 	C 	0.05350 0.54406 0.39850 0.05900
C 	C 	0.09319 0.55393 0.41346 0.13100
C 	C 	0.03461 0.50616 0.36812 0.01500
C 	C 	0.01630 0.53961 0.35570 0.06600
C 	C 	0.95483 0.50319 0.34573 0.13500
C 	C 	0.90819 0.43546 0.34958 -0.10800
C 	C 	0.92660 0.40347 0.36242 0.13700
C 	C 	0.99423 0.43649 0.36948 0.07800
Br	Br	0.95816 0.52815 0.40000 -0.11400
Br	Br	0.29907 0.63547 0.39370 -0.14400
Br	Br	0.93230 0.54670 0.32763 -0.11900
Br	Br	0.02869 0.38761 0.38263 -0.12100
Br	Br	0.04622 0.52869 0.43542 -0.14900
Br	Br	0.19575 0.56419 0.35922 -0.09800
Br	Br	0.07212 0.63518 0.35328 -0.10400
Br	Br	0.85589 0.32293 0.37327 -0.16700
C 	C 	0.40411 0.86705 0.41383 -0.10600
C 	C 	0.35833 0.89422 0.41460 0.13000
C 	C 	0.36265 0.93975 0.40205 0.06400
C 	C 	0.42163 0.96990 0.39120 0.03700
C 	C 	0.47094 0.94696 0.39125 0.06400
C 	C 	0.45927 0.89229 0.40166 0.12700
C 	C 	0.43494 0.02932 0.38093 0.00200
C 	C 	0.42363 0.02391 0.36303 0.06400
C 	C 	0.44844 0.08233 0.35305 0.12400
C 	C 	0.48269 0.14525 0.36106 -0.09700
C 	C 	0.47805 0.14882 0.37897 0.12300
C 	C 	0.45976 0.09188 0.38900 0.07200
Br	Br	0.55531 0.99168 0.37755 -0.10100
Br	Br	0.29625 0.87633 0.43393 -0.18000
Br	Br	0.43943 0.07692 0.32845 -0.12600
Br	Br	0.47474 0.10057 0.41349 -0.15000
Br	Br	0.51495 0.84909 0.39820 -0.12200
Br	Br	0.28768 0.96077 0.39968 -0.10400
Br	Br	0.37574 0.93719 0.35229 -0.08400
Br	Br	0.50114 0.23266 0.38965 -0.13100
C 	C 	0.51816 0.37809 0.59125 -0.09700
C 	C 	0.44406 0.33983 0.59376 0.12800
C 	C 	0.40956 0.36681 0.60355 0.07000
C 	C 	0.44536 0.43537 0.60778 0.01900
C 	C 	0.51783 0.47391 0.60427 0.06800
C 	C 	0.55496 0.44251 0.59852 0.12400
C 	C 	0.40917 0.46551 0.61741 0.02200
C 	C 	0.35940 0.47855 0.60920 0.07000
C 	C 	0.32923 0.51132 0.61829 0.13300
C 	C 	0.35896 0.54264 0.63414 -0.10800
C 	C 	0.41533 0.53648 0.64107 0.13800
C 	C 	0.43154 0.48966 0.63412 0.06900
Br	Br	0.56543 0.56989 0.60641 -0.12000
Br	Br	0.38840 0.25398 0.58288 -0.13800
Br	Br	0.24440 0.50771 0.60975 -0.12900
Br	Br	0.48460 0.45904 0.64742 -0.09900
Br	Br	0.65503 0.48471 0.60227 -0.14000
Br	Br	0.31512 0.30949 0.61182 -0.10900
Br	Br	0.33638 0.45606 0.58535 -0.13300
Br	Br	0.47958 0.60119 0.65731 -0.17400
C 	C 	0.81678 0.42344 0.60135 -0.10400
C 	C 	0.78507 0.38643 0.61630 0.12500
C 	C 	0.82546 0.39788 0.63129 0.07100
C 	C 	0.89678 0.44825 0.63148 0.01900
C 	C 	0.92682 0.48871 0.61689 0.07000
C 	C 	0.88695 0.47595 0.60179 0.13000
C 	C 	0.94115 0.45735 0.64670 0.02000
C 	C 	0.94931 0.50422 0.65941 0.07200
C 	C 	0.00795 0.52956 0.67043 0.12800
C 	C 	0.06119 0.51289 0.66741 -0.10400
C 	C 	0.04404 0.45497 0.65784 0.12500
C 	C 	0.98448 0.42786 0.64709 0.07100
Br	Br	0.02308 0.56082 0.61757 -0.13900
Br	Br	0.68632 0.32028 0.61621 -0.14400
Br	Br	0.00940 0.57711 0.69094 -0.11900
Br	Br	0.96518 0.35433 0.63203 -0.11700
Br	Br	0.92837 0.53002 0.58163 -0.14700
Br	Br	0.78401 0.34348 0.65138 -0.10400
Br	Br	0.88320 0.53669 0.66091 -0.09800
Br	Br	0.10189 0.41343 0.65958 -0.11800
C 	C 	0.47214 0.81921 0.63556 -0.09600
C 	C 	0.51658 0.87956 0.64408 0.12200
C 	C 	0.54502 0.94051 0.63507 0.08300
C 	C 	0.52939 0.94055 0.61751 0.03100
C 	C 	0.49286 0.87943 0.60859 0.06800
C 	C 	0.46734 0.81884 0.61756 0.12700
C 	C 	0.55122 0.00458 0.60842 0.00900
C 	C 	0.50913 0.03539 0.60934 0.05600
C 	C 	0.52873 0.09487 0.60018 0.12700
C 	C 	0.58700 0.12044 0.58896 -0.10500
C 	C 	0.62734 0.08777 0.58756 0.13100
C 	C 	0.61208 0.03275 0.59812 0.05600
Br	Br	0.47428 0.87878 0.58436 -0.12600
Br	Br	0.53860 0.87843 0.66794 -0.12100
Br	Br	0.47794 0.14286 0.60363 -0.13300
Br	Br	0.67467 0.99588 0.59855 -0.09500
Br	Br	0.42344 0.73495 0.60540 -0.13300
Br	Br	0.60363 0.02374 0.64679 -0.12400
Br	Br	0.42407 0.99539 0.62289 -0.09300
Br	Br	0.69931 0.11424 0.57020 -0.18500
C 	C 	0.49751 0.45743 0.51549 0.12700
C 	C 	0.44040 0.46398 0.50967 -0.07600
C 	C 	0.45245 0.50894 0.49623 0.02400
C 	C 	0.51866 0.54872 0.48949 0.12600
C 	C 	0.57593 0.54227 0.49535 -0.07400
C 	C 	0.56389 0.49742 0.50887 0.02300
O 	O 	0.48903 0.39992 0.52352 -0.16400
C 	C 	0.55663 0.40882 0.52084 0.05500
C 	C 	0.60136 0.46675 0.51208 -0.05200
O 	O 	0.52686 0.60616 0.48141 -0.16100
C 	C 	0.45941 0.59744 0.48435 0.05500
C 	C 	0.41513 0.53970 0.49319 -0.05400
H 	H 	0.38819 0.43362 0.51500 0.08800
H 	H 	0.62814 0.57262 0.49002 0.09100
H 	H 	0.65057 0.47760 0.50601 0.07700
H 	H 	0.36604 0.52879 0.49935 0.07400
C 	C 	0.56857 0.09979 0.49432 0.12500
C 	C 	0.51313 0.05669 0.48354 -0.09100
C 	C 	0.50733 0.99483 0.47941 0.04000
C 	C 	0.54799 0.97232 0.48744 0.14800
C 	C 	0.59954 0.01318 0.49936 -0.11900
C 	C 	0.61245 0.07895 0.50151 0.03700
O 	O 	0.56738 0.15169 0.50318 -0.16900
C 	C 	0.61381 0.15923 0.51645 0.06000
C 	C 	0.64073 0.11615 0.51562 -0.05800
O 	O 	0.51851 0.90313 0.48729 -0.17100
C 	C 	0.45575 0.88647 0.47862 0.06100
C 	C 	0.44794 0.94073 0.47442 -0.05500
H 	H 	0.47331 0.06898 0.47953 0.09300
H 	H 	0.62577 0.99341 0.50729 0.11300
H 	H 	0.66088 0.10137 0.52650 0.08600
H 	H 	0.40871 0.94055 0.46586 0.09400
C 	C 	0.97056 0.45668 0.51964 0.13300
C 	C 	0.01618 0.44945 0.50830 -0.08100
C 	C 	0.06561 0.50622 0.49947 0.02600
C 	C 	0.07325 0.56824 0.50239 0.12900
C 	C 	0.02890 0.57618 0.51401 -0.08000
C 	C 	0.97878 0.51928 0.52287 0.03000
O 	O 	0.90354 0.40440 0.52317 -0.17200
C 	C 	0.87191 0.44152 0.52839 0.05400
C 	C 	0.91633 0.50974 0.52844 -0.04100
O 	O 	0.13755 0.62072 0.49701 -0.16700
C 	C 	0.16752 0.58344 0.49055 0.05600
C 	C 	0.12587 0.51522 0.49275 -0.04900
H 	H 	0.01087 0.40083 0.50582 0.08700
H 	H 	0.03367 0.62475 0.51620 0.09100
H 	H 	0.89959 0.54697 0.52845 0.07800
H 	H 	0.13294 0.47698 0.48641 0.07600
