data_crystal

_cell_length_a 43.01396
_cell_length_b 43.46872
_cell_length_c 29.23902
_cell_angle_alpha 92.20833
_cell_angle_beta  87.90961
_cell_angle_gamma 89.84641

_symmetry_space_group_name_	'P 1'
_symmetry_space_group_name_H-M	'P 1'

loop_
_symmetry_equiv_pos_as_xyz
  x,y,z

loop_
_atom_site_label
_atom_site_type_symbol
_atom_site_fract_x
_atom_site_fract_y
_atom_site_fract_z
_atom_site_charge
Cd	Cd	0.06312 0.82372 0.27534 1.24400
Cd	Cd	0.02237 0.85554 0.37374 1.18900
O 	O 	0.08277 0.77053 0.27681 -0.29300
O 	O 	0.08741 0.79741 0.21496 -0.32700
C 	C 	0.09307 0.77173 0.23460 0.24500
O 	O 	0.04366 0.86766 0.25113 -0.36400
O 	O 	0.03669 0.89086 0.32251 -0.43500
C 	C 	0.03065 0.88927 0.27855 0.29700
C 	C 	0.00056 0.80613 0.29434 0.32100
O 	O 	0.07264 0.83617 0.36273 -0.43600
O 	O 	0.00876 0.79835 0.25194 -0.28100
O 	O 	0.02248 0.81669 0.31949 -0.52800
C 	C 	0.09741 0.85122 0.34997 0.29200
O 	O 	0.10472 0.84974 0.30621 -0.33700
Cd	Cd	0.97216 0.88237 0.96598 1.24500
Cd	Cd	0.96479 0.90505 0.85096 1.19100
O 	O 	0.01236 0.84382 0.97996 -0.29800
O 	O 	0.98424 0.86562 0.03655 -0.31800
C 	C 	0.00626 0.84619 0.02378 0.24300
O 	O 	0.93967 0.92304 0.97222 -0.35700
O 	O 	0.92411 0.91886 0.89799 -0.42600
C 	C 	0.92630 0.93501 0.93684 0.29100
C 	C 	0.01663 0.92291 0.92671 0.31300
O 	O 	0.95941 0.85806 0.88509 -0.42500
O 	O 	0.01922 0.92284 0.97114 -0.26000
O 	O 	0.99762 0.90289 0.90982 -0.53500
C 	C 	0.93403 0.84702 0.90368 0.30900
O 	O 	0.93113 0.85035 0.94822 -0.34800
C 	C 	0.03733 0.66707 0.95707 0.09900
N 	N 	0.01809 0.64238 0.95984 -0.13400
C 	C 	0.01466 0.62308 0.92273 0.12300
N 	N 	0.03008 0.62882 0.88265 -0.13900
C 	C 	0.04936 0.65337 0.87973 0.12200
N 	N 	0.05328 0.67232 0.91712 -0.12200
C 	C 	0.15856 0.61698 0.34416 0.09900
N 	N 	0.16223 0.62732 0.38812 -0.12300
C 	C 	0.15390 0.60919 0.42340 0.12100
N 	N 	0.14191 0.58079 0.41457 -0.13900
C 	C 	0.13777 0.57059 0.37074 0.12200
N 	N 	0.14636 0.58865 0.33564 -0.13500
Cd	Cd	0.80680 0.89320 0.71747 1.24300
Cd	Cd	0.81886 0.92490 0.82950 1.19700
O 	O 	0.75828 0.86484 0.70570 -0.29500
O 	O 	0.79105 0.87354 0.64814 -0.32600
C 	C 	0.76481 0.86165 0.66209 0.24100
O 	O 	0.84860 0.92344 0.70861 -0.36500
O 	O 	0.86224 0.92282 0.78378 -0.42100
C 	C 	0.86533 0.93430 0.74273 0.29000
C 	C 	0.77394 0.94730 0.74890 0.31700
O 	O 	0.81186 0.87505 0.80133 -0.42000
O 	O 	0.77247 0.94357 0.70442 -0.28600
O 	O 	0.78685 0.92507 0.76942 -0.52200
C 	C 	0.83359 0.85596 0.78621 0.30300
O 	O 	0.83794 0.85379 0.74172 -0.34400
Cd	Cd	0.86080 0.89964 0.42902 1.24300
Cd	Cd	0.90380 0.91000 0.32489 1.20500
O 	O 	0.80838 0.87747 0.42408 -0.29100
O 	O 	0.82979 0.88631 0.49057 -0.32400
C 	C 	0.80583 0.87651 0.46835 0.24000
O 	O 	0.90891 0.91250 0.45087 -0.35200
O 	O 	0.92192 0.93736 0.38504 -0.40200
C 	C 	0.92981 0.92634 0.42437 0.29200
C 	C 	0.88894 0.84766 0.38138 0.31900
O 	O 	0.85647 0.92996 0.35321 -0.42600
O 	O 	0.88054 0.84110 0.42329 -0.27900
O 	O 	0.88017 0.87446 0.36879 -0.51800
C 	C 	0.85228 0.95498 0.37881 0.30100
O 	O 	0.84888 0.95117 0.42275 -0.33100
C 	C 	0.60407 0.80222 0.74929 0.09900
N 	N 	0.61327 0.79402 0.79118 -0.12300
C 	C 	0.59483 0.80064 0.82914 0.12200
N 	N 	0.56721 0.81528 0.82498 -0.13800
C 	C 	0.55808 0.82366 0.78330 0.12300
N 	N 	0.57651 0.81709 0.74551 -0.13400
C 	C 	0.63040 0.85688 0.37617 0.09800
N 	N 	0.63495 0.84192 0.33468 -0.13300
C 	C 	0.61609 0.84796 0.29974 0.12200
N 	N 	0.59266 0.86882 0.30644 -0.13800
C 	C 	0.58828 0.88401 0.34762 0.12200
N 	N 	0.60729 0.87815 0.38234 -0.12400
Cd	Cd	0.95760 0.07319 0.22969 1.24300
Cd	Cd	0.96980 0.05306 0.34390 1.18900
O 	O 	0.94414 0.12706 0.21679 -0.29900
O 	O 	0.95166 0.09345 0.15934 -0.32300
C 	C 	0.94482 0.12163 0.17281 0.24400
O 	O 	0.97724 0.02525 0.22250 -0.36700
O 	O 	0.96299 0.01223 0.29575 -0.39600
C 	C 	0.97782 0.00577 0.25620 0.29800
C 	C 	0.01442 0.08907 0.27129 0.32700
O 	O 	0.92652 0.07201 0.30897 -0.44200
O 	O 	0.01679 0.09196 0.22696 -0.28100
O 	O 	0.98657 0.08411 0.28747 -0.53400
C 	C 	0.90527 0.05588 0.28830 0.30800
O 	O 	0.90877 0.05314 0.24381 -0.33000
Cd	Cd	0.81490 0.10233 0.90391 1.24400
Cd	Cd	0.84729 0.06294 0.80443 1.19600
O 	O 	0.77615 0.14309 0.89359 -0.28800
O 	O 	0.78824 0.12883 0.96208 -0.33200
C 	C 	0.77173 0.14668 0.93762 0.24200
O 	O 	0.84124 0.06285 0.93146 -0.35700
O 	O 	0.87388 0.05551 0.86811 -0.42100
C 	C 	0.86176 0.04574 0.90699 0.29300
C 	C 	0.77889 0.05773 0.85601 0.31800
O 	O 	0.84788 0.11425 0.82916 -0.43100
O 	O 	0.76635 0.06379 0.89680 -0.27800
O 	O 	0.80241 0.07453 0.84455 -0.52400
C 	C 	0.86836 0.12731 0.85516 0.30000
O 	O 	0.86026 0.13065 0.89855 -0.33200
C 	C 	0.78334 0.32544 0.86528 0.09900
N 	N 	0.78097 0.31856 0.81977 -0.13300
C 	C 	0.79656 0.33559 0.78841 0.12200
N 	N 	0.81433 0.35963 0.80270 -0.13900
C 	C 	0.81675 0.36656 0.84812 0.12200
N 	N 	0.80142 0.34928 0.87935 -0.12500
C 	C 	0.89347 0.29245 0.24810 0.09900
N 	N 	0.87387 0.28926 0.28519 -0.12300
C 	C 	0.87624 0.30854 0.32266 0.12200
N 	N 	0.89823 0.33087 0.32296 -0.13800
C 	C 	0.91798 0.33395 0.28620 0.12300
N 	N 	0.91550 0.31482 0.24875 -0.13500
Cd	Cd	0.03015 0.05411 0.74124 1.24400
Cd	Cd	0.99386 0.04243 0.85005 1.18500
O 	O 	0.07869 0.08397 0.73738 -0.29400
O 	O 	0.06054 0.05999 0.67644 -0.32600
C 	C 	0.08215 0.07725 0.69386 0.24300
O 	O 	0.99237 0.02018 0.72671 -0.36100
O 	O 	0.96219 0.03338 0.79097 -0.41900
C 	C 	0.96818 0.01506 0.75461 0.29100
C 	C 	0.05456 0.00912 0.79842 0.31000
O 	O 	0.00706 0.08653 0.81188 -0.44600
O 	O 	0.06622 0.00543 0.75666 -0.27100
O 	O 	0.03800 0.03372 0.80647 -0.53800
C 	C 	0.98947 0.10090 0.78429 0.30400
O 	O 	0.99451 0.09433 0.74063 -0.32500
Cd	Cd	0.11398 0.00231 0.47584 1.24100
Cd	Cd	0.10079 0.96344 0.36905 1.20600
O 	O 	0.15894 0.03693 0.47828 -0.29900
O 	O 	0.12593 0.03422 0.53707 -0.32500
C 	C 	0.15107 0.04648 0.51966 0.23800
O 	O 	0.06723 0.98046 0.48687 -0.35100
O 	O 	0.07357 0.94420 0.42834 -0.41900
C 	C 	0.05526 0.96076 0.45678 0.30200
C 	C 	0.08503 0.03578 0.40601 0.30600
O 	O 	0.14203 0.96407 0.41702 -0.44800
O 	O 	0.08230 0.04955 0.44649 -0.28000
O 	O 	0.10352 0.01188 0.40364 -0.49300
C 	C 	0.14576 0.94508 0.44966 0.30300
O 	O 	0.13841 0.95610 0.49084 -0.33100
C 	C 	0.26344 0.06473 0.78024 0.09900
N 	N 	0.28587 0.04272 0.77499 -0.12500
C 	C 	0.30541 0.03775 0.80940 0.12200
N 	N 	0.30204 0.05441 0.84952 -0.13800
C 	C 	0.27918 0.07595 0.85539 0.12200
N 	N 	0.25995 0.08124 0.82061 -0.13300
C 	C 	0.29404 0.12640 0.40295 0.09800
N 	N 	0.28535 0.13489 0.36091 -0.13400
C 	C 	0.30350 0.12728 0.32306 0.12200
N 	N 	0.33034 0.11129 0.32740 -0.13800
C 	C 	0.33894 0.10259 0.36919 0.12200
N 	N 	0.32078 0.11019 0.40690 -0.12400
C 	C 	0.29319 0.13438 0.27702 -0.02000
C 	C 	0.31518 0.14278 0.24309 -0.01600
C 	C 	0.30686 0.14375 0.19740 -0.04700
C 	C 	0.27642 0.13651 0.18514 0.01700
C 	C 	0.25389 0.13011 0.21944 -0.04600
C 	C 	0.26224 0.12905 0.26521 -0.01600
C 	C 	0.26908 0.13250 0.13622 0.00700
C 	C 	0.27467 0.15650 0.10620 -0.03700
C 	C 	0.27260 0.15114 0.05889 -0.03700
C 	C 	0.26478 0.12180 0.04125 0.00800
C 	C 	0.25750 0.09831 0.07141 -0.03600
C 	C 	0.25968 0.10361 0.11866 -0.03500
C 	C 	0.26751 0.11470 0.99144 0.01600
C 	C 	0.29682 0.11498 0.96877 -0.04700
C 	C 	0.30033 0.10390 0.92335 -0.01700
C 	C 	0.27453 0.09251 0.90007 -0.01900
C 	C 	0.24490 0.09386 0.92190 -0.01600
C 	C 	0.24142 0.10482 0.96748 -0.04600
H 	H 	0.33899 0.14750 0.25189 0.04200
H 	H 	0.32439 0.14891 0.17129 0.04500
H 	H 	0.23021 0.12493 0.21045 0.05000
H 	H 	0.24500 0.12274 0.29107 0.04700
H 	H 	0.28157 0.17899 0.11940 0.04300
H 	H 	0.27799 0.16951 0.03591 0.04400
H 	H 	0.25138 0.07559 0.05815 0.04700
H 	H 	0.25530 0.08492 0.14147 0.04700
H 	H 	0.31708 0.12269 0.98689 0.04500
H 	H 	0.32325 0.10333 0.90667 0.04200
H 	H 	0.22480 0.08522 0.90427 0.04800
H 	H 	0.21864 0.10476 0.98456 0.05000
C 	C 	0.25034 0.12394 0.50703 0.11600
C 	C 	0.23884 0.10372 0.53974 -0.08500
C 	C 	0.20650 0.10140 0.54718 0.01500
C 	C 	0.18611 0.11714 0.52101 0.12200
C 	C 	0.19766 0.13667 0.48730 -0.08800
C 	C 	0.22996 0.14062 0.48214 0.02300
O 	O 	0.27927 0.11921 0.48517 -0.20100
C 	C 	0.27393 0.13323 0.44401 0.10100
C 	C 	0.24479 0.14636 0.44205 -0.08500
O 	O 	0.15764 0.10257 0.51654 -0.18200
C 	C 	0.16370 0.07530 0.53836 0.06400
C 	C 	0.19226 0.07508 0.55831 -0.06300
H 	H 	0.25443 0.08778 0.55508 0.07100
H 	H 	0.18219 0.14578 0.46267 0.07500
H 	H 	0.23317 0.15064 0.41061 0.06600
H 	H 	0.20465 0.05417 0.56565 0.05900
C 	C 	0.15884 0.09746 0.67171 0.12400
C 	C 	0.18380 0.11126 0.69412 -0.08900
C 	C 	0.21050 0.09351 0.70021 0.02300
C 	C 	0.21120 0.06230 0.68932 0.11500
C 	C 	0.18547 0.04811 0.66944 -0.08500
C 	C 	0.16022 0.06665 0.65840 0.01400
O 	O 	0.12876 0.10878 0.67816 -0.18300
C 	C 	0.11213 0.08170 0.66988 0.06500
C 	C 	0.13070 0.05669 0.65695 -0.05200
O 	O 	0.23193 0.04591 0.71459 -0.19900
C 	C 	0.24265 0.07005 0.74260 0.10200
C 	C 	0.23024 0.09844 0.73427 -0.08700
H 	H 	0.18139 0.13417 0.70980 0.07400
H 	H 	0.18413 0.02324 0.66610 0.07600
H 	H 	0.12390 0.03296 0.66151 0.07200
H 	H 	0.22927 0.11794 0.75853 0.06600
C 	C 	0.79520 0.32735 0.73906 -0.01900
C 	C 	0.79699 0.29637 0.72356 -0.01600
C 	C 	0.79913 0.28883 0.67656 -0.04600
C 	C 	0.79935 0.31217 0.64469 0.01700
C 	C 	0.79636 0.34304 0.66014 -0.04700
C 	C 	0.79431 0.35060 0.70707 -0.01700
C 	C 	0.80504 0.30456 0.59541 0.00700
C 	C 	0.83396 0.29252 0.57966 -0.03600
C 	C 	0.84106 0.28931 0.53266 -0.03600
C 	C 	0.81926 0.29805 0.50094 0.00700
C 	C 	0.78973 0.30857 0.51668 -0.03700
C 	C 	0.78267 0.31187 0.56373 -0.03700
C 	C 	0.82863 0.29955 0.45190 0.01700
C 	C 	0.84003 0.27318 0.42744 -0.04500
C 	C 	0.85363 0.27568 0.38348 -0.01600
C 	C 	0.85600 0.30456 0.36375 -0.01600
C 	C 	0.84269 0.33051 0.38700 -0.01700
C 	C 	0.82913 0.32803 0.43086 -0.04600
H 	H 	0.79770 0.27821 0.74786 0.04900
H 	H 	0.80127 0.26492 0.66496 0.05100
H 	H 	0.79645 0.36122 0.63580 0.04600
H 	H 	0.79252 0.37455 0.71856 0.04300
H 	H 	0.85136 0.28674 0.60383 0.04700
H 	H 	0.86392 0.28118 0.52093 0.04700
H 	H 	0.77261 0.31508 0.49251 0.04400
H 	H 	0.76016 0.32089 0.57554 0.04400
H 	H 	0.83936 0.25100 0.44310 0.05000
H 	H 	0.86367 0.25545 0.36579 0.05000
H 	H 	0.84399 0.35285 0.37183 0.04300
H 	H 	0.82021 0.34849 0.44926 0.04600
C 	C 	0.95570 0.12055 0.84981 -0.04300
C 	C 	0.96112 0.11738 0.80219 -0.09200
C 	C 	0.93756 0.12620 0.77291 0.10600
C 	C 	0.90745 0.13207 0.79117 -0.04300
C 	C 	0.90100 0.13054 0.83848 -0.08800
C 	C 	0.92588 0.12726 0.86811 0.09300
N 	N 	0.92102 0.13060 0.91667 -0.01800
H 	H 	0.97440 0.11661 0.87277 0.03900
H 	H 	0.88893 0.13719 0.76843 0.06400
N 	N 	0.94447 0.13106 0.72547 -0.01900
O 	O 	0.92421 0.10693 0.94200 -0.11400
O 	O 	0.91643 0.15780 0.93588 -0.08700
O 	O 	0.92706 0.11864 0.69438 -0.08200
O 	O 	0.96583 0.15068 0.71374 -0.08300
C 	C 	0.73396 0.21722 0.94800 0.12200
C 	C 	0.72438 0.24062 0.91990 -0.08900
C 	C 	0.73824 0.26967 0.92464 0.02400
C 	C 	0.76303 0.27459 0.95270 0.11600
C 	C 	0.77361 0.25076 0.97922 -0.08300
C 	C 	0.75753 0.22264 0.97815 0.01400
O 	O 	0.73069 0.18641 0.93491 -0.18300
C 	C 	0.75552 0.17396 0.95756 0.06100
C 	C 	0.77107 0.19525 0.98439 -0.05800
O 	O 	0.78261 0.29821 0.93904 -0.19900
C 	C 	0.76785 0.30617 0.89940 0.10100
C 	C 	0.74138 0.28948 0.89064 -0.08700
H 	H 	0.70884 0.23548 0.89229 0.07400
H 	H 	0.79531 0.25307 0.99669 0.07300
H 	H 	0.79506 0.19261 0.99382 0.06500
H 	H 	0.73161 0.28618 0.85716 0.06600
C 	C 	0.05272 0.04968 0.28937 -0.03100
C 	C 	0.04122 0.07960 0.29684 -0.12000
C 	C 	0.05007 0.09708 0.33565 0.08500
C 	C 	0.06733 0.08320 0.36906 -0.03200
C 	C 	0.07497 0.05167 0.36479 -0.08800
C 	C 	0.06888 0.03535 0.32337 0.08200
N 	N 	0.07804 0.00409 0.31608 -0.05200
H 	H 	0.04692 0.03656 0.25860 0.05800
H 	H 	0.07366 0.09666 0.39926 0.07700
N 	N 	0.04068 0.12867 0.34199 -0.02600
O 	O 	0.05720 0.98259 0.31934 -0.21900
O 	O 	0.10521 0.99769 0.29702 -0.18700
O 	O 	0.02903 0.13882 0.38142 -0.11300
O 	O 	0.04487 0.14755 0.30888 -0.09200
C 	C 	0.88108 0.23057 0.16906 0.11700
C 	C 	0.87386 0.19925 0.16384 -0.08200
C 	C 	0.89536 0.17954 0.14001 0.01800
C 	C 	0.92442 0.18995 0.12623 0.12500
C 	C 	0.93177 0.22124 0.13198 -0.08700
C 	C 	0.90895 0.24146 0.15126 0.02400
O 	O 	0.86824 0.24889 0.20505 -0.19800
C 	C 	0.89124 0.27142 0.20764 0.10100
C 	C 	0.91539 0.26733 0.17563 -0.08500
O 	O 	0.94743 0.16742 0.12547 -0.18300
C 	C 	0.93013 0.14305 0.14274 0.06600
C 	C 	0.89888 0.14977 0.14951 -0.05600
H 	H 	0.85376 0.18999 0.18193 0.07500
H 	H 	0.95546 0.22896 0.12610 0.07500
H 	H 	0.93861 0.27649 0.17956 0.06600
H 	H 	0.88360 0.13781 0.17318 0.06700
C 	C 	0.56309 0.90694 0.35443 -0.01700
C 	C 	0.56877 0.93557 0.37639 -0.01600
C 	C 	0.54528 0.95793 0.38062 -0.04600
C 	C 	0.51583 0.95177 0.36328 0.01700
C 	C 	0.50996 0.92288 0.34227 -0.04700
C 	C 	0.53351 0.90064 0.33767 -0.01700
C 	C 	0.49140 0.97580 0.36597 0.00600
C 	C 	0.48126 0.98887 0.40862 -0.03500
C 	C 	0.45763 0.01112 0.41115 -0.03800
C 	C 	0.44376 0.02030 0.37111 0.00800
C 	C 	0.45406 0.00737 0.32846 -0.03800
C 	C 	0.47787 0.98537 0.32589 -0.03500
C 	C 	0.41788 0.04281 0.37385 0.01600
C 	C 	0.41976 0.06964 0.34866 -0.04600
C 	C 	0.39425 0.08961 0.34810 -0.01700
C 	C 	0.36672 0.08310 0.37310 -0.01700
C 	C 	0.36523 0.05685 0.39960 -0.01600
C 	C 	0.39063 0.03673 0.39981 -0.04500
H 	H 	0.59154 0.94073 0.38929 0.05000
H 	H 	0.55010 0.98018 0.39676 0.04800
H 	H 	0.48721 0.91775 0.32926 0.04600
H 	H 	0.52876 0.87851 0.32110 0.04300
H 	H 	0.49149 0.98161 0.43977 0.04400
H 	H 	0.44999 0.02108 0.44422 0.04400
H 	H 	0.44342 0.01417 0.29737 0.04400
H 	H 	0.48570 0.97562 0.29278 0.04400
H 	H 	0.44082 0.07477 0.32899 0.04600
H 	H 	0.39578 0.10998 0.32793 0.04300
H 	H 	0.34407 0.05153 0.41891 0.04900
H 	H 	0.38889 0.01605 0.41928 0.04700
C 	C 	0.52942 0.84187 0.77963 -0.02000
C 	C 	0.50239 0.83425 0.80503 -0.01600
C 	C 	0.47608 0.85320 0.80498 -0.04700
C 	C 	0.47665 0.88010 0.77989 0.01700
C 	C 	0.50335 0.88721 0.75337 -0.04700
C 	C 	0.52957 0.86811 0.75308 -0.01600
C 	C 	0.45009 0.90177 0.78362 0.00600
C 	C 	0.43533 0.91064 0.74413 -0.03700
C 	C 	0.41133 0.93247 0.74751 -0.03700
C 	C 	0.40174 0.94545 0.79046 0.00700
C 	C 	0.41604 0.93607 0.83002 -0.03700
C 	C 	0.44021 0.91447 0.82660 -0.03700
C 	C 	0.37727 0.96941 0.79394 0.01600
C 	C 	0.34749 0.96308 0.77797 -0.04500
C 	C 	0.32411 0.98554 0.78244 -0.01500
C 	C 	0.33027 0.01444 0.80323 -0.01800
C 	C 	0.36014 0.02083 0.81882 -0.01800
C 	C 	0.38355 0.99848 0.81402 -0.04400
H 	H 	0.50188 0.81385 0.82519 0.04300
H 	H 	0.45544 0.84728 0.82506 0.04600
H 	H 	0.50407 0.90793 0.73394 0.04700
H 	H 	0.55031 0.87425 0.73340 0.04500
H 	H 	0.44264 0.90083 0.71082 0.04400
H 	H 	0.40046 0.93957 0.71676 0.04400
H 	H 	0.40862 0.94574 0.86336 0.04400
H 	H 	0.45152 0.90789 0.85727 0.04400
H 	H 	0.34236 0.94068 0.76259 0.04800
H 	H 	0.30111 0.98030 0.77048 0.05000
H 	H 	0.36525 0.04316 0.83446 0.04300
H 	H 	0.40656 0.00370 0.82601 0.04500
C 	C 	0.60554 0.79392 0.87512 -0.01600
C 	C 	0.58418 0.78351 0.90852 -0.01700
C 	C 	0.59227 0.78301 0.95436 -0.04600
C 	C 	0.62189 0.79273 0.96732 0.01600
C 	C 	0.64395 0.80124 0.93354 -0.04400
C 	C 	0.63581 0.80182 0.88761 -0.01500
C 	C 	0.62865 0.79682 0.01648 0.00900
C 	C 	0.63570 0.82619 0.03494 -0.03600
C 	C 	0.63752 0.83110 0.08234 -0.03500
C 	C 	0.63221 0.80674 0.11176 0.00700
C 	C 	0.62664 0.77708 0.09322 -0.03600
C 	C 	0.62496 0.77212 0.04577 -0.03700
C 	C 	0.62926 0.81298 0.16178 0.01700
C 	C 	0.60013 0.81059 0.18455 -0.04700
C 	C 	0.59624 0.82044 0.23050 -0.01600
C 	C 	0.62147 0.83269 0.25422 -0.01900
C 	C 	0.65099 0.83355 0.23217 -0.01600
C 	C 	0.65485 0.82385 0.18605 -0.04600
H 	H 	0.56091 0.77690 0.89922 0.04300
H 	H 	0.57511 0.77623 0.98006 0.04500
H 	H 	0.66702 0.80836 0.94305 0.05400
H 	H 	0.65257 0.80975 0.86218 0.05400
H 	H 	0.63857 0.84543 0.01273 0.04900
H 	H 	0.64187 0.85407 0.09629 0.04800
H 	H 	0.62276 0.75807 0.11561 0.04400
H 	H 	0.61987 0.74929 0.03189 0.04400
H 	H 	0.58026 0.80211 0.16620 0.04600
H 	H 	0.57341 0.81939 0.24729 0.04200
H 	H 	0.67065 0.84292 0.25012 0.04800
H 	H 	0.67749 0.82558 0.16887 0.05200
C 	C 	0.85115 0.98991 0.31372 -0.03300
C 	C 	0.85725 0.98568 0.35985 -0.07800
C 	C 	0.87266 0.00912 0.38486 0.09400
C 	C 	0.88691 0.03323 0.36163 -0.03100
C 	C 	0.88422 0.03523 0.31408 -0.08800
C 	C 	0.86377 0.01504 0.29104 0.11300
N 	N 	0.85523 0.02035 0.24515 -0.01900
H 	H 	0.83724 0.97324 0.29510 0.06800
H 	H 	0.90031 0.05016 0.38055 0.02600
N 	N 	0.87250 0.00943 0.43381 -0.01800
O 	O 	0.85939 0.99883 0.21333 -0.08000
O 	O 	0.84108 0.04574 0.23595 -0.08600
O 	O 	0.89863 0.00964 0.45479 -0.11000
O 	O 	0.84646 0.01359 0.45731 -0.08200
C 	C 	0.96894 0.96697 0.44074 -0.02700
C 	C 	0.95985 0.93604 0.44327 -0.06500
C 	C 	0.98144 0.91403 0.45695 0.05700
C 	C 	0.01223 0.92284 0.46506 -0.03400
C 	C 	0.02171 0.95347 0.45986 -0.07500
C 	C 	0.99958 0.97579 0.44929 0.08300
N 	N 	0.00867 0.00709 0.44376 -0.01800
H 	H 	0.95260 0.98399 0.42991 0.06000
H 	H 	0.02914 0.90549 0.47289 0.04600
N 	N 	0.97275 0.88242 0.46018 -0.02600
O 	O 	0.00826 0.01886 0.40357 -0.22000
O 	O 	0.01479 0.02450 0.47944 -0.09900
O 	O 	0.96476 0.86667 0.42379 -0.22500
O 	O 	0.97580 0.86861 0.49845 -0.10100
C 	C 	0.67876 0.85769 0.47178 0.11600
C 	C 	0.69990 0.87453 0.49813 -0.08300
C 	C 	0.72932 0.86163 0.50472 0.02300
C 	C 	0.73858 0.83441 0.48229 0.12200
C 	C 	0.71787 0.81825 0.45431 -0.08800
C 	C 	0.68748 0.82960 0.45149 0.02300
O 	O 	0.65466 0.87206 0.45025 -0.20000
C 	C 	0.65055 0.85049 0.41436 0.10200
C 	C 	0.66978 0.82511 0.41485 -0.08600
O 	O 	0.77051 0.83212 0.47419 -0.18100
C 	C 	0.77949 0.86120 0.49076 0.06600
C 	C 	0.75521 0.87847 0.51042 -0.05300
H 	H 	0.69469 0.89809 0.50935 0.07600
H 	H 	0.72610 0.79918 0.43210 0.07500
H 	H 	0.67598 0.81030 0.38523 0.06700
H 	H 	0.75528 0.90342 0.51352 0.06600
C 	C 	0.88893 0.98487 0.72521 -0.03900
C 	C 	0.89284 0.95339 0.73239 -0.07700
C 	C 	0.92307 0.94151 0.73725 0.07800
C 	C 	0.94822 0.96184 0.74208 -0.04400
C 	C 	0.94373 0.99366 0.73924 -0.07200
C 	C 	0.91447 0.00495 0.72725 0.07600
N 	N 	0.91091 0.03648 0.71563 -0.00900
H 	H 	0.86599 0.99388 0.71910 0.03800
H 	H 	0.97105 0.95294 0.74899 0.04400
N 	N 	0.92834 0.90887 0.73658 -0.01100
O 	O 	0.93060 0.04870 0.68684 -0.07700
O 	O 	0.88669 0.05220 0.73089 -0.22100
O 	O 	0.91490 0.89097 0.70662 -0.08400
O 	O 	0.94868 0.89738 0.76304 -0.21900
C 	C 	0.77365 0.00442 0.75228 -0.02800
C 	C 	0.76633 0.97677 0.77316 -0.11200
C 	C 	0.75594 0.97740 0.81955 0.06900
C 	C 	0.75778 0.00479 0.84616 -0.02300
C 	C 	0.76886 0.03170 0.82640 -0.10500
C 	C 	0.77429 0.03204 0.77847 0.05600
N 	N 	0.78024 0.06040 0.75636 -0.03100
H 	H 	0.77990 0.00436 0.71602 0.06500
H 	H 	0.75171 0.00481 0.88247 0.07900
N 	N 	0.74343 0.95028 0.83959 -0.03000
O 	O 	0.80353 0.06240 0.72698 -0.17400
O 	O 	0.76122 0.08356 0.76336 -0.09400
O 	O 	0.75273 0.94192 0.87910 -0.14200
O 	O 	0.72151 0.93493 0.81951 -0.09300
C 	C 	0.66605 0.78555 0.66966 0.11600
C 	C 	0.69829 0.78147 0.66394 -0.08200
C 	C 	0.71518 0.80159 0.63594 0.01500
C 	C 	0.70090 0.82661 0.61765 0.12100
C 	C 	0.66857 0.83045 0.62296 -0.08900
C 	C 	0.65138 0.80867 0.64740 0.02300
O 	O 	0.64990 0.77627 0.70885 -0.19800
C 	C 	0.62446 0.79624 0.70835 0.10200
C 	C 	0.62499 0.81537 0.67180 -0.08500
O 	O 	0.72036 0.85183 0.61288 -0.18900
C 	C 	0.74686 0.84071 0.63304 0.06400
C 	C 	0.74447 0.81025 0.64430 -0.05800
H 	H 	0.71028 0.76556 0.68491 0.07300
H 	H 	0.65771 0.85156 0.61295 0.07300
H 	H 	0.61298 0.83733 0.67176 0.06500
H 	H 	0.75837 0.79998 0.66996 0.06400
C 	C 	0.12106 0.54148 0.36140 -0.02000
C 	C 	0.12608 0.52509 0.31936 -0.01700
C 	C 	0.10753 0.49974 0.30813 -0.04700
C 	C 	0.08396 0.49039 0.33891 0.01600
C 	C 	0.07985 0.50582 0.38172 -0.04700
C 	C 	0.09828 0.53124 0.39294 -0.01700
C 	C 	0.06221 0.46590 0.32515 0.00600
C 	C 	0.04088 0.47107 0.29105 -0.03700
C 	C 	0.01826 0.44906 0.28096 -0.03700
C 	C 	0.01686 0.42168 0.30480 0.00600
C 	C 	0.03880 0.41607 0.33788 -0.03700
C 	C 	0.06137 0.43813 0.34807 -0.03700
C 	C 	0.99123 0.39988 0.29737 0.01600
C 	C 	0.99721 0.37086 0.27620 -0.04700
C 	C 	0.97309 0.34960 0.27129 -0.01600
C 	C 	0.94284 0.35716 0.28780 -0.02000
C 	C 	0.93681 0.38647 0.30812 -0.01600
C 	C 	0.96089 0.40773 0.31282 -0.04700
H 	H 	0.14398 0.53229 0.29507 0.04400
H 	H 	0.11108 0.48772 0.27519 0.04600
H 	H 	0.06175 0.49867 0.40574 0.04600
H 	H 	0.09410 0.54358 0.42549 0.04500
H 	H 	0.04136 0.49245 0.27318 0.04400
H 	H 	0.00147 0.45352 0.25526 0.04400
H 	H 	0.03790 0.39496 0.35641 0.04500
H 	H 	0.07783 0.43390 0.37432 0.04400
H 	H 	0.02057 0.36466 0.26404 0.04800
H 	H 	0.97807 0.32703 0.25569 0.04500
H 	H 	0.91351 0.39267 0.32059 0.04300
H 	H 	0.95608 0.43014 0.32909 0.04600
C 	C 	0.99443 0.59580 0.92584 -0.02100
C 	C 	0.00268 0.56840 0.90128 -0.01600
C 	C 	0.98241 0.54335 0.90096 -0.04800
C 	C 	0.95375 0.54531 0.92539 0.01700
C 	C 	0.94585 0.57234 0.95110 -0.04700
C 	C 	0.96611 0.59749 0.95135 -0.01600
C 	C 	0.93142 0.51965 0.92205 0.00600
C 	C 	0.90251 0.52410 0.90243 -0.03700
C 	C 	0.88296 0.49902 0.89399 -0.03700
C 	C 	0.89219 0.46930 0.90495 0.00600
C 	C 	0.92055 0.46500 0.92611 -0.03800
C 	C 	0.94004 0.49008 0.93477 -0.03700
C 	C 	0.87325 0.44250 0.89137 0.01600
C 	C 	0.88348 0.42271 0.85485 -0.04600
C 	C 	0.86512 0.39784 0.84089 -0.01700
C 	C 	0.83638 0.39246 0.86346 -0.01800
C 	C 	0.82630 0.41212 0.90034 -0.01700
C 	C 	0.84464 0.43710 0.91414 -0.04600
H 	H 	0.02465 0.56663 0.88203 0.04300
H 	H 	0.98872 0.52260 0.88101 0.04600
H 	H 	0.92386 0.57401 0.97032 0.04700
H 	H 	0.95945 0.61848 0.97042 0.04500
H 	H 	0.89563 0.54680 0.89245 0.04400
H 	H 	0.86106 0.50255 0.87776 0.04400
H 	H 	0.92774 0.44215 0.93499 0.04400
H 	H 	0.96217 0.48645 0.95032 0.04300
H 	H 	0.90555 0.42675 0.83707 0.04600
H 	H 	0.87329 0.38269 0.81266 0.04500
H 	H 	0.80410 0.40833 0.91788 0.04600
H 	H 	0.83656 0.45230 0.94235 0.04700
C 	C 	0.15474 0.62135 0.47105 -0.01700
C 	C 	0.16675 0.60308 0.50486 -0.01700
C 	C 	0.16158 0.61131 0.55122 -0.04600
C 	C 	0.14409 0.63774 0.56422 0.01700
C 	C 	0.13403 0.65719 0.53042 -0.04400
C 	C 	0.13944 0.64908 0.48400 -0.01600
C 	C 	0.13286 0.64275 0.61233 0.00700
C 	C 	0.11389 0.62064 0.63306 -0.03600
C 	C 	0.10187 0.62588 0.67770 -0.03700
C 	C 	0.10855 0.65336 0.70207 0.00700
C 	C 	0.12795 0.67530 0.68175 -0.03600
C 	C 	0.14005 0.67003 0.63698 -0.03600
C 	C 	0.09410 0.65955 0.74807 0.01700
C 	C 	0.11207 0.65828 0.78708 -0.04500
C 	C 	0.09754 0.65854 0.83077 -0.01600
C 	C 	0.06498 0.65990 0.83562 -0.01600
C 	C 	0.04722 0.66320 0.79678 -0.01500
C 	C 	0.06172 0.66311 0.75322 -0.04400
H 	H 	0.17902 0.58187 0.49524 0.04400
H 	H 	0.16995 0.59643 0.57703 0.04600
H 	H 	0.12073 0.67778 0.54005 0.05100
H 	H 	0.13023 0.66347 0.45821 0.05100
H 	H 	0.10807 0.59959 0.61428 0.04300
H 	H 	0.08703 0.60876 0.69320 0.04400
H 	H 	0.13327 0.69657 0.70034 0.04800
H 	H 	0.15476 0.68721 0.62137 0.04700
H 	H 	0.13711 0.65576 0.78348 0.04800
H 	H 	0.11148 0.65614 0.86057 0.04700
H 	H 	0.02209 0.66462 0.80021 0.04800
H 	H 	0.04769 0.66452 0.72334 0.05100
C 	C 	0.87618 0.96384 0.93885 -0.02800
C 	C 	0.90858 0.96410 0.94323 -0.07700
C 	C 	0.92438 0.99244 0.94439 0.07100
C 	C 	0.90834 0.01973 0.93598 -0.02700
C 	C 	0.87637 0.01912 0.92788 -0.07600
C 	C 	0.85994 0.99129 0.93192 0.07000
N 	N 	0.82706 0.99045 0.92628 -0.01400
H 	H 	0.86374 0.94218 0.93890 0.04700
H 	H 	0.92102 0.04117 0.93395 0.05100
N 	N 	0.95708 0.99339 0.95148 -0.01400
O 	O 	0.81558 0.97282 0.89426 -0.23500
O 	O 	0.80848 0.00577 0.95499 -0.09300
O 	O 	0.97600 0.00360 0.91991 -0.24500
O 	O 	0.96785 0.98490 0.99004 -0.08300
C 	C 	0.87684 0.84533 0.89410 -0.02200
C 	C 	0.90698 0.83976 0.87567 -0.09400
C 	C 	0.91114 0.83155 0.82865 0.08600
C 	C 	0.88634 0.83485 0.79944 -0.02400
C 	C 	0.85700 0.84449 0.81725 -0.08700
C 	C 	0.85169 0.84685 0.86525 0.07100
N 	N 	0.82081 0.85047 0.88474 -0.02400
H 	H 	0.87301 0.84939 0.93067 0.07100
H 	H 	0.89008 0.83049 0.76291 0.08200
N 	N 	0.94021 0.81907 0.81082 -0.02500
O 	O 	0.79959 0.83021 0.87514 -0.09200
O 	O 	0.81439 0.87307 0.91406 -0.14500
O 	O 	0.95344 0.79669 0.83123 -0.09200
O 	O 	0.95223 0.82845 0.77236 -0.10100
C 	C 	0.04104 0.93248 0.85044 -0.05300
C 	C 	0.03645 0.94188 0.89670 -0.10400
C 	C 	0.04639 0.97143 0.91137 0.09900
C 	C 	0.05504 0.99288 0.87873 -0.05300
C 	C 	0.05528 0.98464 0.83182 -0.11000
C 	C 	0.05069 0.95361 0.81802 0.08600
N 	N 	0.05525 0.94357 0.77110 -0.02200
H 	H 	0.03580 0.90905 0.83929 0.03100
H 	H 	0.06070 0.01623 0.88979 0.04100
N 	N 	0.04882 0.97937 0.95907 -0.01900
O 	O 	0.08330 0.94085 0.75321 -0.07800
O 	O 	0.03174 0.93372 0.74802 -0.12000
O 	O 	0.06854 0.96479 0.98314 -0.07500
O 	O 	0.03512 0.00407 0.97647 -0.09700
C 	C 	0.01484 0.77526 0.07149 0.12500
C 	C 	0.00346 0.74518 0.06581 -0.08500
C 	C 	0.02414 0.72182 0.04968 0.02500
C 	C 	0.05398 0.72860 0.03437 0.11900
C 	C 	0.06513 0.75878 0.03887 -0.08100
C 	C 	0.04558 0.78151 0.06000 0.02000
O 	O 	0.99528 0.80068 0.06998 -0.18100
C 	C 	0.01657 0.82229 0.05385 0.06600
C 	C 	0.04670 0.81130 0.04945 -0.05600
O 	O 	0.06598 0.70793 0.00071 -0.19700
C 	C 	0.04043 0.68837 0.99693 0.10100
C 	C 	0.01550 0.69635 0.02599 -0.08300
H 	H 	0.97874 0.74075 0.06958 0.07700
H 	H 	0.08708 0.76496 0.02237 0.07600
H 	H 	0.06443 0.82083 0.02683 0.07000
H 	H 	0.99157 0.69013 0.01983 0.06600
C 	C 	0.98320 0.92030 0.26685 -0.02500
C 	C 	0.01522 0.91570 0.25854 -0.08600
C 	C 	0.03288 0.93877 0.23718 0.10900
C 	C 	0.01970 0.96807 0.23229 -0.02900
C 	C 	0.98859 0.97378 0.24633 -0.05800
C 	C 	0.96960 0.94887 0.25892 0.07400
N 	N 	0.93647 0.95191 0.26027 -0.03800
H 	H 	0.96896 0.90190 0.28020 -0.00900
H 	H 	0.03392 0.98651 0.21913 0.07300
N 	N 	0.06382 0.93237 0.21965 -0.02300
O 	O 	0.92051 0.93970 0.22733 -0.13000
O 	O 	0.92210 0.96513 0.29566 -0.18700
O 	O 	0.06854 0.91130 0.18733 -0.08100
O 	O 	0.08676 0.94966 0.23254 -0.10300
C 	C 	0.93235 0.80961 0.37731 -0.02300
C 	C 	0.91260 0.82917 0.35458 -0.10000
C 	C 	0.91804 0.83351 0.30728 0.04900
C 	C 	0.94610 0.82321 0.28591 -0.02600
C 	C 	0.96792 0.80747 0.31080 -0.11500
C 	C 	0.95993 0.79864 0.35558 0.07600
N 	N 	0.98050 0.77960 0.37976 -0.02600
H 	H 	0.92718 0.80422 0.41264 0.07900
H 	H 	0.95141 0.82849 0.25056 0.06400
N 	N 	0.89470 0.84715 0.28061 -0.03900
O 	O 	0.98816 0.78763 0.42116 -0.13000
O 	O 	0.99088 0.75382 0.36087 -0.09100
O 	O 	0.90261 0.86685 0.24990 -0.18300
O 	O 	0.86609 0.83759 0.28379 -0.10000
C 	C 	0.10648 0.87190 0.42914 -0.03800
C 	C 	0.11784 0.86612 0.38391 -0.09500
C 	C 	0.14714 0.87810 0.37051 0.08600
C 	C 	0.16075 0.90097 0.39821 -0.04400
C 	C 	0.14527 0.91177 0.43875 -0.09600
C 	C 	0.12115 0.89375 0.45743 0.09500
N 	N 	0.11158 0.89766 0.50475 -0.01800
H 	H 	0.08583 0.86026 0.44178 0.04100
H 	H 	0.18164 0.91243 0.38601 0.06200
N 	N 	0.16340 0.86661 0.32976 -0.01700
O 	O 	0.08216 0.89864 0.51669 -0.10000
O 	O 	0.13227 0.89807 0.53614 -0.08000
O 	O 	0.17361 0.88561 0.29941 -0.10700
O 	O 	0.17001 0.83744 0.32462 -0.09300
C 	C 	0.17546 0.67836 0.27177 0.11700
C 	C 	0.17626 0.71038 0.26794 -0.08300
C 	C 	0.15842 0.72364 0.23445 0.01700
C 	C 	0.13755 0.70626 0.20973 0.12200
C 	C 	0.13631 0.67428 0.21424 -0.08800
C 	C 	0.15706 0.66061 0.24347 0.02300
O 	O 	0.18230 0.66455 0.31239 -0.19800
C 	C 	0.16604 0.63706 0.30595 0.10100
C 	C 	0.15113 0.63445 0.26503 -0.08600
O 	O 	0.11178 0.72279 0.19694 -0.18700
C 	C 	0.11842 0.75139 0.21763 0.06300
C 	C 	0.14655 0.75224 0.23886 -0.05800
H 	H 	0.18791 0.72471 0.29312 0.07600
H 	H 	0.11783 0.66097 0.19900 0.07300
H 	H 	0.13108 0.61995 0.25913 0.06500
H 	H 	0.15190 0.76850 0.26652 0.07000
