data_crystal

_cell_length_a 43.01581
_cell_length_b 43.41597
_cell_length_c 32.19471
_cell_angle_alpha 91.21653
_cell_angle_beta  88.52926
_cell_angle_gamma 90.04233

_symmetry_space_group_name_	'P 1'
_symmetry_space_group_name_H-M	'P 1'

loop_
_symmetry_equiv_pos_as_xyz
  x,y,z

loop_
_atom_site_label
_atom_site_type_symbol
_atom_site_fract_x
_atom_site_fract_y
_atom_site_fract_z
_atom_site_charge
Cd	Cd	0.98469 0.87429 0.22868 1.23900
Cd	Cd	0.92932 0.91194 0.29459 1.16400
O 	O 	0.97343 0.82297 0.19818 -0.32600
O 	O 	0.01642 0.84780 0.18302 -0.35800
C 	C 	0.00076 0.82219 0.17986 0.27500
O 	O 	0.00433 0.92124 0.23848 -0.38900
O 	O 	0.97726 0.93241 0.29950 -0.43500
C 	C 	0.99621 0.94082 0.26885 0.29600
C 	C 	0.93409 0.90575 0.19390 0.30500
O 	O 	0.95490 0.86512 0.30044 -0.46200
O 	O 	0.95506 0.89859 0.16517 -0.29100
O 	O 	0.93763 0.89248 0.22912 -0.54600
C 	C 	0.98221 0.86090 0.31610 0.29800
O 	O 	0.00566 0.85960 0.28979 -0.36400
Cd	Cd	0.99631 0.95079 0.03834 1.24000
Cd	Cd	0.95684 0.02310 0.05469 1.16900
O 	O 	0.98235 0.91910 0.97713 -0.32800
O 	O 	0.02109 0.90650 0.01661 -0.35600
C 	C 	0.00485 0.90005 0.98392 0.27600
O 	O 	0.02324 0.97397 0.08817 -0.37600
O 	O 	0.98474 0.00696 0.10739 -0.43100
C 	C 	0.01454 0.00172 0.10101 0.29300
C 	C 	0.01454 0.00209 0.98966 0.30700
O 	O 	0.93976 0.97218 0.05089 -0.45200
O 	O 	0.03470 0.97960 0.98673 -0.30000
O 	O 	0.98849 0.99565 0.00880 -0.53000
C 	C 	0.93565 0.95240 0.08059 0.29100
O 	O 	0.95925 0.93410 0.08608 -0.34900
C 	C 	0.08842 0.75846 0.75765 0.11600
N 	N 	0.08278 0.76109 0.71645 -0.14200
C 	C 	0.09584 0.74071 0.68843 0.12800
N 	N 	0.11465 0.71801 0.70160 -0.14400
C 	C 	0.12042 0.71553 0.74259 0.12900
N 	N 	0.10767 0.73598 0.77046 -0.14300
C 	C 	0.09785 0.66536 0.32555 0.11600
N 	N 	0.09248 0.67771 0.36420 -0.14200
C 	C 	0.11148 0.67088 0.39576 0.12700
N 	N 	0.13415 0.64936 0.38948 -0.14400
C 	C 	0.13856 0.63565 0.35142 0.12700
N 	N 	0.12063 0.64395 0.31937 -0.14300
Cd	Cd	0.85985 0.01157 0.80334 1.24000
Cd	Cd	0.92940 0.01695 0.86109 1.17800
O 	O 	0.81331 0.03854 0.83150 -0.32400
O 	O 	0.81303 0.01388 0.77126 -0.35600
C 	C 	0.79753 0.03001 0.79937 0.27400
O 	O 	0.89642 0.99134 0.76003 -0.37900
O 	O 	0.92982 0.97981 0.81171 -0.42300
C 	C 	0.92478 0.98523 0.77242 0.29100
C 	C 	0.89613 0.06643 0.80040 0.30200
O 	O 	0.88017 0.99765 0.87723 -0.45100
O 	O 	0.87501 0.06645 0.77189 -0.29500
O 	O 	0.89346 0.04464 0.82712 -0.54100
C 	C 	0.87006 0.96968 0.87074 0.29900
O 	O 	0.85440 0.96525 0.83696 -0.35900
Cd	Cd	0.87543 0.10885 0.44666 1.24000
Cd	Cd	0.94547 0.10309 0.38635 1.17100
O 	O 	0.83087 0.13861 0.42168 -0.32600
O 	O 	0.82737 0.11073 0.47783 -0.35800
C 	C 	0.81359 0.12892 0.45251 0.27400
O 	O 	0.90245 0.07323 0.47894 -0.38400
O 	O 	0.95006 0.08770 0.45240 -0.43400
C 	C 	0.93227 0.06748 0.47182 0.29900
C 	C 	0.87873 0.06801 0.37621 0.30900
O 	O 	0.91910 0.14511 0.41610 -0.46300
O 	O 	0.85405 0.06236 0.39928 -0.30200
O 	O 	0.89374 0.09288 0.38590 -0.54300
C 	C 	0.92242 0.15642 0.45352 0.29400
O 	O 	0.90199 0.14775 0.48158 -0.35400
C 	C 	0.60085 0.01926 0.95616 0.11500
N 	N 	0.58004 0.99567 0.95411 -0.14200
C 	C 	0.55694 0.99351 0.98347 0.13000
N 	N 	0.55486 0.01460 0.01506 -0.14500
C 	C 	0.57544 0.03820 0.01720 0.12600
N 	N 	0.59845 0.04051 0.98777 -0.14200
C 	C 	0.59374 0.11577 0.37118 0.11600
N 	N 	0.59128 0.11279 0.32934 -0.14300
C 	C 	0.56370 0.10506 0.31257 0.12700
N 	N 	0.53839 0.10033 0.33770 -0.14400
C 	C 	0.54055 0.10376 0.37962 0.12500
N 	N 	0.56827 0.11160 0.39625 -0.14300
Cd	Cd	0.16792 0.17316 0.35213 1.24000
Cd	Cd	0.11535 0.14069 0.42718 1.16600
O 	O 	0.21673 0.19725 0.37522 -0.32600
O 	O 	0.20571 0.19256 0.30922 -0.35700
C 	C 	0.22488 0.20284 0.33692 0.27400
O 	O 	0.13326 0.14885 0.31308 -0.38100
O 	O 	0.09538 0.14608 0.36402 -0.43500
C 	C 	0.10850 0.13517 0.32927 0.29200
C 	C 	0.18061 0.11392 0.38474 0.30700
O 	O 	0.13357 0.19042 0.41747 -0.46600
O 	O 	0.19877 0.11959 0.35261 -0.30200
O 	O 	0.16459 0.13724 0.39934 -0.53900
C 	C 	0.12138 0.21133 0.39438 0.30100
O 	O 	0.13484 0.21510 0.35810 -0.35800
Cd	Cd	0.14025 0.21150 0.87947 1.24000
Cd	Cd	0.11818 0.13872 0.83680 1.18200
O 	O 	0.14818 0.25588 0.83350 -0.32700
O 	O 	0.15042 0.26065 0.90155 -0.35800
C 	C 	0.15245 0.27386 0.86568 0.27400
O 	O 	0.12865 0.18387 0.93539 -0.38300
O 	O 	0.13380 0.13676 0.90274 -0.41900
C 	C 	0.12232 0.15415 0.93341 0.29500
C 	C 	0.07748 0.20174 0.85490 0.30800
O 	O 	0.16165 0.16964 0.82568 -0.45600
O 	O 	0.07968 0.22620 0.87903 -0.29900
O 	O 	0.10375 0.18906 0.84375 -0.53700
C 	C 	0.18751 0.16950 0.84588 0.29600
O 	O 	0.18991 0.19050 0.87525 -0.35600
C 	C 	0.25008 0.47541 0.79564 0.11500
N 	N 	0.27217 0.47230 0.76488 -0.14300
C 	C 	0.28350 0.49752 0.74527 0.12500
N 	N 	0.27271 0.52588 0.75688 -0.14400
C 	C 	0.24898 0.52890 0.78523 0.12800
N 	N 	0.23842 0.50377 0.80558 -0.14300
C 	C 	0.29867 0.40818 0.39595 0.11500
N 	N 	0.28189 0.43049 0.37770 -0.14300
C 	C 	0.27792 0.45841 0.39694 0.12700
N 	N 	0.29064 0.46396 0.43452 -0.14300
C 	C 	0.30713 0.44171 0.45303 0.12700
N 	N 	0.31188 0.41419 0.43316 -0.14300
Cd	Cd	0.18456 0.99130 0.73873 1.24000
Cd	Cd	0.14170 0.05288 0.69315 1.17400
O 	O 	0.20981 0.00081 0.80591 -0.32500
O 	O 	0.20840 0.95466 0.77648 -0.36000
C 	C 	0.21703 0.97181 0.80774 0.27500
O 	O 	0.15979 0.96774 0.68727 -0.38200
O 	O 	0.14758 0.01082 0.65275 -0.43000
C 	C 	0.13955 0.98350 0.66633 0.29900
C 	C 	0.12477 0.00848 0.77247 0.30700
O 	O 	0.19350 0.04675 0.71090 -0.45200
O 	O 	0.13365 0.98166 0.78569 -0.30400
O 	O 	0.14537 0.02308 0.75055 -0.52600
C 	C 	0.21738 0.03681 0.68873 0.29400
O 	O 	0.22394 0.00766 0.69335 -0.36100
Cd	Cd	0.13997 0.87505 0.59263 1.24000
Cd	Cd	0.13547 0.88578 0.48248 1.17500
O 	O 	0.18670 0.84938 0.61674 -0.32600
O 	O 	0.15411 0.87226 0.66042 -0.35300
C 	C 	0.18159 0.85995 0.65438 0.27200
O 	O 	0.09806 0.90535 0.58579 -0.38000
O 	O 	0.09025 0.89088 0.51794 -0.42000
C 	C 	0.08569 0.91046 0.54927 0.29400
C 	C 	0.17443 0.92387 0.55479 0.30800
O 	O 	0.13885 0.84259 0.52331 -0.45000
O 	O 	0.17345 0.92658 0.59523 -0.30100
O 	O 	0.16297 0.89832 0.54000 -0.53000
C 	C 	0.11548 0.82714 0.53901 0.30000
O 	O 	0.11014 0.83183 0.57882 -0.36100
C 	C 	0.31624 0.90815 0.06732 0.11600
N 	N 	0.30759 0.91151 0.10807 -0.14200
C 	C 	0.32923 0.90946 0.13793 0.12600
N 	N 	0.35953 0.90433 0.12690 -0.14400
C 	C 	0.36834 0.90173 0.08615 0.12600
N 	N 	0.34657 0.90341 0.05651 -0.14200
C 	C 	0.32111 0.95733 0.51211 0.11600
N 	N 	0.31023 0.94607 0.47548 -0.14400
C 	C 	0.32439 0.95393 0.43900 0.12800
N 	N 	0.34954 0.97277 0.43924 -0.14300
C 	C 	0.36093 0.98341 0.47574 0.13000
N 	N 	0.34662 0.97583 0.51219 -0.14300
C 	C 	0.32048 0.91590 0.18186 -0.05000
C 	C 	0.33326 0.94137 0.20370 0.10100
C 	C 	0.32896 0.94382 0.24701 -0.08600
C 	C 	0.31106 0.92208 0.26858 -0.00500
C 	C 	0.29607 0.89808 0.24629 0.06800
C 	C 	0.30118 0.89507 0.20306 -0.05300
N 	N 	0.34916 0.96377 0.18322 -0.19900
H 	H 	0.33970 0.96266 0.26404 0.05600
C 	C 	0.30958 0.92392 0.31465 -0.00600
N 	N 	0.27718 0.87768 0.26618 -0.19400
H 	H 	0.29077 0.87602 0.18610 0.04700
C 	C 	0.28786 0.94372 0.33452 -0.08700
C 	C 	0.29012 0.95123 0.37704 0.10000
C 	C 	0.31501 0.93923 0.39960 -0.05200
C 	C 	0.33476 0.91709 0.38073 -0.05200
C 	C 	0.33230 0.90924 0.33840 0.07000
H 	H 	0.26980 0.95411 0.31657 0.05300
N 	N 	0.26861 0.97017 0.39581 -0.20000
H 	H 	0.35320 0.90714 0.39849 0.04600
N 	N 	0.35214 0.88811 0.32063 -0.19400
H 	H 	0.25112 0.98009 0.37855 0.08500
H 	H 	0.26831 0.97424 0.42788 0.09500
H 	H 	0.36936 0.87799 0.33817 0.08200
H 	H 	0.35029 0.88100 0.28962 0.08800
H 	H 	0.26669 0.85970 0.24959 0.08100
H 	H 	0.27234 0.87969 0.29806 0.08400
H 	H 	0.35009 0.96432 0.15081 0.09200
H 	H 	0.35965 0.98179 0.19974 0.08500
C 	C 	0.30792 0.92616 0.61986 -0.04700
C 	C 	0.27535 0.92738 0.62379 0.01500
C 	C 	0.25829 0.94144 0.59266 -0.04600
C 	C 	0.27332 0.95185 0.55663 -0.01700
C 	C 	0.30566 0.94897 0.55164 -0.02200
C 	C 	0.32303 0.93698 0.58395 -0.01900
C 	C 	0.25876 0.90948 0.65621 0.02300
H 	H 	0.23325 0.94309 0.59560 0.06100
H 	H 	0.25976 0.96169 0.53228 0.04300
H 	H 	0.34808 0.93502 0.58063 0.03900
H 	H 	0.32141 0.91577 0.64382 0.04200
C 	C 	0.26263 0.87733 0.65675 -0.05700
C 	C 	0.23754 0.85870 0.66881 0.01200
C 	C 	0.20836 0.87233 0.67710 -0.07300
C 	C 	0.20788 0.90360 0.68922 0.01300
C 	C 	0.23292 0.92249 0.67768 -0.05300
H 	H 	0.28344 0.86677 0.64324 0.04600
H 	H 	0.23928 0.83395 0.66426 0.03500
H 	H 	0.18659 0.91398 0.70145 0.04600
H 	H 	0.23067 0.94724 0.68087 0.04700
C 	C 	0.22110 0.95368 0.92144 -0.06100
C 	C 	0.24900 0.93695 0.92226 0.02500
C 	C 	0.26530 0.93006 0.88479 -0.06100
C 	C 	0.25419 0.94047 0.84710 0.01200
C 	C 	0.22709 0.95834 0.84664 -0.07500
C 	C 	0.21038 0.96459 0.88387 0.01500
C 	C 	0.26218 0.92839 0.96247 0.00700
H 	H 	0.28692 0.91730 0.88498 0.04700
H 	H 	0.26715 0.93542 0.81846 0.03400
H 	H 	0.18919 0.97807 0.88372 0.04000
H 	H 	0.20804 0.95869 0.95000 0.04900
C 	C 	0.26673 0.95102 0.99358 -0.04200
C 	C 	0.28223 0.94369 0.02972 -0.02200
C 	C 	0.29378 0.91385 0.03479 -0.01900
C 	C 	0.28797 0.89088 0.00467 -0.02300
C 	C 	0.27198 0.89804 0.96884 -0.04300
H 	H 	0.25927 0.97452 0.98910 0.04400
H 	H 	0.28668 0.96161 0.05276 0.04000
H 	H 	0.29674 0.86774 0.00838 0.03800
H 	H 	0.26801 0.88022 0.94551 0.04200
C 	C 	0.30109 0.49365 0.70532 -0.05000
C 	C 	0.32218 0.46894 0.69845 0.10000
C 	C 	0.33015 0.45956 0.65751 -0.08700
C 	C 	0.31907 0.47580 0.62371 -0.00600
C 	C 	0.30212 0.50339 0.63099 0.07100
C 	C 	0.29309 0.51195 0.67174 -0.05500
N 	N 	0.33546 0.45483 0.73085 -0.19900
H 	H 	0.34440 0.43922 0.65192 0.05300
C 	C 	0.32038 0.46109 0.58182 -0.00500
N 	N 	0.29373 0.52126 0.59892 -0.19400
H 	H 	0.27827 0.53192 0.67702 0.05100
C 	C 	0.29544 0.44250 0.56972 -0.08600
C 	C 	0.29156 0.43439 0.52779 0.10000
C 	C 	0.31343 0.44482 0.49757 -0.05100
C 	C 	0.33990 0.46101 0.51016 -0.05300
C 	C 	0.34381 0.46895 0.55225 0.06800
H 	H 	0.27807 0.43567 0.59276 0.05400
N 	N 	0.26648 0.41724 0.51670 -0.20000
H 	H 	0.35706 0.46820 0.48706 0.04700
N 	N 	0.36967 0.48460 0.56391 -0.19400
H 	H 	0.25018 0.41020 0.53920 0.08300
H 	H 	0.26302 0.41037 0.48591 0.09000
H 	H 	0.38642 0.49115 0.54172 0.08300
H 	H 	0.37379 0.48968 0.59514 0.08700
H 	H 	0.28031 0.54106 0.60449 0.08300
H 	H 	0.30109 0.51623 0.56840 0.09000
H 	H 	0.33320 0.46391 0.76108 0.09100
H 	H 	0.34979 0.43563 0.72568 0.08400
C 	C 	0.24359 0.11391 0.69263 -0.07300
C 	C 	0.26237 0.10896 0.72697 0.01200
C 	C 	0.27966 0.08142 0.72727 -0.00600
C 	C 	0.26982 0.05608 0.70321 -0.00300
C 	C 	0.24267 0.05882 0.68020 -0.09500
C 	C 	0.23435 0.08859 0.66818 0.04700
C 	C 	0.25337 0.12433 0.76706 0.01300
S 	S 	0.31048 0.07733 0.76150 -0.03600
H 	H 	0.27994 0.03358 0.70769 0.04400
S 	S 	0.20780 0.09368 0.62834 -0.07700
H 	H 	0.23277 0.13615 0.68871 0.04400
C 	C 	0.25467 0.15665 0.77170 -0.00900
C 	C 	0.23543 0.17164 0.80160 0.00000
C 	C 	0.21526 0.15451 0.82718 -0.09800
C 	C 	0.21773 0.12221 0.82682 0.04300
C 	C 	0.23673 0.10726 0.79687 -0.07100
S 	S 	0.27984 0.17846 0.73998 -0.04000
H 	H 	0.23466 0.19660 0.80308 0.04000
S 	S 	0.19604 0.10016 0.86254 -0.04700
H 	H 	0.23659 0.08231 0.79461 0.05900
H 	H 	0.17805 0.09244 0.64450 -0.04100
H 	H 	0.26459 0.18711 0.70525 0.03100
H 	H 	0.16778 0.09286 0.84631 -0.00500
H 	H 	0.33773 0.08585 0.74198 0.03600
C 	C 	0.19682 0.34778 0.88469 -0.06100
C 	C 	0.19098 0.36367 0.84820 0.02300
C 	C 	0.17090 0.35087 0.81885 -0.06200
C 	C 	0.15745 0.32202 0.82532 0.01100
C 	C 	0.16397 0.30564 0.86121 -0.07600
C 	C 	0.18328 0.31892 0.89126 0.01100
C 	C 	0.20674 0.39315 0.83988 0.00700
H 	H 	0.16617 0.36304 0.79066 0.04600
H 	H 	0.14230 0.31221 0.80214 0.03800
H 	H 	0.18849 0.30657 0.91912 0.04100
H 	H 	0.21214 0.35760 0.90765 0.04700
C 	C 	0.18923 0.42017 0.83648 -0.04600
C 	C 	0.20357 0.44734 0.82348 -0.02100
C 	C 	0.23562 0.44774 0.81377 -0.02000
C 	C 	0.25334 0.42098 0.81889 -0.02100
C 	C 	0.23895 0.39381 0.83186 -0.04500
H 	H 	0.16438 0.41991 0.84285 0.04200
H 	H 	0.18957 0.46776 0.81966 0.04100
H 	H 	0.27815 0.42108 0.81213 0.04000
H 	H 	0.25267 0.37306 0.83457 0.04200
C 	C 	0.15906 0.03870 0.43602 -0.09200
C 	C 	0.18760 0.03006 0.45207 0.01600
C 	C 	0.21409 0.04854 0.44506 -0.01600
C 	C 	0.21158 0.07567 0.42253 0.01000
C 	C 	0.18275 0.08481 0.40742 -0.13600
C 	C 	0.15639 0.06590 0.41397 0.06300
C 	C 	0.18863 0.00337 0.47970 0.00700
S 	S 	0.25020 0.03850 0.46546 -0.04000
H 	H 	0.23195 0.08996 0.41740 0.03700
S 	S 	0.12015 0.07526 0.39380 -0.23600
H 	H 	0.13870 0.02444 0.44139 0.04700
C 	C 	0.17935 0.00661 0.52179 -0.00700
C 	C 	0.17539 0.98053 0.54594 -0.00200
C 	C 	0.18062 0.95095 0.52869 -0.13200
C 	C 	0.19262 0.94787 0.48753 0.04600
C 	C 	0.19564 0.97403 0.46293 -0.08200
S 	S 	0.17202 0.04326 0.54440 -0.06400
H 	H 	0.16780 0.98323 0.57813 0.05300
S 	S 	0.20700 0.91235 0.46795 -0.17500
H 	H 	0.20342 0.97156 0.43075 0.04600
H 	H 	0.11359 0.05469 0.36242 0.06200
H 	H 	0.14167 0.05116 0.53836 0.01500
H 	H 	0.23789 0.91001 0.47686 0.06000
H 	H 	0.25194 0.05002 0.50529 0.03700
C 	C 	0.29059 0.25830 0.35030 -0.06200
C 	C 	0.27727 0.28504 0.33456 0.02300
C 	C 	0.25054 0.28245 0.31059 -0.06100
C 	C 	0.23521 0.25416 0.30686 0.01200
C 	C 	0.24620 0.22840 0.32768 -0.07600
C 	C 	0.27490 0.23015 0.34732 0.01200
C 	C 	0.28743 0.31572 0.34987 0.00800
H 	H 	0.24035 0.30276 0.29747 0.04700
H 	H 	0.21340 0.25293 0.29081 0.03800
H 	H 	0.28403 0.21020 0.36257 0.03400
H 	H 	0.31188 0.25978 0.36751 0.04600
C 	C 	0.28804 0.32195 0.39281 -0.04500
C 	C 	0.29303 0.35191 0.40773 -0.02100
C 	C 	0.29725 0.37614 0.37993 -0.02000
C 	C 	0.29788 0.36978 0.33694 -0.02100
C 	C 	0.29314 0.33966 0.32197 -0.04600
H 	H 	0.28340 0.30378 0.41467 0.04300
H 	H 	0.29233 0.35648 0.44096 0.04000
H 	H 	0.30154 0.38820 0.31516 0.04000
H 	H 	0.29309 0.33508 0.28876 0.04200
C 	C 	0.38968 0.00187 0.47571 -0.05400
C 	C 	0.41719 0.99065 0.45565 0.10400
C 	C 	0.44171 0.01105 0.44718 -0.08800
C 	C 	0.44008 0.04189 0.46088 -0.00400
C 	C 	0.41395 0.05226 0.48493 0.06800
C 	C 	0.38869 0.03223 0.49148 -0.05100
N 	N 	0.42037 0.96027 0.44516 -0.19900
H 	H 	0.46215 0.00292 0.42984 0.05500
C 	C 	0.46495 0.06345 0.44751 -0.00600
N 	N 	0.41307 0.08119 0.50199 -0.19400
H 	H 	0.36795 0.04052 0.50798 0.04900
C 	C 	0.45884 0.08455 0.41635 -0.08600
C 	C 	0.48319 0.10109 0.39732 0.10100
C 	C 	0.51431 0.09431 0.40713 -0.05100
C 	C 	0.52016 0.07516 0.44067 -0.05400
C 	C 	0.49561 0.06031 0.46171 0.06900
H 	H 	0.43514 0.08794 0.40669 0.05500
N 	N 	0.47654 0.12400 0.37081 -0.19900
H 	H 	0.54390 0.07099 0.44957 0.05000
N 	N 	0.50158 0.04307 0.49537 -0.19400
H 	H 	0.45366 0.12782 0.36206 0.08500
H 	H 	0.49367 0.13942 0.36081 0.09200
H 	H 	0.52442 0.03990 0.50476 0.08300
H 	H 	0.48359 0.03370 0.51348 0.08700
H 	H 	0.39331 0.08895 0.51864 0.08400
H 	H 	0.43229 0.09584 0.50015 0.08700
H 	H 	0.40405 0.94399 0.45503 0.09100
H 	H 	0.44017 0.95241 0.42868 0.08400
C 	C 	0.40165 0.90315 0.07395 -0.05100
C 	C 	0.41367 0.88518 0.04003 0.10100
C 	C 	0.44178 0.89384 0.02040 -0.09000
C 	C 	0.45889 0.91891 0.03574 -0.00400
C 	C 	0.44879 0.93436 0.07288 0.07100
C 	C 	0.42017 0.92634 0.09157 -0.05300
N 	N 	0.39864 0.85937 0.02675 -0.19900
H 	H 	0.45018 0.88126 0.99290 0.05500
C 	C 	0.48520 0.93102 0.01039 -0.00800
N 	N 	0.46609 0.95729 0.09020 -0.19400
H 	H 	0.41151 0.93939 0.11854 0.04900
C 	C 	0.47955 0.95480 0.98280 -0.08300
C 	C 	0.50408 0.97330 0.96817 0.10000
C 	C 	0.53450 0.96803 0.98193 -0.05000
C 	C 	0.54070 0.94136 0.00409 -0.05500
C 	C 	0.51620 0.92262 0.01843 0.07000
H 	H 	0.45585 0.96010 0.97475 0.05500
N 	N 	0.49821 0.99658 0.94190 -0.19800
H 	H 	0.56433 0.93647 0.01291 0.04800
N 	N 	0.52249 0.89731 0.04091 -0.19400
H 	H 	0.47549 0.00116 0.93307 0.08400
H 	H 	0.51627 0.00963 0.92893 0.08900
H 	H 	0.54540 0.89187 0.04798 0.08300
H 	H 	0.50484 0.88234 0.05051 0.08700
H 	H 	0.45806 0.96905 0.11703 0.08400
H 	H 	0.48787 0.96329 0.07782 0.09100
H 	H 	0.37964 0.85055 0.04350 0.09100
H 	H 	0.40689 0.84694 0.00058 0.08300
C 	C 	0.57484 0.05914 0.05392 -0.05100
C 	C 	0.54651 0.07215 0.06916 0.10100
C 	C 	0.54433 0.08338 0.11035 -0.08700
C 	C 	0.57044 0.08353 0.13551 -0.00600
C 	C 	0.59973 0.07445 0.11833 0.06900
C 	C 	0.60159 0.06200 0.07772 -0.05300
N 	N 	0.52157 0.07428 0.04427 -0.19900
H 	H 	0.52217 0.09156 0.12304 0.05400
C 	C 	0.56617 0.08956 0.18074 -0.00500
N 	N 	0.62599 0.07735 0.14074 -0.19400
H 	H 	0.62361 0.05317 0.06542 0.04800
C 	C 	0.56333 0.06446 0.20725 -0.08600
C 	C 	0.56168 0.06898 0.25054 0.10000
C 	C 	0.56196 0.09937 0.26747 -0.05100
C 	C 	0.56351 0.12453 0.24088 -0.05300
C 	C 	0.56581 0.11995 0.19759 0.06900
H 	H 	0.56325 0.04123 0.19415 0.05400
N 	N 	0.56049 0.04409 0.27556 -0.20000
H 	H 	0.56367 0.14775 0.25397 0.04700
N 	N 	0.56815 0.14475 0.17253 -0.19400
H 	H 	0.56015 0.02180 0.26266 0.08300
H 	H 	0.56019 0.04648 0.30788 0.09300
H 	H 	0.56795 0.16708 0.18530 0.08300
H 	H 	0.57024 0.14219 0.14027 0.08700
H 	H 	0.64738 0.06971 0.12831 0.08200
H 	H 	0.62563 0.08805 0.17010 0.08800
H 	H 	0.52349 0.06914 0.01247 0.09100
H 	H 	0.50031 0.08264 0.05621 0.08400
C 	C 	0.03487 0.22158 0.39194 -0.08300
C 	C 	0.02838 0.22809 0.43418 0.00900
C 	C 	0.05280 0.23765 0.45984 -0.01400
C 	C 	0.08367 0.23477 0.44535 -0.01500
C 	C 	0.09026 0.22417 0.40459 -0.11600
C 	C 	0.06558 0.22068 0.37670 0.05300
C 	C 	0.99824 0.21792 0.45266 0.00600
S 	S 	0.04495 0.25302 0.51003 -0.05400
H 	H 	0.10253 0.23953 0.46625 0.02900
S 	S 	0.07254 0.21656 0.32272 -0.03800
H 	H 	0.01613 0.21551 0.37143 0.04300
C 	C 	0.96996 0.22730 0.43572 -0.01000
C 	C 	0.94365 0.20840 0.43948 -0.00600
C 	C 	0.94505 0.18107 0.46188 -0.10600
C 	C 	0.97146 0.17517 0.48539 0.04200
C 	C 	0.99806 0.19334 0.48027 -0.08000
S 	S 	0.96732 0.26245 0.40981 -0.04100
H 	H 	0.92267 0.21414 0.42339 0.03600
S 	S 	0.97247 0.14378 0.51882 -0.05300
H 	H 	0.01936 0.18676 0.49503 0.03300
H 	H 	0.06812 0.18661 0.31016 0.04100
H 	H 	0.97301 0.25762 0.36811 0.03000
H 	H 	0.99163 0.12200 0.50050 0.01800
H 	H 	0.04095 0.28424 0.50783 0.03900
C 	C 	0.03911 0.97508 0.50473 -0.08200
C 	C 	0.01260 0.97525 0.53093 0.01700
C 	C 	0.01054 0.95467 0.56416 -0.01100
C 	C 	0.03543 0.93483 0.57162 0.00500
C 	C 	0.06202 0.93470 0.54539 -0.10500
C 	C 	0.06379 0.95510 0.51178 0.07100
C 	C 	0.98790 0.99828 0.52446 0.00800
S 	S 	0.97679 0.95324 0.59612 -0.04000
H 	H 	0.03373 0.91891 0.59708 0.04200
S 	S 	0.09706 0.95623 0.47867 -0.16500
H 	H 	0.04069 0.99088 0.47912 0.05000
C 	C 	0.99253 0.02952 0.53542 -0.00800
C 	C 	0.97215 0.05186 0.52149 -0.00600
C 	C 	0.94743 0.04353 0.49608 -0.09300
C 	C 	0.94034 0.01205 0.48994 0.04900
C 	C 	0.96105 0.98958 0.50326 -0.06900
S 	S 	0.02413 0.04105 0.56567 -0.05900
H 	H 	0.97596 0.07580 0.52965 0.03700
S 	S 	0.90478 0.00047 0.46866 -0.04700
H 	H 	0.95662 0.96543 0.49644 0.04700
H 	H 	0.11653 0.97932 0.49145 0.04100
H 	H 	0.04935 0.04661 0.54006 0.02000
H 	H 	0.90967 0.98736 0.43001 0.02600
H 	H 	0.97600 0.97852 0.62230 0.04100
C 	C 	0.73377 0.15531 0.42352 -0.06100
C 	C 	0.71533 0.13111 0.43848 0.02300
C 	C 	0.72858 0.10870 0.46330 -0.06100
C 	C 	0.76050 0.10915 0.47043 0.01100
C 	C 	0.77945 0.13192 0.45248 -0.07500
C 	C 	0.76570 0.15574 0.43049 0.01000
C 	C 	0.68387 0.12646 0.42266 0.00800
H 	H 	0.71441 0.09011 0.47537 0.04700
H 	H 	0.77067 0.09093 0.48810 0.04300
H 	H 	0.77992 0.17391 0.41744 0.03800
H 	H 	0.72363 0.17291 0.40472 0.04700
C 	C 	0.65884 0.14408 0.43875 -0.04600
C 	C 	0.62923 0.14040 0.42228 -0.02100
C 	C 	0.62460 0.11930 0.38934 -0.02100
C 	C 	0.64966 0.10153 0.37360 -0.02100
C 	C 	0.67911 0.10508 0.39022 -0.04600
H 	H 	0.66236 0.16069 0.46378 0.04200
H 	H 	0.61005 0.15422 0.43468 0.04000
H 	H 	0.64627 0.08489 0.34856 0.04000
H 	H 	0.69835 0.09141 0.37763 0.04300
C 	C 	0.05240 0.98442 0.65016 -0.07900
C 	C 	0.04179 0.96935 0.68593 0.01200
C 	C 	0.06315 0.95233 0.70881 -0.00800
C 	C 	0.09514 0.95566 0.70071 -0.00100
C 	C 	0.10604 0.97472 0.66864 -0.12200
C 	C 	0.08435 0.98713 0.64125 0.05500
C 	C 	0.00941 0.97477 0.70207 0.01400
S 	S 	0.05021 0.92494 0.74502 -0.03700
H 	H 	0.11149 0.94374 0.71974 0.04500
S 	S 	0.09665 0.00445 0.59473 -0.09300
H 	H 	0.03586 0.99539 0.63050 0.05700
C 	C 	0.99994 0.00420 0.71729 -0.00700
C 	C 	0.97077 0.00788 0.73706 -0.01200
C 	C 	0.95081 0.98264 0.74199 -0.10000
C 	C 	0.95911 0.95389 0.72381 0.06100
C 	C 	0.98811 0.95023 0.70336 -0.07800
S 	S 	0.02412 0.03667 0.71159 -0.07300
H 	H 	0.96421 0.03015 0.75045 0.01300
S 	S 	0.93375 0.92218 0.72726 -0.04000
H 	H 	0.99442 0.92809 0.68941 0.05500
H 	H 	0.10810 0.98210 0.56804 0.04800
H 	H 	0.03823 0.04331 0.74820 0.03000
H 	H 	0.93925 0.90677 0.76305 0.04200
H 	H 	0.03716 0.93905 0.77966 0.03800
C 	C 	0.94997 0.13431 0.77980 -0.07500
C 	C 	0.96244 0.13918 0.81925 0.01100
C 	C 	0.95047 0.12248 0.85318 -0.01100
C 	C 	0.92827 0.09944 0.84666 -0.01600
C 	C 	0.91806 0.09240 0.80644 -0.12500
C 	C 	0.92944 0.10982 0.77261 0.05900
C 	C 	0.99129 0.15764 0.82324 0.01500
S 	S 	0.96295 0.13026 0.90400 -0.05900
H 	H 	0.91926 0.08665 0.87292 -0.00400
S 	S 	0.92159 0.09900 0.72088 -0.03400
H 	H 	0.95863 0.14763 0.75385 0.05300
C 	C 	0.01991 0.14615 0.80740 -0.01800
C 	C 	0.04749 0.16164 0.81636 0.00400
C 	C 	0.04715 0.18868 0.84128 -0.12700
C 	C 	0.01800 0.20176 0.85387 0.06700
C 	C 	0.99041 0.18600 0.84486 -0.08000
S 	S 	0.02150 0.11260 0.77568 -0.07200
H 	H 	0.06931 0.15251 0.80396 -0.06000
S 	S 	0.01514 0.23845 0.87810 -0.03000
H 	H 	0.96822 0.19559 0.85532 0.05500
H 	H 	0.94352 0.07818 0.70665 0.03400
H 	H 	0.01269 0.08774 0.79870 0.03100
H 	H 	0.01362 0.26044 0.84831 0.04000
H 	H 	0.98888 0.11324 0.91143 0.03300
C 	C 	0.71789 0.99987 0.82277 -0.05700
C 	C 	0.70335 0.02694 0.83785 0.02100
C 	C 	0.71736 0.05554 0.83020 -0.06000
C 	C 	0.74731 0.05680 0.81241 0.01100
C 	C 	0.76340 0.02951 0.80194 -0.07300
C 	C 	0.74779 0.00118 0.80462 0.00700
C 	C 	0.67687 0.02507 0.86780 0.00900
H 	H 	0.70595 0.07665 0.84070 0.04700
H 	H 	0.75889 0.07887 0.80965 0.03600
H 	H 	0.75977 0.97996 0.79599 0.03800
H 	H 	0.70701 0.97769 0.82772 0.04600
C 	C 	0.64799 0.01368 0.85520 -0.04600
C 	C 	0.62314 0.01159 0.88402 -0.02100
C 	C 	0.62707 0.02083 0.92570 -0.02000
C 	C 	0.65611 0.03197 0.93821 -0.02100
C 	C 	0.68083 0.03407 0.90944 -0.04600
H 	H 	0.64475 0.00657 0.82314 0.04200
H 	H 	0.60083 0.00313 0.87387 0.04000
H 	H 	0.65962 0.03877 0.97032 0.04000
H 	H 	0.70316 0.04251 0.91956 0.04300
C 	C 	0.16123 0.61026 0.34570 -0.05100
C 	C 	0.19206 0.61329 0.35965 0.10000
C 	C 	0.21080 0.58694 0.36206 -0.08600
C 	C 	0.20002 0.55812 0.34814 -0.00600
C 	C 	0.17052 0.55579 0.32983 0.06900
C 	C 	0.15115 0.58181 0.32949 -0.05300
N 	N 	0.20404 0.64141 0.36959 -0.19900
H 	H 	0.23380 0.58885 0.37489 0.05400
C 	C 	0.21833 0.53018 0.35693 -0.00500
N 	N 	0.16073 0.52874 0.31253 -0.19400
H 	H 	0.12789 0.57970 0.31751 0.05000
C 	C 	0.20900 0.51190 0.39039 -0.08600
C 	C 	0.22704 0.48671 0.40187 0.10100
C 	C 	0.25571 0.48065 0.38068 -0.05000
C 	C 	0.26440 0.49806 0.34609 -0.05300
C 	C 	0.24574 0.52260 0.33360 0.06900
H 	H 	0.18762 0.51733 0.40758 0.05500
N 	N 	0.21656 0.46823 0.43285 -0.19900
H 	H 	0.28603 0.49291 0.32933 0.04700
N 	N 	0.25414 0.53858 0.29919 -0.19400
H 	H 	0.19597 0.47355 0.44941 0.08400
H 	H 	0.22798 0.44781 0.43968 0.09100
H 	H 	0.27479 0.53330 0.28275 0.08300
H 	H 	0.23992 0.55577 0.28776 0.08700
H 	H 	0.13853 0.52695 0.30024 0.08400
H 	H 	0.17536 0.50959 0.30983 0.08800
H 	H 	0.19220 0.66168 0.36316 0.09100
H 	H 	0.22628 0.64330 0.38175 0.08400
C 	C 	0.14045 0.69063 0.75677 -0.05000
C 	C 	0.12827 0.66646 0.78125 0.10000
C 	C 	0.14800 0.64256 0.79281 -0.08600
C 	C 	0.17912 0.64167 0.77887 -0.00600
C 	C 	0.19162 0.66652 0.75611 0.07000
C 	C 	0.17207 0.69072 0.74512 -0.05200
N 	N 	0.09755 0.66546 0.79245 -0.19900
H 	H 	0.13864 0.62363 0.81068 0.05400
C 	C 	0.19657 0.61250 0.78187 -0.00500
N 	N 	0.22227 0.66721 0.74465 -0.19400
H 	H 	0.18145 0.70958 0.72712 0.04900
C 	C 	0.19374 0.59022 0.75011 -0.08700
C 	C 	0.20959 0.56213 0.75168 0.10100
C 	C 	0.22957 0.55671 0.78506 -0.05100
C 	C 	0.23201 0.57873 0.81728 -0.05300
C 	C 	0.21552 0.60663 0.81617 0.06900
H 	H 	0.17885 0.59467 0.72423 0.05400
N 	N 	0.20527 0.54032 0.72134 -0.20000
H 	H 	0.24708 0.57435 0.84300 0.04700
N 	N 	0.21825 0.62771 0.84774 -0.19400
H 	H 	0.19133 0.54498 0.69610 0.08300
H 	H 	0.21477 0.51829 0.72307 0.09300
H 	H 	0.23239 0.62321 0.87283 0.08300
H 	H 	0.20642 0.64870 0.84779 0.08800
H 	H 	0.23114 0.68524 0.72691 0.08300
H 	H 	0.23772 0.65035 0.75408 0.08800
H 	H 	0.08170 0.68143 0.78172 0.09100
H 	H 	0.08901 0.64789 0.81130 0.08400
C 	C 	0.09022 0.74335 0.64370 -0.04900
C 	C 	0.06400 0.72910 0.62580 0.10000
C 	C 	0.06458 0.72179 0.58303 -0.08500
C 	C 	0.09099 0.72821 0.55827 -0.00600
C 	C 	0.11537 0.74606 0.57513 0.07600
C 	C 	0.11455 0.75372 0.61776 -0.04900
N 	N 	0.03861 0.72172 0.64959 -0.20000
H 	H 	0.04524 0.70944 0.56956 0.05400
C 	C 	0.09480 0.71260 0.51699 -0.00300
N 	N 	0.13994 0.75515 0.55092 -0.19400
H 	H 	0.13399 0.76591 0.63127 0.05200
C 	C 	0.08650 0.72827 0.48134 -0.08800
C 	C 	0.09493 0.71657 0.44164 0.10200
C 	C 	0.10706 0.68622 0.43730 -0.05100
C 	C 	0.11366 0.66974 0.47315 -0.05400
C 	C 	0.10841 0.68293 0.51294 0.07000
H 	H 	0.07559 0.75070 0.48456 0.06100
N 	N 	0.09339 0.73523 0.40840 -0.19800
H 	H 	0.12283 0.64653 0.47015 0.05100
N 	N 	0.11637 0.66695 0.54700 -0.19400
H 	H 	0.08001 0.75528 0.41021 0.08800
H 	H 	0.10794 0.73174 0.38227 0.09300
H 	H 	0.12643 0.64510 0.54364 0.08400
H 	H 	0.11273 0.67592 0.57706 0.09000
H 	H 	0.15814 0.76777 0.56383 0.09000
H 	H 	0.14084 0.75058 0.51896 0.09300
H 	H 	0.03693 0.72805 0.68103 0.09300
H 	H 	0.01976 0.71026 0.63642 0.08500
C 	C 	0.06362 0.11087 0.99847 -0.06600
C 	C 	0.08170 0.10191 0.03185 0.00900
C 	C 	0.11214 0.11371 0.03546 -0.00500
C 	C 	0.12503 0.13177 0.00373 0.00100
C 	C 	0.10734 0.13929 0.96936 -0.09300
C 	C 	0.07605 0.12997 0.96786 0.05100
C 	C 	0.06902 0.07879 0.06127 0.01500
S 	S 	0.13365 0.10744 0.08030 -0.03600
H 	H 	0.14887 0.13970 0.00559 0.04300
S 	S 	0.05206 0.14246 0.92815 -0.07500
H 	H 	0.03994 0.10257 0.99601 0.04500
C 	C 	0.04004 0.08368 0.08165 -0.01700
C 	C 	0.02296 0.05856 0.09629 -0.02100
C 	C 	0.03554 0.02861 0.09378 -0.12100
C 	C 	0.06711 0.02492 0.08101 0.06100
C 	C 	0.08317 0.04971 0.06323 -0.07900
S 	S 	0.02528 0.12119 0.08981 -0.05300
H 	H 	0.99981 0.06233 0.10946 -0.00900
S 	S 	0.08789 0.99119 0.09168 -0.03200
H 	H 	0.10620 0.04608 0.04956 0.05600
H 	H 	0.05325 0.12175 0.89553 0.01200
H 	H 	0.00662 0.12857 0.05763 0.02200
H 	H 	0.09962 0.99373 0.13078 0.04100
H 	H 	0.12676 0.13006 0.10939 0.04000
C 	C 	0.85695 0.95388 0.05389 -0.06900
C 	C 	0.85956 0.92539 0.03244 0.00900
C 	C 	0.87547 0.90167 0.05218 -0.00300
C 	C 	0.89800 0.90969 0.08124 -0.00500
C 	C 	0.90386 0.94108 0.08922 -0.08600
C 	C 	0.87906 0.96151 0.08366 0.04800
C 	C 	0.86037 0.92582 0.98645 0.01800
S 	S 	0.87140 0.86316 0.03539 -0.03600
H 	H 	0.91391 0.89237 0.09184 0.05600
S 	S 	0.87862 0.99805 0.10817 -0.06500
H 	H 	0.84136 0.97142 0.04310 0.04600
C 	C 	0.83358 0.93318 0.96446 -0.01000
C 	C 	0.83664 0.94468 0.92419 0.00300
C 	C 	0.86628 0.94876 0.90575 -0.10000
C 	C 	0.89258 0.93752 0.92558 0.05100
C 	C 	0.88951 0.92585 0.96557 -0.07200
S 	S 	0.79630 0.92857 0.98724 -0.03700
H 	H 	0.81617 0.95219 0.90827 0.04100
S 	S 	0.92971 0.93917 0.90134 -0.06100
H 	H 	0.91015 0.91916 0.98177 0.06200
H 	H 	0.89523 0.01841 0.08440 -0.04000
H 	H 	0.78765 0.95529 0.00780 0.03100
H 	H 	0.94381 0.96644 0.91188 -0.01400
H 	H 	0.84838 0.84941 0.05863 0.03600
C 	C 	0.00818 0.05169 0.89945 -0.08700
C 	C 	0.04023 0.05264 0.89012 0.01000
C 	C 	0.06108 0.05113 0.92314 -0.00500
C 	C 	0.05046 0.04055 0.96153 0.00900
C 	C 	0.01965 0.03062 0.96662 -0.13800
C 	C 	0.99770 0.04034 0.93782 0.06800
C 	C 	0.05152 0.04527 0.84726 0.00900
S 	S 	0.10101 0.05885 0.91553 -0.05700
H 	H 	0.06718 0.03527 0.98484 0.03900
S 	S 	0.95756 0.03776 0.94885 -0.26900
H 	H 	0.99167 0.05619 0.87541 0.00300
C 	C 	0.04945 0.01478 0.83143 -0.01200
C 	C 	0.07159 0.00398 0.80225 0.00700
C 	C 	0.09572 0.02317 0.78849 -0.13600
C 	C 	0.09404 0.05516 0.79831 0.07400
C 	C 	0.07154 0.06600 0.82719 -0.08800
S 	S 	0.02053 0.98932 0.84969 -0.05100
H 	H 	0.07175 0.97988 0.79320 0.04000
S 	S 	0.11928 0.08192 0.77480 -0.29400
H 	H 	0.07164 0.09002 0.83701 -0.00500
H 	H 	0.94747 0.06474 0.96748 0.01400
H 	H 	0.99479 0.99180 0.82582 -0.00200
H 	H 	0.10559 0.09339 0.74042 -0.02600
H 	H 	0.11570 0.03284 0.90030 0.04500
C 	C 	0.00751 0.85138 0.88515 -0.05400
C 	C 	0.03737 0.83863 0.88633 0.02100
C 	C 	0.05603 0.84473 0.92067 -0.05800
C 	C 	0.04512 0.86399 0.95326 0.00900
C 	C 	0.01541 0.87732 0.95175 -0.06900
C 	C 	0.99649 0.87046 0.91778 0.00400
C 	C 	0.04868 0.81798 0.85232 0.01000
H 	H 	0.07903 0.83469 0.92198 0.04900
H 	H 	0.05996 0.86891 0.97926 0.04500
H 	H 	0.97333 0.88011 0.91647 0.04400
H 	H 	0.99281 0.84644 0.85901 0.04500
C 	C 	0.05033 0.78618 0.85844 -0.04600
C 	C 	0.06204 0.76662 0.82680 -0.02000
C 	C 	0.07247 0.77871 0.78875 -0.02000
C 	C 	0.06990 0.81047 0.78215 -0.01900
C 	C 	0.05802 0.83004 0.81384 -0.04500
H 	H 	0.04277 0.77665 0.88785 0.04300
H 	H 	0.06342 0.74210 0.83204 0.03900
H 	H 	0.07788 0.82010 0.75299 0.04500
H 	H 	0.05656 0.85458 0.80876 0.04600
C 	C 	0.04126 0.00853 0.31351 -0.08100
C 	C 	0.04307 0.02781 0.27918 0.01700
C 	C 	0.03050 0.01804 0.24122 -0.00900
C 	C 	0.01552 0.98947 0.23813 -0.00200
C 	C 	0.01314 0.97032 0.27265 -0.09800
C 	C 	0.02692 0.97965 0.31036 0.06000
C 	C 	0.05907 0.05783 0.28300 0.00200
S 	S 	0.03379 0.04126 0.19730 -0.02600
H 	H 	0.00568 0.98215 0.20887 0.04500
S 	S 	0.02859 0.95465 0.35267 -0.05600
H 	H 	0.05156 0.01580 0.34251 0.04600
C 	C 	0.04271 0.08445 0.29640 0.00900
C 	C 	0.05907 0.11126 0.30681 -0.02100
C 	C 	0.09174 0.11165 0.30458 -0.09300
C 	C 	0.10771 0.08619 0.28596 0.04800
C 	C 	0.09126 0.05939 0.27563 -0.07000
S 	S 	0.00183 0.08437 0.30075 -0.15700
H 	H 	0.04648 0.13128 0.31886 0.02500
S 	S 	0.14831 0.08678 0.27748 -0.03900
H 	H 	0.10368 0.03930 0.26345 0.05100
H 	H 	0.05451 0.93644 0.34835 0.03400
H 	H 	0.98961 0.09247 0.26366 0.03400
H 	H 	0.16251 0.07282 0.30969 0.04100
H 	H 	0.00928 0.06136 0.19686 0.03200
C 	C 	0.87779 0.96501 0.23098 -0.09600
C 	C 	0.89757 0.99071 0.23080 0.00100
C 	C 	0.92423 0.99024 0.20453 -0.01300
C 	C 	0.93440 0.96234 0.18634 -0.01300
C 	C 	0.91736 0.93522 0.19310 -0.12500
C 	C 	0.88731 0.93746 0.21125 0.02000
C 	C 	0.89476 0.01379 0.26516 0.00300
S 	S 	0.94550 0.02417 0.19562 -0.04900
H 	H 	0.95676 0.96125 0.17008 0.05000
S 	S 	0.86236 0.90536 0.21176 -0.06800
H 	H 	0.85619 0.96574 0.24909 0.03900
C 	C 	0.86916 0.03401 0.26848 -0.01300
C 	C 	0.86439 0.05202 0.30472 0.00400
C 	C 	0.88545 0.05070 0.33723 -0.13300
C 	C 	0.91212 0.03193 0.33270 0.04400
C 	C 	0.91642 0.01339 0.29700 -0.08900
S 	S 	0.84341 0.03748 0.22721 -0.04900
H 	H 	0.84426 0.06699 0.30769 0.03500
S 	S 	0.93964 0.03037 0.37209 -0.14000
H 	H 	0.93630 0.99804 0.29436 0.03100
H 	H 	0.86732 0.88876 0.24671 -0.00800
H 	H 	0.81989 0.01641 0.23155 0.03300
H 	H 	0.96438 0.04908 0.36306 -0.03600
H 	H 	0.93459 0.03817 0.16115 0.00600
C 	C 	0.07053 0.81674 0.44186 -0.08100
C 	C 	0.04025 0.82117 0.45793 0.00900
C 	C 	0.03435 0.81879 0.50097 -0.00400
C 	C 	0.05930 0.81654 0.52785 0.00000
C 	C 	0.09007 0.81669 0.51194 -0.10400
C 	C 	0.09529 0.81327 0.46863 0.02200
C 	C 	0.01566 0.83085 0.42979 0.01200
S 	S 	0.99604 0.81925 0.52151 -0.04500
H 	H 	0.05482 0.81652 0.56113 0.04900
S 	S 	0.13206 0.80254 0.44782 -0.07000
H 	H 	0.07486 0.81648 0.40853 0.04200
C 	C 	0.00947 0.86244 0.42452 -0.00800
C 	C 	0.99386 0.87191 0.38942 -0.01100
C 	C 	0.98559 0.85036 0.35868 -0.11200
C 	C 	0.98842 0.81867 0.36635 0.05900
C 	C 	0.00315 0.80906 0.40212 -0.07500
S 	S 	0.02354 0.89050 0.45963 -0.04800
H 	H 	0.99057 0.89628 0.38429 0.02100
S 	S 	0.97544 0.79089 0.33011 -0.05100
H 	H 	0.00696 0.78471 0.40681 0.05200
H 	H 	0.14838 0.82840 0.43700 -0.02400
H 	H 	0.00116 0.89740 0.48941 0.03700
H 	H 	0.94505 0.78367 0.33921 0.03400
H 	H 	0.98771 0.84887 0.53221 0.03500
C 	C 	0.01345 0.73749 0.18641 -0.05900
C 	C 	0.04420 0.73746 0.20003 0.02200
C 	C 	0.06276 0.76371 0.19413 -0.06000
C 	C 	0.04940 0.79102 0.18083 0.01000
C 	C 	0.01723 0.79244 0.17441 -0.07600
C 	C 	0.00003 0.76490 0.17345 0.01300
C 	C 	0.05474 0.71300 0.22771 0.00800
H 	H 	0.08687 0.76369 0.20304 0.04500
H 	H 	0.06348 0.81167 0.17929 0.04100
H 	H 	0.97558 0.76525 0.16619 0.03700
H 	H 	0.99929 0.71694 0.18893 0.04400
C 	C 	0.03801 0.70733 0.26481 -0.04500
C 	C 	0.05115 0.68964 0.29557 -0.02100
C 	C 	0.08132 0.67771 0.28982 -0.02100
C 	C 	0.09700 0.68123 0.25134 -0.02200
C 	C 	0.08371 0.69873 0.22038 -0.04600
H 	H 	0.01553 0.71801 0.27074 0.04400
H 	H 	0.03841 0.68637 0.32461 0.04100
H 	H 	0.12012 0.67180 0.24617 0.04000
H 	H 	0.09658 0.70244 0.19155 0.04100
