data_crystal

_cell_length_a 35.12096
_cell_length_b 33.96711
_cell_length_c 27.20797
_cell_angle_alpha 91.06805
_cell_angle_beta  91.06931
_cell_angle_gamma 90.00107

_symmetry_space_group_name_	'P 1'
_symmetry_space_group_name_H-M	'P 1'

loop_
_symmetry_equiv_pos_as_xyz
  x,y,z

loop_
_atom_site_label
_atom_site_type_symbol
_atom_site_fract_x
_atom_site_fract_y
_atom_site_fract_z
_atom_site_charge
Ni	Ni	0.99140 0.97035 0.32828 1.10600
O 	O 	0.99702 0.96672 0.25377 -0.69400
Ni	Ni	0.01725 0.02048 0.24034 1.09500
O 	O 	0.95148 0.92615 0.33172 -0.37700
O 	O 	0.91595 0.95468 0.27117 -0.42200
O 	O 	0.03367 0.92879 0.33809 -0.37900
Ni	Ni	0.95210 0.95835 0.21197 1.06900
O 	O 	0.05586 0.98770 0.40504 -0.40900
O 	O 	0.93275 0.01396 0.19539 -0.41200
O 	O 	0.01127 0.02308 0.16485 -0.39800
O 	O 	0.01941 0.02008 0.31506 -0.71300
O 	O 	0.99099 0.97730 0.40228 -0.37500
O 	O 	0.04715 0.07207 0.24148 -0.38300
O 	O 	0.09749 0.04487 0.28410 -0.41700
Ni	Ni	0.07065 0.01639 0.34210 1.05800
H 	H 	0.01656 0.94703 0.24473 0.15100
H 	H 	0.00606 0.04291 0.32995 0.15200
C 	C 	0.93668 0.04542 0.22385 0.30600
O 	O 	0.08180 0.96488 0.30591 -0.41800
C 	C 	0.92040 0.92689 0.30389 0.27000
C 	C 	0.99888 0.99392 0.13557 0.31700
C 	C 	0.06828 0.93123 0.32061 0.29400
C 	C 	0.08290 0.07335 0.25679 0.27500
C 	C 	0.02202 0.98955 0.42623 0.27100
O 	O 	0.96789 0.05134 0.25009 -0.39900
O 	O 	0.98665 0.96035 0.15338 -0.42700
Ni	Ni	0.98962 0.97449 0.82546 1.10200
O 	O 	0.99980 0.96406 0.75271 -0.69400
Ni	Ni	0.02784 0.01420 0.73614 1.09200
O 	O 	0.95534 0.92580 0.83309 -0.36800
O 	O 	0.91741 0.93911 0.76655 -0.40900
O 	O 	0.03269 0.93646 0.84650 -0.37200
Ni	Ni	0.95197 0.96442 0.71442 1.06400
O 	O 	0.04657 0.99661 0.90839 -0.39700
O 	O 	0.93691 0.01621 0.74729 -0.43600
O 	O 	0.03522 0.00105 0.66391 -0.40200
O 	O 	0.01833 0.02388 0.80883 -0.71300
O 	O 	0.98234 0.98901 0.89722 -0.37000
O 	O 	0.06120 0.06351 0.73057 -0.37700
O 	O 	0.10181 0.04732 0.79398 -0.42000
Ni	Ni	0.06657 0.02272 0.84647 1.05500
H 	H 	0.01513 0.94015 0.74611 0.14700
H 	H 	0.00342 0.04803 0.81577 0.15300
C 	C 	0.94884 0.04926 0.72971 0.29800
O 	O 	0.08277 0.97025 0.81644 -0.42100
C 	C 	0.92883 0.91487 0.80082 0.28200
C 	C 	0.00611 0.98989 0.63595 0.29200
C 	C 	0.06751 0.93711 0.82976 0.29300
C 	C 	0.09156 0.07097 0.75818 0.28300
C 	C 	0.01156 0.00029 0.92511 0.25700
O 	O 	0.98444 0.05259 0.71632 -0.36900
O 	O 	0.97114 0.99192 0.65307 -0.41000
Ni	Ni	0.29110 0.27404 0.10534 1.09700
O 	O 	0.30092 0.26595 0.17830 -0.70800
Ni	Ni	0.25399 0.23563 0.19581 1.09800
O 	O 	0.33853 0.30858 0.09918 -0.38200
O 	O 	0.32019 0.35230 0.15925 -0.41900
O 	O 	0.32707 0.22804 0.08701 -0.37600
Ni	Ni	0.29831 0.31656 0.21374 1.06000
O 	O 	0.27114 0.21401 0.02277 -0.41500
O 	O 	0.24709 0.32884 0.18128 -0.43300
O 	O 	0.26801 0.23040 0.26817 -0.38800
O 	O 	0.24301 0.24497 0.12279 -0.70300
O 	O 	0.27838 0.28057 0.03307 -0.39500
O 	O 	0.20946 0.19761 0.20576 -0.37400
O 	O 	0.21523 0.16121 0.13479 -0.41400
Ni	Ni	0.24326 0.19565 0.08416 1.06100
H 	H 	0.32470 0.25142 0.18582 0.15200
H 	H 	0.21986 0.26081 0.11626 0.15100
C 	C 	0.21587 0.31485 0.19926 0.29900
O 	O 	0.29217 0.17864 0.11838 -0.42900
C 	C 	0.34334 0.34188 0.12377 0.28500
C 	C 	0.27563 0.26192 0.29557 0.28500
C 	C 	0.32519 0.19270 0.10575 0.28800
C 	C 	0.19450 0.17389 0.17176 0.28200
C 	C 	0.27002 0.24995 0.00470 0.28300
O 	O 	0.21510 0.27863 0.21515 -0.38200
O 	O 	0.27311 0.29752 0.27666 -0.41800
Ni	Ni	0.28720 0.28466 0.60346 1.09600
O 	O 	0.30164 0.27919 0.67588 -0.70700
Ni	Ni	0.25928 0.24456 0.69872 1.09900
O 	O 	0.32964 0.32484 0.59050 -0.37800
O 	O 	0.31283 0.36542 0.65436 -0.41400
O 	O 	0.32714 0.24204 0.58478 -0.38000
Ni	Ni	0.29726 0.32930 0.71204 1.06000
O 	O 	0.26941 0.21954 0.52660 -0.41900
O 	O 	0.24260 0.33939 0.68837 -0.42000
O 	O 	0.27851 0.24111 0.76943 -0.38800
O 	O 	0.24286 0.25192 0.62678 -0.70000
O 	O 	0.27018 0.28678 0.53181 -0.39500
O 	O 	0.21780 0.20405 0.71432 -0.37100
O 	O 	0.22350 0.16597 0.64490 -0.41500
Ni	Ni	0.24538 0.20148 0.59066 1.06100
H 	H 	0.32690 0.26690 0.68127 0.15100
H 	H 	0.21804 0.26533 0.62233 0.15000
C 	C 	0.21389 0.31965 0.70549 0.29300
O 	O 	0.29684 0.19293 0.62317 -0.44000
C 	C 	0.33642 0.35606 0.61884 0.27600
C 	C 	0.28523 0.27307 0.79654 0.28200
C 	C 	0.32728 0.20614 0.60232 0.29500
C 	C 	0.20361 0.17774 0.68291 0.28300
C 	C 	0.26475 0.25416 0.50591 0.28800
O 	O 	0.21894 0.28412 0.72240 -0.38300
O 	O 	0.27907 0.30853 0.77815 -0.41700
Ni	Ni	0.21762 0.73138 0.31744 1.09700
O 	O 	0.21055 0.74309 0.39064 -0.70600
Ni	Ni	0.25945 0.77184 0.40743 1.09600
O 	O 	0.16859 0.69871 0.31098 -0.37700
O 	O 	0.18452 0.65915 0.37487 -0.41400
O 	O 	0.18194 0.77706 0.29821 -0.37600
Ni	Ni	0.21141 0.69446 0.42844 1.06100
O 	O 	0.23771 0.78858 0.23557 -0.41400
O 	O 	0.26068 0.67532 0.39764 -0.42400
O 	O 	0.24897 0.78107 0.47996 -0.39100
O 	O 	0.26664 0.76006 0.33453 -0.70600
O 	O 	0.22804 0.72261 0.24486 -0.39000
O 	O 	0.30828 0.80479 0.41323 -0.38100
O 	O 	0.29228 0.84592 0.35023 -0.41700
Ni	Ni	0.26582 0.80921 0.29753 1.06200
H 	H 	0.18786 0.75935 0.39782 0.15100
H 	H 	0.28937 0.74386 0.32743 0.15100
C 	C 	0.29352 0.69017 0.41160 0.29500
O 	O 	0.21689 0.82871 0.32834 -0.42400
C 	C 	0.15928 0.67176 0.34260 0.28300
C 	C 	0.23890 0.75165 0.50778 0.28500
C 	C 	0.18390 0.81275 0.31731 0.29300
C 	C 	0.31534 0.83570 0.38656 0.28700
C 	C 	0.23939 0.75209 0.21800 0.28500
O 	O 	0.29575 0.72684 0.42753 -0.37600
O 	O 	0.23967 0.71499 0.49043 -0.41600
Ni	Ni	0.21787 0.73895 0.81473 1.09700
O 	O 	0.21051 0.74399 0.88911 -0.70500
Ni	Ni	0.25935 0.77134 0.90994 1.09700
O 	O 	0.17017 0.70528 0.80224 -0.37600
O 	O 	0.18359 0.66245 0.86327 -0.41200
O 	O 	0.18117 0.78543 0.80229 -0.38100
Ni	Ni	0.21115 0.69253 0.92070 1.06300
O 	O 	0.23711 0.80334 0.74054 -0.41500
O 	O 	0.26026 0.67613 0.88743 -0.42400
O 	O 	0.24879 0.77417 0.98318 -0.38400
O 	O 	0.26642 0.76661 0.83578 -0.70700
O 	O 	0.22874 0.73658 0.74165 -0.38900
O 	O 	0.30734 0.80510 0.92083 -0.37700
O 	O 	0.28988 0.85029 0.86352 -0.41500
Ni	Ni	0.26454 0.81867 0.80535 1.06100
H 	H 	0.18784 0.75958 0.89835 0.15000
H 	H 	0.28932 0.75144 0.82640 0.15000
C 	C 	0.29316 0.68909 0.90401 0.29400
O 	O 	0.21541 0.83515 0.83824 -0.41900
C 	C 	0.15891 0.67865 0.83307 0.28400
C 	C 	0.23844 0.74252 0.00679 0.27900
C 	C 	0.18249 0.81910 0.82676 0.28800
C 	C 	0.31482 0.83679 0.89572 0.28100
C 	C 	0.23888 0.76841 0.71838 0.28400
O 	O 	0.29613 0.72486 0.92321 -0.37400
O 	O 	0.23959 0.70755 0.98474 -0.40900
Ni	Ni	0.52271 0.04875 0.04988 1.09600
O 	O 	0.50997 0.05673 0.97726 -0.70600
Ni	Ni	0.48365 0.00539 0.95983 1.09300
O 	O 	0.55432 0.09946 0.05598 -0.37700
O 	O 	0.59234 0.08283 0.99166 -0.41600
O 	O 	0.47858 0.08539 0.07131 -0.37400
Ni	Ni	0.55626 0.05773 0.93828 1.06000
O 	O 	0.46949 0.02479 0.13302 -0.42000
O 	O 	0.57542 0.00647 0.96736 -0.43700
O 	O 	0.47265 0.01738 0.88797 -0.39300
O 	O 	0.49675 0.99707 0.03228 -0.69800
O 	O 	0.53281 0.03715 0.12206 -0.39000
O 	O 	0.45292 0.95437 0.95354 -0.37500
O 	O 	0.41408 0.96872 0.01815 -0.42000
Ni	Ni	0.45001 0.99565 0.07062 1.06500
H 	H 	0.49335 0.07973 0.97108 0.15300
H 	H 	0.51345 0.97411 0.03827 0.15300
C 	C 	0.56327 0.97287 0.94951 0.31100
O 	O 	0.43138 0.04633 0.04044 -0.43900
C 	C 	0.58332 0.10706 0.02788 0.28100
C 	C 	0.50014 0.02885 0.85921 0.28800
C 	C 	0.44254 0.08000 0.05923 0.30000
C 	C 	0.42374 0.94591 0.98079 0.29300
C 	C 	0.50492 0.02597 0.15038 0.28300
O 	O 	0.52721 0.96857 0.93708 -0.36800
O 	O 	0.53587 0.02954 0.87566 -0.42100
Ni	Ni	0.51432 0.04795 0.55426 1.09600
O 	O 	0.51156 0.05873 0.48076 -0.70500
Ni	Ni	0.48270 0.01076 0.45538 1.09400
O 	O 	0.54903 0.09526 0.56952 -0.37700
O 	O 	0.59361 0.07598 0.51405 -0.42000
O 	O 	0.47151 0.08829 0.56883 -0.37100
Ni	Ni	0.56255 0.05525 0.45290 1.06000
O 	O 	0.45010 0.02743 0.62527 -0.41900
O 	O 	0.57080 0.00189 0.48400 -0.44400
O 	O 	0.48289 0.02530 0.38320 -0.38800
O 	O 	0.48588 0.99947 0.52904 -0.69200
O 	O 	0.51497 0.03369 0.62642 -0.39300
O 	O 	0.44682 0.96444 0.43834 -0.36700
O 	O 	0.40470 0.97907 0.49855 -0.41100
Ni	Ni	0.43535 0.00199 0.55843 1.05600
H 	H 	0.49845 0.08362 0.47254 0.15300
H 	H 	0.49953 0.97483 0.53697 0.15200
C 	C 	0.55881 0.97024 0.46104 0.31200
O 	O 	0.42585 0.05452 0.52659 -0.43600
C 	C 	0.58179 0.10063 0.54831 0.28700
C 	C 	0.51501 0.03442 0.36182 0.28200
C 	C 	0.43715 0.08664 0.54908 0.29900
C 	C 	0.41795 0.95429 0.46544 0.28000
C 	C 	0.48340 0.02368 0.64831 0.28600
O 	O 	0.52468 0.96971 0.44065 -0.37300
O 	O 	0.54794 0.03035 0.38570 -0.41900
Ni	Ni	0.71382 0.77908 0.41797 1.09800
O 	O 	0.70639 0.77297 0.34365 -0.70600
Ni	Ni	0.75416 0.74306 0.32596 1.09700
O 	O 	0.66758 0.81545 0.42631 -0.37900
O 	O 	0.68708 0.85834 0.36845 -0.41800
O 	O 	0.67459 0.73523 0.43136 -0.37800
Ni	Ni	0.71022 0.82427 0.31221 1.06000
O 	O 	0.73088 0.71569 0.49555 -0.41400
O 	O 	0.76017 0.83663 0.34833 -0.42800
O 	O 	0.74353 0.73968 0.25243 -0.38900
O 	O 	0.76133 0.74890 0.40039 -0.70500
O 	O 	0.72498 0.78276 0.49130 -0.39100
O 	O 	0.80043 0.70688 0.31768 -0.37300
O 	O 	0.78185 0.66423 0.37620 -0.41200
Ni	Ni	0.75757 0.69771 0.43244 1.06200
H 	H 	0.68295 0.75852 0.33360 0.15000
H 	H 	0.78477 0.76335 0.41046 0.15400
C 	C 	0.79213 0.82299 0.33163 0.29800
O 	O 	0.70740 0.68389 0.39826 -0.42600
C 	C 	0.66177 0.84715 0.40030 0.28500
C 	C 	0.73444 0.77145 0.22793 0.28600
C 	C 	0.67533 0.69918 0.41288 0.29400
C 	C 	0.80790 0.67705 0.34634 0.28200
C 	C 	0.73350 0.75112 0.51646 0.28500
O 	O 	0.79374 0.78693 0.31347 -0.37100
O 	O 	0.73737 0.80660 0.24943 -0.41800
Ni	Ni	0.72060 0.78227 0.91859 1.09700
O 	O 	0.71123 0.77503 0.84468 -0.70600
Ni	Ni	0.75501 0.73964 0.82657 1.09800
O 	O 	0.67837 0.82367 0.92700 -0.37200
O 	O 	0.69889 0.86153 0.86458 -0.41500
O 	O 	0.67805 0.74194 0.93473 -0.37100
Ni	Ni	0.71932 0.82424 0.80954 1.06100
O 	O 	0.73552 0.72011 0.99752 -0.41400
O 	O 	0.77167 0.83514 0.84111 -0.41700
O 	O 	0.74126 0.73456 0.75394 -0.39000
O 	O 	0.76575 0.74806 0.90011 -0.70300
O 	O 	0.73361 0.78708 0.99141 -0.38600
O 	O 	0.79758 0.69904 0.81678 -0.37900
O 	O 	0.77946 0.66038 0.87979 -0.41700
Ni	Ni	0.75992 0.69834 0.93459 1.06200
H 	H 	0.68631 0.76282 0.83618 0.15300
H 	H 	0.79043 0.76098 0.90797 0.14900
C 	C 	0.80156 0.81418 0.82954 0.29000
O 	O 	0.70889 0.69044 0.90047 -0.43500
C 	C 	0.67244 0.85243 0.89604 0.27800
C 	C 	0.73603 0.76612 0.72733 0.28500
C 	C 	0.67875 0.70452 0.92124 0.30000
C 	C 	0.80394 0.66924 0.84586 0.28600
C 	C 	0.74076 0.75556 0.01736 0.28000
O 	O 	0.79716 0.77910 0.80916 -0.37900
O 	O 	0.74276 0.80161 0.74650 -0.41300
Ni	Ni	0.78335 0.24125 0.19634 1.09800
O 	O 	0.79490 0.24700 0.12360 -0.70500
Ni	Ni	0.75144 0.28198 0.10221 1.09700
O 	O 	0.82661 0.20149 0.20794 -0.37200
O 	O 	0.80662 0.16056 0.14537 -0.41700
O 	O 	0.82391 0.28307 0.21510 -0.37400
Ni	Ni	0.78771 0.19653 0.08880 1.06100
O 	O 	0.77008 0.30551 0.27534 -0.41400
O 	O 	0.73592 0.19119 0.11992 -0.43500
O 	O 	0.76625 0.28406 0.03054 -0.39300
O 	O 	0.73941 0.27588 0.17499 -0.70300
O 	O 	0.76919 0.23839 0.26817 -0.38900
O 	O 	0.71124 0.32461 0.08865 -0.37500
O 	O 	0.72032 0.36147 0.15874 -0.41300
Ni	Ni	0.74513 0.32585 0.21200 1.06200
H 	H 	0.82011 0.25870 0.11733 0.15000
H 	H 	0.71450 0.26328 0.18065 0.15100
C 	C 	0.70636 0.20661 0.09827 0.30100
O 	O 	0.79641 0.33741 0.18189 -0.42100
C 	C 	0.83210 0.17052 0.17925 0.28200
C 	C 	0.77044 0.25138 0.00443 0.28400
C 	C 	0.82701 0.31731 0.19375 0.28500
C 	C 	0.69794 0.34911 0.12222 0.27900
C 	C 	0.76360 0.27069 0.29442 0.28500
O 	O 	0.70822 0.24288 0.08257 -0.38200
O 	O 	0.76425 0.21673 0.02425 -0.41700
Ni	Ni	0.78383 0.23292 0.69444 1.09800
O 	O 	0.79413 0.24232 0.62207 -0.70700
Ni	Ni	0.74726 0.27316 0.60309 1.09700
O 	O 	0.83008 0.19643 0.70389 -0.37700
O 	O 	0.81474 0.15703 0.63757 -0.41600
O 	O 	0.82117 0.27736 0.71555 -0.38100
Ni	Ni	0.79163 0.19296 0.58362 1.06100
O 	O 	0.76412 0.29393 0.77532 -0.41800
O 	O 	0.74108 0.17624 0.61273 -0.42000
O 	O 	0.76051 0.28031 0.53158 -0.39600
O 	O 	0.73675 0.26330 0.67502 -0.70700
O 	O 	0.77019 0.22697 0.76599 -0.39300
O 	O 	0.69909 0.30619 0.59544 -0.38900
O 	O 	0.71443 0.34997 0.65796 -0.41400
Ni	Ni	0.73815 0.31347 0.71193 1.06000
H 	H 	0.81786 0.25714 0.61632 0.15100
H 	H 	0.71303 0.24845 0.68068 0.15100
C 	C 	0.70934 0.19453 0.60216 0.28800
O 	O 	0.78861 0.32881 0.68282 -0.42900
C 	C 	0.83881 0.16762 0.67304 0.28000
C 	C 	0.76918 0.24971 0.50361 0.28600
C 	C 	0.82059 0.31303 0.69769 0.29500
C 	C 	0.69333 0.33947 0.61921 0.28800
C 	C 	0.76205 0.25807 0.79345 0.28600
O 	O 	0.71071 0.22868 0.58086 -0.37700
O 	O 	0.76607 0.21355 0.52060 -0.41100
Ni	Ni	0.48975 0.54871 0.95859 1.10100
O 	O 	0.49227 0.55373 0.03322 -0.70900
Ni	Ni	0.51426 0.50149 0.05077 1.09700
O 	O 	0.44958 0.59185 0.95042 -0.38600
O 	O 	0.40973 0.56293 0.00459 -0.42300
O 	O 	0.53112 0.59165 0.95169 -0.37500
Ni	Ni	0.44449 0.56037 0.06770 1.06600
O 	O 	0.55722 0.53338 0.88909 -0.40800
O 	O 	0.42459 0.50497 0.08409 -0.40500
O 	O 	0.50613 0.50097 0.12584 -0.39100
O 	O 	0.51846 0.49998 0.97616 -0.70300
O 	O 	0.49193 0.54045 0.88499 -0.38500
O 	O 	0.54620 0.45112 0.05521 -0.38800
O 	O 	0.59632 0.47896 0.01521 -0.41700
Ni	Ni	0.57025 0.50547 0.95417 1.06300
H 	H 	0.51017 0.57478 0.04410 0.15500
H 	H 	0.50629 0.47640 0.96076 0.15500
C 	C 	0.43609 0.47113 0.06512 0.30600
O 	O 	0.57641 0.55703 0.99231 -0.42800
C 	C 	0.41554 0.58826 0.96916 0.27400
C 	C 	0.48886 0.52873 0.15244 0.29200
C 	C 	0.56495 0.59002 0.97304 0.29400
C 	C 	0.58203 0.45024 0.04156 0.27600
C 	C 	0.52433 0.53094 0.86395 0.27900
O 	O 	0.46612 0.46905 0.03746 -0.41000
O 	O 	0.47442 0.56083 0.13219 -0.42400
Ni	Ni	0.48546 0.54551 0.46342 1.09800
O 	O 	0.49849 0.55728 0.53600 -0.70300
Ni	Ni	0.52278 0.50537 0.55345 1.09600
O 	O 	0.44925 0.59197 0.45475 -0.37900
O 	O 	0.42449 0.60206 0.53088 -0.41000
O 	O 	0.52782 0.58317 0.44126 -0.37700
Ni	Ni	0.45333 0.56293 0.57700 1.06200
O 	O 	0.54076 0.52062 0.38079 -0.41500
O 	O 	0.42916 0.51399 0.54458 -0.43400
O 	O 	0.53376 0.51763 0.62560 -0.39900
O 	O 	0.51269 0.49587 0.48068 -0.71300
O 	O 	0.47655 0.53030 0.39165 -0.39000
O 	O 	0.55232 0.45375 0.55749 -0.38700
O 	O 	0.59568 0.47207 0.50033 -0.41400
Ni	Ni	0.56060 0.49563 0.44481 1.06000
H 	H 	0.51648 0.57945 0.54126 0.15400
H 	H 	0.49702 0.47218 0.47332 0.15400
C 	C 	0.43996 0.47872 0.55840 0.28600
O 	O 	0.57803 0.54882 0.47242 -0.42400
C 	C 	0.41981 0.59869 0.48270 0.28800
C 	C 	0.50661 0.53074 0.65393 0.29100
C 	C 	0.56360 0.58165 0.45603 0.29500
C 	C 	0.58510 0.44877 0.53597 0.28300
C 	C 	0.50517 0.52033 0.36329 0.28500
O 	O 	0.47573 0.47215 0.57197 -0.37100
O 	O 	0.47114 0.53175 0.63703 -0.41600
Ni	Ni	0.02350 0.46878 0.22430 1.09600
O 	O 	0.01422 0.45637 0.29599 -0.71000
Ni	Ni	0.97980 0.50115 0.31510 1.10000
O 	O 	0.06237 0.42399 0.21571 -0.37700
O 	O 	0.09833 0.44409 0.28216 -0.41600
O 	O 	0.98334 0.42739 0.20144 -0.37500
Ni	Ni	0.06088 0.46274 0.33600 1.06100
O 	O 	0.96545 0.48531 0.14130 -0.41300
O 	O 	0.07231 0.51717 0.30980 -0.42000
O 	O 	0.97292 0.48433 0.38554 -0.38400
O 	O 	0.99019 0.51489 0.24379 -0.69800
O 	O 	0.03004 0.48419 0.15337 -0.39200
O 	O 	0.94099 0.54519 0.32626 -0.37300
O 	O 	0.90671 0.53528 0.25520 -0.40800
Ni	Ni	0.94339 0.51083 0.20347 1.06200
H 	H 	0.00212 0.43046 0.30077 0.15000
H 	H 	0.00317 0.54048 0.23983 0.14800
C 	C 	0.05223 0.54795 0.32241 0.29300
O 	O 	0.93088 0.45782 0.23219 -0.42700
C 	C 	0.09088 0.41816 0.24681 0.27900
C 	C 	0.00286 0.47770 0.41400 0.27200
C 	C 	0.94831 0.42575 0.21768 0.29100
C 	C 	0.91726 0.55830 0.29246 0.28400
C 	C 	0.00021 0.49109 0.12499 0.28100
O 	O 	0.01791 0.54365 0.33971 -0.38000
O 	O 	0.03733 0.48593 0.39839 -0.41300
Ni	Ni	0.01474 0.46282 0.72679 1.09800
O 	O 	0.01682 0.46171 0.80167 -0.70900
Ni	Ni	0.98331 0.50703 0.81851 1.10200
O 	O 	0.05030 0.41521 0.72319 -0.37900
O 	O 	0.09552 0.44768 0.77024 -0.41500
O 	O 	0.96926 0.42592 0.73330 -0.39400
Ni	Ni	0.06686 0.47224 0.83012 1.06300
O 	O 	0.97782 0.52025 0.64388 -0.42800
O 	O 	0.07291 0.52509 0.79650 -0.41900
O 	O 	0.98327 0.49825 0.89185 -0.38100
O 	O 	0.98867 0.51351 0.74446 -0.69900
O 	O 	0.00891 0.46069 0.65152 -0.39300
O 	O 	0.94071 0.54780 0.82546 -0.37900
O 	O 	0.90651 0.52007 0.76154 -0.42600
Ni	Ni	0.94341 0.51878 0.70273 1.06700
H 	H 	0.00633 0.43703 0.81471 0.15300
H 	H 	0.00600 0.53547 0.73717 0.14600
C 	C 	0.05343 0.55624 0.80995 0.29300
O 	O 	0.92942 0.46187 0.68426 -0.41100
C 	C 	0.08399 0.41604 0.74522 0.27600
C 	C 	0.01580 0.49231 0.91581 0.27400
C 	C 	0.93586 0.43141 0.71217 0.30200
C 	C 	0.91023 0.54700 0.79676 0.27900
C 	C 	0.99239 0.48788 0.62412 0.30300
O 	O 	0.02094 0.55236 0.83231 -0.38200
O 	O 	0.04896 0.49867 0.89438 -0.41000
C 	C 	0.02446 0.46399 0.54886 -0.03700
C 	C 	0.99321 0.48308 0.57018 -0.09400
C 	C 	0.96207 0.49466 0.53995 0.07600
C 	C 	0.96515 0.49185 0.48874 -0.04500
C 	C 	0.99727 0.47438 0.46740 -0.07600
C 	C 	0.02553 0.45735 0.49799 0.05600
C 	C 	0.05690 0.43223 0.47688 -0.17600
H 	H 	0.04777 0.45375 0.57199 0.04100
H 	H 	0.94273 0.50381 0.46550 0.05200
C 	C 	0.92554 0.50984 0.56168 -0.19100
H 	H 	0.06783 0.41110 0.50447 0.05200
H 	H 	0.08086 0.45123 0.46582 0.05000
H 	H 	0.04635 0.41461 0.44462 0.03300
H 	H 	0.92945 0.54070 0.57493 0.05600
H 	H 	0.91661 0.49112 0.59242 0.05800
H 	H 	0.90188 0.50933 0.53398 0.05900
C 	C 	0.01021 0.45617 0.99323 -0.04400
C 	C 	0.01506 0.49200 0.96959 -0.09200
C 	C 	0.01632 0.52761 0.99729 0.08400
C 	C 	0.01143 0.52681 0.04830 -0.05100
C 	C 	0.00567 0.49105 0.07177 -0.09100
C 	C 	0.00594 0.45532 0.04433 0.07800
C 	C 	0.00128 0.41635 0.06929 -0.20200
H 	H 	0.00938 0.42895 0.97175 0.02400
H 	H 	0.01200 0.55405 0.06975 0.02500
C 	C 	0.02324 0.56634 0.97268 -0.19800
H 	H 	0.00418 0.39112 0.04305 0.05900
H 	H 	0.97266 0.41471 0.08569 0.08500
H 	H 	0.02339 0.41305 0.09865 0.08500
H 	H 	0.00098 0.57146 0.94398 0.08300
H 	H 	0.05167 0.56595 0.95552 0.07700
H 	H 	0.02255 0.59151 0.99930 0.05900
C 	C 	0.51608 0.56676 0.78607 -0.03300
C 	C 	0.52521 0.53165 0.80998 -0.08300
C 	C 	0.53040 0.49665 0.78220 0.05900
C 	C 	0.52404 0.49680 0.73110 -0.03000
C 	C 	0.51356 0.53163 0.70742 -0.09200
C 	C 	0.51039 0.56707 0.73487 0.06500
C 	C 	0.50024 0.60505 0.70993 -0.18300
H 	H 	0.51248 0.59369 0.80754 0.04700
H 	H 	0.52653 0.46965 0.70984 0.04200
C 	C 	0.54106 0.45880 0.80707 -0.18000
H 	H 	0.50211 0.63068 0.73585 0.05700
H 	H 	0.47066 0.60333 0.69492 0.04100
H 	H 	0.52010 0.61046 0.67949 0.04500
H 	H 	0.51715 0.44887 0.82992 0.04700
H 	H 	0.56679 0.46336 0.83084 0.04000
H 	H 	0.54758 0.43502 0.77991 0.05300
C 	C 	0.48787 0.48959 0.28255 -0.04500
C 	C 	0.49929 0.52304 0.30976 -0.09200
C 	C 	0.50480 0.55908 0.28573 0.08000
C 	C 	0.50152 0.56032 0.23430 -0.04400
C 	C 	0.49089 0.52663 0.20675 -0.09200
C 	C 	0.48230 0.49137 0.23136 0.07500
C 	C 	0.46797 0.45539 0.20355 -0.19400
H 	H 	0.48300 0.46216 0.30125 0.02600
H 	H 	0.50747 0.58752 0.21565 0.04000
C 	C 	0.51439 0.59618 0.31469 -0.19900
H 	H 	0.45292 0.43510 0.22820 0.05900
H 	H 	0.49247 0.43940 0.18758 0.07200
H 	H 	0.44736 0.46356 0.17407 0.07800
H 	H 	0.54306 0.59341 0.33194 0.08200
H 	H 	0.49306 0.60142 0.34371 0.08900
H 	H 	0.51445 0.62244 0.29095 0.06200
C 	C 	0.88804 0.38948 0.75096 -0.04000
C 	C 	0.90912 0.39835 0.70950 -0.09600
C 	C 	0.90449 0.37550 0.66586 0.08000
C 	C 	0.87664 0.34588 0.66340 -0.04100
C 	C 	0.85415 0.33836 0.70415 -0.09600
C 	C 	0.86064 0.35949 0.74879 0.07600
C 	C 	0.83698 0.35173 0.79326 -0.19300
H 	H 	0.89234 0.40661 0.78466 0.03100
H 	H 	0.87167 0.32948 0.62930 0.02600
C 	C 	0.92815 0.38350 0.62137 -0.19600
H 	H 	0.84815 0.36779 0.82643 0.06200
H 	H 	0.83734 0.31989 0.80153 0.08200
H 	H 	0.80723 0.36147 0.78632 0.06400
H 	H 	0.95876 0.38589 0.63200 0.08400
H 	H 	0.91870 0.41138 0.60431 0.07700
H 	H 	0.92538 0.35942 0.59333 0.06100
C 	C 	0.64400 0.39118 0.62877 -0.04200
C 	C 	0.66695 0.36858 0.59755 -0.09400
C 	C 	0.66480 0.37445 0.54605 0.07500
C 	C 	0.63667 0.39938 0.52668 -0.04200
C 	C 	0.61349 0.42176 0.55789 -0.09200
C 	C 	0.61877 0.41924 0.60960 0.07600
C 	C 	0.59859 0.44687 0.64449 -0.19400
H 	H 	0.64623 0.38739 0.66821 0.02900
H 	H 	0.63337 0.40200 0.48716 0.02900
C 	C 	0.69273 0.35511 0.51165 -0.19200
H 	H 	0.61180 0.44653 0.68192 0.06200
H 	H 	0.56839 0.43781 0.64755 0.08300
H 	H 	0.60032 0.47761 0.63155 0.07800
H 	H 	0.68449 0.32394 0.50451 0.08200
H 	H 	0.72211 0.35658 0.52741 0.07500
H 	H 	0.69323 0.37021 0.47578 0.06100
C 	C 	0.73247 0.26586 0.87487 -0.04500
C 	C 	0.76390 0.25423 0.84721 -0.09300
C 	C 	0.79791 0.24220 0.87142 0.08000
C 	C 	0.79964 0.24189 0.92300 -0.04700
C 	C 	0.76829 0.25379 0.95059 -0.08900
C 	C 	0.73409 0.26507 0.92642 0.08100
C 	C 	0.69925 0.27601 0.95534 -0.20000
H 	H 	0.70663 0.27545 0.85620 0.02200
H 	H 	0.82543 0.23222 0.94172 0.02500
C 	C 	0.83191 0.22837 0.84263 -0.19800
H 	H 	0.67400 0.28067 0.93093 0.05900
H 	H 	0.70455 0.30371 0.97667 0.08500
H 	H 	0.69208 0.25209 0.98087 0.08700
H 	H 	0.83869 0.24944 0.81339 0.08400
H 	H 	0.82588 0.19898 0.82570 0.08300
H 	H 	0.85772 0.22581 0.86659 0.06100
C 	C 	0.73888 0.23747 0.42181 -0.03600
C 	C 	0.76841 0.25484 0.45006 -0.09100
C 	C 	0.79539 0.27901 0.42740 0.06600
C 	C 	0.79237 0.28542 0.37667 -0.03600
C 	C 	0.76316 0.26755 0.34828 -0.09100
C 	C 	0.73562 0.24421 0.37121 0.06600
C 	C 	0.70304 0.22600 0.34186 -0.18500
H 	H 	0.71794 0.21930 0.43947 0.04600
H 	H 	0.81339 0.30347 0.35899 0.04700
C 	C 	0.82729 0.29812 0.45711 -0.18600
H 	H 	0.68017 0.21563 0.36616 0.05500
H 	H 	0.71351 0.20041 0.32004 0.06700
H 	H 	0.69015 0.24789 0.31671 0.04700
H 	H 	0.84209 0.27592 0.48005 0.04800
H 	H 	0.81562 0.32171 0.48127 0.06500
H 	H 	0.84886 0.31147 0.43312 0.05900
C 	C 	0.90649 0.38645 0.16167 -0.03700
C 	C 	0.92534 0.39035 0.20738 -0.09200
C 	C 	0.91652 0.36448 0.24547 0.07000
C 	C 	0.88558 0.33856 0.23941 -0.03800
C 	C 	0.86416 0.33757 0.19530 -0.09000
C 	C 	0.87646 0.35952 0.15494 0.06700
C 	C 	0.85663 0.35584 0.10543 -0.18500
H 	H 	0.91376 0.40592 0.13215 0.03800
H 	H 	0.87702 0.32061 0.26985 0.05000
C 	C 	0.93876 0.36582 0.29338 -0.18800
H 	H 	0.87529 0.36609 0.07570 0.05800
H 	H 	0.83033 0.37397 0.10525 0.06900
H 	H 	0.84916 0.32467 0.09685 0.04700
H 	H 	0.93208 0.39339 0.31405 0.05600
H 	H 	0.96976 0.36472 0.28617 0.05300
H 	H 	0.93182 0.34041 0.31674 0.05900
C 	C 	0.66618 0.41476 0.11784 -0.04400
C 	C 	0.66476 0.37398 0.10829 -0.09000
C 	C 	0.63292 0.35781 0.08222 0.06700
C 	C 	0.60586 0.38312 0.06077 -0.04300
C 	C 	0.60876 0.42401 0.06781 -0.09200
C 	C 	0.63770 0.43970 0.09930 0.07300
C 	C 	0.63895 0.48306 0.11238 -0.18900
H 	H 	0.68989 0.42729 0.13888 0.04400
H 	H 	0.58272 0.37097 0.03831 0.03200
C 	C 	0.62777 0.31385 0.07664 -0.18800
H 	H 	0.65676 0.48878 0.14594 0.05900
H 	H 	0.60994 0.49437 0.12004 0.06600
H 	H 	0.65125 0.49960 0.08164 0.07100
H 	H 	0.63649 0.29886 0.11099 0.06000
H 	H 	0.64503 0.30252 0.04568 0.07600
H 	H 	0.59746 0.30616 0.06898 0.05600
C 	C 	0.81813 0.59917 0.82599 -0.04200
C 	C 	0.83068 0.63841 0.82957 -0.09200
C 	C 	0.86859 0.64774 0.81776 0.06800
C 	C 	0.89341 0.61752 0.80327 -0.04100
C 	C 	0.88146 0.57809 0.80241 -0.10400
C 	C 	0.84336 0.56882 0.81315 0.07500
C 	C 	0.82957 0.52673 0.81153 -0.19200
H 	H 	0.78872 0.59221 0.83369 0.04400
H 	H 	0.92255 0.62453 0.79421 0.03300
C 	C 	0.88276 0.68971 0.82051 -0.18900
H 	H 	0.79973 0.52430 0.82402 0.06000
H 	H 	0.84763 0.50836 0.83598 0.06900
H 	H 	0.83065 0.51483 0.77330 0.07100
H 	H 	0.87494 0.70390 0.85602 0.06000
H 	H 	0.87020 0.70663 0.78967 0.07700
H 	H 	0.91427 0.69116 0.81796 0.06100
C 	C 	0.61145 0.68793 0.94138 -0.04000
C 	C 	0.64996 0.67675 0.94014 -0.09100
C 	C 	0.66051 0.63841 0.95545 0.07300
C 	C 	0.63224 0.61075 0.96477 -0.03900
C 	C 	0.59365 0.62131 0.96460 -0.09400
C 	C 	0.58331 0.66099 0.95558 0.07500
C 	C 	0.54286 0.67502 0.96134 -0.18900
H 	H 	0.60332 0.71754 0.93127 0.04100
H 	H 	0.64047 0.58067 0.97235 0.03400
C 	C 	0.70168 0.62631 0.96176 -0.18500
H 	H 	0.54161 0.70762 0.96522 0.05900
H 	H 	0.53025 0.66273 0.99490 0.06500
H 	H 	0.52552 0.66608 0.92847 0.07900
H 	H 	0.71853 0.64978 0.98063 0.03200
H 	H 	0.71396 0.61892 0.92544 0.06200
H 	H 	0.70443 0.59984 0.98497 0.05700
C 	C 	0.76681 0.74483 0.59690 -0.04500
C 	C 	0.73357 0.75417 0.57042 -0.09200
C 	C 	0.70058 0.76623 0.59574 0.08100
C 	C 	0.70204 0.77039 0.64714 -0.04600
C 	C 	0.73539 0.76141 0.67356 -0.09200
C 	C 	0.76821 0.74880 0.64833 0.08100
C 	C 	0.80461 0.73935 0.67603 -0.19800
H 	H 	0.79181 0.73497 0.57737 0.02300
H 	H 	0.67709 0.78042 0.66666 0.02300
C 	C 	0.66404 0.77544 0.56820 -0.19800
H 	H 	0.82876 0.73469 0.65077 0.05900
H 	H 	0.80084 0.71209 0.69729 0.08300
H 	H 	0.81248 0.76401 0.70156 0.08300
H 	H 	0.65762 0.75220 0.54007 0.08300
H 	H 	0.66662 0.80428 0.55002 0.08300
H 	H 	0.63944 0.77693 0.59326 0.06000
C 	C 	0.71128 0.73988 0.09675 -0.03800
C 	C 	0.73979 0.75955 0.07130 -0.08800
C 	C 	0.76597 0.78406 0.09734 0.06500
C 	C 	0.76279 0.78898 0.14844 -0.03500
C 	C 	0.73453 0.76897 0.17391 -0.09200
C 	C 	0.70817 0.74475 0.14781 0.06700
C 	C 	0.67697 0.72372 0.17425 -0.18600
H 	H 	0.69108 0.72126 0.07661 0.04800
H 	H 	0.78294 0.80764 0.16862 0.04600
C 	C 	0.79715 0.80513 0.07090 -0.18500
H 	H 	0.65518 0.71143 0.14810 0.05800
H 	H 	0.66222 0.74440 0.19963 0.04700
H 	H 	0.68930 0.69908 0.19556 0.06600
H 	H 	0.78475 0.82950 0.04920 0.06700
H 	H 	0.81219 0.78438 0.04591 0.04900
H 	H 	0.81871 0.81780 0.09709 0.05700
C 	C 	0.84913 0.64486 0.28377 -0.03600
C 	C 	0.83972 0.65053 0.33341 -0.08700
C 	C 	0.85947 0.62920 0.36996 0.06600
C 	C 	0.88427 0.59886 0.35594 -0.03600
C 	C 	0.89242 0.59188 0.30610 -0.08500
C 	C 	0.87655 0.61686 0.27006 0.06600
C 	C 	0.88826 0.61366 0.21706 -0.18100
H 	H 	0.83479 0.66191 0.25567 0.05100
H 	H 	0.89708 0.58052 0.38393 0.05100
C 	C 	0.85383 0.63804 0.42391 -0.18100
H 	H 	0.88142 0.64109 0.19710 0.05600
H 	H 	0.87287 0.58886 0.19844 0.05200
H 	H 	0.91946 0.60895 0.21447 0.03800
H 	H 	0.82771 0.62310 0.43638 0.04900
H 	H 	0.85138 0.67026 0.43090 0.03600
H 	H 	0.87839 0.62747 0.44637 0.05600
C 	C 	0.60857 0.61204 0.39863 -0.03900
C 	C 	0.58949 0.61390 0.44341 -0.09200
C 	C 	0.59543 0.64636 0.47575 0.07100
C 	C 	0.62210 0.67543 0.46398 -0.03800
C 	C 	0.64224 0.67288 0.41985 -0.09300
C 	C 	0.63340 0.64232 0.38545 0.07000
C 	C 	0.65055 0.64145 0.33503 -0.18700
H 	H 	0.60407 0.58699 0.37392 0.03600
H 	H 	0.62811 0.69928 0.48995 0.04600
C 	C 	0.57424 0.64956 0.52336 -0.18900
H 	H 	0.63235 0.62432 0.30850 0.05800
H 	H 	0.67910 0.62746 0.33680 0.07200
H 	H 	0.65315 0.67168 0.32054 0.05600
H 	H 	0.58177 0.62435 0.54707 0.05600
H 	H 	0.54307 0.64939 0.51572 0.05900
H 	H 	0.58134 0.67721 0.54400 0.05800
C 	C 	0.64916 0.91614 0.42557 -0.03800
C 	C 	0.63568 0.87749 0.41963 -0.09100
C 	C 	0.59730 0.86887 0.42995 0.06800
C 	C 	0.57307 0.89934 0.44584 -0.03700
C 	C 	0.58609 0.93846 0.44894 -0.09400
C 	C 	0.62442 0.94700 0.43727 0.06800
C 	C 	0.63908 0.98879 0.43582 -0.15300
H 	H 	0.67893 0.92245 0.41926 0.04500
H 	H 	0.54384 0.89273 0.45486 0.03700
C 	C 	0.58208 0.82744 0.42456 -0.18800
H 	H 	0.66727 0.99024 0.41806 0.05400
H 	H 	0.64259 0.00100 0.47377 0.05100
H 	H 	0.61945 0.00750 0.41397 0.02700
H 	H 	0.59436 0.80892 0.45407 0.07600
H 	H 	0.58944 0.81461 0.38811 0.05900
H 	H 	0.55056 0.82670 0.42730 0.05800
C 	C 	0.60732 0.16629 0.57275 -0.04300
C 	C 	0.61040 0.12524 0.57411 -0.09200
C 	C 	0.64241 0.10795 0.59729 0.07700
C 	C 	0.67386 0.13151 0.61030 -0.04500
C 	C 	0.67289 0.17230 0.60264 -0.09400
C 	C 	0.63767 0.19016 0.58959 0.07400
C 	C 	0.63164 0.23395 0.59526 -0.18900
H 	H 	0.58154 0.17967 0.55820 0.03400
H 	H 	0.69955 0.11783 0.62460 0.04500
C 	C 	0.64398 0.06423 0.60600 -0.19100
H 	H 	0.60111 0.24076 0.60124 0.06000
H 	H 	0.64058 0.24897 0.56147 0.08300
H 	H 	0.64781 0.24593 0.62767 0.06300
H 	H 	0.65228 0.04849 0.57172 0.07000
H 	H 	0.61590 0.05319 0.61787 0.07000
H 	H 	0.66512 0.05723 0.63546 0.05900
C 	C 	0.51332 0.99766 0.77806 -0.02400
C 	C 	0.49347 0.02610 0.80554 -0.10000
C 	C 	0.46775 0.05166 0.78154 0.06700
C 	C 	0.46317 0.04908 0.73011 -0.03500
C 	C 	0.48416 0.02161 0.70248 -0.10300
C 	C 	0.50839 0.99477 0.72680 0.07800
C 	C 	0.52984 0.96370 0.69824 -0.18900
H 	H 	0.53263 0.97768 0.79667 0.04800
H 	H 	0.44422 0.06935 0.71142 0.04700
C 	C 	0.44567 0.08205 0.81037 -0.18700
H 	H 	0.54082 0.94026 0.72268 0.05900
H 	H 	0.55438 0.97737 0.67989 0.07000
H 	H 	0.51089 0.94935 0.67010 0.05000
H 	H 	0.46548 0.10080 0.83285 0.05000
H 	H 	0.42551 0.06718 0.83491 0.06600
H 	H 	0.42896 0.10165 0.78585 0.05900
C 	C 	0.53645 0.00649 0.28182 -0.04900
C 	C 	0.51529 0.03501 0.30757 -0.08600
C 	C 	0.49305 0.06243 0.28128 0.06500
C 	C 	0.49047 0.05938 0.22978 -0.03600
C 	C 	0.51051 0.02998 0.20413 -0.08600
C 	C 	0.53421 0.00374 0.23021 0.05700
C 	C 	0.55640 0.97227 0.20338 -0.17600
H 	H 	0.55384 0.98572 0.30206 0.05700
H 	H 	0.47262 0.07978 0.20958 0.04900
C 	C 	0.47138 0.09441 0.30791 -0.18600
H 	H 	0.57271 0.95339 0.22919 0.05600
H 	H 	0.57697 0.98612 0.17847 0.06900
H 	H 	0.53665 0.95303 0.18147 0.04900
H 	H 	0.48993 0.10912 0.33620 0.04800
H 	H 	0.44626 0.08151 0.32586 0.06800
H 	H 	0.46120 0.11741 0.28229 0.05900
C 	C 	0.58195 0.90233 0.94094 -0.03800
C 	C 	0.59106 0.94218 0.93482 -0.09200
C 	C 	0.62593 0.95223 0.91274 0.07100
C 	C 	0.65252 0.92265 0.90223 -0.04100
C 	C 	0.64353 0.88277 0.90831 -0.08900
C 	C 	0.60721 0.87245 0.92596 0.07000
C 	C 	0.59515 0.82993 0.92905 -0.18900
H 	H 	0.55494 0.89451 0.95681 0.04000
H 	H 	0.68022 0.93074 0.88868 0.04700
C 	C 	0.63493 0.99416 0.89952 -0.15900
H 	H 	0.56375 0.82729 0.93206 0.06000
H 	H 	0.60857 0.81647 0.96196 0.08100
H 	H 	0.60343 0.81311 0.89552 0.06200
H 	H 	0.64324 0.01136 0.93312 0.05200
H 	H 	0.61008 0.00809 0.88104 0.03800
H 	H 	0.65892 0.99545 0.87353 0.05600
C 	C 	0.63743 0.19575 0.07970 -0.03800
C 	C 	0.67473 0.18077 0.08119 -0.09800
C 	C 	0.68151 0.14142 0.06503 0.07500
C 	C 	0.65071 0.11732 0.05163 -0.04200
C 	C 	0.61380 0.13265 0.04812 -0.08800
C 	C 	0.60697 0.17229 0.06196 0.06700
C 	C 	0.56746 0.18956 0.05849 -0.18800
H 	H 	0.63215 0.22572 0.09208 0.03500
H 	H 	0.65566 0.08659 0.04222 0.04400
C 	C 	0.72132 0.12493 0.06096 -0.18500
H 	H 	0.56789 0.22203 0.06428 0.05600
H 	H 	0.54926 0.17660 0.08693 0.07600
H 	H 	0.55463 0.18345 0.02152 0.05600
H 	H 	0.73301 0.11824 0.09806 0.06400
H 	H 	0.74018 0.14582 0.04222 0.03700
H 	H 	0.72154 0.09714 0.03875 0.05600
C 	C 	0.11993 0.63745 0.77580 -0.03800
C 	C 	0.12374 0.65706 0.82143 -0.08900
C 	C 	0.09721 0.65000 0.85850 0.06000
C 	C 	0.07158 0.61863 0.85257 -0.03400
C 	C 	0.07175 0.59510 0.80965 -0.09800
C 	C 	0.09344 0.60688 0.76927 0.07200
C 	C 	0.08971 0.58603 0.72000 -0.18800
H 	H 	0.13913 0.64435 0.74641 0.04700
H 	H 	0.05310 0.61115 0.88245 0.04400
C 	C 	0.09805 0.67383 0.90582 -0.18100
H 	H 	0.09932 0.60523 0.69001 0.05900
H 	H 	0.05957 0.57810 0.71178 0.05200
H 	H 	0.10743 0.55897 0.71988 0.07000
H 	H 	0.10356 0.70536 0.89846 0.04500
H 	H 	0.12077 0.66251 0.93071 0.03400
H 	H 	0.07036 0.67206 0.92478 0.05500
C 	C 	0.31567 0.62434 0.93473 -0.03400
C 	C 	0.32414 0.66048 0.91322 -0.09400
C 	C 	0.36242 0.67041 0.90481 0.07700
C 	C 	0.39170 0.64723 0.92483 -0.04500
C 	C 	0.38343 0.61174 0.94831 -0.08900
C 	C 	0.34499 0.59886 0.94997 0.06600
C 	C 	0.33487 0.55804 0.96640 -0.18200
H 	H 	0.28621 0.61607 0.93990 0.03400
H 	H 	0.42103 0.65670 0.92174 0.04700
C 	C 	0.37220 0.70537 0.87420 -0.19300
H 	H 	0.30536 0.54994 0.95469 0.05800
H 	H 	0.33667 0.55671 0.00711 0.06500
H 	H 	0.35408 0.53577 0.94968 0.07200
H 	H 	0.36716 0.73277 0.89566 0.07200
H 	H 	0.35431 0.70555 0.84010 0.05400
H 	H 	0.40250 0.70478 0.86315 0.05900
C 	C 	0.40626 0.87889 0.95134 -0.03700
C 	C 	0.39542 0.91799 0.96049 -0.09500
C 	C 	0.35868 0.93090 0.94596 0.07900
C 	C 	0.33263 0.90375 0.92556 -0.04300
C 	C 	0.34341 0.86459 0.91628 -0.08800
C 	C 	0.38090 0.85230 0.92803 0.06900
C 	C 	0.39391 0.81095 0.91656 -0.18900
H 	H 	0.43472 0.86930 0.96167 0.03500
H 	H 	0.30381 0.91313 0.91684 0.04700
C 	C 	0.34701 0.97348 0.95214 -0.19200
H 	H 	0.42547 0.80869 0.91760 0.05800
H 	H 	0.38413 0.80159 0.87909 0.05500
H 	H 	0.38243 0.79071 0.94421 0.07500
H 	H 	0.36934 0.99329 0.93813 0.07500
H 	H 	0.34211 0.98037 0.99156 0.07500
H 	H 	0.32029 0.97985 0.93127 0.06300
C 	C 	0.20663 0.77026 0.58483 -0.04700
C 	C 	0.23977 0.75795 0.56133 -0.09300
C 	C 	0.27332 0.75078 0.58928 0.08100
C 	C 	0.27274 0.75499 0.64072 -0.04700
C 	C 	0.23936 0.76662 0.66433 -0.09300
C 	C 	0.20603 0.77445 0.63622 0.08100
C 	C 	0.16952 0.78590 0.66093 -0.19700
H 	H 	0.18105 0.77592 0.56315 0.02500
H 	H 	0.29818 0.74883 0.66243 0.02500
C 	C 	0.30945 0.73777 0.56455 -0.19800
H 	H 	0.14607 0.79107 0.63384 0.05800
H 	H 	0.17378 0.81348 0.68287 0.07900
H 	H 	0.16052 0.76191 0.68534 0.08000
H 	H 	0.31676 0.75850 0.53508 0.08700
H 	H 	0.30561 0.70777 0.54830 0.08300
H 	H 	0.33395 0.73699 0.59094 0.06100
C 	C 	0.20917 0.73029 0.13896 -0.03200
C 	C 	0.24091 0.74621 0.16435 -0.09000
C 	C 	0.27231 0.75989 0.13788 0.06300
C 	C 	0.27064 0.75936 0.08632 -0.03400
C 	C 	0.23856 0.74427 0.06089 -0.08500
C 	C 	0.20756 0.72956 0.08735 0.06100
C 	C 	0.17274 0.71320 0.06082 -0.18100
H 	H 	0.18518 0.71960 0.15943 0.04400
H 	H 	0.29455 0.77025 0.06589 0.04800
C 	C 	0.30734 0.77579 0.16437 -0.18100
H 	H 	0.14913 0.70794 0.08650 0.05500
H 	H 	0.17987 0.68477 0.04242 0.04300
H 	H 	0.16227 0.73423 0.03287 0.04100
H 	H 	0.31604 0.75603 0.19466 0.04000
H 	H 	0.30132 0.80560 0.17975 0.04100
H 	H 	0.33179 0.77799 0.13924 0.05500
C 	C 	0.09038 0.59910 0.28279 -0.04100
C 	C 	0.07072 0.58688 0.32418 -0.09700
C 	C 	0.07489 0.60832 0.36905 0.07700
C 	C 	0.10162 0.63899 0.37285 -0.04400
C 	C 	0.12479 0.64784 0.33313 -0.09300
C 	C 	0.11801 0.62888 0.28695 0.07800
C 	C 	0.14093 0.63910 0.24254 -0.19300
H 	H 	0.08592 0.58361 0.24794 0.03100
H 	H 	0.10596 0.65455 0.40768 0.02000
C 	C 	0.05228 0.59760 0.41351 -0.19600
H 	H 	0.13324 0.62013 0.21015 0.06100
H 	H 	0.17179 0.63489 0.25039 0.07700
H 	H 	0.13542 0.67010 0.23230 0.08100
H 	H 	0.05878 0.56691 0.42429 0.08200
H 	H 	0.02135 0.60053 0.40524 0.08400
H 	H 	0.05912 0.61720 0.44561 0.05900
C 	C 	0.31871 0.63055 0.45234 -0.03300
C 	C 	0.32530 0.66323 0.42281 -0.09500
C 	C 	0.36284 0.67237 0.40918 0.07500
C 	C 	0.39343 0.65078 0.42880 -0.03800
C 	C 	0.38694 0.61918 0.46017 -0.08500
C 	C 	0.34923 0.60807 0.47055 0.06500
C 	C 	0.34138 0.57343 0.50266 -0.18800
H 	H 	0.28986 0.62344 0.46259 0.03300
H 	H 	0.42237 0.65903 0.42032 0.04900
C 	C 	0.37058 0.70573 0.37491 -0.19000
H 	H 	0.31109 0.56413 0.49964 0.05900
H 	H 	0.34788 0.58160 0.54161 0.05900
H 	H 	0.35906 0.54777 0.49155 0.06300
H 	H 	0.36815 0.73433 0.39504 0.07300
H 	H 	0.35006 0.70498 0.34337 0.05200
H 	H 	0.39964 0.70358 0.35961 0.05900
C 	C 	0.38061 0.85764 0.41075 -0.03900
C 	C 	0.34149 0.86573 0.40737 -0.09300
C 	C 	0.32736 0.90199 0.42565 0.07800
C 	C 	0.35288 0.93082 0.44320 -0.04400
C 	C 	0.39209 0.92305 0.44636 -0.08800
C 	C 	0.40603 0.88572 0.43123 0.06800
C 	C 	0.44780 0.87576 0.43627 -0.18900
H 	H 	0.39124 0.82944 0.39768 0.03300
H 	H 	0.34217 0.95945 0.45456 0.04700
C 	C 	0.28513 0.91035 0.42607 -0.19100
H 	H 	0.45268 0.84354 0.43242 0.05800
H 	H 	0.45914 0.88516 0.47302 0.05800
H 	H 	0.46395 0.89068 0.40728 0.08000
H 	H 	0.26929 0.88479 0.44030 0.07000
H 	H 	0.27478 0.91684 0.38829 0.07500
H 	H 	0.27855 0.93611 0.45023 0.06200
C 	C 	0.16149 0.36294 0.67626 -0.04200
C 	C 	0.17733 0.34006 0.71385 -0.09700
C 	C 	0.15924 0.33885 0.76005 0.07700
C 	C 	0.12644 0.36138 0.76792 -0.04600
C 	C 	0.11236 0.38630 0.73161 -0.09200
C 	C 	0.12919 0.38629 0.68482 0.07600
C 	C 	0.11319 0.41148 0.64425 -0.19300
H 	H 	0.17481 0.36320 0.64062 0.03500
H 	H 	0.11286 0.36098 0.80340 0.02100
C 	C 	0.17543 0.31500 0.80168 -0.19700
H 	H 	0.13003 0.40865 0.61020 0.05900
H 	H 	0.11347 0.44296 0.65601 0.06800
H 	H 	0.08350 0.40234 0.63509 0.07600
H 	H 	0.20606 0.32164 0.80687 0.08400
H 	H 	0.17138 0.28312 0.79371 0.08100
H 	H 	0.16142 0.32209 0.83704 0.05700
C 	C 	0.35302 0.42712 0.60933 -0.04500
C 	C 	0.36237 0.38735 0.60082 -0.08700
C 	C 	0.39644 0.37799 0.57593 0.06800
C 	C 	0.41925 0.40852 0.55806 -0.03900
C 	C 	0.41085 0.44819 0.56875 -0.09000
C 	C 	0.37777 0.45745 0.59582 0.07400
C 	C 	0.36895 0.49926 0.61149 -0.18900
H 	H 	0.32674 0.43458 0.62757 0.04600
H 	H 	0.44464 0.40130 0.53768 0.03700
C 	C 	0.40911 0.33586 0.56891 -0.18700
H 	H 	0.34495 0.50060 0.63750 0.05900
H 	H 	0.36070 0.51656 0.57887 0.06200
H 	H 	0.39396 0.51296 0.63056 0.05600
H 	H 	0.39193 0.32151 0.53897 0.07300
H 	H 	0.40606 0.31938 0.60349 0.06200
H 	H 	0.43957 0.33411 0.55877 0.05800
C 	C 	0.34389 0.13794 0.57726 -0.03600
C 	C 	0.35579 0.17699 0.58529 -0.09800
C 	C 	0.39475 0.18666 0.58015 0.07200
C 	C 	0.42070 0.15697 0.56641 -0.04000
C 	C 	0.40890 0.11749 0.56162 -0.09300
C 	C 	0.37032 0.10780 0.57009 0.07100
C 	C 	0.35717 0.06559 0.57364 -0.18200
H 	H 	0.31390 0.13062 0.57921 0.03000
H 	H 	0.45019 0.16453 0.56015 0.04200
C 	C 	0.40878 0.22828 0.58814 -0.18800
H 	H 	0.32911 0.06376 0.59166 0.05400
H 	H 	0.37744 0.04827 0.59634 0.03800
H 	H 	0.35400 0.05212 0.53630 0.06200
H 	H 	0.39820 0.24070 0.62338 0.06100
H 	H 	0.39887 0.24670 0.55717 0.07200
H 	H 	0.44038 0.22961 0.58997 0.05800
C 	C 	0.29545 0.22910 0.92339 -0.04000
C 	C 	0.27226 0.25468 0.95088 -0.08800
C 	C 	0.25559 0.28766 0.92798 0.06800
C 	C 	0.26469 0.29609 0.87938 -0.03900
C 	C 	0.28562 0.26922 0.85083 -0.09000
C 	C 	0.30293 0.23653 0.87381 0.07200
C 	C 	0.32986 0.20991 0.84623 -0.18800
H 	H 	0.30882 0.20414 0.94102 0.04800
H 	H 	0.25450 0.32315 0.86342 0.04100
C 	C 	0.22845 0.31433 0.95519 -0.18400
H 	H 	0.34974 0.19478 0.87192 0.05900
H 	H 	0.34751 0.22703 0.82075 0.05800
H 	H 	0.31341 0.18717 0.82510 0.07300
H 	H 	0.24479 0.33613 0.97800 0.06900
H 	H 	0.20960 0.29705 0.97903 0.05300
H 	H 	0.20975 0.33056 0.92914 0.05400
C 	C 	0.23479 0.26173 0.42342 -0.04600
C 	C 	0.26774 0.25606 0.45216 -0.09200
C 	C 	0.30343 0.25182 0.42935 0.08100
C 	C 	0.30542 0.25288 0.37788 -0.04700
C 	C 	0.27249 0.25866 0.34915 -0.09000
C 	C 	0.23681 0.26294 0.37196 0.08000
C 	C 	0.20098 0.26930 0.34163 -0.19700
H 	H 	0.20754 0.26511 0.44110 0.02600
H 	H 	0.33269 0.24963 0.36020 0.02700
C 	C 	0.33937 0.24614 0.45971 -0.19800
H 	H 	0.17520 0.26961 0.36469 0.05900
H 	H 	0.19746 0.24521 0.31377 0.08400
H 	H 	0.20254 0.29795 0.32277 0.08300
H 	H 	0.33818 0.21763 0.47891 0.08400
H 	H 	0.34267 0.27050 0.48726 0.08300
H 	H 	0.36512 0.24594 0.43660 0.06000
C 	C 	0.15969 0.40582 0.23571 -0.04500
C 	C 	0.12217 0.39184 0.23158 -0.08800
C 	C 	0.11535 0.35244 0.21609 0.06400
C 	C 	0.14633 0.32811 0.20394 -0.03700
C 	C 	0.18391 0.34175 0.21012 -0.10000
C 	C 	0.19056 0.38056 0.22834 0.07600
C 	C 	0.23023 0.39508 0.24126 -0.18900
H 	H 	0.16491 0.43627 0.24653 0.04700
H 	H 	0.14120 0.29840 0.19017 0.03300
C 	C 	0.07538 0.33626 0.21206 -0.18600
H 	H 	0.22946 0.42229 0.26453 0.05900
H 	H 	0.24564 0.40200 0.20722 0.06400
H 	H 	0.24621 0.37276 0.26261 0.04900
H 	H 	0.06028 0.34926 0.18004 0.07500
H 	H 	0.05951 0.34312 0.24609 0.05700
H 	H 	0.07540 0.30372 0.20695 0.05600
C 	C 	0.37317 0.43820 0.06869 -0.03800
C 	C 	0.41296 0.43542 0.07252 -0.09900
C 	C 	0.42990 0.39957 0.08756 0.07400
C 	C 	0.40659 0.36859 0.10269 -0.04500
C 	C 	0.36692 0.37260 0.10202 -0.09100
C 	C 	0.35002 0.40665 0.08197 0.07400
C 	C 	0.30735 0.40992 0.07575 -0.18900
H 	H 	0.36019 0.46515 0.05569 0.03900
H 	H 	0.41938 0.34158 0.11579 0.03200
C 	C 	0.47242 0.39351 0.08578 -0.19600
H 	H 	0.29944 0.43342 0.04959 0.05900
H 	H 	0.29443 0.41710 0.11175 0.07100
H 	H 	0.29513 0.38189 0.06084 0.06800
H 	H 	0.48764 0.41800 0.10505 0.07900
H 	H 	0.48146 0.39176 0.04692 0.07700
H 	H 	0.48123 0.36583 0.10390 0.06100
C 	C 	0.42138 0.14940 0.07164 -0.04000
C 	C 	0.41384 0.10903 0.07589 -0.09500
C 	C 	0.37969 0.09687 0.09811 0.07500
C 	C 	0.35183 0.12487 0.10953 -0.04500
C 	C 	0.35809 0.16514 0.10188 -0.09200
C 	C 	0.39466 0.17768 0.08711 0.07300
C 	C 	0.40626 0.22044 0.09000 -0.18900
H 	H 	0.44833 0.15889 0.05704 0.03900
H 	H 	0.32492 0.11512 0.12390 0.04500
C 	C 	0.37243 0.05422 0.10969 -0.18900
H 	H 	0.43776 0.22352 0.09187 0.05900
H 	H 	0.39506 0.23494 0.12369 0.06700
H 	H 	0.39570 0.23588 0.05683 0.08300
H 	H 	0.39782 0.04091 0.12752 0.04600
H 	H 	0.36463 0.03754 0.07549 0.05700
H 	H 	0.34863 0.05121 0.13570 0.05600
C 	C 	0.85792 0.09800 0.68384 -0.04300
C 	C 	0.86720 0.13804 0.68910 -0.08900
C 	C 	0.90367 0.14907 0.70766 0.06700
C 	C 	0.92975 0.11965 0.72178 -0.03800
C 	C 	0.92069 0.07958 0.71508 -0.09400
C 	C 	0.88493 0.06883 0.69372 0.07500
C 	C 	0.87538 0.02652 0.68055 -0.18800
H 	H 	0.82971 0.08947 0.67070 0.04600
H 	H 	0.95718 0.12797 0.73773 0.04000
C 	C 	0.91480 0.19184 0.71326 -0.18900
H 	H 	0.85041 0.02452 0.65494 0.05600
H 	H 	0.86829 0.01028 0.71421 0.06200
H 	H 	0.89944 0.01202 0.66161 0.04400
H 	H 	0.89977 0.20542 0.74487 0.07700
H 	H 	0.90748 0.20801 0.67926 0.06300
H 	H 	0.94594 0.19524 0.72001 0.06100
C 	C 	0.88396 0.88364 0.85816 -0.03800
C 	C 	0.90306 0.88227 0.81326 -0.08300
C 	C 	0.89285 0.85331 0.77748 0.06200
C 	C 	0.86052 0.82985 0.78430 -0.03400
C 	C 	0.83917 0.83381 0.82726 -0.09300
C 	C 	0.85260 0.85889 0.86593 0.07100
C 	C 	0.83305 0.86038 0.91482 -0.18700
H 	H 	0.89247 0.90508 0.88629 0.04800
H 	H 	0.85115 0.80958 0.75531 0.04400
C 	C 	0.91502 0.84879 0.73078 -0.18200
H 	H 	0.85235 0.87238 0.94426 0.06000
H 	H 	0.82438 0.83041 0.92588 0.05000
H 	H 	0.80752 0.87956 0.91236 0.07200
H 	H 	0.94607 0.85155 0.73863 0.04600
H 	H 	0.90607 0.87178 0.70450 0.04300
H 	H 	0.91008 0.81941 0.71317 0.05500
C 	C 	0.14850 0.87215 0.87253 -0.04300
C 	C 	0.14703 0.84192 0.83654 -0.09500
C 	C 	0.11399 0.83845 0.80579 0.07400
C 	C 	0.08785 0.86983 0.80414 -0.04000
C 	C 	0.09217 0.90239 0.83612 -0.09200
C 	C 	0.12107 0.90219 0.87289 0.07900
C 	C 	0.12301 0.93408 0.91220 -0.19500
H 	H 	0.17193 0.87316 0.89906 0.04200
H 	H 	0.06420 0.86888 0.77795 0.02700
C 	C 	0.10505 0.80100 0.77736 -0.19200
H 	H 	0.14467 0.92736 0.94113 0.06300
H 	H 	0.09507 0.93686 0.93036 0.08300
H 	H 	0.13066 0.96260 0.89573 0.05900
H 	H 	0.10949 0.77500 0.80095 0.07900
H 	H 	0.12320 0.79887 0.74463 0.07700
H 	H 	0.07484 0.80027 0.76446 0.05900
C 	C 	0.18108 0.11004 0.70025 -0.04200
C 	C 	0.17396 0.15072 0.70071 -0.08800
C 	C 	0.13922 0.16521 0.71940 0.06800
C 	C 	0.11295 0.13881 0.73927 -0.04100
C 	C 	0.12032 0.09820 0.73910 -0.09100
C 	C 	0.15417 0.08360 0.71809 0.07400
C 	C 	0.16196 0.03992 0.71502 -0.18900
H 	H 	0.20777 0.09891 0.68620 0.04400
H 	H 	0.08667 0.14987 0.75460 0.03200
C 	C 	0.13024 0.20863 0.71904 -0.18900
H 	H 	0.18638 0.03316 0.69090 0.05700
H 	H 	0.13679 0.02395 0.69940 0.06700
H 	H 	0.16883 0.02876 0.75224 0.07000
H 	H 	0.13694 0.22125 0.68284 0.05800
H 	H 	0.14719 0.22406 0.74832 0.07600
H 	H 	0.09958 0.21421 0.72572 0.05900
C 	C 	0.04167 0.96562 0.50843 -0.03900
C 	C 	0.02075 0.99246 0.48015 -0.08100
C 	C 	0.99590 0.01932 0.50339 0.05800
C 	C 	0.99069 0.01734 0.55424 -0.04000
C 	C 	0.01085 0.98981 0.58237 -0.08500
C 	C 	0.03658 0.96372 0.55936 0.06700
C 	C 	0.05857 0.93384 0.58882 -0.18600
H 	H 	0.06104 0.94536 0.49057 0.04100
H 	H 	0.97128 0.03764 0.57212 0.04700
C 	C 	0.97433 0.04959 0.47405 -0.18300
H 	H 	0.07315 0.91210 0.56463 0.05600
H 	H 	0.03906 0.91725 0.61253 0.04800
H 	H 	0.08051 0.94901 0.61217 0.06900
H 	H 	0.95044 0.03517 0.45337 0.06200
H 	H 	0.99349 0.06404 0.44781 0.04500
H 	H 	0.96241 0.07306 0.49824 0.05700
C 	C 	0.97420 0.98576 0.99957 -0.02100
C 	C 	0.00613 0.00363 0.97897 -0.09600
C 	C 	0.03335 0.02266 0.01037 0.05900
C 	C 	0.03116 0.01814 0.06142 -0.04500
C 	C 	0.00012 0.99866 0.08179 -0.09100
C 	C 	0.97011 0.98479 0.05062 0.07500
C 	C 	0.93365 0.96904 0.07125 -0.19100
H 	H 	0.95252 0.97233 0.97586 0.05100
H 	H 	0.05353 0.03011 0.08534 0.04100
C 	C 	0.06443 0.04801 0.99013 -0.17100
H 	H 	0.91042 0.96828 0.04296 0.06100
H 	H 	0.92376 0.98815 0.10195 0.06700
H 	H 	0.93816 0.93858 0.08424 0.05700
H 	H 	0.05366 0.06519 0.95845 0.03200
H 	H 	0.08867 0.02923 0.97858 0.04800
H 	H 	0.07511 0.06957 0.01835 0.04900
C 	C 	0.92397 0.11520 0.20326 -0.03500
C 	C 	0.90994 0.07848 0.21744 -0.09400
C 	C 	0.87041 0.07331 0.22355 0.07100
C 	C 	0.84533 0.10406 0.21178 -0.03800
C 	C 	0.85927 0.14024 0.19567 -0.08900
C 	C 	0.89890 0.14624 0.19251 0.06700
C 	C 	0.91450 0.18521 0.17638 -0.18900
H 	H 	0.95438 0.11928 0.19936 0.04800
H 	H 	0.81487 0.09977 0.21484 0.04200
C 	C 	0.85480 0.03507 0.24209 -0.19000
H 	H 	0.94613 0.18517 0.17588 0.06200
H 	H 	0.90545 0.20905 0.20208 0.07500
H 	H 	0.90382 0.19170 0.13872 0.04900
H 	H 	0.87120 0.02565 0.27513 0.06500
H 	H 	0.85654 0.01189 0.21291 0.06200
H 	H 	0.82454 0.03807 0.25276 0.05800
C 	C 	0.85078 0.91473 0.30800 -0.04500
C 	C 	0.88800 0.90042 0.31417 -0.09100
C 	C 	0.89369 0.86030 0.32596 0.06800
C 	C 	0.86197 0.83599 0.33357 -0.03800
C 	C 	0.82482 0.85007 0.32575 -0.09400
C 	C 	0.81934 0.88948 0.31067 0.07600
C 	C 	0.78041 0.90465 0.29598 -0.18900
H 	H 	0.84631 0.94543 0.29922 0.04400
H 	H 	0.86626 0.80579 0.34468 0.04100
C 	C 	0.93320 0.84303 0.32997 -0.18900
H 	H 	0.78245 0.93248 0.27535 0.05900
H 	H 	0.76343 0.91070 0.32929 0.06700
H 	H 	0.76533 0.88305 0.27146 0.05200
H 	H 	0.94761 0.85407 0.36418 0.08100
H 	H 	0.95021 0.85088 0.29758 0.06300
H 	H 	0.93234 0.81036 0.33124 0.06200
C 	C 	0.10622 0.88186 0.27458 -0.04100
C 	C 	0.09292 0.89614 0.31977 -0.09600
C 	C 	0.10650 0.87943 0.36401 0.07500
C 	C 	0.13491 0.85039 0.36231 -0.04100
C 	C 	0.14973 0.83774 0.31730 -0.09500
C 	C 	0.13452 0.85267 0.27292 0.07800
C 	C 	0.14957 0.83895 0.22391 -0.19500
H 	H 	0.09537 0.89437 0.24072 0.03300
H 	H 	0.14649 0.83861 0.39622 0.02600
C 	C 	0.09296 0.89443 0.41317 -0.19600
H 	H 	0.13400 0.85276 0.19276 0.06300
H 	H 	0.14625 0.80656 0.21965 0.08500
H 	H 	0.18013 0.84685 0.22132 0.07500
H 	H 	0.06143 0.89305 0.41459 0.08400
H 	H 	0.10266 0.92526 0.41927 0.07300
H 	H 	0.10444 0.87657 0.44386 0.05900
C 	C 	0.16227 0.10865 0.17616 -0.04200
C 	C 	0.16159 0.14943 0.18595 -0.09100
C 	C 	0.13176 0.16559 0.21428 0.07100
C 	C 	0.10672 0.14027 0.23819 -0.04200
C 	C 	0.10921 0.09938 0.23102 -0.08900
C 	C 	0.13551 0.08369 0.19718 0.07200
C 	C 	0.13564 0.04033 0.18395 -0.18700
H 	H 	0.18427 0.09614 0.15322 0.04200
H 	H 	0.08521 0.15244 0.26218 0.03400
C 	C 	0.12655 0.20955 0.21946 -0.18900
H 	H 	0.15243 0.03426 0.15043 0.05600
H 	H 	0.10619 0.02968 0.17622 0.06000
H 	H 	0.14844 0.02347 0.21467 0.06900
H 	H 	0.13343 0.22433 0.18466 0.06000
H 	H 	0.14524 0.22129 0.24964 0.07600
H 	H 	0.09657 0.21702 0.22805 0.05700
