data_crystal

_cell_length_a 25.11623
_cell_length_b 21.41022
_cell_length_c 52.25135
_cell_angle_alpha 90.58440
_cell_angle_beta  91.21401
_cell_angle_gamma 110.99849

_symmetry_space_group_name_	'P 1'
_symmetry_space_group_name_H-M	'P 1'

loop_
_symmetry_equiv_pos_as_xyz
  x,y,z

loop_
_atom_site_label
_atom_site_type_symbol
_atom_site_fract_x
_atom_site_fract_y
_atom_site_fract_z
_atom_site_charge
Ni	Ni	0.69890 0.31924 0.88978 1.09800
O 	O 	0.63626 0.25535 0.86644 -0.70500
Ni	Ni	0.56587 0.24874 0.88527 1.10000
O 	O 	0.76088 0.31209 0.86628 -0.36100
O 	O 	0.72889 0.19851 0.86997 -0.39800
O 	O 	0.69649 0.39554 0.86708 -0.38100
Ni	Ni	0.64027 0.16602 0.86499 1.07200
O 	O 	0.70390 0.41999 0.93950 -0.41100
O 	O 	0.63676 0.15474 0.90373 -0.41200
O 	O 	0.50897 0.18836 0.85923 -0.36600
O 	O 	0.62880 0.30618 0.91017 -0.70100
O 	O 	0.76075 0.38658 0.91256 -0.37600
O 	O 	0.50042 0.26408 0.90439 -0.36200
O 	O 	0.54727 0.37665 0.90411 -0.40600
Ni	Ni	0.62690 0.39350 0.92079 1.07200
H 	H 	0.63555 0.27312 0.84907 0.17200
H 	H 	0.63054 0.28074 0.92568 0.15400
C 	C 	0.58862 0.14090 0.91561 0.29500
O 	O 	0.65932 0.45730 0.89150 -0.38700
C 	C 	0.76452 0.25399 0.86030 0.28400
C 	C 	0.51609 0.13425 0.84997 0.28500
C 	C 	0.69878 0.45388 0.87614 0.29600
C 	C 	0.50292 0.32485 0.91034 0.27800
C 	C 	0.75299 0.43180 0.92800 0.29200
O 	O 	0.55039 0.16580 0.90777 -0.36700
O 	O 	0.55452 0.11230 0.86050 -0.39600
Ni	Ni	0.63746 0.32284 0.57011 1.10100
O 	O 	0.70397 0.33330 0.54634 -0.69800
Ni	Ni	0.76028 0.31464 0.57002 1.10000
O 	O 	0.59798 0.36973 0.54630 -0.36900
O 	O 	0.68129 0.45770 0.54291 -0.40400
O 	O 	0.58960 0.23449 0.55154 -0.36800
Ni	Ni	0.74003 0.41872 0.52943 1.07300
O 	O 	0.56914 0.19612 0.59992 -0.39300
O 	O 	0.79968 0.48079 0.55486 -0.38100
O 	O 	0.83073 0.33712 0.54728 -0.37100
O 	O 	0.69079 0.29688 0.59281 -0.70100
O 	O 	0.57311 0.30462 0.59533 -0.37100
O 	O 	0.80217 0.28265 0.59812 -0.35600
O 	O 	0.72843 0.18293 0.60044 -0.39600
Ni	Ni	0.65263 0.20170 0.59952 1.07400
H 	H 	0.69229 0.29801 0.53281 0.15300
H 	H 	0.69996 0.32398 0.60887 0.17000
C 	C 	0.82460 0.46012 0.57353 0.29600
O 	O 	0.64531 0.17420 0.56188 -0.41300
C 	C 	0.62699 0.42841 0.53684 0.28000
C 	C 	0.83998 0.37557 0.52683 0.28500
C 	C 	0.60801 0.18553 0.54648 0.29100
C 	C 	0.77658 0.22627 0.60995 0.28400
C 	C 	0.55051 0.24515 0.60579 0.28600
O 	O 	0.79455 0.40782 0.58655 -0.38100
O 	O 	0.79735 0.38375 0.51371 -0.41200
Ni	Ni	0.02204 0.97650 0.75795 1.09800
O 	O 	0.03511 0.90424 0.73607 -0.71500
Ni	Ni	0.06934 0.95501 0.70490 1.09800
O 	O 	0.98268 0.90999 0.78586 -0.34400
O 	O 	0.91815 0.84593 0.75629 -0.39500
O 	O 	0.09825 0.99525 0.77804 -0.35900
Ni	Ni	0.96487 0.82931 0.72644 1.07700
O 	O 	0.09904 0.12062 0.77285 -0.39300
O 	O 	0.92365 0.87559 0.70317 -0.37200
O 	O 	0.07652 0.87691 0.68423 -0.35900
O 	O 	0.05321 0.02814 0.72602 -0.69400
O 	O 	0.00762 0.05011 0.77799 -0.36900
O 	O 	0.12139 0.01893 0.67900 -0.35400
O 	O 	0.15342 0.12017 0.69978 -0.38500
Ni	Ni	0.12021 0.10621 0.73627 1.07600
H 	H 	0.06252 0.88715 0.74462 0.17000
H 	H 	0.02420 0.04312 0.71774 0.15700
C 	C 	0.94933 0.93239 0.69169 0.27700
O 	O 	0.16166 0.04427 0.74672 -0.41400
C 	C 	0.93891 0.85575 0.77982 0.28400
C 	C 	0.03099 0.82220 0.67951 0.28600
C 	C 	0.14846 0.00842 0.76752 0.28400
C 	C 	0.16381 0.07393 0.68619 0.28700
C 	C 	0.04626 0.11043 0.77945 0.28800
O 	O 	0.99981 0.94515 0.68227 -0.36600
O 	O 	0.99904 0.78947 0.69838 -0.38400
Ni	Ni	0.26048 0.68858 0.39453 1.10100
O 	O 	0.32108 0.72562 0.36726 -0.70300
Ni	Ni	0.38836 0.71412 0.38426 1.10400
O 	O 	0.20033 0.70788 0.37226 -0.35500
O 	O 	0.25825 0.81609 0.36508 -0.39400
O 	O 	0.24185 0.59951 0.37497 -0.37900
Ni	Ni	0.34187 0.82024 0.36042 1.07100
O 	O 	0.25979 0.62949 0.45237 -0.41500
O 	O 	0.35890 0.84770 0.39816 -0.40800
O 	O 	0.44180 0.74490 0.35453 -0.37100
O 	O 	0.33115 0.68964 0.41312 -0.70100
O 	O 	0.19884 0.64393 0.42096 -0.36700
O 	O 	0.44395 0.67680 0.40200 -0.36600
O 	O 	0.37080 0.57839 0.40784 -0.41300
Ni	Ni	0.31449 0.60446 0.43021 1.07200
H 	H 	0.31117 0.69912 0.35106 0.16900
H 	H 	0.34141 0.72545 0.42643 0.15700
C 	C 	0.40547 0.84676 0.40979 0.28700
O 	O 	0.24561 0.53939 0.41036 -0.39600
C 	C 	0.21268 0.76298 0.35893 0.27800
C 	C 	0.45452 0.80590 0.34553 0.28700
C 	C 	0.23589 0.54236 0.38574 0.30700
C 	C 	0.42562 0.61428 0.40939 0.27800
C 	C 	0.20807 0.62381 0.44410 0.29800
O 	O 	0.43043 0.80569 0.40190 -0.37000
O 	O 	0.42776 0.84582 0.35361 -0.39500
Ni	Ni	0.31829 0.65254 0.05835 1.10000
O 	O 	0.25103 0.64177 0.03356 -0.70100
Ni	Ni	0.21382 0.69931 0.05138 1.10000
O 	O 	0.34286 0.58186 0.04017 -0.35700
O 	O 	0.25368 0.50304 0.03623 -0.39800
O 	O 	0.37351 0.71868 0.03368 -0.36600
Ni	Ni	0.19497 0.55019 0.03160 1.06700
O 	O 	0.40977 0.78221 0.07732 -0.40100
O 	O 	0.18695 0.54607 0.07024 -0.41000
O 	O 	0.14980 0.68584 0.02501 -0.37500
O 	O 	0.28108 0.71038 0.07604 -0.70000
O 	O 	0.38434 0.67048 0.08420 -0.36800
O 	O 	0.18948 0.76970 0.06986 -0.35400
O 	O 	0.27799 0.85037 0.07174 -0.39700
Ni	Ni	0.33653 0.80271 0.07505 1.07300
H 	H 	0.26324 0.65855 0.01626 0.15400
H 	H 	0.26966 0.69569 0.09365 0.17000
C 	C 	0.15443 0.57313 0.08159 0.29700
O 	O 	0.33566 0.80025 0.03626 -0.42000
C 	C 	0.30628 0.52864 0.02843 0.28000
C 	C 	0.12054 0.62594 0.01548 0.28700
C 	C 	0.36563 0.77135 0.02401 0.29100
C 	C 	0.22581 0.82554 0.07998 0.28800
C 	C 	0.41511 0.73283 0.09066 0.28900
O 	O 	0.15617 0.63337 0.07539 -0.35800
O 	O 	0.12274 0.57225 0.02697 -0.40800
Ni	Ni	0.95355 0.03027 0.24264 1.10000
O 	O 	0.93798 0.10434 0.22317 -0.70500
Ni	Ni	0.89951 0.05561 0.19118 1.10000
O 	O 	0.99360 0.09558 0.27213 -0.33900
O 	O 	0.05586 0.16595 0.24491 -0.39500
O 	O 	0.87882 0.00540 0.26327 -0.35700
Ni	Ni	0.00944 0.17212 0.21228 1.06900
O 	O 	0.88771 0.87834 0.25063 -0.39300
O 	O 	0.03838 0.10420 0.19522 -0.40300
O 	O 	0.88497 0.13502 0.17520 -0.36100
O 	O 	0.92239 0.98219 0.20874 -0.68700
O 	O 	0.97402 0.95791 0.26043 -0.35900
O 	O 	0.84191 0.99504 0.16463 -0.34600
O 	O 	0.82059 0.89033 0.17997 -0.37800
Ni	Ni	0.86038 0.89774 0.21560 1.07900
H 	H 	0.91365 0.12400 0.23249 0.17500
H 	H 	0.95306 0.97223 0.20004 0.16600
C 	C 	0.01635 0.07440 0.17336 0.27300
O 	O 	0.81738 0.95293 0.23013 -0.42000
C 	C 	0.03283 0.15399 0.26750 0.27400
C 	C 	0.92833 0.19228 0.17307 0.28300
C 	C 	0.82627 0.97440 0.25392 0.29900
C 	C 	0.80370 0.93728 0.17092 0.28900
C 	C 	0.94205 0.89492 0.25692 0.28500
O 	O 	0.96471 0.06982 0.16593 -0.34700
O 	O 	0.98100 0.19513 0.17805 -0.38500
C 	C 	0.07977 0.44092 0.12957 -0.03600
C 	C 	0.02203 0.42761 0.12271 0.01200
C 	C 	0.00774 0.47023 0.10573 -0.04900
C 	C 	0.05121 0.52206 0.09368 0.02300
C 	C 	0.10928 0.53144 0.09874 -0.07600
C 	C 	0.12327 0.49372 0.11801 0.02100
C 	C 	0.97656 0.36646 0.13236 0.03400
C 	C 	0.94829 0.46003 0.10037 0.11600
C 	C 	0.18233 0.50981 0.12613 0.08400
C 	C 	0.95420 0.36724 0.15685 -0.03700
C 	C 	0.92539 0.30620 0.16903 0.01600
C 	C 	0.92141 0.24537 0.15711 -0.06800
C 	C 	0.93208 0.24472 0.13076 0.02700
C 	C 	0.96096 0.30545 0.11844 -0.03900
C 	C 	0.96264 0.43040 0.16976 0.10700
C 	C 	0.91730 0.18145 0.11698 0.09900
C 	C 	0.90216 0.30591 0.19417 0.07700
C 	C 	0.97667 0.30509 0.09193 0.10700
C 	C 	0.09440 0.39930 0.14810 0.09800
C 	C 	0.03602 0.56506 0.07598 0.09400
N 	N 	0.88350 0.30565 0.21425 -0.09900
N 	N 	0.96942 0.48090 0.18005 -0.10000
N 	N 	0.90549 0.13087 0.10601 -0.09100
N 	N 	0.98926 0.30491 0.07076 -0.10800
N 	N 	0.90083 0.45183 0.09611 -0.10900
N 	N 	0.02362 0.59933 0.06193 -0.10100
N 	N 	0.22947 0.52268 0.13260 -0.10600
N 	N 	0.10596 0.36599 0.16288 -0.11300
C 	C 	0.64516 0.85521 0.16771 -0.03400
C 	C 	0.63380 0.84334 0.14122 0.02200
C 	C 	0.67855 0.87009 0.12391 -0.03700
C 	C 	0.73486 0.90379 0.13336 0.02600
C 	C 	0.74518 0.91708 0.15991 -0.07100
C 	C 	0.69878 0.89932 0.17643 0.01600
C 	C 	0.57392 0.80819 0.13152 0.02300
C 	C 	0.66657 0.86362 0.09654 0.10200
C 	C 	0.70383 0.93426 0.20071 0.08000
C 	C 	0.53292 0.83862 0.13432 -0.03700
C 	C 	0.47663 0.80516 0.12530 0.02300
C 	C 	0.46373 0.74814 0.10920 -0.07900
C 	C 	0.50382 0.71583 0.10725 0.02500
C 	C 	0.55790 0.74433 0.11961 -0.03800
C 	C 	0.54926 0.90544 0.14543 0.10100
C 	C 	0.49035 0.65480 0.09207 0.09600
C 	C 	0.43200 0.82991 0.13215 0.05700
C 	C 	0.59705 0.70837 0.11998 0.10200
C 	C 	0.60180 0.82207 0.18595 0.10300
C 	C 	0.78184 0.92465 0.11589 0.10300
N 	N 	0.39636 0.84962 0.13761 -0.12400
N 	N 	0.56234 0.95875 0.15430 -0.10500
N 	N 	0.47968 0.60609 0.07994 -0.10100
N 	N 	0.62834 0.67972 0.12028 -0.10600
N 	N 	0.65693 0.85840 0.07470 -0.10900
N 	N 	0.81934 0.94132 0.10193 -0.09000
N 	N 	0.70689 0.96249 0.22001 -0.10000
N 	N 	0.56718 0.79565 0.20052 -0.10300
C 	C 	0.17853 0.91317 0.13343 -0.03500
C 	C 	0.15490 0.95326 0.11935 0.02200
C 	C 	0.15909 0.95574 0.09248 -0.03500
C 	C 	0.18265 0.91410 0.07955 0.02500
C 	C 	0.20304 0.87088 0.09354 -0.07300
C 	C 	0.20245 0.87180 0.12052 0.01900
C 	C 	0.11901 0.98565 0.13238 0.02400
C 	C 	0.13809 0.00024 0.07816 0.09800
C 	C 	0.22595 0.82970 0.13492 0.07000
C 	C 	0.14318 0.05253 0.14130 -0.03800
C 	C 	0.10864 0.08331 0.15310 0.02300
C 	C 	0.05023 0.04630 0.15689 -0.06900
C 	C 	0.02554 0.98070 0.14636 0.00600
C 	C 	0.06024 0.94994 0.13484 -0.03200
C 	C 	0.20358 0.08950 0.13839 0.10200
C 	C 	0.96441 0.94562 0.14636 0.09500
C 	C 	0.13245 0.15381 0.16016 0.08900
C 	C 	0.03546 0.88121 0.12550 0.09800
C 	C 	0.17713 0.91361 0.16116 0.10400
C 	C 	0.18529 0.91506 0.05184 0.09200
N 	N 	0.15144 0.21007 0.16578 -0.10500
N 	N 	0.25178 0.11895 0.13605 -0.10700
N 	N 	0.91566 0.91694 0.14605 -0.10400
N 	N 	0.01579 0.82641 0.11805 -0.10600
N 	N 	0.12131 0.03577 0.06677 -0.10700
N 	N 	0.18740 0.91578 0.02973 -0.10500
N 	N 	0.24472 0.79608 0.14640 -0.11000
N 	N 	0.17597 0.91400 0.18329 -0.10200
C 	C 	0.68942 0.86853 0.28559 -0.03300
C 	C 	0.67341 0.91807 0.29759 0.02100
C 	C 	0.71026 0.98570 0.29734 -0.02600
C 	C 	0.76232 0.00396 0.28433 0.01600
C 	C 	0.77719 0.95462 0.27134 -0.06400
C 	C 	0.74096 0.88656 0.27244 0.02600
C 	C 	0.61780 0.89834 0.31091 0.02400
C 	C 	0.69436 0.03644 0.31024 0.09800
C 	C 	0.75578 0.83508 0.25942 0.07800
C 	C 	0.61494 0.87907 0.33671 -0.03700
C 	C 	0.56153 0.84792 0.34793 0.02400
C 	C 	0.51063 0.83743 0.33352 -0.06800
C 	C 	0.51357 0.86012 0.30814 0.01900
C 	C 	0.56713 0.89054 0.29684 -0.03500
C 	C 	0.66711 0.89030 0.35156 0.10300
C 	C 	0.46153 0.85102 0.29351 0.07500
C 	C 	0.55900 0.82635 0.37426 0.09300
C 	C 	0.57018 0.91259 0.27058 0.10500
C 	C 	0.65235 0.79879 0.28658 0.10500
C 	C 	0.79956 0.07362 0.28364 0.09100
N 	N 	0.55722 0.80908 0.39524 -0.10200
N 	N 	0.70878 0.89930 0.36337 -0.10400
N 	N 	0.41999 0.84375 0.28183 -0.11200
N 	N 	0.57270 0.93016 0.24962 -0.10100
N 	N 	0.68161 0.07688 0.32055 -0.10600
N 	N 	0.82931 0.12919 0.28307 -0.10300
N 	N 	0.76700 0.79360 0.24902 -0.12400
N 	N 	0.62272 0.74321 0.28739 -0.10300
C 	C 	0.20326 0.40553 0.33477 -0.03700
C 	C 	0.14780 0.36373 0.34130 0.02300
C 	C 	0.12278 0.37821 0.36340 -0.03800
C 	C 	0.15135 0.43703 0.37789 0.02600
C 	C 	0.20647 0.47961 0.37109 -0.07800
C 	C 	0.23285 0.46301 0.34984 0.02400
C 	C 	0.11404 0.30726 0.32384 0.02300
C 	C 	0.06729 0.33287 0.37099 0.10100
C 	C 	0.29055 0.50489 0.34361 0.07800
C 	C 	0.12013 0.24446 0.32571 -0.03800
C 	C 	0.09177 0.19291 0.30779 0.02700
C 	C 	0.05607 0.20365 0.28846 -0.07600
C 	C 	0.04705 0.26494 0.28770 0.02500
C 	C 	0.07671 0.31709 0.30510 -0.03800
C 	C 	0.15601 0.23325 0.34590 0.10300
C 	C 	0.00736 0.27431 0.26890 0.04100
C 	C 	0.10078 0.12974 0.30870 0.09300
C 	C 	0.06960 0.38127 0.30351 0.10300
C 	C 	0.22949 0.38970 0.31238 0.10200
C 	C 	0.12307 0.45513 0.39911 0.09000
N 	N 	0.10800 0.07935 0.30939 -0.09500
N 	N 	0.18467 0.22439 0.36202 -0.10800
N 	N 	0.97570 0.28170 0.25389 -0.11100
N 	N 	0.06400 0.43251 0.30227 -0.10300
N 	N 	0.02301 0.29665 0.37702 -0.10900
N 	N 	0.10034 0.46941 0.41599 -0.10600
N 	N 	0.33659 0.53835 0.33867 -0.11200
N 	N 	0.25036 0.37698 0.29450 -0.10600
C 	C 	0.09709 0.72531 0.30684 -0.03900
C 	C 	0.07955 0.78058 0.30952 0.02600
C 	C 	0.10518 0.82984 0.32867 -0.04000
C 	C 	0.14782 0.82347 0.34527 0.02200
C 	C 	0.16797 0.77036 0.34154 -0.07700
C 	C 	0.14273 0.72154 0.32213 0.02100
C 	C 	0.03534 0.78842 0.29163 0.00400
C 	C 	0.08730 0.88686 0.33139 0.10200
C 	C 	0.16427 0.66797 0.31767 0.08100
C 	C 	0.98005 0.77773 0.30036 -0.01700
C 	C 	0.94514 0.80674 0.28736 0.01900
C 	C 	0.96477 0.84332 0.26497 -0.06200
C 	C 	0.01453 0.84136 0.25358 0.00300
C 	C 	0.05094 0.81596 0.26730 -0.02600
C 	C 	0.96025 0.73932 0.32321 0.10400
C 	C 	0.02919 0.86794 0.22819 0.06700
C 	C 	0.89058 0.80167 0.29760 0.10200
C 	C 	0.10544 0.82098 0.25699 0.10000
C 	C 	0.06790 0.67217 0.28847 0.10300
C 	C 	0.16894 0.86972 0.36682 0.09000
N 	N 	0.84704 0.79764 0.30579 -0.09600
N 	N 	0.94451 0.70865 0.34145 -0.10100
N 	N 	0.04082 0.88918 0.20794 -0.11600
N 	N 	0.14895 0.82496 0.24878 -0.10400
N 	N 	0.07289 0.93223 0.33355 -0.10100
N 	N 	0.18573 0.90663 0.38401 -0.10300
N 	N 	0.18143 0.62524 0.31414 -0.10200
N 	N 	0.04458 0.62980 0.27380 -0.10500
C 	C 	0.54964 0.02474 0.50745 -0.06100
C 	C 	0.52102 0.04360 0.48737 0.02200
C 	C 	0.52255 0.10959 0.48625 -0.05800
C 	C 	0.55227 0.15642 0.50516 0.01800
C 	C 	0.58038 0.13746 0.52551 -0.08200
C 	C 	0.57918 0.07139 0.52645 0.01800
C 	C 	0.49126 0.99485 0.46705 0.02400
H 	H 	0.50099 0.12466 0.47064 0.05200
H 	H 	0.55326 0.20732 0.50406 0.03900
H 	H 	0.60027 0.05583 0.54209 0.04000
H 	H 	0.54879 0.97386 0.50838 0.05300
C 	C 	0.52271 0.97287 0.44963 -0.06000
C 	C 	0.49465 0.92513 0.43077 0.01700
C 	C 	0.43476 0.89858 0.42923 -0.08300
C 	C 	0.40325 0.92134 0.44645 0.01300
C 	C 	0.43144 0.96936 0.46530 -0.06000
H 	H 	0.56891 0.99278 0.45073 0.05500
H 	H 	0.51946 0.90914 0.41723 0.05100
H 	H 	0.35704 0.90122 0.44547 0.03700
H 	H 	0.40686 0.98619 0.47870 0.05500
C 	C 	0.95635 0.44274 0.47917 -0.02500
C 	C 	0.00422 0.47092 0.49555 -0.01700
C 	C 	0.99922 0.45916 0.52194 -0.01000
C 	C 	0.94605 0.42273 0.53199 -0.00300
C 	C 	0.89725 0.39935 0.51581 -0.06300
C 	C 	0.90314 0.40719 0.48923 0.00400
C 	C 	0.05881 0.51502 0.48515 0.04100
H 	H 	0.03605 0.48011 0.53473 0.03700
H 	H 	0.94221 0.41646 0.55250 0.05400
H 	H 	0.86619 0.38755 0.47643 0.04600
H 	H 	0.96012 0.44990 0.45870 0.05400
C 	C 	0.10751 0.49765 0.48724 -0.06600
C 	C 	0.15746 0.53555 0.47500 0.02600
C 	C 	0.15897 0.59086 0.46036 -0.08200
C 	C 	0.11105 0.60998 0.45927 0.02700
C 	C 	0.06130 0.57242 0.47171 -0.06400
H 	H 	0.10611 0.45361 0.49766 0.05500
H 	H 	0.19410 0.52016 0.47596 0.02800
H 	H 	0.11193 0.65311 0.44838 0.04300
H 	H 	0.02424 0.58699 0.47040 0.05700
C 	C 	0.51635 0.46869 0.49733 -0.06200
C 	C 	0.55010 0.50895 0.47839 0.02300
C 	C 	0.60916 0.52375 0.47900 -0.06300
C 	C 	0.63434 0.49830 0.49831 0.01500
C 	C 	0.60059 0.45754 0.51719 -0.09300
C 	C 	0.54146 0.44299 0.51662 0.02100
C 	C 	0.52368 0.53653 0.45823 0.02000
H 	H 	0.63549 0.55470 0.46442 0.05300
H 	H 	0.67995 0.50937 0.49836 0.01100
H 	H 	0.51502 0.41201 0.53116 0.04500
H 	H 	0.47072 0.45759 0.49713 0.05000
C 	C 	0.48209 0.49343 0.44145 -0.06000
C 	C 	0.45253 0.51929 0.42418 0.01100
C 	C 	0.46425 0.58849 0.42361 -0.08900
C 	C 	0.50854 0.63188 0.43924 0.01100
C 	C 	0.53796 0.60594 0.45656 -0.05900
H 	H 	0.47171 0.43982 0.44224 0.05100
H 	H 	0.41930 0.48542 0.41181 0.04100
H 	H 	0.51836 0.68543 0.43885 0.04400
H 	H 	0.57051 0.63962 0.46927 0.05200
C 	C 	0.88904 0.18099 0.64647 -0.03700
C 	C 	0.85274 0.12760 0.66067 0.02300
C 	C 	0.79549 0.12149 0.66382 -0.03600
C 	C 	0.77344 0.16374 0.65031 0.02300
C 	C 	0.80623 0.20577 0.63135 -0.07500
C 	C 	0.86561 0.21859 0.63092 0.02500
C 	C 	0.87241 0.07283 0.66887 0.02200
C 	C 	0.75874 0.06983 0.67990 0.10300
C 	C 	0.90233 0.26940 0.61451 0.10200
C 	C 	0.88394 0.06538 0.69495 -0.03500
C 	C 	0.90023 0.01174 0.70248 0.01000
C 	C 	0.91599 0.97390 0.68384 -0.07100
C 	C 	0.90653 0.98311 0.65760 0.02700
C 	C 	0.88057 0.02884 0.65038 -0.03800
C 	C 	0.88190 0.11468 0.71376 0.10200
C 	C 	0.92599 0.94842 0.63802 0.10300
C 	C 	0.89936 0.99452 0.72924 0.06100
C 	C 	0.86267 0.03113 0.62394 0.10300
C 	C 	0.95005 0.19541 0.64721 0.10400
C 	C 	0.71738 0.16448 0.65597 0.05800
N 	N 	0.89825 0.98075 0.75062 -0.10900
N 	N 	0.88039 0.15419 0.72872 -0.10300
N 	N 	0.94169 0.92132 0.62225 -0.09500
N 	N 	0.84838 0.03305 0.60285 -0.10700
N 	N 	0.72944 0.02858 0.69275 -0.10400
N 	N 	0.67265 0.16511 0.66046 -0.13200
N 	N 	0.93173 0.30996 0.60143 -0.09900
N 	N 	0.99872 0.20682 0.64782 -0.10100
C 	C 	0.39060 0.15920 0.61246 -0.03700
C 	C 	0.38338 0.17644 0.63793 0.02200
C 	C 	0.43047 0.22030 0.65230 -0.03500
C 	C 	0.48509 0.24479 0.64150 0.01700
C 	C 	0.49249 0.22621 0.61622 -0.06800
C 	C 	0.44474 0.18523 0.60143 0.02200
C 	C 	0.32584 0.14837 0.64962 0.02200
C 	C 	0.42274 0.23972 0.67822 0.10200
C 	C 	0.45123 0.17041 0.57477 0.09500
C 	C 	0.31150 0.09021 0.66449 -0.03400
C 	C 	0.25708 0.06347 0.67533 0.01900
C 	C 	0.21686 0.09473 0.67129 -0.07000
C 	C 	0.22996 0.15027 0.65502 0.02400
C 	C 	0.28493 0.17827 0.64486 -0.03700
C 	C 	0.35287 0.05819 0.66873 0.10500
C 	C 	0.18644 0.17746 0.64820 0.09500
C 	C 	0.24261 0.00404 0.69074 0.08100
C 	C 	0.29959 0.23808 0.62964 0.10100
C 	C 	0.34232 0.11412 0.59768 0.10100
C 	C 	0.53371 0.28835 0.65648 0.07800
N 	N 	0.23112 0.95654 0.70300 -0.10300
N 	N 	0.38594 0.03271 0.67210 -0.10500
N 	N 	0.15171 0.19913 0.64275 -0.10000
N 	N 	0.31135 0.28581 0.61750 -0.10800
N 	N 	0.41649 0.25514 0.69890 -0.10500
N 	N 	0.57253 0.32311 0.66844 -0.10600
N 	N 	0.45623 0.15849 0.55349 -0.10200
N 	N 	0.30376 0.07816 0.58592 -0.10700
C 	C 	0.05122 0.70728 0.62848 -0.05700
C 	C 	0.99587 0.68267 0.61730 0.04500
C 	C 	0.95880 0.71747 0.62140 -0.04700
C 	C 	0.97049 0.76498 0.64145 0.04100
C 	C 	0.02425 0.78647 0.65451 -0.08400
C 	C 	0.06605 0.76067 0.64663 0.03200
C 	C 	0.97273 0.61462 0.60521 0.01300
C 	C 	0.90640 0.70073 0.60616 0.10900
C 	C 	0.12300 0.78637 0.65810 0.09500
C 	C 	0.94400 0.55942 0.62042 -0.03200
C 	C 	0.89946 0.50394 0.60955 0.01800
C 	C 	0.88226 0.50556 0.58354 -0.07000
C 	C 	0.91894 0.55528 0.56753 0.01300
C 	C 	0.96551 0.60821 0.57849 -0.01900
C 	C 	0.95836 0.56135 0.64751 0.10300
C 	C 	0.90819 0.55332 0.54010 0.08700
C 	C 	0.87358 0.44511 0.62483 0.09900
C 	C 	0.00397 0.65836 0.56242 0.08000
C 	C 	0.09218 0.67679 0.62179 0.10600
C 	C 	0.92449 0.78399 0.65085 0.08200
N 	N 	0.85318 0.39840 0.63719 -0.10100
N 	N 	0.96989 0.56302 0.66913 -0.10300
N 	N 	0.89979 0.55237 0.51820 -0.11500
N 	N 	0.03470 0.69842 0.54960 -0.10700
N 	N 	0.86462 0.68730 0.59400 -0.10600
N 	N 	0.88670 0.79758 0.65804 -0.09800
N 	N 	0.16847 0.80687 0.66726 -0.09300
N 	N 	0.12486 0.65238 0.61643 -0.11000
C 	C 	0.86505 0.53841 0.97481 -0.05400
C 	C 	0.91145 0.56446 0.95862 0.02000
C 	C 	0.90252 0.55682 0.93202 -0.05200
C 	C 	0.84912 0.51721 0.92184 0.02000
C 	C 	0.80411 0.48553 0.93819 -0.07600
C 	C 	0.81149 0.49910 0.96462 0.02000
C 	C 	0.96989 0.58822 0.96952 0.04500
H 	H 	0.93780 0.57817 0.91934 0.06000
H 	H 	0.84341 0.50853 0.90132 0.04500
H 	H 	0.77680 0.47593 0.97742 0.04200
H 	H 	0.87137 0.54496 0.99538 0.05700
C 	C 	0.98854 0.64383 0.98628 -0.04900
C 	C 	0.03982 0.65891 0.00023 0.01400
C 	C 	0.07255 0.61809 0.99762 -0.08500
C 	C 	0.05562 0.56516 0.97963 0.02600
C 	C 	0.00456 0.55032 0.96563 -0.09300
H 	H 	0.96227 0.67374 0.98922 0.06000
H 	H 	0.05265 0.70027 0.01394 0.05400
H 	H 	0.08107 0.53409 0.97716 0.01400
H 	H 	0.99061 0.50749 0.95259 0.07200
C 	C 	0.49809 0.87482 0.99062 -0.05900
C 	C 	0.47548 0.90922 0.97340 0.02300
C 	C 	0.41617 0.88880 0.96961 -0.05800
C 	C 	0.37971 0.83849 0.98459 0.01600
C 	C 	0.40226 0.80808 0.00344 -0.08400
C 	C 	0.46158 0.82415 0.00552 0.01700
C 	C 	0.51317 0.97098 0.96157 0.02800
H 	H 	0.39835 0.91411 0.95591 0.05800
H 	H 	0.33399 0.82572 0.98252 0.03300
H 	H 	0.47952 0.80065 0.01987 0.04900
H 	H 	0.54385 0.88954 0.99339 0.05600
C 	C 	0.51019 0.03288 0.96882 -0.06100
C 	C 	0.53926 0.09021 0.95510 0.02200
C 	C 	0.57163 0.08618 0.93402 -0.08300
C 	C 	0.57821 0.02523 0.92804 0.02200
C 	C 	0.54886 0.96775 0.94172 -0.05600
H 	H 	0.48361 0.03605 0.98448 0.05300
H 	H 	0.53445 0.13711 0.96010 0.03100
H 	H 	0.60317 0.02147 0.91184 0.03400
H 	H 	0.55200 0.92030 0.93620 0.05500
C 	C 	0.31321 0.41244 0.97472 -0.06000
C 	C 	0.36934 0.41417 0.97770 0.02200
C 	C 	0.40420 0.45172 0.99794 -0.05800
C 	C 	0.38356 0.48853 0.01470 0.01800
C 	C 	0.32770 0.48793 0.01142 -0.08100
C 	C 	0.29241 0.44900 0.99153 0.01300
C 	C 	0.39327 0.38154 0.95844 0.02100
H 	H 	0.44768 0.45348 0.00034 0.05100
H 	H 	0.41102 0.51757 0.03016 0.05300
H 	H 	0.24927 0.44813 0.98879 0.01500
H 	H 	0.28604 0.38367 0.95912 0.05200
C 	C 	0.41021 0.32810 0.96532 -0.06000
C 	C 	0.44169 0.30476 0.94842 0.00900
C 	C 	0.45701 0.33529 0.92468 -0.08500
C 	C 	0.43629 0.38524 0.91709 0.01600
C 	C 	0.40450 0.40821 0.93389 -0.05900
H 	H 	0.40099 0.30652 0.98412 0.05200
H 	H 	0.45712 0.26584 0.95441 0.03200
H 	H 	0.44722 0.40854 0.89866 0.04200
H 	H 	0.39094 0.44889 0.92829 0.05200
C 	C 	0.85828 0.19537 0.81763 -0.03800
C 	C 	0.91335 0.23674 0.82632 0.02900
C 	C 	0.91977 0.28807 0.84455 -0.04400
C 	C 	0.87127 0.29389 0.85593 0.02700
C 	C 	0.81594 0.25207 0.84732 -0.07500
C 	C 	0.80984 0.20523 0.82722 0.02300
C 	C 	0.96428 0.22299 0.81753 0.01300
C 	C 	0.97633 0.33416 0.85187 0.11700
C 	C 	0.75376 0.16788 0.81618 0.06600
C 	C 	0.98584 0.24307 0.79305 -0.01700
C 	C 	0.02045 0.21223 0.78137 0.00200
C 	C 	0.03370 0.16205 0.79436 -0.06700
C 	C 	0.02081 0.15140 0.82047 0.01100
C 	C 	0.98554 0.18142 0.83202 -0.01900
C 	C 	0.97040 0.29318 0.77956 0.10300
C 	C 	0.04097 0.10641 0.83492 0.10100
C 	C 	0.03924 0.22879 0.75543 0.06300
C 	C 	0.96895 0.16718 0.85836 0.10100
C 	C 	0.85147 0.14100 0.79955 0.10700
C 	C 	0.87846 0.34056 0.87720 0.09200
N 	N 	0.05419 0.24191 0.73472 -0.12300
N 	N 	0.95802 0.33317 0.76881 -0.10000
N 	N 	0.05692 0.07040 0.84646 -0.09700
N 	N 	0.95566 0.15586 0.87937 -0.10400
N 	N 	0.02149 0.37089 0.85771 -0.12200
N 	N 	0.88430 0.37781 0.89416 -0.10200
N 	N 	0.70901 0.13810 0.80737 -0.12500
N 	N 	0.84610 0.09752 0.78518 -0.09800
C 	C 	0.37594 0.99642 0.83362 -0.03600
C 	C 	0.36271 0.01980 0.81014 0.02200
C 	C 	0.40634 0.06758 0.79668 -0.03600
C 	C 	0.45952 0.10157 0.80899 0.02000
C 	C 	0.46892 0.08668 0.83451 -0.07200
C 	C 	0.42877 0.03074 0.84615 0.02400
C 	C 	0.30212 0.00748 0.80302 0.02200
C 	C 	0.39536 0.08392 0.77072 0.10300
C 	C 	0.44055 0.01090 0.87149 0.09300
C 	C 	0.27584 0.05069 0.81266 -0.03700
C 	C 	0.22266 0.04750 0.80247 0.02300
C 	C 	0.19519 0.00017 0.78295 -0.07200
C 	C 	0.21793 0.95130 0.77582 0.02200
C 	C 	0.27208 0.95577 0.78547 -0.03400
C 	C 	0.30454 0.09982 0.83253 0.10100
C 	C 	0.18525 0.89599 0.75899 0.07600
C 	C 	0.19731 0.09464 0.81136 0.09100
C 	C 	0.29732 0.90815 0.77704 0.10500
C 	C 	0.33395 0.93953 0.84546 0.10100
C 	C 	0.50400 0.15275 0.79570 0.07300
N 	N 	0.17750 0.13254 0.81856 -0.09600
N 	N 	0.32752 0.13896 0.84837 -0.10500
N 	N 	0.15928 0.85169 0.74559 -0.11200
N 	N 	0.31752 0.87017 0.77032 -0.10400
N 	N 	0.38650 0.09689 0.74999 -0.10500
N 	N 	0.53953 0.19361 0.78511 -0.10700
N 	N 	0.44991 0.99509 0.89170 -0.10400
N 	N 	0.30037 0.89411 0.85489 -0.10800
C 	C 	0.82111 0.74189 0.81973 -0.03700
C 	C 	0.84597 0.69581 0.82802 0.02100
C 	C 	0.90435 0.70894 0.82411 -0.03400
C 	C 	0.93652 0.76502 0.80995 0.01200
C 	C 	0.91025 0.80791 0.79977 -0.07300
C 	C 	0.85349 0.79840 0.80589 0.02400
C 	C 	0.81020 0.63267 0.84045 0.02200
C 	C 	0.93098 0.66429 0.83438 0.10000
C 	C 	0.82856 0.84690 0.79801 0.09600
C 	C 	0.78145 0.57492 0.82535 -0.03800
C 	C 	0.74313 0.51718 0.83669 0.02400
C 	C 	0.73520 0.51628 0.86348 -0.07400
C 	C 	0.76214 0.57561 0.87828 0.01700
C 	C 	0.80174 0.63224 0.86700 -0.03700
C 	C 	0.79105 0.57517 0.79807 0.10100
C 	C 	0.74658 0.58002 0.90464 0.08000
C 	C 	0.70875 0.46109 0.82054 0.09500
C 	C 	0.83374 0.69041 0.88270 0.10000
C 	C 	0.76198 0.73048 0.82510 0.10300
C 	C 	0.99615 0.77756 0.80523 0.08900
N 	N 	0.68134 0.41641 0.80763 -0.10500
N 	N 	0.79876 0.57547 0.77630 -0.10900
N 	N 	0.73413 0.58398 0.92563 -0.11400
N 	N 	0.85931 0.73684 0.89522 -0.10500
N 	N 	0.95215 0.62860 0.84259 -0.10700
N 	N 	0.04372 0.78764 0.80143 -0.11900
N 	N 	0.80861 0.88557 0.79175 -0.09300
N 	N 	0.71479 0.72130 0.82941 -0.10700
