data_crystal

_cell_length_a 38.35253
_cell_length_b 40.26104
_cell_length_c 19.50492
_cell_angle_alpha 91.79624
_cell_angle_beta  90.57850
_cell_angle_gamma 90.04478

_symmetry_space_group_name_	'P 1'
_symmetry_space_group_name_H-M	'P 1'

loop_
_symmetry_equiv_pos_as_xyz
  x,y,z

loop_
_atom_site_label
_atom_site_type_symbol
_atom_site_fract_x
_atom_site_fract_y
_atom_site_fract_z
_atom_site_charge
Cd	Cd	0.97951 0.83415 0.26399 1.24100
Cd	Cd	0.99309 0.89476 0.39626 1.17000
O 	O 	0.97454 0.77589 0.29642 -0.31600
O 	O 	0.96623 0.79079 0.19003 -0.35200
C 	C 	0.96684 0.76700 0.23363 0.27700
O 	O 	0.97326 0.88296 0.21215 -0.38700
O 	O 	0.00658 0.91279 0.29109 -0.45500
C 	C 	0.98628 0.91161 0.23595 0.27500
C 	C 	0.92260 0.85235 0.35052 0.26900
O 	O 	0.02522 0.84827 0.36216 -0.43700
O 	O 	0.91173 0.83698 0.29431 -0.30000
O 	O 	0.95620 0.85399 0.35751 -0.54100
C 	C 	0.04940 0.84660 0.31573 0.28500
O 	O 	0.03942 0.83724 0.25396 -0.34800
Cd	Cd	0.04402 0.87553 0.99452 1.23700
Cd	Cd	0.06155 0.92103 0.84592 1.15600
O 	O 	0.02781 0.81731 0.97262 -0.33000
O 	O 	0.03581 0.83717 0.07811 -0.34800
C 	C 	0.02782 0.81183 0.03767 0.28900
O 	O 	0.06506 0.92498 0.03524 -0.35800
O 	O 	0.04933 0.95340 0.93928 -0.46200
C 	C 	0.06533 0.95250 0.99941 0.23800
C 	C 	0.10855 0.86548 0.92599 0.27900
O 	O 	0.01286 0.89170 0.87988 -0.44600
O 	O 	0.10976 0.85304 0.98704 -0.29600
O 	O 	0.07846 0.87691 0.90771 -0.55400
C 	C 	0.98708 0.90324 0.91643 0.28700
O 	O 	0.98918 0.89873 0.98237 -0.35800
C 	C 	0.01777 0.67776 0.99522 0.09600
N 	N 	0.03309 0.65039 0.02133 -0.12400
C 	C 	0.03560 0.62206 0.98200 0.10500
N 	N 	0.02284 0.62110 0.91685 -0.14100
C 	C 	0.00718 0.64822 0.89098 0.13100
N 	N 	0.00510 0.67666 0.92983 -0.13800
C 	C 	0.97493 0.63424 0.27529 0.12000
N 	N 	0.97174 0.63768 0.34445 -0.14100
C 	C 	0.97801 0.61150 0.38492 0.12800
N 	N 	0.98830 0.58205 0.35620 -0.14400
C 	C 	0.99196 0.57864 0.28719 0.12300
N 	N 	0.98501 0.60466 0.24661 -0.14100
Cd	Cd	0.93169 0.06940 0.73194 1.24300
Cd	Cd	0.98963 0.04817 0.86900 1.16200
O 	O 	0.88562 0.10708 0.77074 -0.31400
O 	O 	0.88922 0.09106 0.66256 -0.35100
C 	C 	0.87201 0.10765 0.70976 0.27700
O 	O 	0.97714 0.04414 0.67816 -0.36500
O 	O 	0.99526 0.01671 0.77345 -0.45200
C 	C 	0.00176 0.02814 0.71234 0.27800
C 	C 	0.98182 0.11611 0.78170 0.29000
O 	O 	0.93085 0.03800 0.84865 -0.44900
O 	O 	0.96845 0.12564 0.72371 -0.28900
O 	O 	0.96745 0.09037 0.80764 -0.54400
C 	C 	0.91695 0.01287 0.81442 0.29900
O 	O 	0.90646 0.01893 0.75233 -0.34900
Cd	Cd	0.84595 0.99204 0.51828 1.24200
Cd	Cd	0.86995 0.94237 0.37487 1.16800
O 	O 	0.78388 0.99981 0.54578 -0.32200
O 	O 	0.82543 0.02244 0.60887 -0.35400
C 	C 	0.79228 0.02156 0.59380 0.27500
O 	O 	0.90370 0.98872 0.52880 -0.37800
O 	O 	0.91396 0.97519 0.41576 -0.46800
C 	C 	0.92478 0.97762 0.48022 0.27400
C 	C 	0.84432 0.92181 0.52577 0.29900
O 	O 	0.83450 0.98902 0.38474 -0.44700
O 	O 	0.84377 0.93527 0.58780 -0.28600
O 	O 	0.84144 0.94222 0.47641 -0.54700
C 	C 	0.84407 0.02000 0.38329 0.27700
O 	O 	0.85118 0.03438 0.44265 -0.38100
C 	C 	0.74060 0.15494 0.77990 0.12100
N 	N 	0.70973 0.15998 0.74735 -0.14200
C 	C 	0.68043 0.16631 0.78406 0.12600
N 	N 	0.68252 0.16896 0.85367 -0.14500
C 	C 	0.71329 0.16359 0.88652 0.13200
N 	N 	0.74234 0.15701 0.84949 -0.14100
C 	C 	0.70291 0.11920 0.50340 0.11800
N 	N 	0.66870 0.12290 0.51976 -0.14500
C 	C 	0.64534 0.13314 0.47209 0.12800
N 	N 	0.65619 0.13972 0.40794 -0.14400
C 	C 	0.69025 0.13624 0.39124 0.12800
N 	N 	0.71364 0.12642 0.43923 -0.14100
Cd	Cd	0.95016 0.12060 0.16566 1.24000
Cd	Cd	0.93590 0.07757 0.32066 1.17700
O 	O 	0.94659 0.18103 0.17865 -0.31900
O 	O 	0.96784 0.15738 0.08580 -0.35100
C 	C 	0.96320 0.18484 0.12192 0.28100
O 	O 	0.96323 0.06696 0.13815 -0.38400
O 	O 	0.93061 0.04581 0.22459 -0.42900
C 	C 	0.95487 0.04197 0.17766 0.27400
C 	C 	0.00555 0.11534 0.26267 0.31600
O 	O 	0.90261 0.11492 0.25920 -0.44600
O 	O 	0.01621 0.12723 0.20517 -0.29800
O 	O 	0.97197 0.11342 0.26837 -0.53800
C 	C 	0.87997 0.10757 0.21080 0.29500
O 	O 	0.89110 0.11005 0.14806 -0.35100
Cd	Cd	0.14668 0.15692 0.04404 1.24300
Cd	Cd	0.13964 0.11313 0.88212 1.16700
O 	O 	0.16610 0.21436 0.03399 -0.31100
O 	O 	0.14533 0.19703 0.13053 -0.35400
C 	C 	0.15579 0.22222 0.09536 0.27600
O 	O 	0.12218 0.10724 0.06868 -0.36900
O 	O 	0.14321 0.07977 0.97251 -0.45300
C 	C 	0.12268 0.08064 0.02642 0.28600
C 	C 	0.08756 0.16753 0.95846 0.29700
O 	O 	0.18505 0.14094 0.93858 -0.44500
O 	O 	0.08233 0.17952 0.02038 -0.29100
O 	O 	0.11852 0.15604 0.94712 -0.54100
C 	C 	0.20764 0.12795 0.98008 0.28000
O 	O 	0.20166 0.13288 0.04551 -0.34300
C 	C 	0.11036 0.33380 0.98185 0.10500
N 	N 	0.10703 0.32100 0.91670 -0.13700
C 	C 	0.09920 0.34128 0.86430 0.12700
N 	N 	0.09695 0.37458 0.87656 -0.14400
C 	C 	0.10115 0.38757 0.94126 0.12600
N 	N 	0.10691 0.36701 0.99418 -0.14600
C 	C 	0.03553 0.28506 0.25649 0.11700
N 	N 	0.03767 0.31730 0.23856 -0.14300
C 	C 	0.04438 0.34151 0.28672 0.13000
N 	N 	0.05123 0.33329 0.35241 -0.14300
C 	C 	0.04954 0.30111 0.37083 0.12800
N 	N 	0.04086 0.27704 0.32317 -0.13700
Cd	Cd	0.21810 0.96723 0.70921 1.24300
Cd	Cd	0.16599 0.95592 0.85473 1.15400
O 	O 	0.27989 0.95124 0.71656 -0.31800
O 	O 	0.25739 0.97134 0.62328 -0.35200
C 	C 	0.28555 0.96289 0.65637 0.27700
O 	O 	0.16362 0.97811 0.67237 -0.38400
O 	O 	0.14282 0.99169 0.77965 -0.47700
C 	C 	0.13733 0.98559 0.71352 0.27700
C 	C 	0.19533 0.90252 0.73954 0.29700
O 	O 	0.21722 0.98551 0.83997 -0.44500
O 	O 	0.20710 0.90222 0.67675 -0.28500
O 	O 	0.19944 0.92993 0.77453 -0.55600
C 	C 	0.22016 0.01617 0.82157 0.27800
O 	O 	0.22307 0.02034 0.75574 -0.36700
Cd	Cd	0.14815 0.99076 0.47100 1.24200
Cd	Cd	0.09026 0.96971 0.33023 1.18300
O 	O 	0.20179 0.01788 0.43525 -0.31600
O 	O 	0.19041 0.01181 0.54458 -0.35600
C 	C 	0.21158 0.02273 0.49851 0.27800
O 	O 	0.09813 0.97653 0.52170 -0.36500
O 	O 	0.07785 0.94571 0.42895 -0.44800
C 	C 	0.07189 0.96328 0.48560 0.27800
C 	C 	0.10701 0.04081 0.41097 0.30400
O 	O 	0.14661 0.95437 0.35778 -0.43700
O 	O 	0.12081 0.05203 0.46878 -0.29600
O 	O 	0.11749 0.01185 0.38978 -0.53000
C 	C 	0.15544 0.92872 0.39297 0.29400
O 	O 	0.16429 0.93532 0.45691 -0.34800
C 	C 	0.39974 0.03547 0.74120 0.11800
N 	N 	0.42868 0.05098 0.71844 -0.14300
C 	C 	0.44753 0.07111 0.76204 0.12800
N 	N 	0.43729 0.07587 0.82792 -0.14400
C 	C 	0.40861 0.06022 0.85093 0.12500
N 	N 	0.39019 0.03952 0.80786 -0.13900
C 	C 	0.33659 0.08725 0.45748 0.12000
N 	N 	0.33668 0.08727 0.38787 -0.13900
C 	C 	0.36539 0.09733 0.35424 0.13000
N 	N 	0.39313 0.10967 0.39030 -0.14400
C 	C 	0.39282 0.11070 0.45991 0.12800
N 	N 	0.36484 0.09875 0.49356 -0.14100
C 	C 	0.39911 0.06392 0.92384 -0.04000
C 	C 	0.36577 0.07559 0.94406 0.08500
C 	C 	0.35816 0.07916 0.01417 -0.06400
C 	C 	0.38402 0.07404 0.06400 -0.01400
C 	C 	0.41751 0.06290 0.04383 0.09100
C 	C 	0.42444 0.05730 0.97396 -0.07300
N 	N 	0.34155 0.08469 0.89684 -0.19600
H 	H 	0.33248 0.08750 0.02993 0.06000
C 	C 	0.37591 0.08091 0.13711 0.00100
N 	N 	0.44319 0.05789 0.09108 -0.19700
H 	H 	0.44992 0.04834 0.95840 0.05200
C 	C 	0.36732 0.05430 0.17837 -0.08700
C 	C 	0.36511 0.05883 0.24979 0.10500
C 	C 	0.36809 0.09133 0.27958 -0.05000
C 	C 	0.37487 0.11824 0.23778 -0.05100
C 	C 	0.37933 0.11333 0.16684 0.07100
H 	H 	0.36464 0.02956 0.15528 0.06100
N 	N 	0.36189 0.03181 0.28949 -0.19900
H 	H 	0.37719 0.14305 0.26069 0.05000
N 	N 	0.38719 0.13971 0.12783 -0.19300
H 	H 	0.35756 0.00827 0.26687 0.09100
H 	H 	0.36595 0.03342 0.34246 0.09500
H 	H 	0.38981 0.16349 0.15038 0.08700
H 	H 	0.39078 0.13699 0.07499 0.09300
H 	H 	0.46771 0.04938 0.07561 0.08900
H 	H 	0.43932 0.06270 0.14333 0.09100
H 	H 	0.34770 0.08660 0.84517 0.09400
H 	H 	0.31663 0.09187 0.91235 0.09200
C 	C 	0.24671 0.03499 0.51533 -0.07400
C 	C 	0.25071 0.06818 0.53814 -0.01400
C 	C 	0.28159 0.08539 0.52498 0.01200
C 	C 	0.30933 0.06867 0.49203 -0.01500
C 	C 	0.30721 0.03429 0.47961 -0.05000
C 	C 	0.27587 0.01751 0.48948 0.05400
S 	S 	0.28417 0.12826 0.54503 -0.03400
S 	S 	0.27259 0.97523 0.46404 -0.02200
H 	H 	0.26225 0.97265 0.39664 0.04700
H 	H 	0.29596 0.13321 0.61108 0.03700
H 	H 	0.22867 0.08146 0.56000 0.04200
H 	H 	0.32912 0.02109 0.45706 0.05100
C 	C 	0.31845 0.98074 0.64539 -0.07900
C 	C 	0.31757 0.01561 0.64484 -0.01000
C 	C 	0.34650 0.03425 0.66729 0.01100
C 	C 	0.37622 0.01799 0.69237 -0.01200
C 	C 	0.37911 0.98346 0.68273 -0.05600
C 	C 	0.35050 0.96482 0.65797 0.05000
S 	S 	0.34430 0.07792 0.66857 -0.03400
S 	S 	0.35436 0.92145 0.64695 -0.03900
H 	H 	0.34598 0.90663 0.70690 0.04800
H 	H 	0.32645 0.08895 0.72530 0.03300
H 	H 	0.29321 0.02819 0.63471 0.04800
H 	H 	0.40273 0.97092 0.69857 0.05000
C 	C 	0.09417 0.32744 0.79353 -0.04900
C 	C 	0.06990 0.30152 0.77834 0.10400
C 	C 	0.06552 0.28980 0.71011 -0.08500
C 	C 	0.08187 0.30576 0.65616 -0.00400
C 	C 	0.10563 0.33208 0.67118 0.07100
C 	C 	0.11242 0.34177 0.73987 -0.05200
N 	N 	0.04941 0.28910 0.82801 -0.19900
H 	H 	0.04738 0.26967 0.69853 0.06000
C 	C 	0.07061 0.29748 0.58442 -0.00400
N 	N 	0.12144 0.34858 0.62013 -0.19400
H 	H 	0.13114 0.36141 0.75144 0.05000
C 	C 	0.03804 0.30870 0.56153 -0.08500
C 	C 	0.02857 0.30556 0.49192 0.10700
C 	C 	0.05304 0.29312 0.44388 -0.04800
C 	C 	0.08418 0.27895 0.46744 -0.05200
C 	C 	0.09284 0.28029 0.53781 0.07200
H 	H 	0.02021 0.32031 0.59781 0.05600
N 	N 	0.99595 0.31428 0.47149 -0.20100
H 	H 	0.10236 0.26816 0.43082 0.05100
N 	N 	0.12267 0.26567 0.55998 -0.19400
H 	H 	0.97855 0.32516 0.50643 0.08500
H 	H 	0.98696 0.30860 0.42177 0.09100
H 	H 	0.13950 0.25399 0.52501 0.08800
H 	H 	0.12891 0.26488 0.61213 0.09200
H 	H 	0.13932 0.36757 0.63189 0.08500
H 	H 	0.11576 0.34330 0.56853 0.09100
H 	H 	0.04676 0.30134 0.87557 0.09600
H 	H 	0.03367 0.26833 0.81741 0.09200
C 	C 	0.22906 0.10005 0.95544 -0.08300
C 	C 	0.22433 0.06903 0.98454 -0.03300
C 	C 	0.22496 0.04015 0.94276 -0.00200
C 	C 	0.23114 0.04268 0.87158 -0.08900
C 	C 	0.24417 0.07270 0.84742 -0.02400
C 	C 	0.24378 0.10131 0.88978 -0.01800
H 	H 	0.21643 0.06765 0.03763 0.06400
H 	H 	0.25294 0.07415 0.79490 0.04300
C 	C 	0.25615 0.13237 0.86400 0.06300
C 	C 	0.22049 0.00833 0.97368 0.04800
N 	N 	0.26609 0.15725 0.84333 -0.11800
N 	N 	0.21705 0.98285 0.99861 -0.14300
C 	C 	0.11792 0.31164 0.03874 -0.00300
C 	C 	0.15155 0.31111 0.06754 -0.05200
C 	C 	0.16278 0.28329 0.10323 0.04800
C 	C 	0.14075 0.25543 0.10716 -0.07600
C 	C 	0.10515 0.25937 0.09188 -0.01300
C 	C 	0.09374 0.28715 0.05654 0.01400
S 	S 	0.20562 0.28199 0.13593 -0.03700
S 	S 	0.04963 0.29020 0.03192 -0.02300
H 	H 	0.03293 0.31142 0.07693 0.04000
H 	H 	0.20599 0.29387 0.20253 0.03700
H 	H 	0.16966 0.33111 0.05814 0.05200
H 	H 	0.08753 0.23869 0.09766 0.05400
C 	C 	0.02873 0.09412 0.30211 -0.12100
C 	C 	0.05155 0.07288 0.26633 -0.01100
C 	C 	0.07788 0.05626 0.30084 -0.01300
C 	C 	0.08053 0.05949 0.37309 -0.10700
C 	C 	0.05706 0.08009 0.40927 -0.01100
C 	C 	0.03136 0.09764 0.37406 -0.00600
H 	H 	0.04974 0.07051 0.21082 0.04300
H 	H 	0.05887 0.08251 0.46475 0.04900
C 	C 	0.00877 0.12016 0.41177 0.04800
C 	C 	0.10328 0.03758 0.26122 0.01700
N 	N 	0.99068 0.13822 0.44199 -0.12100
N 	N 	0.12356 0.02264 0.22939 -0.12600
C 	C 	0.02128 0.26009 0.20637 -0.00900
C 	C 	0.99241 0.26848 0.16535 -0.05700
C 	C 	0.97686 0.24458 0.12118 0.04900
C 	C 	0.98900 0.21170 0.12047 -0.07700
C 	C 	0.02194 0.20551 0.14935 -0.00500
C 	C 	0.03666 0.22841 0.19703 0.01100
S 	S 	0.94048 0.25534 0.07107 -0.03600
S 	S 	0.07247 0.21616 0.24763 -0.01100
H 	H 	0.10243 0.23123 0.22717 0.04600
H 	H 	0.95158 0.26552 0.00856 0.04100
H 	H 	0.98149 0.29329 0.16919 0.05200
H 	H 	0.03355 0.18114 0.14253 0.06300
C 	C 	0.60775 0.13155 0.48600 -0.05100
C 	C 	0.59165 0.15418 0.53284 0.10200
C 	C 	0.55556 0.15200 0.54348 -0.08600
C 	C 	0.53519 0.12854 0.50636 -0.00600
C 	C 	0.55110 0.10742 0.45628 0.07100
C 	C 	0.58741 0.10806 0.44918 -0.05400
N 	N 	0.61051 0.17815 0.56721 -0.19900
H 	H 	0.54315 0.16925 0.57928 0.05100
C 	C 	0.49693 0.12778 0.51714 -0.00600
N 	N 	0.53161 0.08743 0.41329 -0.19400
H 	H 	0.59979 0.09107 0.41268 0.05000
C 	C 	0.47673 0.15467 0.49596 -0.08800
C 	C 	0.44055 0.15124 0.48723 0.10000
C 	C 	0.42475 0.12016 0.49792 -0.05100
C 	C 	0.44392 0.09533 0.53005 -0.05400
C 	C 	0.48007 0.09882 0.53984 0.07400
H 	H 	0.48939 0.17767 0.48270 0.05300
N 	N 	0.42118 0.17756 0.46728 -0.19900
H 	H 	0.43123 0.07224 0.54257 0.05300
N 	N 	0.49851 0.07405 0.56904 -0.19300
H 	H 	0.43312 0.20017 0.45688 0.08500
H 	H 	0.39400 0.17613 0.46444 0.09200
H 	H 	0.48597 0.05246 0.58420 0.08900
H 	H 	0.52511 0.07653 0.57935 0.08700
H 	H 	0.54371 0.07065 0.37919 0.08500
H 	H 	0.50455 0.08966 0.41027 0.09100
H 	H 	0.63714 0.18122 0.55891 0.09400
H 	H 	0.59849 0.19417 0.60292 0.08600
C 	C 	0.48084 0.08503 0.74045 -0.05200
C 	C 	0.48230 0.11669 0.71112 0.10300
C 	C 	0.51459 0.13282 0.70598 -0.08600
C 	C 	0.54522 0.11815 0.73072 -0.00600
C 	C 	0.54350 0.08673 0.76140 0.07000
C 	C 	0.51165 0.06967 0.76189 -0.05300
N 	N 	0.45290 0.13163 0.68762 -0.19900
H 	H 	0.51573 0.15723 0.68425 0.05100
C 	C 	0.57870 0.13642 0.72654 -0.00700
N 	N 	0.57180 0.07363 0.79337 -0.19400
H 	H 	0.51034 0.04545 0.78460 0.04700
C 	C 	0.58321 0.16602 0.76550 -0.08800
C 	C 	0.61661 0.17961 0.77583 0.10000
C 	C 	0.64593 0.16207 0.75055 -0.05200
C 	C 	0.64087 0.13548 0.70312 -0.05500
C 	C 	0.60735 0.12268 0.69024 0.07400
H 	H 	0.56090 0.17785 0.78967 0.05300
N 	N 	0.62041 0.20956 0.80921 -0.19900
H 	H 	0.66319 0.12337 0.67960 0.05500
N 	N 	0.60293 0.09672 0.64474 -0.19300
H 	H 	0.59883 0.22178 0.83038 0.08300
H 	H 	0.64449 0.22171 0.81124 0.09100
H 	H 	0.62436 0.08593 0.62008 0.08800
H 	H 	0.57815 0.08796 0.63125 0.08700
H 	H 	0.57078 0.04965 0.81228 0.08300
H 	H 	0.59420 0.08772 0.80368 0.08800
H 	H 	0.42879 0.11957 0.68746 0.09500
H 	H 	0.45416 0.15518 0.66670 0.08700
C 	C 	0.71427 0.16055 0.96187 -0.06500
C 	C 	0.69115 0.13900 0.99532 0.09300
C 	C 	0.69073 0.13908 0.06725 -0.07300
C 	C 	0.71529 0.15755 0.10615 -0.00400
C 	C 	0.74030 0.17704 0.07259 0.06700
C 	C 	0.73893 0.17902 0.00075 -0.02200
N 	N 	0.67066 0.11704 0.95890 -0.19800
H 	H 	0.67212 0.12362 0.09305 0.05500
C 	C 	0.71492 0.15551 0.18197 -0.00300
N 	N 	0.76549 0.19395 0.10884 -0.19300
H 	H 	0.75719 0.19489 0.97506 0.03800
C 	C 	0.72814 0.12688 0.21202 -0.08300
C 	C 	0.72029 0.11974 0.28023 0.10400
C 	C 	0.70168 0.14345 0.32102 -0.04900
C 	C 	0.69151 0.17358 0.29257 -0.05100
C 	C 	0.69724 0.17958 0.22305 0.07200
H 	H 	0.74235 0.10885 0.18071 0.06100
N 	N 	0.72917 0.08959 0.30479 -0.20000
H 	H 	0.67800 0.19202 0.32413 0.05000
N 	N 	0.68541 0.20828 0.19605 -0.19400
H 	H 	0.74521 0.07351 0.27625 0.09200
H 	H 	0.71833 0.08076 0.34951 0.09700
H 	H 	0.67202 0.22570 0.22664 0.08600
H 	H 	0.68960 0.21377 0.14486 0.09100
H 	H 	0.78353 0.20861 0.08369 0.09200
H 	H 	0.76775 0.19239 0.16203 0.09700
H 	H 	0.67481 0.11184 0.90686 0.09300
H 	H 	0.65199 0.10295 0.98374 0.08200
C 	C 	0.83580 0.03999 0.32341 -0.09700
C 	C 	0.82361 0.07266 0.33345 -0.01800
C 	C 	0.82954 0.09593 0.28312 -0.00700
C 	C 	0.84991 0.08675 0.22614 -0.08400
C 	C 	0.85174 0.05296 0.20729 -0.02000
C 	C 	0.84589 0.02924 0.25699 -0.00400
H 	H 	0.81177 0.08033 0.38168 0.04300
H 	H 	0.86281 0.04549 0.15838 0.06000
C 	C 	0.85184 0.99449 0.24070 0.04100
C 	C 	0.81814 0.12984 0.29357 0.07400
N 	N 	0.85652 0.96660 0.22786 -0.17000
N 	N 	0.80894 0.15702 0.30188 -0.11600
C 	C 	0.96257 0.97568 0.49530 -0.07900
C 	C 	0.97729 0.94512 0.51209 -0.08000
C 	C 	0.01355 0.94186 0.51915 -0.03100
C 	C 	0.03549 0.96907 0.50668 -0.08900
C 	C 	0.02059 0.00047 0.49730 -0.02100
C 	C 	0.98422 0.00391 0.49149 -0.00700
H 	H 	0.96061 0.92378 0.51865 -0.00700
H 	H 	0.03732 0.02183 0.49083 0.03000
C 	C 	0.96939 0.03632 0.48090 0.05100
C 	C 	0.02809 0.91048 0.53898 0.00400
N 	N 	0.95739 0.06225 0.47254 -0.17300
N 	N 	0.03971 0.88535 0.55501 -0.11300
C 	C 	0.77175 0.05238 0.59945 -0.07800
C 	C 	0.78544 0.08128 0.57151 -0.01400
C 	C 	0.76316 0.10594 0.54752 0.01400
C 	C 	0.72669 0.10131 0.55007 -0.01700
C 	C 	0.71347 0.07528 0.58874 -0.05100
C 	C 	0.73595 0.05098 0.61388 0.04600
S 	S 	0.78127 0.14244 0.51527 -0.03400
S 	S 	0.71889 0.01837 0.66126 -0.04600
H 	H 	0.70969 0.99252 0.61738 0.04400
H 	H 	0.78844 0.13749 0.44705 0.04400
H 	H 	0.81329 0.08345 0.56376 0.05000
H 	H 	0.68562 0.07261 0.59525 0.04800
C 	C 	0.10287 0.99395 0.68375 -0.09100
C 	C 	0.09541 0.02702 0.66777 -0.00900
C 	C 	0.06056 0.03773 0.66251 -0.02100
C 	C 	0.03322 0.01566 0.67665 -0.06200
C 	C 	0.04073 0.98161 0.67933 -0.03200
C 	C 	0.07536 0.97072 0.68420 -0.00600
H 	H 	0.11654 0.04469 0.66280 0.02600
H 	H 	0.01963 0.96397 0.68475 0.03600
C 	C 	0.08223 0.93594 0.69302 -0.02200
C 	C 	0.05310 0.07125 0.64291 0.06100
N 	N 	0.08742 0.90799 0.70016 -0.16100
N 	N 	0.04707 0.09808 0.62679 -0.11600
C 	C 	0.05864 0.16202 0.90940 -0.11200
C 	C 	0.02470 0.15841 0.93420 -0.00800
C 	C 	0.99821 0.14620 0.89084 -0.02300
C 	C 	0.00580 0.13723 0.82220 -0.09500
C 	C 	0.03831 0.14522 0.79519 -0.03400
C 	C 	0.06472 0.15804 0.83830 -0.01800
H 	H 	0.01925 0.16389 0.98781 0.05300
H 	H 	0.04337 0.14049 0.74120 0.04100
C 	C 	0.09724 0.16839 0.80888 0.00000
C 	C 	0.96324 0.14314 0.91685 0.06600
N 	N 	0.12328 0.17668 0.78526 -0.13800
N 	N 	0.93522 0.14068 0.93758 -0.11500
C 	C 	0.83458 0.11407 0.70240 -0.07200
C 	C 	0.82380 0.14533 0.68046 -0.01400
C 	C 	0.79165 0.15849 0.70151 0.01500
C 	C 	0.76949 0.13948 0.74200 -0.01500
C 	C 	0.77797 0.10645 0.75457 -0.04800
C 	C 	0.81068 0.09392 0.73698 0.05000
S 	S 	0.78049 0.19937 0.68058 -0.03500
S 	S 	0.82328 0.05488 0.76737 -0.02100
H 	H 	0.80244 0.03030 0.73937 0.05000
H 	H 	0.75972 0.19873 0.62300 0.04100
H 	H 	0.84168 0.16059 0.65239 0.04400
H 	H 	0.76014 0.09130 0.78307 0.05100
C 	C 	0.00541 0.54738 0.25720 -0.04300
C 	C 	0.03924 0.53624 0.27432 0.10200
C 	C 	0.04749 0.50248 0.26499 -0.08600
C 	C 	0.02301 0.48019 0.23581 -0.00100
C 	C 	0.99118 0.49244 0.20944 0.06600
C 	C 	0.98241 0.52594 0.22139 -0.05800
N 	N 	0.06373 0.55779 0.30014 -0.19900
H 	H 	0.07244 0.49331 0.28289 0.05500
C 	C 	0.02786 0.44413 0.24525 -0.00700
N 	N 	0.96904 0.47215 0.17278 -0.19500
H 	H 	0.95707 0.53496 0.20529 0.04800
C 	C 	0.00616 0.42804 0.29116 -0.08100
C 	C 	0.00965 0.39396 0.30156 0.10400
C 	C 	0.03763 0.37636 0.27076 -0.05100
C 	C 	0.05936 0.39230 0.22469 -0.05300
C 	C 	0.05438 0.42598 0.21058 0.07200
H 	H 	0.98574 0.44194 0.31727 0.05300
N 	N 	0.98536 0.37806 0.33893 -0.20000
H 	H 	0.08017 0.37846 0.19964 0.05100
N 	N 	0.07484 0.44056 0.16354 -0.19500
H 	H 	0.96608 0.39156 0.36504 0.08400
H 	H 	0.98389 0.35218 0.33858 0.09100
H 	H 	0.09489 0.42714 0.13968 0.09000
H 	H 	0.07074 0.46502 0.14932 0.08800
H 	H 	0.94496 0.48099 0.15573 0.08300
H 	H 	0.97626 0.44798 0.15805 0.08700
H 	H 	0.05910 0.58336 0.30298 0.09300
H 	H 	0.08827 0.54920 0.31513 0.08600
C 	C 	0.05230 0.59238 0.00919 -0.02300
C 	C 	0.08701 0.58453 0.99138 0.08900
C 	C 	0.09787 0.55124 0.99017 -0.10200
C 	C 	0.07467 0.52599 0.00757 0.02200
C 	C 	0.04188 0.53458 0.03580 0.06900
C 	C 	0.03110 0.56791 0.03675 -0.05600
N 	N 	0.10966 0.60874 0.97381 -0.19800
H 	H 	0.12369 0.54480 0.97196 0.05600
C 	C 	0.08284 0.49110 0.98686 -0.03600
N 	N 	0.01991 0.51080 0.05798 -0.19000
H 	H 	0.00507 0.57434 0.05385 0.05500
C 	C 	0.11048 0.47484 0.01932 -0.07000
C 	C 	0.11887 0.44184 0.00067 0.10600
C 	C 	0.09667 0.42371 0.95447 -0.06100
C 	C 	0.06941 0.44021 0.92119 -0.05600
C 	C 	0.06355 0.47419 0.93415 0.07700
H 	H 	0.12611 0.48818 0.05780 0.04900
N 	N 	0.14896 0.42835 0.02457 -0.20000
H 	H 	0.05299 0.42668 0.88432 0.05000
N 	N 	0.03992 0.49052 0.89510 -0.19600
H 	H 	0.16378 0.44095 0.06239 0.08500
H 	H 	0.15931 0.40667 0.00221 0.09700
H 	H 	0.02457 0.47749 0.85873 0.08300
H 	H 	0.03784 0.51638 0.89770 0.08900
H 	H 	0.99425 0.51681 0.07085 0.08500
H 	H 	0.02817 0.48632 0.06342 0.09100
H 	H 	0.10278 0.63382 0.97782 0.09000
H 	H 	0.13493 0.60270 0.95818 0.08400
C 	C 	0.99457 0.64740 0.81924 -0.05700
C 	C 	0.97244 0.62154 0.79399 0.10100
C 	C 	0.96768 0.61677 0.72291 -0.08600
C 	C 	0.98307 0.63843 0.67714 -0.00800
C 	C 	0.00177 0.66657 0.70287 0.07500
C 	C 	0.00780 0.67050 0.77380 -0.04900
N 	N 	0.95514 0.60180 0.83764 -0.19900
H 	H 	0.95222 0.59596 0.70314 0.05300
C 	C 	0.98151 0.63009 0.60265 -0.00800
N 	N 	0.01426 0.68961 0.65983 -0.19400
H 	H 	0.02378 0.69098 0.79342 0.05200
C 	C 	0.95101 0.63712 0.56564 -0.08600
C 	C 	0.94853 0.62941 0.49502 0.10300
C 	C 	0.97793 0.61618 0.46026 -0.05300
C 	C 	0.00822 0.60863 0.49755 -0.04900
C 	C 	0.01010 0.61488 0.56868 0.07400
H 	H 	0.92890 0.64809 0.59213 0.05600
N 	N 	0.91764 0.63370 0.46156 -0.19900
H 	H 	0.03054 0.59810 0.47102 0.05000
N 	N 	0.03933 0.60616 0.60394 -0.19400
H 	H 	0.89658 0.64484 0.48692 0.08700
H 	H 	0.91361 0.62454 0.41145 0.09400
H 	H 	0.06056 0.59560 0.57813 0.08500
H 	H 	0.04107 0.60906 0.65723 0.09100
H 	H 	0.02893 0.70977 0.67908 0.09100
H 	H 	0.00877 0.68827 0.60728 0.09500
H 	H 	0.95493 0.60711 0.89038 0.08900
H 	H 	0.94012 0.58182 0.81864 0.08300
C 	C 	0.07829 0.98424 0.03162 -0.06500
C 	C 	0.05622 0.01214 0.03396 -0.03200
C 	C 	0.07017 0.04439 0.04254 -0.01800
C 	C 	0.10661 0.04893 0.04740 -0.07500
C 	C 	0.12805 0.02088 0.05449 -0.01300
C 	C 	0.11407 0.98862 0.04671 -0.02500
H 	H 	0.02840 0.00889 0.02556 0.01800
H 	H 	0.15594 0.02415 0.06152 0.04500
C 	C 	0.13694 0.96026 0.05043 0.03900
C 	C 	0.04703 0.07265 0.04336 0.02900
N 	N 	0.15518 0.93746 0.05333 -0.12000
N 	N 	0.02845 0.09529 0.04412 -0.13200
C 	C 	0.95941 0.92355 0.88540 -0.08700
C 	C 	0.96082 0.92981 0.81516 -0.02600
C 	C 	0.94288 0.95678 0.78888 0.00400
C 	C 	0.92476 0.97865 0.83395 -0.09200
C 	C 	0.91888 0.96927 0.90150 -0.02700
C 	C 	0.93461 0.94055 0.92618 0.00700
H 	H 	0.97705 0.91456 0.78157 0.02300
H 	H 	0.90216 0.98424 0.93458 0.04300
C 	C 	0.92115 0.92581 0.98695 0.07500
C 	C 	0.94394 0.96225 0.71618 0.08700
N 	N 	0.91016 0.91370 0.03524 -0.09900
N 	N 	0.94476 0.96672 0.65794 -0.10100
C 	C 	0.18361 0.87252 0.77313 -0.09600
C 	C 	0.19567 0.86793 0.84034 -0.03300
C 	C 	0.17161 0.86255 0.89239 -0.01600
C 	C 	0.13600 0.85863 0.87496 -0.11300
C 	C 	0.12661 0.85321 0.80552 -0.03700
C 	C 	0.15108 0.85901 0.75435 -0.01000
H 	H 	0.22249 0.87406 0.85373 0.04000
H 	H 	0.10006 0.84638 0.79151 0.02900
C 	C 	0.14217 0.85278 0.68307 0.08400
C 	C 	0.18332 0.86303 0.96301 0.05000
N 	N 	0.13503 0.84778 0.62587 -0.10400
N 	N 	0.19276 0.86340 0.01957 -0.09100
C 	C 	0.01779 0.70949 0.03493 0.00700
C 	C 	0.04961 0.72342 0.05740 -0.05800
C 	C 	0.05206 0.75766 0.07224 0.04900
C 	C 	0.02280 0.77813 0.06226 -0.07200
C 	C 	0.99003 0.76327 0.05146 -0.00300
C 	C 	0.98736 0.72900 0.03840 0.00600
S 	S 	0.09241 0.77496 0.09806 -0.02200
S 	S 	0.94590 0.71079 0.02646 -0.01000
H 	H 	0.93679 0.71110 0.95838 0.03200
H 	H 	0.11057 0.78375 0.04126 0.05500
H 	H 	0.07284 0.70813 0.05897 0.05600
H 	H 	0.96701 0.77872 0.04733 0.05300
C 	C 	0.98176 0.94210 0.19557 -0.08700
C 	C 	0.94866 0.95020 0.16977 -0.01700
C 	C 	0.94194 0.98249 0.14777 -0.00600
C 	C 	0.96680 0.00782 0.16004 -0.07300
C 	C 	0.00117 0.99872 0.17611 -0.04100
C 	C 	0.00903 0.96557 0.19103 0.00100
H 	H 	0.92794 0.93187 0.16900 0.03800
H 	H 	0.02143 0.01747 0.17937 0.02900
C 	C 	0.04498 0.95520 0.19528 0.01900
C 	C 	0.91039 0.98914 0.10978 0.08100
N 	N 	0.07379 0.94676 0.19806 -0.17300
N 	N 	0.88518 0.99432 0.07884 -0.11400
C 	C 	0.89929 0.85842 0.41018 -0.12000
C 	C 	0.91394 0.86783 0.47440 -0.03500
C 	C 	0.89268 0.88152 0.52602 -0.01400
C 	C 	0.85756 0.88821 0.51124 -0.10000
C 	C 	0.84178 0.87040 0.45639 -0.03500
C 	C 	0.86243 0.85683 0.40369 -0.03000
H 	H 	0.94170 0.86512 0.48366 -0.00700
H 	H 	0.81372 0.87173 0.44934 0.03500
C 	C 	0.84556 0.84164 0.34404 0.06400
C 	C 	0.90670 0.88789 0.59398 0.08100
N 	N 	0.83191 0.82948 0.29636 -0.11200
N 	N 	0.91793 0.89272 0.64865 -0.11000
C 	C 	0.08597 0.85517 0.33211 -0.08000
C 	C 	0.10676 0.86909 0.28171 -0.02100
C 	C 	0.13570 0.88844 0.30120 -0.01300
C 	C 	0.14226 0.89561 0.37141 -0.08400
C 	C 	0.12644 0.87574 0.42011 -0.00600
C 	C 	0.09851 0.85506 0.40043 -0.00400
H 	H 	0.09918 0.86669 0.22805 0.05400
H 	H 	0.13390 0.87836 0.47380 0.06100
C 	C 	0.08373 0.83309 0.44955 0.08600
C 	C 	0.15743 0.90231 0.24925 0.07400
N 	N 	0.07193 0.81545 0.48890 -0.10700
N 	N 	0.17486 0.91343 0.20766 -0.10200
C 	C 	0.96729 0.73191 0.21165 -0.07000
C 	C 	0.99955 0.71574 0.20676 -0.02100
C 	C 	0.00177 0.68150 0.21585 0.02500
C 	C 	0.97171 0.66363 0.23308 -0.02100
C 	C 	0.93896 0.67874 0.22659 -0.04600
C 	C 	0.93664 0.71284 0.21535 0.04300
S 	S 	0.04263 0.66175 0.21063 -0.02600
S 	S 	0.89541 0.73184 0.21096 -0.03000
H 	H 	0.88588 0.74278 0.27531 0.04800
H 	H 	0.05768 0.66147 0.27461 0.03800
H 	H 	0.02318 0.73019 0.20159 0.05100
H 	H 	0.91551 0.66461 0.23598 0.04900
