data_crystal

_cell_length_a 20.35819
_cell_length_b 22.74324
_cell_length_c 88.16244
_cell_angle_alpha 90.04908
_cell_angle_beta  90.02185
_cell_angle_gamma 119.53372

_symmetry_space_group_name_	'P 1'
_symmetry_space_group_name_H-M	'P 1'

loop_
_symmetry_equiv_pos_as_xyz
  x,y,z

loop_
_atom_site_label
_atom_site_type_symbol
_atom_site_fract_x
_atom_site_fract_y
_atom_site_fract_z
_atom_site_charge
C 	C 	0.23303 0.12202 0.00151 0.42000
O 	O 	0.05031 0.00156 0.00231 -0.74500
H 	H 	0.02520 0.95217 0.00100 0.20900
Ni	Ni	0.96461 0.01284 0.00463 1.12600
O 	O 	0.18900 0.11048 0.01321 -0.33200
O 	O 	0.16681 0.97063 0.00738 -0.28800
F 	F 	0.90105 0.78092 0.01119 -0.31600
C 	C 	0.36429 0.14478 0.00438 0.31900
C 	C 	0.31385 0.16997 0.00333 -0.19300
C 	C 	0.33561 0.23412 0.00939 0.32900
F 	F 	0.29189 0.26306 0.00709 -0.31600
Ni	Ni	0.11055 0.01314 0.01941 1.12400
O 	O 	0.93261 0.95159 0.02354 -0.29900
O 	O 	0.02224 0.09757 0.01716 -0.33300
C 	C 	0.43487 0.22917 0.02353 0.00800
C 	C 	0.42406 0.17355 0.01475 0.23900
C 	C 	0.39616 0.26372 0.01957 0.24500
F 	F 	0.46585 0.14309 0.01748 -0.31100
C 	C 	0.95281 0.90507 0.02650 0.39000
C 	C 	0.04281 0.09604 0.03114 0.41700
O 	O 	0.02478 0.92079 0.02679 -0.30200
C 	C 	0.88179 0.78006 0.02596 0.32000
F 	F 	0.83785 0.66168 0.02700 -0.30100
F 	F 	0.41112 0.32142 0.02695 -0.30700
F 	F 	0.59294 0.29273 0.02857 -0.30300
F 	F 	0.10488 0.23761 0.02783 -0.30800
O 	O 	0.06675 0.05406 0.03507 -0.31200
C 	C 	0.89769 0.84052 0.03329 -0.17900
C 	C 	0.85085 0.71947 0.03409 0.25300
C 	C 	0.54634 0.26934 0.04076 0.24900
C 	C 	0.46786 0.23844 0.03882 0.00100
C 	C 	0.02618 0.24000 0.04753 0.25800
C 	C 	0.05613 0.20583 0.03940 0.31900
C 	C 	0.03271 0.13780 0.04264 -0.18000
F 	F 	0.04534 0.30425 0.04365 -0.30300
C 	C 	0.83597 0.71896 0.04964 0.00200
F 	F 	0.93491 0.66872 0.05681 -0.32100
C 	C 	0.84641 0.77837 0.05671 0.24500
C 	C 	0.87648 0.83880 0.04851 0.32100
F 	F 	0.89017 0.89665 0.05565 -0.31800
C 	C 	0.42006 0.21404 0.05151 0.23300
C 	C 	0.57684 0.27647 0.05533 0.32400
F 	F 	0.34395 0.18240 0.04969 -0.34400
F 	F 	0.65291 0.30740 0.05716 -0.34900
C 	C 	0.98602 0.10690 0.05524 0.30400
F 	F 	0.82303 0.16625 0.05089 -0.32300
C 	C 	0.73744 0.62111 0.06411 0.24200
C 	C 	0.81155 0.65685 0.05863 0.00500
C 	C 	0.86295 0.63434 0.06206 0.24000
F 	F 	0.68724 0.64215 0.06073 -0.31200
C 	C 	0.45051 0.22169 0.06604 0.32400
C 	C 	0.52896 0.25311 0.06802 -0.19800
C 	C 	0.95647 0.14127 0.06345 0.24600
C 	C 	0.97370 0.20680 0.05915 -0.01200
C 	C 	0.93176 0.23802 0.06585 0.00900
F 	F 	0.96515 0.04204 0.05887 -0.33800
C 	C 	0.81492 0.24137 0.06869 0.32500
C 	C 	0.85640 0.21503 0.06163 0.23700
F 	F 	0.74136 0.21718 0.06490 -0.34200
C 	C 	0.84042 0.57672 0.07103 0.32100
C 	C 	0.76657 0.54171 0.07684 -0.18900
C 	C 	0.71512 0.56435 0.07328 0.32000
F 	F 	0.83046 0.77809 0.07167 -0.32700
F 	F 	0.89017 0.55473 0.07400 -0.35000
C 	C 	0.96644 0.28989 0.07662 0.23200
F 	F 	0.90835 0.10983 0.07513 -0.33700
C 	C 	0.74356 0.48313 0.08705 0.39400
C 	C 	0.56108 0.26450 0.08334 0.39600
C 	C 	0.80140 0.30854 0.08947 0.40700
O 	O 	0.67103 0.43675 0.08741 -0.31500
O 	O 	0.82303 0.37362 0.09157 -0.31800
O 	O 	0.54113 0.29599 0.09350 -0.32700
O 	O 	0.60268 0.23667 0.08725 -0.31900
H 	H 	0.69561 0.34984 0.09317 0.18400
F 	F 	0.64445 0.53304 0.07923 -0.35900
F 	F 	0.40374 0.19790 0.07821 -0.36200
C 	C 	0.92512 0.31658 0.08361 0.32300
C 	C 	0.84863 0.29129 0.07992 -0.19300
F 	F 	0.03953 0.31302 0.08064 -0.31900
O 	O 	0.79224 0.48632 0.09771 -0.33000
O 	O 	0.75030 0.26006 0.09837 -0.35000
O 	O 	0.68953 0.34841 0.10427 -0.72600
F 	F 	0.95821 0.36447 0.09455 -0.36500
Ni	Ni	0.61940 0.37875 0.10634 1.12800
Ni	Ni	0.65587 0.25540 0.10757 1.13300
Ni	Ni	0.79145 0.40771 0.10967 1.13500
N 	N 	0.77788 0.62927 0.10724 -0.05700
O 	O 	0.55270 0.22686 0.11688 -0.34400
O 	O 	0.68164 0.46823 0.11855 -0.33900
O 	O 	0.81876 0.34927 0.12272 -0.34100
N 	N 	0.68492 0.12435 0.11660 -0.08200
C 	C 	0.77789 0.61526 0.11985 0.12200
C 	C 	0.54153 0.26206 0.12740 0.31000
C 	C 	0.73234 0.47670 0.12884 0.30700
C 	C 	0.77036 0.29719 0.13088 0.30900
O 	O 	0.69759 0.27000 0.12859 -0.37600
O 	O 	0.57595 0.32813 0.12658 -0.35800
O 	O 	0.76306 0.43780 0.12900 -0.36800
C 	C 	0.72383 0.15464 0.12660 0.09800
H 	H 	0.43003 0.29025 0.13281 0.06700
C 	C 	0.77236 0.19226 0.13911 0.04100
C 	C 	0.79852 0.26220 0.14082 -0.06500
N 	N 	0.97574 0.15210 0.14198 -0.07500
C 	C 	0.47868 0.22723 0.13824 -0.06200
C 	C 	0.42591 0.24959 0.13990 0.02600
C 	C 	0.77815 0.59838 0.13562 0.03800
C 	C 	0.75642 0.53156 0.14012 -0.06600
H 	H 	0.81971 0.70107 0.14305 0.08200
C 	C 	0.79548 0.15906 0.14935 -0.04700
C 	C 	0.85156 0.29867 0.15215 0.02700
C 	C 	0.94836 0.14321 0.15387 0.11500
H 	H 	0.77366 0.10503 0.14829 0.07600
H 	H 	0.87305 0.35262 0.15328 0.06300
C 	C 	0.36845 0.22031 0.15074 -0.02900
C 	C 	0.47234 0.17358 0.14733 0.03500
C 	C 	0.31612 0.24546 0.15249 0.12000
C 	C 	0.52694 0.15070 0.14622 0.10000
N 	N 	0.57058 0.13224 0.14536 -0.09200
C 	C 	0.80311 0.64983 0.14650 -0.04700
C 	C 	0.91416 0.13214 0.16870 -0.02800
C 	C 	0.84663 0.19509 0.16097 0.03200
C 	C 	0.87605 0.26559 0.16217 -0.02900
C 	C 	0.36290 0.16752 0.15998 0.03000
C 	C 	0.41412 0.14368 0.15804 -0.04700
C 	C 	0.23117 0.09162 0.16881 -0.05100
N 	N 	0.27417 0.26557 0.15391 -0.08300
H 	H 	0.40975 0.10297 0.16514 0.07300
H 	H 	0.21524 0.07587 0.15714 0.07500
C 	C 	0.78660 0.56939 0.16632 -0.02900
C 	C 	0.80778 0.63586 0.16181 0.03100
C 	C 	0.76089 0.51764 0.15548 0.02100
H 	H 	0.74447 0.46649 0.15898 0.06100
H 	H 	0.95267 0.72444 0.16836 0.07800
C 	C 	0.86572 0.15792 0.17236 0.02900
C 	C 	0.93078 0.09666 0.17963 0.01500
C 	C 	0.93158 0.30428 0.17361 0.12000
N 	N 	0.97606 0.33523 0.18278 -0.07700
H 	H 	0.96865 0.07746 0.17684 0.05300
C 	C 	0.30614 0.13937 0.17230 0.02900
C 	C 	0.17661 0.06486 0.18030 0.03600
C 	C 	0.09883 0.01897 0.17633 0.05800
N 	N 	0.03651 0.98226 0.17317 -0.07100
C 	C 	0.83561 0.69149 0.17302 0.03200
C 	C 	0.91356 0.73342 0.17499 -0.04500
C 	C 	0.78472 0.70381 0.18142 -0.02500
C 	C 	0.70420 0.66185 0.17939 0.12700
C 	C 	0.79135 0.55399 0.18204 0.12000
N 	N 	0.63972 0.62819 0.17776 -0.07800
C 	C 	0.83405 0.14740 0.18689 -0.04600
H 	H 	0.79652 0.16697 0.18968 0.07700
C 	C 	0.32647 0.16097 0.18743 -0.02700
C 	C 	0.40282 0.21157 0.19121 0.12000
C 	C 	0.94120 0.78697 0.18539 0.03800
C 	C 	0.89024 0.79848 0.19405 -0.05200
C 	C 	0.81219 0.75698 0.19189 0.02700
C 	C 	0.02178 0.83066 0.18683 0.09900
N 	N 	0.08637 0.86552 0.18796 -0.07900
F 	F 	0.35000 0.08777 0.99681 -0.32900
C 	C 	0.91755 0.85115 0.20592 0.29400
C 	C 	0.14300 0.05231 0.20793 0.26100
C 	C 	0.92697 0.05808 0.20613 0.28800
O 	O 	0.88138 0.88603 0.20780 -0.34700
O 	O 	0.00046 0.08971 0.20928 -0.36900
O 	O 	0.11246 0.98597 0.20974 -0.31600
C 	C 	0.85224 0.11365 0.19796 0.03500
C 	C 	0.90053 0.08750 0.19431 -0.05900
C 	C 	0.19756 0.08474 0.19550 -0.05500
C 	C 	0.27226 0.13342 0.19893 0.01800
N 	N 	0.46400 0.25210 0.19422 -0.08100
H 	H 	0.28844 0.14901 0.21061 0.08300
N 	N 	0.79517 0.54171 0.19463 -0.06900
H 	H 	0.77281 0.76538 0.19857 0.08000
Ni	Ni	0.04591 0.93650 0.22839 1.12800
Ni	Ni	0.04214 0.07748 0.22890 1.12700
Ni	Ni	0.88767 0.93794 0.22694 1.14100
O 	O 	0.96545 0.85164 0.21631 -0.33400
O 	O 	0.87575 0.00975 0.21513 -0.35500
O 	O 	0.13968 0.09107 0.21891 -0.34100
O 	O 	0.99374 0.98342 0.22454 -0.70800
H 	H 	0.99630 0.98493 0.21338 0.16500
C 	C 	0.82462 0.10968 0.21321 0.12100
N 	N 	0.80238 0.10686 0.22541 -0.06100
C 	C 	0.12153 0.04178 0.25214 0.41500
C 	C 	0.91756 0.85377 0.24904 0.41100
C 	C 	0.90910 0.04339 0.24848 0.39400
O 	O 	0.96053 0.08853 0.23938 -0.34500
O 	O 	0.13398 0.00921 0.24126 -0.34500
O 	O 	0.07808 0.06852 0.24980 -0.33300
O 	O 	0.98990 0.89695 0.24856 -0.32400
O 	O 	0.87225 0.85360 0.23832 -0.32200
O 	O 	0.88791 0.97897 0.24709 -0.30600
F 	F 	0.27482 0.07767 0.25586 -0.36600
C 	C 	0.83285 0.73246 0.25621 0.31900
C 	C 	0.88975 0.79800 0.26020 -0.19200
F 	F 	0.76003 0.61511 0.26199 -0.32800
F 	F 	0.79600 0.72116 0.24276 -0.36400
C 	C 	0.78589 0.03132 0.25672 0.29500
C 	C 	0.86493 0.06384 0.25817 -0.18600
F 	F 	0.66942 0.02910 0.26147 -0.32800
F 	F 	0.79895 0.24347 0.26284 -0.32900
F 	F 	0.74912 0.97555 0.24784 -0.34900
C 	C 	0.15538 0.04743 0.26719 -0.20500
C 	C 	0.23184 0.06572 0.26848 0.32300
F 	F 	0.03714 0.01633 0.27924 -0.33400
C 	C 	0.85651 0.68789 0.27938 0.00500
C 	C 	0.81574 0.67789 0.26586 0.23700
C 	C 	0.92717 0.80828 0.27422 0.32500
F 	F 	0.97952 0.87147 0.27865 -0.32300
F 	F 	0.88679 0.58310 0.27081 -0.32200
C 	C 	0.86121 0.14801 0.27459 0.24200
C 	C 	0.78283 0.11786 0.27240 0.00000
C 	C 	0.74517 0.05880 0.26363 0.24500
C 	C 	0.90214 0.12140 0.26741 0.32400
C 	C 	0.74022 0.14788 0.27943 0.00200
F 	F 	0.97814 0.15199 0.26930 -0.34000
C 	C 	0.75354 0.21208 0.27488 0.24000
F 	F 	0.74020 0.30908 0.27934 -0.33300
C 	C 	0.22192 0.06528 0.29596 0.00000
C 	C 	0.14449 0.04330 0.29467 0.25000
C 	C 	0.11151 0.03526 0.28035 0.33700
C 	C 	0.26504 0.07491 0.28279 0.23100
F 	F 	0.34012 0.09668 0.28388 -0.33500
C 	C 	0.85170 0.57742 0.28426 0.24500
C 	C 	0.83967 0.62993 0.28938 0.00400
C 	C 	0.82453 0.51779 0.29271 0.32400
F 	F 	0.83076 0.46519 0.28707 -0.32500
C 	C 	0.91184 0.75337 0.28357 0.24500
F 	F 	0.95143 0.76370 0.29663 -0.29800
C 	C 	0.72251 0.24511 0.28315 0.32100
C 	C 	0.67723 0.21377 0.29589 -0.19400
C 	C 	0.65785 0.14691 0.29944 0.32400
C 	C 	0.69016 0.11450 0.29141 0.24400
F 	F 	0.67539 0.05180 0.29568 -0.30600
F 	F 	0.89774 0.20346 0.28357 -0.31700
C 	C 	0.66302 0.25429 0.30707 0.42100
C 	C 	0.73390 0.44305 0.31225 0.39900
O 	O 	0.63482 0.29261 0.30275 -0.31300
O 	O 	0.66051 0.42138 0.31108 -0.31600
O 	O 	0.75975 0.40075 0.31555 -0.31000
C 	C 	0.26034 0.08879 0.31071 0.01200
F 	F 	0.23084 0.17842 0.31139 -0.31400
F 	F 	0.10190 0.03219 0.30731 -0.29900
F 	F 	0.28539 0.99657 0.31215 -0.27900
C 	C 	0.80749 0.62515 0.30373 0.25000
C 	C 	0.78242 0.56637 0.31234 0.32600
C 	C 	0.78609 0.51075 0.30641 -0.18400
F 	F 	0.79704 0.67609 0.30898 -0.29400
F 	F 	0.61011 0.11443 0.31110 -0.31300
Ni	Ni	0.57969 0.32547 0.31769 1.13200
O 	O 	0.51120 0.35833 0.32873 -0.30200
O 	O 	0.68200 0.25395 0.32123 -0.33600
O 	O 	0.50797 0.22573 0.32331 -0.33600
C 	C 	0.29993 0.05856 0.31696 0.22700
C 	C 	0.27175 0.15034 0.31669 0.23400
C 	C 	0.33121 0.18678 0.32676 0.32300
C 	C 	0.37963 0.16191 0.33086 -0.19700
C 	C 	0.35960 0.09516 0.32705 0.33500
F 	F 	0.40305 0.06868 0.33177 -0.32300
F 	F 	0.34819 0.25025 0.33077 -0.33100
F 	F 	0.74941 0.56149 0.32600 -0.31600
F 	F 	0.60227 0.53656 0.33551 -0.32300
C 	C 	0.52865 0.39555 0.34139 0.40800
C 	C 	0.45888 0.21024 0.33421 0.42400
Ni	Ni	0.72829 0.33812 0.33421 1.13900
Ni	Ni	0.58421 0.30734 0.35403 1.13900
O 	O 	0.56292 0.38495 0.35305 -0.33000
O 	O 	0.71960 0.27725 0.35179 -0.32900
O 	O 	0.47609 0.24946 0.34623 -0.31500
O 	O 	0.77370 0.41606 0.34868 -0.32600
O 	O 	0.59125 0.22275 0.35420 -0.34600
O 	O 	0.63664 0.34055 0.33544 -0.72500
H 	H 	0.65656 0.38938 0.33689 0.18700
C 	C 	0.42293 0.40753 0.35172 0.32800
C 	C 	0.49275 0.43678 0.34419 -0.18200
C 	C 	0.53659 0.50746 0.34342 0.32200
C 	C 	0.51655 0.54794 0.35205 0.25000
F 	F 	0.38019 0.33936 0.35270 -0.32300
F 	F 	0.56323 0.61584 0.35251 -0.30200
F 	F 	0.59692 0.09260 0.34324 -0.31400
C 	C 	0.65569 0.22359 0.35571 0.42800
C 	C 	0.74429 0.41460 0.36222 0.39600
O 	O 	0.67966 0.36133 0.36683 -0.31100
C 	C 	0.45201 0.51773 0.36127 0.00800
F 	F 	0.35805 0.57736 0.36206 -0.30200
C 	C 	0.40205 0.44810 0.36000 0.23900
F 	F 	0.33743 0.41879 0.36828 -0.31900
C 	C 	0.84157 0.53180 0.36908 0.32100
F 	F 	0.82708 0.55546 0.35610 -0.32400
C 	C 	0.59307 0.04664 0.36769 0.23400
C 	C 	0.61707 0.10240 0.35809 0.33100
C 	C 	0.65668 0.16821 0.36401 -0.19500
F 	F 	0.55157 0.98323 0.36199 -0.28600
C 	C 	0.44698 0.55418 0.37464 0.00400
C 	C 	0.39524 0.57806 0.37490 0.25100
C 	C 	0.79399 0.46443 0.37357 -0.18000
C 	C 	0.90694 0.57326 0.37739 0.24800
F 	F 	0.95569 0.63638 0.37231 -0.30300
F 	F 	0.03687 0.51507 0.38284 -0.31900
C 	C 	0.67938 0.17767 0.37928 0.32000
C 	C 	0.48611 0.55618 0.38792 0.23600
C 	C 	0.38018 0.60088 0.38852 0.32300
F 	F 	0.53656 0.53348 0.38774 -0.33200
F 	F 	0.33055 0.62447 0.38864 -0.33100
C 	C 	0.05360 0.56393 0.39340 0.24200
C 	C 	0.00074 0.58447 0.39698 0.00400
C 	C 	0.92420 0.54817 0.39041 0.00400
F 	F 	0.17145 0.56893 0.39815 -0.33500
C 	C 	0.87171 0.48414 0.39598 0.24200
C 	C 	0.80665 0.44240 0.38762 0.32100
F 	F 	0.75891 0.37893 0.39263 -0.32900
C 	C 	0.65444 0.12192 0.38895 0.24400
C 	C 	0.60811 0.05637 0.38330 -0.01400
C 	C 	0.56908 0.99906 0.39387 0.02600
F 	F 	0.72019 0.24105 0.38502 -0.33100
C 	C 	0.49132 0.97130 0.39655 0.23500
F 	F 	0.45201 0.99738 0.38953 -0.31200
C 	C 	0.41601 0.59899 0.40201 -0.18900
C 	C 	0.47028 0.57783 0.40156 0.32100
F 	F 	0.50492 0.57500 0.41449 -0.36100
C 	C 	0.12250 0.59180 0.40113 0.32300
F 	F 	0.88610 0.46083 0.40903 -0.33300
C 	C 	0.45402 0.91667 0.40647 0.32400
C 	C 	0.57246 0.91841 0.41141 0.32400
C 	C 	0.60944 0.97241 0.40133 0.23800
F 	F 	0.37852 0.88919 0.40867 -0.35200
F 	F 	0.68460 0.99901 0.39883 -0.30700
F 	F 	0.67153 0.13179 0.40396 -0.33200
C 	C 	0.01941 0.63646 0.40757 0.24200
C 	C 	0.45497 0.83179 0.42427 0.39700
C 	C 	0.20191 0.65730 0.42298 0.40200
C 	C 	0.39434 0.61609 0.41662 0.38600
O 	O 	0.47583 0.78477 0.42430 -0.32400
O 	O 	0.32121 0.58834 0.41994 -0.31900
C 	C 	0.08866 0.66479 0.41522 0.32300
C 	C 	0.13944 0.64090 0.41239 -0.18800
F 	F 	0.96924 0.65759 0.41088 -0.32100
C 	C 	0.49430 0.88977 0.41392 -0.19600
F 	F 	0.61280 0.89476 0.41898 -0.35800
O 	O 	0.24894 0.72192 0.42621 -0.30400
O 	O 	0.44722 0.64631 0.42726 -0.32700
Ni	Ni	0.28512 0.59876 0.44049 1.13200
Ni	Ni	0.45491 0.71973 0.44161 1.13600
O 	O 	0.41001 0.83446 0.43498 -0.32900
O 	O 	0.19704 0.60779 0.43183 -0.34600
O 	O 	0.35130 0.69323 0.43898 -0.72700
H 	H 	0.35000 0.69892 0.42793 0.18000
F 	F 	0.10436 0.71236 0.42606 -0.35800
C 	C 	0.40200 0.59817 0.46034 0.31100
Ni	Ni	0.31718 0.75170 0.44541 1.12700
O 	O 	0.35280 0.56635 0.44944 -0.35900
O 	O 	0.21893 0.68460 0.45688 -0.33300
O 	O 	0.48936 0.80242 0.45530 -0.34000
O 	O 	0.44304 0.66452 0.46025 -0.36100
H 	H 	0.40040 0.48144 0.45414 0.08300
O 	O 	0.25343 0.60513 0.46194 -0.36900
C 	C 	0.21332 0.63434 0.46517 0.30900
C 	C 	0.44818 0.80707 0.46624 0.31100
O 	O 	0.37463 0.77047 0.46576 -0.36300
C 	C 	0.43613 0.45965 0.47537 -0.02700
C 	C 	0.42196 0.55854 0.47085 -0.06100
C 	C 	0.41785 0.49829 0.46570 0.02300
C 	C 	0.42755 0.39618 0.47001 0.12400
N 	N 	0.42070 0.34535 0.46572 -0.07600
C 	C 	0.48262 0.86525 0.47673 -0.06700
C 	C 	0.44693 0.90393 0.47896 0.03400
N 	N 	0.64811 0.13278 0.47474 -0.07400
H 	H 	0.39491 0.89091 0.47298 0.05700
C 	C 	0.15394 0.60432 0.47679 -0.06300
C 	C 	0.09727 0.53662 0.47533 0.02500
H 	H 	0.09829 0.50686 0.46579 0.06400
C 	C 	0.46141 0.48231 0.49024 0.03000
C 	C 	0.44465 0.57994 0.48596 0.03400
H 	H 	0.58167 0.46337 0.48748 0.07800
C 	C 	0.55079 0.88293 0.48441 0.04500
C 	C 	0.47781 0.95919 0.48885 -0.04000
C 	C 	0.58702 0.84231 0.48286 0.11200
C 	C 	0.43843 0.99661 0.49135 0.14400
C 	C 	0.63245 0.11863 0.48734 0.11300
N 	N 	0.61601 0.80975 0.48163 -0.07500
C 	C 	0.03873 0.50749 0.48594 -0.02300
C 	C 	0.98032 0.43798 0.48406 0.11300
N 	N 	0.89467 0.58905 0.48667 -0.07600
N 	N 	0.93348 0.38231 0.48257 -0.08100
C 	C 	0.46605 0.54267 0.49540 -0.04600
C 	C 	0.48306 0.44301 0.50055 0.02900
C 	C 	0.54855 0.43921 0.49752 -0.04700
C 	C 	0.57088 0.40367 0.50729 0.03200
C 	C 	0.63354 0.39411 0.50305 0.10100
C 	C 	0.44251 0.63791 0.49210 0.10800
N 	N 	0.68359 0.38629 0.49964 -0.09000
N 	N 	0.44071 0.68429 0.49702 -0.08500
H 	H 	0.48492 0.55988 0.50689 0.07700
C 	C 	0.61284 0.10090 0.50307 -0.02600
C 	C 	0.57680 0.03273 0.50773 0.01600
C 	C 	0.54616 0.97724 0.49644 0.05200
C 	C 	0.58242 0.93911 0.49413 -0.05200
N 	N 	0.40694 0.02662 0.49335 -0.09900
H 	H 	0.65487 0.20428 0.51008 0.06100
H 	H 	0.63449 0.95246 0.50012 0.08500
C 	C 	0.03695 0.54622 0.49827 0.03800
C 	C 	0.09382 0.61381 0.49981 -0.04700
C 	C 	0.15228 0.64309 0.48915 0.03900
C 	C 	0.91047 0.52059 0.50860 -0.02800
C 	C 	0.90168 0.55860 0.49643 0.11700
C 	C 	0.21135 0.71227 0.49118 0.10600
N 	N 	0.25867 0.76768 0.49281 -0.08500
C 	C 	0.52985 0.37489 0.52074 -0.06300
C 	C 	0.43870 0.40955 0.51333 -0.02500
C 	C 	0.36839 0.40881 0.51615 0.12600
N 	N 	0.31208 0.40825 0.51839 -0.07600
C 	C 	0.62895 0.15200 0.51373 0.02000
C 	C 	0.97670 0.51570 0.50985 0.02800
C 	C 	0.85203 0.48750 0.51913 0.02500
H 	H 	0.09268 0.64345 0.50935 0.08300
H 	H 	0.80107 0.49122 0.51817 0.05700
C 	C 	0.62276 0.18964 0.53987 0.30600
C 	C 	0.56084 0.35020 0.53278 0.30900
O 	O 	0.58387 0.22124 0.53836 -0.36600
O 	O 	0.63249 0.38661 0.53637 -0.37700
C 	C 	0.46270 0.37644 0.52344 0.01900
H 	H 	0.43024 0.35352 0.53363 0.09400
C 	C 	0.56217 0.01695 0.52315 -0.06000
C 	C 	0.57873 0.06795 0.53383 0.04100
C 	C 	0.61089 0.13585 0.52907 -0.06600
H 	H 	0.53514 0.96456 0.52675 0.09300
C 	C 	0.98443 0.47915 0.52185 -0.05900
C 	C 	0.92584 0.44568 0.53231 0.04600
C 	C 	0.85843 0.44852 0.53074 -0.06500
H 	H 	0.03583 0.47622 0.52292 0.08800
C 	C 	0.79439 0.41053 0.54106 0.31100
O 	O 	0.51387 0.30024 0.54162 -0.34600
O 	O 	0.67007 0.20370 0.55121 -0.33700
O 	O 	0.76641 0.34512 0.54247 -0.35700
O 	O 	0.77417 0.44365 0.55044 -0.34400
C 	C 	0.55957 0.04966 0.54954 0.11500
C 	C 	0.93607 0.41006 0.54484 0.10700
Ni	Ni	0.72011 0.29584 0.56273 1.12900
Ni	Ni	0.54447 0.24981 0.55642 1.13300
Ni	Ni	0.66638 0.40701 0.55797 1.13200
O 	O 	0.56461 0.39332 0.56505 -0.35800
O 	O 	0.64204 0.31699 0.56263 -0.72700
F 	F 	0.36727 0.30562 0.56559 -0.37400
N 	N 	0.54393 0.03442 0.56210 -0.06300
N 	N 	0.94424 0.38155 0.55488 -0.06700
C 	C 	0.59709 0.18641 0.58128 0.39900
C 	C 	0.51695 0.34533 0.57444 0.40500
O 	O 	0.78752 0.38368 0.57530 -0.33300
O 	O 	0.71282 0.43313 0.57897 -0.32100
O 	O 	0.50010 0.28105 0.57294 -0.32100
O 	O 	0.66665 0.23864 0.58167 -0.31100
O 	O 	0.54887 0.17766 0.56998 -0.33300
H 	H 	0.63216 0.31668 0.57357 0.18500
C 	C 	0.39602 0.34548 0.57804 0.32000
F 	F 	0.28904 0.36195 0.57877 -0.33000
C 	C 	0.75984 0.41319 0.58427 0.40200
C 	C 	0.46723 0.36054 0.58369 -0.19300
C 	C 	0.35642 0.37471 0.58467 0.23800
F 	F 	0.43045 0.55368 0.58894 -0.33500
F 	F 	0.90858 0.51961 0.58851 -0.36400
C 	C 	0.57902 0.12897 0.59152 -0.19000
F 	F 	0.70443 0.14564 0.58870 -0.36300
C 	C 	0.37682 0.52304 0.59978 0.23900
C 	C 	0.34941 0.45455 0.60323 0.00200
C 	C 	0.38757 0.41885 0.59704 0.00400
F 	F 	0.38316 0.62821 0.60547 -0.33200
C 	C 	0.45660 0.43066 0.60325 0.24000
C 	C 	0.49637 0.40178 0.59656 0.32200
F 	F 	0.56478 0.41616 0.60220 -0.34300
C 	C 	0.86845 0.48505 0.60088 0.32600
C 	C 	0.79254 0.43511 0.59939 -0.19800
C 	C 	0.61590 0.05339 0.60361 0.24300
C 	C 	0.63412 0.11029 0.59473 0.32000
C 	C 	0.50577 0.09015 0.59739 0.32500
F 	F 	0.45238 0.10808 0.59464 -0.35000
F 	F 	0.52797 0.89544 0.59543 -0.32700
C 	C 	0.29147 0.42263 0.61393 0.24400
C 	C 	0.26669 0.46047 0.62224 0.32300
C 	C 	0.30056 0.53069 0.62006 -0.19400
C 	C 	0.35220 0.56095 0.60813 0.31800
F 	F 	0.26234 0.35580 0.61692 -0.30700
F 	F 	0.48610 0.47172 0.61550 -0.32300
C 	C 	0.90382 0.49786 0.61502 0.23100
C 	C 	0.75112 0.40024 0.61228 0.32700
F 	F 	0.97811 0.54468 0.61624 -0.34600
F 	F 	0.67743 0.35209 0.61093 -0.34500
C 	C 	0.48745 0.03268 0.60613 0.23100
C 	C 	0.54240 0.01393 0.60919 -0.00400
C 	C 	0.52228 0.95188 0.61792 0.01300
F 	F 	0.66946 0.03590 0.60659 -0.32000
C 	C 	0.51222 0.89342 0.61045 0.24200
C 	C 	0.48194 0.83197 0.61826 0.32200
F 	F 	0.46782 0.77491 0.61070 -0.32600
F 	F 	0.41608 0.99470 0.61148 -0.30800
C 	C 	0.29749 0.57301 0.63235 0.42200
C 	C 	0.40194 0.76355 0.63969 0.39900
O 	O 	0.27878 0.61960 0.62951 -0.31000
O 	O 	0.33160 0.75246 0.63995 -0.31300
F 	F 	0.21374 0.42990 0.63321 -0.31700
C 	C 	0.86353 0.46076 0.62779 0.00800
F 	F 	0.90785 0.36713 0.63826 -0.32000
C 	C 	0.78663 0.41292 0.62645 0.24700
F 	F 	0.74697 0.37755 0.63879 -0.30400
C 	C 	0.46010 0.82836 0.63350 -0.18100
C 	C 	0.50824 0.94969 0.63354 0.26100
Ni	Ni	0.24138 0.66096 0.64643 1.13400
O 	O 	0.31805 0.56630 0.64598 -0.34100
O 	O 	0.15730 0.56438 0.65162 -0.32400
O 	O 	0.41725 0.71316 0.64151 -0.31100
C 	C 	0.90366 0.46932 0.64224 -0.01100
C 	C 	0.93443 0.42742 0.64547 0.26200
F 	F 	0.89493 0.56762 0.64838 -0.32100
C 	C 	0.47722 0.88815 0.64130 0.32400
F 	F 	0.52116 0.00661 0.64103 -0.30800
C 	C 	0.11337 0.55384 0.66326 0.40200
Ni	Ni	0.38143 0.64633 0.65946 1.13800
O 	O 	0.19069 0.70527 0.65975 -0.29900
O 	O 	0.30057 0.66360 0.66298 -0.72500
H 	H 	0.32921 0.71254 0.66499 0.18800
F 	F 	0.18328 0.39976 0.67062 -0.31100
F 	F 	0.29189 0.87840 0.66682 -0.32500
C 	C 	0.92798 0.52903 0.65058 0.26400
C 	C 	0.99804 0.45103 0.65482 0.26600
C 	C 	0.03142 0.51684 0.66076 -0.12200
C 	C 	0.99227 0.55319 0.65972 0.26200
F 	F 	0.02215 0.61589 0.66582 -0.30800
F 	F 	0.03230 0.41322 0.65667 -0.29300
F 	F 	0.45779 0.88557 0.65612 -0.31700
C 	C 	0.21595 0.73783 0.67297 0.41200
C 	C 	0.29813 0.52929 0.67991 0.42200
O 	O 	0.36551 0.57755 0.67572 -0.32200
O 	O 	0.14100 0.58965 0.67571 -0.30400
O 	O 	0.44261 0.71884 0.67455 -0.32500
O 	O 	0.24016 0.53946 0.67986 -0.34000
C 	C 	0.23219 0.85253 0.67647 0.32600
C 	C 	0.18750 0.78226 0.67821 -0.18200
C 	C 	0.41933 0.71844 0.68865 0.39900
Ni	Ni	0.25200 0.63161 0.68198 1.14000
O 	O 	0.25038 0.71933 0.68315 -0.33200
F 	F 	0.51402 0.85888 0.68410 -0.32300
C 	C 	0.28900 0.46678 0.68673 -0.19200
C 	C 	0.22436 0.40510 0.68320 0.32700
C 	C 	0.19867 0.35067 0.69324 0.24600
F 	F 	0.13227 0.29356 0.69044 -0.30000
C 	C 	0.21896 0.89616 0.68558 0.25300
C 	C 	0.12534 0.75611 0.68808 0.33300
F 	F 	0.26572 0.96395 0.68464 -0.29600
F 	F 	0.08433 0.68853 0.69051 -0.32700
O 	O 	0.35203 0.67001 0.69353 -0.31700
C 	C 	0.52675 0.82972 0.69635 0.32000
C 	C 	0.47629 0.76179 0.69989 -0.18400
F 	F 	0.64193 0.93150 0.70113 -0.30600
F 	F 	0.21407 0.22346 0.70315 -0.30400
C 	C 	0.33369 0.47025 0.69923 0.32500
F 	F 	0.39807 0.52859 0.70244 -0.32700
C 	C 	0.16032 0.86955 0.69629 0.00700
C 	C 	0.11094 0.79963 0.69682 0.24000
F 	F 	0.05763 0.92010 0.69654 -0.29200
F 	F 	0.72410 0.80581 0.71383 -0.31400
C 	C 	0.59181 0.86690 0.70507 0.24900
C 	C 	0.48864 0.73307 0.71295 0.32200
C 	C 	0.19208 0.23959 0.71631 0.24400
C 	C 	0.23896 0.35673 0.70661 0.00400
C 	C 	0.30885 0.41521 0.70911 0.24500
C 	C 	0.10010 0.92845 0.70908 0.25400
C 	C 	0.15840 0.91244 0.70861 0.01100
F 	F 	0.05310 0.77353 0.70693 -0.31700
C 	C 	0.67869 0.87348 0.72578 0.00900
C 	C 	0.73477 0.85521 0.72382 0.23800
C 	C 	0.80139 0.88712 0.73234 0.32900
C 	C 	0.60643 0.83680 0.71754 0.00100
C 	C 	0.55339 0.77056 0.72176 0.24400
F 	F 	0.44016 0.66772 0.71664 -0.33000
F 	F 	0.85438 0.86786 0.73066 -0.34200
C 	C 	0.18113 0.32135 0.73230 0.23600
C 	C 	0.20439 0.30529 0.71865 0.00400
C 	C 	0.15751 0.19049 0.72757 0.32200
F 	F 	0.35055 0.42000 0.72155 -0.32000
F 	F 	0.14450 0.12672 0.72502 -0.34900
C 	C 	0.20416 0.92426 0.72145 0.23800
C 	C 	0.08227 0.94868 0.72273 0.33800
F 	F 	0.26242 0.91121 0.72097 -0.32400
F 	F 	0.02427 0.96211 0.72318 -0.32100
C 	C 	0.69094 0.92567 0.73587 0.23300
C 	C 	0.81276 0.93802 0.74276 -0.20400
C 	C 	0.75774 0.95793 0.74430 0.33800
F 	F 	0.56588 0.74184 0.73412 -0.32800
F 	F 	0.63717 0.94383 0.73779 -0.31900
C 	C 	0.13711 0.20721 0.74150 -0.19300
C 	C 	0.14849 0.27285 0.74375 0.31900
F 	F 	0.19066 0.38420 0.73449 -0.32900
C 	C 	0.18618 0.94411 0.73513 0.32500
C 	C 	0.12256 0.95283 0.73601 -0.18500
C 	C 	0.11221 0.15847 0.75414 0.39000
C 	C 	0.87696 0.96418 0.75332 0.42600
C 	C 	0.09380 0.95973 0.75085 0.39000
O 	O 	0.14922 0.12474 0.75647 -0.33300
O 	O 	0.02056 0.92110 0.75382 -0.30800
O 	O 	0.91610 0.03051 0.75560 -0.34100
F 	F 	0.76746 0.00631 0.75452 -0.38200
F 	F 	0.13045 0.29036 0.75720 -0.36800
F 	F 	0.22786 0.95090 0.74771 -0.35800
Ni	Ni	0.97783 0.07264 0.77525 1.11300
Ni	Ni	0.97491 0.92907 0.77340 1.12300
Ni	Ni	0.13321 0.06566 0.77473 1.12900
O 	O 	0.06394 0.15870 0.76437 -0.31400
O 	O 	0.14263 0.99603 0.76173 -0.32400
O 	O 	0.88034 0.92066 0.76300 -0.35100
O 	O 	0.02782 0.02438 0.77092 -0.72100
H 	H 	0.02819 0.02699 0.75978 0.18100
N 	N 	0.16040 0.84883 0.77446 -0.04200
O 	O 	0.05155 0.91220 0.78421 -0.35200
O 	O 	0.88267 0.99874 0.78647 -0.32800
O 	O 	0.14870 0.14749 0.78708 -0.35200
C 	C 	0.15633 0.86166 0.78701 0.12000
C 	C 	0.88482 0.95475 0.79583 0.31200
C 	C 	0.10170 0.14553 0.79758 0.31000
C 	C 	0.09734 0.95168 0.79489 0.33000
O 	O 	0.93495 0.93493 0.79405 -0.37800
O 	O 	0.02907 0.10450 0.79620 -0.35100
O 	O 	0.12559 0.01750 0.79427 -0.38600
C 	C 	0.15121 0.87756 0.80269 0.04200
C 	C 	0.12491 0.92268 0.80661 -0.06900
H 	H 	0.19439 0.81412 0.81106 0.07800
C 	C 	0.12831 0.19971 0.80904 -0.06400
C 	C 	0.17327 0.26716 0.80448 0.02300
C 	C 	0.23574 0.38908 0.80964 0.12600
N 	N 	0.27297 0.44439 0.80569 -0.07600
H 	H 	0.19388 0.27848 0.79290 0.08700
C 	C 	0.82409 0.92034 0.80707 -0.07400
C 	C 	0.78482 0.84947 0.80764 0.02900
N 	N 	0.53177 0.80605 0.80768 -0.07400
H 	H 	0.79972 0.82079 0.79990 0.05600
C 	C 	0.17503 0.84932 0.81406 -0.04800
C 	C 	0.12554 0.94067 0.82187 0.02500
N 	N 	0.37936 0.96193 0.82953 -0.08100
H 	H 	0.10619 0.97584 0.82491 0.06700
C 	C 	0.15986 0.30561 0.82944 0.03000
C 	C 	0.10175 0.18529 0.82412 0.03500
C 	C 	0.18925 0.32007 0.81459 -0.02600
C 	C 	0.72606 0.81547 0.81803 -0.03300
C 	C 	0.70579 0.85254 0.82794 0.03600
C 	C 	0.74523 0.92337 0.82746 -0.05700
C 	C 	0.80451 0.95750 0.81715 0.06200
C 	C 	0.54807 0.79968 0.81990 0.11600
C 	C 	0.68683 0.74250 0.81848 0.11900
C 	C 	0.84652 0.03050 0.81735 0.07300
N 	N 	0.88016 0.08896 0.81752 -0.08900
N 	N 	0.65536 0.68405 0.81885 -0.08400
C 	C 	0.27551 0.85780 0.84396 -0.02900
C 	C 	0.19837 0.83469 0.84115 0.03200
C 	C 	0.17460 0.86659 0.82931 0.03100
C 	C 	0.15033 0.91300 0.83321 -0.02900
C 	C 	0.33319 0.91561 0.83595 0.11700
H 	H 	0.08397 0.76207 0.84724 0.07900
C 	C 	0.17753 0.36081 0.84041 0.03200
C 	C 	0.13706 0.39600 0.83986 -0.04700
C 	C 	0.11676 0.23825 0.83416 -0.04600
C 	C 	0.06077 0.11637 0.82949 0.10400
N 	N 	0.02795 0.06116 0.83377 -0.09100
N 	N 	0.08390 0.51844 0.84737 -0.07800
H 	H 	0.09150 0.38108 0.83174 0.08100
H 	H 	0.09572 0.22715 0.84570 0.07900
C 	C 	0.64484 0.81760 0.83922 0.02800
C 	C 	0.51173 0.75822 0.84597 0.02000
C 	C 	0.56851 0.79175 0.83515 -0.02900
H 	H 	0.73013 0.95187 0.83521 0.08100
H 	H 	0.45300 0.73827 0.84282 0.05800
C 	C 	0.14330 0.77948 0.84931 -0.04600
C 	C 	0.16437 0.74692 0.86016 0.04200
C 	C 	0.24164 0.76890 0.86270 -0.06200
C 	C 	0.29671 0.82474 0.85467 0.02400
C 	C 	0.15111 0.93272 0.84882 0.12200
N 	N 	0.15175 0.94849 0.86132 -0.07000
H 	H 	0.35608 0.84217 0.85670 0.05800
C 	C 	0.23641 0.37990 0.85101 -0.03100
C 	C 	0.15649 0.45135 0.84948 0.04000
C 	C 	0.21656 0.47129 0.85986 -0.06700
C 	C 	0.25525 0.43461 0.86071 0.02700
C 	C 	0.27867 0.34431 0.85181 0.11800
C 	C 	0.11616 0.48857 0.84830 0.10800
N 	N 	0.31249 0.31576 0.85243 -0.08400
C 	C 	0.66355 0.81011 0.85411 -0.04700
C 	C 	0.60696 0.77731 0.86500 0.03700
C 	C 	0.53036 0.75051 0.86089 -0.06800
H 	H 	0.72235 0.83043 0.85725 0.07700
C 	C 	0.24180 0.53176 0.86944 0.30900
C 	C 	0.46978 0.71769 0.87223 0.30800
C 	C 	0.26542 0.73483 0.87389 0.31100
O 	O 	0.23337 0.66862 0.87381 -0.36700
O 	O 	0.31406 0.57413 0.87045 -0.36600
O 	O 	0.19513 0.53347 0.87954 -0.34000
O 	O 	0.46582 0.66819 0.88059 -0.33800
O 	O 	0.42234 0.74026 0.87431 -0.37200
O 	O 	0.31252 0.77063 0.88480 -0.34900
C 	C 	0.10649 0.69263 0.86900 0.11400
N 	N 	0.06014 0.64915 0.87608 -0.06700
H 	H 	0.30071 0.44923 0.86885 0.05400
C 	C 	0.62826 0.77421 0.88048 0.11900
Ni	Ni	0.36701 0.59672 0.89131 1.12700
Ni	Ni	0.21932 0.61552 0.89284 1.13400
Ni	Ni	0.38351 0.74500 0.89515 1.13300
O 	O 	0.27601 0.51077 0.90128 -0.33000
O 	O 	0.32383 0.64958 0.89671 -0.72600
N 	N 	0.64570 0.77198 0.89287 -0.05600
C 	C 	0.47185 0.69604 0.91435 0.40000
C 	C 	0.22755 0.51067 0.91152 0.39400
C 	C 	0.26609 0.71905 0.91766 0.39400
O 	O 	0.42897 0.63075 0.91120 -0.30300
O 	O 	0.47378 0.74378 0.90525 -0.34200
O 	O 	0.33996 0.75279 0.91500 -0.32200
O 	O 	0.21666 0.68663 0.90656 -0.33200
O 	O 	0.19974 0.55259 0.91052 -0.32200
H 	H 	0.32294 0.64459 0.90781 0.18200
F 	F 	0.56349 0.63412 0.91508 -0.35900
C 	C 	0.19264 0.45430 0.92245 -0.19300
F 	F 	0.07076 0.44402 0.91836 -0.35600
F 	F 	0.16921 0.77489 0.91913 -0.35800
F 	F 	0.02605 0.79252 0.99249 -0.31800
C 	C 	0.64881 0.71570 0.93261 0.24000
C 	C 	0.55263 0.77069 0.93514 0.32500
C 	C 	0.53378 0.71603 0.92532 -0.18800
C 	C 	0.58096 0.68711 0.92450 0.32300
F 	F 	0.79063 0.89304 0.92988 -0.33200
F 	F 	0.69571 0.68950 0.93118 -0.32100
F 	F 	0.50627 0.79753 0.93644 -0.34200
C 	C 	0.08248 0.37234 0.93650 0.24300
C 	C 	0.11501 0.42413 0.92577 0.32000
C 	C 	0.23677 0.43094 0.92976 0.32000
F 	F 	0.00795 0.34467 0.93983 -0.31200
F 	F 	0.31193 0.46024 0.92690 -0.35400
F 	F 	0.01930 0.21589 0.93458 -0.32300
C 	C 	0.19252 0.76040 0.93234 0.32600
C 	C 	0.23846 0.73040 0.93214 -0.19400
C 	C 	0.66961 0.77279 0.94172 0.00600
C 	C 	0.62022 0.79890 0.94333 0.24200
C 	C 	0.74452 0.80730 0.94900 0.00200
F 	F 	0.63877 0.85271 0.95255 -0.31400
C 	C 	0.80123 0.86910 0.94323 0.24400
C 	C 	0.86747 0.90772 0.95153 0.32100
C 	C 	0.75754 0.78124 0.96237 0.25000
F 	F 	0.92005 0.96901 0.94618 -0.32400
C 	C 	0.20367 0.37797 0.94022 0.24000
C 	C 	0.12647 0.34874 0.94369 0.00300
C 	C 	0.09136 0.29206 0.95454 0.00700
C 	C 	0.01649 0.17144 0.95919 0.33900
C 	C 	0.04111 0.22652 0.94935 0.23500
F 	F 	0.97091 0.10797 0.95388 -0.35200
F 	F 	0.24647 0.35475 0.94695 -0.32000
C 	C 	0.24282 0.73337 0.95970 0.25000
C 	C 	0.19967 0.76611 0.95986 0.00600
C 	C 	0.17357 0.77853 0.94612 0.23600
C 	C 	0.26258 0.71597 0.94588 0.32700
F 	F 	0.13244 0.81077 0.94613 -0.32700
F 	F 	0.30590 0.68582 0.94581 -0.34600
C 	C 	0.93296 0.93269 0.97662 0.39600
O 	O 	0.99901 0.98198 0.97140 -0.30400
C 	C 	0.87725 0.88475 0.96572 -0.17700
C 	C 	0.82406 0.81946 0.97061 0.32100
F 	F 	0.70425 0.72019 0.96771 -0.30400
C 	C 	0.11207 0.30255 0.96991 0.24600
C 	C 	0.04353 0.18131 0.97416 -0.20600
F 	F 	0.15758 0.36606 0.97523 -0.29800
C 	C 	0.18770 0.79330 0.97417 0.00600
C 	C 	0.24748 0.85191 0.98055 0.24400
F 	F 	0.31975 0.87268 0.97631 -0.30400
F 	F 	0.28975 0.95141 0.99550 -0.30600
F 	F 	0.26700 0.71987 0.97292 -0.29900
C 	C 	0.13913 0.93048 0.99525 0.39600
C 	C 	0.04066 0.12446 0.98254 0.44800
Ni	Ni	0.09858 0.03002 0.98316 1.13400
O 	O 	0.10193 0.11938 0.98324 -0.35000
O 	O 	0.20912 0.08071 0.98982 -0.32600
O 	O 	0.90880 0.93455 0.99053 -0.31600
O 	O 	0.10987 0.94675 0.98357 -0.31400
O 	O 	0.97524 0.07450 0.98710 -0.35200
F 	F 	0.83517 0.79457 0.98375 -0.31700
C 	C 	0.08865 0.24731 0.97966 0.33400
F 	F 	0.11346 0.25756 0.99423 -0.31000
C 	C 	0.23209 0.89257 0.99018 0.32500
C 	C 	0.15702 0.87599 0.99296 -0.18000
C 	C 	0.09861 0.81159 0.98884 0.32100
C 	C 	0.11399 0.77013 0.97949 0.25200
F 	F 	0.05636 0.71067 0.97437 -0.30200
