data_crystal

_cell_length_a 27.07341
_cell_length_b 27.05203
_cell_length_c 28.60283
_cell_angle_alpha 90.00347
_cell_angle_beta  89.99739
_cell_angle_gamma 120.00612

_symmetry_space_group_name_	'P 1'
_symmetry_space_group_name_H-M	'P 1'

loop_
_symmetry_equiv_pos_as_xyz
  x,y,z

loop_
_atom_site_label
_atom_site_type_symbol
_atom_site_fract_x
_atom_site_fract_y
_atom_site_fract_z
_atom_site_charge
Zn	Zn	0.33063 0.15925 0.67356 1.19900
Zn	Zn	0.41474 0.11552 0.66633 1.22000
Zn	Zn	0.23503 0.03684 0.68058 1.21000
P 	P 	0.33388 0.08070 0.74296 0.30700
P 	P 	0.31758 0.07925 0.60135 0.30500
C 	C 	0.12116 0.95938 0.65529 0.28800
C 	C 	0.21947 0.13924 0.68362 0.30100
C 	C 	0.44807 0.23736 0.66708 0.30200
O 	O 	0.35765 0.14666 0.73426 -0.44600
O 	O 	0.29886 0.12508 0.61159 -0.44000
O 	O 	0.35541 0.05578 0.70247 -0.45600
O 	O 	0.28596 0.02763 0.63754 -0.43900
O 	O 	0.26564 0.04929 0.74403 -0.42300
O 	O 	0.38598 0.11138 0.60446 -0.43700
O 	O 	0.15959 0.97157 0.68794 -0.41500
O 	O 	0.50139 0.13249 0.73719 -0.26300
O 	O 	0.13680 0.98250 0.61372 -0.25700
O 	O 	0.20629 0.09108 0.66193 -0.44000
O 	O 	0.45216 0.19695 0.68940 -0.43500
O 	O 	0.27180 0.17308 0.69770 -0.45100
O 	O 	0.39825 0.22744 0.65188 -0.44700
C 	C 	0.51992 0.12944 0.69547 0.27800
O 	O 	0.48528 0.11492 0.65950 -0.42500
Zn	Zn	0.49046 0.00712 0.99940 1.19600
Zn	Zn	0.44766 0.09078 0.01277 1.21700
Zn	Zn	0.36698 0.91078 0.99497 1.21300
P 	P 	0.41012 0.01208 0.93433 0.29400
P 	P 	0.41144 0.99079 0.07482 0.30900
C 	C 	0.25293 0.82080 0.97756 0.28200
C 	C 	0.46746 0.89612 0.98379 0.30000
C 	C 	0.56954 0.12248 0.01217 0.31100
O 	O 	0.47660 0.03750 0.94129 -0.45000
O 	O 	0.45781 0.97395 0.06098 -0.43400
O 	O 	0.38638 0.03326 0.97594 -0.45500
O 	O 	0.35769 0.95929 0.04053 -0.42300
O 	O 	0.37940 0.94383 0.93271 -0.41800
O 	O 	0.44057 0.05920 0.07416 -0.42800
O 	O 	0.30545 0.83368 0.98669 -0.43000
O 	O 	0.50599 0.18516 0.08356 -0.25900
O 	O 	0.23964 0.86122 0.97520 -0.25300
O 	O 	0.42315 0.88436 0.01032 -0.43700
O 	O 	0.53006 0.12879 0.99035 -0.43800
O 	O 	0.50205 0.94878 0.97108 -0.44300
O 	O 	0.55974 0.07133 0.02256 -0.44900
C 	C 	0.48125 0.19971 0.05118 0.28600
O 	O 	0.44771 0.16157 0.02046 -0.42700
Zn	Zn	0.18721 0.87092 0.33176 1.19900
Zn	Zn	0.23440 0.99871 0.32617 1.21600
Zn	Zn	0.30699 0.89187 0.34509 1.21600
P 	P 	0.25765 0.94393 0.40603 0.30100
P 	P 	0.27857 0.94185 0.26647 0.30200
C 	C 	0.40946 0.89404 0.32347 0.27800
C 	C 	0.20471 0.77785 0.34105 0.30300
C 	C 	0.11118 0.91012 0.31643 0.30700
O 	O 	0.19207 0.90769 0.39334 -0.42600
O 	O 	0.22859 0.87785 0.27246 -0.43800
O 	O 	0.28788 0.99533 0.36967 -0.43800
O 	O 	0.32252 0.95763 0.30836 -0.44300
O 	O 	0.28229 0.90087 0.40601 -0.43800
O 	O 	0.25071 0.98206 0.26402 -0.42200
O 	O 	0.36939 0.87804 0.35527 -0.42500
O 	O 	0.19539 0.05626 0.39261 -0.26700
O 	O 	0.41717 0.93369 0.29316 -0.26200
O 	O 	0.25333 0.81259 0.32008 -0.43900
O 	O 	0.14953 0.95374 0.34106 -0.43000
O 	O 	0.17092 0.79674 0.35432 -0.44700
O 	O 	0.12183 0.86990 0.30408 -0.45000
C 	C 	0.21036 0.08454 0.35301 0.28100
O 	O 	0.23578 0.07077 0.32061 -0.42900
Zn	Zn	0.80546 0.67715 0.66526 1.19600
Zn	Zn	0.76149 0.75939 0.67161 1.21300
Zn	Zn	0.68742 0.58285 0.64379 1.21700
P 	P 	0.74024 0.68776 0.58786 0.30600
P 	P 	0.71234 0.65307 0.72691 0.30600
C 	C 	0.59179 0.47768 0.66482 0.28200
C 	C 	0.78930 0.56890 0.64708 0.30200
C 	C 	0.88396 0.79122 0.67822 0.30200
O 	O 	0.80417 0.71185 0.60400 -0.44700
O 	O 	0.75996 0.63594 0.72107 -0.43300
O 	O 	0.70932 0.70861 0.62396 -0.43400
O 	O 	0.67154 0.63092 0.68269 -0.45400
O 	O 	0.71135 0.61962 0.58439 -0.43800
O 	O 	0.74386 0.72115 0.73213 -0.42000
O 	O 	0.62456 0.50872 0.63044 -0.43300
O 	O 	0.76146 0.84977 0.60788 -0.26100
O 	O 	0.59424 0.50194 0.70520 -0.26500
O 	O 	0.73932 0.55342 0.66627 -0.43600
O 	O 	0.84660 0.80084 0.65648 -0.43700
O 	O 	0.82570 0.62308 0.64060 -0.45300
O 	O 	0.86696 0.74160 0.69749 -0.45100
C 	C 	0.77202 0.86636 0.65167 0.28600
O 	O 	0.76022 0.82857 0.68482 -0.42200
Zn	Zn	0.51265 0.51182 0.99978 1.19900
Zn	Zn	0.63935 0.55495 0.99377 1.21200
Zn	Zn	0.53475 0.63072 0.97626 1.21600
P 	P 	0.57570 0.56913 0.91631 0.30400
P 	P 	0.59333 0.61143 0.05364 0.30200
C 	C 	0.55478 0.74345 0.96148 0.28300
C 	C 	0.42063 0.53057 0.99292 0.30200
C 	C 	0.55075 0.43589 0.01845 0.31100
O 	O 	0.53910 0.50633 0.93631 -0.44100
O 	O 	0.52843 0.56267 0.05380 -0.44300
O 	O 	0.63291 0.60298 0.94630 -0.43300
O 	O 	0.60484 0.65188 0.00953 -0.43800
O 	O 	0.53678 0.59847 0.91701 -0.43200
O 	O 	0.63220 0.58213 0.05447 -0.42500
O 	O 	0.51649 0.68909 0.96124 -0.42300
O 	O 	0.74010 0.58270 0.92512 -0.25200
O 	O 	0.60916 0.75984 0.95814 -0.25900
O 	O 	0.45892 0.58143 0.00854 -0.43200
O 	O 	0.59047 0.46833 0.98803 -0.45100
O 	O 	0.43609 0.49309 0.98304 -0.45100
O 	O 	0.51545 0.45177 0.03373 -0.45100
C 	C 	0.73913 0.55439 0.96269 0.27800
O 	O 	0.70978 0.55363 0.99943 -0.42300
Zn	Zn	0.67957 0.83268 0.31628 1.19700
Zn	Zn	0.76316 0.79049 0.31528 1.21400
Zn	Zn	0.58242 0.70939 0.32729 1.21700
P 	P 	0.68062 0.76231 0.39168 0.30500
P 	P 	0.66561 0.74255 0.25102 0.30800
C 	C 	0.46676 0.62789 0.30764 0.28000
C 	C 	0.56568 0.80837 0.32150 0.30000
C 	C 	0.79492 0.91305 0.30593 0.29400
O 	O 	0.70885 0.82815 0.37983 -0.42700
O 	O 	0.64914 0.79090 0.25627 -0.43200
O 	O 	0.70529 0.73448 0.35632 -0.44400
O 	O 	0.63638 0.69761 0.29228 -0.45500
O 	O 	0.61297 0.73630 0.38860 -0.44000
O 	O 	0.73390 0.77322 0.25213 -0.42600
O 	O 	0.50757 0.64423 0.33886 -0.43000
O 	O 	0.85619 0.81569 0.38727 -0.26100
O 	O 	0.47812 0.65149 0.26601 -0.25300
O 	O 	0.55575 0.76100 0.30033 -0.42700
O 	O 	0.80052 0.87544 0.33137 -0.43300
O 	O 	0.61746 0.84509 0.33552 -0.44200
O 	O 	0.74457 0.89967 0.28978 -0.44300
C 	C 	0.87291 0.81689 0.34400 0.27800
O 	O 	0.83469 0.79187 0.31095 -0.42500
Zn	Zn	0.84093 0.19565 0.67743 1.20000
Zn	Zn	0.96278 0.22300 0.69826 1.21400
Zn	Zn	0.88396 0.32330 0.67653 1.21400
P 	P 	0.93470 0.27086 0.61692 0.30500
P 	P 	0.90359 0.26685 0.75679 0.30500
C 	C 	0.87031 0.40942 0.63091 0.28100
C 	C 	0.76183 0.23201 0.66628 0.30600
C 	C 	0.86323 0.10546 0.68796 0.29900
O 	O 	0.88781 0.20577 0.62213 -0.44600
O 	O 	0.84001 0.22650 0.73990 -0.44300
O 	O 	0.97857 0.28844 0.65951 -0.44000
O 	O 	0.93521 0.32061 0.72268 -0.44700
O 	O 	0.90346 0.30784 0.61501 -0.41600
O 	O 	0.93472 0.22973 0.75830 -0.43700
O 	O 	0.88573 0.39548 0.67007 -0.42700
O 	O 	0.08737 0.28434 0.66977 -0.26000
O 	O 	0.86120 0.37801 0.59341 -0.25500
O 	O 	0.79875 0.27728 0.69018 -0.43800
O 	O 	0.91347 0.14400 0.67128 -0.44100
O 	O 	0.77882 0.19931 0.64673 -0.45000
O 	O 	0.82465 0.12008 0.69663 -0.44700
C 	C 	0.07485 0.23861 0.69442 0.27900
O 	O 	0.02447 0.20954 0.71392 -0.41600
Zn	Zn	0.99343 0.49253 0.01210 1.19300
Zn	Zn	0.08589 0.46226 0.00412 1.21500
Zn	Zn	0.90843 0.37009 0.03265 1.21600
P 	P 	0.01394 0.43586 0.08865 0.31500
P 	P 	0.98064 0.40149 0.94950 0.29300
C 	C 	0.81114 0.26284 0.01802 0.28100
C 	C 	0.88040 0.46245 0.01567 0.30800
C 	C 	0.10311 0.57978 0.99165 0.30500
O 	O 	0.03212 0.49849 0.07211 -0.44100
O 	O 	0.95978 0.44634 0.95513 -0.44700
O 	O 	0.03859 0.40852 0.05242 -0.42800
O 	O 	0.95986 0.35925 0.99326 -0.44800
O 	O 	0.94558 0.40051 0.09225 -0.43700
O 	O 	0.04856 0.43640 0.94417 -0.41600
O 	O 	0.83752 0.30348 0.04897 -0.42200
O 	O 	0.14683 0.40049 0.04103 -0.25600
O 	O 	0.84090 0.25216 0.98756 -0.25800
O 	O 	0.86952 0.41080 0.00389 -0.43300
O 	O 	0.11764 0.54733 0.01567 -0.43800
O 	O 	0.92885 0.49721 0.03583 -0.46100
O 	O 	0.04991 0.56006 0.98006 -0.44900
C 	C 	0.18045 0.44440 0.01477 0.28300
O 	O 	0.15987 0.47171 0.99146 -0.42900
Zn	Zn	0.15389 0.35697 0.35196 1.19800
Zn	Zn	0.11172 0.44065 0.36727 1.21500
Zn	Zn	0.03128 0.26369 0.33980 1.21500
P 	P 	0.07897 0.36859 0.28339 0.30400
P 	P 	0.07122 0.33675 0.42387 0.30100
C 	C 	0.96123 0.15404 0.29930 0.26800
C 	C 	0.13250 0.24634 0.33700 0.30800
C 	C 	0.23440 0.47268 0.36106 0.30500
O 	O 	0.14397 0.39003 0.29410 -0.45300
O 	O 	0.11791 0.31996 0.41149 -0.44600
O 	O 	0.05321 0.38831 0.32484 -0.43600
O 	O 	0.02293 0.31262 0.38458 -0.44700
O 	O 	0.04629 0.30028 0.27823 -0.40000
O 	O 	0.10211 0.40494 0.42814 -0.42200
O 	O 	0.96450 0.18893 0.33266 -0.43000
O 	O 	0.05041 0.50021 0.32313 -0.25200
O 	O 	0.00021 0.17279 0.26631 -0.23700
O 	O 	0.08340 0.23225 0.35729 -0.43200
O 	O 	0.19349 0.48028 0.34384 -0.44400
O 	O 	0.16593 0.29888 0.32310 -0.45000
O 	O 	0.22189 0.42238 0.37713 -0.45300
C 	C 	0.09479 0.53355 0.34902 0.27700
O 	O 	0.11338 0.51113 0.38017 -0.42200
C 	C 	0.04391 0.43675 0.14573 -0.04600
C 	C 	0.01494 0.43493 0.18742 0.05700
C 	C 	0.02697 0.41472 0.22871 -0.04900
C 	C 	0.07029 0.40052 0.23008 -0.03500
C 	C 	0.10480 0.41043 0.18981 0.03600
C 	C 	0.09140 0.42914 0.14823 -0.03800
H 	H 	0.00246 0.41025 0.25993 0.06900
H 	H 	0.11714 0.43615 0.11735 0.04700
C 	C 	0.97533 0.45934 0.18979 -0.08200
C 	C 	0.15797 0.40523 0.19090 -0.06600
C 	C 	0.91358 0.41285 0.19863 -0.13200
H 	H 	0.97743 0.48354 0.15784 0.05700
H 	H 	0.98916 0.49064 0.21895 0.04400
H 	H 	0.89982 0.37711 0.17347 0.07000
H 	H 	0.88513 0.43117 0.19480 0.05500
H 	H 	0.90875 0.39577 0.23468 0.05500
C 	C 	0.20973 0.46088 0.20740 -0.13900
H 	H 	0.16719 0.39569 0.15519 0.05100
H 	H 	0.15215 0.36861 0.21236 0.06600
H 	H 	0.21707 0.49665 0.18404 0.05200
H 	H 	0.24828 0.45634 0.20701 0.05800
H 	H 	0.20359 0.47224 0.24329 0.07600
C 	C 	0.90597 0.29249 0.81578 -0.04000
C 	C 	0.89665 0.33869 0.82512 0.02200
C 	C 	0.91838 0.37027 0.86668 -0.04100
C 	C 	0.95096 0.35796 0.89774 -0.03500
C 	C 	0.95776 0.31001 0.88909 0.02000
C 	C 	0.92996 0.27479 0.85071 -0.03500
H 	H 	0.91035 0.40481 0.87448 0.05300
H 	H 	0.93300 0.23675 0.84539 0.05000
C 	C 	0.85895 0.35125 0.79400 -0.04100
C 	C 	0.00083 0.30033 0.91562 -0.02900
C 	C 	0.79595 0.31081 0.80408 -0.15200
H 	H 	0.86755 0.34903 0.75657 0.00600
H 	H 	0.86803 0.39561 0.80000 0.03300
H 	H 	0.78424 0.26596 0.79673 0.07500
H 	H 	0.76957 0.32193 0.78160 0.06100
H 	H 	0.78639 0.31507 0.84107 0.05700
C 	C 	0.05843 0.32881 0.89066 -0.15300
H 	H 	0.98509 0.25375 0.91786 0.02800
H 	H 	0.00701 0.31517 0.95226 0.06100
H 	H 	0.05428 0.30959 0.85551 0.06600
H 	H 	0.08957 0.32253 0.91134 0.06000
H 	H 	0.07514 0.37534 0.88668 0.07700
C 	C 	0.97354 0.28237 0.56259 -0.05700
C 	C 	0.94529 0.25927 0.51946 0.04600
C 	C 	0.97798 0.26742 0.47909 -0.06600
C 	C 	0.03699 0.30548 0.47904 -0.02200
C 	C 	0.06548 0.32700 0.52215 0.03100
C 	C 	0.03330 0.31557 0.56338 -0.02200
H 	H 	0.95643 0.24832 0.44652 0.04300
H 	H 	0.05514 0.33283 0.59620 0.06100
C 	C 	0.88134 0.23393 0.51380 -0.06600
C 	C 	0.12993 0.35637 0.52600 -0.06200
C 	C 	0.86712 0.27954 0.49875 -0.14300
H 	H 	0.85670 0.21232 0.54544 0.06300
H 	H 	0.86544 0.20019 0.48645 0.03800
H 	H 	0.88394 0.31509 0.52437 0.08700
H 	H 	0.82012 0.26050 0.49647 0.06100
H 	H 	0.88582 0.29682 0.46385 0.06100
C 	C 	0.14839 0.31496 0.54396 -0.14200
H 	H 	0.14512 0.39267 0.55090 0.04700
H 	H 	0.15223 0.37501 0.49267 0.06000
H 	H 	0.13412 0.30264 0.58062 0.06900
H 	H 	0.19562 0.33577 0.54306 0.05500
H 	H 	0.12994 0.27592 0.52197 0.06100
C 	C 	0.40742 0.58798 0.32102 -0.07500
C 	C 	0.37899 0.53095 0.30492 0.03900
C 	C 	0.32244 0.49401 0.31863 -0.02400
C 	C 	0.29388 0.51300 0.34803 -0.08500
C 	C 	0.32233 0.57013 0.36417 0.04100
C 	C 	0.37883 0.60722 0.35010 -0.02800
H 	H 	0.30056 0.45015 0.30645 0.03600
H 	H 	0.40051 0.65126 0.36173 0.03800
C 	C 	0.40966 0.50771 0.27594 -0.07100
C 	C 	0.29307 0.59253 0.39587 -0.06500
C 	C 	0.44180 0.48756 0.30723 -0.13600
H 	H 	0.43964 0.54009 0.25082 0.04900
H 	H 	0.37846 0.47105 0.25444 0.04100
H 	H 	0.47743 0.52437 0.32547 0.05800
H 	H 	0.45964 0.46614 0.28561 0.05000
H 	H 	0.41259 0.45646 0.33355 0.05600
C 	C 	0.26900 0.62372 0.36785 -0.14100
H 	H 	0.32435 0.62282 0.42163 0.03800
H 	H 	0.25844 0.55794 0.41674 0.04300
H 	H 	0.30353 0.66019 0.34839 0.06000
H 	H 	0.24892 0.64056 0.39207 0.06100
H 	H 	0.23629 0.59424 0.34272 0.07000
C 	C 	0.83955 0.97394 0.30759 -0.06200
C 	C 	0.89470 0.99337 0.28891 0.04900
C 	C 	0.93407 0.05226 0.28763 -0.04500
C 	C 	0.91844 0.09224 0.30217 -0.07200
C 	C 	0.86242 0.07258 0.31937 0.04700
C 	C 	0.82480 0.01369 0.32405 -0.05700
H 	H 	0.97673 0.06703 0.27435 0.04000
H 	H 	0.78267 0.99872 0.33864 0.05900
C 	C 	0.91069 0.95252 0.26655 -0.07400
C 	C 	0.84095 0.11326 0.33117 -0.06900
C 	C 	0.89416 0.94323 0.21499 -0.13700
H 	H 	0.89017 0.91080 0.28458 0.04900
H 	H 	0.95745 0.96965 0.26958 0.04100
H 	H 	0.84729 0.92407 0.21095 0.06100
H 	H 	0.90701 0.91370 0.19949 0.05300
H 	H 	0.91617 0.98439 0.19573 0.06000
C 	C 	0.84464 0.12516 0.38368 -0.13400
H 	H 	0.79556 0.09393 0.32034 0.04000
H 	H 	0.86375 0.15387 0.31134 0.05200
H 	H 	0.81533 0.08550 0.40299 0.05300
H 	H 	0.83192 0.15760 0.39087 0.05100
H 	H 	0.88867 0.14151 0.39688 0.06300
C 	C 	0.61002 0.65359 0.10645 -0.04100
C 	C 	0.66207 0.70617 0.11174 0.03100
C 	C 	0.67397 0.73488 0.15484 -0.03700
C 	C 	0.64295 0.70646 0.19490 -0.03900
C 	C 	0.59768 0.64904 0.19057 0.03300
C 	C 	0.57551 0.62907 0.14573 -0.03700
H 	H 	0.71020 0.77773 0.15783 0.05100
H 	H 	0.53458 0.59060 0.14182 0.05600
C 	C 	0.70640 0.73127 0.07322 -0.06000
C 	C 	0.58239 0.60654 0.23058 -0.06700
C 	C 	0.70140 0.77719 0.04636 -0.14200
H 	H 	0.70451 0.69864 0.04875 0.05800
H 	H 	0.74974 0.75109 0.08894 0.04200
H 	H 	0.65670 0.76102 0.03534 0.07800
H 	H 	0.72898 0.78975 0.01484 0.07000
H 	H 	0.71529 0.81550 0.06870 0.05700
C 	C 	0.55534 0.54377 0.21590 -0.13900
H 	H 	0.55292 0.61079 0.25504 0.04100
H 	H 	0.62204 0.61587 0.24934 0.05800
H 	H 	0.51105 0.52728 0.20328 0.05600
H 	H 	0.55365 0.51776 0.24652 0.05000
H 	H 	0.58118 0.53847 0.18826 0.06200
C 	C 	0.77557 0.52858 0.96566 -0.07600
C 	C 	0.75163 0.46938 0.97368 0.03900
C 	C 	0.78615 0.44900 0.99204 -0.02900
C 	C 	0.84533 0.48515 0.99553 -0.08500
C 	C 	0.87028 0.54177 0.97769 0.04200
C 	C 	0.83480 0.56402 0.96638 -0.02700
H 	H 	0.76719 0.40436 0.00160 0.04700
H 	H 	0.85348 0.60871 0.95710 0.04400
C 	C 	0.69296 0.42699 0.95534 -0.07400
C 	C 	0.93294 0.57618 0.96504 -0.05900
C 	C 	0.69691 0.40665 0.90643 -0.13400
H 	H 	0.66457 0.44544 0.95408 0.05200
H 	H 	0.67236 0.38931 0.97888 0.04300
H 	H 	0.71771 0.44338 0.88199 0.05800
H 	H 	0.65341 0.37653 0.89329 0.05100
H 	H 	0.72179 0.38414 0.90724 0.05500
C 	C 	0.96683 0.62221 0.00148 -0.15700
H 	H 	0.93748 0.59754 0.93080 0.04100
H 	H 	0.95183 0.54855 0.95968 0.03100
H 	H 	0.95210 0.65384 0.00257 0.06100
H 	H 	0.01275 0.64489 0.99199 0.07300
H 	H 	0.96200 0.60340 0.03681 0.06700
C 	C 	0.35948 0.51155 0.99680 -0.08900
C 	C 	0.32057 0.47799 0.96128 0.04700
C 	C 	0.26179 0.45293 0.96941 -0.03300
C 	C 	0.24137 0.46328 0.01107 -0.06900
C 	C 	0.28028 0.49916 0.04554 0.03700
C 	C 	0.33902 0.52284 0.03809 -0.01600
H 	H 	0.23186 0.42697 0.94241 0.04000
H 	H 	0.36886 0.54942 0.06490 0.04800
C 	C 	0.34092 0.47054 0.91377 -0.06700
C 	C 	0.25986 0.51434 0.08960 -0.06800
C 	C 	0.33513 0.41162 0.90905 -0.13600
H 	H 	0.38569 0.50403 0.90662 0.04900
H 	H 	0.31479 0.47529 0.88604 0.04100
H 	H 	0.35909 0.40432 0.93710 0.06900
H 	H 	0.35243 0.40836 0.87471 0.05400
H 	H 	0.28954 0.37775 0.91093 0.05300
C 	C 	0.25369 0.56692 0.08239 -0.14100
H 	H 	0.29055 0.52307 0.11857 0.04000
H 	H 	0.21859 0.47808 0.10126 0.04500
H 	H 	0.29542 0.60435 0.07269 0.06200
H 	H 	0.23872 0.57684 0.11534 0.05100
H 	H 	0.22209 0.55920 0.05453 0.06800
C 	C 	0.66590 0.62007 0.77667 -0.03200
C 	C 	0.61870 0.62824 0.78524 0.03900
C 	C 	0.58379 0.60206 0.82410 -0.03700
C 	C 	0.59669 0.57095 0.85598 -0.03400
C 	C 	0.63718 0.55493 0.84336 0.03700
C 	C 	0.67315 0.58149 0.80467 -0.03100
H 	H 	0.54814 0.60869 0.83078 0.05600
H 	H 	0.70542 0.57063 0.79558 0.05900
C 	C 	0.60300 0.66258 0.75261 -0.05800
C 	C 	0.63549 0.50322 0.86525 -0.05300
C 	C 	0.55450 0.62342 0.71982 -0.14100
H 	H 	0.63933 0.69495 0.73194 0.05000
H 	H 	0.58848 0.68743 0.77378 0.04300
H 	H 	0.56549 0.59500 0.69995 0.07700
H 	H 	0.54620 0.64961 0.69458 0.05800
H 	H 	0.51487 0.59667 0.74007 0.05900
C 	C 	0.58603 0.44806 0.84583 -0.14300
H 	H 	0.63153 0.50374 0.90372 0.03600
H 	H 	0.67590 0.50334 0.85814 0.04700
H 	H 	0.54463 0.44541 0.85386 0.07200
H 	H 	0.58617 0.41086 0.86205 0.05500
H 	H 	0.59032 0.44594 0.80736 0.06400
C 	C 	0.79945 0.92749 0.66363 -0.08500
C 	C 	0.84907 0.96882 0.64002 0.06200
C 	C 	0.86998 0.02688 0.64904 -0.04900
C 	C 	0.84543 0.04419 0.68399 -0.07400
C 	C 	0.80237 0.00239 0.71312 0.02900
C 	C 	0.77774 0.94447 0.70098 -0.00900
H 	H 	0.90557 0.05862 0.62874 0.05100
H 	H 	0.74239 0.91242 0.72131 0.04400
C 	C 	0.88198 0.95207 0.60691 -0.08000
C 	C 	0.78709 0.01810 0.75977 -0.08400
C 	C 	0.87100 0.96076 0.55603 -0.11700
H 	H 	0.87219 0.90744 0.61221 0.05700
H 	H 	0.92839 0.97918 0.61405 0.04300
H 	H 	0.82530 0.93286 0.54703 0.06900
H 	H 	0.89715 0.95005 0.53282 0.04800
H 	H 	0.88323 0.00597 0.54963 0.04300
C 	C 	0.83668 0.04006 0.79434 -0.12800
H 	H 	0.75004 0.98019 0.77572 0.05400
H 	H 	0.77320 0.05000 0.75553 0.05900
H 	H 	0.85057 0.00804 0.79892 0.05200
H 	H 	0.82281 0.04771 0.82880 0.05100
H 	H 	0.87336 0.08089 0.78207 0.05400
C 	C 	0.80921 0.52749 0.64278 -0.08400
C 	C 	0.78238 0.48049 0.61185 0.04100
C 	C 	0.80566 0.44476 0.60575 -0.03400
C 	C 	0.85399 0.45406 0.63109 -0.07600
C 	C 	0.88347 0.50384 0.65887 0.03800
C 	C 	0.85957 0.53885 0.66576 -0.02300
H 	H 	0.78466 0.40826 0.58260 0.04400
H 	H 	0.88138 0.57629 0.68790 0.04100
C 	C 	0.73029 0.46915 0.58371 -0.07500
C 	C 	0.94237 0.52276 0.67834 -0.06400
C 	C 	0.74706 0.50655 0.54003 -0.13800
H 	H 	0.70021 0.47609 0.60515 0.04800
H 	H 	0.70614 0.42363 0.57272 0.04000
H 	H 	0.76845 0.55245 0.54960 0.06000
H 	H 	0.70828 0.49605 0.51942 0.05300
H 	H 	0.77619 0.49882 0.51782 0.05800
C 	C 	0.94017 0.51196 0.73091 -0.13800
H 	H 	0.97039 0.56926 0.67194 0.03700
H 	H 	0.96326 0.50163 0.66041 0.04900
H 	H 	0.92599 0.53855 0.74983 0.05500
H 	H 	0.98331 0.52332 0.74364 0.05300
H 	H 	0.91039 0.46640 0.73894 0.06500
C 	C 	0.72956 0.70930 0.53035 -0.03700
C 	C 	0.76416 0.76523 0.51228 0.03700
C 	C 	0.74569 0.78227 0.47228 -0.03700
C 	C 	0.69567 0.74347 0.44858 -0.03400
C 	C 	0.66387 0.68624 0.46499 0.03300
C 	C 	0.68003 0.67093 0.50639 -0.03600
H 	H 	0.77206 0.82482 0.45818 0.05600
H 	H 	0.65302 0.62848 0.52042 0.04900
C 	C 	0.82381 0.80394 0.53044 -0.05900
C 	C 	0.61158 0.64044 0.43954 -0.05400
C 	C 	0.86524 0.78578 0.51190 -0.14500
H 	H 	0.82462 0.80532 0.56907 0.05700
H 	H 	0.83925 0.84848 0.51893 0.04300
H 	H 	0.85198 0.74141 0.52244 0.07400
H 	H 	0.90862 0.81485 0.52584 0.05700
H 	H 	0.86692 0.78798 0.47319 0.07300
C 	C 	0.55679 0.63557 0.45916 -0.14700
H 	H 	0.60907 0.59843 0.44435 0.03700
H 	H 	0.61365 0.64622 0.40115 0.03900
H 	H 	0.54946 0.61856 0.49541 0.05800
H 	H 	0.51999 0.60581 0.43720 0.06000
H 	H 	0.55903 0.67766 0.45970 0.07300
C 	C 	0.44624 0.86815 0.32246 -0.07200
C 	C 	0.45979 0.85062 0.27987 0.03700
C 	C 	0.49849 0.83039 0.28037 -0.02100
C 	C 	0.52126 0.82445 0.32258 -0.08200
C 	C 	0.50315 0.83629 0.36538 0.04600
C 	C 	0.46655 0.85903 0.36486 -0.03000
H 	H 	0.51103 0.81939 0.24772 0.04900
H 	H 	0.45380 0.86964 0.39757 0.04500
C 	C 	0.43216 0.85132 0.23388 -0.06200
C 	C 	0.51924 0.82103 0.41180 -0.07700
C 	C 	0.47172 0.90377 0.20473 -0.14300
H 	H 	0.39052 0.84927 0.23899 0.05000
H 	H 	0.42239 0.81251 0.21342 0.04100
H 	H 	0.48320 0.94372 0.22396 0.07900
H 	H 	0.45007 0.90353 0.17172 0.06600
H 	H 	0.51138 0.90325 0.19576 0.06200
C 	C 	0.48458 0.75686 0.42094 -0.13100
H 	H 	0.51152 0.84351 0.44097 0.04400
H 	H 	0.56543 0.83528 0.41297 0.05900
H 	H 	0.43818 0.74198 0.42012 0.05300
H 	H 	0.49551 0.74736 0.45596 0.05400
H 	H 	0.49440 0.73304 0.39442 0.05300
C 	C 	0.93423 0.84898 0.33179 -0.06500
C 	C 	0.97339 0.89932 0.35606 0.01400
C 	C 	0.03208 0.92119 0.34949 -0.00100
C 	C 	0.05162 0.89834 0.31483 -0.09500
C 	C 	0.01192 0.85842 0.28268 0.06900
C 	C 	0.95365 0.83080 0.29364 -0.05700
H 	H 	0.06238 0.95637 0.37097 0.05300
H 	H 	0.92335 0.79597 0.27187 0.05300
C 	C 	0.95383 0.93412 0.38391 -0.05600
C 	C 	0.03035 0.84992 0.23462 -0.06300
C 	C 	0.96045 0.92894 0.43638 -0.15900
H 	H 	0.90914 0.92222 0.37588 0.05900
H 	H 	0.98009 0.97981 0.37383 0.03900
H 	H 	0.00619 0.94768 0.44571 0.07600
H 	H 	0.93709 0.88361 0.44744 0.07100
H 	H 	0.94295 0.95240 0.45565 0.05900
C 	C 	0.05872 0.90540 0.20654 -0.13600
H 	H 	0.99284 0.81801 0.21431 0.03000
H 	H 	0.05941 0.83229 0.23719 0.06100
H 	H 	0.03088 0.92471 0.20546 0.06000
H 	H 	0.06625 0.89640 0.17016 0.06000
H 	H 	0.10052 0.93633 0.22211 0.05900
C 	C 	0.15496 0.20679 0.33938 -0.07900
C 	C 	0.20147 0.21783 0.36895 0.04300
C 	C 	0.22132 0.17885 0.37030 -0.02800
C 	C 	0.19480 0.12854 0.34395 -0.07600
C 	C 	0.14812 0.11732 0.31462 0.04200
C 	C 	0.12910 0.15698 0.31232 -0.02600
H 	H 	0.25597 0.18648 0.39371 0.03600
H 	H 	0.09382 0.14884 0.28950 0.04800
C 	C 	0.22622 0.26732 0.40311 -0.06400
C 	C 	0.11948 0.06442 0.28418 -0.06800
C 	C 	0.19323 0.25040 0.44905 -0.14300
H 	H 	0.22700 0.30572 0.38872 0.04100
H 	H 	0.27150 0.28061 0.41059 0.03800
H 	H 	0.14823 0.23913 0.44323 0.07300
H 	H 	0.21335 0.28685 0.47374 0.05400
H 	H 	0.19411 0.21341 0.46501 0.05400
C 	C 	0.14705 0.07631 0.23589 -0.14000
H 	H 	0.07347 0.05043 0.28002 0.03900
H 	H 	0.12090 0.02792 0.30030 0.04600
H 	H 	0.14447 0.11174 0.21863 0.06100
H 	H 	0.12429 0.03764 0.21374 0.04900
H 	H 	0.19247 0.08778 0.23868 0.06600
C 	C 	0.18431 0.71636 0.34362 -0.08500
C 	C 	0.16697 0.68733 0.38681 0.04200
C 	C 	0.13416 0.62764 0.38730 -0.03000
C 	C 	0.12163 0.59615 0.34571 -0.07300
C 	C 	0.14218 0.62522 0.30245 0.03600
C 	C 	0.17385 0.68522 0.30208 -0.02300
H 	H 	0.11999 0.60545 0.42046 0.04800
H 	H 	0.18850 0.70776 0.26911 0.04200
C 	C 	0.18529 0.71933 0.43285 -0.06400
C 	C 	0.13074 0.59322 0.25644 -0.07100
C 	C 	0.13653 0.72360 0.45561 -0.14200
H 	H 	0.22270 0.76285 0.42851 0.04300
H 	H 	0.19915 0.69648 0.45712 0.03900
H 	H 	0.12097 0.74554 0.43214 0.07700
H 	H 	0.15180 0.74840 0.48858 0.06100
H 	H 	0.10057 0.68039 0.46405 0.06200
C 	C 	0.17015 0.56863 0.24932 -0.13400
H 	H 	0.13738 0.62238 0.22670 0.03900
H 	H 	0.08561 0.55892 0.25371 0.05800
H 	H 	0.21551 0.60287 0.25198 0.05500
H 	H 	0.16283 0.54913 0.21400 0.05300
H 	H 	0.16140 0.53500 0.27552 0.05700
C 	C 	0.32134 0.95366 0.21473 -0.02400
C 	C 	0.37118 0.00733 0.20636 0.02800
C 	C 	0.40572 0.01331 0.16792 -0.05100
C 	C 	0.38797 0.97007 0.13447 -0.02300
C 	C 	0.34295 0.91478 0.14562 0.02900
C 	C 	0.30942 0.90731 0.18556 -0.04000
H 	H 	0.44422 0.05386 0.16197 0.05900
H 	H 	0.27532 0.86502 0.19470 0.05300
C 	C 	0.38784 0.05946 0.23679 -0.05600
C 	C 	0.33647 0.86261 0.12054 -0.06400
C 	C 	0.43793 0.07202 0.26883 -0.14400
H 	H 	0.35246 0.05672 0.25800 0.04500
H 	H 	0.40099 0.09711 0.21371 0.04300
H 	H 	0.42639 0.03629 0.29348 0.07800
H 	H 	0.44979 0.11115 0.28949 0.05600
H 	H 	0.47563 0.07923 0.24804 0.06000
C 	C 	0.27796 0.82847 0.09772 -0.15100
H 	H 	0.34181 0.83481 0.14625 0.04100
H 	H 	0.36982 0.87376 0.09358 0.03900
H 	H 	0.24383 0.80930 0.12455 0.06000
H 	H 	0.27656 0.79320 0.07685 0.06400
H 	H 	0.26956 0.85629 0.07446 0.06700
C 	C 	0.14242 0.64152 0.98897 -0.08800
C 	C 	0.14058 0.67864 0.02294 0.04700
C 	C 	0.17262 0.73786 0.01599 -0.02600
C 	C 	0.20806 0.76052 0.97684 -0.07900
C 	C 	0.20805 0.72344 0.94200 0.04100
C 	C 	0.17533 0.66416 0.94854 -0.02300
H 	H 	0.17215 0.76643 0.04235 0.04000
H 	H 	0.17437 0.63557 0.92151 0.03700
C 	C 	0.10754 0.65581 0.06814 -0.06700
C 	C 	0.23870 0.74657 0.89592 -0.06700
C 	C 	0.14308 0.64640 0.10475 -0.13600
H 	H 	0.06687 0.61537 0.06236 0.04700
H 	H 	0.09538 0.68648 0.08240 0.04100
H 	H 	0.15532 0.61521 0.09208 0.07000
H 	H 	0.11772 0.62936 0.13728 0.05700
H 	H 	0.18229 0.68737 0.11304 0.05300
C 	C 	0.20249 0.75922 0.86251 -0.14100
H 	H 	0.24831 0.71520 0.87919 0.03900
H 	H 	0.28036 0.78603 0.90111 0.04600
H 	H 	0.16124 0.71977 0.85548 0.06100
H 	H 	0.22557 0.77548 0.82890 0.05600
H 	H 	0.19414 0.79220 0.87757 0.06900
C 	C 	0.74823 0.23112 0.01645 -0.06900
C 	C 	0.71810 0.22635 0.97452 0.03200
C 	C 	0.65819 0.19610 0.97484 -0.02500
C 	C 	0.62812 0.17057 0.01599 -0.08100
C 	C 	0.65815 0.18114 0.05869 0.04800
C 	C 	0.71795 0.20984 0.05828 -0.03000
H 	H 	0.63506 0.18908 0.94228 0.04500
H 	H 	0.74099 0.21574 0.09073 0.04600
C 	C 	0.74888 0.25012 0.92864 -0.06100
C 	C 	0.62705 0.16325 0.10519 -0.07100
C 	C 	0.75554 0.20494 0.90171 -0.14200
H 	H 	0.79116 0.28895 0.93386 0.04900
H 	H 	0.72405 0.26401 0.90679 0.03600
H 	H 	0.77160 0.18296 0.92468 0.07500
H 	H 	0.78641 0.22532 0.87272 0.06300
H 	H 	0.71383 0.17259 0.88684 0.05800
C 	C 	0.63541 0.21506 0.13302 -0.13600
H 	H 	0.64379 0.14004 0.12592 0.04500
H 	H 	0.58053 0.13374 0.10113 0.05800
H 	H 	0.68090 0.24251 0.14292 0.05500
H 	H 	0.60949 0.20060 0.16549 0.05700
H 	H 	0.62159 0.24055 0.11213 0.06600
C 	C 	0.53534 0.37586 0.02443 -0.08900
C 	C 	0.57221 0.36096 0.04757 0.04400
C 	C 	0.55381 0.30311 0.05592 -0.03100
C 	C 	0.49778 0.26045 0.04506 -0.07500
C 	C 	0.45937 0.27633 0.02598 0.03800
C 	C 	0.47982 0.33321 0.01283 -0.01500
H 	H 	0.58300 0.29143 0.07148 0.04400
H 	H 	0.45112 0.34495 0.99622 0.03400
C 	C 	0.62870 0.40623 0.06777 -0.07400
C 	C 	0.39576 0.23463 0.02318 -0.06100
C 	C 	0.62066 0.42453 0.11634 -0.13700
H 	H 	0.64974 0.44426 0.04479 0.05000
H 	H 	0.65869 0.38951 0.07043 0.04200
H 	H 	0.59264 0.44357 0.11465 0.06100
H 	H 	0.66271 0.45701 0.13054 0.05600
H 	H 	0.60154 0.38732 0.14042 0.05700
C 	C 	0.37726 0.21370 0.97318 -0.14000
H 	H 	0.37223 0.25624 0.03515 0.04100
H 	H 	0.38222 0.19766 0.04701 0.05200
H 	H 	0.38469 0.24983 0.95012 0.05200
H 	H 	0.33105 0.18161 0.97262 0.05300
H 	H 	0.40118 0.19354 0.95916 0.06300
C 	C 	0.53639 0.78563 0.96739 -0.07700
C 	C 	0.52962 0.80277 0.01261 0.04100
C 	C 	0.50473 0.83718 0.01745 -0.01500
C 	C 	0.48578 0.85384 0.97819 -0.08700
C 	C 	0.49035 0.83479 0.93324 0.04700
C 	C 	0.51643 0.80148 0.92823 -0.02600
H 	H 	0.50133 0.85212 0.05185 0.04300
H 	H 	0.51921 0.78596 0.89391 0.04200
C 	C 	0.55132 0.78722 0.05587 -0.06400
C 	C 	0.46204 0.84441 0.89126 -0.07400
C 	C 	0.61045 0.83555 0.06937 -0.14300
H 	H 	0.55277 0.74722 0.05125 0.04100
H 	H 	0.52166 0.77916 0.08553 0.04400
H 	H 	0.64064 0.84619 0.03975 0.06700
H 	H 	0.62657 0.82222 0.09976 0.06000
H 	H 	0.60847 0.87423 0.07929 0.06200
C 	C 	0.39817 0.80146 0.89085 -0.13700
H 	H 	0.48112 0.83979 0.85829 0.04100
H 	H 	0.46890 0.88846 0.89106 0.04900
H 	H 	0.39062 0.75714 0.88997 0.05800
H 	H 	0.37832 0.80824 0.85938 0.04900
H 	H 	0.37744 0.80688 0.92240 0.05800
C 	C 	0.39617 0.03772 0.88010 -0.03600
C 	C 	0.40810 0.02225 0.83597 0.02200
C 	C 	0.39122 0.03857 0.79516 -0.03100
C 	C 	0.36107 0.06837 0.79717 -0.04200
C 	C 	0.35042 0.08515 0.84125 0.03900
C 	C 	0.36964 0.07102 0.88208 -0.04500
H 	H 	0.40057 0.02659 0.76162 0.04600
H 	H 	0.36283 0.08525 0.91561 0.04300
C 	C 	0.43753 0.98723 0.83110 -0.03300
C 	C 	0.32088 0.12003 0.84590 -0.06500
C 	C 	0.39477 0.92497 0.81971 -0.15000
H 	H 	0.46279 0.98926 0.86218 0.05700
H 	H 	0.46885 0.00499 0.80203 0.02800
H 	H 	0.36264 0.90506 0.84796 0.07400
H 	H 	0.41776 0.90085 0.81581 0.05400
H 	H 	0.37247 0.92185 0.78630 0.06300
C 	C 	0.36400 0.18384 0.84688 -0.14000
H 	H 	0.29624 0.10860 0.87913 0.04000
H 	H 	0.28909 0.11079 0.81799 0.05800
H 	H 	0.39736 0.19376 0.87366 0.05400
H 	H 	0.34188 0.20796 0.85528 0.05200
H 	H 	0.38479 0.19815 0.81240 0.07200
C 	C 	0.58149 0.15480 0.68757 -0.07300
C 	C 	0.61111 0.12729 0.70322 0.03600
C 	C 	0.67018 0.15357 0.69610 -0.02100
C 	C 	0.70039 0.20771 0.67526 -0.08600
C 	C 	0.67101 0.23633 0.66144 0.04400
C 	C 	0.61151 0.20881 0.66670 -0.03100
H 	H 	0.69281 0.13182 0.70689 0.03400
H 	H 	0.58872 0.23038 0.65586 0.04100
C 	C 	0.57990 0.06873 0.72564 -0.06400
C 	C 	0.70250 0.29772 0.64484 -0.06800
C 	C 	0.55392 0.02178 0.68872 -0.15600
H 	H 	0.54598 0.06512 0.74953 0.04700
H 	H 	0.60965 0.06161 0.74764 0.03700
H 	H 	0.52217 0.02619 0.66724 0.06400
H 	H 	0.53202 0.97945 0.70618 0.06500
H 	H 	0.58780 0.02373 0.66556 0.05900
C 	C 	0.71539 0.33880 0.68576 -0.13800
H 	H 	0.67574 0.30451 0.61902 0.04000
H 	H 	0.74260 0.30826 0.62628 0.05100
H 	H 	0.67865 0.32277 0.71019 0.05600
H 	H 	0.72399 0.38090 0.67262 0.06000
H 	H 	0.75355 0.34484 0.70501 0.06700
C 	C 	0.17814 0.15959 0.68563 -0.08500
C 	C 	0.15941 0.17465 0.64450 0.04400
C 	C 	0.12585 0.20061 0.64839 -0.03100
C 	C 	0.11225 0.21361 0.69221 -0.07500
C 	C 	0.13155 0.19938 0.73333 0.04000
C 	C 	0.16396 0.17209 0.72953 -0.02800
H 	H 	0.10963 0.21006 0.61702 0.03900
H 	H 	0.17967 0.16202 0.76091 0.03600
C 	C 	0.17350 0.16246 0.59611 -0.06800
C 	C 	0.12215 0.21731 0.78124 -0.07100
C 	C 	0.12386 0.10772 0.57620 -0.14100
H 	H 	0.21305 0.15980 0.59557 0.05500
H 	H 	0.18181 0.19842 0.57240 0.03600
H 	H 	0.11966 0.07008 0.59510 0.07500
H 	H 	0.13154 0.10358 0.53869 0.05500
H 	H 	0.08319 0.10824 0.57901 0.05700
C 	C 	0.16494 0.28005 0.79079 -0.13600
H 	H 	0.12695 0.19108 0.80886 0.03900
H 	H 	0.07813 0.20972 0.78503 0.05600
H 	H 	0.20923 0.28775 0.78885 0.05600
H 	H 	0.15769 0.29160 0.82637 0.05100
H 	H 	0.15978 0.30790 0.76507 0.06300
C 	C 	0.94558 0.83319 0.67463 -0.07500
C 	C 	0.98620 0.81703 0.66083 0.02800
C 	C 	0.04371 0.85919 0.65628 -0.00600
C 	C 	0.06139 0.91662 0.66406 -0.07800
C 	C 	0.02135 0.93289 0.67776 0.04900
C 	C 	0.96386 0.89087 0.68331 -0.04300
H 	H 	0.07469 0.84736 0.64509 0.04000
H 	H 	0.93315 0.90318 0.69426 0.04400
C 	C 	0.96880 0.75641 0.64635 -0.08200
C 	C 	0.03970 0.99456 0.68874 -0.02500
C 	C 	0.94662 0.74441 0.59627 -0.14300
H 	H 	0.93753 0.72392 0.67045 0.05000
H 	H 	0.00627 0.75000 0.64817 0.05500
H 	H 	0.91012 0.75168 0.59243 0.06400
H 	H 	0.93235 0.69932 0.58718 0.06000
H 	H 	0.98083 0.77277 0.57159 0.05500
C 	C 	0.05854 0.00885 0.73959 -0.17800
H 	H 	0.00379 0.00260 0.68238 0.02800
H 	H 	0.07486 0.02435 0.66555 0.03600
H 	H 	0.02362 0.97985 0.76349 0.08000
H 	H 	0.06938 0.05341 0.74713 0.06500
H 	H 	0.09683 0.00491 0.74630 0.06900
C 	C 	0.56199 0.41499 0.66145 -0.07700
C 	C 	0.52866 0.38576 0.62188 0.04000
C 	C 	0.49986 0.32596 0.62112 -0.02500
C 	C 	0.49829 0.29499 0.66097 -0.08700
C 	C 	0.53684 0.32401 0.69815 0.04400
C 	C 	0.56767 0.38387 0.69819 -0.03100
H 	H 	0.47404 0.30344 0.59097 0.04300
H 	H 	0.59604 0.40633 0.72710 0.04200
C 	C 	0.52182 0.41726 0.58078 -0.06500
C 	C 	0.54619 0.29240 0.73773 -0.07000
C 	C 	0.56375 0.42559 0.54172 -0.13600
H 	H 	0.52684 0.45906 0.59116 0.05000
H 	H 	0.47776 0.39222 0.56664 0.04000
H 	H 	0.60832 0.44913 0.55464 0.06500
H 	H 	0.55922 0.45045 0.51282 0.05200
H 	H 	0.55484 0.38359 0.52776 0.05300
C 	C 	0.50516 0.28170 0.77808 -0.13300
H 	H 	0.59049 0.31814 0.75124 0.03800
H 	H 	0.54289 0.25198 0.72564 0.06600
H 	H 	0.51543 0.32275 0.79495 0.05200
H 	H 	0.50911 0.25386 0.80456 0.06000
H 	H 	0.46051 0.26050 0.76541 0.07000
C 	C 	0.30200 0.04759 0.54350 -0.04200
C 	C 	0.25078 0.03281 0.51922 0.02700
C 	C 	0.23491 0.99503 0.48083 -0.03200
C 	C 	0.27290 0.97893 0.46238 -0.01900
C 	C 	0.32737 0.00029 0.48351 -0.00100
C 	C 	0.33915 0.03051 0.52543 -0.02700
H 	H 	0.19489 0.98199 0.46306 0.06400
H 	H 	0.37820 0.04132 0.54394 0.04600
C 	C 	0.21978 0.06562 0.52677 -0.06300
C 	C 	0.37405 0.99180 0.46224 -0.02000
C 	C 	0.25220 0.12457 0.50394 -0.13800
H 	H 	0.21307 0.06967 0.56437 0.06300
H 	H 	0.17638 0.04214 0.51116 0.04900
H 	H 	0.29424 0.15108 0.52101 0.07100
H 	H 	0.22739 0.14686 0.50721 0.05300
H 	H 	0.25909 0.12054 0.46619 0.06800
C 	C 	0.37417 0.94000 0.48344 -0.15600
H 	H 	0.41624 0.03006 0.46960 0.02400
H 	H 	0.37223 0.98915 0.42359 0.03900
H 	H 	0.38820 0.94864 0.52050 0.06400
H 	H 	0.40429 0.93116 0.46377 0.06300
H 	H 	0.33109 0.90149 0.48212 0.07700
