data_crystal

_cell_length_a 40.87730
_cell_length_b 41.39377
_cell_length_c 29.55327
_cell_angle_alpha 90.00025
_cell_angle_beta  89.99943
_cell_angle_gamma 119.99959

_symmetry_space_group_name_	'P 1'
_symmetry_space_group_name_H-M	'P 1'

loop_
_symmetry_equiv_pos_as_xyz
  x,y,z

loop_
_atom_site_label
_atom_site_type_symbol
_atom_site_fract_x
_atom_site_fract_y
_atom_site_fract_z
_atom_site_charge
Zn	Zn	0.13839 0.64990 0.86561 1.22600
Zn	Zn	0.05225 0.63958 0.85701 1.19500
C 	C 	0.16889 0.70352 0.71727 0.29300
Zn	Zn	0.10228 0.65578 0.77406 1.22400
Zn	Zn	0.18992 0.66573 0.78378 1.19800
H 	H 	0.11504 0.69860 0.84013 0.17300
C 	C 	0.04578 0.57844 0.79138 0.29800
O 	O 	0.20900 0.63690 0.81516 -0.46200
O 	O 	0.17881 0.63210 0.88328 -0.38400
O 	O 	0.10538 0.67148 0.83723 -0.78800
O 	O 	0.05743 0.62759 0.92148 -0.45900
O 	O 	0.17312 0.70043 0.88690 -0.44400
O 	O 	0.10491 0.61414 0.91134 -0.44200
O 	O 	0.21844 0.70698 0.83744 -0.39900
O 	O 	0.01819 0.63483 0.80633 -0.46300
H 	H 	0.12727 0.61012 0.79921 0.17200
O 	O 	0.06326 0.67373 0.75599 -0.40100
O 	O 	0.13709 0.63723 0.80252 -0.80400
O 	O 	0.18982 0.70832 0.75308 -0.46900
O 	O 	0.06326 0.60448 0.76058 -0.44300
O 	O 	0.13174 0.68353 0.71953 -0.43200
O 	O 	0.04782 0.58714 0.83466 -0.41100
C 	C 	0.20065 0.62442 0.85727 0.30400
C 	C 	0.08282 0.62011 0.93831 0.31300
C 	C 	0.20386 0.72193 0.86398 0.30600
C 	C 	0.02809 0.65645 0.77039 0.30400
C 	C 	0.98742 0.48998 0.70387 0.00500
C 	C 	0.01948 0.54053 0.77611 -0.07500
C 	C 	0.01836 0.49240 0.72826 -0.05300
C 	C 	0.03392 0.51733 0.76442 0.00400
H 	H 	0.05989 0.52168 0.77978 0.02200
C 	C 	0.08549 0.55655 0.19184 -0.04300
C 	C 	0.05306 0.55222 0.21365 0.00800
C 	C 	0.04467 0.58719 0.15242 0.00000
C 	C 	0.09451 0.57144 0.14825 -0.03600
C 	C 	0.07192 0.58369 0.12661 -0.00100
C 	C 	0.06077 0.61519 0.06349 0.00400
C 	C 	0.07699 0.59431 0.08025 0.00900
C 	C 	0.09448 0.58144 0.04956 -0.05600
C 	C 	0.09721 0.59067 0.00366 0.01000
C 	C 	0.08182 0.61207 0.98729 -0.08500
C 	C 	0.06442 0.62500 0.01754 -0.01300
H 	H 	0.10282 0.54681 0.20787 0.03700
H 	H 	0.11986 0.57481 0.13234 0.03600
H 	H 	0.10399 0.56256 0.06042 0.04300
H 	H 	0.11030 0.58013 0.98062 0.04000
H 	H 	0.05281 0.64185 0.00513 0.03400
C 	C 	0.03966 0.62468 0.09242 -0.04200
C 	C 	0.23791 0.77378 0.63616 0.00500
C 	C 	0.24291 0.74982 0.60650 0.00700
C 	C 	0.21532 0.71159 0.60585 -0.05800
C 	C 	0.18806 0.69668 0.64002 -0.00100
C 	C 	0.18737 0.71986 0.67412 -0.08700
C 	C 	0.21060 0.75859 0.67051 -0.01000
H 	H 	0.21455 0.69356 0.57887 0.04000
H 	H 	0.16875 0.66686 0.64128 0.01700
H 	H 	0.20885 0.77666 0.69583 0.03800
C 	C 	0.26132 0.81242 0.63258 -0.04200
H 	H 	0.25722 0.83094 0.65478 0.03800
C 	C 	0.20598 0.83727 0.91117 -0.04200
C 	C 	0.22435 0.81960 0.89205 0.00400
C 	C 	0.26217 0.84117 0.87703 0.00900
C 	C 	0.20552 0.78053 0.88842 -0.01500
C 	C 	0.22465 0.76262 0.87212 -0.08000
C 	C 	0.28181 0.82282 0.86346 -0.05700
C 	C 	0.26302 0.78395 0.86057 0.00900
H 	H 	0.27847 0.77039 0.84958 0.03800
H 	H 	0.17600 0.76416 0.89796 0.03100
H 	H 	0.17657 0.82107 0.92112 0.03300
C 	C 	0.21228 0.44081 0.25812 -0.04300
C 	C 	0.23503 0.46886 0.22739 0.00400
C 	C 	0.21849 0.48274 0.19662 0.00800
C 	C 	0.17950 0.47120 0.20085 -0.00100
C 	C 	0.17330 0.42625 0.25866 -0.03700
C 	C 	0.15621 0.44040 0.22923 -0.00100
C 	C 	0.27419 0.48285 0.22661 -0.01400
C 	C 	0.29675 0.50911 0.19390 -0.08200
C 	C 	0.24101 0.50690 0.16167 -0.05700
C 	C 	0.16447 0.49234 0.18174 -0.03600
C 	C 	0.10326 0.45081 0.21494 0.00600
C 	C 	0.11695 0.42790 0.23196 0.00800
C 	C 	0.09116 0.39353 0.25222 -0.05600
C 	C 	0.05494 0.38623 0.26386 0.00400
C 	C 	0.04369 0.41228 0.25369 -0.07900
C 	C 	0.06670 0.44305 0.22630 -0.01100
C 	C 	0.27993 0.52074 0.16123 0.00800
H 	H 	0.29693 0.53990 0.13472 0.03400
H 	H 	0.22839 0.51353 0.13364 0.04000
H 	H 	0.28692 0.47254 0.25060 0.02900
H 	H 	0.22485 0.43018 0.28185 0.03300
H 	H 	0.15692 0.40582 0.28424 0.03400
H 	H 	0.18243 0.51821 0.16420 0.03600
H 	H 	0.09881 0.37242 0.25857 0.04000
H 	H 	0.03638 0.36126 0.28283 0.02300
H 	H 	0.05715 0.46226 0.21654 0.04100
C 	C 	0.12684 0.48224 0.18898 -0.04200
H 	H 	0.11620 0.49940 0.17498 0.03700
C 	C 	0.22499 0.56273 0.98594 -0.04400
C 	C 	0.23217 0.57575 0.94123 0.00800
C 	C 	0.25856 0.57140 0.91484 0.00700
C 	C 	0.28086 0.55801 0.93557 0.00000
C 	C 	0.24345 0.54510 0.00452 -0.03500
C 	C 	0.27055 0.54125 0.97902 -0.00300
C 	C 	0.21312 0.59302 0.92245 -0.01700
C 	C 	0.21886 0.60428 0.87684 -0.07600
C 	C 	0.26108 0.57919 0.86813 -0.05600
C 	C 	0.24195 0.59607 0.84957 0.00400
H 	H 	0.24486 0.60246 0.81376 0.03200
H 	H 	0.27650 0.57088 0.84574 0.04000
H 	H 	0.19394 0.59759 0.94324 0.04700
H 	H 	0.20500 0.56621 0.00648 0.03900
H 	H 	0.23842 0.53685 0.03970 0.03500
O 	O 	0.02214 0.43840 0.31054 -0.46400
C 	C 	0.01334 0.41232 0.27984 0.30200
C 	C 	0.03247 0.56801 0.19441 0.00800
C 	C 	0.03882 0.52899 0.25173 -0.01400
H 	H 	0.05404 0.51597 0.26549 0.04000
C 	C 	0.27587 0.76463 0.57909 -0.00200
H 	H 	0.27490 0.71200 0.56960 0.03400
C 	C 	0.22556 0.87577 0.91847 -0.03900
H 	H 	0.21028 0.88881 0.93159 0.03500
C 	C 	0.29093 0.52495 0.99800 0.00800
C 	C 	0.27704 0.50040 0.03531 -0.05800
H 	H 	0.24835 0.48943 0.04709 0.04300
C 	C 	0.30005 0.48901 0.05686 0.01300
H 	H 	0.28985 0.47193 0.08703 0.04200
C 	C 	0.28970 0.74162 0.56268 -0.03700
H 	H 	0.31188 0.83832 0.85706 0.04200
C 	C 	0.31533 0.56483 0.91618 -0.03800
H 	H 	0.32633 0.58178 0.88610 0.03600
C 	C 	0.33759 0.55268 0.93772 -0.04300
H 	H 	0.36439 0.55906 0.92280 0.03600
Zn	Zn	0.40260 0.52039 0.22892 1.22200
Zn	Zn	0.39915 0.43714 0.23267 1.19100
C 	C 	0.36451 0.49853 0.07025 0.31900
Zn	Zn	0.38501 0.46608 0.14667 1.22300
Zn	Zn	0.41310 0.55557 0.13403 1.19600
H 	H 	0.34515 0.44985 0.21627 0.17200
C 	C 	0.45433 0.46524 0.14958 0.30800
O 	O 	0.42021 0.59703 0.17379 -0.46400
O 	O 	0.43805 0.57923 0.23819 -0.40000
O 	O 	0.37275 0.46343 0.21078 -0.79700
O 	O 	0.43085 0.46921 0.28343 -0.45900
O 	O 	0.35663 0.52491 0.22799 -0.43800
O 	O 	0.41844 0.51708 0.29123 -0.43100
O 	O 	0.35313 0.52701 0.15077 -0.41900
O 	O 	0.38376 0.39328 0.19228 -0.46400
H 	H 	0.45094 0.52993 0.17001 0.17700
O 	O 	0.35197 0.40718 0.13853 -0.39800
O 	O 	0.42364 0.52153 0.16879 -0.79200
O 	O 	0.39809 0.52818 0.07531 -0.46900
O 	O 	0.42669 0.46123 0.12360 -0.44700
O 	O 	0.35290 0.47030 0.09870 -0.42600
O 	O 	0.45197 0.46737 0.19376 -0.41400
C 	C 	0.43896 0.60552 0.21224 0.30100
C 	C 	0.42264 0.49015 0.30922 0.29300
C 	C 	0.33729 0.52154 0.19090 0.30400
C 	C 	0.36412 0.38517 0.15428 0.30300
Zn	Zn	0.50555 0.13654 0.04846 1.22300
Zn	Zn	0.42562 0.05244 0.05025 1.19200
C 	C 	0.47276 0.15810 0.89490 0.31900
Zn	Zn	0.44876 0.10134 0.96762 1.22200
H 	H 	0.43144 0.11622 0.04265 0.17200
C 	C 	0.45914 0.03785 0.96282 0.30100
O 	O 	0.44736 0.10559 0.03341 -0.79600
O 	O 	0.45739 0.05321 0.10205 -0.45400
O 	O 	0.50317 0.18249 0.05873 -0.43800
O 	O 	0.50923 0.11176 0.10357 -0.43200
O 	O 	0.49653 0.19296 0.98405 -0.41500
O 	O 	0.38302 0.02251 0.00827 -0.46200
O 	O 	0.38868 0.07006 0.96299 -0.39700
O 	O 	0.50692 0.12469 0.98469 -0.79300
O 	O 	0.50679 0.16260 0.89842 -0.47100
O 	O 	0.44902 0.05861 0.94000 -0.44100
O 	O 	0.44632 0.13761 0.92462 -0.42400
O 	O 	0.46210 0.04043 0.00724 -0.41300
C 	C 	0.48191 0.08287 0.12499 0.29400
C 	C 	0.49107 0.19660 0.02731 0.29700
C 	C 	0.36944 0.03509 0.97667 0.29900
Zn	Zn	0.52658 0.92249 0.53182 1.22400
Zn	Zn	0.50621 0.88763 0.43827 1.19700
C 	C 	0.58771 0.02288 0.46497 0.29500
O 	O 	0.45917 0.85528 0.47265 -0.46200
O 	O 	0.46719 0.89904 0.52521 -0.40300
O 	O 	0.57944 0.99468 0.60547 -0.45600
O 	O 	0.52078 0.95200 0.57972 -0.43900
O 	O 	0.53515 0.86309 0.47478 -0.41800
H 	H 	0.52483 0.95278 0.46004 0.17700
O 	O 	0.53469 0.93608 0.46826 -0.79500
O 	O 	0.54074 0.89809 0.38624 -0.47200
O 	O 	0.60035 0.00427 0.44162 -0.43600
C 	C 	0.44498 0.86887 0.50196 0.30300
C 	C 	0.54429 0.96845 0.61350 0.30500
C 	C 	0.32483 0.75720 0.54136 -0.04300
C 	C 	0.34614 0.79572 0.53409 0.00600
C 	C 	0.33133 0.81882 0.54662 0.00800
C 	C 	0.29837 0.80396 0.57394 -0.00100
C 	C 	0.38282 0.81177 0.51603 -0.01300
C 	C 	0.40396 0.85043 0.50906 -0.08500
C 	C 	0.35030 0.85635 0.53241 -0.05700
C 	C 	0.29075 0.82749 0.60125 -0.03700
C 	C 	0.38674 0.87218 0.51469 0.00800
H 	H 	0.40202 0.90162 0.50642 0.02700
H 	H 	0.33680 0.87309 0.53429 0.04100
H 	H 	0.39549 0.79461 0.50964 0.04100
H 	H 	0.33575 0.73924 0.53114 0.03700
H 	H 	0.30941 0.85737 0.60112 0.03700
C 	C 	0.52373 0.10226 0.24325 0.00800
C 	C 	0.49824 0.06903 0.26624 0.00600
C 	C 	0.50638 0.06373 0.31152 -0.00000
C 	C 	0.51703 0.10746 0.19796 -0.01800
C 	C 	0.48661 0.07876 0.17411 -0.07900
C 	C 	0.46748 0.04053 0.24215 -0.05600
C 	C 	0.47865 0.03642 0.33994 -0.03800
C 	C 	0.52677 0.04677 0.39538 0.00500
C 	C 	0.57634 0.04649 0.44053 -0.07700
C 	C 	0.53795 0.03313 0.43226 -0.01700
C 	C 	0.46148 0.04569 0.19682 0.00200
H 	H 	0.43776 0.02340 0.17904 0.02700
H 	H 	0.44945 0.01358 0.25741 0.03900
H 	H 	0.44909 0.02244 0.33070 0.03400
H 	H 	0.51687 0.00964 0.45163 0.02500
C 	C 	0.48880 0.02843 0.38179 -0.04400
H 	H 	0.46729 0.00678 0.40282 0.03300
C 	C 	0.43385 0.94914 0.84234 -0.04400
C 	C 	0.45959 0.97428 0.87392 0.01000
C 	C 	0.49896 0.98990 0.86675 0.00200
C 	C 	0.51163 0.98102 0.82624 0.00100
C 	C 	0.44654 0.94364 0.80083 -0.03600
C 	C 	0.48547 0.96258 0.79084 -0.00200
C 	C 	0.44651 0.98651 0.91032 -0.01800
C 	C 	0.47212 0.01578 0.93791 -0.07500
C 	C 	0.49912 0.96224 0.74672 0.00800
C 	C 	0.47609 0.95465 0.70806 -0.05600
C 	C 	0.49067 0.95595 0.66494 0.00900
C 	C 	0.52865 0.96582 0.65934 -0.08300
H 	H 	0.41642 0.97564 0.91465 0.03900
H 	H 	0.40381 0.93485 0.84928 0.03800
H 	H 	0.42619 0.92359 0.77740 0.03600
H 	H 	0.44763 0.94986 0.71089 0.04300
H 	H 	0.47261 0.95040 0.63572 0.04300
C 	C 	0.28035 0.88068 0.87953 -0.00300
C 	C 	0.26387 0.89738 0.90586 0.00200
C 	C 	0.31313 0.90374 0.85424 -0.03500
C 	C 	0.32085 0.95806 0.89483 0.01300
C 	C 	0.28594 0.93582 0.91730 0.00300
C 	C 	0.27654 0.95116 0.95443 -0.05100
C 	C 	0.30222 0.98694 0.97006 -0.00200
C 	C 	0.33765 0.00773 0.94954 -0.06500
C 	C 	0.34535 0.99467 0.90952 -0.02500
H 	H 	0.32272 0.89224 0.82794 0.03500
H 	H 	0.25114 0.93448 0.97385 0.03800
H 	H 	0.29590 0.99710 0.00075 0.02300
H 	H 	0.37260 0.01116 0.89322 0.04900
C 	C 	0.33269 0.94222 0.86126 -0.04700
H 	H 	0.35817 0.95954 0.84203 0.03900
C 	C 	0.32572 0.53279 0.97840 0.00400
C 	C 	0.33678 0.50123 0.04095 -0.08600
C 	C 	0.34873 0.52142 0.00040 -0.01400
H 	H 	0.37645 0.52941 0.98690 0.03600
C 	C 	0.53713 0.70422 0.30754 -0.04300
C 	C 	0.51020 0.69360 0.27292 0.00700
C 	C 	0.50339 0.72056 0.25239 0.00600
C 	C 	0.52529 0.75846 0.26583 -0.00100
C 	C 	0.55539 0.74070 0.32415 -0.03700
C 	C 	0.54737 0.76743 0.30572 -0.00200
C 	C 	0.48938 0.65611 0.25930 -0.01800
C 	C 	0.46040 0.64487 0.22709 -0.08100
C 	C 	0.47297 0.70866 0.22179 -0.05600
C 	C 	0.52744 0.78761 0.23903 -0.03800
C 	C 	0.56037 0.83177 0.29943 0.00400
C 	C 	0.56215 0.80364 0.32490 0.00800
C 	C 	0.57918 0.87189 0.36568 -0.08800
C 	C 	0.57047 0.86622 0.31952 -0.01200
C 	C 	0.45209 0.67125 0.20889 0.00400
H 	H 	0.42888 0.66267 0.18534 0.03500
H 	H 	0.46415 0.72778 0.20968 0.04100
H 	H 	0.49558 0.63574 0.27393 0.04400
H 	H 	0.54354 0.68401 0.32219 0.03900
H 	H 	0.51667 0.78250 0.20477 0.03500
H 	H 	0.56793 0.88724 0.30040 0.03600
C 	C 	0.54525 0.82399 0.25560 -0.04300
H 	H 	0.54585 0.84595 0.23499 0.03600
C 	C 	0.45722 0.29517 0.01603 -0.04100
C 	C 	0.45137 0.26178 0.03526 0.00400
C 	C 	0.42381 0.24414 0.06947 0.01000
C 	C 	0.40522 0.26261 0.08759 -0.00200
C 	C 	0.43639 0.31155 0.03065 -0.03700
C 	C 	0.40930 0.29500 0.06557 -0.00000
C 	C 	0.47312 0.24590 0.02101 -0.01100
C 	C 	0.46730 0.21250 0.04045 -0.08200
C 	C 	0.41528 0.20838 0.08453 -0.05900
C 	C 	0.38629 0.25183 0.12965 -0.03600
C 	C 	0.37133 0.30148 0.12537 0.00700
C 	C 	0.38935 0.31251 0.08274 0.00700
C 	C 	0.38739 0.34108 0.05881 -0.05500
C 	C 	0.37479 0.36287 0.08068 0.00700
C 	C 	0.36219 0.35519 0.12564 -0.07700
C 	C 	0.35737 0.32261 0.14624 -0.01400
C 	C 	0.43793 0.19359 0.07161 0.00800
H 	H 	0.43209 0.16691 0.08515 0.01100
H 	H 	0.39038 0.19132 0.10463 0.03900
H 	H 	0.49485 0.25978 0.99550 0.03700
H 	H 	0.47840 0.30885 0.98991 0.03500
H 	H 	0.44333 0.33837 0.01677 0.03500
H 	H 	0.38691 0.23046 0.15001 0.03500
H 	H 	0.39490 0.34614 0.02341 0.04200
H 	H 	0.37680 0.38691 0.06348 0.03900
H 	H 	0.34568 0.31552 0.18014 0.03200
C 	C 	0.36944 0.27093 0.14796 -0.04300
H 	H 	0.35583 0.26258 0.18074 0.03500
C 	C 	0.50960 0.43915 0.02203 -0.04100
C 	C 	0.51324 0.46298 0.05763 0.00700
C 	C 	0.53826 0.50177 0.05363 0.00900
C 	C 	0.55429 0.51699 0.01073 -0.00100
C 	C 	0.52872 0.45359 0.98140 -0.03700
C 	C 	0.55176 0.49256 0.97533 -0.00100
C 	C 	0.48960 0.44903 0.09560 -0.01100
C 	C 	0.49005 0.47372 0.12838 -0.08300
C 	C 	0.56858 0.50781 0.93273 0.00800
C 	C 	0.57497 0.48660 0.90019 -0.05500
C 	C 	0.58831 0.50123 0.85721 0.00600
C 	C 	0.52017 0.51055 0.12899 0.00500
H 	H 	0.52252 0.52923 0.15609 0.02200
H 	H 	0.46784 0.41982 0.09689 0.03900
H 	H 	0.49073 0.40934 0.02517 0.03700
H 	H 	0.52294 0.43453 0.95358 0.03600
H 	H 	0.57168 0.45972 0.90869 0.04300
H 	H 	0.59284 0.48451 0.83254 0.03900
C 	C 	0.43125 0.54485 0.46016 -0.04300
C 	C 	0.43181 0.51714 0.43334 0.00800
C 	C 	0.44220 0.49228 0.45279 0.00500
C 	C 	0.45193 0.49593 0.49943 0.00100
C 	C 	0.44472 0.55068 0.50456 -0.03600
C 	C 	0.45855 0.52841 0.52300 -0.00200
C 	C 	0.42378 0.51517 0.38687 -0.01800
C 	C 	0.42832 0.49023 0.35885 -0.08100
C 	C 	0.44647 0.46720 0.42439 -0.05600
C 	C 	0.45429 0.46768 0.52326 -0.03900
C 	C 	0.48561 0.51048 0.58540 0.00200
C 	C 	0.47865 0.53741 0.56472 0.01000
C 	C 	0.49650 0.57401 0.58260 -0.05600
C 	C 	0.43902 0.46587 0.37810 0.00100
H 	H 	0.44258 0.44644 0.35702 0.02700
H 	H 	0.45761 0.45021 0.43734 0.03900
H 	H 	0.41515 0.53382 0.37236 0.04700
H 	H 	0.42135 0.56264 0.44617 0.03900
H 	H 	0.44266 0.57127 0.52496 0.03600
H 	H 	0.44245 0.43987 0.50940 0.03400
H 	H 	0.49286 0.59562 0.56705 0.04300
C 	C 	0.47068 0.47489 0.56615 -0.04200
C 	C 	0.51391 0.27973 0.78453 -0.00100
C 	C 	0.50195 0.31213 0.84589 -0.03600
C 	C 	0.48112 0.24628 0.85338 0.00600
C 	C 	0.49276 0.24560 0.80851 0.00700
C 	C 	0.48397 0.21094 0.78939 -0.05700
C 	C 	0.47205 0.17972 0.81720 0.01000
C 	C 	0.46707 0.18234 0.86370 -0.08300
C 	C 	0.46798 0.21440 0.88074 -0.01600
H 	H 	0.48618 0.20801 0.75331 0.04200
H 	H 	0.46900 0.15418 0.80314 0.03000
H 	H 	0.46197 0.21570 0.91624 0.04600
C 	C 	0.48513 0.27935 0.87133 -0.04300
H 	H 	0.47611 0.27997 0.90566 0.03700
H 	H 	0.53456 0.79722 0.48414 0.03900
H 	H 	0.03273 0.47795 0.71693 0.03900
C 	C 	0.52445 0.01729 0.89723 -0.05100
C 	C 	0.53773 0.97332 0.74095 0.00400
C 	C 	0.51092 0.02958 0.93285 0.00400
C 	C 	0.54477 0.52447 0.09206 -0.05900
H 	H 	0.47361 0.45336 0.58339 0.03000
C 	C 	0.51583 0.31266 0.80188 -0.00100
H 	H 	0.50914 0.37512 0.80829 0.04100
H 	H 	0.50677 0.33759 0.86199 0.03600
C 	C 	0.54288 0.08759 0.32929 -0.00100
C 	C 	0.55433 0.07687 0.36932 0.00800
C 	C 	0.57337 0.89943 0.39019 0.32000
H 	H 	0.53083 0.05216 0.95423 0.01900
H 	H 	0.55419 0.75071 0.47697 0.03600
C 	C 	0.53361 0.85721 0.51883 0.29500
C 	C 	0.52282 0.58405 0.61760 0.01200
C 	C 	0.57076 0.57210 0.65144 0.30900
O 	O 	0.60660 0.57820 0.78297 -0.45500
O 	O 	0.57720 0.57245 0.69509 -0.41800
C 	C 	0.61395 0.55368 0.80229 0.30700
Zn	Zn	0.53434 0.17434 0.95686 1.19600
O 	O 	0.57467 0.20918 0.99826 -0.46300
O 	O 	0.56566 0.16670 0.05309 -0.40100
H 	H 	0.51953 0.10988 0.97980 0.17900
C 	C 	0.58804 0.19748 0.03086 0.30200
Zn	Zn	0.61137 0.99767 0.55237 1.19300
Zn	Zn	0.59367 0.95651 0.46309 1.22200
H 	H 	0.59704 0.93119 0.53869 0.17300
O 	O 	0.58587 0.94619 0.52792 -0.79400
O 	O 	0.52033 0.87310 0.54625 -0.43800
O 	O 	0.59892 0.92212 0.41957 -0.42600
O 	O 	0.58072 0.01665 0.50877 -0.40900
C 	C 	0.55661 0.12921 0.26510 -0.04300
C 	C 	0.56637 0.12190 0.30759 -0.03600
C 	C 	0.59289 0.09220 0.38060 -0.05500
C 	C 	0.60360 0.07716 0.41608 0.00900
H 	H 	0.53626 0.13332 0.18090 0.04800
H 	H 	0.57526 0.15551 0.24858 0.04000
H 	H 	0.59121 0.14362 0.32428 0.03700
H 	H 	0.61480 0.11350 0.35979 0.04300
H 	H 	0.63336 0.08759 0.42234 0.03500
C 	C 	0.54924 0.98904 0.82076 -0.03900
C 	C 	0.55197 0.97400 0.69747 -0.01500
H 	H 	0.55457 0.03135 0.89151 0.03800
H 	H 	0.56811 0.99659 0.84941 0.03500
H 	H 	0.58133 0.98163 0.69324 0.02800
C 	C 	0.56200 0.98495 0.77848 -0.04200
H 	H 	0.59111 0.99169 0.77470 0.03300
C 	C 	0.57442 0.81111 0.37042 -0.05700
C 	C 	0.58354 0.84531 0.39016 0.00900
H 	H 	0.57715 0.74844 0.34946 0.03600
H 	H 	0.57395 0.78969 0.39176 0.04100
H 	H 	0.59071 0.84972 0.42579 0.03800
C 	C 	0.56763 0.55495 0.00068 -0.03600
C 	C 	0.58033 0.54555 0.92308 0.00500
C 	C 	0.59704 0.53768 0.84648 -0.08200
C 	C 	0.59333 0.55992 0.87956 -0.01200
H 	H 	0.56844 0.55266 0.09337 0.03900
H 	H 	0.56619 0.57336 0.02553 0.03200
C 	C 	0.57971 0.56872 0.95714 -0.04400
C 	C 	0.53239 0.55829 0.63457 -0.08500
C 	C 	0.51099 0.52079 0.62178 -0.01000
H 	H 	0.53872 0.61298 0.62814 0.03100
H 	H 	0.51769 0.50063 0.63607 0.01800
C 	C 	0.56030 0.31694 0.72681 -0.04300
C 	C 	0.55997 0.34896 0.74131 0.00500
C 	C 	0.53579 0.34652 0.77706 0.00800
C 	C 	0.53713 0.28258 0.74750 -0.03700
C 	C 	0.58369 0.38358 0.72058 -0.01500
C 	C 	0.58215 0.41532 0.73391 -0.08500
C 	C 	0.53155 0.37763 0.78649 -0.05700
C 	C 	0.55510 0.41186 0.76570 0.00500
H 	H 	0.55193 0.43567 0.77386 0.02500
H 	H 	0.57874 0.31864 0.69942 0.03700
H 	H 	0.53946 0.25887 0.73667 0.03600
C 	C 	0.57028 0.76081 0.50804 -0.04200
C 	C 	0.57085 0.79036 0.53176 0.00500
C 	C 	0.59008 0.74380 0.52416 -0.03700
C 	C 	0.55094 0.80741 0.51504 -0.01400
C 	C 	0.55240 0.83780 0.53796 -0.08300
C 	C 	0.57488 0.85196 0.57675 0.00500
H 	H 	0.58703 0.71967 0.50630 0.03700
O 	O 	0.65366 0.98341 0.46940 -0.40500
Zn	Zn	0.64735 0.53902 0.72305 1.22500
Zn	Zn	0.63138 0.61073 0.72812 1.19000
O 	O 	0.62047 0.45546 0.67289 -0.46100
O 	O 	0.62225 0.48167 0.74185 -0.39700
O 	O 	0.64020 0.54731 0.78630 -0.44900
O 	O 	0.63626 0.65059 0.68589 -0.46200
H 	H 	0.58980 0.51829 0.67612 0.17200
O 	O 	0.61689 0.52960 0.66845 -0.80000
O 	O 	0.59763 0.57951 0.62228 -0.44400
C 	C 	0.60874 0.45234 0.71507 0.29700
C 	C 	0.65561 0.66201 0.64757 0.29800
O 	O 	0.65755 0.02900 0.51648 -0.46300
C 	C 	0.67310 0.01717 0.48664 0.30800
H 	H 	0.68968 0.02760 0.39634 0.03800
C 	C 	0.64727 0.19882 0.05331 -0.01600
C 	C 	0.62855 0.21827 0.04188 -0.08500
H 	H 	0.63347 0.27248 0.03542 0.03500
H 	H 	0.63223 0.16857 0.05180 0.03700
H 	H 	0.60171 0.58867 0.87194 0.03200
H 	H 	0.58873 0.59766 0.94992 0.03400
H 	H 	0.60358 0.38588 0.69472 0.04100
C 	C 	0.59162 0.80322 0.57250 0.00800
C 	C 	0.60887 0.78366 0.59124 -0.00200
C 	C 	0.61087 0.75589 0.56494 -0.00000
C 	C 	0.59548 0.83581 0.59293 -0.05900
C 	C 	0.62050 0.78856 0.63695 -0.03700
C 	C 	0.63018 0.73796 0.58276 0.00700
C 	C 	0.63836 0.71453 0.55600 -0.05500
C 	C 	0.65019 0.69162 0.57657 0.00700
H 	H 	0.57769 0.87655 0.59336 0.01400
H 	H 	0.61576 0.84986 0.61967 0.03700
H 	H 	0.61455 0.80551 0.65953 0.03500
H 	H 	0.63638 0.71446 0.51952 0.04200
H 	H 	0.65317 0.67144 0.55630 0.04000
C 	C 	0.70925 0.05009 0.41805 0.01100
C 	C 	0.64131 0.74337 0.62873 0.00600
Zn	Zn	0.64546 0.58431 0.64035 1.22400
Zn	Zn	0.62612 0.49575 0.63191 1.19700
H 	H 	0.69192 0.61152 0.70323 0.17600
O 	O 	0.66454 0.59323 0.70166 -0.80100
O 	O 	0.66936 0.64257 0.62790 -0.39500
C 	C 	0.70845 0.04489 0.46501 -0.08000
C 	C 	0.68481 0.21812 0.06840 0.00600
C 	C 	0.68557 0.27695 0.05795 -0.05700
C 	C 	0.64797 0.25732 0.04353 0.00800
H 	H 	0.68774 0.16818 0.08104 0.03800
H 	H 	0.65234 0.52071 0.48122 0.03700
C 	C 	0.65631 0.69353 0.62344 -0.07700
C 	C 	0.65496 0.72159 0.64852 -0.01500
H 	H 	0.66191 0.72460 0.68429 0.03100
C 	C 	0.63679 0.76889 0.65513 -0.04300
H 	H 	0.64490 0.77274 0.69051 0.03400
O 	O 	0.63491 0.52128 0.57211 -0.46800
H 	H 	0.66219 0.48786 0.41915 0.03700
C 	C 	0.73269 0.08544 0.39955 -0.05600
H 	H 	0.73405 0.08877 0.36317 0.04300
C 	C 	0.66628 0.55273 0.56365 0.31700
O 	O 	0.69692 0.54347 0.71318 -0.44000
O 	O 	0.68786 0.52400 0.63905 -0.41100
O 	O 	0.67632 0.58229 0.58942 -0.43300
C 	C 	0.71032 0.54087 0.67373 0.30600
C 	C 	0.75899 0.10902 0.47394 0.00600
C 	C 	0.75414 0.11612 0.42841 0.00900
C 	C 	0.76892 0.15363 0.41375 -0.00100
C 	C 	0.73651 0.07308 0.49183 -0.01200
C 	C 	0.75439 0.16209 0.37494 -0.03600
H 	H 	0.73784 0.06818 0.52769 0.03000
H 	H 	0.73200 0.14023 0.35523 0.03700
H 	H 	0.75363 0.20465 0.33448 0.03700
C 	C 	0.70202 0.19828 0.08426 -0.04300
C 	C 	0.70472 0.25764 0.06977 0.00700
C 	C 	0.74206 0.27653 0.08747 -0.00100
C 	C 	0.73699 0.21690 0.10588 -0.03700
H 	H 	0.69874 0.30679 0.06251 0.04100
H 	H 	0.75018 0.20110 0.11651 0.03700
C 	C 	0.71039 0.48055 0.41407 -0.03700
C 	C 	0.70451 0.52085 0.46903 0.00400
C 	C 	0.69390 0.55221 0.53215 -0.08600
C 	C 	0.68122 0.53117 0.49234 -0.01300
H 	H 	0.71621 0.42042 0.39476 0.04100
H 	H 	0.69902 0.46252 0.38489 0.03600
C 	C 	0.68997 0.49605 0.43250 -0.04300
C 	C 	0.03131 0.61056 0.13639 -0.03800
C 	C 	0.98771 0.44689 0.64589 -0.03900
H 	H 	0.99778 0.43397 0.66964 0.03600
C 	C 	0.98318 0.43584 0.60063 -0.04200
H 	H 	0.99211 0.41645 0.58971 0.03400
H 	H 	0.97905 0.42523 0.51150 0.02900
C 	C 	0.76607 0.19895 0.36363 -0.04200
C 	C 	0.78362 0.13834 0.50202 -0.04200
H 	H 	0.78785 0.13290 0.53679 0.03600
C 	C 	0.75558 0.25592 0.11135 -0.00100
C 	C 	0.76661 0.31498 0.08035 -0.03800
H 	H 	0.76003 0.33018 0.05567 0.03600
C 	C 	0.74190 0.53353 0.48427 0.00900
C 	C 	0.73141 0.56634 0.54608 0.01500
H 	H 	0.74153 0.58288 0.57667 0.03900
C 	C 	0.75118 0.55644 0.66852 -0.08200
H 	H 	0.74659 0.50387 0.65030 0.03300
H 	H 	0.76447 0.61224 0.68583 0.02500
C 	C 	0.74671 0.43602 0.39664 -0.05600
C 	C 	0.80142 0.17503 0.48647 -0.03700
C 	C 	0.79474 0.18328 0.44213 -0.00100
C 	C 	0.79317 0.22835 0.38976 0.00600
H 	H 	0.81779 0.19705 0.51037 0.03600
C 	C 	0.78817 0.27520 0.13905 0.00700
C 	C 	0.79582 0.25698 0.17446 -0.05900
H 	H 	0.77761 0.22748 0.18056 0.04200
C 	C 	0.80094 0.33360 0.10346 -0.04500
C 	C 	0.76578 0.47167 0.41694 0.00700
C 	C 	0.74615 0.49001 0.43166 -0.00000
C 	C 	0.76394 0.52021 0.46242 -0.00100
C 	C 	0.75492 0.55623 0.52336 -0.05700
C 	C 	0.76692 0.41924 0.38112 0.00800
H 	H 	0.75190 0.39204 0.36523 0.03400
C 	C 	0.77584 0.59425 0.67746 -0.01200
C 	C 	0.76564 0.53317 0.65715 0.01100
C 	C 	0.80956 0.22084 0.42750 0.00700
C 	C 	0.80417 0.26534 0.37842 -0.01400
H 	H 	0.79109 0.27094 0.34984 0.04200
C 	C 	0.81077 0.31448 0.13489 0.00300
H 	H 	0.78197 0.56384 0.53826 0.04500
H 	H 	0.81918 0.36332 0.09835 0.03400
C 	C 	0.80499 0.48834 0.42559 0.00700
C 	C 	0.80340 0.53752 0.46865 -0.03600
C 	C 	0.80612 0.43686 0.38723 -0.07700
C 	C 	0.81505 0.60859 0.67744 0.00400
C 	C 	0.80462 0.54699 0.65719 -0.05700
H 	H 	0.81466 0.52753 0.65250 0.04300
Zn	Zn	0.84112 0.37565 0.30247 1.19600
O 	O 	0.81689 0.40117 0.33078 -0.46100
O 	O 	0.82330 0.34096 0.36347 -0.39800
C 	C 	0.82735 0.41943 0.36971 0.30500
C 	C 	0.84060 0.25093 0.44931 -0.05700
C 	C 	0.85117 0.28768 0.43812 0.00500
C 	C 	0.83248 0.29510 0.40330 -0.08000
H 	H 	0.85776 0.24613 0.47319 0.03900
C 	C 	0.82471 0.27755 0.20537 0.01000
C 	C 	0.84621 0.31644 0.20189 -0.09000
C 	C 	0.84083 0.33453 0.16502 -0.02100
H 	H 	0.82870 0.26345 0.23393 0.03100
C 	C 	0.82362 0.52171 0.45023 -0.04300
C 	C 	0.82505 0.47115 0.41000 -0.01600
H 	H 	0.81887 0.56424 0.48539 0.03700
C 	C 	0.83940 0.64574 0.69008 -0.04200
C 	C 	0.82993 0.58503 0.66687 0.00900
H 	H 	0.82848 0.66452 0.69541 0.03400
C 	C 	0.84471 0.33399 0.39011 0.30500
O 	O 	0.84846 0.33473 0.27916 -0.47200
H 	H 	0.85759 0.36468 0.16241 0.02400
C 	C 	0.86700 0.33835 0.24152 0.29200
O 	O 	0.85425 0.41967 0.39518 -0.38300
H 	H 	0.87448 0.31037 0.45596 0.03300
H 	H 	0.85530 0.48443 0.41550 0.04100
H 	H 	0.85388 0.53532 0.45552 0.03800
C 	C 	0.86958 0.59939 0.67076 -0.00100
C 	C 	0.87765 0.65857 0.69747 -0.03800
H 	H 	0.87273 0.55797 0.62859 0.03600
O 	O 	0.87491 0.36166 0.40820 -0.44500
C 	C 	0.89217 0.63426 0.69227 -0.00000
C 	C 	0.88730 0.58056 0.65245 -0.03700
H 	H 	0.89605 0.68774 0.70534 0.03600
O 	O 	0.89397 0.41335 0.31329 -0.80200
Zn	Zn	0.90005 0.40978 0.37753 1.22600
H 	H 	0.89875 0.43861 0.30550 0.17200
O 	O 	0.90312 0.36362 0.23798 -0.43200
H 	H 	0.93495 0.49796 0.48133 0.03900
H 	H 	0.93533 0.51188 0.56181 0.04300
O 	O 	0.93236 0.45293 0.41524 -0.44400
C 	C 	0.92923 0.64426 0.70679 0.00800
H 	H 	0.93605 0.68761 0.75401 0.03900
C 	C 	0.92495 0.59238 0.66280 -0.04300
H 	H 	0.91231 0.49793 0.63085 0.03600
C 	C 	0.94282 0.49128 0.55185 -0.05700
Zn	Zn	0.93355 0.40040 0.28601 1.22300
C 	C 	0.94365 0.48420 0.50575 0.01300
C 	C 	0.94529 0.62263 0.69210 0.00700
C 	C 	0.94872 0.67253 0.73939 -0.05600
H 	H 	0.93801 0.57730 0.64897 0.03800
H 	H 	0.92635 0.52395 0.70752 0.04000
H 	H 	0.93321 0.36831 0.35817 0.17300
O 	O 	0.93800 0.39366 0.35090 -0.78800
H 	H 	0.95502 0.52698 0.26315 0.02100
C 	C 	0.93460 0.49732 0.64988 -0.03500
C 	C 	0.94160 0.51089 0.69412 -0.04400
O 	O 	0.96462 0.45148 0.26323 -0.44000
C 	C 	0.95800 0.45337 0.44241 0.31200
H 	H 	0.98030 0.56994 0.19923 0.04000
C 	C 	0.95691 0.46060 0.49106 -0.08700
C 	C 	0.95419 0.47376 0.58431 0.01000
C 	C 	0.95535 0.48171 0.63128 -0.00100
C 	C 	0.98306 0.53522 0.25072 0.00500
C 	C 	0.98327 0.67901 0.75669 0.00600
C 	C 	0.98034 0.62983 0.70938 -0.01100
H 	H 	0.97283 0.55030 0.76844 0.04100
C 	C 	0.98087 0.48131 0.28920 0.29600
C 	C 	0.99770 0.55995 0.21426 -0.05500
C 	C 	0.97012 0.51020 0.71976 0.01000
C 	C 	0.99854 0.65697 0.74294 -0.08000
H 	H 	0.99202 0.61245 0.69925 0.04100
H 	H 	0.99699 0.69964 0.78311 0.01800
H 	H 	0.02877 0.64223 0.08041 0.03500
H 	H 	0.01605 0.61930 0.15842 0.03600
O 	O 	0.97786 0.38928 0.26907 -0.40000
O 	O 	0.98283 0.47815 0.33344 -0.41100
C 	C 	0.96837 0.45060 0.56927 0.00400
C 	C 	0.96888 0.44357 0.52288 -0.01200
C 	C 	0.97710 0.47277 0.66053 0.00100
C 	C 	0.98491 0.53340 0.75777 -0.01600
Zn	Zn	0.99041 0.43406 0.36346 1.19400
O 	O 	0.98690 0.45133 0.42596 -0.45600
C 	C 	0.00239 0.51784 0.26756 -0.07400
