data_crystal

_cell_length_a 18.30329
_cell_length_b 18.00656
_cell_length_c 46.89254
_cell_angle_alpha 89.63517
_cell_angle_beta  89.64070
_cell_angle_gamma 119.43935

_symmetry_space_group_name_	'P 1'
_symmetry_space_group_name_H-M	'P 1'

loop_
_symmetry_equiv_pos_as_xyz
  x,y,z

loop_
_atom_site_label
_atom_site_type_symbol
_atom_site_fract_x
_atom_site_fract_y
_atom_site_fract_z
_atom_site_charge
C 	C 	0.15652 0.17258 0.75992 0.29900
C 	C 	0.17925 0.03962 0.70370 0.33100
Ni	Ni	0.07502 0.97557 0.75583 1.10800
Ni	Ni	0.05071 0.09553 0.70935 1.12200
O 	O 	0.16696 0.10423 0.76149 -0.37500
O 	O 	0.10285 0.17697 0.74199 -0.38800
O 	O 	0.12810 0.96994 0.71755 -0.40000
O 	O 	0.16643 0.10554 0.70372 -0.38700
C 	C 	0.15048 0.61059 0.97306 0.30800
C 	C 	0.98297 0.12644 0.17015 0.31100
C 	C 	0.10976 0.19969 0.24085 0.29500
C 	C 	0.99115 0.91345 0.26459 0.27000
Ni	Ni	0.02380 0.03053 0.21295 1.12500
O 	O 	0.04398 0.12107 0.18291 -0.37700
O 	O 	0.02645 0.93988 0.23876 -0.37900
O 	O 	0.05285 0.21494 0.22872 -0.37700
O 	O 	0.11096 0.12741 0.23635 -0.38100
C 	C 	0.08521 0.24702 0.05631 0.00100
C 	C 	0.04912 0.26789 0.03319 0.04000
C 	C 	0.10180 0.33371 0.01412 -0.01500
C 	C 	0.03571 0.20492 0.08249 0.00900
H 	H 	0.07486 0.35264 0.99699 0.04500
C 	C 	0.02209 0.12370 0.09104 0.01800
C 	C 	0.00192 0.09750 0.11967 0.00600
C 	C 	0.99165 0.14974 0.13953 -0.11800
C 	C 	0.99668 0.22712 0.13023 0.09800
C 	C 	0.01782 0.25351 0.10165 -0.08800
C 	C 	0.03427 0.06721 0.07021 -0.15900
H 	H 	0.99617 0.03729 0.12665 0.03300
C 	C 	0.98208 0.28292 0.15073 -0.21200
H 	H 	0.02578 0.31470 0.09477 0.05800
H 	H 	0.00057 0.99954 0.07749 0.05500
H 	H 	0.10210 0.08804 0.06809 0.06300
H 	H 	0.00930 0.07026 0.04897 0.06500
H 	H 	0.99579 0.34450 0.14064 0.06400
H 	H 	0.02356 0.29776 0.16949 0.08000
C 	C 	0.96089 0.69674 0.14991 -0.00400
C 	C 	0.02228 0.76488 0.16587 0.04600
C 	C 	0.99986 0.81712 0.18123 -0.03900
C 	C 	0.98705 0.66306 0.12562 -0.02300
H 	H 	0.04787 0.87258 0.19201 0.03700
C 	C 	0.00951 0.59923 0.12973 0.05000
C 	C 	0.05679 0.69846 0.07929 0.08800
C 	C 	0.00472 0.70670 0.09952 -0.06300
C 	C 	0.98100 0.54320 0.15604 -0.19800
H 	H 	0.98335 0.75248 0.09594 0.03900
H 	H 	0.98508 0.48426 0.15283 0.05900
H 	H 	0.02083 0.57824 0.17437 0.07000
H 	H 	0.05188 0.71009 0.03357 0.07600
C 	C 	0.17351 0.31957 0.27585 0.09700
C 	C 	0.08796 0.29556 0.28777 -0.20700
H 	H 	0.05026 0.30596 0.27142 0.07500
H 	H 	0.09194 0.33420 0.30668 0.07100
H 	H 	0.05569 0.22775 0.29468 0.08000
C 	C 	0.18728 0.72117 0.31138 -0.09700
C 	C 	0.13048 0.73642 0.32697 0.01200
C 	C 	0.11571 0.71321 0.35613 0.02300
C 	C 	0.23590 0.69133 0.32517 0.10300
C 	C 	0.09122 0.78206 0.31305 -0.01200
C 	C 	0.04930 0.72152 0.37271 -0.16100
C 	C 	0.29820 0.67734 0.30821 -0.20600
H 	H 	0.19601 0.73575 0.28872 0.05200
C 	C 	0.13082 0.87210 0.31338 0.03800
C 	C 	0.09544 0.91410 0.29825 -0.03300
C 	C 	0.02168 0.86754 0.28272 -0.07100
C 	C 	0.01665 0.73544 0.29795 -0.05900
H 	H 	0.12632 0.98320 0.29805 0.03900
H 	H 	0.28598 0.67505 0.28497 0.06400
H 	H 	0.29385 0.61570 0.31447 0.08100
H 	H 	0.98911 0.69091 0.36101 0.05700
C 	C 	0.14891 0.54831 0.47106 -0.05700
C 	C 	0.07552 0.49044 0.45677 -0.00800
C 	C 	0.06163 0.55013 0.51047 0.00500
C 	C 	0.14117 0.58152 0.49757 -0.00500
H 	H 	0.08002 0.46652 0.43605 0.04900
H 	H 	0.05630 0.57296 0.53132 0.04100
C 	C 	0.03759 0.15941 0.55540 -0.16800
H 	H 	0.08432 0.21596 0.54304 0.06800
H 	H 	0.05692 0.10997 0.55412 0.07000
H 	H 	0.03889 0.17826 0.57798 0.06900
H 	H 	0.08440 0.77421 0.70130 0.07600
C 	C 	0.01536 0.47674 0.97946 0.01800
C 	C 	0.06418 0.55360 0.96430 -0.07500
C 	C 	0.03967 0.56320 0.93683 0.01000
H 	H 	0.07919 0.62024 0.92435 0.04400
C 	C 	0.02672 0.47078 0.00964 0.07300
N 	N 	0.03417 0.46453 0.03388 -0.10500
C 	C 	0.06214 0.59066 0.10965 -0.02300
C 	C 	0.07962 0.75182 0.05230 -0.19600
H 	H 	0.05526 0.79745 0.05265 0.06600
C 	C 	0.18335 0.27115 0.25408 -0.10500
C 	C 	0.16651 0.68631 0.37011 -0.01500
C 	C 	0.15241 0.63963 0.06602 0.32000
O 	O 	0.17232 0.68834 0.98137 -0.38400
O 	O 	0.14715 0.64571 0.03853 -0.39100
C 	C 	0.17229 0.28075 0.05678 -0.09100
C 	C 	0.18804 0.38182 0.01940 -0.10300
C 	C 	0.11338 0.78799 0.16395 -0.18000
C 	C 	0.08855 0.64198 0.08491 -0.10200
H 	H 	0.08354 0.54503 0.11348 0.04200
H 	H 	0.12032 0.73082 0.16747 0.06400
H 	H 	0.23734 0.42575 0.30421 0.05100
C 	C 	0.22960 0.67986 0.35508 -0.10500
H 	H 	0.16012 0.67506 0.39297 0.03700
C 	C 	0.21231 0.92359 0.32891 -0.17900
H 	H 	0.06941 0.78994 0.37587 0.06300
H 	H 	0.03771 0.68996 0.39398 0.06500
H 	H 	0.26211 0.91374 0.31900 0.06900
C 	C 	0.21313 0.65038 0.51104 0.08100
H 	H 	0.25022 0.11561 0.65384 0.03800
H 	H 	0.19666 0.18139 0.81491 0.03800
H 	H 	0.13893 0.81567 0.14257 0.06400
H 	H 	0.15155 0.83546 0.18030 0.06000
H 	H 	0.14870 0.79013 0.04975 0.04800
H 	H 	0.18145 0.33775 0.72942 0.07800
C 	C 	0.24458 0.38827 0.28755 -0.09300
H 	H 	0.33816 0.57395 0.26331 0.06000
H 	H 	0.36270 0.73006 0.31215 0.07700
C 	C 	0.23256 0.57350 0.45764 0.27800
O 	O 	0.23389 0.54981 0.43091 -0.38500
C 	C 	0.22788 0.47565 0.01715 0.30600
O 	O 	0.21852 0.51582 0.03883 -0.37700
O 	O 	0.20765 0.59193 0.96469 -0.38700
C 	C 	0.22390 0.34624 0.03770 0.10300
H 	H 	0.20016 0.26045 0.07327 0.05300
H 	H 	0.23338 0.99291 0.32811 0.06300
H 	H 	0.20470 0.90376 0.35168 0.06900
N 	N 	0.27061 0.70557 0.52191 -0.12400
C 	C 	0.28434 0.08811 0.66421 -0.01100
C 	C 	0.25686 0.04768 0.69084 -0.11800
H 	H 	0.22687 0.91258 0.73479 0.07300
H 	H 	0.35502 0.17819 0.61772 0.06500
C 	C 	0.21581 0.25000 0.77531 -0.10400
C 	C 	0.26424 0.29116 0.24488 -0.01300
C 	C 	0.23431 0.24141 0.80367 -0.01800
C 	C 	0.29927 0.68186 0.37112 0.29100
O 	O 	0.30390 0.61040 0.37384 -0.38300
Ni	Ni	0.24197 0.74004 0.01636 1.11800
O 	O 	0.21979 0.64283 0.07699 -0.37500
H 	H 	0.27172 0.25407 0.22814 0.04000
C 	C 	0.24403 0.34219 0.73057 -0.20400
H 	H 	0.24592 0.29347 0.71666 0.07600
C 	C 	0.26249 0.32978 0.76102 0.10000
O 	O 	0.28254 0.51761 0.99630 -0.37500
O 	O 	0.30009 0.60074 0.47407 -0.37000
C 	C 	0.35504 0.09247 0.65070 0.02700
C 	C 	0.30188 0.01205 0.70441 0.11400
C 	C 	0.38437 0.13817 0.62233 -0.17800
C 	C 	0.28157 0.97808 0.73463 -0.23100
H 	H 	0.26788 0.02016 0.74822 0.07600
H 	H 	0.06611 0.97009 0.62529 0.07500
H 	H 	0.91547 0.24993 0.15790 0.07400
H 	H 	0.91457 0.52350 0.16121 0.06600
C 	C 	0.98160 0.77741 0.28265 0.06400
O 	O 	0.94183 0.94357 0.18649 -0.41100
C 	C 	0.91683 0.80110 0.18153 -0.11300
C 	C 	0.75796 0.55078 0.94737 0.29200
C 	C 	0.55890 0.17969 0.95470 0.29900
C 	C 	0.82346 0.38746 0.94098 0.30300
C 	C 	0.49612 0.36011 0.96514 0.27900
C 	C 	0.63514 0.26209 0.87040 0.31900
C 	C 	0.58781 0.44286 0.87447 0.29900
Ni	Ni	0.66294 0.36677 0.96701 1.11300
Ni	Ni	0.53343 0.28888 0.91363 1.12000
Ni	Ni	0.72477 0.42588 0.90115 1.12400
O 	O 	0.70875 0.49941 0.96823 -0.37000
O 	O 	0.79214 0.52308 0.92830 -0.38200
O 	O 	0.57983 0.22605 0.89123 -0.39800
O 	O 	0.63147 0.23855 0.96460 -0.36400
O 	O 	0.50434 0.20105 0.94524 -0.37500
O 	O 	0.66530 0.48472 0.88460 -0.39600
O 	O 	0.78776 0.39863 0.96371 -0.36900
O 	O 	0.78308 0.36398 0.91674 -0.38400
O 	O 	0.53801 0.35928 0.87887 -0.38900
O 	O 	0.54064 0.33265 0.97925 -0.37000
O 	O 	0.47556 0.33823 0.93807 -0.37200
O 	O 	0.68122 0.34541 0.86821 -0.39400
O 	O 	0.63710 0.37341 0.92848 -0.71300
H 	H 	0.62281 0.41923 0.92999 0.14500
C 	C 	0.82274 0.21564 0.52225 0.29100
C 	C 	0.63460 0.39766 0.49233 0.30000
C 	C 	0.90768 0.44769 0.51245 0.30300
C 	C 	0.56551 0.16872 0.49368 0.28600
C 	C 	0.71901 0.42464 0.58464 0.31800
C 	C 	0.63679 0.19065 0.58669 0.29200
Ni	Ni	0.74377 0.31312 0.49264 1.11500
Ni	Ni	0.61069 0.29312 0.54263 1.12400
Ni	Ni	0.79486 0.33235 0.55961 1.12000
O 	O 	0.82600 0.26381 0.49995 -0.36700
O 	O 	0.81408 0.23536 0.54883 -0.38900
O 	O 	0.64268 0.36478 0.57819 -0.38900
O 	O 	0.66828 0.36164 0.47655 -0.36200
O 	O 	0.64262 0.40033 0.52003 -0.37900
O 	O 	0.71149 0.25940 0.59069 -0.39200
O 	O 	0.83947 0.43574 0.49970 -0.37400
O 	O 	0.90261 0.40813 0.53672 -0.37600
O 	O 	0.58371 0.19108 0.56746 -0.38500
O 	O 	0.64287 0.19394 0.48434 -0.38000
O 	O 	0.54707 0.22031 0.50836 -0.36900
O 	O 	0.78396 0.43412 0.56968 -0.39400
O 	O 	0.71087 0.29391 0.53111 -0.71300
H 	H 	0.69043 0.23214 0.53216 0.15000
C 	C 	0.95654 0.80295 0.73305 0.30500
C 	C 	0.92422 0.91502 0.79412 0.27800
C 	C 	0.93349 0.97408 0.66903 0.29400
C 	C 	0.88770 0.08307 0.73000 0.29500
Ni	Ni	0.89279 0.92246 0.73016 1.11300
O 	O 	0.87479 0.94464 0.68905 -0.39300
O 	O 	0.00354 0.84279 0.75488 -0.37000
O 	O 	0.93218 0.84300 0.71553 -0.39800
O 	O 	0.94680 0.11072 0.70953 -0.38800
O 	O 	0.85447 0.00494 0.74112 -0.38500
O 	O 	0.00684 0.96551 0.79250 -0.37500
O 	O 	0.87940 0.87485 0.77114 -0.38200
O 	O 	0.01278 0.01741 0.67587 -0.37700
O 	O 	0.00418 0.00844 0.73772 -0.70000
H 	H 	0.99421 0.03910 0.75325 0.15300
C 	C 	0.59330 0.81336 0.44346 0.31100
C 	C 	0.47103 0.62831 0.36630 0.32200
C 	C 	0.41576 0.85551 0.44612 0.28500
C 	C 	0.44122 0.54983 0.45401 0.30100
Ni	Ni	0.46880 0.77249 0.39866 1.11300
Ni	Ni	0.41725 0.69770 0.46350 1.12100
Ni	Ni	0.33943 0.57218 0.41018 1.11900
O 	O 	0.36400 0.75768 0.37708 -0.37400
O 	O 	0.47096 0.62407 0.46650 -0.38100
O 	O 	0.56930 0.77465 0.41905 -0.37700
O 	O 	0.53669 0.79981 0.46331 -0.37600
O 	O 	0.48299 0.70635 0.36461 -0.38000
O 	O 	0.44278 0.58444 0.39003 -0.39600
O 	O 	0.47258 0.86542 0.42633 -0.37400
O 	O 	0.37916 0.78597 0.46264 -0.37700
O 	O 	0.36681 0.51411 0.44202 -0.38500
O 	O 	0.39469 0.68565 0.42351 -0.71500
H 	H 	0.34689 0.69635 0.42336 0.15300
C 	C 	0.44548 0.62528 0.01364 0.29700
C 	C 	0.37096 0.81803 0.06367 0.29300
C 	C 	0.38080 0.82926 0.97453 0.27500
Ni	Ni	0.31111 0.63271 0.05261 1.11200
Ni	Ni	0.32010 0.64090 0.98239 1.12000
O 	O 	0.40880 0.60843 0.03932 -0.37000
O 	O 	0.43598 0.67644 0.99609 -0.39500
O 	O 	0.36153 0.75563 0.96179 -0.36800
O 	O 	0.32751 0.83597 0.99221 -0.38000
O 	O 	0.38979 0.75572 0.06630 -0.37400
O 	O 	0.29729 0.80378 0.05331 -0.38400
O 	O 	0.30570 0.68341 0.01770 -0.71300
H 	H 	0.36160 0.73428 0.01805 0.14700
C 	C 	0.85864 0.05904 0.28781 0.30400
C 	C 	0.74968 0.99789 0.21460 0.30400
C 	C 	0.89818 0.86388 0.19471 0.31600
Ni	Ni	0.92297 0.13052 0.22934 1.10900
Ni	Ni	0.84603 0.92917 0.24454 1.11600
O 	O 	0.90854 0.13015 0.27335 -0.38700
O 	O 	0.80847 0.98672 0.27437 -0.39200
O 	O 	0.92051 0.12296 0.18509 -0.38200
O 	O 	0.92019 0.91205 0.27222 -0.39000
O 	O 	0.79280 0.06754 0.22927 -0.37600
O 	O 	0.77263 0.93923 0.21410 -0.38900
O 	O 	0.85635 0.84421 0.21905 -0.39700
O 	O 	0.94035 0.03689 0.23500 -0.71300
H 	H 	0.96926 0.05191 0.25346 0.15400
C 	C 	0.95533 0.22576 0.03019 -0.18500
C 	C 	0.31694 0.38214 0.03849 -0.21600
H 	H 	0.33391 0.33700 0.04877 0.07600
H 	H 	0.34629 0.44264 0.05050 0.08400
H 	H 	0.34130 0.39312 0.01637 0.09300
H 	H 	0.93021 0.25692 0.04452 0.07100
H 	H 	0.92556 0.15687 0.03578 0.06600
H 	H 	0.93791 0.23097 0.00790 0.06700
C 	C 	0.44644 0.95611 0.12686 -0.09800
C 	C 	0.53133 0.97900 0.12448 0.00900
C 	C 	0.56496 0.97681 0.09748 0.01400
C 	C 	0.51029 0.93756 0.07473 -0.00800
C 	C 	0.42328 0.89728 0.07918 -0.10800
C 	C 	0.39184 0.91578 0.10415 0.10300
C 	C 	0.57799 0.98445 0.15068 -0.00700
C 	C 	0.65687 0.00476 0.09387 -0.14800
H 	H 	0.53482 0.92841 0.05476 0.03400
C 	C 	0.29958 0.88597 0.10771 -0.20600
H 	H 	0.42165 0.96281 0.14716 0.04900
C 	C 	0.63475 0.06388 0.16243 0.03100
C 	C 	0.68986 0.06746 0.18372 -0.00300
C 	C 	0.68378 0.99203 0.19508 -0.11900
C 	C 	0.61741 0.91218 0.18638 0.10100
C 	C 	0.56782 0.90907 0.16327 -0.09200
C 	C 	0.63771 0.14480 0.15207 -0.17400
H 	H 	0.73844 0.12893 0.19106 0.03300
C 	C 	0.59852 0.83045 0.20159 -0.20100
H 	H 	0.52133 0.84790 0.15498 0.05400
H 	H 	0.28775 0.91716 0.12616 0.06300
H 	H 	0.26437 0.81585 0.11130 0.08300
H 	H 	0.27540 0.90259 0.08845 0.07900
H 	H 	0.66979 0.95527 0.10290 0.05900
H 	H 	0.69630 0.06597 0.10481 0.06300
H 	H 	0.67580 0.01464 0.07099 0.06500
H 	H 	0.67453 0.19872 0.16664 0.05800
H 	H 	0.57329 0.13593 0.15110 0.06600
H 	H 	0.66709 0.16243 0.13055 0.06400
H 	H 	0.53229 0.78036 0.19838 0.06300
H 	H 	0.60749 0.84043 0.22494 0.06800
H 	H 	0.63990 0.80662 0.19313 0.07600
C 	C 	0.87636 0.67560 0.15249 -0.09300
C 	C 	0.85372 0.72757 0.16823 0.09800
C 	C 	0.76321 0.70659 0.16962 -0.20500
H 	H 	0.82907 0.62201 0.14075 0.05100
H 	H 	0.74153 0.69773 0.19218 0.07400
H 	H 	0.72166 0.64691 0.15810 0.06800
H 	H 	0.75645 0.75914 0.15979 0.07500
C 	C 	0.80315 0.95039 0.41614 -0.10600
C 	C 	0.79003 0.01760 0.40737 0.01400
C 	C 	0.73468 0.03448 0.42364 0.03900
C 	C 	0.67525 0.97000 0.44155 -0.03400
C 	C 	0.67480 0.89209 0.44419 -0.11300
C 	C 	0.74722 0.88912 0.43565 0.10900
C 	C 	0.81069 0.04899 0.37745 -0.00400
C 	C 	0.73216 0.11613 0.41950 -0.18100
H 	H 	0.62406 0.97660 0.45056 0.05000
C 	C 	0.76552 0.82206 0.44731 -0.21000
H 	H 	0.85144 0.94132 0.40595 0.05300
C 	C 	0.89433 0.08948 0.36714 0.03300
C 	C 	0.90964 0.09391 0.33759 -0.02000
C 	C 	0.84300 0.06544 0.31835 -0.10400
C 	C 	0.76094 0.03821 0.32875 0.09500
C 	C 	0.74485 0.02641 0.35815 -0.07400
C 	C 	0.96711 0.12516 0.38739 -0.18700
H 	H 	0.97303 0.11722 0.32966 0.03200
C 	C 	0.68977 0.01889 0.30869 -0.18900
H 	H 	0.68065 0.99685 0.36599 0.03600
H 	H 	0.82119 0.85268 0.46129 0.07100
H 	H 	0.77943 0.79024 0.42956 0.08000
H 	H 	0.71218 0.77284 0.46010 0.08500
H 	H 	0.68427 0.10682 0.40339 0.07000
H 	H 	0.79429 0.16861 0.41232 0.07100
H 	H 	0.71572 0.13571 0.43989 0.07300
H 	H 	0.02367 0.17857 0.37718 0.07000
H 	H 	0.98204 0.07459 0.39362 0.06700
H 	H 	0.95246 0.15061 0.40680 0.06900
H 	H 	0.66392 0.95313 0.30046 0.07000
H 	H 	0.71137 0.06499 0.29053 0.08200
H 	H 	0.63847 0.02380 0.31975 0.06800
C 	C 	0.32521 0.40672 0.27894 0.00300
C 	C 	0.33544 0.35864 0.25723 0.02300
C 	C 	0.39779 0.47163 0.29470 0.00500
C 	C 	0.42180 0.37717 0.24785 -0.17100
C 	C 	0.42396 0.55888 0.29070 0.01900
C 	C 	0.46067 0.61501 0.31347 -0.01200
C 	C 	0.47215 0.58438 0.33975 -0.11900
C 	C 	0.46599 0.50289 0.34075 0.10500
C 	C 	0.42578 0.44579 0.31852 -0.09900
C 	C 	0.40509 0.59040 0.26340 -0.17000
H 	H 	0.47398 0.68048 0.31142 0.03900
C 	C 	0.50365 0.47740 0.36474 -0.21000
H 	H 	0.41149 0.37997 0.32059 0.05300
H 	H 	0.45107 0.35842 0.26507 0.06200
H 	H 	0.46191 0.44619 0.24300 0.06000
H 	H 	0.41946 0.34152 0.22831 0.05900
H 	H 	0.44481 0.66066 0.26101 0.05500
H 	H 	0.41777 0.56063 0.24474 0.05900
H 	H 	0.45958 0.45285 0.38320 0.08500
H 	H 	0.56395 0.53260 0.37118 0.08800
H 	H 	0.51743 0.42652 0.35793 0.07100
C 	C 	0.90418 0.72604 0.26511 -0.19100
H 	H 	0.98680 0.66643 0.29765 0.03600
H 	H 	0.91987 0.74040 0.24212 0.08000
H 	H 	0.85446 0.74150 0.27113 0.07300
H 	H 	0.87823 0.65638 0.26847 0.06300
C 	C 	0.49655 0.09373 0.48035 -0.06500
C 	C 	0.49505 0.08676 0.45059 -0.00900
C 	C 	0.45035 0.00658 0.43810 0.00800
C 	C 	0.41438 0.93291 0.45564 -0.06900
C 	C 	0.40094 0.94177 0.48470 -0.02600
C 	C 	0.44056 0.02284 0.49698 0.01000
H 	H 	0.53159 0.14292 0.43735 0.04300
H 	H 	0.36420 0.88582 0.49797 0.05200
C 	C 	0.41889 0.03369 0.52568 0.07400
C 	C 	0.44304 0.00002 0.40745 0.08500
N 	N 	0.40090 0.04253 0.54861 -0.11600
N 	N 	0.43715 0.99472 0.38290 -0.13300
C 	C 	0.99617 0.46214 0.46911 -0.00000
C 	C 	0.98895 0.48961 0.49663 -0.08000
C 	C 	0.92265 0.40392 0.45339 0.06200
N 	N 	0.86394 0.35738 0.44071 -0.14300
C 	C 	0.57960 0.42670 0.47913 -0.06700
C 	C 	0.61233 0.49028 0.45792 -0.01000
C 	C 	0.56560 0.52790 0.44821 0.00100
C 	C 	0.48364 0.49933 0.45895 -0.06700
C 	C 	0.44847 0.43115 0.47846 -0.01100
C 	C 	0.49629 0.39590 0.48910 0.00600
H 	H 	0.67567 0.51324 0.44990 0.04100
H 	H 	0.38541 0.40881 0.48666 0.04600
C 	C 	0.46017 0.33032 0.51092 0.06800
C 	C 	0.60298 0.59705 0.42771 0.07300
N 	N 	0.43077 0.27804 0.52847 -0.12900
N 	N 	0.63321 0.65235 0.41123 -0.11400
C 	C 	0.93094 0.97306 0.58806 -0.11300
C 	C 	0.88527 0.01548 0.58279 0.02400
C 	C 	0.84720 0.03462 0.60588 0.01600
C 	C 	0.85793 0.01353 0.63378 0.00400
C 	C 	0.90961 0.97814 0.63926 -0.12600
C 	C 	0.94471 0.95545 0.61620 0.09200
C 	C 	0.88367 0.04678 0.55350 -0.00700
C 	C 	0.79759 0.08019 0.60103 -0.17100
H 	H 	0.82999 0.02942 0.65145 0.03800
C 	C 	0.00128 0.91798 0.62137 -0.18200
H 	H 	0.95875 0.95698 0.57035 0.04900
C 	C 	0.95056 0.12555 0.54373 0.02700
C 	C 	0.93314 0.17675 0.52536 -0.01700
C 	C 	0.84972 0.15183 0.51869 -0.09900
C 	C 	0.78909 0.06482 0.52173 0.08600
C 	C 	0.80701 0.01194 0.53910 -0.06900
H 	H 	0.98200 0.24116 0.52026 0.04200
C 	C 	0.70086 0.03302 0.51168 -0.18900
H 	H 	0.75756 0.94816 0.54458 0.03900
H 	H 	0.00245 0.88104 0.60265 0.06700
H 	H 	0.97925 0.87382 0.64002 0.06800
H 	H 	0.74022 0.03926 0.58872 0.06800
H 	H 	0.83658 0.14103 0.58930 0.07500
H 	H 	0.77742 0.09592 0.62145 0.06300
H 	H 	0.67121 0.96459 0.50594 0.06800
H 	H 	0.70033 0.06959 0.49262 0.07900
H 	H 	0.66333 0.04061 0.52891 0.06700
C 	C 	0.36766 0.00966 0.68971 -0.08400
C 	C 	0.39597 0.05132 0.66335 0.00300
C 	C 	0.47219 0.05715 0.65000 0.00300
H 	H 	0.39916 0.97829 0.69935 0.03800
C 	C 	0.55259 0.12131 0.65839 0.02200
C 	C 	0.61825 0.15426 0.63821 -0.01900
C 	C 	0.60165 0.12632 0.60991 -0.11400
C 	C 	0.53100 0.04633 0.60472 0.11800
C 	C 	0.46482 0.01268 0.62473 -0.08300
C 	C 	0.56688 0.15840 0.68788 -0.17200
H 	H 	0.67812 0.20879 0.64350 0.03900
C 	C 	0.53053 0.99353 0.57990 -0.23400
H 	H 	0.40595 0.95645 0.61973 0.04500
H 	H 	0.33537 0.97536 0.74440 0.06700
H 	H 	0.36736 0.09082 0.60505 0.07900
H 	H 	0.45330 0.18105 0.62216 0.07100
H 	H 	0.63427 0.20415 0.69152 0.05700
H 	H 	0.54645 0.10665 0.70411 0.06000
H 	H 	0.53086 0.19257 0.69093 0.06000
H 	H 	0.57221 0.96651 0.58456 0.06900
H 	H 	0.55330 0.03276 0.56014 0.09200
H 	H 	0.46639 0.94010 0.57588 0.07900
C 	C 	0.73381 0.45482 0.66369 -0.09900
C 	C 	0.79805 0.53955 0.66563 0.00500
C 	C 	0.82562 0.59147 0.64068 0.02500
C 	C 	0.79692 0.55407 0.61398 -0.01300
C 	C 	0.73329 0.46893 0.61216 -0.11600
C 	C 	0.69450 0.42303 0.63758 0.10600
C 	C 	0.83375 0.57488 0.69382 0.00200
C 	C 	0.88643 0.68582 0.64230 -0.17400
H 	H 	0.82438 0.59108 0.59464 0.04100
C 	C 	0.60688 0.34797 0.63746 -0.21100
H 	H 	0.71146 0.41508 0.68272 0.04800
C 	C 	0.78786 0.59547 0.71357 0.02400
C 	C 	0.83172 0.66165 0.73284 -0.01600
C 	C 	0.91919 0.71050 0.73071 -0.11200
C 	C 	0.96367 0.67630 0.71637 0.08900
C 	C 	0.91995 0.60706 0.69811 -0.09100
C 	C 	0.69333 0.55174 0.71284 -0.17100
H 	H 	0.79771 0.68302 0.74645 0.03100
C 	C 	0.05804 0.72088 0.71708 -0.19500
H 	H 	0.95432 0.58580 0.68464 0.04800
H 	H 	0.58212 0.32637 0.65943 0.06600
H 	H 	0.60608 0.29381 0.62633 0.09000
H 	H 	0.56389 0.36581 0.62660 0.08200
H 	H 	0.95120 0.69681 0.64494 0.06300
H 	H 	0.87009 0.71474 0.66036 0.07200
H 	H 	0.88476 0.71931 0.62254 0.06100
H 	H 	0.66769 0.57645 0.72952 0.05700
H 	H 	0.66654 0.48234 0.71686 0.05800
H 	H 	0.67222 0.56236 0.69181 0.06300
H 	H 	0.08147 0.67610 0.71189 0.06800
H 	H 	0.08086 0.74652 0.73867 0.07500
C 	C 	0.91460 0.42391 0.94142 -0.06600
C 	C 	0.94784 0.40890 0.96615 -0.02200
C 	C 	0.96537 0.49838 0.92521 -0.00700
H 	H 	0.91151 0.34927 0.97780 0.04000
C 	C 	0.94044 0.50981 0.89710 0.06500
N 	N 	0.92043 0.51904 0.87458 -0.13600
C 	C 	0.53548 0.08800 0.95579 -0.07400
C 	C 	0.48567 0.03400 0.93395 0.00700
C 	C 	0.44394 0.94511 0.93773 -0.01700
C 	C 	0.45171 0.90954 0.96361 -0.05000
C 	C 	0.51254 0.96261 0.98315 -0.03500
C 	C 	0.55270 0.05167 0.97990 0.02400
H 	H 	0.47578 0.06125 0.91464 0.03900
H 	H 	0.52203 0.93495 0.00242 0.03700
C 	C 	0.60715 0.10451 0.00222 0.07600
C 	C 	0.38917 0.89119 0.91569 0.08400
N 	N 	0.65071 0.14659 0.02015 -0.11900
N 	N 	0.34526 0.84796 0.89803 -0.11800
C 	C 	0.47750 0.42331 0.97880 -0.06800
C 	C 	0.51597 0.46038 0.00490 -0.02500
C 	C 	0.50922 0.52890 0.01619 0.00300
C 	C 	0.46633 0.56290 0.00084 -0.08400
C 	C 	0.43421 0.53005 0.97381 -0.00200
C 	C 	0.43082 0.45510 0.96449 -0.01100
H 	H 	0.55175 0.43655 0.01628 0.04100
H 	H 	0.40508 0.55870 0.96109 0.01400
C 	C 	0.37123 0.40607 0.94274 0.08300
C 	C 	0.54901 0.56558 0.04290 0.07100
N 	N 	0.32336 0.36693 0.92534 -0.12000
N 	N 	0.58090 0.59496 0.06431 -0.12000
C 	C 	0.70041 0.13993 0.82281 -0.09600
C 	C 	0.69735 0.17596 0.79652 0.00800
C 	C 	0.65123 0.21954 0.79421 0.02100
C 	C 	0.61693 0.23438 0.81890 -0.00700
C 	C 	0.63290 0.21117 0.84581 -0.11700
C 	C 	0.66854 0.15746 0.84761 0.10700
C 	C 	0.74925 0.17476 0.77243 0.00100
C 	C 	0.64218 0.25400 0.76584 -0.16900
H 	H 	0.58502 0.27155 0.81750 0.03800
C 	C 	0.67955 0.12524 0.87612 -0.21300
H 	H 	0.73246 0.10294 0.82424 0.05500
C 	C 	0.83776 0.22352 0.77332 0.02800
C 	C 	0.88608 0.20104 0.75577 -0.02200
C 	C 	0.84672 0.13334 0.73673 -0.10400
C 	C 	0.76019 0.09889 0.73150 0.09700
C 	C 	0.71114 0.11641 0.75040 -0.09000
C 	C 	0.88056 0.29441 0.79449 -0.17500
H 	H 	0.95337 0.23111 0.75870 0.03500
C 	C 	0.71918 0.03861 0.70720 -0.18500
H 	H 	0.64335 0.08198 0.74874 0.05000
H 	H 	0.73041 0.17837 0.88806 0.08500
H 	H 	0.69599 0.07387 0.87361 0.07500
H 	H 	0.62034 0.09844 0.88873 0.08900
H 	H 	0.60788 0.20069 0.75087 0.05900
H 	H 	0.70499 0.29886 0.75672 0.06100
H 	H 	0.60649 0.28889 0.76787 0.05600
H 	H 	0.94595 0.33967 0.78758 0.06200
H 	H 	0.88218 0.26727 0.81565 0.06700
H 	H 	0.84681 0.33127 0.79649 0.06800
H 	H 	0.70605 0.97354 0.71336 0.06200
H 	H 	0.76083 0.06064 0.68811 0.07400
H 	H 	0.65925 0.03596 0.70126 0.06500
C 	C 	0.44476 0.49426 0.83686 -0.09400
C 	C 	0.43854 0.44694 0.81245 0.00500
C 	C 	0.50923 0.44049 0.80368 0.02400
C 	C 	0.57339 0.45921 0.82328 -0.01400
C 	C 	0.56551 0.48212 0.85114 -0.11200
C 	C 	0.50916 0.51266 0.85640 0.09900
C 	C 	0.35433 0.38488 0.80195 0.00300
C 	C 	0.51145 0.40385 0.77509 -0.17100
H 	H 	0.62251 0.44411 0.81822 0.03700
C 	C 	0.51269 0.55699 0.88381 -0.20900
H 	H 	0.39438 0.50703 0.84232 0.05400
C 	C 	0.30451 0.30722 0.81690 0.03200
C 	C 	0.32916 0.39764 0.77509 -0.09300
C 	C 	0.32794 0.29288 0.84642 -0.18100
H 	H 	0.36545 0.45859 0.76426 0.04900
H 	H 	0.48906 0.50996 0.90159 0.07600
H 	H 	0.47423 0.58916 0.88278 0.07100
H 	H 	0.57840 0.60623 0.88812 0.07100
H 	H 	0.49250 0.43379 0.75804 0.06000
H 	H 	0.46832 0.33387 0.77539 0.06500
H 	H 	0.57568 0.41618 0.76970 0.05600
H 	H 	0.28364 0.22803 0.85479 0.06700
H 	H 	0.32659 0.33960 0.86143 0.07700
H 	H 	0.39156 0.29961 0.84603 0.07700
H 	H 	0.29097 0.40576 0.72196 0.06500
C 	C 	0.87801 0.90002 0.87359 -0.08800
C 	C 	0.84370 0.81199 0.87824 -0.00100
C 	C 	0.82670 0.75741 0.85469 0.03200
C 	C 	0.84796 0.79199 0.82706 -0.02200
C 	C 	0.88719 0.88032 0.82251 -0.09600
C 	C 	0.89905 0.93468 0.84578 0.08000
C 	C 	0.82901 0.77706 0.90783 0.00200
C 	C 	0.78438 0.66220 0.85887 -0.18000
H 	H 	0.83716 0.75020 0.80912 0.04600
C 	C 	0.93586 0.02944 0.84125 -0.19800
H 	H 	0.88977 0.94170 0.89162 0.04500
C 	C 	0.89199 0.76761 0.92194 0.03000
C 	C 	0.86830 0.70084 0.94193 -0.01800
C 	C 	0.78298 0.64226 0.94664 -0.10500
C 	C 	0.72356 0.66652 0.93856 0.09600
C 	C 	0.74668 0.73344 0.91868 -0.09200
C 	C 	0.98275 0.82084 0.91320 -0.18800
H 	H 	0.91542 0.68711 0.95043 0.04300
C 	C 	0.63454 0.61657 0.94894 -0.20900
H 	H 	0.69920 0.74564 0.90961 0.05000
H 	H 	0.00503 0.05979 0.83872 0.08600
H 	H 	0.92170 0.05909 0.85963 0.06900
H 	H 	0.90913 0.04277 0.82195 0.07500
H 	H 	0.71996 0.63934 0.86720 0.08000
H 	H 	0.82006 0.64510 0.87411 0.07400
H 	H 	0.77958 0.62865 0.83857 0.06900
H 	H 	0.02486 0.81767 0.92954 0.07600
H 	H 	0.99949 0.88875 0.91066 0.06500
H 	H 	0.99392 0.79738 0.89268 0.07000
H 	H 	0.59931 0.65105 0.94470 0.07300
H 	H 	0.63399 0.60640 0.97229 0.08800
H 	H 	0.60271 0.55403 0.93814 0.07300
