data_crystal

_cell_length_a 20.65457
_cell_length_b 25.55463
_cell_length_c 40.36943
_cell_angle_alpha 89.93482
_cell_angle_beta  89.92617
_cell_angle_gamma 90.76409

_symmetry_space_group_name_	'P 1'
_symmetry_space_group_name_H-M	'P 1'

loop_
_symmetry_equiv_pos_as_xyz
  x,y,z

loop_
_atom_site_label
_atom_site_type_symbol
_atom_site_fract_x
_atom_site_fract_y
_atom_site_fract_z
_atom_site_charge
Zn	Zn	0.52121 0.55100 0.95680 1.22500
C 	C 	0.51689 0.43988 0.94334 0.32200
O 	O 	0.59661 0.57853 0.93316 -0.47800
O 	O 	0.49845 0.44905 0.91281 -0.44300
O 	O 	0.61831 0.50971 0.90042 -0.47800
C 	C 	0.40976 0.54467 0.91596 0.32000
O 	O 	0.43075 0.53959 0.94644 -0.44900
O 	O 	0.45082 0.55439 0.89171 -0.49400
C 	C 	0.63848 0.54607 0.92080 0.31700
O 	O 	0.49513 0.63720 0.97180 -0.31900
Zn	Zn	0.52874 0.51250 0.88550 1.17600
O 	O 	0.54466 0.47694 0.96115 -0.43900
C 	C 	0.51696 0.62465 0.00085 0.27100
O 	O 	0.53557 0.57682 0.00411 -0.38900
Zn	Zn	0.15794 0.39254 0.94891 1.22300
C 	C 	0.18974 0.34909 0.88490 0.31800
O 	O 	0.13778 0.46576 0.94014 -0.47400
O 	O 	0.12752 0.34518 0.87820 -0.44500
O 	O 	0.11666 0.46128 0.88547 -0.48500
C 	C 	0.04848 0.32386 0.94592 0.33100
O 	O 	0.11132 0.32641 0.95028 -0.46200
O 	O 	0.01876 0.36049 0.92914 -0.50100
C 	C 	0.14720 0.48393 0.91015 0.31800
O 	O 	0.13202 0.40256 0.00562 -0.33000
Zn	Zn	0.06110 0.40029 0.89353 1.17200
O 	O 	0.21037 0.37809 0.90966 -0.44900
C 	C 	0.19413 0.40040 0.01036 0.27300
O 	O 	0.22862 0.39512 0.98384 -0.38400
C 	C 	0.55595 0.12679 0.31823 0.14000
C 	C 	0.51621 0.16739 0.30711 -0.10000
H 	H 	0.50899 0.20151 0.32253 0.07300
C 	C 	0.48513 0.16337 0.27629 0.05300
C 	C 	0.49252 0.11818 0.25709 -0.08200
C 	C 	0.53343 0.07814 0.26764 0.05300
C 	C 	0.56619 0.08306 0.29792 -0.10000
H 	H 	0.59829 0.05246 0.30613 0.06900
N 	N 	0.58108 0.12749 0.35153 -0.18000
C 	C 	0.55720 0.09218 0.37424 0.19800
C 	C 	0.58512 0.08858 0.40589 -0.08100
C 	C 	0.63330 0.12487 0.41529 0.06200
C 	C 	0.65711 0.16111 0.39194 -0.08000
C 	C 	0.63025 0.16177 0.35979 0.19700
C 	C 	0.56796 0.04764 0.42747 0.01100
C 	C 	0.59656 0.04413 0.45862 -0.05800
C 	C 	0.63759 0.08480 0.47038 0.01600
C 	C 	0.65896 0.12388 0.44785 -0.02800
C 	C 	0.70767 0.16050 0.45712 0.01600
C 	C 	0.70915 0.19439 0.40046 0.01100
C 	C 	0.73569 0.19284 0.43229 -0.05700
C 	C 	0.65932 0.08623 0.50379 0.01600
C 	C 	0.70652 0.12400 0.51350 -0.02800
C 	C 	0.72901 0.16246 0.49072 0.01700
O 	O 	0.65278 0.19513 0.33753 -0.20000
O 	O 	0.50766 0.06157 0.36639 -0.20500
H 	H 	0.73059 0.22046 0.38219 0.04400
H 	H 	0.78001 0.21456 0.43679 0.04800
H 	H 	0.53469 0.01697 0.41959 0.04200
H 	H 	0.58938 0.00846 0.47259 0.04600
C 	C 	0.76901 0.20385 0.50253 -0.05700
C 	C 	0.79186 0.20373 0.53509 0.01100
C 	C 	0.77176 0.16460 0.55743 -0.08000
C 	C 	0.72867 0.12503 0.54677 0.06200
C 	C 	0.63205 0.05279 0.52821 -0.05800
C 	C 	0.65735 0.05173 0.56015 0.01100
C 	C 	0.70557 0.08775 0.56968 -0.08100
C 	C 	0.79078 0.16625 0.59102 0.19700
N 	N 	0.76627 0.13027 0.61312 -0.18100
C 	C 	0.72758 0.08960 0.60262 0.19800
C 	C 	0.77395 0.13884 0.64813 0.13800
C 	C 	0.82067 0.11091 0.66587 -0.10000
C 	C 	0.81756 0.10828 0.70064 0.04700
C 	C 	0.76831 0.13468 0.71754 -0.08300
C 	C 	0.72227 0.16333 0.69991 0.05000
C 	C 	0.72680 0.16696 0.66532 -0.10400
O 	O 	0.83086 0.20330 0.60138 -0.20200
O 	O 	0.70869 0.05323 0.62387 -0.20500
H 	H 	0.85688 0.08892 0.65256 0.07100
H 	H 	0.69061 0.18824 0.65154 0.06900
H 	H 	0.77958 0.23776 0.48739 0.04800
H 	H 	0.82328 0.23547 0.54321 0.04200
H 	H 	0.58897 0.02974 0.52329 0.04600
H 	H 	0.63664 0.02459 0.57801 0.04300
H 	H 	0.76382 0.13061 0.74419 0.05400
H 	H 	0.46777 0.11484 0.23348 0.05300
Zn	Zn	0.88257 0.72638 0.00596 1.22400
C 	C 	0.77402 0.71945 0.05188 0.31700
O 	O 	0.95629 0.73112 0.03565 -0.47800
O 	O 	0.78629 0.66930 0.05497 -0.44500
O 	O 	0.91203 0.70159 0.08323 -0.48100
C 	C 	0.84380 0.62172 0.99138 0.32900
O 	O 	0.83287 0.67119 0.98510 -0.45600
O 	O 	0.88381 0.60859 0.01516 -0.50400
C 	C 	0.94556 0.73748 0.06732 0.31800
O 	O 	0.95292 0.72586 0.95949 -0.32600
Zn	Zn	0.87899 0.64106 0.05894 1.17500
O 	O 	0.81500 0.75074 0.03626 -0.44100
C 	C 	0.93439 0.77381 0.95539 0.27800
O 	O 	0.89227 0.79037 0.97652 -0.38600
Zn	Zn	0.31556 0.79224 0.03564 1.22300
C 	C 	0.27244 0.77147 0.10264 0.31800
O 	O 	0.24361 0.84055 0.03852 -0.44900
O 	O 	0.27764 0.82192 0.10839 -0.44700
O 	O 	0.30645 0.90725 0.05883 -0.49000
C 	C 	0.43989 0.78924 0.06463 0.32300
O 	O 	0.40843 0.79870 0.03731 -0.48100
O 	O 	0.42035 0.81002 0.09247 -0.47100
C 	C 	0.25404 0.89070 0.04332 0.32000
O 	O 	0.32717 0.81112 0.97868 -0.32000
Zn	Zn	0.35506 0.86484 0.09068 1.17800
O 	O 	0.29985 0.75120 0.07626 -0.44300
C 	C 	0.30323 0.76460 0.97423 0.28300
O 	O 	0.28945 0.73854 0.00082 -0.39200
C 	C 	0.16984 0.31586 0.70048 0.14000
C 	C 	0.19098 0.36347 0.71421 -0.10400
H 	H 	0.20250 0.39619 0.69804 0.07100
C 	C 	0.18915 0.37078 0.74859 0.05100
C 	C 	0.16712 0.32998 0.76911 -0.08600
C 	C 	0.15075 0.28102 0.75564 0.05300
C 	C 	0.15618 0.27329 0.72137 -0.10300
H 	H 	0.14145 0.23614 0.71064 0.07000
N 	N 	0.14593 0.31502 0.66712 -0.18200
C 	C 	0.18766 0.30669 0.64130 0.19800
C 	C 	0.16500 0.30806 0.60840 -0.07900
C 	C 	0.09890 0.31658 0.60241 0.06100
C 	C 	0.05709 0.32561 0.62921 -0.08600
C 	C 	0.08151 0.32401 0.66164 0.20000
C 	C 	0.20787 0.30354 0.58161 0.01000
C 	C 	0.18531 0.30707 0.54915 -0.05500
C 	C 	0.11826 0.31114 0.54259 0.01200
C 	C 	0.07507 0.31804 0.56953 -0.02300
C 	C 	0.00892 0.32928 0.56379 0.00200
C 	C 	0.99238 0.33860 0.62328 0.01700
C 	C 	0.96926 0.34257 0.59102 -0.04600
C 	C 	0.09402 0.31233 0.50963 0.02100
C 	C 	0.02891 0.32621 0.50402 -0.03800
C 	C 	0.98517 0.33078 0.53079 0.03300
O 	O 	0.04239 0.33180 0.68697 -0.20800
O 	O 	0.24923 0.29758 0.64730 -0.20000
H 	H 	0.96033 0.34785 0.64365 0.04600
H 	H 	0.92181 0.35882 0.58743 0.04700
H 	H 	0.25933 0.29935 0.58583 0.04500
H 	H 	0.22062 0.30960 0.52945 0.04700
C 	C 	0.91841 0.33585 0.52383 -0.06300
C 	C 	0.89778 0.34703 0.49174 0.01200
C 	C 	0.94241 0.34823 0.46551 -0.07700
C 	C 	0.00683 0.33413 0.47129 0.05900
C 	C 	0.13282 0.29866 0.48214 -0.05900
C 	C 	0.11126 0.30783 0.44990 0.01100
C 	C 	0.04884 0.32709 0.44435 -0.07900
C 	C 	0.92318 0.36160 0.43326 0.19700
N 	N 	0.96545 0.35644 0.40723 -0.17700
C 	C 	0.02680 0.33786 0.41210 0.19200
C 	C 	0.94437 0.36902 0.37425 0.13700
C 	C 	0.89471 0.33951 0.35941 -0.10200
C 	C 	0.87235 0.35280 0.32784 0.05000
C 	C 	0.90206 0.39398 0.31029 -0.08300
C 	C 	0.95281 0.42297 0.32472 0.04600
C 	C 	0.97285 0.41119 0.35706 -0.09400
O 	O 	0.86485 0.38031 0.42813 -0.20200
O 	O 	0.06515 0.32999 0.38650 -0.20400
H 	H 	0.87277 0.30692 0.37271 0.07100
H 	H 	0.01093 0.43424 0.36868 0.06700
H 	H 	0.88215 0.32865 0.54265 0.05000
H 	H 	0.84669 0.35283 0.48719 0.04200
H 	H 	0.17800 0.27850 0.48541 0.04700
H 	H 	0.14276 0.29873 0.42928 0.04400
H 	H 	0.88630 0.40299 0.28533 0.05500
H 	H 	0.15774 0.33753 0.79504 0.05400
Zn	Zn	0.55328 0.13568 0.01068 1.22300
C 	C 	0.62812 0.16345 0.95137 0.31600
O 	O 	0.53136 0.20904 0.00757 -0.45100
O 	O 	0.57387 0.17643 0.93660 -0.45100
O 	O 	0.45075 0.19331 0.97049 -0.49900
C 	C 	0.53986 0.04589 0.97194 0.32000
O 	O 	0.51819 0.06788 0.99892 -0.48500
O 	O 	0.52459 0.06713 0.94352 -0.48500
C 	C 	0.48823 0.22654 0.98672 0.32900
O 	O 	0.49439 0.12926 0.06079 -0.32800
Zn	Zn	0.48745 0.13734 0.94326 1.17100
O 	O 	0.62722 0.13732 0.97960 -0.43400
C 	C 	0.55100 0.12845 0.07470 0.27700
O 	O 	0.59983 0.13106 0.05462 -0.38500
Zn	Zn	0.91557 0.02712 0.01624 1.21200
C 	C 	0.06384 0.03373 0.99484 0.28600
O 	O 	0.90625 0.96747 0.05995 -0.30900
O 	O 	0.07006 0.07990 0.00952 -0.39300
O 	O 	0.98874 0.98827 0.10067 -0.17400
C 	C 	0.96369 0.14350 0.01479 0.29700
O 	O 	0.91649 0.10759 0.01100 -0.39800
O 	O 	0.99282 0.14998 0.04394 -0.43600
C 	C 	0.94332 0.95437 0.08723 0.22900
O 	O 	0.80402 0.03901 0.02525 -0.31800
Zn	Zn	0.05024 0.09629 0.06303 1.18900
O 	O 	0.00377 0.01682 0.98636 -0.37200
C 	C 	0.79554 0.01226 0.99829 0.25100
O 	O 	0.84797 0.99667 0.98393 -0.37500
C 	C 	0.59898 0.01333 0.97410 -0.11200
C 	C 	0.61748 0.99083 0.00466 0.04500
C 	C 	0.68342 0.98332 0.01130 -0.04300
H 	H 	0.69853 0.97048 0.03564 0.05000
C 	C 	0.73019 0.99583 0.98729 -0.02400
C 	C 	0.70999 0.00458 0.95443 -0.02000
C 	C 	0.64443 0.01486 0.94810 0.00900
H 	H 	0.62947 0.02591 0.92336 0.03600
C 	C 	0.75496 0.99728 0.92640 0.05400
C 	C 	0.76810 0.03881 0.90457 -0.06800
C 	C 	0.80151 0.02984 0.87502 -0.02000
C 	C 	0.82335 0.97970 0.86755 -0.03100
C 	C 	0.81175 0.93840 0.88959 -0.01300
C 	C 	0.77785 0.94710 0.91903 -0.05200
C 	C 	0.56841 0.97516 0.02965 0.00300
C 	C 	0.57166 0.99541 0.06196 -0.02700
C 	C 	0.52330 0.98282 0.08496 -0.02500
C 	C 	0.47219 0.94933 0.07606 -0.02100
C 	C 	0.46935 0.92835 0.04412 -0.04000
C 	C 	0.51753 0.94085 0.02100 -0.03200
H 	H 	0.52520 0.99931 0.10962 0.04200
H 	H 	0.43474 0.93976 0.09391 -0.03800
H 	H 	0.42951 0.90287 0.03714 0.00600
H 	H 	0.51499 0.92440 0.99630 0.04500
H 	H 	0.61112 0.02135 0.06907 0.03700
H 	H 	0.75070 0.07749 0.91004 0.05500
H 	H 	0.80938 0.06150 0.85762 0.04200
H 	H 	0.76763 0.91462 0.93559 0.05600
H 	H 	0.82776 0.89942 0.88352 0.04100
H 	H 	0.84853 0.97274 0.84452 0.05300
C 	C 	0.11503 0.24250 0.77625 -0.00100
C 	C 	0.13777 0.23016 0.80806 -0.04100
C 	C 	0.09518 0.20966 0.83185 -0.02200
C 	C 	0.03049 0.19909 0.82343 -0.02000
C 	C 	0.05214 0.22682 0.76706 -0.03900
C 	C 	0.98201 0.19082 0.84942 0.10900
N 	N 	0.96720 0.23087 0.87004 -0.09200
N 	N 	0.91359 0.22877 0.88840 -0.08700
C 	C 	0.87307 0.18675 0.88641 0.09700
N 	N 	0.88865 0.14614 0.86645 -0.08800
N 	N 	0.94242 0.14811 0.84826 -0.08700
C 	C 	0.81008 0.18733 0.90304 0.00500
C 	C 	0.74691 0.18208 0.95363 0.01500
C 	C 	0.69023 0.17496 0.93491 -0.09200
C 	C 	0.69347 0.17709 0.90017 0.01100
C 	C 	0.75321 0.18282 0.88433 -0.05400
C 	C 	0.01025 0.20491 0.79053 -0.02900
C 	C 	0.80652 0.18903 0.93770 -0.05300
H 	H 	0.18705 0.23992 0.81496 0.04700
H 	H 	0.11160 0.20434 0.85710 0.03900
H 	H 	0.96044 0.19653 0.78382 0.04400
H 	H 	0.03410 0.23541 0.74248 0.04800
H 	H 	0.85001 0.19435 0.95228 0.05600
H 	H 	0.74487 0.18186 0.98045 0.04400
H 	H 	0.75549 0.18235 0.85752 0.04600
H 	H 	0.65004 0.17211 0.88542 0.02900
C 	C 	0.81792 0.32347 0.31306 -0.00100
C 	C 	0.75993 0.34894 0.30577 -0.03600
C 	C 	0.71052 0.32242 0.28890 -0.02300
C 	C 	0.71895 0.27032 0.27894 -0.00300
C 	C 	0.82464 0.27042 0.30517 -0.03700
C 	C 	0.67327 0.24597 0.25544 0.10700
N 	N 	0.64731 0.27510 0.23079 -0.08700
N 	N 	0.61588 0.25202 0.20589 -0.08300
C 	C 	0.60988 0.19914 0.20482 0.09900
N 	N 	0.63351 0.17013 0.23013 -0.08500
N 	N 	0.66429 0.19324 0.25523 -0.07900
C 	C 	0.58933 0.17359 0.17408 0.00300
C 	C 	0.51471 0.16788 0.12788 0.00600
C 	C 	0.55930 0.13734 0.11038 -0.07500
C 	C 	0.61643 0.12152 0.12599 0.00500
C 	C 	0.63175 0.14006 0.15754 -0.04800
C 	C 	0.77534 0.24388 0.28823 -0.01900
C 	C 	0.52983 0.18609 0.15962 -0.04700
H 	H 	0.75377 0.38959 0.31253 0.04500
H 	H 	0.66652 0.34282 0.28266 0.04600
H 	H 	0.78223 0.20351 0.28104 0.05000
H 	H 	0.86891 0.25024 0.31121 0.04500
H 	H 	0.49625 0.21117 0.17251 0.05300
H 	H 	0.46993 0.17971 0.11630 0.04300
H 	H 	0.67738 0.12954 0.16877 0.05000
H 	H 	0.65027 0.09667 0.11309 0.03900
C 	C 	0.20749 0.92877 0.03065 -0.08700
C 	C 	0.20191 0.93849 0.99619 0.02500
C 	C 	0.15137 0.96962 0.98441 -0.01500
H 	H 	0.14667 0.97702 0.95806 0.03700
C 	C 	0.10995 0.99418 0.00663 -0.08900
C 	C 	0.11928 0.98836 0.04129 0.02200
C 	C 	0.16659 0.95430 0.05302 -0.01900
H 	H 	0.17053 0.94649 0.07933 0.03800
C 	C 	0.07283 0.01372 0.06436 -0.06200
C 	C 	0.00692 0.02448 0.05158 -0.26400
C 	C 	0.95932 0.05988 0.07116 -0.16300
C 	C 	0.98115 0.08092 0.10360 -0.11100
C 	C 	0.04671 0.06839 0.11611 -0.13500
C 	C 	0.09207 0.03558 0.09681 -0.15800
C 	C 	0.25252 0.92131 0.97272 0.01400
C 	C 	0.23525 0.89179 0.94466 -0.04100
C 	C 	0.28140 0.88144 0.92022 -0.01400
C 	C 	0.34512 0.89965 0.92391 -0.03000
C 	C 	0.36273 0.92868 0.95190 -0.01700
C 	C 	0.31653 0.93997 0.97612 -0.04700
H 	H 	0.26786 0.85902 0.89852 0.03600
H 	H 	0.38089 0.89113 0.90513 0.03900
H 	H 	0.41203 0.94288 0.95466 0.03400
H 	H 	0.33010 0.96396 0.99716 0.04700
H 	H 	0.18599 0.87757 0.94160 0.04100
H 	H 	0.99117 0.99346 0.03636 0.03300
H 	H 	0.90902 0.06337 0.06447 0.01700
H 	H 	0.14038 0.02926 0.10618 0.04800
H 	H 	0.06206 0.08391 0.13979 0.04800
H 	H 	0.94876 0.10413 0.11846 0.05800
C 	C 	0.29832 0.74100 0.94133 -0.07500
C 	C 	0.34909 0.71083 0.92905 0.00700
C 	C 	0.34159 0.68340 0.89934 -0.04700
C 	C 	0.28243 0.68492 0.88210 0.00500
C 	C 	0.24144 0.74611 0.92285 0.00600
C 	C 	0.26930 0.64795 0.85459 0.10200
N 	N 	0.31832 0.62071 0.84064 -0.08400
N 	N 	0.30551 0.58144 0.81987 -0.08900
C 	C 	0.24332 0.56806 0.81252 0.10600
N 	N 	0.19455 0.59724 0.82498 -0.08600
N 	N 	0.20734 0.63655 0.84568 -0.08700
C 	C 	0.22855 0.51908 0.79424 -0.01200
C 	C 	0.26388 0.44598 0.76046 -0.04000
C 	C 	0.20196 0.42307 0.76278 -0.00400
C 	C 	0.15305 0.44879 0.78024 -0.04000
C 	C 	0.16631 0.49622 0.79610 -0.02700
C 	C 	0.23342 0.71824 0.89338 -0.04800
C 	C 	0.27716 0.49379 0.77605 -0.02600
H 	H 	0.39371 0.70753 0.94294 0.04400
H 	H 	0.38059 0.65905 0.89065 0.05600
H 	H 	0.18848 0.72155 0.87979 0.04900
H 	H 	0.20303 0.77107 0.93154 0.02800
H 	H 	0.32526 0.51091 0.77414 0.04200
H 	H 	0.30202 0.42629 0.74713 0.04400
H 	H 	0.12845 0.51462 0.81034 0.04300
H 	H 	0.10501 0.43147 0.78206 0.03300
C 	C 	0.23863 0.73722 0.12667 -0.09000
C 	C 	0.21119 0.68933 0.11642 0.01000
C 	C 	0.17881 0.65711 0.13920 -0.05400
C 	C 	0.17495 0.67178 0.17262 0.00700
C 	C 	0.23458 0.75189 0.16013 0.01400
C 	C 	0.14172 0.63746 0.19668 0.09900
N 	N 	0.08297 0.61602 0.18940 -0.08800
N 	N 	0.05306 0.58466 0.21111 -0.08900
C 	C 	0.08123 0.57364 0.24063 0.10800
N 	N 	0.13999 0.59508 0.24791 -0.08400
N 	N 	0.16970 0.62674 0.22630 -0.08300
C 	C 	0.04929 0.53737 0.26403 -0.02100
C 	C 	0.95166 0.50515 0.29121 -0.04500
C 	C 	0.98670 0.46414 0.30542 0.01100
C 	C 	0.05354 0.46078 0.29957 -0.04900
C 	C 	0.08474 0.49736 0.27909 -0.01700
C 	C 	0.20324 0.71918 0.18301 -0.05200
C 	C 	0.98275 0.54143 0.27047 -0.01300
H 	H 	0.21584 0.67664 0.09098 0.03300
H 	H 	0.15791 0.62024 0.13100 0.04500
H 	H 	0.20058 0.73087 0.20876 0.05100
H 	H 	0.25654 0.78824 0.16853 0.03000
H 	H 	0.95508 0.57255 0.25931 0.04300
H 	H 	0.90020 0.50845 0.29586 0.04500
H 	H 	0.13609 0.49378 0.27424 0.04600
H 	H 	0.08099 0.42917 0.31030 0.05100
C 	C 	0.95238 0.79043 0.08165 -0.08700
C 	C 	0.00735 0.82220 0.07443 0.02700
C 	C 	0.00795 0.87472 0.08406 -0.04000
H 	H 	0.05024 0.89883 0.07870 0.05600
C 	C 	0.95067 0.89850 0.09431 -0.03500
C 	C 	0.89668 0.86701 0.10278 0.00700
C 	C 	0.89893 0.81273 0.09777 -0.00600
H 	H 	0.85701 0.78859 0.10391 0.04800
C 	C 	0.83772 0.89051 0.11674 0.02600
C 	C 	0.78677 0.90509 0.09582 -0.04300
C 	C 	0.73186 0.92880 0.10908 -0.01300
C 	C 	0.72711 0.93712 0.14320 -0.03100
C 	C 	0.77726 0.92184 0.16416 -0.01200
C 	C 	0.83265 0.89875 0.15099 -0.04700
C 	C 	0.05762 0.80426 0.05109 0.02400
C 	C 	0.05975 0.82470 0.01874 -0.04800
C 	C 	0.09913 0.80175 0.99483 0.00400
C 	C 	0.13686 0.75876 0.00312 -0.04700
C 	C 	0.13767 0.74014 0.03567 -0.01200
C 	C 	0.09859 0.76310 0.05978 -0.04300
H 	H 	0.09895 0.81632 0.96964 0.03100
H 	H 	0.16417 0.73900 0.98418 0.05400
H 	H 	0.16711 0.70693 0.04193 0.03400
H 	H 	0.09792 0.74746 0.08473 0.04400
H 	H 	0.02882 0.85685 0.01185 0.04700
H 	H 	0.78996 0.89843 0.06937 0.05300
H 	H 	0.69281 0.94043 0.09297 0.03600
H 	H 	0.87159 0.88739 0.16734 0.05100
H 	H 	0.77334 0.92810 0.19059 0.04100
H 	H 	0.68463 0.95546 0.15338 0.04700
C 	C 	0.86090 0.07313 0.71922 0.00800
C 	C 	0.89419 0.09178 0.74722 -0.04500
C 	C 	0.92375 0.05678 0.76895 -0.01600
C 	C 	0.92096 0.00263 0.76269 -0.03700
C 	C 	0.86190 0.01950 0.71177 -0.05800
C 	C 	0.94238 0.96483 0.78822 0.11800
N 	N 	0.98219 0.98059 0.81318 -0.08400
N 	N 	0.99435 0.94866 0.83850 -0.08500
C 	C 	0.96731 0.89995 0.83957 0.09800
N 	N 	0.92958 0.88348 0.81402 -0.08400
N 	N 	0.91727 0.91542 0.78876 -0.08700
C 	C 	0.97189 0.86790 0.86991 0.00400
C 	C 	0.96636 0.78217 0.89600 0.00500
C 	C 	0.95506 0.80576 0.92681 -0.07500
C 	C 	0.95740 0.86052 0.92946 0.00700
C 	C 	0.96597 0.89144 0.90118 -0.04800
C 	C 	0.89223 0.98452 0.73320 0.00700
C 	C 	0.97448 0.81310 0.86763 -0.04700
H 	H 	0.89446 0.13316 0.75296 0.04300
H 	H 	0.94651 0.07165 0.79125 0.04800
H 	H 	0.89150 0.94314 0.72740 0.04300
H 	H 	0.83675 0.00462 0.69013 0.05200
H 	H 	0.98061 0.79446 0.84377 0.05100
H 	H 	0.96592 0.73992 0.89374 0.03900
H 	H 	0.96377 0.93357 0.90334 0.05300
H 	H 	0.95030 0.87918 0.95326 0.04300
C 	C 	0.71863 0.74198 0.06964 -0.09200
C 	C 	0.69449 0.71764 0.09841 0.01400
C 	C 	0.65278 0.74453 0.11943 -0.05200
C 	C 	0.63463 0.79587 0.11183 0.00900
C 	C 	0.69522 0.79122 0.06040 0.01400
C 	C 	0.60383 0.82849 0.13726 0.09600
N 	N 	0.62350 0.82537 0.16929 -0.08500
N 	N 	0.60455 0.86081 0.19132 -0.08600
C 	C 	0.56530 0.90032 0.18197 0.10300
N 	N 	0.54284 0.90177 0.15038 -0.09700
N 	N 	0.56185 0.86638 0.12834 -0.09000
C 	C 	0.55624 0.94547 0.20397 -0.02300
C 	C 	0.53469 0.98115 0.25861 -0.03200
C 	C 	0.54380 0.03209 0.24617 -0.00400
C 	C 	0.55950 0.03928 0.21266 -0.05700
C 	C 	0.56544 0.99636 0.19167 -0.00000
C 	C 	0.65322 0.81797 0.08136 -0.05100
C 	C 	0.54127 0.93796 0.23761 -0.02200
H 	H 	0.71094 0.67917 0.10550 0.02900
H 	H 	0.63675 0.72628 0.14231 0.04800
H 	H 	0.63702 0.85659 0.07441 0.04800
H 	H 	0.71123 0.80952 0.03754 0.03700
H 	H 	0.53416 0.89881 0.24739 0.04300
H 	H 	0.52174 0.97506 0.28435 0.04800
H 	H 	0.57805 0.00265 0.16591 0.02500
H 	H 	0.56610 0.07818 0.20282 0.05100
C 	C 	0.96631 0.18799 0.99147 -0.06400
C 	C 	0.99932 0.18380 0.96084 0.02300
C 	C 	0.02300 0.22923 0.94520 -0.00800
H 	H 	0.05196 0.22606 0.92288 0.04200
C 	C 	0.01177 0.27854 0.95877 -0.09800
C 	C 	0.97222 0.28308 0.98710 0.04800
C 	C 	0.94896 0.23773 0.00301 -0.03600
H 	H 	0.92152 0.24115 0.02582 0.05000
C 	C 	0.96107 0.33474 0.00229 -0.00500
C 	C 	0.92037 0.37080 0.98674 -0.03300
C 	C 	0.91686 0.42205 0.99865 -0.02500
C 	C 	0.95234 0.43696 0.02667 -0.03700
C 	C 	0.99070 0.40050 0.04305 -0.01400
C 	C 	0.99523 0.34947 0.03090 -0.03000
C 	C 	0.00993 0.13245 0.94486 0.01300
C 	C 	0.07256 0.11874 0.93458 -0.04000
C 	C 	0.08176 0.07420 0.91519 -0.01700
C 	C 	0.02879 0.04297 0.90604 -0.03800
C 	C 	0.96646 0.05603 0.91638 -0.00400
C 	C 	0.95686 0.10069 0.93566 -0.03700
H 	H 	0.13003 0.06378 0.90736 0.02900
H 	H 	0.03617 0.00842 0.89117 0.04400
H 	H 	0.92565 0.03137 0.90965 0.04000
H 	H 	0.90831 0.11086 0.94310 0.05000
H 	H 	0.11396 0.14280 0.94149 0.03900
H 	H 	0.89325 0.35961 0.96485 0.04400
H 	H 	0.88734 0.45037 0.98591 0.03200
H 	H 	0.02650 0.32182 0.04315 0.03500
H 	H 	0.01792 0.41206 0.06480 0.03000
H 	H 	0.95045 0.47685 0.03556 0.02900
C 	C 	0.23699 0.32471 0.86293 -0.09500
C 	C 	0.26288 0.27595 0.87106 0.00900
C 	C 	0.31299 0.25524 0.85201 -0.05500
C 	C 	0.33672 0.28283 0.82435 0.00400
C 	C 	0.26082 0.35227 0.83541 0.01300
C 	C 	0.39233 0.26301 0.80558 0.09600
N 	N 	0.44535 0.24538 0.82178 -0.09400
N 	N 	0.49765 0.23108 0.80486 -0.09200
C 	C 	0.49829 0.23384 0.77127 0.10300
N 	N 	0.44507 0.25104 0.75507 -0.08400
N 	N 	0.39298 0.26573 0.77200 -0.08300
C 	C 	0.55554 0.21707 0.75253 -0.01200
C 	C 	0.67215 0.21713 0.74459 -0.04000
C 	C 	0.66476 0.18372 0.71723 -0.00100
C 	C 	0.60244 0.16744 0.70747 -0.03800
C 	C 	0.54812 0.18431 0.72489 -0.02400
C 	C 	0.30944 0.33095 0.81576 -0.04900
C 	C 	0.61779 0.23350 0.76228 -0.02600
H 	H 	0.24449 0.25425 0.89219 0.02200
H 	H 	0.33339 0.21789 0.85877 0.03500
H 	H 	0.32774 0.35282 0.79466 0.05200
H 	H 	0.24152 0.39012 0.82915 0.02900
H 	H 	0.62403 0.25913 0.78343 0.03900
H 	H 	0.71998 0.23006 0.75229 0.04000
H 	H 	0.50034 0.17113 0.71728 0.04600
H 	H 	0.59619 0.14103 0.68670 0.04700
C 	C 	0.44763 0.20740 0.26299 -0.00100
C 	C 	0.47977 0.25377 0.25356 -0.03600
C 	C 	0.45076 0.28803 0.23115 -0.02300
C 	C 	0.38836 0.27708 0.21904 -0.01200
C 	C 	0.38299 0.19915 0.25341 -0.03900
C 	C 	0.36245 0.30718 0.19101 0.10500
N 	N 	0.39889 0.31463 0.16334 -0.08500
N 	N 	0.37271 0.33490 0.13612 -0.08500
C 	C 	0.30935 0.34850 0.13578 0.09900
N 	N 	0.27347 0.34253 0.16381 -0.08500
N 	N 	0.29954 0.32189 0.19095 -0.08500
C 	C 	0.27861 0.36601 0.10463 0.00400
C 	C 	0.18400 0.37017 0.06898 0.00200
C 	C 	0.22197 0.39222 0.04356 -0.07300
C 	C 	0.28796 0.40269 0.04919 0.00500
C 	C 	0.31612 0.38974 0.07955 -0.04800
C 	C 	0.35347 0.23383 0.23150 -0.02500
C 	C 	0.21214 0.35699 0.09928 -0.05000
H 	H 	0.52852 0.26175 0.26211 0.05500
H 	H 	0.47756 0.32206 0.22238 0.05000
H 	H 	0.30487 0.22542 0.22276 0.04200
H 	H 	0.35711 0.16408 0.26121 0.04200
H 	H 	0.18256 0.33849 0.11824 0.04600
H 	H 	0.13315 0.36167 0.06495 0.03500
H 	H 	0.36721 0.39762 0.08340 0.05200
H 	H 	0.31775 0.41990 0.02982 0.04100
C 	C 	0.20777 0.51304 0.90325 -0.08700
C 	C 	0.22846 0.55363 0.92454 0.03000
C 	C 	0.29476 0.56556 0.92726 -0.01300
H 	H 	0.31101 0.59543 0.94452 0.04900
C 	C 	0.34033 0.53745 0.90885 -0.07900
C 	C 	0.31881 0.49892 0.88613 0.02700
C 	C 	0.25238 0.49090 0.88140 -0.00800
H 	H 	0.23601 0.46188 0.86373 0.04700
C 	C 	0.36401 0.45996 0.87259 0.01500
C 	C 	0.39922 0.47069 0.84357 -0.07900
C 	C 	0.44122 0.43331 0.83073 -0.04500
C 	C 	0.44794 0.38507 0.84666 -0.04400
C 	C 	0.41176 0.37372 0.87513 -0.00800
C 	C 	0.36951 0.41090 0.88798 -0.04500
C 	C 	0.18106 0.58330 0.94427 0.02000
C 	C 	0.18137 0.58002 0.97900 -0.04200
C 	C 	0.13468 0.60632 0.99751 -0.01400
C 	C 	0.08771 0.63600 0.98148 -0.03700
C 	C 	0.08801 0.64020 0.94695 -0.01900
C 	C 	0.13434 0.61375 0.92833 -0.04800
H 	H 	0.13478 0.60355 0.02427 0.02600
H 	H 	0.05141 0.65612 0.99584 0.03900
H 	H 	0.05213 0.66369 0.93460 0.04400
H 	H 	0.13354 0.61646 0.90158 0.05200
H 	H 	0.21710 0.55652 0.99155 0.05000
H 	H 	0.39493 0.50814 0.83134 0.04600
H 	H 	0.46874 0.44181 0.80849 0.02000
H 	H 	0.34170 0.40189 0.91006 0.05700
H 	H 	0.41657 0.33619 0.88727 0.03600
H 	H 	0.48084 0.35637 0.83681 0.04300
C 	C 	0.52761 0.66413 0.02689 -0.06300
C 	C 	0.55391 0.71384 0.01882 0.01500
C 	C 	0.53833 0.75694 0.03859 -0.00600
H 	H 	0.55305 0.79594 0.03074 0.03800
C 	C 	0.49232 0.75115 0.06391 -0.08900
C 	C 	0.48059 0.70053 0.07682 0.02800
C 	C 	0.49859 0.65678 0.05797 -0.02700
H 	H 	0.48499 0.61768 0.06606 0.04600
C 	C 	0.44556 0.69315 0.10861 0.01700
C 	C 	0.46721 0.71901 0.13731 -0.03900
C 	C 	0.43487 0.71135 0.16741 -0.02000
C 	C 	0.38176 0.67700 0.16922 -0.03500
C 	C 	0.36060 0.65051 0.14089 -0.01500
C 	C 	0.39145 0.65928 0.11050 -0.04200
C 	C 	0.59102 0.72202 0.98782 0.02400
C 	C 	0.56526 0.75272 0.96226 -0.04300
C 	C 	0.59817 0.75756 0.93211 -0.01800
C 	C 	0.65655 0.73160 0.92724 -0.03400
C 	C 	0.68241 0.70106 0.95261 -0.01800
C 	C 	0.65031 0.69684 0.98303 -0.03700
H 	H 	0.57813 0.78107 0.91241 0.03500
H 	H 	0.68170 0.73508 0.90380 0.03700
H 	H 	0.72705 0.68040 0.94858 0.05100
H 	H 	0.67121 0.67389 0.00273 0.04900
H 	H 	0.51928 0.77198 0.96558 0.05300
H 	H 	0.50881 0.74508 0.13625 0.05300
H 	H 	0.45125 0.73181 0.18938 0.03800
H 	H 	0.37334 0.63987 0.08847 0.04700
H 	H 	0.31988 0.62353 0.14242 0.03900
H 	H 	0.35694 0.67095 0.19257 0.04300
C 	C 	0.49409 0.28132 0.97552 -0.09100
C 	C 	0.43995 0.31448 0.97431 0.02400
C 	C 	0.44839 0.36694 0.96466 -0.01700
H 	H 	0.40688 0.39244 0.96350 0.04500
C 	C 	0.51020 0.38674 0.95675 -0.08100
C 	C 	0.56434 0.35405 0.95890 0.02500
C 	C 	0.55591 0.30158 0.96795 -0.01300
H 	H 	0.59773 0.27643 0.96929 0.04800
C 	C 	0.63021 0.37447 0.95190 0.01500
C 	C 	0.65156 0.38023 0.91907 -0.04200
C 	C 	0.71432 0.39873 0.91255 -0.01700
C 	C 	0.75601 0.41127 0.93872 -0.03200
C 	C 	0.73501 0.40530 0.97147 -0.02200
C 	C 	0.67217 0.38710 0.97810 -0.03600
C 	C 	0.37491 0.29546 0.98430 0.02200
C 	C 	0.36076 0.28643 0.01787 -0.04800
C 	C 	0.29840 0.27056 0.02741 -0.01500
C 	C 	0.24987 0.26416 0.00359 -0.04100
C 	C 	0.26370 0.27328 0.97015 -0.01700
C 	C 	0.32601 0.28908 0.96047 -0.04700
H 	H 	0.28745 0.26399 0.05332 0.03300
H 	H 	0.20140 0.25260 0.01107 0.03500
H 	H 	0.22597 0.26861 0.95180 0.03400
H 	H 	0.33621 0.29673 0.93457 0.04200
H 	H 	0.39783 0.29221 0.03652 0.05100
H 	H 	0.61952 0.37052 0.89869 0.03900
H 	H 	0.73064 0.40331 0.88722 0.03000
H 	H 	0.65603 0.38292 0.00352 0.04600
H 	H 	0.76709 0.41546 0.99170 0.03700
H 	H 	0.80439 0.42600 0.93363 0.03100
C 	C 	0.70221 0.54232 0.93643 -0.08300
C 	C 	0.75770 0.56182 0.92010 0.02000
C 	C 	0.81030 0.58054 0.93875 -0.01400
H 	H 	0.85111 0.59915 0.92631 0.03900
C 	C 	0.80673 0.58129 0.97346 -0.09300
C 	C 	0.75560 0.55384 0.98949 0.03100
C 	C 	0.70466 0.53312 0.97057 -0.02100
H 	H 	0.66366 0.51455 0.98287 0.04300
C 	C 	0.75187 0.55065 0.02607 0.00100
C 	C 	0.69908 0.57227 0.04299 -0.04300
C 	C 	0.69498 0.56834 0.07747 -0.01900
C 	C 	0.74306 0.54243 0.09518 -0.04800
C 	C 	0.79479 0.51968 0.07837 -0.04800
C 	C 	0.79882 0.52321 0.04387 -0.06800
C 	C 	0.75922 0.56624 0.88371 0.01000
C 	C 	0.77913 0.52377 0.86442 -0.04800
C 	C 	0.77929 0.52763 0.82986 -0.02700
C 	C 	0.75992 0.57393 0.81451 -0.04100
C 	C 	0.74046 0.61648 0.83369 -0.02600
C 	C 	0.74016 0.61274 0.86824 -0.05100
H 	H 	0.79450 0.49478 0.81499 0.02900
H 	H 	0.76007 0.57686 0.78776 0.03600
H 	H 	0.72554 0.65231 0.82177 0.03200
H 	H 	0.72480 0.64573 0.88297 0.04200
H 	H 	0.79464 0.48796 0.87618 0.03600
H 	H 	0.66132 0.59193 0.02946 0.05400
H 	H 	0.65459 0.58547 0.09047 0.03800
H 	H 	0.83842 0.50497 0.03099 0.04000
H 	H 	0.83163 0.49914 0.09207 0.02400
H 	H 	0.74003 0.53968 0.12189 0.03500
