data_crystal

_cell_length_a 39.31712
_cell_length_b 39.37953
_cell_length_c 35.53122
_cell_angle_alpha 90.77739
_cell_angle_beta  89.12933
_cell_angle_gamma 90.04399

_symmetry_space_group_name_	'P 1'
_symmetry_space_group_name_H-M	'P 1'

loop_
_symmetry_equiv_pos_as_xyz
  x,y,z

loop_
_atom_site_label
_atom_site_type_symbol
_atom_site_fract_x
_atom_site_fract_y
_atom_site_fract_z
_atom_site_charge
Cd	Cd	0.97314 0.94629 0.28730 1.23800
Cd	Cd	0.90354 0.00267 0.30263 1.16200
O 	O 	0.96478 0.88952 0.25806 -0.30400
O 	O 	0.01550 0.90936 0.27128 -0.36600
C 	C 	0.99746 0.88431 0.25810 0.24500
O 	O 	0.99810 0.99408 0.30518 -0.40300
O 	O 	0.95102 0.01856 0.33261 -0.44100
C 	C 	0.98093 0.02140 0.31569 0.28400
C 	C 	0.94784 0.98429 0.22616 0.29500
O 	O 	0.91456 0.94843 0.32512 -0.46100
O 	O 	0.97741 0.97087 0.21769 -0.30000
O 	O 	0.93387 0.97390 0.25723 -0.54100
C 	C 	0.93161 0.94072 0.35503 0.29400
O 	O 	0.96362 0.93330 0.34931 -0.42200
Cd	Cd	0.01435 0.90553 0.01185 1.23800
Cd	Cd	0.96907 0.98278 0.03938 1.15800
O 	O 	0.99760 0.87908 0.95157 -0.31400
O 	O 	0.04292 0.86244 0.98236 -0.33700
C 	C 	0.02372 0.85882 0.95305 0.24100
O 	O 	0.04140 0.92817 0.06035 -0.37700
O 	O 	0.02021 0.98272 0.06934 -0.40600
C 	C 	0.04626 0.96144 0.06364 0.28500
C 	C 	0.02375 0.96814 0.97355 0.28300
O 	O 	0.96790 0.92763 0.05875 -0.46500
O 	O 	0.05036 0.94825 0.97049 -0.30000
O 	O 	0.99786 0.95568 0.99201 -0.54500
C 	C 	0.95220 0.89927 0.05240 0.30200
O 	O 	0.97231 0.87433 0.04232 -0.35000
C 	C 	0.02478 0.68732 0.77884 0.09300
N 	N 	0.02529 0.69818 0.74269 -0.12800
C 	C 	0.03646 0.67717 0.71450 0.12800
N 	N 	0.04835 0.64585 0.72271 -0.14300
C 	C 	0.04849 0.63519 0.75882 0.12900
N 	N 	0.03574 0.65552 0.78674 -0.13800
C 	C 	0.08433 0.70604 0.37732 0.09300
N 	N 	0.11043 0.68440 0.36932 -0.13100
C 	C 	0.12205 0.66347 0.39637 0.12800
N 	N 	0.10951 0.66625 0.43207 -0.14300
C 	C 	0.08445 0.68889 0.44049 0.12900
N 	N 	0.07096 0.70782 0.41278 -0.13600
Cd	Cd	0.86652 0.06018 0.81220 1.24000
Cd	Cd	0.93480 0.04836 0.87550 1.16300
O 	O 	0.82075 0.10170 0.82705 -0.30200
O 	O 	0.82363 0.07390 0.77291 -0.34700
C 	C 	0.80763 0.09595 0.79420 0.24200
O 	O 	0.90271 0.02825 0.77907 -0.38400
O 	O 	0.93310 0.00916 0.82886 -0.42900
C 	C 	0.93134 0.01698 0.79302 0.29000
C 	C 	0.91989 0.10906 0.81592 0.29800
O 	O 	0.87620 0.04042 0.88181 -0.46100
O 	O 	0.90202 0.11306 0.78558 -0.29400
O 	O 	0.90792 0.08750 0.83990 -0.54400
C 	C 	0.85887 0.01306 0.87392 0.28000
O 	O 	0.84458 0.01235 0.84101 -0.35300
Cd	Cd	0.88089 0.23202 0.36885 1.24000
Cd	Cd	0.95679 0.23574 0.31383 1.16700
O 	O 	0.82861 0.26102 0.34876 -0.31700
O 	O 	0.82903 0.22735 0.39758 -0.33700
C 	C 	0.81147 0.24689 0.37599 0.24100
O 	O 	0.91539 0.19477 0.39510 -0.39100
O 	O 	0.96521 0.21825 0.37312 -0.43000
C 	C 	0.94877 0.19352 0.39028 0.28500
C 	C 	0.88705 0.19060 0.30279 0.28800
O 	O 	0.92429 0.27792 0.34365 -0.45700
O 	O 	0.86143 0.18103 0.32392 -0.30400
O 	O 	0.90128 0.21899 0.31274 -0.53900
C 	C 	0.92690 0.28855 0.37845 0.29300
O 	O 	0.90604 0.27508 0.40287 -0.36000
C 	C 	0.60631 0.09138 0.87583 0.09500
N 	N 	0.58635 0.06348 0.87132 -0.12800
C 	C 	0.56863 0.05089 0.90116 0.12900
N 	N 	0.57106 0.06611 0.93553 -0.14200
C 	C 	0.59064 0.09424 0.94004 0.12800
N 	N 	0.60821 0.10684 0.91016 -0.13800
C 	C 	0.62954 0.14843 0.27516 0.09300
N 	N 	0.63080 0.15041 0.23703 -0.12900
C 	C 	0.61306 0.12797 0.21565 0.12700
N 	N 	0.59331 0.10412 0.23244 -0.14200
C 	C 	0.59214 0.10194 0.27053 0.12800
N 	N 	0.61014 0.12419 0.29190 -0.13900
Cd	Cd	0.17808 0.23712 0.31597 1.24100
Cd	Cd	0.11760 0.20611 0.38394 1.16700
O 	O 	0.23965 0.23785 0.32948 -0.30200
O 	O 	0.21975 0.25244 0.27460 -0.35000
C 	C 	0.24613 0.24927 0.29593 0.24200
O 	O 	0.12971 0.23505 0.28457 -0.38300
O 	O 	0.09494 0.23497 0.33668 -0.43400
C 	C 	0.10085 0.22649 0.30124 0.28700
C 	C 	0.16881 0.16578 0.32401 0.28900
O 	O 	0.15625 0.25083 0.38513 -0.45600
O 	O 	0.18672 0.17258 0.29372 -0.29500
O 	O 	0.16349 0.19123 0.34692 -0.53400
C 	C 	0.15088 0.28184 0.37416 0.29100
O 	O 	0.16271 0.28929 0.34079 -0.36000
Cd	Cd	0.22433 0.15085 0.90040 1.24000
Cd	Cd	0.19399 0.07846 0.85083 1.15500
O 	O 	0.22949 0.20663 0.86960 -0.30800
O 	O 	0.23851 0.20032 0.93001 -0.34200
C 	C 	0.23737 0.22070 0.90162 0.24100
O 	O 	0.21756 0.11239 0.94480 -0.38700
O 	O 	0.21874 0.06563 0.90573 -0.43300
C 	C 	0.21135 0.07987 0.93868 0.28700
C 	C 	0.15328 0.14349 0.88790 0.30500
O 	O 	0.24080 0.11368 0.84074 -0.46900
O 	O 	0.15890 0.16653 0.91388 -0.30100
O 	O 	0.17997 0.13200 0.87019 -0.55400
C 	C 	0.27115 0.11041 0.85458 0.28700
O 	O 	0.27731 0.12853 0.88471 -0.35000
C 	C 	0.23937 0.40014 0.77882 0.09400
N 	N 	0.21250 0.42173 0.78085 -0.12800
C 	C 	0.19859 0.43367 0.74887 0.12700
N 	N 	0.21250 0.42497 0.71489 -0.14400
C 	C 	0.23967 0.40374 0.71272 0.12800
N 	N 	0.25310 0.39135 0.74472 -0.13900
C 	C 	0.31720 0.42322 0.38687 0.09400
N 	N 	0.29732 0.45028 0.37867 -0.12700
C 	C 	0.28549 0.47108 0.40676 0.12700
N 	N 	0.29201 0.46367 0.44314 -0.14300
C 	C 	0.31151 0.43644 0.45153 0.12900
N 	N 	0.32449 0.41657 0.42330 -0.13900
Cd	Cd	0.16982 0.94148 0.72401 1.24000
Cd	Cd	0.16310 0.03184 0.71065 1.15000
O 	O 	0.18934 0.91949 0.78494 -0.31800
O 	O 	0.17160 0.88569 0.73961 -0.33900
C 	C 	0.18336 0.88858 0.77349 0.24300
O 	O 	0.14346 0.94505 0.66971 -0.37900
O 	O 	0.15458 0.00069 0.65840 -0.43200
C 	C 	0.13317 0.97497 0.65848 0.28700
C 	C 	0.11414 0.97883 0.75673 0.29000
O 	O 	0.20833 0.99576 0.72328 -0.47600
O 	O 	0.10824 0.94610 0.75724 -0.29800
O 	O 	0.14454 0.98741 0.74619 -0.55100
C 	C 	0.22909 0.98016 0.69991 0.28300
O 	O 	0.22197 0.94821 0.69342 -0.34800
Cd	Cd	0.11200 0.93256 0.47015 1.24000
Cd	Cd	0.03612 0.93118 0.41680 1.17200
O 	O 	0.15461 0.88726 0.46000 -0.30100
O 	O 	0.16469 0.93179 0.49604 -0.34700
C 	C 	0.17600 0.90349 0.48121 0.24200
O 	O 	0.08822 0.98291 0.48279 -0.38400
O 	O 	0.03425 0.96699 0.46651 -0.42600
C 	C 	0.05661 0.99089 0.47444 0.29100
C 	C 	0.11378 0.95472 0.39402 0.30900
O 	O 	0.05887 0.89327 0.45953 -0.45400
O 	O 	0.14165 0.96298 0.41146 -0.29700
O 	O 	0.09366 0.93443 0.41224 -0.54300
C 	C 	0.05378 0.89339 0.49594 0.29400
O 	O 	0.07757 0.90778 0.51584 -0.35100
C 	C 	0.33596 0.84880 0.93239 0.09400
N 	N 	0.36015 0.86954 0.91745 -0.13800
C 	C 	0.38276 0.88539 0.94028 0.12800
N 	N 	0.38155 0.88001 0.97793 -0.14200
C 	C 	0.35781 0.85882 0.99283 0.13300
N 	N 	0.33469 0.84369 0.97009 -0.12900
C 	C 	0.35892 0.90887 0.33069 0.09400
N 	N 	0.35234 0.89436 0.29664 -0.13600
C 	C 	0.37333 0.90019 0.26676 0.12900
N 	N 	0.40159 0.91950 0.27128 -0.14300
C 	C 	0.40814 0.93424 0.30514 0.12700
N 	N 	0.38637 0.92947 0.33464 -0.12900
C 	C 	0.35541 0.85448 0.03396 -0.05300
C 	C 	0.38455 0.84685 0.05518 0.10200
C 	C 	0.38319 0.85060 0.09450 -0.08600
C 	C 	0.35268 0.85952 0.11302 -0.00500
C 	C 	0.32258 0.86299 0.09208 0.07100
C 	C 	0.32437 0.86112 0.05262 -0.05100
N 	N 	0.41351 0.83514 0.03808 -0.19900
H 	H 	0.40599 0.84682 0.11073 0.05500
C 	C 	0.35345 0.86922 0.15341 -0.00400
N 	N 	0.29200 0.86809 0.10967 -0.19400
H 	H 	0.30173 0.86575 0.03639 0.05400
C 	C 	0.35240 0.90375 0.16343 -0.08600
C 	C 	0.35614 0.91420 0.20101 0.10300
C 	C 	0.36307 0.88972 0.22868 -0.05000
C 	C 	0.36265 0.85509 0.21901 -0.05200
C 	C 	0.35733 0.84452 0.18163 0.07000
H 	H 	0.34860 0.92256 0.14188 0.05600
N 	N 	0.35246 0.94762 0.21046 -0.19900
H 	H 	0.36701 0.83633 0.24049 0.04900
N 	N 	0.35572 0.81078 0.17311 -0.19400
H 	H 	0.34886 0.96570 0.18963 0.08700
H 	H 	0.35152 0.95578 0.23854 0.09600
H 	H 	0.35951 0.79273 0.19393 0.08500
H 	H 	0.34968 0.80213 0.14612 0.08900
H 	H 	0.27006 0.87179 0.09399 0.08800
H 	H 	0.28949 0.86720 0.13894 0.09100
H 	H 	0.41402 0.82811 0.00964 0.09200
H 	H 	0.43541 0.83112 0.05373 0.08500
C 	C 	0.25524 0.87806 0.44672 0.11900
C 	C 	0.26988 0.86528 0.41314 -0.09000
C 	C 	0.28946 0.88740 0.39124 0.02200
C 	C 	0.29813 0.91922 0.40395 0.11500
C 	C 	0.28496 0.93172 0.43821 -0.08600
C 	C 	0.26336 0.91049 0.45934 0.01100
O 	O 	0.22374 0.86677 0.45945 -0.18700
C 	C 	0.21253 0.89603 0.47851 0.05500
C 	C 	0.23641 0.92178 0.47957 -0.05900
O 	O 	0.32676 0.93276 0.38629 -0.20300
C 	C 	0.33439 0.90549 0.36190 0.09700
C 	C 	0.31227 0.87840 0.36467 -0.08700
H 	H 	0.26369 0.84002 0.40291 0.06900
H 	H 	0.29083 0.95724 0.44786 0.06700
H 	H 	0.23017 0.94844 0.48338 0.06200
H 	H 	0.31723 0.85277 0.35454 0.06000
C 	C 	0.23997 0.83054 0.81200 0.11900
C 	C 	0.27443 0.82512 0.81957 -0.09200
C 	C 	0.28377 0.81982 0.85699 0.02100
C 	C 	0.26071 0.82407 0.88639 0.11400
C 	C 	0.22677 0.83218 0.87897 -0.08600
C 	C 	0.21657 0.83311 0.84130 0.01200
O 	O 	0.22974 0.84633 0.77934 -0.19100
C 	C 	0.19868 0.85961 0.79213 0.05500
C 	C 	0.19062 0.85187 0.82891 -0.06100
O 	O 	0.27560 0.83256 0.92047 -0.20400
C 	C 	0.30953 0.83405 0.90843 0.10000
C 	C 	0.31471 0.82651 0.87078 -0.08900
H 	H 	0.29355 0.82755 0.79749 0.06900
H 	H 	0.20961 0.83999 0.90161 0.06900
H 	H 	0.17382 0.86693 0.84695 0.05800
H 	H 	0.33650 0.83466 0.85415 0.06200
C 	C 	0.25643 0.39675 0.67596 -0.05100
C 	C 	0.23704 0.38930 0.64363 0.10100
C 	C 	0.25222 0.39216 0.60783 -0.08600
C 	C 	0.28704 0.39931 0.60394 -0.00500
C 	C 	0.30734 0.40205 0.63640 0.07000
C 	C 	0.29169 0.40160 0.67218 -0.05300
N 	N 	0.20428 0.37850 0.64686 -0.19900
H 	H 	0.23691 0.38879 0.58292 0.05500
C 	C 	0.30118 0.40697 0.56608 -0.00500
N 	N 	0.34175 0.40492 0.63339 -0.19400
H 	H 	0.30684 0.40597 0.69703 0.05100
C 	C 	0.30996 0.44058 0.55763 -0.08600
C 	C 	0.31804 0.44977 0.52054 0.10200
C 	C 	0.31420 0.42561 0.49106 -0.05100
C 	C 	0.30815 0.39145 0.49988 -0.05200
C 	C 	0.30249 0.38177 0.53734 0.07000
H 	H 	0.31037 0.45964 0.57995 0.05600
N 	N 	0.33035 0.48137 0.51353 -0.19900
H 	H 	0.30670 0.37255 0.47748 0.05100
N 	N 	0.29839 0.34836 0.54553 -0.19400
H 	H 	0.33149 0.49963 0.53511 0.08600
H 	H 	0.34085 0.48740 0.48728 0.09300
H 	H 	0.29810 0.33002 0.52400 0.08400
H 	H 	0.29685 0.34016 0.57333 0.08700
H 	H 	0.35645 0.40815 0.65744 0.08500
H 	H 	0.35433 0.40262 0.60739 0.08800
H 	H 	0.19380 0.37178 0.67289 0.09200
H 	H 	0.18960 0.37471 0.62288 0.08400
C 	C 	0.32178 0.04805 0.79090 0.00100
C 	C 	0.31803 0.01548 0.77530 -0.06300
C 	C 	0.30710 0.01218 0.73801 0.00900
C 	C 	0.30238 0.04129 0.71609 0.01100
C 	C 	0.30535 0.07384 0.73201 -0.07000
C 	C 	0.31392 0.07707 0.77005 0.01100
S 	S 	0.31227 0.05693 0.83569 -0.00500
C 	C 	0.29907 0.09685 0.83116 -0.07800
C 	C 	0.30185 0.10458 0.79281 -0.02700
S 	S 	0.27260 0.03180 0.68511 -0.04600
C 	C 	0.26432 0.99186 0.69731 -0.06800
C 	C 	0.28677 0.98420 0.72635 -0.02000
H 	H 	0.31882 0.99345 0.79324 0.04700
H 	H 	0.29645 0.09573 0.71682 0.03600
H 	H 	0.28946 0.12649 0.78099 0.03500
H 	H 	0.28310 0.96214 0.74390 0.04300
C 	C 	0.25159 0.36051 0.86589 0.11400
C 	C 	0.23631 0.34024 0.89356 -0.08600
C 	C 	0.25200 0.30943 0.90248 0.01100
C 	C 	0.27916 0.29701 0.88138 0.12000
C 	C 	0.29336 0.31650 0.85242 -0.09200
C 	C 	0.28040 0.34920 0.84680 0.02100
O 	O 	0.23309 0.38445 0.84642 -0.20400
C 	C 	0.25283 0.38562 0.81346 0.09900
C 	C 	0.28115 0.36497 0.81355 -0.08800
O 	O 	0.28156 0.26184 0.88101 -0.19100
C 	C 	0.25306 0.25431 0.90327 0.05600
C 	C 	0.23536 0.28237 0.91623 -0.06000
H 	H 	0.21160 0.34688 0.90537 0.06700
H 	H 	0.31180 0.30544 0.83289 0.06800
H 	H 	0.29412 0.35529 0.78848 0.06200
H 	H 	0.20858 0.28223 0.92399 0.05500
C 	C 	0.11378 0.02177 0.31607 -0.01300
C 	C 	0.13530 0.04581 0.29941 -0.04300
C 	C 	0.13023 0.08020 0.30846 -0.00400
C 	C 	0.10408 0.09008 0.33378 0.04400
C 	C 	0.08495 0.06582 0.35329 -0.07800
C 	C 	0.08989 0.03136 0.34413 0.02900
S 	S 	0.12599 0.98244 0.32516 0.03800
C 	C 	0.10148 0.97530 0.36303 -0.12700
C 	C 	0.08260 0.00505 0.37005 -0.03200
S 	S 	0.11426 0.12808 0.35165 -0.12600
C 	C 	0.15114 0.13316 0.32838 -0.08200
C 	C 	0.15630 0.10490 0.30475 -0.00800
H 	H 	0.15735 0.03777 0.28294 0.04500
H 	H 	0.06866 0.07328 0.37675 0.05000
H 	H 	0.06915 0.00971 0.39642 0.00900
H 	H 	0.17889 0.10129 0.28732 0.04400
C 	C 	0.32277 0.36849 0.30791 0.11400
C 	C 	0.30341 0.35183 0.28047 -0.08600
C 	C 	0.30377 0.31616 0.27899 0.01000
C 	C 	0.31975 0.29761 0.30631 0.11800
C 	C 	0.33852 0.31430 0.33424 -0.09100
C 	C 	0.34116 0.34983 0.33322 0.02000
O 	O 	0.31446 0.40098 0.32080 -0.20300
C 	C 	0.32851 0.39970 0.35661 0.09800
C 	C 	0.34486 0.36957 0.36400 -0.08700
O 	O 	0.30494 0.26614 0.31271 -0.18900
C 	C 	0.27769 0.26804 0.28808 0.05300
C 	C 	0.27739 0.29734 0.26718 -0.06000
H 	H 	0.28594 0.36606 0.26344 0.06700
H 	H 	0.34775 0.30039 0.35811 0.06800
H 	H 	0.34910 0.35993 0.39198 0.06200
H 	H 	0.25471 0.30791 0.25490 0.06000
C 	C 	0.57113 0.07561 0.28851 -0.05100
C 	C 	0.57445 0.04113 0.27744 0.10200
C 	C 	0.54818 0.01829 0.28601 -0.08900
C 	C 	0.51970 0.02900 0.30717 -0.00400
C 	C 	0.51893 0.06217 0.32299 0.07000
C 	C 	0.54447 0.08545 0.31295 -0.05300
N 	N 	0.60297 0.02979 0.25917 -0.19900
H 	H 	0.54951 0.99234 0.27547 0.05600
C 	C 	0.48949 0.00664 0.30896 -0.00700
N 	N 	0.49345 0.07197 0.34707 -0.19400
H 	H 	0.54277 0.11158 0.32284 0.05100
C 	C 	0.48945 0.97912 0.33359 -0.08400
C 	C 	0.46318 0.95495 0.33282 0.10200
C 	C 	0.43566 0.95944 0.30808 -0.04800
C 	C 	0.43504 0.98774 0.28459 -0.05000
C 	C 	0.46200 0.01105 0.28417 0.07100
H 	H 	0.51058 0.97583 0.35247 0.05400
N 	N 	0.46511 0.92710 0.35496 -0.19900
H 	H 	0.41381 0.99121 0.26588 0.05000
N 	N 	0.46157 0.03722 0.25953 -0.19400
H 	H 	0.48514 0.92447 0.37371 0.08700
H 	H 	0.44748 0.90736 0.35308 0.09600
H 	H 	0.44097 0.04039 0.24166 0.08600
H 	H 	0.48171 0.05439 0.25741 0.09200
H 	H 	0.49242 0.09687 0.35761 0.08700
H 	H 	0.47506 0.05477 0.35642 0.09100
H 	H 	0.62446 0.04520 0.25641 0.08700
H 	H 	0.60455 0.00469 0.24936 0.08200
C 	C 	0.40775 0.90938 0.92449 -0.05000
C 	C 	0.40739 0.94409 0.93541 0.10300
C 	C 	0.43500 0.96491 0.92553 -0.08500
C 	C 	0.46211 0.95208 0.90357 -0.00500
C 	C 	0.46109 0.91811 0.89003 0.07000
C 	C 	0.43401 0.89695 0.90100 -0.05200
N 	N 	0.38043 0.95765 0.95478 -0.19900
H 	H 	0.43546 0.99118 0.93509 0.05800
C 	C 	0.49241 0.97378 0.89722 -0.00300
N 	N 	0.48586 0.90575 0.86647 -0.19400
H 	H 	0.43379 0.87055 0.89191 0.04900
C 	C 	0.52087 0.96947 0.91996 -0.08700
C 	C 	0.54788 0.99277 0.91885 0.10500
C 	C 	0.54547 0.02179 0.89597 -0.05000
C 	C 	0.51817 0.02479 0.87126 -0.05100
C 	C 	0.49175 0.00076 0.87131 0.06900
H 	H 	0.52181 0.94813 0.93889 0.05700
N 	N 	0.57623 0.98689 0.93924 -0.19800
H 	H 	0.51689 0.04649 0.85286 0.05200
N 	N 	0.46591 0.00372 0.84655 -0.19500
H 	H 	0.57726 0.96618 0.95727 0.08800
H 	H 	0.59803 0.00181 0.93606 0.09500
H 	H 	0.46510 0.02428 0.82827 0.08700
H 	H 	0.44703 0.98518 0.84434 0.09100
H 	H 	0.48535 0.88040 0.85736 0.08600
H 	H 	0.50529 0.92130 0.85616 0.09000
H 	H 	0.35820 0.94371 0.95951 0.09700
H 	H 	0.38093 0.98297 0.96396 0.08900
C 	C 	0.61604 0.12877 0.17430 -0.04800
C 	C 	0.62665 0.09971 0.15340 0.10000
C 	C 	0.62310 0.09909 0.11419 -0.08500
C 	C 	0.61163 0.12783 0.09531 -0.00600
C 	C 	0.60401 0.15798 0.11592 0.07100
C 	C 	0.60570 0.15794 0.15538 -0.05200
N 	N 	0.64116 0.07284 0.17066 -0.19800
H 	H 	0.62974 0.07631 0.09823 0.05400
C 	C 	0.60627 0.12546 0.05419 -0.00500
N 	N 	0.59536 0.18700 0.09806 -0.19400
H 	H 	0.59845 0.18050 0.17141 0.05300
C 	C 	0.57306 0.12191 0.04084 -0.08400
C 	C 	0.56730 0.11514 0.00258 0.09400
C 	C 	0.59538 0.10912 0.97796 -0.04600
C 	C 	0.62852 0.11458 0.99088 -0.04900
C 	C 	0.63419 0.12349 0.02865 0.06500
H 	H 	0.55165 0.12454 0.06026 0.05500
N 	N 	0.53499 0.11553 0.98947 -0.19300
H 	H 	0.65001 0.11113 0.97172 0.05100
N 	N 	0.66637 0.13020 0.04017 -0.19400
H 	H 	0.51431 0.11827 0.00811 0.08400
H 	H 	0.53019 0.11524 0.96065 0.09500
H 	H 	0.68698 0.12759 0.02142 0.08200
H 	H 	0.67114 0.13922 0.06735 0.08700
H 	H 	0.58891 0.20887 0.11355 0.08600
H 	H 	0.59592 0.18848 0.06874 0.08900
H 	H 	0.64835 0.07432 0.19879 0.08800
H 	H 	0.64725 0.05077 0.15534 0.08200
C 	C 	0.01248 0.33813 0.38635 0.00300
C 	C 	0.04490 0.34371 0.37092 -0.06100
C 	C 	0.07318 0.33257 0.39091 0.00900
C 	C 	0.06863 0.31490 0.42478 0.01400
C 	C 	0.03613 0.30592 0.43781 -0.07000
C 	C 	0.00787 0.31845 0.41880 0.01300
S 	S 	0.97750 0.33456 0.36090 -0.02000
C 	C 	0.95481 0.31057 0.39047 -0.08400
C 	C 	0.97526 0.30314 0.42122 -0.02100
S 	S 	0.10304 0.29125 0.43086 -0.06200
C 	C 	0.12541 0.30358 0.39307 -0.07700
C 	C 	0.10527 0.32651 0.37336 -0.01800
H 	H 	0.04791 0.35386 0.34286 0.04200
H 	H 	0.03296 0.28761 0.46010 0.03900
H 	H 	0.96920 0.28315 0.44089 0.04500
H 	H 	0.11093 0.33376 0.34462 0.04700
C 	C 	0.01144 0.12352 0.42402 0.00700
C 	C 	0.04022 0.10827 0.43909 -0.06700
C 	C 	0.03518 0.08135 0.46407 0.01200
C 	C 	0.00216 0.07307 0.47679 -0.00200
C 	C 	0.97344 0.08877 0.46200 -0.05700
C 	C 	0.97852 0.11484 0.43615 0.01300
S 	S 	0.01018 0.16212 0.40572 -0.04800
C 	C 	0.96829 0.16877 0.41168 -0.06500
C 	C 	0.95398 0.14000 0.42851 -0.02600
S 	S 	0.00278 0.03322 0.49108 0.01000
C 	C 	0.04413 0.02516 0.48351 -0.07600
C 	C 	0.05885 0.05440 0.46796 -0.02900
H 	H 	0.06557 0.11587 0.43028 0.02200
H 	H 	0.94804 0.08123 0.47073 0.04200
H 	H 	0.92722 0.13758 0.43568 0.04400
H 	H 	0.08353 0.05419 0.45393 0.03700
C 	C 	0.69063 0.20583 0.30851 0.11600
C 	C 	0.70824 0.23651 0.31239 -0.08900
C 	C 	0.72633 0.24230 0.34572 0.01300
C 	C 	0.72741 0.21812 0.37366 0.11600
C 	C 	0.70820 0.18818 0.37025 -0.09000
C 	C 	0.69127 0.18227 0.33644 0.01700
O 	O 	0.66514 0.20059 0.28247 -0.20400
C 	C 	0.65035 0.17147 0.29804 0.09600
C 	C 	0.66506 0.16122 0.33113 -0.08700
O 	O 	0.75693 0.21927 0.39462 -0.18800
C 	C 	0.77416 0.24510 0.37562 0.05300
C 	C 	0.75577 0.25948 0.34712 -0.06200
H 	H 	0.70842 0.25495 0.29004 0.06600
H 	H 	0.70859 0.16915 0.39197 0.06600
H 	H 	0.66210 0.13653 0.34388 0.05900
H 	H 	0.76703 0.27263 0.32338 0.06200
C 	C 	0.04031 0.00894 0.67022 0.01700
C 	C 	0.01818 0.02978 0.69134 -0.06900
C 	C 	0.99206 0.01425 0.71217 0.01900
C 	C 	0.98941 0.97865 0.71300 -0.00000
C 	C 	0.01463 0.95796 0.69649 -0.05300
C 	C 	0.03976 0.97344 0.67404 0.01300
S 	S 	0.07951 0.02008 0.65735 -0.06500
C 	C 	0.09659 0.98123 0.65398 -0.07700
C 	C 	0.07140 0.95782 0.66485 -0.01800
S 	S 	0.96666 0.96846 0.75117 0.03100
C 	C 	0.95944 0.00787 0.76741 -0.09000
C 	C 	0.97446 0.03068 0.74233 -0.02300
H 	H 	0.02259 0.05690 0.69362 0.04000
H 	H 	0.01598 0.93117 0.70289 0.05100
H 	H 	0.07700 0.93168 0.67155 0.05000
H 	H 	0.97319 0.05798 0.74590 0.03400
C 	C 	0.05592 0.12372 0.88370 -0.00900
C 	C 	0.02199 0.13375 0.88850 -0.06600
C 	C 	0.00195 0.13593 0.85632 0.00200
C 	C 	0.01646 0.13073 0.82036 -0.00200
C 	C 	0.05027 0.12019 0.81559 -0.06100
C 	C 	0.07034 0.11801 0.84777 0.00800
S 	S 	0.08707 0.13330 0.91310 0.02100
C 	C 	0.11962 0.12826 0.88259 -0.12800
C 	C 	0.10634 0.12039 0.84710 -0.03100
S 	S 	0.98527 0.12183 0.79078 -0.00000
C 	C 	0.95263 0.12608 0.82128 -0.10300
C 	C 	0.96600 0.13317 0.85696 -0.04100
H 	H 	0.01130 0.13868 0.91631 0.02900
H 	H 	0.06084 0.11481 0.78782 0.02900
H 	H 	0.12132 0.12127 0.82129 -0.01100
H 	H 	0.95112 0.13136 0.88277 0.00000
C 	C 	0.72636 0.13283 0.79510 0.11900
C 	C 	0.70062 0.14689 0.81813 -0.09200
C 	C 	0.66820 0.13198 0.81740 0.02100
C 	C 	0.66264 0.10160 0.79860 0.11300
C 	C 	0.68893 0.08657 0.77707 -0.08500
C 	C 	0.71996 0.10407 0.77365 0.01000
O 	O 	0.76056 0.13775 0.80283 -0.18800
C 	C 	0.77402 0.10904 0.78458 0.05400
C 	C 	0.75012 0.08895 0.76701 -0.05900
O 	O 	0.63617 0.08249 0.81383 -0.20300
C 	C 	0.62700 0.10384 0.84402 0.09900
C 	C 	0.64576 0.13342 0.84619 -0.08800
H 	H 	0.70642 0.16692 0.83824 0.06900
H 	H 	0.68621 0.06098 0.76595 0.06700
H 	H 	0.75330 0.06204 0.76112 0.05900
H 	H 	0.64922 0.14837 0.87170 0.06300
C 	C 	0.14942 0.63888 0.38767 -0.04800
C 	C 	0.14391 0.61036 0.36368 0.10000
C 	C 	0.16872 0.58474 0.36104 -0.08500
C 	C 	0.19755 0.58595 0.38377 -0.00500
C 	C 	0.20389 0.61522 0.40617 0.07200
C 	C 	0.17996 0.64165 0.40735 -0.05200
N 	N 	0.11450 0.60675 0.34430 -0.19900
H 	H 	0.16441 0.56264 0.34320 0.05600
C 	C 	0.21857 0.55496 0.38731 -0.00500
N 	N 	0.23247 0.61782 0.42716 -0.19400
H 	H 	0.18445 0.66384 0.42502 0.05200
C 	C 	0.24917 0.55225 0.36668 -0.08600
C 	C 	0.27195 0.52555 0.37320 0.10100
C 	C 	0.26231 0.49938 0.39829 -0.04700
C 	C 	0.23069 0.50106 0.41706 -0.05200
C 	C 	0.20905 0.52896 0.41254 0.07200
H 	H 	0.25622 0.57210 0.34718 0.05600
N 	N 	0.30340 0.52606 0.35668 -0.19900
H 	H 	0.22322 0.48090 0.43597 0.05200
N 	N 	0.17942 0.53079 0.43281 -0.19400
H 	H 	0.30960 0.54458 0.33693 0.08800
H 	H 	0.32254 0.50943 0.36468 0.09600
H 	H 	0.17260 0.51136 0.45120 0.08500
H 	H 	0.16301 0.55148 0.43086 0.09000
H 	H 	0.23664 0.63934 0.44402 0.08600
H 	H 	0.25093 0.59880 0.42679 0.08900
H 	H 	0.09456 0.62406 0.34735 0.09500
H 	H 	0.11100 0.58583 0.32635 0.08700
C 	C 	0.06373 0.60217 0.76762 -0.05100
C 	C 	0.09500 0.60010 0.78689 0.10100
C 	C 	0.11200 0.56884 0.78821 -0.08500
C 	C 	0.09966 0.54045 0.76852 -0.00500
C 	C 	0.06729 0.54185 0.75173 0.07000
C 	C 	0.04944 0.57269 0.75191 -0.05200
N 	N 	0.10950 0.62813 0.80278 -0.20000
H 	H 	0.13631 0.56728 0.80211 0.05700
C 	C 	0.12298 0.51164 0.76072 -0.00500
N 	N 	0.05361 0.51399 0.73468 -0.19400
H 	H 	0.02508 0.57415 0.73809 0.04900
C 	C 	0.12076 0.48264 0.78307 -0.08700
C 	C 	0.14319 0.45531 0.77700 0.10300
C 	C 	0.17071 0.45882 0.75109 -0.04900
C 	C 	0.17261 0.48768 0.72840 -0.05300
C 	C 	0.14845 0.51370 0.73223 0.07200
H 	H 	0.10076 0.48082 0.80431 0.05600
N 	N 	0.13719 0.42538 0.79456 -0.19800
H 	H 	0.19322 0.49010 0.70797 0.05200
N 	N 	0.14984 0.54056 0.70852 -0.19400
H 	H 	0.11816 0.42365 0.81531 0.08800
H 	H 	0.14946 0.40306 0.78584 0.09700
H 	H 	0.16933 0.54230 0.68829 0.08500
H 	H 	0.13118 0.55940 0.70912 0.09000
H 	H 	0.03003 0.51549 0.72161 0.08500
H 	H 	0.06587 0.49050 0.73469 0.08800
H 	H 	0.09884 0.65222 0.80040 0.09600
H 	H 	0.13233 0.62610 0.81728 0.08800
C 	C 	0.07170 0.69246 0.47961 -0.05100
C 	C 	0.07193 0.72426 0.49893 0.10200
C 	C 	0.06055 0.72610 0.53656 -0.08700
C 	C 	0.05249 0.69649 0.55625 -0.00400
C 	C 	0.05170 0.66485 0.53686 0.07100
C 	C 	0.06078 0.66330 0.49854 -0.05200
N 	N 	0.08462 0.75261 0.48231 -0.20000
H 	H 	0.06063 0.75033 0.55144 0.05800
C 	C 	0.04882 0.69834 0.59777 -0.00500
N 	N 	0.04264 0.63586 0.55490 -0.19400
H 	H 	0.06014 0.63911 0.48359 0.04900
C 	C 	0.01613 0.69953 0.61407 -0.08600
C 	C 	0.01135 0.69457 0.65288 0.10100
C 	C 	0.04008 0.68976 0.67583 -0.04700
C 	C 	0.07286 0.69221 0.66001 -0.05200
C 	C 	0.07758 0.69591 0.62109 0.07300
H 	H 	0.99422 0.70244 0.59621 0.05600
N 	N 	0.97922 0.69360 0.66764 -0.19900
H 	H 	0.09481 0.68948 0.67784 0.05200
N 	N 	0.10971 0.69638 0.60626 -0.19400
H 	H 	0.95823 0.69683 0.65035 0.08800
H 	H 	0.97468 0.68978 0.69627 0.09900
H 	H 	0.13073 0.69415 0.62371 0.08700
H 	H 	0.11424 0.69915 0.57745 0.09200
H 	H 	0.04256 0.61258 0.54041 0.08400
H 	H 	0.03537 0.63607 0.58327 0.09000
H 	H 	0.09830 0.75132 0.45695 0.10100
H 	H 	0.08279 0.77621 0.49603 0.09100
C 	C 	0.12968 0.01540 0.06244 0.00100
C 	C 	0.14631 0.04496 0.05069 -0.06000
C 	C 	0.17339 0.04158 0.02475 0.01700
C 	C 	0.18162 0.00958 0.00913 -0.00400
C 	C 	0.16174 0.98094 0.01686 -0.05500
C 	C 	0.13636 0.98382 0.04492 0.01800
S 	S 	0.09021 0.01440 0.07982 0.00400
C 	C 	0.08108 0.97402 0.06858 -0.06900
C 	C 	0.10905 0.96046 0.04853 -0.02300
S 	S 	0.20284 0.01571 0.96891 0.01000
C 	C 	0.20459 0.05815 0.97123 -0.07100
C 	C 	0.18639 0.06900 0.00342 -0.03000
H 	H 	0.13728 0.06979 0.05972 0.04400
H 	H 	0.16461 0.95783 0.00021 0.04700
H 	H 	0.10766 0.93711 0.03213 0.04300
H 	H 	0.17863 0.09512 0.00821 0.04400
C 	C 	0.87422 0.90564 0.98755 0.00200
C 	C 	0.86565 0.91151 0.95006 -0.06100
C 	C 	0.85059 0.94265 0.94133 0.01200
C 	C 	0.84514 0.96744 0.96966 0.00700
C 	C 	0.85780 0.96322 0.00589 -0.07800
C 	C 	0.87218 0.93183 0.01484 -0.00300
S 	S 	0.90543 0.87991 0.99983 0.02800
C 	C 	0.91682 0.89951 0.03976 -0.10900
C 	C 	0.89589 0.92819 0.04429 -0.03300
S 	S 	0.84246 0.00481 0.94888 -0.02600
C 	C 	0.84607 0.99136 0.90419 -0.07000
C 	C 	0.85111 0.95615 0.90442 -0.02900
H 	H 	0.87306 0.89365 0.92796 0.04900
H 	H 	0.85911 0.98457 0.02539 0.02000
H 	H 	0.90150 0.94860 0.06401 -0.01500
H 	H 	0.86031 0.94195 0.88000 0.04200
C 	C 	0.01532 0.01165 0.87790 -0.04800
C 	C 	0.01778 0.00271 0.83970 -0.06300
C 	C 	0.04639 0.01343 0.81910 0.00100
C 	C 	0.07184 0.03276 0.83675 0.02300
C 	C 	0.07183 0.03697 0.87593 -0.07200
C 	C 	0.04328 0.02606 0.89658 0.01500
S 	S 	0.99423 0.98835 0.90894 -0.07400
C 	C 	0.01858 0.99507 0.94633 -0.11000
C 	C 	0.04510 0.01666 0.93499 -0.03500
S 	S 	0.10718 0.02839 0.81107 -0.11800
C 	C 	0.09217 0.00307 0.77712 -0.10100
C 	C 	0.05792 0.99651 0.78571 -0.00700
H 	H 	0.00028 0.98447 0.82771 0.05000
H 	H 	0.09449 0.04566 0.89015 0.02900
H 	H 	0.06785 0.02030 0.95143 0.03400
H 	H 	0.04388 0.97601 0.77255 0.04300
C 	C 	0.00480 0.75797 0.83673 0.11500
C 	C 	0.00565 0.79340 0.84077 -0.08700
C 	C 	0.02516 0.80746 0.86980 0.01400
C 	C 	0.04144 0.78733 0.89538 0.11800
C 	C 	0.04031 0.75188 0.89154 -0.09100
C 	C 	0.02067 0.73778 0.86258 0.02100
O 	O 	0.99967 0.74209 0.80214 -0.20200
C 	C 	0.01454 0.71069 0.80951 0.09800
C 	C 	0.02702 0.70787 0.84545 -0.08600
O 	O 	0.04725 0.80337 0.92977 -0.18700
C 	C 	0.03200 0.83461 0.92260 0.05500
C 	C 	0.01883 0.83733 0.88700 -0.06200
H 	H 	0.99273 0.80947 0.82104 0.06900
H 	H 	0.05327 0.73582 0.91125 0.07000
H 	H 	0.04715 0.69066 0.85327 0.06100
H 	H 	0.99876 0.85468 0.87938 0.06300
C 	C 	0.99919 0.11654 0.29759 0.00100
C 	C 	0.00343 0.15141 0.30345 -0.06500
C 	C 	0.03000 0.16758 0.28394 -0.01800
C 	C 	0.05264 0.14854 0.26100 0.00300
C 	C 	0.05138 0.11298 0.26017 -0.06100
C 	C 	0.02373 0.09718 0.27806 0.01100
S 	S 	0.97764 0.09094 0.32598 -0.01100
C 	C 	0.99764 0.05465 0.31415 -0.08000
C 	C 	0.02272 0.06230 0.28702 -0.02500
S 	S 	0.08819 0.17091 0.25636 0.01200
C 	C 	0.07622 0.20549 0.28100 -0.09500
C 	C 	0.04318 0.19962 0.29503 -0.04300
H 	H 	0.98724 0.16531 0.32314 0.00100
H 	H 	0.07220 0.09818 0.24817 0.04800
H 	H 	0.03902 0.04338 0.27364 0.04500
H 	H 	0.03152 0.21513 0.31711 -0.01900
C 	C 	0.90156 0.06897 0.20449 0.00500
C 	C 	0.87851 0.09348 0.21789 -0.07600
C 	C 	0.89091 0.12602 0.22649 0.00200
C 	C 	0.92587 0.13311 0.22305 0.02200
C 	C 	0.94935 0.10727 0.21457 -0.07400
C 	C 	0.93680 0.07507 0.20451 0.00200
S 	S 	0.89562 0.02744 0.20863 -0.10100
C 	C 	0.93637 0.01544 0.20823 -0.09900
C 	C 	0.95643 0.04490 0.20660 -0.03400
S 	S 	0.93407 0.16645 0.25073 -0.08900
C 	C 	0.89447 0.17409 0.26632 -0.08900
C 	C 	0.87326 0.14913 0.25068 -0.01800
H 	H 	0.85230 0.08678 0.22407 0.03200
H 	H 	0.97637 0.11157 0.21763 0.04700
H 	H 	0.98328 0.04505 0.21307 0.03700
H 	H 	0.84754 0.14460 0.26083 0.03900
C 	C 	0.95909 0.91159 0.50543 -0.00600
C 	C 	0.93852 0.93476 0.48671 -0.06400
C 	C 	0.92146 0.92381 0.45436 0.00700
C 	C 	0.92104 0.88909 0.44432 -0.00400
C 	C 	0.94232 0.86618 0.46234 -0.06500
C 	C 	0.96337 0.87832 0.49103 0.00700
S 	S 	0.99617 0.92321 0.52307 0.02400
C 	C 	0.01933 0.88913 0.51157 -0.09000
C 	C 	0.99695 0.86565 0.49520 -0.03100
S 	S 	0.91512 0.88695 0.39829 0.00900
C 	C 	0.91402 0.92822 0.38866 -0.10100
C 	C 	0.91703 0.94561 0.42317 -0.03500
H 	H 	0.94030 0.96165 0.49336 0.04500
H 	H 	0.94659 0.84111 0.45018 0.04400
H 	H 	0.00606 0.84347 0.47970 0.03400
H 	H 	0.92307 0.97245 0.42467 0.01900
C 	C 	0.01597 0.79911 0.27477 0.11500
C 	C 	0.00946 0.77353 0.30109 -0.09400
C 	C 	0.03607 0.76373 0.32428 0.01800
C 	C 	0.06863 0.77535 0.31895 0.11300
C 	C 	0.07568 0.80000 0.29191 -0.09100
C 	C 	0.04872 0.81147 0.26982 0.01100
O 	O 	0.99086 0.82188 0.26469 -0.18900
C 	C 	0.01127 0.84970 0.25551 0.04800
C 	C 	0.04576 0.84347 0.25771 -0.06200
O 	O 	0.09348 0.75467 0.33401 -0.20400
C 	C 	0.07232 0.72925 0.34860 0.09700
C 	C 	0.03812 0.73455 0.34290 -0.08800
H 	H 	0.98398 0.76370 0.30532 0.06700
H 	H 	0.10114 0.81011 0.28836 0.06700
H 	H 	0.06487 0.86299 0.26171 0.05700
H 	H 	0.01812 0.71581 0.34598 0.05800
