data_crystal

_cell_length_a 64.05217
_cell_length_b 46.90371
_cell_length_c 24.59859
_cell_angle_alpha 90.00016
_cell_angle_beta  89.99926
_cell_angle_gamma 90.00017

_symmetry_space_group_name_	'P 1'
_symmetry_space_group_name_H-M	'P 1'

loop_
_symmetry_equiv_pos_as_xyz
  x,y,z

loop_
_atom_site_label
_atom_site_type_symbol
_atom_site_fract_x
_atom_site_fract_y
_atom_site_fract_z
_atom_site_charge
Cu	Cu	0.39140 0.67934 0.09715 0.92900
Cu	Cu	0.35452 0.66334 0.18446 0.87000
Cu	Cu	0.36024 0.63092 0.08125 0.89600
Cu	Cu	0.39744 0.63222 0.00618 0.89400
C 	C 	0.43178 0.66408 0.05680 0.25500
O 	O 	0.38582 0.69986 0.02620 -0.34200
C 	C 	0.32012 0.63345 0.13744 0.25200
O 	O 	0.39013 0.63511 0.08074 -0.63800
O 	O 	0.36140 0.67104 0.10850 -0.63800
O 	O 	0.39686 0.69915 0.16701 -0.34200
O 	O 	0.38153 0.66389 0.21540 -0.42800
O 	O 	0.42329 0.65565 0.01080 -0.36100
O 	O 	0.36053 0.59142 0.05868 -0.37000
C 	C 	0.36903 0.58222 0.01314 0.24400
C 	C 	0.37500 0.68839 0.98643 0.26000
O 	O 	0.37195 0.66070 0.98522 -0.38100
O 	O 	0.38683 0.59279 0.99508 -0.36100
O 	O 	0.42119 0.68017 0.09099 -0.34200
C 	C 	0.39236 0.68755 0.21397 0.26300
O 	O 	0.33016 0.62646 0.09248 -0.36800
O 	O 	0.32603 0.65547 0.16685 -0.39600
H 	H 	0.39762 0.62194 0.10542 0.16300
H 	H 	0.35154 0.68399 0.08977 0.17700
Cu	Cu	0.60952 0.64642 0.08436 0.92800
Cu	Cu	0.65995 0.63545 0.09673 0.86600
Cu	Cu	0.63577 0.66795 0.17961 0.89600
Cu	Cu	0.58880 0.67280 0.18883 0.89800
C 	C 	0.56687 0.63455 0.11196 0.25900
O 	O 	0.59806 0.68489 0.06131 -0.35200
C 	C 	0.68042 0.67894 0.15999 0.24900
O 	O 	0.61008 0.64668 0.16999 -0.63500
O 	O 	0.63728 0.66291 0.09915 -0.64200
O 	O 	0.61887 0.61467 0.03675 -0.35700
O 	O 	0.64447 0.60071 0.09511 -0.42500
O 	O 	0.56679 0.65889 0.13857 -0.36700
O 	O 	0.63310 0.67449 0.25769 -0.36000
C 	C 	0.61600 0.68368 0.28190 0.26100
C 	C 	0.60078 0.70806 0.09078 0.24900
O 	O 	0.60470 0.70592 0.14308 -0.37300
O 	O 	0.59743 0.67516 0.26567 -0.38200
O 	O 	0.58313 0.62693 0.08244 -0.34700
C 	C 	0.63163 0.59500 0.05495 0.25900
O 	O 	0.66309 0.68633 0.18563 -0.36300
O 	O 	0.67985 0.66495 0.11343 -0.39400
H 	H 	0.60963 0.62818 0.18932 0.16800
H 	H 	0.64039 0.68086 0.07954 0.17900
Cu	Cu	0.39714 0.32616 0.73412 0.92900
Cu	Cu	0.35673 0.34462 0.65925 0.86800
Cu	Cu	0.36181 0.36681 0.76562 0.89000
Cu	Cu	0.39996 0.36681 0.83626 0.89600
C 	C 	0.43667 0.34391 0.77743 0.25500
O 	O 	0.39480 0.30023 0.79997 -0.33400
C 	C 	0.32004 0.35145 0.72309 0.25700
O 	O 	0.39190 0.36819 0.76227 -0.63800
O 	O 	0.36637 0.32961 0.72836 -0.64100
O 	O 	0.40264 0.31308 0.65802 -0.34000
O 	O 	0.38290 0.34894 0.62544 -0.42400
O 	O 	0.42750 0.34791 0.82483 -0.36700
O 	O 	0.35890 0.40407 0.79817 -0.37400
C 	C 	0.36719 0.41138 0.84519 0.26100
C 	C 	0.38279 0.30660 0.84163 0.24900
O 	O 	0.37730 0.33321 0.85014 -0.38600
O 	O 	0.38610 0.40288 0.85909 -0.37000
O 	O 	0.42692 0.33037 0.73786 -0.33300
C 	C 	0.39398 0.32604 0.61652 0.26800
O 	O 	0.33121 0.36740 0.75664 -0.36600
O 	O 	0.32865 0.33830 0.68140 -0.40800
H 	H 	0.39763 0.38436 0.74112 0.16500
H 	H 	0.35801 0.31377 0.74363 0.17900
Cu	Cu	0.61221 0.36972 0.89820 0.92700
Cu	Cu	0.65163 0.40714 0.84732 0.87100
Cu	Cu	0.64509 0.34640 0.81888 0.89600
Cu	Cu	0.61018 0.30722 0.85161 0.89600
C 	C 	0.57305 0.34092 0.88279 0.25100
O 	O 	0.61669 0.34421 0.96365 -0.35100
C 	C 	0.68654 0.37266 0.81519 0.25000
O 	O 	0.61546 0.34481 0.82737 -0.64100
O 	O 	0.64285 0.37230 0.88365 -0.63700
O 	O 	0.60554 0.41120 0.90409 -0.35300
O 	O 	0.62505 0.42211 0.83008 -0.41700
O 	O 	0.58291 0.31627 0.88658 -0.37000
O 	O 	0.64506 0.32275 0.75411 -0.36900
C 	C 	0.63425 0.29888 0.74974 0.25700
C 	C 	0.62876 0.32162 0.96140 0.25800
O 	O 	0.63386 0.31080 0.91417 -0.36200
O 	O 	0.62540 0.28697 0.79250 -0.36900
O 	O 	0.58234 0.36494 0.89728 -0.33200
C 	C 	0.61256 0.43015 0.86931 0.25900
O 	O 	0.67553 0.34887 0.81190 -0.36600
O 	O 	0.68008 0.39435 0.84485 -0.39300
H 	H 	0.60748 0.35063 0.79471 0.16300
H 	H 	0.65209 0.36659 0.91402 0.17800
Cu	Cu	0.38230 0.86966 0.52362 0.92700
Cu	Cu	0.34437 0.90669 0.58371 0.86600
Cu	Cu	0.35246 0.84535 0.60875 0.89700
Cu	Cu	0.38615 0.80678 0.56871 0.89600
C 	C 	0.42175 0.84087 0.52954 0.25100
O 	O 	0.37570 0.84451 0.45908 -0.35200
C 	C 	0.31169 0.87003 0.62464 0.24800
O 	O 	0.38166 0.84428 0.59450 -0.64300
O 	O 	0.35238 0.87204 0.54502 -0.63800
O 	O 	0.38853 0.91103 0.51508 -0.35400
O 	O 	0.37106 0.92372 0.59193 -0.41500
O 	O 	0.41177 0.81629 0.52678 -0.37200
O 	O 	0.35425 0.82125 0.67272 -0.37100
C 	C 	0.36467 0.79695 0.67464 0.25900
C 	C 	0.36467 0.82103 0.46358 0.25300
O 	O 	0.36056 0.81083 0.51191 -0.36300
O 	O 	0.37328 0.78581 0.63074 -0.36800
O 	O 	0.41210 0.86502 0.51772 -0.33300
C 	C 	0.38218 0.93073 0.54919 0.25700
O 	O 	0.32243 0.84629 0.61842 -0.35500
O 	O 	0.31626 0.89309 0.59620 -0.40100
H 	H 	0.39052 0.85001 0.62564 0.16300
H 	H 	0.34227 0.86637 0.51656 0.17800
Cu	Cu	0.59609 0.82410 0.68697 0.92800
Cu	Cu	0.63792 0.83527 0.76291 0.87400
Cu	Cu	0.63010 0.86817 0.66010 0.89700
Cu	Cu	0.59344 0.86306 0.58316 0.89500
C 	C 	0.55644 0.84079 0.64233 0.25300
O 	O 	0.59848 0.79663 0.62359 -0.33500
C 	C 	0.67232 0.85317 0.69854 0.25700
O 	O 	0.60024 0.86591 0.65756 -0.63900
O 	O 	0.62689 0.82873 0.69090 -0.63800
O 	O 	0.59044 0.81301 0.76406 -0.34100
O 	O 	0.61281 0.84624 0.79720 -0.42800
O 	O 	0.56556 0.84510 0.59483 -0.36700
O 	O 	0.63082 0.90681 0.63145 -0.35600
C 	C 	0.61874 0.91567 0.59133 0.25400
C 	C 	0.61003 0.80258 0.58101 0.25100
O 	O 	0.61592 0.82895 0.57227 -0.37800
O 	O 	0.60915 0.89738 0.55911 -0.38300
O 	O 	0.56630 0.82737 0.68200 -0.33300
C 	C 	0.59832 0.82702 0.80549 0.26000
O 	O 	0.65990 0.87306 0.67832 -0.37700
O 	O 	0.66526 0.83384 0.73268 -0.39400
H 	H 	0.59299 0.88143 0.67725 0.16400
H 	H 	0.63491 0.81424 0.67043 0.17500
Cu	Cu	0.37689 0.15279 0.34134 0.92900
Cu	Cu	0.33211 0.12333 0.30952 0.86400
Cu	Cu	0.35224 0.16558 0.23791 0.89400
Cu	Cu	0.39671 0.18744 0.24390 0.89700
C 	C 	0.42092 0.15571 0.32468 0.25700
O 	O 	0.37906 0.19379 0.36609 -0.33700
C 	C 	0.30647 0.16058 0.24293 0.25100
O 	O 	0.38047 0.15422 0.25604 -0.63500
O 	O 	0.34790 0.15843 0.31701 -0.64500
O 	O 	0.37154 0.11939 0.38886 -0.35300
O 	O 	0.35330 0.09547 0.32375 -0.41900
O 	O 	0.41782 0.18051 0.30118 -0.37200
O 	O 	0.35706 0.17471 0.16130 -0.36300
C 	C 	0.37307 0.18943 0.14248 0.26200
C 	C 	0.37228 0.21505 0.33597 0.24700
O 	O 	0.37281 0.21332 0.28261 -0.37600
O 	O 	0.39167 0.18722 0.16487 -0.38500
O 	O 	0.40584 0.14346 0.35261 -0.33400
C 	C 	0.36374 0.09556 0.36974 0.25900
O 	O 	0.32296 0.17448 0.22425 -0.36500
O 	O 	0.30760 0.14416 0.28656 -0.39400
H 	H 	0.38538 0.13682 0.23717 0.16200
H 	H 	0.34012 0.17385 0.33561 0.18300
Cu	Cu	0.60167 0.17648 0.33267 0.92900
Cu	Cu	0.64211 0.16405 0.25278 0.86900
Cu	Cu	0.63659 0.13256 0.35164 0.89000
Cu	Cu	0.59883 0.12923 0.42376 0.89600
C 	C 	0.56253 0.15504 0.37006 0.25500
O 	O 	0.60437 0.19762 0.40431 -0.33400
C 	C 	0.67841 0.15085 0.31363 0.25700
O 	O 	0.60649 0.13266 0.34961 -0.63800
O 	O 	0.63241 0.17267 0.32575 -0.63800
O 	O 	0.59591 0.19633 0.26234 -0.33000
O 	O 	0.61636 0.16557 0.21621 -0.42800
O 	O 	0.57128 0.14853 0.41690 -0.37300
O 	O 	0.63894 0.09258 0.37217 -0.37100
C 	C 	0.62562 0.07883 0.40371 0.25800
C 	C 	0.61648 0.18826 0.44354 0.25200
O 	O 	0.62176 0.16126 0.44517 -0.38500
O 	O 	0.61319 0.09250 0.43758 -0.37500
O 	O 	0.57193 0.17236 0.33569 -0.33200
C 	C 	0.60573 0.18935 0.21755 0.26600
O 	O 	0.66717 0.13175 0.34039 -0.37600
O 	O 	0.66991 0.16815 0.27781 -0.39900
H 	H 	0.60023 0.11835 0.32490 0.16300
H 	H 	0.64088 0.18687 0.34577 0.18400
Cu	Cu	0.11071 0.88260 0.84096 0.92800
Cu	Cu	0.15567 0.91438 0.81748 0.87500
Cu	Cu	0.14445 0.85896 0.76504 0.89700
Cu	Cu	0.10441 0.82603 0.77459 0.89600
C 	C 	0.06971 0.86445 0.80797 0.25500
O 	O 	0.10897 0.85189 0.89880 -0.33600
C 	C 	0.18794 0.87427 0.79386 0.25600
O 	O 	0.11481 0.86317 0.76438 -0.64100
O 	O 	0.14152 0.87930 0.83638 -0.63900
O 	O 	0.10864 0.92436 0.85450 -0.35800
O 	O 	0.13265 0.93527 0.78970 -0.41400
O 	O 	0.07678 0.83803 0.80429 -0.36900
O 	O 	0.14504 0.84055 0.69452 -0.36900
C 	C 	0.13409 0.81765 0.68174 0.26000
C 	C 	0.11770 0.82684 0.89187 0.25300
O 	O 	0.12470 0.81974 0.84375 -0.38100
O 	O 	0.12008 0.80664 0.71514 -0.37500
O 	O 	0.08106 0.88479 0.83061 -0.33500
C 	C 	0.11744 0.94309 0.82210 0.25600
O 	O 	0.17504 0.86212 0.75877 -0.37700
O 	O 	0.18176 0.89516 0.82586 -0.39300
H 	H 	0.10925 0.87324 0.73208 0.16500
H 	H 	0.14814 0.86895 0.86693 0.17600
Cu	Cu	0.88786 0.85546 0.75335 0.92800
Cu	Cu	0.84343 0.85735 0.68676 0.87500
Cu	Cu	0.85157 0.89481 0.78338 0.89600
Cu	Cu	0.89244 0.90131 0.84633 0.89700
C 	C 	0.92775 0.87915 0.78087 0.25600
O 	O 	0.88992 0.83277 0.82344 -0.33600
C 	C 	0.80988 0.87124 0.75833 0.25700
O 	O 	0.88144 0.89809 0.77530 -0.63500
O 	O 	0.85715 0.85532 0.75659 -0.64300
O 	O 	0.89092 0.84050 0.67800 -0.35900
O 	O 	0.86608 0.86994 0.64323 -0.41300
O 	O 	0.92046 0.88483 0.82989 -0.37100
O 	O 	0.84778 0.93282 0.81316 -0.36500
C 	C 	0.85738 0.94211 0.85723 0.25700
C 	C 	0.87930 0.84003 0.86710 0.24700
O 	O 	0.87270 0.86638 0.87296 -0.38100
O 	O 	0.87741 0.93705 0.86519 -0.37000
O 	O 	0.91715 0.86279 0.74713 -0.33800
C 	C 	0.88238 0.85344 0.63614 0.25600
O 	O 	0.82097 0.89350 0.77442 -0.36600
O 	O 	0.81742 0.85264 0.72325 -0.40500
H 	H 	0.88593 0.91321 0.74976 0.16600
H 	H 	0.85119 0.84044 0.78058 0.17300
Cu	Cu	0.10175 0.16156 0.03918 0.92600
Cu	Cu	0.15133 0.14387 0.04392 0.86500
Cu	Cu	0.13115 0.17941 0.13094 0.89500
Cu	Cu	0.08483 0.18894 0.14765 0.89700
C 	C 	0.05984 0.15247 0.07543 0.25600
O 	O 	0.09204 0.20141 0.01981 -0.33900
C 	C 	0.17594 0.18256 0.10816 0.24600
O 	O 	0.10420 0.16088 0.12476 -0.63600
O 	O 	0.13080 0.17442 0.05026 -0.64100
O 	O 	0.10790 0.13054 0.98685 -0.34200
O 	O 	0.13353 0.11134 0.03936 -0.42300
O 	O 	0.06115 0.17706 0.10090 -0.36900
O 	O 	0.13062 0.18608 0.20938 -0.36100
C 	C 	0.11449 0.19623 0.23657 0.26100
C 	C 	0.09719 0.22387 0.04896 0.24700
O 	O 	0.10159 0.22099 0.10089 -0.37800
O 	O 	0.09527 0.18932 0.22297 -0.38500
O 	O 	0.07435 0.14483 0.04038 -0.33600
C 	C 	0.11980 0.10890 0.00004 0.24600
O 	O 	0.15968 0.19401 0.13299 -0.36600
O 	O 	0.17383 0.16963 0.06082 -0.39300
H 	H 	0.10318 0.14228 0.14361 0.16300
H 	H 	0.13471 0.19194 0.03026 0.17300
Cu	Cu	0.88331 0.18964 0.13789 0.92800
Cu	Cu	0.84433 0.18603 0.22522 0.87300
Cu	Cu	0.84589 0.14949 0.12537 0.89600
Cu	Cu	0.88071 0.14530 0.04192 0.89700
C 	C 	0.92033 0.16766 0.08738 0.25500
O 	O 	0.87995 0.21305 0.06916 -0.35100
C 	C 	0.80620 0.16906 0.17603 0.25800
O 	O 	0.87572 0.14722 0.11770 -0.63600
O 	O 	0.85274 0.18913 0.15010 -0.64100
O 	O 	0.89234 0.20540 0.20967 -0.34000
O 	O 	0.87035 0.17644 0.25594 -0.42900
O 	O 	0.90918 0.16268 0.04326 -0.37300
O 	O 	0.84125 0.11100 0.09924 -0.36700
C 	C 	0.84679 0.10187 0.05056 0.26000
C 	C 	0.86617 0.20646 0.03148 0.24200
O 	O 	0.85917 0.18023 0.02788 -0.36700
O 	O 	0.86470 0.10956 0.02826 -0.37100
O 	O 	0.91249 0.18241 0.12824 -0.33600
C 	C 	0.88517 0.19566 0.25607 0.26100
O 	O 	0.81638 0.14892 0.14920 -0.36400
O 	O 	0.81615 0.18939 0.20234 -0.41100
H 	H 	0.88232 0.13183 0.13926 0.16700
H 	H 	0.84490 0.20394 0.12995 0.17400
Cu	Cu	0.11043 0.68399 0.27789 0.92800
Cu	Cu	0.14753 0.67385 0.18745 0.87500
Cu	Cu	0.14506 0.63910 0.29065 0.89600
Cu	Cu	0.11038 0.63991 0.37416 0.89300
C 	C 	0.07205 0.66539 0.32716 0.25600
O 	O 	0.11555 0.70779 0.34493 -0.34000
C 	C 	0.18400 0.64764 0.22885 0.25000
O 	O 	0.11520 0.64078 0.29818 -0.63900
O 	O 	0.14084 0.67924 0.26395 -0.63600
O 	O 	0.10185 0.70110 0.20736 -0.35400
O 	O 	0.12041 0.66882 0.15942 -0.41700
O 	O 	0.08231 0.65844 0.37182 -0.37500
O 	O 	0.14696 0.59946 0.31352 -0.35900
C 	C 	0.13529 0.58806 0.35207 0.25600
C 	C 	0.12846 0.69971 0.38330 0.25200
O 	O 	0.13374 0.67278 0.38746 -0.37900
O 	O 	0.12594 0.60408 0.38883 -0.37900
O 	O 	0.08096 0.68091 0.28888 -0.33600
C 	C 	0.10754 0.69042 0.16043 0.26200
O 	O 	0.17499 0.63648 0.27233 -0.36400
O 	O 	0.17627 0.67038 0.20504 -0.39500
H 	H 	0.10750 0.62623 0.27700 0.16300
H 	H 	0.14996 0.69327 0.28239 0.17600
Cu	Cu	0.88455 0.66648 0.34810 0.92700
Cu	Cu	0.83607 0.64456 0.32559 0.87200
Cu	Cu	0.85769 0.68793 0.25344 0.89700
Cu	Cu	0.90179 0.71127 0.26332 0.89700
C 	C 	0.92820 0.67114 0.32471 0.25500
O 	O 	0.88855 0.70325 0.39056 -0.33500
C 	C 	0.81213 0.68760 0.27240 0.25500
O 	O 	0.88628 0.67706 0.26485 -0.63600
O 	O 	0.85513 0.67632 0.33163 -0.64000
O 	O 	0.88001 0.62762 0.37926 -0.34700
O 	O 	0.85599 0.61508 0.31519 -0.42500
O 	O 	0.92474 0.69791 0.31125 -0.36600
O 	O 	0.86204 0.70072 0.17925 -0.36600
C 	C 	0.87554 0.72066 0.16519 0.25900
C 	C 	0.88326 0.72831 0.37076 0.24700
O 	O 	0.87971 0.73102 0.31841 -0.37800
O 	O 	0.89424 0.72207 0.18768 -0.37800
O 	O 	0.91364 0.65603 0.34948 -0.33300
C 	C 	0.86896 0.60799 0.35423 0.25700
O 	O 	0.82762 0.68963 0.23709 -0.38000
O 	O 	0.81368 0.67125 0.31580 -0.39400
H 	H 	0.89132 0.66211 0.23964 0.16500
H 	H 	0.84943 0.69182 0.35457 0.17200
Cu	Cu	0.10496 0.33705 0.64332 0.92800
Cu	Cu	0.14775 0.34462 0.71767 0.87700
Cu	Cu	0.14047 0.37854 0.61505 0.89700
Cu	Cu	0.10350 0.37541 0.53866 0.89600
C 	C 	0.06580 0.35532 0.59788 0.25500
O 	O 	0.10604 0.30925 0.58013 -0.33600
C 	C 	0.18221 0.36048 0.65155 0.25700
O 	O 	0.11054 0.37827 0.61293 -0.63800
O 	O 	0.13590 0.33939 0.64618 -0.63700
O 	O 	0.09929 0.32668 0.72079 -0.35400
O 	O 	0.12344 0.35777 0.75328 -0.41500
O 	O 	0.07529 0.35837 0.55051 -0.37000
O 	O 	0.14249 0.41695 0.58567 -0.36500
C 	C 	0.13031 0.42657 0.54633 0.25500
C 	C 	0.11784 0.31408 0.53745 0.25000
O 	O 	0.12479 0.33994 0.52828 -0.37900
O 	O 	0.12003 0.40895 0.51424 -0.37300
O 	O 	0.07530 0.34277 0.63922 -0.33400
C 	C 	0.10795 0.34013 0.76195 0.25700
O 	O 	0.17040 0.38151 0.63327 -0.37800
O 	O 	0.17478 0.34138 0.68567 -0.39300
H 	H 	0.10389 0.39438 0.63235 0.16700
H 	H 	0.14319 0.32435 0.62530 0.17500
Cu	Cu	0.88430 0.38751 0.56541 0.92700
Cu	Cu	0.83632 0.41136 0.57826 0.87100
Cu	Cu	0.85188 0.35997 0.64047 0.89600
Cu	Cu	0.89607 0.34005 0.65076 0.89600
C 	C 	0.92598 0.38209 0.60686 0.25600
O 	O 	0.89096 0.35213 0.52117 -0.35100
C 	C 	0.80759 0.36993 0.61772 0.24800
O 	O 	0.88013 0.37388 0.64650 -0.63800
O 	O 	0.85411 0.37817 0.56691 -0.63700
O 	O 	0.88213 0.42716 0.53648 -0.35700
O 	O 	0.85681 0.43879 0.59694 -0.41800
O 	O 	0.92192 0.35501 0.61630 -0.37100
O 	O 	0.85058 0.34448 0.71375 -0.36500
C 	C 	0.86424 0.32663 0.73520 0.26100
C 	C 	0.88409 0.32662 0.53468 0.24900
O 	O 	0.87805 0.32158 0.58481 -0.37400
O 	O 	0.88408 0.32688 0.72072 -0.37400
O 	O 	0.91292 0.39783 0.57828 -0.33900
C 	C 	0.87078 0.44656 0.56104 0.25800
O 	O 	0.82181 0.35186 0.63580 -0.35200
O 	O 	0.81196 0.38781 0.57802 -0.40300
H 	H 	0.88243 0.38772 0.67630 0.16800
H 	H 	0.84930 0.36560 0.53709 0.17500
C 	C 	0.97924 0.39521 0.58969 0.11500
C 	C 	0.99615 0.38888 0.55549 -0.08600
C 	C 	0.01176 0.37072 0.57534 0.01100
C 	C 	0.01189 0.36146 0.62837 0.11700
C 	C 	0.99537 0.36843 0.66323 -0.08800
C 	C 	0.97927 0.38584 0.64300 0.01400
O 	O 	0.95940 0.40043 0.56909 -0.18300
C 	C 	0.94750 0.39208 0.61396 0.04700
C 	C 	0.95923 0.38381 0.65836 -0.06200
O 	O 	0.03149 0.35339 0.64726 -0.18400
C 	C 	0.04304 0.35914 0.60025 0.04600
C 	C 	0.03146 0.36955 0.55728 -0.05700
H 	H 	0.99640 0.39627 0.51377 0.06800
H 	H 	0.99511 0.36074 0.70474 0.06800
H 	H 	0.95365 0.36971 0.69013 0.04900
H 	H 	0.03765 0.38179 0.52355 0.05300
C 	C 	0.86070 0.51334 0.50074 0.11900
C 	C 	0.84872 0.52845 0.46265 -0.09200
C 	C 	0.85911 0.54161 0.41913 0.00900
C 	C 	0.88059 0.54209 0.41607 0.11600
C 	C 	0.89258 0.52658 0.45349 -0.08500
C 	C 	0.88217 0.51286 0.49641 0.01000
O 	O 	0.85252 0.49075 0.53044 -0.20900
C 	C 	0.87105 0.47617 0.54168 0.03700
C 	C 	0.88880 0.48910 0.52152 -0.05500
O 	O 	0.88853 0.56524 0.38743 -0.18300
C 	C 	0.86969 0.57839 0.37333 0.03600
C 	C 	0.85212 0.56457 0.39220 -0.06100
H 	H 	0.83185 0.52893 0.46561 0.06000
H 	H 	0.90945 0.52609 0.45046 0.07000
H 	H 	0.90333 0.47818 0.51269 0.06300
H 	H 	0.83721 0.57481 0.39952 0.03200
C 	C 	0.14577 0.52111 0.40721 0.11500
C 	C 	0.15573 0.50707 0.45047 -0.08400
C 	C 	0.14321 0.49365 0.48977 0.00800
C 	C 	0.12181 0.49262 0.48474 0.12100
C 	C 	0.11194 0.50601 0.44085 -0.09100
C 	C 	0.12439 0.51928 0.40138 0.01500
O 	O 	0.15453 0.54472 0.38178 -0.18500
C 	C 	0.13632 0.55728 0.36147 0.04400
C 	C 	0.11840 0.54200 0.37231 -0.06400
O 	O 	0.11266 0.47001 0.51209 -0.19900
C 	C 	0.13063 0.45689 0.53236 0.04300
C 	C 	0.14895 0.47091 0.51950 -0.05400
H 	H 	0.17255 0.50775 0.45472 0.06800
H 	H 	0.09511 0.50535 0.43670 0.06500
H 	H 	0.10291 0.55129 0.37410 0.04600
H 	H 	0.16411 0.46071 0.51695 0.05700
C 	C 	0.01859 0.67246 0.30021 0.12000
C 	C 	0.00005 0.67116 0.27000 -0.08900
C 	C 	0.98128 0.67080 0.29916 0.01300
C 	C 	0.98069 0.66785 0.35436 0.11800
C 	C 	0.99926 0.66598 0.38439 -0.08600
C 	C 	0.01805 0.67065 0.35610 0.01100
O 	O 	0.03808 0.66723 0.27781 -0.18700
C 	C 	0.04925 0.66218 0.32581 0.04200
C 	C 	0.03716 0.66289 0.37247 -0.05700
O 	O 	0.96110 0.66100 0.37469 -0.18000
C 	C 	0.94985 0.66114 0.32556 0.04700
C 	C 	0.96228 0.66505 0.27999 -0.06200
H 	H 	0.00029 0.66976 0.22606 0.06800
H 	H 	0.99913 0.66071 0.42725 0.07000
H 	H 	0.04298 0.66457 0.41370 0.05800
H 	H 	0.95666 0.67162 0.24037 0.04400
C 	C 	0.88512 0.26215 0.45930 0.11300
C 	C 	0.87497 0.23931 0.43340 -0.08500
C 	C 	0.87984 0.23410 0.37871 0.00200
C 	C 	0.89484 0.24930 0.35166 0.11600
C 	C 	0.90528 0.27176 0.37740 -0.08900
C 	C 	0.90042 0.27734 0.43207 0.01300
O 	O 	0.87610 0.27698 0.50235 -0.19200
C 	C 	0.88691 0.30271 0.49680 0.04300
C 	C 	0.90149 0.30304 0.45558 -0.05900
O 	O 	0.90215 0.23617 0.30480 -0.18300
C 	C 	0.88982 0.21146 0.30632 0.02800
C 	C 	0.87713 0.20957 0.35186 -0.05900
H 	H 	0.86306 0.22709 0.45421 0.06400
H 	H 	0.91682 0.28431 0.35587 0.06900
H 	H 	0.90792 0.32206 0.43700 0.06200
H 	H 	0.86390 0.19541 0.35666 0.03600
C 	C 	0.86190 0.23998 0.90518 0.11700
C 	C 	0.85509 0.24523 0.85183 -0.08600
C 	C 	0.86055 0.27156 0.82879 0.01000
C 	C 	0.86922 0.29303 0.85890 0.12000
C 	C 	0.87399 0.28882 0.91391 -0.08700
C 	C 	0.87162 0.26111 0.93449 0.01000
O 	O 	0.85483 0.21733 0.93656 -0.19000
C 	C 	0.86164 0.22687 0.98767 0.04600
C 	C 	0.87060 0.25375 0.98685 -0.05200
O 	O 	0.86828 0.31959 0.83438 -0.18900
C 	C 	0.85872 0.31164 0.78527 0.04700
C 	C 	0.85286 0.28318 0.78337 -0.05800
H 	H 	0.84570 0.22984 0.82994 0.06900
H 	H 	0.87895 0.30632 0.93955 0.06900
H 	H 	0.87992 0.26307 0.01902 0.05500
H 	H 	0.84947 0.27139 0.74653 0.05300
C 	C 	0.10647 0.26613 0.43321 0.11600
C 	C 	0.09803 0.24210 0.40743 -0.08600
C 	C 	0.10541 0.23566 0.35519 0.00800
C 	C 	0.12249 0.24911 0.33336 0.11700
C 	C 	0.13234 0.27129 0.36179 -0.08800
C 	C 	0.12271 0.28082 0.40976 0.01000
O 	O 	0.10357 0.27205 0.48797 -0.18400
C 	C 	0.11946 0.29229 0.49478 0.04100
C 	C 	0.13164 0.29638 0.44891 -0.06000
O 	O 	0.13176 0.23439 0.29072 -0.19100
C 	C 	0.11809 0.21104 0.28832 0.04100
C 	C 	0.10311 0.21095 0.32898 -0.05700
H 	H 	0.08671 0.22864 0.42772 0.06900
H 	H 	0.14702 0.28016 0.34795 0.06800
H 	H 	0.14225 0.31402 0.44213 0.05600
H 	H 	0.08908 0.19805 0.32939 0.05600
C 	C 	0.08433 0.28105 0.96421 0.11300
C 	C 	0.07699 0.28767 0.91189 -0.08100
C 	C 	0.09092 0.30050 0.87561 0.00600
C 	C 	0.11048 0.30887 0.89103 0.12100
C 	C 	0.11781 0.30311 0.94354 -0.09600
C 	C 	0.10418 0.28939 0.98002 0.02400
O 	O 	0.07669 0.25786 0.99300 -0.17800
C 	C 	0.09395 0.25234 0.02610 0.04100
C 	C 	0.11032 0.27113 0.01903 -0.07000
O 	O 	0.11972 0.32844 0.85615 -0.20700
C 	C 	0.10359 0.33066 0.81774 0.03500
C 	C 	0.08599 0.31492 0.83054 -0.05200
H 	H 	0.06154 0.28121 0.89895 0.07100
H 	H 	0.13355 0.30882 0.95544 0.06700
H 	H 	0.12648 0.26612 0.02798 0.05000
H 	H 	0.07340 0.30958 0.80295 0.06400
C 	C 	0.97444 0.15770 0.10942 0.11600
C 	C 	0.99140 0.14558 0.13681 -0.08700
C 	C 	0.00793 0.13447 0.10576 0.01200
C 	C 	0.00786 0.13607 0.04960 0.11900
C 	C 	0.99029 0.14684 0.02231 -0.09700
C 	C 	0.97424 0.15881 0.05358 0.01900
O 	O 	0.95488 0.16071 0.13317 -0.18700
C 	C 	0.94295 0.16289 0.08576 0.04800
C 	C 	0.95431 0.16181 0.03813 -0.06800
O 	O 	0.02770 0.13744 0.02683 -0.18200
C 	C 	0.03961 0.13791 0.07443 0.04800
C 	C 	0.02797 0.13536 0.12139 -0.06200
H 	H 	0.99180 0.14493 0.18082 0.06700
H 	H 	0.98990 0.14783 0.97834 0.07700
H 	H 	0.94811 0.15659 0.99837 0.06400
H 	H 	0.03310 0.14281 0.16093 0.04600
C 	C 	0.88695 0.83388 0.49834 0.11600
C 	C 	0.87683 0.82174 0.45327 -0.09000
C 	C 	0.88630 0.79829 0.42775 0.01000
C 	C 	0.90312 0.78454 0.45105 0.11600
C 	C 	0.91240 0.79556 0.49813 -0.08700
C 	C 	0.90495 0.82158 0.51858 0.01000
O 	O 	0.87638 0.85070 0.53588 -0.19900
C 	C 	0.88948 0.84682 0.58074 0.03900
C 	C 	0.90653 0.82964 0.57075 -0.05500
O 	O 	0.90476 0.75595 0.43696 -0.18400
C 	C 	0.88720 0.75383 0.40354 0.04200
C 	C 	0.87621 0.77886 0.39737 -0.06000
H 	H 	0.86151 0.82909 0.44095 0.06400
H 	H 	0.92399 0.78332 0.52014 0.07100
H 	H 	0.91502 0.81792 0.60165 0.06500
H 	H 	0.86013 0.78039 0.38399 0.05100
C 	C 	0.88754 0.78843 0.96802 0.10900
C 	C 	0.89159 0.76143 0.99023 -0.07300
C 	C 	0.88590 0.75692 0.04463 -0.00500
C 	C 	0.87391 0.77612 0.07274 0.12700
C 	C 	0.86793 0.80192 0.04849 -0.10300
C 	C 	0.87654 0.80838 0.99746 0.02400
O 	O 	0.88841 0.79406 0.91262 -0.18400
C 	C 	0.87694 0.81950 0.91185 0.04300
C 	C 	0.86901 0.82737 0.96197 -0.06600
O 	O 	0.86412 0.76476 0.11817 -0.19800
C 	C 	0.87191 0.73684 0.11520 0.04300
C 	C 	0.88393 0.73170 0.06942 -0.05000
H 	H 	0.89821 0.74450 0.96574 0.06600
H 	H 	0.85666 0.81587 0.06772 0.06900
H 	H 	0.86263 0.84805 0.97239 0.05900
H 	H 	0.89465 0.71401 0.06453 0.05000
C 	C 	0.82975 0.04796 0.96341 0.12500
C 	C 	0.83335 0.03581 0.91202 -0.08500
C 	C 	0.84240 0.00868 0.91020 0.00600
C 	C 	0.84635 0.99325 0.95616 0.12800
C 	C 	0.84197 0.00463 0.00753 -0.09600
C 	C 	0.83321 0.03211 0.01008 0.00500
O 	O 	0.83073 0.07721 0.97165 -0.18700
C 	C 	0.83569 0.07753 0.02699 0.04100
C 	C 	0.83694 0.05082 0.05028 -0.05100
O 	O 	0.84980 0.96447 0.94685 -0.19500
C 	C 	0.84739 0.96427 0.89015 0.04600
C 	C 	0.84212 0.99049 0.86829 -0.05100
H 	H 	0.83056 0.04786 0.87518 0.06800
H 	H 	0.84548 0.99273 0.04415 0.06700
H 	H 	0.84607 0.04599 0.08624 0.05200
H 	H 	0.84368 0.99648 0.82594 0.05600
C 	C 	0.13562 0.76351 0.58753 0.12000
C 	C 	0.13903 0.73641 0.56519 -0.08800
C 	C 	0.13283 0.73223 0.51111 0.00900
C 	C 	0.12682 0.75450 0.47847 0.11800
C 	C 	0.12556 0.78226 0.49954 -0.08700
C 	C 	0.12852 0.78542 0.55572 0.00700
O 	O 	0.14341 0.77208 0.63739 -0.18900
C 	C 	0.13959 0.80148 0.63306 0.04400
C 	C 	0.13196 0.80972 0.58272 -0.05800
O 	O 	0.12754 0.74845 0.42334 -0.18600
C 	C 	0.13415 0.71995 0.42632 0.03900
C 	C 	0.13851 0.71076 0.47864 -0.05800
H 	H 	0.14647 0.71964 0.58844 0.06800
H 	H 	0.12279 0.80044 0.47338 0.06700
H 	H 	0.12398 0.82963 0.57450 0.04800
H 	H 	0.13986 0.68872 0.49134 0.05300
C 	C 	0.10051 0.78008 0.99475 0.12500
C 	C 	0.09432 0.77316 0.04781 -0.09600
C 	C 	0.10288 0.74865 0.07135 0.01200
C 	C 	0.11593 0.73080 0.04331 0.10500
C 	C 	0.12186 0.73725 0.98990 -0.07900
C 	C 	0.11337 0.76185 0.96595 0.00600
O 	O 	0.10067 0.80798 0.97579 -0.18400
C 	C 	0.11520 0.80489 0.93380 0.03900
C 	C 	0.12270 0.77752 0.92745 -0.05900
O 	O 	0.11778 0.70380 0.06595 -0.20500
C 	C 	0.10454 0.70743 0.11088 0.03000
C 	C 	0.09481 0.73379 0.11255 -0.05600
H 	H 	0.08406 0.78708 0.07065 0.07000
H 	H 	0.13249 0.72356 0.96772 0.06300
H 	H 	0.13679 0.77172 0.90570 0.05400
H 	H 	0.08697 0.74296 0.14746 0.06300
C 	C 	0.11661 0.01781 0.83679 0.11700
C 	C 	0.12804 0.04202 0.85227 -0.09100
C 	C 	0.11943 0.05998 0.89194 0.01300
C 	C 	0.10180 0.05248 0.92046 0.11900
C 	C 	0.09138 0.02698 0.90843 -0.08700
C 	C 	0.09826 0.01108 0.86345 0.01100
O 	O 	0.12599 0.99471 0.81122 -0.20100
C 	C 	0.11188 0.97340 0.82626 0.03800
C 	C 	0.09533 0.98293 0.85728 -0.05500
O 	O 	0.09987 0.06616 0.97033 -0.18500
C 	C 	0.11824 0.08232 0.96923 0.04700
C 	C 	0.13031 0.07787 0.92355 -0.06400
H 	H 	0.14366 0.04558 0.83677 0.06300
H 	H 	0.07915 0.01905 0.93483 0.07100
H 	H 	0.08627 0.96970 0.88466 0.06500
H 	H 	0.14285 0.09157 0.90970 0.04000
C 	C 	0.98130 0.87502 0.74886 0.11500
C 	C 	0.99852 0.85684 0.74250 -0.08600
C 	C 	0.01530 0.85993 0.77854 0.01300
C 	C 	0.01608 0.88177 0.81581 0.11700
C 	C 	0.99906 0.90025 0.82187 -0.08700
C 	C 	0.98189 0.89670 0.78694 0.01300
O 	O 	0.96124 0.86657 0.73474 -0.18200
C 	C 	0.94992 0.88439 0.76940 0.04600
C 	C 	0.96203 0.90253 0.80035 -0.06200
O 	O 	0.03618 0.88888 0.83239 -0.18100
C 	C 	0.04727 0.86933 0.80060 0.04600
C 	C 	0.03499 0.85196 0.76867 -0.05800
H 	H 	0.99828 0.83985 0.71269 0.06800
H 	H 	0.99929 0.91706 0.85205 0.06900
H 	H 	0.95718 0.91209 0.83843 0.05500
H 	H 	0.04028 0.84014 0.73342 0.04800
C 	C 	0.73030 0.16840 0.29549 0.11800
C 	C 	0.74247 0.18760 0.26548 -0.09000
C 	C 	0.75415 0.17706 0.22174 0.01000
C 	C 	0.75544 0.14829 0.21122 0.11400
C 	C 	0.74346 0.12896 0.24150 -0.08900
C 	C 	0.73123 0.13957 0.28441 0.00800
O 	O 	0.71182 0.17686 0.31993 -0.19100
C 	C 	0.70111 0.15092 0.31933 0.04300
C 	C 	0.71280 0.12843 0.29962 -0.05700
O 	O 	0.77368 0.14023 0.18476 -0.18800
C 	C 	0.78346 0.16686 0.18191 0.04100
C 	C 	0.77178 0.18893 0.20323 -0.06000
H 	H 	0.74192 0.21024 0.27407 0.06600
H 	H 	0.74399 0.10634 0.23273 0.06600
H 	H 	0.70610 0.10937 0.28179 0.05000
H 	H 	0.77822 0.20882 0.21823 0.05400
C 	C 	0.22975 0.19596 0.12973 0.11500
C 	C 	0.25082 0.18928 0.12075 -0.08900
C 	C 	0.26420 0.18874 0.16597 0.01100
C 	C 	0.25652 0.18945 0.21828 0.11700
C 	C 	0.23511 0.19362 0.22736 -0.08900
C 	C 	0.22241 0.19949 0.18211 0.01200
O 	O 	0.21424 0.19002 0.09179 -0.19300
C 	C 	0.19697 0.19053 0.12653 0.04400
C 	C 	0.20166 0.19585 0.18030 -0.05900
O 	O 	0.26962 0.17690 0.25660 -0.18900
C 	C 	0.28581 0.16847 0.22193 0.04300
C 	C 	0.28267 0.17542 0.16808 -0.05600
H 	H 	0.25633 0.18342 0.08064 0.06500
H 	H 	0.22849 0.19116 0.26761 0.06700
H 	H 	0.19199 0.18970 0.21451 0.05700
H 	H 	0.29100 0.16637 0.13384 0.05200
C 	C 	0.51171 0.13984 0.32155 0.11600
C 	C 	0.49470 0.14690 0.28836 -0.08700
C 	C 	0.47529 0.15077 0.31334 0.01400
C 	C 	0.47228 0.14613 0.36772 0.11800
C 	C 	0.48907 0.13830 0.40105 -0.08500
C 	C 	0.50872 0.13459 0.37643 0.01100
O 	O 	0.53201 0.14760 0.30822 -0.18700
C 	C 	0.54071 0.14711 0.36023 0.04500
C 	C 	0.52710 0.13925 0.40104 -0.06000
O 	O 	0.45148 0.14250 0.38233 -0.17900
C 	C 	0.44240 0.14550 0.33073 0.04500
C 	C 	0.45671 0.14911 0.28920 -0.06200
H 	H 	0.49678 0.15079 0.24530 0.06800
H 	H 	0.48694 0.13514 0.44431 0.07000
H 	H 	0.52905 0.14438 0.44369 0.05900
H 	H 	0.45321 0.15691 0.24875 0.04500
C 	C 	0.72650 0.84524 0.70642 0.11700
C 	C 	0.74272 0.83295 0.73653 -0.09000
C 	C 	0.75686 0.85108 0.76298 0.01200
C 	C 	0.75579 0.88030 0.75711 0.11500
C 	C 	0.73938 0.89262 0.72753 -0.08800
C 	C 	0.72532 0.87444 0.70079 0.00900
O 	O 	0.70765 0.83134 0.69844 -0.19200
C 	C 	0.69486 0.85499 0.68930 0.04200
C 	C 	0.70529 0.88077 0.69020 -0.05600
O 	O 	0.77487 0.89398 0.76354 -0.18800
C 	C 	0.78759 0.87013 0.77157 0.04300
C 	C 	0.77691 0.84458 0.77226 -0.06000
H 	H 	0.74390 0.81002 0.74063 0.06500
H 	H 	0.73819 0.91555 0.72338 0.06800
H 	H 	0.69802 0.90105 0.69970 0.05800
H 	H 	0.78388 0.82406 0.76318 0.05400
C 	C 	0.63127 0.98288 0.53765 0.11400
C 	C 	0.64508 0.99877 0.50538 -0.08400
C 	C 	0.63733 0.01131 0.45754 0.00700
C 	C 	0.61657 0.00899 0.44322 0.12100
C 	C 	0.60285 0.99309 0.47558 -0.09100
C 	C 	0.61042 0.98146 0.52419 0.01400
O 	O 	0.63797 0.96080 0.57116 -0.18500
C 	C 	0.61915 0.94582 0.57562 0.04300
C 	C 	0.60269 0.95811 0.54809 -0.06300
O 	O 	0.60949 0.03115 0.41082 -0.19900
C 	C 	0.62750 0.04792 0.40955 0.04300
C 	C 	0.64430 0.03599 0.43647 -0.05300
H 	H 	0.66139 0.00072 0.51643 0.06700
H 	H 	0.58653 0.99116 0.46467 0.06600
H 	H 	0.58900 0.94667 0.53410 0.04900
H 	H 	0.65711 0.04822 0.45343 0.05600
C 	C 	0.24283 0.87410 0.78219 0.11600
C 	C 	0.26054 0.88913 0.76468 -0.08800
C 	C 	0.27439 0.87529 0.72930 0.01000
C 	C 	0.26966 0.84932 0.70641 0.11800
C 	C 	0.25095 0.83550 0.71979 -0.08700
C 	C 	0.23854 0.84742 0.76104 0.01300
O 	O 	0.22545 0.88793 0.80333 -0.19300
C 	C 	0.21029 0.86743 0.79148 0.04400
C 	C 	0.21790 0.84328 0.76628 -0.06000
O 	O 	0.28054 0.84365 0.65873 -0.18200
C 	C 	0.29199 0.86899 0.65485 0.04500
C 	C 	0.28774 0.88834 0.69563 -0.06300
H 	H 	0.26266 0.91136 0.77529 0.06400
H 	H 	0.24575 0.81705 0.69704 0.07100
H 	H 	0.20871 0.82899 0.74124 0.06200
H 	H 	0.29726 0.90665 0.70604 0.04100
C 	C 	0.38188 0.00517 0.52826 0.11700
C 	C 	0.36971 0.02974 0.52037 -0.09100
C 	C 	0.37407 0.04680 0.47488 0.01400
C 	C 	0.38743 0.03787 0.43464 0.11900
C 	C 	0.39822 0.01203 0.44008 -0.08800
C 	C 	0.39645 0.99728 0.48965 0.01000
O 	O 	0.37542 0.98289 0.56161 -0.20400
C 	C 	0.38724 0.96086 0.53882 0.03700
C 	C 	0.39975 0.96923 0.49591 -0.05500
O 	O 	0.38413 0.05101 0.38468 -0.18900
C 	C 	0.36746 0.06881 0.39905 0.03800
C 	C 	0.36087 0.06546 0.45216 -0.06200
H 	H 	0.35660 0.03438 0.54674 0.06300
H 	H 	0.40685 0.00311 0.40623 0.06800
H 	H 	0.40537 0.95516 0.46416 0.06200
H 	H 	0.35103 0.08021 0.47435 0.04700
C 	C 	0.47504 0.85474 0.55446 0.11600
C 	C 	0.49011 0.87168 0.58024 -0.08800
C 	C 	0.50355 0.85857 0.61783 0.01300
C 	C 	0.50271 0.82964 0.62784 0.11700
C 	C 	0.48771 0.81275 0.60169 -0.08700
C 	C 	0.47466 0.82572 0.56316 0.01200
O 	O 	0.45628 0.86583 0.53534 -0.18500
C 	C 	0.44463 0.84061 0.53389 0.04500
C 	C 	0.45545 0.81668 0.55040 -0.05900
O 	O 	0.52135 0.81827 0.64683 -0.18000
C 	C 	0.53367 0.84284 0.64510 0.05100
C 	C 	0.52318 0.86696 0.62809 -0.06400
H 	H 	0.49094 0.89438 0.57256 0.06700
H 	H 	0.48690 0.79002 0.60925 0.06900
H 	H 	0.44828 0.79754 0.56657 0.05000
H 	H 	0.53060 0.88534 0.60962 0.04600
C 	C 	0.73379 0.38647 0.74574 0.11800
C 	C 	0.74368 0.39840 0.70025 -0.09100
C 	C 	0.75604 0.38056 0.66765 0.01100
C 	C 	0.75998 0.35267 0.68204 0.11500
C 	C 	0.74963 0.34045 0.72665 -0.08500
C 	C 	0.73696 0.35820 0.75872 0.01000
O 	O 	0.71560 0.39789 0.76743 -0.20000
C 	C 	0.70781 0.37348 0.79288 0.04700
C 	C 	0.72035 0.34965 0.78785 -0.05700
O 	O 	0.77884 0.34216 0.66236 -0.18300
C 	C 	0.78573 0.36648 0.63464 0.04300
C 	C 	0.77227 0.38939 0.63765 -0.06100
H 	H 	0.74125 0.42056 0.68962 0.06300
H 	H 	0.75208 0.31830 0.73733 0.07000
H 	H 	0.71503 0.32780 0.79149 0.06400
H 	H 	0.77695 0.41148 0.63313 0.04200
C 	C 	0.62650 0.24596 0.65397 0.11800
C 	C 	0.62766 0.21912 0.62922 -0.08800
C 	C 	0.62039 0.21681 0.57567 0.01000
C 	C 	0.61533 0.24045 0.54528 0.11700
C 	C 	0.61640 0.26775 0.56855 -0.08500
C 	C 	0.62047 0.26942 0.62454 0.00700
O 	O 	0.63657 0.25244 0.70225 -0.18600
C 	C 	0.63558 0.28226 0.69956 0.04400
C 	C 	0.62708 0.29249 0.65164 -0.05900
O 	O 	0.61563 0.23576 0.48951 -0.18400
C 	C 	0.62142 0.20693 0.48967 0.04200
C 	C 	0.62522 0.19599 0.54088 -0.05800
H 	H 	0.63462 0.20113 0.65005 0.06900
H 	H 	0.61483 0.28675 0.54386 0.06800
H 	H 	0.62104 0.31385 0.64570 0.04700
H 	H 	0.62631 0.17358 0.55119 0.05300
C 	C 	0.61961 0.25332 0.15421 0.11500
C 	C 	0.61774 0.28170 0.13715 -0.08700
C 	C 	0.63030 0.29081 0.09363 0.01000
C 	C 	0.64156 0.27157 0.06277 0.11500
C 	C 	0.64190 0.24263 0.07726 -0.08600
C 	C 	0.63198 0.23462 0.12573 0.00200
O 	O 	0.60503 0.24018 0.18773 -0.18200
C 	C 	0.61003 0.21165 0.17696 0.02400
C 	C 	0.62538 0.20830 0.13789 -0.06100
O 	O 	0.64523 0.28059 0.00983 -0.19100
C 	C 	0.63481 0.30676 0.01155 0.03500
C 	C 	0.62588 0.31302 0.06125 -0.05700
H 	H 	0.60623 0.29572 0.15522 0.06900
H 	H 	0.64848 0.22681 0.05014 0.06400
H 	H 	0.63395 0.18886 0.12962 0.03400
H 	H 	0.61274 0.32727 0.06699 0.06000
C 	C 	0.23564 0.34558 0.65004 0.11800
C 	C 	0.25106 0.32715 0.66997 -0.09000
C 	C 	0.26592 0.33818 0.70614 0.01200
C 	C 	0.26643 0.36673 0.71929 0.11500
C 	C 	0.25113 0.38526 0.69888 -0.08800
C 	C 	0.23625 0.37423 0.66260 0.00800
O 	O 	0.21597 0.33585 0.63536 -0.19200
C 	C 	0.20472 0.36117 0.64152 0.04200
C 	C 	0.21671 0.38419 0.65731 -0.05600
O 	O 	0.28599 0.37636 0.73539 -0.18800
C 	C 	0.29726 0.35106 0.72881 0.04300
C 	C 	0.28540 0.32819 0.71170 -0.06000
H 	H 	0.25092 0.30472 0.65953 0.06600
H 	H 	0.25126 0.40768 0.70940 0.06700
H 	H 	0.21067 0.40258 0.67891 0.05300
H 	H 	0.29153 0.30975 0.69044 0.05500
C 	C 	0.38122 0.30652 0.48397 0.11500
C 	C 	0.38430 0.30098 0.42851 -0.08500
C 	C 	0.37084 0.28148 0.40282 0.00900
C 	C 	0.35695 0.26515 0.43249 0.12000
C 	C 	0.35517 0.26912 0.48877 -0.08600
C 	C 	0.36666 0.29118 0.51280 0.00300
O 	O 	0.39638 0.31931 0.51633 -0.18600
C 	C 	0.38969 0.30960 0.56726 0.02800
C 	C 	0.37251 0.29191 0.56494 -0.06200
O 	O 	0.35209 0.23928 0.40830 -0.19500
C 	C 	0.36482 0.24104 0.36236 0.04600
C 	C 	0.37589 0.26622 0.35847 -0.05600
H 	H 	0.39747 0.31013 0.40706 0.06800
H 	H 	0.34647 0.25412 0.51344 0.06600
H 	H 	0.36258 0.28641 0.59904 0.02600
H 	H 	0.39046 0.26847 0.33646 0.05200
C 	C 	0.36974 0.24215 0.04406 0.12500
C 	C 	0.36177 0.26520 0.01418 -0.10200
C 	C 	0.37306 0.27382 0.96810 0.02500
C 	C 	0.38914 0.25772 0.94746 0.10900
C 	C 	0.39570 0.23295 0.97447 -0.07200
C 	C 	0.38669 0.22722 0.02529 -0.00600
O 	O 	0.35872 0.22835 0.08492 -0.19400
C 	C 	0.37119 0.20387 0.08981 0.04000
C 	C 	0.38714 0.20239 0.05186 -0.05100
O 	O 	0.39380 0.26345 0.89344 -0.18200
C 	C 	0.37915 0.28512 0.88408 0.04300
C 	C 	0.36601 0.29029 0.92770 -0.06600
H 	H 	0.34724 0.27541 0.02550 0.07000
H 	H 	0.40687 0.21852 0.95616 0.06700
H 	H 	0.40063 0.18851 0.05440 0.05200
H 	H 	0.35612 0.30884 0.93280 0.05900
C 	C 	0.49092 0.33383 0.78467 0.11600
C 	C 	0.50681 0.31601 0.80431 -0.08600
C 	C 	0.52030 0.32685 0.84420 0.01200
C 	C 	0.51942 0.35492 0.86046 0.11600
C 	C 	0.50358 0.37282 0.84088 -0.08700
C 	C 	0.48972 0.36180 0.80187 0.01400
O 	O 	0.47214 0.32300 0.76530 -0.17900
C 	C 	0.45943 0.34674 0.77438 0.05000
C 	C 	0.46976 0.36995 0.79604 -0.06300
O 	O 	0.53816 0.36536 0.88105 -0.18300
C 	C 	0.55028 0.34072 0.87528 0.04600
C 	C 	0.53981 0.31776 0.85317 -0.05800
H 	H 	0.50794 0.29405 0.79100 0.07000
H 	H 	0.50242 0.39472 0.85446 0.06800
H 	H 	0.46235 0.38671 0.81946 0.04900
H 	H 	0.54720 0.30016 0.83205 0.04900
C 	C 	0.73056 0.70968 0.17730 0.11500
C 	C 	0.75191 0.71141 0.16509 -0.08800
C 	C 	0.76599 0.71450 0.20850 0.01000
C 	C 	0.75966 0.71082 0.26169 0.11500
C 	C 	0.73843 0.70685 0.27368 -0.08900
C 	C 	0.72403 0.70898 0.23079 0.01100
O 	O 	0.71599 0.69905 0.14055 -0.19100
C 	C 	0.70018 0.69199 0.17730 0.04500
C 	C 	0.70479 0.69767 0.23093 -0.05700
O 	O 	0.77547 0.70172 0.29641 -0.19200
C 	C 	0.79182 0.70041 0.25885 0.04000
C 	C 	0.78632 0.70778 0.20646 -0.05700
H 	H 	0.75740 0.70887 0.12372 0.06500
H 	H 	0.73348 0.70083 0.31419 0.06600
H 	H 	0.69739 0.68756 0.26554 0.05500
H 	H 	0.79452 0.70092 0.17019 0.05800
C 	C 	0.58595 0.78496 0.91821 0.11800
C 	C 	0.57391 0.76856 0.95389 -0.08100
C 	C 	0.58184 0.76358 0.00637 0.00800
C 	C 	0.60129 0.77361 0.02194 0.11000
C 	C 	0.61285 0.79101 0.98648 -0.07800
C 	C 	0.60491 0.79539 0.93410 0.00200
O 	O 	0.57806 0.79747 0.87138 -0.18000
C 	C 	0.59439 0.81665 0.86090 0.03000
C 	C 	0.61004 0.81635 0.89982 -0.05600
O 	O 	0.61088 0.75712 0.06177 -0.19400
C 	C 	0.59568 0.73595 0.06743 0.04500
C 	C 	0.57833 0.73975 0.03502 -0.05900
H 	H 	0.55908 0.75970 0.94117 0.07100
H 	H 	0.62802 0.79917 0.99811 0.06400
H 	H 	0.62563 0.82490 0.89470 0.03100
H 	H 	0.56796 0.72274 0.02230 0.05900
C 	C 	0.62008 0.73790 0.37785 0.11700
C 	C 	0.62877 0.76057 0.40739 -0.08800
C 	C 	0.61797 0.76973 0.45388 0.01000
C 	C 	0.60162 0.75437 0.47519 0.11600
C 	C 	0.59431 0.72993 0.44848 -0.08600
C 	C 	0.60286 0.72375 0.39733 0.00900
O 	O 	0.63072 0.72334 0.33721 -0.18900
C 	C 	0.61780 0.69927 0.33345 0.04200
C 	C 	0.60188 0.69874 0.37153 -0.05700
O 	O 	0.59754 0.76015 0.52950 -0.18300
C 	C 	0.61283 0.78102 0.53834 0.04100
C 	C 	0.62576 0.78568 0.49411 -0.06000
H 	H 	0.64352 0.77002 0.39563 0.06800
H 	H 	0.58296 0.71597 0.46738 0.06900
H 	H 	0.58828 0.68503 0.37027 0.05700
H 	H 	0.63611 0.80373 0.48873 0.05600
C 	C 	0.61719 0.52738 0.00518 0.09600
C 	C 	0.60162 0.50871 0.98690 -0.06500
C 	C 	0.60388 0.49650 0.93505 0.00000
C 	C 	0.62124 0.50182 0.90331 0.12400
C 	C 	0.63660 0.52096 0.92141 -0.09800
C 	C 	0.63464 0.53231 0.97393 0.02200
O 	O 	0.61347 0.54820 0.04420 -0.18300
C 	C 	0.63046 0.56602 0.03315 0.03300
C 	C 	0.64302 0.55693 0.99103 -0.05900
O 	O 	0.62579 0.48013 0.86671 -0.21000
C 	C 	0.61016 0.46074 0.88112 0.03300
C 	C 	0.59686 0.47051 0.92129 -0.04900
H 	H 	0.58808 0.50417 0.01180 0.05900
H 	H 	0.65023 0.52543 0.89677 0.06300
H 	H 	0.65280 0.57074 0.96654 0.04200
H 	H 	0.58777 0.45688 0.94788 0.06300
C 	C 	0.23271 0.63774 0.16651 0.12000
C 	C 	0.24662 0.63085 0.12462 -0.09000
C 	C 	0.26593 0.61876 0.13882 0.01000
C 	C 	0.27158 0.61497 0.19260 0.11900
C 	C 	0.25727 0.62104 0.23430 -0.08700
C 	C 	0.23819 0.63344 0.21983 0.00800
O 	O 	0.21142 0.64089 0.15822 -0.19900
C 	C 	0.20465 0.63757 0.21197 0.04300
C 	C 	0.22047 0.63216 0.24866 -0.05300
O 	O 	0.29297 0.61572 0.20128 -0.20000
C 	C 	0.29961 0.62089 0.14805 0.04400
C 	C 	0.28364 0.62252 0.11055 -0.05400
H 	H 	0.24252 0.63458 0.08250 0.06600
H 	H 	0.26140 0.61775 0.27654 0.06600
H 	H 	0.21932 0.63378 0.29249 0.05900
H 	H 	0.28464 0.63407 0.07245 0.05600
C 	C 	0.37378 0.74541 0.77412 0.11700
C 	C 	0.37399 0.71836 0.79834 -0.08600
C 	C 	0.37645 0.71710 0.85489 0.01000
C 	C 	0.37548 0.74110 0.88675 0.11900
C 	C 	0.37296 0.76805 0.86279 -0.08500
C 	C 	0.37387 0.76958 0.80582 0.00900
O 	O 	0.36728 0.74999 0.72108 -0.18600
C 	C 	0.36361 0.77940 0.72387 0.04500
C 	C 	0.36655 0.79094 0.77504 -0.05700
O 	O 	0.37116 0.73560 0.94104 -0.18400
C 	C 	0.36989 0.70575 0.93860 0.04100
C 	C 	0.37190 0.69481 0.88661 -0.05500
H 	H 	0.37156 0.69925 0.77441 0.06900
H 	H 	0.36976 0.78674 0.88727 0.06900
H 	H 	0.36843 0.81340 0.78400 0.05100
H 	H 	0.37539 0.67281 0.87673 0.05100
C 	C 	0.36258 0.76302 0.37459 0.11500
C 	C 	0.36641 0.73367 0.37015 -0.09100
C 	C 	0.38285 0.72463 0.33656 0.00700
C 	C 	0.39441 0.74376 0.30647 0.11600
C 	C 	0.39032 0.77303 0.31033 -0.08800
C 	C 	0.37365 0.78204 0.34307 0.01000
O 	O 	0.35408 0.77499 0.42125 -0.19100
C 	C 	0.36164 0.80281 0.41565 0.04100
C 	C 	0.37296 0.80725 0.36858 -0.05800
O 	O 	0.40342 0.73200 0.26040 -0.18300
C 	C 	0.39515 0.70449 0.26363 0.02900
C 	C 	0.38318 0.69975 0.30956 -0.05800
H 	H 	0.35741 0.71849 0.39363 0.06500
H 	H 	0.39932 0.78822 0.28685 0.06900
H 	H 	0.38459 0.82384 0.36356 0.06300
H 	H 	0.37108 0.68367 0.31258 0.03600
C 	C 	0.36013 0.52343 0.92936 0.11800
C 	C 	0.35207 0.50791 0.88551 -0.08700
C 	C 	0.34909 0.47845 0.89230 0.01100
C 	C 	0.35486 0.46477 0.93983 0.11800
C 	C 	0.36216 0.48064 0.98429 -0.08200
C 	C 	0.36530 0.50991 0.97691 0.02000
O 	O 	0.35780 0.55272 0.93444 -0.19600
C 	C 	0.36175 0.55527 0.99023 0.06500
C 	C 	0.36548 0.52965 0.01611 -0.07600
O 	O 	0.36021 0.43634 0.93266 -0.19000
C 	C 	0.35748 0.43439 0.87644 0.04500
C 	C 	0.35074 0.45924 0.85212 -0.05300
H 	H 	0.34820 0.51838 0.84757 0.06700
H 	H 	0.36640 0.47026 0.02203 0.06100
H 	H 	0.37267 0.52713 0.05570 0.05700
H 	H 	0.35338 0.46460 0.80980 0.05500
C 	C 	0.48586 0.65032 0.04865 0.11900
C 	C 	0.50292 0.63618 0.02543 -0.09600
C 	C 	0.51694 0.62202 0.06027 0.01200
C 	C 	0.51396 0.62181 0.11600 0.11800
C 	C 	0.49634 0.63511 0.13859 -0.08800
C 	C 	0.48340 0.65094 0.10408 0.01100
O 	O 	0.46782 0.65677 0.01976 -0.18900
C 	C 	0.45441 0.66151 0.06377 0.04500
C 	C 	0.46350 0.65784 0.11411 -0.05700
O 	O 	0.53234 0.61925 0.14536 -0.19700
C 	C 	0.54677 0.62048 0.10287 0.04800
C 	C 	0.53768 0.62098 0.05193 -0.05500
H 	H 	0.50536 0.63643 0.98187 0.07600
H 	H 	0.49390 0.63519 0.18216 0.06600
H 	H 	0.45509 0.65258 0.15103 0.05400
H 	H 	0.54526 0.62958 0.01608 0.05900
