data_crystal

_cell_length_a 16.82907
_cell_length_b 16.04535
_cell_length_c 77.99784
_cell_angle_alpha 90.06948
_cell_angle_beta  89.94634
_cell_angle_gamma 119.91816

_symmetry_space_group_name_	'P 1'
_symmetry_space_group_name_H-M	'P 1'

loop_
_symmetry_equiv_pos_as_xyz
  x,y,z

loop_
_atom_site_label
_atom_site_type_symbol
_atom_site_fract_x
_atom_site_fract_y
_atom_site_fract_z
_atom_site_charge
C 	C 	0.12168 0.06247 0.00878 0.34400
C 	C 	0.82444 0.55770 0.00982 -0.08100
C 	C 	0.70270 0.59542 0.01335 0.34800
H 	H 	0.85789 0.51774 0.01355 0.11600
H 	H 	0.22554 0.97751 0.01061 0.10500
H 	H 	0.75340 0.25583 0.01110 0.11500
C 	C 	0.86536 0.23596 0.00313 0.35600
C 	C 	0.96232 0.16280 0.99840 0.36700
C 	C 	0.93930 0.22475 0.00847 -0.11500
O 	O 	0.03471 0.03473 0.01311 -0.33400
C 	C 	0.75130 0.55156 0.01962 -0.10800
F 	F 	0.62459 0.58074 0.02113 -0.42100
C 	C 	0.33205 0.07773 0.02736 0.34600
C 	C 	0.24523 0.03574 0.01969 -0.04800
C 	C 	0.18813 0.07535 0.02225 -0.11400
F 	F 	0.38915 0.04332 0.02360 -0.39900
C 	C 	0.81252 0.25118 0.01524 -0.08300
C 	C 	0.96800 0.24349 0.02559 -0.08100
C 	C 	0.73341 0.50850 0.03703 0.31700
C 	C 	0.45750 0.21221 0.04425 0.33100
C 	C 	0.77801 0.27149 0.04546 0.32900
O 	O 	0.66968 0.51085 0.04698 -0.31100
O 	O 	0.79305 0.48516 0.04343 -0.36300
O 	O 	0.68876 0.20795 0.04633 -0.34600
O 	O 	0.50457 0.30681 0.04231 -0.34900
C 	C 	0.30072 0.19169 0.04201 -0.08200
C 	C 	0.36181 0.15890 0.03795 -0.10000
C 	C 	0.21394 0.14961 0.03432 0.35500
F 	F 	0.15845 0.18680 0.03742 -0.42100
C 	C 	0.83486 0.25814 0.03266 -0.10900
C 	C 	0.91513 0.25816 0.03773 0.35300
H 	H 	0.02605 0.23705 0.02979 0.14000
Ni	Ni	0.57612 0.39626 0.06263 1.12000
O 	O 	0.81989 0.33393 0.05797 -0.33600
O 	O 	0.49777 0.16305 0.04948 -0.31500
O 	O 	0.65302 0.34309 0.06166 -0.72000
H 	H 	0.65621 0.33874 0.04911 0.15500
H 	H 	0.32158 0.25188 0.05068 0.11000
F 	F 	0.93886 0.26664 0.05454 -0.40300
Ni	Ni	0.60881 0.20978 0.06560 1.12900
Ni	Ni	0.77998 0.42554 0.06679 1.12800
O 	O 	0.47339 0.29015 0.07753 -0.36000
O 	O 	0.77379 0.54049 0.07571 -0.36800
C 	C 	0.49013 0.24516 0.08980 0.31500
C 	C 	0.71603 0.53135 0.08773 0.32600
C 	C 	0.74081 0.28671 0.09431 0.32400
O 	O 	0.70506 0.22052 0.08225 -0.35300
O 	O 	0.52906 0.19325 0.08638 -0.35700
O 	O 	0.62791 0.47546 0.08519 -0.35600
O 	O 	0.76834 0.37738 0.09088 -0.37700
O 	O 	0.30516 0.06746 0.08357 -0.05800
O 	O 	0.63022 0.65975 0.09465 -0.06600
O 	O 	0.94710 0.36169 0.08962 -0.03800
C 	C 	0.76818 0.26242 0.11051 -0.08600
C 	C 	0.44141 0.22923 0.10617 -0.08400
C 	C 	0.36839 0.13742 0.11050 0.13700
H 	H 	0.52582 0.37617 0.11447 0.07300
N 	N 	0.33563 0.05973 0.09847 -0.01100
O 	O 	0.32993 0.97877 0.10288 -0.09100
C 	C 	0.83270 0.58355 0.11099 0.00300
C 	C 	0.75119 0.57634 0.10472 -0.08900
C 	C 	0.70388 0.61086 0.11481 0.13100
H 	H 	0.86976 0.55774 0.10333 0.07200
N 	N 	0.62417 0.61040 0.10830 -0.02500
N 	N 	0.93046 0.38169 0.10491 -0.03000
C 	C 	0.70168 0.18841 0.12065 0.00300
C 	C 	0.86133 0.30741 0.11530 0.13900
H 	H 	0.62995 0.15422 0.11707 0.07300
O 	O 	0.92856 0.10662 0.12570 -0.05200
C 	C 	0.32660 0.12232 0.12662 -0.06700
C 	C 	0.46985 0.30553 0.11780 -0.00200
H 	H 	0.27120 0.05142 0.13001 0.10600
O 	O 	0.19843 0.23691 0.13305 -0.06300
C 	C 	0.86588 0.62211 0.12726 0.06700
C 	C 	0.73768 0.65012 0.13108 -0.06800
O 	O 	0.54792 0.56852 0.11694 -0.06900
O 	O 	0.98323 0.46650 0.11140 -0.06800
O 	O 	0.06589 0.88257 0.13796 -0.08000
O 	O 	0.82238 0.96347 0.13633 -0.08900
O 	O 	0.02337 0.67064 0.12504 -0.06300
C 	C 	0.82076 0.20046 0.13977 0.03100
C 	C 	0.72745 0.15712 0.13525 0.06700
C 	C 	0.88687 0.27694 0.13002 -0.06900
N 	N 	0.65864 0.08235 0.14562 -0.01700
O 	O 	0.59340 0.09297 0.15231 -0.07300
O 	O 	0.65699 0.00083 0.14724 -0.05300
C 	C 	0.35508 0.19860 0.13828 0.03200
C 	C 	0.42664 0.29103 0.13376 0.06500
N 	N 	0.45545 0.37030 0.14535 -0.01500
N 	N 	0.16841 0.15924 0.14222 -0.01900
O 	O 	0.54149 0.42193 0.14952 -0.08700
O 	O 	0.39714 0.39563 0.15059 -0.06700
O 	O 	0.08860 0.08523 0.13888 -0.05900
C 	C 	0.81907 0.65706 0.13727 0.02900
N 	N 	0.97822 0.84788 0.13998 -0.01500
H 	H 	0.70179 0.67742 0.13873 0.09300
O 	O 	0.93217 0.86560 0.12859 -0.07000
N 	N 	0.87488 0.05585 0.13816 -0.00200
H 	H 	0.95850 0.31141 0.13367 0.09700
N 	N 	0.94714 0.62536 0.13363 -0.01500
O 	O 	0.94337 0.57734 0.14732 -0.07900
C 	C 	0.84918 0.16977 0.15522 0.03200
C 	C 	0.31092 0.18073 0.15533 0.03200
C 	C 	0.21888 0.15845 0.15693 0.06600
C 	C 	0.85592 0.70260 0.15414 0.03200
C 	C 	0.93379 0.79538 0.15521 0.06100
C 	C 	0.87719 0.10053 0.15419 0.06900
H 	H 	0.92629 0.01971 0.16821 0.07500
C 	C 	0.84684 0.20900 0.17110 -0.07300
C 	C 	0.90168 0.11164 0.18503 -0.09300
H 	H 	0.82376 0.26106 0.17191 0.09300
C 	C 	0.17681 0.13684 0.17308 -0.00000
C 	C 	0.36042 0.18361 0.17000 -0.06800
H 	H 	0.10575 0.11867 0.17423 0.06100
H 	H 	0.43144 0.20164 0.16883 0.09500
C 	C 	0.81596 0.65066 0.16917 -0.07400
H 	H 	0.75778 0.57836 0.16836 0.09300
C 	C 	0.96918 0.83587 0.17133 0.00200
H 	H 	0.02704 0.90840 0.17211 0.05600
C 	C 	0.90377 0.07221 0.16907 0.00800
C 	C 	0.87089 0.17901 0.18604 0.14000
C 	C 	0.22640 0.14036 0.18776 -0.07800
C 	C 	0.31951 0.16604 0.18624 0.13500
N 	N 	0.37383 0.17889 0.20117 -0.02100
C 	C 	0.85279 0.69004 0.18526 0.13200
C 	C 	0.93097 0.08175 0.20053 0.34800
O 	O 	0.90618 0.99037 0.20245 -0.41100
N 	N 	0.81554 0.63267 0.20035 -0.02300
C 	C 	0.92824 0.78450 0.18640 -0.09000
C 	C 	0.18109 0.12046 0.20463 0.30700
O 	O 	0.04599 0.88617 0.20661 -0.36500
O 	O 	0.89777 0.81981 0.21491 -0.36000
O 	O 	0.19724 0.06962 0.21584 -0.32200
O 	O 	0.14506 0.17317 0.20952 -0.35900
N 	N 	0.85915 0.21301 0.20227 -0.02600
O 	O 	0.90816 0.30376 0.20610 -0.06800
O 	O 	0.79311 0.15538 0.21241 -0.03000
O 	O 	0.38920 0.24663 0.21210 -0.06200
O 	O 	0.41465 0.12876 0.20304 -0.04400
O 	O 	0.72802 0.59135 0.20342 -0.06900
C 	C 	0.95846 0.83331 0.20319 0.32400
O 	O 	0.96736 0.14300 0.21337 -0.35900
O 	O 	0.86793 0.61594 0.21033 -0.06000
Ni	Ni	0.09417 0.95834 0.22988 1.11400
Ni	Ni	0.89050 0.93047 0.22565 1.12000
Ni	Ni	0.06038 0.14534 0.22996 1.12700
O 	O 	0.84823 0.01688 0.23603 -0.32300
O 	O 	0.01661 0.01064 0.23169 -0.70500
C 	C 	0.21065 0.13520 0.24999 0.33100
C 	C 	0.88738 0.07287 0.24944 0.32700
O 	O 	0.16441 0.04024 0.25100 -0.31600
O 	O 	0.16809 0.18459 0.24661 -0.35200
O 	O 	0.87323 0.85979 0.24799 -0.36500
C 	C 	0.30785 0.18768 0.25560 -0.10500
C 	C 	0.36613 0.15028 0.25210 0.35200
C 	C 	0.45449 0.19395 0.25916 -0.07800
H 	H 	0.49625 0.16058 0.25739 0.11500
F 	F 	0.33647 0.07034 0.24227 -0.41800
F 	F 	0.70721 0.03958 0.24235 -0.40700
C 	C 	0.93394 0.83774 0.25431 0.31300
O 	O 	0.97659 0.13720 0.24938 -0.35400
H 	H 	0.01151 0.00946 0.24427 0.15400
O 	O 	0.99919 0.83861 0.24436 -0.30900
O 	O 	0.63685 0.31268 0.27963 -0.35900
C 	C 	0.34257 0.27468 0.26464 -0.07800
C 	C 	0.48465 0.27382 0.27004 -0.10800
C 	C 	0.43085 0.31799 0.27171 0.34900
H 	H 	0.29982 0.30644 0.26691 0.12100
C 	C 	0.91725 0.79487 0.27173 -0.10700
C 	C 	0.82786 0.07853 0.26276 -0.10600
C 	C 	0.74071 0.06499 0.25850 0.34900
C 	C 	0.69019 0.08301 0.27069 -0.07800
H 	H 	0.62722 0.08075 0.26688 0.11400
F 	F 	0.04537 0.76796 0.27002 -0.42100
C 	C 	0.70473 0.18276 0.29585 0.36300
C 	C 	0.55032 0.28789 0.28373 0.34400
Ni	Ni	0.75052 0.38269 0.29524 1.12900
O 	O 	0.74693 0.50583 0.29540 -0.35400
O 	O 	0.61881 0.15882 0.29888 -0.36600
O 	O 	0.77055 0.27123 0.29793 -0.35500
F 	F 	0.46064 0.39781 0.28159 -0.40100
C 	C 	0.84450 0.78852 0.28168 -0.08600
C 	C 	0.93627 0.69334 0.29246 -0.08400
C 	C 	0.85749 0.09735 0.27983 -0.08200
C 	C 	0.72670 0.11609 0.28704 -0.11600
C 	C 	0.80590 0.11378 0.29204 0.36000
H 	H 	0.80966 0.82700 0.27791 0.11300
H 	H 	0.92163 0.10202 0.28353 0.12000
C 	C 	0.96784 0.75324 0.27805 0.34500
C 	C 	0.79411 0.57429 0.30674 0.35300
C 	C 	0.90589 0.44681 0.32009 0.36800
Ni	Ni	0.58319 0.22550 0.31697 1.12900
O 	O 	0.88064 0.46375 0.30511 -0.36000
O 	O 	0.51533 0.25293 0.29901 -0.35700
O 	O 	0.67865 0.35542 0.31543 -0.71900
H 	H 	0.64257 0.38659 0.31265 0.19000
C 	C 	0.85247 0.67154 0.30010 -0.11600
C 	C 	0.81198 0.72660 0.29577 0.35600
F 	F 	0.73495 0.71210 0.30399 -0.40300
F 	F 	0.83813 0.13802 0.30830 -0.38600
H 	H 	0.97169 0.65592 0.29651 0.10900
F 	F 	0.04388 0.39309 0.31964 -0.40300
O 	O 	0.80516 0.55455 0.32299 -0.34400
O 	O 	0.65544 0.19377 0.33357 -0.35300
O 	O 	0.84378 0.39443 0.33133 -0.35100
C 	C 	0.46171 0.45095 0.33816 0.35200
F 	F 	0.50381 0.49406 0.32326 -0.39400
C 	C 	0.11802 0.50213 0.34272 -0.08700
C 	C 	0.05615 0.46995 0.32902 0.36100
C 	C 	0.99951 0.50958 0.32631 -0.12500
H 	H 	0.98004 0.62970 0.33229 0.10500
C 	C 	0.01861 0.59395 0.33515 -0.08600
C 	C 	0.66094 0.21807 0.34961 0.36300
C 	C 	0.53770 0.35357 0.33859 0.33500
Ni	Ni	0.73718 0.41962 0.33581 1.12300
O 	O 	0.68246 0.30640 0.35369 -0.34900
O 	O 	0.62126 0.42774 0.34082 -0.33500
O 	O 	0.52382 0.26462 0.33621 -0.36000
C 	C 	0.40927 0.31828 0.35804 -0.08100
C 	C 	0.46107 0.36706 0.34362 -0.10600
C 	C 	0.42997 0.49708 0.34911 -0.08000
H 	H 	0.43807 0.56612 0.34552 0.11500
C 	C 	0.12241 0.57314 0.35395 -0.10200
C 	C 	0.07836 0.62469 0.34920 0.34300
H 	H 	0.15774 0.46726 0.34529 0.11900
F 	F 	0.09023 0.70164 0.35849 -0.41700
F 	F 	0.74156 0.10344 0.35662 -0.39800
C 	C 	0.45628 0.85521 0.38215 0.33700
C 	C 	0.16233 0.58309 0.37135 0.31300
C 	C 	0.37577 0.51276 0.37806 0.32600
O 	O 	0.36658 0.81212 0.37964 -0.33200
O 	O 	0.43869 0.60506 0.38038 -0.35900
O 	O 	0.17700 0.51318 0.37681 -0.35600
C 	C 	0.39233 0.45631 0.36505 -0.10800
C 	C 	0.37515 0.36271 0.36883 0.35200
F 	F 	0.33039 0.31730 0.38338 -0.40700
H 	H 	0.40386 0.25076 0.36190 0.11900
C 	C 	0.53851 0.11484 0.37013 -0.08700
C 	C 	0.62360 0.14133 0.36255 -0.12400
C 	C 	0.65806 0.07773 0.36338 0.37000
C 	C 	0.60378 0.98493 0.36992 -0.10000
C 	C 	0.51499 0.95511 0.37601 -0.12600
C 	C 	0.48414 0.02205 0.37679 0.37200
H 	H 	0.51177 0.16385 0.36981 0.11200
H 	H 	0.62973 0.93524 0.36971 0.11900
Ni	Ni	0.27515 0.73375 0.39898 1.12700
Ni	Ni	0.22994 0.51175 0.40001 1.12900
O 	O 	0.49666 0.80742 0.38802 -0.36300
O 	O 	0.31083 0.46529 0.38960 -0.32900
O 	O 	0.16560 0.64968 0.38214 -0.30400
O 	O 	0.31586 0.64506 0.39689 -0.72000
H 	H 	0.32176 0.64675 0.38432 0.15200
F 	F 	0.40141 0.99712 0.38382 -0.43700
Ni	Ni	0.43970 0.68025 0.40136 1.12700
O 	O 	0.12426 0.52332 0.40968 -0.36400
O 	O 	0.37780 0.82993 0.41538 -0.34100
O 	O 	0.42014 0.56618 0.41519 -0.36000
O 	O 	0.56607 0.49064 0.42156 -0.07100
O 	O 	0.42092 0.37530 0.41611 -0.02800
C 	C 	0.13496 0.58244 0.42214 0.32800
C 	C 	0.41458 0.80320 0.42752 0.31400
C 	C 	0.35641 0.52432 0.42698 0.32700
O 	O 	0.27138 0.50343 0.42388 -0.37200
O 	O 	0.19188 0.67493 0.42044 -0.33800
O 	O 	0.45112 0.74896 0.42401 -0.36300
N 	N 	0.47980 0.44467 0.42580 -0.02400
H 	H 	0.56835 0.96759 0.43600 0.07200
O 	O 	0.98564 0.63668 0.42059 -0.06200
C 	C 	0.33661 0.48204 0.45808 0.00300
C 	C 	0.37750 0.48451 0.44225 -0.08200
C 	C 	0.45081 0.46538 0.44173 0.13500
C 	C 	0.49341 0.46324 0.45691 -0.07000
H 	H 	0.55385 0.45562 0.45638 0.09500
C 	C 	0.51938 0.93907 0.44644 0.00400
C 	C 	0.43577 0.85346 0.44418 -0.07800
O 	O 	0.28825 0.65046 0.45176 -0.09900
O 	O 	0.70176 0.07587 0.46233 -0.07100
C 	C 	0.08480 0.47055 0.44686 0.00200
C 	C 	0.08139 0.54476 0.43802 -0.07800
C 	C 	0.03389 0.58800 0.44526 0.13500
H 	H 	0.11791 0.43440 0.44107 0.07100
N 	N 	0.02220 0.65759 0.43580 -0.02400
O 	O 	0.04291 0.73960 0.44280 -0.06100
C 	C 	0.45652 0.46712 0.47278 0.03000
C 	C 	0.37558 0.47303 0.47338 0.06600
H 	H 	0.27534 0.48795 0.45856 0.08300
O 	O 	0.52631 0.27574 0.47268 -0.06700
C 	C 	0.47540 0.95238 0.47562 0.02400
C 	C 	0.53954 0.98879 0.46210 0.06400
C 	C 	0.37277 0.81642 0.45787 0.12600
C 	C 	0.39316 0.86590 0.47349 -0.06500
N 	N 	0.62505 0.07604 0.46422 -0.01300
N 	N 	0.28800 0.72859 0.45603 -0.02300
O 	O 	0.39846 0.07379 0.46887 -0.05300
O 	O 	0.21262 0.72343 0.46146 -0.07100
O 	O 	0.62629 0.15668 0.46692 -0.06300
C 	C 	0.00732 0.49323 0.47119 0.02700
C 	C 	0.05000 0.44609 0.46352 0.06900
C 	C 	0.99791 0.56264 0.46189 -0.06200
N 	N 	0.05826 0.37338 0.47265 -0.01900
O 	O 	0.02784 0.28878 0.46585 -0.07000
H 	H 	0.96199 0.59631 0.46752 0.09100
C 	C 	0.54197 0.54181 0.49977 -0.07100
C 	C 	0.50193 0.46240 0.48868 0.03100
C 	C 	0.51335 0.38254 0.49187 0.06200
N 	N 	0.47384 0.30124 0.48064 -0.02000
H 	H 	0.53562 0.60453 0.49711 0.09100
N 	N 	0.33324 0.47048 0.48944 -0.01700
O 	O 	0.38568 0.25368 0.47814 -0.05900
O 	O 	0.31725 0.53938 0.49353 -0.06800
C 	C 	0.49384 0.00416 0.49213 0.04500
C 	C 	0.44944 0.05643 0.49633 0.06700
N 	N 	0.38133 0.05544 0.48513 -0.01500
H 	H 	0.34468 0.83691 0.48400 0.09600
O 	O 	0.30250 0.03763 0.49128 -0.06300
O 	O 	0.76163 0.17904 0.50975 -0.06200
O 	O 	0.10218 0.39386 0.48715 -0.06100
H 	H 	0.85100 0.33220 0.47908 0.09800
C 	C 	0.88321 0.37710 0.49021 -0.07100
C 	C 	0.96528 0.46407 0.48835 0.03600
O 	O 	0.89780 0.07443 0.99568 -0.35700
C 	C 	0.56423 0.38284 0.50602 -0.00200
C 	C 	0.60103 0.46019 0.51748 -0.08800
C 	C 	0.59096 0.54086 0.51423 0.13400
H 	H 	0.57062 0.32025 0.50865 0.07100
O 	O 	0.30562 0.39652 0.49951 -0.06300
C 	C 	0.54669 0.99101 0.50452 -0.07900
C 	C 	0.46731 0.10421 0.51215 0.00300
C 	C 	0.55730 0.03099 0.52090 0.14300
H 	H 	0.43642 0.14793 0.51498 0.07600
H 	H 	0.57525 0.94501 0.50176 0.09500
C 	C 	0.84224 0.34715 0.50631 0.13200
N 	N 	0.09198 0.61078 0.50115 -0.01600
N 	N 	0.75872 0.25786 0.50770 -0.02300
O 	O 	0.68214 0.25316 0.50331 -0.09100
O 	O 	0.09684 0.69114 0.50575 -0.07600
O 	O 	0.16558 0.61048 0.49614 -0.06400
C 	C 	0.00733 0.52211 0.50282 0.06100
C 	C 	0.55601 0.15944 0.53963 0.31500
C 	C 	0.83691 0.37975 0.53792 0.31700
C 	C 	0.63053 0.44678 0.53437 0.32900
O 	O 	0.71695 0.47269 0.53707 -0.36700
N 	N 	0.62889 0.62109 0.52577 -0.02400
O 	O 	0.57801 0.65487 0.53156 -0.04500
O 	O 	0.71545 0.66365 0.52973 -0.05400
C 	C 	0.52431 0.09518 0.52431 -0.07800
N 	N 	0.59266 0.99850 0.53440 -0.02600
O 	O 	0.67704 0.01666 0.53380 -0.05000
C 	C 	0.88314 0.40561 0.52091 -0.08100
C 	C 	0.96612 0.49284 0.51899 0.00400
H 	H 	0.99901 0.53789 0.53006 0.08000
O 	O 	0.57153 0.41683 0.54704 -0.36200
O 	O 	0.59804 0.14206 0.55211 -0.33200
O 	O 	0.53561 0.22878 0.54101 -0.37400
O 	O 	0.78109 0.28938 0.54185 -0.33800
O 	O 	0.85937 0.44640 0.54965 -0.36500
O 	O 	0.53737 0.94034 0.54601 -0.04700
Ni	Ni	0.71135 0.24798 0.56512 1.13000
Ni	Ni	0.55241 0.30849 0.56254 1.12700
Ni	Ni	0.76454 0.47181 0.56069 1.12800
O 	O 	0.69145 0.52801 0.57131 -0.33000
O 	O 	0.49719 0.18839 0.57787 -0.36000
O 	O 	0.67642 0.34193 0.56614 -0.72100
H 	H 	0.67576 0.34808 0.57869 0.15400
F 	F 	0.64078 0.66376 0.57377 -0.40700
C 	C 	0.84024 0.40923 0.58930 0.31200
C 	C 	0.53910 0.14539 0.58515 0.33500
C 	C 	0.62817 0.48650 0.58346 0.32600
O 	O 	0.83077 0.33797 0.57913 -0.30600
O 	O 	0.82786 0.47962 0.58327 -0.35700
O 	O 	0.56245 0.39451 0.58235 -0.35900
O 	O 	0.62942 0.18852 0.58650 -0.32800
C 	C 	0.61622 0.54886 0.59578 -0.10900
C 	C 	0.61624 0.63214 0.59011 0.35100
C 	C 	0.58279 0.67762 0.60082 -0.07900
H 	H 	0.57508 0.73618 0.59582 0.11600
C 	C 	0.39414 0.01388 0.59759 -0.08800
C 	C 	0.48276 0.04554 0.59126 -0.11200
C 	C 	0.51404 0.97934 0.58949 0.34900
C 	C 	0.45940 0.88443 0.59507 -0.07900
C 	C 	0.37423 0.85534 0.60280 -0.12900
C 	C 	0.33990 0.91914 0.60322 0.35600
H 	H 	0.36807 0.06331 0.59856 0.11800
H 	H 	0.48606 0.83540 0.59447 0.10900
F 	F 	0.59751 0.00700 0.58252 -0.42400
C 	C 	0.46775 0.64444 0.62324 0.33900
C 	C 	0.33649 0.77389 0.61471 0.36500
Ni	Ni	0.26641 0.56961 0.62604 1.12200
O 	O 	0.38567 0.56771 0.62099 -0.34100
O 	O 	0.47733 0.73060 0.62679 -0.35900
O 	O 	0.32083 0.68897 0.60958 -0.35400
C 	C 	0.59480 0.52017 0.61291 -0.07900
C 	C 	0.54653 0.63836 0.61692 -0.10700
C 	C 	0.56174 0.56616 0.62358 0.35300
H 	H 	0.59893 0.45901 0.61767 0.11300
H 	H 	0.85493 0.53372 0.61459 0.11900
F 	F 	0.25637 0.89111 0.61020 -0.41300
C 	C 	0.88253 0.42131 0.60654 -0.09900
C 	C 	0.89054 0.49485 0.61751 -0.09100
C 	C 	0.92189 0.36561 0.61162 0.33800
F 	F 	0.90724 0.28734 0.60242 -0.41300
C 	C 	0.09499 0.53674 0.64152 0.36700
Ni	Ni	0.41418 0.75917 0.64683 1.12800
O 	O 	0.15848 0.59221 0.63078 -0.35900
O 	O 	0.33952 0.79194 0.63103 -0.36500
O 	O 	0.19785 0.43015 0.63729 -0.34600
O 	O 	0.32131 0.62772 0.64704 -0.72000
H 	H 	0.35842 0.59716 0.64939 0.19200
F 	F 	0.53347 0.53245 0.63970 -0.39300
C 	C 	0.98029 0.39355 0.62585 -0.07000
C 	C 	0.00168 0.47822 0.63480 -0.13800
F 	F 	0.96452 0.60079 0.64099 -0.40900
H 	H 	0.01690 0.35566 0.62867 0.09800
C 	C 	0.94974 0.52297 0.63162 0.36800
C 	C 	0.20616 0.40539 0.65334 0.35000
Ni	Ni	0.24671 0.59200 0.66695 1.13100
O 	O 	0.11819 0.51394 0.65619 -0.36100
O 	O 	0.48119 0.72631 0.66410 -0.34800
O 	O 	0.25265 0.47042 0.66523 -0.35600
O 	O 	0.37621 0.81814 0.66597 -0.35900
F 	F 	0.57087 0.61764 0.67807 -0.39400
C 	C 	0.05585 0.28272 0.66447 -0.08200
C 	C 	0.14474 0.30691 0.65922 -0.11400
C 	C 	0.18376 0.25426 0.66583 0.36000
F 	F 	0.26610 0.27038 0.65990 -0.40200
H 	H 	0.02240 0.31871 0.65881 0.10900
C 	C 	0.23268 0.90453 0.67114 -0.07500
F 	F 	0.13325 0.97042 0.67049 -0.40900
H 	H 	0.25023 0.92427 0.65782 0.12900
C 	C 	0.28989 0.79035 0.66944 0.36300
C 	C 	0.44634 0.68880 0.67927 0.34000
O 	O 	0.22527 0.70308 0.66597 -0.36200
O 	O 	0.35812 0.65758 0.68322 -0.34000
C 	C 	0.51236 0.70591 0.69308 -0.09900
C 	C 	0.58246 0.68417 0.69007 0.34600
C 	C 	0.66761 0.73734 0.69817 -0.08000
H 	H 	0.72257 0.72349 0.69494 0.12000
C 	C 	0.14438 0.19510 0.68012 -0.07200
C 	C 	0.06475 0.18686 0.68761 -0.10800
C 	C 	0.01669 0.22467 0.67891 0.34600
H 	H 	0.17933 0.16140 0.68609 0.12200
C 	C 	0.26585 0.85099 0.67965 -0.11600
C 	C 	0.24431 0.82813 0.69703 0.35000
C 	C 	0.13814 0.88877 0.69583 -0.12700
C 	C 	0.16874 0.92320 0.67918 0.36000
F 	F 	0.93632 0.21231 0.68523 -0.41100
C 	C 	0.04086 0.15205 0.70544 0.33900
C 	C 	0.77661 0.87601 0.71663 0.34100
C 	C 	0.07052 0.90715 0.70435 0.36400
O 	O 	0.08694 0.99539 0.70547 -0.37300
O 	O 	0.10647 0.16927 0.71636 -0.36700
O 	O 	0.84412 0.86015 0.71288 -0.36500
O 	O 	0.00196 0.83731 0.71293 -0.36200
C 	C 	0.52330 0.77009 0.70630 -0.08700
C 	C 	0.68273 0.81085 0.70980 -0.11100
C 	C 	0.60793 0.82261 0.71463 0.35300
H 	H 	0.46872 0.78524 0.70915 0.13700
C 	C 	0.17865 0.84432 0.70492 -0.07600
H 	H 	0.15817 0.82090 0.71801 0.11500
F 	F 	0.27959 0.78065 0.70570 -0.42800
O 	O 	0.95506 0.10809 0.71061 -0.31400
Ni	Ni	0.11259 0.06052 0.72814 1.12500
O 	O 	0.79099 0.94833 0.72664 -0.31000
O 	O 	0.14285 0.96517 0.73928 -0.35800
O 	O 	0.28380 0.88513 0.74435 -0.05500
F 	F 	0.61749 0.88625 0.72706 -0.41200
O 	O 	0.98816 0.99149 0.73524 -0.70800
Ni	Ni	0.91904 0.05508 0.73553 1.12300
Ni	Ni	0.92653 0.85591 0.73135 1.12700
C 	C 	0.84673 0.89982 0.76241 0.29900
C 	C 	0.09692 0.18035 0.75552 0.30400
C 	C 	0.09222 0.90366 0.75150 0.30200
O 	O 	0.86887 0.99040 0.75922 -0.33100
O 	O 	0.83170 0.83835 0.74965 -0.36000
O 	O 	0.00458 0.83904 0.74892 -0.36800
O 	O 	0.03049 0.17947 0.74608 -0.34700
O 	O 	0.14422 0.14007 0.74982 -0.34500
N 	N 	0.28400 0.95238 0.75370 -0.02400
O 	O 	0.34233 0.04210 0.75045 -0.06500
H 	H 	0.07894 0.33577 0.76306 0.08300
H 	H 	0.00027 0.99222 0.74758 0.15000
C 	C 	0.26661 0.92414 0.78458 -0.06500
C 	C 	0.08129 0.87185 0.78275 0.00600
C 	C 	0.13511 0.90089 0.76783 -0.07700
C 	C 	0.22871 0.92749 0.76880 0.13600
H 	H 	0.00944 0.85121 0.78212 0.07300
H 	H 	0.33753 0.94128 0.78519 0.09400
C 	C 	0.10829 0.31554 0.77351 -0.00200
C 	C 	0.12938 0.24174 0.77118 -0.06800
C 	C 	0.17585 0.22303 0.78445 0.13100
N 	N 	0.22275 0.17082 0.78114 -0.02100
O 	O 	0.29338 0.20742 0.77095 -0.06700
O 	O 	0.05325 0.45545 0.78462 -0.05900
C 	C 	0.74803 0.76792 0.78267 -0.00100
C 	C 	0.81984 0.86233 0.78004 -0.07700
H 	H 	0.71840 0.71936 0.77189 0.08100
C 	C 	0.21209 0.89375 0.79938 0.03100
C 	C 	0.11999 0.87159 0.79857 0.07300
N 	N 	0.15095 0.69838 0.81012 -0.01500
O 	O 	0.16957 0.69578 0.79400 -0.06400
C 	C 	0.18366 0.26386 0.80066 -0.06700
C 	C 	0.16186 0.33676 0.80307 0.03100
C 	C 	0.12971 0.36707 0.78901 0.07300
N 	N 	0.12578 0.45406 0.78996 -0.01500
O 	O 	0.20810 0.09935 0.79103 -0.08300
O 	O 	0.19817 0.53391 0.79447 -0.06600
C 	C 	0.71146 0.73721 0.79912 0.06600
C 	C 	0.86157 0.92264 0.79434 0.12100
N 	N 	0.63661 0.64141 0.80159 -0.01700
N 	N 	0.94274 0.01403 0.79230 -0.01800
O 	O 	0.94616 0.09124 0.79839 -0.07300
O 	O 	0.56681 0.60625 0.79121 -0.07500
O 	O 	0.01429 0.01963 0.78486 -0.10700
C 	C 	0.24793 0.87325 0.81508 0.03400
N 	N 	0.06545 0.84833 0.81382 -0.01800
C 	C 	0.21287 0.77762 0.82069 0.07000
C 	C 	0.31170 0.94961 0.82522 -0.07300
H 	H 	0.33931 0.02306 0.82085 0.09800
O 	O 	0.09386 0.90711 0.82680 -0.07000
O 	O 	0.98426 0.77237 0.81421 -0.06100
O 	O 	0.07800 0.62673 0.81680 -0.06100
C 	C 	0.18071 0.38642 0.81997 0.03100
H 	H 	0.21243 0.24321 0.81115 0.09000
C 	C 	0.11107 0.39191 0.82918 0.07100
C 	C 	0.26810 0.42401 0.82729 -0.07000
N 	N 	0.01891 0.34556 0.82288 -0.02100
H 	H 	0.32153 0.41887 0.82042 0.09200
C 	C 	0.60577 0.78620 0.82665 -0.06800
C 	C 	0.68822 0.78561 0.82834 0.03200
C 	C 	0.74556 0.80230 0.81299 0.03200
H 	H 	0.58332 0.79492 0.81409 0.09300
C 	C 	0.82377 0.89253 0.81069 -0.06500
H 	H 	0.85258 0.94127 0.82148 0.09500
O 	O 	0.46679 0.84547 0.83077 -0.08200
O 	O 	0.63915 0.58858 0.81398 -0.06200
O 	O 	0.97567 0.39360 0.82168 -0.05300
O 	O 	0.97480 0.25315 0.82034 -0.06300
C 	C 	0.23707 0.75999 0.83687 0.00600
C 	C 	0.29798 0.83645 0.84729 -0.07600
C 	C 	0.33652 0.93176 0.84135 0.13700
H 	H 	0.20885 0.68661 0.84129 0.07600
N 	N 	0.39937 0.01063 0.85180 -0.02500
O 	O 	0.48128 0.06985 0.84613 -0.06000
C 	C 	0.13167 0.44052 0.84495 0.00100
C 	C 	0.21884 0.47683 0.85236 -0.08000
C 	C 	0.28585 0.46371 0.84378 0.13000
H 	H 	0.07895 0.44763 0.85167 0.07700
N 	N 	0.37034 0.48654 0.85200 -0.02300
O 	O 	0.44749 0.54226 0.84425 -0.07000
C 	C 	0.71821 0.77615 0.84472 0.06600
C 	C 	0.55172 0.77523 0.84098 0.13100
N 	N 	0.80207 0.77466 0.84669 -0.01700
N 	N 	0.46719 0.77466 0.83879 -0.02400
O 	O 	0.39011 0.69636 0.84176 -0.09100
O 	O 	0.81332 0.70975 0.83882 -0.05700
C 	C 	0.24102 0.53402 0.86835 0.32000
C 	C 	0.51998 0.74215 0.87228 0.32400
C 	C 	0.31767 0.81609 0.86459 0.32800
O 	O 	0.25275 0.78509 0.87622 -0.35900
O 	O 	0.21178 0.59618 0.87011 -0.37000
O 	O 	0.45958 0.65217 0.87534 -0.34700
O 	O 	0.40227 0.84077 0.86884 -0.35500
O 	O 	0.37239 0.02768 0.86635 -0.02900
O 	O 	0.36949 0.43582 0.86506 -0.07800
C 	C 	0.66465 0.76665 0.85920 0.00600
C 	C 	0.58096 0.76510 0.85739 -0.08200
H 	H 	0.68685 0.75762 0.87175 0.07500
O 	O 	0.86464 0.83412 0.85722 -0.07000
Ni	Ni	0.37785 0.60726 0.89710 1.11900
Ni	Ni	0.22382 0.67345 0.89172 1.12800
Ni	Ni	0.43790 0.83301 0.89311 1.12900
O 	O 	0.27203 0.50850 0.88160 -0.35800
O 	O 	0.53710 0.80831 0.88385 -0.36400
O 	O 	0.34530 0.70291 0.89720 -0.72000
F 	F 	0.31143 0.02685 0.90414 -0.39200
C 	C 	0.19597 0.50295 0.91389 0.34000
C 	C 	0.29464 0.84753 0.91358 0.33100
O 	O 	0.49057 0.69195 0.91310 -0.35500
O 	O 	0.48939 0.83510 0.91668 -0.32900
O 	O 	0.36237 0.88976 0.90228 -0.32700
O 	O 	0.22731 0.75694 0.91148 -0.34800
O 	O 	0.28495 0.54376 0.91686 -0.36600
O 	O 	0.15920 0.55030 0.90630 -0.32800
H 	H 	0.33920 0.70670 0.90969 0.15700
C 	C 	0.11042 0.23937 0.92174 0.34700
C 	C 	0.16297 0.33354 0.91564 -0.08500
C 	C 	0.13584 0.40180 0.91894 -0.11500
H 	H 	0.22592 0.35403 0.90871 0.10200
F 	F 	0.14014 0.17569 0.91926 -0.42600
C 	C 	0.28109 0.90888 0.92588 -0.09600
C 	C 	0.28456 0.99411 0.92035 0.32700
C 	C 	0.25277 0.04106 0.93109 -0.06100
H 	H 	0.24836 0.10180 0.92623 0.14000
C 	C 	0.49879 0.76356 0.92308 0.31800
C 	C 	0.13606 0.00891 0.95314 0.35500
C 	C 	0.00130 0.13551 0.94420 0.34700
O 	O 	0.05383 0.93205 0.95122 -0.34900
C 	C 	0.58137 0.72181 0.94514 -0.08800
C 	C 	0.54110 0.77662 0.94030 -0.10700
H 	H 	0.56865 0.65902 0.93779 0.11200
C 	C 	0.99901 0.27863 0.93311 -0.07100
C 	C 	0.03142 0.21342 0.93156 -0.12300
C 	C 	0.05137 0.37276 0.92700 0.34600
F 	F 	0.02258 0.43700 0.92983 -0.40800
C 	C 	0.25768 0.87910 0.94291 -0.07100
C 	C 	0.21442 0.00120 0.94705 -0.09400
H 	H 	0.93698 0.25869 0.94032 0.12800
O 	O 	0.98485 0.04949 0.93955 -0.31300
C 	C 	0.76405 0.89946 0.97290 0.35600
Ni	Ni	0.08518 0.12785 0.97616 1.13200
O 	O 	0.14601 0.09570 0.95618 -0.34300
O 	O 	0.82479 0.95259 0.96152 -0.37000
O 	O 	0.00825 0.15767 0.96038 -0.36600
O 	O 	0.87133 0.79658 0.96897 -0.30500
O 	O 	0.99265 0.99635 0.97730 -0.72700
C 	C 	0.61581 0.88337 0.96447 -0.07500
C 	C 	0.66881 0.83941 0.96717 -0.12600
C 	C 	0.64400 0.75230 0.95870 0.34400
C 	C 	0.55157 0.85186 0.95114 0.34400
F 	F 	0.50248 0.89678 0.94837 -0.42000
H 	H 	0.63048 0.94748 0.97161 0.11500
F 	F 	0.68804 0.70310 0.96227 -0.43400
C 	C 	0.22657 0.92676 0.95363 0.33700
F 	F 	0.19701 0.89274 0.96969 -0.41700
H 	H 	0.25942 0.81646 0.94758 0.12500
Ni	Ni	0.93493 0.93351 0.95679 1.12200
O 	O 	0.79075 0.88210 0.98770 -0.36200
O 	O 	0.15574 0.10042 0.99358 -0.35900
O 	O 	0.04851 0.18950 0.99501 -0.35900
H 	H 	0.03052 0.96674 0.97972 0.17700
C 	C 	0.73695 0.65779 0.99932 -0.08100
C 	C 	0.82072 0.67849 0.99178 -0.09300
C 	C 	0.85929 0.62143 0.99600 0.35000
H 	H 	0.70351 0.69755 0.99553 0.13300
C 	C 	0.88067 0.77584 0.98525 0.35000
F 	F 	0.83977 0.22323 0.98640 -0.41200
Ni	Ni	0.92084 0.96459 0.99756 1.11900
O 	O 	0.92806 0.84361 0.99667 -0.36800
F 	F 	0.93651 0.63533 0.98795 -0.40300
