data_crystal

_cell_length_a 30.72127
_cell_length_b 31.22670
_cell_length_c 48.74972
_cell_angle_alpha 91.16409
_cell_angle_beta  91.51736
_cell_angle_gamma 117.36568

_symmetry_space_group_name_	'P 1'
_symmetry_space_group_name_H-M	'P 1'

loop_
_symmetry_equiv_pos_as_xyz
  x,y,z

loop_
_atom_site_label
_atom_site_type_symbol
_atom_site_fract_x
_atom_site_fract_y
_atom_site_fract_z
_atom_site_charge
Ni	Ni	0.04618 0.95862 0.35939 1.10000
O 	O 	0.10524 0.95775 0.27167 -0.40300
Ni	Ni	0.06741 0.91549 0.30414 1.06500
O 	O 	0.13324 0.94632 0.32588 -0.40200
O 	O 	0.10060 0.02673 0.35327 -0.69700
O 	O 	0.13882 0.10317 0.30654 -0.37000
O 	O 	0.04410 0.96974 0.40109 -0.36600
H 	H 	0.13319 0.02889 0.35746 0.15200
C 	C 	0.13635 0.94636 0.35276 0.26100
O 	O 	0.09743 0.93473 0.36734 -0.36400
O 	O 	0.03453 0.86371 0.33245 -0.39000
O 	O 	0.98809 0.44777 0.26047 -0.41000
O 	O 	0.05303 0.42277 0.29204 -0.39000
H 	H 	0.02326 0.49384 0.34958 0.16100
C 	C 	0.07131 0.42127 0.31639 0.26700
O 	O 	0.05558 0.43378 0.33837 -0.38100
Ni	Ni	0.54820 0.04107 0.35342 1.09800
O 	O 	0.62258 0.07151 0.35183 -0.70100
Ni	Ni	0.63102 0.05675 0.31237 1.09900
O 	O 	0.54745 0.03616 0.39528 -0.37700
O 	O 	0.59443 0.99708 0.39545 -0.41400
O 	O 	0.55150 0.10845 0.35931 -0.36500
Ni	Ni	0.65667 0.04770 0.37685 1.06600
O 	O 	0.47559 0.06385 0.31773 -0.40700
O 	O 	0.65550 0.99140 0.35406 -0.39200
O 	O 	0.70485 0.07471 0.31284 -0.36600
O 	O 	0.55678 0.03434 0.31330 -0.70000
O 	O 	0.47389 0.01190 0.35118 -0.37800
O 	O 	0.62748 0.04806 0.27030 -0.35800
O 	O 	0.58888 0.09497 0.26576 -0.40500
Ni	Ni	0.53392 0.07455 0.29396 1.06400
H 	H 	0.63696 0.10694 0.35464 0.15700
H 	H 	0.53735 0.00021 0.30694 0.15200
C 	C 	0.61944 0.96564 0.33648 0.26100
O 	O 	0.57893 0.13385 0.31704 -0.41500
C 	C 	0.56275 0.00808 0.40738 0.25100
C 	C 	0.73230 0.08086 0.33554 0.27000
C 	C 	0.56446 0.14162 0.34069 0.27000
C 	C 	0.60232 0.06405 0.25517 0.24800
C 	C 	0.45079 0.02654 0.33336 0.25500
O 	O 	0.61264 0.98510 0.31428 -0.37800
O 	O 	0.72010 0.09212 0.35941 -0.41300
Ni	Ni	0.50044 0.54885 0.31892 1.09900
O 	O 	0.47572 0.47638 0.32283 -0.70400
Ni	Ni	0.50720 0.47543 0.35926 1.09800
O 	O 	0.48925 0.54468 0.27697 -0.37000
O 	O 	0.52930 0.49908 0.27139 -0.41100
O 	O 	0.43036 0.54081 0.32227 -0.36600
Ni	Ni	0.49291 0.44030 0.29596 1.06800
O 	O 	0.48092 0.61655 0.35799 -0.39800
O 	O 	0.55776 0.44551 0.31188 -0.39300
O 	O 	0.49764 0.40552 0.35913 -0.36900
O 	O 	0.52148 0.54606 0.35769 -0.70300
O 	O 	0.52390 0.62120 0.31932 -0.37100
O 	O 	0.53155 0.48504 0.39973 -0.36200
O 	O 	0.47887 0.51504 0.41128 -0.40500
Ni	Ni	0.48259 0.56384 0.38178 1.06500
H 	H 	0.43972 0.45958 0.32449 0.15400
H 	H 	0.55679 0.56857 0.36085 0.15400
C 	C 	0.59051 0.48347 0.32591 0.27000
O 	O 	0.41716 0.51244 0.36563 -0.41000
C 	C 	0.50673 0.52238 0.26086 0.24700
C 	C 	0.47072 0.37065 0.34076 0.26600
C 	C 	0.40022 0.51645 0.34137 0.26400
C 	C 	0.51603 0.50648 0.41778 0.24600
C 	C 	0.51529 0.64242 0.34075 0.24700
O 	O 	0.57788 0.50063 0.34736 -0.38700
O 	O 	0.45494 0.37971 0.31706 -0.41500
Ni	Ni	0.02742 0.01445 0.97774 1.10200
O 	O 	0.00302 0.01953 0.93901 -0.36000
O 	O 	0.98906 0.94285 0.92682 -0.40500
O 	O 	0.13096 0.07521 0.01297 -0.41400
O 	O 	0.04282 0.99242 0.01329 -0.70000
O 	O 	0.08995 0.07840 0.97315 -0.37400
Ni	Ni	0.07422 0.04864 0.03843 1.06900
H 	H 	0.06615 0.97935 0.00992 0.15700
O 	O 	0.05316 0.09833 0.02468 -0.39700
C 	C 	0.01230 0.08834 0.01063 0.29400
C 	C 	0.12938 0.09639 0.99003 0.26900
Ni	Ni	0.07535 0.51902 0.98570 1.10000
O 	O 	0.09633 0.52007 0.94588 -0.36700
O 	O 	0.04839 0.43870 0.94101 -0.41100
O 	O 	0.12539 0.60182 0.03075 -0.40300
O 	O 	0.04815 0.49820 0.02269 -0.70200
O 	O 	0.14644 0.55883 0.99914 -0.37400
Ni	Ni	0.05715 0.55483 0.04415 1.06400
H 	H 	0.06506 0.48177 0.03199 0.15500
C 	C 	0.08121 0.47948 0.93129 0.24500
C 	C 	0.15861 0.59084 0.01993 0.25000
Ni	Ni	0.50122 0.07955 0.97339 1.09600
O 	O 	0.44128 0.01548 0.98171 -0.69500
Ni	Ni	0.46248 0.99612 0.01666 1.09600
O 	O 	0.47336 0.08365 0.93521 -0.36800
O 	O 	0.46086 0.00775 0.92364 -0.40600
O 	O 	0.46424 0.11367 0.98983 -0.38500
Ni	Ni	0.41867 0.96317 0.95373 1.06600
O 	O 	0.59912 0.15743 0.01066 -0.41500
O 	O 	0.46997 0.93901 0.95841 -0.39900
O 	O 	0.40212 0.93101 0.02214 -0.37700
O 	O 	0.52273 0.05943 0.00788 -0.69600
O 	O 	0.56072 0.14574 0.96791 -0.37400
O 	O 	0.48846 0.99346 0.05569 -0.36900
O 	O 	0.50050 0.06981 0.06475 -0.41000
Ni	Ni	0.54721 0.11227 0.03557 1.06900
H 	H 	0.41321 0.02161 0.98580 0.15100
H 	H 	0.55018 0.05256 0.00337 0.15300
C 	C 	0.48148 0.92739 0.98219 0.26400
O 	O 	0.50418 0.14606 0.03091 -0.39400
C 	C 	0.45767 0.04693 0.91743 0.24900
C 	C 	0.38007 0.89909 0.00161 0.26000
C 	C 	0.48411 0.15030 0.00765 0.26900
C 	C 	0.50282 0.03104 0.07270 0.25200
C 	C 	0.58876 0.17487 0.98836 0.26100
O 	O 	0.49882 0.95961 0.00253 -0.37900
O 	O 	0.36908 0.91255 0.97790 -0.41200
Ni	Ni	0.47670 0.56571 0.97090 1.10000
O 	O 	0.41167 0.51089 0.98157 -0.70500
Ni	Ni	0.42964 0.49597 0.01870 1.09900
O 	O 	0.46032 0.55565 0.92941 -0.37000
O 	O 	0.43805 0.47517 0.93108 -0.41000
O 	O 	0.44681 0.61304 0.97217 -0.36300
Ni	Ni	0.38205 0.45179 0.95888 1.06800
O 	O 	0.53386 0.66409 0.00184 -0.40200
O 	O 	0.40708 0.40792 0.97698 -0.39200
O 	O 	0.36920 0.43109 0.02540 -0.37000
O 	O 	0.49111 0.55791 0.01019 -0.70200
O 	O 	0.54233 0.62302 0.96434 -0.37300
O 	O 	0.45553 0.49874 0.05840 -0.36400
O 	O 	0.46559 0.57550 0.06535 -0.40600
Ni	Ni	0.49855 0.61471 0.03108 1.06400
H 	H 	0.38700 0.52262 0.98383 0.15900
H 	H 	0.52136 0.55418 0.01197 0.15500
C 	C 	0.45080 0.42342 0.98881 0.27200
O 	O 	0.43202 0.60693 0.01786 -0.41500
C 	C 	0.44936 0.51405 0.91683 0.24300
C 	C 	0.32881 0.41074 0.00923 0.26700
C 	C 	0.42650 0.62168 0.99366 0.26500
C 	C 	0.47277 0.53914 0.07352 0.24700
C 	C 	0.56157 0.65893 0.98290 0.24900
O 	O 	0.46851 0.46091 0.00611 -0.38600
O 	O 	0.32614 0.42774 0.98493 -0.41400
O 	O 	0.99323 0.09377 0.68554 -0.70900
Ni	Ni	0.01859 0.09949 0.64785 1.10200
O 	O 	0.99998 0.05391 0.73858 -0.40600
Ni	Ni	0.04632 0.10440 0.71159 1.06600
O 	O 	0.05937 0.05102 0.69480 -0.40500
O 	O 	0.06744 0.17062 0.65161 -0.37400
O 	O 	0.02809 0.09987 0.60618 -0.36000
H 	H 	0.98160 0.11813 0.68887 0.15400
C 	C 	0.08026 0.05571 0.67116 0.26300
C 	C 	0.09706 0.18733 0.67373 0.24900
O 	O 	0.07693 0.08436 0.65272 -0.36100
O 	O 	0.10196 0.15696 0.69080 -0.39700
O 	O 	0.03017 0.44934 0.68849 -0.69900
Ni	Ni	0.04302 0.44923 0.64835 1.09800
O 	O 	0.06024 0.42372 0.74128 -0.40700
Ni	Ni	0.09192 0.46997 0.70931 1.06400
O 	O 	0.10502 0.41735 0.69171 -0.41100
O 	O 	0.08666 0.52148 0.64614 -0.36900
O 	O 	0.03885 0.44219 0.60611 -0.36300
H 	H 	0.01638 0.47178 0.69250 0.15400
H 	H 	0.01983 0.35966 0.65378 0.15400
C 	C 	0.12049 0.42034 0.66671 0.26300
C 	C 	0.01701 0.41451 0.75049 0.25500
C 	C 	0.11769 0.54469 0.66688 0.24900
C 	C 	0.99601 0.42109 0.59281 0.24100
O 	O 	0.10581 0.44051 0.64753 -0.36600
O 	O 	0.13474 0.52160 0.68299 -0.40200
Ni	Ni	0.40304 0.96786 0.67629 1.09700
O 	O 	0.45750 0.03701 0.67115 -0.69500
Ni	Ni	0.48761 0.02999 0.63646 1.09800
O 	O 	0.38814 0.98326 0.71510 -0.36900
O 	O 	0.46895 0.01570 0.72827 -0.40600
O 	O 	0.35416 0.98978 0.66117 -0.38400
Ni	Ni	0.50828 0.06741 0.70042 1.06700
O 	O 	0.34722 0.87121 0.63381 -0.41400
O 	O 	0.55446 0.03687 0.69522 -0.39100
O 	O 	0.54567 0.09783 0.63406 -0.37700
O 	O 	0.43277 0.96169 0.64144 -0.70000
O 	O 	0.34695 0.89869 0.67833 -0.37500
O 	O 	0.50076 0.01387 0.59750 -0.36800
O 	O 	0.42007 0.98582 0.58469 -0.40900
Ni	Ni	0.38300 0.93155 0.61189 1.06900
H 	H 	0.44257 0.05860 0.66759 0.15200
H 	H 	0.44736 0.93977 0.64486 0.15300
C 	C 	0.56702 0.02638 0.67136 0.26700
O 	O 	0.33285 0.95647 0.61799 -0.39800
C 	C 	0.42385 0.00649 0.73353 0.25300
C 	C 	0.57155 0.12364 0.65595 0.26100
C 	C 	0.32026 0.96479 0.64227 0.27000
C 	C 	0.46538 0.99709 0.57838 0.24400
C 	C 	0.32454 0.86852 0.65698 0.26000
O 	O 	0.53363 0.00471 0.65164 -0.38800
O 	O 	0.54947 0.12594 0.67839 -0.41500
Ni	Ni	0.50704 0.44145 0.69205 1.09900
O 	O 	0.56446 0.50964 0.69544 -0.70200
Ni	Ni	0.59767 0.51381 0.66017 1.09900
O 	O 	0.49600 0.43574 0.73356 -0.37000
O 	O 	0.57757 0.46062 0.74255 -0.41200
O 	O 	0.46015 0.47158 0.68922 -0.37800
Ni	Ni	0.61313 0.52795 0.72551 1.06900
O 	O 	0.43621 0.37708 0.63788 -0.40900
O 	O 	0.66668 0.51377 0.70974 -0.39400
O 	O 	0.66250 0.57625 0.66729 -0.36900
O 	O 	0.53563 0.44930 0.65509 -0.70100
O 	O 	0.44818 0.37551 0.68481 -0.37900
O 	O 	0.61359 0.51309 0.61956 -0.36600
O 	O 	0.53787 0.50459 0.60677 -0.40700
Ni	Ni	0.48834 0.44298 0.62598 1.06700
H 	H 	0.55165 0.53350 0.69511 0.15500
H 	H 	0.54467 0.42301 0.65205 0.15200
C 	C 	0.65809 0.47819 0.69213 0.27100
O 	O 	0.45720 0.48164 0.64332 -0.40200
C 	C 	0.53273 0.44492 0.75120 0.24700
C 	C 	0.67331 0.60684 0.68876 0.26500
C 	C 	0.43524 0.47071 0.66672 0.26300
C 	C 	0.58183 0.51101 0.60024 0.24100
C 	C 	0.41851 0.36656 0.66283 0.25800
O 	O 	0.63191 0.47259 0.66936 -0.38200
O 	O 	0.64695 0.59551 0.71104 -0.41400
C 	C 	0.62316 0.15921 0.65299 0.00000
C 	C 	0.65448 0.15120 0.63587 -0.04600
H 	H 	0.64445 0.11768 0.62438 0.05000
C 	C 	0.25216 0.74858 0.67479 0.07600
C 	C 	0.22984 0.71114 0.69301 -0.08400
C 	C 	0.18423 0.67267 0.68481 0.01300
C 	C 	0.16222 0.67129 0.65918 0.07400
C 	C 	0.18476 0.70906 0.64107 -0.08200
C 	C 	0.23056 0.74704 0.64925 0.01100
N 	N 	0.28252 0.79445 0.68290 -0.15100
C 	C 	0.28170 0.82252 0.66228 0.00500
C 	C 	0.24827 0.79417 0.64144 -0.04700
N 	N 	0.13347 0.62525 0.65052 -0.15100
C 	C 	0.13751 0.59737 0.67025 -0.00400
C 	C 	0.16859 0.62532 0.69190 -0.05600
H 	H 	0.24705 0.71207 0.71285 0.05100
H 	H 	0.16784 0.70826 0.62116 0.05200
H 	H 	0.24644 0.80520 0.62070 0.04000
H 	H 	0.18839 0.61334 0.70591 0.03900
H 	H 	0.31017 0.80471 0.69828 0.08800
H 	H 	0.12338 0.61395 0.62997 0.09300
N 	N 	0.68490 0.41866 0.67572 -0.15200
C 	C 	0.68724 0.45182 0.69481 -0.00100
H 	H 	0.66370 0.40998 0.65739 0.08900
C 	C 	0.22581 0.40221 0.67218 0.07600
C 	C 	0.26660 0.41501 0.69029 -0.08300
C 	C 	0.31255 0.44917 0.68191 0.01000
C 	C 	0.31856 0.46708 0.65574 0.07500
C 	C 	0.27835 0.45269 0.63709 -0.08400
C 	C 	0.23177 0.42022 0.64586 0.01100
N 	N 	0.18126 0.39292 0.68097 -0.15200
C 	C 	0.15886 0.40579 0.66084 -0.00200
C 	C 	0.18905 0.42253 0.63859 -0.04600
N 	N 	0.36478 0.48113 0.64803 -0.15100
C 	C 	0.38843 0.47245 0.66933 -0.00100
C 	C 	0.35701 0.45208 0.69070 -0.04500
H 	H 	0.26224 0.40059 0.71063 0.05100
H 	H 	0.28296 0.46693 0.61670 0.05100
H 	H 	0.18720 0.44750 0.62405 0.05500
H 	H 	0.36112 0.42881 0.70563 0.04800
H 	H 	0.17283 0.39147 0.70168 0.08500
H 	H 	0.37506 0.48331 0.62762 0.08300
H 	H 	0.72792 0.65525 0.64516 0.09300
C 	C 	0.21168 0.28718 0.68641 0.07500
C 	C 	0.25615 0.29415 0.69917 -0.08300
C 	C 	0.29339 0.29668 0.68238 0.01200
C 	C 	0.28916 0.29821 0.65414 0.07800
C 	C 	0.24703 0.29659 0.64142 -0.08300
C 	C 	0.20762 0.28946 0.65791 0.01400
N 	N 	0.16804 0.25640 0.69605 -0.15300
C 	C 	0.13639 0.23742 0.67411 0.00200
C 	C 	0.15943 0.25839 0.65022 -0.04300
N 	N 	0.33373 0.31982 0.64345 -0.15200
C 	C 	0.36652 0.33207 0.66491 0.00300
C 	C 	0.34285 0.31884 0.68959 -0.04600
H 	H 	0.25992 0.29342 0.72129 0.04900
H 	H 	0.24393 0.29816 0.61932 0.05300
H 	H 	0.14804 0.24098 0.62999 0.05600
H 	H 	0.35842 0.33654 0.70936 0.05000
H 	H 	0.16410 0.23913 0.71466 0.07500
H 	H 	0.34099 0.33697 0.62470 0.08100
C 	C 	0.61254 0.02192 0.67038 0.00100
C 	C 	0.62485 0.00159 0.64817 -0.04200
H 	H 	0.60590 0.99297 0.62821 0.04800
C 	C 	0.17029 0.02406 0.64697 0.07600
C 	C 	0.18526 0.00013 0.62765 -0.08100
C 	C 	0.20615 0.97147 0.63742 0.00700
C 	C 	0.21296 0.96778 0.66547 0.07900
C 	C 	0.19715 0.99107 0.68478 -0.08600
C 	C 	0.17661 0.01994 0.67497 0.01500
N 	N 	0.13260 0.03399 0.64217 -0.14900
C 	C 	0.11373 0.03469 0.66680 -0.00100
C 	C 	0.14067 0.02708 0.68776 -0.04600
N 	N 	0.25196 0.95982 0.67023 -0.15200
C 	C 	0.27021 0.95856 0.64546 -0.00100
C 	C 	0.24277 0.96563 0.62456 -0.04300
H 	H 	0.18052 0.00342 0.60583 0.05100
H 	H 	0.20188 0.98784 0.70661 0.05400
H 	H 	0.12792 0.01576 0.70814 0.04700
H 	H 	0.25694 0.98032 0.60491 0.04900
H 	H 	0.11390 0.02918 0.62322 0.08400
H 	H 	0.27229 0.96811 0.68886 0.09400
C 	C 	0.48210 0.43688 0.81640 0.07500
C 	C 	0.44235 0.43898 0.82879 -0.08500
C 	C 	0.45218 0.47859 0.84649 0.01200
C 	C 	0.49989 0.51402 0.85241 0.07400
C 	C 	0.53976 0.51112 0.84072 -0.08500
C 	C 	0.53004 0.47159 0.82291 0.00800
N 	N 	0.47886 0.41824 0.79083 -0.15100
C 	C 	0.52435 0.44081 0.78084 -0.00500
C 	C 	0.55713 0.47403 0.80026 -0.04800
N 	N 	0.50299 0.53505 0.87727 -0.15100
C 	C 	0.45765 0.51286 0.88740 0.00300
C 	C 	0.42511 0.47722 0.86898 -0.05200
H 	H 	0.40506 0.41155 0.82416 0.05000
H 	H 	0.57702 0.53859 0.84538 0.04800
H 	H 	0.59023 0.50580 0.79520 0.01900
H 	H 	0.39247 0.44566 0.87478 0.03200
H 	H 	0.44647 0.40226 0.77861 0.09100
H 	H 	0.53534 0.55241 0.88944 0.08500
C 	C 	0.41273 0.72284 0.97476 0.07500
C 	C 	0.43844 0.76304 0.95869 -0.08400
C 	C 	0.46787 0.80757 0.97219 0.01100
C 	C 	0.46815 0.81316 0.00047 0.07600
C 	C 	0.43986 0.77386 0.01650 -0.08400
C 	C 	0.41283 0.72839 0.00322 0.01100
N 	N 	0.40801 0.67892 0.96788 -0.15100
C 	C 	0.40674 0.65663 0.99159 -0.00100
C 	C 	0.40853 0.68600 0.01394 -0.04400
N 	N 	0.47967 0.85909 0.00765 -0.15200
C 	C 	0.48654 0.88294 0.98400 -0.00100
C 	C 	0.47925 0.85189 0.96147 -0.04600
H 	H 	0.43796 0.75907 0.93655 0.05200
H 	H 	0.43985 0.77823 0.03859 0.05200
H 	H 	0.42211 0.68386 0.03435 0.04000
H 	H 	0.46779 0.85669 0.94104 0.04600
H 	H 	0.41944 0.67076 0.94935 0.09600
H 	H 	0.46921 0.86944 0.02585 0.09100
C 	C 	0.47760 0.32582 0.97713 0.07600
C 	C 	0.45412 0.27666 0.96898 -0.08300
C 	C 	0.45027 0.24298 0.98859 0.01200
C 	C 	0.47108 0.25768 0.01491 0.07500
C 	C 	0.49591 0.30681 0.02283 -0.08300
C 	C 	0.49908 0.34062 0.00340 0.01100
N 	N 	0.46363 0.35778 0.96729 -0.15100
C 	C 	0.47566 0.39284 0.98708 -0.00100
C 	C 	0.49788 0.38345 0.00981 -0.04300
N 	N 	0.48205 0.22432 0.02569 -0.15100
C 	C 	0.46847 0.18837 0.00633 0.00300
C 	C 	0.44889 0.19875 0.98283 -0.04600
H 	H 	0.43790 0.26504 0.94846 0.05300
H 	H 	0.51206 0.31831 0.04337 0.05100
H 	H 	0.49734 0.39624 0.03057 0.05100
H 	H 	0.44900 0.18461 0.96236 0.05400
H 	H 	0.43608 0.34940 0.95202 0.08600
H 	H 	0.50872 0.23159 0.04134 0.08600
C 	C 	0.41678 0.01939 0.84872 0.08000
C 	C 	0.38165 0.99867 0.82714 -0.09000
C 	C 	0.39153 0.02171 0.80197 0.01600
C 	C 	0.43515 0.06372 0.79856 0.07200
C 	C 	0.46945 0.08506 0.82063 -0.08000
C 	C 	0.45980 0.06117 0.84541 0.00800
N 	N 	0.40601 0.01414 0.87533 -0.15200
C 	C 	0.44277 0.05182 0.88937 -0.00500
C 	C 	0.47599 0.08289 0.87118 -0.03900
N 	N 	0.44843 0.06599 0.77236 -0.15200
C 	C 	0.41402 0.02578 0.75900 -0.00900
C 	C 	0.37800 0.99746 0.77666 -0.04500
H 	H 	0.34813 0.96572 0.82974 0.05100
H 	H 	0.50321 0.11783 0.81817 0.04900
H 	H 	0.51320 0.10975 0.87658 0.04700
H 	H 	0.35594 0.95874 0.77389 0.04800
H 	H 	0.38154 0.98179 0.88383 0.06100
H 	H 	0.48443 0.08568 0.76612 0.05900
C 	C 	0.61689 0.22688 0.98388 0.00100
C 	C 	0.63977 0.26124 0.00505 -0.04700
H 	H 	0.64207 0.25293 0.02635 0.04000
C 	C 	0.27590 0.68699 0.01041 0.07800
C 	C 	0.29784 0.72262 0.99094 -0.08200
C 	C 	0.30744 0.76987 0.99810 0.01300
C 	C 	0.30010 0.78245 0.02430 0.07700
C 	C 	0.28145 0.74785 0.04445 -0.08400
C 	C 	0.26857 0.69962 0.03690 0.01200
N 	N 	0.24129 0.64197 0.00322 -0.15100
C 	C 	0.21094 0.62589 0.02444 0.00600
C 	C 	0.22730 0.66056 0.04588 -0.05100
N 	N 	0.32916 0.82982 0.02985 -0.15100
C 	C 	0.35587 0.84740 0.00740 0.00200
C 	C 	0.34283 0.81120 0.98708 -0.04700
H 	H 	0.30424 0.71323 0.97046 0.05400
H 	H 	0.27537 0.75764 0.06490 0.05000
H 	H 	0.20378 0.66339 0.06122 0.04000
H 	H 	0.36461 0.81242 0.96972 0.04100
H 	H 	0.23066 0.62951 0.98286 0.09600
H 	H 	0.33796 0.84650 0.04944 0.08900
C 	C 	0.08605 0.48919 0.85965 0.07000
C 	C 	0.05890 0.49658 0.83828 -0.08900
C 	C 	0.02982 0.45738 0.82044 0.00800
N 	N 	0.09281 0.51078 0.88470 -0.15300
C 	C 	0.09654 0.48041 0.90291 -0.00400
C 	C 	0.01196 0.41854 0.78006 0.00200
C 	C 	0.01857 0.46113 0.79324 -0.05100
H 	H 	0.05872 0.53101 0.83642 0.04800
H 	H 	0.02984 0.49501 0.78315 0.02900
H 	H 	0.08072 0.53618 0.88969 0.08000
C 	C 	0.60959 0.69967 0.97811 0.00200
H 	H 	0.61447 0.74601 0.01366 0.04000
H 	H 	0.63994 0.66053 0.95671 0.08400
C 	C 	0.23063 0.21132 0.99840 0.07500
C 	C 	0.25853 0.24396 0.01977 -0.08400
C 	C 	0.25530 0.28713 0.02290 0.01000
C 	C 	0.22543 0.29755 0.00520 0.07500
C 	C 	0.19715 0.26456 0.98404 -0.08500
C 	C 	0.20150 0.22211 0.98042 0.01000
N 	N 	0.21198 0.16327 0.00042 -0.15200
C 	C 	0.17063 0.14311 0.98414 -0.00100
C 	C 	0.16340 0.17867 0.97111 -0.04400
N 	N 	0.24460 0.34547 0.00250 -0.15200
C 	C 	0.28737 0.36594 0.01752 -0.00000
C 	C 	0.29468 0.33072 0.03092 -0.04400
H 	H 	0.28179 0.23592 0.03358 0.05200
H 	H 	0.17368 0.27245 0.97029 0.05100
H 	H 	0.12777 0.17436 0.96412 0.05500
H 	H 	0.33052 0.33461 0.03709 0.05500
H 	H 	0.21859 0.14671 0.01734 0.08300
H 	H 	0.23678 0.36137 0.98566 0.08400
C 	C 	0.06387 0.71711 0.97847 0.07600
C 	C 	0.04221 0.74125 0.96390 -0.08400
C 	C 	0.03292 0.84071 0.99298 -0.00100
C 	C 	0.02583 0.81128 0.96972 -0.04800
N 	N 	0.05916 0.67363 0.97028 -0.15000
H 	H 	0.03673 0.73688 0.94178 0.05100
H 	H 	0.03144 0.82328 0.94883 0.04300
H 	H 	0.04078 0.65493 0.95212 0.08300
C 	C 	0.99429 0.19206 0.02108 0.05700
C 	C 	0.01886 0.24110 0.02946 -0.06700
C 	C 	0.02351 0.27538 0.01004 0.00200
N 	N 	0.00597 0.15865 0.03120 -0.14000
C 	C 	0.02456 0.31947 0.01603 -0.04500
H 	H 	0.03460 0.25212 0.05012 0.04900
H 	H 	0.02383 0.33309 0.03654 0.05100
H 	H 	0.03302 0.16578 0.04659 0.08700
C 	C 	0.99440 0.06919 0.83727 -0.09100
C 	C 	0.99648 0.03339 0.85325 0.00300
N 	N 	0.96809 0.07712 0.79149 -0.15800
C 	C 	0.01184 0.03956 0.88058 -0.02700
H 	H 	0.02064 0.10681 0.84080 0.05500
H 	H 	0.02654 0.07340 0.89237 0.05000
H 	H 	0.00058 0.10802 0.78764 0.07200
C 	C 	0.54982 0.49118 0.48606 0.07400
C 	C 	0.58080 0.48284 0.50445 -0.08700
C 	C 	0.59946 0.51333 0.52803 0.01100
C 	C 	0.58797 0.55103 0.53289 0.07300
C 	C 	0.55793 0.55991 0.51408 -0.08600
C 	C 	0.53772 0.52826 0.49121 0.00900
N 	N 	0.54609 0.48054 0.45889 -0.15100
C 	C 	0.53277 0.51147 0.44672 -0.00300
C 	C 	0.52625 0.54096 0.46611 -0.04800
N 	N 	0.58837 0.55967 0.56006 -0.15300
C 	C 	0.59906 0.52736 0.57275 0.00400
C 	C 	0.60641 0.49806 0.55349 -0.05100
H 	H 	0.58972 0.45352 0.50068 0.05100
H 	H 	0.54896 0.58922 0.51776 0.04800
H 	H 	0.52654 0.57503 0.46194 0.02700
H 	H 	0.60045 0.46171 0.55727 0.03700
H 	H 	0.56283 0.46224 0.44906 0.09100
H 	H 	0.56899 0.57613 0.56900 0.08600
C 	C 	0.51298 0.56388 0.14396 0.07300
C 	C 	0.50374 0.58076 0.16894 -0.08300
C 	C 	0.48891 0.54928 0.19078 0.01000
C 	C 	0.48561 0.50339 0.18828 0.07300
C 	C 	0.49452 0.48631 0.16327 -0.08300
C 	C 	0.50866 0.51759 0.14126 0.01000
N 	N 	0.50491 0.57857 0.11946 -0.15500
C 	C 	0.49474 0.54177 0.10116 -0.00600
C 	C 	0.49653 0.50309 0.11388 -0.04600
N 	N 	0.49411 0.48930 0.21292 -0.15500
C 	C 	0.50380 0.52630 0.23095 -0.00400
C 	C 	0.49980 0.56371 0.21817 -0.04100
H 	H 	0.50705 0.61674 0.17109 0.05000
H 	H 	0.49123 0.45034 0.16114 0.04900
H 	H 	0.47684 0.46586 0.10643 0.05200
H 	H 	0.51611 0.60072 0.22606 0.04900
H 	H 	0.49367 0.60523 0.11693 0.08000
H 	H 	0.50422 0.46198 0.21597 0.07000
C 	C 	0.48203 0.95474 0.46171 0.07600
C 	C 	0.45010 0.96123 0.47945 -0.08400
C 	C 	0.45767 0.95870 0.50770 0.00800
C 	C 	0.49967 0.95752 0.51810 0.06900
C 	C 	0.53443 0.95634 0.50045 -0.08200
C 	C 	0.52289 0.95107 0.47214 0.00700
N 	N 	0.49020 0.97223 0.43633 -0.15200
C 	C 	0.53581 0.97967 0.43046 -0.00100
C 	C 	0.55740 0.96715 0.45211 -0.04600
N 	N 	0.51139 0.97795 0.54355 -0.15300
C 	C 	0.47662 0.99119 0.54988 -0.00200
C 	C 	0.44338 0.98086 0.52780 -0.05200
H 	H 	0.42289 0.97138 0.47167 0.05300
H 	H 	0.57037 0.96286 0.50828 0.04800
H 	H 	0.59663 0.98219 0.45610 0.03400
H 	H 	0.40881 0.98225 0.52800 0.04500
H 	H 	0.47203 0.98979 0.42708 0.09400
H 	H 	0.53594 0.97463 0.55754 0.08400
C 	C 	0.55522 0.84446 0.35756 0.07500
C 	C 	0.55541 0.80597 0.37184 -0.08400
C 	C 	0.53209 0.75996 0.35900 0.01100
C 	C 	0.51607 0.75368 0.33163 0.07700
C 	C 	0.52079 0.79301 0.31637 -0.08300
C 	C 	0.53710 0.83771 0.33040 0.01000
N 	N 	0.58907 0.89064 0.36242 -0.15200
C 	C 	0.59369 0.91304 0.33849 -0.00100
C 	C 	0.56134 0.88178 0.31833 -0.04900
N 	N 	0.51680 0.71438 0.32036 -0.15000
C 	C 	0.53176 0.69445 0.34051 0.00400
C 	C 	0.54319 0.72286 0.36456 -0.05200
H 	H 	0.57600 0.81221 0.39117 0.04900
H 	H 	0.51556 0.78977 0.29421 0.05300
H 	H 	0.56497 0.88699 0.29644 0.05000
H 	H 	0.54720 0.71151 0.38491 0.02800
H 	H 	0.61521 0.90299 0.37870 0.08500
H 	H 	0.49767 0.69642 0.30220 0.09300
C 	C 	0.46859 0.26326 0.36496 0.07600
C 	C 	0.49904 0.24605 0.37748 -0.08200
C 	C 	0.50354 0.20838 0.36385 0.01100
C 	C 	0.48588 0.19459 0.33697 0.07600
C 	C 	0.45965 0.21509 0.32340 -0.08400
C 	C 	0.44792 0.24670 0.33864 0.00900
N 	N 	0.47394 0.30802 0.37002 -0.15200
C 	C 	0.45677 0.32021 0.34719 0.00100
C 	C 	0.44036 0.28305 0.32730 -0.04500
N 	N 	0.51277 0.17734 0.32392 -0.14800
C 	C 	0.54641 0.17770 0.34251 -0.00400
C 	C 	0.54280 0.19843 0.36738 -0.04000
H 	H 	0.52086 0.26353 0.39600 0.05300
H 	H 	0.45189 0.20950 0.30144 0.04900
H 	H 	0.43904 0.28820 0.30543 0.04200
H 	H 	0.55816 0.19528 0.38703 0.04800
H 	H 	0.49957 0.33289 0.38429 0.09500
H 	H 	0.50242 0.15752 0.30526 0.06600
C 	C 	0.57777 0.07640 0.18717 0.07600
C 	C 	0.58676 0.09601 0.16111 -0.08600
C 	C 	0.55213 0.07026 0.13998 0.01100
C 	C 	0.51519 0.02398 0.14349 0.07200
C 	C 	0.51107 0.00147 0.16863 -0.07900
C 	C 	0.54056 0.03049 0.19088 0.00200
N 	N 	0.61181 0.08971 0.20772 -0.15200
C 	C 	0.59547 0.05333 0.22556 -0.00100
C 	C 	0.55250 0.01456 0.21472 -0.04900
N 	N 	0.49950 0.00005 0.11907 -0.14800
C 	C 	0.52514 0.03159 0.09977 -0.00900
C 	C 	0.56012 0.07473 0.11236 -0.04800
H 	H 	0.61999 0.12853 0.15724 0.05100
H 	H 	0.48760 0.96318 0.17049 0.04900
H 	H 	0.52630 0.98572 0.22659 0.02600
H 	H 	0.57900 0.10875 0.10233 0.01800
H 	H 	0.63698 0.12549 0.21284 0.08600
H 	H 	0.46553 0.96971 0.11544 0.08400
C 	C 	0.01218 0.39205 0.52484 0.08300
C 	C 	0.03748 0.39969 0.50041 -0.09000
C 	C 	0.00953 0.38042 0.47584 0.02000
C 	C 	0.02465 0.39788 0.45007 -0.04200
N 	N 	0.03141 0.41929 0.54801 -0.15100
C 	C 	0.99315 0.41594 0.56263 -0.01200
H 	H 	0.07684 0.42204 0.50033 0.05300
H 	H 	0.06076 0.42631 0.44590 0.04200
H 	H 	0.06712 0.43055 0.55590 0.09000
N 	N 	0.65861 0.47718 0.30332 -0.15100
C 	C 	0.64299 0.49938 0.32185 -0.00100
H 	H 	0.63527 0.44806 0.29035 0.08800
C 	C 	0.27237 0.48016 0.34573 0.07600
C 	C 	0.22700 0.44829 0.35594 -0.08500
C 	C 	0.18689 0.42556 0.33723 0.01300
C 	C 	0.19170 0.43462 0.30930 0.07500
C 	C 	0.23734 0.46603 0.29907 -0.08400
C 	C 	0.27716 0.48949 0.31787 0.01000
N 	N 	0.31554 0.48726 0.35728 -0.15200
C 	C 	0.34742 0.49984 0.33683 -0.00400
C 	C 	0.32537 0.50255 0.31216 -0.04100
N 	N 	0.14897 0.42920 0.29794 -0.15100
C 	C 	0.11722 0.41748 0.31847 0.00100
C 	C 	0.13933 0.41481 0.34315 -0.04600
H 	H 	0.22310 0.44131 0.37764 0.05100
H 	H 	0.24133 0.47302 0.27737 0.05200
H 	H 	0.33854 0.50050 0.29203 0.04700
H 	H 	0.12766 0.41963 0.36325 0.05300
H 	H 	0.31971 0.47278 0.37572 0.08500
H 	H 	0.14601 0.44574 0.28005 0.08900
C 	C 	0.01864 0.03466 0.52834 0.07700
C 	C 	0.05321 0.03495 0.50997 -0.08400
C 	C 	0.04404 0.03781 0.48193 0.00900
N 	N 	0.03096 0.05481 0.55387 -0.15300
C 	C 	0.05906 0.01808 0.46081 -0.06000
H 	H 	0.08653 0.03441 0.51730 0.05000
H 	H 	0.08482 0.00348 0.46286 0.04600
H 	H 	0.06577 0.06810 0.56349 0.08800
H 	H 	0.06504 0.22192 0.27023 0.05300
C 	C 	0.77857 0.07760 0.33405 0.00100
H 	H 	0.76956 0.04610 0.29200 0.05600
C 	C 	0.26228 0.00487 0.37272 0.07800
C 	C 	0.30761 0.03983 0.36384 -0.08600
C 	C 	0.34511 0.02657 0.36115 0.01500
C 	C 	0.33603 0.97900 0.36321 0.07400
C 	C 	0.28889 0.94275 0.36843 -0.08100
C 	C 	0.25333 0.95717 0.37532 0.00700
N 	N 	0.21995 0.00668 0.36753 -0.15400
C 	C 	0.18399 0.96064 0.36676 -0.00600
C 	C 	0.20326 0.92877 0.37118 -0.03900
N 	N 	0.36853 0.97104 0.34883 -0.15300
C 	C 	0.39925 0.01357 0.33804 0.00200
C 	C 	0.38435 0.04839 0.34441 -0.04600
H 	H 	0.31235 0.07474 0.35753 0.05300
H 	H 	0.27947 0.90494 0.36557 0.05100
H 	H 	0.18626 0.89163 0.36346 0.04500
H 	H 	0.40687 0.08701 0.34331 0.05300
H 	H 	0.21743 0.03478 0.35748 0.06800
H 	H 	0.37579 0.94172 0.35124 0.08400
C 	C 	0.10798 0.01655 0.18731 0.07700
C 	C 	0.06507 0.96646 0.13814 0.07000
C 	C 	0.06981 0.94087 0.16038 -0.08200
C 	C 	0.09538 0.96766 0.18419 0.00700
H 	H 	0.05198 0.90179 0.15974 0.05100
H 	H 	0.06681 0.91219 0.21501 0.03300
Ni	Ni	0.09348 0.03107 0.31216 1.09800
O 	O 	0.15734 0.12602 0.35196 -0.41500
C 	C 	0.15130 0.13639 0.32655 0.27400
Ni	Ni	0.97946 0.38767 0.28163 1.06600
O 	O 	0.98848 0.46931 0.35025 -0.70900
O 	O 	0.00711 0.40618 0.38867 -0.36600
C 	C 	0.99055 0.32053 0.32029 0.25400
O 	O 	0.01534 0.89951 0.97110 -0.41000
N 	N 	0.64434 0.69381 0.96450 -0.15200
C 	C 	0.63083 0.74082 0.99528 -0.04800
C 	C 	0.07004 0.27036 0.30421 0.07500
C 	C 	0.07673 0.23313 0.29146 -0.08200
C 	C 	0.08489 0.28413 0.33177 0.01600
N 	N 	0.03195 0.27874 0.29750 -0.15300
C 	C 	0.02092 0.29561 0.32061 0.00800
C 	C 	0.05367 0.30060 0.34205 -0.04800
C 	C 	0.11896 0.18296 0.29881 -0.03900
H 	H 	0.10701 0.15830 0.28105 0.05600
H 	H 	0.00773 0.26292 0.28056 0.08600
C 	C 	0.09145 0.98552 0.25768 0.24800
C 	C 	0.08925 0.94964 0.21031 -0.04800
Ni	Ni	0.98347 0.40188 0.34847 1.09500
O 	O 	0.98044 0.33526 0.34377 -0.38100
C 	C 	0.03021 0.41332 0.82255 0.07400
C 	C 	0.09536 0.20860 0.30779 0.01500
O 	O 	0.96990 0.32376 0.29681 -0.41200
C 	C 	0.98207 0.38858 0.43495 -0.00500
Ni	Ni	0.09869 0.08114 0.37293 1.06700
H 	H 	0.98720 0.00769 0.64965 0.15300
C 	C 	0.98130 0.41032 0.40865 0.23900
C 	C 	0.14556 0.17990 0.32179 -0.00600
N 	N 	0.63600 0.24461 0.95950 -0.15000
C 	C 	0.71672 0.65430 0.68800 0.00200
C 	C 	0.67863 0.52233 0.34268 -0.04500
H 	H 	0.67083 0.53000 0.36324 0.05200
C 	C 	0.78992 0.05677 0.31153 -0.04200
N 	N 	0.74016 0.67198 0.66461 -0.15200
H 	H 	0.70538 0.68984 0.72441 0.04500
C 	C 	0.70147 0.18152 0.64611 0.01000
N 	N 	0.64919 0.19250 0.67308 -0.15200
H 	H 	0.63541 0.19522 0.69207 0.08200
C 	C 	0.72677 0.41508 0.67896 0.07600
C 	C 	0.73084 0.46944 0.71053 -0.04400
H 	H 	0.72510 0.37696 0.64092 0.05300
C 	C 	0.72864 0.69107 0.70781 -0.04900
C 	C 	0.67385 0.01426 0.65252 0.00900
N 	N 	0.65184 0.04670 0.68769 -0.15100
H 	H 	0.69404 0.99935 0.61257 0.04700
H 	H 	0.65608 0.07540 0.70080 0.08500
C 	C 	0.67088 0.29033 0.96484 0.07600
C 	C 	0.67410 0.30184 0.99283 0.01100
H 	H 	0.72415 0.33769 0.02776 0.05200
H 	H 	0.63540 0.22333 0.94251 0.09000
C 	C 	0.68776 0.73029 0.97313 0.07200
C 	C 	0.71600 0.78560 0.01303 -0.08900
C 	C 	0.68074 0.76031 0.99206 0.00900
H 	H 	0.71028 0.80866 0.02786 0.05000
C 	C 	0.71694 0.51253 0.33681 0.01200
C 	C 	0.70341 0.48468 0.31239 0.07600
N 	N 	0.80267 0.07447 0.35697 -0.15100
H 	H 	0.79499 0.07998 0.37711 0.07600
C 	C 	0.11021 0.22240 0.33478 0.07900
C 	C 	0.10585 0.26067 0.34747 -0.08500
C 	C 	0.71875 0.33532 0.00561 -0.08300
N 	N 	0.14188 0.20644 0.34317 -0.15000
H 	H 	0.74830 0.50465 0.72095 0.05000
H 	H 	0.78291 0.74276 0.62727 0.05200
H 	H 	0.71178 0.43043 0.28777 0.05200
H 	H 	0.74529 0.15316 0.62584 0.05200
C 	C 	0.74187 0.17240 0.64372 -0.08400
C 	C 	0.69679 0.20588 0.66908 0.07400
C 	C 	0.73260 0.22222 0.69057 -0.08400
C 	C 	0.75602 0.44600 0.70031 0.01000
C 	C 	0.74781 0.40163 0.65735 -0.08200
C 	C 	0.76678 0.71991 0.66909 0.07600
C 	C 	0.77814 0.75273 0.64797 -0.08500
C 	C 	0.76090 0.73295 0.69570 0.01000
C 	C 	0.75636 0.05217 0.63703 0.07100
C 	C 	0.70649 0.02042 0.63170 -0.07900
C 	C 	0.68926 0.04182 0.67684 0.07800
C 	C 	0.71173 0.31387 0.94854 -0.08300
C 	C 	0.75327 0.35328 0.96052 0.01000
C 	C 	0.75729 0.36316 0.98872 0.07600
H 	H 	0.71211 0.30038 0.92794 0.05100
C 	C 	0.73116 0.72587 0.97405 -0.08800
C 	C 	0.76618 0.75085 0.99514 0.00800
C 	C 	0.75918 0.78081 0.01408 0.07300
H 	H 	0.73692 0.70284 0.95922 0.04800
C 	C 	0.74647 0.50620 0.35711 -0.08300
C 	C 	0.72144 0.45153 0.30691 -0.08200
H 	H 	0.75636 0.52732 0.37625 0.05200
C 	C 	0.82661 0.04950 0.34976 0.07500
C 	C 	0.85476 0.03109 0.30714 -0.08100
C 	C 	0.81956 0.03784 0.32186 0.01100
H 	H 	0.85427 0.03098 0.28491 0.05300
C 	C 	0.99226 0.12315 0.01150 -0.01600
C 	C 	0.09342 0.43943 0.88929 -0.05200
H 	H 	0.04767 0.30405 0.36360 0.05500
O 	O 	0.00004 0.37724 0.65443 -0.69600
C 	C 	0.73869 0.07501 0.68188 -0.08300
H 	H 	0.11677 0.27079 0.36889 0.05100
H 	H 	0.15048 0.20370 0.36374 0.07100
C 	C 	0.08658 0.44499 0.86172 0.00900
C 	C 	0.78180 0.79828 0.65421 0.01100
C 	C 	0.74941 0.44414 0.32765 0.01200
H 	H 	0.72893 0.24110 0.70855 0.05200
C 	C 	0.80730 0.46655 0.70015 -0.08200
C 	C 	0.77643 0.81152 0.68084 0.07500
C 	C 	0.76512 0.77875 0.70201 -0.08500
H 	H 	0.76037 0.78876 0.72270 0.05100
C 	C 	0.77208 0.07933 0.66165 0.01400
H 	H 	0.75087 0.09631 0.70094 0.05600
H 	H 	0.78584 0.01424 0.61402 0.08700
N 	N 	0.80480 0.38476 0.99745 -0.15400
H 	H 	0.81729 0.38481 0.01761 0.09100
N 	N 	0.80266 0.81682 0.02306 -0.15300
C 	C 	0.81610 0.76974 0.99228 -0.04900
H 	H 	0.80740 0.85017 0.03093 0.08300
C 	C 	0.76179 0.47095 0.35227 0.07700
C 	C 	0.86796 0.05277 0.36438 -0.08400
C 	C 	0.07920 0.01542 0.14096 0.00600
H 	H 	0.10647 0.05890 0.22152 0.09400
C 	C 	0.05878 0.40636 0.84316 -0.08900
C 	C 	0.09713 0.04051 0.16621 -0.08400
N 	N 	0.10998 0.02906 0.21405 -0.15100
C 	C 	0.09865 0.98859 0.22799 0.00300
N 	N 	0.01932 0.38974 0.79794 -0.15000
C 	C 	0.07137 0.72343 0.00689 0.01100
C 	C 	0.80050 0.36962 0.95164 -0.04500
H 	H 	0.83001 0.49119 0.71660 0.05000
C 	C 	0.77849 0.19015 0.66483 0.07500
C 	C 	0.79913 0.42198 0.65730 0.01200
N 	N 	0.79215 0.04318 0.62749 -0.15100
C 	C 	0.77311 0.21324 0.68822 0.00900
H 	H 	0.80742 0.36297 0.63739 0.05000
N 	N 	0.82637 0.20590 0.66022 -0.15100
C 	C 	0.81988 0.24444 0.69828 -0.04300
H 	H 	0.82875 0.27708 0.71042 0.05600
C 	C 	0.82840 0.45363 0.67839 0.07500
C 	C 	0.82461 0.39858 0.64731 -0.04400
N 	N 	0.80297 0.85955 0.68515 -0.15100
C 	C 	0.82541 0.87696 0.66146 0.00100
C 	C 	0.81317 0.84003 0.64175 -0.04900
H 	H 	0.83580 0.84131 0.62480 0.04400
H 	H 	0.81587 0.87657 0.70447 0.09100
C 	C 	0.83027 0.06316 0.64605 -0.00300
C 	C 	0.81930 0.08647 0.66741 -0.04300
H 	H 	0.83591 0.09272 0.68795 0.05500
C 	C 	0.83103 0.38885 0.97496 0.00200
H 	H 	0.81011 0.35604 0.93337 0.04400
C 	C 	0.83740 0.81051 0.00973 0.00300
H 	H 	0.83275 0.76452 0.97403 0.04100
N 	N 	0.80339 0.47356 0.36352 -0.15200
C 	C 	0.81797 0.44904 0.34602 0.00200
C 	C 	0.78564 0.43048 0.32331 -0.04400
H 	H 	0.79532 0.42246 0.30333 0.05300
H 	H 	0.82696 0.50092 0.37739 0.08300
C 	C 	0.89859 0.03800 0.35064 0.01100
C 	C 	0.89268 0.02793 0.32237 0.07200
N 	N 	0.93600 0.03664 0.31182 -0.15100
H 	H 	0.87752 0.06890 0.38495 0.05000
H 	H 	0.94435 0.04280 0.29117 0.08700
C 	C 	0.88423 0.40473 0.97595 0.25800
O 	O 	0.07302 0.58325 0.97909 -0.36200
O 	O 	0.08473 0.01953 0.27038 -0.36400
H 	H 	0.03012 0.36365 0.79229 0.08500
C 	C 	0.94768 0.05411 0.35746 -0.04900
H 	H 	0.02075 0.91255 0.10820 0.09200
N 	N 	0.87085 0.45120 0.68140 -0.15300
H 	H 	0.83993 0.20445 0.64096 0.08100
H 	H 	0.94897 0.54446 0.16333 0.04800
H 	H 	0.96260 0.53720 0.11008 0.07800
N 	N 	0.94159 0.50018 0.11268 -0.15200
O 	O 	0.88294 0.43794 0.32661 -0.38700
O 	O 	0.88703 0.45538 0.37244 -0.39500
C 	C 	0.86723 0.45253 0.34784 0.27000
O 	O 	0.90749 0.88280 0.02626 -0.37200
C 	C 	0.88632 0.85049 0.00590 0.24900
O 	O 	0.91278 0.84655 0.98579 -0.40600
O 	O 	0.90614 0.40249 0.99938 -0.36800
O 	O 	0.90819 0.41772 0.95280 -0.40900
O 	O 	0.89545 0.05757 0.67142 -0.38600
O 	O 	0.89413 0.93522 0.63768 -0.41900
O 	O 	0.87668 0.95770 0.67994 -0.37000
O 	O 	0.86139 0.00787 0.63359 -0.39500
C 	C 	0.86625 0.04448 0.64936 0.27200
C 	C 	0.86750 0.92510 0.65975 0.26700
O 	O 	0.88935 0.35474 0.64982 -0.39600
C 	C 	0.89977 0.39322 0.66537 0.26200
C 	C 	0.90139 0.27879 0.67644 0.27100
C 	C 	0.85188 0.23930 0.68039 -0.00200
C 	C 	0.86871 0.41762 0.66270 -0.00200
H 	H 	0.89273 0.46112 0.69951 0.08700
H 	H 	0.96262 0.20135 0.95460 0.05400
H 	H 	0.97181 0.12051 0.96785 0.04900
H 	H 	0.96741 0.28848 0.95665 0.08700
H 	H 	0.90009 0.93297 0.82449 0.05000
H 	H 	0.89987 0.96493 0.77249 0.04800
H 	H 	0.93306 0.03776 0.48327 0.04900
C 	C 	0.93066 0.73236 0.36104 0.01100
H 	H 	0.94616 0.70056 0.39686 0.05100
C 	C 	0.96944 0.05336 0.33303 -0.01000
H 	H 	0.96683 0.07560 0.37572 0.04700
H 	H 	0.09968 0.07595 0.16985 0.05100
C 	C 	0.01843 0.87950 0.99391 0.26600
C 	C 	0.92718 0.48017 0.13713 0.07100
H 	H 	0.05892 0.37189 0.84491 0.05000
H 	H 	0.08111 0.40472 0.89858 0.04600
C 	C 	0.94235 0.69951 0.37467 -0.08400
C 	C 	0.94029 0.04367 0.77191 0.00500
C 	C 	0.00569 0.33043 0.99244 0.01100
C 	C 	0.94189 0.50713 0.16214 -0.08300
C 	C 	0.94924 0.48478 0.18515 0.00500
H 	H 	0.95890 0.53155 0.22127 0.04300
C 	C 	0.99371 0.85595 0.34481 0.23900
C 	C 	0.94390 0.49545 0.21213 -0.03900
H 	H 	0.94185 0.61024 0.30033 0.05100
H 	H 	0.95349 0.78704 0.30400 0.06200
O 	O 	0.98849 0.52075 0.06169 -0.40800
C 	C 	0.93231 0.69620 0.31660 -0.08300
N 	N 	0.94058 0.77615 0.32359 -0.15400
C 	C 	0.95483 0.80617 0.34608 0.00000
H 	H 	0.92892 0.69499 0.29439 0.04800
O 	O 	0.99334 0.88920 0.36184 -0.37400
C 	C 	0.92653 0.73132 0.33239 0.07300
C 	C 	0.94668 0.66562 0.33033 0.00800
C 	C 	0.93782 0.62012 0.32118 -0.04300
C 	C 	0.00803 0.98056 0.07782 0.25500
C 	C 	0.99003 0.36855 0.99099 0.26200
C 	C 	0.96800 0.47590 0.06997 0.24400
O 	O 	0.03279 0.04272 0.31054 -0.37100
O 	O 	0.03666 0.03793 0.39396 -0.41000
H 	H 	0.01174 0.95198 0.31090 0.15700
O 	O 	0.05443 0.09562 0.34709 -0.39200
C 	C 	0.02047 0.06212 0.33112 0.26500
O 	O 	0.92937 0.46727 0.27496 -0.36800
O 	O 	0.95521 0.53717 0.32031 -0.38000
H 	H 	0.91561 0.37902 0.31324 0.15200
C 	C 	0.95264 0.55633 0.34441 0.26100
O 	O 	0.96327 0.95398 0.98377 -0.70800
Ni	Ni	0.97545 0.93819 0.02181 1.09800
Ni	Ni	0.95146 0.89987 0.95916 1.06100
O 	O 	0.99085 0.93978 0.06325 -0.37700
H 	H 	0.93463 0.96051 0.98316 0.15500
O 	O 	0.00187 0.48094 0.97606 -0.69300
Ni	Ni	0.97658 0.45180 0.01206 1.09500
Ni	Ni	0.97805 0.42881 0.94808 1.06500
O 	O 	0.96266 0.36847 0.96995 -0.39000
O 	O 	0.95958 0.43981 0.05252 -0.36900
H 	H 	0.98811 0.50321 0.97167 0.14800
Ni	Ni	0.93700 0.02496 0.68355 1.09800
O 	O 	0.92091 0.03132 0.72354 -0.36200
O 	O 	0.94554 0.06257 0.59809 -0.41600
Ni	Ni	0.91877 0.99908 0.61912 1.06700
O 	O 	0.92880 0.40296 0.68736 -0.38000
O 	O 	0.92141 0.28278 0.65240 -0.41800
O 	O 	0.92544 0.30915 0.69732 -0.37200
Ni	Ni	0.94108 0.34277 0.63050 1.06500
C 	C 	0.00357 0.26137 0.98346 0.09300
C 	C 	0.97828 0.21235 0.97527 -0.09900
C 	C 	0.97317 0.17800 0.99473 0.01900
C 	C 	0.97183 0.13396 0.98852 -0.04300
N 	N 	0.99311 0.29513 0.97277 -0.16200
C 	C 	0.96296 0.98505 0.84886 0.07300
C 	C 	0.92626 0.97063 0.82795 -0.08900
C 	C 	0.92493 0.00629 0.81134 0.01600
C 	C 	0.91271 0.99934 0.78353 -0.04900
N 	N 	0.95762 0.96108 0.87220 -0.15200
H 	H 	0.92702 0.92872 0.87645 0.06900
C 	C 	0.93402 0.36017 0.49932 -0.07700
H 	H 	0.89598 0.35300 0.49852 0.04700
H 	H 	0.91289 0.37312 0.55603 0.03600
H 	H 	0.90895 0.36781 0.44638 0.08600
C 	C 	0.94005 0.43710 0.18380 0.07400
C 	C 	0.92444 0.40966 0.15912 -0.08700
C 	C 	0.91785 0.43201 0.13581 0.01100
C 	C 	0.93368 0.45380 0.22637 -0.00800
C 	C 	0.94183 0.46535 0.09581 0.00100
C 	C 	0.92736 0.42251 0.10941 -0.04800
C 	C 	0.96630 0.03712 0.49067 -0.09300
C 	C 	0.97542 0.03452 0.51878 0.00100
C 	C 	0.96100 0.05560 0.53949 -0.05400
N 	N 	0.99028 0.02079 0.44641 -0.16100
H 	H 	0.93605 0.07103 0.53682 0.04200
H 	H 	0.95641 0.00976 0.43603 0.08300
C 	C 	0.95092 0.66671 0.35862 0.07600
N 	N 	0.94554 0.62413 0.36740 -0.15200
C 	C 	0.93921 0.59593 0.34465 -0.00100
C 	C 	0.94836 0.78007 0.36973 -0.04200
H 	H 	0.96955 0.79507 0.38878 0.05200
H 	H 	0.95490 0.61799 0.38718 0.08000
N 	N 	0.03072 0.94623 0.11773 -0.15100
H 	H 	0.06134 0.75686 0.04401 0.05100
H 	H 	0.06170 0.66918 0.03705 0.03300
C 	C 	0.00145 0.03858 0.47242 0.08500
C 	C 	0.98877 0.98371 0.92057 0.24100
C 	C 	0.04961 0.60062 0.99428 0.27000
C 	C 	0.99675 0.06867 0.56045 -0.01800
H 	H 	0.93112 0.38656 0.21425 0.05600
C 	C 	0.06332 0.65223 0.99332 0.00000
C 	C 	0.07084 0.68188 0.01644 -0.04200
N 	N 	0.94217 0.36694 0.45026 -0.15100
H 	H 	0.93799 0.39494 0.10389 0.04800
C 	C 	0.95920 0.05463 0.81548 0.07400
C 	C 	0.99001 0.08061 0.58880 0.24300
O 	O 	0.97432 0.55046 0.36685 -0.41500
C 	C 	0.02657 0.77004 0.97898 0.01100
C 	C 	0.98700 0.99419 0.89146 -0.01000
C 	C 	0.02458 0.00733 0.43930 0.00700
C 	C 	0.95523 0.04726 0.74339 0.24400
C 	C 	0.03662 0.00544 0.41058 0.24600
O 	O 	0.02434 0.57616 0.01471 -0.41300
O 	O 	0.99908 0.39904 0.01189 -0.38500
O 	O 	0.04521 0.96068 0.31829 -0.70500
O 	O 	0.00059 0.88754 0.01662 -0.35700
O 	O 	0.01769 0.02094 0.06558 -0.41200
O 	O 	0.99195 0.05074 0.99347 -0.40000
C 	C 	0.02370 0.98224 0.10681 -0.00800
Ni	Ni	0.95416 0.47125 0.31512 1.09700
O 	O 	0.95031 0.40385 0.31287 -0.69800
O 	O 	0.94710 0.42363 0.40340 -0.40500
Ni	Ni	0.96052 0.48536 0.38195 1.06700
C 	C 	0.95052 0.45582 0.25499 0.24900
O 	O 	0.96987 0.02757 0.64816 -0.70300
Ni	Ni	0.98002 0.37884 0.69340 1.09400
O 	O 	0.97708 0.39109 0.73472 -0.36800
O 	O 	0.95566 0.40158 0.60654 -0.41600
C 	C 	0.03366 0.77592 0.00734 0.07900
C 	C 	0.05594 0.75246 0.02188 -0.08400
N 	N 	0.03657 0.81848 0.01578 -0.14900
H 	H 	0.05101 0.83581 0.03487 0.08800
C 	C 	0.95861 0.36180 0.47520 0.06200
C 	C 	0.96142 0.37209 0.52421 -0.00800
C 	C 	0.94920 0.38834 0.54785 -0.04800
N 	N 	0.92972 0.41806 0.20867 -0.15200
H 	H 	0.91774 0.37243 0.15808 0.04900
C 	C 	0.05192 0.02543 0.12158 -0.05100
H 	H 	0.06016 0.06114 0.11490 0.03500
