data_crystal

_cell_length_a 27.28022
_cell_length_b 24.01935
_cell_length_c 36.78592
_cell_angle_alpha 86.90839
_cell_angle_beta  88.46073
_cell_angle_gamma 122.80582

_symmetry_space_group_name_	'P 1'
_symmetry_space_group_name_H-M	'P 1'

loop_
_symmetry_equiv_pos_as_xyz
  x,y,z

loop_
_atom_site_label
_atom_site_type_symbol
_atom_site_fract_x
_atom_site_fract_y
_atom_site_fract_z
_atom_site_charge
Zn	Zn	0.93875 0.94802 0.28427 1.22000
Zn	Zn	0.04951 0.92922 0.25148 1.19200
C 	C 	0.03124 0.99518 0.40309 0.31000
Zn	Zn	0.03596 0.95254 0.33059 1.22000
Zn	Zn	0.92115 0.94468 0.36714 1.19400
H 	H 	0.05651 0.03030 0.27640 0.18000
C 	C 	0.01061 0.82361 0.31711 0.29300
O 	O 	0.85869 0.95492 0.34978 -0.47600
O 	O 	0.84731 0.90874 0.29540 -0.40400
O 	O 	0.02904 0.98170 0.28145 -0.79500
O 	O 	0.98353 0.88851 0.21934 -0.45800
O 	O 	0.95691 0.03936 0.28634 -0.44100
O 	O 	0.91641 0.91246 0.23618 -0.43100
O 	O 	0.98400 0.04684 0.34519 -0.42200
O 	O 	0.12067 0.93630 0.26987 -0.46300
H 	H 	0.91942 0.85666 0.33118 0.17900
O 	O 	0.12662 0.99129 0.32027 -0.40500
O 	O 	0.94390 0.90581 0.32994 -0.79500
O 	O 	0.97404 0.95509 0.40614 -0.47200
O 	O 	0.02538 0.86622 0.34192 -0.44600
O 	O 	0.06052 0.01135 0.37121 -0.42500
O 	O 	0.99698 0.83535 0.28484 -0.41300
C 	C 	0.82581 0.92303 0.32329 0.31500
C 	C 	0.95500 0.91707 0.21186 0.31500
C 	C 	0.97678 0.07350 0.31517 0.31900
C 	C 	0.14483 0.96100 0.30046 0.29300
Zn	Zn	0.98330 0.46104 0.31976 1.22200
Zn	Zn	0.10196 0.48745 0.27719 1.19500
C 	C 	0.06819 0.47610 0.43877 0.27700
Zn	Zn	0.08038 0.45662 0.36082 1.22100
Zn	Zn	0.97068 0.46506 0.40081 1.19200
H 	H 	0.09873 0.55980 0.32456 0.18200
C 	C 	0.04498 0.34512 0.31649 0.28800
O 	O 	0.89753 0.45710 0.38585 -0.46700
O 	O 	0.89185 0.41229 0.33128 -0.40200
O 	O 	0.07594 0.51172 0.32100 -0.78900
O 	O 	0.05035 0.48798 0.23969 -0.46200
O 	O 	0.98756 0.54542 0.31721 -0.44600
O 	O 	0.96407 0.41864 0.27338 -0.43500
O 	O 	0.02070 0.56530 0.37389 -0.42500
O 	O 	0.16575 0.47425 0.28838 -0.46100
H 	H 	0.96365 0.37190 0.36708 0.17200
O 	O 	0.17102 0.49765 0.34816 -0.40500
O 	O 	0.99078 0.42085 0.36505 -0.79600
O 	O 	0.03851 0.50337 0.43151 -0.45700
O 	O 	0.06415 0.37019 0.34785 -0.44400
O 	O 	0.10069 0.47291 0.41272 -0.42100
O 	O 	0.04022 0.38024 0.28957 -0.41000
C 	C 	0.86917 0.43020 0.35665 0.29300
C 	C 	0.99282 0.45079 0.24215 0.30500
C 	C 	0.00415 0.58269 0.34466 0.32600
C 	C 	0.18993 0.48182 0.31970 0.29800
Zn	Zn	0.39554 0.87598 0.31781 1.22200
Zn	Zn	0.49961 0.85248 0.28250 1.19300
C 	C 	0.49201 0.92134 0.43548 0.33700
Zn	Zn	0.49367 0.87991 0.36201 1.22200
Zn	Zn	0.38391 0.88674 0.39862 1.19400
H 	H 	0.51276 0.95619 0.30716 0.16900
C 	C 	0.45952 0.74719 0.34764 0.29000
O 	O 	0.32518 0.90421 0.37966 -0.46700
O 	O 	0.30711 0.84386 0.33050 -0.41700
O 	O 	0.48452 0.90797 0.31315 -0.79200
O 	O 	0.43766 0.82050 0.24683 -0.44700
O 	O 	0.41770 0.96925 0.31607 -0.45400
O 	O 	0.36661 0.83018 0.27348 -0.43500
O 	O 	0.45212 0.98406 0.37320 -0.42900
O 	O 	0.56797 0.85451 0.30088 -0.46400
H 	H 	0.37528 0.78922 0.36781 0.17900
O 	O 	0.58440 0.91834 0.34895 -0.39400
O 	O 	0.40192 0.83820 0.36451 -0.79100
O 	O 	0.43544 0.89649 0.43857 -0.47200
O 	O 	0.48122 0.79194 0.37162 -0.44200
O 	O 	0.52062 0.93775 0.40326 -0.44100
O 	O 	0.44319 0.75961 0.31645 -0.41300
C 	C 	0.29430 0.87725 0.35152 0.32300
C 	C 	0.40164 0.84092 0.24504 0.27900
C 	C 	0.44626 0.00865 0.34184 0.30900
C 	C 	0.60326 0.89509 0.32422 0.28700
Zn	Zn	0.46185 0.42203 0.30142 1.22300
Zn	Zn	0.57980 0.41715 0.27062 1.19400
C 	C 	0.51756 0.41808 0.42730 0.30900
Zn	Zn	0.54504 0.40473 0.35120 1.22200
Zn	Zn	0.41796 0.37459 0.38277 1.19800
H 	H 	0.57787 0.50271 0.30738 0.17000
C 	C 	0.52655 0.28589 0.32341 0.31700
O 	O 	0.35647 0.38731 0.36620 -0.47200
O 	O 	0.36977 0.38139 0.30502 -0.40700
O 	O 	0.55066 0.45431 0.30581 -0.79100
O 	O 	0.52361 0.39157 0.23192 -0.45900
O 	O 	0.47572 0.50690 0.31607 -0.44700
O 	O 	0.45428 0.41281 0.24831 -0.42700
O 	O 	0.47735 0.48298 0.37705 -0.42100
O 	O 	0.64878 0.42208 0.29048 -0.47100
H 	H 	0.43367 0.31378 0.33466 0.17800
O 	O 	0.63676 0.44483 0.34870 -0.40700
O 	O 	0.45532 0.36037 0.34122 -0.79400
O 	O 	0.46309 0.37056 0.42339 -0.46800
O 	O 	0.53340 0.31714 0.35287 -0.45200
O 	O 	0.55608 0.44445 0.39899 -0.43000
O 	O 	0.52478 0.31224 0.29146 -0.42200
C 	C 	0.34155 0.38768 0.33250 0.32700
C 	C 	0.49691 0.42269 0.22553 0.30600
C 	C 	0.47681 0.52126 0.35018 0.32100
C 	C 	0.66281 0.42838 0.32473 0.32000
Zn	Zn	0.08775 0.19369 0.95636 1.22400
Zn	Zn	0.05559 0.04373 0.93357 1.19700
C 	C 	0.05538 0.10550 0.08639 0.29300
Zn	Zn	0.05016 0.07225 0.01269 1.22400
Zn	Zn	0.06049 0.21004 0.03653 1.19500
H 	H 	0.13775 0.12636 0.97001 0.17800
C 	C 	0.93791 0.97313 0.98893 0.32600
O 	O 	0.08573 0.29475 0.00918 -0.47400
O 	O 	0.06726 0.26736 0.95083 -0.39300
O 	O 	0.09698 0.11369 0.96746 -0.80000
O 	O 	0.01569 0.07708 0.90306 -0.46100
O 	O 	0.16831 0.26120 0.96824 -0.42500
O 	O 	0.07950 0.18965 0.90352 -0.44700
O 	O 	0.14972 0.23430 0.02982 -0.40900
O 	O 	0.06738 0.97505 0.95479 -0.46300
H 	H 	0.99035 0.12831 0.99293 0.17000
O 	O 	0.06633 0.99389 0.01533 -0.40700
O 	O 	0.03095 0.14479 0.99897 -0.77700
O 	O 	0.04836 0.15566 0.08336 -0.45100
O 	O 	0.96700 0.00543 0.01638 -0.46000
O 	O 	0.08340 0.09662 0.06009 -0.43800
O 	O 	0.96517 0.97829 0.95758 -0.41100
C 	C 	0.06075 0.29430 0.97913 0.30100
C 	C 	0.03996 0.13762 0.88739 0.28800
C 	C 	0.18505 0.27310 0.00172 0.27900
C 	C 	0.05334 0.95254 0.98950 0.29700
Zn	Zn	0.88116 0.54690 0.98789 1.22100
Zn	Zn	0.83648 0.39408 0.95626 1.19500
C 	C 	0.87971 0.45493 0.11301 0.33900
Zn	Zn	0.84411 0.41744 0.03824 1.22000
Zn	Zn	0.86999 0.55623 0.07063 1.19300
H 	H 	0.92511 0.47142 0.98981 0.16800
C 	C 	0.72879 0.32283 0.01443 0.30800
O 	O 	0.90180 0.64927 0.05248 -0.47200
O 	O 	0.87292 0.62916 0.99420 -0.40400
O 	O 	0.88474 0.46129 0.99051 -0.78700
O 	O 	0.81902 0.44541 0.92106 -0.45700
O 	O 	0.96565 0.60531 0.99549 -0.42900
O 	O 	0.86431 0.55277 0.93588 -0.42000
O 	O 	0.95709 0.57502 0.05670 -0.40500
O 	O 	0.83360 0.31493 0.97651 -0.46500
H 	H 	0.78824 0.48260 0.02948 0.17300
O 	O 	0.86113 0.34126 0.03436 -0.38800
O 	O 	0.82912 0.49556 0.03183 -0.79300
O 	O 	0.85925 0.49352 0.11293 -0.47300
O 	O 	0.75957 0.34658 0.04308 -0.43800
O 	O 	0.88903 0.43552 0.08229 -0.44500
O 	O 	0.74920 0.35605 0.98217 -0.40500
C 	C 	0.89892 0.67075 0.01945 0.32300
C 	C 	0.85761 0.50902 0.91296 0.30100
C 	C 	0.98965 0.60970 0.02667 0.27300
C 	C 	0.86551 0.31851 0.00354 0.28900
Zn	Zn	0.37891 0.03788 0.98309 1.22500
Zn	Zn	0.34247 0.88595 0.95384 1.19400
C 	C 	0.37246 0.94565 0.10878 0.33500
Zn	Zn	0.35060 0.91353 0.03418 1.22100
Zn	Zn	0.36218 0.04589 0.06575 1.19700
H 	H 	0.43084 0.97070 0.98555 0.17300
C 	C 	0.23548 0.81326 0.01277 0.31400
O 	O 	0.38774 0.13652 0.04712 -0.47400
O 	O 	0.36311 0.11508 0.98808 -0.40300
O 	O 	0.38949 0.95728 0.98640 -0.79200
O 	O 	0.32105 0.93267 0.91788 -0.44500
O 	O 	0.46204 0.10187 0.99190 -0.42700
O 	O 	0.36352 0.04108 0.93057 -0.40200
O 	O 	0.45266 0.07381 0.05354 -0.39700
O 	O 	0.34452 0.81031 0.97598 -0.45300
H 	H 	0.28516 0.96671 0.02343 0.17200
O 	O 	0.37738 0.84576 0.03190 -0.38900
O 	O 	0.32688 0.98407 0.02654 -0.79900
O 	O 	0.35446 0.98652 0.10914 -0.47300
O 	O 	0.26848 0.83709 0.04043 -0.44400
O 	O 	0.39382 0.93855 0.07837 -0.45000
O 	O 	0.25462 0.84444 0.97995 -0.41000
C 	C 	0.38306 0.15621 0.01410 0.32400
C 	C 	0.35716 0.99647 0.90834 0.24200
C 	C 	0.48520 0.10969 0.02372 0.27700
C 	C 	0.37988 0.81966 0.00198 0.28800
Zn	Zn	0.58424 0.70424 0.97032 1.22400
Zn	Zn	0.49543 0.54958 0.94178 1.19500
C 	C 	0.56580 0.59501 0.09337 0.29500
Zn	Zn	0.52919 0.57085 0.01977 1.22100
Zn	Zn	0.58047 0.71776 0.05599 1.19800
H 	H 	0.59698 0.60172 0.96485 0.17500
C 	C 	0.40829 0.51268 0.00831 0.31500
O 	O 	0.60256 0.80727 0.03828 -0.45500
O 	O 	0.60520 0.80222 0.97721 -0.38100
O 	O 	0.56358 0.60623 0.97018 -0.79200
O 	O 	0.48970 0.61581 0.91111 -0.46100
O 	O 	0.66693 0.73825 0.97483 -0.43300
O 	O 	0.56502 0.72008 0.92102 -0.43400
O 	O 	0.66656 0.73822 0.03715 -0.40000
O 	O 	0.46347 0.45695 0.96091 -0.46400
H 	H 	0.49674 0.65788 0.01483 0.17300
O 	O 	0.51848 0.47759 0.01093 -0.40700
O 	O 	0.53480 0.66228 0.01659 -0.79100
O 	O 	0.57457 0.65426 0.09629 -0.45400
O 	O 	0.44521 0.52149 0.03281 -0.45200
O 	O 	0.57518 0.57802 0.06171 -0.44200
O 	O 	0.42790 0.54686 0.97638 -0.41400
C 	C 	0.58591 0.81524 0.00637 0.28300
C 	C 	0.53578 0.67351 0.89867 0.30700
C 	C 	0.69364 0.76409 0.00449 0.28400
C 	C 	0.48189 0.43613 0.98804 0.29600
Zn	Zn	0.98142 0.06596 0.66979 1.22300
Zn	Zn	0.09234 0.06726 0.70447 1.19700
C 	C 	0.04285 0.03898 0.54770 0.28000
Zn	Zn	0.08086 0.07151 0.62194 1.22300
Zn	Zn	0.95340 0.04611 0.59070 1.19500
H 	H 	0.01440 0.97726 0.66836 0.16800
C 	C 	0.16100 0.19642 0.65304 0.28500
O 	O 	0.88318 0.04235 0.61101 -0.45800
O 	O 	0.92486 0.09981 0.66075 -0.40100
O 	O 	0.03428 0.02615 0.66768 -0.78400
O 	O 	0.04563 0.07416 0.74421 -0.47900
O 	O 	0.91054 0.97513 0.67870 -0.44200
O 	O 	0.00696 0.12301 0.71086 -0.44600
O 	O 	0.92183 0.95083 0.62125 -0.42100
O 	O 	0.16725 0.08090 0.68670 -0.47200
H 	H 	0.03697 0.14847 0.61666 0.17200
O 	O 	0.13788 0.03768 0.63161 -0.40600
O 	O 	0.01998 0.10013 0.62081 -0.79100
O 	O 	0.98704 0.01648 0.55360 -0.44600
O 	O 	0.14763 0.16393 0.62337 -0.44200
O 	O 	0.07217 0.03407 0.57421 -0.42300
O 	O 	0.12625 0.16938 0.68315 -0.41700
C 	C 	0.87915 0.06690 0.64134 0.29200
C 	C 	0.02245 0.10988 0.74207 0.34500
C 	C 	0.89203 0.93332 0.65309 0.28500
C 	C 	0.17553 0.05785 0.65715 0.32300
Zn	Zn	0.95147 0.49457 0.70264 1.22100
Zn	Zn	0.05965 0.49710 0.74561 1.19300
C 	C 	0.02768 0.45653 0.58751 0.31500
Zn	Zn	0.05319 0.49098 0.66334 1.22100
Zn	Zn	0.93986 0.47963 0.62034 1.19500
H 	H 	0.98071 0.40284 0.71074 0.17800
C 	C 	0.13148 0.61955 0.69136 0.28400
O 	O 	0.87156 0.48396 0.63325 -0.47700
O 	O 	0.90095 0.53512 0.68657 -0.40500
O 	O 	0.00198 0.45195 0.70821 -0.78800
O 	O 	0.01316 0.51010 0.78335 -0.46100
O 	O 	0.87853 0.40532 0.70773 -0.44500
O 	O 	0.96954 0.54762 0.74551 -0.43300
O 	O 	0.89572 0.38304 0.65110 -0.42400
O 	O 	0.13652 0.51023 0.73038 -0.46300
H 	H 	0.01923 0.57614 0.65171 0.16800
O 	O 	0.10417 0.45276 0.67998 -0.41300
O 	O 	0.99882 0.52726 0.65595 -0.79500
O 	O 	0.97482 0.44536 0.58702 -0.46200
O 	O 	0.12260 0.58214 0.66419 -0.44200
O 	O 	0.04678 0.44691 0.61819 -0.43800
O 	O 	0.09364 0.59633 0.72000 -0.41600
C 	C 	0.86746 0.51807 0.65863 0.31700
C 	C 	0.97667 0.52949 0.77843 0.30100
C 	C 	0.86005 0.36802 0.68009 0.31700
C 	C 	0.14550 0.48400 0.70249 0.32100
Zn	Zn	0.45109 0.99512 0.69874 1.21700
Zn	Zn	0.55885 0.99411 0.74000 1.19000
C 	C 	0.51631 0.95412 0.58163 0.27900
Zn	Zn	0.55288 0.99817 0.65526 1.22000
Zn	Zn	0.42772 0.96717 0.61931 1.19300
H 	H 	0.48235 0.90491 0.70158 0.17700
C 	C 	0.63289 0.12282 0.68678 0.28600
O 	O 	0.36110 0.97303 0.63454 -0.47900
O 	O 	0.39796 0.03285 0.68473 -0.39400
O 	O 	0.50330 0.95393 0.70081 -0.79000
O 	O 	0.51270 0.00764 0.77819 -0.45900
O 	O 	0.37897 0.90661 0.70995 -0.45200
O 	O 	0.47561 0.05214 0.73969 -0.44100
O 	O 	0.38753 0.87518 0.65431 -0.42300
O 	O 	0.63263 0.99901 0.72656 -0.47000
H 	H 	0.50813 0.07228 0.64414 0.17200
O 	O 	0.61188 0.96968 0.66842 -0.41300
O 	O 	0.49142 0.02436 0.65016 -0.79000
O 	O 	0.46035 0.92571 0.59054 -0.45600
O 	O 	0.61653 0.09119 0.65691 -0.44100
O 	O 	0.55280 0.96410 0.60703 -0.42500
O 	O 	0.59954 0.09750 0.71754 -0.41000
C 	C 	0.36066 0.01132 0.65875 0.29600
C 	C 	0.47973 0.03164 0.77270 0.32800
C 	C 	0.35633 0.86464 0.68473 0.32300
C 	C 	0.65004 0.99642 0.69335 0.30900
Zn	Zn	0.47919 0.55926 0.68821 1.22200
Zn	Zn	0.59802 0.56578 0.71841 1.19600
C 	C 	0.53537 0.52845 0.56353 0.33600
Zn	Zn	0.57572 0.56285 0.63825 1.22200
Zn	Zn	0.46495 0.56969 0.60543 1.19600
H 	H 	0.51419 0.47345 0.68714 0.17600
C 	C 	0.66361 0.69001 0.66316 0.31400
O 	O 	0.39349 0.56428 0.62433 -0.46300
O 	O 	0.42404 0.59650 0.68110 -0.40600
O 	O 	0.53409 0.52241 0.68563 -0.79500
O 	O 	0.55864 0.58019 0.75920 -0.47300
O 	O 	0.40969 0.46751 0.68705 -0.44200
O 	O 	0.49453 0.60285 0.73458 -0.43700
O 	O 	0.42355 0.46558 0.62566 -0.41900
O 	O 	0.66900 0.57451 0.69679 -0.46500
H 	H 	0.54576 0.65291 0.64218 0.17100
O 	O 	0.62985 0.52363 0.64482 -0.39700
O 	O 	0.52416 0.60398 0.64186 -0.79400
O 	O 	0.50620 0.55788 0.56335 -0.46800
O 	O 	0.64738 0.65275 0.63530 -0.44700
O 	O 	0.55022 0.51228 0.59422 -0.44400
O 	O 	0.63260 0.66669 0.69478 -0.42900
C 	C 	0.38344 0.57565 0.65747 0.29300
C 	C 	0.53602 0.61651 0.75697 0.30800
C 	C 	0.38950 0.44039 0.65620 0.30900
C 	C 	0.67103 0.54518 0.66820 0.29100
C 	C 	0.69043 0.18576 0.68587 -0.04700
C 	C 	0.73711 0.19422 0.66388 -0.03400
C 	C 	0.79226 0.25258 0.66331 0.01400
C 	C 	0.80104 0.30574 0.68266 -0.12700
C 	C 	0.75270 0.29915 0.70309 0.12400
C 	C 	0.69870 0.23755 0.70619 -0.07400
H 	H 	0.82833 0.25659 0.64755 0.03400
H 	H 	0.66226 0.23152 0.72260 0.05400
H 	H 	0.73112 0.15440 0.64809 0.04700
N 	N 	0.75657 0.35218 0.71761 -0.20300
H 	H 	0.78912 0.40073 0.70828 0.09900
H 	H 	0.72298 0.34530 0.73552 0.08200
C 	C 	0.18884 0.68171 0.69281 -0.04300
C 	C 	0.23990 0.68310 0.68443 -0.03500
C 	C 	0.29453 0.74212 0.68460 0.02000
C 	C 	0.29913 0.80131 0.69225 -0.12900
C 	C 	0.24745 0.79975 0.70215 0.12400
C 	C 	0.19272 0.73939 0.70261 -0.07400
H 	H 	0.33347 0.74234 0.67754 0.03000
H 	H 	0.15315 0.73786 0.70974 0.05100
H 	H 	0.23727 0.63845 0.67741 0.05100
N 	N 	0.24976 0.85556 0.71061 -0.20600
H 	H 	0.28913 0.90117 0.71099 0.09900
H 	H 	0.21130 0.85361 0.71715 0.08100
C 	C 	0.72219 0.54108 0.66116 -0.04700
C 	C 	0.71475 0.48078 0.65319 -0.03600
C 	C 	0.76248 0.47408 0.65211 0.01600
C 	C 	0.81856 0.52790 0.65859 -0.12900
C 	C 	0.82702 0.59040 0.66418 0.12300
C 	C 	0.77830 0.59587 0.66641 -0.06900
H 	H 	0.75570 0.42648 0.64690 0.03100
H 	H 	0.78413 0.64291 0.67198 0.05400
H 	H 	0.67158 0.43828 0.64915 0.04000
N 	N 	0.88154 0.64553 0.66603 -0.20200
H 	H 	0.91893 0.64523 0.65980 0.08300
H 	H 	0.88700 0.69066 0.67176 0.08000
C 	C 	0.32433 0.55966 0.66900 -0.04800
C 	C 	0.28235 0.54200 0.64318 -0.03200
C 	C 	0.22380 0.51431 0.65438 0.01600
C 	C 	0.20580 0.50311 0.69168 -0.12600
C 	C 	0.24775 0.51911 0.71793 0.12500
C 	C 	0.30728 0.55220 0.70627 -0.07500
H 	H 	0.19252 0.50296 0.63392 0.03600
H 	H 	0.33947 0.56606 0.72640 0.05600
H 	H 	0.29494 0.54910 0.61430 0.04400
N 	N 	0.23090 0.49842 0.75380 -0.20200
H 	H 	0.18739 0.46265 0.76226 0.08200
H 	H 	0.26209 0.51372 0.77324 0.07900
C 	C 	0.83497 0.86930 0.65871 -0.04700
C 	C 	0.82454 0.81517 0.63981 -0.03800
C 	C 	0.76848 0.75766 0.64095 0.01600
C 	C 	0.72147 0.75362 0.66048 -0.12700
C 	C 	0.73153 0.80875 0.67916 0.12200
C 	C 	0.78893 0.86469 0.67971 -0.07300
H 	H 	0.76163 0.71580 0.62682 0.03300
H 	H 	0.79693 0.90637 0.69453 0.05800
H 	H 	0.85990 0.81768 0.62404 0.04200
N 	N 	0.68634 0.81004 0.69462 -0.20300
H 	H 	0.64331 0.77647 0.68839 0.08800
H 	H 	0.69439 0.84827 0.71079 0.08400
C 	C 	0.21779 0.26098 0.65333 -0.04500
C 	C 	0.26044 0.28231 0.62449 -0.03600
C 	C 	0.31595 0.33976 0.62610 0.01200
C 	C 	0.32946 0.37906 0.65583 -0.12100
C 	C 	0.28499 0.35956 0.68423 0.12400
C 	C 	0.23076 0.29905 0.68340 -0.07300
H 	H 	0.34870 0.35359 0.60411 0.03400
H 	H 	0.19791 0.28315 0.70561 0.05500
H 	H 	0.25135 0.25312 0.60123 0.04700
N 	N 	0.29275 0.39950 0.71123 -0.20200
H 	H 	0.32187 0.45062 0.70742 0.10000
H 	H 	0.26363 0.38078 0.73437 0.08100
C 	C 	0.82105 0.04854 0.65632 -0.03500
C 	C 	0.77091 0.98938 0.64752 -0.04300
C 	C 	0.71608 0.96986 0.66277 0.00400
C 	C 	0.70962 0.01058 0.68580 -0.10400
C 	C 	0.76075 0.06950 0.69618 0.11900
C 	C 	0.81597 0.08763 0.68118 -0.07100
H 	H 	0.67797 0.92380 0.65559 0.03600
H 	H 	0.85487 0.13281 0.68853 0.05800
H 	H 	0.77444 0.95776 0.62915 0.04600
N 	N 	0.75758 0.10852 0.72042 -0.20300
H 	H 	0.71809 0.10117 0.72981 0.09600
H 	H 	0.79580 0.14960 0.72885 0.08400
C 	C 	0.31360 0.02376 0.65905 -0.03700
C 	C 	0.25809 0.97465 0.64890 -0.04700
C 	C 	0.21414 0.98738 0.64653 0.00500
C 	C 	0.22497 0.04946 0.65415 -0.12000
C 	C 	0.28180 0.10043 0.66286 0.12700
C 	C 	0.32519 0.08628 0.66636 -0.07500
H 	H 	0.17098 0.94819 0.63977 0.02500
H 	H 	0.36859 0.12480 0.67324 0.05400
H 	H 	0.24884 0.92623 0.64307 0.04500
N 	N 	0.29552 0.16334 0.66629 -0.20400
H 	H 	0.26676 0.17746 0.65931 0.09900
H 	H 	0.33672 0.19986 0.67413 0.08400
C 	C 	0.54369 0.65755 0.78723 -0.05600
C 	C 	0.49565 0.65600 0.80317 -0.03300
C 	C 	0.49698 0.67372 0.83883 0.01400
C 	C 	0.54557 0.69100 0.85907 -0.13000
C 	C 	0.59784 0.70534 0.84056 0.10900
C 	C 	0.59635 0.68817 0.80456 -0.06800
H 	H 	0.45787 0.66680 0.85207 0.03200
H 	H 	0.63507 0.69457 0.79097 0.04300
H 	H 	0.45565 0.63589 0.78920 0.04500
N 	N 	0.64872 0.73313 0.85752 -0.20700
H 	H 	0.65238 0.75113 0.88314 0.08600
H 	H 	0.68622 0.73999 0.84429 0.07800
C 	C 	0.53260 0.81583 0.00453 -0.09300
C 	C 	0.48291 0.77045 0.02722 -0.01800
C 	C 	0.43005 0.76525 0.02261 -0.00900
C 	C 	0.42666 0.80753 0.99644 -0.09500
C 	C 	0.47615 0.85126 0.97217 0.09200
C 	C 	0.52875 0.85494 0.97659 -0.03400
H 	H 	0.39248 0.73131 0.04109 0.03500
H 	H 	0.56671 0.88828 0.95821 0.04600
H 	H 	0.48513 0.73884 0.04836 -0.01400
N 	N 	0.47379 0.89054 0.94512 -0.19300
H 	H 	0.43473 0.88611 0.93930 0.01600
H 	H 	0.51128 0.92477 0.92860 0.06900
C 	C 	0.45628 0.36449 0.99484 -0.03100
C 	C 	0.49045 0.34095 0.00697 -0.05300
C 	C 	0.46660 0.27278 0.01170 0.03000
C 	C 	0.40778 0.22717 0.00528 -0.14400
C 	C 	0.37263 0.25065 0.99356 0.14300
C 	C 	0.39781 0.31933 0.98749 -0.08000
H 	H 	0.49369 0.25518 0.02082 0.02700
H 	H 	0.37159 0.33763 0.97758 0.06200
H 	H 	0.53582 0.37545 0.01219 0.04500
N 	N 	0.31467 0.20798 0.98908 -0.20700
H 	H 	0.29376 0.15686 0.99523 0.09100
H 	H 	0.28939 0.22606 0.98017 0.08200
C 	C 	0.38685 0.01805 0.87140 -0.02400
C 	C 	0.35647 0.98539 0.84127 -0.05400
C 	C 	0.38683 0.99507 0.80784 0.00700
C 	C 	0.44802 0.03667 0.80423 -0.12400
C 	C 	0.47842 0.07446 0.83352 0.13100
C 	C 	0.44743 0.06444 0.86706 -0.08900
H 	H 	0.36302 0.96705 0.78534 0.02300
H 	H 	0.47085 0.09086 0.89009 0.04800
H 	H 	0.30954 0.95042 0.84414 0.04600
N 	N 	0.53692 0.12052 0.82956 -0.20500
H 	H 	0.56015 0.13266 0.80427 0.09300
H 	H 	0.55941 0.14660 0.85162 0.08100
C 	C 	0.54893 0.15716 0.02528 -0.04800
C 	C 	0.57061 0.20559 0.05058 -0.03400
C 	C 	0.62957 0.25835 0.04753 0.01800
C 	C 	0.66780 0.26319 0.01924 -0.12700
C 	C 	0.64664 0.21184 0.99497 0.13100
C 	C 	0.58718 0.16010 0.99792 -0.05800
H 	H 	0.64507 0.29656 0.06652 0.02700
H 	H 	0.57064 0.12213 0.97869 0.04900
H 	H 	0.54131 0.20410 0.07166 0.04000
N 	N 	0.68312 0.21096 0.96944 -0.20400
H 	H 	0.72821 0.24317 0.96933 0.08800
H 	H 	0.66655 0.17499 0.95054 0.08100
C 	C 	0.05381 0.65409 0.02760 -0.02900
C 	C 	0.07800 0.70523 0.05124 -0.04400
C 	C 	0.13761 0.75578 0.04703 0.02700
C 	C 	0.17398 0.75560 0.01927 -0.13900
C 	C 	0.15047 0.70138 0.99696 0.15200
C 	C 	0.09023 0.65204 0.00079 -0.10000
H 	H 	0.15508 0.79625 0.06464 0.02100
H 	H 	0.07170 0.61216 0.98273 0.05800
H 	H 	0.05016 0.70764 0.07181 0.04200
N 	N 	0.18547 0.69539 0.97264 -0.20800
H 	H 	0.23088 0.72606 0.97224 0.09100
H 	H 	0.16737 0.65716 0.95510 0.08100
C 	C 	0.95035 0.54016 0.81080 -0.05200
C 	C 	0.89177 0.52102 0.81201 -0.03600
C 	C 	0.86301 0.51686 0.84516 0.01800
C 	C 	0.89232 0.53128 0.87757 -0.13300
C 	C 	0.95284 0.55552 0.87592 0.10300
C 	C 	0.98147 0.56093 0.84230 -0.06300
H 	H 	0.81696 0.49888 0.84599 0.03000
H 	H 	0.02742 0.57825 0.84109 0.04900
H 	H 	0.86755 0.50591 0.78771 0.04100
N 	N 	0.98309 0.57111 0.90654 -0.20300
H 	H 	0.96282 0.56491 0.93215 0.05700
H 	H 	0.02766 0.58908 0.90497 0.07700
C 	C 	0.75601 0.81864 0.00101 -0.05400
C 	C 	0.79258 0.82802 0.02931 -0.02800
C 	C 	0.85115 0.88096 0.02609 0.00700
C 	C 	0.87416 0.92470 0.99436 -0.11700
C 	C 	0.83639 0.91827 0.96688 0.12100
C 	C 	0.77811 0.86382 0.96988 -0.05600
H 	H 	0.87891 0.88741 0.04808 0.03000
H 	H 	0.74933 0.85824 0.94862 0.05500
H 	H 	0.77592 0.79399 0.05366 0.04400
N 	N 	0.85488 0.96576 0.93870 -0.20700
H 	H 	0.89437 0.01166 0.93880 0.09600
H 	H 	0.82787 0.95879 0.91746 0.08100
C 	C 	0.23921 0.33605 0.00785 -0.05200
C 	C 	0.28131 0.33651 0.02893 -0.03700
C 	C 	0.33493 0.39594 0.03195 0.01900
C 	C 	0.34695 0.45564 0.01388 -0.14000
C 	C 	0.30175 0.45646 0.99636 0.13600
C 	C 	0.24893 0.39610 0.99223 -0.06300
H 	H 	0.36848 0.39483 0.04644 0.03400
H 	H 	0.21498 0.39603 0.97750 0.06100
H 	H 	0.27360 0.29045 0.04166 0.04200
N 	N 	0.30783 0.51483 0.98500 -0.20300
H 	H 	0.34274 0.56014 0.99249 0.09700
H 	H 	0.27549 0.51503 0.97050 0.08600
C 	C 	0.01643 0.88029 0.99897 -0.03400
C 	C 	0.01828 0.83679 0.97589 -0.04000
C 	C 	0.97671 0.76861 0.98098 0.03700
C 	C 	0.93285 0.74269 0.00940 -0.14000
C 	C 	0.92973 0.78645 0.03223 0.13400
C 	C 	0.97281 0.85476 0.02755 -0.08400
H 	H 	0.97990 0.73549 0.96363 0.03300
H 	H 	0.97050 0.88833 0.04496 0.05400
H 	H 	0.05184 0.85589 0.95380 0.04600
N 	N 	0.88465 0.76342 0.05784 -0.20400
H 	H 	0.84825 0.71474 0.05878 0.08300
H 	H 	0.88438 0.79513 0.07609 0.08000
C 	C 	0.01230 0.30392 0.98108 -0.08700
C 	C 	0.01907 0.35868 0.99737 0.00400
C 	C 	0.97074 0.36246 0.00493 -0.03100
C 	C 	0.91471 0.31096 0.99678 -0.11100
C 	C 	0.90743 0.25513 0.98040 0.11000
C 	C 	0.95682 0.25317 0.97165 -0.06600
H 	H 	0.97680 0.40571 0.01709 0.02500
H 	H 	0.95157 0.21019 0.95958 0.03400
H 	H 	0.06180 0.39797 0.00470 0.02200
N 	N 	0.85332 0.20214 0.97472 -0.20300
H 	H 	0.81548 0.19823 0.98507 0.09900
H 	H 	0.84866 0.16239 0.96134 0.08100
C 	C 	0.02581 0.14658 0.85012 -0.04800
C 	C 	0.97250 0.09766 0.83718 -0.03900
C 	C 	0.96685 0.09269 0.79971 0.02200
C 	C 	0.01467 0.13596 0.77519 -0.13900
C 	C 	0.06309 0.19336 0.78787 0.12700
C 	C 	0.06904 0.19776 0.82557 -0.07700
H 	H 	0.92787 0.05064 0.78999 0.02400
H 	H 	0.10864 0.23856 0.83555 0.05500
H 	H 	0.93718 0.06042 0.85607 0.04500
N 	N 	0.10475 0.24284 0.76400 -0.20800
H 	H 	0.09923 0.24216 0.73600 0.09700
H 	H 	0.14194 0.28388 0.77340 0.07800
C 	C 	0.53334 0.44792 0.46246 -0.05100
C 	C 	0.51218 0.40694 0.49511 -0.03300
C 	C 	0.51679 0.43424 0.52841 0.02100
C 	C 	0.54230 0.50287 0.52950 -0.13000
C 	C 	0.56820 0.54517 0.49694 0.12400
C 	C 	0.56280 0.51708 0.46351 -0.06600
H 	H 	0.49781 0.40156 0.55322 0.03200
H 	H 	0.57997 0.54893 0.43831 0.05700
H 	H 	0.49012 0.35356 0.49458 0.04000
N 	N 	0.59885 0.61240 0.49766 -0.20300
H 	H 	0.60817 0.63477 0.52228 0.08100
H 	H 	0.61588 0.64315 0.47340 0.07900
C 	C 	0.55109 0.55026 0.12677 -0.05000
C 	C 	0.56255 0.57629 0.16102 -0.03400
C 	C 	0.54263 0.53399 0.19295 0.00900
C 	C 	0.51179 0.46497 0.19132 -0.14100
C 	C 	0.50004 0.43793 0.15688 0.13200
C 	C 	0.52029 0.48109 0.12479 -0.07600
H 	H 	0.55214 0.55503 0.21914 0.00700
H 	H 	0.51040 0.46066 0.09842 0.05700
H 	H 	0.58670 0.62951 0.16297 0.04200
N 	N 	0.46818 0.37106 0.15443 -0.20600
H 	H 	0.44920 0.33777 0.17762 0.10000
H 	H 	0.46075 0.35165 0.12894 0.08500
C 	C 	0.53406 0.95487 0.54356 -0.05900
C 	C 	0.54793 0.00881 0.51900 -0.03300
C 	C 	0.54346 0.00105 0.48160 0.03400
C 	C 	0.52434 0.93903 0.46864 -0.14400
C 	C 	0.52036 0.88845 0.49258 0.12300
C 	C 	0.52434 0.89637 0.53020 -0.06200
H 	H 	0.54892 0.04111 0.46322 0.02500
H 	H 	0.51630 0.85563 0.54912 0.04900
H 	H 	0.55730 0.05496 0.52908 0.02100
N 	N 	0.51086 0.83162 0.47972 -0.20500
H 	H 	0.51066 0.82614 0.45173 0.08300
H 	H 	0.50570 0.79325 0.49764 0.07700
C 	C 	0.46390 0.68912 0.35275 -0.04500
C 	C 	0.41347 0.62500 0.35617 -0.03200
C 	C 	0.41806 0.56985 0.35973 0.01700
C 	C 	0.47315 0.57812 0.35831 -0.12700
C 	C 	0.52415 0.64284 0.35734 0.12600
C 	C 	0.51903 0.69804 0.35446 -0.07000
H 	H 	0.37874 0.52047 0.36203 0.03400
H 	H 	0.55796 0.74782 0.35294 0.05800
H 	H 	0.37070 0.61780 0.35575 0.04000
N 	N 	0.57783 0.65222 0.35929 -0.20500
H 	H 	0.58260 0.61211 0.36360 0.08600
H 	H 	0.61542 0.70024 0.35765 0.08200
C 	C 	0.46905 0.08009 0.33623 -0.04900
C 	C 	0.44316 0.10215 0.31195 -0.03100
C 	C 	0.46313 0.16936 0.30742 0.01600
C 	C 	0.50934 0.21585 0.32709 -0.12900
C 	C 	0.53688 0.19408 0.35108 0.12500
C 	C 	0.51573 0.12604 0.35572 -0.07100
H 	H 	0.44163 0.18517 0.28915 0.03100
H 	H 	0.53637 0.10915 0.37408 0.05900
H 	H 	0.40661 0.06695 0.29707 0.05000
N 	N 	0.58416 0.23793 0.36895 -0.20400
H 	H 	0.60492 0.28910 0.36356 0.09900
H 	H 	0.60247 0.22084 0.38747 0.08400
C 	C 	0.39244 0.86354 0.20935 -0.05500
C 	C 	0.43983 0.90130 0.18360 -0.03700
C 	C 	0.43284 0.92797 0.15103 0.02100
C 	C 	0.37818 0.91673 0.14346 -0.13200
C 	C 	0.32939 0.87645 0.16874 0.12300
C 	C 	0.33737 0.85143 0.20194 -0.06800
H 	H 	0.47022 0.95813 0.13171 0.03300
H 	H 	0.30046 0.82157 0.22165 0.05700
H 	H 	0.48261 0.91146 0.18923 0.01900
N 	N 	0.27482 0.85994 0.16090 -0.20300
H 	H 	0.26622 0.87177 0.13514 0.08100
H 	H 	0.23963 0.83230 0.18030 0.08000
C 	C 	0.07774 0.46692 0.47705 -0.04800
C 	C 	0.10970 0.52283 0.49686 -0.02900
C 	C 	0.09881 0.51759 0.53464 0.00800
C 	C 	0.05575 0.45648 0.55282 -0.13100
C 	C 	0.03080 0.39827 0.53387 0.13000
C 	C 	0.04196 0.40408 0.49585 -0.08400
H 	H 	0.11996 0.56213 0.54921 0.01300
H 	H 	0.01930 0.36031 0.48068 0.03300
H 	H 	0.13897 0.57138 0.48262 0.03800
N 	N 	0.99531 0.33719 0.55183 -0.20500
H 	H 	0.98892 0.33138 0.58025 0.09800
H 	H 	0.97535 0.29455 0.53751 0.07300
C 	C 	0.81372 0.42529 0.35087 -0.04600
C 	C 	0.80152 0.46830 0.36723 -0.03400
C 	C 	0.75135 0.46748 0.35946 0.01700
C 	C 	0.71227 0.42334 0.33540 -0.12800
C 	C 	0.72280 0.37705 0.32034 0.12300
C 	C 	0.77432 0.37986 0.32753 -0.07200
H 	H 	0.74370 0.50260 0.37139 0.03300
H 	H 	0.78304 0.34558 0.31552 0.05700
H 	H 	0.83174 0.50377 0.38522 0.04400
N 	N 	0.68305 0.32870 0.30008 -0.20300
H 	H 	0.64038 0.31713 0.29942 0.09100
H 	H 	0.69331 0.29839 0.28696 0.08200
C 	C 	0.23077 0.46062 0.32443 -0.04700
C 	C 	0.27759 0.48312 0.29851 -0.03100
C 	C 	0.31060 0.45458 0.29900 0.01900
C 	C 	0.29701 0.40284 0.32531 -0.12900
C 	C 	0.24707 0.37672 0.34976 0.12700
C 	C 	0.21644 0.40843 0.35049 -0.07000
H 	H 	0.34858 0.47494 0.28004 0.03500
H 	H 	0.17890 0.38944 0.36970 0.05500
H 	H 	0.28839 0.52278 0.27793 0.04000
N 	N 	0.22698 0.31974 0.37133 -0.20300
H 	H 	0.24456 0.29087 0.36816 0.08300
H 	H 	0.19112 0.30174 0.39008 0.08100
C 	C 	0.96066 0.44434 0.20927 -0.04800
C 	C 	0.98866 0.45668 0.17452 -0.03100
C 	C 	0.96114 0.45791 0.14338 0.02200
C 	C 	0.90469 0.44584 0.14628 -0.13000
C 	C 	0.87434 0.42860 0.18115 0.12700
C 	C 	0.90332 0.42977 0.21250 -0.07000
H 	H 	0.98445 0.47011 0.11688 0.03700
H 	H 	0.88117 0.41928 0.23930 0.06000
H 	H 	0.03239 0.46662 0.17162 0.04200
N 	N 	0.81718 0.40862 0.18461 -0.20400
H 	H 	0.79239 0.39889 0.16191 0.08800
H 	H 	0.79600 0.39894 0.21046 0.08300
C 	C 	0.06446 0.04456 0.50996 -0.03500
C 	C 	0.07197 0.99521 0.49779 -0.03900
C 	C 	0.07106 0.98561 0.46063 0.00200
C 	C 	0.06204 0.02487 0.43562 -0.10600
C 	C 	0.06565 0.08212 0.44708 0.12200
C 	C 	0.06562 0.09087 0.48450 -0.07700
H 	H 	0.07110 0.94331 0.45181 0.02500
H 	H 	0.06307 0.13134 0.49386 0.03100
H 	H 	0.07322 0.96060 0.51727 0.04500
N 	N 	0.06716 0.12735 0.42243 -0.20600
H 	H 	0.07070 0.12383 0.39443 0.10100
H 	H 	0.06732 0.16817 0.43112 0.07900
C 	C 	0.01017 0.76309 0.32523 -0.04800
C 	C 	0.04268 0.74833 0.30230 -0.03100
C 	C 	0.04322 0.69124 0.31013 0.02200
C 	C 	0.01070 0.64768 0.34081 -0.12800
C 	C 	0.97915 0.66362 0.36487 0.12400
C 	C 	0.97965 0.72174 0.35682 -0.06600
H 	H 	0.06792 0.67994 0.29183 0.02300
H 	H 	0.95551 0.73419 0.37490 0.04600
H 	H 	0.06777 0.78131 0.27839 0.03800
N 	N 	0.94776 0.62321 0.39521 -0.20200
H 	H 	0.94718 0.58043 0.40266 0.07900
H 	H 	0.92371 0.63492 0.41211 0.07700
C 	C 	0.02924 0.27725 0.31159 -0.04200
C 	C 	0.06846 0.25878 0.32036 -0.03500
C 	C 	0.05113 0.19242 0.32102 0.01900
C 	C 	0.99417 0.14336 0.31316 -0.12900
C 	C 	0.95432 0.16182 0.30374 0.13000
C 	C 	0.97298 0.22921 0.30219 -0.07400
H 	H 	0.08201 0.17899 0.32789 0.02600
H 	H 	0.94268 0.24365 0.29552 0.05500
H 	H 	0.11227 0.29587 0.32713 0.04500
N 	N 	0.89784 0.11525 0.29771 -0.20500
H 	H 	0.88068 0.06459 0.30240 0.10600
H 	H 	0.86958 0.12966 0.28962 0.08700
C 	C 	0.66194 0.90723 0.32555 -0.04800
C 	C 	0.70075 0.93574 0.29445 -0.03400
C 	C 	0.75295 0.93785 0.29317 0.01600
C 	C 	0.76673 0.91068 0.32280 -0.12600
C 	C 	0.72658 0.87952 0.35382 0.11700
C 	C 	0.67535 0.88020 0.35538 -0.06700
H 	H 	0.78334 0.96192 0.26938 0.02900
H 	H 	0.64448 0.85646 0.37900 0.05100
H 	H 	0.69020 0.95584 0.27108 0.02600
N 	N 	0.73571 0.84662 0.38132 -0.20100
H 	H 	0.76972 0.83876 0.37913 0.05900
H 	H 	0.70684 0.82554 0.40456 0.07500
C 	C 	0.18667 0.94615 0.31496 -0.04700
C 	C 	0.23046 0.95125 0.29149 -0.03300
C 	C 	0.26433 0.92727 0.30342 0.01800
C 	C 	0.25455 0.89707 0.33893 -0.12600
C 	C 	0.20972 0.89083 0.36270 0.12500
C 	C 	0.17717 0.91715 0.35072 -0.06800
H 	H 	0.29871 0.93271 0.28510 0.02900
H 	H 	0.14236 0.91178 0.36862 0.05600
H 	H 	0.23787 0.97321 0.26377 0.03500
N 	N 	0.19601 0.85728 0.39622 -0.20200
H 	H 	0.21494 0.83117 0.40441 0.07900
H 	H 	0.16404 0.85458 0.41392 0.08100
C 	C 	0.02812 0.05645 0.11830 -0.03600
C 	C 	0.01657 0.07466 0.15148 -0.04400
C 	C 	0.98869 0.02755 0.18127 0.02700
C 	C 	0.97205 0.96158 0.17838 -0.17000
C 	C 	0.98056 0.94202 0.14435 0.13700
C 	C 	0.00993 0.99011 0.11482 -0.09900
H 	H 	0.98220 0.04299 0.20714 0.01300
H 	H 	0.01702 0.97542 0.08887 0.05400
H 	H 	0.03004 0.12562 0.15441 0.04700
N 	N 	0.95932 0.87715 0.13964 -0.20900
H 	H 	0.93058 0.83932 0.15930 0.09700
H 	H 	0.96938 0.86372 0.11535 0.08100
