data_crystal

_cell_length_a 18.79120
_cell_length_b 17.51516
_cell_length_c 49.38070
_cell_angle_alpha 89.64353
_cell_angle_beta  89.64884
_cell_angle_gamma 119.43047

_symmetry_space_group_name_	'P 1'
_symmetry_space_group_name_H-M	'P 1'

loop_
_symmetry_equiv_pos_as_xyz
  x,y,z

loop_
_atom_site_label
_atom_site_type_symbol
_atom_site_fract_x
_atom_site_fract_y
_atom_site_fract_z
_atom_site_charge
Ni	Ni	0.01574 0.94265 0.72170 1.11900
O 	O 	0.10388 0.23619 0.74019 -0.27000
O 	O 	0.99766 0.00378 0.19100 -0.32500
F 	F 	0.01227 0.68238 0.14973 -0.37000
C 	C 	0.98985 0.15261 0.32952 0.13500
C 	C 	0.02722 0.58950 0.45889 -0.02800
H 	H 	0.03495 0.59160 0.43711 0.14100
C 	C 	0.06987 0.42081 0.57143 0.80700
C 	C 	0.08397 0.26614 0.60656 0.07300
F 	F 	0.07618 0.49332 0.55797 -0.44000
F 	F 	0.98686 0.91871 0.63604 -0.38200
C 	C 	0.03710 0.51640 0.00179 -0.09900
C 	C 	0.02585 0.61583 0.03727 -0.28700
H 	H 	0.03508 0.41152 0.97810 0.07100
H 	H 	0.16268 0.33982 0.84268 0.12700
H 	H 	0.10005 0.49258 0.86042 0.13100
F 	F 	0.01308 0.38783 0.44050 -0.43400
C 	C 	0.10159 0.27001 0.63424 -0.03400
O 	O 	0.10599 0.18080 0.68359 -0.27200
C 	C 	0.03377 0.21363 0.28281 0.28200
O 	O 	0.01487 0.26009 0.22002 -0.25900
O 	O 	0.99999 0.93388 0.24455 -0.32200
C 	C 	0.02447 0.20483 0.12676 -0.11100
C 	C 	0.02051 0.19452 0.15501 0.10100
C 	C 	0.06480 0.34461 0.06798 -0.13200
H 	H 	0.09755 0.42858 0.03277 0.05700
C 	C 	0.03947 0.72580 0.17400 0.78700
H 	H 	0.00497 0.84863 0.19468 0.06600
F 	F 	0.06992 0.81016 0.06994 -0.42100
F 	F 	0.03628 0.82429 0.11225 -0.39000
C 	C 	0.02049 0.32342 0.45442 0.76300
C 	C 	0.00449 0.14726 0.35723 -0.10900
F 	F 	0.05578 0.35553 0.47928 -0.43400
F 	F 	0.98304 0.97396 0.31509 -0.38400
C 	C 	0.08481 0.61631 0.50396 0.14500
H 	H 	0.05887 0.67885 0.02597 0.14700
H 	H 	0.06704 0.60703 0.05124 0.15100
F 	F 	0.22245 0.28207 0.77481 -0.39600
C 	C 	0.03990 0.24829 0.41397 0.01500
C 	C 	0.11922 0.32886 0.82681 0.04600
C 	C 	0.03239 0.53030 0.90403 0.77500
F 	F 	0.02696 0.52655 0.93200 -0.44600
Ni	Ni	0.13286 0.15335 0.72020 1.15700
C 	C 	0.06184 0.25597 0.20089 0.31400
C 	C 	0.04719 0.26712 0.17211 0.01500
C 	C 	0.11328 0.38820 0.04512 0.08400
F 	F 	0.05272 0.10531 0.10301 -0.37500
C 	C 	0.05066 0.21608 0.31241 0.02100
C 	C 	0.09398 0.60966 0.47569 -0.06000
H 	H 	0.13249 0.28497 0.59166 0.13800
F 	F 	0.11163 0.59214 0.89692 -0.40500
O 	O 	0.07929 0.97528 0.68522 -0.32200
C 	C 	0.07405 0.02219 0.19290 0.36500
C 	C 	0.04898 0.97585 0.26527 0.25400
C 	C 	0.06531 0.29040 0.11549 0.10900
C 	C 	0.09424 0.30578 0.08688 0.11200
C 	C 	0.05850 0.87771 0.18159 0.13100
C 	C 	0.10150 0.84265 0.09520 0.79100
C 	C 	0.07126 0.29515 0.43795 -0.05400
F 	F 	0.04901 0.69398 0.37990 -0.41000
F 	F 	0.14635 0.42767 0.57151 -0.40300
C 	C 	0.07688 0.21428 0.36878 0.10500
O 	O 	0.12339 0.97300 0.74364 -0.33900
O 	O 	0.16446 0.11807 0.75477 -0.27100
Ni	Ni	0.09118 0.14237 0.23803 1.14400
O 	O 	0.08488 0.06219 0.26787 -0.26900
O 	O 	0.09261 0.23166 0.26474 -0.25500
C 	C 	0.08534 0.82438 0.16909 -0.11400
F 	F 	0.09066 0.70020 0.18610 -0.35500
C 	C 	0.08770 0.22254 0.39865 0.11400
C 	C 	0.05802 0.99344 0.32565 0.74100
F 	F 	0.04516 0.96342 0.35220 -0.36300
H 	H 	0.14020 0.67762 0.54207 0.16600
F 	F 	0.19439 0.35940 0.66842 -0.37500
F 	F 	0.04542 0.42256 0.59779 -0.38500
C 	C 	0.16894 0.04554 0.75800 0.31300
C 	C 	0.12879 0.57350 0.99935 0.32500
O 	O 	0.11100 0.22509 0.20652 -0.28400
C 	C 	0.08770 0.36284 0.13240 0.03800
C 	C 	0.07488 0.35134 0.16064 -0.03200
C 	C 	0.10098 0.96893 0.17769 -0.09700
C 	C 	0.07915 0.92864 0.28217 0.02700
C 	C 	0.15786 0.66282 0.52209 -0.23300
C 	C 	0.18962 0.32233 0.64335 0.78200
F 	F 	0.13403 0.08649 0.63705 -0.37600
O 	O 	0.02890 0.05408 0.72712 -0.71800
C 	C 	0.05467 0.43416 0.87094 0.05200
O 	O 	0.12005 0.07085 0.21281 -0.30600
F 	F 	0.03119 0.40926 0.19643 -0.34700
C 	C 	0.15119 0.80202 0.10600 -0.11100
F 	F 	0.15082 0.93248 0.09285 -0.39900
C 	C 	0.12599 0.27981 0.32378 -0.03600
H 	H 	0.08840 0.85477 0.24892 0.10600
F 	F 	0.10922 0.08312 0.32539 -0.37300
F 	F 	0.11409 0.61980 0.39041 -0.45600
C 	C 	0.09791 0.95111 0.30962 -0.05700
C 	C 	0.15751 0.03169 0.68393 0.35300
C 	C 	0.16537 0.60617 0.46400 0.33000
O 	O 	0.15397 0.55462 0.44345 -0.30200
O 	O 	0.16233 0.65938 0.00077 -0.35800
C 	C 	0.18936 0.39303 0.04124 0.00200
H 	H 	0.17050 0.76416 0.06652 0.04600
C 	C 	0.13647 0.27989 0.35202 0.04600
F 	F 	0.17006 0.38930 0.28896 -0.35300
C 	C 	0.10608 0.87554 0.26959 0.07600
C 	C 	0.12306 0.70282 0.38807 0.77600
H 	H 	0.10751 0.73064 0.33491 0.14000
O 	O 	0.17129 0.53897 0.98912 -0.36000
O 	O 	0.19089 0.09531 0.70160 -0.28600
H 	H 	0.11778 0.42821 0.12363 0.15000
C 	C 	0.16113 0.29495 0.07963 0.03400
C 	C 	0.15567 0.86382 0.15218 0.13400
C 	C 	0.17958 0.76121 0.08805 0.08900
C 	C 	0.15492 0.32882 0.44319 0.00800
H 	H 	0.18620 0.62107 0.52567 0.16500
F 	F 	0.23487 0.38987 0.62517 -0.35000
F 	F 	0.13229 0.98983 0.60703 -0.39000
H 	H 	0.15856 0.92572 0.79643 0.12600
C 	C 	0.17454 0.81036 0.13348 0.10000
F 	F 	0.16551 0.13719 0.15045 -0.38900
C 	C 	0.15797 0.22711 0.41081 -0.11700
F 	F 	0.14809 0.10829 0.38464 -0.35000
F 	F 	0.12798 0.70411 0.28103 -0.36400
F 	F 	0.14031 0.74336 0.41302 -0.44700
H 	H 	0.20333 0.72640 0.51282 0.12700
F 	F 	0.22403 0.26853 0.64475 -0.36300
C 	C 	0.09484 0.42945 0.17843 0.78200
C 	C 	0.20565 0.33373 0.05572 -0.04600
H 	H 	0.18197 0.26198 0.09348 0.15700
C 	C 	0.17286 0.00845 0.16152 0.07400
C 	C 	0.18209 0.06060 0.62293 0.81000
H 	H 	0.19092 0.33175 0.36118 0.11900
O 	O 	0.21359 0.65607 0.05399 -0.38800
C 	C 	0.19087 0.28037 0.43370 0.08000
C 	C 	0.19638 0.34564 0.30611 0.78600
C 	C 	0.15706 0.93703 0.32198 0.03700
C 	C 	0.15825 0.85213 0.28324 -0.09200
C 	C 	0.21186 0.99026 0.79782 0.00200
C 	C 	0.23282 0.05030 0.77618 0.08500
C 	C 	0.04745 0.20000 0.68009 0.31200
C 	C 	0.12214 0.28911 0.80251 -0.05700
C 	C 	0.18305 0.25673 0.79961 0.78100
C 	C 	0.20625 0.42413 0.44226 0.28100
C 	C 	0.20208 0.95543 0.15028 -0.03000
C 	C 	0.22193 0.71890 0.09743 -0.01900
C 	C 	0.16954 0.77097 0.34192 0.05700
F 	F 	0.32802 0.24429 0.74675 -0.37500
F 	F 	0.19875 0.92583 0.86053 -0.40500
C 	C 	0.20201 0.18317 0.39824 0.79200
F 	F 	0.25089 0.59081 0.12536 -0.39200
F 	F 	0.16530 0.45163 0.19273 -0.33800
C 	C 	0.21977 0.77148 0.14283 0.04900
H 	H 	0.17655 0.96058 0.34235 0.13100
C 	C 	0.19071 0.75689 0.36776 -0.05700
F 	F 	0.16996 0.78441 0.24268 -0.36200
O 	O 	0.21757 0.46243 0.41813 -0.34100
C 	C 	0.18465 0.88449 0.30969 0.09900
C 	C 	0.00572 0.58128 0.51514 -0.06800
F 	F 	0.10655 0.50152 0.16325 -0.34300
C 	C 	0.21913 0.10689 0.15655 0.75400
C 	C 	0.23918 0.72071 0.12546 -0.03100
C 	C 	0.17931 0.78683 0.27050 0.79300
C 	C 	0.21122 0.00878 0.66846 0.04900
F 	F 	0.24379 0.05839 0.92635 -0.38500
H 	H 	0.98299 0.23997 0.40599 0.15200
H 	H 	0.23993 0.78097 0.16366 0.17000
F 	F 	0.26368 0.23979 0.05564 -0.35900
O 	O 	0.22690 0.46957 0.46538 -0.29800
O 	O 	0.23552 0.64282 0.47640 -0.37100
C 	C 	0.25837 0.47864 0.03328 0.29400
C 	C 	0.25053 0.67749 0.07721 0.32500
C 	C 	0.27817 0.32264 0.04827 0.77800
F 	F 	0.29274 0.33285 0.02061 -0.40000
F 	F 	0.26915 0.66045 0.16459 -0.32200
F 	F 	0.21595 0.53541 0.32988 -0.37500
F 	F 	0.22822 0.30276 0.29114 -0.37300
C 	C 	0.22235 0.84645 0.32727 0.10600
C 	C 	0.23257 0.03516 0.64101 -0.05300
F 	F 	0.23343 0.12965 0.60609 -0.38900
H 	H 	0.25580 0.07429 0.87779 0.15500
F 	F 	0.23286 0.86713 0.82604 -0.37200
Ni	Ni	0.23611 0.58452 0.41273 1.15200
H 	H 	0.25844 0.98491 0.13856 0.15100
C 	C 	0.26023 0.01462 0.82148 -0.01300
C 	C 	0.30522 0.13110 0.77812 -0.06500
H 	H 	0.25073 0.29548 0.44088 0.07300
F 	F 	0.23914 0.15917 0.41809 -0.40400
O 	O 	0.25655 0.70696 0.41309 -0.33200
Ni	Ni	0.26550 0.73561 0.02175 1.12500
C 	C 	0.28134 0.67268 0.13686 0.78200
F 	F 	0.26235 0.14847 0.17947 -0.36700
F 	F 	0.25197 0.61112 0.29088 -0.32900
F 	F 	0.25915 0.40787 0.32147 -0.39200
C 	C 	0.25599 0.94355 0.84026 0.74700
F 	F 	0.27369 0.12915 0.13507 -0.34800
O 	O 	0.28429 0.49481 0.00784 -0.32200
F 	F 	0.27049 0.68243 0.33003 -0.42000
F 	F 	0.26131 0.24051 0.38031 -0.41000
H 	H 	0.27532 0.91021 0.46655 0.11800
H 	H 	0.23455 0.95127 0.70355 0.11100
C 	C 	0.33373 0.16399 0.80378 0.08900
C 	C 	0.35097 0.18260 0.75312 0.79100
F 	F 	0.33524 0.12738 0.73134 -0.39300
C 	C 	0.27308 0.61334 0.31779 0.79500
C 	C 	0.27466 0.80089 0.37497 0.01700
H 	H 	0.27487 0.80799 0.46826 0.11000
C 	C 	0.25195 0.97231 0.68269 0.06000
H 	H 	0.28507 0.88914 0.93770 0.17700
C 	C 	0.31613 0.10559 0.82570 0.07300
H 	H 	0.00058 0.13035 0.16373 0.08700
Ni	Ni	0.29434 0.60028 0.98656 1.12600
O 	O 	0.30338 0.53022 0.05265 -0.29400
H 	H 	0.29220 0.81183 0.91522 0.17400
H 	H 	0.37351 0.23373 0.80632 0.13900
C 	C 	0.32114 0.11735 0.87691 0.02300
F 	F 	0.25938 0.80883 0.27561 -0.35200
O 	O 	0.29018 0.59769 0.37564 -0.28600
C 	C 	0.29847 0.03025 0.62931 0.04800
O 	O 	0.30510 0.69777 0.96082 -0.33100
C 	C 	0.30654 0.76290 0.39530 0.30200
O 	O 	0.32491 0.68900 0.07881 -0.28400
O 	O 	0.31560 0.80972 0.98826 -0.33400
O 	O 	0.32645 0.67624 0.01679 -0.71400
H 	H 	0.31650 0.05204 0.60854 0.12500
F 	F 	0.33349 0.91995 0.58459 -0.43800
C 	C 	0.32337 0.88100 0.92202 -0.26800
H 	H 	0.32908 0.92302 0.90429 0.18500
C 	C 	0.32619 0.11822 0.92854 0.77800
Ni	Ni	0.32056 0.60123 0.47045 1.12400
F 	F 	0.34670 0.38448 0.06158 -0.39000
C 	C 	0.30467 0.89750 0.33558 -0.08600
C 	C 	0.31265 0.87811 0.46255 -0.19600
F 	F 	0.33423 0.18645 0.94451 -0.41000
C 	C 	0.36231 0.13987 0.85155 0.13100
F 	F 	0.33116 0.96784 0.85164 -0.42200
O 	O 	0.33218 0.61975 0.43291 -0.72100
C 	C 	0.34251 0.78242 0.96764 0.29200
O 	O 	0.35303 0.83052 0.04604 -0.34100
F 	F 	0.33973 0.85372 0.62303 -0.36700
F 	F 	0.36380 0.07704 0.94117 -0.42800
C 	C 	0.31943 0.97017 0.67117 -0.10500
F 	F 	0.36443 0.72131 0.13180 -0.36000
C 	C 	0.33037 0.87291 0.35921 0.07800
H 	H 	0.32741 0.88373 0.44058 0.11800
C 	C 	0.36555 0.15337 0.90109 -0.06000
H 	H 	0.34499 0.57355 0.42786 0.15500
C 	C 	0.34612 0.00535 0.64482 0.11500
F 	F 	0.31756 0.87774 0.70723 -0.36600
C 	C 	0.03601 0.22944 0.65312 0.02500
F 	F 	0.35011 0.04912 0.33056 -0.35500
H 	H 	0.99746 0.57875 0.53694 0.14700
Ni	Ni	0.38231 0.66190 0.04663 1.13600
H 	H 	0.37547 0.72446 0.00833 0.15400
F 	F 	0.43426 0.22529 0.75768 -0.33400
C 	C 	0.36238 0.60358 0.37023 0.28300
C 	C 	0.35842 0.62595 0.31996 -0.04900
C 	C 	0.38536 0.90994 0.60218 0.80700
H 	H 	0.38998 0.88796 0.09805 0.10000
C 	C 	0.36280 0.98262 0.32108 0.73500
F 	F 	0.35067 0.97553 0.29341 -0.36500
H 	H 	0.38196 0.43207 0.42825 0.10300
F 	F 	0.97513 0.05103 0.39577 -0.35300
F 	F 	0.00722 0.42563 0.08731 -0.43000
C 	C 	0.99865 0.43395 0.98899 0.04900
C 	C 	0.98762 0.34947 0.07350 0.81600
C 	C 	0.99114 0.12421 0.10902 0.81300
O 	O 	0.97396 0.08225 0.23792 -0.71000
F 	F 	0.97218 0.70027 0.19084 -0.36000
H 	H 	0.96409 0.06644 0.25729 0.18900
C 	C 	0.94049 0.07208 0.37439 0.83400
C 	C 	0.86547 0.36323 0.90920 0.27700
C 	C 	0.51071 0.22258 0.91647 0.30000
C 	C 	0.71573 0.43061 0.87743 0.30600
C 	C 	0.60875 0.11021 0.94236 0.26700
C 	C 	0.63155 0.45224 0.95549 0.30300
C 	C 	0.78748 0.39315 0.98801 0.28100
Ni	Ni	0.67773 0.25743 0.90230 1.13500
Ni	Ni	0.62407 0.28087 0.96432 1.13100
Ni	Ni	0.77218 0.44408 0.93299 1.13500
O 	O 	0.80291 0.31889 0.89253 -0.27200
O 	O 	0.86460 0.41714 0.92796 -0.30500
O 	O 	0.62817 0.39512 0.97368 -0.34200
O 	O 	0.55278 0.18786 0.90678 -0.33800
O 	O 	0.52253 0.25306 0.94148 -0.32000
O 	O 	0.78755 0.45575 0.97321 -0.34900
O 	O 	0.66387 0.34639 0.87775 -0.29500
O 	O 	0.78032 0.46237 0.89256 -0.29500
O 	O 	0.72029 0.31462 0.98998 -0.31700
O 	O 	0.66911 0.15136 0.92437 -0.32600
O 	O 	0.59960 0.15250 0.96330 -0.29300
O 	O 	0.68238 0.47501 0.93466 -0.36400
O 	O 	0.70025 0.31987 0.93461 -0.72000
H 	H 	0.73690 0.30014 0.94221 0.14700
C 	C 	0.82317 0.26046 0.52239 0.29900
C 	C 	0.60918 0.40186 0.48535 0.30500
C 	C 	0.85731 0.47607 0.50963 0.31300
C 	C 	0.55233 0.15009 0.49572 0.29300
C 	C 	0.66900 0.44411 0.56969 0.31700
C 	C 	0.60301 0.20415 0.58150 0.28600
Ni	Ni	0.71270 0.31530 0.49007 1.12300
Ni	Ni	0.57308 0.28977 0.53476 1.13000
Ni	Ni	0.75484 0.35116 0.55400 1.15300
O 	O 	0.80702 0.28553 0.49861 -0.29300
O 	O 	0.78238 0.25652 0.54478 -0.30800
O 	O 	0.59863 0.37151 0.56662 -0.32400
O 	O 	0.62888 0.34769 0.47344 -0.34200
O 	O 	0.58780 0.39165 0.51106 -0.36200
O 	O 	0.67466 0.27744 0.58424 -0.24500
O 	O 	0.79124 0.44771 0.49519 -0.38100
O 	O 	0.85670 0.43327 0.53177 -0.33000
O 	O 	0.55262 0.19447 0.56143 -0.35500
O 	O 	0.62494 0.18556 0.48360 -0.32500
O 	O 	0.52162 0.20012 0.50428 -0.34000
O 	O 	0.73605 0.45309 0.55854 -0.32500
O 	O 	0.67684 0.30117 0.52625 -0.72100
H 	H 	0.66238 0.23971 0.52902 0.15400
C 	C 	0.88618 0.93016 0.68258 0.29600
C 	C 	0.87902 0.91624 0.75984 0.29100
C 	C 	0.04773 0.21101 0.75982 0.27400
Ni	Ni	0.94003 0.07476 0.72177 1.14300
O 	O 	0.99555 0.18761 0.69995 -0.31600
O 	O 	0.90610 0.88714 0.70023 -0.28200
O 	O 	0.91029 0.01360 0.68563 -0.28800
O 	O 	0.97178 0.14665 0.75577 -0.30200
O 	O 	0.94155 0.90195 0.75600 -0.31500
O 	O 	0.86024 0.96066 0.74184 -0.30000
H 	H 	0.02773 0.05322 0.74705 0.17700
C 	C 	0.41833 0.79732 0.46968 0.29000
C 	C 	0.47683 0.60805 0.45223 0.28000
Ni	Ni	0.42717 0.71713 0.41764 1.13000
O 	O 	0.37913 0.76979 0.39155 -0.34100
O 	O 	0.40974 0.72627 0.48194 -0.32800
O 	O 	0.43465 0.80948 0.44365 -0.35200
O 	O 	0.42343 0.63847 0.38771 -0.36500
O 	O 	0.41329 0.56956 0.46906 -0.33300
O 	O 	0.49985 0.68720 0.44155 -0.33000
C 	C 	0.45626 0.61869 0.99639 0.30400
C 	C 	0.43126 0.85167 0.04933 0.30300
O 	O 	0.45909 0.63189 0.02299 -0.31500
O 	O 	0.41363 0.64064 0.98022 -0.36700
O 	O 	0.45786 0.79602 0.04395 -0.30400
C 	C 	0.78992 0.95851 0.25683 0.25400
C 	C 	0.83000 0.03198 0.19040 0.35400
Ni	Ni	0.91817 0.14610 0.23614 1.15000
Ni	Ni	0.92505 0.96729 0.22373 1.12100
O 	O 	0.80660 0.03999 0.25032 -0.22200
O 	O 	0.84493 0.93223 0.25489 -0.30000
O 	O 	0.88527 0.11107 0.19662 -0.31700
O 	O 	0.83263 0.96362 0.20063 -0.36800
O 	O 	0.95959 0.19423 0.27478 -0.26000
F 	F 	0.96002 0.13695 0.08516 -0.37600
F 	F 	0.92849 0.05250 0.12227 -0.39200
F 	F 	0.95085 0.35020 0.04942 -0.43600
F 	F 	0.93136 0.27823 0.08860 -0.38600
C 	C 	0.69111 0.07652 0.14530 0.01300
C 	C 	0.65411 0.00031 0.12990 0.20800
C 	C 	0.67373 0.93280 0.13456 -0.14200
C 	C 	0.73174 0.94471 0.15440 0.07800
C 	C 	0.76496 0.01895 0.17099 0.03200
C 	C 	0.73872 0.08220 0.16774 -0.03200
C 	C 	0.59554 0.99224 0.10869 -0.02500
C 	C 	0.63730 0.85089 0.11727 0.80300
H 	H 	0.75222 0.89703 0.15665 0.12100
C 	C 	0.75879 0.15427 0.18823 0.77400
H 	H 	0.67927 0.12979 0.14061 0.15600
C 	C 	0.51140 0.95741 0.11479 -0.04600
C 	C 	0.45490 0.92393 0.09357 0.05800
C 	C 	0.48219 0.92574 0.06694 0.04500
C 	C 	0.56577 0.98054 0.06061 -0.12700
C 	C 	0.62250 0.01131 0.08172 0.16600
C 	C 	0.48175 0.95143 0.14380 0.75400
C 	C 	0.59557 0.99752 0.03155 0.76900
H 	H 	0.68744 0.04431 0.07715 0.11100
F 	F 	0.70366 0.18503 0.18669 -0.34600
F 	F 	0.83617 0.22373 0.18304 -0.38700
F 	F 	0.75453 0.12336 0.21434 -0.41600
F 	F 	0.66851 0.87264 0.09120 -0.41500
F 	F 	0.55316 0.81314 0.11654 -0.38300
F 	F 	0.65539 0.78857 0.12739 -0.37600
F 	F 	0.66541 0.07850 0.02897 -0.41000
F 	F 	0.53674 0.99709 0.01471 -0.45400
F 	F 	0.61332 0.93319 0.02354 -0.44700
F 	F 	0.39892 0.92335 0.14507 -0.40900
F 	F 	0.52223 0.03293 0.15571 -0.35400
F 	F 	0.49633 0.89303 0.15844 -0.35500
C 	C 	0.61627 0.81834 0.30474 0.04800
C 	C 	0.56367 0.75194 0.28730 0.08500
C 	C 	0.58005 0.76028 0.25905 -0.07800
C 	C 	0.65156 0.83372 0.24917 0.07400
C 	C 	0.70779 0.89561 0.26702 0.03800
C 	C 	0.68918 0.88943 0.29497 -0.05600
C 	C 	0.49151 0.67461 0.29917 0.11700
C 	C 	0.51961 0.69437 0.23930 0.78700
H 	H 	0.66507 0.84146 0.22763 0.10700
C 	C 	0.75057 0.95390 0.31458 0.75400
H 	H 	0.60144 0.81254 0.32617 0.11200
C 	C 	0.50186 0.61512 0.31609 -0.10500
C 	C 	0.44681 0.57439 0.33780 0.09800
C 	C 	0.38194 0.59129 0.34198 0.02700
C 	C 	0.41664 0.67392 0.29980 0.03500
C 	C 	0.57685 0.60439 0.31355 0.79400
H 	H 	0.46007 0.53868 0.35311 0.09100
H 	H 	0.40610 0.71544 0.28593 0.15600
F 	F 	0.81936 0.94455 0.31413 -0.37200
F 	F 	0.72029 0.93995 0.34086 -0.38100
F 	F 	0.77166 0.03863 0.30700 -0.37300
F 	F 	0.45282 0.70698 0.23703 -0.35900
F 	F 	0.49349 0.60944 0.24806 -0.34600
F 	F 	0.55431 0.70387 0.21382 -0.35900
F 	F 	0.55992 0.52241 0.32289 -0.37300
F 	F 	0.63933 0.66755 0.32876 -0.40200
F 	F 	0.60250 0.61248 0.28685 -0.36200
H 	H 	0.93200 0.10526 0.32102 0.14500
F 	F 	0.94341 0.25255 0.45884 -0.37700
F 	F 	0.89928 0.99741 0.35911 -0.35200
F 	F 	0.88456 0.09471 0.38436 -0.38300
H 	H 	0.39351 0.91003 0.36544 0.09300
F 	F 	0.44334 0.00500 0.32562 -0.34600
C 	C 	0.42741 0.01104 0.48403 0.04100
C 	C 	0.50242 0.05340 0.49737 -0.09300
C 	C 	0.53503 0.00266 0.50866 0.17300
C 	C 	0.49872 0.91293 0.50278 -0.07400
C 	C 	0.43102 0.87371 0.48575 -0.03200
C 	C 	0.39056 0.92094 0.47851 0.05100
H 	H 	0.40030 0.04900 0.47638 0.08300
H 	H 	0.52773 0.87576 0.50941 0.11800
C 	C 	0.61220 0.04489 0.52496 -0.21400
H 	H 	0.61160 0.09321 0.53912 0.10700
H 	H 	0.66579 0.07819 0.51114 0.16300
H 	H 	0.61857 0.99546 0.53734 0.14700
C 	C 	0.93706 0.54485 0.49829 -0.04700
C 	C 	0.94935 0.56111 0.47001 0.13800
C 	C 	0.88131 0.55051 0.45164 -0.22500
H 	H 	0.84360 0.57542 0.46149 0.11800
H 	H 	0.84278 0.48054 0.44622 0.12400
H 	H 	0.90609 0.58891 0.43257 0.15700
C 	C 	0.54103 0.43773 0.44833 -0.02100
C 	C 	0.59890 0.46696 0.46906 -0.07400
C 	C 	0.63371 0.55498 0.47772 0.11500
C 	C 	0.60031 0.60699 0.46882 -0.02400
C 	C 	0.53353 0.57255 0.45130 -0.05600
C 	C 	0.50867 0.49049 0.43913 0.10700
C 	C 	0.44228 0.45558 0.41822 -0.21900
H 	H 	0.51665 0.37159 0.44080 0.09100
H 	H 	0.62166 0.67140 0.47739 0.10000
C 	C 	0.70116 0.59127 0.49826 -0.22000
H 	H 	0.44109 0.40043 0.40685 0.14700
H 	H 	0.45278 0.50793 0.40336 0.11500
H 	H 	0.74389 0.56565 0.49495 0.10900
H 	H 	0.67464 0.57296 0.51896 0.12100
H 	H 	0.73732 0.66390 0.49671 0.13300
C 	C 	0.94454 0.17765 0.55385 0.02900
C 	C 	0.99085 0.25341 0.56909 0.14900
C 	C 	0.00932 0.33601 0.55793 -0.15100
C 	C 	0.96729 0.33792 0.53466 0.12700
C 	C 	0.90070 0.26019 0.52559 0.03100
C 	C 	0.89902 0.18059 0.53178 -0.03700
C 	C 	0.00519 0.24422 0.59813 0.06400
H 	H 	0.97821 0.39985 0.52615 0.09400
C 	C 	0.84421 0.09752 0.51677 0.77900
H 	H 	0.93707 0.11527 0.56082 0.15200
C 	C 	0.94132 0.21778 0.61769 -0.06400
C 	C 	0.95667 0.20582 0.64477 0.11100
C 	C 	0.85673 0.20078 0.60979 0.78500
H 	H 	0.90651 0.17567 0.65921 0.11100
F 	F 	0.77832 0.04334 0.53312 -0.40000
F 	F 	0.88711 0.05453 0.51034 -0.36900
F 	F 	0.81608 0.11489 0.49296 -0.39100
F 	F 	0.80826 0.18916 0.63236 -0.36700
F 	F 	0.81833 0.12582 0.59440 -0.40100
F 	F 	0.86249 0.27119 0.59517 -0.40500
C 	C 	0.49283 0.11501 0.64594 0.01500
C 	C 	0.43112 0.03561 0.63578 0.15900
C 	C 	0.44782 0.99895 0.61275 -0.18100
C 	C 	0.51902 0.05126 0.59741 0.14400
C 	C 	0.57009 0.13952 0.60412 0.00500
C 	C 	0.56416 0.16639 0.63068 -0.03400
H 	H 	0.52819 0.02733 0.57828 0.07600
C 	C 	0.62950 0.25214 0.64204 0.78100
H 	H 	0.48159 0.14088 0.66437 0.15800
C 	C 	0.36800 0.94026 0.68842 0.77100
F 	F 	0.70639 0.26663 0.63482 -0.33300
F 	F 	0.62541 0.25123 0.67006 -0.34700
F 	F 	0.61810 0.31964 0.63246 -0.37800
F 	F 	0.42387 0.87154 0.58840 -0.39800
F 	F 	0.42786 0.01123 0.70208 -0.34500
F 	F 	0.40442 0.90337 0.67284 -0.35600
C 	C 	0.79290 0.81679 0.61702 0.03700
C 	C 	0.71905 0.74823 0.62725 0.10100
C 	C 	0.69072 0.75707 0.65307 -0.08500
C 	C 	0.74382 0.82617 0.66970 0.08000
C 	C 	0.82511 0.88102 0.66175 0.02300
C 	C 	0.84825 0.88187 0.63441 -0.06800
C 	C 	0.68978 0.66031 0.61573 0.10400
C 	C 	0.61042 0.68574 0.66481 0.79300
H 	H 	0.72339 0.83406 0.68944 0.14900
C 	C 	0.93456 0.94405 0.62471 0.76800
H 	H 	0.81194 0.81207 0.59663 0.13100
C 	C 	0.64125 0.63330 0.59212 -0.09800
C 	C 	0.62932 0.55696 0.57891 0.08200
C 	C 	0.67315 0.51483 0.58672 0.00600
C 	C 	0.72471 0.54488 0.60966 -0.03900
C 	C 	0.72478 0.61114 0.62541 0.03400
C 	C 	0.61240 0.69150 0.57872 0.78800
H 	H 	0.59059 0.53397 0.56128 0.08300
C 	C 	0.79107 0.52043 0.61429 0.78000
H 	H 	0.76109 0.63230 0.64362 0.13800
F 	F 	0.94154 0.94357 0.59679 -0.38700
F 	F 	0.95770 0.02885 0.63230 -0.38800
F 	F 	0.62341 0.62345 0.67772 -0.36300
F 	F 	0.55266 0.64548 0.64491 -0.34900
F 	F 	0.57903 0.72046 0.68344 -0.33800
F 	F 	0.82286 0.54245 0.64009 -0.36100
F 	F 	0.85387 0.56524 0.59577 -0.40700
F 	F 	0.76153 0.43174 0.61147 -0.38300
F 	F 	0.54796 0.64370 0.56148 -0.40500
F 	F 	0.67610 0.75648 0.56380 -0.42000
F 	F 	0.58604 0.73014 0.59768 -0.36300
C 	C 	0.90221 0.48774 0.01757 -0.03200
C 	C 	0.86437 0.41221 0.00163 -0.02200
C 	C 	0.91316 0.37942 0.99059 0.10700
C 	C 	0.98814 0.53982 0.01810 0.18800
H 	H 	0.86465 0.50991 0.02789 0.10500
C 	C 	0.87462 0.28669 0.98054 -0.20900
H 	H 	0.97875 0.61947 0.05005 0.18200
H 	H 	0.84961 0.28245 0.96003 0.09200
H 	H 	0.82436 0.24196 0.99442 0.15200
H 	H 	0.91989 0.26334 0.97964 0.13400
C 	C 	0.49339 0.86951 0.96045 0.01200
C 	C 	0.41447 0.84836 0.95189 -0.09100
C 	C 	0.40582 0.90527 0.93356 0.19100
C 	C 	0.47337 0.98821 0.92762 -0.12800
C 	C 	0.54979 0.01463 0.93950 0.04900
C 	C 	0.56157 0.95168 0.95371 0.08700
C 	C 	0.64632 0.97125 0.96132 -0.24700
H 	H 	0.50110 0.82453 0.97367 0.07200
H 	H 	0.46519 0.03301 0.91466 0.15800
H 	H 	0.64621 0.91314 0.97052 0.14700
H 	H 	0.67281 0.02574 0.97602 0.19000
H 	H 	0.68601 0.99082 0.94295 0.13200
C 	C 	0.63041 0.57347 0.98077 -0.01800
C 	C 	0.59298 0.50550 0.96201 -0.06400
C 	C 	0.51423 0.48172 0.95248 0.13200
C 	C 	0.47023 0.51856 0.96430 -0.01600
C 	C 	0.50581 0.58330 0.98413 -0.06000
C 	C 	0.58844 0.61492 0.99121 0.12200
C 	C 	0.63211 0.69207 0.00979 -0.22800
H 	H 	0.69173 0.59311 0.98760 0.08500
H 	H 	0.40761 0.49592 0.95829 0.08400
C 	C 	0.47407 0.41224 0.93131 -0.23500
H 	H 	0.69947 0.72082 0.00808 0.13800
H 	H 	0.61361 0.67066 0.03111 0.15700
H 	H 	0.61776 0.74473 0.00448 0.13600
H 	H 	0.44315 0.34706 0.94137 0.16100
H 	H 	0.51938 0.41461 0.91636 0.11600
H 	H 	0.42793 0.42138 0.91994 0.14600
C 	C 	0.05430 0.34405 0.83223 0.10000
C 	C 	0.00191 0.33890 0.81100 -0.10400
C 	C 	0.00665 0.30289 0.78617 0.07000
C 	C 	0.06159 0.27128 0.78256 0.04200
C 	C 	0.03393 0.35145 0.86070 0.07100
C 	C 	0.94238 0.37316 0.81464 0.80500
H 	H 	0.96457 0.29478 0.77010 0.13400
C 	C 	0.98237 0.27548 0.87625 -0.08200
C 	C 	0.93790 0.28319 0.89802 0.06600
C 	C 	0.94244 0.36395 0.90318 0.03300
C 	C 	0.01038 0.44109 0.89290 -0.07500
C 	C 	0.97063 0.18620 0.86858 0.79500
H 	H 	0.89151 0.22496 0.90834 0.08700
F 	F 	0.24254 0.29086 0.81932 -0.40500
F 	F 	0.14228 0.16651 0.80230 -0.42400
F 	F 	0.98514 0.46112 0.82098 -0.36400
F 	F 	0.88721 0.32741 0.83524 -0.37900
F 	F 	0.89863 0.36461 0.79132 -0.35300
F 	F 	0.97979 0.55720 0.89387 -0.36600
F 	F 	0.92343 0.12248 0.88758 -0.38500
F 	F 	0.04558 0.18953 0.86695 -0.40800
F 	F 	0.93223 0.16139 0.84383 -0.39100
C 	C 	0.44456 0.20841 0.85081 -0.13500
C 	C 	0.47443 0.26148 0.87353 0.08600
C 	C 	0.44736 0.22289 0.89903 -0.02100
C 	C 	0.50419 0.21521 0.82873 0.79700
H 	H 	0.52878 0.32460 0.87173 0.06400
F 	F 	0.52452 0.28803 0.81260 -0.37700
F 	F 	0.47284 0.14130 0.81273 -0.36800
F 	F 	0.57470 0.22429 0.84029 -0.39900
C 	C 	0.70739 0.72106 0.79394 0.03400
C 	C 	0.74528 0.72493 0.81858 0.10700
C 	C 	0.81210 0.80555 0.82685 -0.10000
C 	C 	0.84829 0.87549 0.80811 0.08000
C 	C 	0.81953 0.86524 0.78151 0.01800
C 	C 	0.74346 0.79094 0.77522 -0.05300
C 	C 	0.72889 0.64143 0.83160 0.09900
C 	C 	0.85252 0.81347 0.85399 0.78900
H 	H 	0.90434 0.93433 0.81326 0.11000
C 	C 	0.70589 0.78099 0.74754 0.77900
H 	H 	0.65466 0.65993 0.78817 0.15200
C 	C 	0.66273 0.59592 0.84999 -0.09700
C 	C 	0.65359 0.51993 0.86311 0.08400
C 	C 	0.70752 0.48820 0.85746 0.01500
C 	C 	0.76489 0.52598 0.83606 -0.03900
C 	C 	0.77774 0.60478 0.82422 0.04100
C 	C 	0.59942 0.62488 0.85441 0.79000
H 	H 	0.60725 0.48792 0.87867 0.06800
C 	C 	0.81671 0.48609 0.82721 0.78100
H 	H 	0.82636 0.63840 0.80939 0.12900
F 	F 	0.70281 0.85589 0.74058 -0.39500
F 	F 	0.62675 0.71138 0.74696 -0.35200
F 	F 	0.75221 0.76582 0.72876 -0.41500
F 	F 	0.90633 0.78125 0.85190 -0.39400
F 	F 	0.79516 0.76709 0.87397 -0.39000
F 	F 	0.89540 0.90017 0.86191 -0.37500
F 	F 	0.77063 0.39554 0.82723 -0.34700
F 	F 	0.88122 0.51147 0.84479 -0.34600
F 	F 	0.84758 0.51335 0.80126 -0.35100
F 	F 	0.54662 0.57925 0.87562 -0.42500
F 	F 	0.55385 0.60980 0.83120 -0.39300
F 	F 	0.63680 0.71316 0.86038 -0.38800
