data_crystal

_cell_length_a 47.21422
_cell_length_b 47.19624
_cell_length_c 21.26297
_cell_angle_alpha 93.94877
_cell_angle_beta  93.85949
_cell_angle_gamma 90.07457

_symmetry_space_group_name_	'P 1'
_symmetry_space_group_name_H-M	'P 1'

loop_
_symmetry_equiv_pos_as_xyz
  x,y,z

loop_
_atom_site_label
_atom_site_type_symbol
_atom_site_fract_x
_atom_site_fract_y
_atom_site_fract_z
_atom_site_charge
C 	C 	0.96948 0.64474 0.95449 0.11700
N 	N 	0.97381 0.64299 0.89183 -0.14300
C 	C 	0.96756 0.61864 0.85581 0.12700
N 	N 	0.95714 0.59591 0.88275 -0.14500
C 	C 	0.95346 0.59732 0.94568 0.12700
N 	N 	0.95910 0.62192 0.98136 -0.14500
C 	C 	0.94936 0.63877 0.29050 0.11700
N 	N 	0.94883 0.61415 0.25336 -0.14200
C 	C 	0.95050 0.58881 0.28009 0.12600
N 	N 	0.95291 0.58821 0.34408 -0.14400
C 	C 	0.95350 0.61281 0.38120 0.12700
N 	N 	0.95170 0.63805 0.35435 -0.14200
Cd	Cd	0.06714 0.99978 0.75309 1.24000
O 	O 	0.11888 0.99296 0.76215 -0.32300
O 	O 	0.09479 0.99038 0.66970 -0.35200
C 	C 	0.11924 0.98867 0.70127 0.27600
O 	O 	0.02132 0.99640 0.71801 -0.39300
C 	C 	0.00136 0.00462 0.75545 0.30300
O 	O 	0.06739 0.03473 0.85636 -0.46100
O 	O 	0.05936 0.97835 0.83771 -0.56100
C 	C 	0.06480 0.05586 0.81989 0.28600
O 	O 	0.06538 0.04886 0.75939 -0.36000
Cd	Cd	0.06001 0.01695 0.48259 1.24000
O 	O 	0.10838 0.01171 0.44693 -0.32100
O 	O 	0.10091 0.02538 0.54558 -0.34900
C 	C 	0.11910 0.01929 0.50339 0.27500
O 	O 	0.02207 0.03050 0.53425 -0.40800
C 	C 	0.04693 0.06205 0.40400 0.30200
O 	O 	0.06351 0.07107 0.45287 -0.30500
O 	O 	0.04207 0.03501 0.39820 -0.56600
C 	C 	0.32014 0.00381 0.74942 0.11500
N 	N 	0.34275 0.00585 0.71360 -0.14300
C 	C 	0.36854 0.01414 0.74112 0.12600
N 	N 	0.37160 0.02034 0.80466 -0.14500
C 	C 	0.34894 0.01880 0.84027 0.12700
N 	N 	0.32327 0.01058 0.81263 -0.14300
C 	C 	0.31654 0.04327 0.39827 0.11600
N 	N 	0.34045 0.03486 0.43103 -0.14300
C 	C 	0.36546 0.03334 0.40291 0.12700
N 	N 	0.36637 0.03944 0.34162 -0.14400
C 	C 	0.34262 0.04798 0.30884 0.12700
N 	N 	0.31783 0.05020 0.33755 -0.14300
C 	C 	0.35190 0.02696 0.90846 -0.05100
C 	C 	0.36522 0.00880 0.95169 0.09500
C 	C 	0.36488 0.01595 0.01686 -0.08200
C 	C 	0.35094 0.04043 0.03941 -0.00000
C 	C 	0.33881 0.05925 0.99618 0.06000
C 	C 	0.33943 0.05228 0.93102 -0.05100
N 	N 	0.37778 0.98424 0.93117 -0.19900
H 	H 	0.37453 0.00183 0.05019 0.05400
C 	C 	0.34695 0.04471 0.10791 -0.00700
N 	N 	0.32625 0.08379 0.01683 -0.18800
H 	H 	0.32963 0.06634 0.89774 0.04600
C 	C 	0.36692 0.06091 0.14689 -0.08600
C 	C 	0.36438 0.06445 0.21241 0.10000
C 	C 	0.34258 0.04983 0.23972 -0.05000
C 	C 	0.32205 0.03445 0.20043 -0.05300
C 	C 	0.32383 0.03197 0.13468 0.07200
H 	H 	0.38420 0.07122 0.12602 0.05300
N 	N 	0.38223 0.08261 0.24837 -0.19900
H 	H 	0.30505 0.02366 0.22121 0.04900
N 	N 	0.30344 0.01720 0.09766 -0.19400
H 	H 	0.39910 0.09225 0.22841 0.08300
H 	H 	0.37860 0.08857 0.29533 0.09100
H 	H 	0.28670 0.00752 0.11800 0.08500
H 	H 	0.30368 0.01552 0.04850 0.09100
H 	H 	0.31693 0.09730 0.98453 0.08000
H 	H 	0.32593 0.08991 0.06489 0.08800
H 	H 	0.37796 0.97793 0.88319 0.09300
H 	H 	0.38751 0.97100 0.96354 0.08300
C 	C 	0.25794 0.04817 0.51146 -0.04700
C 	C 	0.23538 0.03499 0.47399 0.00700
C 	C 	0.23942 0.02526 0.41141 -0.04500
C 	C 	0.26588 0.02800 0.38693 -0.02000
C 	C 	0.28867 0.04059 0.42465 -0.02100
C 	C 	0.28461 0.05068 0.48710 -0.02100
C 	C 	0.20765 0.03067 0.50023 0.02300
H 	H 	0.22204 0.01540 0.38186 0.04500
H 	H 	0.26878 0.02004 0.33878 0.04000
H 	H 	0.30200 0.06060 0.51652 0.03900
H 	H 	0.25496 0.05602 0.55965 0.04000
C 	C 	0.19632 0.00313 0.49966 -0.06400
C 	C 	0.16748 0.99921 0.50741 0.01700
C 	C 	0.14981 0.02276 0.51676 -0.07500
C 	C 	0.16176 0.05011 0.52467 0.01200
C 	C 	0.19062 0.05408 0.51618 -0.06200
H 	H 	0.14834 0.06842 0.53283 0.03700
H 	H 	0.19926 0.07542 0.51801 0.04700
C 	C 	0.18847 0.96100 0.65065 -0.06200
C 	C 	0.20483 0.98599 0.65943 0.02500
C 	C 	0.19119 0.01233 0.66578 -0.06000
C 	C 	0.16190 0.01344 0.67141 0.01600
C 	C 	0.14605 0.98825 0.67052 -0.07100
C 	C 	0.15911 0.96216 0.65603 0.01100
C 	C 	0.23568 0.98440 0.67456 0.00700
H 	H 	0.20352 0.03182 0.67065 0.04800
H 	H 	0.15187 0.03377 0.68095 0.03700
H 	H 	0.14694 0.94261 0.65405 0.03500
H 	H 	0.19871 0.94059 0.64406 0.04700
C 	C 	0.24587 0.97373 0.73169 -0.04400
C 	C 	0.27405 0.97851 0.75425 -0.02100
C 	C 	0.29227 0.99421 0.72009 -0.01900
C 	C 	0.28271 0.00278 0.66037 -0.02400
C 	C 	0.25455 0.99767 0.63755 -0.04400
H 	H 	0.23157 0.96305 0.76022 0.04400
H 	H 	0.28143 0.97092 0.79940 0.04100
H 	H 	0.29667 0.01444 0.63288 0.04200
H 	H 	0.24712 0.00499 0.59240 0.04200
H 	H 	0.82459 0.40749 0.70285 0.08400
C 	C 	0.07427 0.08454 0.84445 -0.09300
H 	H 	0.08906 0.09555 0.81750 0.06700
C 	C 	0.03037 0.08158 0.36593 -0.15400
C 	C 	0.02408 0.07498 0.30425 -0.15000
H 	H 	0.02105 0.10018 0.38929 0.05100
H 	H 	0.03548 0.05817 0.27932 0.04900
C 	C 	0.39071 0.02152 0.43560 -0.05100
C 	C 	0.41194 0.03978 0.46582 0.09800
C 	C 	0.44010 0.03024 0.47199 -0.08500
C 	C 	0.39687 0.99276 0.42278 -0.05200
N 	N 	0.40556 0.06665 0.48732 -0.20000
H 	H 	0.45689 0.04498 0.48948 0.05000
H 	H 	0.44960 0.02511 0.34392 0.09100
H 	H 	0.38460 0.07375 0.48596 0.09000
H 	H 	0.42150 0.08039 0.50778 0.08300
C 	C 	0.47629 0.98719 0.65654 -0.00600
C 	C 	0.49946 0.00382 0.64081 0.06600
C 	C 	0.44757 0.99972 0.66126 -0.00400
N 	N 	0.49507 0.02785 0.60988 -0.19400
H 	H 	0.54498 0.00913 0.65045 0.04900
C 	C 	0.44426 0.02370 0.70299 -0.08700
C 	C 	0.41725 0.03171 0.72111 0.10200
C 	C 	0.39379 0.01357 0.70329 -0.05200
C 	C 	0.39645 0.99180 0.65560 -0.05100
C 	C 	0.42312 0.98534 0.63286 0.07000
H 	H 	0.46277 0.03578 0.72234 0.05500
N 	N 	0.41378 0.05711 0.75379 -0.19900
H 	H 	0.37809 0.97907 0.63813 0.05100
N 	N 	0.42514 0.96533 0.58427 -0.19400
H 	H 	0.43137 0.06973 0.76971 0.08300
H 	H 	0.39355 0.06538 0.75980 0.09200
H 	H 	0.51223 0.04022 0.59910 0.08300
H 	H 	0.47468 0.03392 0.59442 0.08600
H 	H 	0.77396 0.04760 0.68766 0.03600
C 	C 	0.95196 0.51068 0.23221 -0.08600
C 	C 	0.96243 0.53763 0.25431 0.10100
C 	C 	0.94649 0.56200 0.24023 -0.05100
H 	H 	0.96282 0.49183 0.24736 0.05500
N 	N 	0.98792 0.54004 0.28803 -0.19900
H 	H 	0.99899 0.52191 0.30081 0.08400
H 	H 	0.99769 0.55981 0.29872 0.09200
H 	H 	0.99411 0.58111 0.02595 0.09400
C 	C 	0.96872 0.61810 0.78648 -0.05000
C 	C 	0.98273 0.59602 0.75248 0.09900
C 	C 	0.98022 0.59430 0.68610 -0.08700
C 	C 	0.96563 0.61521 0.65333 -0.00600
C 	C 	0.95286 0.63810 0.68737 0.07000
C 	C 	0.95433 0.63914 0.75364 -0.05300
N 	N 	0.99938 0.57710 0.78306 -0.19900
H 	H 	0.99032 0.57704 0.65986 0.05300
C 	C 	0.96376 0.61288 0.58331 -0.00600
N 	N 	0.93918 0.65908 0.65682 -0.19400
H 	H 	0.94384 0.65618 0.77972 0.05000
C 	C 	0.93976 0.59998 0.55091 -0.08600
C 	C 	0.93567 0.60013 0.48489 0.10000
C 	C 	0.95682 0.61220 0.45052 -0.05000
C 	C 	0.98126 0.62430 0.48282 -0.05300
C 	C 	0.98493 0.62489 0.54898 0.07000
H 	H 	0.92364 0.59077 0.57742 0.05400
N 	N 	0.91109 0.58951 0.45521 -0.19900
H 	H 	0.99744 0.63344 0.45637 0.04800
N 	N 	0.00866 0.63716 0.57916 -0.19400
H 	H 	0.90619 0.59151 0.40714 0.09300
H 	H 	0.02404 0.64615 0.55339 0.08400
H 	H 	0.01218 0.63783 0.62823 0.08800
H 	H 	0.93812 0.65929 0.60767 0.08900
H 	H 	0.00465 0.57988 0.83156 0.09100
H 	H 	0.00853 0.56011 0.75773 0.08300
C 	C 	0.97694 0.72868 0.04205 0.00600
C 	C 	0.97366 0.67206 0.99160 -0.02500
C 	C 	0.99799 0.68845 0.98527 -0.02600
C 	C 	0.99963 0.71660 0.01033 -0.04000
H 	H 	0.01517 0.67970 0.95887 0.04000
H 	H 	0.01795 0.72940 0.00246 0.04300
C 	C 	0.92227 0.71145 0.25628 -0.04500
C 	C 	0.94365 0.72132 0.22032 0.00700
C 	C 	0.96589 0.70309 0.20379 -0.04600
C 	C 	0.96691 0.67548 0.22384 -0.02000
C 	C 	0.94615 0.66612 0.26192 -0.02100
C 	C 	0.92358 0.68402 0.27714 -0.02000
C 	C 	0.94418 0.75149 0.20549 0.02300
H 	H 	0.98271 0.71055 0.17678 0.04300
H 	H 	0.98440 0.66176 0.21179 0.04000
H 	H 	0.90739 0.67691 0.30633 0.03900
H 	H 	0.90518 0.72537 0.26997 0.04300
C 	C 	0.96788 0.76853 0.22566 -0.05900
H 	H 	0.98698 0.75910 0.24600 0.04700
C 	C 	0.88902 0.04838 0.82488 0.30200
O 	O 	0.87861 0.04959 0.76654 -0.30300
O 	O 	0.88347 0.02536 0.85140 -0.55200
O 	O 	0.87647 0.05283 0.39603 -0.45800
C 	C 	0.87860 0.07559 0.43494 0.27000
O 	O 	0.87229 0.07184 0.49263 -0.36700
Cd	Cd	0.94320 0.09935 0.22556 1.24000
Cd	Cd	0.95422 0.06231 0.36456 1.10900
O 	O 	0.95260 0.15073 0.23654 -0.32300
O 	O 	0.94056 0.12890 0.14389 -0.35200
C 	C 	0.94735 0.15267 0.17632 0.27700
O 	O 	0.94071 0.05355 0.18908 -0.39700
O 	O 	0.92924 0.03885 0.28399 -0.61300
C 	C 	0.93891 0.03319 0.22816 0.30100
C 	C 	0.99938 0.08768 0.27217 0.29800
O 	O 	0.92406 0.09931 0.33966 -0.46200
O 	O 	0.99923 0.09457 0.21367 -0.29500
O 	O 	0.97550 0.09017 0.29827 -0.56500
C 	C 	0.89833 0.09771 0.31304 0.28800
O 	O 	0.89651 0.09867 0.25163 -0.36500
Cd	Cd	0.99331 0.10913 0.99736 1.23900
Cd	Cd	0.99034 0.04661 0.89861 1.11600
O 	O 	0.98760 0.15440 0.94771 -0.32500
O 	O 	0.98933 0.15267 0.05073 -0.34600
C 	C 	0.98641 0.16818 0.00238 0.27500
O 	O 	0.99103 0.07428 0.06389 -0.39000
O 	O 	0.01103 0.04263 0.99503 -0.56800
C 	C 	0.99687 0.04782 0.04543 0.31100
C 	C 	0.93965 0.08888 0.94471 0.29500
O 	O 	0.02033 0.08602 0.90104 -0.45300
O 	O 	0.93655 0.10734 0.99222 -0.30000
O 	O 	0.96522 0.08579 0.92702 -0.56200
C 	C 	0.04416 0.09063 0.93535 0.27500
O 	O 	0.04156 0.10333 0.99128 -0.36300
C 	C 	0.90856 0.35172 0.88375 0.11700
N 	N 	0.91144 0.37868 0.91004 -0.14300
C 	C 	0.90196 0.40083 0.87709 0.12600
N 	N 	0.89099 0.39602 0.81658 -0.14400
C 	C 	0.88850 0.36912 0.78969 0.12600
N 	N 	0.89710 0.34696 0.82366 -0.14200
C 	C 	0.89029 0.34740 0.22283 0.11600
N 	N 	0.89194 0.37246 0.19533 -0.14300
C 	C 	0.88887 0.39741 0.23018 0.12500
N 	N 	0.88465 0.39717 0.29279 -0.14400
C 	C 	0.88363 0.37217 0.32054 0.12700
N 	N 	0.88607 0.34735 0.28535 -0.14200
Cd	Cd	0.03118 0.00844 0.89324 1.10600
O 	O 	0.00768 0.02190 0.80514 -0.61100
C 	C 	0.88080 0.36437 0.72111 -0.05000
C 	C 	0.85930 0.38057 0.69100 0.10000
C 	C 	0.85785 0.38147 0.62497 -0.08700
C 	C 	0.87567 0.36440 0.58836 -0.00600
C 	C 	0.89461 0.34542 0.61802 0.07000
C 	C 	0.89745 0.34603 0.68424 -0.05400
N 	N 	0.83947 0.39438 0.72489 -0.19900
H 	H 	0.84261 0.39523 0.60198 0.05300
C 	C 	0.87604 0.36824 0.51981 -0.00500
N 	N 	0.91017 0.32669 0.58327 -0.19400
H 	H 	0.91328 0.33285 0.70708 0.05100
C 	C 	0.89829 0.38386 0.49828 -0.08600
C 	C 	0.90162 0.38488 0.43338 0.10000
C 	C 	0.88088 0.37192 0.38920 -0.05100
C 	C 	0.85787 0.35741 0.41083 -0.05300
C 	C 	0.85545 0.35503 0.47574 0.06900
H 	H 	0.91394 0.39400 0.53224 0.05400
N 	N 	0.92529 0.39725 0.41400 -0.19900
H 	H 	0.84205 0.34749 0.37695 0.04800
N 	N 	0.83361 0.33975 0.49525 -0.19400
H 	H 	0.93976 0.40786 0.44689 0.08400
H 	H 	0.93040 0.39522 0.36694 0.09400
H 	H 	0.81853 0.33012 0.46230 0.08300
H 	H 	0.83143 0.33710 0.54300 0.08700
H 	H 	0.92478 0.31340 0.60558 0.08400
H 	H 	0.90727 0.32445 0.53407 0.08900
H 	H 	0.83747 0.39079 0.77231 0.09100
C 	C 	0.07092 0.09440 0.90440 -0.09700
H 	H 	0.08589 0.11025 0.92611 0.06700
C 	C 	0.97724 0.24722 0.02223 -0.05200
C 	C 	0.95096 0.25031 0.98827 0.01300
C 	C 	0.93488 0.22608 0.96709 -0.05500
C 	C 	0.94560 0.19908 0.97667 0.00500
C 	C 	0.97262 0.19596 0.00699 -0.06400
C 	C 	0.98806 0.22009 0.03140 0.00500
C 	C 	0.94146 0.27857 0.96974 0.01200
H 	H 	0.91452 0.22815 0.94119 0.04500
H 	H 	0.93338 0.18051 0.95832 0.04200
H 	H 	0.00885 0.21788 0.05532 0.03400
H 	H 	0.98959 0.26578 0.03997 0.04200
C 	C 	0.91369 0.28769 0.97974 -0.05400
C 	C 	0.90330 0.31237 0.95385 -0.01700
C 	C 	0.92051 0.32804 0.91759 -0.02300
C 	C 	0.94859 0.31967 0.90980 -0.01900
C 	C 	0.95905 0.29505 0.93575 -0.04900
H 	H 	0.89993 0.27522 0.00602 0.04800
H 	H 	0.88164 0.31887 0.96050 0.03600
H 	H 	0.96204 0.33177 0.88201 0.03700
H 	H 	0.98044 0.28817 0.92734 0.04200
C 	C 	0.90873 0.21423 0.10928 -0.05900
C 	C 	0.92536 0.23687 0.13821 0.02500
C 	C 	0.95210 0.23117 0.16746 -0.05900
C 	C 	0.96091 0.20317 0.17283 0.01500
C 	C 	0.94285 0.18053 0.15049 -0.06600
C 	C 	0.91741 0.18614 0.11564 0.01100
C 	C 	0.91324 0.26576 0.14596 0.00700
H 	H 	0.96541 0.24838 0.18902 0.04700
H 	H 	0.98099 0.19906 0.19822 0.04000
H 	H 	0.90356 0.16883 0.09679 0.04200
H 	H 	0.88856 0.21837 0.08432 0.04500
C 	C 	0.92965 0.28968 0.13556 -0.04500
C 	C 	0.92075 0.31691 0.15539 -0.02000
C 	C 	0.89565 0.32044 0.18675 -0.02100
C 	C 	0.87816 0.29683 0.19251 -0.02000
C 	C 	0.88690 0.26964 0.17227 -0.04500
H 	H 	0.94984 0.28708 0.11465 0.04200
H 	H 	0.93424 0.33504 0.14988 0.04000
H 	H 	0.85848 0.29939 0.21566 0.03900
H 	H 	0.87396 0.25145 0.18044 0.04200
C 	C 	0.87323 0.10380 0.41050 -0.09800
C 	C 	0.87454 0.10827 0.34907 -0.09400
H 	H 	0.86225 0.11931 0.43998 0.06700
H 	H 	0.86133 0.12476 0.32941 0.06700
H 	H 	0.94599 0.00052 0.61076 0.07200
C 	C 	0.95836 0.97669 0.75732 -0.13700
C 	C 	0.97130 0.99910 0.73611 -0.14700
H 	H 	0.95852 0.01687 0.72115 0.05500
C 	C 	0.91069 0.06856 0.85332 -0.14600
C 	C 	0.91599 0.07128 0.91625 -0.16200
H 	H 	0.92279 0.08086 0.82290 0.06000
H 	H 	0.90234 0.06090 0.94695 0.01300
C 	C 	0.89332 0.42474 0.20210 -0.05200
C 	C 	0.87640 0.44857 0.21778 0.10000
C 	C 	0.88679 0.47595 0.21060 -0.08700
C 	C 	0.91263 0.47972 0.18320 -0.00700
C 	C 	0.92680 0.45572 0.15707 0.06800
C 	C 	0.91740 0.42835 0.16812 -0.05500
N 	N 	0.85013 0.44524 0.23884 -0.19900
H 	H 	0.87516 0.49433 0.22803 0.05400
C 	C 	0.92700 0.50788 0.19243 -0.00500
N 	N 	0.94933 0.45886 0.12152 -0.19400
H 	H 	0.92952 0.40998 0.15260 0.05000
C 	C 	0.92358 0.55944 0.19451 -0.05200
C 	C 	0.91392 0.53253 0.16965 0.07000
H 	H 	0.91232 0.57828 0.18071 0.05100
N 	N 	0.89203 0.53050 0.12458 -0.19400
H 	H 	0.88247 0.54880 0.10818 0.08500
H 	H 	0.88476 0.51085 0.10435 0.08500
H 	H 	0.96013 0.44108 0.10360 0.08500
H 	H 	0.95545 0.47885 0.10893 0.08600
H 	H 	0.84063 0.42520 0.23781 0.09100
H 	H 	0.83827 0.46294 0.25315 0.08400
C 	C 	0.90722 0.43026 0.90345 -0.05200
C 	C 	0.89910 0.43963 0.96443 0.10200
C 	C 	0.90626 0.46729 0.98899 -0.09500
C 	C 	0.91918 0.48638 0.95198 -0.00200
C 	C 	0.92664 0.47723 0.89041 0.07000
C 	C 	0.92095 0.44914 0.86726 -0.05300
N 	N 	0.88340 0.42275 0.99830 -0.20200
H 	H 	0.90048 0.47437 0.03584 0.05700
C 	C 	0.92403 0.51615 0.97707 -0.01200
N 	N 	0.93922 0.49528 0.85331 -0.19400
H 	H 	0.92726 0.44193 0.82073 0.05000
C 	C 	0.95122 0.52429 0.00252 -0.08000
C 	C 	0.96043 0.55253 0.00115 0.10300
C 	C 	0.94195 0.57261 0.97409 -0.05600
C 	C 	0.91326 0.56553 0.96039 -0.05400
C 	C 	0.90403 0.53733 0.96212 0.07100
H 	H 	0.96604 0.50823 0.01790 0.05100
N 	N 	0.98718 0.56003 0.02391 -0.20000
H 	H 	0.89861 0.58146 0.94365 0.04600
N 	N 	0.87628 0.53056 0.94728 -0.19500
H 	H 	0.00104 0.54486 0.04195 0.08500
H 	H 	0.86181 0.54614 0.93391 0.08100
H 	H 	0.86863 0.51002 0.95109 0.08500
H 	H 	0.94470 0.48823 0.80807 0.08400
H 	H 	0.94358 0.51642 0.86853 0.09100
H 	H 	0.87415 0.40389 0.97810 0.09200
H 	H 	0.87877 0.42934 0.04441 0.09000
H 	H 	0.89601 0.57993 0.48083 0.08400
H 	H 	0.92962 0.67573 0.68239 0.08400
C 	C 	0.99388 0.99863 0.07344 -0.12900
C 	C 	0.98155 0.02422 0.07025 -0.14200
H 	H 	0.95874 0.02602 0.07325 0.04400
C 	C 	0.95324 0.71175 0.05126 -0.04600
C 	C 	0.95177 0.68350 0.02675 -0.01600
H 	H 	0.93561 0.72072 0.07572 0.04300
H 	H 	0.93297 0.67097 0.03234 0.04100
C 	C 	0.91981 0.76406 0.17801 -0.06100
H 	H 	0.90168 0.75104 0.16042 0.04400
Cd	Cd	0.95028 0.89718 0.26039 1.24100
O 	O 	0.93493 0.84891 0.27922 -0.32100
O 	O 	0.94346 0.86059 0.18425 -0.34800
C 	C 	0.93639 0.84076 0.22000 0.27400
O 	O 	0.97692 0.90513 0.37247 -0.45800
C 	C 	0.00083 0.90249 0.34548 0.30100
O 	O 	0.99858 0.89368 0.28578 -0.35700
C 	C 	0.02545 0.91993 0.95977 0.29200
O 	O 	0.03370 0.90762 0.01103 -0.29700
O 	O 	0.81591 0.01217 0.78555 -0.32300
O 	O 	0.83203 0.99710 0.69483 -0.35000
C 	C 	0.81073 0.00712 0.72507 0.27700
C 	C 	0.60840 0.97445 0.74162 0.11600
N 	N 	0.58419 0.97362 0.70315 -0.14300
C 	C 	0.55905 0.96676 0.72612 0.12600
N 	N 	0.55831 0.96057 0.78749 -0.14400
C 	C 	0.58244 0.96157 0.82598 0.12800
N 	N 	0.60745 0.96843 0.80297 -0.14300
C 	C 	0.60862 0.96658 0.39433 0.11600
N 	N 	0.60992 0.95633 0.33329 -0.14300
C 	C 	0.58598 0.95353 0.29434 0.12700
N 	N 	0.56050 0.96028 0.31711 -0.14400
C 	C 	0.55891 0.97008 0.37836 0.12600
N 	N 	0.58310 0.97400 0.41648 -0.14300
C 	C 	0.05693 0.95148 0.82147 0.30300
O 	O 	0.06354 0.94376 0.76413 -0.30300
Cd	Cd	0.00166 0.00986 0.36969 1.12600
O 	O 	0.98823 0.00567 0.46920 -0.53900
C 	C 	0.99543 0.02213 0.52072 0.29300
O 	O 	0.03802 0.97887 0.39720 -0.45500
C 	C 	0.03820 0.96103 0.44131 0.28000
O 	O 	0.05016 0.96975 0.49629 -0.35900
H 	H 	0.20954 0.98484 0.48964 0.04800
H 	H 	0.15857 0.97795 0.50282 0.03500
C 	C 	0.44703 0.00272 0.44893 -0.00800
C 	C 	0.42496 0.98312 0.42894 0.07100
C 	C 	0.47669 0.99668 0.43362 -0.00300
N 	N 	0.43070 0.95535 0.41374 -0.19500
H 	H 	0.38015 0.97835 0.40306 0.04800
C 	C 	0.49422 0.98128 0.47467 -0.08800
C 	C 	0.52094 0.97171 0.45724 0.10000
C 	C 	0.53139 0.98020 0.40031 -0.05100
C 	C 	0.51466 0.99752 0.36181 -0.05100
C 	C 	0.48709 0.00510 0.37674 0.06900
H 	H 	0.48622 0.97492 0.51809 0.05300
N 	N 	0.53569 0.95340 0.49367 -0.20000
H 	H 	0.52284 0.00445 0.31890 0.04900
N 	N 	0.47061 0.02005 0.33583 -0.19400
H 	H 	0.52864 0.94879 0.53742 0.08700
H 	H 	0.55304 0.94215 0.47739 0.09300
H 	H 	0.47867 0.02644 0.29441 0.08400
H 	H 	0.41437 0.94124 0.39720 0.08200
H 	H 	0.45120 0.94732 0.41991 0.08600
C 	C 	0.53217 0.97006 0.68769 -0.05400
C 	C 	0.50935 0.95100 0.69164 0.10000
C 	C 	0.48147 0.96016 0.67844 -0.08800
C 	C 	0.52729 0.99530 0.65756 -0.05200
N 	N 	0.51414 0.92398 0.70787 -0.19900
H 	H 	0.46379 0.94668 0.68752 0.05500
H 	H 	0.40707 0.95446 0.56424 0.08400
H 	H 	0.44444 0.96115 0.56441 0.08500
H 	H 	0.53471 0.91587 0.71194 0.09000
H 	H 	0.49716 0.91035 0.71339 0.08400
C 	C 	0.58132 0.95663 0.89341 -0.05500
C 	C 	0.56770 0.97606 0.93518 0.10600
C 	C 	0.56797 0.97106 0.99952 -0.10200
C 	C 	0.58280 0.94796 0.02334 0.01100
C 	C 	0.59597 0.92826 0.98148 0.05600
C 	C 	0.59500 0.93279 0.91678 -0.04700
N 	N 	0.55518 0.99997 0.91437 -0.20000
H 	H 	0.55774 0.98596 0.03174 0.06100
C 	C 	0.58650 0.94616 0.09267 -0.01100
N 	N 	0.60981 0.90521 0.00310 -0.18800
H 	H 	0.60524 0.91787 0.88460 0.04600
C 	C 	0.56740 0.92972 0.12269 -0.08400
C 	C 	0.56878 0.92957 0.18888 0.09900
C 	C 	0.58818 0.94793 0.22556 -0.05000
C 	C 	0.60815 0.96331 0.19539 -0.05500
C 	C 	0.60779 0.96226 0.12924 0.07400
H 	H 	0.55165 0.91675 0.09446 0.05300
N 	N 	0.55223 0.91113 0.21670 -0.19900
H 	H 	0.62352 0.97682 0.22343 0.05200
N 	N 	0.62779 0.97686 0.10121 -0.19500
H 	H 	0.53699 0.89867 0.18959 0.08400
H 	H 	0.55550 0.90772 0.26464 0.09200
H 	H 	0.64300 0.98924 0.12863 0.08600
H 	H 	0.62893 0.97554 0.05225 0.09100
H 	H 	0.61978 0.89100 0.97191 0.08000
H 	H 	0.61065 0.90101 0.05073 0.08800
H 	H 	0.55654 0.00564 0.86809 0.09200
H 	H 	0.54459 0.01375 0.94533 0.08300
H 	H 	0.98432 0.03380 0.61766 0.06800
C 	C 	0.72307 0.02834 0.50747 -0.06100
C 	C 	0.71680 0.99969 0.51472 0.02400
C 	C 	0.73875 0.98145 0.53390 -0.05900
C 	C 	0.76689 0.99105 0.53977 0.01600
C 	C 	0.77330 0.01907 0.52749 -0.07300
C 	C 	0.75119 0.03797 0.51398 0.01100
C 	C 	0.68838 0.98797 0.49324 0.00800
H 	H 	0.73412 0.95954 0.54186 0.04600
H 	H 	0.78381 0.97635 0.55088 0.04300
H 	H 	0.75593 0.05971 0.50478 0.03200
H 	H 	0.70638 0.04274 0.49311 0.04600
C 	C 	0.66369 0.00210 0.51115 -0.04800
C 	C 	0.63720 0.99404 0.48177 -0.01900
C 	C 	0.63516 0.97156 0.43467 -0.02200
C 	C 	0.65953 0.95583 0.42126 -0.02100
C 	C 	0.68600 0.96420 0.44967 -0.04600
H 	H 	0.66513 0.01984 0.54640 0.04200
H 	H 	0.61852 0.00599 0.49379 0.04100
H 	H 	0.65815 0.93779 0.38680 0.04100
H 	H 	0.70480 0.95294 0.43575 0.04400
C 	C 	0.73490 0.02368 0.67936 -0.06100
C 	C 	0.72217 0.99704 0.68393 0.02500
C 	C 	0.73939 0.97306 0.69078 -0.06200
C 	C 	0.76890 0.97602 0.69748 0.01300
C 	C 	0.78145 0.00301 0.69869 -0.07300
C 	C 	0.76442 0.02670 0.68757 0.01500
C 	C 	0.69127 0.99487 0.69029 0.00800
H 	H 	0.72988 0.95234 0.69384 0.04700
H 	H 	0.78192 0.95758 0.70570 0.03400
H 	H 	0.72187 0.04221 0.67214 0.04600
C 	C 	0.67872 0.01140 0.73823 -0.04600
C 	C 	0.65087 0.00589 0.75226 -0.02100
C 	C 	0.63524 0.98384 0.71850 -0.02000
C 	C 	0.64699 0.96865 0.66759 -0.02100
C 	C 	0.67499 0.97399 0.65380 -0.04500
H 	H 	0.69101 0.02758 0.76667 0.04300
H 	H 	0.64180 0.01803 0.79102 0.03900
H 	H 	0.63495 0.95181 0.64071 0.04000
H 	H 	0.68436 0.96123 0.61639 0.04200
C 	C 	0.04540 0.93395 0.92194 -0.15300
C 	C 	0.04138 0.93249 0.85874 -0.15700
H 	H 	0.06283 0.94645 0.94567 0.04200
H 	H 	0.02568 0.91792 0.83475 0.05100
C 	C 	0.00058 0.77371 0.08819 -0.06000
H 	H 	0.01830 0.76159 0.10688 0.04500
H 	H 	0.02179 0.81394 0.11036 0.03600
C 	C 	0.02556 0.91954 0.37084 -0.11400
C 	C 	0.02598 0.93249 0.42911 -0.12300
H 	H 	0.04081 0.92581 0.33822 0.07800
H 	H 	0.01358 0.92394 0.46475 0.04100
C 	C 	0.94105 0.81074 0.20174 -0.07200
C 	C 	0.96637 0.79799 0.22330 0.01500
H 	H 	0.98431 0.81105 0.24196 0.03600
Cd	Cd	0.95376 0.94743 0.39409 1.13900
O 	O 	0.95689 0.93898 0.21853 -0.37800
O 	O 	0.97616 0.96109 0.31093 -0.55100
C 	C 	0.96432 0.96250 0.25333 0.26300
C 	C 	0.89970 0.92148 0.30454 0.30000
O 	O 	0.89467 0.90924 0.24780 -0.30200
O 	O 	0.92469 0.91754 0.33094 -0.55600
Cd	Cd	0.97775 0.90590 0.02646 1.24100
Cd	Cd	0.96989 0.95471 0.90681 1.13500
O 	O 	0.98064 0.85542 0.99116 -0.32800
O 	O 	0.98590 0.86965 0.09181 -0.35300
C 	C 	0.98498 0.84849 0.04900 0.28300
O 	O 	0.98429 0.94849 0.07915 -0.38700
O 	O 	0.95947 0.97235 0.00342 -0.54200
C 	C 	0.97772 0.97245 0.05305 0.29400
O 	O 	0.94218 0.91661 0.93044 -0.45300
O 	O 	0.99836 0.92054 0.94639 -0.56100
C 	C 	0.92185 0.91731 0.96902 0.28300
O 	O 	0.92884 0.91080 0.02666 -0.35500
Cd	Cd	0.86494 0.99512 0.77829 1.24100
Cd	Cd	0.91085 0.99983 0.91889 1.14300
O 	O 	0.90786 0.98536 0.74343 -0.38300
O 	O 	0.92635 0.97166 0.83875 -0.56500
C 	C 	0.93002 0.97984 0.78193 0.26900
O 	O 	0.86878 0.97563 0.89126 -0.45700
C 	C 	0.86678 0.95000 0.86429 0.30000
O 	O 	0.85972 0.94850 0.80368 -0.36000
Cd	Cd	0.85997 0.02466 0.49066 1.23900
Cd	Cd	0.91016 0.01734 0.37695 1.12400
O 	O 	0.80925 0.02812 0.45681 -0.32100
O 	O 	0.82354 0.02433 0.55634 -0.34700
C 	C 	0.80236 0.02656 0.51455 0.27200
O 	O 	0.90055 0.01521 0.54504 -0.40700
O 	O 	0.93046 0.03050 0.47358 -0.54800
C 	C 	0.92637 0.01769 0.52541 0.29900
C 	C 	0.86599 0.97088 0.42468 0.30400
O 	O 	0.85250 0.96847 0.47557 -0.30500
O 	O 	0.87111 0.99664 0.41107 -0.56600
C 	C 	0.95085 0.01107 0.56901 -0.13100
C 	C 	0.97540 0.02578 0.57141 -0.10100
H 	H 	0.97117 0.95878 0.77154 -0.01300
H 	H 	0.01687 0.99732 0.07977 0.04300
C 	C 	0.89427 0.92991 0.95182 -0.12600
C 	C 	0.88320 0.92690 0.89188 -0.11500
H 	H 	0.88494 0.94479 0.98576 0.04100
H 	H 	0.89036 0.90965 0.86036 0.07400
C 	C 	0.95314 0.77578 0.03735 -0.05900
C 	C 	0.97646 0.75971 0.05837 0.02500
C 	C 	0.00242 0.80340 0.09095 0.01200
C 	C 	0.98002 0.81923 0.06480 -0.07100
C 	C 	0.95482 0.80537 0.04125 0.01800
H 	H 	0.93714 0.81749 0.02232 0.03900
H 	H 	0.93423 0.76534 0.01510 0.04800
C 	C 	0.96604 0.98963 0.22331 -0.11500
C 	C 	0.94221 0.00326 0.20567 -0.15400
H 	H 	0.98559 0.00187 0.23250 -0.00900
H 	H 	0.92307 0.99096 0.19173 0.05500
C 	C 	0.88082 0.94674 0.39567 -0.16600
C 	C 	0.88019 0.94203 0.33270 -0.14500
H 	H 	0.89281 0.93278 0.42604 0.02800
H 	H 	0.86624 0.95430 0.30229 0.05500
C 	C 	0.91820 0.79362 0.17656 0.01100
H 	H 	0.89867 0.80325 0.15902 0.03300
