data_crystal

_cell_length_a 21.43726
_cell_length_b 22.20524
_cell_length_c 78.73265
_cell_angle_alpha 90.05603
_cell_angle_beta  90.01348
_cell_angle_gamma 119.47025

_symmetry_space_group_name_	'P 1'
_symmetry_space_group_name_H-M	'P 1'

loop_
_symmetry_equiv_pos_as_xyz
  x,y,z

loop_
_atom_site_label
_atom_site_type_symbol
_atom_site_fract_x
_atom_site_fract_y
_atom_site_fract_z
_atom_site_charge
C 	C 	0.07674 0.15179 0.74669 0.26200
C 	C 	0.07142 0.13691 0.79506 0.30300
C 	C 	0.07983 0.94846 0.79287 0.27600
C 	C 	0.07494 0.94698 0.74364 0.26000
Ni	Ni	0.10611 0.06042 0.76906 1.12400
O 	O 	0.02985 0.14753 0.75840 -0.35800
O 	O 	0.11307 0.11767 0.74828 -0.36600
O 	O 	0.03917 0.90613 0.78086 -0.37600
O 	O 	0.12070 0.99097 0.75508 -0.38100
O 	O 	0.00239 0.09390 0.79376 -0.36400
O 	O 	0.11518 0.14230 0.78270 -0.37700
O 	O 	0.00513 0.90887 0.74693 -0.37100
O 	O 	0.10715 0.01580 0.79124 -0.36400
H 	H 	0.00484 0.01373 0.75327 0.16300
C 	C 	0.13862 0.07249 0.25732 0.26400
C 	C 	0.14887 0.09480 0.20826 0.29900
Ni	Ni	0.07157 0.96604 0.22891 1.09700
Ni	Ni	0.04723 0.09800 0.23344 1.12300
O 	O 	0.15133 0.04145 0.24440 -0.35300
O 	O 	0.10028 0.10430 0.25528 -0.36600
O 	O 	0.11358 0.02707 0.20744 -0.36100
O 	O 	0.14250 0.12686 0.22164 -0.37600
O 	O 	0.01030 0.00093 0.23421 -0.67400
H 	H 	0.00627 0.99392 0.24660 0.12700
C 	C 	0.96645 0.89386 0.96276 0.28200
C 	C 	0.07375 0.08590 0.96777 0.25300
C 	C 	0.10440 0.05850 0.02268 0.26100
Ni	Ni	0.05143 0.97049 0.99206 1.11300
O 	O 	0.03120 0.90334 0.01133 -0.37400
O 	O 	0.98367 0.88717 0.97824 -0.39500
O 	O 	0.04120 0.01646 0.02982 -0.35100
O 	O 	0.12001 0.04814 0.00700 -0.36800
O 	O 	0.00856 0.07878 0.96855 -0.34400
O 	O 	0.08509 0.03278 0.97079 -0.34700
H 	H 	0.01244 0.04680 0.99701 0.19300
H 	H 	0.03403 0.79550 0.03323 0.06200
H 	H 	0.14033 0.03416 0.05549 0.06200
H 	H 	0.13839 0.08332 0.17410 0.04600
C 	C 	0.16983 0.20917 0.96815 -0.05000
H 	H 	0.17299 0.21351 0.98187 0.04600
C 	C 	0.04208 0.73881 0.94421 -0.09100
C 	C 	0.02290 0.78953 0.94057 0.03700
C 	C 	0.98781 0.86392 0.94881 -0.01500
C 	C 	0.96772 0.79391 0.94855 -0.06500
H 	H 	0.00174 0.68633 0.94728 0.06200
H 	H 	0.93230 0.75674 0.95782 0.05100
C 	C 	0.10445 0.92064 0.80673 -0.05500
C 	C 	0.08742 0.82117 0.82327 0.00300
C 	C 	0.06049 0.85248 0.81224 -0.01500
C 	C 	0.04248 0.75365 0.82906 -0.00800
C 	C 	0.06851 0.72219 0.84011 -0.05100
H 	H 	0.00564 0.82347 0.80773 0.04800
H 	H 	0.98677 0.72570 0.82518 0.01400
H 	H 	0.03243 0.67057 0.84476 0.04700
C 	C 	0.09773 0.18932 0.80861 -0.07300
C 	C 	0.08354 0.27304 0.82574 -0.00400
C 	C 	0.05539 0.21737 0.81429 -0.00500
C 	C 	0.04003 0.29883 0.83199 -0.00400
C 	C 	0.06739 0.35367 0.84350 -0.05200
H 	H 	0.00116 0.19688 0.80954 0.04400
H 	H 	0.03242 0.37177 0.84851 0.04700
C 	C 	0.17432 0.28226 0.71610 0.07900
C 	C 	0.24153 0.31968 0.70825 -0.08200
N 	N 	0.14684 0.21621 0.72132 -0.15200
C 	C 	0.10034 0.20736 0.73398 0.01200
H 	H 	0.26281 0.29387 0.70042 0.05600
H 	H 	0.17230 0.18670 0.71981 0.09600
C 	C 	0.11156 0.85932 0.70968 0.01400
N 	N 	0.17446 0.94610 0.72790 -0.15100
C 	C 	0.10441 0.92771 0.72907 0.00600
C 	C 	0.06340 0.87310 0.71812 -0.04300
H 	H 	0.04952 0.79687 0.68835 0.05700
H 	H 	0.00981 0.85850 0.71380 0.05400
C 	C 	0.04476 0.59443 0.39216 -0.00100
C 	C 	0.01418 0.54724 0.40549 0.10100
N 	N 	0.06585 0.54806 0.41532 -0.15400
C 	C 	0.12882 0.59370 0.40820 0.00600
C 	C 	0.11837 0.62505 0.39409 -0.03900
H 	H 	0.15726 0.65019 0.38406 0.04600
H 	H 	0.05884 0.50871 0.42370 0.09600
C 	C 	0.91742 0.49757 0.64453 -0.07300
C 	C 	0.98451 0.50377 0.64747 -0.01800
C 	C 	0.99785 0.45034 0.64433 0.06900
N 	N 	0.05557 0.45918 0.65301 -0.14000
C 	C 	0.08109 0.52032 0.66133 -0.00500
C 	C 	0.03547 0.54771 0.65882 -0.01200
H 	H 	0.90798 0.54054 0.64681 0.04500
H 	H 	0.08567 0.43526 0.64997 0.09600
C 	C 	0.14838 0.51483 0.48341 0.01400
C 	C 	0.09425 0.48459 0.49561 -0.06400
C 	C 	0.05552 0.51788 0.50068 0.04000
C 	C 	0.07910 0.58631 0.49503 -0.01100
C 	C 	0.04900 0.62451 0.50191 -0.00500
C 	C 	0.99560 0.59551 0.51426 -0.07500
H 	H 	0.17581 0.48743 0.47927 0.03600
H 	H 	0.97423 0.62648 0.51969 0.04200
C 	C 	0.78450 0.38258 0.59651 0.25900
C 	C 	0.61773 0.20207 0.53993 0.30700
C 	C 	0.82014 0.39456 0.54733 0.29800
C 	C 	0.58251 0.17987 0.58721 0.26200
C 	C 	0.62639 0.39979 0.53901 0.30500
C 	C 	0.58495 0.38628 0.58714 0.26000
Ni	Ni	0.71933 0.27428 0.56875 1.11200
Ni	Ni	0.57331 0.28095 0.56246 1.12000
Ni	Ni	0.72061 0.42136 0.56811 1.11900
O 	O 	0.79755 0.34574 0.58519 -0.36600
O 	O 	0.76040 0.42488 0.59171 -0.37100
O 	O 	0.57356 0.35818 0.54903 -0.38500
O 	O 	0.65108 0.19367 0.55292 -0.37600
O 	O 	0.59593 0.24802 0.54045 -0.38600
O 	O 	0.63788 0.43204 0.57736 -0.37600
O 	O 	0.77823 0.32715 0.54751 -0.37800
O 	O 	0.81555 0.43311 0.55944 -0.37800
O 	O 	0.54850 0.31939 0.58302 -0.37300
O 	O 	0.65358 0.21261 0.58823 -0.36800
O 	O 	0.54881 0.18920 0.57407 -0.37000
O 	O 	0.69350 0.42550 0.54387 -0.39000
O 	O 	0.66928 0.32338 0.57016 -0.71800
H 	H 	0.65958 0.31951 0.58244 0.15300
C 	C 	0.43799 0.81504 0.41463 0.26500
C 	C 	0.22065 0.60954 0.46276 0.30400
C 	C 	0.43456 0.80094 0.46108 0.30300
C 	C 	0.19806 0.61578 0.41642 0.26600
C 	C 	0.41635 0.59553 0.45848 0.30400
C 	C 	0.40117 0.59477 0.40980 0.26200
Ni	Ni	0.30874 0.72668 0.43860 1.11200
Ni	Ni	0.29570 0.57542 0.43625 1.12000
Ni	Ni	0.44986 0.71011 0.43539 1.12000
O 	O 	0.38926 0.81323 0.42555 -0.36600
O 	O 	0.45909 0.76793 0.41476 -0.37700
O 	O 	0.36825 0.55477 0.44731 -0.38400
O 	O 	0.21982 0.65588 0.45251 -0.37400
O 	O 	0.26469 0.58533 0.45997 -0.38300
O 	O 	0.45078 0.63383 0.42118 -0.37300
O 	O 	0.36548 0.75852 0.46109 -0.38100
O 	O 	0.47498 0.79743 0.44900 -0.38100
O 	O 	0.33168 0.56192 0.41370 -0.37400
O 	O 	0.24354 0.68317 0.41757 -0.37000
O 	O 	0.20451 0.56951 0.42604 -0.36900
O 	O 	0.44438 0.66294 0.45745 -0.39100
O 	O 	0.34953 0.67233 0.43268 -0.72000
H 	H 	0.34635 0.67341 0.42021 0.16200
C 	C 	0.25549 0.76058 0.67130 0.25900
C 	C 	0.34397 0.58349 0.63284 0.28000
C 	C 	0.15798 0.56563 0.66374 0.28500
C 	C 	0.43883 0.77548 0.63868 0.26000
C 	C 	0.32763 0.54922 0.68892 0.28200
C 	C 	0.43863 0.74023 0.69568 0.26200
Ni	Ni	0.28372 0.67334 0.64518 1.11300
Ni	Ni	0.41143 0.66068 0.66391 1.11900
Ni	Ni	0.28243 0.65224 0.68580 1.12100
O 	O 	0.23183 0.72094 0.65745 -0.36100
O 	O 	0.28030 0.74222 0.68468 -0.37200
O 	O 	0.39216 0.59388 0.68339 -0.37600
O 	O 	0.32479 0.62893 0.62829 -0.36200
O 	O 	0.35621 0.57700 0.64883 -0.37800
O 	O 	0.37258 0.69333 0.70044 -0.37600
O 	O 	0.20095 0.57547 0.65096 -0.36900
O 	O 	0.18041 0.60804 0.67676 -0.37300
O 	O 	0.46425 0.73862 0.68041 -0.38100
O 	O 	0.37256 0.76584 0.63838 -0.36600
O 	O 	0.45221 0.72484 0.64313 -0.37100
O 	O 	0.27286 0.55809 0.68559 -0.38300
O 	O 	0.33427 0.67947 0.66513 -0.71800
H 	H 	0.36117 0.72994 0.66682 0.16000
C 	C 	0.87303 0.93816 0.79444 0.29500
C 	C 	0.86669 0.94319 0.74568 0.23800
Ni	Ni	0.95291 0.05704 0.77047 1.10500
Ni	Ni	0.96128 0.91544 0.76898 1.10500
O 	O 	0.86623 0.97836 0.78324 -0.38600
O 	O 	0.92024 0.91722 0.79217 -0.39600
O 	O 	0.89449 0.01061 0.74855 -0.35200
O 	O 	0.86992 0.90175 0.75742 -0.37600
O 	O 	0.00553 0.01237 0.76577 -0.70000
C 	C 	0.45659 0.73980 0.92698 0.26100
C 	C 	0.26825 0.53268 0.87636 0.30400
C 	C 	0.46983 0.73797 0.87789 0.30300
C 	C 	0.25894 0.51819 0.92177 0.26800
C 	C 	0.26386 0.72712 0.87394 0.30400
C 	C 	0.23999 0.72642 0.92156 0.26200
Ni	Ni	0.38325 0.62158 0.90153 1.11200
Ni	Ni	0.22905 0.61498 0.89904 1.12000
Ni	Ni	0.37202 0.76157 0.90033 1.11900
O 	O 	0.46601 0.70047 0.91567 -0.36300
O 	O 	0.42332 0.77498 0.92285 -0.37300
O 	O 	0.21651 0.68428 0.88494 -0.38500
O 	O 	0.31342 0.53384 0.88779 -0.37900
O 	O 	0.24456 0.57709 0.87696 -0.38500
O 	O 	0.29042 0.77085 0.91099 -0.37700
O 	O 	0.42890 0.67069 0.87880 -0.37900
O 	O 	0.46584 0.77814 0.88962 -0.37900
O 	O 	0.20999 0.65813 0.91952 -0.37300
O 	O 	0.32819 0.56379 0.92250 -0.37100
O 	O 	0.21310 0.52796 0.91214 -0.36900
O 	O 	0.33283 0.75336 0.87678 -0.39200
O 	O 	0.32790 0.66481 0.90432 -0.72000
H 	H 	0.32389 0.66439 0.91679 0.16000
C 	C 	0.77249 0.45620 0.07164 0.26000
C 	C 	0.55053 0.31164 0.12504 0.30100
C 	C 	0.76642 0.49705 0.11884 0.30400
C 	C 	0.53630 0.27068 0.07990 0.26700
C 	C 	0.74658 0.29938 0.13271 0.30600
C 	C 	0.74043 0.24930 0.08574 0.26000
Ni	Ni	0.64480 0.40225 0.09662 1.11200
Ni	Ni	0.63057 0.25496 0.10708 1.12100
Ni	Ni	0.78546 0.38636 0.10250 1.12000
O 	O 	0.72864 0.47088 0.08058 -0.36400
O 	O 	0.80189 0.42105 0.07831 -0.37400
O 	O 	0.70035 0.24827 0.12311 -0.38200
O 	O 	0.55300 0.34736 0.11148 -0.37300
O 	O 	0.59622 0.28893 0.12696 -0.38500
O 	O 	0.78806 0.29902 0.09579 -0.37400
O 	O 	0.69656 0.45905 0.11804 -0.38000
O 	O 	0.80725 0.48383 0.10881 -0.38200
O 	O 	0.67032 0.22015 0.08871 -0.37100
O 	O 	0.58295 0.33694 0.07724 -0.37300
O 	O 	0.54151 0.23597 0.09319 -0.37000
O 	O 	0.77645 0.36358 0.12733 -0.39100
O 	O 	0.68578 0.34518 0.09803 -0.72000
H 	H 	0.68506 0.33343 0.08594 0.15900
C 	C 	0.96188 0.88640 0.20203 0.28600
C 	C 	0.95116 0.85277 0.24869 0.25200
C 	C 	0.93645 0.07096 0.20832 0.28900
C 	C 	0.91498 0.04052 0.25568 0.29400
Ni	Ni	0.91216 0.94767 0.22839 1.10600
O 	O 	0.89096 0.01829 0.21765 -0.36900
O 	O 	0.00583 0.88361 0.21321 -0.37100
O 	O 	0.93305 0.92589 0.20471 -0.39800
O 	O 	0.96153 0.09272 0.24600 -0.38600
O 	O 	0.88768 0.97473 0.25084 -0.40700
O 	O 	0.02121 0.89661 0.24858 -0.36800
O 	O 	0.90663 0.85863 0.23778 -0.37200
O 	O 	0.00586 0.09840 0.21064 -0.37700
C 	C 	0.57232 0.41212 0.33448 0.25900
C 	C 	0.66904 0.23450 0.29885 0.28100
C 	C 	0.48567 0.21665 0.33234 0.28000
C 	C 	0.75028 0.42648 0.30066 0.25900
C 	C 	0.66672 0.21873 0.35445 0.28300
C 	C 	0.77398 0.41595 0.35745 0.26500
Ni	Ni	0.60027 0.31881 0.31004 1.11200
Ni	Ni	0.73978 0.32449 0.32772 1.11900
Ni	Ni	0.61542 0.31817 0.35099 1.12100
O 	O 	0.54719 0.36666 0.32171 -0.36100
O 	O 	0.60625 0.40378 0.34767 -0.37300
O 	O 	0.72909 0.26690 0.34862 -0.37800
O 	O 	0.63957 0.27092 0.29362 -0.36100
O 	O 	0.68445 0.23471 0.31489 -0.38200
O 	O 	0.71035 0.36995 0.36384 -0.37700
O 	O 	0.52494 0.22253 0.31904 -0.37100
O 	O 	0.51031 0.26509 0.34404 -0.37000
O 	O 	0.79400 0.40974 0.34189 -0.38400
O 	O 	0.68174 0.41006 0.30006 -0.36500
O 	O 	0.76994 0.38059 0.30550 -0.37000
O 	O 	0.60978 0.22605 0.35352 -0.38200
O 	O 	0.65909 0.33751 0.32924 -0.71800
H 	H 	0.68341 0.38841 0.32951 0.15900
C 	C 	0.91567 0.08906 0.00561 0.25800
C 	C 	0.80471 0.89440 0.00100 0.27700
C 	C 	0.96535 0.85922 0.01614 0.26300
Ni	Ni	0.92101 0.99140 0.97817 1.09900
Ni	Ni	0.94329 0.97923 0.01860 1.10700
O 	O 	0.88337 0.04793 0.99231 -0.34800
O 	O 	0.95034 0.07319 0.01722 -0.37000
O 	O 	0.94562 0.93920 0.95939 -0.37700
O 	O 	0.83780 0.89821 0.98671 -0.37500
O 	O 	0.83754 0.94045 0.01302 -0.38200
O 	O 	0.92091 0.88093 0.02071 -0.38500
O 	O 	0.98098 0.99640 0.99616 -0.76500
C 	C 	0.30660 0.14668 0.32095 0.07700
C 	C 	0.26946 0.16944 0.31038 -0.08100
C 	C 	0.25327 0.14306 0.29386 0.01100
C 	C 	0.26529 0.09014 0.28866 0.08200
C 	C 	0.29535 0.06206 0.29968 -0.08400
C 	C 	0.31800 0.09257 0.31576 0.01700
N 	N 	0.36097 0.19079 0.33093 -0.15000
C 	C 	0.40859 0.16762 0.33165 0.00400
C 	C 	0.38233 0.10551 0.32287 -0.04300
N 	N 	0.22113 0.05470 0.27581 -0.15200
C 	C 	0.17965 0.08387 0.27303 0.01000
C 	C 	0.19874 0.13977 0.28386 -0.04300
H 	H 	0.25953 0.21066 0.31438 0.05500
H 	H 	0.30465 0.02057 0.29557 0.06000
H 	H 	0.41621 0.08680 0.31749 0.05600
H 	H 	0.16544 0.16239 0.28692 0.05400
H 	H 	0.37525 0.24282 0.33248 0.09100
H 	H 	0.20866 0.00496 0.27194 0.09400
C 	C 	0.84737 0.59949 0.28852 0.07600
C 	C 	0.90124 0.66899 0.28970 -0.08400
C 	C 	0.92450 0.70724 0.27456 0.01000
C 	C 	0.89403 0.67726 0.25895 0.07600
C 	C 	0.84149 0.60725 0.25788 -0.08400
C 	C 	0.81803 0.56990 0.27302 0.01300
N 	N 	0.83888 0.55041 0.29976 -0.15400
C 	C 	0.80217 0.48883 0.29161 0.00700
C 	C 	0.79126 0.49968 0.27468 -0.04400
N 	N 	0.89626 0.72556 0.24830 -0.15200
C 	C 	0.92610 0.78570 0.25701 0.00700
C 	C 	0.94631 0.77710 0.27320 -0.05000
H 	H 	0.92391 0.69236 0.30187 0.05000
H 	H 	0.81807 0.58363 0.24579 0.05400
H 	H 	0.75201 0.46093 0.26627 0.05100
H 	H 	0.95613 0.81186 0.28378 0.04100
H 	H 	0.84156 0.55690 0.31294 0.08100
H 	H 	0.86510 0.71551 0.23734 0.09100
C 	C 	0.79161 0.06913 0.27888 0.07700
C 	C 	0.72636 0.06837 0.27618 -0.07900
C 	C 	0.72718 0.13193 0.27581 0.01300
C 	C 	0.78993 0.19373 0.27862 0.07800
C 	C 	0.85436 0.19424 0.28210 -0.08300
C 	C 	0.85394 0.13084 0.28240 0.01300
N 	N 	0.80777 0.02418 0.27124 -0.13100
C 	C 	0.88000 0.05676 0.26967 0.00200
C 	C 	0.91032 0.12272 0.27673 -0.04300
N 	N 	0.77481 0.24144 0.28487 -0.15000
C 	C 	0.70273 0.21042 0.28639 -0.00000
C 	C 	0.67115 0.14191 0.28098 -0.04200
H 	H 	0.67737 0.02029 0.27384 0.05900
H 	H 	0.90326 0.24241 0.28446 0.05100
H 	H 	0.96195 0.16536 0.27305 0.04700
H 	H 	0.62013 0.10102 0.28556 0.04900
H 	H 	0.77255 0.98427 0.26322 0.06400
H 	H 	0.81059 0.28402 0.29213 0.08000
C 	C 	0.86460 0.68724 0.02880 0.07700
C 	C 	0.80585 0.62029 0.02870 -0.08400
C 	C 	0.81592 0.56688 0.03520 0.01400
C 	C 	0.88275 0.58006 0.04126 0.07500
C 	C 	0.94196 0.64753 0.04081 -0.08500
C 	C 	0.93025 0.70083 0.03510 0.01500
N 	N 	0.87212 0.73746 0.01817 -0.15200
C 	C 	0.94263 0.78559 0.01817 0.00900
C 	C 	0.98104 0.76274 0.02804 -0.06700
N 	N 	0.87416 0.53463 0.05358 -0.15100
C 	C 	0.80277 0.49357 0.05571 0.00800
C 	C 	0.76486 0.51194 0.04452 -0.04900
H 	H 	0.75401 0.61026 0.02408 0.05300
H 	H 	0.99385 0.65835 0.04558 0.04900
H 	H 	0.71099 0.50269 0.04679 0.04800
H 	H 	0.83042 0.74592 0.01429 0.09200
H 	H 	0.91213 0.54408 0.06305 0.08600
C 	C 	0.35261 0.19150 0.06839 0.07800
C 	C 	0.28510 0.13199 0.06716 -0.08200
C 	C 	0.24986 0.11789 0.05151 0.01600
C 	C 	0.27873 0.16231 0.03786 0.08000
C 	C 	0.34539 0.22267 0.03909 -0.08200
C 	C 	0.38156 0.23682 0.05470 0.01200
N 	N 	0.40533 0.19472 0.07825 -0.15200
C 	C 	0.46772 0.24011 0.07081 0.00600
C 	C 	0.45529 0.26871 0.05640 -0.04400
N 	N 	0.22654 0.15517 0.02723 -0.15300
C 	C 	0.16410 0.10461 0.03373 0.01100
C 	C 	0.17660 0.08238 0.04926 -0.04400
H 	H 	0.26217 0.09696 0.07779 0.05900
H 	H 	0.36817 0.25722 0.02836 0.05400
H 	H 	0.49358 0.29399 0.04627 0.04900
H 	H 	0.39946 0.15742 0.08716 0.09300
H 	H 	0.23450 0.17263 0.01467 0.09100
C 	C 	0.84049 0.20427 0.05747 0.07800
C 	C 	0.90082 0.23109 0.04692 -0.08300
C 	C 	0.89105 0.21056 0.02981 0.01300
C 	C 	0.82281 0.16626 0.02338 0.07800
C 	C 	0.76196 0.14390 0.03375 -0.08200
C 	C 	0.77256 0.16116 0.05102 0.01600
N 	N 	0.83655 0.23678 0.07150 -0.15200
C 	C 	0.76619 0.21483 0.07399 0.01100
C 	C 	0.72453 0.16813 0.06144 -0.04400
N 	N 	0.82670 0.12578 0.01115 -0.15200
C 	C 	0.89623 0.14206 0.00999 0.01000
C 	C 	0.93785 0.19579 0.02110 -0.04900
H 	H 	0.95387 0.26482 0.05198 0.05200
H 	H 	0.70874 0.11034 0.02877 0.05900
H 	H 	0.67220 0.15910 0.05748 0.05500
H 	H 	0.98883 0.20508 0.02619 0.05000
H 	H 	0.87834 0.28356 0.07605 0.08900
H 	H 	0.78386 0.07735 0.00786 0.09700
C 	C 	0.77726 0.28272 0.14744 -0.07500
C 	C 	0.85170 0.31077 0.14876 0.01000
C 	C 	0.88035 0.28149 0.15982 -0.05500
C 	C 	0.83433 0.22195 0.16928 0.01100
C 	C 	0.76027 0.20056 0.16977 0.00800
C 	C 	0.73199 0.23028 0.15862 -0.01100
C 	C 	0.71528 0.14925 0.18123 -0.03600
C 	C 	0.74258 0.11743 0.19180 -0.04100
C 	C 	0.81426 0.13315 0.19034 0.01500
C 	C 	0.86030 0.18386 0.17857 0.00100
C 	C 	0.92855 0.19106 0.17541 -0.04200
C 	C 	0.95284 0.15368 0.18498 -0.01600
C 	C 	0.90908 0.10726 0.19752 -0.06000
C 	C 	0.83956 0.09671 0.20004 -0.02100
H 	H 	0.88732 0.35364 0.14074 0.02900
H 	H 	0.93786 0.30635 0.16132 0.04100
H 	H 	0.67462 0.21085 0.15816 0.04200
H 	H 	0.65897 0.13414 0.18201 0.04200
H 	H 	0.70718 0.07860 0.20077 0.04400
H 	H 	0.96142 0.22248 0.16504 0.03900
H 	H 	0.00544 0.16009 0.18243 0.05500
H 	H 	0.80503 0.06000 0.20952 0.05300
C 	C 	0.49089 0.28989 0.13714 -0.07400
C 	C 	0.42060 0.26364 0.13117 0.00500
C 	C 	0.36301 0.23677 0.14252 -0.05200
C 	C 	0.37491 0.23355 0.16007 0.00700
C 	C 	0.44635 0.26681 0.16619 0.00900
C 	C 	0.50381 0.29282 0.15466 -0.01500
C 	C 	0.45963 0.27482 0.18371 -0.03900
C 	C 	0.40288 0.24924 0.19523 -0.04000
C 	C 	0.33189 0.21092 0.18949 0.01000
C 	C 	0.31729 0.20026 0.17184 0.00600
C 	C 	0.24699 0.15240 0.16650 -0.04900
C 	C 	0.19184 0.12025 0.17839 0.00600
C 	C 	0.20579 0.13382 0.19577 -0.06800
C 	C 	0.27561 0.17973 0.20128 -0.01700
H 	H 	0.41043 0.26347 0.11768 0.04100
H 	H 	0.31013 0.22162 0.13768 0.04500
H 	H 	0.55843 0.31555 0.15931 0.04500
H 	H 	0.51417 0.30180 0.18845 0.04100
H 	H 	0.41431 0.25718 0.20871 0.04100
H 	H 	0.23550 0.13653 0.15337 0.04700
H 	H 	0.28675 0.18856 0.21478 0.04800
C 	C 	0.79869 0.56065 0.12931 -0.07400
C 	C 	0.87321 0.59881 0.13158 0.00600
C 	C 	0.90367 0.65843 0.14162 -0.05500
C 	C 	0.85946 0.67858 0.15044 0.00600
C 	C 	0.78507 0.64376 0.14690 0.00700
C 	C 	0.75499 0.58431 0.13667 -0.01600
C 	C 	0.74166 0.66922 0.15339 -0.04100
C 	C 	0.77077 0.72756 0.16378 -0.04200
C 	C 	0.84288 0.75909 0.16873 0.00800
C 	C 	0.88773 0.73383 0.16244 0.00200
C 	C 	0.95731 0.76045 0.16930 -0.04800
C 	C 	0.98281 0.81354 0.18131 -0.01300
C 	C 	0.93863 0.83885 0.18738 -0.07000
C 	C 	0.86937 0.81278 0.18075 -0.02000
H 	H 	0.90786 0.58296 0.12535 0.03500
H 	H 	0.96129 0.69031 0.14173 0.03800
H 	H 	0.69769 0.55683 0.13435 0.04400
H 	H 	0.68509 0.64390 0.15029 0.03800
H 	H 	0.73639 0.74681 0.16853 0.03600
H 	H 	0.99019 0.73750 0.16629 0.03700
H 	H 	0.03628 0.83313 0.18643 0.04300
H 	H 	0.83474 0.83161 0.18561 0.03700
C 	C 	0.57790 0.76103 0.95999 0.08000
C 	C 	0.60369 0.73491 0.97266 -0.08600
C 	C 	0.63058 0.77376 0.98762 0.01400
C 	C 	0.62700 0.83433 0.99021 0.07100
C 	C 	0.59375 0.85584 0.97810 -0.08200
C 	C 	0.57386 0.82060 0.96259 0.00700
N 	N 	0.53119 0.72168 0.94796 -0.15200
C 	C 	0.49597 0.75519 0.94306 0.00400
C 	C 	0.52173 0.81755 0.95174 -0.04300
N 	N 	0.68460 0.88021 0.99908 -0.15100
C 	C 	0.72667 0.85143 0.00156 -0.00300
C 	C 	0.69342 0.78446 0.99515 -0.04600
H 	H 	0.60686 0.68826 0.97056 0.05400
H 	H 	0.58991 0.90218 0.98008 0.04700
H 	H 	0.49395 0.84693 0.95305 0.04700
H 	H 	0.72235 0.75827 0.99115 0.04900
H 	H 	0.51321 0.66910 0.94598 0.08600
H 	H 	0.70442 0.93368 0.99860 0.07900
C 	C 	0.24361 0.37107 0.94342 0.07600
C 	C 	0.22868 0.33150 0.95838 -0.08100
C 	C 	0.17725 0.26125 0.95737 0.01400
C 	C 	0.14547 0.23071 0.94225 0.08400
C 	C 	0.16106 0.26873 0.92719 -0.08300
C 	C 	0.21060 0.33979 0.92808 0.01500
N 	N 	0.25994 0.43798 0.94346 -0.15100
C 	C 	0.23482 0.44887 0.92870 0.00700
C 	C 	0.20563 0.38977 0.91868 -0.04300
N 	N 	0.11833 0.16195 0.94303 -0.15200
C 	C 	0.12932 0.14742 0.95915 0.01500
H 	H 	0.25327 0.35522 0.97038 0.05400
H 	H 	0.13449 0.24464 0.91539 0.06000
H 	H 	0.17027 0.38007 0.90794 0.05400
H 	H 	0.27120 0.46886 0.95430 0.08800
H 	H 	0.07875 0.12672 0.93484 0.09900
C 	C 	0.11505 0.75812 0.94381 0.08200
C 	C 	0.07445 0.85676 0.93644 0.06900
C 	C 	0.14737 0.87569 0.93597 -0.08000
C 	C 	0.16675 0.82589 0.94037 0.00700
N 	N 	0.13903 0.71429 0.93948 -0.15200
C 	C 	0.20615 0.75382 0.93330 0.00800
C 	C 	0.22513 0.82352 0.93374 -0.04600
N 	N 	0.05210 0.90136 0.94112 -0.14200
H 	H 	0.18781 0.92812 0.93289 0.04800
H 	H 	0.26436 0.86267 0.92541 0.05000
H 	H 	0.10562 0.66228 0.93634 0.09400
H 	H 	0.08684 0.95379 0.94358 0.08500
C 	C 	0.17376 0.95956 0.81343 -0.03000
C 	C 	0.20089 0.92911 0.82460 -0.04000
C 	C 	0.15986 0.85804 0.82863 0.00500
C 	C 	0.14087 0.75627 0.84488 0.01400
C 	C 	0.18813 0.82331 0.83855 0.00500
C 	C 	0.26241 0.85214 0.84155 -0.05200
C 	C 	0.28749 0.81954 0.85261 0.00400
C 	C 	0.23945 0.75639 0.86028 -0.07100
C 	C 	0.16671 0.72357 0.85579 -0.01500
H 	H 	0.20709 0.01322 0.80983 0.06100
H 	H 	0.25224 0.96158 0.83052 0.03400
H 	H 	0.30109 0.89789 0.83489 0.04000
H 	H 	0.34433 0.84377 0.85528 0.03500
H 	H 	0.13004 0.67297 0.86095 0.04600
C 	C 	0.16673 0.21406 0.81525 0.01200
C 	C 	0.19508 0.26910 0.82675 -0.05400
C 	C 	0.15577 0.30257 0.83113 0.01400
C 	C 	0.13983 0.38634 0.84821 0.01600
C 	C 	0.18559 0.36316 0.84141 0.00200
C 	C 	0.26013 0.40313 0.84429 -0.05000
C 	C 	0.28693 0.45905 0.85551 0.00900
C 	C 	0.24064 0.47820 0.86335 -0.07400
C 	C 	0.16746 0.44295 0.85938 -0.01600
H 	H 	0.19831 0.19020 0.81159 0.03600
H 	H 	0.24583 0.28321 0.83272 0.04500
H 	H 	0.98440 0.27559 0.82812 0.01400
H 	H 	0.29772 0.39338 0.83734 0.04300
H 	H 	0.34404 0.48816 0.85795 0.03500
H 	H 	0.13194 0.45890 0.86516 0.03900
C 	C 	0.82274 0.91156 0.80885 -0.06500
C 	C 	0.80422 0.95573 0.81749 -0.02700
C 	C 	0.74922 0.92936 0.82953 -0.04100
C 	C 	0.70931 0.85738 0.83249 -0.00100
C 	C 	0.73305 0.81397 0.82506 0.01100
C 	C 	0.78890 0.84115 0.81308 -0.02000
C 	C 	0.70127 0.74421 0.82979 -0.04300
C 	C 	0.64591 0.71689 0.84169 -0.03900
C 	C 	0.61841 0.75771 0.84834 0.00600
C 	C 	0.64783 0.82767 0.84324 0.00800
C 	C 	0.61258 0.86459 0.84813 -0.05500
C 	C 	0.55474 0.83516 0.85940 0.00800
C 	C 	0.52904 0.76764 0.86543 -0.07300
C 	C 	0.56030 0.72867 0.85968 -0.01400
H 	H 	0.83268 0.01078 0.81491 0.05500
H 	H 	0.74018 0.96531 0.83695 0.03300
H 	H 	0.80471 0.80729 0.80676 0.03700
H 	H 	0.72015 0.71114 0.82440 0.03700
H 	H 	0.62313 0.66319 0.84544 0.03700
H 	H 	0.62702 0.91430 0.84262 0.04000
H 	H 	0.52890 0.86450 0.86317 0.03100
H 	H 	0.53960 0.67592 0.86405 0.04000
C 	C 	0.72436 0.89757 0.71691 0.07300
C 	C 	0.66830 0.91164 0.71386 -0.08300
C 	C 	0.59810 0.85932 0.71722 0.01200
C 	C 	0.58406 0.79513 0.72331 0.07900
C 	C 	0.63991 0.78028 0.72563 -0.08400
C 	C 	0.70997 0.83185 0.72189 0.01300
N 	N 	0.78893 0.94568 0.72278 -0.15300
C 	C 	0.81600 0.91124 0.73151 0.00700
C 	C 	0.76892 0.84038 0.73088 -0.05000
N 	N 	0.51793 0.74640 0.71868 -0.15200
C 	C 	0.49040 0.77809 0.70908 0.00800
C 	C 	0.53876 0.84856 0.70792 -0.04900
H 	H 	0.67912 0.96204 0.70944 0.04900
H 	H 	0.62903 0.72984 0.73005 0.05300
H 	H 	0.76698 0.80395 0.74031 0.05100
H 	H 	0.54069 0.88079 0.69738 0.04500
H 	H 	0.80304 0.99728 0.72500 0.08400
H 	H 	0.50209 0.69382 0.71764 0.09200
C 	C 	0.25351 0.42464 0.72113 0.07900
C 	C 	0.18629 0.38688 0.72892 -0.08200
C 	C 	0.14606 0.31587 0.72560 0.01600
C 	C 	0.28023 0.39162 0.71081 0.01200
N 	N 	0.27901 0.49031 0.71602 -0.15000
C 	C 	0.31972 0.49936 0.70212 0.00100
C 	C 	0.32202 0.43909 0.69851 -0.04200
C 	C 	0.09841 0.26814 0.73694 -0.04400
H 	H 	0.16491 0.41251 0.73679 0.05600
H 	H 	0.33085 0.42493 0.68593 0.04900
H 	H 	0.08398 0.28156 0.74899 0.05600
H 	H 	0.25399 0.51957 0.71863 0.08300
C 	C 	0.17902 0.90517 0.71594 0.07800
C 	C 	0.24055 0.92415 0.70620 -0.08400
C 	C 	0.23207 0.89400 0.69007 0.01300
C 	C 	0.16417 0.84790 0.68374 0.07700
C 	C 	0.10243 0.83223 0.69323 -0.08300
N 	N 	0.16791 0.80113 0.67352 -0.15100
C 	C 	0.23698 0.81552 0.67355 0.00900
C 	C 	0.27848 0.87351 0.68351 -0.04900
H 	H 	0.29329 0.95957 0.71115 0.05100
H 	H 	0.32800 0.88362 0.68964 0.04900
H 	H 	0.21698 0.99321 0.73205 0.08500
H 	H 	0.12456 0.75187 0.67114 0.09200
C 	C 	0.49810 0.55758 0.37892 0.07900
C 	C 	0.55345 0.57845 0.36703 -0.08500
C 	C 	0.53875 0.54138 0.35173 0.01400
C 	C 	0.47034 0.48664 0.34825 0.07500
C 	C 	0.41391 0.46899 0.35982 -0.08200
C 	C 	0.43013 0.50341 0.37547 0.01200
N 	N 	0.49487 0.60028 0.39054 -0.15100
C 	C 	0.42482 0.57459 0.39434 0.00600
C 	C 	0.38285 0.51364 0.38539 -0.04300
N 	N 	0.47510 0.43888 0.33863 -0.15100
C 	C 	0.54568 0.46132 0.33628 0.00900
C 	C 	0.58665 0.52539 0.34400 -0.04900
H 	H 	0.60668 0.62057 0.36979 0.05200
H 	H 	0.36054 0.42695 0.35715 0.05400
H 	H 	0.32579 0.49076 0.38317 0.05200
H 	H 	0.64122 0.54462 0.34833 0.05000
H 	H 	0.53513 0.65112 0.39285 0.08700
H 	H 	0.43567 0.38669 0.33830 0.08900
C 	C 	0.94357 0.52235 0.37458 0.05400
C 	C 	0.00991 0.58267 0.37640 -0.05900
C 	C 	0.94648 0.48828 0.40368 -0.10900
C 	C 	0.91330 0.47620 0.38781 0.02600
N 	N 	0.89292 0.51539 0.36347 -0.14900
C 	C 	0.82999 0.46280 0.36924 0.00500
C 	C 	0.84055 0.43957 0.38487 -0.05000
H 	H 	0.03389 0.61847 0.36595 0.05000
H 	H 	0.92238 0.45172 0.41399 0.05700
H 	H 	0.80437 0.39010 0.39058 0.05400
H 	H 	0.90291 0.53393 0.35101 0.08500
C 	C 	0.59478 0.05249 0.37016 0.12600
C 	C 	0.57340 0.98184 0.37013 -0.13200
C 	C 	0.55909 0.94807 0.38593 0.03600
C 	C 	0.56568 0.98389 0.40104 0.03400
C 	C 	0.59010 0.05533 0.40088 -0.03500
C 	C 	0.60247 0.08780 0.38507 -0.01400
N 	N 	0.63242 0.09659 0.35765 -0.15700
C 	C 	0.66234 0.16116 0.36441 -0.00000
C 	C 	0.64775 0.15683 0.38181 -0.03000
N 	N 	0.51879 0.94097 0.41262 -0.14600
C 	C 	0.48099 0.87877 0.40500 0.00700
C 	C 	0.50580 0.88044 0.38862 -0.05600
H 	H 	0.56672 0.95400 0.35837 0.05800
H 	H 	0.59563 0.08348 0.41254 0.04800
H 	H 	0.65119 0.19874 0.38954 0.04200
H 	H 	0.47599 0.84333 0.37874 0.04700
H 	H 	0.62240 0.08529 0.34471 0.09600
H 	H 	0.50261 0.95648 0.42352 0.08500
C 	C 	0.45264 0.53884 0.60847 0.07700
C 	C 	0.52243 0.54855 0.60883 -0.08400
C 	C 	0.53103 0.49044 0.61116 0.01200
C 	C 	0.47196 0.42443 0.61236 0.07800
C 	C 	0.40215 0.41490 0.61256 -0.08300
C 	C 	0.39373 0.47325 0.61042 0.01400
N 	N 	0.43689 0.58716 0.61397 -0.15200
C 	C 	0.36885 0.55309 0.61981 0.00200
C 	C 	0.34031 0.48199 0.61792 -0.04300
N 	N 	0.48774 0.37728 0.60589 -0.15200
C 	C 	0.55661 0.41270 0.60055 0.00900
C 	C 	0.58529 0.48306 0.60378 -0.04700
H 	H 	0.56849 0.59971 0.60748 0.05200
H 	H 	0.35606 0.36377 0.61391 0.05700
H 	H 	0.29836 0.44366 0.62588 0.05100
H 	H 	0.62937 0.52363 0.59675 0.05000
H 	H 	0.47527 0.63647 0.61810 0.08800
H 	H 	0.44950 0.32939 0.60098 0.09400
C 	C 	0.86493 0.43623 0.63684 0.07100
C 	C 	0.94449 0.38683 0.63811 -0.08400
C 	C 	0.87775 0.38085 0.63409 0.01400
N 	N 	0.82023 0.43642 0.62487 -0.15100
C 	C 	0.80543 0.38301 0.61431 0.00400
C 	C 	0.83906 0.34670 0.61982 -0.04700
H 	H 	0.95541 0.34494 0.63559 0.05000
H 	H 	0.85289 0.31590 0.61158 0.04900
H 	H 	0.05016 0.60146 0.66064 0.04600
H 	H 	0.81791 0.48062 0.62128 0.09000
C 	C 	0.51408 0.91120 0.60964 0.09300
C 	C 	0.48638 0.94072 0.59824 -0.11600
C 	C 	0.49359 0.00529 0.60227 0.04800
C 	C 	0.53322 0.04246 0.61625 0.06200
C 	C 	0.56194 0.01377 0.62759 -0.05000
C 	C 	0.55071 0.94703 0.62416 -0.02000
N 	N 	0.48112 0.84271 0.61252 -0.15400
C 	C 	0.49326 0.83387 0.62893 0.00500
C 	C 	0.53710 0.89773 0.63653 -0.03900
N 	N 	0.56313 0.11090 0.61334 -0.15000
C 	C 	0.54188 0.11760 0.59759 0.01300
C 	C 	0.49853 0.05298 0.59035 -0.05500
H 	H 	0.45723 0.91279 0.58701 0.05900
H 	H 	0.59127 0.04198 0.63877 0.05000
H 	H 	0.53714 0.90736 0.65003 0.03900
H 	H 	0.49300 0.04332 0.57679 0.06100
H 	H 	0.43659 0.80662 0.60561 0.09100
H 	H 	0.60963 0.14856 0.61932 0.09100
C 	C 	0.60967 0.42886 0.52408 -0.07300
C 	C 	0.64399 0.50070 0.52174 0.00900
C 	C 	0.61677 0.52944 0.51011 -0.05400
C 	C 	0.55299 0.48639 0.50112 0.00800
C 	C 	0.52470 0.41385 0.50178 0.00900
C 	C 	0.55240 0.38546 0.51349 -0.01200
C 	C 	0.46886 0.37055 0.49085 -0.03900
C 	C 	0.43965 0.39839 0.47957 -0.04000
C 	C 	0.46261 0.46946 0.47979 0.01000
C 	C 	0.51757 0.51381 0.49111 0.00500
C 	C 	0.53158 0.58257 0.49312 -0.05200
C 	C 	0.49759 0.60855 0.48271 0.00400
C 	C 	0.44774 0.56618 0.47042 -0.07200
C 	C 	0.42938 0.49624 0.46923 -0.01500
H 	H 	0.69047 0.53447 0.52931 0.03100
H 	H 	0.64654 0.58452 0.50780 0.04100
H 	H 	0.52805 0.32974 0.51476 0.04100
H 	H 	0.44831 0.31513 0.49099 0.04100
H 	H 	0.39738 0.36422 0.47099 0.04100
H 	H 	0.56573 0.61502 0.50323 0.04200
H 	H 	0.50958 0.66163 0.48434 0.04000
H 	H 	0.38909 0.46258 0.46018 0.04800
C 	C 	0.59740 0.15407 0.52552 -0.08300
C 	C 	0.64489 0.13243 0.51963 0.01900
C 	C 	0.62209 0.07879 0.50781 -0.06800
C 	C 	0.54993 0.04350 0.50241 0.04700
C 	C 	0.50478 0.07094 0.50684 -0.01600
C 	C 	0.52851 0.12549 0.51855 0.00000
C 	C 	0.43652 0.04355 0.49955 0.00200
C 	C 	0.41182 0.98810 0.48829 -0.08100
C 	C 	0.45321 0.95647 0.48484 0.02900
C 	C 	0.52187 0.98243 0.49233 -0.03300
C 	C 	0.55822 0.94413 0.49053 -0.04000
C 	C 	0.52998 0.88546 0.48017 -0.00000
C 	C 	0.46381 0.86213 0.47211 -0.07100
C 	C 	0.42549 0.89752 0.47449 -0.02400
H 	H 	0.69962 0.15724 0.52422 0.03100
H 	H 	0.66127 0.06702 0.50244 0.05200
H 	H 	0.49264 0.14406 0.52265 0.03600
H 	H 	0.40257 0.06556 0.50256 0.03300
H 	H 	0.35926 0.96826 0.48260 0.04300
H 	H 	0.60599 0.95707 0.49778 0.03200
H 	H 	0.55875 0.85703 0.47876 0.03300
H 	H 	0.37393 0.87898 0.46834 0.03400
C 	C 	0.16715 0.57999 0.47661 -0.07800
C 	C 	0.13368 0.61636 0.48279 -0.00300
C 	C 	0.96817 0.52638 0.51922 0.02700
C 	C 	0.99570 0.48587 0.51190 -0.02700
C 	C 	0.96002 0.41396 0.51510 -0.04100
C 	C 	0.90367 0.38477 0.52675 -0.00200
C 	C 	0.87973 0.42589 0.53493 -0.06500
C 	C 	0.91157 0.49654 0.53098 -0.02500
H 	H 	0.08521 0.43718 0.50158 0.05200
H 	H 	0.15032 0.66808 0.47815 0.04000
H 	H 	0.06782 0.67733 0.49787 0.03300
H 	H 	0.97291 0.37986 0.50800 0.03500
H 	H 	0.87807 0.32976 0.52927 0.03800
H 	H 	0.89138 0.52794 0.53676 0.04200
