data_crystal

_cell_length_a 37.69412
_cell_length_b 38.45599
_cell_length_c 30.91652
_cell_angle_alpha 90.56028
_cell_angle_beta  89.09900
_cell_angle_gamma 90.00633

_symmetry_space_group_name_	'P 1'
_symmetry_space_group_name_H-M	'P 1'

loop_
_symmetry_equiv_pos_as_xyz
  x,y,z

loop_
_atom_site_label
_atom_site_type_symbol
_atom_site_fract_x
_atom_site_fract_y
_atom_site_fract_z
_atom_site_charge
Cd	Cd	0.10644 0.89372 0.45369 1.24000
Cd	Cd	0.14754 0.97302 0.47969 1.16600
O 	O 	0.05962 0.86605 0.49845 -0.31900
O 	O 	0.07560 0.84538 0.43455 -0.35800
C 	C 	0.05547 0.84232 0.46877 0.27600
O 	O 	0.13718 0.90841 0.39509 -0.40900
O 	O 	0.17899 0.94254 0.42842 -0.44800
C 	C 	0.16691 0.92644 0.39362 0.29200
C 	C 	0.06734 0.95674 0.44526 0.29500
O 	O 	0.14337 0.92076 0.51680 -0.45300
O 	O 	0.05239 0.93157 0.42340 -0.30900
O 	O 	0.09415 0.94750 0.46798 -0.54100
C 	C 	0.16496 0.89440 0.51418 0.27700
O 	O 	0.15641 0.87023 0.48617 -0.35100
Cd	Cd	0.00853 0.79709 0.85680 1.23900
Cd	Cd	0.10258 0.80479 0.84706 1.15900
O 	O 	0.97891 0.73988 0.84942 -0.31700
O 	O 	0.94988 0.78717 0.86945 -0.36000
C 	C 	0.94892 0.75390 0.86168 0.27600
O 	O 	0.01826 0.85127 0.87780 -0.39200
O 	O 	0.07523 0.85676 0.85252 -0.44100
C 	C 	0.05039 0.86421 0.88168 0.28900
C 	C 	0.05226 0.77651 0.92632 0.29700
O 	O 	0.05931 0.78673 0.79816 -0.45700
O 	O 	0.01931 0.77999 0.93924 -0.29100
O 	O 	0.05798 0.77850 0.88501 -0.54400
C 	C 	0.04090 0.80533 0.77149 0.28000
O 	O 	0.00940 0.81453 0.78560 -0.38000
C 	C 	0.74336 0.60678 0.77908 0.12200
N 	N 	0.71970 0.61832 0.74989 -0.14000
C 	C 	0.70578 0.59607 0.72024 0.12900
N 	N 	0.71152 0.56134 0.72435 -0.14400
C 	C 	0.73318 0.54934 0.75555 0.13000
N 	N 	0.74906 0.57214 0.78285 -0.14000
C 	C 	0.86482 0.66584 0.43406 0.12100
N 	N 	0.83351 0.66063 0.45536 -0.14100
C 	C 	0.81846 0.62854 0.45591 0.12800
N 	N 	0.83505 0.60156 0.43546 -0.14300
C 	C 	0.86645 0.60657 0.41440 0.13000
N 	N 	0.88083 0.63889 0.41283 -0.13900
Cd	Cd	0.00586 0.00678 0.65139 1.23900
Cd	Cd	0.99153 0.91963 0.68643 1.16700
O 	O 	0.95579 0.04246 0.62646 -0.32700
O 	O 	0.00866 0.06446 0.63682 -0.35400
C 	C 	0.97569 0.07017 0.62720 0.27600
O 	O 	0.05700 0.99238 0.68104 -0.38500
O 	O 	0.04946 0.93309 0.67876 -0.42800
C 	C 	0.06583 0.96091 0.69389 0.29000
C 	C 	0.97586 0.99386 0.73506 0.31200
O 	O 	0.98456 0.94707 0.62041 -0.45900
O 	O 	0.98529 0.02638 0.73096 -0.29800
O 	O 	0.97645 0.97592 0.69941 -0.54600
C 	C 	0.00871 0.94946 0.58993 0.29200
O 	O 	0.02437 0.97970 0.58725 -0.35500
Cd	Cd	0.95491 0.18661 0.39509 1.24100
Cd	Cd	0.94286 0.09746 0.42126 1.16800
O 	O 	0.90701 0.23029 0.40423 -0.31500
O 	O 	0.96141 0.24467 0.38563 -0.36100
C 	C 	0.92898 0.25491 0.39304 0.27200
O 	O 	0.00903 0.16482 0.38900 -0.38000
O 	O 	0.99514 0.10694 0.38648 -0.42700
C 	C 	0.01754 0.13216 0.39611 0.28800
C 	C 	0.95712 0.16453 0.48274 0.30100
O 	O 	0.91507 0.13357 0.37229 -0.46000
O 	O 	0.97009 0.19593 0.47886 -0.29300
O 	O 	0.94119 0.15261 0.44895 -0.53700
C 	C 	0.92436 0.13941 0.33235 0.29300
O 	O 	0.94230 0.16792 0.32542 -0.35000
C 	C 	0.84516 0.23844 0.79917 0.12000
N 	N 	0.81755 0.21768 0.81084 -0.13900
C 	C 	0.79447 0.22800 0.84255 0.13000
N 	N 	0.79943 0.25892 0.86299 -0.14500
C 	C 	0.82768 0.27919 0.85260 0.13000
N 	N 	0.85049 0.26906 0.82042 -0.13900
C 	C 	0.79808 0.39253 0.18995 0.12200
N 	N 	0.76385 0.39285 0.20405 -0.14100
C 	C 	0.73717 0.39680 0.17566 0.13000
N 	N 	0.74481 0.40145 0.13300 -0.14500
C 	C 	0.77907 0.40040 0.11847 0.12900
N 	N 	0.80566 0.39651 0.14722 -0.13800
Cd	Cd	0.09523 0.08304 0.17310 1.24300
Cd	Cd	0.09359 0.01085 0.24367 1.16300
O 	O 	0.05933 0.13403 0.19363 -0.31400
O 	O 	0.09626 0.13529 0.13816 -0.36100
C 	C 	0.07354 0.15214 0.16269 0.28200
O 	O 	0.13855 0.04775 0.14772 -0.36800
O 	O 	0.11049 0.00047 0.17541 -0.43500
C 	C 	0.13934 0.01490 0.15960 0.28300
C 	C 	0.13782 0.08568 0.24798 0.30300
O 	O 	0.04861 0.04030 0.20855 -0.44900
O 	O 	0.14473 0.11139 0.22193 -0.29600
O 	O 	0.10929 0.06824 0.23903 -0.53400
C 	C 	0.03625 0.03417 0.16992 0.28200
O 	O 	0.05215 0.05103 0.13870 -0.34500
Cd	Cd	0.09321 0.12741 0.02773 1.24300
Cd	Cd	0.14478 0.06683 0.96393 1.16400
O 	O 	0.07838 0.18341 0.99490 -0.31900
O 	O 	0.05576 0.16808 0.05782 -0.34200
C 	C 	0.05746 0.19119 0.02736 0.27200
O 	O 	0.09083 0.07812 0.06548 -0.38800
O 	O 	0.14128 0.05565 0.03443 -0.43200
C 	C 	0.11045 0.05103 0.05389 0.28400
C 	C 	0.05909 0.08566 0.96444 0.29200
O 	O 	0.15583 0.12298 0.98887 -0.45700
O 	O 	0.03623 0.10291 0.98847 -0.29100
O 	O 	0.09180 0.09580 0.96801 -0.53000
C 	C 	0.16979 0.13166 0.02580 0.29400
O 	O 	0.14761 0.14084 0.05664 -0.34700
C 	C 	0.93480 0.31750 0.81363 0.12200
N 	N 	0.95572 0.31771 0.77736 -0.13900
C 	C 	0.94393 0.33275 0.74068 0.13000
N 	N 	0.91246 0.34987 0.74122 -0.14300
C 	C 	0.89223 0.35101 0.77787 0.13100
N 	N 	0.90284 0.33383 0.81356 -0.14000
C 	C 	0.03452 0.33914 0.36346 0.12100
N 	N 	0.03766 0.32940 0.40547 -0.13900
C 	C 	0.02214 0.34871 0.43761 0.13100
N 	N 	0.00392 0.37790 0.42770 -0.14300
C 	C 	0.99966 0.38697 0.38584 0.13300
N 	N 	0.01503 0.36766 0.35379 -0.13700
Cd	Cd	0.32691 0.88390 0.93835 1.24100
Cd	Cd	0.24683 0.90255 0.99380 1.16200
O 	O 	0.38149 0.86755 0.97632 -0.31600
O 	O 	0.37878 0.86766 0.90558 -0.35600
C 	C 	0.39832 0.86351 0.93949 0.27600
O 	O 	0.28673 0.88836 0.88717 -0.39400
O 	O 	0.24870 0.92400 0.92591 -0.44600
C 	C 	0.25750 0.90714 0.88990 0.28900
C 	C 	0.28482 0.82797 0.96932 0.30200
O 	O 	0.30281 0.92758 0.99841 -0.45600
O 	O 	0.30883 0.81663 0.94171 -0.29600
O 	O 	0.28802 0.86012 0.98149 -0.54300
C 	C 	0.31496 0.95282 0.97450 0.28700
O 	O 	0.33331 0.94357 0.94020 -0.35500
Cd	Cd	0.30824 0.09492 0.56761 1.24000
Cd	Cd	0.28400 0.01962 0.50453 1.16200
O 	O 	0.37044 0.11469 0.56491 -0.31600
O 	O 	0.32858 0.14600 0.59598 -0.35400
C 	C 	0.36162 0.14412 0.58317 0.27700
O 	O 	0.24914 0.09492 0.57158 -0.38000
O 	O 	0.24016 0.03875 0.54910 -0.44200
C 	C 	0.22996 0.07157 0.55080 0.29400
C 	C 	0.29915 0.10036 0.47642 0.30800
O 	O 	0.32290 0.02875 0.56098 -0.46000
O 	O 	0.30079 0.13101 0.49484 -0.29500
O 	O 	0.30679 0.07452 0.50113 -0.53700
C 	C 	0.31602 0.02566 0.60208 0.28600
O 	O 	0.31047 0.05461 0.62370 -0.35100
C 	C 	0.58477 0.02172 0.00335 0.11700
N 	N 	0.60810 0.03934 0.97785 -0.13900
C 	C 	0.62420 0.06845 0.99320 0.13000
N 	N 	0.61580 0.08067 0.03342 -0.14400
C 	C 	0.59252 0.06309 0.05903 0.13000
N 	N 	0.57728 0.03345 0.04404 -0.14000
C 	C 	0.50828 0.24807 0.36535 0.12100
N 	N 	0.52792 0.27722 0.35825 -0.13900
C 	C 	0.54581 0.28114 0.32009 0.13100
N 	N 	0.54472 0.25565 0.28952 -0.14300
C 	C 	0.52493 0.22672 0.29626 0.13000
N 	N 	0.50662 0.22304 0.33406 -0.14200
C 	C 	0.57982 0.07885 0.10018 -0.04900
C 	C 	0.60387 0.09312 0.13026 0.10100
C 	C 	0.59098 0.11461 0.16393 -0.08500
C 	C 	0.55441 0.11988 0.16994 -0.00600
C 	C 	0.53020 0.10251 0.14266 0.07200
C 	C 	0.54317 0.08270 0.10748 -0.05300
N 	N 	0.63907 0.08544 0.12778 -0.19900
H 	H 	0.60943 0.12709 0.18572 0.05500
C 	C 	0.54194 0.14552 0.20286 -0.00400
N 	N 	0.49460 0.10465 0.15015 -0.19400
H 	H 	0.52468 0.07093 0.08515 0.05700
C 	C 	0.53069 0.17836 0.18934 -0.08600
C 	C 	0.52140 0.20426 0.21973 0.10300
C 	C 	0.52604 0.19796 0.26432 -0.05000
C 	C 	0.53558 0.16457 0.27792 -0.05100
C 	C 	0.54295 0.13803 0.24757 0.07000
H 	H 	0.52887 0.18367 0.15506 0.05700
N 	N 	0.50713 0.23465 0.20604 -0.19900
H 	H 	0.53815 0.15945 0.31216 0.05000
N 	N 	0.55078 0.10552 0.26152 -0.19400
H 	H 	0.50538 0.23978 0.17300 0.08700
H 	H 	0.49584 0.25251 0.22787 0.09500
H 	H 	0.55246 0.10049 0.29458 0.08500
H 	H 	0.55417 0.08474 0.23987 0.08900
H 	H 	0.47688 0.09264 0.12905 0.08800
H 	H 	0.48420 0.11721 0.17762 0.09000
H 	H 	0.64877 0.06612 0.10678 0.09300
H 	H 	0.65688 0.09740 0.14881 0.08600
C 	C 	0.38990 0.21529 0.51043 -0.03700
C 	C 	0.42662 0.21594 0.51870 0.02300
C 	C 	0.43903 0.20132 0.55708 -0.05500
C 	C 	0.41647 0.18060 0.58254 0.02300
C 	C 	0.38086 0.17585 0.57056 -0.06800
C 	C 	0.36710 0.19601 0.53717 0.00800
C 	C 	0.45244 0.22538 0.48388 0.01100
C 	C 	0.45459 0.25993 0.46982 -0.04300
C 	C 	0.47316 0.26807 0.43152 -0.00500
C 	C 	0.49178 0.24165 0.40843 -0.02000
C 	C 	0.49227 0.20777 0.42496 -0.02100
C 	C 	0.47200 0.19929 0.46163 -0.02700
C 	C 	0.47126 0.30305 0.41509 0.08500
C 	C 	0.47011 0.16343 0.47503 0.08500
C 	C 	0.37580 0.23218 0.47287 0.09200
C 	C 	0.43040 0.16304 0.61968 0.07700
N 	N 	0.46971 0.33108 0.40196 -0.11200
N 	N 	0.46857 0.13472 0.48577 -0.11300
N 	N 	0.44157 0.14896 0.64944 -0.10800
N 	N 	0.36453 0.24571 0.44277 -0.11300
H 	H 	0.33925 0.19379 0.52920 0.05000
H 	H 	0.46689 0.20349 0.56495 0.05400
H 	H 	0.44011 0.28013 0.48733 0.05100
H 	H 	0.50740 0.18761 0.40820 0.04500
C 	C 	0.55998 0.93269 0.96128 -0.02600
C 	C 	0.52303 0.93637 0.95654 0.01200
C 	C 	0.50694 0.96871 0.96463 -0.04400
C 	C 	0.52711 0.99706 0.97852 -0.00100
C 	C 	0.56383 0.99309 0.98494 -0.01500
C 	C 	0.58022 0.96110 0.97542 -0.02100
C 	C 	0.50044 0.90626 0.94522 0.02400
C 	C 	0.48961 0.88342 0.97796 -0.05600
C 	C 	0.45840 0.86404 0.97349 0.02400
C 	C 	0.43724 0.86869 0.93671 -0.07100
C 	C 	0.45189 0.88602 0.90081 0.00700
C 	C 	0.48341 0.90495 0.90501 -0.04000
C 	C 	0.44817 0.83968 0.00668 0.08200
C 	C 	0.49706 0.92451 0.86876 0.09300
C 	C 	0.57727 0.89995 0.95167 0.08600
C 	C 	0.50999 0.03029 0.98580 0.08000
N 	N 	0.44000 0.82016 0.03328 -0.10700
N 	N 	0.50802 0.94022 0.83974 -0.11300
N 	N 	0.49631 0.05690 0.99165 -0.11400
N 	N 	0.59109 0.87369 0.94396 -0.11300
H 	H 	0.60857 0.95817 0.97975 0.04500
H 	H 	0.47856 0.97162 0.96054 0.05300
H 	H 	0.50415 0.88251 0.00794 0.05400
H 	H 	0.43740 0.88712 0.87082 0.04900
C 	C 	0.96530 0.33086 0.70036 -0.04900
C 	C 	0.97208 0.29867 0.67914 0.10700
C 	C 	0.99056 0.29824 0.63937 -0.08600
C 	C 	0.99878 0.32934 0.61817 -0.00300
C 	C 	0.99249 0.36157 0.63964 0.07300
C 	C 	0.97662 0.36186 0.68105 -0.05100
N 	N 	0.95920 0.26838 0.69537 -0.19800
H 	H 	0.99574 0.27362 0.62306 0.06200
C 	C 	0.00722 0.32792 0.57118 -0.00300
N 	N 	0.00089 0.39224 0.62042 -0.19400
H 	H 	0.97178 0.38646 0.69757 0.05100
C 	C 	0.97976 0.32101 0.54233 -0.08400
C 	C 	0.98561 0.32332 0.49761 0.10900
C 	C 	0.01894 0.33468 0.48162 -0.05000
C 	C 	0.04729 0.33854 0.51010 -0.05100
C 	C 	0.04192 0.33443 0.55491 0.07100
H 	H 	0.95360 0.31429 0.55478 0.06200
N 	N 	0.95919 0.31468 0.47011 -0.20000
H 	H 	0.07320 0.34608 0.49764 0.05100
N 	N 	0.06984 0.33744 0.58201 -0.19400
H 	H 	0.93414 0.30759 0.48201 0.09500
H 	H 	0.96378 0.31358 0.43678 0.09900
H 	H 	0.09516 0.34323 0.56984 0.08800
H 	H 	0.06688 0.33325 0.61519 0.09200
H 	H 	0.99588 0.41583 0.63645 0.08700
H 	H 	0.01247 0.39311 0.58959 0.09200
H 	H 	0.94126 0.26810 0.72138 0.10400
H 	H 	0.96554 0.24471 0.68034 0.09400
C 	C 	0.25622 0.08267 0.05474 -0.00600
C 	C 	0.27053 0.04994 0.06353 -0.05900
C 	C 	0.29426 0.03521 0.03317 0.00400
C 	C 	0.30227 0.05259 0.99437 0.00200
C 	C 	0.28385 0.08262 0.98295 -0.06600
C 	C 	0.26106 0.09799 0.01391 0.01000
S 	S 	0.21781 0.09683 0.07518 0.03100
C 	C 	0.20676 0.12346 0.03519 -0.09100
C 	C 	0.23317 0.12086 0.00289 -0.03600
S 	S 	0.31741 0.02325 0.95883 0.01300
C 	C 	0.31626 0.98864 0.99103 -0.08100
C 	C 	0.30199 0.99912 0.03122 -0.02600
H 	H 	0.26149 0.03535 0.09142 0.04200
H 	H 	0.28518 0.09224 0.95013 0.04000
H 	H 	0.22967 0.13048 0.97041 0.02800
H 	H 	0.29284 0.98096 0.05554 0.02200
C 	C 	0.95365 0.30712 0.93275 -0.02800
C 	C 	0.97260 0.27556 0.93279 0.01100
C 	C 	0.97872 0.25749 0.89380 -0.04400
C 	C 	0.96667 0.27073 0.85472 -0.00400
C 	C 	0.94818 0.30275 0.85437 -0.01900
C 	C 	0.94187 0.32073 0.89361 -0.01900
C 	C 	0.98744 0.26150 0.97312 0.02300
C 	C 	0.97344 0.23049 0.98971 -0.05500
C 	C 	0.99477 0.20847 0.01411 0.02100
C 	C 	0.03011 0.21813 0.02285 -0.06700
C 	C 	0.04118 0.25215 0.01384 0.00600
C 	C 	0.02032 0.27369 0.98826 -0.03600
C 	C 	0.98134 0.17478 0.02651 0.08700
C 	C 	0.03402 0.30704 0.97492 0.09300
C 	C 	0.94549 0.32531 0.97277 0.08500
C 	C 	0.97362 0.25125 0.81533 0.08500
N 	N 	0.97056 0.14777 0.03642 -0.10400
N 	N 	0.04498 0.33377 0.96419 -0.11400
N 	N 	0.97952 0.23542 0.78403 -0.11700
N 	N 	0.93894 0.33988 0.00484 -0.11600
H 	H 	0.92758 0.34522 0.89368 0.04500
H 	H 	0.99324 0.23312 0.89392 0.05400
H 	H 	0.94727 0.22195 0.98006 0.05300
H 	H 	0.06761 0.26045 0.02277 0.04200
C 	C 	0.26535 0.08061 0.36033 -0.00500
C 	C 	0.25284 0.08769 0.31909 -0.05000
C 	C 	0.22161 0.07121 0.30604 0.00500
C 	C 	0.20238 0.05003 0.33479 0.01500
C 	C 	0.21273 0.04621 0.37762 -0.06100
C 	C 	0.24510 0.06095 0.38992 -0.00900
S 	S 	0.29106 0.10747 0.38846 0.02800
C 	C 	0.27818 0.09495 0.43774 -0.11300
C 	C 	0.25328 0.06831 0.43338 -0.03100
S 	S 	0.16073 0.04724 0.31773 -0.08000
C 	C 	0.16647 0.07024 0.27255 -0.10200
C 	C 	0.20139 0.08257 0.27096 -0.00600
H 	H 	0.26561 0.10708 0.29897 0.04800
H 	H 	0.19554 0.03357 0.40104 0.01000
H 	H 	0.24253 0.05386 0.46023 -0.05700
H 	H 	0.21053 0.10219 0.24848 0.04800
C 	C 	0.05055 0.25866 0.29504 -0.02300
C 	C 	0.06387 0.27314 0.25628 0.01200
C 	C 	0.07090 0.30886 0.25435 -0.04200
C 	C 	0.06367 0.33044 0.29023 -0.00300
C 	C 	0.04816 0.31629 0.32815 -0.01700
C 	C 	0.04271 0.28025 0.33063 -0.02300
C 	C 	0.06970 0.25094 0.21735 0.02500
C 	C 	0.04027 0.23952 0.19395 -0.05500
C 	C 	0.04251 0.20906 0.16884 0.02500
C 	C 	0.07461 0.19025 0.16671 -0.06600
C 	C 	0.10553 0.20577 0.18270 0.00900
C 	C 	0.10313 0.23569 0.20886 -0.03700
C 	C 	0.01098 0.19548 0.14884 0.08400
C 	C 	0.13457 0.24914 0.22921 0.09300
C 	C 	0.04456 0.22166 0.29833 0.08800
C 	C 	0.07323 0.36678 0.28833 0.08800
N 	N 	0.98566 0.18458 0.13296 -0.10600
N 	N 	0.15974 0.25994 0.24555 -0.11300
N 	N 	0.08087 0.39590 0.28681 -0.11300
N 	N 	0.03979 0.19201 0.30082 -0.10400
H 	H 	0.03131 0.26915 0.35982 0.05400
H 	H 	0.08199 0.31986 0.22491 0.05300
H 	H 	0.01490 0.25248 0.19848 0.05600
H 	H 	0.13076 0.19240 0.17898 0.05100
C 	C 	0.70032 0.39093 0.19030 -0.05000
C 	C 	0.68300 0.35887 0.18178 0.10200
C 	C 	0.65163 0.35076 0.20451 -0.08500
C 	C 	0.63837 0.37303 0.23704 -0.00400
C 	C 	0.65404 0.40606 0.24329 0.07100
C 	C 	0.68480 0.41480 0.21955 -0.05200
N 	N 	0.69702 0.33523 0.15325 -0.20000
H 	H 	0.63880 0.32590 0.19891 0.05700
C 	C 	0.61153 0.35940 0.26794 -0.00500
N 	N 	0.63982 0.42935 0.27205 -0.19400
H 	H 	0.69766 0.43961 0.22538 0.04900
C 	C 	0.62313 0.34121 0.30418 -0.08500
C 	C 	0.60030 0.31809 0.32583 0.10300
C 	C 	0.56532 0.31342 0.31089 -0.04800
C 	C 	0.55237 0.33549 0.27891 -0.05000
C 	C 	0.57525 0.35850 0.25717 0.07100
H 	H 	0.65062 0.34327 0.31372 0.05700
N 	N 	0.61242 0.29977 0.35999 -0.20000
H 	H 	0.52504 0.33303 0.26886 0.05000
N 	N 	0.56244 0.37915 0.22556 -0.19400
H 	H 	0.63869 0.30247 0.36983 0.08800
H 	H 	0.59569 0.28353 0.37787 0.09700
H 	H 	0.53583 0.37752 0.21672 0.08600
H 	H 	0.57845 0.39775 0.21050 0.08900
H 	H 	0.65207 0.45337 0.27731 0.08600
H 	H 	0.61603 0.42426 0.28855 0.09000
H 	H 	0.72133 0.33931 0.13759 0.09500
H 	H 	0.68376 0.31189 0.14697 0.08600
C 	C 	0.64742 0.08907 0.96455 -0.04900
C 	C 	0.67987 0.07551 0.94782 0.10100
C 	C 	0.70186 0.09674 0.92220 -0.08500
C 	C 	0.69310 0.13166 0.91534 -0.00500
C 	C 	0.66017 0.14484 0.93084 0.07200
C 	C 	0.63757 0.12329 0.95509 -0.05200
N 	N 	0.69069 0.04277 0.95750 -0.19900
H 	H 	0.72692 0.08665 0.90977 0.05700
C 	C 	0.72026 0.15510 0.89653 -0.00500
N 	N 	0.65029 0.17821 0.92298 -0.19400
H 	H 	0.61243 0.13338 0.96727 0.05300
C 	C 	0.71990 0.16189 0.85205 -0.08600
C 	C 	0.74296 0.18667 0.83389 0.10200
C 	C 	0.76847 0.20311 0.86038 -0.04900
C 	C 	0.76955 0.19537 0.90459 -0.05200
C 	C 	0.74544 0.17186 0.92309 0.07200
H 	H 	0.70053 0.14899 0.83187 0.05700
N 	N 	0.73954 0.19547 0.79163 -0.19900
H 	H 	0.78929 0.20776 0.92473 0.05300
N 	N 	0.74653 0.16562 0.96632 -0.19400
H 	H 	0.72159 0.18222 0.77199 0.08900
H 	H 	0.75328 0.21649 0.77839 0.09500
H 	H 	0.76522 0.17818 0.98560 0.08700
H 	H 	0.72894 0.14840 0.98130 0.09100
H 	H 	0.62620 0.18787 0.93524 0.08700
H 	H 	0.66606 0.19473 0.90424 0.09000
H 	H 	0.67668 0.02735 0.97947 0.09400
H 	H 	0.71421 0.03277 0.94404 0.08800
C 	C 	0.83673 0.30844 0.88125 -0.04800
C 	C 	0.85396 0.30206 0.92070 0.10500
C 	C 	0.84920 0.32537 0.95552 -0.08500
C 	C 	0.82762 0.35475 0.95126 -0.00500
C 	C 	0.81569 0.36409 0.90985 0.07100
C 	C 	0.81990 0.34050 0.87517 -0.05100
N 	N 	0.87367 0.27282 0.92590 -0.20000
H 	H 	0.86004 0.31925 0.98682 0.06400
C 	C 	0.81161 0.37071 0.99074 0.00200
N 	N 	0.79874 0.39480 0.90376 -0.19400
H 	H 	0.80755 0.34586 0.84452 0.05000
C 	C 	0.82985 0.39735 0.01225 -0.09000
C 	C 	0.81704 0.41064 0.05202 0.10700
C 	C 	0.78673 0.39542 0.07176 -0.05000
C 	C 	0.76704 0.37069 0.04864 -0.04900
C 	C 	0.77926 0.35797 0.00843 0.06900
H 	H 	0.85399 0.40783 0.99797 0.06000
N 	N 	0.83331 0.43850 0.07049 -0.19900
H 	H 	0.74315 0.35983 0.06306 0.04900
N 	N 	0.76028 0.33300 0.98753 -0.19200
H 	H 	0.85659 0.44865 0.05681 0.09100
H 	H 	0.82197 0.45147 0.09713 0.09600
H 	H 	0.73662 0.32361 0.00110 0.08400
H 	H 	0.76857 0.32273 0.95769 0.09200
H 	H 	0.78791 0.40058 0.87381 0.08600
H 	H 	0.79707 0.41358 0.92833 0.08900
H 	H 	0.87972 0.25634 0.89977 0.10300
H 	H 	0.88456 0.26715 0.95590 0.09200
C 	C 	0.90940 0.09318 0.22170 -0.00300
C 	C 	0.92647 0.08622 0.18214 -0.05100
C 	C 	0.94330 0.05400 0.17595 0.01600
C 	C 	0.94004 0.02805 0.20768 0.00900
C 	C 	0.92248 0.03489 0.24706 -0.05900
C 	C 	0.90847 0.06817 0.25471 0.01100
S 	S 	0.91074 0.13211 0.24549 0.04700
C 	C 	0.90856 0.11948 0.29688 -0.09300
C 	C 	0.90726 0.08312 0.29691 -0.01700
S 	S 	0.97707 0.00477 0.20519 -0.02300
C 	C 	0.99853 0.02574 0.16571 -0.06900
C 	C 	0.97520 0.05135 0.15111 -0.01800
H 	H 	0.93140 0.10718 0.15962 0.05600
H 	H 	0.92458 0.01668 0.27345 0.03400
H 	H 	0.91224 0.06810 0.32567 -0.00900
H 	H 	0.98419 0.07228 0.13038 0.05400
C 	C 	0.16045 0.11840 0.48093 0.01100
C 	C 	0.13441 0.14131 0.46659 -0.05900
C 	C 	0.11078 0.12892 0.43533 0.02300
C 	C 	0.11193 0.09389 0.42176 -0.00200
C 	C 	0.13467 0.06998 0.44117 -0.04700
C 	C 	0.15933 0.08292 0.47084 -0.01700
S 	S 	0.18460 0.12362 0.52497 0.03600
C 	C 	0.19565 0.08177 0.53231 -0.09800
C 	C 	0.17895 0.06212 0.49966 -0.01200
S 	S 	0.07312 0.08408 0.39942 -0.01500
C 	C 	0.05509 0.12385 0.40324 -0.06600
C 	C 	0.07873 0.14588 0.42484 -0.02300
H 	H 	0.13187 0.16729 0.48015 0.05300
H 	H 	0.13330 0.04251 0.43341 -0.01900
H 	H 	0.18269 0.03438 0.49523 -0.06800
H 	H 	0.07147 0.17144 0.43708 0.04900
C 	C 	0.84931 0.38812 0.29301 -0.02900
C 	C 	0.86837 0.35684 0.28674 0.01100
C 	C 	0.86778 0.33995 0.24631 -0.04300
C 	C 	0.84680 0.35273 0.21310 -0.00400
C 	C 	0.82630 0.38307 0.22011 -0.02000
C 	C 	0.82883 0.40127 0.25950 -0.02100
C 	C 	0.88641 0.33972 0.32313 0.02300
C 	C 	0.86588 0.32451 0.35616 -0.06000
C 	C 	0.88083 0.29969 0.38329 0.02000
C 	C 	0.91602 0.28833 0.37550 -0.07800
C 	C 	0.93769 0.30698 0.34643 0.00200
C 	C 	0.92313 0.33296 0.32076 -0.04300
C 	C 	0.86044 0.28717 0.41989 0.07800
C 	C 	0.94582 0.35203 0.29132 0.09200
C 	C 	0.84901 0.40585 0.33437 0.08000
C 	C 	0.84506 0.33353 0.17277 0.08500
N 	N 	0.84409 0.27719 0.44923 -0.10800
N 	N 	0.96401 0.36731 0.26775 -0.11300
N 	N 	0.84366 0.31816 0.14046 -0.11300
N 	N 	0.84840 0.42008 0.36751 -0.12300
H 	H 	0.81344 0.42482 0.26476 0.04300
H 	H 	0.88258 0.31601 0.24134 0.05200
H 	H 	0.83796 0.33098 0.35960 0.05400
H 	H 	0.96552 0.30037 0.34258 0.04700
C 	C 	0.19400 0.91127 0.79133 0.00600
C 	C 	0.16317 0.90086 0.77020 -0.07000
C 	C 	0.13737 0.92621 0.76249 0.01200
C 	C 	0.14124 0.96016 0.77901 -0.00900
C 	C 	0.17177 0.97035 0.80099 -0.05600
C 	C 	0.19768 0.94505 0.80834 0.00600
S 	S 	0.22061 0.88499 0.81820 -0.02600
C 	C 	0.23898 0.91524 0.85000 -0.07400
C 	C 	0.22290 0.94734 0.84174 -0.02300
S 	S 	0.11625 0.98654 0.75003 0.01600
C 	C 	0.09932 0.95642 0.71673 -0.07900
C 	C 	0.11305 0.92397 0.72817 -0.02800
H 	H 	0.16012 0.87443 0.75836 0.02400
H 	H 	0.17488 0.99678 0.81277 0.02900
H 	H 	0.22596 0.97010 0.86228 0.02700
H 	H 	0.10615 0.89984 0.71216 0.03200
C 	C 	0.98247 0.98195 0.85806 -0.00500
C 	C 	0.98085 0.00122 0.89659 -0.04600
C 	C 	0.01262 0.00969 0.91703 -0.00400
C 	C 	0.04539 0.99920 0.89879 0.04500
C 	C 	0.04715 0.98219 0.85868 -0.07400
C 	C 	0.01529 0.97330 0.83840 0.02500
S 	S 	0.95335 0.98660 0.81880 0.02700
C 	C 	0.97959 0.97654 0.77660 -0.13800
C 	C 	0.01328 0.96937 0.79291 -0.03000
S 	S 	0.07638 0.02658 0.91636 -0.12400
C 	C 	0.05034 0.05064 0.94892 -0.08800
C 	C 	0.01554 0.03845 0.94560 -0.01000
H 	H 	0.95593 0.01238 0.90788 0.04600
H 	H 	0.07238 0.97897 0.84183 0.04700
H 	H 	0.03672 0.96858 0.77250 0.02100
H 	H 	0.99274 0.05279 0.95795 0.04800
C 	C 	0.90594 0.13656 0.65453 -0.03900
C 	C 	0.92686 0.16299 0.67320 0.02500
C 	C 	0.96371 0.16267 0.66627 -0.05900
C 	C 	0.98010 0.13436 0.64522 0.02400
C 	C 	0.95951 0.10525 0.63280 -0.07000
C 	C 	0.92235 0.10826 0.63359 0.00700
C 	C 	0.91120 0.18745 0.70560 0.00900
C 	C 	0.91599 0.18112 0.74972 -0.04200
C 	C 	0.89672 0.20004 0.78103 -0.00300
C 	C 	0.87201 0.22526 0.76819 -0.02000
C 	C 	0.86939 0.23364 0.72431 -0.02200
C 	C 	0.88908 0.21503 0.69294 -0.02700
C 	C 	0.90207 0.19312 0.82632 0.08200
C 	C 	0.88662 0.22442 0.64799 0.08400
C 	C 	0.86773 0.13727 0.65895 0.09000
C 	C 	0.01766 0.13595 0.63548 0.08500
N 	N 	0.90637 0.18764 0.86260 -0.11700
N 	N 	0.88469 0.23195 0.61195 -0.11400
N 	N 	0.04776 0.13729 0.62772 -0.10900
N 	N 	0.83713 0.13786 0.66250 -0.11700
H 	H 	0.90618 0.08741 0.62061 0.04300
H 	H 	0.97978 0.18367 0.67901 0.05200
H 	H 	0.93389 0.16068 0.75958 0.05400
H 	H 	0.85118 0.25382 0.71449 0.04300
C 	C 	0.88776 0.57630 0.40053 -0.04800
C 	C 	0.91889 0.56688 0.42278 0.10300
C 	C 	0.93789 0.53723 0.40941 -0.08500
C 	C 	0.92509 0.51554 0.37652 -0.00400
C 	C 	0.89442 0.52523 0.35373 0.07400
C 	C 	0.87607 0.55565 0.36595 -0.05100
N 	N 	0.92980 0.58524 0.45803 -0.19900
H 	H 	0.96155 0.52978 0.42656 0.05700
C 	C 	0.94091 0.48059 0.37081 -0.00300
N 	N 	0.88252 0.50551 0.32017 -0.19300
H 	H 	0.85238 0.56305 0.34881 0.05100
C 	C 	0.92564 0.45267 0.39313 -0.08400
C 	C 	0.94265 0.42029 0.39389 0.10700
C 	C 	0.97699 0.41678 0.37524 -0.04800
C 	C 	0.99123 0.44393 0.35046 -0.04900
C 	C 	0.97322 0.47578 0.34758 0.07300
H 	H 	0.90074 0.45636 0.41060 0.06400
N 	N 	0.92575 0.39261 0.41190 -0.19800
H 	H 	0.01695 0.44072 0.33468 0.05900
N 	N 	0.98710 0.50160 0.32278 -0.19400
H 	H 	0.90131 0.39582 0.42786 0.09500
H 	H 	0.93568 0.36743 0.40810 0.09700
H 	H 	0.01146 0.49818 0.30669 0.09100
H 	H 	0.97342 0.52485 0.31821 0.09200
H 	H 	0.85930 0.51232 0.30428 0.08800
H 	H 	0.89656 0.48375 0.30892 0.09400
H 	H 	0.91421 0.60481 0.47215 0.09500
H 	H 	0.95356 0.57887 0.47303 0.08800
C 	C 	0.74590 0.51322 0.75330 -0.05000
C 	C 	0.77352 0.50338 0.72401 0.10300
C 	C 	0.78930 0.47055 0.72774 -0.08500
C 	C 	0.77880 0.44797 0.76084 -0.00500
C 	C 	0.74904 0.45641 0.78728 0.06900
C 	C 	0.73316 0.48928 0.78372 -0.05200
N 	N 	0.78575 0.52568 0.69325 -0.20000
H 	H 	0.81143 0.46346 0.70660 0.05700
C 	C 	0.80295 0.41933 0.77245 -0.00700
N 	N 	0.73548 0.43301 0.81576 -0.19500
H 	H 	0.71133 0.49650 0.80526 0.04900
C 	C 	0.82987 0.42622 0.80206 -0.08700
C 	C 	0.85896 0.40372 0.80543 0.10200
C 	C 	0.86026 0.37297 0.77975 -0.05100
C 	C 	0.83175 0.36462 0.75295 -0.05300
C 	C 	0.80296 0.38751 0.74916 0.06900
H 	H 	0.82923 0.45026 0.82070 0.05600
N 	N 	0.88590 0.41237 0.83232 -0.19900
H 	H 	0.83229 0.34055 0.73435 0.05100
N 	N 	0.77548 0.37882 0.72320 -0.19400
H 	H 	0.88387 0.43434 0.85237 0.08800
H 	H 	0.90948 0.39820 0.83277 0.09600
H 	H 	0.77609 0.35569 0.70518 0.08600
H 	H 	0.75285 0.39440 0.72163 0.08800
H 	H 	0.71450 0.43989 0.83662 0.08400
H 	H 	0.74451 0.40734 0.81600 0.08400
H 	H 	0.77549 0.55072 0.69037 0.09700
H 	H 	0.80608 0.51808 0.67180 0.08600
C 	C 	0.78934 0.62142 0.48674 -0.04900
C 	C 	0.75483 0.63483 0.48062 0.10200
C 	C 	0.72931 0.63200 0.51406 -0.08700
C 	C 	0.73798 0.61650 0.55339 -0.00300
C 	C 	0.77170 0.60077 0.55808 0.07500
C 	C 	0.79697 0.60334 0.52456 -0.05200
N 	N 	0.74600 0.65019 0.44284 -0.19900
H 	H 	0.70315 0.64315 0.51013 0.05500
C 	C 	0.71343 0.62024 0.59095 -0.00600
N 	N 	0.78012 0.58364 0.59486 -0.19300
H 	H 	0.82319 0.59231 0.52860 0.05000
C 	C 	0.69142 0.59219 0.60219 -0.08600
C 	C 	0.68126 0.58732 0.64566 0.10200
C 	C 	0.69490 0.60991 0.67770 -0.05000
C 	C 	0.70822 0.64236 0.66461 -0.05200
C 	C 	0.71837 0.64747 0.62130 0.07700
H 	H 	0.68470 0.57281 0.57797 0.05600
N 	N 	0.65841 0.56140 0.65642 -0.19800
H 	H 	0.71415 0.66218 0.68859 0.05700
N 	N 	0.73427 0.67772 0.60948 -0.19400
H 	H 	0.64955 0.54386 0.63292 0.08800
H 	H 	0.64789 0.55964 0.68779 0.09500
H 	H 	0.73936 0.69708 0.63252 0.09100
H 	H 	0.74074 0.68271 0.57717 0.09200
H 	H 	0.80534 0.57281 0.59832 0.08800
H 	H 	0.76175 0.58041 0.62006 0.09400
H 	H 	0.76375 0.65103 0.41660 0.09500
H 	H 	0.72070 0.66075 0.43898 0.08800
C 	C 	0.04300 0.92668 0.98133 0.00200
C 	C 	0.03573 0.95711 0.00511 -0.06000
C 	C 	0.06200 0.96990 0.03279 0.02000
C 	C 	0.09478 0.95259 0.03555 -0.00500
C 	C 	0.10370 0.92540 0.00688 -0.06200
C 	C 	0.07727 0.91241 0.97979 0.00800
S 	S 	0.02299 0.91555 0.93571 0.03200
C 	C 	0.05622 0.89273 0.91262 -0.08800
C 	C 	0.08459 0.89299 0.94139 -0.02600
S 	S 	0.12399 0.98107 0.05395 -0.03000
C 	C 	0.09723 0.01551 0.06037 -0.06800
C 	C 	0.06334 0.00518 0.04699 -0.03100
H 	H 	0.01144 0.97151 0.00026 0.05100
H 	H 	0.13091 0.91657 0.00341 0.00800
H 	H 	0.10923 0.87913 0.93539 0.00200
H 	H 	0.04237 0.02363 0.04065 0.05100
C 	C 	0.06559 0.86841 0.60095 0.00400
C 	C 	0.08390 0.85395 0.63560 -0.06100
C 	C 	0.06767 0.82712 0.65916 0.00600
C 	C 	0.03471 0.81369 0.64623 -0.00100
C 	C 	0.01527 0.82990 0.61401 -0.07800
C 	C 	0.03043 0.85828 0.59244 0.01300
S 	S 	0.06877 0.91024 0.58863 0.02600
C 	C 	0.02689 0.91783 0.57446 -0.08600
C 	C 	0.00925 0.88570 0.57642 -0.03600
S 	S 	0.01575 0.79551 0.68923 0.00100
C 	C 	0.04793 0.80245 0.72474 -0.08900
C 	C 	0.07505 0.82087 0.70347 -0.03400
H 	H 	0.10832 0.86566 0.64665 0.04800
H 	H 	0.98754 0.82348 0.60968 0.04200
H 	H 	0.98059 0.88379 0.57510 0.02600
H 	H 	0.09610 0.83403 0.72060 0.01100
C 	C 	0.13400 0.78574 0.00129 -0.00800
C 	C 	0.16184 0.80661 0.01599 -0.06200
C 	C 	0.19669 0.79577 0.00663 -0.00800
C 	C 	0.20298 0.76599 0.98086 0.00300
C 	C 	0.17511 0.74853 0.96062 -0.07200
C 	C 	0.14030 0.75803 0.97216 0.00900
S 	S 	0.09281 0.79974 0.99403 -0.00000
C 	C 	0.08092 0.77048 0.95665 -0.10100
C 	C 	0.11046 0.74960 0.94677 -0.04100
S 	S 	0.24394 0.76874 0.96049 0.01900
C 	C 	0.25580 0.80578 0.98507 -0.11200
C 	C 	0.22646 0.81823 0.00901 -0.01500
H 	H 	0.15659 0.83136 0.03188 0.02400
H 	H 	0.18032 0.72967 0.93504 0.03600
H 	H 	0.11198 0.73270 0.91855 0.01500
H 	H 	0.22505 0.84423 0.02267 -0.06600
C 	C 	0.85358 0.73232 0.83731 -0.04100
C 	C 	0.85280 0.69628 0.84518 0.02500
C 	C 	0.88221 0.68017 0.86361 -0.05800
C 	C 	0.91320 0.69916 0.87145 0.02300
C 	C 	0.91508 0.73458 0.85989 -0.07200
C 	C 	0.88470 0.75124 0.84452 0.00800
C 	C 	0.82357 0.67450 0.82849 0.01100
C 	C 	0.82313 0.66608 0.78433 -0.04500
C 	C 	0.79666 0.64451 0.76780 -0.00400
C 	C 	0.77008 0.63114 0.79572 -0.02000
C 	C 	0.77033 0.63971 0.83990 -0.02100
C 	C 	0.79688 0.66144 0.85642 -0.02600
C 	C 	0.79745 0.63547 0.72230 0.07800
C 	C 	0.79652 0.67030 0.90192 0.08600
C 	C 	0.82273 0.74990 0.82109 0.08900
C 	C 	0.94254 0.68234 0.89228 0.08300
N 	N 	0.79811 0.62824 0.68587 -0.11900
N 	N 	0.79626 0.67741 0.93838 -0.11300
N 	N 	0.96604 0.66885 0.90898 -0.10600
N 	N 	0.79800 0.76396 0.80810 -0.11700
H 	H 	0.88563 0.77870 0.83684 0.04200
H 	H 	0.88129 0.65261 0.87072 0.05400
H 	H 	0.84371 0.67608 0.76289 0.05000
H 	H 	0.74999 0.62936 0.86140 0.04500
C 	C 	0.20082 0.91988 0.27363 -0.00500
C 	C 	0.18949 0.92083 0.23076 -0.06800
C 	C 	0.19667 0.95065 0.20626 0.00000
C 	C 	0.21599 0.97837 0.22432 -0.00000
C 	C 	0.22529 0.97824 0.26809 -0.06500
C 	C 	0.21660 0.94911 0.29307 0.00800
S 	S 	0.17927 0.89838 0.31227 0.00800
C 	C 	0.18974 0.92360 0.35453 -0.08500
C 	C 	0.21042 0.95115 0.33865 -0.03200
S 	S 	0.20325 0.01421 0.19936 -0.01300
C 	C 	0.17344 0.99725 0.16581 -0.08500
C 	C 	0.17407 0.96109 0.17236 -0.04200
H 	H 	0.17196 0.90081 0.21851 0.03600
H 	H 	0.23656 0.00116 0.28297 0.04300
H 	H 	0.21611 0.97420 0.35764 0.02300
H 	H 	0.15363 0.94410 0.15980 0.03000
C 	C 	0.01669 0.09254 0.52653 0.00200
C 	C 	0.04580 0.07176 0.51449 -0.05900
C 	C 	0.03953 0.03700 0.50282 0.00500
C 	C 	0.00480 0.02408 0.50150 0.00100
C 	C 	0.97556 0.04568 0.50945 -0.08700
C 	C 	0.98177 0.08000 0.52332 -0.00400
S 	S 	0.01529 0.13523 0.51925 0.02100
C 	C 	0.97145 0.14007 0.51404 -0.10000
C 	C 	0.95638 0.10680 0.51823 -0.05700
S 	S 	0.00477 0.98968 0.46844 0.00600
C 	C 	0.04814 0.98903 0.45581 -0.10800
C 	C 	0.06403 0.01674 0.47820 -0.01300
H 	H 	0.07200 0.08304 0.51076 0.04800
H 	H 	0.94901 0.03698 0.50187 0.01100
H 	H 	0.92924 0.10134 0.50930 -0.01700
H 	H 	0.09240 0.01955 0.48107 -0.03800
C 	C 	0.22129 0.90857 0.61594 -0.00200
C 	C 	0.23311 0.93676 0.64088 -0.06100
C 	C 	0.26849 0.94749 0.63599 0.00900
C 	C 	0.29191 0.92871 0.60861 0.00400
C 	C 	0.27905 0.90329 0.58013 -0.07200
C 	C 	0.24314 0.89401 0.58313 0.01200
S 	S 	0.17985 0.90531 0.59938 0.00100
C 	C 	0.18716 0.88620 0.55127 -0.07500
C 	C 	0.22392 0.88147 0.54685 -0.03400
S 	S 	0.32444 0.95553 0.59489 -0.03000
C 	C 	0.31083 0.99130 0.62136 -0.07700
C 	C 	0.27920 0.98257 0.64323 -0.02300
H 	H 	0.21437 0.95234 0.65966 0.04700
H 	H 	0.29540 0.89406 0.55325 0.03700
H 	H 	0.23665 0.87554 0.51597 0.03300
H 	H 	0.26127 0.00211 0.65648 0.04200
C 	C 	0.96154 0.80879 0.47537 -0.04200
C 	C 	0.96630 0.77369 0.46299 0.02500
C 	C 	0.00062 0.76065 0.45574 -0.06000
C 	C 	0.03013 0.78253 0.45928 0.02300
C 	C 	0.02531 0.81799 0.46992 -0.07300
C 	C 	0.99106 0.83071 0.47894 0.00800
C 	C 	0.93550 0.75043 0.45666 0.01000
C 	C 	0.92365 0.74376 0.41462 -0.04500
C 	C 	0.89851 0.71766 0.40705 -0.00500
C 	C 	0.88500 0.69802 0.44190 -0.02000
C 	C 	0.89492 0.70650 0.48429 -0.02200
C 	C 	0.92025 0.73241 0.49181 -0.02700
C 	C 	0.88681 0.71108 0.36346 0.08100
C 	C 	0.93124 0.73967 0.53554 0.08400
C 	C 	0.92647 0.82257 0.48397 0.08600
C 	C 	0.06528 0.76824 0.45280 0.07700
N 	N 	0.87743 0.70579 0.32855 -0.11300
N 	N 	0.94007 0.74552 0.57054 -0.11900
N 	N 	0.09344 0.75679 0.44762 -0.10900
N 	N 	0.89836 0.83359 0.49088 -0.12100
H 	H 	0.98731 0.85791 0.48743 0.04200
H 	H 	0.00430 0.73347 0.44705 0.05400
H 	H 	0.93482 0.75818 0.38767 0.05000
H 	H 	0.88421 0.69173 0.51122 0.04500
