data_crystal

_cell_length_a 37.34202
_cell_length_b 39.13314
_cell_length_c 25.50220
_cell_angle_alpha 94.15381
_cell_angle_beta  93.80265
_cell_angle_gamma 90.03780

_symmetry_space_group_name_	'P 1'
_symmetry_space_group_name_H-M	'P 1'

loop_
_symmetry_equiv_pos_as_xyz
  x,y,z

loop_
_atom_site_label
_atom_site_type_symbol
_atom_site_fract_x
_atom_site_fract_y
_atom_site_fract_z
_atom_site_charge
Cd	Cd	0.02449 0.83391 0.28987 1.24900
Cd	Cd	0.97556 0.88207 0.38326 1.18000
O 	O 	0.04077 0.77414 0.30453 -0.22900
O 	O 	0.05272 0.79777 0.23224 -0.28900
C 	C 	0.05528 0.77094 0.25953 0.28400
O 	O 	0.00982 0.88190 0.25104 -0.36900
O 	O 	0.00264 0.91497 0.32788 -0.40900
C 	C 	0.00070 0.91116 0.27583 0.30500
C 	C 	0.94966 0.82188 0.29311 0.32300
O 	O 	0.03064 0.85471 0.39040 -0.42500
O 	O 	0.96110 0.80809 0.24904 -0.25000
O 	O 	0.97428 0.83418 0.32728 -0.53700
C 	C 	0.06174 0.86777 0.38256 0.31800
O 	O 	0.07310 0.86153 0.33552 -0.31700
Cd	Cd	0.90944 0.80077 0.03174 1.24500
Cd	Cd	0.87885 0.81537 0.89998 1.17800
O 	O 	0.93859 0.74586 0.04727 -0.26400
O 	O 	0.93935 0.78781 0.10904 -0.32400
C 	C 	0.95058 0.75730 0.09425 0.29700
O 	O 	0.89381 0.85632 0.03537 -0.36600
O 	O 	0.85512 0.85166 0.96113 -0.43000
C 	C 	0.87290 0.87069 0.99917 0.26000
C 	C 	0.95989 0.81739 0.95842 0.31200
O 	O 	0.86435 0.77444 0.95638 -0.43800
O 	O 	0.97409 0.82113 0.00666 -0.26200
O 	O 	0.92798 0.80412 0.95309 -0.53500
C 	C 	0.83917 0.77718 0.98939 0.30000
O 	O 	0.85011 0.78513 0.03856 -0.31500
C 	C 	0.11786 0.63727 0.92999 0.15500
N 	N 	0.14524 0.64206 0.89868 -0.10300
C 	C 	0.14976 0.61984 0.85616 0.15400
N 	N 	0.12656 0.59318 0.84472 -0.13700
C 	C 	0.09959 0.58805 0.87645 0.15300
N 	N 	0.09578 0.60971 0.91970 -0.12600
C 	C 	0.22747 0.62626 0.41844 0.15700
N 	N 	0.23419 0.63493 0.47079 -0.12500
C 	C 	0.23532 0.61045 0.50593 0.14800
N 	N 	0.23286 0.57694 0.48831 -0.14000
C 	C 	0.22767 0.56796 0.43598 0.15100
N 	N 	0.22474 0.59262 0.40115 -0.10100
Cd	Cd	0.68871 0.87949 0.81304 1.25000
Cd	Cd	0.73520 0.90742 0.93487 1.18200
O 	O 	0.62357 0.86919 0.80991 -0.26800
O 	O 	0.65251 0.86872 0.73794 -0.25400
C 	C 	0.62167 0.86687 0.75863 0.27600
O 	O 	0.74355 0.89330 0.79094 -0.35100
O 	O 	0.77188 0.88743 0.87260 -0.42600
C 	C 	0.77233 0.89703 0.82402 0.29600
C 	C 	0.68327 0.94902 0.85296 0.32600
O 	O 	0.70155 0.85879 0.90782 -0.43700
O 	O 	0.67162 0.94535 0.80341 -0.21200
O 	O 	0.69068 0.92088 0.87493 -0.52700
C 	C 	0.71398 0.83031 0.88669 0.31500
O 	O 	0.70932 0.82607 0.83532 -0.32400
Cd	Cd	0.79199 0.95433 0.32678 1.24700
Cd	Cd	0.85456 0.92793 0.23367 1.17900
O 	O 	0.72828 0.93722 0.31190 -0.28300
O 	O 	0.74884 0.96618 0.38449 -0.28000
C 	C 	0.72116 0.95251 0.35702 0.29300
O 	O 	0.84533 0.96892 0.36734 -0.35900
O 	O 	0.87558 0.97071 0.29205 -0.42600
C 	C 	0.87571 0.97100 0.34388 0.29500
C 	C 	0.81762 0.88586 0.32200 0.31800
O 	O 	0.80271 0.96046 0.22688 -0.43200
O 	O 	0.80195 0.89295 0.36588 -0.24400
O 	O 	0.81433 0.90884 0.28813 -0.53600
C 	C 	0.80041 0.99350 0.23621 0.31800
O 	O 	0.79118 0.00416 0.28308 -0.34500
C 	C 	0.46245 0.04584 0.78292 0.15900
N 	N 	0.46659 0.04851 0.83641 -0.12300
C 	C 	0.44741 0.07187 0.86465 0.14700
N 	N 	0.42495 0.09337 0.83927 -0.14000
C 	C 	0.42138 0.09145 0.78583 0.15100
N 	N 	0.44041 0.06789 0.75758 -0.09800
C 	C 	0.50737 0.08953 0.34234 0.16100
N 	N 	0.50473 0.08490 0.28890 -0.10900
C 	C 	0.48047 0.10307 0.26038 0.15500
N 	N 	0.45775 0.12466 0.28554 -0.14000
C 	C 	0.45941 0.12838 0.33896 0.15400
N 	N 	0.48454 0.11113 0.36743 -0.11000
Cd	Cd	0.95249 0.10524 0.13089 1.25000
Cd	Cd	0.91824 0.08700 0.25452 1.19400
O 	O 	0.94783 0.16576 0.11376 -0.26400
O 	O 	0.97927 0.13053 0.06469 -0.23800
C 	C 	0.96986 0.16216 0.07654 0.28800
O 	O 	0.96911 0.05056 0.14158 -0.35200
O 	O 	0.92685 0.04065 0.20012 -0.42300
C 	C 	0.95772 0.03316 0.18011 0.29200
C 	C 	0.99502 0.11984 0.22629 0.32200
O 	O 	0.89269 0.10871 0.17875 -0.41700
O 	O 	0.01395 0.12205 0.18547 -0.19800
O 	O 	0.96077 0.11621 0.21589 -0.50200
C 	C 	0.87716 0.09090 0.13844 0.31700
O 	O 	0.89606 0.08674 0.09708 -0.34700
Cd	Cd	0.81992 0.09098 0.99496 1.24200
Cd	Cd	0.80961 0.03910 0.87459 1.17500
O 	O 	0.80226 0.15125 0.99125 -0.25600
O 	O 	0.82452 0.13137 0.06405 -0.32500
C 	C 	0.81773 0.15833 0.03788 0.31500
O 	O 	0.83039 0.03722 0.01818 -0.35900
O 	O 	0.84620 0.01651 0.93635 -0.43700
C 	C 	0.83800 0.01120 0.98456 0.27100
C 	C 	0.75068 0.06683 0.95710 0.30600
O 	O 	0.84372 0.08769 0.89984 -0.42800
O 	O 	0.75028 0.07890 0.00633 -0.24400
O 	O 	0.77994 0.07226 0.93451 -0.52800
C 	C 	0.87607 0.08864 0.92264 0.34100
O 	O 	0.87827 0.09473 0.97352 -0.32700
C 	C 	0.93631 0.31813 0.83436 0.16000
N 	N 	0.94250 0.30469 0.78507 -0.11600
C 	C 	0.95678 0.32467 0.75025 0.14900
N 	N 	0.96475 0.35797 0.76465 -0.14000
C 	C 	0.95767 0.37174 0.81321 0.15200
N 	N 	0.94331 0.35182 0.84800 -0.10600
C 	C 	0.08332 0.31054 0.32532 0.16400
N 	N 	0.11553 0.32671 0.33558 -0.11000
C 	C 	0.12691 0.33731 0.38599 0.15000
N 	N 	0.10674 0.32979 0.42611 -0.13100
C 	C 	0.07385 0.31512 0.41599 0.15600
N 	N 	0.06180 0.30637 0.36539 -0.12400
Cd	Cd	0.99234 0.94838 0.74559 1.24600
Cd	Cd	0.97672 0.94325 0.88050 1.17100
O 	O 	0.05434 0.96074 0.72662 -0.22500
O 	O 	0.01174 0.95432 0.66394 -0.32500
C 	C 	0.04373 0.96650 0.67857 0.29200
O 	O 	0.93539 0.92895 0.74480 -0.36100
O 	O 	0.92667 0.95083 0.82903 -0.44300
C 	C 	0.91571 0.93166 0.78636 0.29900
C 	C 	0.01249 0.88855 0.79614 0.32500
O 	O 	0.99722 0.98748 0.83454 -0.40900
O 	O 	0.01284 0.88286 0.74497 -0.25400
O 	O 	0.00793 0.92011 0.81298 -0.52300
C 	C 	0.97775 0.00975 0.80981 0.34700
O 	O 	0.97191 0.00303 0.75931 -0.31700
Cd	Cd	0.07365 0.05193 0.51691 1.24700
Cd	Cd	0.08156 0.01223 0.38680 1.19700
O 	O 	0.12398 0.08865 0.55334 -0.24700
O 	O 	0.07345 0.08725 0.59175 -0.31900
C 	C 	0.10458 0.10207 0.58984 0.27900
O 	O 	0.01877 0.02942 0.49363 -0.36000
O 	O 	0.03740 0.99030 0.42980 -0.40500
C 	C 	0.01172 0.00870 0.45066 0.30200
C 	C 	0.06044 0.09091 0.42798 0.35000
O 	O 	0.11470 0.00844 0.46632 -0.42900
O 	O 	0.05020 0.10720 0.47082 -0.26400
O 	O 	0.07877 0.06332 0.43509 -0.51500
C 	C 	0.10894 0.98686 0.50149 0.33100
O 	O 	0.09384 0.99983 0.54311 -0.30100
C 	C 	0.13737 0.17382 0.82988 0.16500
N 	N 	0.13343 0.19073 0.87758 -0.10900
C 	C 	0.15987 0.21208 0.89989 0.15400
N 	N 	0.19080 0.21507 0.87530 -0.13900
C 	C 	0.19583 0.19623 0.82961 0.16000
N 	N 	0.16871 0.17630 0.80633 -0.10300
C 	C 	0.17296 0.24244 0.37510 0.14200
N 	N 	0.20916 0.23959 0.38212 -0.12600
C 	C 	0.23016 0.24345 0.34148 0.14200
N 	N 	0.21467 0.24904 0.29321 -0.14400
C 	C 	0.17844 0.25064 0.28544 0.14100
N 	N 	0.15758 0.24840 0.32679 -0.11400
C 	C 	0.15808 0.22666 0.95495 -0.03100
C 	C 	0.12571 0.23990 0.97415 0.13100
C 	C 	0.12361 0.24740 0.02863 -0.05000
C 	C 	0.15399 0.24454 0.06344 -0.00300
C 	C 	0.18729 0.23510 0.04341 0.10400
C 	C 	0.18881 0.22540 0.98962 -0.06000
N 	N 	0.09727 0.24687 0.94056 -0.19600
H 	H 	0.09848 0.25606 0.04382 0.08500
C 	C 	0.14993 0.24746 0.12097 0.00300
N 	N 	0.21782 0.23504 0.07567 -0.19500
H 	H 	0.21389 0.21616 0.97492 0.06200
C 	C 	0.14836 0.21733 0.14723 -0.08800
C 	C 	0.15459 0.21806 0.20209 0.14000
C 	C 	0.16200 0.24974 0.23130 -0.04300
C 	C 	0.16018 0.28019 0.20551 -0.05100
C 	C 	0.15389 0.27940 0.15051 0.08700
H 	H 	0.14458 0.19292 0.12450 0.10000
N 	N 	0.15499 0.18814 0.22614 -0.19800
H 	H 	0.16538 0.30443 0.22793 0.08400
N 	N 	0.15235 0.30927 0.12633 -0.19500
H 	H 	0.14867 0.16500 0.20442 0.14800
H 	H 	0.16211 0.18742 0.26621 0.17200
H 	H 	0.15627 0.33272 0.14831 0.14400
H 	H 	0.14624 0.30960 0.08584 0.12000
H 	H 	0.24207 0.22690 0.06085 0.10200
H 	H 	0.21811 0.24411 0.11521 0.10000
H 	H 	0.09991 0.24726 0.90011 0.16000
H 	H 	0.07277 0.25444 0.95517 0.17000
C 	C 	0.15005 0.18434 0.58977 0.03800
C 	C 	0.12120 0.20164 0.56550 0.11000
C 	C 	0.08597 0.19280 0.57700 -0.10700
C 	C 	0.07996 0.16060 0.59564 0.08300
C 	C 	0.10901 0.13884 0.60597 0.00400
C 	C 	0.14381 0.15330 0.61232 -0.06600
C 	C 	0.12682 0.21701 0.51518 0.07600
C 	C 	0.05427 0.21434 0.56061 0.79300
H 	H 	0.05275 0.15097 0.59584 0.11100
C 	C 	0.17477 0.13403 0.63728 0.78300
H 	H 	0.17732 0.19260 0.58539 0.11000
C 	C 	0.14401 0.24918 0.51369 -0.10900
C 	C 	0.15547 0.25888 0.46534 0.03800
C 	C 	0.15055 0.23693 0.41933 0.04000
C 	C 	0.13036 0.20630 0.42020 -0.10800
C 	C 	0.11805 0.19718 0.46811 0.03400
C 	C 	0.15401 0.27147 0.56378 0.78600
H 	H 	0.17066 0.28242 0.46422 0.07100
C 	C 	0.12524 0.18150 0.37165 0.78500
H 	H 	0.10381 0.17317 0.46972 0.10000
F 	F 	0.16283 0.11288 0.67379 -0.43500
F 	F 	0.19960 0.15671 0.66297 -0.44300
F 	F 	0.19140 0.11443 0.59877 -0.42400
F 	F 	0.03930 0.20118 0.51234 -0.46000
F 	F 	0.06457 0.24791 0.55686 -0.44200
F 	F 	0.02863 0.21392 0.59733 -0.41100
F 	F 	0.15818 0.16874 0.35819 -0.46200
F 	F 	0.10914 0.19781 0.33012 -0.44500
F 	F 	0.10353 0.15411 0.38027 -0.45400
F 	F 	0.15767 0.30540 0.55284 -0.44800
F 	F 	0.18631 0.26052 0.58623 -0.44700
F 	F 	0.12811 0.27010 0.59989 -0.40800
C 	C 	0.09742 0.04396 0.69268 0.03500
C 	C 	0.06877 0.06586 0.70457 0.09100
C 	C 	0.03363 0.05701 0.68294 -0.10900
C 	C 	0.02810 0.02466 0.65552 0.04400
C 	C 	0.05464 0.99948 0.65971 0.01100
C 	C 	0.09061 0.01055 0.67004 -0.07600
C 	C 	0.07557 0.09583 0.74343 0.10000
C 	C 	0.00237 0.08157 0.68861 0.79300
H 	H 	0.00164 0.01737 0.63840 0.08300
C 	C 	0.12140 0.98573 0.66489 0.78400
H 	H 	0.12470 0.05188 0.70503 0.13000
C 	C 	0.08739 0.09113 0.79644 -0.10100
C 	C 	0.10580 0.11800 0.82649 0.06200
C 	C 	0.10930 0.15007 0.80616 0.06200
C 	C 	0.09065 0.15657 0.75796 -0.08200
C 	C 	0.07549 0.12893 0.72576 0.05100
C 	C 	0.08282 0.05704 0.82002 0.78800
H 	H 	0.11898 0.11345 0.86451 0.09900
C 	C 	0.08880 0.19246 0.73922 0.78100
H 	H 	0.06451 0.13299 0.68666 0.11500
F 	F 	0.13231 0.97524 0.71403 -0.38700
F 	F 	0.14996 0.00160 0.64444 -0.41000
F 	F 	0.11159 0.95724 0.63174 -0.41700
F 	F 	0.00629 0.10852 0.65731 -0.42700
F 	F 	0.00070 0.09409 0.74052 -0.40100
F 	F 	0.96996 0.06556 0.67295 -0.43200
F 	F 	0.11968 0.19932 0.71472 -0.42800
F 	F 	0.08544 0.21645 0.78121 -0.43200
F 	F 	0.05945 0.19582 0.70392 -0.40600
F 	F 	0.08117 0.06176 0.87413 -0.41200
F 	F 	0.11167 0.03618 0.80919 -0.41500
F 	F 	0.05146 0.04085 0.79980 -0.42800
C 	C 	0.96484 0.31020 0.69744 -0.03600
C 	C 	0.99907 0.29634 0.68865 0.13000
C 	C 	0.01116 0.29432 0.63756 -0.04300
C 	C 	0.98915 0.30480 0.59498 0.00100
C 	C 	0.95328 0.31450 0.60282 0.09100
C 	C 	0.94150 0.31727 0.65420 -0.04200
N 	N 	0.02069 0.28560 0.72920 -0.19300
H 	H 	0.03841 0.28630 0.63142 0.13900
C 	C 	0.00552 0.31009 0.54466 0.02800
N 	N 	0.93040 0.32206 0.56158 -0.19400
H 	H 	0.91482 0.32686 0.66084 0.06900
C 	C 	0.00495 0.28317 0.50514 -0.04800
C 	C 	0.02825 0.28348 0.46398 0.15400
C 	C 	0.04962 0.31298 0.45939 -0.03300
C 	C 	0.04761 0.34114 0.49646 -0.02500
C 	C 	0.02586 0.33997 0.53911 0.09100
H 	H 	0.98878 0.26058 0.50902 0.10400
N 	N 	0.03165 0.25473 0.43144 -0.19100
H 	H 	0.06310 0.36411 0.49216 0.06900
N 	N 	0.02453 0.36764 0.57445 -0.19000
H 	H 	0.01305 0.23472 0.43089 0.15900
H 	H 	0.05426 0.25071 0.40987 0.14100
H 	H 	0.04042 0.38925 0.57091 0.10900
H 	H 	0.00711 0.36839 0.60487 0.10500
H 	H 	0.90427 0.33016 0.56790 0.11600
H 	H 	0.93799 0.31921 0.52284 0.11300
H 	H 	0.01180 0.28530 0.76713 0.16700
H 	H 	0.04635 0.27626 0.72266 0.17800
C 	C 	0.95632 0.03562 0.83859 -0.08500
C 	C 	0.96004 0.03921 0.89380 -0.05200
C 	C 	0.93516 0.05826 0.92205 0.18900
C 	C 	0.90668 0.07471 0.89484 -0.09200
C 	C 	0.90559 0.07450 0.83989 -0.04800
C 	C 	0.92977 0.05470 0.81159 0.18500
H 	H 	0.98140 0.02611 0.91498 0.06000
O 	O 	0.93874 0.06072 0.97610 -0.24200
H 	H 	0.88488 0.08851 0.81883 0.09000
O 	O 	0.92745 0.05411 0.75764 -0.19000
H 	H 	0.90926 0.03623 0.74569 0.16100
H 	H 	0.92566 0.04061 0.98698 0.13400
C 	C 	0.84917 0.24461 0.01593 0.05700
C 	C 	0.87793 0.23422 0.98572 0.08600
C 	C 	0.89301 0.20126 0.99080 -0.13200
C 	C 	0.87790 0.17948 0.02499 0.08300
C 	C 	0.84391 0.18667 0.04320 0.00500
C 	C 	0.83170 0.22081 0.04452 -0.05800
C 	C 	0.89122 0.25741 0.94762 0.09300
C 	C 	0.92156 0.18769 0.95479 0.78800
H 	H 	0.88942 0.15449 0.03026 0.06900
C 	C 	0.79793 0.23096 0.07119 0.78000
H 	H 	0.83898 0.27046 0.01433 0.12600
C 	C 	0.87331 0.25981 0.89717 -0.09500
C 	C 	0.88862 0.27995 0.86077 0.05600
C 	C 	0.92195 0.29619 0.87295 0.05200
C 	C 	0.94042 0.29245 0.92263 -0.07400
C 	C 	0.92321 0.27565 0.96089 0.03000
C 	C 	0.83664 0.24333 0.88355 0.78700
H 	H 	0.87442 0.28345 0.82311 0.09500
C 	C 	0.97802 0.30679 0.93571 0.78400
H 	H 	0.93578 0.27502 0.00033 0.14000
F 	F 	0.76852 0.22538 0.03572 -0.39100
F 	F 	0.79921 0.26525 0.08890 -0.39800
F 	F 	0.79401 0.21190 0.11413 -0.41400
F 	F 	0.95189 0.20815 0.96172 -0.43000
F 	F 	0.90842 0.18733 0.90279 -0.39800
F 	F 	0.93164 0.15462 0.96470 -0.42800
F 	F 	0.97592 0.34117 0.95179 -0.43500
F 	F 	0.99861 0.30279 0.89253 -0.44100
F 	F 	0.99544 0.29003 0.97601 -0.41700
F 	F 	0.82642 0.24427 0.83049 -0.41200
F 	F 	0.81129 0.26077 0.91208 -0.41800
F 	F 	0.83687 0.20936 0.89518 -0.40400
C 	C 	0.04380 0.09788 0.37611 -0.13500
C 	C 	0.01081 0.11506 0.37288 -0.01400
C 	C 	0.99516 0.12301 0.32414 0.14700
C 	C 	0.01197 0.11296 0.27785 -0.08100
C 	C 	0.04500 0.09589 0.28097 -0.06000
C 	C 	0.06104 0.08848 0.32983 0.20800
H 	H 	0.99728 0.12233 0.40827 0.07600
O 	O 	0.96333 0.14050 0.32179 -0.34800
H 	H 	0.05808 0.08799 0.24541 0.09700
O 	O 	0.09340 0.07189 0.33221 -0.38900
H 	H 	0.11187 0.09026 0.33458 0.23100
H 	H 	0.97017 0.16509 0.32416 0.21700
C 	C 	0.05129 0.21297 0.09980 0.04000
C 	C 	0.03491 0.24121 0.12546 0.09500
C 	C 	0.99900 0.24923 0.10921 -0.10700
C 	C 	0.97839 0.22453 0.07747 0.09700
C 	C 	0.99253 0.19177 0.06627 0.05100
C 	C 	0.03027 0.18862 0.06816 -0.06200
C 	C 	0.05216 0.25711 0.17577 0.07600
C 	C 	0.98217 0.28285 0.12804 0.78800
H 	H 	0.94997 0.22862 0.06919 0.09600
C 	C 	0.04817 0.15947 0.03797 0.79300
H 	H 	0.07955 0.20844 0.10788 0.08500
C 	C 	0.05124 0.24047 0.22337 -0.09900
C 	C 	0.06378 0.25803 0.27106 0.05100
C 	C 	0.07426 0.29249 0.27302 0.04900
C 	C 	0.07450 0.30938 0.22561 -0.09100
C 	C 	0.06646 0.29036 0.17712 0.04100
C 	C 	0.03816 0.20367 0.22340 0.78700
H 	H 	0.06434 0.24522 0.30732 0.10600
C 	C 	0.08207 0.34758 0.22641 0.78400
H 	H 	0.06967 0.30196 0.14041 0.10800
F 	F 	0.08069 0.17018 0.02162 -0.43200
F 	F 	0.02690 0.14801 0.99364 -0.39100
F 	F 	0.05431 0.13279 0.07007 -0.41400
F 	F 	0.00200 0.30995 0.11321 -0.39100
F 	F 	0.98124 0.28497 0.18231 -0.41000
F 	F 	0.94739 0.28595 0.10658 -0.41400
F 	F 	0.07238 0.36019 0.17817 -0.40500
F 	F 	0.11826 0.35384 0.23786 -0.46000
F 	F 	0.06271 0.36532 0.26389 -0.41300
F 	F 	0.03503 0.19400 0.27407 -0.42800
F 	F 	0.06231 0.18191 0.19943 -0.43600
F 	F 	0.00473 0.19978 0.19690 -0.43700
C 	C 	0.43381 0.15105 0.36556 -0.03700
C 	C 	0.40259 0.13741 0.38501 0.11800
C 	C 	0.37255 0.15849 0.39136 -0.08000
C 	C 	0.37314 0.19251 0.37763 0.00100
C 	C 	0.40598 0.20735 0.36602 0.08400
C 	C 	0.43618 0.18639 0.36033 -0.04300
N 	N 	0.40089 0.10397 0.39597 -0.19900
H 	H 	0.34781 0.14767 0.40306 0.07700
C 	C 	0.33862 0.20964 0.36512 0.00100
N 	N 	0.40834 0.24132 0.35859 -0.19300
H 	H 	0.46077 0.19714 0.34797 0.08100
C 	C 	0.32385 0.23163 0.40377 -0.08200
C 	C 	0.28989 0.24624 0.39423 0.11600
C 	C 	0.26895 0.23580 0.34742 -0.04300
C 	C 	0.28436 0.21491 0.30796 -0.04400
C 	C 	0.31929 0.20232 0.31589 0.08100
H 	H 	0.33915 0.23800 0.44083 0.07100
N 	N 	0.27828 0.27124 0.42882 -0.19700
H 	H 	0.26877 0.20761 0.27146 0.06200
N 	N 	0.33398 0.18300 0.27632 -0.19300
H 	H 	0.29291 0.27743 0.46463 0.11000
H 	H 	0.25612 0.28631 0.41897 0.10600
H 	H 	0.31911 0.17698 0.24066 0.09900
H 	H 	0.36046 0.17453 0.27989 0.09900
H 	H 	0.43238 0.25185 0.34822 0.11100
H 	H 	0.38672 0.25774 0.36444 0.10300
H 	H 	0.42317 0.08799 0.39364 0.12600
H 	H 	0.37727 0.09383 0.40851 0.12200
C 	C 	0.39386 0.11217 0.75924 -0.02500
C 	C 	0.39526 0.14829 0.76677 0.10800
C 	C 	0.36317 0.16699 0.76454 -0.07600
C 	C 	0.33013 0.14988 0.75494 -0.00500
C 	C 	0.32966 0.11487 0.73667 0.10600
C 	C 	0.36175 0.09618 0.73905 -0.05000
N 	N 	0.42713 0.16492 0.77773 -0.19800
H 	H 	0.36369 0.19436 0.77494 0.06600
C 	C 	0.29784 0.16580 0.77676 0.00900
N 	N 	0.29838 0.09889 0.71896 -0.19600
H 	H 	0.36112 0.06869 0.72975 0.11700
C 	C 	0.27502 0.18530 0.74487 -0.07900
C 	C 	0.24251 0.19803 0.76306 0.15300
C 	C 	0.23256 0.19037 0.81351 -0.04600
C 	C 	0.25661 0.17309 0.84669 -0.03800
C 	C 	0.28917 0.16066 0.82890 0.08200
H 	H 	0.28228 0.19013 0.70559 0.09000
N 	N 	0.22142 0.21805 0.73247 -0.19300
H 	H 	0.24927 0.16806 0.88587 0.06000
N 	N 	0.31174 0.14350 0.86181 -0.19200
H 	H 	0.22866 0.22318 0.69492 0.15800
H 	H 	0.19815 0.22937 0.74611 0.15800
H 	H 	0.30475 0.13939 0.89988 0.10100
H 	H 	0.33656 0.13447 0.85046 0.10200
H 	H 	0.29795 0.07270 0.70752 0.14800
H 	H 	0.27448 0.11257 0.71470 0.14900
H 	H 	0.45139 0.15166 0.77698 0.11400
H 	H 	0.42796 0.19152 0.78532 0.10600
C 	C 	0.45224 0.07513 0.92277 -0.03500
C 	C 	0.45031 0.04621 0.95294 0.10900
C 	C 	0.45793 0.05016 0.00771 -0.05900
C 	C 	0.46354 0.08281 0.03341 -0.00700
C 	C 	0.46381 0.11195 0.00354 0.10100
C 	C 	0.45904 0.10766 0.94840 -0.06600
N 	N 	0.43942 0.01510 0.93010 -0.19700
H 	H 	0.45747 0.02796 0.03078 0.08300
C 	C 	0.46775 0.08631 0.09176 0.01000
N 	N 	0.46825 0.14405 0.02747 -0.19600
H 	H 	0.46032 0.12982 0.92536 0.06400
C 	C 	0.50217 0.09141 0.11659 -0.08200
C 	C 	0.50679 0.09883 0.17133 0.13700
C 	C 	0.47673 0.09741 0.20233 -0.04300
C 	C 	0.44249 0.09078 0.17758 -0.04000
C 	C 	0.43753 0.08609 0.12250 0.08100
H 	H 	0.52521 0.09167 0.09287 0.08600
N 	N 	0.53962 0.10898 0.19333 -0.19900
H 	H 	0.41949 0.08969 0.20127 0.06400
N 	N 	0.40373 0.08181 0.09947 -0.19200
H 	H 	0.56203 0.10776 0.17081 0.14400
H 	H 	0.54277 0.12050 0.23154 0.16600
H 	H 	0.38167 0.08130 0.12260 0.10600
H 	H 	0.39885 0.07949 0.05860 0.10600
H 	H 	0.46891 0.16531 0.00497 0.10900
H 	H 	0.47044 0.14837 0.06841 0.10500
H 	H 	0.42772 0.01242 0.89171 0.14600
H 	H 	0.44022 0.99354 0.95206 0.13600
C 	C 	0.81208 0.01759 0.19864 -0.12400
C 	C 	0.80315 0.05237 0.20563 -0.05100
C 	C 	0.82104 0.07673 0.17934 0.15900
C 	C 	0.84870 0.06641 0.14696 -0.12500
C 	C 	0.85393 0.03139 0.13418 -0.06200
C 	C 	0.83537 0.00692 0.15927 0.18000
H 	H 	0.78353 0.06072 0.23325 0.09000
O 	O 	0.81365 0.11086 0.18892 -0.26700
H 	H 	0.87448 0.02314 0.10805 0.07700
O 	O 	0.84172 0.97279 0.14763 -0.37700
H 	H 	0.82373 0.96558 0.11857 0.16400
H 	H 	0.79447 0.11592 0.16184 0.19200
C 	C 	0.90865 0.98200 0.37592 -0.09600
C 	C 	0.92702 0.95874 0.40715 -0.08600
C 	C 	0.95971 0.96812 0.43483 0.17000
C 	C 	0.97416 0.00114 0.43168 -0.10700
C 	C 	0.95506 0.02482 0.40206 -0.06100
C 	C 	0.92268 0.01524 0.37365 0.16900
H 	H 	0.91649 0.93305 0.40886 0.01100
O 	O 	0.97830 0.94447 0.46288 -0.37100
H 	H 	0.96613 0.05016 0.39902 0.04400
O 	O 	0.90476 0.03844 0.34390 -0.30000
H 	H 	0.91438 0.03507 0.30858 0.07000
H 	H 	0.96974 0.94739 0.49891 0.16900
C 	C 	0.64167 0.98975 0.42551 0.03700
C 	C 	0.62073 0.00121 0.38260 0.09700
C 	C 	0.63047 0.99242 0.33051 -0.10400
C 	C 	0.66262 0.97469 0.32297 0.07300
C 	C 	0.68441 0.96462 0.36606 0.01100
C 	C 	0.67226 0.96959 0.41750 -0.06000
C 	C 	0.59129 0.02569 0.39260 0.08100
C 	C 	0.60872 0.00493 0.28309 0.78400
H 	H 	0.67178 0.97033 0.28362 0.09100
C 	C 	0.69223 0.95455 0.46414 0.77900
H 	H 	0.63441 0.99701 0.46524 0.12900
C 	C 	0.55556 0.01411 0.39467 -0.08800
C 	C 	0.52726 0.03654 0.38252 0.05800
C 	C 	0.53451 0.07058 0.37276 0.05900
C 	C 	0.56976 0.08375 0.38294 -0.08700
C 	C 	0.59815 0.06085 0.39167 0.05000
C 	C 	0.54766 0.97756 0.40665 0.78800
H 	H 	0.49989 0.02705 0.37724 0.09600
C 	C 	0.57750 0.12158 0.38015 0.78700
H 	H 	0.62569 0.06987 0.39342 0.10600
F 	F 	0.66965 0.95081 0.50430 -0.37600
F 	F 	0.72023 0.97609 0.48313 -0.41200
F 	F 	0.70564 0.92251 0.44977 -0.40200
F 	F 	0.61401 0.03976 0.28097 -0.43100
F 	F 	0.57257 0.99849 0.28623 -0.40400
F 	F 	0.61884 0.98861 0.23642 -0.41800
F 	F 	0.55243 0.14105 0.40633 -0.42800
F 	F 	0.57617 0.12938 0.32805 -0.42900
F 	F 	0.61112 0.13041 0.40337 -0.41400
F 	F 	0.51177 0.97303 0.41504 -0.40200
F 	F 	0.56761 0.96954 0.45170 -0.40000
F 	F 	0.55636 0.95518 0.36501 -0.38200
C 	C 	0.80725 0.90406 0.80303 -0.09500
C 	C 	0.81542 0.93727 0.79020 -0.06300
C 	C 	0.85057 0.94582 0.77946 0.16100
C 	C 	0.87775 0.92084 0.78064 -0.09400
C 	C 	0.86881 0.88694 0.78921 -0.07400
C 	C 	0.83376 0.87852 0.80067 0.15700
H 	H 	0.79498 0.95692 0.79100 0.03400
O 	O 	0.85850 0.97879 0.76894 -0.27400
H 	H 	0.88945 0.86751 0.78999 0.03700
O 	O 	0.82539 0.84528 0.80898 -0.28300
H 	H 	0.82928 0.84361 0.84754 0.05600
H 	H 	0.86431 0.99117 0.80382 0.10100
C 	C 	0.69223 0.98281 0.88018 -0.12600
C 	C 	0.69549 0.98625 0.93551 -0.06100
C 	C 	0.71136 0.01560 0.96193 0.14900
C 	C 	0.72395 0.04188 0.93289 -0.11300
C 	C 	0.71669 0.04018 0.87807 -0.09200
C 	C 	0.70094 0.01084 0.85159 0.18100
H 	H 	0.68709 0.96555 0.95801 0.03000
O 	O 	0.71482 0.01838 0.01598 -0.24100
H 	H 	0.72527 0.06082 0.85559 0.06000
O 	O 	0.69634 0.00880 0.79764 -0.28000
H 	H 	0.67203 0.01808 0.78966 0.22800
H 	H 	0.73828 0.00787 0.02561 0.14900
C 	C 	0.56282 0.91980 0.67631 0.04800
C 	C 	0.53684 0.92628 0.71300 0.09300
C 	C 	0.53064 0.90151 0.74934 -0.10000
C 	C 	0.55602 0.87538 0.75615 0.07800
C 	C 	0.58754 0.87512 0.72907 0.03100
C 	C 	0.58757 0.89311 0.68283 -0.06300
C 	C 	0.52095 0.96096 0.71921 0.08900
C 	C 	0.49855 0.90421 0.78295 0.78800
H 	H 	0.55362 0.85809 0.78705 0.10200
C 	C 	0.61300 0.88386 0.64033 0.78400
H 	H 	0.56524 0.93676 0.64493 0.12700
C 	C 	0.53909 0.98765 0.75095 -0.09700
C 	C 	0.52006 0.01733 0.76611 0.05300
C 	C 	0.48314 0.01986 0.75282 0.05200
C 	C 	0.46585 0.99443 0.71728 -0.07600
C 	C 	0.48585 0.96614 0.69847 0.04700
C 	C 	0.57849 0.98436 0.76923 0.78400
H 	H 	0.53338 0.03775 0.79104 0.09000
C 	C 	0.42628 0.99708 0.69981 0.78600
H 	H 	0.47336 0.94678 0.67062 0.12800
F 	F 	0.64351 0.90409 0.64862 -0.38600
F 	F 	0.59684 0.88930 0.59121 -0.38000
F 	F 	0.62248 0.84966 0.64016 -0.40100
F 	F 	0.46726 0.90570 0.75105 -0.40900
F 	F 	0.50154 0.93341 0.81695 -0.41500
F 	F 	0.49596 0.87621 0.81272 -0.41100
F 	F 	0.41401 0.96810 0.66955 -0.39600
F 	F 	0.42101 0.02493 0.66984 -0.42800
F 	F 	0.40590 0.00085 0.74323 -0.42600
F 	F 	0.59102 0.01306 0.79997 -0.43900
F 	F 	0.59901 0.98044 0.72605 -0.42500
F 	F 	0.58332 0.95633 0.79894 -0.42600
C 	C 	0.15693 0.36254 0.39646 -0.03700
C 	C 	0.17993 0.36975 0.35667 0.13200
C 	C 	0.19629 0.40218 0.35826 -0.07700
C 	C 	0.19421 0.42529 0.40261 0.00100
C 	C 	0.17758 0.41492 0.44717 0.08600
C 	C 	0.15868 0.38377 0.44352 -0.04400
N 	N 	0.18880 0.34489 0.32000 -0.19200
H 	H 	0.21108 0.40920 0.32544 0.08000
C 	C 	0.20497 0.46146 0.39957 0.00600
N 	N 	0.17919 0.43498 0.49313 -0.19300
H 	H 	0.14406 0.37686 0.47656 0.08100
C 	C 	0.17816 0.48562 0.38956 -0.07600
C 	C 	0.18502 0.52076 0.40034 0.12600
C 	C 	0.22021 0.53193 0.41795 -0.03200
C 	C 	0.24780 0.50786 0.42307 -0.04000
C 	C 	0.24051 0.47262 0.41424 0.08400
H 	H 	0.15115 0.47691 0.37704 0.08500
N 	N 	0.15748 0.54337 0.39581 -0.19600
H 	H 	0.27483 0.51653 0.43559 0.07500
N 	N 	0.26754 0.44972 0.42083 -0.19300
H 	H 	0.13188 0.53484 0.38156 0.12700
H 	H 	0.16072 0.56929 0.40780 0.11800
H 	H 	0.29354 0.45817 0.43291 0.10900
H 	H 	0.26321 0.42343 0.41312 0.10200
H 	H 	0.16573 0.42772 0.52525 0.10800
H 	H 	0.19472 0.45732 0.49802 0.10100
H 	H 	0.18324 0.31922 0.32473 0.10700
H 	H 	0.20420 0.35071 0.28904 0.11200
C 	C 	0.07500 0.55852 0.86454 -0.04500
C 	C 	0.03735 0.56225 0.86655 0.12300
C 	C 	0.01546 0.53291 0.86324 -0.07100
C 	C 	0.02996 0.50032 0.85259 -0.00000
C 	C 	0.06711 0.49693 0.84518 0.08200
C 	C 	0.08944 0.52595 0.85309 -0.04500
N 	N 	0.02197 0.59378 0.86897 -0.19700
H 	H 	0.98683 0.53555 0.86725 0.06900
C 	C 	0.00587 0.47001 0.84840 0.00500
N 	N 	0.08138 0.46607 0.83002 -0.19300
H 	H 	0.11817 0.52317 0.85026 0.06000
C 	C 	0.98186 0.46450 0.80396 -0.08600
C 	C 	0.96210 0.43387 0.79531 0.11200
C 	C 	0.96865 0.40736 0.82961 -0.02700
C 	C 	0.99033 0.41403 0.87633 -0.06300
C 	C 	0.00819 0.44560 0.88682 0.10800
H 	H 	0.97872 0.48398 0.77587 0.06700
N 	N 	0.93641 0.43031 0.75491 -0.19800
H 	H 	0.99446 0.39419 0.90356 0.12100
N 	N 	0.02778 0.45216 0.93337 -0.19600
H 	H 	0.93290 0.44928 0.72823 0.10600
H 	H 	0.91842 0.40970 0.75139 0.11200
H 	H 	0.03046 0.43350 0.96066 0.13900
H 	H 	0.03942 0.47618 0.94373 0.11900
H 	H 	0.10901 0.46363 0.82652 0.10400
H 	H 	0.06521 0.44456 0.81967 0.10700
H 	H 	0.03644 0.61564 0.86207 0.15100
H 	H 	0.99451 0.59635 0.87385 0.11600
C 	C 	0.22962 0.62024 0.56149 -0.04200
C 	C 	0.19450 0.62515 0.57846 0.11900
C 	C 	0.18962 0.63096 0.63239 -0.08000
C 	C 	0.21904 0.63214 0.66958 0.00300
C 	C 	0.25429 0.62927 0.65243 0.08600
C 	C 	0.25920 0.62284 0.59842 -0.04300
N 	N 	0.16535 0.62384 0.54330 -0.19700
H 	H 	0.16269 0.63363 0.64564 0.07400
C 	C 	0.21220 0.63297 0.72625 -0.00500
N 	N 	0.28340 0.63304 0.68739 -0.19300
H 	H 	0.28608 0.61965 0.58519 0.07300
C 	C 	0.21533 0.60253 0.75198 -0.07600
C 	C 	0.19894 0.59933 0.79936 0.11100
C 	C 	0.17754 0.62640 0.81953 -0.02800
C 	C 	0.17833 0.65821 0.79752 -0.05000
C 	C 	0.19614 0.66190 0.75143 0.10000
H 	H 	0.22926 0.58085 0.73401 0.06500
N 	N 	0.20391 0.57042 0.82540 -0.19700
H 	H 	0.16352 0.67959 0.81457 0.11600
N 	N 	0.19735 0.69303 0.73115 -0.19500
H 	H 	0.21842 0.54989 0.80916 0.10400
H 	H 	0.19494 0.56874 0.86307 0.11100
H 	H 	0.18429 0.71405 0.74878 0.13500
H 	H 	0.21237 0.69693 0.69896 0.12200
H 	H 	0.30930 0.62995 0.67459 0.11600
H 	H 	0.28070 0.64010 0.72719 0.11300
H 	H 	0.16787 0.61970 0.50283 0.11100
H 	H 	0.13956 0.62724 0.55635 0.11800
C 	C 	0.86292 0.90722 0.00794 -0.08300
C 	C 	0.82696 0.91704 0.99897 -0.08800
C 	C 	0.81806 0.95170 0.99602 0.12900
C 	C 	0.84499 0.97705 0.00379 -0.08200
C 	C 	0.88045 0.96746 0.01743 -0.06200
C 	C 	0.88962 0.93269 0.01856 0.13700
H 	H 	0.80606 0.89770 0.99180 0.00700
O 	O 	0.78317 0.96064 0.98373 -0.35700
H 	H 	0.90135 0.98683 0.02378 0.06100
O 	O 	0.92484 0.92369 0.02803 -0.24900
H 	H 	0.93499 0.92169 0.99296 0.07800
H 	H 	0.78076 0.96033 0.94471 0.06300
C 	C 	0.80176 0.78322 0.96969 -0.10100
C 	C 	0.79006 0.76966 0.91893 -0.07500
C 	C 	0.76016 0.78345 0.89204 0.17700
C 	C 	0.74079 0.81024 0.91687 -0.11300
C 	C 	0.74951 0.82019 0.97029 -0.06000
C 	C 	0.78015 0.80735 0.99643 0.15500
H 	H 	0.80546 0.74979 0.89902 0.06800
O 	O 	0.74976 0.77038 0.84197 -0.25200
H 	H 	0.73353 0.83925 0.99092 0.03200
O 	O 	0.78902 0.81865 0.04785 -0.24900
H 	H 	0.80321 0.83993 0.04606 0.14000
H 	H 	0.76452 0.78274 0.81842 0.16100
C 	C 	0.97855 0.82819 0.91298 -0.15500
C 	C 	0.96147 0.82420 0.86211 -0.05000
C 	C 	0.97532 0.84042 0.82072 0.13900
C 	C 	0.00628 0.86097 0.83019 -0.11200
C 	C 	0.02597 0.86096 0.87889 -0.08700
C 	C 	0.01244 0.84446 0.92022 0.19400
H 	H 	0.93681 0.80955 0.85498 -0.02600
O 	O 	0.95681 0.83865 0.77230 -0.29800
H 	H 	0.05065 0.87569 0.88576 0.08500
O 	O 	0.03165 0.84551 0.96806 -0.27500
H 	H 	0.04708 0.82489 0.96645 0.22300
H 	H 	0.96679 0.81852 0.75243 0.17700
C 	C 	0.02221 0.69408 0.10314 0.04200
C 	C 	0.05063 0.71507 0.09118 0.10900
C 	C 	0.04881 0.75086 0.10419 -0.12600
C 	C 	0.01556 0.76533 0.11622 0.08700
C 	C 	0.98503 0.74437 0.11619 0.00200
C 	C 	0.98978 0.70872 0.11815 -0.05500
C 	C 	0.07594 0.70115 0.05253 0.07600
C 	C 	0.08047 0.77418 0.09794 0.79200
H 	H 	0.01254 0.79294 0.11902 0.07900
C 	C 	0.95913 0.68586 0.13003 0.78400
H 	H 	0.02399 0.66655 0.09560 0.12800
C 	C 	0.10129 0.67561 0.06543 -0.09400
C 	C 	0.11691 0.65605 0.02454 0.06200
C 	C 	0.10986 0.66343 0.97189 0.04600
C 	C 	0.08898 0.69234 0.96000 -0.11400
C 	C 	0.07082 0.70991 0.00017 0.07900
C 	C 	0.11005 0.66748 0.12207 0.78900
H 	H 	0.13328 0.63407 0.03344 0.09600
C 	C 	0.08513 0.70379 0.90429 0.79200
H 	H 	0.05131 0.72934 0.99048 0.08900
F 	F 	0.97212 0.65741 0.15423 -0.37500
F 	F 	0.93984 0.67510 0.08362 -0.41900
F 	F 	0.93652 0.70324 0.16351 -0.40100
F 	F 	0.07940 0.78398 0.04688 -0.42800
F 	F 	0.11264 0.75787 0.10906 -0.38700
F 	F 	0.07932 0.80332 0.13190 -0.42500
F 	F 	0.06686 0.67909 0.87132 -0.45500
F 	F 	0.11872 0.70883 0.88631 -0.43300
F 	F 	0.06651 0.73429 0.90189 -0.43000
F 	F 	0.14345 0.65235 0.12778 -0.40400
F 	F 	0.08457 0.64524 0.13728 -0.41300
F 	F 	0.11072 0.69699 0.15513 -0.41100
C 	C 	0.99496 0.94179 0.24534 -0.12800
C 	C 	0.97223 0.93969 0.19909 -0.06000
C 	C 	0.96254 0.96947 0.17408 0.16000
C 	C 	0.97611 0.00160 0.19475 -0.10200
C 	C 	0.00097 0.00330 0.23858 -0.07600
C 	C 	0.01056 0.97362 0.26378 0.19800
H 	H 	0.96077 0.91523 0.18380 0.05100
O 	O 	0.93927 0.96719 0.13004 -0.26900
H 	H 	0.01141 0.02791 0.25494 0.03900
O 	O 	0.03423 0.97600 0.30737 -0.35300
H 	H 	0.05828 0.97245 0.29361 0.11900
H 	H 	0.91495 0.96878 0.14342 0.13300
C 	C 	0.91130 0.82767 0.30100 -0.13100
C 	C 	0.90066 0.83533 0.35235 -0.08200
C 	C 	0.86769 0.85110 0.36041 0.16400
C 	C 	0.84485 0.85884 0.31676 -0.12800
C 	C 	0.85302 0.84613 0.26603 -0.09400
C 	C 	0.88626 0.83088 0.25787 0.16900
H 	H 	0.91897 0.83110 0.38603 0.02800
O 	O 	0.85928 0.86138 0.41065 -0.29000
H 	H 	0.83473 0.85048 0.23238 0.04000
O 	O 	0.89511 0.82153 0.20750 -0.30200
H 	H 	0.88713 0.79735 0.20067 0.19600
H 	H 	0.84609 0.84177 0.42290 0.18800
C 	C 	0.10525 0.95008 0.48508 -0.08700
C 	C 	0.12553 0.93634 0.44426 -0.07300
C 	C 	0.11319 0.90746 0.41273 0.18300
C 	C 	0.08036 0.89204 0.42234 -0.10700
C 	C 	0.06367 0.90218 0.46866 -0.04700
C 	C 	0.07596 0.93108 0.50007 0.18300
H 	H 	0.14946 0.94956 0.43450 0.08200
O 	O 	0.13249 0.89525 0.37150 -0.26600
H 	H 	0.04002 0.88876 0.47894 0.05500
O 	O 	0.05907 0.94090 0.54486 -0.22300
H 	H 	0.03871 0.95540 0.53320 0.15700
H 	H 	0.14903 0.87804 0.38629 0.20400
C 	C 	0.10793 0.69146 0.27876 0.06700
C 	C 	0.14255 0.70543 0.27979 0.09700
C 	C 	0.14790 0.73594 0.25473 -0.06800
C 	C 	0.11791 0.75608 0.24135 0.10100
C 	C 	0.08320 0.74501 0.25036 0.03900
C 	C 	0.07798 0.71082 0.26307 -0.04900
C 	C 	0.17125 0.69158 0.31509 0.09600
C 	C 	0.18537 0.74776 0.24473 0.79100
H 	H 	0.12170 0.78144 0.22811 0.12500
C 	C 	0.04071 0.69588 0.26506 0.78500
H 	H 	0.10413 0.66679 0.29445 0.10900
C 	C 	0.17242 0.69983 0.37028 -0.10400
C 	C 	0.19302 0.67946 0.40386 0.05100
C 	C 	0.21438 0.65285 0.38326 0.05000
C 	C 	0.21825 0.64921 0.32821 -0.08300
C 	C 	0.19444 0.66660 0.29452 0.04300
C 	C 	0.14897 0.72792 0.39390 0.78600
H 	H 	0.19074 0.68296 0.44604 0.08800
C 	C 	0.24722 0.62687 0.30490 0.78400
H 	H 	0.19357 0.66033 0.25235 0.14500
F 	F 	0.03006 0.70030 0.31599 -0.39300
F 	F 	0.04075 0.66120 0.24980 -0.37700
F 	F 	0.01612 0.71143 0.23168 -0.40500
F 	F 	0.20343 0.72145 0.21888 -0.38400
F 	F 	0.20415 0.75743 0.29204 -0.38700
F 	F 	0.18445 0.77535 0.21362 -0.38000
F 	F 	0.23404 0.59403 0.29277 -0.42000
F 	F 	0.27722 0.62580 0.33966 -0.41300
F 	F 	0.25789 0.63975 0.25920 -0.38600
F 	F 	0.16025 0.73709 0.44584 -0.41700
F 	F 	0.11386 0.71649 0.39237 -0.42500
F 	F 	0.15038 0.75703 0.36647 -0.40900
