data_crystal

_cell_length_a 44.68221
_cell_length_b 44.04183
_cell_length_c 22.98637
_cell_angle_alpha 89.86871
_cell_angle_beta  89.86006
_cell_angle_gamma 89.98220

_symmetry_space_group_name_	'P 1'
_symmetry_space_group_name_H-M	'P 1'

loop_
_symmetry_equiv_pos_as_xyz
  x,y,z

loop_
_atom_site_label
_atom_site_type_symbol
_atom_site_fract_x
_atom_site_fract_y
_atom_site_fract_z
_atom_site_charge
Cd	Cd	0.05495 0.88586 0.23818 1.24000
Cd	Cd	0.07664 0.94943 0.32472 1.16600
O 	O 	0.07018 0.83431 0.26858 -0.32200
O 	O 	0.03883 0.84199 0.19670 -0.35300
C 	C 	0.05269 0.82249 0.22960 0.27900
O 	O 	0.02846 0.92413 0.20118 -0.39300
O 	O 	0.05946 0.96142 0.23566 -0.43500
C 	C 	0.03349 0.95287 0.21413 0.30500
C 	C 	0.02396 0.89839 0.34383 0.31800
O 	O 	0.10357 0.91345 0.27301 -0.46100
O 	O 	0.00940 0.87881 0.31220 -0.30900
O 	O 	0.05076 0.90491 0.32628 -0.54400
C 	C 	0.11177 0.91589 0.21871 0.30800
O 	O 	0.09577 0.90030 0.18176 -0.35300
Cd	Cd	0.07322 0.88318 0.99889 1.23900
Cd	Cd	0.10406 0.92276 0.87997 1.16700
O 	O 	0.08347 0.82864 0.01049 -0.32000
O 	O 	0.05776 0.85401 0.07564 -0.36000
C 	C 	0.06831 0.82786 0.05883 0.28100
O 	O 	0.06351 0.93202 0.01457 -0.40600
O 	O 	0.06585 0.94953 0.91981 -0.44400
C 	C 	0.05468 0.95091 0.97324 0.30900
C 	C 	0.13468 0.89997 0.00127 0.31300
O 	O 	0.07110 0.88181 0.88369 -0.46200
O 	O 	0.12556 0.89214 0.05326 -0.29100
O 	O 	0.11570 0.89495 0.95985 -0.54800
C 	C 	0.04202 0.88321 0.88863 0.30300
O 	O 	0.03140 0.88093 0.94127 -0.37900
C 	C 	0.97287 0.65660 0.90428 0.13900
N 	N 	0.98096 0.66013 0.84758 -0.12600
C 	C 	0.96992 0.64124 0.80635 0.18200
N 	N 	0.95128 0.61831 0.82196 -0.13900
C 	C 	0.94360 0.61422 0.87864 0.18000
N 	N 	0.95383 0.63382 0.91963 -0.12600
C 	C 	0.01029 0.64477 0.46847 0.13800
N 	N 	0.00540 0.65431 0.52398 -0.13500
C 	C 	0.00152 0.63365 0.56731 0.18400
N 	N 	0.00224 0.60359 0.55510 -0.13500
C 	C 	0.00666 0.59394 0.49977 0.18200
N 	N 	0.01116 0.61454 0.45655 -0.12300
Cd	Cd	0.82485 0.92351 0.73053 1.24200
Cd	Cd	0.87517 0.90827 0.84822 1.16300
O 	O 	0.77152 0.91219 0.74692 -0.32300
O 	O 	0.78681 0.93672 0.66909 -0.34100
C 	C 	0.76433 0.92646 0.69945 0.27600
O 	O 	0.86767 0.94502 0.70146 -0.38200
O 	O 	0.89801 0.91823 0.76321 -0.43300
C 	C 	0.89312 0.94231 0.73038 0.29400
C 	C 	0.82775 0.96405 0.82668 0.31500
O 	O 	0.84512 0.87738 0.79112 -0.46000
O 	O 	0.81351 0.97606 0.78289 -0.31500
O 	O 	0.83399 0.93542 0.82187 -0.54700
C 	C 	0.85289 0.86468 0.74207 0.30700
O 	O 	0.84184 0.87746 0.69550 -0.35700
Cd	Cd	0.79602 0.96400 0.48603 1.24100
Cd	Cd	0.85215 0.93821 0.38795 1.16400
O 	O 	0.75320 0.93083 0.50981 -0.32500
O 	O 	0.75962 0.97477 0.55209 -0.35500
C 	C 	0.74224 0.95137 0.54446 0.28400
O 	O 	0.83123 0.00015 0.49073 -0.39200
O 	O 	0.85305 0.98830 0.40368 -0.43600
C 	C 	0.85429 0.00181 0.45468 0.29900
C 	C 	0.84154 0.92394 0.52595 0.31500
O 	O 	0.80112 0.94639 0.37620 -0.46300
O 	O 	0.82682 0.93574 0.56957 -0.30700
O 	O 	0.82976 0.92856 0.47520 -0.54800
C 	C 	0.78749 0.97165 0.36233 0.31900
O 	O 	0.77643 0.98716 0.40550 -0.36900
C 	C 	0.58089 0.99025 0.88330 0.13900
N 	N 	0.55198 0.98670 0.86631 -0.13200
C 	C 	0.52937 0.99197 0.90445 0.18700
N 	N 	0.53562 0.99962 0.96018 -0.13600
C 	C 	0.56442 0.00203 0.97811 0.18200
N 	N 	0.58708 0.99759 0.93951 -0.12600
C 	C 	0.56702 0.98391 0.31942 0.13800
N 	N 	0.53831 0.97439 0.32701 -0.13000
C 	C 	0.51859 0.97598 0.28232 0.18700
N 	N 	0.52778 0.98597 0.22942 -0.12800
C 	C 	0.55658 0.99467 0.22104 0.18600
N 	N 	0.57620 0.99373 0.26605 -0.14100
Cd	Cd	0.89239 0.20636 0.27571 1.24000
Cd	Cd	0.89283 0.14971 0.38692 1.16800
O 	O 	0.87043 0.25638 0.29716 -0.32500
O 	O 	0.89452 0.24757 0.21554 -0.34500
C 	C 	0.88051 0.26709 0.24815 0.27700
O 	O 	0.92113 0.16910 0.23985 -0.39200
O 	O 	0.90092 0.13159 0.29724 -0.43200
C 	C 	0.92171 0.14107 0.26080 0.29800
C 	C 	0.93514 0.21012 0.36714 0.31700
O 	O 	0.85432 0.17489 0.33916 -0.45500
O 	O 	0.94190 0.22858 0.32462 -0.30900
O 	O 	0.90917 0.19715 0.36344 -0.55000
C 	C 	0.84132 0.16663 0.29087 0.30500
O 	O 	0.85027 0.18097 0.24418 -0.35800
Cd	Cd	0.88770 0.19310 0.02143 1.24000
Cd	Cd	0.87745 0.14379 0.90119 1.16100
O 	O 	0.85836 0.24047 0.02671 -0.32600
O 	O 	0.88924 0.22705 0.09594 -0.35500
C 	C 	0.87142 0.24780 0.07516 0.28200
O 	O 	0.91293 0.15093 0.04581 -0.39300
O 	O 	0.91938 0.13469 0.95182 -0.44300
C 	C 	0.92077 0.12962 0.00822 0.30100
C 	C 	0.83724 0.15389 0.01875 0.31300
O 	O 	0.89359 0.19376 0.90704 -0.46900
O 	O 	0.84051 0.16589 0.07037 -0.30300
O 	O 	0.85370 0.16583 0.97824 -0.54800
C 	C 	0.92095 0.20326 0.91504 0.31300
O 	O 	0.92808 0.20997 0.96839 -0.37000
C 	C 	0.89402 0.44472 0.90999 0.13900
N 	N 	0.89343 0.47471 0.92422 -0.13800
C 	C 	0.89803 0.49616 0.88249 0.18600
N 	N 	0.90194 0.48763 0.82630 -0.12500
C 	C 	0.90233 0.45783 0.81187 0.18700
N 	N 	0.89877 0.43638 0.85375 -0.13200
C 	C 	0.92970 0.43648 0.47336 0.13900
N 	N 	0.95064 0.45789 0.46078 -0.14100
C 	C 	0.96254 0.47506 0.50388 0.18400
N 	N 	0.95437 0.46989 0.55995 -0.12300
C 	C 	0.93378 0.44827 0.57288 0.18400
N 	N 	0.92124 0.43173 0.52952 -0.12900
Cd	Cd	0.13856 0.10084 0.70901 1.24300
Cd	Cd	0.09649 0.11770 0.83633 1.16700
O 	O 	0.19155 0.11619 0.70238 -0.32500
O 	O 	0.17082 0.08630 0.63826 -0.34900
C 	C 	0.19542 0.09797 0.65850 0.27900
O 	O 	0.09726 0.07352 0.69779 -0.38400
O 	O 	0.06782 0.09770 0.76518 -0.43100
C 	C 	0.07394 0.07361 0.73315 0.29900
C 	C 	0.14875 0.06648 0.81297 0.30500
O 	O 	0.11806 0.14832 0.76516 -0.46700
O 	O 	0.15885 0.05294 0.76651 -0.31300
O 	O 	0.13899 0.09395 0.80452 -0.53500
C 	C 	0.10592 0.15728 0.71654 0.30600
O 	O 	0.11465 0.14269 0.67024 -0.35400
Cd	Cd	0.13001 0.07855 0.46734 1.23900
Cd	Cd	0.09346 0.14041 0.39902 1.16300
O 	O 	0.18256 0.08244 0.49996 -0.32200
O 	O 	0.15561 0.04170 0.51547 -0.36500
C 	C 	0.18180 0.05449 0.51860 0.28800
O 	O 	0.08207 0.06393 0.46174 -0.39800
O 	O 	0.06984 0.09582 0.38648 -0.44400
C 	C 	0.06172 0.07737 0.42885 0.30100
C 	C 	0.10666 0.12638 0.53652 0.32200
O 	O 	0.13634 0.11345 0.37362 -0.46900
O 	O 	0.11419 0.10306 0.56864 -0.31200
O 	O 	0.11625 0.12540 0.48328 -0.54800
C 	C 	0.13789 0.08822 0.34414 0.31800
O 	O 	0.13836 0.06313 0.37410 -0.38700
C 	C 	0.35447 0.99484 0.86155 0.13800
N 	N 	0.38429 0.99349 0.85027 -0.12300
C 	C 	0.40319 0.98084 0.88961 0.18100
N 	N 	0.39221 0.96951 0.94028 -0.12600
C 	C 	0.36247 0.97100 0.95210 0.18300
N 	N 	0.34352 0.98326 0.91227 -0.14100
C 	C 	0.34299 0.97008 0.29199 0.13500
N 	N 	0.33486 0.96576 0.23554 -0.12500
C 	C 	0.35595 0.95873 0.19499 0.18000
N 	N 	0.38493 0.95539 0.21122 -0.12200
C 	C 	0.39310 0.95942 0.26749 0.18200
N 	N 	0.37209 0.96681 0.30781 -0.14200
C 	C 	0.33786 0.98645 0.04461 -0.10400
C 	C 	0.35173 0.96379 0.01119 -0.07600
C 	C 	0.36050 0.93654 0.03808 0.33200
C 	C 	0.35865 0.93352 0.09858 -0.10300
C 	C 	0.34819 0.95771 0.13272 -0.07100
C 	C 	0.33620 0.98352 0.10521 0.32400
F 	F 	0.32534 0.00687 0.13735 -0.44400
H 	H 	0.33046 0.00733 0.02420 0.09800
H 	H 	0.36719 0.91315 0.11923 0.11800
F 	F 	0.37251 0.91374 0.00595 -0.42700
C 	C 	0.28215 0.01343 0.37176 -0.05100
C 	C 	0.28092 0.99751 0.42465 -0.00200
C 	C 	0.29946 0.97199 0.43310 0.01100
C 	C 	0.31872 0.96253 0.38845 -0.03500
C 	C 	0.32046 0.97890 0.33600 -0.02000
C 	C 	0.30241 0.00492 0.32827 0.02000
C 	C 	0.25973 0.00769 0.47033 0.02100
S 	S 	0.29976 0.95251 0.50006 -0.03400
H 	H 	0.33282 0.94279 0.39497 0.05700
S 	S 	0.30653 0.02841 0.26669 0.02700
H 	H 	0.26788 0.03305 0.36514 0.04800
C 	C 	0.26261 0.03674 0.49516 -0.00900
C 	C 	0.23741 0.05117 0.51845 -0.00300
C 	C 	0.20969 0.03609 0.52002 -0.08600
C 	C 	0.20911 0.00454 0.50860 0.05600
C 	C 	0.23356 0.99094 0.48070 -0.07900
S 	S 	0.29743 0.05536 0.49622 -0.02800
H 	H 	0.23888 0.07473 0.53164 0.05000
S 	S 	0.17993 0.98138 0.53483 -0.04900
H 	H 	0.23195 0.96766 0.46580 0.05300
H 	H 	0.32852 0.04939 0.27694 0.04700
H 	H 	0.30075 0.07204 0.44623 0.03900
H 	H 	0.15896 0.97759 0.49206 0.02600
H 	H 	0.32149 0.96462 0.53490 0.04400
C 	C 	0.27636 0.07966 0.67870 -0.07200
C 	C 	0.27377 0.04917 0.69585 0.01600
C 	C 	0.24725 0.03321 0.68336 -0.00200
C 	C 	0.22229 0.04890 0.66251 -0.00500
C 	C 	0.22346 0.08051 0.65458 -0.08200
C 	C 	0.25131 0.09537 0.65783 0.05400
C 	C 	0.29576 0.03645 0.73723 0.00600
S 	S 	0.24451 0.99393 0.69655 -0.03600
H 	H 	0.20132 0.03691 0.65680 0.05100
S 	S 	0.25492 0.13361 0.63667 -0.03900
H 	H 	0.29729 0.09162 0.68515 0.05800
C 	C 	0.31776 0.01565 0.71888 0.01100
C 	C 	0.33644 0.00181 0.76001 -0.02800
C 	C 	0.33417 0.00943 0.81921 -0.02000
C 	C 	0.31346 0.03188 0.83684 0.03100
C 	C 	0.29393 0.04461 0.79606 -0.05700
S 	S 	0.32241 0.00712 0.64460 -0.03300
H 	H 	0.35281 0.98518 0.74596 0.05800
S 	S 	0.31328 0.04599 0.90851 -0.02700
H 	H 	0.27741 0.06113 0.80999 0.05000
H 	H 	0.24988 0.15193 0.68377 0.04700
H 	H 	0.34133 0.02791 0.61968 0.04600
H 	H 	0.33345 0.06930 0.91277 0.05300
H 	H 	0.25218 0.97854 0.64694 0.04000
C 	C 	0.88688 0.45493 0.70836 -0.10100
C 	C 	0.90828 0.44892 0.75144 -0.07500
C 	C 	0.93684 0.43860 0.73531 0.33000
C 	C 	0.94457 0.43644 0.67645 -0.10200
C 	C 	0.92375 0.44427 0.63334 -0.07300
C 	C 	0.89451 0.45247 0.64948 0.32900
F 	F 	0.87406 0.45984 0.60821 -0.43100
H 	H 	0.86472 0.46271 0.72049 0.10900
H 	H 	0.96710 0.42983 0.66436 0.11000
F 	F 	0.95763 0.43238 0.77662 -0.43300
C 	C 	0.07661 0.17245 0.71738 -0.13700
C 	C 	0.07271 0.20023 0.74698 0.11800
C 	C 	0.04399 0.20861 0.76591 -0.10300
C 	C 	0.01945 0.18953 0.75562 -0.00400
C 	C 	0.02272 0.16460 0.71758 0.05500
C 	C 	0.05140 0.15622 0.69882 -0.02300
N 	N 	0.09641 0.21870 0.75780 -0.20800
H 	H 	0.04110 0.22875 0.79240 0.05700
C 	C 	0.99329 0.19143 0.79484 0.00300
N 	N 	0.99868 0.14753 0.70217 -0.19100
H 	H 	0.05433 0.13537 0.67461 0.05400
C 	C 	0.96916 0.21016 0.77964 -0.10500
C 	C 	0.94462 0.21361 0.81740 0.12300
C 	C 	0.94443 0.19792 0.87131 -0.14300
C 	C 	0.96837 0.17882 0.88590 -0.02200
C 	C 	0.99271 0.17520 0.84811 0.04800
H 	H 	0.96962 0.22233 0.73857 0.05500
N 	N 	0.92178 0.23246 0.80220 -0.20900
H 	H 	0.96839 0.16721 0.92755 0.04500
N 	N 	0.01553 0.15631 0.86344 -0.18800
H 	H 	0.92217 0.24384 0.76226 0.08200
H 	H 	0.90357 0.23619 0.82977 0.08900
H 	H 	0.01475 0.14437 0.90278 0.05500
H 	H 	0.03418 0.15314 0.83672 0.03600
H 	H 	0.00160 0.12726 0.67930 0.08100
H 	H 	0.97689 0.15454 0.71173 0.07400
H 	H 	0.11762 0.21392 0.74091 0.09100
H 	H 	0.09357 0.23872 0.78153 0.08400
C 	C 	0.89639 0.39643 0.04745 -0.05500
C 	C 	0.88008 0.37095 0.02926 0.00500
C 	C 	0.86545 0.37158 0.97491 0.00800
C 	C 	0.86830 0.39697 0.93871 -0.02900
C 	C 	0.88705 0.42118 0.95421 -0.02300
C 	C 	0.90100 0.42100 0.00949 0.03000
C 	C 	0.88178 0.34231 0.06324 0.01700
S 	S 	0.84502 0.33997 0.95003 -0.02900
H 	H 	0.85695 0.39728 0.89708 0.05700
S 	S 	0.92620 0.44980 0.02989 -0.01200
H 	H 	0.90730 0.39618 0.08953 0.05400
C 	C 	0.90713 0.32338 0.05836 -0.00500
C 	C 	0.90468 0.29246 0.07148 -0.00200
C 	C 	0.87698 0.28004 0.08759 -0.07600
C 	C 	0.85300 0.29966 0.10069 0.05500
C 	C 	0.85581 0.33090 0.09002 -0.06900
S 	S 	0.94128 0.33754 0.03128 -0.02800
H 	H 	0.92364 0.27758 0.06391 0.04500
S 	S 	0.81899 0.28521 0.12773 -0.03700
H 	H 	0.83683 0.34577 0.09719 0.05800
H 	H 	0.95432 0.44253 0.01048 0.05000
H 	H 	0.94100 0.33636 0.97173 0.04300
H 	H 	0.80072 0.27795 0.08205 0.04700
H 	H 	0.86420 0.31989 0.92390 0.04100
C 	C 	0.95787 0.19995 0.40912 -0.15800
C 	C 	0.98580 0.18842 0.38992 0.11300
C 	C 	0.00826 0.18234 0.43067 -0.09100
C 	C 	0.00293 0.18598 0.49033 -0.01300
C 	C 	0.97535 0.19816 0.50964 0.05400
C 	C 	0.95279 0.20446 0.46878 -0.03400
N 	N 	0.99081 0.18211 0.33279 -0.20500
H 	H 	0.02959 0.17333 0.41609 -0.00800
C 	C 	0.02579 0.17488 0.53163 -0.00400
N 	N 	0.97046 0.20402 0.56697 -0.19400
H 	H 	0.93154 0.21367 0.48331 0.02000
C 	C 	0.05257 0.19128 0.53660 -0.11300
C 	C 	0.07970 0.17594 0.54607 0.10800
C 	C 	0.07966 0.14394 0.55042 -0.15100
C 	C 	0.05237 0.12854 0.55603 -0.02900
C 	C 	0.02529 0.14420 0.54947 0.04800
H 	H 	0.05268 0.21544 0.52751 0.05300
N 	N 	0.10564 0.19190 0.55017 -0.21000
H 	H 	0.05222 0.10414 0.56221 0.04100
N 	N 	0.99895 0.12954 0.55854 -0.19000
H 	H 	0.10566 0.21549 0.54522 0.07800
H 	H 	0.12578 0.18114 0.56053 0.09200
H 	H 	0.99871 0.10660 0.57016 0.07700
H 	H 	0.97859 0.14109 0.55673 0.07700
H 	H 	0.94984 0.21254 0.58099 0.07300
H 	H 	0.98716 0.20060 0.59802 0.08700
H 	H 	0.97357 0.18266 0.30231 0.08500
H 	H 	0.01189 0.17480 0.31884 0.05800
C 	C 	0.91726 0.34244 0.25748 -0.07100
C 	C 	0.89407 0.35762 0.28648 0.01700
C 	C 	0.86451 0.34723 0.27970 -0.00500
C 	C 	0.85938 0.31864 0.25527 -0.00400
C 	C 	0.88364 0.30011 0.23962 -0.07800
C 	C 	0.91234 0.31343 0.23464 0.05600
C 	C 	0.90167 0.37796 0.33527 0.00500
S 	S 	0.83417 0.36835 0.30700 -0.02500
H 	H 	0.83689 0.30941 0.25497 0.04500
S 	S 	0.94263 0.29343 0.20416 -0.03000
H 	H 	0.93977 0.35161 0.25855 0.05700
C 	C 	0.90979 0.36580 0.38985 0.00800
C 	C 	0.91816 0.38519 0.43498 -0.03000
C 	C 	0.91804 0.41675 0.42683 -0.02300
C 	C 	0.90812 0.42899 0.37328 0.03100
C 	C 	0.90068 0.40950 0.32745 -0.05500
S 	S 	0.90935 0.32630 0.40226 -0.02800
H 	H 	0.92530 0.37569 0.47623 0.05500
S 	S 	0.90287 0.46836 0.36442 -0.00900
H 	H 	0.89364 0.41887 0.28603 0.05500
H 	H 	0.95724 0.27776 0.24711 0.04800
H 	H 	0.88103 0.31754 0.41793 0.04100
H 	H 	0.87458 0.47601 0.38223 0.05300
H 	H 	0.82987 0.36114 0.36444 0.04200
C 	C 	0.47556 0.94236 0.26101 -0.10100
C 	C 	0.48722 0.96733 0.29109 -0.07400
C 	C 	0.46783 0.98668 0.32164 0.33000
C 	C 	0.43684 0.98267 0.31762 -0.10300
C 	C 	0.42507 0.95926 0.28315 -0.07400
C 	C 	0.44463 0.93816 0.25736 0.33100
F 	F 	0.43362 0.91424 0.22703 -0.42800
H 	H 	0.49045 0.92694 0.23834 0.10600
H 	H 	0.42202 0.99879 0.33856 0.10200
F 	F 	0.47892 0.01056 0.35198 -0.43300
C 	C 	0.45342 0.95658 0.89129 -0.10400
C 	C 	0.43575 0.98231 0.88039 -0.07100
C 	C 	0.44965 0.01027 0.86829 0.32700
C 	C 	0.48079 0.01284 0.87152 -0.10000
C 	C 	0.49822 0.98760 0.88674 -0.07900
C 	C 	0.48455 0.95920 0.89441 0.33500
F 	F 	0.50131 0.93449 0.90815 -0.42400
H 	H 	0.44294 0.93481 0.89968 0.11800
H 	H 	0.49125 0.03480 0.86511 0.09800
F 	F 	0.43291 0.03536 0.85728 -0.43500
C 	C 	0.58544 0.98246 0.13165 -0.10400
C 	C 	0.56686 0.00263 0.16218 -0.07600
C 	C 	0.55323 0.02676 0.13231 0.33100
C 	C 	0.55529 0.02855 0.07169 -0.10400
C 	C 	0.57080 0.00615 0.04044 -0.07300
C 	C 	0.58736 0.98412 0.07090 0.32600
F 	F 	0.60323 0.96278 0.04148 -0.43700
H 	H 	0.59655 0.96412 0.15450 0.09700
H 	H 	0.54317 0.04618 0.04872 0.10400
F 	F 	0.53627 0.04724 0.16164 -0.42700
C 	C 	0.82553 0.13701 0.28594 -0.11500
C 	C 	0.82469 0.11623 0.33301 0.09800
C 	C 	0.82082 0.08523 0.32163 -0.09200
C 	C 	0.81285 0.07527 0.26584 -0.00200
C 	C 	0.80860 0.09678 0.22079 0.06200
C 	C 	0.81557 0.12742 0.23093 -0.02100
N 	N 	0.82475 0.12610 0.38895 -0.22300
H 	H 	0.82184 0.06902 0.35718 0.05600
C 	C 	0.80572 0.04276 0.25752 0.01000
N 	N 	0.79754 0.08832 0.16820 -0.19300
H 	H 	0.81408 0.14362 0.19546 0.06000
C 	C 	0.77572 0.03357 0.26097 -0.10700
C 	C 	0.76863 0.00483 0.28354 0.14900
C 	C 	0.79180 0.98633 0.30538 -0.15200
C 	C 	0.82109 0.99195 0.28624 0.00100
C 	C 	0.82845 0.02062 0.26332 0.04400
H 	H 	0.75802 0.04968 0.25153 0.06400
N 	N 	0.73961 0.99602 0.28828 -0.20800
H 	H 	0.83859 0.97555 0.29508 -0.03300
N 	N 	0.85730 0.02725 0.24948 -0.19000
H 	H 	0.72233 0.01035 0.27465 0.09400
H 	H 	0.73413 0.97440 0.30380 0.09500
H 	H 	0.87420 0.01122 0.25609 0.06800
H 	H 	0.86299 0.04807 0.23061 0.08100
H 	H 	0.79172 0.10472 0.13732 0.09300
H 	H 	0.79464 0.06551 0.15736 0.08800
H 	H 	0.81858 0.14834 0.39910 0.07400
H 	H 	0.82743 0.11069 0.42320 0.05300
C 	C 	0.02965 0.06933 0.43529 -0.12600
C 	C 	0.02005 0.03876 0.44074 0.12500
C 	C 	0.98967 0.03256 0.45178 -0.10300
C 	C 	0.96845 0.05607 0.45310 -0.00100
C 	C 	0.97799 0.08656 0.44691 0.04700
C 	C 	0.00840 0.09279 0.43674 -0.02200
N 	N 	0.03940 0.01534 0.43235 -0.20300
H 	H 	0.98233 0.00924 0.45682 0.05200
C 	C 	0.93610 0.04825 0.45714 -0.00600
N 	N 	0.95810 0.10988 0.45038 -0.19300
H 	H 	0.01564 0.11609 0.43111 0.01500
C 	C 	0.92447 0.03752 0.51008 -0.10500
C 	C 	0.89483 0.02690 0.51372 0.11300
C 	C 	0.87716 0.02581 0.46270 -0.12000
C 	C 	0.88704 0.04159 0.41310 -0.03900
C 	C 	0.91686 0.05124 0.40848 0.03800
H 	H 	0.93833 0.03773 0.54860 0.05000
N 	N 	0.88314 0.01939 0.56648 -0.20800
H 	H 	0.87253 0.04320 0.37546 0.04100
N 	N 	0.92701 0.06260 0.35706 -0.20000
H 	H 	0.89657 0.01972 0.60363 0.08200
H 	H 	0.86033 0.01549 0.57200 0.09800
H 	H 	0.91217 0.06677 0.32288 0.07600
H 	H 	0.94973 0.06624 0.34964 0.08600
H 	H 	0.96496 0.13213 0.44224 0.05000
H 	H 	0.93593 0.10634 0.46308 0.02700
H 	H 	0.06009 0.01864 0.41216 0.05700
H 	H 	0.03295 0.99310 0.44218 0.05500
C 	C 	0.66158 0.93525 0.51661 -0.07200
C 	C 	0.65241 0.96505 0.50441 0.01800
C 	C 	0.66890 0.98944 0.52756 -0.00600
C 	C 	0.69699 0.98398 0.55229 -0.00700
C 	C 	0.70935 0.95463 0.55072 -0.08200
C 	C 	0.69017 0.92985 0.53924 0.05600
C 	C 	0.63061 0.97035 0.45705 0.00300
S 	S 	0.65577 0.02699 0.52154 -0.03300
H 	H 	0.71037 0.00294 0.56716 0.04900
S 	S 	0.70180 0.89220 0.55163 -0.03200
H 	H 	0.64776 0.91631 0.50316 0.05800
C 	C 	0.63909 0.96628 0.39840 0.01000
C 	C 	0.61810 0.97058 0.35415 -0.03400
C 	C 	0.58902 0.98059 0.36719 -0.02100
C 	C 	0.58118 0.98670 0.42578 0.02200
C 	C 	0.60161 0.98031 0.47035 -0.05200
S 	S 	0.67617 0.95668 0.37972 -0.03700
H 	H 	0.62445 0.96617 0.30940 0.05400
S 	S 	0.54732 0.00502 0.44352 0.02500
H 	H 	0.59529 0.98417 0.51530 0.05400
H 	H 	0.71338 0.88038 0.50129 0.04800
H 	H 	0.67935 0.92574 0.38063 0.03900
H 	H 	0.55135 0.03583 0.44087 0.05100
H 	H 	0.66454 0.03878 0.46899 0.04200
C 	C 	0.91904 0.96115 0.71322 -0.11500
C 	C 	0.91880 0.99314 0.72052 0.10800
C 	C 	0.94573 0.00943 0.71547 -0.09600
C 	C 	0.97275 0.99446 0.70346 -0.00700
C 	C 	0.97265 0.96287 0.69230 0.05500
C 	C 	0.94577 0.94656 0.69722 -0.02500
N 	N 	0.89306 0.00831 0.73320 -0.20400
H 	H 	0.94578 0.03377 0.72252 0.04600
C 	C 	0.00117 0.01185 0.70634 -0.00100
N 	N 	0.99809 0.94819 0.67590 -0.19300
H 	H 	0.94568 0.92232 0.68893 0.04600
C 	C 	0.01975 0.00839 0.75501 -0.09700
C 	C 	0.04509 0.02690 0.76202 0.11100
C 	C 	0.04998 0.05130 0.72296 -0.11300
C 	C 	0.03183 0.05430 0.67361 -0.02000
C 	C 	0.00848 0.03367 0.66332 0.05300
H 	H 	0.01471 0.99103 0.78709 0.04900
N 	N 	0.06520 0.02033 0.80450 -0.20700
H 	H 	0.03624 0.07233 0.64260 0.04100
N 	N 	0.99400 0.03410 0.61140 -0.19200
H 	H 	0.06186 0.00165 0.83183 0.06700
H 	H 	0.08517 0.03240 0.80837 0.06600
H 	H 	0.99892 0.05076 0.58040 0.08100
H 	H 	0.97928 0.01674 0.59989 0.08100
H 	H 	0.99797 0.92471 0.66934 0.07800
H 	H 	0.01793 0.95998 0.66774 0.07900
H 	H 	0.87266 0.99710 0.73781 0.09000
H 	H 	0.89328 0.03185 0.73874 0.07000
C 	C 	0.83073 0.98040 0.88180 -0.15600
C 	C 	0.85578 0.99921 0.89099 0.10400
C 	C 	0.85270 0.02530 0.92528 -0.10000
C 	C 	0.82592 0.03102 0.95516 -0.00700
C 	C 	0.80264 0.00928 0.95382 0.05500
C 	C 	0.80517 0.98418 0.91655 -0.01800
N 	N 	0.88265 0.99253 0.86635 -0.20400
H 	H 	0.87069 0.04178 0.92686 0.03200
C 	C 	0.82107 0.06142 0.98051 -0.00600
N 	N 	0.77774 0.01265 0.98733 -0.19200
H 	H 	0.78639 0.96881 0.91152 0.03500
C 	C 	0.80743 0.08388 0.94635 -0.11200
C 	C 	0.80931 0.11456 0.96217 0.08900
C 	C 	0.82577 0.12279 0.01213 -0.15300
C 	C 	0.83629 0.10006 0.04970 -0.02600
C 	C 	0.83386 0.06931 0.03456 0.04600
H 	H 	0.79642 0.07759 0.90616 0.04800
N 	N 	0.79534 0.13600 0.92932 -0.21500
H 	H 	0.84738 0.10635 0.08973 0.04000
N 	N 	0.84395 0.04756 0.07176 -0.19200
H 	H 	0.78419 0.12991 0.89117 0.06700
H 	H 	0.79439 0.15864 0.94260 0.08100
H 	H 	0.85372 0.05358 0.11135 0.07700
H 	H 	0.84120 0.02451 0.06275 0.07900
H 	H 	0.76020 0.99702 0.98465 0.08400
H 	H 	0.77598 0.03020 0.01763 0.08900
H 	H 	0.88605 0.97197 0.84479 0.01800
H 	H 	0.90080 0.00730 0.87084 0.07000
C 	C 	0.69935 0.97926 0.71718 -0.07400
C 	C 	0.67664 0.95785 0.72618 0.01900
C 	C 	0.68105 0.92778 0.70745 -0.00400
C 	C 	0.70982 0.91803 0.69213 -0.00400
C 	C 	0.73383 0.93854 0.69209 -0.07700
C 	C 	0.72796 0.96981 0.70012 0.05600
C 	C 	0.65164 0.96540 0.76594 0.00300
S 	S 	0.65110 0.90189 0.70598 -0.01800
H 	H 	0.71389 0.89414 0.68404 0.04600
S 	S 	0.75637 0.99716 0.69208 -0.02900
H 	H 	0.69543 0.00289 0.72793 0.05400
C 	C 	0.65228 0.95597 0.82467 0.01100
C 	C 	0.62900 0.96410 0.86225 -0.03200
C 	C 	0.60555 0.98269 0.84281 -0.01700
C 	C 	0.60571 0.99344 0.78474 0.02700
C 	C 	0.62837 0.98415 0.74642 -0.05400
S 	S 	0.68271 0.93498 0.85224 -0.02100
H 	H 	0.62917 0.95601 0.90684 0.07900
S 	S 	0.57924 0.02032 0.76075 -0.01500
H 	H 	0.62835 0.99219 0.70180 0.05200
H 	H 	0.76554 0.00648 0.74596 0.04600
H 	H 	0.70491 0.95454 0.86894 0.03900
H 	H 	0.58954 0.04896 0.77241 0.04000
H 	H 	0.64878 0.88776 0.75897 0.04700
C 	C 	0.01633 0.53966 0.52166 -0.10200
C 	C 	0.00273 0.56160 0.48606 -0.07400
C 	C 	0.98050 0.55261 0.44651 0.33100
C 	C 	0.96940 0.52295 0.44809 -0.10300
C 	C 	0.98027 0.50218 0.48934 -0.07400
C 	C 	0.00510 0.51006 0.52348 0.33000
F 	F 	0.01721 0.48955 0.56078 -0.43100
H 	H 	0.03423 0.54611 0.55085 0.10400
H 	H 	0.95078 0.51685 0.42037 0.10300
F 	F 	0.96775 0.57324 0.41035 -0.43700
C 	C 	0.89949 0.58056 0.86700 -0.10300
C 	C 	0.92635 0.58717 0.89577 -0.07500
C 	C 	0.93938 0.56505 0.93192 0.32900
C 	C 	0.92757 0.53562 0.93359 -0.10200
C 	C 	0.90296 0.52805 0.89869 -0.07500
C 	C 	0.88777 0.55112 0.86851 0.33000
F 	F 	0.86296 0.54448 0.83704 -0.43000
H 	H 	0.88876 0.59772 0.84038 0.10300
H 	H 	0.93907 0.51812 0.95809 0.10200
F 	F 	0.96499 0.57126 0.96119 -0.43700
C 	C 	0.95597 0.64651 0.70204 -0.10400
C 	C 	0.97830 0.64538 0.74482 -0.07500
C 	C 	0.00857 0.64557 0.72806 0.32700
C 	C 	0.01630 0.64462 0.66903 -0.10400
C 	C 	0.99390 0.64358 0.62641 -0.07800
C 	C 	0.96373 0.64573 0.64306 0.33000
F 	F 	0.94186 0.64519 0.60218 -0.43100
H 	H 	0.93257 0.64698 0.71452 0.10200
H 	H 	0.03964 0.64304 0.65654 0.09800
F 	F 	0.03045 0.64482 0.76892 -0.43300
C 	C 	0.03335 0.97571 0.98708 -0.12400
C 	C 	0.00767 0.97094 0.02251 0.12800
C 	C 	0.98887 0.99566 0.03553 -0.10100
C 	C 	0.99237 0.02358 0.00654 0.00200
C 	C 	0.01619 0.02721 0.96634 0.04600
C 	C 	0.03767 0.00417 0.96080 -0.02200
N 	N 	0.00054 0.94284 0.04290 -0.20300
H 	H 	0.97077 0.99280 0.06660 0.05600
C 	C 	0.97197 0.04940 0.02059 -0.00100
N 	N 	0.01792 0.05216 0.93146 -0.19200
H 	H 	0.05719 0.00796 0.93380 0.02800
C 	C 	0.98418 0.07656 0.04206 -0.09900
C 	C 	0.96669 0.10304 0.04550 0.12800
C 	C 	0.93625 0.10201 0.02860 -0.12000
C 	C 	0.92307 0.07385 0.01645 -0.03100
C 	C 	0.94078 0.04771 0.00989 0.05200
H 	H 	0.00776 0.07754 0.05282 0.04800
N 	N 	0.97933 0.12929 0.06442 -0.20500
H 	H 	0.89944 0.07286 0.00606 0.01800
N 	N 	0.92786 0.02147 0.99170 -0.19400
H 	H 	0.00203 0.13000 0.07520 0.07600
H 	H 	0.96665 0.14890 0.07062 0.10000
H 	H 	0.90472 0.01860 0.99475 0.07300
H 	H 	0.94034 0.00439 0.97171 0.07400
H 	H 	0.03640 0.05539 0.90416 0.06000
H 	H 	0.00016 0.06746 0.92814 0.07600
H 	H 	0.00979 0.92329 0.02475 0.08600
H 	H 	0.98353 0.94019 0.07379 0.08300
C 	C 	0.88098 0.84674 0.73912 -0.13100
C 	C 	0.90124 0.85079 0.69232 0.14200
C 	C 	0.93209 0.85130 0.70374 -0.10100
C 	C 	0.94268 0.84459 0.75967 0.00200
C 	C 	0.92259 0.83280 0.80175 0.03900
C 	C 	0.89171 0.83362 0.79067 -0.04200
N 	N 	0.89136 0.85258 0.63662 -0.20300
H 	H 	0.94768 0.85802 0.66987 0.05500
C 	C 	0.97201 0.85690 0.77768 -0.00400
N 	N 	0.93270 0.82184 0.85345 -0.19600
H 	H 	0.87606 0.82712 0.82461 0.02300
C 	C 	0.97346 0.88701 0.79689 -0.10500
C 	C 	0.99890 0.89773 0.82570 0.11900
C 	C 	0.02247 0.87743 0.83855 -0.13100
C 	C 	0.02264 0.84850 0.81307 -0.02200
C 	C 	0.99761 0.83811 0.78194 0.05700
H 	H 	0.95423 0.90173 0.79173 0.04300
N 	N 	0.00053 0.92742 0.84133 -0.20800
H 	H 	0.04134 0.83333 0.82078 0.04200
N 	N 	0.99791 0.80989 0.75809 -0.19300
H 	H 	0.98255 0.94208 0.83371 0.07400
H 	H 	0.02022 0.93654 0.85812 0.07900
H 	H 	0.01648 0.79571 0.76332 0.08900
H 	H 	0.98008 0.80207 0.73296 0.09200
H 	H 	0.91764 0.81420 0.88512 0.06800
H 	H 	0.95555 0.81992 0.86199 0.08500
H 	H 	0.86951 0.84636 0.62594 0.11000
H 	H 	0.90633 0.85726 0.60279 0.09300
C 	C 	0.15990 0.92127 0.99271 -0.13300
C 	C 	0.17063 0.92739 0.93605 0.07500
C 	C 	0.18080 0.95669 0.92259 -0.10500
C 	C 	0.18176 0.97900 0.96600 -0.00600
C 	C 	0.17919 0.97003 0.02477 0.06200
C 	C 	0.16798 0.94099 0.03793 -0.02000
N 	N 	0.17106 0.90536 0.89480 -0.22400
H 	H 	0.18559 0.96278 0.87778 0.04200
C 	C 	0.17653 0.01093 0.94903 -0.00500
N 	N 	0.18754 0.98906 0.06820 -0.19200
H 	H 	0.16410 0.93447 0.08275 0.05500
C 	C 	0.14710 0.02198 0.95055 -0.10000
C 	C 	0.13796 0.04465 0.91150 0.09700
C 	C 	0.15876 0.05626 0.87076 -0.13400
C 	C 	0.18932 0.04993 0.87841 -0.01800
C 	C 	0.19840 0.02704 0.91713 0.05900
H 	H 	0.13056 0.01063 0.97738 0.04300
N 	N 	0.10921 0.05463 0.91258 -0.19500
H 	H 	0.20571 0.06068 0.85019 0.04400
N 	N 	0.22786 0.01984 0.92189 -0.19200
H 	H 	0.09437 0.04689 0.94449 0.06000
H 	H 	0.10156 0.07066 0.88280 -0.03300
H 	H 	0.24383 0.03080 0.89606 0.09000
H 	H 	0.23519 0.00395 0.95252 0.09600
H 	H 	0.18674 0.98192 0.11156 0.09300
H 	H 	0.19621 0.01057 0.05897 0.09100
H 	H 	0.16623 0.88282 0.90548 0.07900
H 	H 	0.17771 0.91036 0.85221 0.05300
C 	C 	0.00519 0.69275 0.04058 -0.05200
C 	C 	0.00682 0.72323 0.02315 0.00500
C 	C 	0.99598 0.73180 0.96780 0.01000
C 	C 	0.98275 0.71013 0.93182 -0.03200
C 	C 	0.98252 0.67935 0.94773 -0.01700
C 	C 	0.99398 0.67061 0.00267 0.02300
C 	C 	0.02317 0.74531 0.05972 0.01700
S 	S 	0.00117 0.76898 0.94088 -0.03200
H 	H 	0.97386 0.71703 0.88997 0.05400
S 	S 	0.99676 0.63210 0.02275 0.03400
H 	H 	0.01398 0.68603 0.08262 0.05100
C 	C 	0.00826 0.77070 0.08301 -0.00400
C 	C 	0.02397 0.79791 0.09065 -0.00500
C 	C 	0.05486 0.79905 0.07889 -0.07800
C 	C 	0.07049 0.77154 0.07071 0.05300
C 	C 	0.05452 0.74485 0.05969 -0.06900
S 	S 	0.96989 0.76899 0.09992 -0.04100
H 	H 	0.01186 0.81850 0.10114 0.05100
S 	S 	0.10985 0.77059 0.07189 -0.02100
H 	H 	0.06636 0.72445 0.04680 0.05900
H 	H 	0.02326 0.62051 0.00253 0.05800
H 	H 	0.95335 0.77733 0.05243 0.03100
H 	H 	0.11954 0.76404 0.12700 0.03900
H 	H 	0.97644 0.78626 0.95294 0.02900
C 	C 	0.94061 0.11815 0.23239 -0.11900
C 	C 	0.92845 0.09897 0.18920 0.13500
C 	C 	0.94239 0.07114 0.17691 -0.10200
C 	C 	0.96776 0.06191 0.20798 0.00200
C 	C 	0.98110 0.08203 0.24832 0.05200
C 	C 	0.96784 0.11041 0.25865 -0.02900
N 	N 	0.90304 0.10680 0.16047 -0.20300
H 	H 	0.93280 0.05609 0.14467 0.05700
C 	C 	0.98039 0.03131 0.19746 0.00100
N 	N 	0.00555 0.07360 0.27964 -0.19300
H 	H 	0.97708 0.12508 0.29181 0.02300
C 	C 	0.00639 0.02861 0.16372 -0.10400
C 	C 	0.02177 0.00091 0.16084 0.13300
C 	C 	0.01209 0.97627 0.19537 -0.12700
C 	C 	0.98409 0.97767 0.22266 -0.02800
C 	C 	0.96824 0.00520 0.22498 0.05000
H 	H 	0.01529 0.04834 0.14145 0.05500
N 	N 	0.04529 0.99782 0.12382 -0.20600
H 	H 	0.97561 0.95795 0.24569 0.03300
N 	N 	0.94202 0.00661 0.25502 -0.19100
H 	H 	0.05263 0.01625 0.09887 0.08600
H 	H 	0.05537 0.97671 0.11723 0.10300
H 	H 	0.93398 0.98758 0.27736 0.06100
H 	H 	0.92904 0.02627 0.25551 0.08000
H 	H 	0.01628 0.08921 0.30666 0.07700
H 	H 	0.01334 0.05126 0.27960 0.08000
H 	H 	0.89307 0.12803 0.16619 0.10500
H 	H 	0.89350 0.09188 0.13057 0.08500
C 	C 	0.01143 0.91013 0.39838 -0.15700
C 	C 	0.99398 0.93683 0.39776 0.10800
C 	C 	0.97019 0.93978 0.43719 -0.10400
C 	C 	0.96529 0.91749 0.47983 -0.00400
C 	C 	0.98690 0.89446 0.48816 0.05300
C 	C 	0.00955 0.89053 0.44640 -0.01500
N 	N 	0.99983 0.95945 0.35918 -0.20200
H 	H 	0.95465 0.95857 0.43288 0.04000
C 	C 	0.93520 0.91489 0.50644 -0.00800
N 	N 	0.98565 0.87588 0.53541 -0.19100
H 	H 	0.02432 0.87103 0.44908 0.03400
C 	C 	0.91651 0.89097 0.48909 -0.11500
C 	C 	0.88580 0.89163 0.50163 0.09200
C 	C 	0.87360 0.91689 0.53101 -0.15200
C 	C 	0.89282 0.93878 0.55473 -0.02400
C 	C 	0.92355 0.93831 0.54185 0.04900
H 	H 	0.92569 0.87243 0.46371 0.05100
N 	N 	0.86817 0.86791 0.48577 -0.21400
H 	H 	0.88361 0.95726 0.58011 0.05000
N 	N 	0.94156 0.96078 0.56215 -0.19100
H 	H 	0.87713 0.84971 0.46236 0.07200
H 	H 	0.84578 0.86671 0.49869 0.08400
H 	H 	0.93256 0.97888 0.58562 0.08400
H 	H 	0.96476 0.95987 0.55692 0.08300
H 	H 	0.00100 0.85815 0.54025 0.08100
H 	H 	0.97020 0.87968 0.56881 0.08300
H 	H 	0.01913 0.95904 0.33361 0.00700
H 	H 	0.98605 0.97861 0.35710 0.07400
C 	C 	0.12873 0.94296 0.19956 -0.13000
C 	C 	0.14947 0.95652 0.23779 0.10500
C 	C 	0.15347 0.98807 0.23630 -0.11200
C 	C 	0.13914 0.00564 0.19369 -0.00200
C 	C 	0.12490 0.99087 0.14673 0.05300
C 	C 	0.11879 0.95960 0.15102 -0.02000
N 	N 	0.16510 0.93940 0.27646 -0.20900
H 	H 	0.16661 0.99907 0.26980 0.05500
C 	C 	0.13572 0.03881 0.20355 0.00100
N 	N 	0.11637 0.00662 0.09871 -0.19000
H 	H 	0.10510 0.94869 0.11829 0.05200
C 	C 	0.16177 0.05645 0.20939 -0.10400
C 	C 	0.16208 0.08079 0.24894 0.13700
C 	C 	0.13589 0.08741 0.28064 -0.15100
C 	C 	0.10873 0.07767 0.25754 -0.02100
C 	C 	0.10820 0.05097 0.22448 0.05000
H 	H 	0.18246 0.04899 0.18921 0.05900
N 	N 	0.18795 0.09578 0.26015 -0.20900
H 	H 	0.08803 0.08651 0.27541 0.01900
N 	N 	0.08203 0.03571 0.21842 -0.19800
H 	H 	0.20772 0.08996 0.23850 0.08900
H 	H 	0.18834 0.11382 0.28959 0.08900
H 	H 	0.06185 0.04582 0.23071 0.07700
H 	H 	0.08163 0.01303 0.20633 0.08900
H 	H 	0.10488 0.99575 0.06513 0.07700
H 	H 	0.12194 0.02950 0.09351 0.08100
H 	H 	0.16424 0.91570 0.27510 0.09300
H 	H 	0.17940 0.94965 0.30649 0.07800
C 	C 	0.00497 0.68797 0.32571 -0.05200
C 	C 	0.02655 0.71064 0.33403 0.00300
C 	C 	0.04275 0.71157 0.38668 0.01100
C 	C 	0.03770 0.68952 0.42952 -0.03400
C 	C 	0.01572 0.66719 0.42171 -0.01800
C 	C 	0.99889 0.66678 0.36971 0.02200
C 	C 	0.02924 0.73554 0.29091 0.01900
S 	S 	0.06845 0.74100 0.40058 -0.02900
H 	H 	0.05056 0.69004 0.46944 0.05400
S 	S 	0.96850 0.64177 0.36115 0.04500
H 	H 	0.99201 0.68763 0.28590 0.05200
C 	C 	0.05530 0.73892 0.25688 -0.00700
C 	C 	0.06167 0.76703 0.23105 -0.00200
C 	C 	0.04153 0.79128 0.23675 -0.08100
C 	C 	0.01314 0.78596 0.26188 0.05600
C 	C 	0.00732 0.75827 0.28958 -0.07200
S 	S 	0.08018 0.70839 0.24709 -0.02800
H 	H 	0.08294 0.77053 0.20934 0.04000
S 	S 	0.98516 0.81409 0.26099 -0.03500
H 	H 	0.98640 0.75503 0.31279 0.05600
H 	H 	0.94319 0.65480 0.38380 0.05100
H 	H 	0.07208 0.69251 0.19842 0.04000
H 	H 	0.96882 0.81170 0.21089 0.03600
H 	H 	0.09624 0.73261 0.38106 0.04300
