data_crystal

_cell_length_a 38.93631
_cell_length_b 39.37835
_cell_length_c 20.21410
_cell_angle_alpha 91.34329
_cell_angle_beta  88.49393
_cell_angle_gamma 90.00363

_symmetry_space_group_name_	'P 1'
_symmetry_space_group_name_H-M	'P 1'

loop_
_symmetry_equiv_pos_as_xyz
  x,y,z

loop_
_atom_site_label
_atom_site_type_symbol
_atom_site_fract_x
_atom_site_fract_y
_atom_site_fract_z
_atom_site_charge
Cd	Cd	0.97696 0.91048 0.19495 1.23600
Cd	Cd	0.94535 0.95054 0.34601 1.16200
O 	O 	0.93660 0.88701 0.11326 -0.30300
O 	O 	0.99219 0.88940 0.09255 -0.41100
C 	C 	0.96202 0.88073 0.07172 0.24700
O 	O 	0.02347 0.93465 0.23594 -0.40200
O 	O 	0.00275 0.94455 0.34140 -0.43700
C 	C 	0.02177 0.95394 0.29008 0.28200
C 	C 	0.94884 0.97734 0.19343 0.30500
O 	O 	0.94210 0.89500 0.30367 -0.45900
O 	O 	0.96702 0.96996 0.14007 -0.31200
O 	O 	0.94368 0.95242 0.23323 -0.54200
C 	C 	0.96378 0.87013 0.31043 0.29900
O 	O 	0.98473 0.86400 0.26010 -0.37300
Cd	Cd	0.80468 0.90719 0.00164 1.24100
Cd	Cd	0.80411 0.97776 0.89299 1.16500
O 	O 	0.76393 0.86057 0.98107 -0.30600
O 	O 	0.80438 0.85632 0.05392 -0.34600
C 	C 	0.77943 0.84150 0.02257 0.24100
O 	O 	0.85156 0.93772 0.02801 -0.37300
O 	O 	0.83161 0.98777 0.98746 -0.43100
C 	C 	0.85708 0.96925 0.00861 0.28400
C 	C 	0.83730 0.90049 0.87391 0.30900
O 	O 	0.76278 0.95511 0.96479 -0.46000
O 	O 	0.84428 0.87502 0.91139 -0.29200
O 	O 	0.81345 0.92079 0.89754 -0.54400
C 	C 	0.75794 0.96336 0.02735 0.29700
O 	O 	0.77084 0.94237 0.06915 -0.36300
C 	C 	0.85950 0.66447 0.78323 0.09300
N 	N 	0.85921 0.66855 0.71659 -0.13700
C 	C 	0.87434 0.64501 0.67507 0.12600
N 	N 	0.88982 0.61753 0.70057 -0.14300
C 	C 	0.89191 0.61443 0.76705 0.12800
N 	N 	0.87655 0.63782 0.80837 -0.12800
C 	C 	0.96777 0.68389 0.10100 0.09300
N 	N 	0.94628 0.68715 0.15498 -0.13800
C 	C 	0.95359 0.67109 0.21166 0.12800
N 	N 	0.98194 0.65118 0.21391 -0.14500
C 	C 	0.00307 0.64727 0.15981 0.13000
N 	N 	0.99576 0.66336 0.10313 -0.13000
Cd	Cd	0.86181 0.11014 0.72341 1.23800
Cd	Cd	0.91180 0.15890 0.83533 1.15900
O 	O 	0.82053 0.13763 0.65092 -0.31600
O 	O 	0.83025 0.08277 0.64534 -0.35400
C 	C 	0.81224 0.10818 0.62531 0.24200
O 	O 	0.89860 0.07251 0.76119 -0.40300
O 	O 	0.91201 0.10295 0.85473 -0.44100
C 	C 	0.91992 0.07941 0.80943 0.28400
C 	C 	0.92185 0.14392 0.67671 0.30000
O 	O 	0.85271 0.15247 0.82659 -0.46500
O 	O 	0.91049 0.12254 0.63182 -0.29900
O 	O 	0.90064 0.15024 0.72591 -0.54500
C 	C 	0.83380 0.12872 0.85277 0.29500
O 	O 	0.82701 0.10263 0.81455 -0.38800
Cd	Cd	0.91675 0.22970 0.52736 1.23900
Cd	Cd	0.98299 0.23082 0.40196 1.16700
O 	O 	0.86946 0.27073 0.51938 -0.30700
O 	O 	0.86796 0.23068 0.59321 -0.35100
C 	C 	0.85235 0.25614 0.56683 0.23800
O 	O 	0.94818 0.18300 0.54410 -0.37700
O 	O 	0.99732 0.20240 0.49214 -0.43100
C 	C 	0.97954 0.17750 0.51888 0.28600
C 	C 	0.90425 0.19858 0.40167 0.30900
O 	O 	0.96383 0.27120 0.48024 -0.46200
O 	O 	0.88039 0.19112 0.44544 -0.29700
O 	O 	0.92571 0.22199 0.42034 -0.54000
C 	C 	0.97467 0.27511 0.54053 0.29400
O 	O 	0.95535 0.26183 0.58683 -0.37100
C 	C 	0.62228 0.05018 0.78652 0.08800
N 	N 	0.62950 0.06521 0.84579 -0.13400
C 	C 	0.61223 0.05571 0.90172 0.12300
N 	N 	0.58802 0.03099 0.89821 -0.14300
C 	C 	0.58111 0.01564 0.83921 0.12600
N 	N 	0.59816 0.02533 0.78335 -0.13900
C 	C 	0.66695 0.15674 0.46742 0.09300
N 	N 	0.65330 0.13180 0.50524 -0.12800
C 	C 	0.63794 0.10449 0.47635 0.12700
N 	N 	0.63618 0.10221 0.40938 -0.14300
C 	C 	0.64972 0.12707 0.37128 0.12700
N 	N 	0.66515 0.15434 0.40030 -0.13800
Cd	Cd	0.21553 0.21136 0.27401 1.24000
Cd	Cd	0.20882 0.17244 0.43185 1.16300
O 	O 	0.27164 0.23518 0.24020 -0.31800
O 	O 	0.22784 0.23530 0.17415 -0.31900
C 	C 	0.25948 0.24440 0.18407 0.24000
O 	O 	0.16389 0.18581 0.27371 -0.37800
O 	O 	0.15883 0.18512 0.38651 -0.43000
C 	C 	0.15029 0.17284 0.32823 0.28400
C 	C 	0.24174 0.14460 0.28879 0.29900
O 	O 	0.22195 0.22742 0.40102 -0.45800
O 	O 	0.23955 0.15185 0.22628 -0.29400
O 	O 	0.23630 0.16972 0.33036 -0.54500
C 	C 	0.20036 0.25219 0.39213 0.30100
O 	O 	0.19255 0.25755 0.33091 -0.36200
Cd	Cd	0.12941 0.15671 0.07900 1.23900
Cd	Cd	0.14726 0.09007 0.96025 1.16500
O 	O 	0.16795 0.20627 0.08496 -0.29700
O 	O 	0.11903 0.20474 0.14140 -0.35600
C 	C 	0.14627 0.22206 0.12483 0.23900
O 	O 	0.08231 0.12387 0.08272 -0.39300
O 	O 	0.10874 0.07590 0.03960 -0.43100
C 	C 	0.08046 0.09296 0.05565 0.28200
C 	C 	0.11413 0.16668 0.94369 0.30900
O 	O 	0.17760 0.11132 0.04992 -0.45600
O 	O 	0.09954 0.18967 0.98245 -0.31200
O 	O 	0.13549 0.14663 0.97189 -0.54400
C 	C 	0.17472 0.10164 0.11119 0.30000
O 	O 	0.15637 0.12149 0.15070 -0.36200
C 	C 	0.09588 0.39178 0.89106 0.09000
N 	N 	0.11500 0.38931 0.83388 -0.13900
C 	C 	0.10572 0.40684 0.78011 0.12700
N 	N 	0.07808 0.42784 0.78435 -0.14300
C 	C 	0.05908 0.43052 0.84149 0.12600
N 	N 	0.06740 0.41170 0.89420 -0.13100
C 	C 	0.23670 0.44519 0.23626 0.09400
N 	N 	0.23432 0.43857 0.30189 -0.12900
C 	C 	0.21046 0.45482 0.34137 0.12700
N 	N 	0.18913 0.47790 0.31497 -0.14200
C 	C 	0.19265 0.48588 0.25013 0.12800
N 	N 	0.21601 0.46905 0.21053 -0.13700
Cd	Cd	0.13508 0.84892 0.87645 1.24100
Cd	Cd	0.07261 0.88639 0.98895 1.17800
O 	O 	0.14464 0.78710 0.87728 -0.31600
O 	O 	0.17203 0.81963 0.80696 -0.33400
C 	C 	0.16863 0.78951 0.83156 0.24100
O 	O 	0.13056 0.90280 0.84406 -0.38200
O 	O 	0.11068 0.92254 0.94520 -0.42400
C 	C 	0.11433 0.92619 0.88099 0.28800
C 	C 	0.06438 0.84549 0.84431 0.30300
O 	O 	0.12239 0.85572 0.00536 -0.45000
O 	O 	0.08414 0.83553 0.79432 -0.29000
O 	O 	0.07971 0.84913 0.90050 -0.52900
C 	C 	0.15346 0.86805 0.00997 0.30000
O 	O 	0.17271 0.86520 0.95642 -0.36200
Cd	Cd	0.16654 0.92029 0.68122 1.24000
Cd	Cd	0.13877 0.91475 0.51421 1.16600
O 	O 	0.21489 0.88387 0.71106 -0.30800
O 	O 	0.19416 0.92317 0.77996 -0.33400
C 	C 	0.21665 0.89912 0.76857 0.23500
O 	O 	0.12897 0.96317 0.67414 -0.38400
O 	O 	0.10093 0.93998 0.58546 -0.43300
C 	C 	0.10794 0.96636 0.62418 0.28200
C 	C 	0.20480 0.95438 0.58083 0.30700
O 	O 	0.14234 0.87507 0.59700 -0.45900
O 	O 	0.21417 0.96414 0.63981 -0.30800
O 	O 	0.18399 0.92867 0.57880 -0.54000
C 	C 	0.11848 0.86811 0.64110 0.29700
O 	O 	0.12155 0.88280 0.69920 -0.35600
C 	C 	0.36065 0.81095 0.97311 0.09100
N 	N 	0.37785 0.83333 0.93420 -0.13700
C 	C 	0.39701 0.85836 0.96193 0.12700
N 	N 	0.39995 0.86037 0.02865 -0.14100
C 	C 	0.38293 0.83807 0.06788 0.12700
N 	N 	0.36259 0.81381 0.04011 -0.12700
C 	C 	0.41808 0.90718 0.65397 0.09100
N 	N 	0.44291 0.93144 0.65317 -0.14000
C 	C 	0.46123 0.93730 0.59647 0.12600
N 	N 	0.45377 0.91984 0.53997 -0.14300
C 	C 	0.42928 0.89525 0.54067 0.12600
N 	N 	0.41158 0.88883 0.59789 -0.12900
C 	C 	0.38509 0.84163 0.14069 -0.04800
C 	C 	0.39639 0.81452 0.17974 0.10200
C 	C 	0.39951 0.81971 0.24838 -0.08600
C 	C 	0.39460 0.85205 0.27770 -0.00500
C 	C 	0.38426 0.87938 0.23834 0.07100
C 	C 	0.37835 0.87350 0.17080 -0.05300
N 	N 	0.40573 0.78406 0.15156 -0.19900
H 	H 	0.40753 0.79888 0.27857 0.05500
C 	C 	0.40277 0.85748 0.34859 -0.00500
N 	N 	0.38064 0.91137 0.26460 -0.19400
H 	H 	0.36972 0.89423 0.14095 0.04900
C 	C 	0.43727 0.85789 0.36686 -0.08600
C 	C 	0.44615 0.86621 0.43214 0.10100
C 	C 	0.42028 0.87728 0.47828 -0.04800
C 	C 	0.38561 0.87455 0.46135 -0.05400
C 	C 	0.37657 0.86371 0.39734 0.07000
H 	H 	0.45725 0.85153 0.33026 0.05500
N 	N 	0.47920 0.86234 0.45081 -0.19800
H 	H 	0.36564 0.88173 0.49738 0.05300
N 	N 	0.34287 0.85977 0.38285 -0.19400
H 	H 	0.49847 0.85593 0.41577 0.08500
H 	H 	0.48564 0.86345 0.50064 0.09300
H 	H 	0.32367 0.86554 0.41846 0.08200
H 	H 	0.33543 0.84996 0.33699 0.08800
H 	H 	0.37216 0.93113 0.23548 0.08300
H 	H 	0.38709 0.91724 0.31331 0.08900
H 	H 	0.40847 0.78068 0.10037 0.09800
H 	H 	0.41234 0.76379 0.18119 0.08700
C 	C 	0.29926 0.91134 0.82602 0.11400
C 	C 	0.32896 0.93053 0.81287 -0.09200
C 	C 	0.35898 0.91340 0.79104 0.01900
C 	C 	0.35845 0.87919 0.77461 0.11600
C 	C 	0.32830 0.86038 0.78467 -0.08700
C 	C 	0.29972 0.87655 0.81528 0.01500
O 	O 	0.26662 0.92559 0.82371 -0.19500
C 	C 	0.24775 0.89649 0.80769 0.05900
C 	C 	0.26714 0.86713 0.80470 -0.06300
O 	O 	0.38303 0.86948 0.72674 -0.20600
C 	C 	0.39791 0.90109 0.71504 0.09800
C 	C 	0.38387 0.92736 0.75317 -0.09000
H 	H 	0.32782 0.95803 0.81385 0.06100
H 	H 	0.32589 0.83530 0.76218 0.06400
H 	H 	0.26006 0.84432 0.77718 0.07000
H 	H 	0.38436 0.95377 0.73923 0.05400
C 	C 	0.29618 0.75265 0.92773 0.11200
C 	C 	0.26166 0.74340 0.93693 -0.08600
C 	C 	0.24033 0.74312 0.88188 0.00900
C 	C 	0.25161 0.75602 0.82218 0.11700
C 	C 	0.28610 0.76551 0.81314 -0.09300
C 	C 	0.30852 0.76128 0.86566 0.02100
O 	O 	0.31533 0.76593 0.97948 -0.20500
C 	C 	0.33999 0.78368 0.94271 0.10000
C 	C 	0.33649 0.78046 0.87518 -0.09000
O 	O 	0.22569 0.77052 0.78608 -0.19000
C 	C 	0.19795 0.76594 0.83024 0.05200
C 	C 	0.20637 0.74881 0.88643 -0.06100
H 	H 	0.25101 0.73988 0.98635 0.06500
H 	H 	0.29436 0.77873 0.76910 0.06500
H 	H 	0.34768 0.79739 0.83921 0.06400
H 	H 	0.19197 0.75078 0.93302 0.05900
C 	C 	0.12698 0.40496 0.71866 -0.05100
C 	C 	0.11224 0.39644 0.65716 0.10200
C 	C 	0.13097 0.40231 0.59823 -0.08500
C 	C 	0.16471 0.41469 0.59990 -0.00500
C 	C 	0.18068 0.41969 0.66149 0.06900
C 	C 	0.16144 0.41524 0.72041 -0.05300
N 	N 	0.08052 0.38209 0.65447 -0.19900
H 	H 	0.11914 0.39753 0.55095 0.05500
C 	C 	0.18194 0.42502 0.53729 -0.00600
N 	N 	0.21436 0.42866 0.66436 -0.19400
H 	H 	0.17305 0.42070 0.76767 0.04800
C 	C 	0.18338 0.45958 0.52231 -0.08600
C 	C 	0.19707 0.47002 0.46118 0.10100
C 	C 	0.20567 0.44529 0.41149 -0.04800
C 	C 	0.20614 0.41081 0.42783 -0.05400
C 	C 	0.19550 0.40058 0.49127 0.07000
H 	H 	0.17451 0.47841 0.55886 0.05500
N 	N 	0.20343 0.50351 0.45162 -0.19800
H 	H 	0.21408 0.39183 0.39081 0.05400
N 	N 	0.19921 0.36758 0.50817 -0.19500
H 	H 	0.19500 0.52181 0.48666 0.08500
H 	H 	0.21906 0.51139 0.41215 0.09100
H 	H 	0.21096 0.35013 0.47507 0.08500
H 	H 	0.19182 0.35922 0.55506 0.08800
H 	H 	0.22567 0.43328 0.71002 0.08400
H 	H 	0.22989 0.43008 0.62162 0.08800
H 	H 	0.06748 0.37422 0.69723 0.09300
H 	H 	0.06921 0.37721 0.60889 0.08700
C 	C 	0.16172 0.89407 0.06080 -0.09800
C 	C 	0.13529 0.91101 0.09656 0.01300
C 	C 	0.14086 0.94342 0.12388 -0.06900
C 	C 	0.17331 0.95929 0.11591 0.00900
C 	C 	0.20064 0.94072 0.08448 0.00100
C 	C 	0.19515 0.90727 0.06211 -0.00400
C 	C 	0.23156 0.95717 0.06772 -0.03700
C 	C 	0.23397 0.99245 0.07332 -0.04800
C 	C 	0.20655 0.01142 0.10097 0.00500
C 	C 	0.17782 0.99459 0.12933 -0.00300
C 	C 	0.15384 0.01378 0.16788 -0.05600
C 	C 	0.15436 0.04915 0.16576 0.00900
C 	C 	0.17940 0.06574 0.12724 -0.09700
C 	C 	0.20675 0.04704 0.09845 -0.03000
H 	H 	0.10967 0.90030 0.09882 -0.03900
H 	H 	0.11915 0.95696 0.14590 0.03700
H 	H 	0.21610 0.89312 0.03811 0.04700
H 	H 	0.25283 0.94288 0.04535 0.04100
H 	H 	0.25693 0.00505 0.05495 0.03700
H 	H 	0.13562 0.00163 0.20094 0.04100
H 	H 	0.13471 0.06361 0.19243 0.03800
H 	H 	0.22735 0.06001 0.07216 0.02900
C 	C 	0.15665 0.30801 0.09236 0.12100
C 	C 	0.16562 0.32928 0.04007 -0.09500
C 	C 	0.14174 0.35358 0.02127 0.02300
C 	C 	0.10826 0.35327 0.04547 0.10900
C 	C 	0.09829 0.32982 0.09351 -0.08500
C 	C 	0.12368 0.30889 0.11942 0.00400
O 	O 	0.17348 0.27743 0.10065 -0.17300
C 	C 	0.14707 0.25923 0.13153 0.04800
C 	C 	0.11751 0.27798 0.14404 -0.05900
O 	O 	0.08480 0.36737 0.00316 -0.20600
C 	C 	0.10738 0.37511 0.95081 0.09600
C 	C 	0.14122 0.36728 0.96122 -0.09500
H 	H 	0.18874 0.32445 0.01041 0.07000
H 	H 	0.07138 0.32624 0.10651 0.05700
H 	H 	0.09208 0.26706 0.14989 0.04900
H 	H 	0.16090 0.36388 0.92270 0.06000
C 	C 	0.24129 0.10945 0.31068 -0.11700
C 	C 	0.27017 0.09601 0.34038 -0.00600
C 	C 	0.26807 0.06487 0.37183 -0.06400
C 	C 	0.23607 0.04818 0.37859 -0.01000
C 	C 	0.20828 0.05954 0.34101 0.00400
C 	C 	0.21104 0.09028 0.30736 -0.03100
C 	C 	0.17779 0.04072 0.33930 -0.05000
C 	C 	0.17319 0.01282 0.37973 -0.03300
C 	C 	0.19854 0.00396 0.42426 -0.02200
C 	C 	0.23061 0.02119 0.42348 0.01300
C 	C 	0.25483 0.01335 0.47180 -0.07200
C 	C 	0.24726 0.98916 0.51924 0.02300
C 	C 	0.21507 0.97336 0.52171 -0.13000
C 	C 	0.19120 0.97987 0.47289 0.00400
H 	H 	0.29428 0.10976 0.33928 0.02000
H 	H 	0.29146 0.05340 0.38819 0.03800
H 	H 	0.18926 0.09996 0.28120 0.04300
H 	H 	0.15727 0.04817 0.30768 0.04500
H 	H 	0.14913 0.99899 0.37861 0.01900
H 	H 	0.27857 0.02725 0.47583 0.03900
H 	H 	0.26590 0.98403 0.55662 0.03000
H 	H 	0.16608 0.96805 0.47538 -0.07400
C 	C 	0.27320 0.32182 0.10631 0.11400
C 	C 	0.25655 0.35218 0.09148 -0.08900
C 	C 	0.26778 0.38258 0.12136 0.01800
C 	C 	0.29219 0.38245 0.16967 0.11500
C 	C 	0.30891 0.35214 0.18446 -0.08800
C 	C 	0.30030 0.32232 0.14909 0.01100
O 	O 	0.25642 0.29067 0.10224 -0.18000
C 	C 	0.27517 0.27281 0.14806 0.05500
C 	C 	0.30190 0.29122 0.17462 -0.06300
O 	O 	0.28845 0.40879 0.21631 -0.20500
C 	C 	0.25918 0.42432 0.19233 0.09900
C 	C 	0.24703 0.40919 0.13538 -0.08600
H 	H 	0.23364 0.35173 0.06256 0.06600
H 	H 	0.32532 0.35113 0.22683 0.06600
H 	H 	0.31327 0.28597 0.22170 0.06000
H 	H 	0.22057 0.41074 0.12023 0.06000
C 	C 	0.48857 0.96325 0.59556 -0.05200
C 	C 	0.51934 0.95889 0.63035 0.10100
C 	C 	0.54531 0.98358 0.62586 -0.08900
C 	C 	0.54223 0.01098 0.58336 -0.00400
C 	C 	0.51149 0.01526 0.54836 0.07000
C 	C 	0.48466 0.99176 0.55625 -0.05400
N 	N 	0.52470 0.93056 0.66588 -0.20000
H 	H 	0.56873 0.98053 0.65301 0.05700
C 	C 	0.57256 0.03291 0.57066 -0.00600
N 	N 	0.50779 0.04140 0.50620 -0.19400
H 	H 	0.46102 0.99510 0.52993 0.04700
C 	C 	0.59848 0.02132 0.52625 -0.08400
C 	C 	0.62332 0.04388 0.50152 0.10200
C 	C 	0.62042 0.07893 0.51761 -0.04800
C 	C 	0.59707 0.08971 0.56795 -0.05200
C 	C 	0.57385 0.06658 0.59640 0.07400
H 	H 	0.59888 0.99490 0.50984 0.05300
N 	N 	0.65033 0.03173 0.46410 -0.19900
H 	H 	0.59625 0.11624 0.58354 0.05600
N 	N 	0.55269 0.07686 0.64756 -0.19300
H 	H 	0.65162 0.00603 0.45018 0.08400
H 	H 	0.67120 0.04725 0.45192 0.09400
H 	H 	0.55322 0.10199 0.66531 0.08800
H 	H 	0.53654 0.05972 0.67181 0.08800
H 	H 	0.48485 0.04450 0.48130 0.08200
H 	H 	0.52764 0.05856 0.49681 0.08900
H 	H 	0.50794 0.90991 0.66381 0.09100
H 	H 	0.54666 0.92840 0.69415 0.08400
C 	C 	0.55459 0.98907 0.83578 -0.05300
C 	C 	0.55701 0.95942 0.87356 0.09900
C 	C 	0.52821 0.93831 0.88096 -0.08700
C 	C 	0.49765 0.94542 0.84876 -0.00500
C 	C 	0.49620 0.97359 0.80652 0.07200
C 	C 	0.52480 0.99513 0.80044 -0.05400
N 	N 	0.58700 0.95083 0.90192 -0.19900
H 	H 	0.52952 0.91633 0.91214 0.05500
C 	C 	0.46676 0.92457 0.86359 -0.00400
N 	N 	0.46754 0.98013 0.77197 -0.19400
H 	H 	0.52340 0.01735 0.76991 0.04700
C 	C 	0.44065 0.93833 0.90523 -0.08600
C 	C 	0.41480 0.91743 0.93172 0.10200
C 	C 	0.41645 0.88196 0.91957 -0.04900
C 	C 	0.44019 0.86879 0.87236 -0.04900
C 	C 	0.46535 0.88984 0.84387 0.07400
H 	H 	0.44084 0.96523 0.91803 0.05400
N 	N 	0.38814 0.93154 0.96741 -0.19900
H 	H 	0.44021 0.84182 0.86025 0.05300
N 	N 	0.48832 0.87651 0.79855 -0.19400
H 	H 	0.38768 0.95763 0.97817 0.08300
H 	H 	0.36684 0.91708 0.98174 0.09200
H 	H 	0.48707 0.85088 0.78424 0.08700
H 	H 	0.50738 0.89145 0.77670 0.08700
H 	H 	0.46683 0.00082 0.74057 0.08600
H 	H 	0.44597 0.96454 0.77505 0.09300
H 	H 	0.60968 0.96419 0.89223 0.08800
H 	H 	0.58822 0.92962 0.93190 0.08400
C 	C 	0.62197 0.06976 0.96703 -0.05300
C 	C 	0.62037 0.10511 0.98194 0.09800
C 	C 	0.62995 0.11722 0.04478 -0.08400
C 	C 	0.63949 0.09467 0.09375 -0.00600
C 	C 	0.64201 0.05948 0.07826 0.07200
C 	C 	0.63282 0.04737 0.01528 -0.05200
N 	N 	0.60832 0.12732 0.93747 -0.19900
H 	H 	0.62834 0.14419 0.05667 0.05400
C 	C 	0.64239 0.10761 0.16295 -0.00500
N 	N 	0.65338 0.03724 0.12335 -0.19400
H 	H 	0.63460 0.02040 0.00344 0.04700
C 	C 	0.61241 0.11148 0.20233 -0.08600
C 	C 	0.61419 0.12102 0.26951 0.10100
C 	C 	0.64669 0.12485 0.29860 -0.05100
C 	C 	0.67663 0.12291 0.25843 -0.05400
C 	C 	0.67476 0.11486 0.19042 0.06900
H 	H 	0.58759 0.10705 0.18061 0.05500
N 	N 	0.58470 0.12717 0.30537 -0.19900
H 	H 	0.70148 0.12676 0.28040 0.04900
N 	N 	0.70403 0.11370 0.15216 -0.19400
H 	H 	0.56080 0.12284 0.28438 0.08400
H 	H 	0.58516 0.13787 0.35309 0.09300
H 	H 	0.72794 0.11782 0.17325 0.08400
H 	H 	0.70330 0.10957 0.10103 0.09300
H 	H 	0.65516 0.01132 0.11138 0.08600
H 	H 	0.66116 0.04541 0.17008 0.09100
H 	H 	0.59723 0.11897 0.89358 0.09700
H 	H 	0.60855 0.15344 0.94800 0.08500
C 	C 	0.01090 0.28302 0.55226 -0.09900
C 	C 	0.03071 0.26111 0.58947 0.00500
C 	C 	0.06654 0.26287 0.58578 -0.05700
C 	C 	0.08288 0.28567 0.54209 -0.00300
C 	C 	0.06282 0.31151 0.51435 0.00100
C 	C 	0.02684 0.30980 0.51905 -0.02900
C 	C 	0.07881 0.33713 0.47787 -0.05000
C 	C 	0.11348 0.33447 0.45985 -0.03900
C 	C 	0.13211 0.30539 0.47539 -0.00300
C 	C 	0.11784 0.28166 0.52026 0.01100
C 	C 	0.13718 0.25233 0.53424 -0.07300
C 	C 	0.16734 0.24479 0.49785 0.02900
C 	C 	0.17839 0.26592 0.44675 -0.10800
C 	C 	0.16268 0.29758 0.44008 -0.00200
H 	H 	0.01842 0.24173 0.61902 0.03700
H 	H 	0.08112 0.24722 0.61800 0.03800
H 	H 	0.01134 0.32800 0.49353 0.02800
H 	H 	0.06400 0.35839 0.46087 0.03400
H 	H 	0.12518 0.35382 0.42936 0.03900
H 	H 	0.12838 0.23441 0.57042 0.03500
H 	H 	0.18061 0.22116 0.50615 -0.05800
H 	H 	0.17227 0.31466 0.40248 0.03900
C 	C 	0.08713 0.99751 0.61938 -0.08200
C 	C 	0.05243 0.99517 0.60284 -0.00100
C 	C 	0.03369 0.02436 0.58943 -0.05800
C 	C 	0.05018 0.05630 0.58717 0.00400
C 	C 	0.08437 0.05898 0.60935 0.00200
C 	C 	0.10269 0.02952 0.62487 -0.02200
C 	C 	0.09985 0.09098 0.61612 -0.04500
C 	C 	0.08204 0.12032 0.60043 -0.04500
C 	C 	0.04882 0.11819 0.57546 0.00900
C 	C 	0.03301 0.08606 0.56610 0.00100
C 	C 	0.00095 0.08451 0.53470 -0.04500
C 	C 	0.98317 0.11437 0.52137 -0.00000
C 	C 	0.99781 0.14613 0.53529 -0.07300
C 	C 	0.03097 0.14799 0.56071 -0.01500
H 	H 	0.03985 0.97064 0.60072 0.02800
H 	H 	0.00629 0.02205 0.58358 0.03300
H 	H 	0.12931 0.03143 0.63909 0.03100
H 	H 	0.12570 0.09320 0.63435 0.02200
H 	H 	0.09418 0.14485 0.60765 0.02800
H 	H 	0.99045 0.06059 0.51761 0.02800
H 	H 	0.95836 0.11277 0.49844 0.03600
H 	H 	0.04263 0.17261 0.57012 0.03900
C 	C 	0.76385 0.26211 0.53940 0.11700
C 	C 	0.73888 0.25520 0.49215 -0.09200
C 	C 	0.71160 0.23358 0.50921 0.02000
C 	C 	0.71100 0.21636 0.56797 0.11200
C 	C 	0.73715 0.22166 0.61352 -0.08700
C 	C 	0.76258 0.24586 0.59927 0.01000
O 	O 	0.79646 0.27325 0.52101 -0.19000
C 	C 	0.81495 0.26061 0.57333 0.05300
C 	C 	0.79504 0.24443 0.62045 -0.06400
O 	O 	0.69230 0.18632 0.56566 -0.20900
C 	C 	0.68284 0.18656 0.49954 0.10000
C 	C 	0.69404 0.21460 0.46551 -0.08900
H 	H 	0.74220 0.26410 0.44208 0.06700
H 	H 	0.73862 0.20618 0.65690 0.06100
H 	H 	0.80448 0.22537 0.65329 0.06200
H 	H 	0.69745 0.21556 0.41220 0.06200
C 	C 	0.95006 0.05717 0.81855 -0.09000
C 	C 	0.97404 0.06555 0.86686 0.00300
C 	C 	0.00427 0.04682 0.87157 -0.05700
C 	C 	0.01143 0.01926 0.82719 0.00700
C 	C 	0.98638 0.00982 0.78045 -0.00000
C 	C 	0.95608 0.02893 0.77614 -0.01700
C 	C 	0.99180 0.98140 0.73842 -0.04300
C 	C 	0.02108 0.96147 0.74372 -0.04000
C 	C 	0.04592 0.96988 0.79004 0.01100
C 	C 	0.04245 0.99996 0.82954 -0.00100
C 	C 	0.06986 0.00952 0.87056 -0.05800
C 	C 	0.09625 0.98650 0.88184 -0.00600
C 	C 	0.09666 0.95447 0.85009 -0.09000
C 	C 	0.07344 0.94761 0.79980 -0.02100
H 	H 	0.96962 0.08709 0.90031 0.01300
H 	H 	0.02177 0.05407 0.90967 0.04100
H 	H 	0.93738 0.02194 0.73942 0.03600
H 	H 	0.97284 0.97427 0.70231 0.03100
H 	H 	0.02425 0.93911 0.71221 0.03900
H 	H 	0.07152 0.03470 0.89241 0.01600
H 	H 	0.11551 0.99294 0.91779 0.00800
H 	H 	0.07479 0.92350 0.77279 0.04700
C 	C 	0.10353 0.16164 0.87497 -0.13400
C 	C 	0.09602 0.19021 0.83770 0.02400
C 	C 	0.07280 0.18764 0.78635 -0.07500
C 	C 	0.05622 0.15649 0.77337 0.01300
C 	C 	0.06987 0.12670 0.80037 -0.02000
C 	C 	0.09309 0.12942 0.85230 0.00100
C 	C 	0.05830 0.09486 0.77843 -0.03500
C 	C 	0.02976 0.09246 0.73840 -0.04500
C 	C 	0.01159 0.12176 0.72230 0.00500
C 	C 	0.02516 0.15432 0.73791 -0.01100
C 	C 	0.00531 0.18343 0.72514 -0.06600
C 	C 	0.97245 0.17998 0.69973 -0.02000
C 	C 	0.95884 0.14774 0.68632 -0.11300
C 	C 	0.97903 0.11881 0.69468 -0.02300
H 	H 	0.10649 0.21482 0.85131 0.02700
H 	H 	0.06839 0.20955 0.75646 0.04200
H 	H 	0.10043 0.10696 0.87860 -0.06400
H 	H 	0.07105 0.07194 0.79326 0.02700
H 	H 	0.02088 0.06768 0.72212 0.04700
H 	H 	0.01403 0.20860 0.73875 0.03300
H 	H 	0.95692 0.20243 0.69321 0.01200
H 	H 	0.96850 0.09385 0.68375 0.03800
C 	C 	0.66934 0.09241 0.66179 0.11700
C 	C 	0.69297 0.11794 0.64599 -0.08400
C 	C 	0.72229 0.10907 0.60742 0.01900
C 	C 	0.73058 0.07547 0.59409 0.11100
C 	C 	0.70761 0.04968 0.61273 -0.09400
C 	C 	0.67586 0.05917 0.64224 0.01700
O 	O 	0.64628 0.09584 0.71518 -0.20900
C 	C 	0.63966 0.06155 0.72578 0.09700
C 	C 	0.65709 0.03952 0.68287 -0.08900
O 	O 	0.76572 0.06955 0.58684 -0.19800
C 	C 	0.77779 0.10251 0.59885 0.04800
C 	C 	0.75203 0.12621 0.60968 -0.05700
H 	H 	0.69019 0.14316 0.66806 0.07500
H 	H 	0.71532 0.02326 0.60914 0.05700
H 	H 	0.66303 0.01334 0.69350 0.05100
H 	H 	0.75527 0.14969 0.63767 0.06100
C 	C 	0.03256 0.62372 0.16159 -0.04900
C 	C 	0.06637 0.63419 0.14397 0.10300
C 	C 	0.09354 0.61083 0.14668 -0.08700
C 	C 	0.08818 0.57847 0.17261 -0.00500
C 	C 	0.05454 0.56833 0.19200 0.07000
C 	C 	0.02696 0.59068 0.18405 -0.05300
N 	N 	0.07322 0.66688 0.12764 -0.19900
H 	H 	0.11934 0.61856 0.13218 0.05500
C 	C 	0.11841 0.55687 0.18531 -0.00500
N 	N 	0.04860 0.53753 0.21927 -0.19400
H 	H 	0.00108 0.58265 0.19730 0.05000
C 	C 	0.13945 0.56560 0.23830 -0.08600
C 	C 	0.16654 0.54432 0.25539 0.10200
C 	C 	0.17067 0.51236 0.22265 -0.05000
C 	C 	0.15111 0.50457 0.16695 -0.05300
C 	C 	0.12559 0.52707 0.14674 0.07000
H 	H 	0.13488 0.58916 0.26598 0.05400
N 	N 	0.18920 0.55517 0.30136 -0.19900
H 	H 	0.15515 0.48064 0.14024 0.05100
N 	N 	0.10787 0.51975 0.09107 -0.19400
H 	H 	0.18486 0.57784 0.32821 0.08400
H 	H 	0.21239 0.54246 0.30758 0.09100
H 	H 	0.11257 0.49717 0.06412 0.08500
H 	H 	0.09003 0.53675 0.07297 0.08800
H 	H 	0.02359 0.53009 0.23216 0.08400
H 	H 	0.06862 0.52098 0.22938 0.09000
H 	H 	0.05499 0.68610 0.13505 0.09900
H 	H 	0.09785 0.67382 0.11119 0.08800
C 	C 	0.91492 0.58875 0.79372 -0.04900
C 	C 	0.95017 0.58780 0.77480 0.10400
C 	C 	0.96995 0.55944 0.79003 -0.08600
C 	C 	0.95581 0.53323 0.82772 -0.00400
C 	C 	0.92147 0.53578 0.85226 0.06900
C 	C 	0.90113 0.56336 0.83402 -0.05200
N 	N 	0.96533 0.61437 0.74364 -0.19900
H 	H 	0.99659 0.55793 0.77319 0.05600
C 	C 	0.97739 0.50329 0.84070 -0.00700
N 	N 	0.90780 0.51174 0.89240 -0.19400
H 	H 	0.87434 0.56464 0.85002 0.05000
C 	C 	0.00262 0.50629 0.88869 -0.08500
C 	C 	0.02958 0.48268 0.89045 0.10100
C 	C 	0.02973 0.45415 0.84625 -0.04900
C 	C 	0.00277 0.44962 0.80228 -0.05100
C 	C 	0.97675 0.47410 0.79848 0.06900
H 	H 	0.00266 0.52842 0.92167 0.05600
N 	N 	0.05583 0.48839 0.93249 -0.19900
H 	H 	0.00261 0.42746 0.76940 0.04800
N 	N 	0.95155 0.46966 0.75370 -0.19400
H 	H 	0.05475 0.50883 0.96643 0.08400
H 	H 	0.07811 0.47366 0.93028 0.09400
H 	H 	0.95166 0.44833 0.72192 0.08300
H 	H 	0.93137 0.48694 0.75055 0.08900
H 	H 	0.88224 0.51354 0.90929 0.08300
H 	H 	0.92244 0.49137 0.90800 0.08700
H 	H 	0.95257 0.63749 0.73909 0.09600
H 	H 	0.99090 0.61273 0.72678 0.08600
C 	C 	0.88025 0.65256 0.60432 -0.04900
C 	C 	0.85296 0.66150 0.56296 0.09900
C 	C 	0.86023 0.66922 0.49643 -0.08700
C 	C 	0.89359 0.66529 0.46930 -0.00500
C 	C 	0.92073 0.65585 0.51041 0.07100
C 	C 	0.91387 0.65036 0.57773 -0.05300
N 	N 	0.81977 0.66134 0.58574 -0.19900
H 	H 	0.83955 0.67655 0.46482 0.05400
C 	C 	0.89968 0.66985 0.39731 -0.00600
N 	N 	0.95335 0.65178 0.48554 -0.19400
H 	H 	0.93480 0.64391 0.60952 0.04900
C 	C 	0.91377 0.70055 0.37555 -0.08600
C 	C 	0.92944 0.70253 0.31230 0.09900
C 	C 	0.92985 0.67347 0.26957 -0.05100
C 	C 	0.91186 0.64425 0.28841 -0.05300
C 	C 	0.89690 0.64204 0.35211 0.07100
H 	H 	0.91470 0.72223 0.40953 0.05400
N 	N 	0.94481 0.73199 0.29380 -0.20000
H 	H 	0.91115 0.62244 0.25467 0.04800
N 	N 	0.88072 0.61291 0.37006 -0.19400
H 	H 	0.94508 0.75300 0.32635 0.08500
H 	H 	0.95612 0.73456 0.24683 0.09500
H 	H 	0.87965 0.59217 0.33697 0.08400
H 	H 	0.86845 0.61078 0.41630 0.08800
H 	H 	0.97320 0.64502 0.51648 0.08400
H 	H 	0.95938 0.65491 0.43545 0.09000
H 	H 	0.81295 0.65149 0.63172 0.09200
H 	H 	0.80005 0.66945 0.55574 0.08400
C 	C 	0.88987 0.98622 0.02331 -0.07500
C 	C 	0.88968 0.01899 0.05203 0.00500
C 	C 	0.92019 0.03736 0.05786 -0.05000
C 	C 	0.95165 0.02344 0.03358 0.01000
C 	C 	0.95208 0.98947 0.00834 0.02300
C 	C 	0.92109 0.97139 0.00205 -0.01800
C 	C 	0.98354 0.97269 0.99687 -0.04700
C 	C 	0.01441 0.98893 0.01092 -0.03000
C 	C 	0.01463 0.02297 0.03290 0.00600
C 	C 	0.98336 0.04118 0.04055 0.00800
C 	C 	0.98457 0.07677 0.05131 -0.05900
C 	C 	0.01608 0.09328 0.05937 0.00000
C 	C 	0.04698 0.07491 0.05500 -0.08400
C 	C 	0.04603 0.03958 0.04333 -0.02400
H 	H 	0.86576 0.03022 0.07040 0.03300
H 	H 	0.91942 0.06130 0.08510 0.04200
H 	H 	0.92134 0.94575 0.98115 0.04400
H 	H 	0.98395 0.94599 0.98302 0.02800
H 	H 	0.03832 0.97503 0.00410 0.01000
H 	H 	0.96162 0.09208 0.04918 0.03300
H 	H 	0.01646 0.12062 0.06652 0.02800
H 	H 	0.06979 0.02520 0.03958 0.03300
C 	C 	0.75105 0.99890 0.04727 -0.10000
C 	C 	0.77312 0.01569 0.09102 0.01000
C 	C 	0.77808 0.05071 0.08664 -0.05700
C 	C 	0.76191 0.06866 0.03652 -0.00500
C 	C 	0.73376 0.05317 0.00469 0.00000
C 	C 	0.72835 0.01813 0.01060 -0.02700
C 	C 	0.71480 0.07167 0.95993 -0.05300
C 	C 	0.72669 0.10309 0.93899 -0.04000
C 	C 	0.75948 0.11425 0.95655 -0.00500
C 	C 	0.77643 0.09864 0.00941 0.00400
C 	C 	0.81072 0.10837 0.02197 -0.05900
C 	C 	0.82973 0.12577 0.97393 0.00200
C 	C 	0.81435 0.13441 0.91491 -0.10400
C 	C 	0.77848 0.13456 0.91279 -0.00600
H 	H 	0.78852 0.00133 0.12438 0.03800
H 	H 	0.79460 0.06348 0.12141 0.03900
H 	H 	0.70913 0.00537 0.98110 0.02600
H 	H 	0.69274 0.06036 0.93663 0.04300
H 	H 	0.71263 0.11634 0.90187 0.04200
H 	H 	0.82360 0.10015 0.06545 0.03800
H 	H 	0.85724 0.12858 0.97894 -0.00200
H 	H 	0.76624 0.14459 0.86974 0.03400
C 	C 	0.86272 0.91126 0.82397 -0.13700
C 	C 	0.88537 0.93751 0.84097 0.01500
C 	C 	0.92060 0.93353 0.82755 -0.06400
C 	C 	0.93283 0.90309 0.79679 0.00900
C 	C 	0.90899 0.88208 0.76361 0.00000
C 	C 	0.87365 0.88714 0.77578 0.00200
C 	C 	0.92064 0.85388 0.72592 -0.03900
C 	C 	0.95476 0.84341 0.72910 -0.03500
C 	C 	0.97729 0.86027 0.77184 -0.00400
C 	C 	0.96693 0.89094 0.80484 0.01500
C 	C 	0.98925 0.90622 0.85074 -0.07400
C 	C 	0.02021 0.89061 0.86559 0.02900
C 	C 	0.03025 0.86022 0.83328 -0.11900
C 	C 	0.00919 0.84564 0.78514 0.00600
H 	H 	0.87630 0.95909 0.87063 -0.03300
H 	H 	0.93785 0.95396 0.84058 0.04300
H 	H 	0.85533 0.86891 0.75652 0.02900
H 	H 	0.90285 0.83900 0.69681 0.03900
H 	H 	0.96316 0.82094 0.70117 0.04100
H 	H 	0.98312 0.93024 0.87455 0.04400
H 	H 	0.03703 0.90303 0.90026 -0.07400
H 	H 	0.01728 0.82245 0.75914 0.04200
C 	C 	0.77793 0.76086 0.94951 0.11800
C 	C 	0.78031 0.74660 0.88514 -0.09100
C 	C 	0.81133 0.73120 0.86471 0.02000
C 	C 	0.83702 0.72550 0.90822 0.11600
C 	C 	0.83420 0.73803 0.97350 -0.08900
C 	C 	0.80442 0.75630 0.99291 0.00900
O 	O 	0.75881 0.79004 0.96301 -0.19100
C 	C 	0.77796 0.80432 0.01413 0.05500
C 	C 	0.80448 0.78379 0.03375 -0.05900
O 	O 	0.85959 0.69969 0.88824 -0.20300
C 	C 	0.84460 0.69063 0.82816 0.09800
C 	C 	0.81578 0.70916 0.81374 -0.08800
H 	H 	0.75994 0.75023 0.85053 0.06600
H 	H 	0.85425 0.73346 0.00824 0.06500
H 	H 	0.82712 0.79310 0.05845 0.06300
H 	H 	0.79615 0.70120 0.77967 0.05800
C 	C 	0.04320 0.98483 0.29494 -0.09800
C 	C 	0.05168 0.00295 0.23782 0.00300
C 	C 	0.06695 0.03501 0.24287 -0.06200
C 	C 	0.07480 0.04915 0.30557 0.00100
C 	C 	0.07025 0.02884 0.36217 0.00000
C 	C 	0.05331 0.99744 0.35689 -0.02700
C 	C 	0.08390 0.03943 0.42272 -0.04700
C 	C 	0.10230 0.06969 0.42762 -0.03900
C 	C 	0.10556 0.09098 0.37320 -0.00500
C 	C 	0.08989 0.08197 0.31289 0.00700
C 	C 	0.08909 0.10620 0.26239 -0.06600
C 	C 	0.10791 0.13638 0.26823 0.02000
C 	C 	0.12723 0.14305 0.32462 -0.09800
C 	C 	0.12494 0.12090 0.37802 -0.01400
H 	H 	0.04544 0.99269 0.18940 0.02800
H 	H 	0.07369 0.04797 0.19785 0.04600
H 	H 	0.04838 0.98269 0.40081 0.02100
H 	H 	0.08159 0.02338 0.46540 0.03200
H 	H 	0.11427 0.07651 0.47382 0.03000
H 	H 	0.07346 0.10231 0.21954 0.04700
H 	H 	0.10738 0.15454 0.22892 0.02200
H 	H 	0.13881 0.12658 0.42280 -0.00900
C 	C 	0.94152 0.01263 0.21360 -0.12400
C 	C 	0.90854 0.02196 0.23641 -0.01000
C 	C 	0.90127 0.05574 0.25431 -0.06300
C 	C 	0.92732 0.08069 0.25038 -0.00500
C 	C 	0.96107 0.07065 0.23079 0.00200
C 	C 	0.96740 0.03720 0.20874 -0.01400
C 	C 	0.98849 0.09345 0.23821 -0.05000
C 	C 	0.98327 0.12475 0.27079 -0.03600
C 	C 	0.94997 0.13509 0.29008 -0.02400
C 	C 	0.92155 0.11458 0.27323 0.01600
C 	C 	0.88832 0.12856 0.27960 -0.07100
C 	C 	0.88317 0.15914 0.31473 0.02700
C 	C 	0.91098 0.17593 0.34389 -0.13300
C 	C 	0.94460 0.16521 0.32752 0.01200
H 	H 	0.88845 0.00301 0.24024 0.00800
H 	H 	0.87605 0.06187 0.27487 0.03600
H 	H 	0.99259 0.03013 0.18917 0.03700
H 	H 	0.01417 0.08619 0.22174 0.04200
H 	H 	0.00511 0.14099 0.28073 0.01900
H 	H 	0.86666 0.11626 0.25668 0.04300
H 	H 	0.85727 0.16869 0.32298 0.03000
H 	H 	0.96632 0.17886 0.34723 -0.08300
C 	C 	0.08600 0.85249 0.62097 -0.08800
C 	C 	0.08682 0.82551 0.57470 -0.00700
C 	C 	0.05843 0.81869 0.53585 -0.05800
C 	C 	0.02871 0.83930 0.54245 -0.00700
C 	C 	0.02648 0.86362 0.59545 0.00700
C 	C 	0.05480 0.86901 0.63607 -0.01600
C 	C 	0.99802 0.88546 0.60129 -0.05100
C 	C 	0.97557 0.88811 0.54909 -0.03700
C 	C 	0.98008 0.86739 0.49227 -0.01800
C 	C 	0.00382 0.84016 0.49206 0.01400
C 	C 	0.00418 0.81678 0.43804 -0.06600
C 	C 	0.98824 0.82515 0.37954 0.01700
C 	C 	0.97033 0.85591 0.37566 -0.10900
C 	C 	0.96347 0.87526 0.43371 0.00100
H 	H 	0.11041 0.81141 0.56529 0.02800
H 	H 	0.06079 0.79898 0.49807 0.03700
H 	H 	0.05374 0.88867 0.67445 0.04600
H 	H 	0.99463 0.90211 0.64428 0.03700
H 	H 	0.95559 0.90729 0.55166 0.01600
H 	H 	0.01590 0.79204 0.44142 0.04300
H 	H 	0.99081 0.80830 0.33654 0.03000
H 	H 	0.94751 0.89778 0.43210 -0.04400
C 	C 	0.93884 0.80869 0.98200 0.12000
C 	C 	0.92149 0.77831 0.99512 -0.09200
C 	C 	0.94016 0.74782 0.99311 0.02200
C 	C 	0.97539 0.74759 0.98301 0.11200
C 	C 	0.99287 0.77805 0.97087 -0.08700
C 	C 	0.97387 0.80832 0.96857 0.00400
O 	O 	0.92690 0.83934 0.00901 -0.18000
C 	C 	0.95807 0.85624 0.01646 0.03300
C 	C 	0.98595 0.83857 0.98974 -0.05700
O 	O 	0.99165 0.72051 0.01211 -0.20500
C 	C 	0.96330 0.70562 0.04359 0.09900
C 	C 	0.93248 0.72130 0.03152 -0.08200
H 	H 	0.89536 0.77906 0.01471 0.07000
H 	H 	0.02070 0.77872 0.97106 0.06100
H 	H 	0.01226 0.84279 0.00426 -0.00400
H 	H 	0.90981 0.71988 0.06362 0.06100
