data_crystal

_cell_length_a 25.24463
_cell_length_b 22.43602
_cell_length_c 49.61450
_cell_angle_alpha 90.56075
_cell_angle_beta  91.26704
_cell_angle_gamma 110.72346

_symmetry_space_group_name_	'P 1'
_symmetry_space_group_name_H-M	'P 1'

loop_
_symmetry_equiv_pos_as_xyz
  x,y,z

loop_
_atom_site_label
_atom_site_type_symbol
_atom_site_fract_x
_atom_site_fract_y
_atom_site_fract_z
_atom_site_charge
Ni	Ni	0.70219 0.31140 0.89246 1.10700
O 	O 	0.63883 0.27780 0.86318 -0.69800
Ni	Ni	0.57376 0.28435 0.88417 1.10300
O 	O 	0.75932 0.27208 0.87855 -0.34900
O 	O 	0.70508 0.20977 0.84410 -0.38600
O 	O 	0.74155 0.39082 0.86996 -0.36500
Ni	Ni	0.62182 0.18777 0.85523 1.08100
O 	O 	0.74448 0.44611 0.91933 -0.40200
O 	O 	0.63363 0.17542 0.89533 -0.41100
O 	O 	0.50935 0.23617 0.85772 -0.37400
O 	O 	0.63934 0.32872 0.91043 -0.71000
O 	O 	0.76031 0.35136 0.92260 -0.35500
O 	O 	0.51905 0.31105 0.90720 -0.34900
O 	O 	0.57581 0.41570 0.90475 -0.40200
Ni	Ni	0.65891 0.42079 0.91191 1.07000
H 	H 	0.64525 0.30353 0.84667 0.18200
H 	H 	0.63342 0.31056 0.92869 0.17000
C 	C 	0.59464 0.17557 0.91266 0.30000
O 	O 	0.67005 0.43020 0.87157 -0.40200
C 	C 	0.74898 0.22475 0.86087 0.31900
C 	C 	0.50020 0.17649 0.85089 0.30700
C 	C 	0.71699 0.42985 0.86099 0.31500
C 	C 	0.53189 0.37099 0.91488 0.29500
C 	C 	0.76991 0.41034 0.93126 0.30000
O 	O 	0.55732 0.20305 0.90665 -0.35900
O 	O 	0.53606 0.14903 0.85884 -0.38700
Ni	Ni	0.61514 0.31147 0.55045 1.10500
O 	O 	0.67602 0.32742 0.52215 -0.70100
Ni	Ni	0.73201 0.29676 0.54129 1.10400
O 	O 	0.58257 0.37678 0.53561 -0.35600
O 	O 	0.67105 0.45258 0.53543 -0.39800
O 	O 	0.55834 0.24240 0.52570 -0.36800
Ni	Ni	0.71527 0.41383 0.51012 1.07500
O 	O 	0.54394 0.18087 0.57336 -0.38300
O 	O 	0.78615 0.44799 0.53496 -0.38500
O 	O 	0.80153 0.33047 0.51703 -0.35500
O 	O 	0.66500 0.26879 0.56667 -0.70100
O 	O 	0.55590 0.28691 0.57932 -0.36500
O 	O 	0.77174 0.24661 0.56292 -0.34300
O 	O 	0.69435 0.15480 0.55816 -0.39300
Ni	Ni	0.62269 0.17768 0.56567 1.08000
H 	H 	0.66096 0.29983 0.50602 0.16200
H 	H 	0.67621 0.28421 0.58545 0.18300
C 	C 	0.78904 0.43225 0.56020 0.32200
O 	O 	0.60772 0.17466 0.52517 -0.40100
C 	C 	0.61582 0.43638 0.53250 0.29400
C 	C 	0.80447 0.36489 0.49510 0.32100
C 	C 	0.56842 0.19384 0.51478 0.31200
C 	C 	0.74475 0.18665 0.56909 0.29900
C 	C 	0.53354 0.22691 0.58686 0.30100
O 	O 	0.76622 0.37266 0.56763 -0.37400
O 	O 	0.76027 0.37776 0.48585 -0.41300
Ni	Ni	0.00898 0.94101 0.74290 1.10400
O 	O 	0.01026 0.87323 0.71534 -0.70900
Ni	Ni	0.05615 0.92814 0.68662 1.10200
O 	O 	0.96215 0.87199 0.76843 -0.33000
O 	O 	0.89525 0.82985 0.73494 -0.38400
O 	O 	0.08282 0.93488 0.75863 -0.37300
Ni	Ni	0.93624 0.82420 0.69959 1.08300
O 	O 	0.04854 0.10098 0.74378 -0.37100
O 	O 	0.92031 0.90249 0.68661 -0.38300
O 	O 	0.06191 0.85562 0.66317 -0.35100
O 	O 	0.04198 0.99457 0.71118 -0.68600
O 	O 	0.01397 0.01176 0.77037 -0.36200
O 	O 	0.11892 0.99434 0.66566 -0.35000
O 	O 	0.16397 0.04126 0.70502 -0.38900
Ni	Ni	0.10428 0.06982 0.72420 1.08700
H 	H 	0.02925 0.84477 0.72258 0.17800
H 	H 	0.01267 0.00944 0.70330 0.15200
C 	C 	0.94601 0.93506 0.66589 0.30400
O 	O 	0.12625 0.04266 0.76055 -0.38000
C 	C 	0.91710 0.82538 0.75886 0.29800
C 	C 	0.01540 0.80475 0.65930 0.27600
C 	C 	0.12711 0.98563 0.76506 0.32700
C 	C 	0.16339 0.03535 0.67855 0.27600
C 	C 	0.01560 0.06917 0.76334 0.29200
O 	O 	0.99639 0.93580 0.65921 -0.34800
O 	O 	0.96487 0.80883 0.66284 -0.36800
Ni	Ni	0.26168 0.67435 0.38260 1.10300
O 	O 	0.33030 0.70209 0.35803 -0.69700
Ni	Ni	0.39324 0.72044 0.38627 1.10100
O 	O 	0.20391 0.68039 0.35433 -0.35700
O 	O 	0.25653 0.75600 0.32583 -0.37700
O 	O 	0.23975 0.58049 0.36983 -0.36300
Ni	Ni	0.34000 0.78364 0.34060 1.07700
O 	O 	0.22690 0.56467 0.42414 -0.38900
O 	O 	0.32334 0.82123 0.37577 -0.40300
O 	O 	0.45959 0.75462 0.36107 -0.36100
O 	O 	0.32406 0.68743 0.40995 -0.70900
O 	O 	0.19840 0.64576 0.40942 -0.36300
O 	O 	0.44821 0.72419 0.41796 -0.35900
O 	O 	0.40003 0.62113 0.42874 -0.38700
Ni	Ni	0.31382 0.60379 0.42479 1.08000
H 	H 	0.33072 0.66866 0.34495 0.17300
H 	H 	0.32325 0.71805 0.42427 0.17400
C 	C 	0.36029 0.83561 0.39618 0.30200
O 	O 	0.31704 0.56475 0.38812 -0.39600
C 	C 	0.21079 0.73150 0.34018 0.31000
C 	C 	0.46346 0.80275 0.34535 0.30700
C 	C 	0.27231 0.54608 0.37202 0.30900
C 	C 	0.43750 0.67742 0.43515 0.30400
C 	C 	0.19120 0.59601 0.42477 0.31000
O 	O 	0.40172 0.81256 0.39698 -0.36700
O 	O 	0.42519 0.83022 0.34652 -0.39800
Ni	Ni	0.34539 0.70645 0.06116 1.10400
O 	O 	0.27564 0.70065 0.03802 -0.70000
Ni	Ni	0.22603 0.71802 0.06564 1.10300
O 	O 	0.37221 0.65146 0.03537 -0.35900
O 	O 	0.28408 0.57466 0.03419 -0.39700
O 	O 	0.39325 0.78594 0.04055 -0.37200
Ni	Ni	0.23337 0.62210 0.01845 1.07700
O 	O 	0.42381 0.82695 0.09228 -0.38600
O 	O 	0.16909 0.57418 0.04352 -0.38100
O 	O 	0.14943 0.69373 0.04458 -0.36500
O 	O 	0.30097 0.73703 0.08697 -0.70100
O 	O 	0.41454 0.72147 0.08587 -0.36300
O 	O 	0.19380 0.75439 0.09679 -0.35600
O 	O 	0.26868 0.84864 0.09553 -0.38100
Ni	Ni	0.34245 0.82732 0.09336 1.08300
H 	H 	0.28541 0.73572 0.02498 0.16300
H 	H 	0.29611 0.71324 0.10399 0.17800
C 	C 	0.17253 0.57594 0.06996 0.31600
O 	O 	0.34468 0.84931 0.05364 -0.39900
C 	C 	0.33824 0.59332 0.02868 0.29300
C 	C 	0.14007 0.67147 0.01932 0.32400
C 	C 	0.38110 0.83800 0.03783 0.31500
C 	C 	0.22249 0.81145 0.10718 0.29600
C 	C 	0.44123 0.77848 0.09712 0.30300
O 	O 	0.20017 0.62976 0.08316 -0.38200
O 	O 	0.18163 0.66701 0.00463 -0.41100
Ni	Ni	0.96610 0.03209 0.25566 1.09800
O 	O 	0.95918 0.10841 0.23612 -0.70200
Ni	Ni	0.92897 0.07159 0.19948 1.10000
O 	O 	0.00778 0.08620 0.28863 -0.35800
O 	O 	0.07496 0.14663 0.26092 -0.40300
O 	O 	0.88969 0.01535 0.27448 -0.35300
Ni	Ni	0.03035 0.18098 0.23346 1.08300
O 	O 	0.88367 0.89384 0.26136 -0.39200
O 	O 	0.07033 0.15186 0.20309 -0.35400
O 	O 	0.93029 0.15386 0.18060 -0.34800
O 	O 	0.93723 0.99361 0.21881 -0.68000
O 	O 	0.97456 0.95460 0.27310 -0.36000
O 	O 	0.87803 0.02053 0.16783 -0.35100
O 	O 	0.84285 0.91918 0.18342 -0.37100
Ni	Ni	0.86836 0.91962 0.22345 1.08500
H 	H 	0.93087 0.12281 0.24493 0.18000
H 	H 	0.96613 0.97960 0.21039 0.17700
C 	C 	0.04947 0.09554 0.19128 0.27100
O 	O 	0.83095 0.98000 0.23709 -0.39200
C 	C 	0.05622 0.13267 0.28529 0.29800
C 	C 	0.97377 0.20817 0.18492 0.29900
C 	C 	0.83925 0.00089 0.26227 0.26800
C 	C 	0.83468 0.96720 0.17133 0.31600
C 	C 	0.93468 0.89856 0.27002 0.30900
O 	O 	0.99968 0.07771 0.17923 -0.34500
O 	O 	0.99207 0.22740 0.20968 -0.36800
C 	C 	0.07346 0.34474 0.14655 -0.05600
C 	C 	0.03613 0.35935 0.12894 0.00900
C 	C 	0.97881 0.31848 0.12690 0.08400
C 	C 	0.95892 0.26594 0.14408 -0.00800
C 	C 	0.99613 0.25338 0.16278 -0.05700
C 	C 	0.05433 0.29186 0.16303 0.10600
C 	C 	0.05892 0.41536 0.11152 0.03500
N 	N 	0.94095 0.32954 0.10730 -0.01900
H 	H 	0.91437 0.23650 0.14346 0.08000
N 	N 	0.09445 0.27692 0.17983 -0.02600
H 	H 	0.11795 0.37457 0.14734 0.08400
C 	C 	0.07463 0.47742 0.12284 0.05700
C 	C 	0.11225 0.52944 0.10933 -0.00200
C 	C 	0.13522 0.52019 0.08479 -0.09000
C 	C 	0.11836 0.45806 0.07328 0.12100
C 	C 	0.07871 0.40682 0.08617 -0.07700
N 	N 	0.05468 0.48731 0.14872 -0.01600
H 	H 	0.12341 0.57701 0.11796 0.07300
N 	N 	0.14412 0.44613 0.04943 -0.02400
H 	H 	0.06718 0.35919 0.07753 0.08700
O 	O 	0.10592 0.30156 0.20405 -0.11500
O 	O 	0.12842 0.25209 0.16894 -0.06900
O 	O 	0.91153 0.28386 0.09078 -0.08000
O 	O 	0.93302 0.38375 0.10716 -0.07100
O 	O 	0.11343 0.42497 0.02760 -0.10000
O 	O 	0.19683 0.45024 0.05033 -0.09400
O 	O 	0.09030 0.52056 0.16733 -0.08200
O 	O 	0.00072 0.46528 0.15334 -0.07600
C 	C 	0.71683 0.87031 0.12418 -0.07300
C 	C 	0.67464 0.89495 0.13047 0.03100
C 	C 	0.68909 0.95184 0.14599 0.05800
C 	C 	0.74395 0.97939 0.15743 0.01300
C 	C 	0.78496 0.95183 0.15279 -0.08700
C 	C 	0.77230 0.89971 0.13449 0.13300
C 	C 	0.61492 0.85947 0.12176 0.02500
N 	N 	0.64820 0.98163 0.15016 -0.01600
H 	H 	0.75396 0.02075 0.17074 0.05600
N 	N 	0.81554 0.87574 0.12683 -0.02300
H 	H 	0.70648 0.82801 0.11142 0.09200
C 	C 	0.59928 0.85016 0.09413 0.06100
C 	C 	0.54280 0.81612 0.08633 -0.00100
C 	C 	0.50091 0.79482 0.10573 -0.07800
C 	C 	0.51671 0.80245 0.13332 0.11600
C 	C 	0.57375 0.83354 0.14118 -0.06500
N 	N 	0.64008 0.87756 0.07396 -0.01800
H 	H 	0.53084 0.81008 0.06509 0.06900
N 	N 	0.47492 0.77939 0.15343 -0.02600
H 	H 	0.58576 0.83910 0.16243 0.08500
O 	O 	0.86377 0.91458 0.11845 -0.05400
O 	O 	0.80578 0.81480 0.12708 -0.07700
O 	O 	0.63664 0.99424 0.17450 -0.07400
O 	O 	0.62390 0.99808 0.12961 -0.07600
O 	O 	0.47780 0.73599 0.16999 -0.08700
O 	O 	0.43722 0.80587 0.15680 -0.10200
O 	O 	0.64803 0.84159 0.05493 -0.08200
O 	O 	0.66572 0.93903 0.07331 -0.07400
C 	C 	0.20659 0.92126 0.16168 -0.06400
C 	C 	0.15221 0.92115 0.15534 0.02600
C 	C 	0.11737 0.87640 0.13635 0.06500
C 	C 	0.13919 0.83634 0.12213 -0.00200
C 	C 	0.19535 0.84028 0.12683 -0.07900
C 	C 	0.22810 0.88043 0.14779 0.11600
C 	C 	0.13426 0.97226 0.16630 0.04000
N 	N 	0.06046 0.87311 0.13080 -0.01600
H 	H 	0.11327 0.80428 0.10658 0.07500
N 	N 	0.28355 0.88049 0.15470 -0.02900
H 	H 	0.23269 0.95409 0.17696 0.08900
C 	C 	0.11626 0.97071 0.19308 0.07300
C 	C 	0.09353 0.01589 0.20200 -0.02500
C 	C 	0.08771 0.06175 0.18433 -0.08100
C 	C 	0.10985 0.06626 0.15828 0.13300
C 	C 	0.13323 0.02171 0.14948 -0.08700
N 	N 	0.12016 0.92286 0.21113 -0.01800
H 	H 	0.07737 0.01297 0.22221 0.03300
N 	N 	0.10873 0.11604 0.14073 -0.02300
H 	H 	0.14890 0.02430 0.12919 0.08600
O 	O 	0.29107 0.82713 0.15959 -0.11800
O 	O 	0.32602 0.93413 0.15734 -0.09900
O 	O 	0.04348 0.87652 0.10611 -0.07800
O 	O 	0.02485 0.86365 0.15026 -0.07400
O 	O 	0.15605 0.15751 0.13274 -0.07600
O 	O 	0.06095 0.11476 0.12988 -0.07000
O 	O 	0.14488 0.93938 0.23472 -0.08700
O 	O 	0.09491 0.86279 0.20495 -0.07600
C 	C 	0.60254 0.83956 0.30984 -0.06900
C 	C 	0.62687 0.90579 0.31392 0.02900
C 	C 	0.59654 0.93846 0.32745 0.07000
C 	C 	0.54257 0.90453 0.33701 -0.00300
C 	C 	0.51855 0.83805 0.33337 -0.08500
C 	C 	0.54847 0.80556 0.31933 0.12000
C 	C 	0.68387 0.94070 0.30362 0.01700
N 	N 	0.62062 0.00606 0.33173 -0.02400
H 	H 	0.51998 0.92977 0.34793 0.07300
N 	N 	0.52359 0.73834 0.31413 -0.02300
H 	H 	0.62544 0.81451 0.29902 0.08500
C 	C 	0.73221 0.93326 0.31562 0.07400
C 	C 	0.78461 0.95866 0.30322 -0.02000
C 	C 	0.78926 0.99135 0.27888 -0.04000
C 	C 	0.74206 0.00411 0.26836 0.07900
C 	C 	0.68942 0.97792 0.28057 -0.04000
N 	N 	0.72786 0.89814 0.33994 -0.01800
H 	H 	0.82107 0.95007 0.31180 0.08600
N 	N 	0.74740 0.04325 0.24519 -0.01900
H 	H 	0.65266 0.98565 0.27188 0.08600
O 	O 	0.55086 0.70114 0.32111 -0.08300
O 	O 	0.47575 0.71500 0.30061 -0.10500
O 	O 	0.59348 0.04219 0.32323 -0.09500
O 	O 	0.66763 0.03097 0.34577 -0.08400
O 	O 	0.78798 0.09853 0.24439 -0.10000
O 	O 	0.71015 0.02495 0.22544 -0.09600
O 	O 	0.74673 0.85124 0.34101 -0.08300
O 	O 	0.70784 0.91521 0.36143 -0.07100
C 	C 	0.21230 0.36610 0.36852 -0.07100
C 	C 	0.19032 0.35566 0.34202 0.02900
C 	C 	0.20139 0.40747 0.32445 0.05900
C 	C 	0.23151 0.46951 0.33406 0.00000
C 	C 	0.25135 0.48038 0.36094 -0.08900
C 	C 	0.24297 0.42799 0.37804 0.12400
C 	C 	0.15288 0.29106 0.33319 0.02300
N 	N 	0.18103 0.39735 0.29700 -0.01700
H 	H 	0.23837 0.50944 0.32074 0.06300
N 	N 	0.26326 0.43768 0.40545 -0.02900
H 	H 	0.20450 0.32625 0.38195 0.08600
C 	C 	0.17558 0.24383 0.32674 0.06200
C 	C 	0.14081 0.18657 0.31431 -0.00000
C 	C 	0.08398 0.17674 0.30767 -0.09100
C 	C 	0.05997 0.22088 0.31692 0.10900
C 	C 	0.09458 0.27793 0.32954 -0.06900
N 	N 	0.23440 0.25495 0.33167 -0.01700
H 	H 	0.15917 0.15202 0.30783 0.06800
N 	N 	0.00128 0.21003 0.31173 -0.04100
H 	H 	0.07656 0.31317 0.33549 0.08000
O 	O 	0.31597 0.44602 0.41115 -0.10000
O 	O 	0.22762 0.42968 0.42481 -0.10700
O 	O 	0.14995 0.42819 0.28747 -0.08800
O 	O 	0.19615 0.36006 0.28113 -0.08300
O 	O 	0.98652 0.24957 0.29704 -0.10100
O 	O 	0.96264 0.16292 0.32308 -0.07200
O 	O 	0.24950 0.21737 0.34740 -0.08600
O 	O 	0.27265 0.29918 0.31872 -0.07800
C 	C 	0.99986 0.77483 0.27607 -0.02600
C 	C 	0.01151 0.77940 0.30394 -0.00700
C 	C 	0.98207 0.80720 0.32080 0.08400
C 	C 	0.94841 0.83881 0.30929 -0.00400
C 	C 	0.94445 0.84315 0.28120 -0.08200
C 	C 	0.96611 0.80633 0.26463 0.10600
C 	C 	0.06131 0.76625 0.31455 0.03900
N 	N 	0.98899 0.80667 0.34954 -0.01300
H 	H 	0.92921 0.86438 0.32216 0.07800
N 	N 	0.95637 0.80353 0.23602 -0.02600
H 	H 	0.02036 0.75086 0.26311 0.07700
C 	C 	0.06134 0.70351 0.31511 0.05700
C 	C 	0.11048 0.69267 0.32344 0.00500
C 	C 	0.15948 0.74385 0.33158 -0.08300
C 	C 	0.15909 0.80644 0.33139 0.12300
C 	C 	0.11029 0.81737 0.32262 -0.07200
N 	N 	0.01165 0.65073 0.30709 -0.02100
H 	H 	0.11055 0.64438 0.32354 0.07800
N 	N 	0.20775 0.85887 0.34067 -0.02800
H 	H 	0.11039 0.86572 0.32215 0.09000
O 	O 	0.93137 0.74876 0.22387 -0.07900
O 	O 	0.97726 0.85468 0.22187 -0.11600
O 	O 	0.00035 0.85909 0.36366 -0.08900
O 	O 	0.98226 0.75344 0.36167 -0.06700
O 	O 	0.22351 0.86375 0.36598 -0.09100
O 	O 	0.23317 0.90457 0.32436 -0.08900
O 	O 	0.01459 0.61051 0.28864 -0.08300
O 	O 	0.96440 0.64057 0.31943 -0.06400
C 	C 	0.51164 0.08197 0.45509 -0.11200
C 	C 	0.45324 0.06041 0.45956 0.00900
C 	C 	0.43238 0.08881 0.48017 0.12400
C 	C 	0.47019 0.13537 0.49728 -0.02900
C 	C 	0.52890 0.15397 0.49389 -0.12000
C 	C 	0.54943 0.12885 0.47204 0.19400
C 	C 	0.41515 0.00335 0.44474 0.00100
O 	O 	0.37531 0.06877 0.48451 -0.26100
H 	H 	0.45395 0.15492 0.51389 0.07700
O 	O 	0.60655 0.14824 0.46785 -0.28300
H 	H 	0.52790 0.06081 0.43901 0.08000
C 	C 	0.40145 0.00682 0.41730 0.10900
C 	C 	0.37601 0.95069 0.40194 -0.00700
C 	C 	0.36592 0.89104 0.41363 -0.11200
C 	C 	0.37472 0.88778 0.44162 0.19800
C 	C 	0.39878 0.94385 0.45709 -0.09000
O 	O 	0.41356 0.06491 0.40539 -0.25900
H 	H 	0.36814 0.95368 0.38052 0.07000
O 	O 	0.36082 0.82978 0.45380 -0.29900
H 	H 	0.40769 0.94096 0.47841 0.08900
H 	H 	0.61486 0.18513 0.45571 0.14900
H 	H 	0.45194 0.07514 0.39804 0.15200
H 	H 	0.39594 0.81946 0.45392 0.15500
H 	H 	0.36109 0.09649 0.47325 0.16400
C 	C 	0.95198 0.39520 0.47010 -0.11200
C 	C 	0.96948 0.46034 0.46444 0.02400
C 	C 	0.93190 0.49328 0.46781 0.12300
C 	C 	0.87719 0.46106 0.47675 -0.02200
C 	C 	0.85984 0.39612 0.48288 -0.11900
C 	C 	0.89727 0.36293 0.47919 0.20400
C 	C 	0.02663 0.49368 0.45431 0.00100
O 	O 	0.94840 0.55685 0.46203 -0.25700
H 	H 	0.84874 0.48703 0.47965 0.05600
O 	O 	0.88075 0.29927 0.48479 -0.27100
H 	H 	0.98075 0.36957 0.46737 0.08800
C 	C 	0.07395 0.51406 0.47218 0.12400
C 	C 	0.12767 0.54854 0.46250 -0.02900
C 	C 	0.13444 0.56275 0.43505 -0.11100
C 	C 	0.08721 0.54118 0.41712 0.20600
C 	C 	0.03354 0.50723 0.42683 -0.11700
O 	O 	0.06744 0.50218 0.49921 -0.26100
H 	H 	0.16400 0.56430 0.47633 0.05900
O 	O 	0.09344 0.55363 0.39011 -0.27000
H 	H 	0.99721 0.49147 0.41300 0.10100
H 	H 	0.86384 0.27672 0.46765 0.16000
H 	H 	0.07267 0.46077 0.50168 0.15700
H 	H 	0.10148 0.51714 0.38209 0.16500
H 	H 	0.96517 0.57967 0.47914 0.17100
C 	C 	0.52607 0.51730 0.49736 -0.10900
C 	C 	0.55424 0.58089 0.50554 0.00200
C 	C 	0.59988 0.59629 0.52423 0.13200
C 	C 	0.61793 0.54821 0.53412 -0.03700
C 	C 	0.59149 0.48485 0.52493 -0.11400
C 	C 	0.54491 0.46947 0.50663 0.18800
C 	C 	0.53799 0.63119 0.49293 0.01400
O 	O 	0.62645 0.65809 0.53309 -0.25800
H 	H 	0.65310 0.56033 0.54858 0.08700
O 	O 	0.51832 0.40791 0.49745 -0.26800
H 	H 	0.49065 0.50530 0.48302 0.08200
C 	C 	0.56244 0.65730 0.46853 0.12000
C 	C 	0.53283 0.68311 0.45076 -0.02300
C 	C 	0.47849 0.68149 0.45707 -0.11900
C 	C 	0.45898 0.66592 0.48332 0.19500
C 	C 	0.48878 0.64062 0.50120 -0.10900
O 	O 	0.61353 0.65403 0.46134 -0.26300
H 	H 	0.54950 0.69821 0.43102 0.07400
O 	O 	0.40779 0.66888 0.49049 -0.31200
H 	H 	0.47091 0.62298 0.52047 0.09000
H 	H 	0.53838 0.40412 0.48091 0.14300
H 	H 	0.60409 0.61317 0.45113 0.15100
H 	H 	0.41677 0.71228 0.49833 0.16000
H 	H 	0.65782 0.67679 0.52051 0.16800
C 	C 	0.83446 0.98258 0.62925 -0.04500
C 	C 	0.86612 0.04521 0.62213 0.00800
C 	C 	0.92446 0.07115 0.62886 0.07500
C 	C 	0.95022 0.03457 0.64305 -0.02200
C 	C 	0.91857 0.97185 0.65014 -0.06400
C 	C 	0.86055 0.94532 0.64269 0.11900
C 	C 	0.83773 0.08358 0.60788 0.03500
N 	N 	0.95768 0.13457 0.62126 -0.01900
H 	H 	0.99488 0.05504 0.64863 0.06500
N 	N 	0.82849 0.87995 0.64793 -0.02300
H 	H 	0.78969 0.96239 0.62389 0.08600
C 	C 	0.81572 0.06684 0.58138 0.05600
C 	C 	0.78455 0.10021 0.56904 0.00000
C 	C 	0.77638 0.15126 0.58261 -0.08700
C 	C 	0.79951 0.16900 0.60885 0.12200
C 	C 	0.82988 0.13493 0.62137 -0.07200
N 	N 	0.82532 0.01622 0.56689 -0.02300
H 	H 	0.76762 0.08721 0.54868 0.06900
N 	N 	0.79132 0.22083 0.62303 -0.02400
H 	H 	0.84653 0.14768 0.64179 0.09200
O 	O 	0.84320 0.83495 0.63743 -0.08900
O 	O 	0.78205 0.86529 0.66135 -0.08400
O 	O 	0.98664 0.17602 0.63950 -0.07600
O 	O 	0.96198 0.14961 0.59593 -0.06900
O 	O 	0.74036 0.21873 0.62812 -0.11000
O 	O 	0.83485 0.26799 0.63249 -0.07200
O 	O 	0.78270 0.96965 0.55635 -0.07300
O 	O 	0.87678 0.01875 0.56279 -0.07600
C 	C 	0.42134 0.13517 0.63507 -0.06600
C 	C 	0.37704 0.15625 0.62774 0.02800
C 	C 	0.38653 0.20587 0.60918 0.06200
C 	C 	0.43954 0.23224 0.59743 -0.00100
C 	C 	0.48296 0.20872 0.60360 -0.07900
C 	C 	0.47430 0.16123 0.62317 0.11600
C 	C 	0.32074 0.12618 0.63959 0.02500
N 	N 	0.34197 0.22846 0.60167 -0.01700
H 	H 	0.44593 0.26875 0.58242 0.07700
N 	N 	0.51922 0.13945 0.63102 -0.02700
H 	H 	0.41457 0.09828 0.64993 0.08700
C 	C 	0.28590 0.06364 0.63192 0.06900
C 	C 	0.23370 0.03494 0.64419 -0.02200
C 	C 	0.21552 0.06835 0.66382 -0.07200
C 	C 	0.24940 0.13193 0.67063 0.11600
C 	C 	0.30217 0.16001 0.65883 -0.06300
N 	N 	0.30357 0.02901 0.61178 -0.02400
H 	H 	0.20770 0.98629 0.63872 0.08700
N 	N 	0.22980 0.16853 0.68909 -0.02600
H 	H 	0.32849 0.20848 0.66441 0.08900
O 	O 	0.51021 0.07869 0.63157 -0.09900
O 	O 	0.56813 0.18016 0.63911 -0.11200
O 	O 	0.34918 0.28844 0.60494 -0.08300
O 	O 	0.29597 0.19015 0.58972 -0.07700
O 	O 	0.18270 0.17804 0.68393 -0.12900
O 	O 	0.26093 0.19590 0.71011 -0.08800
O 	O 	0.30626 0.97355 0.61722 -0.07300
O 	O 	0.31346 0.05103 0.58753 -0.08000
C 	C 	0.97452 0.63249 0.64462 -0.04400
C 	C 	0.96515 0.63305 0.61669 0.01900
C 	C 	0.99125 0.68984 0.60258 0.08300
C 	C 	0.01795 0.74718 0.61703 -0.02300
C 	C 	0.01804 0.74806 0.64529 -0.06500
C 	C 	0.00144 0.68984 0.65900 0.08700
C 	C 	0.91887 0.57945 0.60356 0.03300
N 	N 	0.98731 0.69009 0.57372 -0.01800
H 	H 	0.03371 0.79166 0.60633 0.08000
N 	N 	0.00722 0.68942 0.68781 -0.03400
H 	H 	0.95736 0.58825 0.65538 0.08800
C 	C 	0.92446 0.51977 0.59919 0.06300
C 	C 	0.87962 0.46973 0.58688 0.00400
C 	C 	0.82953 0.47895 0.57867 -0.08600
C 	C 	0.82298 0.53752 0.58437 0.12200
C 	C 	0.86770 0.58749 0.59659 -0.07100
N 	N 	0.97583 0.51009 0.60679 -0.01200
H 	H 	0.88484 0.42470 0.58254 0.07800
N 	N 	0.77066 0.54621 0.57797 -0.02600
H 	H 	0.86252 0.63258 0.60083 0.08800
O 	O 	0.05444 0.72440 0.69988 -0.10600
O 	O 	0.96540 0.65384 0.70198 -0.09700
O 	O 	0.97241 0.73315 0.56165 -0.07700
O 	O 	0.99986 0.64814 0.55949 -0.07300
O 	O 	0.77039 0.59367 0.56318 -0.09300
O 	O 	0.72402 0.50982 0.58869 -0.09700
O 	O 	0.97419 0.46306 0.62228 -0.07100
O 	O 	0.02362 0.54529 0.59666 -0.08400
C 	C 	0.92287 0.47494 0.95585 -0.10700
C 	C 	0.92129 0.52042 0.97508 0.00400
C 	C 	0.86911 0.52550 0.98161 0.13200
C 	C 	0.81921 0.48667 0.96823 -0.03400
C 	C 	0.82094 0.44273 0.94823 -0.11000
C 	C 	0.87319 0.43676 0.94215 0.19900
C 	C 	0.97464 0.56409 0.98762 0.02900
O 	O 	0.86716 0.57057 0.00007 -0.26000
H 	H 	0.77933 0.49195 0.97289 0.05100
O 	O 	0.87596 0.39462 0.92248 -0.26600
H 	H 	0.96293 0.47041 0.95098 0.08500
C 	C 	0.99051 0.55416 0.01407 0.13300
C 	C 	0.04315 0.59284 0.02504 -0.03500
C 	C 	0.08124 0.63992 0.00941 -0.11800
C 	C 	0.06483 0.65080 0.98316 0.20500
C 	C 	0.01140 0.61339 0.97250 -0.13900
O 	O 	0.95476 0.50645 0.02916 -0.26200
H 	H 	0.05543 0.58421 0.04529 0.07500
O 	O 	0.10040 0.69881 0.96815 -0.27900
H 	H 	0.99906 0.62172 0.95222 0.10400
H 	H 	0.88255 0.41896 0.90553 0.16600
H 	H 	0.96508 0.46849 0.02539 0.16400
H 	H 	0.12192 0.67840 0.95719 0.15700
H 	H 	0.86053 0.54864 0.01760 0.16800
C 	C 	0.53946 0.09998 0.97835 -0.10600
C 	C 	0.52429 0.03539 0.97123 -0.00200
C 	C 	0.54131 0.01788 0.94651 0.12100
C 	C 	0.57068 0.06495 0.92849 -0.01800
C 	C 	0.58147 0.12948 0.93457 -0.10900
C 	C 	0.56764 0.14704 0.96006 0.20100
C 	C 	0.48778 0.98628 0.98893 0.02500
O 	O 	0.52864 0.95479 0.93980 -0.24400
H 	H 	0.58155 0.05100 0.90899 0.07200
O 	O 	0.58150 0.21016 0.96707 -0.30300
H 	H 	0.52774 0.11368 0.99770 0.08000
C 	C 	0.51159 0.95384 0.00677 0.12000
C 	C 	0.47641 0.90539 0.02264 -0.02100
C 	C 	0.41737 0.88941 0.02109 -0.12200
C 	C 	0.39357 0.92243 0.00346 0.19900
C 	C 	0.42885 0.97092 0.98754 -0.11700
O 	O 	0.56914 0.96827 0.00818 -0.23400
H 	H 	0.49508 0.88055 0.03634 0.07300
O 	O 	0.33598 0.90760 0.00182 -0.27800
H 	H 	0.41037 0.99605 0.97387 0.09100
H 	H 	0.54765 0.22075 0.96207 0.16500
H 	H 	0.58328 0.00182 0.02246 0.14800
H 	H 	0.32222 0.87416 0.98748 0.15100
H 	H 	0.49130 0.94149 0.93017 0.16100
C 	C 	0.43815 0.51525 0.00259 -0.11200
C 	C 	0.40386 0.47384 0.98266 0.00700
C 	C 	0.34683 0.46812 0.97931 0.12800
C 	C 	0.32512 0.50573 0.99507 -0.03400
C 	C 	0.36020 0.54970 0.01409 -0.11600
C 	C 	0.41646 0.55268 0.01848 0.19700
C 	C 	0.42931 0.44159 0.96364 0.00700
O 	O 	0.31216 0.42544 0.96077 -0.26000
H 	H 	0.28142 0.50199 0.99195 0.05200
O 	O 	0.45054 0.59280 0.03796 -0.27200
H 	H 	0.48202 0.51935 0.00539 0.07800
C 	C 	0.44628 0.46788 0.93826 0.12200
C 	C 	0.47630 0.44148 0.92149 -0.03200
C 	C 	0.49091 0.38982 0.93014 -0.11400
C 	C 	0.47190 0.36185 0.95507 0.18800
C 	C 	0.44088 0.38759 0.97165 -0.10600
O 	O 	0.43383 0.51967 0.92990 -0.26900
H 	H 	0.48991 0.46255 0.90211 0.07200
O 	O 	0.48436 0.31008 0.96345 -0.27800
H 	H 	0.42737 0.36679 0.99109 0.08400
H 	H 	0.44459 0.56723 0.05456 0.16100
H 	H 	0.46644 0.55741 0.93626 0.15400
H 	H 	0.52085 0.32803 0.97374 0.13900
H 	H 	0.31487 0.44973 0.94394 0.16200
C 	C 	0.83015 0.12281 0.83694 -0.06800
C 	C 	0.88004 0.16962 0.82835 0.02900
C 	C 	0.88956 0.23449 0.83355 0.06300
C 	C 	0.84788 0.25195 0.84607 0.00300
C 	C 	0.79655 0.20528 0.85327 -0.08300
C 	C 	0.78847 0.14026 0.84950 0.12000
C 	C 	0.92001 0.15061 0.81213 0.02800
N 	N 	0.94073 0.28286 0.82535 -0.01700
H 	H 	0.85454 0.30200 0.84922 0.07500
N 	N 	0.73772 0.09187 0.85816 -0.02800
H 	H 	0.82333 0.07282 0.83346 0.08800
C 	C 	0.95449 0.12032 0.82425 0.06400
C 	C 	0.98745 0.09627 0.80815 0.01000
C 	C 	0.98595 0.10152 0.77999 -0.07000
C 	C 	0.95253 0.13331 0.76793 0.11900
C 	C 	0.92034 0.15835 0.78411 -0.06700
N 	N 	0.95511 0.11259 0.85287 -0.01600
H 	H 	0.01375 0.07275 0.81755 0.07800
N 	N 	0.94907 0.13765 0.73922 -0.02200
H 	H 	0.89379 0.18162 0.77476 0.08700
O 	O 	0.72173 0.09230 0.88289 -0.09600
O 	O 	0.70920 0.04546 0.84175 -0.09900
O 	O 	0.93833 0.32898 0.81027 -0.07800
O 	O 	0.98961 0.28279 0.83419 -0.06900
O 	O 	0.92654 0.08624 0.72443 -0.10500
O 	O 	0.96367 0.19322 0.72811 -0.07400
O 	O 	0.94507 0.05631 0.86279 -0.07200
O 	O 	0.96913 0.16221 0.86895 -0.06900
C 	C 	0.23286 0.03057 0.82170 -0.06100
C 	C 	0.27872 0.02231 0.80887 0.00300
C 	C 	0.26892 0.98396 0.78530 0.08500
C 	C 	0.21515 0.96294 0.77257 -0.01000
C 	C 	0.17142 0.97986 0.78333 -0.06900
C 	C 	0.17892 0.00853 0.80923 0.11200
C 	C 	0.33695 0.06017 0.81827 0.04100
N 	N 	0.31351 0.96704 0.77405 -0.01300
H 	H 	0.20882 0.93818 0.75323 0.06500
N 	N 	0.13258 0.01917 0.82204 -0.02800
H 	H 	0.23966 0.05677 0.84071 0.08200
C 	C 	0.36332 0.12326 0.80961 0.05700
C 	C 	0.41672 0.16061 0.82029 -0.00100
C 	C 	0.44358 0.13634 0.84012 -0.09000
C 	C 	0.41606 0.07385 0.84953 0.12900
C 	C 	0.36372 0.03567 0.83799 -0.09500
N 	N 	0.33491 0.15037 0.79075 -0.01600
H 	H 	0.43724 0.20867 0.81319 0.06700
N 	N 	0.43925 0.05057 0.87194 -0.02900
H 	H 	0.34273 0.98784 0.84523 0.09800
O 	O 	0.08356 0.97336 0.82298 -0.06100
O 	O 	0.13957 0.07438 0.83306 -0.08100
O 	O 	0.30806 0.90736 0.77170 -0.08100
O 	O 	0.35724 0.01071 0.76408 -0.09000
O 	O 	0.44290 0.07700 0.89569 -0.09000
O 	O 	0.45193 0.99955 0.86908 -0.08500
O 	O 	0.32220 0.19955 0.79782 -0.08200
O 	O 	0.32509 0.12858 0.76605 -0.08000
C 	C 	0.75202 0.56035 0.80954 -0.07000
C 	C 	0.80909 0.59445 0.81632 0.02700
C 	C 	0.83671 0.57207 0.83666 0.06000
C 	C 	0.80667 0.51675 0.85043 0.00000
C 	C 	0.74926 0.48317 0.84403 -0.09200
C 	C 	0.72214 0.50440 0.82305 0.12200
C 	C 	0.83967 0.65360 0.80206 0.03000
N 	N 	0.89516 0.60589 0.84359 -0.01700
H 	H 	0.82772 0.50061 0.86655 0.06900
N 	N 	0.66462 0.46868 0.81509 -0.02200
H 	H 	0.73101 0.57699 0.79358 0.08700
C 	C 	0.85485 0.65112 0.77504 0.06000
C 	C 	0.88072 0.70771 0.76128 0.00200
C 	C 	0.89215 0.76693 0.77426 -0.09300
C 	C 	0.87796 0.76949 0.80147 0.13300
C 	C 	0.85197 0.71276 0.81525 -0.07200
N 	N 	0.84384 0.59111 0.76149 -0.01600
H 	H 	0.89229 0.70563 0.74047 0.03800
N 	N 	0.88822 0.82944 0.81491 -0.02400
H 	H 	0.84025 0.71470 0.83604 0.08800
O 	O 	0.65021 0.40924 0.80753 -0.10400
O 	O 	0.62758 0.49677 0.81359 -0.08800
O 	O 	0.91029 0.62484 0.86837 -0.08900
O 	O 	0.93361 0.61375 0.82558 -0.07200
O 	O 	0.86266 0.86717 0.80642 -0.07300
O 	O 	0.91941 0.84391 0.83692 -0.06200
O 	O 	0.81471 0.57839 0.73886 -0.08600
O 	O 	0.86623 0.55112 0.77077 -0.07100
