data_crystal

_cell_length_a 33.64118
_cell_length_b 32.25324
_cell_length_c 33.59856
_cell_angle_alpha 89.99923
_cell_angle_beta  69.09440
_cell_angle_gamma 118.37777

_symmetry_space_group_name_	'P 1'
_symmetry_space_group_name_H-M	'P 1'

loop_
_symmetry_equiv_pos_as_xyz
  x,y,z

loop_
_atom_site_label
_atom_site_type_symbol
_atom_site_fract_x
_atom_site_fract_y
_atom_site_fract_z
_atom_site_charge
C 	C 	0.00629 0.24492 0.47523 -0.01700
H 	H 	0.00956 0.21863 0.45489 0.05200
C 	C 	0.00588 0.31277 0.47550 -0.01300
H 	H 	0.00899 0.34233 0.45536 0.04600
C 	C 	0.00062 0.24185 0.52293 -0.01700
C 	C 	0.01505 0.20926 0.22410 -0.01400
C 	C 	0.00629 0.24492 0.97523 -0.01700
H 	H 	0.00956 0.21863 0.95489 0.05200
C 	C 	0.00588 0.31277 0.97550 -0.01300
H 	H 	0.00899 0.34233 0.95536 0.04600
C 	C 	0.00062 0.24185 0.02293 -0.01700
C 	C 	0.01505 0.20926 0.72410 -0.01300
C 	C 	0.00629 0.74492 0.47523 -0.01700
H 	H 	0.00956 0.71863 0.45489 0.05200
C 	C 	0.00588 0.81277 0.47550 -0.01300
H 	H 	0.00899 0.84233 0.45536 0.04600
C 	C 	0.00062 0.74185 0.52293 -0.01700
C 	C 	0.01505 0.70926 0.22410 -0.01400
C 	C 	0.00629 0.74492 0.97523 -0.01700
H 	H 	0.00956 0.71863 0.95489 0.05200
C 	C 	0.00588 0.81277 0.97550 -0.01300
H 	H 	0.00899 0.84233 0.95536 0.04600
C 	C 	0.00062 0.74185 0.02293 -0.01600
C 	C 	0.01505 0.70926 0.72410 -0.01200
H 	H 	0.02446 0.18582 0.20322 0.04100
H 	H 	0.02446 0.18582 0.70322 0.04100
H 	H 	0.02446 0.68582 0.20322 0.04100
H 	H 	0.02446 0.68582 0.70322 0.04100
O 	O 	0.03320 0.24531 0.34448 -0.24300
C 	C 	0.04030 0.29572 0.51268 -0.01900
C 	C 	0.02884 0.25029 0.27388 -0.05200
C 	C 	0.01471 0.27702 0.22402 -0.01200
H 	H 	0.02383 0.30958 0.20307 0.03900
O 	O 	0.03320 0.24532 0.84448 -0.24300
C 	C 	0.04030 0.29572 0.01268 -0.01900
C 	C 	0.02884 0.25029 0.77388 -0.05200
C 	C 	0.01471 0.27702 0.72402 -0.01100
H 	H 	0.02383 0.30958 0.70307 0.03900
O 	O 	0.03320 0.74532 0.34448 -0.24300
C 	C 	0.04030 0.79572 0.51268 -0.01900
C 	C 	0.02884 0.75029 0.27388 -0.05200
C 	C 	0.01471 0.77702 0.22402 -0.01200
H 	H 	0.02383 0.80958 0.20307 0.03900
O 	O 	0.03320 0.74531 0.84448 -0.24300
C 	C 	0.04030 0.79572 0.01268 -0.01900
C 	C 	0.02884 0.75029 0.77388 -0.05200
C 	C 	0.01471 0.77702 0.72402 -0.01100
H 	H 	0.02383 0.80958 0.70307 0.03900
C 	C 	0.99183 0.26573 0.27448 -0.01500
C 	C 	0.99183 0.26572 0.77448 -0.01500
C 	C 	0.99183 0.76573 0.27448 -0.01400
C 	C 	0.99183 0.76572 0.77448 -0.01500
Zn	Zn	0.20246 0.40027 0.36851 1.20300
Zn	Zn	0.13874 0.32568 0.32461 1.21600
Zn	Zn	0.18202 0.31386 0.42920 1.21600
P 	P 	0.22409 0.32785 0.33397 0.29900
P 	P 	0.10284 0.32280 0.41842 0.30000
C 	C 	0.19392 0.24172 0.46430 0.27300
C 	C 	0.23909 0.41733 0.43412 0.29400
C 	C 	0.18851 0.43265 0.29943 0.29900
O 	O 	0.24064 0.38231 0.31957 -0.43200
O 	O 	0.14133 0.37448 0.42121 -0.43600
O 	O 	0.16765 0.29299 0.34167 -0.43800
O 	O 	0.12154 0.28582 0.41989 -0.43500
O 	O 	0.23533 0.32282 0.37567 -0.41400
O 	O 	0.09088 0.32667 0.37690 -0.41200
O 	O 	0.18538 0.27721 0.47281 -0.41300
O 	O 	0.19327 0.22596 0.42839 -0.24600
O 	O 	0.19986 0.37436 0.45460 -0.43200
O 	O 	0.18594 0.39290 0.28687 -0.43400
O 	O 	0.25148 0.43326 0.39307 -0.43800
O 	O 	0.18917 0.43984 0.33766 -0.44000
C 	C 	0.05670 0.26448 0.30268 0.27000
O 	O 	0.10360 0.29870 0.28679 -0.41100
Zn	Zn	0.30364 0.20035 0.13026 1.20300
Zn	Zn	0.36787 0.18961 0.17400 1.21700
Zn	Zn	0.32481 0.13466 0.06936 1.21600
P 	P 	0.28278 0.10679 0.16463 0.29900
P 	P 	0.40354 0.22245 0.08024 0.30000
C 	C 	0.31270 0.05061 0.03435 0.27300
C 	C 	0.26717 0.18093 0.06456 0.29400
C 	C 	0.31772 0.24684 0.19917 0.29900
O 	O 	0.26589 0.14458 0.17915 -0.43300
O 	O 	0.36469 0.23551 0.07763 -0.43600
O 	O 	0.33928 0.12821 0.15689 -0.43800
O 	O 	0.38538 0.16705 0.07854 -0.43500
O 	O 	0.27163 0.09062 0.12290 -0.41400
O 	O 	0.41548 0.23818 0.12176 -0.41200
O 	O 	0.32162 0.09471 0.02571 -0.41300
O 	O 	0.47387 0.21535 0.15404 -0.24400
O 	O 	0.31313 0.03538 0.07034 -0.24600
O 	O 	0.30658 0.17714 0.04405 -0.43200
O 	O 	0.32041 0.20972 0.21173 -0.43500
O 	O 	0.25457 0.18429 0.10569 -0.43800
O 	O 	0.31659 0.25308 0.16111 -0.44000
C 	C 	0.45020 0.21085 0.19588 0.27000
O 	O 	0.40309 0.19783 0.21180 -0.41100
C 	C 	0.96597 0.25864 0.48600 -0.02000
H 	H 	0.93474 0.24297 0.47571 0.04300
C 	C 	0.04540 0.29850 0.46544 -0.02300
C 	C 	0.96088 0.25585 0.53324 -0.02300
C 	C 	0.99976 0.30947 0.52369 -0.01400
H 	H 	0.99612 0.33545 0.54427 0.04800
H 	H 	0.07153 0.31124 0.52297 0.04200
H 	H 	0.99786 0.21234 0.54283 0.05200
C 	C 	0.95482 0.21324 0.27482 -0.01000
H 	H 	0.91461 0.19319 0.29580 0.04200
H 	H 	0.98244 0.28917 0.29537 0.03900
C 	C 	0.99216 0.19796 0.27456 -0.01600
H 	H 	0.98303 0.16538 0.29551 0.04100
C 	C 	0.97803 0.22470 0.22470 -0.05500
C 	C 	0.05206 0.26174 0.22376 -0.01100
H 	H 	0.09226 0.28179 0.20278 0.04300
C 	C 	0.25405 0.55324 0.25047 -0.02900
H 	H 	0.27520 0.58576 0.26175 0.03600
C 	C 	0.26399 0.51115 0.24323 0.00000
H 	H 	0.29297 0.50804 0.24919 0.03800
C 	C 	0.19779 0.51694 0.27346 -0.00100
H 	H 	0.17217 0.51860 0.30444 0.04000
C 	C 	0.20812 0.47530 0.26579 -0.07000
C 	C 	0.24912 0.55326 0.20683 -0.01800
C 	C 	0.19325 0.51776 0.22906 -0.02600
H 	H 	0.16460 0.52122 0.22282 0.04600
C 	C 	0.20315 0.47535 0.22206 0.00100
H 	H 	0.18214 0.44288 0.21066 0.04000
C 	C 	0.25934 0.51166 0.19919 -0.02300
H 	H 	0.28501 0.50996 0.16825 0.05800
C 	C 	0.25794 0.43939 0.50526 -0.00800
H 	H 	0.24203 0.40232 0.52291 0.04100
C 	C 	0.24021 0.47495 0.52204 -0.01300
H 	H 	0.20989 0.46765 0.55386 0.04100
C 	C 	0.31241 0.48046 0.49048 -0.01600
H 	H 	0.34166 0.47773 0.49625 0.04100
C 	C 	0.29441 0.51558 0.50694 -0.05400
C 	C 	0.25978 0.45262 0.46038 -0.06200
C 	C 	0.31400 0.49323 0.44522 -0.01000
H 	H 	0.34429 0.50050 0.41338 0.04000
C 	C 	0.29627 0.52881 0.46205 -0.01200
H 	H 	0.31214 0.56585 0.44435 0.04400
C 	C 	0.24184 0.48776 0.47687 -0.00800
H 	H 	0.21257 0.49049 0.47112 0.03900
C 	C 	0.19412 0.17167 0.50800 -0.01600
H 	H 	0.16496 0.14000 0.50207 0.04100
C 	C 	0.19231 0.18262 0.55336 -0.01000
H 	H 	0.16195 0.15972 0.58513 0.04000
C 	C 	0.24858 0.18464 0.49333 -0.00800
H 	H 	0.26458 0.16344 0.47561 0.04100
C 	C 	0.24654 0.19581 0.53831 -0.06200
C 	C 	0.21210 0.22468 0.49172 -0.05400
C 	C 	0.26629 0.23781 0.47673 -0.01300
H 	H 	0.29669 0.26071 0.44498 0.04100
C 	C 	0.26446 0.24877 0.52200 -0.00800
H 	H 	0.29364 0.28046 0.52791 0.03900
C 	C 	0.21004 0.23582 0.53671 -0.01200
H 	H 	0.19407 0.25703 0.55448 0.04400
C 	C 	0.25251 0.30265 0.24823 -0.02900
H 	H 	0.23122 0.31410 0.23708 0.03600
C 	C 	0.24260 0.25073 0.25559 0.00000
H 	H 	0.21348 0.21880 0.24985 0.03800
C 	C 	0.30875 0.32212 0.22499 -0.00100
H 	H 	0.33420 0.34905 0.19391 0.04000
C 	C 	0.29844 0.27026 0.23277 -0.07000
C 	C 	0.25780 0.30782 0.29171 -0.01800
C 	C 	0.31364 0.32769 0.26923 -0.02600
H 	H 	0.34241 0.35965 0.27527 0.04600
C 	C 	0.30377 0.27548 0.27635 0.00100
H 	H 	0.32492 0.26393 0.28762 0.04000
C 	C 	0.24760 0.25609 0.29947 -0.02300
H 	H 	0.22211 0.22906 0.33049 0.05800
Zn	Zn	0.20246 0.40028 0.86851 1.20300
Zn	Zn	0.13874 0.32568 0.82461 1.21600
Zn	Zn	0.18202 0.31386 0.92920 1.21600
P 	P 	0.22409 0.32786 0.83397 0.29900
P 	P 	0.10284 0.32280 0.91842 0.30000
C 	C 	0.19392 0.24172 0.96430 0.27300
C 	C 	0.23909 0.41733 0.93412 0.29400
C 	C 	0.18851 0.43264 0.79943 0.29900
O 	O 	0.24064 0.38231 0.81958 -0.43200
O 	O 	0.14133 0.37448 0.92121 -0.43600
O 	O 	0.16765 0.29299 0.84167 -0.43800
O 	O 	0.12154 0.28582 0.91989 -0.43500
O 	O 	0.23533 0.32282 0.87567 -0.41400
O 	O 	0.09088 0.32667 0.87690 -0.41200
O 	O 	0.18538 0.27721 0.97281 -0.41300
O 	O 	0.19327 0.22596 0.92839 -0.24600
O 	O 	0.19986 0.37436 0.95460 -0.43200
O 	O 	0.18594 0.39290 0.78687 -0.43400
O 	O 	0.25148 0.43326 0.89307 -0.43800
O 	O 	0.18917 0.43984 0.83766 -0.44000
C 	C 	0.05670 0.26448 0.80268 0.27000
O 	O 	0.10360 0.29870 0.78679 -0.41100
Zn	Zn	0.30364 0.20035 0.63026 1.20300
Zn	Zn	0.36787 0.18961 0.67400 1.21700
Zn	Zn	0.32481 0.13466 0.56936 1.21600
P 	P 	0.28277 0.10678 0.66463 0.29900
P 	P 	0.40354 0.22245 0.58023 0.30000
C 	C 	0.31270 0.05061 0.53436 0.27300
C 	C 	0.26717 0.18093 0.56456 0.29400
C 	C 	0.31772 0.24684 0.69917 0.29900
O 	O 	0.26589 0.14458 0.67915 -0.43300
O 	O 	0.36469 0.23551 0.57763 -0.43600
O 	O 	0.33928 0.12821 0.65689 -0.43800
O 	O 	0.38538 0.16705 0.57854 -0.43500
O 	O 	0.27163 0.09062 0.62290 -0.41400
O 	O 	0.41548 0.23818 0.62176 -0.41200
O 	O 	0.32162 0.09471 0.52571 -0.41300
O 	O 	0.47387 0.21535 0.65404 -0.24400
O 	O 	0.31313 0.03538 0.57034 -0.24600
O 	O 	0.30658 0.17714 0.54405 -0.43200
O 	O 	0.32041 0.20972 0.71173 -0.43500
O 	O 	0.25457 0.18429 0.60569 -0.43800
O 	O 	0.31659 0.25308 0.66111 -0.44000
C 	C 	0.45020 0.21085 0.69588 0.27000
O 	O 	0.40309 0.19782 0.71181 -0.41100
C 	C 	0.96597 0.25864 0.98600 -0.02100
H 	H 	0.93474 0.24297 0.97572 0.04300
C 	C 	0.04540 0.29850 0.96544 -0.02300
C 	C 	0.96088 0.25585 0.03324 -0.02300
C 	C 	0.99976 0.30947 0.02369 -0.01400
H 	H 	0.99612 0.33545 0.04427 0.04800
H 	H 	0.07153 0.31124 0.02297 0.04200
H 	H 	0.99786 0.21234 0.04283 0.05200
C 	C 	0.95482 0.21324 0.77482 -0.00900
H 	H 	0.91461 0.19319 0.79580 0.04200
H 	H 	0.98244 0.28917 0.79537 0.03900
C 	C 	0.99216 0.19796 0.77456 -0.01600
H 	H 	0.98303 0.16538 0.79551 0.04100
C 	C 	0.97803 0.22471 0.72470 -0.05500
C 	C 	0.05206 0.26174 0.72376 -0.01200
H 	H 	0.09226 0.28179 0.70278 0.04300
C 	C 	0.25405 0.55324 0.75047 -0.02900
H 	H 	0.27520 0.58576 0.76175 0.03600
C 	C 	0.26399 0.51115 0.74323 0.00000
H 	H 	0.29297 0.50804 0.74919 0.03800
C 	C 	0.19779 0.51694 0.77346 -0.00100
H 	H 	0.17217 0.51860 0.80444 0.04000
C 	C 	0.20812 0.47531 0.76579 -0.07000
C 	C 	0.24912 0.55326 0.70683 -0.01800
C 	C 	0.19325 0.51775 0.72906 -0.02600
H 	H 	0.16460 0.52122 0.72282 0.04600
C 	C 	0.20315 0.47535 0.72206 0.00100
H 	H 	0.18214 0.44288 0.71066 0.04000
C 	C 	0.25935 0.51166 0.69918 -0.02300
H 	H 	0.28501 0.50996 0.66825 0.05800
C 	C 	0.25794 0.43939 0.00526 -0.00800
H 	H 	0.24203 0.40232 0.02291 0.04100
C 	C 	0.24021 0.47495 0.02204 -0.01300
H 	H 	0.20989 0.46765 0.05386 0.04100
C 	C 	0.31241 0.48046 0.99048 -0.01600
H 	H 	0.34166 0.47773 0.99625 0.04100
C 	C 	0.29441 0.51559 0.00694 -0.05400
C 	C 	0.25978 0.45262 0.96039 -0.06200
C 	C 	0.31400 0.49323 0.94522 -0.01000
H 	H 	0.34429 0.50050 0.91338 0.04000
C 	C 	0.29627 0.52881 0.96205 -0.01200
H 	H 	0.31214 0.56585 0.94435 0.04400
C 	C 	0.24184 0.48776 0.97687 -0.00800
H 	H 	0.21257 0.49049 0.97112 0.03900
C 	C 	0.19412 0.17167 0.00800 -0.01600
H 	H 	0.16496 0.14000 0.00207 0.04100
C 	C 	0.19231 0.18262 0.05336 -0.01000
H 	H 	0.16195 0.15972 0.08513 0.04000
C 	C 	0.24858 0.18464 0.99333 -0.00800
H 	H 	0.26458 0.16344 0.97561 0.04100
C 	C 	0.24654 0.19581 0.03831 -0.06200
C 	C 	0.21210 0.22468 0.99172 -0.05400
C 	C 	0.26629 0.23781 0.97673 -0.01300
H 	H 	0.29669 0.26071 0.94498 0.04100
C 	C 	0.26446 0.24877 0.02200 -0.00800
H 	H 	0.29364 0.28046 0.02791 0.03900
C 	C 	0.21004 0.23582 0.03671 -0.01200
H 	H 	0.19407 0.25703 0.05448 0.04400
C 	C 	0.25251 0.30265 0.74823 -0.02900
H 	H 	0.23122 0.31410 0.73708 0.03600
C 	C 	0.24260 0.25073 0.75559 0.00000
H 	H 	0.21348 0.21880 0.74985 0.03800
C 	C 	0.30875 0.32212 0.72499 -0.00100
H 	H 	0.33420 0.34905 0.69391 0.04000
C 	C 	0.29844 0.27026 0.73277 -0.07000
C 	C 	0.25780 0.30782 0.79171 -0.01800
C 	C 	0.31364 0.32769 0.76923 -0.02600
H 	H 	0.34241 0.35965 0.77527 0.04600
C 	C 	0.30377 0.27548 0.77635 0.00100
H 	H 	0.32492 0.26394 0.78762 0.04000
C 	C 	0.24760 0.25609 0.79947 -0.02300
H 	H 	0.22211 0.22906 0.83049 0.05800
Zn	Zn	0.20246 0.90027 0.36851 1.20300
Zn	Zn	0.13874 0.82568 0.32461 1.21600
Zn	Zn	0.18202 0.81386 0.42920 1.21600
P 	P 	0.22409 0.82786 0.33397 0.29900
P 	P 	0.10284 0.82280 0.41842 0.30000
C 	C 	0.19392 0.74172 0.46430 0.27300
C 	C 	0.23909 0.91732 0.43412 0.29400
C 	C 	0.18851 0.93265 0.29943 0.29900
O 	O 	0.24064 0.88231 0.31957 -0.43200
O 	O 	0.14133 0.87448 0.42121 -0.43600
O 	O 	0.16765 0.79299 0.34167 -0.43800
O 	O 	0.12154 0.78582 0.41989 -0.43500
O 	O 	0.23533 0.82281 0.37567 -0.41400
O 	O 	0.09088 0.82667 0.37690 -0.41200
O 	O 	0.18538 0.77721 0.47281 -0.41300
O 	O 	0.19327 0.72596 0.42839 -0.24600
O 	O 	0.19986 0.87436 0.45460 -0.43200
O 	O 	0.18594 0.89290 0.28687 -0.43400
O 	O 	0.25148 0.93326 0.39307 -0.43800
O 	O 	0.18917 0.93984 0.33766 -0.44000
C 	C 	0.05670 0.76448 0.30268 0.27000
O 	O 	0.10360 0.79870 0.28679 -0.41100
Zn	Zn	0.30364 0.70035 0.13026 1.20300
Zn	Zn	0.36787 0.68961 0.17400 1.21700
Zn	Zn	0.32481 0.63466 0.06936 1.21600
P 	P 	0.28277 0.60679 0.16463 0.29900
P 	P 	0.40354 0.72245 0.08024 0.30000
C 	C 	0.31270 0.55061 0.03435 0.27300
C 	C 	0.26717 0.68093 0.06456 0.29400
C 	C 	0.31772 0.74684 0.19917 0.29900
O 	O 	0.26589 0.64458 0.17915 -0.43300
O 	O 	0.36469 0.73551 0.07763 -0.43600
O 	O 	0.33928 0.62821 0.15689 -0.43800
O 	O 	0.38538 0.66705 0.07854 -0.43500
O 	O 	0.27163 0.59062 0.12290 -0.41400
O 	O 	0.41548 0.73818 0.12176 -0.41200
O 	O 	0.32162 0.59471 0.02571 -0.41300
O 	O 	0.47387 0.71535 0.15404 -0.24400
O 	O 	0.31313 0.53538 0.07034 -0.24600
O 	O 	0.30658 0.67714 0.04405 -0.43200
O 	O 	0.32041 0.70972 0.21173 -0.43500
O 	O 	0.25457 0.68429 0.10569 -0.43800
O 	O 	0.31659 0.75308 0.16111 -0.44000
C 	C 	0.45020 0.71085 0.19588 0.27000
O 	O 	0.40309 0.69783 0.21180 -0.41100
C 	C 	0.96597 0.75864 0.48600 -0.02000
H 	H 	0.93474 0.74297 0.47571 0.04300
C 	C 	0.04540 0.79850 0.46544 -0.02300
C 	C 	0.96088 0.75585 0.53324 -0.02300
C 	C 	0.99976 0.80947 0.52369 -0.01400
H 	H 	0.99612 0.83545 0.54427 0.04800
H 	H 	0.07153 0.81124 0.52297 0.04200
H 	H 	0.99786 0.71234 0.54283 0.05200
C 	C 	0.95482 0.71324 0.27482 -0.01000
H 	H 	0.91461 0.69319 0.29580 0.04200
H 	H 	0.98244 0.78917 0.29537 0.03900
C 	C 	0.99216 0.69796 0.27456 -0.01600
H 	H 	0.98303 0.66538 0.29551 0.04100
C 	C 	0.97803 0.72471 0.22470 -0.05500
C 	C 	0.05206 0.76174 0.22376 -0.01100
H 	H 	0.09226 0.78178 0.20278 0.04300
C 	C 	0.25405 0.05324 0.25047 -0.02900
H 	H 	0.27520 0.08576 0.26175 0.03600
C 	C 	0.26399 0.01115 0.24323 -0.00100
H 	H 	0.29297 0.00804 0.24919 0.03700
C 	C 	0.19779 0.01695 0.27346 -0.00200
H 	H 	0.17217 0.01860 0.30444 0.04000
C 	C 	0.20812 0.97530 0.26579 -0.06900
C 	C 	0.24912 0.05326 0.20683 -0.01800
C 	C 	0.19325 0.01775 0.22906 -0.02700
H 	H 	0.16460 0.02122 0.22282 0.04600
C 	C 	0.20315 0.97535 0.22206 0.00200
H 	H 	0.18214 0.94288 0.21066 0.04000
C 	C 	0.25934 0.01166 0.19919 -0.02400
H 	H 	0.28501 0.00996 0.16825 0.05800
C 	C 	0.25794 0.93939 0.50526 -0.00800
H 	H 	0.24203 0.90232 0.52291 0.04100
C 	C 	0.24021 0.97495 0.52204 -0.01200
H 	H 	0.20989 0.96765 0.55386 0.04100
C 	C 	0.31241 0.98046 0.49048 -0.01500
H 	H 	0.34166 0.97773 0.49625 0.04100
C 	C 	0.29441 0.01559 0.50694 -0.05500
C 	C 	0.25978 0.95262 0.46038 -0.06300
C 	C 	0.31400 0.99323 0.44522 -0.00800
H 	H 	0.34429 0.00050 0.41338 0.03900
C 	C 	0.29627 0.02881 0.46205 -0.01400
H 	H 	0.31214 0.06585 0.44435 0.04400
C 	C 	0.24184 0.98776 0.47687 -0.00800
H 	H 	0.21257 0.99049 0.47112 0.03900
C 	C 	0.19412 0.67167 0.50800 -0.01600
H 	H 	0.16496 0.64000 0.50207 0.04100
C 	C 	0.19231 0.68262 0.55336 -0.01000
H 	H 	0.16195 0.65972 0.58513 0.04000
C 	C 	0.24858 0.68464 0.49333 -0.00800
H 	H 	0.26458 0.66344 0.47561 0.04100
C 	C 	0.24654 0.69581 0.53831 -0.06200
C 	C 	0.21210 0.72468 0.49172 -0.05400
C 	C 	0.26629 0.73781 0.47673 -0.01300
H 	H 	0.29669 0.76071 0.44498 0.04100
C 	C 	0.26446 0.74877 0.52200 -0.00800
H 	H 	0.29364 0.78046 0.52791 0.03900
C 	C 	0.21004 0.73582 0.53671 -0.01200
H 	H 	0.19407 0.75702 0.55448 0.04400
C 	C 	0.25251 0.80265 0.24823 -0.02900
H 	H 	0.23122 0.81410 0.23708 0.03600
C 	C 	0.24260 0.75073 0.25559 0.00000
H 	H 	0.21348 0.71880 0.24985 0.03800
C 	C 	0.30875 0.82212 0.22499 -0.00100
H 	H 	0.33420 0.84905 0.19391 0.04000
C 	C 	0.29844 0.77026 0.23277 -0.07000
C 	C 	0.25780 0.80782 0.29171 -0.01800
C 	C 	0.31364 0.82769 0.26923 -0.02600
H 	H 	0.34241 0.85965 0.27527 0.04600
C 	C 	0.30377 0.77548 0.27635 0.00100
H 	H 	0.32492 0.76394 0.28762 0.04000
C 	C 	0.24760 0.75609 0.29947 -0.02300
H 	H 	0.22211 0.72906 0.33049 0.05800
Zn	Zn	0.20246 0.90028 0.86851 1.20300
Zn	Zn	0.13874 0.82568 0.82461 1.21600
Zn	Zn	0.18202 0.81386 0.92920 1.21600
P 	P 	0.22409 0.82786 0.83397 0.29900
P 	P 	0.10284 0.82280 0.91842 0.30000
C 	C 	0.19392 0.74172 0.96430 0.27300
C 	C 	0.23909 0.91733 0.93412 0.29400
C 	C 	0.18851 0.93265 0.79943 0.29900
O 	O 	0.24064 0.88231 0.81958 -0.43200
O 	O 	0.14133 0.87448 0.92121 -0.43600
O 	O 	0.16765 0.79299 0.84167 -0.43800
O 	O 	0.12154 0.78582 0.91989 -0.43500
O 	O 	0.23533 0.82282 0.87567 -0.41400
O 	O 	0.09088 0.82667 0.87690 -0.41200
O 	O 	0.18538 0.77721 0.97281 -0.41300
O 	O 	0.19327 0.72596 0.92839 -0.24600
O 	O 	0.19986 0.87436 0.95460 -0.43200
O 	O 	0.18594 0.89290 0.78687 -0.43400
O 	O 	0.25148 0.93326 0.89307 -0.43800
O 	O 	0.18917 0.93984 0.83766 -0.44000
C 	C 	0.05670 0.76448 0.80268 0.27000
O 	O 	0.10360 0.79870 0.78679 -0.41100
Zn	Zn	0.30364 0.70035 0.63026 1.20300
Zn	Zn	0.36787 0.68961 0.67400 1.21700
Zn	Zn	0.32481 0.63466 0.56936 1.21600
P 	P 	0.28278 0.60678 0.66463 0.29900
P 	P 	0.40354 0.72245 0.58023 0.30000
C 	C 	0.31270 0.55061 0.53436 0.27300
C 	C 	0.26717 0.68093 0.56456 0.29400
C 	C 	0.31772 0.74684 0.69917 0.29900
O 	O 	0.26589 0.64458 0.67915 -0.43300
O 	O 	0.36469 0.73551 0.57763 -0.43600
O 	O 	0.33928 0.62821 0.65689 -0.43800
O 	O 	0.38538 0.66705 0.57854 -0.43500
O 	O 	0.27163 0.59062 0.62290 -0.41400
O 	O 	0.41548 0.73818 0.62176 -0.41200
O 	O 	0.32162 0.59471 0.52571 -0.41300
O 	O 	0.47387 0.71535 0.65404 -0.24400
O 	O 	0.31313 0.53538 0.57034 -0.24600
O 	O 	0.30658 0.67714 0.54405 -0.43200
O 	O 	0.32041 0.70972 0.71173 -0.43500
O 	O 	0.25457 0.68429 0.60569 -0.43800
O 	O 	0.31659 0.75308 0.66111 -0.44000
C 	C 	0.45019 0.71085 0.69588 0.27000
O 	O 	0.40309 0.69783 0.71181 -0.41100
C 	C 	0.96597 0.75864 0.98600 -0.02100
H 	H 	0.93474 0.74297 0.97572 0.04300
C 	C 	0.04540 0.79850 0.96544 -0.02300
C 	C 	0.96088 0.75585 0.03324 -0.02300
C 	C 	0.99976 0.80947 0.02369 -0.01400
H 	H 	0.99612 0.83545 0.04427 0.04800
H 	H 	0.07153 0.81124 0.02297 0.04200
H 	H 	0.99786 0.71234 0.04283 0.05200
C 	C 	0.95482 0.71324 0.77482 -0.01000
H 	H 	0.91461 0.69319 0.79580 0.04200
H 	H 	0.98244 0.78917 0.79537 0.03900
C 	C 	0.99216 0.69796 0.77456 -0.01600
H 	H 	0.98303 0.66538 0.79551 0.04100
C 	C 	0.97803 0.72471 0.72470 -0.05500
C 	C 	0.05206 0.76174 0.72376 -0.01200
H 	H 	0.09226 0.78179 0.70278 0.04300
C 	C 	0.25405 0.05324 0.75047 -0.02900
H 	H 	0.27520 0.08576 0.76175 0.03600
C 	C 	0.26399 0.01115 0.74323 -0.00100
H 	H 	0.29297 0.00804 0.74919 0.03700
C 	C 	0.19779 0.01695 0.77346 -0.00200
H 	H 	0.17217 0.01860 0.80444 0.04000
C 	C 	0.20812 0.97530 0.76579 -0.06900
C 	C 	0.24912 0.05326 0.70683 -0.01800
C 	C 	0.19325 0.01775 0.72906 -0.02700
H 	H 	0.16460 0.02122 0.72282 0.04600
C 	C 	0.20315 0.97535 0.72206 0.00200
H 	H 	0.18214 0.94288 0.71066 0.04000
C 	C 	0.25934 0.01166 0.69918 -0.02400
H 	H 	0.28501 0.00996 0.66825 0.05800
C 	C 	0.25794 0.93939 0.00526 -0.00800
H 	H 	0.24203 0.90232 0.02291 0.04100
C 	C 	0.24021 0.97495 0.02204 -0.01200
H 	H 	0.20989 0.96765 0.05386 0.04100
C 	C 	0.31241 0.98046 0.99048 -0.01500
H 	H 	0.34166 0.97773 0.99625 0.04100
C 	C 	0.29441 0.01559 0.00694 -0.05500
C 	C 	0.25978 0.95262 0.96039 -0.06300
C 	C 	0.31400 0.99323 0.94522 -0.00800
H 	H 	0.34429 0.00050 0.91338 0.03900
C 	C 	0.29627 0.02881 0.96205 -0.01400
H 	H 	0.31214 0.06585 0.94435 0.04400
C 	C 	0.24184 0.98776 0.97687 -0.00700
H 	H 	0.21257 0.99049 0.97112 0.03900
C 	C 	0.19412 0.67167 0.00800 -0.01600
H 	H 	0.16496 0.64000 0.00207 0.04100
C 	C 	0.19231 0.68262 0.05336 -0.01000
H 	H 	0.16195 0.65972 0.08513 0.04000
C 	C 	0.24858 0.68464 0.99333 -0.00700
H 	H 	0.26458 0.66344 0.97561 0.04100
C 	C 	0.24654 0.69581 0.03831 -0.06200
C 	C 	0.21210 0.72467 0.99172 -0.05400
C 	C 	0.26629 0.73781 0.97673 -0.01300
H 	H 	0.29669 0.76071 0.94498 0.04100
C 	C 	0.26446 0.74877 0.02200 -0.00800
H 	H 	0.29364 0.78046 0.02791 0.03900
C 	C 	0.21004 0.73582 0.03671 -0.01200
H 	H 	0.19407 0.75702 0.05448 0.04400
C 	C 	0.25251 0.80265 0.74823 -0.02900
H 	H 	0.23122 0.81410 0.73708 0.03600
C 	C 	0.24260 0.75073 0.75559 0.00000
H 	H 	0.21348 0.71880 0.74985 0.03800
C 	C 	0.30875 0.82212 0.72499 -0.00100
H 	H 	0.33420 0.84905 0.69391 0.04000
C 	C 	0.29844 0.77026 0.73277 -0.07000
C 	C 	0.25780 0.80782 0.79171 -0.01800
C 	C 	0.31364 0.82769 0.76923 -0.02600
H 	H 	0.34241 0.85965 0.77527 0.04600
C 	C 	0.30377 0.77548 0.77635 0.00100
H 	H 	0.32492 0.76394 0.78762 0.04000
C 	C 	0.24760 0.75609 0.79947 -0.02300
H 	H 	0.22211 0.72906 0.83049 0.05800
Zn	Zn	0.70246 0.40027 0.36851 1.20300
Zn	Zn	0.63874 0.32568 0.32461 1.21600
Zn	Zn	0.68202 0.31386 0.42920 1.21600
P 	P 	0.72409 0.32785 0.33397 0.29900
P 	P 	0.60284 0.32280 0.41842 0.30000
C 	C 	0.69392 0.24172 0.46430 0.27300
C 	C 	0.73909 0.41733 0.43412 0.29400
C 	C 	0.68851 0.43265 0.29943 0.29900
O 	O 	0.74064 0.38231 0.31957 -0.43300
O 	O 	0.64133 0.37448 0.42121 -0.43600
O 	O 	0.66765 0.29299 0.34167 -0.43800
O 	O 	0.62154 0.28582 0.41989 -0.43500
O 	O 	0.73533 0.32282 0.37567 -0.41400
O 	O 	0.59088 0.32667 0.37690 -0.41200
O 	O 	0.68538 0.27721 0.47281 -0.41300
O 	O 	0.53320 0.24531 0.34448 -0.24400
O 	O 	0.69327 0.22596 0.42839 -0.24600
O 	O 	0.69986 0.37436 0.45460 -0.43200
O 	O 	0.68594 0.39290 0.28687 -0.43400
O 	O 	0.75148 0.43326 0.39307 -0.43800
O 	O 	0.68917 0.43984 0.33766 -0.44100
C 	C 	0.55670 0.26448 0.30268 0.27000
O 	O 	0.60360 0.29870 0.28679 -0.41100
Zn	Zn	0.80364 0.20035 0.13026 1.20300
Zn	Zn	0.86786 0.18961 0.17400 1.21700
Zn	Zn	0.82481 0.13466 0.06936 1.21600
P 	P 	0.78278 0.10679 0.16463 0.29900
P 	P 	0.90354 0.22245 0.08024 0.30000
C 	C 	0.81270 0.05061 0.03435 0.27300
C 	C 	0.76717 0.18093 0.06456 0.29400
C 	C 	0.81772 0.24684 0.19917 0.29900
O 	O 	0.76589 0.14458 0.17915 -0.43300
O 	O 	0.86469 0.23551 0.07763 -0.43600
O 	O 	0.83928 0.12821 0.15689 -0.43800
O 	O 	0.88538 0.16705 0.07854 -0.43500
O 	O 	0.77163 0.09062 0.12290 -0.41400
O 	O 	0.91548 0.23818 0.12176 -0.41200
O 	O 	0.82162 0.09471 0.02571 -0.41300
O 	O 	0.97387 0.21535 0.15404 -0.24400
O 	O 	0.81313 0.03538 0.07034 -0.24600
O 	O 	0.80658 0.17714 0.04405 -0.43200
O 	O 	0.82041 0.20972 0.21173 -0.43500
O 	O 	0.75457 0.18429 0.10569 -0.43800
O 	O 	0.81659 0.25308 0.16111 -0.44000
C 	C 	0.95020 0.21085 0.19588 0.27100
O 	O 	0.90309 0.19783 0.21180 -0.41100
C 	C 	0.46597 0.25864 0.48600 -0.01900
H 	H 	0.43474 0.24297 0.47571 0.04300
C 	C 	0.50629 0.24492 0.47523 -0.01700
H 	H 	0.50956 0.21863 0.45489 0.05300
C 	C 	0.50588 0.31277 0.47550 -0.01300
H 	H 	0.50899 0.34233 0.45536 0.04700
C 	C 	0.54540 0.29850 0.46544 -0.02300
C 	C 	0.46088 0.25585 0.53324 -0.02300
C 	C 	0.49976 0.30947 0.52369 -0.01300
H 	H 	0.49612 0.33545 0.54427 0.04800
C 	C 	0.54030 0.29572 0.51268 -0.01900
H 	H 	0.57153 0.31124 0.52297 0.04200
C 	C 	0.50062 0.24185 0.52293 -0.01700
H 	H 	0.49786 0.21234 0.54283 0.05200
C 	C 	0.45482 0.21324 0.27482 -0.01100
H 	H 	0.41461 0.19319 0.29580 0.04300
C 	C 	0.49183 0.26573 0.27448 -0.01300
H 	H 	0.48244 0.28917 0.29537 0.03900
C 	C 	0.49216 0.19796 0.27456 -0.01400
H 	H 	0.48303 0.16538 0.29551 0.04100
C 	C 	0.52884 0.25029 0.27388 -0.05300
C 	C 	0.47803 0.22470 0.22470 -0.05300
C 	C 	0.51505 0.20926 0.22410 -0.01400
H 	H 	0.52446 0.18582 0.20322 0.04100
C 	C 	0.55206 0.26174 0.22376 -0.01100
H 	H 	0.59226 0.28179 0.20278 0.04300
C 	C 	0.51471 0.27702 0.22402 -0.01300
H 	H 	0.52383 0.30958 0.20307 0.03900
C 	C 	0.75405 0.55324 0.25047 -0.02900
H 	H 	0.77520 0.58576 0.26175 0.03600
C 	C 	0.76399 0.51115 0.24323 0.00000
H 	H 	0.79297 0.50804 0.24919 0.03800
C 	C 	0.69779 0.51694 0.27346 -0.00100
H 	H 	0.67217 0.51860 0.30444 0.04000
C 	C 	0.70812 0.47530 0.26579 -0.07000
C 	C 	0.74912 0.55326 0.20683 -0.01800
C 	C 	0.69325 0.51776 0.22906 -0.02600
H 	H 	0.66460 0.52122 0.22282 0.04600
C 	C 	0.70315 0.47535 0.22206 0.00100
H 	H 	0.68214 0.44288 0.21066 0.04000
C 	C 	0.75935 0.51166 0.19919 -0.02300
H 	H 	0.78501 0.50996 0.16825 0.05800
C 	C 	0.75794 0.43939 0.50526 -0.00800
H 	H 	0.74203 0.40232 0.52291 0.04100
C 	C 	0.74021 0.47495 0.52204 -0.01300
H 	H 	0.70989 0.46765 0.55386 0.04100
C 	C 	0.81241 0.48046 0.49048 -0.01600
H 	H 	0.84166 0.47773 0.49625 0.04100
C 	C 	0.79441 0.51558 0.50694 -0.05400
C 	C 	0.75978 0.45262 0.46038 -0.06200
C 	C 	0.81400 0.49323 0.44522 -0.01000
H 	H 	0.84429 0.50050 0.41338 0.04000
C 	C 	0.79627 0.52881 0.46205 -0.01200
H 	H 	0.81214 0.56585 0.44435 0.04400
C 	C 	0.74184 0.48776 0.47687 -0.00800
H 	H 	0.71257 0.49049 0.47112 0.03900
C 	C 	0.69412 0.17167 0.50800 -0.01600
H 	H 	0.66496 0.14000 0.50207 0.04100
C 	C 	0.69231 0.18262 0.55336 -0.01000
H 	H 	0.66195 0.15972 0.58513 0.04000
C 	C 	0.74858 0.18464 0.49333 -0.00800
H 	H 	0.76458 0.16344 0.47561 0.04100
C 	C 	0.74653 0.19581 0.53831 -0.06200
C 	C 	0.71210 0.22468 0.49172 -0.05400
C 	C 	0.76629 0.23781 0.47673 -0.01300
H 	H 	0.79669 0.26071 0.44498 0.04100
C 	C 	0.76446 0.24877 0.52200 -0.00800
H 	H 	0.79364 0.28046 0.52791 0.03900
C 	C 	0.71004 0.23582 0.53671 -0.01200
H 	H 	0.69407 0.25703 0.55448 0.04400
C 	C 	0.75251 0.30265 0.24823 -0.02900
H 	H 	0.73122 0.31410 0.23708 0.03600
C 	C 	0.74260 0.25073 0.25559 0.00000
H 	H 	0.71348 0.21880 0.24985 0.03800
C 	C 	0.80875 0.32212 0.22499 -0.00100
H 	H 	0.83420 0.34905 0.19391 0.04000
C 	C 	0.79844 0.27026 0.23277 -0.07000
C 	C 	0.75780 0.30782 0.29171 -0.01800
C 	C 	0.81364 0.32769 0.26923 -0.02600
H 	H 	0.84241 0.35965 0.27527 0.04600
C 	C 	0.80377 0.27548 0.27635 0.00100
H 	H 	0.82492 0.26393 0.28762 0.04000
C 	C 	0.74760 0.25609 0.29947 -0.02300
H 	H 	0.72211 0.22906 0.33049 0.05800
Zn	Zn	0.70246 0.40028 0.86851 1.20300
Zn	Zn	0.63874 0.32568 0.82461 1.21600
Zn	Zn	0.68202 0.31386 0.92920 1.21600
P 	P 	0.72409 0.32786 0.83397 0.29900
P 	P 	0.60284 0.32280 0.91842 0.30000
C 	C 	0.69392 0.24172 0.96430 0.27300
C 	C 	0.73909 0.41733 0.93412 0.29400
C 	C 	0.68851 0.43264 0.79943 0.29900
O 	O 	0.74064 0.38231 0.81958 -0.43300
O 	O 	0.64133 0.37448 0.92121 -0.43600
O 	O 	0.66765 0.29299 0.84167 -0.43800
O 	O 	0.62154 0.28582 0.91989 -0.43500
O 	O 	0.73533 0.32282 0.87567 -0.41400
O 	O 	0.59088 0.32667 0.87690 -0.41200
O 	O 	0.68538 0.27721 0.97281 -0.41300
O 	O 	0.53320 0.24532 0.84448 -0.24400
O 	O 	0.69327 0.22596 0.92839 -0.24600
O 	O 	0.69986 0.37436 0.95460 -0.43200
O 	O 	0.68594 0.39290 0.78687 -0.43400
O 	O 	0.75148 0.43326 0.89307 -0.43800
O 	O 	0.68917 0.43984 0.83766 -0.44100
C 	C 	0.55670 0.26448 0.80268 0.27000
O 	O 	0.60360 0.29870 0.78679 -0.41100
Zn	Zn	0.80364 0.20035 0.63026 1.20300
Zn	Zn	0.86786 0.18961 0.67400 1.21700
Zn	Zn	0.82481 0.13466 0.56936 1.21600
P 	P 	0.78278 0.10678 0.66463 0.29900
P 	P 	0.90354 0.22245 0.58023 0.30000
C 	C 	0.81270 0.05061 0.53436 0.27300
C 	C 	0.76717 0.18093 0.56456 0.29400
C 	C 	0.81772 0.24684 0.69917 0.29900
O 	O 	0.76589 0.14458 0.67915 -0.43300
O 	O 	0.86469 0.23551 0.57763 -0.43600
O 	O 	0.83928 0.12821 0.65689 -0.43800
O 	O 	0.88538 0.16705 0.57854 -0.43500
O 	O 	0.77163 0.09062 0.62290 -0.41400
O 	O 	0.91548 0.23818 0.62176 -0.41200
O 	O 	0.82162 0.09471 0.52571 -0.41300
O 	O 	0.97387 0.21535 0.65404 -0.24400
O 	O 	0.81313 0.03538 0.57034 -0.24600
O 	O 	0.80658 0.17714 0.54405 -0.43200
O 	O 	0.82041 0.20972 0.71173 -0.43500
O 	O 	0.75457 0.18429 0.60569 -0.43800
O 	O 	0.81659 0.25308 0.66111 -0.44000
C 	C 	0.95019 0.21085 0.69588 0.27100
O 	O 	0.90309 0.19782 0.71181 -0.41100
C 	C 	0.46597 0.25864 0.98600 -0.01900
H 	H 	0.43474 0.24297 0.97572 0.04300
C 	C 	0.50629 0.24492 0.97523 -0.01700
H 	H 	0.50956 0.21863 0.95489 0.05300
C 	C 	0.50588 0.31277 0.97550 -0.01300
H 	H 	0.50899 0.34233 0.95536 0.04700
C 	C 	0.54540 0.29850 0.96544 -0.02300
C 	C 	0.46088 0.25585 0.03324 -0.02300
C 	C 	0.49976 0.30947 0.02369 -0.01300
H 	H 	0.49612 0.33545 0.04427 0.04700
C 	C 	0.54030 0.29572 0.01268 -0.01900
H 	H 	0.57153 0.31124 0.02297 0.04200
C 	C 	0.50062 0.24185 0.02293 -0.01700
H 	H 	0.49786 0.21234 0.04283 0.05200
C 	C 	0.45482 0.21324 0.77482 -0.01100
H 	H 	0.41461 0.19319 0.79580 0.04300
C 	C 	0.49183 0.26572 0.77448 -0.01300
H 	H 	0.48244 0.28917 0.79537 0.03900
C 	C 	0.49216 0.19796 0.77456 -0.01400
H 	H 	0.48303 0.16538 0.79551 0.04100
C 	C 	0.52884 0.25029 0.77388 -0.05300
C 	C 	0.47803 0.22471 0.72470 -0.05300
C 	C 	0.51505 0.20926 0.72410 -0.01400
H 	H 	0.52446 0.18582 0.70322 0.04100
C 	C 	0.55206 0.26174 0.72376 -0.01100
H 	H 	0.59226 0.28179 0.70278 0.04300
C 	C 	0.51471 0.27702 0.72402 -0.01300
H 	H 	0.52382 0.30958 0.70307 0.03900
C 	C 	0.75405 0.55324 0.75047 -0.02900
H 	H 	0.77520 0.58576 0.76175 0.03600
C 	C 	0.76399 0.51115 0.74323 0.00000
H 	H 	0.79297 0.50804 0.74919 0.03800
C 	C 	0.69779 0.51694 0.77346 -0.00100
H 	H 	0.67217 0.51860 0.80444 0.04000
C 	C 	0.70812 0.47531 0.76579 -0.07000
C 	C 	0.74912 0.55326 0.70683 -0.01800
C 	C 	0.69325 0.51775 0.72906 -0.02600
H 	H 	0.66460 0.52122 0.72282 0.04600
C 	C 	0.70315 0.47535 0.72206 0.00100
H 	H 	0.68214 0.44288 0.71066 0.04000
C 	C 	0.75935 0.51166 0.69918 -0.02300
H 	H 	0.78501 0.50996 0.66825 0.05800
C 	C 	0.75794 0.43939 0.00526 -0.00700
H 	H 	0.74203 0.40232 0.02291 0.04100
C 	C 	0.74021 0.47495 0.02204 -0.01300
H 	H 	0.70989 0.46765 0.05386 0.04100
C 	C 	0.81241 0.48046 0.99048 -0.01600
H 	H 	0.84166 0.47773 0.99625 0.04100
C 	C 	0.79441 0.51559 0.00694 -0.05300
C 	C 	0.75978 0.45262 0.96039 -0.06200
C 	C 	0.81400 0.49323 0.94522 -0.01000
H 	H 	0.84429 0.50050 0.91338 0.04000
C 	C 	0.79627 0.52881 0.96205 -0.01200
H 	H 	0.81214 0.56585 0.94435 0.04400
C 	C 	0.74184 0.48776 0.97687 -0.00800
H 	H 	0.71257 0.49049 0.97112 0.03900
C 	C 	0.69412 0.17167 0.00800 -0.01600
H 	H 	0.66496 0.14000 0.00207 0.04100
C 	C 	0.69231 0.18262 0.05336 -0.01000
H 	H 	0.66195 0.15972 0.08513 0.04000
C 	C 	0.74858 0.18464 0.99333 -0.00800
H 	H 	0.76458 0.16344 0.97561 0.04100
C 	C 	0.74654 0.19581 0.03831 -0.06200
C 	C 	0.71210 0.22468 0.99172 -0.05400
C 	C 	0.76629 0.23781 0.97673 -0.01300
H 	H 	0.79669 0.26071 0.94498 0.04100
C 	C 	0.76446 0.24877 0.02200 -0.00800
H 	H 	0.79364 0.28046 0.02791 0.03900
C 	C 	0.71004 0.23582 0.03671 -0.01200
H 	H 	0.69407 0.25703 0.05448 0.04400
C 	C 	0.75251 0.30265 0.74823 -0.02900
H 	H 	0.73122 0.31410 0.73708 0.03600
C 	C 	0.74260 0.25073 0.75559 0.00000
H 	H 	0.71348 0.21880 0.74985 0.03800
C 	C 	0.80875 0.32212 0.72499 -0.00100
H 	H 	0.83420 0.34905 0.69391 0.04000
C 	C 	0.79844 0.27026 0.73277 -0.07000
C 	C 	0.75780 0.30782 0.79171 -0.01800
C 	C 	0.81364 0.32769 0.76923 -0.02600
H 	H 	0.84241 0.35965 0.77527 0.04600
C 	C 	0.80377 0.27548 0.77635 0.00100
H 	H 	0.82492 0.26394 0.78762 0.04000
C 	C 	0.74760 0.25609 0.79947 -0.02300
H 	H 	0.72211 0.22906 0.83049 0.05800
Zn	Zn	0.70246 0.90027 0.36851 1.20300
Zn	Zn	0.63874 0.82568 0.32461 1.21600
Zn	Zn	0.68202 0.81386 0.42920 1.21600
P 	P 	0.72409 0.82786 0.33397 0.29900
P 	P 	0.60284 0.82280 0.41842 0.30000
C 	C 	0.69392 0.74172 0.46430 0.27300
C 	C 	0.73909 0.91732 0.43412 0.29400
C 	C 	0.68851 0.93265 0.29943 0.29900
O 	O 	0.74064 0.88231 0.31957 -0.43200
O 	O 	0.64133 0.87448 0.42121 -0.43600
O 	O 	0.66765 0.79299 0.34167 -0.43800
O 	O 	0.62154 0.78582 0.41989 -0.43500
O 	O 	0.73533 0.82281 0.37567 -0.41400
O 	O 	0.59088 0.82667 0.37690 -0.41200
O 	O 	0.68538 0.77721 0.47281 -0.41300
O 	O 	0.53320 0.74532 0.34448 -0.24400
O 	O 	0.69327 0.72596 0.42839 -0.24600
O 	O 	0.69986 0.87436 0.45460 -0.43200
O 	O 	0.68594 0.89290 0.28687 -0.43400
O 	O 	0.75148 0.93326 0.39307 -0.43800
O 	O 	0.68917 0.93984 0.33766 -0.44000
C 	C 	0.55670 0.76448 0.30268 0.27000
O 	O 	0.60360 0.79870 0.28679 -0.41100
Zn	Zn	0.80364 0.70035 0.13026 1.20300
Zn	Zn	0.86787 0.68961 0.17400 1.21700
Zn	Zn	0.82481 0.63466 0.06936 1.21600
P 	P 	0.78278 0.60679 0.16463 0.29900
P 	P 	0.90354 0.72245 0.08024 0.30000
C 	C 	0.81270 0.55061 0.03435 0.27300
C 	C 	0.76717 0.68093 0.06456 0.29400
C 	C 	0.81772 0.74684 0.19917 0.29900
O 	O 	0.76589 0.64458 0.17915 -0.43300
O 	O 	0.86469 0.73551 0.07763 -0.43600
O 	O 	0.83928 0.62821 0.15689 -0.43800
O 	O 	0.88538 0.66705 0.07854 -0.43500
O 	O 	0.77163 0.59062 0.12290 -0.41400
O 	O 	0.91548 0.73818 0.12176 -0.41200
O 	O 	0.82162 0.59471 0.02571 -0.41300
O 	O 	0.97387 0.71535 0.15404 -0.24400
O 	O 	0.81313 0.53538 0.07034 -0.24600
O 	O 	0.80658 0.67714 0.04405 -0.43200
O 	O 	0.82041 0.70972 0.21173 -0.43500
O 	O 	0.75457 0.68429 0.10569 -0.43800
O 	O 	0.81659 0.75308 0.16111 -0.44000
C 	C 	0.95020 0.71085 0.19588 0.27100
O 	O 	0.90309 0.69783 0.21180 -0.41100
C 	C 	0.46597 0.75864 0.48600 -0.01900
H 	H 	0.43474 0.74297 0.47571 0.04300
C 	C 	0.50629 0.74492 0.47523 -0.01700
H 	H 	0.50956 0.71863 0.45489 0.05300
C 	C 	0.50588 0.81277 0.47550 -0.01300
H 	H 	0.50899 0.84233 0.45536 0.04800
C 	C 	0.54540 0.79850 0.46544 -0.02300
C 	C 	0.46088 0.75585 0.53324 -0.02300
C 	C 	0.49976 0.80947 0.52369 -0.01300
H 	H 	0.49612 0.83545 0.54427 0.04800
C 	C 	0.54030 0.79572 0.51268 -0.01900
H 	H 	0.57153 0.81124 0.52297 0.04200
C 	C 	0.50062 0.74185 0.52293 -0.01700
H 	H 	0.49786 0.71234 0.54283 0.05200
C 	C 	0.45482 0.71324 0.27482 -0.01100
H 	H 	0.41461 0.69319 0.29580 0.04300
C 	C 	0.49183 0.76573 0.27448 -0.01300
H 	H 	0.48244 0.78917 0.29537 0.03900
C 	C 	0.49216 0.69796 0.27456 -0.01400
H 	H 	0.48303 0.66538 0.29551 0.04100
C 	C 	0.52884 0.75029 0.27388 -0.05300
C 	C 	0.47803 0.72471 0.22470 -0.05300
C 	C 	0.51505 0.70926 0.22410 -0.01400
H 	H 	0.52446 0.68582 0.20322 0.04100
C 	C 	0.55206 0.76174 0.22376 -0.01100
H 	H 	0.59226 0.78178 0.20278 0.04300
C 	C 	0.51471 0.77702 0.22402 -0.01300
H 	H 	0.52383 0.80958 0.20307 0.03900
C 	C 	0.75405 0.05324 0.25047 -0.02900
H 	H 	0.77520 0.08576 0.26175 0.03600
C 	C 	0.76399 0.01115 0.24323 -0.00100
H 	H 	0.79297 0.00804 0.24919 0.03700
C 	C 	0.69779 0.01695 0.27346 -0.00200
H 	H 	0.67217 0.01860 0.30444 0.04000
C 	C 	0.70812 0.97530 0.26579 -0.06900
C 	C 	0.74911 0.05326 0.20683 -0.01800
C 	C 	0.69325 0.01775 0.22906 -0.02700
H 	H 	0.66460 0.02122 0.22282 0.04600
C 	C 	0.70315 0.97535 0.22206 0.00200
H 	H 	0.68214 0.94288 0.21066 0.04000
C 	C 	0.75935 0.01166 0.19919 -0.02400
H 	H 	0.78501 0.00996 0.16825 0.05800
C 	C 	0.75794 0.93939 0.50526 -0.00800
H 	H 	0.74203 0.90232 0.52291 0.04100
C 	C 	0.74021 0.97495 0.52204 -0.01200
H 	H 	0.70989 0.96765 0.55386 0.04100
C 	C 	0.81241 0.98046 0.49048 -0.01500
H 	H 	0.84166 0.97773 0.49625 0.04100
C 	C 	0.79441 0.01559 0.50694 -0.05500
C 	C 	0.75978 0.95262 0.46038 -0.06300
C 	C 	0.81400 0.99323 0.44522 -0.00800
H 	H 	0.84429 0.00050 0.41338 0.03900
C 	C 	0.79627 0.02881 0.46205 -0.01400
H 	H 	0.81214 0.06585 0.44435 0.04400
C 	C 	0.74184 0.98776 0.47687 -0.00700
H 	H 	0.71257 0.99049 0.47112 0.03900
C 	C 	0.69412 0.67167 0.50800 -0.01600
H 	H 	0.66496 0.64000 0.50207 0.04100
C 	C 	0.69231 0.68262 0.55336 -0.01000
H 	H 	0.66195 0.65972 0.58513 0.04000
C 	C 	0.74858 0.68464 0.49333 -0.00800
H 	H 	0.76458 0.66344 0.47561 0.04100
C 	C 	0.74653 0.69581 0.53831 -0.06200
C 	C 	0.71210 0.72468 0.49172 -0.05400
C 	C 	0.76629 0.73781 0.47673 -0.01300
H 	H 	0.79669 0.76071 0.44498 0.04100
C 	C 	0.76446 0.74877 0.52200 -0.00800
H 	H 	0.79364 0.78046 0.52791 0.03900
C 	C 	0.71004 0.73582 0.53671 -0.01200
H 	H 	0.69407 0.75702 0.55448 0.04400
C 	C 	0.75251 0.80265 0.24823 -0.02900
H 	H 	0.73122 0.81410 0.23708 0.03600
C 	C 	0.74260 0.75073 0.25559 0.00000
H 	H 	0.71348 0.71880 0.24985 0.03800
C 	C 	0.80875 0.82212 0.22499 -0.00100
H 	H 	0.83420 0.84905 0.19391 0.04000
C 	C 	0.79844 0.77026 0.23277 -0.07000
C 	C 	0.75780 0.80782 0.29171 -0.01800
C 	C 	0.81364 0.82769 0.26923 -0.02600
H 	H 	0.84241 0.85965 0.27527 0.04600
C 	C 	0.80377 0.77548 0.27635 0.00100
H 	H 	0.82492 0.76394 0.28762 0.04000
C 	C 	0.74760 0.75609 0.29947 -0.02300
H 	H 	0.72211 0.72906 0.33049 0.05800
Zn	Zn	0.70246 0.90028 0.86851 1.20300
Zn	Zn	0.63874 0.82568 0.82461 1.21600
Zn	Zn	0.68202 0.81386 0.92920 1.21600
P 	P 	0.72409 0.82786 0.83397 0.29900
P 	P 	0.60284 0.82280 0.91842 0.30000
C 	C 	0.69392 0.74172 0.96430 0.27300
C 	C 	0.73909 0.91733 0.93412 0.29400
C 	C 	0.68851 0.93265 0.79943 0.29900
O 	O 	0.74064 0.88231 0.81958 -0.43200
O 	O 	0.64133 0.87448 0.92121 -0.43600
O 	O 	0.66765 0.79299 0.84167 -0.43800
O 	O 	0.62154 0.78582 0.91989 -0.43500
O 	O 	0.73533 0.82282 0.87567 -0.41400
O 	O 	0.59088 0.82667 0.87690 -0.41200
O 	O 	0.68538 0.77721 0.97281 -0.41300
O 	O 	0.53320 0.74531 0.84448 -0.24400
O 	O 	0.69327 0.72596 0.92839 -0.24600
O 	O 	0.69986 0.87436 0.95460 -0.43200
O 	O 	0.68594 0.89290 0.78687 -0.43400
O 	O 	0.75148 0.93326 0.89307 -0.43800
O 	O 	0.68917 0.93984 0.83766 -0.44000
C 	C 	0.55670 0.76448 0.80268 0.27000
O 	O 	0.60360 0.79870 0.78679 -0.41100
Zn	Zn	0.80364 0.70035 0.63026 1.20300
Zn	Zn	0.86787 0.68961 0.67400 1.21700
Zn	Zn	0.82481 0.63466 0.56936 1.21600
P 	P 	0.78277 0.60678 0.66463 0.29900
P 	P 	0.90354 0.72245 0.58023 0.30000
C 	C 	0.81270 0.55061 0.53436 0.27300
C 	C 	0.76717 0.68093 0.56456 0.29400
C 	C 	0.81772 0.74684 0.69917 0.29900
O 	O 	0.76589 0.64458 0.67915 -0.43300
O 	O 	0.86469 0.73551 0.57763 -0.43600
O 	O 	0.83928 0.62821 0.65689 -0.43800
O 	O 	0.88538 0.66705 0.57854 -0.43500
O 	O 	0.77163 0.59062 0.62290 -0.41400
O 	O 	0.91548 0.73818 0.62176 -0.41200
O 	O 	0.82162 0.59471 0.52571 -0.41300
O 	O 	0.97387 0.71535 0.65404 -0.24400
O 	O 	0.81313 0.53538 0.57034 -0.24600
O 	O 	0.80658 0.67714 0.54405 -0.43200
O 	O 	0.82040 0.70972 0.71173 -0.43500
O 	O 	0.75457 0.68429 0.60569 -0.43800
O 	O 	0.81659 0.75308 0.66111 -0.44000
C 	C 	0.95020 0.71085 0.69588 0.27100
O 	O 	0.90309 0.69783 0.71181 -0.41100
C 	C 	0.46597 0.75864 0.98600 -0.01900
H 	H 	0.43474 0.74297 0.97572 0.04300
C 	C 	0.50629 0.74492 0.97523 -0.01700
H 	H 	0.50956 0.71863 0.95489 0.05300
C 	C 	0.50588 0.81277 0.97550 -0.01300
H 	H 	0.50899 0.84233 0.95536 0.04800
C 	C 	0.54540 0.79850 0.96544 -0.02300
C 	C 	0.46088 0.75585 0.03324 -0.02300
C 	C 	0.49976 0.80947 0.02369 -0.01300
H 	H 	0.49612 0.83545 0.04427 0.04800
C 	C 	0.54030 0.79572 0.01268 -0.01900
H 	H 	0.57153 0.81124 0.02297 0.04200
C 	C 	0.50062 0.74185 0.02293 -0.01700
H 	H 	0.49786 0.71234 0.04283 0.05200
C 	C 	0.45482 0.71324 0.77482 -0.01100
H 	H 	0.41461 0.69319 0.79580 0.04300
C 	C 	0.49183 0.76572 0.77448 -0.01300
H 	H 	0.48244 0.78917 0.79537 0.03900
C 	C 	0.49216 0.69796 0.77456 -0.01400
H 	H 	0.48303 0.66538 0.79551 0.04100
C 	C 	0.52884 0.75029 0.77388 -0.05300
C 	C 	0.47803 0.72471 0.72470 -0.05300
C 	C 	0.51505 0.70926 0.72410 -0.01400
H 	H 	0.52446 0.68582 0.70322 0.04100
C 	C 	0.55206 0.76174 0.72376 -0.01100
H 	H 	0.59226 0.78179 0.70278 0.04300
C 	C 	0.51471 0.77702 0.72402 -0.01300
H 	H 	0.52382 0.80958 0.70307 0.03900
C 	C 	0.75405 0.05324 0.75047 -0.02900
H 	H 	0.77520 0.08576 0.76175 0.03600
C 	C 	0.76399 0.01115 0.74323 -0.00100
H 	H 	0.79297 0.00804 0.74919 0.03700
C 	C 	0.69779 0.01695 0.77346 -0.00200
H 	H 	0.67217 0.01860 0.80444 0.04000
C 	C 	0.70812 0.97530 0.76579 -0.06800
C 	C 	0.74911 0.05326 0.70683 -0.01800
C 	C 	0.69325 0.01775 0.72906 -0.02700
H 	H 	0.66460 0.02122 0.72282 0.04600
C 	C 	0.70315 0.97535 0.72206 0.00200
H 	H 	0.68214 0.94288 0.71066 0.04000
C 	C 	0.75934 0.01166 0.69918 -0.02400
H 	H 	0.78501 0.00996 0.66825 0.05800
C 	C 	0.75794 0.93939 0.00526 -0.00800
H 	H 	0.74203 0.90232 0.02291 0.04100
C 	C 	0.74021 0.97495 0.02204 -0.01200
H 	H 	0.70989 0.96765 0.05386 0.04100
C 	C 	0.81241 0.98046 0.99048 -0.01600
H 	H 	0.84166 0.97773 0.99625 0.04100
C 	C 	0.79441 0.01559 0.00694 -0.05400
C 	C 	0.75978 0.95262 0.96039 -0.06300
C 	C 	0.81400 0.99323 0.94522 -0.00800
H 	H 	0.84429 0.00050 0.91338 0.03900
C 	C 	0.79627 0.02881 0.96205 -0.01400
H 	H 	0.81214 0.06585 0.94435 0.04400
C 	C 	0.74184 0.98776 0.97687 -0.00700
H 	H 	0.71257 0.99049 0.97112 0.03900
C 	C 	0.69412 0.67167 0.00800 -0.01600
H 	H 	0.66496 0.64000 0.00207 0.04100
C 	C 	0.69231 0.68262 0.05336 -0.01000
H 	H 	0.66195 0.65972 0.08513 0.04000
C 	C 	0.74858 0.68464 0.99333 -0.00800
H 	H 	0.76458 0.66344 0.97561 0.04100
C 	C 	0.74653 0.69581 0.03831 -0.06200
C 	C 	0.71210 0.72467 0.99172 -0.05400
C 	C 	0.76629 0.73781 0.97673 -0.01300
H 	H 	0.79669 0.76071 0.94498 0.04100
C 	C 	0.76446 0.74877 0.02200 -0.00800
H 	H 	0.79364 0.78046 0.02791 0.03900
C 	C 	0.71004 0.73582 0.03671 -0.01200
H 	H 	0.69407 0.75702 0.05448 0.04400
C 	C 	0.75251 0.80265 0.74823 -0.02900
H 	H 	0.73122 0.81410 0.73708 0.03600
C 	C 	0.74260 0.75073 0.75559 0.00000
H 	H 	0.71348 0.71880 0.74985 0.03800
C 	C 	0.80875 0.82212 0.72499 -0.00100
H 	H 	0.83420 0.84905 0.69391 0.04000
C 	C 	0.79844 0.77026 0.73277 -0.07000
C 	C 	0.75780 0.80782 0.79171 -0.01800
C 	C 	0.81364 0.82769 0.76923 -0.02600
H 	H 	0.84241 0.85965 0.77527 0.04600
C 	C 	0.80377 0.77548 0.77635 0.00100
H 	H 	0.82492 0.76394 0.78762 0.04000
C 	C 	0.74760 0.75609 0.79947 -0.02300
H 	H 	0.72211 0.72906 0.83049 0.05800
