data_crystal

_cell_length_a 47.34988
_cell_length_b 46.74645
_cell_length_c 32.13762
_cell_angle_alpha 92.09601
_cell_angle_beta  87.96382
_cell_angle_gamma 89.83860

_symmetry_space_group_name_	'P 1'
_symmetry_space_group_name_H-M	'P 1'

loop_
_symmetry_equiv_pos_as_xyz
  x,y,z

loop_
_atom_site_label
_atom_site_type_symbol
_atom_site_fract_x
_atom_site_fract_y
_atom_site_fract_z
_atom_site_charge
Cd	Cd	0.02209 0.86879 0.29979 1.24400
Cd	Cd	0.00068 0.91320 0.38735 1.17800
O 	O 	0.05231 0.82702 0.31097 -0.30700
O 	O 	0.03430 0.83422 0.25008 -0.31900
C 	C 	0.04985 0.81820 0.27249 0.32500
O 	O 	0.99035 0.89874 0.27493 -0.37000
O 	O 	0.99564 0.93380 0.32595 -0.42900
C 	C 	0.98198 0.92305 0.29399 0.28200
C 	C 	0.97738 0.85084 0.35463 0.30000
O 	O 	0.04480 0.90132 0.35800 -0.44600
O 	O 	0.97836 0.83536 0.31995 -0.26900
O 	O 	0.99851 0.86807 0.35940 -0.53200
C 	C 	0.05828 0.91472 0.32849 0.29900
O 	O 	0.05664 0.90315 0.29104 -0.34800
Cd	Cd	0.05102 0.85344 0.92380 1.24400
Cd	Cd	0.04056 0.87939 0.82290 1.17600
O 	O 	0.08757 0.81664 0.93115 -0.31600
O 	O 	0.06354 0.83487 0.98544 -0.31500
C 	C 	0.08237 0.81630 0.97111 0.31700
O 	O 	0.02228 0.89082 0.93591 -0.37400
O 	O 	0.00571 0.89127 0.86975 -0.42600
C 	C 	0.00908 0.90404 0.90653 0.28400
C 	C 	0.08930 0.89380 0.88964 0.30500
O 	O 	0.03613 0.83416 0.84982 -0.44400
O 	O 	0.09299 0.89167 0.92959 -0.28700
O 	O 	0.07257 0.87504 0.87330 -0.53700
C 	C 	0.01349 0.82360 0.86764 0.29800
O 	O 	0.01256 0.82511 0.90831 -0.34600
C 	C 	0.09149 0.62102 0.91840 0.18300
N 	N 	0.07972 0.59587 0.92975 -0.13500
C 	C 	0.07874 0.57344 0.90171 0.13200
N 	N 	0.08959 0.57623 0.86240 -0.13900
C 	C 	0.10124 0.60135 0.85086 0.13300
N 	N 	0.10230 0.62366 0.87901 -0.13000
C 	C 	0.09012 0.62530 0.34687 0.18400
N 	N 	0.08591 0.59873 0.32971 -0.12400
C 	C 	0.08989 0.57521 0.35250 0.13200
N 	N 	0.09809 0.57839 0.39249 -0.14000
C 	C 	0.10235 0.60490 0.40977 0.13000
N 	N 	0.09846 0.62831 0.38680 -0.13900
Cd	Cd	0.86957 0.87567 0.76617 1.24300
Cd	Cd	0.90201 0.88656 0.86370 1.18000
O 	O 	0.82404 0.85051 0.76480 -0.30900
O 	O 	0.84152 0.87161 0.70982 -0.31600
C 	C 	0.82047 0.85776 0.72669 0.31800
O 	O 	0.90549 0.90525 0.75228 -0.37100
O 	O 	0.93136 0.89427 0.80871 -0.42200
C 	C 	0.92632 0.91104 0.77768 0.28200
C 	C 	0.84831 0.91923 0.82384 0.29800
O 	O 	0.89066 0.84552 0.82519 -0.44700
O 	O 	0.83950 0.92275 0.78637 -0.27400
O 	O 	0.86236 0.89575 0.82855 -0.52600
C 	C 	0.90659 0.83249 0.79644 0.29600
O 	O 	0.89999 0.83694 0.75811 -0.34800
Cd	Cd	0.83590 0.93497 0.43876 1.24300
Cd	Cd	0.88017 0.92380 0.34819 1.17700
O 	O 	0.79529 0.90305 0.45045 -0.28600
O 	O 	0.80603 0.93684 0.49615 -0.34900
C 	C 	0.78833 0.91689 0.48517 0.33000
O 	O 	0.87234 0.96426 0.44992 -0.38000
O 	O 	0.88696 0.96636 0.38136 -0.44200
C 	C 	0.89213 0.96972 0.42129 0.27900
C 	C 	0.87646 0.89001 0.43534 0.29900
O 	O 	0.83217 0.93369 0.35697 -0.43700
O 	O 	0.86681 0.89449 0.47369 -0.27500
O 	O 	0.86348 0.90342 0.40719 -0.54000
C 	C 	0.82015 0.95878 0.36060 0.28200
O 	O 	0.81471 0.96853 0.39866 -0.35700
C 	C 	0.63019 0.89611 0.81579 0.18100
N 	N 	0.60716 0.90815 0.79927 -0.12200
C 	C 	0.58368 0.91394 0.82369 0.13200
N 	N 	0.58337 0.90789 0.86471 -0.14000
C 	C 	0.60644 0.89622 0.88150 0.13000
N 	N 	0.62980 0.89024 0.85693 -0.13900
C 	C 	0.60250 0.93606 0.38999 0.18200
N 	N 	0.60574 0.92511 0.35036 -0.14000
C 	C 	0.58450 0.92729 0.32332 0.13000
N 	N 	0.55986 0.94025 0.33621 -0.13900
C 	C 	0.55653 0.95133 0.37575 0.13100
N 	N 	0.57792 0.94930 0.40261 -0.12300
Cd	Cd	0.87677 0.06209 0.21162 1.24500
Cd	Cd	0.86678 0.04661 0.31952 1.18000
O 	O 	0.86148 0.10947 0.19051 -0.30100
O 	O 	0.88684 0.08111 0.14843 -0.31200
C 	C 	0.87700 0.10690 0.15638 0.31500
O 	O 	0.90035 0.02118 0.21669 -0.36800
O 	O 	0.87959 0.00798 0.27863 -0.42200
C 	C 	0.90117 0.00683 0.25134 0.28100
C 	C 	0.91510 0.08494 0.27078 0.29700
O 	O 	0.83630 0.05728 0.26770 -0.45200
O 	O 	0.92473 0.08765 0.23260 -0.27300
O 	O 	0.88907 0.07651 0.27457 -0.51600
C 	C 	0.82417 0.03853 0.24347 0.29900
O 	O 	0.83485 0.03641 0.20535 -0.34200
Cd	Cd	0.89817 0.05325 0.95929 1.24400
Cd	Cd	0.89562 0.02572 0.85511 1.17200
O 	O 	0.86465 0.09125 0.98264 -0.29000
O 	O 	0.89506 0.07388 0.02475 -0.34000
C 	C 	0.87672 0.09397 0.01829 0.32900
O 	O 	0.92729 0.01551 0.95746 -0.37700
O 	O 	0.93564 0.01459 0.88665 -0.43100
C 	C 	0.93696 0.00223 0.92275 0.28500
C 	C 	0.85578 0.01313 0.93774 0.30000
O 	O 	0.90388 0.07144 0.88267 -0.44100
O 	O 	0.85679 0.01643 0.97828 -0.28200
O 	O 	0.87038 0.03128 0.91654 -0.53900
C 	C 	0.92818 0.08213 0.89306 0.31000
O 	O 	0.93414 0.08060 0.93218 -0.34400
C 	C 	0.92743 0.26090 0.89251 0.17400
N 	N 	0.93822 0.28652 0.90535 -0.11600
C 	C 	0.94823 0.30518 0.87704 0.12900
N 	N 	0.94807 0.29793 0.83575 -0.13900
C 	C 	0.93769 0.27222 0.82264 0.12700
N 	N 	0.92712 0.25383 0.85103 -0.14200
C 	C 	0.96115 0.25262 0.31172 0.17400
N 	N 	0.97309 0.27823 0.30310 -0.11700
C 	C 	0.98225 0.29574 0.33440 0.13100
N 	N 	0.97908 0.28782 0.37450 -0.13900
C 	C 	0.96673 0.26249 0.38347 0.12800
N 	N 	0.95773 0.24489 0.35204 -0.14500
Cd	Cd	0.06481 0.03583 0.74725 1.24200
Cd	Cd	0.03851 0.02110 0.84968 1.18200
O 	O 	0.10600 0.06733 0.74133 -0.30800
O 	O 	0.08963 0.04447 0.68644 -0.34500
C 	C 	0.10857 0.06178 0.70149 0.33400
O 	O 	0.03157 0.00202 0.73765 -0.37300
O 	O 	0.00759 0.01249 0.79970 -0.42700
C 	C 	0.01213 0.99554 0.76650 0.28700
C 	C 	0.09341 0.99467 0.79427 0.31000
O 	O 	0.04432 0.06339 0.81456 -0.44200
O 	O 	0.10205 0.99366 0.75521 -0.29200
O 	O 	0.07653 0.01585 0.80481 -0.52900
C 	C 	0.02598 0.07513 0.79099 0.29700
O 	O 	0.03012 0.07067 0.75094 -0.34500
Cd	Cd	0.03991 0.08107 0.41902 1.24400
Cd	Cd	0.00788 0.05485 0.32727 1.18000
O 	O 	0.07623 0.11821 0.41185 -0.31300
O 	O 	0.06258 0.10313 0.47308 -0.32400
C 	C 	0.07964 0.11936 0.45179 0.32200
O 	O 	0.00368 0.05430 0.44256 -0.37300
O 	O 	0.00133 0.02692 0.38205 -0.42300
C 	C 	0.99065 0.03494 0.41911 0.29200
C 	C 	0.99795 0.11444 0.38169 0.30600
O 	O 	0.05419 0.05368 0.34805 -0.43500
O 	O 	0.00249 0.12417 0.41953 -0.28900
O 	O 	0.01570 0.09510 0.36723 -0.53500
C 	C 	0.06584 0.03414 0.36989 0.29800
O 	O 	0.06747 0.04046 0.40962 -0.33100
C 	C 	0.29138 0.08963 0.78577 0.18100
N 	N 	0.31766 0.08057 0.77302 -0.13800
C 	C 	0.33938 0.08262 0.79947 0.13000
N 	N 	0.33477 0.09401 0.83863 -0.13900
C 	C 	0.30853 0.10312 0.85156 0.13100
N 	N 	0.28689 0.10101 0.82498 -0.12500
C 	C 	0.26929 0.14215 0.36051 0.17300
N 	N 	0.26797 0.14515 0.31866 -0.11400
C 	C 	0.29107 0.13978 0.29326 0.12900
N 	N 	0.31547 0.13094 0.30971 -0.13900
C 	C 	0.31685 0.12737 0.35132 0.12800
N 	N 	0.29382 0.13317 0.37670 -0.14000
C 	C 	0.28921 0.14175 0.24764 -0.00900
C 	C 	0.26445 0.13333 0.22774 -0.01200
C 	C 	0.26371 0.13250 0.18423 -0.04100
C 	C 	0.28767 0.14011 0.16020 0.01800
C 	C 	0.31206 0.14949 0.18007 -0.04300
C 	C 	0.31283 0.15033 0.22355 -0.01600
C 	C 	0.28783 0.13660 0.11432 0.00800
C 	C 	0.28527 0.10922 0.09545 -0.03500
C 	C 	0.28707 0.10561 0.05205 -0.03600
C 	C 	0.29139 0.12934 0.02710 0.01100
C 	C 	0.29349 0.15680 0.04594 -0.03600
C 	C 	0.29173 0.16041 0.08938 -0.03500
C 	C 	0.29472 0.12526 0.98136 0.01400
C 	C 	0.27296 0.11274 0.95850 -0.03900
C 	C 	0.27708 0.10639 0.91584 -0.01700
C 	C 	0.30303 0.11259 0.89555 -0.01100
C 	C 	0.32440 0.12614 0.91818 -0.01800
C 	C 	0.32028 0.13237 0.96087 -0.04300
H 	H 	0.24607 0.12666 0.24588 0.06400
H 	H 	0.24471 0.12543 0.16917 0.05300
H 	H 	0.33063 0.15550 0.16179 0.04800
H 	H 	0.33192 0.15728 0.23849 0.04800
H 	H 	0.28238 0.09070 0.11443 0.04700
H 	H 	0.28555 0.08431 0.03784 0.04900
H 	H 	0.29668 0.17528 0.02696 0.04800
H 	H 	0.29362 0.18164 0.10365 0.04900
H 	H 	0.25307 0.10740 0.97396 0.05200
H 	H 	0.26041 0.09592 0.89888 0.07200
H 	H 	0.34434 0.13146 0.90285 0.04600
H 	H 	0.33718 0.14214 0.97820 0.04700
C 	C 	0.19349 0.15832 0.39635 -0.12600
C 	C 	0.19244 0.14649 0.43590 0.00500
C 	C 	0.21747 0.13653 0.45271 0.30000
C 	C 	0.24274 0.13610 0.42873 -0.08800
C 	C 	0.24345 0.14624 0.38794 -0.08000
C 	C 	0.21888 0.15880 0.37284 0.34100
C 	C 	0.16466 0.14106 0.45686 0.02200
F 	F 	0.21714 0.12651 0.49185 -0.41300
H 	H 	0.26157 0.12723 0.44154 0.10300
F 	F 	0.21948 0.17137 0.33541 -0.43300
H 	H 	0.17440 0.16639 0.38323 0.12700
C 	C 	0.14433 0.16305 0.46148 0.28600
C 	C 	0.11567 0.15621 0.46636 -0.05700
C 	C 	0.10729 0.12748 0.46756 -0.13200
C 	C 	0.12797 0.10614 0.47073 0.37000
C 	C 	0.15654 0.11282 0.46463 -0.13900
F 	F 	0.15213 0.19080 0.45787 -0.41900
H 	H 	0.09990 0.17301 0.46557 0.09200
F 	F 	0.12020 0.07838 0.47436 -0.43500
H 	H 	0.17208 0.09573 0.46252 0.13500
C 	C 	0.17701 0.09662 0.68427 -0.14000
C 	C 	0.19429 0.07229 0.68575 0.02600
C 	C 	0.18297 0.04533 0.67522 0.28900
C 	C 	0.15373 0.04225 0.67193 -0.05600
C 	C 	0.13589 0.06602 0.67974 -0.13200
C 	C 	0.14780 0.09350 0.68092 0.37400
C 	C 	0.22052 0.07409 0.70915 0.00500
F 	F 	0.19985 0.02176 0.67304 -0.41600
H 	H 	0.14482 0.02100 0.66856 0.09900
F 	F 	0.13083 0.11697 0.68465 -0.43100
H 	H 	0.18575 0.11772 0.69016 0.13200
C 	C 	0.24405 0.08906 0.69351 0.30200
C 	C 	0.26742 0.09380 0.71838 -0.08500
C 	C 	0.26726 0.08388 0.75912 -0.08700
C 	C 	0.24404 0.06828 0.77426 0.34400
C 	C 	0.22083 0.06344 0.74940 -0.12900
F 	F 	0.24408 0.09936 0.65456 -0.41200
H 	H 	0.28539 0.10560 0.70629 0.09900
F 	F 	0.24401 0.05773 0.81308 -0.44000
H 	H 	0.20271 0.05198 0.76178 0.11900
C 	C 	0.96293 0.25437 0.42731 -0.01900
C 	C 	0.93723 0.24271 0.44175 -0.01500
C 	C 	0.93239 0.23855 0.48438 -0.04500
C 	C 	0.95325 0.24585 0.51285 0.01800
C 	C 	0.97933 0.25642 0.49818 -0.04500
C 	C 	0.98416 0.26062 0.45568 -0.01200
C 	C 	0.94730 0.24407 0.55820 0.00800
C 	C 	0.92625 0.26147 0.57802 -0.03600
C 	C 	0.92325 0.26287 0.62154 -0.03600
C 	C 	0.94129 0.24691 0.64563 0.00800
C 	C 	0.96145 0.22850 0.62576 -0.03500
C 	C 	0.96443 0.22707 0.58225 -0.03500
C 	C 	0.94095 0.25161 0.69141 0.01800
C 	C 	0.91703 0.24439 0.71587 -0.04500
C 	C 	0.91622 0.25039 0.75895 -0.01500
C 	C 	0.93924 0.26382 0.77784 -0.01800
C 	C 	0.96336 0.27048 0.75339 -0.01500
C 	C 	0.96420 0.26440 0.71045 -0.04500
H 	H 	0.92069 0.23776 0.42022 0.04800
H 	H 	0.91227 0.23017 0.49533 0.04900
H 	H 	0.99561 0.26204 0.51985 0.05200
H 	H 	0.00421 0.26926 0.44489 0.04800
H 	H 	0.91290 0.27466 0.55979 0.04600
H 	H 	0.90759 0.27710 0.63655 0.04600
H 	H 	0.97532 0.21591 0.64406 0.05000
H 	H 	0.98055 0.21336 0.56727 0.05100
H 	H 	0.89901 0.23443 0.70149 0.04900
H 	H 	0.89747 0.24518 0.77743 0.05000
H 	H 	0.98139 0.28055 0.76763 0.04800
H 	H 	0.98275 0.27004 0.69185 0.05100
C 	C 	0.99886 0.08622 0.80892 -0.08700
C 	C 	0.99895 0.10240 0.84650 -0.03100
C 	C 	0.97452 0.10455 0.87216 0.03500
C 	C 	0.95022 0.08891 0.86127 -0.08900
C 	C 	0.94892 0.07647 0.82098 -0.02000
C 	C 	0.97286 0.07594 0.79420 0.03100
S 	S 	0.97410 0.12826 0.91607 0.03400
S 	S 	0.96949 0.06406 0.74201 -0.03200
H 	H 	0.96290 0.08684 0.71849 0.04700
H 	H 	0.96733 0.15521 0.90421 0.06600
H 	H 	0.01833 0.11238 0.85650 0.04700
H 	H 	0.92958 0.06645 0.81088 -0.01500
C 	C 	0.90045 0.22936 0.99372 -0.13400
C 	C 	0.90253 0.19999 0.98373 0.00400
C 	C 	0.91129 0.19066 0.94325 0.30300
C 	C 	0.91925 0.21051 0.91362 -0.09400
C 	C 	0.91776 0.24001 0.92363 -0.08100
C 	C 	0.90774 0.24936 0.96377 0.34200
C 	C 	0.89472 0.17879 0.01501 0.01200
F 	F 	0.91173 0.16229 0.93254 -0.43700
H 	H 	0.92677 0.20292 0.88294 0.09300
F 	F 	0.90452 0.27771 0.97351 -0.43300
H 	H 	0.89304 0.23670 0.02457 0.12300
C 	C 	0.91567 0.16078 0.02969 0.30300
C 	C 	0.90866 0.13294 0.04071 -0.06700
C 	C 	0.88087 0.12308 0.03612 -0.12300
C 	C 	0.85928 0.14346 0.03250 0.36600
C 	C 	0.86625 0.17123 0.02094 -0.14000
F 	F 	0.94316 0.16893 0.02818 -0.42200
H 	H 	0.92534 0.11810 0.04750 0.11500
F 	F 	0.83182 0.13519 0.03366 -0.43100
H 	H 	0.84971 0.18573 0.01238 0.11900
C 	C 	0.93050 0.09694 0.30634 -0.11200
C 	C 	0.94389 0.12361 0.30279 -0.01500
C 	C 	0.96395 0.13239 0.33156 0.02500
C 	C 	0.96955 0.11510 0.36521 -0.10700
C 	C 	0.95191 0.09189 0.37307 -0.05900
C 	C 	0.93484 0.08082 0.34189 0.02100
S 	S 	0.98249 0.16450 0.32454 -0.02000
S 	S 	0.92400 0.04494 0.34414 -0.24300
H 	H 	0.94652 0.02697 0.33561 0.02700
H 	H 	0.96879 0.18610 0.34706 0.05300
H 	H 	0.93993 0.13666 0.27638 0.06700
H 	H 	0.95499 0.07974 0.40043 0.03500
C 	C 	0.93679 0.15468 0.16662 -0.14000
C 	C 	0.92127 0.17959 0.17759 0.01000
C 	C 	0.89390 0.18256 0.16268 0.31000
C 	C 	0.88034 0.15870 0.14501 -0.06500
C 	C 	0.89377 0.13185 0.14388 -0.12200
C 	C 	0.92323 0.13106 0.14840 0.36200
C 	C 	0.93099 0.19906 0.21140 0.00500
F 	F 	0.87951 0.20756 0.16924 -0.41100
H 	H 	0.85822 0.16023 0.13777 0.10800
F 	F 	0.93786 0.10632 0.14066 -0.43600
H 	H 	0.95856 0.15276 0.17547 0.11000
C 	C 	0.91715 0.19933 0.25087 0.30300
C 	C 	0.92711 0.21666 0.28353 -0.09300
C 	C 	0.95128 0.23356 0.27740 -0.08500
C 	C 	0.96561 0.23261 0.23815 0.34200
C 	C 	0.95533 0.21559 0.20531 -0.13700
F 	F 	0.89435 0.18238 0.25774 -0.42500
H 	H 	0.91597 0.21699 0.31358 0.09400
F 	F 	0.98984 0.24758 0.23209 -0.43500
H 	H 	0.96651 0.21498 0.17527 0.11900
C 	C 	0.53086 0.96787 0.38801 -0.01200
C 	C 	0.53309 0.99532 0.40686 -0.01200
C 	C 	0.50933 0.01316 0.41134 -0.04300
C 	C 	0.48314 0.00364 0.39723 0.01800
C 	C 	0.48053 0.97550 0.38110 -0.04400
C 	C 	0.50430 0.95773 0.37638 -0.01300
C 	C 	0.45941 0.02398 0.39484 0.00800
C 	C 	0.44719 0.03697 0.43126 -0.03500
C 	C 	0.42471 0.05629 0.42871 -0.03500
C 	C 	0.41436 0.06274 0.38973 0.00800
C 	C 	0.42666 0.04978 0.35338 -0.03600
C 	C 	0.44912 0.03058 0.35591 -0.03600
C 	C 	0.39019 0.08250 0.38682 0.01800
C 	C 	0.39305 0.10707 0.36322 -0.04500
C 	C 	0.36917 0.12288 0.35375 -0.01400
C 	C 	0.34223 0.11438 0.36805 -0.01700
C 	C 	0.33963 0.09106 0.39426 -0.01300
C 	C 	0.36351 0.07513 0.40349 -0.04300
H 	H 	0.55346 0.00333 0.41615 0.05400
H 	H 	0.51152 0.03478 0.42410 0.05100
H 	H 	0.46030 0.96779 0.37077 0.05100
H 	H 	0.50224 0.93641 0.36245 0.04900
H 	H 	0.45501 0.03203 0.46146 0.04900
H 	H 	0.41536 0.06619 0.45695 0.04900
H 	H 	0.41868 0.05446 0.32317 0.04600
H 	H 	0.45855 0.02082 0.32762 0.04500
H 	H 	0.41364 0.11324 0.35083 0.04900
H 	H 	0.37150 0.14115 0.33414 0.04600
H 	H 	0.31897 0.08440 0.40572 0.05300
H 	H 	0.36110 0.05633 0.42201 0.05400
C 	C 	0.36687 0.06927 0.78769 -0.01600
C 	C 	0.36795 0.04225 0.76706 -0.01300
C 	C 	0.39356 0.02736 0.76226 -0.04300
C 	C 	0.41834 0.03939 0.77784 0.01800
C 	C 	0.41762 0.06721 0.79584 -0.04500
C 	C 	0.39198 0.08205 0.80087 -0.01500
C 	C 	0.44405 0.02166 0.77999 0.00800
C 	C 	0.45467 0.01548 0.81888 -0.03600
C 	C 	0.47768 0.99696 0.82133 -0.03600
C 	C 	0.49022 0.98430 0.78495 0.00800
C 	C 	0.48003 0.99091 0.74596 -0.03500
C 	C 	0.45700 0.00953 0.74347 -0.03500
C 	C 	0.51358 0.96368 0.78796 0.01900
C 	C 	0.50899 0.93804 0.80849 -0.04400
C 	C 	0.53186 0.92079 0.81794 -0.01300
C 	C 	0.55952 0.92898 0.80679 -0.01100
C 	C 	0.56394 0.95360 0.78368 -0.01200
C 	C 	0.54104 0.97093 0.77439 -0.04300
H 	H 	0.34875 0.03220 0.75655 0.05700
H 	H 	0.39392 0.00595 0.74813 0.05300
H 	H 	0.43673 0.07689 0.80733 0.04900
H 	H 	0.39151 0.10313 0.81608 0.04500
H 	H 	0.44475 0.02461 0.84724 0.04600
H 	H 	0.48559 0.99217 0.85154 0.04600
H 	H 	0.48967 0.98133 0.71769 0.05100
H 	H 	0.44901 0.01425 0.71329 0.04800
H 	H 	0.48780 0.93204 0.81849 0.05100
H 	H 	0.52816 0.90157 0.83514 0.05000
H 	H 	0.58519 0.96005 0.77470 0.05500
H 	H 	0.54476 0.99058 0.75822 0.05200
C 	C 	0.58911 0.91802 0.27911 -0.01700
C 	C 	0.56629 0.90840 0.25562 -0.01400
C 	C 	0.57012 0.90220 0.21287 -0.04500
C 	C 	0.59680 0.90546 0.19322 0.01800
C 	C 	0.61982 0.91407 0.21691 -0.04400
C 	C 	0.61602 0.92034 0.25961 -0.01300
C 	C 	0.60024 0.90163 0.14751 0.00800
C 	C 	0.59516 0.87489 0.12794 -0.03600
C 	C 	0.59754 0.87158 0.08450 -0.03400
C 	C 	0.60501 0.89500 0.06032 0.00600
C 	C 	0.61036 0.92164 0.07996 -0.03400
C 	C 	0.60799 0.92494 0.12334 -0.03600
C 	C 	0.60619 0.89196 0.01439 0.02500
C 	C 	0.58160 0.88552 0.99287 -0.05100
C 	C 	0.58197 0.88570 0.94936 -0.01100
C 	C 	0.60694 0.89243 0.92691 -0.01900
C 	C 	0.63184 0.89768 0.94843 -0.01000
C 	C 	0.63145 0.89743 0.99196 -0.05000
H 	H 	0.54553 0.90607 0.27033 0.04800
H 	H 	0.55224 0.89547 0.19487 0.04900
H 	H 	0.64055 0.91643 0.20206 0.05200
H 	H 	0.63382 0.92776 0.27726 0.05200
H 	H 	0.58928 0.85674 0.14634 0.04900
H 	H 	0.59344 0.85091 0.06963 0.04800
H 	H 	0.61596 0.93988 0.06156 0.04700
H 	H 	0.61182 0.94570 0.13815 0.04700
H 	H 	0.56203 0.88113 0.00991 0.05200
H 	H 	0.56273 0.88113 0.93315 0.04700
H 	H 	0.65127 0.90288 0.93158 0.05100
H 	H 	0.65061 0.90216 0.00829 0.05500
C 	C 	0.80944 0.97351 0.32411 -0.08000
C 	C 	0.79388 0.99898 0.33070 -0.03500
C 	C 	0.79320 0.01890 0.29932 0.01800
C 	C 	0.80968 0.01412 0.26237 -0.09700
C 	C 	0.81962 0.98629 0.25249 -0.01400
C 	C 	0.81876 0.96555 0.28295 0.01900
S 	S 	0.77330 0.05056 0.30760 -0.01400
S 	S 	0.82450 0.92939 0.26759 -0.02100
H 	H 	0.85168 0.92131 0.27454 -0.02700
H 	H 	0.78936 0.07092 0.32728 0.02400
H 	H 	0.78365 0.00400 0.36080 0.06200
H 	H 	0.82960 0.98129 0.22222 0.05600
C 	C 	0.91773 0.98544 0.43349 -0.08100
C 	C 	0.94415 0.97178 0.42879 -0.04000
C 	C 	0.96905 0.98759 0.43290 0.04900
C 	C 	0.96769 0.01760 0.43751 -0.07700
C 	C 	0.94158 0.03060 0.44837 -0.02700
C 	C 	0.91648 0.01479 0.44556 0.03500
S 	S 	0.00182 0.96978 0.43312 -0.16800
S 	S 	0.88377 0.03238 0.45441 -0.03100
H 	H 	0.87449 0.04199 0.41750 -0.01600
H 	H 	0.01390 0.96868 0.39372 0.00700
H 	H 	0.94534 0.94904 0.42089 -0.02300
H 	H 	0.94058 0.05330 0.45631 0.04500
C 	C 	0.71198 0.89868 0.48671 -0.14400
C 	C 	0.70050 0.92641 0.48859 0.01200
C 	C 	0.71695 0.94931 0.50339 0.30500
C 	C 	0.74586 0.94531 0.50893 -0.06100
C 	C 	0.75838 0.91845 0.49942 -0.12600
C 	C 	0.74084 0.89464 0.49251 0.37100
C 	C 	0.67458 0.93220 0.46608 0.00600
F 	F 	0.70556 0.97595 0.50841 -0.41600
H 	H 	0.75888 0.96362 0.51669 0.10200
F 	F 	0.75221 0.86801 0.48732 -0.42700
H 	H 	0.69911 0.88062 0.47724 0.11800
C 	C 	0.67662 0.94485 0.42710 0.30800
C 	C 	0.65279 0.94696 0.40303 -0.08900
C 	C 	0.62670 0.93639 0.41748 -0.08600
C 	C 	0.62437 0.92462 0.45710 0.34500
C 	C 	0.64830 0.92245 0.48124 -0.13500
F 	F 	0.70198 0.95406 0.41185 -0.42200
H 	H 	0.65471 0.95631 0.37270 0.09600
F 	F 	0.59924 0.91430 0.47147 -0.43200
H 	H 	0.64656 0.91259 0.51121 0.11800
C 	C 	0.94808 0.93199 0.76544 -0.07200
C 	C 	0.97665 0.92363 0.76297 -0.03600
C 	C 	0.99806 0.94412 0.75910 0.04600
C 	C 	0.99096 0.97333 0.75722 -0.08400
C 	C 	0.96237 0.98136 0.75638 -0.02000
C 	C 	0.94096 0.96102 0.76132 0.02500
S 	S 	0.03364 0.93312 0.75958 -0.20100
S 	S 	0.90551 0.97262 0.76630 -0.07300
H 	H 	0.89795 0.97657 0.80768 -0.05400
H 	H 	0.04371 0.92790 0.71953 0.05600
H 	H 	0.98227 0.90134 0.76606 0.02100
H 	H 	0.95677 0.00375 0.75500 0.03400
C 	C 	0.84340 0.94096 0.85841 -0.10900
C 	C 	0.85630 0.93740 0.89665 -0.02400
C 	C 	0.85623 0.95981 0.92682 0.01600
C 	C 	0.84516 0.98676 0.91745 -0.10400
C 	C 	0.82924 0.98916 0.88185 -0.04900
C 	C 	0.82727 0.96611 0.85313 0.02600
S 	S 	0.86773 0.95315 0.97710 -0.03400
S 	S 	0.80232 0.96807 0.81390 0.02300
H 	H 	0.81475 0.97984 0.77940 0.04200
H 	H 	0.89378 0.96494 0.98300 0.04100
H 	H 	0.86615 0.91719 0.90315 -0.04900
H 	H 	0.81899 0.00931 0.87591 0.03600
C 	C 	0.75229 0.89354 0.70766 -0.13100
C 	C 	0.73379 0.87239 0.72208 0.01300
C 	C 	0.74359 0.84412 0.72409 0.29500
C 	C 	0.77245 0.83815 0.71842 -0.05800
C 	C 	0.79166 0.86045 0.71154 -0.12400
C 	C 	0.78120 0.88762 0.70233 0.37000
C 	C 	0.70698 0.88093 0.74390 0.00300
F 	F 	0.72562 0.82304 0.73570 -0.41900
H 	H 	0.78017 0.81678 0.72365 0.09800
F 	F 	0.79929 0.90909 0.69281 -0.43100
H 	H 	0.74468 0.91518 0.70426 0.12100
C 	C 	0.70745 0.89531 0.78303 0.30000
C 	C 	0.68229 0.90073 0.80596 -0.08700
C 	C 	0.65639 0.89181 0.79018 -0.08400
C 	C 	0.65580 0.87806 0.75054 0.34500
C 	C 	0.68105 0.87265 0.72752 -0.12200
F 	F 	0.73243 0.90324 0.79937 -0.42800
H 	H 	0.68295 0.91165 0.83625 0.09500
F 	F 	0.63092 0.86908 0.73497 -0.42800
H 	H 	0.68051 0.86148 0.69742 0.12600
C 	C 	0.99548 0.32336 0.32494 -0.00900
C 	C 	0.98423 0.34064 0.29469 -0.01100
C 	C 	0.99566 0.36768 0.28775 -0.04000
C 	C 	0.01852 0.37757 0.31078 0.01700
C 	C 	0.03029 0.35998 0.34011 -0.04200
C 	C 	0.01881 0.33301 0.34721 -0.01500
C 	C 	0.02882 0.40705 0.30644 0.00900
C 	C 	0.05621 0.41196 0.29021 -0.03500
C 	C 	0.06716 0.43972 0.29060 -0.03500
C 	C 	0.05086 0.46274 0.30751 0.00800
C 	C 	0.02307 0.45793 0.32223 -0.03500
C 	C 	0.01208 0.43022 0.32160 -0.03700
C 	C 	0.06366 0.49132 0.31337 0.01900
C 	C 	0.05075 0.51546 0.29743 -0.04300
C 	C 	0.06023 0.54293 0.30843 -0.01200
C 	C 	0.08281 0.54648 0.33536 -0.01200
C 	C 	0.09686 0.52223 0.34904 -0.01400
C 	C 	0.08724 0.49481 0.33827 -0.04400
H 	H 	0.96622 0.33344 0.27732 0.05900
H 	H 	0.98646 0.38113 0.26499 0.05400
H 	H 	0.04795 0.36745 0.35802 0.05100
H 	H 	0.02792 0.31972 0.37023 0.05000
H 	H 	0.06920 0.39420 0.27817 0.05100
H 	H 	0.08853 0.44324 0.27877 0.04900
H 	H 	0.01033 0.47552 0.33543 0.04600
H 	H 	0.99090 0.42662 0.33413 0.04800
H 	H 	0.03279 0.51298 0.27766 0.05200
H 	H 	0.04930 0.56140 0.29736 0.05600
H 	H 	0.11472 0.52463 0.36901 0.04900
H 	H 	0.09749 0.47631 0.35051 0.04900
C 	C 	0.06260 0.54765 0.91196 -0.01600
C 	C 	0.06867 0.53241 0.94742 -0.01400
C 	C 	0.05492 0.50652 0.95497 -0.04400
C 	C 	0.03484 0.49591 0.92730 0.01800
C 	C 	0.02816 0.51166 0.89263 -0.04500
C 	C 	0.04198 0.53736 0.88498 -0.01300
C 	C 	0.02212 0.46750 0.93289 0.00700
C 	C 	0.03874 0.44274 0.92618 -0.03500
C 	C 	0.02592 0.41588 0.92288 -0.03700
C 	C 	0.99639 0.41359 0.92633 0.01000
C 	C 	0.97994 0.43813 0.93586 -0.03600
C 	C 	0.99276 0.46499 0.93914 -0.03400
C 	C 	0.98262 0.38621 0.91537 0.01800
C 	C 	0.98686 0.36209 0.93916 -0.04100
C 	C 	0.97523 0.33571 0.92710 -0.01100
C 	C 	0.95935 0.33324 0.89103 -0.01000
C 	C 	0.95471 0.35753 0.86771 -0.01500
C 	C 	0.96630 0.38386 0.87982 -0.04300
H 	H 	0.08451 0.54021 0.96850 0.05000
H 	H 	0.06016 0.49454 0.98189 0.05100
H 	H 	0.01270 0.50362 0.87110 0.04900
H 	H 	0.03690 0.54914 0.85778 0.05000
H 	H 	0.06144 0.44445 0.92152 0.04700
H 	H 	0.03882 0.39703 0.91582 0.04700
H 	H 	0.95715 0.43652 0.93917 0.05000
H 	H 	0.97978 0.48395 0.94480 0.04900
H 	H 	0.99940 0.36371 0.96668 0.05400
H 	H 	0.97903 0.31713 0.94531 0.06100
H 	H 	0.94221 0.35600 0.84014 0.04900
H 	H 	0.96296 0.40236 0.86121 0.04900
C 	C 	0.10861 0.60831 0.45447 -0.01600
C 	C 	0.09936 0.63286 0.47773 -0.01300
C 	C 	0.10276 0.63478 0.52077 -0.04400
C 	C 	0.11527 0.61217 0.54109 0.01800
C 	C 	0.12552 0.58815 0.51772 -0.04500
C 	C 	0.12232 0.58627 0.47462 -0.01400
C 	C 	0.11576 0.61272 0.58703 0.00800
C 	C 	0.14153 0.61091 0.60713 -0.03500
C 	C 	0.14181 0.61053 0.65064 -0.03600
C 	C 	0.11634 0.61206 0.67434 0.00900
C 	C 	0.09063 0.61410 0.65425 -0.03600
C 	C 	0.09033 0.61438 0.61082 -0.03500
C 	C 	0.11645 0.61073 0.72011 0.01700
C 	C 	0.10654 0.63409 0.74521 -0.04200
C 	C 	0.10292 0.63153 0.78827 -0.01300
C 	C 	0.10914 0.60552 0.80665 -0.01300
C 	C 	0.12045 0.58266 0.78173 -0.01600
C 	C 	0.12406 0.58525 0.73865 -0.04400
H 	H 	0.08881 0.65007 0.46272 0.05400
H 	H 	0.09506 0.65355 0.53849 0.05200
H 	H 	0.13533 0.57064 0.53309 0.04900
H 	H 	0.13007 0.56748 0.45702 0.04800
H 	H 	0.16128 0.60972 0.58906 0.04800
H 	H 	0.16177 0.60898 0.66589 0.04900
H 	H 	0.07086 0.61512 0.67230 0.04800
H 	H 	0.07032 0.61557 0.59561 0.04700
H 	H 	0.10085 0.65393 0.73118 0.05300
H 	H 	0.09423 0.64937 0.80707 0.06500
H 	H 	0.12579 0.56265 0.79558 0.04800
H 	H 	0.13191 0.56717 0.71954 0.04900
C 	C 	0.99097 0.92876 0.91857 -0.07800
C 	C 	0.00277 0.95622 0.92093 -0.05000
C 	C 	0.98524 0.98046 0.92521 0.05300
C 	C 	0.95562 0.97723 0.92562 -0.08300
C 	C 	0.94394 0.94971 0.92439 -0.04700
C 	C 	0.96147 0.92553 0.92280 0.05300
S 	S 	0.00056 0.01465 0.92991 -0.19500
S 	S 	0.94641 0.89137 0.92771 -0.20800
H 	H 	0.94472 0.88483 0.96892 0.06600
H 	H 	0.00371 0.02181 0.97120 0.06800
H 	H 	0.02552 0.95877 0.91845 0.01500
H 	H 	0.92127 0.94709 0.92348 0.00100
C 	C 	0.98756 0.81870 0.84387 -0.09500
C 	C 	0.98554 0.83054 0.80454 -0.01700
C 	C 	0.95957 0.83149 0.78524 0.03100
C 	C 	0.93489 0.82184 0.80647 -0.08900
C 	C 	0.93763 0.80668 0.84301 -0.03600
C 	C 	0.96392 0.80440 0.86125 0.03900
S 	S 	0.95868 0.84377 0.73412 -0.03200
S 	S 	0.96727 0.78190 0.90359 -0.00400
H 	H 	0.96138 0.79722 0.94005 0.05100
H 	H 	0.96256 0.82109 0.70628 0.04800
H 	H 	0.00403 0.83963 0.78930 -0.02300
H 	H 	0.91909 0.79750 0.85804 0.04500
C 	C 	0.09678 0.91993 0.86753 -0.11000
C 	C 	0.09252 0.94688 0.88757 -0.03000
C 	C 	0.09342 0.97182 0.86459 0.02600
C 	C 	0.09672 0.96960 0.82065 -0.11300
C 	C 	0.10330 0.94284 0.80134 -0.02200
C 	C 	0.10399 0.91825 0.82461 0.01200
S 	S 	0.09364 0.00531 0.89148 -0.17600
S 	S 	0.11460 0.88554 0.79980 -0.10800
H 	H 	0.14327 0.88243 0.80224 0.06600
H 	H 	0.12096 0.01284 0.89920 0.07400
H 	H 	0.08808 0.94844 0.92091 0.04900
H 	H 	0.10748 0.94106 0.76796 0.05300
C 	C 	0.06737 0.69411 0.95699 -0.13700
C 	C 	0.08754 0.70072 0.98682 -0.00300
C 	C 	0.10635 0.67933 0.99844 0.31700
C 	C 	0.10654 0.65243 0.97768 -0.08600
C 	C 	0.08774 0.64670 0.94568 -0.08600
C 	C 	0.06746 0.66725 0.93653 0.34500
C 	C 	0.09143 0.73089 0.00083 0.02500
F 	F 	0.12512 0.68498 0.02859 -0.40200
H 	H 	0.12197 0.63648 0.98537 0.10200
F 	F 	0.04869 0.66163 0.90635 -0.44100
H 	H 	0.05257 0.71032 0.94811 0.11100
C 	C 	0.11535 0.74590 0.98658 0.29500
C 	C 	0.11413 0.77565 0.98379 -0.06000
C 	C 	0.08879 0.79038 0.99386 -0.13200
C 	C 	0.06693 0.77607 0.01531 0.36900
C 	C 	0.06835 0.74635 0.01890 -0.15200
F 	F 	0.13854 0.73144 0.97107 -0.40600
H 	H 	0.13177 0.78677 0.96941 0.10000
F 	F 	0.04314 0.79036 0.02874 -0.43300
H 	H 	0.05036 0.73507 0.03198 0.12100
C 	C 	0.92244 0.98381 0.25417 -0.06500
C 	C 	0.91354 0.95599 0.26312 -0.05300
C 	C 	0.93329 0.93485 0.27198 0.02700
C 	C 	0.96217 0.94179 0.27336 -0.08300
C 	C 	0.97127 0.96892 0.26134 -0.01800
C 	C 	0.95165 0.98982 0.25124 0.01700
S 	S 	0.92162 0.89990 0.28168 -0.22400
S 	S 	0.96401 0.02335 0.23525 -0.03100
H 	H 	0.96922 0.04090 0.26913 -0.04500
H 	H 	0.92227 0.88384 0.24513 0.07700
H 	H 	0.89124 0.95095 0.26383 0.01100
H 	H 	0.99359 0.97409 0.26125 0.03500
C 	C 	0.95152 0.85321 0.38230 -0.10600
C 	C 	0.95271 0.86939 0.41999 -0.04400
C 	C 	0.92784 0.87861 0.44133 0.01600
C 	C 	0.90145 0.87212 0.42449 -0.10200
C 	C 	0.90021 0.85267 0.39039 -0.04300
C 	C 	0.92498 0.84263 0.36970 0.03000
S 	S 	0.93006 0.89765 0.48940 -0.03600
S 	S 	0.92222 0.81549 0.33056 0.01300
H 	H 	0.91921 0.82771 0.29285 0.04300
H 	H 	0.92660 0.92635 0.48422 0.03100
H 	H 	0.97299 0.87545 0.43214 -0.02600
H 	H 	0.87985 0.84622 0.37889 0.04200
C 	C 	0.06600 0.94509 0.33463 -0.08900
C 	C 	0.05759 0.96501 0.30583 -0.02400
C 	C 	0.06040 0.99443 0.31441 0.04000
C 	C 	0.07029 0.00418 0.35359 -0.08600
C 	C 	0.08158 0.98412 0.38009 -0.01300
C 	C 	0.07949 0.95476 0.37085 0.02600
S 	S 	0.05460 0.01812 0.27415 -0.15300
S 	S 	0.09430 0.93039 0.40454 -0.01400
H 	H 	0.07446 0.92352 0.43457 0.02500
H 	H 	0.07935 0.02181 0.25163 0.06700
H 	H 	0.04847 0.95764 0.27689 0.05600
H 	H 	0.09119 0.99135 0.40872 0.06700
C 	C 	0.04178 0.73948 0.25367 -0.13100
C 	C 	0.06830 0.73013 0.26603 0.01400
C 	C 	0.09050 0.74985 0.26920 0.29500
C 	C 	0.08516 0.77908 0.26572 -0.05700
C 	C 	0.05766 0.78877 0.25921 -0.12600
C 	C 	0.03643 0.76875 0.25027 0.37300
C 	C 	0.07105 0.70176 0.28411 0.00400
F 	F 	0.11659 0.74097 0.27944 -0.41700
H 	H 	0.10189 0.79434 0.27144 0.09800
F 	F 	0.00993 0.77774 0.24236 -0.42800
H 	H 	0.02473 0.72429 0.24993 0.12300
C 	C 	0.05886 0.69694 0.32371 0.30100
C 	C 	0.06454 0.67160 0.34356 -0.08600
C 	C 	0.08245 0.65080 0.32415 -0.08500
C 	C 	0.09384 0.65510 0.28387 0.34600
C 	C 	0.08817 0.68055 0.26397 -0.12200
F 	F 	0.04234 0.71733 0.34358 -0.42400
H 	H 	0.05536 0.66830 0.37438 0.09600
F 	F 	0.11120 0.63515 0.26470 -0.42700
H 	H 	0.09767 0.68412 0.23344 0.12800
