data_crystal

_cell_length_a 39.50178
_cell_length_b 40.31435
_cell_length_c 23.03835
_cell_angle_alpha 89.96561
_cell_angle_beta  89.94967
_cell_angle_gamma 89.99924

_symmetry_space_group_name_	'P 1'
_symmetry_space_group_name_H-M	'P 1'

loop_
_symmetry_equiv_pos_as_xyz
  x,y,z

loop_
_atom_site_label
_atom_site_type_symbol
_atom_site_fract_x
_atom_site_fract_y
_atom_site_fract_z
_atom_site_charge
C 	C 	0.55489 0.45165 0.94206 0.11600
N 	N 	0.52214 0.45572 0.92744 -0.16900
C 	C 	0.50410 0.43556 0.96236 0.07900
C 	C 	0.46817 0.42684 0.95151 -0.05800
C 	C 	0.44494 0.45189 0.92640 0.08400
C 	C 	0.45509 0.39415 0.97002 0.01400
C 	C 	0.46649 0.36520 0.94256 -0.03700
C 	C 	0.45573 0.33417 0.96230 -0.05800
C 	C 	0.43296 0.33191 0.00887 0.03200
C 	C 	0.43261 0.39188 0.01704 -0.02600
N 	N 	0.45004 0.48472 0.93271 -0.12500
C 	C 	0.41213 0.44543 0.90849 -0.05600
C 	C 	0.42065 0.49932 0.91756 0.09200
C 	C 	0.41316 0.53457 0.93096 -0.07600
C 	C 	0.37792 0.54681 0.92974 0.04500
C 	C 	0.32566 0.55989 0.98019 -0.04400
C 	C 	0.36206 0.55326 0.87649 -0.05400
C 	C 	0.32788 0.56222 0.87500 -0.03400
C 	C 	0.30931 0.56465 0.92676 0.00900
N 	N 	0.47287 0.55359 0.92383 -0.17400
C 	C 	0.49271 0.57448 0.95409 0.10900
C 	C 	0.47373 0.59179 0.99466 -0.07300
C 	C 	0.44078 0.58076 0.98854 -0.07400
C 	C 	0.52778 0.58293 0.93653 -0.08300
C 	C 	0.54104 0.61669 0.94717 0.06400
C 	C 	0.57722 0.65372 0.00225 0.02400
C 	C 	0.55964 0.68111 0.97981 -0.04600
C 	C 	0.53460 0.67627 0.93754 -0.00900
C 	C 	0.52531 0.64417 0.92131 -0.07400
N 	N 	0.54533 0.52437 0.92342 -0.12700
C 	C 	0.59708 0.53181 0.88449 -0.05900
C 	C 	0.57389 0.50907 0.90591 0.09200
C 	C 	0.58216 0.47445 0.92277 -0.07900
C 	C 	0.61764 0.46275 0.92115 0.04700
C 	C 	0.63621 0.45984 0.97278 -0.06800
C 	C 	0.67033 0.45078 0.97097 -0.04100
C 	C 	0.68670 0.44666 0.91741 0.00600
C 	C 	0.66801 0.44888 0.86581 -0.03100
C 	C 	0.63349 0.45655 0.86772 -0.05500
C 	C 	0.55778 0.42955 0.98782 -0.10400
C 	C 	0.52532 0.41890 0.00038 -0.01200
C 	C 	0.42156 0.36085 0.03637 -0.04800
C 	C 	0.39652 0.47583 0.90297 -0.06000
C 	C 	0.44114 0.55784 0.94383 0.10600
C 	C 	0.58166 0.56239 0.88812 -0.06000
C 	C 	0.54995 0.55681 0.91187 0.09400
C 	C 	0.56742 0.62158 0.98702 -0.10800
H 	H 	0.51367 0.46553 0.88804 0.10000
H 	H 	0.47917 0.54273 0.88408 0.10100
H 	H 	0.68421 0.44760 0.01110 0.06400
H 	H 	0.68035 0.44531 0.82427 0.04500
H 	H 	0.62427 0.46482 0.01421 0.06500
H 	H 	0.61932 0.45868 0.82766 0.05300
H 	H 	0.46519 0.31188 0.94163 0.05500
H 	H 	0.42395 0.41413 0.03883 0.04900
H 	H 	0.40428 0.35927 0.07281 0.05000
H 	H 	0.48408 0.36675 0.90655 0.04800
H 	H 	0.31569 0.56669 0.83363 0.04900
H 	H 	0.37604 0.55072 0.83626 0.05300
C 	C 	0.35966 0.55032 0.98161 -0.06700
H 	H 	0.31170 0.56249 0.02043 0.06100
H 	H 	0.59729 0.65731 0.03363 0.03300
H 	H 	0.57978 0.60051 0.00709 0.07200
H 	H 	0.50517 0.64061 0.89004 0.05800
H 	H 	0.52167 0.69735 0.91858 0.04400
H 	H 	0.58076 0.41703 0.00090 0.07600
H 	H 	0.51915 0.39629 0.02342 0.04900
H 	H 	0.39892 0.42214 0.91437 0.04700
H 	H 	0.36940 0.47960 0.90471 0.04800
H 	H 	0.48115 0.61471 0.01553 0.06200
H 	H 	0.41855 0.59297 0.00576 0.06500
H 	H 	0.62420 0.52811 0.88275 0.04900
H 	H 	0.59498 0.58584 0.88841 0.05200
H 	H 	0.37171 0.54530 0.02292 0.06400
Zn	Zn	0.38156 0.13794 0.09280 1.22500
C 	C 	0.32558 0.09202 0.09223 0.32800
O 	O 	0.40579 0.13001 0.16636 -0.39400
O 	O 	0.34652 0.07103 0.06757 -0.39400
O 	O 	0.38670 0.07713 0.17590 -0.47200
C 	C 	0.40423 0.10201 0.99288 0.30900
O 	O 	0.38205 0.12366 0.01179 -0.38400
O 	O 	0.41926 0.08190 0.02931 -0.44100
C 	C 	0.40097 0.10348 0.19839 0.32200
O 	O 	0.42391 0.17628 0.06590 -0.28600
Zn	Zn	0.39544 0.06478 0.09636 1.18900
O 	O 	0.33697 0.12001 0.11405 -0.42300
C 	C 	0.40159 0.19870 0.07882 0.28100
O 	O 	0.37237 0.18764 0.09535 -0.37300
C 	C 	0.49462 0.01763 0.54191 0.03800
C 	C 	0.51347 0.98748 0.54130 0.02700
C 	C 	0.48095 0.02945 0.59424 -0.04900
C 	C 	0.48425 0.01077 0.64536 0.03600
C 	C 	0.51798 0.96945 0.59304 -0.04400
C 	C 	0.50283 0.98050 0.64481 0.02600
H 	H 	0.53241 0.94662 0.59275 0.07000
H 	H 	0.46709 0.05263 0.59490 0.07600
C 	C 	0.50358 0.96101 0.69581 -0.01200
C 	C 	0.48859 0.97190 0.74754 0.02700
C 	C 	0.50132 0.95547 0.79758 -0.02600
C 	C 	0.52638 0.93210 0.78458 0.02400
S 	S 	0.53344 0.93338 0.71304 0.08700
H 	H 	0.49562 0.96304 0.84156 0.07400
C 	C 	0.46783 0.02055 0.69709 -0.02000
C 	C 	0.47165 0.00242 0.74861 0.02700
C 	C 	0.46677 0.02185 0.79939 -0.03200
C 	C 	0.46005 0.05520 0.78726 0.02200
S 	S 	0.45901 0.05971 0.71530 0.09900
H 	H 	0.46620 0.01172 0.84289 0.07200
C 	C 	0.49863 0.02041 0.43581 0.03100
C 	C 	0.48932 0.03471 0.48902 -0.02600
S 	S 	0.45698 0.06044 0.47603 0.11400
C 	C 	0.45332 0.05383 0.40487 0.01800
C 	C 	0.47860 0.03148 0.38838 -0.03200
C 	C 	0.52673 0.97609 0.48785 -0.01400
C 	C 	0.51784 0.99128 0.43534 0.02200
C 	C 	0.52141 0.97015 0.38643 -0.02300
C 	C 	0.53226 0.93823 0.40103 0.02600
S 	S 	0.53799 0.93702 0.47295 0.07500
H 	H 	0.51852 0.97846 0.34202 0.07800
H 	H 	0.48280 0.02409 0.34380 0.07300
Zn	Zn	0.61643 0.86976 0.08788 1.22300
C 	C 	0.67670 0.90984 0.09191 0.31900
O 	O 	0.59198 0.87588 0.16175 -0.43900
O 	O 	0.65804 0.93514 0.07539 -0.39600
O 	O 	0.61586 0.92571 0.18189 -0.44400
C 	C 	0.59781 0.91166 0.99344 0.31700
O 	O 	0.61839 0.88800 0.00981 -0.42600
O 	O 	0.58513 0.93216 0.03194 -0.43200
C 	C 	0.59995 0.89899 0.19942 0.33400
O 	O 	0.57103 0.83703 0.05404 -0.30400
Zn	Zn	0.60912 0.94238 0.10365 1.18700
O 	O 	0.66235 0.88255 0.11142 -0.41700
C 	C 	0.59132 0.81221 0.06240 0.28500
O 	O 	0.62102 0.81963 0.08213 -0.37000
Zn	Zn	0.10579 0.62071 0.93729 1.22400
C 	C 	0.06315 0.67900 0.93814 0.32300
O 	O 	0.09125 0.59440 0.00490 -0.42200
O 	O 	0.04163 0.66156 0.90729 -0.41000
O 	O 	0.03904 0.61784 0.01142 -0.45000
C 	C 	0.07362 0.60392 0.83071 0.34300
O 	O 	0.09525 0.62432 0.85491 -0.43300
O 	O 	0.04936 0.59062 0.86184 -0.45000
C 	C 	0.06478 0.60292 0.03598 0.33700
O 	O 	0.14407 0.57824 0.91042 -0.30600
Zn	Zn	0.03044 0.61317 0.92895 1.18300
O 	O 	0.08958 0.66461 0.96191 -0.39500
C 	C 	0.16728 0.59862 0.92820 0.28500
O 	O 	0.15642 0.62632 0.94954 -0.37100
C 	C 	0.02823 0.49946 0.49118 0.03100
C 	C 	0.00359 0.47383 0.49499 0.04200
C 	C 	0.02809 0.52123 0.44353 -0.04100
C 	C 	0.00285 0.51862 0.40086 0.03800
C 	C 	0.97852 0.47099 0.45194 -0.04000
C 	C 	0.97759 0.49362 0.40551 0.04600
H 	H 	0.95964 0.45159 0.45492 0.07700
H 	H 	0.04723 0.54037 0.44007 0.07100
C 	C 	0.95132 0.49270 0.36394 -0.01400
C 	C 	0.95132 0.51408 0.31573 0.03700
C 	C 	0.93258 0.50140 0.26785 -0.00900
C 	C 	0.91850 0.47020 0.27875 -0.00600
S 	S 	0.92966 0.45869 0.34560 0.12000
H 	H 	0.93287 0.51235 0.22500 0.07600
C 	C 	0.00120 0.54134 0.35434 -0.01000
C 	C 	0.97638 0.53862 0.31099 0.03300
C 	C 	0.98598 0.55400 0.25780 -0.00600
C 	C 	0.01842 0.56776 0.25973 -0.00500
S 	S 	0.03461 0.56068 0.32536 0.09900
H 	H 	0.97114 0.55292 0.21843 0.07500
C 	C 	0.05106 0.48270 0.58585 0.03100
C 	C 	0.05253 0.50253 0.53582 -0.00800
S 	S 	0.07158 0.53794 0.55410 0.07700
C 	C 	0.08021 0.52913 0.62329 0.02900
C 	C 	0.06682 0.49766 0.63498 -0.01800
C 	C 	0.00466 0.45184 0.54273 -0.01400
C 	C 	0.02698 0.45712 0.58931 0.03400
C 	C 	0.01558 0.44261 0.64225 -0.01200
C 	C 	0.98440 0.42656 0.63669 -0.00500
S 	S 	0.97141 0.43073 0.56825 0.11400
H 	H 	0.02745 0.44680 0.68388 0.07200
H 	H 	0.06465 0.48808 0.67866 0.08500
Zn	Zn	0.88630 0.38006 0.95386 1.22400
C 	C 	0.83032 0.42265 0.92579 0.32400
O 	O 	0.89467 0.38927 0.87127 -0.40900
O 	O 	0.85254 0.44373 0.90472 -0.43700
O 	O 	0.92803 0.43365 0.89121 -0.47300
C 	C 	0.89195 0.42032 0.05642 0.33800
O 	O 	0.90337 0.39389 0.02960 -0.44000
O 	O 	0.88137 0.44588 0.02633 -0.43000
C 	C 	0.91810 0.41041 0.85525 0.34200
O 	O 	0.93102 0.34126 0.95317 -0.26100
Zn	Zn	0.89729 0.45322 0.94773 1.17800
O 	O 	0.84035 0.39843 0.95992 -0.40800
C 	C 	0.90726 0.31912 0.95566 0.29400
O 	O 	0.87661 0.33042 0.95598 -0.37000
C 	C 	0.99781 0.92828 0.05490 0.11000
N 	N 	0.97976 0.95427 0.03530 -0.16600
C 	C 	0.94805 0.95025 0.05549 0.10200
C 	C 	0.91878 0.96936 0.03282 -0.07000
C 	C 	0.92392 0.00377 0.01264 0.10400
C 	C 	0.88384 0.95643 0.03869 0.03800
C 	C 	0.87507 0.92549 0.01508 -0.03600
C 	C 	0.84228 0.91304 0.02233 -0.03900
C 	C 	0.81751 0.93235 0.04998 0.01100
C 	C 	0.85915 0.97540 0.06727 -0.04700
N 	N 	0.94608 0.02485 0.03736 -0.12800
C 	C 	0.90931 0.01732 0.96363 -0.07400
C 	C 	0.94526 0.05225 0.00383 0.09900
C 	C 	0.96963 0.07984 0.00986 -0.05500
C 	C 	0.95844 0.11414 0.99740 0.01300
C 	C 	0.92065 0.16029 0.01687 -0.02500
C 	C 	0.97663 0.13394 0.95815 -0.04700
C 	C 	0.96728 0.16701 0.94924 -0.03600
C 	C 	0.93913 0.18024 0.97833 -0.00200
N 	N 	0.02139 0.04602 0.02658 -0.16500
C 	C 	0.05303 0.05232 0.04550 0.10600
C 	C 	0.05516 0.08423 0.06768 -0.06200
C 	C 	0.02322 0.09785 0.06216 -0.05500
C 	C 	0.08252 0.03076 0.03195 -0.08200
C 	C 	0.11724 0.04281 0.04280 0.07400
C 	C 	0.16163 0.05814 0.11031 -0.01600
C 	C 	0.18368 0.06415 0.06372 -0.01400
C 	C 	0.17241 0.05921 0.00660 0.01700
C 	C 	0.13904 0.04942 0.99616 -0.10200
N 	N 	0.05255 0.97709 0.04435 -0.13000
C 	C 	0.08483 0.94414 0.98814 -0.07200
C 	C 	0.05761 0.94574 0.02588 0.10800
C 	C 	0.03159 0.91961 0.03188 -0.08200
C 	C 	0.03891 0.88524 0.01378 0.06900
C 	C 	0.05945 0.86489 0.04834 -0.06900
C 	C 	0.06481 0.83178 0.03285 -0.00200
C 	C 	0.05019 0.81900 0.98210 -0.02300
C 	C 	0.03008 0.83953 0.94707 -0.01600
C 	C 	0.02441 0.87252 0.96292 -0.08100
C 	C 	0.97771 0.90739 0.08791 -0.06100
C 	C 	0.94581 0.92154 0.08855 -0.05700
C 	C 	0.82608 0.96359 0.07229 -0.03200
C 	C 	0.92313 0.04853 0.95781 -0.07000
C 	C 	0.00320 0.07368 0.03665 0.09800
C 	C 	0.09752 0.97586 0.98413 -0.07300
C 	C 	0.07701 0.99527 0.01892 0.11000
C 	C 	0.12867 0.04714 0.09991 -0.06900
H 	H 	0.98613 0.96830 0.99870 0.08500
H 	H 	0.01531 0.02826 0.99526 0.08600
H 	H 	0.07980 0.81591 0.06076 0.05000
H 	H 	0.01843 0.82975 0.90811 0.04000
H 	H 	0.07065 0.87454 0.08777 0.06000
H 	H 	0.00851 0.88811 0.93602 0.05300
H 	H 	0.83616 0.88849 0.00650 0.04700
H 	H 	0.86563 0.99928 0.08574 0.05400
H 	H 	0.80715 0.97855 0.09405 0.04800
H 	H 	0.89379 0.91087 0.99212 0.03200
H 	H 	0.98191 0.18237 0.91989 0.05200
H 	H 	0.99836 0.12390 0.93544 0.04600
C 	C 	0.93021 0.12737 0.02628 -0.03300
H 	H 	0.89913 0.17044 0.04003 0.04400
H 	H 	0.17023 0.06152 0.15456 0.04400
H 	H 	0.11199 0.04200 0.13617 0.05900
H 	H 	0.13031 0.04637 0.95192 0.06100
H 	H 	0.18947 0.06312 0.97040 0.03400
H 	H 	0.98296 0.88148 0.09631 0.05800
H 	H 	0.92271 0.90846 0.09913 0.05500
H 	H 	0.89771 0.00326 0.92892 0.05200
H 	H 	0.92420 0.06245 0.91766 0.05200
H 	H 	0.07825 0.09853 0.07135 0.05300
H 	H 	0.01793 0.12419 0.06200 0.05600
H 	H 	0.09708 0.92180 0.97270 0.05200
H 	H 	0.12235 0.98244 0.96799 0.05500
H 	H 	0.91607 0.11230 0.05679 0.05000
C 	C 	0.91474 0.28361 0.96271 -0.08500
C 	C 	0.93224 0.27167 0.01213 0.09600
C 	C 	0.94034 0.23783 0.01587 -0.06600
C 	C 	0.93061 0.21573 0.97203 -0.00100
C 	C 	0.91228 0.22751 0.92343 0.02000
C 	C 	0.90443 0.26141 0.91942 0.00100
H 	H 	0.95374 0.22854 0.05359 0.05800
H 	H 	0.89028 0.27054 0.88238 0.06900
C 	C 	0.94065 0.29431 0.06282 -0.13000
C 	C 	0.89910 0.20397 0.87742 -0.10200
C 	C 	0.90952 0.30218 0.10050 -0.00800
H 	H 	0.88909 0.31333 0.07377 0.05600
H 	H 	0.91691 0.32087 0.13359 0.06100
C 	C 	0.86438 0.19004 0.89470 -0.01700
H 	H 	0.84589 0.21070 0.89894 0.04100
H 	H 	0.86611 0.17717 0.93724 0.03400
H 	H 	0.96054 0.28294 0.09062 0.07800
H 	H 	0.91722 0.18339 0.86960 0.06100
C 	C 	0.89577 0.27156 0.13181 -0.16500
C 	C 	0.85127 0.16547 0.84960 -0.16500
H 	H 	0.91605 0.25944 0.15760 0.07800
H 	H 	0.87511 0.27909 0.16173 0.08700
H 	H 	0.88531 0.25351 0.10015 0.07700
H 	H 	0.95191 0.31784 0.04701 0.10000
H 	H 	0.84865 0.17777 0.80666 0.07600
H 	H 	0.82606 0.15606 0.86320 0.07400
H 	H 	0.86885 0.14408 0.84563 0.07000
H 	H 	0.89675 0.21731 0.83532 0.06900
C 	C 	0.96458 0.39011 0.71580 -0.00800
C 	C 	0.96154 0.42034 0.68619 0.10200
C 	C 	0.94025 0.44563 0.70882 -0.14800
C 	C 	0.92385 0.44038 0.76226 0.08000
C 	C 	0.92960 0.41143 0.79443 -0.03500
C 	C 	0.94929 0.38548 0.77040 -0.06500
C 	C 	0.95525 0.35354 0.80388 0.77000
H 	H 	0.98031 0.37078 0.69737 0.09400
H 	H 	0.90743 0.45934 0.78011 0.05700
C 	C 	0.93379 0.47758 0.67531 0.79300
F 	F 	0.97546 0.33156 0.77334 -0.44200
F 	F 	0.92467 0.33804 0.81481 -0.45200
F 	F 	0.97120 0.36056 0.85584 -0.44300
F 	F 	0.91618 0.47053 0.62499 -0.44900
F 	F 	0.96397 0.49305 0.66146 -0.45100
F 	F 	0.91471 0.49986 0.70730 -0.44200
C 	C 	0.87657 0.44692 0.21075 -0.00300
C 	C 	0.90981 0.44675 0.23202 0.10200
C 	C 	0.93546 0.42996 0.20047 -0.13700
C 	C 	0.92856 0.41928 0.14358 0.07600
C 	C 	0.89623 0.42342 0.11966 -0.03100
C 	C 	0.86924 0.43411 0.15545 -0.06900
C 	C 	0.83296 0.43365 0.13391 0.77200
H 	H 	0.85678 0.45881 0.23588 0.08900
H 	H 	0.94865 0.40918 0.11687 0.07900
C 	C 	0.96953 0.42231 0.22798 0.79300
F 	F 	0.81042 0.43307 0.17996 -0.44100
F 	F 	0.82700 0.40577 0.10042 -0.44400
F 	F 	0.82682 0.46173 0.10108 -0.45000
F 	F 	0.96473 0.40386 0.27791 -0.44200
F 	F 	0.98631 0.45135 0.24169 -0.40500
F 	F 	0.99010 0.40413 0.19114 -0.42200
C 	C 	0.05798 0.71488 0.94564 -0.08700
C 	C 	0.03018 0.72746 0.97787 0.09400
C 	C 	0.02843 0.76157 0.98963 -0.09700
C 	C 	0.05319 0.78334 0.96860 0.02700
C 	C 	0.08023 0.77098 0.93458 0.00600
C 	C 	0.08255 0.73675 0.92409 0.00700
H 	H 	0.00766 0.77122 0.01543 0.07500
H 	H 	0.10386 0.72706 0.89965 0.04500
C 	C 	0.00228 0.70500 0.00075 -0.10600
C 	C 	0.10774 0.79367 0.91157 -0.09500
C 	C 	0.96869 0.71003 0.96820 -0.02500
H 	H 	0.96168 0.73673 0.96762 0.03500
H 	H 	0.94838 0.69661 0.99198 0.03400
C 	C 	0.13814 0.79437 0.95297 -0.02100
H 	H 	0.14869 0.76893 0.95774 0.04100
H 	H 	0.13003 0.80316 0.99650 0.04000
H 	H 	0.00918 0.67837 0.00040 0.08400
H 	H 	0.09810 0.81923 0.90438 0.05600
C 	C 	0.96983 0.69696 0.90600 -0.15900
C 	C 	0.16600 0.81726 0.93048 -0.16300
H 	H 	0.97465 0.66982 0.90591 0.06200
H 	H 	0.94506 0.70153 0.88471 0.08000
H 	H 	0.98977 0.70983 0.88052 0.09600
H 	H 	0.99796 0.71114 0.04722 0.09700
H 	H 	0.17516 0.80866 0.88743 0.07100
H 	H 	0.18761 0.81708 0.96128 0.07000
H 	H 	0.15642 0.84308 0.92661 0.06800
H 	H 	0.11619 0.78457 0.86834 0.05800
C 	C 	0.05392 0.57487 0.67951 0.00400
C 	C 	0.08235 0.55500 0.66834 0.09700
C 	C 	0.11098 0.55714 0.70497 -0.14100
C 	C 	0.10862 0.57533 0.75691 0.08000
C 	C 	0.07895 0.59275 0.77060 -0.02700
C 	C 	0.05267 0.59508 0.72911 -0.06400
C 	C 	0.02236 0.61746 0.73911 0.77000
H 	H 	0.03223 0.57353 0.65082 0.10000
H 	H 	0.12910 0.57449 0.78814 0.07100
C 	C 	0.14310 0.53814 0.69096 0.79300
F 	F 	0.00671 0.62529 0.68713 -0.43100
F 	F 	0.03220 0.64687 0.76507 -0.45200
F 	F 	0.99921 0.60149 0.77446 -0.45500
F 	F 	0.15122 0.54178 0.63285 -0.43800
F 	F 	0.13833 0.50487 0.70307 -0.44600
F 	F 	0.17023 0.54957 0.72330 -0.44700
C 	C 	0.05604 0.55927 0.10980 0.08100
C 	C 	0.06235 0.59266 0.09702 -0.03000
C 	C 	0.06176 0.61648 0.14200 -0.06800
C 	C 	0.04889 0.60741 0.19666 -0.00400
C 	C 	0.03916 0.57459 0.20780 0.10100
C 	C 	0.04589 0.54965 0.16580 -0.14900
C 	C 	0.04032 0.51311 0.17870 0.79800
H 	H 	0.05757 0.54096 0.07543 0.06500
H 	H 	0.04488 0.62617 0.22965 0.09000
C 	C 	0.07280 0.65196 0.13095 0.77300
F 	F 	0.06071 0.49366 0.14361 -0.42300
F 	F 	0.00692 0.50496 0.16800 -0.43600
F 	F 	0.04820 0.50560 0.23567 -0.42300
F 	F 	0.04721 0.66889 0.10279 -0.45800
F 	F 	0.10171 0.65260 0.09698 -0.44200
F 	F 	0.08002 0.66818 0.18243 -0.43900
C 	C 	0.71335 0.91044 0.08064 -0.09600
C 	C 	0.73718 0.90871 0.12644 0.09000
C 	C 	0.77182 0.91138 0.11367 -0.08200
C 	C 	0.78273 0.91963 0.05757 0.00600
C 	C 	0.75891 0.92114 0.01171 0.03000
C 	C 	0.72458 0.91534 0.02356 0.00600
H 	H 	0.79016 0.90999 0.14861 0.05900
H 	H 	0.70635 0.91585 0.98839 0.07000
C 	C 	0.72615 0.90811 0.18957 -0.13900
C 	C 	0.76964 0.92824 0.94972 -0.11800
C 	C 	0.73002 0.94222 0.21867 0.00700
H 	H 	0.75691 0.95032 0.21701 0.03600
H 	H 	0.72294 0.93980 0.26517 0.08300
C 	C 	0.77365 0.89588 0.91535 -0.01000
H 	H 	0.74885 0.88291 0.91287 0.03800
H 	H 	0.79189 0.87919 0.93753 0.02900
H 	H 	0.69987 0.89916 0.19534 0.12800
H 	H 	0.79340 0.94292 0.94777 0.06000
C 	C 	0.70775 0.96890 0.19094 -0.16700
C 	C 	0.78629 0.90250 0.85378 -0.16900
H 	H 	0.68101 0.96057 0.18874 0.10600
H 	H 	0.70892 0.99186 0.21743 0.09300
H 	H 	0.71685 0.97486 0.14652 0.08100
H 	H 	0.74228 0.89007 0.21338 0.08600
H 	H 	0.76822 0.91873 0.83015 0.08200
H 	H 	0.78855 0.87865 0.82999 0.07300
H 	H 	0.81157 0.91456 0.85491 0.06900
H 	H 	0.75001 0.94385 0.92844 0.07900
C 	C 	0.57671 0.94479 0.84463 -0.00100
C 	C 	0.55206 0.92181 0.82720 0.09400
C 	C 	0.54795 0.89197 0.85867 -0.14400
C 	C 	0.56411 0.88846 0.91264 0.07200
C 	C 	0.58618 0.91305 0.93290 -0.02700
C 	C 	0.59480 0.94005 0.89654 -0.07300
C 	C 	0.62181 0.96475 0.91442 0.77200
H 	H 	0.58033 0.96725 0.81949 0.09300
H 	H 	0.55827 0.86743 0.94018 0.06200
C 	C 	0.52413 0.86517 0.83728 0.79300
F 	F 	0.63238 0.98376 0.86772 -0.43700
F 	F 	0.64982 0.94832 0.93619 -0.46200
F 	F 	0.60898 0.98565 0.95661 -0.45600
F 	F 	0.52854 0.86017 0.77834 -0.44300
F 	F 	0.49105 0.87467 0.84770 -0.44200
F 	F 	0.53009 0.83529 0.86514 -0.45300
C 	C 	0.54995 0.89222 0.26360 0.07600
C 	C 	0.58479 0.89823 0.25805 -0.02900
C 	C 	0.60357 0.90796 0.30753 -0.07100
C 	C 	0.58611 0.91893 0.35713 0.00200
C 	C 	0.55069 0.91693 0.35978 0.09400
C 	C 	0.53295 0.90015 0.31537 -0.14200
C 	C 	0.49533 0.89345 0.32081 0.79300
H 	H 	0.53576 0.88326 0.22653 0.07100
H 	H 	0.59989 0.93068 0.39221 0.08600
C 	C 	0.64189 0.90816 0.30704 0.77500
F 	F 	0.48553 0.86782 0.28454 -0.43500
F 	F 	0.47746 0.92169 0.30596 -0.44400
F 	F 	0.48723 0.88448 0.37714 -0.43000
F 	F 	0.65324 0.93812 0.28538 -0.46800
F 	F 	0.65437 0.88255 0.27327 -0.45700
F 	F 	0.65450 0.90412 0.36265 -0.44300
C 	C 	0.28888 0.08565 0.09042 -0.08700
C 	C 	0.27515 0.05481 0.10857 0.08800
C 	C 	0.24056 0.04855 0.09997 -0.08000
C 	C 	0.21948 0.07256 0.07497 0.02300
C 	C 	0.23266 0.10423 0.06112 0.01400
C 	C 	0.26738 0.11031 0.06841 0.01000
H 	H 	0.22984 0.02507 0.11376 0.06100
H 	H 	0.27774 0.13432 0.05668 0.05800
C 	C 	0.29607 0.02971 0.14246 -0.12200
C 	C 	0.20960 0.13257 0.04348 -0.09800
C 	C 	0.29951 0.99621 0.11093 -0.00900
H 	H 	0.27416 0.98596 0.10032 0.04200
H 	H 	0.31195 0.97830 0.14076 0.04600
C 	C 	0.19335 0.14871 0.09699 -0.01900
H 	H 	0.21347 0.15894 0.12560 0.04400
H 	H 	0.17884 0.12993 0.12207 0.04000
H 	H 	0.32157 0.03902 0.15431 0.06400
H 	H 	0.18968 0.12395 0.01310 0.06200
C 	C 	0.32060 0.99845 0.05548 -0.16600
C 	C 	0.16936 0.17672 0.07980 -0.16500
H 	H 	0.34694 0.00602 0.06584 0.07000
H 	H 	0.32148 0.97374 0.03430 0.09400
H 	H 	0.30920 0.01637 0.02451 0.12500
H 	H 	0.28307 0.02514 0.18453 0.07500
H 	H 	0.18325 0.19628 0.05551 0.07800
H 	H 	0.15824 0.18797 0.11945 0.07600
H 	H 	0.14847 0.16699 0.05240 0.07300
H 	H 	0.22434 0.15164 0.01934 0.06600
C 	C 	0.44450 0.11202 0.91294 0.07500
C 	C 	0.41274 0.10041 0.93089 -0.01700
C 	C 	0.39287 0.08124 0.89235 -0.07800
C 	C 	0.40776 0.06909 0.84117 0.00200
C 	C 	0.44144 0.07685 0.82754 0.09400
C 	C 	0.45885 0.10091 0.86060 -0.13800
C 	C 	0.49400 0.11226 0.84312 0.79200
H 	H 	0.45904 0.12772 0.94185 0.07700
H 	H 	0.39415 0.05156 0.81425 0.09000
C 	C 	0.35724 0.07067 0.90860 0.77400
F 	F 	0.50355 0.14051 0.87307 -0.43500
F 	F 	0.49483 0.11955 0.78445 -0.43900
F 	F 	0.51710 0.08736 0.85480 -0.43400
F 	F 	0.33925 0.09728 0.93060 -0.44700
F 	F 	0.35876 0.04585 0.94993 -0.47800
F 	F 	0.33977 0.05878 0.86087 -0.44300
C 	C 	0.45806 0.09675 0.32841 -0.00300
C 	C 	0.43730 0.07731 0.36422 0.09600
C 	C 	0.40216 0.07562 0.35297 -0.14000
C 	C 	0.38961 0.08869 0.30065 0.07700
C 	C 	0.41162 0.10292 0.25982 -0.02700
C 	C 	0.44560 0.10970 0.27587 -0.07800
C 	C 	0.46875 0.12991 0.23681 0.77600
H 	H 	0.48454 0.09965 0.33954 0.08900
H 	H 	0.36317 0.08552 0.28946 0.07400
C 	C 	0.37840 0.05835 0.39511 0.79200
F 	F 	0.50012 0.13513 0.26196 -0.44200
F 	F 	0.45442 0.16061 0.22633 -0.45800
F 	F 	0.47373 0.11350 0.18477 -0.45900
F 	F 	0.38160 0.07228 0.44965 -0.43900
F 	F 	0.38625 0.02495 0.39807 -0.43300
F 	F 	0.34489 0.06136 0.37834 -0.43800
C 	C 	0.40738 0.23403 0.06646 -0.08200
C 	C 	0.43438 0.25153 0.09282 0.08700
C 	C 	0.44191 0.28382 0.07408 -0.07400
C 	C 	0.42249 0.29911 0.03083 0.00100
C 	C 	0.39383 0.28263 0.00794 0.03000
C 	C 	0.38682 0.25000 0.02550 -0.01200
H 	H 	0.46298 0.29711 0.09328 0.06100
H 	H 	0.36576 0.23675 0.00619 0.05700
C 	C 	0.45383 0.23712 0.14378 -0.13800
C 	C 	0.37111 0.29909 0.96344 -0.11200
C 	C 	0.43978 0.24913 0.20233 0.00900
H 	H 	0.43880 0.27669 0.20321 0.03500
H 	H 	0.45737 0.24105 0.23721 0.06500
C 	C 	0.38191 0.28986 0.90153 -0.01700
H 	H 	0.37956 0.26261 0.89533 0.04600
H 	H 	0.40876 0.29688 0.89419 0.04100
H 	H 	0.45467 0.20965 0.14311 0.12400
H 	H 	0.37101 0.32648 0.96875 0.05400
C 	C 	0.40463 0.23519 0.21568 -0.17600
C 	C 	0.36005 0.30741 0.85636 -0.16400
H 	H 	0.40463 0.20771 0.21242 0.11600
H 	H 	0.39723 0.24218 0.26054 0.08900
H 	H 	0.38556 0.24558 0.18533 0.08400
H 	H 	0.48072 0.24511 0.14060 0.08600
H 	H 	0.33303 0.30043 0.86190 0.07400
H 	H 	0.36832 0.30000 0.81215 0.07800
H 	H 	0.36268 0.33475 0.86049 0.06900
H 	H 	0.34453 0.29092 0.97059 0.05600
C 	C 	0.27279 0.57264 0.92502 0.00700
C 	C 	0.24792 0.54849 0.93864 0.01700
C 	C 	0.21370 0.55782 0.94071 -0.00600
C 	C 	0.20366 0.59011 0.92601 -0.07700
C 	C 	0.22835 0.61350 0.90785 0.08100
C 	C 	0.26276 0.60483 0.90971 -0.07500
H 	H 	0.19476 0.53966 0.95305 0.06000
H 	H 	0.28179 0.62311 0.89828 0.05700
C 	C 	0.25708 0.51225 0.94796 -0.09800
C 	C 	0.21850 0.64748 0.88512 -0.11700
C 	C 	0.24823 0.49075 0.89504 -0.01900
H 	H 	0.22127 0.49435 0.88273 0.06000
H 	H 	0.25145 0.46424 0.90713 0.04200
C 	C 	0.22059 0.67377 0.93324 -0.01200
H 	H 	0.24753 0.67761 0.94551 0.03900
H 	H 	0.20672 0.66536 0.97255 0.06200
H 	H 	0.28404 0.50844 0.95944 0.05500
H 	H 	0.19289 0.64710 0.86523 0.07700
C 	C 	0.27080 0.49804 0.84269 -0.16200
C 	C 	0.20570 0.70686 0.91343 -0.16200
H 	H 	0.29791 0.49505 0.85436 0.06800
H 	H 	0.26475 0.48039 0.80720 0.08700
H 	H 	0.26630 0.52360 0.82647 0.08700
H 	H 	0.24251 0.50281 0.98583 0.06100
H 	H 	0.21931 0.71613 0.87443 0.07200
H 	H 	0.20832 0.72546 0.94868 0.07200
H 	H 	0.17838 0.70402 0.90313 0.07500
H 	H 	0.23602 0.65465 0.84940 0.06700
C 	C 	0.79386 0.42914 0.91814 -0.09500
C 	C 	0.77132 0.40392 0.89965 0.09300
C 	C 	0.73630 0.41001 0.90064 -0.08100
C 	C 	0.72372 0.44143 0.91523 0.01700
C 	C 	0.74655 0.46765 0.92709 0.00200
C 	C 	0.78134 0.46093 0.93034 0.01300
H 	H 	0.71884 0.39045 0.88853 0.06000
H 	H 	0.79874 0.48058 0.94234 0.04500
C 	C 	0.78413 0.37192 0.87264 -0.12900
C 	C 	0.73438 0.50307 0.93488 -0.07200
C 	C 	0.78502 0.37385 0.80602 -0.00300
H 	H 	0.76008 0.38222 0.78910 0.03700
H 	H 	0.78972 0.34854 0.78864 0.04300
C 	C 	0.73417 0.51303 0.99919 -0.08700
H 	H 	0.76048 0.51285 0.01632 0.08300
H 	H 	0.71904 0.49509 0.02493 0.07300
H 	H 	0.80933 0.36436 0.88908 0.07700
H 	H 	0.70890 0.50691 0.91566 0.04900
C 	C 	0.81281 0.39687 0.78337 -0.17600
C 	C 	0.71925 0.54762 0.00763 -0.09400
H 	H 	0.83784 0.38945 0.80100 0.09600
H 	H 	0.81390 0.39529 0.73530 0.09000
H 	H 	0.80742 0.42300 0.79544 0.08600
H 	H 	0.76680 0.35139 0.88522 0.07000
H 	H 	0.73418 0.56628 0.98302 0.04800
H 	H 	0.71990 0.55424 0.05440 0.06500
H 	H 	0.69251 0.54823 0.99269 0.04400
H 	H 	0.75167 0.51997 0.91077 0.05000
C 	C 	0.56705 0.71484 0.00125 0.05100
C 	C 	0.55715 0.72505 0.05771 0.00400
C 	C 	0.56643 0.75668 0.07745 -0.00200
C 	C 	0.58331 0.77890 0.04082 -0.07300
C 	C 	0.59119 0.76954 0.98321 0.08400
C 	C 	0.58401 0.73716 0.96464 -0.10100
H 	H 	0.55967 0.76433 0.12109 0.05400
H 	H 	0.59126 0.72942 0.92129 0.06800
C 	C 	0.53517 0.70335 0.09642 -0.09200
C 	C 	0.60743 0.79378 0.94122 -0.12900
C 	C 	0.49823 0.71530 0.09820 -0.02000
H 	H 	0.49712 0.74202 0.10994 0.05400
H 	H 	0.48465 0.70130 0.13266 0.04500
C 	C 	0.64618 0.79246 0.94517 -0.00600
H 	H 	0.65523 0.76772 0.93052 0.03500
H 	H 	0.65449 0.79611 0.99077 0.04200
H 	H 	0.53576 0.67676 0.08434 0.05700
H 	H 	0.59833 0.81942 0.94940 0.08400
C 	C 	0.47979 0.70984 0.04075 -0.16100
C 	C 	0.66255 0.81922 0.90751 -0.17400
H 	H 	0.48100 0.68332 0.02787 0.07100
H 	H 	0.45278 0.71691 0.04572 0.08100
H 	H 	0.49105 0.72548 0.00608 0.08600
H 	H 	0.54545 0.70436 0.14130 0.06100
H 	H 	0.65517 0.81595 0.86134 0.08500
H 	H 	0.69053 0.81739 0.91083 0.07200
H 	H 	0.65467 0.84427 0.92240 0.08800
H 	H 	0.59959 0.78774 0.89607 0.08900
