data_crystal

_cell_length_a 40.60902
_cell_length_b 39.89981
_cell_length_c 24.39275
_cell_angle_alpha 93.10611
_cell_angle_beta  92.60070
_cell_angle_gamma 90.06267

_symmetry_space_group_name_	'P 1'
_symmetry_space_group_name_H-M	'P 1'

loop_
_symmetry_equiv_pos_as_xyz
  x,y,z

loop_
_atom_site_label
_atom_site_type_symbol
_atom_site_fract_x
_atom_site_fract_y
_atom_site_fract_z
_atom_site_charge
Cd	Cd	0.05133 0.89013 0.22155 1.24200
Cd	Cd	0.01100 0.94279 0.32012 1.16900
O 	O 	0.08248 0.84231 0.25665 -0.32500
O 	O 	0.07449 0.84845 0.16827 -0.35000
C 	C 	0.08681 0.83034 0.20700 0.29500
O 	O 	0.01988 0.92453 0.17079 -0.37800
O 	O 	0.01782 0.96608 0.23945 -0.44400
C 	C 	0.00720 0.95290 0.19117 0.27900
C 	C 	0.99177 0.86747 0.26502 0.30400
O 	O 	0.06597 0.92848 0.31044 -0.45500
O 	O 	0.99894 0.84952 0.22087 -0.29300
O 	O 	0.01376 0.88956 0.28254 -0.55000
C 	C 	0.08719 0.94375 0.28190 0.30000
O 	O 	0.09226 0.93052 0.23296 -0.36200
Cd	Cd	0.00279 0.89724 0.99941 1.23400
Cd	Cd	0.00038 0.94495 0.88033 1.15700
O 	O 	0.04656 0.85502 0.00585 -0.31000
O 	O 	0.01193 0.86348 0.07144 -0.36300
C 	C 	0.03599 0.84549 0.05197 0.30000
O 	O 	0.96588 0.93736 0.01850 -0.37200
O 	O 	0.95446 0.94858 0.92849 -0.46400
C 	C 	0.95446 0.95775 0.98121 0.27400
C 	C 	0.04824 0.95053 0.99215 0.28900
O 	O 	0.99645 0.88762 0.89154 -0.45500
O 	O 	0.04854 0.94103 0.04267 -0.28600
O 	O 	0.03148 0.93188 0.95602 -0.55400
C 	C 	0.96981 0.87046 0.89869 0.29400
O 	O 	0.96300 0.86595 0.94951 -0.37900
C 	C 	0.03456 0.61783 0.91040 0.14300
N 	N 	0.05499 0.61273 0.86817 -0.14700
C 	C 	0.04765 0.58915 0.82717 0.12700
N 	N 	0.02027 0.56978 0.82963 -0.14400
C 	C 	0.00071 0.57353 0.87323 0.12200
N 	N 	0.00750 0.59804 0.91301 -0.13900
C 	C 	0.08686 0.61347 0.34377 0.14000
N 	N 	0.06151 0.59444 0.32093 -0.14300
C 	C 	0.04437 0.57410 0.35223 0.13100
N 	N 	0.05278 0.57250 0.40643 -0.14400
C 	C 	0.07777 0.59169 0.42979 0.13000
N 	N 	0.09512 0.61178 0.39826 -0.14400
Cd	Cd	0.83068 0.91318 0.69420 1.24000
Cd	Cd	0.85670 0.92504 0.83530 1.16500
O 	O 	0.78206 0.87765 0.67210 -0.33000
O 	O 	0.80375 0.90716 0.60971 -0.34900
C 	C 	0.77980 0.88758 0.62229 0.30000
O 	O 	0.87048 0.95264 0.69572 -0.38500
O 	O 	0.89576 0.93748 0.77690 -0.44900
C 	C 	0.89251 0.95845 0.73699 0.28000
C 	C 	0.79541 0.95890 0.76361 0.30600
O 	O 	0.84961 0.87723 0.77682 -0.45800
O 	O 	0.78762 0.96264 0.71181 -0.30600
O 	O 	0.81467 0.93379 0.77320 -0.54400
C 	C 	0.87165 0.86343 0.74564 0.30300
O 	O 	0.87017 0.87145 0.69440 -0.36400
Cd	Cd	0.81632 0.91500 0.38468 1.24100
Cd	Cd	0.86038 0.91996 0.26280 1.16100
O 	O 	0.77436 0.87068 0.38702 -0.32800
O 	O 	0.78579 0.90496 0.45855 -0.34000
C 	C 	0.76675 0.88118 0.43616 0.29400
O 	O 	0.85607 0.95242 0.40861 -0.38200
O 	O 	0.86658 0.96573 0.32081 -0.47100
C 	C 	0.87581 0.96509 0.37332 0.28200
C 	C 	0.86821 0.86921 0.36306 0.30800
O 	O 	0.80459 0.92365 0.27948 -0.46000
O 	O 	0.86039 0.86849 0.41448 -0.29600
O 	O 	0.84888 0.88653 0.33211 -0.55000
C 	C 	0.78828 0.95064 0.29342 0.30200
O 	O 	0.78469 0.95639 0.34599 -0.37200
C 	C 	0.57156 0.91369 0.74725 0.13900
N 	N 	0.55725 0.94437 0.74388 -0.14400
C 	C 	0.53771 0.95633 0.78413 0.13000
N 	N 	0.53260 0.93780 0.82794 -0.14400
C 	C 	0.54658 0.90712 0.83139 0.13000
N 	N 	0.56530 0.89465 0.79029 -0.14000
C 	C 	0.54081 0.87493 0.30863 0.13900
N 	N 	0.54084 0.86719 0.25370 -0.13500
C 	C 	0.51321 0.87149 0.22150 0.13000
N 	N 	0.48493 0.88179 0.24478 -0.14400
C 	C 	0.48480 0.88998 0.29961 0.12700
N 	N 	0.51288 0.88669 0.33138 -0.14400
Cd	Cd	0.86585 0.11079 0.16844 1.24100
Cd	Cd	0.87890 0.06022 0.28324 1.17000
O 	O 	0.83250 0.16127 0.18423 -0.32900
O 	O 	0.85773 0.15191 0.10709 -0.35900
C 	C 	0.83879 0.17150 0.13626 0.30600
O 	O 	0.90268 0.07177 0.14063 -0.38100
O 	O 	0.88704 0.03346 0.20160 -0.44700
C 	C 	0.90746 0.04310 0.16495 0.28000
C 	C 	0.91398 0.13083 0.25237 0.29700
O 	O 	0.83134 0.07774 0.23664 -0.45300
O 	O 	0.91652 0.14849 0.20922 -0.30400
O 	O 	0.88819 0.11162 0.25141 -0.54500
C 	C 	0.81654 0.06257 0.19366 0.30000
O 	O 	0.82319 0.07354 0.14601 -0.35900
Cd	Cd	0.83250 0.13227 0.95333 1.24200
Cd	Cd	0.86923 0.08353 0.84539 1.16500
O 	O 	0.78438 0.16646 0.92757 -0.31800
O 	O 	0.80304 0.16499 0.01293 -0.32400
C 	C 	0.78277 0.17868 0.97780 0.28700
O 	O 	0.86846 0.09925 0.99758 -0.38800
O 	O 	0.90050 0.08987 0.92341 -0.45800
C 	C 	0.89049 0.08100 0.97113 0.28500
C 	C 	0.80239 0.07118 0.91270 0.30200
O 	O 	0.86081 0.14074 0.85989 -0.45600
O 	O 	0.78917 0.08186 0.95831 -0.29900
O 	O 	0.82219 0.09194 0.89187 -0.55000
C 	C 	0.88036 0.16252 0.88659 0.30200
O 	O 	0.87387 0.16967 0.93777 -0.35400
C 	C 	0.75429 0.39549 0.84323 0.14200
N 	N 	0.73947 0.40025 0.79313 -0.13900
C 	C 	0.75201 0.42285 0.75983 0.13000
N 	N 	0.77872 0.44157 0.77770 -0.14300
C 	C 	0.79278 0.43790 0.82851 0.12900
N 	N 	0.78082 0.41458 0.86097 -0.14400
C 	C 	0.80904 0.39524 0.28721 0.13800
N 	N 	0.83148 0.41991 0.28152 -0.14500
C 	C 	0.83436 0.44614 0.31926 0.12800
N 	N 	0.81494 0.44744 0.36319 -0.14400
C 	C 	0.79290 0.42253 0.36971 0.13000
N 	N 	0.78939 0.39692 0.33093 -0.13400
Cd	Cd	0.05654 0.10335 0.78977 1.24000
Cd	Cd	0.00878 0.09080 0.90552 1.16400
O 	O 	0.10607 0.13877 0.80319 -0.33100
O 	O 	0.09487 0.11009 0.72525 -0.34500
C 	C 	0.11500 0.13038 0.75391 0.29700
O 	O 	0.01895 0.06426 0.76021 -0.39200
O 	O 	0.98097 0.07917 0.82445 -0.45100
C 	C 	0.99048 0.05924 0.78313 0.28400
C 	C 	0.07954 0.05787 0.86909 0.30300
O 	O 	0.02442 0.13890 0.86342 -0.45800
O 	O 	0.09538 0.05371 0.82381 -0.30900
O 	O 	0.05917 0.08281 0.87055 -0.54900
C 	C 	0.00856 0.15302 0.82320 0.29500
O 	O 	0.01845 0.14521 0.77394 -0.36000
Cd	Cd	0.04467 0.09511 0.48230 1.24000
Cd	Cd	0.02543 0.09184 0.33862 1.16100
O 	O 	0.08308 0.13911 0.51938 -0.32600
O 	O 	0.06122 0.10377 0.57283 -0.34800
C 	C 	0.08335 0.12699 0.56776 0.29000
O 	O 	0.00335 0.05785 0.47149 -0.38900
O 	O 	0.01035 0.04537 0.37986 -0.47100
C 	C 	0.99193 0.04527 0.42303 0.29400
C 	C 	0.99923 0.14145 0.43785 0.31800
O 	O 	0.07485 0.08742 0.38925 -0.45900
O 	O 	0.99745 0.14211 0.49137 -0.30000
O 	O 	0.02326 0.12425 0.41795 -0.55500
C 	C 	0.08789 0.06010 0.40735 0.30500
O 	O 	0.08178 0.05376 0.45781 -0.37500
C 	C 	0.33763 0.14808 0.90093 0.13800
N 	N 	0.33680 0.15669 0.95554 -0.13500
C 	C 	0.36462 0.15512 0.98842 0.11500
N 	N 	0.39335 0.14515 0.96631 -0.14500
C 	C 	0.39422 0.13604 0.91193 0.12800
N 	N 	0.36635 0.13775 0.87930 -0.14500
C 	C 	0.29434 0.10434 0.45456 0.13600
N 	N 	0.31223 0.07590 0.46108 -0.14600
C 	C 	0.33565 0.06703 0.42504 0.12800
N 	N 	0.34054 0.08605 0.38168 -0.14400
C 	C 	0.32247 0.11414 0.37453 0.12900
N 	N 	0.29995 0.12374 0.41171 -0.13400
C 	C 	0.32413 0.13134 0.32284 -0.04700
C 	C 	0.30235 0.12240 0.27734 0.10400
C 	C 	0.30934 0.13292 0.22510 -0.08500
C 	C 	0.33780 0.15167 0.21749 -0.00400
C 	C 	0.35775 0.16334 0.26372 0.07100
C 	C 	0.35078 0.15287 0.31606 -0.05200
N 	N 	0.27524 0.10307 0.28324 -0.19900
H 	H 	0.29350 0.12497 0.18978 0.05900
C 	C 	0.34877 0.15487 0.16087 -0.00600
N 	N 	0.38392 0.18397 0.25799 -0.19400
H 	H 	0.36693 0.16038 0.35122 0.05000
C 	C 	0.33763 0.18203 0.13098 -0.08400
C 	C 	0.34508 0.18415 0.07554 0.10200
C 	C 	0.36225 0.15753 0.04883 -0.03400
C 	C 	0.37465 0.13117 0.07945 -0.05500
C 	C 	0.36830 0.12968 0.13534 0.07500
H 	H 	0.32332 0.20168 0.15100 0.05600
N 	N 	0.33662 0.21215 0.04883 -0.19700
H 	H 	0.38837 0.11110 0.05929 0.05400
N 	N 	0.38067 0.10381 0.16399 -0.19400
H 	H 	0.32267 0.23101 0.06802 0.09000
H 	H 	0.34528 0.21632 0.01012 0.10000
H 	H 	0.39460 0.08506 0.14450 0.08500
H 	H 	0.37708 0.10225 0.20586 0.09000
H 	H 	0.39910 0.19168 0.29211 0.08600
H 	H 	0.38898 0.19320 0.22002 0.09000
H 	H 	0.26911 0.09504 0.32149 0.09800
H 	H 	0.25964 0.09617 0.24924 0.08800
C 	C 	0.16612 0.09479 0.59881 -0.11300
C 	C 	0.18344 0.12452 0.59162 0.00800
C 	C 	0.16765 0.15545 0.60177 0.12500
C 	C 	0.13337 0.15628 0.60654 -0.03200
C 	C 	0.11498 0.12639 0.59977 -0.10200
C 	C 	0.13185 0.09564 0.60336 0.18900
C 	C 	0.21308 0.12304 0.55863 -0.00200
O 	O 	0.18496 0.18490 0.60056 -0.27000
H 	H 	0.12081 0.18023 0.60834 0.06700
O 	O 	0.11475 0.06626 0.60738 -0.28000
H 	H 	0.17860 0.07083 0.59537 0.06900
C 	C 	0.24333 0.11169 0.58094 0.12900
C 	C 	0.27021 0.10689 0.54721 -0.06600
C 	C 	0.26679 0.11235 0.49075 -0.06000
C 	C 	0.23638 0.12371 0.46860 0.16300
C 	C 	0.21000 0.12958 0.50272 -0.09800
O 	O 	0.24680 0.10557 0.63567 -0.27600
H 	H 	0.29353 0.09842 0.56479 0.06300
O 	O 	0.23217 0.12852 0.41345 -0.28000
H 	H 	0.18662 0.13795 0.48520 0.07600
H 	H 	0.11121 0.05681 0.56910 0.14600
H 	H 	0.24136 0.08145 0.63784 0.15300
H 	H 	0.22403 0.10671 0.39661 0.14200
H 	H 	0.19302 0.19008 0.63906 0.16000
C 	C 	0.24997 0.12720 0.85167 -0.10100
C 	C 	0.24899 0.13933 0.79870 -0.00700
C 	C 	0.27706 0.15490 0.77964 0.13500
C 	C 	0.30576 0.15835 0.81369 -0.06700
C 	C 	0.30677 0.14599 0.86659 -0.06100
C 	C 	0.27879 0.12992 0.88519 0.16200
C 	C 	0.21770 0.13781 0.76526 0.01600
O 	O 	0.27622 0.16760 0.72845 -0.27800
H 	H 	0.32722 0.17063 0.79896 0.06200
O 	O 	0.27953 0.11695 0.93620 -0.28400
H 	H 	0.22825 0.11565 0.86691 0.06700
C 	C 	0.20308 0.10652 0.74965 0.11900
C 	C 	0.16914 0.10451 0.73684 -0.03600
C 	C 	0.14970 0.13350 0.74055 -0.11100
C 	C 	0.16521 0.16509 0.74743 0.18900
C 	C 	0.19921 0.16716 0.75951 -0.11400
O 	O 	0.22168 0.07783 0.74886 -0.27500
H 	H 	0.15757 0.08013 0.72891 0.06600
O 	O 	0.14698 0.19391 0.74441 -0.29400
H 	H 	0.21064 0.19149 0.76879 0.08000
H 	H 	0.28716 0.09347 0.93037 0.14600
H 	H 	0.21959 0.06862 0.78551 0.14300
H 	H 	0.14108 0.20002 0.78268 0.15600
H 	H 	0.28441 0.14926 0.70365 0.16200
C 	C 	0.74066 0.42267 0.70129 -0.04800
C 	C 	0.73983 0.45274 0.67303 0.10100
C 	C 	0.74159 0.45114 0.61558 -0.08500
C 	C 	0.74178 0.42002 0.58597 -0.00700
C 	C 	0.73651 0.39033 0.61353 0.07300
C 	C 	0.73660 0.39182 0.67119 -0.05500
N 	N 	0.73689 0.48300 0.70072 -0.19800
H 	H 	0.74384 0.47407 0.59410 0.05500
C 	C 	0.75348 0.41832 0.52919 -0.00400
N 	N 	0.73185 0.36037 0.58492 -0.19500
H 	H 	0.73530 0.36878 0.69260 0.06000
C 	C 	0.78574 0.40745 0.52055 -0.08500
C 	C 	0.79854 0.40718 0.46811 0.10400
C 	C 	0.77901 0.41920 0.42381 -0.04600
C 	C 	0.74650 0.42940 0.43205 -0.05100
C 	C 	0.73331 0.42866 0.48431 0.07100
H 	H 	0.80097 0.39917 0.55489 0.05700
N 	N 	0.82947 0.39518 0.46051 -0.19900
H 	H 	0.73144 0.43807 0.39781 0.05000
N 	N 	0.70133 0.43748 0.49091 -0.19400
H 	H 	0.84398 0.38718 0.49377 0.08600
H 	H 	0.83911 0.39280 0.42155 0.09500
H 	H 	0.68685 0.44575 0.45781 0.08600
H 	H 	0.69028 0.43545 0.52841 0.08900
H 	H 	0.72921 0.33831 0.60556 0.08800
H 	H 	0.72954 0.35890 0.54203 0.09100
H 	H 	0.73190 0.48464 0.74241 0.09200
H 	H 	0.73779 0.50521 0.67998 0.08600
C 	C 	0.93725 0.18535 0.90021 -0.04700
C 	C 	0.91154 0.17335 0.86397 -0.11200
C 	C 	0.91791 0.16680 0.80784 0.08800
C 	C 	0.95067 0.16372 0.79241 -0.04600
C 	C 	0.97663 0.16940 0.83171 -0.10800
C 	C 	0.96981 0.18450 0.88365 0.08900
N 	N 	0.99436 0.19830 0.91733 -0.20000
H 	H 	0.93214 0.19399 0.94186 0.05300
H 	H 	0.95587 0.15586 0.75046 0.05300
N 	N 	0.89297 0.16513 0.76873 -0.20700
H 	H 	0.98941 0.20802 0.95675 0.07700
H 	H 	0.01813 0.20113 0.90351 0.08700
H 	H 	0.86936 0.17354 0.77758 0.09200
H 	H 	0.89765 0.15795 0.72797 0.07700
C 	C 	0.78559 0.27225 0.97494 -0.11200
C 	C 	0.75203 0.27918 0.96607 0.00300
C 	C 	0.72853 0.25427 0.97460 0.12300
C 	C 	0.73888 0.22165 0.98539 -0.03800
C 	C 	0.77256 0.21375 0.98720 -0.10200
C 	C 	0.79600 0.23954 0.98397 0.19000
C 	C 	0.74243 0.30926 0.93655 0.00300
O 	O 	0.69552 0.26105 0.96812 -0.28500
H 	H 	0.72069 0.20202 0.98840 0.05900
O 	O 	0.82887 0.23193 0.98182 -0.30000
H 	H 	0.80380 0.29153 0.96946 0.07400
C 	C 	0.74497 0.34130 0.96343 0.11700
C 	C 	0.74579 0.36992 0.93261 -0.06000
C 	C 	0.74466 0.36671 0.87489 -0.06400
C 	C 	0.73880 0.33483 0.84826 0.16600
C 	C 	0.73749 0.30638 0.87923 -0.10000
O 	O 	0.74713 0.34465 0.01974 -0.26600
H 	H 	0.74891 0.39444 0.95356 0.05900
O 	O 	0.73718 0.33103 0.79198 -0.28600
H 	H 	0.73500 0.28177 0.85833 0.07800
H 	H 	0.83823 0.23705 0.01950 0.17100
H 	H 	0.77107 0.34469 0.02976 0.16200
H 	H 	0.71340 0.33250 0.78117 0.14800
H 	H 	0.68873 0.26898 0.00514 0.16300
C 	C 	0.92189 0.13169 0.35449 -0.06500
C 	C 	0.93461 0.13803 0.30332 -0.13800
C 	C 	0.96562 0.15426 0.30190 0.06800
C 	C 	0.98178 0.16564 0.35139 -0.05800
C 	C 	0.97247 0.15319 0.40099 -0.13600
C 	C 	0.94035 0.13993 0.40357 0.10000
N 	N 	0.92680 0.13599 0.45271 -0.20200
H 	H 	0.89749 0.12087 0.35627 0.00000
H 	H 	0.00528 0.17850 0.35024 0.02500
N 	N 	0.98151 0.15566 0.25419 -0.20400
H 	H 	0.90393 0.12414 0.45448 0.07900
H 	H 	0.93756 0.14693 0.48901 0.10700
H 	H 	0.97548 0.13915 0.22056 0.06500
H 	H 	0.00266 0.17046 0.25256 0.05800
C 	C 	0.81279 0.30362 0.23925 -0.10100
C 	C 	0.81716 0.30599 0.18293 -0.01000
C 	C 	0.81754 0.33765 0.16038 0.13900
C 	C 	0.81333 0.36672 0.19425 -0.06800
C 	C 	0.80964 0.36441 0.25096 -0.05900
C 	C 	0.80958 0.33258 0.27342 0.16200
C 	C 	0.82247 0.27514 0.14849 0.01100
O 	O 	0.82164 0.34024 0.10527 -0.28400
H 	H 	0.81349 0.39107 0.17660 0.06500
O 	O 	0.80686 0.32974 0.32885 -0.28100
H 	H 	0.81268 0.27923 0.25679 0.07000
C 	C 	0.85471 0.26321 0.14178 0.11500
C 	C 	0.85994 0.22906 0.12874 -0.03900
C 	C 	0.83320 0.20665 0.12404 -0.11200
C 	C 	0.80088 0.21938 0.12395 0.19400
C 	C 	0.79567 0.25374 0.13454 -0.11700
O 	O 	0.88117 0.28453 0.15072 -0.27700
H 	H 	0.88491 0.21960 0.12730 0.06200
O 	O 	0.77435 0.19802 0.11640 -0.28100
H 	H 	0.77073 0.26312 0.13721 0.08000
H 	H 	0.82981 0.33051 0.34467 0.14500
H 	H 	0.88761 0.28346 0.19031 0.14600
H 	H 	0.76873 0.19206 0.15382 0.15600
H 	H 	0.84576 0.34244 0.10161 0.15700
C 	C 	0.45655 0.90863 0.32219 -0.05000
C 	C 	0.44501 0.90232 0.37462 0.10200
C 	C 	0.42354 0.92532 0.40004 -0.08700
C 	C 	0.41160 0.95303 0.37235 -0.00500
C 	C 	0.42078 0.95760 0.31790 0.07200
C 	C 	0.44337 0.93549 0.29357 -0.05300
N 	N 	0.45351 0.87379 0.39980 -0.19900
H 	H 	0.41578 0.92140 0.44116 0.05400
C 	C 	0.39109 0.97822 0.40171 -0.00600
N 	N 	0.40834 0.98337 0.28907 -0.19400
H 	H 	0.45160 0.93993 0.25290 0.05000
C 	C 	0.40644 0.00672 0.42760 -0.08500
C 	C 	0.38789 0.03527 0.44198 0.10100
C 	C 	0.35354 0.03522 0.42966 -0.05200
C 	C 	0.33774 0.00526 0.41066 -0.05200
C 	C 	0.35626 0.97658 0.39667 0.06900
H 	H 	0.43305 0.00733 0.43385 0.05600
N 	N 	0.40316 0.06274 0.46694 -0.19900
H 	H 	0.31119 0.00487 0.40342 0.04800
N 	N 	0.34057 0.94797 0.37707 -0.19400
H 	H 	0.42873 0.06308 0.47420 0.08600
H 	H 	0.38969 0.08349 0.48108 0.09300
H 	H 	0.31489 0.94729 0.37176 0.08500
H 	H 	0.35359 0.92591 0.36836 0.08900
H 	H 	0.41573 0.98684 0.24927 0.08400
H 	H 	0.39092 0.99987 0.30532 0.09100
H 	H 	0.46570 0.85425 0.37905 0.09400
H 	H 	0.44622 0.87008 0.43958 0.08600
C 	C 	0.52267 0.98968 0.78125 -0.05200
C 	C 	0.53934 0.01849 0.80487 0.10300
C 	C 	0.52121 0.04744 0.81867 -0.08700
C 	C 	0.48689 0.04776 0.80955 -0.00500
C 	C 	0.47110 0.02072 0.77889 0.07200
C 	C 	0.48922 0.99179 0.76514 -0.05300
N 	N 	0.57250 0.01822 0.81556 -0.20000
H 	H 	0.53350 0.06888 0.83985 0.05500
C 	C 	0.46736 0.07304 0.84047 -0.00400
N 	N 	0.43848 0.02207 0.76387 -0.19400
H 	H 	0.47680 0.97013 0.74482 0.04800
C 	C 	0.45910 0.10325 0.81655 -0.08700
C 	C 	0.43724 0.12588 0.84185 0.10200
C 	C 	0.42293 0.11758 0.89124 -0.05100
C 	C 	0.43332 0.08869 0.91729 -0.05200
C 	C 	0.45542 0.06629 0.89244 0.07100
H 	H 	0.46921 0.10888 0.77769 0.05500
N 	N 	0.43061 0.15567 0.81920 -0.19900
H 	H 	0.42299 0.08282 0.95589 0.04700
N 	N 	0.46471 0.03817 0.91826 -0.19400
H 	H 	0.44028 0.16109 0.78168 0.08600
H 	H 	0.41702 0.17427 0.83969 0.09200
H 	H 	0.45522 0.03312 0.95609 0.08200
H 	H 	0.48177 0.02137 0.90174 0.09000
H 	H 	0.42673 0.00152 0.74293 0.08500
H 	H 	0.42474 0.04381 0.77135 0.09000
H 	H 	0.58682 0.99760 0.80360 0.09700
H 	H 	0.58448 0.03922 0.83470 0.08800
C 	C 	0.54356 0.88876 0.88174 -0.05200
C 	C 	0.56938 0.88941 0.92292 0.10600
C 	C 	0.56298 0.87912 0.97557 -0.09900
C 	C 	0.53116 0.86937 0.98823 -0.01400
C 	C 	0.50620 0.86586 0.94592 0.06900
C 	C 	0.51271 0.87553 0.89292 -0.05200
N 	N 	0.59997 0.90091 0.91284 -0.20200
H 	H 	0.58233 0.88075 0.00775 0.06800
C 	C 	0.52306 0.86856 0.04679 0.00800
N 	N 	0.47594 0.85360 0.95602 -0.19500
H 	H 	0.49322 0.87422 0.86096 0.04700
C 	C 	0.51443 0.89862 0.07483 -0.08800
C 	C 	0.51188 0.90035 0.13208 0.10500
C 	C 	0.51548 0.87068 0.16125 -0.04800
C 	C 	0.52283 0.84027 0.13288 -0.04900
C 	C 	0.52690 0.83893 0.07585 0.06900
H 	H 	0.51149 0.92124 0.05236 0.06000
N 	N 	0.50741 0.93071 0.15890 -0.19900
H 	H 	0.52569 0.81763 0.15529 0.05100
N 	N 	0.53426 0.80919 0.04934 -0.19300
H 	H 	0.50307 0.95210 0.13676 0.08600
H 	H 	0.51002 0.93383 0.20162 0.09500
H 	H 	0.53749 0.78754 0.07123 0.08700
H 	H 	0.53636 0.80711 0.00679 0.09300
H 	H 	0.45733 0.85195 0.92495 0.08300
H 	H 	0.47086 0.84475 0.99426 0.08400
H 	H 	0.60551 0.90942 0.87464 0.10600
H 	H 	0.61875 0.90145 0.94365 0.08600
C 	C 	0.79507 0.97385 0.20208 -0.05700
C 	C 	0.78085 0.97648 0.25355 -0.12200
C 	C 	0.76533 0.00686 0.26986 0.11300
C 	C 	0.77297 0.03612 0.24368 -0.05400
C 	C 	0.79379 0.03446 0.19928 -0.10700
C 	C 	0.80016 0.00277 0.17339 0.09700
N 	N 	0.81017 0.99996 0.12097 -0.20200
H 	H 	0.80336 0.94971 0.18551 0.00300
H 	H 	0.76467 0.06031 0.26009 0.04900
N 	N 	0.74219 0.00770 0.30843 -0.19900
H 	H 	0.81585 0.97646 0.10285 0.07100
H 	H 	0.80978 0.02055 0.09635 0.10800
H 	H 	0.73207 0.98555 0.32138 0.09900
H 	H 	0.73223 0.03055 0.32251 0.08600
C 	C 	0.93475 0.96989 0.40427 -0.06800
C 	C 	0.90436 0.98566 0.39443 -0.10800
C 	C 	0.90224 0.02108 0.40060 0.05900
C 	C 	0.93108 0.04012 0.41277 -0.06900
C 	C 	0.96174 0.02443 0.41978 -0.10600
C 	C 	0.96347 0.98894 0.41759 0.06500
N 	N 	0.99244 0.97303 0.42866 -0.21800
H 	H 	0.93622 0.94275 0.40061 0.01000
H 	H 	0.92973 0.06725 0.41549 0.01800
N 	N 	0.87272 0.03694 0.39514 -0.22500
H 	H 	0.99358 0.94683 0.42632 0.01300
H 	H 	0.01387 0.98640 0.44097 0.06800
H 	H 	0.85070 0.02353 0.38824 0.07100
H 	H 	0.87149 0.06314 0.39871 0.02400
C 	C 	0.63019 0.88904 0.35411 -0.10300
C 	C 	0.63182 0.87395 0.40478 -0.01000
C 	C 	0.60333 0.85934 0.42424 0.13600
C 	C 	0.57348 0.86007 0.39298 -0.06900
C 	C 	0.57203 0.87487 0.34195 -0.06000
C 	C 	0.60046 0.88997 0.32313 0.16300
C 	C 	0.66369 0.87325 0.43644 0.01000
O 	O 	0.60438 0.84515 0.47428 -0.28600
H 	H 	0.55161 0.84879 0.40811 0.06200
O 	O 	0.59924 0.90556 0.27429 -0.28200
H 	H 	0.65209 0.90021 0.33884 0.06800
C 	C 	0.68288 0.84389 0.43455 0.12000
C 	C 	0.71710 0.84608 0.44417 -0.03200
C 	C 	0.73251 0.87757 0.45256 -0.10700
C 	C 	0.71285 0.90634 0.46129 0.18600
C 	C 	0.67847 0.90372 0.45546 -0.11500
O 	O 	0.66853 0.81336 0.42005 -0.27700
H 	H 	0.73193 0.82361 0.43972 0.06600
O 	O 	0.72718 0.93728 0.47229 -0.28500
H 	H 	0.66359 0.92616 0.45980 0.07600
H 	H 	0.59333 0.92919 0.28391 0.14600
H 	H 	0.66941 0.81078 0.37947 0.14600
H 	H 	0.72933 0.94689 0.43593 0.14600
H 	H 	0.60854 0.82094 0.46615 0.15800
C 	C 	0.90913 0.01837 0.73562 -0.06500
C 	C 	0.91820 0.98445 0.73275 -0.10200
C 	C 	0.95207 0.97590 0.73535 0.07800
C 	C 	0.97587 0.00102 0.74881 -0.06000
C 	C 	0.96652 0.03471 0.75641 -0.10500
C 	C 	0.93316 0.04370 0.74557 0.07300
N 	N 	0.92426 0.07644 0.74329 -0.20700
H 	H 	0.88330 0.02509 0.73149 0.00500
H 	H 	0.00157 0.99418 0.75475 0.00400
N 	N 	0.96183 0.94381 0.72413 -0.20400
H 	H 	0.89942 0.08306 0.73891 0.01600
H 	H 	0.94196 0.09533 0.74222 0.08900
H 	H 	0.94520 0.92575 0.70716 0.09500
H 	H 	0.98661 0.93713 0.72930 0.04800
C 	C 	0.77559 0.01613 0.79005 -0.05200
C 	C 	0.78763 0.98508 0.80644 -0.12300
C 	C 	0.79505 0.98089 0.86298 0.05500
C 	C 	0.79799 0.00944 0.89921 -0.05000
C 	C 	0.79013 0.04124 0.88076 -0.13500
C 	C 	0.77599 0.04409 0.82728 0.09500
N 	N 	0.76290 0.07362 0.81154 -0.20500
H 	H 	0.76685 0.01885 0.74787 0.05400
H 	H 	0.80654 0.00690 0.94153 0.02700
N 	N 	0.79670 0.94984 0.88319 -0.22800
H 	H 	0.75373 0.07597 0.77120 0.08300
H 	H 	0.76036 0.09398 0.83978 0.09800
H 	H 	0.78736 0.92884 0.86019 0.05600
H 	H 	0.80455 0.94691 0.92404 0.03600
C 	C 	0.69356 0.86220 0.58898 -0.11400
C 	C 	0.67857 0.89281 0.60390 0.01200
C 	C 	0.69687 0.92268 0.60227 0.12600
C 	C 	0.73107 0.92113 0.59733 -0.02700
C 	C 	0.74701 0.88994 0.59505 -0.10500
C 	C 	0.72788 0.86059 0.58553 0.19300
C 	C 	0.64871 0.89258 0.63637 -0.00400
O 	O 	0.68208 0.95318 0.61185 -0.26800
H 	H 	0.74548 0.94408 0.60161 0.07200
O 	O 	0.74283 0.83015 0.57593 -0.28900
H 	H 	0.67917 0.83924 0.58602 0.07700
C 	C 	0.61936 0.90769 0.61748 0.14000
C 	C 	0.59335 0.91266 0.65293 -0.06600
C 	C 	0.59647 0.90279 0.70745 -0.05900
C 	C 	0.62517 0.88569 0.72500 0.16300
C 	C 	0.65095 0.88063 0.68942 -0.10000
O 	O 	0.61676 0.91937 0.56561 -0.28200
H 	H 	0.57115 0.92512 0.63853 0.06600
O 	O 	0.62911 0.87613 0.77807 -0.28800
H 	H 	0.67346 0.86882 0.70407 0.07100
H 	H 	0.74625 0.82073 0.61256 0.15500
H 	H 	0.60712 0.90053 0.54200 0.16100
H 	H 	0.62120 0.85256 0.77700 0.14800
H 	H 	0.67541 0.96076 0.57491 0.15900
C 	C 	0.01324 0.55891 0.33024 -0.05400
C 	C 	0.98313 0.57647 0.33500 0.10800
C 	C 	0.95325 0.55901 0.32554 -0.08600
C 	C 	0.95302 0.52452 0.31130 -0.00500
C 	C 	0.98301 0.50782 0.30085 0.07800
C 	C 	0.01295 0.52517 0.31107 -0.05800
N 	N 	0.98277 0.60989 0.34945 -0.19700
H 	H 	0.93013 0.57197 0.33165 0.05700
C 	C 	0.92195 0.50550 0.31455 -0.00400
N 	N 	0.98321 0.47512 0.28194 -0.19200
H 	H 	0.03608 0.51206 0.30587 0.05200
C 	C 	0.89918 0.50428 0.26953 -0.08700
C 	C 	0.86925 0.48681 0.27153 0.10300
C 	C 	0.86276 0.46911 0.31868 -0.05000
C 	C 	0.88516 0.47111 0.36421 -0.05200
C 	C 	0.91458 0.48941 0.36289 0.07200
H 	H 	0.90458 0.51733 0.23310 0.05700
N 	N 	0.84654 0.48796 0.22892 -0.19900
H 	H 	0.88002 0.45776 0.40046 0.05000
N 	N 	0.93561 0.49137 0.40805 -0.19400
H 	H 	0.85205 0.49999 0.19342 0.08800
H 	H 	0.82279 0.47833 0.23153 0.09500
H 	H 	0.93012 0.47898 0.44321 0.08600
H 	H 	0.95730 0.50549 0.40916 0.09200
H 	H 	0.00550 0.46267 0.27600 0.08300
H 	H 	0.96133 0.46205 0.27151 0.09100
H 	H 	0.00448 0.62398 0.35422 0.08900
H 	H 	0.96042 0.62239 0.35465 0.08800
C 	C 	0.96978 0.55418 0.87337 -0.04100
C 	C 	0.96431 0.53112 0.91426 0.09900
C 	C 	0.93465 0.51283 0.91218 -0.08500
C 	C 	0.91102 0.51631 0.86914 -0.00600
C 	C 	0.91620 0.53986 0.82897 0.07300
C 	C 	0.94561 0.55849 0.83147 -0.05500
N 	N 	0.98768 0.52574 0.95457 -0.19500
H 	H 	0.93046 0.49492 0.94305 0.05400
C 	C 	0.88200 0.49362 0.86450 -0.00500
N 	N 	0.89313 0.54466 0.78793 -0.19400
H 	H 	0.94973 0.57640 0.80056 0.05300
C 	C 	0.85318 0.50350 0.89044 -0.08600
C 	C 	0.82387 0.48490 0.88091 0.09900
C 	C 	0.82366 0.45577 0.84505 -0.04900
C 	C 	0.85292 0.44494 0.82151 -0.05200
C 	C 	0.88220 0.46348 0.83108 0.07200
H 	H 	0.85329 0.52629 0.91679 0.05400
N 	N 	0.79605 0.49538 0.90569 -0.20000
H 	H 	0.85277 0.42230 0.79480 0.05200
N 	N 	0.91028 0.45238 0.80776 -0.19400
H 	H 	0.79638 0.51714 0.93159 0.08400
H 	H 	0.77396 0.48199 0.89997 0.09100
H 	H 	0.91000 0.43046 0.78224 0.08600
H 	H 	0.93271 0.46494 0.81540 0.09000
H 	H 	0.89743 0.56170 0.75796 0.08500
H 	H 	0.87057 0.53198 0.78570 0.09000
H 	H 	0.01080 0.53725 0.95544 0.09200
H 	H 	0.98312 0.50913 0.98508 0.08700
C 	C 	0.08144 0.59581 0.49012 -0.05000
C 	C 	0.05613 0.61084 0.52094 0.10100
C 	C 	0.05730 0.60893 0.57821 -0.08600
C 	C 	0.08430 0.59430 0.60556 -0.00500
C 	C 	0.11092 0.58164 0.57509 0.07000
C 	C 	0.10892 0.58201 0.51740 -0.05200
N 	N 	0.03097 0.62759 0.49589 -0.19900
H 	H 	0.03728 0.61923 0.60173 0.05500
C 	C 	0.08391 0.59184 0.66599 -0.00600
N 	N 	0.13845 0.56947 0.60083 -0.19400
H 	H 	0.12861 0.57115 0.49373 0.05000
C 	C 	0.07697 0.56079 0.68735 -0.08600
C 	C 	0.06953 0.55888 0.74280 0.10100
C 	C 	0.06579 0.58887 0.77570 -0.05100
C 	C 	0.07568 0.61952 0.75569 -0.05300
C 	C 	0.08563 0.62107 0.70152 0.07000
H 	H 	0.07716 0.53813 0.66073 0.05500
N 	N 	0.06724 0.52838 0.76465 -0.19900
H 	H 	0.07452 0.64241 0.78159 0.05100
N 	N 	0.09660 0.65063 0.68374 -0.19400
H 	H 	0.06824 0.50637 0.73953 0.08500
H 	H 	0.06676 0.52623 0.80708 0.09200
H 	H 	0.09662 0.67243 0.70952 0.08400
H 	H 	0.10643 0.65197 0.64509 0.08900
H 	H 	0.15761 0.55945 0.57795 0.08500
H 	H 	0.14155 0.57067 0.64361 0.08800
H 	H 	0.03112 0.63248 0.45429 0.09100
H 	H 	0.01163 0.63732 0.51864 0.08500
C 	C 	0.95578 0.01864 0.00637 -0.05000
C 	C 	0.93738 0.98890 0.99850 -0.11700
C 	C 	0.90253 0.99047 0.99687 0.08700
C 	C 	0.88690 0.02194 0.99647 -0.05800
C 	C 	0.90557 0.05152 0.99618 -0.11800
C 	C 	0.94011 0.05003 0.00597 0.09600
N 	N 	0.95830 0.07861 0.01439 -0.21100
H 	H 	0.98244 0.01743 0.01032 0.01500
H 	H 	0.86025 0.02320 0.99220 0.02700
N 	N 	0.88401 0.96199 0.99517 -0.20900
H 	H 	0.98395 0.07746 0.01981 0.02200
H 	H 	0.94702 0.10211 0.01772 0.07800
H 	H 	0.89492 0.93847 0.99867 0.06500
H 	H 	0.85828 0.96328 0.99242 0.04600
C 	C 	0.95715 0.86205 0.79808 -0.05600
C 	C 	0.95113 0.85330 0.85177 -0.11600
C 	C 	0.92327 0.83317 0.86006 0.10000
C 	C 	0.89743 0.83152 0.81986 -0.06000
C 	C 	0.90082 0.84712 0.77026 -0.11600
C 	C 	0.93267 0.85659 0.75613 0.10800
N 	N 	0.94037 0.85805 0.70274 -0.20100
H 	H 	0.98034 0.87362 0.78924 0.02400
H 	H 	0.87415 0.82003 0.82846 0.04000
N 	N 	0.92233 0.81371 0.90396 -0.19900
H 	H 	0.96383 0.86580 0.69265 0.08100
H 	H 	0.92421 0.84865 0.67108 0.10600
H 	H 	0.94380 0.80854 0.92714 0.10100
H 	H 	0.90077 0.80082 0.91182 0.07800
C 	C 	0.05847 0.01156 0.99358 -0.07400
C 	C 	0.06764 0.97902 0.97603 -0.12800
C 	C 	0.08922 0.97455 0.93246 0.08200
C 	C 	0.09537 0.00148 0.89983 -0.05300
C 	C 	0.08163 0.03310 0.91218 -0.13300
C 	C 	0.06672 0.03904 0.96322 0.06000
N 	N 	0.06241 0.07076 0.98479 -0.23400
H 	H 	0.04405 0.01538 0.02968 0.04300
H 	H 	0.10967 0.99744 0.86361 0.04600
N 	N 	0.10345 0.94428 0.92123 -0.20400
H 	H 	0.04943 0.07494 0.02054 0.05000
H 	H 	0.07440 0.09111 0.96924 0.06100
H 	H 	0.10095 0.92452 0.94716 0.09400
H 	H 	0.11832 0.94068 0.88755 0.07700
C 	C 	0.07255 0.75966 0.04903 -0.10700
C 	C 	0.04349 0.74052 0.04589 0.00500
C 	C 	0.01396 0.75556 0.06236 0.12700
C 	C 	0.01268 0.79036 0.07330 -0.03400
C 	C 	0.04054 0.81031 0.06618 -0.09700
C 	C 	0.07112 0.79458 0.05787 0.19800
C 	C 	0.04227 0.70881 0.01177 0.01000
O 	O 	0.98593 0.73657 0.06483 -0.26800
H 	H 	0.98934 0.80205 0.08238 0.07000
O 	O 	0.09879 0.81353 0.05166 -0.28100
H 	H 	0.09569 0.74795 0.03868 0.07400
C 	C 	0.04198 0.70964 0.95415 0.10800
C 	C 	0.03978 0.67980 0.92152 -0.05500
C 	C 	0.03783 0.64885 0.94579 -0.08100
C 	C 	0.03834 0.64788 0.00349 0.18100
C 	C 	0.04050 0.67789 0.03631 -0.10700
O 	O 	0.04245 0.73978 0.92963 -0.27800
H 	H 	0.03904 0.68075 0.87715 0.05700
O 	O 	0.03622 0.61779 0.02780 -0.28500
H 	H 	0.04068 0.67711 0.08067 0.07700
H 	H 	0.11032 0.81522 0.08838 0.16000
H 	H 	0.06608 0.74458 0.92469 0.14500
H 	H 	0.05933 0.61032 0.03373 0.14900
H 	H 	0.97485 0.73702 0.02778 0.15100
C 	C 	0.96560 0.02976 0.14419 -0.06200
C 	C 	0.93273 0.01908 0.14525 -0.09600
C 	C 	0.92579 0.98420 0.14070 0.09100
C 	C 	0.95154 0.96114 0.14839 -0.05600
C 	C 	0.98410 0.97249 0.15703 -0.09800
C 	C 	0.99139 0.00630 0.14760 0.10300
N 	N 	0.02294 0.01617 0.14158 -0.20600
H 	H 	0.97118 0.05629 0.14317 0.03200
H 	H 	0.94596 0.93471 0.15116 0.02100
N 	N 	0.89459 0.97289 0.12893 -0.20100
H 	H 	0.02851 0.04137 0.13659 0.06200
H 	H 	0.04180 0.99850 0.13828 0.09800
H 	H 	0.87598 0.98931 0.11686 0.09200
H 	H 	0.88921 0.94725 0.12818 0.04000
C 	C 	0.92910 0.86886 0.37592 -0.04900
C 	C 	0.90071 0.85860 0.34457 -0.13300
C 	C 	0.90376 0.84499 0.29036 0.06700
C 	C 	0.93387 0.84769 0.26514 -0.05700
C 	C 	0.96169 0.86102 0.29483 -0.13300
C 	C 	0.95999 0.86854 0.35216 0.07400
N 	N 	0.98778 0.87320 0.38489 -0.21200
H 	H 	0.92713 0.87764 0.41850 0.04700
H 	H 	0.93552 0.83975 0.22212 0.04200
N 	N 	0.87778 0.82948 0.26238 -0.21000
H 	H 	0.98618 0.88151 0.42607 0.07000
H 	H 	0.01071 0.86526 0.37163 0.07800
H 	H 	0.85607 0.82442 0.28183 0.08600
H 	H 	0.87968 0.82084 0.22142 0.06800
C 	C 	0.11774 0.97594 0.35675 -0.05500
C 	C 	0.10329 0.97499 0.30336 -0.10800
C 	C 	0.09557 0.00556 0.27919 0.09100
C 	C 	0.09369 0.03498 0.31294 -0.04700
C 	C 	0.10179 0.03434 0.36940 -0.12600
C 	C 	0.11814 0.00594 0.38950 0.11500
N 	N 	0.13505 0.00771 0.43894 -0.20000
H 	H 	0.12670 0.95297 0.37391 0.04700
H 	H 	0.08449 0.05784 0.29575 -0.01400
N 	N 	0.09012 0.00683 0.22400 -0.20000
H 	H 	0.14556 0.98618 0.45483 0.08400
H 	H 	0.13992 0.03081 0.46000 0.09600
H 	H 	0.09494 0.98624 0.19745 0.10500
H 	H 	0.08337 0.02939 0.20681 0.07000
C 	C 	0.10784 0.66509 0.22454 -0.09900
C 	C 	0.11036 0.69713 0.25093 -0.00600
C 	C 	0.11144 0.70050 0.30871 0.12900
C 	C 	0.10644 0.67244 0.33930 -0.06700
C 	C 	0.10041 0.64079 0.31267 -0.05900
C 	C 	0.10296 0.63688 0.25514 0.16300
C 	C 	0.10536 0.72714 0.21883 0.00900
O 	O 	0.11433 0.73169 0.33509 -0.27900
H 	H 	0.10524 0.67573 0.38355 0.06400
O 	O 	0.10117 0.60557 0.22895 -0.28200
H 	H 	0.10799 0.66222 0.18011 0.07200
C 	C 	0.13183 0.74908 0.21203 0.12100
C 	C 	0.12560 0.78259 0.20048 -0.03700
C 	C 	0.09309 0.79439 0.19693 -0.11700
C 	C 	0.06677 0.77145 0.19764 0.19500
C 	C 	0.07311 0.73769 0.20649 -0.11300
O 	O 	0.16372 0.73807 0.21808 -0.27400
H 	H 	0.14602 0.79991 0.19841 0.05300
O 	O 	0.03481 0.78247 0.19384 -0.28500
H 	H 	0.05266 0.72052 0.20958 0.07600
H 	H 	0.07795 0.60296 0.21487 0.15200
H 	H 	0.17037 0.74327 0.25725 0.14400
H 	H 	0.02857 0.78732 0.23231 0.16100
H 	H 	0.13828 0.73490 0.34356 0.14200
