data_crystal

_cell_length_a 20.51316
_cell_length_b 33.90846
_cell_length_c 31.37327
_cell_angle_alpha 90.80266
_cell_angle_beta  87.44711
_cell_angle_gamma 88.08344

_symmetry_space_group_name_	'P 1'
_symmetry_space_group_name_H-M	'P 1'

loop_
_symmetry_equiv_pos_as_xyz
  x,y,z

loop_
_atom_site_label
_atom_site_type_symbol
_atom_site_fract_x
_atom_site_fract_y
_atom_site_fract_z
_atom_site_charge
Ni	Ni	0.48754 0.55050 0.49332 1.10600
O 	O 	0.54428 0.51467 0.52970 -0.69700
Ni	Ni	0.53173 0.46156 0.50413 1.10600
O 	O 	0.50666 0.59886 0.52995 -0.35900
O 	O 	0.46961 0.56744 0.58965 -0.37900
O 	O 	0.57229 0.55686 0.45856 -0.39800
Ni	Ni	0.52625 0.51528 0.59084 1.09000
O 	O 	0.40049 0.53739 0.40836 -0.36200
O 	O 	0.44248 0.48437 0.59352 -0.38500
O 	O 	0.59144 0.42876 0.54187 -0.35500
O 	O 	0.46883 0.49693 0.47125 -0.69800
O 	O 	0.43694 0.58672 0.45261 -0.36600
O 	O 	0.52588 0.41420 0.46305 -0.32600
O 	O 	0.54907 0.45337 0.40625 -0.39300
Ni	Ni	0.47689 0.49782 0.40907 1.08600
H 	H 	0.59088 0.52074 0.52495 0.17200
H 	H 	0.42310 0.49134 0.47990 0.18300
C 	C 	0.43903 0.44846 0.57814 0.33500
O 	O 	0.54157 0.54045 0.39162 -0.35300
C 	C 	0.49000 0.59969 0.57094 0.32600
C 	C 	0.59209 0.43273 0.58412 0.31400
C 	C 	0.57528 0.56209 0.41739 0.35300
C 	C 	0.53684 0.41833 0.42171 0.31300
C 	C 	0.40410 0.57513 0.41922 0.33900
O 	O 	0.45208 0.44118 0.53748 -0.35100
O 	O 	0.58760 0.46815 0.60331 -0.36100
Ni	Ni	0.96582 0.53863 0.48908 1.10300
O 	O 	0.89782 0.50319 0.46547 -0.70500
Ni	Ni	0.92431 0.45122 0.48944 1.10800
O 	O 	0.92357 0.58511 0.45881 -0.30100
O 	O 	0.93809 0.55562 0.39260 -0.38300
O 	O 	0.89955 0.54844 0.53844 -0.34900
Ni	Ni	0.90375 0.49887 0.40348 1.08500
O 	O 	0.07938 0.52987 0.55994 -0.36000
O 	O 	0.00029 0.48102 0.39933 -0.39000
O 	O 	0.84910 0.42099 0.46728 -0.37100
O 	O 	0.99832 0.48540 0.50786 -0.70800
O 	O 	0.03004 0.57545 0.51696 -0.34700
O 	O 	0.95430 0.40397 0.52434 -0.34500
O 	O 	0.95243 0.44114 0.58542 -0.35900
Ni	Ni	0.01490 0.48626 0.56896 1.10200
H 	H 	0.85281 0.51111 0.47559 0.18700
H 	H 	0.04000 0.47845 0.49210 0.19300
C 	C 	0.02154 0.44826 0.41648 0.33500
O 	O 	0.94739 0.52533 0.59731 -0.35800
C 	C 	0.92718 0.58763 0.41700 0.32900
C 	C 	0.83264 0.42475 0.42727 0.32300
C 	C 	0.91720 0.55395 0.57743 0.33200
C 	C 	0.95569 0.40637 0.56606 0.32300
C 	C 	0.06054 0.56666 0.55214 0.32400
O 	O 	0.98172 0.42725 0.43988 -0.34500
O 	O 	0.87253 0.44196 0.39909 -0.36000
Ni	Ni	0.56785 0.51298 0.04503 1.10300
O 	O 	0.48327 0.53184 0.01895 -0.70200
Ni	Ni	0.49118 0.50815 0.96014 1.10700
O 	O 	0.56125 0.55495 0.09269 -0.36800
O 	O 	0.54793 0.60439 0.04491 -0.34300
O 	O 	0.51275 0.47762 0.08414 -0.38100
Ni	Ni	0.46270 0.58799 0.01662 1.08400
O 	O 	0.66003 0.43055 0.03120 -0.37300
O 	O 	0.49787 0.60291 0.95677 -0.36200
O 	O 	0.41203 0.53500 0.93227 -0.32000
O 	O 	0.57221 0.48534 0.98833 -0.69800
O 	O 	0.65000 0.48885 0.07011 -0.36900
O 	O 	0.50346 0.46951 0.90895 -0.31900
O 	O 	0.50446 0.41792 0.95481 -0.38600
Ni	Ni	0.57914 0.42852 0.99563 1.08700
H 	H 	0.44615 0.51936 0.03410 0.16700
H 	H 	0.61220 0.49351 0.97246 0.17200
C 	C 	0.54878 0.58596 0.93619 0.33900
O 	O 	0.51409 0.42004 0.04561 -0.37100
C 	C 	0.56194 0.59268 0.08350 0.30500
C 	C 	0.37495 0.56430 0.95001 0.33400
C 	C 	0.51299 0.43880 0.08259 0.33400
C 	C 	0.50517 0.43112 0.91554 0.31200
C 	C 	0.66362 0.45045 0.06767 0.33400
O 	O 	0.55335 0.54723 0.93104 -0.36900
O 	O 	0.37782 0.57361 0.99091 -0.40200
Ni	Ni	0.48935 0.94289 0.50661 1.10700
O 	O 	0.42511 0.98744 0.52568 -0.70700
Ni	Ni	0.47114 0.03407 0.50325 1.10700
O 	O 	0.45229 0.90444 0.55038 -0.32000
O 	O 	0.46555 0.94844 0.60457 -0.39900
O 	O 	0.42435 0.92327 0.46307 -0.33000
Ni	Ni	0.40562 0.99549 0.58655 1.08200
O 	O 	0.53733 0.92256 0.41505 -0.36500
O 	O 	0.47040 0.03540 0.60909 -0.37700
O 	O 	0.41660 0.08019 0.53184 -0.33000
O 	O 	0.52920 0.98912 0.47779 -0.70100
O 	O 	0.55549 0.90132 0.48251 -0.35100
O 	O 	0.52158 0.07211 0.46596 -0.31700
O 	O 	0.51103 0.04218 0.40020 -0.37300
Ni	Ni	0.52278 0.98254 0.41634 1.09000
H 	H 	0.38350 0.98530 0.51118 0.18000
H 	H 	0.57535 0.99128 0.48526 0.18600
C 	C 	0.52360 0.04776 0.58905 0.35800
O 	O 	0.42399 0.97794 0.42106 -0.41300
C 	C 	0.45721 0.91191 0.59134 0.31000
C 	C 	0.36893 0.07653 0.56142 0.33900
C 	C 	0.39714 0.94521 0.43380 0.33400
C 	C 	0.51018 0.07418 0.42520 0.32700
C 	C 	0.57435 0.90334 0.44184 0.32600
O 	O 	0.53860 0.03726 0.54927 -0.35500
O 	O 	0.34622 0.04169 0.57173 -0.39900
Ni	Ni	0.97154 0.49809 0.95820 1.10900
O 	O 	0.05609 0.51352 0.98518 -0.69400
Ni	Ni	0.03929 0.49617 0.04533 1.10500
O 	O 	0.98404 0.53397 0.90642 -0.32200
O 	O 	0.99993 0.58669 0.94983 -0.39000
O 	O 	0.02180 0.45350 0.92386 -0.31600
Ni	Ni	0.07996 0.56886 0.98365 1.08600
O 	O 	0.91715 0.41443 0.95432 -0.37100
O 	O 	0.03068 0.59691 0.03446 -0.34600
O 	O 	0.11898 0.51771 0.07442 -0.34100
O 	O 	0.95880 0.47656 0.01691 -0.70700
O 	O 	0.88790 0.47761 0.93483 -0.31800
O 	O 	0.01093 0.46773 0.09955 -0.35600
O 	O 	0.01057 0.40646 0.06742 -0.35500
Ni	Ni	0.96100 0.41918 0.01180 1.08400
H 	H 	0.09347 0.49746 0.97263 0.16600
H 	H 	0.91737 0.48678 0.03100 0.18900
C 	C 	0.00519 0.58023 0.06863 0.35700
O 	O 	0.05055 0.41774 0.98153 -0.40800
C 	C 	0.98808 0.57230 0.91204 0.31200
C 	C 	0.14720 0.55042 0.06216 0.32700
C 	C 	0.05740 0.42528 0.94080 0.33000
C 	C 	0.01643 0.42910 0.10173 0.32600
C 	C 	0.87500 0.43971 0.93749 0.33000
O 	O 	0.98304 0.54434 0.06625 -0.39100
O 	O 	0.15641 0.55790 0.02114 -0.40100
Ni	Ni	0.99861 0.97277 0.50598 1.10200
O 	O 	0.05858 0.01169 0.47565 -0.69600
Ni	Ni	0.02968 0.06273 0.50418 1.11000
O 	O 	0.04126 0.92742 0.46976 -0.29900
O 	O 	0.01628 0.95787 0.40758 -0.38500
O 	O 	0.07196 0.96610 0.54698 -0.37700
Ni	Ni	0.04437 0.01627 0.41519 1.07900
O 	O 	0.88880 0.97868 0.58619 -0.40300
O 	O 	0.94742 0.02994 0.42599 -0.41100
O 	O 	0.09666 0.09716 0.47396 -0.32100
O 	O 	0.96345 0.02474 0.52976 -0.70100
O 	O 	0.94286 0.93300 0.54053 -0.30300
O 	O 	0.00492 0.10754 0.54736 -0.30800
O 	O 	0.01969 0.06587 0.60266 -0.38900
Ni	Ni	0.95483 0.02140 0.59207 1.07800
H 	H 	0.10532 0.00584 0.48030 0.17800
H 	H 	0.91970 0.03008 0.51862 0.17600
C 	C 	0.92700 0.06550 0.43808 0.33300
O 	O 	0.02244 0.98027 0.61200 -0.38100
C 	C 	0.04034 0.92700 0.42777 0.30500
C 	C 	0.10635 0.09526 0.43190 0.31800
C 	C 	0.06082 0.95737 0.58691 0.35800
C 	C 	0.00926 0.10181 0.58857 0.31400
C 	C 	0.90568 0.94170 0.57562 0.32400
O 	O 	0.96070 0.08617 0.46475 -0.33300
O 	O 	0.06661 0.07484 0.40815 -0.38900
Ni	Ni	0.50226 0.03313 0.02429 1.10800
O 	O 	0.42866 0.99805 0.00759 -0.70200
Ni	Ni	0.45732 0.94536 0.02968 1.10900
O 	O 	0.47683 0.07595 0.98242 -0.36800
O 	O 	0.47880 0.03230 0.92645 -0.37000
O 	O 	0.43698 0.05788 0.06864 -0.38200
Ni	Ni	0.40604 0.99531 0.94817 1.07900
O 	O 	0.60413 0.02966 0.10370 -0.36900
O 	O 	0.46463 0.94844 0.92668 -0.38400
O 	O 	0.38987 0.90884 0.00440 -0.31500
O 	O 	0.52708 0.98187 0.05046 -0.70100
O 	O 	0.57364 0.06751 0.04701 -0.36700
O 	O 	0.49024 0.90028 0.06669 -0.30700
O 	O 	0.47764 0.94048 0.12538 -0.38500
Ni	Ni	0.53608 0.98780 0.11172 1.08700
H 	H 	0.38835 0.00628 0.02435 0.17200
H 	H 	0.57031 0.97321 0.03773 0.18600
C 	C 	0.52157 0.93933 0.94209 0.32900
O 	O 	0.46070 0.02643 0.12990 -0.33900
C 	C 	0.48453 0.06849 0.94130 0.32300
C 	C 	0.35425 0.91936 0.97198 0.34200
C 	C 	0.44648 0.05902 0.10959 0.34200
C 	C 	0.49068 0.90519 0.10839 0.31200
C 	C 	0.59263 0.06456 0.08672 0.32700
O 	O 	0.52479 0.92855 0.98212 -0.32700
O 	O 	0.33762 0.95681 0.96679 -0.41100
Ni	Ni	0.02731 0.99460 0.95387 1.10500
O 	O 	0.95210 0.98004 0.99478 -0.70500
Ni	Ni	0.98021 0.00312 0.04983 1.10400
O 	O 	0.01283 0.94971 0.91089 -0.32200
O 	O 	0.01259 0.90466 0.96420 -0.40100
O 	O 	0.96534 0.03159 0.92045 -0.34500
Ni	Ni	0.93389 0.92476 0.00356 1.07600
O 	O 	0.07126 0.07887 0.93432 -0.38900
O 	O 	0.98253 0.90754 0.05683 -0.37200
O 	O 	0.91487 0.97925 0.09335 -0.31200
O 	O 	0.04727 0.02452 0.00674 -0.70200
O 	O 	0.10251 0.01473 0.91659 -0.33700
O 	O 	0.01352 0.03913 0.09659 -0.31100
O 	O 	0.99141 0.09348 0.05663 -0.39700
Ni	Ni	0.03339 0.08035 0.99597 1.07800
H 	H 	0.91134 0.99407 0.98703 0.18000
H 	H 	0.09270 0.01868 0.01473 0.16500
C 	C 	0.03559 0.92299 0.07111 0.35700
O 	O 	0.94118 0.07488 0.97574 -0.37700
C 	C 	0.01660 0.91265 0.92317 0.30600
C 	C 	0.86885 0.95439 0.08375 0.33500
C 	C 	0.93101 0.06224 0.93699 0.32900
C 	C 	0.01131 0.07780 0.09235 0.31700
C 	C 	0.11575 0.05268 0.91844 0.31500
O 	O 	0.04956 0.95997 0.06313 -0.37800
O 	O 	0.85933 0.94434 0.04366 -0.40000
Ni	Ni	0.84772 0.78623 0.27646 1.10500
O 	O 	0.78417 0.75671 0.24011 -0.70200
Ni	Ni	0.78838 0.70392 0.26694 1.10800
O 	O 	0.83203 0.83675 0.24277 -0.35200
O 	O 	0.85805 0.80351 0.18015 -0.36700
O 	O 	0.76699 0.79992 0.31522 -0.38800
Ni	Ni	0.81076 0.75012 0.18040 1.08600
O 	O 	0.94659 0.76139 0.35339 -0.40800
O 	O 	0.89670 0.72166 0.19320 -0.40900
O 	O 	0.71593 0.68023 0.23391 -0.33200
O 	O 	0.86237 0.73090 0.29533 -0.70700
O 	O 	0.90619 0.81555 0.31705 -0.35000
O 	O 	0.78760 0.65902 0.30937 -0.35000
O 	O 	0.77625 0.70077 0.36708 -0.35500
Ni	Ni	0.86247 0.73136 0.35753 1.09000
H 	H 	0.73917 0.76821 0.24316 0.17700
H 	H 	0.90538 0.72103 0.28340 0.19800
C 	C 	0.89779 0.68393 0.20182 0.33800
O 	O 	0.81530 0.78316 0.37685 -0.36100
C 	C 	0.83330 0.83516 0.20076 0.32900
C 	C 	0.71437 0.68518 0.19218 0.32100
C 	C 	0.76710 0.80010 0.35704 0.35500
C 	C 	0.76663 0.66620 0.34886 0.32100
C 	C 	0.95049 0.79860 0.34116 0.33900
O 	O 	0.85421 0.67007 0.22923 -0.30900
O 	O 	0.76657 0.69756 0.17024 -0.38800
Ni	Ni	0.69880 0.19858 0.76390 1.10600
O 	O 	0.77611 0.22103 0.73040 -0.70200
Ni	Ni	0.77483 0.27698 0.75176 1.10300
O 	O 	0.68988 0.15119 0.72308 -0.32400
O 	O 	0.68540 0.19166 0.66576 -0.37400
O 	O 	0.76244 0.16386 0.79802 -0.34300
Ni	Ni	0.77393 0.21995 0.66826 1.09000
O 	O 	0.63944 0.21464 0.86411 -0.35400
O 	O 	0.72803 0.27147 0.64923 -0.33000
O 	O 	0.84472 0.30051 0.71152 -0.37600
O 	O 	0.70208 0.25296 0.78878 -0.69900
O 	O 	0.62414 0.17944 0.80185 -0.35100
O 	O 	0.77024 0.32856 0.78740 -0.35900
O 	O 	0.78548 0.29349 0.84779 -0.37200
Ni	Ni	0.71524 0.25062 0.84976 1.09300
H 	H 	0.81719 0.20777 0.73885 0.18200
H 	H 	0.65980 0.26696 0.78450 0.18600
C 	C 	0.70638 0.30156 0.67353 0.34300
O 	O 	0.78784 0.20801 0.84977 -0.38900
C 	C 	0.67641 0.15687 0.68290 0.30600
C 	C 	0.86553 0.28504 0.67408 0.33600
C 	C 	0.78111 0.17144 0.83694 0.32600
C 	C 	0.77544 0.32755 0.82909 0.32200
C 	C 	0.62460 0.18164 0.84392 0.32800
O 	O 	0.70167 0.29886 0.71531 -0.37800
O 	O 	0.86054 0.24704 0.66514 -0.37500
Ni	Ni	0.22292 0.75248 0.69640 1.10600
O 	O 	0.28525 0.77780 0.73701 -0.69700
Ni	Ni	0.26731 0.74693 0.79026 1.10700
O 	O 	0.21617 0.80037 0.65696 -0.34200
O 	O 	0.19532 0.84102 0.71473 -0.37700
O 	O 	0.30201 0.73080 0.65912 -0.31900
Ni	Ni	0.27758 0.83392 0.75020 1.10300
O 	O 	0.22880 0.66552 0.66884 -0.38800
O 	O 	0.21814 0.83625 0.80437 -0.35800
O 	O 	0.31393 0.77884 0.83561 -0.33700
O 	O 	0.21681 0.71671 0.74653 -0.70400
O 	O 	0.16462 0.72116 0.65849 -0.32800
O 	O 	0.25092 0.70348 0.83380 -0.31100
O 	O 	0.30167 0.65727 0.78872 -0.39200
Ni	Ni	0.25994 0.66664 0.73002 1.07600
H 	H 	0.33104 0.77187 0.72716 0.17100
H 	H 	0.17073 0.71313 0.75601 0.18300
C 	C 	0.16978 0.81275 0.81195 0.33500
O 	O 	0.34366 0.69289 0.71125 -0.41400
C 	C 	0.19857 0.83539 0.67318 0.31600
C 	C 	0.34238 0.81276 0.82833 0.33200
C 	C 	0.34983 0.70849 0.67342 0.32600
C 	C 	0.27293 0.66697 0.82609 0.31100
C 	C 	0.17332 0.68225 0.65688 0.32400
O 	O 	0.17905 0.77418 0.80851 -0.34100
O 	O 	0.35281 0.82525 0.78899 -0.35500
Ni	Ni	0.29438 0.29674 0.75605 1.11000
O 	O 	0.20587 0.27693 0.74087 -0.70400
Ni	Ni	0.21724 0.21996 0.75475 1.10500
O 	O 	0.28607 0.34543 0.71908 -0.34500
O 	O 	0.26682 0.30844 0.65999 -0.39500
O 	O 	0.25202 0.32920 0.80648 -0.36200
Ni	Ni	0.18131 0.28194 0.68176 1.08100
O 	O 	0.35528 0.29529 0.84577 -0.34200
O 	O 	0.21143 0.23008 0.65065 -0.37000
O 	O 	0.13643 0.19679 0.72789 -0.33500
O 	O 	0.30038 0.24213 0.77743 -0.70500
O 	O 	0.38198 0.31284 0.77610 -0.34300
O 	O 	0.24019 0.16680 0.78136 -0.35500
O 	O 	0.24485 0.19515 0.84803 -0.35800
Ni	Ni	0.30132 0.24517 0.83907 1.09300
H 	H 	0.17049 0.28890 0.75978 0.16800
H 	H 	0.34045 0.22824 0.76545 0.18500
C 	C 	0.25612 0.20460 0.66311 0.36000
O 	O 	0.21602 0.27746 0.84576 -0.39100
C 	C 	0.28787 0.34103 0.67745 0.32000
C 	C 	0.09611 0.21613 0.70278 0.34600
C 	C 	0.21251 0.31492 0.83606 0.34200
C 	C 	0.24629 0.16332 0.82286 0.31900
C 	C 	0.39439 0.31280 0.81704 0.33600
O 	O 	0.27581 0.20482 0.70227 -0.39100
O 	O 	0.09770 0.25487 0.69854 -0.40200
Ni	Ni	0.15876 0.72075 0.26486 1.10600
O 	O 	0.24508 0.74013 0.24000 -0.70600
Ni	Ni	0.24126 0.79584 0.26154 1.10900
O 	O 	0.15368 0.67480 0.22203 -0.35300
O 	O 	0.17256 0.71618 0.16660 -0.36400
O 	O 	0.20756 0.68239 0.30442 -0.35900
Ni	Ni	0.26103 0.74115 0.17843 1.09300
O 	O 	0.11662 0.71657 0.36060 -0.38700
O 	O 	0.23193 0.79700 0.15957 -0.34200
O 	O 	0.31796 0.81802 0.22577 -0.31600
O 	O 	0.16220 0.77353 0.29323 -0.70800
O 	O 	0.07446 0.70528 0.29464 -0.34300
O 	O 	0.23221 0.84620 0.29859 -0.31300
O 	O 	0.23952 0.81098 0.36039 -0.37100
Ni	Ni	0.17479 0.76488 0.35332 1.07900
H 	H 	0.28225 0.72603 0.25278 0.18200
H 	H 	0.12149 0.78928 0.28918 0.18900
C 	C 	0.18510 0.81925 0.17849 0.33900
O 	O 	0.25628 0.72948 0.34332 -0.37100
C 	C 	0.16077 0.68062 0.18073 0.31200
C 	C 	0.36235 0.79627 0.20288 0.34200
C 	C 	0.25263 0.69265 0.33074 0.33100
C 	C 	0.23840 0.84514 0.34031 0.31000
C 	C 	0.06742 0.70630 0.33671 0.32100
O 	O 	0.17515 0.81897 0.22025 -0.36600
O 	O 	0.35101 0.75987 0.19016 -0.39400
Ni	Ni	0.78367 0.20383 0.25747 1.10500
O 	O 	0.69024 0.22501 0.26862 -0.70000
Ni	Ni	0.69843 0.28101 0.25010 1.10500
O 	O 	0.77101 0.15531 0.29482 -0.33400
O 	O 	0.73424 0.19312 0.35206 -0.37900
O 	O 	0.75478 0.17139 0.20606 -0.35700
Ni	Ni	0.65383 0.22267 0.32734 1.08300
O 	O 	0.86254 0.20170 0.17107 -0.36300
O 	O 	0.68287 0.27224 0.35897 -0.34600
O 	O 	0.60808 0.30455 0.26968 -0.33400
O 	O 	0.78956 0.25801 0.23412 -0.70400
O 	O 	0.87710 0.18605 0.24137 -0.36600
O 	O 	0.72189 0.33335 0.22246 -0.32400
O 	O 	0.74914 0.30298 0.15817 -0.37400
Ni	Ni	0.80579 0.25295 0.17273 1.08700
H 	H 	0.65996 0.21179 0.24984 0.16500
H 	H 	0.82466 0.27254 0.24742 0.18000
C 	C 	0.70903 0.30334 0.34143 0.34000
O 	O 	0.72381 0.22244 0.16390 -0.37400
C 	C 	0.75951 0.15947 0.33624 0.31400
C 	C 	0.57358 0.29160 0.30297 0.32600
C 	C 	0.71876 0.18578 0.17589 0.33400
C 	C 	0.74149 0.33537 0.18202 0.31800
C 	C 	0.89998 0.18774 0.20140 0.33100
O 	O 	0.73977 0.30049 0.30403 -0.38800
O 	O 	0.57229 0.25348 0.31119 -0.40200
Ni	Ni	0.27705 0.32971 0.27784 1.10800
O 	O 	0.34831 0.29567 0.30319 -0.70600
Ni	Ni	0.33451 0.24350 0.27515 1.10600
O 	O 	0.28329 0.37227 0.32370 -0.32700
O 	O 	0.26370 0.33044 0.37843 -0.39000
O 	O 	0.34399 0.36108 0.24165 -0.30600
Ni	Ni	0.34281 0.29058 0.36555 1.07900
O 	O 	0.24536 0.34091 0.18230 -0.37900
O 	O 	0.28036 0.24571 0.38049 -0.37900
O 	O 	0.39960 0.20881 0.30659 -0.34900
O 	O 	0.26810 0.27857 0.24610 -0.70500
O 	O 	0.20511 0.36022 0.24900 -0.32100
O 	O 	0.31846 0.19796 0.23405 -0.34900
O 	O 	0.34522 0.23350 0.17446 -0.35600
Ni	Ni	0.29075 0.28624 0.18591 1.07800
H 	H 	0.39196 0.30493 0.29411 0.18300
H 	H 	0.22311 0.26911 0.24996 0.18300
C 	C 	0.25924 0.21873 0.35425 0.34800
O 	O 	0.37789 0.30972 0.19777 -0.40100
C 	C 	0.25808 0.36601 0.36191 0.30800
C 	C 	0.41367 0.21437 0.34689 0.33100
C 	C 	0.38152 0.34662 0.20961 0.34300
C 	C 	0.33722 0.19931 0.19351 0.31600
C 	C 	0.19622 0.35418 0.20809 0.32500
O 	O 	0.25725 0.22539 0.31310 -0.34500
O 	O 	0.41864 0.25033 0.36320 -0.39900
Ni	Ni	0.70070 0.80024 0.75473 1.10800
O 	O 	0.77348 0.77541 0.78895 -0.70800
Ni	Ni	0.78304 0.72269 0.76091 1.10900
O 	O 	0.70118 0.85059 0.79153 -0.30400
O 	O 	0.68363 0.81487 0.85220 -0.38600
O 	O 	0.77509 0.82053 0.71551 -0.34900
Ni	Ni	0.75154 0.76737 0.84869 1.07600
O 	O 	0.60867 0.76771 0.67922 -0.40000
O 	O 	0.67401 0.73329 0.83740 -0.40400
O 	O 	0.86159 0.70475 0.79271 -0.35000
O 	O 	0.70205 0.74452 0.73349 -0.70600
O 	O 	0.63191 0.82494 0.71628 -0.31900
O 	O 	0.79794 0.67769 0.71754 -0.33100
O 	O 	0.79510 0.72043 0.66198 -0.40000
Ni	Ni	0.70140 0.74557 0.67140 1.08300
H 	H 	0.81475 0.78959 0.78550 0.18100
H 	H 	0.66258 0.73163 0.74502 0.18400
C 	C 	0.68312 0.69588 0.82754 0.33700
O 	O 	0.73137 0.80043 0.65341 -0.38500
C 	C 	0.69075 0.84920 0.83330 0.31100
C 	C 	0.85742 0.70008 0.83435 0.34500
C 	C 	0.77312 0.82163 0.67365 0.34100
C 	C 	0.81031 0.68540 0.67718 0.32400
C 	C 	0.59403 0.80476 0.69105 0.32900
O 	O 	0.72772 0.68469 0.79793 -0.33700
O 	O 	0.80961 0.71752 0.85910 -0.39700
C 	C 	0.02663 0.14302 0.12668 -0.07300
C 	C 	0.01024 0.10333 0.13089 -0.10500
C 	C 	0.97730 0.09164 0.16873 0.34100
C 	C 	0.94991 0.12028 0.19729 -0.08100
C 	C 	0.95430 0.16047 0.18772 -0.10500
C 	C 	0.99838 0.17164 0.15494 0.32300
F 	F 	0.00793 0.21042 0.14758 -0.43600
H 	H 	0.05579 0.15214 0.09913 0.08400
H 	H 	0.91909 0.11124 0.22411 0.12800
F 	F 	0.96621 0.05297 0.17573 -0.39400
C 	C 	0.07981 0.85304 0.15982 -0.08700
C 	C 	0.14770 0.84819 0.15290 -0.10100
C 	C 	0.17949 0.87036 0.12094 0.34500
C 	C 	0.14323 0.89614 0.09551 -0.07400
C 	C 	0.07498 0.89981 0.10143 -0.12000
C 	C 	0.04357 0.87839 0.13413 0.36500
F 	F 	0.97782 0.88172 0.14068 -0.43600
H 	H 	0.05476 0.83647 0.18448 0.11300
H 	H 	0.16811 0.91244 0.07056 0.09900
F 	F 	0.24538 0.86718 0.11466 -0.41200
C 	C 	0.21784 0.08874 0.90828 -0.09900
C 	C 	0.16821 0.06737 0.89030 -0.12200
C 	C 	0.15859 0.07026 0.84643 0.35400
C 	C 	0.19048 0.09897 0.82255 -0.08900
C 	C 	0.23224 0.12490 0.84245 -0.11000
C 	C 	0.25010 0.11732 0.88439 0.33300
F 	F 	0.29562 0.13928 0.90282 -0.45000
H 	H 	0.22758 0.08551 0.94174 0.06900
H 	H 	0.17861 0.10309 0.78957 0.12700
F 	F 	0.11306 0.04828 0.82803 -0.40600
C 	C 	0.06683 0.84545 0.90735 -0.09200
C 	C 	0.04052 0.88126 0.89235 -0.11500
C 	C 	0.04246 0.88797 0.84815 0.34400
C 	C 	0.07822 0.86192 0.82032 -0.08400
C 	C 	0.11212 0.82907 0.83630 -0.11300
C 	C 	0.10246 0.81947 0.87944 0.35200
F 	F 	0.13273 0.78690 0.89511 -0.40700
H 	H 	0.06285 0.83872 0.94099 0.11200
H 	H 	0.08348 0.86881 0.78674 0.11000
F 	F 	0.01137 0.92014 0.83225 -0.41000
C 	C 	0.90473 0.09150 0.86635 -0.08700
C 	C 	0.88711 0.08583 0.90966 -0.10900
C 	C 	0.83100 0.10588 0.92770 0.34100
C 	C 	0.79511 0.13261 0.90332 -0.08400
C 	C 	0.81433 0.13947 0.86061 -0.11600
C 	C 	0.86866 0.11818 0.84195 0.35300
F 	F 	0.88827 0.12455 0.80080 -0.41600
H 	H 	0.94782 0.07641 0.85197 0.13400
H 	H 	0.75281 0.14841 0.91786 0.09700
F 	F 	0.81144 0.09971 0.96891 -0.42400
C 	C 	0.79941 0.89944 0.10803 -0.09200
C 	C 	0.83610 0.93222 0.11839 -0.10300
C 	C 	0.85317 0.93779 0.16105 0.35800
C 	C 	0.84637 0.90705 0.18998 -0.06200
C 	C 	0.82086 0.87126 0.17674 -0.11500
C 	C 	0.79238 0.86884 0.13698 0.34600
F 	F 	0.76150 0.83581 0.12543 -0.46700
H 	H 	0.78077 0.89622 0.07645 0.10300
H 	H 	0.86507 0.91008 0.22157 0.12400
F 	F 	0.87961 0.97193 0.17379 -0.39000
C 	C 	0.65390 0.12673 0.08565 -0.08000
C 	C 	0.61653 0.09948 0.10839 -0.12100
C 	C 	0.60657 0.10391 0.15282 0.34100
C 	C 	0.63736 0.13363 0.17457 -0.07700
C 	C 	0.67817 0.15924 0.15223 -0.12100
C 	C 	0.68478 0.15652 0.10748 0.35600
F 	F 	0.72399 0.18130 0.08543 -0.42500
H 	H 	0.66135 0.12381 0.05132 0.12000
H 	H 	0.63094 0.13611 0.20900 0.09300
F 	F 	0.56817 0.07878 0.17500 -0.44400
C 	C 	0.34179 0.12606 0.18342 -0.08700
C 	C 	0.36572 0.16311 0.17246 -0.11200
C 	C 	0.41908 0.16521 0.14282 0.34000
C 	C 	0.44603 0.13093 0.12324 -0.08100
C 	C 	0.42205 0.09404 0.13401 -0.11000
C 	C 	0.37000 0.09161 0.16441 0.35300
F 	F 	0.34525 0.05610 0.17438 -0.41600
H 	H 	0.30101 0.12398 0.20635 0.12000
H 	H 	0.48533 0.13308 0.09925 0.10100
F 	F 	0.44568 0.20038 0.13355 -0.42700
C 	C 	0.47781 0.87627 0.18047 -0.08500
C 	C 	0.48660 0.87055 0.13609 -0.10800
C 	C 	0.47631 0.83301 0.11851 0.35200
C 	C 	0.44263 0.80551 0.14277 -0.07800
C 	C 	0.42002 0.81538 0.18460 -0.11300
C 	C 	0.44387 0.84883 0.20470 0.35600
F 	F 	0.43024 0.85604 0.24688 -0.40400
H 	H 	0.49199 0.90347 0.19542 0.10800
H 	H 	0.42925 0.77808 0.12791 0.11300
F 	F 	0.49507 0.82413 0.07735 -0.39900
C 	C 	0.56700 0.92725 0.86755 -0.07400
C 	C 	0.57653 0.92778 0.91167 -0.10600
C 	C 	0.63609 0.91271 0.92646 0.34800
C 	C 	0.67928 0.89098 0.89872 -0.08600
C 	C 	0.66379 0.88466 0.85611 -0.10500
C 	C 	0.61052 0.90580 0.83983 0.35000
F 	F 	0.59764 0.90268 0.79788 -0.39100
H 	H 	0.52392 0.94140 0.85502 0.11900
H 	H 	0.72232 0.87660 0.91108 0.08300
F 	F 	0.65109 0.91788 0.96783 -0.43700
C 	C 	0.49548 0.13637 0.91447 -0.08400
C 	C 	0.51820 0.09696 0.91449 -0.12000
C 	C 	0.57570 0.08544 0.89082 0.35000
C 	C 	0.61015 0.11328 0.86757 -0.08500
C 	C 	0.58788 0.15272 0.86802 -0.11200
C 	C 	0.53005 0.16420 0.89121 0.34900
F 	F 	0.50710 0.20222 0.89077 -0.41300
H 	H 	0.45109 0.14540 0.93255 0.11600
H 	H 	0.65482 0.10435 0.84974 0.11200
F 	F 	0.59930 0.04757 0.89159 -0.42700
C 	C 	0.36126 0.82521 0.90521 -0.07900
C 	C 	0.35033 0.84013 0.86449 -0.10700
C 	C 	0.33798 0.88083 0.85976 0.34600
C 	C 	0.33604 0.90606 0.89522 -0.08100
C 	C 	0.34773 0.89136 0.93595 -0.12300
C 	C 	0.35958 0.85057 0.94084 0.35800
F 	F 	0.36830 0.83539 0.98007 -0.39500
H 	H 	0.37000 0.79383 0.90936 0.13300
H 	H 	0.32671 0.93734 0.89083 0.08100
F 	F 	0.32567 0.89586 0.82093 -0.44600
C 	C 	0.05105 0.20183 0.63223 -0.06300
C 	C 	0.05359 0.19334 0.67582 -0.11300
C 	C 	0.02670 0.15847 0.69116 0.35300
C 	C 	0.00645 0.12994 0.66252 -0.07500
C 	C 	0.01346 0.13585 0.61831 -0.10600
C 	C 	0.03177 0.17308 0.60340 0.35900
F 	F 	0.03475 0.18064 0.56100 -0.40300
H 	H 	0.06921 0.22938 0.62024 0.09900
H 	H 	0.98837 0.10240 0.67463 0.09300
F 	F 	0.02337 0.15134 0.73366 -0.41000
C 	C 	0.24100 0.16804 0.41069 -0.07000
C 	C 	0.22134 0.18581 0.37285 -0.09800
C 	C 	0.16468 0.17289 0.35384 0.35100
C 	C 	0.12821 0.14291 0.37268 -0.08300
C 	C 	0.14747 0.12547 0.41080 -0.10300
C 	C 	0.20461 0.13796 0.42944 0.34300
F 	F 	0.22531 0.12077 0.46548 -0.43300
H 	H 	0.28479 0.17737 0.42547 0.10600
H 	H 	0.08406 0.13393 0.35810 0.11300
F 	F 	0.14353 0.19021 0.31800 -0.42700
C 	C 	0.86180 0.91529 0.64497 -0.08700
C 	C 	0.87630 0.90937 0.60105 -0.10400
C 	C 	0.86023 0.87348 0.58161 0.35000
C 	C 	0.82852 0.84453 0.60569 -0.08200
C 	C 	0.81205 0.85105 0.64936 -0.11400
C 	C 	0.82957 0.88659 0.66894 0.34600
F 	F 	0.81360 0.89400 0.71080 -0.41700
H 	H 	0.87476 0.94247 0.66054 0.10000
H 	H 	0.81606 0.81721 0.59021 0.11000
F 	F 	0.87342 0.86701 0.53926 -0.40500
C 	C 	0.80037 0.14228 0.40790 -0.08800
C 	C 	0.79087 0.13118 0.36529 -0.10600
C 	C 	0.81694 0.09456 0.34970 0.34000
C 	C 	0.85828 0.07188 0.37461 -0.08200
C 	C 	0.87324 0.08511 0.41560 -0.12300
C 	C 	0.84110 0.11933 0.43297 0.35500
F 	F 	0.85005 0.13070 0.47391 -0.41900
H 	H 	0.77798 0.16937 0.42121 0.13300
H 	H 	0.88056 0.04472 0.36138 0.10600
F 	F 	0.80311 0.08120 0.31023 -0.41400
C 	C 	0.14594 0.93604 0.63625 -0.07700
C 	C 	0.10118 0.92630 0.60572 -0.12500
C 	C 	0.09466 0.88667 0.59350 0.35100
C 	C 	0.13006 0.85682 0.61355 -0.08000
C 	C 	0.17237 0.86642 0.64578 -0.11200
C 	C 	0.18198 0.90631 0.65588 0.33700
F 	F 	0.22522 0.91616 0.68546 -0.45300
H 	H 	0.15243 0.96664 0.64502 0.10200
H 	H 	0.12247 0.82623 0.60533 0.12800
F 	F 	0.05221 0.87699 0.56338 -0.39500
C 	C 	0.04802 0.88766 0.35996 -0.10700
C 	C 	0.04509 0.88847 0.40481 -0.10200
C 	C 	0.03190 0.85333 0.42662 0.32200
C 	C 	0.00841 0.82109 0.40447 -0.06600
C 	C 	0.99858 0.82368 0.36062 -0.17500
C 	C 	0.02420 0.85547 0.33787 0.35100
F 	F 	0.02178 0.85639 0.29472 -0.44400
H 	H 	0.06355 0.91326 0.34243 0.10400
H 	H 	0.99286 0.79548 0.42198 0.09100
F 	F 	0.03769 0.85124 0.46946 -0.38300
C 	C 	0.13559 0.61076 0.16446 -0.08900
C 	C 	0.16143 0.64648 0.15077 -0.11400
C 	C 	0.19076 0.64859 0.10943 0.34500
C 	C 	0.19057 0.61605 0.08155 -0.07700
C 	C 	0.16126 0.58101 0.09448 -0.12400
C 	C 	0.13669 0.57802 0.13698 0.34800
F 	F 	0.11141 0.54391 0.15125 -0.42500
H 	H 	0.11366 0.60846 0.19635 0.12700
H 	H 	0.21183 0.61845 0.04950 0.10000
F 	F 	0.21970 0.68199 0.09625 -0.45000
C 	C 	0.09316 0.35203 0.16990 -0.09200
C 	C 	0.14046 0.37422 0.18918 -0.11800
C 	C 	0.13723 0.41552 0.18699 0.36200
C 	C 	0.09097 0.43418 0.16208 -0.09600
C 	C 	0.04811 0.41164 0.13876 -0.10900
C 	C 	0.04627 0.37071 0.14543 0.34200
F 	F 	0.00091 0.34886 0.12668 -0.43900
H 	H 	0.09395 0.32021 0.17279 0.08900
H 	H 	0.09142 0.46589 0.15866 0.14700
F 	F 	0.18143 0.43739 0.20688 -0.37900
C 	C 	0.15699 0.38222 0.92774 -0.08900
C 	C 	0.09854 0.39848 0.91294 -0.11600
C 	C 	0.07719 0.38654 0.87288 0.34300
C 	C 	0.11422 0.35874 0.84803 -0.07800
C 	C 	0.17210 0.34227 0.86314 -0.12800
C 	C 	0.19358 0.35418 0.90299 0.35200
F 	F 	0.25038 0.33895 0.91744 -0.43200
H 	H 	0.17393 0.39124 0.95850 0.10300
H 	H 	0.09772 0.34982 0.81711 0.08900
F 	F 	0.01963 0.40086 0.85867 -0.40200
C 	C 	0.95104 0.59020 0.14145 -0.07000
C 	C 	0.98587 0.60575 0.10634 -0.14100
C 	C 	0.00264 0.64582 0.10757 0.36600
C 	C 	0.97892 0.67052 0.14115 -0.11100
C 	C 	0.93759 0.65594 0.17367 -0.10000
C 	C 	0.92748 0.61499 0.17513 0.34300
F 	F 	0.89426 0.59922 0.20880 -0.40400
H 	H 	0.94148 0.55900 0.14251 0.11700
H 	H 	0.99093 0.70138 0.14104 0.10800
F 	F 	0.04182 0.66092 0.07629 -0.42900
C 	C 	0.85742 0.63261 0.86322 -0.07300
C 	C 	0.89230 0.66585 0.85126 -0.11700
C 	C 	0.96066 0.66446 0.85144 0.35500
C 	C 	0.99346 0.63113 0.86676 -0.09700
C 	C 	0.95815 0.59899 0.88180 -0.10400
C 	C 	0.89023 0.59910 0.87788 0.35000
F 	F 	0.85553 0.56789 0.89145 -0.42000
H 	H 	0.80475 0.63288 0.86144 0.11100
H 	H 	0.04597 0.63119 0.86933 0.10000
F 	F 	0.99510 0.69586 0.83815 -0.43600
C 	C 	0.82357 0.39385 0.83665 -0.07600
C 	C 	0.78374 0.36448 0.85352 -0.12000
C 	C 	0.75961 0.36797 0.89611 0.33900
C 	C 	0.78249 0.39727 0.92296 -0.10200
C 	C 	0.82961 0.42319 0.90752 -0.10000
C 	C 	0.84601 0.42336 0.86349 0.35500
F 	F 	0.88909 0.44952 0.84755 -0.38800
H 	H 	0.84078 0.39232 0.80349 0.11700
H 	H 	0.76771 0.39772 0.95657 0.10300
F 	F 	0.71681 0.34166 0.91207 -0.46600
C 	C 	0.42705 0.11016 0.38500 -0.09100
C 	C 	0.48324 0.11111 0.40865 -0.11600
C 	C 	0.51380 0.14704 0.41517 0.33900
C 	C 	0.48943 0.18147 0.39652 -0.08700
C 	C 	0.43477 0.17995 0.37116 -0.13300
C 	C 	0.40342 0.14413 0.36591 0.34500
F 	F 	0.35117 0.14200 0.34100 -0.43800
H 	H 	0.40233 0.08272 0.38071 0.10300
H 	H 	0.51430 0.20888 0.40050 0.09000
F 	F 	0.56821 0.14833 0.43818 -0.41100
C 	C 	0.63605 0.83856 0.43687 -0.07800
C 	C 	0.62912 0.87805 0.42440 -0.11700
C 	C 	0.67058 0.89225 0.39164 0.34100
C 	C 	0.71591 0.86674 0.37001 -0.07800
C 	C 	0.72107 0.82695 0.38122 -0.12000
C 	C 	0.68207 0.81307 0.41541 0.35000
F 	F 	0.68719 0.77467 0.42687 -0.42300
H 	H 	0.60443 0.82730 0.46213 0.12500
H 	H 	0.74696 0.87789 0.34436 0.10900
F 	F 	0.66621 0.93074 0.38039 -0.46100
C 	C 	0.57014 0.07062 0.65720 -0.07700
C 	C 	0.56827 0.07293 0.61255 -0.10900
C 	C 	0.60515 0.10139 0.59101 0.36200
C 	C 	0.64215 0.12761 0.61399 -0.08500
C 	C 	0.64203 0.12633 0.65880 -0.10500
C 	C 	0.60633 0.09722 0.68027 0.34300
F 	F 	0.60490 0.09538 0.72350 -0.41700
H 	H 	0.54257 0.04860 0.67419 0.11200
H 	H 	0.67003 0.14945 0.59694 0.11600
F 	F 	0.60324 0.10472 0.54801 -0.39800
C 	C 	0.52453 0.81487 0.62893 -0.08700
C 	C 	0.54031 0.82584 0.67044 -0.11900
C 	C 	0.51156 0.86046 0.68912 0.34400
C 	C 	0.47710 0.88699 0.66412 -0.09100
C 	C 	0.47136 0.87907 0.62037 -0.11400
C 	C 	0.48989 0.84126 0.60396 0.34100
F 	F 	0.47715 0.83074 0.56334 -0.41100
H 	H 	0.54265 0.78697 0.61504 0.10300
H 	H 	0.45817 0.91466 0.67815 0.10700
F 	F 	0.51890 0.86902 0.73098 -0.40100
C 	C 	0.35154 0.17224 0.62389 -0.07600
C 	C 	0.28394 0.17475 0.63270 -0.12900
C 	C 	0.24379 0.14667 0.61502 0.35600
C 	C 	0.27140 0.11557 0.58989 -0.08000
C 	C 	0.33931 0.11219 0.58239 -0.11300
C 	C 	0.37921 0.14119 0.59870 0.34500
F 	F 	0.44502 0.13827 0.59183 -0.41600
H 	H 	0.38279 0.19388 0.63735 0.10500
H 	H 	0.24018 0.09355 0.57713 0.11200
F 	F 	0.17848 0.14835 0.62405 -0.43400
C 	C 	0.35016 0.92778 0.36439 -0.07600
C 	C 	0.34451 0.92866 0.40916 -0.12500
C 	C 	0.29383 0.90854 0.43004 0.34900
C 	C 	0.25371 0.88453 0.40660 -0.09500
C 	C 	0.26468 0.87978 0.36225 -0.10500
C 	C 	0.31062 0.90345 0.34095 0.34200
F 	F 	0.32007 0.90095 0.29789 -0.39600
H 	H 	0.38801 0.94397 0.34785 0.10400
H 	H 	0.21656 0.86784 0.42322 0.10700
F 	F 	0.28513 0.91098 0.47316 -0.43500
C 	C 	0.32651 0.62985 0.93192 -0.08600
C 	C 	0.33419 0.58923 0.92287 -0.12300
C 	C 	0.30955 0.57382 0.88525 0.34200
C 	C 	0.28375 0.59930 0.85514 -0.09200
C 	C 	0.28268 0.64033 0.86220 -0.11400
C 	C 	0.30120 0.65535 0.90174 0.34200
F 	F 	0.29892 0.69483 0.90983 -0.41000
H 	H 	0.34384 0.64201 0.96130 0.09800
H 	H 	0.26734 0.58728 0.82544 0.09300
F 	F 	0.31196 0.53431 0.87741 -0.41400
C 	C 	0.43285 0.43440 0.14462 -0.07300
C 	C 	0.48660 0.41799 0.12041 -0.12200
C 	C 	0.51102 0.38008 0.13001 0.35100
C 	C 	0.47959 0.35798 0.16172 -0.07300
C 	C 	0.42275 0.37320 0.18368 -0.09700
C 	C 	0.40082 0.41214 0.17592 0.34400
F 	F 	0.34625 0.42761 0.19680 -0.39000
H 	H 	0.41385 0.46373 0.13780 0.10700
H 	H 	0.49807 0.32845 0.16816 0.12100
F 	F 	0.56420 0.36425 0.10787 -0.43600
C 	C 	0.59846 0.60867 0.15632 -0.09200
C 	C 	0.58898 0.62062 0.11425 -0.11000
C 	C 	0.61099 0.65763 0.10108 0.33800
C 	C 	0.64782 0.68014 0.12816 -0.08300
C 	C 	0.66338 0.66600 0.16842 -0.11800
C 	C 	0.63597 0.63093 0.18315 0.35400
F 	F 	0.64834 0.61732 0.22258 -0.41100
H 	H 	0.57898 0.58124 0.16771 0.11800
H 	H 	0.66647 0.70793 0.11718 0.09700
F 	F 	0.59834 0.67139 0.06178 -0.40100
C 	C 	0.66422 0.42927 0.14282 -0.07100
C 	C 	0.69688 0.43144 0.10278 -0.11700
C 	C 	0.75459 0.40869 0.09434 0.35300
C 	C 	0.77380 0.37998 0.12318 -0.09200
C 	C 	0.73506 0.37350 0.16028 -0.10200
C 	C 	0.68254 0.40008 0.17138 0.35200
F 	F 	0.64604 0.39563 0.20806 -0.40700
H 	H 	0.62116 0.44790 0.15030 0.10600
H 	H 	0.81628 0.36097 0.11530 0.09600
F 	F 	0.78984 0.41280 0.05709 -0.47000
C 	C 	0.64621 0.67289 0.89971 -0.07600
C 	C 	0.65263 0.66599 0.85544 -0.12400
C 	C 	0.63044 0.63056 0.83825 0.34900
C 	C 	0.59969 0.60322 0.86502 -0.08100
C 	C 	0.59101 0.61100 0.90911 -0.11200
C 	C 	0.61568 0.64563 0.92637 0.33900
F 	F 	0.60923 0.65315 0.96897 -0.40600
H 	H 	0.66480 0.69950 0.91353 0.09500
H 	H 	0.58062 0.57674 0.85125 0.11800
F 	F 	0.63654 0.62320 0.79560 -0.42000
C 	C 	0.51556 0.36390 0.88286 -0.08500
C 	C 	0.49212 0.40326 0.88061 -0.11000
C 	C 	0.44612 0.41322 0.85028 0.35000
C 	C 	0.41869 0.38350 0.82620 -0.07400
C 	C 	0.43619 0.34370 0.83266 -0.09900
C 	C 	0.48686 0.33413 0.85959 0.34200
F 	F 	0.50621 0.29588 0.86472 -0.42300
H 	H 	0.55294 0.35606 0.90489 0.10000
H 	H 	0.38050 0.39119 0.80471 0.12900
F 	F 	0.42439 0.45119 0.84635 -0.40300
C 	C 	0.17893 0.38785 0.42092 -0.08900
C 	C 	0.20705 0.39412 0.38005 -0.10900
C 	C 	0.17957 0.42373 0.35446 0.33900
C 	C 	0.12023 0.44256 0.36725 -0.07400
C 	C 	0.08852 0.43294 0.40604 -0.12900
C 	C 	0.11997 0.40712 0.43390 0.34700
F 	F 	0.09304 0.40032 0.47332 -0.44300
H 	H 	0.20147 0.36694 0.44203 0.11100
H 	H 	0.09786 0.46367 0.34628 0.11900
F 	F 	0.20919 0.43344 0.31668 -0.39100
C 	C 	0.91313 0.59598 0.64326 -0.09500
C 	C 	0.89193 0.58912 0.60195 -0.10500
C 	C 	0.84890 0.61690 0.58381 0.34400
C 	C 	0.82516 0.64973 0.60773 -0.07700
C 	C 	0.84429 0.65540 0.64961 -0.12400
C 	C 	0.89049 0.62925 0.66661 0.35700
F 	F 	0.91285 0.63589 0.70609 -0.42300
H 	H 	0.94690 0.57536 0.65746 0.13700
H 	H 	0.79006 0.67003 0.59421 0.09700
F 	F 	0.82904 0.61179 0.54347 -0.40600
C 	C 	0.09709 0.63566 0.56291 -0.08000
C 	C 	0.08175 0.59881 0.57999 -0.11300
C 	C 	0.08629 0.59282 0.62400 0.33900
C 	C 	0.10867 0.62263 0.65014 -0.08400
C 	C 	0.12952 0.65808 0.63255 -0.11700
C 	C 	0.12141 0.66511 0.58902 0.35500
F 	F 	0.14086 0.69941 0.57151 -0.40500
H 	H 	0.09261 0.64096 0.52917 0.12700
H 	H 	0.11394 0.61717 0.68379 0.08600
F 	F 	0.07062 0.55772 0.64131 -0.44500
C 	C 	0.90645 0.34067 0.57471 -0.08700
C 	C 	0.94399 0.37077 0.59118 -0.11000
C 	C 	0.96544 0.36808 0.63298 0.32900
C 	C 	0.94414 0.33774 0.65925 -0.08100
C 	C 	0.90153 0.30983 0.64395 -0.12900
C 	C 	0.88544 0.31028 0.60094 0.34800
F 	F 	0.84559 0.28288 0.58539 -0.43000
H 	H 	0.89075 0.34191 0.54222 0.11800
H 	H 	0.95867 0.33679 0.69202 0.09800
F 	F 	0.00564 0.39534 0.64842 -0.43400
C 	C 	0.00380 0.68513 0.40164 -0.09800
C 	C 	0.01395 0.68385 0.35707 -0.12300
C 	C 	0.97739 0.65784 0.33283 0.30700
C 	C 	0.93912 0.62997 0.35339 -0.10600
C 	C 	0.93956 0.62640 0.39786 -0.09800
C 	C 	0.96663 0.65660 0.42207 0.32000
F 	F 	0.95999 0.65711 0.46532 -0.41000
H 	H 	0.02720 0.70708 0.42057 0.10600
H 	H 	0.91375 0.60888 0.33449 0.12200
F 	F 	0.98182 0.65789 0.28954 -0.43400
C 	C 	0.72414 0.37516 0.35099 -0.08700
C 	C 	0.72174 0.33748 0.36882 -0.11900
C 	C 	0.74192 0.33192 0.41061 0.35500
C 	C 	0.77262 0.36214 0.43169 -0.08200
C 	C 	0.78385 0.39800 0.41110 -0.11800
C 	C 	0.75514 0.40540 0.37203 0.34500
F 	F 	0.75963 0.44128 0.35368 -0.44200
H 	H 	0.70523 0.38036 0.31977 0.12000
H 	H 	0.79157 0.35669 0.46282 0.12000
F 	F 	0.73638 0.29635 0.42953 -0.40700
C 	C 	0.39279 0.64112 0.38518 -0.07500
C 	C 	0.36550 0.60496 0.39602 -0.10900
C 	C 	0.30191 0.59711 0.38389 0.34600
C 	C 	0.26603 0.62529 0.36150 -0.08200
C 	C 	0.29299 0.66168 0.35110 -0.11500
C 	C 	0.35694 0.66929 0.36273 0.34700
F 	F 	0.38466 0.70375 0.35187 -0.42100
H 	H 	0.44208 0.64726 0.39374 0.12400
H 	H 	0.21662 0.61918 0.35321 0.11600
F 	F 	0.27412 0.56269 0.39481 -0.42300
C 	C 	0.59483 0.36155 0.60414 -0.08600
C 	C 	0.61981 0.39938 0.60838 -0.10600
C 	C 	0.67179 0.40516 0.63549 0.34300
C 	C 	0.69831 0.37339 0.65787 -0.08200
C 	C 	0.67400 0.33551 0.65309 -0.11100
C 	C 	0.62181 0.32972 0.62629 0.35700
F 	F 	0.59717 0.29331 0.62176 -0.41300
H 	H 	0.55446 0.35679 0.58375 0.11700
H 	H 	0.73902 0.37805 0.67801 0.10600
F 	F 	0.69809 0.44121 0.63904 -0.42400
C 	C 	0.42341 0.40698 0.64163 -0.08600
C 	C 	0.40110 0.42017 0.60264 -0.12400
C 	C 	0.34225 0.40656 0.58763 0.35200
C 	C 	0.30564 0.38027 0.61191 -0.08700
C 	C 	0.32744 0.36758 0.65133 -0.11700
C 	C 	0.38710 0.38062 0.66582 0.34700
F 	F 	0.41041 0.36718 0.70295 -0.43100
H 	H 	0.46923 0.41699 0.65305 0.09500
H 	H 	0.25987 0.37027 0.60044 0.09800
F 	F 	0.31985 0.41951 0.55004 -0.43300
C 	C 	0.68193 0.59475 0.42122 -0.07800
C 	C 	0.62483 0.58823 0.39926 -0.12600
C 	C 	0.61374 0.60865 0.36146 0.35900
C 	C 	0.65983 0.63465 0.34551 -0.08000
C 	C 	0.71678 0.64100 0.36744 -0.10700
C 	C 	0.72733 0.62136 0.40561 0.34000
F 	F 	0.78193 0.62766 0.42727 -0.42600
H 	H 	0.69110 0.57919 0.45040 0.10200
H 	H 	0.65122 0.65004 0.31614 0.12200
F 	F 	0.55765 0.60408 0.34080 -0.41900
C 	C 	0.42956 0.66424 0.57372 -0.08200
C 	C 	0.47401 0.63787 0.59202 -0.12100
C 	C 	0.49124 0.64423 0.63427 0.33800
C 	C 	0.45660 0.67254 0.65984 -0.09300
C 	C 	0.40324 0.69365 0.64364 -0.11900
C 	C 	0.39424 0.69221 0.59938 0.34700
F 	F 	0.34819 0.71576 0.58179 -0.40100
H 	H 	0.41832 0.66086 0.54047 0.11300
H 	H 	0.46749 0.67558 0.69318 0.10400
F 	F 	0.53795 0.62088 0.65147 -0.44700
C 	C 	0.52023 0.39007 0.34930 -0.09400
C 	C 	0.53308 0.38406 0.39239 -0.12800
C 	C 	0.54354 0.34533 0.40684 0.33700
C 	C 	0.54645 0.31364 0.37775 -0.09500
C 	C 	0.54298 0.32052 0.33386 -0.14100
C 	C 	0.52471 0.35843 0.32021 0.33700
F 	F 	0.51429 0.36491 0.27841 -0.42100
H 	H 	0.50831 0.41942 0.33813 0.09400
H 	H 	0.55691 0.28413 0.38899 0.09900
F 	F 	0.55442 0.33855 0.44851 -0.41400
