data_crystal

_cell_length_a 38.86473
_cell_length_b 36.69125
_cell_length_c 31.88457
_cell_angle_alpha 104.38898
_cell_angle_beta  116.12011
_cell_angle_gamma 110.63054

_symmetry_space_group_name_	'P 1'
_symmetry_space_group_name_H-M	'P 1'

loop_
_symmetry_equiv_pos_as_xyz
  x,y,z

loop_
_atom_site_label
_atom_site_type_symbol
_atom_site_fract_x
_atom_site_fract_y
_atom_site_fract_z
_atom_site_charge
C 	C 	0.27949 0.12548 0.91742 0.06400
C 	C 	0.28687 0.16376 0.91190 -0.07800
C 	C 	0.31938 0.18333 0.90302 0.06000
C 	C 	0.34305 0.16339 0.89741 -0.07700
C 	C 	0.33795 0.12697 0.90654 0.05600
C 	C 	0.30519 0.10729 0.91498 -0.08300
H 	H 	0.26863 0.17917 0.91649 0.08200
H 	H 	0.36846 0.17869 0.89099 0.06600
H 	H 	0.30110 0.07906 0.92195 0.05900
C 	C 	0.27614 0.12594 0.41123 0.05300
C 	C 	0.28931 0.16470 0.40645 -0.06800
C 	C 	0.32117 0.17789 0.39473 0.02700
C 	C 	0.33809 0.15089 0.38589 -0.06900
C 	C 	0.32991 0.11614 0.39829 0.04600
C 	C 	0.29694 0.10207 0.40787 -0.07700
H 	H 	0.27605 0.18519 0.41365 0.06600
H 	H 	0.36170 0.15999 0.37539 0.05300
H 	H 	0.28955 0.07431 0.41599 0.05700
C 	C 	0.24050 0.38972 0.99240 0.03500
C 	C 	0.21565 0.40919 0.99461 -0.04600
C 	C 	0.18094 0.38942 0.00045 -0.00600
C 	C 	0.17326 0.35160 0.00709 -0.06500
C 	C 	0.19459 0.32951 0.99920 0.02400
C 	C 	0.22932 0.34937 0.99357 -0.06100
H 	H 	0.22207 0.43849 0.98959 0.05300
H 	H 	0.14815 0.33743 0.01433 0.04500
H 	H 	0.24644 0.33278 0.98821 0.06000
C 	C 	0.24868 0.39413 0.50642 0.04900
C 	C 	0.22582 0.41621 0.50729 -0.07100
C 	C 	0.18504 0.39534 0.50197 0.02700
C 	C 	0.16979 0.35435 0.50147 -0.07200
C 	C 	0.19354 0.33294 0.50274 0.05400
C 	C 	0.23300 0.35286 0.50523 -0.07500
H 	H 	0.23753 0.44776 0.50728 0.05700
H 	H 	0.13809 0.33791 0.49688 0.05900
H 	H 	0.25022 0.33540 0.50373 0.06500
Zn	Zn	0.11351 0.59032 0.01433 1.18400
Zn	Zn	0.03941 0.55749 0.90130 1.19800
O 	O 	0.03603 0.48132 0.82219 -0.45400
O 	O 	0.02059 0.53621 0.82498 -0.38900
O 	O 	0.02580 0.42527 0.89088 -0.48300
C 	C 	0.15331 0.56134 0.96841 0.31200
O 	O 	0.99473 0.49806 0.88141 -0.87300
C 	C 	0.11875 0.65236 0.97171 0.33900
O 	O 	0.16294 0.58819 0.01330 -0.45900
O 	O 	0.11143 0.52836 0.93100 -0.34200
O 	O 	0.05236 0.56526 0.97370 -0.76700
O 	O 	0.06364 0.48528 0.97119 -0.45100
O 	O 	0.08868 0.61720 0.92376 -0.39500
O 	O 	0.12944 0.64846 0.01502 -0.45700
Zn	Zn	0.90788 0.43205 0.90178 1.17600
Zn	Zn	0.98362 0.45146 0.00002 1.18300
Zn	Zn	0.00831 0.50566 0.95007 1.22000
C 	C 	0.90096 0.36073 0.93384 0.31900
C 	C 	0.88428 0.46221 0.96827 0.32300
O 	O 	0.95419 0.52987 0.93139 -0.45800
Zn	Zn	0.99254 0.53530 0.03807 1.20000
O 	O 	0.94353 0.38827 0.97589 -0.44400
O 	O 	0.88080 0.37246 0.89886 -0.45400
O 	O 	0.87435 0.45262 0.92040 -0.48100
O 	O 	0.92483 0.47363 0.00666 -0.48100
C 	C 	0.01438 0.50459 0.11500 0.32400
O 	O 	0.96494 0.44593 0.92650 -0.79200
C 	C 	0.95252 0.55937 0.96292 0.32900
O 	O 	0.00387 0.46807 0.07785 -0.42900
O 	O 	0.01780 0.53914 0.10772 -0.46100
O 	O 	0.96787 0.56654 0.01172 -0.50100
O 	O 	0.02130 0.51216 0.01789 -0.89800
Zn	Zn	0.00839 0.45699 0.85592 1.18900
C 	C 	0.02964 0.50848 0.80387 0.30000
C 	C 	0.05590 0.44678 0.94267 0.33300
H 	H 	0.05362 0.52585 0.04647 0.17000
H 	H 	0.96320 0.48925 0.85591 0.15200
Zn	Zn	0.11008 0.59168 0.51355 1.18800
Zn	Zn	0.03351 0.55965 0.40177 1.20100
O 	O 	0.02775 0.48475 0.31737 -0.44600
O 	O 	0.01311 0.54040 0.32482 -0.38300
O 	O 	0.02113 0.42582 0.38352 -0.48300
C 	C 	0.14795 0.56910 0.46173 0.30400
O 	O 	0.99053 0.49899 0.38123 -0.87300
C 	C 	0.11058 0.65576 0.47439 0.30400
O 	O 	0.15901 0.59268 0.50898 -0.45200
O 	O 	0.10529 0.53877 0.42338 -0.33800
O 	O 	0.04892 0.56505 0.47423 -0.77300
O 	O 	0.06416 0.48622 0.46512 -0.44600
O 	O 	0.08094 0.62132 0.42567 -0.39400
O 	O 	0.12322 0.65008 0.51675 -0.45000
Zn	Zn	0.90935 0.43015 0.40255 1.17600
Zn	Zn	0.98506 0.44907 0.50031 1.18700
Zn	Zn	0.00764 0.50452 0.45027 1.21900
C 	C 	0.90399 0.35699 0.42840 0.33400
C 	C 	0.88769 0.45786 0.47290 0.31400
O 	O 	0.95124 0.52498 0.43499 -0.46900
Zn	Zn	0.99574 0.53231 0.54168 1.20000
O 	O 	0.94103 0.38713 0.47674 -0.44500
O 	O 	0.88319 0.36862 0.39383 -0.46300
O 	O 	0.87593 0.44810 0.42429 -0.48000
O 	O 	0.92877 0.46934 0.50994 -0.47400
C 	C 	0.02104 0.50100 0.61760 0.32600
O 	O 	0.96623 0.44432 0.42685 -0.79800
C 	C 	0.95034 0.55431 0.46764 0.31700
O 	O 	0.01033 0.46516 0.57930 -0.42400
O 	O 	0.02241 0.53533 0.61090 -0.46100
O 	O 	0.96972 0.56343 0.51752 -0.48900
O 	O 	0.02362 0.50963 0.51861 -0.89300
Zn	Zn	0.00122 0.45751 0.35031 1.19000
C 	C 	0.02040 0.51236 0.30063 0.29700
C 	C 	0.05647 0.44906 0.43329 0.33300
H 	H 	0.05612 0.52273 0.54597 0.17400
H 	H 	0.95869 0.49037 0.35811 0.14500
C 	C 	0.02982 0.50204 0.66792 -0.10900
C 	C 	0.00486 0.46344 0.66754 0.03200
C 	C 	0.00583 0.46592 0.71246 -0.04700
C 	C 	0.03194 0.50700 0.75857 0.02100
C 	C 	0.06048 0.54578 0.76097 -0.13000
C 	C 	0.05835 0.54290 0.71494 0.09400
H 	H 	0.98506 0.43595 0.71088 0.03500
H 	H 	0.07791 0.57261 0.71515 0.06100
H 	H 	0.98291 0.43171 0.63155 0.03700
C 	C 	0.09108 0.59058 0.81098 0.79000
F 	F 	0.11249 0.58652 0.85587 -0.47200
F 	F 	0.12439 0.62023 0.81004 -0.45700
F 	F 	0.06567 0.60806 0.81466 -0.45800
C 	C 	0.02043 0.50609 0.16452 -0.10500
C 	C 	0.99367 0.46786 0.16327 0.02500
C 	C 	0.99362 0.47058 0.20765 -0.05500
C 	C 	0.02046 0.51153 0.25417 0.02700
C 	C 	0.04954 0.55018 0.25686 -0.13200
C 	C 	0.04874 0.54698 0.21144 0.09200
H 	H 	0.97212 0.44076 0.20568 0.03300
H 	H 	0.06932 0.57644 0.21209 0.06000
H 	H 	0.97155 0.43618 0.12719 0.03400
C 	C 	0.07870 0.59528 0.30612 0.79000
F 	F 	0.11082 0.62608 0.30473 -0.46300
F 	F 	0.05155 0.61055 0.30891 -0.46600
F 	F 	0.10147 0.59250 0.35167 -0.47400
C 	C 	0.13294 0.20110 0.48152 -0.05100
C 	C 	0.11706 0.20891 0.43778 0.00200
C 	C 	0.13781 0.25181 0.44479 -0.02500
C 	C 	0.17431 0.28756 0.49562 -0.01800
C 	C 	0.19062 0.27995 0.53958 0.04300
C 	C 	0.17014 0.23684 0.53236 -0.02500
H 	H 	0.12505 0.25744 0.41078 0.05900
H 	H 	0.18301 0.23126 0.56637 0.05600
H 	H 	0.08826 0.18192 0.39848 0.09400
I 	I 	0.24524 0.33306 0.61755 -0.14100
C 	C 	0.35190 0.44339 0.48167 -0.07700
C 	C 	0.36336 0.45519 0.53349 0.00500
C 	C 	0.32959 0.43880 0.54138 -0.04200
C 	C 	0.28406 0.41057 0.49766 -0.01400
C 	C 	0.27235 0.39908 0.44568 0.03400
C 	C 	0.30616 0.41567 0.43794 -0.01700
H 	H 	0.33882 0.44802 0.58148 0.04500
H 	H 	0.29682 0.40633 0.39779 0.05100
H 	H 	0.39841 0.47686 0.56765 0.04200
I 	I 	0.20387 0.35615 0.37797 -0.10900
C 	C 	0.15430 0.41181 0.48633 0.03900
C 	C 	0.13768 0.42130 0.51600 -0.07700
C 	C 	0.10605 0.43386 0.49872 0.03900
C 	C 	0.09067 0.43695 0.45157 -0.12900
C 	C 	0.10833 0.42843 0.42241 0.10400
C 	C 	0.13955 0.41549 0.43969 -0.09300
H 	H 	0.09298 0.44057 0.52158 0.01300
H 	H 	0.15220 0.40798 0.41657 0.07300
H 	H 	0.14890 0.41850 0.55210 0.05400
I 	I 	0.09074 0.43669 0.35366 -0.13500
C 	C 	0.17634 0.28326 0.98975 0.05000
C 	C 	0.13017 0.25133 0.95071 -0.06600
C 	C 	0.11187 0.20852 0.94443 0.04700
C 	C 	0.13957 0.19675 0.97645 -0.09100
C 	C 	0.18664 0.22791 0.01328 0.09800
C 	C 	0.20459 0.27127 0.02048 -0.09900
H 	H 	0.07590 0.18464 0.91524 0.04500
H 	H 	0.24046 0.29552 0.04979 0.05900
H 	H 	0.10830 0.25997 0.92582 0.06100
I 	I 	0.23209 0.20968 0.05432 -0.12800
C 	C 	0.34705 0.44709 0.97475 -0.06900
C 	C 	0.35676 0.45642 0.02551 -0.00400
C 	C 	0.32181 0.43808 0.03105 -0.05600
C 	C 	0.27675 0.41040 0.98605 0.00100
C 	C 	0.26668 0.40204 0.93520 0.03100
C 	C 	0.30172 0.42062 0.92979 -0.01600
H 	H 	0.32979 0.44498 0.07033 0.04200
H 	H 	0.29368 0.41358 0.89047 0.05300
H 	H 	0.39141 0.47733 0.06065 0.04100
I 	I 	0.19899 0.36044 0.86574 -0.10000
C 	C 	0.14880 0.40447 0.99234 0.06400
C 	C 	0.16459 0.44994 0.01519 -0.09400
C 	C 	0.13395 0.46392 0.00187 0.03200
C 	C 	0.08720 0.43257 0.96682 -0.12600
C 	C 	0.07138 0.38711 0.94921 0.10400
C 	C 	0.10199 0.37315 0.95991 -0.09900
H 	H 	0.14661 0.49909 0.01718 0.01900
H 	H 	0.08932 0.33795 0.94267 0.06900
H 	H 	0.20055 0.47446 0.04207 0.05100
I 	I 	0.00213 0.33934 0.91086 -0.13300
C 	C 	0.42246 0.07256 0.44681 -0.09300
C 	C 	0.38196 0.04692 0.39532 0.00700
C 	C 	0.35236 0.06189 0.37892 -0.05100
C 	C 	0.36285 0.10236 0.41398 -0.01300
C 	C 	0.40401 0.12856 0.46526 0.03100
C 	C 	0.43394 0.11402 0.48084 -0.01400
H 	H 	0.32077 0.04154 0.33948 0.03900
H 	H 	0.46548 0.13424 0.52034 0.05100
H 	H 	0.37268 0.01479 0.36869 0.01200
I 	I 	0.42035 0.18853 0.52177 -0.11600
C 	C 	0.34202 0.22286 0.39995 0.03900
C 	C 	0.31522 0.23995 0.37932 -0.07600
C 	C 	0.33548 0.28354 0.38795 0.03700
C 	C 	0.38258 0.30991 0.41530 -0.12100
C 	C 	0.40910 0.29150 0.43211 0.10200
C 	C 	0.38911 0.24912 0.42678 -0.09200
H 	H 	0.31460 0.29700 0.37401 0.03300
H 	H 	0.41022 0.23643 0.44296 0.07100
H 	H 	0.27879 0.21973 0.35723 0.05900
I 	I 	0.47808 0.32426 0.45961 -0.14200
C 	C 	0.18135 0.08196 0.44914 -0.05400
C 	C 	0.22702 0.11494 0.48961 0.00200
C 	C 	0.25763 0.12980 0.47690 -0.03600
C 	C 	0.24295 0.11207 0.42366 -0.01400
C 	C 	0.19726 0.07894 0.38297 0.05300
C 	C 	0.16695 0.06343 0.39590 -0.00400
H 	H 	0.29285 0.15498 0.50847 0.04700
H 	H 	0.13188 0.03787 0.36431 0.08700
H 	H 	0.23883 0.12923 0.53089 0.04300
I 	I 	0.17264 0.05297 0.30147 -0.09200
C 	C 	0.42811 0.08032 0.94161 -0.09700
C 	C 	0.38525 0.05468 0.89281 0.01000
C 	C 	0.35701 0.07145 0.87953 -0.04900
C 	C 	0.37117 0.11370 0.91530 -0.01400
C 	C 	0.41542 0.14053 0.96280 0.03600
C 	C 	0.44397 0.12413 0.97478 0.00000
H 	H 	0.32323 0.05071 0.84279 0.04300
H 	H 	0.47751 0.14441 0.01193 0.03700
H 	H 	0.37279 0.02091 0.86663 0.01600
I 	I 	0.43844 0.20377 0.02045 -0.13200
C 	C 	0.37593 0.31549 0.92516 -0.07600
C 	C 	0.38502 0.30809 0.96893 0.02400
C 	C 	0.36451 0.26492 0.96120 -0.04400
C 	C 	0.33469 0.22857 0.90965 -0.00900
C 	C 	0.32371 0.23593 0.86540 0.03800
C 	C 	0.34441 0.27934 0.87332 -0.01300
H 	H 	0.37290 0.25957 0.99543 0.05500
H 	H 	0.33678 0.28482 0.83927 0.04900
H 	H 	0.40853 0.33577 0.00905 0.03100
I 	I 	0.27588 0.18222 0.78645 -0.11600
C 	C 	0.18696 0.07320 0.95609 -0.06100
C 	C 	0.23249 0.10648 0.99655 0.01500
C 	C 	0.26256 0.12326 0.98368 -0.02500
C 	C 	0.24760 0.10666 0.93033 -0.01600
C 	C 	0.20256 0.07165 0.88982 0.05600
C 	C 	0.17278 0.05438 0.90295 -0.00100
H 	H 	0.29741 0.14958 0.01516 0.03800
H 	H 	0.13810 0.02765 0.87152 0.07700
H 	H 	0.24442 0.12006 0.03788 0.03700
I 	I 	0.17802 0.04564 0.80834 -0.07800
C 	C 	0.27949 0.62548 0.91742 0.06400
C 	C 	0.28687 0.66375 0.91190 -0.07900
C 	C 	0.31938 0.68333 0.90302 0.06100
C 	C 	0.34305 0.66339 0.89741 -0.07700
C 	C 	0.33795 0.62697 0.90654 0.05700
C 	C 	0.30519 0.60729 0.91498 -0.08300
H 	H 	0.26863 0.67917 0.91649 0.08200
H 	H 	0.36846 0.67869 0.89099 0.06700
H 	H 	0.30110 0.57906 0.92195 0.06300
C 	C 	0.27614 0.62594 0.41123 0.05300
C 	C 	0.28931 0.66470 0.40645 -0.06800
C 	C 	0.32117 0.67789 0.39473 0.02700
C 	C 	0.33809 0.65089 0.38589 -0.06900
C 	C 	0.32991 0.61613 0.39829 0.04700
C 	C 	0.29694 0.60206 0.40787 -0.07600
H 	H 	0.27605 0.68519 0.41365 0.06600
H 	H 	0.36170 0.65999 0.37539 0.05400
H 	H 	0.28955 0.57432 0.41599 0.06100
C 	C 	0.24050 0.88972 0.99240 0.03600
C 	C 	0.21565 0.90919 0.99461 -0.04600
C 	C 	0.18094 0.88942 0.00045 -0.00400
C 	C 	0.17326 0.85160 0.00709 -0.06500
C 	C 	0.19459 0.82951 0.99920 0.02500
C 	C 	0.22932 0.84937 0.99357 -0.06100
H 	H 	0.22207 0.93849 0.98959 0.05600
H 	H 	0.14815 0.83743 0.01433 0.04600
H 	H 	0.24644 0.83278 0.98821 0.06100
C 	C 	0.24868 0.89413 0.50642 0.05000
C 	C 	0.22582 0.91621 0.50729 -0.07000
C 	C 	0.18504 0.89534 0.50197 0.02800
C 	C 	0.16979 0.85435 0.50147 -0.07200
C 	C 	0.19353 0.83294 0.50274 0.05500
C 	C 	0.23300 0.85287 0.50523 -0.07500
H 	H 	0.23753 0.94776 0.50728 0.06100
H 	H 	0.13809 0.83791 0.49688 0.05900
H 	H 	0.25022 0.83540 0.50373 0.06500
Zn	Zn	0.11351 0.09032 0.01433 1.18300
Zn	Zn	0.03941 0.05749 0.90130 1.19400
O 	O 	0.03603 0.98132 0.82219 -0.43000
O 	O 	0.02059 0.03621 0.82498 -0.39200
O 	O 	0.02580 0.92527 0.89088 -0.48000
C 	C 	0.15331 0.06134 0.96841 0.31100
O 	O 	0.99473 0.99806 0.88141 -0.85900
C 	C 	0.11875 0.15236 0.97171 0.33900
O 	O 	0.16294 0.08819 0.01330 -0.46200
O 	O 	0.11143 0.02836 0.93100 -0.35300
O 	O 	0.05236 0.06526 0.97370 -0.77300
O 	O 	0.06364 0.98528 0.97119 -0.43900
O 	O 	0.08868 0.11720 0.92376 -0.39600
O 	O 	0.12944 0.14846 0.01502 -0.45800
Zn	Zn	0.90788 0.93205 0.90178 1.17800
Zn	Zn	0.98362 0.95146 0.00002 1.18600
Zn	Zn	0.00831 0.00566 0.95007 1.21300
C 	C 	0.90096 0.86074 0.93384 0.31800
C 	C 	0.88428 0.96221 0.96827 0.32400
O 	O 	0.95419 0.02987 0.93139 -0.46800
Zn	Zn	0.99254 0.03530 0.03807 1.19700
O 	O 	0.94353 0.88827 0.97589 -0.44300
O 	O 	0.88080 0.87246 0.89886 -0.45400
O 	O 	0.87435 0.95262 0.92040 -0.47400
O 	O 	0.92483 0.97363 0.00666 -0.47300
C 	C 	0.01438 0.00459 0.11500 0.30300
O 	O 	0.96494 0.94593 0.92650 -0.78400
C 	C 	0.95252 0.05937 0.96292 0.32700
O 	O 	0.00387 0.96807 0.07785 -0.40700
O 	O 	0.01780 0.03914 0.10772 -0.46200
O 	O 	0.96787 0.06654 0.01172 -0.50400
O 	O 	0.02130 0.01216 0.01789 -0.90900
Zn	Zn	0.00839 0.95699 0.85592 1.19100
C 	C 	0.02964 0.00848 0.80387 0.27900
C 	C 	0.05590 0.94678 0.94267 0.33200
H 	H 	0.05362 0.02585 0.04647 0.16700
H 	H 	0.96320 0.98925 0.85591 0.15700
Zn	Zn	0.11008 0.09168 0.51355 1.18700
Zn	Zn	0.03351 0.05965 0.40177 1.19700
O 	O 	0.02775 0.98475 0.31737 -0.42300
O 	O 	0.01311 0.04040 0.32482 -0.38500
O 	O 	0.02113 0.92582 0.38352 -0.48100
C 	C 	0.14795 0.06910 0.46173 0.30400
O 	O 	0.99053 0.99899 0.38123 -0.85900
C 	C 	0.11058 0.15576 0.47439 0.30400
O 	O 	0.15901 0.09268 0.50898 -0.45600
O 	O 	0.10529 0.03877 0.42338 -0.34800
O 	O 	0.04892 0.06505 0.47423 -0.77800
O 	O 	0.06416 0.98622 0.46512 -0.43300
O 	O 	0.08094 0.12132 0.42567 -0.39500
O 	O 	0.12322 0.15008 0.51675 -0.45000
Zn	Zn	0.90935 0.93015 0.40255 1.17800
Zn	Zn	0.98506 0.94907 0.50031 1.19000
Zn	Zn	0.00764 0.00453 0.45027 1.21200
C 	C 	0.90399 0.85699 0.42840 0.33400
C 	C 	0.88769 0.95786 0.47290 0.31600
O 	O 	0.95124 0.02498 0.43499 -0.47900
Zn	Zn	0.99574 0.03231 0.54168 1.19700
O 	O 	0.94103 0.88713 0.47674 -0.44400
O 	O 	0.88319 0.86862 0.39383 -0.46200
O 	O 	0.87594 0.94810 0.42429 -0.47300
O 	O 	0.92877 0.96934 0.50994 -0.46500
C 	C 	0.02104 0.00100 0.61760 0.30400
O 	O 	0.96623 0.94432 0.42685 -0.79100
C 	C 	0.95034 0.05431 0.46764 0.31700
O 	O 	0.01033 0.96516 0.57930 -0.40200
O 	O 	0.02241 0.03533 0.61090 -0.46200
O 	O 	0.96972 0.06343 0.51752 -0.49400
O 	O 	0.02362 0.00963 0.51861 -0.90400
Zn	Zn	0.00122 0.95751 0.35031 1.19200
C 	C 	0.02040 0.01236 0.30063 0.27600
C 	C 	0.05647 0.94906 0.43329 0.33200
H 	H 	0.05612 0.02273 0.54597 0.17000
H 	H 	0.95869 0.99037 0.35811 0.15000
C 	C 	0.02982 0.00204 0.66792 -0.13100
C 	C 	0.00486 0.96344 0.66754 0.05500
C 	C 	0.00583 0.96592 0.71246 -0.02600
C 	C 	0.03194 0.00700 0.75857 0.00100
C 	C 	0.06048 0.04578 0.76097 -0.13000
C 	C 	0.05835 0.04290 0.71494 0.09500
H 	H 	0.98506 0.93595 0.71088 0.03300
H 	H 	0.07791 0.07261 0.71515 0.06000
H 	H 	0.98291 0.93171 0.63155 0.03500
C 	C 	0.09108 0.09058 0.81098 0.79000
F 	F 	0.11249 0.08652 0.85587 -0.47200
F 	F 	0.12439 0.12023 0.81004 -0.45800
F 	F 	0.06567 0.10806 0.81466 -0.45900
C 	C 	0.02043 0.00609 0.16452 -0.12500
C 	C 	0.99366 0.96786 0.16327 0.04500
C 	C 	0.99362 0.97058 0.20765 -0.03500
C 	C 	0.02046 0.01153 0.25417 0.00900
C 	C 	0.04954 0.05018 0.25686 -0.13100
C 	C 	0.04874 0.04698 0.21144 0.09300
H 	H 	0.97212 0.94076 0.20568 0.03200
H 	H 	0.06932 0.07644 0.21209 0.05900
H 	H 	0.97155 0.93618 0.12719 0.03100
C 	C 	0.07870 0.09528 0.30612 0.79000
F 	F 	0.11082 0.12608 0.30473 -0.46400
F 	F 	0.05155 0.11056 0.30891 -0.46700
F 	F 	0.10147 0.09250 0.35167 -0.47400
C 	C 	0.13294 0.70110 0.48152 -0.05100
C 	C 	0.11706 0.70891 0.43778 0.00300
C 	C 	0.13781 0.75181 0.44479 -0.02500
C 	C 	0.17431 0.78756 0.49562 -0.01800
C 	C 	0.19062 0.77995 0.53958 0.04300
C 	C 	0.17013 0.73684 0.53236 -0.02500
H 	H 	0.12505 0.75744 0.41078 0.06000
H 	H 	0.18301 0.73126 0.56637 0.05700
H 	H 	0.08826 0.68192 0.39848 0.09500
I 	I 	0.24524 0.83306 0.61755 -0.13500
C 	C 	0.35190 0.94339 0.48167 -0.07300
C 	C 	0.36336 0.95520 0.53349 0.00600
C 	C 	0.32959 0.93880 0.54138 -0.04000
C 	C 	0.28406 0.91057 0.49766 -0.01300
C 	C 	0.27235 0.89908 0.44568 0.03500
C 	C 	0.30616 0.91567 0.43794 -0.01600
H 	H 	0.33882 0.94802 0.58148 0.04900
H 	H 	0.29682 0.90633 0.39779 0.05400
H 	H 	0.39841 0.97686 0.56765 0.04700
I 	I 	0.20387 0.85615 0.37797 -0.10500
C 	C 	0.15430 0.91181 0.48633 0.04000
C 	C 	0.13768 0.92130 0.51600 -0.07500
C 	C 	0.10605 0.93385 0.49872 0.04000
C 	C 	0.09067 0.93695 0.45157 -0.12600
C 	C 	0.10833 0.92843 0.42241 0.10400
C 	C 	0.13955 0.91549 0.43969 -0.09100
H 	H 	0.09298 0.94057 0.52158 0.01700
H 	H 	0.15220 0.90798 0.41657 0.07400
H 	H 	0.14890 0.91850 0.55210 0.05700
I 	I 	0.09074 0.93669 0.35366 -0.12100
C 	C 	0.17634 0.78326 0.98975 0.05000
C 	C 	0.13017 0.75133 0.95071 -0.06500
C 	C 	0.11187 0.70852 0.94443 0.04700
C 	C 	0.13957 0.69674 0.97645 -0.09100
C 	C 	0.18664 0.72791 0.01328 0.09700
C 	C 	0.20459 0.77127 0.02048 -0.09800
H 	H 	0.07590 0.68464 0.91524 0.04600
H 	H 	0.24046 0.79552 0.04979 0.06000
H 	H 	0.10830 0.75997 0.92582 0.06200
I 	I 	0.23208 0.70967 0.05432 -0.12700
C 	C 	0.34705 0.94709 0.97475 -0.06600
C 	C 	0.35676 0.95642 0.02551 -0.00300
C 	C 	0.32180 0.93808 0.03105 -0.05300
C 	C 	0.27675 0.91041 0.98605 0.00100
C 	C 	0.26668 0.90204 0.93520 0.03300
C 	C 	0.30172 0.92062 0.92979 -0.01600
H 	H 	0.32979 0.94498 0.07033 0.04600
H 	H 	0.29368 0.91357 0.89047 0.05600
H 	H 	0.39141 0.97733 0.06065 0.04700
I 	I 	0.19899 0.86044 0.86574 -0.09400
C 	C 	0.14880 0.90447 0.99234 0.06400
C 	C 	0.16459 0.94994 0.01519 -0.09100
C 	C 	0.13395 0.96392 0.00187 0.03300
C 	C 	0.08720 0.93257 0.96682 -0.12300
C 	C 	0.07138 0.88711 0.94921 0.10400
C 	C 	0.10199 0.87315 0.95991 -0.09800
H 	H 	0.14661 0.99909 0.01718 0.02600
H 	H 	0.08932 0.83795 0.94267 0.07000
H 	H 	0.20055 0.97446 0.04207 0.05600
I 	I 	0.00213 0.83934 0.91086 -0.13000
C 	C 	0.42246 0.57256 0.44681 -0.09000
C 	C 	0.38196 0.54692 0.39532 0.00900
C 	C 	0.35236 0.56189 0.37892 -0.04900
C 	C 	0.36285 0.60236 0.41398 -0.01300
C 	C 	0.40401 0.62856 0.46526 0.03200
C 	C 	0.43394 0.61402 0.48084 -0.01300
H 	H 	0.32077 0.54154 0.33948 0.04300
H 	H 	0.46548 0.63424 0.52034 0.05200
H 	H 	0.37268 0.51479 0.36869 0.01800
I 	I 	0.42035 0.68853 0.52177 -0.11300
C 	C 	0.34202 0.72286 0.39995 0.03900
C 	C 	0.31522 0.73996 0.37932 -0.07600
C 	C 	0.33548 0.78354 0.38795 0.03700
C 	C 	0.38258 0.80992 0.41530 -0.12100
C 	C 	0.40910 0.79150 0.43211 0.10200
C 	C 	0.38911 0.74912 0.42678 -0.09200
H 	H 	0.31460 0.79700 0.37401 0.03400
H 	H 	0.41022 0.73643 0.44296 0.07100
H 	H 	0.27879 0.71973 0.35723 0.06000
I 	I 	0.47808 0.82426 0.45961 -0.13900
C 	C 	0.18135 0.58196 0.44914 -0.05000
C 	C 	0.22702 0.61494 0.48961 0.00200
C 	C 	0.25763 0.62980 0.47690 -0.03400
C 	C 	0.24295 0.61207 0.42366 -0.01300
C 	C 	0.19726 0.57894 0.38297 0.05400
C 	C 	0.16695 0.56342 0.39590 -0.00300
H 	H 	0.29285 0.65498 0.50847 0.04800
H 	H 	0.13188 0.53787 0.36431 0.09100
H 	H 	0.23883 0.62923 0.53089 0.04500
I 	I 	0.17264 0.55297 0.30147 -0.08100
C 	C 	0.42811 0.58032 0.94161 -0.09400
C 	C 	0.38525 0.55468 0.89281 0.01200
C 	C 	0.35701 0.57146 0.87953 -0.04700
C 	C 	0.37117 0.61370 0.91530 -0.01400
C 	C 	0.41542 0.64053 0.96280 0.03700
C 	C 	0.44397 0.62413 0.97478 0.00200
H 	H 	0.32323 0.55071 0.84279 0.04700
H 	H 	0.47751 0.64441 0.01193 0.03700
H 	H 	0.37279 0.52091 0.86663 0.02200
I 	I 	0.43844 0.70377 0.02045 -0.13000
C 	C 	0.37593 0.81549 0.92516 -0.07600
C 	C 	0.38502 0.80809 0.96893 0.02400
C 	C 	0.36451 0.76492 0.96120 -0.04400
C 	C 	0.33470 0.72857 0.90965 -0.00900
C 	C 	0.32371 0.73593 0.86540 0.03800
C 	C 	0.34441 0.77934 0.87332 -0.01300
H 	H 	0.37290 0.75957 0.99543 0.05600
H 	H 	0.33678 0.78482 0.83927 0.04900
H 	H 	0.40853 0.83577 0.00905 0.03100
I 	I 	0.27588 0.68222 0.78645 -0.11200
C 	C 	0.18696 0.57320 0.95609 -0.05800
C 	C 	0.23249 0.60649 0.99655 0.01600
C 	C 	0.26256 0.62326 0.98368 -0.02300
C 	C 	0.24760 0.60666 0.93033 -0.01600
C 	C 	0.20256 0.57165 0.88982 0.05700
C 	C 	0.17278 0.55438 0.90295 -0.00000
H 	H 	0.29741 0.64958 0.01516 0.03800
H 	H 	0.13810 0.52765 0.87152 0.08200
H 	H 	0.24442 0.62006 0.03788 0.03800
I 	I 	0.17802 0.54565 0.80834 -0.06600
C 	C 	0.77949 0.12548 0.91742 0.06400
C 	C 	0.78687 0.16376 0.91190 -0.07900
C 	C 	0.81938 0.18333 0.90302 0.06000
C 	C 	0.84305 0.16339 0.89741 -0.07700
C 	C 	0.83795 0.12697 0.90654 0.05600
C 	C 	0.80519 0.10729 0.91498 -0.08300
H 	H 	0.76863 0.17917 0.91649 0.08200
H 	H 	0.86846 0.17869 0.89099 0.06600
H 	H 	0.80110 0.07906 0.92195 0.06000
C 	C 	0.77614 0.12594 0.41123 0.05300
C 	C 	0.78931 0.16470 0.40645 -0.06800
C 	C 	0.82117 0.17789 0.39473 0.02700
C 	C 	0.83809 0.15089 0.38589 -0.06900
C 	C 	0.82991 0.11614 0.39829 0.04600
C 	C 	0.79694 0.10207 0.40787 -0.07700
H 	H 	0.77605 0.18519 0.41365 0.06600
H 	H 	0.86170 0.15999 0.37539 0.05300
H 	H 	0.78955 0.07431 0.41599 0.05700
C 	C 	0.74050 0.38972 0.99240 0.03300
C 	C 	0.71565 0.40919 0.99461 -0.04300
C 	C 	0.68094 0.38942 0.00045 -0.01100
C 	C 	0.67326 0.35160 0.00709 -0.06600
C 	C 	0.69459 0.32951 0.99920 0.02500
C 	C 	0.72932 0.34937 0.99357 -0.06000
H 	H 	0.72207 0.43849 0.98959 0.05200
H 	H 	0.64815 0.33743 0.01433 0.04400
H 	H 	0.74644 0.33278 0.98821 0.06000
C 	C 	0.74868 0.39413 0.50642 0.04900
C 	C 	0.72582 0.41621 0.50729 -0.07100
C 	C 	0.68504 0.39534 0.50197 0.02600
C 	C 	0.66979 0.35435 0.50147 -0.07200
C 	C 	0.69354 0.33294 0.50274 0.05400
C 	C 	0.73300 0.35286 0.50523 -0.07500
H 	H 	0.73753 0.44776 0.50728 0.05700
H 	H 	0.63809 0.33791 0.49688 0.05800
H 	H 	0.75022 0.33540 0.50373 0.06500
Zn	Zn	0.61351 0.59032 0.01433 1.18300
Zn	Zn	0.53941 0.55749 0.90130 1.19800
O 	O 	0.53604 0.48132 0.82219 -0.45500
O 	O 	0.52059 0.53621 0.82498 -0.39000
O 	O 	0.52580 0.42527 0.89088 -0.48300
C 	C 	0.65331 0.56134 0.96841 0.31500
O 	O 	0.49473 0.49806 0.88141 -0.87200
C 	C 	0.61875 0.65236 0.97171 0.34100
O 	O 	0.66294 0.58819 0.01330 -0.46100
O 	O 	0.61143 0.52836 0.93100 -0.34200
O 	O 	0.55236 0.56526 0.97370 -0.76700
O 	O 	0.56364 0.48528 0.97119 -0.45000
O 	O 	0.58868 0.61720 0.92376 -0.39500
O 	O 	0.62944 0.64846 0.01502 -0.46000
Zn	Zn	0.40788 0.43205 0.90178 1.17600
Zn	Zn	0.48362 0.45146 0.00002 1.18400
Zn	Zn	0.50831 0.50566 0.95007 1.22000
C 	C 	0.40096 0.36073 0.93384 0.31800
C 	C 	0.38428 0.46221 0.96827 0.32100
O 	O 	0.45419 0.52987 0.93139 -0.45700
Zn	Zn	0.49254 0.53530 0.03807 1.20200
O 	O 	0.44353 0.38827 0.97589 -0.44400
O 	O 	0.38080 0.37246 0.89886 -0.45400
O 	O 	0.37435 0.45262 0.92040 -0.48100
O 	O 	0.42483 0.47363 0.00666 -0.47800
C 	C 	0.51438 0.50459 0.11500 0.32500
O 	O 	0.46494 0.44593 0.92650 -0.79100
C 	C 	0.45252 0.55937 0.96292 0.32600
O 	O 	0.50387 0.46807 0.07785 -0.43200
O 	O 	0.51780 0.53914 0.10772 -0.46400
O 	O 	0.46787 0.56654 0.01172 -0.49800
O 	O 	0.52130 0.51216 0.01789 -0.90200
Zn	Zn	0.50839 0.45699 0.85592 1.18900
C 	C 	0.52964 0.50848 0.80387 0.30000
C 	C 	0.55590 0.44678 0.94267 0.33200
H 	H 	0.55362 0.52585 0.04647 0.17000
H 	H 	0.46320 0.48925 0.85591 0.15300
Zn	Zn	0.61008 0.59168 0.51355 1.18800
Zn	Zn	0.53351 0.55965 0.40177 1.20000
O 	O 	0.52775 0.48475 0.31737 -0.44700
O 	O 	0.51311 0.54040 0.32482 -0.38500
O 	O 	0.52113 0.42582 0.38352 -0.48500
C 	C 	0.64795 0.56910 0.46173 0.30400
O 	O 	0.49053 0.49899 0.38123 -0.87000
C 	C 	0.61058 0.65576 0.47439 0.30400
O 	O 	0.65901 0.59268 0.50898 -0.45200
O 	O 	0.60529 0.53877 0.42338 -0.33800
O 	O 	0.54892 0.56505 0.47423 -0.77400
O 	O 	0.56415 0.48622 0.46512 -0.44700
O 	O 	0.58094 0.62132 0.42567 -0.39400
O 	O 	0.62322 0.65008 0.51675 -0.45000
Zn	Zn	0.40935 0.43015 0.40255 1.17700
Zn	Zn	0.48506 0.44907 0.50031 1.18800
Zn	Zn	0.50764 0.50452 0.45027 1.21800
C 	C 	0.40398 0.35699 0.42840 0.33400
C 	C 	0.38769 0.45786 0.47290 0.31400
O 	O 	0.45124 0.52498 0.43499 -0.46800
Zn	Zn	0.49574 0.53231 0.54168 1.20100
O 	O 	0.44103 0.38713 0.47674 -0.44400
O 	O 	0.38319 0.36862 0.39383 -0.46300
O 	O 	0.37594 0.44810 0.42429 -0.48000
O 	O 	0.42878 0.46934 0.50994 -0.47300
C 	C 	0.52104 0.50100 0.61760 0.32500
O 	O 	0.46623 0.44432 0.42685 -0.79700
C 	C 	0.45034 0.55431 0.46764 0.31700
O 	O 	0.51033 0.46516 0.57930 -0.42600
O 	O 	0.52241 0.53533 0.61090 -0.46300
O 	O 	0.46972 0.56343 0.51752 -0.48800
O 	O 	0.52362 0.50963 0.51861 -0.89500
Zn	Zn	0.50122 0.45751 0.35031 1.18900
C 	C 	0.52040 0.51236 0.30063 0.29800
C 	C 	0.55647 0.44906 0.43329 0.33300
H 	H 	0.55612 0.52273 0.54597 0.17400
H 	H 	0.45869 0.49037 0.35811 0.14500
C 	C 	0.52982 0.50204 0.66792 -0.10900
C 	C 	0.50486 0.46344 0.66754 0.02900
C 	C 	0.50583 0.46592 0.71246 -0.05000
C 	C 	0.53194 0.50700 0.75857 0.02100
C 	C 	0.56048 0.54578 0.76097 -0.13100
C 	C 	0.55835 0.54290 0.71494 0.09400
H 	H 	0.48506 0.43595 0.71088 0.03700
H 	H 	0.57791 0.57261 0.71515 0.06100
H 	H 	0.48291 0.43171 0.63155 0.03900
C 	C 	0.59108 0.59058 0.81098 0.79000
F 	F 	0.61248 0.58652 0.85587 -0.47200
F 	F 	0.62439 0.62023 0.81004 -0.45800
F 	F 	0.56567 0.60806 0.81466 -0.45800
C 	C 	0.52043 0.50609 0.16452 -0.11100
C 	C 	0.49366 0.46786 0.16327 0.03000
C 	C 	0.49362 0.47058 0.20765 -0.05100
C 	C 	0.52046 0.51153 0.25417 0.02200
C 	C 	0.54954 0.55018 0.25686 -0.13100
C 	C 	0.54874 0.54698 0.21144 0.09300
H 	H 	0.47212 0.44076 0.20568 0.03300
H 	H 	0.56932 0.57644 0.21209 0.05900
H 	H 	0.47155 0.43618 0.12719 0.03400
C 	C 	0.57870 0.59528 0.30612 0.79000
F 	F 	0.61082 0.62608 0.30473 -0.46400
F 	F 	0.55155 0.61055 0.30891 -0.46700
F 	F 	0.60147 0.59250 0.35167 -0.47400
C 	C 	0.63294 0.20110 0.48152 -0.05100
C 	C 	0.61706 0.20891 0.43778 0.00200
C 	C 	0.63781 0.25181 0.44479 -0.02600
C 	C 	0.67431 0.28756 0.49562 -0.01800
C 	C 	0.69062 0.27995 0.53958 0.04300
C 	C 	0.67014 0.23684 0.53236 -0.02600
H 	H 	0.62505 0.25744 0.41078 0.05900
H 	H 	0.68301 0.23126 0.56637 0.05600
H 	H 	0.58827 0.18192 0.39848 0.09400
I 	I 	0.74524 0.33306 0.61755 -0.14100
C 	C 	0.85190 0.44339 0.48167 -0.07700
C 	C 	0.86336 0.45519 0.53349 0.00500
C 	C 	0.82959 0.43880 0.54138 -0.04200
C 	C 	0.78406 0.41057 0.49766 -0.01400
C 	C 	0.77235 0.39908 0.44568 0.03400
C 	C 	0.80616 0.41567 0.43794 -0.01700
H 	H 	0.83882 0.44802 0.58148 0.04500
H 	H 	0.79682 0.40633 0.39779 0.05100
H 	H 	0.89841 0.47686 0.56765 0.04100
I 	I 	0.70387 0.35615 0.37797 -0.11000
C 	C 	0.65430 0.41181 0.48633 0.03900
C 	C 	0.63768 0.42130 0.51600 -0.07700
C 	C 	0.60605 0.43386 0.49872 0.03900
C 	C 	0.59067 0.43695 0.45157 -0.13000
C 	C 	0.60833 0.42843 0.42241 0.10400
C 	C 	0.63955 0.41549 0.43969 -0.09400
H 	H 	0.59298 0.44057 0.52158 0.01200
H 	H 	0.65220 0.40798 0.41657 0.07300
H 	H 	0.64890 0.41850 0.55210 0.05400
I 	I 	0.59074 0.43669 0.35366 -0.13700
C 	C 	0.67634 0.28326 0.98975 0.05100
C 	C 	0.63017 0.25133 0.95071 -0.06600
C 	C 	0.61187 0.20852 0.94443 0.04600
C 	C 	0.63957 0.19675 0.97645 -0.09000
C 	C 	0.68664 0.22791 0.01328 0.09700
C 	C 	0.70459 0.27127 0.02048 -0.10100
H 	H 	0.57590 0.18464 0.91524 0.04500
H 	H 	0.74046 0.29552 0.04979 0.05900
H 	H 	0.60830 0.25997 0.92582 0.06100
I 	I 	0.73208 0.20968 0.05432 -0.13000
C 	C 	0.84705 0.44709 0.97475 -0.06800
C 	C 	0.85676 0.45642 0.02551 -0.00500
C 	C 	0.82180 0.43808 0.03105 -0.05800
C 	C 	0.77675 0.41040 0.98605 0.00300
C 	C 	0.76668 0.40204 0.93520 0.03100
C 	C 	0.80172 0.42062 0.92979 -0.01600
H 	H 	0.82979 0.44498 0.07033 0.04200
H 	H 	0.79368 0.41358 0.89047 0.05300
H 	H 	0.89141 0.47733 0.06065 0.04100
I 	I 	0.69899 0.36044 0.86574 -0.10000
C 	C 	0.64880 0.40447 0.99234 0.06900
C 	C 	0.66459 0.44994 0.01519 -0.09700
C 	C 	0.63395 0.46392 0.00187 0.03000
C 	C 	0.58720 0.43257 0.96682 -0.12500
C 	C 	0.57138 0.38711 0.94921 0.10400
C 	C 	0.60199 0.37315 0.95991 -0.10100
H 	H 	0.64661 0.49909 0.01718 0.01800
H 	H 	0.58932 0.33795 0.94267 0.07000
H 	H 	0.70055 0.47446 0.04207 0.05100
I 	I 	0.50213 0.33934 0.91086 -0.13600
C 	C 	0.92246 0.07256 0.44681 -0.09300
C 	C 	0.88196 0.04692 0.39532 0.00700
C 	C 	0.85236 0.06189 0.37892 -0.05100
C 	C 	0.86285 0.10236 0.41398 -0.01300
C 	C 	0.90401 0.12856 0.46526 0.03100
C 	C 	0.93394 0.11402 0.48084 -0.01400
H 	H 	0.82076 0.04154 0.33948 0.03900
H 	H 	0.96548 0.13424 0.52034 0.05100
H 	H 	0.87268 0.01479 0.36869 0.01100
I 	I 	0.92035 0.18853 0.52177 -0.11700
C 	C 	0.84202 0.22286 0.39995 0.03900
C 	C 	0.81522 0.23995 0.37932 -0.07600
C 	C 	0.83548 0.28354 0.38795 0.03700
C 	C 	0.88258 0.30991 0.41530 -0.12200
C 	C 	0.90910 0.29150 0.43211 0.10200
C 	C 	0.88911 0.24912 0.42678 -0.09200
H 	H 	0.81460 0.29700 0.37401 0.03300
H 	H 	0.91022 0.23643 0.44296 0.07100
H 	H 	0.77879 0.21973 0.35723 0.05900
I 	I 	0.97808 0.32426 0.45961 -0.14400
C 	C 	0.68135 0.08196 0.44914 -0.05400
C 	C 	0.72702 0.11494 0.48961 0.00200
C 	C 	0.75763 0.12980 0.47690 -0.03600
C 	C 	0.74295 0.11207 0.42366 -0.01400
C 	C 	0.69726 0.07894 0.38297 0.05300
C 	C 	0.66695 0.06343 0.39590 -0.00400
H 	H 	0.79285 0.15498 0.50847 0.04700
H 	H 	0.63188 0.03787 0.36431 0.08700
H 	H 	0.73883 0.12923 0.53089 0.04300
I 	I 	0.67264 0.05297 0.30147 -0.09300
C 	C 	0.92811 0.08032 0.94161 -0.09800
C 	C 	0.88525 0.05468 0.89281 0.01100
C 	C 	0.85701 0.07145 0.87953 -0.04900
C 	C 	0.87117 0.11370 0.91530 -0.01400
C 	C 	0.91542 0.14053 0.96280 0.03700
C 	C 	0.94397 0.12413 0.97478 0.00300
H 	H 	0.82323 0.05071 0.84279 0.04300
H 	H 	0.97751 0.14441 0.01193 0.03500
H 	H 	0.87279 0.02091 0.86663 0.01600
I 	I 	0.93844 0.20377 0.02045 -0.13500
C 	C 	0.87593 0.31549 0.92516 -0.07700
C 	C 	0.88502 0.30809 0.96893 0.02700
C 	C 	0.86451 0.26492 0.96120 -0.04500
C 	C 	0.83469 0.22857 0.90965 -0.00900
C 	C 	0.82371 0.23593 0.86540 0.03800
C 	C 	0.84441 0.27934 0.87332 -0.01300
H 	H 	0.87290 0.25957 0.99543 0.05600
H 	H 	0.83678 0.28482 0.83927 0.04900
H 	H 	0.90854 0.33577 0.00905 0.02800
I 	I 	0.77588 0.18222 0.78645 -0.11700
C 	C 	0.68696 0.07320 0.95609 -0.06200
C 	C 	0.73249 0.10648 0.99655 0.01700
C 	C 	0.76256 0.12326 0.98368 -0.02300
C 	C 	0.74760 0.10666 0.93033 -0.01700
C 	C 	0.70256 0.07165 0.88982 0.05600
C 	C 	0.67278 0.05438 0.90295 -0.00100
H 	H 	0.79741 0.14958 0.01516 0.03700
H 	H 	0.63810 0.02765 0.87152 0.07700
H 	H 	0.74442 0.12006 0.03788 0.03500
I 	I 	0.67802 0.04564 0.80834 -0.07900
C 	C 	0.77949 0.62548 0.91742 0.06500
C 	C 	0.78687 0.66375 0.91190 -0.07900
C 	C 	0.81938 0.68333 0.90302 0.06000
C 	C 	0.84305 0.66339 0.89741 -0.07700
C 	C 	0.83795 0.62697 0.90654 0.05700
C 	C 	0.80519 0.60729 0.91498 -0.08300
H 	H 	0.76863 0.67917 0.91649 0.08200
H 	H 	0.86846 0.67869 0.89099 0.06700
H 	H 	0.80110 0.57906 0.92195 0.06300
C 	C 	0.77614 0.62594 0.41123 0.05300
C 	C 	0.78931 0.66470 0.40645 -0.06800
C 	C 	0.82117 0.67789 0.39473 0.02700
C 	C 	0.83809 0.65089 0.38589 -0.06900
C 	C 	0.82991 0.61613 0.39829 0.04700
C 	C 	0.79694 0.60206 0.40787 -0.07600
H 	H 	0.77605 0.68519 0.41365 0.06600
H 	H 	0.86170 0.65999 0.37539 0.05400
H 	H 	0.78955 0.57432 0.41599 0.06100
C 	C 	0.74050 0.88972 0.99240 0.03400
C 	C 	0.71565 0.90919 0.99461 -0.04200
C 	C 	0.68094 0.88942 0.00045 -0.00900
C 	C 	0.67326 0.85160 0.00709 -0.06600
C 	C 	0.69459 0.82951 0.99920 0.02600
C 	C 	0.72932 0.84937 0.99357 -0.06000
H 	H 	0.72207 0.93849 0.98959 0.05500
H 	H 	0.64815 0.83743 0.01433 0.04500
H 	H 	0.74644 0.83278 0.98821 0.06100
C 	C 	0.74868 0.89413 0.50642 0.05000
C 	C 	0.72582 0.91621 0.50729 -0.07000
C 	C 	0.68504 0.89534 0.50197 0.02800
C 	C 	0.66979 0.85435 0.50147 -0.07200
C 	C 	0.69354 0.83294 0.50274 0.05500
C 	C 	0.73300 0.85287 0.50523 -0.07500
H 	H 	0.73753 0.94776 0.50728 0.06000
H 	H 	0.63809 0.83791 0.49688 0.05900
H 	H 	0.75022 0.83540 0.50373 0.06500
Zn	Zn	0.61351 0.09032 0.01433 1.18200
Zn	Zn	0.53941 0.05749 0.90130 1.19400
O 	O 	0.53604 0.98132 0.82219 -0.43000
O 	O 	0.52059 0.03621 0.82498 -0.39300
O 	O 	0.52580 0.92527 0.89088 -0.48000
C 	C 	0.65331 0.06134 0.96841 0.31300
O 	O 	0.49473 0.99806 0.88141 -0.85800
C 	C 	0.61875 0.15236 0.97171 0.34000
O 	O 	0.66294 0.08819 0.01330 -0.46300
O 	O 	0.61143 0.02836 0.93100 -0.35400
O 	O 	0.55236 0.06526 0.97370 -0.77300
O 	O 	0.56364 0.98528 0.97119 -0.43800
O 	O 	0.58868 0.11720 0.92376 -0.39600
O 	O 	0.62944 0.14846 0.01502 -0.45900
Zn	Zn	0.40788 0.93205 0.90178 1.17800
Zn	Zn	0.48362 0.95146 0.00002 1.18800
Zn	Zn	0.50831 0.00566 0.95007 1.21200
C 	C 	0.40096 0.86074 0.93384 0.31800
C 	C 	0.38428 0.96221 0.96827 0.32200
O 	O 	0.45419 0.02987 0.93139 -0.46700
Zn	Zn	0.49254 0.03530 0.03807 1.19800
O 	O 	0.44353 0.88827 0.97589 -0.44300
O 	O 	0.38080 0.87246 0.89886 -0.45300
O 	O 	0.37435 0.95262 0.92040 -0.47400
O 	O 	0.42483 0.97363 0.00666 -0.46900
C 	C 	0.51438 0.00459 0.11500 0.30400
O 	O 	0.46494 0.94593 0.92650 -0.78300
C 	C 	0.45252 0.05937 0.96292 0.32500
O 	O 	0.50387 0.96807 0.07785 -0.41200
O 	O 	0.51780 0.03914 0.10772 -0.46500
O 	O 	0.46787 0.06654 0.01172 -0.50200
O 	O 	0.52130 0.01216 0.01789 -0.91200
Zn	Zn	0.50839 0.95699 0.85592 1.19100
C 	C 	0.52964 0.00848 0.80387 0.27800
C 	C 	0.55590 0.94678 0.94267 0.33200
H 	H 	0.55362 0.02585 0.04647 0.16700
H 	H 	0.46320 0.98925 0.85591 0.15800
Zn	Zn	0.61008 0.09168 0.51355 1.18700
Zn	Zn	0.53351 0.05965 0.40177 1.19700
O 	O 	0.52775 0.98475 0.31737 -0.42400
O 	O 	0.51311 0.04040 0.32482 -0.38700
O 	O 	0.52113 0.92582 0.38352 -0.48300
C 	C 	0.64795 0.06910 0.46173 0.30400
O 	O 	0.49053 0.99899 0.38123 -0.85600
C 	C 	0.61058 0.15576 0.47439 0.30400
O 	O 	0.65901 0.09268 0.50898 -0.45600
O 	O 	0.60529 0.03877 0.42338 -0.34800
O 	O 	0.54892 0.06505 0.47423 -0.77900
O 	O 	0.56415 0.98622 0.46512 -0.43400
O 	O 	0.58094 0.12132 0.42567 -0.39500
O 	O 	0.62322 0.15008 0.51675 -0.45100
Zn	Zn	0.40935 0.93015 0.40255 1.17900
Zn	Zn	0.48506 0.94907 0.50031 1.19200
Zn	Zn	0.50764 0.00453 0.45027 1.21000
C 	C 	0.40398 0.85699 0.42840 0.33400
C 	C 	0.38769 0.95786 0.47290 0.31600
O 	O 	0.45124 0.02498 0.43499 -0.47900
Zn	Zn	0.49574 0.03231 0.54168 1.19700
O 	O 	0.44103 0.88713 0.47674 -0.44300
O 	O 	0.38319 0.86862 0.39383 -0.46200
O 	O 	0.37594 0.94810 0.42429 -0.47300
O 	O 	0.42878 0.96934 0.50994 -0.46400
C 	C 	0.52104 0.00100 0.61760 0.30300
O 	O 	0.46623 0.94432 0.42685 -0.78900
C 	C 	0.45034 0.05431 0.46764 0.31700
O 	O 	0.51033 0.96516 0.57930 -0.40400
O 	O 	0.52241 0.03533 0.61090 -0.46400
O 	O 	0.46972 0.06343 0.51752 -0.49400
O 	O 	0.52362 0.00963 0.51861 -0.90600
Zn	Zn	0.50122 0.95751 0.35031 1.19100
C 	C 	0.52040 0.01236 0.30063 0.27600
C 	C 	0.55647 0.94906 0.43329 0.33200
H 	H 	0.55612 0.02273 0.54597 0.17000
H 	H 	0.45869 0.99037 0.35811 0.15000
C 	C 	0.52982 0.00204 0.66792 -0.13100
C 	C 	0.50486 0.96344 0.66754 0.05200
C 	C 	0.50583 0.96592 0.71246 -0.02800
C 	C 	0.53194 0.00700 0.75857 0.00100
C 	C 	0.56048 0.04578 0.76097 -0.13000
C 	C 	0.55835 0.04290 0.71494 0.09500
H 	H 	0.48506 0.93595 0.71088 0.03600
H 	H 	0.57791 0.07261 0.71515 0.06000
H 	H 	0.48291 0.93171 0.63155 0.03700
C 	C 	0.59108 0.09058 0.81098 0.79000
F 	F 	0.61248 0.08652 0.85587 -0.47200
F 	F 	0.62439 0.12023 0.81004 -0.45800
F 	F 	0.56567 0.10806 0.81466 -0.45900
C 	C 	0.52043 0.00609 0.16452 -0.13200
C 	C 	0.49367 0.96786 0.16327 0.05100
C 	C 	0.49362 0.97058 0.20765 -0.03000
C 	C 	0.52046 0.01153 0.25417 0.00300
C 	C 	0.54954 0.05018 0.25686 -0.13100
C 	C 	0.54874 0.04698 0.21144 0.09400
H 	H 	0.47212 0.94076 0.20568 0.03200
H 	H 	0.56932 0.07644 0.21209 0.05800
H 	H 	0.47155 0.93618 0.12719 0.03100
C 	C 	0.57870 0.09528 0.30612 0.78900
F 	F 	0.61082 0.12608 0.30473 -0.46400
F 	F 	0.55155 0.11056 0.30891 -0.46800
F 	F 	0.60147 0.09250 0.35167 -0.47400
C 	C 	0.63294 0.70110 0.48152 -0.05100
C 	C 	0.61706 0.70891 0.43778 0.00200
C 	C 	0.63781 0.75181 0.44479 -0.02500
C 	C 	0.67431 0.78756 0.49562 -0.01800
C 	C 	0.69062 0.77995 0.53958 0.04300
C 	C 	0.67014 0.73684 0.53236 -0.02500
H 	H 	0.62505 0.75744 0.41078 0.05900
H 	H 	0.68301 0.73126 0.56637 0.05600
H 	H 	0.58827 0.68192 0.39848 0.09400
I 	I 	0.74524 0.83306 0.61755 -0.13600
C 	C 	0.85190 0.94339 0.48167 -0.07400
C 	C 	0.86336 0.95520 0.53349 0.00600
C 	C 	0.82959 0.93880 0.54138 -0.04000
C 	C 	0.78406 0.91057 0.49766 -0.01300
C 	C 	0.77235 0.89908 0.44568 0.03500
C 	C 	0.80616 0.91567 0.43794 -0.01600
H 	H 	0.83882 0.94802 0.58148 0.04800
H 	H 	0.79682 0.90633 0.39779 0.05300
H 	H 	0.89841 0.97686 0.56765 0.04700
I 	I 	0.70387 0.85615 0.37797 -0.10600
C 	C 	0.65430 0.91181 0.48633 0.04000
C 	C 	0.63768 0.92130 0.51600 -0.07500
C 	C 	0.60605 0.93385 0.49872 0.04000
C 	C 	0.59067 0.93695 0.45157 -0.12600
C 	C 	0.60833 0.92843 0.42241 0.10400
C 	C 	0.63955 0.91549 0.43969 -0.09200
H 	H 	0.59298 0.94057 0.52158 0.01600
H 	H 	0.65220 0.90798 0.41657 0.07400
H 	H 	0.64890 0.91850 0.55210 0.05700
I 	I 	0.59074 0.93669 0.35366 -0.12300
C 	C 	0.67634 0.78326 0.98975 0.05200
C 	C 	0.63017 0.75133 0.95071 -0.06600
C 	C 	0.61187 0.70852 0.94443 0.04600
C 	C 	0.63957 0.69674 0.97645 -0.08900
C 	C 	0.68664 0.72791 0.01328 0.09600
C 	C 	0.70459 0.77127 0.02048 -0.10100
H 	H 	0.57590 0.68464 0.91524 0.04600
H 	H 	0.74046 0.79552 0.04979 0.06000
H 	H 	0.60830 0.75997 0.92582 0.06200
I 	I 	0.73208 0.70967 0.05432 -0.12900
C 	C 	0.84705 0.94709 0.97475 -0.06500
C 	C 	0.85676 0.95642 0.02551 -0.00400
C 	C 	0.82180 0.93808 0.03105 -0.05600
C 	C 	0.77675 0.91041 0.98605 0.00400
C 	C 	0.76668 0.90204 0.93520 0.03200
C 	C 	0.80172 0.92062 0.92979 -0.01500
H 	H 	0.82979 0.94498 0.07033 0.04500
H 	H 	0.79368 0.91357 0.89047 0.05500
H 	H 	0.89141 0.97733 0.06065 0.04600
I 	I 	0.69899 0.86044 0.86574 -0.09500
C 	C 	0.64880 0.90447 0.99234 0.07000
C 	C 	0.66459 0.94994 0.01519 -0.09400
C 	C 	0.63395 0.96392 0.00187 0.03200
C 	C 	0.58720 0.93257 0.96682 -0.12100
C 	C 	0.57138 0.88711 0.94921 0.10400
C 	C 	0.60199 0.87315 0.95991 -0.10000
H 	H 	0.64661 0.99909 0.01718 0.02600
H 	H 	0.58932 0.83795 0.94267 0.07000
H 	H 	0.70055 0.97446 0.04207 0.05600
I 	I 	0.50213 0.83934 0.91086 -0.13300
C 	C 	0.92246 0.57256 0.44681 -0.09000
C 	C 	0.88196 0.54692 0.39532 0.00900
C 	C 	0.85236 0.56189 0.37892 -0.04900
C 	C 	0.86285 0.60236 0.41398 -0.01300
C 	C 	0.90401 0.62856 0.46526 0.03200
C 	C 	0.93394 0.61402 0.48084 -0.01400
H 	H 	0.82077 0.54154 0.33948 0.04300
H 	H 	0.96548 0.63424 0.52034 0.05200
H 	H 	0.87268 0.51479 0.36869 0.01800
I 	I 	0.92035 0.68853 0.52177 -0.11400
C 	C 	0.84202 0.72286 0.39995 0.03900
C 	C 	0.81522 0.73996 0.37932 -0.07600
C 	C 	0.83548 0.78354 0.38795 0.03700
C 	C 	0.88258 0.80992 0.41530 -0.12100
C 	C 	0.90910 0.79150 0.43211 0.10200
C 	C 	0.88911 0.74912 0.42678 -0.09200
H 	H 	0.81460 0.79700 0.37401 0.03300
H 	H 	0.91022 0.73643 0.44296 0.07100
H 	H 	0.77879 0.71973 0.35723 0.05900
I 	I 	0.97808 0.82426 0.45961 -0.14200
C 	C 	0.68135 0.58196 0.44914 -0.05000
C 	C 	0.72702 0.61494 0.48961 0.00200
C 	C 	0.75763 0.62980 0.47690 -0.03400
C 	C 	0.74295 0.61207 0.42366 -0.01300
C 	C 	0.69726 0.57894 0.38297 0.05400
C 	C 	0.66695 0.56342 0.39590 -0.00300
H 	H 	0.79285 0.65498 0.50847 0.04800
H 	H 	0.63188 0.53787 0.36431 0.09100
H 	H 	0.73883 0.62923 0.53089 0.04500
I 	I 	0.67264 0.55297 0.30147 -0.08100
C 	C 	0.92811 0.58032 0.94161 -0.09600
C 	C 	0.88525 0.55468 0.89281 0.01300
C 	C 	0.85701 0.57146 0.87953 -0.04700
C 	C 	0.87117 0.61370 0.91530 -0.01400
C 	C 	0.91542 0.64053 0.96280 0.03800
C 	C 	0.94397 0.62413 0.97478 0.00400
H 	H 	0.82323 0.55071 0.84279 0.04700
H 	H 	0.97751 0.64441 0.01193 0.03500
H 	H 	0.87279 0.52091 0.86663 0.02200
I 	I 	0.93844 0.70377 0.02045 -0.13400
C 	C 	0.87593 0.81549 0.92516 -0.07700
C 	C 	0.88502 0.80809 0.96893 0.02700
C 	C 	0.86451 0.76492 0.96120 -0.04500
C 	C 	0.83469 0.72857 0.90965 -0.00800
C 	C 	0.82371 0.73593 0.86540 0.03700
C 	C 	0.84441 0.77934 0.87332 -0.01200
H 	H 	0.87290 0.75957 0.99543 0.05600
H 	H 	0.83678 0.78482 0.83927 0.04900
H 	H 	0.90854 0.83577 0.00905 0.02800
I 	I 	0.77588 0.68222 0.78645 -0.11300
C 	C 	0.68696 0.57320 0.95609 -0.05900
C 	C 	0.73249 0.60649 0.99655 0.01900
C 	C 	0.76256 0.62326 0.98368 -0.02100
C 	C 	0.74760 0.60666 0.93033 -0.01700
C 	C 	0.70256 0.57165 0.88982 0.05700
C 	C 	0.67278 0.55438 0.90295 0.00000
H 	H 	0.79741 0.64958 0.01516 0.03600
H 	H 	0.63810 0.52765 0.87152 0.08100
H 	H 	0.74442 0.62006 0.03788 0.03600
I 	I 	0.67802 0.54565 0.80834 -0.06700
