data_crystal

_cell_length_a 52.40532
_cell_length_b 35.78023
_cell_length_c 19.27288
_cell_angle_alpha 89.99948
_cell_angle_beta  89.99962
_cell_angle_gamma 90.00083

_symmetry_space_group_name_	'P 1'
_symmetry_space_group_name_H-M	'P 1'

loop_
_symmetry_equiv_pos_as_xyz
  x,y,z

loop_
_atom_site_label
_atom_site_type_symbol
_atom_site_fract_x
_atom_site_fract_y
_atom_site_fract_z
_atom_site_charge
Cu	Cu	0.39639 0.69226 0.20587 0.93800
Cu	Cu	0.35224 0.65001 0.29784 0.90100
Cu	Cu	0.35726 0.63753 0.14841 0.90500
Cu	Cu	0.40308 0.65466 0.05760 0.91900
C 	C 	0.44484 0.68672 0.13894 0.32700
O 	O 	0.38801 0.73278 0.13534 -0.32400
C 	C 	0.30708 0.63785 0.22098 0.32200
O 	O 	0.39421 0.64186 0.14945 -0.63200
O 	O 	0.36025 0.67931 0.21652 -0.63900
O 	O 	0.40341 0.70344 0.30517 -0.32700
O 	O 	0.38437 0.65018 0.34267 -0.38900
O 	O 	0.43247 0.68778 0.07970 -0.34300
O 	O 	0.35415 0.60030 0.07448 -0.33600
C 	C 	0.37252 0.58600 0.03569 0.32200
C 	C 	0.37433 0.72687 0.07886 0.31000
O 	O 	0.37093 0.69256 0.05582 -0.36400
O 	O 	0.39383 0.60444 0.02281 -0.34600
O 	O 	0.43283 0.69404 0.19737 -0.32500
C 	C 	0.39555 0.68207 0.35621 0.32900
O 	O 	0.32118 0.62527 0.16888 -0.34000
O 	O 	0.31745 0.65565 0.27363 -0.36900
H 	H 	0.40311 0.61973 0.16858 0.18300
H 	H 	0.34827 0.70007 0.20686 0.20000
Cu	Cu	0.60406 0.65799 0.07382 0.93500
Cu	Cu	0.66089 0.61375 0.06590 0.89700
Cu	Cu	0.64606 0.66909 0.18275 0.91100
Cu	Cu	0.59953 0.71968 0.18902 0.91700
C 	C 	0.55493 0.68171 0.12410 0.32000
O 	O 	0.60281 0.70760 0.02241 -0.33000
C 	C 	0.69905 0.65230 0.14121 0.33200
O 	O 	0.60974 0.66942 0.17924 -0.63800
O 	O 	0.64215 0.65956 0.07987 -0.62900
O 	O 	0.59869 0.60842 0.02706 -0.31600
O 	O 	0.63327 0.58057 0.07651 -0.39700
O 	O 	0.56579 0.71360 0.14209 -0.33400
O 	O 	0.64662 0.67950 0.28160 -0.33800
C 	C 	0.63309 0.70646 0.31067 0.32700
C 	C 	0.61585 0.73682 0.04346 0.32400
O 	O 	0.62461 0.73795 0.10697 -0.35400
O 	O 	0.62028 0.73087 0.27296 -0.35800
O 	O 	0.56788 0.65582 0.08985 -0.32300
C 	C 	0.61477 0.58024 0.03077 0.31600
O 	O 	0.68237 0.65582 0.19213 -0.35400
O 	O 	0.69181 0.64123 0.07916 -0.37300
H 	H 	0.60158 0.65211 0.21263 0.19200
H 	H 	0.64983 0.67994 0.05227 0.19500
Cu	Cu	0.39006 0.32858 0.75267 0.93900
Cu	Cu	0.33642 0.34703 0.66349 0.90900
Cu	Cu	0.35056 0.38768 0.79778 0.91000
Cu	Cu	0.39606 0.37319 0.89242 0.91100
C 	C 	0.43988 0.34499 0.80941 0.32400
O 	O 	0.38644 0.28873 0.82597 -0.32200
C 	C 	0.29752 0.37757 0.74587 0.32900
O 	O 	0.38690 0.38158 0.79918 -0.63700
O 	O 	0.35233 0.33717 0.75188 -0.62300
O 	O 	0.39650 0.31656 0.65280 -0.31800
O 	O 	0.36642 0.35667 0.61444 -0.40100
O 	O 	0.42965 0.34963 0.87153 -0.34800
O 	O 	0.35195 0.43616 0.84259 -0.33600
C 	C 	0.36581 0.44390 0.89811 0.32500
C 	C 	0.37371 0.29423 0.88362 0.31700
O 	O 	0.36826 0.32843 0.90348 -0.35200
O 	O 	0.37815 0.41746 0.93236 -0.35300
O 	O 	0.42668 0.32999 0.75792 -0.32100
C 	C 	0.38174 0.32864 0.60270 0.34100
O 	O 	0.31449 0.39986 0.77547 -0.34400
O 	O 	0.30471 0.34817 0.71024 -0.37100
H 	H 	0.39631 0.40228 0.77665 0.19400
H 	H 	0.34266 0.31826 0.77856 0.20400
Cu	Cu	0.59973 0.37669 0.81108 0.93700
Cu	Cu	0.65574 0.42128 0.78792 0.88400
Cu	Cu	0.64063 0.35618 0.70407 0.90300
Cu	Cu	0.59289 0.30969 0.70884 0.91600
C 	C 	0.54897 0.35070 0.77605 0.33100
O 	O 	0.59888 0.33104 0.87275 -0.32600
C 	C 	0.69440 0.37179 0.73122 0.32000
O 	O 	0.60423 0.35973 0.70761 -0.64100
O 	O 	0.63771 0.37448 0.80215 -0.63400
O 	O 	0.59520 0.42829 0.84889 -0.31700
O 	O 	0.62776 0.45460 0.78796 -0.39900
O 	O 	0.55883 0.31905 0.75233 -0.34000
O 	O 	0.64104 0.33944 0.60803 -0.34000
C 	C 	0.62592 0.31273 0.58456 0.32900
C 	C 	0.61074 0.30015 0.85585 0.32800
O 	O 	0.61868 0.29537 0.79220 -0.35600
O 	O 	0.61246 0.29174 0.62717 -0.35700
O 	O 	0.56337 0.37824 0.80011 -0.32800
C 	C 	0.61179 0.45540 0.84036 0.32800
O 	O 	0.67739 0.34758 0.70772 -0.34200
O 	O 	0.68838 0.39659 0.77944 -0.37700
H 	H 	0.59652 0.37549 0.67094 0.19400
H 	H 	0.64650 0.35776 0.83536 0.20600
Cu	Cu	0.39087 0.86360 0.60906 0.93200
Cu	Cu	0.33309 0.90308 0.60541 0.90500
Cu	Cu	0.34711 0.84319 0.71117 0.90800
Cu	Cu	0.40038 0.80788 0.73640 0.91800
C 	C 	0.44163 0.84583 0.66409 0.31900
O 	O 	0.39515 0.81643 0.55424 -0.34000
C 	C 	0.29428 0.86097 0.67147 0.32100
O 	O 	0.38288 0.85250 0.71485 -0.63400
O 	O 	0.35274 0.85703 0.61062 -0.62500
O 	O 	0.39395 0.91322 0.56069 -0.32400
O 	O 	0.35972 0.93825 0.61606 -0.39200
O 	O 	0.43273 0.83465 0.72440 -0.34500
O 	O 	0.34446 0.83300 0.81024 -0.34100
C 	C 	0.36003 0.80954 0.84169 0.33000
C 	C 	0.39414 0.78287 0.58095 0.32700
O 	O 	0.38629 0.77806 0.64499 -0.34000
O 	O 	0.37572 0.78848 0.80571 -0.36000
O 	O 	0.42775 0.86769 0.62291 -0.31600
C 	C 	0.37753 0.94066 0.56859 0.32800
O 	O 	0.30965 0.83975 0.70883 -0.33800
O 	O 	0.30194 0.87562 0.61247 -0.36400
H 	H 	0.38717 0.87330 0.74668 0.18900
H 	H 	0.34645 0.83734 0.57883 0.19700
Cu	Cu	0.60134 0.82749 0.67417 0.93600
Cu	Cu	0.64466 0.87886 0.75386 0.89600
Cu	Cu	0.63743 0.87875 0.59846 0.91200
Cu	Cu	0.58770 0.86356 0.52634 0.91700
C 	C 	0.55021 0.83243 0.62226 0.33000
O 	O 	0.60880 0.78657 0.60407 -0.32400
C 	C 	0.68673 0.88684 0.65763 0.33100
O 	O 	0.60066 0.87708 0.61440 -0.63200
O 	O 	0.63737 0.84347 0.67783 -0.63200
O 	O 	0.59754 0.81671 0.77465 -0.32500
O 	O 	0.61497 0.87192 0.80764 -0.39400
O 	O 	0.55898 0.83205 0.55849 -0.34600
O 	O 	0.63845 0.91055 0.51579 -0.33600
C 	C 	0.61871 0.92852 0.48949 0.32700
C 	C 	0.61925 0.79231 0.54269 0.31400
O 	O 	0.62004 0.82614 0.51578 -0.36900
O 	O 	0.59589 0.91319 0.48795 -0.34800
O 	O 	0.56486 0.82198 0.67423 -0.32400
C 	C 	0.60727 0.83815 0.82289 0.34000
O 	O 	0.67435 0.87977 0.59968 -0.33100
O 	O 	0.67466 0.90094 0.71146 -0.37900
H 	H 	0.59359 0.90016 0.63522 0.18700
H 	H 	0.64979 0.82280 0.67290 0.20900
Cu	Cu	0.38725 0.14451 0.34594 0.93400
Cu	Cu	0.33664 0.09315 0.30447 0.89000
Cu	Cu	0.34616 0.16394 0.23919 0.90100
Cu	Cu	0.39131 0.21367 0.24428 0.91900
C 	C 	0.43495 0.17311 0.29942 0.31000
O 	O 	0.38494 0.19106 0.40562 -0.33000
C 	C 	0.29418 0.13915 0.25673 0.32100
O 	O 	0.38246 0.16225 0.24189 -0.64100
O 	O 	0.34953 0.14178 0.33421 -0.63400
O 	O 	0.39293 0.09452 0.38985 -0.31900
O 	O 	0.36658 0.06363 0.31583 -0.38900
O 	O 	0.42376 0.20587 0.29468 -0.33500
O 	O 	0.34428 0.18196 0.14421 -0.34300
C 	C 	0.35930 0.20803 0.11796 0.33100
C 	C 	0.37089 0.21997 0.38829 0.32600
O 	O 	0.36330 0.22380 0.32404 -0.35900
O 	O 	0.37380 0.22916 0.15777 -0.35300
O 	O 	0.42394 0.14627 0.33592 -0.31600
C 	C 	0.37951 0.06467 0.37414 0.32700
O 	O 	0.30939 0.16769 0.24395 -0.34500
O 	O 	0.30174 0.11076 0.29570 -0.36400
H 	H 	0.39044 0.14756 0.20413 0.18800
H 	H 	0.33895 0.15452 0.36960 0.21100
Cu	Cu	0.59272 0.18968 0.22153 0.94000
Cu	Cu	0.64524 0.17249 0.12737 0.90800
Cu	Cu	0.63248 0.13035 0.26065 0.91000
Cu	Cu	0.58827 0.14339 0.35993 0.91200
C 	C 	0.54372 0.17350 0.28231 0.32600
O 	O 	0.59676 0.22839 0.29704 -0.32000
C 	C 	0.68485 0.14148 0.20674 0.33100
O 	O 	0.59629 0.13629 0.26552 -0.63700
O 	O 	0.63037 0.18150 0.21749 -0.62400
O 	O 	0.58525 0.20320 0.12291 -0.31700
O 	O 	0.61469 0.16328 0.08053 -0.40500
O 	O 	0.55490 0.16895 0.34320 -0.34400
O 	O 	0.63151 0.08126 0.30228 -0.34000
C 	C 	0.61885 0.07253 0.35933 0.32900
C 	C 	0.61024 0.22213 0.35327 0.31600
O 	O 	0.61633 0.18774 0.37041 -0.35300
O 	O 	0.60630 0.09799 0.39572 -0.35000
O 	O 	0.55637 0.18701 0.22848 -0.32400
C 	C 	0.59925 0.19143 0.07101 0.34100
O 	O 	0.66802 0.11836 0.23436 -0.35000
O 	O 	0.67752 0.17083 0.17113 -0.37200
H 	H 	0.58662 0.11586 0.24290 0.19300
H 	H 	0.64032 0.20005 0.24426 0.20500
Cu	Cu	0.09579 0.86928 0.83529 0.93700
Cu	Cu	0.15166 0.91706 0.83085 0.89800
Cu	Cu	0.13554 0.85930 0.71945 0.91100
Cu	Cu	0.09053 0.80576 0.72352 0.91500
C 	C 	0.04618 0.84369 0.79000 0.32300
O 	O 	0.09760 0.82122 0.89051 -0.32500
C 	C 	0.18890 0.87716 0.75322 0.33000
O 	O 	0.09938 0.85672 0.72936 -0.63800
O 	O 	0.13369 0.87023 0.82189 -0.62900
O 	O 	0.08978 0.91942 0.87878 -0.31700
O 	O 	0.12296 0.94859 0.82494 -0.39500
O 	O 	0.05656 0.81186 0.76928 -0.33900
O 	O 	0.13415 0.84769 0.62137 -0.33900
C 	C 	0.12147 0.81871 0.59663 0.32700
C 	C 	0.11080 0.79239 0.86878 0.32400
O 	O 	0.11760 0.79013 0.80357 -0.35200
O 	O 	0.11052 0.79421 0.63828 -0.35900
O 	O 	0.05916 0.86794 0.82817 -0.32100
C 	C 	0.10552 0.94791 0.87373 0.32500
O 	O 	0.17138 0.87387 0.70441 -0.35300
O 	O 	0.18309 0.89104 0.81451 -0.37100
H 	H 	0.08998 0.87304 0.69666 0.19600
H 	H 	0.14275 0.85049 0.84781 0.19700
Cu	Cu	0.88735 0.84051 0.71542 0.93800
Cu	Cu	0.84317 0.87154 0.61119 0.89100
Cu	Cu	0.84578 0.89781 0.74823 0.89800
Cu	Cu	0.89337 0.89838 0.83742 0.91900
C 	C 	0.93670 0.85693 0.77381 0.32900
O 	O 	0.88140 0.81056 0.80403 -0.32400
C 	C 	0.79585 0.88503 0.68113 0.32800
O 	O 	0.88315 0.89736 0.74364 -0.63300
O 	O 	0.85052 0.84898 0.70110 -0.63300
O 	O 	0.89409 0.81858 0.62209 -0.32200
O 	O 	0.87588 0.86872 0.57096 -0.40400
O 	O 	0.92499 0.86762 0.83094 -0.34400
O 	O 	0.84085 0.94459 0.79974 -0.33800
C 	C 	0.85548 0.95646 0.85097 0.33000
C 	C 	0.86791 0.82373 0.85635 0.32200
O 	O 	0.86273 0.85956 0.85938 -0.36600
O 	O 	0.87998 0.94888 0.85200 -0.35900
O 	O 	0.92390 0.84179 0.72203 -0.32900
C 	C 	0.88687 0.83605 0.56563 0.34200
O 	O 	0.80849 0.89726 0.73623 -0.34500
O 	O 	0.80751 0.86873 0.62867 -0.37000
H 	H 	0.89074 0.91679 0.71345 0.18700
H 	H 	0.83869 0.82918 0.71706 0.21900
Cu	Cu	0.09330 0.14952 0.09943 0.93800
Cu	Cu	0.14831 0.10120 0.11177 0.88600
Cu	Cu	0.13637 0.16664 0.20162 0.90500
Cu	Cu	0.09000 0.21562 0.20603 0.91500
C 	C 	0.04425 0.17662 0.14632 0.33000
O 	O 	0.09240 0.19601 0.04016 -0.32700
C 	C 	0.18864 0.14565 0.17203 0.32000
O 	O 	0.09999 0.16499 0.20274 -0.64100
O 	O 	0.13149 0.14958 0.10340 -0.63100
O 	O 	0.08682 0.09863 0.06030 -0.31900
O 	O 	0.11907 0.07097 0.11989 -0.40300
O 	O 	0.05524 0.20825 0.16584 -0.34000
O 	O 	0.13893 0.18100 0.29824 -0.34100
C 	C 	0.12514 0.20790 0.32638 0.33000
C 	C 	0.10534 0.22613 0.05613 0.32600
O 	O 	0.11433 0.23034 0.11910 -0.35500
O 	O 	0.11097 0.23036 0.28802 -0.35700
O 	O 	0.05721 0.14962 0.11521 -0.32800
C 	C 	0.10227 0.07021 0.06959 0.32900
O 	O 	0.17321 0.17212 0.19473 -0.34200
O 	O 	0.18172 0.12334 0.12077 -0.37700
H 	H 	0.09263 0.14907 0.23971 0.19500
H 	H 	0.14009 0.16633 0.06994 0.20500
Cu	Cu	0.88401 0.18930 0.18001 0.93700
Cu	Cu	0.83409 0.16871 0.27545 0.90500
Cu	Cu	0.84540 0.12720 0.14712 0.90400
Cu	Cu	0.89392 0.13129 0.05974 0.91700
C 	C 	0.93471 0.17260 0.13348 0.32700
O 	O 	0.88084 0.21885 0.09021 -0.32400
C 	C 	0.79264 0.13940 0.19948 0.32800
O 	O 	0.88222 0.13209 0.15258 -0.63000
O 	O 	0.84686 0.17952 0.18357 -0.63300
O 	O 	0.88788 0.21186 0.27434 -0.32600
O 	O 	0.86521 0.16511 0.32362 -0.40200
O 	O 	0.92489 0.16260 0.07333 -0.34600
O 	O 	0.84518 0.07782 0.10505 -0.34000
C 	C 	0.85777 0.06948 0.04791 0.32800
C 	C 	0.86864 0.20563 0.03576 0.31500
O 	O 	0.86363 0.16975 0.03195 -0.35700
O 	O 	0.88158 0.08025 0.03966 -0.35400
O 	O 	0.92053 0.18899 0.18113 -0.32700
C 	C 	0.87911 0.19523 0.33014 0.34000
O 	O 	0.80863 0.11861 0.16293 -0.34800
O 	O 	0.80070 0.16710 0.23847 -0.36900
H 	H 	0.89057 0.11388 0.18389 0.19100
H 	H 	0.83619 0.19721 0.15676 0.20600
Cu	Cu	0.10544 0.68773 0.23549 0.93900
Cu	Cu	0.16133 0.67407 0.15618 0.91200
Cu	Cu	0.14607 0.63379 0.29160 0.91000
Cu	Cu	0.09805 0.64672 0.37774 0.91300
C 	C 	0.05493 0.67083 0.28569 0.32900
O 	O 	0.10477 0.72954 0.30612 -0.32300
C 	C 	0.19939 0.64637 0.24353 0.32900
O 	O 	0.10967 0.63653 0.28709 -0.63700
O 	O 	0.14324 0.68326 0.24159 -0.62600
O 	O 	0.10069 0.69761 0.13445 -0.32300
O 	O 	0.13327 0.66014 0.10166 -0.40000
O 	O 	0.06411 0.66778 0.34948 -0.34100
O 	O 	0.14543 0.58627 0.34026 -0.34100
C 	C 	0.13090 0.57937 0.39494 0.32800
C 	C 	0.11663 0.72675 0.36579 0.31900
O 	O 	0.12376 0.69386 0.38849 -0.35700
O 	O 	0.11748 0.60604 0.42521 -0.35300
O 	O 	0.06945 0.68122 0.23307 -0.33000
C 	C 	0.11627 0.68552 0.08630 0.34100
O 	O 	0.18297 0.62431 0.27595 -0.34300
O 	O 	0.19164 0.67576 0.20891 -0.37000
H 	H 	0.10155 0.61450 0.26517 0.19200
H 	H 	0.15127 0.70374 0.26827 0.20400
Cu	Cu	0.89698 0.65694 0.31538 0.93400
Cu	Cu	0.84452 0.60910 0.28572 0.89600
Cu	Cu	0.85587 0.67963 0.21019 0.90200
Cu	Cu	0.90672 0.71737 0.19788 0.92100
C 	C 	0.94658 0.67670 0.26820 0.31700
O 	O 	0.89735 0.70815 0.36062 -0.33300
C 	C 	0.80367 0.65442 0.23304 0.31800
O 	O 	0.89224 0.66912 0.20862 -0.63200
O 	O 	0.85940 0.65783 0.30570 -0.63600
O 	O 	0.89968 0.61015 0.37171 -0.32300
O 	O 	0.87330 0.57756 0.30033 -0.38900
O 	O 	0.93676 0.70970 0.25693 -0.34200
O 	O 	0.85238 0.70432 0.11897 -0.33900
C 	C 	0.86993 0.72502 0.08814 0.33100
C 	C 	0.88411 0.73677 0.33696 0.31700
O 	O 	0.87885 0.73929 0.27035 -0.35600
O 	O 	0.89420 0.72098 0.10274 -0.35700
O 	O 	0.93359 0.65228 0.30538 -0.32000
C 	C 	0.88657 0.57978 0.35796 0.33000
O 	O 	0.81876 0.68215 0.21421 -0.34000
O 	O 	0.81079 0.63028 0.28102 -0.35600
H 	H 	0.89755 0.65029 0.17384 0.18300
H 	H 	0.85019 0.67195 0.34199 0.20900
Cu	Cu	0.09914 0.33126 0.68669 0.93900
Cu	Cu	0.14649 0.35211 0.80086 0.90500
Cu	Cu	0.14092 0.39004 0.65798 0.91000
Cu	Cu	0.10419 0.37005 0.53913 0.91300
C 	C 	0.05469 0.34824 0.60263 0.32100
O 	O 	0.10766 0.28718 0.62551 -0.31500
C 	C 	0.18964 0.38115 0.73243 0.32800
O 	O 	0.10597 0.38186 0.63441 -0.63600
O 	O 	0.13627 0.34061 0.70662 -0.61900
O 	O 	0.08488 0.32484 0.78264 -0.31200
O 	O 	0.11379 0.36239 0.83420 -0.40100
O 	O 	0.06860 0.35078 0.54544 -0.34200
O 	O 	0.14215 0.43705 0.60809 -0.33800
C 	C 	0.13385 0.44005 0.54364 0.32700
C 	C 	0.12156 0.29033 0.56939 0.31700
O 	O 	0.13011 0.32324 0.55066 -0.35200
O 	O 	0.12795 0.41010 0.50716 -0.35400
O 	O 	0.06373 0.33182 0.65927 -0.31700
C 	C 	0.09764 0.33472 0.83822 0.33800
O 	O 	0.17384 0.40428 0.70062 -0.35000
O 	O 	0.18093 0.35347 0.77041 -0.37300
H 	H 	0.09484 0.40300 0.64795 0.19300
H 	H 	0.14759 0.32160 0.68549 0.20000
Cu	Cu	0.89358 0.37589 0.57588 0.93600
Cu	Cu	0.84214 0.42157 0.62051 0.88800
Cu	Cu	0.85517 0.35132 0.68544 0.90000
Cu	Cu	0.90803 0.31809 0.69294 0.91800
C 	C 	0.94599 0.35888 0.60736 0.33000
O 	O 	0.89419 0.32485 0.53037 -0.33100
C 	C 	0.80153 0.37183 0.66620 0.32000
O 	O 	0.89134 0.36457 0.68303 -0.63400
O 	O 	0.85641 0.37383 0.59108 -0.63900
O 	O 	0.89377 0.42364 0.52299 -0.32800
O 	O 	0.87065 0.45368 0.60586 -0.39500
O 	O 	0.93792 0.32659 0.63154 -0.34600
O 	O 	0.85375 0.32596 0.77622 -0.33500
C 	C 	0.87242 0.30650 0.80496 0.33000
C 	C 	0.88308 0.29528 0.55758 0.31900
O 	O 	0.87980 0.29288 0.62509 -0.35700
O 	O 	0.89637 0.31294 0.78901 -0.35700
O 	O 	0.93001 0.38265 0.57820 -0.32500
C 	C 	0.88263 0.45403 0.54604 0.33400
O 	O 	0.81812 0.34522 0.68181 -0.33800
O 	O 	0.80817 0.40113 0.62839 -0.36800
H 	H 	0.89646 0.38428 0.71630 0.18400
H 	H 	0.84629 0.36045 0.55560 0.21300
C 	C 	0.98831 0.38546 0.63918 0.10700
C 	C 	0.97351 0.36316 0.59455 -0.09100
C 	C 	0.98559 0.33951 0.54636 0.11100
C 	C 	0.01210 0.33372 0.54998 0.10900
C 	C 	0.02691 0.35453 0.59744 -0.09000
C 	C 	0.01507 0.38148 0.64008 0.10700
Br	Br	0.03550 0.41299 0.69931 -0.16500
Br	Br	0.97185 0.42075 0.70009 -0.15200
Br	Br	0.02763 0.29508 0.49427 -0.12600
Br	Br	0.96571 0.31522 0.47525 -0.12400
C 	C 	0.90831 0.53389 0.43768 0.10700
C 	C 	0.88558 0.54887 0.40952 -0.10200
C 	C 	0.86178 0.53511 0.43267 0.10700
C 	C 	0.86079 0.50370 0.47658 0.10800
C 	C 	0.88348 0.48857 0.50405 -0.10500
C 	C 	0.90714 0.50468 0.48665 0.11000
Br	Br	0.93789 0.48746 0.53165 -0.12800
Br	Br	0.94108 0.55253 0.40854 -0.11600
Br	Br	0.82841 0.48015 0.49573 -0.21500
Br	Br	0.83070 0.56135 0.41029 -0.22900
C 	C 	0.15502 0.53193 0.46423 0.10700
C 	C 	0.13254 0.54269 0.42932 -0.09600
C 	C 	0.11058 0.52025 0.43400 0.10400
C 	C 	0.11041 0.48886 0.47764 0.10700
C 	C 	0.13317 0.47684 0.50943 -0.09900
C 	C 	0.15564 0.49819 0.50188 0.10900
Br	Br	0.18746 0.48060 0.54026 -0.12100
Br	Br	0.18454 0.56403 0.46300 -0.12400
Br	Br	0.07870 0.46344 0.49697 -0.19000
Br	Br	0.08124 0.53135 0.37750 -0.16300
C 	C 	0.01507 0.70236 0.24571 0.11000
C 	C 	0.02708 0.67096 0.27574 -0.09100
C 	C 	0.01275 0.63814 0.28797 0.10300
C 	C 	0.98644 0.63761 0.27322 0.11400
C 	C 	0.97420 0.67102 0.25441 -0.09900
C 	C 	0.98912 0.70081 0.22908 0.11200
Br	Br	0.97588 0.73361 0.15820 -0.15600
Br	Br	0.03368 0.74813 0.22998 -0.11100
Br	Br	0.96968 0.59069 0.25622 -0.13600
Br	Br	0.02912 0.59384 0.32292 -0.15300
C 	C 	0.89888 0.21424 0.44246 0.11300
C 	C 	0.87826 0.21612 0.39583 -0.11200
C 	C 	0.85698 0.23879 0.41140 0.11000
C 	C 	0.85691 0.26054 0.47209 0.10500
C 	C 	0.87886 0.26232 0.51368 -0.09300
C 	C 	0.89910 0.23724 0.50175 0.11000
Br	Br	0.92708 0.23470 0.56647 -0.14000
Br	Br	0.92709 0.18112 0.42386 -0.12400
Br	Br	0.82666 0.28744 0.49911 -0.16100
Br	Br	0.82892 0.24245 0.34703 -0.23200
C 	C 	0.87611 0.21806 0.90929 0.11500
C 	C 	0.86567 0.22943 0.97353 -0.09000
C 	C 	0.85468 0.26530 0.97959 0.11100
C 	C 	0.85678 0.29100 0.92447 0.11300
C 	C 	0.86668 0.27919 0.86008 -0.09500
C 	C 	0.87446 0.24184 0.85151 0.10600
Br	Br	0.88296 0.22334 0.76036 -0.15900
Br	Br	0.89587 0.17267 0.90233 -0.17700
Br	Br	0.84850 0.34286 0.93951 -0.13300
Br	Br	0.83616 0.27879 0.06235 -0.15600
C 	C 	0.10622 0.23261 0.50760 0.10300
C 	C 	0.12636 0.25732 0.52469 -0.09300
C 	C 	0.14944 0.25489 0.48746 0.10400
C 	C 	0.15012 0.23567 0.42376 0.11000
C 	C 	0.12822 0.21662 0.40040 -0.09800
C 	C 	0.10725 0.21233 0.44513 0.10600
Br	Br	0.07946 0.17991 0.41891 -0.16300
Br	Br	0.07780 0.22529 0.56984 -0.11200
Br	Br	0.18029 0.23756 0.36663 -0.12800
Br	Br	0.18012 0.27653 0.52523 -0.14100
C 	C 	0.08940 0.31522 0.96052 0.11600
C 	C 	0.10038 0.30765 0.89536 -0.12400
C 	C 	0.11528 0.27519 0.88605 0.09600
C 	C 	0.11939 0.25073 0.94194 0.11400
C 	C 	0.10698 0.25685 0.00559 -0.10300
C 	C 	0.09243 0.28962 0.01546 0.10600
Br	Br	0.07587 0.29876 0.10325 -0.17400
Br	Br	0.06955 0.36006 0.97373 -0.13100
Br	Br	0.14234 0.20893 0.93172 -0.16100
Br	Br	0.12930 0.26332 0.79621 -0.22600
C 	C 	0.00251 0.15285 0.18973 0.10600
C 	C 	0.01626 0.17549 0.14315 -0.09300
C 	C 	0.00319 0.19813 0.09506 0.10900
C 	C 	0.97639 0.19896 0.09497 0.11000
C 	C 	0.96261 0.17514 0.13954 -0.09500
C 	C 	0.97567 0.15237 0.18743 0.10600
Br	Br	0.95675 0.12009 0.24899 -0.15700
Br	Br	0.02048 0.12299 0.25725 -0.14700
Br	Br	0.95853 0.23401 0.03627 -0.13300
Br	Br	0.02204 0.22684 0.02744 -0.13000
C 	C 	0.86268 0.79155 0.49072 0.10500
C 	C 	0.88410 0.81483 0.50071 -0.11600
C 	C 	0.90259 0.81805 0.44815 0.11200
C 	C 	0.90087 0.79547 0.38850 0.10700
C 	C 	0.88079 0.76952 0.38197 -0.09300
C 	C 	0.86065 0.76998 0.43002 0.10400
Br	Br	0.83026 0.74128 0.41213 -0.16100
Br	Br	0.83679 0.78782 0.56151 -0.21300
Br	Br	0.92623 0.79934 0.31641 -0.14400
Br	Br	0.93066 0.85242 0.45904 -0.12800
C 	C 	0.85225 0.76509 0.91332 0.10700
C 	C 	0.86418 0.80034 0.91875 -0.09500
C 	C 	0.87386 0.81221 0.98350 0.12100
C 	C 	0.87061 0.78957 0.04218 0.10300
C 	C 	0.86258 0.75233 0.03452 -0.10000
C 	C 	0.85253 0.74035 0.97037 0.11600
Br	Br	0.84027 0.68989 0.95967 -0.14400
Br	Br	0.83508 0.75115 0.82868 -0.14400
Br	Br	0.87776 0.80917 0.13335 -0.15900
Br	Br	0.89514 0.85610 0.99011 -0.17900
C 	C 	0.84599 0.00333 0.02132 0.10600
C 	C 	0.84748 0.04101 0.00044 -0.09900
C 	C 	0.84354 0.05031 0.93026 0.10700
C 	C 	0.84333 0.02200 0.87959 0.11100
C 	C 	0.84559 0.98439 0.90001 -0.09600
C 	C 	0.84399 0.97511 0.97079 0.10700
Br	Br	0.83937 0.92375 0.99790 -0.14800
Br	Br	0.84845 0.99021 0.11812 -0.13800
Br	Br	0.84132 0.03472 0.78257 -0.13600
Br	Br	0.83882 0.10181 0.90400 -0.14500
C 	C 	0.09758 0.77977 0.43278 0.10600
C 	C 	0.11939 0.75986 0.41073 -0.09800
C 	C 	0.14351 0.76926 0.43807 0.10700
C 	C 	0.14518 0.79381 0.49502 0.10800
C 	C 	0.12282 0.80986 0.52243 -0.09600
C 	C 	0.09988 0.80668 0.48541 0.10300
Br	Br	0.07105 0.83705 0.51144 -0.16000
Br	Br	0.06418 0.76661 0.39877 -0.13400
Br	Br	0.17771 0.80374 0.53787 -0.13000
Br	Br	0.17405 0.74848 0.39773 -0.16000
C 	C 	0.10360 0.72725 0.91057 0.10900
C 	C 	0.11658 0.76162 0.91683 -0.09800
C 	C 	0.13289 0.76787 0.97369 0.11600
C 	C 	0.13408 0.74165 0.02776 0.10500
C 	C 	0.11973 0.70841 0.02379 -0.12300
C 	C 	0.10558 0.70037 0.96363 0.12000
Br	Br	0.08830 0.65302 0.95514 -0.13600
Br	Br	0.08181 0.71805 0.83170 -0.16700
Br	Br	0.15406 0.75245 0.10945 -0.24800
Br	Br	0.15343 0.81251 0.97786 -0.17400
C 	C 	0.10254 0.01640 0.89985 0.10500
C 	C 	0.10362 0.97919 0.92371 -0.11000
C 	C 	0.10372 0.97195 0.99578 0.10700
C 	C 	0.10113 0.00164 0.04319 0.10000
C 	C 	0.10220 0.03887 0.01946 -0.11800
C 	C 	0.10387 0.04611 0.94753 0.10400
Br	Br	0.11046 0.09611 0.91434 -0.17000
Br	Br	0.09745 0.02678 0.80260 -0.13600
Br	Br	0.09458 0.99116 0.13976 -0.13900
Br	Br	0.10964 0.92196 0.02989 -0.17600
C 	C 	0.00256 0.82515 0.82922 0.10800
C 	C 	0.01820 0.84742 0.78647 -0.09100
C 	C 	0.00706 0.87204 0.73812 0.10500
C 	C 	0.98030 0.87471 0.73308 0.10600
C 	C 	0.96467 0.85236 0.77570 -0.09400
C 	C 	0.97585 0.82687 0.82254 0.11000
Br	Br	0.95457 0.79319 0.87526 -0.12900
Br	Br	0.01777 0.79310 0.89839 -0.11900
Br	Br	0.96501 0.90929 0.66850 -0.15400
Br	Br	0.02851 0.90166 0.67818 -0.15900
C 	C 	0.72589 0.12735 0.26667 0.11000
C 	C 	0.71187 0.13073 0.20472 -0.09900
C 	C 	0.72450 0.12817 0.14036 0.11100
C 	C 	0.75125 0.12990 0.13778 0.10900
C 	C 	0.76534 0.13004 0.20004 -0.09700
C 	C 	0.75264 0.12524 0.26393 0.11000
Br	Br	0.77189 0.11459 0.34691 -0.16800
Br	Br	0.70866 0.12777 0.35516 -0.13200
Br	Br	0.76830 0.13486 0.04948 -0.14400
Br	Br	0.70513 0.12097 0.05630 -0.18200
C 	C 	0.26085 0.14558 0.16483 0.10500
C 	C 	0.26714 0.14165 0.23561 -0.09400
C 	C 	0.24758 0.14072 0.28581 0.10900
C 	C 	0.22186 0.14066 0.26471 0.10500
C 	C 	0.21562 0.14609 0.19421 -0.09700
C 	C 	0.23525 0.15043 0.14487 0.10900
Br	Br	0.22731 0.16586 0.05140 -0.13700
Br	Br	0.28702 0.14152 0.09485 -0.16200
Br	Br	0.19534 0.13070 0.33165 -0.16200
Br	Br	0.25588 0.14203 0.38333 -0.12900
C 	C 	0.47507 0.20091 0.25001 0.11000
C 	C 	0.46211 0.16963 0.27731 -0.09400
C 	C 	0.47596 0.13641 0.28843 0.11200
C 	C 	0.50281 0.13792 0.29232 0.10500
C 	C 	0.51565 0.17187 0.27880 -0.09300
C 	C 	0.50158 0.20347 0.25747 0.11000
Br	Br	0.51815 0.25094 0.24268 -0.11100
Br	Br	0.45793 0.23469 0.18740 -0.16000
Br	Br	0.52195 0.09335 0.31385 -0.17600
Br	Br	0.45935 0.08882 0.27701 -0.13400
C 	C 	0.75519 0.91962 0.66324 0.10500
C 	C 	0.76784 0.88625 0.68096 -0.09400
C 	C 	0.75390 0.85287 0.68839 0.11000
C 	C 	0.72749 0.85255 0.67571 0.10600
C 	C 	0.71478 0.88593 0.65831 -0.09500
C 	C 	0.72870 0.91940 0.65127 0.11000
Br	Br	0.71152 0.96468 0.62363 -0.12300
Br	Br	0.77426 0.96552 0.65472 -0.15000
Br	Br	0.70870 0.80635 0.68165 -0.15200
Br	Br	0.77103 0.80774 0.71743 -0.13400
C 	C 	0.63165 0.99569 0.48928 0.11100
C 	C 	0.62284 0.96411 0.45272 -0.09600
C 	C 	0.61565 0.96759 0.38254 0.11300
C 	C 	0.61400 0.00319 0.35195 0.10500
C 	C 	0.62218 0.03491 0.38914 -0.09400
C 	C 	0.63264 0.03065 0.45607 0.10700
Br	Br	0.64965 0.07207 0.50044 -0.12900
Br	Br	0.64052 0.99167 0.58615 -0.17400
Br	Br	0.59903 0.00869 0.26105 -0.15800
Br	Br	0.60926 0.92351 0.32758 -0.14800
C 	C 	0.23173 0.90458 0.72757 0.11200
C 	C 	0.21601 0.87280 0.73414 -0.09700
C 	C 	0.22590 0.83707 0.71930 0.11100
C 	C 	0.25132 0.83319 0.69642 0.11100
C 	C 	0.26727 0.86486 0.69214 -0.09500
C 	C 	0.25750 0.90048 0.70866 0.10500
Br	Br	0.27971 0.94353 0.70769 -0.19500
Br	Br	0.21765 0.95388 0.74135 -0.17400
Br	Br	0.26381 0.78490 0.66759 -0.11700
Br	Br	0.20483 0.79341 0.73222 -0.15000
C 	C 	0.40044 0.99343 0.50952 0.11100
C 	C 	0.37785 0.97283 0.51980 -0.10700
C 	C 	0.35588 0.98202 0.48100 0.11100
C 	C 	0.35588 0.01387 0.43816 0.10700
C 	C 	0.37914 0.03206 0.42236 -0.10100
C 	C 	0.40169 0.02049 0.45651 0.10600
Br	Br	0.43452 0.03892 0.42731 -0.11500
Br	Br	0.42885 0.98719 0.57167 -0.12100
Br	Br	0.32372 0.03487 0.40914 -0.23600
Br	Br	0.32660 0.94943 0.48094 -0.24800
C 	C 	0.48462 0.87477 0.64456 0.11100
C 	C 	0.46941 0.84249 0.65218 -0.08700
C 	C 	0.48124 0.80706 0.65680 0.10900
C 	C 	0.50771 0.80370 0.64645 0.11500
C 	C 	0.52253 0.83575 0.63333 -0.09700
C 	C 	0.51091 0.87120 0.63146 0.10600
Br	Br	0.53115 0.91502 0.61209 -0.18900
Br	Br	0.47059 0.92336 0.66455 -0.11800
Br	Br	0.52362 0.75513 0.64989 -0.10500
Br	Br	0.46155 0.76340 0.68205 -0.17300
C 	C 	0.72977 0.36985 0.64401 0.10500
C 	C 	0.72159 0.36628 0.71341 -0.09500
C 	C 	0.73968 0.35954 0.76612 0.10900
C 	C 	0.76594 0.36133 0.75093 0.10100
C 	C 	0.77416 0.36581 0.68168 -0.09100
C 	C 	0.75594 0.36743 0.62789 0.10800
Br	Br	0.76667 0.36401 0.53236 -0.12500
Br	Br	0.70542 0.38068 0.57170 -0.15500
Br	Br	0.79047 0.36008 0.82544 -0.14800
Br	Br	0.72850 0.34579 0.85803 -0.13700
C 	C 	0.59766 0.27878 0.42208 0.10500
C 	C 	0.61675 0.25345 0.40013 -0.09500
C 	C 	0.64165 0.25664 0.42743 0.10600
C 	C 	0.64617 0.28027 0.48464 0.11000
C 	C 	0.62627 0.30265 0.51075 -0.09700
C 	C 	0.60339 0.30536 0.47336 0.10400
Br	Br	0.57898 0.34354 0.49726 -0.17000
Br	Br	0.56294 0.27381 0.39015 -0.12900
Br	Br	0.67894 0.28013 0.52998 -0.11900
Br	Br	0.66952 0.22978 0.38521 -0.15300
C 	C 	0.59632 0.23699 0.89433 0.11200
C 	C 	0.61154 0.26901 0.90543 -0.09900
C 	C 	0.62452 0.27356 0.96866 0.11500
C 	C 	0.62027 0.24839 0.02331 0.09800
C 	C 	0.60424 0.21717 0.01324 -0.12600
C 	C 	0.59291 0.21089 0.94815 0.11900
Br	Br	0.57214 0.16709 0.93353 -0.13100
Br	Br	0.57933 0.22963 0.80655 -0.17800
Br	Br	0.63558 0.25756 0.11276 -0.23600
Br	Br	0.64837 0.31421 0.97994 -0.15400
C 	C 	0.23164 0.38963 0.67358 0.11000
C 	C 	0.21706 0.38993 0.73492 -0.09700
C 	C 	0.22930 0.39457 0.79954 0.11100
C 	C 	0.25607 0.39238 0.80377 0.10900
C 	C 	0.27057 0.38908 0.74259 -0.09700
C 	C 	0.25837 0.39160 0.67758 0.11100
Br	Br	0.27828 0.39897 0.59456 -0.17700
Br	Br	0.21527 0.38289 0.58480 -0.14500
Br	Br	0.27262 0.39187 0.89318 -0.13000
Br	Br	0.20945 0.40515 0.88149 -0.16700
C 	C 	0.36048 0.27185 0.55484 0.10100
C 	C 	0.37615 0.30344 0.54446 -0.12300
C 	C 	0.38672 0.31044 0.47872 0.11300
C 	C 	0.38339 0.28436 0.42484 0.10900
C 	C 	0.36894 0.25163 0.43656 -0.10000
C 	C 	0.35624 0.24670 0.50011 0.10900
Br	Br	0.33304 0.20532 0.51186 -0.15900
Br	Br	0.34575 0.26210 0.64478 -0.23900
Br	Br	0.39953 0.29270 0.33619 -0.18300
Br	Br	0.40645 0.35520 0.46329 -0.13000
C 	C 	0.33799 0.24169 0.02113 0.10500
C 	C 	0.35740 0.21750 0.04411 -0.09500
C 	C 	0.37839 0.21026 0.00085 0.10100
C 	C 	0.38272 0.23275 0.94218 0.11000
C 	C 	0.36547 0.26198 0.92640 -0.09700
C 	C 	0.34174 0.26317 0.96081 0.11200
Br	Br	0.31415 0.29249 0.92319 -0.15400
Br	Br	0.30720 0.24727 0.07479 -0.12400
Br	Br	0.41198 0.22301 0.88414 -0.11600
Br	Br	0.40211 0.17120 0.02524 -0.17200
C 	C 	0.47876 0.37247 0.75439 0.10500
C 	C 	0.46788 0.34742 0.80253 -0.09300
C 	C 	0.48382 0.32510 0.84457 0.10800
C 	C 	0.51048 0.32861 0.83965 0.10900
C 	C 	0.52131 0.35203 0.78887 -0.09300
C 	C 	0.50547 0.37425 0.74669 0.10700
Br	Br	0.52036 0.40640 0.67729 -0.14400
Br	Br	0.45710 0.40482 0.70009 -0.16000
Br	Br	0.53223 0.30212 0.90382 -0.12700
Br	Br	0.46929 0.28796 0.90549 -0.11800
C 	C 	0.74146 0.62106 0.15431 0.11200
C 	C 	0.72648 0.65378 0.15790 -0.09900
C 	C 	0.73704 0.68683 0.18516 0.11100
C 	C 	0.76158 0.68632 0.21480 0.10900
C 	C 	0.77695 0.65409 0.20863 -0.09200
C 	C 	0.76705 0.62185 0.17627 0.10500
Br	Br	0.78884 0.57933 0.15920 -0.18900
Br	Br	0.72655 0.57457 0.12363 -0.18700
Br	Br	0.77301 0.72836 0.26923 -0.11700
Br	Br	0.71838 0.73314 0.17865 -0.14200
C 	C 	0.63782 0.77685 0.95645 0.11400
C 	C 	0.61677 0.77051 0.00001 -0.11000
C 	C 	0.59534 0.79421 0.99600 0.11700
C 	C 	0.59320 0.81977 0.94094 0.11200
C 	C 	0.61277 0.82220 0.89135 -0.11400
C 	C 	0.63589 0.80299 0.90225 0.10800
Br	Br	0.66451 0.81165 0.84163 -0.23300
Br	Br	0.66906 0.74944 0.97059 -0.16200
Br	Br	0.56319 0.85053 0.93178 -0.13000
Br	Br	0.56936 0.79222 0.06649 -0.16400
C 	C 	0.60935 0.73159 0.48357 0.10300
C 	C 	0.62710 0.76005 0.49994 -0.09400
C 	C 	0.65106 0.76031 0.46674 0.10500
C 	C 	0.65527 0.73703 0.40898 0.10900
C 	C 	0.63558 0.71360 0.38523 -0.09700
C 	C 	0.61428 0.70740 0.42770 0.10400
Br	Br	0.59077 0.66786 0.40496 -0.15800
Br	Br	0.57741 0.72778 0.53267 -0.11900
Br	Br	0.68727 0.73862 0.36001 -0.12400
Br	Br	0.67777 0.79275 0.49982 -0.14700
C 	C 	0.60968 0.52436 0.86360 0.10900
C 	C 	0.61177 0.48750 0.88885 -0.11200
C 	C 	0.61368 0.48122 0.96099 0.10700
C 	C 	0.61214 0.51146 0.00749 0.09500
C 	C 	0.61230 0.54841 0.98209 -0.09500
C 	C 	0.61162 0.55477 0.90973 0.09700
Br	Br	0.61534 0.60475 0.87336 -0.17000
Br	Br	0.60250 0.53328 0.76681 -0.13900
Br	Br	0.60811 0.50214 0.10548 -0.14100
Br	Br	0.62038 0.43162 0.99600 -0.16600
C 	C 	0.23731 0.63221 0.17038 0.11100
C 	C 	0.22619 0.63478 0.23680 -0.10100
C 	C 	0.24147 0.62981 0.29606 0.11200
C 	C 	0.26766 0.62305 0.28826 0.10700
C 	C 	0.27945 0.62931 0.22343 -0.09100
C 	C 	0.26401 0.63242 0.16345 0.10600
Br	Br	0.27888 0.63872 0.07256 -0.12500
Br	Br	0.21595 0.62684 0.08942 -0.19600
Br	Br	0.28679 0.60180 0.36407 -0.14900
Br	Br	0.22741 0.63700 0.38744 -0.12200
C 	C 	0.34237 0.75898 0.00326 0.09800
C 	C 	0.36666 0.75887 0.03472 -0.09300
C 	C 	0.38477 0.78625 0.01481 0.09600
C 	C 	0.37946 0.80977 0.95815 0.10800
C 	C 	0.35791 0.80304 0.91676 -0.10400
C 	C 	0.33825 0.78017 0.94265 0.11500
Br	Br	0.30650 0.77611 0.89283 -0.12700
Br	Br	0.31483 0.73101 0.04423 -0.15900
Br	Br	0.40276 0.84919 0.93301 -0.17700
Br	Br	0.41759 0.78958 0.05999 -0.13500
C 	C 	0.41978 0.71390 0.44938 0.11300
C 	C 	0.39725 0.69605 0.42822 -0.10500
C 	C 	0.37486 0.70076 0.46817 0.10400
C 	C 	0.37410 0.72817 0.52070 0.10700
C 	C 	0.39585 0.75039 0.53389 -0.09700
C 	C 	0.41866 0.74348 0.49707 0.10600
Br	Br	0.44692 0.77778 0.50327 -0.14200
Br	Br	0.45210 0.69799 0.41203 -0.11800
Br	Br	0.34247 0.73794 0.56889 -0.15400
Br	Br	0.34533 0.66986 0.45165 -0.21100
C 	C 	0.37093 0.51336 0.89282 0.10500
C 	C 	0.36359 0.48123 0.93013 -0.09000
C 	C 	0.35622 0.48456 0.00020 0.10400
C 	C 	0.36008 0.51843 0.03563 0.10400
C 	C 	0.36773 0.55054 0.99859 -0.08500
C 	C 	0.37136 0.54836 0.92611 0.10900
Br	Br	0.37491 0.59335 0.87173 -0.14000
Br	Br	0.38189 0.50923 0.79755 -0.15600
Br	Br	0.35682 0.51992 0.13534 -0.17300
Br	Br	0.33919 0.44365 0.04611 -0.13400
C 	C 	0.51467 0.69569 0.18877 0.10600
C 	C 	0.52684 0.67817 0.13206 -0.08800
C 	C 	0.51159 0.66100 0.08036 0.10500
C 	C 	0.48500 0.65931 0.08940 0.10900
C 	C 	0.47305 0.68292 0.13843 -0.09700
C 	C 	0.48837 0.70280 0.18616 0.11300
Br	Br	0.47483 0.74428 0.23839 -0.11200
Br	Br	0.53333 0.70671 0.27254 -0.16500
Br	Br	0.46566 0.62179 0.04038 -0.19700
Br	Br	0.52593 0.64471 0.99320 -0.11300
