data_crystal

_cell_length_a 16.61483
_cell_length_b 16.88503
_cell_length_c 59.21713
_cell_angle_alpha 90.03195
_cell_angle_beta  90.02342
_cell_angle_gamma 119.85209

_symmetry_space_group_name_	'P 1'
_symmetry_space_group_name_H-M	'P 1'

loop_
_symmetry_equiv_pos_as_xyz
  x,y,z

loop_
_atom_site_label
_atom_site_type_symbol
_atom_site_fract_x
_atom_site_fract_y
_atom_site_fract_z
_atom_site_charge
O 	O 	0.05678 0.19203 0.75528 -0.30700
O 	O 	0.03999 0.86897 0.79764 -0.30600
O 	O 	0.02976 0.14584 0.80554 -0.33100
H 	H 	0.01743 0.16911 0.93932 0.15800
F 	F 	0.05972 0.37751 0.41018 -0.39800
C 	C 	0.02030 0.47955 0.52433 0.06400
H 	H 	0.03521 0.47178 0.54177 0.10700
C 	C 	0.14719 0.56843 0.46901 0.27200
C 	C 	0.11377 0.55993 0.65495 0.30900
O 	O 	0.12904 0.59315 0.67571 -0.31900
C 	C 	0.13317 0.19825 0.74568 0.29700
C 	C 	0.11912 0.20082 0.80552 0.30600
C 	C 	0.10465 0.92885 0.81112 0.26400
C 	C 	0.07011 0.89908 0.74636 0.31600
Ni	Ni	0.14047 0.06536 0.77648 1.14500
O 	O 	0.15356 0.13204 0.74733 -0.31200
O 	O 	0.13862 0.95793 0.75986 -0.35200
O 	O 	0.17370 0.18658 0.79200 -0.29300
O 	O 	0.14100 0.01650 0.80732 -0.30800
Ni	Ni	0.04541 0.94104 0.21598 1.12200
Ni	Ni	0.07188 0.13298 0.23558 1.13700
O 	O 	0.13325 0.97029 0.24330 -0.32200
O 	O 	0.12284 0.16048 0.20367 -0.34900
C 	C 	0.09174 0.14842 0.97733 0.32000
C 	C 	0.11238 0.98252 0.06043 0.18100
Ni	Ni	0.12526 0.08214 0.01957 1.15600
O 	O 	0.08920 0.92258 0.97721 -0.29000
O 	O 	0.06368 0.06993 0.96713 -0.22500
O 	O 	0.08516 0.15119 0.99915 -0.26000
O 	O 	0.02158 0.95616 0.06227 -0.31300
O 	O 	0.07907 0.12952 0.04534 -0.27100
O 	O 	0.01901 0.96836 0.01311 -0.71900
H 	H 	0.04350 0.92647 0.01523 0.18000
F 	F 	0.05492 0.25816 0.34333 -0.36000
F 	F 	0.04104 0.28037 0.01690 -0.35100
C 	C 	0.09969 0.31454 0.93347 -0.07100
C 	C 	0.07555 0.23298 0.94506 0.07800
C 	C 	0.12575 0.23323 0.96411 0.05100
C 	C 	0.04720 0.31189 0.91222 0.81200
F 	F 	0.10056 0.32038 0.89350 -0.43000
F 	F 	0.02733 0.38229 0.91239 -0.40200
F 	F 	0.10242 0.65568 0.96504 -0.39200
C 	C 	0.14894 0.89731 0.82783 -0.04100
C 	C 	0.13756 0.79594 0.85846 -0.00800
C 	C 	0.09531 0.83056 0.84407 0.06700
H 	H 	0.09591 0.74400 0.87078 0.08300
C 	C 	0.14945 0.41694 0.83284 0.02100
C 	C 	0.12006 0.34366 0.81777 0.03500
C 	C 	0.15772 0.28490 0.81920 -0.00600
H 	H 	0.12010 0.46162 0.83179 0.08500
C 	C 	0.05368 0.33113 0.80038 0.13600
H 	H 	0.10005 0.20907 0.70181 0.11300
C 	C 	0.09405 0.86986 0.72507 0.02700
C 	C 	0.05113 0.77627 0.71871 -0.02500
C 	C 	0.07212 0.75391 0.69750 0.04800
H 	H 	0.03682 0.68345 0.69188 0.11700
C 	C 	0.09661 0.58981 0.36547 0.04600
C 	C 	0.08082 0.53841 0.38531 0.05700
C 	C 	0.03059 0.55753 0.34779 -0.02600
C 	C 	0.04829 0.61347 0.32645 0.78700
F 	F 	0.03616 0.55960 0.30773 -0.37700
C 	C 	0.02652 0.53759 0.64295 0.04900
C 	C 	0.02623 0.58079 0.62201 -0.05800
C 	C 	0.10907 0.62267 0.60600 0.77700
F 	F 	0.08516 0.64144 0.58507 -0.40700
C 	C 	0.09158 0.51286 0.50823 -0.00600
C 	C 	0.07216 0.52336 0.48561 0.02100
O 	O 	0.01700 0.11652 0.26665 -0.30700
H 	H 	0.02325 0.19651 0.30312 0.13000
H 	H 	0.14007 0.10831 0.09302 0.11700
F 	F 	0.11544 0.82257 0.08213 -0.41600
F 	F 	0.12755 0.35593 0.66338 -0.39000
N 	N 	0.10367 0.97600 0.14408 -0.12400
O 	O 	0.15710 0.01233 0.04123 -0.26700
F 	F 	0.02471 0.71936 0.75659 -0.38600
C 	C 	0.17257 0.97657 0.98565 0.20800
O 	O 	0.15353 0.51762 0.45260 -0.29300
O 	O 	0.13805 0.62104 0.42035 -0.30800
C 	C 	0.16284 0.26905 0.70752 0.06400
F 	F 	0.15133 0.23612 0.66113 -0.36700
O 	O 	0.01037 0.01339 0.77278 -0.68700
C 	C 	0.18437 0.53630 0.51504 0.15300
F 	F 	0.16031 0.68937 0.00021 -0.36300
F 	F 	0.13770 0.68721 0.32583 -0.37400
F 	F 	0.14119 0.56247 0.60225 -0.39200
C 	C 	0.17641 0.39741 0.94109 0.04700
O 	O 	0.16283 0.04893 0.20151 -0.33400
C 	C 	0.14909 0.57515 0.40384 0.30000
O 	O 	0.18421 0.12487 0.24785 -0.33300
C 	C 	0.18282 0.70457 0.97752 0.77500
H 	H 	0.19896 0.84469 0.00401 0.12600
O 	O 	0.18571 0.65802 0.46693 -0.33400
O 	O 	0.18391 0.57349 0.64309 -0.27200
O 	O 	0.19025 0.51528 0.87882 -0.29900
O 	O 	0.19071 0.53555 0.92530 -0.26800
C 	C 	0.16878 0.12491 0.19407 0.30400
O 	O 	0.19596 0.05878 0.99412 -0.21200
C 	C 	0.17087 0.00766 0.08079 0.17700
C 	C 	0.16578 0.04442 0.15009 0.18200
C 	C 	0.20342 0.31639 0.97145 -0.05200
C 	C 	0.18999 0.27557 0.73016 0.02900
C 	C 	0.19087 0.32700 0.66732 0.78700
C 	C 	0.15970 0.93670 0.71059 0.01000
C 	C 	0.15119 0.81784 0.68588 0.03400
H 	H 	0.15968 0.65524 0.36397 0.11000
F 	F 	0.17865 0.70404 0.61437 -0.51500
C 	C 	0.19453 0.09182 0.09032 -0.02100
H 	H 	0.02643 0.31445 0.19019 0.10800
N 	N 	0.03016 0.49248 0.15953 -0.03000
F 	F 	0.24252 0.67197 0.97274 -0.36900
Ni	Ni	0.25073 0.72538 0.43755 1.13500
Ni	Ni	0.27088 0.54525 0.43471 1.13900
O 	O 	0.21395 0.55255 0.40502 -0.31100
C 	C 	0.21323 0.78634 0.67730 0.29400
Ni	Ni	0.28207 0.70663 0.63850 1.16800
Ni	Ni	0.25853 0.64727 0.69101 1.13300
O 	O 	0.20412 0.75752 0.65583 -0.25800
O 	O 	0.25720 0.76503 0.69258 -0.31500
O 	O 	0.24454 0.52451 0.68618 -0.32800
C 	C 	0.24940 0.51286 0.86432 0.30400
C 	C 	0.22195 0.47670 0.92606 0.29900
C 	C 	0.27448 0.78523 0.87129 0.30400
C 	C 	0.27996 0.78035 0.93393 0.32000
Ni	Ni	0.21863 0.62415 0.89941 1.13800
O 	O 	0.23693 0.69614 0.87113 -0.36300
O 	O 	0.21373 0.72065 0.91991 -0.31600
O 	O 	0.28271 0.47861 0.91114 -0.31500
C 	C 	0.20097 0.05505 0.24680 0.35900
C 	C 	0.29983 0.07637 0.24634 -0.01900
F 	F 	0.21546 0.87188 0.24635 -0.41100
F 	F 	0.20054 0.92506 0.28025 -0.38000
C 	C 	0.28829 0.16172 0.09047 -0.06300
C 	C 	0.23644 0.97799 0.08244 -0.24300
C 	C 	0.20850 0.87992 0.07739 0.82300
F 	F 	0.25982 0.85298 0.09042 -0.41800
F 	F 	0.22417 0.87145 0.05482 -0.41800
F 	F 	0.23006 0.26701 0.09044 -0.40500
C 	C 	0.23671 0.17624 0.17636 -0.03000
C 	C 	0.24361 0.13003 0.15740 0.00500
C 	C 	0.22259 0.39832 0.96089 0.06700
C 	C 	0.26779 0.31834 0.98997 0.77700
H 	H 	0.27883 0.46268 0.96703 0.14900
F 	F 	0.28294 0.24533 0.98783 -0.39900
F 	F 	0.22944 0.31528 0.01089 -0.37400
C 	C 	0.22756 0.86785 0.98729 0.03300
C 	C 	0.24405 0.95371 0.98002 0.07100
C 	C 	0.29356 0.98888 0.95983 -0.15000
C 	C 	0.29363 0.92785 0.94377 0.09200
C 	C 	0.25860 0.83544 0.94926 0.00200
C 	C 	0.22730 0.80516 0.97151 -0.04500
H 	H 	0.32315 0.95244 0.92718 0.07000
C 	C 	0.33564 0.08908 0.95417 0.83500
F 	F 	0.26815 0.10519 0.94527 -0.39700
C 	C 	0.24520 0.93131 0.82688 0.00500
C 	C 	0.28752 0.89686 0.84134 0.01600
C 	C 	0.23324 0.82784 0.85704 -0.04000
H 	H 	0.28678 0.98292 0.81448 0.06800
C 	C 	0.21782 0.43393 0.84898 -0.02000
C 	C 	0.22732 0.30285 0.83503 0.02100
C 	C 	0.25718 0.37643 0.85003 0.03800
H 	H 	0.25640 0.25794 0.83613 0.09100
C 	C 	0.29207 0.42201 0.70022 0.01900
C 	C 	0.21714 0.33901 0.69210 -0.06800
C 	C 	0.27634 0.35116 0.73708 -0.08700
F 	F 	0.25662 0.36367 0.77611 -0.45000
F 	F 	0.26834 0.37683 0.65394 -0.38400
C 	C 	0.18763 0.91122 0.69073 -0.05800
C 	C 	0.26311 0.98304 0.67615 0.74900
H 	H 	0.19080 0.00824 0.71510 0.14700
F 	F 	0.26499 0.06571 0.67792 -0.33600
F 	F 	0.24781 0.95612 0.65374 -0.38000
F 	F 	0.34525 0.07055 0.42531 -0.37500
F 	F 	0.27884 0.91865 0.42714 -0.45200
C 	C 	0.26160 0.44902 0.58635 0.78300
F 	F 	0.23129 0.37854 0.57083 -0.40500
F 	F 	0.25196 0.51843 0.57670 -0.38600
F 	F 	0.20623 0.41728 0.60537 -0.35600
N 	N 	0.25872 0.55510 0.52046 -0.06200
H 	H 	0.00505 0.00711 0.75622 0.19400
C 	C 	0.26285 0.92440 0.26487 0.73800
H 	H 	0.30080 0.30344 0.19487 0.07800
C 	C 	0.31427 0.35598 0.76060 0.78900
F 	F 	0.32018 0.27858 0.76489 -0.42900
O 	O 	0.30202 0.77895 0.40621 -0.33100
C 	C 	0.31302 0.50896 0.68939 0.31800
C 	C 	0.30977 0.26052 0.08889 0.77100
F 	F 	0.28700 0.30814 0.36333 -0.37800
C 	C 	0.35923 0.99753 0.42123 0.72600
C 	C 	0.30682 0.26656 0.18057 0.01100
C 	C 	0.32520 0.42481 0.72208 0.07100
C 	C 	0.33104 0.04323 0.08577 0.15600
O 	O 	0.32537 0.67230 0.44023 -0.72600
H 	H 	0.33105 0.67328 0.45680 0.16400
F 	F 	0.30768 0.88337 0.27510 -0.36300
C 	C 	0.32597 0.39051 0.86689 0.12500
O 	O 	0.33999 0.54081 0.46198 -0.34900
O 	O 	0.33761 0.70307 0.66572 -0.72400
O 	O 	0.33834 0.56883 0.86653 -0.35400
O 	O 	0.33932 0.83545 0.88613 -0.36300
O 	O 	0.34591 0.66794 0.90524 -0.72700
H 	H 	0.34237 0.66137 0.92178 0.19700
C 	C 	0.33066 0.02119 0.25736 0.00100
C 	C 	0.32675 0.16645 0.14557 0.02400
H 	H 	0.33677 0.12428 0.13343 0.06500
F 	F 	0.35350 0.39724 0.98887 -0.36100
N 	N 	0.25181 0.77487 0.51188 -0.06700
N 	N 	0.36942 0.36678 0.43707 -0.05200
H 	H 	0.34406 0.19665 0.22578 0.06700
O 	O 	0.35195 0.84377 0.45434 -0.29000
O 	O 	0.34598 0.66241 0.61495 -0.24700
F 	F 	0.34798 0.99462 0.68290 -0.37800
C 	C 	0.32383 0.83803 0.50850 0.10700
O 	O 	0.36838 0.53535 0.41660 -0.34100
C 	C 	0.36489 0.59800 0.62019 0.32700
O 	O 	0.36635 0.57840 0.64126 -0.31600
O 	O 	0.36942 0.69209 0.71327 -0.32000
H 	H 	0.37050 0.76791 0.67016 0.19800
O 	O 	0.36862 0.80638 0.93134 -0.32500
C 	C 	0.36638 0.15846 0.23624 0.09000
C 	C 	0.35918 0.13655 0.08852 -0.02500
F 	F 	0.35029 0.29692 0.06826 -0.39200
F 	F 	0.36764 0.31253 0.10619 -0.45700
F 	F 	0.37242 0.14157 0.97340 -0.36800
H 	H 	0.34270 0.46549 0.37036 0.11700
C 	C 	0.36199 0.48474 0.59287 -0.07200
H 	H 	0.36703 0.36752 0.57972 0.10200
C 	C 	0.38595 0.84678 0.40382 0.31400
O 	O 	0.39981 0.57515 0.68653 -0.32900
O 	O 	0.39413 0.83290 0.63391 -0.29700
Ni	Ni	0.39849 0.59525 0.89809 1.12500
H 	H 	0.38257 0.02176 0.08533 0.09000
C 	C 	0.38787 0.30667 0.16741 0.04300
F 	F 	0.40649 0.11565 0.93856 -0.39400
C 	C 	0.38599 0.93049 0.83941 0.11800
N 	N 	0.38114 0.40165 0.88036 -0.08200
H 	H 	0.38473 0.48729 0.72800 0.09900
C 	C 	0.37796 0.32840 0.36034 0.78700
F 	F 	0.39057 0.26646 0.37288 -0.42300
C 	C 	0.38946 0.05966 0.38143 0.09900
C 	C 	0.38203 0.99239 0.39669 -0.11600
H 	H 	0.38186 0.11617 0.38739 0.13800
F 	F 	0.00952 0.54250 0.03100 -0.32000
N 	N 	0.00436 0.65383 0.13014 -0.02100
H 	H 	0.00764 0.15276 0.09069 0.13400
C 	C 	0.41101 0.40751 0.45276 0.12800
C 	C 	0.39935 0.25479 0.15027 -0.02000
F 	F 	0.40235 0.43067 0.76317 -0.41100
C 	C 	0.40105 0.92345 0.38899 0.01000
F 	F 	0.38900 0.01418 0.31385 -0.36700
F 	F 	0.39590 0.88644 0.31954 -0.36900
F 	F 	0.40704 0.64502 0.97330 -0.39300
F 	F 	0.39107 0.31874 0.33768 -0.44300
C 	C 	0.40511 0.43257 0.58833 0.07000
C 	C 	0.41374 0.91694 0.50433 0.06200
C 	C 	0.42293 0.85240 0.46683 0.30300
Ni	Ni	0.42170 0.79610 0.90224 1.13100
C 	C 	0.41683 0.91833 0.36590 0.07500
C 	C 	0.41256 0.56948 0.60410 0.03800
H 	H 	0.41550 0.98084 0.53603 0.08700
F 	F 	0.41621 0.09288 0.63958 -0.34000
C 	C 	0.42148 0.98506 0.35089 -0.13100
H 	H 	0.42435 0.86204 0.35962 0.10500
C 	C 	0.42428 0.59515 0.40168 0.30600
C 	C 	0.43231 0.58573 0.46303 0.27900
C 	C 	0.42704 0.05820 0.26116 0.03400
F 	F 	0.42522 0.87305 0.73828 -0.41700
C 	C 	0.41473 0.48533 0.37327 0.07100
C 	C 	0.42341 0.06359 0.35965 0.09000
F 	F 	0.43214 0.00840 0.43464 -0.39600
F 	F 	0.43251 0.78915 0.97549 -0.40900
C 	C 	0.43357 0.97698 0.32588 0.72700
Ni	Ni	0.43665 0.67854 0.66377 1.13400
O 	O 	0.44405 0.68076 0.40253 -0.31100
C 	C 	0.44650 0.42450 0.36802 -0.08000
N 	N 	0.00055 0.32114 0.78645 -0.06700
Ni	Ni	0.45249 0.74138 0.43230 1.13800
H 	H 	0.45180 0.01969 0.27062 0.15700
C 	C 	0.99991 0.45227 0.38732 -0.10900
H 	H 	0.99704 0.98341 0.24677 0.13300
O 	O 	0.99684 0.00430 0.23122 -0.66800
C 	C 	0.98504 0.39160 0.40763 0.78300
F 	F 	0.98670 0.64602 0.32533 -0.40100
F 	F 	0.99390 0.34237 0.33064 -0.42500
C 	C 	0.97305 0.25917 0.33982 0.76800
H 	H 	0.93798 0.60312 0.59944 0.10500
C 	C 	0.98161 0.50017 0.47936 -0.03700
H 	H 	0.96744 0.51205 0.46221 0.11500
O 	O 	0.98188 0.85781 0.75290 -0.31400
C 	C 	0.94075 0.56269 0.61333 0.03100
C 	C 	0.57323 0.14175 0.53238 0.26300
C 	C 	0.80169 0.42935 0.59908 0.31700
C 	C 	0.56041 0.16414 0.59365 0.33600
C 	C 	0.85524 0.41814 0.53492 0.29800
C 	C 	0.54969 0.42692 0.58252 0.32300
C 	C 	0.58450 0.42263 0.52182 0.29000
Ni	Ni	0.72393 0.27358 0.56638 1.12700
Ni	Ni	0.71846 0.45933 0.55817 1.13400
Ni	Ni	0.52911 0.26935 0.55695 1.13200
O 	O 	0.63252 0.15207 0.54897 -0.33000
O 	O 	0.52830 0.18851 0.53175 -0.33800
O 	O 	0.61327 0.47788 0.56777 -0.33700
O 	O 	0.82284 0.37882 0.58624 -0.31700
O 	O 	0.74539 0.45655 0.59151 -0.29100
O 	O 	0.51780 0.35535 0.53424 -0.34300
O 	O 	0.64308 0.23395 0.59476 -0.30200
O 	O 	0.50304 0.16101 0.57783 -0.31800
O 	O 	0.67434 0.45963 0.52670 -0.36000
O 	O 	0.81669 0.33033 0.53992 -0.33900
O 	O 	0.84414 0.47543 0.54826 -0.34600
O 	O 	0.51853 0.33833 0.58353 -0.31300
O 	O 	0.66095 0.33077 0.55497 -0.72000
H 	H 	0.66912 0.32536 0.53866 0.16700
O 	O 	0.45519 0.85039 0.41568 -0.31700
O 	O 	0.48532 0.65432 0.44891 -0.30900
O 	O 	0.47290 0.81418 0.46086 -0.35500
C 	C 	0.47990 0.84860 0.63579 0.28500
C 	C 	0.45944 0.75283 0.70919 0.30900
O 	O 	0.49459 0.76845 0.68863 -0.34100
O 	O 	0.49848 0.78060 0.63942 -0.30100
C 	C 	0.85076 0.95022 0.81335 0.24200
C 	C 	0.80760 0.91917 0.75297 0.24900
Ni	Ni	0.95620 0.08666 0.77644 1.10500
Ni	Ni	0.94296 0.88900 0.78204 1.11700
O 	O 	0.84638 0.00458 0.79807 -0.29800
O 	O 	0.91462 0.92662 0.81196 -0.37600
O 	O 	0.86406 0.00895 0.75087 -0.29700
O 	O 	0.82045 0.87134 0.76904 -0.31200
C 	C 	0.51520 0.72668 0.93408 0.30000
C 	C 	0.53185 0.75762 0.87059 0.31500
O 	O 	0.46863 0.63869 0.92868 -0.29500
O 	O 	0.52647 0.78995 0.91896 -0.33600
O 	O 	0.52376 0.69064 0.88341 -0.34500
O 	O 	0.47126 0.78542 0.87200 -0.36600
C 	C 	0.74885 0.48707 0.06539 0.28800
C 	C 	0.48940 0.28546 0.13910 0.32000
C 	C 	0.75272 0.55669 0.12805 0.31100
C 	C 	0.46109 0.20527 0.09098 0.28300
C 	C 	0.78551 0.31222 0.14828 0.33200
C 	C 	0.79565 0.26035 0.09171 0.29400
Ni	Ni	0.59937 0.40613 0.10056 1.13400
Ni	Ni	0.62334 0.23337 0.11830 1.12900
Ni	Ni	0.80309 0.42740 0.10818 1.13700
O 	O 	0.65863 0.44994 0.06898 -0.31600
O 	O 	0.80715 0.51263 0.08281 -0.30400
O 	O 	0.69619 0.27965 0.14692 -0.35400
O 	O 	0.53992 0.37055 0.13240 -0.32400
O 	O 	0.52049 0.22747 0.13804 -0.34500
O 	O 	0.81921 0.34561 0.08670 -0.30300
O 	O 	0.69212 0.53821 0.11177 -0.34100
O 	O 	0.78398 0.50073 0.13252 -0.34700
O 	O 	0.71463 0.20300 0.10188 -0.30500
O 	O 	0.49013 0.29095 0.08541 -0.27200
O 	O 	0.52241 0.17695 0.09411 -0.33500
O 	O 	0.84118 0.36853 0.13276 -0.32400
O 	O 	0.67186 0.34958 0.10430 -0.71500
H 	H 	0.66904 0.32874 0.08859 0.17100
C 	C 	0.88735 0.87556 0.18485 0.31800
C 	C 	0.86737 0.79745 0.24215 0.29800
C 	C 	0.92816 0.14445 0.20810 0.30000
C 	C 	0.92586 0.07231 0.27026 0.28300
Ni	Ni	0.86853 0.96464 0.22674 1.11200
O 	O 	0.89131 0.05774 0.20305 -0.33700
O 	O 	0.97589 0.93262 0.18644 -0.39400
O 	O 	0.83229 0.86989 0.20145 -0.32700
O 	O 	0.86640 0.04259 0.25296 -0.28800
O 	O 	0.93777 0.81369 0.22821 -0.29400
O 	O 	0.84478 0.86048 0.24720 -0.30400
O 	O 	0.98557 0.17907 0.22536 -0.36200
C 	C 	0.49649 0.15285 0.35178 0.27800
C 	C 	0.86609 0.44811 0.33549 0.34200
C 	C 	0.58313 0.40607 0.35831 0.31900
C 	C 	0.77194 0.20292 0.32500 0.29400
C 	C 	0.67439 0.45976 0.28848 0.31800
C 	C 	0.54586 0.20555 0.27635 0.28700
Ni	Ni	0.69146 0.30640 0.35256 1.12300
Ni	Ni	0.73632 0.33071 0.29883 1.13300
Ni	Ni	0.54336 0.30243 0.31678 1.15100
O 	O 	0.58092 0.17992 0.35945 -0.31100
O 	O 	0.47399 0.21230 0.34291 -0.25700
O 	O 	0.74396 0.45114 0.29551 -0.32700
O 	O 	0.79080 0.43752 0.34473 -0.33400
O 	O 	0.85844 0.40061 0.31707 -0.28700
O 	O 	0.50097 0.19985 0.29517 -0.30900
O 	O 	0.61341 0.35725 0.36883 -0.31700
O 	O 	0.58834 0.41315 0.33649 -0.29200
O 	O 	0.63698 0.26600 0.27377 -0.29800
O 	O 	0.77800 0.25140 0.34354 -0.29200
O 	O 	0.74589 0.21906 0.30515 -0.33400
O 	O 	0.58806 0.39169 0.29037 -0.29800
O 	O 	0.64779 0.28926 0.32271 -0.72400
H 	H 	0.62017 0.22277 0.32090 0.19500
C 	C 	0.80645 0.91991 0.99793 0.30800
C 	C 	0.89550 0.76309 0.01058 0.27300
C 	C 	0.99382 0.11693 0.04608 0.26900
Ni	Ni	0.98014 0.94385 0.98299 1.13000
Ni	Ni	0.92652 0.92554 0.03624 1.10700
O 	O 	0.92335 0.04119 0.03878 -0.31200
O 	O 	0.88472 0.98286 0.99021 -0.31400
O 	O 	0.80756 0.87884 0.01680 -0.31800
O 	O 	0.88955 0.80527 0.99197 -0.28200
O 	O 	0.91318 0.80249 0.03076 -0.34700
C 	C 	0.48864 0.15115 0.25697 0.05300
C 	C 	0.46146 0.19423 0.24067 -0.11800
C 	C 	0.53084 0.28288 0.22976 0.79500
F 	F 	0.61985 0.29601 0.23073 -0.43300
F 	F 	0.52777 0.35376 0.24060 -0.43700
F 	F 	0.50830 0.28265 0.20726 -0.43800
C 	C 	0.80212 0.70603 0.27680 0.07400
C 	C 	0.81470 0.70761 0.25335 0.03500
C 	C 	0.76364 0.62555 0.24082 -0.07800
C 	C 	0.70980 0.54303 0.25251 0.06300
C 	C 	0.69565 0.54262 0.27587 0.03400
C 	C 	0.73460 0.62656 0.28754 -0.06700
C 	C 	0.70990 0.63026 0.31200 0.78200
H 	H 	0.84350 0.76743 0.28658 0.13700
H 	H 	0.68585 0.47890 0.24381 0.13800
C 	C 	0.76269 0.62578 0.21522 0.78300
F 	F 	0.73148 0.71783 0.31809 -0.36400
F 	F 	0.75849 0.60274 0.32584 -0.40200
F 	F 	0.61569 0.57342 0.31526 -0.40300
F 	F 	0.85080 0.65487 0.20695 -0.44000
F 	F 	0.73122 0.68298 0.20777 -0.44000
F 	F 	0.70415 0.53962 0.20652 -0.41000
C 	C 	0.94951 0.15669 0.30655 0.04400
C 	C 	0.89201 0.08132 0.29288 0.03100
C 	C 	0.79883 0.02315 0.29981 -0.03000
C 	C 	0.75953 0.05594 0.31574 0.05500
C 	C 	0.81318 0.14342 0.32499 0.04100
C 	C 	0.91064 0.18372 0.32387 -0.07600
H 	H 	0.68544 0.01848 0.31882 0.14700
C 	C 	0.74327 0.92595 0.29142 0.74600
F 	F 	0.93034 0.24807 0.36053 -0.39200
F 	F 	0.80063 0.88939 0.28870 -0.42700
F 	F 	0.70125 0.92368 0.27109 -0.43600
F 	F 	0.67504 0.87195 0.30679 -0.37700
C 	C 	0.72602 0.53872 0.02752 0.06500
C 	C 	0.78471 0.52663 0.04256 0.02600
C 	C 	0.87956 0.56426 0.03658 -0.07300
C 	C 	0.91743 0.63456 0.02035 0.06200
C 	C 	0.86100 0.66443 0.01015 0.03200
C 	C 	0.76427 0.60436 0.01029 -0.08200
C 	C 	0.70107 0.61828 0.99446 0.78600
H 	H 	0.65154 0.50148 0.03002 0.12100
H 	H 	0.99197 0.67370 0.01800 0.11200
C 	C 	0.93765 0.52524 0.04565 0.76300
F 	F 	0.62100 0.53616 0.99030 -0.37800
F 	F 	0.74444 0.65315 0.97399 -0.41400
F 	F 	0.67710 0.67797 0.00420 -0.42600
F 	F 	0.88381 0.43175 0.04790 -0.41700
F 	F 	0.97525 0.56408 0.06633 -0.41300
C 	C 	0.85904 0.23087 0.05698 0.07200
C 	C 	0.84902 0.22243 0.08052 0.03100
C 	C 	0.90565 0.19694 0.09308 -0.07500
C 	C 	0.96807 0.17738 0.08148 0.02600
C 	C 	0.97388 0.18182 0.05788 0.04600
C 	C 	0.92780 0.22006 0.04600 -0.07000
C 	C 	0.94733 0.24352 0.02119 0.75800
H 	H 	0.81597 0.25013 0.04734 0.12700
C 	C 	0.90673 0.19911 0.11865 0.77900
F 	F 	0.92235 0.30725 0.01483 -0.36800
F 	F 	0.89773 0.16563 0.00829 -0.39900
F 	F 	0.81741 0.15433 0.12712 -0.44700
F 	F 	0.95185 0.28898 0.12564 -0.44200
F 	F 	0.95309 0.15711 0.12754 -0.43700
C 	C 	0.82266 0.28093 0.16715 -0.02300
C 	C 	0.76130 0.20096 0.17892 0.02700
C 	C 	0.79492 0.16114 0.19418 0.02500
C 	C 	0.89137 0.19844 0.19703 -0.02200
C 	C 	0.95243 0.28297 0.18710 -0.02000
C 	C 	0.91825 0.32623 0.17285 0.06700
H 	H 	0.68721 0.16854 0.17588 0.08700
C 	C 	0.98031 0.41851 0.16544 0.12000
C 	C 	0.72982 0.08284 0.20719 0.12500
N 	N 	0.67773 0.02018 0.21762 -0.05100
C 	C 	0.46052 0.39842 0.17256 0.16600
N 	N 	0.51867 0.47192 0.17669 -0.04400
C 	C 	0.85454 0.80098 0.16789 -0.03000
C 	C 	0.91546 0.77092 0.16066 0.01700
C 	C 	0.88428 0.69461 0.14661 0.04200
C 	C 	0.78949 0.64362 0.14069 -0.03800
C 	C 	0.72931 0.67581 0.14699 0.01800
C 	C 	0.76190 0.75552 0.16002 0.03900
H 	H 	0.98704 0.80604 0.16633 0.06200
H 	H 	0.65705 0.63862 0.14186 0.08100
C 	C 	0.70059 0.79112 0.16472 0.13800
C 	C 	0.95093 0.67189 0.13747 0.08900
N 	N 	0.65146 0.81964 0.16849 -0.07600
C 	C 	0.63652 0.82496 0.98954 0.09000
C 	C 	0.72845 0.87184 0.98163 0.02500
C 	C 	0.74530 0.86341 0.95837 -0.08900
C 	C 	0.67631 0.79108 0.94607 0.08600
C 	C 	0.58400 0.75511 0.95234 0.03100
C 	C 	0.56295 0.76879 0.97476 -0.07300
C 	C 	0.46351 0.73079 0.98238 0.79200
H 	H 	0.62216 0.83362 0.00694 0.10700
H 	H 	0.69232 0.77493 0.92953 0.09600
C 	C 	0.82650 0.93888 0.94552 0.75000
F 	F 	0.45657 0.72287 0.00566 -0.37500
F 	F 	0.90419 0.93026 0.94837 -0.52600
F 	F 	0.84395 0.02411 0.95262 -0.37200
F 	F 	0.80777 0.93353 0.92258 -0.43000
F 	F 	0.96390 0.23068 0.91045 -0.41800
C 	C 	0.99749 0.79914 0.84656 0.06200
N 	N 	0.91914 0.77399 0.84861 -0.07300
N 	N 	0.46486 0.95736 0.83787 -0.08500
C 	C 	0.77228 0.90042 0.82884 -0.01200
C 	C 	0.74618 0.94961 0.84323 -0.07200
C 	C 	0.66858 0.90381 0.85724 0.05500
C 	C 	0.61447 0.80756 0.85632 -0.06400
C 	C 	0.64132 0.75837 0.84217 0.02100
C 	C 	0.71989 0.80394 0.82852 0.00500
H 	H 	0.78687 0.02360 0.84365 0.13300
H 	H 	0.60050 0.68438 0.84170 0.07300
C 	C 	0.74566 0.75110 0.81410 0.11300
C 	C 	0.64735 0.95573 0.87316 0.10100
N 	N 	0.76625 0.70853 0.80263 -0.06300
N 	N 	0.63035 0.99729 0.88591 -0.07800
C 	C 	0.57411 0.73577 0.73139 0.06100
C 	C 	0.52704 0.78421 0.72786 0.01300
C 	C 	0.56981 0.87654 0.73486 -0.08200
C 	C 	0.66401 0.92199 0.74157 0.04400
C 	C 	0.71507 0.87592 0.74177 0.02900
C 	C 	0.67048 0.78277 0.73520 -0.09400
C 	C 	0.72525 0.73404 0.73132 0.79000
H 	H 	0.53883 0.66328 0.72764 0.09700
H 	H 	0.69726 0.99288 0.74678 0.08000
C 	C 	0.51813 0.92909 0.73318 0.74700
F 	F 	0.68077 0.66382 0.71584 -0.38700
F 	F 	0.73392 0.69748 0.75143 -0.39900
F 	F 	0.81253 0.79356 0.72283 -0.41300
F 	F 	0.52582 0.96215 0.71146 -0.40500
F 	F 	0.55404 0.00183 0.74813 -0.36500
C 	C 	0.98917 0.70007 0.73488 0.71900
F 	F 	0.90102 0.68905 0.73477 -0.36000
F 	F 	0.98238 0.61793 0.72860 -0.41500
C 	C 	0.60104 0.53798 0.38068 0.07300
C 	C 	0.54178 0.45264 0.37089 0.02500
C 	C 	0.47091 0.56549 0.38530 0.02600
C 	C 	0.56722 0.59659 0.38714 -0.07800
C 	C 	0.63419 0.69252 0.39529 0.78400
H 	H 	0.67420 0.56021 0.38239 0.11000
F 	F 	0.72525 0.71735 0.39040 -0.39500
F 	F 	0.62603 0.69751 0.41838 -0.44900
F 	F 	0.61524 0.75460 0.38479 -0.40500
C 	C 	0.93106 0.42428 0.37069 0.11100
C 	C 	0.94612 0.47471 0.35073 -0.00900
H 	H 	0.86381 0.36500 0.37367 0.06100
F 	F 	0.97586 0.43282 0.42683 -0.45100
F 	F 	0.90589 0.30698 0.40540 -0.39500
F 	F 	0.52690 0.02327 0.32053 -0.41400
C 	C 	0.49886 0.46629 0.59383 0.02400
C 	C 	0.54893 0.55184 0.60477 -0.07100
C 	C 	0.50823 0.60684 0.60707 0.05500
H 	H 	0.54810 0.67450 0.61429 0.12000
C 	C 	0.64563 0.58466 0.61404 0.77900
F 	F 	0.71032 0.62545 0.59702 -0.42500
F 	F 	0.65225 0.51225 0.62286 -0.38000
F 	F 	0.66635 0.64764 0.63122 -0.39900
C 	C 	0.86316 0.47934 0.61801 0.04300
C 	C 	0.85991 0.43526 0.63855 -0.07300
C 	C 	0.94200 0.46708 0.65135 0.03800
H 	H 	0.94124 0.43380 0.66706 0.11700
C 	C 	0.76945 0.35748 0.64707 0.78900
F 	F 	0.74901 0.27861 0.63547 -0.40500
F 	F 	0.69954 0.37809 0.64374 -0.34300
F 	F 	0.77358 0.34257 0.66992 -0.37600
C 	C 	0.55405 0.01456 0.59306 0.12500
C 	C 	0.54348 0.08017 0.60534 -0.00200
C 	C 	0.54543 0.07838 0.62927 -0.04400
C 	C 	0.56143 0.01292 0.64006 0.10200
C 	C 	0.55222 0.93785 0.62779 0.00700
C 	C 	0.56739 0.94867 0.60434 -0.13800
C 	C 	0.58378 0.88180 0.59096 0.79200
H 	H 	0.55355 0.01573 0.57480 0.08200
H 	H 	0.56108 0.00969 0.65834 0.13800
C 	C 	0.51054 0.13125 0.64296 0.78500
F 	F 	0.63299 0.92219 0.57144 -0.43900
F 	F 	0.49956 0.80696 0.58516 -0.42800
F 	F 	0.63460 0.85309 0.60359 -0.41500
F 	F 	0.55288 0.22144 0.63639 -0.35000
F 	F 	0.52717 0.12932 0.66581 -0.33300
C 	C 	0.55622 0.46906 0.50516 -0.04000
C 	C 	0.50149 0.41961 0.48669 0.00600
C 	C 	0.46310 0.45815 0.47236 0.02100
C 	C 	0.47757 0.54650 0.47686 -0.02700
C 	C 	0.53540 0.59743 0.49474 0.00300
C 	C 	0.57492 0.55946 0.50890 0.02200
H 	H 	0.48810 0.35074 0.48359 0.08000
H 	H 	0.54828 0.66609 0.49790 0.07600
C 	C 	0.63282 0.61310 0.52748 0.11500
N 	N 	0.67924 0.65644 0.54232 -0.05800
C 	C 	0.54117 0.06299 0.51711 0.04700
C 	C 	0.45356 0.98596 0.52070 -0.07500
C 	C 	0.46214 0.92471 0.48415 -0.09700
C 	C 	0.55112 0.00028 0.48092 0.10500
C 	C 	0.59083 0.06925 0.49729 -0.02300
H 	H 	0.58907 0.00572 0.46555 0.08800
C 	C 	0.68207 0.14679 0.49349 0.14200
N 	N 	0.75517 0.20886 0.49045 -0.07800
C 	C 	0.92961 0.45586 0.51799 -0.08000
C 	C 	0.91005 0.46495 0.49530 0.04400
C 	C 	0.81660 0.43776 0.48820 0.10600
N 	N 	0.74182 0.41582 0.48242 -0.08200
