data_crystal

_cell_length_a 21.75374
_cell_length_b 23.26811
_cell_length_c 82.02387
_cell_angle_alpha 90.04822
_cell_angle_beta  90.02189
_cell_angle_gamma 119.52765

_symmetry_space_group_name_	'P 1'
_symmetry_space_group_name_H-M	'P 1'

loop_
_symmetry_equiv_pos_as_xyz
  x,y,z

loop_
_atom_site_label
_atom_site_type_symbol
_atom_site_fract_x
_atom_site_fract_y
_atom_site_fract_z
_atom_site_charge
C 	C 	0.77854 0.39937 0.58849 0.28300
C 	C 	0.62433 0.20407 0.53624 0.36300
C 	C 	0.80079 0.41142 0.54187 0.36600
C 	C 	0.60433 0.18384 0.58142 0.28800
C 	C 	0.58656 0.37498 0.53648 0.36200
C 	C 	0.55022 0.35451 0.58133 0.28800
Ni	Ni	0.72389 0.29129 0.56237 1.12000
Ni	Ni	0.56381 0.26364 0.55824 1.12300
Ni	Ni	0.68922 0.41140 0.56287 1.12500
O 	O 	0.79599 0.36870 0.57722 -0.36300
O 	O 	0.73601 0.42369 0.58499 -0.37100
O 	O 	0.54093 0.32482 0.54536 -0.38200
O 	O 	0.66738 0.20784 0.54793 -0.34400
O 	O 	0.59261 0.23963 0.53687 -0.36900
O 	O 	0.59938 0.40423 0.57254 -0.37300
O 	O 	0.76756 0.34673 0.54148 -0.33400
O 	O 	0.78748 0.44255 0.55353 -0.37300
O 	O 	0.53079 0.29158 0.57814 -0.37900
O 	O 	0.67289 0.22787 0.58162 -0.36900
O 	O 	0.56143 0.18373 0.56967 -0.37100
O 	O 	0.65433 0.40512 0.53995 -0.35100
O 	O 	0.65790 0.31997 0.56508 -0.72000
H 	H 	0.65074 0.31538 0.57697 0.15800
C 	C 	0.43659 0.81539 0.42035 0.29000
C 	C 	0.22613 0.63516 0.46954 0.36200
C 	C 	0.44808 0.80508 0.46531 0.36100
C 	C 	0.19943 0.64353 0.42468 0.28800
C 	C 	0.40498 0.59946 0.46171 0.35700
C 	C 	0.37528 0.60130 0.41528 0.28900
Ni	Ni	0.31634 0.74363 0.44580 1.12000
Ni	Ni	0.28492 0.59260 0.44289 1.12400
Ni	Ni	0.44308 0.71096 0.43981 1.12400
O 	O 	0.39745 0.82071 0.43221 -0.35900
O 	O 	0.45364 0.76779 0.42026 -0.38100
O 	O 	0.35179 0.56352 0.45187 -0.34800
O 	O 	0.22958 0.68295 0.46034 -0.33400
O 	O 	0.26506 0.60792 0.46616 -0.37400
O 	O 	0.42951 0.63411 0.42542 -0.36200
O 	O 	0.37925 0.77036 0.46642 -0.33900
O 	O 	0.48100 0.79650 0.45289 -0.37700
O 	O 	0.30884 0.57390 0.42051 -0.37100
O 	O 	0.24422 0.70766 0.42671 -0.36500
O 	O 	0.19896 0.59847 0.43480 -0.36800
O 	O 	0.43932 0.66417 0.46062 -0.37900
O 	O 	0.34540 0.68410 0.43902 -0.71900
H 	H 	0.33894 0.68542 0.42717 0.15700
C 	C 	0.23468 0.75361 0.66818 0.28700
C 	C 	0.31149 0.56492 0.63702 0.30900
C 	C 	0.13974 0.56804 0.66770 0.31500
C 	C 	0.40477 0.75333 0.63675 0.28600
C 	C 	0.31306 0.56087 0.68901 0.31100
C 	C 	0.42874 0.75276 0.69033 0.29000
Ni	Ni	0.25557 0.65693 0.64577 1.11500
Ni	Ni	0.38997 0.65789 0.66325 1.12100
Ni	Ni	0.27141 0.66217 0.68520 1.12400
O 	O 	0.20857 0.70939 0.65606 -0.36300
O 	O 	0.26864 0.74618 0.68079 -0.37600
O 	O 	0.37597 0.60621 0.68401 -0.38500
O 	O 	0.28980 0.60436 0.63108 -0.36200
O 	O 	0.33068 0.56969 0.65227 -0.39100
O 	O 	0.36646 0.71076 0.69703 -0.37400
O 	O 	0.17861 0.56861 0.65549 -0.37800
O 	O 	0.16694 0.61467 0.67887 -0.37300
O 	O 	0.44803 0.74109 0.67590 -0.38700
O 	O 	0.33824 0.73969 0.63518 -0.36300
O 	O 	0.42066 0.70727 0.64139 -0.37300
O 	O 	0.26006 0.57274 0.68942 -0.38300
O 	O 	0.31333 0.67479 0.66424 -0.71700
H 	H 	0.33961 0.72338 0.66397 0.15600
C 	C 	0.10828 0.15222 0.75479 0.28800
C 	C 	0.87601 0.94413 0.79482 0.36800
C 	C 	0.08994 0.12339 0.79994 0.35700
C 	C 	0.87714 0.97216 0.75006 0.31200
C 	C 	0.06692 0.92576 0.79295 0.35700
C 	C 	0.07122 0.94760 0.74635 0.29000
Ni	Ni	0.97503 0.06527 0.77553 1.10500
Ni	Ni	0.95864 0.92054 0.77003 1.11600
Ni	Ni	0.11216 0.04557 0.77385 1.11700
O 	O 	0.06147 0.15050 0.76562 -0.35300
O 	O 	0.13317 0.11026 0.75546 -0.38100
O 	O 	0.02328 0.89282 0.78097 -0.33700
O 	O 	0.88119 0.99418 0.78630 -0.33400
O 	O 	0.92045 0.92215 0.79243 -0.38100
O 	O 	0.11601 0.97805 0.75862 -0.35600
O 	O 	0.02187 0.08467 0.79829 -0.33400
O 	O 	0.13365 0.12352 0.78882 -0.37800
O 	O 	0.00161 0.91621 0.74867 -0.35800
O 	O 	0.91881 0.03540 0.75384 -0.39700
O 	O 	0.87525 0.92368 0.75916 -0.37700
O 	O 	0.09638 0.99031 0.79379 -0.36600
O 	O 	0.01515 0.01386 0.76926 -0.71800
H 	H 	0.01725 0.02060 0.75737 0.15800
C 	C 	0.47176 0.70301 0.91235 0.28800
C 	C 	0.23669 0.51861 0.87101 0.36400
C 	C 	0.45423 0.69751 0.86735 0.35700
C 	C 	0.23728 0.52278 0.91618 0.28500
C 	C 	0.26483 0.71961 0.86873 0.36800
C 	C 	0.28322 0.73290 0.91583 0.28600
Ni	Ni	0.36242 0.59296 0.89180 1.12400
Ni	Ni	0.22765 0.61641 0.89318 1.12400
Ni	Ni	0.38274 0.74046 0.89062 1.12800
O 	O 	0.42869 0.63810 0.91153 -0.36700
O 	O 	0.47020 0.74405 0.90119 -0.36700
O 	O 	0.23376 0.65554 0.87107 -0.38200
O 	O 	0.30497 0.55781 0.87054 -0.34900
O 	O 	0.19812 0.52804 0.88190 -0.37000
O 	O 	0.35092 0.76282 0.91150 -0.37200
O 	O 	0.45114 0.65305 0.87771 -0.36200
O 	O 	0.41038 0.72070 0.86864 -0.34000
O 	O 	0.23224 0.69492 0.90537 -0.36800
O 	O 	0.28094 0.51710 0.90563 -0.33300
O 	O 	0.21585 0.56685 0.91416 -0.37900
O 	O 	0.31375 0.76058 0.87890 -0.35000
O 	O 	0.32622 0.64957 0.89581 -0.71900
H 	H 	0.32987 0.65205 0.90779 0.15800
C 	C 	0.73996 0.47686 0.08542 0.29600
C 	C 	0.53240 0.26107 0.12645 0.35800
C 	C 	0.71779 0.46660 0.13004 0.36200
C 	C 	0.56168 0.26540 0.07937 0.28400
C 	C 	0.74175 0.28582 0.13330 0.36000
C 	C 	0.78182 0.29747 0.08940 0.28600
Ni	Ni	0.61554 0.37613 0.10456 1.11800
Ni	Ni	0.64131 0.25067 0.10678 1.13200
Ni	Ni	0.77238 0.39629 0.11036 1.12400
O 	O 	0.67098 0.43479 0.08500 -0.37000
O 	O 	0.78113 0.47623 0.09751 -0.35900
O 	O 	0.67453 0.26123 0.12988 -0.35000
O 	O 	0.56619 0.32574 0.12573 -0.34600
O 	O 	0.54353 0.22648 0.11533 -0.36800
O 	O 	0.80353 0.36151 0.09148 -0.37900
O 	O 	0.67374 0.46146 0.11842 -0.33900
O 	O 	0.74273 0.42559 0.13069 -0.37600
O 	O 	0.72930 0.25063 0.09819 -0.35700
O 	O 	0.54344 0.29839 0.08975 -0.36000
O 	O 	0.59691 0.23540 0.08434 -0.36800
O 	O 	0.79036 0.33544 0.12478 -0.37900
O 	O 	0.67797 0.34244 0.10331 -0.71900
H 	H 	0.68635 0.34451 0.09147 0.15700
C 	C 	0.91400 0.84908 0.20779 0.33800
C 	C 	0.11966 0.05284 0.25266 0.30700
C 	C 	0.92711 0.86388 0.25316 0.30600
C 	C 	0.12888 0.04734 0.20547 0.32200
C 	C 	0.91581 0.05235 0.24941 0.29100
C 	C 	0.92133 0.05141 0.20486 0.33000
Ni	Ni	0.04120 0.94098 0.22953 1.11800
Ni	Ni	0.03720 0.07817 0.22781 1.12500
Ni	Ni	0.89272 0.94138 0.22913 1.13100
O 	O 	0.96334 0.85404 0.21827 -0.36300
O 	O 	0.88120 0.88423 0.20949 -0.33800
O 	O 	0.96486 0.09409 0.23941 -0.36800
O 	O 	0.12737 0.01615 0.24159 -0.37800
O 	O 	0.07628 0.07605 0.25016 -0.37800
O 	O 	0.87700 0.00646 0.21551 -0.38400
O 	O 	0.99361 0.90899 0.25201 -0.37400
O 	O 	0.88069 0.86256 0.24262 -0.35800
O 	O 	0.99123 0.08241 0.20693 -0.32800
O 	O 	0.09764 0.98280 0.20832 -0.34800
O 	O 	0.12626 0.08874 0.21636 -0.34000
O 	O 	0.89979 0.99011 0.24982 -0.36800
O 	O 	0.99098 0.98503 0.22495 -0.71600
H 	H 	0.99010 0.98255 0.21295 0.17300
C 	C 	0.56590 0.41955 0.34031 0.28700
C 	C 	0.66812 0.25630 0.30573 0.30900
C 	C 	0.48152 0.23568 0.33422 0.30700
C 	C 	0.75316 0.44315 0.31064 0.28500
C 	C 	0.65109 0.22745 0.35733 0.31000
C 	C 	0.75591 0.41841 0.36406 0.28900
Ni	Ni	0.60277 0.33888 0.31597 1.11400
Ni	Ni	0.73313 0.33726 0.33472 1.12100
Ni	Ni	0.60289 0.32467 0.35533 1.12300
O 	O 	0.54683 0.38164 0.32693 -0.36600
O 	O 	0.59575 0.40750 0.35304 -0.37700
O 	O 	0.71448 0.27668 0.35398 -0.38400
O 	O 	0.64726 0.29737 0.30055 -0.36500
O 	O 	0.68203 0.25445 0.32114 -0.39100
O 	O 	0.69274 0.37095 0.36916 -0.37400
O 	O 	0.52609 0.24475 0.32251 -0.37900
O 	O 	0.50156 0.27652 0.34670 -0.37300
O 	O 	0.78272 0.41428 0.34985 -0.38500
O 	O 	0.68645 0.42827 0.30854 -0.36600
O 	O 	0.76998 0.39685 0.31446 -0.37300
O 	O 	0.59571 0.23581 0.35713 -0.38600
O 	O 	0.65340 0.34971 0.33533 -0.71700
H 	H 	0.67734 0.39807 0.33653 0.15700
C 	C 	0.93466 0.90302 0.02784 0.27300
C 	C 	0.19975 0.11137 0.00153 0.30800
C 	C 	0.02285 0.09014 0.03374 0.30600
C 	C 	0.11053 0.92716 0.99429 0.28500
C 	C 	0.02413 0.12229 0.98250 0.32800
C 	C 	0.91672 0.93317 0.97488 0.28800
Ni	Ni	0.08336 0.00717 0.02077 1.10100
Ni	Ni	0.07218 0.02495 0.98183 1.11300
Ni	Ni	0.94841 0.01086 0.00512 1.10400
O 	O 	0.00169 0.91757 0.02868 -0.34800
O 	O 	0.91716 0.94974 0.02518 -0.36100
O 	O 	0.07951 0.11406 0.98174 -0.39300
O 	O 	0.15882 0.10156 0.01409 -0.38300
O 	O 	0.17575 0.07160 0.98887 -0.38300
O 	O 	0.89444 0.93529 0.98983 -0.37900
O 	O 	0.04434 0.04830 0.03782 -0.37000
O 	O 	0.00428 0.09277 0.01874 -0.39000
O 	O 	0.97876 0.98081 0.96928 -0.36900
O 	O 	0.13470 0.96446 0.00772 -0.35200
O 	O 	0.07899 0.94161 0.98235 -0.36400
O 	O 	0.96172 0.07310 0.98656 -0.40600
O 	O 	0.02730 0.99796 0.00247 -0.69100
H 	H 	0.00273 0.94970 0.00099 0.15800
C 	C 	0.17204 0.09250 0.29691 -0.06100
C 	C 	0.24095 0.10202 0.29669 0.02200
C 	C 	0.26927 0.09408 0.28203 -0.05900
C 	C 	0.22950 0.07761 0.26770 0.01800
C 	C 	0.16114 0.06936 0.26783 -0.08400
C 	C 	0.13231 0.07635 0.28253 0.01700
C 	C 	0.28592 0.12597 0.31137 0.02200
H 	H 	0.32276 0.10219 0.28167 0.05400
H 	H 	0.25239 0.07252 0.25643 0.04700
H 	H 	0.07916 0.06910 0.28283 0.04000
H 	H 	0.14963 0.09837 0.30816 0.04900
C 	C 	0.30394 0.18810 0.31790 -0.06100
C 	C 	0.36355 0.22101 0.32786 0.01700
C 	C 	0.40609 0.19252 0.33103 -0.08700
C 	C 	0.38189 0.12658 0.32657 0.01900
C 	C 	0.32169 0.09322 0.31683 -0.06100
H 	H 	0.27539 0.21312 0.31420 0.05100
H 	H 	0.38059 0.27123 0.33170 0.03800
H 	H 	0.41315 0.10328 0.32942 0.03400
H 	H 	0.30640 0.04409 0.31240 0.04900
C 	C 	0.93844 0.75435 0.28567 -0.05700
C 	C 	0.88203 0.69248 0.28125 0.02300
C 	C 	0.83694 0.68796 0.26847 -0.05300
C 	C 	0.84954 0.74440 0.25980 0.01800
C 	C 	0.90746 0.80616 0.26382 -0.07600
C 	C 	0.95098 0.81098 0.27705 0.01500
C 	C 	0.86839 0.63256 0.29033 0.02500
H 	H 	0.79233 0.64058 0.26519 0.06200
H 	H 	0.81542 0.73972 0.24966 0.06500
H 	H 	0.99522 0.85837 0.28046 0.04400
H 	H 	0.97292 0.75848 0.29568 0.05100
C 	C 	0.86562 0.57852 0.28203 -0.05800
C 	C 	0.83585 0.51663 0.28957 0.02100
C 	C 	0.80854 0.50847 0.30541 -0.07900
C 	C 	0.81930 0.56415 0.31434 0.01500
C 	C 	0.84879 0.62597 0.30680 -0.05900
H 	H 	0.88256 0.58354 0.26944 0.06200
H 	H 	0.82885 0.47413 0.28264 0.04300
H 	H 	0.79953 0.55854 0.32670 0.02900
H 	H 	0.85213 0.66768 0.31345 0.05000
C 	C 	0.79043 0.11942 0.25337 -0.05500
C 	C 	0.78358 0.12070 0.27035 0.02400
C 	C 	0.81658 0.09502 0.28044 -0.05800
C 	C 	0.85764 0.07008 0.27358 0.01600
C 	C 	0.86676 0.07150 0.25664 -0.07900
C 	C 	0.83233 0.09555 0.24657 0.02100
C 	C 	0.74554 0.15253 0.27759 0.02600
H 	H 	0.81180 0.09586 0.29357 0.04900
H 	H 	0.88400 0.05158 0.28145 0.03500
H 	H 	0.83908 0.09682 0.23347 0.05200
H 	H 	0.76448 0.13821 0.24547 0.06800
C 	C 	0.76574 0.21832 0.27372 -0.05800
C 	C 	0.73487 0.25066 0.28182 0.02100
C 	C 	0.68442 0.21789 0.29404 -0.08700
C 	C 	0.66102 0.15092 0.29716 0.02100
C 	C 	0.69124 0.11830 0.28893 -0.06100
H 	H 	0.80720 0.24512 0.26489 0.06000
H 	H 	0.75338 0.30236 0.27932 0.04500
H 	H 	0.62171 0.12501 0.30650 0.03500
H 	H 	0.67400 0.06707 0.29172 0.05100
C 	C 	0.84276 0.72013 0.03204 -0.05800
C 	C 	0.82044 0.71313 0.04832 0.02400
C 	C 	0.82166 0.76695 0.05641 -0.05600
C 	C 	0.85169 0.82883 0.04884 0.01900
C 	C 	0.88059 0.83720 0.03316 -0.07400
C 	C 	0.87219 0.78182 0.02446 0.01200
C 	C 	0.80252 0.65183 0.05734 0.02400
H 	H 	0.80256 0.76162 0.06882 0.06300
H 	H 	0.85710 0.87111 0.05561 0.04700
H 	H 	0.89339 0.78761 0.01224 0.02800
H 	H 	0.84089 0.67870 0.02556 0.04700
C 	C 	0.74940 0.59056 0.05154 -0.05600
C 	C 	0.73245 0.53268 0.06011 0.01400
C 	C 	0.76758 0.53557 0.07475 -0.06700
C 	C 	0.82277 0.59669 0.08016 0.02700
C 	C 	0.84018 0.65443 0.07148 -0.05000
H 	H 	0.72067 0.58785 0.04051 0.04900
H 	H 	0.69066 0.48581 0.05561 0.03700
H 	H 	0.85060 0.59990 0.09138 0.06900
H 	H 	0.88251 0.70129 0.07584 0.06300
C 	C 	0.50638 0.28953 0.03761 -0.05700
C 	C 	0.45640 0.22431 0.03344 0.02000
C 	C 	0.44769 0.17222 0.04362 -0.05700
C 	C 	0.48490 0.18555 0.05829 0.01600
C 	C 	0.53044 0.25099 0.06302 -0.07500
C 	C 	0.54253 0.30286 0.05245 0.01000
C 	C 	0.40517 0.21141 0.02016 0.02300
H 	H 	0.40934 0.12166 0.04059 0.04800
H 	H 	0.47585 0.14517 0.06632 0.04400
H 	H 	0.57875 0.35354 0.05589 0.03400
H 	H 	0.51473 0.33004 0.02970 0.04700
C 	C 	0.36405 0.24269 0.02041 -0.06100
C 	C 	0.30002 0.21502 0.01196 0.02000
C 	C 	0.27606 0.15528 0.00352 -0.09000
C 	C 	0.32244 0.13034 0.00108 0.01600
C 	C 	0.38713 0.15861 0.00933 -0.06400
H 	H 	0.37850 0.28492 0.02826 0.05200
H 	H 	0.26587 0.23637 0.01332 0.03700
H 	H 	0.30565 0.08550 0.99409 0.03300
H 	H 	0.42024 0.13602 0.00840 0.04600
C 	C 	0.00672 0.23025 0.05108 -0.05000
C 	C 	0.95350 0.19672 0.06268 0.01400
C 	C 	0.93592 0.13224 0.06726 -0.05300
C 	C 	0.96593 0.09926 0.05907 0.00600
C 	C 	0.01330 0.13042 0.04620 -0.07700
C 	C 	0.03677 0.19733 0.04294 0.01500
C 	C 	0.91049 0.22580 0.06849 0.02500
H 	H 	0.89626 0.10651 0.07654 0.05500
H 	H 	0.94812 0.04791 0.06186 0.04000
H 	H 	0.07439 0.22229 0.03322 0.03800
H 	H 	0.02178 0.28048 0.04769 0.05000
C 	C 	0.94198 0.28538 0.07724 -0.05700
C 	C 	0.90062 0.31179 0.08307 0.01800
C 	C 	0.82737 0.27860 0.08025 -0.07100
C 	C 	0.79660 0.22064 0.07085 0.01500
C 	C 	0.83794 0.19442 0.06498 -0.05800
H 	H 	0.99811 0.31046 0.07983 0.05600
H 	H 	0.92499 0.35636 0.09039 0.04500
H 	H 	0.74025 0.19483 0.06851 0.03900
H 	H 	0.81344 0.14925 0.05788 0.04800
C 	C 	0.90596 0.14820 0.16949 -0.13200
C 	C 	0.84112 0.14481 0.17298 0.01100
C 	C 	0.80033 0.10654 0.18611 0.29200
C 	C 	0.82506 0.07344 0.19598 -0.06400
C 	C 	0.89150 0.07902 0.19300 -0.12800
C 	C 	0.93103 0.11521 0.17939 0.36700
C 	C 	0.81573 0.18110 0.16284 0.01600
F 	F 	0.73720 0.10245 0.18949 -0.41900
H 	H 	0.79326 0.04478 0.20620 0.09500
F 	F 	0.99325 0.11799 0.17568 -0.41000
H 	H 	0.93699 0.17656 0.15914 0.12500
C 	C 	0.84679 0.25001 0.16421 0.29100
C 	C 	0.82095 0.28396 0.15494 -0.05000
C 	C 	0.76372 0.24933 0.14430 -0.14200
C 	C 	0.73235 0.18022 0.14305 0.37600
C 	C 	0.75835 0.14642 0.15228 -0.13800
F 	F 	0.90173 0.28395 0.17458 -0.41400
H 	H 	0.84567 0.33721 0.15595 0.10100
F 	F 	0.67841 0.14613 0.13244 -0.44900
H 	H 	0.73410 0.09323 0.15119 0.12400
C 	C 	0.41786 0.22194 0.16405 -0.14400
C 	C 	0.35541 0.16641 0.15883 0.01600
C 	C 	0.35162 0.14114 0.14308 0.30000
C 	C 	0.40984 0.17139 0.13263 -0.05500
C 	C 	0.47234 0.22731 0.13780 -0.13900
C 	C 	0.47619 0.25224 0.15362 0.37600
C 	C 	0.29468 0.13378 0.17002 0.01300
F 	F 	0.29137 0.08752 0.13789 -0.41200
H 	H 	0.40597 0.15202 0.12043 0.10000
F 	F 	0.53671 0.30519 0.15897 -0.42700
H 	H 	0.42135 0.24134 0.17624 0.12100
C 	C 	0.28025 0.07491 0.17790 0.30200
C 	C 	0.22469 0.04565 0.18907 -0.06200
C 	C 	0.18308 0.07503 0.19254 -0.12600
C 	C 	0.19652 0.13314 0.18433 0.36900
C 	C 	0.25225 0.16242 0.17317 -0.14000
F 	F 	0.32101 0.04681 0.17496 -0.40900
H 	H 	0.21520 0.00109 0.19536 0.09700
F 	F 	0.15555 0.16112 0.18715 -0.41600
H 	H 	0.26272 0.20755 0.16702 0.12200
C 	C 	0.79238 0.63978 0.14663 -0.14100
C 	C 	0.80160 0.63009 0.16312 0.01600
C 	C 	0.78207 0.56647 0.16880 0.29500
C 	C 	0.75380 0.51294 0.15801 -0.05100
C 	C 	0.74455 0.52254 0.14149 -0.14200
C 	C 	0.76409 0.58634 0.13583 0.37200
C 	C 	0.83051 0.68644 0.17447 0.01500
F 	F 	0.79075 0.55662 0.18475 -0.41300
H 	H 	0.73901 0.46401 0.16248 0.11300
F 	F 	0.75753 0.59683 0.11980 -0.44100
H 	H 	0.80743 0.68881 0.14219 0.12300
C 	C 	0.90371 0.72940 0.17540 0.29600
C 	C 	0.93087 0.78287 0.18621 -0.05600
C 	C 	0.88510 0.79398 0.19609 -0.13400
C 	C 	0.81180 0.75078 0.19517 0.37300
C 	C 	0.78476 0.69739 0.18436 -0.13900
F 	F 	0.94843 0.71910 0.16589 -0.41200
H 	H 	0.98744 0.81575 0.18689 0.10000
F 	F 	0.76700 0.75948 0.20505 -0.43500
H 	H 	0.72825 0.66424 0.18373 0.12500
C 	C 	0.63768 0.72064 0.93147 -0.05500
C 	C 	0.66779 0.78471 0.93790 0.02400
C 	C 	0.62999 0.81916 0.93730 -0.05500
C 	C 	0.56391 0.79086 0.92973 0.01600
C 	C 	0.53485 0.72773 0.92275 -0.07300
C 	C 	0.57141 0.69217 0.92396 0.01800
C 	C 	0.73863 0.81573 0.94537 0.02500
H 	H 	0.65223 0.86816 0.94254 0.05500
H 	H 	0.53598 0.81855 0.92897 0.04100
H 	H 	0.54980 0.64357 0.91852 0.04600
H 	H 	0.66619 0.69345 0.93200 0.05600
C 	C 	0.75031 0.78867 0.95951 -0.05800
C 	C 	0.81298 0.82433 0.96832 0.01600
C 	C 	0.86399 0.88769 0.96316 -0.07700
C 	C 	0.85527 0.91169 0.94814 0.01900
C 	C 	0.79274 0.87585 0.93928 -0.05600
H 	H 	0.70944 0.74162 0.96413 0.05000
H 	H 	0.81994 0.80456 0.97970 0.03400
H 	H 	0.89470 0.96005 0.94387 0.05000
H 	H 	0.78494 0.89626 0.92811 0.06300
C 	C 	0.10768 0.30362 0.97607 -0.06700
C 	C 	0.08616 0.30497 0.96004 0.03100
C 	C 	0.03140 0.24723 0.95308 -0.07100
C 	C 	0.00370 0.18727 0.96147 0.04500
C 	C 	0.03107 0.18475 0.97677 -0.10000
C 	C 	0.07999 0.24371 0.98444 0.02800
C 	C 	0.12672 0.36407 0.94989 0.01900
H 	H 	0.01339 0.24807 0.94081 0.06100
H 	H 	0.96519 0.14212 0.95553 0.01800
H 	H 	0.10047 0.24239 0.99640 0.03400
H 	H 	0.14865 0.34830 0.98170 0.05200
C 	C 	0.09473 0.39939 0.94395 -0.05500
C 	C 	0.13153 0.45240 0.93332 0.01400
C 	C 	0.20075 0.47042 0.92846 -0.06700
C 	C 	0.23334 0.43601 0.93476 0.01600
C 	C 	0.19647 0.38307 0.94542 -0.05300
H 	H 	0.04098 0.38514 0.94737 0.05200
H 	H 	0.10556 0.47835 0.92855 0.04400
H 	H 	0.28691 0.44983 0.93128 0.04800
H 	H 	0.22160 0.35601 0.94997 0.05400
C 	C 	0.23375 0.86531 0.98296 -0.05700
C 	C 	0.18972 0.81339 0.97246 0.02400
C 	C 	0.11645 0.78892 0.97290 -0.05500
C 	C 	0.08876 0.82131 0.98213 0.01600
C 	C 	0.13415 0.87925 0.99067 -0.07300
C 	C 	0.20608 0.89838 0.99199 0.01700
C 	C 	0.22078 0.79273 0.95919 0.02300
H 	H 	0.08156 0.74783 0.96519 0.05400
H 	H 	0.03270 0.80473 0.98149 0.03900
H 	H 	0.24150 0.94205 0.99889 0.04600
H 	H 	0.29006 0.88295 0.98324 0.05300
C 	C 	0.27035 0.84029 0.94855 -0.05400
C 	C 	0.29204 0.82069 0.93460 0.02000
C 	C 	0.26371 0.75340 0.93101 -0.07200
C 	C 	0.21577 0.70578 0.94184 0.01200
C 	C 	0.19495 0.72534 0.95597 -0.05500
H 	H 	0.29018 0.89240 0.95079 0.05700
H 	H 	0.32925 0.85783 0.92633 0.05100
H 	H 	0.19439 0.65367 0.93928 0.03800
H 	H 	0.15738 0.68818 0.96418 0.05000
C 	C 	0.13520 0.81414 0.80807 -0.13900
C 	C 	0.14778 0.83225 0.82455 0.01600
C 	C 	0.13174 0.87955 0.83075 0.30100
C 	C 	0.10392 0.90902 0.82047 -0.05300
C 	C 	0.09182 0.89139 0.80393 -0.13500
C 	C 	0.10751 0.84361 0.79777 0.37300
C 	C 	0.17799 0.80179 0.83527 0.01800
F 	F 	0.14341 0.89714 0.84671 -0.40600
H 	H 	0.09200 0.94572 0.82535 0.11900
F 	F 	0.09826 0.82744 0.78170 -0.43200
H 	H 	0.14759 0.77772 0.80322 0.12500
C 	C 	0.13354 0.74250 0.84338 0.29700
C 	C 	0.16219 0.71474 0.85395 -0.05000
C 	C 	0.23553 0.74608 0.85653 -0.13800
C 	C 	0.28013 0.80463 0.84807 0.38200
C 	C 	0.25134 0.83237 0.83752 -0.14000
F 	F 	0.06252 0.71230 0.84119 -0.40600
H 	H 	0.12724 0.66970 0.86042 0.09500
F 	F 	0.35128 0.83435 0.85000 -0.42100
H 	H 	0.28596 0.87778 0.83115 0.12500
C 	C 	0.09981 0.22063 0.83762 -0.14400
C 	C 	0.14780 0.28506 0.83261 0.01500
C 	C 	0.18167 0.29550 0.81746 0.29900
C 	C 	0.16563 0.24205 0.80715 -0.05600
C 	C 	0.11553 0.17769 0.81188 -0.14300
C 	C 	0.08375 0.16707 0.82733 0.37600
C 	C 	0.16436 0.34138 0.84344 0.01600
F 	F 	0.22961 0.35755 0.81267 -0.41000
H 	H 	0.19032 0.25093 0.79526 0.09900
F 	F 	0.03684 0.10496 0.83230 -0.42000
H 	H 	0.07456 0.21213 0.84944 0.12200
C 	C 	0.13863 0.38482 0.83992 0.30100
C 	C 	0.15976 0.44149 0.84944 -0.04900
C 	C 	0.20677 0.45509 0.86245 -0.14600
C 	C 	0.23005 0.41017 0.86636 0.37600
C 	C 	0.20885 0.35357 0.85689 -0.14800
F 	F 	0.09440 0.37277 0.82710 -0.40600
H 	H 	0.14125 0.47571 0.84641 0.10100
F 	F 	0.27444 0.42216 0.87915 -0.45500
H 	H 	0.22829 0.31992 0.85977 0.11800
C 	C 	0.72824 0.90506 0.82472 -0.15200
C 	C 	0.69466 0.83589 0.82520 0.02000
C 	C 	0.72132 0.80243 0.81590 0.29600
C 	C 	0.78112 0.83796 0.80618 -0.04900
C 	C 	0.81472 0.90724 0.80562 -0.14800
C 	C 	0.78814 0.94072 0.81501 0.40100
C 	C 	0.63262 0.79866 0.83574 0.01400
F 	F 	0.68906 0.73547 0.81624 -0.41000
H 	H 	0.80075 0.81159 0.79889 0.09000
F 	F 	0.82103 0.00772 0.81496 -0.45000
H 	H 	0.70821 0.93117 0.83198 0.12800
C 	C 	0.63998 0.77412 0.85080 0.30100
C 	C 	0.58130 0.73967 0.86090 -0.05600
C 	C 	0.51467 0.72951 0.85607 -0.13800
C 	C 	0.50718 0.75327 0.84086 0.37700
C 	C 	0.56604 0.78783 0.83077 -0.14100
F 	F 	0.70424 0.78447 0.85572 -0.40900
H 	H 	0.58793 0.72220 0.87266 0.10000
F 	F 	0.44290 0.74246 0.83580 -0.41400
H 	H 	0.55995 0.80622 0.81910 0.12200
C 	C 	0.72394 0.87161 0.72216 -0.06400
C 	C 	0.68686 0.90661 0.72314 0.03000
C 	C 	0.71757 0.96803 0.73101 -0.07000
C 	C 	0.78299 0.99234 0.73877 0.05000
C 	C 	0.81798 0.95512 0.73876 -0.09200
C 	C 	0.78929 0.89583 0.72991 0.02300
C 	C 	0.61449 0.87711 0.71667 0.02100
H 	H 	0.68972 0.99582 0.73160 0.06100
H 	H 	0.80463 0.03836 0.74549 0.02200
H 	H 	0.81631 0.86724 0.72957 0.03300
H 	H 	0.70112 0.82471 0.71581 0.05300
C 	C 	0.60193 0.89862 0.70173 -0.05800
C 	C 	0.53698 0.86163 0.69385 0.01500
C 	C 	0.48453 0.80248 0.70080 -0.07700
C 	C 	0.49454 0.78510 0.71657 0.01700
C 	C 	0.55945 0.82217 0.72445 -0.05600
H 	H 	0.64367 0.94189 0.69581 0.05000
H 	H 	0.52919 0.87648 0.68186 0.03400
H 	H 	0.45410 0.74021 0.72220 0.04700
H 	H 	0.56825 0.80615 0.73619 0.05900
C 	C 	0.24992 0.29056 0.72984 -0.05700
C 	C 	0.21321 0.32130 0.72375 0.02300
C 	C 	0.14171 0.29613 0.72774 -0.05400
C 	C 	0.10727 0.24072 0.73780 0.01700
C 	C 	0.14405 0.21002 0.74396 -0.07300
C 	C 	0.21560 0.23522 0.73990 0.01700
C 	C 	0.24987 0.38075 0.71351 0.02600
H 	H 	0.11303 0.31980 0.72314 0.05600
H 	H 	0.05203 0.22158 0.74075 0.04500
H 	H 	0.24489 0.21247 0.74470 0.04200
H 	H 	0.30511 0.30970 0.72683 0.05200
C 	C 	0.30380 0.43977 0.72016 -0.05900
C 	C 	0.33051 0.49864 0.71133 0.02200
C 	C 	0.30309 0.49884 0.69587 -0.08600
C 	C 	0.25357 0.43893 0.68870 0.02000
C 	C 	0.22701 0.38008 0.69749 -0.06200
H 	H 	0.32257 0.44058 0.73244 0.06100
H 	H 	0.36909 0.54464 0.71693 0.04100
H 	H 	0.23266 0.43855 0.67668 0.03700
H 	H 	0.18653 0.33446 0.69211 0.05000
C 	C 	0.23542 0.90415 0.68323 -0.05800
C 	C 	0.16456 0.87584 0.68815 0.02500
C 	C 	0.11463 0.81461 0.68158 -0.05700
C 	C 	0.13705 0.77782 0.67234 0.01900
C 	C 	0.20947 0.80127 0.67002 -0.07600
C 	C 	0.25790 0.86675 0.67426 0.01700
C 	C 	0.14595 0.90254 0.70252 0.02300
H 	H 	0.05933 0.79310 0.68478 0.05500
H 	H 	0.09878 0.72845 0.66845 0.04100
H 	H 	0.31376 0.88643 0.67196 0.03400
H 	H 	0.27402 0.95275 0.68757 0.05200
C 	C 	0.18165 0.91030 0.71734 -0.05200
C 	C 	0.15844 0.92679 0.73153 0.01800
C 	C 	0.09890 0.93529 0.73113 -0.06500
C 	C 	0.06444 0.92960 0.71623 0.01400
C 	C 	0.08802 0.91351 0.70197 -0.05400
H 	H 	0.22592 0.90127 0.71796 0.05700
H 	H 	0.18540 0.93083 0.74294 0.06200
H 	H 	0.01904 0.93700 0.71572 0.04400
H 	H 	0.06037 0.90813 0.69059 0.05300
C 	C 	0.43338 0.47403 0.34812 -0.05900
C 	C 	0.47238 0.52677 0.35887 0.02400
C 	C 	0.54605 0.55414 0.35970 -0.05700
C 	C 	0.57886 0.52380 0.35155 0.01700
C 	C 	0.53820 0.46517 0.34278 -0.07700
C 	C 	0.46620 0.44319 0.34012 0.01700
C 	C 	0.43560 0.54531 0.37122 0.02200
H 	H 	0.57717 0.59588 0.36761 0.05300
H 	H 	0.63500 0.54261 0.35320 0.03600
H 	H 	0.43453 0.39914 0.33295 0.03900
H 	H 	0.37690 0.45411 0.34684 0.05000
C 	C 	0.45823 0.61219 0.37433 -0.05500
C 	C 	0.43581 0.63047 0.38841 0.01100
C 	C 	0.38922 0.58198 0.39926 -0.07000
C 	C 	0.36201 0.51502 0.39547 0.02000
C 	C 	0.38537 0.49671 0.38156 -0.05400
H 	H 	0.49575 0.65010 0.36627 0.04900
H 	H 	0.45623 0.68234 0.39113 0.03700
H 	H 	0.32561 0.47720 0.40372 0.05400
H 	H 	0.36732 0.44492 0.37931 0.05500
C 	C 	0.04078 0.53735 0.39879 -0.05700
C 	C 	0.00248 0.57112 0.40013 0.02700
C 	C 	0.03315 0.63295 0.40782 -0.05600
C 	C 	0.10022 0.65922 0.41489 0.01900
C 	C 	0.13694 0.62365 0.41433 -0.07300
C 	C 	0.10766 0.56348 0.40586 0.01500
C 	C 	0.93017 0.54121 0.39355 0.02100
H 	H 	0.00436 0.65981 0.40870 0.05700
H 	H 	0.12216 0.70569 0.42141 0.04900
H 	H 	0.13580 0.53595 0.40521 0.03900
H 	H 	0.01809 0.49024 0.39253 0.05400
C 	C 	0.91674 0.56735 0.37947 -0.05800
C 	C 	0.85406 0.53011 0.37077 0.01600
C 	C 	0.80490 0.46616 0.37599 -0.07700
C 	C 	0.81444 0.44377 0.39116 0.01800
C 	C 	0.87704 0.48112 0.39989 -0.05600
H 	H 	0.95672 0.61452 0.37470 0.05000
H 	H 	0.84626 0.54873 0.35930 0.03400
H 	H 	0.77620 0.39512 0.39552 0.04800
H 	H 	0.88615 0.46143 0.41103 0.05900
C 	C 	0.58008 0.94645 0.39422 -0.06100
C 	C 	0.54771 0.98252 0.38906 0.03700
C 	C 	0.47774 0.96206 0.39363 -0.05900
C 	C 	0.44082 0.90658 0.40355 0.02000
C 	C 	0.47352 0.87099 0.40895 -0.07600
C 	C 	0.54316 0.89083 0.40409 0.02100
C 	C 	0.58761 0.04301 0.37934 0.01200
H 	H 	0.45237 0.98971 0.38968 0.05900
H 	H 	0.38704 0.89154 0.40712 0.04200
H 	H 	0.56925 0.86413 0.40827 0.04100
H 	H 	0.63404 0.96189 0.39073 0.05700
C 	C 	0.64086 0.10060 0.38670 -0.05500
C 	C 	0.66840 0.16121 0.37861 0.01900
C 	C 	0.64248 0.16449 0.36318 -0.08500
C 	C 	0.59454 0.10595 0.35521 0.01700
C 	C 	0.56703 0.04542 0.36327 -0.05800
H 	H 	0.65799 0.09899 0.39902 0.05900
H 	H 	0.70597 0.20607 0.38481 0.04200
H 	H 	0.57504 0.10791 0.34317 0.03700
H 	H 	0.52708 0.00094 0.35736 0.04600
C 	C 	0.33358 0.42155 0.62422 -0.06100
C 	C 	0.37975 0.44919 0.61099 0.02700
C 	C 	0.39201 0.50976 0.60450 -0.05700
C 	C 	0.36304 0.54498 0.61204 0.02200
C 	C 	0.32214 0.52013 0.62620 -0.08600
C 	C 	0.30478 0.45681 0.63178 0.02100
C 	C 	0.42156 0.41894 0.60523 0.02300
H 	H 	0.42667 0.53097 0.59410 0.06500
H 	H 	0.37641 0.59353 0.60753 0.04800
H 	H 	0.27237 0.43666 0.64256 0.03700
H 	H 	0.32288 0.37433 0.62915 0.05100
C 	C 	0.49392 0.44907 0.60881 -0.05600
C 	C 	0.53516 0.42410 0.60215 0.01500
C 	C 	0.50450 0.36892 0.59179 -0.07400
C 	C 	0.43116 0.33620 0.58908 0.01900
C 	C 	0.38987 0.36122 0.59576 -0.05400
H 	H 	0.51855 0.49288 0.61640 0.05000
H 	H 	0.59154 0.44941 0.60446 0.03600
H 	H 	0.40681 0.29362 0.58108 0.04500
H 	H 	0.33380 0.33703 0.59314 0.06000
C 	C 	0.95974 0.52883 0.65532 -0.10200
C 	C 	0.93739 0.46678 0.64821 0.04500
C 	C 	0.97031 0.43042 0.65285 -0.10200
C 	C 	0.03323 0.46099 0.66177 0.06000
C 	C 	0.06273 0.52762 0.66622 -0.10700
C 	C 	0.02212 0.55900 0.66446 0.05800
C 	C 	0.89584 0.44923 0.63303 0.00900
H 	H 	0.95149 0.38113 0.64805 0.05600
H 	H 	0.06257 0.43512 0.66374 0.03000
H 	H 	0.04261 0.60933 0.66862 0.03300
H 	H 	0.93296 0.55633 0.65241 0.05600
C 	C 	0.82457 0.43299 0.63320 -0.05500
C 	C 	0.78635 0.41814 0.61858 0.00900
C 	C 	0.81937 0.41957 0.60374 -0.07300
C 	C 	0.89102 0.43721 0.60362 0.01200
C 	C 	0.92897 0.45192 0.61816 -0.05300
H 	H 	0.79879 0.43158 0.64461 0.04600
H 	H 	0.73102 0.40452 0.61881 0.03600
H 	H 	0.91738 0.43959 0.59223 0.05000
H 	H 	0.98440 0.46585 0.61789 0.04900
C 	C 	0.51516 0.88776 0.60758 -0.06200
C 	C 	0.52511 0.94307 0.61659 0.03700
C 	C 	0.50950 0.93635 0.63331 -0.06300
C 	C 	0.47773 0.87388 0.64055 0.01700
C 	C 	0.46071 0.81767 0.63110 -0.08100
C 	C 	0.48298 0.82522 0.61482 0.02400
C 	C 	0.54358 0.00568 0.60819 0.01200
H 	H 	0.51812 0.97885 0.64046 0.05200
H 	H 	0.46141 0.86859 0.65319 0.02800
H 	H 	0.47080 0.78219 0.60746 0.04400
H 	H 	0.52884 0.89269 0.59476 0.06300
C 	C 	0.60381 0.06454 0.61282 -0.05600
C 	C 	0.62139 0.12360 0.60474 0.01100
C 	C 	0.57941 0.12419 0.59174 -0.07400
C 	C 	0.51741 0.06559 0.58761 0.01900
C 	C 	0.49970 0.00677 0.59579 -0.06700
H 	H 	0.63739 0.06444 0.62257 0.04400
H 	H 	0.66841 0.16856 0.60836 0.04000
H 	H 	0.48384 0.06510 0.57780 0.04700
H 	H 	0.45207 0.96188 0.59240 0.06800
C 	C 	0.46057 0.47891 0.47732 -0.14600
C 	C 	0.48677 0.50500 0.49281 0.01400
C 	C 	0.48687 0.56259 0.49801 0.30500
C 	C 	0.45982 0.59314 0.48786 -0.05600
C 	C 	0.43268 0.56658 0.47243 -0.13800
C 	C 	0.43385 0.50955 0.46713 0.37200
C 	C 	0.51180 0.47066 0.50379 0.01400
F 	F 	0.51300 0.58879 0.51290 -0.40800
H 	H 	0.45956 0.63722 0.49204 0.11500
F 	F 	0.41063 0.48473 0.45198 -0.43500
H 	H 	0.46070 0.43470 0.47321 0.12000
C 	C 	0.47173 0.43672 0.51749 0.30100
C 	C 	0.49571 0.40465 0.52796 -0.05700
C 	C 	0.55980 0.40576 0.52481 -0.14100
C 	C 	0.59923 0.43867 0.51090 0.37300
C 	C 	0.57528 0.47106 0.50046 -0.14500
F 	F 	0.40955 0.43493 0.52065 -0.40800
H 	H 	0.46503 0.37987 0.53869 0.09900
F 	F 	0.66022 0.43866 0.50739 -0.41400
H 	H 	0.60608 0.49657 0.48981 0.12000
C 	C 	0.49712 0.91956 0.50143 -0.13700
C 	C 	0.53906 0.98102 0.49396 0.02200
C 	C 	0.55715 0.98377 0.47744 0.29500
C 	C 	0.53092 0.92561 0.46831 -0.05500
C 	C 	0.48596 0.86429 0.47558 -0.14400
C 	C 	0.47052 0.86140 0.49228 0.37900
C 	C 	0.56216 0.04238 0.50334 0.00800
F 	F 	0.59815 0.04293 0.47011 -0.42300
H 	H 	0.54301 0.92844 0.45542 0.09700
F 	F 	0.42877 0.80234 0.49958 -0.41900
H 	H 	0.48408 0.91701 0.51425 0.13000
C 	C 	0.51254 0.06045 0.50856 0.29100
C 	C 	0.53366 0.11562 0.51861 -0.05300
C 	C 	0.60449 0.15321 0.52351 -0.13900
C 	C 	0.65476 0.13715 0.51753 0.37800
C 	C 	0.63350 0.08172 0.50757 -0.13500
F 	F 	0.44366 0.02377 0.50415 -0.41800
H 	H 	0.49451 0.12772 0.52306 0.09200
F 	F 	0.72403 0.17481 0.52152 -0.42500
H 	H 	0.67225 0.06867 0.50336 0.12700
C 	C 	0.08579 0.61286 0.50005 -0.13900
C 	C 	0.05178 0.54443 0.50264 0.02900
C 	C 	0.07885 0.50678 0.49542 0.28800
C 	C 	0.13770 0.53698 0.48517 -0.05000
C 	C 	0.17029 0.60515 0.48206 -0.13900
C 	C 	0.14514 0.64328 0.48994 0.38000
C 	C 	0.98692 0.51205 0.51262 0.00600
F 	F 	0.04761 0.44080 0.49821 -0.40800
H 	H 	0.15670 0.50703 0.47927 0.09600
F 	F 	0.17809 0.70972 0.48779 -0.42200
H 	H 	0.06578 0.64238 0.50575 0.13600
C 	C 	0.98963 0.52557 0.52937 0.28100
C 	C 	0.92827 0.49407 0.53881 -0.05100
C 	C 	0.86384 0.44833 0.53163 -0.14000
C 	C 	0.86095 0.43538 0.51484 0.38200
C 	C 	0.92221 0.46740 0.50537 -0.13100
F 	F 	0.05196 0.56825 0.53656 -0.40700
H 	H 	0.93114 0.50396 0.55178 0.09200
F 	F 	0.79878 0.39206 0.50769 -0.40400
H 	H 	0.91952 0.45729 0.49241 0.12800
