data_crystal

_cell_length_a 37.85873
_cell_length_b 38.31592
_cell_length_c 20.72577
_cell_angle_alpha 90.34677
_cell_angle_beta  90.34704
_cell_angle_gamma 120.00389

_symmetry_space_group_name_	'P 1'
_symmetry_space_group_name_H-M	'P 1'

loop_
_symmetry_equiv_pos_as_xyz
  x,y,z

loop_
_atom_site_label
_atom_site_type_symbol
_atom_site_fract_x
_atom_site_fract_y
_atom_site_fract_z
_atom_site_charge
C 	C 	0.09673 0.76669 0.35822 0.29500
C 	C 	0.15184 0.70158 0.25008 0.29300
C 	C 	0.09276 0.76316 0.14606 0.29300
Ni	Ni	0.13971 0.82286 0.24829 1.12000
O 	O 	0.12105 0.75128 0.36624 -0.38100
O 	O 	0.11092 0.80359 0.33495 -0.38500
O 	O 	0.09034 0.78237 0.19809 -0.39100
O 	O 	0.12866 0.77138 0.12180 -0.38600
O 	O 	0.14630 0.71633 0.19530 -0.39000
O 	O 	0.15758 0.78472 0.25256 -0.71800
H 	H 	0.13089 0.75978 0.25350 0.15100
C 	C 	0.12049 0.34375 0.37706 0.29500
C 	C 	0.10935 0.33732 0.15897 0.29400
Ni	Ni	0.15456 0.32209 0.26111 1.11900
O 	O 	0.14554 0.36247 0.13334 -0.39000
O 	O 	0.10606 0.31837 0.21422 -0.39300
O 	O 	0.14752 0.38293 0.37959 -0.38000
O 	O 	0.12951 0.31742 0.35040 -0.38500
H 	H 	0.15247 0.38027 0.26606 0.15400
C 	C 	0.00659 0.29950 0.03167 -0.00100
C 	C 	0.01545 0.28653 0.89384 -0.17000
C 	C 	0.03044 0.34037 0.05057 0.02400
C 	C 	0.06305 0.35194 0.09423 -0.01900
C 	C 	0.07268 0.32347 0.11799 -0.10600
C 	C 	0.04944 0.28272 0.09753 0.09800
C 	C 	0.01581 0.27093 0.05612 -0.09300
C 	C 	0.02121 0.37163 0.02445 -0.17300
H 	H 	0.08141 0.38327 0.10892 0.03200
C 	C 	0.06049 0.25178 0.11903 -0.20400
H 	H 	0.02384 0.26452 0.91251 0.06200
H 	H 	0.03955 0.31751 0.90770 0.06100
H 	H 	0.01436 0.28463 0.84028 0.05800
H 	H 	0.04478 0.40262 0.03941 0.05700
H 	H 	0.02026 0.37040 0.97088 0.06200
H 	H 	0.05305 0.24491 0.17079 0.07300
H 	H 	0.09349 0.26307 0.11172 0.07600
H 	H 	0.04339 0.22319 0.09102 0.06300
C 	C 	0.04731 0.29071 0.51346 -0.09600
C 	C 	0.01497 0.29684 0.49660 0.00500
C 	C 	0.01838 0.32068 0.44270 0.02300
C 	C 	0.05324 0.33595 0.40406 -0.01600
C 	C 	0.08487 0.32836 0.41941 -0.10800
C 	C 	0.08254 0.30674 0.47584 0.10100
H 	H 	0.05555 0.35331 0.36156 0.03100
C 	C 	0.11651 0.29892 0.49445 -0.20500
H 	H 	0.04463 0.27266 0.55523 0.05100
H 	H 	0.11410 0.28954 0.54561 0.06500
H 	H 	0.14673 0.32653 0.48901 0.08400
H 	H 	0.11479 0.27439 0.46346 0.07600
H 	H 	0.15649 0.30967 0.03744 0.08000
C 	C 	0.15229 0.89662 0.41469 -0.20500
H 	H 	0.14423 0.89438 0.36264 0.06600
H 	H 	0.13942 0.91356 0.43928 0.06400
H 	H 	0.13788 0.86593 0.43539 0.08100
C 	C 	0.01463 0.74929 0.47702 0.02300
C 	C 	0.05096 0.76793 0.44198 -0.01300
C 	C 	0.05722 0.74746 0.39106 -0.10800
C 	C 	0.02609 0.70834 0.37317 0.09600
C 	C 	0.00813 0.77220 0.53069 -0.17000
H 	H 	0.07464 0.79823 0.45489 0.03600
C 	C 	0.03001 0.68774 0.31360 -0.20500
H 	H 	0.03073 0.80494 0.52894 0.05700
H 	H 	0.01126 0.76062 0.57808 0.06200
H 	H 	0.05290 0.67826 0.32217 0.07100
H 	H 	0.03962 0.70851 0.27195 0.07300
C 	C 	0.00834 0.68174 0.04314 -0.08900
C 	C 	0.03583 0.76128 0.08354 -0.01600
C 	C 	0.05613 0.74125 0.10495 -0.10300
C 	C 	0.04168 0.70080 0.08601 0.09000
H 	H 	0.04677 0.79219 0.09868 0.03900
C 	C 	0.06140 0.67781 0.11162 -0.20200
H 	H 	0.09212 0.68982 0.09039 0.07500
H 	H 	0.04314 0.64519 0.09937 0.06500
H 	H 	0.06411 0.68057 0.16504 0.07300
H 	H 	0.01747 0.69405 0.89762 0.06300
H 	H 	0.01392 0.73936 0.89279 0.06100
C 	C 	0.13134 0.60093 0.31362 -0.09400
C 	C 	0.13740 0.58412 0.25751 0.00300
C 	C 	0.13859 0.60144 0.19710 0.02200
C 	C 	0.14011 0.63875 0.19474 -0.01700
C 	C 	0.13922 0.65823 0.25187 -0.10600
C 	C 	0.13117 0.63744 0.31113 0.09500
C 	C 	0.14807 0.55202 0.26324 0.00200
C 	C 	0.14129 0.58177 0.13553 -0.17100
H 	H 	0.14419 0.65357 0.14876 0.03800
C 	C 	0.12403 0.65451 0.37217 -0.20300
H 	H 	0.12861 0.58654 0.35968 0.05000
C 	C 	0.12677 0.48057 0.26226 0.09400
C 	C 	0.11710 0.51150 0.26077 -0.09300
C 	C 	0.09302 0.43713 0.26028 -0.20300
H 	H 	0.08551 0.50407 0.25687 0.04800
H 	H 	0.15364 0.67458 0.39667 0.07000
H 	H 	0.10442 0.62999 0.40573 0.06500
H 	H 	0.10824 0.67167 0.36178 0.07200
H 	H 	0.11828 0.54913 0.13525 0.06200
H 	H 	0.13530 0.59525 0.09248 0.05600
H 	H 	0.06289 0.43428 0.27022 0.06400
H 	H 	0.09847 0.41949 0.29736 0.07100
H 	H 	0.09163 0.42397 0.21186 0.07400
C 	C 	0.00176 0.74181 0.04233 0.02700
H 	H 	0.00055 0.66060 0.30028 0.06500
O 	O 	0.16330 0.85026 0.16381 -0.39300
C 	C 	0.16811 0.49059 0.26455 -0.10400
O 	O 	0.17185 0.43864 0.20439 -0.38500
H 	H 	0.17154 0.23501 0.53261 0.05600
O 	O 	0.17341 0.31291 0.17511 -0.39800
H 	H 	0.17223 0.58556 0.13131 0.06100
Ni	Ni	0.17677 0.77577 0.17356 1.11900
O 	O 	0.17665 0.72575 0.29659 -0.37700
Ni	Ni	0.17997 0.77924 0.33012 1.11100
C 	C 	0.17954 0.45920 0.25968 0.29300
O 	O 	0.17765 0.37879 0.26301 -0.72000
H 	H 	0.18030 0.28006 0.44948 0.03100
H 	H 	0.18280 0.32388 0.96181 0.06600
C 	C 	0.18686 0.32788 0.01499 -0.20500
H 	H 	0.18620 0.20725 0.98070 0.06100
H 	H 	0.18508 0.96539 0.98325 0.06200
O 	O 	0.18757 0.82982 0.38034 -0.38000
O 	O 	0.19069 0.86687 0.29246 -0.39900
H 	H 	0.18954 0.01407 0.97726 0.05700
C 	C 	0.18925 0.56191 0.26941 0.02400
H 	H 	0.19301 0.16411 0.98288 0.05700
H 	H 	0.19648 0.85573 0.01458 0.03500
Ni	Ni	0.19659 0.40388 0.18210 1.11900
H 	H 	0.19880 0.36027 0.02629 0.07000
C 	C 	0.19797 0.91707 0.42323 0.10100
C 	C 	0.19991 0.86478 0.35291 0.31500
C 	C 	0.19972 0.85922 0.14354 0.31500
H 	H 	0.20088 0.96263 0.48836 0.05100
C 	C 	0.19894 0.53107 0.26947 -0.01600
C 	C 	0.20369 0.24177 0.53461 -0.17000
H 	H 	0.20362 0.21302 0.52703 0.06100
C 	C 	0.20533 0.99793 0.99427 -0.16500
H 	H 	0.20637 0.92530 0.89977 0.06100
H 	H 	0.20506 0.87795 0.90709 0.05900
Ni	Ni	0.20471 0.40720 0.33809 1.11100
O 	O 	0.20514 0.45894 0.30386 -0.37500
O 	O 	0.20460 0.32387 0.30083 -0.39400
C 	C 	0.20724 0.19652 0.99626 -0.16700
H 	H 	0.20984 0.00232 0.04731 0.06000
C 	C 	0.20997 0.33672 0.15189 0.31800
O 	O 	0.20892 0.36245 0.38816 -0.38400
H 	H 	0.21075 0.19910 0.04959 0.05900
O 	O 	0.21336 0.83400 0.15141 -0.40000
C 	C 	0.21214 0.28898 0.44441 -0.01200
H 	H 	0.21611 0.25394 0.58346 0.06200
C 	C 	0.21494 0.88630 0.03282 -0.01500
C 	C 	0.21586 0.31486 0.04044 0.09700
C 	C 	0.21813 0.95100 0.46381 -0.09700
C 	C 	0.21717 0.33661 0.36004 0.31500
H 	H 	0.22217 0.29238 0.94800 0.04800
C 	C 	0.22124 0.89321 0.09949 -0.11300
C 	C 	0.22337 0.91071 0.91829 -0.17200
C 	C 	0.22056 0.90175 0.39223 -0.11700
H 	H 	0.21732 0.62044 0.31581 0.06400
H 	H 	0.22524 0.93724 0.21822 0.07800
C 	C 	0.22293 0.60532 0.27451 -0.17200
H 	H 	0.22432 0.62138 0.22936 0.06300
O 	O 	0.22721 0.77541 0.20726 -0.38500
C 	C 	0.22726 0.32000 0.10633 -0.11500
O 	O 	0.22785 0.37598 0.15965 -0.40200
C 	C 	0.22944 0.27187 0.48415 0.02100
C 	C 	0.23110 0.29675 0.99853 -0.09000
C 	C 	0.23119 0.91868 0.98979 0.02700
H 	H 	0.23060 0.53858 0.27206 0.04200
C 	C 	0.23571 0.31762 0.39821 -0.11700
O 	O 	0.23972 0.81296 0.29909 -0.38700
H 	H 	0.24584 0.17044 0.91574 0.03300
C 	C 	0.24582 0.93285 0.12356 0.09700
C 	C 	0.24601 0.01324 0.96203 0.02000
H 	H 	0.24589 0.06483 0.92138 0.04200
H 	H 	0.24147 0.20184 0.42982 0.06100
C 	C 	0.24819 0.22141 0.96494 0.01900
O 	O 	0.25041 0.45240 0.21089 -0.38600
C 	C 	0.25403 0.95848 0.01410 -0.00200
H 	H 	0.25278 0.92294 0.89253 0.06100
C 	C 	0.25306 0.80195 0.24913 0.31400
C 	C 	0.25417 0.30770 0.12920 -0.01400
C 	C 	0.25327 0.94093 0.19509 -0.20700
H 	H 	0.25366 0.03674 0.41294 0.06100
H 	H 	0.25319 0.60787 0.28242 0.05800
C 	C 	0.25726 0.28358 0.02166 -0.00200
C 	C 	0.26338 0.20274 0.92409 -0.00900
C 	C 	0.26187 0.96526 0.08056 -0.09300
C 	C 	0.26231 0.04847 0.92525 -0.01600
C 	C 	0.26045 0.96999 0.47319 0.00600
O 	O 	0.26229 0.42630 0.30128 -0.38900
H 	H 	0.26174 0.91979 0.21723 0.07900
C 	C 	0.26294 0.92093 0.40106 -0.01200
H 	H 	0.26294 0.31192 0.17979 0.03300
C 	C 	0.26861 0.99338 0.97053 0.00800
C 	C 	0.26928 0.28942 0.08734 0.02300
C 	C 	0.27168 0.26333 0.97680 0.00800
C 	C 	0.27095 0.28347 0.47707 0.00400
H 	H 	0.27696 0.96948 0.59913 0.04900
C 	C 	0.27605 0.45035 0.25164 0.31500
C 	C 	0.27709 0.32887 0.39044 0.10100
H 	H 	0.27972 0.99588 0.09891 0.04900
H 	H 	0.27859 0.97202 0.20522 0.06600
C 	C 	0.28065 0.00533 0.51707 -0.00000
H 	H 	0.28011 0.90901 0.37708 0.03100
H 	H 	0.28245 0.02297 0.72492 0.07800
H 	H 	0.27911 0.74961 0.26884 0.03900
C 	C 	0.27442 0.21187 0.43464 -0.17000
H 	H 	0.28485 0.24322 0.10440 0.06200
C 	C 	0.28316 0.95505 0.44138 0.01900
C 	C 	0.28592 0.99951 0.58232 -0.09000
C 	C 	0.28670 0.05116 0.42474 -0.17100
C 	C 	0.29004 0.26618 0.51889 0.00400
H 	H 	0.27828 0.18528 0.42644 0.05700
O 	O 	0.29528 0.11592 0.83850 -0.38100
C 	C 	0.28995 0.23060 0.50041 0.02100
C 	C 	0.29229 0.04432 0.49477 0.02400
C 	C 	0.29450 0.31185 0.43038 -0.09600
H 	H 	0.28873 0.35029 0.29246 0.08200
C 	C 	0.30158 0.22533 0.89526 -0.11600
C 	C 	0.30046 0.06363 0.89573 -0.10500
C 	C 	0.29566 0.81107 0.24923 -0.11400
O 	O 	0.30217 0.10002 0.70121 -0.39100
O 	O 	0.30377 0.17106 0.66863 -0.39100
C 	C 	0.30586 0.28392 0.57938 -0.09600
H 	H 	0.30618 0.31144 0.59306 0.05000
C 	C 	0.29799 0.27608 0.11286 -0.17100
C 	C 	0.30588 0.00747 0.93905 -0.09600
C 	C 	0.30224 0.03206 0.62611 0.09200
H 	H 	0.30086 0.03812 0.39321 0.06000
H 	H 	0.29937 0.87777 0.18442 0.08000
H 	H 	0.30117 0.08378 0.41373 0.05700
Ni	Ni	0.30627 0.14643 0.75317 1.11900
O 	O 	0.30751 0.19440 0.79780 -0.39500
H 	H 	0.29151 0.23416 0.39656 0.06100
H 	H 	0.30458 0.88892 0.27016 0.07800
C 	C 	0.30370 0.21211 0.54424 -0.01200
C 	C 	0.30300 0.35979 0.34110 -0.21000
H 	H 	0.31515 0.26274 0.72676 0.08100
C 	C 	0.30927 0.28613 0.94627 -0.09700
H 	H 	0.30365 0.28197 0.16554 0.05700
C 	C 	0.30766 0.07672 0.53871 -0.01700
C 	C 	0.30790 0.02491 0.69589 -0.20100
H 	H 	0.30860 0.99645 0.70177 0.06300
C 	C 	0.30403 0.77986 0.26017 -0.01200
H 	H 	0.30235 0.47263 0.10921 0.07300
H 	H 	0.30296 0.18435 0.53074 0.03700
H 	H 	0.30610 0.38938 0.35390 0.08100
C 	C 	0.31211 0.07084 0.60442 -0.10300
C 	C 	0.31850 0.20434 0.85841 0.31500
H 	H 	0.31514 0.10640 0.52205 0.04100
C 	C 	0.31941 0.10368 0.86505 0.29000
C 	C 	0.31816 0.22906 0.60563 -0.11400
C 	C 	0.31977 0.26551 0.62316 0.10200
C 	C 	0.32150 0.04176 0.90010 0.09400
H 	H 	0.31269 0.43586 0.14622 0.08000
C 	C 	0.32439 0.26748 0.90528 0.10000
H 	H 	0.32286 0.99179 0.94509 0.05000
C 	C 	0.31958 0.88469 0.22735 -0.20900
C 	C 	0.32531 0.10503 0.65005 0.29200
H 	H 	0.33425 0.31255 0.69533 0.06600
H 	H 	0.32706 0.31833 0.95532 0.05000
C 	C 	0.31919 0.48253 0.25143 -0.11500
C 	C 	0.33481 0.28401 0.68917 -0.21000
H 	H 	0.32474 0.72568 0.28827 0.05700
H 	H 	0.32029 0.49527 0.35319 0.03100
C 	C 	0.33066 0.20796 0.65141 0.31400
H 	H 	0.32637 0.32067 0.42519 0.05000
H 	H 	0.32777 0.29266 0.08809 0.06100
C 	C 	0.32869 0.97488 0.45132 -0.16800
C 	C 	0.32799 0.85066 0.23888 0.10100
C 	C 	0.32593 0.46813 0.13362 -0.20600
O 	O 	0.34111 0.19234 0.88829 -0.38100
H 	H 	0.33561 0.97193 0.50246 0.06100
H 	H 	0.33723 0.04970 0.71486 0.06500
H 	H 	0.99509 0.32582 0.59995 0.04900
H 	H 	0.33407 0.36367 0.33864 0.06600
H 	H 	0.34350 0.00732 0.43903 0.05900
H 	H 	0.34222 0.96090 0.42040 0.05600
C 	C 	0.33669 0.50500 0.30813 -0.01100
C 	C 	0.34430 0.78746 0.26032 0.02200
C 	C 	0.34137 0.49438 0.19334 0.10200
H 	H 	0.34807 0.91362 0.21856 0.06500
O 	O 	0.35836 0.12970 0.87825 -0.37900
O 	O 	0.35320 0.14168 0.63026 -0.38800
H 	H 	0.36673 0.29091 0.69656 0.08000
H 	H 	0.36465 0.28401 0.82362 0.08000
C 	C 	0.36145 0.05563 0.86610 -0.19900
H 	H 	0.36248 0.07028 0.81965 0.06600
H 	H 	0.36591 0.02970 0.85496 0.06100
C 	C 	0.35271 0.75354 0.27331 -0.17000
H 	H 	0.35106 0.47564 0.09918 0.06500
O 	O 	0.36300 0.16641 0.76326 -0.72000
H 	H 	0.36284 0.14064 0.76413 0.14900
C 	C 	0.36573 0.29234 0.87522 -0.20900
O 	O 	0.36966 0.22308 0.66462 -0.39800
H 	H 	0.37607 0.32505 0.87750 0.06500
C 	C 	0.99858 0.70682 0.87997 -0.17100
C 	C 	0.36830 0.85816 0.23803 -0.09600
H 	H 	0.36441 0.74646 0.22908 0.06000
C 	C 	0.37653 0.82668 0.24724 0.00400
H 	H 	0.37766 0.78675 0.12371 0.06000
H 	H 	0.37566 0.76226 0.31276 0.06200
C 	C 	0.37391 0.54137 0.30620 0.02100
Ni	Ni	0.38772 0.18800 0.84329 1.11100
H 	H 	0.38842 0.28718 0.90119 0.07800
H 	H 	0.38705 0.07726 0.89751 0.07500
C 	C 	0.37768 0.53166 0.19082 -0.09600
H 	H 	0.37722 0.54756 0.41079 0.05600
H 	H 	0.38495 0.62088 0.23328 0.05100
Ni	Ni	0.39367 0.18834 0.68737 1.12000
H 	H 	0.38559 0.59168 0.36746 0.06100
H 	H 	0.99674 0.70388 0.82651 0.05600
H 	H 	0.39322 0.88830 0.22874 0.04900
H 	H 	0.39570 0.83997 0.11408 0.06200
C 	C 	0.39131 0.56595 0.36721 -0.17000
H 	H 	0.39328 0.54233 0.14529 0.05000
C 	C 	0.39322 0.55588 0.24636 0.00400
O 	O 	0.41293 0.24744 0.81462 -0.39400
H 	H 	0.40980 0.08449 0.71630 0.06800
C 	C 	0.40521 0.81706 0.12017 -0.17100
H 	H 	0.40262 0.68908 0.23889 0.06400
C 	C 	0.41863 0.83441 0.23949 0.00200
C 	C 	0.41672 0.62871 0.23500 -0.09600
O 	O 	0.42506 0.16006 0.71101 -0.38700
H 	H 	0.42993 0.32685 0.76347 0.02900
H 	H 	0.42217 0.81765 0.07625 0.05600
C 	C 	0.43118 0.82606 0.18021 0.02200
C 	C 	0.42654 0.59809 0.24020 0.00400
H 	H 	0.42466 0.57761 0.37060 0.06100
H 	H 	0.43834 0.10956 0.64456 0.07700
C 	C 	0.43978 0.26229 0.76836 0.31500
C 	C 	0.44184 0.16305 0.76903 0.28900
O 	O 	0.44254 0.23832 0.72562 -0.38800
O 	O 	0.44011 0.18655 0.81518 -0.38100
C 	C 	0.43870 0.09456 0.69002 -0.19900
H 	H 	0.44022 0.06711 0.67748 0.06200
H 	H 	0.44692 0.39521 0.77147 0.05500
H 	H 	0.43579 0.85397 0.33819 0.04900
C 	C 	0.43599 0.70179 0.23318 -0.20700
C 	C 	0.44480 0.84605 0.29335 -0.09400
H 	H 	0.44484 0.71793 0.18657 0.08300
C 	C 	0.46170 0.33509 0.76789 -0.01100
C 	C 	0.44751 0.66932 0.23421 0.10000
H 	H 	0.45140 0.72351 0.27351 0.08000
C 	C 	0.47215 0.30485 0.77206 -0.11800
C 	C 	0.47216 0.14943 0.77667 -0.10600
C 	C 	0.48027 0.40804 0.76511 -0.16900
C 	C 	0.46699 0.82382 0.17809 -0.01700
C 	C 	0.47480 0.12303 0.73123 0.09500
C 	C 	0.46780 0.60795 0.24215 0.02000
H 	H 	0.46691 0.55511 0.20383 0.06000
H 	H 	0.46576 0.55743 0.29102 0.05900
H 	H 	0.48874 0.42292 0.71742 0.06000
H 	H 	0.47495 0.81417 0.13393 0.03600
C 	C 	0.49212 0.37593 0.76861 0.01900
H 	H 	0.49609 0.43096 0.80383 0.05900
C 	C 	0.48177 0.84590 0.29031 0.09300
C 	C 	0.47893 0.57534 0.24673 -0.16900
C 	C 	0.52343 0.82058 0.23406 0.29200
C 	C 	0.64430 0.77881 0.14356 0.31500
C 	C 	0.52198 0.72156 0.23515 0.31500
C 	C 	0.65023 0.88218 0.14588 0.29300
C 	C 	0.63497 0.77250 0.34983 0.31700
C 	C 	0.63588 0.87279 0.36229 0.29500
Ni	Ni	0.57724 0.79710 0.16199 1.11100
Ni	Ni	0.65840 0.83523 0.25265 1.11900
Ni	Ni	0.57090 0.79274 0.31782 1.11900
O 	O 	0.54456 0.82621 0.18036 -0.38600
O 	O 	0.52216 0.79556 0.27974 -0.38800
O 	O 	0.65215 0.78509 0.29343 -0.39700
O 	O 	0.60464 0.76252 0.14736 -0.38400
O 	O 	0.66859 0.81503 0.16753 -0.38600
O 	O 	0.59577 0.84801 0.35805 -0.39500
O 	O 	0.52389 0.74495 0.18761 -0.38200
O 	O 	0.54832 0.73587 0.28319 -0.39300
O 	O 	0.66234 0.86249 0.33944 -0.39000
O 	O 	0.62566 0.84693 0.11717 -0.38000
O 	O 	0.66850 0.88446 0.20210 -0.38700
O 	O 	0.60981 0.78373 0.37285 -0.39300
O 	O 	0.60186 0.81647 0.24294 -0.71900
H 	H 	0.60248 0.84247 0.24440 0.15200
C 	C 	0.84787 0.63986 0.63397 0.29200
C 	C 	0.68502 0.53087 0.74712 0.31300
C 	C 	0.74893 0.64420 0.64210 0.31500
C 	C 	0.77970 0.51946 0.74297 0.29300
C 	C 	0.75253 0.64644 0.84811 0.31800
C 	C 	0.84695 0.63475 0.85520 0.29400
Ni	Ni	0.75987 0.57339 0.66516 1.11100
Ni	Ni	0.76168 0.57541 0.82148 1.11900
Ni	Ni	0.80955 0.65761 0.74492 1.11900
O 	O 	0.81020 0.61519 0.61146 -0.37600
O 	O 	0.85453 0.65932 0.69021 -0.38700
O 	O 	0.76117 0.62005 0.87296 -0.39800
O 	O 	0.70565 0.52620 0.70043 -0.38000
O 	O 	0.70403 0.55835 0.79220 -0.39300
O 	O 	0.84013 0.66274 0.82927 -0.39000
O 	O 	0.72947 0.60500 0.64893 -0.39000
O 	O 	0.78730 0.66602 0.66034 -0.38600
O 	O 	0.81861 0.59589 0.85506 -0.39500
O 	O 	0.78376 0.53621 0.68548 -0.37900
O 	O 	0.75648 0.52249 0.78822 -0.38200
O 	O 	0.76391 0.66001 0.78949 -0.40200
O 	O 	0.78468 0.60078 0.74220 -0.72000
H 	H 	0.80936 0.59832 0.74195 0.15300
C 	C 	0.80750 0.27682 0.73192 0.29300
C 	C 	0.76714 0.11280 0.65965 0.31300
C 	C 	0.70873 0.17845 0.74172 0.31400
C 	C 	0.87099 0.21265 0.65083 0.29400
C 	C 	0.76568 0.12576 0.86452 0.31700
C 	C 	0.86503 0.22728 0.86553 0.29400
Ni	Ni	0.78440 0.19775 0.66709 1.11200
Ni	Ni	0.82657 0.16196 0.76285 1.11900
Ni	Ni	0.78223 0.20649 0.82261 1.11800
O 	O 	0.81243 0.25984 0.67919 -0.38300
O 	O 	0.78268 0.25455 0.77886 -0.38900
O 	O 	0.77746 0.11928 0.80843 -0.40000
O 	O 	0.75042 0.13559 0.65800 -0.38500
O 	O 	0.80474 0.12745 0.68129 -0.38400
O 	O 	0.83882 0.24064 0.85918 -0.39900
O 	O 	0.73107 0.19760 0.69173 -0.38200
O 	O 	0.72457 0.16914 0.79056 -0.39400
O 	O 	0.85552 0.19013 0.84689 -0.39000
O 	O 	0.83464 0.19888 0.62292 -0.37600
O 	O 	0.87496 0.19960 0.70832 -0.38500
O 	O 	0.77542 0.16245 0.88318 -0.39800
O 	O 	0.80557 0.19701 0.74881 -0.71800
H 	H 	0.83144 0.22282 0.74771 0.15100
C 	C 	0.61397 0.18828 0.73362 -0.09700
C 	C 	0.58445 0.15064 0.75673 0.00500
C 	C 	0.59527 0.12125 0.77149 0.01900
C 	C 	0.63587 0.13043 0.76416 -0.01200
C 	C 	0.66590 0.16891 0.74437 -0.11700
C 	C 	0.65494 0.19838 0.72996 0.10100
C 	C 	0.54323 0.14381 0.77071 0.00100
C 	C 	0.56385 0.08043 0.79596 -0.16900
H 	H 	0.64426 0.10782 0.77475 0.03700
C 	C 	0.68677 0.24093 0.71281 -0.20700
H 	H 	0.60530 0.21052 0.72166 0.05100
C 	C 	0.53699 0.16311 0.82401 0.02300
C 	C 	0.50197 0.16674 0.82577 -0.02000
C 	C 	0.51146 0.12246 0.72611 -0.09300
C 	C 	0.56893 0.18251 0.87651 -0.17100
H 	H 	0.49883 0.18445 0.86390 0.03800
H 	H 	0.51542 0.10580 0.68706 0.04800
H 	H 	0.67398 0.26146 0.71307 0.06400
H 	H 	0.69860 0.24143 0.66376 0.08100
H 	H 	0.71225 0.25318 0.74847 0.08400
H 	H 	0.53966 0.06443 0.75879 0.05900
H 	H 	0.54992 0.08392 0.84075 0.06000
H 	H 	0.57750 0.06135 0.80726 0.05600
H 	H 	0.55571 0.18719 0.92121 0.05600
H 	H 	0.59374 0.21220 0.86007 0.06000
H 	H 	0.58193 0.16303 0.88901 0.06100
C 	C 	0.54395 0.35619 0.77656 -0.09700
C 	C 	0.53356 0.38641 0.77139 0.00500
C 	C 	0.51355 0.31553 0.77919 0.10300
C 	C 	0.56654 0.42897 0.76829 0.00400
C 	C 	0.52549 0.28385 0.79009 -0.20700
H 	H 	0.57583 0.36445 0.77931 0.05100
C 	C 	0.58998 0.44890 0.82379 0.02100
C 	C 	0.62793 0.48403 0.81682 -0.01200
C 	C 	0.64164 0.50042 0.75551 -0.11400
C 	C 	0.61496 0.48413 0.70171 0.10200
C 	C 	0.57824 0.44758 0.70805 -0.09500
C 	C 	0.57609 0.43131 0.88988 -0.17000
H 	H 	0.64760 0.49746 0.85869 0.03200
C 	C 	0.62588 0.50479 0.63727 -0.20500
H 	H 	0.55941 0.43299 0.66579 0.05000
H 	H 	0.55788 0.29754 0.80585 0.06400
H 	H 	0.52151 0.26667 0.74471 0.08500
H 	H 	0.50655 0.26289 0.82852 0.07900
H 	H 	0.59192 0.45449 0.92828 0.05600
H 	H 	0.58274 0.40650 0.89740 0.06000
H 	H 	0.54283 0.41944 0.89509 0.06000
H 	H 	0.64524 0.49569 0.61020 0.07300
H 	H 	0.64241 0.53807 0.64358 0.07500
H 	H 	0.59801 0.49645 0.60803 0.06400
C 	C 	0.84013 0.46530 0.73383 -0.09400
C 	C 	0.80974 0.42573 0.74703 0.00300
C 	C 	0.77078 0.41782 0.76674 0.02300
C 	C 	0.76167 0.44908 0.76685 -0.01600
C 	C 	0.79141 0.48832 0.75002 -0.10500
C 	C 	0.83152 0.49690 0.73661 0.09700
C 	C 	0.81817 0.39240 0.73679 0.00300
C 	C 	0.73848 0.37586 0.78547 -0.17000
H 	H 	0.73111 0.44268 0.77842 0.04200
C 	C 	0.86494 0.53940 0.72404 -0.20400
H 	H 	0.87029 0.47138 0.72024 0.04900
C 	C 	0.80609 0.36962 0.67888 0.02300
C 	C 	0.80555 0.33279 0.67593 -0.01600
C 	C 	0.81861 0.31948 0.72903 -0.10800
C 	C 	0.83648 0.34530 0.78302 0.09400
C 	C 	0.83512 0.38118 0.78726 -0.09400
C 	C 	0.79143 0.38323 0.62167 -0.17100
H 	H 	0.79294 0.31351 0.63364 0.03700
C 	C 	0.85563 0.33410 0.83709 -0.20300
H 	H 	0.84596 0.39965 0.83066 0.04900
H 	H 	0.86131 0.54822 0.67459 0.07500
H 	H 	0.89558 0.54231 0.72813 0.06400
H 	H 	0.86380 0.56050 0.75985 0.07000
H 	H 	0.75093 0.36349 0.82168 0.06200
H 	H 	0.72793 0.35584 0.74223 0.06000
H 	H 	0.71164 0.37569 0.80722 0.05700
H 	H 	0.78970 0.36603 0.57727 0.05700
H 	H 	0.81276 0.41560 0.61212 0.06400
H 	H 	0.76062 0.37872 0.63128 0.06100
H 	H 	0.87724 0.36109 0.86585 0.06500
H 	H 	0.87314 0.32031 0.81752 0.07400
H 	H 	0.83153 0.31249 0.86964 0.07100
C 	C 	0.93410 0.27920 0.01003 -0.10100
C 	C 	0.97164 0.28616 0.98640 0.00800
C 	C 	0.97493 0.27754 0.92107 0.02100
C 	C 	0.93982 0.25905 0.88175 -0.01800
C 	C 	0.90189 0.25070 0.90593 -0.10900
C 	C 	0.89915 0.26173 0.97032 0.10000
H 	H 	0.94189 0.25058 0.83249 0.03300
C 	C 	0.85942 0.25568 0.99668 -0.20000
H 	H 	0.93196 0.28672 0.05983 0.05000
H 	H 	0.99723 0.23956 0.04171 0.04800
H 	H 	0.85198 0.27746 0.97414 0.07000
H 	H 	0.86113 0.26049 0.04979 0.06000
H 	H 	0.83438 0.22452 0.98683 0.07300
H 	H 	0.99130 0.36598 0.04266 0.05900
C 	C 	0.97670 0.27609 0.53347 0.00200
C 	C 	0.98464 0.32917 0.42560 -0.17100
C 	C 	0.94652 0.23622 0.51731 0.02300
C 	C 	0.91216 0.21585 0.55645 -0.01400
C 	C 	0.90746 0.23478 0.61111 -0.10600
C 	C 	0.93712 0.27497 0.62650 0.09500
C 	C 	0.97178 0.29523 0.58773 -0.09300
C 	C 	0.95155 0.21489 0.45968 -0.17100
H 	H 	0.88917 0.18503 0.54475 0.03900
C 	C 	0.93189 0.29628 0.68398 -0.20600
H 	H 	0.97797 0.34301 0.46759 0.06200
H 	H 	0.95664 0.30068 0.41176 0.06000
H 	H 	0.99308 0.35034 0.38460 0.05700
H 	H 	0.92389 0.18509 0.45068 0.05800
H 	H 	0.97773 0.20998 0.46798 0.06200
H 	H 	0.95707 0.23319 0.41562 0.06100
H 	H 	0.95639 0.32838 0.68696 0.06600
H 	H 	0.93282 0.28130 0.72912 0.07400
H 	H 	0.90222 0.29549 0.68048 0.07300
C 	C 	0.95239 0.67329 0.56414 -0.09300
C 	C 	0.94850 0.68707 0.50352 0.00300
C 	C 	0.91072 0.68277 0.48405 0.02300
C 	C 	0.87765 0.66567 0.52644 -0.01700
C 	C 	0.88210 0.65384 0.58854 -0.10400
C 	C 	0.91972 0.65716 0.60730 0.09300
C 	C 	0.98506 0.70884 0.46286 0.00300
C 	C 	0.90585 0.69728 0.41888 -0.17100
H 	H 	0.84878 0.66293 0.51197 0.04100
C 	C 	0.92667 0.64718 0.67476 -0.20000
H 	H 	0.98152 0.67672 0.57884 0.04900
C 	C 	0.99087 0.68870 0.41089 -0.09400
H 	H 	0.96780 0.65788 0.39948 0.04900
H 	H 	0.93829 0.67453 0.70572 0.07100
H 	H 	0.94950 0.63704 0.67493 0.06200
H 	H 	0.89837 0.62264 0.69579 0.07000
H 	H 	0.91090 0.68016 0.38014 0.06100
H 	H 	0.92821 0.72990 0.41397 0.06100
H 	H 	0.87483 0.69308 0.41192 0.05700
H 	H 	0.97730 0.76881 0.52656 0.06200
C 	C 	0.98847 0.70202 0.02103 -0.00500
C 	C 	0.95264 0.68081 0.97756 0.01100
C 	C 	0.97946 0.76340 0.02175 -0.17600
H 	H 	0.99763 0.65099 0.02734 0.04700
C 	C 	0.95690 0.68501 0.90998 0.02000
C 	C 	0.92191 0.66942 0.87052 -0.01600
C 	C 	0.88295 0.64826 0.89740 -0.10900
C 	C 	0.87878 0.64225 0.96489 0.10300
C 	C 	0.91379 0.65834 0.00430 -0.10200
H 	H 	0.92498 0.67402 0.81890 0.03000
C 	C 	0.83727 0.61832 0.99506 -0.20400
H 	H 	0.91080 0.65436 0.05613 0.05100
H 	H 	0.94725 0.74631 0.03766 0.06300
H 	H 	0.98016 0.76626 0.96845 0.06300
H 	H 	0.99347 0.79419 0.04310 0.05800
H 	H 	0.82404 0.58588 0.98276 0.07400
H 	H 	0.81651 0.62891 0.97765 0.07700
H 	H 	0.83906 0.62150 0.04848 0.06200
C 	C 	0.67814 0.97743 0.43379 -0.09200
C 	C 	0.68719 0.97129 0.49701 0.00300
C 	C 	0.67689 0.93218 0.51698 0.02200
C 	C 	0.65833 0.89991 0.47290 -0.01400
C 	C 	0.65112 0.90638 0.40888 -0.10700
C 	C 	0.66029 0.94521 0.38935 0.09400
C 	C 	0.70833 0.00620 0.54166 0.00400
C 	C 	0.68584 0.92482 0.58499 -0.17000
H 	H 	0.64986 0.86974 0.48821 0.03400
C 	C 	0.65114 0.95237 0.32140 -0.20600
H 	H 	0.68564 0.00744 0.41896 0.04900
C 	C 	0.75113 0.03130 0.54000 0.02200
C 	C 	0.77019 0.06534 0.58064 -0.01400
C 	C 	0.74721 0.07401 0.62404 -0.11200
C 	C 	0.70473 0.04709 0.62901 0.10100
C 	C 	0.68548 0.01417 0.58617 -0.09700
C 	C 	0.77640 0.02260 0.49363 -0.17200
H 	H 	0.80279 0.08575 0.57720 0.04100
C 	C 	0.67960 0.05370 0.67865 -0.20600
H 	H 	0.65268 0.99449 0.58786 0.05000
H 	H 	0.66886 0.94519 0.28664 0.07600
H 	H 	0.65920 0.98420 0.31413 0.06600
H 	H 	0.61806 0.93293 0.31084 0.06700
H 	H 	0.66778 0.93165 0.61958 0.06100
H 	H 	0.71882 0.94429 0.59626 0.06100
H 	H 	0.67793 0.89300 0.59190 0.05700
H 	H 	0.80959 0.04261 0.50272 0.05800
H 	H 	0.76951 0.02730 0.44335 0.06200
H 	H 	0.76954 0.99099 0.49887 0.06200
H 	H 	0.67105 0.07566 0.66028 0.08100
H 	H 	0.69682 0.06517 0.72474 0.08200
H 	H 	0.65122 0.02507 0.68944 0.06400
C 	C 	0.65968 0.97548 0.06797 -0.09200
C 	C 	0.69398 0.98723 0.02921 -0.00000
C 	C 	0.71409 0.96456 0.02932 0.02000
C 	C 	0.69997 0.93085 0.06923 -0.01300
C 	C 	0.66548 0.91887 0.10748 -0.10700
C 	C 	0.64508 0.94127 0.10699 0.09200
C 	C 	0.70924 0.02385 0.98951 0.01000
C 	C 	0.75078 0.97644 0.98745 -0.16500
H 	H 	0.71554 0.91358 0.06998 0.03400
C 	C 	0.60621 0.92726 0.14416 -0.20400
H 	H 	0.64410 0.99274 0.06718 0.04800
C 	C 	0.69279 0.02205 0.92745 0.01700
C 	C 	0.71062 0.05630 0.88828 -0.00900
C 	C 	0.74501 0.09197 0.90975 -0.11700
C 	C 	0.76104 0.09388 0.97247 0.10400
C 	C 	0.74218 0.06007 0.01240 -0.10300
C 	C 	0.65681 0.98352 0.90241 -0.16700
H 	H 	0.69810 0.05502 0.84061 0.03300
C 	C 	0.79785 0.13178 0.99739 -0.20200
H 	H 	0.75414 0.06144 0.06061 0.05100
H 	H 	0.58051 0.90193 0.11770 0.07500
H 	H 	0.59910 0.95191 0.15037 0.06500
H 	H 	0.60880 0.91707 0.19305 0.06800
H 	H 	0.77664 0.00562 0.00467 0.05900
H 	H 	0.74345 0.97942 0.93652 0.06100
H 	H 	0.76064 0.95358 0.98856 0.05700
H 	H 	0.64774 0.98701 0.85284 0.05600
H 	H 	0.63020 0.97444 0.93429 0.06100
H 	H 	0.66457 0.95915 0.90102 0.06100
H 	H 	0.78897 0.15463 0.00890 0.07300
H 	H 	0.82257 0.14386 0.96118 0.08300
H 	H 	0.81049 0.12607 0.04203 0.06300
C 	C 	0.68797 0.75533 0.99675 -0.08900
C 	C 	0.68975 0.72158 0.01788 -0.00200
C 	C 	0.67759 0.70722 0.08114 0.02400
C 	C 	0.66319 0.72662 0.12203 -0.01400
C 	C 	0.66116 0.76021 0.10072 -0.11200
C 	C 	0.67358 0.77472 0.03758 0.09700
C 	C 	0.70553 0.70212 0.97391 0.00700
C 	C 	0.68039 0.67162 0.10532 -0.17100
H 	H 	0.65353 0.71558 0.17049 0.03700
C 	C 	0.67118 0.81055 0.01340 -0.20600
H 	H 	0.69764 0.76637 0.94830 0.04900
C 	C 	0.67921 0.67139 0.93036 0.02100
C 	C 	0.69515 0.65364 0.88899 -0.01300
C 	C 	0.73688 0.66641 0.89034 -0.11700
C 	C 	0.76338 0.69801 0.93244 0.10100
C 	C 	0.74736 0.71533 0.97444 -0.09400
C 	C 	0.63435 0.65787 0.92737 -0.17000
H 	H 	0.67507 0.62981 0.85580 0.03400
C 	C 	0.80868 0.71351 0.93238 -0.20500
H 	H 	0.76746 0.73924 0.00747 0.04800
H 	H 	0.68082 0.81729 0.96232 0.06600
H 	H 	0.69147 0.83767 0.04291 0.08400
H 	H 	0.63932 0.80447 0.01636 0.07300
H 	H 	0.71270 0.67890 0.10563 0.06100
H 	H 	0.66217 0.64496 0.07362 0.06000
H 	H 	0.66859 0.66340 0.15516 0.05800
H 	H 	0.61774 0.63282 0.89205 0.05800
H 	H 	0.63016 0.68338 0.91256 0.06200
H 	H 	0.62040 0.64711 0.97538 0.06200
H 	H 	0.82546 0.74005 0.96498 0.06500
H 	H 	0.82084 0.72287 0.88299 0.07200
H 	H 	0.81487 0.68959 0.94887 0.08000
C 	C 	0.69626 0.75587 0.47836 -0.09600
C 	C 	0.67936 0.71398 0.47464 0.00400
C 	C 	0.64735 0.69110 0.43028 0.02100
C 	C 	0.63302 0.71071 0.38975 -0.01200
C 	C 	0.65034 0.75268 0.39295 -0.11400
C 	C 	0.68238 0.77551 0.43727 0.10100
C 	C 	0.69633 0.69452 0.51617 0.00400
C 	C 	0.62854 0.64593 0.42599 -0.17000
H 	H 	0.60843 0.69333 0.35563 0.03500
C 	C 	0.70195 0.82077 0.44062 -0.20600
H 	H 	0.72077 0.77324 0.51261 0.05000
C 	C 	0.73190 0.69385 0.49809 0.02100
C 	C 	0.74923 0.67809 0.54059 -0.01200
C 	C 	0.73108 0.66226 0.60012 -0.11500
C 	C 	0.69532 0.66262 0.61806 0.10100
C 	C 	0.67818 0.67876 0.57576 -0.09600
C 	C 	0.75187 0.71064 0.43418 -0.17000
H 	H 	0.77666 0.67768 0.52704 0.03800
C 	C 	0.67566 0.64628 0.68236 -0.21000
H 	H 	0.65092 0.67942 0.58942 0.05000
H 	H 	0.72738 0.83428 0.47645 0.06500
H 	H 	0.67896 0.82912 0.45501 0.08300
H 	H 	0.71450 0.83392 0.39283 0.07100
H 	H 	0.61448 0.63223 0.47279 0.06100
H 	H 	0.65227 0.63803 0.41417 0.06000
H 	H 	0.60443 0.63256 0.38799 0.05700
H 	H 	0.77694 0.70425 0.42452 0.05700
H 	H 	0.76486 0.74382 0.43414 0.06200
H 	H 	0.72919 0.69689 0.39427 0.06100
H 	H 	0.69829 0.66127 0.72201 0.08400
H 	H 	0.66375 0.61329 0.68384 0.08000
H 	H 	0.64982 0.65162 0.69118 0.06600
C 	C 	0.49132 0.83169 0.23367 -0.10800
C 	C 	0.51026 0.86001 0.34788 -0.20200
H 	H 	0.50594 0.83364 0.37607 0.07200
H 	H 	0.50438 0.87985 0.37995 0.06500
H 	H 	0.54247 0.87770 0.33217 0.07300
C 	C 	0.49870 0.64855 0.24002 -0.01100
C 	C 	0.48888 0.67926 0.23597 -0.11600
H 	H 	0.53045 0.65630 0.24153 0.03800
H 	H 	0.51250 0.58805 0.24885 0.05700
