data_crystal

_cell_length_a 28.69485
_cell_length_b 30.17343
_cell_length_c 29.21026
_cell_angle_alpha 90.82708
_cell_angle_beta  89.58887
_cell_angle_gamma 89.44937

_symmetry_space_group_name_	'P 1'
_symmetry_space_group_name_H-M	'P 1'

loop_
_symmetry_equiv_pos_as_xyz
  x,y,z

loop_
_atom_site_label
_atom_site_type_symbol
_atom_site_fract_x
_atom_site_fract_y
_atom_site_fract_z
_atom_site_charge
Zn	Zn	0.57158 0.49451 0.47666 1.22500
Zn	Zn	0.55090 0.55127 0.57084 1.20300
C 	C 	0.44705 0.58422 0.39979 0.31700
Zn	Zn	0.48149 0.55197 0.49095 1.22500
Zn	Zn	0.52159 0.51473 0.38957 1.19900
H 	H 	0.56249 0.58417 0.49225 0.18800
C 	C 	0.46448 0.48854 0.56493 0.31000
O 	O 	0.56966 0.47135 0.36869 -0.45400
O 	O 	0.58476 0.43701 0.43663 -0.38200
O 	O 	0.54857 0.55653 0.50369 -0.79200
O 	O 	0.60812 0.51403 0.57794 -0.45000
O 	O 	0.62529 0.52324 0.44643 -0.42100
O 	O 	0.58777 0.45734 0.52977 -0.42400
O 	O 	0.57637 0.56301 0.40192 -0.40800
O 	O 	0.49629 0.58300 0.59680 -0.44200
H 	H 	0.49103 0.46983 0.45635 0.18300
O 	O 	0.46734 0.61000 0.53011 -0.40200
O 	O 	0.50786 0.49815 0.45336 -0.79900
O 	O 	0.48596 0.57077 0.37973 -0.44200
O 	O 	0.44526 0.51446 0.53417 -0.42100
O 	O 	0.44025 0.57951 0.44430 -0.42600
O 	O 	0.50948 0.49069 0.57326 -0.40200
C 	C 	0.58245 0.43593 0.39162 0.31000
C 	C 	0.60845 0.47163 0.56725 0.32900
C 	C 	0.61859 0.55469 0.41661 0.31400
C 	C 	0.47296 0.61344 0.57457 0.31700
Zn	Zn	0.00050 0.47863 0.53896 1.22000
Zn	Zn	0.01101 0.53632 0.44390 1.19800
C 	C 	0.12392 0.57133 0.61310 0.33400
Zn	Zn	0.07969 0.54617 0.52251 1.22500
Zn	Zn	0.06516 0.48984 0.61904 1.19900
H 	H 	0.99496 0.56695 0.52307 0.19500
C 	C 	0.10721 0.48671 0.44754 0.30700
O 	O 	0.01509 0.45117 0.64379 -0.45100
O 	O 	0.99969 0.41879 0.57498 -0.40000
O 	O 	0.01299 0.54119 0.51088 -0.80800
O 	O 	0.95964 0.49334 0.43465 -0.45900
O 	O 	0.95668 0.50705 0.58462 -0.42400
O 	O 	0.97587 0.44076 0.48852 -0.41700
O 	O 	0.01590 0.54530 0.61850 -0.42000
O 	O 	0.05834 0.57566 0.41769 -0.45200
H 	H 	0.08523 0.45855 0.54051 0.18500
O 	O 	0.08245 0.60601 0.48534 -0.39700
O 	O 	0.06682 0.48439 0.55187 -0.79500
O 	O 	0.11745 0.53172 0.63045 -0.45300
O 	O 	0.12232 0.51705 0.47684 -0.42500
O 	O 	0.10511 0.58321 0.57388 -0.42100
O 	O 	0.06212 0.48209 0.44027 -0.40800
C 	C 	0.99661 0.41876 0.61963 0.32900
C 	C 	0.95965 0.45196 0.44813 0.33700
C 	C 	0.97092 0.53936 0.61209 0.31400
C 	C 	0.07953 0.60727 0.44057 0.32100
Zn	Zn	0.61727 0.52362 0.01190 1.22100
Zn	Zn	0.57080 0.48948 0.91099 1.19900
C 	C 	0.47364 0.46983 0.08903 0.33700
Zn	Zn	0.51625 0.48657 0.99814 1.22500
Zn	Zn	0.55111 0.53280 0.09418 1.20000
H 	H 	0.58928 0.44356 0.98111 0.18700
C 	C 	0.48928 0.55521 0.93499 0.30700
O 	O 	0.61083 0.55356 0.11932 -0.45000
O 	O 	0.64433 0.57639 0.05264 -0.39400
O 	O 	0.57973 0.47473 0.97613 -0.79200
O 	O 	0.62653 0.52403 0.89510 -0.44800
O 	O 	0.64764 0.47916 0.05305 -0.41900
O 	O 	0.65780 0.54799 0.96312 -0.41800
O 	O 	0.57933 0.46518 0.09024 -0.40500
O 	O 	0.51227 0.46272 0.89023 -0.46100
H 	H 	0.54414 0.57098 0.01776 0.18400
O 	O 	0.48895 0.43347 0.95818 -0.38300
O 	O 	0.55244 0.54063 0.02746 -0.79600
O 	O 	0.48786 0.50827 0.10504 -0.45400
O 	O 	0.47400 0.52738 0.96580 -0.43100
O 	O 	0.49021 0.45357 0.05010 -0.43200
O 	O 	0.53290 0.55266 0.92049 -0.40500
C 	C 	0.63925 0.57985 0.09732 0.31500
C 	C 	0.64752 0.55471 0.91969 0.32400
C 	C 	0.62410 0.45701 0.08418 0.30500
C 	C 	0.48811 0.43359 0.91321 0.31400
Zn	Zn	0.55536 0.97264 0.44507 1.22500
Zn	Zn	0.45172 0.99213 0.49397 1.20900
C 	C 	0.62688 0.08778 0.55007 0.32900
Zn	Zn	0.53646 0.05027 0.51498 1.22300
Zn	Zn	0.63783 0.03316 0.46526 1.19700
H 	H 	0.52532 0.97061 0.53277 0.18500
C 	C 	0.46889 0.08790 0.45355 0.31000
O 	O 	0.66860 0.98478 0.43032 -0.44700
O 	O 	0.60439 0.96252 0.39094 -0.38900
O 	O 	0.51845 0.98864 0.50554 -0.79100
O 	O 	0.44230 0.94723 0.44472 -0.45300
O 	O 	0.59301 0.93119 0.48151 -0.43500
O 	O 	0.50866 0.94881 0.40021 -0.41800
O 	O 	0.62754 0.98760 0.52202 -0.40100
O 	O 	0.42262 0.03147 0.53986 -0.46000
H 	H 	0.56294 0.05328 0.42520 0.18700
O 	O 	0.48956 0.05824 0.57123 -0.39600
O 	O 	0.57114 0.03549 0.45225 -0.80100
O 	O 	0.64500 0.08385 0.50871 -0.46600
O 	O 	0.50074 0.09597 0.48464 -0.44300
O 	O 	0.58533 0.07137 0.55926 -0.41400
O 	O 	0.45543 0.04681 0.44434 -0.40200
C 	C 	0.64902 0.95862 0.39988 0.32000
C 	C 	0.46299 0.94381 0.40453 0.33400
C 	C 	0.61940 0.94492 0.51563 0.30200
C 	C 	0.44410 0.06059 0.56560 0.32000
Zn	Zn	0.94345 0.51333 0.01654 1.22600
Zn	Zn	0.99281 0.47769 0.11504 1.19700
C 	C 	0.08166 0.46107 0.93278 0.33500
Zn	Zn	0.04382 0.47312 0.02657 1.22100
Zn	Zn	0.00893 0.52852 0.93569 1.20200
H 	H 	0.97083 0.43161 0.04364 0.18300
C 	C 	0.07095 0.54362 0.08764 0.30600
O 	O 	0.95037 0.55409 0.91346 -0.44400
O 	O 	0.91625 0.56983 0.98277 -0.38400
O 	O 	0.98086 0.46248 0.04942 -0.78500
O 	O 	0.93684 0.51281 0.13367 -0.44900
O 	O 	0.91262 0.47256 0.97231 -0.41600
O 	O 	0.90322 0.53375 0.06669 -0.42500
O 	O 	0.97828 0.46232 0.92827 -0.39000
O 	O 	0.05379 0.45153 0.13200 -0.45900
H 	H 	0.01503 0.55957 0.01480 0.18300
O 	O 	0.07108 0.41820 0.06314 -0.39200
O 	O 	0.00759 0.52975 0.00254 -0.80400
O 	O 	0.07189 0.50280 0.92509 -0.45000
O 	O 	0.08704 0.51167 0.06071 -0.41700
O 	O 	0.06819 0.44216 0.97096 -0.42500
O 	O 	0.02821 0.54126 0.10435 -0.42300
C 	C 	0.92210 0.57835 0.93917 0.31900
C 	C 	0.91704 0.54333 0.10844 0.32000
C 	C 	0.93422 0.45345 0.93720 0.30900
C 	C 	0.07600 0.42075 0.10783 0.31200
Zn	Zn	0.00710 0.99110 0.58064 1.22300
Zn	Zn	0.11425 0.00582 0.53813 1.19300
C 	C 	0.94343 0.09093 0.45840 0.32400
Zn	Zn	0.02947 0.05618 0.50225 1.21900
Zn	Zn	0.92336 0.04041 0.54430 1.19700
H 	H 	0.04485 0.97456 0.49637 0.18400
C 	C 	0.08821 0.10152 0.56762 0.30700
O 	O 	0.89552 0.99641 0.58542 -0.43800
O 	O 	0.95668 0.99119 0.63429 -0.38800
O 	O 	0.04834 0.99690 0.52122 -0.78300
O 	O 	0.12286 0.96645 0.59235 -0.43800
O 	O 	0.97484 0.94134 0.55047 -0.41700
O 	O 	0.05272 0.97784 0.62895 -0.42500
O 	O 	0.94126 0.98616 0.49709 -0.40000
O 	O 	0.14305 0.04841 0.49499 -0.44900
H 	H 	0.99219 0.07323 0.58648 0.19200
O 	O 	0.07968 0.05406 0.44893 -0.40800
O 	O 	0.98851 0.05067 0.56186 -0.79700
O 	O 	0.91415 0.08128 0.49172 -0.44900
O 	O 	0.06344 0.10596 0.53012 -0.43400
O 	O 	0.98355 0.06956 0.45320 -0.41800
O 	O 	0.09708 0.06164 0.58369 -0.42100
C 	C 	0.91239 0.98521 0.62539 0.32000
C 	C 	0.09137 0.95457 0.62283 0.32100
C 	C 	0.95368 0.94624 0.51091 0.30400
C 	C 	0.12303 0.06409 0.45809 0.32000
Zn	Zn	0.50096 0.02600 0.93678 1.22200
Zn	Zn	0.46735 0.12185 0.99345 1.19900
C 	C 	0.47734 0.94385 0.07596 0.33300
Zn	Zn	0.48307 0.03652 0.04379 1.21900
Zn	Zn	0.53059 0.94596 0.99280 1.20700
H 	H 	0.42232 0.04981 0.98446 0.18000
C 	C 	0.55735 0.09965 0.04824 0.31300
O 	O 	0.53951 0.92203 0.93024 -0.45800
O 	O 	0.54943 0.98825 0.89491 -0.36800
O 	O 	0.45578 0.05721 0.98640 -0.78000
O 	O 	0.48823 0.13701 0.93095 -0.44900
O 	O 	0.45089 0.98613 0.91601 -0.41800
O 	O 	0.51839 0.07499 0.89636 -0.41500
O 	O 	0.45560 0.94431 0.98060 -0.41400
O 	O 	0.45638 0.14094 0.05825 -0.44900
H 	H 	0.56402 0.02095 0.99693 0.19500
O 	O 	0.43382 0.07369 0.08539 -0.39000
O 	O 	0.53168 0.01054 0.99404 -0.79500
O 	O 	0.51899 0.93745 0.05850 -0.45400
O 	O 	0.53339 0.07112 0.07235 -0.42000
O 	O 	0.45839 0.98383 0.07660 -0.40500
O 	O 	0.54114 0.11375 0.00899 -0.42000
C 	C 	0.55402 0.94483 0.89498 0.31300
C 	C 	0.52335 0.11616 0.91077 0.31800
C 	C 	0.43640 0.95281 0.94082 0.31300
C 	C 	0.43469 0.11725 0.08912 0.31000
Zn	Zn	0.05726 0.03486 0.06070 1.22200
Zn	Zn	0.08401 0.12884 0.00152 1.19200
C 	C 	0.07951 0.94740 0.92788 0.32400
Zn	Zn	0.07452 0.04179 0.95350 1.22000
Zn	Zn	0.01870 0.95631 0.00465 1.20500
H 	H 	0.13475 0.05885 0.01264 0.17800
C 	C 	0.99625 0.10035 0.94429 0.33300
O 	O 	0.00099 0.93656 0.06605 -0.47100
O 	O 	0.00602 0.00359 0.10376 -0.41100
O 	O 	0.10086 0.06486 0.01061 -0.78600
O 	O 	0.06089 0.14879 0.06302 -0.45000
O 	O 	0.10530 0.99189 0.08120 -0.42000
O 	O 	0.04760 0.08539 0.10220 -0.42700
O 	O 	0.09158 0.94316 0.02252 -0.40300
O 	O 	0.09829 0.14515 0.93712 -0.44600
H 	H 	0.99335 0.03448 0.00466 0.18600
O 	O 	0.12362 0.07709 0.91099 -0.38200
O 	O 	0.02470 0.02055 0.00405 -0.80800
O 	O 	0.03573 0.94478 0.94028 -0.46000
O 	O 	0.02436 0.07278 0.92224 -0.45000
O 	O 	0.09836 0.98653 0.92220 -0.39700
O 	O 	0.01021 0.12018 0.98233 -0.41600
C 	C 	0.99297 0.96179 0.10236 0.36400
C 	C 	0.03404 0.12511 0.08978 0.30600
C 	C 	0.11077 0.95228 0.06227 0.31300
C 	C 	0.12243 0.12074 0.90751 0.30500
Zn	Zn	0.78481 0.72922 0.27833 1.22600
Zn	Zn	0.83931 0.73777 0.37609 1.19900
C 	C 	0.88841 0.84758 0.21324 0.31900
Zn	Zn	0.85799 0.80160 0.29842 1.22600
Zn	Zn	0.80581 0.78709 0.19659 1.20000
H 	H 	0.87736 0.72003 0.29904 0.19600
C 	C 	0.78631 0.82686 0.36242 0.30800
O 	O 	0.76237 0.74230 0.17025 -0.44500
O 	O 	0.72441 0.72811 0.23724 -0.39600
O 	O 	0.85037 0.73834 0.30935 -0.79200
O 	O 	0.79483 0.68730 0.38272 -0.45400
O 	O 	0.81287 0.68412 0.23761 -0.44000
O 	O 	0.74295 0.70902 0.32784 -0.42100
O 	O 	0.85834 0.73505 0.20161 -0.40700
O 	O 	0.87526 0.78586 0.40603 -0.44900
H 	H 	0.76825 0.80977 0.27074 0.18300
O 	O 	0.91655 0.80503 0.34266 -0.38500
O 	O 	0.79567 0.79096 0.26299 -0.79500
O 	O 	0.85666 0.83110 0.18531 -0.44300
O 	O 	0.82368 0.84103 0.34083 -0.43100
O 	O 	0.89962 0.82764 0.25166 -0.41400
O 	O 	0.78113 0.78426 0.37070 -0.40700
C 	C 	0.72808 0.72327 0.19264 0.31600
C 	C 	0.75478 0.68272 0.36153 0.32700
C 	C 	0.84685 0.69356 0.20901 0.31100
C 	C 	0.91017 0.80710 0.38714 0.31500
Zn	Zn	0.76926 0.24532 0.82268 1.22400
Zn	Zn	0.67361 0.27839 0.76144 1.20400
C 	C 	0.86681 0.29560 0.69389 0.33600
Zn	Zn	0.76929 0.27595 0.71971 1.22600
Zn	Zn	0.86237 0.23537 0.77149 1.20400
H 	H 	0.74370 0.32232 0.78495 0.18100
C 	C 	0.70580 0.21598 0.67549 0.32100
O 	O 	0.87764 0.21878 0.83429 -0.44600
O 	O 	0.80677 0.19459 0.85909 -0.38100
O 	O 	0.73879 0.29075 0.77679 -0.79700
O 	O 	0.66866 0.21983 0.78976 -0.45700
O 	O 	0.80416 0.29283 0.85601 -0.41800
O 	O 	0.71272 0.22393 0.85452 -0.42700
O 	O 	0.85486 0.30378 0.79640 -0.40700
O 	O 	0.65982 0.32806 0.72127 -0.44800
H 	H 	0.78736 0.19506 0.75570 0.18700
O 	O 	0.72924 0.32384 0.68051 -0.37000
O 	O 	0.79545 0.22609 0.76342 -0.78800
O 	O 	0.88073 0.25738 0.71018 -0.45500
O 	O 	0.74942 0.22802 0.67859 -0.42900
O 	O 	0.82427 0.31068 0.70171 -0.42600
O 	O 	0.67292 0.23833 0.69765 -0.38600
C 	C 	0.85255 0.19063 0.85749 0.31200
C 	C 	0.67282 0.21543 0.83409 0.30400
C 	C 	0.84008 0.31372 0.83821 0.30700
C 	C 	0.68647 0.34026 0.68669 0.31600
Zn	Zn	0.23579 0.79129 0.81108 1.22500
Zn	Zn	0.28179 0.78901 0.70809 1.20300
C 	C 	0.35072 0.67400 0.86136 0.32500
Zn	Zn	0.30809 0.72019 0.78011 1.22700
Zn	Zn	0.26558 0.73071 0.88749 1.19800
H 	H 	0.32481 0.80175 0.78101 0.19300
C 	C 	0.23582 0.69502 0.71546 0.30200
O 	O 	0.22445 0.77550 0.91977 -0.44600
O 	O 	0.17980 0.78831 0.85728 -0.39700
O 	O 	0.29755 0.78358 0.77277 -0.80000
O 	O 	0.23414 0.83735 0.70928 -0.46000
O 	O 	0.26819 0.83470 0.85145 -0.42600
O 	O 	0.18760 0.81265 0.76758 -0.41600
O 	O 	0.31774 0.78201 0.87993 -0.40300
O 	O 	0.32120 0.74868 0.67125 -0.45400
H 	H 	0.22214 0.70994 0.81526 0.18900
O 	O 	0.36249 0.71986 0.73063 -0.39600
O 	O 	0.24928 0.72890 0.82200 -0.79400
O 	O 	0.31713 0.68487 0.89092 -0.44400
O 	O 	0.27219 0.68100 0.73896 -0.42900
O 	O 	0.35601 0.69485 0.82212 -0.41500
O 	O 	0.22783 0.73796 0.71015 -0.40200
C 	C 	0.18697 0.79297 0.90119 0.31700
C 	C 	0.19413 0.83750 0.73139 0.33300
C 	C 	0.30760 0.82392 0.87178 0.30000
C 	C 	0.35503 0.72346 0.68645 0.32200
Zn	Zn	0.27212 0.31145 0.76368 1.22400
Zn	Zn	0.37112 0.27015 0.72119 1.20700
C 	C 	0.19072 0.25209 0.63452 0.31700
Zn	Zn	0.28453 0.28415 0.65988 1.22400
Zn	Zn	0.18172 0.31160 0.71339 1.19800
H 	H 	0.29399 0.23174 0.72569 0.19500
C 	C 	0.36075 0.34895 0.65258 0.30700
O 	O 	0.16196 0.32894 0.77594 -0.45700
O 	O 	0.23058 0.36029 0.79737 -0.39100
O 	O 	0.30309 0.26283 0.72062 -0.79300
O 	O 	0.38276 0.29288 0.78400 -0.45600
O 	O 	0.24021 0.26476 0.79974 -0.41500
O 	O 	0.32338 0.34371 0.79287 -0.42600
O 	O 	0.19595 0.24462 0.73848 -0.41200
O 	O 	0.39280 0.24769 0.66190 -0.43900
H 	H 	0.25218 0.36061 0.69816 0.18100
O 	O 	0.32456 0.23444 0.62552 -0.37800
O 	O 	0.24775 0.32864 0.70380 -0.78800
O 	O 	0.16583 0.28401 0.65395 -0.45400
O 	O 	0.32423 0.33115 0.63225 -0.41700
O 	O 	0.23372 0.25984 0.62079 -0.40800
O 	O 	0.37172 0.33806 0.69485 -0.39900
C 	C 	0.18544 0.35611 0.80240 0.31900
C 	C 	0.36644 0.33064 0.80060 0.33800
C 	C 	0.21086 0.23711 0.78028 0.30700
C 	C 	0.36619 0.22123 0.63804 0.31000
Zn	Zn	0.30738 0.79450 0.20855 1.22400
Zn	Zn	0.26080 0.78266 0.30948 1.19800
C 	C 	0.20381 0.67397 0.14900 0.32000
Zn	Zn	0.24979 0.71141 0.23414 1.22500
Zn	Zn	0.28657 0.73444 0.12690 1.19600
H 	H 	0.21584 0.78948 0.23434 0.18700
C 	C 	0.32449 0.69992 0.30022 0.31100
O 	O 	0.32869 0.77873 0.09790 -0.44900
O 	O 	0.36424 0.80143 0.16406 -0.39900
O 	O 	0.24596 0.77624 0.24362 -0.79100
O 	O 	0.29932 0.83751 0.31133 -0.45700
O 	O 	0.27205 0.83949 0.17345 -0.42200
O 	O 	0.35159 0.81810 0.25486 -0.41400
O 	O 	0.23315 0.78569 0.13472 -0.41900
O 	O 	0.23245 0.73271 0.34289 -0.44700
H 	H 	0.33430 0.71624 0.19661 0.18200
O 	O 	0.19516 0.70108 0.28190 -0.39200
O 	O 	0.30405 0.73150 0.19192 -0.79800
O 	O 	0.23212 0.69307 0.11924 -0.44900
O 	O 	0.29329 0.67968 0.27469 -0.42600
O 	O 	0.21487 0.67057 0.19276 -0.42000
O 	O 	0.32490 0.74344 0.30315 -0.40700
C 	C 	0.36102 0.80176 0.11933 0.31900
C 	C 	0.34102 0.84037 0.29269 0.33100
C 	C 	0.24062 0.82799 0.14315 0.31200
C 	C 	0.19993 0.70681 0.32623 0.31700
Zn	Zn	0.77810 0.23743 0.19140 1.22200
Zn	Zn	0.87525 0.27760 0.24466 1.19900
C 	C 	0.69022 0.29160 0.31947 0.32300
Zn	Zn	0.78611 0.26352 0.29711 1.22600
Zn	Zn	0.68703 0.23021 0.24287 1.19800
H 	H 	0.79805 0.31513 0.23299 0.18900
C 	C 	0.86294 0.21178 0.32946 0.32400
O 	O 	0.66898 0.21388 0.17994 -0.45400
O 	O 	0.73981 0.18794 0.15433 -0.38800
O 	O 	0.80736 0.28393 0.23800 -0.79600
O 	O 	0.88251 0.21717 0.21886 -0.46900
O 	O 	0.74244 0.28436 0.15869 -0.41400
O 	O 	0.83370 0.21497 0.15735 -0.42100
O 	O 	0.69509 0.29859 0.22008 -0.41300
O 	O 	0.88444 0.33017 0.28353 -0.45300
H 	H 	0.76114 0.18600 0.25568 0.17600
O 	O 	0.82913 0.30949 0.33646 -0.36300
O 	O 	0.75407 0.21777 0.25084 -0.78300
O 	O 	0.67077 0.25531 0.30372 -0.46200
O 	O 	0.81744 0.21354 0.32659 -0.43700
O 	O 	0.73404 0.29100 0.33229 -0.41300
O 	O 	0.88857 0.24147 0.30881 -0.38500
C 	C 	0.69397 0.18840 0.15215 0.31100
C 	C 	0.87495 0.20781 0.17563 0.30300
C 	C 	0.71112 0.30974 0.17950 0.31000
C 	C 	0.86412 0.33525 0.32404 0.31800
Zn	Zn	0.29602 0.30680 0.25343 1.22300
Zn	Zn	0.20208 0.26199 0.29800 1.20200
C 	C 	0.38217 0.24204 0.37629 0.31300
Zn	Zn	0.28924 0.27733 0.35548 1.22500
Zn	Zn	0.38957 0.30398 0.29917 1.19600
H 	H 	0.28078 0.22446 0.28893 0.18700
C 	C 	0.21459 0.34386 0.36410 0.30500
O 	O 	0.40568 0.32742 0.23789 -0.45200
O 	O 	0.33428 0.35716 0.22049 -0.39400
O 	O 	0.27025 0.25531 0.29512 -0.79500
O 	O 	0.18897 0.28111 0.23462 -0.45400
O 	O 	0.32641 0.26276 0.21149 -0.41900
O 	O 	0.24023 0.33847 0.23045 -0.42900
O 	O 	0.37465 0.23926 0.26790 -0.42100
O 	O 	0.18054 0.24502 0.35917 -0.44900
H 	H 	0.32011 0.35350 0.32028 0.18000
O 	O 	0.25081 0.22786 0.39065 -0.38800
O 	O 	0.32409 0.32163 0.31254 -0.79100
O 	O 	0.40910 0.26942 0.35370 -0.44200
O 	O 	0.25069 0.32510 0.38407 -0.42000
O 	O 	0.34153 0.25579 0.39252 -0.42000
O 	O 	0.20236 0.33133 0.32233 -0.40100
C 	C 	0.37967 0.35488 0.21406 0.31300
C 	C 	0.20039 0.32011 0.21911 0.33300
C 	C 	0.35694 0.23390 0.22679 0.31100
C 	C 	0.20583 0.22095 0.38679 0.31600
Zn	Zn	0.80183 0.72497 0.75243 1.22600
Zn	Zn	0.77690 0.74606 0.64163 1.19800
C 	C 	0.67669 0.83435 0.79724 0.32900
Zn	Zn	0.72891 0.79433 0.72027 1.22500
Zn	Zn	0.76326 0.78832 0.82777 1.20300
H 	H 	0.72358 0.71310 0.70303 0.18600
C 	C 	0.80217 0.84172 0.67724 0.30500
O 	O 	0.80068 0.74643 0.86427 -0.45000
O 	O 	0.85059 0.72607 0.80629 -0.39300
O 	O 	0.74959 0.73442 0.70317 -0.79100
O 	O 	0.83642 0.71053 0.64059 -0.42500
O 	O 	0.76399 0.68217 0.78672 -0.43500
O 	O 	0.85333 0.69855 0.71568 -0.41700
O 	O 	0.71377 0.73522 0.81503 -0.39900
O 	O 	0.73485 0.78757 0.60858 -0.44600
H 	H 	0.81352 0.80671 0.76094 0.19000
O 	O 	0.68070 0.79675 0.66577 -0.38900
O 	O 	0.78625 0.78722 0.76431 -0.79500
O 	O 	0.71196 0.83349 0.82578 -0.45100
O 	O 	0.75952 0.84501 0.69349 -0.44400
O 	O 	0.67523 0.80738 0.76146 -0.42000
O 	O 	0.81895 0.80308 0.66269 -0.39600
C 	C 	0.83797 0.72475 0.84952 0.31900
C 	C 	0.85067 0.68371 0.67302 0.30200
C 	C 	0.72833 0.69369 0.81319 0.30500
C 	C 	0.69526 0.80488 0.62398 0.31600
C 	C 	0.91092 0.18351 0.14964 -0.08300
C 	C 	0.93255 0.20300 0.11168 0.06600
C 	C 	0.97368 0.18458 0.09366 -0.02300
C 	C 	0.99446 0.14731 0.11383 -0.07200
C 	C 	0.97400 0.12948 0.15378 0.07800
C 	C 	0.93075 0.14560 0.16898 -0.01900
H 	H 	0.98904 0.19878 0.06328 0.06000
H 	H 	0.91471 0.13130 0.19900 0.06000
I 	I 	0.90504 0.26139 0.08176 -0.12700
I 	I 	0.01146 0.08757 0.19911 -0.09100
C 	C 	0.20726 0.86146 0.12484 -0.07600
C 	C 	0.21914 0.90671 0.11923 0.06700
C 	C 	0.18731 0.93578 0.09860 -0.01900
C 	C 	0.14443 0.92046 0.08211 -0.07800
C 	C 	0.13329 0.87524 0.08657 0.07000
C 	C 	0.16376 0.84674 0.10916 -0.02800
H 	H 	0.19635 0.97032 0.09475 0.06000
H 	H 	0.15388 0.81250 0.11366 0.06200
I 	I 	0.28446 0.93325 0.13984 -0.07500
I 	I 	0.07135 0.84766 0.05902 -0.12700
C 	C 	0.14483 0.14261 0.86796 -0.07400
C 	C 	0.11813 0.16937 0.83854 0.07000
C 	C 	0.14022 0.19875 0.80888 -0.02200
C 	C 	0.18893 0.20178 0.80769 -0.07400
C 	C 	0.21588 0.17250 0.83427 0.07200
C 	C 	0.19370 0.14330 0.86444 -0.02800
H 	H 	0.11929 0.22019 0.78760 0.05300
H 	H 	0.21453 0.12222 0.88616 0.05100
I 	I 	0.04435 0.16615 0.83766 -0.10400
I 	I 	0.28964 0.16948 0.82760 -0.13000
C 	C 	0.10851 0.90646 0.92702 -0.08200
C 	C 	0.15651 0.90645 0.93889 0.08200
C 	C 	0.18163 0.86641 0.93828 -0.02000
C 	C 	0.15981 0.82671 0.92610 -0.08000
C 	C 	0.11119 0.82596 0.92278 0.07600
C 	C 	0.08608 0.86562 0.92061 -0.02200
H 	H 	0.21886 0.86663 0.94417 0.06400
H 	H 	0.04891 0.86468 0.91446 0.05600
I 	I 	0.19236 0.96438 0.96089 -0.09700
I 	I 	0.07543 0.76490 0.91885 -0.10500
C 	C 	0.95017 0.11114 0.92432 -0.08700
C 	C 	0.91395 0.13075 0.95078 0.07600
C 	C 	0.87804 0.15382 0.92869 -0.01900
C 	C 	0.87627 0.15408 0.88070 -0.08100
C 	C 	0.90633 0.12583 0.85536 0.07000
C 	C 	0.94343 0.10481 0.87712 -0.01800
H 	H 	0.85201 0.17184 0.94875 0.06800
H 	H 	0.96816 0.08528 0.85697 0.06900
I 	I 	0.90500 0.11495 0.02074 -0.11400
I 	I 	0.89740 0.11592 0.78381 -0.18000
C 	C 	0.91924 0.88245 0.19565 -0.07200
C 	C 	0.96691 0.87378 0.18653 0.06700
C 	C 	0.99300 0.90423 0.16161 0.00400
C 	C 	0.97153 0.94172 0.14291 -0.09300
C 	C 	0.92534 0.95252 0.15569 0.08700
C 	C 	0.89951 0.92295 0.18214 -0.03000
H 	H 	0.02919 0.89685 0.15353 0.04800
H 	H 	0.86337 0.93049 0.19032 0.05100
I 	I 	0.99959 0.81309 0.20497 -0.06000
I 	I 	0.89289 0.01200 0.13361 -0.12300
C 	C 	0.60008 0.11957 0.06705 -0.07700
C 	C 	0.63086 0.09524 0.09489 0.07600
C 	C 	0.66528 0.11758 0.11975 -0.02700
C 	C 	0.67029 0.16356 0.11577 -0.07700
C 	C 	0.64410 0.18638 0.08293 0.07200
C 	C 	0.60885 0.16452 0.05917 -0.01900
H 	H 	0.68690 0.09946 0.14347 0.04900
H 	H 	0.58707 0.18296 0.03586 0.05800
I 	I 	0.62974 0.02482 0.09655 -0.13600
I 	I 	0.65660 0.25416 0.06906 -0.08400
C 	C 	0.41402 0.13974 0.12971 -0.07600
C 	C 	0.44271 0.15972 0.16292 0.07200
C 	C 	0.42325 0.18859 0.19593 -0.01900
C 	C 	0.37527 0.19809 0.19621 -0.07900
C 	C 	0.34594 0.17483 0.16573 0.07300
C 	C 	0.36558 0.14630 0.13227 -0.02600
H 	H 	0.44580 0.20494 0.22037 0.05300
H 	H 	0.34319 0.12987 0.10774 0.04600
I 	I 	0.51550 0.14676 0.16456 -0.09400
I 	I 	0.27213 0.17832 0.17212 -0.14200
C 	C 	0.44800 0.90516 0.08451 -0.08800
C 	C 	0.46643 0.86779 0.10669 0.06800
C 	C 	0.44046 0.82899 0.10867 -0.02000
C 	C 	0.39416 0.82857 0.09361 -0.08500
C 	C 	0.37776 0.86388 0.06699 0.07300
C 	C 	0.40387 0.90264 0.06410 -0.01800
H 	H 	0.45413 0.80091 0.12722 0.05400
H 	H 	0.39030 0.93045 0.04511 0.06600
I 	I 	0.53012 0.87079 0.14344 -0.08100
I 	I 	0.31542 0.85859 0.02849 -0.10000
C 	C 	0.63692 0.86378 0.80772 -0.08300
C 	C 	0.59558 0.84679 0.82638 0.07100
C 	C 	0.56423 0.87534 0.84919 -0.02400
C 	C 	0.57448 0.92059 0.85488 -0.07700
C 	C 	0.61149 0.93848 0.82896 0.07600
C 	C 	0.64325 0.90976 0.80676 -0.02300
H 	H 	0.53376 0.86170 0.86566 0.06000
H 	H 	0.67346 0.92318 0.78953 0.05400
I 	I 	0.58118 0.77783 0.82382 -0.06700
I 	I 	0.61629 0.00735 0.81545 -0.08900
C 	C 	0.56218 0.14233 0.89283 -0.08000
C 	C 	0.60898 0.12907 0.89965 0.07700
C 	C 	0.64512 0.15485 0.88268 -0.01700
C 	C 	0.63541 0.19395 0.85941 -0.08400
C 	C 	0.58893 0.20875 0.85520 0.07300
C 	C 	0.55262 0.18258 0.87124 -0.01800
H 	H 	0.68091 0.14376 0.88651 0.06400
H 	H 	0.51687 0.19366 0.86709 0.06300
I 	I 	0.62714 0.07185 0.93695 -0.14100
I 	I 	0.57262 0.27159 0.82707 -0.20100
C 	C 	0.40316 0.92135 0.92129 -0.08100
C 	C 	0.35492 0.92941 0.92413 0.07400
C 	C 	0.32388 0.89827 0.90598 -0.02200
C 	C 	0.34074 0.85888 0.88523 -0.07700
C 	C 	0.38938 0.85222 0.88023 0.06600
C 	C 	0.42005 0.88292 0.89931 -0.02100
H 	H 	0.28670 0.90417 0.90907 0.06500
H 	H 	0.45725 0.87720 0.89640 0.05400
I 	I 	0.32819 0.98759 0.95698 -0.10700
I 	I 	0.41818 0.79923 0.83994 -0.11900
C 	C 	0.11295 0.14021 0.58685 -0.08000
C 	C 	0.09474 0.18369 0.58290 0.07200
C 	C 	0.12229 0.21995 0.59498 -0.02000
C 	C 	0.16603 0.21357 0.61525 -0.07800
C 	C 	0.18289 0.17011 0.62194 0.07100
C 	C 	0.15706 0.13393 0.60640 -0.02100
H 	H 	0.10866 0.25324 0.59064 0.06300
H 	H 	0.17123 0.10075 0.60992 0.05500
I 	I 	0.02374 0.19605 0.56598 -0.12500
I 	I 	0.24472 0.15738 0.65933 -0.12900
C 	C 	0.18530 0.18173 0.40800 -0.08400
C 	C 	0.13879 0.18232 0.42407 0.06900
C 	C 	0.11779 0.14281 0.43675 -0.01900
C 	C 	0.14333 0.10295 0.43642 -0.08300
C 	C 	0.18998 0.10240 0.42133 0.07300
C 	C 	0.21076 0.14171 0.40739 -0.02600
H 	H 	0.08199 0.14342 0.44884 0.05700
H 	H 	0.24633 0.14088 0.39465 0.05800
I 	I 	0.10056 0.24247 0.43436 -0.07400
I 	I 	0.22892 0.04226 0.41601 -0.11700
C 	C 	0.83076 0.88182 0.67456 -0.07900
C 	C 	0.87928 0.88057 0.68246 0.06800
C 	C 	0.90617 0.91750 0.67186 -0.01600
C 	C 	0.88495 0.95577 0.65445 -0.07900
C 	C 	0.83607 0.95962 0.65546 0.08700
C 	C 	0.80920 0.92231 0.66393 -0.02700
H 	H 	0.94379 0.91538 0.67435 0.06800
H 	H 	0.77159 0.92459 0.66143 0.06600
I 	I 	0.91279 0.82533 0.71317 -0.09600
I 	I 	0.80219 0.02179 0.64645 -0.13800
C 	C 	0.92813 0.12257 0.42335 -0.08200
C 	C 	0.91710 0.10814 0.37855 0.07200
C 	C 	0.89609 0.13770 0.34805 -0.02400
C 	C 	0.88505 0.18126 0.36205 -0.07800
C 	C 	0.89630 0.19564 0.40674 0.06900
C 	C 	0.91828 0.16649 0.43676 -0.02100
H 	H 	0.88785 0.12659 0.31363 0.05100
H 	H 	0.92631 0.17762 0.47124 0.05400
I 	I 	0.92938 0.04155 0.35658 -0.09300
I 	I 	0.87808 0.26015 0.43113 -0.06700
C 	C 	0.15500 0.86314 0.71273 -0.08000
C 	C 	0.14673 0.90708 0.72776 0.06700
C 	C 	0.12215 0.93646 0.69977 -0.01600
C 	C 	0.10489 0.92190 0.65735 -0.08100
C 	C 	0.10776 0.87659 0.64545 0.06500
C 	C 	0.13300 0.84746 0.67302 -0.01800
H 	H 	0.11844 0.97099 0.70998 0.06300
H 	H 	0.13779 0.81321 0.66217 0.05800
I 	I 	0.17218 0.93007 0.79188 -0.08600
I 	I 	0.07525 0.85166 0.58541 -0.12800
C 	C 	0.95045 0.90815 0.47886 -0.07600
C 	C 	0.94150 0.86498 0.49455 0.07000
C 	C 	0.93921 0.82980 0.46310 -0.02000
C 	C 	0.93759 0.83790 0.41595 -0.07600
C 	C 	0.95030 0.88034 0.40019 0.07100
C 	C 	0.95685 0.91495 0.43182 -0.02700
H 	H 	0.93247 0.79674 0.47543 0.05600
H 	H 	0.96669 0.94736 0.41971 0.06500
I 	I 	0.92183 0.85254 0.56347 -0.07000
I 	I 	0.96487 0.89318 0.33010 -0.06900
C 	C 	0.16600 0.64535 0.13070 -0.07800
C 	C 	0.12510 0.63735 0.15643 0.07000
C 	C 	0.09421 0.60422 0.14205 -0.02300
C 	C 	0.10112 0.58182 0.09996 -0.08000
C 	C 	0.13813 0.59497 0.07104 0.07100
C 	C 	0.17154 0.62467 0.08754 -0.02400
H 	H 	0.06440 0.59646 0.16336 0.05600
H 	H 	0.20139 0.63230 0.06625 0.05300
I 	I 	0.10474 0.67923 0.21227 -0.09400
I 	I 	0.14046 0.57748 0.00016 -0.14400
C 	C 	0.10684 0.38965 0.13141 -0.08300
C 	C 	0.15484 0.38704 0.12072 0.07100
C 	C 	0.18489 0.36337 0.14915 -0.01900
C 	C 	0.16798 0.34388 0.18922 -0.08500
C 	C 	0.12012 0.34734 0.20031 0.07200
C 	C 	0.08975 0.36840 0.17034 -0.02400
H 	H 	0.22165 0.36092 0.14057 0.06000
H 	H 	0.05300 0.37088 0.17897 0.03500
I 	I 	0.18384 0.42137 0.06431 -0.08500
I 	I 	0.09339 0.32735 0.26495 -0.14400
C 	C 	0.16047 0.38392 0.83577 -0.08300
C 	C 	0.17096 0.38204 0.88270 0.07400
C 	C 	0.14557 0.40824 0.91396 -0.01800
C 	C 	0.10891 0.43536 0.89900 -0.08400
C 	C 	0.09790 0.43641 0.85196 0.07400
C 	C 	0.12441 0.41144 0.82072 -0.02100
H 	H 	0.15389 0.40706 0.95005 0.06700
H 	H 	0.11640 0.41277 0.78456 0.04500
I 	I 	0.22257 0.33775 0.90784 -0.08200
I 	I 	0.03917 0.47189 0.82685 -0.13600
C 	C 	0.89911 0.58356 0.13122 -0.08400
C 	C 	0.85155 0.59580 0.12891 0.07400
C 	C 	0.83584 0.63388 0.15200 -0.02300
C 	C 	0.86612 0.65837 0.17969 -0.08200
C 	C 	0.91338 0.64611 0.18228 0.06800
C 	C 	0.92980 0.60932 0.15736 -0.02500
H 	H 	0.79945 0.64349 0.14995 0.06100
H 	H 	0.96630 0.59997 0.15925 0.05400
I 	I 	0.80116 0.55540 0.09561 -0.06500
I 	I 	0.95991 0.68020 0.22638 -0.10100
C 	C 	0.90015 0.61764 0.91992 -0.08300
C 	C 	0.85134 0.62250 0.91935 0.07300
C 	C 	0.83136 0.65989 0.89954 -0.02000
C 	C 	0.85958 0.69179 0.87896 -0.08100
C 	C 	0.90839 0.68774 0.88118 0.06900
C 	C 	0.92840 0.65069 0.90155 -0.01900
H 	H 	0.79376 0.66295 0.89790 0.06200
H 	H 	0.96601 0.64741 0.90292 0.04200
I 	I 	0.80675 0.57224 0.94425 -0.05900
I 	I 	0.95270 0.73759 0.85503 -0.07700
C 	C 	0.91064 0.41781 0.91137 -0.07100
C 	C 	0.89138 0.42560 0.86786 0.06900
C 	C 	0.86827 0.39144 0.84445 -0.02200
C 	C 	0.86280 0.34980 0.86451 -0.07400
C 	C 	0.88135 0.34237 0.90851 0.06800
C 	C 	0.90517 0.37630 0.93146 -0.01900
H 	H 	0.85405 0.39748 0.81081 0.05800
H 	H 	0.91944 0.37034 0.96510 0.05100
I 	I 	0.89402 0.48906 0.83758 -0.07100
I 	I 	0.87562 0.28021 0.94105 -0.07300
C 	C 	0.40369 0.20241 0.39617 -0.07800
C 	C 	0.40975 0.19915 0.44380 0.07500
C 	C 	0.42984 0.16097 0.46184 -0.02100
C 	C 	0.44453 0.12583 0.43304 -0.07600
C 	C 	0.44104 0.13013 0.38518 0.07100
C 	C 	0.41955 0.16789 0.36709 -0.02800
H 	H 	0.43560 0.15923 0.49836 0.06200
H 	H 	0.41631 0.17094 0.33032 0.05400
I 	I 	0.39321 0.25282 0.48929 -0.06700
I 	I 	0.47430 0.08424 0.33940 -0.11500
C 	C 	0.67420 0.91839 0.38569 -0.07600
C 	C 	0.69628 0.91590 0.34267 0.06500
C 	C 	0.73250 0.88532 0.33513 -0.01900
C 	C 	0.74711 0.85740 0.37044 -0.08400
C 	C 	0.72376 0.85882 0.41292 0.08000
C 	C 	0.68599 0.88765 0.41939 -0.02300
H 	H 	0.75001 0.88396 0.30215 0.03500
H 	H 	0.66856 0.88898 0.45229 0.06500
I 	I 	0.67687 0.95909 0.28919 -0.10000
I 	I 	0.74939 0.82369 0.47037 -0.09600
C 	C 	0.65131 0.11617 0.58468 -0.08100
C 	C 	0.63916 0.11641 0.63181 0.07300
C 	C 	0.65801 0.14870 0.66124 -0.02400
C 	C 	0.69252 0.17779 0.64572 -0.07500
C 	C 	0.70988 0.17264 0.60053 0.07000
C 	C 	0.68774 0.14367 0.56993 -0.02200
H 	H 	0.64655 0.15048 0.69666 0.06200
H 	H 	0.69961 0.14202 0.53466 0.05700
I 	I 	0.60043 0.06442 0.66209 -0.08000
I 	I 	0.77240 0.20328 0.57808 -0.08400
C 	C 	0.67460 0.84217 0.59917 -0.07600
C 	C 	0.62666 0.84378 0.58930 0.06800
C 	C 	0.60856 0.87913 0.56429 -0.02100
C 	C 	0.63801 0.91236 0.54790 -0.08000
C 	C 	0.68594 0.91095 0.55834 0.07200
C 	C 	0.70365 0.87636 0.58449 -0.02000
H 	H 	0.57174 0.88006 0.55633 0.04600
H 	H 	0.74051 0.87533 0.59229 0.06300
I 	I 	0.58130 0.79188 0.60845 -0.09600
I 	I 	0.73369 0.95783 0.53187 -0.10100
C 	C 	0.41702 0.09593 0.58871 -0.08400
C 	C 	0.38048 0.11820 0.56589 0.06700
C 	C 	0.36664 0.16021 0.58099 -0.01900
C 	C 	0.38401 0.17806 0.62187 -0.08100
C 	C 	0.41447 0.15231 0.64880 0.07400
C 	C 	0.43234 0.11241 0.63105 -0.02000
H 	H 	0.34097 0.17847 0.56160 0.07400
H 	H 	0.45800 0.09401 0.65033 0.06600
I 	I 	0.34167 0.08877 0.51148 -0.09800
I 	I 	0.42880 0.16855 0.71848 -0.17400
C 	C 	0.37611 0.86950 0.31426 -0.07800
C 	C 	0.42117 0.85355 0.32510 0.07200
C 	C 	0.45156 0.88039 0.35049 -0.01700
C 	C 	0.43696 0.92227 0.36690 -0.07900
C 	C 	0.39289 0.93894 0.35402 0.08000
C 	C 	0.36308 0.91273 0.32752 -0.02200
H 	H 	0.48537 0.86738 0.36013 0.06100
H 	H 	0.32903 0.92557 0.31842 0.06100
I 	I 	0.44316 0.78780 0.30793 -0.07700
I 	I 	0.36944 0.00303 0.37522 -0.11700
C 	C 	0.45587 0.58584 0.91290 -0.07700
C 	C 	0.46404 0.63189 0.91118 0.06700
C 	C 	0.43008 0.66028 0.89280 -0.01900
C 	C 	0.38791 0.64329 0.87625 -0.07900
C 	C 	0.38043 0.59726 0.87670 0.06600
C 	C 	0.41413 0.56890 0.89525 -0.02100
H 	H 	0.43604 0.69567 0.89243 0.06300
H 	H 	0.40771 0.53360 0.89619 0.05900
I 	I 	0.52577 0.66010 0.93839 -0.11600
I 	I 	0.31900 0.56946 0.84862 -0.11000
C 	C 	0.44714 0.44041 0.11922 -0.08500
C 	C 	0.41068 0.45680 0.14761 0.07400
C 	C 	0.38910 0.42851 0.17863 -0.02600
C 	C 	0.40163 0.38348 0.17993 -0.08100
C 	C 	0.43534 0.36644 0.14887 0.07000
C 	C 	0.45894 0.39517 0.11998 -0.01700
H 	H 	0.36221 0.44150 0.20151 0.05800
H 	H 	0.48628 0.38215 0.09764 0.06700
I 	I 	0.38378 0.52236 0.14135 -0.11400
I 	I 	0.44771 0.29717 0.14054 -0.09200
C 	C 	0.66207 0.61626 0.12214 -0.08400
C 	C 	0.68485 0.60900 0.16405 0.07000
C 	C 	0.70411 0.64479 0.18792 -0.02300
C 	C 	0.70208 0.68765 0.16995 -0.08100
C 	C 	0.67895 0.69497 0.12839 0.07000
C 	C 	0.65941 0.65927 0.10459 -0.02500
H 	H 	0.72242 0.63898 0.21964 0.05700
H 	H 	0.64129 0.66510 0.07277 0.05200
I 	I 	0.69429 0.54419 0.19062 -0.07800
I 	I 	0.67004 0.75986 0.10231 -0.11900
C 	C 	0.69120 0.34961 0.15636 -0.07100
C 	C 	0.71345 0.36953 0.11840 0.07500
C 	C 	0.69012 0.40285 0.09413 -0.02500
C 	C 	0.64770 0.42104 0.11048 -0.07100
C 	C 	0.62894 0.40524 0.15218 0.07300
C 	C 	0.64879 0.36786 0.17260 -0.02300
H 	H 	0.70619 0.41595 0.06358 0.06400
H 	H 	0.63223 0.35433 0.20270 0.06000
I 	I 	0.78488 0.35738 0.10172 -0.11000
I 	I 	0.57720 0.44107 0.19067 -0.12100
C 	C 	0.70504 0.65926 0.84054 -0.07600
C 	C 	0.68648 0.66838 0.88496 0.07200
C 	C 	0.66866 0.63367 0.91100 -0.02000
C 	C 	0.67232 0.58973 0.89516 -0.07800
C 	C 	0.69521 0.58040 0.85324 0.07700
C 	C 	0.70810 0.61507 0.82493 -0.02600
H 	H 	0.65228 0.64090 0.94385 0.05900
H 	H 	0.72341 0.60745 0.79169 0.06100
I 	I 	0.68869 0.73239 0.91659 -0.11900
I 	I 	0.71813 0.51510 0.83519 -0.10100
C 	C 	0.39569 0.35737 0.83103 -0.08700
C 	C 	0.39843 0.40369 0.82597 0.07600
C 	C 	0.42578 0.42845 0.85587 -0.02200
C 	C 	0.45320 0.40747 0.88881 -0.07800
C 	C 	0.45084 0.36113 0.89373 0.06700
C 	C 	0.42155 0.33647 0.86529 -0.01600
H 	H 	0.42775 0.46403 0.85186 0.06100
H 	H 	0.41947 0.30089 0.86933 0.05800
I 	I 	0.36679 0.43693 0.77018 -0.08700
I 	I 	0.49311 0.32689 0.94149 -0.10200
C 	C 	0.14018 0.45377 0.42749 -0.07700
C 	C 	0.15101 0.45395 0.38038 0.07200
C 	C 	0.17589 0.41832 0.36029 -0.02500
C 	C 	0.19042 0.38225 0.38679 -0.06800
C 	C 	0.18047 0.38273 0.43445 0.06500
C 	C 	0.15601 0.41868 0.45436 -0.01700
H 	H 	0.18383 0.41868 0.32397 0.06400
H 	H 	0.14760 0.41837 0.49057 0.03600
I 	I 	0.13107 0.50806 0.33889 -0.09400
I 	I 	0.19820 0.32871 0.47735 -0.07700
C 	C 	0.93687 0.57236 0.63092 -0.08000
C 	C 	0.94469 0.59427 0.67324 0.07400
C 	C 	0.91688 0.63083 0.68623 -0.02300
C 	C 	0.87861 0.64370 0.65952 -0.07500
C 	C 	0.86735 0.61812 0.62021 0.06700
C 	C 	0.89750 0.58393 0.60522 -0.02500
H 	H 	0.92468 0.64875 0.71761 0.07300
H 	H 	0.89002 0.56614 0.57368 0.05100
I 	I 	0.99357 0.56964 0.72135 -0.08800
I 	I 	0.80259 0.62602 0.58604 -0.16900
C 	C 	0.20631 0.66226 0.69144 -0.07200
C 	C 	0.15731 0.66719 0.69020 0.06300
C 	C 	0.13089 0.63812 0.66320 -0.01500
C 	C 	0.15258 0.60335 0.63851 -0.08600
C 	C 	0.20119 0.59756 0.64094 0.07400
C 	C 	0.22763 0.62637 0.66804 -0.02400
H 	H 	0.09329 0.64181 0.66249 0.05700
H 	H 	0.26504 0.62155 0.66990 0.06800
I 	I 	0.12150 0.71402 0.73310 -0.09600
I 	I 	0.23588 0.54691 0.60218 -0.10800
C 	C 	0.96313 0.38897 0.64095 -0.08400
C 	C 	0.97583 0.36219 0.67803 0.08700
C 	C 	0.94439 0.33098 0.69451 -0.02100
C 	C 	0.90113 0.32500 0.67319 -0.08300
C 	C 	0.88955 0.35035 0.63477 0.07200
C 	C 	0.91963 0.38329 0.62016 -0.01300
H 	H 	0.95350 0.31147 0.72406 0.05300
H 	H 	0.91006 0.40338 0.59115 0.05900
I 	I 	0.04302 0.36585 0.70798 -0.17800
I 	I 	0.82970 0.33634 0.59474 -0.06800
C 	C 	0.11037 0.63652 0.41575 -0.08100
C 	C 	0.09230 0.67069 0.38864 0.07600
C 	C 	0.12212 0.69396 0.35984 -0.02300
C 	C 	0.16963 0.68291 0.35746 -0.08000
C 	C 	0.18747 0.64848 0.38447 0.07300
C 	C 	0.15800 0.62646 0.41437 -0.01600
H 	H 	0.10830 0.72038 0.33898 0.05300
H 	H 	0.17167 0.59957 0.43470 0.06200
I 	I 	0.02038 0.68809 0.39092 -0.15800
I 	I 	0.25690 0.62486 0.37683 -0.07700
C 	C 	0.88766 0.36256 0.35921 -0.06900
C 	C 	0.86240 0.39019 0.39033 0.06500
C 	C 	0.88643 0.41896 0.41965 -0.01300
C 	C 	0.93523 0.41866 0.42038 -0.08700
C 	C 	0.96026 0.38810 0.39263 0.07900
C 	C 	0.93652 0.36100 0.36160 -0.02300
H 	H 	0.86707 0.44141 0.44217 0.05300
H 	H 	0.95609 0.33818 0.33966 0.06100
I 	I 	0.78870 0.38774 0.39679 -0.05800
I 	I 	0.03367 0.38074 0.39780 -0.09400
C 	C 	0.41549 0.61372 0.37433 -0.08000
C 	C 	0.40283 0.60357 0.32882 0.07400
C 	C 	0.37669 0.63407 0.30386 -0.02200
C 	C 	0.35968 0.67328 0.32467 -0.07300
C 	C 	0.37138 0.68295 0.37078 0.07600
C 	C 	0.39999 0.65362 0.39476 -0.01800
H 	H 	0.36757 0.62620 0.26875 0.05500
H 	H 	0.40969 0.66165 0.42968 0.06400
I 	I 	0.41770 0.54044 0.29836 -0.16300
I 	I 	0.34308 0.73869 0.40736 -0.11200
C 	C 	0.63016 0.43934 0.59832 -0.08200
C 	C 	0.62615 0.44403 0.64648 0.07500
C 	C 	0.64780 0.41302 0.67467 -0.02300
C 	C 	0.66900 0.37479 0.65582 -0.07400
C 	C 	0.66952 0.36832 0.60791 0.07100
C 	C 	0.65250 0.40162 0.57955 -0.01800
H 	H 	0.64595 0.41749 0.71153 0.05400
H 	H 	0.65453 0.39709 0.54270 0.06700
I 	I 	0.58142 0.49239 0.67817 -0.13700
I 	I 	0.68724 0.30608 0.57761 -0.06500
C 	C 	0.43664 0.45307 0.58626 -0.07400
C 	C 	0.39649 0.46311 0.61286 0.06900
C 	C 	0.37119 0.42874 0.63318 -0.02100
C 	C 	0.38694 0.38460 0.62942 -0.07000
C 	C 	0.42823 0.37497 0.60438 0.06600
C 	C 	0.45213 0.40900 0.58233 -0.02200
H 	H 	0.34001 0.43657 0.65294 0.05400
H 	H 	0.48345 0.40117 0.56274 0.05900
I 	I 	0.37631 0.52980 0.62739 -0.07600
I 	I 	0.45720 0.31019 0.60074 -0.07600
C 	C 	0.65586 0.58691 0.40736 -0.08000
C 	C 	0.69928 0.57312 0.38886 0.06600
C 	C 	0.73164 0.60480 0.37486 -0.02200
C 	C 	0.72101 0.65019 0.37850 -0.08500
C 	C 	0.67824 0.66403 0.39823 0.07100
C 	C 	0.64609 0.63242 0.41266 -0.02500
H 	H 	0.76472 0.59405 0.36017 0.04800
H 	H 	0.61308 0.64328 0.42744 0.04900
I 	I 	0.71637 0.50502 0.37941 -0.08400
I 	I 	0.66145 0.73233 0.40770 -0.08500
C 	C 	0.38634 0.70070 0.65378 -0.08300
C 	C 	0.36912 0.68010 0.61352 0.07100
C 	C 	0.39838 0.65258 0.58749 -0.01700
C 	C 	0.44477 0.64584 0.60020 -0.08100
C 	C 	0.46306 0.66922 0.63794 0.07400
C 	C 	0.43369 0.69624 0.66468 -0.02100
H 	H 	0.38463 0.63541 0.55774 0.06600
H 	H 	0.44758 0.71355 0.69428 0.06500
I 	I 	0.29966 0.68927 0.58976 -0.09100
I 	I 	0.53525 0.66668 0.65396 -0.12900
C 	C 	0.60386 0.39858 0.36685 -0.08000
C 	C 	0.59313 0.35476 0.37859 0.06600
C 	C 	0.62147 0.31994 0.36262 -0.01700
C 	C 	0.66023 0.32846 0.33471 -0.08600
C 	C 	0.66905 0.37215 0.32061 0.07600
C 	C 	0.63993 0.40662 0.33570 -0.02100
H 	H 	0.61368 0.28626 0.37232 0.05700
H 	H 	0.64671 0.44014 0.32485 0.07000
I 	I 	0.53281 0.34000 0.41804 -0.12500
I 	I 	0.72659 0.38797 0.27780 -0.11800
