data_crystal

_cell_length_a 39.14974
_cell_length_b 38.49589
_cell_length_c 20.36945
_cell_angle_alpha 91.07095
_cell_angle_beta  90.21076
_cell_angle_gamma 90.05839

_symmetry_space_group_name_	'P 1'
_symmetry_space_group_name_H-M	'P 1'

loop_
_symmetry_equiv_pos_as_xyz
  x,y,z

loop_
_atom_site_label
_atom_site_type_symbol
_atom_site_fract_x
_atom_site_fract_y
_atom_site_fract_z
_atom_site_charge
Cd	Cd	0.03221 0.83051 0.17808 1.23800
Cd	Cd	0.03017 0.87404 0.33317 1.17300
O 	O 	0.05148 0.77033 0.18377 -0.32400
O 	O 	0.03353 0.79184 0.09041 -0.35700
C 	C 	0.04542 0.76521 0.12185 0.28400
O 	O 	0.00607 0.88194 0.15867 -0.39300
O 	O 	0.03060 0.91011 0.24763 -0.43600
C 	C 	0.00904 0.90990 0.19769 0.28100
C 	C 	0.97845 0.81565 0.26718 0.30100
O 	O 	0.07413 0.84798 0.27403 -0.45100
O 	O 	0.97101 0.80429 0.20800 -0.30500
O 	O 	0.00890 0.82835 0.27442 -0.54900
C 	C 	0.09344 0.86254 0.23035 0.31200
O 	O 	0.08463 0.85731 0.16919 -0.34700
Cd	Cd	0.06182 0.88200 0.94308 1.24200
Cd	Cd	0.04192 0.94612 0.82522 1.18000
O 	O 	0.10556 0.83898 0.91207 -0.32000
O 	O 	0.08034 0.83803 0.00761 -0.36000
C 	C 	0.10020 0.82206 0.96560 0.28900
O 	O 	0.02852 0.91983 0.99907 -0.37500
O 	O 	0.00339 0.94067 0.90602 -0.43600
C 	C 	0.01081 0.94413 0.96900 0.32000
C 	C 	0.10639 0.93945 0.92849 0.31500
O 	O 	0.03899 0.88616 0.82173 -0.44200
O 	O 	0.11423 0.92260 0.98164 -0.28300
O 	O 	0.08430 0.92457 0.88982 -0.53300
C 	C 	0.01300 0.86726 0.83887 0.31200
O 	O 	0.01439 0.85491 0.89804 -0.36500
C 	C 	0.10253 0.68343 0.86930 0.12300
N 	N 	0.10611 0.68443 0.80301 -0.14100
C 	C 	0.10662 0.65441 0.76690 0.12700
N 	N 	0.10497 0.62344 0.79761 -0.14400
C 	C 	0.09963 0.62233 0.86350 0.12400
N 	N 	0.09803 0.65251 0.89910 -0.14300
C 	C 	0.08259 0.63832 0.16689 0.12100
N 	N 	0.09258 0.64769 0.22884 -0.14100
C 	C 	0.09046 0.62455 0.27824 0.12600
N 	N 	0.08003 0.59155 0.26496 -0.14300
C 	C 	0.07130 0.58169 0.20278 0.12500
N 	N 	0.07214 0.60524 0.15401 -0.14700
Cd	Cd	0.85676 0.97957 0.71620 1.23900
Cd	Cd	0.90506 0.97066 0.86157 1.18900
O 	O 	0.79658 0.96242 0.72239 -0.31600
O 	O 	0.81664 0.99023 0.63814 -0.36700
C 	C 	0.78978 0.97906 0.66915 0.28700
O 	O 	0.90656 0.00669 0.69518 -0.39400
O 	O 	0.93749 0.97673 0.77147 -0.44400
C 	C 	0.93508 0.00216 0.72930 0.28600
C 	C 	0.84700 0.02891 0.82053 0.28800
O 	O 	0.87572 0.93064 0.79594 -0.43700
O 	O 	0.83550 0.04006 0.76467 -0.31500
O 	O 	0.85789 0.99703 0.81950 -0.52000
C 	C 	0.88793 0.91359 0.74543 0.31900
O 	O 	0.88075 0.92645 0.68814 -0.36000
Cd	Cd	0.85231 0.90976 0.46711 1.24200
Cd	Cd	0.90076 0.89500 0.32449 1.15900
O 	O 	0.79333 0.88748 0.46827 -0.31600
O 	O 	0.81529 0.91553 0.55248 -0.35600
C 	C 	0.78769 0.90392 0.52338 0.27900
O 	O 	0.90491 0.92761 0.49725 -0.38300
O 	O 	0.92372 0.93604 0.39235 -0.46900
C 	C 	0.93021 0.93201 0.45539 0.30700
C 	C 	0.88085 0.84315 0.44365 0.32400
O 	O 	0.84803 0.92221 0.33997 -0.45100
O 	O 	0.87176 0.84620 0.50526 -0.28800
O 	O 	0.87204 0.86838 0.40638 -0.55400
C 	C 	0.84168 0.95453 0.35581 0.27500
O 	O 	0.84160 0.96188 0.41858 -0.39800
C 	C 	0.68348 0.05732 0.76585 0.12300
N 	N 	0.69263 0.05643 0.83017 -0.14000
C 	C 	0.67364 0.07342 0.87617 0.12900
N 	N 	0.64573 0.09167 0.85738 -0.14500
C 	C 	0.63565 0.09142 0.79346 0.12600
N 	N 	0.65439 0.07377 0.74784 -0.14500
C 	C 	0.67519 0.97883 0.44120 0.12600
N 	N 	0.64207 0.98444 0.45800 -0.14200
C 	C 	0.62120 0.00232 0.41722 0.12400
N 	N 	0.63363 0.01491 0.36020 -0.14500
C 	C 	0.66682 0.00966 0.34375 0.12500
N 	N 	0.68742 0.99129 0.38389 -0.13500
Cd	Cd	0.89784 0.10630 0.23667 1.24000
Cd	Cd	0.89036 0.03788 0.35197 1.18500
O 	O 	0.87834 0.16336 0.27801 -0.32400
O 	O 	0.90472 0.15755 0.18364 -0.35700
C 	C 	0.89151 0.17845 0.22770 0.28700
O 	O 	0.92740 0.06180 0.18995 -0.37900
O 	O 	0.90085 0.01908 0.24843 -0.43400
C 	C 	0.92625 0.02941 0.21112 0.29500
C 	C 	0.94580 0.10243 0.34143 0.32900
O 	O 	0.85095 0.07443 0.30283 -0.45800
O 	O 	0.95616 0.12344 0.29626 -0.32200
O 	O 	0.91514 0.09029 0.33395 -0.53500
C 	C 	0.83432 0.06830 0.24832 0.30600
O 	O 	0.84658 0.08325 0.19640 -0.34900
Cd	Cd	0.94573 0.15709 0.01752 1.24000
Cd	Cd	0.93115 0.10598 0.87379 1.16800
O 	O 	0.91774 0.21431 0.02151 -0.32000
O 	O 	0.94944 0.19627 0.10276 -0.35500
C 	C 	0.93180 0.22157 0.07790 0.28600
O 	O 	0.96775 0.10508 0.04333 -0.39000
O 	O 	0.97475 0.08751 0.93620 -0.45600
C 	C 	0.97176 0.08000 0.99876 0.30900
C 	C 	0.88278 0.12170 0.00186 0.32100
O 	O 	0.95491 0.16109 0.88911 -0.44700
O 	O 	0.88619 0.13230 0.06276 -0.30200
O 	O 	0.90550 0.13256 0.96124 -0.54300
C 	C 	0.98667 0.16903 0.90192 0.29600
O 	O 	0.99480 0.17159 0.96394 -0.37000
C 	C 	0.97036 0.34963 0.00981 0.11900
N 	N 	0.96539 0.34133 0.94535 -0.13900
C 	C 	0.97333 0.36450 0.89841 0.12800
N 	N 	0.98583 0.39620 0.91603 -0.14400
C 	C 	0.99152 0.40437 0.98023 0.13000
N 	N 	0.98350 0.38118 0.02733 -0.14800
C 	C 	0.91895 0.31694 0.31314 0.12200
N 	N 	0.92951 0.34490 0.27902 -0.14400
C 	C 	0.94178 0.37346 0.31134 0.12700
N 	N 	0.94449 0.37358 0.37782 -0.14400
C 	C 	0.93389 0.34572 0.41212 0.12700
N 	N 	0.92045 0.31771 0.37979 -0.14200
Cd	Cd	0.13326 0.11312 0.71451 1.24100
Cd	Cd	0.08882 0.11566 0.86715 1.17500
O 	O 	0.19134 0.13666 0.72015 -0.32400
O 	O 	0.17241 0.10968 0.63144 -0.35700
C 	C 	0.19811 0.12439 0.66200 0.28200
O 	O 	0.08543 0.08141 0.69495 -0.36500
O 	O 	0.05437 0.10565 0.77988 -0.43500
C 	C 	0.05803 0.08161 0.73332 0.29300
C 	C 	0.14900 0.06298 0.81121 0.34000
O 	O 	0.11202 0.15843 0.80198 -0.45900
O 	O 	0.16190 0.05435 0.75432 -0.30900
O 	O 	0.13528 0.09362 0.81443 -0.54200
C 	C 	0.09627 0.17479 0.75534 0.30900
O 	O 	0.10309 0.16391 0.69572 -0.35100
Cd	Cd	0.12705 0.02759 0.46328 1.24000
Cd	Cd	0.06704 0.01316 0.33328 1.18200
O 	O 	0.16843 0.07428 0.44382 -0.32500
O 	O 	0.16900 0.04498 0.53496 -0.35900
C 	C 	0.18410 0.06789 0.49850 0.28900
O 	O 	0.08810 0.99069 0.50614 -0.36700
O 	O 	0.07109 0.97008 0.40501 -0.43800
C 	C 	0.06532 0.97446 0.46820 0.29400
C 	C 	0.06997 0.07227 0.45184 0.32000
O 	O 	0.12597 0.00980 0.33771 -0.45800
O 	O 	0.08555 0.07770 0.50802 -0.28900
O 	O 	0.08618 0.05275 0.40989 -0.54200
C 	C 	0.14402 0.98264 0.35303 0.31900
O 	O 	0.15538 0.98224 0.41319 -0.35600
C 	C 	0.33285 0.11327 0.72466 0.12300
N 	N 	0.32900 0.10932 0.79044 -0.14000
C 	C 	0.35680 0.10927 0.83051 0.12700
N 	N 	0.38849 0.11211 0.80443 -0.14500
C 	C 	0.39244 0.11517 0.73860 0.12800
N 	N 	0.36464 0.11561 0.69867 -0.14600
C 	C 	0.32159 0.07648 0.42160 0.12200
N 	N 	0.32027 0.07806 0.35504 -0.14200
C 	C 	0.34922 0.07409 0.31913 0.12700
N 	N 	0.37951 0.06893 0.35003 -0.14400
C 	C 	0.38112 0.06831 0.41664 0.12600
N 	N 	0.35223 0.07313 0.45252 -0.14400
C 	C 	0.35287 0.10350 0.90166 -0.04800
C 	C 	0.33302 0.12612 0.94188 0.10400
C 	C 	0.32984 0.11939 0.00919 -0.08900
C 	C 	0.34805 0.09217 0.03781 -0.01100
C 	C 	0.36811 0.06974 0.99776 0.07900
C 	C 	0.36993 0.07541 0.92994 -0.05500
N 	N 	0.31815 0.15500 0.91696 -0.19900
H 	H 	0.31449 0.13647 0.04002 0.05400
C 	C 	0.34758 0.08871 0.11029 -0.00400
N 	N 	0.38589 0.04296 0.02405 -0.20000
H 	H 	0.38502 0.05807 0.89911 0.05000
C 	C 	0.32522 0.06473 0.13839 -0.08800
C 	C 	0.32630 0.05840 0.20614 0.10100
C 	C 	0.34836 0.07851 0.24714 -0.05000
C 	C 	0.37001 0.10321 0.21916 -0.05300
C 	C 	0.37024 0.10819 0.15103 0.06800
H 	H 	0.30802 0.04977 0.10699 0.05600
N 	N 	0.30724 0.03214 0.23081 -0.19900
H 	H 	0.38690 0.11855 0.25054 0.04800
N 	N 	0.39237 0.13149 0.12515 -0.19400
H 	H 	0.28991 0.01856 0.20076 0.08800
H 	H 	0.31073 0.02364 0.27872 0.09500
H 	H 	0.40889 0.14580 0.15570 0.08200
H 	H 	0.39365 0.13551 0.07470 0.08700
H 	H 	0.40066 0.02662 0.99406 0.08700
H 	H 	0.38535 0.03809 0.07426 0.08800
H 	H 	0.32330 0.16316 0.86945 0.09400
H 	H 	0.30244 0.17067 0.94642 0.08600
C 	C 	0.26983 0.10657 0.46270 -0.07300
C 	C 	0.28960 0.07627 0.45959 -0.03200
C 	C 	0.27630 0.04497 0.48486 0.08200
C 	C 	0.24265 0.04429 0.50851 -0.03300
C 	C 	0.22137 0.07338 0.50268 -0.09200
C 	C 	0.23571 0.10541 0.48370 0.12300
N 	N 	0.21682 0.13503 0.48541 -0.20100
H 	H 	0.28050 0.13084 0.44594 0.05400
H 	H 	0.23206 0.02005 0.52560 0.05000
N 	N 	0.29496 0.01516 0.48352 -0.19700
H 	H 	0.22721 0.15844 0.46964 0.08600
H 	H 	0.19222 0.13537 0.50509 0.10500
H 	H 	0.31865 0.01374 0.46046 0.08900
H 	H 	0.28524 0.99251 0.50398 0.08900
C 	C 	0.25563 0.14418 0.63277 -0.03200
C 	C 	0.23364 0.11626 0.64472 -0.09400
C 	C 	0.24786 0.08395 0.66263 0.12600
C 	C 	0.28246 0.08222 0.68022 -0.07200
C 	C 	0.30265 0.11224 0.68145 -0.03100
C 	C 	0.29003 0.14282 0.65239 0.08200
N 	N 	0.31029 0.17123 0.64538 -0.19600
H 	H 	0.24517 0.16828 0.61471 0.04200
H 	H 	0.29295 0.05807 0.69802 0.05600
N 	N 	0.22814 0.05496 0.66576 -0.20200
H 	H 	0.30039 0.19398 0.62557 0.08400
H 	H 	0.33613 0.17084 0.65792 0.09300
H 	H 	0.20310 0.05472 0.64832 0.11900
H 	H 	0.23839 0.03169 0.68266 0.09300
C 	C 	0.93835 0.34540 0.48407 -0.05100
C 	C 	0.95744 0.31898 0.51499 0.10300
C 	C 	0.96011 0.31912 0.58374 -0.08700
C 	C 	0.94673 0.34662 0.62164 -0.00400
C 	C 	0.92873 0.37374 0.59057 0.06900
C 	C 	0.92410 0.37239 0.52217 -0.05200
N 	N 	0.97452 0.29445 0.47908 -0.19900
H 	H 	0.97414 0.29859 0.60766 0.05900
C 	C 	0.95402 0.34803 0.69311 -0.00600
N 	N 	0.91613 0.40119 0.62588 -0.19400
H 	H 	0.90975 0.39274 0.49839 0.04700
C 	C 	0.98663 0.35827 0.71458 -0.08400
C 	C 	0.99436 0.36066 0.78182 0.10200
C 	C 	0.96816 0.35537 0.82835 -0.05000
C 	C 	0.93592 0.34376 0.80699 -0.05300
C 	C 	0.92879 0.33929 0.73970 0.07100
H 	H 	0.00624 0.36381 0.67878 0.05400
N 	N 	0.02713 0.36675 0.80135 -0.19900
H 	H 	0.91611 0.33881 0.84273 0.05100
N 	N 	0.89773 0.32691 0.72023 -0.19400
H 	H 	0.04593 0.37246 0.76688 0.08500
H 	H 	0.03469 0.36375 0.85013 0.09200
H 	H 	0.87902 0.32129 0.75494 0.08500
H 	H 	0.89206 0.32206 0.67080 0.08900
H 	H 	0.90261 0.42086 0.60250 0.08300
H 	H 	0.91989 0.40357 0.67650 0.08900
H 	H 	0.97759 0.29657 0.42845 0.09400
H 	H 	0.98687 0.27399 0.50238 0.09000
C 	C 	0.00821 0.18539 0.85193 -0.13100
C 	C 	0.00577 0.17449 0.78594 -0.06700
C 	C 	0.03355 0.17966 0.74404 0.16800
C 	C 	0.06427 0.19300 0.77023 -0.12400
C 	C 	0.06275 0.21239 0.82904 -0.07600
C 	C 	0.03480 0.20831 0.87070 0.15700
H 	H 	0.98341 0.16056 0.76827 0.03800
O 	O 	0.03078 0.17157 0.67833 -0.27900
H 	H 	0.08507 0.22651 0.84649 0.05500
O 	O 	0.03440 0.22509 0.93071 -0.29300
H 	H 	0.02239 0.24734 0.92317 0.15300
H 	H 	0.03741 0.14682 0.67372 0.16200
C 	C 	0.97349 0.26817 0.10489 -0.03300
C 	C 	0.93928 0.25814 0.09590 -0.09500
C 	C 	0.91455 0.28410 0.08414 0.12300
C 	C 	0.92534 0.31760 0.06755 -0.07200
C 	C 	0.96020 0.32477 0.06021 -0.03300
C 	C 	0.98438 0.30126 0.08565 0.08100
N 	N 	0.01807 0.30969 0.08892 -0.19700
H 	H 	0.99221 0.24913 0.11990 0.05000
H 	H 	0.90663 0.33679 0.05315 0.05300
N 	N 	0.88065 0.27647 0.08499 -0.20100
H 	H 	0.03595 0.29179 0.10586 0.08200
H 	H 	0.02667 0.33432 0.07620 0.08600
H 	H 	0.87202 0.25160 0.09607 0.09900
H 	H 	0.86250 0.29565 0.07551 0.08600
C 	C 	0.03321 0.07820 0.44482 -0.13800
C 	C 	0.01214 0.05107 0.42188 -0.08400
C 	C 	0.97922 0.05808 0.39948 0.17300
C 	C 	0.96820 0.09262 0.39545 -0.15800
C 	C 	0.98693 0.11884 0.42823 -0.04300
C 	C 	0.01967 0.11179 0.45231 0.16500
H 	H 	0.02199 0.02497 0.41747 -0.02200
O 	O 	0.95842 0.03130 0.37907 -0.38700
H 	H 	0.97762 0.14536 0.42891 0.05700
O 	O 	0.03888 0.13803 0.48020 -0.27500
H 	H 	0.05115 0.14878 0.44318 0.14300
H 	H 	0.96486 0.02635 0.33289 0.11100
C 	C 	0.87471 0.24020 0.23136 -0.03400
C 	C 	0.90097 0.21544 0.23211 -0.09200
C 	C 	0.93431 0.22569 0.25227 0.12600
C 	C 	0.93996 0.25977 0.27513 -0.07300
C 	C 	0.91317 0.28371 0.27842 -0.03200
C 	C 	0.88061 0.27446 0.25354 0.08300
N 	N 	0.85491 0.29817 0.25109 -0.19500
H 	H 	0.84930 0.23249 0.21543 0.04400
H 	H 	0.96520 0.26742 0.29221 0.05200
N 	N 	0.96084 0.20291 0.25069 -0.19900
H 	H 	0.83078 0.29096 0.23341 0.08300
H 	H 	0.85882 0.32411 0.26508 0.09000
H 	H 	0.95870 0.17862 0.22779 0.11300
H 	H 	0.98475 0.21021 0.26937 0.08900
C 	C 	0.58545 0.00918 0.43568 -0.05500
C 	C 	0.55831 0.99915 0.39333 0.10800
C 	C 	0.52555 0.01279 0.40412 -0.09100
C 	C 	0.51910 0.03493 0.45807 -0.00300
C 	C 	0.54570 0.04289 0.50328 0.06700
C 	C 	0.57867 0.02978 0.49166 -0.05200
N 	N 	0.56340 0.97591 0.34319 -0.20000
H 	H 	0.50490 0.00593 0.37066 0.05500
C 	C 	0.48416 0.04904 0.46690 -0.00700
N 	N 	0.54002 0.06381 0.55666 -0.19500
H 	H 	0.59941 0.03693 0.52470 0.04800
C 	C 	0.45877 0.02745 0.49228 -0.08600
C 	C 	0.42404 0.03551 0.48408 0.09900
C 	C 	0.41476 0.06568 0.44935 -0.04900
C 	C 	0.44019 0.08967 0.43285 -0.05200
C 	C 	0.47491 0.08145 0.44040 0.07000
H 	H 	0.46602 0.00346 0.51563 0.05200
N 	N 	0.39992 0.01404 0.50891 -0.20200
H 	H 	0.43301 0.11368 0.40945 0.04800
N 	N 	0.49913 0.10434 0.42072 -0.19400
H 	H 	0.40704 0.99089 0.53119 0.08500
H 	H 	0.37422 0.02095 0.50991 0.09200
H 	H 	0.49204 0.12784 0.39970 0.08200
H 	H 	0.52512 0.09945 0.42725 0.08700
H 	H 	0.55960 0.06889 0.59051 0.08500
H 	H 	0.51641 0.07569 0.56448 0.08800
H 	H 	0.58651 0.96264 0.33795 0.09300
H 	H 	0.54357 0.96969 0.31052 0.08500
C 	C 	0.42679 0.11942 0.71134 -0.05300
C 	C 	0.44518 0.09024 0.68763 0.10100
C 	C 	0.48100 0.09104 0.68875 -0.08800
C 	C 	0.49836 0.12086 0.71122 -0.00600
C 	C 	0.47988 0.15187 0.72317 0.06900
C 	C 	0.44406 0.15080 0.72344 -0.05300
N 	N 	0.42866 0.06125 0.66525 -0.20000
H 	H 	0.49527 0.06761 0.67715 0.05300
C 	C 	0.53374 0.11723 0.73566 -0.00600
N 	N 	0.49633 0.18228 0.73696 -0.19400
H 	H 	0.42972 0.17378 0.73787 0.04600
C 	C 	0.56108 0.12515 0.69426 -0.08900
C 	C 	0.59494 0.12045 0.71525 0.09800
C 	C 	0.60132 0.10444 0.77616 -0.05000
C 	C 	0.57396 0.09769 0.81840 -0.05400
C 	C 	0.54027 0.10451 0.79928 0.07100
H 	H 	0.55600 0.13576 0.64626 0.05100
N 	N 	0.62103 0.13272 0.67833 -0.19900
H 	H 	0.57880 0.08613 0.86569 0.05000
N 	N 	0.51431 0.09851 0.84193 -0.19400
H 	H 	0.61627 0.14257 0.63171 0.08200
H 	H 	0.64578 0.13485 0.69728 0.08900
H 	H 	0.51939 0.08837 0.88820 0.08400
H 	H 	0.48902 0.10446 0.83041 0.09100
H 	H 	0.48248 0.20480 0.74825 0.08300
H 	H 	0.52290 0.18412 0.73465 0.08700
H 	H 	0.40209 0.06062 0.66074 0.09500
H 	H 	0.44245 0.03944 0.64946 0.08500
C 	C 	0.67862 0.06580 0.94625 -0.05400
C 	C 	0.70952 0.07412 0.97953 0.11200
C 	C 	0.71331 0.06538 0.04590 -0.09500
C 	C 	0.68679 0.04886 0.07942 0.00000
C 	C 	0.65598 0.04052 0.04603 0.06300
C 	C 	0.65224 0.04916 0.97984 -0.04300
N 	N 	0.73525 0.09105 0.94873 -0.20000
H 	H 	0.73682 0.07181 0.07173 0.06400
C 	C 	0.69088 0.04179 0.15025 -0.00400
N 	N 	0.62992 0.02421 0.07714 -0.19300
H 	H 	0.62872 0.04260 0.95410 0.04700
C 	C 	0.67900 0.06640 0.19633 -0.08500
C 	C 	0.67429 0.05736 0.26213 0.10200
C 	C 	0.68008 0.02265 0.28104 -0.05200
C 	C 	0.69571 0.99931 0.23681 -0.04500
C 	C 	0.70167 0.00878 0.17159 0.07000
H 	H 	0.67236 0.09228 0.18051 0.05400
N 	N 	0.66500 0.08214 0.30703 -0.19900
H 	H 	0.70197 0.97328 0.25236 0.05400
N 	N 	0.71717 0.98597 0.12955 -0.19100
H 	H 	0.65925 0.10732 0.29220 0.08400
H 	H 	0.66525 0.07718 0.35726 0.09100
H 	H 	0.72428 0.96130 0.14525 0.09000
H 	H 	0.72327 0.99285 0.08166 0.09700
H 	H 	0.60724 0.01834 0.05206 0.08100
H 	H 	0.63186 0.01705 0.12617 0.08800
H 	H 	0.73239 0.10024 0.90115 0.09500
H 	H 	0.75834 0.09598 0.97312 0.09200
C 	C 	0.82251 0.97660 0.31005 -0.13300
C 	C 	0.83209 0.97782 0.24383 -0.06800
C 	C 	0.82598 0.00832 0.20896 0.16500
C 	C 	0.81265 0.03735 0.24278 -0.12400
C 	C 	0.79177 0.03066 0.29672 -0.06300
C 	C 	0.79847 0.00110 0.33361 0.14500
H 	H 	0.84520 0.95613 0.22086 0.03400
O 	O 	0.83408 0.01011 0.14366 -0.28000
H 	H 	0.77581 0.05112 0.31715 0.05600
O 	O 	0.78188 0.99631 0.39183 -0.26900
H 	H 	0.79471 0.01053 0.42472 0.12700
H 	H 	0.85782 0.01898 0.14229 0.16600
C 	C 	0.96523 0.93912 0.48045 -0.12100
C 	C 	0.99145 0.91520 0.46723 -0.06900
C 	C 	0.02570 0.92449 0.47819 0.12300
C 	C 	0.03413 0.95889 0.49630 -0.09500
C 	C 	0.00799 0.98086 0.51957 -0.07500
C 	C 	0.97348 0.97132 0.51074 0.18100
H 	H 	0.98546 0.89002 0.44584 -0.00600
O 	O 	0.05096 0.90011 0.47007 -0.29100
H 	H 	0.01422 0.00659 0.53856 0.06900
O 	O 	0.94817 0.99448 0.52705 -0.30400
H 	H 	0.94225 0.98935 0.57315 0.16000
H 	H 	0.05893 0.90234 0.42423 0.04500
C 	C 	0.75774 0.96033 0.52410 -0.03200
C 	C 	0.75580 0.92408 0.52934 -0.09400
C 	C 	0.72370 0.90750 0.52194 0.11800
C 	C 	0.69548 0.92667 0.49954 -0.07000
C 	C 	0.69880 0.96227 0.48743 -0.03400
C 	C 	0.72891 0.97970 0.50696 0.09700
N 	N 	0.73060 0.01498 0.50696 -0.19400
H 	H 	0.78223 0.97325 0.52894 0.05800
H 	H 	0.67166 0.91350 0.48797 0.05400
N 	N 	0.72000 0.87324 0.53521 -0.20200
H 	H 	0.75365 0.02778 0.51688 0.08600
H 	H 	0.70873 0.02999 0.49986 0.09100
H 	H 	0.74002 0.85906 0.55557 0.09600
H 	H 	0.69655 0.86079 0.52757 0.08700
C 	C 	0.96640 0.02189 0.71250 -0.12900
C 	C 	0.99829 0.00501 0.71182 -0.06800
C 	C 	0.02877 0.02438 0.71293 0.12600
C 	C 	0.02755 0.06093 0.71360 -0.09400
C 	C 	0.99574 0.07757 0.70764 -0.08200
C 	C 	0.96529 0.05828 0.70724 0.15300
H 	H 	0.99949 0.97692 0.71348 0.01000
O 	O 	0.05961 0.00752 0.71487 -0.28800
H 	H 	0.99447 0.10562 0.70667 0.05200
O 	O 	0.93453 0.07530 0.70704 -0.36100
H 	H 	0.92837 0.07746 0.66002 0.16100
H 	H 	0.06469 0.00451 0.76216 0.06300
C 	C 	0.84109 0.04890 0.88201 -0.12800
C 	C 	0.82790 0.08273 0.87850 -0.08100
C 	C 	0.83496 0.10683 0.92872 0.15900
C 	C 	0.85636 0.09725 0.98066 -0.14600
C 	C 	0.86121 0.06182 0.99240 -0.05400
C 	C 	0.85334 0.03728 0.94285 0.12000
H 	H 	0.81465 0.09110 0.83476 0.06500
O 	O 	0.82571 0.14091 0.92165 -0.29800
H 	H 	0.87408 0.05368 0.03672 0.05300
O 	O 	0.85359 0.00254 0.95651 -0.26800
H 	H 	0.87785 0.99549 0.95480 0.04700
H 	H 	0.80336 0.14317 0.94408 0.15000
C 	C 	0.75785 0.03416 0.65892 -0.03400
C 	C 	0.75709 0.99787 0.66477 -0.09600
C 	C 	0.72648 0.98171 0.68505 0.12900
C 	C 	0.69999 0.00222 0.71097 -0.07900
C 	C 	0.70378 0.03831 0.71664 -0.03000
C 	C 	0.73141 0.05463 0.68519 0.08100
N 	N 	0.73312 0.08983 0.68165 -0.19500
H 	H 	0.78027 0.04663 0.63897 0.04700
H 	H 	0.67758 0.98988 0.73132 0.05900
N 	N 	0.72302 0.94657 0.68224 -0.20200
H 	H 	0.75425 0.10178 0.66040 0.08300
H 	H 	0.71304 0.10555 0.69798 0.08800
H 	H 	0.74246 0.93069 0.66377 0.10400
H 	H 	0.70045 0.93479 0.69771 0.09000
C 	C 	0.05608 0.54715 0.19055 -0.05300
C 	C 	0.07077 0.51724 0.21820 0.10000
C 	C 	0.05059 0.48756 0.22653 -0.08600
C 	C 	0.01688 0.48641 0.20294 -0.00600
C 	C 	0.00383 0.51471 0.16716 0.06900
C 	C 	0.02365 0.54488 0.16125 -0.05300
N 	N 	0.10426 0.51681 0.23608 -0.19900
H 	H 	0.06097 0.46546 0.25207 0.05400
C 	C 	0.99437 0.45749 0.22278 -0.00100
N 	N 	0.97213 0.51334 0.13971 -0.19300
H 	H 	0.01303 0.56729 0.13704 0.04700
C 	C 	0.96801 0.46438 0.26765 -0.08800
C 	C 	0.94787 0.43734 0.29164 0.10200
C 	C 	0.95589 0.40258 0.27416 -0.05200
C 	C 	0.98091 0.39577 0.22650 -0.04900
C 	C 	0.00034 0.42291 0.20064 0.06800
H 	H 	0.96306 0.49093 0.28362 0.05600
N 	N 	0.92043 0.44491 0.33008 -0.19900
H 	H 	0.98629 0.36915 0.21156 0.05200
N 	N 	0.02505 0.41555 0.15576 -0.19300
H 	H 	0.91558 0.47052 0.34528 0.08400
H 	H 	0.90269 0.42583 0.34226 0.09000
H 	H 	0.02997 0.38987 0.14130 0.08400
H 	H 	0.03941 0.43514 0.13439 0.08900
H 	H 	0.96223 0.53480 0.11541 0.08000
H 	H 	0.95755 0.49062 0.13998 0.08900
H 	H 	0.12066 0.53717 0.22428 0.08800
H 	H 	0.11463 0.49517 0.25911 0.08300
C 	C 	0.08958 0.58900 0.89373 -0.04900
C 	C 	0.09543 0.58263 0.96128 0.10100
C 	C 	0.07891 0.55452 0.99087 -0.08200
C 	C 	0.06086 0.52999 0.95255 -0.00600
C 	C 	0.05789 0.53446 0.88389 0.07200
C 	C 	0.07133 0.56442 0.85560 -0.05600
N 	N 	0.11853 0.60174 0.99656 -0.19500
H 	H 	0.08179 0.55063 0.04319 0.05400
C 	C 	0.04483 0.49981 0.98451 -0.00600
N 	N 	0.04212 0.51016 0.84488 -0.19500
H 	H 	0.06717 0.56878 0.80376 0.05100
C 	C 	0.00939 0.50003 0.99429 -0.08100
C 	C 	0.99135 0.46868 0.00017 0.09300
C 	C 	0.00932 0.43687 0.99770 -0.04900
C 	C 	0.04511 0.43711 0.99749 -0.05700
C 	C 	0.06314 0.46843 0.99155 0.07000
H 	H 	0.99555 0.52437 0.99234 0.05500
N 	N 	0.95677 0.46922 0.00611 -0.19900
H 	H 	0.05892 0.41271 0.99834 0.04400
N 	N 	0.09787 0.46805 0.99041 -0.19400
H 	H 	0.94343 0.49270 0.00448 0.08100
H 	H 	0.94298 0.44655 0.01493 0.08900
H 	H 	0.11117 0.44460 0.99337 0.08200
H 	H 	0.11199 0.49102 0.98861 0.08800
H 	H 	0.03929 0.51419 0.79455 0.08300
H 	H 	0.03336 0.48672 0.86347 0.09100
H 	H 	0.13633 0.61752 0.97339 0.09300
H 	H 	0.12103 0.59841 0.04715 0.08500
C 	C 	0.10480 0.65545 0.69435 -0.04900
C 	C 	0.07823 0.63821 0.65924 0.10000
C 	C 	0.08002 0.63521 0.59053 -0.08600
C 	C 	0.10616 0.65160 0.55585 -0.00500
C 	C 	0.13121 0.67132 0.59059 0.07000
C 	C 	0.13063 0.67246 0.65971 -0.05300
N 	N 	0.05035 0.62575 0.69085 -0.19900
H 	H 	0.06038 0.62090 0.56376 0.05400
C 	C 	0.10640 0.64851 0.48295 -0.00500
N 	N 	0.15591 0.68891 0.55812 -0.19400
H 	H 	0.15054 0.68634 0.68653 0.05000
C 	C 	0.08291 0.66803 0.44689 -0.08600
C 	C 	0.07735 0.66096 0.37971 0.10200
C 	C 	0.09765 0.63553 0.34694 -0.04900
C 	C 	0.12281 0.61773 0.38219 -0.05300
C 	C 	0.12700 0.62346 0.45013 0.07000
H 	H 	0.06740 0.68739 0.47207 0.05500
N 	N 	0.05162 0.67759 0.34798 -0.19900
H 	H 	0.13844 0.59844 0.35707 0.04700
N 	N 	0.15049 0.60456 0.48349 -0.19400
H 	H 	0.03785 0.69729 0.37192 0.08900
H 	H 	0.04390 0.67018 0.30071 0.09900
H 	H 	0.16540 0.58599 0.45888 0.08300
H 	H 	0.15434 0.60812 0.53388 0.08900
H 	H 	0.17454 0.70296 0.58418 0.08500
H 	H 	0.15665 0.68920 0.50691 0.08900
H 	H 	0.04559 0.63216 0.73999 0.09100
H 	H 	0.03189 0.61128 0.66514 0.08300
C 	C 	0.99591 0.97359 0.00679 -0.12500
C 	C 	0.01761 0.99742 0.03931 -0.05100
C 	C 	0.00838 0.03271 0.04423 0.16400
C 	C 	0.97669 0.04367 0.01901 -0.11700
C 	C 	0.95271 0.01856 0.99882 -0.08400
C 	C 	0.96205 0.98345 0.99396 0.18500
H 	H 	0.04295 0.98945 0.05431 0.06100
O 	O 	0.03147 0.05663 0.06808 -0.30500
H 	H 	0.92789 0.02660 0.98145 0.00400
O 	O 	0.93911 0.95943 0.97001 -0.42300
H 	H 	0.92831 0.94929 0.00918 0.16900
H 	H 	0.02683 0.05852 0.11584 0.13800
C 	C 	0.98035 0.86855 0.80250 -0.11600
C 	C 	0.95008 0.85820 0.83338 -0.06300
C 	C 	0.91848 0.86879 0.80890 0.16100
C 	C 	0.91711 0.89021 0.75383 -0.12900
C 	C 	0.94669 0.89505 0.71643 -0.04900
C 	C 	0.97839 0.88437 0.74064 0.14100
H 	H 	0.95109 0.84373 0.87846 0.06800
O 	O 	0.88918 0.86071 0.84206 -0.29500
H 	H 	0.94553 0.90952 0.67132 0.06900
O 	O 	0.00718 0.88886 0.70352 -0.26600
H 	H 	0.01453 0.91318 0.71228 0.08500
H 	H 	0.88106 0.83858 0.82174 0.15300
C 	C 	0.11938 0.97442 0.91604 -0.11500
C 	C 	0.15395 0.97905 0.90104 -0.06600
C 	C 	0.16484 0.00981 0.87198 0.18500
C 	C 	0.14108 0.03634 0.85928 -0.17000
C 	C 	0.10764 0.03332 0.88232 -0.03100
C 	C 	0.09654 0.00230 0.90931 0.10600
H 	H 	0.17196 0.95807 0.90811 0.06500
O 	O 	0.19856 0.01381 0.85556 -0.29200
H 	H 	0.08926 0.05367 0.87353 -0.06000
O 	O 	0.06335 0.99927 0.92904 -0.28300
H 	H 	0.04960 0.99766 0.88817 0.03300
H 	H 	0.20087 0.00302 0.81119 0.15400
C 	C 	0.13178 0.73191 0.92834 -0.07100
C 	C 	0.10117 0.71598 0.90818 -0.03300
C 	C 	0.06970 0.73273 0.92095 0.08800
C 	C 	0.06970 0.76668 0.94727 -0.03000
C 	C 	0.10050 0.78387 0.96200 -0.09200
C 	C 	0.13168 0.76565 0.95597 0.11800
N 	N 	0.16149 0.78036 0.97671 -0.20000
H 	H 	0.15579 0.71837 0.92112 0.05200
H 	H 	0.04571 0.78044 0.95300 0.05700
N 	N 	0.03946 0.71658 0.90753 -0.19500
H 	H 	0.18462 0.76718 0.97056 0.08800
H 	H 	0.16180 0.80444 0.00122 0.09500
H 	H 	0.03850 0.69095 0.89003 0.09400
H 	H 	0.01636 0.72942 0.91623 0.08900
C 	C 	0.99179 0.94299 0.18023 -0.11500
C 	C 	0.95884 0.94225 0.15296 -0.08100
C 	C 	0.93832 0.97222 0.15496 0.15000
C 	C 	0.95057 0.00307 0.18520 -0.10800
C 	C 	0.98505 0.00510 0.20357 -0.09000
C 	C 	0.00579 0.97536 0.20069 0.16400
H 	H 	0.94844 0.91815 0.13314 0.04100
O 	O 	0.90671 0.97152 0.12599 -0.29300
H 	H 	0.99534 0.02922 0.22359 0.02000
O 	O 	0.03927 0.97772 0.22030 -0.39600
H 	H 	0.05203 0.98454 0.18061 0.14100
H 	H 	0.89177 0.95977 0.15772 0.12600
C 	C 	0.90647 0.81817 0.42121 -0.14100
C 	C 	0.89882 0.79829 0.36474 -0.08200
C 	C 	0.92323 0.79449 0.31516 0.15300
C 	C 	0.95588 0.80948 0.32396 -0.16600
C 	C 	0.96553 0.82145 0.38699 -0.07700
C 	C 	0.94087 0.82487 0.43636 0.14000
H 	H 	0.87275 0.79003 0.35534 0.05400
O 	O 	0.91450 0.77801 0.25721 -0.29600
H 	H 	0.99155 0.82965 0.39681 -0.01700
O 	O 	0.94967 0.83907 0.49630 -0.29500
H 	H 	0.95525 0.81898 0.52415 0.15700
H 	H 	0.92048 0.75326 0.26343 0.15400
C 	C 	0.14187 0.95035 0.31309 -0.12500
C 	C 	0.13020 0.95178 0.24794 -0.07100
C 	C 	0.11808 0.92173 0.21605 0.17000
C 	C 	0.11752 0.89009 0.24970 -0.12100
C 	C 	0.13463 0.88769 0.30987 -0.07100
C 	C 	0.14654 0.91764 0.34210 0.17100
H 	H 	0.12887 0.97644 0.22326 0.04500
O 	O 	0.10701 0.92329 0.15216 -0.27400
H 	H 	0.13639 0.86289 0.33402 0.05700
O 	O 	0.16228 0.91492 0.40208 -0.27700
H 	H 	0.14348 0.91456 0.43461 0.15200
H 	H 	0.08243 0.92931 0.15468 0.15500
C 	C 	0.04260 0.67171 0.09787 -0.07100
C 	C 	0.07629 0.66544 0.11821 -0.03400
C 	C 	0.10143 0.69078 0.10620 0.08600
C 	C 	0.09117 0.72469 0.09144 -0.03000
C 	C 	0.05628 0.73293 0.08894 -0.09500
C 	C 	0.03255 0.70556 0.08184 0.11700
N 	N 	0.99975 0.71203 0.06404 -0.20200
H 	H 	0.02363 0.65125 0.10066 0.05200
H 	H 	0.10998 0.74536 0.09065 0.04900
N 	N 	0.13517 0.68290 0.11045 -0.19500
H 	H 	0.98180 0.69193 0.06143 0.08600
H 	H 	0.99222 0.73689 0.05024 0.09700
H 	H 	0.14318 0.65744 0.11849 0.08700
H 	H 	0.15371 0.70197 0.10308 0.08500
