data_crystal

_cell_length_a 17.09592
_cell_length_b 17.24648
_cell_length_c 71.94386
_cell_angle_alpha 90.05905
_cell_angle_beta  89.95655
_cell_angle_gamma 119.81604

_symmetry_space_group_name_	'P 1'
_symmetry_space_group_name_H-M	'P 1'

loop_
_symmetry_equiv_pos_as_xyz
  x,y,z

loop_
_atom_site_label
_atom_site_type_symbol
_atom_site_fract_x
_atom_site_fract_y
_atom_site_fract_z
_atom_site_charge
C 	C 	0.19002 0.64877 0.37139 0.28700
C 	C 	0.38907 0.54675 0.36636 0.29400
C 	C 	0.75189 0.54675 0.04884 0.29100
C 	C 	0.48442 0.21148 0.08275 0.42100
C 	C 	0.70241 0.46726 0.09843 0.41300
C 	C 	0.51124 0.26561 0.02980 0.29500
C 	C 	0.72904 0.23637 0.08834 0.42800
C 	C 	0.81341 0.30208 0.04195 0.29500
Ni	Ni	0.58672 0.38903 0.06435 1.12200
Ni	Ni	0.61919 0.22195 0.05550 1.12700
Ni	Ni	0.78362 0.40819 0.06959 1.13200
O 	O 	0.66459 0.49140 0.04620 -0.36500
O 	O 	0.80006 0.53021 0.06133 -0.34600
O 	O 	0.65099 0.18954 0.07995 -0.34500
O 	O 	0.51613 0.29726 0.08498 -0.34700
O 	O 	0.49485 0.18009 0.06681 -0.36400
O 	O 	0.83097 0.38439 0.04604 -0.37800
O 	O 	0.65718 0.48178 0.08543 -0.33900
O 	O 	0.73915 0.41794 0.09501 -0.32800
O 	O 	0.72944 0.23245 0.04207 -0.36600
O 	O 	0.49443 0.30560 0.04391 -0.34500
O 	O 	0.57086 0.23814 0.03114 -0.37600
O 	O 	0.79562 0.30693 0.08039 -0.36900
O 	O 	0.66660 0.34623 0.05937 -0.72000
H 	H 	0.68249 0.36590 0.04638 0.15700
C 	C 	0.22263 0.13849 0.24713 0.29600
C 	C 	0.15167 0.03900 0.20163 0.39200
Ni	Ni	0.08002 0.94042 0.23797 1.12300
Ni	Ni	0.06669 0.11690 0.22593 1.12600
O 	O 	0.20160 0.05256 0.24720 -0.35800
O 	O 	0.15926 0.16146 0.24646 -0.37500
O 	O 	0.12198 0.96270 0.21042 -0.30300
O 	O 	0.16396 0.11073 0.21062 -0.35500
C 	C 	0.77263 0.58767 0.31519 0.29600
C 	C 	0.65147 0.21599 0.34380 0.31500
C 	C 	0.52119 0.34119 0.33966 0.29500
C 	C 	0.72068 0.25485 0.28544 0.31800
C 	C 	0.55809 0.34267 0.27800 0.29600
Ni	Ni	0.71883 0.41324 0.33868 1.11800
Ni	Ni	0.58441 0.25773 0.31056 1.12100
Ni	Ni	0.75107 0.43318 0.29390 1.12500
O 	O 	0.78016 0.55127 0.33114 -0.35200
O 	O 	0.73747 0.53953 0.29996 -0.37500
O 	O 	0.63387 0.22539 0.28798 -0.38400
O 	O 	0.66648 0.28948 0.35236 -0.34700
O 	O 	0.65371 0.21452 0.32578 -0.39200
O 	O 	0.64728 0.38323 0.27462 -0.35900
O 	O 	0.82902 0.40339 0.33096 -0.37500
O 	O 	0.52258 0.30127 0.29379 -0.39200
O 	O 	0.59898 0.40481 0.34622 -0.35100
O 	O 	0.51243 0.26481 0.33297 -0.37300
O 	O 	0.78115 0.33667 0.28987 -0.38000
O 	O 	0.67220 0.37897 0.31452 -0.71500
H 	H 	0.63477 0.40749 0.31357 0.16400
Ni	Ni	0.09341 0.03290 0.00862 1.09800
C 	C 	0.33722 0.28745 0.25988 -0.03700
C 	C 	0.31830 0.20979 0.24996 -0.07900
C 	C 	0.39143 0.20070 0.24321 0.13000
C 	C 	0.47909 0.25852 0.24992 -0.03400
C 	C 	0.49453 0.32619 0.26270 -0.07500
C 	C 	0.42588 0.34786 0.26555 0.12200
N 	N 	0.44368 0.42341 0.27489 -0.19800
H 	H 	0.28287 0.29946 0.26377 0.06400
H 	H 	0.53348 0.24602 0.24640 0.06900
N 	N 	0.37885 0.13982 0.22984 -0.19800
H 	H 	0.39211 0.43741 0.27785 0.09700
H 	H 	0.50949 0.46992 0.27883 0.10500
H 	H 	0.31897 0.10746 0.22228 0.13500
H 	H 	0.43191 0.12973 0.22584 0.13400
C 	C 	0.81672 0.79554 0.29244 0.12200
C 	C 	0.77258 0.72394 0.30493 -0.04000
C 	C 	0.81972 0.68583 0.31319 -0.08100
H 	H 	0.70048 0.69374 0.30709 0.05600
N 	N 	0.77382 0.83870 0.28612 -0.19900
H 	H 	0.80947 0.90037 0.27950 0.10700
H 	H 	0.70576 0.81442 0.28917 0.10200
C 	C 	0.78580 0.15614 0.28745 -0.03200
C 	C 	0.75120 0.19850 0.27626 -0.09600
C 	C 	0.77162 0.20939 0.25705 0.13900
C 	C 	0.83272 0.18515 0.24976 -0.04100
C 	C 	0.84893 0.13424 0.28034 0.11000
H 	H 	0.76997 0.14770 0.30217 0.05700
N 	N 	0.73291 0.24330 0.24557 -0.20200
H 	H 	0.87028 0.09034 0.30596 0.09700
H 	H 	0.68374 0.25739 0.25041 0.11900
H 	H 	0.74993 0.25345 0.23148 0.14500
C 	C 	0.81198 0.70802 0.05448 -0.04800
C 	C 	0.78945 0.63842 0.04175 -0.06300
C 	C 	0.84424 0.81255 0.02905 -0.09000
C 	C 	0.83699 0.79442 0.04829 0.15100
N 	N 	0.85496 0.86008 0.06087 -0.20100
H 	H 	0.80812 0.69448 0.06926 0.11900
H 	H 	0.85277 0.84741 0.07512 0.16400
H 	H 	0.86798 0.92326 0.05659 0.13700
C 	C 	0.43333 0.30177 0.00493 -0.04500
C 	C 	0.45264 0.23942 0.01319 -0.07800
C 	C 	0.41753 0.15325 0.00505 0.10900
N 	N 	0.42833 0.08838 0.01335 -0.19600
H 	H 	0.46480 0.36960 0.01022 0.05800
H 	H 	0.41344 0.03012 0.00609 0.08200
H 	H 	0.44133 0.09037 0.02756 0.10700
C 	C 	0.88851 0.21592 0.05054 -0.04500
C 	C 	0.88881 0.28383 0.03970 -0.07700
H 	H 	0.84138 0.18733 0.06199 0.08300
H 	H 	0.89917 0.08909 0.06793 0.12800
C 	C 	0.77778 0.12553 0.13701 0.01400
C 	C 	0.72701 0.06937 0.12237 0.21100
C 	C 	0.71306 0.10568 0.10624 0.33100
C 	C 	0.74787 0.19852 0.10484 -0.20600
F 	F 	0.69214 0.97960 0.12371 -0.30200
F 	F 	0.69885 0.11698 0.17204 -0.32200
F 	F 	0.66743 0.05099 0.09181 -0.39100
C 	C 	0.41807 0.12364 0.13091 0.23600
C 	C 	0.32441 0.08908 0.13014 -0.00700
C 	C 	0.28229 0.07800 0.11278 0.23300
C 	C 	0.33446 0.10896 0.09657 0.31500
C 	C 	0.42888 0.15042 0.09760 -0.21400
C 	C 	0.46971 0.15267 0.11468 0.32400
C 	C 	0.27173 0.06996 0.14757 0.02100
F 	F 	0.19130 0.04052 0.11173 -0.33700
F 	F 	0.56054 0.18939 0.11575 -0.35400
C 	C 	0.23488 0.12366 0.15285 0.22600
C 	C 	0.19418 0.11243 0.17031 0.33800
C 	C 	0.19213 0.04901 0.18290 -0.22600
C 	C 	0.22847 0.99474 0.17747 0.38100
C 	C 	0.26603 0.00390 0.15978 0.18800
F 	F 	0.24035 0.18811 0.14122 -0.32800
F 	F 	0.23041 0.93534 0.18957 -0.35500
F 	F 	0.15674 0.16316 0.17497 -0.36400
F 	F 	0.29951 0.95026 0.15467 -0.29300
F 	F 	0.45961 0.13343 0.14753 -0.32000
F 	F 	0.29383 0.10419 0.08006 -0.39200
C 	C 	0.75630 0.62441 0.18475 0.23200
C 	C 	0.79267 0.67399 0.20101 0.31800
C 	C 	0.77441 0.58781 0.15200 0.00300
F 	F 	0.73670 0.67007 0.21484 -0.38600
C 	C 	0.77729 0.63925 0.13659 0.23500
C 	C 	0.74648 0.59868 0.11921 0.32100
C 	C 	0.71260 0.50637 0.11712 -0.20200
C 	C 	0.70378 0.45424 0.13287 0.32700
F 	F 	0.81180 0.72880 0.13840 -0.32000
F 	F 	0.75347 0.64967 0.10426 -0.38100
F 	F 	0.66553 0.57254 0.18300 -0.33500
F 	F 	0.03401 0.78702 0.18995 -0.36000
C 	C 	0.38039 0.39876 0.36735 -0.04300
C 	C 	0.39409 0.47329 0.35694 -0.07400
C 	C 	0.41542 0.47759 0.33783 0.11200
C 	C 	0.43636 0.41456 0.33037 -0.04000
C 	C 	0.44232 0.35251 0.34206 -0.09200
C 	C 	0.40198 0.33662 0.35977 0.13400
H 	H 	0.45994 0.42177 0.31614 0.04800
N 	N 	0.41707 0.54208 0.32670 -0.19900
H 	H 	0.39842 0.58745 0.33169 0.09900
H 	H 	0.43504 0.54595 0.31270 0.09100
C 	C 	0.04379 0.62538 0.36116 -0.05800
C 	C 	0.12639 0.63358 0.35632 -0.07400
C 	C 	0.13621 0.60241 0.33875 0.10400
N 	N 	0.21831 0.61805 0.33282 -0.19800
H 	H 	0.03770 0.65338 0.37424 0.08700
H 	H 	0.22491 0.59250 0.32011 0.09400
H 	H 	0.27652 0.65766 0.34057 0.09000
C 	C 	0.53031 0.94995 0.36517 -0.07000
C 	C 	0.47911 0.97930 0.35506 0.11000
C 	C 	0.51762 0.06973 0.35022 -0.03300
C 	C 	0.60891 0.13001 0.35375 -0.09200
H 	H 	0.47767 0.09222 0.34267 0.04300
N 	N 	0.39316 0.92056 0.34977 -0.19800
H 	H 	0.36601 0.85179 0.35154 0.09600
H 	H 	0.35403 0.94301 0.34301 0.09500
O 	O 	0.02889 0.89890 0.26477 -0.36700
H 	H 	0.02509 0.02259 0.25036 0.15200
O 	O 	0.05679 0.11016 0.02517 -0.36700
C 	C 	0.87153 0.14754 0.26120 -0.07100
C 	C 	0.78947 0.65505 0.02248 0.10500
C 	C 	0.81413 0.74160 0.01639 -0.03700
N 	N 	0.76996 0.58946 0.00975 -0.19800
H 	H 	0.75907 0.52662 0.01371 0.09700
H 	H 	0.06588 0.32504 0.01134 0.05200
C 	C 	0.79768 0.08800 0.15344 -0.00300
C 	C 	0.76138 0.09052 0.17077 0.23500
F 	F 	0.76151 0.07836 0.20371 -0.38700
C 	C 	0.73541 0.49491 0.15016 0.24300
F 	F 	0.66728 0.36440 0.13124 -0.32600
C 	C 	0.05979 0.55444 0.32735 -0.04900
H 	H 	0.06685 0.53070 0.31384 0.05600
O 	O 	0.50544 0.80401 0.37417 -0.36200
O 	O 	0.30912 0.54018 0.36845 -0.38600
O 	O 	0.24355 0.73214 0.37715 -0.35900
C 	C 	0.79834 0.25460 0.11957 0.34100
C 	C 	0.81320 0.63146 0.17000 0.00600
H 	H 	0.84775 0.19286 0.23501 0.10500
C 	C 	0.79250 0.06972 0.18689 0.32000
F 	F 	0.73034 0.44430 0.16506 -0.32100
C 	C 	0.66179 0.09984 0.36305 0.13500
H 	H 	0.40355 0.21746 0.36440 0.11800
C 	C 	0.62193 0.00979 0.36862 -0.04100
N 	N 	0.75022 0.15689 0.36688 -0.20000
H 	H 	0.78052 0.22489 0.36377 0.12100
N 	N 	0.89039 0.10417 0.29207 -0.19800
N 	N 	0.94583 0.11772 0.05712 -0.20500
H 	H 	0.91206 0.41381 0.01635 0.10900
C 	C 	0.91945 0.80694 0.21577 0.42100
C 	C 	0.90529 0.04065 0.20250 0.41600
C 	C 	0.91998 0.10620 0.25245 0.29900
Ni	Ni	0.88813 0.93714 0.23616 1.13900
O 	O 	0.85916 0.00715 0.21782 -0.36200
O 	O 	0.88909 0.86312 0.21453 -0.34700
O 	O 	0.88937 0.02012 0.25564 -0.38900
O 	O 	0.88279 0.84598 0.25493 -0.35300
C 	C 	0.89313 0.47221 0.32275 0.31300
O 	O 	0.87407 0.50183 0.30746 -0.35900
C 	C 	0.90989 0.90194 0.02240 0.28900
C 	C 	0.90696 0.82371 0.28715 -0.08800
C 	C 	0.91473 0.73344 0.31225 0.11300
H 	H 	0.94576 0.09859 0.28779 0.10300
C 	C 	0.95579 0.32617 0.02580 0.12100
C 	C 	0.94568 0.18179 0.04617 0.14100
H 	H 	0.99625 0.10073 0.05594 0.13500
C 	C 	0.81363 0.21827 0.13554 0.23600
F 	F 	0.83178 0.34421 0.11846 -0.35500
C 	C 	0.85926 0.04496 0.18570 -0.21100
C 	C 	0.88936 0.03468 0.16819 0.32900
C 	C 	0.85949 0.05715 0.15213 0.23700
F 	F 	0.86406 0.27314 0.14956 -0.32300
C 	C 	0.88607 0.73233 0.20251 -0.21100
O 	O 	0.88246 0.95791 0.01643 -0.34800
C 	C 	0.48382 0.86787 0.37636 0.29400
C 	C 	0.18921 0.60628 0.42467 0.41100
C 	C 	0.47131 0.80142 0.42756 0.40900
C 	C 	0.40505 0.54091 0.41601 0.43300
Ni	Ni	0.31988 0.75892 0.40129 1.12200
Ni	Ni	0.26687 0.55424 0.39348 1.12900
Ni	Ni	0.47568 0.70600 0.39330 1.13100
O 	O 	0.43613 0.86872 0.39081 -0.34300
O 	O 	0.33896 0.50104 0.40397 -0.37900
O 	O 	0.19822 0.67182 0.41403 -0.33900
O 	O 	0.22645 0.55840 0.41991 -0.32600
O 	O 	0.46469 0.61554 0.37331 -0.35000
O 	O 	0.38425 0.77156 0.42642 -0.33500
O 	O 	0.51808 0.80578 0.41262 -0.33400
O 	O 	0.17203 0.57985 0.38239 -0.35200
O 	O 	0.46531 0.62636 0.41462 -0.35300
O 	O 	0.35352 0.67747 0.39217 -0.71700
H 	H 	0.35265 0.68730 0.37871 0.14900
N 	N 	0.38974 0.26530 0.37000 -0.20000
H 	H 	0.35643 0.39090 0.38154 0.08000
H 	H 	0.36369 0.25570 0.38348 0.12400
H 	H 	0.66117 0.98750 0.37649 0.08700
H 	H 	0.78928 0.13375 0.37342 0.12300
C 	C 	0.46583 0.32693 0.48678 0.24600
C 	C 	0.50704 0.41056 0.47800 0.00200
C 	C 	0.57790 0.48475 0.48689 0.24100
C 	C 	0.60653 0.47580 0.50452 0.32200
C 	C 	0.56300 0.39262 0.51370 -0.18900
C 	C 	0.49183 0.31838 0.50472 0.33600
C 	C 	0.47154 0.42239 0.46021 0.00500
F 	F 	0.61684 0.56643 0.47869 -0.32200
F 	F 	0.44686 0.23828 0.51351 -0.35300
C 	C 	0.38541 0.41384 0.45950 0.23300
C 	C 	0.35944 0.44375 0.44391 0.33100
C 	C 	0.42092 0.48643 0.42941 -0.22200
C 	C 	0.50325 0.48689 0.42929 0.32300
C 	C 	0.52795 0.45376 0.44455 0.23200
F 	F 	0.32907 0.38122 0.47433 -0.32000
F 	F 	0.56053 0.52231 0.41467 -0.38200
F 	F 	0.27599 0.43471 0.44322 -0.34800
F 	F 	0.60877 0.45661 0.44457 -0.31800
F 	F 	0.39890 0.25430 0.47808 -0.32100
F 	F 	0.67353 0.54903 0.51304 -0.35900
C 	C 	0.50857 0.86436 0.47811 0.23500
C 	C 	0.58270 0.95138 0.47714 0.00600
C 	C 	0.62992 0.98244 0.46030 0.23800
C 	C 	0.59749 0.93070 0.44414 0.31900
C 	C 	0.51874 0.84643 0.44484 -0.20000
C 	C 	0.47776 0.81163 0.46210 0.31900
C 	C 	0.60332 0.01332 0.49298 -0.00800
F 	F 	0.70455 0.06467 0.45941 -0.32200
F 	F 	0.40546 0.72801 0.46320 -0.33600
C 	C 	0.63096 0.99580 0.51008 0.24700
C 	C 	0.63712 0.04645 0.52581 0.30200
C 	C 	0.61712 0.11638 0.52446 -0.19500
C 	C 	0.59640 0.13794 0.50700 0.33400
C 	C 	0.58765 0.08563 0.49145 0.24100
F 	F 	0.64973 0.92825 0.51156 -0.33300
F 	F 	0.58599 0.21041 0.50503 -0.33500
F 	F 	0.56174 0.10385 0.47495 -0.32200
F 	F 	0.46343 0.83272 0.49437 -0.32900
F 	F 	0.63945 0.96468 0.42768 -0.37100
C 	C 	0.03835 0.55099 0.47539 -0.01000
C 	C 	0.11795 0.54617 0.47485 0.24500
C 	C 	0.16742 0.56465 0.45834 0.32900
C 	C 	0.13670 0.58622 0.44208 -0.20000
C 	C 	0.05726 0.59162 0.44268 0.31800
F 	F 	0.14678 0.52252 0.49028 -0.32300
F 	F 	0.02598 0.61125 0.42707 -0.37400
F 	F 	0.76926 0.33743 0.50905 -0.35800
F 	F 	0.09233 0.65501 0.50843 -0.32700
F 	F 	0.24615 0.56347 0.45825 -0.31500
C 	C 	0.84938 0.41485 0.50906 0.32900
C 	C 	0.89944 0.44403 0.49264 0.23000
C 	C 	0.88236 0.46450 0.52554 -0.21100
F 	F 	0.86857 0.39324 0.47705 -0.31500
H 	H 	0.83187 0.47493 0.35836 0.04800
F 	F 	0.93262 0.58087 0.45973 -0.31200
O 	O 	0.01623 0.00317 0.23726 -0.73300
O 	O 	0.99348 0.08037 0.20257 -0.33300
C 	C 	0.94167 0.86467 0.26858 0.30500
O 	O 	0.97690 0.81557 0.22892 -0.33400
O 	O 	0.98324 0.15257 0.23954 -0.34700
C 	C 	0.01658 0.15243 0.01859 0.30600
O 	O 	0.99652 0.92716 0.02374 -0.33600
C 	C 	0.95752 0.79758 0.29821 -0.02100
N 	N 	0.96452 0.72143 0.32533 -0.19000
H 	H 	0.02928 0.82622 0.29587 0.05100
H 	H 	0.03430 0.75032 0.32381 0.08900
H 	H 	0.93542 0.69202 0.33801 0.11400
C 	C 	0.01585 0.29434 0.02223 -0.04000
C 	C 	0.00196 0.21444 0.03037 -0.10400
N 	N 	0.96011 0.39364 0.01525 -0.19400
H 	H 	0.01079 0.42498 0.00527 0.08500
F 	F 	0.94979 0.00555 0.16681 -0.34800
F 	F 	0.89342 0.05266 0.13534 -0.33000
C 	C 	0.90713 0.68302 0.17220 0.23600
C 	C 	0.94345 0.73310 0.18844 0.33300
F 	F 	0.96297 0.68709 0.15834 -0.31800
C 	C 	0.97383 0.53278 0.33385 -0.08200
C 	C 	0.96592 0.56614 0.35151 0.13100
N 	N 	0.88447 0.54036 0.35943 -0.19600
H 	H 	0.87836 0.58073 0.36951 0.12200
C 	C 	0.00891 0.57500 0.45931 0.23300
C 	C 	0.01334 0.57631 0.50863 0.21200
C 	C 	0.98225 0.52418 0.49240 0.02900
C 	C 	0.96385 0.54637 0.52518 0.33700
C 	C 	0.61462 0.16489 0.54128 0.39900
C 	C 	0.83497 0.42674 0.54325 0.41200
C 	C 	0.58722 0.38440 0.53305 0.41000
Ni	Ni	0.73672 0.28305 0.57120 1.12100
Ni	Ni	0.53394 0.25471 0.56410 1.12500
Ni	Ni	0.70785 0.45467 0.56606 1.13000
O 	O 	0.52221 0.33123 0.54442 -0.35900
O 	O 	0.66174 0.16782 0.55586 -0.35100
O 	O 	0.55052 0.18600 0.54273 -0.33300
O 	O 	0.60535 0.46915 0.57654 -0.36200
O 	O 	0.80659 0.34275 0.54703 -0.34100
O 	O 	0.82874 0.47852 0.55584 -0.34400
O 	O 	0.66690 0.44503 0.53949 -0.33800
O 	O 	0.65743 0.32951 0.57057 -0.71500
H 	H 	0.34163 0.26008 0.57421 0.11600
N 	N 	0.49837 0.98083 0.56758 -0.19100
H 	H 	0.48097 0.02844 0.56370 0.12200
H 	H 	0.48531 0.92961 0.55816 0.14800
F 	F 	0.66077 0.02636 0.54237 -0.38900
H 	H 	0.54036 0.56587 0.56714 0.08500
F 	F 	0.99673 0.59522 0.54096 -0.37300
H 	H 	0.51264 0.68854 0.56805 0.12800
C 	C 	0.51938 0.40629 0.57840 0.29600
O 	O 	0.82891 0.38943 0.58754 -0.34800
O 	O 	0.49693 0.32182 0.58185 -0.37400
O 	O 	0.51464 0.15721 0.58334 -0.36500
H 	H 	0.64654 0.33066 0.58401 0.14900
N 	N 	0.31983 0.29010 0.58395 -0.19400
H 	H 	0.50798 0.84629 0.58175 0.07200
C 	C 	0.80663 0.43712 0.59854 0.28800
C 	C 	0.57811 0.14178 0.59046 0.30200
O 	O 	0.76542 0.47912 0.59172 -0.35500
O 	O 	0.66105 0.20732 0.59327 -0.37900
O 	O 	0.30659 0.62169 0.60316 -0.35100
C 	C 	0.47727 0.52535 0.57440 -0.04200
C 	C 	0.45001 0.43585 0.57888 -0.07000
C 	C 	0.36075 0.38044 0.58538 0.11800
C 	C 	0.31077 0.42038 0.59169 -0.02900
C 	C 	0.34668 0.51364 0.59062 -0.08900
C 	C 	0.42496 0.56390 0.57979 0.13300
N 	N 	0.45109 0.64932 0.57480 -0.20000
H 	H 	0.24634 0.37959 0.59848 0.06200
H 	H 	0.40795 0.67536 0.57641 0.13100
H 	H 	0.25850 0.24977 0.59069 0.10400
C 	C 	0.55369 0.05188 0.59747 -0.09500
C 	C 	0.52813 0.97923 0.58501 0.15000
C 	C 	0.52855 0.90211 0.59120 -0.03300
O 	O 	0.98920 0.14056 0.00140 -0.38900
H 	H 	0.90530 0.60658 0.61054 0.07400
C 	C 	0.32601 0.55751 0.60609 0.31600
C 	C 	0.46182 0.80442 0.61788 0.29300
O 	O 	0.38076 0.79591 0.61841 -0.36800
O 	O 	0.47354 0.73327 0.61923 -0.36900
N 	N 	0.07075 0.66391 0.62047 -0.19200
H 	H 	0.12859 0.66544 0.61537 0.05600
H 	H 	0.06113 0.71752 0.61709 0.10500
C 	C 	0.57831 0.04432 0.61575 -0.04900
C 	C 	0.53344 0.88850 0.61025 -0.08300
C 	C 	0.85425 0.46789 0.61644 -0.07400
C 	C 	0.91529 0.55872 0.61847 -0.04500
Ni	Ni	0.26746 0.67829 0.62490 1.11600
O 	O 	0.21566 0.74368 0.64244 -0.35300
O 	O 	0.33890 0.53961 0.62292 -0.38800
O 	O 	0.16052 0.55303 0.62939 -0.37600
C 	C 	0.01299 0.52364 0.63694 -0.10500
C 	C 	0.99995 0.58562 0.62616 0.13200
N 	N 	0.79304 0.32150 0.62996 -0.19800
H 	H 	0.73078 0.30160 0.62370 0.09900
C 	C 	0.57101 0.96375 0.62202 0.12500
N 	N 	0.59454 0.95718 0.63973 -0.19300
H 	H 	0.60417 0.10143 0.62502 0.05400
H 	H 	0.79999 0.27540 0.63820 0.09400
C 	C 	0.86162 0.40702 0.62844 0.10600
C 	C 	0.94091 0.43602 0.63896 -0.02400
C 	C 	0.10462 0.54369 0.64242 0.32300
Ni	Ni	0.42168 0.63771 0.64010 1.12200
O 	O 	0.33190 0.66938 0.64504 -0.71600
H 	H 	0.36963 0.73285 0.64842 0.16800
H 	H 	0.24614 0.31212 0.64971 0.05200
H 	H 	0.12435 0.16153 0.65021 0.09200
H 	H 	0.61853 0.01168 0.64879 0.08000
H 	H 	0.59133 0.89837 0.64444 0.10300
H 	H 	0.94880 0.38889 0.64760 0.05400
C 	C 	0.22967 0.76344 0.66068 0.29800
O 	O 	0.39267 0.53792 0.65873 -0.38100
O 	O 	0.13607 0.57550 0.65911 -0.37100
O 	O 	0.49600 0.72608 0.65941 -0.39200
H 	H 	0.26290 0.93284 0.65842 0.06000
C 	C 	0.30911 0.47879 0.66334 0.32100
Ni	Ni	0.26787 0.62008 0.66750 1.12200
O 	O 	0.24514 0.49828 0.66166 -0.38800
C 	C 	0.23771 0.31606 0.66457 -0.03400
N 	N 	0.11057 0.16815 0.66409 -0.20000
H 	H 	0.05249 0.11618 0.67008 0.10000
C 	C 	0.21043 0.89357 0.66841 -0.04500
C 	C 	0.18030 0.80206 0.67027 -0.07900
H 	H 	0.25833 0.06243 0.66855 0.09200
C 	C 	0.46944 0.71918 0.67688 0.29400
O 	O 	0.27772 0.73953 0.67095 -0.38300
C 	C 	0.16571 0.24386 0.67375 0.11000
C 	C 	0.28885 0.39798 0.67370 -0.10100
C 	C 	0.17600 0.93566 0.67997 0.13500
N 	N 	0.20626 0.02440 0.67788 -0.21300
O 	O 	0.38538 0.65875 0.68220 -0.36600
C 	C 	0.11111 0.75084 0.68330 0.11700
H 	H 	0.17580 0.05549 0.68478 0.10500
C 	C 	0.08486 0.17416 0.70354 0.31400
C 	C 	0.81258 0.90022 0.71133 0.31200
C 	C 	0.08192 0.20093 0.75528 0.38800
C 	C 	0.07966 0.92559 0.70777 0.30700
C 	C 	0.10532 0.96001 0.76236 0.43500
Ni	Ni	0.12678 0.08145 0.73193 1.12400
O 	O 	0.14031 0.98366 0.71938 -0.34500
O 	O 	0.01837 0.17516 0.71252 -0.35500
O 	O 	0.10222 0.10999 0.70632 -0.40700
O 	O 	0.05082 0.89483 0.75092 -0.35300
O 	O 	0.15293 0.04357 0.75642 -0.34300
O 	O 	0.99496 0.16587 0.75136 -0.33500
O 	O 	0.13921 0.19730 0.74311 -0.35400
H 	H 	0.00587 0.03123 0.75096 0.16700
C 	C 	0.21722 0.50768 0.87815 0.39100
C 	C 	0.46565 0.76333 0.87828 0.39100
C 	C 	0.21030 0.75389 0.88503 0.38900
Ni	Ni	0.36973 0.60397 0.90507 1.12400
Ni	Ni	0.36657 0.79131 0.90933 1.13200
Ni	Ni	0.17987 0.60466 0.90901 1.12700
O 	O 	0.30240 0.53210 0.88170 -0.32000
O 	O 	0.16077 0.50096 0.89174 -0.34500
O 	O 	0.48648 0.81300 0.92027 -0.35400
O 	O 	0.15632 0.66760 0.88823 -0.33900
O 	O 	0.28088 0.48829 0.91987 -0.35200
O 	O 	0.26612 0.80719 0.89810 -0.33300
O 	O 	0.47352 0.70507 0.88918 -0.34500
O 	O 	0.42773 0.81006 0.88431 -0.32700
O 	O 	0.17396 0.69156 0.92697 -0.36600
O 	O 	0.30551 0.66608 0.90384 -0.72100
H 	H 	0.30113 0.66896 0.89026 0.17100
C 	C 	0.67259 0.85020 0.92519 0.13600
N 	N 	0.66617 0.88671 0.90895 -0.19900
H 	H 	0.61278 0.85108 0.89988 0.14600
H 	H 	0.72041 0.94662 0.90418 0.14300
C 	C 	0.09657 0.32186 0.92552 -0.04400
N 	N 	0.97869 0.17172 0.92033 -0.19800
H 	H 	0.10885 0.33131 0.91068 0.09900
H 	H 	0.98962 0.18070 0.90600 0.14400
C 	C 	0.22952 0.95666 0.80556 0.23400
C 	C 	0.15814 0.89389 0.81651 0.01500
C 	C 	0.06941 0.85462 0.80985 0.23700
C 	C 	0.05238 0.87509 0.79206 0.33600
C 	C 	0.12380 0.93707 0.78094 -0.20500
C 	C 	0.21253 0.97838 0.78786 0.37000
C 	C 	0.17697 0.86117 0.83388 0.00200
F 	F 	0.99987 0.79461 0.82046 -0.31800
F 	F 	0.28252 0.03712 0.77717 -0.38000
C 	C 	0.19745 0.91204 0.85025 0.24100
C 	C 	0.20947 0.87788 0.86699 0.32000
C 	C 	0.20059 0.79223 0.86744 -0.20100
C 	C 	0.18040 0.74188 0.85097 0.32300
C 	C 	0.16992 0.77669 0.83427 0.23800
F 	F 	0.20388 0.99374 0.84999 -0.31100
F 	F 	0.16953 0.65847 0.85121 -0.36100
F 	F 	0.22648 0.92654 0.88282 -0.36300
F 	F 	0.15121 0.72758 0.81845 -0.32200
F 	F 	0.31564 0.99448 0.81185 -0.30700
C 	C 	0.16594 0.28167 0.80370 0.23800
C 	C 	0.13981 0.34660 0.80598 0.00300
C 	C 	0.10679 0.37193 0.79066 0.23500
C 	C 	0.09692 0.33049 0.77340 0.31600
C 	C 	0.11757 0.26151 0.77139 -0.20400
C 	C 	0.15456 0.23908 0.78649 0.31500
C 	C 	0.15097 0.39113 0.82420 0.00500
F 	F 	0.08270 0.43559 0.79258 -0.32400
F 	F 	0.17534 0.17303 0.78476 -0.36900
C 	C 	0.21702 0.48114 0.82641 0.24400
C 	C 	0.23205 0.52185 0.84386 0.34000
C 	C 	0.18236 0.47267 0.85943 -0.19000
C 	C 	0.11288 0.38383 0.85705 0.32000
C 	C 	0.09701 0.34329 0.83947 0.23600
F 	F 	0.26900 0.52834 0.81176 -0.31300
F 	F 	0.06409 0.33534 0.87190 -0.38600
F 	F 	0.29846 0.60811 0.84587 -0.34400
F 	F 	0.03084 0.25700 0.83736 -0.33100
F 	F 	0.20123 0.25905 0.81822 -0.32500
F 	F 	0.06372 0.35478 0.75877 -0.37800
C 	C 	0.63972 0.86728 0.79431 0.23900
C 	C 	0.67998 0.87732 0.81178 0.00600
C 	C 	0.77367 0.91374 0.81315 0.24300
C 	C 	0.82653 0.93795 0.79709 0.33000
C 	C 	0.78595 0.92513 0.77955 -0.19600
C 	C 	0.69243 0.89082 0.77822 0.32100
C 	C 	0.62393 0.84806 0.82862 0.00400
F 	F 	0.81314 0.92442 0.83004 -0.31900
F 	F 	0.65229 0.87713 0.76132 -0.37000
C 	C 	0.57513 0.75697 0.83317 0.24000
C 	C 	0.52313 0.72922 0.84935 0.32900
C 	C 	0.51921 0.79244 0.86108 -0.19800
C 	C 	0.56893 0.88387 0.85655 0.31600
C 	C 	0.62047 0.91132 0.84032 0.24000
F 	F 	0.57879 0.69549 0.82195 -0.32300
F 	F 	0.56959 0.94626 0.86818 -0.36500
F 	F 	0.47665 0.64093 0.85367 -0.35300
F 	F 	0.66792 0.99960 0.83602 -0.31700
F 	F 	0.54925 0.83322 0.79292 -0.32100
C 	C 	0.58862 0.71363 0.69463 -0.03200
C 	C 	0.54127 0.75882 0.69087 -0.07800
C 	C 	0.58292 0.85145 0.69459 0.12500
C 	C 	0.67403 0.89855 0.70007 -0.02800
C 	C 	0.72400 0.85437 0.70190 -0.08000
C 	C 	0.68132 0.76133 0.69843 0.12600
N 	N 	0.72990 0.71839 0.69782 -0.19700
H 	H 	0.55648 0.64245 0.69193 0.05700
H 	H 	0.70523 0.96913 0.70335 0.06700
N 	N 	0.53604 0.89559 0.69271 -0.19900
H 	H 	0.69748 0.64900 0.69623 0.10400
H 	H 	0.80030 0.75389 0.69771 0.10700
H 	H 	0.46718 0.86127 0.68966 0.11300
H 	H 	0.56772 0.96465 0.69479 0.11200
C 	C 	0.21028 0.32982 0.70248 -0.04500
C 	C 	0.14973 0.25237 0.69280 -0.09000
C 	C 	0.28311 0.40033 0.69322 0.12400
N 	N 	0.34522 0.47198 0.70299 -0.20400
H 	H 	0.20253 0.33407 0.71735 0.08200
H 	H 	0.33847 0.47606 0.71734 0.12500
H 	H 	0.40280 0.52210 0.69648 0.11600
C 	C 	0.07124 0.79127 0.69346 -0.03600
C 	C 	0.10823 0.88402 0.69323 -0.08400
H 	H 	0.01750 0.75139 0.70317 0.06300
N 	N 	0.08743 0.66492 0.68714 -0.19300
H 	H 	0.13639 0.64596 0.68800 0.09700
H 	H 	0.02423 0.62180 0.69289 0.10700
O 	O 	0.82537 0.85988 0.72549 -0.35100
O 	O 	0.00159 0.02072 0.73746 -0.73600
C 	C 	0.83987 0.94020 0.76272 0.39400
O 	O 	0.82859 0.98334 0.74850 -0.31900
O 	O 	0.88456 0.89565 0.76084 -0.30400
O 	O 	0.86769 0.98582 0.70841 -0.35700
O 	O 	0.99306 0.88871 0.71161 -0.37400
H 	H 	0.92620 0.11080 0.92514 0.10700
F 	F 	0.96651 0.83426 0.78559 -0.35900
Ni	Ni	0.93124 0.07228 0.73052 1.11300
Ni	Ni	0.94673 0.89398 0.73703 1.13800
F 	F 	0.91721 0.97350 0.79853 -0.34000
C 	C 	0.50213 0.75255 0.92791 0.30700
C 	C 	0.21297 0.48008 0.93000 0.31200
O 	O 	0.43798 0.66887 0.92888 -0.37700
H 	H 	0.81507 0.94199 0.92792 0.08000
H 	H 	0.81922 0.75561 0.00164 0.04500
O 	O 	0.32102 0.78089 0.93548 -0.36900
O 	O 	0.19708 0.54614 0.93152 -0.39400
C 	C 	0.59556 0.77758 0.93361 -0.08900
C 	C 	0.75764 0.88201 0.93333 -0.04000
C 	C 	0.02923 0.23915 0.93233 0.13100
C 	C 	0.23514 0.73341 0.94000 0.31100
C 	C 	0.14746 0.39266 0.93776 -0.08600
C 	C 	0.60822 0.72980 0.94798 -0.03700
C 	C 	0.76887 0.83826 0.94858 -0.07500
H 	H 	0.55067 0.67128 0.95382 0.05900
C 	C 	0.01759 0.22539 0.95168 -0.09800
O 	O 	0.93052 0.93187 0.95198 -0.34000
C 	C 	0.69506 0.75718 0.95487 0.11500
H 	H 	0.06620 0.64114 0.95541 0.05700
O 	O 	0.06722 0.12095 0.95704 -0.38600
C 	C 	0.12517 0.38263 0.95694 0.11100
C 	C 	0.20536 0.74426 0.95883 -0.08800
C 	C 	0.36303 0.13213 0.98917 -0.04000
H 	H 	0.33597 0.06655 0.98294 0.05200
C 	C 	0.37096 0.27567 0.99026 0.12200
O 	O 	0.17953 0.14662 0.99414 -0.38100
C 	C 	0.32643 0.18589 0.98424 -0.09600
N 	N 	0.35015 0.33532 0.98272 -0.19900
H 	H 	0.30520 0.31725 0.97158 0.10800
H 	H 	0.38050 0.40098 0.98765 0.09700
C 	C 	0.22875 0.14112 0.98101 0.31300
C 	C 	0.10995 0.89082 0.98468 0.28600
C 	C 	0.00293 0.14045 0.95921 0.30900
Ni	Ni	0.05515 0.00413 0.96412 1.10600
O 	O 	0.19135 0.07405 0.96917 -0.37400
O 	O 	0.14919 0.95746 0.99711 -0.33700
O 	O 	0.06177 0.89434 0.97058 -0.35900
N 	N 	0.70770 0.70450 0.96711 -0.19700
H 	H 	0.65263 0.64714 0.97256 0.09300
H 	H 	0.77249 0.71697 0.97034 0.09600
C 	C 	0.05667 0.29973 0.96351 -0.03900
H 	H 	0.04263 0.29036 0.97827 0.05300
N 	N 	0.17187 0.45048 0.96918 -0.20000
H 	H 	0.22899 0.50965 0.96512 0.10400
H 	H 	0.15315 0.44315 0.98318 0.09000
C 	C 	0.11282 0.70090 0.96296 -0.03300
C 	C 	0.26564 0.81180 0.97115 0.12600
C 	C 	0.23234 0.85395 0.98291 -0.04100
C 	C 	0.13965 0.82409 0.98337 -0.07400
C 	C 	0.07988 0.73919 0.97580 0.10700
N 	N 	0.99056 0.69735 0.97995 -0.19200
H 	H 	0.27853 0.91197 0.99091 0.06800
N 	N 	0.35262 0.83107 0.97276 -0.19700
H 	H 	0.37335 0.78786 0.96741 0.11300
H 	H 	0.39807 0.88485 0.98094 0.10600
H 	H 	0.76861 0.60193 0.99557 0.08700
O 	O 	0.83744 0.90066 0.97787 -0.37700
C 	C 	0.84971 0.88749 0.96026 0.29600
Ni	Ni	0.91251 0.01774 0.99062 1.10300
O 	O 	0.92413 0.08200 0.96632 -0.39300
O 	O 	0.01076 0.99695 0.98879 -0.69200
H 	H 	0.97870 0.93163 0.99038 0.16100
H 	H 	0.94572 0.63630 0.97375 0.09600
H 	H 	0.96566 0.72395 0.98986 0.09700
