data_crystal

_cell_length_a 31.26409
_cell_length_b 47.69249
_cell_length_c 40.28536
_cell_angle_alpha 90.00061
_cell_angle_beta  89.99986
_cell_angle_gamma 89.99577

_symmetry_space_group_name_	'P 1'
_symmetry_space_group_name_H-M	'P 1'

loop_
_symmetry_equiv_pos_as_xyz
  x,y,z

loop_
_atom_site_label
_atom_site_type_symbol
_atom_site_fract_x
_atom_site_fract_y
_atom_site_fract_z
_atom_site_charge
Cu	Cu	0.04560 0.85811 0.08472 0.93200
Cu	Cu	0.99940 0.85649 0.15743 0.86100
Cu	Cu	0.95522 0.83694 0.09684 0.89300
Cu	Cu	0.99409 0.82513 0.03017 0.88900
C 	C 	0.08867 0.82926 0.03202 0.29100
O 	O 	0.03012 0.88674 0.04957 -0.35300
C 	C 	0.90757 0.86089 0.15334 0.28400
O 	O 	0.00651 0.82295 0.07601 -0.63000
O 	O 	0.99465 0.86742 0.11114 -0.65000
O 	O 	0.08796 0.86182 0.12100 -0.37500
O 	O 	0.05003 0.83414 0.15627 -0.43400
O 	O 	0.05356 0.83212 0.01419 -0.38300
O 	O 	0.91912 0.80587 0.08334 -0.39000
C 	C 	0.91453 0.79703 0.05245 0.29200
C 	C 	0.99118 0.88843 0.03728 0.27800
O 	O 	0.96603 0.86635 0.03753 -0.39900
O 	O 	0.94707 0.79717 0.03151 -0.40000
O 	O 	0.09252 0.84198 0.06095 -0.36600
C 	C 	0.08669 0.84489 0.14664 0.29200
O 	O 	0.90647 0.85039 0.12290 -0.38400
O 	O 	0.94326 0.87109 0.16613 -0.42300
H 	H 	0.01614 0.80438 0.08407 0.16500
H 	H 	0.98287 0.88648 0.10773 0.17100
Cu	Cu	0.43554 0.85389 0.38308 0.92800
Cu	Cu	0.48567 0.84776 0.31206 0.86400
Cu	Cu	0.52940 0.83841 0.37682 0.89500
Cu	Cu	0.48935 0.83150 0.44378 0.89200
C 	C 	0.39505 0.82679 0.43829 0.28900
O 	O 	0.44375 0.88721 0.41344 -0.36400
C 	C 	0.57637 0.85648 0.31779 0.28200
O 	O 	0.47982 0.82321 0.39846 -0.64100
O 	O 	0.48619 0.86391 0.35651 -0.64300
O 	O 	0.39446 0.85098 0.34579 -0.37600
O 	O 	0.43818 0.82281 0.31547 -0.44000
O 	O 	0.42787 0.83425 0.45693 -0.38700
O 	O 	0.56902 0.81146 0.39526 -0.39000
C 	C 	0.57446 0.80654 0.42723 0.29200
C 	C 	0.48136 0.89355 0.42606 0.28300
O 	O 	0.50999 0.87376 0.43096 -0.39600
O 	O 	0.54225 0.80837 0.44847 -0.39600
O 	O 	0.39023 0.83724 0.40819 -0.36300
C 	C 	0.39974 0.83233 0.32224 0.29300
O 	O 	0.57706 0.85243 0.35026 -0.38300
O 	O 	0.54072 0.86384 0.30249 -0.42000
H 	H 	0.47390 0.80328 0.39331 0.16200
H 	H 	0.49456 0.88393 0.35712 0.17100
Cu	Cu	0.04502 0.16011 0.89173 0.93000
Cu	Cu	0.99527 0.16922 0.82090 0.86500
Cu	Cu	0.95554 0.18511 0.88559 0.89300
Cu	Cu	0.99644 0.18477 0.95370 0.88800
C 	C 	0.09063 0.18147 0.94789 0.28900
O 	O 	0.03067 0.12672 0.92077 -0.35100
C 	C 	0.90471 0.16411 0.82850 0.29000
O 	O 	0.00755 0.19379 0.90890 -0.62900
O 	O 	0.99214 0.15515 0.86582 -0.65000
O 	O 	0.08560 0.16189 0.85383 -0.37500
O 	O 	0.04439 0.19248 0.82465 -0.43400
O 	O 	0.05670 0.17592 0.96622 -0.38100
O 	O 	0.92310 0.21501 0.90624 -0.38700
C 	C 	0.91807 0.21835 0.93859 0.29000
C 	C 	0.99224 0.12338 0.93360 0.26500
O 	O 	0.96760 0.14531 0.93871 -0.39500
O 	O 	0.94923 0.21237 0.95970 -0.39800
O 	O 	0.09337 0.17203 0.91717 -0.36500
C 	C 	0.08196 0.18140 0.83101 0.29100
O 	O 	0.90730 0.18126 0.85432 -0.39200
O 	O 	0.93925 0.15464 0.81339 -0.42400
H 	H 	0.01839 0.21302 0.90506 0.16500
H 	H 	0.97918 0.13625 0.86730 0.16800
Cu	Cu	0.43765 0.16080 0.59511 0.92800
Cu	Cu	0.48853 0.16401 0.66597 0.86600
Cu	Cu	0.52964 0.18098 0.60213 0.89500
Cu	Cu	0.48696 0.18943 0.53601 0.89200
C 	C 	0.39215 0.18784 0.54211 0.29000
O 	O 	0.44931 0.12993 0.56182 -0.36500
C 	C 	0.57924 0.16049 0.65957 0.28300
O 	O 	0.47770 0.19453 0.58202 -0.63800
O 	O 	0.49015 0.15177 0.62004 -0.64300
O 	O 	0.39715 0.15978 0.63311 -0.37600
O 	O 	0.43958 0.18754 0.66487 -0.44200
O 	O 	0.42585 0.18364 0.52298 -0.38600
O 	O 	0.56501 0.21106 0.58516 -0.38800
C 	C 	0.56915 0.21759 0.55345 0.29100
C 	C 	0.48753 0.12637 0.54872 0.28200
O 	O 	0.51338 0.14794 0.54524 -0.39700
O 	O 	0.53641 0.21573 0.53274 -0.39400
O 	O 	0.38998 0.17657 0.57198 -0.36600
C 	C 	0.40185 0.17684 0.65840 0.29300
O 	O 	0.57960 0.16949 0.62846 -0.38300
O 	O 	0.54461 0.14917 0.67258 -0.42100
H 	H 	0.46926 0.21370 0.58880 0.16300
H 	H 	0.50097 0.13241 0.61720 0.17100
Cu	Cu	0.93547 0.66351 0.59333 0.92800
Cu	Cu	0.98572 0.67784 0.66197 0.86100
Cu	Cu	0.02717 0.68470 0.59688 0.89800
Cu	Cu	0.98421 0.68475 0.52979 0.88800
C 	C 	0.88966 0.68426 0.53680 0.29000
O 	O 	0.94745 0.62872 0.56612 -0.36500
C 	C 	0.07655 0.66921 0.65726 0.28600
O 	O 	0.97518 0.69541 0.57442 -0.64400
O 	O 	0.98764 0.65830 0.61978 -0.65000
O 	O 	0.89547 0.66734 0.63109 -0.38000
O 	O 	0.93589 0.70049 0.65661 -0.44200
O 	O 	0.92293 0.67780 0.51812 -0.38800
O 	O 	0.06288 0.71203 0.57444 -0.38400
C 	C 	0.06637 0.71479 0.54189 0.29000
C 	C 	0.98543 0.62385 0.55323 0.27400
O 	O 	0.01099 0.64491 0.54606 -0.38400
O 	O 	0.03318 0.71065 0.52211 -0.38900
O 	O 	0.88744 0.67569 0.56787 -0.36800
C 	C 	0.89847 0.68883 0.65125 0.29300
O 	O 	0.07676 0.67712 0.62567 -0.38300
O 	O 	0.04069 0.66296 0.67293 -0.41600
H 	H 	0.96649 0.71516 0.57785 0.16000
H 	H 	0.99860 0.63885 0.62111 0.16900
Cu	Cu	0.54687 0.66050 0.88582 0.92800
Cu	Cu	0.50239 0.67355 0.81439 0.86500
Cu	Cu	0.45794 0.68574 0.87813 0.89400
Cu	Cu	0.49868 0.68907 0.94609 0.89400
C 	C 	0.59211 0.68441 0.94047 0.28900
O 	O 	0.52905 0.62852 0.91580 -0.36500
C 	C 	0.41066 0.67345 0.81678 0.28400
O 	O 	0.51039 0.69566 0.90064 -0.63700
O 	O 	0.49554 0.65654 0.85805 -0.64400
O 	O 	0.58910 0.65909 0.84930 -0.37900
O 	O 	0.55536 0.69292 0.81960 -0.44100
O 	O 	0.55847 0.68029 0.95953 -0.38900
O 	O 	0.42364 0.71560 0.89729 -0.38500
C 	C 	0.42024 0.72083 0.92939 0.29100
C 	C 	0.49052 0.62692 0.92890 0.28200
O 	O 	0.46759 0.64979 0.93303 -0.39800
O 	O 	0.45342 0.71808 0.94942 -0.39700
O 	O 	0.59533 0.67155 0.91164 -0.36200
C 	C 	0.59041 0.67911 0.82705 0.29200
O 	O 	0.40896 0.67775 0.84923 -0.38300
O 	O 	0.44523 0.66304 0.80260 -0.41900
H 	H 	0.52137 0.71459 0.89526 0.16000
H 	H 	0.48255 0.63761 0.85772 0.17100
Cu	Cu	0.93643 0.35613 0.38714 0.92700
Cu	Cu	0.98819 0.35338 0.31677 0.86100
Cu	Cu	0.03033 0.33999 0.38090 0.90000
Cu	Cu	0.98801 0.33005 0.44697 0.88700
C 	C 	0.89398 0.32629 0.43930 0.28900
O 	O 	0.94476 0.38768 0.42008 -0.36400
C 	C 	0.07844 0.36201 0.32354 0.28400
O 	O 	0.97977 0.32429 0.40091 -0.64300
O 	O 	0.98804 0.36702 0.36220 -0.64800
O 	O 	0.89633 0.35531 0.34897 -0.37700
O 	O 	0.94090 0.32831 0.31808 -0.44400
O 	O 	0.92617 0.33251 0.45918 -0.39000
O 	O 	0.06879 0.31186 0.39849 -0.38400
C 	C 	0.07333 0.30597 0.43032 0.29000
C 	C 	0.98248 0.39302 0.43316 0.27300
O 	O 	0.01022 0.37258 0.43743 -0.38400
O 	O 	0.04016 0.30618 0.45073 -0.38900
O 	O 	0.89007 0.33871 0.41022 -0.36400
C 	C 	0.90234 0.33789 0.32420 0.29100
O 	O 	0.07912 0.35379 0.35495 -0.38200
O 	O 	0.04265 0.37058 0.30944 -0.41500
H 	H 	0.97342 0.30475 0.39424 0.16000
H 	H 	0.99681 0.38688 0.36442 0.16900
Cu	Cu	0.54414 0.35891 0.08837 0.92800
Cu	Cu	0.49523 0.34854 0.15885 0.86500
Cu	Cu	0.45418 0.33499 0.09473 0.89400
Cu	Cu	0.49613 0.33128 0.02775 0.89300
C 	C 	0.58995 0.33517 0.03373 0.28900
O 	O 	0.52880 0.39102 0.05764 -0.36400
C 	C 	0.40381 0.35156 0.15369 0.28600
O 	O 	0.50682 0.32435 0.07323 -0.63800
O 	O 	0.49164 0.36437 0.11456 -0.64400
O 	O 	0.58505 0.35922 0.12602 -0.37600
O 	O 	0.54651 0.32728 0.15519 -0.44300
O 	O 	0.55625 0.33989 0.01488 -0.38900
O 	O 	0.42055 0.30477 0.07585 -0.38600
C 	C 	0.41712 0.29929 0.04381 0.29100
C 	C 	0.49037 0.39341 0.04448 0.28200
O 	O 	0.46636 0.37101 0.04052 -0.39800
O 	O 	0.44970 0.30306 0.02336 -0.39700
O 	O 	0.59272 0.34644 0.06353 -0.36300
C 	C 	0.58300 0.33991 0.14916 0.29100
O 	O 	0.40392 0.34379 0.12210 -0.38500
O 	O 	0.43855 0.36141 0.16819 -0.42100
H 	H 	0.51698 0.30523 0.07864 0.16200
H 	H 	0.47913 0.38343 0.11378 0.17200
C 	C 	0.86668 0.33137 0.30134 -0.10200
C 	C 	0.82431 0.33716 0.31074 0.02000
C 	C 	0.79111 0.33449 0.28774 -0.07800
C 	C 	0.79972 0.32536 0.25523 0.04500
C 	C 	0.84175 0.31842 0.24627 -0.08100
C 	C 	0.87505 0.32130 0.26919 0.01600
C 	C 	0.76608 0.32644 0.22941 -0.05400
C 	C 	0.72581 0.31814 0.23583 -0.05400
C 	C 	0.69100 0.32306 0.21163 0.04500
C 	C 	0.65983 0.30237 0.20650 -0.08000
C 	C 	0.62501 0.30763 0.18559 0.01800
C 	C 	0.62085 0.33377 0.16982 -0.10100
C 	C 	0.65223 0.35441 0.17480 0.01900
C 	C 	0.68689 0.34919 0.19579 -0.07800
H 	H 	0.81720 0.34443 0.33561 0.03700
H 	H 	0.75896 0.34047 0.29486 0.04700
H 	H 	0.84879 0.31145 0.22126 0.04300
H 	H 	0.90748 0.31655 0.26158 0.01500
H 	H 	0.77437 0.33412 0.20481 0.04000
H 	H 	0.71850 0.30747 0.25899 0.04000
H 	H 	0.66245 0.28226 0.21884 0.04400
H 	H 	0.60122 0.29143 0.18178 0.02500
H 	H 	0.64923 0.37477 0.16310 0.03100
H 	H 	0.70998 0.36568 0.20035 0.04700
C 	C 	0.36271 0.35324 0.17162 -0.09300
C 	C 	0.32432 0.35769 0.15427 0.02000
C 	C 	0.28547 0.35895 0.17143 -0.07800
C 	C 	0.28461 0.35598 0.20606 0.04600
C 	C 	0.32292 0.35114 0.22337 -0.07700
C 	C 	0.36176 0.34999 0.20627 0.01700
C 	C 	0.24315 0.35597 0.22374 -0.05400
C 	C 	0.23775 0.37062 0.25197 -0.05300
C 	C 	0.19693 0.36941 0.27042 0.04500
C 	C 	0.19716 0.36397 0.30461 -0.07700
C 	C 	0.15866 0.36208 0.32214 0.01700
C 	C 	0.11942 0.36594 0.30564 -0.09100
C 	C 	0.11940 0.37230 0.27153 0.01500
C 	C 	0.15794 0.37421 0.25411 -0.07600
H 	H 	0.32455 0.36030 0.12756 0.03300
H 	H 	0.25602 0.36230 0.15780 0.04600
H 	H 	0.32253 0.34781 0.24996 0.04500
H 	H 	0.39104 0.34608 0.21990 0.01900
H 	H 	0.21645 0.34446 0.21309 0.04100
H 	H 	0.26436 0.38226 0.26256 0.04100
H 	H 	0.22716 0.36074 0.31752 0.04500
H 	H 	0.15940 0.35741 0.34844 0.03500
H 	H 	0.08956 0.37544 0.25840 0.02600
H 	H 	0.15746 0.37932 0.22790 0.04600
C 	C 	0.47510 0.59986 0.94214 -0.09300
C 	C 	0.49315 0.57466 0.93078 0.01900
C 	C 	0.48383 0.54941 0.94678 -0.07600
C 	C 	0.45550 0.54893 0.97390 0.04500
C 	C 	0.43577 0.57389 0.98415 -0.07700
C 	C 	0.44536 0.59922 0.96829 0.01700
C 	C 	0.45106 0.52334 0.99443 -0.05300
C 	C 	0.44953 0.49773 0.98049 -0.05300
C 	C 	0.45557 0.47205 0.00060 0.04500
C 	C 	0.43290 0.44764 0.99241 -0.07600
C 	C 	0.44290 0.42216 0.00778 0.01600
C 	C 	0.47601 0.42080 0.03135 -0.09200
C 	C 	0.49745 0.44549 0.04055 0.01700
C 	C 	0.48766 0.47088 0.02503 -0.07500
H 	H 	0.51550 0.57474 0.91024 0.02900
H 	H 	0.49999 0.53044 0.93895 0.04800
H 	H 	0.41396 0.57380 0.00505 0.04500
H 	H 	0.43093 0.61844 0.97721 0.02700
H 	H 	0.45025 0.52541 0.02131 0.04100
H 	H 	0.44483 0.49570 0.95385 0.04100
H 	H 	0.40824 0.44825 0.97353 0.04600
H 	H 	0.42583 0.40337 0.00054 0.02800
H 	H 	0.52252 0.44491 0.05909 0.03100
H 	H 	0.50609 0.48941 0.03113 0.04800
C 	C 	0.99809 0.59483 0.54497 -0.11200
C 	C 	0.02826 0.58965 0.51982 0.03900
C 	C 	0.03641 0.56218 0.50942 -0.08800
C 	C 	0.01402 0.53966 0.52374 0.06700
C 	C 	0.98596 0.54469 0.55021 -0.10000
C 	C 	0.97795 0.57211 0.56075 0.03000
C 	C 	0.01891 0.51080 0.51074 -0.05600
C 	C 	0.01668 0.50562 0.47794 -0.05600
C 	C 	0.00992 0.47681 0.46534 0.06700
C 	C 	0.97888 0.47198 0.44090 -0.10000
C 	C 	0.97060 0.44474 0.42989 0.02900
C 	C 	0.99346 0.42197 0.44313 -0.11200
C 	C 	0.02586 0.42693 0.46661 0.03900
C 	C 	0.03426 0.45425 0.47748 -0.08800
H 	H 	0.04457 0.60690 0.50775 0.02400
H 	H 	0.05956 0.55845 0.48990 0.05100
H 	H 	0.96938 0.52741 0.56200 0.04900
H 	H 	0.95552 0.57571 0.58080 0.02400
H 	H 	0.01853 0.49344 0.52822 0.04500
H 	H 	0.01411 0.52301 0.46059 0.04500
H 	H 	0.96057 0.48931 0.43086 0.04900
H 	H 	0.94622 0.44135 0.41121 0.02500
H 	H 	0.04409 0.40965 0.47680 0.02500
H 	H 	0.05945 0.45783 0.49545 0.05100
C 	C 	0.11776 0.66495 0.67458 -0.09100
C 	C 	0.12016 0.64702 0.70223 0.01700
C 	C 	0.15827 0.64465 0.72016 -0.07700
C 	C 	0.19431 0.66024 0.71083 0.04500
C 	C 	0.19254 0.67726 0.68237 -0.07500
C 	C 	0.15438 0.67978 0.66450 0.01500
C 	C 	0.23421 0.65787 0.73039 -0.05300
C 	C 	0.25636 0.68079 0.73936 -0.05500
C 	C 	0.29592 0.67827 0.75910 0.04700
C 	C 	0.33459 0.68841 0.74626 -0.07900
C 	C 	0.37205 0.68664 0.76507 0.01700
C 	C 	0.37102 0.67521 0.79717 -0.09300
C 	C 	0.33215 0.66541 0.81024 0.02200
C 	C 	0.29475 0.66686 0.79123 -0.07800
H 	H 	0.09249 0.63500 0.70993 0.03100
H 	H 	0.15959 0.63096 0.74161 0.04600
H 	H 	0.22067 0.68856 0.67415 0.04600
H 	H 	0.15315 0.69356 0.64315 0.03400
H 	H 	0.24421 0.63733 0.73918 0.04200
H 	H 	0.24630 0.70142 0.73098 0.04100
H 	H 	0.33566 0.69751 0.72164 0.04500
H 	H 	0.40182 0.69443 0.75483 0.01500
H 	H 	0.33096 0.65647 0.83494 0.03200
H 	H 	0.26488 0.65933 0.80153 0.04800
C 	C 	0.63101 0.68559 0.80995 -0.10000
C 	C 	0.63739 0.71192 0.79506 0.01700
C 	C 	0.67580 0.71779 0.77861 -0.07900
C 	C 	0.70794 0.69726 0.77658 0.04500
C 	C 	0.70194 0.67126 0.79210 -0.07900
C 	C 	0.66367 0.66539 0.80855 0.02000
C 	C 	0.74840 0.70286 0.75877 -0.05400
C 	C 	0.74822 0.71319 0.72770 -0.05400
C 	C 	0.78662 0.71089 0.70639 0.04600
C 	C 	0.78272 0.69996 0.67424 -0.07900
C 	C 	0.81925 0.69402 0.65554 0.02100
C 	C 	0.86010 0.69907 0.66881 -0.10000
C 	C 	0.86388 0.71202 0.70000 0.01700
C 	C 	0.82727 0.71811 0.71861 -0.08000
H 	H 	0.61284 0.72790 0.79645 0.02500
H 	H 	0.68061 0.73827 0.76761 0.04500
H 	H 	0.72674 0.65542 0.79100 0.04600
H 	H 	0.65925 0.64500 0.81989 0.03300
H 	H 	0.77799 0.69481 0.76927 0.04000
H 	H 	0.71818 0.71960 0.71642 0.04000
H 	H 	0.75143 0.69507 0.66422 0.04600
H 	H 	0.81581 0.68491 0.63105 0.03600
H 	H 	0.89514 0.71654 0.71030 0.01600
H 	H 	0.83056 0.72773 0.74284 0.04400
C 	C 	0.11381 0.29315 0.44163 -0.09000
C 	C 	0.15270 0.30080 0.42668 0.01700
C 	C 	0.19124 0.28944 0.43809 -0.07600
C 	C 	0.19129 0.27009 0.46430 0.04500
C 	C 	0.15246 0.26251 0.47939 -0.07600
C 	C 	0.11392 0.27383 0.46799 0.01800
C 	C 	0.23236 0.25928 0.47728 -0.05300
C 	C 	0.23801 0.23174 0.48291 -0.05400
C 	C 	0.27771 0.22114 0.49843 0.04600
C 	C 	0.27512 0.20241 0.52516 -0.07600
C 	C 	0.31235 0.19167 0.53955 0.02000
C 	C 	0.35271 0.19932 0.52706 -0.09000
C 	C 	0.35527 0.21790 0.50006 0.01700
C 	C 	0.31796 0.22862 0.48568 -0.07600
H 	H 	0.15316 0.31589 0.40656 0.03300
H 	H 	0.22107 0.29571 0.42660 0.04600
H 	H 	0.15218 0.24815 0.50022 0.04700
H 	H 	0.08422 0.26763 0.47972 0.03200
H 	H 	0.25841 0.27391 0.48169 0.04100
H 	H 	0.21200 0.21713 0.47824 0.04300
H 	H 	0.24421 0.19624 0.53488 0.04700
H 	H 	0.30976 0.17718 0.56016 0.03800
H 	H 	0.38612 0.22408 0.49024 0.02200
H 	H 	0.32033 0.24252 0.46449 0.04600
C 	C 	0.85713 0.31052 0.45262 -0.09200
C 	C 	0.83026 0.29561 0.43095 0.01700
C 	C 	0.79516 0.28077 0.44333 -0.07700
C 	C 	0.78624 0.28090 0.47742 0.04500
C 	C 	0.81342 0.29544 0.49924 -0.07700
C 	C 	0.84860 0.31026 0.48689 0.01700
C 	C 	0.74950 0.26467 0.49023 -0.05400
C 	C 	0.72060 0.27652 0.51059 -0.05400
C 	C 	0.68228 0.26086 0.52156 0.04500
C 	C 	0.67055 0.26106 0.55515 -0.07700
C 	C 	0.63372 0.24696 0.56564 0.01900
C 	C 	0.60793 0.23275 0.54250 -0.09100
C 	C 	0.61946 0.23287 0.50879 0.01700
C 	C 	0.65623 0.24701 0.49835 -0.07700
H 	H 	0.83674 0.29535 0.40453 0.03000
H 	H 	0.77475 0.26928 0.42638 0.04500
H 	H 	0.80746 0.29509 0.52572 0.04500
H 	H 	0.86899 0.32165 0.50393 0.03000
H 	H 	0.74448 0.24345 0.48116 0.04000
H 	H 	0.72573 0.29765 0.51989 0.04200
H 	H 	0.69007 0.27205 0.57317 0.04500
H 	H 	0.62510 0.24731 0.59168 0.03300
H 	H 	0.60002 0.22194 0.49068 0.02600
H 	H 	0.66428 0.24739 0.47219 0.04600
C 	C 	0.12931 0.19276 0.96416 -0.09000
C 	C 	0.12547 0.20965 0.99260 0.01800
C 	C 	0.16190 0.22101 0.00754 -0.07800
C 	C 	0.20246 0.21593 0.99402 0.04700
C 	C 	0.20650 0.19849 0.96609 -0.07600
C 	C 	0.17011 0.18712 0.95110 0.02000
C 	C 	0.24067 0.22855 0.00959 -0.05500
C 	C 	0.26954 0.24251 0.99123 -0.05200
C 	C 	0.30769 0.25530 0.00665 0.04400
C 	C 	0.34806 0.25079 0.99252 -0.07600
C 	C 	0.38399 0.26448 0.00525 0.01700
C 	C 	0.37982 0.28315 0.03204 -0.09100
C 	C 	0.33943 0.28741 0.04647 0.01600
C 	C 	0.30350 0.27366 0.03373 -0.07500
H 	H 	0.09424 0.21427 0.00288 0.02300
H 	H 	0.15854 0.23415 0.02933 0.04600
H 	H 	0.23781 0.19371 0.95605 0.04700
H 	H 	0.17371 0.17381 0.92949 0.03700
H 	H 	0.24409 0.22764 0.03642 0.04300
H 	H 	0.26601 0.24348 0.96441 0.04100
H 	H 	0.35155 0.23677 0.97153 0.04500
H 	H 	0.41500 0.26069 0.99412 0.03000
H 	H 	0.33569 0.30193 0.06696 0.03300
H 	H 	0.27231 0.27779 0.04438 0.04700
C 	C 	0.88101 0.23463 0.95083 -0.09200
C 	C 	0.87039 0.23409 0.98474 0.01700
C 	C 	0.83618 0.25002 0.99664 -0.07800
C 	C 	0.81168 0.26626 0.97478 0.04500
C 	C 	0.82206 0.26682 0.94087 -0.07700
C 	C 	0.85645 0.25101 0.92891 0.01800
C 	C 	0.77628 0.28350 0.98785 -0.05400
C 	C 	0.73666 0.28133 0.97519 -0.05400
C 	C 	0.70026 0.29630 0.99050 0.04600
C 	C 	0.67105 0.31069 0.97034 -0.07700
C 	C 	0.63541 0.32381 0.98444 0.01800
C 	C 	0.62844 0.32242 0.01887 -0.09200
C 	C 	0.65766 0.30792 0.03902 0.01700
C 	C 	0.69319 0.29475 0.02490 -0.07600
H 	H 	0.88861 0.22132 0.00190 0.02600
H 	H 	0.82852 0.24959 0.02287 0.04400
H 	H 	0.80382 0.27974 0.92387 0.04600
H 	H 	0.86427 0.25182 0.90274 0.03400
H 	H 	0.78190 0.29638 0.00969 0.04100
H 	H 	0.73112 0.26876 0.95309 0.04100
H 	H 	0.67597 0.31174 0.94375 0.04500
H 	H 	0.61329 0.33505 0.96858 0.03200
H 	H 	0.65236 0.30635 0.06554 0.03200
H 	H 	0.71480 0.28295 0.04061 0.04600
C 	C 	0.11931 0.18917 0.81070 -0.09900
C 	C 	0.11421 0.19552 0.77689 0.01900
C 	C 	0.15002 0.20035 0.75691 -0.07900
C 	C 	0.19123 0.19875 0.77048 0.04700
C 	C 	0.19626 0.19396 0.80470 -0.07700
C 	C 	0.16048 0.18892 0.82464 0.02200
C 	C 	0.22895 0.20194 0.74863 -0.05400
C 	C 	0.26176 0.18379 0.75026 -0.05500
C 	C 	0.29748 0.18527 0.72639 0.04700
C 	C 	0.33971 0.18558 0.73807 -0.08100
C 	C 	0.37385 0.18392 0.71577 0.02000
C 	C 	0.36605 0.18144 0.68155 -0.10300
C 	C 	0.32377 0.18167 0.66980 0.02300
C 	C 	0.28963 0.18355 0.69212 -0.07900
H 	H 	0.08260 0.19594 0.76587 0.01500
H 	H 	0.14577 0.20459 0.73070 0.04500
H 	H 	0.22784 0.19391 0.81576 0.04700
H 	H 	0.16476 0.18472 0.85086 0.03400
H 	H 	0.22831 0.21781 0.72925 0.04200
H 	H 	0.26251 0.16783 0.76952 0.04200
H 	H 	0.34606 0.18670 0.76448 0.04400
H 	H 	0.40631 0.18366 0.72517 0.01000
H 	H 	0.31734 0.18001 0.64344 0.03400
H 	H 	0.25711 0.18291 0.68285 0.04800
C 	C 	0.86257 0.15857 0.81349 -0.09600
C 	C 	0.85451 0.13277 0.79787 0.01800
C 	C 	0.81628 0.12856 0.78057 -0.07900
C 	C 	0.78608 0.15019 0.77833 0.04600
C 	C 	0.79329 0.17557 0.79510 -0.07800
C 	C 	0.83137 0.17975 0.81259 0.01800
C 	C 	0.74679 0.14612 0.75859 -0.05500
C 	C 	0.73594 0.16448 0.73472 -0.05400
C 	C 	0.69630 0.16088 0.71519 0.04400
C 	C 	0.65716 0.15577 0.73119 -0.07800
C 	C 	0.61923 0.15481 0.71290 0.01500
C 	C 	0.61987 0.15920 0.67838 -0.09300
C 	C 	0.65917 0.16399 0.66236 0.01800
C 	C 	0.69710 0.16497 0.68073 -0.07700
H 	H 	0.87805 0.11612 0.79883 0.02500
H 	H 	0.81058 0.10870 0.76827 0.04500
H 	H 	0.76961 0.19215 0.79427 0.04600
H 	H 	0.83709 0.19970 0.82464 0.03000
H 	H 	0.72778 0.12732 0.76244 0.04100
H 	H 	0.75723 0.18180 0.72877 0.04000
H 	H 	0.65598 0.15327 0.75791 0.04500
H 	H 	0.58923 0.15140 0.72572 0.02200
H 	H 	0.66036 0.16727 0.63577 0.03600
H 	H 	0.72710 0.16914 0.66820 0.04500
C 	C 	0.61476 0.79331 0.43823 -0.09200
C 	C 	0.65339 0.79977 0.42212 0.01700
C 	C 	0.69169 0.78755 0.43273 -0.07700
C 	C 	0.69173 0.76852 0.45924 0.04500
C 	C 	0.65319 0.76222 0.47557 -0.07700
C 	C 	0.61489 0.77443 0.46501 0.01800
C 	C 	0.73261 0.75663 0.47118 -0.05400
C 	C 	0.73679 0.72897 0.47671 -0.05400
C 	C 	0.77614 0.71742 0.49176 0.04600
C 	C 	0.77307 0.69940 0.51913 -0.07700
C 	C 	0.81001 0.68839 0.53367 0.02000
C 	C 	0.85051 0.69504 0.52070 -0.09100
C 	C 	0.85352 0.71258 0.49278 0.01600
C 	C 	0.81650 0.72362 0.47828 -0.07700
H 	H 	0.65384 0.81452 0.40167 0.03200
H 	H 	0.72134 0.79286 0.42030 0.04500
H 	H 	0.65299 0.74811 0.49665 0.04600
H 	H 	0.58537 0.76916 0.47762 0.02900
H 	H 	0.75969 0.77056 0.47500 0.04000
H 	H 	0.70975 0.71505 0.47259 0.04100
H 	H 	0.74204 0.69416 0.52938 0.04600
H 	H 	0.80709 0.67463 0.55494 0.03600
H 	H 	0.88450 0.71790 0.48251 0.02000
H 	H 	0.81919 0.73692 0.45658 0.04500
C 	C 	0.10473 0.72875 0.52809 -0.09000
C 	C 	0.11405 0.72647 0.49406 0.01800
C 	C 	0.14945 0.74031 0.48065 -0.07700
C 	C 	0.17638 0.75620 0.50112 0.04600
C 	C 	0.16734 0.75841 0.53519 -0.07600
C 	C 	0.13183 0.74465 0.54864 0.01900
C 	C 	0.21237 0.77192 0.48631 -0.05300
C 	C 	0.25214 0.76981 0.49875 -0.05300
C 	C 	0.28842 0.78467 0.48307 0.04500
C 	C 	0.31721 0.79980 0.50284 -0.07700
C 	C 	0.35198 0.81359 0.48833 0.01800
C 	C 	0.35853 0.81214 0.45383 -0.09100
C 	C 	0.33010 0.79654 0.43413 0.01700
C 	C 	0.29541 0.78273 0.44869 -0.07600
H 	H 	0.09383 0.71400 0.47796 0.02800
H 	H 	0.15601 0.73864 0.45432 0.04600
H 	H 	0.18740 0.77115 0.55111 0.04700
H 	H 	0.12504 0.74678 0.57489 0.03400
H 	H 	0.20673 0.78405 0.46388 0.04300
H 	H 	0.25773 0.75785 0.52132 0.04100
H 	H 	0.31243 0.80110 0.52944 0.04600
H 	H 	0.37355 0.82557 0.50387 0.03200
H 	H 	0.33513 0.79486 0.40759 0.03100
H 	H 	0.27421 0.77032 0.43329 0.04600
C 	C 	0.48995 0.92252 0.43698 -0.09400
C 	C 	0.46990 0.94505 0.42081 0.02000
C 	C 	0.47195 0.97201 0.43429 -0.07700
C 	C 	0.49447 0.97683 0.46382 0.04700
C 	C 	0.51658 0.95462 0.47903 -0.07700
C 	C 	0.51447 0.92759 0.46558 0.01900
C 	C 	0.48960 0.00399 0.48102 -0.05400
C 	C 	0.52366 0.01816 0.49249 -0.05400
C 	C 	0.51798 0.04545 0.50927 0.04600
C 	C 	0.49003 0.04790 0.53639 -0.07700
C 	C 	0.48130 0.07421 0.55004 0.01800
C 	C 	0.50055 0.09836 0.53680 -0.09400
C 	C 	0.53038 0.09569 0.51087 0.01800
C 	C 	0.53917 0.06929 0.49729 -0.07700
H 	H 	0.45162 0.94153 0.39834 0.02600
H 	H 	0.45495 0.98902 0.42229 0.04700
H 	H 	0.53379 0.95803 0.50202 0.04700
H 	H 	0.53025 0.91043 0.47824 0.02600
H 	H 	0.45783 0.01314 0.48304 0.04400
H 	H 	0.55581 0.01038 0.48790 0.04100
H 	H 	0.47447 0.02947 0.54648 0.04800
H 	H 	0.45913 0.07585 0.57062 0.02700
H 	H 	0.54578 0.11408 0.50059 0.02700
H 	H 	0.56135 0.06753 0.47673 0.04600
C 	C 	0.62999 0.69885 0.95415 -0.09300
C 	C 	0.65990 0.71113 0.93257 0.01700
C 	C 	0.69451 0.72621 0.94528 -0.07700
C 	C 	0.69990 0.72898 0.97966 0.04600
C 	C 	0.67014 0.71666 0.00133 -0.07700
C 	C 	0.63545 0.70156 0.98865 0.01800
C 	C 	0.73531 0.74628 0.99262 -0.05300
C 	C 	0.76210 0.73629 0.01588 -0.05400
C 	C 	0.80097 0.75205 0.02527 0.04600
C 	C 	0.81103 0.75599 0.05886 -0.07800
C 	C 	0.84800 0.77068 0.06787 0.01900
C 	C 	0.87554 0.78128 0.04326 -0.09300
C 	C 	0.86563 0.77694 0.00963 0.01700
C 	C 	0.82882 0.76220 0.00071 -0.07800
H 	H 	0.65588 0.70947 0.90593 0.03300
H 	H 	0.71708 0.73588 0.92838 0.04600
H 	H 	0.67352 0.71914 0.02793 0.04600
H 	H 	0.61276 0.69214 0.00563 0.03000
H 	H 	0.74181 0.76639 0.98095 0.04100
H 	H 	0.75540 0.71642 0.02803 0.04200
H 	H 	0.79007 0.74786 0.07799 0.04500
H 	H 	0.85528 0.77364 0.09392 0.03200
H 	H 	0.88637 0.78508 0.99037 0.02500
H 	H 	0.82202 0.75856 0.97469 0.04600
C 	C 	0.12721 0.81741 0.01605 -0.09100
C 	C 	0.12302 0.79835 0.98963 0.01800
C 	C 	0.15936 0.78750 0.97403 -0.07700
C 	C 	0.20025 0.79523 0.98495 0.04700
C 	C 	0.20456 0.81444 0.01117 -0.07600
C 	C 	0.16826 0.82533 0.02679 0.02000
C 	C 	0.23843 0.78385 0.96806 -0.05400
C 	C 	0.27059 0.77242 0.98556 -0.05300
C 	C 	0.30897 0.76115 0.96886 0.04500
C 	C 	0.34964 0.76810 0.98093 -0.07700
C 	C 	0.38611 0.75575 0.96724 0.01900
C 	C 	0.38223 0.73600 0.94152 -0.09100
C 	C 	0.34155 0.72944 0.92896 0.01700
C 	C 	0.30505 0.74180 0.94271 -0.07500
H 	H 	0.09162 0.79187 0.98124 0.02400
H 	H 	0.15573 0.77288 0.95364 0.04600
H 	H 	0.23600 0.82113 0.01924 0.04700
H 	H 	0.17210 0.84020 0.04690 0.03700
H 	H 	0.23938 0.78368 0.94108 0.04200
H 	H 	0.26951 0.77255 0.01254 0.04100
H 	H 	0.35298 0.78293 0.00115 0.04500
H 	H 	0.41733 0.76131 0.97686 0.03000
H 	H 	0.33809 0.71412 0.90928 0.03300
H 	H 	0.27374 0.73580 0.93365 0.04700
C 	C 	0.97857 0.91347 0.01856 -0.11900
C 	C 	0.00360 0.92251 0.99173 0.06500
C 	C 	0.99317 0.94719 0.97493 -0.12300
C 	C 	0.95816 0.96334 0.98524 0.06500
C 	C 	0.93236 0.95394 0.01153 -0.09100
C 	C 	0.94245 0.92897 0.02804 0.03000
C 	C 	0.94981 0.99058 0.96921 -0.06400
C 	C 	0.95345 0.01450 0.98659 -0.05100
C 	C 	0.95856 0.04183 0.96966 0.04600
C 	C 	0.93856 0.06572 0.98273 -0.07600
C 	C 	0.94810 0.09230 0.97002 0.01400
C 	C 	0.97812 0.09524 0.94428 -0.08700
C 	C 	0.99693 0.07122 0.93040 0.00300
C 	C 	0.98756 0.04471 0.94320 -0.08600
H 	H 	0.03129 0.91049 0.98403 0.02300
H 	H 	0.01299 0.95418 0.95447 0.06600
H 	H 	0.90490 0.96610 0.01937 0.05000
H 	H 	0.92279 0.92203 0.04861 0.01900
H 	H 	0.94684 0.99132 0.94234 0.04100
H 	H 	0.95490 0.01378 0.01355 0.04000
H 	H 	0.91640 0.06378 0.00328 0.04400
H 	H 	0.93325 0.11062 0.98096 0.02600
H 	H 	0.01965 0.07312 0.91022 0.04000
H 	H 	0.00401 0.02653 0.93335 0.05800
C 	C 	0.12646 0.83784 0.16445 -0.09800
C 	C 	0.16549 0.83674 0.14724 0.02200
C 	C 	0.20376 0.83262 0.16452 -0.07800
C 	C 	0.20343 0.82935 0.19911 0.04600
C 	C 	0.16426 0.82980 0.21626 -0.07800
C 	C 	0.12595 0.83379 0.19896 0.01900
C 	C 	0.24439 0.82894 0.21748 -0.05300
C 	C 	0.25117 0.81085 0.24254 -0.05500
C 	C 	0.28997 0.81307 0.26332 0.04700
C 	C 	0.28601 0.81586 0.29781 -0.07900
C 	C 	0.32217 0.82098 0.31731 0.02300
C 	C 	0.36270 0.82305 0.30247 -0.10100
C 	C 	0.36698 0.81845 0.26820 0.01900
C 	C 	0.33077 0.81343 0.24870 -0.08000
H 	H 	0.16626 0.83944 0.12054 0.03600
H 	H 	0.23377 0.83245 0.15107 0.04600
H 	H 	0.16360 0.82802 0.24306 0.04600
H 	H 	0.09608 0.83472 0.21255 0.01700
H 	H 	0.26943 0.84356 0.21029 0.04100
H 	H 	0.22638 0.79601 0.24957 0.04100
H 	H 	0.25475 0.81499 0.30939 0.04700
H 	H 	0.31858 0.82386 0.34385 0.03500
H 	H 	0.39812 0.81970 0.25650 0.01300
H 	H 	0.33431 0.81043 0.22219 0.04500
C 	C 	0.61741 0.85774 0.29955 -0.09200
C 	C 	0.65327 0.84318 0.31165 0.01500
C 	C 	0.69114 0.84241 0.29323 -0.07700
C 	C 	0.69381 0.85634 0.26266 0.04400
C 	C 	0.65821 0.87121 0.25067 -0.07700
C 	C 	0.62030 0.87205 0.26910 0.01500
C 	C 	0.73264 0.85308 0.24202 -0.05400
C 	C 	0.75088 0.87524 0.22701 -0.05400
C 	C 	0.79060 0.87194 0.20742 0.04400
C 	C 	0.82482 0.89047 0.21238 -0.07800
C 	C 	0.86282 0.88715 0.19448 0.01600
C 	C 	0.86679 0.86537 0.17114 -0.09300
C 	C 	0.83199 0.84735 0.16548 0.01500
C 	C 	0.79402 0.85072 0.18337 -0.07600
H 	H 	0.65149 0.83186 0.33493 0.03200
H 	H 	0.71828 0.83068 0.30255 0.04400
H 	H 	0.65955 0.88156 0.22676 0.04500
H 	H 	0.59310 0.88353 0.25949 0.02900
H 	H 	0.74787 0.83261 0.24066 0.04000
H 	H 	0.73804 0.89617 0.23093 0.04100
H 	H 	0.82220 0.90722 0.23044 0.04400
H 	H 	0.88909 0.90151 0.19874 0.02700
H 	H 	0.83452 0.83052 0.14753 0.03200
H 	H 	0.76733 0.83681 0.17859 0.04600
