data_crystal

_cell_length_a 23.95413
_cell_length_b 23.17441
_cell_length_c 57.29491
_cell_angle_alpha 89.74006
_cell_angle_beta  89.75230
_cell_angle_gamma 119.42570

_symmetry_space_group_name_	'P 1'
_symmetry_space_group_name_H-M	'P 1'

loop_
_symmetry_equiv_pos_as_xyz
  x,y,z

loop_
_atom_site_label
_atom_site_type_symbol
_atom_site_fract_x
_atom_site_fract_y
_atom_site_fract_z
_atom_site_charge
C 	C 	0.14910 0.06536 0.74635 0.30700
C 	C 	0.07786 0.99524 0.68720 0.27300
Ni	Ni	0.04600 0.92826 0.73450 1.11000
Ni	Ni	0.03372 0.05742 0.72180 1.12400
O 	O 	0.12392 0.00172 0.75182 -0.36600
O 	O 	0.12792 0.08541 0.72829 -0.37400
O 	O 	0.09895 0.97247 0.70410 -0.37200
O 	O 	0.03495 0.01328 0.69159 -0.36800
O 	O 	0.00570 0.97889 0.73955 -0.72300
H 	H 	0.02358 0.99803 0.75486 0.15600
C 	C 	0.18189 0.61484 0.39293 0.28600
O 	O 	0.18371 0.56519 0.40397 -0.37500
O 	O 	0.16664 0.59818 0.45115 -0.39100
C 	C 	0.23338 0.64426 0.00780 0.32000
O 	O 	0.25616 0.60641 0.01497 -0.39800
C 	C 	0.05361 0.09416 0.20214 0.32200
C 	C 	0.07187 0.09893 0.27006 0.28900
C 	C 	0.97059 0.88285 0.20243 0.31800
C 	C 	0.98541 0.88154 0.26934 0.29700
Ni	Ni	0.04570 0.99152 0.23535 1.11700
O 	O 	0.01792 0.90735 0.21744 -0.38200
O 	O 	0.03629 0.11846 0.21965 -0.36900
O 	O 	0.05348 0.03757 0.20424 -0.37200
O 	O 	0.03812 0.93847 0.26435 -0.38000
O 	O 	0.09449 0.08037 0.25206 -0.37100
C 	C 	0.27026 0.39185 0.09281 -0.06800
C 	C 	0.20996 0.34066 0.08619 0.02800
C 	C 	0.18226 0.34690 0.06543 -0.06700
C 	C 	0.21265 0.40598 0.05239 0.01900
C 	C 	0.17259 0.28528 0.10262 0.00200
C 	C 	0.11845 0.28077 0.11396 -0.03800
C 	C 	0.09154 0.23859 0.13327 -0.03100
C 	C 	0.11839 0.20047 0.14133 -0.00400
C 	C 	0.17013 0.20204 0.12924 -0.03200
C 	C 	0.19706 0.24415 0.10992 -0.03900
C 	C 	0.09526 0.16276 0.16275 0.05000
C 	C 	0.07627 0.13159 0.18076 -0.09900
H 	H 	0.29217 0.38755 0.10875 0.04600
H 	H 	0.13598 0.30734 0.05999 0.04800
H 	H 	0.18915 0.41182 0.03716 0.03000
H 	H 	0.09916 0.31227 0.10852 0.04200
H 	H 	0.05111 0.23714 0.14236 0.04300
H 	H 	0.19069 0.17213 0.13520 0.04200
H 	H 	0.23860 0.24693 0.10124 0.04000
C 	C 	0.09733 0.68286 0.12328 0.02800
C 	C 	0.08145 0.64528 0.10284 -0.06800
C 	C 	0.12779 0.63598 0.09121 0.01700
C 	C 	0.05274 0.70305 0.13314 0.00000
C 	C 	0.02266 0.67727 0.15470 -0.03200
C 	C 	0.99078 0.70580 0.16626 -0.03900
C 	C 	0.98953 0.76074 0.15647 -0.01400
C 	C 	0.01474 0.78272 0.13402 -0.02500
C 	C 	0.04622 0.75390 0.12236 -0.04100
C 	C 	0.97679 0.80290 0.17132 0.04800
C 	C 	0.97101 0.83926 0.18487 -0.10700
H 	H 	0.03395 0.62539 0.09551 0.04700
H 	H 	0.11559 0.60875 0.07498 0.03600
H 	H 	0.02657 0.63730 0.16298 0.04000
H 	H 	0.97085 0.68805 0.18353 0.04100
H 	H 	0.01355 0.82479 0.12623 0.03800
C 	C 	0.11525 0.13451 0.28954 -0.07800
C 	C 	0.18196 0.16206 0.28690 0.01500
C 	C 	0.22327 0.20504 0.30377 -0.06300
C 	C 	0.19835 0.22125 0.32331 0.02600
C 	C 	0.13174 0.18921 0.32692 -0.06200
C 	C 	0.09044 0.14572 0.31021 0.01400
C 	C 	0.24063 0.27873 0.33779 0.00400
C 	C 	0.23706 0.27321 0.36224 -0.04200
C 	C 	0.26197 0.33024 0.37592 -0.03000
C 	C 	0.29126 0.39292 0.36523 -0.01100
C 	C 	0.30145 0.39842 0.34104 -0.02900
C 	C 	0.27610 0.34155 0.32734 -0.04000
H 	H 	0.20194 0.15250 0.27136 0.03900
H 	H 	0.27464 0.22827 0.30109 0.04700
H 	H 	0.11190 0.20066 0.34209 0.04800
H 	H 	0.03911 0.12275 0.31293 0.03900
H 	H 	0.21141 0.22490 0.37055 0.04000
H 	H 	0.25495 0.32560 0.39468 0.03700
H 	H 	0.28013 0.34649 0.30850 0.04200
C 	C 	0.12087 0.60548 0.38405 -0.08100
C 	C 	0.10868 0.59604 0.36007 0.01700
C 	C 	0.06702 0.61430 0.34963 -0.06100
C 	C 	0.03728 0.64205 0.36316 0.02200
C 	C 	0.04229 0.64225 0.38758 -0.06100
C 	C 	0.08394 0.62380 0.39800 0.00700
C 	C 	0.01310 0.68251 0.35168 0.01500
C 	C 	0.04469 0.75132 0.35521 -0.04700
C 	C 	0.03348 0.79228 0.34026 -0.02000
C 	C 	0.99050 0.76480 0.32176 -0.01900
C 	C 	0.95521 0.69581 0.31932 -0.02500
C 	C 	0.96629 0.65472 0.33429 -0.05400
C 	C 	0.98829 0.80720 0.30380 0.04500
C 	C 	0.98715 0.84193 0.28830 -0.10300
H 	H 	0.13575 0.58018 0.34923 0.03500
H 	H 	0.06217 0.61219 0.33081 0.04800
H 	H 	0.01780 0.66142 0.39829 0.04200
H 	H 	0.09161 0.62930 0.41666 0.03000
H 	H 	0.08069 0.77335 0.36865 0.04100
H 	H 	0.06039 0.84554 0.34241 0.03600
H 	H 	0.92123 0.67416 0.30523 0.03800
H 	H 	0.94097 0.60164 0.33161 0.04100
C 	C 	0.00231 0.60518 0.48894 0.01700
C 	C 	0.03519 0.65612 0.47227 0.01700
C 	C 	0.10032 0.67804 0.46751 -0.01400
C 	C 	0.13266 0.65014 0.47938 -0.10700
C 	C 	0.10270 0.60851 0.49888 0.10400
C 	C 	0.03719 0.58510 0.50321 -0.09800
C 	C 	0.00017 0.68356 0.45834 -0.15100
H 	H 	0.12412 0.71235 0.45318 0.03100
C 	C 	0.13840 0.58325 0.51352 -0.20800
H 	H 	0.01257 0.54839 0.51681 0.05700
H 	H 	0.03417 0.73075 0.44946 0.05600
H 	H 	0.96898 0.69392 0.46997 0.05400
H 	H 	0.11372 0.56312 0.53051 0.06900
H 	H 	0.18741 0.62405 0.51732 0.08300
H 	H 	0.14177 0.54333 0.50407 0.08200
C 	C 	0.10631 0.00595 0.66353 -0.06400
C 	C 	0.16820 0.01470 0.66031 0.00900
C 	C 	0.19856 0.03429 0.63851 -0.06100
C 	C 	0.10457 0.03362 0.62261 -0.06100
C 	C 	0.07396 0.01360 0.64434 0.00700
H 	H 	0.19371 0.00872 0.67485 0.04400
H 	H 	0.02568 0.00561 0.64640 0.04500
C 	C 	0.07659 0.53100 0.96363 -0.00000
C 	C 	0.06743 0.56157 0.98349 0.02300
C 	C 	0.12053 0.60425 0.99696 -0.00900
C 	C 	0.18234 0.61846 0.99032 -0.11600
C 	C 	0.19190 0.59529 0.96871 0.10000
C 	C 	0.13876 0.54946 0.95602 -0.09100
H 	H 	0.11339 0.62344 0.01326 0.03700
C 	C 	0.25857 0.61748 0.95957 -0.20400
H 	H 	0.14574 0.52767 0.94034 0.05100
H 	H 	0.28000 0.59150 0.96917 0.06100
H 	H 	0.28912 0.67181 0.96168 0.07700
H 	H 	0.25807 0.60662 0.94068 0.06700
C 	C 	0.26227 0.14357 0.76436 0.04700
C 	C 	0.21042 0.11002 0.75583 -0.09800
C 	C 	0.63860 0.34346 0.86915 0.28600
C 	C 	0.82211 0.52989 0.93448 0.30300
C 	C 	0.81798 0.43206 0.86709 0.31400
C 	C 	0.65488 0.46354 0.94058 0.30500
C 	C 	0.82724 0.36342 0.93606 0.31800
C 	C 	0.65206 0.24057 0.93664 0.29500
Ni	Ni	0.73092 0.46195 0.89640 1.11200
Ni	Ni	0.72293 0.38932 0.94693 1.11900
Ni	Ni	0.73439 0.32478 0.89845 1.11900
O 	O 	0.64801 0.39992 0.87854 -0.37300
O 	O 	0.68394 0.32570 0.86957 -0.37800
O 	O 	0.80150 0.38211 0.95240 -0.40100
O 	O 	0.81809 0.51091 0.91286 -0.38700
O 	O 	0.78022 0.49040 0.95032 -0.38100
O 	O 	0.65693 0.25117 0.91378 -0.39500
O 	O 	0.77727 0.45432 0.86647 -0.37600
O 	O 	0.81732 0.39627 0.88474 -0.39800
O 	O 	0.66351 0.28924 0.95175 -0.37800
O 	O 	0.68628 0.49413 0.92109 -0.38000
O 	O 	0.64785 0.40560 0.94694 -0.38900
O 	O 	0.79075 0.31463 0.92213 -0.40000
O 	O 	0.71555 0.38567 0.91365 -0.71200
H 	H 	0.66837 0.36027 0.91320 0.15900
C 	C 	0.72604 0.37460 0.58842 0.28700
C 	C 	0.48016 0.23748 0.54100 0.32700
C 	C 	0.62646 0.19569 0.57497 0.31000
C 	C 	0.56633 0.41192 0.54969 0.29900
C 	C 	0.62912 0.23504 0.49948 0.31700
C 	C 	0.74743 0.42086 0.51172 0.29200
Ni	Ni	0.58898 0.30261 0.57308 1.11400
Ni	Ni	0.60219 0.33681 0.51763 1.11900
Ni	Ni	0.70186 0.30275 0.54196 1.11900
O 	O 	0.66979 0.37255 0.59006 -0.37400
O 	O 	0.73391 0.33116 0.57554 -0.37600
O 	O 	0.58418 0.24962 0.50454 -0.39300
O 	O 	0.51541 0.22588 0.55542 -0.38500
O 	O 	0.50686 0.28935 0.52695 -0.38100
O 	O 	0.76214 0.39293 0.52917 -0.39000
O 	O 	0.61283 0.23463 0.58745 -0.37500
O 	O 	0.64164 0.20916 0.55288 -0.39500
O 	O 	0.69000 0.39024 0.50134 -0.38200
O 	O 	0.55183 0.36734 0.56689 -0.37300
O 	O 	0.60496 0.41728 0.53214 -0.39400
O 	O 	0.68653 0.26836 0.50876 -0.39300
O 	O 	0.63962 0.33002 0.54592 -0.71700
H 	H 	0.66763 0.37742 0.54923 0.16000
C 	C 	0.44421 0.75216 0.42619 0.32500
C 	C 	0.30147 0.55105 0.39951 0.33200
C 	C 	0.34938 0.82259 0.42364 0.30600
C 	C 	0.31524 0.59016 0.47409 0.31600
C 	C 	0.18438 0.64567 0.46692 0.29300
Ni	Ni	0.32369 0.69087 0.39985 1.11300
Ni	Ni	0.32773 0.71547 0.45625 1.11800
Ni	Ni	0.22749 0.57478 0.43551 1.11900
O 	O 	0.23529 0.66870 0.38639 -0.36900
O 	O 	0.35512 0.65266 0.46921 -0.39000
O 	O 	0.40726 0.70073 0.41365 -0.38700
O 	O 	0.42005 0.76972 0.44371 -0.38100
O 	O 	0.30264 0.59868 0.38673 -0.37600
O 	O 	0.28861 0.54699 0.42186 -0.40000
O 	O 	0.24408 0.67715 0.47545 -0.38500
O 	O 	0.35299 0.79221 0.40437 -0.37700
O 	O 	0.31586 0.78877 0.44223 -0.39500
O 	O 	0.25495 0.56230 0.46761 -0.39600
O 	O 	0.28404 0.66628 0.42938 -0.71400
H 	H 	0.25276 0.68195 0.42766 0.15400
C 	C 	0.46082 0.64658 0.04275 0.29900
C 	C 	0.24263 0.66964 0.08461 0.30800
C 	C 	0.28979 0.52696 0.05217 0.30800
C 	C 	0.41801 0.80365 0.07978 0.28800
C 	C 	0.40202 0.78561 0.00263 0.29500
Ni	Ni	0.35981 0.65690 0.07487 1.11200
Ni	Ni	0.31489 0.74277 0.04318 1.12000
Ni	Ni	0.35004 0.64179 0.01867 1.11900
O 	O 	0.42791 0.62988 0.06297 -0.37700
O 	O 	0.44201 0.66713 0.02431 -0.39100
O 	O 	0.25980 0.70658 0.01433 -0.39400
O 	O 	0.29534 0.67536 0.09379 -0.37200
O 	O 	0.23899 0.67604 0.06206 -0.38800
O 	O 	0.37549 0.72157 0.99665 -0.38700
O 	O 	0.28306 0.56614 0.06669 -0.38100
O 	O 	0.32740 0.55191 0.03369 -0.38200
O 	O 	0.38646 0.80465 0.02227 -0.39300
O 	O 	0.42711 0.75246 0.08384 -0.37300
O 	O 	0.36161 0.79490 0.07246 -0.37800
O 	O 	0.35746 0.69208 0.04560 -0.71700
H 	H 	0.40251 0.72716 0.04401 0.16200
C 	C 	0.27037 0.45932 0.06020 -0.09500
C 	C 	0.29980 0.45107 0.08010 0.01600
H 	H 	0.34298 0.49256 0.08683 0.01800
C 	C 	0.46465 0.86775 0.08940 -0.08500
C 	C 	0.52869 0.89648 0.08198 0.01400
C 	C 	0.57797 0.93578 0.09727 -0.06700
C 	C 	0.56319 0.94697 0.11996 0.02800
C 	C 	0.49948 0.92888 0.12556 -0.06800
C 	C 	0.45016 0.88905 0.11030 0.01600
C 	C 	0.60998 0.96125 0.13881 -0.01300
C 	C 	0.59556 0.91454 0.15682 -0.03800
C 	C 	0.64369 0.91979 0.17176 -0.03000
C 	C 	0.70656 0.97162 0.16884 -0.02300
C 	C 	0.72051 0.02045 0.15177 -0.01700
C 	C 	0.67228 0.01548 0.13684 -0.02600
C 	C 	0.75706 0.97294 0.18272 0.04800
C 	C 	0.79863 0.97319 0.19454 -0.11000
H 	H 	0.54034 0.88254 0.06539 0.02600
H 	H 	0.62718 0.95179 0.09234 0.04200
H 	H 	0.48770 0.94008 0.14262 0.04500
H 	H 	0.40072 0.86917 0.11582 0.03300
H 	H 	0.54778 0.87235 0.15849 0.04000
H 	H 	0.63246 0.88235 0.18513 0.04000
H 	H 	0.76894 0.06125 0.14966 0.03900
H 	H 	0.68386 0.05219 0.12318 0.03900
C 	C 	0.19070 0.66503 0.09976 -0.09100
C 	C 	0.20515 0.69843 0.12116 0.01700
C 	C 	0.15860 0.70730 0.13287 -0.06700
H 	H 	0.25329 0.72067 0.12807 0.03600
H 	H 	0.17103 0.73583 0.14881 0.04800
H 	H 	0.06856 0.77348 0.10554 0.03900
C 	C 	0.81856 0.91649 0.31595 0.01000
C 	C 	0.78228 0.90936 0.33601 -0.06000
C 	C 	0.75602 0.95105 0.33964 0.00800
C 	C 	0.76973 0.00255 0.32363 -0.04800
C 	C 	0.70782 0.93537 0.35845 0.00600
C 	C 	0.64653 0.92497 0.35289 -0.04500
C 	C 	0.59701 0.89721 0.36940 -0.03300
C 	C 	0.60798 0.87898 0.39154 -0.01400
C 	C 	0.67004 0.89345 0.39773 -0.03200
C 	C 	0.72003 0.92219 0.38131 -0.04500
C 	C 	0.55397 0.83678 0.40623 0.04600
C 	C 	0.50552 0.79918 0.41661 -0.11800
H 	H 	0.83780 0.88335 0.31332 0.03700
H 	H 	0.77246 0.86969 0.34826 0.04400
H 	H 	0.75102 0.03607 0.32650 0.04500
H 	H 	0.63640 0.93514 0.33541 0.03800
H 	H 	0.54927 0.88685 0.36459 0.03400
H 	H 	0.67910 0.88014 0.41489 0.03500
H 	H 	0.76747 0.93145 0.38601 0.03600
C 	C 	0.29851 0.44930 0.37806 0.05200
C 	C 	0.30141 0.49612 0.38816 -0.11600
H 	H 	0.32507 0.44677 0.33269 0.04100
C 	C 	0.42589 0.99588 0.44782 -0.15100
C 	C 	0.48944 0.02001 0.44035 0.06400
C 	C 	0.50348 0.98499 0.42336 -0.03500
C 	C 	0.45482 0.92290 0.41598 0.01500
C 	C 	0.39286 0.89496 0.42568 -0.12700
C 	C 	0.37699 0.93437 0.44004 0.12300
C 	C 	0.54140 0.07880 0.45191 -0.01400
C 	C 	0.57105 0.01073 0.41451 -0.10000
H 	H 	0.46609 0.89482 0.40362 0.03500
C 	C 	0.30862 0.91116 0.44735 -0.21400
H 	H 	0.41476 0.02429 0.46012 0.07800
C 	C 	0.55725 0.14345 0.44475 0.03400
C 	C 	0.59581 0.19728 0.45913 -0.01400
C 	C 	0.61693 0.18692 0.48076 -0.11000
C 	C 	0.60887 0.12367 0.48612 0.10200
C 	C 	0.57040 0.06981 0.47174 -0.08400
C 	C 	0.52871 0.15467 0.42295 -0.17700
H 	H 	0.60443 0.24645 0.45451 0.03500
C 	C 	0.63497 0.11172 0.50835 -0.21000
H 	H 	0.56015 0.02030 0.47668 0.05500
H 	H 	0.30104 0.95402 0.45067 0.06600
H 	H 	0.29737 0.88117 0.46362 0.07900
H 	H 	0.27473 0.88111 0.43344 0.07900
H 	H 	0.59837 0.99833 0.42728 0.04200
H 	H 	0.59568 0.06521 0.41182 0.05200
H 	H 	0.57135 0.98838 0.39745 0.04100
H 	H 	0.55419 0.20768 0.41759 0.06300
H 	H 	0.47751 0.13926 0.42615 0.06800
H 	H 	0.53231 0.12567 0.40823 0.06700
H 	H 	0.63909 0.06612 0.50719 0.07100
H 	H 	0.60215 0.10572 0.52304 0.08800
H 	H 	0.68361 0.15352 0.51190 0.07800
H 	H 	0.74814 0.53931 0.52469 0.07100
C 	C 	0.51215 0.53180 0.52947 -0.09200
C 	C 	0.44548 0.49201 0.53177 0.00200
C 	C 	0.41987 0.43157 0.54426 0.02600
C 	C 	0.46081 0.40794 0.55165 -0.01400
C 	C 	0.52716 0.44500 0.54743 -0.10500
C 	C 	0.55340 0.50970 0.53795 0.09800
C 	C 	0.40292 0.51028 0.51879 0.00600
C 	C 	0.34864 0.38997 0.54833 -0.17300
H 	H 	0.44060 0.35908 0.55955 0.04600
C 	C 	0.62490 0.55451 0.53606 -0.20200
H 	H 	0.53187 0.57924 0.52054 0.05200
C 	C 	0.39023 0.55998 0.52709 0.02200
C 	C 	0.35729 0.58264 0.51282 -0.00900
C 	C 	0.33568 0.55525 0.49067 -0.11200
C 	C 	0.34300 0.50103 0.48342 0.10400
C 	C 	0.37772 0.47993 0.49737 -0.09500
C 	C 	0.41419 0.59105 0.55061 -0.17100
H 	H 	0.35045 0.62325 0.51861 0.03300
C 	C 	0.31840 0.46878 0.46013 -0.21100
H 	H 	0.38653 0.44086 0.49127 0.05400
H 	H 	0.63724 0.60741 0.53629 0.06500
H 	H 	0.64277 0.54486 0.51945 0.07600
H 	H 	0.64990 0.54653 0.55097 0.07400
H 	H 	0.32519 0.36327 0.53209 0.06500
H 	H 	0.32789 0.42156 0.55362 0.06400
H 	H 	0.33779 0.35296 0.56249 0.06100
H 	H 	0.39179 0.62097 0.55612 0.05900
H 	H 	0.46694 0.62394 0.54983 0.06300
H 	H 	0.40235 0.55211 0.56411 0.06300
H 	H 	0.35066 0.50123 0.44606 0.09000
H 	H 	0.26883 0.45933 0.45729 0.08100
H 	H 	0.31687 0.42016 0.45912 0.07100
C 	C 	0.63716 0.14507 0.58686 -0.09200
C 	C 	0.62557 0.13368 0.61099 0.01800
C 	C 	0.64813 0.09693 0.62316 -0.06400
C 	C 	0.68142 0.07012 0.61129 0.02300
C 	C 	0.68739 0.07592 0.58691 -0.06500
C 	C 	0.66600 0.11371 0.57477 0.01400
C 	C 	0.71765 0.04473 0.62457 0.01900
H 	H 	0.60165 0.15570 0.62050 0.03600
H 	H 	0.64247 0.09204 0.64196 0.04900
H 	H 	0.71164 0.05405 0.57751 0.04500
H 	H 	0.67485 0.12126 0.55620 0.02700
H 	H 	0.63512 0.97091 0.64373 0.03800
C 	C 	0.16743 0.04538 0.61974 0.02800
C 	C 	0.20274 0.07463 0.59779 -0.00500
C 	C 	0.22230 0.03847 0.58365 -0.01800
C 	C 	0.26790 0.07061 0.56598 -0.04000
C 	C 	0.29486 0.13919 0.56259 -0.00600
C 	C 	0.27004 0.17369 0.57498 -0.03500
C 	C 	0.22418 0.14155 0.59258 -0.03700
C 	C 	0.35747 0.17556 0.55199 0.04700
C 	C 	0.41248 0.20491 0.54543 -0.11400
H 	H 	0.24709 0.04303 0.63641 0.04800
H 	H 	0.07994 0.04140 0.60815 0.04800
H 	H 	0.20492 0.98640 0.58719 0.02200
H 	H 	0.28602 0.04323 0.55623 0.04400
H 	H 	0.28986 0.22651 0.57228 0.03500
H 	H 	0.20838 0.16962 0.60311 0.03900
C 	C 	0.77341 0.41186 0.60627 -0.08300
C 	C 	0.76576 0.38374 0.62862 0.01600
H 	H 	0.73702 0.33058 0.63100 0.03400
H 	H 	0.73376 0.53171 0.65843 0.04200
H 	H 	0.75256 0.62073 0.68608 0.03900
C 	C 	0.59375 0.08302 0.97343 -0.09900
C 	C 	0.55197 0.03486 0.95773 0.02900
C 	C 	0.54438 0.05436 0.93513 0.01100
C 	C 	0.57284 0.12191 0.92949 -0.00900
C 	C 	0.61618 0.17037 0.94483 -0.10300
C 	C 	0.62896 0.15017 0.96664 0.10200
C 	C 	0.51213 0.96491 0.96573 -0.01700
C 	C 	0.50487 0.00356 0.91706 -0.12600
H 	H 	0.56253 0.13669 0.91280 0.04500
C 	C 	0.68019 0.19909 0.98257 -0.20500
H 	H 	0.59952 0.06814 0.99082 0.05800
C 	C 	0.54002 0.92494 0.97109 0.02900
C 	C 	0.50187 0.86192 0.98127 -0.02100
C 	C 	0.43591 0.83700 0.98468 -0.10300
C 	C 	0.40695 0.87281 0.97578 0.09600
C 	C 	0.44557 0.93802 0.96780 -0.08600
C 	C 	0.61044 0.95000 0.96691 -0.17400
H 	H 	0.52406 0.83382 0.98756 0.03500
C 	C 	0.33517 0.84363 0.97648 -0.20200
H 	H 	0.42380 0.96794 0.96323 0.04700
H 	H 	0.72494 0.23089 0.97259 0.07800
H 	H 	0.69239 0.17344 0.99640 0.06800
H 	H 	0.66306 0.23038 0.99120 0.07900
H 	H 	0.45330 0.98713 0.91984 0.04400
H 	H 	0.51248 0.96004 0.91804 0.04600
H 	H 	0.51857 0.02452 0.89913 0.05600
H 	H 	0.62134 0.90861 0.96687 0.05800
H 	H 	0.63879 0.98504 0.98091 0.05700
H 	H 	0.62562 0.97543 0.94970 0.05900
H 	H 	0.31994 0.85115 0.99400 0.07400
H 	H 	0.31088 0.78981 0.97264 0.08100
H 	H 	0.31926 0.86747 0.96320 0.06600
C 	C 	0.53845 0.54770 0.02652 -0.09500
C 	C 	0.58549 0.59308 0.01126 0.00500
C 	C 	0.60441 0.66100 0.01285 0.02300
C 	C 	0.56906 0.68077 0.02714 -0.01400
C 	C 	0.51474 0.63333 0.03941 -0.10800
C 	C 	0.50437 0.56785 0.04124 0.10400
C 	C 	0.60992 0.56807 0.99228 0.00400
C 	C 	0.65869 0.71166 0.99803 -0.17100
H 	H 	0.57979 0.73201 0.02684 0.03600
C 	C 	0.45382 0.51800 0.05733 -0.21000
H 	H 	0.52641 0.49607 0.02621 0.05300
C 	C 	0.65552 0.54781 0.99693 0.02400
C 	C 	0.66932 0.51342 0.97983 -0.01200
C 	C 	0.64013 0.50125 0.95785 -0.11000
C 	C 	0.59692 0.52448 0.95277 0.10000
C 	C 	0.58223 0.55789 0.97007 -0.09300
C 	C 	0.68752 0.56022 0.02040 -0.17200
H 	H 	0.70259 0.49570 0.98369 0.03400
C 	C 	0.56578 0.51307 0.92916 -0.20500
H 	H 	0.54785 0.57437 0.96649 0.05100
H 	H 	0.46089 0.47462 0.06033 0.07000
H 	H 	0.40610 0.50016 0.04938 0.08800
H 	H 	0.45601 0.54037 0.07463 0.08200
H 	H 	0.64230 0.70907 0.97978 0.06200
H 	H 	0.69998 0.70238 0.99828 0.06200
H 	H 	0.67584 0.76264 0.00460 0.05800
H 	H 	0.72981 0.55259 0.01988 0.06000
H 	H 	0.65299 0.52577 0.03358 0.06300
H 	H 	0.70456 0.61209 0.02591 0.06300
H 	H 	0.52864 0.52855 0.92875 0.06800
H 	H 	0.54214 0.45963 0.92473 0.07700
H 	H 	0.60255 0.54214 0.91568 0.07700
C 	C 	0.85271 0.43267 0.84591 -0.09800
C 	C 	0.91739 0.44964 0.84773 0.02000
C 	C 	0.90373 0.37488 0.81607 0.02700
C 	C 	0.84284 0.36720 0.81171 -0.06800
C 	C 	0.81766 0.39676 0.82647 0.01800
C 	C 	0.92516 0.31941 0.78271 -0.04000
H 	H 	0.81298 0.33383 0.79821 0.04700
H 	H 	0.76842 0.38553 0.82433 0.03500
H 	H 	0.92022 0.35282 0.77069 0.03900
H 	H 	0.93816 0.26371 0.75535 0.04100
C 	C 	0.58499 0.30968 0.85303 -0.08300
C 	C 	0.52320 0.29509 0.85998 0.01400
C 	C 	0.47347 0.27080 0.84382 -0.06500
C 	C 	0.48531 0.26165 0.82050 0.02700
C 	C 	0.54690 0.27513 0.81364 -0.06600
C 	C 	0.59645 0.29864 0.82988 0.01600
C 	C 	0.43278 0.23607 0.80347 0.00200
C 	C 	0.41587 0.17694 0.79163 -0.03900
C 	C 	0.36175 0.14874 0.77748 -0.03100
C 	C 	0.32384 0.17905 0.77522 -0.00500
C 	C 	0.34223 0.23969 0.78612 -0.03200
C 	C 	0.39681 0.26839 0.80011 -0.03900
H 	H 	0.51393 0.30338 0.87783 0.03200
H 	H 	0.42580 0.25931 0.84939 0.04700
H 	H 	0.55647 0.26804 0.79568 0.04700
H 	H 	0.64414 0.31024 0.82430 0.03400
H 	H 	0.44340 0.15173 0.79402 0.04100
H 	H 	0.34782 0.10190 0.76902 0.04300
H 	H 	0.31325 0.26353 0.78437 0.04100
H 	H 	0.41015 0.31469 0.80885 0.04000
C 	C 	0.86173 0.60079 0.93909 -0.09300
C 	C 	0.83446 0.64139 0.93499 0.01000
C 	C 	0.86846 0.69971 0.92183 -0.06700
H 	H 	0.78404 0.62280 0.93866 0.03300
H 	H 	0.84404 0.72564 0.91568 0.04300
H 	H 	0.94671 0.84188 0.90481 0.03500
O 	O 	0.97272 0.86223 0.71360 -0.38900
O 	O 	0.02427 0.09948 0.75090 -0.38000
C 	C 	0.68668 0.99487 0.64156 -0.05900
C 	C 	0.78440 0.07456 0.62171 -0.04500
H 	H 	0.80886 0.11316 0.60870 0.04000
C 	C 	0.72262 0.97768 0.65635 -0.04100
H 	H 	0.69864 0.94094 0.66998 0.03800
C 	C 	0.93108 0.71915 0.91412 0.02700
C 	C 	0.80512 0.00898 0.30330 0.02300
C 	C 	0.77706 0.55399 0.66875 -0.04100
C 	C 	0.78796 0.42457 0.64817 -0.06500
H 	H 	0.77688 0.40269 0.66550 0.04700
C 	C 	0.94284 0.42061 0.83287 -0.06900
H 	H 	0.94581 0.47962 0.86216 0.02500
C 	C 	0.92057 0.32604 0.80686 0.00100
C 	C 	0.93511 0.26883 0.77403 -0.03300
C 	C 	0.82788 0.96445 0.29896 -0.09000
H 	H 	0.80697 0.41900 0.47200 0.04200
C 	C 	0.92836 0.62883 0.93664 0.01800
C 	C 	0.96853 0.85096 0.86801 -0.03600
C 	C 	0.95697 0.81984 0.88993 -0.04100
H 	H 	0.96697 0.89670 0.86615 0.03700
O 	O 	0.89434 0.83907 0.74050 -0.37800
O 	O 	0.91731 0.01952 0.75762 -0.36800
O 	O 	0.94197 0.91848 0.77935 -0.37900
C 	C 	0.85792 0.96495 0.27621 0.27000
C 	C 	0.84752 0.97387 0.20904 0.31200
O 	O 	0.87226 0.01438 0.26108 -0.35700
O 	O 	0.85946 0.91047 0.26991 -0.37600
O 	O 	0.90325 0.02793 0.20984 -0.37100
O 	O 	0.83159 0.92644 0.22463 -0.38000
H 	H 	0.81314 0.04731 0.29070 0.03600
C 	C 	0.83188 0.46565 0.48119 -0.01800
C 	C 	0.80119 0.47790 0.49988 -0.10000
C 	C 	0.83272 0.53983 0.51115 0.09200
C 	C 	0.79868 0.55697 0.52972 -0.20300
H 	H 	0.82198 0.61141 0.53222 0.06500
H 	H 	0.79942 0.53325 0.54649 0.07200
H 	H 	0.89620 0.45027 0.44666 0.06300
C 	C 	0.82010 0.05694 0.63636 -0.02800
C 	C 	0.78954 0.00978 0.65410 -0.00400
C 	C 	0.82740 0.00041 0.67154 0.07500
C 	C 	0.86063 0.99558 0.68628 -0.13400
H 	H 	0.87181 0.08182 0.63449 0.03800
C 	C 	0.81250 0.48041 0.60334 0.01200
C 	C 	0.83522 0.52126 0.62286 -0.06500
C 	C 	0.81916 0.49354 0.64536 0.02500
C 	C 	0.82429 0.53572 0.66522 0.00300
C 	C 	0.78753 0.60412 0.68450 -0.03100
C 	C 	0.84510 0.63598 0.69686 -0.00900
C 	C 	0.86440 0.69919 0.70734 0.05100
C 	C 	0.88506 0.75432 0.71487 -0.11100
H 	H 	0.82032 0.50250 0.58610 0.02300
H 	H 	0.86102 0.57458 0.62053 0.04500
C 	C 	0.93487 0.44948 0.92358 -0.00800
C 	C 	0.89690 0.39040 0.93599 -0.11900
C 	C 	0.92539 0.37020 0.95336 0.11400
H 	H 	0.91387 0.46410 0.90970 0.04800
C 	C 	0.88753 0.30410 0.96547 -0.21100
H 	H 	0.91987 0.28782 0.97334 0.06800
H 	H 	0.85621 0.26554 0.95287 0.08000
H 	H 	0.85739 0.30793 0.97949 0.07500
H 	H 	0.05120 0.60087 0.92974 0.06200
C 	C 	0.94043 0.22461 0.78944 -0.00400
C 	C 	0.93690 0.23181 0.81356 -0.03400
C 	C 	0.92693 0.28227 0.82225 -0.03900
C 	C 	0.94948 0.17189 0.78046 0.04400
H 	H 	0.99098 0.42914 0.83574 0.04500
H 	H 	0.92277 0.28653 0.84093 0.04000
C 	C 	0.96304 0.68759 0.92376 -0.07600
C 	C 	0.95583 0.75888 0.89235 -0.00100
C 	C 	0.97007 0.73148 0.87288 -0.03900
C 	C 	0.98196 0.76284 0.85107 -0.03500
C 	C 	0.97955 0.82167 0.84843 -0.00500
C 	C 	0.98180 0.84809 0.82534 0.03900
H 	H 	0.01271 0.70452 0.91927 0.04900
H 	H 	0.95130 0.60044 0.94158 0.02100
H 	H 	0.96900 0.68434 0.87442 0.03900
H 	H 	0.99070 0.74002 0.83606 0.04000
O 	O 	0.88398 0.93747 0.71530 -0.39200
O 	O 	0.93736 0.85339 0.25426 -0.38000
O 	O 	0.91766 0.88528 0.20651 -0.39000
H 	H 	0.00278 0.58226 0.00402 0.06000
C 	C 	0.91620 0.82188 0.72225 0.32900
C 	C 	0.97930 0.89165 0.78277 0.29400
C 	C 	0.90162 0.99323 0.70395 0.32100
C 	C 	0.96809 0.07933 0.76138 0.30200
Ni	Ni	0.91692 0.93474 0.74726 1.11800
O 	O 	0.00220 0.87228 0.76497 -0.36400
O 	O 	0.94997 0.04906 0.71120 -0.38400
Ni	Ni	0.95588 0.06000 0.24027 1.11300
Ni	Ni	0.89372 0.89989 0.23879 1.12100
O 	O 	0.96573 0.98514 0.24319 -0.72700
H 	H 	0.96877 0.98429 0.26029 0.14600
C 	C 	0.89797 0.58350 0.50638 -0.08700
C 	C 	0.93102 0.56721 0.48975 -0.00800
C 	C 	0.89684 0.50966 0.47610 0.03000
C 	C 	0.93074 0.49187 0.45762 -0.17500
H 	H 	0.92364 0.62868 0.51634 0.04700
H 	H 	0.96339 0.47686 0.46601 0.06600
H 	H 	0.95900 0.53477 0.44583 0.06400
H 	H 	0.97025 0.64737 0.44488 0.05300
C 	C 	0.88973 0.61360 0.69484 -0.03100
C 	C 	0.87950 0.56380 0.67896 -0.04200
H 	H 	0.93416 0.63762 0.70450 0.03700
H 	H 	0.91579 0.54929 0.67656 0.03900
C 	C 	0.98730 0.41499 0.96108 -0.11800
C 	C 	0.02118 0.47853 0.95112 0.02700
C 	C 	0.99711 0.49385 0.93102 0.00700
C 	C 	0.03677 0.55810 0.91791 -0.16100
H 	H 	0.00733 0.40209 0.97583 0.06400
C 	C 	0.00103 0.54556 0.99121 -0.15600
H 	H 	0.00983 0.56387 0.90318 0.06300
H 	H 	0.08042 0.55939 0.91066 0.06100
H 	H 	0.97626 0.49568 0.99950 0.05900
H 	H 	0.97263 0.54643 0.97609 0.06100
C 	C 	0.95750 0.12865 0.77230 -0.09500
H 	H 	0.94121 0.19796 0.82556 0.04000
C 	C 	0.98178 0.86857 0.80590 -0.09700
O 	O 	0.01694 0.09976 0.26850 -0.36700
