data_crystal

_cell_length_a 22.56083
_cell_length_b 23.12576
_cell_length_c 77.58597
_cell_angle_alpha 90.04978
_cell_angle_beta  90.02019
_cell_angle_gamma 119.46285

_symmetry_space_group_name_	'P 1'
_symmetry_space_group_name_H-M	'P 1'

loop_
_symmetry_equiv_pos_as_xyz
  x,y,z

loop_
_atom_site_label
_atom_site_type_symbol
_atom_site_fract_x
_atom_site_fract_y
_atom_site_fract_z
_atom_site_charge
C 	C 	0.08297 0.13254 0.75366 0.28600
C 	C 	0.07175 0.13465 0.80314 0.30900
C 	C 	0.04150 0.93848 0.80703 0.30700
C 	C 	0.03311 0.91966 0.75725 0.28400
Ni	Ni	0.08442 0.03974 0.77999 1.12200
O 	O 	0.03966 0.14103 0.76368 -0.36500
O 	O 	0.10239 0.08810 0.75724 -0.38000
O 	O 	0.99568 0.89710 0.79607 -0.38400
O 	O 	0.08063 0.95876 0.76853 -0.38100
O 	O 	0.00595 0.10968 0.80105 -0.37100
O 	O 	0.10881 0.12850 0.79100 -0.38400
O 	O 	0.96709 0.89236 0.76093 -0.38400
O 	O 	0.07534 0.00259 0.80387 -0.38700
H 	H 	0.98973 0.00456 0.76337 0.15500
Ni	Ni	0.06635 0.96368 0.22137 1.11000
Ni	Ni	0.04700 0.09364 0.22109 1.12100
O 	O 	0.14616 0.04261 0.23468 -0.36500
O 	O 	0.10158 0.10973 0.24314 -0.37600
O 	O 	0.10430 0.00926 0.19779 -0.37300
O 	O 	0.13336 0.11131 0.20858 -0.38100
O 	O 	0.01054 0.00147 0.22497 -0.71700
H 	H 	0.00929 0.00145 0.23766 0.15800
C 	C 	0.09243 0.89719 0.00209 0.28600
C 	C 	0.04335 0.10547 0.97763 0.30800
Ni	Ni	0.07873 0.00201 0.02441 1.11500
Ni	Ni	0.06578 0.99205 0.98266 1.12100
O 	O 	0.08727 0.08407 0.97624 -0.38600
O 	O 	0.15832 0.08657 0.01386 -0.37800
O 	O 	0.16571 0.03359 0.98998 -0.37300
O 	O 	0.05252 0.06176 0.03921 -0.37000
O 	O 	0.11760 0.94158 0.01492 -0.37100
O 	O 	0.05876 0.90423 0.98893 -0.38100
O 	O 	0.02537 0.98675 0.00452 -0.71900
C 	C 	0.06429 0.17376 0.97227 -0.07500
C 	C 	0.02540 0.18594 0.96027 0.01000
C 	C 	0.05278 0.24741 0.95194 -0.05300
C 	C 	0.11954 0.29854 0.95588 0.00700
C 	C 	0.12933 0.22477 0.97676 -0.01200
C 	C 	0.11266 0.38149 0.93697 -0.05200
H 	H 	0.02392 0.25287 0.94159 0.04400
H 	H 	0.05781 0.35685 0.93789 0.04200
C 	C 	0.21849 0.84353 0.99211 -0.05200
C 	C 	0.18785 0.87270 0.00178 0.00400
C 	C 	0.11793 0.85009 0.99996 -0.06800
H 	H 	0.27206 0.86039 0.99394 0.04100
H 	H 	0.21908 0.91543 0.00977 0.03600
C 	C 	0.08724 0.82983 0.83682 -0.00000
C 	C 	0.09600 0.77416 0.83849 -0.05300
S 	S 	0.02344 0.83036 0.82628 0.02800
C 	C 	0.06180 0.91163 0.82168 -0.07400
H 	H 	0.05269 0.72440 0.83823 0.04600
C 	C 	0.12713 0.25416 0.84305 -0.00200
C 	C 	0.11948 0.30000 0.85331 -0.05300
S 	S 	0.06309 0.18519 0.83489 0.03400
C 	C 	0.10520 0.17606 0.81829 -0.07600
H 	H 	0.07142 0.28672 0.85950 0.04700
C 	C 	0.12762 0.24241 0.71452 -0.04900
C 	C 	0.09112 0.19058 0.72611 0.00200
C 	C 	0.12266 0.18408 0.74093 -0.06500
H 	H 	0.10053 0.24862 0.70384 0.04300
H 	H 	0.03772 0.15623 0.72373 0.03300
C 	C 	0.05397 0.89528 0.74217 -0.06700
C 	C 	0.03842 0.80335 0.72391 0.00800
C 	C 	0.01451 0.82918 0.73682 -0.01500
C 	C 	0.00355 0.73496 0.72048 -0.03800
C 	C 	0.03206 0.70707 0.70969 -0.04200
H 	H 	0.96704 0.79681 0.74336 0.04400
H 	H 	0.95575 0.70279 0.72689 0.03800
H 	H 	0.00626 0.65364 0.70797 0.04100
C 	C 	0.02239 0.64762 0.39685 -0.04000
C 	C 	0.03626 0.61048 0.40886 0.01200
C 	C 	0.98661 0.54366 0.41238 0.00200
C 	C 	0.00488 0.50478 0.42284 -0.04600
C 	C 	0.07003 0.53251 0.43003 0.00000
C 	C 	0.10106 0.63800 0.41645 -0.01900
H 	H 	0.05978 0.69897 0.39433 0.04000
H 	H 	0.97074 0.45230 0.42460 0.04100
H 	H 	0.08334 0.50177 0.43785 0.03300
H 	H 	0.13888 0.68901 0.41365 0.04800
C 	C 	0.92888 0.35927 0.64521 -0.03800
C 	C 	0.96264 0.42544 0.65080 0.00500
C 	C 	0.93506 0.46735 0.64705 0.00800
C 	C 	0.96422 0.53027 0.65504 -0.05500
C 	C 	0.02773 0.55638 0.66305 0.00500
C 	C 	0.06054 0.51842 0.66428 -0.07800
C 	C 	0.02566 0.45144 0.65931 -0.01100
H 	H 	0.94782 0.32599 0.64877 0.03900
H 	H 	0.93791 0.55866 0.65533 0.04300
H 	H 	0.05348 0.60767 0.66714 0.03700
H 	H 	0.04976 0.42112 0.66093 0.04000
C 	C 	0.05139 0.48975 0.49942 0.00500
C 	C 	0.98714 0.43822 0.50410 -0.05800
C 	C 	0.03941 0.56768 0.51827 -0.05100
C 	C 	0.07574 0.55461 0.50565 0.01500
S 	S 	0.08921 0.49468 0.48070 0.01900
C 	C 	0.12515 0.60392 0.49481 -0.01500
H 	H 	0.96342 0.39163 0.49709 0.04700
H 	H 	0.15080 0.65647 0.49780 0.04700
C 	C 	0.75407 0.38979 0.59006 0.28100
C 	C 	0.62160 0.21566 0.52997 0.30900
C 	C 	0.79452 0.40734 0.54120 0.30800
C 	C 	0.57308 0.18118 0.57715 0.28600
C 	C 	0.60803 0.39158 0.52859 0.30800
C 	C 	0.54200 0.37150 0.57357 0.28700
Ni	Ni	0.70298 0.28582 0.56116 1.11300
Ni	Ni	0.55891 0.27629 0.55185 1.12000
Ni	Ni	0.68710 0.41779 0.56066 1.12100
O 	O 	0.77035 0.35639 0.57880 -0.36800
O 	O 	0.71999 0.42056 0.58520 -0.37400
O 	O 	0.55593 0.34773 0.53761 -0.39100
O 	O 	0.64882 0.20797 0.54410 -0.38000
O 	O 	0.59079 0.25124 0.53005 -0.38500
O 	O 	0.60262 0.42129 0.56861 -0.37700
O 	O 	0.75957 0.34242 0.54045 -0.38100
O 	O 	0.78260 0.43946 0.55347 -0.37700
O 	O 	0.52446 0.30786 0.57159 -0.38600
O 	O 	0.63905 0.22156 0.57981 -0.37700
O 	O 	0.53992 0.18916 0.56382 -0.37300
O 	O 	0.66882 0.42509 0.53560 -0.38600
O 	O 	0.64656 0.32388 0.56175 -0.72200
H 	H 	0.63355 0.31773 0.57402 0.15900
C 	C 	0.43087 0.83299 0.43185 0.28300
C 	C 	0.20350 0.61056 0.47082 0.29200
C 	C 	0.43797 0.81742 0.47054 0.29400
C 	C 	0.18948 0.62501 0.43265 0.28000
C 	C 	0.41225 0.58848 0.46096 0.29400
C 	C 	0.40260 0.60525 0.42204 0.28000
Ni	Ni	0.30552 0.73522 0.45254 1.11000
Ni	Ni	0.29081 0.58676 0.44612 1.11700
Ni	Ni	0.44129 0.71776 0.44708 1.11800
O 	O 	0.36481 0.80859 0.43472 -0.37600
O 	O 	0.45850 0.79401 0.43115 -0.37800
O 	O 	0.34555 0.55989 0.46130 -0.37900
O 	O 	0.23906 0.67565 0.47158 -0.37200
O 	O 	0.23382 0.57577 0.46737 -0.37400
O 	O 	0.44377 0.66876 0.42580 -0.38200
O 	O 	0.37206 0.79201 0.47182 -0.37300
O 	O 	0.46401 0.77849 0.46788 -0.37600
O 	O 	0.33592 0.57649 0.42474 -0.38300
O 	O 	0.22757 0.68997 0.43456 -0.37600
O 	O 	0.21787 0.58708 0.43067 -0.37700
O 	O 	0.44915 0.65304 0.46280 -0.38400
O 	O 	0.34451 0.68195 0.44642 -0.70700
H 	H 	0.34186 0.68729 0.43384 0.13900
C 	C 	0.22220 0.72954 0.67456 0.28600
C 	C 	0.29323 0.56063 0.62986 0.30500
C 	C 	0.13486 0.55225 0.66634 0.30300
C 	C 	0.38909 0.74902 0.63487 0.28100
C 	C 	0.30361 0.53037 0.68366 0.30600
C 	C 	0.41878 0.71874 0.69098 0.28500
Ni	Ni	0.24598 0.65126 0.64488 1.11300
Ni	Ni	0.37510 0.64010 0.65902 1.12000
Ni	Ni	0.26506 0.63393 0.68568 1.12100
O 	O 	0.20238 0.69893 0.65925 -0.36800
O 	O 	0.26328 0.72019 0.68501 -0.38200
O 	O 	0.36378 0.57756 0.67856 -0.38700
O 	O 	0.27554 0.60544 0.62608 -0.37000
O 	O 	0.31403 0.55765 0.64535 -0.39000
O 	O 	0.35822 0.67547 0.69770 -0.37600
O 	O 	0.17166 0.55843 0.65278 -0.38000
O 	O 	0.16319 0.59017 0.67993 -0.37800
O 	O 	0.43357 0.71645 0.67453 -0.38700
O 	O 	0.32593 0.73879 0.63567 -0.37000
O 	O 	0.40280 0.69970 0.63746 -0.37400
O 	O 	0.25288 0.54224 0.68566 -0.38700
O 	O 	0.30318 0.65822 0.66327 -0.71800
H 	H 	0.32954 0.70683 0.66458 0.16100
C 	C 	0.86160 0.96726 0.80370 0.30500
C 	C 	0.85524 0.95421 0.75614 0.28000
Ni	Ni	0.95708 0.06809 0.77791 1.11300
Ni	Ni	0.93346 0.91827 0.78198 1.11900
O 	O 	0.86855 0.01166 0.79211 -0.36700
O 	O 	0.90384 0.94356 0.80401 -0.38600
O 	O 	0.89614 0.01982 0.75660 -0.37000
O 	O 	0.85270 0.91571 0.76922 -0.37700
O 	O 	0.99069 0.00864 0.77601 -0.71900
C 	C 	0.47637 0.72684 0.91205 0.28500
C 	C 	0.25227 0.54040 0.86736 0.30800
C 	C 	0.44677 0.72442 0.86410 0.30800
C 	C 	0.25133 0.53273 0.91489 0.28600
C 	C 	0.26618 0.73800 0.86881 0.30700
C 	C 	0.28084 0.73722 0.91901 0.28100
Ni	Ni	0.37189 0.61670 0.88999 1.11300
Ni	Ni	0.23517 0.62882 0.89272 1.12000
Ni	Ni	0.38037 0.76059 0.89174 1.12100
O 	O 	0.43526 0.66154 0.91103 -0.37500
O 	O 	0.46861 0.76913 0.90180 -0.37600
O 	O 	0.23684 0.67306 0.87031 -0.38600
O 	O 	0.31756 0.58255 0.86728 -0.38000
O 	O 	0.21275 0.54448 0.87922 -0.38000
O 	O 	0.34634 0.77261 0.91472 -0.38000
O 	O 	0.45325 0.68575 0.87542 -0.37500
O 	O 	0.40960 0.75241 0.86754 -0.38300
O 	O 	0.23383 0.70154 0.90724 -0.37800
O 	O 	0.29736 0.53417 0.90376 -0.37000
O 	O 	0.22689 0.57450 0.91386 -0.38400
O 	O 	0.30901 0.77709 0.88065 -0.38200
O 	O 	0.33097 0.66726 0.89541 -0.72000
H 	H 	0.33420 0.66642 0.90805 0.15700
C 	C 	0.74536 0.48294 0.08737 0.28800
C 	C 	0.54288 0.26910 0.13048 0.30800
C 	C 	0.73184 0.47296 0.13293 0.30700
C 	C 	0.56267 0.26786 0.08123 0.28000
C 	C 	0.74039 0.28690 0.13762 0.30900
C 	C 	0.77795 0.29015 0.09109 0.28800
Ni	Ni	0.62581 0.38211 0.10730 1.11200
Ni	Ni	0.64248 0.25074 0.10922 1.12100
Ni	Ni	0.77387 0.39418 0.11201 1.12100
O 	O 	0.67983 0.43843 0.08632 -0.38000
O 	O 	0.78781 0.47634 0.09827 -0.37600
O 	O 	0.67536 0.25693 0.13359 -0.38700
O 	O 	0.58296 0.33341 0.13012 -0.37600
O 	O 	0.55053 0.23102 0.11912 -0.37700
O 	O 	0.79706 0.35444 0.09190 -0.38600
O 	O 	0.68635 0.46798 0.12157 -0.37700
O 	O 	0.75081 0.42785 0.13361 -0.38600
O 	O 	0.72250 0.24370 0.09922 -0.38000
O 	O 	0.55072 0.30453 0.09246 -0.36900
O 	O 	0.59696 0.23708 0.08585 -0.37400
O 	O 	0.78654 0.32969 0.12698 -0.38800
O 	O 	0.68175 0.34364 0.10532 -0.72000
H 	H 	0.68785 0.34453 0.09273 0.16300
C 	C 	0.13753 0.07945 0.24654 0.28100
C 	C 	0.95804 0.87882 0.19600 0.30600
C 	C 	0.13303 0.07376 0.19584 0.30800
C 	C 	0.95549 0.86807 0.24477 0.28400
C 	C 	0.93755 0.05558 0.19581 0.30700
C 	C 	0.92438 0.05406 0.24424 0.29100
Ni	Ni	0.91593 0.94944 0.22076 1.11800
O 	O 	0.89580 0.01250 0.20719 -0.38000
O 	O 	0.99856 0.87831 0.20807 -0.37900
O 	O 	0.92829 0.91510 0.19771 -0.38400
O 	O 	0.96965 0.09833 0.23330 -0.38300
O 	O 	0.89951 0.98884 0.24220 -0.38900
O 	O 	0.02198 0.90892 0.24340 -0.37900
O 	O 	0.91104 0.86882 0.23345 -0.37300
O 	O 	0.00387 0.08425 0.19789 -0.38800
C 	C 	0.59070 0.42845 0.34010 0.28400
C 	C 	0.69367 0.26901 0.30343 0.30400
C 	C 	0.50632 0.24597 0.33031 0.30300
C 	C 	0.77778 0.45474 0.31072 0.28100
C 	C 	0.66274 0.22832 0.35810 0.30500
C 	C 	0.76276 0.41327 0.36806 0.28500
Ni	Ni	0.63051 0.35190 0.31406 1.11300
Ni	Ni	0.74854 0.34213 0.33554 1.12000
Ni	Ni	0.61775 0.32616 0.35522 1.12200
O 	O 	0.57529 0.39403 0.32536 -0.36900
O 	O 	0.61387 0.41118 0.35380 -0.38000
O 	O 	0.72519 0.27631 0.35507 -0.38400
O 	O 	0.67642 0.31248 0.29800 -0.36900
O 	O 	0.70087 0.26250 0.31988 -0.38700
O 	O 	0.69920 0.36606 0.37175 -0.38000
O 	O 	0.55280 0.25659 0.31880 -0.37800
O 	O 	0.52283 0.28265 0.34435 -0.37600
O 	O 	0.79168 0.41508 0.35301 -0.38700
O 	O 	0.71440 0.44258 0.30841 -0.37100
O 	O 	0.79126 0.40648 0.31508 -0.37600
O 	O 	0.61038 0.23659 0.35496 -0.39000
O 	O 	0.67309 0.35702 0.33523 -0.71700
H 	H 	0.69668 0.40526 0.33733 0.16100
C 	C 	0.93183 0.91738 0.03404 0.28000
C 	C 	0.19442 0.08227 0.00128 0.30000
C 	C 	0.03536 0.10352 0.03247 0.30600
C 	C 	0.91217 0.91538 0.97616 0.28500
Ni	Ni	0.95819 0.01297 0.00458 1.12000
O 	O 	0.99361 0.92425 0.03554 -0.37100
O 	O 	0.92250 0.96631 0.02793 -0.37600
O 	O 	0.89679 0.93007 0.99148 -0.39000
O 	O 	0.02117 0.10028 0.01608 -0.39200
O 	O 	0.97506 0.94876 0.96954 -0.37700
O 	O 	0.98016 0.06511 0.98241 -0.39000
H 	H 	0.99566 0.93829 0.00520 0.15800
C 	C 	0.17853 0.09649 0.26251 -0.06600
C 	C 	0.20032 0.15793 0.27062 0.00400
C 	C 	0.24502 0.17705 0.28463 -0.05100
C 	C 	0.26787 0.13412 0.29103 0.00700
C 	C 	0.24624 0.07233 0.28267 0.00700
C 	C 	0.19968 0.05293 0.26896 -0.01700
C 	C 	0.27517 0.03286 0.28721 -0.03000
C 	C 	0.32930 0.05647 0.29883 -0.04300
C 	C 	0.35237 0.11797 0.30696 0.01100
C 	C 	0.31767 0.15423 0.30435 0.00500
C 	C 	0.33444 0.20989 0.31495 -0.05300
C 	C 	0.39321 0.23647 0.32512 0.00500
C 	C 	0.43442 0.20670 0.32526 -0.07500
C 	C 	0.41130 0.14497 0.31722 -0.01500
H 	H 	0.18493 0.19228 0.26562 0.04000
H 	H 	0.26496 0.22680 0.28964 0.04200
H 	H 	0.18216 0.00501 0.26284 0.04200
H 	H 	0.25806 0.98518 0.28103 0.03200
H 	H 	0.35384 0.02713 0.30136 0.04200
H 	H 	0.30167 0.23164 0.31570 0.04200
H 	H 	0.40844 0.28199 0.33222 0.03800
H 	H 	0.44128 0.12006 0.31810 0.04300
C 	C 	0.93330 0.80871 0.25552 -0.06600
C 	C 	0.94645 0.81536 0.27327 0.00100
C 	C 	0.93431 0.76013 0.28321 -0.05100
C 	C 	0.90662 0.69656 0.27551 0.00500
C 	C 	0.89901 0.69136 0.25735 0.01000
C 	C 	0.90976 0.74677 0.24759 -0.01800
C 	C 	0.88326 0.63164 0.24906 -0.04000
C 	C 	0.87227 0.57626 0.25860 -0.04000
C 	C 	0.87164 0.57793 0.27667 0.01000
C 	C 	0.88803 0.63801 0.28538 0.00500
C 	C 	0.87850 0.63628 0.30345 -0.05000
C 	C 	0.85179 0.57614 0.31238 0.00200
C 	C 	0.83230 0.51668 0.30353 -0.06600
C 	C 	0.84785 0.51862 0.28601 -0.01600
H 	H 	0.96835 0.86386 0.27929 0.03300
H 	H 	0.95087 0.76807 0.29648 0.04100
H 	H 	0.90285 0.74243 0.23372 0.04700
H 	H 	0.88000 0.62821 0.23512 0.04100
H 	H 	0.86054 0.53067 0.25192 0.04100
H 	H 	0.88585 0.67970 0.31043 0.04200
H 	H 	0.84028 0.57499 0.32598 0.03000
H 	H 	0.83366 0.47250 0.27925 0.04300
C 	C 	0.88891 0.07734 0.25591 -0.06900
C 	C 	0.81775 0.04124 0.25734 0.01400
C 	C 	0.78186 0.07111 0.26410 -0.05400
C 	C 	0.81709 0.13748 0.27010 0.00800
C 	C 	0.88891 0.17384 0.26843 0.00900
C 	C 	0.92435 0.14226 0.26240 -0.01500
C 	C 	0.92412 0.24241 0.27156 -0.03900
C 	C 	0.88890 0.27561 0.27598 -0.04100
C 	C 	0.81848 0.24017 0.27880 0.00900
C 	C 	0.78221 0.17018 0.27668 0.00600
C 	C 	0.71395 0.13447 0.28240 -0.05200
C 	C 	0.68227 0.16810 0.28938 0.00900
C 	C 	0.71814 0.23730 0.29119 -0.07600
C 	C 	0.78496 0.27335 0.28509 -0.01700
H 	H 	0.78970 0.99150 0.25207 0.03200
H 	H 	0.72698 0.04424 0.26329 0.04500
H 	H 	0.97945 0.17001 0.26143 0.04100
H 	H 	0.97892 0.27054 0.27002 0.03900
H 	H 	0.91694 0.32898 0.27782 0.03900
H 	H 	0.68703 0.08088 0.28286 0.04400
H 	H 	0.63113 0.13982 0.29449 0.03500
H 	H 	0.81290 0.32689 0.28674 0.04200
C 	C 	0.87578 0.86115 0.04284 -0.06600
C 	C 	0.83065 0.80552 0.03319 -0.00100
C 	C 	0.79875 0.74248 0.04076 -0.05000
C 	C 	0.81461 0.73453 0.05792 0.00500
C 	C 	0.85017 0.79193 0.06832 0.01000
C 	C 	0.87989 0.85508 0.06071 -0.01500
C 	C 	0.85896 0.78560 0.08595 -0.04000
C 	C 	0.83734 0.72322 0.09315 -0.04100
C 	C 	0.80896 0.66629 0.08271 0.01000
C 	C 	0.79759 0.67120 0.06491 0.00500
C 	C 	0.77495 0.61406 0.05440 -0.05100
C 	C 	0.75881 0.55283 0.06173 0.00300
C 	C 	0.76827 0.54805 0.07939 -0.06800
C 	C 	0.79409 0.60482 0.08979 -0.01800
H 	H 	0.82363 0.81049 0.01956 0.03200
H 	H 	0.76131 0.70085 0.03338 0.04100
H 	H 	0.91173 0.89889 0.06836 0.04100
H 	H 	0.88386 0.82932 0.09408 0.04000
H 	H 	0.84505 0.71939 0.10680 0.04100
H 	H 	0.77250 0.61701 0.04055 0.04200
H 	H 	0.73982 0.50917 0.05360 0.03500
H 	H 	0.80216 0.60104 0.10342 0.04600
C 	C 	0.26883 0.11933 0.00288 -0.07400
C 	C 	0.30160 0.18832 0.00521 0.00800
C 	C 	0.36322 0.22066 0.01420 -0.05300
C 	C 	0.39028 0.18323 0.02186 0.00700
C 	C 	0.36399 0.11630 0.01667 0.00800
C 	C 	0.30371 0.08495 0.00693 -0.01600
C 	C 	0.39534 0.08029 0.02226 -0.04000
C 	C 	0.44808 0.10770 0.03429 -0.04100
C 	C 	0.46817 0.17031 0.04153 0.01000
C 	C 	0.44004 0.20932 0.03526 0.00400
C 	C 	0.45663 0.26958 0.04376 -0.05000
C 	C 	0.49980 0.29014 0.05806 0.00200
C 	C 	0.52561 0.25042 0.06459 -0.06400
C 	C 	0.51201 0.19194 0.05587 -0.01900
H 	H 	0.27746 0.21631 0.00089 0.03200
H 	H 	0.38986 0.27426 0.01485 0.04200
H 	H 	0.28067 0.03248 0.00399 0.04400
H 	H 	0.37745 0.03010 0.01767 0.03900
H 	H 	0.47082 0.07856 0.03870 0.04000
H 	H 	0.43351 0.29894 0.04006 0.04200
H 	H 	0.51130 0.33618 0.06445 0.03500
H 	H 	0.53248 0.16141 0.06075 0.04800
C 	C 	0.01998 0.14582 0.04372 -0.07600
C 	C 	0.02139 0.20251 0.03685 0.00700
C 	C 	0.98823 0.23198 0.04522 -0.05500
C 	C 	0.95577 0.20714 0.06126 0.00700
C 	C 	0.95765 0.15180 0.06861 0.00800
C 	C 	0.99155 0.12298 0.06004 -0.01600
C 	C 	0.92103 0.12242 0.08370 -0.03900
C 	C 	0.87833 0.14357 0.09083 -0.04000
C 	C 	0.87406 0.19682 0.08355 0.01100
C 	C 	0.91622 0.23211 0.06944 0.00400
C 	C 	0.91792 0.29132 0.06402 -0.05000
C 	C 	0.87138 0.30890 0.07068 0.00100
C 	C 	0.82555 0.27044 0.08362 -0.06600
C 	C 	0.82841 0.21556 0.09035 -0.01800
H 	H 	0.04431 0.22117 0.02435 0.03900
H 	H 	0.98406 0.27070 0.03855 0.04300
H 	H 	0.99096 0.07944 0.06545 0.04800
H 	H 	0.92327 0.08089 0.08949 0.04100
H 	H 	0.84807 0.11813 0.10205 0.04100
H 	H 	0.95717 0.32575 0.05548 0.04200
H 	H 	0.87196 0.35330 0.06599 0.04000
H 	H 	0.79580 0.18799 0.10105 0.04800
C 	C 	0.84423 0.23555 0.16787 -0.00000
C 	C 	0.90175 0.22772 0.16936 -0.05400
C 	C 	0.89194 0.16303 0.17012 0.01600
C 	C 	0.82641 0.10811 0.16845 -0.00100
C 	C 	0.76885 0.11582 0.16687 -0.05400
C 	C 	0.77881 0.18058 0.16575 0.01600
S 	S 	0.84458 0.30062 0.15879 0.02700
C 	C 	0.76293 0.26378 0.15259 -0.07400
C 	C 	0.73289 0.19640 0.15719 -0.01800
S 	S 	0.82694 0.04275 0.17717 0.02900
C 	C 	0.90992 0.07972 0.18220 -0.07400
C 	C 	0.93925 0.14711 0.17776 -0.01800
H 	H 	0.95227 0.27051 0.17029 0.04500
H 	H 	0.71840 0.07299 0.16585 0.04600
H 	H 	0.68444 0.15880 0.15205 0.04200
H 	H 	0.98889 0.18454 0.18232 0.04100
C 	C 	0.37425 0.24025 0.15124 -0.00100
C 	C 	0.32808 0.24125 0.16307 -0.05400
C 	C 	0.26376 0.18448 0.16432 0.01600
C 	C 	0.24869 0.12714 0.15472 -0.00200
C 	C 	0.29882 0.12331 0.14493 -0.05300
C 	C 	0.36149 0.18150 0.14284 0.01600
S 	S 	0.45781 0.29019 0.15186 0.02700
C 	C 	0.48106 0.24161 0.14110 -0.07500
C 	C 	0.42143 0.18247 0.13692 -0.01700
S 	S 	0.18415 0.06267 0.16430 0.03400
C 	C 	0.17033 0.10456 0.17992 -0.07500
C 	C 	0.21954 0.17177 0.17852 -0.01800
H 	H 	0.34279 0.28325 0.17162 0.04600
H 	H 	0.29071 0.07617 0.13996 0.04700
H 	H 	0.42112 0.14235 0.12963 0.04700
H 	H 	0.22922 0.20787 0.18859 0.04500
C 	C 	0.88589 0.76150 0.15579 -0.00200
C 	C 	0.82976 0.71234 0.14683 -0.05500
C 	C 	0.82601 0.65050 0.14456 0.01300
C 	C 	0.87539 0.63788 0.15185 -0.00000
C 	C 	0.92512 0.68333 0.16304 -0.05500
C 	C 	0.93148 0.74659 0.16452 0.01500
S 	S 	0.88710 0.82600 0.16561 0.02700
C 	C 	0.94716 0.83974 0.18023 -0.07600
C 	C 	0.96596 0.79066 0.17833 -0.01900
S 	S 	0.84370 0.55621 0.15254 0.01900
C 	C 	0.76829 0.53376 0.14327 -0.07700
C 	C 	0.76599 0.59210 0.13958 -0.02000
H 	H 	0.78880 0.72071 0.14262 0.04400
H 	H 	0.95539 0.66901 0.17094 0.04500
H 	H 	0.99558 0.78151 0.18784 0.04300
H 	H 	0.72373 0.59257 0.13307 0.04400
C 	C 	0.85508 0.87195 0.96470 -0.06700
C 	C 	0.85604 0.88872 0.94729 0.00300
C 	C 	0.79586 0.85996 0.93764 -0.05100
C 	C 	0.73323 0.81608 0.94558 0.00600
C 	C 	0.73414 0.79180 0.96225 0.00900
C 	C 	0.79500 0.82034 0.97180 -0.01800
C 	C 	0.67414 0.74022 0.96930 -0.04000
C 	C 	0.61283 0.71425 0.96023 -0.04100
C 	C 	0.60959 0.74210 0.94443 0.01000
C 	C 	0.66956 0.79504 0.93723 0.00500
C 	C 	0.66363 0.82911 0.92283 -0.05100
C 	C 	0.60072 0.80686 0.91479 0.00300
C 	C 	0.54198 0.75173 0.92125 -0.06500
C 	C 	0.54648 0.71962 0.93613 -0.02000
H 	H 	0.90290 0.92580 0.94137 0.04100
H 	H 	0.79865 0.87057 0.92401 0.04300
H 	H 	0.79500 0.80455 0.98496 0.04100
H 	H 	0.67495 0.72008 0.98186 0.03800
H 	H 	0.56720 0.67385 0.96581 0.03900
H 	H 	0.70656 0.87460 0.91829 0.04300
H 	H 	0.59774 0.83277 0.90349 0.04200
H 	H 	0.50088 0.67815 0.94142 0.04300
C 	C 	0.15852 0.28569 0.96806 0.00800
C 	C 	0.22781 0.33151 0.97037 -0.03900
C 	C 	0.25993 0.38780 0.96000 -0.04100
C 	C 	0.22235 0.40188 0.94801 0.01000
C 	C 	0.15087 0.35998 0.94679 0.00600
C 	C 	0.14574 0.43803 0.92665 0.00600
C 	C 	0.21702 0.47543 0.92648 -0.06700
C 	C 	0.25520 0.45816 0.93741 -0.01800
H 	H 	0.97548 0.14640 0.95654 0.03600
H 	H 	0.15915 0.21524 0.98616 0.04600
H 	H 	0.25767 0.32187 0.97970 0.03900
H 	H 	0.31422 0.42088 0.96140 0.03900
H 	H 	0.11583 0.45280 0.91875 0.03400
H 	H 	0.31020 0.48878 0.93779 0.03900
C 	C 	0.25840 0.74694 0.93613 -0.06500
C 	C 	0.30072 0.80287 0.94612 0.00300
C 	C 	0.27629 0.81660 0.96123 -0.05000
C 	C 	0.20859 0.77415 0.96668 0.00500
C 	C 	0.16641 0.71696 0.95670 0.01000
C 	C 	0.19271 0.70219 0.94201 -0.01800
C 	C 	0.09676 0.67884 0.96052 -0.04000
C 	C 	0.06697 0.70130 0.97261 -0.04000
C 	C 	0.10726 0.75969 0.98191 0.01000
C 	C 	0.17898 0.79194 0.98044 0.00600
C 	C 	0.07691 0.78926 0.99166 -0.01700
H 	H 	0.35182 0.83742 0.94182 0.04200
H 	H 	0.30874 0.86255 0.96790 0.04200
H 	H 	0.16066 0.65773 0.93460 0.04300
H 	H 	0.06474 0.63409 0.95324 0.04000
H 	H 	0.01226 0.67424 0.97439 0.04000
H 	H 	0.02207 0.76858 0.99143 0.04200
C 	C 	0.21800 0.84953 0.84078 0.00000
C 	C 	0.20932 0.90522 0.83913 -0.05400
C 	C 	0.14317 0.89451 0.83639 0.01600
C 	C 	0.16220 0.78486 0.84104 0.01600
S 	S 	0.28236 0.84869 0.85098 0.02600
C 	C 	0.24424 0.76699 0.85504 -0.07200
C 	C 	0.17686 0.73811 0.84905 -0.01800
C 	C 	0.12894 0.94076 0.82790 -0.01800
H 	H 	0.25268 0.95496 0.83932 0.04600
H 	H 	0.13779 0.68854 0.85260 0.04300
H 	H 	0.16835 0.98986 0.82412 0.04200
C 	C 	0.23351 0.38329 0.84459 -0.00100
C 	C 	0.23670 0.34053 0.83234 -0.05400
C 	C 	0.18375 0.27444 0.83213 0.01600
C 	C 	0.17480 0.36469 0.85442 0.01600
S 	S 	0.27703 0.46553 0.84379 0.02500
C 	C 	0.22582 0.48112 0.85632 -0.07600
C 	C 	0.17061 0.41954 0.86120 -0.01800
C 	C 	0.17143 0.23040 0.81815 -0.01800
H 	H 	0.27723 0.35856 0.82288 0.04600
H 	H 	0.13051 0.41445 0.86980 0.04600
H 	H 	0.20555 0.24257 0.80726 0.04400
C 	C 	0.67102 0.88606 0.81518 -0.00000
C 	C 	0.60895 0.87567 0.82180 -0.05400
C 	C 	0.56254 0.81178 0.82767 0.01600
C 	C 	0.58055 0.76145 0.82780 -0.00000
C 	C 	0.64663 0.77529 0.82363 -0.05500
C 	C 	0.69135 0.83803 0.81685 0.01600
S 	S 	0.74049 0.95952 0.81321 0.02900
C 	C 	0.79834 0.93393 0.81368 -0.07500
C 	C 	0.76279 0.86468 0.81590 -0.02000
S 	S 	0.53115 0.70456 0.84204 0.02600
C 	C 	0.48341 0.73846 0.84770 -0.07500
C 	C 	0.50769 0.79872 0.83886 -0.01700
H 	H 	0.59859 0.91649 0.82319 0.04600
H 	H 	0.66380 0.74009 0.82653 0.04500
H 	H 	0.78719 0.83438 0.81604 0.03800
H 	H 	0.49393 0.83598 0.84232 0.04400
C 	C 	0.79839 0.92575 0.74362 -0.06200
C 	C 	0.76722 0.96248 0.73834 -0.00100
C 	C 	0.70363 0.93098 0.73013 -0.04900
C 	C 	0.67065 0.86192 0.72672 0.00400
C 	C 	0.70181 0.82500 0.73242 0.01100
C 	C 	0.76703 0.85775 0.73980 -0.02000
C 	C 	0.66569 0.75542 0.73183 -0.04000
C 	C 	0.59851 0.72194 0.72609 -0.04000
C 	C 	0.56790 0.75723 0.71944 0.01000
C 	C 	0.60489 0.82764 0.71886 0.00600
C 	C 	0.57757 0.86136 0.70938 -0.05100
C 	C 	0.51357 0.82584 0.70153 0.00300
C 	C 	0.47615 0.75645 0.70277 -0.06500
C 	C 	0.50243 0.72261 0.71222 -0.01700
H 	H 	0.79015 0.01473 0.74153 0.04100
H 	H 	0.67836 0.95954 0.72775 0.04100
H 	H 	0.79127 0.82935 0.74376 0.04100
H 	H 	0.68904 0.72701 0.73640 0.03900
H 	H 	0.57082 0.66811 0.72630 0.03900
H 	H 	0.60741 0.91399 0.70688 0.04200
H 	H 	0.49465 0.85209 0.69371 0.03200
H 	H 	0.47419 0.66875 0.71276 0.04400
C 	C 	0.29390 0.46529 0.68877 -0.07500
C 	C 	0.24110 0.40809 0.68115 0.00900
C 	C 	0.21204 0.34751 0.68989 -0.05300
C 	C 	0.23439 0.34429 0.70666 0.00800
C 	C 	0.29558 0.39871 0.71278 0.00800
C 	C 	0.32466 0.45946 0.70387 -0.01400
C 	C 	0.32531 0.39255 0.72802 -0.04000
C 	C 	0.29273 0.33443 0.73776 -0.04000
C 	C 	0.22772 0.28345 0.73305 0.01000
C 	C 	0.19700 0.28863 0.71761 0.00500
C 	C 	0.19114 0.22974 0.74424 -0.01500
H 	H 	0.21998 0.41143 0.66888 0.03700
H 	H 	0.17337 0.30350 0.68349 0.04300
H 	H 	0.36777 0.50309 0.70934 0.04100
H 	H 	0.37355 0.43306 0.73243 0.03900
H 	H 	0.31663 0.33043 0.74948 0.03900
H 	H 	0.21491 0.22529 0.75595 0.04100
C 	C 	0.11579 0.93683 0.73390 0.00300
C 	C 	0.13947 0.91225 0.72073 -0.05100
C 	C 	0.10050 0.84545 0.71529 0.00600
C 	C 	0.09355 0.74761 0.70119 0.01200
C 	C 	0.12516 0.81751 0.70274 0.00500
C 	C 	0.18043 0.85725 0.69174 -0.05000
C 	C 	0.21021 0.82802 0.68171 0.00300
C 	C 	0.18362 0.75910 0.68197 -0.06600
C 	C 	0.12459 0.71898 0.69142 -0.02100
H 	H 	0.14662 0.98798 0.73801 0.03600
H 	H 	0.18981 0.94417 0.71565 0.04300
H 	H 	0.19877 0.90987 0.69040 0.04200
H 	H 	0.25456 0.85909 0.67395 0.03200
H 	H 	0.10504 0.66582 0.69195 0.04500
C 	C 	0.42757 0.57494 0.40933 -0.06500
C 	C 	0.49674 0.59322 0.40925 0.00300
C 	C 	0.52497 0.57816 0.39514 -0.05000
C 	C 	0.48393 0.54388 0.38085 0.00600
C 	C 	0.41259 0.51765 0.38198 0.01100
C 	C 	0.38499 0.53505 0.39596 -0.01800
C 	C 	0.36961 0.47245 0.36948 -0.04000
C 	C 	0.39663 0.45058 0.35644 -0.03900
C 	C 	0.46729 0.47725 0.35501 0.00900
C 	C 	0.51134 0.52891 0.36619 0.00700
C 	C 	0.58162 0.56298 0.36258 -0.05100
C 	C 	0.60841 0.53574 0.35098 0.00500
C 	C 	0.56531 0.47492 0.34294 -0.06800
C 	C 	0.49471 0.45035 0.34331 -0.01600
H 	H 	0.52912 0.62066 0.42000 0.03300
H 	H 	0.57789 0.59079 0.39572 0.04300
H 	H 	0.33094 0.51859 0.39627 0.05000
H 	H 	0.31496 0.45207 0.37029 0.04100
H 	H 	0.36256 0.41257 0.34754 0.03900
H 	H 	0.61538 0.60993 0.36872 0.04300
H 	H 	0.66311 0.55826 0.34956 0.03200
H 	H 	0.46121 0.40622 0.33598 0.04200
C 	C 	0.80766 0.45291 0.38225 -0.06700
C 	C 	0.81109 0.42132 0.39735 0.00500
C 	C 	0.86738 0.45301 0.40832 -0.05200
C 	C 	0.92238 0.51575 0.40383 0.00700
C 	C 	0.91336 0.55146 0.39022 0.00900
C 	C 	0.85633 0.51952 0.37938 -0.01700
C 	C 	0.96241 0.61779 0.38725 -0.04000
C 	C 	0.11870 0.59863 0.42663 -0.06500
H 	H 	0.77168 0.37106 0.40019 0.03900
H 	H 	0.86698 0.42943 0.42037 0.04300
H 	H 	0.85182 0.54513 0.36817 0.03900
H 	H 	0.95442 0.64619 0.37731 0.03900
C 	C 	0.46625 0.89554 0.42231 -0.07300
C 	C 	0.53098 0.94466 0.42767 0.01000
C 	C 	0.57171 0.99779 0.41682 -0.07300
C 	C 	0.54750 0.00297 0.40039 0.03000
C 	C 	0.48387 0.95079 0.39466 -0.00700
C 	C 	0.44226 0.89965 0.40598 -0.00600
C 	C 	0.46432 0.94805 0.37741 -0.03000
C 	C 	0.50658 0.99696 0.36585 -0.05400
C 	C 	0.56629 0.05260 0.37162 0.02400
C 	C 	0.58662 0.05718 0.38911 -0.00500
C 	C 	0.64103 0.11795 0.39517 -0.04600
C 	C 	0.67340 0.17245 0.38410 0.00300
C 	C 	0.65111 0.16800 0.36706 -0.07200
C 	C 	0.60186 0.10661 0.36052 -0.01800
H 	H 	0.55129 0.93981 0.43991 0.02800
H 	H 	0.62351 0.03136 0.42071 0.05200
H 	H 	0.39316 0.86023 0.40162 0.04500
H 	H 	0.41670 0.90706 0.37285 0.03800
H 	H 	0.49102 0.99329 0.35249 0.04100
H 	H 	0.65450 0.12534 0.40866 0.04200
H 	H 	0.71160 0.21991 0.38925 0.03700
H 	H 	0.58571 0.10315 0.34720 0.04700
C 	C 	0.48979 0.38825 0.57909 -0.06600
C 	C 	0.44770 0.35598 0.59319 0.00200
C 	C 	0.40281 0.37648 0.59945 -0.05000
C 	C 	0.39831 0.42909 0.59135 0.00400
C 	C 	0.44161 0.46191 0.57719 0.01100
C 	C 	0.48507 0.43968 0.57080 -0.01700
C 	C 	0.44462 0.51946 0.57033 -0.04000
C 	C 	0.40983 0.54807 0.57827 -0.03800
C 	C 	0.36797 0.51731 0.59252 0.00800
C 	C 	0.35700 0.45452 0.59814 0.00800
C 	C 	0.30602 0.41975 0.61056 -0.05400
C 	C 	0.27810 0.45259 0.61975 0.00900
C 	C 	0.29877 0.51937 0.61625 -0.07700
C 	C 	0.33912 0.54973 0.60173 -0.01500
H 	H 	0.45166 0.31671 0.59976 0.03800
H 	H 	0.37523 0.35415 0.61117 0.04300
H 	H 	0.51718 0.46409 0.55975 0.04800
H 	H 	0.47689 0.54407 0.55934 0.04200
H 	H 	0.41616 0.59476 0.57345 0.04200
H 	H 	0.28690 0.36747 0.61289 0.04400
H 	H 	0.24316 0.42724 0.63025 0.03600
H 	H 	0.35243 0.60030 0.59845 0.04500
C 	C 	0.78851 0.40610 0.60696 -0.06400
C 	C 	0.81717 0.47087 0.61347 0.00400
C 	C 	0.86349 0.49113 0.62714 -0.05000
C 	C 	0.88115 0.44609 0.63480 0.00400
C 	C 	0.84994 0.37982 0.62857 0.01100
C 	C 	0.80188 0.35976 0.61519 -0.02000
C 	C 	0.87173 0.33614 0.63461 -0.04200
H 	H 	0.80700 0.50699 0.60723 0.04000
H 	H 	0.88883 0.54287 0.63078 0.04200
H 	H 	0.77849 0.30921 0.61035 0.04000
H 	H 	0.84684 0.28502 0.63022 0.04000
C 	C 	0.54071 0.11721 0.58635 -0.06700
C 	C 	0.50302 0.05783 0.57714 0.01000
C 	C 	0.48439 0.99674 0.58491 -0.05700
C 	C 	0.50481 0.99431 0.60199 0.00300
C 	C 	0.53630 0.05369 0.61180 0.01200
C 	C 	0.55550 0.11490 0.60381 -0.01800
C 	C 	0.54681 0.05110 0.62955 -0.03600
C 	C 	0.52453 0.99012 0.63773 -0.04600
C 	C 	0.49531 0.93108 0.62813 0.01200
C 	C 	0.49003 0.93333 0.60999 0.00600
C 	C 	0.47145 0.87499 0.60038 -0.05100
C 	C 	0.44594 0.81391 0.60879 0.00600
C 	C 	0.44047 0.81060 0.62680 -0.06600
C 	C 	0.46965 0.86947 0.63646 -0.02000
H 	H 	0.48969 0.05901 0.56378 0.04200
H 	H 	0.45216 0.95176 0.57782 0.04500
H 	H 	0.58270 0.16071 0.61110 0.04200
H 	H 	0.57050 0.09633 0.63714 0.03900
H 	H 	0.53034 0.98885 0.65157 0.03900
H 	H 	0.47777 0.87670 0.58654 0.04300
H 	H 	0.42666 0.76871 0.60126 0.03700
H 	H 	0.46812 0.86701 0.65043 0.03800
C 	C 	0.47029 0.45698 0.47152 -0.00100
C 	C 	0.46877 0.40612 0.48163 -0.05300
C 	C 	0.53016 0.41639 0.48889 0.01600
C 	C 	0.59009 0.47776 0.48689 -0.00100
C 	C 	0.58886 0.53185 0.47915 -0.05400
C 	C 	0.52863 0.52029 0.47090 0.01600
S 	S 	0.40269 0.46547 0.46717 0.02900
C 	C 	0.44457 0.54729 0.46351 -0.07600
C 	C 	0.51415 0.57145 0.46635 -0.02000
S 	S 	0.64429 0.48405 0.50229 0.02800
C 	C 	0.59662 0.40917 0.51117 -0.07400
C 	C 	0.53368 0.37772 0.50262 -0.01700
H 	H 	0.42109 0.36171 0.48446 0.04700
H 	H 	0.63188 0.58159 0.48025 0.04600
H 	H 	0.55143 0.62381 0.46688 0.04300
H 	H 	0.48978 0.33334 0.50741 0.04400
C 	C 	0.58406 0.11133 0.48766 0.00400
C 	C 	0.53378 0.06050 0.47767 -0.06200
C 	C 	0.53489 0.00068 0.47625 0.03500
C 	C 	0.58541 0.99236 0.48474 -0.02100
C 	C 	0.62938 0.03961 0.49662 -0.04100
C 	C 	0.62886 0.09990 0.49790 0.00900
S 	S 	0.57370 0.17005 0.49721 0.02700
C 	C 	0.62644 0.18517 0.51382 -0.07700
C 	C 	0.65258 0.14143 0.51267 -0.01600
S 	S 	0.55701 0.91110 0.48656 0.03000
C 	C 	0.48162 0.88470 0.47705 -0.07300
C 	C 	0.47681 0.93989 0.47173 -0.03600
H 	H 	0.49185 0.06525 0.47243 0.04900
H 	H 	0.65900 0.02787 0.50551 0.04400
H 	H 	0.67905 0.13305 0.52319 0.04300
H 	H 	0.43265 0.93650 0.46525 0.04000
C 	C 	0.95251 0.45056 0.51732 0.01800
C 	C 	0.98059 0.51375 0.52493 -0.00300
C 	C 	0.13825 0.57741 0.47996 -0.07400
S 	S 	0.91828 0.51935 0.53480 0.03000
C 	C 	0.85487 0.44290 0.53027 -0.07500
C 	C 	0.88200 0.41041 0.52047 -0.01900
H 	H 	0.05426 0.61812 0.52206 0.04600
H 	H 	0.85219 0.35984 0.51586 0.04600
