data_crystal

_cell_length_a 35.08806
_cell_length_b 58.72602
_cell_length_c 17.86647
_cell_angle_alpha 89.99967
_cell_angle_beta  89.99989
_cell_angle_gamma 91.50749

_symmetry_space_group_name_	'P 1'
_symmetry_space_group_name_H-M	'P 1'

loop_
_symmetry_equiv_pos_as_xyz
  x,y,z

loop_
_atom_site_label
_atom_site_type_symbol
_atom_site_fract_x
_atom_site_fract_y
_atom_site_fract_z
_atom_site_charge
Cu	Cu	0.61777 0.80044 0.95038 0.92700
Cu	Cu	0.57441 0.84762 0.98493 0.87600
Cu	Cu	0.55310 0.80393 0.06410 0.89900
Cu	Cu	0.59785 0.76028 0.06189 0.89800
C 	C 	0.67385 0.76810 0.99144 0.28000
O 	O 	0.59376 0.77540 0.88630 -0.35500
C 	C 	0.50047 0.84171 0.04290 0.28900
O 	O 	0.60420 0.79235 0.06252 -0.63200
O 	O 	0.56858 0.81535 0.96287 -0.64200
O 	O 	0.64789 0.82767 0.91657 -0.36600
O 	O 	0.62641 0.84891 0.01245 -0.41900
O 	O 	0.64607 0.75335 0.00770 -0.36900
O 	O 	0.54064 0.79219 0.16291 -0.36600
C 	C 	0.54310 0.77062 0.18282 0.28500
C 	C 	0.56215 0.76453 0.90682 0.27700
O 	O 	0.55318 0.76298 0.97815 -0.38700
O 	O 	0.57195 0.75825 0.16088 -0.37900
O 	O 	0.66675 0.78737 0.95713 -0.35700
C 	C 	0.65204 0.84535 0.96095 0.28100
O 	O 	0.50560 0.82109 0.07046 -0.36600
O 	O 	0.52067 0.84943 0.98607 -0.41500
H 	H 	0.62118 0.79857 0.10224 0.17100
H 	H 	0.54951 0.81182 0.92341 0.17500
Cu	Cu	0.88114 0.70398 0.94807 0.92800
Cu	Cu	0.91453 0.65386 0.98439 0.87000
Cu	Cu	0.94112 0.69589 0.06847 0.89900
Cu	Cu	0.90361 0.74243 0.06460 0.90200
C 	C 	0.82875 0.73848 0.98821 0.28100
O 	O 	0.91068 0.72780 0.88850 -0.35800
C 	C 	0.98750 0.65508 0.05235 0.28600
O 	O 	0.89252 0.71066 0.06224 -0.63100
O 	O 	0.92678 0.68586 0.96513 -0.64300
O 	O 	0.84833 0.67919 0.90608 -0.36900
O 	O 	0.86120 0.65503 0.00088 -0.42200
O 	O 	0.85757 0.75204 0.00808 -0.36500
O 	O 	0.95387 0.70710 0.16793 -0.36900
C 	C 	0.95486 0.72886 0.18657 0.28500
C 	C 	0.94293 0.73698 0.91292 0.27900
O 	O 	0.94995 0.73802 0.98515 -0.38300
O 	O 	0.92739 0.74239 0.16552 -0.37700
O 	O 	0.83457 0.71986 0.94929 -0.35800
C 	C 	0.83878 0.66131 0.94644 0.28200
O 	O 	0.98540 0.67619 0.07765 -0.36400
O 	O 	0.96740 0.64813 0.99420 -0.41400
H 	H 	0.87339 0.70519 0.09929 0.17000
H 	H 	0.94749 0.68835 0.92814 0.17600
Cu	Cu	0.77956 0.44991 0.26501 0.93100
Cu	Cu	0.82008 0.40132 0.23523 0.87700
Cu	Cu	0.86450 0.44611 0.22883 0.89700
Cu	Cu	0.83637 0.49239 0.27677 0.89700
C 	C 	0.76587 0.48643 0.36602 0.28400
O 	O 	0.76495 0.47060 0.18036 -0.35400
C 	C 	0.88760 0.40445 0.14949 0.28000
O 	O 	0.83402 0.46112 0.30280 -0.63600
O 	O 	0.81368 0.43231 0.20037 -0.63800
O 	O 	0.74754 0.42420 0.30349 -0.36000
O 	O 	0.79898 0.40359 0.33227 -0.43200
O 	O 	0.78678 0.50034 0.32385 -0.37300
O 	O 	0.91229 0.46022 0.26192 -0.37200
C 	C 	0.91931 0.48242 0.26533 0.28500
C 	C 	0.79046 0.48034 0.13624 0.28000
O 	O 	0.82559 0.48390 0.15978 -0.38300
O 	O 	0.89277 0.49658 0.28715 -0.38200
O 	O 	0.75368 0.46658 0.34004 -0.35000
C 	C 	0.76250 0.40711 0.33900 0.29700
O 	O 	0.89556 0.42603 0.16617 -0.36600
O 	O 	0.85253 0.39608 0.15240 -0.40500
H 	H 	0.84098 0.45771 0.35525 0.16900
H 	H 	0.80824 0.43336 0.14611 0.17900
Cu	Cu	0.21474 0.54964 0.26020 0.93100
Cu	Cu	0.17221 0.59835 0.24802 0.87300
Cu	Cu	0.13009 0.55370 0.22474 0.89700
Cu	Cu	0.15827 0.50708 0.25912 0.89800
C 	C 	0.22995 0.50997 0.34599 0.28400
O 	O 	0.22794 0.53087 0.16949 -0.35300
C 	C 	0.10484 0.59673 0.15937 0.27800
O 	O 	0.16053 0.53740 0.29551 -0.63700
O 	O 	0.18044 0.56892 0.20156 -0.63900
O 	O 	0.24744 0.57434 0.30366 -0.36300
O 	O 	0.19630 0.59399 0.34148 -0.42800
O 	O 	0.20924 0.49798 0.29774 -0.36900
O 	O 	0.08203 0.53906 0.25410 -0.36700
C 	C 	0.07506 0.51684 0.25739 0.28600
C 	C 	0.20156 0.52421 0.12142 0.27700
O 	O 	0.16679 0.51946 0.14523 -0.39100
O 	O 	0.10221 0.50236 0.27293 -0.37800
O 	O 	0.24043 0.53116 0.33070 -0.35600
C 	C 	0.23308 0.59081 0.34332 0.29200
O 	O 	0.09987 0.57433 0.16327 -0.36700
O 	O 	0.13881 0.60637 0.16877 -0.41000
H 	H 	0.15311 0.53933 0.34856 0.17300
H 	H 	0.18607 0.56993 0.14733 0.17800
Cu	Cu	0.71184 0.55185 0.76587 0.93000
Cu	Cu	0.66934 0.60018 0.74234 0.87600
Cu	Cu	0.62678 0.55475 0.73056 0.89700
Cu	Cu	0.65615 0.50872 0.77622 0.89600
C 	C 	0.72724 0.51478 0.86370 0.28300
O 	O 	0.72626 0.53182 0.67916 -0.35500
C 	C 	0.60120 0.59664 0.65819 0.27900
O 	O 	0.65782 0.53988 0.80396 -0.63600
O 	O 	0.67696 0.56965 0.70366 -0.63900
O 	O 	0.74382 0.57756 0.80474 -0.36100
O 	O 	0.69227 0.59755 0.83765 -0.43500
O 	O 	0.70632 0.50096 0.82125 -0.37500
O 	O 	0.57927 0.54009 0.76278 -0.37400
C 	C 	0.57293 0.51783 0.76603 0.28600
C 	C 	0.70066 0.52214 0.63505 0.28100
O 	O 	0.66585 0.51798 0.65950 -0.38400
O 	O 	0.59989 0.50398 0.78795 -0.38400
O 	O 	0.73857 0.53497 0.83920 -0.35500
C 	C 	0.72898 0.59443 0.84163 0.29400
O 	O 	0.59556 0.57446 0.66748 -0.36200
O 	O 	0.63558 0.60599 0.66179 -0.40300
H 	H 	0.65075 0.54300 0.85655 0.16400
H 	H 	0.68247 0.56933 0.64937 0.18600
Cu	Cu	0.27738 0.45099 0.76074 0.93000
Cu	Cu	0.31827 0.40183 0.74487 0.87200
Cu	Cu	0.36189 0.44648 0.72549 0.89800
Cu	Cu	0.33433 0.49306 0.76187 0.89600
C 	C 	0.26091 0.49083 0.84565 0.28500
O 	O 	0.26407 0.47027 0.67119 -0.35800
C 	C 	0.38650 0.40357 0.65884 0.27800
O 	O 	0.33166 0.46264 0.79696 -0.63800
O 	O 	0.31124 0.43179 0.70091 -0.63900
O 	O 	0.24375 0.42638 0.80200 -0.36300
O 	O 	0.29383 0.40556 0.83850 -0.42900
O 	O 	0.28331 0.50263 0.79964 -0.37600
O 	O 	0.41011 0.46076 0.75568 -0.36700
C 	C 	0.41738 0.48295 0.75907 0.28700
C 	C 	0.29035 0.47761 0.62391 0.27600
O 	O 	0.32545 0.48119 0.64761 -0.38600
O 	O 	0.39048 0.49751 0.77540 -0.38200
O 	O 	0.25238 0.46920 0.83277 -0.35500
C 	C 	0.25724 0.40937 0.84036 0.29300
O 	O 	0.39186 0.42592 0.66342 -0.36700
O 	O 	0.35220 0.39418 0.66593 -0.41100
H 	H 	0.33895 0.46045 0.84996 0.17100
H 	H 	0.30570 0.43130 0.64659 0.17400
Cu	Cu	0.61187 0.29734 0.44849 0.93100
Cu	Cu	0.57741 0.34719 0.48502 0.87400
Cu	Cu	0.55253 0.30509 0.57033 0.89700
Cu	Cu	0.59016 0.25857 0.56425 0.89800
C 	C 	0.66526 0.26335 0.48816 0.28600
O 	O 	0.58294 0.27329 0.38899 -0.35300
C 	C 	0.50486 0.34551 0.55447 0.28000
O 	O 	0.60098 0.29040 0.56254 -0.63500
O 	O 	0.56587 0.31509 0.46651 -0.64100
O 	O 	0.64392 0.32236 0.40615 -0.36700
O 	O 	0.63083 0.34648 0.50094 -0.42900
O 	O 	0.63685 0.24946 0.50831 -0.37200
O 	O 	0.54155 0.29402 0.67041 -0.37100
C 	C 	0.53957 0.27223 0.68835 0.28300
C 	C 	0.55024 0.26453 0.41245 0.27600
O 	O 	0.54349 0.26256 0.48463 -0.38200
O 	O 	0.56589 0.25815 0.66526 -0.37800
O 	O 	0.65878 0.28186 0.44912 -0.35800
C 	C 	0.65325 0.34031 0.44634 0.29100
O 	O 	0.50829 0.32475 0.58201 -0.36500
O 	O 	0.52441 0.35235 0.49547 -0.40700
H 	H 	0.62031 0.29579 0.59930 0.17000
H 	H 	0.54476 0.31239 0.43060 0.18300
Cu	Cu	0.87207 0.19873 0.45232 0.93100
Cu	Cu	0.90635 0.15014 0.50166 0.87200
Cu	Cu	0.93557 0.19361 0.56683 0.89700
Cu	Cu	0.89695 0.23922 0.55972 0.89600
C 	C 	0.82024 0.23378 0.49058 0.28600
O 	O 	0.90007 0.22154 0.38541 -0.34800
C 	C 	0.98277 0.15308 0.55461 0.27600
O 	O 	0.88629 0.20751 0.56371 -0.63700
O 	O 	0.91820 0.18110 0.46861 -0.64200
O 	O 	0.83817 0.17272 0.42236 -0.36200
O 	O 	0.85386 0.15253 0.52502 -0.43400
O 	O 	0.84932 0.24771 0.50605 -0.37700
O 	O 	0.94955 0.20560 0.66441 -0.37000
C 	C 	0.95055 0.22747 0.68152 0.28500
C 	C 	0.93276 0.23126 0.40551 0.27600
O 	O 	0.94126 0.23357 0.47686 -0.38800
O 	O 	0.92350 0.24105 0.65832 -0.38500
O 	O 	0.82545 0.21451 0.45491 -0.35100
C 	C 	0.82965 0.15674 0.47126 0.28700
O 	O 	0.98106 0.17487 0.57302 -0.36400
O 	O 	0.95931 0.14398 0.50471 -0.41100
H 	H 	0.86859 0.20248 0.60396 0.16600
H 	H 	0.93777 0.18231 0.42878 0.18200
Cu	Cu	0.71046 0.05104 0.26996 0.93000
Cu	Cu	0.66756 0.09937 0.25059 0.87400
Cu	Cu	0.62700 0.05414 0.22390 0.89900
Cu	Cu	0.65628 0.00782 0.25814 0.89500
C 	C 	0.72646 0.01053 0.35270 0.28700
O 	O 	0.72922 0.03345 0.18041 -0.35500
C 	C 	0.60344 0.09721 0.15498 0.28000
O 	O 	0.65579 0.03775 0.29677 -0.63900
O 	O 	0.67761 0.06985 0.20671 -0.63900
O 	O 	0.73880 0.07613 0.32201 -0.36200
O 	O 	0.68458 0.09438 0.34962 -0.43100
O 	O 	0.70604 0.99876 0.30320 -0.37700
O 	O 	0.57883 0.03895 0.24850 -0.36900
C 	C 	0.57218 0.01667 0.25044 0.28800
C 	C 	0.70555 0.02520 0.12958 0.27900
O 	O 	0.66974 0.02090 0.14713 -0.38500
O 	O 	0.59984 0.00201 0.26004 -0.38300
O 	O 	0.73396 0.03248 0.34331 -0.35300
C 	C 	0.72086 0.09126 0.36173 0.29100
O 	O 	0.59733 0.07495 0.16143 -0.36400
O 	O 	0.63753 0.10646 0.16569 -0.40900
H 	H 	0.64657 0.03910 0.34892 0.17200
H 	H 	0.68499 0.07069 0.15328 0.18200
Cu	Cu	0.27697 0.94879 0.24940 0.93100
Cu	Cu	0.31954 0.90048 0.23354 0.88000
Cu	Cu	0.36229 0.94506 0.21743 0.89800
Cu	Cu	0.33310 0.99178 0.25466 0.89600
C 	C 	0.26256 0.98661 0.34349 0.28500
O 	O 	0.26344 0.96798 0.16024 -0.35200
C 	C 	0.38652 0.90230 0.14640 0.28300
O 	O 	0.33089 0.96109 0.28719 -0.63600
O 	O 	0.31211 0.93032 0.19020 -0.63900
O 	O 	0.24598 0.92338 0.29303 -0.36400
O 	O 	0.29861 0.90500 0.32971 -0.42300
O 	O 	0.28310 0.00013 0.29936 -0.37700
O 	O 	0.40958 0.95979 0.25027 -0.37200
C 	C 	0.41646 0.98203 0.25056 0.28600
C 	C 	0.28978 0.97579 0.11396 0.27100
O 	O 	0.32426 0.98074 0.13907 -0.38500
O 	O 	0.38937 0.99650 0.26688 -0.38300
O 	O 	0.24994 0.96663 0.31946 -0.35200
C 	C 	0.26194 0.90810 0.33533 0.29200
O 	O 	0.39411 0.92414 0.15966 -0.36600
O 	O 	0.35178 0.89361 0.15213 -0.40400
H 	H 	0.33751 0.95871 0.34045 0.17100
H 	H 	0.30713 0.92996 0.13566 0.18200
Cu	Cu	0.11452 0.80126 0.44695 0.92900
Cu	Cu	0.07239 0.84851 0.48576 0.87800
Cu	Cu	0.05252 0.80497 0.56619 0.89900
Cu	Cu	0.09849 0.76138 0.56261 0.90100
C 	C 	0.17245 0.77008 0.48713 0.28600
O 	O 	0.08905 0.77584 0.38706 -0.35700
C 	C 	0.99945 0.84272 0.54987 0.27600
O 	O 	0.10378 0.79356 0.56058 -0.63300
O 	O 	0.06572 0.81624 0.46372 -0.64000
O 	O 	0.14331 0.82837 0.40888 -0.36900
O 	O 	0.12522 0.84991 0.50688 -0.42700
O 	O 	0.14571 0.75484 0.50500 -0.37200
O 	O 	0.04180 0.79315 0.66566 -0.36800
C 	C 	0.04530 0.77162 0.68505 0.28500
C 	C 	0.05795 0.76511 0.41104 0.27400
O 	O 	0.05150 0.76294 0.48329 -0.37700
O 	O 	0.07529 0.76011 0.66403 -0.37200
O 	O 	0.16388 0.78841 0.44888 -0.36000
C 	C 	0.14925 0.84599 0.45272 0.28800
O 	O 	0.00491 0.82188 0.57539 -0.35800
O 	O 	0.01874 0.85075 0.49218 -0.40600
H 	H 	0.12160 0.80018 0.59820 0.16900
H 	H 	0.04572 0.81277 0.42601 0.17900
Cu	Cu	0.37706 0.70458 0.45188 0.93000
Cu	Cu	0.41011 0.65448 0.49133 0.87500
Cu	Cu	0.44021 0.69698 0.56651 0.89600
Cu	Cu	0.40343 0.74357 0.56343 0.89800
C 	C 	0.32721 0.74039 0.49243 0.28600
O 	O 	0.40626 0.72795 0.38940 -0.34700
C 	C 	0.48505 0.65569 0.55089 0.27700
O 	O 	0.39148 0.71187 0.56434 -0.63400
O 	O 	0.42265 0.68604 0.46604 -0.63900
O 	O 	0.34246 0.67994 0.41342 -0.35500
O 	O 	0.35726 0.65662 0.50920 -0.43500
O 	O 	0.35724 0.75347 0.50814 -0.37500
O 	O 	0.45664 0.70896 0.66321 -0.36900
C 	C 	0.45704 0.73076 0.68133 0.28500
C 	C 	0.44001 0.73598 0.41014 0.27500
O 	O 	0.44829 0.73797 0.48169 -0.38300
O 	O 	0.42837 0.74372 0.66297 -0.38000
O 	O 	0.33098 0.72099 0.45673 -0.35400
C 	C 	0.33493 0.66164 0.45331 0.29100
O 	O 	0.48473 0.67737 0.57101 -0.36700
O 	O 	0.46284 0.64791 0.49682 -0.40900
H 	H 	0.37338 0.70677 0.60380 0.16400
H 	H 	0.44244 0.68777 0.42682 0.18200
Cu	Cu	0.11190 0.29654 0.94944 0.92800
Cu	Cu	0.07392 0.34582 0.98021 0.87400
Cu	Cu	0.04843 0.30309 0.06449 0.90000
Cu	Cu	0.08968 0.25767 0.06446 0.89800
C 	C 	0.16542 0.26281 0.99180 0.28200
O 	O 	0.08488 0.27181 0.88900 -0.35500
C 	C 	0.00040 0.34306 0.04381 0.28700
O 	O 	0.09841 0.28966 0.06260 -0.63100
O 	O 	0.06457 0.31349 0.96226 -0.64000
O 	O 	0.14401 0.32195 0.90835 -0.35900
O 	O 	0.12691 0.34606 0.00040 -0.42600
O 	O 	0.13668 0.24894 0.00947 -0.37300
O 	O 	0.03294 0.29101 0.16196 -0.36200
C 	C 	0.03523 0.26945 0.18235 0.28400
C 	C 	0.05217 0.26255 0.91081 0.27400
O 	O 	0.04418 0.26083 0.98255 -0.38400
O 	O 	0.06512 0.25747 0.16432 -0.38200
O 	O 	0.15962 0.28188 0.95537 -0.35600
C 	C 	0.15047 0.34062 0.94696 0.28400
O 	O 	0.00298 0.32210 0.07027 -0.36000
O 	O 	0.02050 0.34987 0.98556 -0.41200
H 	H 	0.11626 0.29565 0.10121 0.16600
H 	H 	0.04497 0.31037 0.92346 0.17800
Cu	Cu	0.37759 0.20237 0.94582 0.92800
Cu	Cu	0.41734 0.15364 0.97558 0.87300
Cu	Cu	0.43832 0.19590 0.06627 0.90000
Cu	Cu	0.39488 0.24063 0.06587 0.90000
C 	C 	0.32096 0.23416 0.98776 0.28300
O 	O 	0.40443 0.22801 0.88973 -0.36100
C 	C 	0.48923 0.15720 0.04592 0.28600
O 	O 	0.38790 0.20855 0.06054 -0.63100
O 	O 	0.42543 0.18627 0.96167 -0.64100
O 	O 	0.34812 0.17661 0.90113 -0.37100
O 	O 	0.36399 0.15211 0.99305 -0.43000
O 	O 	0.34828 0.24869 0.00840 -0.37000
O 	O 	0.45011 0.20709 0.16649 -0.36500
C 	C 	0.44673 0.22845 0.18819 0.28500
C 	C 	0.43613 0.23771 0.91487 0.27500
O 	O 	0.44239 0.23919 0.98736 -0.38300
O 	O 	0.41710 0.24037 0.16793 -0.37600
O 	O 	0.32892 0.21599 0.94822 -0.35900
C 	C 	0.34049 0.15817 0.94012 0.28900
O 	O 	0.48455 0.17767 0.07499 -0.36200
O 	O 	0.47086 0.15063 0.98525 -0.41100
H 	H 	0.36934 0.20195 0.09679 0.17100
H 	H 	0.44586 0.19013 0.92522 0.17700
Cu	Cu	0.77789 0.95043 0.76470 0.93100
Cu	Cu	0.82006 0.90185 0.75188 0.87900
Cu	Cu	0.86243 0.94606 0.72636 0.89700
Cu	Cu	0.83465 0.99312 0.76092 0.89500
C 	C 	0.76608 0.98929 0.85588 0.28500
O 	O 	0.76272 0.96885 0.67461 -0.35300
C 	C 	0.88571 0.90246 0.66077 0.28100
O 	O 	0.83271 0.96280 0.79699 -0.63700
O 	O 	0.81164 0.93113 0.70480 -0.63800
O 	O 	0.74706 0.92566 0.81280 -0.36300
O 	O 	0.80005 0.90748 0.84807 -0.42400
O 	O 	0.78577 0.00224 0.80865 -0.37700
O 	O 	0.91054 0.96064 0.75474 -0.37400
C 	C 	0.91795 0.98283 0.75370 0.28600
C 	C 	0.78808 0.97616 0.62549 0.27600
O 	O 	0.82319 0.98099 0.64731 -0.38600
O 	O 	0.89119 0.99771 0.76809 -0.38500
O 	O 	0.75269 0.96913 0.83519 -0.35200
C 	C 	0.76338 0.91034 0.85440 0.29100
O 	O 	0.89266 0.92464 0.66733 -0.36500
O 	O 	0.85126 0.89366 0.67016 -0.40400
H 	H 	0.84050 0.96093 0.84985 0.17100
H 	H 	0.80552 0.93011 0.65078 0.18100
Cu	Cu	0.21365 0.04922 0.75357 0.93100
Cu	Cu	0.17182 0.09807 0.73892 0.87600
Cu	Cu	0.12900 0.05315 0.71864 0.89800
Cu	Cu	0.15763 0.00658 0.75436 0.89500
C 	C 	0.23104 0.00935 0.83793 0.28900
O 	O 	0.22761 0.03052 0.66321 -0.35400
C 	C 	0.10382 0.09620 0.65368 0.28000
O 	O 	0.15968 0.03700 0.78941 -0.63800
O 	O 	0.17933 0.06828 0.69430 -0.63800
O 	O 	0.24628 0.07395 0.79685 -0.35700
O 	O 	0.19509 0.09371 0.83306 -0.43400
O 	O 	0.20882 0.99739 0.79202 -0.37900
O 	O 	0.08121 0.03849 0.74905 -0.37300
C 	C 	0.07429 0.01626 0.75189 0.28800
C 	C 	0.20167 0.02235 0.61671 0.28000
O 	O 	0.16665 0.01838 0.64022 -0.38700
O 	O 	0.10146 0.00178 0.76732 -0.38300
O 	O 	0.23918 0.03101 0.82490 -0.35600
C 	C 	0.23181 0.09053 0.83564 0.29500
O 	O 	0.09825 0.07388 0.65842 -0.36700
O 	O 	0.13813 0.10553 0.65982 -0.40300
H 	H 	0.15245 0.03908 0.84250 0.16900
H 	H 	0.18488 0.06890 0.64002 0.18500
C 	C 	0.95826 0.99097 0.75367 -0.06100
C 	C 	0.97085 0.00659 0.80844 -0.01400
C 	C 	0.00865 0.01496 0.80856 0.00700
C 	C 	0.03428 0.00778 0.75298 -0.06300
C 	C 	0.02188 0.99197 0.69878 -0.00900
C 	C 	0.98405 0.98363 0.69850 0.00100
H 	H 	0.95129 0.01208 0.85146 0.04600
H 	H 	0.04161 0.98634 0.65628 0.04100
C 	C 	0.97172 0.96805 0.64021 0.08100
C 	C 	0.02112 0.03038 0.86718 0.08100
N 	N 	0.96189 0.95557 0.59349 -0.10700
N 	N 	0.03111 0.04273 0.91414 -0.11700
C 	C 	0.31039 0.14203 0.91424 -0.07100
C 	C 	0.30545 0.13851 0.83714 -0.01500
C 	C 	0.27888 0.12228 0.81093 0.00700
C 	C 	0.25724 0.10906 0.86222 -0.08200
C 	C 	0.26092 0.11315 0.93917 -0.00400
C 	C 	0.28717 0.12968 0.96553 -0.00400
H 	H 	0.32280 0.14820 0.79748 0.04600
H 	H 	0.24360 0.10333 0.97853 0.04000
C 	C 	0.28920 0.13435 0.04484 0.08600
C 	C 	0.27360 0.11947 0.73119 0.05600
N 	N 	0.29081 0.13808 0.10838 -0.11500
N 	N 	0.26936 0.11722 0.66736 -0.12100
C 	C 	0.28109 0.24153 0.98955 -0.06500
C 	C 	0.25925 0.24048 0.92375 -0.00800
C 	C 	0.22092 0.24646 0.92460 0.00800
C 	C 	0.20416 0.25388 0.99173 -0.06600
C 	C 	0.22571 0.25462 0.05778 -0.00900
C 	C 	0.26405 0.24845 0.05714 0.00600
H 	H 	0.27215 0.23501 0.87180 0.05300
H 	H 	0.21278 0.26027 0.10948 0.03500
C 	C 	0.28542 0.24881 0.12628 0.06800
C 	C 	0.19884 0.24476 0.85645 0.08900
N 	N 	0.30254 0.24909 0.18165 -0.11800
N 	N 	0.18113 0.24340 0.80192 -0.10800
C 	C 	0.96779 0.85599 0.57949 -0.06200
C 	C 	0.94296 0.86647 0.52922 -0.00900
C 	C 	0.91698 0.88241 0.55474 0.00800
C 	C 	0.91550 0.88786 0.63145 -0.06300
C 	C 	0.93973 0.87711 0.68191 -0.01200
C 	C 	0.96570 0.86115 0.65654 0.00200
H 	H 	0.94444 0.86254 0.46996 0.05000
H 	H 	0.93805 0.88100 0.74118 0.03400
C 	C 	0.99065 0.85052 0.70975 0.07300
C 	C 	0.89222 0.89328 0.50177 0.08700
N 	N 	0.01061 0.84201 0.75240 -0.11200
N 	N 	0.87239 0.90200 0.45935 -0.11000
C 	C 	0.28933 0.75046 0.49367 -0.06200
C 	C 	0.26649 0.74789 0.55762 -0.01300
C 	C 	0.22838 0.75447 0.55654 0.00300
C 	C 	0.21276 0.76352 0.49039 -0.06300
C 	C 	0.23609 0.76678 0.42722 -0.00800
C 	C 	0.27423 0.76040 0.42866 0.00800
H 	H 	0.27821 0.74041 0.60786 0.03400
H 	H 	0.22439 0.77403 0.37658 0.05400
C 	C 	0.29769 0.76399 0.36301 0.09200
C 	C 	0.20580 0.75234 0.62393 0.06600
N 	N 	0.31649 0.76686 0.31046 -0.10400
N 	N 	0.18770 0.75064 0.67790 -0.12000
C 	C 	0.24656 0.99574 0.41328 -0.06500
C 	C 	0.22989 0.01722 0.41331 -0.00800
C 	C 	0.21362 0.02576 0.47892 0.00400
C 	C 	0.21397 0.01271 0.54515 -0.06400
C 	C 	0.23008 0.99115 0.54478 -0.00800
C 	C 	0.24665 0.98268 0.47965 0.00300
H 	H 	0.22934 0.02719 0.36222 0.05100
H 	H 	0.23065 0.98122 0.59598 0.04200
C 	C 	0.26505 0.96095 0.48220 0.07300
C 	C 	0.19675 0.04793 0.47785 0.07300
N 	N 	0.27979 0.94357 0.48433 -0.11600
N 	N 	0.18326 0.06570 0.47691 -0.11100
C 	C 	0.27970 0.98088 0.03522 -0.04800
C 	C 	0.29956 0.99837 0.99700 -0.03000
C 	C 	0.28631 0.00620 0.92793 0.01200
C 	C 	0.25131 0.99748 0.89888 -0.06900
C 	C 	0.23373 0.97844 0.93320 -0.00700
C 	C 	0.24846 0.96963 0.99973 -0.01100
H 	H 	0.32504 0.00615 0.02145 0.05300
H 	H 	0.20815 0.97074 0.90895 0.03800
C 	C 	0.23259 0.94849 0.02896 0.08700
C 	C 	0.30988 0.02209 0.88555 0.08900
N 	N 	0.21988 0.93155 0.05229 -0.11900
N 	N 	0.32880 0.03482 0.85167 -0.10600
C 	C 	0.18122 0.86218 0.43724 -0.07100
C 	C 	0.21548 0.85376 0.40950 -0.00900
C 	C 	0.24342 0.86859 0.37977 0.00400
C 	C 	0.23774 0.89237 0.38037 -0.07000
C 	C 	0.20535 0.90087 0.41556 -0.00600
C 	C 	0.17667 0.88601 0.44233 0.00400
H 	H 	0.21965 0.83552 0.40795 0.05200
H 	H 	0.20150 0.91913 0.41832 0.05400
C 	C 	0.14192 0.89542 0.47091 0.06500
C 	C 	0.27682 0.85912 0.34567 0.06000
N 	N 	0.11411 0.90301 0.49374 -0.13000
N 	N 	0.30353 0.85147 0.31839 -0.13100
C 	C 	0.77617 0.98117 0.54746 -0.06400
C 	C 	0.79751 0.99704 0.50469 -0.01100
C 	C 	0.78331 0.00498 0.43648 0.01000
C 	C 	0.74623 0.99823 0.41306 -0.06100
C 	C 	0.72669 0.98073 0.45168 -0.01300
C 	C 	0.74208 0.97158 0.51713 0.00500
H 	H 	0.82491 0.00343 0.52485 0.04800
H 	H 	0.69922 0.97444 0.43141 0.03900
C 	C 	0.72398 0.95158 0.54997 0.08100
C 	C 	0.80770 0.01903 0.38923 0.09600
N 	N 	0.70947 0.93554 0.57617 -0.11600
N 	N 	0.82724 0.03028 0.35143 -0.10800
C 	C 	0.72089 0.01632 0.05914 -0.06000
C 	C 	0.74210 0.99645 0.06075 -0.00600
C 	C 	0.75756 0.98774 0.99485 0.00000
C 	C 	0.75214 0.99914 0.92628 -0.06700
C 	C 	0.73134 0.01924 0.92475 -0.00700
C 	C 	0.71546 0.02779 0.99077 -0.00300
H 	H 	0.74646 0.98771 0.11347 0.04600
H 	H 	0.72692 0.02795 0.87204 0.04900
C 	C 	0.69368 0.04830 0.98787 0.07000
C 	C 	0.77924 0.96717 0.99812 0.06600
N 	N 	0.67621 0.06473 0.98555 -0.11900
N 	N 	0.79656 0.95069 0.00070 -0.11100
C 	C 	0.51935 0.14280 0.07533 -0.06800
C 	C 	0.51132 0.12873 0.13701 -0.01200
C 	C 	0.53787 0.11297 0.16133 0.00100
C 	C 	0.57321 0.11142 0.12421 -0.06300
C 	C 	0.58122 0.12551 0.06239 -0.01200
C 	C 	0.55448 0.14114 0.03773 0.01300
H 	H 	0.48408 0.12984 0.16540 0.03300
H 	H 	0.60844 0.12443 0.03395 0.05200
C 	C 	0.56347 0.15558 0.97435 0.08100
C 	C 	0.52889 0.09873 0.22525 0.07200
N 	N 	0.57066 0.16715 0.92356 -0.10800
N 	N 	0.52170 0.08732 0.27642 -0.11000
C 	C 	0.45661 0.99051 0.25090 -0.06100
C 	C 	0.46878 0.00613 0.30606 -0.01000
C 	C 	0.50639 0.01483 0.30647 0.00500
C 	C 	0.53229 0.00795 0.25093 -0.06000
C 	C 	0.52028 0.99219 0.19625 -0.01100
C 	C 	0.48262 0.98356 0.19555 0.00400
H 	H 	0.44905 0.01135 0.34914 0.04800
H 	H 	0.54018 0.98683 0.15365 0.04400
C 	C 	0.47066 0.96815 0.13651 0.08100
C 	C 	0.51841 0.03027 0.36537 0.08600
N 	N 	0.46114 0.95581 0.08916 -0.10500
N 	N 	0.52804 0.04264 0.41256 -0.11300
C 	C 	0.97636 0.23550 0.74209 -0.06400
C 	C 	0.96193 0.24871 0.80068 -0.00900
C 	C 	0.98629 0.25757 0.85632 -0.00100
C 	C 	0.02553 0.25278 0.85456 -0.06300
C 	C 	0.03982 0.23929 0.79671 -0.01200
C 	C 	0.01565 0.23083 0.74023 0.00700
H 	H 	0.93178 0.25230 0.80248 0.04700
H 	H 	0.06996 0.23561 0.79516 0.05400
C 	C 	0.03175 0.21823 0.67894 0.08400
C 	C 	0.97104 0.27232 0.91305 0.07100
N 	N 	0.04477 0.20816 0.62992 -0.10500
N 	N 	0.95883 0.28414 0.95846 -0.11600
C 	C 	0.00854 0.26015 0.23940 -0.05900
C 	C 	0.99061 0.23886 0.22687 -0.01300
C 	C 	0.96628 0.22907 0.28089 0.00500
C 	C 	0.95895 0.24094 0.34798 -0.06200
C 	C 	0.97708 0.26220 0.36069 -0.01200
C 	C 	0.00214 0.27173 0.30738 0.00800
H 	H 	0.99596 0.22976 0.17520 0.04000
H 	H 	0.97181 0.27131 0.41236 0.04200
C 	C 	0.02242 0.29281 0.32449 0.08900
C 	C 	0.95036 0.20645 0.26827 0.07700
N 	N 	0.03868 0.30969 0.33835 -0.10700
N 	N 	0.93762 0.18834 0.25810 -0.12000
C 	C 	0.01571 0.13988 0.57935 -0.05900
C 	C 	0.03404 0.12578 0.52780 -0.01200
C 	C 	0.06222 0.11098 0.55170 0.00900
C 	C 	0.07263 0.11040 0.62781 -0.06500
C 	C 	0.05505 0.12483 0.67903 -0.01200
C 	C 	0.02657 0.13946 0.65548 0.00100
H 	H 	0.02604 0.12616 0.46916 0.05000
H 	H 	0.06348 0.12458 0.73746 0.02900
C 	C 	0.00791 0.15345 0.71021 0.08000
C 	C 	0.08038 0.09650 0.49774 0.08700
N 	N 	0.99301 0.16465 0.75413 -0.11200
N 	N 	0.09489 0.08490 0.45448 -0.10500
C 	C 	0.79715 0.14071 0.45738 -0.07200
C 	C 	0.80045 0.11763 0.47652 -0.01500
C 	C 	0.77320 0.10147 0.45197 0.00800
C 	C 	0.74315 0.10823 0.40538 -0.07600
C 	C 	0.73758 0.13151 0.39304 -0.01100
C 	C 	0.76398 0.14781 0.42008 0.00400
H 	H 	0.82472 0.11215 0.50885 0.03100
H 	H 	0.71338 0.13689 0.36031 0.02200
C 	C 	0.75601 0.17169 0.41190 0.08500
C 	C 	0.77536 0.07819 0.47735 0.08300
N 	N 	0.74944 0.19079 0.40526 -0.10300
N 	N 	0.77702 0.05957 0.49804 -0.11000
C 	C 	0.47211 0.23771 0.24743 -0.06000
C 	C 	0.48967 0.25918 0.23699 -0.01100
C 	C 	0.51412 0.26850 0.29152 0.00600
C 	C 	0.52166 0.25607 0.35744 -0.06300
C 	C 	0.50313 0.23487 0.36901 -0.01000
C 	C 	0.47828 0.22567 0.31468 0.00600
H 	H 	0.48436 0.26865 0.18604 0.04100
H 	H 	0.50845 0.22538 0.41989 0.04300
C 	C 	0.45845 0.20428 0.32944 0.08800
C 	C 	0.53052 0.29105 0.28005 0.07500
N 	N 	0.44257 0.18713 0.34131 -0.11200
N 	N 	0.54363 0.30912 0.27062 -0.12200
C 	C 	0.46353 0.24816 0.86133 -0.06700
C 	C 	0.44971 0.26140 0.80239 -0.01100
C 	C 	0.47426 0.26947 0.74598 0.00200
C 	C 	0.51351 0.26481 0.74925 -0.06200
C 	C 	0.52758 0.25212 0.80942 -0.01000
C 	C 	0.50282 0.24359 0.86498 0.00200
H 	H 	0.41955 0.26496 0.79948 0.04900
H 	H 	0.55775 0.24860 0.81241 0.05100
C 	C 	0.51774 0.22943 0.92366 0.07300
C 	C 	0.45851 0.28145 0.68295 0.07800
N 	N 	0.52968 0.21808 0.97067 -0.11200
N 	N 	0.44575 0.29099 0.63254 -0.10600
C 	C 	0.70446 0.25487 0.48917 -0.06000
C 	C 	0.72586 0.25529 0.42277 -0.00600
C 	C 	0.76429 0.24955 0.42338 0.01100
C 	C 	0.78161 0.24289 0.49084 -0.06000
C 	C 	0.76034 0.24246 0.55731 -0.01200
C 	C 	0.72189 0.24845 0.55690 0.00300
H 	H 	0.71260 0.26030 0.37064 0.05500
H 	H 	0.77357 0.23717 0.60914 0.03400
C 	C 	0.70080 0.24838 0.62634 0.06800
C 	C 	0.78587 0.25064 0.35453 0.09300
N 	N 	0.68389 0.24833 0.68196 -0.12000
N 	N 	0.80317 0.25150 0.29940 -0.10500
C 	C 	0.41752 0.38957 0.62975 -0.06400
C 	C 	0.40983 0.37392 0.57184 -0.01100
C 	C 	0.43786 0.35900 0.54805 0.00800
C 	C 	0.47411 0.35977 0.58201 -0.06300
C 	C 	0.48192 0.37544 0.63946 -0.01400
C 	C 	0.45391 0.39031 0.66360 0.00200
H 	H 	0.38192 0.37328 0.54566 0.04900
H 	H 	0.50993 0.37610 0.66524 0.03100
C 	C 	0.46245 0.40585 0.72442 0.07400
C 	C 	0.42915 0.34285 0.48910 0.08700
N 	N 	0.46934 0.41828 0.77312 -0.10900
N 	N 	0.42219 0.32990 0.44190 -0.10900
C 	C 	0.17828 0.35781 0.91911 -0.07100
C 	C 	0.20772 0.36576 0.96623 -0.01800
C 	C 	0.23390 0.38255 0.94122 0.00900
C 	C 	0.23058 0.39150 0.86824 -0.08000
C 	C 	0.20108 0.38352 0.82133 -0.01100
C 	C 	0.17483 0.36691 0.84641 0.00100
H 	H 	0.21016 0.35893 0.02241 0.04800
H 	H 	0.19850 0.39035 0.76516 0.03900
C 	C 	0.14369 0.35985 0.79803 0.06700
C 	C 	0.26331 0.39094 0.99145 0.07200
N 	N 	0.11875 0.35421 0.75929 -0.11900
N 	N 	0.28687 0.39766 0.03172 -0.10600
C 	C 	0.56990 0.61042 0.63050 -0.06300
C 	C 	0.54978 0.62370 0.68139 -0.01400
C 	C 	0.52269 0.63899 0.65603 0.00100
C 	C 	0.51575 0.64119 0.57854 -0.06400
C 	C 	0.53588 0.62780 0.52761 -0.01100
C 	C 	0.56269 0.61236 0.55322 0.00900
H 	H 	0.55548 0.62226 0.74088 0.02900
H 	H 	0.53049 0.62932 0.46805 0.05100
C 	C 	0.58253 0.59848 0.49988 0.09000
C 	C 	0.50143 0.65186 0.71003 0.07300
N 	N 	0.59839 0.58736 0.45710 -0.10300
N 	N 	0.48441 0.66214 0.75336 -0.11500
C 	C 	0.53299 0.50895 0.76383 -0.06200
C 	C 	0.51982 0.49398 0.82008 -0.01000
C 	C 	0.48231 0.48513 0.81863 0.00600
C 	C 	0.45749 0.49123 0.76022 -0.05900
C 	C 	0.47056 0.50620 0.70409 -0.01200
C 	C 	0.50815 0.51495 0.70518 0.00400
H 	H 	0.53868 0.48940 0.86548 0.04700
H 	H 	0.45148 0.51094 0.65923 0.04500
C 	C 	0.52125 0.52953 0.64477 0.08100
C 	C 	0.46925 0.47029 0.87836 0.08600
N 	N 	0.53168 0.54119 0.59632 -0.10400
N 	N 	0.45879 0.45840 0.92621 -0.11300
C 	C 	0.24087 0.50284 0.90654 -0.05800
C 	C 	0.25940 0.52121 0.94286 -0.02300
C 	C 	0.24459 0.52998 0.00939 0.01300
C 	C 	0.21215 0.51937 0.04272 -0.07000
C 	C 	0.19149 0.50264 0.00243 -0.00300
C 	C 	0.20501 0.49485 0.93353 -0.00300
H 	H 	0.28577 0.52838 0.92021 0.04100
H 	H 	0.16521 0.49539 0.02521 0.04400
C 	C 	0.18102 0.47967 0.88930 0.09400
C 	C 	0.26173 0.55047 0.04091 0.07600
N 	N 	0.16176 0.46752 0.85395 -0.10800
N 	N 	0.27546 0.56688 0.06610 -0.11700
C 	C 	0.27953 0.48254 0.54505 -0.06500
C 	C 	0.24521 0.47300 0.51708 -0.01200
C 	C 	0.22912 0.48122 0.45099 0.00200
C 	C 	0.24872 0.49823 0.40905 -0.06100
C 	C 	0.28512 0.50584 0.43239 -0.00900
C 	C 	0.30035 0.49851 0.50050 0.00200
H 	H 	0.22998 0.45991 0.54888 0.04600
H 	H 	0.30109 0.51815 0.39870 0.05600
C 	C 	0.33696 0.50779 0.52412 0.08200
C 	C 	0.19160 0.47293 0.42911 0.07200
N 	N 	0.36629 0.51526 0.54282 -0.11700
N 	N 	0.16155 0.46628 0.41171 -0.12100
C 	C 	0.30813 0.64411 0.42414 -0.07800
C 	C 	0.27850 0.63572 0.47000 -0.00900
C 	C 	0.25383 0.61820 0.44458 0.00300
C 	C 	0.25877 0.60902 0.37231 -0.07800
C 	C 	0.28847 0.61742 0.32665 -0.01400
C 	C 	0.31329 0.63471 0.35226 0.00400
H 	H 	0.27484 0.64271 0.52569 0.04200
H 	H 	0.29226 0.61044 0.27098 0.04300
C 	C 	0.34482 0.64213 0.30541 0.06600
C 	C 	0.22438 0.60930 0.49382 0.07900
N 	N 	0.37007 0.64807 0.26790 -0.11200
N 	N 	0.20079 0.60217 0.53328 -0.11200
C 	C 	0.71304 0.51217 0.56402 -0.06500
C 	C 	0.72936 0.49066 0.56483 -0.00700
C 	C 	0.74705 0.48221 0.50076 0.00200
C 	C 	0.74808 0.49531 0.43446 -0.06200
C 	C 	0.73088 0.51662 0.43311 -0.00900
C 	C 	0.71334 0.52509 0.49748 0.00600
H 	H 	0.72935 0.48080 0.61620 0.04400
H 	H 	0.73095 0.52653 0.38186 0.05600
C 	C 	0.69572 0.54702 0.49470 0.07300
C 	C 	0.76534 0.46047 0.50432 0.07800
N 	N 	0.68162 0.56460 0.49225 -0.11100
N 	N 	0.77998 0.44306 0.50716 -0.11700
C 	C 	0.77801 0.49048 0.06554 -0.06200
C 	C 	0.78400 0.47890 0.99810 -0.01600
C 	C 	0.76754 0.48658 0.93149 0.00600
C 	C 	0.74459 0.50599 0.93256 -0.06100
C 	C 	0.73975 0.51796 0.99962 -0.02600
C 	C 	0.75629 0.51032 0.06595 0.01400
H 	H 	0.80089 0.46368 0.99773 0.03900
H 	H 	0.72285 0.53317 0.00017 0.04600
C 	C 	0.75074 0.52292 0.13442 0.07500
C 	C 	0.77505 0.47479 0.86229 0.08800
N 	N 	0.74629 0.53299 0.18926 -0.11000
N 	N 	0.78106 0.46535 0.80684 -0.10800
C 	C 	0.73725 0.38859 0.36613 -0.07900
C 	C 	0.73437 0.38432 0.44311 -0.00600
C 	C 	0.70791 0.36802 0.47019 0.00200
C 	C 	0.68368 0.35610 0.41961 -0.07300
C 	C 	0.68788 0.35974 0.34240 -0.01300
C 	C 	0.71466 0.37573 0.31547 0.00700
H 	H 	0.75243 0.39384 0.48195 0.04800
H 	H 	0.66977 0.35037 0.30324 0.04800
C 	C 	0.71904 0.37873 0.23560 0.05700
C 	C 	0.70668 0.36315 0.54942 0.08100
N 	N 	0.72256 0.38114 0.17167 -0.12200
N 	N 	0.70571 0.35926 0.61290 -0.11400
C 	C 	0.91783 0.39012 0.11983 -0.06400
C 	C 	0.94708 0.38344 0.16783 -0.01300
C 	C 	0.97317 0.36724 0.14471 0.00100
C 	C 	0.97043 0.35781 0.07225 -0.06800
C 	C 	0.94156 0.36477 0.02372 -0.00200
C 	C 	0.91530 0.38088 0.04704 0.00900
H 	H 	0.94899 0.39049 0.22388 0.03700
H 	H 	0.93985 0.35786 0.96746 0.04500
C 	C 	0.88648 0.38828 0.99535 0.08100
C 	C 	0.00317 0.36072 0.19514 0.06900
N 	N 	0.86340 0.39421 0.95395 -0.11000
N 	N 	0.02723 0.35551 0.23549 -0.11300
C 	C 	0.95947 0.49087 0.26350 -0.06000
C 	C 	0.97290 0.50573 0.31985 -0.01200
C 	C 	0.01044 0.51450 0.31809 0.00900
C 	C 	0.03505 0.50841 0.25934 -0.06000
C 	C 	0.02181 0.49345 0.20336 -0.00900
C 	C 	0.98417 0.48479 0.20472 0.00100
H 	H 	0.95417 0.51033 0.36543 0.04800
H 	H 	0.04075 0.48869 0.15831 0.04100
C 	C 	0.97086 0.47025 0.14438 0.08100
C 	C 	0.02372 0.52930 0.37777 0.08800
N 	N 	0.96026 0.45862 0.09598 -0.10600
N 	N 	0.03436 0.54115 0.42556 -0.11200
C 	C 	0.02090 0.76221 0.74560 -0.05900
C 	C 	0.01300 0.77566 0.80841 -0.00500
C 	C 	0.98837 0.76743 0.86458 0.00400
C 	C 	0.97177 0.74532 0.85859 -0.06400
C 	C 	0.98047 0.73169 0.79674 -0.01000
C 	C 	0.00453 0.74006 0.73998 0.00500
H 	H 	0.02572 0.79264 0.81320 0.05500
H 	H 	0.96782 0.71468 0.79205 0.03800
C 	C 	0.01088 0.72617 0.67460 0.07600
C 	C 	0.97917 0.78211 0.92654 0.08100
N 	N 	0.01595 0.71506 0.62222 -0.11600
N 	N 	0.97180 0.79388 0.97614 -0.11900
C 	C 	0.98102 0.73661 0.24685 -0.06300
C 	C 	0.96666 0.74887 0.30769 -0.00800
C 	C 	0.99139 0.75814 0.36199 0.00100
C 	C 	0.03101 0.75475 0.35647 -0.06200
C 	C 	0.04524 0.74205 0.29660 -0.01100
C 	C 	0.02060 0.73311 0.24164 0.00600
H 	H 	0.93626 0.75152 0.31210 0.05100
H 	H 	0.07564 0.73936 0.29232 0.05100
C 	C 	0.03640 0.72118 0.17857 0.08100
C 	C 	0.97600 0.77190 0.42124 0.07400
N 	N 	0.04914 0.71165 0.12809 -0.10400
N 	N 	0.96366 0.78292 0.46867 -0.11300
C 	C 	0.01785 0.64058 0.08016 -0.06700
C 	C 	0.00905 0.62406 0.13448 -0.00900
C 	C 	0.03686 0.60913 0.15916 -0.00000
C 	C 	0.07400 0.61059 0.12872 -0.06200
C 	C 	0.08258 0.62696 0.07343 -0.01400
C 	C 	0.05480 0.64201 0.04938 0.01600
H 	H 	0.98047 0.62285 0.15764 0.02900
H 	H 	0.11102 0.62811 0.04967 0.05100
C 	C 	0.06445 0.65892 0.99330 0.07900
C 	C 	0.02731 0.59282 0.21723 0.07600
N 	N 	0.07217 0.67247 0.94840 -0.10800
N 	N 	0.01960 0.57977 0.26371 -0.10800
C 	C 	0.80788 0.64572 0.92032 -0.06900
C 	C 	0.80316 0.64210 0.84320 -0.01700
C 	C 	0.77632 0.62604 0.81691 0.00800
C 	C 	0.75417 0.61309 0.86811 -0.08300
C 	C 	0.75744 0.61741 0.94500 -0.00400
C 	C 	0.78394 0.63380 0.97144 -0.00700
H 	H 	0.82097 0.65150 0.80361 0.04700
H 	H 	0.73969 0.60785 0.98427 0.03900
C 	C 	0.78551 0.63875 0.05060 0.08900
C 	C 	0.77141 0.62305 0.73715 0.05600
N 	N 	0.78674 0.64272 0.11401 -0.11500
N 	N 	0.76745 0.62065 0.67330 -0.12100
C 	C 	0.46773 0.74419 0.35308 -0.06100
C 	C 	0.48899 0.76440 0.36603 -0.01000
C 	C 	0.51429 0.77302 0.31161 0.00800
C 	C 	0.51789 0.76157 0.24255 -0.06000
C 	C 	0.49749 0.74106 0.23042 -0.01200
C 	C 	0.47276 0.73219 0.28530 0.00500
H 	H 	0.48572 0.77349 0.41842 0.05000
H 	H 	0.50087 0.73199 0.17802 0.04400
C 	C 	0.45375 0.71041 0.27252 0.07700
C 	C 	0.53758 0.79302 0.32842 0.09100
N 	N 	0.43855 0.69296 0.26214 -0.11400
N 	N 	0.55626 0.80903 0.34200 -0.10700
C 	C 	0.48449 0.73921 0.73830 -0.06100
C 	C 	0.49146 0.72606 0.80220 -0.00900
C 	C 	0.51709 0.73395 0.85720 0.00500
C 	C 	0.53545 0.75554 0.84919 -0.06500
C 	C 	0.52870 0.76857 0.78492 -0.01000
C 	C 	0.50374 0.76046 0.72924 0.00200
H 	H 	0.47686 0.70968 0.80924 0.05500
H 	H 	0.54295 0.78507 0.77821 0.04000
C 	C 	0.49900 0.77369 0.66183 0.07300
C 	C 	0.52535 0.71943 0.92012 0.08000
N 	N 	0.49522 0.78427 0.60781 -0.11900
N 	N 	0.53194 0.70779 0.97050 -0.12000
C 	C 	0.73940 0.89383 0.89705 -0.07200
C 	C 	0.70608 0.90146 0.93112 -0.00700
C 	C 	0.67761 0.88593 0.95459 0.00400
C 	C 	0.68337 0.86223 0.94778 -0.07000
C 	C 	0.71844 0.85463 0.92127 -0.01000
C 	C 	0.74617 0.87016 0.89462 0.00400
H 	H 	0.70135 0.91961 0.93535 0.05300
H 	H 	0.72351 0.83650 0.91846 0.05400
C 	C 	0.78061 0.86152 0.86208 0.05700
C 	C 	0.64191 0.89455 0.98142 0.05700
N 	N 	0.80815 0.85453 0.83605 -0.13400
N 	N 	0.61336 0.90152 0.00285 -0.12500
C 	C 	0.46933 0.85547 0.07147 -0.06900
C 	C 	0.44146 0.86301 0.02164 -0.00100
C 	C 	0.41521 0.87915 0.04444 0.01000
C 	C 	0.41675 0.88787 0.11794 -0.06300
C 	C 	0.44461 0.88037 0.16766 -0.01200
C 	C 	0.47065 0.86409 0.14513 0.00500
H 	H 	0.44072 0.85663 0.96465 0.04200
H 	H 	0.44551 0.88689 0.22449 0.03800
C 	C 	0.49921 0.85671 0.19740 0.07100
C 	C 	0.38732 0.88707 0.99165 0.07900
N 	N 	0.52210 0.85080 0.23925 -0.11000
N 	N 	0.36498 0.89342 0.94937 -0.11100
C 	C 	0.78995 0.74744 0.98935 -0.06500
C 	C 	0.76952 0.74882 0.92207 -0.00600
C 	C 	0.73129 0.75499 0.92234 0.00800
C 	C 	0.71322 0.76014 0.99055 -0.06700
C 	C 	0.73364 0.75893 0.05782 -0.00700
C 	C 	0.77192 0.75264 0.05761 0.00700
H 	H 	0.78331 0.74478 0.86953 0.05400
H 	H 	0.71980 0.76301 0.11027 0.03500
C 	C 	0.79221 0.75111 0.12771 0.06800
C 	C 	0.71054 0.75553 0.85251 0.09000
N 	N 	0.80849 0.74987 0.18384 -0.11900
N 	N 	0.69391 0.75597 0.79661 -0.10600
