data_crystal

_cell_length_a 43.15074
_cell_length_b 44.10947
_cell_length_c 32.09294
_cell_angle_alpha 89.96210
_cell_angle_beta  89.94944
_cell_angle_gamma 89.99866

_symmetry_space_group_name_	'P 1'
_symmetry_space_group_name_H-M	'P 1'

loop_
_symmetry_equiv_pos_as_xyz
  x,y,z

loop_
_atom_site_label
_atom_site_type_symbol
_atom_site_fract_x
_atom_site_fract_y
_atom_site_fract_z
_atom_site_charge
C 	C 	0.53880 0.44973 0.02557 0.09900
N 	N 	0.51018 0.45797 0.01329 -0.16900
C 	C 	0.49044 0.43797 0.03058 0.10100
C 	C 	0.45787 0.43470 0.01676 -0.07900
C 	C 	0.43992 0.46182 0.00430 0.09500
C 	C 	0.44295 0.40463 0.01667 0.04900
C 	C 	0.45093 0.38319 0.98626 -0.06700
C 	C 	0.43493 0.35569 0.98404 -0.04000
C 	C 	0.41053 0.34978 0.01179 0.00400
C 	C 	0.41976 0.39795 0.04586 -0.06100
N 	N 	0.44694 0.49008 0.01713 -0.13100
C 	C 	0.41303 0.46151 0.98085 -0.07000
C 	C 	0.42414 0.50785 0.00198 0.09700
C 	C 	0.42550 0.54135 0.00276 -0.08200
C 	C 	0.39656 0.55906 0.00001 0.05400
C 	C 	0.35208 0.58205 0.03372 -0.01900
C 	C 	0.38735 0.57166 0.96186 -0.07300
C 	C 	0.36047 0.58929 0.95959 -0.02600
C 	C 	0.34265 0.59440 0.99550 -0.01600
N 	N 	0.48289 0.54623 0.99840 -0.18100
C 	C 	0.50341 0.56887 0.00387 0.11000
C 	C 	0.48895 0.59423 0.02036 -0.06700
C 	C 	0.45807 0.58658 0.02513 -0.06600
C 	C 	0.53537 0.56817 0.98683 -0.08200
C 	C 	0.55371 0.59632 0.98453 0.03600
C 	C 	0.59305 0.62933 0.01347 -0.02800
C 	C 	0.58813 0.65011 0.98106 -0.00800
C 	C 	0.56526 0.64432 0.95106 -0.03400
C 	C 	0.54827 0.61735 0.95260 -0.06000
N 	N 	0.54652 0.51463 0.00481 -0.12200
C 	C 	0.58627 0.50545 0.96116 -0.06000
C 	C 	0.56842 0.49442 0.99362 0.07400
C 	C 	0.56747 0.46224 0.00668 -0.06900
C 	C 	0.59559 0.44322 0.00314 0.04900
C 	C 	0.62281 0.45151 0.02413 -0.06300
C 	C 	0.64934 0.43349 0.02088 -0.02300
C 	C 	0.64870 0.40679 0.99719 -0.01200
C 	C 	0.62163 0.39872 0.97572 -0.02900
C 	C 	0.59513 0.41682 0.97878 -0.07000
C 	C 	0.53748 0.42427 0.05082 -0.06300
C 	C 	0.50646 0.41668 0.05397 -0.06500
C 	C 	0.40385 0.37044 0.04373 -0.03400
C 	C 	0.40305 0.49113 0.97912 -0.07100
C 	C 	0.45528 0.55691 0.01140 0.10600
C 	C 	0.57524 0.53407 0.95256 -0.06400
C 	C 	0.55074 0.53872 0.97964 0.08300
C 	C 	0.57617 0.60237 0.01491 -0.05300
H 	H 	0.50548 0.47038 0.98627 0.08900
H 	H 	0.48566 0.52858 0.97700 0.09300
H 	H 	0.67032 0.44011 0.03701 0.03500
H 	H 	0.62112 0.37842 0.95675 0.03100
H 	H 	0.62338 0.47188 0.04295 0.04600
H 	H 	0.57428 0.41037 0.96224 0.04300
H 	H 	0.44082 0.33941 0.96005 0.03500
H 	H 	0.41380 0.41424 0.06980 0.04500
H 	H 	0.38589 0.36546 0.06632 0.03300
H 	H 	0.46911 0.38807 0.96393 0.04300
H 	H 	0.35352 0.59903 0.93005 0.03200
H 	H 	0.40110 0.56791 0.93407 0.04500
C 	C 	0.37873 0.56414 0.03587 -0.06800
H 	H 	0.33882 0.58645 0.06175 0.03300
H 	H 	0.60991 0.63414 0.03757 0.03300
H 	H 	0.58027 0.58634 0.03989 0.04600
H 	H 	0.53076 0.61290 0.92921 0.04200
H 	H 	0.56082 0.66060 0.92649 0.03500
H 	H 	0.55650 0.40880 0.05640 0.04500
H 	H 	0.49790 0.39438 0.06209 0.04700
H 	H 	0.39912 0.44176 0.97374 0.04300
H 	H 	0.38037 0.49865 0.96911 0.04300
H 	H 	0.49763 0.61721 0.01829 0.04900
H 	H 	0.43929 0.60278 0.02709 0.04800
H 	H 	0.60816 0.49622 0.95065 0.04200
H 	H 	0.58795 0.55163 0.93631 0.04300
H 	H 	0.38583 0.55462 0.06549 0.04700
Zn	Zn	0.31432 0.18538 0.98773 1.22000
C 	C 	0.31641 0.17247 0.07557 0.32200
O 	O 	0.27667 0.16102 0.99525 -0.45700
O 	O 	0.28828 0.18362 0.07928 -0.45100
O 	O 	0.24672 0.20240 0.00755 -0.50800
C 	C 	0.33110 0.24553 0.01256 0.33100
O 	O 	0.32591 0.22778 0.98051 -0.48200
O 	O 	0.31457 0.24267 0.04664 -0.50300
C 	C 	0.24924 0.17366 0.99772 0.32600
O 	O 	0.30829 0.18291 0.91441 -0.33600
Zn	Zn	0.27507 0.22181 0.04644 1.17000
O 	O 	0.33314 0.17874 0.04246 -0.45000
C 	C 	0.33121 0.16386 0.91600 0.28300
O 	O 	0.34208 0.15838 0.95277 -0.39600
C 	C 	0.50939 0.03654 0.44855 0.01000
C 	C 	0.53376 0.01480 0.44835 0.01000
C 	C 	0.49848 0.04826 0.48652 -0.05500
C 	C 	0.51064 0.03756 0.52438 0.01000
C 	C 	0.54689 0.00512 0.48615 -0.05500
C 	C 	0.53507 0.01587 0.52420 0.01000
H 	H 	0.56663 0.98995 0.48593 0.04900
H 	H 	0.48122 0.06610 0.48660 0.04900
C 	C 	0.54749 0.00617 0.56270 -0.01400
C 	C 	0.53409 0.01491 0.60065 0.00700
C 	C 	0.54056 0.99452 0.63386 -0.05500
C 	C 	0.55822 0.96951 0.62129 0.00200
S 	S 	0.56606 0.97344 0.57063 -0.01100
H 	H 	0.53373 0.99842 0.66587 0.04300
C 	C 	0.49957 0.04846 0.56302 -0.01400
C 	C 	0.50987 0.03605 0.60081 0.00700
C 	C 	0.48833 0.03966 0.63401 -0.05500
C 	C 	0.46098 0.05408 0.62161 0.00300
S 	S 	0.46425 0.06279 0.57115 -0.01100
H 	H 	0.49297 0.03316 0.66592 0.04400
C 	C 	0.50618 0.03312 0.37234 0.00700
C 	C 	0.49716 0.04650 0.41007 -0.01300
S 	S 	0.46189 0.06122 0.40327 -0.01100
C 	C 	0.45709 0.05171 0.35329 0.00300
C 	C 	0.48381 0.03645 0.34012 -0.05500
C 	C 	0.54480 0.00394 0.40966 -0.01300
C 	C 	0.53013 0.01168 0.37213 0.00700
C 	C 	0.53531 0.99030 0.33970 -0.05500
C 	C 	0.55329 0.96561 0.35252 0.00300
S 	S 	0.56292 0.97091 0.40242 -0.01200
H 	H 	0.52728 0.99326 0.30801 0.04400
H 	H 	0.48752 0.02931 0.30825 0.04400
Zn	Zn	0.68242 0.81667 0.98535 1.21900
C 	C 	0.67349 0.82393 0.07360 0.32100
O 	O 	0.71898 0.84055 0.00099 -0.45200
O 	O 	0.70127 0.81258 0.07992 -0.45100
O 	O 	0.74831 0.79861 0.01246 -0.51200
C 	C 	0.66472 0.75503 0.00018 0.34200
O 	O 	0.67208 0.77487 0.97133 -0.48300
O 	O 	0.67825 0.75588 0.03673 -0.50500
C 	C 	0.74622 0.82788 0.00589 0.33100
O 	O 	0.69397 0.82408 0.91384 -0.33600
Zn	Zn	0.71735 0.77666 0.04470 1.17000
O 	O 	0.65943 0.81952 0.03784 -0.45000
C 	C 	0.67077 0.84283 0.91463 0.28300
O 	O 	0.65708 0.84577 0.95025 -0.39600
Zn	Zn	0.16909 0.67641 0.99804 1.21800
C 	C 	0.16470 0.66469 0.08614 0.32200
O 	O 	0.13939 0.70781 0.01560 -0.44900
O 	O 	0.17119 0.69337 0.09279 -0.45600
O 	O 	0.17720 0.74260 0.02803 -0.51100
C 	C 	0.23479 0.66958 0.01026 0.33000
O 	O 	0.21277 0.67290 0.98241 -0.47800
O 	O 	0.23128 0.68059 0.04790 -0.49800
C 	C 	0.14797 0.73602 0.02152 0.33000
O 	O 	0.15886 0.68840 0.92738 -0.33100
Zn	Zn	0.20463 0.71522 0.05804 1.17000
O 	O 	0.17033 0.65245 0.04960 -0.44100
C 	C 	0.14355 0.66304 0.92714 0.28400
O 	O 	0.14326 0.64829 0.96199 -0.39100
C 	C 	0.98159 0.53451 0.53213 0.01000
C 	C 	0.95820 0.51183 0.52991 0.01000
C 	C 	0.00616 0.53439 0.50334 -0.05500
C 	C 	0.00751 0.51207 0.47213 0.01000
C 	C 	0.95927 0.48984 0.49824 -0.05500
C 	C 	0.98371 0.48985 0.46926 0.01000
H 	H 	0.94127 0.47278 0.49626 0.05000
H 	H 	0.02415 0.55144 0.50530 0.04900
C 	C 	0.98577 0.46750 0.43785 -0.01300
C 	C 	0.00932 0.46823 0.40765 0.00700
C 	C 	0.00141 0.45244 0.37044 -0.05500
C 	C 	0.97174 0.43957 0.37193 0.00200
S 	S 	0.95571 0.44886 0.41752 -0.01100
H 	H 	0.01539 0.45269 0.34246 0.04300
C 	C 	0.03257 0.51075 0.44382 -0.01300
C 	C 	0.03287 0.49005 0.41064 0.00700
C 	C 	0.05217 0.49932 0.37691 -0.05500
C 	C 	0.06678 0.52715 0.38414 0.00300
S 	S 	0.05478 0.54012 0.43030 -0.01200
H 	H 	0.05267 0.48817 0.34692 0.04300
C 	C 	0.95657 0.55560 0.59447 0.00700
C 	C 	0.97921 0.55710 0.56317 -0.01300
S 	S 	0.00844 0.57819 0.58103 -0.01200
C 	C 	0.99285 0.58749 0.62698 0.00300
C 	C 	0.96429 0.57266 0.63066 -0.05500
C 	C 	0.93385 0.51234 0.55941 -0.01300
C 	C 	0.93389 0.53286 0.59283 0.00700
C 	C 	0.91609 0.52277 0.62758 -0.05500
C 	C 	0.90204 0.49458 0.62070 0.00200
S 	S 	0.91299 0.48226 0.57381 -0.01000
H 	H 	0.91610 0.53381 0.65766 0.04300
H 	H 	0.95123 0.57196 0.65942 0.04300
Zn	Zn	0.82331 0.32173 0.99610 1.21700
C 	C 	0.82813 0.33158 0.90748 0.32100
O 	O 	0.78625 0.34613 0.98483 -0.46100
O 	O 	0.80097 0.31856 0.90252 -0.46000
O 	O 	0.75621 0.30481 0.97172 -0.51500
C 	C 	0.84120 0.26039 0.97774 0.32100
O 	O 	0.83455 0.27964 0.00751 -0.47300
O 	O 	0.82635 0.26188 0.94221 -0.49700
C 	C 	0.75885 0.33394 0.97933 0.33400
O 	O 	0.81386 0.32591 0.06841 -0.32900
Zn	Zn	0.78676 0.28267 0.93857 1.16800
O 	O 	0.84404 0.32701 0.94190 -0.45100
C 	C 	0.83710 0.34460 0.06836 0.28200
O 	O 	0.84976 0.34932 0.03235 -0.39300
C 	C 	0.00487 0.93728 0.06037 0.10000
N 	N 	0.98488 0.95933 0.04949 -0.17300
C 	C 	0.95791 0.95302 0.06873 0.09900
C 	C 	0.92798 0.96539 0.05402 -0.07600
C 	C 	0.92430 0.99846 0.04834 0.08600
C 	C 	0.90160 0.94486 0.04562 0.04300
C 	C 	0.90540 0.91984 0.01910 -0.06400
C 	C 	0.88061 0.90020 0.01176 -0.02300
C 	C 	0.85190 0.90536 0.03099 -0.00700
C 	C 	0.87260 0.95049 0.06388 -0.06000
N 	N 	0.94386 0.01884 0.06522 -0.12800
C 	C 	0.90635 0.01153 0.01749 -0.05800
C 	C 	0.93771 0.04523 0.04570 0.08400
C 	C 	0.95887 0.07150 0.04725 -0.07200
C 	C 	0.94645 0.10229 0.04002 0.03100
C 	C 	0.90801 0.14080 0.05567 -0.04000
C 	C 	0.95606 0.11905 0.00516 -0.03600
C 	C 	0.94112 0.14620 0.99498 -0.05800
C 	C 	0.91618 0.15646 0.01924 0.01100
N 	N 	0.00911 0.04450 0.04103 -0.17300
C 	C 	0.03899 0.05206 0.04720 0.10000
C 	C 	0.04101 0.07950 0.06812 -0.06400
C 	C 	0.01091 0.08907 0.07471 -0.06400
C 	C 	0.06475 0.03808 0.02336 -0.07900
C 	C 	0.09238 0.05615 0.01222 0.04700
C 	C 	0.14697 0.06716 0.02182 -0.03900
C 	C 	0.14331 0.09453 0.00013 0.01700
C 	C 	0.11479 0.10136 0.98142 -0.04500
C 	C 	0.08936 0.08224 0.98750 -0.06500
N 	N 	0.05232 0.98523 0.04371 -0.13100
C 	C 	0.06533 0.96101 0.98441 -0.07000
C 	C 	0.05289 0.95829 0.02396 0.09400
C 	C 	0.03450 0.93203 0.03807 -0.07800
C 	C 	0.04763 0.90109 0.03416 0.04400
C 	C 	0.07823 0.89541 0.04683 -0.06000
C 	C 	0.09119 0.86667 0.04153 -0.02900
C 	C 	0.07361 0.84320 0.02404 -0.00700
C 	C 	0.04278 0.84856 0.01234 -0.02200
C 	C 	0.03003 0.87758 0.01652 -0.06500
C 	C 	0.99081 0.91680 0.08709 -0.06600
C 	C 	0.96071 0.92682 0.09236 -0.06400
C 	C 	0.84772 0.93107 0.05606 -0.03000
C 	C 	0.91495 0.04156 0.01582 -0.05600
C 	C 	0.99197 0.06699 0.05763 0.09800
C 	C 	0.07332 0.99108 0.97989 -0.07100
C 	C 	0.06520 0.00500 0.01686 0.09500
C 	C 	0.12151 0.04821 0.02829 -0.05600
H 	H 	0.98681 0.97243 0.02244 0.09100
H 	H 	0.00142 0.02990 0.01757 0.09200
H 	H 	0.11490 0.86259 0.05112 0.03500
H 	H 	0.02876 0.83033 0.99994 0.02500
H 	H 	0.09196 0.91330 0.06072 0.04600
H 	H 	0.00650 0.88176 0.00629 0.04300
H 	H 	0.88377 0.88084 0.99145 0.02400
H 	H 	0.86940 0.96979 0.08428 0.04600
H 	H 	0.82541 0.93555 0.07029 0.03700
H 	H 	0.92755 0.91561 0.00429 0.04400
H 	H 	0.94823 0.15870 0.96754 0.03600
H 	H 	0.97443 0.11058 0.98528 0.03100
C 	C 	0.92292 0.11367 0.06585 -0.05100
H 	H 	0.88927 0.14899 0.07513 0.03800
H 	H 	0.16918 0.06135 0.03538 0.04000
H 	H 	0.12417 0.02789 0.04693 0.04600
H 	H 	0.06711 0.08817 0.97417 0.04100
H 	H 	0.11207 0.12196 0.96339 0.03400
H 	H 	0.99851 0.89379 0.09258 0.04600
H 	H 	0.94156 0.91250 0.10180 0.04500
H 	H 	0.89580 0.99927 0.99196 0.03800
H 	H 	0.91205 0.05599 0.98879 0.03700
H 	H 	0.06104 0.09428 0.06817 0.04500
H 	H 	0.00422 0.11239 0.08009 0.04600
H 	H 	0.06059 0.94575 0.95879 0.04300
H 	H 	0.07593 0.00259 0.95029 0.04400
H 	H 	0.91565 0.10108 0.09315 0.04400
C 	C 	0.89778 0.18292 0.00566 0.01600
C 	C 	0.86841 0.17924 0.98660 -0.00900
C 	C 	0.85036 0.20493 0.97782 0.00200
C 	C 	0.86139 0.23415 0.98653 -0.12500
C 	C 	0.89144 0.23788 0.00365 0.08800
C 	C 	0.90914 0.21212 0.01353 -0.09000
H 	H 	0.82751 0.20211 0.96430 0.01600
H 	H 	0.93179 0.21485 0.02769 0.05000
C 	C 	0.85611 0.14816 0.97451 -0.09100
C 	C 	0.90511 0.26904 0.01155 -0.11500
C 	C 	0.85722 0.14293 0.92719 -0.02400
H 	H 	0.84530 0.16171 0.91055 0.02600
H 	H 	0.84446 0.12168 0.91998 0.02300
C 	C 	0.90142 0.27821 0.05747 -0.01600
H 	H 	0.91195 0.26064 0.07790 0.02900
H 	H 	0.87647 0.28006 0.06558 0.04400
H 	H 	0.86817 0.12926 0.99050 0.04700
H 	H 	0.89464 0.28652 0.99098 0.05100
C 	C 	0.89028 0.13986 0.91068 -0.15600
C 	C 	0.91716 0.30852 0.06642 -0.16500
H 	H 	0.90258 0.12118 0.92696 0.05700
H 	H 	0.88960 0.13457 0.87687 0.05300
H 	H 	0.90321 0.16140 0.91490 0.06000
H 	H 	0.83154 0.14656 0.98475 0.03800
H 	H 	0.94255 0.30667 0.06127 0.06000
H 	H 	0.91302 0.31503 0.09938 0.06500
H 	H 	0.90769 0.32655 0.04592 0.07200
H 	H 	0.93020 0.26856 0.00353 0.05100
C 	C 	0.87290 0.43338 0.71657 0.08200
C 	C 	0.90172 0.44816 0.71972 -0.06400
C 	C 	0.91110 0.46851 0.68873 -0.02700
C 	C 	0.89190 0.47409 0.65424 0.00100
C 	C 	0.86339 0.45907 0.65094 -0.02600
C 	C 	0.85397 0.43881 0.68196 -0.06800
H 	H 	0.91695 0.44361 0.74579 0.05400
H 	H 	0.93347 0.47953 0.69117 0.03700
H 	H 	0.84854 0.46304 0.62428 0.03600
H 	H 	0.83194 0.42725 0.67909 0.05000
N 	N 	0.86331 0.41200 0.74702 -0.08700
N 	N 	0.87336 0.41313 0.78342 -0.09100
C 	C 	0.83993 0.35261 0.87527 -0.11200
C 	C 	0.81964 0.36464 0.84527 0.03200
C 	C 	0.83060 0.38478 0.81508 -0.09600
C 	C 	0.86207 0.39283 0.81413 0.10300
C 	C 	0.88224 0.38136 0.84443 -0.09800
C 	C 	0.87131 0.36122 0.87480 0.03400
H 	H 	0.79531 0.35863 0.84552 0.02400
H 	H 	0.81463 0.39422 0.79252 0.05900
H 	H 	0.90645 0.38783 0.84421 0.05800
H 	H 	0.88726 0.35222 0.89772 0.03000
C 	C 	0.88181 0.37282 0.18106 0.10000
C 	C 	0.86109 0.34842 0.18154 -0.09300
C 	C 	0.84600 0.33957 0.14499 0.02500
C 	C 	0.85184 0.35487 0.10737 -0.09200
C 	C 	0.87279 0.37926 0.10685 0.02400
C 	C 	0.88780 0.38812 0.14348 -0.09000
H 	H 	0.85675 0.33625 0.21028 0.05700
H 	H 	0.83019 0.32050 0.14582 0.03400
H 	H 	0.87761 0.39121 0.07807 0.03400
H 	H 	0.90432 0.40658 0.14258 0.06100
N 	N 	0.89792 0.38070 0.21795 -0.09000
N 	N 	0.90338 0.40778 0.22641 -0.08700
C 	C 	0.95345 0.43178 0.33468 0.00200
C 	C 	0.95418 0.45048 0.29922 -0.02600
C 	C 	0.93751 0.44243 0.26355 -0.06800
C 	C 	0.92005 0.41568 0.26292 0.08200
C 	C 	0.91850 0.39745 0.29885 -0.06400
C 	C 	0.93522 0.40545 0.33449 -0.02600
H 	H 	0.96753 0.47128 0.29933 0.03700
H 	H 	0.93831 0.45688 0.23628 0.05100
H 	H 	0.90434 0.37718 0.29918 0.05500
H 	H 	0.93420 0.39107 0.36184 0.03700
C 	C 	0.08738 0.81275 0.01933 0.01900
C 	C 	0.10515 0.80517 0.98367 -0.00600
C 	C 	0.12372 0.77902 0.98433 -0.00600
C 	C 	0.12491 0.76053 0.01978 -0.11000
C 	C 	0.10594 0.76725 0.05457 0.08300
C 	C 	0.08684 0.79301 0.05356 -0.09100
H 	H 	0.13802 0.77356 0.95754 0.03200
H 	H 	0.07313 0.79884 0.08074 0.05000
C 	C 	0.10480 0.82475 0.94470 -0.09100
C 	C 	0.10848 0.74931 0.09473 -0.13300
C 	C 	0.08750 0.80944 0.90854 -0.02500
H 	H 	0.09704 0.78642 0.90272 0.03200
H 	H 	0.09129 0.82303 0.87980 0.02600
C 	C 	0.13314 0.76326 0.12337 -0.00200
H 	H 	0.12730 0.78738 0.12972 0.02200
H 	H 	0.15618 0.76253 0.10787 0.00700
H 	H 	0.09489 0.84764 0.95007 0.04700
H 	H 	0.11394 0.72514 0.08848 0.07000
C 	C 	0.05265 0.80715 0.91634 -0.15500
C 	C 	0.13529 0.74646 0.16486 -0.17200
H 	H 	0.04260 0.83003 0.92143 0.05600
H 	H 	0.04127 0.79687 0.88874 0.05500
H 	H 	0.04783 0.79257 0.94381 0.06100
H 	H 	0.12916 0.82871 0.93478 0.04200
H 	H 	0.11240 0.74614 0.18073 0.06000
H 	H 	0.15221 0.75811 0.18539 0.05300
H 	H 	0.14333 0.72286 0.15987 0.06500
H 	H 	0.08568 0.74943 0.11096 0.05500
C 	C 	0.04418 0.62193 0.73089 0.08200
C 	C 	0.01434 0.63274 0.72248 -0.06800
C 	C 	0.99755 0.62133 0.68871 -0.02600
C 	C 	0.01065 0.59919 0.66272 0.00100
C 	C 	0.04068 0.58845 0.67095 -0.02600
C 	C 	0.05747 0.59992 0.70468 -0.06400
H 	H 	0.00409 0.64991 0.74228 0.05100
H 	H 	0.97445 0.62985 0.68255 0.03500
H 	H 	0.05094 0.57110 0.65146 0.03800
H 	H 	0.08076 0.59178 0.71037 0.05500
N 	N 	0.06093 0.63384 0.76520 -0.08700
N 	N 	0.08069 0.61815 0.78363 -0.09000
C 	C 	0.12790 0.65150 0.88948 -0.09000
C 	C 	0.12007 0.62065 0.88647 0.02700
C 	C 	0.10457 0.60978 0.85131 -0.09200
C 	C 	0.09641 0.62957 0.81907 0.10100
C 	C 	0.10475 0.66033 0.82155 -0.08900
C 	C 	0.12034 0.67126 0.85667 0.02600
H 	H 	0.12609 0.60507 0.91128 0.03500
H 	H 	0.09865 0.58597 0.84926 0.05800
H 	H 	0.09922 0.67570 0.79629 0.06100
H 	H 	0.12628 0.69508 0.85849 0.03300
C 	C 	0.09893 0.58331 0.28429 0.08300
C 	C 	0.07381 0.59264 0.30873 -0.06800
C 	C 	0.06326 0.57441 0.34145 -0.02500
C 	C 	0.07815 0.54685 0.35038 0.00100
C 	C 	0.10353 0.53764 0.32618 -0.02700
C 	C 	0.11404 0.55586 0.29344 -0.06400
H 	H 	0.06225 0.61390 0.30206 0.05000
H 	H 	0.04332 0.58154 0.35948 0.03800
H 	H 	0.11518 0.51642 0.33284 0.03600
H 	H 	0.13395 0.54876 0.27535 0.05400
N 	N 	0.10956 0.60213 0.25146 -0.08800
N 	N 	0.12036 0.59085 0.21892 -0.09000
C 	C 	0.15311 0.64573 0.12039 -0.11100
C 	C 	0.16684 0.61751 0.12853 0.03700
C 	C 	0.15598 0.59952 0.16130 -0.09800
C 	C 	0.13148 0.60961 0.18631 0.10400
C 	C 	0.11727 0.63761 0.17764 -0.09500
C 	C 	0.12810 0.65560 0.14482 0.03400
H 	H 	0.18606 0.60962 0.10968 0.02900
H 	H 	0.16670 0.57777 0.16742 0.05800
H 	H 	0.09767 0.64522 0.19595 0.06100
H 	H 	0.11663 0.67683 0.13784 0.02200
C 	C 	0.82595 0.88416 0.02418 0.01900
C 	C 	0.81581 0.86427 0.05609 -0.00100
C 	C 	0.78937 0.84642 0.04951 0.00100
C 	C 	0.77385 0.84697 0.01118 -0.11200
C 	C 	0.78519 0.86536 0.97839 0.07600
C 	C 	0.81068 0.88440 0.98565 -0.09600
H 	H 	0.78101 0.83179 0.07427 0.02000
H 	H 	0.81878 0.89935 0.96109 0.05000
C 	C 	0.83364 0.86068 0.09662 -0.09400
C 	C 	0.77092 0.86455 0.93525 -0.12100
C 	C 	0.85258 0.83119 0.09770 -0.02200
H 	H 	0.83748 0.81142 0.09067 0.02300
H 	H 	0.86179 0.82800 0.12974 0.02400
C 	C 	0.74765 0.89053 0.92928 -0.01200
H 	H 	0.75811 0.91239 0.93926 0.02800
H 	H 	0.72674 0.88636 0.94865 0.04100
H 	H 	0.84906 0.88013 0.10351 0.05000
H 	H 	0.75945 0.84248 0.92896 0.05900
C 	C 	0.87987 0.83164 0.06735 -0.15700
C 	C 	0.73786 0.89345 0.88373 -0.16400
H 	H 	0.89503 0.85149 0.07351 0.05900
H 	H 	0.89381 0.81068 0.07137 0.05400
H 	H 	0.87147 0.83243 0.03468 0.06100
H 	H 	0.81672 0.86005 0.12277 0.04300
H 	H 	0.75778 0.90106 0.86442 0.05800
H 	H 	0.71898 0.91043 0.88096 0.06200
H 	H 	0.72941 0.87138 0.87165 0.07100
H 	H 	0.78976 0.86662 0.91170 0.05000
C 	C 	0.64350 0.89600 0.80919 0.10000
C 	C 	0.65875 0.86814 0.80325 -0.09000
C 	C 	0.66788 0.85084 0.83768 0.02400
C 	C 	0.66206 0.86134 0.87825 -0.09500
C 	C 	0.64766 0.88958 0.88401 0.02600
C 	C 	0.63862 0.90686 0.84961 -0.09500
H 	H 	0.66344 0.85991 0.77210 0.06100
H 	H 	0.67923 0.82923 0.83281 0.03100
H 	H 	0.64359 0.89822 0.91512 0.03200
H 	H 	0.62741 0.92855 0.85435 0.05700
N 	N 	0.63322 0.91341 0.77472 -0.09100
N 	N 	0.62450 0.90089 0.74192 -0.08700
C 	C 	0.57767 0.95175 0.64988 0.00100
C 	C 	0.57518 0.92007 0.65069 -0.02600
C 	C 	0.59150 0.90326 0.68044 -0.06700
C 	C 	0.61038 0.91798 0.70957 0.08200
C 	C 	0.61422 0.94964 0.70725 -0.06400
C 	C 	0.59779 0.96643 0.67766 -0.02700
H 	H 	0.56001 0.90853 0.62898 0.03700
H 	H 	0.58883 0.87887 0.68157 0.05100
H 	H 	0.62957 0.96124 0.72863 0.05400
H 	H 	0.60045 0.99084 0.67660 0.03700
C 	C 	0.60390 0.91170 0.26499 0.08200
C 	C 	0.57135 0.91020 0.26645 -0.06400
C 	C 	0.55492 0.92759 0.29539 -0.02700
C 	C 	0.57083 0.94625 0.32353 0.00100
C 	C 	0.60336 0.94717 0.32276 -0.02500
C 	C 	0.61979 0.92979 0.29374 -0.06800
H 	H 	0.55882 0.89567 0.24512 0.05400
H 	H 	0.52983 0.92662 0.29590 0.03600
H 	H 	0.61590 0.96172 0.34405 0.03800
H 	H 	0.64486 0.93082 0.29307 0.05100
N 	N 	0.62081 0.89509 0.23473 -0.08700
N 	N 	0.60921 0.88941 0.20002 -0.09100
C 	C 	0.65795 0.84159 0.10656 -0.11100
C 	C 	0.66416 0.83572 0.14877 0.03400
C 	C 	0.64836 0.85171 0.17987 -0.09600
C 	C 	0.62644 0.87395 0.16897 0.10300
C 	C 	0.62031 0.87977 0.12693 -0.09800
C 	C 	0.63608 0.86386 0.09585 0.03400
H 	H 	0.68072 0.81839 0.15750 0.02000
H 	H 	0.65279 0.84652 0.21230 0.06100
H 	H 	0.60323 0.89664 0.11834 0.05900
H 	H 	0.63119 0.86874 0.06342 0.03000
C 	C 	0.16889 0.11667 0.99881 -0.00800
C 	C 	0.17678 0.13410 0.03433 0.01000
C 	C 	0.20336 0.15237 0.03326 0.00400
C 	C 	0.22131 0.15460 0.99700 -0.12300
C 	C 	0.21220 0.13884 0.96061 0.07900
C 	C 	0.18643 0.11944 0.96222 -0.08300
H 	H 	0.21002 0.16503 0.06080 0.02000
H 	H 	0.18002 0.10643 0.93488 0.04700
C 	C 	0.15659 0.13439 0.07318 -0.09900
C 	C 	0.22928 0.14275 0.91966 -0.12200
C 	C 	0.13759 0.16374 0.07693 -0.02000
H 	H 	0.15299 0.18386 0.07439 0.02300
H 	H 	0.12667 0.16436 0.10830 0.02400
C 	C 	0.25298 0.11725 0.91295 -0.01200
H 	H 	0.24194 0.09480 0.91836 0.02900
H 	H 	0.27241 0.11978 0.93536 0.04200
H 	H 	0.14081 0.11463 0.07536 0.05200
H 	H 	0.24102 0.16513 0.91784 0.06000
C 	C 	0.11200 0.16591 0.04420 -0.15800
C 	C 	0.26598 0.11781 0.86867 -0.16400
H 	H 	0.09643 0.14590 0.04613 0.06000
H 	H 	0.09801 0.18663 0.04983 0.05400
H 	H 	0.12213 0.16745 0.01246 0.06200
H 	H 	0.17191 0.13269 0.10093 0.04400
H 	H 	0.24753 0.11200 0.84592 0.05900
H 	H 	0.28494 0.10092 0.86582 0.06300
H 	H 	0.27532 0.14060 0.86106 0.07100
H 	H 	0.21210 0.14250 0.89381 0.05000
C 	C 	0.40553 0.10064 0.71150 0.08200
C 	C 	0.42558 0.11696 0.68549 -0.06800
C 	C 	0.44317 0.10191 0.65528 -0.02500
C 	C 	0.44063 0.07037 0.65067 0.00100
C 	C 	0.41987 0.05411 0.67576 -0.02700
C 	C 	0.40217 0.06914 0.70583 -0.06400
H 	H 	0.42808 0.14122 0.68938 0.05100
H 	H 	0.45927 0.11464 0.63616 0.03700
H 	H 	0.41767 0.02977 0.67226 0.03700
H 	H 	0.38618 0.05630 0.72494 0.05400
N 	N 	0.38963 0.11595 0.74405 -0.08700
N 	N 	0.37820 0.10160 0.77384 -0.09100
C 	C 	0.34242 0.14755 0.87889 -0.09500
C 	C 	0.35594 0.11875 0.88311 0.02600
C 	C 	0.36731 0.10353 0.84815 -0.09500
C 	C 	0.36565 0.11701 0.80874 0.10000
C 	C 	0.35130 0.14545 0.80418 -0.09100
C 	C 	0.33985 0.16070 0.83917 0.02300
H 	H 	0.35751 0.10809 0.91346 0.03200
H 	H 	0.37781 0.08138 0.85173 0.05700
H 	H 	0.34910 0.15571 0.77367 0.06000
H 	H 	0.32921 0.18277 0.83543 0.03100
C 	C 	0.35840 0.11953 0.17196 0.10300
C 	C 	0.33652 0.14195 0.18222 -0.09600
C 	C 	0.32221 0.15882 0.15070 0.03400
C 	C 	0.32953 0.15330 0.10874 -0.11100
C 	C 	0.35066 0.13022 0.09861 0.03500
C 	C 	0.36488 0.11337 0.13010 -0.09800
H 	H 	0.33074 0.14637 0.21449 0.06000
H 	H 	0.30591 0.17652 0.15894 0.01800
H 	H 	0.35623 0.12550 0.06633 0.02900
H 	H 	0.38134 0.09579 0.12200 0.05900
N 	N 	0.37366 0.10272 0.20351 -0.09100
N 	N 	0.38101 0.11491 0.23714 -0.08700
C 	C 	0.43637 0.06805 0.32464 0.00100
C 	C 	0.41728 0.05175 0.29732 -0.02700
C 	C 	0.39844 0.06711 0.26886 -0.06400
C 	C 	0.39894 0.09899 0.26706 0.08200
C 	C 	0.41753 0.11523 0.29495 -0.06800
C 	C 	0.43633 0.09988 0.32347 -0.02500
H 	H 	0.41708 0.02719 0.29811 0.03600
H 	H 	0.38359 0.05428 0.24818 0.05500
H 	H 	0.41783 0.13977 0.29398 0.05000
H 	H 	0.45122 0.11270 0.34412 0.03700
C 	C 	0.39225 0.32169 0.00795 0.01500
C 	C 	0.36705 0.31957 0.97976 -0.00400
C 	C 	0.34828 0.29360 0.98032 -0.00900
C 	C 	0.35368 0.27031 0.00908 -0.11400
C 	C 	0.37978 0.27169 0.03566 0.08200
C 	C 	0.39896 0.29737 0.03458 -0.09000
H 	H 	0.32888 0.29188 0.95898 0.02800
H 	H 	0.41891 0.29867 0.05503 0.05000
C 	C 	0.36004 0.34453 0.94845 -0.09600
C 	C 	0.38845 0.24524 0.06356 -0.12700
C 	C 	0.33000 0.36174 0.95871 -0.01700
H 	H 	0.31033 0.34566 0.96211 0.02100
H 	H 	0.32448 0.37704 0.93220 0.02300
C 	C 	0.40441 0.22002 0.03856 -0.00700
H 	H 	0.42555 0.22918 0.02320 0.02900
H 	H 	0.38858 0.21143 0.01396 0.03600
H 	H 	0.37927 0.36098 0.94481 0.04900
H 	H 	0.36768 0.23612 0.07971 0.06700
C 	C 	0.33270 0.38092 0.99814 -0.17500
C 	C 	0.41371 0.19356 0.06659 -0.16600
H 	H 	0.35250 0.39691 0.99558 0.06000
H 	H 	0.31114 0.39430 0.00241 0.06000
H 	H 	0.33576 0.36616 0.02586 0.06600
H 	H 	0.35726 0.33391 0.91727 0.04500
H 	H 	0.43084 0.20112 0.09021 0.06000
H 	H 	0.42437 0.17538 0.04744 0.06400
H 	H 	0.39308 0.18411 0.08271 0.07300
H 	H 	0.40435 0.25303 0.08865 0.05200
C 	C 	0.26246 0.65150 0.00026 -0.10800
C 	C 	0.29251 0.66434 0.00217 0.08300
C 	C 	0.31851 0.64532 0.99940 -0.10300
C 	C 	0.31499 0.61403 0.99356 0.01600
C 	C 	0.28504 0.60167 0.98775 -0.00100
C 	C 	0.25899 0.62053 0.99173 -0.00700
H 	H 	0.34158 0.65491 0.00193 0.05700
H 	H 	0.23594 0.61088 0.98929 0.03400
C 	C 	0.29731 0.69841 0.00402 -0.11000
C 	C 	0.28042 0.56829 0.97845 -0.09700
C 	C 	0.30331 0.71202 0.96067 -0.02700
H 	H 	0.32252 0.69969 0.94493 0.02800
H 	H 	0.31077 0.73597 0.96455 0.02000
C 	C 	0.27381 0.55039 0.01850 -0.02500
H 	H 	0.25197 0.55870 0.03293 0.03300
H 	H 	0.29290 0.55369 0.04122 0.03400
H 	H 	0.27775 0.71044 0.01915 0.02600
H 	H 	0.30086 0.55862 0.96210 0.04900
C 	C 	0.27456 0.71149 0.93289 -0.15500
C 	C 	0.27058 0.51653 0.00966 -0.13900
H 	H 	0.25476 0.72277 0.94869 0.04700
H 	H 	0.27952 0.72381 0.90345 0.05500
H 	H 	0.26813 0.68782 0.92494 0.06900
H 	H 	0.31781 0.70326 0.02392 0.04300
H 	H 	0.25128 0.51240 0.98750 0.04800
H 	H 	0.26553 0.50431 0.03915 0.05200
H 	H 	0.29246 0.50743 0.99635 0.04800
H 	H 	0.26053 0.56561 0.95672 0.04600
C 	C 	0.73086 0.35278 0.98349 -0.12600
C 	C 	0.72262 0.37432 0.95257 0.08100
C 	C 	0.69561 0.39164 0.95774 -0.09000
C 	C 	0.67691 0.38807 0.99309 0.00600
C 	C 	0.68515 0.36663 0.02400 0.00400
C 	C 	0.71195 0.34899 0.01865 0.00700
H 	H 	0.68894 0.40780 0.93389 0.04900
H 	H 	0.71808 0.33221 0.04194 0.03100
C 	C 	0.74146 0.37816 0.91288 -0.12800
C 	C 	0.66468 0.36111 0.06166 -0.09400
C 	C 	0.75838 0.40882 0.91102 -0.00600
H 	H 	0.74182 0.42772 0.91639 0.02400
H 	H 	0.76812 0.41179 0.87920 0.02400
C 	C 	0.63994 0.33711 0.05212 -0.02400
H 	H 	0.65136 0.31517 0.04470 0.02900
H 	H 	0.62598 0.34411 0.02469 0.03300
H 	H 	0.75825 0.35956 0.90787 0.06100
H 	H 	0.65354 0.38245 0.07225 0.05000
C 	C 	0.78490 0.41107 0.94235 -0.16500
C 	C 	0.61815 0.33250 0.08908 -0.15700
H 	H 	0.80243 0.39320 0.93624 0.07300
H 	H 	0.79634 0.43349 0.93920 0.06000
H 	H 	0.77605 0.40887 0.97471 0.07500
H 	H 	0.72533 0.37697 0.88593 0.04700
H 	H 	0.63136 0.32503 0.11695 0.05600
H 	H 	0.60078 0.31482 0.08132 0.05500
H 	H 	0.60570 0.35392 0.09633 0.05700
H 	H 	0.67911 0.35319 0.08825 0.04600
C 	C 	0.60537 0.67896 0.98048 0.00600
C 	C 	0.63253 0.68255 0.95610 -0.00100
C 	C 	0.65071 0.70867 0.96123 0.00200
C 	C 	0.64264 0.73067 0.99077 -0.13800
C 	C 	0.61442 0.72809 0.01292 0.09500
C 	C 	0.59591 0.70229 0.00725 -0.08700
H 	H 	0.67169 0.71145 0.94299 0.02500
H 	H 	0.57442 0.69997 0.02452 0.05100
C 	C 	0.64221 0.65911 0.92392 -0.09500
C 	C 	0.60298 0.75344 0.04094 -0.13700
C 	C 	0.67177 0.64194 0.93647 -0.02000
H 	H 	0.69089 0.65813 0.94302 0.02200
H 	H 	0.67920 0.62763 0.90977 0.02400
C 	C 	0.58915 0.77947 0.01521 0.01200
H 	H 	0.56984 0.77077 0.99567 0.01900
H 	H 	0.60711 0.78917 0.99423 0.02500
H 	H 	0.62362 0.64257 0.91674 0.04900
H 	H 	0.62203 0.76203 0.06093 0.07000
C 	C 	0.66694 0.62143 0.97427 -0.16600
C 	C 	0.57679 0.80469 0.04324 -0.17300
H 	H 	0.64753 0.60540 0.96865 0.06000
H 	H 	0.68833 0.60808 0.98001 0.05300
H 	H 	0.66207 0.63521 0.00245 0.06500
H 	H 	0.64687 0.67110 0.89408 0.04500
H 	H 	0.55761 0.79605 0.06306 0.06100
H 	H 	0.56783 0.82354 0.02372 0.06600
H 	H 	0.59552 0.81362 0.06351 0.07400
H 	H 	0.58498 0.74466 0.06268 0.05400
