data_crystal

_cell_length_a 36.11161
_cell_length_b 36.08889
_cell_length_c 24.85226
_cell_angle_alpha 90.00303
_cell_angle_beta  89.99989
_cell_angle_gamma 119.99481

_symmetry_space_group_name_	'P 1'
_symmetry_space_group_name_H-M	'P 1'

loop_
_symmetry_equiv_pos_as_xyz
  x,y,z

loop_
_atom_site_label
_atom_site_type_symbol
_atom_site_fract_x
_atom_site_fract_y
_atom_site_fract_z
_atom_site_charge
C 	C 	0.39417 0.49860 0.25756 0.29500
C 	C 	0.23163 0.35859 0.18059 0.30900
C 	C 	0.35226 0.38415 0.27572 0.31700
C 	C 	0.27031 0.46854 0.15266 0.29800
C 	C 	0.33569 0.35572 0.10649 0.31800
C 	C 	0.39724 0.47579 0.07403 0.30000
Ni	Ni	0.30404 0.42792 0.23753 1.11100
Ni	Ni	0.30382 0.41611 0.10731 1.12000
Ni	Ni	0.38429 0.43048 0.17640 1.11900
O 	O 	0.35328 0.48804 0.25865 -0.38000
O 	O 	0.40641 0.47088 0.24201 -0.38000
O 	O 	0.30212 0.36013 0.09943 -0.39700
O 	O 	0.26110 0.36574 0.21601 -0.39100
O 	O 	0.24243 0.38123 0.13585 -0.38600
O 	O 	0.41082 0.47904 0.12423 -0.40000
O 	O 	0.33319 0.40527 0.29120 -0.37700
O 	O 	0.35577 0.37891 0.22461 -0.40300
O 	O 	0.35689 0.44818 0.05939 -0.38400
O 	O 	0.26617 0.45107 0.20150 -0.37400
O 	O 	0.29588 0.46722 0.11544 -0.39200
O 	O 	0.37355 0.38934 0.11543 -0.39900
O 	O 	0.33451 0.43505 0.17344 -0.71600
H 	H 	0.34776 0.46622 0.16858 0.16000
C 	C 	0.51572 0.12074 0.05085 0.30000
C 	C 	0.34564 0.09481 0.01409 0.31500
C 	C 	0.41945 0.04070 0.10614 0.32000
C 	C 	0.44058 0.17007 0.93901 0.29600
C 	C 	0.35520 0.98563 0.95062 0.32000
C 	C 	0.45423 0.05127 0.87786 0.30100
Ni	Ni	0.43230 0.11791 0.04259 1.11000
Ni	Ni	0.39117 0.07572 0.92754 1.11900
Ni	Ni	0.44283 0.04060 0.99451 1.12000
O 	O 	0.49757 0.14363 0.03866 -0.38800
O 	O 	0.49751 0.07890 0.03905 -0.38200
O 	O 	0.34897 0.01811 0.95589 -0.39800
O 	O 	0.36664 0.08366 0.04638 -0.38700
O 	O 	0.35429 0.09768 0.96238 -0.38600
O 	O 	0.47415 0.05639 0.92445 -0.39400
O 	O 	0.43477 0.08220 0.10759 -0.38900
O 	O 	0.40593 0.02016 0.06081 -0.40000
O 	O 	0.41807 0.05295 0.87338 -0.38900
O 	O 	0.43162 0.16454 0.99162 -0.37600
O 	O 	0.43000 0.13730 0.90589 -0.38600
O 	O 	0.39391 0.99098 0.95542 -0.39900
O 	O 	0.43205 0.08633 0.98265 -0.71500
H 	H 	0.45864 0.10679 0.96404 0.16900
C 	C 	0.44497 0.82853 0.55926 0.29600
C 	C 	0.54891 0.91867 0.59713 0.31500
C 	C 	0.51024 0.76752 0.45950 0.29500
C 	C 	0.48750 0.87884 0.38058 0.30100
Ni	Ni	0.53050 0.83398 0.55074 1.11100
Ni	Ni	0.51233 0.90288 0.49123 1.11800
O 	O 	0.46527 0.80642 0.56143 -0.38300
O 	O 	0.46545 0.87051 0.54842 -0.38400
O 	O 	0.47230 0.87565 0.42971 -0.39900
O 	O 	0.53482 0.87831 0.60871 -0.38000
O 	O 	0.51987 0.87170 0.37038 -0.39000
O 	O 	0.52644 0.78118 0.50864 -0.37400
O 	O 	0.51496 0.79444 0.41997 -0.38500
O 	O 	0.52230 0.85617 0.48617 -0.71200
H 	H 	0.49374 0.83301 0.47544 0.16400
C 	C 	0.10575 0.55068 0.91263 0.29600
C 	C 	0.12049 0.70677 0.82017 0.31800
C 	C 	0.05173 0.60861 0.95185 0.31500
C 	C 	0.17074 0.65459 0.76197 0.29700
C 	C 	0.03464 0.52632 0.74520 0.29700
Ni	Ni	0.12674 0.63821 0.87543 1.11200
Ni	Ni	0.07838 0.62323 0.76073 1.12000
Ni	Ni	0.03300 0.55620 0.85513 1.11900
O 	O 	0.13614 0.58730 0.89205 -0.38200
O 	O 	0.06434 0.53929 0.91076 -0.38100
O 	O 	0.02842 0.62969 0.78169 -0.40000
O 	O 	0.10978 0.68437 0.86434 -0.39300
O 	O 	0.11512 0.68763 0.77352 -0.39300
O 	O 	0.03456 0.51809 0.79743 -0.39200
O 	O 	0.09290 0.62210 0.94813 -0.38000
O 	O 	0.02786 0.59543 0.90870 -0.40000
O 	O 	0.04147 0.56418 0.72712 -0.39000
O 	O 	0.17415 0.66461 0.81443 -0.37500
O 	O 	0.13385 0.62636 0.73982 -0.39100
O 	O 	0.08496 0.60092 0.82703 -0.72000
H 	H 	0.09814 0.58429 0.81430 0.16400
H 	H 	0.02900 0.40769 0.55328 0.04800
C 	C 	0.01775 0.42576 0.67544 0.02000
C 	C 	0.03390 0.46146 0.70979 -0.01500
C 	C 	0.01824 0.49005 0.70706 -0.10800
C 	C 	0.03335 0.39421 0.68095 -0.16900
H 	H 	0.05838 0.46677 0.73902 0.03600
H 	H 	0.05204 0.39961 0.71853 0.05700
H 	H 	0.05416 0.39748 0.64629 0.05900
H 	H 	0.00572 0.48821 0.10231 0.04900
C 	C 	0.03658 0.58396 0.09998 0.02000
C 	C 	0.05611 0.60540 0.05201 -0.01300
C 	C 	0.03123 0.60001 0.00598 -0.11700
C 	C 	0.06341 0.59068 0.14938 -0.16900
H 	H 	0.09066 0.62459 0.04989 0.03900
H 	H 	0.01650 0.43555 0.14598 0.06200
H 	H 	0.09396 0.62160 0.14736 0.05700
H 	H 	0.07078 0.56442 0.15309 0.05900
H 	H 	0.04611 0.59131 0.18602 0.06000
C 	C 	0.35336 0.79807 0.65631 -0.09400
C 	C 	0.32447 0.75674 0.63790 0.00200
C 	C 	0.33298 0.74172 0.58961 0.02300
C 	C 	0.37066 0.76810 0.56095 -0.01600
C 	C 	0.40122 0.80810 0.58144 -0.10600
C 	C 	0.39222 0.82360 0.62924 0.09800
C 	C 	0.28501 0.72946 0.66921 0.00200
C 	C 	0.30231 0.69744 0.56886 -0.17100
H 	H 	0.37739 0.75648 0.52408 0.03300
C 	C 	0.42436 0.86646 0.65259 -0.20400
H 	H 	0.34617 0.80984 0.69269 0.04700
C 	C 	0.28609 0.70779 0.71601 0.02200
C 	C 	0.24826 0.68274 0.74525 -0.01700
C 	C 	0.20910 0.67757 0.72722 -0.10600
C 	C 	0.20788 0.69776 0.67867 0.09700
C 	C 	0.24609 0.72453 0.65121 -0.09500
C 	C 	0.32755 0.71188 0.73543 -0.17100
H 	H 	0.24929 0.66726 0.78217 0.03600
C 	C 	0.16630 0.69113 0.65576 -0.20800
H 	H 	0.24548 0.74110 0.61512 0.04900
H 	H 	0.41297 0.87301 0.69103 0.06400
H 	H 	0.43007 0.89245 0.62403 0.08100
H 	H 	0.45493 0.86726 0.66104 0.08500
H 	H 	0.27225 0.69587 0.55538 0.06100
H 	H 	0.29493 0.67333 0.60098 0.06200
H 	H 	0.31591 0.68873 0.53424 0.05700
H 	H 	0.32226 0.68928 0.76881 0.05700
H 	H 	0.34903 0.74491 0.75020 0.06100
H 	H 	0.34353 0.70469 0.70218 0.06200
H 	H 	0.15097 0.70288 0.68430 0.07500
H 	H 	0.14454 0.65680 0.64655 0.07200
H 	H 	0.17135 0.70904 0.61756 0.06400
C 	C 	0.46050 0.91160 0.24698 -0.09400
C 	C 	0.45484 0.94562 0.26362 0.00300
C 	C 	0.45808 0.95635 0.31864 0.02200
C 	C 	0.46940 0.93457 0.35586 -0.01100
C 	C 	0.47540 0.90064 0.33950 -0.10900
C 	C 	0.46975 0.88825 0.28470 0.09700
C 	C 	0.44596 0.97029 0.22311 0.00500
C 	C 	0.44968 0.99117 0.33780 -0.16800
H 	H 	0.47376 0.94418 0.39778 0.02900
C 	C 	0.47379 0.85066 0.26603 -0.20100
H 	H 	0.45761 0.90325 0.20467 0.04800
C 	C 	0.47953 0.00842 0.20108 0.02100
C 	C 	0.46997 0.03316 0.16638 -0.01500
C 	C 	0.42756 0.01943 0.15151 -0.12300
C 	C 	0.39393 0.98179 0.17447 0.10300
C 	C 	0.40346 0.95713 0.20947 -0.09800
H 	H 	0.49571 0.06221 0.14909 0.04100
C 	C 	0.34796 0.96736 0.16102 -0.20700
H 	H 	0.37777 0.92799 0.22675 0.05000
H 	H 	0.45961 0.83974 0.22541 0.06300
H 	H 	0.41721 0.98388 0.32524 0.06200
H 	H 	0.47374 0.02242 0.32053 0.05900
H 	H 	0.45140 0.99419 0.38235 0.05600
H 	H 	0.34025 0.95266 0.12038 0.07800
H 	H 	0.34233 0.99493 0.16185 0.07800
H 	H 	0.32573 0.94340 0.19048 0.06600
C 	C 	0.52345 0.99907 0.66228 -0.09000
C 	C 	0.52505 0.99027 0.71667 0.00300
C 	C 	0.53927 0.96181 0.73202 0.02200
C 	C 	0.54485 0.94694 0.63742 -0.11200
C 	C 	0.53269 0.97753 0.62226 0.09000
C 	C 	0.50681 0.00701 0.75670 0.00100
C 	C 	0.52851 0.98689 0.56400 -0.18400
H 	H 	0.51325 0.02162 0.65100 0.04700
C 	C 	0.53168 0.04832 0.77883 0.02300
C 	C 	0.51300 0.06366 0.81568 -0.01500
C 	C 	0.46997 0.03830 0.83073 -0.10900
C 	C 	0.44459 0.99770 0.80631 0.10000
C 	C 	0.46345 0.98240 0.76984 -0.09300
H 	H 	0.53229 0.09490 0.83390 0.03700
C 	C 	0.39816 0.96950 0.82103 -0.20800
H 	H 	0.44437 0.95105 0.75179 0.04700
H 	H 	0.51733 0.01040 0.56006 0.05700
H 	H 	0.50462 0.95735 0.54312 0.02600
H 	H 	0.38225 0.94073 0.79486 0.06500
H 	H 	0.38042 0.98700 0.81599 0.08200
H 	H 	0.39567 0.95829 0.86307 0.08500
H 	H 	0.49702 0.13412 0.16248 0.07900
C 	C 	0.27820 0.86854 0.92120 -0.09700
C 	C 	0.25525 0.87193 0.87781 0.00500
C 	C 	0.26561 0.91255 0.85782 0.01800
C 	C 	0.29852 0.94931 0.88208 -0.01000
C 	C 	0.32112 0.94609 0.92610 -0.12100
C 	C 	0.31072 0.90537 0.94615 0.10100
C 	C 	0.21888 0.83279 0.85541 0.00300
C 	C 	0.24094 0.91681 0.81155 -0.16900
H 	H 	0.30680 0.98059 0.86651 0.02400
C 	C 	0.33413 0.90091 0.99375 -0.20100
H 	H 	0.27021 0.83716 0.93609 0.05000
C 	C 	0.22524 0.80911 0.81490 0.02200
C 	C 	0.19092 0.76952 0.79895 -0.01300
C 	C 	0.15082 0.75298 0.82382 -0.12200
C 	C 	0.14350 0.77881 0.86001 0.10200
C 	C 	0.17787 0.81822 0.87638 -0.09700
C 	C 	0.26907 0.82446 0.79137 -0.17000
H 	H 	0.19619 0.75027 0.76985 0.04300
C 	C 	0.09959 0.76383 0.88285 -0.20600
H 	H 	0.17293 0.83720 0.90631 0.05100
H 	H 	0.36673 0.90856 0.98134 0.07200
H 	H 	0.31727 0.86785 0.01016 0.06200
H 	H 	0.33647 0.92277 0.02669 0.07500
H 	H 	0.20740 0.90529 0.82406 0.06100
H 	H 	0.24109 0.89771 0.77663 0.05900
H 	H 	0.25505 0.95056 0.79809 0.05500
H 	H 	0.26778 0.80483 0.75618 0.06100
H 	H 	0.29019 0.82243 0.82228 0.06100
H 	H 	0.28330 0.85810 0.77754 0.05900
H 	H 	0.09325 0.74113 0.91642 0.07900
H 	H 	0.07492 0.74788 0.85123 0.07100
H 	H 	0.09667 0.79114 0.89836 0.06400
C 	C 	0.11301 0.31818 0.17934 -0.09700
C 	C 	0.10667 0.32349 0.23385 0.00300
C 	C 	0.13814 0.32950 0.27194 0.02100
C 	C 	0.17787 0.33629 0.25416 -0.01600
C 	C 	0.18644 0.33706 0.19882 -0.11600
C 	C 	0.15230 0.32336 0.16174 0.09900
C 	C 	0.06945 0.32761 0.24996 0.00400
C 	C 	0.13060 0.33175 0.33127 -0.17000
H 	H 	0.20297 0.34364 0.28326 0.03000
C 	C 	0.15748 0.31473 0.10368 -0.20200
H 	H 	0.08792 0.31144 0.15042 0.04800
C 	C 	0.07178 0.36785 0.24876 0.02100
C 	C 	0.03691 0.37145 0.26669 -0.01600
C 	C 	0.03295 0.29192 0.27065 -0.09900
C 	C 	0.11112 0.40686 0.22764 -0.17200
H 	H 	0.03862 0.40227 0.26538 0.03500
H 	H 	0.03175 0.26132 0.27277 0.05000
H 	H 	0.12637 0.29021 0.08645 0.06300
H 	H 	0.17997 0.30231 0.09980 0.07300
H 	H 	0.16950 0.34459 0.07986 0.07300
H 	H 	0.10027 0.30311 0.34377 0.06100
H 	H 	0.12878 0.36098 0.33996 0.06000
H 	H 	0.15671 0.33275 0.35601 0.05600
H 	H 	0.10821 0.43603 0.23012 0.05700
H 	H 	0.11601 0.40183 0.18484 0.06400
H 	H 	0.13966 0.41274 0.25127 0.06500
C 	C 	0.22292 0.52933 0.08743 -0.09300
C 	C 	0.18380 0.49521 0.06958 0.00300
C 	C 	0.17043 0.45324 0.08747 0.02200
C 	C 	0.19710 0.44599 0.12167 -0.02000
C 	C 	0.23802 0.47941 0.13500 -0.10600
C 	C 	0.25020 0.52174 0.12011 0.09500
C 	C 	0.15870 0.50331 0.02887 0.00100
C 	C 	0.12921 0.41585 0.06739 -0.17200
H 	H 	0.18727 0.41376 0.13475 0.04400
C 	C 	0.29331 0.55847 0.13597 -0.20200
H 	H 	0.23282 0.56161 0.07423 0.04900
C 	C 	0.12732 0.51364 0.04451 0.02400
C 	C 	0.10785 0.52626 0.00527 -0.01900
C 	C 	0.11889 0.52811 0.95076 -0.10200
C 	C 	0.14731 0.51397 0.93477 0.09500
C 	C 	0.16767 0.50250 0.97410 -0.09100
C 	C 	0.11686 0.51445 0.10311 -0.17100
H 	H 	0.08566 0.53669 0.01746 0.04300
C 	C 	0.15737 0.51273 0.87613 -0.20200
H 	H 	0.19106 0.49359 0.96218 0.04900
H 	H 	0.29416 0.58958 0.13245 0.06300
H 	H 	0.31837 0.55915 0.10941 0.07200
H 	H 	0.30066 0.55499 0.17845 0.07100
H 	H 	0.13109 0.41241 0.02324 0.06100
H 	H 	0.10194 0.42085 0.07654 0.05900
H 	H 	0.12261 0.38534 0.08658 0.05600
H 	H 	0.08609 0.51403 0.10779 0.05600
H 	H 	0.14260 0.54388 0.12230 0.06000
H 	H 	0.11355 0.48600 0.12462 0.05800
H 	H 	0.18097 0.54544 0.86227 0.07700
H 	H 	0.12790 0.50019 0.85137 0.07200
H 	H 	0.17096 0.49146 0.86942 0.06400
C 	C 	0.45974 0.61338 0.30089 -0.09200
C 	C 	0.46101 0.60820 0.35669 0.00300
C 	C 	0.44705 0.56707 0.37824 0.02300
C 	C 	0.42914 0.53139 0.34389 -0.01400
C 	C 	0.42433 0.53626 0.28878 -0.10300
C 	C 	0.44170 0.57764 0.26665 0.09500
C 	C 	0.47332 0.64542 0.39243 0.00300
C 	C 	0.44819 0.56070 0.43806 -0.17000
H 	H 	0.41645 0.49953 0.36056 0.04100
C 	C 	0.43846 0.58362 0.20712 -0.20500
H 	H 	0.47132 0.64511 0.28438 0.05000
C 	C 	0.51666 0.67376 0.40524 0.02200
C 	C 	0.52802 0.71246 0.43150 -0.01600
C 	C 	0.49674 0.72312 0.44482 -0.10400
C 	C 	0.45316 0.69312 0.43643 0.09500
C 	C 	0.44176 0.65456 0.40978 -0.09200
C 	C 	0.55115 0.66463 0.38707 -0.17100
H 	H 	0.56145 0.73530 0.43906 0.04000
C 	C 	0.41892 0.70305 0.45325 -0.20500
H 	H 	0.40844 0.63227 0.40090 0.05000
H 	H 	0.46022 0.61729 0.19473 0.06500
H 	H 	0.40515 0.57492 0.19679 0.07100
H 	H 	0.44749 0.56308 0.18377 0.07600
H 	H 	0.42369 0.56582 0.45829 0.06100
H 	H 	0.48016 0.58353 0.45464 0.05800
H 	H 	0.44159 0.52789 0.44763 0.05600
H 	H 	0.55680 0.67099 0.34327 0.06100
H 	H 	0.54178 0.63081 0.39515 0.06000
H 	H 	0.38673 0.67393 0.45277 0.06400
H 	H 	0.41871 0.72698 0.42535 0.07300
H 	H 	0.42498 0.71608 0.49484 0.07300
C 	C 	0.29240 0.23612 0.10291 -0.09800
C 	C 	0.32090 0.23343 0.06715 0.00400
C 	C 	0.35419 0.27102 0.04362 0.02200
C 	C 	0.35956 0.31101 0.05826 -0.01300
C 	C 	0.33185 0.31381 0.09548 -0.11600
C 	C 	0.29839 0.27602 0.11874 0.10500
C 	C 	0.31933 0.19200 0.06043 0.00500
C 	C 	0.38377 0.26853 0.00273 -0.17500
H 	H 	0.38483 0.33991 0.03994 0.03700
C 	C 	0.26884 0.27795 0.16020 -0.21100
H 	H 	0.26669 0.20710 0.12044 0.05000
C 	C 	0.34211 0.18007 0.09581 0.02000
C 	C 	0.34592 0.14424 0.08381 -0.01300
C 	C 	0.32778 0.12059 0.03656 -0.11900
C 	C 	0.29897 0.12825 0.00662 0.10100
C 	C 	0.29619 0.16498 0.01758 -0.09900
C 	C 	0.36437 0.20683 0.14469 -0.17000
H 	H 	0.36557 0.13660 0.10926 0.02200
C 	C 	0.27209 0.09829 0.96238 -0.20300
H 	H 	0.27685 0.17303 0.99211 0.05100
H 	H 	0.28717 0.30358 0.19003 0.09400
H 	H 	0.25136 0.24743 0.18287 0.06900
H 	H 	0.24494 0.28400 0.14003 0.08400
H 	H 	0.36492 0.24870 0.96802 0.06400
H 	H 	0.40156 0.25401 0.02115 0.06600
H 	H 	0.40752 0.30064 0.98717 0.06100
H 	H 	0.37882 0.19187 0.16980 0.05500
H 	H 	0.34116 0.21048 0.17021 0.06300
H 	H 	0.39029 0.23892 0.13199 0.06100
H 	H 	0.26386 0.06488 0.97145 0.07500
H 	H 	0.28967 0.10841 0.92365 0.07100
H 	H 	0.24158 0.09849 0.95798 0.06400
C 	C 	0.52337 0.55053 0.90651 0.00600
C 	C 	0.50680 0.53686 0.85418 0.01700
C 	C 	0.53491 0.54425 0.81133 -0.00700
C 	C 	0.49468 0.53480 0.95398 0.00100
C 	C 	0.45918 0.51232 0.84439 -0.16900
H 	H 	0.52221 0.53268 0.77145 0.01800
C 	C 	0.49044 0.49966 0.98415 0.02500
C 	C 	0.45773 0.48032 0.02240 -0.01700
C 	C 	0.42975 0.49592 0.03177 -0.10600
C 	C 	0.43538 0.53248 0.00396 0.09300
C 	C 	0.46808 0.55186 0.96537 -0.09100
C 	C 	0.52269 0.48489 0.97901 -0.17100
H 	H 	0.45430 0.45327 0.04550 0.03500
C 	C 	0.40682 0.55092 0.01542 -0.20400
H 	H 	0.47204 0.57942 0.94303 0.04800
H 	H 	0.44503 0.53252 0.85475 0.06100
H 	H 	0.44404 0.48279 0.86924 0.06200
H 	H 	0.45149 0.50259 0.80159 0.05400
H 	H 	0.51045 0.45257 0.99676 0.05700
H 	H 	0.55253 0.50765 0.00036 0.05900
H 	H 	0.53026 0.48292 0.93632 0.06200
H 	H 	0.41583 0.57998 0.99096 0.06500
H 	H 	0.40923 0.55993 0.05856 0.06900
H 	H 	0.37312 0.52689 0.00591 0.07400
C 	C 	0.46488 0.44439 0.47347 -0.09400
C 	C 	0.46709 0.41246 0.44406 0.00400
C 	C 	0.49983 0.40290 0.45538 0.02300
C 	C 	0.53156 0.42769 0.49338 -0.01600
C 	C 	0.52868 0.45897 0.52361 -0.10500
C 	C 	0.49412 0.46633 0.51474 0.10000
C 	C 	0.43645 0.39127 0.39925 0.00300
C 	C 	0.50131 0.36669 0.42709 -0.17100
C 	C 	0.48582 0.49430 0.55203 -0.20800
H 	H 	0.43973 0.45162 0.46481 0.04900
C 	C 	0.39189 0.36860 0.40898 0.02200
C 	C 	0.36362 0.36342 0.36703 -0.01200
C 	C 	0.37906 0.37684 0.31468 -0.11300
C 	C 	0.42261 0.39062 0.30339 0.09600
C 	C 	0.45135 0.40043 0.34618 -0.09000
C 	C 	0.37454 0.35237 0.46447 -0.17100
H 	H 	0.32989 0.35038 0.37552 0.03500
C 	C 	0.43857 0.39411 0.24646 -0.19100
H 	H 	0.48542 0.41651 0.33829 0.05000
H 	H 	0.46958 0.47609 0.58895 0.06900
H 	H 	0.46520 0.50523 0.53272 0.06200
H 	H 	0.51598 0.52317 0.56331 0.07700
H 	H 	0.51587 0.37733 0.38666 0.05900
H 	H 	0.46867 0.33859 0.42285 0.06100
H 	H 	0.52066 0.35603 0.45016 0.05700
H 	H 	0.34183 0.32410 0.46213 0.05700
H 	H 	0.37312 0.37787 0.48778 0.06000
H 	H 	0.39496 0.34230 0.48615 0.06200
H 	H 	0.44003 0.42210 0.22599 0.03200
H 	H 	0.41747 0.36437 0.22374 0.07000
H 	H 	0.47121 0.39829 0.24560 0.06100
C 	C 	0.49022 0.36099 0.84233 -0.09500
C 	C 	0.49228 0.32583 0.82218 0.00300
C 	C 	0.50769 0.39933 0.81299 0.10000
C 	C 	0.47881 0.28781 0.85676 0.00300
C 	C 	0.50383 0.43627 0.83451 -0.20600
H 	H 	0.47599 0.35884 0.88146 0.04900
C 	C 	0.50911 0.28252 0.88679 0.02400
C 	C 	0.49597 0.24412 0.91487 -0.01800
C 	C 	0.45289 0.21195 0.91502 -0.10600
C 	C 	0.42215 0.21895 0.88890 0.09900
C 	C 	0.43548 0.25658 0.85921 -0.09600
H 	H 	0.51937 0.23901 0.93589 0.03400
C 	C 	0.37523 0.18647 0.89266 -0.20700
H 	H 	0.41218 0.26140 0.83748 0.04900
H 	H 	0.53605 0.46352 0.84396 0.08300
H 	H 	0.48419 0.42743 0.87172 0.06500
H 	H 	0.48792 0.44627 0.80428 0.07900
H 	H 	0.35507 0.19873 0.87529 0.06300
H 	H 	0.36612 0.17878 0.93550 0.08500
H 	H 	0.36832 0.15692 0.87070 0.07300
C 	C 	0.64006 0.85754 0.62586 -0.20000
H 	H 	0.60650 0.84689 0.63737 0.06200
H 	H 	0.65753 0.85699 0.66239 0.06400
O 	O 	0.55806 0.93110 0.54751 -0.39300
H 	H 	0.03329 0.36083 0.48246 0.06400
H 	H 	0.98528 0.54057 0.64964 0.07800
H 	H 	0.50807 0.85995 0.26404 0.07300
H 	H 	0.45667 0.82313 0.29385 0.07500
C 	C 	0.54922 0.94050 0.69227 -0.01500
H 	H 	0.01424 0.69477 0.79837 0.07800
C 	C 	0.50807 0.32745 0.76975 0.02400
C 	C 	0.52917 0.40290 0.76394 -0.10600
H 	H 	0.47353 0.26041 0.74872 0.06400
C 	C 	0.99223 0.55453 0.10050 0.00400
H 	H 	0.50884 0.93268 0.80701 0.06100
C 	C 	0.99882 0.29594 0.29084 0.10300
C 	C 	0.99957 0.33538 0.28526 -0.11600
C 	C 	0.54165 0.95232 0.79061 -0.17000
H 	H 	0.55919 0.91787 0.70406 0.03700
C 	C 	0.50624 0.28845 0.74487 -0.17100
C 	C 	0.52715 0.36629 0.74139 -0.01600
C 	C 	0.52556 0.02243 0.21379 -0.17300
H 	H 	0.55882 0.98253 0.81391 0.06100
H 	H 	0.55908 0.93450 0.79631 0.05700
H 	H 	0.56004 0.00101 0.54363 0.06900
H 	H 	0.58043 0.08382 0.71978 0.06100
C 	C 	0.98612 0.57931 0.01169 0.09700
H 	H 	0.99270 0.41445 0.20975 0.08400
C 	C 	0.57800 0.07603 0.76331 -0.17100
C 	C 	0.52176 0.16732 0.15248 -0.20600
H 	H 	0.50862 0.18217 0.12510 0.06400
H 	H 	0.55792 0.34822 0.90005 0.06300
H 	H 	0.94847 0.55987 0.93903 0.07200
H 	H 	0.59360 0.10657 0.78618 0.05800
H 	H 	0.59584 0.05899 0.77171 0.06000
H 	H 	0.98645 0.32384 0.44622 0.08000
C 	C 	0.98602 0.42184 0.16888 -0.20400
H 	H 	0.53175 0.02952 0.25738 0.06200
H 	H 	0.53030 0.18572 0.19073 0.06400
H 	H 	0.58163 0.68502 0.40874 0.05500
H 	H 	0.65601 0.89117 0.61144 0.08300
C 	C 	0.56116 0.44517 0.74278 0.29400
C 	C 	0.72510 0.58906 0.67892 0.31200
C 	C 	0.60572 0.55877 0.77867 0.31800
C 	C 	0.68474 0.48187 0.63557 0.29600
C 	C 	0.62146 0.59989 0.61017 0.31800
C 	C 	0.55978 0.48143 0.56715 0.29700
Ni	Ni	0.65182 0.51649 0.72910 1.11100
Ni	Ni	0.65301 0.53928 0.60211 1.11900
Ni	Ni	0.57281 0.52054 0.67439 1.11800
O 	O 	0.60195 0.45530 0.74426 -0.37900
O 	O 	0.54979 0.47470 0.73401 -0.38500
O 	O 	0.65547 0.59579 0.60689 -0.39500
O 	O 	0.69510 0.57989 0.71422 -0.38700
O 	O 	0.71447 0.57079 0.63119 -0.38400
O 	O 	0.54485 0.47627 0.61696 -0.39700
O 	O 	0.62320 0.53514 0.78843 -0.38200
O 	O 	0.60148 0.56780 0.72906 -0.39500
O 	O 	0.59949 0.51205 0.55402 -0.38500
O 	O 	0.68911 0.49578 0.68646 -0.37400
O 	O 	0.66047 0.48748 0.60010 -0.39000
O 	O 	0.58347 0.56651 0.61977 -0.40100
O 	O 	0.62176 0.51477 0.66661 -0.71700
H 	H 	0.60813 0.48417 0.65733 0.16200
C 	C 	0.61345 0.85410 0.50686 0.31500
C 	C 	0.59205 0.95067 0.42637 0.31900
Ni	Ni	0.55484 0.85831 0.42458 1.11900
O 	O 	0.59967 0.91939 0.43527 -0.39600
O 	O 	0.59584 0.86813 0.54084 -0.38500
O 	O 	0.59715 0.84285 0.45818 -0.38100
O 	O 	0.55470 0.94669 0.43862 -0.39500
C 	C 	0.99164 0.59734 0.79680 0.31700
O 	O 	0.98865 0.56071 0.81044 -0.40000
C 	C 	0.85297 0.38816 0.41820 0.29600
C 	C 	0.83346 0.23009 0.32249 0.31200
C 	C 	0.90757 0.32786 0.45282 0.31600
C 	C 	0.78090 0.28307 0.27266 0.29900
C 	C 	0.96071 0.33843 0.29458 0.31500
C 	C 	0.91993 0.41164 0.24842 0.29700
Ni	Ni	0.82972 0.29950 0.38212 1.11200
Ni	Ni	0.87298 0.31410 0.26388 1.12000
Ni	Ni	0.92290 0.38080 0.35727 1.11800
O 	O 	0.82123 0.35037 0.40260 -0.37900
O 	O 	0.89383 0.39779 0.41603 -0.38200
O 	O 	0.92357 0.30690 0.27875 -0.39900
O 	O 	0.84364 0.25123 0.36793 -0.39000
O 	O 	0.83578 0.24990 0.27719 -0.39400
O 	O 	0.91953 0.41890 0.30089 -0.39400
O 	O 	0.86651 0.31506 0.45218 -0.38100
O 	O 	0.92971 0.34112 0.40834 -0.40100
O 	O 	0.90840 0.37281 0.22857 -0.38800
O 	O 	0.77947 0.27503 0.32539 -0.38000
O 	O 	0.81683 0.31120 0.24829 -0.39000
O 	O 	0.96470 0.37537 0.30876 -0.40300
O 	O 	0.86972 0.33647 0.33175 -0.72100
H 	H 	0.85633 0.35339 0.32106 0.16300
C 	C 	0.99490 0.38524 0.55355 -0.09400
C 	C 	0.97016 0.38356 0.59795 0.00200
C 	C 	0.92656 0.35164 0.59992 0.02200
C 	C 	0.90650 0.32858 0.55311 -0.01300
C 	C 	0.93008 0.33596 0.50538 -0.11500
C 	C 	0.97534 0.35936 0.50843 0.09800
C 	C 	0.98730 0.42009 0.63582 0.00600
C 	C 	0.90050 0.34495 0.65007 -0.17000
H 	H 	0.87220 0.30709 0.55296 0.04000
C 	C 	0.00282 0.35604 0.46518 -0.20300
C 	C 	0.98567 0.48259 0.66945 0.10100
C 	C 	0.97233 0.44909 0.63238 -0.09600
C 	C 	0.96423 0.50932 0.66932 -0.20500
H 	H 	0.94897 0.44460 0.60183 0.05200
H 	H 	0.01055 0.38097 0.43410 0.07100
H 	H 	0.88868 0.36804 0.65079 0.05900
H 	H 	0.92000 0.34944 0.68664 0.06100
H 	H 	0.87259 0.31196 0.65141 0.05700
H 	H 	0.00583 0.36101 0.68230 0.06000
H 	H 	0.95690 0.51448 0.71101 0.08300
H 	H 	0.93339 0.49317 0.64711 0.06300
C 	C 	0.98467 0.48647 0.13457 -0.09400
C 	C 	0.97404 0.51868 0.13955 0.00300
C 	C 	0.94638 0.51644 0.18124 0.02200
C 	C 	0.92841 0.48090 0.21603 -0.01700
C 	C 	0.93943 0.44880 0.21135 -0.10600
C 	C 	0.96951 0.45282 0.17169 0.09800
C 	C 	0.93536 0.55132 0.18822 -0.17000
H 	H 	0.90587 0.47823 0.24674 0.03600
C 	C 	0.96693 0.55425 0.05756 -0.09500
C 	C 	0.95852 0.58484 0.97061 -0.20000
H 	H 	0.93249 0.53375 0.05919 0.04900
H 	H 	0.96222 0.39194 0.14851 0.07700
H 	H 	0.91412 0.54981 0.15497 0.05900
H 	H 	0.96488 0.58319 0.18810 0.06000
H 	H 	0.91864 0.54805 0.22697 0.05700
H 	H 	0.97586 0.61711 0.95196 0.07800
H 	H 	0.92932 0.58176 0.98982 0.06300
C 	C 	0.74393 0.11910 0.29703 -0.09900
C 	C 	0.74024 0.10171 0.34846 0.00200
C 	C 	0.77549 0.12081 0.38395 0.02300
C 	C 	0.80957 0.16191 0.37237 -0.01800
C 	C 	0.80996 0.18246 0.32411 -0.11800
C 	C 	0.78034 0.15790 0.28320 0.09900
C 	C 	0.69935 0.06384 0.36480 0.00500
C 	C 	0.77662 0.09813 0.43434 -0.17200
H 	H 	0.83462 0.17864 0.40192 0.04000
C 	C 	0.78758 0.17194 0.22518 -0.20300
H 	H 	0.71847 0.10260 0.26791 0.04900
C 	C 	0.67196 0.06729 0.40275 0.02100
C 	C 	0.63599 0.02998 0.42171 -0.01200
C 	C 	0.62514 0.98997 0.39993 -0.11300
C 	C 	0.64894 0.98766 0.35608 0.10400
C 	C 	0.68706 0.02423 0.34083 -0.09800
C 	C 	0.68139 0.11020 0.42446 -0.17000
H 	H 	0.61695 0.03205 0.45408 0.03500
C 	C 	0.63404 0.94646 0.32555 -0.20600
H 	H 	0.70703 0.02194 0.30992 0.05000
H 	H 	0.77515 0.19402 0.21743 0.07900
H 	H 	0.77070 0.14400 0.19785 0.06300
H 	H 	0.82211 0.18778 0.21494 0.07600
H 	H 	0.76197 0.06321 0.42717 0.06600
H 	H 	0.75916 0.10364 0.46719 0.06100
H 	H 	0.81008 0.11010 0.44766 0.05900
H 	H 	0.65130 0.10946 0.43603 0.05600
H 	H 	0.69741 0.13584 0.39399 0.05900
H 	H 	0.70204 0.11840 0.46059 0.05800
H 	H 	0.59870 0.92886 0.32114 0.06800
H 	H 	0.64426 0.92607 0.34697 0.06700
H 	H 	0.64780 0.95278 0.28434 0.06400
H 	H 	0.54803 0.05171 0.19111 0.06100
H 	H 	0.53255 0.99672 0.20279 0.06400
C 	C 	0.60013 0.19224 0.15139 -0.09600
C 	C 	0.63490 0.18807 0.13513 0.00400
C 	C 	0.62998 0.15956 0.09317 0.02000
C 	C 	0.59040 0.13682 0.06662 -0.01600
C 	C 	0.55559 0.14132 0.08270 -0.10900
C 	C 	0.56001 0.16763 0.12749 0.09900
C 	C 	0.67503 0.21069 0.16618 0.00100
C 	C 	0.66644 0.15272 0.07737 -0.17000
H 	H 	0.58682 0.11601 0.03315 0.03600
H 	H 	0.60397 0.21350 0.18446 0.05000
C 	C 	0.70527 0.25368 0.15453 0.02300
C 	C 	0.73817 0.27760 0.19137 -0.01900
C 	C 	0.74148 0.25919 0.23969 -0.10700
C 	C 	0.70982 0.21633 0.25212 0.09600
C 	C 	0.67852 0.19199 0.21377 -0.09500
C 	C 	0.70129 0.27485 0.10425 -0.17200
H 	H 	0.76133 0.31066 0.18237 0.04100
C 	C 	0.70650 0.19753 0.30736 -0.20300
H 	H 	0.65475 0.15909 0.22270 0.04900
H 	H 	0.67469 0.13835 0.11155 0.05900
H 	H 	0.69492 0.18370 0.06642 0.05900
H 	H 	0.65811 0.13093 0.04225 0.05600
H 	H 	0.73072 0.30599 0.09666 0.05800
H 	H 	0.67398 0.28063 0.10846 0.06200
H 	H 	0.69595 0.25420 0.06863 0.06100
H 	H 	0.70066 0.21650 0.33789 0.07500
H 	H 	0.73594 0.19677 0.31739 0.08000
H 	H 	0.67957 0.16405 0.30990 0.06400
C 	C 	0.96233 0.25836 0.31901 -0.20600
H 	H 	0.93560 0.24052 0.29034 0.08200
H 	H 	0.95087 0.26919 0.35384 0.08300
H 	H 	0.97253 0.23608 0.33489 0.06500
C 	C 	0.79708 0.44647 0.46583 -0.09300
C 	C 	0.79949 0.44285 0.52176 0.00300
C 	C 	0.82612 0.42821 0.54331 0.02200
C 	C 	0.84720 0.41419 0.50833 -0.01600
C 	C 	0.84189 0.41454 0.45241 -0.10400
C 	C 	0.81875 0.43311 0.43096 0.09600
C 	C 	0.77191 0.45193 0.55720 0.00200
C 	C 	0.82988 0.42479 0.60334 -0.17000
H 	H 	0.86565 0.40059 0.52471 0.04100
C 	C 	0.81506 0.43651 0.37095 -0.20400
H 	H 	0.77746 0.45870 0.44944 0.05000
C 	C 	0.78603 0.49375 0.57635 0.02200
C 	C 	0.75801 0.50203 0.60637 -0.02000
C 	C 	0.71554 0.46982 0.61494 -0.10400
C 	C 	0.70183 0.42769 0.59751 0.09500
C 	C 	0.73021 0.41904 0.56875 -0.09200
C 	C 	0.83001 0.53000 0.56241 -0.17200
H 	H 	0.76868 0.53407 0.62095 0.04300
C 	C 	0.65665 0.39230 0.60764 -0.20300
H 	H 	0.71953 0.38694 0.55416 0.05000
H 	H 	0.80504 0.46020 0.36082 0.06500
H 	H 	0.79103 0.40488 0.35449 0.07600
H 	H 	0.84638 0.44713 0.35116 0.07200
H 	H 	0.79927 0.39860 0.61953 0.06100
H 	H 	0.83746 0.45527 0.62338 0.05800
H 	H 	0.85577 0.41788 0.61369 0.05500
H 	H 	0.83668 0.56043 0.58193 0.05600
H 	H 	0.83269 0.53515 0.51821 0.06100
H 	H 	0.85479 0.52248 0.57604 0.05900
H 	H 	0.63435 0.39648 0.58093 0.07400
H 	H 	0.64765 0.39284 0.65026 0.07100
H 	H 	0.65298 0.36033 0.59973 0.06400
C 	C 	0.84215 0.62172 0.68086 -0.09700
C 	C 	0.84617 0.61217 0.73452 0.00400
C 	C 	0.81383 0.60467 0.77196 0.02100
C 	C 	0.77578 0.60186 0.75393 -0.01600
C 	C 	0.76944 0.60597 0.69887 -0.11600
C 	C 	0.80451 0.62030 0.66314 0.10100
C 	C 	0.88325 0.60793 0.75077 0.00400
C 	C 	0.81895 0.59764 0.83072 -0.17000
H 	H 	0.75017 0.59406 0.78239 0.02900
C 	C 	0.80227 0.63415 0.60658 -0.20400
H 	H 	0.86798 0.62951 0.65272 0.04800
C 	C 	0.88173 0.56814 0.74680 0.02000
C 	C 	0.91607 0.56414 0.76613 -0.01400
C 	C 	0.95230 0.59957 0.78807 -0.11800
C 	C 	0.95211 0.63834 0.79596 0.10200
C 	C 	0.91850 0.64276 0.77491 -0.09800
C 	C 	0.84341 0.52986 0.72249 -0.17100
H 	H 	0.91492 0.53366 0.76313 0.03500
C 	C 	0.98757 0.67513 0.82636 -0.20500
H 	H 	0.91908 0.67297 0.77896 0.05000
H 	H 	0.78920 0.60614 0.57915 0.07400
H 	H 	0.83459 0.65826 0.59204 0.06400
H 	H 	0.78193 0.64918 0.60477 0.07600
H 	H 	0.84834 0.62545 0.84699 0.06100
H 	H 	0.82117 0.56823 0.83564 0.06000
H 	H 	0.79149 0.59389 0.85510 0.05500
H 	H 	0.84811 0.50176 0.71966 0.05600
H 	H 	0.83770 0.53760 0.68125 0.06400
H 	H 	0.81465 0.52075 0.74752 0.06300
H 	H 	0.99942 0.66347 0.85989 0.08100
H 	H 	0.97624 0.69588 0.84436 0.06300
C 	C 	0.56783 0.57429 0.91422 -0.09800
C 	C 	0.57895 0.56270 0.82055 -0.12200
C 	C 	0.59586 0.58007 0.87164 0.10300
C 	C 	0.64338 0.60299 0.88161 -0.20600
H 	H 	0.58050 0.58594 0.95409 0.05000
H 	H 	0.65194 0.62312 0.91839 0.06500
H 	H 	0.66087 0.62441 0.84733 0.07500
H 	H 	0.65408 0.57923 0.88684 0.07300
H 	H 	0.55761 0.42156 0.50077 0.03300
H 	H 	0.54236 0.36861 0.70291 0.03400
C 	C 	0.55540 0.31735 0.88831 -0.17200
H 	H 	0.52931 0.28134 0.76531 0.06200
H 	H 	0.51426 0.29326 0.70133 0.05800
H 	H 	0.57397 0.31017 0.91798 0.05900
H 	H 	0.57015 0.32083 0.84809 0.06200
C 	C 	0.60869 0.69015 0.55137 -0.09500
C 	C 	0.64416 0.72583 0.57395 0.00400
C 	C 	0.67096 0.71995 0.61006 0.02200
C 	C 	0.66068 0.67833 0.62479 -0.01200
C 	C 	0.62623 0.64252 0.60051 -0.11200
C 	C 	0.60064 0.64862 0.56226 0.10000
C 	C 	0.65217 0.76920 0.56045 0.00400
C 	C 	0.71035 0.75777 0.63319 -0.17100
H 	H 	0.68043 0.67376 0.65388 0.04400
C 	C 	0.56442 0.61136 0.53359 -0.20500
H 	H 	0.58785 0.69482 0.52421 0.05300
C 	C 	0.66325 0.78530 0.50750 0.02200
C 	C 	0.65662 0.81877 0.49108 -0.01100
C 	C 	0.64063 0.83705 0.52766 -0.11300
C 	C 	0.64095 0.82830 0.58322 0.09400
C 	C 	0.64331 0.79221 0.59873 -0.09400
C 	C 	0.67941 0.76521 0.46765 -0.17000
H 	H 	0.66085 0.82833 0.44916 0.03800
H 	H 	0.63754 0.78166 0.64028 0.04900
H 	H 	0.55423 0.62209 0.49748 0.06300
H 	H 	0.53663 0.59538 0.56115 0.07300
H 	H 	0.57421 0.58834 0.51942 0.07900
H 	H 	0.70100 0.77315 0.66493 0.06000
H 	H 	0.72849 0.78151 0.60120 0.06100
H 	H 	0.73223 0.74793 0.65134 0.06000
H 	H 	0.69744 0.78782 0.43457 0.05700
H 	H 	0.65205 0.73618 0.45003 0.05900
H 	H 	0.70139 0.75629 0.48755 0.06100
