data_crystal

_cell_length_a 33.55712
_cell_length_b 32.68671
_cell_length_c 33.83131
_cell_angle_alpha 89.99820
_cell_angle_beta  69.21349
_cell_angle_gamma 118.38095

_symmetry_space_group_name_	'P 1'
_symmetry_space_group_name_H-M	'P 1'

loop_
_symmetry_equiv_pos_as_xyz
  x,y,z

loop_
_atom_site_label
_atom_site_type_symbol
_atom_site_fract_x
_atom_site_fract_y
_atom_site_fract_z
_atom_site_charge
C 	C 	0.01031 0.27670 0.53590 0.04400
C 	C 	0.00926 0.27916 0.45392 -0.02000
H 	H 	0.00882 0.27878 0.42208 0.06200
H 	H 	0.00529 0.33547 0.56384 0.06200
C 	C 	0.01031 0.27670 0.03590 0.04600
C 	C 	0.00926 0.27916 0.95392 -0.02100
H 	H 	0.00882 0.27878 0.92208 0.06200
H 	H 	0.00529 0.33547 0.06384 0.06200
C 	C 	0.01031 0.77670 0.53590 0.04400
C 	C 	0.00926 0.77916 0.45392 -0.02000
H 	H 	0.00882 0.77878 0.42208 0.06200
H 	H 	0.00529 0.83547 0.56384 0.06200
C 	C 	0.01031 0.77670 0.03590 0.04600
C 	C 	0.00926 0.77916 0.95392 -0.02200
H 	H 	0.00882 0.77878 0.92208 0.06200
H 	H 	0.00529 0.83547 0.06384 0.06200
H 	H 	0.03027 0.30637 0.58816 0.06700
C 	C 	0.02632 0.31658 0.55902 -0.08300
C 	C 	0.03661 0.26395 0.20081 0.02700
H 	H 	0.03027 0.30637 0.08816 0.06600
C 	C 	0.02632 0.31658 0.05902 -0.08500
C 	C 	0.03661 0.26395 0.70081 0.02600
H 	H 	0.03027 0.80637 0.58816 0.06600
C 	C 	0.02632 0.81658 0.55902 -0.08300
C 	C 	0.03661 0.76395 0.20081 0.02600
H 	H 	0.03027 0.80637 0.08816 0.06600
C 	C 	0.02632 0.81658 0.05902 -0.08500
C 	C 	0.03661 0.76395 0.70081 0.02600
Zn	Zn	0.21131 0.40117 0.36605 1.20500
Zn	Zn	0.15079 0.32978 0.31938 1.21700
Zn	Zn	0.18917 0.31478 0.42524 1.21600
P 	P 	0.23567 0.33235 0.33052 0.30400
P 	P 	0.11122 0.32428 0.41292 0.30600
C 	C 	0.20266 0.24346 0.45653 0.28300
C 	C 	0.24435 0.41592 0.43347 0.30500
C 	C 	0.19913 0.43509 0.29720 0.31100
O 	O 	0.25096 0.38578 0.31738 -0.43600
O 	O 	0.14946 0.37462 0.41712 -0.44200
O 	O 	0.18000 0.29725 0.33585 -0.43200
O 	O 	0.12983 0.28765 0.41392 -0.43100
O 	O 	0.24479 0.32653 0.37303 -0.41600
O 	O 	0.10150 0.32982 0.37070 -0.41500
O 	O 	0.19065 0.27596 0.46764 -0.41700
O 	O 	0.04995 0.24499 0.33668 -0.24800
O 	O 	0.20605 0.23209 0.41870 -0.24500
O 	O 	0.20552 0.37291 0.45282 -0.43500
O 	O 	0.19781 0.39666 0.28361 -0.43900
O 	O 	0.25869 0.43160 0.39224 -0.44200
O 	O 	0.19928 0.44134 0.33551 -0.44300
C 	C 	0.07032 0.26832 0.29671 0.28200
O 	O 	0.11623 0.30435 0.28125 -0.41500
Zn	Zn	0.30849 0.19930 0.12718 1.20500
Zn	Zn	0.37268 0.18934 0.17114 1.21700
Zn	Zn	0.33064 0.13507 0.06742 1.21700
P 	P 	0.28689 0.10775 0.16213 0.30600
P 	P 	0.40877 0.22197 0.07792 0.30900
C 	C 	0.31560 0.04978 0.03734 0.28400
C 	C 	0.27193 0.17916 0.06193 0.30600
C 	C 	0.32353 0.24668 0.19465 0.31200
O 	O 	0.27100 0.14570 0.17620 -0.43400
O 	O 	0.36908 0.23350 0.07500 -0.44200
O 	O 	0.34316 0.12787 0.15532 -0.43400
O 	O 	0.39130 0.16739 0.07671 -0.43300
O 	O 	0.27652 0.09274 0.12021 -0.41700
O 	O 	0.41968 0.23755 0.11953 -0.41600
O 	O 	0.32789 0.09400 0.02577 -0.41600
O 	O 	0.48065 0.22056 0.14907 -0.24800
O 	O 	0.31350 0.03569 0.07475 -0.24800
O 	O 	0.31149 0.17551 0.04136 -0.43300
O 	O 	0.32583 0.21007 0.20801 -0.43700
O 	O 	0.25921 0.18207 0.10289 -0.44100
O 	O 	0.32137 0.25166 0.15707 -0.44600
C 	C 	0.45742 0.21501 0.19088 0.28000
O 	O 	0.40929 0.19842 0.20774 -0.41200
C 	C 	0.05396 0.29886 0.50026 0.01400
C 	C 	0.96501 0.25622 0.53165 -0.04400
C 	C 	0.96460 0.25648 0.49039 -0.00900
H 	H 	0.92990 0.23877 0.48658 0.04000
C 	C 	0.05426 0.30162 0.45885 -0.03600
C 	C 	0.07620 0.34178 0.51835 -0.07800
H 	H 	0.08273 0.37464 0.50079 0.06400
H 	H 	0.10794 0.34546 0.52473 0.05500
C 	C 	0.06333 0.27688 0.22593 0.04100
C 	C 	0.04072 0.25581 0.27009 -0.08400
C 	C 	0.98914 0.22402 0.28903 -0.00100
H 	H 	0.97038 0.20884 0.32332 0.04800
C 	C 	0.96175 0.21100 0.26336 -0.01100
H 	H 	0.92235 0.18571 0.27812 0.04800
C 	C 	0.98572 0.22952 0.21859 -0.06900
C 	C 	0.07452 0.25808 0.16553 -0.08000
H 	H 	0.13972 0.30799 0.17968 0.05000
H 	H 	0.09242 0.28469 0.13519 0.05100
H 	H 	0.10892 0.24382 0.20563 0.05600
H 	H 	0.06169 0.22067 0.16157 0.05900
C 	C 	0.10492 0.27297 0.19402 -0.08500
C 	C 	0.23948 0.51132 0.19233 0.03100
C 	C 	0.22120 0.47231 0.22272 0.05200
C 	C 	0.21245 0.47557 0.26604 -0.09700
C 	C 	0.22243 0.51960 0.27800 0.00900
H 	H 	0.21635 0.52313 0.31115 0.04500
C 	C 	0.24162 0.55953 0.24675 -0.03200
H 	H 	0.25110 0.59370 0.25579 0.04700
C 	C 	0.25010 0.55551 0.20368 -0.03600
C 	C 	0.20157 0.48571 0.17427 -0.07700
H 	H 	0.18610 0.41254 0.19447 0.05400
H 	H 	0.21804 0.48186 0.14066 0.06400
H 	H 	0.14307 0.42947 0.23334 0.05600
H 	H 	0.17521 0.49873 0.17984 0.06000
C 	C 	0.18092 0.44119 0.20878 -0.08900
C 	C 	0.25903 0.46874 0.52985 0.03100
C 	C 	0.24194 0.43697 0.50516 0.04400
C 	C 	0.26447 0.44984 0.45980 -0.08900
C 	C 	0.30357 0.49675 0.43995 -0.00300
H 	H 	0.32083 0.50794 0.40510 0.04700
C 	C 	0.32075 0.52932 0.46524 -0.00800
H 	H 	0.35097 0.56525 0.44968 0.04700
C 	C 	0.29943 0.51508 0.51043 -0.07700
C 	C 	0.25973 0.43403 0.55795 -0.08100
H 	H 	0.20181 0.36799 0.54798 0.05000
H 	H 	0.23219 0.42420 0.59180 0.04900
H 	H 	0.26743 0.38763 0.51067 0.05200
H 	H 	0.29758 0.44349 0.55427 0.05900
C 	C 	0.24025 0.39792 0.52987 -0.08600
C 	C 	0.22268 0.21404 0.55298 0.04500
C 	C 	0.20645 0.22967 0.52781 0.03600
C 	C 	0.21478 0.22156 0.48553 -0.07500
C 	C 	0.23554 0.19284 0.47100 -0.01000
H 	H 	0.24044 0.18431 0.43931 0.05000
C 	C 	0.25237 0.17705 0.49675 -0.00100
H 	H 	0.26984 0.15637 0.48473 0.04400
C 	C 	0.24834 0.18977 0.53709 -0.08800
C 	C 	0.24495 0.26033 0.56666 -0.08800
H 	H 	0.25782 0.30664 0.50957 0.05400
H 	H 	0.28604 0.27907 0.55429 0.05500
H 	H 	0.19705 0.28561 0.55679 0.05100
H 	H 	0.22537 0.25759 0.60169 0.05200
C 	C 	0.22671 0.27821 0.53786 -0.07900
C 	C 	0.27332 0.32257 0.24696 0.00200
C 	C 	0.29163 0.30157 0.21650 0.05900
C 	C 	0.31091 0.27459 0.22561 -0.10100
C 	C 	0.31188 0.26995 0.26650 0.01300
H 	H 	0.32632 0.24914 0.27438 0.04300
C 	C 	0.29308 0.29150 0.29769 -0.02900
H 	H 	0.29241 0.28646 0.32959 0.06400
C 	C 	0.27357 0.31797 0.28798 -0.02800
C 	C 	0.30103 0.36944 0.21676 -0.07300
H 	H 	0.36264 0.36093 0.17122 0.05900
H 	H 	0.33003 0.39814 0.22522 0.06100
H 	H 	0.30882 0.34157 0.15558 0.05500
H 	H 	0.27598 0.37882 0.20993 0.05300
C 	C 	0.32203 0.34552 0.18196 -0.09100
Zn	Zn	0.21131 0.40117 0.86605 1.20500
Zn	Zn	0.15079 0.32978 0.81938 1.21700
Zn	Zn	0.18917 0.31478 0.92525 1.21700
P 	P 	0.23567 0.33235 0.83052 0.30400
P 	P 	0.11122 0.32428 0.91292 0.30600
C 	C 	0.20266 0.24346 0.95654 0.28200
C 	C 	0.24435 0.41592 0.93347 0.30400
C 	C 	0.19913 0.43509 0.79720 0.31100
O 	O 	0.25096 0.38578 0.81738 -0.43600
O 	O 	0.14946 0.37462 0.91712 -0.44100
O 	O 	0.18000 0.29725 0.83585 -0.43100
O 	O 	0.12983 0.28765 0.91392 -0.43100
O 	O 	0.24479 0.32653 0.87303 -0.41600
O 	O 	0.10150 0.32982 0.87070 -0.41500
O 	O 	0.19065 0.27596 0.96764 -0.41600
O 	O 	0.04995 0.24499 0.83668 -0.24800
O 	O 	0.20605 0.23209 0.91870 -0.24500
O 	O 	0.20552 0.37291 0.95282 -0.43400
O 	O 	0.19781 0.39666 0.78361 -0.43900
O 	O 	0.25869 0.43160 0.89224 -0.44200
O 	O 	0.19928 0.44134 0.83551 -0.44300
C 	C 	0.07032 0.26832 0.79671 0.28200
O 	O 	0.11623 0.30435 0.78125 -0.41500
Zn	Zn	0.30849 0.19930 0.62718 1.20500
Zn	Zn	0.37268 0.18934 0.67114 1.21700
Zn	Zn	0.33064 0.13507 0.56742 1.21700
P 	P 	0.28689 0.10775 0.66213 0.30600
P 	P 	0.40877 0.22197 0.57792 0.30900
C 	C 	0.31560 0.04978 0.53734 0.28300
C 	C 	0.27193 0.17916 0.56194 0.30500
C 	C 	0.32353 0.24668 0.69465 0.31200
O 	O 	0.27100 0.14570 0.67620 -0.43400
O 	O 	0.36908 0.23350 0.57500 -0.44200
O 	O 	0.34316 0.12787 0.65532 -0.43400
O 	O 	0.39130 0.16739 0.57671 -0.43300
O 	O 	0.27652 0.09274 0.62021 -0.41700
O 	O 	0.41968 0.23755 0.61953 -0.41600
O 	O 	0.32789 0.09400 0.52577 -0.41500
O 	O 	0.48065 0.22056 0.64907 -0.24800
O 	O 	0.31350 0.03569 0.57475 -0.24800
O 	O 	0.31149 0.17551 0.54136 -0.43200
O 	O 	0.32583 0.21007 0.70801 -0.43700
O 	O 	0.25921 0.18207 0.60289 -0.44000
O 	O 	0.32137 0.25166 0.65707 -0.44500
C 	C 	0.45742 0.21501 0.69088 0.28000
O 	O 	0.40929 0.19842 0.70774 -0.41200
C 	C 	0.05396 0.29886 0.00026 0.01000
C 	C 	0.96501 0.25622 0.03165 -0.04700
C 	C 	0.96460 0.25648 0.99039 -0.00500
H 	H 	0.92990 0.23877 0.98658 0.04000
C 	C 	0.05426 0.30162 0.95885 -0.03200
C 	C 	0.07620 0.34178 0.01835 -0.07700
H 	H 	0.08273 0.37464 0.00079 0.06200
H 	H 	0.10794 0.34546 0.02473 0.05400
C 	C 	0.06333 0.27688 0.72593 0.04100
C 	C 	0.04072 0.25581 0.77009 -0.08400
C 	C 	0.98914 0.22402 0.78903 -0.00100
H 	H 	0.97038 0.20884 0.82332 0.04800
C 	C 	0.96175 0.21100 0.76336 -0.01100
H 	H 	0.92235 0.18571 0.77812 0.04700
C 	C 	0.98572 0.22952 0.71859 -0.07000
C 	C 	0.07452 0.25808 0.66553 -0.08000
H 	H 	0.13972 0.30799 0.67968 0.05000
H 	H 	0.09242 0.28469 0.63519 0.05100
H 	H 	0.10892 0.24382 0.70563 0.05600
H 	H 	0.06169 0.22067 0.66157 0.06000
C 	C 	0.10493 0.27297 0.69402 -0.08500
C 	C 	0.23948 0.51132 0.69233 0.03100
C 	C 	0.22120 0.47231 0.72272 0.05200
C 	C 	0.21245 0.47557 0.76604 -0.09700
C 	C 	0.22243 0.51960 0.77800 0.00900
H 	H 	0.21635 0.52313 0.81115 0.04500
C 	C 	0.24162 0.55953 0.74675 -0.03200
H 	H 	0.25110 0.59370 0.75579 0.04700
C 	C 	0.25010 0.55551 0.70368 -0.03600
C 	C 	0.20157 0.48571 0.67427 -0.07700
H 	H 	0.18610 0.41254 0.69447 0.05400
H 	H 	0.21803 0.48186 0.64066 0.06400
H 	H 	0.14307 0.42947 0.73334 0.05600
H 	H 	0.17521 0.49873 0.67984 0.06000
C 	C 	0.18092 0.44119 0.70878 -0.08900
C 	C 	0.25903 0.46874 0.02985 0.03400
C 	C 	0.24194 0.43697 0.00516 0.03900
C 	C 	0.26447 0.44983 0.95980 -0.08500
C 	C 	0.30357 0.49675 0.93995 -0.00600
H 	H 	0.32083 0.50794 0.90510 0.04800
C 	C 	0.32075 0.52932 0.96524 -0.00400
H 	H 	0.35097 0.56525 0.94968 0.04600
C 	C 	0.29943 0.51508 0.01043 -0.08100
C 	C 	0.25973 0.43403 0.05795 -0.08300
H 	H 	0.20181 0.36799 0.04798 0.05000
H 	H 	0.23219 0.42419 0.09180 0.05000
H 	H 	0.26743 0.38763 0.01067 0.05100
H 	H 	0.29758 0.44349 0.05426 0.05900
C 	C 	0.24025 0.39792 0.02987 -0.08400
C 	C 	0.22268 0.21404 0.05299 0.04800
C 	C 	0.20645 0.22967 0.02781 0.03200
C 	C 	0.21478 0.22156 0.98553 -0.07100
C 	C 	0.23554 0.19284 0.97100 -0.01300
H 	H 	0.24044 0.18431 0.93931 0.05100
C 	C 	0.25237 0.17705 0.99674 0.00300
H 	H 	0.26984 0.15637 0.98474 0.04300
C 	C 	0.24834 0.18977 0.03709 -0.09200
C 	C 	0.24495 0.26033 0.06666 -0.08900
H 	H 	0.25782 0.30664 0.00957 0.05300
H 	H 	0.28604 0.27907 0.05429 0.05500
H 	H 	0.19705 0.28561 0.05679 0.05000
H 	H 	0.22537 0.25759 0.10169 0.05300
C 	C 	0.22671 0.27821 0.03786 -0.07800
C 	C 	0.27332 0.32257 0.74696 0.00200
C 	C 	0.29163 0.30157 0.71649 0.05900
C 	C 	0.31091 0.27459 0.72561 -0.10100
C 	C 	0.31188 0.26995 0.76650 0.01300
H 	H 	0.32632 0.24914 0.77439 0.04300
C 	C 	0.29308 0.29150 0.79769 -0.02900
H 	H 	0.29241 0.28646 0.82959 0.06400
C 	C 	0.27357 0.31797 0.78798 -0.02800
C 	C 	0.30103 0.36944 0.71676 -0.07300
H 	H 	0.36264 0.36093 0.67122 0.06000
H 	H 	0.33003 0.39814 0.72522 0.06100
H 	H 	0.30882 0.34157 0.65558 0.05600
H 	H 	0.27598 0.37882 0.70993 0.05300
C 	C 	0.32203 0.34552 0.68196 -0.09100
Zn	Zn	0.21131 0.90117 0.36605 1.20500
Zn	Zn	0.15079 0.82978 0.31938 1.21700
Zn	Zn	0.18917 0.81478 0.42524 1.21600
P 	P 	0.23567 0.83235 0.33052 0.30400
P 	P 	0.11122 0.82428 0.41292 0.30600
C 	C 	0.20266 0.74346 0.45653 0.28300
C 	C 	0.24434 0.91592 0.43347 0.30500
C 	C 	0.19913 0.93509 0.29720 0.31200
O 	O 	0.25096 0.88578 0.31738 -0.43600
O 	O 	0.14946 0.87462 0.41712 -0.44200
O 	O 	0.18000 0.79725 0.33585 -0.43200
O 	O 	0.12983 0.78765 0.41392 -0.43200
O 	O 	0.24479 0.82653 0.37303 -0.41600
O 	O 	0.10150 0.82982 0.37070 -0.41500
O 	O 	0.19065 0.77596 0.46764 -0.41700
O 	O 	0.04995 0.74499 0.33668 -0.24800
O 	O 	0.20605 0.73209 0.41870 -0.24500
O 	O 	0.20552 0.87291 0.45282 -0.43500
O 	O 	0.19781 0.89666 0.28361 -0.43900
O 	O 	0.25869 0.93160 0.39224 -0.44200
O 	O 	0.19928 0.94134 0.33551 -0.44400
C 	C 	0.07032 0.76832 0.29671 0.28200
O 	O 	0.11623 0.80435 0.28125 -0.41500
Zn	Zn	0.30849 0.69930 0.12718 1.20500
Zn	Zn	0.37268 0.68934 0.17114 1.21700
Zn	Zn	0.33064 0.63507 0.06742 1.21700
P 	P 	0.28689 0.60775 0.16213 0.30600
P 	P 	0.40877 0.72197 0.07792 0.30900
C 	C 	0.31560 0.54978 0.03734 0.28400
C 	C 	0.27193 0.67916 0.06193 0.30600
C 	C 	0.32353 0.74668 0.19465 0.31200
O 	O 	0.27100 0.64570 0.17620 -0.43400
O 	O 	0.36908 0.73350 0.07500 -0.44200
O 	O 	0.34316 0.62787 0.15532 -0.43400
O 	O 	0.39130 0.66739 0.07671 -0.43300
O 	O 	0.27652 0.59274 0.12021 -0.41700
O 	O 	0.41968 0.73755 0.11953 -0.41600
O 	O 	0.32789 0.59400 0.02577 -0.41600
O 	O 	0.48065 0.72056 0.14907 -0.24800
O 	O 	0.31350 0.53569 0.07475 -0.24900
O 	O 	0.31149 0.67551 0.04136 -0.43300
O 	O 	0.32583 0.71007 0.20801 -0.43700
O 	O 	0.25921 0.68207 0.10289 -0.44100
O 	O 	0.32137 0.75166 0.15707 -0.44600
C 	C 	0.45742 0.71501 0.19088 0.28000
O 	O 	0.40929 0.69842 0.20774 -0.41200
C 	C 	0.05396 0.79886 0.50026 0.01400
C 	C 	0.96501 0.75622 0.53165 -0.04400
C 	C 	0.96460 0.75648 0.49039 -0.00900
H 	H 	0.92990 0.73877 0.48658 0.04000
C 	C 	0.05426 0.80162 0.45885 -0.03600
C 	C 	0.07620 0.84178 0.51835 -0.07800
H 	H 	0.08273 0.87464 0.50079 0.06300
H 	H 	0.10793 0.84546 0.52473 0.05400
C 	C 	0.06333 0.77688 0.22593 0.04100
C 	C 	0.04072 0.75581 0.27009 -0.08400
C 	C 	0.98914 0.72402 0.28903 -0.00100
H 	H 	0.97038 0.70884 0.32332 0.04800
C 	C 	0.96175 0.71100 0.26336 -0.01200
H 	H 	0.92235 0.68571 0.27812 0.04700
C 	C 	0.98572 0.72952 0.21859 -0.06900
C 	C 	0.07452 0.75808 0.16553 -0.08000
H 	H 	0.13972 0.80799 0.17968 0.05000
H 	H 	0.09242 0.78469 0.13519 0.05100
H 	H 	0.10892 0.74382 0.20563 0.05600
H 	H 	0.06169 0.72067 0.16157 0.05900
C 	C 	0.10492 0.77297 0.19402 -0.08600
C 	C 	0.23948 0.01132 0.19233 0.03500
C 	C 	0.22120 0.97231 0.22272 0.04900
C 	C 	0.21245 0.97557 0.26604 -0.09900
C 	C 	0.22243 0.01959 0.27800 0.01100
H 	H 	0.21634 0.02313 0.31115 0.04500
C 	C 	0.24162 0.05953 0.24675 -0.03200
H 	H 	0.25110 0.09369 0.25579 0.04700
C 	C 	0.25010 0.05551 0.20368 -0.03700
C 	C 	0.20157 0.98571 0.17427 -0.08000
H 	H 	0.18610 0.91254 0.19447 0.05400
H 	H 	0.21804 0.98186 0.14066 0.06400
H 	H 	0.14307 0.92947 0.23334 0.05500
H 	H 	0.17521 0.99873 0.17984 0.06000
C 	C 	0.18092 0.94119 0.20878 -0.08800
C 	C 	0.25903 0.96874 0.52985 0.02900
C 	C 	0.24194 0.93697 0.50516 0.04300
C 	C 	0.26447 0.94984 0.45980 -0.08800
C 	C 	0.30357 0.99675 0.43995 -0.00800
H 	H 	0.32083 0.00794 0.40510 0.05000
C 	C 	0.32075 0.02932 0.46524 -0.00500
H 	H 	0.35097 0.06525 0.44968 0.04600
C 	C 	0.29943 0.01508 0.51043 -0.07600
C 	C 	0.25973 0.93403 0.55795 -0.08100
H 	H 	0.20181 0.86799 0.54798 0.05000
H 	H 	0.23219 0.92420 0.59180 0.04900
H 	H 	0.26743 0.88763 0.51067 0.05200
H 	H 	0.29758 0.94349 0.55427 0.05900
C 	C 	0.24025 0.89792 0.52987 -0.08600
C 	C 	0.22268 0.71404 0.55298 0.04500
C 	C 	0.20645 0.72967 0.52781 0.03600
C 	C 	0.21478 0.72156 0.48553 -0.07500
C 	C 	0.23554 0.69284 0.47100 -0.01100
H 	H 	0.24044 0.68431 0.43931 0.05000
C 	C 	0.25237 0.67705 0.49675 -0.00100
H 	H 	0.26984 0.65636 0.48473 0.04400
C 	C 	0.24834 0.68977 0.53709 -0.08800
C 	C 	0.24495 0.76033 0.56666 -0.08800
H 	H 	0.25782 0.80664 0.50957 0.05400
H 	H 	0.28604 0.77907 0.55429 0.05500
H 	H 	0.19705 0.78561 0.55679 0.05100
H 	H 	0.22537 0.75759 0.60169 0.05200
C 	C 	0.22671 0.77821 0.53786 -0.07900
C 	C 	0.27332 0.82257 0.24696 0.00200
C 	C 	0.29163 0.80157 0.21650 0.05900
C 	C 	0.31091 0.77459 0.22561 -0.10100
C 	C 	0.31188 0.76995 0.26650 0.01300
H 	H 	0.32632 0.74914 0.27438 0.04300
C 	C 	0.29308 0.79150 0.29769 -0.02900
H 	H 	0.29241 0.78646 0.32959 0.06400
C 	C 	0.27357 0.81797 0.28798 -0.02800
C 	C 	0.30103 0.86944 0.21676 -0.07300
H 	H 	0.36264 0.86093 0.17122 0.05900
H 	H 	0.33003 0.89814 0.22522 0.06100
H 	H 	0.30882 0.84157 0.15558 0.05500
H 	H 	0.27598 0.87882 0.20993 0.05200
C 	C 	0.32203 0.84552 0.18196 -0.09100
Zn	Zn	0.21131 0.90117 0.86605 1.20500
Zn	Zn	0.15079 0.82978 0.81938 1.21700
Zn	Zn	0.18917 0.81478 0.92525 1.21700
P 	P 	0.23567 0.83235 0.83052 0.30400
P 	P 	0.11122 0.82428 0.91292 0.30600
C 	C 	0.20266 0.74346 0.95654 0.28200
C 	C 	0.24434 0.91592 0.93347 0.30400
C 	C 	0.19913 0.93509 0.79720 0.31200
O 	O 	0.25096 0.88578 0.81738 -0.43600
O 	O 	0.14946 0.87462 0.91712 -0.44100
O 	O 	0.18000 0.79725 0.83585 -0.43200
O 	O 	0.12983 0.78765 0.91392 -0.43100
O 	O 	0.24479 0.82653 0.87303 -0.41600
O 	O 	0.10150 0.82982 0.87070 -0.41500
O 	O 	0.19065 0.77596 0.96764 -0.41600
O 	O 	0.04995 0.74499 0.83668 -0.24800
O 	O 	0.20605 0.73209 0.91870 -0.24500
O 	O 	0.20552 0.87291 0.95282 -0.43400
O 	O 	0.19781 0.89666 0.78361 -0.43900
O 	O 	0.25869 0.93160 0.89224 -0.44200
O 	O 	0.19928 0.94134 0.83551 -0.44300
C 	C 	0.07032 0.76832 0.79671 0.28200
O 	O 	0.11623 0.80435 0.78125 -0.41500
Zn	Zn	0.30849 0.69930 0.62718 1.20500
Zn	Zn	0.37268 0.68934 0.67114 1.21700
Zn	Zn	0.33064 0.63507 0.56742 1.21700
P 	P 	0.28689 0.60775 0.66213 0.30600
P 	P 	0.40877 0.72197 0.57792 0.30900
C 	C 	0.31560 0.54978 0.53734 0.28300
C 	C 	0.27193 0.67916 0.56194 0.30500
C 	C 	0.32353 0.74668 0.69465 0.31200
O 	O 	0.27100 0.64570 0.67620 -0.43400
O 	O 	0.36908 0.73350 0.57500 -0.44200
O 	O 	0.34316 0.62787 0.65532 -0.43400
O 	O 	0.39130 0.66739 0.57671 -0.43300
O 	O 	0.27652 0.59274 0.62021 -0.41700
O 	O 	0.41968 0.73755 0.61953 -0.41600
O 	O 	0.32789 0.59400 0.52577 -0.41500
O 	O 	0.48065 0.72056 0.64907 -0.24800
O 	O 	0.31350 0.53569 0.57475 -0.24900
O 	O 	0.31149 0.67551 0.54136 -0.43200
O 	O 	0.32583 0.71007 0.70801 -0.43700
O 	O 	0.25921 0.68207 0.60289 -0.44100
O 	O 	0.32137 0.75166 0.65707 -0.44600
C 	C 	0.45742 0.71501 0.69088 0.28000
O 	O 	0.40929 0.69842 0.70774 -0.41200
C 	C 	0.05396 0.79886 0.00026 0.01000
C 	C 	0.96501 0.75622 0.03165 -0.04700
C 	C 	0.96460 0.75648 0.99039 -0.00500
H 	H 	0.92990 0.73877 0.98658 0.04000
C 	C 	0.05426 0.80162 0.95885 -0.03200
C 	C 	0.07620 0.84178 0.01835 -0.07700
H 	H 	0.08273 0.87464 0.00079 0.06200
H 	H 	0.10793 0.84546 0.02473 0.05400
C 	C 	0.06333 0.77688 0.72593 0.04100
C 	C 	0.04072 0.75581 0.77009 -0.08400
C 	C 	0.98914 0.72402 0.78903 -0.00100
H 	H 	0.97038 0.70884 0.82332 0.04800
C 	C 	0.96175 0.71100 0.76336 -0.01100
H 	H 	0.92235 0.68571 0.77812 0.04700
C 	C 	0.98572 0.72952 0.71859 -0.06900
C 	C 	0.07452 0.75808 0.66553 -0.08000
H 	H 	0.13972 0.80799 0.67968 0.05000
H 	H 	0.09242 0.78469 0.63519 0.05100
H 	H 	0.10892 0.74382 0.70563 0.05600
H 	H 	0.06169 0.72067 0.66157 0.06000
C 	C 	0.10493 0.77297 0.69402 -0.08500
C 	C 	0.23948 0.01132 0.69233 0.03500
C 	C 	0.22120 0.97231 0.72272 0.05000
C 	C 	0.21245 0.97557 0.76604 -0.09900
C 	C 	0.22243 0.01959 0.77800 0.01100
H 	H 	0.21635 0.02313 0.81115 0.04500
C 	C 	0.24162 0.05953 0.74675 -0.03100
H 	H 	0.25110 0.09369 0.75579 0.04700
C 	C 	0.25010 0.05551 0.70368 -0.03700
C 	C 	0.20157 0.98571 0.67427 -0.08000
H 	H 	0.18610 0.91254 0.69447 0.05400
H 	H 	0.21804 0.98186 0.64066 0.06400
H 	H 	0.14307 0.92947 0.73334 0.05500
H 	H 	0.17521 0.99873 0.67984 0.06000
C 	C 	0.18092 0.94119 0.70878 -0.08800
C 	C 	0.25903 0.96874 0.02985 0.03200
C 	C 	0.24194 0.93697 0.00516 0.03900
C 	C 	0.26447 0.94983 0.95980 -0.08400
C 	C 	0.30357 0.99675 0.93995 -0.01000
H 	H 	0.32083 0.00794 0.90510 0.05000
C 	C 	0.32075 0.02932 0.96524 -0.00100
H 	H 	0.35097 0.06525 0.94968 0.04600
C 	C 	0.29943 0.01508 0.01043 -0.08000
C 	C 	0.25973 0.93403 0.05795 -0.08200
H 	H 	0.20181 0.86799 0.04798 0.05000
H 	H 	0.23219 0.92420 0.09180 0.04900
H 	H 	0.26743 0.88763 0.01067 0.05100
H 	H 	0.29758 0.94349 0.05426 0.05900
C 	C 	0.24025 0.89792 0.02987 -0.08400
C 	C 	0.22268 0.71404 0.05299 0.04800
C 	C 	0.20645 0.72967 0.02781 0.03100
C 	C 	0.21478 0.72156 0.98553 -0.07100
C 	C 	0.23554 0.69284 0.97100 -0.01300
H 	H 	0.24044 0.68431 0.93931 0.05100
C 	C 	0.25237 0.67705 0.99674 0.00400
H 	H 	0.26984 0.65637 0.98474 0.04300
C 	C 	0.24834 0.68977 0.03709 -0.09200
C 	C 	0.24495 0.76033 0.06666 -0.08900
H 	H 	0.25782 0.80664 0.00957 0.05300
H 	H 	0.28604 0.77907 0.05429 0.05500
H 	H 	0.19705 0.78561 0.05679 0.05000
H 	H 	0.22537 0.75759 0.10169 0.05300
C 	C 	0.22671 0.77821 0.03786 -0.07800
C 	C 	0.27332 0.82257 0.74696 0.00200
C 	C 	0.29163 0.80157 0.71649 0.05900
C 	C 	0.31091 0.77459 0.72561 -0.10100
C 	C 	0.31188 0.76995 0.76650 0.01300
H 	H 	0.32632 0.74914 0.77439 0.04300
C 	C 	0.29308 0.79150 0.79769 -0.02900
H 	H 	0.29241 0.78646 0.82959 0.06400
C 	C 	0.27357 0.81797 0.78798 -0.02800
C 	C 	0.30103 0.86944 0.71676 -0.07300
H 	H 	0.36264 0.86093 0.67122 0.05900
H 	H 	0.33003 0.89814 0.72522 0.06100
H 	H 	0.30882 0.84157 0.65558 0.05500
H 	H 	0.27598 0.87882 0.70993 0.05200
C 	C 	0.32203 0.84552 0.68196 -0.09100
Zn	Zn	0.71131 0.40117 0.36605 1.20500
Zn	Zn	0.65079 0.32978 0.31938 1.21700
Zn	Zn	0.68917 0.31478 0.42524 1.21700
P 	P 	0.73567 0.33235 0.33052 0.30400
P 	P 	0.61122 0.32428 0.41292 0.30600
C 	C 	0.70266 0.24346 0.45653 0.28300
C 	C 	0.74435 0.41592 0.43347 0.30500
C 	C 	0.69913 0.43509 0.29720 0.31100
O 	O 	0.75096 0.38578 0.31738 -0.43500
O 	O 	0.64946 0.37462 0.41712 -0.44200
O 	O 	0.68000 0.29725 0.33585 -0.43100
O 	O 	0.62983 0.28765 0.41392 -0.43100
O 	O 	0.74479 0.32653 0.37303 -0.41600
O 	O 	0.60150 0.32982 0.37070 -0.41500
O 	O 	0.69065 0.27596 0.46764 -0.41700
O 	O 	0.54995 0.24499 0.33668 -0.24600
O 	O 	0.70605 0.23209 0.41870 -0.24500
O 	O 	0.70552 0.37291 0.45282 -0.43500
O 	O 	0.69781 0.39666 0.28361 -0.43900
O 	O 	0.75869 0.43160 0.39224 -0.44200
O 	O 	0.69928 0.44134 0.33551 -0.44300
C 	C 	0.57032 0.26832 0.29671 0.28000
O 	O 	0.61623 0.30435 0.28125 -0.41400
Zn	Zn	0.80849 0.19930 0.12718 1.20500
Zn	Zn	0.87268 0.18934 0.17114 1.21700
Zn	Zn	0.83064 0.13507 0.06742 1.21700
P 	P 	0.78689 0.10775 0.16213 0.30600
P 	P 	0.90877 0.22197 0.07792 0.30900
C 	C 	0.81560 0.04978 0.03734 0.28400
C 	C 	0.77193 0.17916 0.06193 0.30600
C 	C 	0.82353 0.24668 0.19465 0.31300
O 	O 	0.77100 0.14570 0.17620 -0.43400
O 	O 	0.86908 0.23350 0.07500 -0.44200
O 	O 	0.84316 0.12787 0.15532 -0.43400
O 	O 	0.89130 0.16739 0.07671 -0.43300
O 	O 	0.77652 0.09274 0.12021 -0.41700
O 	O 	0.91968 0.23755 0.11953 -0.41500
O 	O 	0.82789 0.09400 0.02577 -0.41600
O 	O 	0.98065 0.22056 0.14907 -0.24500
O 	O 	0.81350 0.03569 0.07475 -0.24800
O 	O 	0.81149 0.17551 0.04136 -0.43300
O 	O 	0.82583 0.21007 0.20801 -0.43700
O 	O 	0.75921 0.18207 0.10289 -0.44100
O 	O 	0.82137 0.25166 0.15707 -0.44500
C 	C 	0.95742 0.21501 0.19088 0.27800
O 	O 	0.90929 0.19842 0.20774 -0.41100
C 	C 	0.55395 0.29886 0.50026 0.01300
C 	C 	0.51031 0.27670 0.53590 0.04800
C 	C 	0.46501 0.25622 0.53165 -0.04800
C 	C 	0.46460 0.25648 0.49039 -0.01300
H 	H 	0.42990 0.23877 0.48658 0.04100
C 	C 	0.50926 0.27916 0.45392 -0.01600
H 	H 	0.50882 0.27878 0.42208 0.06100
C 	C 	0.55426 0.30162 0.45885 -0.03600
C 	C 	0.57620 0.34178 0.51835 -0.07700
H 	H 	0.50528 0.33547 0.56384 0.06300
H 	H 	0.58273 0.37464 0.50079 0.06400
H 	H 	0.53027 0.30637 0.58816 0.06800
H 	H 	0.60794 0.34546 0.52473 0.05500
C 	C 	0.52632 0.31658 0.55902 -0.08500
C 	C 	0.53661 0.26395 0.20081 0.03400
C 	C 	0.56333 0.27688 0.22593 0.03700
C 	C 	0.54072 0.25581 0.27009 -0.07700
C 	C 	0.48914 0.22402 0.28903 -0.00900
H 	H 	0.47038 0.20884 0.32332 0.04900
C 	C 	0.46175 0.21100 0.26336 -0.00700
H 	H 	0.42235 0.18571 0.27812 0.04600
C 	C 	0.48572 0.22952 0.21859 -0.07700
C 	C 	0.57452 0.25808 0.16553 -0.08200
H 	H 	0.63972 0.30799 0.17968 0.05000
H 	H 	0.59242 0.28469 0.13519 0.05200
H 	H 	0.60892 0.24382 0.20563 0.05600
H 	H 	0.56169 0.22067 0.16157 0.06100
C 	C 	0.60493 0.27297 0.19402 -0.08300
C 	C 	0.73948 0.51132 0.19233 0.03100
C 	C 	0.72120 0.47231 0.22272 0.05200
C 	C 	0.71245 0.47557 0.26604 -0.09700
C 	C 	0.72243 0.51960 0.27800 0.00900
H 	H 	0.71635 0.52313 0.31115 0.04500
C 	C 	0.74162 0.55953 0.24675 -0.03100
H 	H 	0.75109 0.59370 0.25579 0.04700
C 	C 	0.75009 0.55551 0.20368 -0.03600
C 	C 	0.70157 0.48571 0.17427 -0.07700
H 	H 	0.68610 0.41254 0.19447 0.05400
H 	H 	0.71804 0.48186 0.14066 0.06400
H 	H 	0.64307 0.42947 0.23334 0.05600
H 	H 	0.67521 0.49873 0.17984 0.06000
C 	C 	0.68092 0.44119 0.20878 -0.08900
C 	C 	0.75903 0.46874 0.52985 0.03100
C 	C 	0.74194 0.43697 0.50516 0.04400
C 	C 	0.76446 0.44984 0.45980 -0.08900
C 	C 	0.80357 0.49675 0.43995 -0.00300
H 	H 	0.82083 0.50794 0.40510 0.04800
C 	C 	0.82075 0.52932 0.46524 -0.00800
H 	H 	0.85097 0.56525 0.44968 0.04700
C 	C 	0.79943 0.51508 0.51043 -0.07700
C 	C 	0.75973 0.43403 0.55795 -0.08100
H 	H 	0.70181 0.36799 0.54798 0.05000
H 	H 	0.73219 0.42420 0.59180 0.04900
H 	H 	0.76743 0.38763 0.51067 0.05200
H 	H 	0.79758 0.44349 0.55427 0.06000
C 	C 	0.74025 0.39792 0.52987 -0.08600
C 	C 	0.72268 0.21404 0.55298 0.04500
C 	C 	0.70645 0.22967 0.52781 0.03600
C 	C 	0.71478 0.22156 0.48553 -0.07500
C 	C 	0.73554 0.19284 0.47100 -0.01000
H 	H 	0.74044 0.18431 0.43931 0.05000
C 	C 	0.75237 0.17705 0.49675 -0.00100
H 	H 	0.76984 0.15637 0.48473 0.04400
C 	C 	0.74834 0.18977 0.53709 -0.08800
C 	C 	0.74495 0.26033 0.56666 -0.08800
H 	H 	0.75782 0.30664 0.50957 0.05400
H 	H 	0.78604 0.27907 0.55429 0.05500
H 	H 	0.69705 0.28561 0.55679 0.05100
H 	H 	0.72537 0.25759 0.60169 0.05300
C 	C 	0.72671 0.27821 0.53786 -0.08000
C 	C 	0.77332 0.32257 0.24696 0.00200
C 	C 	0.79163 0.30157 0.21650 0.05900
C 	C 	0.81091 0.27459 0.22561 -0.10100
C 	C 	0.81188 0.26995 0.26650 0.01400
H 	H 	0.82632 0.24914 0.27438 0.04300
C 	C 	0.79308 0.29150 0.29769 -0.02900
H 	H 	0.79241 0.28646 0.32959 0.06400
C 	C 	0.77357 0.31797 0.28798 -0.02800
C 	C 	0.80103 0.36944 0.21676 -0.07300
H 	H 	0.86264 0.36093 0.17122 0.06000
H 	H 	0.83003 0.39814 0.22522 0.06100
H 	H 	0.80882 0.34157 0.15558 0.05600
H 	H 	0.77598 0.37882 0.20993 0.05300
C 	C 	0.82203 0.34552 0.18196 -0.09100
Zn	Zn	0.71131 0.40117 0.86605 1.20500
Zn	Zn	0.65079 0.32978 0.81938 1.21700
Zn	Zn	0.68917 0.31478 0.92525 1.21700
P 	P 	0.73567 0.33235 0.83052 0.30400
P 	P 	0.61122 0.32428 0.91292 0.30600
C 	C 	0.70266 0.24346 0.95654 0.28200
C 	C 	0.74435 0.41592 0.93347 0.30500
C 	C 	0.69913 0.43509 0.79720 0.31100
O 	O 	0.75096 0.38578 0.81738 -0.43500
O 	O 	0.64946 0.37462 0.91712 -0.44100
O 	O 	0.68000 0.29725 0.83585 -0.43100
O 	O 	0.62983 0.28765 0.91392 -0.43100
O 	O 	0.74479 0.32653 0.87303 -0.41500
O 	O 	0.60150 0.32982 0.87070 -0.41500
O 	O 	0.69065 0.27596 0.96764 -0.41600
O 	O 	0.54995 0.24499 0.83668 -0.24600
O 	O 	0.70605 0.23209 0.91870 -0.24500
O 	O 	0.70552 0.37291 0.95282 -0.43400
O 	O 	0.69781 0.39666 0.78361 -0.43900
O 	O 	0.75869 0.43160 0.89224 -0.44100
O 	O 	0.69928 0.44134 0.83551 -0.44300
C 	C 	0.57031 0.26832 0.79671 0.28000
O 	O 	0.61623 0.30435 0.78125 -0.41400
Zn	Zn	0.80849 0.19930 0.62718 1.20500
Zn	Zn	0.87268 0.18934 0.67114 1.21700
Zn	Zn	0.83064 0.13507 0.56742 1.21700
P 	P 	0.78689 0.10775 0.66213 0.30600
P 	P 	0.90877 0.22197 0.57792 0.30800
C 	C 	0.81560 0.04978 0.53734 0.28300
C 	C 	0.77193 0.17916 0.56194 0.30500
C 	C 	0.82353 0.24668 0.69465 0.31300
O 	O 	0.77100 0.14570 0.67620 -0.43400
O 	O 	0.86908 0.23350 0.57500 -0.44200
O 	O 	0.84316 0.12787 0.65532 -0.43300
O 	O 	0.89130 0.16739 0.57671 -0.43200
O 	O 	0.77652 0.09274 0.62021 -0.41700
O 	O 	0.91968 0.23755 0.61953 -0.41500
O 	O 	0.82789 0.09400 0.52577 -0.41500
O 	O 	0.98065 0.22056 0.64907 -0.24500
O 	O 	0.81350 0.03569 0.57475 -0.24800
O 	O 	0.81149 0.17551 0.54136 -0.43200
O 	O 	0.82583 0.21007 0.70801 -0.43700
O 	O 	0.75921 0.18207 0.60289 -0.44000
O 	O 	0.82137 0.25166 0.65707 -0.44500
C 	C 	0.95742 0.21501 0.69088 0.27800
O 	O 	0.90929 0.19842 0.70774 -0.41100
C 	C 	0.55396 0.29886 0.00026 0.00900
C 	C 	0.51031 0.27670 0.03590 0.05100
C 	C 	0.46501 0.25622 0.03165 -0.05200
C 	C 	0.46460 0.25648 0.99039 -0.00900
H 	H 	0.42990 0.23877 0.98658 0.04000
C 	C 	0.50926 0.27916 0.95392 -0.01800
H 	H 	0.50882 0.27878 0.92208 0.06100
C 	C 	0.55426 0.30162 0.95885 -0.03300
C 	C 	0.57620 0.34178 0.01835 -0.07600
H 	H 	0.50528 0.33547 0.06384 0.06300
H 	H 	0.58273 0.37464 0.00079 0.06300
H 	H 	0.53027 0.30637 0.08816 0.06800
H 	H 	0.60794 0.34546 0.02473 0.05400
C 	C 	0.52632 0.31658 0.05902 -0.08600
C 	C 	0.53661 0.26395 0.70081 0.03400
C 	C 	0.56333 0.27688 0.72593 0.03700
C 	C 	0.54072 0.25581 0.77009 -0.07700
C 	C 	0.48914 0.22402 0.78903 -0.00900
H 	H 	0.47038 0.20884 0.82332 0.04900
C 	C 	0.46175 0.21100 0.76336 -0.00700
H 	H 	0.42235 0.18571 0.77812 0.04600
C 	C 	0.48572 0.22952 0.71859 -0.07700
C 	C 	0.57452 0.25808 0.66553 -0.08200
H 	H 	0.63972 0.30799 0.67968 0.05000
H 	H 	0.59242 0.28469 0.63519 0.05200
H 	H 	0.60892 0.24382 0.70563 0.05600
H 	H 	0.56169 0.22067 0.66157 0.06100
C 	C 	0.60493 0.27297 0.69402 -0.08300
C 	C 	0.73948 0.51132 0.69233 0.03100
C 	C 	0.72120 0.47231 0.72272 0.05200
C 	C 	0.71245 0.47557 0.76604 -0.09700
C 	C 	0.72243 0.51960 0.77800 0.01000
H 	H 	0.71635 0.52313 0.81115 0.04500
C 	C 	0.74162 0.55953 0.74675 -0.03100
H 	H 	0.75109 0.59370 0.75579 0.04700
C 	C 	0.75009 0.55551 0.70368 -0.03600
C 	C 	0.70157 0.48571 0.67427 -0.07700
H 	H 	0.68610 0.41254 0.69447 0.05400
H 	H 	0.71804 0.48186 0.64066 0.06400
H 	H 	0.64307 0.42947 0.73334 0.05600
H 	H 	0.67521 0.49873 0.67984 0.06000
C 	C 	0.68092 0.44119 0.70878 -0.08900
C 	C 	0.75903 0.46874 0.02985 0.03400
C 	C 	0.74194 0.43697 0.00516 0.04000
C 	C 	0.76447 0.44983 0.95980 -0.08500
C 	C 	0.80357 0.49675 0.93995 -0.00500
H 	H 	0.82083 0.50794 0.90510 0.04800
C 	C 	0.82075 0.52932 0.96524 -0.00400
H 	H 	0.85097 0.56525 0.94968 0.04700
C 	C 	0.79943 0.51508 0.01043 -0.08100
C 	C 	0.75973 0.43403 0.05795 -0.08300
H 	H 	0.70181 0.36799 0.04798 0.05000
H 	H 	0.73219 0.42419 0.09180 0.05000
H 	H 	0.76743 0.38763 0.01067 0.05100
H 	H 	0.79758 0.44349 0.05426 0.06000
C 	C 	0.74025 0.39792 0.02987 -0.08400
C 	C 	0.72268 0.21404 0.05299 0.04700
C 	C 	0.70645 0.22967 0.02781 0.03200
C 	C 	0.71478 0.22156 0.98553 -0.07100
C 	C 	0.73554 0.19284 0.97100 -0.01200
H 	H 	0.74044 0.18431 0.93931 0.05100
C 	C 	0.75237 0.17705 0.99674 0.00300
H 	H 	0.76984 0.15637 0.98474 0.04400
C 	C 	0.74834 0.18977 0.03709 -0.09100
C 	C 	0.74495 0.26033 0.06666 -0.08900
H 	H 	0.75782 0.30664 0.00957 0.05400
H 	H 	0.78604 0.27907 0.05429 0.05500
H 	H 	0.69705 0.28561 0.05679 0.05000
H 	H 	0.72537 0.25759 0.10169 0.05300
C 	C 	0.72671 0.27821 0.03786 -0.07800
C 	C 	0.77332 0.32257 0.74696 0.00200
C 	C 	0.79163 0.30157 0.71649 0.05900
C 	C 	0.81091 0.27459 0.72561 -0.10100
C 	C 	0.81188 0.26995 0.76650 0.01400
H 	H 	0.82632 0.24914 0.77439 0.04300
C 	C 	0.79308 0.29150 0.79769 -0.02900
H 	H 	0.79241 0.28646 0.82959 0.06400
C 	C 	0.77357 0.31797 0.78798 -0.02800
C 	C 	0.80103 0.36944 0.71676 -0.07300
H 	H 	0.86264 0.36093 0.67122 0.06000
H 	H 	0.83003 0.39814 0.72522 0.06100
H 	H 	0.80882 0.34157 0.65558 0.05600
H 	H 	0.77598 0.37882 0.70993 0.05300
C 	C 	0.82203 0.34552 0.68196 -0.09100
Zn	Zn	0.71131 0.90117 0.36605 1.20500
Zn	Zn	0.65079 0.82978 0.31938 1.21700
Zn	Zn	0.68917 0.81478 0.42524 1.21700
P 	P 	0.73567 0.83235 0.33052 0.30400
P 	P 	0.61122 0.82428 0.41292 0.30600
C 	C 	0.70266 0.74346 0.45653 0.28300
C 	C 	0.74435 0.91592 0.43347 0.30500
C 	C 	0.69913 0.93509 0.29720 0.31200
O 	O 	0.75096 0.88578 0.31738 -0.43600
O 	O 	0.64946 0.87462 0.41712 -0.44200
O 	O 	0.68000 0.79725 0.33585 -0.43100
O 	O 	0.62983 0.78765 0.41392 -0.43100
O 	O 	0.74479 0.82653 0.37303 -0.41600
O 	O 	0.60150 0.82982 0.37070 -0.41500
O 	O 	0.69065 0.77596 0.46764 -0.41700
O 	O 	0.54995 0.74499 0.33668 -0.24700
O 	O 	0.70605 0.73209 0.41870 -0.24500
O 	O 	0.70552 0.87291 0.45282 -0.43500
O 	O 	0.69781 0.89666 0.28361 -0.43900
O 	O 	0.75869 0.93160 0.39224 -0.44200
O 	O 	0.69928 0.94134 0.33551 -0.44300
C 	C 	0.57032 0.76832 0.29671 0.28000
O 	O 	0.61623 0.80435 0.28125 -0.41400
Zn	Zn	0.80849 0.69930 0.12718 1.20500
Zn	Zn	0.87268 0.68934 0.17114 1.21700
Zn	Zn	0.83064 0.63507 0.06742 1.21700
P 	P 	0.78689 0.60775 0.16213 0.30600
P 	P 	0.90877 0.72197 0.07792 0.30900
C 	C 	0.81560 0.54978 0.03734 0.28400
C 	C 	0.77193 0.67916 0.06193 0.30600
C 	C 	0.82353 0.74668 0.19465 0.31300
O 	O 	0.77100 0.64570 0.17620 -0.43400
O 	O 	0.86908 0.73350 0.07500 -0.44200
O 	O 	0.84316 0.62787 0.15532 -0.43400
O 	O 	0.89130 0.66739 0.07671 -0.43300
O 	O 	0.77652 0.59274 0.12021 -0.41700
O 	O 	0.91968 0.73755 0.11953 -0.41500
O 	O 	0.82789 0.59400 0.02577 -0.41600
O 	O 	0.98065 0.72056 0.14907 -0.24500
O 	O 	0.81350 0.53569 0.07475 -0.24900
O 	O 	0.81149 0.67551 0.04136 -0.43300
O 	O 	0.82583 0.71007 0.20801 -0.43700
O 	O 	0.75921 0.68207 0.10289 -0.44100
O 	O 	0.82137 0.75166 0.15707 -0.44500
C 	C 	0.95742 0.71501 0.19088 0.27800
O 	O 	0.90929 0.69842 0.20774 -0.41100
C 	C 	0.55395 0.79886 0.50026 0.01300
C 	C 	0.51031 0.77670 0.53590 0.04800
C 	C 	0.46501 0.75622 0.53165 -0.04800
C 	C 	0.46460 0.75648 0.49039 -0.01300
H 	H 	0.42990 0.73877 0.48658 0.04100
C 	C 	0.50926 0.77916 0.45392 -0.01600
H 	H 	0.50882 0.77878 0.42208 0.06100
C 	C 	0.55426 0.80162 0.45885 -0.03600
C 	C 	0.57620 0.84178 0.51835 -0.07700
H 	H 	0.50528 0.83547 0.56384 0.06300
H 	H 	0.58273 0.87464 0.50079 0.06400
H 	H 	0.53027 0.80637 0.58816 0.06800
H 	H 	0.60793 0.84546 0.52473 0.05400
C 	C 	0.52632 0.81658 0.55902 -0.08500
C 	C 	0.53661 0.76395 0.20081 0.03400
C 	C 	0.56333 0.77688 0.22593 0.03700
C 	C 	0.54072 0.75581 0.27009 -0.07700
C 	C 	0.48914 0.72402 0.28903 -0.00900
H 	H 	0.47038 0.70884 0.32332 0.04800
C 	C 	0.46175 0.71100 0.26336 -0.00700
H 	H 	0.42235 0.68571 0.27812 0.04600
C 	C 	0.48572 0.72952 0.21859 -0.07700
C 	C 	0.57452 0.75808 0.16553 -0.08200
H 	H 	0.63972 0.80799 0.17968 0.05000
H 	H 	0.59242 0.78469 0.13519 0.05200
H 	H 	0.60892 0.74382 0.20563 0.05600
H 	H 	0.56169 0.72067 0.16157 0.06100
C 	C 	0.60493 0.77297 0.19402 -0.08300
C 	C 	0.73948 0.01132 0.19233 0.03500
C 	C 	0.72120 0.97231 0.22272 0.05000
C 	C 	0.71245 0.97557 0.26604 -0.09900
C 	C 	0.72243 0.01959 0.27800 0.01100
H 	H 	0.71635 0.02313 0.31115 0.04500
C 	C 	0.74162 0.05953 0.24675 -0.03100
H 	H 	0.75109 0.09369 0.25579 0.04700
C 	C 	0.75009 0.05551 0.20368 -0.03700
C 	C 	0.70157 0.98571 0.17427 -0.08000
H 	H 	0.68610 0.91254 0.19447 0.05400
H 	H 	0.71803 0.98186 0.14066 0.06400
H 	H 	0.64307 0.92947 0.23334 0.05600
H 	H 	0.67521 0.99873 0.17984 0.06000
C 	C 	0.68092 0.94119 0.20878 -0.08800
C 	C 	0.75903 0.96874 0.52985 0.03000
C 	C 	0.74194 0.93697 0.50516 0.04400
C 	C 	0.76446 0.94984 0.45980 -0.08800
C 	C 	0.80357 0.99675 0.43995 -0.00800
H 	H 	0.82083 0.00794 0.40510 0.05000
C 	C 	0.82075 0.02932 0.46524 -0.00500
H 	H 	0.85097 0.06525 0.44968 0.04700
C 	C 	0.79943 0.01508 0.51043 -0.07600
C 	C 	0.75973 0.93403 0.55795 -0.08100
H 	H 	0.70181 0.86799 0.54798 0.05000
H 	H 	0.73219 0.92420 0.59180 0.04900
H 	H 	0.76743 0.88763 0.51067 0.05200
H 	H 	0.79758 0.94349 0.55427 0.05900
C 	C 	0.74025 0.89792 0.52987 -0.08600
C 	C 	0.72268 0.71404 0.55298 0.04500
C 	C 	0.70645 0.72967 0.52781 0.03600
C 	C 	0.71478 0.72156 0.48553 -0.07500
C 	C 	0.73554 0.69284 0.47100 -0.01000
H 	H 	0.74044 0.68431 0.43931 0.05000
C 	C 	0.75237 0.67705 0.49675 -0.00100
H 	H 	0.76984 0.65636 0.48473 0.04400
C 	C 	0.74834 0.68977 0.53709 -0.08800
C 	C 	0.74495 0.76033 0.56666 -0.08800
H 	H 	0.75782 0.80664 0.50957 0.05400
H 	H 	0.78604 0.77907 0.55429 0.05500
H 	H 	0.69705 0.78561 0.55679 0.05100
H 	H 	0.72537 0.75759 0.60169 0.05300
C 	C 	0.72671 0.77821 0.53786 -0.07900
C 	C 	0.77332 0.82257 0.24696 0.00200
C 	C 	0.79163 0.80157 0.21650 0.05900
C 	C 	0.81091 0.77459 0.22561 -0.10100
C 	C 	0.81188 0.76995 0.26650 0.01300
H 	H 	0.82632 0.74914 0.27438 0.04300
C 	C 	0.79308 0.79150 0.29769 -0.02900
H 	H 	0.79241 0.78646 0.32959 0.06400
C 	C 	0.77357 0.81797 0.28798 -0.02800
C 	C 	0.80103 0.86944 0.21676 -0.07300
H 	H 	0.86264 0.86093 0.17122 0.06000
H 	H 	0.83003 0.89814 0.22522 0.06100
H 	H 	0.80882 0.84157 0.15558 0.05600
H 	H 	0.77598 0.87882 0.20993 0.05300
C 	C 	0.82203 0.84552 0.18196 -0.09100
Zn	Zn	0.71131 0.90117 0.86605 1.20500
Zn	Zn	0.65079 0.82978 0.81938 1.21700
Zn	Zn	0.68917 0.81478 0.92525 1.21700
P 	P 	0.73567 0.83235 0.83052 0.30400
P 	P 	0.61122 0.82428 0.91292 0.30600
C 	C 	0.70266 0.74346 0.95654 0.28200
C 	C 	0.74435 0.91592 0.93347 0.30400
C 	C 	0.69913 0.93509 0.79720 0.31200
O 	O 	0.75096 0.88578 0.81738 -0.43600
O 	O 	0.64946 0.87462 0.91712 -0.44100
O 	O 	0.68000 0.79725 0.83585 -0.43100
O 	O 	0.62983 0.78765 0.91392 -0.43100
O 	O 	0.74479 0.82653 0.87303 -0.41500
O 	O 	0.60150 0.82982 0.87070 -0.41500
O 	O 	0.69065 0.77596 0.96764 -0.41600
O 	O 	0.54995 0.74499 0.83668 -0.24600
O 	O 	0.70605 0.73209 0.91870 -0.24500
O 	O 	0.70552 0.87291 0.95282 -0.43400
O 	O 	0.69781 0.89666 0.78361 -0.43900
O 	O 	0.75869 0.93160 0.89224 -0.44200
O 	O 	0.69928 0.94134 0.83551 -0.44300
C 	C 	0.57032 0.76832 0.79671 0.28000
O 	O 	0.61623 0.80435 0.78125 -0.41400
Zn	Zn	0.80849 0.69930 0.62718 1.20500
Zn	Zn	0.87268 0.68934 0.67114 1.21700
Zn	Zn	0.83064 0.63507 0.56742 1.21700
P 	P 	0.78689 0.60775 0.66213 0.30600
P 	P 	0.90877 0.72197 0.57792 0.30800
C 	C 	0.81560 0.54978 0.53734 0.28300
C 	C 	0.77193 0.67916 0.56194 0.30500
C 	C 	0.82353 0.74668 0.69465 0.31300
O 	O 	0.77100 0.64570 0.67620 -0.43400
O 	O 	0.86908 0.73350 0.57500 -0.44200
O 	O 	0.84316 0.62787 0.65532 -0.43400
O 	O 	0.89130 0.66739 0.57671 -0.43200
O 	O 	0.77652 0.59274 0.62021 -0.41700
O 	O 	0.91968 0.73755 0.61953 -0.41500
O 	O 	0.82789 0.59400 0.52577 -0.41500
O 	O 	0.98065 0.72056 0.64907 -0.24500
O 	O 	0.81350 0.53569 0.57475 -0.24800
O 	O 	0.81149 0.67551 0.54136 -0.43200
O 	O 	0.82583 0.71007 0.70801 -0.43700
O 	O 	0.75921 0.68207 0.60289 -0.44000
O 	O 	0.82137 0.75166 0.65707 -0.44500
C 	C 	0.95742 0.71501 0.69088 0.27800
O 	O 	0.90929 0.69842 0.70774 -0.41100
C 	C 	0.55395 0.79886 0.00026 0.00900
C 	C 	0.51031 0.77670 0.03590 0.05100
C 	C 	0.46501 0.75622 0.03165 -0.05200
C 	C 	0.46460 0.75648 0.99039 -0.00800
H 	H 	0.42990 0.73877 0.98658 0.04000
C 	C 	0.50926 0.77916 0.95392 -0.01800
H 	H 	0.50882 0.77878 0.92208 0.06100
C 	C 	0.55426 0.80162 0.95885 -0.03200
C 	C 	0.57620 0.84178 0.01835 -0.07600
H 	H 	0.50528 0.83547 0.06384 0.06300
H 	H 	0.58273 0.87464 0.00079 0.06200
H 	H 	0.53027 0.80637 0.08816 0.06800
H 	H 	0.60794 0.84546 0.02473 0.05400
C 	C 	0.52632 0.81658 0.05902 -0.08600
C 	C 	0.53661 0.76395 0.70081 0.03400
C 	C 	0.56333 0.77688 0.72593 0.03700
C 	C 	0.54072 0.75581 0.77009 -0.07700
C 	C 	0.48914 0.72402 0.78903 -0.00900
H 	H 	0.47038 0.70884 0.82332 0.04900
C 	C 	0.46175 0.71100 0.76336 -0.00700
H 	H 	0.42235 0.68571 0.77812 0.04600
C 	C 	0.48572 0.72952 0.71859 -0.07700
C 	C 	0.57452 0.75808 0.66553 -0.08200
H 	H 	0.63972 0.80799 0.67968 0.05000
H 	H 	0.59242 0.78469 0.63519 0.05200
H 	H 	0.60892 0.74382 0.70563 0.05600
H 	H 	0.56169 0.72067 0.66157 0.06100
C 	C 	0.60493 0.77297 0.69402 -0.08300
C 	C 	0.73949 0.01132 0.69233 0.03500
C 	C 	0.72120 0.97231 0.72272 0.05000
C 	C 	0.71245 0.97557 0.76604 -0.09800
C 	C 	0.72243 0.01959 0.77800 0.01100
H 	H 	0.71635 0.02313 0.81115 0.04600
C 	C 	0.74162 0.05953 0.74675 -0.03100
H 	H 	0.75109 0.09369 0.75579 0.04700
C 	C 	0.75009 0.05551 0.70368 -0.03700
C 	C 	0.70157 0.98571 0.67427 -0.08000
H 	H 	0.68610 0.91254 0.69447 0.05400
H 	H 	0.71804 0.98186 0.64066 0.06400
H 	H 	0.64307 0.92947 0.73334 0.05600
H 	H 	0.67521 0.99873 0.67984 0.06000
C 	C 	0.68092 0.94119 0.70878 -0.08800
C 	C 	0.75903 0.96874 0.02985 0.03200
C 	C 	0.74194 0.93697 0.00516 0.04000
C 	C 	0.76447 0.94983 0.95980 -0.08400
C 	C 	0.80357 0.99675 0.93995 -0.00900
H 	H 	0.82083 0.00794 0.90510 0.05000
C 	C 	0.82075 0.02932 0.96524 -0.00200
H 	H 	0.85097 0.06525 0.94968 0.04600
C 	C 	0.79943 0.01508 0.01043 -0.07900
C 	C 	0.75973 0.93403 0.05795 -0.08200
H 	H 	0.70181 0.86799 0.04798 0.05000
H 	H 	0.73219 0.92420 0.09180 0.04900
H 	H 	0.76743 0.88763 0.01067 0.05100
H 	H 	0.79758 0.94349 0.05426 0.05900
C 	C 	0.74025 0.89792 0.02987 -0.08500
C 	C 	0.72268 0.71404 0.05299 0.04800
C 	C 	0.70645 0.72967 0.02781 0.03200
C 	C 	0.71478 0.72156 0.98553 -0.07100
C 	C 	0.73554 0.69284 0.97100 -0.01300
H 	H 	0.74044 0.68431 0.93931 0.05100
C 	C 	0.75237 0.67705 0.99674 0.00300
H 	H 	0.76984 0.65637 0.98474 0.04300
C 	C 	0.74834 0.68977 0.03709 -0.09200
C 	C 	0.74495 0.76033 0.06666 -0.08900
H 	H 	0.75782 0.80664 0.00957 0.05300
H 	H 	0.78604 0.77907 0.05429 0.05500
H 	H 	0.69705 0.78561 0.05679 0.05000
H 	H 	0.72537 0.75759 0.10169 0.05300
C 	C 	0.72671 0.77821 0.03786 -0.07800
C 	C 	0.77332 0.82257 0.74696 0.00200
C 	C 	0.79163 0.80157 0.71649 0.05900
C 	C 	0.81091 0.77459 0.72561 -0.10100
C 	C 	0.81188 0.76995 0.76650 0.01300
H 	H 	0.82632 0.74914 0.77439 0.04300
C 	C 	0.79308 0.79150 0.79769 -0.02900
H 	H 	0.79241 0.78646 0.82959 0.06400
C 	C 	0.77357 0.81797 0.78798 -0.02800
C 	C 	0.80103 0.86944 0.71676 -0.07300
H 	H 	0.86264 0.86093 0.67122 0.06000
H 	H 	0.83003 0.89814 0.72522 0.06100
H 	H 	0.80882 0.84157 0.65558 0.05600
H 	H 	0.77598 0.87882 0.70993 0.05300
C 	C 	0.82203 0.84552 0.68196 -0.09100
