data_crystal

_cell_length_a 88.68292
_cell_length_b 91.37951
_cell_length_c 15.24003
_cell_angle_alpha 90.02319
_cell_angle_beta  89.97218
_cell_angle_gamma 125.21795

_symmetry_space_group_name_	'P 1'
_symmetry_space_group_name_H-M	'P 1'

loop_
_symmetry_equiv_pos_as_xyz
  x,y,z

loop_
_atom_site_label
_atom_site_type_symbol
_atom_site_fract_x
_atom_site_fract_y
_atom_site_fract_z
_atom_site_charge
Cu	Cu	0.73909 0.90536 0.47831 0.94300
Cu	Cu	0.75949 0.93030 0.30536 0.91200
Cu	Cu	0.75950 0.94593 0.47668 0.91000
Cu	Cu	0.74899 0.92752 0.65468 0.92600
C 	C 	0.74270 0.89225 0.64132 0.38800
O 	O 	0.71500 0.90007 0.52481 -0.31400
C 	C 	0.76110 0.96268 0.30937 0.38100
O 	O 	0.76012 0.92855 0.54627 -0.63100
O 	O 	0.74274 0.92448 0.40245 -0.63700
O 	O 	0.74203 0.89176 0.38583 -0.31500
O 	O 	0.76874 0.91651 0.33406 -0.38000
O 	O 	0.73844 0.90206 0.68266 -0.32300
O 	O 	0.77491 0.96658 0.55324 -0.32000
C 	C 	0.77258 0.96656 0.63887 0.38700
C 	C 	0.71348 0.91287 0.55186 0.38200
O 	O 	0.72790 0.92783 0.58397 -0.33800
O 	O 	0.76831 0.95267 0.68693 -0.33000
O 	O 	0.74017 0.88962 0.55609 -0.30900
C 	C 	0.75746 0.89902 0.34157 0.40900
O 	O 	0.75951 0.96246 0.39579 -0.31800
O 	O 	0.75607 0.94810 0.26508 -0.32900
H 	H 	0.77245 0.93082 0.55071 0.20500
H 	H 	0.73130 0.92326 0.38519 0.23400
Cu	Cu	0.79800 0.04986 0.97917 0.88800
Cu	Cu	0.80330 0.06896 0.81154 0.93000
O 	O 	0.79354 0.08908 0.95304 -0.33700
C 	C 	0.78486 0.02855 0.13793 0.38500
O 	O 	0.80015 0.06784 0.06276 -0.59800
O 	O 	0.79788 0.03322 0.90007 -0.34000
C 	C 	0.79471 0.03207 0.81484 0.39400
C 	C 	0.77848 0.07463 0.92136 0.37300
O 	O 	0.77912 0.06178 0.88725 -0.35000
O 	O 	0.79908 0.04620 0.76791 -0.31600
O 	O 	0.78165 0.02945 0.05434 -0.27800
O 	O 	0.79213 0.04269 0.18941 -0.33800
H 	H 	0.78806 0.06511 0.08091 0.23700
Cu	Cu	0.56999 0.06013 0.32252 0.94400
Cu	Cu	0.59621 0.07936 0.49423 0.91100
Cu	Cu	0.61160 0.07856 0.32021 0.91300
Cu	Cu	0.59228 0.06834 0.14507 0.93200
C 	C 	0.55711 0.06437 0.15997 0.40400
O 	O 	0.56319 0.03612 0.27821 -0.30500
C 	C 	0.62919 0.08085 0.48800 0.38100
O 	O 	0.59396 0.07971 0.25225 -0.63200
O 	O 	0.58961 0.06305 0.39680 -0.63600
O 	O 	0.55743 0.06490 0.41462 -0.30600
O 	O 	0.58416 0.09027 0.46082 -0.36600
O 	O 	0.56631 0.05922 0.11827 -0.31300
O 	O 	0.63259 0.09438 0.24455 -0.32000
C 	C 	0.63300 0.09214 0.15916 0.39300
C 	C 	0.57577 0.03386 0.25018 0.38200
O 	O 	0.59148 0.04746 0.21787 -0.33700
O 	O 	0.61833 0.08630 0.10977 -0.31300
O 	O 	0.55407 0.06165 0.24490 -0.29400
C 	C 	0.56612 0.08055 0.45378 0.38800
O 	O 	0.62927 0.07959 0.40151 -0.31800
O 	O 	0.61381 0.07496 0.53129 -0.34300
H 	H 	0.59684 0.09187 0.24672 0.21100
H 	H 	0.58790 0.05172 0.41391 0.22400
Cu	Cu	0.76247 0.14705 0.80039 0.94200
Cu	Cu	0.73577 0.14205 0.63779 0.90400
Cu	Cu	0.72092 0.12698 0.81653 0.91200
Cu	Cu	0.74179 0.13550 0.98454 0.89600
C 	C 	0.78043 0.16572 0.95836 0.22900
O 	O 	0.76334 0.12662 0.84393 -0.32100
C 	C 	0.69861 0.11123 0.65986 0.38700
O 	O 	0.74215 0.14626 0.87752 -0.64000
O 	O 	0.73998 0.13051 0.73245 -0.63300
O 	O 	0.77715 0.16419 0.70375 -0.31100
O 	O 	0.75391 0.16659 0.66509 -0.38400
O 	O 	0.76896 0.15104 0.00356 -0.22700
O 	O 	0.70284 0.12517 0.89579 -0.30500
C 	C 	0.70246 0.12280 0.98137 0.27300
C 	C 	0.74867 0.11175 0.87586 0.37300
O 	O 	0.73538 0.11194 0.91278 -0.35700
O 	O 	0.71786 0.13020 0.02735 -0.24300
O 	O 	0.78211 0.16498 0.87290 -0.27800
C 	C 	0.77149 0.17300 0.66458 0.40500
O 	O 	0.70035 0.10917 0.74408 -0.31600
O 	O 	0.71311 0.11971 0.60752 -0.34700
H 	H 	0.74254 0.15727 0.88316 0.20600
H 	H 	0.73820 0.11918 0.71478 0.23000
Cu	Cu	0.51823 0.92620 0.14349 0.94400
Cu	Cu	0.53289 0.92200 0.95381 0.88800
Cu	Cu	0.54699 0.91803 0.14953 0.92700
Cu	Cu	0.53577 0.92546 0.32406 0.92500
C 	C 	0.50140 0.92400 0.30776 0.38900
O 	O 	0.53204 0.95202 0.17981 -0.29800
C 	C 	0.56034 0.91473 0.98606 0.29500
O 	O 	0.52653 0.91273 0.21795 -0.63900
O 	O 	0.53983 0.93124 0.07406 -0.60100
O 	O 	0.49821 0.91336 0.05422 -0.26900
O 	O 	0.51582 0.92795 0.93374 -0.35900
O 	O 	0.51189 0.92144 0.35778 -0.31400
O 	O 	0.55200 0.90421 0.22424 -0.30000
C 	C 	0.55369 0.90605 0.31038 0.38000
C 	C 	0.54736 0.96007 0.22549 0.39100
O 	O 	0.55355 0.95101 0.25574 -0.33700
O 	O 	0.55298 0.91845 0.35100 -0.31900
O 	O 	0.49859 0.91926 0.22409 -0.30200
C 	C 	0.50004 0.92009 0.97563 0.31700
O 	O 	0.56465 0.92003 0.06790 -0.25900
O 	O 	0.55462 0.92213 0.93417 -0.33600
H 	H 	0.51710 0.89972 0.22583 0.21100
H 	H 	0.54991 0.94419 0.07263 0.22600
Cu	Cu	0.60925 0.84296 0.66617 0.94300
Cu	Cu	0.58967 0.84742 0.83632 0.90700
Cu	Cu	0.59154 0.86320 0.65918 0.91200
Cu	Cu	0.60230 0.85540 0.48701 0.93200
C 	C 	0.60682 0.82570 0.50409 0.39400
O 	O 	0.63436 0.86301 0.62194 -0.32200
C 	C 	0.58798 0.87777 0.82283 0.38000
O 	O 	0.58985 0.84427 0.59361 -0.63300
O 	O 	0.60686 0.85934 0.73878 -0.63500
O 	O 	0.60527 0.82617 0.76063 -0.32400
O 	O 	0.57939 0.82283 0.81228 -0.38600
O 	O 	0.61165 0.84049 0.46271 -0.31000
O 	O 	0.57598 0.86577 0.58057 -0.33400
C 	C 	0.57899 0.86897 0.49564 0.39600
C 	C 	0.63787 0.87812 0.59124 0.38800
O 	O 	0.62447 0.87861 0.55827 -0.33900
O 	O 	0.58489 0.86119 0.44753 -0.31200
O 	O 	0.60680 0.82502 0.59058 -0.30600
C 	C 	0.58999 0.81715 0.80643 0.41100
O 	O 	0.59105 0.87988 0.73734 -0.31100
O 	O 	0.59334 0.86950 0.87056 -0.34600
H 	H 	0.57719 0.83325 0.58730 0.20700
H 	H 	0.61869 0.87061 0.75558 0.22400
Cu	Cu	0.80192 0.74472 0.48576 0.94100
Cu	Cu	0.81998 0.74699 0.30147 0.93400
C 	C 	0.78974 0.75125 0.32621 0.38300
O 	O 	0.78960 0.71886 0.44665 -0.30200
O 	O 	0.82018 0.74423 0.55595 -0.64000
O 	O 	0.79313 0.75309 0.58123 -0.30100
O 	O 	0.82228 0.77604 0.61936 -0.37800
O 	O 	0.79570 0.74313 0.28194 -0.31000
C 	C 	0.79917 0.71323 0.41384 0.37900
O 	O 	0.81528 0.72464 0.37715 -0.34400
O 	O 	0.78780 0.74952 0.41209 -0.29600
C 	C 	0.80441 0.76832 0.62249 0.38300
H 	H 	0.81620 0.73220 0.57615 0.22600
Cu	Cu	0.74908 0.79252 0.98313 0.90800
Cu	Cu	0.76505 0.82081 0.81997 0.90300
Cu	Cu	0.75831 0.83022 0.99217 0.87800
Cu	Cu	0.75196 0.81080 0.16543 0.92700
C 	C 	0.75785 0.78229 0.14233 0.38300
O 	O 	0.72269 0.77959 0.02706 -0.26700
C 	C 	0.75408 0.84495 0.82951 0.38900
O 	O 	0.76488 0.81648 0.05732 -0.59900
O 	O 	0.74676 0.80911 0.91255 -0.65100
O 	O 	0.75791 0.78439 0.88685 -0.33100
O 	O 	0.78027 0.81289 0.84527 -0.39900
O 	O 	0.74944 0.78795 0.18751 -0.31100
O 	O 	0.76930 0.85027 0.07337 -0.29600
C 	C 	0.76505 0.84857 0.15743 0.38400
C 	C 	0.71624 0.78832 0.05969 0.37300
O 	O 	0.72754 0.80425 0.09467 -0.32100
O 	O 	0.76411 0.83600 0.20507 -0.31300
O 	O 	0.75567 0.78009 0.05668 -0.27400
C 	C 	0.77328 0.79574 0.84433 0.40800
O 	O 	0.75302 0.84397 0.91621 -0.33600
O 	O 	0.75468 0.83320 0.78195 -0.35000
H 	H 	0.77833 0.82228 0.06246 0.21500
H 	H 	0.73407 0.80463 0.89426 0.22400
Cu	Cu	0.62005 0.55142 0.81725 0.94100
Cu	Cu	0.60143 0.52565 0.98952 0.87700
Cu	Cu	0.58523 0.51349 0.80836 0.91200
Cu	Cu	0.60280 0.53143 0.63703 0.92400
C 	C 	0.64207 0.56086 0.66306 0.39200
O 	O 	0.60945 0.56367 0.76138 -0.30400
C 	C 	0.56304 0.49815 0.96679 0.20500
O 	O 	0.60863 0.52706 0.74926 -0.63500
O 	O 	0.59738 0.53520 0.88485 -0.63900
O 	O 	0.63762 0.56098 0.91682 -0.30600
O 	O 	0.62627 0.53340 0.97214 -0.38300
O 	O 	0.62711 0.55456 0.61542 -0.32200
O 	O 	0.57483 0.49239 0.73542 -0.32000
C 	C 	0.57330 0.49229 0.64924 0.39000
C 	C 	0.59282 0.55465 0.72669 0.37000
O 	O 	0.58536 0.53834 0.69649 -0.33900
O 	O 	0.58624 0.50577 0.60075 -0.31600
O 	O 	0.64194 0.56331 0.74815 -0.31300
C 	C 	0.63962 0.55053 0.96681 0.30900
O 	O 	0.56311 0.49952 0.88053 -0.27300
O 	O 	0.57559 0.51175 0.01549 -0.24800
H 	H 	0.61540 0.52144 0.74931 0.20400
H 	H 	0.58964 0.53962 0.89532 0.20400
Cu	Cu	0.73030 0.60470 0.31728 0.94500
Cu	Cu	0.74190 0.59343 0.13935 0.91300
Cu	Cu	0.76011 0.59793 0.31362 0.91500
Cu	Cu	0.74832 0.60224 0.49033 0.92200
C 	C 	0.71084 0.59388 0.47997 0.39300
O 	O 	0.74558 0.62980 0.36644 -0.31600
C 	C 	0.77829 0.60193 0.14637 0.40800
O 	O 	0.73862 0.59006 0.38231 -0.63700
O 	O 	0.75055 0.60920 0.24130 -0.63300
O 	O 	0.71114 0.59625 0.22554 -0.29900
O 	O 	0.71650 0.57681 0.16738 -0.36200
O 	O 	0.72676 0.60267 0.52199 -0.31800
O 	O 	0.76754 0.58536 0.38327 -0.32600
C 	C 	0.77090 0.58754 0.46844 0.38800
C 	C 	0.76248 0.63733 0.39523 0.39500
O 	O 	0.76786 0.62739 0.42275 -0.34900
O 	O 	0.76204 0.59165 0.52164 -0.32600
O 	O 	0.71012 0.59625 0.39525 -0.30900
C 	C 	0.70577 0.58227 0.17642 0.39100
O 	O 	0.77993 0.60380 0.23254 -0.31100
O 	O 	0.76681 0.60403 0.10304 -0.34100
H 	H 	0.72972 0.57689 0.38672 0.21200
H 	H 	0.76007 0.62194 0.22740 0.23500
Cu	Cu	0.54980 0.61534 0.63224 0.94200
Cu	Cu	0.52286 0.59695 0.46200 0.91400
Cu	Cu	0.51227 0.57927 0.63709 0.91200
Cu	Cu	0.53054 0.59671 0.81192 0.92300
C 	C 	0.55911 0.63549 0.79137 0.39700
O 	O 	0.56395 0.60603 0.68212 -0.29900
C 	C 	0.49932 0.55866 0.47155 0.38700
O 	O 	0.52458 0.60170 0.70159 -0.63000
O 	O 	0.53444 0.59370 0.56061 -0.63500
O 	O 	0.55767 0.63302 0.53603 -0.31700
O 	O 	0.52836 0.61993 0.48709 -0.37800
O 	O 	0.55367 0.62076 0.83482 -0.33100
O 	O 	0.49141 0.56497 0.71700 -0.31500
C 	C 	0.49276 0.56478 0.80329 0.39000
C 	C 	0.55546 0.58952 0.71187 0.36500
O 	O 	0.53884 0.58134 0.74600 -0.33500
O 	O 	0.50449 0.57964 0.84663 -0.33300
O 	O 	0.56072 0.63609 0.70535 -0.30200
C 	C 	0.54557 0.63394 0.49169 0.40400
O 	O 	0.49954 0.55843 0.55848 -0.31300
O 	O 	0.51209 0.57282 0.42644 -0.34100
H 	H 	0.51770 0.60720 0.70391 0.20200
H 	H 	0.54019 0.58743 0.54521 0.21400
Cu	Cu	0.60279 0.72040 0.14769 0.94600
Cu	Cu	0.59144 0.73345 0.32001 0.91300
Cu	Cu	0.59772 0.75063 0.14505 0.91600
Cu	Cu	0.60230 0.73818 0.97121 0.89900
C 	C 	0.59238 0.70118 0.98497 0.30100
O 	O 	0.62902 0.73432 0.10237 -0.29500
C 	C 	0.60344 0.76993 0.30997 0.38400
O 	O 	0.58907 0.72941 0.07795 -0.61300
O 	O 	0.60811 0.74066 0.22091 -0.63500
O 	O 	0.59213 0.70181 0.24096 -0.31200
O 	O 	0.57315 0.70914 0.29071 -0.38100
O 	O 	0.60197 0.71664 0.94300 -0.31500
O 	O 	0.58604 0.75857 0.07096 -0.25200
C 	C 	0.58937 0.76202 0.98632 0.29300
C 	C 	0.63752 0.75078 0.07266 0.37700
O 	O 	0.62796 0.75652 0.04174 -0.31200
O 	O 	0.59271 0.75246 0.93520 -0.31000
O 	O 	0.59360 0.70045 0.07092 -0.23600
C 	C 	0.57749 0.69767 0.28534 0.40300
O 	O 	0.60445 0.77054 0.22328 -0.30200
O 	O 	0.60400 0.75793 0.35493 -0.33800
H 	H 	0.57548 0.72122 0.07196 0.22200
H 	H 	0.62126 0.74953 0.23598 0.23600
Cu	Cu	0.29254 0.88289 0.14173 0.94500
Cu	Cu	0.27633 0.85773 0.31700 0.90500
Cu	Cu	0.25835 0.84439 0.13950 0.91900
Cu	Cu	0.27426 0.86220 0.96425 0.89000
C 	C 	0.31345 0.89253 0.98306 0.30500
O 	O 	0.28077 0.89440 0.08985 -0.28900
C 	C 	0.23803 0.82928 0.30439 0.38500
O 	O 	0.28117 0.85841 0.07503 -0.61200
O 	O 	0.27071 0.86640 0.21405 -0.63200
O 	O 	0.31105 0.89320 0.23740 -0.30000
O 	O 	0.30120 0.86608 0.29369 -0.36400
O 	O 	0.29804 0.88556 0.93814 -0.33000
O 	O 	0.24770 0.82327 0.06617 -0.26400
C 	C 	0.24543 0.82311 0.98049 0.30600
C 	C 	0.26402 0.88499 0.05652 0.37200
O 	O 	0.25676 0.86863 0.02762 -0.30900
O 	O 	0.25808 0.83643 0.93044 -0.32700
O 	O 	0.31385 0.89516 0.06824 -0.24300
C 	C 	0.31412 0.88328 0.28548 0.38500
O 	O 	0.23722 0.82975 0.21787 -0.30000
O 	O 	0.25081 0.84346 0.34921 -0.35200
H 	H 	0.28837 0.85324 0.07321 0.22200
H 	H 	0.26273 0.87049 0.22668 0.21200
Cu	Cu	0.40338 0.93925 0.63899 0.94300
Cu	Cu	0.41764 0.92940 0.46518 0.90800
Cu	Cu	0.43561 0.93592 0.64626 0.91400
Cu	Cu	0.42061 0.93836 0.81854 0.92600
C 	C 	0.38240 0.92795 0.79805 0.39300
O 	O 	0.41685 0.96426 0.68858 -0.31700
C 	C 	0.45416 0.93891 0.48281 0.38500
O 	O 	0.41292 0.92622 0.70941 -0.63500
O 	O 	0.42470 0.94509 0.56733 -0.63100
O 	O 	0.38499 0.93033 0.54315 -0.30100
O 	O 	0.39206 0.91196 0.48722 -0.36900
O 	O 	0.39800 0.93752 0.84232 -0.32100
O 	O 	0.44479 0.92565 0.72257 -0.31000
C 	C 	0.44649 0.92750 0.80881 0.38300
C 	C 	0.43368 0.97282 0.72016 0.39000
O 	O 	0.43981 0.96386 0.75293 -0.34900
O 	O 	0.43472 0.92861 0.85649 -0.32200
O 	O 	0.38218 0.92939 0.71211 -0.31200
C 	C 	0.38070 0.91674 0.49334 0.38600
O 	O 	0.45604 0.94249 0.56763 -0.31900
O 	O 	0.44302 0.94075 0.43474 -0.33700
H 	H 	0.40487 0.91297 0.71305 0.20500
H 	H 	0.43345 0.95796 0.55309 0.23100
Cu	Cu	0.21762 0.94298 0.95876 0.90700
Cu	Cu	0.18861 0.92261 0.79610 0.90200
Cu	Cu	0.18044 0.90686 0.97211 0.88200
Cu	Cu	0.20030 0.92496 0.14312 0.92400
C 	C 	0.22717 0.96367 0.11554 0.38800
O 	O 	0.23287 0.93449 0.00444 -0.26900
C 	C 	0.16692 0.88413 0.81528 0.38800
O 	O 	0.19318 0.92941 0.03456 -0.59900
O 	O 	0.20186 0.92080 0.89149 -0.65200
O 	O 	0.22356 0.95995 0.86087 -0.33400
O 	O 	0.19349 0.94540 0.82028 -0.39400
O 	O 	0.22299 0.94952 0.16083 -0.32100
O 	O 	0.16023 0.89321 0.05487 -0.28500
C 	C 	0.16248 0.89253 0.13994 0.39500
C 	C 	0.22508 0.91829 0.03750 0.37000
O 	O 	0.20867 0.90997 0.07406 -0.32100
O 	O 	0.17470 0.90713 0.18402 -0.32400
O 	O 	0.22898 0.96406 0.02965 -0.26200
C 	C 	0.21049 0.95988 0.81990 0.39800
O 	O 	0.16873 0.88513 0.90167 -0.33200
O 	O 	0.17777 0.89813 0.76424 -0.35500
H 	H 	0.18619 0.93479 0.03898 0.21700
H 	H 	0.20754 0.91448 0.87552 0.20300
Cu	Cu	0.25929 0.04601 0.47306 0.94300
Cu	Cu	0.24540 0.05704 0.64354 0.91000
Cu	Cu	0.25214 0.07480 0.46974 0.91300
Cu	Cu	0.25843 0.06352 0.29656 0.93000
C 	C 	0.25155 0.02762 0.30897 0.39600
O 	O 	0.28566 0.06135 0.42996 -0.31700
C 	C 	0.25572 0.09314 0.63462 0.38800
O 	O 	0.24474 0.05393 0.40187 -0.63400
O 	O 	0.26292 0.06544 0.54726 -0.63600
O 	O 	0.24985 0.02734 0.56559 -0.31900
O 	O 	0.22899 0.03225 0.61596 -0.38700
O 	O 	0.26040 0.04329 0.26893 -0.30700
O 	O 	0.24043 0.08249 0.39357 -0.32600
C 	C 	0.24418 0.08610 0.30928 0.38500
C 	C 	0.29343 0.07786 0.40259 0.39300
O 	O 	0.28324 0.08277 0.37034 -0.34600
O 	O 	0.24736 0.07635 0.25891 -0.30600
O 	O 	0.25155 0.02653 0.39528 -0.30600
C 	C 	0.23506 0.02213 0.61162 0.40500
O 	O 	0.25787 0.09425 0.54843 -0.30700
O 	O 	0.25621 0.08120 0.68075 -0.34900
H 	H 	0.23124 0.04526 0.39449 0.20800
H 	H 	0.27583 0.07469 0.56463 0.23100
Cu	Cu	0.40447 0.12039 0.31514 0.94500
Cu	Cu	0.41663 0.14617 0.14270 0.91000
Cu	Cu	0.41233 0.15758 0.31720 0.91300
Cu	Cu	0.40871 0.14013 0.49410 0.92200
C 	C 	0.41532 0.11211 0.47386 0.39100
O 	O 	0.37868 0.10736 0.36663 -0.30200
C 	C 	0.40539 0.17000 0.15394 0.40700
O 	O 	0.42042 0.14511 0.38287 -0.62900
O 	O 	0.40035 0.13562 0.24320 -0.63600
O 	O 	0.41288 0.11188 0.21881 -0.29000
O 	O 	0.43333 0.14001 0.16657 -0.36200
O 	O 	0.40692 0.11775 0.51907 -0.32700
O 	O 	0.42316 0.17829 0.39435 -0.32500
C 	C 	0.42020 0.17715 0.47969 0.39100
C 	C 	0.37210 0.11614 0.39689 0.37900
O 	O 	0.38333 0.13237 0.42899 -0.33900
O 	O 	0.42099 0.16560 0.52758 -0.32700
O 	O 	0.41269 0.10938 0.38870 -0.30700
C 	C 	0.42738 0.12313 0.17051 0.38300
O 	O 	0.40519 0.16981 0.24081 -0.31400
O 	O 	0.40496 0.15751 0.10804 -0.34500
H 	H 	0.43397 0.15134 0.38461 0.20700
H 	H 	0.38729 0.13050 0.22942 0.23400
Cu	Cu	0.46174 0.07623 0.81244 0.94100
Cu	Cu	0.49199 0.09608 0.96923 0.88200
Cu	Cu	0.50197 0.08909 0.80209 0.90400
Cu	Cu	0.48129 0.08180 0.62823 0.93700
C 	C 	0.44909 0.08268 0.65466 0.38400
O 	O 	0.45184 0.05117 0.76790 -0.30400
C 	C 	0.51631 0.08486 0.96849 0.23200
O 	O 	0.48600 0.09360 0.73773 -0.62800
O 	O 	0.48053 0.07694 0.88350 -0.64600
O 	O 	0.45134 0.08266 0.90888 -0.29600
O 	O 	0.47961 0.10712 0.94717 -0.37200
O 	O 	0.45616 0.07579 0.60899 -0.31500
O 	O 	0.52233 0.09949 0.71759 -0.31700
C 	C 	0.52007 0.09678 0.63206 0.37600
C 	C 	0.46282 0.04718 0.73477 0.37800
O 	O 	0.47852 0.05967 0.69778 -0.34400
O 	O 	0.50728 0.09720 0.59122 -0.30800
O 	O 	0.44671 0.08006 0.73989 -0.31100
C 	C 	0.46154 0.09785 0.95189 0.31700
O 	O 	0.51828 0.08750 0.88251 -0.30100
O 	O 	0.50541 0.08737 0.01505 -0.25400
H 	H 	0.49071 0.10639 0.73430 0.19700
H 	H 	0.47723 0.06521 0.90522 0.22300
Cu	Cu	0.26325 0.16723 0.98609 0.91800
Cu	Cu	0.24458 0.17161 0.16025 0.91800
Cu	Cu	0.24467 0.18672 0.98288 0.88500
Cu	Cu	0.25500 0.17924 0.80904 0.92600
C 	C 	0.26004 0.14989 0.82349 0.39100
O 	O 	0.28793 0.18760 0.93906 -0.34000
C 	C 	0.24185 0.20128 0.14858 0.37400
O 	O 	0.24316 0.16798 0.91648 -0.64400
O 	O 	0.26081 0.18343 0.05972 -0.59900
O 	O 	0.26007 0.15061 0.08013 -0.29000
O 	O 	0.23439 0.14703 0.13650 -0.36300
O 	O 	0.26461 0.16463 0.78241 -0.31300
O 	O 	0.22826 0.18863 0.90691 -0.35100
C 	C 	0.23056 0.19162 0.82151 0.39400
C 	C 	0.29088 0.20264 0.91073 0.37500
O 	O 	0.27717 0.20273 0.87883 -0.34900
O 	O 	0.23702 0.18449 0.77212 -0.32300
O 	O 	0.26086 0.14944 0.90975 -0.32800
C 	C 	0.24510 0.14152 0.12818 0.40900
O 	O 	0.24398 0.20311 0.06247 -0.27300
O 	O 	0.24824 0.19367 0.19405 -0.32800
H 	H 	0.23057 0.15681 0.91112 0.19800
H 	H 	0.27262 0.19486 0.07494 0.23700
Cu	Cu	0.17592 0.25650 0.46871 0.94400
Cu	Cu	0.18060 0.23739 0.29922 0.91100
Cu	Cu	0.19650 0.23915 0.47920 0.91300
Cu	Cu	0.18825 0.24951 0.64853 0.92800
C 	C 	0.15831 0.25493 0.62975 0.39600
O 	O 	0.19660 0.28071 0.51390 -0.32200
C 	C 	0.21105 0.23462 0.31887 0.38700
O 	O 	0.17679 0.23747 0.54209 -0.63600
O 	O 	0.19281 0.25398 0.39754 -0.63200
O 	O 	0.15913 0.25334 0.37308 -0.31800
O 	O 	0.15530 0.22816 0.31955 -0.37700
O 	O 	0.17337 0.25917 0.67154 -0.31900
O 	O 	0.19851 0.22350 0.55713 -0.31100
C 	C 	0.20065 0.22533 0.64322 0.38500
C 	C 	0.21210 0.28400 0.54488 0.38800
O 	O 	0.21244 0.27092 0.57820 -0.34400
O 	O 	0.19363 0.23226 0.68993 -0.32200
O 	O 	0.15744 0.25428 0.54329 -0.30900
C 	C 	0.14996 0.23888 0.32458 0.40800
O 	O 	0.21396 0.23895 0.40277 -0.32100
O 	O 	0.20305 0.23994 0.26797 -0.33300
H 	H 	0.16542 0.22518 0.54811 0.20700
H 	H 	0.20449 0.26543 0.38104 0.23000
Cu	Cu	0.39195 0.23179 0.80375 0.94200
Cu	Cu	0.41501 0.25833 0.63833 0.90500
Cu	Cu	0.41363 0.27228 0.81358 0.91100
Cu	Cu	0.40095 0.25261 0.98459 0.89300
C 	C 	0.39356 0.21696 0.96518 0.21200
O 	O 	0.36780 0.22691 0.84570 -0.32400
C 	C 	0.41969 0.29207 0.65307 0.38800
O 	O 	0.41281 0.25381 0.87852 -0.64000
O 	O 	0.39728 0.25209 0.73184 -0.63400
O 	O 	0.39518 0.21868 0.70980 -0.31600
O 	O 	0.42290 0.24344 0.66743 -0.38600
O 	O 	0.38941 0.22675 0.00773 -0.21700
O 	O 	0.43075 0.29176 0.89125 -0.29300
C 	C 	0.42821 0.29210 0.97635 0.22200
C 	C 	0.36652 0.23969 0.87534 0.37500
O 	O 	0.38094 0.25420 0.91077 -0.35800
O 	O 	0.42049 0.27742 0.02448 -0.22600
O 	O 	0.39133 0.21484 0.87956 -0.28000
C 	C 	0.41102 0.22596 0.66915 0.40900
O 	O 	0.41543 0.29022 0.73718 -0.31800
O 	O 	0.41411 0.27801 0.60302 -0.34500
H 	H 	0.42490 0.25564 0.88512 0.20200
H 	H 	0.38632 0.25160 0.71273 0.23200
Cu	Cu	0.48787 0.41976 0.31810 0.94500
Cu	Cu	0.48439 0.39675 0.49021 0.91100
Cu	Cu	0.46835 0.37938 0.31427 0.91300
Cu	Cu	0.47545 0.39799 0.14091 0.93600
C 	C 	0.50470 0.43703 0.15485 0.41300
O 	O 	0.46640 0.41956 0.27301 -0.31900
C 	C 	0.45386 0.35996 0.48034 0.38100
O 	O 	0.48740 0.39969 0.24739 -0.63300
O 	O 	0.47167 0.39867 0.39193 -0.63400
O 	O 	0.50521 0.43589 0.41140 -0.31300
O 	O 	0.50945 0.41520 0.46295 -0.38300
O 	O 	0.48952 0.42414 0.11508 -0.31200
O 	O 	0.46613 0.36125 0.23718 -0.32200
C 	C 	0.46323 0.36030 0.15167 0.40600
C 	C 	0.45099 0.40486 0.24552 0.38300
O 	O 	0.45122 0.39166 0.21303 -0.33400
O 	O 	0.47099 0.37496 0.10342 -0.30800
O 	O 	0.50575 0.43808 0.24116 -0.31400
C 	C 	0.51489 0.43190 0.45706 0.40600
O 	O 	0.45178 0.35982 0.39437 -0.31500
O 	O 	0.46187 0.37497 0.52562 -0.34000
H 	H 	0.49900 0.40054 0.24123 0.21100
H 	H 	0.45987 0.39677 0.40865 0.22800
Cu	Cu	0.23799 0.38188 0.64642 0.94300
Cu	Cu	0.26379 0.40146 0.81978 0.91200
Cu	Cu	0.27985 0.40198 0.64527 0.91200
Cu	Cu	0.26067 0.39106 0.46966 0.93600
C 	C 	0.22452 0.38507 0.48290 0.39000
O 	O 	0.23261 0.35837 0.60192 -0.31000
C 	C 	0.29764 0.40458 0.81309 0.38400
O 	O 	0.26162 0.40211 0.57676 -0.63000
O 	O 	0.25798 0.38566 0.72115 -0.63500
O 	O 	0.22475 0.38598 0.73803 -0.31800
O 	O 	0.25104 0.41160 0.78617 -0.39100
O 	O 	0.23438 0.38056 0.44241 -0.31300
O 	O 	0.30062 0.41840 0.56985 -0.32100
C 	C 	0.30117 0.41627 0.48446 0.39100
C 	C 	0.24591 0.35698 0.57551 0.37900
O 	O 	0.26126 0.37097 0.54273 -0.33700
O 	O 	0.28643 0.41002 0.43502 -0.30600
O 	O 	0.22158 0.38257 0.56802 -0.30100
C 	C 	0.23301 0.40141 0.77904 0.40900
O 	O 	0.29795 0.40377 0.72646 -0.32000
O 	O 	0.28206 0.39792 0.85604 -0.34500
H 	H 	0.26389 0.41403 0.57110 0.21100
H 	H 	0.25687 0.37459 0.73765 0.22600
Cu	Cu	0.43105 0.47427 0.12649 0.94800
Cu	Cu	0.40409 0.46817 0.96301 0.88600
Cu	Cu	0.38945 0.45335 0.14235 0.92000
Cu	Cu	0.41044 0.46268 0.31054 0.92500
C 	C 	0.44887 0.49333 0.28395 0.38700
O 	O 	0.43263 0.45441 0.17187 -0.31300
C 	C 	0.36726 0.43684 0.98591 0.30100
O 	O 	0.41043 0.47304 0.20280 -0.63100
O 	O 	0.40872 0.45718 0.05891 -0.61300
O 	O 	0.44538 0.49123 0.02908 -0.23800
O 	O 	0.42172 0.49287 0.98920 -0.37600
O 	O 	0.43760 0.47859 0.32914 -0.31700
O 	O 	0.37115 0.45120 0.22114 -0.31100
C 	C 	0.37088 0.44899 0.30681 0.39500
C 	C 	0.41816 0.43940 0.20386 0.38400
O 	O 	0.40461 0.43921 0.24031 -0.34100
O 	O 	0.38632 0.45695 0.35277 -0.32000
O 	O 	0.45045 0.49267 0.19834 -0.28600
C 	C 	0.43943 0.49976 0.98960 0.30400
O 	O 	0.36907 0.43509 0.07043 -0.24800
O 	O 	0.38176 0.44547 0.93361 -0.34400
H 	H 	0.41048 0.48387 0.20770 0.21900
H 	H 	0.40728 0.44597 0.04212 0.23900
C 	C 	0.82399 0.58284 0.64936 0.41100
Cu	Cu	0.10018 0.80203 0.46801 0.94400
Cu	Cu	0.07558 0.79807 0.29822 0.91800
Cu	Cu	0.05843 0.78251 0.47643 0.91500
Cu	Cu	0.07780 0.78799 0.64609 0.93000
C 	C 	0.11678 0.81850 0.63189 0.38500
O 	O 	0.10126 0.78153 0.50648 -0.31600
C 	C 	0.03806 0.76913 0.31107 0.37900
O 	O 	0.07929 0.80043 0.54355 -0.63500
O 	O 	0.07812 0.78597 0.39592 -0.63000
O 	O 	0.11580 0.82017 0.37644 -0.30500
O 	O 	0.09274 0.82233 0.33223 -0.37700
O 	O 	0.10476 0.80319 0.67149 -0.31700
O 	O 	0.04047 0.78131 0.55407 -0.33200
C 	C 	0.03916 0.77843 0.63959 0.39900
C 	C 	0.08658 0.76619 0.53395 0.38300
O 	O 	0.07259 0.76555 0.56797 -0.34000
O 	O 	0.05324 0.78154 0.68711 -0.31900
O 	O 	0.11902 0.81915 0.54611 -0.30600
C 	C 	0.11036 0.82908 0.33657 0.39900
O 	O 	0.03775 0.76700 0.39695 -0.30600
O 	O 	0.05339 0.77590 0.26607 -0.33000
H 	H 	0.07996 0.81150 0.55362 0.21000
H 	H 	0.07628 0.77459 0.37878 0.22900
Cu	Cu	0.07273 0.56399 0.14006 0.94500
Cu	Cu	0.09475 0.58946 0.97091 0.88000
Cu	Cu	0.09333 0.60455 0.14230 0.91500
Cu	Cu	0.08106 0.58559 0.31686 0.93300
C 	C 	0.07463 0.55019 0.30478 0.38800
O 	O 	0.04818 0.55833 0.18080 -0.30700
C 	C 	0.09780 0.62246 0.97433 0.30300
O 	O 	0.09315 0.58680 0.21171 -0.63200
O 	O 	0.07717 0.58351 0.06446 -0.62100
O 	O 	0.07657 0.55088 0.04914 -0.31500
O 	O 	0.10389 0.57578 0.00415 -0.35500
O 	O 	0.07011 0.55999 0.34405 -0.31800
O 	O 	0.10968 0.62463 0.21936 -0.31400
C 	C 	0.10693 0.62504 0.30425 0.38800
C 	C 	0.04628 0.57085 0.20804 0.38400
O 	O 	0.06046 0.58587 0.24117 -0.33900
O 	O 	0.10015 0.61065 0.35357 -0.31200
O 	O 	0.07309 0.54796 0.21900 -0.29100
C 	C 	0.09264 0.55826 0.01065 0.47600
O 	O 	0.09552 0.62215 0.06032 -0.26100
O 	O 	0.09211 0.60771 0.93010 -0.34100
H 	H 	0.10540 0.58901 0.21926 0.20900
H 	H 	0.06594 0.58245 0.04479 0.23700
Cu	Cu	0.15954 0.75077 0.65158 0.94400
Cu	Cu	0.15661 0.72674 0.81872 0.90000
Cu	Cu	0.14171 0.71079 0.64034 0.91400
Cu	Cu	0.14895 0.73024 0.47003 0.92700
C 	C 	0.17768 0.76909 0.49185 0.38700
O 	O 	0.13768 0.74987 0.60598 -0.32400
C 	C 	0.12726 0.68951 0.79967 0.38900
O 	O 	0.16055 0.73183 0.57761 -0.63400
O 	O 	0.14367 0.72892 0.72179 -0.63300
O 	O 	0.17607 0.76646 0.74805 -0.32100
O 	O 	0.18146 0.74624 0.79444 -0.39100
O 	O 	0.16293 0.75652 0.44818 -0.31000
O 	O 	0.14143 0.69391 0.56244 -0.32000
C 	C 	0.13832 0.69292 0.47729 0.39400
C 	C 	0.12283 0.73513 0.57468 0.38600
O 	O 	0.12397 0.72264 0.53982 -0.34000
O 	O 	0.14511 0.70753 0.42956 -0.31600
O 	O 	0.17734 0.77011 0.57807 -0.30900
C 	C 	0.18611 0.76271 0.79225 0.41400
O 	O 	0.12478 0.69045 0.71505 -0.31300
O 	O 	0.13479 0.70380 0.85035 -0.35500
H 	H 	0.17246 0.73325 0.57241 0.21200
H 	H 	0.13154 0.72630 0.73844 0.22700
Cu	Cu	0.05775 0.26240 0.99445 0.91300
Cu	Cu	0.06899 0.25105 0.81572 0.90100
Cu	Cu	0.08631 0.25407 0.99012 0.88400
Cu	Cu	0.07420 0.25794 0.16695 0.92800
C 	C 	0.03804 0.25322 0.15675 0.39000
O 	O 	0.07387 0.28703 0.04814 -0.29300
C 	C 	0.10503 0.25848 0.82413 0.38500
O 	O 	0.06463 0.24648 0.05721 -0.60800
O 	O 	0.07782 0.26641 0.91901 -0.65000
O 	O 	0.03929 0.25584 0.90124 -0.31900
O 	O 	0.04320 0.23570 0.83871 -0.38300
O 	O 	0.05388 0.26044 0.19847 -0.30900
O 	O 	0.09298 0.24077 0.05910 -0.28400
C 	C 	0.09602 0.24265 0.14453 0.38000
C 	C 	0.09071 0.29369 0.07522 0.40300
O 	O 	0.09513 0.28299 0.10266 -0.33500
O 	O 	0.08625 0.24567 0.19750 -0.30900
O 	O 	0.03740 0.25413 0.07066 -0.28600
C 	C 	0.03357 0.24238 0.84763 0.38400
O 	O 	0.10630 0.25991 0.91052 -0.32700
O 	O 	0.09380 0.26088 0.78034 -0.34600
H 	H 	0.05530 0.23335 0.05964 0.21600
H 	H 	0.08773 0.27910 0.90626 0.22600
Cu	Cu	0.08083 0.45200 0.64774 0.94500
Cu	Cu	0.10032 0.48182 0.49251 0.90400
Cu	Cu	0.09334 0.49079 0.66160 0.90500
Cu	Cu	0.08613 0.47033 0.83305 0.92600
C 	C 	0.08789 0.43949 0.80388 0.38900
O 	O 	0.05487 0.44140 0.69309 -0.30500
C 	C 	0.08846 0.50520 0.49826 0.39100
O 	O 	0.09838 0.47542 0.72357 -0.63000
O 	O 	0.08079 0.47014 0.57934 -0.63800
O 	O 	0.08812 0.44290 0.54929 -0.30400
O 	O 	0.11285 0.47091 0.51466 -0.38600
O 	O 	0.08068 0.44613 0.85074 -0.32400
O 	O 	0.10460 0.51044 0.74616 -0.30800
C 	C 	0.10182 0.50838 0.83171 0.35100
C 	C 	0.05019 0.45145 0.72811 0.38100
O 	O 	0.06274 0.46683 0.76513 -0.35100
O 	O 	0.10146 0.49552 0.87287 -0.32600
O 	O 	0.08545 0.43765 0.71831 -0.30800
C 	C 	0.10400 0.45347 0.50903 0.40900
O 	O 	0.09094 0.50654 0.58445 -0.32600
O 	O 	0.09098 0.49477 0.44994 -0.34400
H 	H 	0.11163 0.48021 0.72689 0.20100
H 	H 	0.06858 0.46678 0.55894 0.23700
Cu	Cu	0.13052 0.40090 0.14813 0.94400
Cu	Cu	0.16119 0.41950 0.30546 0.91100
Cu	Cu	0.17020 0.41206 0.13376 0.91300
Cu	Cu	0.14804 0.40261 0.96328 0.90700
C 	C 	0.11770 0.40656 0.98840 0.30400
O 	O 	0.11839 0.37502 0.11060 -0.29200
C 	C 	0.18399 0.40663 0.29776 0.38700
O 	O 	0.15433 0.41631 0.06792 -0.60800
O 	O 	0.14910 0.40078 0.21756 -0.63800
O 	O 	0.12192 0.40945 0.24349 -0.29600
O 	O 	0.15118 0.43259 0.27863 -0.37200
O 	O 	0.12348 0.39816 0.94544 -0.32100
O 	O 	0.18986 0.42188 0.04685 -0.25400
C 	C 	0.18697 0.41662 0.96425 0.29800
C 	C 	0.12817 0.36945 0.07979 0.38300
O 	O 	0.14404 0.38076 0.04089 -0.31700
O 	O 	0.17365 0.41545 0.91910 -0.30700
O 	O 	0.11608 0.40536 0.07449 -0.24100
C 	C 	0.13331 0.42477 0.28380 0.38400
O 	O 	0.18708 0.41133 0.21401 -0.30900
O 	O 	0.17399 0.40980 0.34767 -0.34000
H 	H 	0.15949 0.42913 0.05923 0.21200
H 	H 	0.14528 0.38885 0.23859 0.22900
C 	C 	0.02264 0.44485 0.81090 0.28700
C 	C 	0.03064 0.44493 0.73107 -0.18300
C 	C 	0.01990 0.43875 0.65437 0.28700
F 	F 	0.03287 0.45078 0.88553 -0.36300
F 	F 	0.02758 0.43920 0.57641 -0.36000
C 	C 	0.11147 0.43306 0.82055 0.28900
C 	C 	0.09495 0.43033 0.84893 -0.19500
C 	C 	0.08546 0.41910 0.92120 0.30800
C 	C 	0.09267 0.41106 0.96593 0.22600
C 	C 	0.10946 0.41417 0.93881 -0.14900
C 	C 	0.11871 0.42506 0.86534 0.26400
F 	F 	0.13501 0.42832 0.83895 -0.37800
F 	F 	0.12077 0.44389 0.75091 -0.36000
F 	F 	0.08319 0.39999 0.03460 -0.27700
F 	F 	0.06908 0.41573 0.94707 -0.35600
C 	C 	0.12774 0.44788 0.47495 0.29400
C 	C 	0.11126 0.44580 0.45262 -0.19100
C 	C 	0.10214 0.43704 0.37437 0.29000
C 	C 	0.10951 0.43049 0.31839 0.28900
C 	C 	0.12595 0.43240 0.34094 -0.18000
C 	C 	0.13499 0.44110 0.41986 0.28200
F 	F 	0.15054 0.44258 0.44426 -0.37900
F 	F 	0.13660 0.45626 0.55072 -0.34700
F 	F 	0.10086 0.42260 0.24149 -0.33100
F 	F 	0.08633 0.43520 0.35163 -0.35200
C 	C 	0.10316 0.32167 0.15935 0.29900
C 	C 	0.10380 0.31315 0.08422 -0.19200
C 	C 	0.11402 0.32342 0.01100 0.33500
C 	C 	0.12240 0.34189 0.01032 0.33200
C 	C 	0.12074 0.35028 0.08343 -0.18400
C 	C 	0.11160 0.34017 0.15903 0.29100
F 	F 	0.11072 0.34824 0.23179 -0.35900
F 	F 	0.09357 0.31187 0.23115 -0.35600
F 	F 	0.13134 0.35149 0.93700 -0.40800
F 	F 	0.11498 0.31533 0.93856 -0.41900
C 	C 	0.01591 0.23616 0.27832 0.28600
C 	C 	0.02160 0.24806 0.20752 -0.17400
C 	C 	0.01107 0.25444 0.18317 0.29400
C 	C 	0.99951 0.23020 0.32251 0.28700
F 	F 	0.99391 0.21840 0.38981 -0.37000
F 	F 	0.02600 0.22996 0.30256 -0.36700
F 	F 	0.01691 0.26666 0.11772 -0.32900
C 	C 	0.99710 0.24184 0.71591 0.28300
C 	C 	0.01298 0.24794 0.76505 0.28600
C 	C 	0.01732 0.23601 0.79113 -0.19200
C 	C 	0.00594 0.21800 0.76418 0.28300
F 	F 	0.00980 0.20624 0.78926 -0.37100
F 	F 	0.02427 0.26556 0.78665 -0.35600
F 	F 	0.99270 0.25342 0.69570 -0.35100
C 	C 	0.09328 0.51795 0.96608 0.12200
C 	C 	0.10212 0.52232 0.88376 -0.11600
C 	C 	0.10977 0.53951 0.84847 0.23600
C 	C 	0.10733 0.55156 0.89151 0.34200
C 	C 	0.09763 0.54676 0.97142 -0.35700
C 	C 	0.09131 0.53019 0.01007 0.47200
F 	F 	0.08297 0.52581 0.08988 -0.36500
F 	F 	0.08595 0.50155 0.00202 -0.28800
F 	F 	0.11383 0.56764 0.85385 -0.39200
F 	F 	0.11948 0.54454 0.77228 -0.33800
C 	C 	0.06708 0.52000 0.33977 0.30100
C 	C 	0.07716 0.53840 0.35836 -0.17800
C 	C 	0.09006 0.54562 0.42710 0.28400
C 	C 	0.09337 0.53467 0.47474 0.28700
C 	C 	0.08374 0.51638 0.45420 -0.18000
C 	C 	0.07034 0.50903 0.38758 0.29100
F 	F 	0.06042 0.49124 0.36948 -0.34000
F 	F 	0.05401 0.51271 0.27595 -0.32400
F 	F 	0.10644 0.54197 0.53862 -0.34700
F 	F 	0.09985 0.56339 0.44572 -0.37400
C 	C 	0.12258 0.66002 0.80909 0.29500
C 	C 	0.11847 0.67179 0.84029 -0.19600
C 	C 	0.10649 0.66680 0.91204 0.30900
C 	C 	0.09917 0.65040 0.95406 0.21600
C 	C 	0.10397 0.63895 0.92531 -0.14500
C 	C 	0.11549 0.64374 0.85171 0.26600
F 	F 	0.12038 0.63292 0.82349 -0.36900
F 	F 	0.13401 0.66466 0.73921 -0.36900
F 	F 	0.08724 0.64554 0.02195 -0.29500
F 	F 	0.10180 0.67777 0.94042 -0.36700
C 	C 	0.13986 0.67423 0.36264 0.29400
C 	C 	0.13043 0.67564 0.43260 -0.17600
C 	C 	0.11340 0.66043 0.46033 0.29400
C 	C 	0.10570 0.64400 0.41791 0.28900
C 	C 	0.11510 0.64253 0.34793 -0.17100
C 	C 	0.13228 0.65774 0.32068 0.29200
F 	F 	0.14185 0.65645 0.25525 -0.34800
F 	F 	0.15658 0.68873 0.33676 -0.35100
F 	F 	0.08895 0.62956 0.44380 -0.35400
F 	F 	0.10412 0.66166 0.52758 -0.35400
C 	C 	0.09221 0.74500 0.46774 0.29100
C 	C 	0.08748 0.75070 0.54175 -0.18100
C 	C 	0.08884 0.74511 0.62536 0.28900
C 	C 	0.09817 0.73704 0.63583 0.28700
C 	C 	0.10605 0.73450 0.56269 -0.18100
C 	C 	0.10144 0.73682 0.47821 0.29400
F 	F 	0.10782 0.73317 0.40649 -0.35300
F 	F 	0.08961 0.74906 0.38597 -0.35800
F 	F 	0.10129 0.73350 0.71773 -0.37200
F 	F 	0.08308 0.74938 0.69727 -0.37100
C 	C 	0.00672 0.77857 0.80032 0.28700
C 	C 	0.02294 0.78340 0.75726 0.28700
C 	C 	0.02212 0.77344 0.68481 -0.18300
C 	C 	0.00494 0.75867 0.65547 0.28800
F 	F 	0.00399 0.74887 0.58595 -0.34100
F 	F 	0.03943 0.79800 0.78475 -0.35800
F 	F 	0.00770 0.78865 0.86855 -0.35400
C 	C 	0.00447 0.76709 0.15138 0.28800
C 	C 	0.00387 0.74746 0.29428 0.29500
C 	C 	0.02077 0.76258 0.26396 -0.17700
C 	C 	0.02097 0.77224 0.19165 0.28800
F 	F 	0.03712 0.78706 0.16259 -0.36400
F 	F 	0.00484 0.77674 0.08259 -0.33300
F 	F 	0.00349 0.73752 0.36164 -0.32800
C 	C 	0.02000 0.56584 0.29537 0.29100
C 	C 	0.02772 0.56687 0.21317 -0.17900
C 	C 	0.01668 0.56141 0.13757 0.29400
F 	F 	0.02413 0.56283 0.05747 -0.35500
F 	F 	0.03060 0.57134 0.36878 -0.36100
C 	C 	0.21857 0.40232 0.91688 0.31000
C 	C 	0.22202 0.40615 0.82703 -0.20700
C 	C 	0.21510 0.41462 0.78353 0.30500
C 	C 	0.20445 0.41895 0.82922 0.26600
C 	C 	0.20036 0.41451 0.91871 -0.13900
C 	C 	0.20774 0.40641 0.96251 0.21000
F 	F 	0.20383 0.40187 0.04851 -0.30400
F 	F 	0.22541 0.39430 0.95964 -0.39600
F 	F 	0.19821 0.42754 0.78672 -0.34900
F 	F 	0.21867 0.41866 0.69692 -0.36700
C 	C 	0.21284 0.40840 0.32172 0.29700
C 	C 	0.19401 0.40007 0.33940 -0.17200
C 	C 	0.18496 0.38601 0.40055 0.28900
C 	C 	0.19481 0.38077 0.44599 0.30000
C 	C 	0.21377 0.38951 0.43044 -0.17700
C 	C 	0.22266 0.40310 0.36692 0.29000
F 	F 	0.24099 0.41164 0.35141 -0.36800
F 	F 	0.22180 0.42210 0.26327 -0.33700
F 	F 	0.18589 0.36711 0.50462 -0.34000
F 	F 	0.16661 0.37738 0.41566 -0.35100
C 	C 	0.32758 0.40805 0.83097 0.29800
C 	C 	0.31455 0.41086 0.86310 -0.19300
C 	C 	0.31833 0.42079 0.94051 0.30300
C 	C 	0.33527 0.42855 0.98282 0.21200
C 	C 	0.34870 0.42670 0.94761 -0.14700
C 	C 	0.34463 0.41605 0.87279 0.27200
F 	F 	0.35718 0.41340 0.84085 -0.35200
F 	F 	0.32367 0.39753 0.75957 -0.35300
F 	F 	0.33898 0.43861 0.05592 -0.30500
F 	F 	0.30592 0.42363 0.97242 -0.39000
C 	C 	0.32109 0.41563 0.37147 0.29300
C 	C 	0.31922 0.42459 0.44098 -0.17300
C 	C 	0.33448 0.44163 0.46678 0.29200
C 	C 	0.35141 0.44959 0.42336 0.29200
C 	C 	0.35320 0.44063 0.35355 -0.17500
C 	C 	0.33796 0.42365 0.32774 0.29700
F 	F 	0.33958 0.41481 0.26087 -0.34100
F 	F 	0.30658 0.39904 0.34699 -0.34400
F 	F 	0.36590 0.46622 0.44744 -0.35400
F 	F 	0.33276 0.45070 0.53206 -0.35700
C 	C 	0.42304 0.41765 0.13744 0.29400
C 	C 	0.41868 0.42369 0.21146 -0.17900
C 	C 	0.41923 0.41751 0.29494 0.29400
C 	C 	0.42725 0.40819 0.30544 0.29000
C 	C 	0.43480 0.40514 0.23263 -0.17600
C 	C 	0.43093 0.40821 0.14803 0.29500
F 	F 	0.43691 0.40407 0.07652 -0.34600
F 	F 	0.42117 0.42233 0.05572 -0.35400
F 	F 	0.42962 0.40397 0.38731 -0.36600
F 	F 	0.41386 0.42221 0.36674 -0.36100
C 	C 	0.41903 0.31130 0.53951 0.29300
C 	C 	0.42770 0.30956 0.61179 -0.18300
C 	C 	0.44434 0.32461 0.64384 0.28700
C 	C 	0.45268 0.34113 0.60186 0.28300
C 	C 	0.44430 0.34283 0.52805 -0.17800
C 	C 	0.42722 0.32789 0.49809 0.29100
F 	F 	0.41846 0.32950 0.42975 -0.34500
F 	F 	0.40254 0.29696 0.51023 -0.34500
F 	F 	0.46925 0.35537 0.63102 -0.37800
F 	F 	0.45274 0.32308 0.71418 -0.37200
C 	C 	0.44926 0.31371 0.09243 0.22100
C 	C 	0.43747 0.30961 0.02071 0.02800
C 	C 	0.43439 0.32226 0.99163 0.09900
C 	C 	0.44273 0.33872 0.03469 0.41200
C 	C 	0.45446 0.34284 0.10673 -0.22200
C 	C 	0.45778 0.33027 0.13506 0.34000
F 	F 	0.46959 0.33425 0.20239 -0.36100
F 	F 	0.45281 0.30182 0.11953 -0.33300
F 	F 	0.43912 0.35056 0.00751 -0.35100
F 	F 	0.42298 0.31843 0.92264 -0.33700
C 	C 	0.11729 0.22840 0.30841 0.29800
C 	C 	0.13463 0.23561 0.27011 -0.19200
C 	C 	0.13823 0.24289 0.18528 0.29700
C 	C 	0.12520 0.24433 0.14207 0.28800
C 	C 	0.10835 0.23833 0.18317 -0.16200
C 	C 	0.10413 0.22960 0.26488 0.28400
F 	F 	0.08740 0.22250 0.30268 -0.35000
F 	F 	0.11350 0.22093 0.38955 -0.36300
F 	F 	0.12940 0.25248 0.06251 -0.32400
F 	F 	0.15483 0.24959 0.14695 -0.36200
C 	C 	0.12793 0.26913 0.70246 0.28900
C 	C 	0.11902 0.25794 0.77549 -0.18100
C 	C 	0.12312 0.24578 0.80035 0.28600
C 	C 	0.13583 0.24468 0.75208 0.28800
C 	C 	0.14449 0.25565 0.67837 -0.18000
C 	C 	0.14055 0.26793 0.65395 0.29500
F 	F 	0.14935 0.27906 0.58461 -0.34800
F 	F 	0.12468 0.28145 0.67979 -0.34600
F 	F 	0.13959 0.23280 0.77625 -0.37600
F 	F 	0.11446 0.23477 0.87021 -0.36800
C 	C 	0.22849 0.31022 0.64346 0.29000
C 	C 	0.22739 0.30267 0.56137 -0.18000
C 	C 	0.23670 0.31402 0.48944 0.28900
C 	C 	0.24433 0.33232 0.49595 0.29300
C 	C 	0.24281 0.33934 0.57480 -0.18100
C 	C 	0.23594 0.32848 0.64995 0.28800
F 	F 	0.23556 0.33540 0.72809 -0.37700
F 	F 	0.22048 0.29951 0.71483 -0.36700
F 	F 	0.25180 0.34288 0.42377 -0.34900
F 	F 	0.23667 0.30700 0.41082 -0.35900
C 	C 	0.32145 0.22611 0.97223 0.24000
C 	C 	0.30998 0.21823 0.89853 -0.17500
C 	C 	0.31794 0.22188 0.81468 0.29000
C 	C 	0.33705 0.23084 0.80592 0.28700
C 	C 	0.34826 0.23641 0.88093 -0.17600
C 	C 	0.34057 0.23520 0.96348 0.24500
F 	F 	0.35140 0.24135 0.03618 -0.30900
F 	F 	0.31394 0.22353 0.05329 -0.31900
F 	F 	0.34450 0.23293 0.72510 -0.36400
F 	F 	0.30702 0.21512 0.74239 -0.35800
C 	C 	0.21030 0.19129 0.70602 0.29000
C 	C 	0.22216 0.19976 0.77829 -0.18600
C 	C 	0.22653 0.21638 0.80726 0.28300
C 	C 	0.21951 0.22470 0.76316 0.28200
C 	C 	0.20788 0.21638 0.69003 -0.17500
C 	C 	0.20317 0.19954 0.66221 0.28700
F 	F 	0.19138 0.19097 0.59400 -0.34300
F 	F 	0.20543 0.17493 0.67920 -0.35600
F 	F 	0.22437 0.24104 0.79022 -0.36000
F 	F 	0.23799 0.22472 0.87679 -0.36100
C 	C 	0.22427 0.20293 0.27131 0.28400
C 	C 	0.23532 0.21073 0.19607 -0.16800
C 	C 	0.23923 0.22704 0.16414 0.29400
C 	C 	0.23155 0.23504 0.20499 0.29900
C 	C 	0.22008 0.22692 0.27863 -0.18200
C 	C 	0.21680 0.21106 0.31264 0.28500
F 	F 	0.20583 0.20317 0.38415 -0.35500
F 	F 	0.22019 0.18711 0.30250 -0.36700
F 	F 	0.23544 0.25078 0.17370 -0.32900
F 	F 	0.25066 0.23526 0.09434 -0.31200
C 	C 	0.40656 0.19444 0.49423 0.28300
C 	C 	0.41924 0.19099 0.52370 -0.18000
C 	C 	0.43000 0.19991 0.59858 0.28600
C 	C 	0.42766 0.21172 0.64494 0.29200
C 	C 	0.41450 0.21463 0.61709 -0.19400
C 	C 	0.40413 0.20612 0.54100 0.29000
F 	F 	0.39156 0.20906 0.51284 -0.36200
F 	F 	0.39611 0.18596 0.42196 -0.34900
F 	F 	0.43789 0.22003 0.71795 -0.35100
F 	F 	0.44274 0.19716 0.62628 -0.35800
C 	C 	0.41365 0.19199 0.03485 0.41000
C 	C 	0.40262 0.18237 0.10768 -0.23100
C 	C 	0.38865 0.18425 0.13434 0.34500
C 	C 	0.38568 0.19559 0.08809 0.22000
C 	C 	0.39671 0.20519 0.01499 0.02400
C 	C 	0.41072 0.20335 0.98875 0.08900
F 	F 	0.42165 0.21276 0.91907 -0.33900
F 	F 	0.42738 0.19048 0.00940 -0.36700
F 	F 	0.37174 0.19684 0.11265 -0.31900
F 	F 	0.37760 0.17469 0.20343 -0.34200
C 	C 	0.44140 0.10941 0.49541 0.28500
C 	C 	0.42391 0.10466 0.52103 -0.18400
C 	C 	0.41449 0.09237 0.58980 0.28900
C 	C 	0.42257 0.08500 0.63292 0.28800
C 	C 	0.44020 0.08991 0.60783 -0.18200
C 	C 	0.44953 0.10212 0.53873 0.28200
F 	F 	0.46667 0.10721 0.51480 -0.37800
F 	F 	0.45064 0.12131 0.42920 -0.36900
F 	F 	0.41311 0.07276 0.69760 -0.34700
F 	F 	0.39730 0.08721 0.61324 -0.35100
C 	C 	0.43461 0.09227 0.03911 0.28300
C 	C 	0.45269 0.10436 0.00707 -0.12400
C 	C 	0.46248 0.12261 0.03010 0.32400
C 	C 	0.45448 0.12858 0.08558 0.28000
C 	C 	0.43627 0.11656 0.11611 -0.17200
C 	C 	0.42638 0.09836 0.09205 0.29400
F 	F 	0.40867 0.08655 0.11887 -0.33500
F 	F 	0.42506 0.07454 0.02002 -0.31500
F 	F 	0.46454 0.14605 0.11024 -0.34400
F 	F 	0.47971 0.13464 0.99802 -0.41000
C 	C 	0.23426 0.09617 0.18229 0.29000
C 	C 	0.24160 0.09917 0.26764 -0.17100
C 	C 	0.24773 0.11534 0.31067 0.28400
C 	C 	0.24756 0.12873 0.26698 0.29100
C 	C 	0.24142 0.12618 0.17979 -0.18500
C 	C 	0.23436 0.10970 0.13838 0.29800
F 	F 	0.22805 0.10697 0.05465 -0.31900
F 	F 	0.22713 0.08022 0.14173 -0.33500
F 	F 	0.25424 0.14456 0.30792 -0.37200
F 	F 	0.25472 0.11844 0.39320 -0.35000
C 	C 	0.27162 0.13948 0.70700 0.29000
C 	C 	0.25860 0.13545 0.77267 -0.18300
C 	C 	0.24461 0.11749 0.79216 0.28400
C 	C 	0.24368 0.10369 0.74690 0.28400
C 	C 	0.25669 0.10771 0.68144 -0.17900
C 	C 	0.27063 0.12567 0.66143 0.29700
F 	F 	0.28353 0.12973 0.59961 -0.33600
F 	F 	0.28557 0.15677 0.68936 -0.34100
F 	F 	0.22999 0.08638 0.76582 -0.37500
F 	F 	0.23179 0.11344 0.85446 -0.36100
C 	C 	0.32255 0.09011 0.32038 0.29600
C 	C 	0.31359 0.08995 0.39672 -0.18400
C 	C 	0.32399 0.09927 0.47145 0.29100
C 	C 	0.34317 0.10816 0.47098 0.29200
C 	C 	0.35207 0.10770 0.39573 -0.17900
C 	C 	0.34171 0.09892 0.31987 0.28900
F 	F 	0.35020 0.09887 0.24581 -0.36500
F 	F 	0.31259 0.08120 0.24761 -0.35300
F 	F 	0.35301 0.11662 0.54469 -0.36400
F 	F 	0.31545 0.09923 0.54548 -0.37500
C 	C 	0.14640 0.86002 0.16987 0.29300
C 	C 	0.14869 0.87624 0.18860 -0.17200
C 	C 	0.13827 0.87691 0.25594 0.29000
C 	C 	0.12574 0.86149 0.30445 0.29300
C 	C 	0.12370 0.84535 0.28663 -0.18700
C 	C 	0.13405 0.84467 0.21904 0.29700
F 	F 	0.13193 0.82906 0.20018 -0.34300
F 	F 	0.15640 0.85923 0.10492 -0.32800
F 	F 	0.11573 0.86226 0.36939 -0.36300
F 	F 	0.14014 0.89245 0.27369 -0.35200
C 	C 	0.16109 0.86100 0.70680 0.29000
C 	C 	0.15461 0.86643 0.77462 -0.18500
C 	C 	0.13605 0.85526 0.80054 0.28700
C 	C 	0.12382 0.83924 0.75586 0.28000
C 	C 	0.13009 0.83422 0.68516 -0.18100
C 	C 	0.14889 0.84493 0.66236 0.28900
F 	F 	0.15534 0.83973 0.59742 -0.34900
F 	F 	0.17923 0.87126 0.68426 -0.36100
F 	F 	0.10571 0.82897 0.77873 -0.37900
F 	F 	0.12970 0.86029 0.86675 -0.37500
C 	C 	0.24717 0.98623 0.22979 0.29400
C 	C 	0.23414 0.98050 0.16220 -0.17100
C 	C 	0.22737 0.99067 0.14094 0.29700
C 	C 	0.23330 0.00625 0.18807 0.29500
C 	C 	0.24593 0.01169 0.25718 -0.17500
C 	C 	0.25302 0.00174 0.27718 0.30000
F 	F 	0.26577 0.00727 0.34172 -0.34200
F 	F 	0.25435 0.97689 0.24869 -0.33900
F 	F 	0.22642 0.01581 0.16812 -0.35400
F 	F 	0.21461 0.98513 0.07645 -0.33400
C 	C 	0.22505 0.99268 0.80751 0.28800
C 	C 	0.21516 0.97563 0.76850 -0.19300
C 	C 	0.21056 0.97382 0.67900 0.28300
C 	C 	0.21644 0.98901 0.62828 0.29200
C 	C 	0.22670 0.00607 0.66688 -0.19500
C 	C 	0.23068 0.00782 0.75701 0.28500
F 	F 	0.24057 0.02428 0.79497 -0.39000
F 	F 	0.22938 0.99459 0.89413 -0.36200
F 	F 	0.21254 0.98718 0.54117 -0.36400
F 	F 	0.20104 0.95742 0.64045 -0.38700
C 	C 	0.44356 0.99989 0.80760 0.29200
C 	C 	0.44456 0.99236 0.72933 -0.18600
C 	C 	0.45270 0.00319 0.65478 0.29000
C 	C 	0.45888 0.02115 0.65690 0.28900
C 	C 	0.45699 0.02845 0.73386 -0.17900
C 	C 	0.44970 0.01786 0.80984 0.28600
F 	F 	0.44850 0.02494 0.88565 -0.37500
F 	F 	0.43583 0.98956 0.88032 -0.36700
F 	F 	0.46601 0.03125 0.58310 -0.35400
F 	F 	0.45386 0.99608 0.57897 -0.37200
C 	C 	0.21220 0.79787 0.96700 0.20500
C 	C 	0.23050 0.80633 0.93839 -0.14500
C 	C 	0.23425 0.79932 0.86609 0.26600
C 	C 	0.21975 0.78452 0.82044 0.30200
C 	C 	0.20142 0.77662 0.84668 -0.21100
C 	C 	0.19772 0.78313 0.92108 0.30800
F 	F 	0.18005 0.77539 0.94774 -0.38700
F 	F 	0.20839 0.80437 0.03727 -0.28600
F 	F 	0.22346 0.77818 0.74912 -0.35100
F 	F 	0.25193 0.80689 0.83996 -0.35900
C 	C 	0.20419 0.80682 0.32801 0.29700
C 	C 	0.22249 0.81397 0.35231 -0.17900
C 	C 	0.22597 0.80638 0.42262 0.28500
C 	C 	0.21132 0.79171 0.46792 0.28500
C 	C 	0.19303 0.78448 0.44343 -0.17900
C 	C 	0.18951 0.79216 0.37349 0.29300
F 	F 	0.17190 0.78574 0.35116 -0.33300
F 	F 	0.20062 0.81435 0.26178 -0.32300
F 	F 	0.21489 0.78431 0.53483 -0.35400
F 	F 	0.24360 0.81301 0.44590 -0.37300
C 	C 	0.26378 0.91203 0.03547 0.29200
C 	C 	0.25394 0.89334 0.04601 -0.17200
C 	C 	0.23454 0.88280 0.04836 0.28800
C 	C 	0.22512 0.89086 0.04172 0.28700
C 	C 	0.23500 0.90965 0.03590 -0.17000
C 	C 	0.25441 0.92014 0.03206 0.29000
F 	F 	0.26426 0.93827 0.02686 -0.33000
F 	F 	0.28245 0.92234 0.02794 -0.32500
F 	F 	0.20638 0.88038 0.04058 -0.33600
F 	F 	0.22479 0.86478 0.05882 -0.34000
C 	C 	0.36125 0.90749 0.91580 0.30200
C 	C 	0.36489 0.91919 0.84629 -0.19500
C 	C 	0.35162 0.92225 0.82235 0.29900
C 	C 	0.33476 0.91347 0.86666 0.27000
C 	C 	0.33103 0.90159 0.93546 -0.14800
C 	C 	0.34440 0.89875 0.96027 0.20800
F 	F 	0.34093 0.88730 0.02675 -0.31000
F 	F 	0.37391 0.90434 0.93906 -0.39600
F 	F 	0.32222 0.91685 0.84432 -0.35000
F 	F 	0.35525 0.93406 0.75749 -0.34700
C 	C 	0.34151 0.91018 0.35808 0.28700
C 	C 	0.33147 0.89185 0.33678 -0.17700
C 	C 	0.33806 0.88181 0.36499 0.28600
C 	C 	0.35416 0.88990 0.41577 0.28700
C 	C 	0.36410 0.90821 0.43697 -0.18500
C 	C 	0.35786 0.91834 0.40609 0.29100
F 	F 	0.36774 0.93622 0.42207 -0.34400
F 	F 	0.33525 0.92007 0.33355 -0.34300
F 	F 	0.35989 0.87986 0.44553 -0.35800
F 	F 	0.32900 0.86427 0.34264 -0.35100
C 	C 	0.47050 0.52891 0.97869 0.21700
C 	C 	0.45264 0.51695 0.94463 -0.14700
C 	C 	0.44770 0.52115 0.86569 0.26600
C 	C 	0.46057 0.53697 0.82066 0.29700
C 	C 	0.47866 0.54861 0.85316 -0.19000
C 	C 	0.48348 0.54451 0.93277 0.30600
F 	F 	0.50092 0.55546 0.96462 -0.38400
F 	F 	0.47528 0.52544 0.05654 -0.28500
F 	F 	0.45540 0.54104 0.74590 -0.36000
F 	F 	0.43056 0.50970 0.83144 -0.37800
C 	C 	0.47719 0.54198 0.34954 0.29100
C 	C 	0.48647 0.54187 0.42395 -0.17600
C 	C 	0.48371 0.52579 0.45112 0.29300
C 	C 	0.47163 0.50994 0.40472 0.29300
C 	C 	0.46222 0.51005 0.33077 -0.17600
C 	C 	0.46517 0.52616 0.30308 0.29300
F 	F 	0.45599 0.52638 0.23233 -0.35000
F 	F 	0.47957 0.55738 0.32328 -0.36000
F 	F 	0.46935 0.49455 0.43047 -0.34300
F 	F 	0.49308 0.52562 0.52110 -0.34300
C 	C 	0.56315 0.66434 0.82108 0.30000
C 	C 	0.56789 0.65243 0.83992 -0.19400
C 	C 	0.58107 0.65680 0.90514 0.31300
C 	C 	0.58918 0.67280 0.95209 0.21800
C 	C 	0.58425 0.68460 0.93406 -0.13900
C 	C 	0.57134 0.68039 0.86780 0.26700
F 	F 	0.56644 0.69168 0.85008 -0.36900
F 	F 	0.55028 0.66015 0.75893 -0.35300
F 	F 	0.60212 0.67701 0.01393 -0.27800
F 	F 	0.58628 0.64571 0.92172 -0.36100
C 	C 	0.55067 0.64885 0.34724 0.28800
C 	C 	0.55176 0.64997 0.43923 -0.18800
C 	C 	0.56015 0.66668 0.48042 0.29200
C 	C 	0.56779 0.68223 0.43000 0.28900
C 	C 	0.56738 0.68120 0.33798 -0.19000
C 	C 	0.55860 0.66444 0.29679 0.29600
F 	F 	0.55801 0.66329 0.20786 -0.34800
F 	F 	0.54257 0.63275 0.30675 -0.37400
F 	F 	0.57624 0.69838 0.47047 -0.38100
F 	F 	0.56115 0.66789 0.56930 -0.34000
C 	C 	0.81231 0.58649 0.50900 0.28900
C 	C 	0.80869 0.57949 0.59445 -0.19600
C 	C 	0.79147 0.57273 0.63293 0.29200
C 	C 	0.77852 0.57421 0.58917 0.28400
C 	C 	0.78286 0.58279 0.50702 -0.17700
C 	C 	0.79951 0.58823 0.46555 0.28300
F 	F 	0.80377 0.59617 0.38542 -0.35100
F 	F 	0.82879 0.59272 0.47043 -0.37700
F 	F 	0.76193 0.56762 0.62729 -0.36000
F 	F 	0.78762 0.56548 0.71461 -0.35100
C 	C 	0.78640 0.58793 0.03348 0.40700
C 	C 	0.79211 0.60132 0.09683 -0.22700
C 	C 	0.81099 0.61392 0.11331 0.34800
C 	C 	0.82408 0.61305 0.06720 0.23300
C 	C 	0.81836 0.59944 0.00482 0.00700
C 	C 	0.79947 0.58695 0.98787 0.10300
F 	F 	0.79377 0.57369 0.92819 -0.33200
F 	F 	0.76815 0.57564 0.01749 -0.37000
F 	F 	0.81667 0.62723 0.17264 -0.33800
C 	C 	0.54842 0.45437 0.48482 0.29500
C 	C 	0.53006 0.44569 0.51250 -0.19400
C 	C 	0.52612 0.45147 0.58893 0.29200
C 	C 	0.54034 0.46629 0.63539 0.28800
C 	C 	0.55866 0.47554 0.60553 -0.17300
C 	C 	0.56270 0.46922 0.53121 0.28500
F 	F 	0.58042 0.47746 0.50397 -0.35100
F 	F 	0.55238 0.44871 0.41163 -0.36100
F 	F 	0.53625 0.47211 0.70749 -0.34900
F 	F 	0.50841 0.44299 0.61683 -0.37200
C 	C 	0.52638 0.45030 0.02861 0.41500
C 	C 	0.51872 0.45264 0.10326 -0.23200
C 	C 	0.52460 0.46997 0.12866 0.34500
C 	C 	0.53860 0.48486 0.08199 0.21800
C 	C 	0.54686 0.48256 0.00961 0.03300
C 	C 	0.54039 0.46519 0.98190 0.09200
F 	F 	0.54817 0.46280 0.91162 -0.34100
F 	F 	0.52066 0.43361 0.00301 -0.36800
F 	F 	0.54405 0.50152 0.10659 -0.32400
F 	F 	0.51659 0.47234 0.19797 -0.35200
C 	C 	0.56374 0.55317 0.71994 0.28200
C 	C 	0.58312 0.56336 0.71681 -0.18300
C 	C 	0.59331 0.58208 0.70731 0.28500
C 	C 	0.58434 0.59059 0.70587 0.28300
C 	C 	0.56495 0.58044 0.71031 -0.17800
C 	C 	0.55469 0.56161 0.71515 0.28000
F 	F 	0.53595 0.55148 0.71465 -0.35800
F 	F 	0.55366 0.53510 0.72942 -0.36200
F 	F 	0.59457 0.60874 0.70186 -0.34500
F 	F 	0.61197 0.59206 0.69906 -0.34500
C 	C 	0.67488 0.58659 0.64101 0.29000
C 	C 	0.65987 0.56921 0.61821 -0.18500
C 	C 	0.66193 0.55980 0.55204 0.28300
C 	C 	0.67877 0.56774 0.50836 0.28500
C 	C 	0.69371 0.58513 0.53071 -0.18500
C 	C 	0.69175 0.59450 0.59755 0.29000
F 	F 	0.70598 0.61151 0.61813 -0.34400
F 	F 	0.67293 0.59602 0.70328 -0.34400
F 	F 	0.68060 0.55855 0.44419 -0.36900
F 	F 	0.64763 0.54287 0.53068 -0.37500
C 	C 	0.66558 0.57620 0.05175 0.27400
C 	C 	0.65626 0.55839 0.02243 -0.10800
C 	C 	0.66305 0.54828 0.04548 0.27100
C 	C 	0.67898 0.55592 0.09710 0.29900
C 	C 	0.68858 0.57390 0.12426 -0.18500
C 	C 	0.68178 0.58399 0.10073 0.30000
F 	F 	0.69106 0.60150 0.12401 -0.34100
F 	F 	0.65883 0.58594 0.03353 -0.32000
F 	F 	0.68495 0.54577 0.12133 -0.34800
F 	F 	0.65442 0.53116 0.01679 -0.33400
C 	C 	0.68569 0.77265 0.98463 0.22300
C 	C 	0.69620 0.77977 0.06171 -0.10300
C 	C 	0.68746 0.77850 0.14115 0.28500
C 	C 	0.66830 0.76967 0.14397 0.28300
C 	C 	0.65775 0.76220 0.06735 -0.10800
C 	C 	0.66653 0.76396 0.98741 0.22800
F 	F 	0.65644 0.75678 0.91292 -0.36600
F 	F 	0.69402 0.77415 0.90711 -0.37300
F 	F 	0.65993 0.76805 0.22156 -0.36900
F 	F 	0.69746 0.78531 0.21615 -0.35600
C 	C 	0.78255 0.68327 0.48666 0.28800
C 	C 	0.79121 0.69392 0.41188 -0.18000
C 	C 	0.79222 0.68605 0.33479 0.29000
C 	C 	0.78398 0.66761 0.33152 0.29200
C 	C 	0.77464 0.65686 0.40500 -0.18600
C 	C 	0.77431 0.66481 0.48320 0.29300
F 	F 	0.76537 0.65452 0.55481 -0.35900
F 	F 	0.78207 0.69079 0.56253 -0.36400
F 	F 	0.78443 0.66005 0.25572 -0.36700
F 	F 	0.80054 0.69616 0.26195 -0.35700
C 	C 	0.76398 0.75468 0.30383 0.29800
C 	C 	0.78123 0.75872 0.27789 -0.17500
C 	C 	0.79060 0.77035 0.20684 0.28900
C 	C 	0.78294 0.77803 0.16279 0.28700
C 	C 	0.76585 0.77421 0.18943 -0.17300
C 	C 	0.75634 0.76240 0.25983 0.29300
F 	F 	0.73948 0.75804 0.28415 -0.33600
F 	F 	0.75445 0.74299 0.37040 -0.32800
F 	F 	0.79229 0.78947 0.09512 -0.33500
F 	F 	0.80736 0.77453 0.18181 -0.36200
C 	C 	0.80504 0.78391 0.75941 0.27800
C 	C 	0.79687 0.77603 0.67788 -0.18300
C 	C 	0.78104 0.77488 0.65112 0.28500
C 	C 	0.77331 0.78126 0.70578 0.28800
C 	C 	0.78143 0.78903 0.78718 -0.19800
C 	C 	0.79739 0.79046 0.81347 0.28900
F 	F 	0.80532 0.79793 0.89210 -0.36400
F 	F 	0.82007 0.78477 0.78739 -0.38800
F 	F 	0.75800 0.78003 0.67932 -0.37000
F 	F 	0.77327 0.76780 0.57168 -0.34300
C 	C 	0.57891 0.77181 0.86057 0.26400
C 	C 	0.58644 0.77490 0.94551 -0.13500
C 	C 	0.59238 0.79098 0.98893 0.20500
C 	C 	0.59197 0.80426 0.94570 0.31200
C 	C 	0.58584 0.80171 0.85852 -0.20900
C 	C 	0.57881 0.78525 0.81705 0.30500
F 	F 	0.57249 0.78252 0.73331 -0.36600
F 	F 	0.57187 0.75589 0.81990 -0.35200
F 	F 	0.59856 0.82006 0.98680 -0.39700
F 	F 	0.59949 0.79414 0.07122 -0.28600
C 	C 	0.59448 0.80385 0.38088 0.29400
C 	C 	0.60615 0.81159 0.45404 -0.17600
C 	C 	0.61752 0.80613 0.47767 0.29700
C 	C 	0.61698 0.79283 0.42939 0.29100
C 	C 	0.60499 0.78479 0.35731 -0.17100
C 	C 	0.59388 0.79049 0.33279 0.29300
F 	F 	0.58211 0.78272 0.26379 -0.33900
F 	F 	0.58347 0.80906 0.35742 -0.35600
F 	F 	0.62836 0.78800 0.45162 -0.34400
F 	F 	0.62938 0.81402 0.54621 -0.34700
C 	C 	0.47629 0.91110 0.86034 0.27200
C 	C 	0.48501 0.92050 0.93798 -0.15600
C 	C 	0.48054 0.93161 0.97499 0.21700
C 	C 	0.46792 0.93381 0.93313 0.30000
C 	C 	0.45937 0.92464 0.85442 -0.18400
C 	C 	0.46337 0.91298 0.81918 0.29200
F 	F 	0.45459 0.90329 0.74587 -0.33900
F 	F 	0.48036 0.90015 0.82464 -0.36900
F 	F 	0.46445 0.94530 0.96756 -0.37400
F 	F 	0.48898 0.94082 0.04987 -0.29200
C 	C 	0.48736 0.94098 0.31894 0.29100
C 	C 	0.48890 0.92748 0.35097 -0.17300
C 	C 	0.47926 0.91802 0.42725 0.29300
C 	C 	0.46836 0.92216 0.47151 0.28200
C 	C 	0.46676 0.93560 0.43938 -0.18200
C 	C 	0.47633 0.94502 0.36290 0.29600
F 	F 	0.47520 0.95831 0.33213 -0.33600
F 	F 	0.49693 0.95048 0.24648 -0.33300
F 	F 	0.45890 0.91273 0.54435 -0.35200
F 	F 	0.48020 0.90459 0.45756 -0.35000
C 	C 	0.56937 0.87991 0.93830 0.30000
C 	C 	0.58185 0.88780 0.86781 -0.19100
C 	C 	0.58773 0.90492 0.83818 0.29600
C 	C 	0.58077 0.91377 0.87692 0.27200
C 	C 	0.56797 0.90566 0.94600 -0.15100
C 	C 	0.56256 0.88885 0.97747 0.20400
F 	F 	0.55036 0.88100 0.04487 -0.30700
F 	F 	0.56342 0.86334 0.96714 -0.39100
F 	F 	0.58671 0.93036 0.84843 -0.34900
F 	F 	0.60042 0.91311 0.77291 -0.33800
C 	C 	0.57264 0.90487 0.42858 0.28700
C 	C 	0.55973 0.89634 0.35989 -0.17100
C 	C 	0.55275 0.87853 0.33798 0.28700
C 	C 	0.55883 0.86949 0.38306 0.29500
C 	C 	0.57183 0.87809 0.45103 -0.18100
C 	C 	0.57849 0.89571 0.47437 0.28800
F 	F 	0.59107 0.90414 0.53990 -0.34700
F 	F 	0.57995 0.92220 0.44920 -0.34600
F 	F 	0.55192 0.85228 0.36149 -0.34400
F 	F 	0.53987 0.86991 0.27379 -0.33900
C 	C 	0.78730 0.20564 0.63650 0.29400
C 	C 	0.78465 0.18937 0.61462 -0.19100
C 	C 	0.79445 0.18874 0.54407 0.29000
C 	C 	0.80695 0.20427 0.49632 0.28300
C 	C 	0.80995 0.22065 0.51944 -0.17900
C 	C 	0.79996 0.22124 0.58934 0.28800
F 	F 	0.80243 0.23690 0.61118 -0.35000
F 	F 	0.77783 0.20639 0.70434 -0.34900
F 	F 	0.79175 0.17302 0.52138 -0.35800
C 	C 	0.81500 0.19816 0.12659 0.34500
C 	C 	0.80950 0.21455 0.02118 0.44600
C 	C 	0.79734 0.19868 0.97531 0.09700
C 	C 	0.79383 0.18245 0.00513 0.00900
C 	C 	0.80280 0.18227 0.08072 0.22400
F 	F 	0.80000 0.16676 0.10860 -0.31700
F 	F 	0.82391 0.19789 0.19836 -0.33900
F 	F 	0.78859 0.19899 0.90294 -0.33600
C 	C 	0.53869 0.08182 0.45642 0.29700
C 	C 	0.55549 0.08674 0.49385 -0.18000
C 	C 	0.56156 0.09673 0.57223 0.28400
C 	C 	0.55057 0.10103 0.61457 0.28600
C 	C 	0.53313 0.09498 0.58032 -0.17300
C 	C 	0.52747 0.08568 0.49980 0.28600
F 	F 	0.51077 0.07978 0.46506 -0.35400
F 	F 	0.53312 0.07311 0.37820 -0.33600
F 	F 	0.55686 0.11099 0.68907 -0.35900
F 	F 	0.57785 0.10179 0.60900 -0.37600
C 	C 	0.54719 0.08455 0.13694 0.33900
C 	C 	0.54702 0.06980 0.10928 -0.22500
C 	C 	0.53720 0.06035 0.03332 0.40800
C 	C 	0.52752 0.06555 0.98598 0.10900
C 	C 	0.52749 0.08015 0.01449 0.01400
C 	C 	0.53751 0.08972 0.08972 0.22700
F 	F 	0.53799 0.10416 0.11649 -0.33500
F 	F 	0.55700 0.09403 0.20903 -0.36400
F 	F 	0.51767 0.05605 0.91403 -0.34700
F 	F 	0.53659 0.04582 0.00691 -0.34200
C 	C 	0.65857 0.08323 0.50565 0.28900
C 	C 	0.64601 0.08667 0.53775 -0.17900
C 	C 	0.65019 0.09678 0.61487 0.28200
C 	C 	0.66707 0.10407 0.65697 0.28700
C 	C 	0.68007 0.10159 0.62175 -0.18400
C 	C 	0.67559 0.09079 0.54718 0.29200
F 	F 	0.68772 0.08757 0.51520 -0.34600
F 	F 	0.65425 0.07252 0.43462 -0.34700
F 	F 	0.67118 0.11428 0.72987 -0.37200
F 	F 	0.63825 0.10024 0.64671 -0.37500
C 	C 	0.66665 0.11667 0.14182 0.29900
C 	C 	0.65098 0.09993 0.11552 -0.17300
C 	C 	0.65238 0.09075 0.04555 0.28900
C 	C 	0.66919 0.09826 0.00187 0.32900
C 	C 	0.68484 0.11494 0.02820 -0.10600
C 	C 	0.68351 0.12412 0.09847 0.27400
F 	F 	0.69841 0.14048 0.12309 -0.34400
F 	F 	0.66541 0.12598 0.20752 -0.35600
F 	F 	0.67035 0.08921 0.93455 -0.39100
F 	F 	0.63747 0.07441 0.02058 -0.33500
C 	C 	0.56684 0.99083 0.16437 0.29800
C 	C 	0.55822 0.97953 0.23710 -0.18000
C 	C 	0.55745 0.98666 0.31713 0.29400
C 	C 	0.56407 0.00472 0.32276 0.29000
C 	C 	0.57160 0.01578 0.24839 -0.17700
C 	C 	0.57357 0.00892 0.17002 0.29500
F 	F 	0.58104 0.01952 0.09796 -0.34300
F 	F 	0.56794 0.98410 0.08709 -0.35600
F 	F 	0.56275 0.01137 0.39982 -0.37400
F 	F 	0.54935 0.97586 0.38815 -0.37000
C 	C 	0.76024 0.07957 0.81921 0.28600
C 	C 	0.76258 0.07522 0.90414 -0.17300
C 	C 	0.75429 0.07784 0.97512 0.24300
C 	C 	0.74738 0.08817 0.96411 0.24900
C 	C 	0.74852 0.09560 0.88164 -0.17500
C 	C 	0.75345 0.08998 0.80804 0.28600
F 	F 	0.75311 0.09584 0.72669 -0.36600
F 	F 	0.76681 0.07577 0.74881 -0.36600
F 	F 	0.74140 0.09245 0.03508 -0.31200
F 	F 	0.75504 0.07234 0.05672 -0.31300
C 	C 	0.75336 0.88152 0.20742 0.29500
C 	C 	0.76098 0.88750 0.29144 -0.19000
C 	C 	0.77095 0.88154 0.32941 0.29500
C 	C 	0.77288 0.86929 0.28464 0.28700
C 	C 	0.76470 0.86281 0.20156 -0.17000
C 	C 	0.75521 0.86925 0.16262 0.28400
F 	F 	0.74719 0.86312 0.08270 -0.33100
F 	F 	0.74379 0.88731 0.16994 -0.36000
F 	F 	0.78275 0.86381 0.32172 -0.35000
F 	F 	0.77861 0.88746 0.41011 -0.34100
C 	C 	0.76063 0.87958 0.66929 0.28300
C 	C 	0.74605 0.88077 0.69254 -0.18400
C 	C 	0.73439 0.87051 0.76280 0.28800
C 	C 	0.73718 0.85901 0.80863 0.29200
C 	C 	0.75161 0.85763 0.78438 -0.18500
C 	C 	0.76338 0.86805 0.71492 0.28700
F 	F 	0.77761 0.86712 0.69219 -0.37100
F 	F 	0.77222 0.88974 0.60283 -0.35300
F 	F 	0.72550 0.84876 0.87470 -0.35400
F 	F 	0.72000 0.87126 0.78474 -0.35000
C 	C 	0.68368 0.90313 0.48256 0.29100
C 	C 	0.69514 0.90941 0.55680 -0.18000
C 	C 	0.68793 0.90964 0.63847 0.29200
C 	C 	0.66896 0.90146 0.64782 0.29000
C 	C 	0.65714 0.89301 0.57568 -0.18000
C 	C 	0.66474 0.89512 0.49187 0.29300
F 	F 	0.65353 0.88778 0.42079 -0.36000
F 	F 	0.69070 0.90382 0.40226 -0.36500
F 	F 	0.66186 0.90030 0.72852 -0.37000
F 	F 	0.69904 0.91643 0.71015 -0.35800
C 	C 	0.79395 0.00000 0.65413 0.28800
C 	C 	0.77843 0.98344 0.68356 -0.17800
C 	C 	0.76834 0.98300 0.75599 0.28400
C 	C 	0.77370 0.99888 0.79869 0.29000
C 	C 	0.78908 0.01541 0.76895 -0.18000
C 	C 	0.79920 0.01591 0.69649 0.28800
F 	F 	0.80421 0.00066 0.58608 -0.35900
F 	F 	0.76375 0.99822 0.86825 -0.36500
F 	F 	0.75309 0.96719 0.78394 -0.36300
C 	C 	0.75968 0.98908 0.29190 0.29400
C 	C 	0.76552 0.97862 0.26053 -0.17300
C 	C 	0.77654 0.98403 0.18473 0.29100
C 	C 	0.78224 0.00003 0.14285 0.29300
C 	C 	0.77724 0.01093 0.17704 -0.17400
C 	C 	0.76564 0.00524 0.25068 0.29500
F 	F 	0.76004 0.01530 0.28185 -0.34000
F 	F 	0.74810 0.98351 0.36177 -0.34500
F 	F 	0.79325 0.00532 0.07089 -0.34700
F 	F 	0.78234 0.97412 0.15372 -0.35900
Cu	Cu	0.81558 0.08974 0.99242 0.92000
Cu	Cu	0.81362 0.06584 0.15782 0.91100
C 	C 	0.83191 0.10790 0.83037 0.39100
O 	O 	0.81611 0.07088 0.91519 -0.64600
O 	O 	0.83274 0.10561 0.08680 -0.28300
O 	O 	0.83832 0.08544 0.13154 -0.37000
O 	O 	0.81674 0.09517 0.78988 -0.31300
O 	O 	0.83270 0.10893 0.91680 -0.32600
C 	C 	0.84288 0.10188 0.13020 0.40400
H 	H 	0.82798 0.07238 0.90631 0.20000
Cu	Cu	0.83204 0.76267 0.64537 0.90700
Cu	Cu	0.84154 0.75561 0.47363 0.90900
C 	C 	0.85491 0.74987 0.63844 0.38600
O 	O 	0.82604 0.76027 0.40732 -0.62800
O 	O 	0.86147 0.76551 0.38800 -0.31300
C 	C 	0.85883 0.76042 0.30512 0.37800
O 	O 	0.84573 0.75950 0.25903 -0.30000
O 	O 	0.85813 0.75463 0.55476 -0.31400
O 	O 	0.84460 0.75273 0.68766 -0.34900
H 	H 	0.83131 0.77314 0.39977 0.20100
Cu	Cu	0.84976 0.60043 0.79421 0.94200
Cu	Cu	0.85517 0.58235 0.62204 0.90700
Cu	Cu	0.87121 0.58395 0.80081 0.91100
Cu	Cu	0.86241 0.59334 0.97256 0.90600
C 	C 	0.83211 0.59848 0.95630 0.29100
O 	O 	0.86996 0.62472 0.84056 -0.33300
C 	C 	0.88628 0.58050 0.63927 0.38400
O 	O 	0.85124 0.58157 0.86516 -0.63900
O 	O 	0.86704 0.59872 0.72144 -0.63200
O 	O 	0.83273 0.59709 0.69948 -0.32900
O 	O 	0.82975 0.57249 0.64304 -0.38300
O 	O 	0.84706 0.60239 0.99811 -0.31600
O 	O 	0.87383 0.56856 0.87726 -0.29500
C 	C 	0.87664 0.57086 0.96272 0.23100
C 	C 	0.88552 0.62837 0.87268 0.38600
O 	O 	0.88632 0.61540 0.90365 -0.35600
O 	O 	0.86864 0.57658 0.01115 -0.22900
O 	O 	0.83101 0.59744 0.86989 -0.29400
O 	O 	0.88899 0.58449 0.72357 -0.31700
O 	O 	0.87791 0.58560 0.58952 -0.34000
H 	H 	0.84004 0.56916 0.87032 0.20000
H 	H 	0.87858 0.61036 0.70572 0.22700
Cu	Cu	0.93508 0.51161 0.32049 0.94000
Cu	Cu	0.93144 0.52698 0.50815 0.91500
Cu	Cu	0.92594 0.53892 0.31026 0.92100
Cu	Cu	0.93369 0.52742 0.13793 0.93100
C 	C 	0.93256 0.49417 0.15979 0.38900
O 	O 	0.96163 0.52517 0.28170 -0.31700
C 	C 	0.92367 0.55318 0.47329 0.37400
O 	O 	0.92072 0.51885 0.24451 -0.64000
O 	O 	0.94021 0.53282 0.38667 -0.62500
O 	O 	0.92195 0.49264 0.41190 -0.32800
O 	O 	0.93723 0.51017 0.53085 -0.35500
O 	O 	0.93057 0.50450 0.10718 -0.30800
O 	O 	0.91135 0.54303 0.23365 -0.32200
C 	C 	0.91333 0.54461 0.14747 0.40100
C 	C 	0.96967 0.54018 0.23717 0.39400
O 	O 	0.95990 0.54559 0.20533 -0.33100
O 	O 	0.92584 0.54348 0.10693 -0.31300
O 	O 	0.92770 0.49210 0.24334 -0.29900
C 	C 	0.92889 0.49466 0.49062 0.40000
O 	O 	0.92757 0.55632 0.38922 -0.31300
O 	O 	0.93252 0.54862 0.52271 -0.33600
H 	H 	0.90734 0.50950 0.23730 0.20700
H 	H 	0.95349 0.54278 0.38638 0.21500
Cu	Cu	0.91016 0.72626 0.98652 0.91800
Cu	Cu	0.93742 0.74683 0.15587 0.91200
Cu	Cu	0.95182 0.74594 0.98232 0.88300
Cu	Cu	0.93208 0.73488 0.80719 0.93500
C 	C 	0.89610 0.72912 0.82415 0.39200
O 	O 	0.90453 0.70257 0.94263 -0.32400
C 	C 	0.97034 0.74747 0.14197 0.38800
O 	O 	0.93360 0.74621 0.91431 -0.64000
O 	O 	0.93029 0.73009 0.05988 -0.60000
O 	O 	0.89726 0.73047 0.07980 -0.27900
O 	O 	0.92373 0.75628 0.12621 -0.37100
O 	O 	0.90569 0.72438 0.78291 -0.32100
O 	O 	0.97280 0.76045 0.90387 -0.32900
C 	C 	0.97235 0.75800 0.81826 0.38500
C 	C 	0.91769 0.70111 0.91445 0.36400
O 	O 	0.93294 0.71507 0.88094 -0.34700
O 	O 	0.95777 0.75364 0.77189 -0.31600
O 	O 	0.89350 0.72687 0.90954 -0.32300
C 	C 	0.90563 0.74580 0.12199 0.40300
O 	O 	0.96817 0.74394 0.05710 -0.29300
O 	O 	0.95645 0.74398 0.19206 -0.33600
H 	H 	0.93598 0.75817 0.90866 0.19700
H 	H 	0.92914 0.71905 0.07745 0.24000
Cu	Cu	0.94942 0.22043 0.49440 0.94500
Cu	Cu	0.93032 0.19413 0.66449 0.90000
Cu	Cu	0.91387 0.18298 0.48401 0.91500
Cu	Cu	0.93157 0.20105 0.31300 0.92600
C 	C 	0.97105 0.22913 0.33993 0.39200
O 	O 	0.93930 0.23345 0.44164 -0.30900
C 	C 	0.89161 0.16798 0.64276 0.38400
O 	O 	0.93721 0.19615 0.42429 -0.63500
O 	O 	0.92671 0.20446 0.56198 -0.63600
O 	O 	0.96712 0.22864 0.59314 -0.30100
O 	O 	0.95451 0.20042 0.64277 -0.37400
O 	O 	0.95632 0.22367 0.29206 -0.31500
O 	O 	0.90276 0.16197 0.40991 -0.31700
C 	C 	0.90130 0.16205 0.32375 0.39200
C 	C 	0.92267 0.22478 0.40722 0.38900
O 	O 	0.91485 0.20856 0.37514 -0.34500
O 	O 	0.91438 0.17551 0.27564 -0.31700
O 	O 	0.97120 0.23211 0.42449 -0.30800
C 	C 	0.96859 0.21730 0.63837 0.38500
O 	O 	0.89174 0.16943 0.55649 -0.30800
O 	O 	0.90462 0.18122 0.69158 -0.35300
H 	H 	0.94360 0.19015 0.42324 0.21400
H 	H 	0.91931 0.20920 0.57407 0.23300
Cu	Cu	0.88240 0.28728 0.30695 0.94400
Cu	Cu	0.85564 0.26949 0.13542 0.92100
Cu	Cu	0.84416 0.25192 0.31000 0.91400
Cu	Cu	0.86244 0.26881 0.48634 0.93000
C 	C 	0.89150 0.30754 0.46586 0.39200
O 	O 	0.89605 0.27740 0.35693 -0.30700
C 	C 	0.83120 0.23117 0.14475 0.41200
O 	O 	0.85704 0.27422 0.37548 -0.62800
O 	O 	0.86663 0.26575 0.23503 -0.63700
O 	O 	0.89079 0.30514 0.21086 -0.31200
O 	O 	0.86167 0.29268 0.16057 -0.37600
O 	O 	0.88557 0.29283 0.51072 -0.32000
O 	O 	0.82301 0.23845 0.38842 -0.32500
C 	C 	0.82434 0.23722 0.47392 0.39100
C 	C 	0.88718 0.26103 0.38889 0.38800
O 	O 	0.87045 0.25317 0.42096 -0.34600
O 	O 	0.83628 0.25148 0.52068 -0.31800
O 	O 	0.89380 0.30802 0.38024 -0.29700
C 	C 	0.87899 0.30646 0.16605 0.42200
O 	O 	0.83093 0.23108 0.23169 -0.31500
O 	O 	0.84428 0.24522 0.09999 -0.33200
H 	H 	0.85059 0.28016 0.37751 0.20500
H 	H 	0.87194 0.25905 0.22048 0.24000
Cu	Cu	0.93725 0.39271 0.82099 0.94100
Cu	Cu	0.92819 0.40692 0.99712 0.89800
Cu	Cu	0.93679 0.42585 0.81972 0.90900
Cu	Cu	0.93846 0.41153 0.64468 0.92800
C 	C 	0.92563 0.37358 0.65780 0.38900
O 	O 	0.96320 0.40493 0.77364 -0.32200
C 	C 	0.94129 0.44350 0.98709 0.26800
O 	O 	0.92557 0.40400 0.75274 -0.63300
O 	O 	0.94445 0.41335 0.89615 -0.63700
O 	O 	0.92610 0.37398 0.91392 -0.30700
O 	O 	0.90878 0.38283 0.96934 -0.37300
O 	O 	0.93630 0.38905 0.61685 -0.30900
O 	O 	0.92820 0.43689 0.74468 -0.32400
C 	C 	0.93044 0.43888 0.65866 0.38100
C 	C 	0.97293 0.42155 0.74500 0.39300
O 	O 	0.96459 0.42856 0.71371 -0.34800
O 	O 	0.92997 0.42668 0.60963 -0.31700
O 	O 	0.92621 0.37257 0.74386 -0.30600
C 	C 	0.91213 0.37066 0.96146 0.31800
O 	O 	0.94473 0.44554 0.90194 -0.30100
O 	O 	0.94180 0.43149 0.03196 -0.25800
H 	H 	0.91195 0.39698 0.74815 0.20400
H 	H 	0.95771 0.42103 0.91175 0.22200
C 	C 	0.89033 0.32638 0.57987 0.28900
C 	C 	0.90017 0.32455 0.51376 -0.17600
C 	C 	0.91835 0.33900 0.49412 0.30000
C 	C 	0.92661 0.35510 0.54038 0.29300
C 	C 	0.91675 0.35692 0.60652 -0.17600
C 	C 	0.89857 0.34250 0.62592 0.29000
F 	F 	0.88881 0.34420 0.68881 -0.35000
F 	F 	0.87269 0.31258 0.59867 -0.36800
F 	F 	0.94440 0.36872 0.52287 -0.33400
F 	F 	0.92819 0.33725 0.43198 -0.33400
C 	C 	0.90261 0.35513 0.10615 0.23400
C 	C 	0.90163 0.35416 0.01410 -0.02600
C 	C 	0.89206 0.33738 0.97255 0.12300
C 	C 	0.88396 0.32171 0.02252 0.43800
C 	C 	0.88561 0.32272 0.11439 -0.24300
C 	C 	0.89476 0.33947 0.15607 0.33900
F 	F 	0.89625 0.34059 0.24488 -0.36200
F 	F 	0.91181 0.37128 0.14703 -0.35600
F 	F 	0.87513 0.30558 0.98151 -0.43800
F 	F 	0.89092 0.33629 0.88367 -0.32000
C 	C 	0.00119 0.43209 0.65797 0.29500
C 	C 	0.99306 0.43144 0.73834 -0.18800
C 	C 	0.00392 0.43806 0.81450 0.28700
F 	F 	0.99619 0.43750 0.89249 -0.38300
F 	F 	0.99079 0.42569 0.58394 -0.34800
C 	C 	0.99461 0.24838 0.22694 0.29600
C 	C 	0.98863 0.23603 0.29588 -0.18400
F 	F 	0.98460 0.25471 0.20328 -0.33500
C 	C 	0.99033 0.21199 0.71246 0.28200
C 	C 	0.98562 0.22381 0.68915 -0.18100
F 	F 	0.97989 0.19473 0.68443 -0.36100
C 	C 	0.90861 0.23715 0.32066 0.29600
C 	C 	0.91303 0.23350 0.40253 -0.18300
C 	C 	0.90907 0.23906 0.47975 0.28900
C 	C 	0.90063 0.24809 0.47518 0.29300
C 	C 	0.89637 0.25188 0.39334 -0.18200
C 	C 	0.90044 0.24643 0.31606 0.29300
F 	F 	0.89634 0.25001 0.23661 -0.36900
F 	F 	0.91259 0.23201 0.24558 -0.35100
F 	F 	0.89677 0.25333 0.55025 -0.36500
F 	F 	0.91333 0.23565 0.55921 -0.37800
C 	C 	0.98874 0.75371 0.69891 0.28500
C 	C 	0.98952 0.76361 0.77167 -0.17900
F 	F 	0.97230 0.73901 0.67165 -0.35300
C 	C 	0.98759 0.75238 0.18340 -0.17800
C 	C 	0.98733 0.74244 0.25435 0.29500
F 	F 	0.97110 0.72776 0.28363 -0.33700
C 	C 	0.91936 0.47259 0.61175 0.28900
C 	C 	0.92851 0.47984 0.53155 -0.18600
C 	C 	0.93799 0.47344 0.49243 0.29600
C 	C 	0.93870 0.46019 0.53410 0.28300
C 	C 	0.92954 0.45286 0.61460 -0.17100
C 	C 	0.91967 0.45903 0.65270 0.28400
F 	F 	0.91010 0.45169 0.72838 -0.36500
F 	F 	0.90997 0.47854 0.64959 -0.37400
F 	F 	0.94869 0.45480 0.49734 -0.35400
F 	F 	0.94697 0.48043 0.41510 -0.36000
C 	C 	0.94980 0.48731 0.05859 0.28500
C 	C 	0.93544 0.48131 0.11945 -0.16900
C 	C 	0.92354 0.46296 0.13918 0.30400
C 	C 	0.92577 0.45071 0.09731 0.27200
C 	C 	0.93984 0.45665 0.03491 -0.11100
C 	C 	0.95198 0.47504 0.01641 0.33000
F 	F 	0.96603 0.48103 0.95846 -0.38700
F 	F 	0.96171 0.50506 0.04087 -0.33300
F 	F 	0.91384 0.43296 0.11512 -0.35900
F 	F 	0.90940 0.45692 0.19665 -0.34600
C 	C 	0.99780 0.55383 0.14483 0.29900
C 	C 	0.98982 0.55147 0.22778 -0.18300
C 	C 	0.00108 0.55806 0.30271 0.29300
F 	F 	0.98708 0.54784 0.07177 -0.33900
F 	F 	0.99356 0.55632 0.38298 -0.37400
C 	C 	0.89987 0.65384 0.97578 0.24700
C 	C 	0.90014 0.64704 0.89355 -0.17700
C 	C 	0.91011 0.65899 0.82448 0.28500
C 	C 	0.91717 0.67712 0.83327 0.28400
C 	C 	0.91445 0.68340 0.91174 -0.17500
C 	C 	0.90679 0.67194 0.98460 0.24100
F 	F 	0.90527 0.67814 0.06272 -0.31200
F 	F 	0.89112 0.64254 0.04457 -0.30200
F 	F 	0.92535 0.68826 0.76341 -0.35400
F 	F 	0.91132 0.65271 0.74594 -0.36300
C 	C 	0.89349 0.55800 0.62806 0.28500
C 	C 	0.89616 0.57383 0.59739 -0.18100
C 	C 	0.90825 0.58316 0.52702 0.29200
C 	C 	0.91747 0.57662 0.48706 0.29100
C 	C 	0.91447 0.56052 0.51656 -0.17900
C 	C 	0.90251 0.55133 0.58756 0.28000
F 	F 	0.89934 0.53571 0.61619 -0.38700
F 	F 	0.88185 0.54890 0.69618 -0.37600
F 	F 	0.92964 0.58614 0.42128 -0.34200
F 	F 	0.91140 0.59879 0.49867 -0.34300
C 	C 	0.90372 0.56960 0.98421 0.10900
C 	C 	0.88561 0.56342 0.00691 0.01700
C 	C 	0.87639 0.55060 0.07378 0.22600
C 	C 	0.88532 0.54424 0.11858 0.33200
C 	C 	0.90364 0.55078 0.09753 -0.22000
C 	C 	0.91277 0.56347 0.02974 0.40500
F 	F 	0.93060 0.57030 0.00984 -0.34700
F 	F 	0.91275 0.58198 0.91967 -0.34100
F 	F 	0.87609 0.53157 0.18171 -0.36800
F 	F 	0.85868 0.54412 0.09457 -0.33400
F 	F 	0.84233 0.62572 0.08140 -0.30400
C 	C 	0.88777 0.75911 0.12609 0.30100
C 	C 	0.89469 0.75064 0.16988 -0.18500
C 	C 	0.89093 0.74658 0.25941 0.29300
C 	C 	0.87981 0.75041 0.30438 0.28400
C 	C 	0.87242 0.75848 0.26022 -0.16800
C 	C 	0.87682 0.76317 0.17111 0.28800
F 	F 	0.87060 0.77175 0.12830 -0.33600
F 	F 	0.89159 0.76334 0.03976 -0.34400
F 	F 	0.87562 0.74564 0.39001 -0.35500
F 	F 	0.89773 0.73855 0.30247 -0.37100
C 	C 	0.85626 0.72966 0.74268 0.28300
C 	C 	0.86513 0.74361 0.68086 -0.17600
C 	C 	0.88400 0.75211 0.66313 0.29100
C 	C 	0.89398 0.74703 0.70859 0.28600
C 	C 	0.88524 0.73351 0.77250 -0.18600
C 	C 	0.86628 0.72466 0.78847 0.29500
F 	F 	0.85753 0.71110 0.84769 -0.35700
F 	F 	0.83789 0.72088 0.75799 -0.36100
F 	F 	0.91231 0.75568 0.69277 -0.38100
F 	F 	0.89281 0.76573 0.60425 -0.34800
F 	F 	0.81650 0.20352 0.42888 -0.35000
C 	C 	0.81834 0.21437 0.09719 -0.23900
F 	F 	0.81241 0.23008 0.99283 -0.42900
C 	C 	0.87640 0.12381 0.16106 0.29700
C 	C 	0.85796 0.11568 0.18606 -0.18700
C 	C 	0.85392 0.12199 0.26009 0.29400
C 	C 	0.86815 0.13676 0.30683 0.29200
C 	C 	0.88656 0.14545 0.27949 -0.17200
C 	C 	0.89067 0.13865 0.20753 0.29000
F 	F 	0.90845 0.14641 0.18271 -0.34900
F 	F 	0.88045 0.11766 0.09018 -0.34900
F 	F 	0.86400 0.14303 0.37681 -0.34600
F 	F 	0.83613 0.11402 0.28558 -0.36000
C 	C 	0.85360 0.12058 0.70414 0.28700
C 	C 	0.84632 0.12332 0.77909 -0.18500
C 	C 	0.85295 0.14083 0.80492 0.29000
C 	C 	0.86729 0.15548 0.75828 0.28600
C 	C 	0.87512 0.15274 0.68551 -0.18000
C 	C 	0.86792 0.13523 0.65744 0.28700
F 	F 	0.87530 0.13242 0.58683 -0.35800
F 	F 	0.84719 0.10371 0.67827 -0.37100
F 	F 	0.87349 0.17234 0.78331 -0.35600
F 	F 	0.84534 0.14362 0.87451 -0.35900
F 	F 	0.81441 0.03176 0.66856 -0.35700
