data_crystal

_cell_length_a 32.25148
_cell_length_b 28.92567
_cell_length_c 40.37129
_cell_angle_alpha 103.65164
_cell_angle_beta  115.77379
_cell_angle_gamma 112.42278

_symmetry_space_group_name_	'P 1'
_symmetry_space_group_name_H-M	'P 1'

loop_
_symmetry_equiv_pos_as_xyz
  x,y,z

loop_
_atom_site_label
_atom_site_type_symbol
_atom_site_fract_x
_atom_site_fract_y
_atom_site_fract_z
_atom_site_charge
C 	C 	0.73895 0.24598 0.94254 -0.01600
C 	C 	0.75516 0.26163 0.98391 -0.00500
C 	C 	0.73876 0.29279 0.00087 -0.09200
C 	C 	0.70639 0.30907 0.97690 0.09000
C 	C 	0.68958 0.29284 0.93519 -0.08000
C 	C 	0.70574 0.26134 0.91815 -0.02000
N 	N 	0.69367 0.34506 0.99623 -0.14700
C 	C 	0.74162 0.49470 0.98352 -0.00100
C 	C 	0.68672 0.44739 0.95492 -0.02600
C 	C 	0.66996 0.39871 0.95975 -0.07400
C 	C 	0.70834 0.39672 0.99302 0.08500
C 	C 	0.76253 0.44486 0.02239 -0.07700
C 	C 	0.77907 0.49370 0.01783 -0.03100
C 	C 	0.54373 0.26153 0.98495 -0.00100
C 	C 	0.59299 0.30658 0.02371 -0.03000
C 	C 	0.64192 0.33398 0.02700 -0.07600
C 	C 	0.64230 0.31652 0.99174 0.08400
C 	C 	0.59285 0.27107 0.95282 -0.07400
C 	C 	0.54386 0.24384 0.94954 -0.02600
C 	C 	0.80008 0.63921 0.96483 0.01700
C 	C 	0.82453 0.60801 0.96694 -0.04100
C 	C 	0.80468 0.56018 0.97217 -0.04100
C 	C 	0.76086 0.54378 0.97616 0.00800
C 	C 	0.73623 0.57492 0.97388 -0.04100
C 	C 	0.75574 0.62244 0.96814 -0.04200
C 	C 	0.81191 0.16631 0.90880 0.01200
C 	C 	0.81897 0.21542 0.90521 -0.03700
C 	C 	0.79252 0.23992 0.91390 -0.04400
C 	C 	0.75795 0.21471 0.92531 0.01400
C 	C 	0.74663 0.16251 0.92468 -0.04400
C 	C 	0.77361 0.13850 0.91659 -0.04100
C 	C 	0.39319 0.18227 0.97465 0.01400
C 	C 	0.41337 0.14973 0.96530 -0.04000
C 	C 	0.46261 0.17559 0.96871 -0.04100
C 	C 	0.49173 0.23408 0.98122 0.00900
C 	C 	0.47126 0.26647 0.99036 -0.04100
C 	C 	0.42224 0.24066 0.98714 -0.04000
H 	H 	0.78113 0.25029 0.00309 0.02400
H 	H 	0.75204 0.30530 0.03298 0.05200
H 	H 	0.66431 0.30474 0.91614 0.04800
H 	H 	0.69273 0.24915 0.88610 0.03100
H 	H 	0.65746 0.44777 0.92836 0.03300
H 	H 	0.62791 0.36199 0.93686 0.04700
H 	H 	0.79211 0.44387 0.04832 0.04800
H 	H 	0.82133 0.53038 0.04045 0.03200
H 	H 	0.59331 0.32042 0.05126 0.03300
H 	H 	0.67976 0.36877 0.05704 0.04800
H 	H 	0.59201 0.25766 0.92508 0.04700
H 	H 	0.50588 0.20946 0.91938 0.03300
H 	H 	0.85923 0.62116 0.96492 0.03900
H 	H 	0.82363 0.53614 0.97351 0.03800
H 	H 	0.70248 0.56271 0.97702 0.03700
H 	H 	0.73686 0.64657 0.96674 0.03700
H 	H 	0.84742 0.23643 0.89820 0.04000
H 	H 	0.80090 0.27982 0.91368 0.03900
H 	H 	0.71898 0.14202 0.93247 0.03900
H 	H 	0.76725 0.10008 0.91882 0.04000
H 	H 	0.39092 0.10451 0.95538 0.03700
H 	H 	0.47818 0.15028 0.96174 0.03900
H 	H 	0.49327 0.31156 0.99979 0.03800
H 	H 	0.40664 0.26594 0.99415 0.03800
C 	C 	0.70266 0.19088 0.40566 -0.00700
C 	C 	0.72223 0.21270 0.44803 -0.02500
C 	C 	0.70935 0.24881 0.46445 -0.07100
C 	C 	0.67713 0.26386 0.43891 0.08000
C 	C 	0.65720 0.24180 0.39631 -0.07300
C 	C 	0.66981 0.20532 0.37979 -0.02500
N 	N 	0.66570 0.30246 0.45697 -0.14400
C 	C 	0.70493 0.44672 0.43733 -0.00700
C 	C 	0.65076 0.39804 0.41018 -0.02500
C 	C 	0.63734 0.35039 0.41644 -0.07300
C 	C 	0.67831 0.35108 0.44990 0.07900
C 	C 	0.73234 0.39984 0.47688 -0.07100
C 	C 	0.74561 0.44748 0.47071 -0.02500
C 	C 	0.52291 0.22399 0.45525 -0.00700
C 	C 	0.57321 0.27126 0.49210 -0.02500
C 	C 	0.61963 0.29751 0.49212 -0.07100
C 	C 	0.61636 0.27660 0.45544 0.07900
C 	C 	0.56564 0.22934 0.41831 -0.07300
C 	C 	0.51917 0.20329 0.41831 -0.02500
C 	C 	0.76274 0.59624 0.42450 0.00900
C 	C 	0.74896 0.54514 0.39579 -0.04400
C 	C 	0.72713 0.49534 0.39854 -0.04300
C 	C 	0.71956 0.49648 0.43033 0.00900
C 	C 	0.73140 0.54704 0.45805 -0.04400
C 	C 	0.75304 0.59678 0.45521 -0.04400
C 	C 	0.77661 0.10688 0.38036 0.01400
C 	C 	0.78034 0.15114 0.37061 -0.04300
C 	C 	0.75219 0.17584 0.37541 -0.04200
C 	C 	0.71941 0.15573 0.38930 0.01000
C 	C 	0.71024 0.10685 0.39382 -0.04300
C 	C 	0.73903 0.08275 0.38966 -0.03900
C 	C 	0.38451 0.15451 0.46062 0.01100
C 	C 	0.42435 0.14176 0.47717 -0.04400
C 	C 	0.46917 0.16360 0.47474 -0.04300
C 	C 	0.47378 0.19743 0.45507 0.00900
C 	C 	0.43265 0.20809 0.43695 -0.04200
C 	C 	0.38807 0.18656 0.43961 -0.04400
H 	H 	0.74817 0.20237 0.46840 0.03300
H 	H 	0.72489 0.26569 0.49724 0.04800
H 	H 	0.63207 0.25285 0.37612 0.04600
H 	H 	0.65447 0.18866 0.34704 0.03300
H 	H 	0.61918 0.39706 0.38419 0.03200
H 	H 	0.59560 0.31283 0.39497 0.04600
H 	H 	0.76405 0.40069 0.50266 0.04800
H 	H 	0.78760 0.48487 0.49170 0.03300
H 	H 	0.57626 0.28775 0.52068 0.03200
H 	H 	0.65846 0.33379 0.52079 0.04800
H 	H 	0.56197 0.21335 0.38948 0.04700
H 	H 	0.48025 0.16713 0.38960 0.03400
H 	H 	0.75670 0.54446 0.37217 0.03700
H 	H 	0.71806 0.45644 0.37699 0.03700
H 	H 	0.72550 0.54821 0.48262 0.03600
H 	H 	0.76392 0.63617 0.47768 0.03500
H 	H 	0.80817 0.16912 0.36234 0.03700
H 	H 	0.75868 0.21284 0.37097 0.03700
H 	H 	0.68368 0.08993 0.40330 0.03800
H 	H 	0.73504 0.04791 0.39654 0.03900
H 	H 	0.42118 0.11596 0.49263 0.03600
H 	H 	0.50059 0.15481 0.48852 0.03800
H 	H 	0.43580 0.23394 0.42152 0.03800
H 	H 	0.35692 0.19580 0.42617 0.03900
C 	C 	0.35955 0.84893 0.01598 -0.00900
C 	C 	0.38583 0.84720 0.05350 -0.02600
C 	C 	0.41750 0.82373 0.05940 -0.07000
C 	C 	0.42316 0.80171 0.02790 0.07400
C 	C 	0.39812 0.80502 0.99074 -0.06800
C 	C 	0.36635 0.82838 0.98484 -0.02300
N 	N 	0.45334 0.77461 0.03365 -0.14200
C 	C 	0.35708 0.59917 0.99806 0.00000
C 	C 	0.33640 0.61959 0.97087 -0.02900
C 	C 	0.36839 0.67672 0.98159 -0.06500
C 	C 	0.42140 0.71425 0.01999 0.07100
C 	C 	0.44256 0.69317 0.04637 -0.06700
C 	C 	0.41064 0.63597 0.03552 -0.03300
C 	C 	0.57532 0.82949 0.00998 -0.00900
C 	C 	0.58671 0.86185 0.04835 -0.02700
C 	C 	0.54628 0.84369 0.05574 -0.07000
C 	C 	0.49402 0.79312 0.02490 0.07300
C 	C 	0.48230 0.76104 0.98612 -0.06800
C 	C 	0.52287 0.77911 0.97884 -0.02300
C 	C 	0.25639 0.42730 0.96996 0.02000
C 	C 	0.27579 0.47337 0.00636 -0.04700
C 	C 	0.30834 0.52941 0.01538 -0.04500
C 	C 	0.32193 0.53988 0.98811 0.01200
C 	C 	0.30202 0.49373 0.95143 -0.04100
C 	C 	0.26921 0.43763 0.94234 -0.04100
C 	C 	0.25173 0.90795 0.99222 0.01400
C 	C 	0.23010 0.84989 0.96968 -0.04600
C 	C 	0.26532 0.83068 0.97749 -0.03700
C 	C 	0.32241 0.86924 0.00830 0.00300
C 	C 	0.34390 0.92705 0.03177 -0.04100
C 	C 	0.30860 0.94628 0.02390 -0.05000
C 	C 	0.70080 0.88486 0.98885 0.02400
C 	C 	0.65063 0.87846 0.96241 -0.04700
C 	C 	0.60962 0.86029 0.96924 -0.03400
C 	C 	0.61844 0.84824 0.00252 0.00200
C 	C 	0.66869 0.85465 0.02894 -0.03800
C 	C 	0.70977 0.87311 0.02222 -0.05000
H 	H 	0.38084 0.86302 0.07772 0.03300
H 	H 	0.43693 0.82169 0.08817 0.04700
H 	H 	0.40215 0.78833 0.96614 0.04600
H 	H 	0.34637 0.82977 0.95583 0.03200
H 	H 	0.29530 0.59140 0.94170 0.03400
H 	H 	0.35213 0.69153 0.96002 0.04500
H 	H 	0.48342 0.72152 0.07574 0.04600
H 	H 	0.42724 0.62043 0.05647 0.03400
H 	H 	0.62689 0.90105 0.07245 0.03200
H 	H 	0.55556 0.86876 0.08554 0.04600
H 	H 	0.44181 0.72267 0.96156 0.04600
H 	H 	0.51361 0.75390 0.94906 0.03300
H 	H 	0.26599 0.46571 0.02781 0.03800
H 	H 	0.32309 0.56471 0.04356 0.03700
H 	H 	0.31227 0.50133 0.93019 0.03700
H 	H 	0.25418 0.40227 0.91407 0.03800
H 	H 	0.18610 0.81988 0.94562 0.03800
H 	H 	0.24831 0.78587 0.95957 0.03700
H 	H 	0.38788 0.95706 0.05582 0.03500
H 	H 	0.32549 0.99102 0.04193 0.03300
H 	H 	0.64343 0.88750 0.93658 0.03900
H 	H 	0.57114 0.85581 0.94881 0.03500
H 	H 	0.67584 0.84527 0.05462 0.03400
H 	H 	0.74849 0.87816 0.04286 0.03700
C 	C 	0.35660 0.82847 0.51745 -0.00700
C 	C 	0.40797 0.85520 0.55583 -0.02600
C 	C 	0.44039 0.83273 0.56045 -0.07100
C 	C 	0.42184 0.78339 0.52684 0.07800
C 	C 	0.37079 0.75734 0.48803 -0.07200
C 	C 	0.33842 0.77977 0.48347 -0.02500
N 	N 	0.45356 0.75796 0.53348 -0.14400
C 	C 	0.35844 0.58317 0.49946 -0.00700
C 	C 	0.36351 0.59780 0.47001 -0.02500
C 	C 	0.39627 0.65506 0.48137 -0.07300
C 	C 	0.42297 0.69844 0.52202 0.07900
C 	C 	0.41869 0.68368 0.55154 -0.07100
C 	C 	0.38710 0.62639 0.54053 -0.02600
C 	C 	0.57248 0.80819 0.50652 -0.00700
C 	C 	0.58431 0.80074 0.54191 -0.02600
C 	C 	0.54490 0.78404 0.55036 -0.07100
C 	C 	0.49317 0.77439 0.52355 0.07800
C 	C 	0.48094 0.78099 0.48760 -0.07300
C 	C 	0.52055 0.79801 0.47930 -0.02600
C 	C 	0.25657 0.40886 0.46674 0.01000
C 	C 	0.25100 0.45069 0.48651 -0.04400
C 	C 	0.28291 0.50709 0.49591 -0.04300
C 	C 	0.32234 0.52274 0.48716 0.00800
C 	C 	0.32816 0.48090 0.46762 -0.04300
C 	C 	0.29520 0.42418 0.45725 -0.04400
C 	C 	0.24777 0.88532 0.50003 0.01400
C 	C 	0.26378 0.86818 0.53062 -0.04200
C 	C 	0.30045 0.85096 0.53708 -0.04200
C 	C 	0.32134 0.85077 0.51296 0.00900
C 	C 	0.30617 0.86909 0.48299 -0.04300
C 	C 	0.26934 0.88602 0.47643 -0.04100
C 	C 	0.69689 0.86141 0.48427 0.01000
C 	C 	0.70681 0.89662 0.52102 -0.04500
C 	C 	0.66597 0.87957 0.52804 -0.04300
C 	C 	0.61475 0.82725 0.49826 0.00800
C 	C 	0.60444 0.79260 0.46105 -0.04300
C 	C 	0.64524 0.80986 0.45395 -0.04400
H 	H 	0.42256 0.89309 0.58216 0.03200
H 	H 	0.47955 0.85303 0.59039 0.04700
H 	H 	0.35614 0.71978 0.46154 0.04600
H 	H 	0.29888 0.75892 0.45367 0.03300
H 	H 	0.34152 0.56490 0.43821 0.03200
H 	H 	0.39956 0.66576 0.45831 0.04600
H 	H 	0.43966 0.71677 0.58301 0.04700
H 	H 	0.38450 0.61560 0.56379 0.03200
H 	H 	0.62409 0.80798 0.56290 0.03000
H 	H 	0.55455 0.77873 0.57791 0.04600
H 	H 	0.44085 0.77232 0.46589 0.04600
H 	H 	0.51095 0.80346 0.45181 0.03200
H 	H 	0.22204 0.43947 0.49469 0.03600
H 	H 	0.27750 0.53879 0.51048 0.03700
H 	H 	0.35877 0.49248 0.46106 0.03600
H 	H 	0.30031 0.39231 0.44250 0.03700
H 	H 	0.24726 0.86749 0.54895 0.03700
H 	H 	0.31179 0.83675 0.56021 0.03700
H 	H 	0.32226 0.86936 0.46437 0.03700
H 	H 	0.25688 0.89885 0.45255 0.03700
H 	H 	0.74633 0.93690 0.54429 0.03700
H 	H 	0.67414 0.90689 0.55666 0.03600
H 	H 	0.56506 0.75216 0.43784 0.03600
H 	H 	0.63692 0.78296 0.42512 0.03500
Zn	Zn	0.13571 0.13383 0.99251 1.18600
Zn	Zn	0.04417 0.08015 0.90011 1.19500
O 	O 	0.04428 0.98546 0.84142 -0.48700
O 	O 	0.02015 0.05008 0.83974 -0.45200
O 	O 	0.04166 0.92115 0.90116 -0.50400
C 	C 	0.19410 0.10564 0.96509 0.31100
O 	O 	0.99373 0.00293 0.88763 -0.86400
C 	C 	0.13551 0.20568 0.95172 0.32300
O 	O 	0.20018 0.13647 0.99853 -0.46500
O 	O 	0.14420 0.06719 0.93051 -0.34400
O 	O 	0.06102 0.09386 0.95783 -0.78600
O 	O 	0.08925 0.00318 0.96136 -0.44900
O 	O 	0.10074 0.15816 0.91514 -0.46000
O 	O 	0.15119 0.20433 0.98736 -0.46600
Zn	Zn	0.89763 0.91369 0.91046 1.17400
Zn	Zn	0.99874 0.95333 0.99022 1.19000
Zn	Zn	0.01479 0.01665 0.94346 1.21600
C 	C 	0.90172 0.83999 0.95193 0.32500
C 	C 	0.86955 0.95723 0.96055 0.32400
O 	O 	0.94241 0.03593 0.92681 -0.45200
Zn	Zn	0.99984 0.05668 0.01432 1.19800
O 	O 	0.95611 0.87321 0.97622 -0.46500
O 	O 	0.87235 0.84504 0.91954 -0.46800
O 	O 	0.85485 0.93778 0.92191 -0.48600
O 	O 	0.91954 0.97447 0.99101 -0.47600
C 	C 	0.03193 0.02315 0.07831 0.32800
O 	O 	0.96869 0.93914 0.92980 -0.80000
C 	C 	0.94213 0.07583 0.95061 0.32800
O 	O 	0.02730 0.98015 0.05259 -0.44900
O 	O 	0.03271 0.06508 0.07046 -0.47900
O 	O 	0.96529 0.09106 0.99054 -0.49700
O 	O 	0.03625 0.03031 0.99899 -0.89000
Zn	Zn	0.01251 0.95319 0.86907 1.18100
C 	C 	0.03254 0.01625 0.82429 0.32200
C 	C 	0.08379 0.95616 0.94061 0.32000
H 	H 	0.07667 0.05270 0.02064 0.15300
H 	H 	0.95427 0.98825 0.86796 0.14100
Zn	Zn	0.13393 0.11266 0.49010 1.18500
Zn	Zn	0.04219 0.06387 0.39910 1.19500
O 	O 	0.04268 0.97375 0.33565 -0.49300
O 	O 	0.01593 0.03662 0.33842 -0.45300
O 	O 	0.05289 0.91086 0.39856 -0.50800
C 	C 	0.19364 0.09244 0.46082 0.31000
O 	O 	0.99500 0.98523 0.38577 -0.88100
C 	C 	0.13827 0.18805 0.45152 0.33200
O 	O 	0.19643 0.11137 0.49515 -0.47000
O 	O 	0.14800 0.07177 0.42432 -0.36100
O 	O 	0.05946 0.07492 0.45647 -0.78700
O 	O 	0.08839 0.98394 0.46040 -0.46900
O 	O 	0.09487 0.14364 0.41427 -0.45300
O 	O 	0.15287 0.18468 0.48642 -0.46100
Zn	Zn	0.89455 0.89507 0.40369 1.17500
Zn	Zn	0.98875 0.93102 0.48422 1.18800
Zn	Zn	0.01331 0.99681 0.44057 1.21500
C 	C 	0.88908 0.81110 0.43488 0.32800
C 	C 	0.86556 0.93283 0.45575 0.33400
O 	O 	0.93923 0.01300 0.42173 -0.47400
Zn	Zn	0.99479 0.03469 0.50956 1.19900
O 	O 	0.93911 0.85127 0.46959 -0.45200
O 	O 	0.86664 0.81951 0.40263 -0.47000
O 	O 	0.84949 0.91390 0.41668 -0.47900
O 	O 	0.91607 0.95046 0.48539 -0.49200
C 	C 	0.02837 0.00219 0.57431 0.32900
O 	O 	0.96585 0.91906 0.42506 -0.79300
C 	C 	0.93555 0.05067 0.44404 0.33600
O 	O 	0.02023 0.95763 0.54705 -0.44300
O 	O 	0.02593 0.04273 0.56569 -0.47400
O 	O 	0.95786 0.06644 0.48396 -0.49400
O 	O 	0.03177 0.00837 0.49509 -0.89400
Zn	Zn	0.02071 0.94309 0.36845 1.18200
C 	C 	0.02955 0.00603 0.32117 0.32800
C 	C 	0.08567 0.93889 0.43974 0.32500
H 	H 	0.07169 0.02893 0.51761 0.16400
H 	H 	0.95523 0.96811 0.36476 0.14900
C 	C 	0.04523 0.01432 0.72333 0.06500
N 	N 	0.01884 0.03659 0.73250 -0.12100
C 	C 	0.01476 0.03804 0.76486 0.06500
C 	C 	0.03830 0.01663 0.78995 -0.11600
C 	C 	0.06694 0.99502 0.78165 0.02600
C 	C 	0.07058 0.99400 0.74837 -0.09200
H 	H 	0.99267 0.05521 0.77075 0.02500
H 	H 	0.08649 0.97926 0.80097 0.02600
H 	H 	0.09296 0.97760 0.74209 0.04500
C 	C 	0.03979 0.00642 0.61496 -0.11300
C 	C 	0.02683 0.95802 0.62045 0.03000
C 	C 	0.03029 0.96074 0.65658 -0.09000
C 	C 	0.04713 0.01213 0.68726 0.06500
N 	N 	0.06121 0.05922 0.68203 -0.12100
C 	C 	0.05852 0.05765 0.64716 0.06800
H 	H 	0.01249 0.91801 0.59631 0.02600
H 	H 	0.01829 0.92278 0.66010 0.04600
H 	H 	0.06983 0.09595 0.64408 0.02200
C 	C 	0.04078 0.02288 0.18658 0.06400
N 	N 	0.05684 0.99399 0.16868 -0.12300
C 	C 	0.05527 0.99431 0.13445 0.06200
C 	C 	0.03659 0.02460 0.11662 -0.11700
C 	C 	0.01940 0.05397 0.13439 0.03500
C 	C 	0.02100 0.05275 0.16914 -0.08600
H 	H 	0.06837 0.97091 0.12107 0.02500
H 	H 	0.00373 0.07672 0.12079 0.02100
H 	H 	0.00612 0.07408 0.18203 0.04700
C 	C 	0.03464 0.01158 0.28762 -0.11800
C 	C 	0.05640 0.06474 0.28911 0.03700
C 	C 	0.06045 0.06923 0.25689 -0.08500
C 	C 	0.04156 0.02008 0.22282 0.06400
N 	N 	0.02223 0.96903 0.22263 -0.12400
C 	C 	0.01865 0.96389 0.25411 0.06100
H 	H 	0.07053 0.10251 0.31528 0.02900
H 	H 	0.07783 0.11048 0.25823 0.04700
H 	H 	0.00254 0.92256 0.25275 0.01100
C 	C 	0.16893 0.24358 0.45420 -0.11400
C 	C 	0.22706 0.27940 0.48250 0.10500
C 	C 	0.25527 0.33271 0.48540 -0.09100
C 	C 	0.22623 0.35038 0.46007 -0.00200
C 	C 	0.16826 0.31285 0.42974 0.03500
C 	C 	0.14003 0.26034 0.42768 -0.01200
H 	H 	0.29989 0.36044 0.50748 0.05100
H 	H 	0.09549 0.23234 0.40513 0.04100
N 	N 	0.25767 0.25997 0.50639 -0.14300
N 	N 	0.13787 0.32648 0.39968 -0.13800
C 	C 	0.28078 0.29034 0.55086 -0.08700
H 	H 	0.31354 0.33604 0.56547 0.04000
H 	H 	0.29947 0.27065 0.56757 0.03900
H 	H 	0.24792 0.28711 0.55482 0.04600
C 	C 	0.14260 0.31362 0.36468 -0.09000
H 	H 	0.18598 0.34114 0.37557 0.04700
H 	H 	0.11637 0.32167 0.34107 0.04400
H 	H 	0.12784 0.26792 0.34911 0.04900
H 	H 	0.28922 0.26537 0.50285 0.07700
H 	H 	0.14927 0.36865 0.41342 0.07600
C 	C 	0.82339 0.91608 0.46402 -0.11900
C 	C 	0.78561 0.93239 0.45133 0.10300
C 	C 	0.74335 0.91269 0.45700 -0.09200
C 	C 	0.74027 0.87932 0.47711 -0.00200
C 	C 	0.78006 0.86535 0.49173 0.03600
C 	C 	0.82077 0.88324 0.48455 -0.01000
H 	H 	0.71382 0.92468 0.44675 0.04900
H 	H 	0.85033 0.87128 0.49483 0.04400
N 	N 	0.79216 0.97170 0.43490 -0.14500
N 	N 	0.78026 0.83399 0.51471 -0.13700
C 	C 	0.82140 0.02989 0.46809 -0.08700
H 	H 	0.79816 0.03286 0.48142 0.04400
H 	H 	0.82573 0.05956 0.45490 0.05200
H 	H 	0.86356 0.04380 0.49343 0.05200
C 	C 	0.74900 0.77271 0.48662 -0.09100
H 	H 	0.70538 0.75607 0.46231 0.04400
H 	H 	0.74929 0.74975 0.50513 0.04300
H 	H 	0.76859 0.76381 0.47131 0.04900
H 	H 	0.75366 0.95983 0.41002 0.07300
H 	H 	0.76658 0.84261 0.53315 0.07700
C 	C 	0.12624 0.92597 0.46229 -0.12700
C 	C 	0.10993 0.86893 0.45270 0.10500
C 	C 	0.15018 0.85624 0.46623 -0.09100
C 	C 	0.20643 0.89995 0.49123 0.00200
C 	C 	0.22281 0.95728 0.50558 0.03100
C 	C 	0.18256 0.97012 0.49075 -0.02400
H 	H 	0.13764 0.81224 0.45701 0.05500
H 	H 	0.19523 0.01420 0.50053 0.03800
N 	N 	0.05284 0.82385 0.43056 -0.15200
N 	N 	0.28021 0.00234 0.53708 -0.13200
C 	C 	0.03343 0.82854 0.45714 -0.07600
H 	H 	0.05964 0.82826 0.48617 0.04100
H 	H 	0.99044 0.79130 0.43971 0.04300
H 	H 	0.03348 0.86803 0.46562 0.00600
C 	C 	0.30384 0.03426 0.51990 -0.09400
H 	H 	0.29240 0.00510 0.48945 0.05400
H 	H 	0.34958 0.06057 0.54229 0.04700
H 	H 	0.28993 0.06338 0.51572 0.05100
H 	H 	0.02714 0.82134 0.40223 0.07900
H 	H 	0.28487 0.02983 0.56247 0.07100
C 	C 	0.22427 0.36830 0.96163 -0.00000
C 	C 	0.25097 0.34068 0.97443 0.03600
C 	C 	0.22125 0.28727 0.97081 -0.01400
C 	C 	0.16475 0.26037 0.95329 -0.11500
C 	C 	0.13753 0.28747 0.93937 0.10200
C 	C 	0.16756 0.34120 0.94358 -0.08700
H 	H 	0.24231 0.26689 0.98193 0.03500
H 	H 	0.14697 0.36242 0.93361 0.05500
N 	N 	0.30898 0.36796 0.99241 -0.13300
N 	N 	0.07957 0.26128 0.92151 -0.14800
C 	C 	0.31745 0.34105 0.96253 -0.09100
H 	H 	0.30317 0.29621 0.95581 0.04400
H 	H 	0.36220 0.36517 0.97618 0.04600
H 	H 	0.29524 0.34187 0.93275 0.04800
C 	C 	0.07056 0.27266 0.95425 -0.09000
H 	H 	0.08367 0.25284 0.97374 0.03900
H 	H 	0.02585 0.25423 0.93934 0.04000
H 	H 	0.09345 0.31942 0.97464 0.04600
H 	H 	0.32936 0.36638 0.02016 0.06900
H 	H 	0.05633 0.21748 0.90097 0.07300
C 	C 	0.82588 0.93954 0.96719 -0.11900
C 	C 	0.82028 0.98014 0.98906 0.09800
C 	C 	0.77939 0.96169 0.99613 -0.08100
C 	C 	0.74379 0.90342 0.98134 -0.00400
C 	C 	0.74852 0.86294 0.95874 0.03700
C 	C 	0.78916 0.88121 0.95139 -0.01700
H 	H 	0.77507 0.99276 0.01288 0.04800
H 	H 	0.79250 0.84994 0.93372 0.03600
N 	N 	0.85405 0.03991 0.00248 -0.15200
N 	N 	0.71015 0.80291 0.94155 -0.13600
C 	C 	0.90434 0.06996 0.04511 -0.08600
H 	H 	0.92921 0.11582 0.05451 0.04000
H 	H 	0.92990 0.05233 0.04692 0.03700
H 	H 	0.89379 0.06691 0.06765 0.04700
C 	C 	0.73687 0.77911 0.96463 -0.09200
H 	H 	0.76857 0.77967 0.95997 0.04800
H 	H 	0.70529 0.73410 0.95278 0.04600
H 	H 	0.75621 0.80321 0.99868 0.04900
H 	H 	0.86320 0.04657 0.98148 0.08700
H 	H 	0.69332 0.78098 0.90970 0.07200
C 	C 	0.21461 0.92842 0.98246 0.00100
C 	C 	0.19609 0.93766 0.94732 0.03200
C 	C 	0.15502 0.94919 0.93531 -0.00600
C 	C 	0.13149 0.95097 0.95736 -0.12500
C 	C 	0.15183 0.94448 0.99369 0.10700
C 	C 	0.19355 0.93372 0.00609 -0.09700
H 	H 	0.14059 0.95575 0.90815 0.03600
H 	H 	0.20823 0.92744 0.03336 0.05500
N 	N 	0.21806 0.93450 0.92308 -0.13600
N 	N 	0.12991 0.94785 0.01794 -0.15200
C 	C 	0.26882 0.98906 0.94159 -0.11100
H 	H 	0.26077 0.02327 0.94317 0.06400
H 	H 	0.28373 0.98567 0.92155 0.04700
H 	H 	0.30170 0.00068 0.97347 0.05700
C 	C 	0.07956 0.89316 0.99998 -0.09400
H 	H 	0.04566 0.88162 0.96852 0.03100
H 	H 	0.06599 0.89648 0.02094 0.03300
H 	H 	0.08753 0.85876 0.99750 0.05200
H 	H 	0.22388 0.90100 0.91846 0.07600
H 	H 	0.12357 0.98102 0.02187 0.05000
C 	C 	0.89797 0.06706 0.42260 -0.12900
C 	C 	0.91371 0.12413 0.44040 0.10500
C 	C 	0.87472 0.13774 0.42318 -0.09600
C 	C 	0.81961 0.09455 0.38971 0.00200
C 	C 	0.80495 0.03830 0.36981 0.03200
C 	C 	0.84443 0.02487 0.38620 -0.00300
H 	H 	0.88659 0.18149 0.43747 0.05100
H 	H 	0.83254 0.98112 0.37185 0.02000
N 	N 	0.96970 0.16839 0.47589 -0.14800
N 	N 	0.74935 0.99444 0.33364 -0.13900
C 	C 	0.97283 0.18954 0.51419 -0.08700
H 	H 	0.95330 0.21413 0.51280 0.04100
H 	H 	0.01689 0.21830 0.54158 0.03700
H 	H 	0.95243 0.15374 0.51912 0.05200
C 	C 	0.74589 0.98473 0.29503 -0.09600
H 	H 	0.75900 0.02471 0.29273 0.05100
H 	H 	0.70237 0.95209 0.26755 0.04200
H 	H 	0.77195 0.96891 0.29378 0.03500
H 	H 	0.98555 0.20194 0.47000 0.06900
H 	H 	0.73586 0.95649 0.33533 0.06900
C 	C 	0.79444 0.65046 0.42625 -0.00200
C 	C 	0.76764 0.66953 0.40027 0.03400
C 	C 	0.79906 0.72219 0.40381 -0.01500
C 	C 	0.85706 0.75564 0.43212 -0.11400
C 	C 	0.88375 0.73579 0.45740 0.10300
C 	C 	0.85216 0.68337 0.45420 -0.09200
H 	H 	0.77814 0.73712 0.38447 0.04200
H 	H 	0.87271 0.66813 0.47348 0.05100
N 	N 	0.70857 0.63504 0.36929 -0.13900
N 	N 	0.94312 0.76816 0.48551 -0.14000
C 	C 	0.68054 0.64765 0.38683 -0.09000
H 	H 	0.69174 0.64228 0.41522 0.04400
H 	H 	0.63512 0.61802 0.36303 0.04200
H 	H 	0.69119 0.69189 0.39476 0.04500
C 	C 	0.96224 0.79646 0.52914 -0.08700
H 	H 	0.94450 0.82198 0.53274 0.05900
H 	H 	0.00794 0.82600 0.54951 0.04500
H 	H 	0.95077 0.76466 0.53984 0.04100
H 	H 	0.69261 0.59137 0.35546 0.07500
H 	H 	0.95743 0.74170 0.48184 0.07100
C 	C 	0.24429 0.10449 0.46394 -0.11200
C 	C 	0.24358 0.06441 0.43517 0.09900
C 	C 	0.29133 0.08017 0.43649 -0.08700
C 	C 	0.33933 0.13505 0.46566 -0.00400
C 	C 	0.34146 0.17299 0.49672 0.03500
C 	C 	0.29396 0.15741 0.49553 -0.01500
H 	H 	0.29059 0.05007 0.41400 0.05500
H 	H 	0.29567 0.18685 0.51916 0.04300
N 	N 	0.19576 0.00667 0.40611 -0.13800
N 	N 	0.39205 0.22714 0.53021 -0.14000
C 	C 	0.16444 0.99901 0.36374 -0.11400
H 	H 	0.15414 0.03154 0.36370 0.07600
H 	H 	0.12540 0.95593 0.34303 0.05200
H 	H 	0.18859 0.00193 0.35048 0.05900
C 	C 	0.42597 0.22067 0.56488 -0.09000
H 	H 	0.40291 0.20231 0.57732 0.04500
H 	H 	0.46368 0.26327 0.59073 0.04300
H 	H 	0.43889 0.19295 0.55470 0.04500
H 	H 	0.17052 0.99297 0.41605 0.07100
H 	H 	0.41439 0.24770 0.51996 0.07600
C 	C 	0.91358 0.10202 0.93227 -0.12500
C 	C 	0.85916 0.06825 0.89518 0.10200
C 	C 	0.82906 0.09322 0.88371 -0.09400
C 	C 	0.85038 0.14917 0.91123 0.00300
C 	C 	0.90623 0.18409 0.94618 0.03300
C 	C 	0.93802 0.16068 0.95557 -0.01400
H 	H 	0.78739 0.06765 0.85516 0.05100
H 	H 	0.98075 0.18741 0.98288 0.02800
N 	N 	0.83446 0.00867 0.86938 -0.14500
N 	N 	0.92988 0.24279 0.97333 -0.13300
C 	C 	0.78599 0.97217 0.86726 -0.09500
H 	H 	0.79538 0.98476 0.89915 0.05700
H 	H 	0.77358 0.92723 0.85294 0.03800
H 	H 	0.75046 0.97417 0.84731 0.03800
C 	C 	0.93162 0.24932 0.01107 -0.09500
H 	H 	0.88949 0.22195 0.00256 0.05100
H 	H 	0.94758 0.29440 0.03037 0.04300
H 	H 	0.95945 0.23832 0.03028 0.04100
H 	H 	0.82346 0.00078 0.83918 0.06200
H 	H 	0.96960 0.26892 0.98154 0.07000
C 	C 	0.87393 0.78950 0.95567 -0.11700
C 	C 	0.88702 0.79375 0.99520 0.10600
C 	C 	0.86173 0.74430 0.99748 -0.08400
C 	C 	0.82274 0.69101 0.96115 -0.00100
C 	C 	0.80750 0.68698 0.92174 0.03300
C 	C 	0.83300 0.73628 0.91917 -0.01400
H 	H 	0.87254 0.74739 0.02774 0.05200
H 	H 	0.82140 0.73292 0.88874 0.03200
N 	N 	0.92467 0.84800 0.03310 -0.15000
N 	N 	0.76485 0.63275 0.88412 -0.13600
C 	C 	0.89847 0.87885 0.03607 -0.09100
H 	H 	0.88769 0.89121 0.01107 0.05100
H 	H 	0.92750 0.91822 0.06696 0.05500
H 	H 	0.86082 0.85237 0.03386 0.04600
C 	C 	0.78836 0.60969 0.86671 -0.09000
H 	H 	0.80723 0.63681 0.85546 0.03900
H 	H 	0.75499 0.56614 0.83965 0.04300
H 	H 	0.81991 0.60637 0.89049 0.04800
H 	H 	0.96206 0.87293 0.03767 0.09300
H 	H 	0.73604 0.63689 0.86184 0.07000
C 	C 	0.34091 0.15508 0.97040 0.00500
C 	C 	0.34095 0.15352 0.00496 0.03000
C 	C 	0.29195 0.13481 0.00225 -0.02400
C 	C 	0.24304 0.11785 0.96535 -0.10300
C 	C 	0.24258 0.11699 0.93004 0.09900
C 	C 	0.29154 0.13519 0.93277 -0.09400
H 	H 	0.29223 0.13434 0.02912 0.03900
H 	H 	0.29147 0.13565 0.90597 0.05100
N 	N 	0.39140 0.17266 0.04337 -0.13600
N 	N 	0.19256 0.09884 0.89168 -0.13700
C 	C 	0.39299 0.12400 0.04669 -0.09100
H 	H 	0.35824 0.09630 0.04714 0.04200
H 	H 	0.43244 0.13987 0.07632 0.04400
H 	H 	0.39122 0.09857 0.02015 0.04500
C 	C 	0.19231 0.14808 0.88848 -0.09300
H 	H 	0.19687 0.17544 0.91595 0.05700
H 	H 	0.15222 0.13288 0.85974 0.05900
H 	H 	0.22608 0.17369 0.88637 0.04500
H 	H 	0.39547 0.19794 0.06934 0.07200
H 	H 	0.18798 0.07297 0.86565 0.07900
