data_crystal

_cell_length_a 36.33742
_cell_length_b 35.65555
_cell_length_c 21.52632
_cell_angle_alpha 91.36095
_cell_angle_beta  89.98969
_cell_angle_gamma 90.05618

_symmetry_space_group_name_	'P 1'
_symmetry_space_group_name_H-M	'P 1'

loop_
_symmetry_equiv_pos_as_xyz
  x,y,z

loop_
_atom_site_label
_atom_site_type_symbol
_atom_site_fract_x
_atom_site_fract_y
_atom_site_fract_z
_atom_site_charge
Cd	Cd	0.95744 0.82945 0.24738 1.24300
Cd	Cd	0.99138 0.89345 0.36429 1.17600
O 	O 	0.90242 0.79257 0.27266 -0.31400
O 	O 	0.92907 0.78737 0.18172 -0.33300
C 	C 	0.90448 0.77443 0.21971 0.28600
O 	O 	0.00056 0.86227 0.19785 -0.36500
O 	O 	0.03078 0.87887 0.28746 -0.45800
C 	C 	0.02295 0.88507 0.22896 0.28600
C 	C 	0.92272 0.90036 0.26544 0.29800
O 	O 	0.98173 0.82932 0.36281 -0.46300
O 	O 	0.90996 0.88358 0.21513 -0.27500
O 	O 	0.94287 0.87964 0.30044 -0.53900
C 	C 	0.00511 0.80339 0.34546 0.30700
O 	O 	0.00179 0.79075 0.28832 -0.34500
Cd	Cd	0.97019 0.94180 0.02284 1.23800
Cd	Cd	0.99425 0.99960 0.89585 1.17000
O 	O 	0.92465 0.89230 0.00089 -0.31300
O 	O 	0.95506 0.89486 0.08871 -0.35800
C 	C 	0.93200 0.87636 0.05303 0.29600
O 	O 	0.01800 0.97674 0.05871 -0.38200
O 	O 	0.00901 0.02360 0.98915 -0.43100
C 	C 	0.02972 0.00731 0.03077 0.30000
C 	C 	0.02211 0.91519 0.93359 0.32600
O 	O 	0.93858 0.98810 0.94586 -0.45800
O 	O 	0.01945 0.89232 0.97978 -0.29700
O 	O 	0.99622 0.94018 0.93116 -0.55600
C 	C 	0.92531 0.00618 0.99440 0.31400
O 	O 	0.93066 0.99061 0.04784 -0.37200
C 	C 	0.92281 0.72487 0.97483 0.13000
N 	N 	0.93272 0.69331 0.00476 -0.12400
C 	C 	0.93576 0.66023 0.97266 0.12500
N 	N 	0.92621 0.65817 0.91178 -0.14200
C 	C 	0.91519 0.68933 0.88201 0.13300
N 	N 	0.91445 0.72294 0.91321 -0.13600
C 	C 	0.88153 0.63714 0.32195 0.13800
N 	N 	0.89441 0.60197 0.30953 -0.14100
C 	C 	0.90089 0.57812 0.35662 0.13100
N 	N 	0.89629 0.59024 0.41644 -0.14400
C 	C 	0.88460 0.62574 0.42918 0.13300
N 	N 	0.87574 0.64858 0.38185 -0.13200
Cd	Cd	0.95489 0.15748 0.75348 1.24100
Cd	Cd	0.00898 0.18584 0.88165 1.17400
O 	O 	0.89822 0.19237 0.73135 -0.31800
O 	O 	0.91634 0.14523 0.67218 -0.34000
C 	C 	0.88986 0.16827 0.68734 0.28200
O 	O 	0.00459 0.12132 0.74403 -0.39200
O 	O 	0.02195 0.12744 0.84608 -0.44500
C 	C 	0.02912 0.11627 0.78833 0.29000
C 	C 	0.00423 0.21868 0.74314 0.33100
O 	O 	0.94799 0.16617 0.87566 -0.45100
O 	O 	0.99268 0.20761 0.68807 -0.31200
O 	O 	0.98640 0.20487 0.78930 -0.56100
C 	C 	0.93620 0.13159 0.87536 0.29200
O 	O 	0.93114 0.11570 0.82103 -0.36500
Cd	Cd	0.91904 0.09298 0.48267 1.24000
Cd	Cd	0.97647 0.07642 0.34976 1.17200
O 	O 	0.86862 0.13717 0.46569 -0.31800
O 	O 	0.87219 0.10533 0.55144 -0.32000
C 	C 	0.85382 0.12920 0.51857 0.28300
O 	O 	0.95791 0.04528 0.50914 -0.37300
O 	O 	0.00236 0.06358 0.44053 -0.41100
C 	C 	0.98934 0.03884 0.47887 0.26300
C 	C 	0.89443 0.04110 0.38899 0.30900
O 	O 	0.96168 0.13063 0.40736 -0.45000
O 	O 	0.87206 0.04247 0.43626 -0.28100
O 	O 	0.91854 0.06821 0.38832 -0.53700
C 	C 	0.97887 0.14385 0.45672 0.29500
O 	O 	0.96377 0.13610 0.50982 -0.35700
C 	C 	0.74558 0.14526 0.75955 0.13900
N 	N 	0.71591 0.12417 0.74270 -0.13500
C 	C 	0.69047 0.11471 0.78592 0.13200
N 	N 	0.69392 0.12776 0.84538 -0.14300
C 	C 	0.72272 0.15007 0.86191 0.13100
N 	N 	0.74871 0.15852 0.81909 -0.13700
C 	C 	0.71724 0.15162 0.42633 0.14000
N 	N 	0.72783 0.15905 0.36728 -0.13400
C 	C 	0.70283 0.15787 0.32040 0.13400
N 	N 	0.66706 0.15013 0.33293 -0.14200
C 	C 	0.65641 0.14237 0.39172 0.13200
N 	N 	0.68168 0.14259 0.43821 -0.13800
Cd	Cd	0.13633 0.09829 0.22383 1.24300
Cd	Cd	0.15320 0.03574 0.34271 1.16700
O 	O 	0.16981 0.15828 0.22552 -0.31600
O 	O 	0.12954 0.14424 0.15353 -0.33700
C 	C 	0.14880 0.17043 0.18152 0.27100
O 	O 	0.10608 0.04683 0.19309 -0.38900
O 	O 	0.09996 0.02428 0.29138 -0.45200
C 	C 	0.09604 0.01999 0.23066 0.29300
C 	C 	0.20019 0.05311 0.21764 0.31400
O 	O 	0.13360 0.09799 0.34670 -0.44800
O 	O 	0.19392 0.06795 0.16363 -0.30900
O 	O 	0.18033 0.06616 0.26302 -0.54900
C 	C 	0.09987 0.11017 0.34218 0.28800
O 	O 	0.08805 0.11488 0.28579 -0.38200
Cd	Cd	0.16890 0.19708 0.99275 1.23900
Cd	Cd	0.16398 0.13506 0.86315 1.17400
O 	O 	0.19734 0.25906 0.98080 -0.32100
O 	O 	0.16785 0.24485 0.06582 -0.33200
C 	C 	0.18444 0.27059 0.03421 0.28800
O 	O 	0.13242 0.15018 0.02242 -0.37700
O 	O 	0.15467 0.10513 0.95366 -0.43700
C 	C 	0.13347 0.11502 0.00125 0.29300
C 	C 	0.11695 0.21214 0.89634 0.26700
O 	O 	0.21380 0.16233 0.91514 -0.45300
O 	O 	0.10837 0.22885 0.94896 -0.31100
O 	O 	0.14788 0.19395 0.89715 -0.52600
C 	C 	0.23098 0.14922 0.96312 0.29400
O 	O 	0.22054 0.16238 0.01738 -0.35600
C 	C 	0.13282 0.40109 0.95102 0.14000
N 	N 	0.13649 0.38968 0.89069 -0.13400
C 	C 	0.11144 0.40015 0.84772 0.13200
N 	N 	0.08253 0.42206 0.86528 -0.14500
C 	C 	0.08002 0.43553 0.92469 0.13100
N 	N 	0.10568 0.42562 0.96717 -0.14100
C 	C 	0.08773 0.29589 0.30424 0.13700
N 	N 	0.09821 0.29619 0.36484 -0.13700
C 	C 	0.08493 0.32284 0.40493 0.13400
N 	N 	0.06087 0.34886 0.38458 -0.14100
C 	C 	0.04986 0.34831 0.32435 0.13000
N 	N 	0.06278 0.32136 0.28437 -0.13500
Cd	Cd	0.22249 0.97150 0.76886 1.24000
Cd	Cd	0.18355 0.98973 0.91913 1.17800
O 	O 	0.26313 0.91689 0.76043 -0.30900
O 	O 	0.25137 0.95125 0.67995 -0.35300
C 	C 	0.27092 0.92428 0.70313 0.29600
O 	O 	0.18018 0.01570 0.75149 -0.38700
O 	O 	0.17741 0.03675 0.85266 -0.45000
C 	C 	0.16170 0.03174 0.79796 0.27000
C 	C 	0.16111 0.92916 0.80794 0.31000
O 	O 	0.24367 0.98758 0.88360 -0.45800
O 	O 	0.16772 0.92210 0.74904 -0.29300
O 	O 	0.18656 0.94749 0.83787 -0.53900
C 	C 	0.26259 0.01536 0.86143 0.30800
O 	O 	0.26376 0.01693 0.80100 -0.36700
Cd	Cd	0.18228 0.89770 0.46825 1.23800
Cd	Cd	0.13127 0.88677 0.33001 1.16900
O 	O 	0.24505 0.87246 0.46980 -0.30400
O 	O 	0.22451 0.90900 0.54497 -0.34900
C 	C 	0.25293 0.89270 0.51894 0.29600
O 	O 	0.13183 0.93349 0.48316 -0.41100
O 	O 	0.09667 0.89782 0.41586 -0.45100
C 	C 	0.09996 0.92639 0.45554 0.28400
C 	C 	0.20041 0.94381 0.36552 0.25400
O 	O 	0.15803 0.84350 0.39478 -0.45200
O 	O 	0.21247 0.95778 0.41829 -0.33300
O 	O 	0.18489 0.91110 0.36924 -0.52600
C 	C 	0.14220 0.82865 0.44262 0.30400
O 	O 	0.15012 0.84440 0.49649 -0.35300
C 	C 	0.41241 0.92785 0.75709 0.13300
N 	N 	0.44611 0.93937 0.73793 -0.13100
C 	C 	0.47159 0.95115 0.78032 0.13000
N 	N 	0.46321 0.95149 0.84187 -0.14300
C 	C 	0.42982 0.93938 0.86125 0.12900
N 	N 	0.40428 0.92803 0.81878 -0.13900
C 	C 	0.37425 0.96536 0.42308 0.13600
N 	N 	0.39815 0.99217 0.44370 -0.13100
C 	C 	0.42050 0.00959 0.40288 0.14100
N 	N 	0.41926 0.99983 0.34156 -0.14700
C 	C 	0.39584 0.97263 0.32093 0.13100
N 	N 	0.37319 0.95551 0.36167 -0.13900
C 	C 	0.42014 0.94206 0.92792 -0.04200
C 	C 	0.41048 0.90984 0.96172 0.09500
C 	C 	0.40165 0.91376 0.02515 -0.07700
C 	C 	0.40398 0.94879 0.05597 -0.00900
C 	C 	0.41364 0.98098 0.02218 0.07900
C 	C 	0.42128 0.97728 0.95834 -0.06500
N 	N 	0.41085 0.87504 0.93434 -0.19800
H 	H 	0.39433 0.88917 0.05120 0.05700
C 	C 	0.39988 0.95075 0.12463 -0.00300
N 	N 	0.41585 0.01540 0.05067 -0.19300
H 	H 	0.42845 0.00192 0.93232 0.05800
C 	C 	0.43020 0.94189 0.16175 -0.08600
C 	C 	0.42839 0.94599 0.22671 0.10400
C 	C 	0.39610 0.96079 0.25477 -0.04900
C 	C 	0.36508 0.96777 0.21801 -0.05100
C 	C 	0.36651 0.96254 0.15306 0.07000
H 	H 	0.45536 0.93184 0.13997 0.05800
N 	N 	0.45741 0.93507 0.26186 -0.19900
H 	H 	0.34009 0.97827 0.23976 0.05100
N 	N 	0.33603 0.96936 0.11841 -0.19400
H 	H 	0.48168 0.92558 0.24073 0.08900
H 	H 	0.45562 0.93430 0.31023 0.09700
H 	H 	0.31179 0.97884 0.13968 0.08500
H 	H 	0.33588 0.96481 0.07033 0.08900
H 	H 	0.42314 0.03893 0.02535 0.09000
H 	H 	0.41029 0.01925 0.09795 0.09300
H 	H 	0.42053 0.87058 0.88913 0.09800
H 	H 	0.40259 0.85165 0.95920 0.09100
C 	C 	0.29112 0.95022 0.52379 -0.01800
C 	C 	0.28941 0.91081 0.52223 -0.07200
C 	C 	0.32078 0.89029 0.50285 0.10900
C 	C 	0.35013 0.90890 0.47452 -0.05400
C 	C 	0.34874 0.94774 0.46669 -0.01400
C 	C 	0.32032 0.96876 0.49510 0.06800
N 	N 	0.31986 0.00876 0.49173 -0.01500
H 	H 	0.26811 0.96643 0.54185 0.06600
H 	H 	0.37315 0.89290 0.45593 0.07200
N 	N 	0.32132 0.85019 0.50635 -0.02200
O 	O 	0.31349 0.02459 0.43899 -0.11900
O 	O 	0.32282 0.02929 0.54224 -0.10100
O 	O 	0.33209 0.82981 0.45883 -0.09500
O 	O 	0.31198 0.83409 0.55756 -0.08100
C 	C 	0.33012 0.94751 0.66258 -0.02100
C 	C 	0.30856 0.91689 0.68060 -0.07400
C 	C 	0.32653 0.88385 0.69908 0.11200
C 	C 	0.36401 0.88551 0.71508 -0.05300
C 	C 	0.38322 0.91949 0.71141 -0.01800
C 	C 	0.36759 0.94882 0.67769 0.07300
N 	N 	0.38882 0.98130 0.66352 -0.01900
H 	H 	0.31706 0.97217 0.64417 0.06900
H 	H 	0.37712 0.86158 0.73588 0.07100
N 	N 	0.30580 0.85016 0.70933 -0.01900
O 	O 	0.41562 0.97870 0.62361 -0.10500
O 	O 	0.37954 0.01396 0.68670 -0.10300
O 	O 	0.27680 0.84251 0.67590 -0.08000
O 	O 	0.31549 0.82751 0.75293 -0.09700
C 	C 	0.11375 0.38488 0.78340 -0.04700
C 	C 	0.10730 0.40793 0.73185 0.10500
C 	C 	0.10314 0.39133 0.67254 -0.08400
C 	C 	0.10888 0.35276 0.66285 -0.00400
C 	C 	0.11881 0.33021 0.71345 0.07500
C 	C 	0.12027 0.34636 0.77356 -0.05200
N 	N 	0.10681 0.44597 0.73851 -0.19900
H 	H 	0.09667 0.40871 0.63334 0.05800
C 	C 	0.10563 0.33677 0.59895 -0.00400
N 	N 	0.12678 0.29317 0.70475 -0.19400
H 	H 	0.12594 0.32878 0.81285 0.05800
C 	C 	0.13422 0.34293 0.55663 -0.08600
C 	C 	0.12900 0.33610 0.49273 0.10800
C 	C 	0.09465 0.32222 0.47122 -0.04900
C 	C 	0.06739 0.31264 0.51417 -0.05000
C 	C 	0.07244 0.31994 0.57797 0.07400
H 	H 	0.16002 0.35478 0.57317 0.06000
N 	N 	0.15669 0.34377 0.45237 -0.20100
H 	H 	0.04151 0.30096 0.49762 0.05300
N 	N 	0.04523 0.31114 0.61859 -0.19400
H 	H 	0.18173 0.35454 0.46872 0.09800
H 	H 	0.15388 0.33880 0.40465 0.11700
H 	H 	0.02068 0.29906 0.60254 0.09500
H 	H 	0.04833 0.31555 0.66638 0.09500
H 	H 	0.13501 0.27703 0.74215 0.09600
H 	H 	0.12536 0.28014 0.66089 0.09400
H 	H 	0.11587 0.45939 0.77934 0.09900
H 	H 	0.09978 0.46264 0.70103 0.08900
C 	C 	0.27858 0.11613 0.90112 -0.05900
C 	C 	0.25779 0.11842 0.95599 -0.10600
C 	C 	0.25421 0.08588 0.99163 0.09600
C 	C 	0.25930 0.05066 0.96248 -0.05600
C 	C 	0.27233 0.04836 0.90109 -0.12100
C 	C 	0.28742 0.08093 0.87476 0.11400
N 	N 	0.31139 0.07840 0.82641 -0.20100
H 	H 	0.28568 0.14148 0.87698 0.04900
H 	H 	0.25216 0.02536 0.98676 0.01000
N 	N 	0.24858 0.08838 0.05391 -0.19800
H 	H 	0.32086 0.10260 0.80506 0.09200
H 	H 	0.32294 0.05265 0.81292 0.11200
H 	H 	0.25032 0.11411 0.07786 0.11400
H 	H 	0.24618 0.06407 0.07977 0.09400
C 	C 	0.20139 0.33697 0.02003 -0.01100
C 	C 	0.17655 0.31095 0.04459 -0.07300
C 	C 	0.14045 0.32321 0.05921 0.10600
C 	C 	0.12813 0.35775 0.03800 -0.04900
C 	C 	0.15052 0.37901 0.99942 -0.02300
C 	C 	0.18832 0.37063 0.99560 0.07100
N 	N 	0.21303 0.39512 0.96406 -0.01700
H 	H 	0.23001 0.32926 0.01364 0.06800
H 	H 	0.09970 0.36580 0.04556 0.06300
N 	N 	0.11596 0.30063 0.09423 -0.02000
O 	O 	0.21105 0.43123 0.97362 -0.09800
O 	O 	0.23790 0.38131 0.92655 -0.10100
O 	O 	0.10417 0.31350 0.14758 -0.10200
O 	O 	0.09801 0.27358 0.06623 -0.09700
C 	C 	0.19486 0.98465 0.20943 -0.06000
C 	C 	0.21704 0.01606 0.22262 -0.14400
C 	C 	0.24628 0.01204 0.26484 0.10500
C 	C 	0.24474 0.98311 0.30784 -0.07400
C 	C 	0.21509 0.95776 0.30603 -0.11900
C 	C 	0.19434 0.95465 0.25073 0.04900
N 	N 	0.17774 0.92187 0.23390 -0.21400
H 	H 	0.17597 0.98500 0.17055 0.03100
H 	H 	0.26454 0.98234 0.34548 0.06600
N 	N 	0.27411 0.03745 0.26728 -0.20600
H 	H 	0.16259 0.91976 0.19281 0.04800
H 	H 	0.18364 0.89721 0.25705 0.01500
H 	H 	0.27559 0.05889 0.23509 0.09200
H 	H 	0.29516 0.03520 0.30007 0.09600
C 	C 	0.08043 0.24340 0.22732 -0.04900
C 	C 	0.10362 0.26819 0.26014 -0.01400
C 	C 	0.14197 0.26632 0.25052 0.08000
C 	C 	0.15682 0.23701 0.21387 -0.00900
C 	C 	0.13384 0.20894 0.18830 -0.07000
C 	C 	0.09533 0.21469 0.18959 0.10500
N 	N 	0.07138 0.19187 0.15207 -0.01600
H 	H 	0.05082 0.24627 0.23125 0.06400
H 	H 	0.18643 0.23444 0.20938 0.06800
N 	N 	0.16584 0.29420 0.27756 -0.01800
O 	O 	0.04677 0.17095 0.17823 -0.13700
O 	O 	0.07104 0.19563 0.09214 -0.11800
O 	O 	0.19371 0.28417 0.31124 -0.10600
O 	O 	0.16108 0.32943 0.26534 -0.10000
C 	C 	0.61930 0.12729 0.40263 -0.04900
C 	C 	0.59545 0.14373 0.44767 0.10600
C 	C 	0.56129 0.12682 0.45936 -0.08700
C 	C 	0.55000 0.09492 0.42509 -0.00400
C 	C 	0.57333 0.07931 0.37851 0.07400
C 	C 	0.60797 0.09536 0.36850 -0.05100
N 	N 	0.60461 0.17623 0.47833 -0.19900
H 	H 	0.54311 0.13897 0.49435 0.05800
C 	C 	0.51312 0.07893 0.43653 -0.00400
N 	N 	0.56256 0.04913 0.34304 -0.19400
H 	H 	0.62626 0.08290 0.33394 0.05100
C 	C 	0.48281 0.09360 0.40507 -0.08600
C 	C 	0.44999 0.07302 0.39992 0.10800
C 	C 	0.44805 0.03690 0.42541 -0.04900
C 	C 	0.47644 0.02469 0.46412 -0.04500
C 	C 	0.50903 0.04562 0.47032 0.07100
H 	H 	0.48539 0.12017 0.38194 0.05800
N 	N 	0.42051 0.08796 0.37052 -0.19900
H 	H 	0.47411 0.99781 0.48635 0.05400
N 	N 	0.53665 0.03309 0.50703 -0.19400
H 	H 	0.42255 0.11406 0.34968 0.09100
H 	H 	0.39494 0.07454 0.37036 0.10300
H 	H 	0.53404 0.00765 0.52980 0.09100
H 	H 	0.56034 0.04907 0.51508 0.09100
H 	H 	0.58026 0.03752 0.30950 0.08800
H 	H 	0.53645 0.03727 0.34744 0.09300
H 	H 	0.62802 0.19149 0.46652 0.10800
H 	H 	0.58739 0.18742 0.51294 0.09500
C 	C 	0.65919 0.09009 0.76881 -0.04700
C 	C 	0.66461 0.05435 0.73981 0.10600
C 	C 	0.63399 0.03147 0.72654 -0.08600
C 	C 	0.59887 0.04152 0.74820 -0.00400
C 	C 	0.59361 0.07680 0.77870 0.07300
C 	C 	0.62357 0.10135 0.78603 -0.05100
N 	N 	0.69902 0.04099 0.72775 -0.19800
H 	H 	0.63792 0.00447 0.70323 0.05900
C 	C 	0.56898 0.01317 0.74512 -0.00300
N 	N 	0.56022 0.08688 0.80243 -0.19400
H 	H 	0.61942 0.12874 0.80793 0.05200
C 	C 	0.57041 0.98265 0.78492 -0.08800
C 	C 	0.54005 0.95865 0.79063 0.10200
C 	C 	0.50690 0.96708 0.75952 -0.04200
C 	C 	0.50673 0.99521 0.71494 -0.06600
C 	C 	0.53794 0.01779 0.70629 0.08000
H 	H 	0.59500 0.97788 0.81216 0.05600
N 	N 	0.54306 0.92727 0.82493 -0.19800
H 	H 	0.48183 0.00065 0.68895 0.07400
N 	N 	0.53758 0.04442 0.66210 -0.19600
H 	H 	0.56703 0.92211 0.85015 0.08900
H 	H 	0.52252 0.90675 0.82407 0.09600
H 	H 	0.51383 0.04903 0.63598 0.09300
H 	H 	0.56113 0.05991 0.65191 0.09100
H 	H 	0.55648 0.11339 0.82323 0.08800
H 	H 	0.53803 0.06831 0.80242 0.09300
H 	H 	0.72235 0.05365 0.74716 0.10100
H 	H 	0.70254 0.01586 0.70246 0.09500
C 	C 	0.72773 0.16169 0.92771 -0.04400
C 	C 	0.69916 0.18011 0.96110 0.09700
C 	C 	0.70070 0.18235 0.02629 -0.07700
C 	C 	0.73105 0.16815 0.05834 -0.00800
C 	C 	0.76143 0.15345 0.02451 0.07900
C 	C 	0.75928 0.14994 0.95941 -0.05900
N 	N 	0.67053 0.19611 0.93086 -0.19800
H 	H 	0.67797 0.19470 0.05220 0.05700
C 	C 	0.72890 0.16500 0.12691 -0.00300
N 	N 	0.79259 0.14264 0.05414 -0.19500
H 	H 	0.78168 0.13684 0.93364 0.05300
C 	C 	0.71998 0.13020 0.15196 -0.08500
C 	C 	0.71390 0.12681 0.21599 0.10400
C 	C 	0.71528 0.15922 0.25527 -0.04700
C 	C 	0.72579 0.19371 0.23076 -0.05100
C 	C 	0.73309 0.19686 0.16690 0.07200
H 	H 	0.71756 0.10569 0.12142 0.05900
N 	N 	0.70718 0.09238 0.23951 -0.19900
H 	H 	0.72769 0.21832 0.26119 0.05800
N 	N 	0.74427 0.23035 0.14446 -0.19400
H 	H 	0.70484 0.06883 0.20991 0.09100
H 	H 	0.70563 0.08837 0.28733 0.09700
H 	H 	0.74642 0.25394 0.17401 0.09000
H 	H 	0.75191 0.23309 0.09803 0.09200
H 	H 	0.81444 0.13071 0.02903 0.08900
H 	H 	0.79592 0.14704 0.10193 0.09100
H 	H 	0.67042 0.19815 0.88255 0.09900
H 	H 	0.64878 0.20830 0.95585 0.08800
C 	C 	0.04296 0.12777 0.48249 -0.03900
C 	C 	0.01840 0.15223 0.45375 -0.10400
C 	C 	0.03193 0.17542 0.40694 0.10100
C 	C 	0.06537 0.16612 0.37812 -0.04600
C 	C 	0.08325 0.13256 0.39320 -0.10400
C 	C 	0.07475 0.11599 0.45052 0.09400
N 	N 	0.09584 0.08811 0.47355 -0.19700
H 	H 	0.03477 0.11379 0.52452 0.05800
H 	H 	0.07485 0.18207 0.33891 0.05800
N 	N 	0.01242 0.20562 0.38833 -0.19500
H 	H 	0.12119 0.08114 0.45378 0.04500
H 	H 	0.08778 0.07430 0.51365 0.07800
H 	H 	0.98805 0.21349 0.41088 0.08700
H 	H 	0.02211 0.22220 0.35241 0.09000
C 	C 	0.04094 0.95419 0.42150 -0.07500
C 	C 	0.06699 0.95022 0.46882 -0.12600
C 	C 	0.06137 0.96945 0.52663 0.10800
C 	C 	0.03299 0.99648 0.53203 -0.07500
C 	C 	0.00866 0.00243 0.48243 -0.06500
C 	C 	0.01168 0.97948 0.42806 0.03600
N 	N 	0.98782 0.98334 0.38021 -0.20200
H 	H 	0.04469 0.93921 0.37753 -0.04000
H 	H 	0.03054 0.01351 0.57424 0.05400
N 	N 	0.08151 0.96091 0.57754 -0.20200
H 	H 	0.98733 0.96372 0.34351 -0.00800
H 	H 	0.97072 0.00658 0.37772 0.01400
H 	H 	0.09604 0.93574 0.57962 0.09700
H 	H 	0.07994 0.97778 0.61782 0.08000
C 	C 	0.75482 0.11214 0.49506 -0.05200
C 	C 	0.74520 0.14795 0.47514 -0.01600
C 	C 	0.76710 0.17893 0.49307 0.07900
C 	C 	0.80150 0.17288 0.52060 -0.01600
C 	C 	0.81438 0.13621 0.52858 -0.07200
C 	C 	0.78926 0.10614 0.52250 0.10700
N 	N 	0.79989 0.06897 0.53861 -0.02200
H 	H 	0.73680 0.08850 0.48508 0.07000
H 	H 	0.81976 0.19646 0.52948 0.06200
N 	N 	0.75524 0.21636 0.48088 -0.01700
O 	O 	0.80924 0.06195 0.59545 -0.08800
O 	O 	0.79656 0.04148 0.49817 -0.09400
O 	O 	0.72212 0.22702 0.49595 -0.09300
O 	O 	0.77792 0.24018 0.45664 -0.10300
C 	C 	0.06239 0.06038 0.82459 -0.04400
C 	C 	0.05794 0.08728 0.77874 -0.12400
C 	C 	0.08489 0.09001 0.73127 0.09100
C 	C 	0.11845 0.07074 0.73727 -0.07900
C 	C 	0.12448 0.04713 0.78748 -0.11800
C 	C 	0.09539 0.04044 0.82982 0.05700
N 	N 	0.09885 0.01487 0.87531 -0.18400
H 	H 	0.04069 0.05629 0.85839 -0.02600
H 	H 	0.14003 0.07454 0.70319 0.03800
N 	N 	0.07841 0.10983 0.67919 -0.20600
H 	H 	0.07732 0.01050 0.90652 0.02600
H 	H 	0.12191 0.99775 0.87827 -0.00800
H 	H 	0.05237 0.12013 0.66896 0.10000
H 	H 	0.09915 0.11306 0.64608 0.07800
C 	C 	0.07781 0.25701 0.83900 -0.07800
C 	C 	0.10033 0.22495 0.83737 -0.12400
C 	C 	0.10021 0.20194 0.78289 0.06200
C 	C 	0.07045 0.20456 0.74140 -0.04800
C 	C 	0.04241 0.23083 0.75293 -0.14700
C 	C 	0.04935 0.26057 0.79552 0.08800
N 	N 	0.02753 0.29147 0.79695 -0.20600
H 	H 	0.08099 0.27793 0.87601 0.05400
H 	H 	0.06801 0.18486 0.70262 0.04500
N 	N 	0.12993 0.18082 0.76694 -0.21600
H 	H 	0.03216 0.31318 0.82951 0.08300
H 	H 	0.00665 0.29468 0.76413 0.09000
H 	H 	0.15567 0.18648 0.78644 0.02000
H 	H 	0.12871 0.16212 0.72891 0.05300
C 	C 	0.82456 0.18427 0.66974 -0.01900
C 	C 	0.85110 0.15654 0.68041 -0.07300
C 	C 	0.83951 0.12126 0.70241 0.11000
C 	C 	0.80278 0.11616 0.72004 -0.04900
C 	C 	0.77793 0.14603 0.71864 -0.01800
C 	C 	0.78799 0.17921 0.68889 0.07500
N 	N 	0.76138 0.20811 0.67924 -0.01900
H 	H 	0.83286 0.21077 0.65038 0.06200
H 	H 	0.79445 0.08988 0.74019 0.06700
N 	N 	0.86561 0.09211 0.71382 -0.02100
O 	O 	0.76948 0.24293 0.69253 -0.09900
O 	O 	0.72977 0.19987 0.65400 -0.09200
O 	O 	0.86766 0.07789 0.76878 -0.11800
O 	O 	0.88233 0.07546 0.66745 -0.09300
C 	C 	0.91843 0.54132 0.34351 -0.05000
C 	C 	0.90509 0.51656 0.29610 0.10400
C 	C 	0.92508 0.48392 0.28064 -0.08900
C 	C 	0.95586 0.47370 0.31570 -0.00100
C 	C 	0.96825 0.49761 0.36490 0.07100
C 	C 	0.94981 0.53150 0.37744 -0.05200
N 	N 	0.87236 0.52294 0.26754 -0.19900
H 	H 	0.91551 0.46539 0.24334 0.05500
C 	C 	0.97422 0.43731 0.30200 -0.02200
N 	N 	0.99775 0.48821 0.40029 -0.20500
H 	H 	0.96005 0.55040 0.41369 0.05000
C 	C 	0.00655 0.43686 0.26637 -0.06900
C 	C 	0.03054 0.40597 0.26766 0.09600
C 	C 	0.02138 0.37484 0.30437 -0.03300
C 	C 	0.98662 0.37326 0.33249 -0.07000
C 	C 	0.96297 0.40436 0.33213 0.08000
H 	H 	0.01424 0.46154 0.24087 0.05500
N 	N 	0.06252 0.40679 0.23483 -0.19900
H 	H 	0.97895 0.34866 0.35825 0.05100
N 	N 	0.93008 0.40277 0.36215 -0.19600
H 	H 	0.06930 0.43020 0.20883 0.09300
H 	H 	0.08051 0.38401 0.23353 0.11300
H 	H 	0.92249 0.37869 0.38579 0.08800
H 	H 	0.91140 0.42496 0.36122 0.09200
H 	H 	0.00680 0.50622 0.43616 0.09600
H 	H 	0.01176 0.46295 0.39318 0.10100
H 	H 	0.85408 0.54329 0.28449 0.10300
H 	H 	0.86378 0.50571 0.23032 0.09000
C 	C 	0.95092 0.62682 0.00251 -0.03200
C 	C 	0.98913 0.62419 0.01502 0.08300
C 	C 	0.00583 0.58875 0.01573 -0.05000
C 	C 	0.98516 0.55629 0.00319 -0.02900
C 	C 	0.94633 0.55862 0.00135 0.08400
C 	C 	0.92948 0.59406 0.00201 -0.05600
N 	N 	0.01005 0.65543 0.02444 -0.18600
H 	H 	0.03542 0.58663 0.02114 0.05500
C 	C 	0.00448 0.52229 0.97976 0.00600
N 	N 	0.92525 0.52714 0.99677 -0.19800
H 	H 	0.89990 0.59610 0.99633 0.05100
C 	C 	0.01266 0.49359 0.02092 -0.08600
C 	C 	0.03378 0.46256 0.00121 0.11100
C 	C 	0.05077 0.46271 0.94190 -0.05600
C 	C 	0.04158 0.49083 0.90012 -0.04800
C 	C 	0.01769 0.52002 0.91787 0.06900
H 	H 	0.00168 0.49485 0.06777 0.05900
N 	N 	0.03594 0.43204 0.03771 -0.19900
H 	H 	0.05358 0.49042 0.85397 0.05100
N 	N 	0.00774 0.54588 0.87550 -0.18700
H 	H 	0.02576 0.43317 0.08314 0.09000
H 	H 	0.04480 0.40615 0.01971 0.09600
H 	H 	0.01861 0.54468 0.83054 0.08800
H 	H 	0.98830 0.56662 0.88596 0.08500
H 	H 	0.89663 0.52916 0.99337 0.08600
H 	H 	0.93692 0.50044 0.99817 0.08500
H 	H 	0.99821 0.68187 0.02966 0.12300
H 	H 	0.03854 0.65323 0.02989 0.10400
C 	C 	0.88475 0.64039 0.49410 -0.04600
C 	C 	0.90463 0.67331 0.51157 0.10300
C 	C 	0.90413 0.68597 0.57388 -0.08400
C 	C 	0.88836 0.66399 0.62005 -0.00500
C 	C 	0.86862 0.63106 0.60279 0.07300
C 	C 	0.86637 0.62009 0.53977 -0.05100
N 	N 	0.92595 0.69149 0.46989 -0.19800
H 	H 	0.91892 0.71134 0.58723 0.05600
C 	C 	0.89652 0.67325 0.68626 -0.00400
N 	N 	0.85225 0.60960 0.64637 -0.19400
H 	H 	0.85101 0.59508 0.52640 0.05400
C 	C 	0.86984 0.69177 0.72275 -0.08600
C 	C 	0.87520 0.69757 0.78701 0.10300
C 	C 	0.90926 0.68732 0.81405 -0.04700
C 	C 	0.93691 0.67136 0.77641 -0.05100
C 	C 	0.93053 0.66310 0.71327 0.07200
H 	H 	0.84404 0.69997 0.70171 0.05800
N 	N 	0.84720 0.71168 0.82244 -0.19900
H 	H 	0.96308 0.66392 0.79697 0.05300
N 	N 	0.95685 0.64482 0.67927 -0.19400
H 	H 	0.82267 0.72016 0.80166 0.09100
H 	H 	0.84879 0.71309 0.87080 0.09900
H 	H 	0.98204 0.63796 0.69950 0.08500
H 	H 	0.95246 0.63656 0.63304 0.08900
H 	H 	0.83798 0.58522 0.63315 0.08900
H 	H 	0.85340 0.61679 0.69360 0.09100
H 	H 	0.93304 0.67911 0.42717 0.10000
H 	H 	0.93823 0.71715 0.48209 0.08900
C 	C 	0.09658 0.01927 0.03936 -0.03700
C 	C 	0.06069 0.02911 0.05711 -0.10200
C 	C 	0.05413 0.06613 0.07874 0.12500
C 	C 	0.07876 0.09471 0.06270 -0.06700
C 	C 	0.11250 0.08559 0.03443 -0.08300
C 	C 	0.12334 0.04737 0.03131 0.08000
N 	N 	0.15936 0.03775 0.02608 -0.20600
H 	H 	0.10322 0.99024 0.02866 0.01300
H 	H 	0.07106 0.12374 0.07015 0.07300
N 	N 	0.02412 0.07425 0.11401 -0.20400
H 	H 	0.16723 0.00958 0.02654 -0.01300
H 	H 	0.17995 0.05814 0.02769 0.08500
H 	H 	0.00627 0.05300 0.12774 0.09200
H 	H 	0.01928 0.10164 0.13031 0.08600
C 	C 	0.94149 0.07287 0.01221 -0.03400
C 	C 	0.91585 0.04612 0.99104 -0.13100
C 	C 	0.88681 0.05769 0.95257 0.11500
C 	C 	0.88901 0.09284 0.92484 -0.05000
C 	C 	0.92124 0.11433 0.93137 -0.09900
C 	C 	0.94480 0.10711 0.98177 0.07700
N 	N 	0.97110 0.13220 0.99970 -0.20100
H 	H 	0.96059 0.06594 0.04865 0.04600
H 	H 	0.86804 0.10111 0.89206 0.06200
N 	N 	0.85744 0.03496 0.94113 -0.20300
H 	H 	0.97140 0.15931 0.98255 0.02400
H 	H 	0.99027 0.12546 0.03377 0.07300
H 	H 	0.85459 0.00948 0.96365 0.09900
H 	H 	0.83656 0.04318 0.91099 0.09400
C 	C 	0.05792 0.92922 0.83850 -0.05200
C 	C 	0.05760 0.92048 0.90163 -0.14200
C 	C 	0.09137 0.91463 0.93283 0.10900
C 	C 	0.12390 0.91193 0.89839 -0.06800
C 	C 	0.12479 0.92279 0.83636 -0.12200
C 	C 	0.09144 0.93312 0.80660 0.10400
N 	N 	0.09153 0.94921 0.74994 -0.20100
H 	H 	0.03220 0.93482 0.81491 0.00400
H 	H 	0.14939 0.90499 0.92168 0.01800
N 	N 	0.09311 0.91460 0.99592 -0.20900
H 	H 	0.06678 0.95352 0.72647 0.07400
H 	H 	0.11521 0.96139 0.73194 0.09500
H 	H 	0.07192 0.92589 0.02317 0.09800
H 	H 	0.11758 0.90740 0.01815 0.07300
C 	C 	0.96124 0.81402 0.04846 -0.01500
C 	C 	0.92907 0.83535 0.05612 -0.07800
C 	C 	0.89457 0.81794 0.04691 0.11300
C 	C 	0.89281 0.78113 0.02243 -0.05300
C 	C 	0.92515 0.76161 0.00723 -0.00600
C 	C 	0.95964 0.77789 0.02152 0.08000
N 	N 	0.99313 0.75882 0.00534 -0.02100
H 	H 	0.98782 0.82700 0.05691 0.06600
H 	H 	0.86627 0.76808 0.01390 0.07100
N 	N 	0.86126 0.83815 0.05993 -0.02400
O 	O 	0.99925 0.74839 0.94795 -0.11100
O 	O 	0.01934 0.75632 0.04619 -0.09100
O 	O 	0.83417 0.83687 0.02044 -0.09900
O 	O 	0.85753 0.85676 0.11226 -0.09000
C 	C 	0.08833 0.95833 0.17633 -0.06100
C 	C 	0.07221 0.98948 0.20652 -0.10300
C 	C 	0.03464 0.98791 0.22333 0.09600
C 	C 	0.01601 0.95340 0.21934 -0.04200
C 	C 	0.03486 0.92058 0.20184 -0.11800
C 	C 	0.07005 0.92349 0.17467 0.08600
N 	N 	0.08659 0.89295 0.14811 -0.21000
H 	H 	0.11560 0.96072 0.15668 0.02800
H 	H 	0.98792 0.95149 0.23546 0.01200
N 	N 	0.01656 0.01918 0.24391 -0.19300
H 	H 	0.11318 0.89483 0.13004 0.06500
H 	H 	0.07262 0.86743 0.14319 0.09300
H 	H 	0.02943 0.04539 0.24526 0.04800
H 	H 	0.98884 0.01776 0.25658 0.01200
C 	C 	0.89598 0.93702 0.35224 -0.06100
C 	C 	0.90713 0.93590 0.29006 -0.11100
C 	C 	0.91144 0.97010 0.25824 0.09500
C 	C 	0.90742 0.00448 0.29129 -0.04900
C 	C 	0.90064 0.00503 0.35544 -0.12700
C 	C 	0.89710 0.97064 0.38674 0.10800
N 	N 	0.89846 0.96954 0.44982 -0.20100
H 	H 	0.89148 0.91092 0.37604 0.04000
H 	H 	0.90995 0.03069 0.26710 0.01100
N 	N 	0.91932 0.97024 0.19652 -0.20400
H 	H 	0.89245 0.94468 0.47256 0.08100
H 	H 	0.90946 0.99176 0.47618 0.09400
H 	H 	0.92047 0.94549 0.16986 0.10500
H 	H 	0.92397 0.99555 0.17430 0.08700
C 	C 	0.07691 0.81617 0.46898 -0.03900
C 	C 	0.10821 0.80658 0.43385 -0.11400
C 	C 	0.10402 0.78342 0.38016 0.09400
C 	C 	0.06896 0.77878 0.35383 -0.05100
C 	C 	0.03813 0.79505 0.38302 -0.10900
C 	C 	0.04164 0.80906 0.44481 0.08600
N 	N 	0.01160 0.81400 0.48166 -0.20100
H 	H 	0.07989 0.83088 0.51335 0.05300
H 	H 	0.06602 0.76418 0.30935 0.06100
N 	N 	0.13359 0.76630 0.35329 -0.20400
H 	H 	0.98612 0.80262 0.46888 0.08200
H 	H 	0.01414 0.82662 0.52578 0.07700
H 	H 	0.15940 0.76720 0.37467 0.10000
H 	H 	0.13065 0.75050 0.31207 0.08700
C 	C 	0.85837 0.72485 0.23755 -0.01700
C 	C 	0.89368 0.73454 0.21680 -0.07300
C 	C 	0.92118 0.70653 0.21377 0.10200
C 	C 	0.91496 0.67188 0.24119 -0.05600
C 	C 	0.88198 0.66521 0.27278 -0.01900
C 	C 	0.85248 0.69048 0.26655 0.07400
N 	N 	0.81699 0.68196 0.29167 -0.01800
H 	H 	0.83640 0.74537 0.23646 0.06800
H 	H 	0.93710 0.65157 0.24287 0.06800
N 	N 	0.95676 0.71457 0.18900 -0.02300
O 	O 	0.79908 0.70725 0.32401 -0.09900
O 	O 	0.80211 0.64927 0.28070 -0.10100
O 	O 	0.98557 0.71371 0.22477 -0.10900
O 	O 	0.96083 0.71865 0.12959 -0.09300
