data_crystal

_cell_length_a 21.72443
_cell_length_b 22.88302
_cell_length_c 77.05782
_cell_angle_alpha 90.05328
_cell_angle_beta  90.02008
_cell_angle_gamma 119.47430

_symmetry_space_group_name_	'P 1'
_symmetry_space_group_name_H-M	'P 1'

loop_
_symmetry_equiv_pos_as_xyz
  x,y,z

loop_
_atom_site_label
_atom_site_type_symbol
_atom_site_fract_x
_atom_site_fract_y
_atom_site_fract_z
_atom_site_charge
C 	C 	0.09637 0.14723 0.76426 0.28300
C 	C 	0.12374 0.14160 0.80910 0.28000
C 	C 	0.08700 0.92677 0.80382 0.28200
C 	C 	0.03360 0.92668 0.75683 0.29600
Ni	Ni	0.11012 0.04006 0.78227 1.12800
O 	O 	0.05305 0.14800 0.77651 -0.36600
O 	O 	0.10879 0.09633 0.76227 -0.37700
O 	O 	0.02797 0.88912 0.79525 -0.37100
O 	O 	0.09196 0.96228 0.76624 -0.38900
O 	O 	0.05688 0.10213 0.81249 -0.36300
O 	O 	0.15430 0.12757 0.79625 -0.36800
O 	O 	0.96963 0.89932 0.76404 -0.40300
O 	O 	0.11652 0.99249 0.80344 -0.39200
H 	H 	0.99984 0.01079 0.77194 0.14400
Ni	Ni	0.06719 0.96279 0.21888 1.10300
Ni	Ni	0.03411 0.08590 0.22190 1.12800
O 	O 	0.14090 0.03831 0.23527 -0.35900
O 	O 	0.08372 0.09545 0.24487 -0.37200
O 	O 	0.10911 0.02361 0.19732 -0.35700
O 	O 	0.13160 0.12000 0.21114 -0.36700
O 	O 	0.00228 0.99246 0.22343 -0.71700
H 	H 	0.99722 0.98625 0.23610 0.14000
C 	C 	0.98467 0.89659 0.96417 0.28300
C 	C 	0.07245 0.08744 0.96592 0.27400
C 	C 	0.10318 0.07396 0.02342 0.27900
Ni	Ni	0.06538 0.98700 0.99261 1.10800
O 	O 	0.05843 0.93050 0.01350 -0.38200
O 	O 	0.00690 0.89922 0.98005 -0.37400
O 	O 	0.04198 0.02723 0.03030 -0.35800
O 	O 	0.12158 0.06866 0.00729 -0.37500
O 	O 	0.00536 0.07291 0.96625 -0.35000
O 	O 	0.09121 0.04158 0.96992 -0.35500
H 	H 	0.01088 0.04972 0.99616 0.17200
H 	H 	0.93240 0.79321 0.30313 0.03600
H 	H 	0.89623 0.69183 0.32086 0.03700
H 	H 	0.94800 0.84645 0.27453 0.03600
H 	H 	0.00668 0.82962 0.08175 0.04600
H 	H 	0.03251 0.88151 0.05289 0.03000
H 	H 	0.10537 0.07080 0.05873 0.05500
C 	C 	0.15492 0.20950 0.96584 -0.03000
H 	H 	0.21094 0.33211 0.98004 0.04100
H 	H 	0.15660 0.20923 0.97991 0.04100
C 	C 	0.02010 0.70419 0.95431 -0.02100
C 	C 	0.05683 0.67745 0.94540 -0.04900
C 	C 	0.01732 0.75999 0.94762 0.02500
C 	C 	0.98789 0.79184 0.95743 -0.03900
C 	C 	0.99251 0.85213 0.95157 -0.07800
H 	H 	0.06001 0.63552 0.95096 0.04600
C 	C 	0.16665 0.82552 0.80760 0.08100
C 	C 	0.16668 0.76543 0.81102 -0.08300
N 	N 	0.10759 0.83049 0.80732 -0.15100
C 	C 	0.12724 0.89544 0.81066 0.00200
H 	H 	0.11825 0.71760 0.81036 0.05700
H 	H 	0.05937 0.79491 0.80193 0.09600
N 	N 	0.22875 0.24363 0.81976 -0.15000
C 	C 	0.15864 0.20995 0.81620 0.00100
C 	C 	0.13525 0.25502 0.81213 -0.04400
H 	H 	0.08623 0.24241 0.80553 0.04100
H 	H 	0.26175 0.22242 0.82007 0.09100
C 	C 	0.13802 0.20809 0.75393 -0.05200
C 	C 	0.14467 0.20330 0.73593 -0.02600
H 	H 	0.17168 0.27367 0.77621 0.04800
H 	H 	0.11626 0.15483 0.72956 0.04800
C 	C 	0.01524 0.70918 0.70766 0.02600
C 	C 	0.98720 0.73714 0.71921 -0.10800
C 	C 	0.02225 0.80675 0.72208 0.05400
C 	C 	0.04123 0.90249 0.73969 -0.05600
C 	C 	0.00099 0.83396 0.73559 -0.01400
H 	H 	0.98907 0.65514 0.70608 0.01100
H 	H 	0.93970 0.70439 0.72641 0.05200
H 	H 	0.95664 0.80108 0.74375 0.03300
C 	C 	0.93925 0.48309 0.43479 -0.06900
C 	C 	0.99824 0.56677 0.41222 -0.04500
C 	C 	0.00086 0.53781 0.42814 0.05700
C 	C 	0.06001 0.62159 0.40542 0.03900
C 	C 	0.06545 0.56229 0.43691 -0.04300
C 	C 	0.12468 0.64532 0.41423 -0.03900
H 	H 	0.94048 0.46122 0.44717 0.04500
H 	H 	0.17264 0.68624 0.40882 0.04800
C 	C 	0.98659 0.42612 0.64844 -0.01900
C 	C 	0.95717 0.46633 0.64329 0.01300
C 	C 	0.95473 0.57141 0.64494 -0.03000
C 	C 	0.98376 0.53135 0.65023 -0.01900
C 	C 	0.04319 0.55783 0.66109 0.00700
C 	C 	0.07684 0.52033 0.66485 -0.08100
C 	C 	0.04584 0.45311 0.65944 0.01200
H 	H 	0.97370 0.62087 0.65051 0.03200
H 	H 	0.07129 0.42386 0.66260 0.04000
C 	C 	0.10219 0.57123 0.51382 0.01100
C 	C 	0.09807 0.51139 0.50837 0.07600
C 	C 	0.03221 0.45452 0.50510 -0.06800
C 	C 	0.16568 0.62252 0.50774 -0.04000
H 	H 	0.02872 0.40778 0.50092 0.05200
H 	H 	0.17532 0.67284 0.50508 0.05000
C 	C 	0.78560 0.39420 0.58321 0.27600
C 	C 	0.63266 0.20587 0.52611 0.28000
C 	C 	0.81646 0.40490 0.53319 0.28100
C 	C 	0.60068 0.18326 0.57465 0.28000
C 	C 	0.61523 0.38285 0.52420 0.28100
C 	C 	0.57170 0.37026 0.57330 0.27800
Ni	Ni	0.72891 0.28536 0.55533 1.11200
Ni	Ni	0.57474 0.27154 0.54904 1.11900
Ni	Ni	0.70945 0.41703 0.55432 1.12000
O 	O 	0.80220 0.36080 0.57170 -0.36800
O 	O 	0.75065 0.42585 0.57846 -0.37800
O 	O 	0.56506 0.34007 0.53456 -0.38000
O 	O 	0.66819 0.20287 0.53954 -0.37200
O 	O 	0.60080 0.24201 0.52666 -0.37700
O 	O 	0.62152 0.41719 0.56330 -0.37800
O 	O 	0.78173 0.33909 0.53340 -0.37400
O 	O 	0.80685 0.43921 0.54554 -0.37400
O 	O 	0.54339 0.30507 0.56961 -0.38000
O 	O 	0.67003 0.22387 0.57559 -0.37600
O 	O 	0.56188 0.18683 0.56162 -0.37200
O 	O 	0.68136 0.41591 0.52944 -0.38100
O 	O 	0.66938 0.32265 0.55674 -0.71900
H 	H 	0.66011 0.31883 0.56931 0.15400
C 	C 	0.43716 0.82062 0.43098 0.28300
C 	C 	0.24628 0.62440 0.48426 0.28100
C 	C 	0.45987 0.80681 0.47572 0.28300
C 	C 	0.19637 0.63540 0.43825 0.27700
C 	C 	0.42139 0.59323 0.46857 0.28300
C 	C 	0.37576 0.60216 0.42082 0.27800
Ni	Ni	0.32110 0.73777 0.45865 1.11200
Ni	Ni	0.29406 0.58686 0.45260 1.12000
Ni	Ni	0.44937 0.71036 0.44780 1.12000
O 	O 	0.39369 0.81957 0.44345 -0.37400
O 	O 	0.45088 0.77070 0.42852 -0.38600
O 	O 	0.36578 0.55837 0.45865 -0.37900
O 	O 	0.24286 0.67231 0.47564 -0.36800
O 	O 	0.28393 0.59816 0.47832 -0.37500
O 	O 	0.43294 0.63573 0.43078 -0.37700
O 	O 	0.39311 0.76555 0.47867 -0.37700
O 	O 	0.49232 0.79516 0.46287 -0.37300
O 	O 	0.31089 0.57429 0.42753 -0.38000
O 	O 	0.24137 0.70064 0.44004 -0.37100
O 	O 	0.20298 0.58981 0.44759 -0.37700
O 	O 	0.45416 0.65916 0.46842 -0.38000
O 	O 	0.35098 0.68085 0.44919 -0.71700
H 	H 	0.34029 0.68390 0.43691 0.15900
C 	C 	0.22313 0.73489 0.67684 0.28300
C 	C 	0.34336 0.58293 0.63953 0.30100
C 	C 	0.15177 0.55600 0.66983 0.30600
C 	C 	0.41915 0.76947 0.64315 0.27900
C 	C 	0.33100 0.55708 0.69534 0.30200
C 	C 	0.42765 0.74713 0.70153 0.28200
Ni	Ni	0.27080 0.66087 0.65036 1.11300
Ni	Ni	0.40549 0.66658 0.67002 1.11900
Ni	Ni	0.27399 0.64838 0.69221 1.12100
O 	O 	0.21114 0.70153 0.66178 -0.36700
O 	O 	0.26203 0.72975 0.68939 -0.38100
O 	O 	0.39274 0.60755 0.69079 -0.38400
O 	O 	0.31694 0.62015 0.63386 -0.36600
O 	O 	0.35496 0.58124 0.65607 -0.38700
O 	O 	0.36399 0.69903 0.70688 -0.37900
O 	O 	0.19825 0.56481 0.65797 -0.37800
O 	O 	0.17146 0.59497 0.68364 -0.37700
O 	O 	0.45203 0.74623 0.68578 -0.38900
O 	O 	0.35148 0.75277 0.64214 -0.37000
O 	O 	0.43886 0.72504 0.64799 -0.37600
O 	O 	0.27307 0.56075 0.69355 -0.38600
O 	O 	0.32347 0.67574 0.67081 -0.71700
H 	H 	0.34548 0.72487 0.67188 0.16300
C 	C 	0.91490 0.96318 0.82044 0.24500
C 	C 	0.85734 0.96218 0.77358 0.24800
Ni	Ni	0.98279 0.06909 0.79282 1.10300
Ni	Ni	0.95582 0.91704 0.78895 1.10900
O 	O 	0.90718 0.00626 0.81069 -0.34500
O 	O 	0.94851 0.93266 0.81458 -0.38000
O 	O 	0.90091 0.02794 0.77478 -0.35400
O 	O 	0.86439 0.91931 0.78396 -0.37800
O 	O 	0.01203 0.01041 0.78424 -0.68400
C 	C 	0.43491 0.72205 0.91846 0.27600
C 	C 	0.31943 0.54895 0.85618 0.28100
C 	C 	0.49999 0.75109 0.87140 0.28100
C 	C 	0.26097 0.51351 0.90255 0.28000
C 	C 	0.30214 0.72867 0.85389 0.28100
C 	C 	0.22301 0.69897 0.89897 0.28100
Ni	Ni	0.39840 0.62302 0.88833 1.11200
Ni	Ni	0.24889 0.60878 0.87645 1.11900
Ni	Ni	0.37556 0.75251 0.88725 1.12000
O 	O 	0.45900 0.69271 0.90757 -0.36800
O 	O 	0.40045 0.75291 0.91266 -0.37600
O 	O 	0.24642 0.68087 0.86185 -0.38200
O 	O 	0.35129 0.54528 0.87029 -0.37100
O 	O 	0.29180 0.58858 0.85552 -0.37900
O 	O 	0.28246 0.75008 0.89266 -0.38100
O 	O 	0.46274 0.68615 0.86894 -0.37300
O 	O 	0.47889 0.78077 0.88265 -0.37200
O 	O 	0.20408 0.63517 0.89558 -0.38200
O 	O 	0.32897 0.55391 0.90594 -0.37600
O 	O 	0.22993 0.52064 0.88830 -0.37300
O 	O 	0.36416 0.75903 0.86160 -0.38100
O 	O 	0.33648 0.65784 0.88795 -0.72100
H 	H 	0.31914 0.64935 0.90000 0.15800
C 	C 	0.76779 0.48338 0.09197 0.28200
C 	C 	0.56267 0.30143 0.14505 0.28000
C 	C 	0.77593 0.47205 0.14034 0.28000
C 	C 	0.52983 0.30022 0.09679 0.27900
C 	C 	0.73983 0.27265 0.13854 0.28300
C 	C 	0.71449 0.26492 0.08790 0.27600
Ni	Ni	0.64562 0.40751 0.11849 1.11200
Ni	Ni	0.62133 0.25624 0.11678 1.12100
Ni	Ni	0.77755 0.38032 0.11316 1.12000
O 	O 	0.72519 0.48684 0.10396 -0.36900
O 	O 	0.78482 0.43504 0.09193 -0.38400
O 	O 	0.69246 0.23386 0.12707 -0.38100
O 	O 	0.56028 0.34412 0.13406 -0.37000
O 	O 	0.59875 0.27081 0.14141 -0.37700
O 	O 	0.76828 0.30208 0.09854 -0.37500
O 	O 	0.70668 0.43955 0.14079 -0.37400
O 	O 	0.80980 0.46716 0.12676 -0.37800
O 	O 	0.64764 0.23717 0.09325 -0.37900
O 	O 	0.57438 0.36585 0.09804 -0.37100
O 	O 	0.53266 0.25658 0.10780 -0.37400
O 	O 	0.77958 0.33726 0.13568 -0.38100
O 	O 	0.67888 0.34917 0.11229 -0.72000
H 	H 	0.67244 0.34884 0.09964 0.15700
C 	C 	0.12423 0.06782 0.24792 0.28600
C 	C 	0.96048 0.87781 0.19163 0.26700
C 	C 	0.14661 0.08889 0.19892 0.28100
C 	C 	0.94979 0.85318 0.23956 0.26900
C 	C 	0.92605 0.05307 0.19554 0.28400
C 	C 	0.90155 0.02701 0.24368 0.31800
Ni	Ni	0.90646 0.93684 0.21701 1.11200
O 	O 	0.88181 0.00079 0.20483 -0.36300
O 	O 	0.00888 0.88110 0.20244 -0.36000
O 	O 	0.93365 0.91762 0.19349 -0.38900
O 	O 	0.94595 0.07715 0.23351 -0.38900
O 	O 	0.87755 0.96302 0.23930 -0.41000
O 	O 	0.01896 0.89507 0.23893 -0.36900
O 	O 	0.90597 0.85395 0.22751 -0.37900
O 	O 	0.99460 0.08137 0.19811 -0.38200
C 	C 	0.56482 0.41142 0.34118 0.27900
C 	C 	0.68902 0.25636 0.30746 0.30000
C 	C 	0.49447 0.23127 0.33502 0.29800
C 	C 	0.76531 0.44365 0.30975 0.27800
C 	C 	0.67012 0.23512 0.36323 0.30000
C 	C 	0.76502 0.42570 0.36834 0.28200
Ni	Ni	0.61596 0.33576 0.31616 1.11200
Ni	Ni	0.74765 0.34273 0.33763 1.12000
Ni	Ni	0.61296 0.32548 0.35813 1.12100
O 	O 	0.55447 0.37679 0.32638 -0.36600
O 	O 	0.60139 0.40657 0.35434 -0.38000
O 	O 	0.73231 0.28552 0.35895 -0.38400
O 	O 	0.66444 0.29382 0.30088 -0.36600
O 	O 	0.69840 0.25620 0.32416 -0.38700
O 	O 	0.70091 0.37757 0.37342 -0.37800
O 	O 	0.54285 0.23993 0.32375 -0.37700
O 	O 	0.51176 0.27108 0.34865 -0.37500
O 	O 	0.79175 0.42359 0.35301 -0.38800
O 	O 	0.69790 0.42718 0.30804 -0.37000
O 	O 	0.78398 0.39933 0.31535 -0.37500
O 	O 	0.61227 0.23823 0.36058 -0.38500
O 	O 	0.66557 0.35184 0.33716 -0.71700
H 	H 	0.68730 0.40101 0.33798 0.16300
C 	C 	0.89579 0.06750 0.00445 0.28000
C 	C 	0.81286 0.88663 0.99889 0.30000
C 	C 	0.99774 0.88228 0.01940 0.29100
Ni	Ni	0.92612 0.98466 0.97665 1.09400
Ni	Ni	0.94588 0.97793 0.01809 1.10200
O 	O 	0.87603 0.03186 0.98966 -0.35400
O 	O 	0.93821 0.06180 0.01588 -0.37600
O 	O 	0.96160 0.93735 0.95917 -0.38300
O 	O 	0.85332 0.89126 0.98589 -0.38500
O 	O 	0.84005 0.92754 0.01221 -0.39000
O 	O 	0.94093 0.88846 0.01909 -0.39400
O 	O 	0.98650 0.00034 0.99558 -0.70800
C 	C 	0.31220 0.03925 0.30356 -0.06000
C 	C 	0.26146 0.01729 0.29032 0.00600
C 	C 	0.23256 0.05744 0.28499 -0.01100
C 	C 	0.25164 0.11816 0.29374 0.00900
C 	C 	0.30274 0.14027 0.30705 -0.01800
C 	C 	0.33475 0.10169 0.31159 0.03000
C 	C 	0.32592 0.20347 0.31482 0.02300
C 	C 	0.29403 0.24180 0.31022 -0.04600
C 	C 	0.24276 0.21955 0.29714 -0.03600
C 	C 	0.22303 0.15889 0.28846 0.00800
C 	C 	0.17817 0.14032 0.27398 -0.01500
C 	C 	0.16276 0.08207 0.26454 -0.06800
C 	C 	0.18768 0.03936 0.27049 0.01900
C 	C 	0.39259 0.12841 0.32306 -0.02800
C 	C 	0.42027 0.19428 0.32937 -0.05900
C 	C 	0.38473 0.23023 0.32588 -0.03200
H 	H 	0.33553 0.00863 0.30717 0.05100
H 	H 	0.24609 0.96990 0.28390 0.01200
H 	H 	0.31046 0.28983 0.31640 0.04200
H 	H 	0.21999 0.25053 0.29342 0.03900
H 	H 	0.15788 0.17266 0.26960 0.04600
H 	H 	0.17374 0.99320 0.26356 0.01500
H 	H 	0.41968 0.10039 0.32591 0.04900
H 	H 	0.40786 0.28187 0.32996 0.04900
C 	C 	0.91544 0.74543 0.29676 -0.04400
C 	C 	0.89517 0.68787 0.30683 -0.04400
C 	C 	0.87226 0.62531 0.29882 0.01700
C 	C 	0.87211 0.62105 0.28056 -0.00900
C 	C 	0.89113 0.67867 0.27042 -0.00900
C 	C 	0.91253 0.74105 0.27856 0.01600
C 	C 	0.88711 0.67358 0.25217 0.01700
C 	C 	0.86672 0.61152 0.24416 -0.04300
C 	C 	0.84849 0.55442 0.25422 -0.04200
C 	C 	0.84970 0.55852 0.27242 0.01700
C 	C 	0.82427 0.50029 0.28255 -0.02500
C 	C 	0.81756 0.50365 0.30059 -0.05300
C 	C 	0.84532 0.56642 0.30878 -0.03000
C 	C 	0.93023 0.79808 0.26838 -0.03100
C 	C 	0.92514 0.79272 0.25022 -0.05300
C 	C 	0.90336 0.73053 0.24216 -0.02800
H 	H 	0.86433 0.60730 0.23013 0.04100
H 	H 	0.83188 0.50671 0.24785 0.04200
H 	H 	0.80384 0.45170 0.27630 0.04700
H 	H 	0.84108 0.56889 0.32277 0.03800
H 	H 	0.90067 0.72693 0.22810 0.04700
C 	C 	0.89051 0.22379 0.29490 -0.04600
C 	C 	0.91771 0.18464 0.28798 -0.03600
C 	C 	0.87538 0.12923 0.27738 0.00600
C 	C 	0.80459 0.11205 0.27405 0.01200
C 	C 	0.77701 0.15119 0.28113 -0.01800
C 	C 	0.82037 0.20756 0.29146 0.02100
C 	C 	0.70617 0.13408 0.27784 0.02900
C 	C 	0.66363 0.07821 0.26736 -0.06200
C 	C 	0.69151 0.04009 0.26004 0.01200
C 	C 	0.76215 0.05709 0.26319 -0.01700
C 	C 	0.79204 0.02224 0.25487 0.03200
C 	C 	0.86417 0.04293 0.25711 -0.07900
C 	C 	0.90418 0.09331 0.26924 -0.01200
C 	C 	0.79262 0.24602 0.29860 -0.02400
C 	C 	0.72116 0.22713 0.29614 -0.06100
C 	C 	0.67842 0.17224 0.28540 -0.02700
H 	H 	0.92405 0.26673 0.30294 0.03900
H 	H 	0.97210 0.19812 0.29065 0.03700
H 	H 	0.60908 0.06442 0.26481 0.05100
H 	H 	0.65832 0.99775 0.25178 0.00700
H 	H 	0.76090 0.98272 0.24564 0.01200
H 	H 	0.95949 0.10827 0.27119 0.03700
H 	H 	0.82556 0.28878 0.30680 0.03200
H 	H 	0.62321 0.15768 0.28354 0.04500
C 	C 	0.85365 0.58392 0.03438 -0.04700
C 	C 	0.89228 0.64058 0.02397 -0.03700
C 	C 	0.93135 0.70440 0.03157 0.00500
C 	C 	0.93446 0.71082 0.04980 0.00300
C 	C 	0.89471 0.65403 0.06026 -0.01400
C 	C 	0.85337 0.59046 0.05251 0.02000
C 	C 	0.89419 0.66121 0.07844 0.01800
C 	C 	0.93608 0.72450 0.08607 -0.04300
C 	C 	0.97586 0.78088 0.07568 -0.05100
C 	C 	0.97379 0.77472 0.05752 -0.00900
C 	C 	0.00570 0.83203 0.04699 0.01500
C 	C 	0.99525 0.82606 0.02896 -0.08900
C 	C 	0.96273 0.76226 0.02120 -0.01200
C 	C 	0.81125 0.53459 0.06296 -0.02900
C 	C 	0.80914 0.54221 0.08099 -0.05500
C 	C 	0.85097 0.60530 0.08871 -0.02800
H 	H 	0.82285 0.53518 0.02831 0.04000
H 	H 	0.89044 0.63498 0.00998 0.03600
H 	H 	0.93699 0.73030 0.10005 0.03600
H 	H 	0.95637 0.75791 0.00721 0.03700
H 	H 	0.77972 0.48548 0.05710 0.04200
H 	H 	0.85045 0.61054 0.10270 0.04700
C 	C 	0.21051 0.12983 0.08159 -0.04000
C 	C 	0.27159 0.16045 0.09182 -0.03900
C 	C 	0.33671 0.20671 0.08444 0.01900
C 	C 	0.33994 0.22444 0.06682 -0.00700
C 	C 	0.27833 0.19385 0.05653 -0.00800
C 	C 	0.21376 0.14516 0.06385 0.02100
C 	C 	0.28191 0.20985 0.03877 0.02000
C 	C 	0.34650 0.25824 0.03156 -0.04200
C 	C 	0.40782 0.28845 0.04177 -0.04100
C 	C 	0.40524 0.27090 0.05932 0.01900
C 	C 	0.46735 0.29755 0.06935 -0.02800
C 	C 	0.46443 0.27760 0.08670 -0.05100
C 	C 	0.39887 0.23378 0.09433 -0.02600
C 	C 	0.15422 0.10994 0.05319 -0.02700
C 	C 	0.15912 0.12208 0.03521 -0.04700
C 	C 	0.22181 0.17487 0.02825 -0.02800
H 	H 	0.16097 0.09317 0.08739 0.04700
H 	H 	0.26845 0.14720 0.10542 0.04500
H 	H 	0.34963 0.27147 0.01796 0.04100
H 	H 	0.45748 0.32470 0.03593 0.04100
H 	H 	0.51792 0.33207 0.06355 0.04400
H 	H 	0.39655 0.22000 0.10788 0.05200
H 	H 	0.22476 0.18644 0.01452 0.04800
C 	C 	0.69387 0.04981 0.03663 0.01000
C 	C 	0.66830 0.07805 0.04878 -0.06100
C 	C 	0.70779 0.14657 0.05290 0.03000
C 	C 	0.77127 0.18788 0.04394 -0.01600
C 	C 	0.79640 0.15959 0.03148 0.00300
C 	C 	0.75891 0.08990 0.02834 0.00100
C 	C 	0.86175 0.20008 0.02316 0.01300
C 	C 	0.89970 0.26923 0.02673 -0.03900
C 	C 	0.87499 0.29726 0.03922 -0.04600
C 	C 	0.81182 0.25652 0.04821 0.02300
C 	C 	0.79064 0.28269 0.06202 -0.03100
C 	C 	0.72966 0.24056 0.07163 -0.04800
C 	C 	0.68679 0.17335 0.06655 -0.03100
C 	C 	0.78944 0.06035 0.01811 -0.01700
C 	C 	0.85584 0.10001 0.01039 -0.05400
C 	C 	0.89056 0.17011 0.01236 -0.02400
H 	H 	0.66393 0.99640 0.03401 0.00400
H 	H 	0.61882 0.04615 0.05537 0.05300
H 	H 	0.94941 0.30100 0.02022 0.03700
H 	H 	0.90589 0.35033 0.04218 0.03900
H 	H 	0.82264 0.33505 0.06567 0.04400
H 	H 	0.63923 0.14109 0.07382 0.05200
H 	H 	0.76533 0.00624 0.01774 0.05600
H 	H 	0.94212 0.20061 0.00650 0.03800
C 	C 	0.81076 0.22720 0.17437 0.07700
C 	C 	0.87305 0.23035 0.18069 -0.08000
C 	C 	0.86919 0.17013 0.18602 0.01000
C 	C 	0.81021 0.10886 0.18254 0.08300
C 	C 	0.75129 0.10508 0.17407 -0.08300
C 	C 	0.75040 0.16533 0.17141 0.01500
N 	N 	0.81084 0.27430 0.16391 -0.15000
C 	C 	0.75127 0.24298 0.15426 0.00400
C 	C 	0.71254 0.17528 0.15846 -0.04300
N 	N 	0.82781 0.06031 0.18184 -0.15000
C 	C 	0.89765 0.08947 0.18566 0.00400
C 	C 	0.92577 0.15872 0.18743 -0.04100
H 	H 	0.92295 0.27690 0.18051 0.05200
H 	H 	0.70993 0.05794 0.16892 0.05900
H 	H 	0.67601 0.13644 0.14975 0.05200
H 	H 	0.97517 0.19227 0.19384 0.04200
H 	H 	0.85633 0.31829 0.16020 0.09100
H 	H 	0.79177 0.00896 0.18269 0.09700
C 	C 	0.32049 0.21210 0.18983 0.08000
C 	C 	0.37323 0.27210 0.18257 -0.08200
C 	C 	0.43939 0.27735 0.17934 0.01200
C 	C 	0.44892 0.22156 0.18078 0.07800
C 	C 	0.39263 0.15908 0.18588 -0.08100
C 	C 	0.33042 0.15705 0.19160 0.01300
N 	N 	0.25115 0.19212 0.18884 -0.15100
C 	C 	0.21606 0.12444 0.19046 0.00500
C 	C 	0.26413 0.10084 0.19141 -0.04100
N 	N 	0.50020 0.22757 0.16992 -0.15000
C 	C 	0.52310 0.28635 0.16144 0.00200
C 	C 	0.48640 0.31859 0.16687 -0.04400
H 	H 	0.36190 0.31119 0.17856 0.05500
H 	H 	0.39562 0.11347 0.18436 0.05600
H 	H 	0.25233 0.05190 0.19617 0.04600
H 	H 	0.47887 0.35396 0.15907 0.05000
H 	H 	0.22927 0.22330 0.19084 0.09100
H 	H 	0.50452 0.18700 0.16510 0.09000
C 	C 	0.82850 0.60276 0.17099 0.07500
C 	C 	0.80799 0.64988 0.17580 -0.08500
C 	C 	0.85314 0.71739 0.17169 0.01100
C 	C 	0.91942 0.73833 0.16457 0.07500
C 	C 	0.94085 0.69172 0.16000 -0.08500
C 	C 	0.89382 0.62348 0.16314 0.01000
N 	N 	0.78149 0.54057 0.16565 -0.15100
C 	C 	0.81504 0.52188 0.15398 0.00100
C 	C 	0.88522 0.57204 0.15216 -0.04500
N 	N 	0.96479 0.80187 0.16940 -0.15800
C 	C 	0.92728 0.82188 0.17935 -0.00100
C 	C 	0.85784 0.77071 0.18112 -0.04700
H 	H 	0.75711 0.63402 0.18181 0.05100
H 	H 	0.99187 0.70784 0.15404 0.04800
H 	H 	0.91659 0.57941 0.14060 0.04900
H 	H 	0.82441 0.76562 0.19211 0.04000
H 	H 	0.72671 0.52116 0.16598 0.09000
H 	H 	0.01965 0.82231 0.17010 0.09300
C 	C 	0.60213 0.68947 0.97759 -0.04100
C 	C 	0.54664 0.66536 0.96556 -0.04300
C 	C 	0.52383 0.70845 0.95874 0.01800
C 	C 	0.55270 0.77444 0.96520 -0.01000
C 	C 	0.60848 0.79868 0.97732 -0.00700
C 	C 	0.63533 0.75688 0.98294 0.01400
C 	C 	0.64220 0.86664 0.98238 0.01300
C 	C 	0.61551 0.90814 0.97667 -0.04400
C 	C 	0.55987 0.88401 0.96472 -0.04400
C 	C 	0.53050 0.81822 0.95831 0.01600
C 	C 	0.48432 0.79771 0.94407 -0.02700
C 	C 	0.46213 0.73476 0.93637 -0.05300
C 	C 	0.47742 0.68845 0.94454 -0.02800
C 	C 	0.69870 0.78461 0.99246 -0.02200
C 	C 	0.73639 0.85393 0.99577 -0.06800
C 	C 	0.70619 0.89399 0.99149 -0.03000
H 	H 	0.62111 0.65642 0.98219 0.04000
H 	H 	0.52344 0.61399 0.96102 0.04000
H 	H 	0.63977 0.95994 0.98093 0.03300
H 	H 	0.54176 0.91743 0.95989 0.03600
H 	H 	0.47041 0.83261 0.93813 0.04600
H 	H 	0.45737 0.63865 0.93905 0.04200
H 	H 	0.72176 0.75359 0.99596 0.04200
H 	H 	0.73668 0.94771 0.99321 0.03700
C 	C 	0.20475 0.33110 0.96607 -0.04200
C 	C 	0.22235 0.39076 0.95724 -0.04100
C 	C 	0.21360 0.39034 0.93917 0.01800
C 	C 	0.18783 0.32964 0.92987 -0.00700
C 	C 	0.17088 0.26974 0.93873 -0.00800
C 	C 	0.17819 0.27028 0.95693 0.02100
C 	C 	0.14428 0.20888 0.92946 0.02200
C 	C 	0.13659 0.20863 0.91135 -0.04000
C 	C 	0.15359 0.26818 0.90254 -0.03900
C 	C 	0.17880 0.32878 0.91172 0.01900
C 	C 	0.19672 0.38878 0.90293 -0.02500
C 	C 	0.22516 0.44975 0.91209 -0.05200
C 	C 	0.23177 0.45009 0.93023 -0.02700
C 	C 	0.12260 0.14840 0.95675 -0.04700
C 	C 	0.12167 0.14855 0.93853 -0.02400
H 	H 	0.24255 0.43722 0.96449 0.04000
H 	H 	0.11648 0.16217 0.90410 0.04800
H 	H 	0.14699 0.26707 0.88858 0.04600
H 	H 	0.19217 0.38866 0.88891 0.05000
H 	H 	0.25366 0.49723 0.93727 0.04300
H 	H 	0.09768 0.10123 0.93154 0.05300
C 	C 	0.09081 0.70586 0.92964 0.02300
C 	C 	0.08493 0.75959 0.92239 -0.01100
C 	C 	0.04847 0.78686 0.93143 -0.00500
C 	C 	0.04670 0.84345 0.92474 0.01000
C 	C 	0.07751 0.86965 0.90854 -0.03800
C 	C 	0.11299 0.84206 0.89946 -0.04400
C 	C 	0.11850 0.78821 0.90653 0.02000
C 	C 	0.15982 0.76478 0.89834 -0.02800
C 	C 	0.16967 0.71438 0.90612 -0.05000
C 	C 	0.13316 0.68331 0.92142 -0.03000
C 	C 	0.01824 0.87565 0.93482 -0.00500
H 	H 	0.99548 0.68263 0.96665 0.02300
H 	H 	0.07547 0.91238 0.90314 0.03900
H 	H 	0.13773 0.86373 0.88715 0.04200
H 	H 	0.18632 0.78721 0.88622 0.05000
H 	H 	0.13998 0.64375 0.92726 0.04600
H 	H 	0.96578 0.77245 0.97014 0.04600
H 	H 	0.02064 0.92145 0.93015 0.04300
C 	C 	0.22992 0.76971 0.81690 0.01400
C 	C 	0.28729 0.83125 0.82169 0.07400
C 	C 	0.28374 0.89078 0.82012 -0.08100
C 	C 	0.22468 0.88704 0.81170 0.00700
C 	C 	0.19956 0.93151 0.81410 -0.04400
N 	N 	0.32539 0.82222 0.83411 -0.15000
C 	C 	0.29267 0.75558 0.83742 0.00300
C 	C 	0.23313 0.72138 0.82699 -0.04300
H 	H 	0.32283 0.93689 0.82624 0.04900
H 	H 	0.23183 0.98568 0.81418 0.04400
H 	H 	0.18771 0.67357 0.83031 0.05100
H 	H 	0.35759 0.85920 0.84303 0.08500
C 	C 	0.25739 0.43287 0.82124 0.07600
C 	C 	0.19478 0.37816 0.81499 -0.08300
C 	C 	0.19462 0.31771 0.81210 0.00900
C 	C 	0.25091 0.30915 0.81713 0.07800
C 	C 	0.30943 0.36090 0.82567 -0.08200
C 	C 	0.31385 0.42423 0.82650 0.01100
N 	N 	0.25808 0.48411 0.82997 -0.15000
C 	C 	0.31363 0.50767 0.84098 0.00100
C 	C 	0.34938 0.47151 0.83930 -0.04200
H 	H 	0.14683 0.38128 0.81365 0.05400
H 	H 	0.34738 0.35122 0.83236 0.05500
H 	H 	0.38062 0.46604 0.84948 0.05000
H 	H 	0.21347 0.48947 0.83193 0.08600
C 	C 	0.80441 0.87422 0.85575 0.06800
C 	C 	0.74489 0.81172 0.85934 -0.07900
C 	C 	0.68482 0.81135 0.86606 0.00700
C 	C 	0.68046 0.86978 0.86695 0.08000
C 	C 	0.73694 0.93124 0.86150 -0.09300
C 	C 	0.80061 0.93317 0.85707 0.02500
N 	N 	0.85342 0.88174 0.84395 -0.15300
C 	C 	0.88037 0.94452 0.83751 0.01600
C 	C 	0.84889 0.97799 0.84535 -0.08900
N 	N 	0.61256 0.85514 0.86601 -0.15100
C 	C 	0.57293 0.78757 0.86488 0.00100
C 	C 	0.61649 0.75895 0.86426 -0.04100
H 	H 	0.74362 0.76535 0.85573 0.05000
H 	H 	0.72993 0.97447 0.85949 0.04900
H 	H 	0.84471 0.01882 0.83942 0.07800
H 	H 	0.59994 0.70658 0.86655 0.04400
H 	H 	0.85323 0.84189 0.83724 0.08400
H 	H 	0.59385 0.88807 0.86915 0.08600
C 	C 	0.65791 0.94331 0.71374 -0.02600
C 	C 	0.72051 0.97158 0.72347 -0.08400
C 	C 	0.72317 0.94297 0.73938 0.04400
C 	C 	0.66164 0.88700 0.74585 -0.02500
C 	C 	0.59872 0.85842 0.73603 0.00200
C 	C 	0.59730 0.88584 0.71976 0.00500
C 	C 	0.53824 0.80043 0.74211 0.01100
C 	C 	0.53999 0.77357 0.75836 -0.03700
C 	C 	0.60228 0.80228 0.76817 -0.04800
C 	C 	0.66368 0.85809 0.76183 0.02800
C 	C 	0.72745 0.88411 0.77106 -0.04100
C 	C 	0.78959 0.93818 0.76431 -0.03300
C 	C 	0.78700 0.96839 0.74866 -0.07300
C 	C 	0.53681 0.85318 0.70926 -0.02300
C 	C 	0.47908 0.79182 0.71459 -0.05700
C 	C 	0.47833 0.76774 0.73142 -0.02300
H 	H 	0.65711 0.96522 0.70134 0.03000
H 	H 	0.76717 0.01510 0.71848 0.06200
H 	H 	0.49355 0.72958 0.76325 0.04000
H 	H 	0.60310 0.78026 0.78056 0.04300
H 	H 	0.72895 0.86202 0.78339 0.05200
H 	H 	0.83476 0.01046 0.74354 0.06800
H 	H 	0.53634 0.87302 0.69651 0.04100
H 	H 	0.43326 0.72120 0.73571 0.04700
C 	C 	0.23185 0.31555 0.69831 -0.03900
C 	C 	0.19250 0.25718 0.70808 -0.04100
C 	C 	0.18739 0.26111 0.72617 0.02000
C 	C 	0.22451 0.32390 0.73457 -0.00900
C 	C 	0.26488 0.38248 0.72477 -0.00500
C 	C 	0.26677 0.37851 0.70652 0.01700
C 	C 	0.29990 0.44553 0.73311 0.01600
C 	C 	0.29711 0.44917 0.75127 -0.04000
C 	C 	0.25686 0.39097 0.76101 -0.04200
C 	C 	0.21922 0.32839 0.75271 0.02000
C 	C 	0.17562 0.27049 0.76228 -0.02700
C 	C 	0.29897 0.43772 0.69669 -0.02100
C 	C 	0.32735 0.50041 0.70494 -0.06100
C 	C 	0.33255 0.50428 0.72311 -0.02300
H 	H 	0.23380 0.31189 0.68432 0.04300
H 	H 	0.16496 0.20909 0.70152 0.04400
H 	H 	0.32460 0.49727 0.75782 0.04100
H 	H 	0.25412 0.39474 0.77498 0.04300
H 	H 	0.29651 0.43506 0.68263 0.04700
H 	H 	0.35601 0.55298 0.72942 0.04100
C 	C 	0.08285 0.84901 0.71223 -0.03100
C 	C 	0.11067 0.82084 0.70046 0.01600
C 	C 	0.07840 0.75054 0.69875 -0.01200
C 	C 	0.17423 0.86264 0.69157 0.00200
C 	C 	0.20684 0.93260 0.69364 -0.02500
C 	C 	0.17936 0.96056 0.70539 -0.07600
C 	C 	0.11888 0.91887 0.71519 0.03600
C 	C 	0.09725 0.94544 0.72880 -0.03500
C 	C 	0.11271 0.72233 0.68943 -0.01200
C 	C 	0.17816 0.76369 0.68145 -0.06100
C 	C 	0.20715 0.83370 0.68184 -0.01800
H 	H 	0.25485 0.96527 0.68660 0.03200
H 	H 	0.20652 0.01447 0.70729 0.06300
H 	H 	0.12672 0.99878 0.73164 0.03900
H 	H 	0.09230 0.66861 0.68991 0.04400
H 	H 	0.25772 0.86552 0.67567 0.03700
C 	C 	0.32631 0.41754 0.38103 -0.04100
C 	C 	0.35400 0.38952 0.36940 -0.04300
C 	C 	0.41917 0.43027 0.36123 0.01900
C 	C 	0.45386 0.50035 0.36366 -0.00800
C 	C 	0.42662 0.52850 0.37561 -0.00800
C 	C 	0.36384 0.48650 0.38476 0.01800
C 	C 	0.46529 0.59761 0.37950 0.01800
C 	C 	0.52780 0.63903 0.37035 -0.04300
C 	C 	0.55454 0.61116 0.35835 -0.04200
C 	C 	0.51928 0.54151 0.35544 0.01800
C 	C 	0.55140 0.51188 0.34567 -0.02800
C 	C 	0.52027 0.44166 0.34483 -0.05200
C 	C 	0.45316 0.40123 0.35214 -0.03000
C 	C 	0.34269 0.51291 0.39848 -0.02600
C 	C 	0.38522 0.58017 0.40354 -0.05200
C 	C 	0.44394 0.62333 0.39338 -0.02800
H 	H 	0.27713 0.38512 0.38767 0.04200
H 	H 	0.32594 0.33576 0.36721 0.04200
H 	H 	0.55701 0.69249 0.37294 0.03800
H 	H 	0.60406 0.64345 0.35183 0.03900
H 	H 	0.60326 0.54306 0.34003 0.04000
H 	H 	0.43165 0.34744 0.35267 0.04500
H 	H 	0.29632 0.48001 0.40605 0.04800
H 	H 	0.47527 0.67587 0.39693 0.04200
C 	C 	0.87628 0.45501 0.42525 -0.02800
C 	C 	0.87405 0.48153 0.40898 0.00500
C 	C 	0.93461 0.53898 0.40270 0.00600
C 	C 	0.05674 0.65035 0.38959 -0.03900
C 	C 	0.99339 0.62295 0.38019 -0.04900
C 	C 	0.93266 0.56616 0.38644 0.01200
C 	C 	0.87174 0.53344 0.37610 -0.02400
C 	C 	0.81446 0.47190 0.38148 -0.05700
C 	C 	0.81382 0.44862 0.39840 -0.02100
C 	C 	0.12783 0.61452 0.42972 -0.04100
H 	H 	0.82974 0.41160 0.43033 0.03700
H 	H 	0.10355 0.69313 0.38439 0.04000
H 	H 	0.99214 0.64479 0.36781 0.03800
H 	H 	0.87098 0.55285 0.36330 0.04200
H 	H 	0.76887 0.40217 0.40278 0.04700
H 	H 	0.06749 0.54010 0.44919 0.05600
C 	C 	0.58045 0.99465 0.36632 -0.08200
C 	C 	0.54140 0.93543 0.37579 -0.02300
C 	C 	0.53135 0.93817 0.39372 -0.01500
C 	C 	0.56307 0.00078 0.40230 0.02000
C 	C 	0.60306 0.06029 0.39281 -0.02400
C 	C 	0.61008 0.05730 0.37468 0.05500
C 	C 	0.63271 0.12302 0.40129 0.02500
C 	C 	0.62492 0.12563 0.41932 -0.04300
C 	C 	0.58512 0.06649 0.42876 -0.04200
C 	C 	0.55285 0.00403 0.42028 0.03100
C 	C 	0.50985 0.94493 0.42949 -0.04600
C 	C 	0.47780 0.88261 0.42096 -0.05600
C 	C 	0.48913 0.87925 0.40312 -0.02000
C 	C 	0.64219 0.11692 0.36501 -0.03600
C 	C 	0.66548 0.17897 0.37328 -0.05300
C 	C 	0.66521 0.18224 0.39146 -0.02900
H 	H 	0.58633 0.99180 0.35243 0.04300
H 	H 	0.51801 0.88753 0.36912 0.03200
H 	H 	0.64826 0.17355 0.42599 0.04200
H 	H 	0.57857 0.06938 0.44263 0.04700
H 	H 	0.50207 0.94720 0.44331 0.04900
H 	H 	0.46480 0.83094 0.39660 0.04100
H 	H 	0.64379 0.11480 0.35095 0.05400
H 	H 	0.68459 0.23051 0.39781 0.04200
C 	C 	0.32433 0.40429 0.60057 -0.04000
C 	C 	0.35593 0.37045 0.59265 -0.04100
C 	C 	0.42943 0.39629 0.59374 0.01900
C 	C 	0.47133 0.45638 0.60296 -0.00900
C 	C 	0.43972 0.49103 0.61066 -0.00500
C 	C 	0.36586 0.46463 0.60959 0.01600
C 	C 	0.48194 0.55179 0.61956 0.01500
C 	C 	0.55527 0.57733 0.62080 -0.04100
C 	C 	0.58656 0.54270 0.61328 -0.04300
C 	C 	0.54503 0.48242 0.60426 0.01900
C 	C 	0.57665 0.44929 0.59599 -0.02800
C 	C 	0.53583 0.39198 0.58583 -0.05100
C 	C 	0.46190 0.36413 0.58523 -0.02500
C 	C 	0.33437 0.49801 0.61796 -0.02100
C 	C 	0.37632 0.55733 0.62733 -0.06300
C 	C 	0.45012 0.58521 0.62758 -0.02200
H 	H 	0.26756 0.38351 0.59967 0.04300
H 	H 	0.32321 0.32427 0.58562 0.04200
H 	H 	0.58810 0.62388 0.62767 0.03700
H 	H 	0.64324 0.56312 0.61433 0.03800
H 	H 	0.63355 0.47007 0.59665 0.04200
H 	H 	0.43030 0.31972 0.57744 0.04700
H 	H 	0.27735 0.47653 0.61782 0.04300
H 	H 	0.48231 0.63117 0.63478 0.03400
C 	C 	0.90854 0.33905 0.62833 -0.05200
C 	C 	0.96017 0.36158 0.64135 -0.02800
C 	C 	0.90556 0.44385 0.63010 -0.02100
C 	C 	0.88291 0.38090 0.62221 0.02500
C 	C 	0.88051 0.48642 0.62394 0.02400
C 	C 	0.90341 0.54908 0.63186 -0.05200
C 	C 	0.83860 0.36249 0.60762 -0.03200
C 	C 	0.81877 0.40745 0.60054 -0.05100
C 	C 	0.83668 0.46775 0.60925 -0.03100
H 	H 	0.89028 0.28995 0.62260 0.04100
H 	H 	0.98128 0.32968 0.64549 0.03300
H 	H 	0.88323 0.58148 0.62751 0.03900
H 	H 	0.06802 0.61003 0.66486 0.04300
H 	H 	0.82216 0.31463 0.60131 0.04300
H 	H 	0.81977 0.50166 0.60408 0.04700
C 	C 	0.49449 0.88317 0.58780 -0.03600
C 	C 	0.51085 0.94057 0.57805 -0.06400
C 	C 	0.53135 0.00208 0.58638 0.03700
C 	C 	0.53684 0.00622 0.60463 0.00000
C 	C 	0.51977 0.94831 0.61445 -0.01600
C 	C 	0.49769 0.88641 0.60600 0.01500
C 	C 	0.52196 0.95170 0.63274 -0.00200
C 	C 	0.54460 0.01366 0.64105 -0.01900
C 	C 	0.56304 0.07155 0.63127 -0.04700
C 	C 	0.55854 0.06808 0.61307 0.02200
C 	C 	0.57594 0.12572 0.60320 -0.02900
C 	C 	0.57069 0.12163 0.58502 -0.04900
C 	C 	0.54727 0.05964 0.57668 -0.03200
C 	C 	0.47472 0.82786 0.61588 -0.02300
C 	C 	0.46992 0.83019 0.63400 -0.05600
C 	C 	0.49741 0.89246 0.64245 -0.02300
H 	H 	0.47798 0.83592 0.58118 0.04000
H 	H 	0.50724 0.93706 0.56402 0.04300
H 	H 	0.54707 0.01692 0.65509 0.04000
H 	H 	0.58011 0.11891 0.63788 0.04300
H 	H 	0.59475 0.17385 0.60958 0.04300
H 	H 	0.54436 0.05693 0.56262 0.05400
H 	H 	0.45454 0.77968 0.60942 0.04600
H 	H 	0.49468 0.89416 0.65649 0.03400
C 	C 	0.47352 0.47350 0.47736 0.08100
C 	C 	0.46474 0.41294 0.48404 -0.08300
C 	C 	0.52588 0.40977 0.48824 0.01400
C 	C 	0.59208 0.46753 0.48837 0.07600
C 	C 	0.59917 0.52996 0.48370 -0.08000
C 	C 	0.53961 0.53047 0.47689 0.00900
N 	N 	0.42264 0.49063 0.47773 -0.15100
C 	C 	0.45530 0.55846 0.47691 0.00300
C 	C 	0.52843 0.58496 0.47711 -0.04100
N 	N 	0.63461 0.46123 0.50003 -0.15000
C 	C 	0.59608 0.40017 0.50743 0.00400
C 	C 	0.52822 0.36682 0.50049 -0.04300
H 	H 	0.41258 0.37162 0.48694 0.05600
H 	H 	0.64756 0.57633 0.48633 0.05200
H 	H 	0.56705 0.63543 0.47325 0.04600
H 	H 	0.48233 0.32835 0.50721 0.05100
H 	H 	0.36914 0.45797 0.47518 0.09100
H 	H 	0.67795 0.50175 0.50594 0.08900
C 	C 	0.57806 0.97729 0.48371 0.06100
C 	C 	0.63556 0.03093 0.49204 -0.06300
C 	C 	0.63372 0.09109 0.49408 0.00800
C 	C 	0.57293 0.09454 0.49012 0.07300
C 	C 	0.51213 0.03766 0.48397 -0.06300
C 	C 	0.51753 0.98074 0.47989 -0.01000
N 	N 	0.56194 0.91286 0.48566 -0.14800
C 	C 	0.49151 0.87486 0.48295 -0.00700
C 	C 	0.46194 0.91582 0.48002 -0.03700
N 	N 	0.56990 0.14173 0.49993 -0.14900
C 	C 	0.62747 0.16774 0.51030 0.00200
C 	C 	0.66830 0.13740 0.50714 -0.04100
H 	H 	0.67743 0.02459 0.49778 0.05300
H 	H 	0.46153 0.03621 0.48364 0.05200
H 	H 	0.41056 0.89984 0.47428 0.03100
H 	H 	0.70352 0.13393 0.51652 0.04900
H 	H 	0.59841 0.89563 0.48510 0.08400
H 	H 	0.52315 0.14220 0.50287 0.08800
C 	C 	0.97548 0.52016 0.51230 0.06500
C 	C 	0.04110 0.57675 0.51583 -0.06700
C 	C 	0.97135 0.46062 0.50668 -0.00300
N 	N 	0.91573 0.50748 0.52062 -0.14900
C 	C 	0.87351 0.44005 0.52048 -0.00000
C 	C 	0.90626 0.40924 0.51188 -0.03800
N 	N 	0.15666 0.52415 0.49948 -0.14900
C 	C 	0.19758 0.59166 0.49878 0.00200
H 	H 	0.04447 0.62343 0.52004 0.05300
H 	H 	0.89505 0.35828 0.51430 0.04600
H 	H 	0.91261 0.53959 0.52980 0.08700
H 	H 	0.15840 0.49142 0.49026 0.08300
