data_crystal

_cell_length_a 38.70231
_cell_length_b 38.63663
_cell_length_c 38.61034
_cell_angle_alpha 90.00397
_cell_angle_beta  89.99469
_cell_angle_gamma 89.99904

_symmetry_space_group_name_	'P 1'
_symmetry_space_group_name_H-M	'P 1'

loop_
_symmetry_equiv_pos_as_xyz
  x,y,z

loop_
_atom_site_label
_atom_site_type_symbol
_atom_site_fract_x
_atom_site_fract_y
_atom_site_fract_z
_atom_site_charge
Co	Co	0.13859 0.82795 0.67701 1.19700
O 	O 	0.11942 0.77844 0.68802 -0.30600
Co	Co	0.14680 0.90951 0.65062 1.18900
O 	O 	0.10605 0.86891 0.66857 -0.44000
O 	O 	0.17504 0.87787 0.62232 -0.41300
O 	O 	0.11923 0.81606 0.72752 -0.30800
C 	C 	0.16148 0.85064 0.60725 0.37000
O 	O 	0.09868 0.90076 0.62420 -0.34000
C 	C 	0.14895 0.97501 0.66299 0.30400
C 	C 	0.19338 0.86719 0.69643 0.32500
O 	O 	0.16813 0.95838 0.64135 -0.32700
O 	O 	0.12794 0.95413 0.67838 -0.31500
O 	O 	0.19118 0.83374 0.69352 -0.32100
O 	O 	0.16333 0.88127 0.69187 -0.43200
O 	O 	0.14825 0.82488 0.62587 -0.51000
C 	C 	0.11149 0.78449 0.71992 0.30700
C 	C 	0.08675 0.87468 0.64185 0.32700
H 	H 	0.13847 0.80389 0.61360 0.22700
Co	Co	0.33861 0.86706 0.84215 1.19500
O 	O 	0.32671 0.88863 0.79378 -0.30800
Co	Co	0.36526 0.85583 0.92357 1.19800
O 	O 	0.34572 0.89779 0.88487 -0.44200
O 	O 	0.39509 0.83078 0.89071 -0.38700
O 	O 	0.28724 0.88459 0.83120 -0.32300
C 	C 	0.40938 0.84640 0.86418 0.36100
O 	O 	0.38913 0.90574 0.91786 -0.31900
C 	C 	0.35235 0.84803 0.98860 0.31300
C 	C 	0.32302 0.80927 0.87830 0.33700
O 	O 	0.37534 0.83169 0.97087 -0.33000
O 	O 	0.33620 0.86992 0.96917 -0.30500
O 	O 	0.32462 0.81344 0.84494 -0.32000
O 	O 	0.32537 0.83871 0.89407 -0.45100
O 	O 	0.38999 0.85913 0.83862 -0.50900
C 	C 	0.29456 0.89472 0.80021 0.30800
C 	C 	0.37163 0.91774 0.89175 0.32600
H 	H 	0.40153 0.86840 0.81698 0.21200
Co	Co	0.18005 0.66390 0.87851 1.19100
O 	O 	0.22819 0.67276 0.90124 -0.35900
Co	Co	0.09806 0.63836 0.86891 1.19200
O 	O 	0.13777 0.65761 0.90960 -0.44900
O 	O 	0.12972 0.60770 0.84346 -0.40100
O 	O 	0.19375 0.71474 0.89617 -0.29400
C 	C 	0.15676 0.59376 0.85836 0.36800
O 	O 	0.10453 0.61497 0.91937 -0.30900
C 	C 	0.03302 0.65104 0.86242 0.30600
C 	C 	0.14269 0.68213 0.82194 0.32800
O 	O 	0.05058 0.62857 0.84523 -0.32400
O 	O 	0.05265 0.66721 0.88412 -0.30700
O 	O 	0.17606 0.67927 0.82524 -0.32100
O 	O 	0.12780 0.67847 0.85174 -0.43000
O 	O 	0.18314 0.61300 0.86878 -0.52100
C 	C 	0.22387 0.70531 0.90700 0.31500
C 	C 	0.13110 0.63247 0.93053 0.31000
H 	H 	0.20573 0.60132 0.87510 0.19700
Co	Co	0.79375 0.86634 0.66967 1.18900
O 	O 	0.74530 0.88862 0.67863 -0.35700
Co	Co	0.87660 0.85850 0.64726 1.19700
O 	O 	0.83618 0.89774 0.66859 -0.45000
O 	O 	0.84616 0.83576 0.61327 -0.39300
O 	O 	0.77779 0.87885 0.72151 -0.30800
C 	C 	0.82018 0.85190 0.59866 0.36500
O 	O 	0.87132 0.91059 0.62806 -0.28900
C 	C 	0.94131 0.85096 0.66130 0.30300
C 	C 	0.82976 0.80764 0.68295 0.33100
O 	O 	0.92457 0.83642 0.63647 -0.32800
O 	O 	0.92083 0.87030 0.67940 -0.29500
O 	O 	0.79654 0.81164 0.67926 -0.31700
O 	O 	0.84507 0.83744 0.68386 -0.44900
O 	O 	0.79398 0.86386 0.61754 -0.51700
C 	C 	0.74844 0.89137 0.71173 0.31700
C 	C 	0.84402 0.92018 0.64514 0.32000
H 	H 	0.77358 0.87505 0.60548 0.19400
Co	Co	0.62939 0.83095 0.86907 1.19000
O 	O 	0.64284 0.78315 0.89071 -0.33200
Co	Co	0.59856 0.91104 0.85844 1.19300
O 	O 	0.62046 0.87317 0.89991 -0.44500
O 	O 	0.56934 0.87708 0.83422 -0.39100
O 	O 	0.68119 0.82158 0.88622 -0.32700
C 	C 	0.55757 0.84946 0.85010 0.36600
O 	O 	0.57530 0.90353 0.90852 -0.31700
C 	C 	0.60716 0.97694 0.85251 0.30300
C 	C 	0.64339 0.86786 0.81117 0.33600
O 	O 	0.58541 0.95831 0.83545 -0.31700
O 	O 	0.62491 0.95794 0.87349 -0.30300
O 	O 	0.64301 0.83450 0.81548 -0.31900
O 	O 	0.64007 0.88358 0.84069 -0.44900
O 	O 	0.57869 0.82436 0.86025 -0.51700
C 	C 	0.67493 0.79029 0.89620 0.31400
C 	C 	0.59455 0.87855 0.92026 0.31200
H 	H 	0.56860 0.80117 0.86725 0.20100
Co	Co	0.83254 0.66517 0.83088 1.19100
O 	O 	0.85321 0.67138 0.78110 -0.35500
Co	Co	0.82428 0.64679 0.91463 1.19800
O 	O 	0.86443 0.66379 0.87309 -0.42200
O 	O 	0.79887 0.61325 0.88585 -0.39900
O 	O 	0.84838 0.71531 0.81321 -0.28100
C 	C 	0.81367 0.59650 0.86033 0.35800
O 	O 	0.87469 0.62387 0.90965 -0.30500
C 	C 	0.81936 0.66373 0.97900 0.30100
C 	C 	0.77602 0.68556 0.86738 0.32400
O 	O 	0.80253 0.63956 0.96344 -0.32800
O 	O 	0.83925 0.67965 0.95735 -0.28000
O 	O 	0.77887 0.67904 0.83441 -0.32700
O 	O 	0.80602 0.68387 0.88206 -0.42700
O 	O 	0.82643 0.61344 0.83316 -0.52200
C 	C 	0.85839 0.70428 0.78336 0.31500
C 	C 	0.88573 0.63972 0.88211 0.30900
H 	H 	0.83632 0.59984 0.81301 0.18800
Co	Co	0.17393 0.86523 0.38699 1.19500
O 	O 	0.22295 0.88602 0.37777 -0.33300
Co	Co	0.09121 0.85669 0.40954 1.19100
O 	O 	0.13109 0.89667 0.38812 -0.44200
O 	O 	0.12149 0.83590 0.44505 -0.40200
O 	O 	0.19000 0.87727 0.33510 -0.30700
C 	C 	0.14802 0.85243 0.45842 0.36800
O 	O 	0.09525 0.90876 0.42829 -0.32600
C 	C 	0.02663 0.84815 0.39476 0.31500
C 	C 	0.13834 0.80628 0.37327 0.33300
O 	O 	0.04337 0.83391 0.41983 -0.32700
O 	O 	0.04711 0.86785 0.37708 -0.32300
O 	O 	0.17145 0.81053 0.37737 -0.32000
O 	O 	0.12290 0.83600 0.37286 -0.45200
O 	O 	0.17485 0.86129 0.43888 -0.51000
C 	C 	0.21993 0.88852 0.34466 0.32000
C 	C 	0.12241 0.91913 0.41139 0.33900
H 	H 	0.19722 0.86843 0.45054 0.21400
Co	Co	0.34240 0.82457 0.18774 1.19000
O 	O 	0.33477 0.77544 0.16619 -0.35500
Co	Co	0.36215 0.90829 0.19569 1.19700
O 	O 	0.34333 0.86697 0.15609 -0.45200
O 	O 	0.39669 0.87890 0.21902 -0.38700
O 	O 	0.29140 0.80774 0.17386 -0.31200
C 	C 	0.41217 0.85336 0.20288 0.36200
O 	O 	0.38281 0.90350 0.14415 -0.30100
C 	C 	0.34470 0.97241 0.20280 0.31000
C 	C 	0.32596 0.86083 0.24562 0.33500
O 	O 	0.36996 0.95687 0.21798 -0.30900
O 	O 	0.32853 0.95100 0.18278 -0.32000
O 	O 	0.33100 0.82767 0.24215 -0.31800
O 	O 	0.32599 0.87572 0.21561 -0.45100
O 	O 	0.39428 0.82606 0.19175 -0.51500
C 	C 	0.30179 0.77815 0.16243 0.32000
C 	C 	0.36705 0.87551 0.13422 0.32100
H 	H 	0.40701 0.80576 0.18113 0.19400
Co	Co	0.14118 0.66192 0.22420 1.18900
O 	O 	0.11883 0.67143 0.27259 -0.35700
Co	Co	0.15078 0.63749 0.14166 1.19100
O 	O 	0.11035 0.65841 0.18112 -0.45100
O 	O 	0.17330 0.60437 0.17313 -0.39500
O 	O 	0.12713 0.71370 0.23895 -0.31100
C 	C 	0.15696 0.59090 0.19964 0.36700
O 	O 	0.09939 0.61687 0.14662 -0.31900
C 	C 	0.15860 0.65044 0.07649 0.31800
C 	C 	0.19976 0.67600 0.18849 0.33500
O 	O 	0.17368 0.62641 0.09399 -0.34200
O 	O 	0.13839 0.66810 0.09646 -0.30600
O 	O 	0.19539 0.67329 0.22181 -0.31400
O 	O 	0.17024 0.67552 0.17268 -0.44800
O 	O 	0.14718 0.61032 0.22627 -0.51600
C 	C 	0.11537 0.70438 0.26884 0.31800
C 	C 	0.08847 0.63433 0.17330 0.31200
H 	H 	0.13952 0.59862 0.24849 0.19800
Co	Co	0.79552 0.66741 0.17599 1.19700
O 	O 	0.74694 0.67687 0.15417 -0.33300
Co	Co	0.87799 0.64337 0.18588 1.19200
O 	O 	0.83869 0.66429 0.14520 -0.43700
O 	O 	0.84677 0.60911 0.20724 -0.41000
O 	O 	0.78079 0.71905 0.16141 -0.28500
C 	C 	0.82017 0.59599 0.19068 0.36700
O 	O 	0.87409 0.62351 0.13407 -0.32200
C 	C 	0.94272 0.65693 0.19539 0.32000
C 	C 	0.83159 0.68357 0.23423 0.32400
O 	O 	0.92497 0.63295 0.21019 -0.34500
O 	O 	0.92322 0.67423 0.17439 -0.30300
O 	O 	0.79839 0.67968 0.23028 -0.32700
O 	O 	0.84683 0.68151 0.20452 -0.43000
O 	O 	0.79339 0.61577 0.18226 -0.51100
C 	C 	0.75082 0.70972 0.15010 0.31300
C 	C 	0.84700 0.64040 0.12339 0.33900
H 	H 	0.77057 0.60437 0.17622 0.21300
Co	Co	0.83170 0.82952 0.37931 1.19100
O 	O 	0.85282 0.78072 0.36871 -0.32900
Co	Co	0.82121 0.91128 0.40596 1.19200
O 	O 	0.86268 0.87182 0.38746 -0.43900
O 	O 	0.79579 0.87908 0.43612 -0.40200
O 	O 	0.85146 0.81792 0.32888 -0.30700
C 	C 	0.81097 0.85190 0.44962 0.36500
O 	O 	0.87046 0.90462 0.43109 -0.32100
C 	C 	0.81504 0.97652 0.39315 0.31700
C 	C 	0.77579 0.86731 0.35996 0.32700
O 	O 	0.79782 0.95900 0.41567 -0.34100
O 	O 	0.83694 0.95675 0.37747 -0.29000
O 	O 	0.77902 0.83388 0.36241 -0.32100
O 	O 	0.80538 0.88209 0.36494 -0.42800
O 	O 	0.82047 0.82539 0.42995 -0.51900
C 	C 	0.86031 0.78668 0.33671 0.30900
C 	C 	0.88231 0.87834 0.41364 0.31200
H 	H 	0.82609 0.80242 0.44132 0.20200
Co	Co	0.63243 0.86843 0.21239 1.19000
O 	O 	0.64432 0.89034 0.26051 -0.33100
Co	Co	0.60436 0.85869 0.13099 1.19100
O 	O 	0.62539 0.89937 0.16997 -0.45500
O 	O 	0.57321 0.83496 0.16372 -0.38900
O 	O 	0.68405 0.88519 0.22352 -0.32800
C 	C 	0.56085 0.85047 0.19137 0.36300
O 	O 	0.58227 0.90955 0.13739 -0.31700
C 	C 	0.61601 0.85176 0.06544 0.31300
C 	C 	0.64699 0.81061 0.17557 0.33700
O 	O 	0.59278 0.83584 0.08328 -0.32200
O 	O 	0.63330 0.87253 0.08518 -0.32000
O 	O 	0.64573 0.81471 0.20899 -0.31700
O 	O 	0.64447 0.84024 0.16004 -0.44900
O 	O 	0.58144 0.86011 0.21717 -0.51400
C 	C 	0.67661 0.89579 0.25436 0.31200
C 	C 	0.60027 0.92047 0.16370 0.31400
H 	H 	0.57084 0.86645 0.24034 0.20300
Co	Co	0.82334 0.21191 0.66909 1.19100
O 	O 	0.84522 0.26077 0.67723 -0.33100
Co	Co	0.81480 0.12894 0.64750 1.19800
O 	O 	0.85473 0.16938 0.66762 -0.44300
O 	O 	0.79083 0.15931 0.61433 -0.39100
O 	O 	0.83591 0.22871 0.72060 -0.31700
C 	C 	0.80664 0.18500 0.59887 0.36300
O 	O 	0.86587 0.13451 0.62627 -0.29900
C 	C 	0.80848 0.06402 0.66218 0.31100
C 	C 	0.76518 0.17596 0.68410 0.33200
O 	O 	0.79250 0.08070 0.63812 -0.33100
O 	O 	0.82847 0.08485 0.67908 -0.28800
O 	O 	0.76898 0.20914 0.67961 -0.31100
O 	O 	0.79491 0.16062 0.68453 -0.44800
O 	O 	0.81994 0.21106 0.61706 -0.51800
C 	C 	0.84754 0.25831 0.71041 0.31100
C 	C 	0.87645 0.16133 0.64358 0.31500
H 	H 	0.83163 0.23088 0.60449 0.19400
Co	Co	0.78833 0.37600 0.87125 1.19200
O 	O 	0.74027 0.36462 0.89339 -0.33000
Co	Co	0.87019 0.40220 0.86220 1.19300
O 	O 	0.83081 0.38101 0.90226 -0.43000
O 	O 	0.83841 0.43456 0.83907 -0.40200
O 	O 	0.77644 0.32426 0.88717 -0.30900
C 	C 	0.81142 0.44748 0.85509 0.36200
O 	O 	0.86413 0.42331 0.91358 -0.33800
C 	C 	0.93529 0.38918 0.85562 0.31900
C 	C 	0.82485 0.36132 0.81321 0.32300
O 	O 	0.91817 0.41308 0.83989 -0.32600
O 	O 	0.91501 0.37194 0.87585 -0.29600
O 	O 	0.79152 0.36347 0.81724 -0.32700
O 	O 	0.84030 0.36312 0.84291 -0.41800
O 	O 	0.78502 0.42749 0.86429 -0.51600
C 	C 	0.74603 0.33214 0.89839 0.30900
C 	C 	0.83780 0.40522 0.92413 0.31300
H 	H 	0.76234 0.43870 0.87115 0.20100
Co	Co	0.62211 0.17758 0.83148 1.19400
O 	O 	0.62953 0.15699 0.78200 -0.34900
Co	Co	0.59841 0.18357 0.91494 1.19200
O 	O 	0.61650 0.14478 0.87287 -0.42700
O 	O 	0.56585 0.20890 0.88538 -0.41700
O 	O 	0.67220 0.15954 0.81592 -0.28200
C 	C 	0.55256 0.19503 0.85735 0.36000
O 	O 	0.57519 0.13329 0.90721 -0.33200
C 	C 	0.61285 0.18837 0.98002 0.31200
C 	C 	0.64174 0.23214 0.87101 0.32300
O 	O 	0.58952 0.20542 0.96352 -0.33100
O 	O 	0.62857 0.16730 0.95926 -0.30500
O 	O 	0.63885 0.23018 0.83746 -0.32800
O 	O 	0.63781 0.20182 0.88469 -0.42200
O 	O 	0.57210 0.19077 0.82948 -0.51400
C 	C 	0.66194 0.15027 0.78550 0.31400
C 	C 	0.59198 0.12327 0.87972 0.32300
H 	H 	0.56156 0.19361 0.80561 0.20800
Co	Co	0.79038 0.17386 0.37813 1.19000
O 	O 	0.74282 0.15166 0.36505 -0.33200
Co	Co	0.87094 0.18506 0.40746 1.19100
O 	O 	0.83318 0.14366 0.38571 -0.45400
O 	O 	0.83729 0.20827 0.43791 -0.39400
O 	O 	0.78051 0.15743 0.32610 -0.32800
C 	C 	0.81002 0.19209 0.45005 0.36500
O 	O 	0.86520 0.13414 0.42947 -0.32000
C 	C 	0.93624 0.19348 0.39678 0.32000
C 	C 	0.82620 0.23243 0.36461 0.33700
O 	O 	0.91777 0.20890 0.41986 -0.34200
O 	O 	0.91736 0.17227 0.37915 -0.30800
O 	O 	0.79294 0.22772 0.36533 -0.31700
O 	O 	0.84224 0.20310 0.36700 -0.44900
O 	O 	0.78477 0.18167 0.42921 -0.51500
C 	C 	0.74956 0.14680 0.33269 0.31300
C 	C 	0.83947 0.12270 0.41102 0.31400
H 	H 	0.76185 0.17439 0.43963 0.20200
Co	Co	0.82270 0.37654 0.21762 1.19100
O 	O 	0.84531 0.36722 0.26585 -0.35300
Co	Co	0.81405 0.40160 0.13555 1.19100
O 	O 	0.85398 0.38042 0.17525 -0.45500
O 	O 	0.78956 0.43304 0.16734 -0.40500
O 	O 	0.83733 0.32489 0.23218 -0.30900
C 	C 	0.80513 0.44747 0.19379 0.37500
O 	O 	0.86508 0.42306 0.14213 -0.32000
C 	C 	0.80834 0.38989 0.07002 0.30500
C 	C 	0.76486 0.36171 0.18089 0.33200
O 	O 	0.79167 0.41276 0.08761 -0.32200
O 	O 	0.82850 0.37234 0.09012 -0.31600
O 	O 	0.76861 0.36468 0.21430 -0.31200
O 	O 	0.79464 0.36273 0.16554 -0.44800
O 	O 	0.81828 0.42840 0.21921 -0.51300
C 	C 	0.84934 0.33438 0.26191 0.31800
C 	C 	0.87567 0.40484 0.16841 0.32300
H 	H 	0.83025 0.44030 0.23929 0.21000
Co	Co	0.62322 0.21351 0.17660 1.19100
O 	O 	0.63014 0.26289 0.15533 -0.35000
Co	Co	0.60187 0.13095 0.18715 1.19100
O 	O 	0.61889 0.17097 0.14529 -0.43600
O 	O 	0.57167 0.16173 0.21452 -0.41500
O 	O 	0.67332 0.22984 0.15930 -0.28700
C 	C 	0.55493 0.18772 0.20053 0.36900
O 	O 	0.57623 0.13673 0.13807 -0.32500
C 	C 	0.61709 0.06610 0.19250 0.31900
C 	C 	0.64419 0.17715 0.23301 0.32600
O 	O 	0.59424 0.08267 0.21020 -0.34400
O 	O 	0.63202 0.08678 0.17087 -0.29100
O 	O 	0.63858 0.21023 0.22996 -0.32100
O 	O 	0.64103 0.16205 0.20326 -0.42800
O 	O 	0.57166 0.21254 0.18357 -0.51800
C 	C 	0.66287 0.26005 0.14965 0.31500
C 	C 	0.59320 0.16296 0.12551 0.31600
H 	H 	0.55799 0.23074 0.17058 0.20400
Co	Co	0.13522 0.21362 0.38704 1.19200
O 	O 	0.11457 0.26313 0.37961 -0.33100
Co	Co	0.14143 0.12999 0.40896 1.19100
O 	O 	0.10245 0.17218 0.39133 -0.44700
O 	O 	0.16685 0.15922 0.44213 -0.40100
O 	O 	0.11900 0.22984 0.33643 -0.30300
C 	C 	0.15254 0.18640 0.45661 0.36500
O 	O 	0.09116 0.13695 0.43206 -0.31100
C 	C 	0.14543 0.06529 0.39311 0.30500
C 	C 	0.19041 0.17481 0.36745 0.32500
O 	O 	0.16235 0.08089 0.41720 -0.34100
O 	O 	0.12549 0.08681 0.37707 -0.28800
O 	O 	0.18838 0.20817 0.37196 -0.31400
O 	O 	0.16009 0.16101 0.37049 -0.43000
O 	O 	0.14478 0.21428 0.43813 -0.51700
C 	C 	0.10936 0.26005 0.34682 0.30500
C 	C 	0.08123 0.16495 0.41611 0.31100
H 	H 	0.14000 0.23691 0.45054 0.20400
Co	Co	0.16806 0.37081 0.18099 1.19000
O 	O 	0.21680 0.35991 0.16001 -0.32900
Co	Co	0.08622 0.39634 0.18932 1.19900
O 	O 	0.12578 0.37436 0.14947 -0.44900
O 	O 	0.11807 0.42817 0.21313 -0.40000
O 	O 	0.18179 0.31870 0.16754 -0.32100
C 	C 	0.14443 0.44231 0.19721 0.36500
O 	O 	0.09260 0.41688 0.13790 -0.30000
C 	C 	0.02080 0.38501 0.19619 0.31600
C 	C 	0.13156 0.35758 0.23931 0.32200
O 	O 	0.03868 0.40836 0.21186 -0.33100
O 	O 	0.04049 0.36712 0.17587 -0.28400
O 	O 	0.16483 0.36050 0.23540 -0.33400
O 	O 	0.11607 0.35785 0.20957 -0.42300
O 	O 	0.16981 0.42283 0.18446 -0.51900
C 	C 	0.21219 0.32706 0.15654 0.30600
C 	C 	0.11894 0.39870 0.12763 0.32200
H 	H 	0.19041 0.43440 0.17312 0.19800
Co	Co	0.33391 0.16939 0.21887 1.19100
O 	O 	0.32175 0.14861 0.26749 -0.32900
Co	Co	0.36137 0.17803 0.13729 1.19300
O 	O 	0.33896 0.13811 0.17641 -0.43800
O 	O 	0.39351 0.20072 0.16976 -0.41500
O 	O 	0.28204 0.15404 0.23057 -0.30800
C 	C 	0.40602 0.18466 0.19697 0.36400
O 	O 	0.38153 0.12640 0.14344 -0.29600
C 	C 	0.35043 0.18596 0.07188 0.30600
C 	C 	0.31852 0.22690 0.18126 0.32100
O 	O 	0.37375 0.20120 0.09007 -0.34000
O 	O 	0.33251 0.16520 0.09105 -0.28300
O 	O 	0.32146 0.22342 0.21467 -0.32800
O 	O 	0.32164 0.19701 0.16638 -0.42700
O 	O 	0.38548 0.17539 0.22294 -0.51800
C 	C 	0.28930 0.14390 0.26158 0.30800
C 	C 	0.36318 0.11628 0.16983 0.32900
H 	H 	0.39616 0.16840 0.24587 0.20400
Co	Co	0.12979 0.37666 0.83448 1.19000
O 	O 	0.10788 0.36971 0.78537 -0.35400
Co	Co	0.14115 0.39722 0.91743 1.19900
O 	O 	0.09912 0.38088 0.87741 -0.43500
O 	O 	0.16753 0.42803 0.88665 -0.40000
O 	O 	0.11213 0.32654 0.81853 -0.29000
C 	C 	0.15254 0.44498 0.86143 0.36100
O 	O 	0.09202 0.42286 0.91257 -0.29700
C 	C 	0.14743 0.38170 0.98218 0.31000
C 	C 	0.18664 0.35602 0.86989 0.32700
O 	O 	0.16510 0.40437 0.96530 -0.33000
O 	O 	0.12547 0.36688 0.96174 -0.28200
O 	O 	0.18300 0.36142 0.83684 -0.32900
O 	O 	0.15716 0.35859 0.88551 -0.42800
O 	O 	0.13776 0.42815 0.83524 -0.52200
C 	C 	0.10207 0.33697 0.78845 0.31800
C 	C 	0.07968 0.40668 0.88576 0.31300
H 	H 	0.12693 0.44176 0.81561 0.18900
Co	Co	0.33349 0.21048 0.87158 1.19800
O 	O 	0.32139 0.26088 0.88740 -0.30600
Co	Co	0.36207 0.12905 0.86706 1.19100
O 	O 	0.34437 0.17134 0.90633 -0.43200
O 	O 	0.39042 0.15944 0.83810 -0.42000
O 	O 	0.28363 0.22191 0.89257 -0.30700
C 	C 	0.40333 0.18829 0.85045 0.36000
O 	O 	0.38941 0.14072 0.91399 -0.33600
C 	C 	0.35181 0.06326 0.86730 0.30600
C 	C 	0.31379 0.16790 0.81952 0.32500
O 	O 	0.37278 0.07990 0.84750 -0.34500
O 	O 	0.33587 0.08424 0.88787 -0.29400
O 	O 	0.31479 0.20148 0.82019 -0.33100
O 	O 	0.31978 0.15550 0.85010 -0.43100
O 	O 	0.38280 0.21526 0.85585 -0.50600
C 	C 	0.29030 0.25424 0.89748 0.31500
C 	C 	0.37150 0.16684 0.92551 0.33200
H 	H 	0.39194 0.23956 0.85219 0.21600
Co	Co	0.16655 0.17209 0.67731 1.19100
O 	O 	0.21402 0.14846 0.68827 -0.33000
Co	Co	0.08449 0.18237 0.65283 1.19800
O 	O 	0.12338 0.14194 0.67440 -0.43200
O 	O 	0.11634 0.20454 0.61974 -0.38900
O 	O 	0.17926 0.15773 0.72943 -0.31300
C 	C 	0.14227 0.18771 0.60574 0.35700
O 	O 	0.08879 0.13035 0.63307 -0.31200
C 	C 	0.01993 0.19129 0.66709 0.31100
C 	C 	0.13174 0.23154 0.69027 0.33200
O 	O 	0.03701 0.20575 0.64236 -0.31300
O 	O 	0.04005 0.17112 0.68463 -0.31300
O 	O 	0.16496 0.22671 0.68778 -0.31600
O 	O 	0.11567 0.20215 0.69035 -0.44600
O 	O 	0.16798 0.17550 0.62522 -0.51600
C 	C 	0.20880 0.14471 0.72102 0.30900
C 	C 	0.11543 0.11990 0.65065 0.31400
H 	H 	0.18856 0.16416 0.61363 0.19200
C 	C 	0.28905 0.15070 0.79638 -0.09600
C 	C 	0.25443 0.14620 0.80684 0.19200
C 	C 	0.22876 0.14074 0.78203 -0.04600
C 	C 	0.23703 0.14037 0.74665 -0.07100
C 	C 	0.27224 0.13975 0.73668 0.18000
C 	C 	0.29794 0.14564 0.76156 -0.03700
H 	H 	0.20203 0.13872 0.79019 0.10900
H 	H 	0.32474 0.14747 0.75360 0.08400
Cl	Cl	0.24237 0.15008 0.85070 -0.26500
Cl	Cl	0.28488 0.12938 0.69407 -0.26600
C 	C 	0.10270 0.31353 0.75832 -0.07300
C 	C 	0.08480 0.28187 0.75939 0.18800
C 	C 	0.09235 0.25599 0.73520 -0.03400
C 	C 	0.11788 0.26139 0.70984 -0.09000
C 	C 	0.13262 0.29454 0.70622 0.19100
C 	C 	0.12520 0.32036 0.73059 -0.04000
H 	H 	0.07943 0.23118 0.73711 0.09700
H 	H 	0.13807 0.34521 0.72876 0.09500
Cl	Cl	0.05309 0.27413 0.79120 -0.24600
Cl	Cl	0.15995 0.30428 0.67106 -0.26800
C 	C 	0.26265 0.28057 0.89642 -0.06900
C 	C 	0.26999 0.31616 0.90057 0.18100
C 	C 	0.24468 0.34082 0.89257 -0.03700
C 	C 	0.21177 0.33027 0.88179 -0.09400
C 	C 	0.20358 0.29477 0.88072 0.19500
C 	C 	0.22884 0.27022 0.88830 -0.04600
H 	H 	0.25065 0.36815 0.89465 0.08500
H 	H 	0.22245 0.24297 0.88654 0.11400
Cl	Cl	0.30978 0.33017 0.91777 -0.24800
Cl	Cl	0.16204 0.28053 0.86856 -0.25400
C 	C 	0.35497 0.18045 0.03446 -0.07000
C 	C 	0.36751 0.14871 0.02160 0.18700
C 	C 	0.37370 0.14478 0.98613 -0.03100
C 	C 	0.36917 0.17278 0.96333 -0.08000
C 	C 	0.35917 0.20520 0.97673 0.18800
C 	C 	0.35122 0.20859 0.01193 -0.03800
H 	H 	0.38195 0.11983 0.97630 0.11200
H 	H 	0.34329 0.23356 0.02200 0.09500
Cl	Cl	0.37801 0.11445 0.04975 -0.24000
Cl	Cl	0.36013 0.24245 0.95088 -0.28600
C 	C 	0.12675 0.39451 0.09052 -0.09200
C 	C 	0.13300 0.42354 0.06945 0.19100
C 	C 	0.13962 0.41911 0.03410 -0.04100
C 	C 	0.14050 0.38578 0.01950 -0.06500
C 	C 	0.13483 0.35671 0.04069 0.18300
C 	C 	0.12791 0.36116 0.07598 -0.03500
H 	H 	0.14400 0.44163 0.01795 0.11200
H 	H 	0.12328 0.33865 0.09208 0.09900
Cl	Cl	0.13389 0.46557 0.08721 -0.26700
Cl	Cl	0.13740 0.31447 0.02367 -0.25000
C 	C 	0.24105 0.30161 0.15563 -0.07000
C 	C 	0.27619 0.31180 0.15810 0.18000
C 	C 	0.30172 0.28687 0.16486 -0.03800
C 	C 	0.29294 0.25180 0.16773 -0.09200
C 	C 	0.25839 0.24144 0.16198 0.19100
C 	C 	0.23297 0.26623 0.15545 -0.04600
H 	H 	0.32834 0.29488 0.16826 0.08600
H 	H 	0.20645 0.25797 0.15177 0.10700
Cl	Cl	0.28923 0.35486 0.15058 -0.26400
Cl	Cl	0.24592 0.19764 0.16514 -0.26400
C 	C 	0.15019 0.18781 0.49464 -0.11400
C 	C 	0.17939 0.19520 0.51504 0.19200
C 	C 	0.17664 0.19530 0.55124 -0.03800
C 	C 	0.14509 0.18705 0.56735 -0.10700
C 	C 	0.11579 0.18011 0.54660 0.19300
C 	C 	0.11849 0.18105 0.51055 -0.04100
H 	H 	0.19889 0.20230 0.56676 0.08600
H 	H 	0.09587 0.17628 0.49483 0.09500
Cl	Cl	0.21933 0.20516 0.49560 -0.27200
Cl	Cl	0.07551 0.16972 0.56514 -0.29600
C 	C 	0.21430 0.16125 0.34111 -0.09100
C 	C 	0.20430 0.16004 0.30601 0.19400
C 	C 	0.22842 0.15139 0.28061 -0.04700
C 	C 	0.26295 0.14479 0.28950 -0.06800
C 	C 	0.27211 0.14252 0.32494 0.18100
C 	C 	0.24794 0.15163 0.35047 -0.03700
H 	H 	0.22057 0.15128 0.25366 0.11300
H 	H 	0.25534 0.15117 0.37754 0.09000
Cl	Cl	0.16199 0.17100 0.29313 -0.26100
Cl	Cl	0.31236 0.12563 0.33798 -0.25600
C 	C 	0.10822 0.28998 0.32307 -0.07000
C 	C 	0.12927 0.31943 0.32837 0.18300
C 	C 	0.13290 0.34393 0.30195 -0.03500
C 	C 	0.11733 0.33870 0.26955 -0.09000
C 	C 	0.09345 0.31114 0.26561 0.18900
C 	C 	0.08912 0.28713 0.29239 -0.03900
H 	H 	0.15002 0.36582 0.30575 0.09300
H 	H 	0.07181 0.26537 0.28876 0.10800
Cl	Cl	0.15329 0.32504 0.36677 -0.27000
Cl	Cl	0.06848 0.30609 0.22779 -0.25600
C 	C 	0.44391 0.18473 0.20214 -0.11400
C 	C 	0.46332 0.15429 0.19734 0.18400
C 	C 	0.49933 0.15598 0.19567 -0.03000
C 	C 	0.51663 0.18732 0.20160 -0.11500
C 	C 	0.49731 0.21710 0.21032 0.18300
C 	C 	0.46108 0.21598 0.20912 -0.03000
H 	H 	0.51397 0.13265 0.19036 0.07700
H 	H 	0.44629 0.23925 0.21420 0.08800
Cl	Cl	0.44324 0.11357 0.19562 -0.30100
Cl	Cl	0.51771 0.25469 0.22613 -0.28800
C 	C 	0.91288 0.40009 0.17544 -0.09500
C 	C 	0.93497 0.42877 0.17931 0.19100
C 	C 	0.97021 0.42359 0.18575 -0.04300
C 	C 	0.98366 0.38992 0.18899 -0.06800
C 	C 	0.96143 0.36128 0.18582 0.18100
C 	C 	0.92634 0.36643 0.17889 -0.03400
H 	H 	0.98713 0.44580 0.18829 0.10900
H 	H 	0.90949 0.34418 0.17624 0.10100
Cl	Cl	0.91867 0.47135 0.17766 -0.28000
Cl	Cl	0.97685 0.31880 0.19187 -0.22700
C 	C 	0.68615 0.29032 0.15091 -0.07100
C 	C 	0.71878 0.28905 0.13486 0.18500
C 	C 	0.74368 0.31414 0.14266 -0.03600
C 	C 	0.73632 0.34068 0.16648 -0.09100
C 	C 	0.70245 0.34413 0.17939 0.19000
C 	C 	0.67760 0.31888 0.17177 -0.04100
H 	H 	0.76919 0.31214 0.13126 0.09400
H 	H 	0.65209 0.32080 0.18318 0.10000
Cl	Cl	0.72886 0.25611 0.10497 -0.24900
Cl	Cl	0.69065 0.38011 0.20480 -0.25800
C 	C 	0.97326 0.18716 0.40224 -0.07700
C 	C 	0.99773 0.19924 0.37829 0.18600
C 	C 	0.03290 0.19312 0.38388 -0.03900
C 	C 	0.04409 0.17426 0.41304 -0.08600
C 	C 	0.01941 0.16332 0.43780 0.18700
C 	C 	0.98424 0.16961 0.43205 -0.03400
H 	H 	0.05150 0.20256 0.36517 0.08500
H 	H 	0.96539 0.16087 0.45089 0.09600
Cl	Cl	0.98472 0.22243 0.34123 -0.26600
Cl	Cl	0.03181 0.14306 0.47675 -0.25700
C 	C 	0.72223 0.14781 0.30578 -0.07100
C 	C 	0.68689 0.14357 0.31423 0.18500
C 	C 	0.66143 0.15301 0.29016 -0.03700
C 	C 	0.67084 0.16500 0.25724 -0.08900
C 	C 	0.70599 0.16579 0.24772 0.19400
C 	C 	0.73134 0.15684 0.27178 -0.04200
H 	H 	0.63435 0.15079 0.29701 0.08800
H 	H 	0.75830 0.15826 0.26435 0.10800
Cl	Cl	0.67409 0.12383 0.35332 -0.25800
Cl	Cl	0.71884 0.17903 0.20599 -0.25400
C 	C 	0.84070 0.26085 0.34380 -0.09400
C 	C 	0.82876 0.29489 0.34867 0.18900
C 	C 	0.83343 0.31954 0.32258 -0.04000
C 	C 	0.85042 0.31058 0.29169 -0.07700
C 	C 	0.86611 0.27785 0.28874 0.18500
C 	C 	0.86126 0.25315 0.31479 -0.03200
H 	H 	0.82263 0.34523 0.32575 0.10000
H 	H 	0.87190 0.22740 0.31155 0.10000
Cl	Cl	0.80725 0.30675 0.38710 -0.25200
Cl	Cl	0.89204 0.26753 0.25268 -0.24400
C 	C 	0.60999 0.18196 0.01759 -0.07000
C 	C 	0.60296 0.20947 0.04052 0.18400
C 	C 	0.59544 0.20264 0.07530 -0.04000
C 	C 	0.59578 0.16863 0.08789 -0.08900
C 	C 	0.60421 0.14115 0.06523 0.19600
C 	C 	0.61083 0.14793 0.03023 -0.04200
H 	H 	0.59034 0.22397 0.09284 0.06900
H 	H 	0.61636 0.12663 0.01283 0.10600
Cl	Cl	0.60521 0.25281 0.02644 -0.26500
Cl	Cl	0.60835 0.09833 0.08048 -0.25900
C 	C 	0.51435 0.19446 0.85390 -0.11400
C 	C 	0.49760 0.16995 0.83264 0.18100
C 	C 	0.46168 0.17098 0.82905 -0.03600
C 	C 	0.44155 0.19259 0.85039 -0.10900
C 	C 	0.45835 0.21457 0.87435 0.17800
C 	C 	0.49435 0.21718 0.87404 -0.03200
H 	H 	0.44926 0.15329 0.81119 0.09300
H 	H 	0.50683 0.23558 0.89112 0.09400
Cl	Cl	0.52040 0.13504 0.81407 -0.31900
Cl	Cl	0.43564 0.23502 0.90811 -0.28500
C 	C 	0.97241 0.39314 0.86318 -0.07000
C 	C 	0.99595 0.40168 0.83667 0.18700
C 	C 	0.03062 0.40803 0.84475 -0.04000
C 	C 	0.04234 0.40529 0.87899 -0.08500
C 	C 	0.01893 0.39596 0.90543 0.19600
C 	C 	0.98415 0.39035 0.89746 -0.03900
H 	H 	0.04872 0.41409 0.82419 0.07000
H 	H 	0.96622 0.38382 0.91801 0.10600
Cl	Cl	0.98281 0.40262 0.79299 -0.26000
Cl	Cl	0.03301 0.38934 0.94837 -0.24900
C 	C 	0.83049 0.40095 0.96151 -0.09100
C 	C 	0.82875 0.36777 0.97707 0.18400
C 	C 	0.82042 0.36472 0.01219 -0.04100
C 	C 	0.81580 0.39423 0.03272 -0.07200
C 	C 	0.81980 0.42742 0.01768 0.18400
C 	C 	0.82612 0.43049 0.98211 -0.03800
H 	H 	0.81843 0.33923 0.02377 0.10000
H 	H 	0.82845 0.45598 0.97061 0.09000
Cl	Cl	0.84008 0.32993 0.95414 -0.25800
Cl	Cl	0.82011 0.46527 0.04323 -0.25800
C 	C 	0.71805 0.30600 0.90020 -0.07000
C 	C 	0.68271 0.31551 0.90015 0.18300
C 	C 	0.65751 0.29069 0.89216 -0.03600
C 	C 	0.66700 0.25626 0.88595 -0.09100
C 	C 	0.70176 0.24612 0.89018 0.19100
C 	C 	0.72686 0.27085 0.89788 -0.04300
H 	H 	0.63061 0.29830 0.89042 0.08700
H 	H 	0.75363 0.26293 0.90016 0.11100
Cl	Cl	0.66925 0.35722 0.91274 -0.26200
Cl	Cl	0.71476 0.20287 0.88352 -0.24400
C 	C 	0.91343 0.16835 0.64831 -0.08900
C 	C 	0.93606 0.14217 0.65993 0.19600
C 	C 	0.97053 0.15014 0.66719 -0.04100
C 	C 	0.98270 0.18418 0.66363 -0.06900
C 	C 	0.95970 0.21058 0.65349 0.18400
C 	C 	0.92535 0.20250 0.64561 -0.04100
H 	H 	0.98797 0.12971 0.67519 0.10800
H 	H 	0.90770 0.22293 0.63800 0.07000
Cl	Cl	0.92131 0.09959 0.66711 -0.24900
Cl	Cl	0.97315 0.25413 0.65206 -0.26300
C 	C 	0.80600 0.18656 0.56048 -0.10900
C 	C 	0.81200 0.15650 0.54045 0.19600
C 	C 	0.81078 0.15833 0.50436 -0.04100
C 	C 	0.80538 0.18998 0.48776 -0.11200
C 	C 	0.79843 0.21981 0.50746 0.19100
C 	C 	0.79813 0.21787 0.54367 -0.03600
H 	H 	0.81503 0.13521 0.48914 0.09400
H 	H 	0.79166 0.24066 0.55869 0.08800
Cl	Cl	0.82244 0.11658 0.55992 -0.29700
Cl	Cl	0.78936 0.25957 0.48709 -0.25300
C 	C 	0.73625 0.16255 0.70504 -0.09300
C 	C 	0.70264 0.17580 0.70070 0.19000
C 	C 	0.67758 0.16982 0.72610 -0.04300
C 	C 	0.68564 0.15018 0.75565 -0.07400
C 	C 	0.71784 0.13342 0.75777 0.18500
C 	C 	0.74298 0.13962 0.73251 -0.03500
H 	H 	0.65226 0.18151 0.72347 0.09700
H 	H 	0.76822 0.12774 0.73509 0.10000
Cl	Cl	0.69147 0.19957 0.66340 -0.26600
Cl	Cl	0.72699 0.10450 0.79184 -0.23500
C 	C 	0.84787 0.28884 0.73345 -0.07300
C 	C 	0.82746 0.31834 0.72636 0.18600
C 	C 	0.82413 0.34439 0.75134 -0.03500
C 	C 	0.83919 0.34062 0.78419 -0.08500
C 	C 	0.86211 0.31256 0.79005 0.18800
C 	C 	0.86617 0.28700 0.76468 -0.03700
H 	H 	0.80752 0.36638 0.74615 0.10000
H 	H 	0.88283 0.26502 0.76975 0.10100
Cl	Cl	0.80353 0.32198 0.68767 -0.26500
Cl	Cl	0.88617 0.30872 0.82860 -0.26000
C 	C 	0.60375 0.95794 0.17166 -0.08900
C 	C 	0.57699 0.98175 0.16413 0.18600
C 	C 	0.58193 0.01707 0.17056 -0.03200
C 	C 	0.61301 0.02907 0.18487 -0.07300
C 	C 	0.63940 0.00549 0.19292 0.18700
C 	C 	0.63466 0.97017 0.18656 -0.04000
H 	H 	0.56143 0.03524 0.16460 0.09800
H 	H 	0.65521 0.95224 0.19299 0.08600
Cl	Cl	0.53675 0.96803 0.14780 -0.25800
Cl	Cl	0.67840 0.01976 0.21162 -0.25900
C 	C 	0.82135 0.01371 0.39764 -0.07100
C 	C 	0.81227 0.03725 0.37150 0.18500
C 	C 	0.81747 0.07270 0.37654 -0.03800
C 	C 	0.83230 0.08511 0.40747 -0.09000
C 	C 	0.84072 0.06131 0.43405 0.18800
C 	C 	0.83538 0.02586 0.42882 -0.03500
H 	H 	0.81024 0.09060 0.35619 0.08600
H 	H 	0.84202 0.00771 0.44917 0.10100
Cl	Cl	0.79376 0.02274 0.33243 -0.25800
Cl	Cl	0.85683 0.07517 0.47442 -0.25900
C 	C 	0.75204 0.88159 0.33389 -0.09000
C 	C 	0.76220 0.88374 0.29889 0.19500
C 	C 	0.73783 0.89152 0.27341 -0.04200
C 	C 	0.70301 0.89651 0.28223 -0.07000
C 	C 	0.69372 0.89846 0.31766 0.18500
C 	C 	0.71809 0.89004 0.34320 -0.03600
H 	H 	0.74575 0.89213 0.24650 0.10800
H 	H 	0.71054 0.88993 0.37023 0.09100
Cl	Cl	0.80510 0.87502 0.28625 -0.26100
Cl	Cl	0.65296 0.91411 0.33067 -0.25600
C 	C 	0.81561 0.55799 0.19123 -0.10800
C 	C 	0.82415 0.53768 0.16216 0.19000
C 	C 	0.82208 0.50168 0.16407 -0.02300
C 	C 	0.80935 0.48549 0.19392 -0.11100
C 	C 	0.79841 0.50587 0.22220 0.18700
C 	C 	0.80266 0.54191 0.22113 -0.03000
H 	H 	0.82939 0.48624 0.14180 0.09000
H 	H 	0.79501 0.55747 0.24319 0.08800
Cl	Cl	0.83504 0.55674 0.12236 -0.26600
Cl	Cl	0.77658 0.48719 0.25762 -0.27700
C 	C 	0.72108 0.73367 0.14996 -0.07000
C 	C 	0.72415 0.76711 0.13577 0.18400
C 	C 	0.69795 0.79150 0.14122 -0.03300
C 	C 	0.66861 0.78283 0.16086 -0.09200
C 	C 	0.66387 0.74836 0.17161 0.19000
C 	C 	0.69009 0.72399 0.16629 -0.04100
H 	H 	0.70126 0.81767 0.13168 0.09600
H 	H 	0.68686 0.69788 0.17603 0.10000
Cl	Cl	0.76055 0.77877 0.11098 -0.24900
Cl	Cl	0.62536 0.73553 0.19227 -0.25100
C 	C 	0.84421 0.70896 0.25967 -0.09100
C 	C 	0.84843 0.74397 0.25018 0.19500
C 	C 	0.85728 0.76848 0.27514 -0.04400
C 	C 	0.86044 0.75900 0.31007 -0.06600
C 	C 	0.85953 0.72347 0.31905 0.18200
C 	C 	0.85064 0.69877 0.29391 -0.03600
H 	H 	0.85990 0.79537 0.26759 0.11600
H 	H 	0.84884 0.67169 0.30102 0.08600
Cl	Cl	0.84069 0.75806 0.20743 -0.25200
Cl	Cl	0.87237 0.70913 0.36041 -0.25700
C 	C 	0.05095 0.63920 0.17993 -0.08900
C 	C 	0.02629 0.61446 0.16898 0.18500
C 	C 	0.99101 0.62132 0.17289 -0.03600
C 	C 	0.97976 0.65209 0.18849 -0.07700
C 	C 	0.00411 0.67639 0.20015 0.18500
C 	C 	0.03946 0.66985 0.19605 -0.03900
H 	H 	0.97225 0.60230 0.16437 0.09600
H 	H 	0.05799 0.68880 0.20518 0.09200
Cl	Cl	0.03877 0.57405 0.15188 -0.26000
Cl	Cl	0.99074 0.71492 0.22053 -0.25000
C 	C 	0.15366 0.55304 0.20170 -0.11200
C 	C 	0.18261 0.53203 0.20830 0.19100
C 	C 	0.17946 0.49593 0.20690 -0.03500
C 	C 	0.14778 0.48057 0.19781 -0.10700
C 	C 	0.11875 0.50191 0.19158 0.20000
C 	C 	0.12177 0.53781 0.19436 -0.04100
H 	H 	0.20150 0.47988 0.21330 0.08400
H 	H 	0.09937 0.55398 0.19005 0.09600
Cl	Cl	0.22274 0.55057 0.21918 -0.25900
Cl	Cl	0.07860 0.48431 0.17921 -0.29000
C 	C 	0.52314 0.85131 0.19639 -0.10700
C 	C 	0.50487 0.82138 0.20614 0.19100
C 	C 	0.46881 0.82248 0.20920 -0.03500
C 	C 	0.45060 0.85304 0.20148 -0.10200
C 	C 	0.46930 0.88333 0.19288 0.20100
C 	C 	0.50532 0.88223 0.19072 -0.03900
H 	H 	0.45503 0.79963 0.21779 0.08600
H 	H 	0.51950 0.90549 0.18432 0.09900
Cl	Cl	0.52689 0.78252 0.21521 -0.25300
Cl	Cl	0.44825 0.92287 0.18448 -0.28200
C 	C 	0.35851 0.07942 0.17788 -0.08000
C 	C 	0.34380 0.05671 0.15341 0.19600
C 	C 	0.33823 0.02202 0.16208 -0.03900
C 	C 	0.34603 0.00989 0.19546 -0.06800
C 	C 	0.35809 0.03335 0.22072 0.18700
C 	C 	0.36464 0.06780 0.21169 -0.03400
H 	H 	0.32805 0.00445 0.14272 0.10600
H 	H 	0.37390 0.08574 0.23119 0.08600
Cl	Cl	0.32998 0.07183 0.11269 -0.23200
Cl	Cl	0.36330 0.02046 0.26418 -0.25100
C 	C 	0.27890 0.74769 0.16222 -0.07800
C 	C 	0.24713 0.74875 0.14454 0.18500
C 	C 	0.22228 0.72318 0.15069 -0.03500
C 	C 	0.22883 0.69652 0.17458 -0.09100
C 	C 	0.26219 0.69313 0.18878 0.18800
C 	C 	0.28696 0.71886 0.18283 -0.03900
H 	H 	0.19731 0.72502 0.13812 0.10000
H 	H 	0.31197 0.71709 0.19534 0.09700
Cl	Cl	0.23809 0.78206 0.11472 -0.24400
Cl	Cl	0.27335 0.65671 0.21386 -0.25300
C 	C 	0.98934 0.85554 0.39780 -0.07400
C 	C 	0.96593 0.82911 0.40690 0.18500
C 	C 	0.93136 0.83723 0.41391 -0.04200
C 	C 	0.91963 0.87146 0.41140 -0.08900
C 	C 	0.94286 0.89780 0.40136 0.19500
C 	C 	0.97751 0.88976 0.39492 -0.04100
H 	H 	0.91338 0.81672 0.42043 0.07200
H 	H 	0.99534 0.91027 0.38801 0.10100
Cl	Cl	0.97915 0.78549 0.40806 -0.26000
Cl	Cl	0.92870 0.94073 0.39521 -0.25600
C 	C 	0.12847 0.95630 0.40555 -0.08800
C 	C 	0.16165 0.97055 0.40942 0.19400
C 	C 	0.16711 0.00571 0.40278 -0.04100
C 	C 	0.13938 0.02748 0.39406 -0.06600
C 	C 	0.10585 0.01319 0.39070 0.18300
C 	C 	0.10083 0.97766 0.39581 -0.02300
H 	H 	0.19281 0.01647 0.40583 0.10100
H 	H 	0.07520 0.96675 0.39275 0.09700
Cl	Cl	0.19601 0.94544 0.42546 -0.30700
Cl	Cl	0.06945 0.03929 0.38217 -0.24600
C 	C 	0.12549 0.77762 0.35133 -0.09200
C 	C 	0.13903 0.74399 0.35506 0.19000
C 	C 	0.13425 0.71954 0.32871 -0.04000
C 	C 	0.11547 0.72816 0.29877 -0.07600
C 	C 	0.09879 0.76046 0.29682 0.18400
C 	C 	0.10372 0.78497 0.32308 -0.03400
H 	H 	0.14605 0.69421 0.33105 0.09700
H 	H 	0.09185 0.81025 0.32068 0.09600
Cl	Cl	0.16180 0.73204 0.39272 -0.26700
Cl	Cl	0.07144 0.77050 0.26176 -0.24900
C 	C 	0.25018 0.88671 0.32156 -0.07500
C 	C 	0.24965 0.90306 0.28903 0.18600
C 	C 	0.27619 0.89682 0.26525 -0.03500
C 	C 	0.30328 0.87396 0.27350 -0.09200
C 	C 	0.30560 0.86051 0.30733 0.19100
C 	C 	0.27896 0.86667 0.33108 -0.03900
H 	H 	0.27496 0.90866 0.23984 0.09400
H 	H 	0.28018 0.85506 0.35660 0.09800
Cl	Cl	0.21596 0.93159 0.27776 -0.26000
Cl	Cl	0.34201 0.83656 0.32055 -0.26300
C 	C 	0.82684 0.66149 0.01646 -0.06100
C 	C 	0.86108 0.66276 0.02941 0.18200
C 	C 	0.86742 0.65524 0.06430 -0.02100
C 	C 	0.84035 0.64522 0.08624 -0.08600
C 	C 	0.80656 0.64293 0.07314 0.19400
C 	C 	0.79980 0.65222 0.03885 -0.04100
H 	H 	0.89350 0.65715 0.07435 0.10000
H 	H 	0.77361 0.65048 0.02903 0.10200
Cl	Cl	0.89660 0.67219 0.00239 -0.24100
Cl	Cl	0.77302 0.62539 0.09837 -0.30600
C 	C 	0.81120 0.55813 0.85964 -0.10900
C 	C 	0.81943 0.53830 0.88930 0.18700
C 	C 	0.81768 0.50218 0.88794 -0.03900
C 	C 	0.80807 0.48538 0.85733 -0.11600
C 	C 	0.79854 0.50500 0.82815 0.19200
C 	C 	0.79978 0.54121 0.82951 -0.04000
H 	H 	0.82468 0.48710 0.91054 0.07500
H 	H 	0.79181 0.55617 0.80715 0.08200
Cl	Cl	0.83275 0.55809 0.92817 -0.30500
Cl	Cl	0.78487 0.48452 0.78977 -0.27800
C 	C 	0.60272 0.01458 0.85795 -0.06600
C 	C 	0.56959 0.02992 0.86052 0.18700
C 	C 	0.56658 0.06554 0.86680 -0.03300
C 	C 	0.59608 0.08595 0.87193 -0.08400
C 	C 	0.62915 0.07018 0.87092 0.18600
C 	C 	0.63216 0.03502 0.86295 -0.03800
H 	H 	0.54116 0.07718 0.86853 0.10200
H 	H 	0.65758 0.02327 0.86178 0.10500
Cl	Cl	0.53161 0.00479 0.85870 -0.26000
Cl	Cl	0.66689 0.09292 0.88277 -0.23800
C 	C 	0.59799 0.87229 0.95771 -0.09000
C 	C 	0.60670 0.89949 0.98051 0.19500
C 	C 	0.61306 0.89246 0.01548 -0.04100
C 	C 	0.61147 0.85840 0.02804 -0.07200
C 	C 	0.60364 0.83113 0.00506 0.18500
C 	C 	0.59674 0.83823 0.97016 -0.04200
H 	H 	0.61909 0.91358 0.03293 0.10400
H 	H 	0.59110 0.81713 0.95253 0.07300
Cl	Cl	0.61137 0.94230 0.96541 -0.25800
Cl	Cl	0.60406 0.78778 0.01921 -0.25800
C 	C 	0.75138 0.71217 0.87890 -0.09100
C 	C 	0.76020 0.74752 0.87694 0.19100
C 	C 	0.73580 0.77274 0.88530 -0.04400
C 	C 	0.70216 0.76329 0.89506 -0.07300
C 	C 	0.69437 0.72787 0.90027 0.18200
C 	C 	0.71877 0.70251 0.89135 -0.03900
H 	H 	0.74270 0.79982 0.88296 0.10600
H 	H 	0.71242 0.67536 0.89435 0.08500
Cl	Cl	0.80151 0.76078 0.86305 -0.25100
Cl	Cl	0.65562 0.71494 0.92044 -0.25900
C 	C 	0.83499 0.95701 0.64932 -0.08800
C 	C 	0.83084 0.97854 0.62022 0.19100
C 	C 	0.82227 0.01344 0.62469 -0.03900
C 	C 	0.81715 0.02709 0.65806 -0.06600
C 	C 	0.82061 0.00541 0.68712 0.18500
C 	C 	0.82962 0.97061 0.68268 -0.03500
H 	H 	0.81961 0.02997 0.60217 0.11100
H 	H 	0.83242 0.95412 0.70522 0.10400
Cl	Cl	0.83477 0.96185 0.57790 -0.26700
Cl	Cl	0.81249 0.02112 0.72919 -0.23900
C 	C 	0.81781 0.85172 0.56029 -0.10400
C 	C 	0.84702 0.85955 0.53976 0.19500
C 	C 	0.84485 0.85771 0.50370 -0.03700
C 	C 	0.81360 0.84929 0.48756 -0.11600
C 	C 	0.78455 0.84096 0.50782 0.19400
C 	C 	0.78687 0.84170 0.54402 -0.03700
H 	H 	0.86741 0.86352 0.48817 0.08100
H 	H 	0.76473 0.83416 0.55946 0.08500
Cl	Cl	0.88634 0.87266 0.55864 -0.29000
Cl	Cl	0.74526 0.82898 0.48817 -0.27300
C 	C 	0.85805 0.72702 0.75274 -0.07400
C 	C 	0.87612 0.75860 0.75325 0.18500
C 	C 	0.86900 0.78390 0.72835 -0.03600
C 	C 	0.84364 0.77807 0.70293 -0.09300
C 	C 	0.82885 0.74486 0.69986 0.19000
C 	C 	0.83585 0.71961 0.72493 -0.04200
H 	H 	0.88206 0.80867 0.72979 0.09200
H 	H 	0.82292 0.69476 0.72354 0.09500
Cl	Cl	0.90741 0.76701 0.78531 -0.24900
Cl	Cl	0.80215 0.73430 0.66445 -0.27000
C 	C 	0.71822 0.89241 0.73501 -0.07700
C 	C 	0.72075 0.90735 0.76817 0.18300
C 	C 	0.69409 0.90259 0.79222 -0.03500
C 	C 	0.66485 0.88288 0.78344 -0.09400
C 	C 	0.66056 0.87167 0.74903 0.18800
C 	C 	0.68727 0.87625 0.72503 -0.04000
H 	H 	0.69702 0.91256 0.81829 0.09500
H 	H 	0.68447 0.86599 0.69906 0.09700
Cl	Cl	0.75708 0.93222 0.77989 -0.25100
Cl	Cl	0.62214 0.85103 0.73593 -0.25500
C 	C 	0.99538 0.64789 0.86755 -0.07200
C 	C 	0.97926 0.61517 0.87036 0.18700
C 	C 	0.94330 0.61304 0.87339 -0.03900
C 	C 	0.92318 0.64311 0.87552 -0.08300
C 	C 	0.93958 0.67591 0.87442 0.18600
C 	C 	0.97535 0.67796 0.86971 -0.03800
H 	H 	0.93106 0.58786 0.87523 0.09200
H 	H 	0.98769 0.70312 0.86827 0.10300
Cl	Cl	0.00373 0.57678 0.87330 -0.26900
Cl	Cl	0.91645 0.71464 0.88141 -0.23400
C 	C 	0.13852 0.63623 0.96813 -0.08600
C 	C 	0.13107 0.60951 0.99202 0.18400
C 	C 	0.13724 0.61470 0.02741 -0.03500
C 	C 	0.15116 0.64606 0.03937 -0.07700
C 	C 	0.15909 0.67242 0.01567 0.18600
C 	C 	0.15301 0.66742 0.98033 -0.04200
H 	H 	0.13135 0.59419 0.04564 0.09900
H 	H 	0.15941 0.68796 0.96234 0.09700
Cl	Cl	0.11518 0.56904 0.97831 -0.25600
Cl	Cl	0.17750 0.71168 0.02980 -0.24500
C 	C 	0.15954 0.55588 0.85932 -0.11600
C 	C 	0.16459 0.53669 0.82878 0.19200
C 	C 	0.16306 0.50051 0.82976 -0.03800
C 	C 	0.15523 0.48328 0.86087 -0.11200
C 	C 	0.15128 0.50277 0.89166 0.19600
C 	C 	0.15422 0.53874 0.89069 -0.04000
H 	H 	0.16814 0.48583 0.80639 0.08100
H 	H 	0.15135 0.55353 0.91432 0.09400
Cl	Cl	0.17358 0.55764 0.78928 -0.27700
Cl	Cl	0.14150 0.48287 0.93155 -0.30100
C 	C 	0.44766 0.84546 0.86084 -0.10200
C 	C 	0.46909 0.85108 0.89004 0.19400
C 	C 	0.50497 0.85045 0.88638 -0.03700
C 	C 	0.52002 0.84516 0.85391 -0.11400
C 	C 	0.49899 0.83820 0.82504 0.19400
C 	C 	0.46298 0.83769 0.82872 -0.03500
H 	H 	0.52120 0.85491 0.90881 0.08000
H 	H 	0.44702 0.83093 0.80669 0.08900
Cl	Cl	0.45171 0.85939 0.93140 -0.31300
Cl	Cl	0.51742 0.82933 0.78429 -0.25200
C 	C 	0.36902 0.95523 0.88582 -0.09100
C 	C 	0.36973 0.96871 0.85203 0.18500
C 	C 	0.36237 0.00365 0.84637 -0.04000
C 	C 	0.35603 0.02596 0.87433 -0.07200
C 	C 	0.35727 0.01280 0.90851 0.18400
C 	C 	0.36300 0.97744 0.91393 -0.02800
H 	H 	0.36252 0.01373 0.82017 0.09900
H 	H 	0.36280 0.96723 0.94008 0.10000
Cl	Cl	0.38253 0.94283 0.81683 -0.31500
Cl	Cl	0.35406 0.04022 0.94490 -0.25700
C 	C 	0.35606 0.85345 0.02611 -0.07200
C 	C 	0.32677 0.85497 0.04761 0.18300
C 	C 	0.33062 0.86174 0.08296 -0.03500
C 	C 	0.36363 0.86687 0.09725 -0.09400
C 	C 	0.39303 0.86409 0.07598 0.19000
C 	C 	0.38913 0.85762 0.04054 -0.04100
H 	H 	0.30788 0.86332 0.09927 0.10100
H 	H 	0.41183 0.85611 0.02416 0.10600
Cl	Cl	0.28512 0.84736 0.03080 -0.24300
Cl	Cl	0.43493 0.86740 0.09356 -0.27100
C 	C 	0.30269 0.78074 0.89316 -0.09700
C 	C 	0.30824 0.74653 0.88203 0.19100
C 	C 	0.28350 0.72111 0.88896 -0.04300
C 	C 	0.25322 0.72954 0.90718 -0.07400
C 	C 	0.24983 0.76266 0.92198 0.18500
C 	C 	0.27450 0.78814 0.91488 -0.03200
H 	H 	0.28710 0.69521 0.87881 0.09700
H 	H 	0.27089 0.81407 0.92495 0.10100
Cl	Cl	0.34597 0.73525 0.85912 -0.27100
Cl	Cl	0.21490 0.77251 0.94953 -0.23100
C 	C 	0.04925 0.86872 0.64416 -0.09200
C 	C 	0.03594 0.83488 0.64535 0.18600
C 	C 	0.00105 0.82946 0.65322 -0.04200
C 	C 	0.97874 0.85762 0.65847 -0.06700
C 	C 	0.99180 0.89167 0.65564 0.18300
C 	C 	0.02699 0.89696 0.64916 -0.02600
H 	H 	0.99099 0.80329 0.65408 0.09800
H 	H 	0.03707 0.92312 0.64818 0.10000
Cl	Cl	0.06198 0.79921 0.63441 -0.31300
Cl	Cl	0.96433 0.92800 0.65807 -0.24900
C 	C 	0.14132 0.01223 0.65938 -0.07300
C 	C 	0.13693 0.02773 0.62650 0.18400
C 	C 	0.12891 0.06298 0.62413 -0.03800
C 	C 	0.12375 0.08277 0.65411 -0.09100
C 	C 	0.12640 0.06677 0.68698 0.18500
C 	C 	0.13596 0.03196 0.68933 -0.04200
H 	H 	0.12618 0.07490 0.59886 0.09400
H 	H 	0.13831 0.01994 0.71459 0.09700
Cl	Cl	0.13873 0.00304 0.58812 -0.26500
Cl	Cl	0.11489 0.08879 0.72530 -0.26800
C 	C 	0.15854 0.85051 0.56902 -0.11300
C 	C 	0.16947 0.82196 0.54900 0.18800
C 	C 	0.16505 0.82249 0.51294 -0.03000
C 	C 	0.15215 0.85218 0.49646 -0.10700
C 	C 	0.14408 0.88166 0.51630 0.18600
C 	C 	0.14640 0.88036 0.55234 -0.02800
H 	H 	0.17267 0.80024 0.49766 0.09600
H 	H 	0.13956 0.90301 0.56741 0.08200
Cl	Cl	0.19209 0.78723 0.56799 -0.27500
Cl	Cl	0.13309 0.92109 0.49651 -0.27400
C 	C 	0.11188 0.75708 0.74677 -0.06600
C 	C 	0.11212 0.72151 0.73801 0.18000
C 	C 	0.12132 0.69689 0.76307 -0.03600
C 	C 	0.12869 0.70724 0.79706 -0.09400
C 	C 	0.12491 0.74228 0.80651 0.19300
C 	C 	0.11592 0.76676 0.78158 -0.04700
H 	H 	0.12281 0.66977 0.75606 0.09100
H 	H 	0.11379 0.79373 0.78902 0.11400
Cl	Cl	0.09831 0.70710 0.69698 -0.24700
Cl	Cl	0.13338 0.75633 0.84913 -0.25700
C 	C 	0.21750 0.88199 0.72188 -0.09400
C 	C 	0.20798 0.88448 0.75703 0.19300
C 	C 	0.23295 0.89180 0.78206 -0.04700
C 	C 	0.26778 0.89582 0.77268 -0.07000
C 	C 	0.27655 0.89736 0.73712 0.18000
C 	C 	0.25152 0.88957 0.71201 -0.03600
H 	H 	0.22548 0.89273 0.80910 0.10500
H 	H 	0.25866 0.88905 0.68486 0.08800
Cl	Cl	0.16518 0.87643 0.77044 -0.27000
Cl	Cl	0.31760 0.91157 0.72340 -0.25100
