data_crystal

_cell_length_a 43.22022
_cell_length_b 37.90270
_cell_length_c 20.66121
_cell_angle_alpha 92.01635
_cell_angle_beta  88.35805
_cell_angle_gamma 90.05840

_symmetry_space_group_name_	'P 1'
_symmetry_space_group_name_H-M	'P 1'

loop_
_symmetry_equiv_pos_as_xyz
  x,y,z

loop_
_atom_site_label
_atom_site_type_symbol
_atom_site_fract_x
_atom_site_fract_y
_atom_site_fract_z
_atom_site_charge
Cd	Cd	0.06572 0.83431 0.27549 1.24100
Cd	Cd	0.10146 0.85017 0.42640 1.16900
O 	O 	0.06484 0.77466 0.22375 -0.31500
O 	O 	0.03840 0.81852 0.18663 -0.35300
C 	C 	0.04499 0.78503 0.18216 0.23600
O 	O 	0.05195 0.88896 0.30590 -0.39200
O 	O 	0.09155 0.90099 0.37604 -0.41700
C 	C 	0.06650 0.91081 0.34598 0.26700
C 	C 	0.03490 0.81384 0.39209 0.28000
O 	O 	0.12043 0.83017 0.32544 -0.45400
O 	O 	0.01590 0.81336 0.34407 -0.29100
O 	O 	0.06373 0.81886 0.37630 -0.53900
C 	C 	0.13117 0.85030 0.28013 0.26900
O 	O 	0.11223 0.85567 0.23331 -0.35400
Cd	Cd	0.82739 0.87995 0.07898 1.23900
Cd	Cd	0.83200 0.91816 0.92662 1.16700
O 	O 	0.79749 0.82545 0.09600 -0.30100
O 	O 	0.82680 0.84875 0.17132 -0.35000
C 	C 	0.80844 0.82314 0.15363 0.24100
O 	O 	0.86302 0.92187 0.08717 -0.39500
O 	O 	0.84406 0.95670 0.00840 -0.42500
C 	C 	0.86255 0.95205 0.05722 0.27100
C 	C 	0.86698 0.84830 0.98030 0.26800
O 	O 	0.78967 0.90660 0.99498 -0.45100
O 	O 	0.87356 0.83765 0.03767 -0.29700
O 	O 	0.84219 0.86755 0.97854 -0.53300
C 	C 	0.77906 0.92728 0.04240 0.26500
O 	O 	0.78906 0.92130 0.09988 -0.35300
C 	C 	0.91252 0.65647 0.05212 0.09100
N 	N 	0.90562 0.65784 0.98838 -0.13700
C 	C 	0.92777 0.65033 0.94195 0.12600
N 	N 	0.95673 0.64152 0.95932 -0.14400
C 	C 	0.96357 0.63979 0.02278 0.12500
N 	N 	0.94150 0.64754 0.06912 -0.12900
C 	C 	0.97542 0.62609 0.36930 0.09200
N 	N 	0.99892 0.60327 0.37859 -0.12700
C 	C 	0.00538 0.59327 0.43911 0.12500
N 	N 	0.98822 0.60614 0.49063 -0.14300
C 	C 	0.96464 0.62897 0.48178 0.12700
N 	N 	0.95842 0.63926 0.42111 -0.13900
Cd	Cd	0.79993 0.11507 0.70942 1.24000
Cd	Cd	0.81819 0.13096 0.87410 1.16400
O 	O 	0.76998 0.15811 0.64869 -0.30300
O 	O 	0.78968 0.10982 0.60210 -0.34200
C 	C 	0.77323 0.13821 0.59632 0.23900
O 	O 	0.83266 0.07202 0.73093 -0.38100
O 	O 	0.82376 0.07390 0.84117 -0.42800
C 	C 	0.83935 0.06160 0.78931 0.26900
C 	C 	0.84972 0.16111 0.74140 0.28100
O 	O 	0.77129 0.12639 0.82273 -0.45600
O 	O 	0.85057 0.15280 0.67939 -0.29200
O 	O 	0.82480 0.15175 0.77258 -0.53800
C 	C 	0.75587 0.09740 0.81114 0.27100
O 	O 	0.75958 0.08288 0.75330 -0.35600
Cd	Cd	0.90316 0.01993 0.49914 1.24100
Cd	Cd	0.98131 0.98967 0.49539 1.16800
O 	O 	0.86688 0.99704 0.41731 -0.31500
O 	O 	0.85188 0.03285 0.49820 -0.33600
C 	C 	0.84439 0.01458 0.44658 0.24100
O 	O 	0.92129 0.04162 0.59180 -0.37800
O 	O 	0.97249 0.03706 0.56158 -0.43500
C 	C 	0.95050 0.03820 0.60706 0.26200
C 	C 	0.91680 0.95237 0.54701 0.28000
O 	O 	0.95253 0.01943 0.42089 -0.44700
O 	O 	0.88867 0.96203 0.56428 -0.30000
O 	O 	0.93098 0.97218 0.50581 -0.53400
C 	C 	0.94917 0.05348 0.41678 0.26100
O 	O 	0.92418 0.06686 0.44475 -0.35300
C 	C 	0.59766 0.09471 0.53462 0.09200
N 	N 	0.56964 0.08176 0.51714 -0.13700
C 	C 	0.55123 0.06546 0.56152 0.12600
N 	N 	0.56074 0.06253 0.62311 -0.14300
C 	C 	0.58839 0.07606 0.64073 0.12800
N 	N 	0.60694 0.09180 0.59638 -0.13300
C 	C 	0.69548 0.07800 0.17882 0.09200
N 	N 	0.67158 0.08276 0.22237 -0.13600
C 	C 	0.64195 0.08132 0.20241 0.12800
N 	N 	0.63627 0.07508 0.13873 -0.14300
C 	C 	0.66011 0.07071 0.09507 0.12900
N 	N 	0.68971 0.07192 0.11522 -0.13300
Cd	Cd	0.12365 0.21795 0.32595 1.24100
Cd	Cd	0.04625 0.21192 0.38484 1.16500
O 	O 	0.14534 0.27192 0.27793 -0.31300
O 	O 	0.17427 0.22589 0.29733 -0.33400
C 	C 	0.17271 0.25751 0.27538 0.24100
O 	O 	0.12069 0.16755 0.37723 -0.38800
O 	O 	0.06815 0.15768 0.36957 -0.42100
C 	C 	0.09633 0.14664 0.38211 0.26700
C 	C 	0.10681 0.25010 0.44848 0.28000
O 	O 	0.06729 0.22246 0.28286 -0.45700
O 	O 	0.13688 0.24815 0.44084 -0.28900
O 	O 	0.09134 0.24209 0.39723 -0.53900
C 	C 	0.07470 0.19819 0.23898 0.27700
O 	O 	0.10404 0.19006 0.23441 -0.34900
Cd	Cd	0.06835 0.15538 0.02767 1.24100
Cd	Cd	0.05623 0.07633 0.93564 1.17500
O 	O 	0.11251 0.19528 0.00485 -0.29600
O 	O 	0.07583 0.20896 0.07755 -0.34700
C 	C 	0.10144 0.21804 0.04806 0.24200
O 	O 	0.02179 0.13652 0.05998 -0.38100
O 	O 	0.02989 0.07805 0.03139 -0.42700
C 	C 	0.01172 0.10364 0.05485 0.26500
C 	C 	0.04146 0.15884 0.90390 0.28000
O 	O 	0.09731 0.09522 0.99854 -0.44200
O 	O 	0.03884 0.18899 0.93613 -0.29100
O 	O 	0.05961 0.13613 0.92908 -0.53100
C 	C 	0.09989 0.09147 0.06073 0.26800
O 	O 	0.09104 0.11811 0.09812 -0.34600
C 	C 	0.17305 0.43676 0.04197 0.09300
N 	N 	0.15225 0.46262 0.05811 -0.12700
C 	C 	0.15379 0.49399 0.02849 0.12700
N 	N 	0.17642 0.49960 0.98315 -0.14300
C 	C 	0.19705 0.47366 0.96606 0.12800
N 	N 	0.19527 0.44222 0.99554 -0.13700
C 	C 	0.25033 0.43739 0.41416 0.09300
N 	N 	0.26535 0.43742 0.47112 -0.14000
C 	C 	0.25368 0.45603 0.52361 0.12900
N 	N 	0.22766 0.47560 0.51848 -0.14400
C 	C 	0.21288 0.47613 0.46152 0.12800
N 	N 	0.22415 0.45685 0.40950 -0.12700
Cd	Cd	0.05843 0.88628 0.79006 1.23800
Cd	Cd	0.01714 0.83575 0.90513 1.16500
O 	O 	0.11069 0.86844 0.74881 -0.32000
O 	O 	0.08633 0.91401 0.71204 -0.35700
C 	C 	0.11139 0.89502 0.71057 0.23200
O 	O 	0.01135 0.90986 0.79412 -0.39400
O 	O 	0.99765 0.89000 0.89431 -0.43200
C 	C 	0.98993 0.90267 0.83848 0.26700
C 	C 	0.02636 0.82464 0.74779 0.27400
O 	O 	0.06460 0.86481 0.90956 -0.45200
O 	O 	0.03600 0.84291 0.69864 -0.30500
O 	O 	0.03847 0.83375 0.80266 -0.53700
C 	C 	0.06917 0.89780 0.92694 0.26200
O 	O 	0.07137 0.91980 0.87995 -0.36300
Cd	Cd	0.17870 0.05862 0.69129 1.24000
Cd	Cd	0.10851 0.06852 0.60707 1.16800
O 	O 	0.22555 0.09140 0.65778 -0.30100
O 	O 	0.22456 0.05783 0.74208 -0.35300
C 	C 	0.24085 0.07777 0.70405 0.24500
O 	O 	0.14364 0.03096 0.75257 -0.38000
O 	O 	0.11075 0.02146 0.66950 -0.42200
C 	C 	0.11551 0.02482 0.73194 0.27800
C 	C 	0.14177 0.11979 0.71788 0.27200
O 	O 	0.15749 0.04908 0.57290 -0.44600
O 	O 	0.16310 0.11699 0.76098 -0.29200
O 	O 	0.14437 0.09829 0.66775 -0.52600
C 	C 	0.16805 0.01687 0.57409 0.27200
O 	O 	0.18418 0.00926 0.62403 -0.35200
C 	C 	0.31414 0.95019 0.75775 0.09400
N 	N 	0.32303 0.94913 0.82011 -0.13400
C 	C 	0.35260 0.95714 0.83554 0.12800
N 	N 	0.37294 0.96759 0.78869 -0.14300
C 	C 	0.36368 0.97052 0.72682 0.12900
N 	N 	0.33445 0.96093 0.71108 -0.13400
C 	C 	0.38407 0.03547 0.40480 0.09300
N 	N 	0.37400 0.01884 0.35005 -0.13100
C 	C 	0.39431 0.01074 0.30035 0.12800
N 	N 	0.42473 0.01892 0.30595 -0.14200
C 	C 	0.43501 0.03428 0.36163 0.12700
N 	N 	0.41460 0.04309 0.41060 -0.13800
C 	C 	0.36137 0.95929 0.90417 -0.05000
C 	C 	0.35306 0.93234 0.94720 0.10300
C 	C 	0.35606 0.93847 0.01415 -0.08700
C 	C 	0.36952 0.96975 0.03826 -0.00600
C 	C 	0.38091 0.99503 0.99463 0.07300
C 	C 	0.37592 0.98999 0.92813 -0.05400
N 	N 	0.34339 0.90019 0.92446 -0.19900
H 	H 	0.34840 0.91858 0.04750 0.05500
C 	C 	0.37150 0.97580 0.10928 -0.00600
N 	N 	0.39667 0.02403 0.01617 -0.19500
H 	H 	0.38298 0.01028 0.89505 0.05100
C 	C 	0.39378 0.95740 0.14275 -0.08600
C 	C 	0.39898 0.96574 0.20825 0.10200
C 	C 	0.38321 0.99469 0.23917 -0.05000
C 	C 	0.35920 0.01116 0.20733 -0.05300
C 	C 	0.35267 0.00135 0.14297 0.07300
H 	H 	0.40719 0.93668 0.11768 0.05400
N 	N 	0.41841 0.94537 0.24162 -0.19800
H 	H 	0.34625 0.03242 0.23189 0.05300
N 	N 	0.32857 0.01670 0.11371 -0.19400
H 	H 	0.43127 0.92525 0.21774 0.08400
H 	H 	0.41948 0.94788 0.29199 0.09000
H 	H 	0.31549 0.03643 0.13816 0.08900
H 	H 	0.32193 0.00840 0.06743 0.09200
H 	H 	0.40404 0.04312 0.98384 0.08600
H 	H 	0.40271 0.02737 0.06456 0.09100
H 	H 	0.34518 0.89306 0.87523 0.09600
H 	H 	0.33578 0.88111 0.95657 0.08700
C 	C 	0.31694 0.07989 0.64475 0.11600
C 	C 	0.33558 0.09288 0.59415 -0.08900
C 	C 	0.35100 0.06839 0.55232 0.01500
C 	C 	0.34491 0.03285 0.55441 0.11700
C 	C 	0.32452 0.02005 0.60178 -0.08600
C 	C 	0.31296 0.04390 0.65010 0.01400
O 	O 	0.29319 0.09990 0.67406 -0.18900
C 	C 	0.27430 0.07267 0.69628 0.05200
C 	C 	0.28614 0.03935 0.68289 -0.06200
O 	O 	0.35177 0.01417 0.49677 -0.20600
C 	C 	0.36264 0.04205 0.45990 0.09800
C 	C 	0.36094 0.07459 0.49185 -0.08800
H 	H 	0.33604 0.12083 0.58480 0.06800
H 	H 	0.31640 0.99301 0.59871 0.07300
H 	H 	0.27187 0.01600 0.67707 0.05700
H 	H 	0.37265 0.09837 0.47684 0.05600
C 	C 	0.24144 0.91361 0.71984 0.11200
C 	C 	0.22061 0.89431 0.68169 -0.08700
C 	C 	0.19096 0.90850 0.67427 0.00600
C 	C 	0.18198 0.93996 0.70478 0.12300
C 	C 	0.20284 0.95901 0.74338 -0.09200
C 	C 	0.23199 0.94412 0.75273 0.02400
O 	O 	0.27341 0.91044 0.71161 -0.20700
C 	C 	0.28199 0.94241 0.74191 0.09900
C 	C 	0.25759 0.96227 0.76726 -0.09200
O 	O 	0.15018 0.94336 0.71405 -0.18700
C 	C 	0.14101 0.91026 0.68947 0.04400
C 	C 	0.16516 0.88939 0.66522 -0.07200
H 	H 	0.22748 0.86964 0.65742 0.06000
H 	H 	0.19605 0.98370 0.76767 0.06300
H 	H 	0.25860 0.98979 0.78304 0.06600
H 	H 	0.16453 0.86080 0.66131 0.04300
C 	C 	0.26637 0.45123 0.58792 -0.05300
C 	C 	0.25603 0.42278 0.62546 0.10200
C 	C 	0.25453 0.42701 0.69320 -0.08600
C 	C 	0.26329 0.45905 0.72321 -0.00500
C 	C 	0.27966 0.48413 0.68654 0.07000
C 	C 	0.28097 0.48004 0.61867 -0.05300
N 	N 	0.24630 0.39207 0.59673 -0.20000
H 	H 	0.24401 0.40662 0.72208 0.05600
C 	C 	0.24877 0.46934 0.78675 -0.00500
N 	N 	0.29280 0.51283 0.71591 -0.19400
H 	H 	0.29083 0.50083 0.58979 0.04700
C 	C 	0.26307 0.45974 0.84359 -0.08700
C 	C 	0.24771 0.46445 0.90414 0.10100
C 	C 	0.21682 0.47699 0.90708 -0.05000
C 	C 	0.20346 0.48896 0.85082 -0.05300
C 	C 	0.21910 0.48531 0.79061 0.07200
H 	H 	0.28614 0.44847 0.84068 0.05400
N 	N 	0.26294 0.45789 0.95913 -0.19900
H 	H 	0.18014 0.49957 0.85333 0.05000
N 	N 	0.20521 0.49640 0.73659 -0.19400
H 	H 	0.28521 0.44709 0.95648 0.08600
H 	H 	0.25359 0.46526 0.00476 0.09300
H 	H 	0.18310 0.50757 0.73994 0.08400
H 	H 	0.21619 0.49448 0.69099 0.09200
H 	H 	0.30377 0.53205 0.68838 0.08400
H 	H 	0.29313 0.51568 0.76636 0.08700
H 	H 	0.24869 0.38748 0.54675 0.09500
H 	H 	0.23731 0.37182 0.62471 0.08800
C 	C 	0.11271 0.94228 0.04385 0.07600
C 	C 	0.13241 0.97175 0.04433 -0.08700
C 	C 	0.12330 0.00189 0.08119 0.01100
C 	C 	0.09431 0.00383 0.11232 0.06800
C 	C 	0.07356 0.97540 0.10733 -0.09000
C 	C 	0.08378 0.94407 0.07528 0.01200
N 	N 	0.11188 0.91929 0.99282 -0.14900
C 	C 	0.08255 0.90711 0.98960 -0.01000
C 	C 	0.06453 0.92163 0.04058 -0.05600
N 	N 	0.08467 0.03763 0.11697 -0.15500
C 	C 	0.10678 0.05715 0.08765 -0.01600
C 	C 	0.13112 0.03592 0.06481 -0.04800
H 	H 	0.15250 0.97245 0.01180 0.05500
H 	H 	0.04947 0.97873 0.12226 0.04800
H 	H 	0.03967 0.92510 0.03880 0.03100
H 	H 	0.14644 0.04228 0.02442 0.04500
H 	H 	0.12717 0.92014 0.95271 0.09000
H 	H 	0.06151 0.04528 0.12293 0.08300
C 	C 	0.14969 0.35810 0.11628 0.11000
C 	C 	0.12580 0.33473 0.13287 -0.08600
C 	C 	0.13042 0.29860 0.11861 0.01200
C 	C 	0.15504 0.28680 0.07963 0.11800
C 	C 	0.17755 0.31071 0.05813 -0.09100
C 	C 	0.17559 0.34582 0.08193 0.01800
O 	O 	0.14489 0.39418 0.11242 -0.20400
C 	C 	0.17017 0.40223 0.07184 0.09800
C 	C 	0.18849 0.37360 0.05316 -0.08800
O 	O 	0.14969 0.25473 0.04714 -0.18500
C 	C 	0.11950 0.24873 0.07012 0.05400
C 	C 	0.10778 0.27459 0.11249 -0.05700
H 	H 	0.10393 0.34451 0.15317 0.06500
H 	H 	0.19495 0.30268 0.02180 0.07000
H 	H 	0.20330 0.37197 0.00994 0.06300
H 	H 	0.08339 0.27959 0.12240 0.05800
C 	C 	0.09530 0.24373 0.61668 0.07800
C 	C 	0.11320 0.23521 0.66955 -0.08400
C 	C 	0.10636 0.20406 0.70174 0.01300
C 	C 	0.08423 0.18051 0.67821 0.06100
C 	C 	0.06691 0.18858 0.62437 -0.08200
C 	C 	0.07186 0.22117 0.59571 -0.00400
N 	N 	0.10712 0.26159 0.56649 -0.14600
C 	C 	0.09196 0.25031 0.51336 -0.04600
C 	C 	0.06958 0.22564 0.52992 -0.05200
N 	N 	0.09236 0.14718 0.69036 -0.14200
C 	C 	0.11950 0.14905 0.72106 -0.03400
C 	C 	0.12871 0.18393 0.72972 -0.02800
H 	H 	0.13397 0.25008 0.68030 0.05700
H 	H 	0.05283 0.16849 0.60091 0.02500
H 	H 	0.06144 0.20517 0.49671 -0.06200
H 	H 	0.15261 0.19209 0.73441 0.05200
H 	H 	0.12942 0.27234 0.56508 0.09200
H 	H 	0.08501 0.12503 0.66338 -0.01500
C 	C 	0.24951 0.37930 0.27949 0.11600
C 	C 	0.22839 0.36267 0.23826 -0.08800
C 	C 	0.22590 0.32578 0.23812 0.01400
C 	C 	0.24186 0.30609 0.28120 0.11600
C 	C 	0.26211 0.32288 0.32427 -0.09000
C 	C 	0.26667 0.35947 0.32041 0.01800
O 	O 	0.24531 0.41410 0.30109 -0.20400
C 	C 	0.25982 0.41295 0.36046 0.09800
C 	C 	0.27325 0.38076 0.37162 -0.08600
O 	O 	0.22738 0.27449 0.29601 -0.18600
C 	C 	0.20069 0.27792 0.26028 0.05700
C 	C 	0.19968 0.30818 0.22557 -0.06300
H 	H 	0.21215 0.37824 0.21221 0.07200
H 	H 	0.27154 0.30855 0.36367 0.06800
H 	H 	0.27775 0.37136 0.41943 0.06000
H 	H 	0.17840 0.32085 0.21296 0.06400
C 	C 	0.46829 0.04128 0.36877 -0.05100
C 	C 	0.49048 0.01483 0.35248 0.10300
C 	C 	0.52130 0.02457 0.33992 -0.08700
C 	C 	0.53091 0.05961 0.35088 -0.00200
C 	C 	0.50967 0.08462 0.37857 0.07100
C 	C 	0.47819 0.07570 0.38432 -0.05100
N 	N 	0.48243 0.98013 0.35021 -0.19900
H 	H 	0.53775 0.00498 0.32088 0.05500
C 	C 	0.56122 0.07104 0.32314 -0.00500
N 	N 	0.51941 0.11695 0.40010 -0.19400
H 	H 	0.46140 0.09566 0.40013 0.04800
C 	C 	0.56162 0.09550 0.27364 -0.08400
C 	C 	0.58912 0.10269 0.23896 0.10200
C 	C 	0.61602 0.08295 0.25038 -0.04900
C 	C 	0.61637 0.06082 0.30338 -0.05000
C 	C 	0.58925 0.05498 0.34052 0.07800
H 	H 	0.54038 0.10865 0.26154 0.05500
N 	N 	0.58974 0.12898 0.19580 -0.19900
H 	H 	0.63744 0.04694 0.31412 0.05800
N 	N 	0.59020 0.03376 0.39217 -0.19300
H 	H 	0.56944 0.14234 0.18532 0.08500
H 	H 	0.61058 0.13773 0.17517 0.09200
H 	H 	0.61085 0.02144 0.40377 0.09400
H 	H 	0.57079 0.03006 0.42231 0.09400
H 	H 	0.50347 0.13578 0.41828 0.08200
H 	H 	0.54296 0.12296 0.40223 0.09200
H 	H 	0.46073 0.97187 0.36727 0.08600
H 	H 	0.49859 0.96084 0.33508 0.08300
C 	C 	0.52086 0.05130 0.54368 -0.05100
C 	C 	0.51499 0.01471 0.54671 0.10200
C 	C 	0.48465 0.00291 0.55899 -0.08400
C 	C 	0.45998 0.02702 0.56433 -0.00300
C 	C 	0.46540 0.06265 0.54876 0.07300
C 	C 	0.49595 0.07469 0.54047 -0.05100
N 	N 	0.53850 0.99096 0.53974 -0.20000
H 	H 	0.48051 0.97525 0.56783 0.05400
C 	C 	0.43065 0.01644 0.59816 -0.00300
N 	N 	0.44147 0.08537 0.54257 -0.19400
H 	H 	0.50037 0.10263 0.53520 0.04700
C 	C 	0.42149 0.03444 0.65615 -0.08600
C 	C 	0.39688 0.02190 0.69462 0.10400
C 	C 	0.38389 0.98846 0.67933 -0.05000
C 	C 	0.39182 0.97128 0.61990 -0.05000
C 	C 	0.41405 0.98596 0.57761 0.07600
H 	H 	0.43350 0.05833 0.67132 0.05600
N 	N 	0.38516 0.04250 0.74467 -0.19900
H 	H 	0.38059 0.94662 0.60634 0.05300
N 	N 	0.41877 0.97133 0.51711 -0.19200
H 	H 	0.39578 0.06642 0.75754 0.08700
H 	H 	0.36430 0.03620 0.76829 0.09600
H 	H 	0.40693 0.94845 0.50274 0.09000
H 	H 	0.43307 0.98344 0.48287 0.09200
H 	H 	0.44561 0.11177 0.53214 0.08200
H 	H 	0.41861 0.07673 0.54587 0.09300
H 	H 	0.56103 0.99898 0.52796 0.08900
H 	H 	0.53420 0.96398 0.54392 0.08400
C 	C 	0.59910 0.07170 0.70673 -0.04900
C 	C 	0.58552 0.09094 0.76023 0.10000
C 	C 	0.59654 0.08603 0.82248 -0.08500
C 	C 	0.62130 0.06306 0.83185 -0.00600
C 	C 	0.63408 0.04289 0.77865 0.07300
C 	C 	0.62315 0.04788 0.71640 -0.05200
N 	N 	0.56251 0.11473 0.75204 -0.19900
H 	H 	0.58655 0.10108 0.86352 0.05500
C 	C 	0.63518 0.06263 0.89645 -0.00300
N 	N 	0.65656 0.01854 0.78705 -0.19400
H 	H 	0.63318 0.03286 0.67534 0.05100
C 	C 	0.62722 0.03544 0.93811 -0.08700
C 	C 	0.63750 0.03614 0.00194 0.10300
C 	C 	0.65388 0.06597 0.02579 -0.05100
C 	C 	0.66234 0.09281 0.98386 -0.04900
C 	C 	0.65402 0.09086 0.91872 0.07300
H 	H 	0.61326 0.01352 0.92057 0.05400
N 	N 	0.63211 0.00790 0.03954 -0.19900
H 	H 	0.67560 0.11520 0.00188 0.04400
N 	N 	0.66451 0.11579 0.87768 -0.19300
H 	H 	0.61920 0.98643 0.02217 0.08600
H 	H 	0.64178 0.00628 0.08508 0.09700
H 	H 	0.67784 0.13696 0.89489 0.08400
H 	H 	0.66074 0.11363 0.82802 0.09300
H 	H 	0.66683 0.00493 0.74714 0.08300
H 	H 	0.66325 0.01190 0.83312 0.08900
H 	H 	0.55481 0.12039 0.70612 0.09200
H 	H 	0.55239 0.12842 0.79201 0.08500
C 	C 	0.97301 0.10752 0.28668 0.07200
C 	C 	0.97804 0.14135 0.26304 -0.09000
C 	C 	0.00539 0.14721 0.22672 0.00300
C 	C 	0.02880 0.12196 0.22238 0.08500
C 	C 	0.02508 0.08956 0.25253 -0.08900
C 	C 	0.99600 0.08182 0.28019 0.01500
N 	N 	0.95444 0.10140 0.33851 -0.14900
C 	C 	0.96585 0.07252 0.36589 -0.01600
C 	C 	0.99119 0.05916 0.33046 -0.04600
N 	N 	0.05651 0.13772 0.21543 -0.14800
C 	C 	0.05128 0.17288 0.21627 -0.02600
C 	C 	0.01969 0.17974 0.22279 -0.04900
H 	H 	0.96244 0.16291 0.27651 0.03700
H 	H 	0.04457 0.07208 0.25766 0.05800
H 	H 	0.00835 0.04167 0.34879 0.02400
H 	H 	0.00998 0.20408 0.24363 0.00700
H 	H 	0.94007 0.12015 0.36237 0.08200
H 	H 	0.07732 0.12638 0.22862 0.10000
C 	C 	0.99198 0.06009 0.74579 0.06300
C 	C 	0.02019 0.07648 0.76014 -0.09100
C 	C 	0.04302 0.05662 0.78919 -0.06500
C 	C 	0.03993 0.02023 0.79320 0.04600
C 	C 	0.01256 0.00332 0.77421 -0.09600
C 	C 	0.98794 0.02415 0.75463 0.00900
N 	N 	0.97416 0.07070 0.69774 -0.14800
C 	C 	0.95900 0.04187 0.67502 -0.00900
C 	C 	0.96677 0.01259 0.70967 -0.05000
N 	N 	0.06785 0.00461 0.78577 -0.15500
C 	C 	0.08885 0.03053 0.77639 -0.03600
C 	C 	0.07425 0.06316 0.78040 -0.10100
H 	H 	0.02556 0.10236 0.74217 0.04200
H 	H 	0.01181 0.97493 0.76755 0.05900
H 	H 	0.96598 0.98577 0.68991 0.02900
H 	H 	0.08331 0.08631 0.75739 0.01500
H 	H 	0.97901 0.09279 0.67023 0.07800
H 	H 	0.07100 0.97856 0.76852 0.08500
C 	C 	0.78079 0.05054 0.37023 0.11600
C 	C 	0.76869 0.08056 0.34254 -0.09500
C 	C 	0.76093 0.07838 0.27712 0.02000
C 	C 	0.76436 0.04733 0.24060 0.11100
C 	C 	0.77754 0.01768 0.26775 -0.08600
C 	C 	0.78425 0.01958 0.33380 0.01200
O 	O 	0.79942 0.05276 0.42384 -0.18900
C 	C 	0.81511 0.02068 0.41481 0.05300
C 	C 	0.80616 0.00067 0.36140 -0.06100
O 	O 	0.74404 0.04409 0.18991 -0.20800
C 	C 	0.72713 0.07518 0.20139 0.09400
C 	C 	0.73737 0.09601 0.25252 -0.09300
H 	H 	0.76667 0.10527 0.37013 0.06900
H 	H 	0.78076 0.99333 0.23931 0.06900
H 	H 	0.82044 0.98084 0.33606 0.06200
H 	H 	0.72311 0.11509 0.27995 0.06100
C 	C 	0.87339 0.98093 0.83482 0.03000
C 	C 	0.89139 0.96208 0.87731 -0.13800
C 	C 	0.91130 0.93600 0.85026 -0.01400
C 	C 	0.91760 0.93373 0.78373 0.07100
C 	C 	0.90294 0.95643 0.74202 -0.09000
C 	C 	0.87878 0.97763 0.76811 0.00800
N 	N 	0.86061 0.01253 0.85068 -0.15300
C 	C 	0.85841 0.02977 0.79487 -0.00900
C 	C 	0.86906 0.00880 0.74240 -0.04000
N 	N 	0.94611 0.92037 0.77158 -0.15200
C 	C 	0.95793 0.91411 0.82983 -0.01300
C 	C 	0.93714 0.92340 0.87996 -0.05100
H 	H 	0.89171 0.96934 0.92841 0.04000
H 	H 	0.91130 0.95917 0.69266 0.06100
H 	H 	0.87642 0.01849 0.69571 0.05900
H 	H 	0.94352 0.93027 0.92914 0.03900
H 	H 	0.86029 0.02463 0.89696 0.06700
H 	H 	0.95926 0.92382 0.72908 0.08800
C 	C 	0.91695 0.15762 0.83535 0.06500
C 	C 	0.93706 0.13345 0.86221 -0.08500
C 	C 	0.96826 0.13364 0.84168 0.01900
C 	C 	0.97925 0.15790 0.79758 0.07000
C 	C 	0.95891 0.18115 0.76874 -0.07900
C 	C 	0.92769 0.18085 0.78922 0.00500
N 	N 	0.88669 0.15100 0.82774 -0.15700
C 	C 	0.87808 0.16939 0.77634 -0.05300
C 	C 	0.90299 0.18803 0.75053 -0.02900
N 	N 	0.00895 0.16610 0.80926 -0.14700
C 	C 	0.01715 0.14704 0.86021 -0.04200
C 	C 	0.99246 0.12651 0.88140 -0.06900
H 	H 	0.92868 0.11507 0.89767 0.04000
H 	H 	0.96726 0.19948 0.73317 0.04700
H 	H 	0.90518 0.19568 0.70057 0.04300
H 	H 	0.98947 0.11765 0.93040 0.01600
H 	H 	0.87557 0.12811 0.84301 -0.00600
H 	H 	0.01953 0.18979 0.79652 0.08500
C 	C 	0.71142 0.15658 0.49569 0.11500
C 	C 	0.68045 0.16760 0.49626 -0.09200
C 	C 	0.65816 0.14455 0.47017 0.01800
C 	C 	0.66582 0.11044 0.45003 0.11500
C 	C 	0.69671 0.09915 0.45098 -0.08800
C 	C 	0.71938 0.12337 0.47123 0.00900
O 	O 	0.73222 0.17059 0.53988 -0.19100
C 	C 	0.75285 0.14230 0.54122 0.05600
C 	C 	0.74550 0.11421 0.50024 -0.06300
O 	O 	0.64151 0.08669 0.45627 -0.21000
C 	C 	0.61918 0.10890 0.48607 0.09800
C 	C 	0.62858 0.14364 0.49209 -0.08900
H 	H 	0.67349 0.19176 0.52228 0.06600
H 	H 	0.70239 0.07150 0.44246 0.06800
H 	H 	0.75260 0.08719 0.50687 0.07100
H 	H 	0.61884 0.16242 0.52792 0.05700
C 	C 	0.03357 0.57257 0.44962 -0.04900
C 	C 	0.03944 0.54032 0.41475 0.10100
C 	C 	0.06885 0.52476 0.41665 -0.08700
C 	C 	0.09180 0.53974 0.45557 -0.00500
C 	C 	0.08530 0.57080 0.49361 0.06900
C 	C 	0.05623 0.58698 0.49001 -0.05300
N 	N 	0.01674 0.52370 0.38106 -0.19900
H 	H 	0.07371 0.50054 0.38872 0.05600
C 	C 	0.12253 0.52255 0.45627 -0.00500
N 	N 	0.10684 0.58529 0.53334 -0.19400
H 	H 	0.05156 0.61144 0.51735 0.04800
C 	C 	0.14605 0.53373 0.41353 -0.08500
C 	C 	0.17605 0.51966 0.41556 0.10100
C 	C 	0.18213 0.49275 0.45937 -0.04800
C 	C 	0.15844 0.48123 0.50141 -0.05300
C 	C 	0.12869 0.49594 0.50053 0.07000
H 	H 	0.14121 0.55419 0.37985 0.05400
N 	N 	0.19898 0.53281 0.37685 -0.19900
H 	H 	0.16317 0.46060 0.53486 0.05000
N 	N 	0.10626 0.48452 0.54239 -0.19400
H 	H 	0.19402 0.55187 0.34329 0.08500
H 	H 	0.22203 0.52530 0.38117 0.09500
H 	H 	0.11111 0.46494 0.57503 0.08300
H 	H 	0.08387 0.49483 0.54307 0.08700
H 	H 	0.10187 0.60837 0.56084 0.08100
H 	H 	0.12855 0.57375 0.53785 0.08700
H 	H 	0.99382 0.53236 0.38471 0.09400
H 	H 	0.02162 0.50071 0.35321 0.08400
C 	C 	0.99347 0.62507 0.04095 -0.04700
C 	C 	0.02173 0.63907 0.01692 0.09600
C 	C 	0.04917 0.61981 0.02274 -0.08600
C 	C 	0.04888 0.58759 0.05405 -0.00700
C 	C 	0.02132 0.57598 0.08523 0.07300
C 	C 	0.99371 0.59461 0.07756 -0.05200
N 	N 	0.02279 0.67133 0.99013 -0.19700
H 	H 	0.07064 0.62942 0.00134 0.05200
C 	C 	0.07615 0.56411 0.04628 -0.00600
N 	N 	0.02114 0.54676 0.12164 -0.19300
H 	H 	0.97221 0.58477 0.09844 0.05400
C 	C 	0.09973 0.56693 0.09143 -0.08700
C 	C 	0.12544 0.54423 0.08664 0.10100
C 	C 	0.12755 0.51856 0.03526 -0.04900
C 	C 	0.10424 0.51617 0.98961 -0.05100
C 	C 	0.07852 0.53869 0.99447 0.07200
H 	H 	0.09789 0.58658 0.13079 0.05500
N 	N 	0.14792 0.54729 0.13127 -0.19900
H 	H 	0.10609 0.49657 0.95014 0.04900
N 	N 	0.05623 0.53578 0.94932 -0.19400
H 	H 	0.14606 0.56622 0.16920 0.08500
H 	H 	0.16746 0.53107 0.12878 0.09400
H 	H 	0.05813 0.51674 0.91158 0.08300
H 	H 	0.03697 0.55240 0.95079 0.08900
H 	H 	0.00052 0.53787 0.14313 0.08800
H 	H 	0.04152 0.53322 0.13052 0.09100
H 	H 	0.00344 0.68786 0.99148 0.08400
H 	H 	0.04358 0.68100 0.97067 0.07600
C 	C 	0.92011 0.64973 0.87281 -0.05100
C 	C 	0.92799 0.62016 0.83200 0.10200
C 	C 	0.92985 0.62388 0.76477 -0.08600
C 	C 	0.92164 0.65575 0.73746 -0.00500
C 	C 	0.90915 0.68354 0.77776 0.07000
C 	C 	0.90926 0.68061 0.84547 -0.05500
N 	N 	0.93328 0.58810 0.85710 -0.19900
H 	H 	0.93785 0.60194 0.73355 0.05500
C 	C 	0.92735 0.65985 0.66700 -0.00600
N 	N 	0.89759 0.71313 0.75196 -0.19400
H 	H 	0.90203 0.70285 0.87677 0.05000
C 	C 	0.90847 0.64127 0.62342 -0.08600
C 	C 	0.91890 0.63370 0.55938 0.10000
C 	C 	0.94847 0.64562 0.53866 -0.05000
C 	C 	0.96517 0.66855 0.57935 -0.05200
C 	C 	0.95503 0.67565 0.64366 0.07200
H 	H 	0.88660 0.63053 0.64064 0.05400
N 	N 	0.90080 0.61428 0.51878 -0.20000
H 	H 	0.98718 0.67903 0.56228 0.04800
N 	N 	0.97233 0.69681 0.68304 -0.19400
H 	H 	0.87939 0.60467 0.53511 0.08500
H 	H 	0.90739 0.60928 0.47034 0.09300
H 	H 	0.99300 0.70781 0.66564 0.08500
H 	H 	0.96518 0.70322 0.73064 0.09100
H 	H 	0.88843 0.73349 0.78205 0.08800
H 	H 	0.89682 0.71581 0.70192 0.08900
H 	H 	0.92865 0.58358 0.90601 0.09200
H 	H 	0.94053 0.56677 0.82700 0.08400
C 	C 	0.89380 0.03656 0.10134 0.06800
C 	C 	0.90572 0.06841 0.07832 -0.08200
C 	C 	0.93381 0.08068 0.10313 0.00500
C 	C 	0.95194 0.05902 0.13969 0.07900
C 	C 	0.94165 0.02527 0.15605 -0.08600
C 	C 	0.91125 0.01580 0.14104 0.01500
N 	N 	0.87344 0.01640 0.06857 -0.15000
C 	C 	0.87784 0.98298 0.08709 -0.00600
C 	C 	0.90108 0.98141 0.13185 -0.04300
N 	N 	0.98203 0.06713 0.13129 -0.15000
C 	C 	0.98332 0.09424 0.09060 -0.00100
C 	C 	0.95389 0.10322 0.07141 -0.04800
H 	H 	0.89457 0.08190 0.03990 0.03300
H 	H 	0.95726 0.00644 0.17610 0.05300
H 	H 	0.91475 0.95813 0.14009 0.04700
H 	H 	0.94908 0.11545 0.02617 0.03400
H 	H 	0.86355 0.02316 0.02510 0.07400
H 	H 	0.00024 0.04955 0.13765 0.08300
C 	C 	0.73669 0.00562 0.02281 0.08300
C 	C 	0.74211 0.04162 0.01310 -0.08100
C 	C 	0.73045 0.05629 0.95740 0.00600
C 	C 	0.71782 0.03498 0.90876 0.07700
C 	C 	0.71561 0.99836 0.91531 -0.08900
C 	C 	0.72325 0.98446 0.97475 0.00700
N 	N 	0.75523 0.98605 0.05860 -0.14900
C 	C 	0.75418 0.95275 0.03325 -0.01100
C 	C 	0.73460 0.95072 0.98115 -0.04600
N 	N 	0.72205 0.04982 0.85098 -0.14800
C 	C 	0.73746 0.08037 0.86210 -0.02100
C 	C 	0.74313 0.08530 0.92770 -0.03800
H 	H 	0.75674 0.05694 0.04523 0.05200
H 	H 	0.71067 0.98109 0.87399 0.04500
H 	H 	0.73656 0.93110 0.94180 0.03200
H 	H 	0.76220 0.10069 0.94666 -0.01600
H 	H 	0.77381 0.99627 0.08465 0.09300
H 	H 	0.72249 0.03569 0.80657 0.09000
C 	C 	0.90959 0.79440 0.86464 0.06800
C 	C 	0.93816 0.77735 0.85363 -0.10300
C 	C 	0.95503 0.78433 0.79651 -0.00600
C 	C 	0.94588 0.81093 0.75636 0.07100
C 	C 	0.91897 0.83074 0.77151 -0.09000
C 	C 	0.89995 0.82034 0.82360 0.00300
N 	N 	0.89680 0.79987 0.92425 -0.14900
C 	C 	0.87919 0.82920 0.92183 -0.02900
C 	C 	0.88058 0.84286 0.86033 -0.04900
N 	N 	0.97077 0.82468 0.72579 -0.14900
C 	C 	0.99586 0.80758 0.74666 -0.04100
C 	C 	0.98694 0.78225 0.79054 -0.06000
H 	H 	0.94787 0.76123 0.89029 0.03400
H 	H 	0.91412 0.85461 0.74630 0.05400
H 	H 	0.87633 0.87021 0.84997 -0.01700
H 	H 	0.00163 0.77290 0.82798 -0.02100
H 	H 	0.90590 0.79034 0.96661 0.08400
H 	H 	0.97150 0.85036 0.70897 0.08600
C 	C 	0.81251 0.73314 0.17590 0.11800
C 	C 	0.81682 0.70241 0.13692 -0.09200
C 	C 	0.84432 0.68325 0.14190 0.02100
C 	C 	0.86786 0.69540 0.18072 0.11200
C 	C 	0.86387 0.72657 0.21852 -0.08600
C 	C 	0.83545 0.74444 0.21710 0.00900
O 	O 	0.79359 0.76015 0.15661 -0.18900
C 	C 	0.80870 0.78902 0.18513 0.05300
C 	C 	0.83288 0.77977 0.22334 -0.06000
O 	O 	0.89710 0.68413 0.15944 -0.20600
C 	C 	0.88910 0.66565 0.10281 0.10000
C 	C 	0.85778 0.66455 0.09230 -0.09000
H 	H 	0.80084 0.69594 0.09882 0.06800
H 	H 	0.88342 0.73859 0.24248 0.06400
H 	H 	0.85201 0.79715 0.23515 0.06200
H 	H 	0.84765 0.66010 0.04531 0.06200
C 	C 	0.05966 0.00215 0.38311 0.03300
C 	C 	0.06701 0.02818 0.43018 -0.08400
C 	C 	0.08829 0.05436 0.41271 -0.02100
C 	C 	0.10179 0.05464 0.35086 0.08700
C 	C 	0.09366 0.02919 0.30332 -0.09900
C 	C 	0.07167 0.00359 0.32011 0.02300
N 	N 	0.05263 0.96864 0.39736 -0.16200
C 	C 	0.05972 0.94861 0.34352 -0.01300
C 	C 	0.07159 0.96941 0.29457 -0.04900
N 	N 	0.11025 0.08768 0.33658 -0.15400
C 	C 	0.10160 0.10871 0.38812 -0.00100
C 	C 	0.08760 0.08898 0.43638 -0.07800
H 	H 	0.05693 0.02772 0.47875 -0.02000
H 	H 	0.10382 0.02959 0.25483 0.06100
H 	H 	0.08702 0.95982 0.25561 0.04600
H 	H 	0.07077 0.09935 0.47199 -0.00300
H 	H 	0.05188 0.95913 0.44429 0.02400
H 	H 	0.11371 0.09645 0.28953 0.08900
C 	C 	0.98635 0.82694 0.53056 0.07900
C 	C 	0.95542 0.83634 0.54468 -0.08400
C 	C 	0.94942 0.86840 0.57864 0.00900
C 	C 	0.97330 0.89195 0.59241 0.05700
C 	C 	0.00408 0.88329 0.57548 -0.08300
C 	C 	0.01036 0.84977 0.54731 0.00900
N 	N 	0.99469 0.80703 0.47770 -0.14500
C 	C 	0.02357 0.81716 0.45975 -0.04500
C 	C 	0.03417 0.84337 0.50228 -0.05200
N 	N 	0.96276 0.92532 0.59242 -0.14400
C 	C 	0.93251 0.92350 0.57807 -0.04600
C 	C 	0.92331 0.88859 0.56986 -0.03400
H 	H 	0.93670 0.82113 0.52382 0.05400
H 	H 	0.02202 0.90326 0.57776 0.02600
H 	H 	0.05121 0.86301 0.48895 -0.05300
H 	H 	0.90419 0.88012 0.54024 0.04200
H 	H 	0.97895 0.79530 0.44599 0.09100
H 	H 	0.97678 0.94737 0.58497 -0.02200
C 	C 	0.16186 0.94016 0.47162 0.05600
C 	C 	0.17824 0.91116 0.44454 -0.10300
C 	C 	0.17795 0.90527 0.37705 0.00300
C 	C 	0.16316 0.92892 0.33780 0.07700
C 	C 	0.14997 0.96018 0.36501 -0.08300
C 	C 	0.14789 0.96407 0.43260 0.01600
N 	N 	0.16836 0.95552 0.52922 -0.14900
C 	C 	0.15861 0.98930 0.52705 -0.01500
C 	C 	0.14607 0.99588 0.46740 -0.06200
N 	N 	0.15027 0.91122 0.28771 -0.14800
C 	C 	0.15531 0.87644 0.29575 -0.01800
C 	C 	0.17378 0.87210 0.34895 -0.06000
H 	H 	0.18933 0.89262 0.47519 0.03900
H 	H 	0.13959 0.97931 0.33467 0.05800
H 	H 	0.14592 0.02149 0.44581 0.04300
H 	H 	0.17433 0.84808 0.37590 0.01100
H 	H 	0.18595 0.94713 0.55872 0.09400
H 	H 	0.13165 0.92092 0.26249 0.09200
C 	C 	0.98579 0.65753 0.21280 0.11800
C 	C 	0.00917 0.67065 0.17194 -0.08400
C 	C 	0.00666 0.70528 0.15087 0.01000
C 	C 	0.98330 0.72744 0.17454 0.11800
C 	C 	0.96076 0.71486 0.21818 -0.08300
C 	C 	0.96179 0.67927 0.23465 0.03000
O 	O 	0.99158 0.63005 0.25336 -0.20500
C 	C 	0.97043 0.63859 0.30375 0.09800
C 	C 	0.95213 0.66745 0.29249 -0.08500
O 	O 	0.99140 0.76290 0.17531 -0.19400
C 	C 	0.02249 0.75990 0.15563 0.03800
C 	C 	0.03132 0.72583 0.13828 -0.06800
H 	H 	0.03020 0.65559 0.16237 0.06600
H 	H 	0.94497 0.73308 0.24361 0.06900
H 	H 	0.94080 0.68380 0.33020 0.06300
H 	H 	0.05506 0.71656 0.13817 0.05300
