data_crystal

_cell_length_a 44.48852
_cell_length_b 43.15166
_cell_length_c 25.02382
_cell_angle_alpha 94.21332
_cell_angle_beta  93.44371
_cell_angle_gamma 90.13792

_symmetry_space_group_name_	'P 1'
_symmetry_space_group_name_H-M	'P 1'

loop_
_symmetry_equiv_pos_as_xyz
  x,y,z

loop_
_atom_site_label
_atom_site_type_symbol
_atom_site_fract_x
_atom_site_fract_y
_atom_site_fract_z
_atom_site_charge
C 	C 	0.05690 0.65555 0.88155 0.13800
N 	N 	0.06960 0.65277 0.83334 -0.14600
C 	C 	0.06294 0.62796 0.79799 0.12800
N 	N 	0.04459 0.60510 0.81202 -0.14500
C 	C 	0.03284 0.60707 0.86099 0.12800
N 	N 	0.03817 0.63279 0.89494 -0.13400
C 	C 	0.04533 0.62442 0.31164 0.13900
N 	N 	0.05444 0.62978 0.36437 -0.13500
C 	C 	0.04855 0.60856 0.39986 0.12900
N 	N 	0.03393 0.58173 0.38246 -0.14400
C 	C 	0.02543 0.57588 0.32963 0.12800
N 	N 	0.03127 0.59724 0.29427 -0.14600
Cd	Cd	0.85259 0.97385 0.86209 1.16700
C 	C 	0.79465 0.00488 0.79724 0.29600
O 	O 	0.78286 0.00395 0.74820 -0.30300
O 	O 	0.81000 0.98056 0.80927 -0.54400
O 	O 	0.81793 0.93223 0.36166 -0.45100
C 	C 	0.80977 0.95856 0.38522 0.29700
O 	O 	0.81349 0.96102 0.43741 -0.36400
Cd	Cd	0.86941 0.10443 0.23418 1.23900
Cd	Cd	0.89311 0.06753 0.35223 1.16900
O 	O 	0.84536 0.15506 0.24919 -0.32500
O 	O 	0.85662 0.13726 0.16839 -0.34500
C 	C 	0.84512 0.15958 0.19854 0.29600
O 	O 	0.89520 0.06210 0.20391 -0.37800
O 	O 	0.88827 0.03500 0.27795 -0.43800
C 	C 	0.90125 0.03785 0.23252 0.27200
C 	C 	0.92385 0.12434 0.29250 0.29100
O 	O 	0.84624 0.08394 0.31938 -0.45300
O 	O 	0.92142 0.13575 0.24561 -0.29600
O 	O 	0.90003 0.11012 0.30596 -0.54200
C 	C 	0.82701 0.06814 0.28648 0.29800
O 	O 	0.82704 0.07408 0.23619 -0.35900
Cd	Cd	0.86031 0.14383 0.98546 1.24300
Cd	Cd	0.86458 0.10079 0.85982 1.16600
O 	O 	0.82630 0.18863 0.98832 -0.32600
O 	O 	0.85232 0.17568 0.06015 -0.34200
C 	C 	0.83466 0.19590 0.03826 0.29700
O 	O 	0.88738 0.10192 0.00537 -0.37600
O 	O 	0.90276 0.09175 0.91995 -0.45100
C 	C 	0.89951 0.08298 0.96869 0.28300
C 	C 	0.81320 0.10192 0.94810 0.30100
O 	O 	0.87408 0.15267 0.88678 -0.45200
O 	O 	0.81033 0.11028 0.99889 -0.28900
O 	O 	0.83360 0.11656 0.92515 -0.55000
C 	C 	0.89954 0.16469 0.90692 0.29400
O 	O 	0.90308 0.16739 0.95917 -0.36300
C 	C 	0.85732 0.39314 0.90484 0.13800
N 	N 	0.84348 0.39202 0.85476 -0.14600
C 	C 	0.85101 0.41272 0.81937 0.12800
N 	N 	0.87211 0.43492 0.83452 -0.14400
C 	C 	0.88547 0.43664 0.88484 0.12900
N 	N 	0.87850 0.41540 0.91968 -0.13500
C 	C 	0.84173 0.37015 0.33455 0.13900
N 	N 	0.83580 0.37187 0.38738 -0.14500
C 	C 	0.84646 0.39611 0.42087 0.12900
N 	N 	0.86242 0.41915 0.40126 -0.14400
C 	C 	0.86768 0.41803 0.34823 0.12800
N 	N 	0.85753 0.39338 0.31512 -0.13400
Cd	Cd	0.03959 0.10929 0.74591 1.24100
Cd	Cd	0.00773 0.09784 0.87063 1.16700
O 	O 	0.08799 0.13701 0.74917 -0.32200
O 	O 	0.06839 0.11392 0.67421 -0.34500
C 	C 	0.09124 0.12902 0.69883 0.29900
O 	O 	0.99991 0.07723 0.72379 -0.37500
O 	O 	0.97464 0.09135 0.79913 -0.44000
C 	C 	0.97798 0.07252 0.75601 0.28300
C 	C 	0.06343 0.06207 0.81013 0.30600
O 	O 	0.02071 0.14226 0.82961 -0.45300
O 	O 	0.07244 0.05888 0.76142 -0.28700
O 	O 	0.04814 0.08704 0.82118 -0.53600
C 	C 	0.00357 0.15731 0.79635 0.29500
O 	O 	0.00824 0.15175 0.74558 -0.35700
Cd	Cd	0.06127 0.07171 0.46813 1.24100
Cd	Cd	0.02460 0.06493 0.33804 1.16500
O 	O 	0.10522 0.10653 0.48120 -0.32600
O 	O 	0.08937 0.08160 0.54733 -0.34700
C 	C 	0.11024 0.09902 0.53020 0.29400
O 	O 	0.01919 0.04445 0.47858 -0.38000
O 	O 	0.01250 0.02662 0.38987 -0.44700
C 	C 	0.00232 0.03050 0.43837 0.28100
C 	C 	0.02295 0.11992 0.43454 0.30100
O 	O 	0.02850 0.12361 0.48662 -0.29200
O 	O 	0.03797 0.09835 0.40980 -0.54900
C 	C 	0.29029 0.09822 0.83123 0.13700
N 	N 	0.28626 0.10014 0.88490 -0.14500
C 	C 	0.30796 0.08987 0.91973 0.13000
N 	N 	0.33358 0.07746 0.90091 -0.14300
C 	C 	0.33753 0.07509 0.84741 0.12900
N 	N 	0.31624 0.08617 0.81279 -0.13400
C 	C 	0.30297 0.07502 0.40267 0.14000
N 	N 	0.32699 0.05723 0.41628 -0.14400
C 	C 	0.34822 0.05046 0.38044 0.12900
N 	N 	0.34539 0.06153 0.33092 -0.14400
C 	C 	0.32160 0.07964 0.31738 0.12800
N 	N 	0.30061 0.08660 0.35355 -0.13600
C 	C 	0.31622 0.08791 0.26125 -0.04600
C 	C 	0.33960 0.10004 0.23270 0.10000
C 	C 	0.33530 0.10199 0.17695 -0.08400
C 	C 	0.30737 0.09437 0.15010 -0.00700
C 	C 	0.28308 0.08527 0.17963 0.07300
C 	C 	0.28793 0.08147 0.23472 -0.05500
N 	N 	0.36569 0.11082 0.25872 -0.19800
H 	H 	0.35364 0.10975 0.15448 0.05500
C 	C 	0.30454 0.09353 0.09062 -0.00300
N 	N 	0.25510 0.08028 0.15543 -0.19500
H 	H 	0.26976 0.07292 0.25679 0.06100
C 	C 	0.30505 0.06471 0.06092 -0.08700
C 	C 	0.30324 0.06297 0.00460 0.10600
C 	C 	0.30311 0.09068 0.97762 -0.05400
C 	C 	0.30157 0.11948 0.00715 -0.04800
C 	C 	0.30183 0.12119 0.06351 0.06900
H 	H 	0.30634 0.04353 0.08174 0.05700
N 	N 	0.30084 0.03472 0.97669 -0.20000
H 	H 	0.30080 0.14066 0.98633 0.04800
N 	N 	0.29933 0.14931 0.09119 -0.19400
H 	H 	0.30252 0.01433 0.99673 0.08600
H 	H 	0.29557 0.03276 0.93536 0.09100
H 	H 	0.29799 0.16964 0.07090 0.08600
H 	H 	0.29794 0.15126 0.13279 0.09000
H 	H 	0.23752 0.07265 0.17716 0.08800
H 	H 	0.25027 0.08488 0.11545 0.09000
H 	H 	0.36798 0.11371 0.30056 0.09400
H 	H 	0.38339 0.11827 0.23707 0.08600
C 	C 	0.22412 0.07620 0.45116 -0.10400
C 	C 	0.22944 0.08648 0.50538 -0.00900
C 	C 	0.25911 0.09252 0.52632 0.13600
C 	C 	0.28319 0.08836 0.49277 -0.06600
C 	C 	0.27775 0.07852 0.43825 -0.06100
C 	C 	0.24807 0.07185 0.41781 0.16400
C 	C 	0.20355 0.09160 0.53919 0.00900
O 	O 	0.26471 0.10162 0.57967 -0.27600
H 	H 	0.30601 0.09312 0.50900 0.06500
O 	O 	0.24241 0.06130 0.36507 -0.28600
H 	H 	0.20129 0.07155 0.43485 0.07000
C 	C 	0.19067 0.12131 0.54466 0.12100
C 	C 	0.15980 0.12426 0.55192 -0.03300
C 	C 	0.14162 0.09765 0.55219 -0.11500
C 	C 	0.15558 0.06850 0.55609 0.18700
C 	C 	0.18669 0.06583 0.55134 -0.11600
O 	O 	0.20775 0.14729 0.53933 -0.26900
H 	H 	0.14952 0.14700 0.55169 0.06200
O 	O 	0.13859 0.04227 0.55998 -0.29400
H 	H 	0.19693 0.04305 0.55035 0.07500
H 	H 	0.24356 0.03833 0.36464 0.14700
H 	H 	0.20585 0.15085 0.50056 0.14700
H 	H 	0.13388 0.03378 0.52247 0.15100
H 	H 	0.26443 0.12466 0.58183 0.16000
C 	C 	0.16652 0.09319 0.69407 -0.11400
C 	C 	0.18431 0.12020 0.69791 0.00900
C 	C 	0.17128 0.14833 0.68357 0.12900
C 	C 	0.13991 0.15037 0.67536 -0.03700
C 	C 	0.12170 0.12432 0.68066 -0.11000
C 	C 	0.13528 0.09513 0.68523 0.20000
C 	C 	0.21427 0.12003 0.72690 -0.00300
O 	O 	0.18909 0.17367 0.67738 -0.26800
H 	H 	0.12969 0.17264 0.66878 0.05700
O 	O 	0.11784 0.06913 0.68808 -0.28400
H 	H 	0.17660 0.07108 0.70241 0.07700
C 	C 	0.21847 0.13500 0.77882 0.13200
C 	C 	0.24457 0.12968 0.81073 -0.06700
C 	C 	0.26579 0.10779 0.79302 -0.05800
C 	C 	0.26195 0.09339 0.74035 0.16400
C 	C 	0.23665 0.10021 0.70729 -0.09900
O 	O 	0.19655 0.15396 0.79920 -0.28300
H 	H 	0.24762 0.14159 0.85036 0.06500
O 	O 	0.28243 0.07218 0.72153 -0.27300
H 	H 	0.23344 0.08843 0.66758 0.08400
H 	H 	0.11386 0.06067 0.65045 0.17700
H 	H 	0.18313 0.14010 0.81709 0.15000
H 	H 	0.27499 0.05171 0.73098 0.14700
H 	H 	0.18939 0.18630 0.71215 0.16000
C 	C 	0.83986 0.40818 0.76243 -0.05000
C 	C 	0.83140 0.43385 0.73283 0.10100
C 	C 	0.82937 0.43027 0.67648 -0.08600
C 	C 	0.83342 0.40106 0.64953 -0.00600
C 	C 	0.83789 0.37467 0.67939 0.07100
C 	C 	0.84160 0.37855 0.73562 -0.05300
N 	N 	0.82450 0.46163 0.75824 -0.19900
H 	H 	0.82477 0.45028 0.65355 0.05500
C 	C 	0.83626 0.39894 0.59062 -0.00500
N 	N 	0.83875 0.34564 0.65435 -0.19400
H 	H 	0.84696 0.35863 0.75836 0.05000
C 	C 	0.86505 0.39655 0.57086 -0.08600
C 	C 	0.86876 0.39399 0.51541 0.10200
C 	C 	0.84323 0.39589 0.47914 -0.05000
C 	C 	0.81440 0.39818 0.49884 -0.05200
C 	C 	0.81059 0.39930 0.55431 0.07000
H 	H 	0.88462 0.39591 0.59877 0.05600
N 	N 	0.89669 0.38880 0.49733 -0.19900
H 	H 	0.79486 0.39914 0.47094 0.04900
N 	N 	0.78231 0.40039 0.57229 -0.19400
H 	H 	0.91552 0.38871 0.52438 0.08700
H 	H 	0.89986 0.38335 0.45674 0.09600
H 	H 	0.76354 0.40110 0.54521 0.08500
H 	H 	0.77861 0.39999 0.61302 0.08800
H 	H 	0.84304 0.32637 0.67655 0.08500
H 	H 	0.83415 0.34179 0.61298 0.09000
H 	H 	0.82218 0.46392 0.79963 0.09200
H 	H 	0.81966 0.48087 0.73624 0.08600
C 	C 	0.92359 0.17288 0.87213 -0.10100
C 	C 	0.92191 0.16133 0.81810 -0.03100
C 	C 	0.94740 0.16154 0.78822 0.03300
C 	C 	0.97533 0.17129 0.81378 -0.09500
C 	C 	0.97567 0.18784 0.86418 -0.04000
C 	C 	0.94967 0.18944 0.89301 0.03500
S 	S 	0.94368 0.15106 0.71879 -0.03900
S 	S 	0.94921 0.21467 0.95159 -0.03400
H 	H 	0.93913 0.24327 0.93843 0.04200
H 	H 	0.93745 0.17699 0.69176 0.04100
H 	H 	0.90106 0.15132 0.79977 0.00300
H 	H 	0.99653 0.19805 0.88211 0.04000
C 	C 	0.81359 0.27912 0.04434 -0.11700
C 	C 	0.84217 0.29199 0.03936 0.00600
C 	C 	0.86787 0.27487 0.05377 0.12600
C 	C 	0.86497 0.24343 0.06312 -0.03800
C 	C 	0.83655 0.22894 0.05728 -0.11000
C 	C 	0.81068 0.24749 0.05262 0.18900
C 	C 	0.84507 0.31818 0.00520 -0.00700
O 	O 	0.89595 0.28822 0.05509 -0.27300
H 	H 	0.88505 0.22966 0.06933 0.06900
O 	O 	0.78257 0.23439 0.05302 -0.29800
H 	H 	0.79360 0.29271 0.03628 0.06900
C 	C 	0.84725 0.31225 0.94954 0.12700
C 	C 	0.85123 0.33681 0.91719 -0.06600
C 	C 	0.85260 0.36758 0.93971 -0.06000
C 	C 	0.84970 0.37363 0.99536 0.15900
C 	C 	0.84619 0.34888 0.02794 -0.09600
O 	O 	0.84660 0.28227 0.92699 -0.28000
H 	H 	0.85363 0.33189 0.87456 0.06200
O 	O 	0.85058 0.40357 0.01800 -0.27900
H 	H 	0.84437 0.35357 0.07077 0.07600
H 	H 	0.77640 0.22858 0.01483 0.15800
H 	H 	0.82506 0.27766 0.91697 0.14500
H 	H 	0.82937 0.41064 0.01623 0.14500
H 	H 	0.90307 0.28378 0.01850 0.15300
C 	C 	0.94984 0.13185 0.33101 -0.11500
C 	C 	0.94548 0.13572 0.38636 -0.04300
C 	C 	0.97036 0.13939 0.42354 0.03200
C 	C 	0.99959 0.13720 0.40526 -0.10400
C 	C 	0.00343 0.14072 0.35091 -0.05600
C 	C 	0.97916 0.13574 0.31321 0.01000
S 	S 	0.96477 0.15058 0.49121 -0.03500
S 	S 	0.98652 0.13079 0.24470 -0.05200
H 	H 	0.99605 0.10102 0.23329 -0.02000
H 	H 	0.96866 0.12588 0.52218 0.04300
H 	H 	0.92289 0.13591 0.40039 0.01700
H 	H 	0.02601 0.14236 0.33720 0.02200
C 	C 	0.83025 0.31287 0.21249 -0.09800
C 	C 	0.83306 0.28460 0.23645 -0.00400
C 	C 	0.83543 0.28439 0.29270 0.13400
C 	C 	0.83693 0.31238 0.32458 -0.06800
C 	C 	0.83559 0.34088 0.30082 -0.05900
C 	C 	0.83094 0.34099 0.24444 0.16200
C 	C 	0.83518 0.25522 0.20304 0.00800
O 	O 	0.83790 0.25678 0.31650 -0.27600
H 	H 	0.84021 0.31188 0.36777 0.06600
O 	O 	0.82763 0.36848 0.22051 -0.28100
H 	H 	0.82784 0.31308 0.16915 0.07200
C 	C 	0.80948 0.23633 0.19172 0.12600
C 	C 	0.81274 0.20428 0.18035 -0.03100
C 	C 	0.84153 0.19107 0.18107 -0.10000
C 	C 	0.86693 0.21071 0.18333 0.19700
C 	C 	0.86366 0.24278 0.19410 -0.10800
O 	O 	0.78133 0.24854 0.19749 -0.27800
H 	H 	0.79294 0.18941 0.17645 0.06300
O 	O 	0.89511 0.19841 0.17822 -0.28300
H 	H 	0.88349 0.25756 0.19994 0.08000
H 	H 	0.80568 0.37261 0.21891 0.14700
H 	H 	0.77490 0.25558 0.16176 0.15800
H 	H 	0.90298 0.19525 0.21535 0.16300
H 	H 	0.81693 0.25054 0.32224 0.15300
H 	H 	0.48012 0.03052 0.39739 0.05500
C 	C 	0.42915 0.00026 0.41450 -0.00300
C 	C 	0.40954 0.98999 0.37077 -0.08800
C 	C 	0.38160 0.00435 0.36182 0.10400
C 	C 	0.37417 0.03088 0.39504 -0.05100
C 	C 	0.39299 0.04006 0.44047 -0.05200
C 	C 	0.42016 0.02452 0.45121 0.07000
N 	N 	0.36174 0.99211 0.32237 -0.19900
H 	H 	0.38677 0.05971 0.46699 0.05100
N 	N 	0.43735 0.03282 0.49683 -0.19400
H 	H 	0.36795 0.97346 0.29638 0.08700
H 	H 	0.33950 0.99974 0.31906 0.09500
H 	H 	0.43106 0.05142 0.52285 0.08600
H 	H 	0.45646 0.02024 0.50789 0.09000
H 	H 	0.53227 0.03578 0.38152 0.08500
C 	C 	0.36302 0.05729 0.82675 -0.04700
C 	C 	0.36739 0.02607 0.83882 0.10300
C 	C 	0.39559 0.01239 0.83250 -0.08400
C 	C 	0.41869 0.02866 0.81082 -0.00500
C 	C 	0.41272 0.05807 0.79099 0.07100
C 	C 	0.38506 0.07250 0.80036 -0.05200
N 	N 	0.34444 0.00902 0.85543 -0.19800
H 	H 	0.39972 0.98919 0.84512 0.05500
C 	C 	0.44945 0.01568 0.81315 -0.00400
N 	N 	0.43360 0.07275 0.76417 -0.19400
H 	H 	0.38111 0.09595 0.78880 0.05300
C 	C 	0.47097 0.02589 0.85483 0.07100
N 	N 	0.46574 0.05108 0.88896 -0.19400
H 	H 	0.48184 0.05840 0.91944 0.08500
H 	H 	0.44572 0.06352 0.88604 0.09100
H 	H 	0.42940 0.09490 0.75123 0.08600
H 	H 	0.45378 0.06200 0.75458 0.09000
H 	H 	0.32236 0.01722 0.85384 0.09000
H 	H 	0.34822 0.98652 0.86711 0.08500
C 	C 	0.80370 0.98599 0.35434 -0.10000
C 	C 	0.80969 0.98453 0.29976 -0.03400
C 	C 	0.81228 0.01180 0.27358 0.03300
C 	C 	0.81126 0.04083 0.30341 -0.09400
C 	C 	0.80054 0.04215 0.35506 -0.03700
C 	C 	0.79555 0.01478 0.37989 0.03800
S 	S 	0.81370 0.00922 0.20318 -0.04200
S 	S 	0.77632 0.01667 0.43955 -0.03000
H 	H 	0.74600 0.01340 0.42718 0.04000
H 	H 	0.84280 0.01101 0.18884 0.04100
H 	H 	0.81290 0.96226 0.27795 -0.00000
H 	H 	0.79695 0.06447 0.37648 0.04000
C 	C 	0.92084 0.00830 0.44895 -0.04300
C 	C 	0.94698 0.02666 0.45106 0.02400
C 	C 	0.97549 0.01250 0.45016 -0.08300
S 	S 	0.94364 0.06724 0.45433 -0.21600
H 	H 	0.94014 0.07771 0.50657 0.05800
H 	H 	0.89893 0.01928 0.44721 0.00100
C 	C 	0.90305 0.01015 0.73496 -0.08600
C 	C 	0.93249 0.99828 0.73559 -0.04000
C 	C 	0.95746 0.01836 0.73760 0.03400
C 	C 	0.95312 0.05071 0.73768 -0.08500
C 	C 	0.92369 0.06224 0.73137 -0.04000
C 	C 	0.89871 0.04226 0.73066 0.02900
S 	S 	0.99397 0.00287 0.74456 -0.18800
S 	S 	0.86227 0.05812 0.72896 -0.18000
H 	H 	0.00496 0.99705 0.69486 0.05700
H 	H 	0.93605 0.97361 0.73850 0.01600
H 	H 	0.92017 0.08704 0.73077 0.03100
C 	C 	0.78867 0.03059 0.83760 -0.11900
C 	C 	0.78868 0.02471 0.89217 -0.04700
C 	C 	0.78954 0.04953 0.93169 0.02900
C 	C 	0.79257 0.08002 0.91656 -0.10600
C 	C 	0.78533 0.08587 0.86303 -0.05200
C 	C 	0.78467 0.06152 0.82299 0.02000
S 	S 	0.78497 0.04241 0.99901 -0.04700
S 	S 	0.78052 0.07050 0.75537 -0.07300
H 	H 	0.75058 0.06961 0.73882 0.05000
H 	H 	0.75496 0.04328 0.00850 0.04500
H 	H 	0.78863 0.00100 0.90382 0.01200
H 	H 	0.78432 0.10966 0.85180 0.03000
O 	O 	0.73086 0.97911 0.63855 -0.28000
H 	H 	0.73581 0.99068 0.67371 0.15800
C 	C 	0.00566 0.54897 0.31239 -0.05200
C 	C 	0.01040 0.51994 0.33428 0.10100
C 	C 	0.98678 0.49815 0.33097 -0.08400
C 	C 	0.95966 0.50370 0.30179 -0.00500
C 	C 	0.95674 0.53069 0.27307 0.07000
C 	C 	0.97948 0.55349 0.27975 -0.05100
N 	N 	0.03773 0.51256 0.35702 -0.19900
H 	H 	0.98950 0.47682 0.35109 0.05600
C 	C 	0.93363 0.48270 0.30581 -0.00500
N 	N 	0.93229 0.53477 0.23906 -0.19400
H 	H 	0.97630 0.57520 0.26096 0.05200
C 	C 	0.90940 0.49334 0.33538 -0.08500
C 	C 	0.88576 0.47317 0.34448 0.10200
C 	C 	0.88792 0.44117 0.32820 -0.04700
C 	C 	0.91139 0.43086 0.29638 -0.05200
C 	C 	0.93381 0.45157 0.28368 0.07300
H 	H 	0.90879 0.51747 0.35081 0.05600
N 	N 	0.86066 0.48480 0.36689 -0.19800
H 	H 	0.91256 0.40654 0.28229 0.05700
N 	N 	0.95523 0.44153 0.24999 -0.19400
H 	H 	0.85991 0.50810 0.38143 0.08700
H 	H 	0.84105 0.47145 0.36683 0.09500
H 	H 	0.95583 0.41824 0.23535 0.09000
H 	H 	0.97069 0.45691 0.23633 0.09100
H 	H 	0.92976 0.55528 0.21952 0.08600
H 	H 	0.91623 0.51718 0.23001 0.09100
H 	H 	0.05667 0.52645 0.35361 0.09400
H 	H 	0.04066 0.49174 0.37549 0.08600
C 	C 	0.91002 0.45919 0.89910 -0.04800
C 	C 	0.90474 0.48768 0.92872 0.10200
C 	C 	0.92622 0.51172 0.93037 -0.08600
C 	C 	0.95257 0.50776 0.90261 -0.00500
C 	C 	0.95908 0.47830 0.87736 0.07200
C 	C 	0.93768 0.45428 0.87593 -0.05200
N 	N 	0.87899 0.49228 0.95482 -0.20000
H 	H 	0.92177 0.53402 0.95118 0.05600
C 	C 	0.97125 0.53535 0.89478 -0.00500
N 	N 	0.98552 0.47314 0.85362 -0.19300
H 	H 	0.94201 0.43209 0.85461 0.05100
C 	C 	0.99601 0.54283 0.93080 -0.08400
C 	C 	0.01676 0.56590 0.92029 0.10100
C 	C 	0.01148 0.58303 0.87442 -0.04800
C 	C 	0.98585 0.57657 0.83996 -0.05100
C 	C 	0.96574 0.55279 0.84945 0.07300
H 	H 	0.99999 0.52957 0.96568 0.05600
N 	N 	0.04210 0.57062 0.95318 -0.19800
H 	H 	0.98168 0.58996 0.80527 0.05200
N 	N 	0.94130 0.54673 0.81482 -0.19400
H 	H 	0.04522 0.55861 0.98784 0.08800
H 	H 	0.05945 0.58521 0.94376 0.09800
H 	H 	0.93767 0.55948 0.78110 0.08600
H 	H 	0.92553 0.52965 0.82113 0.09100
H 	H 	0.98979 0.45154 0.83389 0.08600
H 	H 	0.00232 0.49017 0.85541 0.08800
H 	H 	0.86307 0.47456 0.95592 0.09700
H 	H 	0.87494 0.51366 0.97547 0.08700
C 	C 	0.07123 0.62850 0.74162 -0.05000
C 	C 	0.07994 0.60103 0.71218 0.10100
C 	C 	0.07931 0.60016 0.65589 -0.08600
C 	C 	0.07250 0.62692 0.62904 -0.00600
C 	C 	0.06787 0.65541 0.65905 0.07100
C 	C 	0.06668 0.65582 0.71505 -0.05200
N 	N 	0.08974 0.57586 0.73773 -0.19900
H 	H 	0.08404 0.57861 0.63293 0.05500
C 	C 	0.06686 0.62410 0.56985 -0.00400
N 	N 	0.06445 0.68235 0.63438 -0.19400
H 	H 	0.06115 0.67722 0.73771 0.05200
C 	C 	0.03704 0.62353 0.54822 -0.08500
C 	C 	0.03067 0.62057 0.49248 0.10400
C 	C 	0.05459 0.61625 0.45787 -0.04700
C 	C 	0.08445 0.61742 0.47934 -0.05200
C 	C 	0.09089 0.62173 0.53510 0.07100
H 	H 	0.01872 0.62590 0.57491 0.05600
N 	N 	0.00167 0.62260 0.47246 -0.20000
H 	H 	0.10274 0.61465 0.45265 0.05000
N 	N 	0.12005 0.62383 0.55485 -0.19400
H 	H 	0.98406 0.62462 0.49831 0.08900
H 	H 	0.99640 0.62360 0.43140 0.09800
H 	H 	0.13761 0.62150 0.52895 0.08600
H 	H 	0.12561 0.62843 0.59579 0.08900
H 	H 	0.06002 0.70312 0.65660 0.08700
H 	H 	0.06722 0.68315 0.59336 0.09200
H 	H 	0.09425 0.57719 0.77928 0.09300
H 	H 	0.09471 0.55516 0.71575 0.08600
C 	C 	0.94834 0.99924 0.98303 -0.08200
C 	C 	0.91684 0.99815 0.97627 -0.04500
C 	C 	0.90016 0.02564 0.97733 0.03400
C 	C 	0.91500 0.05463 0.98493 -0.09200
C 	C 	0.94613 0.05560 0.99793 -0.03400
C 	C 	0.96278 0.02798 0.99794 0.01800
S 	S 	0.86080 0.02345 0.96796 -0.23500
S 	S 	0.00154 0.02973 0.01619 -0.10400
H 	H 	0.84920 0.02022 0.01673 0.06400
H 	H 	0.90544 0.97599 0.96704 0.00600
H 	H 	0.95758 0.07781 0.00582 0.02100
S 	S 	0.06901 0.07865 0.93459 -0.18000
H 	H 	0.09894 0.08586 0.94444 0.06200
C 	C 	0.05781 0.71457 0.00212 -0.09400
C 	C 	0.05982 0.74245 0.97705 -0.00700
C 	C 	0.06302 0.74166 0.92142 0.13600
C 	C 	0.06310 0.71322 0.89090 -0.06700
C 	C 	0.05988 0.68521 0.91538 -0.05800
C 	C 	0.05827 0.68595 0.97170 0.16300
C 	C 	0.05554 0.77247 0.00768 0.01000
O 	O 	0.06593 0.76879 0.89675 -0.27800
H 	H 	0.06472 0.71303 0.84784 0.06500
O 	O 	0.05666 0.65887 0.99690 -0.28300
H 	H 	0.05547 0.71507 0.04503 0.07700
C 	C 	0.02651 0.78512 0.00979 0.12100
O 	O 	0.00170 0.76701 0.99398 -0.27900
H 	H 	0.07786 0.65332 0.00622 0.15100
H 	H 	0.99542 0.75823 0.02711 0.15600
C 	C 	0.91624 0.01004 0.20773 -0.07800
S 	S 	0.95938 0.04795 0.17061 -0.09100
H 	H 	0.95110 0.05161 0.11786 0.05400
H 	H 	0.88179 0.97814 0.22759 0.01800
C 	C 	0.03490 0.70290 0.25550 -0.10200
C 	C 	0.04526 0.69717 0.20388 -0.00800
C 	C 	0.05614 0.66758 0.18783 0.13400
C 	C 	0.05675 0.64400 0.22363 -0.06600
C 	C 	0.04633 0.64977 0.27533 -0.06100
C 	C 	0.03497 0.67930 0.29085 0.16300
C 	C 	0.04600 0.72287 0.16817 0.01000
O 	O 	0.06678 0.66184 0.13775 -0.28100
H 	H 	0.06529 0.62127 0.21119 0.06400
O 	O 	0.02393 0.68513 0.34062 -0.28100
H 	H 	0.02669 0.72574 0.26815 0.07100
C 	C 	0.01880 0.73593 0.14925 0.11300
C 	C 	0.01788 0.76743 0.13918 -0.04100
C 	C 	0.04395 0.78583 0.14864 -0.11300
C 	C 	0.07192 0.77116 0.15633 0.19100
C 	C 	0.07289 0.73959 0.16589 -0.11400
O 	O 	0.99284 0.71845 0.14369 -0.27400
H 	H 	0.99640 0.77819 0.12989 0.06100
H 	H 	0.09424 0.72906 0.17697 0.08000
H 	H 	0.00221 0.67968 0.33584 0.14500
H 	H 	0.98330 0.72190 0.17845 0.14600
H 	H 	0.04903 0.65453 0.11427 0.15700
Cd	Cd	0.01508 0.87275 0.21330 1.24100
Cd	Cd	0.99834 0.91419 0.33620 1.17200
O 	O 	0.04573 0.82583 0.22006 -0.32700
O 	O 	0.02432 0.83779 0.14314 -0.35000
C 	C 	0.04087 0.81832 0.16913 0.30000
O 	O 	0.98205 0.90956 0.18882 -0.37500
O 	O 	0.99276 0.94239 0.26412 -0.43700
C 	C 	0.97587 0.93463 0.22008 0.28800
C 	C 	0.96950 0.84946 0.27512 0.30600
O 	O 	0.04350 0.90073 0.29873 -0.45100
O 	O 	0.96794 0.83616 0.22649 -0.30100
O 	O 	0.99227 0.86800 0.28687 -0.53800
C 	C 	0.05813 0.91665 0.26627 0.29400
O 	O 	0.05409 0.90821 0.21521 -0.34900
Cd	Cd	0.01044 0.91552 0.97130 1.24100
Cd	Cd	0.99262 0.95140 0.84998 1.16900
O 	O 	0.04871 0.87470 0.96650 -0.32400
O 	O 	0.02774 0.88800 0.04160 -0.35600
C 	C 	0.04545 0.86885 0.01595 0.30100
O 	O 	0.98182 0.95605 0.99700 -0.37800
O 	O 	0.95916 0.96046 0.91314 -0.44400
C 	C 	0.96571 0.97221 0.96267 0.27900
C 	C 	0.05060 0.95984 0.93625 0.30300
O 	O 	0.98894 0.90045 0.87261 -0.45000
O 	O 	0.05777 0.95501 0.98646 -0.29500
O 	O 	0.02984 0.94200 0.91245 -0.54600
C 	C 	0.96593 0.88779 0.89265 0.29600
O 	O 	0.96757 0.88674 0.94470 -0.35800
Cd	Cd	0.81593 0.95290 0.73389 1.24000
O 	O 	0.76821 0.92435 0.73276 -0.32300
O 	O 	0.78422 0.94181 0.65925 -0.34200
C 	C 	0.76314 0.92737 0.68182 0.29500
O 	O 	0.85474 0.98379 0.71663 -0.37800
O 	O 	0.88302 0.97467 0.79371 -0.44500
C 	C 	0.87832 0.99033 0.75072 0.27500
O 	O 	0.83854 0.92613 0.81846 -0.45400
C 	C 	0.85435 0.90891 0.78564 0.29600
O 	O 	0.84762 0.91093 0.73462 -0.35500
Cd	Cd	0.83863 0.91625 0.45649 1.24100
Cd	Cd	0.86398 0.92141 0.32589 1.17300
O 	O 	0.79576 0.88138 0.46492 -0.32600
O 	O 	0.81702 0.90795 0.53484 -0.35200
C 	C 	0.79427 0.89070 0.51519 0.29900
O 	O 	0.88184 0.94344 0.47030 -0.38000
O 	O 	0.88101 0.96024 0.38526 -0.44300
C 	C 	0.89532 0.95696 0.43223 0.28200
C 	C 	0.87337 0.86736 0.41026 0.30900
O 	O 	0.87240 0.86484 0.46197 -0.29500
O 	O 	0.85647 0.88860 0.39080 -0.54300
C 	C 	0.57570 0.94114 0.82062 0.13800
N 	N 	0.58039 0.93216 0.87143 -0.14500
C 	C 	0.56034 0.93998 0.90891 0.12800
N 	N 	0.53465 0.95493 0.89466 -0.14400
C 	C 	0.52948 0.96320 0.84364 0.12900
N 	N 	0.55047 0.95718 0.80714 -0.13700
C 	C 	0.59240 0.92567 0.39526 0.13600
N 	N 	0.59608 0.92513 0.34162 -0.14600
C 	C 	0.57352 0.93452 0.30771 0.12900
N 	N 	0.54717 0.94441 0.32742 -0.14300
C 	C 	0.54363 0.94581 0.38102 0.12800
N 	N 	0.56603 0.93592 0.41488 -0.13400
O 	O 	0.07362 0.05507 0.36869 -0.45300
C 	C 	0.08373 0.02894 0.38525 0.30000
O 	O 	0.08448 0.02665 0.43702 -0.36800
C 	C 	0.51710 0.96142 0.40261 -0.04500
C 	C 	0.51271 0.99358 0.39785 0.10000
C 	C 	0.48404 0.00628 0.40421 -0.08200
C 	C 	0.46018 0.98775 0.41803 -0.00700
C 	C 	0.46561 0.95649 0.42930 0.07200
C 	C 	0.49397 0.94344 0.42053 -0.05200
N 	N 	0.53593 0.01232 0.38736 -0.19800
N 	N 	0.44378 0.93902 0.44856 -0.19400
H 	H 	0.49772 0.91902 0.42600 0.05200
H 	H 	0.41608 0.97081 0.34354 0.05700
H 	H 	0.44762 0.91567 0.45509 0.08600
H 	H 	0.42328 0.94869 0.45907 0.08900
H 	H 	0.55800 0.00413 0.38727 0.09100
C 	C 	0.45569 0.98983 0.77839 -0.08800
C 	C 	0.48162 0.97205 0.78765 0.10400
C 	C 	0.50287 0.98194 0.83000 -0.04900
C 	C 	0.49782 0.00934 0.86178 -0.05100
H 	H 	0.43928 0.98228 0.74623 0.05600
N 	N 	0.48522 0.94493 0.75739 -0.19900
H 	H 	0.51443 0.01722 0.89341 0.05000
H 	H 	0.47002 0.93856 0.72494 0.08900
H 	H 	0.50214 0.92925 0.76705 0.10100
C 	C 	0.56718 0.93403 0.96567 -0.04900
C 	C 	0.59243 0.94800 0.99556 0.09900
C 	C 	0.59675 0.94359 0.05052 -0.08400
C 	C 	0.57510 0.92793 0.07707 -0.00700
C 	C 	0.55000 0.91378 0.04722 0.07300
C 	C 	0.54669 0.91643 0.99157 -0.05500
N 	N 	0.61176 0.96679 0.97252 -0.19900
H 	H 	0.61607 0.95416 0.07347 0.05500
C 	C 	0.57707 0.92992 0.13660 -0.00400
N 	N 	0.52884 0.89800 0.07171 -0.19400
H 	H 	0.52751 0.90560 0.96861 0.05000
C 	C 	0.56877 0.95766 0.16444 -0.08600
C 	C 	0.57033 0.96057 0.22074 0.10200
C 	C 	0.57773 0.93431 0.24956 -0.05100
C 	C 	0.58709 0.90688 0.22187 -0.05300
C 	C 	0.58750 0.90465 0.16559 0.06900
H 	H 	0.56179 0.97732 0.14219 0.05500
N 	N 	0.56597 0.98883 0.24682 -0.19900
H 	H 	0.59355 0.88703 0.24405 0.05000
N 	N 	0.59758 0.87820 0.13974 -0.19400
H 	H 	0.55877 0.00765 0.22544 0.08600
H 	H 	0.57162 0.99292 0.28783 0.09200
H 	H 	0.60468 0.85947 0.16142 0.08600
H 	H 	0.59897 0.87612 0.09814 0.09000
H 	H 	0.51036 0.88774 0.04930 0.08600
H 	H 	0.53044 0.89569 0.11299 0.09000
H 	H 	0.60707 0.97427 0.93424 0.09400
H 	H 	0.63111 0.97561 0.99425 0.08600
C 	C 	0.92276 0.97581 0.44677 -0.08500
C 	C 	0.97751 0.98012 0.45159 -0.04300
C 	C 	0.95134 0.96176 0.45025 0.02300
S 	S 	0.95466 0.92125 0.45122 -0.17900
H 	H 	0.95484 0.91306 0.50311 0.05900
H 	H 	0.99939 0.96909 0.45159 0.01200
C 	C 	0.64953 0.92411 0.51409 -0.09400
C 	C 	0.67085 0.90351 0.49273 -0.00700
C 	C 	0.66423 0.88716 0.44257 0.12900
C 	C 	0.63727 0.89266 0.41318 -0.06600
C 	C 	0.61734 0.91562 0.43194 -0.05800
C 	C 	0.62326 0.93090 0.48342 0.16100
C 	C 	0.70165 0.90255 0.51867 0.00700
O 	O 	0.68441 0.86629 0.42165 -0.27900
H 	H 	0.63249 0.87999 0.37458 0.06400
O 	O 	0.60381 0.95285 0.50339 -0.27900
H 	H 	0.65414 0.93626 0.55315 0.07900
C 	C 	0.72060 0.92883 0.52041 0.11900
C 	C 	0.75165 0.92574 0.53100 -0.02800
C 	C 	0.76429 0.89619 0.53538 -0.11000
C 	C 	0.74512 0.87071 0.54032 0.19200
C 	C 	0.71382 0.87408 0.53286 -0.10700
O 	O 	0.70898 0.95732 0.50980 -0.26800
H 	H 	0.76620 0.94581 0.52951 0.06700
O 	O 	0.75697 0.84223 0.55024 -0.28900
H 	H 	0.69923 0.85405 0.53435 0.08500
H 	H 	0.61106 0.97290 0.49173 0.14800
H 	H 	0.70999 0.95851 0.47051 0.14200
H 	H 	0.75914 0.83133 0.51438 0.15900
H 	H 	0.69765 0.87858 0.40055 0.14600
H 	H 	0.85095 0.05791 0.67679 0.06100
C 	C 	0.68515 0.95366 0.65769 -0.11200
C 	C 	0.67060 0.92749 0.67432 0.00600
C 	C 	0.68525 0.89866 0.67047 0.12600
C 	C 	0.71606 0.89758 0.66208 -0.03500
C 	C 	0.73218 0.92522 0.65824 -0.10700
C 	C 	0.71609 0.95271 0.65020 0.19500
C 	C 	0.64596 0.93205 0.71082 -0.00700
O 	O 	0.67009 0.87194 0.67915 -0.27500
H 	H 	0.72797 0.87580 0.66455 0.06500
H 	H 	0.67336 0.97558 0.65668 0.07300
C 	C 	0.65265 0.94161 0.76524 0.12700
C 	C 	0.62966 0.94410 0.80088 -0.06500
C 	C 	0.59977 0.93730 0.78274 -0.06200
C 	C 	0.59303 0.92762 0.72823 0.16400
C 	C 	0.61613 0.92524 0.69242 -0.09700
O 	O 	0.68190 0.94740 0.78399 -0.27700
H 	H 	0.63505 0.95165 0.84264 0.06100
O 	O 	0.56394 0.92065 0.70988 -0.28200
H 	H 	0.61091 0.91772 0.65060 0.07900
H 	H 	0.68518 0.96990 0.78053 0.14600
H 	H 	0.56139 0.89817 0.71441 0.14700
H 	H 	0.67304 0.86961 0.71827 0.15200
H 	H 	0.00598 0.02627 0.07008 0.04500
C 	C 	0.93723 0.88254 0.86001 -0.09600
C 	C 	0.93617 0.88876 0.80565 -0.04000
C 	C 	0.90862 0.89347 0.77780 0.03200
C 	C 	0.88174 0.89300 0.80524 -0.09200
C 	C 	0.88255 0.88184 0.85657 -0.04000
C 	C 	0.91010 0.87561 0.88347 0.03800
S 	S 	0.90823 0.89804 0.70835 -0.03200
S 	S 	0.91005 0.85581 0.94257 -0.03400
H 	H 	0.91035 0.82442 0.92952 0.04300
H 	H 	0.90736 0.92892 0.69925 0.03900
H 	H 	0.95687 0.89092 0.78543 0.01400
H 	H 	0.86176 0.87869 0.87606 0.03700
C 	C 	0.06363 0.98518 0.90887 -0.10700
C 	C 	0.06420 0.01547 0.93341 -0.03800
C 	C 	0.06538 0.04109 0.90217 0.02700
C 	C 	0.06562 0.03615 0.84564 -0.12400
C 	C 	0.06903 0.00585 0.82246 -0.02200
C 	C 	0.06893 0.98055 0.85398 -0.00100
S 	S 	0.07561 0.94310 0.82435 -0.04400
H 	H 	0.04889 0.93006 0.80361 -0.01700
H 	H 	0.06287 0.01912 0.97650 0.04500
H 	H 	0.07126 0.00188 0.77960 0.04600
C 	C 	0.02303 0.81703 0.02200 -0.02700
C 	C 	0.04840 0.83659 0.03034 -0.10500
C 	C 	0.07719 0.82330 0.03524 0.19800
C 	C 	0.08065 0.79122 0.02434 -0.10200
H 	H 	0.00069 0.82698 0.01952 0.06100
O 	O 	0.10205 0.84179 0.04837 -0.28200
H 	H 	0.10303 0.78135 0.02488 0.08200
H 	H 	0.10940 0.84732 0.01361 0.15800
H 	H 	0.04508 0.77485 0.88585 0.15300
C 	C 	0.90457 0.98040 0.21517 -0.04600
C 	C 	0.92313 0.95417 0.21241 0.04500
C 	C 	0.95354 0.95729 0.20104 -0.08900
C 	C 	0.96368 0.98581 0.18482 -0.02500
C 	C 	0.94530 0.01225 0.18845 0.02400
S 	S 	0.90866 0.91803 0.22744 -0.23000
H 	H 	0.89760 0.90202 0.18109 0.05300
H 	H 	0.98650 0.98794 0.17272 0.04000
C 	C 	0.94481 0.84682 0.31121 -0.11400
C 	C 	0.91512 0.84401 0.28920 -0.03400
C 	C 	0.89108 0.84591 0.32258 0.01100
C 	C 	0.89664 0.85219 0.37837 -0.11600
C 	C 	0.92617 0.85026 0.40081 -0.02000
C 	C 	0.95036 0.84736 0.36745 0.00700
S 	S 	0.85413 0.83995 0.29426 -0.12100
S 	S 	0.98694 0.84215 0.39627 -0.05000
H 	H 	0.00093 0.87040 0.40734 -0.03800
H 	H 	0.84684 0.80905 0.29348 0.05500
H 	H 	0.91070 0.84122 0.24603 0.04300
H 	H 	0.93046 0.85256 0.44402 0.04600
C 	C 	0.08627 0.00133 0.34733 -0.10400
C 	C 	0.07254 0.00163 0.29535 -0.02500
C 	C 	0.06698 0.97383 0.26415 0.02600
C 	C 	0.07431 0.94535 0.28584 -0.09000
C 	C 	0.09239 0.94550 0.33374 -0.03600
C 	C 	0.09911 0.97347 0.36396 0.04100
S 	S 	0.05117 0.97515 0.19817 -0.05000
S 	S 	0.12554 0.97359 0.41930 -0.04000
H 	H 	0.11102 0.96843 0.46462 0.04100
H 	H 	0.07375 0.97644 0.16350 0.04700
H 	H 	0.06503 0.02335 0.28005 -0.01700
H 	H 	0.10017 0.92375 0.34855 0.04300
O 	O 	0.09816 0.78808 0.15805 -0.28700
H 	H 	0.10250 0.79500 0.19643 0.15900
