data_crystal

_cell_length_a 47.67636
_cell_length_b 73.28813
_cell_length_c 24.04015
_cell_angle_alpha 89.99960
_cell_angle_beta  90.00047
_cell_angle_gamma 91.79732

_symmetry_space_group_name_	'P 1'
_symmetry_space_group_name_H-M	'P 1'

loop_
_symmetry_equiv_pos_as_xyz
  x,y,z

loop_
_atom_site_label
_atom_site_type_symbol
_atom_site_fract_x
_atom_site_fract_y
_atom_site_fract_z
_atom_site_charge
Cu	Cu	0.20864 0.55181 0.20368 0.93700
Cu	Cu	0.17318 0.58926 0.20274 0.89800
Cu	Cu	0.14497 0.55204 0.19315 0.90900
Cu	Cu	0.17062 0.51576 0.21385 0.91700
O 	O 	0.21636 0.53752 0.13343 -0.32800
C 	C 	0.11998 0.58528 0.15133 0.32900
O 	O 	0.17173 0.54017 0.23942 -0.63500
O 	O 	0.17927 0.56585 0.16703 -0.63400
O 	O 	0.19253 0.58582 0.27072 -0.39700
O 	O 	0.20993 0.51033 0.23507 -0.33700
O 	O 	0.11265 0.53918 0.22414 -0.34600
C 	C 	0.10908 0.52126 0.22655 0.33600
C 	C 	0.19616 0.52926 0.10476 0.32400
O 	O 	0.17178 0.52545 0.12830 -0.35900
O 	O 	0.13048 0.51041 0.23315 -0.34000
O 	O 	0.11827 0.56728 0.15388 -0.33900
O 	O 	0.14445 0.59407 0.15008 -0.36900
H 	H 	0.16865 0.54177 0.27984 0.20300
H 	H 	0.18058 0.56660 0.12605 0.20900
Cu	Cu	0.10502 0.80707 0.51694 0.93900
Cu	Cu	0.08348 0.84678 0.55686 0.90000
Cu	Cu	0.06191 0.81234 0.60842 0.90800
Cu	Cu	0.08470 0.77410 0.59205 0.91900
C 	C 	0.13965 0.77629 0.53360 0.32900
O 	O 	0.08161 0.79044 0.46606 -0.32500
C 	C 	0.02669 0.84485 0.59486 0.33600
O 	O 	0.09589 0.79899 0.59904 -0.63200
O 	O 	0.07288 0.82217 0.53408 -0.64000
O 	O 	0.13119 0.82728 0.49510 -0.33800
O 	O 	0.12238 0.84420 0.57185 -0.39400
O 	O 	0.11663 0.76640 0.54389 -0.33200
O 	O 	0.05236 0.80151 0.67966 -0.34200
C 	C 	0.04963 0.78378 0.68879 0.33100
C 	C 	0.05731 0.78316 0.48209 0.32300
O 	O 	0.05156 0.78160 0.53536 -0.35700
O 	O 	0.06757 0.77229 0.66752 -0.33800
O 	O 	0.13813 0.79320 0.51558 -0.32700
C 	C 	0.13940 0.83953 0.53179 0.33800
O 	O 	0.03233 0.82995 0.62348 -0.34800
O 	O 	0.04470 0.85224 0.55918 -0.37000
H 	H 	0.11042 0.80161 0.62762 0.19500
H 	H 	0.05741 0.82153 0.50674 0.20900
Cu	Cu	0.10988 0.30069 0.93825 0.93800
Cu	Cu	0.08682 0.33883 0.98582 0.89300
Cu	Cu	0.06232 0.30432 0.02063 0.90400
Cu	Cu	0.09100 0.26816 0.01840 0.91500
C 	C 	0.14692 0.27215 0.96649 0.33300
O 	O 	0.08778 0.28281 0.88932 -0.32700
C 	C 	0.02763 0.33644 0.01242 0.32700
O 	O 	0.09904 0.29359 0.02094 -0.63500
O 	O 	0.07701 0.31554 0.95105 -0.63900
O 	O 	0.13507 0.32115 0.91368 -0.33100
O 	O 	0.12643 0.33727 0.99212 -0.39700
O 	O 	0.12516 0.26115 0.97674 -0.34100
O 	O 	0.04907 0.29422 0.09107 -0.34000
C 	C 	0.05081 0.27696 0.10588 0.33500
C 	C 	0.06375 0.27510 0.90526 0.32300
O 	O 	0.05797 0.27309 0.95840 -0.36100
O 	O 	0.07281 0.26745 0.09240 -0.34900
O 	O 	0.14380 0.28750 0.93916 -0.32600
C 	C 	0.14171 0.33457 0.94771 0.34200
O 	O 	0.02839 0.31855 0.01936 -0.33600
O 	O 	0.04834 0.34576 0.98784 -0.36700
H 	H 	0.11149 0.29785 0.05156 0.19400
H 	H 	0.06334 0.31615 0.92020 0.21400
Cu	Cu	0.18768 0.03527 0.76768 0.93600
Cu	Cu	0.17014 0.07482 0.71483 0.89900
Cu	Cu	0.12692 0.04376 0.73929 0.91100
Cu	Cu	0.13751 0.00860 0.80332 0.91500
C 	C 	0.19298 0.01060 0.85996 0.33000
O 	O 	0.19037 0.01317 0.71744 -0.33200
C 	C 	0.11798 0.07333 0.65991 0.32900
O 	O 	0.14695 0.03391 0.80228 -0.62900
O 	O 	0.16606 0.04840 0.71130 -0.63400
O 	O 	0.21704 0.05461 0.78248 -0.32800
O 	O 	0.18573 0.07728 0.78669 -0.39300
O 	O 	0.17254 0.00014 0.83912 -0.34200
O 	O 	0.08942 0.03809 0.76746 -0.34000
C 	C 	0.08080 0.02180 0.78494 0.33300
C 	C 	0.16827 0.00591 0.69190 0.32000
O 	O 	0.14309 0.00732 0.71345 -0.35100
O 	O 	0.09696 0.01187 0.81654 -0.34800
O 	O 	0.20447 0.02406 0.83065 -0.32700
C 	C 	0.21065 0.07117 0.79779 0.32900
O 	O 	0.10837 0.05764 0.68055 -0.33300
O 	O 	0.14505 0.07661 0.65357 -0.36900
H 	H 	0.14395 0.04040 0.83780 0.19600
H 	H 	0.16905 0.04387 0.67313 0.20100
C 	C 	0.01432 0.99539 0.74588 0.07000
C 	C 	0.04259 0.00145 0.74713 0.12400
C 	C 	0.05083 0.01652 0.78032 -0.10600
C 	C 	0.03057 0.02594 0.81077 0.13000
C 	C 	0.00209 0.02039 0.80746 0.06900
Br	Br	0.07007 0.98933 0.70254 -0.14900
Br	Br	0.00337 0.97391 0.70378 -0.10800
Br	Br	0.04197 0.04586 0.85902 -0.12500
Br	Br	0.18697 0.09162 0.90501 -0.12500
C 	C 	0.17526 0.26494 0.97089 -0.10400
C 	C 	0.18604 0.25430 0.92753 0.13000
C 	C 	0.21399 0.24875 0.92965 0.06800
C 	C 	0.19237 0.26988 0.01652 0.12600
Br	Br	0.16284 0.24792 0.86433 -0.10700
Br	Br	0.17669 0.28277 0.07856 -0.16400
C 	C 	0.00239 0.87099 0.63750 0.12900
Br	Br	0.03772 0.87957 0.66859 -0.15500
C 	C 	0.16704 0.76724 0.53080 -0.09900
C 	C 	0.18671 0.77222 0.48900 0.13100
C 	C 	0.21471 0.76717 0.49435 0.07000
C 	C 	0.20117 0.74670 0.57012 0.07100
C 	C 	0.17476 0.75474 0.57256 0.12700
Br	Br	0.20883 0.72593 0.61633 -0.10500
Br	Br	0.17473 0.78346 0.42078 -0.11000
Br	Br	0.15085 0.75010 0.63610 -0.15900
C 	C 	0.17217 0.99507 0.64118 -0.10500
C 	C 	0.17003 0.00338 0.58872 0.12200
C 	C 	0.18420 0.99608 0.54294 0.06900
C 	C 	0.19813 0.97950 0.54871 0.02100
C 	C 	0.19572 0.96957 0.59875 0.07000
C 	C 	0.18285 0.97745 0.64521 0.12900
C 	C 	0.21695 0.97327 0.50403 0.02100
C 	C 	0.20580 0.96359 0.45811 0.07100
Br	Br	0.21080 0.94552 0.60386 -0.10300
Br	Br	0.14591 0.02369 0.57877 -0.16200
Br	Br	0.20669 0.94970 0.34535 -0.10900
Br	Br	0.17916 0.96406 0.71384 -0.12800
Br	Br	0.18590 0.00924 0.47350 -0.11400
Br	Br	0.16676 0.95582 0.45765 -0.10000
C 	C 	0.21511 0.01730 0.95235 0.12400
C 	C 	0.20777 0.00453 0.91046 -0.10300
C 	C 	0.21570 0.98620 0.91619 0.12500
Br	Br	0.19718 0.99147 0.11055 -0.11400
Br	Br	0.20137 0.04176 0.94924 -0.14600
Br	Br	0.21340 0.96967 0.85385 -0.11000
C 	C 	0.21687 0.86463 0.48219 0.02100
C 	C 	0.21700 0.84866 0.51473 0.06900
C 	C 	0.19158 0.84106 0.53517 0.13300
C 	C 	0.16618 0.84961 0.52371 -0.11500
C 	C 	0.16654 0.86672 0.49707 0.13200
C 	C 	0.19188 0.87422 0.47612 0.06600
Br	Br	0.19137 0.81877 0.57783 -0.15000
Br	Br	0.19225 0.89720 0.43680 -0.11200
Br	Br	0.13206 0.87941 0.48691 -0.17800
C 	C 	0.01003 0.25137 0.78009 0.02100
C 	C 	0.00291 0.26789 0.80571 0.07000
C 	C 	0.02001 0.27537 0.84817 0.12700
C 	C 	0.04481 0.26670 0.86353 -0.10600
C 	C 	0.05145 0.24990 0.83916 0.12800
C 	C 	0.03415 0.24229 0.79725 0.06900
Br	Br	0.02892 0.26428 0.66108 -0.11000
Br	Br	0.00900 0.29712 0.88649 -0.16100
Br	Br	0.04343 0.21942 0.76315 -0.10700
Br	Br	0.08348 0.23693 0.86515 -0.12900
C 	C 	0.03126 0.26950 0.14804 -0.10600
C 	C 	0.03331 0.27535 0.20376 0.13300
C 	C 	0.01560 0.26737 0.24442 0.06900
C 	C 	0.01121 0.25588 0.13291 0.12500
Br	Br	0.06107 0.29382 0.22469 -0.12800
Br	Br	0.00718 0.24878 0.05594 -0.14900
Br	Br	0.01774 0.27569 0.32048 -0.10800
Br	Br	0.02695 0.22032 0.28344 -0.11100
C 	C 	0.09811 0.08677 0.63963 -0.11100
C 	C 	0.09524 0.10330 0.66873 0.12500
C 	C 	0.07607 0.11614 0.65011 0.06900
C 	C 	0.05914 0.11226 0.60335 0.02100
C 	C 	0.06217 0.09579 0.57392 0.06800
C 	C 	0.08189 0.08314 0.59170 0.13100
C 	C 	0.03742 0.12516 0.58640 0.02000
C 	C 	0.01040 0.12375 0.61001 0.07000
C 	C 	0.02273 0.15056 0.52894 0.12900
C 	C 	0.04377 0.13885 0.54678 0.06900
Br	Br	0.03904 0.09056 0.50969 -0.11300
Br	Br	0.11689 0.10802 0.73533 -0.19500
Br	Br	0.08118 0.14133 0.51658 -0.10900
Br	Br	0.08723 0.06111 0.54966 -0.10900
Br	Br	0.07278 0.13905 0.68879 -0.10600
Br	Br	0.00196 0.10532 0.66538 -0.11100
Br	Br	0.03124 0.16910 0.47414 -0.11200
C 	C 	0.16364 0.34808 0.93182 -0.11800
C 	C 	0.15629 0.36404 0.90338 0.13000
C 	C 	0.17738 0.37583 0.88170 0.06700
C 	C 	0.20583 0.37179 0.88909 0.02200
C 	C 	0.21315 0.35655 0.92107 0.06800
C 	C 	0.19205 0.34451 0.94160 0.13200
Br	Br	0.11728 0.36936 0.89249 -0.19300
Br	Br	0.20200 0.32286 0.98169 -0.12900
Br	Br	0.16739 0.39719 0.84011 -0.10800
C 	C 	0.20235 0.52195 0.04911 -0.10600
C 	C 	0.21017 0.53397 0.00567 0.12700
C 	C 	0.21478 0.49609 0.99120 0.07100
C 	C 	0.20385 0.50292 0.04113 0.12900
Br	Br	0.21621 0.47009 0.97933 -0.10000
Br	Br	0.20397 0.55973 0.01280 -0.16000
Br	Br	0.19263 0.48627 0.09983 -0.16100
Br	Br	0.18818 0.50098 0.84412 -0.10300
Br	Br	0.18766 0.50928 0.36612 -0.17400
C 	C 	0.02389 0.50195 0.24378 0.02100
C 	C 	0.03673 0.51225 0.28678 0.06900
C 	C 	0.06519 0.51772 0.28258 0.13000
C 	C 	0.08048 0.51357 0.23428 -0.10500
C 	C 	0.06794 0.50270 0.19223 0.12500
C 	C 	0.03977 0.49666 0.19738 0.06900
Br	Br	0.08352 0.53033 0.34365 -0.12600
Br	Br	0.02274 0.48128 0.14080 -0.10500
Br	Br	0.01021 0.46536 0.30748 -0.10700
Br	Br	0.08914 0.49664 0.12676 -0.13900
C 	C 	0.03093 0.77731 0.73384 -0.10400
C 	C 	0.03643 0.78247 0.78938 0.13100
C 	C 	0.01801 0.77664 0.83198 0.06900
C 	C 	0.00741 0.76594 0.72126 0.12400
Br	Br	0.06998 0.79666 0.80745 -0.12800
Br	Br	0.02419 0.78484 0.90737 -0.10700
Br	Br	0.01956 0.72977 0.87358 -0.10900
C 	C 	0.02183 0.74553 0.39715 0.07000
C 	C 	0.03901 0.75455 0.43672 0.13000
C 	C 	0.03899 0.77374 0.44108 -0.10600
C 	C 	0.02165 0.78387 0.40594 0.12900
Br	Br	0.06300 0.74066 0.48425 -0.15500
Br	Br	0.03550 0.75123 0.24782 -0.10800
Br	Br	0.02204 0.71929 0.39069 -0.10600
Br	Br	0.02152 0.81009 0.41173 -0.16000
C 	C 	0.09438 0.59553 0.14293 -0.11000
C 	C 	0.08426 0.59861 0.08885 0.13100
C 	C 	0.06138 0.60999 0.08080 0.06800
C 	C 	0.04897 0.61852 0.12681 0.02100
C 	C 	0.05866 0.61503 0.18099 0.07000
C 	C 	0.08109 0.60333 0.18906 0.12400
C 	C 	0.02606 0.63139 0.11816 0.02100
C 	C 	0.03245 0.64999 0.10799 0.06900
C 	C 	0.01071 0.66215 0.09826 0.12800
Br	Br	0.04148 0.62658 0.24398 -0.10900
Br	Br	0.10201 0.58742 0.02592 -0.12000
Br	Br	0.01966 0.68745 0.08256 -0.10600
Br	Br	0.09379 0.59797 0.26332 -0.17500
Br	Br	0.04711 0.61405 0.00689 -0.11000
Br	Br	0.07105 0.65873 0.10715 -0.11100
C 	C 	0.00453 0.75566 0.36200 0.02100
C 	C 	0.00432 0.77482 0.36666 0.07000
C 	C 	0.00143 0.34581 0.02470 -0.10300
Br	Br	0.01510 0.51917 0.35080 -0.10800
Br	Br	0.00784 0.33166 0.13687 -0.13900
C 	C 	0.00087 0.85451 0.60731 -0.10800
C 	C 	0.21969 0.58367 0.27054 0.34000
Br	Br	0.22064 0.35431 0.77429 -0.11100
C 	C 	0.22077 0.26523 0.01707 0.07100
C 	C 	0.22175 0.75362 0.53297 0.02100
C 	C 	0.22221 0.52716 0.95679 0.07200
Br	Br	0.22355 0.49148 0.47112 -0.11000
C 	C 	0.22244 0.09561 0.86761 0.12700
Br	Br	0.22306 0.84168 0.37224 -0.10800
C 	C 	0.22527 0.50823 0.95027 0.02100
C 	C 	0.22611 0.52108 0.26614 0.33100
C 	C 	0.22316 0.95951 0.41279 0.13200
Br	Br	0.22563 0.48738 0.73493 -0.11000
Br	Br	0.22479 0.13080 0.92256 -0.10600
C 	C 	0.22779 0.38244 0.85860 0.02100
C 	C 	0.22790 0.49735 0.85167 0.07000
C 	C 	0.22784 0.50725 0.36064 0.12800
Br	Br	0.22852 0.40620 0.95519 -0.10500
Br	Br	0.22826 0.23310 0.87239 -0.10900
O 	O 	0.23089 0.57282 0.23401 -0.33500
Br	Br	0.23245 0.62230 0.21975 -0.18200
O 	O 	0.23232 0.53795 0.25056 -0.32400
C 	C 	0.22797 0.98041 0.96604 0.07100
C 	C 	0.23160 0.25466 0.97358 0.02200
Br	Br	0.23295 0.72601 0.43512 -0.10400
C 	C 	0.23155 0.08311 0.82715 -0.10800
C 	C 	0.23143 0.01196 0.99790 0.07200
Br	Br	0.23549 0.54375 0.89957 -0.10800
Br	Br	0.23195 0.95470 0.98013 -0.11600
Br	Br	0.23358 0.98509 0.22817 -0.12400
C 	C 	0.23639 0.37662 0.80558 0.06700
C 	C 	0.23781 0.59510 0.30650 -0.11600
Br	Br	0.23683 0.56365 0.37989 -0.14200
C 	C 	0.23661 0.98636 0.10798 0.06800
C 	C 	0.23920 0.39876 0.88141 0.06800
C 	C 	0.24142 0.50120 0.90264 0.02200
C 	C 	0.23684 0.99337 0.00607 0.01700
C 	C 	0.24185 0.87012 0.44898 0.02200
C 	C 	0.24199 0.51306 0.31205 -0.10400
C 	C 	0.24304 0.50037 0.40569 0.07000
C 	C 	0.24008 0.11043 0.88330 0.06800
C 	C 	0.24334 0.49070 0.80654 0.13200
Br	Br	0.24402 0.21993 0.04482 -0.11000
Br	Br	0.24353 0.77941 0.45070 -0.10300
C 	C 	0.24563 0.61294 0.28976 0.13100
Br	Br	0.24465 0.64218 0.46244 -0.10800
Br	Br	0.24505 0.27373 0.07644 -0.10700
C 	C 	0.24544 0.86272 0.39544 0.06600
C 	C 	0.24730 0.58823 0.35760 0.13300
C 	C 	0.24595 0.97751 0.50672 0.06900
C 	C 	0.25048 0.74637 0.53344 0.02100
Br	Br	0.24693 0.03010 0.04832 -0.10900
Br	Br	0.25185 0.83686 0.52913 -0.10400
C 	C 	0.25050 0.98099 0.15651 0.12600
Br	Br	0.25212 0.35199 0.93538 -0.10800
C 	C 	0.25230 0.96354 0.41577 -0.10300
Br	Br	0.25804 0.89267 0.54347 -0.10400
Br	Br	0.99746 0.35217 0.90577 -0.11800
C 	C 	0.25130 0.98741 0.05722 0.02100
C 	C 	0.25610 0.38720 0.77518 0.13000
C 	C 	0.25978 0.88452 0.46734 0.06800
C 	C 	0.25829 0.40962 0.85021 0.13200
Br	Br	0.25885 0.76836 0.63294 -0.10500
C 	C 	0.25955 0.73547 0.48910 0.06900
C 	C 	0.99808 0.24767 0.67926 0.07000
C 	C 	0.26333 0.62384 0.32369 0.06700
C 	C 	0.26014 0.08364 0.81089 0.12500
C 	C 	0.26164 0.25005 0.97329 0.02200
C 	C 	0.26374 0.97200 0.46365 0.12700
Br	Br	0.26115 0.99123 0.56889 -0.11800
C 	C 	0.26447 0.87117 0.35819 0.13100
C 	C 	0.26677 0.40381 0.79717 -0.11600
C 	C 	0.26465 0.59924 0.39202 0.06800
Br	Br	0.26827 0.37910 0.70296 -0.18400
C 	C 	0.27141 0.51191 0.30852 0.13200
C 	C 	0.27253 0.49994 0.40306 0.02100
O 	O 	0.26984 0.94267 0.34791 -0.32800
C 	C 	0.26855 0.11076 0.86769 0.02000
C 	C 	0.27048 0.23436 0.00127 0.06700
C 	C 	0.26925 0.75103 0.57682 0.07000
C 	C 	0.27076 0.95932 0.36860 0.33800
Br	Br	0.26968 0.28330 0.90901 -0.10400
C 	C 	0.27198 0.48700 0.81325 -0.10400
C 	C 	0.27035 0.49828 0.90850 0.07000
C 	C 	0.27309 0.61693 0.37458 0.02200
Br	Br	0.27235 0.43269 0.87936 -0.13900
Br	Br	0.26964 0.86120 0.28482 -0.16000
Br	Br	0.27467 0.64815 0.30018 -0.10900
O 	O 	0.27622 0.42735 0.72957 -0.33500
O 	O 	0.27408 0.95281 0.23011 -0.32900
O 	O 	0.27548 0.91069 0.30497 -0.34200
C 	C 	0.27815 0.89333 0.42945 0.13200
Br	Br	0.27709 0.59012 0.46283 -0.10300
Br	Br	0.27308 0.06884 0.75017 -0.13500
Br	Br	0.99058 0.24470 0.55976 -0.14500
Br	Br	0.28671 0.45855 0.39189 -0.10900
O 	O 	0.27951 0.46195 0.75127 -0.32500
C 	C 	0.27924 0.88725 0.37396 -0.11500
Br	Br	0.27647 0.13802 0.76691 -0.12200
C 	C 	0.27754 0.97380 0.15289 -0.10800
C 	C 	0.27892 0.09640 0.83558 0.06900
C 	C 	0.28100 0.26066 0.94179 0.06800
C 	C 	0.28673 0.50586 0.35462 0.07000
C 	C 	0.28412 0.64096 0.44586 0.06800
C 	C 	0.28617 0.41530 0.76398 0.33900
O 	O 	0.28347 0.97294 0.34176 -0.34200
C 	C 	0.27958 0.98238 0.05494 0.06800
C 	C 	0.28852 0.49307 0.45111 0.02200
C 	C 	0.28550 0.49090 0.86413 0.12700
C 	C 	0.28756 0.47840 0.76799 0.33300
C 	C 	0.29498 0.47448 0.45406 0.06900
Br	Br	0.29049 0.51769 0.23966 -0.11000
C 	C 	0.28699 0.12686 0.88067 0.01900
C 	C 	0.28799 0.73124 0.48475 0.13100
Br	Br	0.29050 0.67196 0.52051 -0.13600
Br	Br	0.28914 0.11186 0.99240 -0.10400
Br	Br	0.28911 0.50439 0.97744 -0.10800
Br	Br	0.28946 0.53064 0.48919 -0.09800
O 	O 	0.29484 0.46341 0.63334 -0.32700
Cu	Cu	0.29066 0.93513 0.28460 0.93900
C 	C 	0.28966 0.96465 0.20157 0.32000
C 	C 	0.29144 0.89926 0.33093 0.33800
C 	C 	0.29357 0.62786 0.40790 0.02200
C 	C 	0.29537 0.50481 0.49580 0.06900
Br	Br	0.30059 0.91435 0.45244 -0.15500
C 	C 	0.29211 0.97449 0.10178 0.12500
Cu	Cu	0.30082 0.44759 0.70132 0.93800
C 	C 	0.29844 0.22900 0.99639 0.12700
C 	C 	0.29601 0.74349 0.57804 0.12700
C 	C 	0.29763 0.12950 0.93481 0.06800
C 	C 	0.29529 0.13900 0.83792 0.06900
C 	C 	0.30669 0.46744 0.50294 0.12800
C 	C 	0.30346 0.65328 0.47102 0.13300
O 	O 	0.30504 0.48855 0.73785 -0.33700
Br	Br	0.30270 0.72421 0.41337 -0.11000
C 	C 	0.30596 0.49761 0.54553 0.13100
C 	C 	0.31054 0.47876 0.54985 -0.10600
C 	C 	0.30606 0.73423 0.53078 -0.10100
Br	Br	0.30388 0.97530 0.47119 -0.15800
Br	Br	0.31834 0.44253 0.50499 -0.16000
Br	Br	0.30112 0.98650 0.98795 -0.10300
C 	C 	0.30846 0.25466 0.93395 0.12900
Br	Br	0.31115 0.20831 0.03800 -0.15600
O 	O 	0.31295 0.41178 0.76317 -0.39600
C 	C 	0.31596 0.47064 0.60467 0.32400
H 	H 	0.31247 0.92878 0.19034 0.20200
Br	Br	0.31319 0.51342 0.60842 -0.15200
C 	C 	0.31557 0.14461 0.94618 0.12700
O 	O 	0.31833 0.89896 0.31968 -0.39400
O 	O 	0.31475 0.96973 0.21970 -0.35900
C 	C 	0.31722 0.23877 0.96129 -0.10600
Br	Br	0.31744 0.74425 0.64615 -0.16200
O 	O 	0.31796 0.92697 0.22964 -0.63500
H 	H 	0.32528 0.43215 0.62062 0.21100
C 	C 	0.31731 0.15183 0.84709 0.12400
Br	Br	0.32191 0.15211 0.02217 -0.12500
C 	C 	0.32250 0.62627 0.39803 0.06700
Br	Br	0.31880 0.09440 0.82493 -0.12000
Br	Br	0.32717 0.50586 0.35185 -0.10200
O 	O 	0.32751 0.43245 0.66145 -0.63800
Cu	Cu	0.32192 0.97284 0.30837 0.91500
Br	Br	0.32461 0.48560 0.87347 -0.16900
Cu	Cu	0.33146 0.40848 0.69411 0.89900
O 	O 	0.32797 0.94757 0.31476 -0.63500
C 	C 	0.32728 0.15495 0.90185 -0.11100
Cu	Cu	0.33143 0.90267 0.24543 0.89500
Br	Br	0.32819 0.96348 0.09470 -0.14900
C 	C 	0.33229 0.65214 0.45942 -0.11700
Br	Br	0.33546 0.60774 0.34798 -0.10700
H 	H 	0.33522 0.94354 0.35121 0.20100
C 	C 	0.33504 0.72742 0.53008 0.33100
Br	Br	0.33321 0.26737 0.88241 -0.11400
O 	O 	0.33945 0.45649 0.73656 -0.63300
O 	O 	0.34070 0.47316 0.62814 -0.35800
Cu	Cu	0.34333 0.48127 0.71513 0.91800
H 	H 	0.34278 0.45399 0.77645 0.20000
O 	O 	0.33994 0.71200 0.50416 -0.32700
Br	Br	0.33591 0.16312 0.78395 -0.13500
C 	C 	0.34186 0.63842 0.42368 0.13300
C 	C 	0.34510 0.23149 0.94994 0.33100
O 	O 	0.34652 0.21631 0.92083 -0.32500
O 	O 	0.35734 0.40262 0.63679 -0.36800
C 	C 	0.35228 0.66582 0.48224 0.34000
Cu	Cu	0.35158 0.94210 0.25218 0.91000
C 	C 	0.35152 0.16763 0.91218 0.33100
O 	O 	0.35479 0.90444 0.18114 -0.37400
O 	O 	0.35508 0.68183 0.45823 -0.33300
O 	O 	0.35356 0.18333 0.88594 -0.32500
O 	O 	0.35594 0.73833 0.54669 -0.33700
Cu	Cu	0.36384 0.44390 0.68634 0.90800
O 	O 	0.36212 0.98050 0.31878 -0.34200
O 	O 	0.37050 0.66097 0.51977 -0.39500
O 	O 	0.36765 0.24203 0.95844 -0.34000
H 	H 	0.37173 0.69898 0.60677 0.19500
O 	O 	0.37154 0.16281 0.94598 -0.39400
C 	C 	0.38272 0.41014 0.63290 0.33100
Cu	Cu	0.37633 0.70220 0.49504 0.93700
C 	C 	0.37727 0.91532 0.17903 0.32800
O 	O 	0.37634 0.93261 0.19439 -0.33300
Br	Br	0.38140 0.63684 0.40784 -0.20300
Br	Br	0.37558 0.91867 0.04821 -0.11600
O 	O 	0.38371 0.48378 0.73529 -0.34200
H 	H 	0.38207 0.20451 0.02291 0.20000
O 	O 	0.38753 0.42774 0.64263 -0.34100
Cu	Cu	0.38017 0.20334 0.90968 0.93800
O 	O 	0.38484 0.70512 0.58029 -0.63200
O 	O 	0.38394 0.95611 0.27880 -0.34200
C 	C 	0.38403 0.97343 0.29396 0.33400
Cu	Cu	0.38955 0.73072 0.59008 0.91600
Br	Br	0.38459 0.00772 0.21606 -0.14200
Br	Br	0.38938 0.76751 0.43150 -0.12900
O 	O 	0.39850 0.45492 0.71473 -0.34400
O 	O 	0.39454 0.72438 0.45736 -0.32800
O 	O 	0.39419 0.20863 0.99162 -0.63200
Br	Br	0.39870 0.42166 0.51065 -0.12000
Br	Br	0.40315 0.38034 0.71527 -0.16800
C 	C 	0.40369 0.47261 0.72096 0.33400
C 	C 	0.40528 0.39931 0.60929 -0.10700
O 	O 	0.39849 0.22264 0.86006 -0.32200
Cu	Cu	0.40374 0.23391 0.99084 0.91400
C 	C 	0.40254 0.90879 0.15151 -0.10700
C 	C 	0.99402 0.00487 0.77596 0.02100
Br	Br	0.40677 0.69975 0.78910 -0.12800
C 	C 	0.40313 0.90688 0.09327 0.13000
Cu	Cu	0.40935 0.66382 0.50446 0.90500
O 	O 	0.40728 0.72914 0.66498 -0.34200
C 	C 	0.41537 0.40297 0.55520 0.13000
C 	C 	0.41623 0.38490 0.64042 0.12600
O 	O 	0.41268 0.69022 0.50105 -0.63400
Cu	Cu	0.40925 0.16325 0.92202 0.90000
Br	Br	0.41613 0.22422 0.19379 -0.13100
Br	Br	0.41926 0.50113 0.62806 -0.14200
Br	Br	0.41255 0.84888 0.09282 -0.12200
C 	C 	0.41105 0.98376 0.29516 -0.10400
O 	O 	0.41501 0.18936 0.91272 -0.63300
C 	C 	0.41773 0.73228 0.47688 0.31900
Br	Br	0.42874 0.34507 0.48916 -0.10600
C 	C 	0.41498 0.99940 0.26159 0.12500
Cu	Cu	0.42224 0.69579 0.58045 0.91000
C 	C 	0.42422 0.90175 0.18399 0.12100
O 	O 	0.42359 0.73139 0.53022 -0.35400
C 	C 	0.42377 0.22937 0.87096 0.32000
O 	O 	0.42658 0.23420 0.06041 -0.34700
C 	C 	0.42569 0.75852 0.41186 0.12600
C 	C 	0.42367 0.89622 0.06821 0.06800
Br	Br	0.42575 0.90682 0.26269 -0.16100
Br	Br	0.42458 0.89340 0.98850 -0.10600
C 	C 	0.42789 0.71832 0.67840 0.33300
H 	H 	0.42701 0.69461 0.47406 0.20400
Cu	Cu	0.42968 0.19689 0.98753 0.91000
Br	Br	0.42699 0.95794 0.38032 -0.12600
C 	C 	0.43716 0.37411 0.61749 0.06900
C 	C 	0.43311 0.47934 0.72451 -0.10400
Br	Br	0.42767 0.78835 0.33233 -0.10900
O 	O 	0.42912 0.70171 0.65768 -0.34400
H 	H 	0.42891 0.19233 0.88338 0.20300
C 	C 	0.43712 0.39263 0.53314 0.06900
O 	O 	0.43298 0.22981 0.92253 -0.35900
C 	C 	0.43337 0.97758 0.32791 0.13000
Br	Br	0.43796 0.27137 0.88540 -0.14500
C 	C 	0.44309 0.49291 0.68732 0.12500
Br	Br	0.43661 0.45585 0.82161 -0.12900
C 	C 	0.43614 0.74317 0.43942 -0.10700
Br	Br	0.43764 0.12960 0.01470 -0.19200
Br	Br	0.44071 0.62792 0.58763 -0.18400
C 	C 	0.43950 0.71556 0.77922 0.13100
O 	O 	0.44161 0.20466 0.06089 -0.34600
Br	Br	0.43028 0.20267 0.76756 -0.16800
C 	C 	0.44802 0.37820 0.56431 0.02100
C 	C 	0.44466 0.22189 0.07611 0.33500
Br	Br	0.45106 0.35371 0.65882 -0.10900
C 	C 	0.44205 0.76755 0.37095 0.07000
C 	C 	0.44323 0.88725 0.10163 0.02100
C 	C 	0.44146 0.23706 0.82564 -0.10500
Br	Br	0.45227 0.39833 0.46055 -0.10700
Br	Br	0.44958 0.70881 0.89638 -0.10500
C 	C 	0.44427 0.89067 0.15929 0.06900
C 	C 	0.44558 0.72315 0.72657 -0.10600
O 	O 	0.44913 0.66309 0.50875 -0.36500
C 	C 	0.44133 0.00860 0.25996 0.07000
Br	Br	0.45147 0.26835 0.64354 -0.10500
C 	C 	0.45104 0.47267 0.76601 0.13000
Br	Br	0.45115 0.74289 0.24455 -0.11700
C 	C 	0.45080 0.85505 0.07217 0.06800
O 	O 	0.44886 0.16068 0.92076 -0.36900
C 	C 	0.45481 0.22982 0.17520 0.13000
Br	Br	0.45975 0.24196 0.28980 -0.10900
C 	C 	0.45202 0.25522 0.82919 0.12900
C 	C 	0.44881 0.22611 0.77983 0.12600
C 	C 	0.45702 0.71982 0.82479 0.06900
Br	Br	0.45443 0.76457 0.88415 -0.11200
Br	Br	0.45338 0.81710 0.03954 -0.10700
Br	Br	0.44631 0.03069 0.21697 -0.10800
C 	C 	0.46670 0.35232 0.50889 0.06900
C 	C 	0.46271 0.66719 0.55488 0.33000
O 	O 	0.45716 0.68204 0.58366 -0.33500
O 	O 	0.46304 0.18179 0.98638 -0.33800
C 	C 	0.46010 0.98615 0.32375 0.06900
C 	C 	0.46462 0.22665 0.12088 -0.10600
C 	C 	0.47179 0.36785 0.54238 0.02100
C 	C 	0.47060 0.50021 0.69268 0.07000
C 	C 	0.46382 0.73782 0.42925 0.12400
C 	C 	0.46113 0.87320 0.07708 0.02000
C 	C 	0.46448 0.16540 0.96377 0.32800
C 	C 	0.46412 0.00165 0.28967 0.02100
C 	C 	0.47336 0.23680 0.21606 0.06800
Br	Br	0.48268 0.32174 0.44037 -0.12000
C 	C 	0.46884 0.76124 0.35765 0.02000
C 	C 	0.46853 0.84137 0.05330 0.12900
C 	C 	0.47166 0.26187 0.78985 0.07000
Br	Br	0.48331 0.52012 0.64561 -0.10800
C 	C 	0.46902 0.73508 0.71961 0.12400
Br	Br	0.47231 0.87943 0.20462 -0.11500
C 	C 	0.46900 0.23262 0.74144 0.06900
C 	C 	0.47916 0.47902 0.76866 0.06900
C 	C 	0.47700 0.13648 0.01064 0.12500
Br	Br	0.47727 0.03091 0.38231 -0.10900
C 	C 	0.48929 0.34201 0.49037 0.13100
C 	C 	0.47918 0.63698 0.58664 0.12700
C 	C 	0.48035 0.76132 0.25619 0.07000
C 	C 	0.48003 0.73217 0.81817 0.02000
C 	C 	0.48002 0.74672 0.38793 0.06900
C 	C 	0.48040 0.25049 0.74635 0.02100
Br	Br	0.48670 0.28655 0.79543 -0.10600
Br	Br	0.47950 0.71828 0.47155 -0.16000
C 	C 	0.48541 0.65540 0.57331 -0.10800
C 	C 	0.48877 0.49312 0.73295 0.02100
C 	C 	0.48446 0.76899 0.30940 0.02000
Br	Br	0.47807 0.74469 0.64682 -0.14400
C 	C 	0.48566 0.15282 0.98390 -0.11000
Br	Br	0.48526 0.10311 0.07263 -0.11000
Br	Br	0.49264 0.59983 0.61562 -0.10700
Br	Br	0.49443 0.52350 0.82462 -0.10800
Br	Br	0.49227 0.75642 0.13892 -0.14500
C 	C 	0.48917 0.75271 0.89964 0.06900
C 	C 	0.48604 0.73978 0.76551 0.07000
C 	C 	0.49111 0.26514 0.65446 0.07000
Br	Br	0.49689 0.27935 0.54231 -0.14200
Br	Br	0.48138 0.21698 0.68228 -0.11400
C 	C 	0.48900 0.87771 0.06193 0.07000
C 	C 	0.49335 0.22918 0.10856 0.12400
C 	C 	0.49947 0.37311 0.55707 0.06900
Br	Br	0.49470 0.77872 0.98975 -0.16500
Br	Br	0.49141 0.97643 0.36369 -0.10900
Br	Br	0.50367 0.28295 0.19476 -0.11200
C 	C 	0.49795 0.76678 0.21195 0.12200
C 	C 	0.50183 0.24025 0.20290 0.02100
C 	C 	0.49716 0.73781 0.86698 0.02000
C 	C 	0.49709 0.84560 0.04277 -0.10900
C 	C 	0.49693 0.12560 0.03647 0.06900
C 	C 	0.49246 0.01040 0.28418 0.02100
C 	C 	0.50080 0.25753 0.70444 0.02100
Br	Br	0.50652 0.39499 0.60017 -0.11000
C 	C 	0.50086 0.62535 0.60133 0.06900
Br	Br	0.50463 0.46838 0.82093 -0.10800
Br	Br	0.50216 0.90287 0.06268 -0.10400
C 	C 	0.50216 0.02312 0.32430 0.06900
C 	C 	0.51031 0.27032 0.61255 0.12500
C 	C 	0.51684 0.34684 0.50713 -0.10800
C 	C 	0.50505 0.78295 0.31742 0.06900
C 	C 	0.50678 0.75921 0.94268 0.12200
C 	C 	0.51197 0.23598 0.14955 0.07000
Br	Br	0.50702 0.22369 0.03509 -0.13800
C 	C 	0.50727 0.86386 0.04681 0.12600
Br	Br	0.49701 0.98784 0.18556 -0.10900
C 	C 	0.52191 0.36240 0.54045 0.12800
C 	C 	0.51780 0.50076 0.73850 0.02100
C 	C 	0.52087 0.24901 0.24447 0.02100
C 	C 	0.52387 0.26818 0.24672 0.06900
C 	C 	0.51331 0.66230 0.57657 0.12900
Br	Br	0.50891 0.79460 0.38906 -0.10700
C 	C 	0.51669 0.83096 0.03032 0.32700
C 	C 	0.51443 0.15762 0.97998 0.13200
C 	C 	0.52401 0.51426 0.77875 0.06900
C 	C 	0.51995 0.77970 0.22102 -0.10600
Br	Br	0.51729 0.73868 0.37150 -0.11600
C 	C 	0.52204 0.72877 0.87938 0.06900
O 	O 	0.51935 0.81737 0.06601 -0.33100
C 	C 	0.51009 0.00552 0.23990 0.07000
Br	Br	0.51741 0.75681 0.75660 -0.12100
Br	Br	0.52223 0.68729 0.55664 -0.10900
Br	Br	0.53112 0.47515 0.65105 -0.10700
C 	C 	0.52305 0.78815 0.27340 0.13000
C 	C 	0.52539 0.13132 0.03718 0.02100
C 	C 	0.52861 0.63233 0.60568 0.02100
Br	Br	0.53185 0.70748 0.83732 -0.10700
O 	O 	0.53024 0.83119 0.98271 -0.36600
C 	C 	0.54045 0.33580 0.48942 0.33300
O 	O 	0.54293 0.31919 0.51024 -0.34100
Br	Br	0.52659 0.17848 0.93630 -0.11500
Br	Br	0.52731 0.14791 0.15723 -0.11400
C 	C 	0.53585 0.23818 0.28187 0.06900
C 	C 	0.54145 0.27653 0.28695 0.12900
Br	Br	0.53199 0.21192 0.27819 -0.10600
C 	C 	0.52981 0.25586 0.71343 0.06800
C 	C 	0.53920 0.49453 0.70352 0.07000
C 	C 	0.53299 0.75126 0.95156 -0.10700
Br	Br	0.54552 0.30277 0.28969 -0.15900
C 	C 	0.52997 0.03009 0.32205 0.13000
C 	C 	0.53429 0.14698 0.00721 0.06700
C 	C 	0.53930 0.26855 0.62133 -0.10500
C 	C 	0.53483 0.65082 0.59347 0.06900
C 	C 	0.53988 0.73544 0.92188 0.12600
O 	O 	0.54124 0.79888 0.15060 -0.33800
C 	C 	0.54093 0.78313 0.17712 0.33200
Br	Br	0.54454 0.04517 0.38189 -0.13100
Br	Br	0.53325 0.63153 0.73567 -0.11000
O 	O 	0.54826 0.76316 0.04079 -0.34900
O 	O 	0.55785 0.34242 0.45145 -0.36900
C 	C 	0.55170 0.52114 0.78507 0.13000
H 	H 	0.54984 0.79752 0.96739 0.19800
C 	C 	0.54526 0.12203 0.07407 0.02100
C 	C 	0.53734 0.01333 0.23581 0.12500
C 	C 	0.55593 0.26572 0.32525 -0.10600
C 	C 	0.55353 0.24652 0.32195 0.13000
C 	C 	0.54909 0.26168 0.67229 0.12900
Br	Br	0.54302 0.24538 0.78184 -0.10800
Br	Br	0.54663 0.86969 0.03556 -0.19700
Br	Br	0.56024 0.61306 0.50852 -0.10800
Cu	Cu	0.55214 0.80171 0.07316 0.91200
C 	C 	0.55409 0.76032 0.98807 0.31900
C 	C 	0.54786 0.12745 0.13010 0.06800
Br	Br	0.55126 0.23977 0.13256 -0.10500
Br	Br	0.55957 0.36866 0.56485 -0.16900
C 	C 	0.55104 0.62044 0.62560 0.02100
O 	O 	0.56411 0.29194 0.56965 -0.34700
C 	C 	0.55928 0.27433 0.57762 0.33300
C 	C 	0.54753 0.02533 0.27745 -0.10400
Br	Br	0.56107 0.53714 0.84655 -0.12700
Br	Br	0.55257 0.80634 0.28528 -0.12400
O 	O 	0.56556 0.27263 0.42155 -0.35900
Br	Br	0.55690 0.09986 0.97726 -0.10400
C 	C 	0.56646 0.50236 0.70715 0.12500
O 	O 	0.56234 0.77224 0.17362 -0.34700
H 	H 	0.57220 0.31221 0.39706 0.21000
C 	C 	0.55580 0.61853 0.68310 0.07000
C 	C 	0.56757 0.61102 0.58715 0.06900
O 	O 	0.56402 0.80283 0.99322 -0.63300
Cu	Cu	0.57402 0.30248 0.49861 0.90900
C 	C 	0.57324 0.27441 0.36931 0.32400
C 	C 	0.56060 0.10729 0.05395 0.06900
C 	C 	0.57279 0.51562 0.74809 -0.10400
Br	Br	0.57304 0.72245 0.94128 -0.11600
Cu	Cu	0.56984 0.82878 0.98065 0.90000
O 	O 	0.57541 0.26202 0.55475 -0.33900
C 	C 	0.56542 0.11796 0.16617 0.13000
Br	Br	0.57518 0.23166 0.37121 -0.16000
Br	Br	0.56775 0.12468 0.24370 -0.15100
Cu	Cu	0.58127 0.76596 0.10302 0.91500
O 	O 	0.57831 0.76611 0.96711 -0.32900
O 	O 	0.58696 0.31276 0.42592 -0.63700
Br	Br	0.57356 0.15410 0.00508 -0.10600
Br	Br	0.56061 0.00788 0.17264 -0.13800
Br	Br	0.57284 0.66039 0.60040 -0.11000
C 	C 	0.58944 0.60017 0.60620 0.13100
Cu	Cu	0.59672 0.33730 0.45059 0.90100
C 	C 	0.57691 0.03219 0.27550 0.33400
C 	C 	0.57853 0.09798 0.08991 0.12800
C 	C 	0.57715 0.60731 0.70210 0.12400
Br	Br	0.59488 0.49543 0.65472 -0.14000
O 	O 	0.58832 0.79059 0.08126 -0.62900
Cu	Cu	0.59627 0.26450 0.48275 0.91700
O 	O 	0.59813 0.28159 0.35704 -0.32300
O 	O 	0.58199 0.05000 0.27349 -0.34400
C 	C 	0.58098 0.10336 0.14596 -0.10800
Br	Br	0.58887 0.26091 0.68653 -0.12300
Br	Br	0.97892 0.97862 0.87535 -0.11200
C 	C 	0.60145 0.52370 0.75202 0.33400
C 	C 	0.59433 0.59844 0.66369 -0.10800
Br	Br	0.61308 0.58801 0.55368 -0.12000
Cu	Cu	0.59869 0.78886 0.99614 0.93600
O 	O 	0.60488 0.54163 0.74949 -0.34400
O 	O 	0.60802 0.28920 0.49245 -0.63300
H 	H 	0.60163 0.79755 0.10543 0.19800
O 	O 	0.59698 0.02063 0.28632 -0.34200
O 	O 	0.59280 0.07884 0.20741 -0.34900
Br	Br	0.59996 0.07798 0.06247 -0.13700
Br	Br	0.58281 0.60391 0.78086 -0.16900
Cu	Cu	0.61980 0.29775 0.41199 0.93800
C 	C 	0.60078 0.09434 0.18286 0.33600
O 	O 	0.60826 0.83129 0.99963 -0.39200
O 	O 	0.61602 0.75569 0.07116 -0.34400
O 	O 	0.61693 0.57030 0.68408 -0.34000
H 	H 	0.62160 0.29147 0.52305 0.19700
O 	O 	0.62187 0.51323 0.76877 -0.34100
Br	Br	0.64125 0.36499 0.36113 -0.18500
O 	O 	0.62344 0.80630 0.95413 -0.33200
C 	C 	0.61840 0.58834 0.68385 0.32900
O 	O 	0.63473 0.33424 0.47078 -0.39900
O 	O 	0.62984 0.25680 0.43942 -0.33300
C 	C 	0.62756 0.82326 0.97042 0.32900
Cu	Cu	0.61656 0.06177 0.24794 0.90800
C 	C 	0.63732 0.76536 0.05040 0.33300
O 	O 	0.63343 0.77740 0.01069 -0.32900
O 	O 	0.64701 0.31799 0.39481 -0.33300
O 	O 	0.62458 0.10301 0.19550 -0.36900
Cu	Cu	0.63962 0.55470 0.73118 0.90800
C 	C 	0.65315 0.33043 0.43242 0.33900
O 	O 	0.64230 0.59731 0.69298 -0.36700
O 	O 	0.65263 0.28356 0.41408 -0.32700
H 	H 	0.63558 0.05073 0.33833 0.20100
Br	Br	0.64939 0.72727 0.99635 -0.10700
C 	C 	0.65327 0.26664 0.43257 0.32900
Cu	Cu	0.63816 0.02438 0.27420 0.91800
H 	H 	0.65628 0.54397 0.82423 0.20000
O 	O 	0.64008 0.04886 0.29857 -0.63500
Br	Br	0.65119 0.81578 0.84807 -0.12900
Cu	Cu	0.66283 0.51820 0.75883 0.91800
O 	O 	0.64421 0.03335 0.18855 -0.35600
C 	C 	0.67648 0.35853 0.39418 0.13100
C 	C 	0.65426 0.83328 0.95745 -0.10800
O 	O 	0.66239 0.54250 0.78516 -0.63300
Cu	Cu	0.64709 0.09736 0.25829 0.90100
Br	Br	0.66245 0.24351 0.54180 -0.15900
O 	O 	0.66964 0.52838 0.67475 -0.36100
Br	Br	0.65384 0.02358 0.44190 -0.16600
C 	C 	0.67818 0.34235 0.42538 -0.11700
Br	Br	0.66195 0.88382 0.84381 -0.12200
Br	Br	0.65727 0.84352 0.07427 -0.13100
C 	C 	0.66606 0.75938 0.06066 -0.10600
O 	O 	0.65313 0.07358 0.22633 -0.63900
Br	Br	0.67440 0.51052 0.92075 -0.16700
Br	Br	0.69845 0.39163 0.34179 -0.11300
Cu	Cu	0.66672 0.59154 0.75299 0.90100
H 	H 	0.65616 0.07378 0.18567 0.20900
C 	C 	0.66676 0.83200 0.90417 0.12500
C 	C 	0.66551 0.84604 0.99608 0.12800
C 	C 	0.67529 0.74303 0.03692 0.12700
O 	O 	0.67558 0.56860 0.71719 -0.63500
O 	O 	0.66273 0.09424 0.33030 -0.39300
Br	Br	0.66557 0.00600 0.91395 -0.10200
C 	C 	0.68047 0.25744 0.43361 -0.10000
C 	C 	0.70047 0.36987 0.38669 0.06700
Br	Br	0.67196 0.79247 0.12629 -0.15800
H 	H 	0.68006 0.56989 0.67722 0.21000
Br	Br	0.69627 0.50548 0.40075 -0.10400
C 	C 	0.66982 0.03626 0.16952 0.32400
Br	Br	0.66601 0.99335 0.16775 -0.15700
C 	C 	0.68763 0.24640 0.47935 0.12600
Br	Br	0.68881 0.27034 0.32003 -0.11100
Br	Br	0.69440 0.48937 0.65260 -0.15700
C 	C 	0.68511 0.77091 0.08984 0.12400
O 	O 	0.68239 0.58778 0.82446 -0.39500
O 	O 	0.67568 0.01765 0.30337 -0.33800
C 	C 	0.69540 0.53226 0.65797 0.32400
Cu	Cu	0.67929 0.05891 0.26921 0.93900
C 	C 	0.67797 0.02852 0.11550 -0.10600
C 	C 	0.70378 0.33765 0.44988 0.13200
C 	C 	0.68947 0.84383 0.89021 0.06900
C 	C 	0.68426 0.85994 0.97791 0.06900
O 	O 	0.70053 0.51230 0.78853 -0.33800
Br	Br	0.68834 0.00677 0.55040 -0.10500
C 	C 	0.67916 0.00942 0.10904 0.13100
Br	Br	0.68311 0.06614 0.07811 -0.15800
C 	C 	0.70033 0.26075 0.39090 0.13100
C 	C 	0.70757 0.50629 0.59614 0.13200
Cu	Cu	0.70169 0.55398 0.76073 0.93800
C 	C 	0.70515 0.52525 0.60409 -0.10700
Br	Br	0.70774 0.49107 0.02650 -0.10800
Br	Br	0.69158 0.88104 0.02421 -0.10800
C 	C 	0.70369 0.73854 0.04098 0.06800
C 	C 	0.69158 0.02802 0.33620 0.33200
O 	O 	0.68920 0.04391 0.20163 -0.32600
C 	C 	0.68952 0.09108 0.33554 0.33800
C 	C 	0.69255 0.01709 0.43412 0.12800
C 	C 	0.68757 0.04017 0.07239 0.13000
Br	Br	0.72322 0.47379 0.53606 -0.10200
Br	Br	0.70632 0.31496 0.49004 -0.14200
C 	C 	0.69622 0.85890 0.92449 0.02000
C 	C 	0.72610 0.36523 0.41134 0.02100
C 	C 	0.71497 0.52244 0.82430 0.33300
O 	O 	0.71369 0.53996 0.69242 -0.32600
O 	O 	0.69951 0.04467 0.32107 -0.32500
C 	C 	0.69107 0.00209 0.06073 0.06900
Br	Br	0.69216 0.97598 0.05106 -0.10800
Br	Br	0.70252 0.99039 0.80680 -0.11200
C 	C 	0.71408 0.23840 0.48105 0.07000
C 	C 	0.71485 0.53752 0.56269 0.12900
C 	C 	0.72063 0.49972 0.54798 0.06800
Br	Br	0.70845 0.56325 0.56993 -0.15900
C 	C 	0.71442 0.50752 0.91733 0.12700
C 	C 	0.70154 0.88561 0.86026 0.06800
Br	Br	0.70701 0.90671 0.75931 -0.13900
Br	Br	0.71626 0.71583 0.01060 -0.10400
C 	C 	0.70950 0.58593 0.82959 0.34000
O 	O 	0.70142 0.07950 0.30215 -0.33700
C 	C 	0.70025 0.03283 0.02491 0.06900
Br	Br	0.73418 0.49047 0.29409 -0.11200
C 	C 	0.72760 0.34931 0.44396 0.06900
Br	Br	0.71092 0.83973 0.82361 -0.11700
C 	C 	0.71367 0.76672 0.09231 0.07000
C 	C 	0.70627 0.01948 0.38268 -0.10400
C 	C 	0.70712 0.01012 0.47987 0.07000
C 	C 	0.70264 0.01380 0.01973 0.02100
C 	C 	0.70515 0.00198 0.92215 0.06900
Br	Br	0.69837 0.13132 0.29164 -0.18800
Br	Br	0.70387 0.07201 0.44883 -0.13900
Br	Br	0.72157 0.21987 0.53557 -0.10300
C 	C 	0.71302 0.87453 0.90176 0.01900
O 	O 	0.72157 0.53964 0.81308 -0.32500
C 	C 	0.70713 0.10259 0.37229 -0.11600
C 	C 	0.72814 0.25547 0.39811 0.06900
C 	C 	0.72884 0.53097 0.51558 0.06900
C 	C 	0.73218 0.51208 0.50872 0.02200
C 	C 	0.73579 0.50147 0.41004 0.06900
C 	C 	0.72856 0.49983 0.96254 0.07100
Br	Br	0.73714 0.39657 0.49951 -0.10800
C 	C 	0.72308 0.75073 0.06676 0.02100
O 	O 	0.72250 0.57463 0.79696 -0.33300
Br	Br	0.73213 0.96282 0.47560 -0.10900
C 	C 	0.72047 0.99475 0.87772 0.13100
Br	Br	0.71509 0.04881 0.96753 -0.10600
C 	C 	0.71621 0.12009 0.35440 0.13200
C 	C 	0.71843 0.09511 0.42101 0.13300
C 	C 	0.73488 0.24370 0.44211 0.02100
C 	C 	0.72959 0.51343 0.87006 -0.10400
C 	C 	0.75170 0.37655 0.40011 0.02200
Br	Br	0.76307 0.34987 0.31452 -0.10500
Br	Br	0.71786 0.62431 0.77374 -0.19700
C 	C 	0.71894 0.89809 0.83115 0.12500
C 	C 	0.71870 0.00618 0.97285 0.02200
C 	C 	0.74885 0.50525 0.46152 0.02100
C 	C 	0.75153 0.49459 0.36569 0.13200
C 	C 	0.75707 0.39261 0.43101 0.06700
C 	C 	0.72593 0.59881 0.86433 -0.11700
Br	Br	0.72652 0.56911 0.94405 -0.13200
Br	Br	0.74649 0.21142 0.35917 -0.10200
Br	Br	0.74411 0.54785 0.46104 -0.10800
C 	C 	0.76830 0.37277 0.35331 0.06700
Br	Br	0.73883 0.65060 0.01110 -0.10700
Br	Br	0.74465 0.72939 0.17077 -0.10700
C 	C 	0.73548 0.00556 0.47424 0.02200
C 	C 	0.73446 0.01461 0.37670 0.13200
Br	Br	0.75099 0.14991 0.52135 -0.10500
C 	C 	0.73264 0.61646 0.84424 0.13100
C 	C 	0.73621 0.59320 0.91628 0.13200
Br	Br	0.74009 0.78305 0.12944 -0.11000
C 	C 	0.74992 0.97868 0.53013 0.06900
C 	C 	0.73904 0.12902 0.38088 0.06600
C 	C 	0.74087 0.10424 0.44829 0.06800
Br	Br	0.75715 0.26494 0.34917 -0.10400
C 	C 	0.75881 0.51122 0.86743 0.13200
C 	C 	0.75798 0.49861 0.96125 0.02300
Br	Br	0.76884 0.45662 0.95769 -0.10400
C 	C 	0.77626 0.40599 0.41076 0.13300
Br	Br	0.76227 0.34357 0.48035 -0.10600
C 	C 	0.74090 0.87784 0.91930 0.06900
C 	C 	0.74614 0.90251 0.85166 -0.11400
C 	C 	0.75350 0.74724 0.06419 0.02100
O 	O 	0.75322 0.93097 0.80164 -0.32500
C 	C 	0.74918 0.00790 0.42268 0.07000
C 	C 	0.75054 0.99771 0.52203 0.02200
Br	Br	0.76084 0.94518 0.58883 -0.16700
C 	C 	0.74911 0.99111 0.88464 -0.10500
C 	C 	0.76364 0.23667 0.44675 0.02200
C 	C 	0.78779 0.38601 0.33355 0.13000
C 	C 	0.75074 0.62818 0.87480 0.06700
Br	Br	0.75207 0.76742 0.96041 -0.10800
O 	O 	0.79036 0.42971 0.30264 -0.32700
O 	O 	0.79041 0.46462 0.31908 -0.32800
O 	O 	0.75779 0.96529 0.82655 -0.32800
C 	C 	0.76182 0.97127 0.57829 0.12900
Br	Br	0.75258 0.01666 0.30511 -0.11100
C 	C 	0.74758 0.00314 0.97903 0.07000
C 	C 	0.75246 0.12053 0.42574 0.02200
Br	Br	0.75666 0.09411 0.51489 -0.10300
Br	Br	0.75307 0.15236 0.35380 -0.10600
C 	C 	0.77287 0.22356 0.40866 0.06900
C 	C 	0.78009 0.49090 0.37339 -0.10500
C 	C 	0.77771 0.50230 0.46839 0.07000
C 	C 	0.77309 0.50418 0.91349 0.06900
C 	C 	0.77310 0.49213 0.01091 0.02000
C 	C 	0.77931 0.47354 0.01613 0.06900
C 	C 	0.79055 0.40303 0.36051 -0.11900
Br	Br	0.78224 0.42865 0.45047 -0.12500
C 	C 	0.75393 0.60505 0.94736 0.06900
Br	Br	0.76089 0.65210 0.84629 -0.10900
C 	C 	0.75633 0.89298 0.89825 0.12600
Br	Br	0.75844 0.86116 0.96954 -0.10400
C 	C 	0.76637 0.73748 0.10720 0.07200
O 	O 	0.76482 0.96790 0.70641 -0.32300
C 	C 	0.76427 0.91636 0.82305 0.33000
Br	Br	0.77127 0.26344 0.53500 -0.10400
Br	Br	0.80952 0.38128 0.26769 -0.19900
C 	C 	0.76203 0.62228 0.92563 0.02200
C 	C 	0.76938 0.75325 0.01788 0.06700
C 	C 	0.76410 0.00930 0.56100 0.06900
C 	C 	0.79584 0.48203 0.32896 0.33500
O 	O 	0.79436 0.46434 0.19663 -0.32300
C 	C 	0.80498 0.41837 0.33222 0.34200
C 	C 	0.76466 0.98230 0.83975 0.33300
C 	C 	0.77428 0.98291 0.61872 -0.10600
C 	C 	0.76271 0.99547 0.93510 0.12500
C 	C 	0.78341 0.14182 0.48143 0.06800
C 	C 	0.78224 0.24365 0.48767 0.07000
C 	C 	0.79324 0.49492 0.42452 0.12600
C 	C 	0.79284 0.46731 0.06421 0.12800
C 	C 	0.78059 0.50449 0.05364 0.06800
Br	Br	0.77905 0.51723 0.80004 -0.11100
Br	Br	0.80343 0.44220 0.06940 -0.15600
Br	Br	0.77360 0.53013 0.04490 -0.10200
C 	C 	0.77740 0.64764 0.98963 0.07300
Br	Br	0.76762 0.59762 0.01909 -0.10800
Cu	Cu	0.80887 0.45063 0.26380 0.93900
Cu	Cu	0.77622 0.95166 0.77034 0.93800
C 	C 	0.77558 0.00196 0.60975 0.13100
Br	Br	0.76636 0.03528 0.54795 -0.09900
Br	Br	0.76631 0.00951 0.04781 -0.11000
C 	C 	0.78065 0.12724 0.44346 0.02100
Br	Br	0.79585 0.50833 0.53804 -0.10800
C 	C 	0.79915 0.47952 0.10803 -0.10500
C 	C 	0.79306 0.49814 0.10266 0.13100
Br	Br	0.78882 0.67995 0.05684 -0.13200
O 	O 	0.80893 0.49238 0.29180 -0.34000
O 	O 	0.78032 0.99261 0.80629 -0.33900
C 	C 	0.78350 0.97537 0.67241 0.32200
C 	C 	0.78443 0.63343 0.95322 0.02000
C 	C 	0.79494 0.73342 0.10332 0.12600
C 	C 	0.81105 0.47276 0.16034 0.32100
Br	Br	0.78813 0.00194 0.41533 -0.10500
Br	Br	0.81315 0.17187 0.53659 -0.15400
C 	C 	0.80129 0.21909 0.40741 0.13100
Br	Br	0.80075 0.51478 0.16338 -0.15200
O 	O 	0.79093 0.91335 0.81543 -0.39400
C 	C 	0.79850 0.65978 0.00976 0.12600
Br	Br	0.78956 0.90172 0.93693 -0.12800
C 	C 	0.79778 0.74880 0.01342 0.13000
C 	C 	0.80972 0.15068 0.48921 0.13300
H 	H 	0.79768 0.93902 0.68138 0.20500
Br	Br	0.79125 0.01810 0.66595 -0.15500
C 	C 	0.80916 0.23649 0.49289 0.12800
Br	Br	0.81294 0.72069 0.16307 -0.16600
O 	O 	0.83249 0.41936 0.33076 -0.39300
H 	H 	0.82584 0.43153 0.18158 0.22000
Cu	Cu	0.80588 0.91251 0.74288 0.90000
O 	O 	0.80135 0.93778 0.72159 -0.63300
Br	Br	0.81619 0.20774 0.34176 -0.11100
Br	Br	0.81337 0.50247 0.91177 -0.10500
C 	C 	0.81044 0.73865 0.05577 -0.10500
O 	O 	0.83310 0.43560 0.21822 -0.64200
C 	C 	0.80468 0.12027 0.41793 0.06700
C 	C 	0.81923 0.22467 0.45150 -0.10000
Br	Br	0.83242 0.48997 0.43462 -0.16100
O 	O 	0.80960 0.97802 0.68900 -0.35800
Br	Br	0.80198 0.99058 0.94422 -0.16400
C 	C 	0.81273 0.63072 0.93954 0.06800
Cu	Cu	0.85185 0.41730 0.26196 0.89200
O 	O 	0.83690 0.47775 0.17415 -0.36400
Br	Br	0.80111 0.09969 0.36807 -0.11300
Br	Br	0.81928 0.75639 0.94903 -0.10500
Cu	Cu	0.84607 0.48745 0.25778 0.92100
O 	O 	0.84870 0.46285 0.27925 -0.63600
Cu	Cu	0.81746 0.98598 0.77499 0.91600
O 	O 	0.81612 0.96120 0.79720 -0.63400
Br	Br	0.83097 0.24157 0.55903 -0.15800
C 	C 	0.82669 0.65735 0.99480 -0.11100
O 	O 	0.83089 0.90963 0.68201 -0.37000
H 	H 	0.82170 0.95893 0.83621 0.20100
C 	C 	0.83340 0.14440 0.46090 -0.11500
Br	Br	0.82239 0.61093 0.89091 -0.10900
C 	C 	0.83923 0.73241 0.04872 0.33300
H 	H 	0.85795 0.46061 0.31539 0.18800
C 	C 	0.83111 0.12871 0.42736 0.13100
C 	C 	0.83384 0.64265 0.96041 0.13000
O 	O 	0.84325 0.71798 0.01744 -0.32600
C 	C 	0.84794 0.21761 0.45556 0.33400
Br	Br	0.85361 0.39319 0.07790 -0.11900
C 	C 	0.84859 0.67052 0.01335 0.33400
Cu	Cu	0.86690 0.45175 0.21548 0.90400
O 	O 	0.87157 0.40861 0.19789 -0.36500
O 	O 	0.85214 0.20060 0.44093 -0.32800
Cu	Cu	0.83854 0.94935 0.74226 0.91000
O 	O 	0.85379 0.68531 0.98396 -0.33200
C 	C 	0.85982 0.15518 0.46200 0.33900
O 	O 	0.86038 0.74358 0.06190 -0.34200
O 	O 	0.86514 0.16725 0.42299 -0.33900
O 	O 	0.86624 0.66580 0.05213 -0.39500
O 	O 	0.86927 0.22923 0.46354 -0.33600
C 	C 	0.85659 0.91664 0.68325 0.32900
H 	H 	0.87330 0.70590 0.12657 0.19800
C 	C 	0.88715 0.41869 0.16341 0.32700
O 	O 	0.88699 0.49176 0.26657 -0.34400
O 	O 	0.88462 0.43659 0.15987 -0.33800
O 	O 	0.85883 0.98988 0.78377 -0.34300
O 	O 	0.86141 0.93417 0.69359 -0.33900
Br	Br	0.87068 0.88798 0.77444 -0.18800
O 	O 	0.87851 0.15228 0.50072 -0.39400
Br	Br	0.86418 0.11904 0.39349 -0.16600
Cu	Cu	0.87791 0.70561 0.01412 0.93600
O 	O 	0.88708 0.71062 0.09889 -0.63000
Cu	Cu	0.88783 0.18954 0.44050 0.93800
H 	H 	0.88433 0.19581 0.55133 0.19900
O 	O 	0.87355 0.96066 0.76721 -0.34500
C 	C 	0.88002 0.90520 0.66698 -0.11100
C 	C 	0.89355 0.39504 0.09045 0.12800
Br	Br	0.89556 0.36086 0.02995 -0.10200
Br	Br	0.87253 0.63924 0.94038 -0.19900
O 	O 	0.89904 0.46868 0.20744 -0.34100
C 	C 	0.90613 0.48191 0.24229 0.33400
C 	C 	0.87874 0.97842 0.77112 0.33600
C 	C 	0.88903 0.89155 0.70351 0.12500
Br	Br	0.87963 0.92552 0.56336 -0.12100
Br	Br	0.89921 0.24922 0.34487 -0.13200
C 	C 	0.90505 0.40939 0.12304 -0.10200
Cu	Cu	0.89472 0.73616 0.10226 0.91500
O 	O 	0.89730 0.19932 0.52072 -0.63200
Br	Br	0.89445 0.00316 0.66894 -0.13800
C 	C 	0.91130 0.38233 0.06609 0.07000
Br	Br	0.91951 0.51876 0.17964 -0.12900
Br	Br	0.90488 0.72294 0.31009 -0.12500
C 	C 	0.89350 0.90790 0.61536 0.13100
O 	O 	0.89904 0.72529 0.97016 -0.32700
Cu	Cu	0.90317 0.22474 0.51030 0.91600
O 	O 	0.90691 0.20718 0.38613 -0.32700
Br	Br	0.91462 0.84818 0.56979 -0.10800
Br	Br	0.90061 0.76987 0.94203 -0.12500
Cu	Cu	0.90513 0.66581 0.03586 0.90400
O 	O 	0.91270 0.73577 0.17673 -0.34600
Br	Br	0.91994 0.20880 0.72455 -0.12700
C 	C 	0.91182 0.88083 0.68894 0.06900
O 	O 	0.91218 0.69168 0.02474 -0.63800
Cu	Cu	0.91737 0.15246 0.48263 0.89700
O 	O 	0.92310 0.17736 0.45600 -0.63600
O 	O 	0.92114 0.22899 0.58406 -0.34200
C 	C 	0.90815 0.98518 0.77257 -0.10400
C 	C 	0.91676 0.89746 0.60137 0.06800
Br	Br	0.92374 0.86180 0.73827 -0.10900
C 	C 	0.93430 0.41290 0.12298 0.12400
C 	C 	0.93583 0.48779 0.24635 -0.10700
Cu	Cu	0.92293 0.69899 0.10224 0.91000
C 	C 	0.92271 0.73293 0.98818 0.32300
C 	C 	0.93008 0.21649 0.39920 0.32200
C 	C 	0.91843 0.99689 0.73026 0.12500
C 	C 	0.92614 0.88408 0.63851 0.02100
Br	Br	0.93775 0.27058 0.24737 -0.10500
C 	C 	0.94062 0.38494 0.07019 0.02000
Br	Br	0.95405 0.35799 0.16758 -0.11900
C 	C 	0.94547 0.50392 0.21964 0.13100
Br	Br	0.99349 0.73383 0.14853 -0.13900
C 	C 	0.95973 0.66762 0.08208 0.33100
O 	O 	0.93196 0.70746 0.17680 -0.34000
C 	C 	0.93279 0.72480 0.19162 0.33200
O 	O 	0.92829 0.73350 0.04172 -0.35600
O 	O 	0.95518 0.68282 0.11009 -0.33600
O 	O 	0.94458 0.66292 0.03837 -0.36800
H 	H 	0.92688 0.69428 0.99660 0.20800
Cu	Cu	0.93440 0.18963 0.52711 0.91000
C 	C 	0.97221 0.15849 0.52565 0.33000
O 	O 	0.94315 0.20179 0.59683 -0.34300
C 	C 	0.94171 0.21953 0.60534 0.33400
O 	O 	0.93650 0.21948 0.45164 -0.36000
O 	O 	0.96886 0.17586 0.53844 -0.33500
O 	O 	0.95702 0.15034 0.48672 -0.37200
H 	H 	0.93734 0.17856 0.42621 0.20600
C 	C 	0.94631 0.00374 0.73220 0.07000
C 	C 	0.96428 0.99832 0.77528 0.02100
C 	C 	0.95407 0.98647 0.81733 0.06900
C 	C 	0.92584 0.98029 0.81676 0.13000
Br	Br	0.97405 0.03396 0.84605 -0.10900
Br	Br	0.91103 0.96588 0.87787 -0.13000
Br	Br	0.95996 0.02061 0.67608 -0.10800
C 	C 	0.97486 0.84775 0.58701 0.12800
C 	C 	0.95039 0.85753 0.59666 0.07000
C 	C 	0.95200 0.87415 0.62614 0.02100
C 	C 	0.97807 0.88096 0.64606 0.06800
Br	Br	0.98035 0.90398 0.68501 -0.11100
Br	Br	0.97290 0.82526 0.54531 -0.13500
Br	Br	0.93609 0.90162 0.53181 -0.10800
C 	C 	0.95878 0.22787 0.65006 -0.10500
C 	C 	0.95233 0.22406 0.70614 0.13100
C 	C 	0.96920 0.23167 0.74872 0.06800
C 	C 	0.99207 0.24350 0.73530 0.02100
C 	C 	0.98161 0.23971 0.63665 0.12400
Br	Br	0.96122 0.22581 0.82547 -0.10500
Br	Br	0.96984 0.28029 0.78216 -0.10700
C 	C 	0.99637 0.25319 0.22965 0.02100
C 	C 	0.99400 0.24757 0.17376 0.07000
C 	C 	0.97932 0.24377 0.27315 0.02000
C 	C 	0.99006 0.22868 0.30145 0.06900
C 	C 	0.97389 0.21970 0.34268 0.12600
C 	C 	0.94679 0.22564 0.35518 -0.10700
C 	C 	0.93601 0.24072 0.32675 0.12600
C 	C 	0.95230 0.24980 0.28588 0.06900
Br	Br	0.96746 0.22829 0.15352 -0.11100
Br	Br	0.98876 0.19919 0.38174 -0.15800
C 	C 	0.98952 0.13561 0.59265 0.12400
C 	C 	0.99540 0.14861 0.55080 -0.10700
Br	Br	0.95270 0.13407 0.62597 -0.17400
C 	C 	0.98856 0.35618 0.98299 0.13000
C 	C 	0.96852 0.36900 0.99762 0.07100
C 	C 	0.95939 0.37022 0.05317 0.01800
C 	C 	0.96951 0.35810 0.09341 0.07000
C 	C 	0.99116 0.34629 0.07968 0.12300
C 	C 	0.95201 0.40089 0.09521 0.06900
Br	Br	0.95024 0.43349 0.16338 -0.13400
Br	Br	0.95453 0.38547 0.94230 -0.10300
Br	Br	0.99195 0.40592 0.09278 -0.11800
C 	C 	0.95493 0.47669 0.27408 0.13200
C 	C 	0.98379 0.48125 0.27304 0.07000
C 	C 	0.99345 0.49733 0.24616 0.02200
C 	C 	0.97420 0.50887 0.22056 0.06800
Br	Br	0.98732 0.53142 0.18659 -0.11000
Br	Br	0.94138 0.45542 0.31442 -0.17600
C 	C 	0.99502 0.76478 0.81962 0.02100
C 	C 	0.98975 0.75942 0.76421 0.07000
C 	C 	0.97721 0.75723 0.86517 0.02000
C 	C 	0.98527 0.74145 0.89368 0.06900
C 	C 	0.96816 0.73407 0.93623 0.12600
C 	C 	0.94223 0.74189 0.94837 -0.10700
C 	C 	0.93459 0.75801 0.92111 0.12600
C 	C 	0.95214 0.76573 0.87970 0.07000
Br	Br	0.95855 0.74294 0.74744 -0.11200
Br	Br	0.98058 0.71356 0.97862 -0.16100
Br	Br	0.94192 0.78791 0.84268 -0.10700
Br	Br	0.99914 0.75963 0.64493 -0.14500
C 	C 	0.95199 0.73070 0.23648 -0.10500
C 	C 	0.97979 0.73620 0.22362 0.12200
C 	C 	0.99731 0.74381 0.26518 0.07000
C 	C 	0.98689 0.74620 0.31946 0.02100
C 	C 	0.95940 0.74005 0.33281 0.06800
C 	C 	0.94207 0.73211 0.29146 0.13000
Br	Br	0.94541 0.74285 0.40753 -0.10600
Br	Br	0.98021 0.78861 0.31908 -0.11400
C 	C 	0.98251 0.65572 0.09954 -0.10600
C 	C 	0.97616 0.63736 0.11346 0.12700
C 	C 	0.99790 0.62511 0.12114 0.06900
Br	Br	0.98921 0.59961 0.13494 -0.10500
Br	Br	0.93765 0.62925 0.12442 -0.17700
