data_crystal

_cell_length_a 52.31080
_cell_length_b 36.97956
_cell_length_c 18.81489
_cell_angle_alpha 89.99977
_cell_angle_beta  89.99965
_cell_angle_gamma 90.00082

_symmetry_space_group_name_	'P 1'
_symmetry_space_group_name_H-M	'P 1'

loop_
_symmetry_equiv_pos_as_xyz
  x,y,z

loop_
_atom_site_label
_atom_site_type_symbol
_atom_site_fract_x
_atom_site_fract_y
_atom_site_fract_z
_atom_site_charge
Cu	Cu	0.38767 0.67126 0.16263 0.93000
Cu	Cu	0.34453 0.64322 0.27653 0.87200
Cu	Cu	0.34716 0.61292 0.13755 0.88900
Cu	Cu	0.39158 0.61546 0.03604 0.89800
C 	C 	0.43538 0.65324 0.09830 0.28300
O 	O 	0.37947 0.69933 0.07268 -0.34800
C 	C 	0.29750 0.62421 0.21014 0.28300
O 	O 	0.38421 0.61603 0.13464 -0.63700
O 	O 	0.35118 0.66161 0.18155 -0.64000
O 	O 	0.39597 0.69425 0.25561 -0.34600
O 	O 	0.37748 0.64827 0.31549 -0.42900
O 	O 	0.42290 0.64562 0.03954 -0.38100
O 	O 	0.34451 0.56467 0.09632 -0.37600
C 	C 	0.35603 0.55431 0.03729 0.28500
C 	C 	0.36368 0.68693 0.02384 0.27500
O 	O 	0.35972 0.65194 0.01860 -0.39200
O 	O 	0.37920 0.56576 0.02180 -0.38600
O 	O 	0.42401 0.67112 0.14995 -0.34800
C 	C 	0.38809 0.68025 0.31573 0.29900
O 	O 	0.31024 0.60915 0.15687 -0.37900
O 	O 	0.30897 0.64489 0.25740 -0.40300
H 	H 	0.39325 0.59768 0.16357 0.16600
H 	H 	0.33883 0.67967 0.16331 0.19100
Cu	Cu	0.59677 0.65188 0.06569 0.92800
Cu	Cu	0.65500 0.61856 0.07393 0.87100
Cu	Cu	0.63600 0.67689 0.17626 0.89700
Cu	Cu	0.58101 0.70186 0.19376 0.89900
C 	C 	0.54441 0.65762 0.11037 0.28800
O 	O 	0.58959 0.70135 0.02455 -0.35500
C 	C 	0.69015 0.66452 0.14683 0.27700
O 	O 	0.60085 0.65987 0.17605 -0.63400
O 	O 	0.63383 0.66202 0.07384 -0.63800
O 	O 	0.59907 0.60695 0.00747 -0.36000
O 	O 	0.62941 0.58209 0.07860 -0.42500
O 	O 	0.55026 0.68950 0.13684 -0.37900
O 	O 	0.63678 0.69403 0.27474 -0.36900
C 	C 	0.61899 0.71473 0.30333 0.28800
C 	C 	0.59885 0.73122 0.05242 0.27800
O 	O 	0.60459 0.73245 0.12040 -0.38000
O 	O 	0.59466 0.70896 0.29019 -0.38400
O 	O 	0.56153 0.63829 0.07561 -0.35400
C 	C 	0.61253 0.57880 0.02743 0.28200
O 	O 	0.67287 0.68641 0.17465 -0.36600
O 	O 	0.68535 0.64685 0.08748 -0.40200
H 	H 	0.59747 0.63917 0.20809 0.16600
H 	H 	0.64018 0.68091 0.04098 0.17500
Cu	Cu	0.39380 0.31982 0.73273 0.92900
Cu	Cu	0.34422 0.33903 0.62878 0.87700
Cu	Cu	0.35098 0.37251 0.77262 0.90000
Cu	Cu	0.39413 0.36274 0.87744 0.89800
C 	C 	0.44088 0.33859 0.80246 0.28100
O 	O 	0.38930 0.28142 0.80867 -0.35700
C 	C 	0.30029 0.35847 0.70825 0.28800
O 	O 	0.38741 0.37061 0.78018 -0.63900
O 	O 	0.35611 0.32526 0.72225 -0.63700
O 	O 	0.40311 0.30995 0.63153 -0.35200
O 	O 	0.37602 0.35292 0.59142 -0.43200
O 	O 	0.42836 0.34016 0.86333 -0.37800
O 	O 	0.34879 0.41833 0.82114 -0.37600
C 	C 	0.35647 0.42424 0.88696 0.29300
C 	C 	0.37408 0.28606 0.86363 0.27700
O 	O 	0.36664 0.31886 0.88065 -0.37900
O 	O 	0.37561 0.40584 0.91562 -0.38000
O 	O 	0.43010 0.32425 0.74548 -0.34500
C 	C 	0.39273 0.32751 0.57817 0.29600
O 	O 	0.31510 0.38069 0.74482 -0.37900
O 	O 	0.31002 0.33551 0.66221 -0.41200
H 	H 	0.39632 0.39172 0.75932 0.17000
H 	H 	0.34593 0.30545 0.74350 0.17500
Cu	Cu	0.60131 0.36955 0.84074 0.92800
Cu	Cu	0.65740 0.41202 0.83076 0.87300
Cu	Cu	0.64255 0.35100 0.72993 0.89800
Cu	Cu	0.59409 0.30609 0.73215 0.90100
C 	C 	0.55056 0.34714 0.79757 0.28400
O 	O 	0.59945 0.32473 0.90179 -0.35300
C 	C 	0.69646 0.36980 0.76616 0.28500
O 	O 	0.60606 0.35418 0.73423 -0.64100
O 	O 	0.63935 0.36639 0.83245 -0.63600
O 	O 	0.59769 0.41922 0.88190 -0.35700
O 	O 	0.62927 0.44290 0.81326 -0.43000
O 	O 	0.56024 0.31572 0.77733 -0.37000
O 	O 	0.64242 0.33641 0.63063 -0.36800
C 	C 	0.62739 0.31085 0.60485 0.28600
C 	C 	0.61052 0.29431 0.88364 0.28100
O 	O 	0.61889 0.28998 0.81862 -0.37500
O 	O 	0.61362 0.29010 0.64712 -0.38100
O 	O 	0.56485 0.37232 0.82824 -0.34900
C 	C 	0.61158 0.44704 0.86195 0.28800
O 	O 	0.67980 0.35860 0.71797 -0.37700
O 	O 	0.68889 0.38598 0.82485 -0.41200
H 	H 	0.59842 0.37012 0.69768 0.16900
H 	H 	0.64730 0.34877 0.86531 0.17200
Cu	Cu	0.38760 0.86135 0.57377 0.92700
Cu	Cu	0.33205 0.90090 0.60054 0.87700
Cu	Cu	0.34792 0.83424 0.68188 0.89500
Cu	Cu	0.40080 0.80003 0.68471 0.90400
C 	C 	0.43903 0.84636 0.61651 0.28500
O 	O 	0.39058 0.81454 0.51826 -0.35200
C 	C 	0.29408 0.85483 0.66081 0.27600
O 	O 	0.38413 0.84570 0.68140 -0.63300
O 	O 	0.35002 0.85560 0.58392 -0.63800
O 	O 	0.38798 0.91021 0.52859 -0.36000
O 	O 	0.36009 0.93304 0.60927 -0.42700
O 	O 	0.43145 0.81303 0.62842 -0.36800
O 	O 	0.34739 0.81154 0.77566 -0.37100
C 	C 	0.36326 0.78574 0.79567 0.28700
C 	C 	0.37969 0.78425 0.53912 0.27800
O 	O 	0.37424 0.77928 0.60657 -0.38000
O 	O 	0.38770 0.78748 0.77965 -0.37600
O 	O 	0.42385 0.86931 0.58336 -0.35500
C 	C 	0.37548 0.93782 0.55513 0.29000
O 	O 	0.31042 0.83034 0.68452 -0.36700
O 	O 	0.30002 0.87615 0.60725 -0.40100
H 	H 	0.38951 0.86313 0.71844 0.16600
H 	H 	0.34187 0.84026 0.54722 0.17500
Cu	Cu	0.59759 0.83457 0.67459 0.93000
Cu	Cu	0.64676 0.85193 0.77782 0.87600
Cu	Cu	0.63888 0.89091 0.64232 0.89700
Cu	Cu	0.59230 0.88823 0.54544 0.90100
C 	C 	0.54870 0.85445 0.61874 0.28200
O 	O 	0.60181 0.80429 0.58485 -0.34700
C 	C 	0.69044 0.87375 0.69926 0.28800
O 	O 	0.60193 0.88888 0.64239 -0.63300
O 	O 	0.63498 0.84122 0.68276 -0.64000
O 	O 	0.59104 0.81614 0.77276 -0.35500
O 	O 	0.61494 0.86070 0.82112 -0.43400
O 	O 	0.56009 0.86009 0.55729 -0.37000
O 	O 	0.64122 0.93834 0.59813 -0.37200
C 	C 	0.62976 0.94769 0.53831 0.28600
C 	C 	0.61701 0.81463 0.53272 0.27400
O 	O 	0.62228 0.84914 0.52487 -0.38600
O 	O 	0.60628 0.93674 0.52434 -0.37900
O 	O 	0.56111 0.83792 0.67043 -0.35300
C 	C 	0.59931 0.83342 0.82925 0.29200
O 	O 	0.67560 0.89653 0.66390 -0.37900
O 	O 	0.68088 0.85005 0.74417 -0.41300
H 	H 	0.59357 0.90781 0.67148 0.16800
H 	H 	0.64544 0.82282 0.65792 0.17900
Cu	Cu	0.39321 0.14313 0.35697 0.92900
Cu	Cu	0.33609 0.10812 0.33679 0.86900
Cu	Cu	0.35708 0.16339 0.23530 0.89600
Cu	Cu	0.41093 0.19108 0.22842 0.89800
C 	C 	0.44639 0.15063 0.32283 0.28800
O 	O 	0.39817 0.19356 0.39616 -0.35300
C 	C 	0.30170 0.15274 0.25783 0.28000
O 	O 	0.39222 0.14822 0.24558 -0.63700
O 	O 	0.35643 0.15203 0.33941 -0.64000
O 	O 	0.38988 0.09828 0.41505 -0.36000
O 	O 	0.36251 0.07292 0.33597 -0.43300
O 	O 	0.44044 0.18156 0.29232 -0.37800
O 	O 	0.35933 0.17303 0.13371 -0.37600
C 	C 	0.37659 0.19400 0.10319 0.28900
C 	C 	0.38957 0.22258 0.36348 0.27800
O 	O 	0.38486 0.22157 0.29490 -0.38600
O 	O 	0.40012 0.19639 0.12814 -0.38400
O 	O 	0.42892 0.13119 0.35598 -0.35000
C 	C 	0.37776 0.06975 0.39096 0.28800
O 	O 	0.32001 0.17108 0.22520 -0.36900
O 	O 	0.30598 0.13597 0.31848 -0.40900
H 	H 	0.39715 0.12716 0.21609 0.16900
H 	H 	0.34873 0.17152 0.36844 0.17900
Cu	Cu	0.59734 0.18267 0.24865 0.93000
Cu	Cu	0.64334 0.15787 0.13379 0.87400
Cu	Cu	0.64350 0.13397 0.28191 0.89300
Cu	Cu	0.60410 0.14376 0.39647 0.89700
C 	C 	0.55417 0.16097 0.33217 0.28100
O 	O 	0.60348 0.22313 0.31901 -0.35000
C 	C 	0.69103 0.15111 0.20280 0.28800
O 	O 	0.60736 0.13334 0.29830 -0.64100
O 	O 	0.63454 0.17842 0.22597 -0.63500
O 	O 	0.58345 0.19255 0.15166 -0.34100
O 	O 	0.61043 0.15475 0.09528 -0.43100
O 	O 	0.56834 0.16198 0.39017 -0.37800
O 	O 	0.64945 0.08897 0.33247 -0.37300
C 	C 	0.63957 0.08079 0.39508 0.28800
C 	C 	0.62113 0.22107 0.36837 0.28100
O 	O 	0.63005 0.18932 0.38692 -0.38000
O 	O 	0.62679 0.10480 0.43298 -0.38300
O 	O 	0.56205 0.17671 0.27308 -0.34600
C 	C 	0.59627 0.18379 0.09447 0.29800
O 	O 	0.67947 0.13054 0.25062 -0.37800
O 	O 	0.67812 0.16795 0.15286 -0.41300
H 	H 	0.59864 0.11099 0.28237 0.16500
H 	H 	0.64525 0.19926 0.24021 0.18400
Cu	Cu	0.09797 0.87406 0.85542 0.92800
Cu	Cu	0.15647 0.90632 0.84598 0.87200
Cu	Cu	0.13646 0.84914 0.74282 0.89700
Cu	Cu	0.08109 0.82520 0.72687 0.90000
C 	C 	0.04529 0.86954 0.81301 0.28900
O 	O 	0.09054 0.82448 0.89564 -0.35300
C 	C 	0.19090 0.86021 0.77089 0.27600
O 	O 	0.10144 0.86670 0.74477 -0.63400
O 	O 	0.13489 0.86330 0.84566 -0.63800
O 	O 	0.10102 0.91865 0.91417 -0.36000
O 	O 	0.13120 0.94324 0.84214 -0.42500
O 	O 	0.05071 0.83778 0.78526 -0.37700
O 	O 	0.13657 0.83263 0.64401 -0.36900
C 	C 	0.11854 0.81208 0.61618 0.28800
C 	C 	0.09949 0.79467 0.86673 0.27500
O 	O 	0.10479 0.79373 0.79848 -0.37800
O 	O 	0.09431 0.81825 0.62990 -0.38300
O 	O 	0.06279 0.88838 0.84729 -0.35400
C 	C 	0.11446 0.94671 0.89363 0.28600
O 	O 	0.17329 0.83904 0.74254 -0.36600
O 	O 	0.18646 0.87743 0.83096 -0.40100
H 	H 	0.09807 0.88767 0.71340 0.16700
H 	H 	0.14122 0.84406 0.87778 0.17600
Cu	Cu	0.89247 0.85044 0.73471 0.93000
Cu	Cu	0.84716 0.87745 0.62058 0.87500
Cu	Cu	0.84790 0.90170 0.76864 0.89400
Cu	Cu	0.88746 0.89006 0.88318 0.89700
C 	C 	0.93674 0.86960 0.81747 0.28200
O 	O 	0.88513 0.80929 0.80270 -0.35100
C 	C 	0.80012 0.88573 0.69179 0.28600
O 	O 	0.88401 0.90011 0.78515 -0.64100
O 	O 	0.85547 0.85671 0.71277 -0.63600
O 	O 	0.90608 0.84160 0.63709 -0.34600
O 	O 	0.88046 0.88311 0.58569 -0.42900
O 	O 	0.92284 0.87052 0.87605 -0.37800
O 	O 	0.84332 0.94702 0.81879 -0.37400
C 	C 	0.85342 0.95467 0.88133 0.28900
C 	C 	0.87016 0.81290 0.85823 0.28000
O 	O 	0.86122 0.84491 0.87483 -0.38100
O 	O 	0.86535 0.92987 0.91946 -0.38300
O 	O 	0.92796 0.85384 0.75933 -0.34300
C 	C 	0.89492 0.85446 0.58010 0.29900
O 	O 	0.81248 0.90795 0.73485 -0.38200
O 	O 	0.81205 0.86931 0.63940 -0.41100
H 	H 	0.89333 0.92185 0.76861 0.16400
H 	H 	0.84447 0.83615 0.72689 0.17800
Cu	Cu	0.10259 0.15594 0.07944 0.92800
Cu	Cu	0.15858 0.11430 0.09267 0.87200
Cu	Cu	0.14390 0.17715 0.18770 0.89700
Cu	Cu	0.09441 0.21807 0.19001 0.90100
C 	C 	0.05173 0.17612 0.12378 0.28600
O 	O 	0.09971 0.20144 0.02085 -0.35400
C 	C 	0.19723 0.15696 0.15884 0.27900
O 	O 	0.10759 0.17049 0.18640 -0.64100
O 	O 	0.14055 0.16021 0.08633 -0.63600
O 	O 	0.09978 0.10685 0.03588 -0.35900
O 	O 	0.13039 0.08313 0.10752 -0.42800
O 	O 	0.06097 0.20780 0.14371 -0.37100
O 	O 	0.14463 0.19118 0.28739 -0.37300
C 	C 	0.12788 0.21354 0.31624 0.28700
C 	C 	0.11093 0.23171 0.03927 0.27700
O 	O 	0.11908 0.23598 0.10457 -0.37800
O 	O 	0.11297 0.23393 0.27643 -0.38300
O 	O 	0.06635 0.15143 0.09305 -0.35100
C 	C 	0.11323 0.07897 0.05740 0.28900
O 	O 	0.18141 0.18023 0.18902 -0.37300
O 	O 	0.19056 0.13914 0.10111 -0.40700
H 	H 	0.10094 0.15393 0.22339 0.16900
H 	H 	0.14842 0.17712 0.05192 0.17200
Cu	Cu	0.89372 0.19558 0.18207 0.93100
Cu	Cu	0.84549 0.16490 0.27819 0.87500
Cu	Cu	0.85177 0.14424 0.13179 0.89000
Cu	Cu	0.89758 0.15167 0.03836 0.89700
C 	C 	0.94206 0.17953 0.11732 0.28500
O 	O 	0.88888 0.23311 0.10501 -0.34800
C 	C 	0.80053 0.15735 0.19404 0.28700
O 	O 	0.88858 0.14431 0.13464 -0.64100
O 	O 	0.85638 0.18854 0.19090 -0.63900
O 	O 	0.90124 0.20927 0.28239 -0.34400
O 	O 	0.87689 0.16414 0.32690 -0.43000
O 	O 	0.93022 0.17755 0.05570 -0.38100
O 	O 	0.84882 0.09915 0.07979 -0.38200
C 	C 	0.86057 0.09087 0.01975 0.28500
C 	C 	0.87597 0.22724 0.04608 0.27600
O 	O 	0.86920 0.19410 0.02916 -0.39100
O 	O 	0.88255 0.10599 0.00186 -0.38500
O 	O 	0.93025 0.19268 0.17367 -0.34500
C 	C 	0.88934 0.19440 0.33621 0.30000
O 	O 	0.81447 0.14103 0.14480 -0.38300
O 	O 	0.81090 0.17174 0.25117 -0.40100
H 	H 	0.89630 0.12282 0.15756 0.16500
H 	H 	0.84558 0.20889 0.17452 0.19000
Cu	Cu	0.09768 0.69233 0.24472 0.93000
Cu	Cu	0.14748 0.67340 0.14528 0.87600
Cu	Cu	0.13800 0.63616 0.28407 0.89800
Cu	Cu	0.09057 0.63827 0.37245 0.89900
C 	C 	0.04816 0.67317 0.29667 0.28300
O 	O 	0.10113 0.72204 0.33532 -0.34800
C 	C 	0.18927 0.64366 0.22184 0.28100
O 	O 	0.10127 0.63783 0.27637 -0.63600
O 	O 	0.13512 0.68519 0.23981 -0.63800
O 	O 	0.09243 0.71125 0.14657 -0.35800
O 	O 	0.11589 0.66583 0.09950 -0.43100
O 	O 	0.05901 0.66749 0.35877 -0.37200
O 	O 	0.13942 0.58777 0.32365 -0.37200
C 	C 	0.12635 0.57619 0.37926 0.28700
C 	C 	0.11590 0.71136 0.38813 0.27500
O 	O 	0.12067 0.67671 0.39641 -0.39400
O 	O 	0.10349 0.58921 0.39448 -0.38300
O 	O 	0.06109 0.68941 0.24564 -0.35300
C 	C 	0.10063 0.69349 0.09063 0.29600
O 	O 	0.17530 0.63287 0.27644 -0.37300
O 	O 	0.18149 0.67023 0.18064 -0.40500
H 	H 	0.09366 0.61865 0.24632 0.17100
H 	H 	0.14548 0.70385 0.26418 0.17900
Cu	Cu	0.88740 0.66359 0.34164 0.92700
Cu	Cu	0.83123 0.62413 0.31908 0.87700
Cu	Cu	0.84824 0.68734 0.22892 0.89700
Cu	Cu	0.89841 0.72597 0.23227 0.89800
C 	C 	0.93845 0.68050 0.29684 0.28200
O 	O 	0.89012 0.70929 0.40065 -0.35500
C 	C 	0.79390 0.66873 0.25193 0.27800
O 	O 	0.88426 0.67883 0.23380 -0.64000
O 	O 	0.84972 0.66936 0.33008 -0.63600
O 	O 	0.88854 0.61434 0.38557 -0.35900
O 	O 	0.85901 0.59162 0.30922 -0.42700
O 	O 	0.93039 0.71364 0.28388 -0.37500
O 	O 	0.84928 0.70203 0.12957 -0.37200
C 	C 	0.86558 0.72577 0.10291 0.29000
C 	C 	0.87997 0.74003 0.38011 0.28100
O 	O 	0.87242 0.74369 0.31422 -0.38100
O 	O 	0.88194 0.74341 0.14356 -0.38500
O 	O 	0.92379 0.65742 0.33190 -0.35400
C 	C 	0.87496 0.58699 0.36218 0.28800
O 	O 	0.81075 0.69040 0.22128 -0.36400
O 	O 	0.79979 0.65000 0.30918 -0.40100
H 	H 	0.89098 0.66217 0.19708 0.16500
H 	H 	0.84155 0.68614 0.36421 0.18100
Cu	Cu	0.09666 0.34023 0.67206 0.93000
Cu	Cu	0.14420 0.36464 0.78398 0.87600
Cu	Cu	0.14249 0.38910 0.63474 0.89500
Cu	Cu	0.10261 0.37650 0.52150 0.89700
C 	C 	0.05286 0.35965 0.58817 0.28100
O 	O 	0.10242 0.29866 0.60384 -0.34900
C 	C 	0.19062 0.37204 0.70955 0.28600
O 	O 	0.10624 0.38863 0.61876 -0.63900
O 	O 	0.13410 0.34489 0.69230 -0.63300
O 	O 	0.08342 0.33226 0.77055 -0.34000
O 	O 	0.11161 0.36952 0.82383 -0.42800
O 	O 	0.06700 0.35778 0.53014 -0.37800
O 	O 	0.14779 0.43335 0.58140 -0.36500
C 	C 	0.13613 0.44094 0.52095 0.28600
C 	C 	0.12003 0.29993 0.55424 0.28100
O 	O 	0.12884 0.33138 0.53342 -0.37900
O 	O 	0.12492 0.41539 0.48322 -0.38600
O 	O 	0.06114 0.34582 0.64875 -0.34400
C 	C 	0.09690 0.34107 0.82658 0.29700
O 	O 	0.17812 0.39479 0.66790 -0.37900
O 	O 	0.17872 0.35458 0.76066 -0.41000
H 	H 	0.09732 0.41104 0.63345 0.16800
H 	H 	0.14464 0.32407 0.67708 0.18400
Cu	Cu	0.89127 0.38110 0.56005 0.92800
Cu	Cu	0.83631 0.42085 0.59260 0.87000
Cu	Cu	0.85571 0.35967 0.68235 0.89500
Cu	Cu	0.90894 0.32894 0.68267 0.90100
C 	C 	0.94446 0.36915 0.58963 0.28500
O 	O 	0.89345 0.33093 0.51734 -0.35000
C 	C 	0.80109 0.37594 0.67000 0.27800
O 	O 	0.89131 0.37326 0.67102 -0.63600
O 	O 	0.85435 0.37517 0.58045 -0.63900
O 	O 	0.88904 0.42693 0.50428 -0.35700
O 	O 	0.86414 0.45379 0.58782 -0.42800
O 	O 	0.93764 0.33765 0.61592 -0.37200
O 	O 	0.85796 0.34408 0.78157 -0.37000
C 	C 	0.87589 0.32281 0.80806 0.28700
C 	C 	0.88374 0.30222 0.54876 0.27800
O 	O 	0.88060 0.30182 0.61804 -0.38600
O 	O 	0.89944 0.32375 0.78326 -0.38700
O 	O 	0.92753 0.39026 0.55827 -0.34800
C 	C 	0.87797 0.45601 0.52980 0.28700
O 	O 	0.81868 0.35257 0.69091 -0.36700
O 	O 	0.80473 0.39640 0.61345 -0.40400
H 	H 	0.89705 0.39327 0.70210 0.16600
H 	H 	0.84527 0.35774 0.54947 0.17400
C 	C 	0.02534 0.36796 0.58093 -0.06000
C 	C 	0.01126 0.35239 0.52529 -0.00900
C 	C 	0.98462 0.35611 0.52296 0.00900
C 	C 	0.97182 0.37542 0.57694 -0.05700
C 	C 	0.98610 0.39386 0.62854 -0.01200
C 	C 	0.01278 0.39023 0.63090 0.00400
H 	H 	0.02091 0.33618 0.48541 0.05200
H 	H 	0.97634 0.40944 0.66917 0.03900
C 	C 	0.02709 0.40943 0.68466 0.07800
C 	C 	0.97039 0.33866 0.46677 0.09300
N 	N 	0.03856 0.42479 0.72772 -0.11400
N 	N 	0.95897 0.32467 0.42184 -0.10100
C 	C 	0.87540 0.55227 0.40141 -0.07400
C 	C 	0.89893 0.53538 0.41516 -0.00600
C 	C 	0.90011 0.50424 0.45775 0.00700
C 	C 	0.87747 0.48961 0.48694 -0.07300
C 	C 	0.85397 0.50651 0.47322 -0.01200
C 	C 	0.85279 0.53770 0.43099 0.00300
H 	H 	0.91638 0.54676 0.39343 0.04800
H 	H 	0.83653 0.49528 0.49528 0.01900
C 	C 	0.82839 0.55520 0.42039 0.03900
C 	C 	0.92470 0.48826 0.47320 0.08800
N 	N 	0.80881 0.56914 0.41206 -0.14600
N 	N 	0.94439 0.47546 0.48559 -0.10400
C 	C 	0.13987 0.47680 0.48818 -0.06200
C 	C 	0.14486 0.47896 0.41499 -0.01000
C 	C 	0.14189 0.51172 0.37868 0.00500
C 	C 	0.13484 0.54320 0.41654 -0.06300
C 	C 	0.13266 0.54175 0.49083 -0.01000
C 	C 	0.13480 0.50874 0.52675 0.00200
H 	H 	0.14974 0.45466 0.38562 0.05100
H 	H 	0.12801 0.56611 0.52030 0.04200
C 	C 	0.13039 0.50766 0.60253 0.07800
C 	C 	0.14480 0.51225 0.30232 0.08700
N 	N 	0.12685 0.50682 0.66323 -0.11800
N 	N 	0.14713 0.51261 0.24115 -0.11500
C 	C 	0.01989 0.66993 0.29020 -0.06000
C 	C 	0.00706 0.68915 0.23654 -0.01100
C 	C 	0.98034 0.68944 0.23379 0.00600
C 	C 	0.96605 0.67262 0.28827 -0.06300
C 	C 	0.97871 0.65092 0.33833 -0.00900
C 	C 	0.00545 0.64839 0.33795 0.00300
H 	H 	0.01785 0.70413 0.19714 0.06500
H 	H 	0.96781 0.63626 0.37803 0.05600
C 	C 	0.01769 0.62213 0.38353 0.07500
C 	C 	0.96776 0.70592 0.17354 0.07200
N 	N 	0.02744 0.60105 0.42003 -0.12100
N 	N 	0.95769 0.71909 0.12526 -0.12200
C 	C 	0.88100 0.26868 0.50781 -0.06000
C 	C 	0.86216 0.26698 0.45519 -0.01300
C 	C 	0.86386 0.24144 0.40058 0.01000
C 	C 	0.88425 0.21639 0.39980 -0.08700
C 	C 	0.90168 0.21582 0.45632 0.00200
C 	C 	0.90024 0.24193 0.51021 0.00300
H 	H 	0.84711 0.28718 0.45404 0.03800
H 	H 	0.91709 0.19618 0.45654 0.04600
C 	C 	0.91935 0.24229 0.56563 0.08000
C 	C 	0.84551 0.24274 0.34333 0.03500
N 	N 	0.93467 0.24260 0.61001 -0.11700
N 	N 	0.83071 0.24421 0.29777 -0.12000
C 	C 	0.87320 0.25675 0.99299 -0.06100
C 	C 	0.85259 0.25596 0.94500 -0.01300
C 	C 	0.85187 0.27983 0.88697 0.00300
C 	C 	0.87163 0.30536 0.87762 -0.06300
C 	C 	0.89040 0.30903 0.93024 -0.00900
C 	C 	0.89206 0.28411 0.98587 0.00500
H 	H 	0.83760 0.23595 0.95138 0.04800
H 	H 	0.90502 0.32967 0.92464 0.04900
C 	C 	0.91430 0.28516 0.03146 0.08800
C 	C 	0.83123 0.27714 0.83622 0.08200
N 	N 	0.93215 0.28606 0.06777 -0.10300
N 	N 	0.81469 0.27501 0.79557 -0.10700
C 	C 	0.12538 0.26737 0.51119 -0.06200
C 	C 	0.10517 0.24413 0.49324 -0.01200
C 	C 	0.10733 0.22120 0.43438 0.00500
C 	C 	0.12962 0.22208 0.39235 -0.06500
C 	C 	0.15126 0.24033 0.41786 -0.00700
C 	C 	0.14932 0.26264 0.47791 0.00300
H 	H 	0.08720 0.24573 0.52184 0.05600
H 	H 	0.16905 0.23917 0.38830 0.05000
C 	C 	0.17198 0.27956 0.50632 0.08200
C 	C 	0.08602 0.19844 0.41475 0.06900
N 	N 	0.19017 0.29299 0.52926 -0.11200
N 	N 	0.06896 0.18021 0.39897 -0.11800
C 	C 	0.11128 0.26213 0.98877 -0.05500
C 	C 	0.11874 0.25535 0.91855 -0.01500
C 	C 	0.11347 0.28036 0.86484 0.00700
C 	C 	0.10166 0.31363 0.88183 -0.09500
C 	C 	0.09560 0.32144 0.95276 0.00400
C 	C 	0.09993 0.29569 0.00617 -0.00700
H 	H 	0.12756 0.22968 0.90513 0.04200
H 	H 	0.08695 0.34723 0.96615 0.04300
C 	C 	0.09169 0.30336 0.07789 0.07900
C 	C 	0.11957 0.27103 0.79229 0.05000
N 	N 	0.08507 0.30951 0.13532 -0.12300
N 	N 	0.12449 0.26304 0.73443 -0.11700
C 	C 	0.02388 0.17286 0.11662 -0.05900
C 	C 	0.00991 0.15485 0.16941 -0.01100
C 	C 	0.98314 0.15685 0.17039 0.00300
C 	C 	0.97020 0.17717 0.11800 -0.06000
C 	C 	0.98423 0.19427 0.06404 -0.00900
C 	C 	0.01091 0.19208 0.06290 0.00900
H 	H 	0.01989 0.14003 0.21073 0.04200
H 	H 	0.97435 0.20969 0.02336 0.05400
C 	C 	0.02493 0.21015 0.00701 0.08700
C 	C 	0.96911 0.13765 0.22474 0.08000
N 	N 	0.03619 0.22462 0.96235 -0.09900
N 	N 	0.95787 0.12229 0.26827 -0.11400
C 	C 	0.89198 0.83056 0.51780 -0.09300
C 	C 	0.86735 0.82337 0.49134 -0.00300
C 	C 	0.86324 0.79438 0.44480 -0.00500
C 	C 	0.88396 0.77250 0.42389 -0.06200
C 	C 	0.90881 0.78144 0.44578 -0.01800
C 	C 	0.91295 0.81051 0.49198 0.01800
H 	H 	0.85120 0.83921 0.50970 -0.01000
H 	H 	0.92491 0.76551 0.42725 0.05300
C 	C 	0.93877 0.81982 0.51220 0.08700
C 	C 	0.83758 0.78641 0.42105 0.07500
N 	N 	0.95945 0.82728 0.52842 -0.10300
N 	N 	0.81703 0.78002 0.40199 -0.11000
C 	C 	0.86324 0.73699 0.02809 -0.06900
C 	C 	0.88528 0.73657 0.98578 -0.00300
C 	C 	0.88748 0.75976 0.92732 0.00100
C 	C 	0.86668 0.78232 0.90825 -0.06400
C 	C 	0.84336 0.77873 0.94465 -0.01100
C 	C 	0.84158 0.75634 0.00466 0.00500
H 	H 	0.90165 0.72061 0.00232 0.03700
H 	H 	0.82700 0.79476 0.92844 0.04900
C 	C 	0.81781 0.75464 0.04360 0.08700
C 	C 	0.91178 0.76223 0.89108 0.09100
N 	N 	0.79877 0.75327 0.07478 -0.10300
N 	N 	0.93127 0.76418 0.86223 -0.10300
C 	C 	0.84877 0.99057 0.91303 -0.06800
C 	C 	0.85414 0.02169 0.87315 -0.00900
C 	C 	0.85562 0.05550 0.90646 0.00000
C 	C 	0.85243 0.05808 0.98086 -0.05500
C 	C 	0.84416 0.02764 0.01908 -0.02200
C 	C 	0.84191 0.99406 0.98530 0.01500
H 	H 	0.85814 0.01939 0.81674 0.04000
H 	H 	0.84038 0.02978 0.07561 0.04900
C 	C 	0.83201 0.96357 0.02463 0.08000
C 	C 	0.86001 0.08741 0.86389 0.08000
N 	N 	0.82407 0.93915 0.05615 -0.10800
N 	N 	0.86352 0.11298 0.82978 -0.11500
C 	C 	0.12503 0.78658 0.55904 -0.06400
C 	C 	0.12662 0.79898 0.48876 -0.00500
C 	C 	0.12592 0.77439 0.43197 0.00300
C 	C 	0.12270 0.73705 0.44570 -0.06300
C 	C 	0.12377 0.72459 0.51620 -0.01200
C 	C 	0.12508 0.74913 0.57270 0.00300
H 	H 	0.12753 0.82780 0.47820 0.04600
H 	H 	0.12246 0.69586 0.52726 0.04300
C 	C 	0.12568 0.73571 0.64482 0.06900
C 	C 	0.12932 0.78755 0.36031 0.08100
N 	N 	0.12617 0.72497 0.70258 -0.10800
N 	N 	0.13206 0.79810 0.30291 -0.11600
C 	C 	0.09900 0.76103 0.90820 -0.05500
C 	C 	0.07589 0.74998 0.93920 -0.01600
C 	C 	0.07586 0.72496 0.99502 0.02500
C 	C 	0.09919 0.71092 0.02030 -0.09100
C 	C 	0.12191 0.71856 0.98337 0.00500
C 	C 	0.12192 0.74362 0.92750 -0.00700
H 	H 	0.05806 0.76226 0.92221 0.05600
H 	H 	0.13981 0.70675 0.00100 0.00700
C 	C 	0.14570 0.75267 0.89273 0.07600
C 	C 	0.05186 0.71393 0.02616 0.08100
N 	N 	0.16473 0.75995 0.86482 -0.11300
N 	N 	0.03261 0.70507 0.05098 -0.10700
C 	C 	0.11323 0.98071 0.93505 -0.06800
C 	C 	0.11317 0.97911 0.00967 -0.02000
C 	C 	0.11259 0.01089 0.05029 0.00600
C 	C 	0.11239 0.04488 0.01612 -0.08300
C 	C 	0.11191 0.04646 0.94149 -0.00900
C 	C 	0.11216 0.01467 0.90090 0.00000
H 	H 	0.11372 0.95306 0.03616 0.04400
H 	H 	0.11155 0.07250 0.91496 0.04100
C 	C 	0.11050 0.01717 0.82441 0.08100
C 	C 	0.11140 0.00830 0.12683 0.07900
N 	N 	0.10917 0.01920 0.76314 -0.11400
N 	N 	0.11044 0.00620 0.18815 -0.11100
C 	C 	0.01823 0.87839 0.82415 -0.06000
C 	C 	0.00461 0.89525 0.76923 -0.01100
C 	C 	0.97784 0.89428 0.76836 0.00400
C 	C 	0.96450 0.87617 0.82307 -0.06000
C 	C 	0.97810 0.86222 0.88125 -0.00900
C 	C 	0.00486 0.86328 0.88206 0.00900
H 	H 	0.01489 0.90755 0.72535 0.03900
H 	H 	0.96792 0.84908 0.92434 0.05400
C 	C 	0.01851 0.84715 0.94083 0.09000
C 	C 	0.96421 0.91172 0.71102 0.08000
N 	N 	0.02947 0.83421 0.98782 -0.10500
N 	N 	0.95328 0.92565 0.66509 -0.11300
C 	C 	0.71908 0.15232 0.20066 -0.06500
C 	C 	0.73138 0.18599 0.20038 -0.00900
C 	C 	0.75797 0.18807 0.19408 0.00600
C 	C 	0.77255 0.15611 0.18888 -0.06500
C 	C 	0.76021 0.12247 0.18693 -0.01100
C 	C 	0.73359 0.12037 0.19279 0.00500
H 	H 	0.72019 0.21060 0.20468 0.04500
H 	H 	0.77142 0.09787 0.18254 0.04400
C 	C 	0.72129 0.08543 0.18927 0.08000
C 	C 	0.77012 0.22314 0.19108 0.08200
N 	N 	0.71145 0.05743 0.18646 -0.11300
N 	N 	0.77984 0.25122 0.18862 -0.11000
C 	C 	0.22420 0.15590 0.18215 -0.06500
C 	C 	0.23799 0.18825 0.18966 -0.00800
C 	C 	0.26341 0.18773 0.21361 0.00600
C 	C 	0.27523 0.15442 0.23037 -0.06500
C 	C 	0.26141 0.12215 0.22266 -0.01400
C 	C 	0.23606 0.12268 0.19879 0.00100
H 	H 	0.22893 0.21384 0.17696 0.04900
H 	H 	0.27042 0.09654 0.23556 0.02800
C 	C 	0.22210 0.08906 0.19360 0.05700
C 	C 	0.27692 0.22151 0.22233 0.08900
N 	N 	0.21093 0.06213 0.18945 -0.13100
N 	N 	0.28771 0.24860 0.22918 -0.10500
C 	C 	0.47347 0.14375 0.33792 -0.05800
C 	C 	0.48827 0.12590 0.28671 -0.01100
C 	C 	0.51493 0.12960 0.28666 0.00400
C 	C 	0.52692 0.15131 0.33858 -0.06200
C 	C 	0.51231 0.16586 0.39421 -0.00900
C 	C 	0.48567 0.16213 0.39417 0.00800
H 	H 	0.47894 0.11089 0.24449 0.04000
H 	H 	0.52155 0.18155 0.43562 0.05200
C 	C 	0.47085 0.17894 0.44993 0.09000
C 	C 	0.52981 0.11127 0.23292 0.07600
N 	N 	0.45895 0.19242 0.49451 -0.10500
N 	N 	0.54175 0.09662 0.18989 -0.11700
C 	C 	0.71839 0.87857 0.69682 -0.06600
C 	C 	0.73239 0.87714 0.76044 -0.01000
C 	C 	0.75907 0.87949 0.75957 0.00500
C 	C 	0.77201 0.88431 0.69448 -0.06600
C 	C 	0.75799 0.88651 0.63097 -0.00900
C 	C 	0.73133 0.88328 0.63166 0.00500
H 	H 	0.72249 0.87374 0.81067 0.04100
H 	H 	0.76789 0.89037 0.58086 0.04400
C 	C 	0.71756 0.88351 0.56508 0.08200
C 	C 	0.77304 0.87546 0.82538 0.07700
N 	N 	0.70652 0.88371 0.51176 -0.11100
N 	N 	0.78424 0.87221 0.87805 -0.11300
C 	C 	0.63976 0.97888 0.49799 -0.06000
C 	C 	0.64895 0.00926 0.53467 -0.01000
C 	C 	0.65199 0.04227 0.49921 0.00600
C 	C 	0.64509 0.04519 0.42687 -0.06300
C 	C 	0.63933 0.01379 0.38834 -0.01100
C 	C 	0.63690 0.98055 0.42343 0.00400
H 	H 	0.65258 0.00767 0.59135 0.05100
H 	H 	0.63537 0.01555 0.33185 0.04300
C 	C 	0.63138 0.94834 0.38276 0.07700
C 	C 	0.66234 0.07292 0.53714 0.08600
N 	N 	0.62696 0.92253 0.35022 -0.11500
N 	N 	0.67064 0.09746 0.56754 -0.10900
C 	C 	0.26761 0.85549 0.68879 -0.06400
C 	C 	0.25663 0.88888 0.70662 -0.01300
C 	C 	0.23167 0.89070 0.73330 0.00100
C 	C 	0.21741 0.85867 0.74334 -0.06200
C 	C 	0.22829 0.82520 0.72505 -0.00900
C 	C 	0.25319 0.82343 0.69737 0.00600
H 	H 	0.26756 0.91357 0.69957 0.03100
H 	H 	0.21734 0.80054 0.73210 0.05600
C 	C 	0.26333 0.78885 0.67544 0.09100
C 	C 	0.22054 0.92569 0.74795 0.05900
N 	N 	0.27144 0.76113 0.65790 -0.10700
N 	N 	0.21164 0.95371 0.75967 -0.13100
C 	C 	0.37581 0.97284 0.51714 -0.07500
C 	C 	0.39935 0.98903 0.50067 -0.00600
C 	C 	0.40031 0.02045 0.45889 0.00700
C 	C 	0.37744 0.03608 0.43341 -0.07400
C 	C 	0.35392 0.01994 0.45009 -0.01200
C 	C 	0.35295 0.98845 0.49135 0.00400
H 	H 	0.41697 0.97686 0.51955 0.04800
H 	H 	0.33630 0.03198 0.43094 0.01800
C 	C 	0.32847 0.97168 0.50471 0.03900
C 	C 	0.42487 0.03568 0.44040 0.08700
N 	N 	0.30882 0.95833 0.51526 -0.14500
N 	N 	0.44454 0.04788 0.42558 -0.10400
C 	C 	0.46650 0.85493 0.62481 -0.06400
C 	C 	0.47924 0.87495 0.57228 -0.00700
C 	C 	0.50600 0.87756 0.57276 0.00200
C 	C 	0.52035 0.85780 0.62367 -0.05800
C 	C 	0.50737 0.84047 0.67954 -0.01200
C 	C 	0.48065 0.83992 0.68145 0.00800
H 	H 	0.46840 0.88815 0.53054 0.05500
H 	H 	0.51804 0.82709 0.72132 0.06600
C 	C 	0.46789 0.82462 0.74260 0.07200
C 	C 	0.51828 0.90226 0.52402 0.07700
N 	N 	0.45769 0.81238 0.79159 -0.11700
N 	N 	0.52806 0.92209 0.48497 -0.12000
C 	C 	0.72403 0.36987 0.74814 -0.06700
C 	C 	0.73799 0.40212 0.75465 -0.01000
C 	C 	0.76332 0.40411 0.73073 -0.00100
C 	C 	0.77507 0.37346 0.70028 -0.06000
C 	C 	0.76154 0.34073 0.69655 -0.00800
C 	C 	0.73609 0.33877 0.72013 0.00700
H 	H 	0.72890 0.42599 0.77668 0.03200
H 	H 	0.77065 0.31696 0.67419 0.05200
C 	C 	0.72268 0.30467 0.71639 0.08400
C 	C 	0.77721 0.43768 0.73813 0.06100
N 	N 	0.71193 0.27736 0.71337 -0.11100
N 	N 	0.78833 0.46456 0.74406 -0.12800
C 	C 	0.63004 0.29994 0.53016 -0.06300
C 	C 	0.65134 0.27935 0.50984 -0.00700
C 	C 	0.64981 0.25610 0.45106 0.00300
C 	C 	0.62657 0.25306 0.41327 -0.06200
C 	C 	0.60694 0.27808 0.42671 -0.01100
C 	C 	0.60866 0.30160 0.48480 0.00400
H 	H 	0.66844 0.27955 0.54248 0.05100
H 	H 	0.58965 0.27762 0.39494 0.05700
C 	C 	0.58779 0.32598 0.49991 0.07000
C 	C 	0.67214 0.23596 0.42937 0.08300
N 	N 	0.57106 0.34551 0.51207 -0.11600
N 	N 	0.69003 0.21983 0.41193 -0.11200
C 	C 	0.61049 0.26382 0.93407 -0.05900
C 	C 	0.61772 0.27035 0.00455 -0.01700
C 	C 	0.61265 0.24489 0.05763 0.00700
C 	C 	0.60105 0.21157 0.03980 -0.09700
C 	C 	0.59507 0.20414 0.96867 0.00200
C 	C 	0.59930 0.23024 0.91587 -0.00100
H 	H 	0.62638 0.29605 0.01861 0.04200
H 	H 	0.58654 0.17836 0.95464 0.04300
C 	C 	0.59111 0.22293 0.84396 0.07700
C 	C 	0.61889 0.25371 0.13035 0.05200
N 	N 	0.58452 0.21706 0.78638 -0.12300
N 	N 	0.62390 0.26125 0.18838 -0.11700
C 	C 	0.27238 0.36410 0.70905 -0.06600
C 	C 	0.25902 0.36539 0.64438 -0.00800
C 	C 	0.23243 0.36955 0.64355 0.00400
C 	C 	0.21884 0.37163 0.70827 -0.06300
C 	C 	0.23231 0.37162 0.77285 -0.01000
C 	C 	0.25894 0.36813 0.77361 0.00600
H 	H 	0.26939 0.36340 0.59458 0.04000
H 	H 	0.22201 0.37426 0.82263 0.04300
C 	C 	0.27226 0.36867 0.84089 0.08300
C 	C 	0.21934 0.37197 0.57609 0.08600
N 	N 	0.28290 0.36926 0.89480 -0.10600
N 	N 	0.20890 0.37406 0.52201 -0.10900
C 	C 	0.39076 0.25751 0.40043 -0.06100
C 	C 	0.41447 0.26985 0.42548 -0.01300
C 	C 	0.41561 0.29617 0.47886 0.01700
C 	C 	0.39280 0.31034 0.50741 -0.08700
C 	C 	0.36935 0.30172 0.47505 -0.00600
C 	C 	0.36821 0.27508 0.42221 -0.00400
H 	H 	0.43196 0.25739 0.40638 0.05200
H 	H 	0.35180 0.31370 0.49475 -0.00400
C 	C 	0.34368 0.26434 0.39393 0.06900
C 	C 	0.44019 0.30788 0.50524 0.08900
N 	N 	0.32404 0.25568 0.37133 -0.11200
N 	N 	0.45988 0.31725 0.52641 -0.10200
C 	C 	0.36999 0.25577 0.91423 -0.06500
C 	C 	0.38803 0.22765 0.91749 -0.01400
C 	C 	0.38848 0.20414 0.97577 0.00900
C 	C 	0.37118 0.20926 0.03238 -0.06600
C 	C 	0.35103 0.23393 0.02448 -0.01600
C 	C 	0.35004 0.25675 0.96498 0.00600
H 	H 	0.40240 0.22501 0.87627 0.05500
H 	H 	0.33674 0.23642 0.06600 0.04900
C 	C 	0.32806 0.27980 0.95499 0.08300
C 	C 	0.40670 0.17479 0.97708 0.08400
N 	N 	0.31040 0.29821 0.94705 -0.10700
N 	N 	0.42130 0.15128 0.97811 -0.11200
C 	C 	0.52261 0.34974 0.80430 -0.05700
C 	C 	0.50835 0.36510 0.74889 -0.01100
C 	C 	0.48161 0.36211 0.74812 0.00400
C 	C 	0.46895 0.34339 0.80334 -0.06000
C 	C 	0.48323 0.32927 0.86014 -0.01000
C 	C 	0.50990 0.33237 0.86089 0.00700
H 	H 	0.51811 0.37859 0.70545 0.04300
H 	H 	0.47360 0.31518 0.90305 0.05200
C 	C 	0.52420 0.31687 0.91916 0.09000
C 	C 	0.46734 0.37868 0.69100 0.08400
N 	N 	0.53568 0.30445 0.96572 -0.10300
N 	N 	0.45589 0.39193 0.64526 -0.11000
C 	C 	0.71671 0.66570 0.17376 -0.06300
C 	C 	0.72830 0.69915 0.18851 -0.00700
C 	C 	0.75336 0.70062 0.21505 0.00800
C 	C 	0.76720 0.66828 0.22609 -0.06200
C 	C 	0.75549 0.63492 0.21218 -0.01300
C 	C 	0.73039 0.63341 0.18646 0.00100
H 	H 	0.71778 0.72402 0.17950 0.05700
H 	H 	0.76598 0.61003 0.22129 0.03100
C 	C 	0.71855 0.59857 0.17531 0.05800
C 	C 	0.76429 0.73526 0.23340 0.09600
N 	N 	0.70907 0.57065 0.16640 -0.13200
N 	N 	0.77304 0.76302 0.24812 -0.10200
C 	C 	0.59796 0.81528 0.89897 -0.08000
C 	C 	0.62072 0.80788 0.93599 -0.00900
C 	C 	0.62091 0.78259 0.99147 0.00600
C 	C 	0.59814 0.76470 0.01038 -0.06700
C 	C 	0.57497 0.77530 0.97907 -0.00700
C 	C 	0.57476 0.80055 0.92364 0.01200
H 	H 	0.63852 0.82012 0.91878 0.00800
H 	H 	0.55724 0.76260 0.99568 0.05300
C 	C 	0.55068 0.81121 0.89243 0.08800
C 	C 	0.64475 0.77384 0.02623 0.06800
N 	N 	0.53137 0.81975 0.86756 -0.10700
N 	N 	0.66383 0.76680 0.05412 -0.11200
C 	C 	0.62582 0.73972 0.36105 -0.06500
C 	C 	0.62675 0.72700 0.43122 -0.00400
C 	C 	0.62613 0.75139 0.48836 0.00300
C 	C 	0.62369 0.78889 0.47508 -0.06000
C 	C 	0.62548 0.80158 0.40483 -0.01200
C 	C 	0.62668 0.77721 0.34800 0.00500
H 	H 	0.62703 0.69812 0.44136 0.04600
H 	H 	0.62479 0.83039 0.39415 0.04900
C 	C 	0.62788 0.79087 0.27612 0.07200
C 	C 	0.62882 0.73783 0.55997 0.08300
N 	N 	0.62885 0.80180 0.21854 -0.10700
N 	N 	0.63098 0.72694 0.61732 -0.11600
C 	C 	0.61046 0.48100 0.90364 -0.08200
C 	C 	0.60972 0.47919 0.97823 -0.00500
C 	C 	0.60995 0.51086 0.01923 -0.00700
C 	C 	0.61122 0.54493 0.98554 -0.06400
C 	C 	0.61134 0.54676 0.91093 -0.01900
C 	C 	0.61083 0.51510 0.86990 0.00600
H 	H 	0.60922 0.45306 0.00442 0.03600
H 	H 	0.61201 0.57290 0.88477 0.04400
C 	C 	0.60993 0.51792 0.79337 0.07800
C 	C 	0.60814 0.50813 0.09566 0.08200
N 	N 	0.60920 0.52021 0.73205 -0.11200
N 	N 	0.60668 0.50592 0.15689 -0.11400
C 	C 	0.26940 0.62132 0.21212 -0.06300
C 	C 	0.25541 0.62493 0.14896 -0.00900
C 	C 	0.22887 0.62963 0.15118 0.00400
C 	C 	0.21626 0.63211 0.21748 -0.06300
C 	C 	0.22996 0.62512 0.28014 -0.00800
C 	C 	0.25632 0.61896 0.27762 0.00500
H 	H 	0.26525 0.62516 0.09821 0.05000
H 	H 	0.22020 0.62523 0.33102 0.05400
C 	C 	0.26969 0.60942 0.34214 0.07600
C 	C 	0.21468 0.63093 0.08534 0.07000
N 	N 	0.28039 0.60176 0.39383 -0.11900
N 	N 	0.20333 0.63195 0.03258 -0.12400
C 	C 	0.35573 0.71096 0.96497 -0.05900
C 	C 	0.35705 0.69817 0.89479 -0.01000
C 	C 	0.35684 0.72247 0.83776 0.00500
C 	C 	0.35523 0.75993 0.85077 -0.06100
C 	C 	0.35055 0.77230 0.92001 -0.00600
C 	C 	0.35055 0.74795 0.97717 0.00800
H 	H 	0.35981 0.66954 0.88474 0.04700
H 	H 	0.34822 0.80102 0.92981 0.04800
C 	C 	0.34505 0.76105 0.04785 0.07900
C 	C 	0.35929 0.70889 0.76606 0.07500
N 	N 	0.34063 0.77158 0.10445 -0.10800
N 	N 	0.36126 0.69804 0.70862 -0.10900
C 	C 	0.38376 0.70430 0.37680 -0.08600
C 	C 	0.39864 0.70033 0.43820 -0.00000
C 	C 	0.39607 0.72483 0.49462 0.00400
C 	C 	0.37846 0.75366 0.48944 -0.05900
C 	C 	0.36249 0.75619 0.42993 -0.01200
C 	C 	0.36491 0.73159 0.37384 0.00800
H 	H 	0.41262 0.67872 0.44137 0.04500
H 	H 	0.34868 0.77802 0.42637 0.03900
C 	C 	0.34788 0.73442 0.31364 0.05000
C 	C 	0.41215 0.72092 0.55658 0.08200
N 	N 	0.33419 0.73677 0.26557 -0.11600
N 	N 	0.42502 0.71780 0.60624 -0.11700
C 	C 	0.34641 0.52238 0.99921 -0.05500
C 	C 	0.34367 0.48958 0.03584 -0.01700
C 	C 	0.34387 0.45680 0.99850 0.01400
C 	C 	0.34735 0.45691 0.92408 -0.06500
C 	C 	0.34605 0.48978 0.88704 -0.00600
C 	C 	0.34539 0.52251 0.92432 0.00100
H 	H 	0.34303 0.48945 0.09348 0.04900
H 	H 	0.34722 0.48998 0.82947 0.04900
C 	C 	0.34470 0.55620 0.88547 0.07400
C 	C 	0.34062 0.42324 0.03673 0.07700
N 	N 	0.34415 0.58320 0.85441 -0.11500
N 	N 	0.33801 0.39635 0.06733 -0.10900
C 	C 	0.51724 0.64911 0.10093 -0.06100
C 	C 	0.50334 0.63575 0.15894 -0.01200
C 	C 	0.47656 0.63622 0.15814 0.00300
C 	C 	0.46350 0.65028 0.09859 -0.06200
C 	C 	0.47743 0.66149 0.03877 -0.01200
C 	C 	0.50417 0.66099 0.03966 0.00600
H 	H 	0.51339 0.62630 0.20586 0.03700
H 	H 	0.46744 0.67163 0.99231 0.05600
C 	C 	0.51811 0.67423 0.97866 0.09300
C 	C 	0.46266 0.62206 0.21840 0.07700
N 	N 	0.52930 0.68487 0.92987 -0.10500
N 	N 	0.45151 0.61073 0.26664 -0.11500
