data_crystal

_cell_length_a 37.98875
_cell_length_b 38.19644
_cell_length_c 21.63487
_cell_angle_alpha 91.59085
_cell_angle_beta  90.28614
_cell_angle_gamma 90.01089

_symmetry_space_group_name_	'P 1'
_symmetry_space_group_name_H-M	'P 1'

loop_
_symmetry_equiv_pos_as_xyz
  x,y,z

loop_
_atom_site_label
_atom_site_type_symbol
_atom_site_fract_x
_atom_site_fract_y
_atom_site_fract_z
_atom_site_charge
Cd	Cd	0.96421 0.86572 0.25771 1.25100
Cd	Cd	0.01345 0.91794 0.36817 1.23700
O 	O 	0.92597 0.82304 0.30638 -0.29700
O 	O 	0.92682 0.82768 0.20566 -0.32700
C 	C 	0.91431 0.81157 0.25324 0.27500
O 	O 	0.98731 0.90858 0.20004 -0.28400
O 	O 	0.03100 0.92293 0.26946 -0.37000
C 	C 	0.00998 0.93183 0.22366 0.31700
C 	C 	0.93005 0.92107 0.32475 0.32700
O 	O 	0.01099 0.85855 0.34501 -0.42100
O 	O 	0.91003 0.90893 0.27966 -0.21600
O 	O 	0.95830 0.90313 0.33475 -0.47000
C 	C 	0.03070 0.84122 0.30591 0.28200
O 	O 	0.01669 0.83438 0.25179 -0.29000
Cd	Cd	0.02581 0.87305 0.03620 1.25700
Cd	Cd	0.04107 0.91114 0.89079 1.24600
O 	O 	0.02324 0.80915 0.03043 -0.26300
O 	O 	0.01582 0.83775 0.11834 -0.28800
C 	C 	0.01513 0.80766 0.08834 0.27600
O 	O 	0.03852 0.92973 0.06109 -0.31400
O 	O 	0.02290 0.94907 0.96551 -0.30800
C 	C 	0.03878 0.95446 0.01924 0.29700
C 	C 	0.09406 0.87034 0.98338 0.30300
O 	O 	0.99602 0.87710 0.92708 -0.36000
O 	O 	0.09564 0.86294 0.04207 -0.16600
O 	O 	0.06273 0.87320 0.96073 -0.49600
C 	C 	0.96757 0.88809 0.95460 0.28300
O 	O 	0.96794 0.88718 0.01480 -0.27800
C 	C 	0.94653 0.69211 0.01508 0.13800
N 	N 	0.95162 0.65784 0.02795 -0.13400
C 	C 	0.95073 0.63309 0.98171 0.12600
N 	N 	0.94113 0.64206 0.92383 -0.14200
C 	C 	0.93481 0.67600 0.91079 0.13400
N 	N 	0.93865 0.70119 0.95606 -0.13500
C 	C 	0.89494 0.68283 0.35002 0.12100
N 	N 	0.90242 0.64942 0.33141 -0.13600
C 	C 	0.90876 0.62460 0.37379 0.13400
N 	N 	0.90786 0.63337 0.43504 -0.14200
C 	C 	0.90046 0.66672 0.45406 0.13500
N 	N 	0.89298 0.69123 0.41148 -0.13400
Cd	Cd	0.91854 0.05486 0.73228 1.25100
Cd	Cd	0.97994 0.05574 0.85731 1.23500
O 	O 	0.86342 0.08217 0.76492 -0.25200
O 	O 	0.87012 0.06238 0.66961 -0.33000
C 	C 	0.84925 0.07661 0.71110 0.27100
O 	O 	0.97052 0.03847 0.68856 -0.33200
O 	O 	0.99444 0.01914 0.77919 -0.34000
C 	C 	0.99826 0.02846 0.72149 0.28400
C 	C 	0.95323 0.11755 0.76741 0.30400
O 	O 	0.92526 0.02939 0.84401 -0.32600
O 	O 	0.93824 0.12133 0.71356 -0.23700
O 	O 	0.94674 0.08874 0.79473 -0.49500
C 	C 	0.91794 0.99885 0.81868 0.30100
O 	O 	0.90861 0.99848 0.76070 -0.30400
Cd	Cd	0.86510 0.09398 0.51255 1.24700
Cd	Cd	0.91207 0.06436 0.37910 1.22300
O 	O 	0.80137 0.09062 0.49789 -0.27700
O 	O 	0.82416 0.10986 0.58566 -0.33300
C 	C 	0.79583 0.10322 0.55309 0.27400
O 	O 	0.92146 0.08849 0.54659 -0.34700
O 	O 	0.94535 0.09332 0.45005 -0.35700
C 	C 	0.94830 0.08406 0.50807 0.29400
C 	C 	0.86944 0.02111 0.48410 0.32200
O 	O 	0.87281 0.10966 0.39631 -0.38100
O 	O 	0.85878 0.02638 0.54100 -0.22400
O 	O 	0.87177 0.04889 0.45149 -0.50400
C 	C 	0.88011 0.14158 0.41459 0.30500
O 	O 	0.87680 0.14853 0.47361 -0.32100
C 	C 	0.71535 0.06926 0.80856 0.12700
N 	N 	0.71730 0.08740 0.86352 -0.12800
C 	C 	0.69140 0.08414 0.90611 0.14000
N 	N 	0.66380 0.06240 0.89388 -0.14200
C 	C 	0.66173 0.04439 0.83901 0.13400
N 	N 	0.68778 0.04742 0.79680 -0.13700
C 	C 	0.67423 0.14661 0.45991 0.12600
N 	N 	0.63955 0.14118 0.47099 -0.13900
C 	C 	0.61706 0.13313 0.42372 0.13400
N 	N 	0.62908 0.13244 0.36467 -0.14200
C 	C 	0.66336 0.13955 0.35287 0.13600
N 	N 	0.68595 0.14650 0.40054 -0.12600
Cd	Cd	0.05160 0.15671 0.19428 1.25100
Cd	Cd	0.04048 0.10978 0.33348 1.23900
O 	O 	0.07788 0.21407 0.21576 -0.24300
O 	O 	0.06528 0.19703 0.12063 -0.31700
C 	C 	0.07735 0.22178 0.15794 0.26800
O 	O 	0.03748 0.10110 0.16185 -0.31400
O 	O 	0.00992 0.08781 0.25245 -0.38200
C 	C 	0.02474 0.07760 0.20016 0.29700
C 	C 	0.11142 0.12800 0.25272 0.34000
O 	O 	0.01788 0.16260 0.30029 -0.33300
O 	O 	0.11932 0.13690 0.19660 -0.22000
O 	O 	0.07988 0.13558 0.27060 -0.46400
C 	C 	0.98932 0.16779 0.26818 0.28700
O 	O 	0.99319 0.17001 0.20863 -0.31300
Cd	Cd	0.13160 0.15908 0.96729 1.24700
Cd	Cd	0.11258 0.09309 0.85143 1.19300
O 	O 	0.13690 0.21778 0.92573 -0.24700
O 	O 	0.13590 0.21021 0.02596 -0.29800
C 	C 	0.13754 0.23202 0.98068 0.25100
O 	O 	0.11859 0.11092 0.02154 -0.30800
O 	O 	0.13165 0.07249 0.94178 -0.39800
C 	C 	0.11577 0.07943 0.99462 0.28900
C 	C 	0.06233 0.15430 0.91710 0.28700
O 	O 	0.15866 0.13271 0.86479 -0.38400
O 	O 	0.06295 0.17185 0.96960 -0.26800
O 	O 	0.09276 0.14367 0.89759 -0.47700
C 	C 	0.18832 0.12879 0.89442 0.25700
O 	O 	0.18916 0.14150 0.95109 -0.25800
C 	C 	0.10858 0.36392 0.89810 0.12600
N 	N 	0.09021 0.39238 0.91865 -0.14000
C 	C 	0.07261 0.41254 0.87804 0.13500
N 	N 	0.07567 0.40579 0.81633 -0.14300
C 	C 	0.09523 0.37825 0.79531 0.13700
N 	N 	0.11165 0.35732 0.83624 -0.12600
C 	C 	0.06603 0.35602 0.23590 0.12900
N 	N 	0.08168 0.35262 0.29216 -0.12700
C 	C 	0.07570 0.37672 0.33830 0.13800
N 	N 	0.05381 0.40405 0.32819 -0.14100
C 	C 	0.03851 0.40785 0.27196 0.13600
N 	N 	0.04461 0.38382 0.22580 -0.13800
Cd	Cd	0.21322 0.97088 0.71721 1.24800
Cd	Cd	0.16778 0.01905 0.83605 1.22400
O 	O 	0.25940 0.93278 0.75700 -0.29900
O 	O 	0.24720 0.93342 0.65790 -0.32800
C 	C 	0.26650 0.92076 0.70194 0.27600
O 	O 	0.16604 0.99291 0.66783 -0.33500
O 	O 	0.15615 0.03684 0.73982 -0.37100
C 	C 	0.14446 0.01569 0.69512 0.32500
C 	C 	0.16324 0.93545 0.79131 0.31300
O 	O 	0.22577 0.01676 0.80581 -0.42200
O 	O 	0.17109 0.91721 0.74116 -0.25800
O 	O 	0.18149 0.96387 0.79983 -0.47600
C 	C 	0.24095 0.03655 0.76610 0.28400
O 	O 	0.24455 0.02331 0.71024 -0.27900
Cd	Cd	0.15118 0.97665 0.48205 1.25400
Cd	Cd	0.09897 0.99746 0.35142 1.21900
O 	O 	0.21081 0.95898 0.45353 -0.25300
O 	O 	0.19606 0.96608 0.55115 -0.31800
C 	C 	0.22028 0.95759 0.51089 0.27500
O 	O 	0.10127 0.99955 0.52337 -0.31800
O 	O 	0.06759 0.98785 0.43695 -0.39900
C 	C 	0.07247 0.00498 0.49000 0.29500
C 	C 	0.16037 0.04229 0.42693 0.30000
O 	O 	0.12995 0.94727 0.37697 -0.38700
O 	O 	0.17588 0.04231 0.48086 -0.20200
O 	O 	0.14746 0.01264 0.40771 -0.47700
C 	C 	0.11935 0.92051 0.40807 0.24700
O 	O 	0.12520 0.92257 0.46754 -0.25800
C 	C 	0.39067 0.87960 0.79427 0.12300
N 	N 	0.37979 0.87094 0.85176 -0.13200
C 	C 	0.40220 0.87391 0.90085 0.13700
N 	N 	0.43549 0.88565 0.89225 -0.14300
C 	C 	0.44650 0.89443 0.83518 0.13300
N 	N 	0.42409 0.89126 0.78625 -0.13900
C 	C 	0.35759 0.94859 0.44262 0.12800
N 	N 	0.35356 0.93436 0.38469 -0.12700
C 	C 	0.37901 0.93857 0.34161 0.13800
N 	N 	0.40863 0.95688 0.35669 -0.14200
C 	C 	0.41280 0.97106 0.41456 0.13500
N 	N 	0.38733 0.96668 0.45745 -0.13800
C 	C 	0.38885 0.87032 0.96461 -0.05500
C 	C 	0.41033 0.85570 0.01092 0.13200
C 	C 	0.40353 0.86381 0.07346 -0.08700
C 	C 	0.37390 0.88367 0.09052 -0.00300
C 	C 	0.34935 0.89334 0.04457 0.10200
C 	C 	0.35744 0.88727 0.98182 -0.05900
N 	N 	0.43706 0.83349 0.99561 -0.21300
H 	H 	0.42153 0.85500 0.10884 0.06400
C 	C 	0.37122 0.89796 0.15497 0.00200
N 	N 	0.31814 0.90846 0.06036 -0.19500
H 	H 	0.34001 0.89710 0.94647 0.07200
C 	C 	0.37690 0.93387 0.16628 -0.08100
C 	C 	0.37643 0.94811 0.22681 0.12000
C 	C 	0.37338 0.92549 0.27732 -0.04100
C 	C 	0.36680 0.88971 0.26608 -0.04500
C 	C 	0.36479 0.87584 0.20522 0.08400
H 	H 	0.38106 0.95091 0.12771 0.07300
N 	N 	0.37765 0.98347 0.23595 -0.19800
H 	H 	0.36347 0.87255 0.30473 0.06500
N 	N 	0.35625 0.84154 0.19542 -0.19300
H 	H 	0.38178 0.99984 0.19875 0.11600
H 	H 	0.37232 0.99514 0.27910 0.12000
H 	H 	0.35260 0.82517 0.23278 0.10800
H 	H 	0.35193 0.83109 0.15094 0.10900
H 	H 	0.30071 0.91673 0.02619 0.13200
H 	H 	0.31027 0.91084 0.10647 0.12800
H 	H 	0.44017 0.82391 0.95028 0.10300
H 	H 	0.45385 0.82405 0.02974 0.10600
C 	C 	0.25773 0.95588 0.52702 -0.04200
C 	C 	0.27431 0.92307 0.52298 0.00900
C 	C 	0.30890 0.92031 0.50108 -0.01200
C 	C 	0.32710 0.95073 0.48440 0.00200
C 	C 	0.31286 0.98366 0.49999 -0.02100
C 	C 	0.27838 0.98630 0.52227 0.02700
H 	H 	0.25917 0.89952 0.53079 0.07300
H 	H 	0.32768 0.00723 0.49085 0.07200
C 	C 	0.26319 0.02045 0.53414 0.12800
C 	C 	0.32521 0.88627 0.49469 0.10400
N 	N 	0.25099 0.04783 0.54350 -0.02600
N 	N 	0.33829 0.85900 0.48959 -0.10100
C 	C 	0.30096 0.90470 0.68980 -0.05700
C 	C 	0.30566 0.86969 0.70603 0.00500
C 	C 	0.33707 0.85936 0.73469 -0.01500
C 	C 	0.36432 0.88400 0.74445 -0.00100
C 	C 	0.36244 0.91611 0.71460 -0.03500
C 	C 	0.33080 0.92660 0.68719 0.01700
H 	H 	0.28352 0.85176 0.70338 0.06500
H 	H 	0.38432 0.93433 0.71806 0.05900
C 	C 	0.32761 0.96193 0.66575 0.08300
C 	C 	0.34080 0.82388 0.75510 0.10700
N 	N 	0.32513 0.99035 0.64906 -0.09000
N 	N 	0.34379 0.79544 0.77147 -0.09600
C 	C 	0.09660 0.36969 0.72828 -0.04100
C 	C 	0.06532 0.36484 0.69314 0.11800
C 	C 	0.06713 0.36329 0.62830 -0.08100
C 	C 	0.09972 0.36370 0.59817 0.00400
C 	C 	0.13120 0.36518 0.63358 0.08500
C 	C 	0.12928 0.36890 0.69836 -0.04400
N 	N 	0.03372 0.36061 0.72130 -0.19700
H 	H 	0.04308 0.36130 0.60119 0.07200
C 	C 	0.10039 0.36455 0.52951 -0.00700
N 	N 	0.16321 0.36272 0.60588 -0.19300
H 	H 	0.15329 0.37163 0.72543 0.06600
C 	C 	0.10834 0.39613 0.50105 -0.07800
C 	C 	0.10443 0.39925 0.43682 0.10600
C 	C 	0.08968 0.37116 0.40128 -0.03600
C 	C 	0.08395 0.33887 0.42904 -0.05000
C 	C 	0.08993 0.33508 0.49271 0.10300
H 	H 	0.11754 0.41834 0.52896 0.06000
N 	N 	0.11563 0.42883 0.40940 -0.19800
H 	H 	0.07378 0.31693 0.40150 0.09600
N 	N 	0.08567 0.30317 0.51809 -0.19600
H 	H 	0.12493 0.45011 0.43617 0.09700
H 	H 	0.11709 0.43023 0.36134 0.10200
H 	H 	0.07677 0.28182 0.49106 0.16300
H 	H 	0.09238 0.29894 0.56414 0.13700
H 	H 	0.18630 0.36486 0.63219 0.10900
H 	H 	0.16553 0.35752 0.55845 0.11100
H 	H 	0.03202 0.35712 0.76888 0.11100
H 	H 	0.01057 0.35876 0.69510 0.10900
C 	C 	0.22026 0.12550 0.79498 0.04000
C 	C 	0.22102 0.12170 0.85952 0.01100
C 	C 	0.24813 0.10099 0.88488 -0.11200
C 	C 	0.26504 0.07630 0.84577 0.05300
C 	C 	0.25320 0.07174 0.78456 -0.00600
C 	C 	0.23751 0.10073 0.75674 -0.09600
C 	C 	0.23541 0.10304 0.68731 0.78400
H 	H 	0.20320 0.14490 0.77482 0.11300
H 	H 	0.28223 0.05679 0.86527 0.08300
C 	C 	0.25748 0.10353 0.95295 0.78500
F 	F 	0.23269 0.13759 0.67019 -0.40300
F 	F 	0.20627 0.08482 0.66540 -0.39700
F 	F 	0.26544 0.08897 0.66057 -0.42200
F 	F 	0.23262 0.08586 0.98667 -0.41400
F 	F 	0.25867 0.13825 0.97283 -0.41600
F 	F 	0.29019 0.08895 0.96407 -0.42800
C 	C 	0.13000 0.26959 0.98918 -0.04100
C 	C 	0.15771 0.29330 0.98066 -0.00200
C 	C 	0.15108 0.32594 0.95466 -0.01200
C 	C 	0.11622 0.33576 0.94120 -0.00200
C 	C 	0.08840 0.31498 0.96110 -0.02800
C 	C 	0.09496 0.28156 0.98327 0.01500
H 	H 	0.18466 0.28487 0.98782 0.06300
H 	H 	0.06147 0.32339 0.95360 0.05400
C 	C 	0.06556 0.25843 0.99266 0.10200
C 	C 	0.18015 0.34857 0.94009 0.10100
N 	N 	0.04158 0.24037 0.99996 -0.08200
N 	N 	0.20344 0.36671 0.92839 -0.10000
C 	C 	0.14782 0.10376 0.40421 0.05000
C 	C 	0.16321 0.07188 0.38603 -0.00800
C 	C 	0.17406 0.06664 0.32402 -0.09000
C 	C 	0.16009 0.08829 0.27881 0.07400
C 	C 	0.13825 0.11631 0.29634 -0.00200
C 	C 	0.13694 0.12720 0.35936 -0.11000
C 	C 	0.12270 0.16279 0.37918 0.78400
H 	H 	0.14203 0.10914 0.45260 0.11300
H 	H 	0.16370 0.08162 0.23021 0.14400
C 	C 	0.19858 0.03694 0.30543 0.78600
F 	F 	0.14055 0.17539 0.43111 -0.39300
F 	F 	0.08738 0.15996 0.39330 -0.44900
F 	F 	0.12685 0.18678 0.33297 -0.42000
F 	F 	0.17916 0.00722 0.29083 -0.42400
F 	F 	0.22180 0.02979 0.35296 -0.42600
F 	F 	0.21815 0.04572 0.25432 -0.39100
C 	C 	0.07646 0.25883 0.14161 -0.03900
C 	C 	0.04353 0.27543 0.14040 0.00200
C 	C 	0.03980 0.30961 0.16488 -0.00600
C 	C 	0.06969 0.32772 0.18824 -0.00100
C 	C 	0.10322 0.31388 0.17599 -0.02600
C 	C 	0.10674 0.27949 0.15250 0.01800
H 	H 	0.02024 0.26030 0.12797 0.07200
H 	H 	0.12648 0.32872 0.18965 0.06200
C 	C 	0.14139 0.26432 0.14648 0.11200
C 	C 	0.00507 0.32478 0.16970 0.10400
N 	N 	0.16919 0.25220 0.14172 -0.07500
N 	N 	0.97723 0.33693 0.17355 -0.08700
C 	C 	0.44179 0.99591 0.42762 -0.04700
C 	C 	0.47709 0.98729 0.41302 0.10600
C 	C 	0.50305 0.01340 0.41733 -0.08100
C 	C 	0.49490 0.04708 0.44046 -0.00400
C 	C 	0.46011 0.05499 0.45930 0.08000
C 	C 	0.43375 0.02950 0.45149 -0.04800
N 	N 	0.48642 0.95386 0.39712 -0.19900
H 	H 	0.52990 0.00725 0.40413 0.06200
C 	C 	0.52306 0.07385 0.44432 -0.00100
N 	N 	0.45192 0.08678 0.48532 -0.19400
H 	H 	0.40678 0.03596 0.46344 0.06600
C 	C 	0.52448 0.09960 0.39944 -0.08500
C 	C 	0.55317 0.12271 0.39741 0.11100
C 	C 	0.58230 0.11774 0.43724 -0.04900
C 	C 	0.57961 0.09376 0.48510 -0.04900
C 	C 	0.54985 0.07228 0.48982 0.07400
H 	H 	0.50313 0.10179 0.36631 0.06600
N 	N 	0.55211 0.15018 0.35882 -0.19900
H 	H 	0.60128 0.09083 0.51737 0.05500
N 	N 	0.54715 0.05026 0.53794 -0.19300
H 	H 	0.53134 0.15271 0.32737 0.10100
H 	H 	0.57062 0.17036 0.36239 0.10500
H 	H 	0.56756 0.04849 0.57028 0.09000
H 	H 	0.52434 0.03568 0.54502 0.09400
H 	H 	0.42598 0.09261 0.49780 0.10900
H 	H 	0.47120 0.10565 0.49491 0.10100
H 	H 	0.46886 0.93306 0.40143 0.10100
H 	H 	0.51219 0.94809 0.38357 0.09600
C 	C 	0.47949 0.91426 0.82909 -0.04800
C 	C 	0.50664 0.90263 0.78883 0.10600
C 	C 	0.53719 0.92304 0.78339 -0.08600
C 	C 	0.54166 0.95383 0.81942 -0.00300
C 	C 	0.51447 0.96546 0.85950 0.07600
C 	C 	0.48363 0.94557 0.86372 -0.05000
N 	N 	0.50408 0.87153 0.75687 -0.19900
H 	H 	0.55809 0.91429 0.75268 0.06300
C 	C 	0.57552 0.97286 0.81700 -0.00500
N 	N 	0.51780 0.99565 0.89401 -0.19500
H 	H 	0.46264 0.95457 0.89404 0.05800
C 	C 	0.57890 0.00051 0.77616 -0.08100
C 	C 	0.60712 0.02414 0.78195 0.10400
C 	C 	0.63311 0.01899 0.82804 -0.04400
C 	C 	0.63103 0.98983 0.86579 -0.05200
C 	C 	0.60253 0.96657 0.86059 0.07900
H 	H 	0.55844 0.00481 0.74206 0.05900
N 	N 	0.60846 0.05218 0.74453 -0.19800
H 	H 	0.65143 0.98550 0.89999 0.06100
N 	N 	0.60106 0.93853 0.89793 -0.19400
H 	H 	0.58942 0.05538 0.71010 0.09100
H 	H 	0.62789 0.07136 0.74976 0.10000
H 	H 	0.62067 0.93461 0.93110 0.09700
H 	H 	0.58097 0.91996 0.89360 0.09600
H 	H 	0.49768 0.00379 0.92388 0.09600
H 	H 	0.54012 0.01146 0.89136 0.09600
H 	H 	0.48316 0.85437 0.76363 0.10100
H 	H 	0.52387 0.86365 0.72610 0.09600
C 	C 	0.69462 0.10180 0.96760 -0.05500
C 	C 	0.66632 0.12148 0.99299 0.09800
C 	C 	0.66633 0.13029 0.05649 -0.06700
C 	C 	0.69504 0.12165 0.09413 -0.00500
C 	C 	0.72509 0.10559 0.06721 0.09000
C 	C 	0.72437 0.09531 0.00428 -0.01800
N 	N 	0.63949 0.13253 0.95651 -0.19700
H 	H 	0.64380 0.14364 0.07676 0.06200
C 	C 	0.69179 0.12616 0.16233 0.00300
N 	N 	0.75462 0.10004 0.10137 -0.19300
H 	H 	0.74656 0.08124 0.98437 0.06900
C 	C 	0.68438 0.09678 0.19747 -0.08000
C 	C 	0.67775 0.10037 0.26114 0.11700
C 	C 	0.67698 0.13422 0.28953 -0.03900
C 	C 	0.68597 0.16345 0.25511 -0.04300
C 	C 	0.69387 0.15972 0.19178 0.08800
H 	H 	0.68361 0.07102 0.17512 0.07000
N 	N 	0.67256 0.07127 0.29480 -0.19800
H 	H 	0.68617 0.18927 0.27729 0.06600
N 	N 	0.70359 0.18828 0.15979 -0.19200
H 	H 	0.67191 0.04648 0.27312 0.10700
H 	H 	0.67050 0.07278 0.34291 0.11000
H 	H 	0.70419 0.21307 0.18148 0.11100
H 	H 	0.71159 0.18608 0.11375 0.11300
H 	H 	0.77631 0.08720 0.08168 0.14600
H 	H 	0.75681 0.10941 0.14703 0.13500
H 	H 	0.64061 0.12973 0.90841 0.10200
H 	H 	0.61795 0.14572 0.97594 0.09400
C 	C 	0.92781 0.18428 0.39783 0.06200
C 	C 	0.89895 0.16527 0.37400 -0.01000
C 	C 	0.89481 0.16173 0.30913 -0.10600
C 	C 	0.92439 0.16595 0.27171 0.04800
C 	C 	0.95609 0.17775 0.29818 0.00300
C 	C 	0.95576 0.19258 0.35880 -0.08600
C 	C 	0.98423 0.21765 0.38144 0.78800
H 	H 	0.92960 0.19048 0.44695 0.10600
H 	H 	0.92340 0.15780 0.22332 0.09500
C 	C 	0.85993 0.15123 0.28003 0.78300
F 	F 	0.97010 0.24285 0.42128 -0.42200
F 	F 	0.99941 0.23466 0.33256 -0.42500
F 	F 	0.00993 0.19953 0.41267 -0.38200
F 	F 	0.83213 0.16070 0.31810 -0.43400
F 	F 	0.85930 0.11541 0.26905 -0.45300
F 	F 	0.85546 0.16776 0.22440 -0.42300
C 	C 	0.04501 0.06328 0.50982 0.04600
C 	C 	0.04332 0.02679 0.51570 -0.00200
C 	C 	0.01142 0.01132 0.53539 -0.09600
C 	C 	0.98168 0.03282 0.54616 0.05200
C 	C 	0.98189 0.06802 0.52934 0.00700
C 	C 	0.01459 0.08421 0.51720 -0.11300
C 	C 	0.01674 0.12322 0.50687 0.78400
H 	H 	0.06948 0.07511 0.49541 0.07100
H 	H 	0.95716 0.02124 0.56072 0.07600
C 	C 	0.00740 0.97180 0.53617 0.78500
F 	F 	0.00879 0.12966 0.44585 -0.49600
F 	F 	0.05020 0.13583 0.51983 -0.37600
F 	F 	0.99333 0.14125 0.54483 -0.40400
F 	F 	0.03669 0.95655 0.56242 -0.41700
F 	F 	0.00333 0.95884 0.47630 -0.52200
F 	F 	0.97820 0.96222 0.56976 -0.40100
C 	C 	0.76214 0.12041 0.56683 -0.05700
C 	C 	0.75843 0.15553 0.55034 0.00500
C 	C 	0.72779 0.16629 0.51971 -0.01300
C 	C 	0.69980 0.14246 0.51073 0.00000
C 	C 	0.70041 0.11081 0.54206 -0.03200
C 	C 	0.73164 0.09947 0.56970 0.01700
H 	H 	0.78106 0.17284 0.55308 0.06100
H 	H 	0.67790 0.09334 0.53899 0.05400
C 	C 	0.73373 0.06410 0.59124 0.09200
C 	C 	0.72583 0.20112 0.49566 0.10900
N 	N 	0.73523 0.03563 0.60797 -0.08800
N 	N 	0.72424 0.22903 0.47635 -0.09600
C 	C 	0.08610 0.98628 0.68628 0.07300
C 	C 	0.10648 0.01636 0.67784 -0.00700
C 	C 	0.08934 0.04826 0.66469 -0.10900
C 	C 	0.05254 0.05099 0.67272 0.03000
C 	C 	0.03273 0.02205 0.69110 -0.00600
C 	C 	0.04931 0.98872 0.69381 -0.06900
C 	C 	0.02894 0.95638 0.71196 0.78700
H 	H 	0.09920 0.96144 0.69292 0.09700
H 	H 	0.03969 0.07617 0.66868 0.07200
C 	C 	0.11022 0.07968 0.64423 0.78200
F 	F 	0.04403 0.92647 0.68600 -0.39600
F 	F 	0.99434 0.95765 0.69195 -0.39100
F 	F 	0.02954 0.95380 0.77557 -0.47800
F 	F 	0.13588 0.06921 0.60246 -0.40900
F 	F 	0.12603 0.09602 0.69494 -0.43200
F 	F 	0.08876 0.10371 0.61575 -0.39500
C 	C 	0.00777 0.15175 0.77126 0.02900
C 	C 	0.97491 0.14464 0.79700 -0.00900
C 	C 	0.96907 0.15345 0.85987 -0.11900
C 	C 	0.99812 0.15719 0.89940 0.05400
C 	C 	0.03215 0.15753 0.87487 -0.04600
C 	C 	0.03637 0.16043 0.81002 -0.11300
C 	C 	0.06999 0.17432 0.78222 0.78600
H 	H 	0.01175 0.14777 0.72196 0.10000
H 	H 	0.99436 0.15840 0.94907 0.08000
C 	C 	0.93227 0.15433 0.88629 0.78400
F 	F 	0.06314 0.18941 0.72595 -0.39700
F 	F 	0.09352 0.14718 0.77262 -0.48400
F 	F 	0.08508 0.19975 0.82072 -0.43200
F 	F 	0.92407 0.12191 0.90923 -0.43800
F 	F 	0.90782 0.16280 0.84145 -0.42200
F 	F 	0.93017 0.17925 0.93381 -0.42100
C 	C 	0.74492 0.07043 0.76469 0.00200
C 	C 	0.76258 0.03937 0.74794 -0.02100
C 	C 	0.79501 0.04071 0.71745 0.02400
C 	C 	0.81079 0.07339 0.70663 -0.03900
C 	C 	0.79066 0.10396 0.71515 0.00700
C 	C 	0.75770 0.10261 0.74373 -0.01300
H 	H 	0.75184 0.01431 0.76088 0.07200
H 	H 	0.80197 0.12914 0.70438 0.06900
C 	C 	0.73725 0.13428 0.75148 0.10200
C 	C 	0.81318 0.00852 0.70159 0.12300
N 	N 	0.72084 0.15965 0.75764 -0.10300
N 	N 	0.82775 0.98273 0.68889 -0.04900
C 	C 	0.92200 0.58977 0.35349 -0.04700
C 	C 	0.90595 0.57058 0.30390 0.10900
C 	C 	0.92263 0.54043 0.27961 -0.08600
C 	C 	0.95303 0.52730 0.30775 0.00200
C 	C 	0.96793 0.54535 0.35965 0.07600
C 	C 	0.95256 0.57671 0.38130 -0.04700
N 	N 	0.87389 0.57995 0.28149 -0.19900
H 	H 	0.91101 0.52625 0.24047 0.06300
C 	C 	0.96866 0.49422 0.28346 -0.00900
N 	N 	0.99697 0.53280 0.38877 -0.18500
H 	H 	0.96477 0.59127 0.41945 0.05900
C 	C 	0.99763 0.49580 0.24369 -0.06300
C 	C 	0.01937 0.46643 0.23401 0.09300
C 	C 	0.01154 0.43501 0.26424 -0.05000
C 	C 	0.97996 0.43221 0.29699 -0.04200
C 	C 	0.95842 0.46161 0.30717 0.08100
H 	H 	0.00449 0.52049 0.22329 0.05200
N 	N 	0.04796 0.46878 0.19674 -0.19800
H 	H 	0.97321 0.40759 0.31776 0.06800
N 	N 	0.92854 0.45861 0.34104 -0.19400
H 	H 	0.05399 0.49235 0.17574 0.09400
H 	H 	0.06391 0.44711 0.18693 0.10000
H 	H 	0.92175 0.43464 0.35990 0.10300
H 	H 	0.91139 0.47969 0.34779 0.09800
H 	H 	0.00791 0.54652 0.42667 0.08800
H 	H 	0.00879 0.50926 0.37473 0.09000
H 	H 	0.85834 0.59862 0.30454 0.10200
H 	H 	0.86315 0.56683 0.24276 0.09700
C 	C 	0.96440 0.59762 0.99197 -0.05300
C 	C 	0.00059 0.59188 0.00529 0.11100
C 	C 	0.01412 0.55774 0.00090 -0.08000
C 	C 	0.99354 0.53030 0.97611 -0.00600
C 	C 	0.95694 0.53534 0.96774 0.07400
C 	C 	0.94259 0.56890 0.97733 -0.05200
N 	N 	0.02282 0.61903 0.01867 -0.20000
H 	H 	0.04184 0.55330 0.01002 0.06400
C 	C 	0.01154 0.49935 0.94828 -0.00000
N 	N 	0.93566 0.50840 0.94889 -0.19400
H 	H 	0.91473 0.57311 0.96920 0.05300
C 	C 	0.01254 0.46808 0.98063 -0.11400
C 	C 	0.02900 0.43824 0.95484 0.11400
C 	C 	0.04963 0.44140 0.90076 -0.05200
C 	C 	0.04907 0.47291 0.86892 -0.04800
C 	C 	0.02904 0.50145 0.89080 0.07200
H 	H 	0.99871 0.46638 0.02417 0.08000
N 	N 	0.02292 0.40645 0.97950 -0.20700
H 	H 	0.06417 0.47522 0.82683 0.05700
N 	N 	0.02657 0.53064 0.85635 -0.19300
H 	H 	0.01035 0.40471 0.02217 0.10500
H 	H 	0.02739 0.38329 0.95401 0.10100
H 	H 	0.04055 0.53236 0.81506 0.09200
H 	H 	0.00987 0.55132 0.86885 0.09200
H 	H 	0.90881 0.51260 0.94138 0.09200
H 	H 	0.94533 0.48300 0.94252 0.09600
H 	H 	0.01545 0.64497 0.01248 0.10800
H 	H 	0.04884 0.61421 0.03188 0.10400
C 	C 	0.90091 0.67613 0.52106 -0.04700
C 	C 	0.92209 0.70393 0.54554 0.11800
C 	C 	0.92322 0.71034 0.60989 -0.08200
C 	C 	0.90748 0.68697 0.65035 0.00400
C 	C 	0.88607 0.65943 0.62602 0.07500
C 	C 	0.88221 0.65501 0.56163 -0.04700
N 	N 	0.94288 0.72316 0.50829 -0.19900
H 	H 	0.93911 0.73173 0.62868 0.08800
C 	C 	0.91698 0.68905 0.71720 0.00200
N 	N 	0.86969 0.63680 0.66397 -0.19300
H 	H 	0.86563 0.63410 0.54300 0.05600
C 	C 	0.89289 0.70353 0.75977 -0.07500
C 	C 	0.89864 0.70099 0.82387 0.11700
C 	C 	0.93031 0.68576 0.84547 -0.03800
C 	C 	0.95596 0.67478 0.80268 -0.04300
C 	C 	0.94918 0.67508 0.73884 0.08500
H 	H 	0.86868 0.71504 0.74303 0.07400
N 	N 	0.87332 0.71232 0.86396 -0.19700
H 	H 	0.98054 0.66394 0.81925 0.06300
N 	N 	0.97329 0.66111 0.69885 -0.19300
H 	H 	0.85020 0.72367 0.84746 0.11000
H 	H 	0.87603 0.70969 0.91158 0.11100
H 	H 	0.99711 0.65126 0.71535 0.10300
H 	H 	0.96852 0.65929 0.65134 0.10100
H 	H 	0.85404 0.61654 0.64548 0.09400
H 	H 	0.87231 0.63892 0.71195 0.09400
H 	H 	0.94799 0.71524 0.46270 0.11300
H 	H 	0.95643 0.74501 0.52626 0.12300
C 	C 	0.08861 0.99206 0.05804 0.04400
C 	C 	0.05409 0.98979 0.03453 0.03000
C 	C 	0.03736 0.02084 0.01466 -0.10100
C 	C 	0.05747 0.05157 0.00832 0.06600
C 	C 	0.09354 0.05202 0.02223 0.01400
C 	C 	0.10894 0.02268 0.05065 -0.04300
C 	C 	0.14769 0.02281 0.06817 0.78900
H 	H 	0.10046 0.96915 0.07797 0.09900
H 	H 	0.04561 0.07437 0.98793 0.01100
C 	C 	0.99907 0.02081 0.99474 0.76100
F 	F 	0.15549 0.99646 0.10870 -0.38300
F 	F 	0.15686 0.05444 0.09657 -0.37600
F 	F 	0.16780 0.01780 0.01560 -0.41300
F 	F 	0.97947 0.99838 0.02968 -0.39100
F 	F 	0.99664 0.01018 0.93337 -0.53700
F 	F 	0.98464 0.05396 0.00168 -0.45400
C 	C 	0.92673 0.93872 0.95235 0.04100
C 	C 	0.94178 0.90955 0.92167 0.01700
C 	C 	0.93771 0.90572 0.85683 -0.10600
C 	C 	0.92884 0.93515 0.82300 0.06900
C 	C 	0.91909 0.96644 0.85372 0.00600
C 	C 	0.91329 0.96650 0.91833 -0.06200
C 	C 	0.89222 0.99520 0.95087 0.77200
H 	H 	0.92675 0.94042 0.00238 0.15900
H 	H 	0.93066 0.93406 0.77297 0.12100
C 	C 	0.94396 0.87096 0.82322 0.78700
F 	F 	0.87660 0.98280 0.00366 -0.38300
F 	F 	0.86570 0.00721 0.91281 -0.42200
F 	F 	0.91417 0.02273 0.96777 -0.38000
F 	F 	0.92169 0.86754 0.77256 -0.41200
F 	F 	0.93751 0.84319 0.86137 -0.43300
F 	F 	0.97838 0.86933 0.80282 -0.43700
C 	C 	0.12123 0.92336 0.94637 0.04500
C 	C 	0.12336 0.88715 0.95240 -0.01800
C 	C 	0.14362 0.86748 0.90959 -0.09000
C 	C 	0.15467 0.88320 0.85498 0.04900
C 	C 	0.14660 0.91850 0.84403 -0.00700
C 	C 	0.12745 0.93817 0.88910 -0.15300
C 	C 	0.10964 0.97269 0.87525 0.75800
H 	H 	0.10814 0.93872 0.98185 0.04800
H 	H 	0.16966 0.86809 0.82113 0.09500
C 	C 	0.15050 0.82895 0.91898 0.77900
F 	F 	0.07432 0.97075 0.88907 -0.53500
F 	F 	0.11195 0.98167 0.81415 -0.57300
F 	F 	0.12431 0.99885 0.91227 -0.56900
F 	F 	0.12227 0.80957 0.89637 -0.42800
F 	F 	0.15498 0.82254 0.98118 -0.41100
F 	F 	0.18069 0.81813 0.88838 -0.42800
C 	C 	0.99160 0.77954 0.10724 -0.02400
C 	C 	0.95616 0.78167 0.08882 -0.01200
C 	C 	0.93877 0.75178 0.06514 -0.00000
C 	C 	0.95686 0.71958 0.06138 -0.01400
C 	C 	0.98882 0.71629 0.09377 -0.00300
C 	C 	0.00597 0.74628 0.11765 -0.01000
H 	H 	0.94375 0.80713 0.08544 0.07200
H 	H 	0.00152 0.69095 0.09637 0.04700
C 	C 	0.03964 0.74299 0.14809 0.12800
C 	C 	0.90272 0.75439 0.04439 0.10800
N 	N 	0.06663 0.74031 0.17254 -0.06400
N 	N 	0.87381 0.75650 0.02781 -0.09400
C 	C 	0.04947 0.98182 0.19994 0.04000
C 	C 	0.01604 0.96627 0.19346 0.01200
C 	C 	0.98771 0.98693 0.17134 -0.05600
C 	C 	0.99217 0.02362 0.16740 0.07700
C 	C 	0.02444 0.03966 0.18276 0.00600
C 	C 	0.05380 0.01842 0.19665 -0.12800
C 	C 	0.08850 0.03501 0.21610 0.76200
H 	H 	0.07167 0.96566 0.21254 0.06600
H 	H 	0.96997 0.03997 0.15557 0.11800
C 	C 	0.95321 0.97023 0.15050 0.79600
F 	F 	0.11536 0.01060 0.21763 -0.45600
F 	F 	0.08506 0.05027 0.27444 -0.61600
F 	F 	0.09788 0.06038 0.17500 -0.44000
F 	F 	0.93570 0.95722 0.20054 -0.41600
F 	F 	0.95971 0.94332 0.10810 -0.42700
F 	F 	0.93118 0.99405 0.12263 -0.37100
C 	C 	0.88543 0.93582 0.40418 0.05400
C 	C 	0.91608 0.94517 0.37241 0.00900
C 	C 	0.93425 0.97628 0.38980 -0.14200
C 	C 	0.92298 0.99518 0.44210 0.05500
C 	C 	0.88934 0.98981 0.46559 -0.02800
C 	C 	0.87169 0.95815 0.45091 -0.07300
C 	C 	0.83726 0.94931 0.48194 0.77800
H 	H 	0.87199 0.91164 0.39142 0.09300
H 	H 	0.93667 0.01879 0.45569 0.00000
C 	C 	0.95899 0.99388 0.34530 0.77800
F 	F 	0.82849 0.91438 0.47236 -0.42500
F 	F 	0.81057 0.96969 0.45834 -0.43200
F 	F 	0.83996 0.95570 0.54504 -0.41300
F 	F 	0.94003 0.00488 0.29477 -0.48400
F 	F 	0.98493 0.97125 0.32585 -0.56100
F 	F 	0.97553 0.02279 0.37245 -0.54800
C 	C 	0.07953 0.83252 0.37728 0.05300
C 	C 	0.06869 0.83902 0.31668 -0.00700
C 	C 	0.09109 0.85935 0.28059 -0.10100
C 	C 	0.11175 0.88506 0.31068 0.03500
C 	C 	0.11354 0.88624 0.37572 0.00300
C 	C 	0.10253 0.85619 0.40774 -0.10800
C 	C 	0.11633 0.84820 0.47163 0.78600
H 	H 	0.06617 0.81264 0.40320 0.08200
H 	H 	0.12453 0.90504 0.28414 0.09200
C 	C 	0.09186 0.85500 0.21104 0.78800
F 	F 	0.11491 0.81258 0.48168 -0.42400
F 	F 	0.09603 0.86530 0.51592 -0.41400
F 	F 	0.15110 0.85859 0.47799 -0.42400
F 	F 	0.06951 0.87898 0.18476 -0.46500
F 	F 	0.08166 0.82149 0.19278 -0.42700
F 	F 	0.12561 0.86049 0.18954 -0.41100
C 	C 	0.90060 0.77566 0.24768 -0.05500
C 	C 	0.92465 0.74869 0.23447 0.00100
C 	C 	0.92148 0.71641 0.26316 -0.01900
C 	C 	0.89324 0.71081 0.30412 -0.00100
C 	C 	0.86579 0.73535 0.30739 -0.03300
C 	C 	0.86907 0.76749 0.27812 0.02000
H 	H 	0.94839 0.75439 0.20918 0.05000
H 	H 	0.84287 0.73028 0.33550 0.06200
C 	C 	0.84133 0.79317 0.28410 0.10100
C 	C 	0.94859 0.69032 0.25363 0.09800
N 	N 	0.81910 0.81376 0.28891 -0.08100
N 	N 	0.97033 0.66946 0.24587 -0.10600
