data_crystal

_cell_length_a 18.27896
_cell_length_b 17.39783
_cell_length_c 46.40916
_cell_angle_alpha 89.64341
_cell_angle_beta  89.64889
_cell_angle_gamma 119.49417

_symmetry_space_group_name_	'P 1'
_symmetry_space_group_name_H-M	'P 1'

loop_
_symmetry_equiv_pos_as_xyz
  x,y,z

loop_
_atom_site_label
_atom_site_type_symbol
_atom_site_fract_x
_atom_site_fract_y
_atom_site_fract_z
_atom_site_charge
Ni	Ni	0.02935 0.11760 0.70600 1.11800
O 	O 	0.02653 0.02302 0.72760 -0.72500
H 	H 	0.03353 0.04806 0.74702 0.14700
C 	C 	0.02798 0.12776 0.17188 0.31500
C 	C 	0.01364 0.84507 0.24365 0.28900
O 	O 	0.96649 0.87164 0.18429 -0.38300
O 	O 	0.03825 0.16926 0.19644 -0.38500
O 	O 	0.00835 0.04443 0.17164 -0.40000
C 	C 	0.99445 0.16343 0.09354 0.03200
C 	C 	0.98264 0.12584 0.12126 -0.00500
C 	C 	0.94371 0.10721 0.06874 -0.17600
H 	H 	0.99954 0.53322 0.07307 0.05700
C 	C 	0.05270 0.57644 0.32839 -0.09400
C 	C 	0.07325 0.55013 0.38028 -0.21700
C 	C 	0.99671 0.62676 0.26442 0.03100
C 	C 	0.98411 0.69051 0.25016 -0.00700
C 	C 	0.03703 0.78103 0.25534 -0.11300
H 	H 	0.08407 0.50029 0.39158 0.08500
H 	H 	0.96198 0.49108 0.25559 0.06300
C 	C 	0.03837 0.35401 0.44143 -0.04800
H 	H 	0.02166 0.93263 0.59965 0.07000
H 	H 	0.00509 0.01124 0.61961 0.07500
C 	C 	0.04222 0.65437 0.67426 -0.10300
H 	H 	0.10449 0.72288 0.61486 0.06600
C 	C 	0.03143 0.58979 0.93841 0.08800
C 	C 	0.03397 0.64622 0.99514 0.07100
N 	N 	0.03101 0.69419 0.01971 -0.02200
N 	N 	0.03065 0.56397 0.90911 -0.02500
O 	O 	0.06751 0.77994 0.01845 -0.11500
O 	O 	0.06990 0.62370 0.88922 -0.12400
C 	C 	0.06274 0.97689 0.83201 0.09300
C 	C 	0.04941 0.96005 0.86181 -0.07200
H 	H 	0.07413 0.01458 0.87676 0.03900
H 	H 	0.09355 0.79102 0.90441 0.07900
C 	C 	0.04352 0.97799 0.61831 -0.19000
H 	H 	0.03269 0.93676 0.63794 0.08400
C 	C 	0.01900 0.92107 0.78199 0.28400
O 	O 	0.06629 0.90133 0.69847 -0.39600
O 	O 	0.07272 0.09006 0.66923 -0.39100
O 	O 	0.07394 0.92158 0.76286 -0.37400
Ni	Ni	0.04519 0.98833 0.20242 1.11900
O 	O 	0.07277 0.91839 0.23073 -0.39100
O 	O 	0.09755 0.15727 0.25153 -0.38400
C 	C 	0.03558 0.17390 0.14406 -0.12000
C 	C 	0.04318 0.35267 0.05296 0.02300
H 	H 	0.07570 0.47698 0.03217 0.04100
H 	H 	0.98583 0.09907 0.05323 0.07100
C 	C 	0.00187 0.56429 0.09347 -0.03300
C 	C 	0.09580 0.55475 0.34888 0.10600
C 	C 	0.06743 0.65412 0.28215 -0.00400
H 	H 	0.11251 0.61579 0.39009 0.09700
H 	H 	0.12185 0.93087 0.28917 0.07200
C 	C 	0.05888 0.49311 0.46044 0.07300
H 	H 	0.06315 0.31528 0.43149 0.07100
C 	C 	0.04599 0.71923 0.69300 0.09500
O 	O 	0.97920 0.65235 0.04083 -0.11700
C 	C 	0.09221 0.83905 0.91971 -0.17200
H 	H 	0.08816 0.08432 0.80226 0.06800
C 	C 	0.99746 0.82768 0.70471 0.32500
H 	H 	0.05367 0.01623 0.35996 0.07700
C 	C 	0.02823 0.90568 0.81259 -0.10700
C 	C 	0.05662 0.25226 0.08896 -0.00300
C 	C 	0.07918 0.58977 0.29948 0.00600
C 	C 	0.10727 0.80809 0.27346 0.10000
C 	C 	0.09280 0.44304 0.44828 -0.06100
C 	C 	0.10801 0.64824 0.95135 -0.03100
C 	C 	0.11001 0.67306 0.98026 -0.07400
C 	C 	0.11660 0.07040 0.82121 -0.20900
H 	H 	0.11653 0.83158 0.94082 0.08000
C 	C 	0.00834 0.64688 0.14568 -0.10100
H 	H 	0.08498 0.70693 0.57697 0.06900
H 	H 	0.13048 0.33270 0.17925 0.07700
Ni	Ni	0.11992 0.00621 0.72662 1.10700
C 	C 	0.10732 0.30155 0.11191 -0.09200
C 	C 	0.09985 0.26227 0.13911 0.10200
C 	C 	0.07294 0.29372 0.05990 0.00800
C 	C 	0.09231 0.42547 0.03478 -0.01300
H 	H 	0.01105 0.68006 0.16569 0.05600
H 	H 	0.14937 0.08057 0.29041 0.06900
C 	C 	0.12387 0.74435 0.28559 -0.09200
C 	C 	0.16179 0.90371 0.28123 -0.20600
N 	N 	0.11186 0.58445 0.46673 -0.01800
O 	O 	0.13288 0.64347 0.44637 -0.11000
H 	H 	0.09276 0.63870 0.67390 0.05200
H 	H 	0.15444 0.31425 0.77021 0.03300
H 	H 	0.13475 0.90713 0.91159 0.07200
H 	H 	0.02355 0.96311 0.32545 0.08000
C 	C 	0.98390 0.74518 0.69140 -0.10400
C 	C 	0.14291 0.08642 0.66768 0.30900
O 	O 	0.14955 0.20269 0.71907 -0.38100
C 	C 	0.15773 0.14735 0.23886 0.29200
O 	O 	0.14589 0.10805 0.21338 -0.38600
C 	C 	0.07946 0.61457 0.10707 -0.10300
C 	C 	0.13525 0.04626 0.61510 0.09300
H 	H 	0.13653 0.03092 0.56893 0.05300
H 	H 	0.09593 0.77464 0.73473 0.07600
H 	H 	0.12383 0.11865 0.83803 0.06400
C 	C 	0.18478 0.19549 0.74322 0.29400
C 	C 	0.16197 0.31435 0.16228 -0.20400
C 	C 	0.08109 0.64907 0.13478 0.10100
H 	H 	0.26966 0.42863 0.26304 0.06600
H 	H 	0.31648 0.54703 0.26027 0.05700
H 	H 	0.20716 0.14582 0.32048 0.07200
H 	H 	0.17844 0.76478 0.29912 0.05900
H 	H 	0.20645 0.91198 0.29865 0.07300
O 	O 	0.13086 0.60923 0.49330 -0.10700
C 	C 	0.11796 0.76274 0.71373 -0.20500
H 	H 	0.16626 0.67118 0.93934 0.06800
H 	H 	0.19481 0.45275 0.79612 0.06500
H 	H 	0.17970 0.08102 0.81504 0.07400
H 	H 	0.05457 0.07894 0.32900 0.07600
O 	O 	0.18216 0.12033 0.75065 -0.38800
O 	O 	0.18246 0.08649 0.69125 -0.38400
C 	C 	0.18851 0.70528 0.99646 0.31300
H 	H 	0.15491 0.36990 0.10825 0.05800
C 	C 	0.16579 0.54711 0.34004 -0.10500
H 	H 	0.19906 0.94215 0.26215 0.08100
C 	C 	0.17385 0.06300 0.58773 -0.09300
H 	H 	0.00996 0.00138 0.24840 0.13900
C 	C 	0.05426 0.69107 0.59859 -0.16700
C 	C 	0.18484 0.48321 0.44254 0.27700
O 	O 	0.21683 0.77771 0.01160 -0.37000
O 	O 	0.16380 0.67936 0.06432 -0.38100
C 	C 	0.17235 0.44185 0.02602 -0.10400
C 	C 	0.13785 0.29580 0.04296 -0.09500
H 	H 	0.18884 0.27522 0.17193 0.08300
C 	C 	0.21343 0.12576 0.29834 -0.20600
C 	C 	0.13558 0.56143 0.29006 0.02200
C 	C 	0.18313 0.09357 0.63922 -0.10800
H 	H 	0.14636 0.72022 0.71806 0.06800
H 	H 	0.16724 0.82654 0.70449 0.06900
C 	C 	0.21824 0.32676 0.77290 -0.02200
C 	C 	0.15781 0.64467 0.09009 0.30500
O 	O 	0.20977 0.44768 0.42187 -0.37600
H 	H 	0.21542 0.37624 0.15348 0.06700
C 	C 	0.32983 0.49133 0.26006 -0.17300
H 	H 	0.35710 0.49258 0.23858 0.06100
H 	H 	0.10946 0.56267 0.24433 0.05800
C 	C 	0.24624 0.27676 0.75757 -0.10700
C 	C 	0.00381 0.82308 0.92285 0.00500
O 	O 	0.26863 0.52188 0.36346 -0.38700
C 	C 	0.24426 0.20178 0.24933 -0.10800
C 	C 	0.17766 0.53857 0.31063 -0.01200
C 	C 	0.24139 0.44411 0.80898 -0.17600
C 	C 	0.23787 0.57589 0.35927 0.29400
C 	C 	0.18616 0.36905 0.02489 0.11300
H 	H 	0.15647 0.24608 0.04621 0.05800
H 	H 	0.24907 0.08947 0.29946 0.07000
H 	H 	0.24701 0.96512 0.55892 0.08000
C 	C 	0.24313 0.52763 0.03404 0.30300
O 	O 	0.26057 0.53940 0.06156 -0.38200
C 	C 	0.16040 0.69124 0.15230 -0.20800
H 	H 	0.14924 0.71001 0.17406 0.06700
C 	C 	0.26039 0.20573 0.27916 0.10100
C 	C 	0.15934 0.56632 0.25867 -0.17100
C 	C 	0.27124 0.38963 0.79287 0.02600
H 	H 	0.29483 0.51090 0.81338 0.07000
H 	H 	0.21150 0.41114 0.82970 0.06600
O 	O 	0.23792 0.53556 0.46264 -0.35200
O 	O 	0.23639 0.67070 0.99096 -0.38200
H 	H 	0.18426 0.64417 0.15539 0.08000
H 	H 	0.37808 0.60275 0.30533 0.04300
H 	H 	0.33989 0.24730 0.71758 0.08100
C 	C 	0.26053 0.12012 0.58454 0.00400
O 	O 	0.22307 0.64443 0.10197 -0.37900
H 	H 	0.29718 0.25973 0.20772 0.04000
C 	C 	0.27030 0.14871 0.63609 -0.01600
O 	O 	0.28437 0.66198 0.36356 -0.36800
Ni	Ni	0.26702 0.79186 0.05114 1.12200
H 	H 	0.20885 0.75200 0.14129 0.08800
C 	C 	0.30550 0.26575 0.23086 -0.01600
H 	H 	0.21825 0.62921 0.25428 0.06000
O 	O 	0.30129 0.57568 0.01461 -0.36700
H 	H 	0.22588 0.52355 0.30379 0.03800
H 	H 	0.16925 0.51009 0.25316 0.05500
H 	H 	0.27806 0.25186 0.54878 0.05800
C 	C 	0.33159 0.29895 0.75912 0.10100
C 	C 	0.93419 0.60935 0.12962 0.00900
H 	H 	0.98555 0.37972 0.08909 0.07000
H 	H 	0.92471 0.30420 0.63590 0.07100
H 	H 	0.94183 0.90330 0.11825 0.08600
C 	C 	0.93188 0.53030 0.26214 -0.17400
C 	C 	0.92863 0.56046 0.10481 0.04800
C 	C 	0.96699 0.34590 0.06801 -0.16800
H 	H 	0.86651 0.54576 0.19128 0.06200
H 	H 	0.90160 0.72050 0.09770 0.06700
C 	C 	0.80154 0.64851 0.94780 0.30100
C 	C 	0.63178 0.26078 0.97870 0.31700
C 	C 	0.87419 0.50028 0.94124 0.32800
C 	C 	0.56112 0.43041 0.99396 0.30100
C 	C 	0.64990 0.31679 0.88768 0.31700
C 	C 	0.55243 0.46039 0.89657 0.30400
Ni	Ni	0.73147 0.46174 0.97781 1.11400
Ni	Ni	0.56682 0.34305 0.93872 1.12000
Ni	Ni	0.73118 0.49717 0.90865 1.12000
O 	O 	0.80571 0.60035 0.96987 -0.36200
O 	O 	0.75139 0.61197 0.92555 -0.39300
O 	O 	0.57860 0.30687 0.89826 -0.38800
O 	O 	0.67135 0.33210 0.99455 -0.34400
O 	O 	0.61590 0.26751 0.95173 -0.38900
O 	O 	0.62817 0.48012 0.88620 -0.39100
O 	O 	0.81553 0.43634 0.95632 -0.38000
O 	O 	0.85277 0.53610 0.92024 -0.37100
O 	O 	0.52422 0.41918 0.92166 -0.39500
O 	O 	0.64141 0.47466 0.00082 -0.35800
O 	O 	0.52945 0.35456 0.97967 -0.36600
O 	O 	0.72207 0.38415 0.89503 -0.38400
O 	O 	0.67077 0.44805 0.94386 -0.71200
H 	H 	0.64953 0.48904 0.94796 0.16000
C 	C 	0.84621 0.40032 0.56633 0.30100
C 	C 	0.52420 0.28868 0.51476 0.31000
C 	C 	0.62366 0.21646 0.57817 0.30600
C 	C 	0.70465 0.48539 0.48778 0.30800
C 	C 	0.61008 0.11724 0.48933 0.32700
C 	C 	0.83892 0.31639 0.47790 0.29700
Ni	Ni	0.68657 0.38921 0.54520 1.11400
Ni	Ni	0.66818 0.30502 0.47993 1.11900
Ni	Ni	0.73836 0.23756 0.53070 1.12000
O 	O 	0.81032 0.44692 0.55816 -0.37500
O 	O 	0.80480 0.31250 0.56517 -0.38700
O 	O 	0.58767 0.17614 0.48383 -0.39500
O 	O 	0.56000 0.33514 0.53765 -0.38300
O 	O 	0.56283 0.31301 0.48952 -0.37400
O 	O 	0.84016 0.29046 0.50482 -0.37400
O 	O 	0.65652 0.30276 0.58049 -0.37800
O 	O 	0.63018 0.18224 0.55382 -0.38500
O 	O 	0.76655 0.29162 0.46408 -0.36400
O 	O 	0.71064 0.49332 0.51629 -0.34800
O 	O 	0.73089 0.43697 0.47428 -0.38500
O 	O 	0.68279 0.13986 0.50134 -0.37600
O 	O 	0.71214 0.32545 0.51772 -0.71100
H 	H 	0.76921 0.37357 0.51314 0.15100
C 	C 	0.87075 0.97878 0.67971 0.33200
C 	C 	0.90468 0.08128 0.75243 0.28500
Ni	Ni	0.91810 0.92344 0.73231 1.12300
O 	O 	0.88469 0.91775 0.69096 -0.40000
O 	O 	0.94575 0.82489 0.72504 -0.38400
O 	O 	0.97589 0.14286 0.74011 -0.38300
O 	O 	0.86477 0.99837 0.74301 -0.38000
O 	O 	0.94711 0.91594 0.77385 -0.37300
O 	O 	0.91464 0.06172 0.68778 -0.39500
C 	C 	0.52731 0.76060 0.43121 0.29400
C 	C 	0.44979 0.60426 0.35592 0.31300
C 	C 	0.35675 0.79830 0.43847 0.30600
C 	C 	0.42823 0.52246 0.44913 0.30300
Ni	Ni	0.39410 0.72045 0.38737 1.11400
Ni	Ni	0.35670 0.63733 0.45541 1.11900
Ni	Ni	0.32173 0.50898 0.40053 1.11800
O 	O 	0.40283 0.56012 0.46776 -0.39000
O 	O 	0.50763 0.79056 0.40815 -0.37000
O 	O 	0.47849 0.73780 0.45443 -0.38100
O 	O 	0.44840 0.67904 0.35562 -0.37800
O 	O 	0.43333 0.55747 0.37968 -0.38800
O 	O 	0.34975 0.79159 0.41037 -0.34700
O 	O 	0.31668 0.72657 0.45441 -0.36600
O 	O 	0.37449 0.46827 0.43046 -0.36400
O 	O 	0.34737 0.62318 0.41406 -0.70500
H 	H 	0.29033 0.61552 0.41319 0.13400
C 	C 	0.46332 0.66817 0.03879 0.29800
C 	C 	0.37751 0.83986 0.10265 0.29500
C 	C 	0.41741 0.90653 0.01510 0.27600
Ni	Ni	0.33011 0.66164 0.07973 1.11200
Ni	Ni	0.34756 0.70854 0.00915 1.12800
O 	O 	0.44032 0.66241 0.06619 -0.36800
O 	O 	0.46022 0.72718 0.02174 -0.35900
O 	O 	0.39515 0.83849 0.99716 -0.34200
O 	O 	0.36658 0.90315 0.03637 -0.37500
O 	O 	0.39651 0.77575 0.10326 -0.38000
O 	O 	0.30406 0.82559 0.09277 -0.38500
O 	O 	0.32828 0.73000 0.04787 -0.71000
H 	H 	0.38511 0.77979 0.05110 0.13900
C 	C 	0.90741 0.99951 0.29224 0.30600
C 	C 	0.79412 0.00030 0.22516 0.30100
C 	C 	0.88534 0.84025 0.18055 0.31800
Ni	Ni	0.97771 0.10606 0.23493 1.11200
Ni	Ni	0.87560 0.89301 0.23931 1.12100
O 	O 	0.91637 0.06676 0.27554 -0.37800
O 	O 	0.90003 0.92560 0.28125 -0.38500
O 	O 	0.93199 0.81738 0.24032 -0.38100
O 	O 	0.86457 0.06298 0.21419 -0.38500
O 	O 	0.79398 0.94068 0.24266 -0.37900
O 	O 	0.84182 0.86197 0.19808 -0.39200
O 	O 	0.97712 0.99881 0.23131 -0.70200
H 	H 	0.93358 0.05817 0.12494 0.04000
C 	C 	0.26138 0.37608 0.00918 -0.21500
H 	H 	0.91164 0.13866 0.05750 0.06900
H 	H 	0.89470 0.04049 0.07613 0.06300
H 	H 	0.93791 0.37694 0.05478 0.07000
H 	H 	0.91864 0.27585 0.07171 0.06900
H 	H 	0.31527 0.40086 0.02408 0.09500
H 	H 	0.27855 0.42171 0.99037 0.09800
H 	H 	0.24780 0.31043 0.00112 0.08100
C 	C 	0.56987 0.01147 0.13784 -0.09400
C 	C 	0.53475 0.00591 0.16518 -0.00900
C 	C 	0.44867 0.97955 0.16748 0.03400
C 	C 	0.39584 0.93530 0.14433 -0.01400
C 	C 	0.42963 0.91973 0.11923 -0.10700
C 	C 	0.51773 0.96619 0.11480 0.11000
C 	C 	0.58031 0.99951 0.19035 0.02000
C 	C 	0.41171 0.98867 0.19546 -0.16800
H 	H 	0.32831 0.90559 0.14695 0.03800
C 	C 	0.55679 0.95646 0.08734 -0.20100
H 	H 	0.63737 0.03948 0.13554 0.05700
C 	C 	0.57688 0.91822 0.19691 0.02500
C 	C 	0.64512 0.91855 0.21058 -0.01400
C 	C 	0.71456 0.99839 0.21867 -0.09600
C 	C 	0.70968 0.07702 0.21741 0.09700
C 	C 	0.64329 0.07738 0.20252 -0.10300
C 	C 	0.50533 0.83212 0.18645 -0.17300
H 	H 	0.64663 0.85735 0.21316 0.04000
C 	C 	0.77604 0.16096 0.23091 -0.20300
H 	H 	0.64362 0.13914 0.19877 0.05400
H 	H 	0.57818 0.90744 0.09075 0.08300
H 	H 	0.61171 0.02083 0.08098 0.07500
H 	H 	0.51197 0.93420 0.06924 0.07900
H 	H 	0.45715 0.04975 0.20670 0.06100
H 	H 	0.39561 0.93070 0.20961 0.06100
H 	H 	0.35388 0.99292 0.19158 0.06300
H 	H 	0.50565 0.77460 0.19686 0.06100
H 	H 	0.51066 0.82713 0.16278 0.07400
H 	H 	0.44408 0.82759 0.19177 0.06400
H 	H 	0.82922 0.19677 0.21553 0.07300
H 	H 	0.79949 0.14642 0.25111 0.07200
H 	H 	0.75010 0.20484 0.23659 0.06700
C 	C 	0.87547 0.70795 0.11937 -0.09200
C 	C 	0.87118 0.63742 0.13559 0.01000
C 	C 	0.82837 0.61622 0.16239 0.02600
C 	C 	0.81294 0.67915 0.17577 -0.00800
C 	C 	0.84113 0.76187 0.16253 -0.11500
C 	C 	0.85904 0.77015 0.13273 0.11200
C 	C 	0.81067 0.53341 0.17851 -0.17200
H 	H 	0.79104 0.66900 0.19797 0.03200
C 	C 	0.87467 0.85206 0.11647 -0.21400
C 	C 	0.84632 0.50896 0.08943 -0.18400
H 	H 	0.85915 0.83727 0.09334 0.08000
H 	H 	0.83484 0.87841 0.12528 0.08300
H 	H 	0.79569 0.47868 0.16330 0.06500
H 	H 	0.75599 0.51207 0.19335 0.06000
H 	H 	0.84740 0.45871 0.07504 0.07700
H 	H 	0.83367 0.55451 0.07625 0.08500
H 	H 	0.79416 0.47369 0.10524 0.07700
C 	C 	0.74832 0.91877 0.42641 -0.09700
C 	C 	0.76504 0.87925 0.40297 0.01300
C 	C 	0.72033 0.78636 0.40095 0.03300
C 	C 	0.64459 0.73862 0.41649 -0.01500
C 	C 	0.61583 0.78364 0.43412 -0.10900
C 	C 	0.67475 0.86969 0.44292 0.12500
C 	C 	0.80971 0.93378 0.37731 0.01000
C 	C 	0.74806 0.73957 0.38015 -0.17700
H 	H 	0.60314 0.66955 0.41177 0.04000
C 	C 	0.66380 0.90590 0.47091 -0.22600
H 	H 	0.78867 0.98852 0.43045 0.08100
C 	C 	0.76519 0.95244 0.35609 0.03500
C 	C 	0.80229 0.98421 0.32890 -0.01100
C 	C 	0.88256 0.99691 0.32263 -0.10800
C 	C 	0.93077 0.98898 0.34492 0.12200
C 	C 	0.89375 0.95700 0.37217 -0.09500
C 	C 	0.67602 0.93234 0.36160 -0.18300
H 	H 	0.76631 0.99295 0.31197 0.04600
C 	C 	0.02080 0.01295 0.33956 -0.23300
H 	H 	0.92891 0.94593 0.38885 0.06500
H 	H 	0.68295 0.97680 0.46825 0.10400
H 	H 	0.70426 0.89969 0.48744 0.09900
H 	H 	0.59799 0.87008 0.47887 0.10700
H 	H 	0.81748 0.76916 0.38039 0.07300
H 	H 	0.72803 0.74511 0.35806 0.06600
H 	H 	0.72072 0.66875 0.38615 0.06900
H 	H 	0.65298 0.95818 0.34398 0.07800
H 	H 	0.67218 0.96368 0.38189 0.09300
H 	H 	0.63382 0.85981 0.36322 0.08200
C 	C 	0.48857 0.46113 0.30476 -0.09600
C 	C 	0.42459 0.44328 0.28495 0.00400
C 	C 	0.39037 0.50055 0.28346 0.02600
C 	C 	0.40839 0.56264 0.30528 -0.01100
C 	C 	0.45917 0.56740 0.32845 -0.11500
C 	C 	0.50644 0.52321 0.32664 0.11300
C 	C 	0.37845 0.35375 0.27245 0.00600
C 	C 	0.58345 0.55126 0.34473 -0.21200
H 	H 	0.52062 0.42272 0.30428 0.05600
C 	C 	0.37472 0.34063 0.24235 0.02300
C 	C 	0.32636 0.28282 0.29061 -0.09300
C 	C 	0.44480 0.40321 0.22255 -0.17300
H 	H 	0.33460 0.28926 0.31376 0.06000
H 	H 	0.63891 0.60366 0.33302 0.07000
H 	H 	0.59435 0.49469 0.34873 0.08400
H 	H 	0.57815 0.57684 0.36597 0.09200
H 	H 	0.47138 0.36660 0.21104 0.06400
H 	H 	0.49680 0.45823 0.23425 0.06400
H 	H 	0.41999 0.43150 0.20634 0.06000
H 	H 	0.00489 0.59217 0.33535 0.05400
H 	H 	0.93119 0.66963 0.23581 0.04100
H 	H 	0.00590 0.53052 0.38321 0.08100
H 	H 	0.88328 0.51935 0.24594 0.05800
H 	H 	0.89996 0.50543 0.28332 0.06600
C 	C 	0.55035 0.02454 0.44666 -0.03200
C 	C 	0.56040 0.02949 0.47662 -0.09200
C 	C 	0.50525 0.95703 0.49403 0.09400
C 	C 	0.43706 0.88367 0.48150 -0.02800
C 	C 	0.42373 0.88108 0.45159 -0.07900
C 	C 	0.48005 0.95393 0.43423 0.10300
N 	N 	0.46226 0.96034 0.40463 -0.02000
H 	H 	0.59277 0.08021 0.43321 0.06200
H 	H 	0.39537 0.82799 0.49504 0.06100
N 	N 	0.51888 0.95691 0.52442 -0.02100
O 	O 	0.40077 0.97440 0.39798 -0.09800
O 	O 	0.51366 0.96326 0.38460 -0.12600
O 	O 	0.45513 0.92449 0.54218 -0.13200
O 	O 	0.59313 0.97784 0.53392 -0.12100
C 	C 	0.97264 0.45283 0.46695 -0.01400
C 	C 	0.91950 0.36256 0.46195 -0.07900
C 	C 	0.95213 0.31370 0.44818 0.10900
H 	H 	0.94784 0.49085 0.47743 0.05800
N 	N 	0.89860 0.22198 0.44217 -0.02200
O 	O 	0.83141 0.19695 0.42683 -0.10600
O 	O 	0.91955 0.16409 0.45064 -0.11300
C 	C 	0.56605 0.58484 0.47406 -0.03500
C 	C 	0.50866 0.52309 0.45458 -0.08200
C 	C 	0.52885 0.46299 0.44114 0.08800
C 	C 	0.60181 0.46132 0.44907 -0.02400
C 	C 	0.65086 0.51293 0.47205 -0.08300
C 	C 	0.63694 0.58012 0.48280 0.09700
N 	N 	0.69596 0.64531 0.50187 -0.02000
H 	H 	0.55530 0.63630 0.48261 0.06800
H 	H 	0.61568 0.41360 0.43919 0.04600
N 	N 	0.47195 0.39804 0.42165 -0.01700
O 	O 	0.77559 0.68742 0.49522 -0.09900
O 	O 	0.66953 0.66653 0.52497 -0.11200
O 	O 	0.47905 0.41483 0.39414 -0.11800
O 	O 	0.42014 0.31871 0.43103 -0.10600
C 	C 	0.66304 0.13118 0.64474 -0.09100
C 	C 	0.62887 0.04330 0.63582 -0.01400
C 	C 	0.56147 0.00913 0.61632 0.03000
C 	C 	0.54501 0.06816 0.60062 -0.01700
C 	C 	0.59623 0.15953 0.60427 -0.11300
C 	C 	0.64332 0.18891 0.62980 0.09700
C 	C 	0.67544 0.99554 0.64173 0.03400
C 	C 	0.51323 0.91184 0.61008 -0.17200
H 	H 	0.49993 0.04400 0.58331 0.05200
C 	C 	0.67216 0.28029 0.64110 -0.20300
H 	H 	0.70890 0.15586 0.66185 0.04900
C 	C 	0.74484 0.01032 0.62422 -0.00300
C 	C 	0.80437 0.98907 0.63500 0.02300
C 	C 	0.79456 0.95288 0.66275 -0.12900
C 	C 	0.71602 0.92009 0.67701 0.11700
C 	C 	0.65865 0.94565 0.66714 -0.10800
C 	C 	0.75857 0.05411 0.59501 -0.16600
H 	H 	0.86223 0.00891 0.62306 0.02300
C 	C 	0.69549 0.86370 0.70380 -0.21600
H 	H 	0.60282 0.92976 0.67981 0.05500
H 	H 	0.73159 0.32877 0.63026 0.07900
H 	H 	0.68317 0.28284 0.66468 0.06400
H 	H 	0.62343 0.29968 0.63736 0.07600
H 	H 	0.50454 0.87246 0.63000 0.06600
H 	H 	0.54781 0.89524 0.59377 0.08400
H 	H 	0.44974 0.89277 0.60175 0.07600
H 	H 	0.81047 0.05265 0.58290 0.06400
H 	H 	0.77453 0.12402 0.59748 0.06100
H 	H 	0.70083 0.01923 0.58196 0.07300
H 	H 	0.62683 0.81698 0.70529 0.06900
H 	H 	0.71432 0.90612 0.72311 0.07900
H 	H 	0.72742 0.82351 0.70362 0.07000
C 	C 	0.30971 0.16059 0.60909 0.02600
C 	C 	0.29914 0.14157 0.55531 0.00200
C 	C 	0.40395 0.21785 0.60647 -0.17500
H 	H 	0.30741 0.18333 0.65465 0.04000
C 	C 	0.33878 0.09597 0.54408 0.04100
C 	C 	0.40626 0.13973 0.52452 -0.02000
C 	C 	0.43317 0.22755 0.51634 -0.10000
C 	C 	0.37887 0.26222 0.52157 0.11400
C 	C 	0.31294 0.21978 0.54170 -0.09200
C 	C 	0.31589 0.00531 0.55519 -0.20000
H 	H 	0.44408 0.10979 0.51872 0.05600
C 	C 	0.39888 0.35082 0.50940 -0.21900
H 	H 	0.41971 0.27807 0.59356 0.07200
H 	H 	0.43158 0.18084 0.59586 0.07100
H 	H 	0.43381 0.23886 0.62788 0.06100
H 	H 	0.33367 0.96974 0.53930 0.09300
H 	H 	0.34893 0.01094 0.57572 0.07200
H 	H 	0.34094 0.35598 0.50730 0.09000
H 	H 	0.42746 0.36009 0.48766 0.10900
H 	H 	0.44350 0.40407 0.52367 0.09200
C 	C 	0.94514 0.46623 0.63626 -0.10100
C 	C 	0.98034 0.55752 0.63185 0.01800
C 	C 	0.00509 0.59271 0.60370 0.00700
C 	C 	0.97536 0.53537 0.58015 0.00400
C 	C 	0.92083 0.44483 0.58490 -0.11100
C 	C 	0.91992 0.40967 0.61250 0.10700
C 	C 	0.97531 0.61245 0.65512 0.01000
H 	H 	0.98501 0.56227 0.55844 0.05000
C 	C 	0.89440 0.31381 0.61657 -0.20800
H 	H 	0.93352 0.43916 0.65797 0.05400
C 	C 	0.90751 0.62989 0.65643 0.02700
C 	C 	0.91318 0.69756 0.67420 -0.01500
C 	C 	0.83147 0.58017 0.63769 -0.17500
H 	H 	0.86429 0.71569 0.67370 0.03900
H 	H 	0.82542 0.27391 0.61942 0.07900
H 	H 	0.91417 0.28932 0.59767 0.08200
H 	H 	0.01153 0.71929 0.59999 0.06500
H 	H 	0.77911 0.59139 0.64447 0.06300
H 	H 	0.80823 0.50806 0.63921 0.06500
H 	H 	0.84806 0.60229 0.61492 0.07200
C 	C 	0.95915 0.57954 0.98363 -0.00700
C 	C 	0.95651 0.55385 0.95482 -0.08900
H 	H 	0.90163 0.55326 0.99625 0.02900
O 	O 	0.99662 0.48074 0.90270 -0.09800
C 	C 	0.58734 0.10160 0.97258 -0.01800
C 	C 	0.60261 0.17139 0.99121 -0.08700
C 	C 	0.57294 0.15138 0.01988 0.10600
C 	C 	0.51593 0.06391 0.02785 -0.05400
C 	C 	0.49134 0.99479 0.00793 -0.04200
C 	C 	0.53246 0.01359 0.98078 0.07000
N 	N 	0.52100 0.94414 0.96185 -0.01200
H 	H 	0.61544 0.11588 0.95119 0.06000
H 	H 	0.48939 0.05014 0.04945 0.06700
N 	N 	0.60193 0.21899 0.04116 -0.02000
O 	O 	0.48523 0.93617 0.93707 -0.10400
O 	O 	0.55532 0.89594 0.96782 -0.09200
O 	O 	0.54811 0.23222 0.05566 -0.08800
O 	O 	0.68044 0.25875 0.04870 -0.10900
C 	C 	0.49465 0.52100 0.98519 -0.03600
C 	C 	0.50640 0.46456 0.00379 -0.07700
C 	C 	0.49274 0.46723 0.03354 0.09400
C 	C 	0.48076 0.53494 0.04476 -0.03100
C 	C 	0.47880 0.59845 0.02635 -0.07600
C 	C 	0.48431 0.58988 0.99611 0.09200
N 	N 	0.48530 0.65403 0.97651 -0.02200
H 	H 	0.50314 0.51784 0.96218 0.06000
H 	H 	0.47246 0.53759 0.06780 0.06300
N 	N 	0.49209 0.40163 0.05248 -0.02100
O 	O 	0.55631 0.72347 0.96968 -0.10000
O 	O 	0.41783 0.63659 0.96230 -0.13200
O 	O 	0.53638 0.42509 0.07588 -0.10400
O 	O 	0.44414 0.31827 0.04700 -0.09400
C 	C 	0.70408 0.25818 0.81662 -0.09100
C 	C 	0.70878 0.18281 0.82447 0.00400
C 	C 	0.67328 0.13957 0.85098 0.03000
C 	C 	0.64516 0.17986 0.87097 -0.01100
C 	C 	0.64878 0.26027 0.86418 -0.10800
C 	C 	0.67098 0.29513 0.83593 0.10200
C 	C 	0.75794 0.15478 0.80614 0.00500
C 	C 	0.67008 0.05371 0.85876 -0.17700
H 	H 	0.62526 0.15142 0.89238 0.04600
C 	C 	0.66533 0.37553 0.82705 -0.20600
H 	H 	0.72868 0.28969 0.79587 0.05200
C 	C 	0.72635 0.11289 0.77954 0.02300
C 	C 	0.77709 0.09347 0.76164 -0.01700
C 	C 	0.85671 0.11022 0.77068 -0.10100
C 	C 	0.88714 0.14923 0.79775 0.09500
C 	C 	0.83818 0.17308 0.81497 -0.09100
C 	C 	0.63922 0.08983 0.77000 -0.17100
H 	H 	0.75412 0.06401 0.74076 0.03800
C 	C 	0.96833 0.15932 0.80926 -0.19500
H 	H 	0.86194 0.20474 0.83551 0.05800
H 	H 	0.60666 0.37139 0.83570 0.08200
H 	H 	0.66419 0.38112 0.80321 0.06700
H 	H 	0.72036 0.43592 0.83533 0.06900
H 	H 	0.73306 0.06682 0.86585 0.07000
H 	H 	0.65033 0.00897 0.83995 0.06600
H 	H 	0.62410 0.01885 0.87649 0.07400
H 	H 	0.61877 0.04431 0.75138 0.05700
H 	H 	0.63826 0.15082 0.76348 0.06100
H 	H 	0.59303 0.05634 0.78777 0.06200
H 	H 	0.02077 0.19789 0.79389 0.06800
H 	H 	0.96168 0.09297 0.81267 0.07000
H 	H 	0.98514 0.19435 0.83017 0.07000
C 	C 	0.46277 0.50675 0.83005 -0.09300
C 	C 	0.38838 0.42557 0.82757 0.00400
C 	C 	0.36003 0.36533 0.85106 0.02700
C 	C 	0.41026 0.38385 0.87548 -0.01100
C 	C 	0.49006 0.45922 0.87623 -0.10600
C 	C 	0.51334 0.52481 0.85454 0.10300
C 	C 	0.34992 0.39671 0.79892 0.00300
C 	C 	0.28083 0.27714 0.84893 -0.17200
H 	H 	0.39036 0.33554 0.89286 0.03900
C 	C 	0.59299 0.61243 0.85680 -0.20400
H 	H 	0.48332 0.55402 0.81234 0.05100
C 	C 	0.38248 0.35752 0.78033 -0.09500
C 	C 	0.36727 0.25667 0.73945 -0.20400
H 	H 	0.44514 0.36736 0.78381 0.05100
H 	H 	0.60615 0.63364 0.87960 0.08000
H 	H 	0.58749 0.66466 0.84472 0.07100
H 	H 	0.64658 0.60709 0.84767 0.07400
H 	H 	0.28815 0.23764 0.83161 0.06500
H 	H 	0.22632 0.28644 0.84418 0.06200
H 	H 	0.26640 0.23851 0.86936 0.06000
H 	H 	0.43648 0.29893 0.73703 0.06500
H 	H 	0.35364 0.19171 0.74852 0.07100
C 	C 	0.89468 0.85624 0.90916 -0.10600
C 	C 	0.97068 0.85834 0.90260 0.03800
C 	C 	0.95020 0.76486 0.94430 0.00600
C 	C 	0.86530 0.74264 0.94508 -0.11000
C 	C 	0.84281 0.80055 0.93136 0.11500
C 	C 	0.00080 0.87341 0.87228 -0.02800
H 	H 	0.97171 0.72948 0.95782 0.05700
C 	C 	0.75843 0.79315 0.93704 -0.21500
H 	H 	0.87214 0.89025 0.89524 0.06100
C 	C 	0.97172 0.80187 0.85294 0.05100
C 	C 	0.98691 0.81883 0.82327 -0.01000
C 	C 	0.91956 0.70777 0.86362 -0.18800
H 	H 	0.96167 0.76433 0.80829 0.04300
H 	H 	0.71242 0.74873 0.92101 0.08900
H 	H 	0.76313 0.85917 0.93538 0.08700
H 	H 	0.73516 0.76651 0.95906 0.09600
H 	H 	0.90394 0.65965 0.84590 0.06700
H 	H 	0.85963 0.69775 0.87319 0.06500
H 	H 	0.95454 0.69257 0.88005 0.08900
