data_crystal

_cell_length_a 22.87976
_cell_length_b 20.62709
_cell_length_c 51.71927
_cell_angle_alpha 89.92416
_cell_angle_beta  89.92756
_cell_angle_gamma 119.43535

_symmetry_space_group_name_	'P 1'
_symmetry_space_group_name_H-M	'P 1'

loop_
_symmetry_equiv_pos_as_xyz
  x,y,z

loop_
_atom_site_label
_atom_site_type_symbol
_atom_site_fract_x
_atom_site_fract_y
_atom_site_fract_z
_atom_site_charge
C 	C 	0.56020 0.29190 0.91184 0.29500
C 	C 	0.81949 0.54244 0.93823 0.31100
C 	C 	0.73361 0.32628 0.89695 0.31700
C 	C 	0.65683 0.50999 0.96190 0.29200
C 	C 	0.79419 0.34133 0.97176 0.31000
C 	C 	0.61489 0.29216 0.99915 0.28800
Ni	Ni	0.69145 0.43112 0.91874 1.12400
Ni	Ni	0.73270 0.43531 0.97893 1.12400
Ni	Ni	0.66306 0.28032 0.94732 1.12500
O 	O 	0.58918 0.36494 0.91468 -0.36600
O 	O 	0.58949 0.25258 0.91958 -0.35600
O 	O 	0.80642 0.40952 0.97622 -0.37200
O 	O 	0.79349 0.48331 0.92397 -0.37500
O 	O 	0.79773 0.53643 0.96219 -0.35900
O 	O 	0.59867 0.25470 0.97696 -0.36900
O 	O 	0.69913 0.36006 0.89232 -0.36100
O 	O 	0.73301 0.29915 0.91989 -0.37900
O 	O 	0.67679 0.34851 0.00357 -0.36400
O 	O 	0.68406 0.51577 0.93862 -0.35900
O 	O 	0.66902 0.47663 0.98155 -0.37000
O 	O 	0.73236 0.28563 0.97246 -0.37500
O 	O 	0.68087 0.38013 0.94958 -0.71900
H 	H 	0.63614 0.37096 0.95501 0.16300
C 	C 	0.82808 0.48498 0.55287 0.28900
C 	C 	0.60233 0.18246 0.55853 0.31300
C 	C 	0.64695 0.41023 0.53348 0.30800
C 	C 	0.77590 0.24951 0.58365 0.29200
C 	C 	0.57490 0.32803 0.61130 0.31600
C 	C 	0.75202 0.41775 0.63564 0.29200
Ni	Ni	0.72076 0.32622 0.54631 1.11400
Ni	Ni	0.66927 0.27549 0.60473 1.12700
Ni	Ni	0.70179 0.43639 0.58564 1.12300
O 	O 	0.81575 0.41732 0.54631 -0.36600
O 	O 	0.77875 0.49854 0.55994 -0.36400
O 	O 	0.58307 0.27590 0.60062 -0.38400
O 	O 	0.62163 0.24374 0.54552 -0.37500
O 	O 	0.62987 0.18453 0.58102 -0.36200
O 	O 	0.76385 0.46331 0.61576 -0.37800
O 	O 	0.69294 0.39425 0.52528 -0.35900
O 	O 	0.63128 0.40414 0.55793 -0.37900
O 	O 	0.70152 0.34738 0.63555 -0.36000
O 	O 	0.75349 0.25182 0.55986 -0.35900
O 	O 	0.75252 0.26594 0.60467 -0.36600
O 	O 	0.62439 0.39743 0.61127 -0.37000
O 	O 	0.71476 0.35317 0.58036 -0.71900
H 	H 	0.76148 0.37376 0.58626 0.16800
C 	C 	0.96582 0.86856 0.73796 0.29200
C 	C 	0.16406 0.12987 0.79453 0.31300
C 	C 	0.98042 0.92974 0.80867 0.30700
C 	C 	0.16605 0.10897 0.72427 0.29500
C 	C 	0.96876 0.12505 0.79014 0.31600
C 	C 	0.95665 0.07916 0.71775 0.28500
Ni	Ni	0.08175 0.99012 0.76631 1.10100
Ni	Ni	0.07329 0.13933 0.75485 1.12500
Ni	Ni	0.93865 0.98534 0.76341 1.10600
O 	O 	0.03208 0.91063 0.73815 -0.37100
O 	O 	0.92644 0.88278 0.75333 -0.36800
O 	O 	0.03330 0.14963 0.78794 -0.37500
O 	O 	0.11935 0.06026 0.79760 -0.35500
O 	O 	0.15997 0.16787 0.77484 -0.36200
O 	O 	0.92269 0.01025 0.72730 -0.34600
O 	O 	0.01318 0.91183 0.79193 -0.36500
O 	O 	0.95373 0.97039 0.80124 -0.38300
O 	O 	0.99853 0.13639 0.73247 -0.36000
O 	O 	0.16375 0.06178 0.74255 -0.34100
O 	O 	0.12325 0.13474 0.72356 -0.37000
O 	O 	0.92572 0.07059 0.77540 -0.35800
O 	O 	0.03171 0.03386 0.75528 -0.70500
H 	H 	0.02969 0.02322 0.73663 0.17300
C 	C 	0.27491 0.76543 0.41047 0.29000
C 	C 	0.40698 0.65100 0.48381 0.30900
C 	C 	0.45431 0.83596 0.42672 0.30400
C 	C 	0.22270 0.58049 0.47213 0.28800
C 	C 	0.44483 0.63109 0.40293 0.31400
C 	C 	0.26128 0.53512 0.38845 0.29700
Ni	Ni	0.33960 0.72779 0.45739 1.11200
Ni	Ni	0.32857 0.57281 0.43864 1.12300
Ni	Ni	0.36107 0.70027 0.39727 1.12500
O 	O 	0.30791 0.78785 0.43302 -0.36400
O 	O 	0.28390 0.72096 0.39433 -0.36600
O 	O 	0.39131 0.57086 0.41133 -0.37200
O 	O 	0.37110 0.68407 0.48775 -0.36200
O 	O 	0.41094 0.62848 0.46070 -0.38000
O 	O 	0.31027 0.59947 0.37891 -0.36400
O 	O 	0.43884 0.79335 0.44706 -0.37700
O 	O 	0.41753 0.81105 0.40578 -0.36100
O 	O 	0.25328 0.52096 0.41360 -0.38100
O 	O 	0.24373 0.65267 0.46964 -0.36600
O 	O 	0.26474 0.55333 0.46952 -0.36500
O 	O 	0.44525 0.69460 0.40117 -0.38000
O 	O 	0.32572 0.66079 0.43050 -0.71800
H 	H 	0.27737 0.64033 0.42730 0.16700
C 	C 	0.22083 0.54478 0.00579 0.29100
C 	C 	0.35027 0.82542 0.06438 0.30400
C 	C 	0.40374 0.70336 0.00934 0.31000
C 	C 	0.17055 0.68194 0.06819 0.29500
C 	C 	0.41505 0.66982 0.09029 0.31000
C 	C 	0.23257 0.50718 0.09071 0.29000
Ni	Ni	0.27742 0.70001 0.02693 1.11600
Ni	Ni	0.28854 0.67387 0.08816 1.12400
Ni	Ni	0.32552 0.58463 0.04739 1.12300
O 	O 	0.20949 0.60173 0.00865 -0.36100
O 	O 	0.27944 0.55050 0.01220 -0.36800
O 	O 	0.38764 0.71270 0.09270 -0.37900
O 	O 	0.35292 0.80068 0.04129 -0.37000
O 	O 	0.30832 0.78035 0.08190 -0.37200
O 	O 	0.25076 0.49950 0.06690 -0.37000
O 	O 	0.34740 0.69885 0.00147 -0.36700
O 	O 	0.40637 0.67271 0.03126 -0.38200
O 	O 	0.26360 0.57208 0.10320 -0.36600
O 	O 	0.20299 0.71366 0.04620 -0.35900
O 	O 	0.19136 0.64707 0.08429 -0.37100
O 	O 	0.38158 0.60409 0.07938 -0.37700
O 	O 	0.28202 0.64121 0.05359 -0.72200
H 	H 	0.23504 0.60071 0.05343 0.16100
C 	C 	0.97770 0.06484 0.20523 0.28900
C 	C 	0.82787 0.85859 0.28986 0.31000
C 	C 	0.00769 0.08279 0.27685 0.30900
C 	C 	0.79491 0.83698 0.21617 0.28800
C 	C 	0.01792 0.87854 0.28093 0.30500
C 	C 	0.99800 0.85968 0.20556 0.29900
Ni	Ni	0.88296 0.97481 0.24831 1.10600
Ni	Ni	0.89782 0.82588 0.24816 1.12500
Ni	Ni	0.02803 0.98516 0.24073 1.11200
O 	O 	0.91358 0.02786 0.21255 -0.33700
O 	O 	0.02661 0.07018 0.22061 -0.34800
O 	O 	0.95198 0.84030 0.28040 -0.37200
O 	O 	0.86091 0.93079 0.28561 -0.36800
O 	O 	0.82101 0.81207 0.27132 -0.36700
O 	O 	0.03133 0.93340 0.20826 -0.37600
O 	O 	0.95694 0.07567 0.26300 -0.34500
O 	O 	0.02965 0.03498 0.27471 -0.35300
O 	O 	0.96465 0.81485 0.22520 -0.36600
O 	O 	0.79571 0.88400 0.23388 -0.36100
O 	O 	0.83154 0.80335 0.21885 -0.35800
O 	O 	0.05213 0.91755 0.26071 -0.37800
O 	O 	0.93324 0.92826 0.24003 -0.72600
H 	H 	0.92676 0.92395 0.22117 0.15200
C 	C 	0.08066 0.32338 0.11013 -0.03300
C 	C 	0.10312 0.30723 0.13337 0.02400
C 	C 	0.16760 0.35709 0.14287 -0.03400
C 	C 	0.20968 0.42307 0.12919 0.02200
C 	C 	0.18760 0.43900 0.10568 -0.06500
C 	C 	0.12240 0.38975 0.09652 0.02000
C 	C 	0.05839 0.23816 0.14826 0.02000
C 	C 	0.19051 0.34045 0.16684 0.10600
C 	C 	0.09673 0.40957 0.07406 0.09100
C 	C 	0.06292 0.17313 0.14444 -0.02500
C 	C 	0.03238 0.11358 0.16218 0.00400
C 	C 	0.99662 0.11878 0.18364 -0.05100
C 	C 	0.98709 0.18125 0.18607 0.02300
C 	C 	0.01728 0.24040 0.16817 -0.03200
C 	C 	0.10033 0.16832 0.12258 0.10700
C 	C 	0.94921 0.18642 0.20772 0.10100
C 	C 	0.03883 0.04770 0.15855 0.14100
C 	C 	0.00756 0.30450 0.17059 0.10300
C 	C 	0.01448 0.27180 0.10030 0.10300
C 	C 	0.27491 0.47522 0.13968 0.10200
N 	N 	0.04438 0.99545 0.15542 -0.12900
N 	N 	0.13020 0.16456 0.10512 -0.09600
N 	N 	0.91905 0.19058 0.22500 -0.09400
N 	N 	0.99987 0.35571 0.17248 -0.09700
N 	N 	0.20865 0.32705 0.18595 -0.09800
N 	N 	0.32671 0.51684 0.14823 -0.09600
N 	N 	0.07592 0.42551 0.05624 -0.10600
N 	N 	0.96166 0.23060 0.09248 -0.09900
C 	C 	0.71178 0.79454 0.15020 -0.03500
C 	C 	0.64382 0.76642 0.15707 0.02200
C 	C 	0.62542 0.76015 0.18339 -0.03600
C 	C 	0.67439 0.77885 0.20275 0.02300
C 	C 	0.74281 0.81071 0.19586 -0.06800
C 	C 	0.76152 0.82059 0.16953 0.02200
C 	C 	0.59112 0.74087 0.13659 0.02300
C 	C 	0.55611 0.73461 0.19049 0.10400
C 	C 	0.83182 0.86114 0.16233 0.08200
C 	C 	0.54926 0.66411 0.13212 -0.03600
C 	C 	0.49384 0.63958 0.11535 0.02400
C 	C 	0.48115 0.69248 0.10268 -0.07600
C 	C 	0.53021 0.76842 0.10361 0.02300
C 	C 	0.58230 0.79318 0.12193 -0.03900
C 	C 	0.56312 0.61049 0.14491 0.10600
C 	C 	0.53128 0.81906 0.08394 0.08600
C 	C 	0.45276 0.56069 0.11014 0.10000
C 	C 	0.62595 0.87222 0.12600 0.09800
C 	C 	0.73035 0.79595 0.12330 0.10200
C 	C 	0.65431 0.76386 0.22970 0.10000
N 	N 	0.42025 0.49767 0.10598 -0.09800
N 	N 	0.57424 0.56778 0.15513 -0.10000
N 	N 	0.53236 0.85926 0.06809 -0.10900
N 	N 	0.66083 0.93531 0.12927 -0.11300
N 	N 	0.50079 0.71419 0.19613 -0.10200
N 	N 	0.63839 0.75194 0.25120 -0.09500
N 	N 	0.88790 0.89362 0.15654 -0.11000
N 	N 	0.74511 0.79704 0.10183 -0.10800
C 	C 	0.04085 0.67181 0.11363 -0.03500
C 	C 	0.05592 0.74676 0.11274 0.02200
C 	C 	0.08967 0.79090 0.09108 -0.03700
C 	C 	0.11893 0.76456 0.07287 0.02100
C 	C 	0.11495 0.69455 0.07684 -0.07000
C 	C 	0.06753 0.64476 0.09472 0.02200
C 	C 	0.04229 0.78084 0.13564 0.02200
C 	C 	0.09583 0.86387 0.08800 0.10100
C 	C 	0.04552 0.56600 0.09341 0.09400
C 	C 	0.09423 0.82258 0.15337 -0.03600
C 	C 	0.07960 0.84687 0.17671 0.02800
C 	C 	0.01266 0.82726 0.18269 -0.07000
C 	C 	0.96045 0.78000 0.16590 0.02600
C 	C 	0.97610 0.76387 0.14133 -0.03200
C 	C 	0.16244 0.83958 0.14770 0.10200
C 	C 	0.89177 0.74004 0.17502 0.08900
C 	C 	0.13271 0.88842 0.19518 0.09500
C 	C 	0.92398 0.72877 0.12199 0.10600
C 	C 	0.00066 0.62379 0.13461 0.10100
C 	C 	0.15003 0.80757 0.04974 0.09300
N 	N 	0.17503 0.92152 0.20993 -0.10200
N 	N 	0.21680 0.85308 0.14313 -0.10900
N 	N 	0.83665 0.70681 0.18198 -0.09500
N 	N 	0.88240 0.70078 0.10656 -0.10400
N 	N 	0.10071 0.92212 0.08558 -0.10900
N 	N 	0.17470 0.84199 0.03125 -0.11100
N 	N 	0.02731 0.50289 0.09257 -0.09900
N 	N 	0.96859 0.58553 0.15136 -0.09800
C 	C 	0.62391 0.69617 0.39040 -0.03700
C 	C 	0.62118 0.68767 0.36334 0.02300
C 	C 	0.56015 0.63682 0.35150 -0.03600
C 	C 	0.50011 0.60593 0.36597 0.02400
C 	C 	0.50187 0.62593 0.39212 -0.07600
C 	C 	0.56408 0.66280 0.40488 0.02400
C 	C 	0.67983 0.73871 0.34714 0.02400
C 	C 	0.55897 0.61892 0.32435 0.10700
C 	C 	0.56624 0.66900 0.43274 0.09000
C 	C 	0.73338 0.72437 0.34343 -0.03500
C 	C 	0.78809 0.77207 0.32771 0.02500
C 	C 	0.78573 0.82896 0.31329 -0.07200
C 	C 	0.73394 0.84594 0.31817 0.02700
C 	C 	0.68198 0.80191 0.33562 -0.03600
C 	C 	0.73150 0.65970 0.35537 0.10600
C 	C 	0.73257 0.90661 0.30448 0.09000
C 	C 	0.84731 0.76365 0.32692 0.08900
C 	C 	0.63018 0.82087 0.34150 0.10300
C 	C 	0.68770 0.74204 0.40309 0.10100
C 	C 	0.43641 0.55747 0.35366 0.09300
N 	N 	0.89418 0.75609 0.32664 -0.09500
N 	N 	0.72996 0.60810 0.36491 -0.10200
N 	N 	0.73144 0.95499 0.29356 -0.11100
N 	N 	0.58880 0.83586 0.34622 -0.10700
N 	N 	0.55814 0.60474 0.30267 -0.09800
N 	N 	0.38563 0.51884 0.34377 -0.09500
N 	N 	0.56845 0.67414 0.45501 -0.10800
N 	N 	0.73864 0.77866 0.41319 -0.10900
C 	C 	0.14196 0.27373 0.29852 -0.03400
C 	C 	0.11218 0.28368 0.32094 0.02400
C 	C 	0.04784 0.22786 0.32876 -0.03200
C 	C 	0.01419 0.16113 0.31465 0.02600
C 	C 	0.04502 0.15002 0.29274 -0.06800
C 	C 	0.10881 0.20663 0.28459 0.02700
C 	C 	0.15158 0.34932 0.33783 0.02400
C 	C 	0.01666 0.23901 0.35150 0.10500
C 	C 	0.13981 0.19629 0.26164 0.09000
C 	C 	0.14538 0.41377 0.33520 -0.03500
C 	C 	0.18138 0.47490 0.35179 0.02400
C 	C 	0.22485 0.47223 0.37055 -0.06800
C 	C 	0.23232 0.40831 0.37264 0.02800
C 	C 	0.19502 0.34670 0.35655 -0.03500
C 	C 	0.10180 0.41690 0.31550 0.10600
C 	C 	0.27904 0.40626 0.39114 0.09100
C 	C 	0.17217 0.53952 0.35012 0.09000
C 	C 	0.20103 0.28017 0.35927 0.10800
C 	C 	0.20697 0.33252 0.28994 0.10900
C 	C 	0.94791 0.10377 0.32268 0.10700
N 	N 	0.16482 0.59108 0.34884 -0.09500
N 	N 	0.06700 0.41931 0.29976 -0.10000
N 	N 	0.31615 0.40419 0.40585 -0.10500
N 	N 	0.20574 0.22707 0.36140 -0.09600
N 	N 	0.99186 0.24799 0.36964 -0.09900
N 	N 	0.89504 0.05806 0.32910 -0.08300
N 	N 	0.16468 0.18821 0.24334 -0.09700
N 	N 	0.25885 0.37948 0.28312 -0.09700
C 	C 	0.23394 0.88200 0.36603 -0.03700
C 	C 	0.16332 0.83883 0.36590 0.02100
C 	C 	0.13058 0.78453 0.38531 -0.03400
C 	C 	0.16876 0.76922 0.40325 0.01800
C 	C 	0.23895 0.80344 0.40044 -0.06900
C 	C 	0.27184 0.86363 0.38304 0.02100
C 	C 	0.12389 0.84716 0.34429 0.02400
C 	C 	0.05791 0.74330 0.38639 0.10000
C 	C 	0.34451 0.90520 0.38210 0.08500
C 	C 	0.11943 0.81274 0.32022 -0.03600
C 	C 	0.08521 0.82353 0.29941 0.02500
C 	C 	0.05403 0.86740 0.30276 -0.07100
C 	C 	0.05676 0.89999 0.32705 0.02400
C 	C 	0.09275 0.89109 0.34763 -0.03700
C 	C 	0.15047 0.76664 0.31685 0.10600
C 	C 	0.02200 0.94203 0.33093 0.08500
C 	C 	0.08148 0.78887 0.27462 0.09600
C 	C 	0.09831 0.92762 0.37216 0.10000
C 	C 	0.26748 0.94404 0.34825 0.09900
C 	C 	0.13623 0.72011 0.42496 0.08200
N 	N 	0.07848 0.76130 0.25482 -0.09400
N 	N 	0.17532 0.72993 0.31418 -0.10000
N 	N 	0.99413 0.97541 0.33408 -0.10300
N 	N 	0.10279 0.95675 0.39175 -0.11100
N 	N 	0.99988 0.71043 0.38722 -0.10100
N 	N 	0.11019 0.68124 0.44239 -0.11100
N 	N 	0.40250 0.93868 0.38119 -0.10200
N 	N 	0.29418 0.99353 0.33404 -0.10900
C 	C 	0.56906 0.01138 0.46389 0.02800
C 	C 	0.60043 0.02871 0.48812 -0.05400
C 	C 	0.56877 0.04386 0.50854 0.02500
C 	C 	0.50689 0.04044 0.50482 0.00600
C 	C 	0.47740 0.02791 0.48039 -0.06100
C 	C 	0.50657 0.00796 0.46021 0.06100
S 	S 	0.57138 0.94935 0.44426 0.00300
C 	C 	0.49612 0.91603 0.43043 -0.05000
C 	C 	0.46706 0.95659 0.44079 -0.06600
S 	S 	0.49650 0.08871 0.52821 0.05400
C 	C 	0.56708 0.11199 0.54471 -0.06900
C 	C 	0.60274 0.08379 0.53096 -0.01300
H 	H 	0.64740 0.02893 0.49107 0.06600
H 	H 	0.43022 0.02737 0.47766 0.06700
H 	H 	0.41401 0.93805 0.43874 0.05600
H 	H 	0.65581 0.10410 0.53390 0.05500
C 	C 	0.98374 0.57586 0.51106 0.00700
C 	C 	0.00760 0.55423 0.48959 -0.05300
C 	C 	0.05439 0.53000 0.49370 0.02800
C 	C 	0.07512 0.52584 0.51878 0.00100
C 	C 	0.05236 0.54854 0.54021 -0.04500
C 	C 	0.00254 0.56855 0.53630 0.02100
S 	S 	0.90663 0.56339 0.51278 0.04600
C 	C 	0.89238 0.54688 0.54448 -0.06400
C 	C 	0.95210 0.55445 0.55506 -0.01600
S 	S 	0.14962 0.53091 0.51665 0.04800
C 	C 	0.15738 0.53442 0.48437 -0.06400
C 	C 	0.09958 0.53284 0.47433 -0.01800
H 	H 	0.99031 0.55633 0.47028 0.06300
H 	H 	0.06956 0.54604 0.55950 0.06000
H 	H 	0.95380 0.53487 0.57436 0.05500
H 	H 	0.09581 0.54584 0.45432 0.05500
C 	C 	0.58642 0.54268 0.50735 0.00300
C 	C 	0.58232 0.60740 0.51172 -0.04500
C 	C 	0.51872 0.59976 0.51666 0.02200
C 	C 	0.46279 0.52869 0.52008 0.00600
C 	C 	0.46759 0.46402 0.51641 -0.04700
C 	C 	0.53071 0.47191 0.51057 0.02500
S 	S 	0.65490 0.53514 0.51136 0.04000
C 	C 	0.61793 0.44269 0.51587 -0.07000
C 	C 	0.54806 0.41548 0.51516 -0.01300
S 	S 	0.39515 0.53501 0.51283 0.03700
C 	C 	0.43170 0.62595 0.50571 -0.07200
C 	C 	0.50117 0.65460 0.50928 -0.01200
H 	H 	0.62626 0.66190 0.50974 0.05600
H 	H 	0.42373 0.40940 0.51824 0.05900
H 	H 	0.51208 0.36059 0.52221 0.05600
H 	H 	0.53802 0.70926 0.50236 0.05100
C 	C 	0.94864 0.11489 0.64606 -0.03000
C 	C 	0.90190 0.14082 0.64602 0.02100
C 	C 	0.87135 0.14361 0.66943 -0.03200
C 	C 	0.88567 0.11807 0.69259 0.02500
C 	C 	0.93474 0.09555 0.69286 -0.05800
C 	C 	0.96598 0.09359 0.66954 0.02200
C 	C 	0.88113 0.16060 0.62115 0.03100
C 	C 	0.82546 0.17320 0.66965 0.10700
C 	C 	0.01571 0.06943 0.66969 0.09600
C 	C 	0.81898 0.11034 0.61005 -0.05100
C 	C 	0.78582 0.13727 0.59398 0.03000
C 	C 	0.81753 0.21375 0.58754 -0.07100
C 	C 	0.88600 0.25906 0.59347 0.02300
C 	C 	0.91715 0.23371 0.61128 -0.03700
C 	C 	0.78763 0.03182 0.61637 0.14900
C 	C 	0.92307 0.33282 0.58230 0.08800
C 	C 	0.71680 0.08820 0.58657 0.09000
C 	C 	0.98465 0.28344 0.62025 0.10700
C 	C 	0.97856 0.10985 0.62196 0.10900
C 	C 	0.84852 0.11287 0.71598 0.10300
N 	N 	0.66155 0.04829 0.58096 -0.09500
N 	N 	0.76268 0.96915 0.62145 -0.14300
N 	N 	0.95266 0.39170 0.57333 -0.10700
N 	N 	0.03856 0.32312 0.62744 -0.10500
N 	N 	0.78888 0.19684 0.66976 -0.10000
N 	N 	0.81877 0.10857 0.73462 -0.09200
N 	N 	0.05535 0.05006 0.66977 -0.09400
N 	N 	0.00242 0.10586 0.60270 -0.10000
C 	C 	0.44545 0.22792 0.66356 -0.03700
C 	C 	0.39537 0.24534 0.65650 0.02700
C 	C 	0.40641 0.29462 0.63576 -0.03700
C 	C 	0.46764 0.32624 0.62204 0.02800
C 	C 	0.51641 0.30584 0.62833 -0.07800
C 	C 	0.50464 0.25562 0.64893 0.03300
C 	C 	0.33196 0.21357 0.67165 0.02000
C 	C 	0.35454 0.31207 0.62843 0.10400
C 	C 	0.55275 0.23100 0.65470 0.08100
C 	C 	0.32647 0.25432 0.69241 -0.03200
C 	C 	0.27301 0.21956 0.71006 0.02200
C 	C 	0.22477 0.14363 0.70697 -0.05900
C 	C 	0.22996 0.10302 0.68605 0.00900
C 	C 	0.28213 0.13878 0.66786 -0.02700
C 	C 	0.37691 0.33178 0.69592 0.10500
C 	C 	0.18226 0.02430 0.68348 0.14100
C 	C 	0.26844 0.26169 0.73165 0.09100
C 	C 	0.28528 0.09858 0.64540 0.10600
C 	C 	0.43583 0.18123 0.68597 0.11000
C 	C 	0.47945 0.37751 0.60087 0.08800
N 	N 	0.26540 0.29604 0.74875 -0.09900
N 	N 	0.41718 0.39353 0.69869 -0.10200
N 	N 	0.14420 0.96149 0.68146 -0.13300
N 	N 	0.28787 0.06656 0.62747 -0.09800
N 	N 	0.31310 0.32596 0.62260 -0.10400
N 	N 	0.48891 0.41837 0.58396 -0.10500
N 	N 	0.59073 0.21092 0.65940 -0.11000
N 	N 	0.42807 0.14402 0.70385 -0.09700
C 	C 	0.78261 0.52899 0.69571 -0.03500
C 	C 	0.85255 0.57455 0.69327 0.02300
C 	C 	0.88931 0.55058 0.67797 -0.03500
C 	C 	0.85494 0.48765 0.66198 0.02200
C 	C 	0.78440 0.45173 0.66039 -0.06600
C 	C 	0.74822 0.46777 0.67906 0.02300
C 	C 	0.88582 0.65131 0.70413 0.02300
C 	C 	0.96201 0.59202 0.67803 0.10400
C 	C 	0.67565 0.42499 0.67992 0.10000
C 	C 	0.91297 0.66441 0.72923 -0.03500
C 	C 	0.93866 0.73546 0.74043 0.02400
C 	C 	0.93730 0.79368 0.72646 -0.06800
C 	C 	0.91053 0.78067 0.70128 0.02000
C 	C 	0.88566 0.70981 0.68997 -0.03600
C 	C 	0.91389 0.60449 0.74361 0.10600
C 	C 	0.90761 0.83984 0.68717 0.08200
C 	C 	0.96592 0.74838 0.76641 0.09400
C 	C 	0.85947 0.69674 0.66383 0.10100
C 	C 	0.74592 0.54709 0.71458 0.10500
C 	C 	0.89191 0.46204 0.64618 0.08700
N 	N 	0.98755 0.75807 0.78714 -0.09500
N 	N 	0.91459 0.55663 0.75506 -0.10000
N 	N 	0.90514 0.88697 0.67593 -0.10900
N 	N 	0.83855 0.68617 0.64297 -0.11000
N 	N 	0.02007 0.62518 0.67810 -0.10600
N 	N 	0.92137 0.44153 0.63355 -0.10300
N 	N 	0.61768 0.39146 0.68082 -0.09800
N 	N 	0.71673 0.56162 0.72965 -0.10200
C 	C 	0.06312 0.36973 0.97956 0.00400
C 	C 	0.99504 0.32157 0.98481 -0.04500
C 	C 	0.94723 0.32448 0.96860 0.02600
C 	C 	0.96796 0.37536 0.94788 0.00200
C 	C 	0.03512 0.43071 0.94525 -0.04600
C 	C 	0.08288 0.42748 0.96132 0.02300
S 	S 	0.12274 0.39845 0.00191 0.05100
C 	C 	0.17516 0.48204 0.98956 -0.06600
C 	C 	0.14564 0.49084 0.96707 -0.01300
S 	S 	0.90405 0.38819 0.94027 0.06100
C 	C 	0.84793 0.32953 0.96153 -0.07100
C 	C 	0.87969 0.29892 0.97635 -0.01100
H 	H 	0.97974 0.28749 0.00213 0.06200
H 	H 	0.04889 0.47816 0.93267 0.05800
H 	H 	0.16319 0.54422 0.95765 0.05300
H 	H 	0.85925 0.27003 0.99446 0.05400
C 	C 	0.46612 0.04155 0.07163 0.03000
C 	C 	0.52716 0.10689 0.06744 -0.05000
C 	C 	0.52618 0.16417 0.05304 0.02600
C 	C 	0.46601 0.15334 0.04190 0.00800
C 	C 	0.40771 0.08356 0.04260 -0.05600
C 	C 	0.40764 0.02820 0.05840 0.06500
S 	S 	0.45867 0.95960 0.07969 0.01100
C 	C 	0.38095 0.90588 0.06848 -0.05200
C 	C 	0.35966 0.95145 0.05640 -0.06200
S 	S 	0.48598 0.21390 0.01781 0.05600
C 	C 	0.56952 0.25843 0.02122 -0.06400
C 	C 	0.58440 0.22341 0.04148 -0.01400
H 	H 	0.57406 0.11153 0.07395 0.06800
H 	H 	0.36531 0.07164 0.03030 0.07200
H 	H 	0.31578 0.93019 0.04413 0.05800
H 	H 	0.63434 0.23151 0.04469 0.05800
C 	C 	0.63174 0.67917 0.97701 0.00100
C 	C 	0.61599 0.72459 0.99209 -0.04900
C 	C 	0.56512 0.73866 0.98361 0.02000
C 	C 	0.53200 0.70872 0.96002 0.00100
C 	C 	0.54445 0.65881 0.94596 -0.05000
C 	C 	0.59426 0.64355 0.95480 0.02400
S 	S 	0.66003 0.62539 0.98935 0.04800
C 	C 	0.62739 0.55709 0.96760 -0.06700
C 	C 	0.59358 0.57594 0.94914 -0.01600
S 	S 	0.45617 0.70012 0.96231 0.04300
C 	C 	0.46188 0.73406 0.99202 -0.07500
C 	C 	0.52621 0.75436 0.00123 -0.01500
H 	H 	0.63712 0.74134 0.01127 0.05500
H 	H 	0.51113 0.62634 0.93044 0.05600
H 	H 	0.56739 0.54098 0.93278 0.05100
H 	H 	0.53945 0.76608 0.02147 0.05500
C 	C 	0.90195 0.18976 0.84524 -0.03500
C 	C 	0.87905 0.23234 0.83164 0.02500
C 	C 	0.89409 0.24782 0.80516 -0.03500
C 	C 	0.92980 0.21846 0.79211 0.03000
C 	C 	0.94564 0.16885 0.80501 -0.07400
C 	C 	0.93532 0.15795 0.83187 0.02900
C 	C 	0.83928 0.26113 0.84526 0.02500
C 	C 	0.87222 0.29337 0.79135 0.10900
C 	C 	0.96070 0.11590 0.84580 0.10200
C 	C 	0.87166 0.33352 0.85571 -0.03700
C 	C 	0.83450 0.35891 0.86996 0.02600
C 	C 	0.76635 0.30989 0.87550 -0.07700
C 	C 	0.73274 0.24013 0.86318 0.02900
C 	C 	0.76922 0.21577 0.84795 -0.03600
C 	C 	0.94341 0.38102 0.85230 0.10300
C 	C 	0.66077 0.19354 0.86629 0.09300
C 	C 	0.86581 0.43587 0.87821 0.08800
C 	C 	0.73512 0.14372 0.83540 0.11000
C 	C 	0.89101 0.17879 0.87290 0.10700
C 	C 	0.95368 0.24266 0.76598 0.09200
N 	N 	0.89135 0.49752 0.88461 -0.09800
N 	N 	0.00066 0.41885 0.84958 -0.10600
N 	N 	0.60334 0.15645 0.86877 -0.09300
N 	N 	0.70800 0.08623 0.82537 -0.09400
N 	N 	0.85475 0.32972 0.78036 -0.09900
N 	N 	0.97286 0.26251 0.74517 -0.09800
N 	N 	0.98119 0.08258 0.85693 -0.08800
N 	N 	0.88225 0.17017 0.89498 -0.10300
C 	C 	0.37954 0.19260 0.88975 -0.03300
C 	C 	0.38708 0.22066 0.86431 0.02200
C 	C 	0.45174 0.26514 0.85392 -0.03500
C 	C 	0.50856 0.27898 0.86843 0.02500
C 	C 	0.50149 0.25640 0.89457 -0.06500
C 	C 	0.43683 0.21123 0.90499 0.02100
C 	C 	0.32747 0.19582 0.84724 0.02600
C 	C 	0.45962 0.29645 0.82817 0.10500
C 	C 	0.42930 0.18452 0.93140 0.09100
C 	C 	0.29201 0.23574 0.84658 -0.03600
C 	C 	0.24057 0.21721 0.82821 0.02800
C 	C 	0.22616 0.16042 0.81001 -0.07300
C 	C 	0.26491 0.12416 0.80973 0.03200
C 	C 	0.31212 0.13836 0.82933 -0.03400
C 	C 	0.30842 0.29559 0.86479 0.10500
C 	C 	0.25708 0.07307 0.78907 0.08900
C 	C 	0.20169 0.25545 0.82835 0.09500
C 	C 	0.34545 0.09412 0.83104 0.11300
C 	C 	0.31299 0.14474 0.90016 0.10700
C 	C 	0.57414 0.31495 0.85623 0.09500
N 	N 	0.17059 0.28588 0.82844 -0.09700
N 	N 	0.32157 0.34336 0.87935 -0.10700
N 	N 	0.25149 0.03204 0.77277 -0.09600
N 	N 	0.37209 0.05890 0.83243 -0.09400
N 	N 	0.46581 0.32135 0.80763 -0.10100
N 	N 	0.62601 0.34355 0.84612 -0.09200
N 	N 	0.42331 0.16320 0.95247 -0.10000
N 	N 	0.25984 0.10654 0.90843 -0.09600
C 	C 	0.01027 0.84816 0.86989 -0.03700
C 	C 	0.94874 0.82386 0.88274 0.02300
C 	C 	0.90780 0.85412 0.87557 -0.03800
C 	C 	0.91758 0.88992 0.85142 0.02300
C 	C 	0.97474 0.90499 0.83625 -0.07200
C 	C 	0.02450 0.89115 0.84714 0.02400
C 	C 	0.91809 0.75211 0.89727 0.02500
C 	C 	0.85234 0.84278 0.89210 0.10000
C 	C 	0.09046 0.92226 0.83545 0.08600
C 	C 	0.93337 0.74948 0.92358 -0.03900
C 	C 	0.90256 0.68066 0.93701 0.02700
C 	C 	0.85090 0.61639 0.92496 -0.08000
C 	C 	0.83171 0.62212 0.89929 0.03400
C 	C 	0.87067 0.68678 0.88484 -0.03900
C 	C 	0.98041 0.81716 0.93677 0.10300
C 	C 	0.76912 0.56470 0.88845 0.05800
C 	C 	0.92514 0.67586 0.96275 0.09100
C 	C 	0.86155 0.68640 0.85705 0.10800
C 	C 	0.05724 0.82559 0.87931 0.10300
C 	C 	0.86729 0.90726 0.84182 0.09000
N 	N 	0.94323 0.67207 0.98330 -0.10000
N 	N 	0.01799 0.87124 0.94728 -0.11000
N 	N 	0.71932 0.51951 0.87950 -0.14100
N 	N 	0.85438 0.68621 0.83490 -0.10200
N 	N 	0.80806 0.83363 0.90531 -0.11000
N 	N 	0.82706 0.92104 0.83424 -0.11000
N 	N 	0.14325 0.94664 0.82626 -0.11900
N 	N 	0.09469 0.80753 0.88684 -0.10800
