data_crystal

_cell_length_a 38.84657
_cell_length_b 35.76973
_cell_length_c 41.07905
_cell_angle_alpha 104.40943
_cell_angle_beta  116.12736
_cell_angle_gamma 110.60538

_symmetry_space_group_name_	'P 1'
_symmetry_space_group_name_H-M	'P 1'

loop_
_symmetry_equiv_pos_as_xyz
  x,y,z

loop_
_atom_site_label
_atom_site_type_symbol
_atom_site_fract_x
_atom_site_fract_y
_atom_site_fract_z
_atom_site_charge
Zn	Zn	0.06422 0.48590 0.41651 1.18500
Zn	Zn	0.06422 0.98590 0.41651 1.18100
O 	O 	0.06816 0.56989 0.39583 -0.44300
Zn	Zn	0.07102 0.53183 0.49518 1.21500
C 	C 	0.07723 0.52226 0.62135 0.33200
O 	O 	0.07026 0.48718 0.59307 -0.43600
C 	C 	0.06718 0.53709 0.37134 0.32100
C 	C 	0.03734 0.50705 0.69700 0.00700
C 	C 	0.99827 0.45312 0.71679 -0.11100
C 	C 	0.00677 0.49948 0.74259 0.05200
C 	C 	0.98965 0.49491 0.76794 0.00900
C 	C 	0.01632 0.45760 0.69007 -0.04900
C 	C 	0.97606 0.49007 0.78881 -0.11500
C 	C 	0.02932 0.51523 0.25451 0.02000
C 	C 	0.00389 0.49806 0.17862 0.04700
C 	C 	0.04337 0.52459 0.29680 0.02700
C 	C 	0.05446 0.53119 0.33108 -0.12400
O 	O 	0.06816 0.06989 0.39583 -0.44100
Zn	Zn	0.07102 0.03183 0.49518 1.21700
C 	C 	0.07723 0.02226 0.62135 0.34400
O 	O 	0.07026 0.98718 0.59307 -0.44400
C 	C 	0.06718 0.03709 0.37134 0.32100
C 	C 	0.03734 0.00705 0.69700 0.01800
C 	C 	0.99827 0.95312 0.71679 -0.10200
C 	C 	0.00677 0.99948 0.74259 0.03100
C 	C 	0.98965 0.99491 0.76794 0.01200
C 	C 	0.01632 0.95760 0.69007 -0.06100
C 	C 	0.97606 0.99007 0.78881 -0.11700
C 	C 	0.02932 0.01523 0.25451 0.03300
C 	C 	0.00389 0.99806 0.17862 0.02600
C 	C 	0.04337 0.02459 0.29680 0.02600
C 	C 	0.05446 0.03119 0.33108 -0.11900
C 	C 	0.06573 0.51581 0.64906 -0.11800
C 	C 	0.06573 0.01581 0.64906 -0.11700
C 	C 	0.05388 0.51146 0.67120 0.03600
C 	C 	0.98955 0.48902 0.13632 0.01000
H 	H 	0.00111 0.55885 0.25145 0.04600
C 	C 	0.97754 0.48346 0.10208 -0.11400
C 	C 	0.05388 0.01146 0.67120 0.03800
C 	C 	0.98955 0.98902 0.13632 0.01200
H 	H 	0.00111 0.05885 0.25145 0.04800
C 	C 	0.97754 0.98347 0.10208 -0.11600
Zn	Zn	0.97326 0.53356 0.89152 1.19200
H 	H 	0.01533 0.44116 0.73769 0.05200
Zn	Zn	0.97326 0.03356 0.89152 1.19300
H 	H 	0.01533 0.94116 0.73769 0.04800
H 	H 	0.01816 0.44360 0.17655 0.05000
H 	H 	0.01816 0.94360 0.17655 0.04600
H 	H 	0.04022 0.45844 0.24244 0.03300
H 	H 	0.04022 0.95844 0.24244 0.03300
Zn	Zn	0.06342 0.56219 0.56865 1.20100
Zn	Zn	0.06342 0.06219 0.56865 1.20200
C 	C 	0.01272 0.46507 0.22803 -0.05200
C 	C 	0.01272 0.96507 0.22803 -0.06500
O 	O 	0.05244 0.52649 0.44157 -0.87700
O 	O 	0.05244 0.02649 0.44157 -0.87400
H 	H 	0.98156 0.33003 0.90786 0.01200
H 	H 	0.98156 0.83003 0.90786 0.01200
Zn	Zn	0.05097 0.47323 0.53331 1.18800
Zn	Zn	0.05097 0.97323 0.53331 1.18600
O 	O 	0.98744 0.54127 0.94804 -0.78100
O 	O 	0.98744 0.04128 0.94804 -0.77600
C 	C 	0.99132 0.42036 0.91803 0.29800
C 	C 	0.99132 0.92036 0.91803 0.29800
H 	H 	0.99392 0.49957 0.00417 0.14200
H 	H 	0.99392 0.99957 0.00417 0.14000
H 	H 	0.04210 0.44795 0.69829 0.03600
H 	H 	0.04210 0.94795 0.69829 0.03600
O 	O 	0.08002 0.51104 0.38403 -0.47900
O 	O 	0.08002 0.01105 0.38403 -0.47500
O 	O 	0.08908 0.45530 0.44121 -0.50000
O 	O 	0.08908 0.95530 0.44121 -0.50000
O 	O 	0.00022 0.45977 0.94171 -0.44300
O 	O 	0.00022 0.95977 0.94171 -0.44700
O 	O 	0.08834 0.53639 0.54845 -0.89300
O 	O 	0.08834 0.03639 0.54845 -0.89000
O 	O 	0.08811 0.56109 0.62067 -0.47900
O 	O 	0.08811 0.06109 0.62067 -0.48000
O 	O 	0.03948 0.59623 0.55120 -0.49900
O 	O 	0.03948 0.09623 0.55120 -0.49700
O 	O 	0.96244 0.51418 0.05635 -0.48500
O 	O 	0.96244 0.01418 0.05635 -0.47400
O 	O 	0.96129 0.48622 0.98344 -0.88100
O 	O 	0.96129 0.98622 0.98344 -0.88500
O 	O 	0.95821 0.44826 0.82145 -0.48000
O 	O 	0.95821 0.94826 0.82145 -0.48000
C 	C 	0.96301 0.47974 0.06209 0.32700
C 	C 	0.96301 0.97974 0.06209 0.31700
O 	O 	0.95589 0.39610 0.87942 -0.50000
O 	O 	0.95589 0.89610 0.87942 -0.50100
C 	C 	0.96113 0.48271 0.81420 0.32900
C 	C 	0.96113 0.98271 0.81420 0.31800
O 	O 	0.95384 0.51207 0.83209 -0.45400
O 	O 	0.95384 0.01207 0.83209 -0.44400
H 	H 	0.97898 0.54395 0.18563 0.03800
H 	H 	0.97898 0.04395 0.18563 0.03500
O 	O 	0.94975 0.44177 0.03178 -0.44800
O 	O 	0.94975 0.94177 0.03178 -0.44700
Zn	Zn	0.94474 0.47997 0.93007 1.21500
Zn	Zn	0.94474 0.97997 0.93007 1.21300
Zn	Zn	0.09526 0.58832 0.45686 1.19500
Zn	Zn	0.09526 0.08832 0.45686 1.19500
O 	O 	0.11182 0.59418 0.51359 -0.78100
O 	O 	0.11182 0.09418 0.51359 -0.78100
H 	H 	0.11116 0.38716 0.47021 0.01900
H 	H 	0.11116 0.88715 0.47021 0.01900
C 	C 	0.12222 0.47772 0.48067 0.31500
H 	H 	0.12108 0.54975 0.56872 0.15800
C 	C 	0.12222 0.97772 0.48067 0.30300
H 	H 	0.12108 0.04975 0.56872 0.15900
C 	C 	0.05843 0.53508 0.77039 -0.08600
C 	C 	0.05843 0.03508 0.77039 -0.07300
O 	O 	0.12827 0.51455 0.50552 -0.45900
C 	C 	0.07637 0.53964 0.74358 -0.06800
O 	O 	0.12827 0.01455 0.50552 -0.45000
C 	C 	0.07637 0.03964 0.74358 -0.07300
C 	C 	0.05444 0.53685 0.21066 -0.08300
C 	C 	0.06938 0.54695 0.25526 -0.07200
C 	C 	0.05444 0.03685 0.21066 -0.06900
C 	C 	0.06938 0.04695 0.25526 -0.07900
C 	C 	0.97521 0.51294 0.18873 -0.08600
C 	C 	0.97521 0.01294 0.18873 -0.06000
H 	H 	0.06569 0.56881 0.78929 0.04400
H 	H 	0.06569 0.06881 0.78929 0.04200
H 	H 	0.09200 0.57552 0.74953 0.03900
H 	H 	0.09200 0.07552 0.74953 0.04000
C 	C 	0.99015 0.52304 0.23329 -0.08600
C 	C 	0.99015 0.02304 0.23329 -0.09500
Zn	Zn	0.93551 0.42740 0.85221 1.18500
Zn	Zn	0.93551 0.92740 0.85221 1.18400
H 	H 	0.09804 0.54200 0.27025 0.03900
H 	H 	0.09804 0.04200 0.27025 0.04200
C 	C 	0.20450 0.09174 0.89414 0.02300
C 	C 	0.21826 0.13297 0.89288 -0.06900
C 	C 	0.25484 0.15168 0.89041 0.02000
C 	C 	0.27766 0.12904 0.88932 -0.06900
C 	C 	0.26488 0.08853 0.89170 0.02200
C 	C 	0.22784 0.06963 0.89344 -0.07000
H 	H 	0.20202 0.15147 0.89590 0.04400
H 	H 	0.30749 0.14478 0.88982 0.04300
H 	H 	0.21933 0.03957 0.89734 0.04600
C 	C 	0.33232 0.14405 0.46171 0.02000
C 	C 	0.34584 0.18460 0.45931 -0.06800
C 	C 	0.38220 0.20248 0.45643 0.01900
C 	C 	0.40497 0.17966 0.45599 -0.06800
C 	C 	0.39252 0.13996 0.45966 0.01800
C 	C 	0.35591 0.12202 0.46211 -0.06800
H 	H 	0.32948 0.20318 0.46162 0.04300
H 	H 	0.43453 0.19475 0.45599 0.04200
H 	H 	0.34772 0.09265 0.46704 0.04400
C 	C 	0.18395 0.36970 0.96616 0.02300
C 	C 	0.15775 0.38927 0.96320 -0.06800
C 	C 	0.11864 0.36776 0.96160 0.01900
C 	C 	0.10532 0.32621 0.96213 -0.06800
C 	C 	0.13065 0.30596 0.96414 0.02300
C 	C 	0.16983 0.32760 0.96590 -0.06900
H 	H 	0.16680 0.42011 0.96056 0.04400
H 	H 	0.07401 0.30850 0.95897 0.04500
H 	H 	0.18851 0.31119 0.96578 0.04600
C 	C 	0.31365 0.42469 0.53415 0.01800
C 	C 	0.28805 0.44499 0.53099 -0.06800
C 	C 	0.24859 0.42419 0.52902 0.01800
C 	C 	0.23448 0.38273 0.52968 -0.06800
C 	C 	0.25908 0.36161 0.53173 0.01900
C 	C 	0.29871 0.38262 0.53397 -0.06800
H 	H 	0.29766 0.47572 0.52820 0.04300
H 	H 	0.20294 0.36559 0.52630 0.04300
H 	H 	0.31697 0.36567 0.53408 0.04300
Zn	Zn	0.04803 0.56433 0.97739 1.18600
C 	C 	0.08106 0.53501 0.93439 0.29800
O 	O 	0.92762 0.47304 0.87606 -0.87300
C 	C 	0.05406 0.62994 0.94664 0.31000
O 	O 	0.09367 0.55874 0.97183 -0.46100
O 	O 	0.03795 0.50573 0.90484 -0.36900
O 	O 	0.02316 0.59459 0.90906 -0.45300
O 	O 	0.06636 0.62484 0.97983 -0.46000
Zn	Zn	0.84642 0.40589 0.89572 1.17300
Zn	Zn	0.92348 0.42438 0.97015 1.18800
C 	C 	0.84018 0.33177 0.91878 0.31200
C 	C 	0.82692 0.43916 0.95034 0.31100
O 	O 	0.88989 0.50312 0.91918 -0.46700
Zn	Zn	0.93547 0.51155 0.00261 1.19100
O 	O 	0.88233 0.36008 0.95206 -0.45600
O 	O 	0.81907 0.34500 0.89348 -0.46900
O 	O 	0.81529 0.42866 0.91265 -0.48500
O 	O 	0.86733 0.44930 0.97889 -0.46500
O 	O 	0.90258 0.41863 0.91262 -0.80500
C 	C 	0.88872 0.53281 0.94462 0.31300
O 	O 	0.91111 0.54478 0.98400 -0.49300
H 	H 	0.89633 0.46586 0.85844 0.14300
Zn	Zn	0.17234 0.61815 0.54182 1.18300
C 	C 	0.20474 0.59054 0.49766 0.30600
C 	C 	0.17689 0.68483 0.51165 0.31000
O 	O 	0.21745 0.61254 0.53547 -0.46900
O 	O 	0.16151 0.56537 0.46730 -0.38600
O 	O 	0.14282 0.65066 0.47400 -0.45200
O 	O 	0.18999 0.67881 0.54441 -0.46800
Zn	Zn	0.97343 0.45577 0.45973 1.17200
C 	C 	0.96817 0.38085 0.48165 0.30500
C 	C 	0.95422 0.48951 0.51457 0.31000
O 	O 	0.01486 0.55232 0.48571 -0.46900
O 	O 	0.01135 0.40801 0.51304 -0.45400
O 	O 	0.94651 0.39482 0.45760 -0.46900
O 	O 	0.94169 0.47779 0.47651 -0.48100
O 	O 	0.99455 0.49914 0.54263 -0.47300
O 	O 	0.03002 0.46962 0.47661 -0.79900
C 	C 	0.01578 0.58360 0.51173 0.32500
H 	H 	0.02049 0.51752 0.42397 0.14700
H 	H 	0.10338 0.53166 0.75280 0.04000
H 	H 	0.96141 0.42683 0.69630 0.04500
H 	H 	0.07675 0.52471 0.79226 0.04500
C 	C 	0.98259 0.51492 0.71243 -0.10100
H 	H 	0.98841 0.54833 0.73008 0.04300
H 	H 	0.94540 0.48995 0.69200 0.04500
C 	C 	0.00039 0.51917 0.68553 -0.05100
H 	H 	0.97169 0.49604 0.65229 0.03200
H 	H 	0.01438 0.55454 0.69007 0.03700
H 	H 	0.98809 0.43340 0.65684 0.03000
C 	C 	0.99776 0.45498 0.18342 -0.10800
H 	H 	0.98379 0.44139 0.22678 0.02300
H 	H 	0.05989 0.56836 0.20801 0.04000
H 	H 	0.07597 0.52708 0.20436 0.03900
H 	H 	0.96171 0.42655 0.16089 0.04300
H 	H 	0.93869 0.48567 0.16635 0.03900
H 	H 	0.96079 0.50057 0.23218 0.03500
H 	H 	0.08192 0.58324 0.27386 0.04000
C 	C 	0.26212 0.28615 0.53248 -0.05300
H 	H 	0.29672 0.29676 0.54107 0.03400
C 	C 	0.21772 0.24403 0.49202 0.00800
H 	H 	0.21548 0.21977 0.46713 0.02700
C 	C 	0.24440 0.27296 0.55763 0.00700
H 	H 	0.26425 0.27270 0.58687 0.02100
C 	C 	0.20031 0.23157 0.51725 -0.08400
C 	C 	0.23997 0.31448 0.52708 0.01200
C 	C 	0.22255 0.30177 0.55229 -0.05300
H 	H 	0.22473 0.32584 0.57726 0.03200
C 	C 	0.17831 0.25988 0.51189 0.00500
H 	H 	0.14364 0.24878 0.50336 0.01900
C 	C 	0.19591 0.27292 0.48672 -0.04900
H 	H 	0.17607 0.27322 0.45749 0.03700
C 	C 	0.39536 0.44185 0.55214 -0.04900
H 	H 	0.40345 0.42747 0.57355 0.03500
C 	C 	0.42457 0.49179 0.56311 0.00700
H 	H 	0.45709 0.51874 0.59334 0.02400
C 	C 	0.38955 0.42477 0.51048 0.00600
H 	H 	0.39319 0.39644 0.49739 0.02700
C 	C 	0.41820 0.47444 0.52147 -0.08500
C 	C 	0.35259 0.44402 0.53097 0.01200
C 	C 	0.34653 0.42684 0.48944 -0.05000
H 	H 	0.31413 0.39991 0.45910 0.03500
C 	C 	0.37560 0.47671 0.50040 0.00700
H 	H 	0.36772 0.49118 0.47905 0.02400
C 	C 	0.38141 0.49384 0.54209 -0.05300
H 	H 	0.37827 0.52253 0.55533 0.03400
C 	C 	0.19665 0.48535 0.54075 0.00800
H 	H 	0.20404 0.51142 0.56829 0.01000
C 	C 	0.22898 0.49034 0.52740 -0.05300
H 	H 	0.26345 0.52051 0.54420 0.03400
C 	C 	0.18531 0.43636 0.53213 -0.05700
H 	H 	0.18386 0.42209 0.55292 0.03100
C 	C 	0.21714 0.44144 0.51853 0.01300
C 	C 	0.15738 0.46591 0.49569 -0.09600
C 	C 	0.14570 0.41720 0.48694 0.00800
C 	C 	0.17782 0.42227 0.47354 -0.05100
H 	H 	0.17031 0.39620 0.44590 0.03600
C 	C 	0.18922 0.47121 0.48218 0.01000
H 	H 	0.19057 0.48580 0.46154 0.02400
C 	C 	0.07030 0.21644 0.91967 -0.04800
H 	H 	0.05051 0.21572 0.88985 0.03700
C 	C 	0.05192 0.20271 0.94414 0.00200
H 	H 	0.01665 0.18997 0.93444 0.02100
C 	C 	0.09424 0.18963 0.92702 0.00900
H 	H 	0.09382 0.16603 0.90323 0.02800
C 	C 	0.07604 0.17650 0.95154 -0.08700
C 	C 	0.11292 0.25911 0.96015 0.00900
C 	C 	0.13719 0.23289 0.96760 -0.05500
H 	H 	0.17243 0.24517 0.97740 0.03800
C 	C 	0.11870 0.21902 0.99204 0.02400
H 	H 	0.13850 0.21979 0.02188 0.00800
C 	C 	0.09473 0.24573 0.98466 -0.03600
H 	H 	0.09510 0.26911 0.00855 0.01700
C 	C 	0.29528 0.43913 0.99729 0.02400
H 	H 	0.32728 0.46600 0.02793 0.01000
C 	C 	0.26632 0.38879 0.98550 -0.03200
H 	H 	0.27411 0.37400 0.00660 0.01900
C 	C 	0.25180 0.44053 0.97564 -0.05500
H 	H 	0.24785 0.46861 0.98867 0.03700
C 	C 	0.22325 0.39034 0.96372 0.00900
C 	C 	0.29017 0.42289 0.95620 -0.08700
C 	C 	0.24727 0.42456 0.93449 0.00700
H 	H 	0.23971 0.43945 0.91344 0.02400
C 	C 	0.21840 0.37428 0.92272 -0.04800
H 	H 	0.18649 0.34740 0.89201 0.03600
C 	C 	0.26173 0.37284 0.94439 0.00200
H 	H 	0.26610 0.34506 0.93147 0.03000
C 	C 	0.04598 0.36476 0.90786 -0.05400
H 	H 	0.03737 0.33833 0.87975 0.03800
C 	C 	0.05659 0.41344 0.91615 0.01100
H 	H 	0.05618 0.42737 0.89474 0.02800
C 	C 	0.01568 0.36011 0.92333 0.01800
C 	C 	0.02659 0.40855 0.93172 -0.09200
C 	C 	0.08694 0.38472 0.95227 0.01700
C 	C 	0.05695 0.38005 0.96792 -0.06300
H 	H 	0.05729 0.36637 0.98946 0.03900
C 	C 	0.06749 0.42878 0.97620 0.02900
H 	H 	0.07597 0.45522 0.00421 -0.00600
C 	C 	0.09799 0.43336 0.96077 -0.05700
H 	H 	0.13201 0.46362 0.97630 0.03800
C 	C 	0.44512 0.07896 0.44998 0.01000
H 	H 	0.43870 0.05317 0.42292 0.01000
C 	C 	0.45785 0.12844 0.45923 -0.05700
H 	H 	0.46140 0.14339 0.43940 0.03100
C 	C 	0.41106 0.07394 0.46117 -0.05300
H 	H 	0.37607 0.04411 0.44298 0.03600
C 	C 	0.42425 0.12323 0.47067 0.01400
C 	C 	0.48240 0.09720 0.49550 -0.09500
C 	C 	0.44877 0.09190 0.50681 0.01400
H 	H 	0.44538 0.07683 0.52662 0.02700
C 	C 	0.46161 0.14124 0.51611 -0.05100
H 	H 	0.46812 0.16700 0.54327 0.03700
C 	C 	0.49556 0.14635 0.50492 0.00700
H 	H 	0.53064 0.17603 0.52308 0.01600
C 	C 	0.42435 0.31971 0.49752 0.00900
H 	H 	0.42602 0.34339 0.52232 0.02400
C 	C 	0.44570 0.29043 0.50261 -0.04900
H 	H 	0.46452 0.28915 0.53152 0.03700
C 	C 	0.38039 0.27834 0.45622 -0.05200
H 	H 	0.34548 0.26756 0.44679 0.03400
C 	C 	0.40210 0.24962 0.46146 0.01200
C 	C 	0.44324 0.33331 0.47360 -0.08700
C 	C 	0.39963 0.29271 0.43239 0.00700
H 	H 	0.38089 0.29407 0.40351 0.01900
C 	C 	0.42097 0.26340 0.43751 -0.05500
H 	H 	0.41939 0.23991 0.41267 0.03200
C 	C 	0.46478 0.30456 0.47876 0.00800
H 	H 	0.49971 0.31563 0.48808 0.02300
C 	C 	0.25467 0.13054 0.45144 -0.04900
H 	H 	0.24384 0.14260 0.42849 0.03700
C 	C 	0.26537 0.15168 0.49497 0.00600
H 	H 	0.26295 0.18100 0.50814 0.02600
C 	C 	0.22724 0.08222 0.44452 0.00800
H 	H 	0.19342 0.05427 0.41607 0.03500
C 	C 	0.23843 0.10355 0.48798 -0.08300
C 	C 	0.29757 0.12837 0.47036 0.01200
C 	C 	0.27044 0.08011 0.46330 -0.05100
H 	H 	0.27213 0.05028 0.44997 0.03600
C 	C 	0.28114 0.10127 0.50689 0.00700
H 	H 	0.29169 0.08909 0.52978 0.02400
C 	C 	0.30861 0.14962 0.51379 -0.04900
H 	H 	0.34242 0.17758 0.54223 0.03600
C 	C 	0.32066 0.03973 0.93797 0.00900
H 	H 	0.31657 0.02385 0.95709 0.03100
C 	C 	0.28371 0.02250 0.89228 -0.03900
H 	H 	0.24874 0.99242 0.87341 0.02300
C 	C 	0.33342 0.08919 0.94806 -0.04700
H 	H 	0.33926 0.11422 0.97519 0.03900
C 	C 	0.29680 0.07194 0.90256 0.00900
C 	C 	0.35516 0.04611 0.92762 -0.09000
C 	C 	0.36822 0.09541 0.93782 0.00600
H 	H 	0.40329 0.12532 0.95671 0.02000
C 	C 	0.33126 0.07826 0.89206 -0.05400
H 	H 	0.33545 0.09408 0.87295 0.03100
C 	C 	0.31865 0.02862 0.88204 0.00400
H 	H 	0.31293 0.00354 0.85503 0.01200
C 	C 	0.29570 0.26876 0.93297 0.00900
H 	H 	0.29638 0.29152 0.95751 0.02700
C 	C 	0.31765 0.24000 0.93820 -0.04800
H 	H 	0.33603 0.23828 0.96695 0.04000
C 	C 	0.25249 0.22752 0.89107 -0.05200
H 	H 	0.21722 0.21595 0.88087 0.03500
C 	C 	0.27480 0.19934 0.89645 0.01200
C 	C 	0.31558 0.28384 0.91016 -0.08500
C 	C 	0.27271 0.24336 0.86835 0.00700
H 	H 	0.25439 0.24512 0.83961 0.01900
C 	C 	0.29467 0.21460 0.87360 -0.05500
H 	H 	0.29406 0.19204 0.84901 0.03200
C 	C 	0.33774 0.25564 0.91545 0.00700
H 	H 	0.37302 0.26749 0.92554 0.02400
C 	C 	0.18371 0.09344 0.94809 -0.04500
H 	H 	0.21841 0.11920 0.97648 0.03800
C 	C 	0.15446 0.04393 0.93792 0.00200
H 	H 	0.16446 0.02855 0.95807 0.02800
C 	C 	0.14226 0.09854 0.93366 0.00300
H 	H 	0.14224 0.12817 0.95038 0.03000
C 	C 	0.11352 0.04924 0.92341 -0.07600
C 	C 	0.17054 0.07570 0.90366 0.00600
C 	C 	0.12942 0.08094 0.88911 -0.04600
H 	H 	0.11913 0.09623 0.86896 0.03600
C 	C 	0.10019 0.03145 0.87894 0.00000
H 	H 	0.06559 0.00558 0.85049 0.04100
C 	C 	0.14158 0.02630 0.89333 -0.03600
H 	H 	0.14094 0.99628 0.87638 0.02400
C 	C 	0.20450 0.59174 0.89414 0.01900
C 	C 	0.21826 0.63297 0.89288 -0.06800
C 	C 	0.25484 0.65168 0.89041 0.01900
C 	C 	0.27767 0.62904 0.88932 -0.06800
C 	C 	0.26488 0.58853 0.89170 0.01800
C 	C 	0.22784 0.56963 0.89344 -0.06800
H 	H 	0.20202 0.65147 0.89590 0.04300
H 	H 	0.30749 0.64478 0.88982 0.04300
H 	H 	0.21933 0.53957 0.89734 0.04300
C 	C 	0.33232 0.64405 0.46171 0.01900
C 	C 	0.34584 0.68460 0.45931 -0.06800
C 	C 	0.38220 0.70248 0.45643 0.01800
C 	C 	0.40497 0.67966 0.45599 -0.06800
C 	C 	0.39252 0.63996 0.45966 0.01800
C 	C 	0.35591 0.62202 0.46211 -0.06800
H 	H 	0.32948 0.70318 0.46162 0.04300
H 	H 	0.43453 0.69475 0.45599 0.04200
H 	H 	0.34772 0.59265 0.46704 0.04300
C 	C 	0.18395 0.86970 0.96616 0.02200
C 	C 	0.15775 0.88927 0.96320 -0.06800
C 	C 	0.11864 0.86776 0.96160 0.01900
C 	C 	0.10532 0.82621 0.96213 -0.06800
C 	C 	0.13065 0.80596 0.96414 0.02200
C 	C 	0.16983 0.82760 0.96590 -0.06900
H 	H 	0.16680 0.92011 0.96056 0.04300
H 	H 	0.07401 0.80850 0.95897 0.04500
H 	H 	0.18851 0.81119 0.96578 0.04500
C 	C 	0.31365 0.92469 0.53415 0.01600
C 	C 	0.28805 0.94499 0.53099 -0.06700
C 	C 	0.24859 0.92419 0.52902 0.01600
C 	C 	0.23448 0.88273 0.52968 -0.06800
C 	C 	0.25908 0.86161 0.53173 0.01800
C 	C 	0.29871 0.88262 0.53397 -0.06700
H 	H 	0.29766 0.97572 0.52820 0.04000
H 	H 	0.20294 0.86559 0.52630 0.04200
H 	H 	0.31697 0.86567 0.53408 0.04200
Zn	Zn	0.04803 0.06433 0.97739 1.18700
C 	C 	0.08106 0.03501 0.93439 0.29800
O 	O 	0.92762 0.97304 0.87606 -0.87800
C 	C 	0.05406 0.12994 0.94664 0.31000
O 	O 	0.09367 0.05874 0.97183 -0.45900
O 	O 	0.03795 0.00573 0.90484 -0.36500
O 	O 	0.02316 0.09459 0.90906 -0.45200
O 	O 	0.06636 0.12484 0.97983 -0.46000
Zn	Zn	0.84642 0.90589 0.89572 1.17200
Zn	Zn	0.92348 0.92438 0.97015 1.18800
C 	C 	0.84018 0.83177 0.91878 0.31200
C 	C 	0.82692 0.93916 0.95034 0.31000
O 	O 	0.88989 0.00312 0.91918 -0.46100
Zn	Zn	0.93547 0.01155 0.00261 1.19400
O 	O 	0.88233 0.86008 0.95206 -0.45600
O 	O 	0.81906 0.84500 0.89348 -0.46900
O 	O 	0.81529 0.92866 0.91265 -0.48700
O 	O 	0.86733 0.94930 0.97889 -0.46800
O 	O 	0.90257 0.91863 0.91262 -0.80600
C 	C 	0.88872 0.03281 0.94462 0.31200
O 	O 	0.91111 0.04478 0.98400 -0.49000
H 	H 	0.89633 0.96586 0.85844 0.14000
Zn	Zn	0.17234 0.11815 0.54182 1.18300
C 	C 	0.20474 0.09054 0.49766 0.30600
C 	C 	0.17689 0.18483 0.51165 0.31000
O 	O 	0.21745 0.11254 0.53547 -0.46800
O 	O 	0.16151 0.06537 0.46730 -0.38500
O 	O 	0.14282 0.15066 0.47400 -0.45200
O 	O 	0.18999 0.17881 0.54441 -0.46700
Zn	Zn	0.97343 0.95577 0.45973 1.17100
C 	C 	0.96817 0.88085 0.48165 0.30500
C 	C 	0.95422 0.98951 0.51457 0.30900
O 	O 	0.01486 0.05232 0.48571 -0.46600
O 	O 	0.01135 0.90801 0.51304 -0.45500
O 	O 	0.94651 0.89482 0.45760 -0.47000
O 	O 	0.94169 0.97779 0.47651 -0.48400
O 	O 	0.99455 0.99914 0.54263 -0.47700
O 	O 	0.03002 0.96962 0.47661 -0.80400
C 	C 	0.01578 0.08360 0.51173 0.32500
H 	H 	0.02049 0.01752 0.42397 0.14800
H 	H 	0.10338 0.03166 0.75280 0.04300
H 	H 	0.96141 0.92683 0.69630 0.04200
H 	H 	0.07675 0.02471 0.79226 0.04500
C 	C 	0.98259 0.01492 0.71243 -0.07800
H 	H 	0.98841 0.04833 0.73008 0.04000
H 	H 	0.94540 0.98995 0.69200 0.03500
C 	C 	0.00039 0.01917 0.68553 -0.04900
H 	H 	0.97169 0.99604 0.65229 0.02500
H 	H 	0.01438 0.05454 0.69007 0.03700
H 	H 	0.98809 0.93340 0.65684 0.03200
C 	C 	0.99776 0.95498 0.18342 -0.10000
H 	H 	0.98379 0.94139 0.22678 0.02300
H 	H 	0.05989 0.06836 0.20801 0.03900
H 	H 	0.07597 0.02708 0.20436 0.03900
H 	H 	0.96171 0.92655 0.16089 0.04100
H 	H 	0.93869 0.98567 0.16635 0.02800
H 	H 	0.96079 0.00057 0.23218 0.04000
H 	H 	0.08192 0.08324 0.27386 0.04200
C 	C 	0.26212 0.78615 0.53248 -0.05300
H 	H 	0.29672 0.79676 0.54107 0.03400
C 	C 	0.21772 0.74403 0.49202 0.00800
H 	H 	0.21548 0.71977 0.46713 0.02700
C 	C 	0.24440 0.77296 0.55763 0.00700
H 	H 	0.26425 0.77270 0.58687 0.02100
C 	C 	0.20031 0.73157 0.51725 -0.08500
C 	C 	0.23997 0.81448 0.52708 0.01200
C 	C 	0.22255 0.80177 0.55229 -0.05300
H 	H 	0.22473 0.82584 0.57726 0.03100
C 	C 	0.17831 0.75988 0.51189 0.00500
H 	H 	0.14364 0.74878 0.50336 0.01900
C 	C 	0.19590 0.77292 0.48672 -0.04900
H 	H 	0.17607 0.77322 0.45749 0.03700
C 	C 	0.39536 0.94185 0.55214 -0.04800
H 	H 	0.40345 0.92747 0.57355 0.03400
C 	C 	0.42457 0.99179 0.56311 -0.00200
H 	H 	0.45709 0.01874 0.59334 0.03300
C 	C 	0.38955 0.92477 0.51048 0.00600
H 	H 	0.39319 0.89644 0.49739 0.02700
C 	C 	0.41820 0.97444 0.52147 -0.08500
C 	C 	0.35259 0.94402 0.53097 0.01400
C 	C 	0.34652 0.92684 0.48944 -0.05100
H 	H 	0.31414 0.89991 0.45910 0.03500
C 	C 	0.37560 0.97671 0.50040 0.00800
H 	H 	0.36772 0.99118 0.47905 0.02000
C 	C 	0.38141 0.99384 0.54209 -0.06300
H 	H 	0.37827 0.02253 0.55533 0.04300
C 	C 	0.19665 0.98535 0.54075 -0.00300
H 	H 	0.20404 0.01142 0.56829 0.01800
C 	C 	0.22898 0.99034 0.52740 -0.06200
H 	H 	0.26345 0.02051 0.54420 0.04300
C 	C 	0.18531 0.93636 0.53213 -0.05500
H 	H 	0.18386 0.92209 0.55292 0.03000
C 	C 	0.21714 0.94144 0.51853 0.01500
C 	C 	0.15738 0.96591 0.49569 -0.09300
C 	C 	0.14570 0.91720 0.48694 0.00600
C 	C 	0.17783 0.92227 0.47354 -0.05100
H 	H 	0.17031 0.89620 0.44590 0.03500
C 	C 	0.18922 0.97121 0.48218 0.01000
H 	H 	0.19057 0.98580 0.46154 0.02100
C 	C 	0.07030 0.71644 0.91967 -0.04800
H 	H 	0.05051 0.71572 0.88985 0.03700
C 	C 	0.05192 0.70271 0.94414 0.00200
H 	H 	0.01665 0.68997 0.93444 0.02000
C 	C 	0.09424 0.68963 0.92702 0.00900
H 	H 	0.09382 0.66603 0.90323 0.02700
C 	C 	0.07604 0.67650 0.95154 -0.08700
C 	C 	0.11292 0.75911 0.96015 0.00900
C 	C 	0.13719 0.73289 0.96760 -0.05500
H 	H 	0.17243 0.74517 0.97740 0.03700
C 	C 	0.11870 0.71902 0.99204 0.02400
H 	H 	0.13850 0.71979 0.02188 0.00700
C 	C 	0.09473 0.74573 0.98466 -0.03700
H 	H 	0.09510 0.76911 0.00855 0.01700
C 	C 	0.29528 0.93913 0.99729 0.02300
H 	H 	0.32728 0.96600 0.02793 0.00800
C 	C 	0.26632 0.88879 0.98550 -0.03300
H 	H 	0.27411 0.87401 0.00660 0.01900
C 	C 	0.25180 0.94053 0.97564 -0.05600
H 	H 	0.24785 0.96861 0.98867 0.03500
C 	C 	0.22325 0.89034 0.96372 0.00900
C 	C 	0.29017 0.92289 0.95620 -0.08800
C 	C 	0.24727 0.92456 0.93449 0.00700
H 	H 	0.23971 0.93945 0.91344 0.02200
C 	C 	0.21841 0.87428 0.92272 -0.04900
H 	H 	0.18649 0.84740 0.89201 0.03500
C 	C 	0.26173 0.87284 0.94439 0.00300
H 	H 	0.26610 0.84506 0.93147 0.03000
C 	C 	0.04598 0.86476 0.90786 -0.05400
H 	H 	0.03737 0.83833 0.87975 0.03700
C 	C 	0.05659 0.91344 0.91615 0.01000
H 	H 	0.05618 0.92737 0.89474 0.02500
C 	C 	0.01568 0.86011 0.92333 0.01800
C 	C 	0.02659 0.90855 0.93172 -0.09300
C 	C 	0.08694 0.88472 0.95227 0.01700
C 	C 	0.05695 0.88006 0.96792 -0.06300
H 	H 	0.05729 0.86637 0.98946 0.03800
C 	C 	0.06749 0.92878 0.97620 0.02700
H 	H 	0.07597 0.95522 0.00421 -0.00700
C 	C 	0.09799 0.93336 0.96077 -0.05700
H 	H 	0.13201 0.96362 0.97630 0.03600
C 	C 	0.44513 0.57896 0.44998 0.00900
H 	H 	0.43870 0.55317 0.42292 0.00800
C 	C 	0.45785 0.62844 0.45923 -0.05800
H 	H 	0.46141 0.64339 0.43940 0.03100
C 	C 	0.41106 0.57394 0.46117 -0.05400
H 	H 	0.37607 0.54411 0.44298 0.03400
C 	C 	0.42425 0.62323 0.47067 0.01400
C 	C 	0.48240 0.59720 0.49550 -0.09600
C 	C 	0.44877 0.59190 0.50681 0.01300
H 	H 	0.44538 0.57683 0.52662 0.02400
C 	C 	0.46161 0.64124 0.51611 -0.05100
H 	H 	0.46812 0.66700 0.54327 0.03600
C 	C 	0.49556 0.64635 0.50492 0.00800
H 	H 	0.53064 0.67603 0.52308 0.01600
C 	C 	0.42435 0.81971 0.49752 0.00900
H 	H 	0.42602 0.84339 0.52232 0.02400
C 	C 	0.44570 0.79043 0.50261 -0.04900
H 	H 	0.46452 0.78915 0.53152 0.03700
C 	C 	0.38039 0.77834 0.45622 -0.05200
H 	H 	0.34548 0.76756 0.44679 0.03400
C 	C 	0.40210 0.74962 0.46146 0.01200
C 	C 	0.44324 0.83331 0.47360 -0.08700
C 	C 	0.39963 0.79271 0.43239 0.00700
H 	H 	0.38089 0.79407 0.40351 0.01900
C 	C 	0.42097 0.76340 0.43751 -0.05500
H 	H 	0.41939 0.73991 0.41267 0.03200
C 	C 	0.46478 0.80456 0.47876 0.00800
H 	H 	0.49971 0.81563 0.48808 0.02200
C 	C 	0.25467 0.63054 0.45144 -0.04900
H 	H 	0.24384 0.64260 0.42849 0.03700
C 	C 	0.26537 0.65168 0.49497 0.00600
H 	H 	0.26295 0.68100 0.50814 0.02600
C 	C 	0.22724 0.58222 0.44452 0.00700
H 	H 	0.19342 0.55427 0.41607 0.03300
C 	C 	0.23843 0.60355 0.48798 -0.08300
C 	C 	0.29757 0.62837 0.47036 0.01200
C 	C 	0.27044 0.58011 0.46330 -0.05200
H 	H 	0.27213 0.55028 0.44997 0.03400
C 	C 	0.28114 0.60127 0.50689 0.00600
H 	H 	0.29169 0.58909 0.52978 0.02200
C 	C 	0.30861 0.64962 0.51379 -0.04900
H 	H 	0.34242 0.67758 0.54223 0.03600
C 	C 	0.32066 0.53973 0.93797 0.01200
H 	H 	0.31657 0.52385 0.95709 0.02700
C 	C 	0.28371 0.52250 0.89228 -0.05400
H 	H 	0.24874 0.49242 0.87341 0.03400
C 	C 	0.33342 0.58919 0.94806 -0.05000
H 	H 	0.33926 0.61422 0.97519 0.03900
C 	C 	0.29680 0.57194 0.90256 0.01300
C 	C 	0.35516 0.54611 0.92762 -0.09300
C 	C 	0.36822 0.59541 0.93782 0.00800
H 	H 	0.40329 0.62532 0.95671 0.01900
C 	C 	0.33126 0.57826 0.89206 -0.05600
H 	H 	0.33545 0.59408 0.87295 0.03100
C 	C 	0.31865 0.52862 0.88204 0.00800
H 	H 	0.31293 0.50354 0.85503 0.00800
C 	C 	0.29570 0.76876 0.93297 0.00900
H 	H 	0.29638 0.79152 0.95751 0.02700
C 	C 	0.31765 0.74000 0.93820 -0.04800
H 	H 	0.33603 0.73828 0.96695 0.04000
C 	C 	0.25249 0.72752 0.89107 -0.05200
H 	H 	0.21722 0.71595 0.88087 0.03500
C 	C 	0.27480 0.69934 0.89645 0.01200
C 	C 	0.31558 0.78384 0.91016 -0.08500
C 	C 	0.27271 0.74336 0.86835 0.00700
H 	H 	0.25439 0.74512 0.83961 0.01900
C 	C 	0.29467 0.71461 0.87360 -0.05500
H 	H 	0.29406 0.69204 0.84901 0.03200
C 	C 	0.33774 0.75563 0.91545 0.00700
H 	H 	0.37302 0.76749 0.92554 0.02400
C 	C 	0.18371 0.59344 0.94809 -0.04800
H 	H 	0.21841 0.61920 0.97648 0.03800
C 	C 	0.15446 0.54393 0.93792 0.00500
H 	H 	0.16446 0.52855 0.95807 0.02400
C 	C 	0.14226 0.59854 0.93366 0.00500
H 	H 	0.14224 0.62817 0.95038 0.02900
C 	C 	0.11352 0.54924 0.92341 -0.07900
C 	C 	0.17054 0.57570 0.90366 0.01100
C 	C 	0.12942 0.58093 0.88911 -0.04900
H 	H 	0.11913 0.59623 0.86896 0.03600
C 	C 	0.10019 0.53144 0.87894 0.00400
H 	H 	0.06559 0.50558 0.85049 0.03700
C 	C 	0.14158 0.52631 0.89333 -0.05000
H 	H 	0.14094 0.49628 0.87638 0.03400
C 	C 	0.70450 0.09174 0.89414 0.02200
C 	C 	0.71826 0.13297 0.89288 -0.06900
C 	C 	0.75484 0.15168 0.89041 0.02000
C 	C 	0.77766 0.12904 0.88932 -0.06900
C 	C 	0.76488 0.08853 0.89170 0.02100
C 	C 	0.72784 0.06963 0.89344 -0.07000
H 	H 	0.70202 0.15147 0.89590 0.04400
H 	H 	0.80749 0.14478 0.88982 0.04300
H 	H 	0.71933 0.03957 0.89734 0.04600
C 	C 	0.83232 0.14405 0.46171 0.01900
C 	C 	0.84584 0.18460 0.45931 -0.06800
C 	C 	0.88220 0.20248 0.45643 0.01800
C 	C 	0.90497 0.17966 0.45599 -0.06800
C 	C 	0.89252 0.13996 0.45966 0.01800
C 	C 	0.85591 0.12202 0.46211 -0.06800
H 	H 	0.82948 0.20318 0.46162 0.04300
H 	H 	0.93453 0.19475 0.45599 0.04200
H 	H 	0.84772 0.09265 0.46704 0.04400
C 	C 	0.68395 0.36970 0.96616 0.02200
C 	C 	0.65775 0.38927 0.96320 -0.06800
C 	C 	0.61864 0.36776 0.96160 0.01900
C 	C 	0.60532 0.32621 0.96213 -0.06800
C 	C 	0.63065 0.30596 0.96414 0.02200
C 	C 	0.66983 0.32760 0.96590 -0.06900
H 	H 	0.66680 0.42011 0.96056 0.04400
H 	H 	0.57401 0.30850 0.95897 0.04500
H 	H 	0.68851 0.31119 0.96578 0.04500
C 	C 	0.81365 0.42469 0.53415 0.01800
C 	C 	0.78805 0.44499 0.53099 -0.06800
C 	C 	0.74859 0.42419 0.52902 0.01800
C 	C 	0.73448 0.38273 0.52968 -0.06900
C 	C 	0.75908 0.36161 0.53173 0.01800
C 	C 	0.79871 0.38262 0.53397 -0.06800
H 	H 	0.79766 0.47572 0.52820 0.04200
H 	H 	0.70294 0.36559 0.52630 0.04300
H 	H 	0.81697 0.36567 0.53408 0.04300
Zn	Zn	0.54803 0.56433 0.97739 1.18400
Zn	Zn	0.47326 0.53356 0.89152 1.19400
O 	O 	0.45821 0.44826 0.82145 -0.47800
O 	O 	0.45384 0.51207 0.83209 -0.45300
O 	O 	0.45589 0.39610 0.87942 -0.50100
C 	C 	0.58106 0.53501 0.93439 0.29900
O 	O 	0.42762 0.47304 0.87606 -0.87200
C 	C 	0.55406 0.62994 0.94664 0.31000
O 	O 	0.59367 0.55874 0.97183 -0.46200
O 	O 	0.53795 0.50573 0.90484 -0.37300
O 	O 	0.48744 0.54127 0.94804 -0.77600
O 	O 	0.50022 0.45977 0.94171 -0.45400
O 	O 	0.52316 0.59459 0.90906 -0.45700
O 	O 	0.56636 0.62484 0.97983 -0.46200
Zn	Zn	0.34642 0.40589 0.89572 1.17300
Zn	Zn	0.42348 0.42438 0.97015 1.18800
Zn	Zn	0.44474 0.47997 0.93007 1.21600
C 	C 	0.34018 0.33177 0.91878 0.31200
C 	C 	0.32692 0.43916 0.95034 0.31100
O 	O 	0.38989 0.50312 0.91918 -0.46600
Zn	Zn	0.43547 0.51155 0.00261 1.19100
O 	O 	0.38233 0.36008 0.95206 -0.45500
O 	O 	0.31906 0.34500 0.89348 -0.46800
O 	O 	0.31528 0.42866 0.91265 -0.48500
O 	O 	0.36733 0.44930 0.97889 -0.46500
C 	C 	0.46301 0.47974 0.06209 0.33000
O 	O 	0.40258 0.41863 0.91262 -0.80400
C 	C 	0.38872 0.53281 0.94462 0.31300
O 	O 	0.44976 0.44177 0.03178 -0.44800
O 	O 	0.46244 0.51418 0.05635 -0.48400
O 	O 	0.41110 0.54478 0.98400 -0.49200
O 	O 	0.46129 0.48622 0.98344 -0.88000
Zn	Zn	0.43551 0.42740 0.85221 1.18500
C 	C 	0.46113 0.48271 0.81420 0.33300
C 	C 	0.49132 0.42036 0.91803 0.31400
H 	H 	0.49392 0.49957 0.00417 0.14400
H 	H 	0.39633 0.46586 0.85844 0.14300
Zn	Zn	0.67234 0.61815 0.54182 1.18300
Zn	Zn	0.59526 0.58832 0.45686 1.19400
O 	O 	0.58002 0.51104 0.38403 -0.47900
O 	O 	0.56816 0.56989 0.39583 -0.44300
O 	O 	0.58908 0.45530 0.44121 -0.50100
C 	C 	0.70474 0.59054 0.49766 0.30600
O 	O 	0.55244 0.52649 0.44157 -0.87700
C 	C 	0.67689 0.68483 0.51165 0.31000
O 	O 	0.71745 0.61254 0.53547 -0.46900
O 	O 	0.66151 0.56537 0.46730 -0.38600
O 	O 	0.61182 0.59418 0.51359 -0.78100
O 	O 	0.62827 0.51455 0.50552 -0.45900
O 	O 	0.64282 0.65066 0.47400 -0.45300
O 	O 	0.68999 0.67881 0.54441 -0.46800
Zn	Zn	0.47343 0.45577 0.45973 1.17400
Zn	Zn	0.55097 0.47323 0.53331 1.18700
Zn	Zn	0.57102 0.53183 0.49518 1.21600
C 	C 	0.46817 0.38085 0.48165 0.31400
C 	C 	0.45422 0.48951 0.51457 0.31000
O 	O 	0.51486 0.55232 0.48571 -0.47000
Zn	Zn	0.56342 0.56219 0.56865 1.20000
O 	O 	0.51135 0.40801 0.51304 -0.46200
O 	O 	0.44651 0.39482 0.45760 -0.46900
O 	O 	0.44169 0.47779 0.47651 -0.47900
O 	O 	0.49455 0.49914 0.54263 -0.46800
C 	C 	0.57723 0.52226 0.62135 0.33100
O 	O 	0.53002 0.46962 0.47661 -0.80200
C 	C 	0.51578 0.58360 0.51173 0.31700
O 	O 	0.57026 0.48718 0.59307 -0.43600
O 	O 	0.58811 0.56109 0.62067 -0.48000
O 	O 	0.53948 0.59623 0.55120 -0.50000
O 	O 	0.58834 0.53639 0.54845 -0.89400
Zn	Zn	0.56422 0.48590 0.41651 1.18600
C 	C 	0.56718 0.53709 0.37134 0.32200
C 	C 	0.62222 0.47772 0.48067 0.31500
H 	H 	0.62108 0.54975 0.56872 0.15800
H 	H 	0.52049 0.51752 0.42397 0.14500
C 	C 	0.57637 0.53964 0.74358 -0.07600
C 	C 	0.53734 0.50705 0.69700 0.02100
C 	C 	0.49827 0.45312 0.71679 -0.07500
C 	C 	0.50677 0.49948 0.74259 0.02100
C 	C 	0.55843 0.53508 0.77039 -0.07500
H 	H 	0.60338 0.53166 0.75280 0.04100
H 	H 	0.59201 0.57552 0.74953 0.04000
C 	C 	0.55387 0.51146 0.67120 0.02900
H 	H 	0.46141 0.42683 0.69630 0.03800
H 	H 	0.51533 0.44116 0.73769 0.04000
C 	C 	0.48965 0.49491 0.76794 0.02900
H 	H 	0.57675 0.52471 0.79226 0.04200
H 	H 	0.56569 0.56881 0.78929 0.04100
C 	C 	0.48259 0.51492 0.71243 -0.07600
H 	H 	0.48841 0.54833 0.73008 0.04000
H 	H 	0.44540 0.48995 0.69200 0.04000
C 	C 	0.50039 0.51917 0.68553 -0.07500
H 	H 	0.47169 0.49604 0.65229 0.04100
H 	H 	0.51438 0.55454 0.69007 0.04000
C 	C 	0.51632 0.45760 0.69007 -0.07600
H 	H 	0.48809 0.43340 0.65684 0.04100
H 	H 	0.54210 0.44795 0.69829 0.04000
C 	C 	0.56573 0.51581 0.64906 -0.11600
C 	C 	0.47606 0.49007 0.78881 -0.12000
C 	C 	0.51272 0.46507 0.22803 -0.07500
C 	C 	0.52932 0.51523 0.25451 0.02000
C 	C 	0.55444 0.53685 0.21066 -0.07500
C 	C 	0.50388 0.49806 0.17862 0.02000
C 	C 	0.49776 0.45498 0.18342 -0.07600
H 	H 	0.54022 0.45844 0.24244 0.03700
H 	H 	0.48379 0.44139 0.22678 0.03300
C 	C 	0.54337 0.52459 0.29680 0.02600
H 	H 	0.55989 0.56836 0.20801 0.03600
H 	H 	0.57596 0.52708 0.20436 0.03600
C 	C 	0.48955 0.48902 0.13632 0.02700
H 	H 	0.51816 0.44360 0.17655 0.03700
H 	H 	0.46171 0.42655 0.16089 0.03800
C 	C 	0.47521 0.51294 0.18873 -0.07500
H 	H 	0.43869 0.48567 0.16635 0.03800
H 	H 	0.47898 0.54395 0.18563 0.03800
C 	C 	0.49015 0.52304 0.23329 -0.07500
H 	H 	0.50111 0.55885 0.25145 0.03800
H 	H 	0.46079 0.50057 0.23218 0.03500
C 	C 	0.56938 0.54695 0.25526 -0.07600
H 	H 	0.58192 0.58324 0.27386 0.04000
H 	H 	0.59804 0.54200 0.27025 0.04000
C 	C 	0.55446 0.53119 0.33108 -0.12400
C 	C 	0.47754 0.48346 0.10208 -0.12000
C 	C 	0.76212 0.28615 0.53248 -0.05300
H 	H 	0.79672 0.29676 0.54107 0.03400
C 	C 	0.71772 0.24403 0.49202 0.00800
H 	H 	0.71548 0.21977 0.46713 0.02700
C 	C 	0.74440 0.27296 0.55763 0.00700
H 	H 	0.76425 0.27270 0.58687 0.02100
C 	C 	0.70031 0.23157 0.51725 -0.08500
C 	C 	0.73997 0.31448 0.52708 0.01200
C 	C 	0.72255 0.30177 0.55229 -0.05300
H 	H 	0.72473 0.32584 0.57726 0.03100
C 	C 	0.67831 0.25988 0.51189 0.00500
H 	H 	0.64364 0.24878 0.50336 0.01800
C 	C 	0.69590 0.27292 0.48672 -0.04900
H 	H 	0.67607 0.27322 0.45749 0.03700
C 	C 	0.89536 0.44185 0.55214 -0.05000
H 	H 	0.90345 0.42747 0.57355 0.03500
C 	C 	0.92457 0.49179 0.56311 0.00700
H 	H 	0.95709 0.51874 0.59334 0.02200
C 	C 	0.88955 0.42477 0.51048 0.00600
H 	H 	0.89319 0.39644 0.49739 0.02700
C 	C 	0.91819 0.47444 0.52147 -0.08600
C 	C 	0.85259 0.44402 0.53097 0.01200
C 	C 	0.84652 0.42684 0.48944 -0.05000
H 	H 	0.81413 0.39991 0.45910 0.03500
C 	C 	0.87560 0.47671 0.50040 0.00700
H 	H 	0.86771 0.49118 0.47905 0.02400
C 	C 	0.88141 0.49384 0.54209 -0.05400
H 	H 	0.87827 0.52253 0.55533 0.03300
C 	C 	0.69665 0.48535 0.54075 0.00800
H 	H 	0.70404 0.51142 0.56829 0.00900
C 	C 	0.72898 0.49034 0.52740 -0.05300
H 	H 	0.76345 0.52051 0.54420 0.03400
C 	C 	0.68531 0.43636 0.53213 -0.05700
H 	H 	0.68386 0.42209 0.55292 0.03100
C 	C 	0.71714 0.44144 0.51853 0.01300
C 	C 	0.65738 0.46591 0.49569 -0.09600
C 	C 	0.64570 0.41720 0.48694 0.00700
H 	H 	0.61116 0.38716 0.47021 0.01800
C 	C 	0.67782 0.42227 0.47354 -0.05100
H 	H 	0.67031 0.39620 0.44590 0.03500
C 	C 	0.68922 0.47121 0.48218 0.01000
H 	H 	0.69057 0.48580 0.46154 0.02400
C 	C 	0.57030 0.21644 0.91967 -0.04800
H 	H 	0.55051 0.21572 0.88985 0.03600
C 	C 	0.55192 0.20271 0.94414 0.00100
H 	H 	0.51665 0.18997 0.93444 0.01900
C 	C 	0.59424 0.18963 0.92702 0.00900
H 	H 	0.59382 0.16603 0.90323 0.02700
C 	C 	0.57604 0.17650 0.95154 -0.08700
C 	C 	0.61292 0.25911 0.96015 0.00900
C 	C 	0.63719 0.23289 0.96760 -0.05600
H 	H 	0.67243 0.24517 0.97740 0.03700
C 	C 	0.61870 0.21902 0.99204 0.02400
H 	H 	0.63850 0.21979 0.02188 0.00700
C 	C 	0.59472 0.24573 0.98466 -0.03600
H 	H 	0.59510 0.26911 0.00855 0.01600
C 	C 	0.79528 0.43913 0.99729 0.02400
H 	H 	0.82728 0.46600 0.02793 0.00900
C 	C 	0.76632 0.38879 0.98550 -0.03200
H 	H 	0.77411 0.37400 0.00660 0.01900
C 	C 	0.75180 0.44053 0.97564 -0.05500
H 	H 	0.74785 0.46861 0.98867 0.03700
C 	C 	0.72325 0.39034 0.96372 0.00900
C 	C 	0.79017 0.42289 0.95620 -0.08700
C 	C 	0.74727 0.42456 0.93449 0.00700
H 	H 	0.73971 0.43945 0.91344 0.02400
C 	C 	0.71840 0.37428 0.92272 -0.04800
H 	H 	0.68649 0.34740 0.89201 0.03500
C 	C 	0.76173 0.37284 0.94439 0.00200
H 	H 	0.76610 0.34506 0.93147 0.03000
C 	C 	0.54598 0.36476 0.90786 -0.05300
H 	H 	0.53737 0.33833 0.87975 0.03600
C 	C 	0.55659 0.41344 0.91615 0.01200
H 	H 	0.55618 0.42737 0.89474 0.02600
C 	C 	0.51568 0.36011 0.92333 0.01100
H 	H 	0.48156 0.33003 0.90786 0.01900
C 	C 	0.52659 0.40855 0.93172 -0.10100
C 	C 	0.58694 0.38472 0.95227 0.01700
C 	C 	0.55695 0.38005 0.96792 -0.06200
H 	H 	0.55729 0.36637 0.98946 0.03700
C 	C 	0.56750 0.42878 0.97620 0.03100
H 	H 	0.57597 0.45522 0.00421 -0.00800
C 	C 	0.59799 0.43336 0.96077 -0.05800
H 	H 	0.63201 0.46362 0.97630 0.03800
C 	C 	0.94512 0.07896 0.44998 0.01000
H 	H 	0.93871 0.05317 0.42292 0.00800
C 	C 	0.95785 0.12844 0.45923 -0.05600
H 	H 	0.96140 0.14339 0.43940 0.02900
C 	C 	0.91106 0.07394 0.46117 -0.05300
H 	H 	0.87607 0.04411 0.44298 0.03600
C 	C 	0.92425 0.12323 0.47067 0.01300
C 	C 	0.98240 0.09720 0.49550 -0.10000
C 	C 	0.94877 0.09190 0.50681 0.01400
H 	H 	0.94538 0.07683 0.52662 0.02500
C 	C 	0.96161 0.14124 0.51611 -0.04900
H 	H 	0.96812 0.16700 0.54327 0.03500
C 	C 	0.99556 0.14635 0.50492 -0.00100
H 	H 	0.03064 0.17603 0.52308 0.02300
C 	C 	0.92435 0.31971 0.49752 0.00800
H 	H 	0.92602 0.34339 0.52232 0.02400
C 	C 	0.94570 0.29043 0.50261 -0.04900
H 	H 	0.96452 0.28915 0.53152 0.03600
C 	C 	0.88039 0.27834 0.45622 -0.05200
H 	H 	0.84548 0.26756 0.44679 0.03400
C 	C 	0.90210 0.24962 0.46146 0.01200
C 	C 	0.94324 0.33331 0.47360 -0.08500
C 	C 	0.89963 0.29271 0.43239 0.00600
H 	H 	0.88089 0.29407 0.40351 0.01900
C 	C 	0.92097 0.26340 0.43751 -0.05500
H 	H 	0.91939 0.23991 0.41267 0.03100
C 	C 	0.96478 0.30456 0.47876 0.00600
H 	H 	0.99971 0.31563 0.48808 0.02100
C 	C 	0.75467 0.13054 0.45144 -0.04900
H 	H 	0.74384 0.14260 0.42849 0.03700
C 	C 	0.76537 0.15168 0.49497 0.00600
H 	H 	0.76295 0.18100 0.50814 0.02600
C 	C 	0.72724 0.08222 0.44452 0.00800
H 	H 	0.69342 0.05427 0.41607 0.03400
C 	C 	0.73843 0.10355 0.48798 -0.08300
C 	C 	0.79757 0.12837 0.47036 0.01200
C 	C 	0.77044 0.08011 0.46330 -0.05100
H 	H 	0.77213 0.05028 0.44997 0.03600
C 	C 	0.78114 0.10127 0.50689 0.00700
H 	H 	0.79169 0.08909 0.52978 0.02300
C 	C 	0.80861 0.14962 0.51379 -0.04900
H 	H 	0.84242 0.17758 0.54223 0.03500
C 	C 	0.82066 0.03973 0.93797 0.00900
H 	H 	0.81657 0.02385 0.95709 0.03100
C 	C 	0.78371 0.02250 0.89228 -0.03900
H 	H 	0.74874 0.99242 0.87341 0.02300
C 	C 	0.83342 0.08919 0.94806 -0.04700
H 	H 	0.83926 0.11422 0.97519 0.03900
C 	C 	0.79680 0.07194 0.90256 0.00900
C 	C 	0.85516 0.04611 0.92762 -0.09000
C 	C 	0.86822 0.09541 0.93782 0.00600
H 	H 	0.90329 0.12532 0.95671 0.01900
C 	C 	0.83126 0.07826 0.89206 -0.05400
H 	H 	0.83545 0.09408 0.87295 0.03000
C 	C 	0.81865 0.02862 0.88204 0.00400
H 	H 	0.81293 0.00354 0.85503 0.01200
C 	C 	0.79570 0.26876 0.93297 0.00900
H 	H 	0.79638 0.29152 0.95751 0.02700
C 	C 	0.81765 0.24000 0.93820 -0.04800
H 	H 	0.83603 0.23828 0.96695 0.03900
C 	C 	0.75249 0.22752 0.89107 -0.05200
H 	H 	0.71722 0.21595 0.88087 0.03400
C 	C 	0.77480 0.19934 0.89645 0.01200
C 	C 	0.81558 0.28384 0.91016 -0.08500
C 	C 	0.77271 0.24336 0.86835 0.00700
H 	H 	0.75439 0.24512 0.83961 0.01900
C 	C 	0.79467 0.21460 0.87360 -0.05500
H 	H 	0.79406 0.19204 0.84901 0.03100
C 	C 	0.83774 0.25564 0.91545 0.00700
H 	H 	0.87302 0.26749 0.92554 0.02300
C 	C 	0.68371 0.09344 0.94809 -0.04500
H 	H 	0.71841 0.11920 0.97648 0.03800
C 	C 	0.65446 0.04393 0.93792 0.00200
H 	H 	0.66446 0.02855 0.95807 0.02800
C 	C 	0.64226 0.09854 0.93366 0.00300
H 	H 	0.64224 0.12817 0.95038 0.02900
C 	C 	0.61352 0.04924 0.92341 -0.07600
C 	C 	0.67054 0.07570 0.90366 0.00600
C 	C 	0.62942 0.08094 0.88911 -0.04600
H 	H 	0.61913 0.09623 0.86896 0.03500
C 	C 	0.60019 0.03145 0.87894 0.00000
H 	H 	0.56559 0.00558 0.85049 0.04000
C 	C 	0.64158 0.02630 0.89333 -0.03600
H 	H 	0.64094 0.99628 0.87638 0.02300
C 	C 	0.70450 0.59174 0.89414 0.01900
C 	C 	0.71826 0.63297 0.89288 -0.06800
C 	C 	0.75484 0.65168 0.89041 0.01900
C 	C 	0.77766 0.62904 0.88932 -0.06800
C 	C 	0.76488 0.58853 0.89170 0.01800
C 	C 	0.72784 0.56963 0.89344 -0.06800
H 	H 	0.70202 0.65147 0.89590 0.04300
H 	H 	0.80749 0.64478 0.88982 0.04200
H 	H 	0.71933 0.53957 0.89734 0.04300
C 	C 	0.83232 0.64405 0.46171 0.01900
C 	C 	0.84584 0.68460 0.45931 -0.06800
C 	C 	0.88220 0.70248 0.45643 0.01800
C 	C 	0.90497 0.67966 0.45599 -0.06800
C 	C 	0.89252 0.63996 0.45966 0.01800
C 	C 	0.85591 0.62202 0.46211 -0.06800
H 	H 	0.82948 0.70318 0.46162 0.04300
H 	H 	0.93453 0.69475 0.45599 0.04100
H 	H 	0.84772 0.59265 0.46704 0.04300
C 	C 	0.68395 0.86970 0.96616 0.02200
C 	C 	0.65775 0.88927 0.96320 -0.06800
C 	C 	0.61864 0.86776 0.96160 0.01800
C 	C 	0.60532 0.82621 0.96213 -0.06800
C 	C 	0.63065 0.80596 0.96414 0.02200
C 	C 	0.66983 0.82760 0.96590 -0.06900
H 	H 	0.66680 0.92011 0.96056 0.04300
H 	H 	0.57401 0.80850 0.95897 0.04400
H 	H 	0.68851 0.81119 0.96578 0.04500
C 	C 	0.81365 0.92469 0.53415 0.01600
C 	C 	0.78805 0.94499 0.53099 -0.06700
C 	C 	0.74859 0.92419 0.52902 0.01500
C 	C 	0.73448 0.88273 0.52968 -0.06800
C 	C 	0.75908 0.86161 0.53173 0.01700
C 	C 	0.79871 0.88262 0.53397 -0.06700
H 	H 	0.79766 0.97572 0.52820 0.03900
H 	H 	0.70294 0.86559 0.52630 0.04200
H 	H 	0.81697 0.86567 0.53408 0.04200
Zn	Zn	0.54803 0.06433 0.97739 1.18600
Zn	Zn	0.47326 0.03356 0.89152 1.19500
O 	O 	0.45821 0.94826 0.82145 -0.47900
O 	O 	0.45384 0.01207 0.83209 -0.44200
O 	O 	0.45589 0.89610 0.87942 -0.50200
C 	C 	0.58106 0.03501 0.93439 0.29800
O 	O 	0.42762 0.97304 0.87606 -0.87700
C 	C 	0.55406 0.12994 0.94664 0.31000
O 	O 	0.59367 0.05874 0.97183 -0.46000
O 	O 	0.53795 0.00573 0.90484 -0.36800
O 	O 	0.48744 0.04128 0.94804 -0.77200
O 	O 	0.50022 0.95977 0.94171 -0.45700
O 	O 	0.52316 0.09459 0.90906 -0.45600
O 	O 	0.56636 0.12484 0.97983 -0.46200
Zn	Zn	0.34642 0.90589 0.89572 1.17200
Zn	Zn	0.42348 0.92438 0.97015 1.18800
Zn	Zn	0.44474 0.97997 0.93007 1.21400
C 	C 	0.34018 0.83177 0.91878 0.31200
C 	C 	0.32692 0.93916 0.95034 0.31000
O 	O 	0.38989 0.00312 0.91918 -0.46100
Zn	Zn	0.43547 0.01155 0.00261 1.19400
O 	O 	0.38233 0.86008 0.95206 -0.45500
O 	O 	0.31906 0.84500 0.89348 -0.46900
O 	O 	0.31529 0.92866 0.91265 -0.48700
O 	O 	0.36733 0.94930 0.97889 -0.46800
C 	C 	0.46301 0.97974 0.06209 0.32100
O 	O 	0.40258 0.91863 0.91262 -0.80500
C 	C 	0.38872 0.03281 0.94462 0.31300
O 	O 	0.44976 0.94177 0.03178 -0.44600
O 	O 	0.46244 0.01418 0.05635 -0.47300
O 	O 	0.41110 0.04478 0.98400 -0.48900
O 	O 	0.46129 0.98622 0.98344 -0.88400
Zn	Zn	0.43551 0.92740 0.85221 1.18500
C 	C 	0.46113 0.98271 0.81420 0.32200
C 	C 	0.49132 0.92036 0.91803 0.31400
H 	H 	0.49392 0.99957 0.00417 0.14200
H 	H 	0.39633 0.96586 0.85844 0.14100
Zn	Zn	0.67234 0.11815 0.54182 1.18300
Zn	Zn	0.59526 0.08832 0.45686 1.19400
O 	O 	0.58002 0.01105 0.38403 -0.47500
O 	O 	0.56816 0.06989 0.39583 -0.44200
O 	O 	0.58908 0.95530 0.44121 -0.50200
C 	C 	0.70474 0.09054 0.49766 0.30600
O 	O 	0.55244 0.02649 0.44157 -0.87400
C 	C 	0.67689 0.18483 0.51165 0.31000
O 	O 	0.71745 0.11254 0.53547 -0.46800
O 	O 	0.66151 0.06537 0.46730 -0.38500
O 	O 	0.61182 0.09418 0.51359 -0.78100
O 	O 	0.62827 0.01455 0.50552 -0.45000
O 	O 	0.64282 0.15066 0.47400 -0.45200
O 	O 	0.68999 0.17881 0.54441 -0.46800
Zn	Zn	0.47343 0.95577 0.45973 1.17300
Zn	Zn	0.55097 0.97323 0.53331 1.18600
Zn	Zn	0.57102 0.03183 0.49518 1.21700
C 	C 	0.46817 0.88085 0.48165 0.31400
C 	C 	0.45422 0.98951 0.51457 0.30800
O 	O 	0.51486 0.05232 0.48571 -0.46800
Zn	Zn	0.56342 0.06219 0.56865 1.20200
O 	O 	0.51135 0.90801 0.51304 -0.46300
O 	O 	0.44651 0.89482 0.45760 -0.47000
O 	O 	0.44169 0.97779 0.47651 -0.48200
O 	O 	0.49455 0.99914 0.54263 -0.47300
C 	C 	0.57723 0.02226 0.62135 0.34300
O 	O 	0.53002 0.96962 0.47661 -0.80700
C 	C 	0.51578 0.08360 0.51173 0.31700
O 	O 	0.57026 0.98718 0.59307 -0.44600
O 	O 	0.58811 0.06109 0.62067 -0.48100
O 	O 	0.53948 0.09623 0.55120 -0.49800
O 	O 	0.58834 0.03639 0.54845 -0.89000
Zn	Zn	0.56422 0.98590 0.41651 1.18200
C 	C 	0.56718 0.03709 0.37134 0.32100
C 	C 	0.62222 0.97772 0.48067 0.30300
H 	H 	0.62108 0.04975 0.56872 0.15900
H 	H 	0.52049 0.01752 0.42397 0.14700
C 	C 	0.57637 0.03964 0.74358 -0.08100
C 	C 	0.53734 0.00705 0.69700 0.03100
C 	C 	0.49827 0.95312 0.71679 -0.06800
C 	C 	0.50677 0.99948 0.74259 -0.00000
C 	C 	0.55843 0.03508 0.77039 -0.06200
H 	H 	0.60338 0.03166 0.75280 0.04400
H 	H 	0.59200 0.07552 0.74953 0.04100
C 	C 	0.55387 0.01146 0.67120 0.03200
H 	H 	0.46141 0.92683 0.69630 0.03600
H 	H 	0.51533 0.94116 0.73769 0.03600
C 	C 	0.48965 0.99491 0.76794 0.03000
H 	H 	0.57675 0.02471 0.79226 0.04200
H 	H 	0.56569 0.06881 0.78929 0.03900
C 	C 	0.48259 0.01492 0.71243 -0.05300
H 	H 	0.48841 0.04833 0.73008 0.03800
H 	H 	0.44540 0.98995 0.69200 0.03000
C 	C 	0.50039 0.01917 0.68553 -0.07200
H 	H 	0.47169 0.99604 0.65229 0.03400
H 	H 	0.51438 0.05454 0.69007 0.04000
C 	C 	0.51632 0.95760 0.69007 -0.08800
H 	H 	0.48809 0.93340 0.65684 0.04200
H 	H 	0.54210 0.94795 0.69829 0.04000
C 	C 	0.56573 0.01581 0.64906 -0.11600
C 	C 	0.47606 0.99007 0.78881 -0.12300
C 	C 	0.51272 0.96507 0.22803 -0.08800
C 	C 	0.52932 0.01523 0.25451 0.03300
C 	C 	0.55444 0.03685 0.21066 -0.06100
C 	C 	0.50389 0.99806 0.17862 -0.00100
C 	C 	0.49776 0.95498 0.18342 -0.06800
H 	H 	0.54022 0.95844 0.24244 0.03700
H 	H 	0.48379 0.94139 0.22678 0.03300
C 	C 	0.54337 0.02459 0.29680 0.02400
H 	H 	0.55989 0.06836 0.20801 0.03500
H 	H 	0.57596 0.02708 0.20436 0.03600
C 	C 	0.48955 0.98902 0.13632 0.02900
H 	H 	0.51816 0.94360 0.17655 0.03400
H 	H 	0.46171 0.92655 0.16089 0.03500
C 	C 	0.47521 0.01294 0.18873 -0.04900
H 	H 	0.43869 0.98567 0.16635 0.02700
H 	H 	0.47898 0.04395 0.18563 0.03500
C 	C 	0.49015 0.02304 0.23329 -0.08500
H 	H 	0.50111 0.05885 0.25145 0.04100
H 	H 	0.46079 0.00057 0.23218 0.04000
C 	C 	0.56938 0.04695 0.25526 -0.08200
H 	H 	0.58192 0.08324 0.27386 0.04100
H 	H 	0.59804 0.04200 0.27025 0.04300
C 	C 	0.55446 0.03119 0.33108 -0.12000
C 	C 	0.47754 0.98347 0.10208 -0.12300
C 	C 	0.76212 0.78615 0.53248 -0.05300
H 	H 	0.79672 0.79676 0.54107 0.03300
C 	C 	0.71772 0.74403 0.49202 0.00800
H 	H 	0.71548 0.71977 0.46713 0.02700
C 	C 	0.74440 0.77296 0.55763 0.00700
H 	H 	0.76425 0.77270 0.58687 0.02100
C 	C 	0.70031 0.73157 0.51725 -0.08500
C 	C 	0.73997 0.81448 0.52708 0.01200
C 	C 	0.72255 0.80177 0.55229 -0.05300
H 	H 	0.72474 0.82584 0.57726 0.03100
C 	C 	0.67831 0.75988 0.51189 0.00500
H 	H 	0.64364 0.74878 0.50336 0.01800
C 	C 	0.69590 0.77292 0.48672 -0.04900
H 	H 	0.67607 0.77322 0.45749 0.03600
C 	C 	0.89536 0.94185 0.55214 -0.04800
H 	H 	0.90345 0.92747 0.57355 0.03300
C 	C 	0.92457 0.99179 0.56311 -0.00200
H 	H 	0.95709 0.01874 0.59334 0.03100
C 	C 	0.88955 0.92477 0.51048 0.00600
H 	H 	0.89319 0.89644 0.49739 0.02700
C 	C 	0.91819 0.97444 0.52147 -0.08600
C 	C 	0.85259 0.94402 0.53097 0.01400
C 	C 	0.84652 0.92684 0.48944 -0.05100
H 	H 	0.81413 0.89991 0.45910 0.03500
C 	C 	0.87560 0.97671 0.50040 0.00800
H 	H 	0.86772 0.99118 0.47905 0.02000
C 	C 	0.88141 0.99384 0.54209 -0.06300
H 	H 	0.87827 0.02253 0.55533 0.04200
C 	C 	0.69665 0.98535 0.54075 -0.00300
H 	H 	0.70404 0.01142 0.56829 0.01800
C 	C 	0.72898 0.99034 0.52740 -0.06200
H 	H 	0.76345 0.02051 0.54420 0.04300
C 	C 	0.68531 0.93636 0.53213 -0.05500
H 	H 	0.68386 0.92209 0.55292 0.02900
C 	C 	0.71714 0.94144 0.51853 0.01500
C 	C 	0.65738 0.96591 0.49569 -0.09300
C 	C 	0.64570 0.91720 0.48694 0.00600
H 	H 	0.61116 0.88715 0.47021 0.01800
C 	C 	0.67783 0.92227 0.47354 -0.05100
H 	H 	0.67031 0.89620 0.44590 0.03500
C 	C 	0.68922 0.97121 0.48218 0.01000
H 	H 	0.69057 0.98580 0.46154 0.02100
C 	C 	0.57030 0.71644 0.91967 -0.04900
H 	H 	0.55051 0.71572 0.88985 0.03600
C 	C 	0.55192 0.70271 0.94414 0.00200
H 	H 	0.51665 0.68997 0.93444 0.01900
C 	C 	0.59424 0.68963 0.92702 0.00900
H 	H 	0.59382 0.66603 0.90323 0.02700
C 	C 	0.57604 0.67650 0.95154 -0.08800
C 	C 	0.61292 0.75911 0.96015 0.00900
C 	C 	0.63719 0.73289 0.96760 -0.05600
H 	H 	0.67243 0.74517 0.97740 0.03700
C 	C 	0.61870 0.71902 0.99204 0.02400
H 	H 	0.63850 0.71979 0.02188 0.00600
C 	C 	0.59472 0.74573 0.98466 -0.03700
H 	H 	0.59510 0.76911 0.00855 0.01600
C 	C 	0.79528 0.93913 0.99729 0.02200
H 	H 	0.82728 0.96600 0.02793 0.00800
C 	C 	0.76632 0.88879 0.98550 -0.03300
H 	H 	0.77411 0.87401 0.00660 0.01900
C 	C 	0.75180 0.94053 0.97564 -0.05600
H 	H 	0.74785 0.96861 0.98867 0.03500
C 	C 	0.72325 0.89034 0.96372 0.00900
C 	C 	0.79017 0.92289 0.95620 -0.08800
C 	C 	0.74727 0.92456 0.93449 0.00700
H 	H 	0.73971 0.93945 0.91344 0.02200
C 	C 	0.71840 0.87428 0.92272 -0.04900
H 	H 	0.68649 0.84740 0.89201 0.03500
C 	C 	0.76173 0.87284 0.94439 0.00300
H 	H 	0.76610 0.84506 0.93147 0.03000
C 	C 	0.54598 0.86476 0.90786 -0.05300
H 	H 	0.53737 0.83833 0.87975 0.03500
C 	C 	0.55659 0.91344 0.91615 0.01200
H 	H 	0.55618 0.92737 0.89474 0.02400
C 	C 	0.51568 0.86011 0.92333 0.01100
H 	H 	0.48156 0.83003 0.90786 0.01900
C 	C 	0.52659 0.90855 0.93172 -0.10200
C 	C 	0.58694 0.88472 0.95227 0.01600
C 	C 	0.55695 0.88006 0.96792 -0.06200
H 	H 	0.55729 0.86637 0.98946 0.03700
C 	C 	0.56750 0.92878 0.97620 0.03000
H 	H 	0.57597 0.95522 0.00421 -0.00900
C 	C 	0.59799 0.93336 0.96077 -0.05800
H 	H 	0.63201 0.96362 0.97630 0.03600
C 	C 	0.94512 0.57896 0.44998 0.01000
H 	H 	0.93871 0.55317 0.42292 0.00600
C 	C 	0.95785 0.62844 0.45923 -0.05600
H 	H 	0.96140 0.64339 0.43940 0.02800
C 	C 	0.91106 0.57394 0.46117 -0.05400
H 	H 	0.87607 0.54411 0.44298 0.03400
C 	C 	0.92425 0.62323 0.47067 0.01300
C 	C 	0.98240 0.59720 0.49550 -0.10100
C 	C 	0.94877 0.59190 0.50681 0.01300
H 	H 	0.94538 0.57683 0.52662 0.02300
C 	C 	0.96161 0.64124 0.51611 -0.04900
H 	H 	0.96812 0.66700 0.54327 0.03400
C 	C 	0.99556 0.64635 0.50492 -0.00100
H 	H 	0.03064 0.67603 0.52308 0.02300
C 	C 	0.92435 0.81971 0.49752 0.00800
H 	H 	0.92602 0.84339 0.52232 0.02300
C 	C 	0.94570 0.79043 0.50261 -0.04900
H 	H 	0.96452 0.78915 0.53152 0.03600
C 	C 	0.88039 0.77834 0.45622 -0.05200
H 	H 	0.84548 0.76756 0.44679 0.03400
C 	C 	0.90210 0.74962 0.46146 0.01200
C 	C 	0.94324 0.83331 0.47360 -0.08500
C 	C 	0.89963 0.79271 0.43239 0.00600
H 	H 	0.88089 0.79407 0.40351 0.01800
C 	C 	0.92097 0.76340 0.43751 -0.05500
H 	H 	0.91939 0.73991 0.41267 0.03100
C 	C 	0.96478 0.80456 0.47876 0.00600
H 	H 	0.99971 0.81563 0.48808 0.02000
C 	C 	0.75467 0.63054 0.45144 -0.04900
H 	H 	0.74384 0.64260 0.42849 0.03700
C 	C 	0.76537 0.65168 0.49497 0.00600
H 	H 	0.76295 0.68100 0.50814 0.02600
C 	C 	0.72724 0.58222 0.44452 0.00700
H 	H 	0.69342 0.55427 0.41607 0.03300
C 	C 	0.73843 0.60355 0.48798 -0.08300
C 	C 	0.79757 0.62837 0.47036 0.01100
C 	C 	0.77044 0.58011 0.46330 -0.05200
H 	H 	0.77213 0.55028 0.44997 0.03400
C 	C 	0.78114 0.60127 0.50689 0.00600
H 	H 	0.79169 0.58909 0.52978 0.02200
C 	C 	0.80861 0.64962 0.51379 -0.04900
H 	H 	0.84242 0.67758 0.54223 0.03500
C 	C 	0.82066 0.53973 0.93797 0.01300
H 	H 	0.81657 0.52385 0.95709 0.02700
C 	C 	0.78371 0.52250 0.89228 -0.05400
H 	H 	0.74874 0.49242 0.87341 0.03400
C 	C 	0.83342 0.58919 0.94806 -0.05000
H 	H 	0.83926 0.61422 0.97519 0.03800
C 	C 	0.79680 0.57194 0.90256 0.01300
C 	C 	0.85516 0.54611 0.92762 -0.09300
C 	C 	0.86822 0.59541 0.93782 0.00800
H 	H 	0.90329 0.62532 0.95671 0.01800
C 	C 	0.83126 0.57826 0.89206 -0.05700
H 	H 	0.83545 0.59408 0.87295 0.03000
C 	C 	0.81865 0.52862 0.88204 0.00800
H 	H 	0.81293 0.50354 0.85503 0.00800
C 	C 	0.79570 0.76876 0.93297 0.00900
H 	H 	0.79638 0.79152 0.95751 0.02700
C 	C 	0.81765 0.74000 0.93820 -0.04800
H 	H 	0.83603 0.73828 0.96695 0.03900
C 	C 	0.75249 0.72752 0.89107 -0.05200
H 	H 	0.71722 0.71595 0.88087 0.03400
C 	C 	0.77480 0.69934 0.89645 0.01200
C 	C 	0.81558 0.78384 0.91016 -0.08500
C 	C 	0.77271 0.74336 0.86835 0.00700
H 	H 	0.75439 0.74512 0.83961 0.01900
C 	C 	0.79467 0.71461 0.87360 -0.05500
H 	H 	0.79406 0.69204 0.84901 0.03100
C 	C 	0.83774 0.75563 0.91545 0.00700
H 	H 	0.87302 0.76749 0.92554 0.02300
C 	C 	0.68371 0.59344 0.94809 -0.04800
H 	H 	0.71841 0.61920 0.97648 0.03800
C 	C 	0.65446 0.54393 0.93792 0.00600
H 	H 	0.66446 0.52855 0.95807 0.02300
C 	C 	0.64226 0.59854 0.93366 0.00500
H 	H 	0.64224 0.62817 0.95038 0.02900
C 	C 	0.61352 0.54924 0.92341 -0.08000
C 	C 	0.67054 0.57570 0.90366 0.01100
C 	C 	0.62942 0.58093 0.88911 -0.04900
H 	H 	0.61913 0.59623 0.86896 0.03500
C 	C 	0.60019 0.53144 0.87894 0.00400
H 	H 	0.56559 0.50558 0.85049 0.03500
C 	C 	0.64158 0.52631 0.89333 -0.05100
H 	H 	0.64094 0.49628 0.87638 0.03400
