data_crystal

_cell_length_a 44.82711
_cell_length_b 41.26170
_cell_length_c 26.87331
_cell_angle_alpha 91.94387
_cell_angle_beta  88.71181
_cell_angle_gamma 90.05776

_symmetry_space_group_name_	'P 1'
_symmetry_space_group_name_H-M	'P 1'

loop_
_symmetry_equiv_pos_as_xyz
  x,y,z

loop_
_atom_site_label
_atom_site_type_symbol
_atom_site_fract_x
_atom_site_fract_y
_atom_site_fract_z
_atom_site_charge
Cd	Cd	0.88648 0.86603 0.23788 1.24700
Cd	Cd	0.88421 0.91910 0.34555 1.17800
O 	O 	0.84935 0.82220 0.23145 -0.30500
O 	O 	0.88189 0.83063 0.17129 -0.32400
C 	C 	0.86105 0.81199 0.18907 0.29100
O 	O 	0.91998 0.90468 0.22006 -0.35800
O 	O 	0.92676 0.92216 0.30089 -0.41600
C 	C 	0.92936 0.92704 0.25273 0.29000
C 	C 	0.84376 0.91713 0.24563 0.30500
O 	O 	0.89201 0.86350 0.33573 -0.44000
O 	O 	0.84520 0.90456 0.20030 -0.27400
O 	O 	0.85813 0.90128 0.27835 -0.53000
C 	C 	0.91711 0.84821 0.32606 0.30100
O 	O 	0.92219 0.83929 0.27978 -0.33200
Cd	Cd	0.99855 0.88243 0.03126 1.24700
Cd	Cd	0.06309 0.89203 0.95568 1.17600
O 	O 	0.97209 0.83028 0.02715 -0.30400
O 	O 	0.95779 0.86944 0.07966 -0.32400
C 	C 	0.95281 0.84044 0.06094 0.29000
O 	O 	0.01782 0.93043 0.05508 -0.37600
O 	O 	0.04259 0.94003 0.98075 -0.42600
C 	C 	0.03258 0.95010 0.02527 0.30100
C 	C 	0.05300 0.85365 0.05809 0.30600
O 	O 	0.01414 0.87969 0.93558 -0.42200
O 	O 	0.03426 0.85308 0.09603 -0.27400
O 	O 	0.04222 0.86333 0.01713 -0.54300
C 	C 	0.99287 0.90047 0.92892 0.29300
O 	O 	0.97549 0.90735 0.96740 -0.33600
C 	C 	0.86264 0.69083 0.86276 0.14700
N 	N 	0.84729 0.69090 0.81969 -0.13800
C 	C 	0.85334 0.66820 0.78298 0.13700
N 	N 	0.87377 0.64468 0.79031 -0.14100
C 	C 	0.88829 0.64384 0.83398 0.13800
N 	N 	0.88276 0.66697 0.87005 -0.13200
C 	C 	0.84338 0.61560 0.34235 0.14400
N 	N 	0.83709 0.62859 0.38859 -0.12900
C 	C 	0.84189 0.61110 0.42951 0.13700
N 	N 	0.85329 0.58071 0.42413 -0.14200
C 	C 	0.86284 0.56904 0.37867 0.13400
N 	N 	0.85726 0.58631 0.33766 -0.14100
Cd	Cd	0.91630 0.13652 0.68844 1.24400
Cd	Cd	0.97439 0.13761 0.78191 1.18600
O 	O 	0.86665 0.14233 0.72824 -0.30900
O 	O 	0.87322 0.14393 0.64679 -0.33800
C 	C 	0.85474 0.14530 0.68499 0.29700
O 	O 	0.95959 0.13750 0.64337 -0.34700
O 	O 	0.99072 0.15430 0.70675 -0.38500
C 	C 	0.98616 0.13720 0.66492 0.29200
C 	C 	0.93367 0.19396 0.74206 0.30600
O 	O 	0.95293 0.09825 0.73186 -0.46100
O 	O 	0.92082 0.20034 0.70023 -0.27800
O 	O 	0.93425 0.16349 0.75317 -0.52000
C 	C 	0.93219 0.07639 0.73044 0.30300
O 	O 	0.91194 0.08098 0.69741 -0.33300
Cd	Cd	0.87252 0.15946 0.50508 1.24300
Cd	Cd	0.91757 0.16961 0.39611 1.18900
O 	O 	0.82129 0.18130 0.50757 -0.30100
O 	O 	0.83721 0.14944 0.56460 -0.32600
C 	C 	0.81472 0.16468 0.54655 0.29600
O 	O 	0.91229 0.12781 0.51671 -0.36700
O 	O 	0.94339 0.15288 0.46120 -0.41100
C 	C 	0.93632 0.12735 0.48720 0.29100
C 	C 	0.86255 0.11932 0.41874 0.31000
O 	O 	0.89530 0.20670 0.45298 -0.43500
O 	O 	0.84926 0.10793 0.45808 -0.28000
O 	O 	0.87399 0.14801 0.42451 -0.53000
C 	C 	0.90631 0.21873 0.49418 0.29700
O 	O 	0.89803 0.20467 0.53504 -0.34100
C 	C 	0.67132 0.08960 0.84793 0.14700
N 	N 	0.65350 0.06385 0.83670 -0.13700
C 	C 	0.63391 0.05276 0.87145 0.13500
N 	N 	0.63192 0.06768 0.91720 -0.14200
C 	C 	0.64955 0.09352 0.92849 0.13600
N 	N 	0.66922 0.10452 0.89377 -0.13100
C 	C 	0.63503 0.11075 0.38014 0.14600
N 	N 	0.60959 0.09393 0.38985 -0.14000
C 	C 	0.59359 0.08083 0.35188 0.13500
N 	N 	0.60234 0.08570 0.30401 -0.14200
C 	C 	0.62779 0.10234 0.29410 0.13600
N 	N 	0.64442 0.11426 0.33213 -0.12800
Cd	Cd	0.10441 0.17463 0.23311 1.24500
Cd	Cd	0.09031 0.12450 0.33480 1.19100
O 	O 	0.14219 0.21778 0.24042 -0.30500
O 	O 	0.11818 0.20855 0.17133 -0.32400
C 	C 	0.13601 0.22760 0.19637 0.28600
O 	O 	0.07349 0.13665 0.20284 -0.36600
O 	O 	0.05386 0.12480 0.27942 -0.41100
C 	C 	0.05711 0.11788 0.23148 0.29300
C 	C 	0.14451 0.12238 0.24886 0.30100
O 	O 	0.08776 0.18032 0.32823 -0.43800
O 	O 	0.14875 0.13442 0.20485 -0.27500
O 	O 	0.12643 0.13905 0.27837 -0.51900
C 	C 	0.06475 0.19657 0.31382 0.29600
O 	O 	0.06425 0.20295 0.26675 -0.33100
Cd	Cd	0.13508 0.23279 0.01115 1.24400
Cd	Cd	0.14249 0.18370 0.90094 1.19400
O 	O 	0.16210 0.28460 0.01498 -0.29900
O 	O 	0.12957 0.27178 0.07310 -0.32000
C 	C 	0.14743 0.29366 0.05527 0.28500
O 	O 	0.10012 0.19422 0.01971 -0.36200
O 	O 	0.12450 0.15789 0.96731 -0.41200
C 	C 	0.10028 0.16681 0.99274 0.28900
C 	C 	0.10311 0.25061 0.92555 0.29900
O 	O 	0.17704 0.20300 0.95752 -0.43800
O 	O 	0.09295 0.26521 0.96629 -0.27000
O 	O 	0.12739 0.23390 0.93030 -0.51300
C 	C 	0.18503 0.18862 0.99750 0.30000
O 	O 	0.17178 0.19858 0.03902 -0.33900
C 	C 	0.11268 0.47923 0.87647 0.14700
N 	N 	0.12566 0.47963 0.83021 -0.13800
C 	C 	0.11167 0.49424 0.79262 0.13400
N 	N 	0.08476 0.50861 0.80145 -0.14300
C 	C 	0.07176 0.50832 0.84749 0.13600
N 	N 	0.08556 0.49336 0.88480 -0.13000
C 	C 	0.09979 0.42758 0.35567 0.14500
N 	N 	0.07311 0.43908 0.34107 -0.13800
C 	C 	0.05728 0.46006 0.37125 0.13500
N 	N 	0.06799 0.46932 0.41636 -0.14200
C 	C 	0.09452 0.45768 0.43144 0.13500
N 	N 	0.11054 0.43698 0.40083 -0.12900
Cd	Cd	0.18520 0.92967 0.75483 1.24500
Cd	Cd	0.14038 0.94153 0.86621 1.16500
O 	O 	0.23398 0.90357 0.76241 -0.30400
O 	O 	0.21618 0.91432 0.68906 -0.32400
C 	C 	0.23763 0.90209 0.71434 0.29000
O 	O 	0.14230 0.94865 0.72871 -0.37300
O 	O 	0.11495 0.95978 0.80058 -0.40800
C 	C 	0.12451 0.96822 0.75587 0.29500
C 	C 	0.15506 0.87617 0.79887 0.30200
O 	O 	0.18642 0.96227 0.84005 -0.45100
O 	O 	0.16331 0.86903 0.75286 -0.27700
O 	O 	0.16403 0.90406 0.81610 -0.53800
C 	C 	0.19293 0.98810 0.81542 0.28600
O 	O 	0.19910 0.98310 0.76815 -0.33700
Cd	Cd	0.14415 0.90324 0.50595 1.24300
Cd	Cd	0.10094 0.89333 0.39783 1.19200
O 	O 	0.19068 0.87217 0.51241 -0.29900
O 	O 	0.17807 0.91033 0.56769 -0.32100
C 	C 	0.19797 0.88922 0.55183 0.28900
O 	O 	0.11040 0.94314 0.51351 -0.36400
O 	O 	0.07650 0.91879 0.46183 -0.41000
C 	C 	0.08634 0.94471 0.48621 0.28900
C 	C 	0.16418 0.93289 0.41627 0.29800
O 	O 	0.11489 0.85722 0.45764 -0.43600
O 	O 	0.17702 0.94518 0.45575 -0.26800
O 	O 	0.14740 0.90775 0.42405 -0.51200
C 	C 	0.10062 0.85132 0.49921 0.29800
O 	O 	0.11021 0.86689 0.53882 -0.34000
C 	C 	0.41721 0.88031 0.85894 0.14400
N 	N 	0.41192 0.87088 0.90635 -0.12800
C 	C 	0.43225 0.87730 0.94211 0.13600
N 	N 	0.45869 0.89136 0.92969 -0.14200
C 	C 	0.46430 0.90018 0.88216 0.13400
N 	N 	0.44355 0.89463 0.84688 -0.14000
C 	C 	0.38545 0.89141 0.38921 0.14400
N 	N 	0.38517 0.87575 0.34376 -0.13900
C 	C 	0.40358 0.88565 0.30632 0.13400
N 	N 	0.42356 0.90972 0.31525 -0.14200
C 	C 	0.42458 0.92468 0.36087 0.13500
N 	N 	0.40485 0.91629 0.39728 -0.13100
C 	C 	0.42389 0.87349 0.99513 -0.04200
C 	C 	0.42467 0.90023 0.02957 0.11000
C 	C 	0.42079 0.89500 0.08060 -0.08300
C 	C 	0.41311 0.86426 0.09749 -0.00200
C 	C 	0.40981 0.83798 0.06268 0.07700
C 	C 	0.41588 0.84274 0.01182 -0.04900
N 	N 	0.42770 0.93105 0.01373 -0.19800
H 	H 	0.42255 0.91525 0.10720 0.06000
C 	C 	0.40730 0.86049 0.15161 -0.00300
N 	N 	0.40111 0.80821 0.07775 -0.19400
H 	H 	0.41455 0.82242 0.98529 0.06000
C 	C 	0.38053 0.87263 0.17281 -0.08400
C 	C 	0.37759 0.87864 0.22449 0.10800
C 	C 	0.40157 0.87101 0.25560 -0.04700
C 	C 	0.42672 0.85495 0.23485 -0.04900
C 	C 	0.43010 0.85010 0.18301 0.07500
H 	H 	0.36268 0.87949 0.14872 0.06500
N 	N 	0.35218 0.89270 0.24358 -0.19900
H 	H 	0.44464 0.84815 0.25886 0.05600
N 	N 	0.45548 0.83613 0.16368 -0.19400
H 	H 	0.33487 0.89866 0.22013 0.09900
H 	H 	0.34915 0.89767 0.28164 0.10300
H 	H 	0.47246 0.82917 0.18711 0.09300
H 	H 	0.45844 0.83154 0.12547 0.09500
H 	H 	0.39901 0.78891 0.05186 0.09800
H 	H 	0.39613 0.80395 0.11509 0.09800
H 	H 	0.42542 0.93636 0.97633 0.10400
H 	H 	0.43018 0.95041 0.03941 0.09400
C 	C 	0.36159 0.88510 0.42660 -0.03700
C 	C 	0.36767 0.88528 0.47801 0.12500
C 	C 	0.34407 0.88621 0.51314 -0.06800
C 	C 	0.31445 0.88527 0.49753 0.01800
C 	C 	0.30848 0.88202 0.44632 0.09400
C 	C 	0.33196 0.88227 0.41122 -0.03900
H 	H 	0.34876 0.88758 0.55255 0.09200
C 	C 	0.28971 0.88978 0.53434 0.02400
H 	H 	0.32707 0.88137 0.37189 0.06900
C 	C 	0.27516 0.91983 0.53826 -0.07400
C 	C 	0.24508 0.92145 0.55322 0.15200
C 	C 	0.22962 0.89269 0.56452 -0.07200
C 	C 	0.24616 0.86438 0.57143 -0.01300
C 	C 	0.27619 0.86275 0.55599 0.08900
H 	H 	0.28629 0.94134 0.52506 0.09000
H 	H 	0.23497 0.84272 0.58388 0.07100
Br	Br	0.26828 0.87774 0.42359 -0.20100
Br	Br	0.40775 0.88170 0.50094 -0.21200
Br	Br	0.22508 0.96258 0.55362 -0.17900
Br	Br	0.29761 0.82283 0.56097 -0.18600
C 	C 	0.26632 0.89221 0.69144 -0.08400
C 	C 	0.28828 0.91595 0.68312 0.14000
C 	C 	0.31816 0.90902 0.69254 -0.08400
C 	C 	0.32576 0.87893 0.71151 0.02900
C 	C 	0.30509 0.85332 0.70773 0.09100
C 	C 	0.27542 0.86002 0.69654 -0.01400
H 	H 	0.33462 0.92826 0.69152 0.08500
C 	C 	0.34918 0.87801 0.74921 0.01500
H 	H 	0.25884 0.84095 0.69861 0.07300
C 	C 	0.34285 0.89070 0.79735 -0.07200
C 	C 	0.36488 0.89188 0.83330 0.12300
C 	C 	0.39327 0.87839 0.82213 -0.03700
C 	C 	0.39953 0.86535 0.77399 -0.04000
C 	C 	0.37779 0.86567 0.73729 0.09700
H 	H 	0.32095 0.90069 0.80634 0.08700
H 	H 	0.42146 0.85552 0.76483 0.07300
Br	Br	0.31593 0.81018 0.72462 -0.18000
Br	Br	0.27729 0.95933 0.66788 -0.20300
Br	Br	0.35655 0.91505 0.89536 -0.21900
Br	Br	0.38785 0.85017 0.67086 -0.18700
C 	C 	0.12355 0.49076 0.74100 -0.04700
C 	C 	0.12297 0.51726 0.70897 0.10800
C 	C 	0.12336 0.51137 0.65720 -0.08400
C 	C 	0.12594 0.47965 0.63723 -0.00400
C 	C 	0.13186 0.45395 0.66915 0.07800
C 	C 	0.13012 0.45964 0.72099 -0.05100
N 	N 	0.12222 0.54827 0.72774 -0.19900
H 	H 	0.12056 0.53135 0.63253 0.06000
C 	C 	0.11807 0.47308 0.58454 -0.00200
N 	N 	0.13844 0.42374 0.65029 -0.19400
H 	H 	0.13216 0.43951 0.74560 0.05900
C 	C 	0.13874 0.48051 0.54664 -0.08300
C 	C 	0.13131 0.47652 0.49624 0.10900
C 	C 	0.10321 0.46309 0.48375 -0.04300
C 	C 	0.08284 0.45502 0.52173 -0.04800
C 	C 	0.08961 0.46073 0.57197 0.07700
H 	H 	0.16038 0.49032 0.55640 0.06300
N 	N 	0.15075 0.48663 0.46036 -0.19800
H 	H 	0.06137 0.44473 0.51211 0.05900
N 	N 	0.06854 0.45479 0.60781 -0.19300
H 	H 	0.17181 0.49541 0.46989 0.09900
H 	H 	0.14478 0.48722 0.42309 0.10400
H 	H 	0.04791 0.44487 0.59814 0.09300
H 	H 	0.07197 0.46074 0.64528 0.09500
H 	H 	0.14168 0.40459 0.67407 0.10000
H 	H 	0.14140 0.41924 0.61202 0.10200
H 	H 	0.12483 0.55340 0.76572 0.10400
H 	H 	0.12050 0.56771 0.70401 0.09600
C 	C 	0.23378 0.12575 0.93651 -0.04200
C 	C 	0.21532 0.09862 0.94383 0.01700
C 	C 	0.19436 0.09923 0.98372 -0.04200
C 	C 	0.18765 0.12885 0.00916 0.02100
C 	C 	0.20149 0.15762 0.99348 -0.09200
C 	C 	0.22702 0.15533 0.96197 0.01700
C 	C 	0.21447 0.07188 0.90527 0.02100
C 	C 	0.17935 0.06962 0.99748 0.10300
C 	C 	0.24548 0.18367 0.95440 0.08600
C 	C 	0.22943 0.04248 0.91275 -0.03900
C 	C 	0.22416 0.01533 0.88092 0.02200
C 	C 	0.20376 0.01769 0.84184 -0.08500
C 	C 	0.19258 0.04830 0.82994 0.02200
C 	C 	0.19703 0.07518 0.86261 -0.04500
C 	C 	0.24988 0.04013 0.95352 0.10500
C 	C 	0.17748 0.05236 0.78338 0.08500
C 	C 	0.24064 0.98553 0.88691 0.08800
C 	C 	0.18322 0.10604 0.85299 0.09700
C 	C 	0.25880 0.12349 0.90148 0.10200
C 	C 	0.16622 0.12985 0.05038 0.10400
N 	N 	0.25381 0.96176 0.89166 -0.09600
N 	N 	0.26618 0.03829 0.98608 -0.10300
N 	N 	0.16555 0.05567 0.74615 -0.09800
N 	N 	0.17221 0.13066 0.84526 -0.18400
N 	N 	0.16754 0.04584 0.00826 -0.11400
N 	N 	0.14910 0.13070 0.08328 -0.09000
N 	N 	0.26021 0.20631 0.94835 -0.09600
N 	N 	0.27876 0.12166 0.87348 -0.10300
C 	C 	0.12555 0.45901 0.91496 -0.03700
C 	C 	0.12495 0.46937 0.96561 0.12400
C 	C 	0.13103 0.44722 0.00244 -0.07100
C 	C 	0.13890 0.41516 0.98914 0.01900
C 	C 	0.14259 0.40586 0.93845 0.09600
C 	C 	0.13569 0.42765 0.90170 -0.04000
H 	H 	0.12915 0.45478 0.04140 0.09000
C 	C 	0.13922 0.39045 0.02757 0.02700
H 	H 	0.13705 0.41973 0.86285 0.07100
C 	C 	0.11299 0.37323 0.03792 -0.07200
C 	C 	0.11452 0.34238 0.05773 0.14700
C 	C 	0.14265 0.32849 0.06634 -0.07400
C 	C 	0.16783 0.34877 0.06658 -0.00700
C 	C 	0.16639 0.37950 0.04608 0.10000
H 	H 	0.09167 0.38264 0.02682 0.08600
H 	H 	0.18923 0.33924 0.07705 0.07900
Br	Br	0.15607 0.36305 0.91871 -0.19900
Br	Br	0.11758 0.51393 0.98505 -0.21200
Br	Br	0.07816 0.31889 0.06883 -0.18600
Br	Br	0.20198 0.40503 0.04019 -0.18100
C 	C 	0.13640 0.03941 0.29740 -0.03200
C 	C 	0.15723 0.02072 0.26970 0.02400
C 	C 	0.17370 0.03549 0.23124 -0.03500
C 	C 	0.17130 0.06944 0.22526 0.03200
C 	C 	0.15310 0.08833 0.25934 -0.08900
C 	C 	0.13986 0.07293 0.30020 -0.00900
C 	C 	0.16794 0.99012 0.29110 0.02600
C 	C 	0.19278 0.01592 0.19804 0.10800
C 	C 	0.13978 0.08889 0.34882 -0.01900
C 	C 	0.15009 0.96193 0.28854 -0.04000
C 	C 	0.15265 0.93840 0.32527 0.01100
C 	C 	0.17177 0.94451 0.36549 -0.08900
C 	C 	0.19483 0.96743 0.35958 0.03300
C 	C 	0.19229 0.99119 0.32358 -0.03900
C 	C 	0.12893 0.95752 0.24892 0.09600
C 	C 	0.22168 0.96539 0.38837 0.10600
C 	C 	0.14086 0.90616 0.31626 0.00100
C 	C 	0.21343 0.01776 0.32205 0.10800
C 	C 	0.10881 0.02499 0.31405 0.07400
C 	C 	0.18951 0.08492 0.18768 0.10200
N 	N 	0.13161 0.88031 0.30855 -0.15300
N 	N 	0.11202 0.95408 0.21727 -0.10100
N 	N 	0.24313 0.96377 0.41135 -0.08700
N 	N 	0.23029 0.03900 0.32083 -0.10400
N 	N 	0.20801 0.00026 0.17154 -0.10400
N 	N 	0.20410 0.09719 0.15763 -0.09300
N 	N 	0.13987 0.10155 0.38792 -0.13600
N 	N 	0.08659 0.01318 0.32659 -0.11800
C 	C 	0.11649 0.40426 0.32300 -0.03700
C 	C 	0.12329 0.37299 0.33918 0.12200
C 	C 	0.13381 0.34924 0.30479 -0.07000
C 	C 	0.13635 0.35582 0.25399 0.01600
C 	C 	0.13158 0.38757 0.23845 0.09800
C 	C 	0.12202 0.41170 0.27304 -0.04200
H 	H 	0.13788 0.32490 0.31700 0.08800
C 	C 	0.13785 0.32833 0.21739 0.02800
H 	H 	0.11754 0.43589 0.26060 0.07300
C 	C 	0.11114 0.31389 0.20222 -0.07900
C 	C 	0.11042 0.28097 0.18822 0.14900
C 	C 	0.13710 0.26261 0.18719 -0.08000
C 	C 	0.16441 0.27893 0.19255 -0.01500
C 	C 	0.16487 0.31168 0.20817 0.08400
H 	H 	0.09043 0.32733 0.20638 0.09200
H 	H 	0.18515 0.26547 0.18915 0.07000
Br	Br	0.13694 0.39815 0.16997 -0.20700
Br	Br	0.11559 0.36111 0.40679 -0.20800
Br	Br	0.07235 0.26111 0.17622 -0.19100
Br	Br	0.20234 0.33272 0.21977 -0.19300
C 	C 	0.44599 0.95120 0.36982 -0.04600
C 	C 	0.46927 0.94832 0.40421 0.11100
C 	C 	0.49051 0.97320 0.40878 -0.08500
C 	C 	0.49031 0.99945 0.37698 -0.00400
C 	C 	0.46659 0.00277 0.34360 0.07500
C 	C 	0.44440 0.97881 0.34098 -0.05000
N 	N 	0.47221 0.92120 0.43112 -0.19900
H 	H 	0.50852 0.97098 0.43473 0.06200
C 	C 	0.51724 0.02010 0.37350 -0.00300
N 	N 	0.46520 0.02862 0.31360 -0.19400
H 	H 	0.42629 0.98118 0.31525 0.05500
C 	C 	0.54223 0.00810 0.34660 -0.08400
C 	C 	0.56834 0.02662 0.34282 0.10700
C 	C 	0.56850 0.05886 0.36254 -0.04800
C 	C 	0.54383 0.07062 0.39066 -0.05000
C 	C 	0.51834 0.05124 0.39727 0.07500
H 	H 	0.54161 0.98386 0.32970 0.05900
N 	N 	0.59349 0.01293 0.32213 -0.19800
H 	H 	0.54430 0.09504 0.40690 0.05800
N 	N 	0.49501 0.06276 0.42589 -0.19400
H 	H 	0.59274 0.98985 0.30493 0.09200
H 	H 	0.61428 0.02402 0.32595 0.09700
H 	H 	0.49587 0.08597 0.44262 0.09600
H 	H 	0.47602 0.04873 0.43237 0.09800
H 	H 	0.44780 0.03061 0.28862 0.09300
H 	H 	0.48107 0.04712 0.31503 0.09500
H 	H 	0.45919 0.90063 0.42433 0.11600
H 	H 	0.48873 0.91993 0.45782 0.10300
C 	C 	0.49041 0.92044 0.87088 -0.04700
C 	C 	0.48957 0.95445 0.87982 0.10700
C 	C 	0.51560 0.97273 0.87257 -0.08400
C 	C 	0.54198 0.95794 0.85436 -0.00300
C 	C 	0.54231 0.92422 0.84254 0.07500
C 	C 	0.51660 0.90568 0.85184 -0.05000
N 	N 	0.46385 0.96969 0.89487 -0.20000
H 	H 	0.51533 0.99862 0.88105 0.06000
C 	C 	0.56952 0.97770 0.85109 -0.00400
N 	N 	0.56701 0.90964 0.82174 -0.19400
H 	H 	0.51696 0.87972 0.84407 0.05500
C 	C 	0.59088 0.97513 0.88806 -0.08500
C 	C 	0.61430 0.99760 0.89178 0.10800
C 	C 	0.61515 0.02424 0.85996 -0.04700
C 	C 	0.59528 0.02531 0.82049 -0.05000
C 	C 	0.57276 0.00184 0.81516 0.07600
H 	H 	0.58901 0.95587 0.91444 0.06000
N 	N 	0.63614 0.99319 0.92523 -0.19900
H 	H 	0.59671 0.04502 0.79485 0.05800
N 	N 	0.55436 0.00260 0.77566 -0.19400
H 	H 	0.63466 0.97430 0.95012 0.09500
H 	H 	0.65546 0.00736 0.92510 0.10700
H 	H 	0.55622 0.02113 0.75021 0.09500
H 	H 	0.53881 0.98421 0.76884 0.09700
H 	H 	0.56731 0.88461 0.81433 0.09500
H 	H 	0.58578 0.92304 0.81138 0.09600
H 	H 	0.44357 0.95730 0.89672 0.10200
H 	H 	0.46373 0.99463 0.90317 0.09400
C 	C 	0.64987 0.10697 0.98009 -0.04300
C 	C 	0.62292 0.11503 0.00606 0.10500
C 	C 	0.62279 0.11863 0.05820 -0.08300
C 	C 	0.64936 0.11617 0.08437 -0.00500
C 	C 	0.67681 0.11233 0.05779 0.08000
C 	C 	0.67677 0.10728 0.00583 -0.05300
N 	N 	0.59733 0.11984 0.98111 -0.19800
H 	H 	0.60190 0.12284 0.07852 0.06000
C 	C 	0.64775 0.11373 0.13928 -0.00300
N 	N 	0.70318 0.11338 0.08188 -0.19500
H 	H 	0.69758 0.10231 0.98569 0.07200
C 	C 	0.65026 0.08311 0.15989 -0.08300
C 	C 	0.64624 0.07935 0.21130 0.10700
C 	C 	0.63785 0.10644 0.24214 -0.04300
C 	C 	0.63666 0.13730 0.22199 -0.04900
C 	C 	0.64196 0.14132 0.17082 0.07800
H 	H 	0.65544 0.06214 0.13581 0.06100
N 	N 	0.65109 0.04991 0.23094 -0.19800
H 	H 	0.63105 0.15818 0.24599 0.06600
N 	N 	0.64165 0.17160 0.15234 -0.19400
H 	H 	0.65585 0.02967 0.20769 0.09400
H 	H 	0.65177 0.04721 0.26937 0.09800
H 	H 	0.63663 0.19173 0.17567 0.09900
H 	H 	0.64720 0.17559 0.11511 0.09800
H 	H 	0.72330 0.10946 0.06220 0.10300
H 	H 	0.70404 0.11919 0.11994 0.10000
H 	H 	0.59741 0.12071 0.94232 0.10000
H 	H 	0.57725 0.12441 0.00060 0.09300
C 	C 	0.98436 0.24765 0.49327 -0.04100
C 	C 	0.98307 0.26342 0.44774 0.01700
C 	C 	0.95631 0.27912 0.43668 -0.04000
C 	C 	0.92936 0.26824 0.45859 0.01800
C 	C 	0.93028 0.24341 0.49339 -0.08800
C 	C 	0.95761 0.23720 0.51622 0.02000
C 	C 	0.00297 0.25168 0.40592 0.02700
C 	C 	0.95625 0.30345 0.39917 0.10300
C 	C 	0.95813 0.22007 0.56229 0.10400
C 	C 	0.99372 0.22511 0.37594 -0.04900
C 	C 	0.01502 0.20367 0.35520 0.02700
C 	C 	0.04479 0.21387 0.34996 -0.08800
C 	C 	0.05374 0.24360 0.37292 0.03000
C 	C 	0.03298 0.26189 0.40275 -0.03900
C 	C 	0.96311 0.22273 0.36039 0.05300
C 	C 	0.08394 0.25539 0.36552 0.09200
C 	C 	0.00708 0.17007 0.34575 0.04200
C 	C 	0.04220 0.29137 0.42887 0.10900
C 	C 	0.01294 0.24067 0.51445 0.10800
C 	C 	0.90101 0.28131 0.44415 0.08700
N 	N 	0.00052 0.14318 0.33896 -0.11900
N 	N 	0.93871 0.22123 0.34739 -0.18700
N 	N 	0.10804 0.26481 0.35953 -0.09600
N 	N 	0.04951 0.31493 0.44980 -0.09800
N 	N 	0.95623 0.32291 0.36915 -0.11000
N 	N 	0.87833 0.29175 0.43259 -0.10000
N 	N 	0.95851 0.20633 0.59908 -0.09300
N 	N 	0.03583 0.23515 0.53136 -0.10100
C 	C 	0.97337 0.04548 0.46447 -0.03700
C 	C 	0.00208 0.05097 0.48360 0.02200
C 	C 	0.00914 0.08181 0.50464 -0.03900
C 	C 	0.98774 0.10694 0.50573 0.02100
C 	C 	0.95830 0.10052 0.49019 -0.07300
C 	C 	0.95082 0.06898 0.47260 0.02100
C 	C 	0.02421 0.02365 0.48475 0.02500
C 	C 	0.03865 0.08801 0.52385 0.09300
C 	C 	0.91989 0.06011 0.46556 0.08100
C 	C 	0.05105 0.02468 0.45603 -0.04200
C 	C 	0.07296 0.00046 0.46086 0.02200
C 	C 	0.06703 0.97378 0.49084 -0.07600
C 	C 	0.04121 0.97371 0.52165 0.02600
C 	C 	0.01919 0.99772 0.51700 -0.03800
C 	C 	0.05619 0.05076 0.42203 0.11200
C 	C 	0.03860 0.95097 0.56132 0.09400
C 	C 	0.10271 0.00477 0.43984 0.07200
C 	C 	0.99083 0.99482 0.54353 0.10200
C 	C 	0.96719 0.01600 0.43567 0.10100
C 	C 	0.99610 0.13917 0.52316 0.08800
N 	N 	0.12658 0.00818 0.42354 -0.10600
N 	N 	0.06024 0.07169 0.39509 -0.18100
N 	N 	0.03640 0.93313 0.59345 -0.09200
N 	N 	0.96815 0.99231 0.56448 -0.10000
N 	N 	0.06227 0.09306 0.53881 -0.11000
N 	N 	0.00323 0.16477 0.53705 -0.09900
N 	N 	0.89523 0.05274 0.46010 -0.10200
N 	N 	0.96220 0.99247 0.41271 -0.12300
C 	C 	0.65434 0.12146 0.42157 -0.03500
C 	C 	0.67236 0.14941 0.41802 0.12400
C 	C 	0.69541 0.15470 0.45157 -0.07100
C 	C 	0.69942 0.13362 0.49075 0.01600
C 	C 	0.67855 0.10873 0.49874 0.10200
C 	C 	0.65666 0.10214 0.46347 -0.04000
H 	H 	0.71043 0.17502 0.44688 0.08400
C 	C 	0.72687 0.13614 0.52010 0.03000
H 	H 	0.64202 0.08148 0.46796 0.07400
C 	C 	0.73170 0.16404 0.55026 -0.07600
C 	C 	0.76053 0.17197 0.56559 0.14500
C 	C 	0.78453 0.15137 0.55199 -0.08100
C 	C 	0.77869 0.12093 0.52960 -0.01400
C 	C 	0.75045 0.11392 0.51113 0.09200
H 	H 	0.71347 0.18070 0.55873 0.09300
H 	H 	0.79698 0.10437 0.52091 0.08500
Br	Br	0.67980 0.08335 0.55723 -0.19000
Br	Br	0.66417 0.18216 0.37102 -0.21700
Br	Br	0.76711 0.21201 0.60199 -0.19800
Br	Br	0.74579 0.07636 0.46769 -0.19100
C 	C 	0.06170 0.09992 0.65942 -0.03700
C 	C 	0.05326 0.06724 0.66511 0.01900
C 	C 	0.02392 0.05746 0.65350 -0.04200
C 	C 	0.00268 0.08088 0.64108 0.01800
C 	C 	0.00961 0.11406 0.64672 -0.08300
C 	C 	0.03981 0.12330 0.64951 0.02000
C 	C 	0.07428 0.04391 0.68762 0.02500
C 	C 	0.01516 0.02385 0.65749 0.10000
C 	C 	0.04823 0.15669 0.64173 0.09900
C 	C 	0.07846 0.04477 0.73945 -0.03600
C 	C 	0.09759 0.02209 0.76061 0.02600
C 	C 	0.10843 0.99509 0.73139 -0.06700
C 	C 	0.10296 0.99376 0.67949 0.02600
C 	C 	0.08907 0.02017 0.65747 -0.03400
C 	C 	0.06272 0.06861 0.77097 0.10000
C 	C 	0.10882 0.96444 0.64968 0.10900
C 	C 	0.10711 0.02733 0.81150 0.07400
C 	C 	0.09250 0.02458 0.60453 0.10900
C 	C 	0.09259 0.10948 0.66492 0.10700
C 	C 	0.97471 0.07100 0.61951 0.08500
N 	N 	0.11478 0.03152 0.85205 -0.13300
N 	N 	0.05000 0.08771 0.79578 -0.13900
N 	N 	0.11343 0.94099 0.62592 -0.10100
N 	N 	0.09555 0.02838 0.56231 -0.10400
N 	N 	0.00815 0.99701 0.66079 -0.10300
N 	N 	0.95236 0.06338 0.60186 -0.09600
N 	N 	0.05492 0.18337 0.63549 -0.09300
N 	N 	0.11727 0.11709 0.66936 -0.10200
C 	C 	0.99888 0.24949 0.75479 -0.04400
C 	C 	0.00881 0.24045 0.80176 0.02000
C 	C 	0.98945 0.22360 0.83395 -0.05500
C 	C 	0.96157 0.21280 0.81693 -0.01500
C 	C 	0.95376 0.21759 0.76719 -0.10100
C 	C 	0.97035 0.23991 0.73910 0.03100
C 	C 	0.03935 0.24916 0.81797 0.02200
C 	C 	0.99867 0.21652 0.88383 0.07600
C 	C 	0.95675 0.25596 0.69824 0.10200
C 	C 	0.04436 0.27894 0.84370 -0.03800
C 	C 	0.07003 0.28280 0.87252 0.03400
C 	C 	0.08968 0.25640 0.87670 -0.09400
C 	C 	0.08894 0.23130 0.84010 0.01400
C 	C 	0.06254 0.22602 0.81368 -0.04100
C 	C 	0.02249 0.30474 0.84245 0.10700
C 	C 	0.11646 0.21657 0.82189 -0.00100
C 	C 	0.07621 0.31357 0.89787 0.10300
C 	C 	0.05859 0.19622 0.78455 0.08200
C 	C 	0.01820 0.26795 0.72234 0.11000
C 	C 	0.94084 0.19698 0.85045 0.03800
N 	N 	0.08105 0.33813 0.91817 -0.09100
N 	N 	0.00501 0.32531 0.84142 -0.10600
N 	N 	0.13844 0.20494 0.80658 -0.15600
N 	N 	0.05541 0.17233 0.76147 -0.12800
N 	N 	0.00609 0.21087 0.92358 -0.10900
N 	N 	0.92430 0.18433 0.87719 -0.10400
N 	N 	0.94588 0.26900 0.66578 -0.09400
N 	N 	0.03365 0.28268 0.69644 -0.10400
C 	C 	0.82226 0.14338 0.67960 -0.07900
C 	C 	0.80883 0.11359 0.66598 0.14700
C 	C 	0.77938 0.10734 0.68134 -0.08300
C 	C 	0.76361 0.13028 0.71127 0.03000
C 	C 	0.77541 0.16170 0.71792 0.09000
C 	C 	0.80458 0.16822 0.70154 -0.01000
H 	H 	0.76980 0.08358 0.67395 0.09000
C 	C 	0.73963 0.11904 0.74509 0.01500
H 	H 	0.81437 0.19174 0.70996 0.07600
C 	C 	0.74731 0.10496 0.78981 -0.07100
C 	C 	0.72516 0.09483 0.82323 0.12400
C 	C 	0.69487 0.09922 0.81239 -0.03700
C 	C 	0.68712 0.11271 0.76719 -0.03900
C 	C 	0.70937 0.12257 0.73346 0.10000
H 	H 	0.77061 0.10184 0.79854 0.08400
H 	H 	0.66383 0.11575 0.75842 0.07300
Br	Br	0.75309 0.19506 0.75356 -0.18400
Br	Br	0.83130 0.07989 0.63137 -0.20200
Br	Br	0.73674 0.07372 0.88245 -0.22100
Br	Br	0.69806 0.14101 0.67207 -0.18900
C 	C 	0.88509 0.54229 0.37554 -0.04900
C 	C 	0.89051 0.52416 0.33054 0.10900
C 	C 	0.91775 0.50764 0.32328 -0.08500
C 	C 	0.93800 0.50599 0.36217 -0.00300
C 	C 	0.93037 0.51988 0.40961 0.07500
C 	C 	0.90414 0.53818 0.41573 -0.05200
N 	N 	0.86914 0.52109 0.29560 -0.19900
H 	H 	0.92299 0.49563 0.28764 0.06300
C 	C 	0.96806 0.49213 0.35195 -0.00200
N 	N 	0.94834 0.51615 0.44919 -0.19400
H 	H 	0.89926 0.55036 0.45134 0.05500
C 	C 	0.99186 0.51328 0.34233 -0.08500
C 	C 	0.02149 0.50261 0.34488 0.10900
C 	C 	0.02725 0.47022 0.35736 -0.04800
C 	C 	0.00351 0.44830 0.36198 -0.04800
C 	C 	0.97386 0.45892 0.35919 0.07500
H 	H 	0.98731 0.53848 0.33509 0.06200
N 	N 	0.04425 0.52351 0.33538 -0.19900
H 	H 	0.00807 0.42320 0.36985 0.06100
N 	N 	0.95114 0.43736 0.36460 -0.19400
H 	H 	0.03982 0.54766 0.32763 0.09700
H 	H 	0.06644 0.51579 0.33407 0.10100
H 	H 	0.95561 0.41306 0.37133 0.10000
H 	H 	0.92892 0.44428 0.36105 0.09700
H 	H 	0.94295 0.52733 0.48371 0.08900
H 	H 	0.96733 0.50153 0.44655 0.09400
H 	H 	0.84713 0.52811 0.30365 0.10500
H 	H 	0.87387 0.50930 0.26129 0.09800
C 	C 	0.91327 0.62115 0.83903 -0.04500
C 	C 	0.91257 0.59721 0.87558 0.11000
C 	C 	0.93784 0.57775 0.88170 -0.08400
C 	C 	0.96342 0.58139 0.85140 -0.00200
C 	C 	0.96382 0.60478 0.81401 0.07600
C 	C 	0.93871 0.62448 0.80834 -0.04800
N 	N 	0.88761 0.59232 0.90410 -0.19800
H 	H 	0.93750 0.55952 0.90985 0.06400
C 	C 	0.98936 0.55995 0.85821 -0.00500
N 	N 	0.98819 0.60852 0.78360 -0.19400
H 	H 	0.93913 0.64280 0.78032 0.06100
C 	C 	0.99080 0.53011 0.83174 -0.08400
C 	C 	0.01695 0.51142 0.83107 0.10700
C 	C 	0.04228 0.52331 0.85637 -0.04400
C 	C 	0.04006 0.55185 0.88604 -0.05100
C 	C 	0.01371 0.57027 0.88748 0.08100
H 	H 	0.97174 0.52177 0.81069 0.06000
N 	N 	0.01752 0.48203 0.80655 -0.19800
H 	H 	0.05924 0.56037 0.90664 0.06700
N 	N 	0.01207 0.59796 0.91636 -0.19400
H 	H 	0.99910 0.47395 0.78645 0.09300
H 	H 	0.03573 0.46641 0.80878 0.10100
H 	H 	0.03041 0.60580 0.93689 0.10300
H 	H 	0.99247 0.61158 0.91961 0.10300
H 	H 	0.98827 0.62595 0.75627 0.09400
H 	H 	0.00721 0.59420 0.78652 0.09600
H 	H 	0.86782 0.60480 0.89827 0.10400
H 	H 	0.88755 0.57511 0.93177 0.10000
C 	C 	0.83847 0.66934 0.73464 -0.04800
C 	C 	0.84645 0.69304 0.69969 0.11100
C 	C 	0.84012 0.68738 0.64918 -0.08500
C 	C 	0.82699 0.65818 0.63290 -0.00200
C 	C 	0.81591 0.63638 0.66843 0.07500
C 	C 	0.82135 0.64252 0.71916 -0.04900
N 	N 	0.86097 0.72068 0.71396 -0.20100
H 	H 	0.84741 0.70472 0.62200 0.06400
C 	C 	0.83065 0.64788 0.57971 -0.00300
N 	N 	0.80076 0.60919 0.65405 -0.19400
H 	H 	0.81411 0.62510 0.74625 0.05500
C 	C 	0.85850 0.63609 0.56270 -0.08200
C 	C 	0.86335 0.62702 0.51245 0.10500
C 	C 	0.83907 0.62670 0.47963 -0.04300
C 	C 	0.81141 0.63940 0.49612 -0.05000
C 	C 	0.80713 0.65071 0.54576 0.07700
H 	H 	0.87675 0.63496 0.58842 0.06000
N 	N 	0.89151 0.61992 0.49554 -0.19900
H 	H 	0.79304 0.64001 0.47058 0.06800
N 	N 	0.78042 0.66384 0.56059 -0.19400
H 	H 	0.90896 0.61825 0.52047 0.09000
H 	H 	0.89672 0.61812 0.45748 0.09900
H 	H 	0.76309 0.66545 0.53541 0.09900
H 	H 	0.77667 0.67286 0.59695 0.09700
H 	H 	0.79333 0.59280 0.68045 0.09400
H 	H 	0.79566 0.60436 0.61684 0.09600
H 	H 	0.86501 0.72638 0.75125 0.11900
H 	H 	0.86770 0.73737 0.68754 0.10300
C 	C 	0.06116 0.03565 0.04405 -0.04100
C 	C 	0.03646 0.05333 0.02811 0.02200
C 	C 	0.00873 0.03762 0.02230 -0.03600
C 	C 	0.00654 0.00375 0.02807 0.02900
C 	C 	0.03239 0.98545 0.03686 -0.07900
C 	C 	0.05952 0.00162 0.04650 0.02100
C 	C 	0.04097 0.08712 0.01111 0.02300
C 	C 	0.98288 0.05599 0.00821 0.10900
C 	C 	0.08606 0.98316 0.05663 0.06500
C 	C 	0.05401 0.09223 0.96397 -0.04200
C 	C 	0.06982 0.12121 0.95560 0.02100
C 	C 	0.07476 0.14350 0.99590 -0.07800
C 	C 	0.05739 0.14047 0.04039 0.02700
C 	C 	0.03851 0.11332 0.04555 -0.04000
C 	C 	0.05132 0.06759 0.92464 0.09500
C 	C 	0.05881 0.16469 0.08052 0.10300
C 	C 	0.08027 0.12852 0.90577 0.04600
C 	C 	0.01323 0.11484 0.07976 0.10800
C 	C 	0.08863 0.05245 0.05588 0.10100
C 	C 	0.97805 0.98751 0.02244 0.09200
N 	N 	0.08869 0.13444 0.86607 -0.14500
N 	N 	0.04899 0.04774 0.89352 -0.11400
N 	N 	0.05983 0.18398 0.11272 -0.09000
N 	N 	0.99254 0.11611 0.10622 -0.10700
N 	N 	0.96227 0.07067 0.99690 -0.10100
N 	N 	0.95532 0.97453 0.01795 -0.08800
N 	N 	0.10734 0.96856 0.06460 -0.11500
N 	N 	0.11047 0.06604 0.06531 -0.10000
C 	C 	0.99732 0.94736 0.81190 -0.03900
C 	C 	0.96663 0.95303 0.80631 0.02600
C 	C 	0.94571 0.93233 0.82891 -0.03700
C 	C 	0.95530 0.91040 0.86420 0.03300
C 	C 	0.98531 0.91086 0.87879 -0.08200
C 	C 	0.00679 0.92686 0.84923 0.02300
C 	C 	0.95661 0.98445 0.78702 0.02400
C 	C 	0.91432 0.93488 0.81787 0.10900
C 	C 	0.03834 0.92349 0.85847 0.05800
C 	C 	0.94546 0.98591 0.73860 -0.03800
C 	C 	0.93417 0.01533 0.72179 0.03100
C 	C 	0.93702 0.04417 0.75157 -0.09000
C 	C 	0.94733 0.04238 0.80062 0.02300
C 	C 	0.95741 0.01268 0.81809 -0.04000
C 	C 	0.94610 0.95725 0.70580 0.11200
C 	C 	0.94671 0.07098 0.83362 0.03300
C 	C 	0.91799 0.01534 0.67568 0.10600
C 	C 	0.96929 0.01118 0.86770 0.10300
C 	C 	0.01901 0.96432 0.78167 0.10700
C 	C 	0.93456 0.88732 0.88524 0.10100
N 	N 	0.90496 0.01513 0.63897 -0.08400
N 	N 	0.94664 0.93439 0.67964 -0.09900
N 	N 	0.94621 0.09376 0.85998 -0.15100
N 	N 	0.97889 0.00987 0.90717 -0.10800
N 	N 	0.88927 0.93695 0.80902 -0.10100
N 	N 	0.91803 0.86885 0.90200 -0.09300
N 	N 	0.06362 0.92109 0.86535 -0.22100
N 	N 	0.03644 0.97781 0.75765 -0.10700
C 	C 	0.10339 0.79814 0.99702 -0.03900
C 	C 	0.12168 0.82315 0.97878 0.00600
C 	C 	0.12617 0.85110 0.00964 -0.07000
C 	C 	0.10735 0.85648 0.05181 -0.00600
C 	C 	0.08195 0.83707 0.05753 -0.09800
C 	C 	0.08325 0.80523 0.03712 0.02500
C 	C 	0.12948 0.82389 0.92449 0.00600
C 	C 	0.14809 0.87519 0.99587 0.04900
C 	C 	0.06164 0.78142 0.05295 0.09600
C 	C 	0.10739 0.83191 0.89024 -0.06900
C 	C 	0.11589 0.84549 0.84460 -0.00400
C 	C 	0.14628 0.85066 0.83340 -0.10600
C 	C 	0.16809 0.83643 0.86282 0.02100
C 	C 	0.15958 0.82265 0.90834 -0.04100
C 	C 	0.07620 0.82577 0.90165 0.02100
C 	C 	0.19922 0.83703 0.84706 0.08800
C 	C 	0.09350 0.85455 0.80957 0.05400
C 	C 	0.18170 0.80821 0.93921 0.10800
C 	C 	0.10411 0.76623 0.97291 0.11000
C 	C 	0.11262 0.88309 0.08689 0.06600
N 	N 	0.07565 0.86176 0.78153 -0.09600
N 	N 	0.05131 0.82068 0.91068 -0.11400
N 	N 	0.22407 0.83754 0.83443 -0.09100
N 	N 	0.19936 0.79668 0.96391 -0.10200
N 	N 	0.16559 0.89445 0.98480 -0.14300
N 	N 	0.11687 0.90424 0.11522 -0.09500
N 	N 	0.04433 0.76240 0.06562 -0.09200
N 	N 	0.10470 0.74074 0.95359 -0.10300
C 	C 	0.92310 0.82536 0.06371 -0.07500
C 	C 	0.89905 0.83962 0.03949 0.14400
C 	C 	0.87779 0.81976 0.01615 -0.08100
C 	C 	0.88051 0.78594 0.01700 0.02900
C 	C 	0.90013 0.77252 0.05093 0.08700
C 	C 	0.92149 0.79230 0.07401 -0.01000
H 	H 	0.86128 0.83047 0.99289 0.08900
C 	C 	0.87149 0.76635 0.97283 0.01300
H 	H 	0.93902 0.78130 0.09477 0.08300
C 	C 	0.89010 0.76580 0.93017 -0.07100
C 	C 	0.88577 0.74274 0.89179 0.12400
C 	C 	0.86262 0.71985 0.89589 -0.03800
C 	C 	0.84236 0.72223 0.93644 -0.03900
C 	C 	0.84649 0.74571 0.97463 0.10100
H 	H 	0.90883 0.78237 0.92793 0.08600
H 	H 	0.82405 0.70517 0.93915 0.07400
Br	Br	0.90071 0.72669 0.06081 -0.18300
Br	Br	0.89685 0.88569 0.03263 -0.19400
Br	Br	0.91273 0.74171 0.83520 -0.22600
Br	Br	0.81795 0.74927 0.02871 -0.19400
C 	C 	0.98545 0.07333 0.20985 -0.03800
C 	C 	0.99649 0.04174 0.19951 0.02100
C 	C 	0.02692 0.03740 0.18625 -0.03600
C 	C 	0.04703 0.06352 0.19185 0.01700
C 	C 	0.03640 0.09427 0.20843 -0.07700
C 	C 	0.00541 0.09969 0.21316 0.03100
C 	C 	0.97818 0.01299 0.21335 0.02400
C 	C 	0.03794 0.00525 0.17237 0.10000
C 	C 	0.99413 0.13249 0.22039 0.09600
C 	C 	0.95685 0.99989 0.18057 -0.03500
C 	C 	0.94237 0.97038 0.19129 0.02000
C 	C 	0.94891 0.95413 0.23551 -0.07000
C 	C 	0.97151 0.96690 0.26682 0.02200
C 	C 	0.98398 0.99746 0.25787 -0.03700
C 	C 	0.94822 0.01792 0.13784 0.10500
C 	C 	0.98245 0.94857 0.30771 0.09300
C 	C 	0.92112 0.95673 0.15654 0.09200
C 	C 	0.00184 0.01369 0.29555 0.10300
C 	C 	0.95378 0.07850 0.21884 0.10500
C 	C 	0.07881 0.05809 0.18496 0.07400
N 	N 	0.90428 0.94582 0.12859 -0.08300
N 	N 	0.94115 0.03250 0.10402 -0.10000
N 	N 	0.99135 0.93442 0.34071 -0.11300
N 	N 	0.01600 0.02673 0.32561 -0.11400
N 	N 	0.04664 0.97949 0.16168 -0.10300
N 	N 	0.10417 0.05364 0.17958 -0.10200
N 	N 	0.98514 0.15868 0.22592 -0.10200
N 	N 	0.92849 0.08268 0.22587 -0.11100
C 	C 	0.82755 0.99315 0.32186 -0.05200
C 	C 	0.83762 0.01655 0.28826 0.01700
C 	C 	0.84167 0.00785 0.23735 -0.04300
C 	C 	0.83827 0.97523 0.22109 0.02300
C 	C 	0.83371 0.95103 0.25652 -0.10700
C 	C 	0.82491 0.96048 0.30561 -0.01100
C 	C 	0.84584 0.04968 0.30722 0.02500
C 	C 	0.85019 0.03223 0.20212 0.10400
C 	C 	0.81275 0.93668 0.33898 0.02700
C 	C 	0.87561 0.05656 0.31995 -0.04300
C 	C 	0.88214 0.08508 0.34781 0.03300
C 	C 	0.85869 0.10372 0.36926 -0.11900
C 	C 	0.82965 0.09954 0.35096 0.04000
C 	C 	0.82337 0.07280 0.31881 -0.04100
C 	C 	0.89882 0.03290 0.30884 0.09100
C 	C 	0.80605 0.12165 0.36746 0.08600
C 	C 	0.91279 0.09501 0.35484 0.01600
C 	C 	0.79365 0.06818 0.29967 0.11000
C 	C 	0.82098 0.00254 0.37345 0.08200
C 	C 	0.83667 0.96717 0.16834 0.09900
N 	N 	0.93733 0.10288 0.36019 -0.14900
N 	N 	0.91731 0.01389 0.30018 -0.12900
N 	N 	0.78721 0.13928 0.38074 -0.09400
N 	N 	0.76992 0.06446 0.28438 -0.10500
N 	N 	0.85704 0.05169 0.17404 -0.10200
N 	N 	0.83527 0.96084 0.12616 -0.08500
N 	N 	0.80306 0.91768 0.36562 -0.11400
N 	N 	0.81576 0.01010 0.41458 -0.09900
C 	C 	0.99289 0.85338 0.38602 -0.05300
C 	C 	0.98736 0.83758 0.43099 0.02400
C 	C 	0.95821 0.82689 0.44291 -0.04100
C 	C 	0.93469 0.83248 0.41009 0.02100
C 	C 	0.94084 0.84612 0.36338 -0.09800
C 	C 	0.97042 0.85519 0.35069 0.03100
C 	C 	0.01287 0.82990 0.46337 0.01800
C 	C 	0.95262 0.80934 0.48801 0.10200
C 	C 	0.97821 0.86435 0.30034 0.09400
C 	C 	0.01836 0.84922 0.50661 -0.03900
C 	C 	0.04705 0.84936 0.52687 0.02400
C 	C 	0.07092 0.83546 0.49882 -0.09100
C 	C 	0.06456 0.81157 0.46187 0.01200
C 	C 	0.03505 0.80792 0.44543 -0.04200
C 	C 	0.99531 0.87025 0.52815 0.10200
C 	C 	0.08816 0.79091 0.44118 0.08000
C 	C 	0.05105 0.85874 0.57863 0.10400
C 	C 	0.02782 0.78313 0.40817 0.09900
C 	C 	0.02207 0.86698 0.37544 0.11200
C 	C 	0.90451 0.82288 0.42344 0.07500
N 	N 	0.05433 0.86593 0.62015 -0.08800
N 	N 	0.97690 0.88709 0.54533 -0.10500
N 	N 	0.10702 0.77442 0.42464 -0.10000
N 	N 	0.02201 0.76334 0.37839 -0.10400
N 	N 	0.94818 0.79533 0.52402 -0.10700
N 	N 	0.88042 0.81522 0.43411 -0.10400
N 	N 	0.98454 0.87151 0.26019 -0.09400
N 	N 	0.04531 0.87785 0.36665 -0.20500
C 	C 	0.86107 0.77700 0.17669 -0.08200
C 	C 	0.88443 0.75753 0.19339 0.14600
C 	C 	0.87894 0.72521 0.20437 -0.07400
C 	C 	0.85064 0.71160 0.19705 0.03000
C 	C 	0.82911 0.72936 0.17198 0.09000
C 	C 	0.83426 0.76214 0.16249 -0.00700
H 	H 	0.89607 0.71136 0.22193 0.09100
C 	C 	0.84211 0.68224 0.22433 0.01800
H 	H 	0.81662 0.77656 0.14744 0.07700
C 	C 	0.82060 0.68482 0.26307 -0.07000
C 	C 	0.81800 0.66065 0.29816 0.12300
C 	C 	0.83912 0.63524 0.29769 -0.03700
C 	C 	0.85841 0.63084 0.25594 -0.04200
C 	C 	0.85925 0.65371 0.21862 0.09100
H 	H 	0.80634 0.70600 0.26661 0.08800
H 	H 	0.87336 0.61022 0.25314 0.07200
Br	Br	0.79238 0.70951 0.15181 -0.18400
Br	Br	0.92312 0.77537 0.20651 -0.21500
Br	Br	0.78363 0.66086 0.34223 -0.21600
Br	Br	0.88392 0.64570 0.16018 -0.19700
