data_crystal

_cell_length_a 23.39545
_cell_length_b 21.65009
_cell_length_c 118.03476
_cell_angle_alpha 89.97365
_cell_angle_beta  90.07191
_cell_angle_gamma 119.97208

_symmetry_space_group_name_	'P 1'
_symmetry_space_group_name_H-M	'P 1'

loop_
_symmetry_equiv_pos_as_xyz
  x,y,z

loop_
_atom_site_label
_atom_site_type_symbol
_atom_site_fract_x
_atom_site_fract_y
_atom_site_fract_z
_atom_site_charge
O 	O 	0.00091 0.03339 0.01697 -0.72300
H 	H 	0.00320 0.63869 0.63270 0.03700
H 	H 	0.00974 0.22744 0.27116 0.04100
C 	C 	0.00781 0.12228 0.20323 0.30400
N 	N 	0.01189 0.27387 0.15330 -0.10800
C 	C 	0.01408 0.15274 0.23452 0.28600
C 	C 	0.00505 0.10607 0.77640 -0.08800
N 	N 	0.00086 0.22074 0.87153 -0.10900
C 	C 	0.01880 0.19691 0.25420 0.00700
C 	C 	0.01689 0.54779 0.63489 -0.00300
C 	C 	0.00660 0.14781 0.75384 0.02800
C 	C 	0.01054 0.17228 0.77401 0.01900
C 	C 	0.01834 0.52480 0.39103 -0.01500
C 	C 	0.01156 0.19322 0.76276 -0.06500
C 	C 	0.01288 0.08764 0.78804 0.30900
O 	O 	0.01545 0.87051 0.81413 -0.35900
C 	C 	0.01869 0.51623 0.41153 -0.05500
H 	H 	0.02215 0.45085 0.63462 0.04000
H 	H 	0.01669 0.20862 0.78082 0.04200
Ni	Ni	0.02169 0.09327 0.02980 1.12100
C 	C 	0.02243 0.61644 0.50363 0.09800
H 	H 	0.01901 0.24582 0.76096 0.05000
C 	C 	0.01795 0.10571 0.82146 0.29200
O 	O 	0.02666 0.03055 0.22451 -0.71800
H 	H 	0.02754 0.03812 0.23275 0.14700
N 	N 	0.01975 0.73379 0.86151 -0.10700
H 	H 	0.00461 0.60733 0.37516 0.04400
C 	C 	0.02109 0.17514 0.74214 -0.00000
H 	H 	0.02366 0.89982 0.95859 0.05300
C 	C 	0.02342 0.94365 0.97493 0.02900
C 	C 	0.02625 0.97953 0.99507 0.29600
C 	C 	0.03487 0.26858 0.20644 0.09100
N 	N 	0.02949 0.36544 0.52320 -0.11000
Ni	Ni	0.03184 0.94572 0.22432 1.12500
C 	C 	0.03469 0.51518 0.51028 0.01900
C 	C 	0.03425 0.21982 0.82976 0.02600
O 	O 	0.03521 0.95197 0.00453 -0.36700
O 	O 	0.04237 0.14229 0.00165 -0.38700
H 	H 	0.04654 0.17157 0.25683 0.03300
C 	C 	0.04264 0.53901 0.65512 -0.06900
C 	C 	0.04079 0.15862 0.83074 -0.06800
N 	N 	0.04667 0.38478 0.83672 -0.10700
H 	H 	0.04518 0.05374 0.01361 0.15500
C 	C 	0.04574 0.85838 0.77092 0.01800
H 	H 	0.04642 0.80403 0.75571 0.04800
C 	C 	0.00346 0.48173 0.63043 -0.03800
C 	C 	0.04673 0.41459 0.51738 0.10000
C 	C 	0.04840 0.91645 0.78938 0.30800
C 	C 	0.05336 0.56112 0.53359 0.09800
C 	C 	0.05415 0.33590 0.83723 0.10200
C 	C 	0.04959 0.77516 0.85456 0.10300
C 	C 	0.05519 0.57463 0.50310 -0.03400
O 	O 	0.05402 0.06429 0.79009 -0.39100
O 	O 	0.05950 0.18396 0.02021 -0.38200
H 	H 	0.05626 0.61267 0.43158 0.05000
C 	C 	0.05673 0.92030 0.82137 0.29200
C 	C 	0.05129 0.26856 0.86892 0.10000
C 	C 	0.05294 0.92795 0.96593 -0.07100
C 	C 	0.05558 0.85258 0.83861 0.02400
N 	N 	0.06298 0.30072 0.21440 -0.10500
O 	O 	0.06087 0.16001 0.20948 -0.35800
C 	C 	0.05990 0.57725 0.64491 0.02900
O 	O 	0.06119 0.96976 0.03031 -0.35600
C 	C 	0.05865 0.24433 0.72107 -0.00000
Ni	Ni	0.06195 0.02924 0.80543 1.11400
O 	O 	0.06190 0.11184 0.81371 -0.37300
C 	C 	0.06361 0.27471 0.83789 -0.03700
C 	C 	0.05995 0.97655 0.98475 -0.09300
C 	C 	0.06826 0.47619 0.51008 -0.03600
O 	O 	0.07523 0.16431 0.23343 -0.36600
C 	C 	0.07316 0.83073 0.76333 -0.06400
H 	H 	0.07726 0.37821 0.71949 0.04700
C 	C 	0.07424 0.15124 0.84012 0.02000
C 	C 	0.07187 0.08398 0.84218 0.08200
N 	N 	0.06990 0.03033 0.84391 -0.10700
C 	C 	0.07966 0.18936 0.00949 0.28900
H 	H 	0.07703 0.52486 0.67127 0.03300
C 	C 	0.07961 0.89243 0.78091 -0.08300
O 	O 	0.07776 0.98931 0.81983 -0.35600
C 	C 	0.08470 0.57914 0.39130 -0.03000
C 	C 	0.07845 0.18488 0.73676 -0.03800
C 	C 	0.08531 0.56978 0.41181 0.01000
O 	O 	0.08501 0.96141 0.79735 -0.36600
O 	O 	0.08803 0.98118 0.23846 -0.36700
C 	C 	0.08568 0.29369 0.71134 0.02600
C 	C 	0.08709 0.82703 0.84585 -0.03500
C 	C 	0.08966 0.55732 0.66370 0.01600
H 	H 	0.09204 0.69741 0.76186 0.04400
C 	C 	0.09132 0.90010 0.82976 -0.06100
H 	H 	0.09750 0.32269 0.01199 0.03500
N 	N 	0.09055 0.03537 0.17882 -0.09600
H 	H 	0.09749 0.99774 0.26089 0.04400
C 	C 	0.09833 0.60470 0.43224 -0.06100
C 	C 	0.09742 0.36367 0.71239 -0.06400
Ni	Ni	0.10135 0.11696 0.22059 1.11400
C 	C 	0.09719 0.21933 0.72630 -0.03700
N 	N 	0.10643 0.59741 0.53694 -0.10400
C 	C 	0.10259 0.27032 0.84664 0.02300
H 	H 	0.10036 0.22111 0.70079 0.04500
O 	O 	0.10806 0.09349 0.03006 -0.38500
H 	H 	0.11056 0.60341 0.38350 0.03700
H 	H 	0.10612 0.61940 0.45031 0.04500
C 	C 	0.10739 0.59338 0.49540 0.02500
C 	C 	0.11196 0.03540 0.03214 0.28500
H 	H 	0.10916 0.94734 0.04879 0.02800
C 	C 	0.10763 0.20830 0.84778 -0.03600
C 	C 	0.11081 0.27545 0.70191 -0.06600
H 	H 	0.10991 0.16828 0.74092 0.04000
C 	C 	0.11792 0.60191 0.40165 -0.04400
C 	C 	0.11449 0.32845 0.86563 -0.03700
H 	H 	0.11868 0.38343 0.97658 0.04100
O 	O 	0.11899 0.97951 0.21594 -0.35300
C 	C 	0.12213 0.63859 0.64384 -0.06600
N 	N 	0.11730 0.36598 0.89474 -0.10600
C 	C 	0.11915 0.94515 0.96669 0.03600
O 	O 	0.12239 0.07389 0.20666 -0.36700
C 	C 	0.12234 0.58713 0.42258 0.02400
C 	C 	0.12263 0.49704 0.50278 0.02500
C 	C 	0.12479 0.65107 0.48742 0.08100
C 	C 	0.12676 0.60882 0.44285 0.01600
C 	C 	0.12725 0.99776 0.98519 0.04500
C 	C 	0.13183 0.31949 0.00620 0.01600
C 	C 	0.13546 0.25683 0.00554 -0.08300
H 	H 	0.13550 0.66935 0.63607 0.04900
C 	C 	0.13461 0.73257 0.75679 -0.03600
C 	C 	0.13485 0.83733 0.76561 0.02900
H 	H 	0.13185 0.72992 0.93315 0.05100
C 	C 	0.13240 0.37378 0.88529 0.09300
N 	N 	0.00544 0.39193 0.19084 -0.10800
C 	C 	0.13895 0.04689 0.23963 0.27500
H 	H 	0.13821 0.64622 0.74846 0.04100
H 	H 	0.13916 0.43461 0.95737 0.04200
N 	N 	0.13866 0.69711 0.48106 -0.11700
C 	C 	0.13900 0.33147 0.85462 0.02100
C 	C 	0.13764 0.04242 0.18321 0.09400
C 	C 	0.14164 0.02677 0.20767 0.29600
C 	C 	0.14032 0.41651 0.70491 0.01500
C 	C 	0.14203 0.90016 0.78305 0.01900
C 	C 	0.14159 0.55492 0.49528 -0.07300
H 	H 	0.14334 0.22972 0.72252 0.04000
H 	H 	0.14567 0.66382 0.72494 0.04700
H 	H 	0.14484 0.98459 0.94462 0.04600
C 	C 	0.15058 0.03128 0.26027 -0.00400
C 	C 	0.14789 0.20370 0.85672 0.10000
C 	C 	0.14713 0.91831 0.95811 -0.00100
H 	H 	0.15257 0.47130 0.70627 0.03000
C 	C 	0.15136 0.38350 0.87344 0.02000
C 	C 	0.15434 0.61377 0.66208 -0.08500
C 	C 	0.15654 0.99562 0.04794 0.07100
C 	C 	0.15425 0.32857 0.69447 0.01500
C 	C 	0.15508 0.85156 0.84460 0.02200
H 	H 	0.15539 0.84547 0.96963 0.04100
H 	H 	0.15611 0.02409 0.99266 0.01100
H 	H 	0.15936 0.42037 0.99839 0.04700
N 	N 	0.15649 0.71141 0.82861 -0.10800
C 	C 	0.15681 0.94397 0.94695 -0.03400
C 	C 	0.15672 0.98211 0.97619 -0.07600
O 	O 	0.16066 0.09296 0.23103 -0.36700
C 	C 	0.16088 0.70359 0.74922 -0.03600
C 	C 	0.15953 0.92506 0.82857 0.01400
C 	C 	0.16018 0.46031 0.50321 0.09100
C 	C 	0.16307 0.80678 0.75775 0.00300
C 	C 	0.16291 0.86575 0.96104 -0.03500
H 	H 	0.16662 0.01645 0.27775 0.04100
C 	C 	0.16646 0.37460 0.99842 -0.06500
C 	C 	0.16781 0.04331 0.03901 -0.11500
H 	H 	0.16924 0.64359 0.40177 0.04100
C 	C 	0.16818 0.40857 0.97313 -0.03700
C 	C 	0.16905 0.65711 0.65243 0.01700
C 	C 	0.16945 0.87279 0.77543 -0.06100
H 	H 	0.16871 0.92599 0.79072 0.05200
C 	C 	0.17223 0.40000 0.69638 -0.08300
H 	H 	0.17084 0.67883 0.91843 0.03600
C 	C 	0.17458 0.73620 0.83750 0.10200
C 	C 	0.17993 0.06343 0.24991 -0.07000
C 	C 	0.17784 0.57871 0.42351 -0.06100
H 	H 	0.17752 0.31493 0.68776 0.03500
C 	C 	0.17962 0.43698 0.96221 -0.03700
C 	C 	0.17970 0.59595 0.44384 -0.08000
N 	N 	0.18004 0.20010 0.86386 -0.11000
C 	C 	0.18035 0.76239 0.92947 -0.06400
C 	C 	0.18208 0.25476 0.99833 0.01500
C 	C 	0.18170 0.91691 0.93877 -0.03600
H 	H 	0.18699 0.20759 0.99803 0.02700
C 	C 	0.18970 0.04183 0.26982 -0.05600
H 	H 	0.18922 0.62908 0.70864 0.03000
C 	C 	0.18836 0.82415 0.85220 0.02300
H 	H 	0.18857 0.93659 0.93016 0.04900
C 	C 	0.18763 0.83862 0.95287 -0.03700
N 	N 	0.19018 0.43105 0.50356 -0.10100
C 	C 	0.19158 0.90196 0.83614 -0.03200
H 	H 	0.19365 0.97796 0.06355 0.07400
C 	C 	0.00124 0.19523 0.24278 -0.07700
O 	O 	0.19486 0.52929 0.47986 -0.35900
C 	C 	0.19533 0.03251 0.20016 -0.07400
H 	H 	0.19709 0.56561 0.41611 0.04600
C 	C 	0.19703 0.67767 0.72487 -0.06400
C 	C 	0.19632 0.97296 0.81936 0.11600
C 	C 	0.19681 0.05131 0.18866 0.02100
C 	C 	0.19737 0.57567 0.48734 0.30900
C 	C 	0.19723 0.76736 0.84863 -0.03600
C 	C 	0.19883 0.39151 0.85123 -0.03500
C 	C 	0.19684 0.86383 0.94169 0.00200
N 	N 	0.19901 0.96362 0.86916 -0.10100
H 	H 	0.19929 0.79774 0.95520 0.04100
O 	O 	0.20239 0.62835 0.46370 -0.36900
C 	C 	0.20395 0.58980 0.45505 0.28500
C 	C 	0.20240 0.73351 0.92112 0.02000
C 	C 	0.20448 0.36690 0.98992 0.02700
C 	C 	0.20435 0.01309 0.05634 -0.12100
O 	O 	0.20573 0.55637 0.67163 -0.38800
C 	C 	0.20399 0.91517 0.86644 0.10300
C 	C 	0.20662 0.58359 0.43406 0.01400
C 	C 	0.20843 0.61726 0.66895 0.29400
C 	C 	0.20909 0.44590 0.86985 -0.06700
O 	O 	0.20921 0.52445 0.88453 -0.36800
H 	H 	0.20814 0.99652 0.97677 0.05500
C 	C 	0.21017 0.85443 0.86301 -0.03600
C 	C 	0.21564 0.74863 0.74252 0.00200
H 	H 	0.21721 0.87830 0.77723 0.05600
C 	C 	0.21614 0.30935 0.99047 -0.06400
H 	H 	0.21832 0.70186 0.65118 0.03700
C 	C 	0.21862 0.85182 0.75123 -0.03600
C 	C 	0.21965 0.40908 0.97936 0.00100
O 	O 	0.22134 0.54075 0.45656 -0.36800
C 	C 	0.22174 0.65808 0.71563 0.01400
C 	C 	0.22056 0.83323 0.93299 0.03000
N 	N 	0.22572 0.01119 0.81203 -0.13500
C 	C 	0.22533 0.39348 0.84005 0.10200
C 	C 	0.22763 0.74058 0.85589 0.02100
C 	C 	0.22987 0.10511 0.03797 0.03000
O 	O 	0.23139 0.58445 0.90752 -0.38900
C 	C 	0.23301 0.45757 0.69138 0.28800
C 	C 	0.23304 0.44939 0.85874 0.02000
C 	C 	0.23770 0.68301 0.85208 0.09500
O 	O 	0.23860 0.66698 0.87676 -0.37100
C 	C 	0.23747 0.82547 0.87052 0.02100
Ni	Ni	0.23810 0.62139 0.89170 1.12300
H 	H 	0.23984 0.14142 0.03096 0.02900
C 	C 	0.23930 0.71831 0.73371 0.02800
H 	H 	0.24101 0.90918 0.75196 0.04500
C 	C 	0.24246 0.46584 0.95736 0.00000
C 	C 	0.99905 0.23059 0.72611 -0.03900
C 	C 	0.99655 0.07966 0.75628 -0.06800
C 	C 	0.99602 0.05898 0.76751 0.01800
H 	H 	0.99166 0.04382 0.74947 0.04300
C 	C 	0.85626 0.90420 0.00638 0.30800
Ni	Ni	0.95722 0.05376 0.00524 1.11300
O 	O 	0.89894 0.88307 0.00855 -0.37100
O 	O 	0.86963 0.96829 0.00931 -0.38300
H 	H 	0.73973 0.90259 0.00458 0.03800
O 	O 	0.92738 0.11627 0.01306 -0.39000
H 	H 	0.93716 0.24602 0.02336 0.03200
C 	C 	0.90798 0.10798 0.02370 0.31000
Ni	Ni	0.98090 0.93858 0.01912 1.11600
O 	O 	0.93219 0.08292 0.03124 -0.40000
O 	O 	0.91670 0.92013 0.03243 -0.37900
C 	C 	0.86668 0.13689 0.02766 -0.09400
C 	C 	0.89384 0.21107 0.02830 0.01700
C 	C 	0.87027 0.24037 0.03635 -0.06800
C 	C 	0.78577 0.12158 0.04188 -0.06700
C 	C 	0.80932 0.09242 0.03384 0.01900
H 	H 	0.89498 0.29770 0.03743 0.04700
H 	H 	0.78682 0.03500 0.03318 0.02800
C 	C 	0.93570 0.95782 0.04177 0.32800
H 	H 	0.80445 0.90034 0.04500 0.03800
C 	C 	0.27769 0.12251 0.04637 -0.08300
H 	H 	0.32423 0.17204 0.04579 0.05000
C 	C 	0.81912 0.19549 0.04372 0.02800
C 	C 	0.80952 0.22394 0.05449 -0.00100
C 	C 	0.74686 0.21248 0.05747 -0.03800
H 	H 	0.74505 0.08642 0.04731 0.04600
H 	H 	0.70650 0.18848 0.05146 0.03700
O 	O 	0.99235 0.01786 0.04216 -0.40100
C 	C 	0.89881 0.92645 0.05224 -0.09400
C 	C 	0.82976 0.89382 0.05219 0.02400
C 	C 	0.26392 0.07809 0.05584 0.05000
H 	H 	0.90983 0.26384 0.06019 0.04000
C 	C 	0.93109 0.91917 0.06174 0.02300
C 	C 	0.79305 0.84937 0.06113 -0.06700
H 	H 	0.75022 0.69687 0.06507 0.04100
H 	H 	0.73964 0.82182 0.06077 0.05000
C 	C 	0.33763 0.06534 0.06977 -0.03400
C 	C 	0.30773 0.10352 0.06581 -0.01100
C 	C 	0.31625 0.16357 0.07180 -0.03200
H 	H 	0.33125 0.01888 0.06521 0.03600
H 	H 	0.29292 0.19305 0.06885 0.04000
C 	C 	0.73574 0.23007 0.06835 -0.03900
C 	C 	0.86142 0.25530 0.06236 -0.03600
H 	H 	0.68701 0.22012 0.07062 0.03800
H 	H 	0.98444 0.94464 0.06190 0.03700
C 	C 	0.75259 0.70757 0.07408 -0.03600
C 	C 	0.82513 0.83700 0.07014 0.03100
C 	C 	0.89436 0.87442 0.07065 -0.06700
C 	C 	0.78720 0.25917 0.07633 0.00200
C 	C 	0.85030 0.27274 0.07322 -0.03800
H 	H 	0.89033 0.29515 0.07931 0.04300
C 	C 	0.78701 0.77799 0.07809 0.00100
C 	C 	0.72379 0.65072 0.08169 -0.03800
H 	H 	0.69920 0.59648 0.07853 0.04000
H 	H 	0.91961 0.86580 0.07764 0.05200
C 	C 	0.37515 0.08659 0.07971 -0.04100
C 	C 	0.35378 0.18482 0.08173 -0.04000
H 	H 	0.39767 0.05650 0.08277 0.04100
C 	C 	0.72917 0.66378 0.09339 0.00200
C 	C 	0.78963 0.79117 0.08977 -0.03500
H 	H 	0.81562 0.84536 0.09295 0.04600
C 	C 	0.42237 0.16842 0.09626 0.02700
C 	C 	0.49003 0.19168 0.09590 -0.06300
C 	C 	0.38303 0.14617 0.08576 0.00300
H 	H 	0.51380 0.19442 0.08790 0.04600
H 	H 	0.35999 0.23115 0.08630 0.04300
C 	C 	0.77463 0.27315 0.08805 0.02600
C 	C 	0.72921 0.21690 0.09489 -0.06200
C 	C 	0.81076 0.34202 0.09262 -0.06300
H 	H 	0.70121 0.16347 0.09145 0.04700
H 	H 	0.84581 0.38584 0.08741 0.04800
C 	C 	0.74511 0.56920 0.10222 -0.06100
C 	C 	0.70857 0.60430 0.10139 0.02800
C 	C 	0.76073 0.73422 0.09740 -0.03500
H 	H 	0.78666 0.58364 0.09664 0.04900
C 	C 	0.39223 0.16596 0.10666 -0.06200
C 	C 	0.52711 0.21118 0.10587 0.01400
H 	H 	0.57935 0.22886 0.10550 0.03200
C 	C 	0.72042 0.22928 0.10621 0.01200
C 	C 	0.80225 0.35443 0.10395 0.01500
H 	H 	0.83089 0.40780 0.10737 0.04200
H 	H 	0.62586 0.61145 0.10795 0.05200
H 	H 	0.76492 0.74475 0.10642 0.04800
H 	H 	0.33997 0.14806 0.10701 0.05200
C 	C 	0.67705 0.49947 0.11798 -0.07900
C 	C 	0.72950 0.51712 0.11050 0.01400
C 	C 	0.65458 0.58489 0.10859 -0.06300
C 	C 	0.63867 0.53238 0.11684 0.01900
H 	H 	0.75911 0.49163 0.11127 0.03500
C 	C 	0.49686 0.20752 0.11631 -0.08000
C 	C 	0.42936 0.18550 0.11666 0.01800
C 	C 	0.75722 0.29805 0.11084 -0.07700
H 	H 	0.68457 0.18557 0.11134 0.03600
C 	C 	0.53544 0.22343 0.12683 0.28800
C 	C 	0.74618 0.31168 0.12269 0.28500
C 	C 	0.66746 0.45312 0.12770 0.28800
O 	O 	0.57734 0.19935 0.12792 -0.36900
O 	O 	0.72507 0.25910 0.13025 -0.36300
O 	O 	0.76434 0.37800 0.12584 -0.37300
H 	H 	0.59813 0.51922 0.12260 0.04100
H 	H 	0.40537 0.18199 0.12467 0.04500
Ni	Ni	0.64455 0.23058 0.14114 1.11400
Ni	Ni	0.74363 0.40193 0.14134 1.12500
Ni	Ni	0.58835 0.34092 0.14421 1.12200
O 	O 	0.52075 0.25170 0.13559 -0.37400
O 	O 	0.60655 0.40363 0.13054 -0.38100
O 	O 	0.71791 0.47134 0.13471 -0.37400
O 	O 	0.65684 0.32295 0.13969 -0.71200
H 	H 	0.65197 0.32466 0.13144 0.14700
C 	C 	0.87578 0.29385 0.14408 0.09300
N 	N 	0.88384 0.30292 0.13441 -0.10200
N 	N 	0.42317 0.06103 0.14241 -0.10500
O 	O 	0.79191 0.35236 0.14743 -0.36600
O 	O 	0.56139 0.18095 0.15160 -0.35800
C 	C 	0.96526 0.26993 0.15739 0.10100
N 	N 	0.83841 0.06836 0.16230 -0.11000
C 	C 	0.42659 0.08172 0.15156 0.08800
N 	N 	0.85026 0.57006 0.14703 -0.12000
C 	C 	0.76765 0.30043 0.15492 0.30900
C 	C 	0.54229 0.21430 0.15865 0.30600
C 	C 	0.69151 0.45017 0.15941 0.31100
O 	O 	0.72763 0.42073 0.15729 -0.37800
O 	O 	0.70410 0.25522 0.15534 -0.36800
O 	O 	0.57120 0.28416 0.15864 -0.37400
O 	O 	0.63679 0.43114 0.15363 -0.37000
C 	C 	0.90683 0.26495 0.16253 -0.03800
C 	C 	0.81316 0.28547 0.16159 -0.07700
C 	C 	0.86577 0.28243 0.15620 0.02200
C 	C 	0.43068 0.10760 0.16304 0.02600
N 	N 	0.28288 0.94228 0.16539 -0.10700
N 	N 	0.26531 0.13467 0.16253 -0.11100
C 	C 	0.82051 0.57105 0.15478 0.07800
C 	C 	0.89098 0.24243 0.17388 0.02200
C 	C 	0.80167 0.26977 0.17325 0.02400
C 	C 	0.92994 0.21626 0.18024 0.02200
C 	C 	0.91996 0.14746 0.17814 -0.03700
C 	C 	0.95197 0.05603 0.18137 0.09900
C 	C 	0.87461 0.10344 0.16933 0.10100
N 	N 	0.95080 0.00415 0.17860 -0.09700
C 	C 	0.48641 0.17231 0.16660 -0.07700
C 	C 	0.37668 0.07064 0.17043 -0.05300
C 	C 	0.32454 0.99925 0.16762 0.12100
C 	C 	0.26088 0.10901 0.17133 0.09900
C 	C 	0.81102 0.63250 0.17172 -0.03700
C 	C 	0.78346 0.57250 0.16453 0.02600
C 	C 	0.71923 0.51488 0.16665 -0.07500
C 	C 	0.87693 0.69144 0.16956 0.10400
C 	C 	0.75513 0.75603 0.17833 0.10400
N 	N 	0.92949 0.73850 0.16786 -0.10300
N 	N 	0.72064 0.75511 0.17122 -0.10600
C 	C 	0.83783 0.24417 0.17919 -0.03800
C 	C 	0.75461 0.28270 0.17923 0.09400
C 	C 	0.37290 0.10358 0.18048 0.02700
C 	C 	0.48627 0.19939 0.17751 0.02400
C 	C 	0.77473 0.63539 0.18102 0.02300
C 	C 	0.68150 0.51974 0.17558 0.02600
C 	C 	0.61335 0.46436 0.17712 0.09400
C 	C 	0.95294 0.12086 0.18478 0.02200
C 	C 	0.82162 0.87772 0.19284 0.09600
N 	N 	0.81192 0.92490 0.19188 -0.10000
C 	C 	0.81994 0.21880 0.19074 0.10100
C 	C 	0.97386 0.25863 0.18883 -0.03800
C 	C 	0.98840 0.15856 0.19455 -0.07400
C 	C 	0.99146 0.33279 0.18995 0.10300
N 	N 	0.71720 0.29312 0.18404 -0.09300
C 	C 	0.25540 0.07686 0.18235 -0.03800
C 	C 	0.30930 0.07297 0.18690 0.01900
C 	C 	0.42793 0.16834 0.18400 -0.04000
C 	C 	0.54645 0.25725 0.18225 0.09900
N 	N 	0.59428 0.30347 0.18608 -0.09200
C 	C 	0.79834 0.75709 0.18725 -0.03600
C 	C 	0.80584 0.69707 0.18901 0.02300
C 	C 	0.83336 0.81830 0.19407 0.02600
C 	C 	0.70975 0.57932 0.18290 -0.03700
N 	N 	0.55885 0.42042 0.17834 -0.10100
C 	C 	0.92075 0.88753 0.20864 0.31200
O 	O 	0.96862 0.05405 0.20524 -0.37500
O 	O 	0.89292 0.91607 0.21478 -0.36900
C 	C 	0.99966 0.22860 0.19645 0.02300
N 	N 	0.80575 0.19856 0.19995 -0.11100
C 	C 	0.30394 0.04328 0.19776 -0.03800
C 	C 	0.24921 0.02776 0.20469 0.02300
C 	C 	0.35501 0.02950 0.20183 0.09900
C 	C 	0.42396 0.20399 0.19412 0.10300
N 	N 	0.42074 0.23238 0.20220 -0.11000
N 	N 	0.39582 0.01854 0.20507 -0.11000
C 	C 	0.84600 0.69710 0.19792 -0.03700
C 	C 	0.88208 0.75872 0.20460 0.02600
C 	C 	0.87831 0.82071 0.20231 -0.07300
C 	C 	0.85053 0.63380 0.20016 0.10300
C 	C 	0.67219 0.58285 0.19239 0.10300
C 	C 	0.92101 0.75745 0.21408 0.08100
N 	N 	0.64227 0.58575 0.19996 -0.10700
N 	N 	0.85409 0.58324 0.20193 -0.10500
O 	O 	0.98421 0.91051 0.20953 -0.37200
Ni	Ni	0.94118 0.01629 0.22115 1.11900
C 	C 	0.25027 0.01094 0.21656 0.08000
N 	N 	0.95204 0.75641 0.22164 -0.11500
O 	O 	0.96844 0.11673 0.22670 -0.37600
O 	O 	0.91116 0.97297 0.23660 -0.37300
O 	O 	0.94815 0.89289 0.23379 -0.37000
H 	H 	0.95229 0.22831 0.23067 0.04800
N 	N 	0.25127 0.99758 0.22603 -0.09300
C 	C 	0.92621 0.92547 0.24063 0.28400
C 	C 	0.72945 0.35846 0.32031 0.28500
C 	C 	0.65552 0.30036 0.36810 0.30900
C 	C 	0.56671 0.23685 0.33344 0.30800
C 	C 	0.82432 0.42777 0.35678 0.29100
C 	C 	0.57035 0.41294 0.35312 0.31000
C 	C 	0.73263 0.54161 0.33756 0.28900
Ni	Ni	0.70154 0.30632 0.34438 1.11400
Ni	Ni	0.70438 0.44069 0.35703 1.12100
Ni	Ni	0.63450 0.39170 0.33298 1.12000
O 	O 	0.75223 0.33953 0.32919 -0.37200
O 	O 	0.67008 0.35339 0.32048 -0.37600
O 	O 	0.60774 0.39944 0.35974 -0.39400
O 	O 	0.64119 0.26587 0.35845 -0.37800
O 	O 	0.70026 0.36839 0.36854 -0.38300
O 	O 	0.70146 0.49326 0.32952 -0.38400
O 	O 	0.62196 0.23519 0.33431 -0.37100
O 	O 	0.56397 0.29209 0.33719 -0.39100
O 	O 	0.71508 0.52777 0.34842 -0.38200
O 	O 	0.78705 0.35797 0.35459 -0.37000
O 	O 	0.80110 0.47232 0.35572 -0.38600
O 	O 	0.58538 0.42882 0.34236 -0.38500
O 	O 	0.69432 0.38886 0.34355 -0.71700
H 	H 	0.73631 0.42153 0.33978 0.15800
C 	C 	0.51436 0.18669 0.32578 -0.09400
C 	C 	0.53121 0.16814 0.31541 0.01800
C 	C 	0.48476 0.13978 0.30667 -0.06800
C 	C 	0.42111 0.12927 0.30826 0.02900
C 	C 	0.40233 0.14069 0.31899 -0.06900
C 	C 	0.44874 0.16910 0.32773 0.01700
C 	C 	0.37801 0.11695 0.29842 -0.00400
C 	C 	0.36808 0.17202 0.29446 -0.03400
C 	C 	0.32908 0.16156 0.28489 -0.04200
C 	C 	0.29957 0.09591 0.27922 0.00900
C 	C 	0.30918 0.04065 0.28319 -0.05300
C 	C 	0.34847 0.05122 0.29275 -0.03100
C 	C 	0.25843 0.08499 0.26915 0.02000
C 	C 	0.28780 0.11841 0.25888 -0.05800
C 	C 	0.24876 0.10766 0.24929 0.01300
H 	H 	0.58144 0.18046 0.31384 0.03700
H 	H 	0.49938 0.13001 0.29846 0.04800
H 	H 	0.35281 0.13122 0.32036 0.04700
H 	H 	0.43471 0.18150 0.33579 0.03400
H 	H 	0.39106 0.22309 0.29875 0.03900
H 	H 	0.32177 0.20441 0.28189 0.04200
H 	H 	0.28651 0.98975 0.27885 0.05400
H 	H 	0.35603 0.00850 0.29573 0.03700
H 	H 	0.34088 0.15207 0.25831 0.05100
H 	H 	0.27215 0.13240 0.24135 0.04700
C 	C 	0.77601 0.61549 0.33400 -0.08300
C 	C 	0.75185 0.66317 0.33394 0.01800
C 	C 	0.77914 0.72165 0.32658 -0.06500
C 	C 	0.83071 0.73258 0.31927 0.02800
C 	C 	0.86067 0.69072 0.32055 -0.06300
C 	C 	0.83341 0.63240 0.32791 0.01600
C 	C 	0.84374 0.77636 0.30897 0.00100
C 	C 	0.79333 0.75741 0.30094 -0.03600
C 	C 	0.80792 0.78890 0.29022 -0.03700
C 	C 	0.87302 0.83983 0.28742 0.00200
C 	C 	0.92283 0.86187 0.29566 -0.03700
C 	C 	0.90823 0.83024 0.30640 -0.03700
C 	C 	0.88970 0.86578 0.27565 0.02700
C 	C 	0.85834 0.89912 0.27043 -0.06200
C 	C 	0.86956 0.91786 0.25897 0.01500
C 	C 	0.91256 0.90365 0.25263 -0.07700
C 	C 	0.94487 0.87147 0.25795 0.01300
C 	C 	0.93338 0.85251 0.26938 -0.06100
H 	H 	0.70839 0.65148 0.33882 0.03400
H 	H 	0.75696 0.75508 0.32593 0.04800
H 	H 	0.90159 0.69971 0.31516 0.04800
H 	H 	0.85342 0.59679 0.32812 0.02900
H 	H 	0.74341 0.71580 0.30282 0.04300
H 	H 	0.76908 0.77171 0.28394 0.04400
H 	H 	0.97309 0.90197 0.29364 0.04100
H 	H 	0.94740 0.84572 0.31257 0.04100
H 	H 	0.82467 0.90977 0.27520 0.04900
H 	H 	0.84448 0.94293 0.25503 0.04400
H 	H 	0.97920 0.86152 0.25324 0.04100
H 	H 	0.95767 0.82656 0.27333 0.05000
C 	C 	0.96548 0.22853 0.23948 0.02100
C 	C 	0.94459 0.25998 0.24757 -0.06000
C 	C 	0.95913 0.25842 0.25906 0.02500
C 	C 	0.99771 0.22830 0.26232 -0.05400
C 	C 	0.92886 0.28224 0.26772 0.00400
C 	C 	0.88335 0.23293 0.27544 -0.03800
C 	C 	0.85006 0.25367 0.28298 -0.03600
C 	C 	0.86175 0.32388 0.28286 0.00100
C 	C 	0.90788 0.37353 0.27524 -0.03500
C 	C 	0.94133 0.35280 0.26771 -0.03700
C 	C 	0.82758 0.34587 0.29103 0.02800
C 	C 	0.75836 0.31122 0.29115 -0.06500
C 	C 	0.72555 0.32102 0.30027 0.01600
C 	C 	0.76178 0.36537 0.30934 -0.08100
C 	C 	0.83088 0.40523 0.30865 0.01500
C 	C 	0.86367 0.39537 0.29955 -0.06400
H 	H 	0.91509 0.28331 0.24497 0.05400
H 	H 	0.87299 0.17824 0.27547 0.04000
H 	H 	0.81520 0.21521 0.28893 0.04000
H 	H 	0.91758 0.42797 0.27514 0.04300
H 	H 	0.97634 0.39126 0.26178 0.04600
H 	H 	0.73003 0.27404 0.28448 0.04900
H 	H 	0.67216 0.29055 0.30064 0.03500
H 	H 	0.85930 0.44065 0.31550 0.03200
H 	H 	0.91712 0.42330 0.29944 0.04800
C 	C 	0.39694 0.53019 0.41863 0.02600
C 	C 	0.40353 0.59664 0.42124 -0.06400
C 	C 	0.40954 0.51513 0.40699 0.00200
C 	C 	0.47325 0.55356 0.40243 -0.03700
C 	C 	0.48646 0.53659 0.39169 -0.03600
C 	C 	0.43600 0.48112 0.38538 0.00000
C 	C 	0.37165 0.44436 0.38978 -0.03700
C 	C 	0.35854 0.46114 0.40057 -0.03900
C 	C 	0.45242 0.45624 0.37485 0.02800
C 	C 	0.44232 0.38673 0.37428 -0.06600
C 	C 	0.47438 0.36910 0.36599 0.02000
C 	C 	0.51741 0.42102 0.35831 -0.09100
C 	C 	0.52058 0.48747 0.35795 0.01700
C 	C 	0.48814 0.50506 0.36620 -0.06700
H 	H 	0.41331 0.63516 0.41459 0.04700
H 	H 	0.51288 0.59545 0.40731 0.04300
H 	H 	0.53641 0.56492 0.38844 0.04100
H 	H 	0.33224 0.40173 0.38497 0.03900
H 	H 	0.30904 0.43164 0.40399 0.04000
H 	H 	0.41362 0.34799 0.38074 0.04800
H 	H 	0.47021 0.31695 0.36615 0.03400
H 	H 	0.55255 0.52754 0.35190 0.03500
H 	H 	0.49449 0.55817 0.36634 0.04700
C 	C 	0.98527 0.49426 0.40122 -0.01800
C 	C 	0.98248 0.50160 0.38017 0.03400
C 	C 	0.94709 0.42883 0.37740 -0.06800
C 	C 	0.89955 0.40464 0.36883 0.01600
C 	C 	0.88734 0.45324 0.36290 -0.08200
C 	C 	0.92944 0.52677 0.36460 0.01300
C 	C 	0.97614 0.55081 0.37332 -0.06100
H 	H 	0.93368 0.45328 0.40112 0.03700
H 	H 	0.95360 0.39062 0.38236 0.04900
H 	H 	0.86947 0.34789 0.36731 0.03700
H 	H 	0.92305 0.56516 0.35969 0.03800
C 	C 	0.55865 0.11193 0.40611 0.00800
C 	C 	0.53927 0.04108 0.40335 -0.05400
C 	C 	0.51418 0.98845 0.41172 -0.01300
C 	C 	0.58148 0.16645 0.39714 0.02600
C 	C 	0.64733 0.22199 0.39694 -0.06500
C 	C 	0.67086 0.26875 0.38772 0.01700
C 	C 	0.62868 0.26001 0.37863 -0.08900
C 	C 	0.56201 0.20683 0.37914 0.01800
C 	C 	0.53850 0.16030 0.38836 -0.06500
H 	H 	0.54300 0.02674 0.39470 0.04300
H 	H 	0.49823 0.93367 0.40947 0.03500
H 	H 	0.68075 0.22744 0.40373 0.04900
H 	H 	0.72242 0.30971 0.38742 0.03600
H 	H 	0.52885 0.20036 0.37224 0.03600
H 	H 	0.48730 0.11828 0.38855 0.04700
C 	C 	0.38764 0.56528 0.44121 -0.07900
C 	C 	0.37890 0.49786 0.43856 0.01600
C 	C 	0.38363 0.48044 0.42731 -0.06200
C 	C 	0.39892 0.61413 0.43247 0.01200
H 	H 	0.37857 0.42902 0.42538 0.05000
H 	H 	0.40428 0.66572 0.43438 0.03300
H 	H 	0.24868 0.57557 0.43470 0.03300
H 	H 	0.99317 0.49065 0.41930 0.05100
C 	C 	0.50780 0.90989 0.43459 -0.06700
C 	C 	0.47803 0.95000 0.43158 0.04200
C 	C 	0.50841 0.00625 0.42291 -0.02100
C 	C 	0.52923 0.07741 0.42573 -0.02700
C 	C 	0.55424 0.13007 0.41735 -0.04400
H 	H 	0.55350 0.92038 0.43062 0.05300
H 	H 	0.56927 0.18467 0.41956 0.04500
C 	C 	0.38556 0.58536 0.45308 0.28400
C 	C 	0.39123 0.78909 0.45716 0.28700
O 	O 	0.32695 0.75913 0.45927 -0.38100
O 	O 	0.43202 0.78349 0.46444 -0.37300
O 	O 	0.34695 0.53550 0.46049 -0.36100
O 	O 	0.42595 0.65231 0.45632 -0.37100
O 	O 	0.32481 0.64284 0.46908 -0.71300
H 	H 	0.32474 0.64741 0.46080 0.14800
H 	H 	0.36996 0.45960 0.44522 0.04600
C 	C 	0.41981 0.84269 0.44807 -0.07900
C 	C 	0.47877 0.85638 0.44279 0.01700
C 	C 	0.41866 0.93567 0.43673 -0.06800
C 	C 	0.38965 0.88231 0.44493 0.02000
H 	H 	0.50211 0.82566 0.44505 0.03800
H 	H 	0.39504 0.96597 0.43437 0.05400
H 	H 	0.34435 0.87261 0.44897 0.04300
H 	H 	0.52533 0.09170 0.43437 0.04200
C 	C 	0.45311 0.49163 0.47825 0.09200
N 	N 	0.45727 0.48402 0.46864 -0.10300
C 	C 	0.38588 0.56521 0.48601 0.30800
C 	C 	0.39505 0.77009 0.48926 0.31300
Ni	Ni	0.27618 0.54277 0.47049 1.11500
Ni	Ni	0.41740 0.69079 0.47150 1.12400
Ni	Ni	0.28427 0.69722 0.47288 1.12400
O 	O 	0.41269 0.72221 0.48728 -0.37900
O 	O 	0.32202 0.54005 0.48538 -0.36500
O 	O 	0.42558 0.60899 0.47822 -0.36800
O 	O 	0.24655 0.64153 0.48736 -0.37100
O 	O 	0.35390 0.77688 0.48242 -0.37300
C 	C 	0.47717 0.47621 0.49814 -0.03700
C 	C 	0.44788 0.50114 0.49030 0.02300
C 	C 	0.41159 0.53311 0.49419 -0.07500
C 	C 	0.51934 0.44934 0.49419 0.10200
N 	N 	0.55299 0.42788 0.49105 -0.10500
N 	N 	0.36229 0.28730 0.51045 -0.10700
C 	C 	0.53645 0.86058 0.48803 0.08300
N 	N 	0.56575 0.85155 0.48097 -0.11300
N 	N 	0.49454 0.08213 0.49563 -0.10800
N 	N 	0.89364 0.40829 0.49274 -0.10700
C 	C 	0.55622 0.50351 0.52385 -0.03700
C 	C 	0.49851 0.45328 0.51816 0.02300
C 	C 	0.47232 0.37978 0.52019 -0.03700
C 	C 	0.50556 0.35639 0.52746 0.02500
C 	C 	0.46596 0.47790 0.50984 0.02300
C 	C 	0.41112 0.32831 0.51478 0.10200
C 	C 	0.40015 0.53455 0.50591 0.02400
C 	C 	0.42561 0.50492 0.51369 -0.03700
C 	C 	0.36377 0.56820 0.50997 0.09600
C 	C 	0.58426 0.57898 0.52153 0.10300
C 	C 	0.48054 0.28063 0.52897 0.09200
N 	N 	0.46044 0.22017 0.53017 -0.10600
N 	N 	0.60657 0.63916 0.51966 -0.10500
C 	C 	0.53028 0.00996 0.51960 0.01500
C 	C 	0.53987 0.07570 0.51553 -0.03500
C 	C 	0.57380 0.13779 0.52220 0.02300
C 	C 	0.49630 0.94477 0.51238 0.03300
C 	C 	0.51467 0.07933 0.50446 0.10000
C 	C 	0.42800 0.89732 0.51364 -0.04000
C 	C 	0.39562 0.83699 0.50656 0.02800
C 	C 	0.43096 0.82559 0.49792 -0.07700
C 	C 	0.49975 0.87194 0.49690 0.02900
C 	C 	0.53247 0.93075 0.50425 -0.04300
C 	C 	0.32610 0.78626 0.50822 0.09100
C 	C 	0.60330 0.97734 0.50340 0.11500
C 	C 	0.58548 0.20558 0.51775 0.09900
N 	N 	0.65981 0.01456 0.50273 -0.11500
N 	N 	0.59437 0.25945 0.51418 -0.09300
C 	C 	0.91216 0.45124 0.51375 -0.03800
C 	C 	0.85759 0.43261 0.52088 0.02400
C 	C 	0.90181 0.42732 0.50207 0.10400
C 	C 	0.79155 0.39766 0.51617 0.09400
N 	N 	0.73892 0.36998 0.51237 -0.09300
C 	C 	0.97688 0.49301 0.51797 0.02600
N 	N 	0.99624 0.64974 0.50406 -0.10100
C 	C 	0.81034 0.42151 0.54035 0.30700
C 	C 	0.59752 0.38233 0.54110 0.31000
C 	C 	0.62942 0.19858 0.54044 0.30800
Ni	Ni	0.71465 0.43482 0.55616 1.11600
Ni	Ni	0.73937 0.29939 0.55570 1.12200
Ni	Ni	0.59176 0.27195 0.55689 1.12300
O 	O 	0.68115 0.21009 0.54659 -0.37100
O 	O 	0.80079 0.46477 0.54689 -0.35600
O 	O 	0.77057 0.35232 0.54082 -0.37500
O 	O 	0.66215 0.41514 0.54115 -0.36300
O 	O 	0.56370 0.33698 0.54919 -0.36900
O 	O 	0.60224 0.23863 0.54165 -0.37900
O 	O 	0.68334 0.33732 0.55878 -0.71300
C 	C 	0.56322 0.40673 0.53323 -0.07300
C 	C 	0.58673 0.48048 0.53177 0.02600
C 	C 	0.63988 0.53244 0.53882 0.08400
C 	C 	0.41055 0.50238 0.52565 0.10300
N 	N 	0.33475 0.59509 0.51319 -0.09500
N 	N 	0.39859 0.50033 0.53520 -0.10700
N 	N 	0.68224 0.57389 0.54445 -0.11400
C 	C 	0.55347 0.00592 0.53043 -0.04500
C 	C 	0.59628 0.13380 0.53317 -0.07500
C 	C 	0.58468 0.06708 0.53735 0.02300
C 	C 	0.60242 0.06052 0.54889 0.08900
C 	C 	0.39106 0.91106 0.52215 0.10700
C 	C 	0.54501 0.93855 0.53448 0.11100
N 	N 	0.27065 0.74577 0.50955 -0.09600
N 	N 	0.36165 0.92210 0.52894 -0.10600
N 	N 	0.61648 0.05477 0.55807 -0.10600
N 	N 	0.53822 0.88478 0.53769 -0.10700
C 	C 	0.98689 0.51565 0.52937 -0.03400
C 	C 	0.86747 0.45110 0.53248 -0.07500
C 	C 	0.93236 0.49404 0.53666 0.02000
C 	C 	0.94314 0.51574 0.54846 0.09200
C 	C 	0.60525 0.37890 0.57390 0.28300
O 	O 	0.63620 0.42777 0.56587 -0.36000
O 	O 	0.57608 0.30959 0.57156 -0.37600
O 	O 	0.59636 0.19137 0.56490 -0.38000
O 	O 	0.70664 0.23983 0.56985 -0.38200
O 	O 	0.77507 0.45648 0.57019 -0.36700
O 	O 	0.81455 0.38259 0.56437 -0.37200
H 	H 	0.68523 0.33703 0.56711 0.14800
N 	N 	0.95192 0.53332 0.55786 -0.10400
C 	C 	0.80546 0.41999 0.57242 0.28800
C 	C 	0.64282 0.19926 0.57224 0.29000
C 	C 	0.62344 0.14805 0.58168 -0.07500
H 	H 	0.52879 0.14107 0.58420 0.03500
C 	C 	0.59698 0.40155 0.58528 -0.07800
H 	H 	0.69039 0.50044 0.58506 0.03800
C 	C 	0.83821 0.43052 0.58346 -0.08000
H 	H 	0.92642 0.43569 0.57670 0.04700
H 	H 	0.71332 0.14241 0.58138 0.04300
C 	C 	0.56049 0.11990 0.58652 0.01300
H 	H 	0.48824 0.04039 0.59759 0.04500
C 	C 	0.64699 0.46552 0.58998 0.01100
C 	C 	0.54153 0.35640 0.59185 0.01500
H 	H 	0.50230 0.30722 0.58831 0.04000
C 	C 	0.90232 0.44088 0.58417 0.01900
C 	C 	0.80731 0.43644 0.59326 0.01500
H 	H 	0.75731 0.42704 0.59285 0.03200
C 	C 	0.66457 0.12117 0.58501 0.01700
C 	C 	0.64150 0.06422 0.59262 -0.05800
C 	C 	0.57737 0.03390 0.59698 0.01500
C 	C 	0.53747 0.06285 0.59410 -0.05800
H 	H 	0.67285 0.04258 0.59492 0.04700
H 	H 	0.49159 0.89713 0.59120 0.05200
C 	C 	0.93648 0.46086 0.59448 -0.06200
H 	H 	0.98667 0.47086 0.59489 0.05200
C 	C 	0.64208 0.48342 0.60120 -0.06200
C 	C 	0.55133 0.97078 0.60434 0.01200
C 	C 	0.47746 0.84409 0.60722 -0.03500
C 	C 	0.50575 0.90336 0.60005 -0.03700
H 	H 	0.44163 0.79239 0.60388 0.04400
C 	C 	0.58714 0.43759 0.60779 0.02600
C 	C 	0.53671 0.37433 0.60304 -0.06300
C 	C 	0.58115 0.45676 0.61955 0.00100
C 	C 	0.58090 0.41448 0.62859 -0.03900
C 	C 	0.55354 0.52458 0.63257 -0.03600
C 	C 	0.56927 0.51311 0.62164 -0.03700
H 	H 	0.68116 0.53253 0.60478 0.04900
H 	H 	0.49369 0.33911 0.60802 0.04800
H 	H 	0.59071 0.37129 0.62707 0.03900
H 	H 	0.54146 0.56620 0.63398 0.04200
H 	H 	0.56961 0.54619 0.61472 0.04400
C 	C 	0.90651 0.46995 0.60415 0.02800
C 	C 	0.84132 0.45614 0.60354 -0.06300
C 	C 	0.94411 0.49647 0.61478 0.00200
C 	C 	0.95684 0.56212 0.61930 -0.03900
H 	H 	0.81740 0.46181 0.61101 0.04700
H 	H 	0.95720 0.40522 0.61704 0.04100
H 	H 	0.93919 0.59360 0.61499 0.04400
C 	C 	0.56974 0.97830 0.61577 -0.02300
C 	C 	0.54127 0.91919 0.62296 -0.04100
C 	C 	0.49437 0.85195 0.61875 0.00300
C 	C 	0.45963 0.79132 0.62660 0.02900
C 	C 	0.49576 0.77070 0.63358 -0.06600
C 	C 	0.36043 0.71396 0.63724 0.01900
C 	C 	0.39123 0.76018 0.62815 -0.06600
H 	H 	0.60501 0.03019 0.61914 0.02800
H 	H 	0.55438 0.92592 0.63187 0.04400
H 	H 	0.36265 0.77491 0.62270 0.04900
C 	C 	0.96716 0.45616 0.62043 -0.03600
H 	H 	0.54827 0.79296 0.63227 0.04900
C 	C 	0.99303 0.58764 0.62933 -0.03100
H 	H 	0.30835 0.69349 0.63876 0.03400
C 	C 	0.37098 0.66994 0.65611 0.30700
O 	O 	0.31175 0.61347 0.65692 -0.38200
C 	C 	0.56547 0.42615 0.63955 -0.03800
C 	C 	0.54982 0.47994 0.64153 0.00000
C 	C 	0.52163 0.48394 0.65253 0.02800
H 	H 	0.56349 0.39189 0.64641 0.03800
H 	H 	0.44241 0.37429 0.65216 0.04700
H 	H 	0.59443 0.59422 0.65567 0.04700
C 	C 	0.46508 0.72506 0.64274 0.02000
C 	C 	0.39797 0.69930 0.64492 -0.08900
H 	H 	0.49418 0.71274 0.64848 0.03400
C 	C 	0.46223 0.42561 0.65631 -0.06600
C 	C 	0.54754 0.54940 0.65824 -0.06500
H 	H 	0.99399 0.49279 0.65616 0.04800
C 	C 	0.39753 0.52064 0.67341 0.31000
Ni	Ni	0.28410 0.54209 0.66991 1.12100
O 	O 	0.26369 0.68028 0.67018 -0.36900
O 	O 	0.40059 0.70823 0.66509 -0.37800
O 	O 	0.36303 0.53350 0.66597 -0.39000
C 	C 	0.42509 0.43517 0.66467 0.02000
C 	C 	0.44663 0.50321 0.66920 -0.08800
C 	C 	0.51009 0.55896 0.66656 0.01700
H 	H 	0.37675 0.39130 0.66685 0.03100
H 	H 	0.52789 0.61141 0.67020 0.03400
Ni	Ni	0.34919 0.70416 0.67961 1.11400
O 	O 	0.38163 0.51241 0.68422 -0.38700
O 	O 	0.24447 0.45540 0.68036 -0.38100
O 	O 	0.32119 0.60733 0.68213 -0.71600
H 	H 	0.28054 0.59354 0.68643 0.15400
C 	C 	0.47697 0.72660 0.68980 0.31000
Ni	Ni	0.36646 0.58307 0.69298 1.12000
O 	O 	0.43870 0.75443 0.68846 -0.37100
O 	O 	0.45491 0.65974 0.68726 -0.39500
O 	O 	0.30764 0.70272 0.69519 -0.36900
H 	H 	0.58660 0.71387 0.68866 0.03300
C 	C 	0.31726 0.67321 0.70434 0.28400
O 	O 	0.28034 0.50178 0.69838 -0.38400
O 	O 	0.36211 0.65222 0.70445 -0.37600
C 	C 	0.53747 0.76456 0.69666 -0.09400
C 	C 	0.63501 0.76619 0.70414 -0.06800
C 	C 	0.58717 0.74647 0.69567 0.01700
H 	H 	0.67101 0.74875 0.70361 0.04800
C 	C 	0.54035 0.80895 0.70559 0.02000
H 	H 	0.50288 0.82414 0.70640 0.04000
C 	C 	0.58825 0.82875 0.71404 -0.06700
C 	C 	0.63387 0.80468 0.71361 0.02900
H 	H 	0.58756 0.85935 0.72124 0.05000
H 	H 	0.72986 0.92674 0.72313 0.04300
H 	H 	0.96846 0.24880 0.72209 0.03700
C 	C 	0.33035 0.71566 0.72428 0.01700
C 	C 	0.28895 0.67915 0.71510 -0.08100
H 	H 	0.38231 0.73203 0.72399 0.03600
C 	C 	0.67402 0.81160 0.72366 0.00000
C 	C 	0.71945 0.87933 0.72786 -0.03600
C 	C 	0.74942 0.88607 0.73839 -0.03700
C 	C 	0.66157 0.75052 0.72980 -0.03600
H 	H 	0.78296 0.93867 0.74172 0.04500
H 	H 	0.62666 0.69797 0.72662 0.04000
C 	C 	0.98053 0.19646 0.73664 -0.03900
H 	H 	0.93566 0.18830 0.74066 0.03800
C 	C 	0.24471 0.82290 0.74363 -0.03500
C 	C 	0.30560 0.73519 0.73356 -0.06400
H 	H 	0.28665 0.85815 0.73844 0.04300
H 	H 	0.33841 0.76557 0.74043 0.05000
C 	C 	0.73406 0.82511 0.74481 0.00200
C 	C 	0.69150 0.75728 0.74033 -0.03700
C 	C 	0.75745 0.83261 0.75658 0.03000
C 	C 	0.80370 0.81219 0.75959 -0.06400
H 	H 	0.67970 0.70994 0.74520 0.04200
H 	H 	0.69873 0.87757 0.76255 0.05300
H 	H 	0.82056 0.78813 0.75336 0.04800
C 	C 	0.73532 0.86282 0.76475 -0.06300
C 	C 	0.76199 0.87634 0.77566 0.02400
C 	C 	0.83022 0.82548 0.77054 0.01900
H 	H 	0.86810 0.81252 0.77265 0.03400
H 	H 	0.99004 0.00696 0.76930 0.03100
H 	H 	0.99809 0.85297 0.76906 0.03500
C 	C 	0.81082 0.85950 0.77850 -0.08400
H 	H 	0.74654 0.90239 0.78177 0.03800
C 	C 	0.84946 0.88900 0.78887 0.30800
O 	O 	0.88035 0.95824 0.79042 -0.37500
Ni	Ni	0.91584 0.00680 0.80553 1.11200
O 	O 	0.97754 0.09259 0.79626 -0.38500
O 	O 	0.85067 0.84615 0.79661 -0.36700
O 	O 	0.98384 0.88343 0.79009 -0.38100
Ni	Ni	0.93600 0.86903 0.80549 1.11500
O 	O 	0.97044 0.96640 0.80799 -0.71200
C 	C 	0.84176 0.88112 0.82157 0.28900
O 	O 	0.95334 0.06608 0.81961 -0.37800
O 	O 	0.87953 0.85204 0.81997 -0.35700
O 	O 	0.83819 0.92443 0.81390 -0.35900
C 	C 	0.99854 0.22691 0.82026 0.08700
N 	N 	0.24639 0.39497 0.83113 -0.10700
C 	C 	0.73856 0.73419 0.81992 0.09300
N 	N 	0.55926 0.80209 0.82897 -0.10600
N 	N 	0.73869 0.69964 0.81245 -0.10700
N 	N 	0.97006 0.23255 0.81268 -0.10800
H 	H 	0.97031 0.96658 0.81633 0.16200
N 	N 	0.31833 0.95181 0.83448 -0.10400
C 	C 	0.78934 0.84930 0.83028 -0.06000
C 	C 	0.73838 0.77753 0.82927 0.02100
C 	C 	0.56191 0.78381 0.83807 0.10300
N 	N 	0.59576 0.61429 0.83602 -0.10700
C 	C 	0.26209 0.92972 0.83521 0.10200
C 	C 	0.98680 0.83121 0.84040 0.08500
N 	N 	0.93196 0.81418 0.84185 -0.09800
N 	N 	0.24543 0.63690 0.84904 -0.09800
N 	N 	0.34119 0.56184 0.85208 -0.10000
C 	C 	0.68623 0.74854 0.83718 -0.03400
C 	C 	0.68267 0.79226 0.84568 0.02100
C 	C 	0.73393 0.86370 0.84677 -0.03000
C 	C 	0.78822 0.89147 0.83930 0.01100
C 	C 	0.56534 0.76091 0.84948 -0.03500
C 	C 	0.63594 0.67387 0.83653 0.10100
C 	C 	0.84371 0.96258 0.84109 0.11300
N 	N 	0.40275 0.73078 0.84947 -0.09700
N 	N 	0.88792 0.01929 0.84258 -0.12100
C 	C 	0.29313 0.51204 0.85504 0.09500
C 	C 	0.62373 0.76365 0.85328 0.02200
C 	C 	0.73039 0.90874 0.85550 0.10300
C 	C 	0.51060 0.73677 0.85679 0.02000
C 	C 	0.45050 0.73322 0.85272 0.09700
C 	C 	0.24745 0.76917 0.86690 -0.06800
C 	C 	0.62708 0.74142 0.86436 -0.03600
C 	C 	0.51491 0.71783 0.86812 -0.06500
N 	N 	0.72750 0.94461 0.86248 -0.10400
C 	C 	0.45998 0.70068 0.87620 0.29100
C 	C 	0.27402 0.73684 0.87490 0.29400
C 	C 	0.24479 0.50690 0.87779 0.29100
O 	O 	0.43682 0.74557 0.87678 -0.36200
O 	O 	0.44521 0.64984 0.88400 -0.36500
O 	O 	0.30895 0.53175 0.87951 -0.37400
O 	O 	0.32647 0.78011 0.88125 -0.35600
H 	H 	0.32911 0.65228 0.88087 0.16400
C 	C 	0.57417 0.72182 0.87195 0.01900
C 	C 	0.68540 0.73947 0.86800 0.10100
N 	N 	0.73198 0.73796 0.87089 -0.10600
O 	O 	0.32937 0.65650 0.88919 -0.72500
C 	C 	0.25182 0.85095 0.88212 0.09500
C 	C 	0.58262 0.71081 0.88382 0.09400
Ni	Ni	0.38801 0.75430 0.89078 1.11600
Ni	Ni	0.35866 0.59201 0.89292 1.12200
O 	O 	0.24434 0.71003 0.89881 -0.37800
O 	O 	0.46376 0.75333 0.89996 -0.37100
O 	O 	0.28381 0.52326 0.90285 -0.38500
N 	N 	0.26319 0.87138 0.89136 -0.10500
N 	N 	0.58947 0.70212 0.89329 -0.10700
O 	O 	0.34877 0.76541 0.90591 -0.37800
C 	C 	0.28619 0.74604 0.90693 0.30900
C 	C 	0.45330 0.70692 0.90800 0.31300
C 	C 	0.25773 0.54573 0.91052 0.31100
O 	O 	0.40252 0.64215 0.90754 -0.39100
C 	C 	0.49899 0.72735 0.91766 -0.08600
H 	H 	0.51825 0.83596 0.91840 0.03700
H 	H 	0.49005 0.62330 0.91924 0.03500
H 	H 	0.26261 0.43163 0.91912 0.04100
C 	C 	0.26496 0.77516 0.91624 -0.08400
H 	H 	0.35384 0.87855 0.91614 0.03900
C 	C 	0.52697 0.79611 0.92230 0.02300
C 	C 	0.51058 0.67622 0.92284 0.02400
C 	C 	0.25685 0.52660 0.92255 -0.08500
C 	C 	0.25988 0.46555 0.92559 0.01900
C 	C 	0.30564 0.84572 0.91990 0.02400
C 	C 	0.56418 0.81268 0.93227 -0.06500
C 	C 	0.57378 0.76070 0.93763 0.03100
C 	C 	0.54779 0.69284 0.93277 -0.06500
H 	H 	0.58443 0.86539 0.93593 0.05200
H 	H 	0.55584 0.65275 0.93677 0.05000
H 	H 	0.70291 0.85593 0.94121 0.04600
C 	C 	0.25361 0.57010 0.93107 0.02000
C 	C 	0.25781 0.44722 0.93701 -0.06500
H 	H 	0.25273 0.61822 0.92887 0.03800
H 	H 	0.25863 0.39915 0.93927 0.04900
C 	C 	0.28340 0.87468 0.92822 -0.06400
H 	H 	0.31488 0.92934 0.93093 0.05300
C 	C 	0.60998 0.77680 0.94843 0.00100
C 	C 	0.67746 0.82732 0.94880 -0.03600
C 	C 	0.25269 0.48969 0.94547 0.02800
C 	C 	0.25136 0.55158 0.94246 -0.06500
H 	H 	0.24756 0.58474 0.94895 0.04800
H 	H 	0.76460 0.87938 0.95916 0.04300
C 	C 	0.57752 0.73991 0.95832 -0.03700
C 	C 	0.61252 0.75291 0.96847 -0.03700
C 	C 	0.68018 0.80283 0.96880 0.00000
C 	C 	0.71244 0.84031 0.95895 -0.03600
H 	H 	0.52532 0.70097 0.95811 0.04000
C 	C 	0.29467 0.46926 0.96372 -0.03800
H 	H 	0.34358 0.49229 0.96007 0.03900
H 	H 	0.77782 0.77383 0.97333 0.04800
C 	C 	0.28342 0.44137 0.97471 -0.03800
H 	H 	0.97143 0.92703 0.97449 0.03100
C 	C 	0.71738 0.81629 0.97945 0.02800
C 	C 	0.76900 0.80124 0.98020 -0.06700
H 	H 	0.58721 0.72393 0.97605 0.04000
H 	H 	0.24703 0.30379 0.98420 0.04600
H 	H 	0.32366 0.44272 0.97947 0.03800
C 	C 	0.70544 0.85029 0.98850 -0.06600
C 	C 	0.74786 0.87387 0.99784 0.01600
C 	C 	0.80282 0.86402 0.99816 -0.09200
C 	C 	0.81149 0.82484 0.98952 0.01900
H 	H 	0.66501 0.86113 0.98807 0.04900
H 	H 	0.85329 0.81623 0.98969 0.03800
O 	O 	0.97708 0.99376 0.99410 -0.37500
