data_crystal

_cell_length_a 49.00588
_cell_length_b 46.94295
_cell_length_c 29.09620
_cell_angle_alpha 89.58374
_cell_angle_beta  90.00002
_cell_angle_gamma 89.99937

_symmetry_space_group_name_	'P 1'
_symmetry_space_group_name_H-M	'P 1'

loop_
_symmetry_equiv_pos_as_xyz
  x,y,z

loop_
_atom_site_label
_atom_site_type_symbol
_atom_site_fract_x
_atom_site_fract_y
_atom_site_fract_z
_atom_site_charge
C 	C 	0.48357 0.54708 0.97676 0.10400
N 	N 	0.47348 0.52569 0.00262 -0.17200
C 	C 	0.44712 0.52285 0.99056 0.10400
C 	C 	0.42766 0.50434 0.01586 -0.07100
C 	C 	0.43785 0.47869 0.04040 0.09000
C 	C 	0.39819 0.51099 0.01549 0.04000
C 	C 	0.38823 0.53417 0.04055 -0.05100
C 	C 	0.36025 0.54000 0.04121 -0.03400
C 	C 	0.34205 0.52268 0.01677 0.01600
C 	C 	0.38008 0.49390 0.99055 -0.05000
N 	N 	0.46204 0.46647 0.03081 -0.12800
C 	C 	0.42274 0.46202 0.07042 -0.05900
C 	C 	0.46262 0.44217 0.05560 0.09000
C 	C 	0.48246 0.41922 0.04632 -0.07000
C 	C 	0.47308 0.38939 0.04213 0.04200
C 	C 	0.44533 0.35389 0.00389 -0.03400
C 	C 	0.48519 0.36787 0.06892 -0.04900
C 	C 	0.47761 0.33944 0.06287 -0.03300
C 	C 	0.45779 0.33233 0.03012 0.01600
N 	N 	0.52365 0.45016 0.05390 -0.17400
C 	C 	0.54786 0.45194 0.03221 0.10200
C 	C 	0.55148 0.42905 0.00315 -0.05800
C 	C 	0.52825 0.41249 0.00735 -0.05900
C 	C 	0.56500 0.47782 0.03163 -0.07200
C 	C 	0.59493 0.47505 0.02966 0.04500
C 	C 	0.63706 0.47657 0.98598 -0.03200
C 	C 	0.65203 0.47142 0.02635 0.01600
C 	C 	0.63824 0.46786 0.06832 -0.03200
C 	C 	0.60978 0.46950 0.06988 -0.05000
N 	N 	0.53404 0.51500 0.00099 -0.12600
C 	C 	0.55109 0.55321 0.03761 -0.05800
C 	C 	0.53312 0.54367 0.00445 0.09000
C 	C 	0.51011 0.56085 0.98647 -0.07200
C 	C 	0.51381 0.59173 0.97844 0.04200
C 	C 	0.53342 0.60140 0.94685 -0.04900
C 	C 	0.53850 0.63056 0.94188 -0.03300
C 	C 	0.52406 0.65025 0.96856 0.01500
C 	C 	0.50408 0.64060 0.99953 -0.03300
C 	C 	0.49898 0.61144 0.00445 -0.05200
C 	C 	0.46357 0.55816 0.94805 -0.05900
C 	C 	0.44016 0.54254 0.95687 -0.06000
C 	C 	0.35210 0.49969 0.99123 -0.03300
C 	C 	0.43861 0.43849 0.08005 -0.05700
C 	C 	0.51166 0.42613 0.03885 0.10200
C 	C 	0.56377 0.52932 0.05495 -0.05800
C 	C 	0.55248 0.50635 0.03248 0.09000
C 	C 	0.60862 0.47857 0.98772 -0.04900
H 	H 	0.48147 0.51950 0.03448 0.09900
H 	H 	0.51386 0.46686 0.07082 0.09800
H 	H 	0.55394 0.63782 0.91786 0.04900
H 	H 	0.49273 0.65567 0.02009 0.04900
H 	H 	0.54495 0.58631 0.92662 0.05300
H 	H 	0.48386 0.60413 0.02901 0.05000
H 	H 	0.35268 0.55776 0.06107 0.04900
H 	H 	0.38766 0.47604 0.97094 0.05200
H 	H 	0.33824 0.48630 0.97204 0.04900
H 	H 	0.40212 0.54751 0.05977 0.05000
H 	H 	0.48723 0.32293 0.08342 0.05100
H 	H 	0.50063 0.37315 0.09410 0.05300
C 	C 	0.45300 0.38231 0.00977 -0.05000
H 	H 	0.43001 0.34858 0.97851 0.04900
H 	H 	0.64745 0.47910 0.95335 0.05000
H 	H 	0.59723 0.48281 0.95650 0.05400
H 	H 	0.59931 0.46685 0.10242 0.05200
H 	H 	0.64959 0.46409 0.09974 0.05000
H 	H 	0.46388 0.57923 0.93269 0.05500
H 	H 	0.41963 0.54963 0.94923 0.05500
H 	H 	0.40081 0.46299 0.07464 0.05400
H 	H 	0.43082 0.41826 0.09242 0.05400
H 	H 	0.56496 0.42897 0.97366 0.05700
H 	H 	0.52114 0.39774 0.98156 0.05700
H 	H 	0.54952 0.57333 0.05538 0.05400
H 	H 	0.57542 0.52827 0.08652 0.05400
H 	H 	0.44366 0.39876 0.98874 0.05200
Co	Co	0.39802 0.07820 0.94103 1.18900
Co	Co	0.40658 0.01326 0.92384 1.11700
O 	O 	0.39003 0.11946 0.95647 -0.34500
O 	O 	0.43196 0.10918 0.96779 -0.29200
O 	O 	0.36300 0.06289 0.91864 -0.36800
O 	O 	0.40098 0.03377 0.86453 -0.39200
C 	C 	0.35233 0.03936 0.93571 0.33300
C 	C 	0.41336 0.12853 0.97022 0.30900
O 	O 	0.36813 0.01834 0.94951 -0.38300
O 	O 	0.41853 0.07701 0.88425 -0.39900
C 	C 	0.41447 0.05704 0.85365 0.31700
O 	O 	0.39816 0.06084 0.00103 -0.36700
O 	O 	0.42834 0.02806 0.97584 -0.45300
C 	C 	0.41619 0.04102 0.01006 0.31900
S 	S 	0.52027 0.97856 0.38381 0.02300
C 	C 	0.51602 0.99333 0.33025 -0.01000
C 	C 	0.49166 0.00954 0.32749 -0.01100
S 	S 	0.47424 0.00905 0.37860 0.02300
C 	C 	0.49268 0.98827 0.41406 -0.00600
C 	C 	0.49134 0.98918 0.46447 -0.00500
S 	S 	0.47424 0.01368 0.49479 0.02500
C 	C 	0.48857 0.01299 0.54851 -0.01100
C 	C 	0.51030 0.99314 0.55143 -0.01000
S 	S 	0.51535 0.97620 0.50004 0.02300
C 	C 	0.45265 0.04585 0.67085 0.03600
C 	C 	0.45156 0.01655 0.66187 0.00200
C 	C 	0.46196 0.00596 0.62075 -0.02200
C 	C 	0.47434 0.02447 0.58892 0.03300
C 	C 	0.47410 0.05391 0.59672 -0.02600
C 	C 	0.46289 0.06462 0.63730 -0.00200
H 	H 	0.44295 0.00199 0.68703 0.10200
H 	H 	0.46109 0.98329 0.61419 0.07300
H 	H 	0.48302 0.06841 0.57179 0.06400
H 	H 	0.46269 0.08739 0.64307 0.08900
C 	C 	0.53193 0.96099 0.68427 0.02600
C 	C 	0.53727 0.98953 0.67283 0.00600
C 	C 	0.53163 0.99971 0.62855 -0.02300
C 	C 	0.52050 0.98144 0.59546 0.03300
C 	C 	0.51646 0.95254 0.60637 -0.03300
C 	C 	0.52239 0.94233 0.65047 -0.00100
H 	H 	0.54524 0.00392 0.69849 0.10300
H 	H 	0.53504 0.02198 0.62040 0.07900
H 	H 	0.50775 0.93825 0.58126 0.06000
H 	H 	0.51876 0.92013 0.65882 0.07200
C 	C 	0.55629 0.96325 0.20965 0.03600
C 	C 	0.52935 0.95498 0.21909 0.00300
C 	C 	0.51671 0.96359 0.25961 -0.02300
C 	C 	0.53027 0.98200 0.28972 0.03700
C 	C 	0.55771 0.98897 0.28170 -0.02200
C 	C 	0.57092 0.97898 0.24230 0.00200
H 	H 	0.51821 0.94194 0.19491 0.07900
H 	H 	0.49634 0.95609 0.26749 0.05800
H 	H 	0.56872 0.00219 0.30577 0.06600
H 	H 	0.59220 0.98407 0.23661 0.09100
C 	C 	0.45665 0.02620 0.19549 0.02700
C 	C 	0.47597 0.04511 0.21376 0.00600
C 	C 	0.48724 0.03989 0.25722 -0.02100
C 	C 	0.47814 0.01668 0.28367 0.03500
C 	C 	0.45712 0.99928 0.26700 -0.03500
C 	C 	0.44682 0.00366 0.22275 -0.01000
H 	H 	0.48262 0.06346 0.19398 0.09300
H 	H 	0.50313 0.05372 0.27015 0.07300
H 	H 	0.44970 0.98155 0.28750 0.05500
H 	H 	0.43151 0.98929 0.20936 0.06400
Co	Co	0.59086 0.91001 0.94150 1.19300
Co	Co	0.52847 0.91388 0.96000 1.11400
O 	O 	0.63096 0.90748 0.92420 -0.32200
O 	O 	0.62102 0.94820 0.95168 -0.28600
O 	O 	0.57553 0.87199 0.92849 -0.37100
O 	O 	0.55085 0.93793 0.00152 -0.43600
C 	C 	0.55819 0.85952 0.95678 0.31800
C 	C 	0.63985 0.93243 0.93429 0.31700
O 	O 	0.54169 0.87494 0.98211 -0.38400
O 	O 	0.58780 0.90932 0.00744 -0.36500
C 	C 	0.57014 0.92633 0.02679 0.31900
O 	O 	0.57602 0.93081 0.88972 -0.37500
O 	O 	0.53452 0.90890 0.89307 -0.43300
C 	C 	0.55303 0.92335 0.87005 0.32200
Co	Co	0.09320 0.58694 0.01969 1.19300
Co	Co	0.03049 0.58069 0.00437 1.11700
O 	O 	0.13371 0.59122 0.03310 -0.33100
O 	O 	0.12361 0.54855 0.01484 -0.25300
O 	O 	0.07750 0.62543 0.02632 -0.37500
O 	O 	0.05233 0.55338 0.96762 -0.39200
C 	C 	0.05933 0.63541 0.99700 0.31300
C 	C 	0.14267 0.56574 0.02737 0.30400
O 	O 	0.04345 0.61778 0.97447 -0.41800
O 	O 	0.08836 0.58246 0.95451 -0.40900
C 	C 	0.07167 0.56268 0.94014 0.32400
O 	O 	0.08014 0.57001 0.07621 -0.36600
O 	O 	0.03786 0.59008 0.06959 -0.42400
C 	C 	0.05642 0.57673 0.09414 0.32500
S 	S 	0.01629 0.52238 0.58004 0.03800
C 	C 	0.01093 0.50545 0.63157 -0.01300
C 	C 	0.98562 0.49102 0.63225 -0.01400
S 	S 	0.96845 0.49514 0.58133 0.02900
C 	C 	0.98831 0.51610 0.54836 -0.00700
C 	C 	0.98801 0.51600 0.49790 -0.00700
S 	S 	0.97604 0.48895 0.46621 0.03900
C 	C 	0.99294 0.49102 0.41475 -0.01400
C 	C 	0.01190 0.51370 0.41422 -0.01300
S 	S 	0.01181 0.53188 0.46506 0.02900
C 	C 	0.96150 0.45702 0.28957 0.04100
C 	C 	0.95430 0.48461 0.30329 0.02200
C 	C 	0.96387 0.49535 0.34490 -0.01800
C 	C 	0.98136 0.47891 0.37253 0.04100
C 	C 	0.98875 0.45143 0.35873 -0.02800
C 	C 	0.97890 0.44052 0.31730 0.00300
H 	H 	0.94144 0.49776 0.28153 0.10600
H 	H 	0.95813 0.51664 0.35528 0.07100
H 	H 	0.00239 0.43868 0.37977 0.06200
H 	H 	0.98486 0.41935 0.30665 0.07200
C 	C 	0.03607 0.54529 0.28277 0.02400
C 	C 	0.04786 0.52027 0.30034 0.00100
C 	C 	0.04098 0.51060 0.34437 -0.03100
C 	C 	0.02270 0.52621 0.37142 0.03500
C 	C 	0.01237 0.55224 0.35496 -0.03300
C 	C 	0.01913 0.56180 0.31083 -0.00100
H 	H 	0.06144 0.50773 0.27917 0.07700
H 	H 	0.04911 0.49053 0.35687 0.06200
H 	H 	0.99818 0.56441 0.37554 0.06100
H 	H 	0.01040 0.58146 0.29780 0.07300
C 	C 	0.05050 0.52979 0.75617 0.04200
C 	C 	0.02633 0.54338 0.74229 0.02300
C 	C 	0.01400 0.53618 0.70072 -0.01900
C 	C 	0.02504 0.51444 0.67364 0.04000
C 	C 	0.04910 0.50074 0.68749 -0.02500
C 	C 	0.06187 0.50845 0.72856 0.00100
H 	H 	0.01692 0.55923 0.76404 0.09800
H 	H 	0.99555 0.54707 0.69001 0.06500
H 	H 	0.05776 0.48395 0.66670 0.06300
H 	H 	0.08039 0.49767 0.73917 0.07400
C 	C 	0.95155 0.47359 0.76422 0.02600
C 	C 	0.96930 0.45385 0.74401 -0.00100
C 	C 	0.97967 0.45895 0.69994 -0.03000
C 	C 	0.97155 0.48325 0.67519 0.03500
C 	C 	0.95222 0.50184 0.69409 -0.03500
C 	C 	0.94240 0.49714 0.73857 -0.00600
H 	H 	0.97570 0.43507 0.76297 0.08300
H 	H 	0.99448 0.44442 0.68549 0.06400
H 	H 	0.94581 0.52064 0.67517 0.05800
H 	H 	0.92832 0.51222 0.75362 0.06700
Co	Co	0.90103 0.42061 0.02392 1.18900
Co	Co	0.90947 0.48645 0.03830 1.12800
O 	O 	0.89243 0.37927 0.00994 -0.35200
O 	O 	0.93421 0.38906 0.99624 -0.27100
O 	O 	0.86654 0.43642 0.04774 -0.40200
O 	O 	0.90569 0.46577 0.09775 -0.42100
C 	C 	0.85532 0.45942 0.02977 0.33100
C 	C 	0.91543 0.36984 0.99526 0.30600
O 	O 	0.87062 0.48057 0.01485 -0.38600
O 	O 	0.92244 0.42200 0.07974 -0.37400
C 	C 	0.92092 0.44363 0.10798 0.32500
O 	O 	0.90006 0.43735 0.96341 -0.36100
O 	O 	0.93029 0.47094 0.98584 -0.42200
C 	C 	0.91757 0.45742 0.95280 0.31400
C 	C 	0.98102 0.94710 0.97335 0.10300
N 	N 	0.97088 0.96984 0.95076 -0.17200
C 	C 	0.94484 0.97262 0.96466 0.10200
C 	C 	0.92516 0.99229 0.94230 -0.07100
C 	C 	0.93518 0.01879 0.92000 0.09000
C 	C 	0.89565 0.98588 0.94324 0.04100
C 	C 	0.88510 0.96395 0.91604 -0.05000
C 	C 	0.85706 0.95843 0.91588 -0.03400
C 	C 	0.83940 0.97480 0.94298 0.01600
C 	C 	0.87807 0.00202 0.97076 -0.05100
N 	N 	0.95951 0.03057 0.92997 -0.12800
C 	C 	0.91985 0.03646 0.89183 -0.05800
C 	C 	0.95993 0.05566 0.90727 0.09000
C 	C 	0.98020 0.07807 0.91733 -0.07100
C 	C 	0.97140 0.10803 0.92264 0.04200
C 	C 	0.94449 0.14361 0.96236 -0.03300
C 	C 	0.98362 0.12961 0.89612 -0.04900
C 	C 	0.97649 0.15809 0.90298 -0.03300
C 	C 	0.95701 0.16521 0.93630 0.01600
N 	N 	0.02094 0.04699 0.90587 -0.17500
C 	C 	0.04542 0.04430 0.92649 0.10200
C 	C 	0.04959 0.06617 0.95736 -0.05700
C 	C 	0.02646 0.08303 0.95539 -0.05900
C 	C 	0.06230 0.01827 0.92432 -0.07200
C 	C 	0.09223 0.02056 0.92715 0.04500
C 	C 	0.13397 0.01745 0.97167 -0.03200
C 	C 	0.14931 0.02395 0.93217 0.01600
C 	C 	0.13589 0.02886 0.89019 -0.03200
C 	C 	0.10745 0.02734 0.88779 -0.05000
N 	N 	0.03138 0.98002 0.95132 -0.12600
C 	C 	0.04769 0.94355 0.90953 -0.05800
C 	C 	0.03022 0.95163 0.94440 0.09000
C 	C 	0.00745 0.93375 0.96138 -0.07200
C 	C 	0.01157 0.90277 0.96765 0.04200
C 	C 	0.03201 0.89272 0.99738 -0.04800
C 	C 	0.03741 0.86355 0.00069 -0.03400
C 	C 	0.02242 0.84417 0.97425 0.01600
C 	C 	0.00162 0.85417 0.94513 -0.03200
C 	C 	0.99624 0.88337 0.94181 -0.05300
C 	C 	0.96140 0.93510 0.00183 -0.06000
C 	C 	0.93815 0.95151 0.99625 -0.05800
C 	C 	0.85004 0.99652 0.97061 -0.03300
C 	C 	0.93571 0.06021 0.88379 -0.05800
C 	C 	0.00936 0.07058 0.92340 0.10200
C 	C 	0.06032 0.96809 0.89468 -0.05800
C 	C 	0.04948 0.99001 0.92030 0.09000
C 	C 	0.10556 0.01558 0.96905 -0.05000
H 	H 	0.97841 0.97743 0.91936 0.09900
H 	H 	0.01081 0.03098 0.88784 0.09800
H 	H 	0.05336 0.85601 0.02351 0.04900
H 	H 	0.98995 0.83938 0.92457 0.04800
H 	H 	0.04390 0.90755 0.01753 0.05300
H 	H 	0.98051 0.89096 0.91862 0.05000
H 	H 	0.84903 0.94165 0.89438 0.05000
H 	H 	0.88611 0.01893 0.99198 0.05200
H 	H 	0.83659 0.00917 0.99184 0.04900
H 	H 	0.89858 0.95135 0.89479 0.05100
H 	H 	0.98616 0.17463 0.88254 0.05100
H 	H 	0.99877 0.12432 0.87044 0.05300
C 	C 	0.95171 0.11513 0.95566 -0.05000
H 	H 	0.92943 0.14893 0.98819 0.04900
H 	H 	0.14408 0.01386 0.00431 0.04900
H 	H 	0.09388 0.01035 0.99960 0.05400
H 	H 	0.09726 0.03111 0.85527 0.05200
H 	H 	0.14752 0.03365 0.85942 0.05100
H 	H 	0.96163 0.91343 0.01474 0.05500
H 	H 	0.91764 0.94447 0.00419 0.05500
H 	H 	0.89789 0.03567 0.88804 0.05400
H 	H 	0.92791 0.08081 0.87322 0.05400
H 	H 	0.06342 0.06517 0.98633 0.05600
H 	H 	0.01979 0.09699 0.98264 0.05700
H 	H 	0.04577 0.92432 0.88947 0.05400
H 	H 	0.07164 0.97055 0.86295 0.05400
H 	H 	0.94228 0.09864 0.97650 0.05200
C 	C 	0.93757 0.25200 0.96131 0.06100
N 	N 	0.96282 0.24152 0.97138 -0.09800
C 	C 	0.96938 0.21380 0.96353 0.03000
C 	C 	0.95008 0.19530 0.94444 -0.01300
C 	C 	0.92417 0.20571 0.93321 -0.01200
C 	C 	0.91789 0.23419 0.94135 -0.05400
H 	H 	0.98957 0.20610 0.97229 0.04400
H 	H 	0.90905 0.19185 0.91799 0.04400
H 	H 	0.89802 0.24244 0.93187 0.05700
C 	C 	0.92099 0.33935 0.98766 -0.08500
C 	C 	0.90158 0.31872 0.99976 0.04200
C 	C 	0.90686 0.29006 0.99136 -0.07200
C 	C 	0.93144 0.28220 0.97021 0.07600
N 	N 	0.95026 0.30252 0.95928 -0.10400
C 	C 	0.94556 0.33064 0.96734 0.08000
H 	H 	0.88254 0.32481 0.01583 0.05200
H 	H 	0.89209 0.27405 0.00157 0.06300
H 	H 	0.96084 0.34622 0.95764 0.06300
C 	C 	0.91578 0.46293 0.82221 0.00400
C 	C 	0.94298 0.47006 0.81264 0.08100
C 	C 	0.96140 0.47491 0.84928 -0.13400
C 	C 	0.95302 0.46885 0.89448 0.07000
C 	C 	0.92565 0.46233 0.90430 -0.01600
C 	C 	0.90637 0.46129 0.86782 -0.07500
C 	C 	0.87593 0.45867 0.87694 0.77400
H 	H 	0.90178 0.45939 0.79397 0.08700
H 	H 	0.96775 0.46948 0.92224 0.09700
C 	C 	0.99007 0.48600 0.84047 0.78500
F 	F 	0.86088 0.46685 0.83878 -0.43900
F 	F 	0.86818 0.47604 0.91286 -0.44900
F 	F 	0.86953 0.43069 0.88742 -0.43600
F 	F 	0.98964 0.50804 0.80870 -0.47000
F 	F 	0.00631 0.46421 0.82420 -0.44800
F 	F 	0.00169 0.49640 0.88032 -0.42800
C 	C 	0.97042 0.44638 0.20758 0.01600
C 	C 	0.95217 0.44620 0.24467 0.09800
C 	C 	0.92443 0.43930 0.23719 -0.14100
C 	C 	0.91462 0.43784 0.19190 0.08600
C 	C 	0.93242 0.44099 0.15449 -0.02100
C 	C 	0.96077 0.44424 0.16220 -0.05800
C 	C 	0.98053 0.44649 0.12210 0.77800
H 	H 	0.99196 0.44943 0.21411 0.12500
H 	H 	0.89298 0.43501 0.18563 0.07500
C 	C 	0.90497 0.43494 0.27718 0.79200
F 	F 	0.00723 0.44972 0.13671 -0.41000
F 	F 	0.97387 0.46978 0.09493 -0.44900
F 	F 	0.97910 0.42205 0.09597 -0.42800
F 	F 	0.89639 0.46109 0.29321 -0.44400
F 	F 	0.91762 0.42009 0.31249 -0.44200
F 	F 	0.88229 0.41945 0.26393 -0.43400
C 	C 	0.04659 0.72493 0.98419 0.07700
N 	N 	0.02751 0.70612 0.96899 -0.10900
C 	C 	0.03145 0.67747 0.97208 0.07900
C 	C 	0.05547 0.66652 0.99176 -0.09300
C 	C 	0.07533 0.68556 0.00762 0.04700
C 	C 	0.07086 0.71482 0.00406 -0.07200
H 	H 	0.01570 0.66323 0.95988 0.03800
H 	H 	0.09409 0.67775 0.02285 0.06000
H 	H 	0.08593 0.72953 0.01724 0.06600
C 	C 	0.02896 0.81352 0.97622 -0.01300
C 	C 	0.05459 0.80375 0.96216 -0.01200
C 	C 	0.06059 0.77476 0.96473 -0.05300
C 	C 	0.04090 0.75572 0.98178 0.06000
N 	N 	0.01591 0.76560 0.99467 -0.10000
C 	C 	0.00965 0.79384 0.99242 0.03100
H 	H 	0.06972 0.81855 0.94905 0.04400
H 	H 	0.08026 0.76710 0.95315 0.05700
H 	H 	0.98970 0.80101 0.00340 0.04100
C 	C 	0.06225 0.51606 0.83636 0.01600
C 	C 	0.06288 0.53660 0.80113 0.09800
C 	C 	0.07286 0.56426 0.81058 -0.14300
C 	C 	0.07629 0.57247 0.85656 0.08200
C 	C 	0.07323 0.55251 0.89232 -0.02300
C 	C 	0.06920 0.52342 0.88159 -0.05300
C 	C 	0.07211 0.50025 0.91788 0.77700
H 	H 	0.05583 0.49452 0.82870 0.12800
H 	H 	0.08050 0.59456 0.86460 0.07600
C 	C 	0.07887 0.58541 0.77222 0.79200
F 	F 	0.07845 0.47440 0.89789 -0.41400
F 	F 	0.04786 0.49727 0.94170 -0.39700
F 	F 	0.09282 0.50676 0.94839 -0.43100
F 	F 	0.05522 0.59966 0.76020 -0.44800
F 	F 	0.08923 0.57174 0.73402 -0.44100
F 	F 	0.09805 0.60521 0.78618 -0.43500
C 	C 	0.02881 0.55195 0.15328 0.07800
C 	C 	0.05080 0.56994 0.14270 -0.02000
C 	C 	0.06714 0.58113 0.17848 -0.06600
C 	C 	0.06252 0.57194 0.22392 0.00100
C 	C 	0.04071 0.55372 0.23444 0.08700
C 	C 	0.02340 0.54385 0.19899 -0.13400
C 	C 	0.99904 0.52492 0.20997 0.79000
H 	H 	0.01612 0.54407 0.12566 0.07000
H 	H 	0.07578 0.57907 0.25134 0.09000
C 	C 	0.08989 0.60227 0.16834 0.77100
F 	F 	0.98523 0.51678 0.17069 -0.43700
F 	F 	0.98096 0.53939 0.23783 -0.46300
F 	F 	0.00771 0.50053 0.23245 -0.46100
F 	F 	0.08101 0.62311 0.13797 -0.44200
F 	F 	0.11190 0.58812 0.14944 -0.43600
F 	F 	0.09856 0.61575 0.20791 -0.43600
C 	C 	0.72451 0.95266 0.93883 0.07700
N 	N 	0.71579 0.92747 0.92110 -0.10400
C 	C 	0.68881 0.92066 0.91936 0.08300
C 	C 	0.66916 0.93958 0.93652 -0.08100
C 	C 	0.67777 0.96546 0.95533 0.04300
C 	C 	0.70550 0.97198 0.95675 -0.06900
H 	H 	0.68264 0.90057 0.90456 0.06400
H 	H 	0.66307 0.98042 0.96894 0.06100
H 	H 	0.71220 0.99177 0.97198 0.06800
C 	C 	0.80973 0.96954 0.94182 -0.01300
C 	C 	0.79187 0.99071 0.92606 -0.01200
C 	C 	0.76389 0.98542 0.92514 -0.05300
C 	C 	0.75393 0.95896 0.94037 0.06100
N 	N 	0.77169 0.93848 0.95507 -0.09900
C 	C 	0.79909 0.94324 0.95627 0.03000
H 	H 	0.79966 0.01109 0.91425 0.04400
H 	H 	0.75007 0.00161 0.91220 0.05900
H 	H 	0.81261 0.92659 0.96854 0.04300
C 	C 	0.52253 0.94462 0.81124 0.07900
C 	C 	0.54756 0.93168 0.82189 -0.02400
C 	C 	0.56678 0.92653 0.78642 -0.06600
C 	C 	0.56170 0.93749 0.74212 0.00100
C 	C 	0.53671 0.95048 0.73157 0.09000
C 	C 	0.51639 0.95302 0.76592 -0.13800
C 	C 	0.48853 0.96545 0.75469 0.78900
H 	H 	0.50789 0.94827 0.83848 0.05500
H 	H 	0.57710 0.93567 0.71554 0.09000
C 	C 	0.59285 0.90988 0.79557 0.77100
F 	F 	0.47065 0.96287 0.79133 -0.46100
F 	F 	0.47713 0.95144 0.71770 -0.46000
F 	F 	0.49119 0.99400 0.74401 -0.43300
F 	F 	0.58761 0.88624 0.82288 -0.44900
F 	F 	0.61160 0.92720 0.81727 -0.43800
F 	F 	0.60432 0.90029 0.75504 -0.43700
C 	C 	0.57339 0.92620 0.15696 0.00400
C 	C 	0.56894 0.95518 0.16548 0.08500
C 	C 	0.57114 0.97517 0.12892 -0.11600
C 	C 	0.57376 0.96516 0.08367 0.08000
C 	C 	0.57422 0.93586 0.07460 -0.01500
C 	C 	0.57561 0.91611 0.11169 -0.07500
C 	C 	0.57888 0.88438 0.10323 0.77500
H 	H 	0.57315 0.91133 0.18560 0.08800
H 	H 	0.57470 0.98013 0.05519 0.09200
C 	C 	0.57342 0.00690 0.13834 0.79400
F 	F 	0.57883 0.86882 0.14383 -0.44000
F 	F 	0.60339 0.87933 0.08121 -0.43100
F 	F 	0.55762 0.87460 0.07640 -0.45600
F 	F 	0.59820 0.01238 0.15917 -0.44300
F 	F 	0.55262 0.01591 0.16681 -0.40200
F 	F 	0.57198 0.02286 0.09822 -0.40600
C 	C 	0.26606 0.03029 0.93785 0.08300
N 	N 	0.27804 0.05547 0.94925 -0.10200
C 	C 	0.30564 0.05869 0.94895 0.09600
C 	C 	0.32253 0.03587 0.93669 -0.07900
C 	C 	0.31064 0.00988 0.92463 0.05600
C 	C 	0.28233 0.00711 0.92469 -0.07100
H 	H 	0.31447 0.07896 0.95846 0.05800
H 	H 	0.32326 0.99208 0.91433 0.04500
H 	H 	0.27311 0.98731 0.91381 0.06600
C 	C 	0.17939 0.02532 0.93466 -0.01200
C 	C 	0.19436 0.00217 0.95174 -0.01200
C 	C 	0.22274 0.00368 0.95341 -0.05200
C 	C 	0.23604 0.02820 0.93690 0.06200
N 	N 	0.22107 0.05070 0.92109 -0.09600
C 	C 	0.19332 0.04978 0.91968 0.03100
H 	H 	0.18405 0.98307 0.96360 0.04400
H 	H 	0.23429 0.98605 0.96769 0.05800
H 	H 	0.18209 0.06808 0.90700 0.04500
C 	C 	0.41478 0.05691 0.72411 0.00800
C 	C 	0.44292 0.05665 0.71547 0.08700
C 	C 	0.46148 0.06237 0.75163 -0.11700
C 	C 	0.45151 0.06430 0.79688 0.07500
C 	C 	0.42354 0.06157 0.80591 -0.01400
C 	C 	0.40482 0.06060 0.76893 -0.06900
C 	C 	0.37427 0.06220 0.77714 0.77500
H 	H 	0.40068 0.05312 0.69609 0.08800
H 	H 	0.46552 0.06699 0.82531 0.08000
C 	C 	0.49131 0.06888 0.74165 0.79300
F 	F 	0.36071 0.07096 0.73775 -0.43400
F 	F 	0.36834 0.08154 0.81141 -0.43700
F 	F 	0.36460 0.03562 0.78985 -0.43700
F 	F 	0.49313 0.09448 0.71805 -0.44400
F 	F 	0.50295 0.04767 0.71541 -0.42600
F 	F 	0.50642 0.07112 0.78167 -0.42800
C 	C 	0.45379 0.03081 0.06497 0.07500
C 	C 	0.42598 0.03640 0.05773 -0.02500
C 	C 	0.40797 0.03717 0.09597 -0.07200
C 	C 	0.41895 0.03619 0.14063 0.00100
C 	C 	0.44661 0.02987 0.14775 0.08400
C 	C 	0.46391 0.02539 0.10935 -0.14300
C 	C 	0.49356 0.01671 0.11527 0.79600
H 	H 	0.46758 0.03057 0.03586 0.07700
H 	H 	0.40581 0.03953 0.17008 0.08700
C 	C 	0.37722 0.03888 0.08975 0.77300
F 	F 	0.50383 0.00501 0.07528 -0.44100
F 	F 	0.49643 0.99648 0.14973 -0.44600
F 	F 	0.50886 0.04051 0.12578 -0.41000
F 	F 	0.36874 0.02129 0.05456 -0.44800
F 	F 	0.36975 0.06667 0.07994 -0.43500
F 	F 	0.36370 0.03027 0.12927 -0.44000
C 	C 	0.43720 0.24578 0.00583 0.06000
N 	N 	0.46245 0.25598 0.99497 -0.09800
C 	C 	0.46940 0.28360 0.00273 0.03000
C 	C 	0.45053 0.30229 0.02255 -0.01200
C 	C 	0.42468 0.29214 0.03469 -0.01200
C 	C 	0.41799 0.26376 0.02665 -0.05400
H 	H 	0.48955 0.29109 0.99327 0.04500
H 	H 	0.40988 0.30616 0.05047 0.04400
H 	H 	0.39814 0.25572 0.03677 0.05700
C 	C 	0.41932 0.15887 0.97839 -0.08800
C 	C 	0.39999 0.17982 0.96739 0.04300
C 	C 	0.40568 0.20834 0.97622 -0.07200
C 	C 	0.43058 0.21574 0.99672 0.07700
N 	N 	0.44929 0.19511 0.00662 -0.10500
C 	C 	0.44419 0.16713 0.99811 0.08000
H 	H 	0.38071 0.17408 0.95178 0.05600
H 	H 	0.39098 0.22460 0.96682 0.06400
H 	H 	0.45941 0.15129 0.00699 0.05700
C 	C 	0.25673 0.53918 0.02075 0.06100
N 	N 	0.27436 0.55876 0.00274 -0.10000
C 	C 	0.30172 0.55381 0.00117 0.02900
C 	C 	0.31245 0.52824 0.01864 -0.01300
C 	C 	0.29474 0.50806 0.03790 -0.01200
C 	C 	0.26681 0.51354 0.03918 -0.05400
H 	H 	0.31513 0.56969 0.98621 0.04200
H 	H 	0.30263 0.48830 0.05207 0.04400
H 	H 	0.25311 0.49815 0.05476 0.05900
C 	C 	0.17197 0.55866 0.02469 -0.07600
C 	C 	0.18042 0.53186 0.00930 0.03800
C 	C 	0.20814 0.52533 0.00776 -0.06700
C 	C 	0.22732 0.54558 0.02218 0.07500
N 	N 	0.21876 0.57168 0.03647 -0.10500
C 	C 	0.19178 0.57852 0.03821 0.07700
H 	H 	0.16559 0.51618 0.99843 0.07600
H 	H 	0.21471 0.50478 0.99517 0.06900
H 	H 	0.18574 0.59935 0.05029 0.06100
C 	C 	0.73885 0.46818 0.02496 0.06100
N 	N 	0.72395 0.44597 0.04199 -0.09800
C 	C 	0.69618 0.44654 0.04229 0.03000
C 	C 	0.68215 0.47031 0.02484 -0.01200
C 	C 	0.69707 0.49311 0.00642 -0.01200
C 	C 	0.72547 0.49195 0.00594 -0.05300
H 	H 	0.68499 0.42850 0.05605 0.04400
H 	H 	0.68669 0.51168 0.99266 0.04400
H 	H 	0.73700 0.50929 0.99070 0.05900
C 	C 	0.82543 0.46214 0.02858 -0.09000
C 	C 	0.81296 0.48818 0.03852 0.05300
C 	C 	0.78462 0.49039 0.03747 -0.07400
C 	C 	0.76889 0.46657 0.02545 0.08100
N 	N 	0.78143 0.44132 0.01628 -0.10400
C 	C 	0.80908 0.43865 0.01757 0.09200
H 	H 	0.82516 0.50652 0.04778 0.03800
H 	H 	0.77493 0.51030 0.04660 0.06300
H 	H 	0.81836 0.41833 0.00966 0.05300
C 	C 	0.54281 0.73857 0.95986 0.06000
N 	N 	0.54779 0.72347 0.99916 -0.09700
C 	C 	0.54201 0.69517 0.00242 0.02900
C 	C 	0.53043 0.68087 0.96508 -0.01200
C 	C 	0.52504 0.69598 0.92448 -0.01300
C 	C 	0.53110 0.72496 0.92184 -0.05400
H 	H 	0.54640 0.68377 0.03406 0.04300
H 	H 	0.51594 0.68537 0.89530 0.04400
H 	H 	0.52627 0.73686 0.89086 0.05600
C 	C 	0.55599 0.82815 0.95800 -0.08000
C 	C 	0.56470 0.81185 0.92059 0.03700
C 	C 	0.56077 0.78243 0.92111 -0.06800
C 	C 	0.54787 0.76950 0.95894 0.07400
N 	N 	0.54035 0.78557 0.99561 -0.10300
C 	C 	0.54406 0.81430 0.99591 0.07700
H 	H 	0.57407 0.82194 0.89095 0.07200
H 	H 	0.56764 0.76978 0.89235 0.06600
H 	H 	0.53765 0.82637 0.02558 0.08100
