data_crystal

_cell_length_a 43.62615
_cell_length_b 43.98386
_cell_length_c 33.66014
_cell_angle_alpha 90.64054
_cell_angle_beta  89.30128
_cell_angle_gamma 120.01803

_symmetry_space_group_name_	'P 1'
_symmetry_space_group_name_H-M	'P 1'

loop_
_symmetry_equiv_pos_as_xyz
  x,y,z

loop_
_atom_site_label
_atom_site_type_symbol
_atom_site_fract_x
_atom_site_fract_y
_atom_site_fract_z
_atom_site_charge
Ni	Ni	0.43764 0.24354 0.00180 1.11500
O 	O 	0.46071 0.21486 0.01768 -0.69400
Ni	Ni	0.45936 0.21748 0.07710 1.11100
O 	O 	0.45673 0.25076 0.94446 -0.33700
O 	O 	0.51244 0.27075 0.96748 -0.37000
O 	O 	0.39408 0.19833 0.98377 -0.36100
Ni	Ni	0.50850 0.22886 0.99958 1.09300
O 	O 	0.37184 0.25153 0.04341 -0.36600
O 	O 	0.53865 0.26183 0.04403 -0.36400
O 	O 	0.48998 0.19615 0.09324 -0.32800
O 	O 	0.43202 0.24160 0.06067 -0.70200
O 	O 	0.41046 0.26881 0.98955 -0.33800
O 	O 	0.44493 0.21682 0.13509 -0.34000
O 	O 	0.38616 0.18673 0.11925 -0.35900
Ni	Ni	0.38237 0.21896 0.07649 1.09100
H 	H 	0.44536 0.19007 0.00963 0.17800
H 	H 	0.44375 0.26595 0.07108 0.19000
C 	C 	0.52920 0.28169 0.06352 0.33400
O 	O 	0.35883 0.17693 0.03853 -0.35200
C 	C 	0.49094 0.26473 0.93767 0.31900
C 	C 	0.50824 0.18729 0.06864 0.33200
C 	C 	0.37451 0.17212 0.00747 0.33000
C 	C 	0.41154 0.19858 0.14605 0.32000
C 	C 	0.37871 0.25906 0.00497 0.34300
O 	O 	0.50084 0.26744 0.08620 -0.34900
O 	O 	0.50495 0.18750 0.02957 -0.36800
Ni	Ni	0.44788 0.21042 0.51704 1.11000
O 	O 	0.48271 0.19213 0.51688 -0.70300
Ni	Ni	0.50938 0.21345 0.56727 1.10900
O 	O 	0.43650 0.20164 0.45769 -0.33500
O 	O 	0.49510 0.22880 0.44070 -0.37400
O 	O 	0.40623 0.16064 0.52773 -0.34400
Ni	Ni	0.51615 0.20374 0.47313 1.09300
O 	O 	0.39120 0.19807 0.58142 -0.36000
O 	O 	0.55838 0.25062 0.49123 -0.36100
O 	O 	0.55232 0.20578 0.56160 -0.33300
O 	O 	0.46923 0.22483 0.57089 -0.69800
O 	O 	0.41329 0.22824 0.52302 -0.34100
O 	O 	0.52423 0.23033 0.62470 -0.32200
O 	O 	0.46799 0.19484 0.64813 -0.36800
Ni	Ni	0.43245 0.19792 0.61012 1.08700
H 	H 	0.46987 0.16642 0.51931 0.18500
H 	H 	0.47828 0.25024 0.57501 0.18900
C 	C 	0.55623 0.27367 0.51442 0.33800
O 	O 	0.42063 0.14974 0.58876 -0.37000
C 	C 	0.46153 0.21215 0.43045 0.32200
C 	C 	0.55974 0.19194 0.53022 0.33600
C 	C 	0.40751 0.13888 0.55323 0.32200
C 	C 	0.50050 0.22102 0.65351 0.31500
C 	C 	0.39501 0.22282 0.55630 0.32200
O 	O 	0.53909 0.26417 0.54845 -0.35900
O 	O 	0.53726 0.17774 0.50056 -0.36700
Ni	Ni	0.20021 0.79243 0.88682 1.10700
O 	O 	0.22482 0.84408 0.90242 -0.70400
Ni	Ni	0.19948 0.84236 0.95354 1.10500
O 	O 	0.22712 0.80240 0.83388 -0.33000
O 	O 	0.21038 0.84141 0.81368 -0.36700
O 	O 	0.24210 0.78805 0.90868 -0.33600
Ni	Ni	0.21587 0.87195 0.86394 1.08700
O 	O 	0.18805 0.72937 0.93619 -0.36700
O 	O 	0.16183 0.84254 0.86589 -0.36600
O 	O 	0.22754 0.89457 0.96578 -0.34100
O 	O 	0.17333 0.79046 0.93703 -0.70000
O 	O 	0.17378 0.74000 0.87493 -0.33700
O 	O 	0.17163 0.83316 0.00610 -0.32100
O 	O 	0.18152 0.78958 0.02521 -0.36100
Ni	Ni	0.18311 0.76281 0.97500 1.09000
H 	H 	0.25044 0.85437 0.90696 0.19400
H 	H 	0.14767 0.78048 0.93257 0.18700
C 	C 	0.14384 0.83754 0.89886 0.32400
O 	O 	0.23569 0.79816 0.97374 -0.39700
C 	C 	0.22667 0.82345 0.80684 0.33100
C 	C 	0.23588 0.91742 0.93687 0.32500
C 	C 	0.25563 0.79846 0.94435 0.33000
C 	C 	0.16263 0.80514 0.02759 0.31800
C 	C 	0.17038 0.71771 0.90270 0.32800
O 	O 	0.16037 0.85056 0.93234 -0.34700
O 	O 	0.21729 0.90824 0.90369 -0.36300
Ni	Ni	0.22594 0.78224 0.36610 1.11000
O 	O 	0.24605 0.83456 0.37669 -0.70200
Ni	Ni	0.23684 0.83382 0.43482 1.11000
O 	O 	0.21628 0.78502 0.30717 -0.33300
O 	O 	0.18720 0.81474 0.32298 -0.37600
O 	O 	0.27630 0.79151 0.35204 -0.33500
Ni	Ni	0.22547 0.85987 0.35139 1.09100
O 	O 	0.25243 0.73576 0.40282 -0.36300
O 	O 	0.18889 0.85873 0.39161 -0.35400
O 	O 	0.24638 0.88422 0.44159 -0.34000
O 	O 	0.22457 0.78319 0.42530 -0.70200
O 	O 	0.20832 0.73010 0.36105 -0.33900
O 	O 	0.23236 0.82570 0.49480 -0.33000
O 	O 	0.27413 0.80862 0.49265 -0.35800
Ni	Ni	0.25993 0.77303 0.44510 1.09100
H 	H 	0.27191 0.84780 0.37220 0.18900
H 	H 	0.20072 0.76602 0.43544 0.19100
C 	C 	0.16998 0.83243 0.41563 0.34800
O 	O 	0.29979 0.81218 0.41337 -0.38800
C 	C 	0.19603 0.79789 0.29679 0.31400
C 	C 	0.26675 0.90957 0.41658 0.32900
C 	C 	0.30399 0.80860 0.37534 0.32900
C 	C 	0.25129 0.81431 0.51292 0.31900
C 	C 	0.22255 0.71574 0.38314 0.32200
O 	O 	0.18353 0.81464 0.43123 -0.37300
O 	O 	0.26296 0.90503 0.37747 -0.36100
Ni	Ni	0.83236 0.64084 0.99286 1.10300
O 	O 	0.85333 0.61405 0.02000 -0.69900
Ni	Ni	0.80989 0.57359 0.04323 1.10900
O 	O 	0.88148 0.67897 0.97474 -0.33900
O 	O 	0.90083 0.68835 0.03891 -0.36200
O 	O 	0.82865 0.61167 0.94298 -0.36900
Ni	Ni	0.88747 0.63916 0.06163 1.09500
O 	O 	0.75126 0.63055 0.98556 -0.37300
O 	O 	0.85271 0.64301 0.09969 -0.37200
O 	O 	0.83323 0.54661 0.06242 -0.34100
O 	O 	0.79069 0.60457 0.02313 -0.69700
O 	O 	0.80915 0.66461 0.96287 -0.34300
O 	O 	0.76089 0.53011 0.05077 -0.33600
O 	O 	0.74560 0.53468 0.98734 -0.38100
Ni	Ni	0.75129 0.58446 0.98561 1.08800
H 	H 	0.86392 0.60515 0.00016 0.18900
H 	H 	0.78541 0.61597 0.04561 0.18900
C 	C 	0.83020 0.61591 0.12063 0.33000
O 	O 	0.77100 0.59381 0.92816 -0.35700
C 	C 	0.90698 0.69560 0.00070 0.32900
C 	C 	0.86686 0.56317 0.07297 0.31600
C 	C 	0.80310 0.60147 0.91692 0.34500
C 	C 	0.73843 0.51751 0.02114 0.32900
C 	C 	0.77753 0.66049 0.97154 0.32900
O 	O 	0.80745 0.58640 0.10256 -0.33300
O 	O 	0.88163 0.59505 0.08925 -0.35500
Ni	Ni	0.85020 0.64596 0.50464 1.10400
O 	O 	0.86842 0.61243 0.51794 -0.70100
Ni	Ni	0.82319 0.56934 0.53301 1.10800
O 	O 	0.90027 0.68645 0.49298 -0.33100
O 	O 	0.92037 0.67968 0.55287 -0.36600
O 	O 	0.84683 0.62868 0.44655 -0.35900
Ni	Ni	0.90025 0.62623 0.56291 1.09300
O 	O 	0.76921 0.64005 0.50590 -0.36200
O 	O 	0.86511 0.62731 0.60296 -0.38000
O 	O 	0.84377 0.53717 0.53856 -0.34000
O 	O 	0.80688 0.60527 0.52749 -0.70300
O 	O 	0.82844 0.67637 0.49034 -0.34000
O 	O 	0.77294 0.52682 0.53231 -0.33600
O 	O 	0.76087 0.54587 0.47487 -0.38000
Ni	Ni	0.76796 0.59464 0.49111 1.09000
H 	H 	0.87913 0.60746 0.49445 0.19400
H 	H 	0.80182 0.61202 0.55385 0.18700
C 	C 	0.83916 0.59830 0.61799 0.32800
O 	O 	0.78992 0.61639 0.43712 -0.36000
C 	C 	0.92665 0.69307 0.51682 0.32200
C 	C 	0.87496 0.54873 0.55519 0.32200
C 	C 	0.81992 0.62057 0.42286 0.34000
C 	C 	0.75224 0.52127 0.50170 0.32000
C 	C 	0.79842 0.67139 0.50655 0.31900
O 	O 	0.82037 0.57056 0.59497 -0.33100
O 	O 	0.88828 0.57653 0.57919 -0.35900
Ni	Ni	0.54651 0.81081 0.94843 1.10500
O 	O 	0.58298 0.79546 0.93814 -0.70500
Ni	Ni	0.60744 0.80671 0.99127 1.10500
O 	O 	0.52950 0.80407 0.89089 -0.32800
O 	O 	0.58507 0.83541 0.86465 -0.36900
O 	O 	0.50691 0.75898 0.95460 -0.34100
Ni	Ni	0.61846 0.82549 0.89877 1.08700
O 	O 	0.48979 0.78800 0.01528 -0.35700
O 	O 	0.62887 0.87063 0.92775 -0.38700
O 	O 	0.64214 0.79014 0.97758 -0.34200
O 	O 	0.57088 0.82225 0.00125 -0.69800
O 	O 	0.51135 0.82650 0.96315 -0.35500
O 	O 	0.62436 0.81525 0.04891 -0.32400
O 	O 	0.56897 0.78440 0.07557 -0.36000
Ni	Ni	0.53453 0.79146 0.03978 1.09200
H 	H 	0.57239 0.77028 0.93129 0.19300
H 	H 	0.58117 0.84739 0.00807 0.19500
C 	C 	0.64756 0.88081 0.96020 0.33400
O 	O 	0.52667 0.74728 0.01127 -0.38400
C 	C 	0.55094 0.81398 0.86007 0.32400
C 	C 	0.65885 0.79823 0.94317 0.32500
C 	C 	0.50716 0.73627 0.97949 0.33200
C 	C 	0.60269 0.80758 0.07934 0.32900
C 	C 	0.48808 0.81114 0.99187 0.33000
O 	O 	0.64849 0.85764 0.98363 -0.34100
O 	O 	0.66114 0.82449 0.92205 -0.36400
Ni	Ni	0.59859 0.84110 0.43028 1.10600
O 	O 	0.62765 0.81955 0.45084 -0.69700
Ni	Ni	0.61784 0.81848 0.50996 1.10600
O 	O 	0.61873 0.84983 0.37356 -0.32600
O 	O 	0.67622 0.86840 0.38802 -0.36100
O 	O 	0.56013 0.79231 0.40904 -0.33600
Ni	Ni	0.67903 0.84960 0.44321 1.08800
O 	O 	0.51947 0.81517 0.44368 -0.37100
O 	O 	0.67891 0.89202 0.46794 -0.38600
O 	O 	0.64682 0.79638 0.52748 -0.33600
O 	O 	0.58823 0.83896 0.48894 -0.70000
O 	O 	0.56758 0.86143 0.41448 -0.33900
O 	O 	0.59897 0.81497 0.56683 -0.33100
O 	O 	0.54147 0.78343 0.54775 -0.36500
Ni	Ni	0.53738 0.80497 0.49495 1.08900
H 	H 	0.61940 0.79562 0.44034 0.19400
H 	H 	0.59484 0.86230 0.50026 0.19000
C 	C 	0.67680 0.89515 0.50645 0.32900
O 	O 	0.54201 0.76565 0.46909 -0.39500
C 	C 	0.64900 0.85179 0.36440 0.32600
C 	C 	0.67809 0.80700 0.51141 0.33200
C 	C 	0.54412 0.76354 0.43057 0.33200
C 	C 	0.56511 0.80156 0.57481 0.32800
C 	C 	0.53412 0.84591 0.42572 0.33000
O 	O 	0.65809 0.86724 0.52883 -0.33900
O 	O 	0.69537 0.83797 0.49438 -0.37400
Ni	Ni	0.81919 0.21548 0.00294 1.11000
O 	O 	0.83053 0.26540 0.01786 -0.69700
Ni	Ni	0.82059 0.26013 0.07623 1.11100
O 	O 	0.83064 0.22840 0.94436 -0.32800
O 	O 	0.79578 0.25350 0.94154 -0.36700
O 	O 	0.87183 0.23529 0.01341 -0.36600
Ni	Ni	0.80029 0.28071 0.99407 1.08500
O 	O 	0.78873 0.13975 0.05174 -0.36200
O 	O 	0.75527 0.23811 0.01495 -0.37900
O 	O 	0.83775 0.31149 0.08833 -0.33400
O 	O 	0.80246 0.20919 0.05908 -0.69900
O 	O 	0.81163 0.16611 0.99084 -0.34600
O 	O 	0.81864 0.24978 0.13559 -0.33400
O 	O 	0.85095 0.22283 0.12444 -0.37200
Ni	Ni	0.82091 0.18226 0.08522 1.10300
H 	H 	0.85570 0.28308 0.01309 0.19200
H 	H 	0.77634 0.19533 0.05907 0.19200
C 	C 	0.74559 0.23602 0.05232 0.33000
O 	O 	0.86413 0.18988 0.05235 -0.35400
C 	C 	0.82195 0.24974 0.92721 0.32000
C 	C 	0.82924 0.32956 0.06429 0.31700
C 	C 	0.88485 0.21854 0.03236 0.34400
C 	C 	0.83518 0.23406 0.14917 0.33000
C 	C 	0.79172 0.13787 0.01268 0.34100
O 	O 	0.76944 0.25111 0.08036 -0.33700
O 	O 	0.80222 0.31303 0.03956 -0.36300
Ni	Ni	0.86833 0.20361 0.51689 1.11100
O 	O 	0.89025 0.25686 0.51297 -0.70100
Ni	Ni	0.88281 0.26892 0.56865 1.10700
O 	O 	0.86030 0.19380 0.45729 -0.33100
O 	O 	0.83310 0.22630 0.45328 -0.37700
O 	O 	0.91703 0.20695 0.50906 -0.33400
Ni	Ni	0.86945 0.27521 0.47609 1.09100
O 	O 	0.88858 0.16140 0.57444 -0.35400
O 	O 	0.83002 0.27568 0.50953 -0.35900
O 	O 	0.89317 0.32000 0.56280 -0.33500
O 	O 	0.86859 0.21719 0.57371 -0.69900
O 	O 	0.84770 0.15170 0.52627 -0.33800
O 	O 	0.88148 0.27379 0.62906 -0.33300
O 	O 	0.92010 0.25347 0.63725 -0.36300
Ni	Ni	0.90209 0.20854 0.60192 1.09400
H 	H 	0.91603 0.26857 0.50808 0.18400
H 	H 	0.84464 0.20297 0.58544 0.19300
C 	C 	0.81251 0.25305 0.53770 0.33400
O 	O 	0.94358 0.23840 0.56505 -0.38300
C 	C 	0.84326 0.20559 0.43653 0.31900
C 	C 	0.89927 0.33735 0.52885 0.33600
C 	C 	0.94576 0.22881 0.52865 0.32900
C 	C 	0.89879 0.26381 0.65240 0.32200
C 	C 	0.85749 0.14073 0.55730 0.31900
O 	O 	0.82937 0.25010 0.56803 -0.35600
O 	O 	0.90381 0.32456 0.49499 -0.37300
Ni	Ni	0.21549 0.41081 0.97406 1.11000
O 	O 	0.19580 0.44402 0.97147 -0.70600
Ni	Ni	0.20902 0.46138 0.91586 1.10900
O 	O 	0.22005 0.41373 0.03465 -0.33900
O 	O 	0.25156 0.47354 0.03213 -0.36800
O 	O 	0.16502 0.36801 0.97950 -0.34400
Ni	Ni	0.21501 0.48472 0.00675 1.09700
O 	O 	0.19444 0.34489 0.92122 -0.35500
O 	O 	0.25467 0.52420 0.97403 -0.36000
O 	O 	0.20074 0.50358 0.91762 -0.33600
O 	O 	0.22063 0.42184 0.91633 -0.70100
O 	O 	0.23375 0.37673 0.97094 -0.33900
O 	O 	0.21707 0.46636 0.85585 -0.33300
O 	O 	0.17652 0.40822 0.84608 -0.35700
Ni	Ni	0.18767 0.37987 0.88741 1.09300
H 	H 	0.16975 0.43109 0.97410 0.18800
H 	H 	0.24520 0.42982 0.90741 0.18900
C 	C 	0.27555 0.51929 0.94984 0.34500
O 	O 	0.14440 0.37249 0.91896 -0.38100
C 	C 	0.24127 0.44414 0.05162 0.31900
C 	C 	0.18354 0.50994 0.94639 0.33500
C 	C 	0.13853 0.36100 0.95562 0.32900
C 	C 	0.20095 0.43896 0.83200 0.31700
C 	C 	0.22317 0.35286 0.94233 0.31900
O 	O 	0.26233 0.49369 0.92370 -0.36400
O 	O 	0.18033 0.49734 0.98282 -0.36800
Ni	Ni	0.27659 0.42702 0.48906 1.11000
O 	O 	0.25698 0.45575 0.46357 -0.69800
Ni	Ni	0.27673 0.46146 0.40857 1.10700
O 	O 	0.27229 0.44118 0.54622 -0.33600
O 	O 	0.30112 0.49884 0.52881 -0.37200
O 	O 	0.22615 0.38398 0.49469 -0.33500
Ni	Ni	0.27092 0.50247 0.48404 1.10000
O 	O 	0.26267 0.35381 0.46210 -0.36300
O 	O 	0.31492 0.53676 0.45149 -0.36100
O 	O 	0.26735 0.49972 0.38619 -0.33800
O 	O 	0.28928 0.42652 0.43200 -0.70200
O 	O 	0.29528 0.39602 0.50888 -0.34000
O 	O 	0.29157 0.45352 0.35335 -0.33300
O 	O 	0.25284 0.39402 0.35590 -0.36500
Ni	Ni	0.26081 0.37903 0.41184 1.08900
H 	H 	0.23088 0.44203 0.46193 0.19000
H 	H 	0.31479 0.43436 0.42916 0.19000
C 	C 	0.33817 0.52947 0.43558 0.34400
O 	O 	0.21410 0.37544 0.42843 -0.38300
C 	C 	0.28591 0.47446 0.55603 0.33000
C 	C 	0.24921 0.51268 0.40468 0.33100
C 	C 	0.20326 0.37014 0.46549 0.33200
C 	C 	0.27575 0.42235 0.33606 0.31900
C 	C 	0.28844 0.36736 0.48875 0.32100
O 	O 	0.32832 0.49803 0.42126 -0.36500
O 	O 	0.23980 0.50606 0.44251 -0.36900
C 	C 	0.27744 0.48357 0.59500 -0.11900
C 	C 	0.24491 0.48236 0.60069 0.13500
C 	C 	0.22938 0.47573 0.63864 0.06900
C 	C 	0.24902 0.47601 0.67169 0.02200
C 	C 	0.28458 0.48455 0.66656 0.06700
C 	C 	0.29835 0.48694 0.62801 0.13400
C 	C 	0.23156 0.46419 0.71085 0.02000
C 	C 	0.22527 0.48687 0.73496 0.06900
C 	C 	0.20911 0.47550 0.77229 0.13000
C 	C 	0.20542 0.44442 0.78865 -0.10400
C 	C 	0.21112 0.42135 0.76422 0.12700
C 	C 	0.22202 0.43042 0.72455 0.06800
Br	Br	0.31380 0.49199 0.71225 -0.11100
Br	Br	0.22304 0.49208 0.55710 -0.23000
Br	Br	0.18911 0.50058 0.79924 -0.10800
Br	Br	0.22404 0.39678 0.68892 -0.10600
Br	Br	0.34532 0.49406 0.62022 -0.11600
Br	Br	0.18040 0.46305 0.64478 -0.09700
Br	Br	0.24077 0.53415 0.71796 -0.10100
Br	Br	0.20669 0.37876 0.78552 -0.19000
C 	C 	0.25703 0.44516 0.09043 -0.10400
C 	C 	0.27180 0.42358 0.09735 0.13100
C 	C 	0.27905 0.41827 0.13639 0.07000
C 	C 	0.27596 0.43802 0.16776 0.02100
C 	C 	0.26726 0.46410 0.15960 0.06800
C 	C 	0.25562 0.46620 0.12155 0.13000
C 	C 	0.27619 0.42783 0.20938 0.02000
C 	C 	0.24388 0.40830 0.22984 0.06700
C 	C 	0.24341 0.40735 0.27146 0.12600
C 	C 	0.27560 0.42081 0.29233 -0.10300
C 	C 	0.30791 0.43580 0.27113 0.12600
C 	C 	0.30835 0.44121 0.22998 0.07100
Br	Br	0.27008 0.49598 0.20109 -0.10700
Br	Br	0.28487 0.40386 0.05333 -0.12100
Br	Br	0.19928 0.39224 0.29956 -0.12900
Br	Br	0.35276 0.46860 0.20231 -0.09800
Br	Br	0.23486 0.49540 0.11317 -0.18300
Br	Br	0.29089 0.38242 0.14723 -0.10500
Br	Br	0.20021 0.38384 0.20068 -0.11400
Br	Br	0.35123 0.44776 0.29825 -0.13100
C 	C 	0.98108 0.23936 0.51160 -0.10500
C 	C 	0.00448 0.23226 0.53272 0.13100
C 	C 	0.04101 0.25115 0.52426 0.06800
C 	C 	0.05385 0.27539 0.49281 0.02200
C 	C 	0.02984 0.27876 0.46817 0.06800
C 	C 	0.99346 0.26096 0.47770 0.13000
C 	C 	0.09255 0.29907 0.48735 0.02100
C 	C 	0.10924 0.33284 0.50466 0.06900
C 	C 	0.14546 0.35620 0.49747 0.13000
C 	C 	0.16552 0.34523 0.47457 -0.10500
C 	C 	0.14922 0.31054 0.45953 0.13300
C 	C 	0.11253 0.28802 0.46458 0.07000
Br	Br	0.04707 0.30853 0.42206 -0.11000
Br	Br	0.98620 0.19583 0.57227 -0.14000
Br	Br	0.16711 0.40348 0.51787 -0.15600
Br	Br	0.08947 0.24222 0.43978 -0.10000
Br	Br	0.96091 0.26644 0.44449 -0.18400
Br	Br	0.07361 0.24505 0.55678 -0.10300
Br	Br	0.08236 0.34700 0.53826 -0.11500
Br	Br	0.17746 0.29309 0.43451 -0.15700
C 	C 	0.10183 0.33696 0.96889 -0.10900
C 	C 	0.07759 0.34919 0.97286 0.12600
C 	C 	0.04247 0.32605 0.98486 0.06900
C 	C 	0.03158 0.29076 0.99328 0.01400
C 	C 	0.05580 0.27857 0.98956 0.06600
C 	C 	0.09059 0.30136 0.97632 0.12800
C 	C 	0.99428 0.26617 0.00459 0.03300
C 	C 	0.98358 0.26309 0.04471 0.06800
C 	C 	0.94734 0.24414 0.05469 0.12500
C 	C 	0.92193 0.22827 0.02453 -0.09900
C 	C 	0.93300 0.22764 0.98520 0.12700
C 	C 	0.96908 0.24735 0.97500 0.06400
Br	Br	0.04111 0.23053 0.00244 -0.09500
Br	Br	0.09231 0.39750 0.96152 -0.17200
Br	Br	0.93253 0.24070 0.10940 -0.13800
Br	Br	0.98390 0.25006 0.92029 -0.10700
Br	Br	0.12181 0.28311 0.96520 -0.12400
Br	Br	0.00899 0.34248 0.98935 -0.11300
Br	Br	0.01853 0.28585 0.08566 -0.10600
Br	Br	0.89858 0.19977 0.94541 -0.11400
C 	C 	0.89945 0.27043 0.69528 -0.10800
C 	C 	0.90733 0.30384 0.70941 0.13100
C 	C 	0.89911 0.30784 0.74887 0.06900
C 	C 	0.88581 0.27913 0.77490 0.02100
C 	C 	0.88342 0.24739 0.76231 0.06700
C 	C 	0.88896 0.24255 0.72216 0.12900
C 	C 	0.87029 0.28064 0.81346 0.02000
C 	C 	0.89141 0.29156 0.84768 0.07100
C 	C 	0.87529 0.28487 0.88535 0.12600
C 	C 	0.83810 0.26518 0.88875 -0.11400
C 	C 	0.81706 0.25680 0.85443 0.12800
C 	C 	0.83340 0.26607 0.81690 0.06600
Br	Br	0.87130 0.21025 0.80000 -0.10500
Br	Br	0.93083 0.34422 0.67530 -0.11300
Br	Br	0.90402 0.30222 0.93240 -0.16600
Br	Br	0.80528 0.25725 0.76984 -0.11300
Br	Br	0.87966 0.19707 0.70350 -0.19700
Br	Br	0.90414 0.35192 0.76674 -0.10300
Br	Br	0.94218 0.31337 0.84288 -0.10200
Br	Br	0.76608 0.22975 0.85832 -0.11700
C 	C 	0.83302 0.19343 0.39517 -0.10400
C 	C 	0.85761 0.19201 0.36850 0.12000
C 	C 	0.85348 0.19379 0.32747 0.06800
C 	C 	0.82473 0.19641 0.31325 0.01800
C 	C 	0.79751 0.19219 0.33941 0.06800
C 	C 	0.80097 0.18904 0.38030 0.12300
C 	C 	0.82457 0.20614 0.27161 0.02100
C 	C 	0.84343 0.24175 0.26060 0.06900
C 	C 	0.84764 0.25087 0.22030 0.13400
C 	C 	0.83157 0.22449 0.19114 -0.11500
C 	C 	0.81090 0.18901 0.20233 0.13400
C 	C 	0.80807 0.17980 0.24251 0.06900
Br	Br	0.75653 0.19268 0.31938 -0.10300
Br	Br	0.89574 0.18584 0.38744 -0.10500
Br	Br	0.87652 0.29934 0.20483 -0.11700
Br	Br	0.78232 0.13105 0.25780 -0.09700
Br	Br	0.76106 0.17579 0.41538 -0.11200
Br	Br	0.88794 0.19419 0.29062 -0.10900
Br	Br	0.86370 0.27787 0.30093 -0.13000
Br	Br	0.78539 0.15324 0.16279 -0.23800
C 	C 	0.52268 0.72894 0.41120 -0.10200
C 	C 	0.52971 0.70168 0.41957 0.13000
C 	C 	0.50259 0.66639 0.41604 0.07000
C 	C 	0.46803 0.65847 0.40641 0.02200
C 	C 	0.46216 0.68548 0.39341 0.06700
C 	C 	0.49010 0.72054 0.39387 0.12500
C 	C 	0.43751 0.62290 0.41455 0.02000
C 	C 	0.42145 0.59857 0.38330 0.07200
C 	C 	0.38947 0.56697 0.39007 0.13100
C 	C 	0.37496 0.55852 0.42894 -0.10400
C 	C 	0.39385 0.58088 0.46087 0.12500
C 	C 	0.42387 0.61382 0.45347 0.07000
Br	Br	0.41539 0.67475 0.37775 -0.10100
Br	Br	0.57569 0.71279 0.43838 -0.15100
Br	Br	0.36485 0.53659 0.34573 -0.11200
Br	Br	0.44544 0.64712 0.49639 -0.12600
Br	Br	0.48375 0.75688 0.37092 -0.11500
Br	Br	0.51224 0.62892 0.42603 -0.10500
Br	Br	0.44315 0.60878 0.33125 -0.09700
Br	Br	0.37969 0.56560 0.51479 -0.14200
C 	C 	0.70024 0.92964 0.52549 -0.10600
C 	C 	0.72723 0.93376 0.55164 0.12500
C 	C 	0.75252 0.96743 0.56512 0.06900
C 	C 	0.75296 0.99727 0.54988 0.02000
C 	C 	0.72534 0.99326 0.52510 0.06800
C 	C 	0.69836 0.95939 0.51400 0.12700
C 	C 	0.78383 0.03270 0.55747 0.02100
C 	C 	0.78261 0.05382 0.58854 0.07200
C 	C 	0.81003 0.08895 0.59234 0.12200
C 	C 	0.83855 0.10282 0.56520 -0.10100
C 	C 	0.84220 0.08022 0.53811 0.13000
C 	C 	0.81440 0.04544 0.53334 0.06900
Br	Br	0.72511 0.03416 0.50543 -0.10600
Br	Br	0.73172 0.89404 0.56628 -0.11700
Br	Br	0.80758 0.11884 0.63305 -0.16700
Br	Br	0.81739 0.01578 0.49264 -0.11500
Br	Br	0.65847 0.95363 0.48384 -0.15800
Br	Br	0.78728 0.97288 0.60375 -0.10500
Br	Br	0.74303 0.03489 0.62504 -0.10200
Br	Br	0.88466 0.09767 0.50628 -0.10300
C 	C 	0.47887 0.69915 0.97678 -0.11500
C 	C 	0.45088 0.68531 0.00486 0.15000
C 	C 	0.41992 0.65321 0.99713 0.05500
C 	C 	0.41681 0.63495 0.96142 0.02600
C 	C 	0.44579 0.64733 0.93495 0.06800
C 	C 	0.47716 0.67895 0.94323 0.13600
C 	C 	0.38250 0.60369 0.95105 0.02000
C 	C 	0.37455 0.57019 0.96417 0.06900
C 	C 	0.33970 0.54180 0.96158 0.12800
C 	C 	0.31284 0.54700 0.94610 -0.11000
C 	C 	0.32149 0.57963 0.92954 0.13200
C 	C 	0.35633 0.60799 0.93202 0.06700
Br	Br	0.44203 0.62153 0.88681 -0.09800
Br	Br	0.45461 0.71025 0.05373 -0.16500
Br	Br	0.32852 0.49596 0.97996 -0.16400
Br	Br	0.36811 0.65310 0.91066 -0.09600
Br	Br	0.51843 0.69359 0.91011 -0.15400
Br	Br	0.38122 0.63463 0.03492 -0.10100
Br	Br	0.41118 0.56368 0.98700 -0.10800
Br	Br	0.28557 0.58529 0.90332 -0.11100
C 	C 	0.77601 0.10297 0.99398 -0.10900
C 	C 	0.74232 0.08810 0.97663 0.12900
C 	C 	0.72352 0.05200 0.96745 0.06800
C 	C 	0.73825 0.03076 0.97627 0.02400
C 	C 	0.77314 0.04624 0.99058 0.06400
C 	C 	0.79224 0.08250 0.99869 0.12800
C 	C 	0.71632 0.99201 0.97298 0.01400
C 	C 	0.69453 0.97245 0.00502 0.07300
C 	C 	0.67280 0.93579 0.00151 0.13400
C 	C 	0.67320 0.91858 0.96603 -0.11300
C 	C 	0.69721 0.93793 0.93528 0.13400
C 	C 	0.71764 0.97472 0.93811 0.06900
Br	Br	0.79411 0.01750 0.00054 -0.09400
Br	Br	0.72157 0.11704 0.96673 -0.15300
Br	Br	0.64273 0.90933 0.04537 -0.16400
Br	Br	0.74708 0.00159 0.89402 -0.10100
Br	Br	0.84058 0.10425 0.01644 -0.11500
Br	Br	0.67726 0.03138 0.94385 -0.11000
Br	Br	0.69442 0.99605 0.05367 -0.10700
Br	Br	0.70425 0.91388 0.89087 -0.14900
C 	C 	0.53586 0.81129 0.82053 -0.10400
C 	C 	0.51289 0.77814 0.80371 0.12200
C 	C 	0.50809 0.77502 0.76235 0.07000
C 	C 	0.52789 0.80458 0.73818 0.02000
C 	C 	0.54625 0.83824 0.75559 0.06700
C 	C 	0.54844 0.84156 0.79705 0.12800
C 	C 	0.53428 0.79976 0.69612 0.01900
C 	C 	0.55953 0.78987 0.68601 0.06800
C 	C 	0.56717 0.78735 0.64595 0.13100
C 	C 	0.55344 0.79949 0.61629 -0.10900
C 	C 	0.52816 0.80939 0.62645 0.12800
C 	C 	0.51697 0.80727 0.66609 0.07100
Br	Br	0.57107 0.87935 0.72274 -0.11100
Br	Br	0.48894 0.73720 0.83684 -0.11500
Br	Br	0.59346 0.76419 0.63168 -0.11000
Br	Br	0.47807 0.81468 0.67944 -0.09900
Br	Br	0.56685 0.88706 0.82183 -0.11900
Br	Br	0.47631 0.73020 0.73842 -0.10200
Br	Br	0.58484 0.78143 0.72707 -0.13200
Br	Br	0.51088 0.82828 0.58670 -0.19400
C 	C 	0.61750 0.81719 0.11948 -0.10500
C 	C 	0.64268 0.80827 0.13243 0.13200
C 	C 	0.65632 0.81737 0.17103 0.07000
C 	C 	0.64184 0.83144 0.19811 0.02100
C 	C 	0.61644 0.83998 0.18538 0.06800
C 	C 	0.60533 0.83409 0.14571 0.13000
C 	C 	0.65133 0.83494 0.24049 0.02100
C 	C 	0.63295 0.80605 0.26598 0.07000
C 	C 	0.63575 0.81122 0.30727 0.12600
C 	C 	0.65510 0.84544 0.32297 -0.10900
C 	C 	0.67607 0.87386 0.29754 0.13100
C 	C 	0.67518 0.86818 0.25632 0.06800
Br	Br	0.59593 0.85849 0.22279 -0.10100
Br	Br	0.65569 0.78044 0.09907 -0.10900
Br	Br	0.61250 0.77165 0.34254 -0.15700
Br	Br	0.70529 0.90612 0.22124 -0.10100
Br	Br	0.57372 0.84956 0.12703 -0.18300
Br	Br	0.69460 0.81032 0.18708 -0.10100
Br	Br	0.60217 0.75989 0.24425 -0.10800
Br	Br	0.70359 0.92086 0.31865 -0.11300
C 	C 	0.88905 0.52460 0.55719 -0.10100
C 	C 	0.87681 0.49873 0.58690 0.13100
C 	C 	0.88395 0.47091 0.58380 0.06900
C 	C 	0.90417 0.46957 0.55157 0.02100
C 	C 	0.91971 0.49758 0.52448 0.07100
C 	C 	0.91142 0.52462 0.52667 0.12200
C 	C 	0.90501 0.43682 0.54311 0.02200
C 	C 	0.93105 0.43126 0.56040 0.07100
C 	C 	0.93073 0.39944 0.55352 0.13100
C 	C 	0.90419 0.37311 0.52966 -0.10400
C 	C 	0.88037 0.38019 0.50934 0.13200
C 	C 	0.87986 0.41137 0.51732 0.06900
Br	Br	0.95126 0.49805 0.48355 -0.10500
Br	Br	0.84931 0.50085 0.63105 -0.10800
Br	Br	0.96800 0.39288 0.57432 -0.12100
Br	Br	0.84403 0.41885 0.49383 -0.10500
Br	Br	0.92895 0.56058 0.48663 -0.15400
Br	Br	0.86465 0.43375 0.62248 -0.09900
Br	Br	0.96683 0.46707 0.59372 -0.09900
Br	Br	0.84968 0.34820 0.46917 -0.15700
C 	C 	0.79590 0.70154 0.52270 -0.10500
C 	C 	0.80986 0.73340 0.50154 0.12800
C 	C 	0.79421 0.75453 0.50647 0.07000
C 	C 	0.76375 0.74276 0.53060 0.02000
C 	C 	0.75343 0.71377 0.55571 0.06900
C 	C 	0.77198 0.69541 0.55411 0.12500
C 	C 	0.74067 0.75825 0.52624 0.02000
C 	C 	0.73888 0.77963 0.55660 0.06800
C 	C 	0.71400 0.79089 0.55417 0.13400
C 	C 	0.69636 0.78714 0.51816 -0.11100
C 	C 	0.69933 0.76714 0.48698 0.12400
C 	C 	0.71951 0.75070 0.49216 0.06900
Br	Br	0.71171 0.69684 0.58881 -0.10600
Br	Br	0.85171 0.74968 0.46892 -0.09700
Br	Br	0.70075 0.80690 0.60128 -0.09500
Br	Br	0.71734 0.71704 0.45337 -0.11500
Br	Br	0.76532 0.66239 0.59501 -0.15000
Br	Br	0.81357 0.79892 0.47953 -0.11000
Br	Br	0.77159 0.79494 0.60024 -0.10100
Br	Br	0.67667 0.76325 0.43684 -0.19600
C 	C 	0.88424 0.54216 0.07709 -0.10400
C 	C 	0.88382 0.52734 0.11414 0.13100
C 	C 	0.88468 0.49580 0.11549 0.07000
C 	C 	0.88398 0.47841 0.07983 0.02000
C 	C 	0.89027 0.49620 0.04345 0.07400
C 	C 	0.89183 0.52888 0.04250 0.12600
C 	C 	0.87032 0.44006 0.07994 0.02000
C 	C 	0.89379 0.42697 0.07590 0.07200
C 	C 	0.88037 0.39078 0.06989 0.12200
C 	C 	0.84355 0.36730 0.07226 -0.10400
C 	C 	0.82048 0.38019 0.08132 0.12700
C 	C 	0.83355 0.41656 0.08242 0.06700
Br	Br	0.89344 0.47439 0.99475 -0.12400
Br	Br	0.87897 0.54850 0.16252 -0.10900
Br	Br	0.91215 0.37368 0.05609 -0.15200
Br	Br	0.80101 0.43422 0.08549 -0.11400
Br	Br	0.90175 0.55440 0.99346 -0.17800
Br	Br	0.88445 0.47514 0.16574 -0.10000
Br	Br	0.94417 0.45860 0.07883 -0.09900
Br	Br	0.77184 0.34825 0.09588 -0.10400
C 	C 	0.68206 0.78383 0.93344 -0.10800
C 	C 	0.71903 0.80468 0.93815 0.13000
C 	C 	0.74009 0.78872 0.93804 0.06900
C 	C 	0.72392 0.75186 0.93612 0.01900
C 	C 	0.68736 0.73140 0.92868 0.07000
C 	C 	0.66678 0.74764 0.92580 0.12300
C 	C 	0.74459 0.73446 0.94513 0.02200
C 	C 	0.75578 0.72054 0.91404 0.06900
C 	C 	0.76676 0.69622 0.92248 0.13100
C 	C 	0.77034 0.68891 0.96229 -0.10400
C 	C 	0.76351 0.70642 0.99338 0.12400
C 	C 	0.74941 0.72819 0.98492 0.06400
Br	Br	0.66519 0.68095 0.92475 -0.11700
Br	Br	0.74048 0.85455 0.94742 -0.10700
Br	Br	0.77306 0.67022 0.87978 -0.12200
Br	Br	0.73491 0.74789 0.02771 -0.09800
Br	Br	0.61749 0.72039 0.91183 -0.16400
Br	Br	0.79089 0.81706 0.94144 -0.10100
Br	Br	0.75497 0.73404 0.85993 -0.10200
Br	Br	0.77340 0.70038 0.04751 -0.14300
C 	C 	0.81061 0.59950 0.87370 -0.10000
C 	C 	0.79382 0.56688 0.85348 0.12500
C 	C 	0.79783 0.56540 0.81179 0.07100
C 	C 	0.81746 0.59664 0.78985 0.02200
C 	C 	0.83415 0.62921 0.81007 0.07100
C 	C 	0.83217 0.63049 0.85199 0.12800
C 	C 	0.82211 0.59516 0.74561 0.02200
C 	C 	0.85318 0.59712 0.72994 0.07000
C 	C 	0.85902 0.59871 0.68840 0.13000
C 	C 	0.83264 0.59581 0.66202 -0.09800
C 	C 	0.80057 0.59162 0.67774 0.12700
C 	C 	0.79588 0.59263 0.71938 0.07100
Br	Br	0.85913 0.67216 0.78026 -0.10600
Br	Br	0.76642 0.52413 0.88301 -0.13100
Br	Br	0.90326 0.60497 0.66795 -0.16000
Br	Br	0.75399 0.59142 0.74042 -0.10100
Br	Br	0.86028 0.67442 0.87950 -0.11700
Br	Br	0.77682 0.52062 0.78482 -0.10200
Br	Br	0.88766 0.59733 0.76546 -0.10600
Br	Br	0.76295 0.58420 0.64248 -0.13800
C 	C 	0.82528 0.62189 0.37878 -0.10100
C 	C 	0.82815 0.59500 0.35886 0.12500
C 	C 	0.82780 0.59334 0.31680 0.07000
C 	C 	0.82650 0.61966 0.29442 0.02200
C 	C 	0.82540 0.64750 0.31435 0.06900
C 	C 	0.82435 0.64839 0.35635 0.12600
C 	C 	0.82746 0.61871 0.24973 0.02200
C 	C 	0.86016 0.63313 0.22935 0.07100
C 	C 	0.86125 0.63264 0.18732 0.13100
C 	C 	0.82947 0.61873 0.16519 -0.09800
C 	C 	0.79692 0.60627 0.18579 0.12800
C 	C 	0.79581 0.60478 0.22783 0.07100
Br	Br	0.82558 0.68458 0.28409 -0.10700
Br	Br	0.83302 0.56072 0.38910 -0.14200
Br	Br	0.90642 0.65100 0.16058 -0.16900
Br	Br	0.75090 0.58344 0.25540 -0.10800
Br	Br	0.82231 0.68632 0.38310 -0.11200
Br	Br	0.82857 0.55481 0.28987 -0.09800
Br	Br	0.90360 0.65385 0.25912 -0.10100
Br	Br	0.75449 0.59475 0.15696 -0.12300
C 	C 	0.33984 0.81974 0.36000 -0.10600
C 	C 	0.36502 0.85579 0.35789 0.13000
C 	C 	0.40138 0.86697 0.36008 0.07000
C 	C 	0.41225 0.84208 0.36565 0.02100
C 	C 	0.38733 0.80599 0.36213 0.06600
C 	C 	0.35129 0.79502 0.35733 0.12400
C 	C 	0.44860 0.85350 0.37956 0.02000
C 	C 	0.47414 0.85443 0.35283 0.07100
C 	C 	0.50481 0.85552 0.36746 0.13200
C 	C 	0.51057 0.85745 0.40887 -0.10100
C 	C 	0.48817 0.86296 0.43465 0.12200
C 	C 	0.45647 0.85963 0.42035 0.06900
Br	Br	0.40219 0.77161 0.36681 -0.10800
Br	Br	0.34962 0.88961 0.35245 -0.16500
Br	Br	0.53779 0.85275 0.33097 -0.10000
Br	Br	0.42283 0.86113 0.45687 -0.11900
Br	Br	0.31775 0.74640 0.34680 -0.11800
Br	Br	0.43616 0.91620 0.35713 -0.10100
Br	Br	0.46633 0.85283 0.29641 -0.09700
Br	Br	0.50074 0.87432 0.48970 -0.16400
C 	C 	0.24036 0.53619 0.38312 -0.10300
C 	C 	0.20464 0.52560 0.37602 0.12800
C 	C 	0.19482 0.55098 0.36841 0.07100
C 	C 	0.22068 0.58689 0.36897 0.02000
C 	C 	0.25677 0.59701 0.37149 0.06600
C 	C 	0.26660 0.57145 0.37709 0.12600
C 	C 	0.21002 0.61401 0.37035 0.02000
C 	C 	0.21284 0.63312 0.33592 0.07000
C 	C 	0.21483 0.66598 0.33929 0.13100
C 	C 	0.21134 0.67837 0.37705 -0.10000
C 	C 	0.20239 0.65630 0.41028 0.12200
C 	C 	0.20268 0.62454 0.40724 0.06900
Br	Br	0.29255 0.64608 0.36978 -0.10800
Br	Br	0.16937 0.47646 0.37727 -0.12900
Br	Br	0.22489 0.69483 0.29275 -0.10300
Br	Br	0.19534 0.59661 0.45394 -0.11700
Br	Br	0.31587 0.58478 0.37658 -0.12600
Br	Br	0.14604 0.53685 0.35851 -0.10100
Br	Br	0.21591 0.61501 0.28451 -0.09900
Br	Br	0.19032 0.67001 0.46003 -0.17400
C 	C 	0.13552 0.82652 0.43047 -0.10900
C 	C 	0.12988 0.82745 0.47164 0.12900
C 	C 	0.09518 0.81059 0.48702 0.06800
C 	C 	0.06627 0.79378 0.46103 0.02200
C 	C 	0.07198 0.79792 0.41967 0.06800
C 	C 	0.10675 0.81490 0.40437 0.12800
C 	C 	0.03081 0.76830 0.47683 0.02000
C 	C 	0.02137 0.73285 0.48132 0.07000
C 	C 	0.98749 0.70839 0.49548 0.12600
C 	C 	0.96299 0.71929 0.50523 -0.11000
C 	C 	0.97289 0.75499 0.50231 0.13100
C 	C 	0.00664 0.77942 0.48755 0.07000
Br	Br	0.03219 0.77872 0.38415 -0.10300
Br	Br	0.16962 0.85284 0.50655 -0.11900
Br	Br	0.97434 0.65975 0.50107 -0.21000
Br	Br	0.01976 0.82803 0.48168 -0.10000
Br	Br	0.11494 0.82307 0.34813 -0.13400
Br	Br	0.08717 0.80879 0.54363 -0.11000
Br	Br	0.05492 0.71788 0.46774 -0.12300
Br	Br	0.94080 0.77056 0.52016 -0.11600
C 	C 	0.29041 0.80219 0.95338 -0.10700
C 	C 	0.32157 0.82923 0.93579 0.12900
C 	C 	0.35475 0.83368 0.94611 0.06800
C 	C 	0.35687 0.81119 0.97400 0.02300
C 	C 	0.32597 0.78522 0.99280 0.06300
C 	C 	0.29270 0.77973 0.98138 0.13000
C 	C 	0.39057 0.81126 0.97895 0.01400
C 	C 	0.39771 0.78909 0.95500 0.06900
C 	C 	0.42902 0.78806 0.96031 0.13000
C 	C 	0.45397 0.81015 0.98875 -0.10700
C 	C 	0.44679 0.83222 0.01291 0.12900
C 	C 	0.41497 0.83266 0.00816 0.07700
Br	Br	0.32933 0.75657 0.03360 -0.09600
Br	Br	0.31898 0.86001 0.89743 -0.15900
Br	Br	0.43734 0.75587 0.92906 -0.11600
Br	Br	0.40470 0.86242 0.04153 -0.10200
Br	Br	0.25028 0.73974 0.00173 -0.14400
Br	Br	0.39737 0.87009 0.92145 -0.10500
Br	Br	0.36442 0.76014 0.91467 -0.10300
Br	Br	0.48059 0.86185 0.05231 -0.14000
C 	C 	0.17057 0.53438 0.93852 -0.10200
C 	C 	0.14451 0.52600 0.90943 0.13000
C 	C 	0.13644 0.55162 0.89702 0.07200
C 	C 	0.15338 0.58515 0.91489 0.02000
C 	C 	0.17717 0.59249 0.94632 0.06800
C 	C 	0.18636 0.56744 0.95757 0.13200
C 	C 	0.14844 0.61359 0.89887 0.02200
C 	C 	0.17344 0.63758 0.87175 0.06800
C 	C 	0.17791 0.67141 0.86850 0.13200
C 	C 	0.15682 0.68073 0.89187 -0.10000
C 	C 	0.12743 0.65452 0.91262 0.12200
C 	C 	0.12339 0.62090 0.91652 0.07100
Br	Br	0.19782 0.63732 0.97328 -0.11500
Br	Br	0.11938 0.47918 0.88738 -0.12900
Br	Br	0.21458 0.70570 0.83455 -0.10700
Br	Br	0.08547 0.58584 0.94847 -0.10700
Br	Br	0.22204 0.57918 0.99750 -0.14000
Br	Br	0.10308 0.54128 0.85480 -0.09500
Br	Br	0.20328 0.62487 0.84165 -0.09700
Br	Br	0.09402 0.66547 0.93733 -0.15800
C 	C 	0.10574 0.82509 0.89702 -0.10900
C 	C 	0.09255 0.84558 0.91427 0.13100
C 	C 	0.05778 0.82920 0.92920 0.06800
C 	C 	0.03519 0.79301 0.92268 0.02000
C 	C 	0.04623 0.77455 0.89734 0.06700
C 	C 	0.08196 0.79020 0.88561 0.12000
C 	C 	0.00337 0.77327 0.94784 0.02000
C 	C 	0.00475 0.75459 0.98081 0.06600
C 	C 	0.97321 0.72915 0.99892 0.12600
C 	C 	0.94066 0.72599 0.98765 -0.11300
C 	C 	0.94044 0.74955 0.95972 0.13400
C 	C 	0.97113 0.77097 0.93746 0.06900
Br	Br	0.01284 0.72724 0.88101 -0.11300
Br	Br	0.12198 0.89590 0.91664 -0.10800
Br	Br	0.97449 0.69676 0.03619 -0.19500
Br	Br	0.96854 0.79528 0.89146 -0.09700
Br	Br	0.09868 0.76330 0.85645 -0.17000
Br	Br	0.04230 0.85536 0.96183 -0.10200
Br	Br	0.04989 0.76394 0.00093 -0.13000
Br	Br	0.89930 0.75473 0.95465 -0.11800
C 	C 	0.25242 0.81499 0.55676 -0.10100
C 	C 	0.25654 0.84467 0.57810 0.13200
C 	C 	0.25376 0.84361 0.61973 0.06900
C 	C 	0.25012 0.81433 0.64038 0.02000
C 	C 	0.24927 0.78609 0.61934 0.07100
C 	C 	0.24861 0.78559 0.57758 0.12700
C 	C 	0.24453 0.81216 0.68390 0.02100
C 	C 	0.27363 0.83003 0.70950 0.07100
C 	C 	0.26790 0.83358 0.75008 0.12400
C 	C 	0.23313 0.81753 0.76534 -0.10300
C 	C 	0.20429 0.79649 0.74048 0.12900
C 	C 	0.20985 0.79478 0.69956 0.06900
Br	Br	0.24865 0.74800 0.64788 -0.10000
Br	Br	0.26787 0.88744 0.55081 -0.11300
Br	Br	0.30744 0.86136 0.78443 -0.12600
Br	Br	0.16995 0.76996 0.66461 -0.10900
Br	Br	0.23965 0.74361 0.54913 -0.18600
Br	Br	0.25379 0.88184 0.64854 -0.11400
Br	Br	0.32117 0.85003 0.68870 -0.10200
Br	Br	0.15731 0.76935 0.76277 -0.12200
C 	C 	0.13872 0.79726 0.06220 -0.09900
C 	C 	0.12203 0.76300 0.07756 0.12600
C 	C 	0.12155 0.75829 0.11881 0.07000
C 	C 	0.13460 0.78781 0.14411 0.02200
C 	C 	0.14063 0.82002 0.12871 0.06900
C 	C 	0.14226 0.82468 0.08730 0.12800
C 	C 	0.14992 0.78728 0.18284 0.01700
C 	C 	0.12820 0.77453 0.21687 0.07000
C 	C 	0.14304 0.77358 0.25330 0.12900
C 	C 	0.18010 0.79027 0.25709 -0.10700
C 	C 	0.20187 0.80283 0.22304 0.12200
C 	C 	0.18656 0.79977 0.18567 0.06800
Br	Br	0.14970 0.85820 0.16421 -0.11400
Br	Br	0.10342 0.72330 0.04191 -0.17200
Br	Br	0.11277 0.74645 0.29667 -0.12400
Br	Br	0.21563 0.81241 0.13828 -0.12600
Br	Br	0.14560 0.86645 0.06531 -0.09400
Br	Br	0.10731 0.71261 0.14017 -0.10500
Br	Br	0.07863 0.76003 0.21399 -0.09500
Br	Br	0.25270 0.82592 0.22782 -0.14400
C 	C 	0.58259 0.31082 0.50924 -0.10800
C 	C 	0.57271 0.33390 0.49280 0.12800
C 	C 	0.59828 0.36939 0.48716 0.07100
C 	C 	0.63317 0.38219 0.50037 0.02200
C 	C 	0.64272 0.35926 0.51804 0.06700
C 	C 	0.61754 0.32353 0.52204 0.13500
C 	C 	0.65971 0.41982 0.49651 0.02000
C 	C 	0.68420 0.43115 0.46480 0.06800
C 	C 	0.71449 0.46469 0.46606 0.12700
C 	C 	0.71906 0.48767 0.49785 -0.11100
C 	C 	0.69240 0.47774 0.52704 0.12400
C 	C 	0.66319 0.44350 0.52700 0.06900
Br	Br	0.69025 0.37706 0.53723 -0.10300
Br	Br	0.52387 0.31720 0.47992 -0.16100
Br	Br	0.75067 0.47825 0.42568 -0.11700
Br	Br	0.62874 0.42842 0.56956 -0.10400
Br	Br	0.63053 0.29205 0.54624 -0.12000
Br	Br	0.58576 0.40044 0.46108 -0.10500
Br	Br	0.67664 0.40017 0.42035 -0.10400
Br	Br	0.69551 0.51141 0.56637 -0.15400
C 	C 	0.59319 0.19090 0.52956 -0.10000
C 	C 	0.60323 0.17928 0.56329 0.13100
C 	C 	0.63845 0.18682 0.56725 0.07100
C 	C 	0.66301 0.20364 0.53619 0.02200
C 	C 	0.65186 0.21134 0.50052 0.07000
C 	C 	0.61715 0.20544 0.49728 0.13300
C 	C 	0.70097 0.21492 0.54167 0.02300
C 	C 	0.72486 0.24957 0.55397 0.06600
C 	C 	0.76150 0.26202 0.55326 0.13400
C 	C 	0.77419 0.23942 0.54164 -0.10800
C 	C 	0.75015 0.20379 0.53360 0.13100
C 	C 	0.71361 0.19183 0.53210 0.07000
Br	Br	0.68452 0.23067 0.45637 -0.10400
Br	Br	0.56825 0.15127 0.60280 -0.11400
Br	Br	0.79430 0.30970 0.56927 -0.11400
Br	Br	0.68101 0.14427 0.51574 -0.09800
Br	Br	0.60303 0.21814 0.44897 -0.16700
Br	Br	0.65341 0.17518 0.61563 -0.10100
Br	Br	0.70729 0.27985 0.57183 -0.09600
Br	Br	0.76722 0.17120 0.52657 -0.18100
C 	C 	0.38916 0.10117 0.54392 -0.10500
C 	C 	0.40810 0.08632 0.52653 0.11600
C 	C 	0.39059 0.05721 0.50126 0.07300
C 	C 	0.35330 0.03765 0.50166 0.02100
C 	C 	0.33412 0.04854 0.52630 0.07000
C 	C 	0.35195 0.08144 0.54547 0.13200
C 	C 	0.33436 0.00591 0.47637 0.02300
C 	C 	0.31481 0.00613 0.44343 0.06800
C 	C 	0.29226 0.97452 0.42349 0.13200
C 	C 	0.29328 0.94384 0.43277 -0.10500
C 	C 	0.31736 0.94536 0.46122 0.13200
C 	C 	0.33510 0.97512 0.48565 0.07100
Br	Br	0.28393 0.01820 0.53433 -0.10200
Br	Br	0.45502 0.10026 0.54445 -0.17700
Br	Br	0.25835 0.97284 0.38599 -0.12600
Br	Br	0.35814 0.97286 0.53317 -0.09800
Br	Br	0.32570 0.09947 0.57376 -0.12000
Br	Br	0.41753 0.04600 0.46419 -0.11400
Br	Br	0.31920 0.04964 0.42552 -0.09700
Br	Br	0.32833 0.90807 0.46410 -0.16500
C 	C 	0.30149 0.34489 0.50437 -0.10400
C 	C 	0.28382 0.32219 0.53638 0.13100
C 	C 	0.29606 0.30032 0.55089 0.07000
C 	C 	0.32553 0.30063 0.53286 0.02000
C 	C 	0.34324 0.32343 0.50091 0.06900
C 	C 	0.33129 0.34565 0.48681 0.12200
C 	C 	0.33748 0.27644 0.54676 0.02100
C 	C 	0.36490 0.28811 0.57478 0.07000
C 	C 	0.38174 0.26843 0.58116 0.12300
C 	C 	0.37105 0.23715 0.55966 -0.10500
C 	C 	0.34069 0.22327 0.53575 0.13100
C 	C 	0.32406 0.24307 0.52896 0.06800
Br	Br	0.38367 0.32391 0.47632 -0.11500
Br	Br	0.24243 0.32061 0.55974 -0.10700
Br	Br	0.42049 0.28499 0.61791 -0.18300
Br	Br	0.28403 0.22539 0.49389 -0.10800
Br	Br	0.35563 0.37713 0.44333 -0.18000
Br	Br	0.27253 0.26985 0.59535 -0.10200
Br	Br	0.38020 0.33170 0.60300 -0.10500
Br	Br	0.32263 0.17758 0.51153 -0.10300
C 	C 	0.50479 0.27186 0.89634 -0.10800
C 	C 	0.48883 0.28293 0.86808 0.13000
C 	C 	0.49311 0.27858 0.82735 0.06800
C 	C 	0.51807 0.26899 0.81480 0.02100
C 	C 	0.53980 0.26584 0.84299 0.06900
C 	C 	0.53121 0.26400 0.88360 0.13000
C 	C 	0.51782 0.25716 0.77338 0.01800
C 	C 	0.50213 0.22101 0.76474 0.06700
C 	C 	0.50220 0.20987 0.72558 0.12400
C 	C 	0.51219 0.23400 0.69422 -0.10400
C 	C 	0.52878 0.27028 0.70277 0.12000
C 	C 	0.53335 0.28185 0.74257 0.07100
Br	Br	0.58022 0.26236 0.82563 -0.10100
Br	Br	0.46366 0.30654 0.88500 -0.11000
Br	Br	0.49123 0.16228 0.71512 -0.11400
Br	Br	0.56104 0.33123 0.75496 -0.09900
Br	Br	0.55264 0.24668 0.92017 -0.22300
Br	Br	0.46307 0.28316 0.78922 -0.11800
Br	Br	0.47861 0.18672 0.80605 -0.12600
Br	Br	0.54315 0.30390 0.66027 -0.13700
C 	C 	0.45162 0.20434 0.38829 -0.11400
C 	C 	0.46505 0.23152 0.35998 0.12700
C 	C 	0.45349 0.22398 0.32042 0.06700
C 	C 	0.42586 0.19023 0.31003 0.02000
C 	C 	0.41158 0.16344 0.33864 0.07000
C 	C 	0.42629 0.16986 0.37680 0.12700
C 	C 	0.41297 0.18265 0.26863 0.02100
C 	C 	0.39047 0.19453 0.25465 0.07000
C 	C 	0.38643 0.19646 0.21348 0.12600
C 	C 	0.40333 0.18468 0.18670 -0.10200
C 	C 	0.41955 0.16630 0.20119 0.13000
C 	C 	0.42627 0.16707 0.24196 0.07000
Br	Br	0.37137 0.11831 0.32581 -0.10000
Br	Br	0.49752 0.27934 0.37565 -0.11300
Br	Br	0.35966 0.21705 0.19379 -0.17100
Br	Br	0.45615 0.14963 0.26080 -0.10900
Br	Br	0.41395 0.13110 0.41220 -0.16100
Br	Br	0.47591 0.25960 0.28021 -0.11400
Br	Br	0.36656 0.20936 0.29186 -0.10700
Br	Br	0.43244 0.14020 0.16510 -0.11700
C 	C 	0.70425 0.48524 0.02676 -0.11500
C 	C 	0.67942 0.48495 0.05413 0.12600
C 	C 	0.64901 0.45309 0.06399 0.07000
C 	C 	0.64212 0.42190 0.04433 0.01900
C 	C 	0.66564 0.42267 0.01476 0.07100
C 	C 	0.69724 0.45412 0.00685 0.13400
C 	C 	0.61082 0.38811 0.05559 0.02300
C 	C 	0.61451 0.36566 0.08217 0.06700
C 	C 	0.58653 0.33111 0.08738 0.13400
C 	C 	0.55452 0.31945 0.06701 -0.11300
C 	C 	0.54937 0.34337 0.04466 0.13200
C 	C 	0.57786 0.37736 0.03782 0.06800
Br	Br	0.65450 0.38053 0.98532 -0.11800
Br	Br	0.68658 0.52842 0.07700 -0.16600
Br	Br	0.59216 0.29952 0.12177 -0.10700
Br	Br	0.57240 0.40858 0.00256 -0.10500
Br	Br	0.73177 0.45419 0.97045 -0.12400
Br	Br	0.61730 0.45188 0.10520 -0.10300
Br	Br	0.65829 0.38205 0.11039 -0.10000
Br	Br	0.50338 0.32943 0.02322 -0.20700
C 	C 	0.53097 0.17448 0.08516 -0.09700
C 	C 	0.53767 0.15138 0.06240 0.12600
C 	C 	0.57154 0.15500 0.06298 0.06800
C 	C 	0.59750 0.18018 0.08831 0.02100
C 	C 	0.58750 0.19640 0.11800 0.06900
C 	C 	0.55350 0.19246 0.11726 0.12700
C 	C 	0.63540 0.19421 0.07907 0.02000
C 	C 	0.65404 0.17955 0.09682 0.07100
C 	C 	0.69030 0.19348 0.08852 0.12900
C 	C 	0.70787 0.22200 0.06217 -0.10600
C 	C 	0.68931 0.23726 0.04533 0.13400
C 	C 	0.65302 0.22302 0.05329 0.06900
Br	Br	0.62117 0.22597 0.15748 -0.09800
Br	Br	0.50014 0.11418 0.03230 -0.11100
Br	Br	0.71577 0.17356 0.11340 -0.16200
Br	Br	0.62729 0.24307 0.02906 -0.12600
Br	Br	0.53654 0.20762 0.16209 -0.09800
Br	Br	0.58332 0.12785 0.02716 -0.10500
Br	Br	0.62981 0.14044 0.13261 -0.09600
Br	Br	0.71399 0.27892 0.01319 -0.15000
C 	C 	0.25866 0.95486 0.94584 -0.10900
C 	C 	0.24600 0.97244 0.97032 0.13100
C 	C 	0.26804 0.00821 0.97923 0.06300
C 	C 	0.30265 0.02647 0.96345 0.02200
C 	C 	0.31534 0.00884 0.93909 0.07000
C 	C 	0.29329 0.97305 0.93020 0.12100
C 	C 	0.32525 0.06441 0.97156 0.01400
C 	C 	0.32404 0.08901 0.94624 0.06700
C 	C 	0.34238 0.12488 0.95627 0.13300
C 	C 	0.36091 0.13596 0.99260 -0.12500
C 	C 	0.36446 0.11160 0.01611 0.13100
C 	C 	0.34650 0.07583 0.00570 0.07400
Br	Br	0.36291 0.03389 0.91792 -0.11200
Br	Br	0.19825 0.94765 0.99099 -0.10000
Br	Br	0.34284 0.15852 0.91954 -0.11200
Br	Br	0.35029 0.04222 0.03858 -0.10300
Br	Br	0.31047 0.94875 0.89678 -0.18600
Br	Br	0.25090 0.03242 0.01287 -0.09800
Br	Br	0.29632 0.07328 0.89833 -0.11300
Br	Br	0.39493 0.12748 0.06177 -0.21200
C 	C 	0.23682 0.32827 0.94218 -0.09800
C 	C 	0.23695 0.31182 0.97782 0.12900
C 	C 	0.25986 0.29831 0.98185 0.06500
C 	C 	0.28026 0.29833 0.94907 0.02100
C 	C 	0.27602 0.30993 0.91179 0.07200
C 	C 	0.25503 0.32580 0.90855 0.12300
C 	C 	0.30774 0.28842 0.95461 0.02100
C 	C 	0.34265 0.31448 0.96372 0.06800
C 	C 	0.36681 0.30482 0.97777 0.13100
C 	C 	0.35573 0.26901 0.98368 -0.10500
C 	C 	0.32101 0.24303 0.97347 0.12600
C 	C 	0.29790 0.25277 0.95663 0.07000
Br	Br	0.29970 0.30484 0.86561 -0.10000
Br	Br	0.20557 0.30764 0.02097 -0.09200
Br	Br	0.41409 0.34076 0.99205 -0.11300
Br	Br	0.25212 0.21733 0.93771 -0.10300
Br	Br	0.25299 0.34607 0.85886 -0.17100
Br	Br	0.26497 0.28175 0.03284 -0.10500
Br	Br	0.35672 0.36345 0.95893 -0.11000
Br	Br	0.30376 0.19464 0.98684 -0.13800
