data_crystal

_cell_length_a 48.14447
_cell_length_b 71.73716
_cell_length_c 24.30770
_cell_angle_alpha 89.99986
_cell_angle_beta  90.00028
_cell_angle_gamma 91.86062

_symmetry_space_group_name_	'P 1'
_symmetry_space_group_name_H-M	'P 1'

loop_
_symmetry_equiv_pos_as_xyz
  x,y,z

loop_
_atom_site_label
_atom_site_type_symbol
_atom_site_fract_x
_atom_site_fract_y
_atom_site_fract_z
_atom_site_charge
Cu	Cu	0.60841 0.79721 0.95418 0.92800
Cu	Cu	0.58173 0.83707 0.98454 0.87000
Cu	Cu	0.56214 0.80156 0.03870 0.89300
Cu	Cu	0.59023 0.76402 0.03324 0.89100
C 	C 	0.64633 0.76916 0.98491 0.27900
O 	O 	0.58854 0.77841 0.90483 -0.36100
C 	C 	0.52645 0.83416 0.02456 0.26800
O 	O 	0.59785 0.79006 0.03598 -0.63800
O 	O 	0.57436 0.81115 0.96522 -0.64100
O 	O 	0.63294 0.81867 0.93253 -0.37700
O 	O 	0.61978 0.83633 0.00471 -0.44600
O 	O 	0.62528 0.75741 0.99502 -0.38300
O 	O 	0.55242 0.79168 0.11060 -0.38200
C 	C 	0.55129 0.77373 0.12281 0.27900
C 	C 	0.56476 0.77023 0.91916 0.27200
O 	O 	0.55828 0.76819 0.97143 -0.38900
O 	O 	0.57058 0.76246 0.10528 -0.39000
O 	O 	0.64254 0.78453 0.95667 -0.36200
C 	C 	0.63841 0.83212 0.96780 0.28800
O 	O 	0.52935 0.81724 0.04543 -0.38000
O 	O 	0.54278 0.84055 0.98493 -0.41300
H 	H 	0.61088 0.79421 0.06536 0.16100
H 	H 	0.56009 0.80932 0.93621 0.17200
O 	O 	0.77033 0.42572 0.28633 -0.37700
Cu	Cu	0.19175 0.55038 0.26186 0.92900
Cu	Cu	0.16138 0.58969 0.24117 0.86800
Cu	Cu	0.13066 0.55260 0.23052 0.89500
Cu	Cu	0.15184 0.51497 0.26209 0.89100
C 	C 	0.20358 0.51899 0.33029 0.28000
O 	O 	0.20472 0.53453 0.19895 -0.36300
C 	C 	0.11419 0.58677 0.17181 0.27400
O 	O 	0.15206 0.54010 0.28514 -0.64100
O 	O 	0.16764 0.56478 0.21360 -0.64300
O 	O 	0.21275 0.57169 0.29500 -0.37700
O 	O 	0.17405 0.58755 0.31493 -0.43800
O 	O 	0.18796 0.50829 0.29748 -0.38200
O 	O 	0.09579 0.54061 0.25251 -0.38300
C 	C 	0.09062 0.52240 0.25446 0.27900
C 	C 	0.18717 0.52714 0.16311 0.27200
O 	O 	0.16130 0.52329 0.17764 -0.39000
O 	O 	0.11052 0.51052 0.26493 -0.39100
O 	O 	0.20945 0.53658 0.31785 -0.36600
C 	C 	0.20015 0.58406 0.32479 0.28500
O 	O 	0.10842 0.56902 0.18380 -0.38000
O 	O 	0.13947 0.59403 0.17777 -0.41900
H 	H 	0.14599 0.54212 0.32355 0.16400
H 	H 	0.17249 0.56447 0.17404 0.17100
Cu	Cu	0.69270 0.55046 0.75369 0.92900
Cu	Cu	0.66234 0.58986 0.73456 0.86800
Cu	Cu	0.63140 0.55283 0.72427 0.89500
Cu	Cu	0.65257 0.51512 0.75508 0.89200
C 	C 	0.70477 0.51904 0.82178 0.28100
O 	O 	0.70503 0.53461 0.69025 -0.36300
C 	C 	0.61458 0.58710 0.66665 0.27400
O 	O 	0.65314 0.54026 0.77819 -0.64100
O 	O 	0.66828 0.56497 0.70639 -0.64300
O 	O 	0.71411 0.57170 0.78628 -0.37700
O 	O 	0.67568 0.58761 0.80784 -0.43800
O 	O 	0.68892 0.50837 0.78931 -0.38100
O 	O 	0.59663 0.54092 0.74719 -0.38400
C 	C 	0.59140 0.52272 0.74928 0.28000
C 	C 	0.68713 0.52726 0.65499 0.27300
O 	O 	0.66138 0.52344 0.67036 -0.39100
O 	O 	0.61125 0.51078 0.75923 -0.38900
O 	O 	0.71081 0.53658 0.80895 -0.36600
C 	C 	0.70183 0.58403 0.81675 0.28500
O 	O 	0.60897 0.56930 0.67816 -0.37900
O 	O 	0.63988 0.59438 0.67201 -0.41800
H 	H 	0.64738 0.54229 0.81678 0.16400
H 	H 	0.67283 0.56471 0.66668 0.17200
Cu	Cu	0.29257 0.44722 0.76213 0.92900
Cu	Cu	0.32313 0.40797 0.74180 0.86800
Cu	Cu	0.35365 0.44512 0.73060 0.89500
Cu	Cu	0.33227 0.48275 0.76192 0.89200
C 	C 	0.28059 0.47865 0.83032 0.28100
O 	O 	0.27941 0.46294 0.69908 -0.36300
C 	C 	0.37025 0.41091 0.67239 0.27400
O 	O 	0.33223 0.45764 0.78516 -0.64100
O 	O 	0.31672 0.43283 0.71396 -0.64300
O 	O 	0.27184 0.42588 0.79578 -0.37700
O 	O 	0.31073 0.41024 0.81571 -0.43700
O 	O 	0.29616 0.48936 0.79744 -0.38200
O 	O 	0.38846 0.45723 0.75235 -0.38300
C 	C 	0.39353 0.47545 0.75397 0.27900
C 	C 	0.29688 0.47040 0.66318 0.27300
O 	O 	0.32275 0.47430 0.67760 -0.39100
O 	O 	0.37359 0.48730 0.76447 -0.39000
O 	O 	0.27484 0.46103 0.81802 -0.36600
C 	C 	0.28467 0.41371 0.82591 0.28500
O 	O 	0.37595 0.42869 0.68404 -0.38000
O 	O 	0.34498 0.40363 0.67835 -0.41800
H 	H 	0.33834 0.45568 0.82356 0.16400
H 	H 	0.31182 0.43308 0.67441 0.17200
Cu	Cu	0.60631 0.29648 0.46795 0.92800
Cu	Cu	0.57736 0.33641 0.48716 0.86800
Cu	Cu	0.55920 0.30207 0.54951 0.89500
Cu	Cu	0.58940 0.26573 0.55574 0.89300
C 	C 	0.64537 0.27013 0.50575 0.28000
O 	O 	0.58768 0.27552 0.42443 -0.36200
C 	C 	0.52226 0.33326 0.52828 0.27300
O 	O 	0.59578 0.29183 0.55121 -0.63700
O 	O 	0.57142 0.30984 0.47424 -0.64200
O 	O 	0.62969 0.31766 0.44016 -0.37500
O 	O 	0.61554 0.33722 0.50706 -0.43900
O 	O 	0.62454 0.25853 0.51874 -0.38500
O 	O 	0.54954 0.29463 0.62389 -0.38200
C 	C 	0.55017 0.27739 0.64269 0.28000
C 	C 	0.56399 0.26762 0.44047 0.27100
O 	O 	0.55727 0.26732 0.49293 -0.39300
O 	O 	0.57019 0.26618 0.62830 -0.39100
O 	O 	0.64115 0.28490 0.47506 -0.36300
C 	C 	0.63437 0.33234 0.47134 0.28200
O 	O 	0.52509 0.31646 0.54982 -0.38000
O 	O 	0.53817 0.33919 0.48740 -0.41800
H 	H 	0.60827 0.29728 0.57975 0.16300
H 	H 	0.55744 0.30686 0.44539 0.17200
Cu	Cu	0.69508 0.05131 0.26308 0.92900
Cu	Cu	0.66454 0.09055 0.24243 0.86800
Cu	Cu	0.63399 0.05339 0.23156 0.89500
Cu	Cu	0.65536 0.01579 0.26328 0.89100
C 	C 	0.70708 0.01997 0.33155 0.28000
O 	O 	0.70819 0.03552 0.20015 -0.36300
C 	C 	0.61741 0.08756 0.17307 0.27400
O 	O 	0.65542 0.04093 0.28624 -0.64100
O 	O 	0.67092 0.06566 0.21481 -0.64300
O 	O 	0.71583 0.07268 0.29650 -0.37700
O 	O 	0.67695 0.08836 0.31636 -0.43800
O 	O 	0.69150 0.00922 0.29877 -0.38200
O 	O 	0.59918 0.04129 0.25337 -0.38300
C 	C 	0.59413 0.02307 0.25510 0.27900
C 	C 	0.69070 0.02802 0.16437 0.27200
O 	O 	0.66483 0.02413 0.17887 -0.39100
O 	O 	0.61405 0.01125 0.26602 -0.39100
O 	O 	0.71283 0.03756 0.31907 -0.36600
C 	C 	0.70301 0.08487 0.32658 0.28500
O 	O 	0.61170 0.06979 0.18489 -0.38000
O 	O 	0.64269 0.09482 0.17894 -0.41900
H 	H 	0.64932 0.04294 0.32463 0.16400
H 	H 	0.67582 0.06537 0.17526 0.17100
Cu	Cu	0.29509 0.94784 0.25367 0.92900
Cu	Cu	0.32553 0.90847 0.23435 0.86800
Cu	Cu	0.35639 0.94553 0.22410 0.89500
Cu	Cu	0.33513 0.98322 0.25489 0.89100
C 	C 	0.28300 0.97924 0.32178 0.28000
O 	O 	0.28265 0.96366 0.19025 -0.36300
C 	C 	0.37325 0.91129 0.16635 0.27400
O 	O 	0.33465 0.95809 0.27804 -0.64100
O 	O 	0.31952 0.93336 0.20627 -0.64300
O 	O 	0.27380 0.92657 0.28640 -0.37700
O 	O 	0.31232 0.91071 0.30771 -0.43800
O 	O 	0.29880 0.98993 0.28925 -0.38200
O 	O 	0.39114 0.95747 0.24701 -0.38400
C 	C 	0.39635 0.97567 0.24914 0.28000
C 	C 	0.30049 0.97105 0.15495 0.27200
O 	O 	0.32626 0.97487 0.17023 -0.39100
O 	O 	0.37645 0.98761 0.25884 -0.39000
O 	O 	0.27699 0.96170 0.30898 -0.36600
C 	C 	0.28618 0.91426 0.31681 0.28500
O 	O 	0.37886 0.92908 0.17799 -0.37900
O 	O 	0.34794 0.90401 0.17171 -0.41800
H 	H 	0.34043 0.95607 0.31662 0.16300
H 	H 	0.31495 0.93363 0.16657 0.17100
Cu	Cu	0.10739 0.79778 0.45442 0.92800
Cu	Cu	0.08038 0.83769 0.48303 0.86800
Cu	Cu	0.06109 0.80231 0.53887 0.89500
Cu	Cu	0.08971 0.76504 0.53524 0.89400
C 	C 	0.14567 0.77007 0.48602 0.27900
O 	O 	0.08777 0.77846 0.40631 -0.36200
C 	C 	0.02544 0.83477 0.52467 0.27300
O 	O 	0.09705 0.79111 0.53672 -0.63600
O 	O 	0.07317 0.81161 0.46493 -0.64300
O 	O 	0.13155 0.81920 0.43098 -0.37600
O 	O 	0.11858 0.83729 0.50234 -0.43900
O 	O 	0.12468 0.75834 0.49680 -0.38500
O 	O 	0.05134 0.79274 0.61121 -0.38100
C 	C 	0.05075 0.77488 0.62441 0.28000
C 	C 	0.06409 0.77028 0.42122 0.27200
O 	O 	0.05755 0.76884 0.47359 -0.39200
O 	O 	0.07043 0.76379 0.60763 -0.38900
O 	O 	0.14171 0.78538 0.45757 -0.36300
C 	C 	0.13705 0.83292 0.46528 0.28300
O 	O 	0.02794 0.81766 0.54429 -0.37900
O 	O 	0.04141 0.84112 0.48444 -0.41800
H 	H 	0.11003 0.79551 0.56589 0.16200
H 	H 	0.05890 0.80957 0.43604 0.17200
Cu	Cu	0.37939 0.70105 0.45412 0.92800
Cu	Cu	0.40624 0.66123 0.48424 0.86800
Cu	Cu	0.42567 0.69676 0.53864 0.89500
Cu	Cu	0.39744 0.73424 0.53328 0.89300
C 	C 	0.34135 0.72904 0.48485 0.27900
O 	O 	0.39919 0.71992 0.40486 -0.36200
C 	C 	0.46148 0.66422 0.52438 0.27400
O 	O 	0.38992 0.70820 0.53594 -0.63600
O 	O 	0.41350 0.68718 0.46511 -0.64300
O 	O 	0.35496 0.67957 0.43235 -0.37600
O 	O 	0.36818 0.66188 0.50443 -0.43900
O 	O 	0.36237 0.74081 0.49504 -0.38500
O 	O 	0.43535 0.70663 0.61057 -0.38200
C 	C 	0.43643 0.72457 0.62282 0.28000
C 	C 	0.42296 0.72811 0.41919 0.27300
O 	O 	0.42942 0.73015 0.47147 -0.39100
O 	O 	0.41709 0.73581 0.60533 -0.38900
O 	O 	0.34521 0.71367 0.45666 -0.36300
C 	C 	0.34953 0.66610 0.46756 0.28200
O 	O 	0.45852 0.68111 0.54535 -0.38000
O 	O 	0.44520 0.65784 0.48466 -0.41900
H 	H 	0.37690 0.70401 0.56530 0.16200
H 	H 	0.42777 0.68906 0.43611 0.17100
Cu	Cu	0.10878 0.29671 0.96942 0.92900
Cu	Cu	0.08183 0.33665 0.99770 0.87000
Cu	Cu	0.06217 0.30139 0.05299 0.89400
Cu	Cu	0.09039 0.26388 0.04952 0.89200
C 	C 	0.14663 0.26883 0.00177 0.27400
O 	O 	0.08915 0.27761 0.92068 -0.36000
C 	C 	0.02631 0.33381 0.03667 0.26900
O 	O 	0.09793 0.28993 0.05133 -0.63700
O 	O 	0.07464 0.31064 0.97931 -0.64200
O 	O 	0.13327 0.31808 0.94694 -0.37600
O 	O 	0.11988 0.33612 0.01812 -0.44500
O 	O 	0.12555 0.25712 0.01194 -0.38500
O 	O 	0.05217 0.29182 0.12512 -0.38200
C 	C 	0.05110 0.27393 0.13806 0.27900
C 	C 	0.06526 0.26958 0.93490 0.27200
O 	O 	0.05861 0.26771 0.98714 -0.38900
O 	O 	0.07055 0.26265 0.12137 -0.39000
O 	O 	0.14295 0.28412 0.97305 -0.35800
C 	C 	0.13857 0.33177 0.98147 0.28800
O 	O 	0.02928 0.31704 0.05849 -0.38000
O 	O 	0.04288 0.34009 0.99726 -0.41400
H 	H 	0.11084 0.29424 0.08074 0.16100
H 	H 	0.06048 0.30866 0.95016 0.17200
Cu	Cu	0.38148 0.20195 0.96795 0.92900
Cu	Cu	0.41039 0.16201 0.98723 0.86900
Cu	Cu	0.42859 0.19636 0.04951 0.89400
Cu	Cu	0.39841 0.23271 0.05572 0.89200
C 	C 	0.34244 0.22832 0.00574 0.27500
O 	O 	0.40013 0.22290 0.92443 -0.36100
C 	C 	0.46550 0.16516 0.02837 0.26800
O 	O 	0.39201 0.20661 0.05121 -0.63900
O 	O 	0.41636 0.18857 0.97426 -0.64100
O 	O 	0.35808 0.18078 0.94017 -0.37600
O 	O 	0.37221 0.16122 0.00709 -0.44400
O 	O 	0.36328 0.23991 0.01870 -0.38600
O 	O 	0.43825 0.20380 0.12390 -0.38200
C 	C 	0.43763 0.22105 0.14269 0.28000
C 	C 	0.42382 0.23080 0.94046 0.27100
O 	O 	0.43054 0.23110 0.99292 -0.39000
O 	O 	0.41761 0.23226 0.12829 -0.39100
O 	O 	0.34665 0.21355 0.97505 -0.35900
C 	C 	0.35339 0.16610 0.97134 0.28800
O 	O 	0.46269 0.18197 0.04980 -0.38100
O 	O 	0.44958 0.15922 0.98751 -0.41300
H 	H 	0.37952 0.20116 0.07976 0.16200
H 	H 	0.43033 0.19155 0.94541 0.17200
Cu	Cu	0.19612 0.05141 0.75354 0.92900
Cu	Cu	0.16541 0.09076 0.73541 0.86800
Cu	Cu	0.13472 0.05363 0.72483 0.89500
Cu	Cu	0.15620 0.01594 0.75481 0.89100
C 	C 	0.20840 0.01997 0.82133 0.28100
O 	O 	0.20841 0.03573 0.68975 -0.36300
C 	C 	0.11735 0.08793 0.66834 0.27300
O 	O 	0.15668 0.04104 0.77831 -0.64100
O 	O 	0.17146 0.06593 0.70674 -0.64200
O 	O 	0.21748 0.07266 0.78619 -0.37700
O 	O 	0.17902 0.08843 0.80850 -0.43700
O 	O 	0.19264 0.00927 0.78878 -0.38100
O 	O 	0.10009 0.04161 0.74804 -0.38400
C 	C 	0.09494 0.02340 0.74991 0.28000
C 	C 	0.19051 0.02833 0.65459 0.27300
O 	O 	0.16481 0.02443 0.67015 -0.39100
O 	O 	0.11490 0.01146 0.75912 -0.39000
O 	O 	0.21449 0.03748 0.80837 -0.36600
C 	C 	0.20521 0.08488 0.81707 0.28500
O 	O 	0.11207 0.07004 0.67908 -0.37900
O 	O 	0.14261 0.09532 0.67336 -0.41800
H 	H 	0.15100 0.04299 0.81699 0.16400
H 	H 	0.17590 0.06576 0.66697 0.17200
C 	C 	0.01002 0.00312 0.75254 -0.00800
C 	C 	0.01730 0.02048 0.77669 0.01500
C 	C 	0.03062 0.99240 0.72767 0.01500
C 	C 	0.02317 0.97516 0.70347 -0.04300
C 	C 	0.04510 0.02708 0.77571 -0.02600
C 	C 	0.06570 0.01640 0.75101 -0.05800
C 	C 	0.05840 0.99906 0.72716 -0.02800
H 	H 	0.00204 0.04439 0.82028 0.03700
H 	H 	0.03883 0.96683 0.68419 0.03600
H 	H 	0.05074 0.04037 0.79455 0.04400
H 	H 	0.07426 0.99089 0.70781 0.03900
C 	C 	0.23550 0.14669 0.88516 -0.04300
C 	C 	0.25689 0.15828 0.90626 -0.04400
C 	C 	0.28100 0.15054 0.92789 0.01500
C 	C 	0.28294 0.13099 0.93114 -0.00900
C 	C 	0.26141 0.11933 0.90999 -0.00800
C 	C 	0.23794 0.12722 0.88556 0.01200
C 	C 	0.26404 0.09980 0.91054 0.01400
C 	C 	0.28745 0.09204 0.93494 -0.04200
C 	C 	0.30883 0.10363 0.95604 -0.04300
C 	C 	0.30704 0.12311 0.95301 0.01300
C 	C 	0.32953 0.13476 0.96912 -0.02600
C 	C 	0.32830 0.15419 0.96264 -0.07000
C 	C 	0.30366 0.16207 0.94398 -0.02400
C 	C 	0.21806 0.11563 0.85909 -0.02600
C 	C 	0.22183 0.09631 0.85592 -0.07000
C 	C 	0.24404 0.08836 0.88399 -0.02200
H 	H 	0.21733 0.15287 0.86735 0.03500
H 	H 	0.25496 0.17328 0.90464 0.04000
H 	H 	0.28944 0.07704 0.93637 0.03700
H 	H 	0.32706 0.09744 0.97359 0.03500
H 	H 	0.34841 0.12871 0.98430 0.02800
H 	H 	0.30246 0.17711 0.94056 0.04800
H 	H 	0.20063 0.12171 0.83818 0.02600
H 	H 	0.24643 0.07337 0.88283 0.04600
C 	C 	0.24202 0.21311 0.01259 -0.04400
C 	C 	0.21447 0.21874 0.01181 -0.04300
C 	C 	0.20855 0.23778 0.01302 0.01500
C 	C 	0.23053 0.25126 0.01596 -0.00900
C 	C 	0.25827 0.24559 0.01666 -0.00900
C 	C 	0.26402 0.22645 0.01460 0.01600
C 	C 	0.28026 0.25907 0.01821 0.01500
C 	C 	0.27434 0.27811 0.02008 -0.04400
C 	C 	0.24678 0.28374 0.01949 -0.04400
C 	C 	0.22479 0.27040 0.01703 0.01600
C 	C 	0.19719 0.27599 0.01449 -0.02900
C 	C 	0.17528 0.26264 0.00979 -0.05900
C 	C 	0.18099 0.24353 0.01007 -0.02800
C 	C 	0.29167 0.22090 0.01336 -0.02900
C 	C 	0.31363 0.23432 0.01301 -0.05900
C 	C 	0.30787 0.25338 0.01653 -0.02900
H 	H 	0.24625 0.19837 0.01101 0.03700
H 	H 	0.19774 0.20828 0.00975 0.03700
H 	H 	0.29107 0.28858 0.02147 0.03700
H 	H 	0.24256 0.29849 0.02034 0.03700
H 	H 	0.19273 0.29072 0.01541 0.04100
H 	H 	0.16412 0.23320 0.00659 0.04400
H 	H 	0.29613 0.20618 0.01179 0.04200
H 	H 	0.32477 0.26376 0.01646 0.04400
C 	C 	0.00527 0.86567 0.54320 -0.02900
C 	C 	0.00223 0.84611 0.54326 -0.06300
H 	H 	0.00590 0.90297 0.54843 0.03400
H 	H 	0.02454 0.87230 0.52902 0.02900
C 	C 	0.24612 0.78490 0.49649 -0.04300
C 	C 	0.27365 0.77921 0.49608 -0.04300
C 	C 	0.27946 0.76015 0.49594 0.01500
C 	C 	0.25739 0.74671 0.49702 -0.00900
C 	C 	0.22968 0.75244 0.49722 -0.00900
C 	C 	0.22404 0.77160 0.49668 0.01600
C 	C 	0.20761 0.73900 0.49688 0.01500
C 	C 	0.21342 0.71994 0.49739 -0.04300
C 	C 	0.24095 0.71424 0.49740 -0.04300
C 	C 	0.26302 0.72754 0.49685 0.01600
C 	C 	0.29062 0.72190 0.49506 -0.02800
C 	C 	0.31263 0.73524 0.49208 -0.06000
C 	C 	0.30701 0.75436 0.49353 -0.02800
C 	C 	0.19645 0.77724 0.49526 -0.02800
C 	C 	0.17441 0.76389 0.49301 -0.06000
C 	C 	0.18004 0.74478 0.49485 -0.02800
H 	H 	0.24198 0.79967 0.49606 0.03800
H 	H 	0.29044 0.78964 0.49544 0.03700
H 	H 	0.19662 0.70950 0.49732 0.03700
H 	H 	0.24508 0.69948 0.49726 0.03800
H 	H 	0.29499 0.70716 0.49527 0.04300
H 	H 	0.32395 0.76468 0.49147 0.04400
H 	H 	0.19207 0.79198 0.49516 0.04300
H 	H 	0.16309 0.73446 0.49335 0.04400
C 	C 	0.20527 0.97669 0.45432 -0.04300
C 	C 	0.19183 0.98378 0.50050 -0.04300
C 	C 	0.20151 0.00051 0.52487 0.01500
C 	C 	0.22444 0.01044 0.50171 -0.00800
C 	C 	0.23803 0.00327 0.45530 -0.00900
C 	C 	0.22856 0.98625 0.43190 0.01600
C 	C 	0.26152 0.01289 0.43322 0.01600
C 	C 	0.27078 0.02986 0.45679 -0.04300
C 	C 	0.25724 0.03700 0.50281 -0.04200
C 	C 	0.23433 0.02723 0.52596 0.01500
C 	C 	0.22182 0.03370 0.57416 -0.02600
C 	C 	0.19992 0.02332 0.59895 -0.06200
C 	C 	0.18921 0.00707 0.57325 -0.02600
C 	C 	0.24282 0.97877 0.38716 -0.02800
C 	C 	0.26678 0.98803 0.36598 -0.05700
C 	C 	0.27583 0.00521 0.38869 -0.03000
H 	H 	0.19776 0.96364 0.43643 0.03700
H 	H 	0.17412 0.97611 0.51773 0.03600
H 	H 	0.28865 0.03744 0.43988 0.03700
H 	H 	0.26486 0.04999 0.52091 0.03700
H 	H 	0.22964 0.04648 0.59335 0.03900
H 	H 	0.17218 0.99914 0.59214 0.03800
H 	H 	0.23549 0.96567 0.36924 0.05100
H 	H 	0.29427 0.01237 0.37255 0.03800
C 	C 	0.28607 0.02248 0.95402 -0.03300
C 	C 	0.29941 0.01543 0.00036 -0.05300
C 	C 	0.28958 0.99878 0.02500 0.02100
C 	C 	0.26655 0.98890 0.00198 -0.01900
C 	C 	0.25307 0.99603 0.95540 0.00300
C 	C 	0.26271 0.01297 0.93170 0.01000
C 	C 	0.22951 0.98647 0.93343 0.00900
C 	C 	0.22007 0.96959 0.95730 -0.03300
C 	C 	0.23351 0.96249 0.00349 -0.05300
C 	C 	0.25650 0.97220 0.02651 0.02200
C 	C 	0.26895 0.96576 0.07481 -0.03000
C 	C 	0.29097 0.97608 0.09939 -0.06000
C 	C 	0.30181 0.99225 0.07347 -0.03000
C 	C 	0.24856 0.02041 0.88676 -0.02400
C 	C 	0.22454 0.01120 0.86569 -0.05900
C 	C 	0.21531 0.99410 0.88869 -0.02600
H 	H 	0.29371 0.03547 0.93591 0.03600
H 	H 	0.31719 0.02306 0.01749 0.03800
H 	H 	0.20214 0.96204 0.94048 0.03500
H 	H 	0.22576 0.94956 0.02181 0.03900
H 	H 	0.26102 0.95304 0.09418 0.03900
H 	H 	0.31893 0.00014 0.09221 0.03900
H 	H 	0.25602 0.03344 0.86862 0.05000
H 	H 	0.19681 0.98698 0.87263 0.03700
C 	C 	0.20453 0.90668 0.43605 -0.04200
C 	C 	0.18303 0.89506 0.45652 -0.04400
C 	C 	0.18441 0.87560 0.45166 0.01300
C 	C 	0.20825 0.86773 0.42868 -0.00900
C 	C 	0.22994 0.87942 0.40826 -0.00800
C 	C 	0.22768 0.89897 0.41053 0.01300
C 	C 	0.25314 0.87158 0.38271 0.01200
C 	C 	0.25519 0.85210 0.38050 -0.04300
C 	C 	0.23362 0.84048 0.40078 -0.04400
C 	C 	0.20975 0.84820 0.42345 0.01400
C 	C 	0.18685 0.83672 0.43848 -0.02500
C 	C 	0.16246 0.84464 0.45823 -0.06900
C 	C 	0.16171 0.86399 0.46688 -0.02700
C 	C 	0.24773 0.91050 0.38447 -0.02200
C 	C 	0.26964 0.90263 0.35528 -0.07000
C 	C 	0.27311 0.88326 0.35686 -0.02600
H 	H 	0.20284 0.92168 0.43883 0.03700
H 	H 	0.16500 0.90123 0.47494 0.03400
H 	H 	0.27316 0.84593 0.36185 0.03400
H 	H 	0.23523 0.82548 0.39768 0.03900
H 	H 	0.18764 0.82173 0.43322 0.04700
H 	H 	0.14300 0.87005 0.48289 0.02700
H 	H 	0.24558 0.92551 0.38451 0.04500
H 	H 	0.29032 0.87724 0.33509 0.02500
C 	C 	0.76581 0.98918 0.51184 -0.00800
C 	C 	0.75216 0.99622 0.46532 -0.00900
C 	C 	0.76187 0.01303 0.44094 0.01600
C 	C 	0.72839 0.98670 0.44409 0.01600
C 	C 	0.71889 0.96995 0.46864 -0.04300
C 	C 	0.73249 0.96293 0.51475 -0.04300
C 	C 	0.75571 0.97261 0.53703 0.01500
C 	C 	0.76837 0.96625 0.58520 -0.02600
C 	C 	0.74758 0.02038 0.39607 -0.02700
C 	C 	0.72335 0.01124 0.37576 -0.05700
C 	C 	0.71405 0.99426 0.39941 -0.03000
H 	H 	0.70079 0.96244 0.45240 0.03600
H 	H 	0.72470 0.95010 0.53359 0.03700
H 	H 	0.76043 0.95362 0.60505 0.03900
H 	H 	0.75511 0.03331 0.37736 0.05100
H 	H 	0.69539 0.98719 0.38391 0.03700
C 	C 	0.75904 0.03638 0.01510 -0.05300
C 	C 	0.76305 0.01260 0.94445 0.00900
C 	C 	0.73923 0.00313 0.96565 0.00300
C 	C 	0.72559 0.01021 0.01212 -0.02000
C 	C 	0.73575 0.02677 0.03732 0.02200
C 	C 	0.70227 0.00044 0.03432 0.02100
C 	C 	0.69231 0.98394 0.00902 -0.05300
C 	C 	0.70581 0.97694 0.96279 -0.03200
C 	C 	0.72944 0.98635 0.94126 0.01000
C 	C 	0.74370 0.97896 0.89637 -0.02300
C 	C 	0.76796 0.98807 0.87605 -0.05900
C 	C 	0.72308 0.03318 0.08542 -0.03000
C 	C 	0.70069 0.02297 0.10914 -0.06000
C 	C 	0.68980 0.00693 0.08260 -0.03100
H 	H 	0.76689 0.04920 0.03394 0.03800
H 	H 	0.67431 0.97638 0.02553 0.03800
H 	H 	0.69806 0.96406 0.94415 0.03600
H 	H 	0.73612 0.96605 0.87765 0.05000
H 	H 	0.73107 0.04579 0.10526 0.03900
H 	H 	0.67242 0.99913 0.10068 0.03900
C 	C 	0.55808 0.16003 0.11340 -0.04300
C 	C 	0.57932 0.14909 0.13371 -0.04400
C 	C 	0.57728 0.12956 0.12948 0.01400
C 	C 	0.55387 0.12096 0.10410 -0.00900
C 	C 	0.53251 0.13198 0.08351 -0.00900
C 	C 	0.53455 0.15158 0.08851 0.01400
C 	C 	0.50895 0.12338 0.05864 0.01400
C 	C 	0.50700 0.10386 0.05409 -0.04400
C 	C 	0.52819 0.09291 0.07466 -0.04400
C 	C 	0.55161 0.10135 0.09996 0.01400
C 	C 	0.57266 0.09042 0.12170 -0.02600
C 	C 	0.59589 0.09896 0.14760 -0.06300
C 	C 	0.59818 0.11854 0.15103 -0.02900
C 	C 	0.51288 0.16246 0.06926 -0.02600
C 	C 	0.48917 0.15389 0.04521 -0.06200
C 	C 	0.48743 0.13437 0.03946 -0.03000
H 	H 	0.55988 0.17507 0.11734 0.03700
H 	H 	0.59728 0.15582 0.15304 0.03500
H 	H 	0.48899 0.09713 0.03492 0.03400
H 	H 	0.52627 0.07786 0.07117 0.03700
H 	H 	0.57094 0.07534 0.11860 0.04600
H 	H 	0.61596 0.12514 0.17142 0.03200
H 	H 	0.51439 0.17752 0.07321 0.04600
H 	H 	0.46906 0.12775 0.02124 0.03000
C 	C 	0.46801 0.02402 0.20320 -0.04300
C 	C 	0.49571 0.03061 0.20378 -0.04400
C 	C 	0.51640 0.02001 0.22833 0.01700
C 	C 	0.50916 0.00262 0.25233 -0.01000
C 	C 	0.48126 0.99594 0.25152 -0.00800
C 	C 	0.46061 0.00671 0.22700 0.01500
C 	C 	0.47405 0.97850 0.27527 0.01500
C 	C 	0.49472 0.96790 0.29981 -0.04300
C 	C 	0.52238 0.97456 0.30079 -0.04400
C 	C 	0.52977 0.99190 0.27714 0.01500
C 	C 	0.55749 0.99863 0.27809 -0.02900
C 	C 	0.56483 0.01599 0.25417 -0.05700
C 	C 	0.54421 0.02659 0.22914 -0.03000
C 	C 	0.43285 0.00003 0.22649 -0.02800
C 	C 	0.42560 0.98263 0.25000 -0.05900
C 	C 	0.44625 0.97189 0.27429 -0.02600
H 	H 	0.45232 0.03239 0.18418 0.03600
H 	H 	0.50106 0.04398 0.18518 0.03800
H 	H 	0.48940 0.95449 0.31820 0.03700
H 	H 	0.53806 0.96621 0.31994 0.03700
H 	H 	0.57326 0.99047 0.29773 0.04300
H 	H 	0.54983 0.03985 0.21008 0.04700
H 	H 	0.41695 0.00824 0.20743 0.03900
H 	H 	0.44065 0.95855 0.29285 0.04400
C 	C 	0.00939 0.25044 0.80844 -0.00800
C 	C 	0.01313 0.23947 0.85589 0.01500
C 	C 	0.02362 0.26785 0.80311 0.01500
C 	C 	0.01962 0.27875 0.75595 -0.04200
C 	C 	0.00165 0.27239 0.71424 -0.04300
C 	C 	0.03107 0.24597 0.89774 -0.02500
C 	C 	0.04557 0.26318 0.89207 -0.06200
C 	C 	0.04174 0.27410 0.84488 -0.02600
H 	H 	0.03041 0.29216 0.75152 0.03700
H 	H 	0.03414 0.23753 0.93415 0.03800
H 	H 	0.05276 0.28747 0.84089 0.03500
C 	C 	0.00645 0.28295 0.31852 -0.04300
C 	C 	0.01032 0.27210 0.27117 0.01500
C 	C 	0.02801 0.27852 0.22881 -0.02400
C 	C 	0.03208 0.26745 0.18196 -0.06000
C 	C 	0.01828 0.24997 0.17726 -0.02800
H 	H 	0.01710 0.29641 0.32277 0.03700
H 	H 	0.03888 0.29195 0.23257 0.04400
H 	H 	0.02141 0.24150 0.14095 0.03500
C 	C 	0.07727 0.14928 0.63501 -0.04300
C 	C 	0.05540 0.16009 0.61684 -0.04300
C 	C 	0.03168 0.15155 0.59292 0.01500
C 	C 	0.03012 0.13198 0.58660 -0.00900
C 	C 	0.05214 0.12110 0.60488 -0.00900
C 	C 	0.07571 0.12978 0.62947 0.01400
C 	C 	0.05040 0.10151 0.59925 0.01500
C 	C 	0.02683 0.09298 0.57474 -0.04300
C 	C 	0.00941 0.16229 0.57575 -0.02600
C 	C 	0.09723 0.11886 0.64899 -0.03000
C 	C 	0.09538 0.09930 0.64428 -0.06200
C 	C 	0.07207 0.09069 0.61884 -0.02600
H 	H 	0.09535 0.15608 0.65368 0.03600
H 	H 	0.05686 0.17511 0.62169 0.03900
H 	H 	0.02534 0.07796 0.57002 0.03900
H 	H 	0.01061 0.17733 0.58048 0.04800
H 	H 	0.11511 0.12551 0.66889 0.03200
H 	H 	0.07075 0.07564 0.61457 0.04800
C 	C 	0.75301 0.15862 0.41635 -0.04400
C 	C 	0.73188 0.14690 0.39484 -0.04300
C 	C 	0.73444 0.12745 0.39595 0.01200
C 	C 	0.75766 0.11970 0.42170 -0.00800
C 	C 	0.76042 0.10019 0.42289 0.01400
C 	C 	0.74087 0.08862 0.39556 -0.02200
C 	C 	0.71898 0.09642 0.36615 -0.07000
C 	C 	0.71499 0.11572 0.36879 -0.02600
H 	H 	0.75104 0.17361 0.41404 0.03900
H 	H 	0.71387 0.15298 0.37607 0.03400
H 	H 	0.74341 0.07364 0.39482 0.04600
H 	H 	0.69777 0.12169 0.34688 0.02600
C 	C 	0.52996 0.22404 0.23027 -0.04300
C 	C 	0.54779 0.23076 0.27177 -0.04300
C 	C 	0.53743 0.24142 0.31522 0.01600
C 	C 	0.50885 0.24513 0.31738 -0.00900
C 	C 	0.49095 0.23850 0.27534 -0.00900
C 	C 	0.50157 0.22798 0.23152 0.01600
C 	C 	0.46251 0.24263 0.27672 0.01500
C 	C 	0.45206 0.25301 0.32071 -0.04300
C 	C 	0.46981 0.25947 0.36269 -0.04400
C 	C 	0.49825 0.25570 0.36112 0.01500
C 	C 	0.51630 0.26263 0.40222 -0.03000
C 	C 	0.54486 0.25931 0.39939 -0.06200
C 	C 	0.55533 0.24860 0.35615 -0.02800
C 	C 	0.48379 0.22182 0.18903 -0.02900
C 	C 	0.45563 0.22636 0.18954 -0.05900
C 	C 	0.44496 0.23657 0.23374 -0.02600
H 	H 	0.53830 0.21589 0.19692 0.03700
H 	H 	0.56968 0.22774 0.26993 0.03800
H 	H 	0.43022 0.25616 0.32229 0.03700
H 	H 	0.46144 0.26752 0.39620 0.03800
H 	H 	0.50830 0.27095 0.43559 0.03700
H 	H 	0.57736 0.24592 0.35439 0.04500
H 	H 	0.49195 0.21390 0.15495 0.04200
H 	H 	0.42311 0.23980 0.23453 0.04300
C 	C 	0.53575 0.24543 0.82071 -0.04200
C 	C 	0.51800 0.23896 0.86269 -0.04300
C 	C 	0.48956 0.24272 0.86111 0.01600
C 	C 	0.47895 0.25329 0.81737 -0.00900
C 	C 	0.49686 0.25992 0.77534 -0.00800
C 	C 	0.52529 0.25580 0.77672 0.01500
C 	C 	0.48623 0.27044 0.73152 0.01600
C 	C 	0.45784 0.27438 0.73026 -0.04300
C 	C 	0.44002 0.26766 0.77176 -0.04300
C 	C 	0.45038 0.25700 0.81521 0.01600
C 	C 	0.43247 0.24981 0.85614 -0.02800
C 	C 	0.44295 0.23911 0.89938 -0.06100
C 	C 	0.47151 0.23579 0.90222 -0.03000
C 	C 	0.54284 0.26187 0.73374 -0.02600
C 	C 	0.53218 0.27207 0.68954 -0.05900
C 	C 	0.50401 0.27660 0.68903 -0.02800
H 	H 	0.55760 0.24227 0.82230 0.03800
H 	H 	0.52637 0.23091 0.89620 0.03900
H 	H 	0.44950 0.28253 0.69692 0.03800
H 	H 	0.41812 0.27067 0.76992 0.03900
H 	H 	0.41044 0.25249 0.85437 0.04600
H 	H 	0.47952 0.22747 0.93558 0.03800
H 	H 	0.56469 0.25863 0.73453 0.04300
H 	H 	0.49585 0.28452 0.65494 0.04300
C 	C 	0.74578 0.28537 0.51257 -0.04300
C 	C 	0.75731 0.24723 0.51598 -0.00900
C 	C 	0.72956 0.25289 0.51667 -0.00900
C 	C 	0.72379 0.27203 0.51460 0.01600
C 	C 	0.70758 0.23940 0.51823 0.01500
C 	C 	0.71352 0.22037 0.52011 -0.04300
C 	C 	0.74108 0.21475 0.51952 -0.04300
C 	C 	0.76306 0.22809 0.51706 0.01600
C 	C 	0.69614 0.27757 0.51336 -0.02800
C 	C 	0.67419 0.26414 0.51302 -0.06000
C 	C 	0.67997 0.24508 0.51655 -0.02800
H 	H 	0.74154 0.30012 0.51099 0.03800
H 	H 	0.69680 0.20989 0.52151 0.03700
H 	H 	0.74531 0.20000 0.52038 0.03800
H 	H 	0.69166 0.29228 0.51178 0.04300
H 	H 	0.66308 0.23470 0.51649 0.04400
C 	C 	0.42969 0.33842 0.61337 -0.04300
C 	C 	0.40844 0.34936 0.63360 -0.04400
C 	C 	0.41044 0.36889 0.62917 0.01400
C 	C 	0.43383 0.37747 0.60368 -0.00900
C 	C 	0.45520 0.36645 0.58319 -0.00900
C 	C 	0.45320 0.34685 0.58839 0.01400
C 	C 	0.47874 0.37503 0.55822 0.01400
C 	C 	0.48065 0.39455 0.55347 -0.04400
C 	C 	0.45945 0.40551 0.57394 -0.04400
C 	C 	0.43605 0.39708 0.59934 0.01500
C 	C 	0.41499 0.40802 0.62099 -0.02600
C 	C 	0.39178 0.39948 0.64699 -0.06300
C 	C 	0.38952 0.37991 0.65062 -0.02900
C 	C 	0.47489 0.33597 0.56922 -0.02500
C 	C 	0.49858 0.34453 0.54506 -0.06300
C 	C 	0.50028 0.36404 0.53913 -0.02900
H 	H 	0.42792 0.32338 0.61747 0.03700
H 	H 	0.39049 0.34264 0.65301 0.03500
H 	H 	0.49865 0.40128 0.53421 0.03400
H 	H 	0.46134 0.42056 0.57029 0.03700
H 	H 	0.41668 0.42309 0.61774 0.04600
H 	H 	0.37176 0.37332 0.67109 0.03200
H 	H 	0.47341 0.32091 0.57332 0.04600
H 	H 	0.51863 0.37066 0.52082 0.03100
C 	C 	0.18304 0.39428 0.96970 -0.04300
C 	C 	0.20409 0.40600 0.94796 -0.04200
C 	C 	0.22728 0.39840 0.92228 0.01400
C 	C 	0.23009 0.37889 0.92121 -0.00800
C 	C 	0.20887 0.36709 0.94295 -0.00800
C 	C 	0.18493 0.37482 0.96597 0.01200
C 	C 	0.21088 0.34756 0.93887 0.01400
C 	C 	0.23483 0.33997 0.91610 -0.04300
C 	C 	0.25592 0.35170 0.89450 -0.04300
C 	C 	0.25332 0.37115 0.89549 0.01200
C 	C 	0.27275 0.38288 0.86826 -0.02600
C 	C 	0.26870 0.40217 0.86552 -0.07000
C 	C 	0.24680 0.40997 0.89487 -0.02200
C 	C 	0.16259 0.36305 0.98220 -0.02600
C 	C 	0.16379 0.34368 0.97445 -0.07000
C 	C 	0.18835 0.33592 0.95497 -0.02300
H 	H 	0.16495 0.40035 0.98817 0.03500
H 	H 	0.20199 0.42099 0.94985 0.03800
H 	H 	0.23683 0.32499 0.91388 0.04000
H 	H 	0.27394 0.34563 0.87574 0.03500
H 	H 	0.28998 0.37691 0.84639 0.02600
H 	H 	0.24422 0.42495 0.89405 0.04600
H 	H 	0.14378 0.36899 0.99810 0.02700
H 	H 	0.18951 0.32092 0.95055 0.04700
C 	C 	0.52531 0.59226 0.56844 -0.04300
C 	C 	0.50387 0.60313 0.54861 -0.04300
C 	C 	0.50546 0.62263 0.55408 0.01400
C 	C 	0.52891 0.63130 0.57912 -0.00900
C 	C 	0.55051 0.62036 0.59908 -0.00900
C 	C 	0.54861 0.60076 0.59403 0.01500
C 	C 	0.57380 0.62901 0.62473 0.01400
C 	C 	0.57552 0.64853 0.62969 -0.04300
C 	C 	0.55408 0.65939 0.60986 -0.04300
C 	C 	0.53063 0.65088 0.58483 0.01500
C 	C 	0.50877 0.66168 0.56600 -0.02600
C 	C 	0.48517 0.65304 0.54172 -0.06200
C 	C 	0.48371 0.63353 0.53549 -0.02900
C 	C 	0.56987 0.58990 0.61517 -0.02600
C 	C 	0.59293 0.59848 0.64153 -0.06200
C 	C 	0.59490 0.61804 0.64579 -0.02900
H 	H 	0.52370 0.57723 0.56416 0.03900
H 	H 	0.48595 0.59635 0.52924 0.03500
H 	H 	0.59341 0.65530 0.64919 0.03600
H 	H 	0.55566 0.67442 0.61427 0.03900
H 	H 	0.51007 0.67674 0.57030 0.04800
H 	H 	0.46543 0.62684 0.51713 0.03200
H 	H 	0.56845 0.57483 0.61128 0.04800
H 	H 	0.61258 0.62468 0.66645 0.03200
C 	C 	0.46525 0.52396 0.79988 -0.04400
C 	C 	0.49293 0.53060 0.79909 -0.04300
C 	C 	0.51364 0.51996 0.77480 0.01500
C 	C 	0.50644 0.50251 0.75111 -0.00800
C 	C 	0.47854 0.49585 0.75172 -0.01000
C 	C 	0.45789 0.50661 0.77628 0.01600
C 	C 	0.47132 0.47845 0.72779 0.01700
C 	C 	0.49204 0.46781 0.70349 -0.04400
C 	C 	0.51975 0.47439 0.70310 -0.04300
C 	C 	0.52712 0.49171 0.72684 0.01500
C 	C 	0.55490 0.49837 0.72651 -0.02800
C 	C 	0.56213 0.51578 0.74996 -0.05800
C 	C 	0.54144 0.52655 0.77401 -0.02600
C 	C 	0.43015 0.49989 0.77705 -0.02900
C 	C 	0.42284 0.48252 0.75320 -0.05700
C 	C 	0.44350 0.47189 0.72842 -0.03000
H 	H 	0.44955 0.53233 0.81884 0.03700
H 	H 	0.49823 0.54401 0.81743 0.03700
H 	H 	0.48671 0.45443 0.68495 0.03800
H 	H 	0.53547 0.46599 0.68427 0.03600
H 	H 	0.57083 0.49013 0.70764 0.03900
H 	H 	0.54703 0.53991 0.79252 0.04400
H 	H 	0.41436 0.50808 0.79650 0.04300
H 	H 	0.43790 0.45861 0.70941 0.04800
C 	C 	0.25551 0.53561 0.01389 -0.05400
C 	C 	0.26908 0.52859 0.96775 -0.03200
C 	C 	0.25944 0.51191 0.94298 0.00900
C 	C 	0.23555 0.50247 0.96401 0.00400
C 	C 	0.22192 0.50952 0.01055 -0.02000
C 	C 	0.23216 0.52602 0.03596 0.02200
C 	C 	0.19855 0.49976 0.03261 0.02200
C 	C 	0.18852 0.48332 0.00708 -0.05400
C 	C 	0.20200 0.47635 0.96078 -0.03200
C 	C 	0.22569 0.48574 0.93941 0.00900
C 	C 	0.23996 0.47837 0.89452 -0.02300
C 	C 	0.26432 0.48742 0.87445 -0.05900
C 	C 	0.27376 0.50433 0.89829 -0.02500
C 	C 	0.21952 0.53237 0.08415 -0.03100
C 	C 	0.19710 0.52217 0.10776 -0.05900
C 	C 	0.18612 0.50621 0.08099 -0.03100
H 	H 	0.26340 0.54838 0.03290 0.03900
H 	H 	0.28727 0.53603 0.95167 0.03500
H 	H 	0.17048 0.47579 0.02347 0.03800
H 	H 	0.19420 0.46352 0.94198 0.03600
H 	H 	0.23233 0.46550 0.87564 0.05000
H 	H 	0.29250 0.51133 0.88296 0.03700
H 	H 	0.22757 0.54495 0.10416 0.03900
H 	H 	0.16870 0.49841 0.09897 0.04000
C 	C 	0.29576 0.51407 0.50675 -0.04300
C 	C 	0.28232 0.52105 0.46042 -0.04300
C 	C 	0.25848 0.51177 0.43929 0.01600
C 	C 	0.24844 0.49513 0.46416 -0.00900
C 	C 	0.26203 0.48807 0.51072 -0.00800
C 	C 	0.28555 0.49772 0.53254 0.01500
C 	C 	0.25162 0.47167 0.53640 0.01500
C 	C 	0.22812 0.46217 0.51456 -0.04300
C 	C 	0.21458 0.46921 0.46840 -0.04300
C 	C 	0.22441 0.48580 0.44337 0.01600
C 	C 	0.21015 0.49338 0.39862 -0.03000
C 	C 	0.21977 0.51021 0.37450 -0.05700
C 	C 	0.24426 0.51916 0.39436 -0.02700
C 	C 	0.29798 0.49127 0.58091 -0.02700
C 	C 	0.28685 0.47539 0.60792 -0.06200
C 	C 	0.26425 0.46529 0.58458 -0.02600
H 	H 	0.31392 0.52153 0.52295 0.03600
H 	H 	0.29026 0.53381 0.44142 0.03700
H 	H 	0.22009 0.44947 0.53377 0.03700
H 	H 	0.19628 0.46184 0.45250 0.03600
H 	H 	0.19130 0.48646 0.38345 0.03700
H 	H 	0.25203 0.53196 0.37528 0.05100
H 	H 	0.31552 0.49899 0.59869 0.03900
H 	H 	0.25608 0.45279 0.60476 0.03900
C 	C 	0.30301 0.60408 0.46411 -0.04400
C 	C 	0.28142 0.59235 0.44452 -0.04200
C 	C 	0.25833 0.59992 0.41840 0.01300
C 	C 	0.25619 0.61945 0.41471 -0.00800
C 	C 	0.27796 0.63124 0.43423 -0.00900
C 	C 	0.30177 0.62350 0.45774 0.01300
C 	C 	0.27661 0.65072 0.42748 0.01400
C 	C 	0.25277 0.65833 0.40428 -0.04400
C 	C 	0.23112 0.64660 0.38489 -0.04300
C 	C 	0.23305 0.62714 0.38852 0.01100
C 	C 	0.21305 0.61530 0.36335 -0.02600
C 	C 	0.21645 0.59592 0.36305 -0.07000
C 	C 	0.23824 0.58823 0.39301 -0.02200
C 	C 	0.32459 0.63516 0.47193 -0.02700
C 	C 	0.32399 0.65443 0.46169 -0.06900
C 	C 	0.29963 0.66225 0.44148 -0.02500
H 	H 	0.32100 0.59801 0.48297 0.03400
H 	H 	0.28301 0.57737 0.44840 0.03700
H 	H 	0.25128 0.67331 0.40005 0.03900
H 	H 	0.21319 0.65266 0.36577 0.03400
H 	H 	0.19591 0.62119 0.34103 0.02400
H 	H 	0.24033 0.57322 0.39405 0.04500
H 	H 	0.34326 0.62918 0.48833 0.02700
H 	H 	0.29896 0.67720 0.43500 0.04700
C 	C 	0.76737 0.52886 0.45710 -0.04400
C 	C 	0.75392 0.53596 0.50327 -0.04200
C 	C 	0.73098 0.52620 0.52637 0.01500
C 	C 	0.72100 0.50947 0.50192 -0.00800
C 	C 	0.73451 0.50235 0.45535 -0.00900
C 	C 	0.75802 0.51195 0.43331 0.01600
C 	C 	0.72495 0.48538 0.43174 0.01600
C 	C 	0.70163 0.47583 0.45412 -0.04300
C 	C 	0.68827 0.48287 0.50045 -0.04300
C 	C 	0.69804 0.49955 0.52502 0.01500
C 	C 	0.68580 0.50606 0.57350 -0.02600
C 	C 	0.69658 0.52226 0.59936 -0.06200
C 	C 	0.71853 0.53262 0.57468 -0.02600
C 	C 	0.76311 0.48719 0.36571 -0.05700
C 	C 	0.73913 0.47795 0.38683 -0.02700
H 	H 	0.76160 0.54891 0.52152 0.03700
H 	H 	0.69405 0.46281 0.43608 0.03700
H 	H 	0.67054 0.47521 0.51764 0.03600
H 	H 	0.66874 0.49814 0.59232 0.03800
H 	H 	0.72642 0.54536 0.59400 0.03800
H 	H 	0.73173 0.46488 0.36876 0.05100
C 	C 	0.71691 0.46849 0.95701 -0.03200
C 	C 	0.73044 0.46136 0.00305 -0.05400
C 	C 	0.75340 0.47111 0.02611 0.02200
C 	C 	0.76333 0.48786 0.00172 -0.02000
C 	C 	0.74976 0.49502 0.95527 0.00300
C 	C 	0.72622 0.48542 0.93331 0.00900
C 	C 	0.75927 0.51201 0.93174 0.00900
C 	C 	0.76589 0.46466 0.07434 -0.03000
C 	C 	0.71191 0.49309 0.88876 -0.02500
C 	C 	0.72101 0.51025 0.86594 -0.05900
C 	C 	0.74502 0.51947 0.88698 -0.02300
H 	H 	0.69901 0.46092 0.94017 0.03500
H 	H 	0.72279 0.44839 0.02125 0.03900
H 	H 	0.75804 0.45191 0.09362 0.03900
H 	H 	0.69343 0.48595 0.87271 0.03800
H 	H 	0.75239 0.53255 0.86896 0.05000
C 	C 	0.73090 0.34013 0.40641 -0.04400
C 	C 	0.75231 0.35172 0.38534 -0.04300
C 	C 	0.74988 0.37119 0.38575 0.01200
C 	C 	0.72642 0.37908 0.41019 -0.00800
C 	C 	0.70487 0.36743 0.43130 -0.00900
C 	C 	0.70679 0.34787 0.42802 0.01500
C 	C 	0.68078 0.37532 0.45316 0.01300
C 	C 	0.67900 0.39480 0.45622 -0.04400
C 	C 	0.70039 0.40638 0.43515 -0.04200
C 	C 	0.72380 0.39861 0.41076 0.01300
C 	C 	0.74381 0.41005 0.38421 -0.02200
C 	C 	0.76600 0.40209 0.35613 -0.07000
C 	C 	0.76977 0.38278 0.35929 -0.02600
C 	C 	0.68412 0.33635 0.44406 -0.02500
C 	C 	0.65948 0.34424 0.46270 -0.06900
C 	C 	0.65827 0.36367 0.46922 -0.02700
H 	H 	0.73282 0.32513 0.40477 0.03900
H 	H 	0.77047 0.34553 0.36753 0.03400
H 	H 	0.66077 0.40099 0.47376 0.03400
H 	H 	0.69842 0.42138 0.43661 0.03700
H 	H 	0.74142 0.42504 0.38307 0.04500
H 	H 	0.68531 0.32132 0.44062 0.04700
H 	H 	0.63939 0.36973 0.48439 0.02800
C 	C 	0.00363 0.36441 0.04586 -0.03000
H 	H 	0.02210 0.37114 0.02838 0.03100
C 	C 	0.01882 0.47412 0.30173 -0.04400
C 	C 	0.00557 0.50209 0.25288 -0.01000
C 	C 	0.02620 0.49140 0.27774 0.01500
C 	C 	0.01280 0.51943 0.22856 0.01600
C 	C 	0.05394 0.49811 0.27837 -0.02900
C 	C 	0.06128 0.51540 0.25406 -0.05700
C 	C 	0.04064 0.52598 0.22905 -0.03000
H 	H 	0.03451 0.46579 0.32094 0.03700
H 	H 	0.06973 0.48996 0.29803 0.04300
H 	H 	0.04626 0.53920 0.20972 0.04700
C 	C 	0.00605 0.78347 0.80513 -0.04200
C 	C 	0.01021 0.77263 0.75786 0.01500
C 	C 	0.00111 0.74385 0.70613 0.01600
C 	C 	0.01874 0.75053 0.66410 -0.02800
C 	C 	0.03194 0.76822 0.66847 -0.05900
C 	C 	0.02758 0.77928 0.71524 -0.02400
H 	H 	0.01624 0.79709 0.80915 0.03800
H 	H 	0.02208 0.74206 0.62786 0.03600
H 	H 	0.03798 0.79287 0.71875 0.04400
C 	C 	0.00908 0.74840 0.29700 -0.01000
C 	C 	0.00168 0.73097 0.21169 0.01600
C 	C 	0.03013 0.72719 0.21009 -0.04300
C 	C 	0.04803 0.73412 0.25119 -0.04300
C 	C 	0.03768 0.74479 0.29462 0.01600
C 	C 	0.05560 0.75198 0.33553 -0.02800
C 	C 	0.04509 0.76251 0.37910 -0.06200
C 	C 	0.01653 0.76584 0.38196 -0.03000
H 	H 	0.03844 0.71899 0.17684 0.03700
H 	H 	0.06995 0.73119 0.24914 0.03800
H 	H 	0.07764 0.74931 0.33372 0.04500
H 	H 	0.00851 0.77403 0.41558 0.03700
C 	C 	0.07672 0.64822 0.12878 -0.04400
C 	C 	0.05564 0.65912 0.10763 -0.04300
C 	C 	0.03204 0.65061 0.08314 0.01500
C 	C 	0.02978 0.63099 0.07943 -0.00900
C 	C 	0.05099 0.62001 0.10082 -0.00900
C 	C 	0.07448 0.62867 0.12576 0.01400
C 	C 	0.04854 0.60038 0.09786 0.01400
C 	C 	0.02503 0.59187 0.07303 -0.04400
C 	C 	0.00398 0.60278 0.05170 -0.04400
C 	C 	0.00616 0.62233 0.05499 0.01400
C 	C 	0.01056 0.66147 0.06291 -0.02700
C 	C 	0.09525 0.61770 0.14803 -0.02900
C 	C 	0.09277 0.59811 0.14571 -0.06300
C 	C 	0.06946 0.58950 0.12027 -0.02700
H 	H 	0.09474 0.65500 0.14777 0.03500
H 	H 	0.05761 0.67418 0.11059 0.03700
H 	H 	0.02296 0.57681 0.07047 0.03700
H 	H 	0.01226 0.67655 0.06579 0.04700
H 	H 	0.11309 0.62437 0.16807 0.03200
H 	H 	0.06759 0.57441 0.11804 0.04600
C 	C 	0.76068 0.59933 0.90959 0.01400
C 	C 	0.75839 0.61887 0.90741 -0.00700
C 	C 	0.75461 0.65782 0.90018 -0.04400
C 	C 	0.73298 0.64619 0.88022 -0.04300
C 	C 	0.73506 0.62671 0.88230 0.01200
C 	C 	0.71500 0.61502 0.85675 -0.02600
C 	C 	0.71847 0.59566 0.85506 -0.07000
C 	C 	0.74051 0.58780 0.88387 -0.02200
H 	H 	0.75297 0.67282 0.89719 0.03900
H 	H 	0.71491 0.65235 0.86191 0.03500
H 	H 	0.69768 0.62104 0.83530 0.02500
H 	H 	0.74268 0.57278 0.88386 0.04500
C 	C 	0.48675 0.72565 0.19864 -0.04300
C 	C 	0.46879 0.71921 0.24026 -0.04300
C 	C 	0.46471 0.73005 0.28752 0.01400
C 	C 	0.47888 0.74748 0.29306 -0.00800
C 	C 	0.49678 0.75403 0.25094 -0.00900
C 	C 	0.50078 0.74305 0.20364 0.01500
C 	C 	0.51065 0.77157 0.25610 0.01500
C 	C 	0.50672 0.78236 0.30356 -0.04300
C 	C 	0.48908 0.77578 0.34559 -0.04300
C 	C 	0.47506 0.75838 0.34060 0.01400
C 	C 	0.45710 0.75182 0.38233 -0.02600
C 	C 	0.44266 0.73459 0.37646 -0.06200
C 	C 	0.44657 0.72372 0.32918 -0.02600
C 	C 	0.51870 0.74960 0.16192 -0.02800
C 	C 	0.53241 0.76710 0.16679 -0.06000
C 	C 	0.52831 0.77809 0.21381 -0.02400
H 	H 	0.48969 0.71711 0.16245 0.03600
H 	H 	0.45805 0.70579 0.23567 0.03600
H 	H 	0.51732 0.79583 0.30798 0.03700
H 	H 	0.48629 0.78427 0.38194 0.03700
H 	H 	0.45396 0.76021 0.41880 0.03700
H 	H 	0.43561 0.71034 0.32503 0.03500
H 	H 	0.52185 0.74118 0.12548 0.03500
H 	H 	0.53911 0.79154 0.21772 0.04400
C 	C 	0.49865 0.72254 0.84558 -0.04200
C 	C 	0.48101 0.71597 0.80357 -0.04300
C 	C 	0.47706 0.72675 0.75611 0.01500
C 	C 	0.49092 0.74430 0.75094 -0.00800
C 	C 	0.50884 0.75085 0.79304 -0.00800
C 	C 	0.51267 0.73995 0.84058 0.01500
C 	C 	0.52299 0.76828 0.78749 0.01500
C 	C 	0.51890 0.77912 0.74023 -0.04200
C 	C 	0.50092 0.77268 0.69863 -0.04300
C 	C 	0.48691 0.75528 0.70365 0.01600
C 	C 	0.46898 0.74872 0.66193 -0.02800
C 	C 	0.45529 0.73121 0.66682 -0.05900
C 	C 	0.45940 0.72023 0.71383 -0.02400
C 	C 	0.53063 0.74652 0.88229 -0.02600
C 	C 	0.54506 0.76375 0.87642 -0.06200
C 	C 	0.54114 0.77462 0.82914 -0.02600
H 	H 	0.50146 0.71406 0.88193 0.03700
H 	H 	0.47042 0.70249 0.80799 0.03800
H 	H 	0.52963 0.79254 0.73564 0.03700
H 	H 	0.49797 0.78122 0.66245 0.03700
H 	H 	0.46582 0.75713 0.62550 0.03600
H 	H 	0.44862 0.70678 0.71775 0.04400
H 	H 	0.53378 0.73813 0.91877 0.03800
H 	H 	0.55210 0.78800 0.82498 0.03600
C 	C 	0.68494 0.89414 0.96466 -0.04300
C 	C 	0.70651 0.90588 0.94507 -0.04200
C 	C 	0.72957 0.89834 0.91874 0.01400
C 	C 	0.73169 0.87882 0.91485 -0.00800
C 	C 	0.70994 0.86700 0.93439 -0.00800
C 	C 	0.68616 0.87473 0.95810 0.01200
C 	C 	0.71128 0.84753 0.92746 0.01400
C 	C 	0.73508 0.83994 0.90405 -0.04400
C 	C 	0.75671 0.85168 0.88463 -0.04300
C 	C 	0.75479 0.87114 0.88846 0.01200
C 	C 	0.74962 0.91005 0.89338 -0.02200
C 	C 	0.66337 0.86305 0.97230 -0.02600
C 	C 	0.66394 0.84379 0.96189 -0.07100
C 	C 	0.68828 0.83598 0.94149 -0.02400
H 	H 	0.66697 0.90018 0.98367 0.03500
H 	H 	0.70493 0.92086 0.94911 0.03800
H 	H 	0.73657 0.82497 0.89967 0.03900
H 	H 	0.74754 0.92507 0.89460 0.04500
H 	H 	0.64471 0.86902 0.98884 0.02800
H 	H 	0.68895 0.82104 0.93493 0.04700
C 	C 	0.41220 0.84986 0.12896 -0.04300
C 	C 	0.43366 0.83899 0.10922 -0.04400
C 	C 	0.45720 0.84751 0.08454 0.01500
C 	C 	0.45899 0.86710 0.07907 -0.00900
C 	C 	0.43737 0.87803 0.09894 -0.00900
C 	C 	0.41398 0.86938 0.12424 0.01400
C 	C 	0.43933 0.89764 0.09413 0.01500
C 	C 	0.46272 0.90614 0.06888 -0.04300
C 	C 	0.48419 0.89528 0.04915 -0.04400
C 	C 	0.48253 0.87577 0.05437 0.01400
C 	C 	0.50430 0.86487 0.03587 -0.03100
C 	C 	0.50276 0.84535 0.04185 -0.06100
C 	C 	0.47908 0.83670 0.06580 -0.02700
C 	C 	0.39286 0.88034 0.14523 -0.02900
C 	C 	0.39490 0.89991 0.14123 -0.06300
C 	C 	0.41805 0.90850 0.11519 -0.02600
H 	H 	0.39424 0.84308 0.14819 0.03500
H 	H 	0.43203 0.82395 0.11344 0.03900
H 	H 	0.46439 0.92118 0.06479 0.03800
H 	H 	0.50218 0.90206 0.03004 0.03400
H 	H 	0.52264 0.87156 0.01777 0.03100
H 	H 	0.47772 0.82164 0.06991 0.04800
H 	H 	0.37511 0.87370 0.16563 0.03200
H 	H 	0.41953 0.92357 0.11151 0.04800
C 	C 	0.71401 0.71897 0.99606 -0.04300
C 	C 	0.74153 0.71327 0.99673 -0.04300
C 	C 	0.76361 0.72658 0.99750 0.01600
C 	C 	0.75797 0.74574 0.99836 -0.00900
C 	C 	0.73025 0.75147 0.99786 -0.00900
C 	C 	0.70820 0.73803 0.99620 0.01600
C 	C 	0.72462 0.77063 0.99795 0.01600
C 	C 	0.74669 0.78393 0.99909 -0.04300
C 	C 	0.68065 0.74382 0.99352 -0.02700
C 	C 	0.67503 0.76294 0.99234 -0.05900
C 	C 	0.69704 0.77627 0.99582 -0.02800
H 	H 	0.69722 0.70853 0.99497 0.03800
H 	H 	0.74567 0.69851 0.99605 0.03800
H 	H 	0.74255 0.79870 0.99915 0.03800
H 	H 	0.66372 0.73351 0.99103 0.04500
H 	H 	0.69266 0.79101 0.99619 0.04300
H 	H 	0.00178 0.21355 0.89694 0.03700
H 	H 	0.00102 0.40154 0.03830 0.03400
C 	C 	0.00230 0.34492 0.05256 -0.06100
C 	C 	0.00639 0.12328 0.56266 0.01400
C 	C 	0.00496 0.10380 0.55658 -0.04300
C 	C 	0.00032 0.24352 0.21904 0.01500
C 	C 	0.77137 0.90240 0.86322 -0.07000
C 	C 	0.77225 0.50432 0.38861 -0.03000
C 	C 	0.77263 0.02933 0.96902 -0.03300
O 	O 	0.77325 0.46090 0.30850 -0.36600
C 	C 	0.77335 0.27975 0.51179 -0.04300
C 	C 	0.77422 0.77824 0.99941 -0.04300
H 	H 	0.77461 0.84565 0.86535 0.03500
C 	C 	0.77476 0.88301 0.86330 -0.02600
O 	O 	0.77502 0.92672 0.79548 -0.37600
C 	C 	0.77695 0.15102 0.43914 0.01400
C 	C 	0.77735 0.00502 0.89975 -0.02600
O 	O 	0.77829 0.96179 0.81896 -0.36600
C 	C 	0.77860 0.65010 0.92239 0.01500
C 	C 	0.77891 0.13149 0.44334 -0.00900
C 	C 	0.77929 0.47842 0.32141 0.28000
O 	O 	0.77934 0.46266 0.18988 -0.36300
C 	C 	0.77928 0.26071 0.51303 0.01500
C 	C 	0.78003 0.75918 0.99862 0.01600
C 	C 	0.78016 0.63057 0.92748 -0.00900
C 	C 	0.78261 0.41352 0.31724 0.28500
O 	O 	0.78302 0.96409 0.70010 -0.36300
C 	C 	0.78261 0.52154 0.95406 -0.03200
C 	C 	0.78413 0.97937 0.83165 0.28100
C 	C 	0.78359 0.09258 0.44860 -0.04300
C 	C 	0.78395 0.59162 0.93466 -0.04200
H 	H 	0.78526 0.53644 0.44022 0.03700
C 	C 	0.78545 0.02249 0.46252 -0.04300
H 	H 	0.78565 0.07759 0.45058 0.03700
C 	C 	0.78631 0.49778 0.02479 0.02200
H 	H 	0.78567 0.57662 0.93736 0.03800
H 	H 	0.78719 0.37669 0.33838 0.02500
C 	C 	0.78764 0.91429 0.82503 0.28500
C 	C 	0.78783 0.47503 0.09904 -0.06000
C 	C 	0.78907 0.99901 0.53410 0.01500
C 	C 	0.79067 0.97652 0.60901 -0.06200
C 	C 	0.79067 0.22251 0.51453 -0.02800
H 	H 	0.79006 0.29022 0.50973 0.03700
H 	H 	0.79077 0.03680 0.95280 0.03500
H 	H 	0.79071 0.51147 0.37251 0.03800
H 	H 	0.79016 0.53457 0.93607 0.03500
C 	C 	0.79121 0.72095 0.99630 -0.02800
Cu	Cu	0.79165 0.44699 0.25369 0.92900
H 	H 	0.79101 0.78867 0.99979 0.03800
H 	H 	0.79187 0.87714 0.84083 0.02500
H 	H 	0.79314 0.03539 0.44390 0.03700
O 	O 	0.79505 0.48913 0.28886 -0.38200
H 	H 	0.79514 0.20778 0.51547 0.04200
H 	H 	0.79559 0.70620 0.99586 0.04400
Cu	Cu	0.79599 0.94812 0.76272 0.92900
H 	H 	0.79603 0.01206 0.88425 0.03700
C 	C 	0.79604 0.51447 0.00028 -0.05400
C 	C 	0.79724 0.47006 0.15471 0.27200
H 	H 	0.79839 0.17765 0.45062 0.04700
C 	C 	0.79859 0.49124 0.07321 -0.03100
O 	O 	0.79971 0.99013 0.79894 -0.38200
C 	C 	0.79896 0.01553 0.50880 -0.04300
C 	C 	0.79952 0.16265 0.45513 -0.02400
C 	C 	0.80057 0.97154 0.66435 0.27300
H 	H 	0.80068 0.67659 0.93207 0.04700
C 	C 	0.80151 0.99257 0.58246 -0.02700
C 	C 	0.80154 0.66159 0.93713 -0.02500
C 	C 	0.80284 0.12375 0.46638 0.01200
C 	C 	0.80412 0.62270 0.94997 0.01300
C 	C 	0.80468 0.10429 0.47024 -0.04400
C 	C 	0.80555 0.60324 0.95474 -0.04400
C 	C 	0.80684 0.25498 0.51008 -0.02700
C 	C 	0.80760 0.75340 0.99685 -0.02700
O 	O 	0.80881 0.40998 0.30868 -0.43800
H 	H 	0.81189 0.43265 0.16714 0.17100
C 	C 	0.81257 0.23587 0.50982 -0.06000
O 	O 	0.81375 0.91084 0.81510 -0.43700
C 	C 	0.81325 0.73430 0.99463 -0.05900
H 	H 	0.81526 0.93421 0.67463 0.17200
H 	H 	0.81378 0.52213 0.01743 0.03800
O 	O 	0.81633 0.43248 0.20690 -0.64300
H 	H 	0.81565 0.49917 0.09203 0.03900
H 	H 	0.81690 0.02313 0.52535 0.03600
H 	H 	0.81883 0.00042 0.60060 0.03900
O 	O 	0.82012 0.93383 0.71419 -0.64300
Cu	Cu	0.82242 0.40766 0.23559 0.86800
O 	O 	0.82293 0.47398 0.17028 -0.39100
C 	C 	0.82407 0.15488 0.47462 -0.06900
H 	H 	0.82276 0.09821 0.48873 0.03400
H 	H 	0.82370 0.26531 0.50659 0.04400
H 	H 	0.82455 0.76373 0.99580 0.04500
H 	H 	0.82367 0.59708 0.97280 0.03500
Cu	Cu	0.82646 0.90887 0.74131 0.86800
O 	O 	0.82643 0.97539 0.67894 -0.39000
C 	C 	0.82521 0.13551 0.48250 -0.02700
C 	C 	0.82604 0.65368 0.95639 -0.06800
C 	C 	0.82687 0.63433 0.96485 -0.02700
O 	O 	0.83107 0.45739 0.27846 -0.64100
Cu	Cu	0.83151 0.48248 0.25494 0.89100
O 	O 	0.83567 0.95838 0.78616 -0.64100
Cu	Cu	0.83586 0.98356 0.76353 0.89200
H 	H 	0.83675 0.45544 0.31713 0.16300
C 	C 	0.84122 0.22969 0.50179 0.27900
H 	H 	0.84175 0.95629 0.82452 0.16400
C 	C 	0.84201 0.72815 0.98764 0.28000
O 	O 	0.84522 0.40312 0.17353 -0.41800
O 	O 	0.84492 0.21441 0.47306 -0.36200
H 	H 	0.84402 0.12956 0.49841 0.02600
O 	O 	0.84603 0.71298 0.95862 -0.36200
H 	H 	0.84566 0.62827 0.98049 0.02800
O 	O 	0.84841 0.90468 0.67783 -0.41900
C 	C 	0.84931 0.16676 0.48153 0.28200
C 	C 	0.85143 0.66543 0.96335 0.28200
Cu	Cu	0.85306 0.44481 0.22498 0.89500
O 	O 	0.85461 0.18044 0.44698 -0.37600
O 	O 	0.85657 0.67941 0.92974 -0.37500
Cu	Cu	0.85707 0.94601 0.73129 0.89500
O 	O 	0.86230 0.24140 0.51197 -0.38500
O 	O 	0.86295 0.73988 0.99886 -0.38300
O 	O 	0.86802 0.16241 0.51814 -0.43900
O 	O 	0.87010 0.66097 0.99990 -0.43700
C 	C 	0.87047 0.41052 0.16850 0.27300
O 	O 	0.87280 0.48699 0.25930 -0.39000
H 	H 	0.87289 0.87452 0.65952 0.03400
H 	H 	0.87272 0.37294 0.16887 0.03200
C 	C 	0.87365 0.91202 0.67191 0.27400
O 	O 	0.87573 0.42841 0.17924 -0.37900
H 	H 	0.87704 0.20429 0.58074 0.16100
O 	O 	0.87719 0.98802 0.76649 -0.39000
Cu	Cu	0.87909 0.20182 0.46942 0.92800
H 	H 	0.87853 0.70222 0.06561 0.16100
O 	O 	0.87930 0.92976 0.68414 -0.38000
Cu	Cu	0.88053 0.70081 0.95402 0.92900
O 	O 	0.88767 0.45687 0.24815 -0.38400
O 	O 	0.88995 0.20860 0.55133 -0.63600
H 	H 	0.89054 0.84399 0.63572 0.03600
C 	C 	0.89061 0.37961 0.14902 -0.03000
O 	O 	0.89192 0.95796 0.75346 -0.38300
C 	C 	0.89169 0.88123 0.64338 -0.03000
H 	H 	0.89248 0.34238 0.15355 0.03500
C 	C 	0.89245 0.39916 0.14441 -0.06200
O 	O 	0.89118 0.70700 0.03637 -0.63900
C 	C 	0.89278 0.47508 0.25000 0.28000
C 	C 	0.89516 0.90078 0.64548 -0.06200
Cu	Cu	0.89747 0.23466 0.54952 0.89400
C 	C 	0.89706 0.97617 0.75551 0.27900
O 	O 	0.89871 0.22092 0.42068 -0.36100
Cu	Cu	0.89805 0.73312 0.03671 0.89100
O 	O 	0.89981 0.72058 0.90711 -0.36100
Cu	Cu	0.90606 0.16188 0.49766 0.86800
Cu	Cu	0.90826 0.66092 0.98008 0.86900
C 	C 	0.90951 0.85077 0.62075 -0.04400
C 	C 	0.91214 0.36870 0.12948 0.01400
C 	C 	0.91058 0.34919 0.13493 -0.04300
O 	O 	0.91324 0.18790 0.47930 -0.64300
O 	O 	0.91732 0.23589 0.62137 -0.38900
C 	C 	0.91273 0.87030 0.62190 0.01400
C 	C 	0.91576 0.40779 0.11903 -0.02700
H 	H 	0.91333 0.50765 0.20811 0.03900
O 	O 	0.91498 0.68713 0.96285 -0.64100
O 	O 	0.91738 0.73380 0.10921 -0.39200
H 	H 	0.91807 0.00859 0.79907 0.04300
C 	C 	0.91968 0.90941 0.62488 -0.02700
H 	H 	0.91708 0.42284 0.11483 0.04800
C 	C 	0.92200 0.48210 0.25101 -0.05900
C 	C 	0.92260 0.22897 0.43489 0.27200
H 	H 	0.92235 0.92448 0.62600 0.04700
H 	H 	0.92304 0.74226 0.21568 0.04200
C 	C 	0.92365 0.72857 0.92190 0.27200
Cu	Cu	0.92571 0.19714 0.55299 0.89500
C 	C 	0.92639 0.98319 0.75482 -0.05700
H 	H 	0.92740 0.18988 0.45014 0.17100
H 	H 	0.92811 0.82482 0.60029 0.03900
Cu	Cu	0.92743 0.69622 0.03670 0.89400
O 	O 	0.92925 0.23083 0.48713 -0.39100
H 	H 	0.93099 0.32337 0.12152 0.03900
C 	C 	0.92924 0.49948 0.22729 -0.02800
H 	H 	0.93033 0.75909 0.30266 0.03700
H 	H 	0.92901 0.68937 0.93360 0.17100
C 	C 	0.93086 0.83987 0.60062 -0.04300
C 	C 	0.93245 0.33839 0.11675 -0.04300
O 	O 	0.93014 0.73022 0.97431 -0.38900
C 	C 	0.93380 0.00046 0.77920 -0.02900
O 	O 	0.93571 0.20672 0.62512 -0.38200
H 	H 	0.93509 0.21107 0.34087 0.03500
C 	C 	0.93571 0.37739 0.10496 -0.00900
C 	C 	0.93678 0.22460 0.63804 0.28000
C 	C 	0.93744 0.39698 0.09942 0.01500
H 	H 	0.93708 0.45810 0.29424 0.04400
C 	C 	0.93724 0.72270 0.12518 0.27900
C 	C 	0.93745 0.87896 0.60212 -0.00900
H 	H 	0.93711 0.71061 0.82865 0.03400
O 	O 	0.93730 0.70507 0.10962 -0.38200
O 	O 	0.94502 0.15845 0.49719 -0.41900
H 	H 	0.94130 0.95942 0.71012 0.04700
C 	C 	0.94087 0.89857 0.60333 0.01500
C 	C 	0.94228 0.23536 0.39206 -0.06300
C 	C 	0.94267 0.47142 0.27549 -0.02600
C 	C 	0.94350 0.73507 0.87948 -0.06200
C 	C 	0.94698 0.97262 0.72952 -0.03000
C 	C 	0.94611 0.22444 0.34487 -0.02600
H 	H 	0.94869 0.53177 0.18450 0.03600
C 	C 	0.94494 0.73918 0.21462 -0.02600
H 	H 	0.94899 0.20659 0.73257 0.04400
C 	C 	0.94774 0.72412 0.83250 -0.02600
O 	O 	0.94734 0.65771 0.98077 -0.41200
H 	H 	0.95335 0.03272 0.82188 0.03700
C 	C 	0.95221 0.75602 0.30087 -0.04300
H 	H 	0.95370 0.26101 0.43413 0.03700
C 	C 	0.95618 0.34695 0.09289 0.01500
C 	C 	0.95568 0.84837 0.58136 0.01500
C 	C 	0.95579 0.23108 0.68195 -0.05900
C 	C 	0.95678 0.25258 0.39772 -0.02500
H 	H 	0.95745 0.20638 0.25152 0.03600
H 	H 	0.96578 0.12739 0.52821 0.03200
C 	C 	0.95700 0.50616 0.22767 0.01500
H 	H 	0.95412 0.76091 0.92125 0.03800
C 	C 	0.95774 0.36652 0.08666 -0.00900
C 	C 	0.95551 0.72874 0.17083 -0.05900
O 	O 	0.95860 0.18149 0.55850 -0.38000
C 	C 	0.96157 0.16473 0.53662 0.27400
C 	C 	0.96155 0.00715 0.77839 0.01600
C 	C 	0.95893 0.86800 0.58179 -0.00900
C 	C 	0.95986 0.22001 0.72881 -0.02400
C 	C 	0.96102 0.40552 0.07497 -0.04400
C 	C 	0.95749 0.75247 0.88497 -0.02500
H 	H 	0.95963 0.70610 0.73939 0.03700
H 	H 	0.96166 0.77069 0.37607 0.03800
C 	C 	0.96424 0.23070 0.30310 0.01400
H 	H 	0.96252 0.42055 0.07032 0.03800
C 	C 	0.96439 0.52343 0.20359 -0.04300
C 	C 	0.96261 0.74557 0.25701 0.01400
O 	O 	0.96099 0.68127 0.04005 -0.38000
C 	C 	0.96342 0.66411 0.02079 0.26700
C 	C 	0.96899 0.02441 0.80247 -0.04400
C 	C 	0.96560 0.90708 0.58362 -0.04400
H 	H 	0.96647 0.25704 0.64093 0.03600
C 	C 	0.96825 0.21979 0.25594 -0.04300
C 	C 	0.96565 0.73057 0.79063 0.01500
C 	C 	0.96959 0.24856 0.67725 -0.02800
H 	H 	0.97076 0.20213 0.82278 0.03800
C 	C 	0.97046 0.47804 0.27634 0.01500
C 	C 	0.96997 0.71967 0.74358 -0.04200
C 	C 	0.97001 0.76263 0.34257 -0.04400
H 	H 	0.96640 0.62661 0.01695 0.03000
H 	H 	0.96843 0.92213 0.58432 0.03700
H 	H 	0.98684 0.09699 0.53803 0.03500
C 	C 	0.97472 0.25907 0.35588 0.01400
C 	C 	0.97481 0.97916 0.72884 0.01600
H 	H 	0.97491 0.82241 0.56165 0.04700
H 	H 	0.97726 0.32118 0.08037 0.04800
C 	C 	0.97737 0.83750 0.56210 -0.02500
C 	C 	0.97755 0.22644 0.77118 0.01500
C 	C 	0.97847 0.24810 0.30843 -0.00800
C 	C 	0.98424 0.13412 0.54574 -0.02900
C 	C 	0.97845 0.33622 0.07571 -0.02700
C 	C 	0.97766 0.49543 0.25231 -0.00800
C 	C 	0.97522 0.75916 0.84301 0.01500
C 	C 	0.98141 0.21559 0.81852 -0.04300
C 	C 	0.98147 0.37523 0.06280 0.01400
C 	C 	0.97929 0.74819 0.79567 -0.00800
C 	C 	0.98290 0.39472 0.05679 -0.04400
C 	C 	0.98211 0.99647 0.75326 -0.01000
C 	C 	0.98622 0.22614 0.21424 -0.04300
H 	H 	0.98607 0.28499 0.39692 0.03700
C 	C 	0.98557 0.15361 0.55252 -0.06200
C 	C 	0.98376 0.87665 0.56248 0.01400
C 	C 	0.98755 0.25502 0.71904 0.01600
C 	C 	0.98881 0.27646 0.36065 -0.04300
H 	H 	0.98911 0.21755 0.17814 0.03600
H 	H 	0.98583 0.45410 0.31961 0.03700
C 	C 	0.98377 0.72444 0.16988 -0.02800
C 	C 	0.98690 0.89619 0.56329 -0.04300
C 	C 	0.98763 0.72625 0.70166 -0.04300
H 	H 	0.98574 0.78529 0.88367 0.03800
C 	C 	0.98481 0.63328 0.03488 -0.03000
C 	C 	0.99149 0.24396 0.76622 -0.00800
C 	C 	0.99211 0.53000 0.20395 -0.04400
C 	C 	0.98872 0.77675 0.84748 -0.04200
H 	H 	0.99075 0.71767 0.66563 0.03700
C 	C 	0.98681 0.65284 0.03915 -0.06100
H 	H 	0.98592 0.59600 0.03287 0.03400
H 	H 	0.99005 0.95529 0.68505 0.03800
C 	C 	0.99637 0.25457 0.26622 -0.00800
C 	C 	0.99115 0.46747 0.30098 -0.04300
C 	C 	0.99111 0.74160 0.25532 -0.00900
C 	C 	0.99667 0.03104 0.80158 -0.04300
H 	H 	0.99184 0.71635 0.13608 0.04200
C 	C 	0.99545 0.96860 0.70397 -0.04400
C 	C 	0.99904 0.22209 0.86067 -0.04200
H 	H 	0.99876 0.28098 0.67814 0.03700
H 	H 	0.99744 0.54334 0.18512 0.03800
C 	C 	0.99688 0.75489 0.75323 -0.00800
C 	C 	0.99848 0.75895 0.34080 0.01500
