data_crystal

_cell_length_a 19.12270
_cell_length_b 16.59661
_cell_length_c 48.48614
_cell_angle_alpha 89.64164
_cell_angle_beta  89.64736
_cell_angle_gamma 119.45400

_symmetry_space_group_name_	'P 1'
_symmetry_space_group_name_H-M	'P 1'

loop_
_symmetry_equiv_pos_as_xyz
  x,y,z

loop_
_atom_site_label
_atom_site_type_symbol
_atom_site_fract_x
_atom_site_fract_y
_atom_site_fract_z
_atom_site_charge
Ni	Ni	0.08974 0.98214 0.73964 1.12200
Ni	Ni	0.07418 0.13771 0.70279 1.14500
O 	O 	0.15412 0.21960 0.73114 -0.28800
O 	O 	0.11569 0.97350 0.69878 -0.34400
O 	O 	0.05632 0.98117 0.78044 -0.28700
H 	H 	0.04314 0.08167 0.74752 0.19300
C 	C 	0.08382 0.16963 0.16739 0.31200
C 	C 	0.13417 0.25407 0.24384 0.30800
C 	C 	0.03088 0.89427 0.19436 0.32100
C 	C 	0.07977 0.98759 0.27063 0.28900
O 	O 	0.06218 0.21329 0.18503 -0.26400
O 	O 	0.05933 0.23938 0.24307 -0.23900
H 	H 	0.02223 0.08160 0.24654 0.18900
C 	C 	0.06770 0.27376 0.03296 -0.09700
C 	C 	0.10837 0.32206 0.00874 0.07900
C 	C 	0.08502 0.21871 0.07994 0.09400
C 	C 	0.99214 0.27471 0.04214 0.78800
H 	H 	0.08237 0.35312 0.99562 0.09700
C 	C 	0.04563 0.12741 0.09080 -0.07700
C 	C 	0.04746 0.11365 0.11937 0.07600
C 	C 	0.08498 0.18870 0.13736 0.02800
C 	C 	0.00795 0.04372 0.07208 0.81000
H 	H 	0.02032 0.04421 0.12764 0.15400
F 	F 	0.01290 0.35060 0.05866 -0.40400
F 	F 	0.11046 0.37822 0.15957 -0.34600
F 	F 	0.06491 0.01875 0.06519 -0.35800
C 	C 	0.05676 0.69825 0.14435 0.12200
C 	C 	0.03904 0.82687 0.17675 0.01300
H 	H 	0.15890 0.20199 0.36190 0.13700
F 	F 	0.11092 0.13052 0.40885 -0.38100
F 	F 	0.06959 0.23508 0.41472 -0.38000
F 	F 	0.05308 0.36077 0.27972 -0.35300
H 	H 	0.06574 0.83184 0.38867 0.12200
C 	C 	0.10332 0.97205 0.29820 0.00200
C 	C 	0.08540 0.00682 0.32226 -0.01600
H 	H 	0.10342 0.02510 0.36630 0.16500
F 	F 	0.04866 0.67407 0.41983 -0.41700
F 	F 	0.04698 0.10918 0.30128 -0.43100
C 	C 	0.95429 0.47680 0.44701 -0.00300
C 	C 	0.01706 0.50765 0.46602 -0.02000
C 	C 	0.00164 0.51543 0.49403 0.14000
N 	N 	0.06581 0.55415 0.51333 -0.02500
H 	H 	0.96640 0.47385 0.42528 0.12900
O 	O 	0.09692 0.64064 0.52011 -0.00200
F 	F 	0.17863 0.08681 0.62981 -0.35400
C 	C 	0.13163 0.61210 0.92163 -0.00600
C 	C 	0.13918 0.60986 0.95044 -0.03700
C 	C 	0.06950 0.56111 0.96693 0.11900
C 	C 	0.05569 0.56362 0.90920 0.15100
N 	N 	0.04998 0.56060 0.87972 -0.02300
N 	N 	0.07469 0.55871 0.99627 -0.01900
O 	O 	0.08993 0.63607 0.86517 0.04300
O 	O 	0.10330 0.50998 0.00756 -0.05600
F 	F 	0.03919 0.42718 0.77681 -0.37000
F 	F 	0.07002 0.35720 0.74337 -0.39400
F 	F 	0.03482 0.29158 0.78569 -0.36400
C 	C 	0.08081 0.83296 0.89332 0.78800
F 	F 	0.12546 0.92802 0.89006 -0.39000
F 	F 	0.06221 0.79259 0.86762 -0.39000
F 	F 	0.12762 0.80349 0.90704 -0.41300
F 	F 	0.11757 0.12345 0.81785 -0.38300
C 	C 	0.11680 0.99916 0.34773 -0.01400
O 	O 	0.03284 0.04388 0.73087 -0.70900
C 	C 	0.07520 0.59134 0.11193 -0.07600
O 	O 	0.09917 0.10440 0.17601 -0.31200
C 	C 	0.13525 0.41175 0.27555 0.77700
C 	C 	0.17075 0.04740 0.68613 0.36400
O 	O 	0.16855 0.12518 0.68770 -0.27000
C 	C 	0.09808 0.52960 0.45665 0.32300
Ni	Ni	0.11535 0.08468 0.21650 1.13900
O 	O 	0.09471 0.95666 0.20736 -0.35300
O 	O 	0.13433 0.05839 0.25561 -0.31100
O 	O 	0.16179 0.22253 0.22393 -0.30200
C 	C 	0.10516 0.23666 0.05013 0.10200
C 	C 	0.12208 0.28041 0.12653 -0.05700
C 	C 	0.11829 0.29401 0.09798 0.04800
C 	C 	0.10859 0.73993 0.16690 -0.09700
C 	C 	0.09672 0.80104 0.18365 0.08500
C 	C 	0.08878 0.68068 0.11872 0.09400
C 	C 	0.11599 0.58199 0.08896 0.09500
H 	H 	0.11432 0.51681 0.08515 0.12100
F 	F 	0.13624 0.76731 0.02825 -0.40600
C 	C 	0.13468 0.22051 0.41646 0.78200
C 	C 	0.18381 0.29427 0.26875 0.03200
C 	C 	0.17430 0.35699 0.28591 -0.03400
F 	F 	0.15162 0.43323 0.24779 -0.34800
F 	F 	0.16410 0.49427 0.28961 -0.33900
F 	F 	0.26953 0.13767 0.31234 -0.40100
C 	C 	0.14824 0.92653 0.30020 0.11100
H 	H 	0.16222 0.90120 0.28159 0.11300
F 	F 	0.04085 0.78540 0.44343 -0.39000
O 	O 	0.08577 0.50045 0.52670 -0.02300
C 	C 	0.25934 0.14442 0.63455 0.77700
F 	F 	0.27073 0.22681 0.64540 -0.37600
H 	H 	0.18504 0.64774 0.90877 0.12500
C 	C 	0.16582 0.36388 0.14508 0.78200
C 	C 	0.12882 0.75407 0.09990 0.05000
O 	O 	0.19488 0.11217 0.74289 -0.27500
C 	C 	0.19796 0.19388 0.74623 0.30300
O 	O 	0.13130 0.48368 0.46723 -0.31500
O 	O 	0.13276 0.58883 0.43613 -0.29600
C 	C 	0.21938 0.64130 0.96239 0.31300
C 	C 	0.17340 0.23476 0.04014 0.03700
C 	C 	0.18900 0.34620 0.00483 0.01700
H 	H 	0.14544 0.36358 0.08948 0.11100
F 	F 	0.21452 0.44335 0.12993 -0.38900
H 	H 	0.13515 0.83230 0.20123 0.11500
C 	C 	0.16057 0.65753 0.07113 0.02400
C 	C 	0.15787 0.74044 0.07483 -0.04100
C 	C 	0.17950 0.81060 0.05150 0.78300
H 	H 	0.13538 0.82118 0.10463 0.13900
F 	F 	0.16189 0.87963 0.05834 -0.36200
C 	C 	0.20549 0.26644 0.37011 0.04300
C 	C 	0.20161 0.28883 0.39781 -0.04800
C 	C 	0.23638 0.26232 0.27683 0.09000
C 	C 	0.20269 0.36936 0.31309 0.05000
H 	H 	0.25128 0.22307 0.26252 0.09900
H 	H 	0.18945 0.41054 0.32725 0.13400
F 	F 	0.15998 0.23111 0.44354 -0.38900
C 	C 	0.12902 0.86379 0.39357 0.05500
C 	C 	0.16232 0.95415 0.34972 0.13100
C 	C 	0.09257 0.75534 0.43411 0.78000
C 	C 	0.17492 0.91330 0.32591 -0.10300
F 	F 	0.21423 0.81340 0.30303 -0.35200
F 	F 	0.18037 0.78739 0.34766 -0.39000
F 	F 	0.29869 0.16319 0.60928 -0.39700
F 	F 	0.35551 0.16134 0.74460 -0.37900
C 	C 	0.22677 0.42495 0.42630 0.29600
O 	O 	0.18335 0.46094 0.41666 -0.31400
C 	C 	0.22071 0.65526 0.05265 0.32300
C 	C 	0.24750 0.44616 0.00417 0.29900
O 	O 	0.26136 0.72679 0.97134 -0.31700
O 	O 	0.22212 0.67557 0.02654 -0.31200
O 	O 	0.24726 0.49550 0.02508 -0.34600
O 	O 	0.25449 0.59183 0.95747 -0.34400
C 	C 	0.21323 0.28584 0.01634 -0.07000
H 	H 	0.19870 0.19971 0.05194 0.13400
F 	F 	0.21435 0.35035 0.16342 -0.38300
C 	C 	0.18399 0.73235 0.17042 0.79100
F 	F 	0.17080 0.64535 0.16356 -0.34500
F 	F 	0.20953 0.74835 0.19749 -0.35700
C 	C 	0.26450 0.33153 0.35224 0.11400
C 	C 	0.24658 0.32725 0.32244 0.10000
C 	C 	0.26675 0.27620 0.30369 -0.08900
C 	C 	0.31761 0.23255 0.31167 0.80500
F 	F 	0.37703 0.25507 0.29190 -0.34900
C 	C 	0.18551 0.93763 0.37747 0.09500
C 	C 	0.15459 0.82746 0.41496 -0.06100
C 	C 	0.21694 0.85606 0.32776 0.80000
F 	F 	0.12698 0.73875 0.45686 -0.44700
C 	C 	0.28116 0.01466 0.69703 0.12900
C 	C 	0.24751 0.05147 0.67848 0.01300
C 	C 	0.29130 0.09947 0.65445 -0.03200
H 	H 	0.24889 0.98161 0.71591 0.07600
C 	C 	0.37240 0.25107 0.73931 0.77700
F 	F 	0.26037 0.85188 0.04536 -0.41100
Ni	Ni	0.22669 0.60005 0.41326 1.14100
C 	C 	0.25514 0.37904 0.40689 -0.00500
C 	C 	0.25938 0.26299 0.76436 0.03900
F 	F 	0.33810 0.25448 0.71459 -0.39300
H 	H 	0.17510 0.29603 0.78369 0.15500
F 	F 	0.01176 0.88293 0.11598 -0.38800
O 	O 	0.25126 0.43808 0.45233 -0.30400
O 	O 	0.25365 0.73040 0.40451 -0.28700
Ni	Ni	0.32561 0.76016 0.00654 1.14600
O 	O 	0.27781 0.64275 0.06312 -0.29500
O 	O 	0.30473 0.48221 0.98499 -0.31200
C 	C 	0.28467 0.28165 0.00503 0.78300
F 	F 	0.27354 0.19307 0.00792 -0.37700
F 	F 	0.24432 0.79735 0.15365 -0.36800
F 	F 	0.29390 0.63791 0.33302 -0.36000
C 	C 	0.32954 0.41172 0.36345 -0.10100
F 	F 	0.35477 0.26047 0.33685 -0.34900
C 	C 	0.23779 0.85873 0.41771 0.01100
F 	F 	0.29656 0.91259 0.33438 -0.35800
O 	O 	0.29024 0.69533 0.56622 0.00900
C 	C 	0.23604 0.30782 0.78377 0.09600
C 	C 	0.34075 0.28409 0.76294 -0.04000
F 	F 	0.34852 0.18268 0.82596 -0.38000
F 	F 	0.25935 0.21910 0.84445 -0.35600
F 	F 	0.45479 0.30633 0.73637 -0.34300
C 	C 	0.02038 0.34195 0.76599 0.78200
F 	F 	0.29497 0.30468 0.97728 -0.41700
C 	C 	0.32400 0.43486 0.39094 0.07900
C 	C 	0.26580 0.98685 0.38651 -0.10900
F 	F 	0.32405 0.16908 0.87154 -0.37500
F 	F 	0.97843 0.06109 0.04815 -0.35400
F 	F 	0.98620 0.22277 0.54375 -0.39900
Ni	Ni	0.25317 0.54508 0.47572 1.12700
O 	O 	0.31710 0.61896 0.38742 -0.30400
F 	F 	0.32351 0.77544 0.35126 -0.38000
F 	F 	0.34556 0.76491 0.30628 -0.33600
F 	F 	0.34987 0.08697 0.35102 -0.33500
C 	C 	0.33200 0.22208 0.84833 0.79100
C 	C 	0.26524 0.79162 0.42353 0.31400
C 	C 	0.34761 0.73188 0.33239 0.78800
C 	C 	0.36785 0.10994 0.64977 0.05300
F 	F 	0.94423 0.96987 0.08540 -0.35000
Ni	Ni	0.35002 0.60634 0.03984 1.12900
O 	O 	0.36222 0.67288 0.00700 -0.72300
F 	F 	0.34005 0.80204 0.10114 -0.39100
O 	O 	0.29431 0.62071 0.44390 -0.71300
F 	F 	0.38367 0.94063 0.08004 -0.37100
C 	C 	0.29271 0.94377 0.40547 0.10100
C 	C 	0.32072 0.08557 0.37725 0.81600
C 	C 	0.35784 0.02500 0.69215 -0.05400
F 	F 	0.34834 0.93689 0.61377 -0.42600
O 	O 	0.38253 0.81456 0.04327 -0.26100
Ni	Ni	0.36149 0.61924 0.97248 1.13100
H 	H 	0.40284 0.14851 0.63187 0.10600
F 	F 	0.34493 0.94650 0.73532 -0.36700
F 	F 	0.19682 0.41650 0.81559 -0.35100
C 	C 	0.02541 0.04152 0.32143 0.78500
O 	O 	0.24669 0.64833 0.49858 -0.31400
O 	O 	0.42168 0.85176 0.98499 -0.33500
F 	F 	0.37937 0.53977 0.33273 -0.39200
F 	F 	0.36092 0.88040 0.65463 -0.36900
O 	O 	0.00642 0.05779 0.67186 -0.28200
F 	F 	0.27884 0.13378 0.37723 -0.39600
H 	H 	0.32498 0.59320 0.43594 0.13900
F 	F 	0.35234 0.34219 0.01934 -0.43600
C 	C 	0.28990 0.36382 0.80404 -0.07200
C 	C 	0.39857 0.89426 0.10093 0.78300
H 	H 	0.36866 0.50126 0.39880 0.05700
C 	C 	0.39211 0.33340 0.78460 0.05000
F 	F 	0.39433 0.93284 0.12570 -0.36100
C 	C 	0.39930 0.47926 0.34542 0.79500
F 	F 	0.41851 0.43476 0.32529 -0.34700
C 	C 	0.39950 0.06944 0.66759 0.09400
O 	O 	0.39227 0.25273 0.46239 -0.01000
N 	N 	0.35420 0.77154 0.55881 -0.01800
H 	H 	0.42040 0.71576 0.00776 0.15700
C 	C 	0.36486 0.36702 0.80619 0.09800
F 	F 	0.25515 0.38081 0.84998 -0.36600
C 	C 	0.43101 0.74956 0.33958 -0.03600
C 	C 	0.39848 0.99865 0.71455 0.76200
C 	C 	0.26678 0.41799 0.82366 0.79000
H 	H 	0.45154 0.34066 0.78562 0.16400
C 	C 	0.39007 0.69338 0.38806 0.29200
O 	O 	0.31787 0.80887 0.44335 -0.35200
C 	C 	0.44397 0.80790 0.05379 0.27200
C 	C 	0.40064 0.92458 0.63053 0.77500
O 	O 	0.42249 0.55051 0.02642 -0.30600
C 	C 	0.39883 0.32149 0.85158 -0.09400
O 	O 	0.42337 0.74725 0.95354 -0.31500
O 	O 	0.44364 0.72765 0.05494 -0.31600
C 	C 	0.92306 0.48617 0.50309 -0.01200
H 	H 	0.35643 0.97256 0.40911 0.09400
F 	F 	0.38511 0.13010 0.39486 -0.39300
O 	O 	0.42409 0.21814 0.97341 0.01800
C 	C 	0.46036 0.82853 0.96671 0.28000
H 	H 	0.45392 0.28743 0.88485 0.08800
C 	C 	0.34757 0.83589 0.54070 0.14800
O 	O 	0.42444 0.78681 0.56678 0.04800
O 	O 	0.01114 0.06129 0.22729 -0.71200
O 	O 	0.03537 0.58767 0.01144 0.00200
F 	F 	0.02199 0.51307 0.15496 -0.34400
F 	F 	0.01086 0.42640 0.11833 -0.35700
C 	C 	0.01065 0.50584 0.12677 0.79700
C 	C 	0.98745 0.78384 0.15409 -0.05400
O 	O 	0.01503 0.91860 0.25907 -0.30700
C 	C 	0.98822 0.70763 0.14207 0.02600
C 	C 	0.95602 0.83517 0.13661 0.78000
O 	O 	0.01209 0.48135 0.86734 0.00900
F 	F 	0.88440 0.77278 0.12449 -0.34800
O 	O 	0.95851 0.87678 0.20192 -0.29200
F 	F 	0.02066 0.07902 0.34631 -0.37200
H 	H 	0.94591 0.67052 0.12585 0.14800
F 	F 	0.93623 0.49637 0.12107 -0.38300
C 	C 	0.84043 0.61056 0.94088 0.29700
C 	C 	0.67922 0.19365 0.94072 0.32800
C 	C 	0.90485 0.46767 0.91401 0.32100
C 	C 	0.61599 0.35367 0.97760 0.30300
C 	C 	0.67807 0.31873 0.86187 0.31900
C 	C 	0.58900 0.44592 0.89195 0.32000
Ni	Ni	0.77562 0.39918 0.95443 1.12300
Ni	Ni	0.61156 0.30369 0.91823 1.12900
Ni	Ni	0.76343 0.48623 0.89456 1.15600
O 	O 	0.84797 0.54676 0.95588 -0.31900
O 	O 	0.78622 0.58756 0.92139 -0.27600
O 	O 	0.61299 0.29720 0.87658 -0.33200
O 	O 	0.71840 0.25399 0.96033 -0.31500
O 	O 	0.66147 0.22154 0.91797 -0.36800
O 	O 	0.66244 0.48696 0.88050 -0.24400
O 	O 	0.85097 0.39102 0.92559 -0.34600
O 	O 	0.88132 0.51794 0.89982 -0.29700
O 	O 	0.57269 0.39487 0.91449 -0.36000
O 	O 	0.69353 0.39568 0.98320 -0.31900
O 	O 	0.58542 0.28477 0.95964 -0.33500
O 	O 	0.74911 0.38360 0.86976 -0.32500
O 	O 	0.71280 0.40774 0.92591 -0.71300
H 	H 	0.69408 0.44533 0.93573 0.17600
C 	C 	0.71224 0.16271 0.52322 0.30100
C 	C 	0.53137 0.35315 0.50080 0.31200
C 	C 	0.77564 0.39830 0.49514 0.31900
C 	C 	0.45070 0.09309 0.52816 0.33400
C 	C 	0.66540 0.45076 0.57621 0.33100
C 	C 	0.61858 0.21406 0.59669 0.28700
Ni	Ni	0.60772 0.23232 0.49849 1.12800
Ni	Ni	0.53958 0.27695 0.55514 1.13100
Ni	Ni	0.72448 0.32994 0.55128 1.13700
O 	O 	0.64866 0.13889 0.50729 -0.27800
O 	O 	0.75976 0.25063 0.52973 -0.34400
O 	O 	0.60495 0.41409 0.55917 -0.35700
O 	O 	0.58051 0.33466 0.48663 -0.31800
O 	O 	0.48836 0.29857 0.52130 -0.33200
O 	O 	0.68899 0.24300 0.58408 -0.27100
O 	O 	0.72484 0.31874 0.48391 -0.32100
O 	O 	0.75902 0.42050 0.51928 -0.33800
O 	O 	0.57542 0.25607 0.59262 -0.34300
O 	O 	0.48487 0.13607 0.50443 -0.31900
O 	O 	0.46164 0.13966 0.55139 -0.33000
O 	O 	0.72151 0.42654 0.57580 -0.29100
O 	O 	0.61930 0.26156 0.53638 -0.71800
H 	H 	0.60436 0.19964 0.54368 0.16500
C 	C 	0.93503 0.81281 0.72342 0.32200
C 	C 	0.98137 0.95390 0.78833 0.28900
C 	C 	0.92749 0.01630 0.67282 0.34400
C 	C 	0.94932 0.16657 0.73416 0.30600
Ni	Ni	0.91957 0.97643 0.73253 1.13400
O 	O 	0.89012 0.01124 0.69623 -0.34100
O 	O 	0.99945 0.84228 0.73876 -0.30800
O 	O 	0.91767 0.87143 0.71178 -0.32900
O 	O 	0.99595 0.18516 0.71171 -0.30200
O 	O 	0.92412 0.08919 0.74873 -0.29200
O 	O 	0.92140 0.91955 0.77022 -0.29200
C 	C 	0.30923 0.73193 0.50058 0.31500
C 	C 	0.43139 0.61420 0.47267 0.29800
Ni	Ni	0.38262 0.74272 0.44696 1.13200
O 	O 	0.37681 0.75184 0.48825 -0.33100
O 	O 	0.40889 0.76025 0.40619 -0.33600
O 	O 	0.36961 0.58981 0.48969 -0.32200
O 	O 	0.45314 0.68368 0.45455 -0.32500
C 	C 	0.46707 0.57053 0.00348 0.31900
O 	O 	0.46501 0.62522 0.98399 -0.34300
C 	C 	0.85534 0.02373 0.26207 0.36500
C 	C 	0.84180 0.97392 0.19229 0.31300
Ni	Ni	0.97631 0.14376 0.21574 1.13500
Ni	Ni	0.93638 0.93488 0.23453 1.13600
O 	O 	0.87789 0.09242 0.24365 -0.29100
O 	O 	0.89734 0.98107 0.26612 -0.31000
O 	O 	0.90772 0.05027 0.18600 -0.31100
O 	O 	0.83891 0.92302 0.21371 -0.30600
F 	F 	0.94100 0.19521 0.05678 -0.34500
F 	F 	0.95073 0.28047 0.01958 -0.40000
C 	C 	0.66732 0.87134 0.14396 0.04600
C 	C 	0.66259 0.95105 0.13753 0.07500
C 	C 	0.70292 0.03078 0.15403 -0.07000
C 	C 	0.75302 0.03124 0.17515 0.10500
C 	C 	0.76702 0.95642 0.17875 -0.01400
C 	C 	0.71835 0.87257 0.16489 -0.03700
C 	C 	0.61392 0.94903 0.11374 0.10500
C 	C 	0.69074 0.11396 0.14981 0.78600
H 	H 	0.78533 0.09209 0.18776 0.09600
C 	C 	0.71741 0.78380 0.17331 0.78000
H 	H 	0.63234 0.80907 0.13217 0.13000
C 	C 	0.64136 0.95134 0.08638 -0.10000
C 	C 	0.58487 0.91583 0.06511 0.07300
C 	C 	0.50330 0.88388 0.07063 0.01700
C 	C 	0.48047 0.90296 0.09652 -0.05500
C 	C 	0.53462 0.92898 0.11842 0.03400
C 	C 	0.72867 0.98070 0.08024 0.76100
H 	H 	0.60293 0.90413 0.04499 0.08000
H 	H 	0.51411 0.92875 0.13932 0.14600
F 	F 	0.79194 0.79203 0.16879 -0.36200
F 	F 	0.66165 0.70856 0.15858 -0.36500
F 	F 	0.69775 0.76585 0.20096 -0.37200
F 	F 	0.61436 0.09184 0.15853 -0.37600
F 	F 	0.70023 0.14005 0.12229 -0.35800
F 	F 	0.74549 0.18958 0.16465 -0.36500
F 	F 	0.74762 0.00724 0.05286 -0.34900
F 	F 	0.74207 0.90747 0.08551 -0.37700
F 	F 	0.77950 0.05504 0.09626 -0.34200
F 	F 	0.94243 0.89720 0.15120 -0.41100
C 	C 	0.69622 0.96501 0.31661 0.00200
C 	C 	0.63995 0.87518 0.30845 0.11400
C 	C 	0.64789 0.84252 0.28236 -0.09900
C 	C 	0.71403 0.89985 0.26547 0.09800
C 	C 	0.77554 0.98432 0.27520 -0.04100
C 	C 	0.76444 0.02030 0.30015 0.01900
C 	C 	0.57258 0.81613 0.32732 0.09600
C 	C 	0.58486 0.74800 0.27211 0.78900
H 	H 	0.71980 0.87676 0.24523 0.10600
C 	C 	0.82630 0.11603 0.30961 0.76400
H 	H 	0.68784 0.99046 0.33618 0.13700
C 	C 	0.58388 0.77057 0.35024 -0.08400
C 	C 	0.52047 0.72368 0.36924 0.09700
C 	C 	0.44463 0.71424 0.36438 0.02900
C 	C 	0.49649 0.80544 0.32223 0.04700
C 	C 	0.66487 0.77758 0.35568 0.79100
H 	H 	0.53088 0.69788 0.38850 0.10100
H 	H 	0.48865 0.84124 0.30478 0.14400
F 	F 	0.79841 0.14476 0.33178 -0.36700
F 	F 	0.84470 0.17955 0.28837 -0.36600
F 	F 	0.89535 0.11529 0.31745 -0.34200
F 	F 	0.51660 0.75123 0.26470 -0.37500
F 	F 	0.56516 0.68084 0.29232 -0.34900
F 	F 	0.61215 0.72127 0.24936 -0.34900
F 	F 	0.65827 0.71243 0.37504 -0.37400
F 	F 	0.71745 0.86460 0.36553 -0.39700
F 	F 	0.69642 0.76250 0.33178 -0.36600
F 	F 	0.46713 0.52867 0.36117 -0.39900
F 	F 	0.95031 0.96811 0.31586 -0.40100
C 	C 	0.38968 0.93109 0.54634 0.01800
C 	C 	0.38738 0.99456 0.52763 -0.05800
C 	C 	0.32926 0.96138 0.50675 0.12300
C 	C 	0.28676 0.86607 0.50137 -0.01700
C 	C 	0.30439 0.80511 0.51603 -0.04400
H 	H 	0.42707 0.95559 0.56437 0.12500
H 	H 	0.24557 0.84097 0.48435 0.12400
N 	N 	0.31175 0.02357 0.49158 -0.01200
O 	O 	0.30859 0.02027 0.46481 -0.02400
O 	O 	0.29629 0.08142 0.50460 0.00300
C 	C 	0.85914 0.44922 0.48441 -0.05000
C 	C 	0.87567 0.44928 0.45597 0.14000
H 	H 	0.91145 0.48875 0.52488 0.10200
N 	N 	0.81313 0.42297 0.43612 -0.02100
O 	O 	0.76888 0.46251 0.43604 -0.00700
O 	O 	0.80357 0.36353 0.41710 -0.00200
C 	C 	0.54511 0.50958 0.50557 -0.02400
C 	C 	0.51502 0.42671 0.49091 -0.04400
C 	C 	0.47054 0.41535 0.46674 0.12800
C 	C 	0.45257 0.48450 0.45859 -0.01000
C 	C 	0.47706 0.56404 0.47456 -0.05500
C 	C 	0.52751 0.57887 0.49725 0.14000
N 	N 	0.56039 0.66395 0.51207 -0.02000
H 	H 	0.58214 0.52035 0.52344 0.12700
H 	H 	0.41415 0.47280 0.44109 0.07900
N 	N 	0.44080 0.33237 0.45099 -0.02500
O 	O 	0.55593 0.66285 0.53886 0.00700
O 	O 	0.59903 0.74252 0.49886 0.00700
O 	O 	0.45507 0.33746 0.42459 0.01600
C 	C 	0.71923 0.96329 0.55645 -0.02700
C 	C 	0.79711 0.01461 0.56694 0.16800
C 	C 	0.85319 0.09644 0.55287 -0.12600
C 	C 	0.82518 0.13378 0.53242 0.10400
C 	C 	0.74230 0.09663 0.52844 0.00400
C 	C 	0.69011 0.00468 0.53760 -0.00400
C 	C 	0.81408 0.99338 0.59518 0.04900
C 	C 	0.94153 0.14586 0.56041 0.79900
H 	H 	0.86657 0.19810 0.52211 0.09900
C 	C 	0.60361 0.95262 0.52849 0.76100
H 	H 	0.67917 0.89536 0.56508 0.15400
C 	C 	0.78950 0.02348 0.61877 -0.07600
C 	C 	0.82724 0.02996 0.64404 0.11900
C 	C 	0.88241 0.99808 0.64679 -0.03200
C 	C 	0.89505 0.95161 0.62448 -0.04500
C 	C 	0.86321 0.95323 0.59847 0.06000
C 	C 	0.72284 0.04779 0.61716 0.79700
H 	H 	0.81534 0.06208 0.66148 0.10600
C 	C 	0.94353 0.90240 0.62802 0.76900
H 	H 	0.87903 0.92647 0.58060 0.15300
F 	F 	0.56112 0.98927 0.54133 -0.46300
F 	F 	0.56811 0.85962 0.53529 -0.41400
F 	F 	0.59937 0.95975 0.50018 -0.43000
F 	F 	0.97241 0.08662 0.55726 -0.38500
F 	F 	0.95061 0.17498 0.58746 -0.39500
F 	F 	0.92362 0.85321 0.65263 -0.43300
F 	F 	0.02427 0.96652 0.62781 -0.35800
F 	F 	0.92932 0.84070 0.60688 -0.36400
F 	F 	0.70587 0.07107 0.64272 -0.38200
F 	F 	0.65322 0.97270 0.60790 -0.43300
F 	F 	0.74526 0.12203 0.59937 -0.41700
C 	C 	0.54805 0.14756 0.66640 0.04900
C 	C 	0.47449 0.07064 0.65922 0.12300
C 	C 	0.47323 0.01746 0.63631 -0.08500
C 	C 	0.53473 0.05896 0.61637 0.08700
C 	C 	0.59660 0.14966 0.62009 0.04400
C 	C 	0.61144 0.18525 0.64699 -0.03800
H 	H 	0.52922 0.02567 0.59676 0.11600
C 	C 	0.69120 0.26836 0.65385 0.80000
H 	H 	0.55235 0.18405 0.68530 0.18800
F 	F 	0.75334 0.25560 0.64436 -0.35300
F 	F 	0.69988 0.28305 0.68195 -0.34800
F 	F 	0.69694 0.34583 0.64117 -0.39600
F 	F 	0.42417 0.86799 0.61738 -0.38800
F 	F 	0.45921 0.07814 0.72607 -0.33200
F 	F 	0.43096 0.94710 0.70384 -0.35200
C 	C 	0.74931 0.63599 0.62788 0.04200
C 	C 	0.72349 0.57847 0.65142 0.09800
C 	C 	0.65332 0.49017 0.64978 -0.08300
C 	C 	0.62119 0.45627 0.62358 0.09800
C 	C 	0.66253 0.50461 0.59972 0.00700
C 	C 	0.71965 0.59926 0.60176 -0.05000
C 	C 	0.77575 0.60686 0.67621 0.11000
C 	C 	0.61054 0.43406 0.67551 0.79700
H 	H 	0.56927 0.38812 0.62165 0.09300
C 	C 	0.75453 0.65916 0.57625 0.78700
H 	H 	0.79684 0.70698 0.62964 0.14100
C 	C 	0.85659 0.62431 0.67467 -0.09100
C 	C 	0.91160 0.68071 0.69479 0.09700
C 	C 	0.88574 0.71463 0.71665 0.01800
C 	C 	0.80267 0.67233 0.72211 -0.06300
C 	C 	0.74926 0.62984 0.70042 0.04700
C 	C 	0.88696 0.59214 0.65051 0.78800
H 	H 	0.97540 0.70726 0.69152 0.11400
C 	C 	0.77177 0.68392 0.74964 0.78500
H 	H 	0.68879 0.61906 0.70188 0.14300
F 	F 	0.82475 0.66020 0.56861 -0.37200
F 	F 	0.77114 0.74858 0.58148 -0.41500
F 	F 	0.70124 0.62647 0.55459 -0.42700
F 	F 	0.55327 0.34454 0.66900 -0.39800
F 	F 	0.57188 0.47482 0.68877 -0.38100
F 	F 	0.66419 0.42843 0.69334 -0.36100
F 	F 	0.69562 0.61058 0.75496 -0.35000
F 	F 	0.76856 0.76534 0.74964 -0.42700
F 	F 	0.82188 0.68612 0.77039 -0.39300
F 	F 	0.94906 0.57750 0.65874 -0.37300
F 	F 	0.91534 0.65913 0.62995 -0.37100
F 	F 	0.82728 0.51004 0.64000 -0.37100
C 	C 	0.99433 0.51249 0.95459 -0.00800
C 	C 	0.98645 0.51386 0.92587 -0.07700
H 	H 	0.94158 0.47350 0.96753 0.06400
C 	C 	0.60266 0.03073 0.92373 0.02900
C 	C 	0.64682 0.09185 0.94507 -0.07400
C 	C 	0.64814 0.05401 0.97111 0.16800
C 	C 	0.59523 0.95967 0.97662 -0.05000
C 	C 	0.53934 0.90342 0.95678 -0.02400
C 	C 	0.54846 0.93712 0.92954 0.09400
N 	N 	0.50023 0.87789 0.90795 -0.01900
H 	H 	0.60699 0.05683 0.90288 0.10000
H 	H 	0.59286 0.93211 0.99711 0.09400
N 	N 	0.70404 0.10974 0.99169 -0.02400
O 	O 	0.45332 0.89873 0.89399 -0.01600
O 	O 	0.50811 0.80736 0.90077 0.01400
O 	O 	0.67820 0.11683 0.01594 0.00600
O 	O 	0.78078 0.14551 0.98714 0.02300
C 	C 	0.47523 0.44957 0.97632 0.01300
C 	C 	0.50652 0.51571 0.99721 -0.03300
C 	C 	0.56742 0.51962 0.01426 0.14600
C 	C 	0.59762 0.45891 0.00970 -0.00200
C 	C 	0.56654 0.39309 0.98851 -0.04500
C 	C 	0.49842 0.38178 0.97412 0.13600
N 	N 	0.44660 0.29638 0.96061 -0.02000
H 	H 	0.42767 0.44574 0.96342 0.11800
H 	H 	0.64750 0.46559 0.02188 0.12300
N 	N 	0.60096 0.58737 0.03553 -0.02300
O 	O 	0.41184 0.29715 0.93771 -0.01400
O 	O 	0.60716 0.56231 0.06046 0.01100
O 	O 	0.63053 0.67474 0.02955 0.00500
C 	C 	0.87587 0.30261 0.77224 0.05100
C 	C 	0.79393 0.24788 0.76650 0.08800
C 	C 	0.77018 0.19358 0.74241 -0.07400
C 	C 	0.82734 0.17881 0.72835 0.09000
C 	C 	0.90624 0.21811 0.73811 0.03000
C 	C 	0.93299 0.28914 0.75779 -0.05300
C 	C 	0.73462 0.23820 0.78775 0.11200
C 	C 	0.68303 0.14375 0.73343 0.79200
H 	H 	0.80864 0.12887 0.71186 0.10900
H 	H 	0.89415 0.34919 0.78962 0.12100
C 	C 	0.72202 0.18247 0.81164 -0.10300
C 	C 	0.69062 0.20054 0.83559 0.09200
C 	C 	0.67157 0.27178 0.83580 0.00300
C 	C 	0.66894 0.31353 0.81067 -0.04500
C 	C 	0.70416 0.29965 0.78703 0.03800
C 	C 	0.75326 0.11421 0.81316 0.79100
H 	H 	0.68908 0.16600 0.85483 0.09100
C 	C 	0.63506 0.37896 0.80955 0.77500
H 	H 	0.71328 0.34152 0.76869 0.15600
F 	F 	0.65209 0.20348 0.73376 -0.36400
F 	F 	0.63792 0.07022 0.75110 -0.34500
F 	F 	0.67553 0.11002 0.70693 -0.36400
F 	F 	0.69009 0.46371 0.82017 -0.37800
F 	F 	0.56463 0.34287 0.82481 -0.42100
F 	F 	0.61787 0.39208 0.78274 -0.35900
F 	F 	0.71459 0.04947 0.83399 -0.38000
F 	F 	0.83463 0.16127 0.81854 -0.39200
F 	F 	0.74053 0.06655 0.78878 -0.37600
C 	C 	0.47030 0.48295 0.83641 0.04600
C 	C 	0.40917 0.39149 0.83243 0.11500
C 	C 	0.45591 0.34267 0.87225 0.10000
C 	C 	0.52051 0.43278 0.87497 0.01600
C 	C 	0.52302 0.50527 0.85872 -0.03900
C 	C 	0.58288 0.60575 0.86419 0.77600
H 	H 	0.47808 0.53633 0.82172 0.15100
F 	F 	0.60263 0.62026 0.89182 -0.38600
F 	F 	0.55099 0.66174 0.85686 -0.37600
F 	F 	0.65144 0.63150 0.84861 -0.34000
F 	F 	0.32716 0.50935 0.82416 -0.39100
C 	C 	0.89850 0.84084 0.92176 0.05600
C 	C 	0.95668 0.84830 0.90256 0.07900
C 	C 	0.00432 0.80740 0.90926 -0.08100
C 	C 	0.97576 0.73693 0.92967 0.07300
C 	C 	0.90131 0.70919 0.94256 0.03300
C 	C 	0.87369 0.77404 0.94308 -0.05700
C 	C 	0.95364 0.87755 0.87363 0.11200
H 	H 	0.00464 0.69546 0.93240 0.09200
C 	C 	0.80644 0.76042 0.96241 0.78100
H 	H 	0.86698 0.87931 0.91846 0.11800
C 	C 	0.90523 0.81187 0.85360 -0.08700
C 	C 	0.91061 0.84014 0.82591 0.08000
C 	C 	0.96138 0.93219 0.81796 0.03100
C 	C 	0.00131 0.99981 0.83840 -0.05100
C 	C 	0.99940 0.97130 0.86603 0.00500
C 	C 	0.84752 0.71203 0.86163 0.78000
H 	H 	0.87780 0.78977 0.81028 0.15400
C 	C 	0.04584 0.10183 0.83081 0.79600
H 	H 	0.03423 0.02166 0.88153 0.16800
F 	F 	0.73358 0.71111 0.94928 -0.39300
F 	F 	0.81608 0.84531 0.97023 -0.38700
F 	F 	0.80608 0.71250 0.98594 -0.39800
F 	F 	0.99994 0.12218 0.81315 -0.38000
F 	F 	0.06213 0.15678 0.85387 -0.36000
F 	F 	0.80479 0.66027 0.83925 -0.35900
F 	F 	0.79303 0.70910 0.88101 -0.39900
F 	F 	0.88938 0.67122 0.87233 -0.44900
