data_crystal

_cell_length_a 47.81405
_cell_length_b 47.72218
_cell_length_c 26.82525
_cell_angle_alpha 91.90887
_cell_angle_beta  88.33579
_cell_angle_gamma 90.03191

_symmetry_space_group_name_	'P 1'
_symmetry_space_group_name_H-M	'P 1'

loop_
_symmetry_equiv_pos_as_xyz
  x,y,z

loop_
_atom_site_label
_atom_site_type_symbol
_atom_site_fract_x
_atom_site_fract_y
_atom_site_fract_z
_atom_site_charge
Cd	Cd	0.89001 0.90463 0.19931 1.24600
Cd	Cd	0.86352 0.95593 0.28592 1.18200
O 	O 	0.88032 0.85514 0.21495 -0.30100
O 	O 	0.90380 0.86756 0.14800 -0.33600
C 	C 	0.89473 0.84712 0.17518 0.27500
O 	O 	0.89891 0.94551 0.16334 -0.37300
O 	O 	0.89951 0.97052 0.23781 -0.41800
C 	C 	0.90045 0.96971 0.18866 0.29300
C 	C 	0.83240 0.91904 0.19837 0.30400
O 	O 	0.89268 0.91768 0.29563 -0.42600
O 	O 	0.83929 0.90448 0.15769 -0.27900
O 	O 	0.85148 0.92090 0.23143 -0.53600
C 	C 	0.91984 0.91713 0.29010 0.29400
O 	O 	0.92954 0.90977 0.24562 -0.34200
Cd	Cd	0.12016 0.89743 0.09757 1.24400
Cd	Cd	0.11162 0.95308 0.01449 1.18500
O 	O 	0.14248 0.85496 0.06150 -0.30700
O 	O 	0.13040 0.85826 0.14094 -0.33500
C 	C 	0.14069 0.84273 0.10393 0.27800
O 	O 	0.10714 0.93352 0.14838 -0.36600
O 	O 	0.08649 0.95724 0.08646 -0.40000
C 	C 	0.09770 0.95711 0.13071 0.29100
C 	C 	0.16740 0.93066 0.06993 0.30600
O 	O 	0.09523 0.90730 0.01380 -0.44000
O 	O 	0.17266 0.91577 0.10869 -0.27600
O 	O 	0.14377 0.92524 0.04933 -0.53100
C 	C 	0.07199 0.89839 0.03429 0.30000
O 	O 	0.07393 0.88820 0.07861 -0.33900
C 	C 	0.06850 0.71454 0.87465 0.12700
N 	N 	0.05635 0.68942 0.88367 -0.13700
C 	C 	0.04288 0.67518 0.84698 0.13400
N 	N 	0.03949 0.68713 0.80234 -0.14200
C 	C 	0.05117 0.71246 0.79328 0.13200
N 	N 	0.06627 0.72586 0.82901 -0.13600
C 	C 	0.00903 0.71946 0.35369 0.12500
N 	N 	0.02306 0.69504 0.34375 -0.13600
C 	C 	0.03379 0.68061 0.38156 0.13300
N 	N 	0.03178 0.69128 0.42897 -0.14300
C 	C 	0.01850 0.71601 0.43899 0.13200
N 	N 	0.00669 0.72989 0.40152 -0.13500
Cd	Cd	0.94016 0.98317 0.74814 1.24300
Cd	Cd	0.99301 0.98324 0.83969 1.18800
O 	O 	0.89186 0.98670 0.78117 -0.30400
O 	O 	0.90131 0.98853 0.70058 -0.33200
C 	C 	0.88245 0.98902 0.73665 0.27500
O 	O 	0.98028 0.98744 0.70307 -0.36600
O 	O 	0.00758 0.96897 0.76260 -0.39700
C 	C 	0.00507 0.98411 0.72281 0.29000
C 	C 	0.95593 0.03444 0.79711 0.31100
O 	O 	0.95556 0.95382 0.82357 -0.44100
O 	O 	0.94078 0.03915 0.75852 -0.27400
O 	O 	0.95761 0.00849 0.80906 -0.53200
C 	C 	0.95552 0.93149 0.79427 0.29600
O 	O 	0.94566 0.93469 0.74991 -0.33700
Cd	Cd	0.79162 0.07455 0.52498 1.24300
Cd	Cd	0.82408 0.07315 0.40474 1.16700
O 	O 	0.74039 0.07529 0.53170 -0.30500
O 	O 	0.76582 0.06927 0.59709 -0.33600
C 	C 	0.74091 0.06953 0.57868 0.27600
O 	O 	0.83633 0.06535 0.53846 -0.37600
O 	O 	0.85325 0.08496 0.46670 -0.42500
C 	C 	0.85734 0.07057 0.50702 0.29800
C 	C 	0.79172 0.02373 0.46607 0.30100
O 	O 	0.79451 0.10555 0.44569 -0.44800
O 	O 	0.78592 0.01920 0.51289 -0.27600
O 	O 	0.79341 0.04989 0.45493 -0.53900
C 	C 	0.80195 0.12645 0.47484 0.29500
O 	O 	0.80079 0.12227 0.52271 -0.34000
C 	C 	0.72479 0.95968 0.93504 0.12600
N 	N 	0.73138 0.95491 0.98309 -0.13300
C 	C 	0.71246 0.94241 0.01393 0.12900
N 	N 	0.68660 0.93598 0.99751 -0.14200
C 	C 	0.67973 0.94133 0.95012 0.13300
N 	N 	0.69891 0.95290 0.91875 -0.13700
C 	C 	0.63825 0.93209 0.43767 0.12700
N 	N 	0.61381 0.91756 0.43918 -0.13800
C 	C 	0.60383 0.90512 0.39698 0.13300
N 	N 	0.61943 0.90564 0.35382 -0.14400
C 	C 	0.64401 0.91985 0.35223 0.13400
N 	N 	0.65292 0.93378 0.39370 -0.13400
Cd	Cd	0.97454 0.22375 0.21626 1.24300
Cd	Cd	0.95589 0.17608 0.31167 1.18200
O 	O 	0.99027 0.27073 0.24376 -0.30400
O 	O 	0.99292 0.25695 0.16478 -0.33400
C 	C 	0.99762 0.27661 0.19834 0.27600
O 	O 	0.96965 0.18234 0.17489 -0.36200
O 	O 	0.94101 0.16406 0.23552 -0.42100
C 	C 	0.95780 0.16050 0.19609 0.29400
C 	C 	0.01762 0.19692 0.26859 0.30500
O 	O 	0.93861 0.21972 0.29192 -0.43600
O 	O 	0.02742 0.20879 0.22862 -0.27900
O 	O 	0.99150 0.20214 0.27946 -0.52000
C 	C 	0.91877 0.22451 0.26106 0.29400
O 	O 	0.92657 0.23134 0.21603 -0.33800
Cd	Cd	0.08835 0.21091 0.04298 1.24300
Cd	Cd	0.09576 0.15520 0.95093 1.18000
O 	O 	0.06823 0.25401 0.01216 -0.30400
O 	O 	0.07528 0.24941 0.09210 -0.33100
C 	C 	0.06615 0.26497 0.05698 0.27500
O 	O 	0.09954 0.17352 0.08724 -0.36000
O 	O 	0.11983 0.14942 0.02037 -0.41700
C 	C 	0.10787 0.14959 0.06519 0.29200
C 	C 	0.04073 0.17884 0.01576 0.30000
O 	O 	0.11421 0.20004 0.95645 -0.44500
O 	O 	0.03540 0.19406 0.05621 -0.27500
O 	O 	0.06442 0.18381 0.99312 -0.52800
C 	C 	0.13741 0.20752 0.97742 0.29600
O 	O 	0.13506 0.21877 0.02237 -0.34000
C 	C 	0.01828 0.42292 0.88134 0.12800
N 	N 	0.01645 0.45061 0.89459 -0.13800
C 	C 	0.01862 0.47021 0.85913 0.13400
N 	N 	0.02252 0.46212 0.81049 -0.14200
C 	C 	0.02363 0.43449 0.79696 0.13400
N 	N 	0.02129 0.41491 0.83238 -0.13700
C 	C 	0.07634 0.43516 0.36085 0.12900
N 	N 	0.08056 0.42367 0.40559 -0.13800
C 	C 	0.08579 0.44029 0.44628 0.13400
N 	N 	0.08875 0.46837 0.44121 -0.14300
C 	C 	0.08548 0.47994 0.39612 0.13300
N 	N 	0.07827 0.46335 0.35635 -0.13800
Cd	Cd	0.26373 0.05927 0.71229 1.24400
Cd	Cd	0.23095 0.07516 0.83044 1.17600
O 	O 	0.31513 0.05922 0.70342 -0.30200
O 	O 	0.28864 0.04384 0.64322 -0.33500
C 	C 	0.31382 0.04633 0.66006 0.27700
O 	O 	0.21925 0.04751 0.70189 -0.37300
O 	O 	0.20114 0.07510 0.76669 -0.42100
C 	C 	0.19825 0.05470 0.73277 0.29800
C 	C 	0.26339 0.01864 0.78750 0.31100
O 	O 	0.26024 0.10097 0.77859 -0.44300
O 	O 	0.27011 0.00707 0.74406 -0.28200
O 	O 	0.26148 0.04567 0.78904 -0.53700
C 	C 	0.25261 0.11702 0.74313 0.29400
O 	O 	0.25381 0.10603 0.69785 -0.33700
Cd	Cd	0.11272 0.99415 0.49988 1.24200
Cd	Cd	0.06222 0.00513 0.40674 1.18000
O 	O 	0.15992 0.98188 0.46832 -0.30600
O 	O 	0.15142 0.99053 0.54836 -0.33700
C 	C 	0.16970 0.98388 0.51290 0.27700
O 	O 	0.07452 0.01092 0.54299 -0.36400
O 	O 	0.04382 0.99730 0.48271 -0.41300
C 	C 	0.04939 0.01220 0.52341 0.28600
C 	C 	0.11303 0.04575 0.44922 0.30900
O 	O 	0.08986 0.96683 0.42456 -0.43700
O 	O 	0.12912 0.04701 0.48762 -0.27500
O 	O 	0.10301 0.02107 0.43858 -0.52700
C 	C 	0.08372 0.94686 0.45513 0.29800
O 	O 	0.09383 0.94959 0.49970 -0.34400
C 	C 	0.43414 0.94788 0.85150 0.12800
N 	N 	0.42051 0.94688 0.89660 -0.13600
C 	C 	0.43462 0.94005 0.93770 0.13200
N 	N 	0.46203 0.93263 0.93310 -0.14300
C 	C 	0.47563 0.93320 0.88797 0.13200
N 	N 	0.46172 0.94120 0.84742 -0.13800
C 	C 	0.35592 0.93967 0.37595 0.12600
N 	N 	0.37985 0.93150 0.39748 -0.13600
C 	C 	0.40319 0.92603 0.36877 0.13300
N 	N 	0.40254 0.92844 0.31862 -0.14300
C 	C 	0.37863 0.93620 0.29685 0.13300
N 	N 	0.35519 0.94151 0.32548 -0.13700
C 	C 	0.42088 0.94293 0.98773 -0.04400
C 	C 	0.43425 0.95712 0.02768 0.10400
C 	C 	0.42341 0.95469 0.07649 -0.08400
C 	C 	0.39790 0.94099 0.08548 -0.00300
C 	C 	0.38265 0.92998 0.04474 0.07500
C 	C 	0.39475 0.93026 0.99633 -0.04900
N 	N 	0.45661 0.97412 0.01915 -0.19900
H 	H 	0.43450 0.96411 0.10752 0.05800
C 	C 	0.38764 0.93814 0.13785 -0.00300
N 	N 	0.35665 0.91896 0.05186 -0.19400
H 	H 	0.38395 0.92032 0.96546 0.05900
C 	C 	0.37793 0.96212 0.16468 -0.08400
C 	C 	0.37379 0.96189 0.21676 0.10700
C 	C 	0.37772 0.93657 0.24191 -0.04600
C 	C 	0.38475 0.91198 0.21427 -0.04900
C 	C 	0.39066 0.91264 0.16275 0.07400
H 	H 	0.37517 0.98148 0.14536 0.06200
N 	N 	0.36703 0.98619 0.24232 -0.20000
H 	H 	0.38719 0.89251 0.23345 0.05500
N 	N 	0.39982 0.88893 0.13780 -0.19400
H 	H 	0.36385 0.00460 0.22323 0.09800
H 	H 	0.36541 0.98730 0.28118 0.10300
H 	H 	0.40181 0.87021 0.15655 0.09100
H 	H 	0.40532 0.88879 0.09988 0.09300
H 	H 	0.34584 0.91030 0.02175 0.09900
H 	H 	0.34664 0.91951 0.08698 0.10000
H 	H 	0.46213 0.98027 0.98320 0.10200
H 	H 	0.46742 0.98309 0.04900 0.09100
C 	C 	0.24238 0.95773 0.52572 -0.03300
C 	C 	0.25571 0.97409 0.48903 0.02600
C 	C 	0.24268 0.99887 0.47409 -0.03500
C 	C 	0.21553 0.00562 0.49239 0.02500
C 	C 	0.20013 0.98597 0.51997 -0.06100
C 	C 	0.21437 0.96359 0.54090 0.02100
C 	C 	0.28201 0.96385 0.46273 0.01400
C 	C 	0.25644 0.01642 0.43770 0.10700
C 	C 	0.19994 0.94607 0.57644 0.09800
C 	C 	0.28085 0.94162 0.42671 -0.02500
C 	C 	0.30537 0.93275 0.40026 -0.00400
C 	C 	0.33082 0.94715 0.40747 -0.01700
C 	C 	0.33199 0.96936 0.44358 -0.00500
C 	C 	0.30774 0.97733 0.47175 -0.02500
C 	C 	0.25427 0.92839 0.41601 0.10000
C 	C 	0.35785 0.98472 0.45053 0.09300
C 	C 	0.30453 0.90850 0.36624 0.09600
C 	C 	0.30890 0.00052 0.50794 0.10100
C 	C 	0.25702 0.93432 0.54605 0.10900
C 	C 	0.20293 0.03221 0.48115 0.09900
N 	N 	0.30387 0.88916 0.33910 -0.10400
N 	N 	0.23305 0.91785 0.40752 -0.10100
N 	N 	0.37840 0.99708 0.45626 -0.11000
N 	N 	0.30978 0.01920 0.53645 -0.10000
N 	N 	0.26744 0.03040 0.40866 -0.10400
N 	N 	0.19293 0.05347 0.47215 -0.08800
N 	N 	0.18841 0.93207 0.60484 -0.09200
N 	N 	0.26875 0.91562 0.56224 -0.10200
C 	C 	0.38461 0.01657 0.66022 -0.03400
C 	C 	0.37698 0.99130 0.68278 0.02300
C 	C 	0.35029 0.97992 0.67409 -0.03400
C 	C 	0.32969 0.99674 0.65346 0.01800
C 	C 	0.33544 0.02529 0.64556 -0.05700
C 	C 	0.36357 0.03386 0.64187 0.02000
C 	C 	0.39343 0.98116 0.72501 0.01500
C 	C 	0.34353 0.95185 0.68957 0.10500
C 	C 	0.37050 0.06098 0.62230 0.09600
C 	C 	0.39165 0.99556 0.77186 -0.02600
C 	C 	0.40597 0.98532 0.81261 -0.00500
C 	C 	0.41983 0.95916 0.80810 -0.01800
C 	C 	0.42112 0.94447 0.76139 -0.00500
C 	C 	0.40923 0.95627 0.71938 -0.02600
C 	C 	0.37482 0.02079 0.77820 0.10200
C 	C 	0.43378 0.91686 0.75695 0.09500
C 	C 	0.40733 0.00220 0.85849 0.09700
C 	C 	0.41330 0.94288 0.67039 0.09900
C 	C 	0.41356 0.02551 0.65923 0.10300
C 	C 	0.30232 0.98529 0.64319 0.10200
N 	N 	0.40841 0.01566 0.89508 -0.10500
N 	N 	0.36141 0.04092 0.78316 -0.09700
N 	N 	0.44389 0.89482 0.75341 -0.10700
N 	N 	0.41652 0.93221 0.63127 -0.10700
N 	N 	0.33814 0.92944 0.70196 -0.10300
N 	N 	0.28043 0.97617 0.63506 -0.09700
N 	N 	0.37602 0.08267 0.60665 -0.09600
N 	N 	0.43671 0.03263 0.65848 -0.10500
C 	C 	0.03045 0.42592 0.74471 -0.04600
C 	C 	0.01620 0.43777 0.70498 0.10600
C 	C 	0.02760 0.43501 0.65631 -0.08400
C 	C 	0.05182 0.41901 0.64624 -0.00400
C 	C 	0.06426 0.40456 0.68514 0.07700
C 	C 	0.05365 0.40848 0.73423 -0.05100
N 	N 	0.99131 0.45117 0.71319 -0.19900
H 	H 	0.01754 0.44526 0.62610 0.06000
C 	C 	0.06463 0.41870 0.59534 -0.00400
N 	N 	0.08622 0.38687 0.67563 -0.19400
H 	H 	0.06400 0.39860 0.76447 0.06400
C 	C 	0.08839 0.43520 0.58605 -0.08400
C 	C 	0.09803 0.43941 0.53694 0.10500
C 	C 	0.08224 0.42886 0.49665 -0.04700
C 	C 	0.06009 0.41022 0.50607 -0.05000
C 	C 	0.05151 0.40460 0.55517 0.07700
H 	H 	0.09924 0.44493 0.61706 0.05900
N 	N 	0.12277 0.45279 0.52871 -0.19900
H 	H 	0.04876 0.40095 0.47522 0.06200
N 	N 	0.03064 0.38580 0.56351 -0.19400
H 	H 	0.13363 0.46175 0.55851 0.09200
H 	H 	0.13226 0.45287 0.49315 0.10000
H 	H 	0.02035 0.37623 0.53360 0.09800
H 	H 	0.02516 0.37972 0.59953 0.09700
H 	H 	0.09576 0.37690 0.70480 0.09800
H 	H 	0.09347 0.38216 0.63923 0.09700
H 	H 	0.98070 0.45067 0.74773 0.09900
H 	H 	0.98156 0.46099 0.68408 0.09200
C 	C 	0.19893 0.16859 0.78707 -0.04600
C 	C 	0.21515 0.18417 0.82129 0.01700
C 	C 	0.24448 0.18458 0.81457 -0.04000
C 	C 	0.25761 0.16487 0.78127 0.02100
C 	C 	0.24123 0.14527 0.75461 -0.08900
C 	C 	0.21220 0.14974 0.75244 0.01100
C 	C 	0.20191 0.19553 0.86874 0.01800
C 	C 	0.26103 0.20429 0.84349 0.10400
C 	C 	0.19608 0.13471 0.71534 0.08900
C 	C 	0.20179 0.17930 0.91183 -0.04600
C 	C 	0.18335 0.18623 0.95227 0.00900
C 	C 	0.16395 0.20814 0.94818 -0.08700
C 	C 	0.16708 0.22681 0.90874 0.02400
C 	C 	0.18641 0.22065 0.86917 -0.03900
C 	C 	0.21958 0.15476 0.91340 0.07800
C 	C 	0.14996 0.25185 0.90839 0.09000
C 	C 	0.18392 0.17056 0.99759 0.07700
C 	C 	0.18972 0.23958 0.82827 0.10500
C 	C 	0.16869 0.17087 0.78937 0.08700
C 	C 	0.28783 0.16391 0.77591 0.08900
N 	N 	0.18443 0.15806 0.03380 -0.10000
N 	N 	0.23378 0.13517 0.91455 -0.15800
N 	N 	0.13628 0.27184 0.90815 -0.09400
N 	N 	0.19238 0.25467 0.79558 -0.10400
N 	N 	0.27422 0.22004 0.86662 -0.10400
N 	N 	0.31198 0.16313 0.77162 -0.09700
N 	N 	0.18313 0.12281 0.68565 -0.09500
N 	N 	0.14454 0.17271 0.79127 -0.12600
C 	C 	0.04292 0.36084 0.95308 -0.02500
C 	C 	0.02291 0.36030 0.99279 0.01700
C 	C 	0.00107 0.38026 0.99561 -0.02300
C 	C 	0.99893 0.40014 0.95810 -0.00500
C 	C 	0.02003 0.40173 0.92028 -0.01800
C 	C 	0.04274 0.38279 0.91943 -0.00500
C 	C 	0.02570 0.33922 0.03230 0.02200
C 	C 	0.98063 0.38018 0.03655 0.10000
C 	C 	0.06673 0.38694 0.88613 0.09300
C 	C 	0.04898 0.34070 0.06340 -0.03700
C 	C 	0.06094 0.31569 0.07984 0.01600
C 	C 	0.04832 0.28979 0.06764 -0.06000
C 	C 	0.02094 0.28966 0.04949 0.02200
C 	C 	0.01004 0.31421 0.02969 -0.03300
C 	C 	0.06207 0.36754 0.07374 0.10100
C 	C 	0.00508 0.26378 0.04746 0.10400
C 	C 	0.08736 0.31631 0.10487 0.09200
C 	C 	0.98393 0.31330 0.00361 0.10600
C 	C 	0.06353 0.33860 0.94664 0.10100
C 	C 	0.97475 0.41848 0.95777 0.09800
N 	N 	0.10851 0.31661 0.12480 -0.09500
N 	N 	0.07232 0.38915 0.08151 -0.10500
N 	N 	0.99237 0.24315 0.04579 -0.09100
N 	N 	0.96307 0.31257 0.98278 -0.09800
N 	N 	0.96414 0.38026 0.06897 -0.09700
N 	N 	0.95547 0.43311 0.95750 -0.10400
N 	N 	0.08593 0.39025 0.85971 -0.11000
N 	N 	0.07994 0.32085 0.94158 -0.09700
C 	C 	0.07869 0.09074 0.35481 -0.04300
C 	C 	0.07947 0.11740 0.37896 0.02200
C 	C 	0.09480 0.12140 0.42267 -0.03900
C 	C 	0.10818 0.09846 0.44365 0.03200
C 	C 	0.10533 0.07115 0.42158 -0.10000
C 	C 	0.09329 0.06816 0.37421 0.00300
C 	C 	0.06580 0.14172 0.35624 0.02500
C 	C 	0.09681 0.14916 0.44603 0.10900
C 	C 	0.09844 0.04309 0.34323 0.01000
C 	C 	0.03923 0.15099 0.37372 -0.04000
C 	C 	0.02573 0.17265 0.34938 0.01100
C 	C 	0.03583 0.18062 0.30168 -0.09400
C 	C 	0.06313 0.17189 0.28530 0.03000
C 	C 	0.07887 0.15471 0.31552 -0.03900
C 	C 	0.02572 0.13812 0.41624 0.08400
C 	C 	0.07485 0.17989 0.23743 0.10100
C 	C 	0.00400 0.18879 0.37588 0.00700
C 	C 	0.10880 0.15183 0.30678 0.10900
C 	C 	0.06281 0.08658 0.31000 0.08200
C 	C 	0.12591 0.10336 0.48604 0.10700
N 	N 	0.98670 0.20169 0.39722 -0.13500
N 	N 	0.01495 0.12777 0.45015 -0.11300
N 	N 	0.08420 0.18629 0.19920 -0.09000
N 	N 	0.13273 0.14970 0.30007 -0.09800
N 	N 	0.09838 0.17132 0.46462 -0.10200
N 	N 	0.14005 0.10741 0.51984 -0.08500
N 	N 	0.10255 0.02315 0.31836 -0.13000
N 	N 	0.05015 0.08331 0.27420 -0.11000
C 	C 	0.05687 0.32433 0.22419 -0.03500
C 	C 	0.04384 0.35026 0.21640 0.02400
C 	C 	0.02039 0.35095 0.18566 -0.03700
C 	C 	0.00619 0.32579 0.17345 0.01800
C 	C 	0.01693 0.30005 0.18859 -0.06200
C 	C 	0.04404 0.29929 0.20763 0.02100
C 	C 	0.05042 0.37517 0.24930 0.01500
C 	C 	0.00997 0.37760 0.16976 0.10300
C 	C 	0.05852 0.27281 0.21068 0.10000
C 	C 	0.07546 0.39043 0.24169 -0.02500
C 	C 	0.08320 0.41149 0.27679 -0.00400
C 	C 	0.06590 0.41742 0.31927 -0.01900
C 	C 	0.03976 0.40400 0.32445 -0.00400
C 	C 	0.03241 0.38230 0.29050 -0.02600
C 	C 	0.09413 0.38332 0.19967 0.10200
C 	C 	0.02049 0.41250 0.36492 0.09200
C 	C 	0.10940 0.42642 0.27002 0.09300
C 	C 	0.00691 0.36645 0.29911 0.09900
C 	C 	0.08241 0.32333 0.25191 0.10700
C 	C 	0.97966 0.32647 0.14880 0.09000
N 	N 	0.13032 0.43830 0.26458 -0.11000
N 	N 	0.10935 0.37773 0.16653 -0.09900
N 	N 	0.00514 0.41929 0.39723 -0.10900
N 	N 	0.98658 0.35379 0.30593 -0.10000
N 	N 	0.00176 0.39899 0.15728 -0.10400
N 	N 	0.95842 0.32683 0.12925 -0.09400
N 	N 	0.07035 0.25179 0.21312 -0.08700
N 	N 	0.10279 0.32254 0.27405 -0.10300
C 	C 	0.42946 0.91823 0.39184 -0.04800
C 	C 	0.44943 0.93893 0.40475 0.10900
C 	C 	0.47703 0.93085 0.41343 -0.08300
C 	C 	0.48513 0.90268 0.40770 -0.00200
C 	C 	0.46454 0.88177 0.40019 0.07400
C 	C 	0.43678 0.88980 0.39244 -0.05000
N 	N 	0.44247 0.96659 0.40735 -0.19900
H 	H 	0.49268 0.94674 0.42122 0.06400
C 	C 	0.51528 0.89606 0.40114 -0.00300
N 	N 	0.47141 0.85410 0.39906 -0.19400
H 	H 	0.42120 0.87393 0.38408 0.05400
C 	C 	0.53051 0.88873 0.44264 -0.08500
C 	C 	0.55985 0.88712 0.43942 0.10900
C 	C 	0.57415 0.89604 0.39575 -0.04800
C 	C 	0.55882 0.90070 0.35289 -0.05100
C 	C 	0.52948 0.90030 0.35498 0.07400
H 	H 	0.51953 0.88414 0.47736 0.06200
N 	N 	0.57403 0.87596 0.47720 -0.19800
H 	H 	0.56966 0.90597 0.31839 0.05400
N 	N 	0.51509 0.90446 0.31283 -0.19400
H 	H 	0.56357 0.87095 0.51049 0.09500
H 	H 	0.59507 0.87032 0.47249 0.10000
H 	H 	0.52574 0.90853 0.27927 0.08800
H 	H 	0.49332 0.90283 0.31252 0.09300
H 	H 	0.45624 0.83881 0.39201 0.09100
H 	H 	0.49164 0.84746 0.40634 0.09300
H 	H 	0.42218 0.97329 0.40080 0.10700
H 	H 	0.45744 0.98176 0.41633 0.09900
C 	C 	0.65052 0.93810 0.93514 -0.04800
C 	C 	0.64299 0.91887 0.89643 0.10600
C 	C 	0.61479 0.91649 0.88361 -0.08500
C 	C 	0.59405 0.93226 0.90973 -0.00300
C 	C 	0.60151 0.95083 0.94942 0.07400
C 	C 	0.62975 0.95390 0.96109 -0.04900
N 	N 	0.66251 0.90224 0.87229 -0.19900
H 	H 	0.60893 0.90214 0.85350 0.06000
C 	C 	0.56461 0.92941 0.89487 -0.00500
N 	N 	0.58169 0.96558 0.97666 -0.19200
H 	H 	0.63559 0.96846 0.99093 0.05500
C 	C 	0.54841 0.90744 0.91367 -0.08500
C 	C 	0.51936 0.90681 0.90747 0.10500
C 	C 	0.50626 0.92943 0.88453 -0.04800
C 	C 	0.52275 0.95014 0.86217 -0.05200
C 	C 	0.55192 0.95004 0.86632 0.07700
H 	H 	0.55838 0.89101 0.93379 0.05800
N 	N 	0.50435 0.88419 0.92228 -0.19900
H 	H 	0.51280 0.96692 0.84294 0.05800
N 	N 	0.56757 0.96999 0.84352 -0.19400
H 	H 	0.51395 0.86820 0.94128 0.09100
H 	H 	0.48349 0.88150 0.91265 0.10000
H 	H 	0.55795 0.98570 0.82387 0.09700
H 	H 	0.58940 0.96962 0.84376 0.09900
H 	H 	0.58750 0.97965 0.00522 0.08800
H 	H 	0.56038 0.96287 0.97061 0.09300
H 	H 	0.68331 0.90207 0.88304 0.10100
H 	H 	0.65680 0.88858 0.84305 0.09500
C 	C 	0.71963 0.93594 0.06533 -0.04500
C 	C 	0.71453 0.90878 0.08300 0.10800
C 	C 	0.70774 0.90550 0.13369 -0.08300
C 	C 	0.70744 0.92878 0.16695 -0.00400
C 	C 	0.71871 0.95453 0.15100 0.07900
C 	C 	0.72428 0.95808 0.09982 -0.05200
N 	N 	0.71548 0.88601 0.05120 -0.19800
H 	H 	0.70114 0.88519 0.14665 0.06000
C 	C 	0.69127 0.92715 0.21487 -0.00100
N 	N 	0.72319 0.97606 0.18423 -0.19500
H 	H 	0.73015 0.97855 0.08661 0.06000
C 	C 	0.70105 0.90992 0.25198 -0.08400
C 	C 	0.68510 0.90601 0.29604 0.11100
C 	C 	0.66013 0.92154 0.30484 -0.04600
C 	C 	0.65044 0.93892 0.26801 -0.04700
C 	C 	0.66509 0.94093 0.22216 0.07600
H 	H 	0.72066 0.89874 0.24580 0.06300
N 	N 	0.69315 0.88640 0.32840 -0.19900
H 	H 	0.63099 0.95034 0.27448 0.05300
N 	N 	0.65354 0.95535 0.18495 -0.19300
H 	H 	0.71057 0.87374 0.31993 0.10300
H 	H 	0.68158 0.88268 0.36111 0.10600
H 	H 	0.63496 0.96658 0.19158 0.09000
H 	H 	0.66191 0.95438 0.14859 0.09300
H 	H 	0.73065 0.99533 0.17205 0.09900
H 	H 	0.72036 0.97349 0.22254 0.10300
H 	H 	0.72219 0.88777 0.01402 0.10100
H 	H 	0.71058 0.86609 0.06397 0.09500
C 	C 	0.85083 0.18000 0.42241 -0.04600
C 	C 	0.83357 0.19163 0.38659 0.01700
C 	C 	0.80441 0.18740 0.38980 -0.04100
C 	C 	0.79316 0.16798 0.42341 0.02100
C 	C 	0.81109 0.15337 0.45437 -0.09200
C 	C 	0.83931 0.16158 0.45743 0.01300
C 	C 	0.84648 0.20563 0.34275 0.01800
C 	C 	0.78620 0.20244 0.35769 0.10300
C 	C 	0.85650 0.15085 0.49614 0.08400
C 	C 	0.85252 0.18984 0.29832 -0.04600
C 	C 	0.87339 0.19921 0.26465 0.01000
C 	C 	0.88913 0.22321 0.27722 -0.08700
C 	C 	0.87913 0.24165 0.31581 0.02300
C 	C 	0.85745 0.23292 0.34846 -0.03900
C 	C 	0.83846 0.16337 0.28882 0.08500
C 	C 	0.89195 0.26895 0.32299 0.09100
C 	C 	0.87918 0.18388 0.21795 0.08500
C 	C 	0.84742 0.25128 0.38921 0.10500
C 	C 	0.88058 0.18601 0.42167 0.08200
C 	C 	0.76329 0.16275 0.42587 0.08600
N 	N 	0.88376 0.17165 0.18063 -0.09400
N 	N 	0.82722 0.14223 0.28130 -0.13200
N 	N 	0.90220 0.29075 0.32872 -0.09600
N 	N 	0.83940 0.26591 0.42180 -0.10300
N 	N 	0.77168 0.21446 0.33203 -0.10400
N 	N 	0.73945 0.15857 0.42784 -0.09800
N 	N 	0.87026 0.14237 0.52706 -0.09800
N 	N 	0.90432 0.19081 0.42097 -0.14400
C 	C 	0.99353 0.06489 0.55863 -0.03600
C 	C 	0.97081 0.04640 0.56461 0.02200
C 	C 	0.97610 0.01816 0.57489 -0.03400
C 	C 	0.00359 0.00745 0.56953 0.02600
C 	C 	0.02559 0.02490 0.55288 -0.07600
C 	C 	0.02096 0.05411 0.55178 0.01300
C 	C 	0.94225 0.05494 0.54931 0.02400
C 	C 	0.95308 0.99984 0.58817 0.10300
C 	C 	0.04389 0.07280 0.54004 0.07600
C 	C 	0.93422 0.04987 0.49961 -0.04000
C 	C 	0.90612 0.05343 0.48666 0.02000
C 	C 	0.88653 0.06513 0.52192 -0.07800
C 	C 	0.89525 0.07274 0.57052 0.02900
C 	C 	0.92289 0.06707 0.58447 -0.03700
C 	C 	0.95519 0.04245 0.46131 0.09700
C 	C 	0.87623 0.08739 0.60554 0.10100
C 	C 	0.89724 0.04452 0.43735 0.05700
C 	C 	0.93162 0.07498 0.63422 0.11000
C 	C 	0.98856 0.09482 0.55817 0.10400
C 	C 	0.00889 0.97813 0.57785 0.09600
N 	N 	0.89012 0.03747 0.39802 -0.16000
N 	N 	0.97194 0.03673 0.43067 -0.13000
N 	N 	0.86107 0.09909 0.63348 -0.09300
N 	N 	0.93820 0.08162 0.67405 -0.09000
N 	N 	0.93469 0.98520 0.59868 -0.10500
N 	N 	0.01294 0.95468 0.58452 -0.09700
N 	N 	0.06202 0.08796 0.53062 -0.10200
N 	N 	0.98452 0.11872 0.55793 -0.10200
C 	C 	0.70279 0.00603 0.61963 -0.03400
C 	C 	0.68113 0.00839 0.58545 0.02500
C 	C 	0.67340 0.03543 0.57074 -0.03300
C 	C 	0.69035 0.05851 0.58368 0.02200
C 	C 	0.71729 0.05375 0.60142 -0.06000
C 	C 	0.72225 0.02814 0.62498 0.02000
C 	C 	0.67089 0.98285 0.55753 0.01400
C 	C 	0.64969 0.03914 0.53916 0.10600
C 	C 	0.74798 0.02371 0.65080 0.10600
C 	C 	0.64220 0.97606 0.55890 -0.02600
C 	C 	0.63092 0.95959 0.51969 -0.00600
C 	C 	0.64918 0.94591 0.48393 -0.01700
C 	C 	0.67836 0.94747 0.49059 -0.00500
C 	C 	0.68924 0.96740 0.52470 -0.02400
C 	C 	0.62438 0.98623 0.60022 0.09700
C 	C 	0.69706 0.92786 0.46397 0.09500
C 	C 	0.60082 0.95803 0.51499 0.09700
C 	C 	0.71920 0.97183 0.52603 0.10000
C 	C 	0.70577 0.98059 0.64696 0.10300
C 	C 	0.68134 0.08681 0.57460 0.09800
N 	N 	0.57678 0.95683 0.51132 -0.10700
N 	N 	0.61017 0.99438 0.63323 -0.10700
N 	N 	0.71203 0.91225 0.44279 -0.10400
N 	N 	0.74314 0.97517 0.52717 -0.09600
N 	N 	0.63077 0.04211 0.51392 -0.10500
N 	N 	0.67414 0.10943 0.56735 -0.09600
N 	N 	0.76862 0.02006 0.67114 -0.09900
N 	N 	0.70815 0.96026 0.66879 -0.10500
C 	C 	0.06232 0.03502 0.69548 -0.03400
C 	C 	0.08550 0.01670 0.69171 0.02200
C 	C 	0.08101 0.98781 0.68251 -0.03700
C 	C 	0.05375 0.97666 0.68752 0.02400
C 	C 	0.03077 0.99482 0.69741 -0.07700
C 	C 	0.03495 0.02399 0.69466 0.02000
C 	C 	0.11427 0.02726 0.70273 0.02300
C 	C 	0.10446 0.96960 0.66895 0.10000
C 	C 	0.01122 0.04267 0.69358 0.08000
C 	C 	0.12577 0.02285 0.74973 -0.04000
C 	C 	0.15333 0.03168 0.75942 0.02100
C 	C 	0.16968 0.04446 0.72180 -0.07800
C 	C 	0.15827 0.04841 0.67449 0.03000
C 	C 	0.13021 0.04107 0.66594 -0.03700
C 	C 	0.10908 0.00958 0.78831 0.09600
C 	C 	0.17529 0.06007 0.63460 0.10300
C 	C 	0.16499 0.02726 0.80787 0.04900
C 	C 	0.11708 0.04984 0.62116 0.10400
C 	C 	0.06657 0.06492 0.70303 0.10300
C 	C 	0.04951 0.94660 0.68467 0.10000
N 	N 	0.17429 0.02376 0.84653 -0.14500
N 	N 	0.09575 0.99896 0.81904 -0.13000
N 	N 	0.18884 0.06932 0.60271 -0.09100
N 	N 	0.10650 0.05718 0.58569 -0.10300
N 	N 	0.12320 0.95509 0.65809 -0.09900
N 	N 	0.04621 0.92258 0.68251 -0.09000
N 	N 	0.99239 0.05780 0.69274 -0.09600
N 	N 	0.06997 0.08879 0.70909 -0.10700
C 	C 	0.95117 0.09686 0.88810 -0.04300
C 	C 	0.97967 0.10375 0.89255 0.02600
C 	C 	0.00023 0.08790 0.86562 -0.04900
C 	C 	0.99262 0.06350 0.83860 0.02900
C 	C 	0.96411 0.05734 0.83197 -0.11400
C 	C 	0.94337 0.07342 0.85829 0.03800
C 	C 	0.98836 0.12551 0.92991 0.01800
C 	C 	0.02923 0.09683 0.86561 0.09700
C 	C 	0.91439 0.06444 0.85816 0.09000
C 	C 	0.99595 0.11752 0.97785 -0.03900
C 	C 	0.01042 0.13650 0.00901 0.01700
C 	C 	0.01866 0.16269 0.99092 -0.10000
C 	C 	0.00788 0.17197 0.94598 0.01900
C 	C 	0.99260 0.15334 0.91545 -0.04200
C 	C 	0.99077 0.08915 0.99330 0.10000
C 	C 	0.01253 0.20063 0.93137 0.08200
C 	C 	0.01748 0.12886 0.05901 0.07900
C 	C 	0.98213 0.16239 0.86842 0.10300
C 	C 	0.92994 0.11396 0.91407 0.11300
C 	C 	0.01397 0.04338 0.82261 -0.00100
N 	N 	0.02312 0.12276 0.09889 -0.10000
N 	N 	0.98666 0.06641 0.00526 -0.11600
N 	N 	0.01625 0.22351 0.91978 -0.09600
N 	N 	0.97376 0.16958 0.83087 -0.10100
N 	N 	0.05236 0.10399 0.86549 -0.14900
N 	N 	0.03128 0.02741 0.81064 -0.15400
N 	N 	0.89128 0.05722 0.85836 -0.09300
N 	N 	0.91303 0.12764 0.93479 -0.09700
C 	C 	0.81811 0.02148 0.78190 -0.03100
C 	C 	0.80112 0.99727 0.77969 0.02700
C 	C 	0.80704 0.97650 0.74212 -0.03200
C 	C 	0.83361 0.97605 0.71762 0.02000
C 	C 	0.85316 0.99710 0.72941 -0.06000
C 	C 	0.84332 0.02196 0.75335 0.02400
C 	C 	0.78261 0.99019 0.82341 0.01400
C 	C 	0.78662 0.95492 0.73120 0.10600
C 	C 	0.85972 0.04737 0.75023 0.10000
C 	C 	0.75594 0.00262 0.83043 -0.02300
C 	C 	0.73816 0.99454 0.87035 -0.00600
C 	C 	0.74578 0.97202 0.90016 -0.01600
C 	C 	0.77270 0.95998 0.89365 -0.00500
C 	C 	0.79155 0.97017 0.85716 -0.02400
C 	C 	0.74685 0.02386 0.79706 0.10300
C 	C 	0.78061 0.93634 0.92283 0.09700
C 	C 	0.71243 0.00986 0.88163 0.09800
C 	C 	0.82019 0.96012 0.85426 0.10100
C 	C 	0.81087 0.04464 0.81609 0.11000
C 	C 	0.84151 0.95312 0.68342 0.09600
N 	N 	0.69190 0.02207 0.89064 -0.10500
N 	N 	0.73950 0.04093 0.77074 -0.10100
N 	N 	0.78692 0.91748 0.94610 -0.10300
N 	N 	0.84305 0.95215 0.85182 -0.09600
N 	N 	0.77027 0.93768 0.72251 -0.10300
N 	N 	0.84784 0.93479 0.65608 -0.09500
N 	N 	0.87282 0.06769 0.74750 -0.08900
N 	N 	0.80510 0.06314 0.84344 -0.10000
C 	C 	0.04455 0.65202 0.37224 -0.04800
C 	C 	0.02609 0.62884 0.36891 0.10700
C 	C 	0.03711 0.60159 0.36565 -0.08400
C 	C 	0.06585 0.59701 0.37032 -0.00300
C 	C 	0.08440 0.62016 0.37213 0.07400
C 	C 	0.07351 0.64749 0.37222 -0.05000
N 	N 	0.99785 0.63252 0.37111 -0.19800
H 	H 	0.02304 0.58379 0.36329 0.06100
C 	C 	0.07560 0.56831 0.38002 -0.00300
N 	N 	0.11251 0.61634 0.37485 -0.19400
H 	H 	0.08757 0.66530 0.37436 0.05400
C 	C 	0.08781 0.55194 0.34084 -0.08600
C 	C 	0.09460 0.52373 0.34771 0.10700
C 	C 	0.08568 0.51085 0.39228 -0.04900
C 	C 	0.07459 0.52755 0.43218 -0.05100
C 	C 	0.07035 0.55636 0.42697 0.07300
H 	H 	0.09273 0.56137 0.30541 0.06100
N 	N 	0.11093 0.50968 0.31289 -0.19900
H 	H 	0.06870 0.51804 0.46710 0.05500
N 	N 	0.06117 0.57241 0.46703 -0.19400
H 	H 	0.11587 0.51864 0.27872 0.09700
H 	H 	0.12070 0.49088 0.32102 0.10600
H 	H 	0.05637 0.56324 0.50107 0.08800
H 	H 	0.05973 0.59419 0.46539 0.09200
H 	H 	0.12596 0.63358 0.37679 0.09200
H 	H 	0.12133 0.59634 0.37477 0.09300
H 	H 	0.98888 0.65226 0.37783 0.10200
H 	H 	0.98445 0.61531 0.36753 0.09600
C 	C 	0.03530 0.64559 0.85343 -0.04600
C 	C 	0.04734 0.62402 0.82217 0.10600
C 	C 	0.03897 0.59619 0.82853 -0.08400
C 	C 	0.02098 0.58917 0.86835 -0.00400
C 	C 	0.00966 0.61057 0.90075 0.07500
C 	C 	0.01663 0.63867 0.89243 -0.05000
N 	N 	0.06787 0.62969 0.78775 -0.19800
H 	H 	0.04772 0.57969 0.80404 0.05900
C 	C 	0.01606 0.55918 0.87778 -0.00300
N 	N 	0.99206 0.60433 0.93958 -0.19400
H 	H 	0.00769 0.65518 0.91666 0.05800
C 	C 	0.03674 0.54419 0.90159 -0.08400
C 	C 	0.03728 0.51477 0.89847 0.10700
C 	C 	0.01587 0.50020 0.87292 -0.04800
C 	C 	0.99352 0.51521 0.85409 -0.04900
C 	C 	0.99350 0.54463 0.85589 0.07300
H 	H 	0.05354 0.55549 0.91968 0.06200
N 	N 	0.05887 0.50082 0.91846 -0.19900
H 	H 	0.97673 0.50396 0.83586 0.05300
N 	N 	0.97201 0.55874 0.83597 -0.19400
H 	H 	0.07454 0.51186 0.93711 0.09600
H 	H 	0.06051 0.47903 0.91557 0.10400
H 	H 	0.95578 0.54781 0.81873 0.09100
H 	H 	0.97085 0.58058 0.83839 0.09300
H 	H 	0.98392 0.62028 0.96342 0.09500
H 	H 	0.98613 0.58372 0.94636 0.09600
H 	H 	0.07789 0.64911 0.78747 0.09800
H 	H 	0.07537 0.61393 0.76289 0.09000
C 	C 	0.04925 0.72419 0.74343 -0.04500
C 	C 	0.06668 0.71403 0.70332 0.10500
C 	C 	0.05983 0.71985 0.65418 -0.08300
C 	C 	0.03629 0.73612 0.64463 -0.00400
C 	C 	0.02058 0.74867 0.68497 0.07700
C 	C 	0.02709 0.74235 0.73413 -0.04900
N 	N 	0.08986 0.69856 0.71172 -0.19900
H 	H 	0.07237 0.71099 0.62321 0.05900
C 	C 	0.02644 0.73697 0.59275 -0.00400
N 	N 	0.99933 0.76673 0.67678 -0.19400
H 	H 	0.01428 0.75082 0.76509 0.06000
C 	C 	0.00524 0.71847 0.57781 -0.08300
C 	C 	0.99993 0.71376 0.52701 0.10500
C 	C 	0.01658 0.72735 0.49069 -0.04500
C 	C 	0.03560 0.74811 0.50581 -0.05000
C 	C 	0.04057 0.75321 0.55672 0.07800
H 	H 	0.99362 0.70688 0.60566 0.05900
N 	N 	0.97909 0.69596 0.51329 -0.19900
H 	H 	0.04760 0.75930 0.47789 0.06100
N 	N 	0.05899 0.77352 0.57070 -0.19400
H 	H 	0.96750 0.68521 0.54020 0.09200
H 	H 	0.97358 0.69337 0.47602 0.09800
H 	H 	0.07001 0.78484 0.54383 0.09900
H 	H 	0.06185 0.77889 0.60827 0.10000
H 	H 	0.98736 0.77534 0.70670 0.09800
H 	H 	0.99507 0.77307 0.64090 0.09900
H 	H 	0.09652 0.69546 0.74784 0.09600
H 	H 	0.10205 0.69023 0.68183 0.09100
C 	C 	0.11267 0.09398 0.16365 -0.03800
C 	C 	0.10271 0.07010 0.13715 0.02600
C 	C 	0.09383 0.07265 0.08777 -0.04100
C 	C 	0.09323 0.09913 0.06625 0.02400
C 	C 	0.10482 0.12273 0.09142 -0.08300
C 	C 	0.11559 0.11977 0.13953 0.03000
C 	C 	0.10144 0.04210 0.16093 0.02100
C 	C 	0.08559 0.04791 0.05884 0.09800
C 	C 	0.13202 0.14212 0.16196 0.09900
C 	C 	0.07527 0.02898 0.16873 -0.03900
C 	C 	0.07370 0.99942 0.16816 0.02200
C 	C 	0.09837 0.98345 0.16131 -0.08000
C 	C 	0.12423 0.99679 0.16876 0.01600
C 	C 	0.12612 0.02618 0.16547 -0.03400
C 	C 	0.04997 0.04569 0.17164 0.10600
C 	C 	0.14895 0.98026 0.17700 0.08500
C 	C 	0.04684 0.98548 0.17194 0.08800
C 	C 	0.15329 0.03956 0.16197 0.10500
C 	C 	0.12064 0.09177 0.21507 0.10700
C 	C 	0.08058 0.10205 0.01819 0.02800
N 	N 	0.02537 0.97435 0.17494 -0.09900
N 	N 	0.02985 0.05918 0.17367 -0.10400
N 	N 	0.16874 0.96712 0.18371 -0.09500
N 	N 	0.17500 0.05022 0.15911 -0.10400
N 	N 	0.07899 0.02818 0.03583 -0.13600
N 	N 	0.07046 0.10414 0.97984 -0.17500
N 	N 	0.14524 0.15993 0.17976 -0.09000
N 	N 	0.12712 0.08973 0.25601 -0.10300
C 	C 	0.01572 0.86100 0.96051 -0.04000
C 	C 	0.01103 0.88122 0.92444 0.02600
C 	C 	0.02480 0.90729 0.92789 -0.05000
C 	C 	0.03962 0.91462 0.97063 0.02700
C 	C 	0.04698 0.89382 0.00379 -0.08800
C 	C 	0.03424 0.86702 0.99966 0.03600
C 	C 	0.98905 0.87683 0.88671 0.01800
C 	C 	0.02643 0.92506 0.88525 0.06600
C 	C 	0.04008 0.84575 0.03530 0.09700
C 	C 	0.96154 0.88590 0.89872 -0.04200
C 	C 	0.94588 0.89852 0.86188 0.02000
C 	C 	0.95869 0.90352 0.81517 -0.08200
C 	C 	0.98182 0.88691 0.79968 0.01700
C 	C 	0.99711 0.87312 0.83590 -0.03800
C 	C 	0.95080 0.88523 0.94967 0.10100
C 	C 	0.99009 0.88466 0.74740 0.09400
C 	C 	0.91766 0.90827 0.87297 0.08900
C 	C 	0.02235 0.85772 0.82188 0.10400
C 	C 	0.00204 0.83393 0.95672 0.11100
C 	C 	0.04707 0.94365 0.98081 0.01900
N 	N 	0.89509 0.91605 0.88190 -0.09400
N 	N 	0.94218 0.88482 0.99039 -0.09900
N 	N 	0.99659 0.88277 0.70554 -0.09200
N 	N 	0.04254 0.84542 0.81069 -0.10400
N 	N 	0.02812 0.93908 0.85096 -0.18700
N 	N 	0.05289 0.96688 0.98883 -0.15700
N 	N 	0.04473 0.82874 0.06369 -0.09400
N 	N 	0.99111 0.81232 0.95370 -0.10400
C 	C 	0.23175 0.94169 0.98760 -0.03900
C 	C 	0.22530 0.96779 0.96783 0.02100
C 	C 	0.20366 0.98428 0.99003 -0.04700
C 	C 	0.18535 0.97275 0.02586 0.01600
C 	C 	0.18993 0.94531 0.04215 -0.10100
C 	C 	0.21418 0.93045 0.02504 0.02800
C 	C 	0.23862 0.97628 0.91982 0.02000
C 	C 	0.19979 0.01287 0.97481 0.08800
C 	C 	0.22025 0.90307 0.04398 0.09200
C 	C 	0.22544 0.96964 0.87455 -0.04500
C 	C 	0.23434 0.98258 0.83043 0.02500
C 	C 	0.25669 0.00190 0.83150 -0.12000
C 	C 	0.27152 0.00645 0.87579 0.01600
C 	C 	0.26246 0.99364 0.91997 -0.04800
C 	C 	0.20217 0.95014 0.87385 0.09600
C 	C 	0.29611 0.02428 0.87583 0.06200
C 	C 	0.21975 0.97698 0.78446 0.07800
C 	C 	0.27728 0.99870 0.96580 0.09900
C 	C 	0.25609 0.92619 0.96861 0.10400
C 	C 	0.16084 0.98842 0.04327 -0.00800
N 	N 	0.20810 0.97254 0.74781 -0.09500
N 	N 	0.18359 0.93459 0.87338 -0.12000
N 	N 	0.31572 0.03850 0.87592 -0.10000
N 	N 	0.28908 0.00271 0.00241 -0.11100
N 	N 	0.19674 0.03569 0.96266 -0.14200
N 	N 	0.14125 0.00113 0.05640 -0.15200
N 	N 	0.22512 0.88121 0.05905 -0.09300
N 	N 	0.27552 0.91384 0.95343 -0.10900
C 	C 	0.15250 0.77532 0.04245 -0.03300
C 	C 	0.12430 0.76660 0.04269 0.02200
C 	C 	0.10631 0.77552 0.08268 -0.03400
C 	C 	0.11426 0.79833 0.11398 0.01800
C 	C 	0.14003 0.81182 0.10448 -0.06300
C 	C 	0.16065 0.79704 0.07586 0.02000
C 	C 	0.11228 0.75366 0.99662 0.01700
C 	C 	0.07937 0.76214 0.08989 0.10500
C 	C 	0.18954 0.80604 0.07731 0.09400
C 	C 	0.11559 0.72478 0.98543 -0.02400
C 	C 	0.10399 0.71282 0.94194 -0.00600
C 	C 	0.08548 0.72870 0.91375 -0.01700
C 	C 	0.08193 0.75763 0.92546 -0.00500
C 	C 	0.09697 0.77036 0.96455 -0.02600
C 	C 	0.13056 0.70732 0.01894 0.09500
C 	C 	0.06192 0.77401 0.89907 0.09800
C 	C 	0.11202 0.68470 0.92503 0.09400
C 	C 	0.09735 0.80065 0.97102 0.10200
C 	C 	0.17244 0.76333 0.00606 0.10000
C 	C 	0.09550 0.80883 0.15362 0.10000
N 	N 	0.11842 0.66226 0.91151 -0.10900
N 	N 	0.14251 0.69341 0.04572 -0.10700
N 	N 	0.04596 0.78709 0.87804 -0.10300
N 	N 	0.09778 0.82482 0.97612 -0.10500
N 	N 	0.05787 0.75138 0.09556 -0.10200
N 	N 	0.08047 0.81720 0.18528 -0.09400
N 	N 	0.21264 0.81322 0.07849 -0.09600
N 	N 	0.18836 0.75374 0.97698 -0.10400
C 	C 	0.94289 0.09707 0.11392 -0.03700
C 	C 	0.94731 0.07585 0.14833 0.02400
C 	C 	0.96229 0.08215 0.19183 -0.03800
C 	C 	0.96982 0.11008 0.20365 0.02200
C 	C 	0.96118 0.13190 0.17341 -0.08000
C 	C 	0.94994 0.12518 0.12643 0.03000
C 	C 	0.93227 0.04842 0.14332 0.02200
C 	C 	0.96825 0.06016 0.22607 0.09800
C 	C 	0.94525 0.14707 0.09145 0.09700
C 	C 	0.94715 0.02374 0.12902 -0.03800
C 	C 	0.93536 0.99723 0.13861 0.02600
C 	C 	0.90876 0.99548 0.16267 -0.07900
C 	C 	0.89254 0.02001 0.17060 0.02000
C 	C 	0.90424 0.04645 0.16076 -0.04000
C 	C 	0.97507 0.02560 0.10691 0.10600
C 	C 	0.86440 0.01817 0.19191 0.04800
C 	C 	0.95110 0.97190 0.12586 0.09200
C 	C 	0.88799 0.07174 0.17119 0.09100
C 	C 	0.92954 0.09024 0.06725 0.10600
C 	C 	0.98494 0.11663 0.24863 0.03900
N 	N 	0.96368 0.95169 0.11567 -0.09700
N 	N 	0.99740 0.02690 0.08933 -0.10500
N 	N 	0.84201 0.01679 0.20916 -0.14200
N 	N 	0.87507 0.09194 0.17952 -0.11300
N 	N 	0.97298 0.04260 0.25334 -0.11600
N 	N 	0.99688 0.12185 0.28466 -0.14800
N 	N 	0.94155 0.16452 0.06344 -0.09200
N 	N 	0.91884 0.08473 0.03005 -0.10600
C 	C 	0.78236 0.96626 0.25476 -0.06300
C 	C 	0.77666 0.94992 0.29686 0.00500
C 	C 	0.77679 0.92042 0.29066 -0.04600
C 	C 	0.78967 0.90805 0.24732 0.02000
C 	C 	0.80313 0.92535 0.21262 -0.10000
C 	C 	0.79439 0.95331 0.21128 -0.00100
C 	C 	0.77766 0.96321 0.34794 0.01300
C 	C 	0.76706 0.90317 0.33103 0.10100
C 	C 	0.79913 0.96886 0.16645 0.07200
C 	C 	0.75531 0.98006 0.36663 -0.04200
C 	C 	0.75971 0.99965 0.40618 0.02400
C 	C 	0.78639 0.00192 0.42732 -0.10900
C 	C 	0.80753 0.98256 0.41280 0.00700
C 	C 	0.80269 0.96237 0.37458 -0.05800
C 	C 	0.72786 0.97700 0.34560 0.09900
C 	C 	0.83430 0.98357 0.43690 0.03400
C 	C 	0.73683 0.01719 0.42548 0.08000
C 	C 	0.82232 0.93955 0.36529 0.01100
C 	C 	0.77774 0.99627 0.25748 0.07100
C 	C 	0.79190 0.87789 0.24115 0.08600
N 	N 	0.71856 0.03114 0.44098 -0.09900
N 	N 	0.70592 0.97458 0.32889 -0.11400
N 	N 	0.85565 0.98436 0.45616 -0.11000
N 	N 	0.83787 0.92117 0.35823 -0.14200
N 	N 	0.75951 0.88941 0.36347 -0.10600
N 	N 	0.79371 0.85377 0.23620 -0.09700
N 	N 	0.80287 0.98125 0.13051 -0.10300
N 	N 	0.77403 0.02025 0.25969 -0.12800
C 	C 	0.03247 0.90837 0.37656 -0.04400
C 	C 	0.01103 0.90512 0.41315 0.02000
C 	C 	0.01785 0.90537 0.46392 -0.03900
C 	C 	0.04475 0.91400 0.47807 0.02600
C 	C 	0.06363 0.92436 0.44169 -0.09000
C 	C 	0.05904 0.91770 0.39102 0.01000
C 	C 	0.98135 0.90678 0.39871 0.02300
C 	C 	0.99697 0.89784 0.50134 0.10800
C 	C 	0.08166 0.92007 0.35424 0.07800
C 	C 	0.96801 0.88286 0.37863 -0.03700
C 	C 	0.94584 0.88606 0.34583 0.03100
C 	C 	0.93723 0.91324 0.33369 -0.08100
C 	C 	0.94715 0.93670 0.36107 0.02100
C 	C 	0.96881 0.93328 0.39477 -0.04000
C 	C 	0.97742 0.85518 0.39112 0.10800
C 	C 	0.93574 0.96431 0.35337 0.05700
C 	C 	0.93199 0.86162 0.32451 0.09200
C 	C 	0.97854 0.95687 0.42488 0.08600
C 	C 	0.02668 0.90360 0.32421 0.09700
C 	C 	0.05383 0.90975 0.52827 0.10200
N 	N 	0.92094 0.84210 0.30752 -0.10000
N 	N 	0.98493 0.83308 0.40121 -0.10600
N 	N 	0.92664 0.98635 0.34719 -0.12600
N 	N 	0.98637 0.97559 0.44917 -0.12300
N 	N 	0.98028 0.89184 0.53121 -0.10100
N 	N 	0.06113 0.90626 0.56834 -0.09100
N 	N 	0.09971 0.92197 0.32486 -0.09900
N 	N 	0.02202 0.89979 0.28244 -0.09900
C 	C 	0.95414 0.79594 0.17214 -0.03400
C 	C 	0.94514 0.78028 0.21339 0.02500
C 	C 	0.91651 0.78040 0.22793 -0.03400
C 	C 	0.89789 0.79820 0.20440 0.02200
C 	C 	0.90852 0.81907 0.17310 -0.06100
C 	C 	0.93583 0.81559 0.15205 0.01900
C 	C 	0.96580 0.76439 0.24242 0.01500
C 	C 	0.90655 0.76344 0.26864 0.10600
C 	C 	0.94444 0.83067 0.10824 0.10300
C 	C 	0.98407 0.77882 0.27479 -0.02300
C 	C 	0.99993 0.76378 0.30851 -0.00400
C 	C 	0.99597 0.73456 0.31254 -0.01600
C 	C 	0.97899 0.72000 0.27780 -0.00500
C 	C 	0.96538 0.73486 0.24095 -0.02500
C 	C 	0.98698 0.80901 0.27266 0.10500
C 	C 	0.97454 0.69005 0.28104 0.09400
C 	C 	0.02103 0.77814 0.33757 0.10100
C 	C 	0.95070 0.71983 0.20180 0.09800
C 	C 	0.98214 0.79203 0.15091 0.10600
C 	C 	0.86796 0.79537 0.21274 0.10000
N 	N 	0.03788 0.78957 0.36075 -0.10300
N 	N 	0.98940 0.83308 0.27072 -0.10100
N 	N 	0.97088 0.66615 0.28326 -0.11000
N 	N 	0.93896 0.70786 0.17054 -0.10700
N 	N 	0.89862 0.74991 0.30114 -0.10600
N 	N 	0.84405 0.79312 0.21939 -0.09600
N 	N 	0.95145 0.84263 0.07321 -0.09300
N 	N 	0.00451 0.78890 0.13403 -0.09700
