data_crystal

_cell_length_a 21.52560
_cell_length_b 18.45094
_cell_length_c 53.89166
_cell_angle_alpha 90.67187
_cell_angle_beta  91.53612
_cell_angle_gamma 110.96040

_symmetry_space_group_name_	'P 1'
_symmetry_space_group_name_H-M	'P 1'

loop_
_symmetry_equiv_pos_as_xyz
  x,y,z

loop_
_atom_site_label
_atom_site_type_symbol
_atom_site_fract_x
_atom_site_fract_y
_atom_site_fract_z
_atom_site_charge
Ni	Ni	0.04634 0.92051 0.67840 1.12900
O 	O 	0.08130 0.00959 0.73973 -0.27200
O 	O 	0.06929 0.82556 0.66960 -0.28400
O 	O 	0.01466 0.00819 0.68878 -0.65600
O 	O 	0.10367 0.98272 0.65046 -0.30800
O 	O 	0.15417 0.08798 0.67642 -0.30700
Ni	Ni	0.07499 0.11615 0.68926 1.10600
H 	H 	0.03766 0.86901 0.72154 0.27300
O 	O 	0.11459 0.13144 0.72456 -0.34100
C 	C 	0.12815 0.07713 0.73649 0.32000
C 	C 	0.15043 0.05127 0.65496 0.31000
O 	O 	0.18682 0.65685 0.38090 -0.30200
O 	O 	0.20631 0.56279 0.46469 -0.37100
O 	O 	0.15764 0.58281 0.42789 -0.34600
C 	C 	0.15350 0.54746 0.44945 0.29500
O 	O 	0.11553 0.64668 0.98735 -0.32900
O 	O 	0.17619 0.75454 0.02836 -0.29400
C 	C 	0.09479 0.58642 0.97154 0.30000
C 	C 	0.20785 0.82892 0.03327 0.30600
O 	O 	0.19578 0.61001 0.02656 -0.36700
O 	O 	0.13730 0.56801 0.95772 -0.36500
O 	O 	0.09157 0.12675 0.24819 -0.30300
Ni	Ni	0.05749 0.17460 0.21832 1.10900
O 	O 	0.10847 0.12599 0.19569 -0.26700
C 	C 	0.08392 0.08349 0.17550 0.28700
C 	C 	0.05610 0.10282 0.26802 0.28100
O 	O 	0.03728 0.24539 0.19244 -0.29000
C 	C 	0.05341 0.37111 0.06078 0.03900
C 	C 	0.05388 0.41039 0.08325 0.09900
C 	C 	0.07705 0.49258 0.08401 -0.09800
C 	C 	0.10794 0.53350 0.06316 0.07400
C 	C 	0.11198 0.49393 0.04112 0.00100
C 	C 	0.07621 0.41243 0.03907 -0.06400
C 	C 	0.03913 0.36565 0.10643 0.11800
C 	C 	0.07516 0.53714 0.10770 0.78900
H 	H 	0.13053 0.59622 0.06433 0.10600
C 	C 	0.05864 0.36957 0.01414 0.78000
H 	H 	0.03533 0.30820 0.06023 0.14300
C 	C 	0.08175 0.32328 0.14384 -0.05900
C 	C 	0.09245 0.36399 0.12151 0.03800
C 	C 	0.14126 0.33156 0.16105 0.78400
H 	H 	0.14270 0.39564 0.11586 0.13400
F 	F 	0.00277 0.30285 0.01575 -0.37300
F 	F 	0.11089 0.34833 0.00677 -0.40000
F 	F 	0.04435 0.41505 0.99628 -0.44100
F 	F 	0.12821 0.54067 0.12332 -0.38800
F 	F 	0.01643 0.50177 0.11979 -0.36000
F 	F 	0.07950 0.61215 0.10260 -0.37900
F 	F 	0.20096 0.37306 0.15033 -0.37400
F 	F 	0.14305 0.25956 0.16666 -0.43900
F 	F 	0.13752 0.37088 0.18264 -0.38300
C 	C 	0.12757 0.91007 0.08291 0.03400
C 	C 	0.18261 0.94690 0.09896 0.10400
C 	C 	0.24456 0.93926 0.09449 -0.09000
C 	C 	0.19647 0.86416 0.05654 0.00100
C 	C 	0.13428 0.87079 0.06120 -0.04100
C 	C 	0.17426 0.99258 0.12057 0.06700
C 	C 	0.07478 0.83460 0.04344 0.77800
H 	H 	0.07978 0.91346 0.08720 0.13300
C 	C 	0.17078 0.06723 0.11757 -0.06100
C 	C 	0.14678 0.10037 0.13698 0.07100
C 	C 	0.12990 0.06233 0.15959 0.06400
C 	C 	0.14513 0.99476 0.16391 -0.09500
C 	C 	0.16279 0.95784 0.14381 0.06400
C 	C 	0.18570 0.10811 0.09293 0.78200
H 	H 	0.13635 0.15284 0.13385 0.13100
C 	C 	0.13864 0.95817 0.18918 0.76600
H 	H 	0.16589 0.90090 0.14609 0.13800
F 	F 	0.02166 0.85613 0.04959 -0.36800
F 	F 	0.05430 0.75459 0.04422 -0.39200
F 	F 	0.09163 0.85811 0.01947 -0.39300
F 	F 	0.29198 0.92956 0.13398 -0.37300
F 	F 	0.18595 0.92406 0.19255 -0.35800
F 	F 	0.19772 0.18667 0.09590 -0.38400
F 	F 	0.13183 0.07633 0.07658 -0.39000
C 	C 	0.16422 0.17336 0.32603 0.04300
C 	C 	0.14614 0.23615 0.33319 0.09800
C 	C 	0.09529 0.25216 0.31966 -0.09200
C 	C 	0.06231 0.20300 0.29957 0.07400
C 	C 	0.08140 0.14129 0.29211 0.02100
C 	C 	0.13137 0.12454 0.30585 -0.05100
C 	C 	0.18345 0.28755 0.35400 0.09500
C 	C 	0.08040 0.32533 0.32517 0.78700
H 	H 	0.02399 0.21499 0.28880 0.08900
C 	C 	0.15306 0.05820 0.29796 0.79600
H 	H 	0.20472 0.16343 0.33602 0.13000
C 	C 	0.15935 0.27683 0.37834 -0.10000
C 	C 	0.18312 0.33904 0.39560 0.08400
C 	C 	0.10736 0.20038 0.38565 0.78900
H 	H 	0.15979 0.33536 0.41334 0.09300
F 	F 	0.19122 0.04102 0.31644 -0.35900
F 	F 	0.19038 0.07840 0.27694 -0.36000
F 	F 	0.06456 0.32819 0.34975 -0.39800
F 	F 	0.02733 0.32839 0.31068 -0.39300
F 	F 	0.09796 0.19794 0.41099 -0.39600
F 	F 	0.12751 0.13963 0.37920 -0.39700
F 	F 	0.04717 0.19001 0.37361 -0.37700
C 	C 	0.08147 0.74247 0.27504 0.07700
C 	C 	0.11194 0.81445 0.26355 -0.05900
C 	C 	0.07453 0.83907 0.24615 0.07500
C 	C 	0.10616 0.72759 0.29957 0.11000
C 	C 	0.18282 0.86622 0.27064 0.78600
H 	H 	0.09276 0.89864 0.24019 0.14000
C 	C 	0.08543 0.75314 0.32170 -0.10100
C 	C 	0.12055 0.75393 0.34412 0.09400
C 	C 	0.17294 0.72584 0.34491 0.00300
C 	C 	0.19051 0.69531 0.32307 -0.05400
C 	C 	0.15537 0.69458 0.30068 0.04100
C 	C 	0.02423 0.77604 0.32156 0.80600
H 	H 	0.10660 0.77523 0.36112 0.10400
C 	C 	0.24608 0.66277 0.32371 0.78400
H 	H 	0.16809 0.67138 0.28380 0.14500
F 	F 	0.22479 0.82484 0.26833 -0.37900
F 	F 	0.18624 0.89276 0.29491 -0.36700
F 	F 	0.20539 0.92981 0.25547 -0.34000
F 	F 	0.22749 0.59677 0.33782 -0.39300
F 	F 	0.01109 0.79669 0.34508 -0.38400
F 	F 	0.03333 0.83857 0.30638 -0.36600
C 	C 	0.03747 0.44815 0.44205 0.06000
C 	C 	0.08644 0.50025 0.45832 -0.04400
C 	C 	0.07025 0.50956 0.48291 -0.00900
S 	S 	0.05804 0.42411 0.41242 0.09400
H 	H 	0.04972 0.47475 0.39540 0.09200
H 	H 	0.10788 0.54729 0.49576 0.09800
H 	H 	0.13601 0.10813 0.61087 0.11600
F 	F 	0.15597 0.18341 0.57395 -0.36600
C 	C 	0.06377 0.69885 0.63589 0.07300
C 	C 	0.07333 0.65056 0.59261 0.78200
H 	H 	0.09994 0.75485 0.63131 0.12500
F 	F 	0.14089 0.69218 0.59558 -0.38100
F 	F 	0.06543 0.57984 0.58138 -0.38800
C 	C 	0.02331 0.55466 0.96386 0.00000
C 	C 	0.00560 0.53999 0.93855 0.02800
H 	H 	0.04385 0.55692 0.92484 0.08800
C 	C 	0.21056 0.16939 0.76551 0.09300
H 	H 	0.18533 0.20995 0.76232 0.11700
F 	F 	0.25026 0.31011 0.79025 -0.37800
F 	F 	0.04033 0.90337 0.78771 -0.38400
O 	O 	0.48475 0.24255 0.88645 -0.33100
O 	O 	0.51551 0.32703 0.93353 -0.34600
C 	C 	0.55671 0.12633 0.92638 0.30000
C 	C 	0.47986 0.18595 0.87051 0.30200
C 	C 	0.53390 0.40139 0.93902 0.27700
O 	O 	0.53523 0.18454 0.92858 -0.35100
O 	O 	0.50779 0.13467 0.87574 -0.36100
O 	O 	0.59206 0.36262 0.47892 -0.34500
O 	O 	0.56778 0.19010 0.55014 -0.29500
O 	O 	0.53535 0.24929 0.51707 -0.31700
C 	C 	0.57189 0.13655 0.47985 0.30600
C 	C 	0.52469 0.21667 0.53918 0.29200
Ni	Ni	0.24421 0.64159 0.40982 1.10900
O 	O 	0.33028 0.69258 0.39090 -0.69200
Ni	Ni	0.39932 0.68799 0.41560 1.11600
O 	O 	0.25056 0.78553 0.37888 -0.34300
O 	O 	0.24170 0.54064 0.39257 -0.30400
Ni	Ni	0.35074 0.79885 0.37989 1.11300
O 	O 	0.36624 0.84986 0.41443 -0.37300
O 	O 	0.47960 0.72847 0.39318 -0.29700
O 	O 	0.31509 0.65210 0.43601 -0.69300
O 	O 	0.45514 0.65365 0.44100 -0.34300
O 	O 	0.37646 0.53196 0.44228 -0.35900
Ni	Ni	0.29307 0.55437 0.45356 1.08800
H 	H 	0.33124 0.65993 0.37633 0.25300
H 	H 	0.31574 0.69355 0.44796 0.17800
C 	C 	0.42000 0.85559 0.42773 0.30100
O 	O 	0.23677 0.47362 0.42810 -0.37300
C 	C 	0.20526 0.72245 0.36896 0.29800
C 	C 	0.48151 0.77715 0.37505 0.29200
C 	C 	0.24459 0.47948 0.40412 0.30700
C 	C 	0.43756 0.58058 0.44716 0.28300
O 	O 	0.42940 0.79242 0.43493 -0.35500
O 	O 	0.45112 0.82777 0.37707 -0.33000
Ni	Ni	0.35492 0.69610 0.99549 1.10800
O 	O 	0.26366 0.66195 0.97789 -0.69900
Ni	Ni	0.21092 0.69773 0.00218 1.10700
O 	O 	0.38866 0.62608 0.97421 -0.35100
O 	O 	0.29929 0.51800 0.98263 -0.36100
O 	O 	0.39589 0.77993 0.96946 -0.35000
Ni	Ni	0.21941 0.55024 0.97133 1.09200
O 	O 	0.44195 0.86119 0.01606 -0.35100
O 	O 	0.17055 0.50061 0.00276 -0.30300
O 	O 	0.30507 0.74200 0.01791 -0.69400
O 	O 	0.44339 0.73757 0.01468 -0.34500
O 	O 	0.25452 0.87052 0.01864 -0.34800
Ni	Ni	0.34523 0.85496 0.01709 1.10500
H 	H 	0.26596 0.69011 0.96221 0.17700
H 	H 	0.30663 0.72408 0.03508 0.22000
C 	C 	0.15714 0.53822 0.02148 0.29800
O 	O 	0.33644 0.85520 0.97964 -0.39200
C 	C 	0.35928 0.55034 0.97385 0.27800
C 	C 	0.38119 0.84254 0.96617 0.29200
C 	C 	0.46308 0.80747 0.02513 0.30100
C 	C 	0.01520 0.27897 0.15036 0.04000
C 	C 	0.58256 0.83341 0.03338 0.08000
C 	C 	0.52136 0.83154 0.04216 -0.00400
C 	C 	0.51597 0.85125 0.06724 -0.06100
H 	H 	0.58541 0.81627 0.01427 0.08900
C 	C 	0.44979 0.84900 0.07706 0.77600
F 	F 	0.65158 0.04286 0.09804 -0.38400
F 	F 	0.40175 0.77629 0.07259 -0.45100
F 	F 	0.43040 0.90407 0.06532 -0.45000
F 	F 	0.45365 0.86434 0.10238 -0.36600
C 	C 	0.25021 0.89627 0.07353 0.08000
C 	C 	0.30350 0.97291 0.11271 0.77400
H 	H 	0.29677 0.88825 0.07017 0.08900
F 	F 	0.31314 0.04918 0.11894 -0.34800
F 	F 	0.36183 0.97189 0.10276 -0.35900
F 	F 	0.14817 0.01217 0.20825 -0.39400
F 	F 	0.24148 0.10066 0.08276 -0.37400
C 	C 	0.55466 0.78130 0.31200 -0.08600
C 	C 	0.51137 0.75907 0.33197 0.07000
C 	C 	0.53210 0.79017 0.35594 0.02200
C 	C 	0.53093 0.74602 0.28626 0.78800
H 	H 	0.46086 0.71860 0.32882 0.12300
F 	F 	0.46217 0.71290 0.28441 -0.35600
F 	F 	0.55687 0.68896 0.28139 -0.38500
C 	C 	0.23422 0.40809 0.38935 0.00700
C 	C 	0.26885 0.41004 0.36728 -0.05400
C 	C 	0.24079 0.35142 0.34910 0.04300
C 	C 	0.33477 0.47424 0.36278 0.77500
H 	H 	0.26204 0.35675 0.33090 0.12900
F 	F 	0.09811 0.99192 0.29281 -0.38500
F 	F 	0.13554 0.39005 0.32034 -0.39600
F 	F 	0.36968 0.50287 0.38488 -0.47000
F 	F 	0.32352 0.53383 0.35047 -0.39200
F 	F 	0.37408 0.44660 0.34833 -0.39700
F 	F 	0.30360 0.71736 0.33401 -0.47800
F 	F 	0.26013 0.64315 0.30020 -0.36000
C 	C 	0.54412 0.07780 0.45990 -0.06000
C 	C 	0.56916 0.01787 0.45806 0.04000
C 	C 	0.52959 0.94496 0.44825 0.02500
C 	C 	0.46469 0.93303 0.43809 -0.01800
C 	C 	0.44315 0.99670 0.43727 -0.03300
C 	C 	0.48251 0.06872 0.44809 0.08800
S 	S 	0.56153 0.86945 0.45014 0.13400
S 	S 	0.45405 0.14697 0.44678 0.10700
H 	H 	0.47817 0.18957 0.42619 0.06300
H 	H 	0.39519 0.98992 0.42873 0.08900
C 	C 	0.58458 0.48451 0.46802 -0.04800
C 	C 	0.57439 0.54099 0.48337 -0.00600
C 	C 	0.52697 0.57349 0.47661 0.04200
C 	C 	0.48953 0.54978 0.45418 -0.04600
C 	C 	0.50234 0.49670 0.43819 -0.00600
C 	C 	0.55011 0.46466 0.44484 0.04500
S 	S 	0.51297 0.64116 0.49691 0.03800
S 	S 	0.56762 0.40142 0.42374 0.03700
H 	H 	0.55620 0.71411 0.49192 0.06800
H 	H 	0.60114 0.55699 0.50111 0.09200
H 	H 	0.47512 0.48040 0.42053 0.10100
C 	C 	0.31744 0.11864 0.62412 0.04000
C 	C 	0.30165 0.14790 0.60189 0.09900
C 	C 	0.23582 0.14546 0.59707 -0.08800
C 	C 	0.18688 0.11213 0.61458 0.07800
C 	C 	0.20288 0.08336 0.63685 0.01600
C 	C 	0.26839 0.08482 0.64150 -0.05200
C 	C 	0.35287 0.17326 0.58276 0.10200
C 	C 	0.21631 0.17283 0.57257 0.78900
C 	C 	0.28614 0.05045 0.66493 0.79400
H 	H 	0.36789 0.12070 0.62752 0.13900
C 	C 	0.40592 0.24602 0.58493 -0.09800
C 	C 	0.46068 0.26086 0.56951 0.07800
C 	C 	0.46176 0.20618 0.55141 0.01600
C 	C 	0.40578 0.13695 0.54765 -0.05700
C 	C 	0.35284 0.12011 0.56396 0.03800
C 	C 	0.40762 0.30475 0.60518 0.79000
H 	H 	0.50388 0.31357 0.57229 0.09700
C 	C 	0.40436 0.07852 0.52740 0.77800
H 	H 	0.31256 0.06425 0.56271 0.13800
F 	F 	0.28498 0.09625 0.68527 -0.37500
F 	F 	0.34899 0.04622 0.66408 -0.36700
F 	F 	0.24107 0.97598 0.66788 -0.39200
F 	F 	0.21057 0.11794 0.55411 -0.38800
F 	F 	0.26348 0.24288 0.56612 -0.38200
F 	F 	0.44848 0.04222 0.53378 -0.41000
F 	F 	0.42198 0.11553 0.50513 -0.42600
F 	F 	0.34154 0.02231 0.52393 -0.39100
F 	F 	0.45188 0.37796 0.59988 -0.38600
F 	F 	0.42742 0.28240 0.62752 -0.38900
F 	F 	0.34561 0.31019 0.60757 -0.37600
F 	F 	0.04541 0.69106 0.57729 -0.38900
C 	C 	0.51382 0.04903 0.93447 -0.07200
C 	C 	0.44615 0.02072 0.92709 0.02600
C 	C 	0.40295 0.95016 0.93588 0.01200
C 	C 	0.42726 0.90743 0.95250 -0.04600
C 	C 	0.49571 0.93331 0.95865 -0.03400
C 	C 	0.53893 0.00420 0.94998 0.06600
S 	S 	0.31907 0.91483 0.92536 0.05900
H 	H 	0.31249 0.86992 0.90433 0.07300
H 	H 	0.42698 0.05404 0.91462 0.07100
H 	H 	0.51481 0.90012 0.97119 0.08300
C 	C 	0.39795 0.50179 0.96724 -0.04800
C 	C 	0.38173 0.45737 0.94512 -0.00300
C 	C 	0.42521 0.42324 0.93582 0.04300
C 	C 	0.48518 0.43236 0.94906 -0.04600
C 	C 	0.49974 0.47362 0.97178 -0.00600
C 	C 	0.45638 0.50792 0.98100 0.04800
S 	S 	0.40579 0.37334 0.90692 0.07600
S 	S 	0.47529 0.55749 0.00996 0.05200
H 	H 	0.44682 0.50680 0.02835 0.08300
H 	H 	0.43322 0.42396 0.88839 0.08600
H 	H 	0.33672 0.45232 0.93456 0.06700
C 	C 	0.27331 0.06225 0.77415 0.04500
C 	C 	0.29010 0.12951 0.78910 0.10200
C 	C 	0.26152 0.18603 0.78385 -0.08900
C 	C 	0.18959 0.09882 0.75199 0.02000
C 	C 	0.22467 0.04729 0.75501 -0.02300
C 	C 	0.33848 0.14067 0.80998 0.10100
C 	C 	0.28626 0.26447 0.79741 0.79000
C 	C 	0.20781 0.97374 0.73915 0.76700
H 	H 	0.29725 0.02063 0.77785 0.14100
C 	C 	0.31765 0.11073 0.83368 -0.10300
C 	C 	0.36501 0.12658 0.85337 0.08800
C 	C 	0.43200 0.17027 0.84958 -0.00400
C 	C 	0.45319 0.19700 0.82566 -0.06000
C 	C 	0.40599 0.18096 0.80597 0.03900
C 	C 	0.24586 0.05889 0.83765 0.80100
H 	H 	0.35009 0.10468 0.87169 0.08900
C 	C 	0.52583 0.24431 0.82133 0.77900
H 	H 	0.42129 0.20107 0.78751 0.14200
F 	F 	0.26262 0.95156 0.73753 -0.36500
F 	F 	0.18827 0.98436 0.71524 -0.42400
F 	F 	0.15706 0.91452 0.74979 -0.37300
F 	F 	0.35223 0.30390 0.79221 -0.39200
F 	F 	0.28067 0.25465 0.82275 -0.38500
F 	F 	0.56514 0.20223 0.82813 -0.48700
F 	F 	0.54506 0.31238 0.83540 -0.43100
F 	F 	0.53680 0.26360 0.79666 -0.36500
F 	F 	0.23497 0.03948 0.86231 -0.39500
F 	F 	0.23066 0.99095 0.82374 -0.40400
F 	F 	0.20308 0.09620 0.83050 -0.37100
C 	C 	0.04073 0.63957 0.61755 -0.06200
H 	H 	0.54398 0.83250 0.47217 0.05000
O 	O 	0.55986 0.11533 0.50279 -0.30700
O 	O 	0.02770 0.08216 0.16518 -0.32900
C 	C 	0.00055 0.22432 0.17149 0.31100
F 	F 	0.07637 0.90129 0.19057 -0.46000
F 	F 	0.02090 0.44766 0.61426 -0.35600
H 	H 	0.54512 0.47949 0.98222 0.06500
F 	F 	0.05133 0.79617 0.80303 -0.36000
F 	F 	0.61475 0.81491 0.40252 -0.43000
C 	C 	0.57271 0.87316 0.08308 0.03600
F 	F 	0.58610 0.91879 0.39410 -0.43600
O 	O 	0.60080 0.21019 0.47460 -0.36700
F 	F 	0.55106 0.80203 0.26836 -0.36500
H 	H 	0.61795 0.44355 0.40888 0.07200
Ni	Ni	0.56743 0.28630 0.90905 1.11100
Ni	Ni	0.60830 0.16152 0.87674 1.10800
O 	O 	0.60834 0.13286 0.91305 -0.38300
O 	O 	0.59251 0.44973 0.93261 -0.36000
Ni	Ni	0.62754 0.29724 0.50145 1.10400
C 	C 	0.62260 0.43835 0.47794 0.27100
H 	H 	0.56930 0.88744 0.10243 0.13500
C 	C 	0.59848 0.84166 0.36047 -0.06200
C 	C 	0.62252 0.87486 0.38633 0.78000
H 	H 	0.61759 0.02578 0.46645 0.06900
C 	C 	0.02240 0.75564 0.67071 0.31500
F 	F 	0.70308 0.03227 0.06306 -0.37500
O 	O 	0.63231 0.27150 0.88522 -0.69300
H 	H 	0.63166 0.30031 0.86990 0.23000
Ni	Ni	0.62934 0.15022 0.53111 1.15800
C 	C 	0.63423 0.87640 0.07424 0.09400
C 	C 	0.63971 0.85691 0.04909 -0.10400
C 	C 	0.62104 0.83302 0.31656 0.09600
S 	S 	0.62326 0.03810 0.95993 0.08300
H 	H 	0.63111 0.08125 0.98143 0.08100
C 	C 	0.71006 0.04084 0.08863 0.80400
O 	O 	0.65431 0.32653 0.92976 -0.69600
H 	H 	0.65343 0.29128 0.94356 0.18000
O 	O 	0.67706 0.47368 0.49183 -0.35100
H 	H 	0.68469 0.74180 0.30129 0.13500
C 	C 	0.64246 0.86168 0.34071 0.03700
F 	F 	0.77157 0.69928 0.28960 -0.37000
F 	F 	0.61910 0.03453 0.55107 -0.49500
F 	F 	0.76035 0.11141 0.09403 -0.36600
Ni	Ni	0.68098 0.43400 0.94269 1.09100
O 	O 	0.68319 0.25671 0.52352 -0.68700
H 	H 	0.71420 0.32455 0.46688 0.17900
H 	H 	0.69265 0.28750 0.53923 0.20300
C 	C 	0.70135 0.79662 0.29183 0.03800
C 	C 	0.67091 0.85042 0.29683 0.09800
H 	H 	0.69384 0.89919 0.34407 0.12600
F 	F 	0.76699 0.71719 0.24866 -0.35600
F 	F 	0.59383 0.95141 0.29101 -0.37200
F 	F 	0.68909 0.92209 0.38710 -0.41000
C 	C 	0.69169 0.89639 0.09192 0.09900
O 	O 	0.70666 0.16928 0.87413 -0.32600
O 	O 	0.71760 0.33832 0.48480 -0.70600
O 	O 	0.69522 0.10985 0.51351 -0.34400
C 	C 	0.72595 0.97422 0.10002 -0.10600
C 	C 	0.70511 0.85591 0.03939 0.78900
F 	F 	0.70368 0.85182 0.01370 -0.39900
C 	C 	0.78747 0.75477 0.27141 0.78400
C 	C 	0.67297 0.06915 0.56719 0.75600
F 	F 	0.69245 0.14912 0.56654 -0.50700
F 	F 	0.65294 0.04752 0.59105 -0.36200
F 	F 	0.70601 0.63299 0.81390 -0.37100
F 	F 	0.69580 0.74154 0.79928 -0.38300
C 	C 	0.03359 0.68897 0.65900 0.06600
Ni	Ni	0.72047 0.32057 0.90504 1.10700
O 	O 	0.72614 0.41733 0.88605 -0.36900
O 	O 	0.72625 0.50759 0.91489 -0.30400
H 	H 	0.67966 0.77664 0.09686 0.13100
C 	C 	0.69210 0.92263 0.28469 -0.09100
C 	C 	0.75381 0.81344 0.27530 -0.05300
C 	C 	0.66253 0.98392 0.29084 0.75800
H 	H 	0.70943 0.95682 0.58827 0.12600
H 	H 	0.71015 0.26734 0.82145 0.10800
F 	F 	0.71000 0.21323 0.76004 -0.37900
C 	C 	0.73379 0.71316 0.81474 0.78800
C 	C 	0.75185 0.23046 0.86474 0.30400
C 	C 	0.75150 0.48830 0.89505 0.30000
Ni	Ni	0.76457 0.44858 0.49047 1.09500
C 	C 	0.70738 0.83613 0.10276 0.04400
F 	F 	0.71688 0.79195 0.04836 -0.40100
F 	F 	0.75737 0.92255 0.04684 -0.37900
F 	F 	0.68653 0.01691 0.31394 -0.38300
C 	C 	0.73006 0.04382 0.56020 -0.03800
F 	F 	0.71204 0.32024 0.78082 -0.34400
H 	H 	0.79195 0.46740 0.84960 0.10200
F 	F 	0.73085 0.73953 0.83865 -0.40600
F 	F 	0.81843 0.47809 0.80729 -0.36500
F 	F 	0.80256 0.58164 0.79139 -0.36600
F 	F 	0.67908 0.04225 0.27358 -0.36400
O 	O 	0.77390 0.29686 0.87717 -0.31500
Ni	Ni	0.76805 0.28358 0.50348 1.10800
C 	C 	0.75621 0.12990 0.52278 0.29500
C 	C 	0.77147 0.98910 0.12025 0.05600
C 	C 	0.74389 0.93915 0.26773 0.07700
C 	C 	0.77378 0.88464 0.26243 0.01300
F 	F 	0.85577 0.79131 0.27238 -0.38900
C 	C 	0.74451 0.98925 0.57476 0.02000
C 	C 	0.75252 0.24934 0.81942 0.07600
C 	C 	0.75029 0.27765 0.77365 0.79000
F 	F 	0.75257 0.04941 0.71695 -0.36500
C 	C 	0.80128 0.52795 0.85387 0.07800
F 	F 	0.76449 0.66125 0.92028 -0.40200
O 	O 	0.77058 0.43412 0.95563 -0.36100
O 	O 	0.76338 0.44122 0.52836 -0.33100
H 	H 	0.79428 0.04764 0.12787 0.12000
H 	H 	0.76067 0.99424 0.25843 0.09500
C 	C 	0.77285 0.07881 0.54061 0.00100
C 	C 	0.78067 0.25163 0.79606 -0.08400
C 	C 	0.77887 0.22459 0.84034 0.00200
H 	H 	0.77657 0.11632 0.75814 0.13400
C 	C 	0.79038 0.55014 0.87797 0.00700
C 	C 	0.02229 0.68884 0.26463 0.09900
O 	O 	0.81623 0.85002 0.22477 -0.28200
C 	C 	0.75749 0.85204 0.12141 -0.06000
C 	C 	0.80580 0.73962 0.80710 -0.08600
H 	H 	0.78895 0.79497 0.77371 0.12100
C 	C 	0.82286 0.58298 0.83520 -0.09800
C 	C 	0.83712 0.55796 0.80961 0.79100
F 	F 	0.74866 0.76379 0.15394 -0.41400
O 	O 	0.80877 0.37702 0.92422 -0.34700
O 	O 	0.79881 0.20092 0.51975 -0.31500
O 	O 	0.82188 0.36043 0.53095 -0.34500
C 	C 	0.82410 0.90167 0.24283 0.31500
C 	C 	0.78672 0.92870 0.13120 0.02300
F 	F 	0.75708 0.72293 0.11520 -0.37200
H 	H 	0.81100 0.84241 0.57974 0.13700
F 	F 	0.80072 0.71882 0.59778 -0.38200
F 	F 	0.78781 0.08391 0.62152 -0.36800
F 	F 	0.81573 0.11123 0.87104 -0.39600
F 	F 	0.79922 0.32405 0.75865 -0.34600
C 	C 	0.81300 0.63056 0.88450 -0.06500
C 	C 	0.81893 0.43335 0.94103 0.30300
O 	O 	0.81423 0.91297 0.17396 -0.32000
C 	C 	0.77759 0.78661 0.13136 0.77600
C 	C 	0.80795 0.98514 0.57485 0.07500
F 	F 	0.81817 0.72394 0.63898 -0.40500
C 	C 	0.82018 0.06317 0.71720 0.79300
C 	C 	0.82550 0.78273 0.78545 0.08100
C 	C 	0.83368 0.66178 0.84088 0.09800
C 	C 	0.82986 0.68510 0.86547 0.03800
C 	C 	0.82352 0.65930 0.91137 0.78000
C 	C 	0.80623 0.41751 0.54025 0.29800
C 	C 	0.82674 0.87690 0.59674 0.03000
C 	C 	0.83104 0.95455 0.59704 0.10700
F 	F 	0.77270 0.57191 0.55048 -0.40500
C 	C 	0.83428 0.22477 0.79358 0.09800
C 	C 	0.83342 0.19971 0.83803 -0.05300
C 	C 	0.82656 0.15326 0.75362 0.05100
F 	F 	0.84124 0.07651 0.69311 -0.39700
O 	O 	0.86105 0.45010 0.49045 -0.34900
C 	C 	0.84293 0.84388 0.61817 -0.04800
C 	C 	0.83283 0.06569 0.53831 0.08700
F 	F 	0.83076 0.99797 0.72571 -0.45700
C 	C 	0.85386 0.72120 0.82150 0.08900
H 	H 	0.84140 0.74612 0.86985 0.12800
C 	C 	0.83360 0.94691 0.15265 0.26900
O 	O 	0.85200 0.32221 0.48329 -0.34400
C 	C 	0.84858 0.99917 0.61950 -0.12100
C 	C 	0.84174 0.76118 0.61714 0.77600
C 	C 	0.85826 0.13247 0.73380 -0.07100
F 	F 	0.84603 0.61208 0.92598 -0.44600
C 	C 	0.00982 0.79033 0.23892 0.10800
H 	H 	0.00167 0.63143 0.27232 0.13100
C 	C 	0.86058 0.96415 0.64115 0.07900
F 	F 	0.84608 0.81046 0.13441 -0.43400
C 	C 	0.86425 0.89011 0.64007 0.00500
C 	C 	0.85161 0.08283 0.62080 0.80500
H 	H 	0.87201 0.99662 0.65857 0.09400
C 	C 	0.85184 0.02047 0.55573 -0.07900
C 	C 	0.85974 0.19861 0.81448 0.03400
C 	C 	0.86105 0.21788 0.76895 0.09400
C 	C 	0.86340 0.17424 0.86061 0.77800
O 	O 	0.87026 0.97130 0.24201 -0.37100
Ni	Ni	0.87222 0.86261 0.19367 1.12700
F 	F 	0.85472 0.29264 0.10860 -0.36500
F 	F 	0.86974 0.66414 0.24065 -0.34700
H 	H 	0.86505 0.09196 0.52325 0.10400
F 	F 	0.87085 0.73352 0.91340 -0.40000
F 	F 	0.90454 0.59056 0.80557 -0.38700
C 	C 	0.88385 0.39801 0.48058 0.27700
O 	O 	0.87776 0.81687 0.73427 -0.31500
C 	C 	0.84173 0.45773 0.56337 0.00200
F 	F 	0.91408 0.60005 0.69651 -0.40700
H 	H 	0.86767 0.48382 0.98737 0.09400
F 	F 	0.88581 0.23452 0.87799 -0.40600
O 	O 	0.88293 0.84994 0.68109 -0.33700
F 	F 	0.88293 0.12350 0.60049 -0.38100
H 	H 	0.92167 0.50618 0.65073 0.13900
C 	C 	0.88870 0.48084 0.94847 -0.01900
C 	C 	0.89224 0.80947 0.77862 0.02700
F 	F 	0.88694 0.12136 0.64183 -0.37900
C 	C 	0.91023 0.84995 0.75499 0.28900
O 	O 	0.89017 0.00598 0.15153 -0.30700
H 	H 	0.84704 0.35189 0.57815 0.11100
C 	C 	0.84073 0.59034 0.54934 0.77900
F 	F 	0.85737 0.57973 0.52531 -0.45600
H 	H 	0.89991 0.17693 0.81224 0.12700
C 	C 	0.00530 0.47173 0.49092 0.08800
F 	F 	0.92045 0.37777 0.78491 -0.35300
C 	C 	0.90567 0.87072 0.65888 0.30100
C 	C 	0.86294 0.53979 0.56695 -0.05100
C 	C 	0.92129 0.75445 0.81607 0.05400
O 	O 	0.00169 0.04041 0.26671 -0.26200
C 	C 	0.90595 0.49982 0.97367 0.01700
C 	C 	0.92716 0.17210 0.73110 0.04800
C 	C 	0.92590 0.26715 0.76271 -0.07400
F 	F 	0.90856 0.93222 0.55116 -0.41200
C 	C 	0.86582 0.41471 0.57991 0.07800
S 	S 	0.91938 0.49315 0.89861 0.06600
H 	H 	0.91955 0.42275 0.89031 0.09800
C 	C 	0.01351 0.82315 0.78703 0.80900
F 	F 	0.01816 0.79606 0.76338 -0.40200
H 	H 	0.91126 0.24779 0.14008 0.11900
F 	F 	0.91035 0.27339 0.07608 -0.39200
F 	F 	0.90546 0.76210 0.61378 -0.40900
F 	F 	0.91669 0.15285 0.85460 -0.38500
C 	C 	0.91415 0.32137 0.09641 0.79100
F 	F 	0.92042 0.57713 0.23883 -0.37800
C 	C 	0.91853 0.01020 0.55397 0.80000
O 	O 	0.92724 0.80468 0.20979 -0.25500
F 	F 	0.92098 0.39458 0.08829 -0.38500
C 	C 	0.92616 0.65217 0.23309 0.79800
C 	C 	0.94101 0.79590 0.79416 -0.08300
C 	C 	0.95897 0.24262 0.74405 0.04300
H 	H 	0.93777 0.11191 0.22607 0.19300
C 	C 	0.90595 0.57488 0.58733 0.02600
C 	C 	0.93898 0.50430 0.93072 0.04200
C 	C 	0.96301 0.34086 0.77770 0.76600
O 	O 	0.94886 0.92373 0.75544 -0.28500
Ni	Ni	0.92584 0.79205 0.70399 1.11700
Ni	Ni	0.94066 0.06016 0.18324 1.11000
F 	F 	0.93016 0.65882 0.20759 -0.37300
H 	H 	0.93403 0.37499 0.43701 0.07800
H 	H 	0.91714 0.63562 0.59190 0.15500
F 	F 	0.87119 0.66849 0.55544 -0.37000
H 	H 	0.95789 0.74381 0.82822 0.11900
O 	O 	0.94335 0.16462 0.17093 -0.35700
C 	C 	0.96818 0.12982 0.72160 0.26400
O 	O 	0.94737 0.96073 0.19701 -0.71200
C 	C 	0.95491 0.42559 0.47396 -0.06100
F 	F 	0.02262 0.64387 0.70853 -0.36600
O 	O 	0.95559 0.88172 0.24551 -0.28700
F 	F 	0.95364 0.04851 0.53392 -0.38500
F 	F 	0.95702 0.03933 0.57530 -0.38300
C 	C 	0.93653 0.53283 0.60148 0.10600
C 	C 	0.91848 0.45212 0.59691 -0.10800
F 	F 	0.92489 0.38084 0.63264 -0.38000
F 	F 	0.94923 0.33985 0.59606 -0.37900
O 	O 	0.95961 0.74849 0.67422 -0.31700
C 	C 	0.95393 0.40494 0.61017 0.77100
F 	F 	0.01197 0.39243 0.76383 -0.33700
H 	H 	0.01131 0.27455 0.74125 0.14000
O 	O 	0.96687 0.87844 0.65357 -0.33000
C 	C 	0.96361 0.55794 0.64670 0.06600
C 	C 	0.96249 0.82714 0.23097 0.27500
O 	O 	0.97998 0.07895 0.73625 -0.31500
H 	H 	0.97433 0.00585 0.67916 0.16900
Ni	Ni	0.96617 0.98904 0.23276 1.10100
C 	C 	0.96176 0.28114 0.13511 0.06200
F 	F 	0.97118 0.51897 0.69699 -0.35600
C 	C 	0.97515 0.59405 0.69228 0.77000
F 	F 	0.96925 0.71420 0.31290 -0.40900
O 	O 	0.97004 0.09253 0.21820 -0.70500
C 	C 	0.97194 0.41228 0.44986 -0.02600
C 	C 	0.97260 0.53694 0.98146 0.03600
C 	C 	0.97292 0.32450 0.11327 -0.10800
Ni	Ni	0.98836 0.97810 0.72352 1.10100
S 	S 	0.98828 0.48100 0.52238 0.08600
C 	C 	0.98359 0.57349 0.62214 0.06900
C 	C 	0.99334 0.61323 0.66562 -0.09400
H 	H 	0.98060 0.49296 0.02603 0.08600
H 	H 	0.99545 0.42109 0.53546 0.09500
F 	F 	0.99269 0.32279 0.79861 -0.39900
H 	H 	0.98647 0.95247 0.19022 0.20300
C 	C 	0.98727 0.71147 0.24569 -0.10400
S 	S 	0.99125 0.55987 0.01327 0.11800
O 	O 	0.00561 0.88241 0.71076 -0.68300
O 	O 	0.00149 0.15311 0.70094 -0.28300
