data_crystal

_cell_length_a 32.29632
_cell_length_b 33.64218
_cell_length_c 26.21970
_cell_angle_alpha 90.60352
_cell_angle_beta  89.30648
_cell_angle_gamma 119.97708

_symmetry_space_group_name_	'P 1'
_symmetry_space_group_name_H-M	'P 1'

loop_
_symmetry_equiv_pos_as_xyz
  x,y,z

loop_
_atom_site_label
_atom_site_type_symbol
_atom_site_fract_x
_atom_site_fract_y
_atom_site_fract_z
_atom_site_charge
Ni	Ni	0.42615 0.24335 0.99433 1.11800
O 	O 	0.42334 0.24601 0.91637 -0.30000
O 	O 	0.35987 0.18537 0.99119 -0.31600
O 	O 	0.34153 0.23113 0.06234 -0.33800
O 	O 	0.44257 0.24595 0.06784 -0.69800
O 	O 	0.39256 0.28035 0.00098 -0.32100
O 	O 	0.41059 0.18838 0.15937 -0.34900
Ni	Ni	0.38254 0.21368 0.10593 1.10000
O 	O 	0.35924 0.15352 0.06767 -0.36000
C 	C 	0.34738 0.14914 0.01948 0.38700
C 	C 	0.35748 0.26880 0.03435 0.38600
Ni	Ni	0.47143 0.24926 0.48907 1.11900
O 	O 	0.49421 0.26403 0.41503 -0.30500
O 	O 	0.40895 0.19215 0.46742 -0.33900
O 	O 	0.37307 0.23324 0.52721 -0.33500
O 	O 	0.43790 0.28629 0.48048 -0.29700
O 	O 	0.41875 0.19001 0.64981 -0.33800
Ni	Ni	0.40171 0.21372 0.58466 1.09900
O 	O 	0.39012 0.15674 0.54511 -0.37200
C 	C 	0.38666 0.15479 0.49512 0.40100
C 	C 	0.39549 0.27247 0.50166 0.37500
Ni	Ni	0.21444 0.80284 0.88157 1.11200
O 	O 	0.23906 0.87116 0.89459 -0.70100
Ni	Ni	0.23549 0.87249 0.97033 1.11800
O 	O 	0.22215 0.81308 0.80478 -0.30600
O 	O 	0.17915 0.85021 0.80535 -0.34100
O 	O 	0.28516 0.82093 0.88501 -0.32800
Ni	Ni	0.19894 0.89408 0.86816 1.10000
O 	O 	0.17042 0.71105 0.95222 -0.35600
O 	O 	0.13832 0.84648 0.90493 -0.36200
O 	O 	0.26745 0.94143 0.97767 -0.32300
O 	O 	0.20090 0.80349 0.95634 -0.69500
O 	O 	0.19496 0.73514 0.86939 -0.31200
O 	O 	0.24033 0.86621 0.04713 -0.30600
O 	O 	0.27189 0.81956 0.03453 -0.33200
Ni	Ni	0.22049 0.76523 0.99227 1.11200
H 	H 	0.27252 0.89072 0.88291 0.20700
H 	H 	0.16597 0.78946 0.96072 0.20200
C 	C 	0.13382 0.84687 0.95473 0.38800
O 	O 	0.27277 0.76831 0.94542 -0.35300
C 	C 	0.20909 0.83981 0.78242 0.37800
C 	C 	0.25300 0.96457 0.94976 0.38800
C 	C 	0.30187 0.80548 0.92023 0.40000
C 	C 	0.26024 0.84357 0.06516 0.39700
C 	C 	0.17739 0.70254 0.90451 0.39200
O 	O 	0.17142 0.87005 0.98358 -0.31500
O 	O 	0.21287 0.94286 0.92323 -0.34600
Ni	Ni	0.22868 0.80492 0.38574 1.11900
O 	O 	0.25575 0.87453 0.38987 -0.69500
Ni	Ni	0.24263 0.88237 0.46264 1.11200
O 	O 	0.24560 0.80840 0.30997 -0.28600
O 	O 	0.20887 0.84931 0.29120 -0.33800
O 	O 	0.29752 0.82083 0.39998 -0.32600
Ni	Ni	0.22411 0.89867 0.34733 1.10600
O 	O 	0.18085 0.71959 0.46720 -0.35400
O 	O 	0.15662 0.85681 0.37503 -0.33800
O 	O 	0.27666 0.95170 0.46279 -0.33800
O 	O 	0.20810 0.81241 0.45606 -0.69900
O 	O 	0.20625 0.73584 0.38351 -0.29300
O 	O 	0.23451 0.88249 0.53985 -0.31700
O 	O 	0.26659 0.83631 0.54872 -0.34600
Ni	Ni	0.22360 0.77859 0.50516 1.09700
H 	H 	0.29065 0.89184 0.38332 0.20200
H 	H 	0.17305 0.79876 0.45668 0.19600
C 	C 	0.14618 0.85529 0.42369 0.38300
O 	O 	0.28233 0.78020 0.47330 -0.34600
C 	C 	0.23877 0.83487 0.27880 0.38400
C 	C 	0.27082 0.97403 0.42520 0.39000
C 	C 	0.31239 0.81296 0.44305 0.38700
C 	C 	0.24902 0.86064 0.56903 0.38900
C 	C 	0.19450 0.70894 0.42399 0.39400
O 	O 	0.17909 0.88192 0.45630 -0.31700
O 	O 	0.23456 0.95257 0.39331 -0.33900
Ni	Ni	0.21728 0.42159 0.00831 1.11900
O 	O 	0.18966 0.45996 0.98205 -0.70100
Ni	Ni	0.21702 0.47359 0.91165 1.11300
O 	O 	0.21152 0.43602 0.08275 -0.32700
O 	O 	0.25385 0.51306 0.06794 -0.35600
O 	O 	0.15026 0.36380 0.01282 -0.32800
Ni	Ni	0.20864 0.51844 0.01586 1.10000
O 	O 	0.20556 0.33079 0.96203 -0.33200
O 	O 	0.26668 0.56686 0.97499 -0.35200
O 	O 	0.20306 0.52467 0.89086 -0.30200
O 	O 	0.23490 0.42648 0.93463 -0.70200
O 	O 	0.24409 0.38111 0.02800 -0.29900
O 	O 	0.23907 0.47074 0.83942 -0.31700
O 	O 	0.18850 0.39288 0.83490 -0.34700
Ni	Ni	0.19854 0.36659 0.90281 1.10300
H 	H 	0.15438 0.44170 0.98012 0.20400
H 	H 	0.26957 0.43786 0.93077 0.21200
C 	C 	0.29905 0.55931 0.95351 0.41300
O 	O 	0.13377 0.35618 0.92745 -0.36600
C 	C 	0.23843 0.47814 0.09948 0.38800
C 	C 	0.17773 0.53863 0.91824 0.38700
C 	C 	0.11954 0.34640 0.97508 0.39500
C 	C 	0.22106 0.43186 0.81384 0.38500
C 	C 	0.24071 0.34923 0.99589 0.37600
O 	O 	0.28645 0.52059 0.92953 -0.35000
O 	O 	0.16555 0.52605 0.96634 -0.35200
Ni	Ni	0.25118 0.41874 0.49447 1.11600
O 	O 	0.22286 0.45993 0.48053 -0.70200
Ni	Ni	0.25499 0.48807 0.41454 1.11300
O 	O 	0.23763 0.41451 0.57098 -0.32400
O 	O 	0.27541 0.49255 0.57692 -0.35600
O 	O 	0.18588 0.35982 0.48460 -0.32900
Ni	Ni	0.23727 0.51035 0.52781 1.10700
O 	O 	0.24759 0.34128 0.42483 -0.33300
O 	O 	0.29854 0.56783 0.50209 -0.34500
O 	O 	0.24004 0.54062 0.40774 -0.30200
O 	O 	0.27403 0.43928 0.42359 -0.70200
O 	O 	0.27975 0.37756 0.50099 -0.30900
O 	O 	0.28320 0.50053 0.34265 -0.31000
O 	O 	0.23438 0.42527 0.32024 -0.35400
Ni	Ni	0.24180 0.38694 0.37796 1.09900
H 	H 	0.18792 0.44173 0.47526 0.19900
H 	H 	0.30908 0.45227 0.42130 0.21400
C 	C 	0.33095 0.56807 0.47096 0.41400
O 	O 	0.17386 0.36870 0.40080 -0.36100
C 	C 	0.25471 0.45195 0.59879 0.38800
C 	C 	0.21331 0.54948 0.43959 0.38800
C 	C 	0.15687 0.35213 0.44621 0.38700
C 	C 	0.26724 0.46767 0.30811 0.38300
C 	C 	0.28046 0.35383 0.46098 0.37900
O 	O 	0.32150 0.53215 0.44283 -0.35500
O 	O 	0.19790 0.52794 0.48376 -0.34100
C 	C 	0.25805 0.41837 0.68145 0.29600
C 	C 	0.24799 0.44823 0.65411 -0.19100
C 	C 	0.22678 0.47071 0.67907 0.28700
C 	C 	0.21580 0.46352 0.73091 0.29200
C 	C 	0.22651 0.43423 0.75843 -0.18200
C 	C 	0.24722 0.41134 0.73345 0.28500
F 	F 	0.25802 0.38325 0.75990 -0.37500
F 	F 	0.27875 0.39658 0.65763 -0.35000
F 	F 	0.19464 0.48495 0.75460 -0.35000
F 	F 	0.21547 0.49845 0.65264 -0.39600
C 	C 	0.25287 0.51429 0.18502 0.29100
C 	C 	0.25873 0.48539 0.15046 -0.18500
C 	C 	0.27787 0.45843 0.16719 0.29400
C 	C 	0.28506 0.45584 0.21909 0.28700
C 	C 	0.27364 0.48053 0.25436 -0.17900
C 	C 	0.26031 0.51191 0.23694 0.29100
F 	F 	0.25078 0.53726 0.27069 -0.34100
F 	F 	0.23640 0.54202 0.16879 -0.36700
F 	F 	0.30065 0.42744 0.23542 -0.37300
F 	F 	0.28734 0.43314 0.13331 -0.35300
C 	C 	0.07148 0.33301 0.43929 0.28300
C 	C 	0.10499 0.31996 0.45294 -0.18200
C 	C 	0.08894 0.27673 0.47498 0.29000
C 	C 	0.04030 0.24805 0.48611 0.29300
C 	C 	0.02272 0.30428 0.45061 0.28300
F 	F 	0.08632 0.37430 0.41709 -0.37000
F 	F 	0.02555 0.20694 0.50875 -0.34700
F 	F 	0.12056 0.26269 0.48613 -0.33700
C 	C 	0.99931 0.23691 0.97548 0.29000
C 	C 	0.99706 0.29013 0.03733 0.27500
C 	C 	0.04398 0.32298 0.02395 0.28900
C 	C 	0.06892 0.31296 0.98648 -0.18200
C 	C 	0.04618 0.26994 0.96190 0.29300
F 	F 	0.07007 0.25954 0.92610 -0.35800
F 	F 	0.06510 0.36476 0.04713 -0.37500
C 	C 	0.42247 0.69308 0.44858 0.28800
C 	C 	0.42052 0.61042 0.46840 0.29200
C 	C 	0.37738 0.61088 0.46447 -0.18300
C 	C 	0.37862 0.65239 0.45418 0.29700
F 	F 	0.33733 0.65347 0.45044 -0.34700
F 	F 	0.42289 0.73282 0.43875 -0.35100
F 	F 	0.41991 0.57054 0.47790 -0.35200
C 	C 	0.40491 0.67619 0.92366 0.28400
C 	C 	0.38697 0.59284 0.96599 0.28900
C 	C 	0.34875 0.59758 0.94838 -0.18500
C 	C 	0.35807 0.63911 0.92624 0.29300
F 	F 	0.32165 0.64379 0.90781 -0.33400
F 	F 	0.41300 0.71626 0.90303 -0.33800
F 	F 	0.37857 0.55254 0.98645 -0.35900
C 	C 	0.39135 0.82940 0.40701 0.30100
C 	C 	0.36389 0.82987 0.44885 -0.17600
C 	C 	0.38515 0.84358 0.49704 0.28500
C 	C 	0.43832 0.83916 0.41419 0.30600
F 	F 	0.46325 0.83548 0.37411 -0.32500
F 	F 	0.37156 0.81658 0.36003 -0.32500
F 	F 	0.35989 0.84642 0.53726 -0.35400
C 	C 	0.23485 0.62341 0.39622 0.30200
C 	C 	0.20270 0.58620 0.42667 -0.16500
C 	C 	0.16305 0.58671 0.44887 0.28700
C 	C 	0.15866 0.62590 0.44540 0.29300
C 	C 	0.19374 0.66487 0.41960 -0.17700
C 	C 	0.23080 0.66276 0.39341 0.29600
F 	F 	0.26443 0.69979 0.36739 -0.32700
F 	F 	0.27104 0.62216 0.37076 -0.31500
F 	F 	0.12047 0.62611 0.46737 -0.34900
F 	F 	0.12886 0.54929 0.47385 -0.34300
C 	C 	0.07770 0.77525 0.42191 0.27700
C 	C 	0.09900 0.81985 0.44247 -0.19100
C 	C 	0.07649 0.82943 0.48317 0.29600
C 	C 	0.03241 0.79501 0.50199 0.29800
C 	C 	0.01061 0.75092 0.48024 -0.19300
C 	C 	0.03393 0.74099 0.44093 0.28700
F 	F 	0.10003 0.76487 0.38423 -0.38800
F 	F 	0.01001 0.80495 0.53995 -0.33800
F 	F 	0.09670 0.87232 0.50351 -0.32500
C 	C 	0.37951 0.84588 0.96544 0.28500
C 	C 	0.35339 0.82227 0.92203 -0.18400
C 	C 	0.37506 0.80874 0.88430 0.30600
C 	C 	0.42036 0.81429 0.89263 0.30900
F 	F 	0.36178 0.86482 0.99874 -0.37500
F 	F 	0.44085 0.80043 0.85637 -0.31500
F 	F 	0.35115 0.78792 0.84094 -0.31500
C 	C 	0.20306 0.60947 0.86762 0.29600
C 	C 	0.16784 0.57330 0.89687 -0.17100
C 	C 	0.12819 0.57616 0.91471 0.28600
C 	C 	0.12848 0.61775 0.91200 0.29100
C 	C 	0.16815 0.65640 0.89092 -0.18200
C 	C 	0.20351 0.65113 0.86513 0.29200
F 	F 	0.24057 0.68751 0.84163 -0.32700
F 	F 	0.23880 0.60546 0.84489 -0.31900
F 	F 	0.09164 0.62126 0.93254 -0.35400
F 	F 	0.09088 0.53952 0.93756 -0.34600
C 	C 	0.03381 0.75632 0.03319 0.28200
C 	C 	0.00101 0.78862 0.97454 0.29300
C 	C 	0.04711 0.82091 0.95873 0.29700
C 	C 	0.08661 0.81977 0.97855 -0.18700
C 	C 	0.07997 0.78952 0.01847 0.28300
F 	F 	0.11818 0.79069 0.04104 -0.39500
F 	F 	0.02780 0.72462 0.06855 -0.38200
F 	F 	0.05339 0.85262 0.92326 -0.34700
C 	C 	0.26681 0.86492 0.71049 0.28600
C 	C 	0.22019 0.85003 0.72840 -0.18800
C 	C 	0.18367 0.84092 0.69376 0.28900
C 	C 	0.19337 0.84515 0.64157 0.28400
C 	C 	0.23960 0.85834 0.62367 -0.19600
C 	C 	0.27639 0.86876 0.65827 0.29500
F 	F 	0.32145 0.88272 0.64119 -0.33200
F 	F 	0.30266 0.87515 0.74387 -0.35200
F 	F 	0.15747 0.83470 0.60817 -0.36500
F 	F 	0.13833 0.82593 0.71060 -0.34900
C 	C 	0.24928 0.80066 0.14499 0.29300
C 	C 	0.26662 0.84283 0.12004 -0.18000
C 	C 	0.28269 0.88327 0.14874 0.30300
C 	C 	0.27631 0.88093 0.20149 0.28700
C 	C 	0.25429 0.83822 0.22581 -0.17700
C 	C 	0.24298 0.79833 0.19777 0.29900
F 	F 	0.22281 0.75693 0.22123 -0.33500
F 	F 	0.23500 0.76147 0.11767 -0.38900
F 	F 	0.28986 0.91996 0.22887 -0.38000
F 	F 	0.30249 0.92459 0.12513 -0.34200
C 	C 	0.37212 0.09332 0.43276 0.29100
C 	C 	0.35443 0.11120 0.47014 -0.19300
C 	C 	0.30574 0.08731 0.48318 0.30100
C 	C 	0.27588 0.04389 0.46238 0.29400
C 	C 	0.29482 0.02386 0.42923 -0.17600
C 	C 	0.34227 0.04983 0.41213 0.28300
F 	F 	0.36045 0.03131 0.37867 -0.36000
F 	F 	0.41889 0.11691 0.41874 -0.37000
F 	F 	0.22944 0.01965 0.47762 -0.33000
F 	F 	0.28766 0.10572 0.51693 -0.34700
C 	C 	0.29185 0.28575 0.45826 0.29500
C 	C 	0.31148 0.33346 0.46230 -0.18100
C 	C 	0.36004 0.36131 0.47449 0.28800
C 	C 	0.38788 0.34146 0.48590 0.28800
C 	C 	0.36754 0.29359 0.48482 -0.16900
C 	C 	0.31984 0.26589 0.46912 0.28700
F 	F 	0.30058 0.21974 0.46461 -0.33700
F 	F 	0.24515 0.25845 0.44594 -0.33500
F 	F 	0.43414 0.36867 0.49988 -0.34000
F 	F 	0.37982 0.40763 0.47680 -0.36000
C 	C 	0.41792 0.19900 0.76080 0.28600
C 	C 	0.41798 0.20993 0.81234 0.28300
F 	F 	0.38152 0.18054 0.84302 -0.33600
F 	F 	0.38210 0.15857 0.74257 -0.35000
C 	C 	0.47436 0.25826 0.25447 0.28800
C 	C 	0.48757 0.26519 0.30565 0.29000
F 	F 	0.50004 0.30620 0.32806 -0.33800
F 	F 	0.47316 0.29215 0.22801 -0.37600
C 	C 	0.27855 0.06977 0.02402 0.29600
C 	C 	0.31855 0.10335 0.99740 -0.18100
C 	C 	0.33270 0.09197 0.95120 0.28900
C 	C 	0.30917 0.04667 0.93381 0.28600
C 	C 	0.27137 0.01266 0.96231 -0.17700
C 	C 	0.25503 0.02453 0.00650 0.30000
F 	F 	0.21746 0.99178 0.03344 -0.34000
F 	F 	0.26303 0.08092 0.06729 -0.34300
F 	F 	0.32442 0.03542 0.89040 -0.37000
F 	F 	0.37075 0.12434 0.92460 -0.37700
C 	C 	0.34734 0.33685 0.02615 0.29000
C 	C 	0.32673 0.28903 0.02840 -0.17800
C 	C 	0.27755 0.26073 0.01914 0.29100
C 	C 	0.24940 0.28023 0.00761 0.29100
C 	C 	0.27027 0.32813 0.00475 -0.18000
C 	C 	0.31935 0.35630 0.01411 0.28900
F 	F 	0.33997 0.40265 0.01109 -0.35200
F 	F 	0.39471 0.36449 0.03519 -0.35000
F 	F 	0.20178 0.25264 0.00003 -0.34000
F 	F 	0.25737 0.21434 0.01982 -0.34000
F 	F 	0.01362 0.69807 0.42059 -0.36600
O 	O 	0.45843 0.20412 0.99498 -0.69200
Ni	Ni	0.48258 0.21399 0.06716 1.11100
O 	O 	0.50209 0.26815 0.90978 -0.34400
O 	O 	0.49088 0.22083 0.14455 -0.31200
H 	H 	0.43483 0.17120 0.99100 0.20400
H 	H 	0.46113 0.27828 0.07942 0.20800
C 	C 	0.46132 0.25717 0.88809 0.39100
C 	C 	0.45494 0.21192 0.17550 0.39400
O 	O 	0.50054 0.20827 0.50394 -0.69700
Ni	Ni	0.50788 0.21833 0.57971 1.11100
O 	O 	0.53839 0.22899 0.40036 -0.32800
O 	O 	0.46847 0.24882 0.56440 -0.70800
O 	O 	0.50016 0.22507 0.65624 -0.30200
H 	H 	0.48009 0.17549 0.49497 0.21400
H 	H 	0.48312 0.28051 0.57805 0.20500
C 	C 	0.50486 0.23808 0.38656 0.40300
C 	C 	0.45842 0.21574 0.67556 0.36800
O 	O 	0.46819 0.78585 0.98448 -0.35900
O 	O 	0.52042 0.83973 0.92856 -0.31700
C 	C 	0.48909 0.71472 0.95504 0.39100
C 	C 	0.48078 0.82218 0.95569 0.41100
O 	O 	0.49137 0.80754 0.50274 -0.34500
O 	O 	0.53615 0.86154 0.44266 -0.32000
C 	C 	0.51065 0.73719 0.46260 0.39600
C 	C 	0.49910 0.84266 0.47395 0.40400
C 	C 	0.46566 0.69317 0.45544 -0.17900
C 	C 	0.46445 0.65146 0.46445 0.28800
F 	F 	0.50582 0.65085 0.47059 -0.34700
C 	C 	0.44287 0.67263 0.94460 -0.17900
C 	C 	0.43379 0.63026 0.96435 0.28600
F 	F 	0.47014 0.62576 0.98338 -0.35500
C 	C 	0.43206 0.85303 0.50421 0.29300
C 	C 	0.45801 0.84863 0.46335 -0.17000
F 	F 	0.45141 0.86394 0.55151 -0.35300
C 	C 	0.44310 0.83142 0.93967 -0.17500
C 	C 	0.42373 0.84942 0.97486 0.28900
F 	F 	0.44686 0.86868 0.01907 -0.36100
C 	C 	0.45577 0.22881 0.72872 -0.18500
C 	C 	0.49232 0.27071 0.74822 0.28300
C 	C 	0.49286 0.28112 0.79999 0.29100
C 	C 	0.45650 0.25012 0.83260 -0.19000
F 	F 	0.52893 0.32120 0.81861 -0.33900
F 	F 	0.52744 0.30124 0.71695 -0.34900
C 	C 	0.46526 0.18220 0.25745 0.30200
C 	C 	0.46366 0.21701 0.23017 -0.19000
C 	C 	0.48977 0.23053 0.33306 -0.17500
C 	C 	0.47844 0.18896 0.30868 0.29000
Ni	Ni	0.51044 0.21845 0.94662 1.11200
O 	O 	0.56798 0.26868 0.98497 -0.32900
O 	O 	0.52726 0.18643 0.06527 -0.30500
C 	C 	0.56472 0.29582 0.01893 0.38900
C 	C 	0.54487 0.17920 0.02257 0.38800
O 	O 	0.54000 0.27880 0.06101 -0.34200
O 	O 	0.52106 0.17028 0.97958 -0.34300
Ni	Ni	0.56440 0.23433 0.47395 1.09900
O 	O 	0.57212 0.29694 0.49023 -0.37900
O 	O 	0.55083 0.19099 0.59357 -0.33100
C 	C 	0.57673 0.31191 0.53779 0.35400
C 	C 	0.59219 0.20733 0.56988 0.40100
O 	O 	0.56676 0.28353 0.57677 -0.30400
O 	O 	0.60478 0.23962 0.53547 -0.37200
Ni	Ni	0.56519 0.81379 0.93213 1.11300
O 	O 	0.61190 0.78993 0.94026 -0.69500
Ni	Ni	0.61855 0.79167 0.01667 1.11000
O 	O 	0.57086 0.81637 0.85412 -0.30000
O 	O 	0.65184 0.85761 0.85528 -0.34700
O 	O 	0.50764 0.74779 0.92073 -0.31300
O 	O 	0.57373 0.81823 0.00865 -0.69700
O 	O 	0.61291 0.78660 0.09436 -0.30500
O 	O 	0.53311 0.75932 0.10116 -0.34000
Ni	Ni	0.50974 0.77902 0.03822 1.10200
H 	H 	0.59945 0.75849 0.92652 0.20700
H 	H 	0.58781 0.85034 0.02073 0.21400
O 	O 	0.50418 0.72327 0.00197 -0.38600
C 	C 	0.61223 0.83124 0.83109 0.39500
C 	C 	0.57625 0.78383 0.11950 0.38900
Ni	Ni	0.58160 0.83640 0.43573 1.10900
O 	O 	0.62797 0.81115 0.43526 -0.69500
Ni	Ni	0.64704 0.81930 0.50958 1.11300
O 	O 	0.57625 0.83768 0.35815 -0.29600
O 	O 	0.65496 0.86689 0.34011 -0.34100
O 	O 	0.52270 0.77061 0.42964 -0.32000
O 	O 	0.59999 0.84361 0.50962 -0.69700
O 	O 	0.65328 0.82270 0.58737 -0.30200
O 	O 	0.57318 0.78270 0.59969 -0.35200
Ni	Ni	0.54043 0.80228 0.54654 1.10600
H 	H 	0.61230 0.77840 0.42516 0.20700
H 	H 	0.61429 0.87586 0.52132 0.21300
O 	O 	0.53081 0.74626 0.50718 -0.38000
C 	C 	0.61011 0.84062 0.32778 0.38800
C 	C 	0.61585 0.81122 0.61648 0.40100
C 	C 	0.64172 0.80972 0.75446 0.28500
C 	C 	0.61414 0.82726 0.77605 -0.18700
C 	C 	0.59216 0.84464 0.74468 0.30100
C 	C 	0.59623 0.84287 0.69192 0.28900
C 	C 	0.62176 0.82318 0.67026 -0.19100
C 	C 	0.64556 0.80772 0.70165 0.30300
F 	F 	0.57413 0.85896 0.66158 -0.38400
F 	F 	0.56728 0.86363 0.76542 -0.33400
C 	C 	0.60640 0.78084 0.20512 0.29700
C 	C 	0.58151 0.79522 0.17373 -0.18600
C 	C 	0.56352 0.82238 0.19400 0.28500
C 	C 	0.57202 0.83661 0.24483 0.30200
C 	C 	0.59850 0.82366 0.27560 -0.18800
C 	C 	0.61508 0.79525 0.25580 0.28400
F 	F 	0.55593 0.86421 0.26376 -0.33000
F 	F 	0.53922 0.83622 0.16389 -0.37800
C 	C 	0.63358 0.43720 0.51153 0.29300
C 	C 	0.64424 0.37923 0.57936 0.29000
C 	C 	0.60458 0.36143 0.54694 -0.17500
C 	C 	0.59778 0.39130 0.51567 0.28400
F 	F 	0.55767 0.37514 0.48715 -0.35800
F 	F 	0.62767 0.46545 0.47956 -0.35900
F 	F 	0.65007 0.35124 0.61181 -0.31600
C 	C 	0.66603 0.23715 0.62067 0.29400
C 	C 	0.62992 0.20101 0.59235 -0.18000
C 	C 	0.63801 0.16643 0.57303 0.28200
F 	F 	0.65747 0.26879 0.64348 -0.32000
F 	F 	0.60239 0.12938 0.54897 -0.36300
F 	F 	0.48082 0.15540 0.33449 -0.33100
F 	F 	0.45500 0.14218 0.23393 -0.33800
C 	C 	0.62814 0.42342 0.99878 0.29100
C 	C 	0.59243 0.37724 0.99903 0.29200
C 	C 	0.60180 0.34412 0.01914 -0.18600
C 	C 	0.64666 0.35741 0.04007 0.30100
F 	F 	0.65586 0.32544 0.05968 -0.35000
F 	F 	0.54885 0.36457 0.97927 -0.37600
F 	F 	0.61908 0.45524 0.97849 -0.36800
C 	C 	0.61284 0.17620 0.06431 0.29900
C 	C 	0.59413 0.18678 0.02161 -0.17600
C 	C 	0.62374 0.20753 0.97889 0.29500
F 	F 	0.60646 0.21782 0.93717 -0.38800
F 	F 	0.58450 0.15508 0.10535 -0.33500
F 	F 	0.67036 0.78865 0.68093 -0.33900
F 	F 	0.66391 0.79372 0.78481 -0.37100
F 	F 	0.63954 0.78155 0.28588 -0.39400
F 	F 	0.62192 0.75271 0.18647 -0.34000
C 	C 	0.68419 0.17250 0.57353 0.28600
C 	C 	0.71250 0.48399 0.01275 0.37400
Ni	Ni	0.67585 0.83307 0.91277 1.11200
O 	O 	0.68155 0.88798 0.95228 -0.37400
O 	O 	0.66338 0.76545 0.01853 -0.31500
C 	C 	0.68811 0.89247 0.00144 0.39500
C 	C 	0.69857 0.78003 0.98511 0.39500
O 	O 	0.67664 0.85644 0.02997 -0.33000
Ni	Ni	0.68699 0.84829 0.39550 1.10700
O 	O 	0.70196 0.90803 0.43151 -0.36500
O 	O 	0.69099 0.79233 0.50578 -0.30800
C 	C 	0.71787 0.91756 0.47826 0.39100
C 	C 	0.71820 0.79970 0.46537 0.37900
O 	O 	0.70689 0.88454 0.51148 -0.32400
F 	F 	0.71046 0.96307 0.56694 -0.36600
C 	C 	0.69487 0.96725 0.02396 0.28400
F 	F 	0.64696 0.94856 0.01819 -0.38000
C 	C 	0.70596 0.72051 0.46090 0.28800
F 	F 	0.65977 0.70378 0.47572 -0.35600
F 	F 	0.69428 0.64495 0.46329 -0.37400
C 	C 	0.67617 0.45348 0.53892 -0.17700
C 	C 	0.68011 0.42496 0.57512 0.29100
F 	F 	0.72025 0.44058 0.60351 -0.33600
C 	C 	0.72248 0.21365 0.59236 -0.18000
C 	C 	0.71240 0.24370 0.62042 0.28700
F 	F 	0.69262 0.14072 0.55088 -0.36100
C 	C 	0.68231 0.40354 0.04008 0.29100
C 	C 	0.67334 0.43671 0.01896 -0.17600
C 	C 	0.67158 0.21892 0.97942 0.29600
C 	C 	0.69027 0.20805 0.02176 -0.17700
C 	C 	0.66072 0.18667 0.06427 0.29700
F 	F 	0.67808 0.17536 0.10514 -0.35300
F 	F 	0.70364 0.04192 0.02653 -0.37000
C 	C 	0.71798 0.49792 0.52599 0.37500
O 	O 	0.75412 0.62701 0.91702 -0.32900
O 	O 	0.74080 0.50470 0.05180 -0.31000
O 	O 	0.72646 0.49972 0.96593 -0.35100
Ni	Ni	0.74504 0.56617 0.94386 1.10200
O 	O 	0.76098 0.63262 0.41399 -0.33400
O 	O 	0.74990 0.52030 0.56144 -0.30600
O 	O 	0.72887 0.50873 0.47739 -0.34800
Ni	Ni	0.75036 0.57403 0.44878 1.10500
O 	O 	0.71505 0.82037 0.96346 -0.33700
O 	O 	0.73265 0.83730 0.43835 -0.33200
O 	O 	0.75858 0.21514 0.97696 -0.37100
C 	C 	0.74031 0.21813 0.02050 0.38800
O 	O 	0.77462 0.22819 0.52087 -0.38600
C 	C 	0.77064 0.23076 0.57022 0.38500
C 	C 	0.79347 0.99068 0.45875 0.28800
C 	C 	0.75410 0.96544 0.49143 -0.17400
C 	C 	0.74780 0.98708 0.53457 0.28600
C 	C 	0.77877 0.03416 0.54309 0.28900
F 	F 	0.80135 0.96981 0.41822 -0.35100
F 	F 	0.77091 0.05518 0.58349 -0.36700
C 	C 	0.71542 0.93903 0.02305 -0.18300
C 	C 	0.76489 0.95872 0.03050 0.28800
C 	C 	0.72389 0.01497 0.02751 0.28800
C 	C 	0.77053 0.70666 0.43645 -0.17400
C 	C 	0.72322 0.69023 0.45315 0.28300
C 	C 	0.73607 0.76787 0.45344 -0.18200
C 	C 	0.74160 0.71043 0.91167 0.29700
C 	C 	0.74118 0.73935 0.01232 0.30100
C 	C 	0.72098 0.75228 0.97336 -0.18600
C 	C 	0.72162 0.73806 0.92291 0.28400
F 	F 	0.70204 0.75033 0.88498 -0.38500
F 	F 	0.74184 0.69667 0.86285 -0.33200
F 	F 	0.74125 0.75338 0.06109 -0.33500
F 	F 	0.77332 0.60354 0.69062 -0.34300
F 	F 	0.75792 0.59775 0.79439 -0.34800
F 	F 	0.77189 0.51710 0.30401 -0.34400
F 	F 	0.74828 0.28176 0.64275 -0.32300
F 	F 	0.72621 0.41583 0.05865 -0.35100
F 	F 	0.70020 0.24156 0.93904 -0.36600
O 	O 	0.76853 0.23949 0.05935 -0.31600
O 	O 	0.78995 0.59407 0.00027 -0.70100
H 	H 	0.77694 0.60764 0.02489 0.20100
O 	O 	0.78638 0.56300 0.88550 -0.33500
C 	C 	0.78140 0.66726 0.93952 0.37300
O 	O 	0.79884 0.60508 0.50177 -0.69900
H 	H 	0.78805 0.62108 0.52571 0.19500
O 	O 	0.78739 0.56366 0.39096 -0.33000
C 	C 	0.78932 0.67463 0.43189 0.36300
H 	H 	0.77711 0.16209 0.06708 0.20900
H 	H 	0.82215 0.18363 0.57960 0.20600
O 	O 	0.80884 0.25630 0.59784 -0.31600
C 	C 	0.81638 0.05992 0.50868 -0.17700
C 	C 	0.82436 0.03768 0.46730 0.30400
C 	C 	0.79404 0.00655 0.03405 0.29600
C 	C 	0.77378 0.03495 0.03051 -0.18200
F 	F 	0.78515 0.93176 0.03056 -0.34400
C 	C 	0.80016 0.75389 0.42679 0.29000
C 	C 	0.78314 0.78439 0.43576 0.29200
C 	C 	0.76159 0.69731 0.95069 -0.17900
C 	C 	0.76174 0.71224 0.00096 0.27900
F 	F 	0.78111 0.69977 0.03892 -0.38100
F 	F 	0.77859 0.51839 0.19938 -0.33700
Ni	Ni	0.81026 0.55388 0.03875 1.10900
O 	O 	0.83514 0.51703 0.07643 -0.31300
O 	O 	0.82786 0.68382 0.94443 -0.31200
C 	C 	0.82458 0.59937 0.86725 0.37800
O 	O 	0.81334 0.58729 0.10766 -0.33200
Ni	Ni	0.81901 0.56549 0.54202 1.10500
O 	O 	0.84327 0.52858 0.58096 -0.32200
O 	O 	0.83571 0.69051 0.43682 -0.30500
C 	C 	0.82453 0.59779 0.36808 0.36300
O 	O 	0.82444 0.60066 0.60979 -0.32100
Ni	Ni	0.82841 0.17577 0.98763 1.11100
O 	O 	0.81523 0.22597 0.89048 -0.33700
Ni	Ni	0.82221 0.26763 0.95221 1.11000
O 	O 	0.81198 0.18071 0.06086 -0.70000
O 	O 	0.80008 0.10635 0.98650 -0.30900
O 	O 	0.82249 0.24633 0.14402 -0.29100
C 	C 	0.84432 0.21008 0.88192 0.38500
C 	C 	0.80447 0.08525 0.02638 0.38000
O 	O 	0.81908 0.31413 0.00091 -0.34400
Ni	Ni	0.85278 0.20074 0.48827 1.11200
O 	O 	0.84730 0.20527 0.41124 -0.31300
O 	O 	0.80015 0.23751 0.41873 -0.35400
Ni	Ni	0.82516 0.28237 0.48034 1.09700
O 	O 	0.85442 0.20386 0.56518 -0.69600
O 	O 	0.82707 0.13208 0.48040 -0.31800
C 	C 	0.82683 0.22647 0.39086 0.40200
C 	C 	0.84137 0.11056 0.51072 0.39000
O 	O 	0.83377 0.32836 0.53663 -0.36200
C 	C 	0.86636 0.18811 0.74691 0.28500
C 	C 	0.85369 0.18020 0.79836 0.29900
F 	F 	0.82609 0.13650 0.81513 -0.34100
F 	F 	0.85149 0.15203 0.71420 -0.38300
C 	C 	0.80252 0.18113 0.25692 0.28600
C 	C 	0.82137 0.22454 0.33574 -0.18900
C 	C 	0.80236 0.18233 0.31001 0.30000
F 	F 	0.78457 0.14260 0.33660 -0.34700
F 	F 	0.78565 0.14033 0.23216 -0.37800
F 	F 	0.86096 0.06199 0.43421 -0.33500
F 	F 	0.83653 0.38073 0.64295 -0.31700
F 	F 	0.83989 0.46378 0.64840 -0.32500
F 	F 	0.81275 0.83002 0.42836 -0.33800
F 	F 	0.84523 0.77023 0.40837 -0.33300
F 	F 	0.82892 0.36667 0.12845 -0.32400
F 	F 	0.84235 0.45312 0.14282 -0.32500
C 	C 	0.83358 0.60295 0.80952 -0.15100
C 	C 	0.79895 0.60128 0.77555 0.28800
C 	C 	0.80682 0.60403 0.72177 0.29100
C 	C 	0.80439 0.55802 0.22597 0.29000
C 	C 	0.83537 0.59890 0.19966 -0.15400
C 	C 	0.82888 0.59782 0.30948 -0.14600
C 	C 	0.80111 0.55738 0.28023 0.28300
Ni	Ni	0.85249 0.64387 0.97381 1.11400
O 	O 	0.87099 0.59928 0.00504 -0.70300
O 	O 	0.85999 0.62573 0.89873 -0.31300
C 	C 	0.84663 0.59776 0.14301 0.39300
Ni	Ni	0.86026 0.65140 0.46914 1.10900
O 	O 	0.86215 0.62624 0.39588 -0.30200
C 	C 	0.85951 0.61255 0.64298 0.37500
O 	O 	0.85602 0.24557 0.99487 -0.69400
Ni	Ni	0.83701 0.24960 0.06755 1.11400
O 	O 	0.84244 0.17782 0.91109 -0.30100
O 	O 	0.84058 0.10758 0.05802 -0.33600
Ni	Ni	0.84747 0.16012 0.10377 1.10100
C 	C 	0.85191 0.33896 0.03506 0.39200
C 	C 	0.83207 0.22179 0.17513 0.39200
O 	O 	0.87528 0.26878 0.50020 -0.70300
Ni	Ni	0.87764 0.27238 0.57699 1.10900
O 	O 	0.88342 0.13348 0.53314 -0.33700
O 	O 	0.88913 0.27134 0.65358 -0.30600
Ni	Ni	0.89902 0.18357 0.58696 1.10700
C 	C 	0.87496 0.35686 0.55821 0.39900
C 	C 	0.89863 0.24128 0.67389 0.38800
C 	C 	0.89193 0.23319 0.72863 -0.18700
C 	C 	0.86682 0.21743 0.83176 -0.18200
C 	C 	0.82170 0.22209 0.22929 -0.17800
C 	C 	0.83722 0.26395 0.25505 0.29800
C 	C 	0.83694 0.26511 0.30821 0.29100
F 	F 	0.85401 0.30590 0.33302 -0.37000
F 	F 	0.84211 0.02529 0.03800 -0.33800
C 	C 	0.86338 0.45565 0.61006 0.29500
C 	C 	0.86228 0.41347 0.60777 0.29800
C 	C 	0.88604 0.40436 0.56808 -0.17700
C 	C 	0.85620 0.44237 0.09813 0.30100
C 	C 	0.84974 0.39836 0.09096 0.30100
C 	C 	0.86300 0.38650 0.04446 -0.17200
C 	C 	0.84934 0.60798 0.70079 -0.14400
C 	C 	0.86262 0.63930 0.22875 0.29000
C 	C 	0.85916 0.63888 0.28290 0.28400
C 	C 	0.87547 0.51835 0.06312 0.38000
O 	O 	0.86385 0.31868 0.06977 -0.30800
O 	O 	0.89076 0.60898 0.12976 -0.32400
H 	H 	0.87837 0.58340 0.97744 0.20300
O 	O 	0.87917 0.60850 0.50489 -0.69800
H 	H 	0.88579 0.59073 0.47896 0.19400
C 	C 	0.88509 0.53150 0.57131 0.37400
O 	O 	0.86197 0.20797 0.16123 -0.34600
O 	O 	0.89844 0.34052 0.58311 -0.31700
O 	O 	0.92465 0.22765 0.64890 -0.34300
H 	H 	0.90657 0.28988 0.48426 0.22300
C 	C 	0.90846 0.27029 0.76278 0.30000
C 	C 	0.89600 0.26240 0.81425 0.28300
F 	F 	0.91060 0.29849 0.84689 -0.38300
F 	F 	0.85525 0.30376 0.22858 -0.32900
C 	C 	0.88830 0.48914 0.57261 -0.17200
C 	C 	0.91325 0.43879 0.53247 0.28400
C 	C 	0.89119 0.46372 0.01332 0.28600
C 	C 	0.87604 0.47495 0.05895 -0.17200
C 	C 	0.88439 0.41955 0.00598 0.28900
C 	C 	0.87586 0.60669 0.78862 0.29200
C 	C 	0.88348 0.60872 0.73498 0.28700
F 	F 	0.88503 0.67868 0.30919 -0.33800
F 	F 	0.89295 0.67912 0.20473 -0.34400
O 	O 	0.90435 0.63667 0.62715 -0.31900
O 	O 	0.89528 0.18354 0.99585 -0.32100
H 	H 	0.89102 0.26403 0.98959 0.20000
O 	O 	0.92124 0.21343 0.47132 -0.32500
F 	F 	0.93579 0.31398 0.74583 -0.34400
C 	C 	0.91448 0.48104 0.53475 0.28400
F 	F 	0.90926 0.60717 0.81993 -0.34800
O 	O 	0.92125 0.69676 0.96980 -0.31500
Ni	Ni	0.92071 0.62067 0.05688 1.10600
O 	O 	0.91615 0.55793 0.05767 -0.33300
Ni	Ni	0.93081 0.63374 0.55528 1.09900
O 	O 	0.92542 0.57181 0.57025 -0.33000
O 	O 	0.91451 0.20579 0.07819 -0.34200
F 	F 	0.93670 0.43054 0.49420 -0.36100
F 	F 	0.93929 0.51327 0.49875 -0.36000
F 	F 	0.89795 0.40866 0.96120 -0.36000
F 	F 	0.91051 0.49495 0.97521 -0.35700
F 	F 	0.92380 0.61052 0.71642 -0.34900
O 	O 	0.92910 0.70207 0.45607 -0.30700
O 	O 	0.95649 0.23380 0.54937 -0.36600
C 	C 	0.95916 0.23810 0.49973 0.38500
O 	O 	0.93293 0.68763 0.05387 -0.33400
O 	O 	0.94889 0.70107 0.53931 -0.35600
C 	C 	0.92578 0.21143 0.02967 0.37100
C 	C 	0.94750 0.71152 0.01119 0.37100
C 	C 	0.96091 0.71745 0.49267 0.38900
F 	F 	0.99103 0.31816 0.43926 -0.38400
F 	F 	0.96288 0.78963 0.95475 -0.34100
C 	C 	0.00715 0.26237 0.47572 -0.17700
C 	C 	0.97467 0.24664 0.01372 -0.18700
F 	F 	0.97849 0.19501 0.95261 -0.33900
F 	F 	0.97310 0.30078 0.07279 -0.38400
C 	C 	0.99410 0.75391 0.00884 -0.17700
