data_crystal

_cell_length_a 47.58154
_cell_length_b 46.96445
_cell_length_c 29.93297
_cell_angle_alpha 92.27890
_cell_angle_beta  88.01055
_cell_angle_gamma 89.89703

_symmetry_space_group_name_	'P 1'
_symmetry_space_group_name_H-M	'P 1'

loop_
_symmetry_equiv_pos_as_xyz
  x,y,z

loop_
_atom_site_label
_atom_site_type_symbol
_atom_site_fract_x
_atom_site_fract_y
_atom_site_fract_z
_atom_site_charge
Cd	Cd	0.98721 0.82604 0.24944 1.25100
Cd	Cd	0.95729 0.85144 0.35472 1.22800
O 	O 	0.98722 0.77434 0.23298 -0.21900
O 	O 	0.00229 0.80424 0.18307 -0.30100
C 	C 	0.99797 0.77783 0.19309 0.29200
O 	O 	0.98494 0.87320 0.24224 -0.35700
O 	O 	0.98154 0.88450 0.31735 -0.39500
C 	C 	0.97674 0.89077 0.27576 0.32800
C 	C 	0.92779 0.82837 0.26318 0.35400
O 	O 	0.99523 0.82162 0.33566 -0.38200
O 	O 	0.93445 0.82518 0.22051 -0.21900
O 	O 	0.94837 0.82649 0.28998 -0.51200
C 	C 	0.02126 0.82905 0.32792 0.33800
O 	O 	0.02913 0.83084 0.28588 -0.33200
Cd	Cd	0.99872 0.86222 0.93405 1.25000
Cd	Cd	0.99000 0.89329 0.82887 1.19900
O 	O 	0.01674 0.81311 0.93520 -0.22000
O 	O 	0.01013 0.83942 0.99727 -0.28200
C 	C 	0.01810 0.81516 0.97846 0.27500
O 	O 	0.98943 0.90825 0.95130 -0.35400
O 	O 	0.96712 0.91694 0.88629 -0.38100
C 	C 	0.97830 0.92626 0.92387 0.32400
C 	C 	0.04677 0.88173 0.88485 0.34300
O 	O 	0.97035 0.85347 0.86102 -0.42400
O 	O 	0.05285 0.87729 0.92627 -0.19600
O 	O 	0.02195 0.87365 0.87341 -0.52000
C 	C 	0.94745 0.85314 0.88612 0.34000
O 	O 	0.95111 0.85309 0.92917 -0.29000
C 	C 	0.07088 0.63081 0.89617 0.16900
N 	N 	0.05645 0.60704 0.90722 -0.10100
C 	C 	0.05628 0.58392 0.87843 0.14900
N 	N 	0.07015 0.58488 0.83806 -0.13500
C 	C 	0.08429 0.60874 0.82653 0.14600
N 	N 	0.08502 0.63146 0.85600 -0.12100
C 	C 	0.08922 0.62040 0.28909 0.16700
N 	N 	0.07622 0.59522 0.27980 -0.10600
C 	C 	0.07732 0.57374 0.30878 0.14800
N 	N 	0.09124 0.57765 0.34736 -0.13400
C 	C 	0.10344 0.60306 0.35766 0.14500
N 	N 	0.10270 0.62431 0.32819 -0.12000
Cd	Cd	0.85565 0.96443 0.75306 1.25000
Cd	Cd	0.87653 0.96952 0.86676 1.21200
O 	O 	0.80494 0.96220 0.74079 -0.25500
O 	O 	0.83547 0.96658 0.68473 -0.28800
C 	C 	0.80922 0.96445 0.69802 0.28900
O 	O 	0.90197 0.97294 0.74767 -0.34600
O 	O 	0.91176 0.95769 0.81736 -0.38300
C 	C 	0.91881 0.97225 0.78192 0.32000
C 	C 	0.85217 0.01762 0.80185 0.35900
O 	O 	0.85142 0.93575 0.82627 -0.41700
O 	O 	0.84947 0.02112 0.75910 -0.26400
O 	O 	0.85212 0.99145 0.81380 -0.50500
C 	C 	0.86196 0.91370 0.80377 0.34200
O 	O 	0.86455 0.91634 0.76050 -0.27900
Cd	Cd	0.82443 0.93400 0.41793 1.25300
Cd	Cd	0.86288 0.94593 0.31630 1.19700
O 	O 	0.77378 0.92501 0.41305 -0.27000
O 	O 	0.79518 0.92212 0.47674 -0.24600
C 	C 	0.77183 0.92013 0.45541 0.27400
O 	O 	0.86969 0.93352 0.43708 -0.32500
O 	O 	0.88522 0.95985 0.37830 -0.39700
C 	C 	0.89051 0.94347 0.41171 0.35000
C 	C 	0.83920 0.88666 0.35917 0.35400
O 	O 	0.82550 0.96994 0.35271 -0.43100
O 	O 	0.83051 0.87835 0.39844 -0.22200
O 	O 	0.83598 0.91363 0.35292 -0.51900
C 	C 	0.82735 0.99053 0.38297 0.33600
O 	O 	0.82406 0.98320 0.42442 -0.26900
C 	C 	0.63572 0.02364 0.78068 0.16300
N 	N 	0.61176 0.03765 0.77130 -0.11800
C 	C 	0.58909 0.03716 0.80014 0.14700
N 	N 	0.59044 0.02257 0.83827 -0.13300
C 	C 	0.61437 0.00866 0.84780 0.14900
N 	N 	0.63694 0.00904 0.81886 -0.10100
C 	C 	0.59267 0.96811 0.38246 0.16300
N 	N 	0.59617 0.96242 0.33774 -0.09500
C 	C 	0.57522 0.96817 0.30981 0.15300
N 	N 	0.55006 0.97787 0.32696 -0.13400
C 	C 	0.54602 0.98250 0.37179 0.14600
N 	N 	0.56748 0.97800 0.39952 -0.12100
Cd	Cd	0.94859 0.07311 0.25023 1.25100
Cd	Cd	0.95417 0.04572 0.35871 1.19700
O 	O 	0.95568 0.12449 0.24342 -0.21300
O 	O 	0.94799 0.09663 0.18465 -0.29800
C 	C 	0.95171 0.12251 0.20072 0.29400
O 	O 	0.94859 0.02555 0.23773 -0.33400
O 	O 	0.93340 0.01626 0.30915 -0.42100
C 	C 	0.94484 0.00750 0.27028 0.32100
C 	C 	0.00262 0.06512 0.28585 0.37000
O 	O 	0.92391 0.07865 0.33032 -0.41200
O 	O 	0.00473 0.06916 0.24289 -0.22500
O 	O 	0.97779 0.06930 0.30403 -0.51500
C 	C 	0.90010 0.07304 0.31152 0.35600
O 	O 	0.90105 0.07230 0.26787 -0.29500
Cd	Cd	0.95018 0.11051 0.97867 1.25000
Cd	Cd	0.96368 0.08605 0.86533 1.22200
O 	O 	0.93599 0.16049 0.99040 -0.25900
O 	O 	0.93470 0.13117 0.04574 -0.29600
C 	C 	0.93013 0.15679 0.03241 0.29900
O 	O 	0.95595 0.06314 0.98276 -0.34300
O 	O 	0.98125 0.05768 0.91626 -0.38100
C 	C 	0.96651 0.04662 0.94933 0.32700
C 	C 	0.90427 0.09652 0.92341 0.35900
O 	O 	0.98326 0.12189 0.90979 -0.41300
O 	O 	0.89602 0.09966 0.96540 -0.26800
O 	O 	0.93003 0.10393 0.91462 -0.49600
C 	C 	0.00454 0.11925 0.93561 0.33800
O 	O 	0.99829 0.11667 0.97807 -0.27600
C 	C 	0.85157 0.30405 0.91551 0.15900
N 	N 	0.86620 0.32832 0.92433 -0.12300
C 	C 	0.86726 0.34925 0.89428 0.14600
N 	N 	0.85376 0.34574 0.85522 -0.13300
C 	C 	0.83931 0.32143 0.84607 0.14800
N 	N 	0.83764 0.30090 0.87676 -0.09400
C 	C 	0.87712 0.29144 0.30934 0.16700
N 	N 	0.86581 0.29183 0.35168 -0.11900
C 	C 	0.86916 0.31500 0.37956 0.14600
N 	N 	0.88356 0.33794 0.36484 -0.13400
C 	C 	0.89476 0.33773 0.32248 0.15100
N 	N 	0.89167 0.31437 0.29493 -0.10400
Cd	Cd	0.09717 0.02072 0.75765 1.25400
Cd	Cd	0.07653 0.99995 0.86676 1.18500
O 	O 	0.14752 0.02755 0.74052 -0.26700
O 	O 	0.11617 0.03195 0.68925 -0.25200
C 	C 	0.14242 0.03414 0.69986 0.27500
O 	O 	0.05146 0.01037 0.75243 -0.33700
O 	O 	0.04071 0.01635 0.82755 -0.40400
C 	C 	0.03404 0.00691 0.78721 0.32600
C 	C 	0.10391 0.96315 0.78116 0.34300
O 	O 	0.10020 0.03959 0.84132 -0.42800
O 	O 	0.10651 0.96525 0.73773 -0.21800
O 	O 	0.10267 0.98705 0.80409 -0.53300
C 	C 	0.08886 0.06329 0.82954 0.34100
O 	O 	0.08571 0.06562 0.78672 -0.26100
Cd	Cd	0.06896 0.95901 0.47260 1.25000
Cd	Cd	0.05793 0.93696 0.35884 1.21300
O 	O 	0.11616 0.97545 0.49184 -0.25100
O 	O 	0.08041 0.98018 0.53958 -0.30300
C 	C 	0.10675 0.98582 0.53040 0.29200
O 	O 	0.02235 0.95352 0.46994 -0.33900
O 	O 	0.02301 0.92390 0.40685 -0.39500
C 	C 	0.00922 0.94092 0.43624 0.35500
C 	C 	0.06243 0.00100 0.40748 0.36300
O 	O 	0.08722 0.92082 0.41266 -0.41300
O 	O 	0.06045 0.01236 0.44796 -0.25800
O 	O 	0.07016 0.97449 0.40453 -0.50100
C 	C 	0.08089 0.90109 0.44060 0.35200
O 	O 	0.07410 0.91032 0.48136 -0.32100
C 	C 	0.27792 0.15049 0.81387 0.16100
N 	N 	0.30598 0.15231 0.80496 -0.11600
C 	C 	0.32322 0.16323 0.83646 0.15000
N 	N 	0.31222 0.17257 0.87692 -0.13400
C 	C 	0.28405 0.17110 0.88592 0.15200
N 	N 	0.26691 0.16049 0.85391 -0.10900
C 	C 	0.22941 0.10982 0.40532 0.16400
N 	N 	0.25585 0.10119 0.41409 -0.11900
C 	C 	0.27795 0.10850 0.38704 0.14900
N 	N 	0.27350 0.12440 0.35104 -0.13300
C 	C 	0.24711 0.13299 0.34195 0.15000
N 	N 	0.22511 0.12610 0.36963 -0.09800
C 	C 	0.27268 0.17728 0.93212 -0.00100
C 	C 	0.28976 0.19028 0.96449 -0.01300
C 	C 	0.28097 0.19148 0.00958 -0.03400
C 	C 	0.25492 0.18001 0.02277 0.03100
C 	C 	0.23689 0.16916 0.99021 -0.04100
C 	C 	0.24564 0.16787 0.94512 0.00300
C 	C 	0.24806 0.17625 0.07060 0.01500
C 	C 	0.24596 0.14872 0.08694 -0.02600
C 	C 	0.24196 0.14495 0.13275 -0.02800
C 	C 	0.23996 0.16868 0.16272 0.01800
C 	C 	0.24123 0.19626 0.14629 -0.02900
C 	C 	0.24531 0.20003 0.10038 -0.02700
C 	C 	0.23863 0.16452 0.21138 0.02300
C 	C 	0.26069 0.17415 0.23794 -0.03400
C 	C 	0.26236 0.16551 0.28192 -0.01200
C 	C 	0.24210 0.14696 0.29964 0.00500
C 	C 	0.21895 0.13902 0.27409 -0.00800
C 	C 	0.21718 0.14786 0.23023 -0.02400
H 	H 	0.31021 0.19866 0.95498 0.05700
H 	H 	0.29488 0.20028 0.03445 0.05700
H 	H 	0.21650 0.16077 0.00002 0.08000
H 	H 	0.23175 0.15866 0.92060 0.09800
H 	H 	0.24817 0.13024 0.06423 0.06900
H 	H 	0.24118 0.12358 0.14510 0.06600
H 	H 	0.23955 0.21472 0.16912 0.06200
H 	H 	0.24676 0.22137 0.08804 0.06000
H 	H 	0.27721 0.18726 0.22387 0.05700
H 	H 	0.27999 0.17232 0.30161 0.06000
H 	H 	0.20312 0.12482 0.28729 0.12000
H 	H 	0.19982 0.14070 0.21022 0.07800
C 	C 	0.16454 0.03629 0.54470 0.02500
C 	C 	0.15101 0.06008 0.52817 0.10600
C 	C 	0.12130 0.06213 0.53260 -0.09800
C 	C 	0.10586 0.03783 0.54414 0.08200
C 	C 	0.11972 0.01184 0.54929 0.01400
C 	C 	0.14890 0.01216 0.55631 -0.07100
C 	C 	0.16693 0.07795 0.49636 0.08500
C 	C 	0.10574 0.08834 0.51857 0.79500
H 	H 	0.08313 0.03811 0.54261 0.09800
C 	C 	0.16388 0.98551 0.56966 0.77500
H 	H 	0.18732 0.03537 0.54380 0.12600
C 	C 	0.18670 0.09835 0.51143 -0.08900
C 	C 	0.20613 0.10962 0.48045 0.05200
C 	C 	0.20557 0.10161 0.43487 0.05500
C 	C 	0.18433 0.08292 0.41932 -0.08900
C 	C 	0.16497 0.07161 0.45041 0.04500
C 	C 	0.18918 0.10604 0.56076 0.78700
H 	H 	0.22254 0.12379 0.49205 0.10300
C 	C 	0.18173 0.07562 0.36971 0.78500
H 	H 	0.14909 0.05671 0.43920 0.11000
F 	F 	0.18887 0.99223 0.58980 -0.40700
F 	F 	0.16978 0.96815 0.53210 -0.40600
F 	F 	0.14719 0.97079 0.59964 -0.41500
F 	F 	0.10024 0.08547 0.47357 -0.42500
F 	F 	0.12120 0.11286 0.52604 -0.37000
F 	F 	0.08048 0.09145 0.54266 -0.38400
F 	F 	0.16207 0.05442 0.36214 -0.42000
F 	F 	0.20721 0.06607 0.35106 -0.43400
F 	F 	0.17329 0.09959 0.34838 -0.42500
F 	F 	0.20178 0.13238 0.56681 -0.36800
F 	F 	0.20535 0.08569 0.57998 -0.40700
F 	F 	0.16310 0.10746 0.58241 -0.37200
C 	C 	0.17959 0.10086 0.68767 0.05000
C 	C 	0.20701 0.09006 0.68988 0.11100
C 	C 	0.21252 0.06162 0.67429 -0.09000
C 	C 	0.18977 0.04295 0.66826 0.07900
C 	C 	0.16211 0.05276 0.67578 0.02500
C 	C 	0.15725 0.08249 0.67739 -0.06100
C 	C 	0.22682 0.10499 0.72001 0.08300
C 	C 	0.24224 0.04995 0.67015 0.79200
H 	H 	0.19366 0.02024 0.66426 0.12700
C 	C 	0.12798 0.09445 0.67292 0.78800
H 	H 	0.17527 0.12284 0.69804 0.13200
C 	C 	0.24043 0.13057 0.70803 -0.09600
C 	C 	0.25595 0.14579 0.74021 0.04800
C 	C 	0.26010 0.13470 0.78227 0.04900
C 	C 	0.24851 0.10792 0.79274 -0.08700
C 	C 	0.23048 0.09433 0.76254 0.04300
C 	C 	0.23788 0.14215 0.66170 0.78800
H 	H 	0.26500 0.16626 0.73252 0.09100
C 	C 	0.25443 0.09419 0.83660 0.78400
H 	H 	0.21925 0.07530 0.77197 0.11000
F 	F 	0.11405 0.07927 0.63992 -0.38900
F 	F 	0.12905 0.12268 0.66128 -0.36000
F 	F 	0.11305 0.09287 0.71315 -0.42000
F 	F 	0.24922 0.03840 0.71007 -0.41200
F 	F 	0.26139 0.07098 0.65974 -0.38600
F 	F 	0.24423 0.02885 0.63654 -0.38200
F 	F 	0.24701 0.06567 0.83533 -0.40800
F 	F 	0.23909 0.10797 0.87109 -0.44200
F 	F 	0.28277 0.09570 0.84534 -0.42800
F 	F 	0.25777 0.16298 0.65361 -0.41300
F 	F 	0.21151 0.15398 0.65786 -0.39100
F 	F 	0.24200 0.12064 0.62930 -0.36000
C 	C 	0.83029 0.31520 0.80029 0.00800
C 	C 	0.84355 0.29328 0.77417 -0.00400
C 	C 	0.84000 0.29129 0.72801 -0.02500
C 	C 	0.82289 0.31104 0.70759 0.02300
C 	C 	0.80784 0.33153 0.73432 -0.03300
C 	C 	0.81178 0.33379 0.78042 -0.01200
C 	C 	0.82363 0.31256 0.65827 0.01800
C 	C 	0.83147 0.33804 0.63825 -0.03000
C 	C 	0.83619 0.33855 0.59198 -0.02900
C 	C 	0.83361 0.31351 0.56527 0.01500
C 	C 	0.82446 0.28835 0.58494 -0.02500
C 	C 	0.81930 0.28793 0.63122 -0.02700
C 	C 	0.84280 0.31312 0.51759 0.02600
C 	C 	0.87027 0.32138 0.50547 -0.03700
C 	C 	0.87881 0.32199 0.46043 -0.00700
C 	C 	0.86010 0.31401 0.42698 -0.00800
C 	C 	0.83280 0.30517 0.43902 -0.00300
C 	C 	0.82413 0.30485 0.48418 -0.03400
H 	H 	0.85795 0.27887 0.78917 0.11800
H 	H 	0.85167 0.27534 0.70784 0.07400
H 	H 	0.79408 0.34648 0.71910 0.06100
H 	H 	0.80125 0.35063 0.80039 0.06100
H 	H 	0.83490 0.35718 0.65870 0.05400
H 	H 	0.84278 0.35820 0.57702 0.05500
H 	H 	0.82221 0.26894 0.56460 0.07000
H 	H 	0.81281 0.26826 0.64619 0.07200
H 	H 	0.88498 0.32739 0.53100 0.06100
H 	H 	0.90005 0.32846 0.45151 0.05800
H 	H 	0.81820 0.29894 0.41345 0.07700
H 	H 	0.80287 0.29846 0.49315 0.06900
C 	C 	0.04200 0.12239 0.87663 -0.09400
C 	C 	0.03212 0.11047 0.91638 -0.12100
C 	C 	0.04578 0.08647 0.93211 0.34300
C 	C 	0.06624 0.07224 0.90511 -0.07600
C 	C 	0.07336 0.08205 0.86246 -0.13200
C 	C 	0.06268 0.10835 0.84982 0.36000
F 	F 	0.07154 0.11975 0.81081 -0.38300
H 	H 	0.03248 0.14166 0.86524 0.12200
H 	H 	0.07535 0.05272 0.91630 0.05100
F 	F 	0.03782 0.07574 0.97203 -0.39100
C 	C 	0.86537 0.23247 0.96558 0.03800
C 	C 	0.86060 0.23937 0.01121 0.09100
C 	C 	0.84896 0.26626 0.02468 -0.09100
C 	C 	0.84494 0.28664 0.99227 0.04000
C 	C 	0.85217 0.28060 0.94700 0.05400
C 	C 	0.86265 0.25317 0.93336 -0.08700
C 	C 	0.87282 0.22045 0.04402 0.10900
C 	C 	0.84337 0.27447 0.07373 0.78900
H 	H 	0.83723 0.30772 0.00249 0.10100
C 	C 	0.87107 0.24582 0.88475 0.78200
H 	H 	0.87321 0.21141 0.95562 0.11900
C 	C 	0.86263 0.19231 0.04806 -0.09400
C 	C 	0.88190 0.17040 0.05549 0.08300
C 	C 	0.91069 0.17645 0.05708 0.00300
C 	C 	0.91905 0.20498 0.06544 -0.07800
C 	C 	0.89972 0.22695 0.05914 0.03100
C 	C 	0.83257 0.18474 0.03764 0.79700
H 	H 	0.87512 0.14838 0.05316 0.10400
C 	C 	0.94956 0.21243 0.07222 0.77600
H 	H 	0.90694 0.24883 0.05933 0.12100
F 	F 	0.88559 0.22023 0.88024 -0.41200
F 	F 	0.88843 0.26665 0.86763 -0.44000
F 	F 	0.84723 0.24339 0.85978 -0.42300
F 	F 	0.86789 0.28456 0.09199 -0.40500
F 	F 	0.83386 0.25143 0.09726 -0.35000
F 	F 	0.82305 0.29561 0.07872 -0.38600
F 	F 	0.95139 0.23510 0.10295 -0.41200
F 	F 	0.96190 0.22006 0.03196 -0.40700
F 	F 	0.96428 0.18969 0.08793 -0.40700
F 	F 	0.82348 0.16229 0.06296 -0.36800
F 	F 	0.83111 0.17674 0.99283 -0.41700
F 	F 	0.81458 0.20750 0.04714 -0.36800
C 	C 	0.01688 0.01832 0.31200 -0.11600
C 	C 	0.02287 0.04724 0.30748 -0.14600
C 	C 	0.04472 0.05981 0.33150 0.35700
C 	C 	0.05904 0.04396 0.36219 -0.07000
C 	C 	0.05134 0.01561 0.36936 -0.15300
C 	C 	0.03039 0.00275 0.34362 0.32800
F 	F 	0.02116 0.97619 0.35226 -0.55200
H 	H 	0.00019 0.00850 0.29347 0.08600
H 	H 	0.07527 0.05405 0.38176 0.14600
F 	F 	0.05099 0.08776 0.32698 -0.38600
C 	C 	0.93888 0.19850 0.19151 0.05300
C 	C 	0.90947 0.19711 0.19480 0.08900
C 	C 	0.89584 0.17250 0.17749 -0.10200
C 	C 	0.91178 0.14742 0.16919 0.07700
C 	C 	0.94052 0.14723 0.17839 0.02800
C 	C 	0.95471 0.17354 0.18249 -0.04200
C 	C 	0.89415 0.21801 0.22512 0.09500
C 	C 	0.86419 0.17196 0.17312 0.78700
H 	H 	0.90129 0.12743 0.16169 0.09700
C 	C 	0.98644 0.17459 0.18378 0.78500
H 	H 	0.94938 0.21820 0.20091 0.12100
C 	C 	0.89485 0.21590 0.27232 -0.10000
C 	C 	0.88738 0.23979 0.29999 0.05400
C 	C 	0.87743 0.26471 0.28166 0.04900
C 	C 	0.87190 0.26473 0.23552 -0.07900
C 	C 	0.88230 0.24225 0.20720 0.04800
C 	C 	0.90632 0.18946 0.29322 0.78500
H 	H 	0.89091 0.23962 0.33555 0.09300
C 	C 	0.85592 0.28896 0.21593 0.78500
H 	H 	0.88174 0.24390 0.17120 0.14100
F 	F 	0.99464 0.17197 0.22730 -0.38700
F 	F 	0.99640 0.20018 0.16825 -0.37400
F 	F 	0.99839 0.15272 0.15710 -0.39100
F 	F 	0.85534 0.19605 0.15249 -0.39600
F 	F 	0.85115 0.17109 0.21504 -0.37500
F 	F 	0.85584 0.14840 0.14773 -0.39800
F 	F 	0.87468 0.30940 0.20160 -0.40700
F 	F 	0.83691 0.30131 0.24701 -0.41100
F 	F 	0.84085 0.27901 0.17991 -0.35100
F 	F 	0.89866 0.18895 0.33824 -0.41200
F 	F 	0.93535 0.18926 0.28912 -0.41600
F 	F 	0.89596 0.16495 0.27281 -0.40600
C 	C 	0.51871 0.99335 0.38988 -0.00900
C 	C 	0.51753 0.01674 0.42061 -0.00400
C 	C 	0.49174 0.02994 0.43210 -0.03600
C 	C 	0.46695 0.01977 0.41303 0.02500
C 	C 	0.46798 0.99545 0.38424 -0.03900
C 	C 	0.49371 0.98229 0.37278 -0.00600
C 	C 	0.44045 0.03606 0.41963 0.01400
C 	C 	0.41617 0.02278 0.43669 -0.02700
C 	C 	0.39006 0.03641 0.43564 -0.02800
C 	C 	0.38804 0.06347 0.41769 0.01600
C 	C 	0.41255 0.07743 0.40313 -0.03000
C 	C 	0.43863 0.06377 0.40402 -0.03000
C 	C 	0.36020 0.07592 0.41012 0.02500
C 	C 	0.34169 0.08293 0.44642 -0.03300
C 	C 	0.31493 0.09381 0.43898 -0.00300
C 	C 	0.30644 0.09773 0.39512 -0.00600
C 	C 	0.32512 0.09089 0.35888 -0.00600
C 	C 	0.35183 0.08004 0.36636 -0.03800
H 	H 	0.53668 0.02541 0.43417 0.07500
H 	H 	0.49113 0.04853 0.45472 0.06600
H 	H 	0.44896 0.98736 0.36948 0.06200
H 	H 	0.49432 0.96398 0.34956 0.06000
H 	H 	0.41739 0.00151 0.44926 0.06500
H 	H 	0.37128 0.02553 0.44723 0.06900
H 	H 	0.41124 0.09847 0.38973 0.05700
H 	H 	0.45725 0.07425 0.39091 0.05700
H 	H 	0.34801 0.07990 0.48034 0.07400
H 	H 	0.30086 0.09926 0.46728 0.08100
H 	H 	0.31879 0.09353 0.32486 0.06000
H 	H 	0.36591 0.07448 0.33812 0.05900
C 	C 	0.56352 0.05340 0.79123 -0.00700
C 	C 	0.53695 0.04209 0.80190 -0.00700
C 	C 	0.51281 0.05872 0.79870 -0.03800
C 	C 	0.51496 0.08681 0.78466 0.02400
C 	C 	0.54139 0.09779 0.77232 -0.03500
C 	C 	0.56559 0.08113 0.77553 -0.00400
C 	C 	0.48975 0.10515 0.78557 0.01400
C 	C 	0.46663 0.09722 0.76007 -0.02900
C 	C 	0.44110 0.11180 0.76643 -0.02900
C 	C 	0.43851 0.13457 0.79817 0.01400
C 	C 	0.46211 0.14359 0.82171 -0.03000
C 	C 	0.48762 0.12890 0.81550 -0.03000
C 	C 	0.41054 0.14683 0.81004 0.02500
C 	C 	0.39894 0.14431 0.85346 -0.03800
C 	C 	0.37080 0.15150 0.86294 -0.00400
C 	C 	0.35393 0.16112 0.82900 -0.00800
C 	C 	0.36605 0.16540 0.78634 -0.00400
C 	C 	0.39424 0.15832 0.77692 -0.03600
H 	H 	0.53505 0.02059 0.81348 0.05900
H 	H 	0.49248 0.05004 0.80819 0.06100
H 	H 	0.54323 0.11938 0.76113 0.06700
H 	H 	0.58598 0.09011 0.76721 0.07900
H 	H 	0.46817 0.07912 0.73651 0.06200
H 	H 	0.42304 0.10472 0.74797 0.06500
H 	H 	0.46043 0.16136 0.84588 0.05600
H 	H 	0.50540 0.13528 0.83519 0.05900
H 	H 	0.41138 0.13559 0.87933 0.05900
H 	H 	0.36177 0.14824 0.89606 0.06200
H 	H 	0.35339 0.17335 0.76011 0.06700
H 	H 	0.40314 0.16083 0.74351 0.06400
C 	C 	0.61660 0.99557 0.89122 0.00100
C 	C 	0.59936 0.97247 0.90194 -0.01000
C 	C 	0.59776 0.96312 0.94573 -0.03300
C 	C 	0.61293 0.97724 0.97937 0.01900
C 	C 	0.63133 0.99939 0.96803 -0.03000
C 	C 	0.63329 0.00837 0.92404 -0.00200
C 	C 	0.60728 0.97099 0.02691 0.02200
C 	C 	0.57965 0.97240 0.04500 -0.03000
C 	C 	0.57450 0.96943 0.09080 -0.02800
C 	C 	0.59694 0.96554 0.11918 0.01600
C 	C 	0.62447 0.96310 0.10095 -0.02400
C 	C 	0.62960 0.96563 0.05496 -0.02700
C 	C 	0.59179 0.96623 0.16819 0.02800
C 	C 	0.60013 0.94329 0.19343 -0.03000
C 	C 	0.59481 0.94391 0.23976 0.00400
C 	C 	0.58084 0.96733 0.26109 0.00500
C 	C 	0.57267 0.99031 0.23585 -0.00100
C 	C 	0.57824 0.98982 0.18972 -0.03400
H 	H 	0.58657 0.96231 0.87668 0.06300
H 	H 	0.58394 0.94562 0.95387 0.06100
H 	H 	0.64319 0.01043 0.99361 0.07200
H 	H 	0.64673 0.02617 0.91598 0.10200
H 	H 	0.56226 0.97658 0.02376 0.05700
H 	H 	0.55313 0.97094 0.10444 0.05600
H 	H 	0.64194 0.95999 0.12252 0.07100
H 	H 	0.65096 0.96410 0.04130 0.07000
H 	H 	0.61054 0.92494 0.17715 0.07100
H 	H 	0.60127 0.92609 0.25894 0.08200
H 	H 	0.56229 0.00869 0.25206 0.06700
H 	H 	0.57207 0.00781 0.17067 0.06400
C 	C 	0.83439 0.03065 0.33243 -0.09500
C 	C 	0.84112 0.01743 0.37186 -0.12200
C 	C 	0.86406 0.02743 0.39632 0.33900
C 	C 	0.88203 0.04789 0.37851 -0.08000
C 	C 	0.87725 0.05848 0.33617 -0.13200
C 	C 	0.85215 0.05138 0.31490 0.36000
F 	F 	0.84552 0.06374 0.27638 -0.39100
H 	H 	0.81607 0.02392 0.31431 0.11900
H 	H 	0.90053 0.05424 0.39644 0.04800
F 	F 	0.87007 0.01593 0.43579 -0.41900
C 	C 	0.93423 0.96748 0.43616 -0.09100
C 	C 	0.91956 0.94211 0.42695 -0.10400
C 	C 	0.93416 0.91605 0.42465 0.33700
C 	C 	0.96336 0.91556 0.42936 -0.08900
C 	C 	0.97818 0.94108 0.43684 -0.11400
C 	C 	0.96337 0.96700 0.44115 0.34200
F 	F 	0.97740 0.99189 0.44774 -0.45400
H 	H 	0.92320 0.98773 0.43763 0.10700
H 	H 	0.97454 0.89542 0.42617 0.07700
F 	F 	0.92032 0.89138 0.41533 -0.48200
C 	C 	0.70425 0.94536 0.50551 0.03100
C 	C 	0.68682 0.92957 0.47691 0.11400
C 	C 	0.69692 0.90348 0.45681 -0.10700
C 	C 	0.72568 0.89693 0.45886 0.07900
C 	C 	0.74420 0.91662 0.47817 0.02400
C 	C 	0.73305 0.93867 0.50704 -0.05600
C 	C 	0.66242 0.94413 0.45840 0.08000
C 	C 	0.67854 0.88524 0.42672 0.79200
H 	H 	0.73426 0.87864 0.43975 0.10100
C 	C 	0.75214 0.95680 0.53585 0.78000
H 	H 	0.69607 0.96451 0.52277 0.15700
C 	C 	0.63487 0.94113 0.47696 -0.07700
C 	C 	0.61190 0.94989 0.45229 0.05300
C 	C 	0.61642 0.96417 0.41228 0.06000
C 	C 	0.64408 0.97250 0.39955 -0.08700
C 	C 	0.66686 0.96058 0.42076 0.05400
C 	C 	0.63016 0.93107 0.52421 0.78400
H 	H 	0.59061 0.94513 0.46357 0.10000
C 	C 	0.64959 0.99382 0.36348 0.78300
H 	H 	0.68813 0.96398 0.40791 0.10600
F 	F 	0.77084 0.93967 0.55691 -0.38700
F 	F 	0.73690 0.97232 0.56857 -0.38200
F 	F 	0.76694 0.97558 0.50955 -0.41100
F 	F 	0.67770 0.89699 0.38516 -0.42400
F 	F 	0.65148 0.88343 0.44462 -0.39200
F 	F 	0.68908 0.85777 0.42131 -0.40200
F 	F 	0.67443 0.00833 0.37077 -0.40600
F 	F 	0.62822 0.01385 0.36330 -0.42500
F 	F 	0.65186 0.97966 0.32212 -0.42100
F 	F 	0.60182 0.92932 0.53590 -0.40400
F 	F 	0.64244 0.95014 0.55393 -0.37800
F 	F 	0.64201 0.90445 0.52837 -0.37500
C 	C 	0.95480 0.01050 0.78487 -0.10300
C 	C 	0.94810 0.98178 0.77620 -0.11900
C 	C 	0.96981 0.96172 0.76794 0.33600
C 	C 	0.99797 0.97029 0.76930 -0.11200
C 	C 	0.00466 0.99885 0.77945 -0.11700
C 	C 	0.98296 0.01902 0.78668 0.33900
F 	F 	0.98914 0.04674 0.79643 -0.50200
H 	H 	0.93820 0.02606 0.79175 0.06100
H 	H 	0.01455 0.95456 0.76408 0.08600
F 	F 	0.96362 0.93381 0.76002 -0.48600
C 	C 	0.88051 0.06138 0.81557 -0.08100
C 	C 	0.86206 0.04064 0.83190 -0.15300
C 	C 	0.85556 0.04014 0.87796 0.31800
C 	C 	0.86872 0.05901 0.90762 -0.08100
C 	C 	0.88837 0.07874 0.89159 -0.15200
C 	C 	0.89353 0.08047 0.84524 0.32100
F 	F 	0.91111 0.10061 0.82896 -0.47900
H 	H 	0.88548 0.06213 0.78003 0.11100
H 	H 	0.86418 0.05777 0.94320 0.11400
F 	F 	0.83685 0.02096 0.89406 -0.46200
C 	C 	0.73532 0.96826 0.67136 0.04800
C 	C 	0.73278 0.99802 0.67034 0.11300
C 	C 	0.75687 0.01428 0.65873 -0.09800
C 	C 	0.78359 0.00145 0.65966 0.08700
C 	C 	0.78604 0.97273 0.67001 0.02500
C 	C 	0.76196 0.95535 0.66818 -0.05000
C 	C 	0.70783 0.01187 0.69314 0.08700
C 	C 	0.75471 0.04587 0.65085 0.79200
H 	H 	0.80231 0.01453 0.65757 0.09800
C 	C 	0.76445 0.92328 0.66902 0.78300
H 	H 	0.71693 0.95548 0.67875 0.12800
C 	C 	0.68058 0.00841 0.67600 -0.09400
C 	C 	0.65695 0.01303 0.70497 0.04900
C 	C 	0.66012 0.02370 0.74894 0.05200
C 	C 	0.68705 0.03214 0.76302 -0.08700
C 	C 	0.71078 0.02444 0.73606 0.04500
C 	C 	0.67652 0.99831 0.62789 0.78600
H 	H 	0.63617 0.00741 0.69383 0.09800
C 	C 	0.69084 0.04800 0.80756 0.78400
H 	H 	0.73161 0.02709 0.74917 0.11600
F 	F 	0.78942 0.91401 0.64815 -0.38700
F 	F 	0.74249 0.91044 0.64680 -0.37700
F 	F 	0.76364 0.91500 0.71285 -0.41200
F 	F 	0.75822 0.06117 0.69067 -0.41100
F 	F 	0.72896 0.05279 0.63410 -0.37500
F 	F 	0.77542 0.05379 0.62023 -0.38800
F 	F 	0.71569 0.06330 0.80699 -0.39500
F 	F 	0.69169 0.02873 0.84123 -0.43000
F 	F 	0.66905 0.06713 0.81686 -0.42400
F 	F 	0.65013 0.00580 0.61408 -0.39200
F 	F 	0.67914 0.96900 0.62408 -0.38700
F 	F 	0.69618 0.01054 0.59954 -0.36300
C 	C 	0.06055 0.54766 0.30118 -0.00100
C 	C 	0.05530 0.53747 0.25747 -0.00900
C 	C 	0.03847 0.51339 0.25056 -0.02900
C 	C 	0.02689 0.49924 0.28724 0.02200
C 	C 	0.03234 0.50922 0.33083 -0.03700
C 	C 	0.04904 0.53328 0.33781 -0.01100
C 	C 	0.00856 0.47434 0.28024 0.01600
C 	C 	0.98160 0.47786 0.26365 -0.03000
C 	C 	0.96249 0.45528 0.26387 -0.02800
C 	C 	0.97020 0.42903 0.28074 0.01500
C 	C 	0.99764 0.42510 0.29518 -0.03100
C 	C 	0.01675 0.44765 0.29484 -0.02900
C 	C 	0.94898 0.40654 0.28696 0.02500
C 	C 	0.95329 0.37932 0.26686 -0.03300
C 	C 	0.93505 0.35704 0.27724 0.00100
C 	C 	0.91225 0.36182 0.30779 -0.00000
C 	C 	0.90723 0.38941 0.32623 -0.00600
C 	C 	0.92556 0.41162 0.31598 -0.03700
H 	H 	0.06426 0.54813 0.22890 0.10500
H 	H 	0.03443 0.50575 0.21676 0.07100
H 	H 	0.02334 0.49850 0.35933 0.05600
H 	H 	0.05260 0.54102 0.37170 0.05600
H 	H 	0.97513 0.49837 0.25215 0.06400
H 	H 	0.94146 0.45842 0.25216 0.06300
H 	H 	0.00384 0.40489 0.30812 0.06000
H 	H 	0.03760 0.44468 0.30739 0.05900
H 	H 	0.97118 0.37525 0.24409 0.07100
H 	H 	0.93916 0.33592 0.26258 0.08200
H 	H 	0.88941 0.39356 0.34909 0.06300
H 	H 	0.92200 0.43260 0.33156 0.06000
C 	C 	0.88530 0.37439 0.90188 -0.00800
C 	C 	0.87738 0.40097 0.88633 -0.00800
C 	C 	0.89586 0.42403 0.88889 -0.03900
C 	C 	0.92242 0.42077 0.90700 0.02400
C 	C 	0.92994 0.39455 0.92414 -0.03600
C 	C 	0.91146 0.37146 0.92165 -0.00400
C 	C 	0.94299 0.44421 0.90543 0.01400
C 	C 	0.95293 0.45388 0.86404 -0.03000
C 	C 	0.97245 0.47604 0.86240 -0.03000
C 	C 	0.98229 0.48868 0.90213 0.01400
C 	C 	0.97245 0.47895 0.94355 -0.02800
C 	C 	0.95288 0.45678 0.94519 -0.02900
C 	C 	0.00243 0.51250 0.90026 0.02600
C 	C 	0.99449 0.53971 0.91728 -0.03500
C 	C 	0.01251 0.56288 0.91166 -0.00000
C 	C 	0.03865 0.55905 0.88884 -0.00100
C 	C 	0.04699 0.53159 0.87332 -0.00600
C 	C 	0.02897 0.50844 0.87901 -0.03800
H 	H 	0.85709 0.40363 0.87166 0.05700
H 	H 	0.88974 0.44430 0.87606 0.06000
H 	H 	0.95038 0.39185 0.93826 0.06700
H 	H 	0.91787 0.35108 0.93371 0.07600
H 	H 	0.94554 0.44420 0.83317 0.05500
H 	H 	0.97981 0.48351 0.83028 0.05400
H 	H 	0.97995 0.48855 0.97440 0.06300
H 	H 	0.94533 0.44945 0.97730 0.06100
H 	H 	0.97405 0.54304 0.93377 0.06900
H 	H 	0.00576 0.58392 0.92376 0.08100
H 	H 	0.06727 0.52825 0.85631 0.06200
H 	H 	0.03541 0.48744 0.86622 0.06100
C 	C 	0.09523 0.61149 0.78003 -0.00800
C 	C 	0.10456 0.58727 0.75460 -0.00700
C 	C 	0.11139 0.58924 0.70897 -0.03900
C 	C 	0.10904 0.61543 0.68839 0.02500
C 	C 	0.10110 0.63989 0.71420 -0.03500
C 	C 	0.09422 0.63796 0.75976 -0.00400
C 	C 	0.11224 0.61672 0.63930 0.01400
C 	C 	0.13846 0.61140 0.61762 -0.02900
C 	C 	0.14117 0.61182 0.57092 -0.02900
C 	C 	0.11763 0.61746 0.54558 0.01400
C 	C 	0.09150 0.62309 0.56740 -0.02900
C 	C 	0.08884 0.62277 0.61400 -0.02900
C 	C 	0.11984 0.61574 0.49616 0.02400
C 	C 	0.12742 0.58993 0.47367 -0.03900
C 	C 	0.12435 0.58656 0.42748 -0.00700
C 	C 	0.11335 0.60886 0.40338 -0.00700
C 	C 	0.10795 0.63542 0.42535 -0.00500
C 	C 	0.11124 0.63884 0.47152 -0.03500
H 	H 	0.10595 0.56682 0.76992 0.05900
H 	H 	0.11767 0.57026 0.68936 0.05900
H 	H 	0.09945 0.66024 0.69866 0.07100
H 	H 	0.08712 0.65685 0.77886 0.07300
H 	H 	0.15667 0.60682 0.63689 0.06200
H 	H 	0.16144 0.60750 0.55444 0.06100
H 	H 	0.07315 0.62718 0.54818 0.05900
H 	H 	0.06849 0.62680 0.63044 0.05900
H 	H 	0.13445 0.57208 0.49226 0.05800
H 	H 	0.12931 0.56619 0.41077 0.06100
H 	H 	0.09977 0.65295 0.40719 0.07300
H 	H 	0.10589 0.65905 0.48843 0.07000
C 	C 	0.99601 0.97257 0.95517 -0.10100
C 	C 	0.97353 0.95623 0.93924 -0.12000
C 	C 	0.94736 0.96942 0.93369 0.33800
C 	C 	0.94439 0.99895 0.94095 -0.10700
C 	C 	0.96744 0.01554 0.95384 -0.11400
C 	C 	0.99304 0.00210 0.96228 0.33800
F 	F 	0.01545 0.01784 0.97524 -0.41900
H 	H 	0.01618 0.96261 0.95999 0.08700
H 	H 	0.92455 0.00909 0.93440 0.05200
F 	F 	0.92498 0.95373 0.92046 -0.49600
C 	C 	0.91548 0.85656 0.82268 -0.09500
C 	C 	0.92048 0.86199 0.86818 -0.12700
C 	C 	0.90195 0.87988 0.89397 0.35600
C 	C 	0.88094 0.89476 0.87326 -0.08700
C 	C 	0.87847 0.89229 0.82660 -0.12600
C 	C 	0.89456 0.87160 0.80188 0.35700
F 	F 	0.89052 0.86660 0.75760 -0.39900
H 	H 	0.92878 0.84174 0.80291 0.11000
H 	H 	0.86760 0.90944 0.89320 0.07600
F 	F 	0.90536 0.88427 0.93856 -0.40600
C 	C 	0.05830 0.90125 0.81006 -0.09500
C 	C 	0.06544 0.89800 0.85477 -0.15200
C 	C 	0.08945 0.91184 0.87104 0.34300
C 	C 	0.10414 0.93096 0.84445 -0.11700
C 	C 	0.09497 0.93665 0.80167 -0.14600
C 	C 	0.07293 0.92057 0.78364 0.32700
F 	F 	0.06450 0.92496 0.74160 -0.42800
H 	H 	0.04087 0.88951 0.79619 0.02700
H 	H 	0.12166 0.94271 0.85815 0.09400
F 	F 	0.09799 0.90761 0.91307 -0.40400
C 	C 	0.06926 0.75854 0.99372 0.05500
C 	C 	0.04981 0.73633 0.99752 0.08300
C 	C 	0.02295 0.74237 0.01728 -0.09300
C 	C 	0.01325 0.77075 0.01904 0.07500
C 	C 	0.03080 0.79244 0.00345 0.04100
C 	C 	0.05995 0.78697 0.99775 -0.06800
C 	C 	0.05511 0.70925 0.97139 0.09700
C 	C 	0.00395 0.71858 0.03260 0.79100
H 	H 	0.99132 0.77541 0.02731 0.10600
C 	C 	0.08041 0.81092 0.98926 0.77700
H 	H 	0.09073 0.75376 0.98252 0.11600
C 	C 	0.04746 0.70616 0.92601 -0.10100
C 	C 	0.05245 0.68004 0.90259 0.05500
C 	C 	0.06607 0.65764 0.92262 0.04600
C 	C 	0.07512 0.66121 0.96710 -0.07700
C 	C 	0.06886 0.68687 0.99144 0.03300
C 	C 	0.03466 0.73084 0.90209 0.78600
H 	H 	0.04582 0.67701 0.86847 0.08800
C 	C 	0.09075 0.63756 0.98903 0.77800
H 	H 	0.07474 0.68956 0.02600 0.13700
F 	F 	0.08171 0.81616 0.94410 -0.39600
F 	F 	0.10701 0.80375 0.00250 -0.38800
F 	F 	0.07198 0.83550 0.01309 -0.40500
F 	F 	0.01888 0.70006 0.05773 -0.42200
F 	F 	0.99361 0.70375 0.99590 -0.39600
F 	F 	0.98148 0.72912 0.05881 -0.38800
F 	F 	0.10245 0.64714 0.02857 -0.38200
F 	F 	0.11234 0.62710 0.96082 -0.41400
F 	F 	0.07231 0.61571 0.99852 -0.40900
F 	F 	0.02899 0.72337 0.85811 -0.42100
F 	F 	0.05310 0.75353 0.90167 -0.41800
F 	F 	0.00965 0.73939 0.92336 -0.40800
C 	C 	0.93214 0.95723 0.28444 -0.08600
C 	C 	0.94917 0.97653 0.26132 -0.13000
C 	C 	0.97323 0.96631 0.23698 0.34000
C 	C 	0.98153 0.93774 0.23974 -0.08300
C 	C 	0.96585 0.91928 0.26668 -0.11700
C 	C 	0.94072 0.92898 0.28802 0.32100
F 	F 	0.92512 0.91128 0.31361 -0.50600
H 	H 	0.91296 0.96455 0.30168 0.01400
H 	H 	0.00075 0.93034 0.22256 0.10600
F 	F 	0.98941 0.98431 0.21283 -0.42400
C 	C 	0.88762 0.82689 0.31749 -0.10200
C 	C 	0.90015 0.83883 0.27958 -0.13300
C 	C 	0.88903 0.86400 0.26346 0.34500
C 	C 	0.86747 0.87856 0.28779 -0.07000
C 	C 	0.85723 0.86832 0.32874 -0.14600
C 	C 	0.86621 0.84143 0.34195 0.36200
F 	F 	0.85488 0.82978 0.37923 -0.40200
H 	H 	0.89554 0.80701 0.32937 0.11100
H 	H 	0.85947 0.89830 0.27562 0.01500
F 	F 	0.90049 0.87546 0.22611 -0.42500
C 	C 	0.06811 0.84394 0.35513 -0.08800
C 	C 	0.03939 0.83929 0.36426 -0.12800
C 	C 	0.02768 0.84773 0.40663 0.33700
C 	C 	0.04334 0.86461 0.43613 -0.08300
C 	C 	0.07045 0.87354 0.42315 -0.13700
C 	C 	0.08368 0.86079 0.38471 0.33400
F 	F 	0.11084 0.86708 0.37383 -0.41400
H 	H 	0.07797 0.83588 0.32397 0.13100
H 	H 	0.03338 0.87306 0.46697 0.11300
F 	F 	0.00076 0.84099 0.41826 -0.48800
C 	C 	0.01854 0.70310 0.17488 0.05700
C 	C 	0.04749 0.70711 0.17942 0.09200
C 	C 	0.05974 0.73279 0.16527 -0.09200
C 	C 	0.04220 0.75665 0.16105 0.08100
C 	C 	0.01306 0.75415 0.16896 0.02900
C 	C 	0.00110 0.72660 0.16827 -0.04600
C 	C 	0.06301 0.68777 0.20793 0.09400
C 	C 	0.09132 0.73547 0.15877 0.78800
H 	H 	0.05135 0.77755 0.15708 0.10100
C 	C 	0.96962 0.72252 0.16682 0.78500
H 	H 	0.00932 0.68251 0.18133 0.11100
C 	C 	0.06124 0.69125 0.25534 -0.10200
C 	C 	0.07135 0.66944 0.28140 0.05300
C 	C 	0.08409 0.64503 0.26123 0.04800
C 	C 	0.08897 0.64331 0.21424 -0.08100
C 	C 	0.07686 0.66390 0.18790 0.04200
C 	C 	0.04645 0.71692 0.27830 0.78500
H 	H 	0.06806 0.67074 0.31743 0.08800
C 	C 	0.10605 0.61911 0.19178 0.78300
H 	H 	0.07774 0.66110 0.15176 0.13900
F 	F 	0.96359 0.69742 0.14330 -0.37900
F 	F 	0.95702 0.74474 0.14590 -0.38900
F 	F 	0.95842 0.72114 0.20992 -0.39600
F 	F 	0.10206 0.71180 0.13501 -0.40200
F 	F 	0.10363 0.73766 0.19993 -0.38700
F 	F 	0.09835 0.75930 0.13505 -0.40000
F 	F 	0.11716 0.62690 0.15068 -0.37800
F 	F 	0.08898 0.59564 0.18516 -0.42500
F 	F 	0.12828 0.61180 0.21771 -0.41400
F 	F 	0.05089 0.71835 0.32380 -0.42100
F 	F 	0.01782 0.71505 0.27238 -0.42200
F 	F 	0.05641 0.74194 0.26097 -0.41300
