data_crystal

_cell_length_a 17.36003
_cell_length_b 16.32291
_cell_length_c 43.90869
_cell_angle_alpha 90.48953
_cell_angle_beta  91.08884
_cell_angle_gamma 111.02503

_symmetry_space_group_name_	'P 1'
_symmetry_space_group_name_H-M	'P 1'

loop_
_symmetry_equiv_pos_as_xyz
  x,y,z

loop_
_atom_site_label
_atom_site_type_symbol
_atom_site_fract_x
_atom_site_fract_y
_atom_site_fract_z
_atom_site_charge
Ni	Ni	0.73412 0.38000 0.88490 1.10000
O 	O 	0.63109 0.30045 0.86144 -0.70200
Ni	Ni	0.54173 0.30528 0.88852 1.10600
O 	O 	0.80827 0.35980 0.85210 -0.36700
O 	O 	0.75059 0.21060 0.85708 -0.40800
O 	O 	0.71909 0.47867 0.86003 -0.39600
Ni	Ni	0.62301 0.17869 0.85855 1.06800
O 	O 	0.77165 0.49015 0.95005 -0.40200
O 	O 	0.63471 0.16641 0.90455 -0.42000
O 	O 	0.44528 0.23404 0.86104 -0.36600
O 	O 	0.64557 0.37007 0.91460 -0.70000
O 	O 	0.83692 0.46817 0.90682 -0.38700
O 	O 	0.46269 0.33928 0.91580 -0.34100
O 	O 	0.54837 0.48195 0.91564 -0.41700
Ni	Ni	0.66364 0.48713 0.93092 1.08100
H 	H 	0.62514 0.32303 0.84101 0.16100
H 	H 	0.65178 0.33398 0.93176 0.16800
C 	C 	0.57616 0.16536 0.92314 0.31800
O 	O 	0.72572 0.57614 0.89888 -0.38100
C 	C 	0.80097 0.27998 0.84319 0.27700
C 	C 	0.44466 0.15987 0.84852 0.27800
C 	C 	0.73795 0.55932 0.87035 0.30300
C 	C 	0.48207 0.42040 0.92576 0.32700
C 	C 	0.83930 0.50300 0.93441 0.32600
O 	O 	0.51850 0.19473 0.91416 -0.35300
O 	O 	0.49621 0.12191 0.85858 -0.39700
Ni	Ni	0.49134 0.37759 0.55284 1.10400
O 	O 	0.60308 0.41967 0.53187 -0.69200
Ni	Ni	0.66929 0.37197 0.55916 1.10200
O 	O 	0.45090 0.47008 0.53382 -0.36100
O 	O 	0.57293 0.57652 0.54688 -0.41500
O 	O 	0.43863 0.29459 0.51610 -0.35100
Ni	Ni	0.66592 0.54449 0.52734 1.09300
O 	O 	0.38193 0.18530 0.56315 -0.40700
O 	O 	0.74600 0.58319 0.56456 -0.39100
O 	O 	0.78602 0.43676 0.54293 -0.37200
O 	O 	0.55315 0.31543 0.57628 -0.70000
O 	O 	0.38241 0.32343 0.57432 -0.37800
O 	O 	0.71352 0.29734 0.58660 -0.36600
O 	O 	0.61348 0.17103 0.56898 -0.40800
Ni	Ni	0.50172 0.19080 0.56658 1.06600
H 	H 	0.59841 0.39032 0.51177 0.18900
H 	H 	0.55173 0.32654 0.59843 0.15400
C 	C 	0.73426 0.54558 0.59131 0.30100
O 	O 	0.51842 0.21080 0.52130 -0.41000
C 	C 	0.50114 0.55233 0.53244 0.31800
C 	C 	0.80099 0.47747 0.51645 0.32800
C 	C 	0.46763 0.23643 0.50497 0.27500
C 	C 	0.67179 0.21274 0.58913 0.27900
C 	C 	0.35224 0.23757 0.57835 0.27500
O 	O 	0.68913 0.46217 0.59392 -0.39800
O 	O 	0.74958 0.51140 0.50387 -0.39200
Ni	Ni	0.93336 0.00017 0.68953 1.08800
O 	O 	0.03432 0.01327 0.71625 -0.71300
Ni	Ni	0.98089 0.97714 0.75594 1.10000
O 	O 	0.00585 0.03715 0.65221 -0.36400
O 	O 	0.08325 0.16463 0.67733 -0.40900
O 	O 	0.91769 0.86993 0.68409 -0.39300
Ni	Ni	0.11092 0.13337 0.72124 1.06600
O 	O 	0.73724 0.97726 0.70137 -0.38900
O 	O 	0.02857 0.18559 0.73837 -0.38900
O 	O 	0.08370 0.97470 0.77816 -0.35800
O 	O 	0.88578 0.99070 0.73093 -0.69100
O 	O 	0.82865 0.97780 0.66403 -0.36300
O 	O 	0.90639 0.91241 0.79042 -0.37500
O 	O 	0.81512 0.81763 0.75658 -0.41000
Ni	Ni	0.77633 0.89953 0.72925 1.07300
H 	H 	0.06279 0.97347 0.70977 0.17500
H 	H 	0.87827 0.04660 0.73562 0.14300
C 	C 	0.99657 0.16374 0.76533 0.25900
O 	O 	0.77931 0.82604 0.69168 -0.38700
C 	C 	0.07180 0.10957 0.65399 0.27300
C 	C 	0.15396 0.04247 0.77540 0.25600
C 	C 	0.84384 0.80771 0.68358 0.29800
C 	C 	0.84285 0.83971 0.78476 0.27100
C 	C 	0.76878 0.00152 0.67408 0.25500
O 	O 	0.99972 0.09334 0.77860 -0.38100
O 	O 	0.15378 0.11783 0.76399 -0.39400
Ni	Ni	0.14035 0.72912 0.39182 1.10600
O 	O 	0.23782 0.79296 0.36448 -0.69800
Ni	Ni	0.33254 0.80657 0.39327 1.09900
O 	O 	0.05667 0.76994 0.36909 -0.36200
O 	O 	0.14933 0.90799 0.37269 -0.39300
O 	O 	0.10339 0.61877 0.36388 -0.36600
Ni	Ni	0.25280 0.91014 0.34980 1.07500
O 	O 	0.10423 0.54837 0.42274 -0.39500
O 	O 	0.32861 0.99636 0.38157 -0.39400
O 	O 	0.42862 0.89848 0.37132 -0.37400
O 	O 	0.23554 0.72283 0.41651 -0.70100
O 	O 	0.05200 0.65944 0.42063 -0.35700
O 	O 	0.41365 0.78664 0.42424 -0.36200
O 	O 	0.35680 0.63960 0.41382 -0.40500
Ni	Ni	0.22944 0.60165 0.41685 1.07000
H 	H 	0.24025 0.75503 0.34711 0.15600
H 	H 	0.23381 0.74422 0.43757 0.16200
C 	C 	0.32882 0.98143 0.41083 0.36100
O 	O 	0.22040 0.58797 0.37075 -0.41400
C 	C 	0.07700 0.85357 0.36315 0.27100
C 	C 	0.42624 0.92332 0.34273 0.28300
C 	C 	0.15009 0.57408 0.35633 0.28900
C 	C 	0.40682 0.70557 0.43037 0.25400
C 	C 	0.06092 0.59236 0.43495 0.25400
O 	O 	0.31939 0.90281 0.42066 -0.39200
O 	O 	0.35504 0.91050 0.32826 -0.41600
Ni	Ni	0.32887 0.81442 0.05853 1.09900
O 	O 	0.24176 0.71382 0.08038 -0.70200
Ni	Ni	0.24410 0.60999 0.05659 1.10100
O 	O 	0.31032 0.90506 0.08742 -0.36600
O 	O 	0.17201 0.85192 0.07580 -0.40600
O 	O 	0.41261 0.79685 0.08907 -0.39300
Ni	Ni	0.13057 0.71530 0.07654 1.06800
O 	O 	0.43612 0.82754 0.99695 -0.40800
O 	O 	0.13060 0.71474 0.03002 -0.41000
O 	O 	0.16537 0.51698 0.08292 -0.37800
O 	O 	0.31680 0.71181 0.03107 -0.70000
O 	O 	0.42247 0.91238 0.03766 -0.36600
O 	O 	0.27812 0.51566 0.03531 -0.36500
O 	O 	0.41198 0.60282 0.04238 -0.41800
Ni	Ni	0.42690 0.71810 0.01999 1.07200
H 	H 	0.25695 0.70993 0.10203 0.15800
H 	H 	0.28680 0.71735 0.01228 0.16000
C 	C 	0.11889 0.64211 0.01448 0.27500
O 	O 	0.50503 0.79473 0.05296 -0.39900
C 	C 	0.23492 0.90199 0.09282 0.27000
C 	C 	0.09576 0.52543 0.09129 0.28200
C 	C 	0.48641 0.79926 0.08156 0.30100
C 	C 	0.35677 0.52991 0.03142 0.25700
C 	C 	0.45151 0.90481 0.01041 0.27000
O 	O 	0.14884 0.58393 0.02487 -0.36800
O 	O 	0.06827 0.58207 0.07754 -0.40000
Ni	Ni	0.91955 0.05890 0.18645 1.09300
O 	O 	0.82207 0.05336 0.21296 -0.70800
Ni	Ni	0.88144 0.12445 0.24903 1.10000
O 	O 	0.83992 0.98609 0.15284 -0.36300
O 	O 	0.77433 0.87893 0.18651 -0.40800
O 	O 	0.90840 0.17057 0.16951 -0.39000
Ni	Ni	0.75794 0.93659 0.22709 1.07000
O 	O 	0.12545 0.13359 0.19608 -0.40900
O 	O 	0.85737 0.91475 0.24608 -0.41400
O 	O 	0.77951 0.12541 0.27077 -0.37500
O 	O 	0.97704 0.11036 0.22582 -0.71100
O 	O 	0.02009 0.07548 0.15975 -0.36900
O 	O 	0.95727 0.21849 0.27853 -0.38900
O 	O 	0.03020 0.29984 0.23933 -0.41300
Ni	Ni	0.07397 0.21261 0.21702 1.07300
H 	H 	0.78560 0.08076 0.20319 0.15800
H 	H 	0.99701 0.06678 0.23528 0.14700
C 	C 	0.89432 0.95768 0.27085 0.30800
O 	O 	0.04590 0.24852 0.17516 -0.38400
C 	C 	0.77525 0.91740 0.16019 0.27600
C 	C 	0.71735 0.05010 0.27412 0.26900
C 	C 	0.97178 0.24359 0.16650 0.28000
C 	C 	0.01243 0.29138 0.26849 0.28700
C 	C 	0.09523 0.08733 0.17067 0.28700
O 	O 	0.88453 0.03053 0.27914 -0.38600
O 	O 	0.72660 0.97422 0.26825 -0.39400
C 	C 	0.03753 0.45470 0.10868 -0.08200
C 	C 	0.02384 0.46778 0.13958 0.04400
C 	C 	0.98299 0.39514 0.15748 -0.04900
H 	H 	0.97630 0.40457 0.18163 0.04300
C 	C 	0.96479 0.31014 0.14575 -0.06500
C 	C 	0.96846 0.29753 0.11404 0.00900
C 	C 	0.00373 0.37043 0.09557 0.00700
H 	H 	0.01101 0.36089 0.07146 0.04800
C 	C 	0.94688 0.20829 0.10081 -0.00700
C 	C 	0.86394 0.15254 0.09768 -0.02800
C 	C 	0.84411 0.06729 0.08594 -0.02400
C 	C 	0.90675 0.03725 0.07755 -0.02400
C 	C 	0.98936 0.09282 0.08040 -0.06600
C 	C 	0.00953 0.17831 0.09188 0.01100
C 	C 	0.06273 0.55483 0.15441 -0.00800
C 	C 	0.03341 0.62266 0.14802 -0.04500
C 	C 	0.06947 0.70435 0.16266 -0.04800
C 	C 	0.13404 0.71809 0.18396 -0.03800
C 	C 	0.16386 0.65097 0.19016 -0.03300
C 	C 	0.12847 0.56946 0.17542 -0.04500
H 	H 	0.04708 0.75675 0.15762 0.03000
H 	H 	0.16110 0.78064 0.19564 0.03700
H 	H 	0.21396 0.66188 0.20658 0.02900
H 	H 	0.15155 0.51747 0.18048 0.03900
H 	H 	0.98254 0.61187 0.13193 0.01600
H 	H 	0.81509 0.17497 0.10452 0.04200
H 	H 	0.78033 0.02426 0.08357 0.03700
H 	H 	0.07369 0.22101 0.09407 0.04000
H 	H 	0.03771 0.06961 0.07376 0.05600
H 	H 	0.89126 0.97093 0.06882 0.04200
C 	C 	0.70168 0.88667 0.13981 -0.08900
C 	C 	0.66507 0.79727 0.13121 0.02100
C 	C 	0.59074 0.76817 0.11409 -0.02600
H 	H 	0.56319 0.69966 0.10717 0.03700
C 	C 	0.55431 0.82797 0.10443 -0.07400
C 	C 	0.59239 0.91783 0.11236 0.01500
C 	C 	0.66461 0.94609 0.13059 -0.01500
H 	H 	0.69256 0.01477 0.13729 0.02400
C 	C 	0.56056 0.98375 0.09999 0.02700
C 	C 	0.60010 0.03613 0.07561 -0.05200
C 	C 	0.57555 0.10458 0.06594 -0.01500
C 	C 	0.51068 0.12011 0.08019 -0.03200
C 	C 	0.46992 0.06689 0.10404 -0.02300
C 	C 	0.49428 0.99832 0.11379 -0.03300
C 	C 	0.70684 0.73499 0.13852 0.01500
C 	C 	0.67718 0.67379 0.16174 -0.04600
C 	C 	0.72157 0.62117 0.17077 -0.02100
C 	C 	0.79552 0.62940 0.15668 -0.04000
C 	C 	0.82473 0.68950 0.13330 -0.01900
C 	C 	0.78038 0.74193 0.12408 -0.04600
H 	H 	0.69894 0.57446 0.18883 0.02800
H 	H 	0.83020 0.58926 0.16389 0.03400
H 	H 	0.88205 0.69595 0.12246 0.02100
H 	H 	0.80404 0.78932 0.10625 0.04400
H 	H 	0.62090 0.66845 0.17320 0.03500
H 	H 	0.64971 0.02382 0.06421 0.04400
H 	H 	0.60669 0.14547 0.04734 0.04100
H 	H 	0.46195 0.95688 0.13209 0.04800
H 	H 	0.41951 0.07877 0.11500 0.04100
H 	H 	0.49210 0.17342 0.07276 0.04200
C 	C 	0.14825 0.05222 0.15312 -0.08600
C 	C 	0.16942 0.98217 0.16434 0.03100
C 	C 	0.20764 0.93971 0.14517 -0.03600
H 	H 	0.22155 0.88407 0.15341 0.03000
C 	C 	0.22199 0.96430 0.11470 -0.06200
C 	C 	0.20824 0.03972 0.10444 0.00500
C 	C 	0.17166 0.08342 0.12379 -0.01200
H 	H 	0.15993 0.14055 0.11579 0.04100
C 	C 	0.23420 0.07486 0.07389 0.02500
C 	C 	0.18402 0.03853 0.04813 -0.06000
C 	C 	0.20900 0.07197 0.01925 -0.01200
C 	C 	0.28349 0.14234 0.01603 -0.03900
C 	C 	0.33297 0.17963 0.04169 -0.01000
C 	C 	0.30834 0.14624 0.07060 -0.05200
C 	C 	0.14700 0.94911 0.19539 0.00700
C 	C 	0.06459 0.89939 0.20184 -0.05800
C 	C 	0.04449 0.86186 0.23045 -0.00700
C 	C 	0.10626 0.87429 0.25281 -0.04700
C 	C 	0.18811 0.92552 0.24674 -0.02800
C 	C 	0.20862 0.96297 0.21809 -0.03900
H 	H 	0.98116 0.82261 0.23519 0.02700
H 	H 	0.09072 0.84416 0.27481 0.03100
H 	H 	0.23581 0.93532 0.26411 0.01700
H 	H 	0.27236 0.00136 0.21336 0.03300
H 	H 	0.01655 0.88836 0.18449 0.04000
H 	H 	0.12583 0.98461 0.05049 0.06000
H 	H 	0.17050 0.04353 0.99938 0.04100
H 	H 	0.34660 0.17594 0.09042 0.04300
H 	H 	0.39030 0.23453 0.03919 0.04900
H 	H 	0.30265 0.16825 0.99367 0.07000
C 	C 	0.50481 0.97158 0.32701 -0.05600
C 	C 	0.58370 0.98597 0.34079 0.01800
C 	C 	0.65514 0.02847 0.32448 -0.02200
H 	H 	0.71504 0.03716 0.33470 0.05000
C 	C 	0.64974 0.04806 0.29378 -0.07200
C 	C 	0.57280 0.03984 0.28069 0.02400
C 	C 	0.50096 0.00326 0.29746 -0.04800
H 	H 	0.44181 0.99616 0.28697 0.05300
C 	C 	0.56656 0.06110 0.24834 -0.01800
C 	C 	0.59046 0.14907 0.23958 -0.03800
C 	C 	0.59779 0.17021 0.20870 -0.03800
C 	C 	0.58165 0.10380 0.18653 -0.02800
C 	C 	0.55683 0.01601 0.19517 -0.07000
C 	C 	0.54855 0.99452 0.22597 -0.02800
C 	C 	0.59296 0.95109 0.37100 0.04800
C 	C 	0.60623 0.00502 0.39709 -0.07500
C 	C 	0.61636 0.97234 0.42563 0.02300
C 	C 	0.61570 0.88671 0.42808 -0.04300
C 	C 	0.60478 0.83358 0.40200 -0.00100
C 	C 	0.59342 0.86557 0.37348 -0.05600
H 	H 	0.62520 0.01353 0.44581 0.02700
H 	H 	0.62350 0.86147 0.45018 0.05000
H 	H 	0.60461 0.76746 0.40392 0.03600
H 	H 	0.58485 0.82406 0.35336 0.04600
H 	H 	0.60891 0.07210 0.39522 0.05700
H 	H 	0.60568 0.20102 0.25668 0.04000
H 	H 	0.61737 0.23817 0.20199 0.03300
H 	H 	0.53142 0.92656 0.23253 0.02000
H 	H 	0.54561 0.96474 0.17807 0.03900
H 	H 	0.58922 0.12047 0.16270 0.03100
C 	C 	0.05068 0.36567 0.28984 -0.08300
C 	C 	0.03437 0.44424 0.28725 0.03700
C 	C 	0.07154 0.51353 0.30814 -0.02400
H 	H 	0.06023 0.57439 0.30582 0.04700
C 	C 	0.11961 0.50320 0.33287 -0.07100
C 	C 	0.13178 0.42238 0.33635 0.02100
C 	C 	0.09942 0.35554 0.31430 -0.01900
H 	H 	0.10981 0.29419 0.31677 0.03600
C 	C 	0.17242 0.40445 0.36407 0.01400
C 	C 	0.12798 0.37967 0.39095 -0.05800
C 	C 	0.16782 0.36804 0.41766 -0.03700
C 	C 	0.25175 0.38017 0.41755 -0.05400
C 	C 	0.29584 0.40321 0.39067 -0.02400
C 	C 	0.25618 0.41458 0.36387 -0.05000
C 	C 	0.97351 0.45221 0.26439 0.00500
C 	C 	0.99697 0.52072 0.24337 -0.06400
C 	C 	0.93822 0.53178 0.22321 -0.01800
C 	C 	0.85651 0.47324 0.22334 -0.04200
C 	C 	0.83267 0.40521 0.24429 -0.02200
C 	C 	0.89055 0.39551 0.26514 -0.04800
H 	H 	0.95587 0.58603 0.20765 0.03000
H 	H 	0.81140 0.48123 0.20745 0.03300
H 	H 	0.76912 0.36060 0.24460 0.03100
H 	H 	0.87093 0.34443 0.28198 0.05000
H 	H 	0.06025 0.56612 0.24303 0.05200
H 	H 	0.06315 0.37107 0.39126 0.06000
H 	H 	0.13374 0.35007 0.43847 0.03600
H 	H 	0.29080 0.43296 0.34317 0.04300
H 	H 	0.36071 0.41223 0.39060 0.04200
H 	H 	0.28256 0.37146 0.43826 0.04600
C 	C 	0.02981 0.88113 0.33932 -0.05700
C 	C 	0.06038 0.96667 0.32690 -0.00500
C 	C 	0.02128 0.98529 0.30127 0.02100
H 	H 	0.04568 0.05025 0.29154 0.01700
C 	C 	0.94640 0.92472 0.29002 -0.11200
C 	C 	0.91478 0.84005 0.30245 0.04000
C 	C 	0.95685 0.81862 0.32682 -0.04900
H 	H 	0.93240 0.75326 0.33616 0.05900
C 	C 	0.83751 0.77353 0.29023 0.01000
C 	C 	0.76093 0.77952 0.29697 -0.04700
C 	C 	0.68837 0.71977 0.28377 -0.03000
C 	C 	0.69182 0.65309 0.26424 -0.04100
C 	C 	0.76774 0.64544 0.25816 -0.02200
C 	C 	0.84049 0.70511 0.27125 -0.04300
C 	C 	0.12879 0.03924 0.34175 0.01500
C 	C 	0.11481 0.08057 0.36814 -0.03400
C 	C 	0.18005 0.14793 0.38249 -0.00800
C 	C 	0.25908 0.17475 0.37044 -0.03100
C 	C 	0.27275 0.13537 0.34369 -0.02100
C 	C 	0.20774 0.06792 0.32927 -0.08800
H 	H 	0.16952 0.17872 0.40313 0.05100
H 	H 	0.30980 0.22573 0.38189 0.04600
H 	H 	0.33392 0.15637 0.33435 0.02900
H 	H 	0.21893 0.03702 0.30875 0.00900
H 	H 	0.05384 0.05968 0.37771 0.05900
H 	H 	0.75790 0.83140 0.31192 0.05200
H 	H 	0.62950 0.72534 0.28859 0.02800
H 	H 	0.89904 0.69850 0.26656 0.03900
H 	H 	0.77020 0.59334 0.24327 0.03200
H 	H 	0.63564 0.60719 0.25391 0.03100
C 	C 	0.36209 0.05661 0.43197 -0.15200
C 	C 	0.31016 0.07950 0.45185 0.20600
C 	C 	0.34458 0.14522 0.47414 -0.09300
C 	C 	0.43066 0.18717 0.47693 -0.01800
C 	C 	0.48148 0.16855 0.45563 -0.04600
C 	C 	0.44726 0.10397 0.43315 0.04200
H 	H 	0.30482 0.16021 0.49027 0.08500
H 	H 	0.48726 0.08855 0.41730 0.03000
Cl	Cl	0.20231 0.02534 0.44946 -0.35600
H 	H 	0.54787 0.20149 0.45730 0.05800
C 	C 	0.88198 0.49832 0.50301 -0.13100
C 	C 	0.89701 0.43775 0.48315 0.20400
C 	C 	0.96114 0.46719 0.46237 -0.10600
C 	C 	0.00965 0.55679 0.46130 -0.01500
C 	C 	0.00012 0.61470 0.48333 -0.03000
C 	C 	0.93588 0.58589 0.50373 0.01500
H 	H 	0.96965 0.42154 0.44588 0.08100
H 	H 	0.92339 0.63328 0.51831 0.03200
Cl	Cl	0.83074 0.32698 0.48189 -0.35800
H 	H 	0.03900 0.68356 0.48324 0.04300
C 	C 	0.49165 0.60459 0.50662 -0.16100
C 	C 	0.51270 0.58680 0.47708 0.19800
C 	C 	0.49381 0.62912 0.45215 -0.09500
C 	C 	0.45211 0.68741 0.45624 -0.03200
C 	C 	0.43761 0.71080 0.48582 -0.05700
C 	C 	0.45708 0.66920 0.51096 0.03500
H 	H 	0.50657 0.61222 0.42934 0.08000
H 	H 	0.44206 0.68449 0.53363 0.02100
Cl	Cl	0.55861 0.50820 0.47073 -0.42800
H 	H 	0.40614 0.75661 0.48920 0.04200
C 	C 	0.74374 0.06295 0.65569 -0.06300
C 	C 	0.66031 0.05541 0.65258 -0.00800
C 	C 	0.63820 0.10664 0.63113 -0.01200
H 	H 	0.57443 0.10217 0.62902 0.00600
C 	C 	0.69753 0.16228 0.61194 -0.08900
C 	C 	0.78048 0.16833 0.61463 0.03200
C 	C 	0.80350 0.12263 0.63762 -0.03100
H 	H 	0.86781 0.12950 0.64028 0.03600
C 	C 	0.84153 0.21328 0.59137 0.01800
C 	C 	0.83123 0.18019 0.56132 -0.03800
C 	C 	0.89320 0.21617 0.54020 -0.00500
C 	C 	0.96567 0.28506 0.54892 -0.04400
C 	C 	0.97664 0.31766 0.57885 -0.03600
C 	C 	0.91472 0.28231 0.60002 -0.03800
C 	C 	0.59574 0.99425 0.67142 0.05600
C 	C 	0.56082 0.02684 0.69503 -0.09100
C 	C 	0.49929 0.96893 0.71271 0.00400
C 	C 	0.47328 0.87846 0.70718 -0.05700
C 	C 	0.50785 0.84573 0.68367 -0.01100
C 	C 	0.56824 0.90344 0.66555 -0.06500
H 	H 	0.47143 0.99415 0.73056 0.03000
H 	H 	0.42610 0.83374 0.72104 0.03800
H 	H 	0.48771 0.77566 0.67945 0.02600
H 	H 	0.59440 0.87770 0.64724 0.05400
H 	H 	0.58122 0.09682 0.69961 0.04800
H 	H 	0.77608 0.12549 0.55453 0.05300
H 	H 	0.88545 0.18991 0.51716 0.05000
H 	H 	0.92462 0.30670 0.62329 0.03700
H 	H 	0.03374 0.36929 0.58579 0.04400
H 	H 	0.01367 0.31256 0.53256 0.05900
C 	C 	0.13396 0.12872 0.63036 -0.07700
C 	C 	0.19684 0.09320 0.63215 0.01100
C 	C 	0.26773 0.12937 0.61491 -0.02300
H 	H 	0.31776 0.10463 0.61731 0.01800
C 	C 	0.27477 0.19773 0.59478 -0.07800
C 	C 	0.20706 0.22544 0.59010 0.02500
C 	C 	0.13815 0.19278 0.60871 -0.02000
H 	H 	0.08800 0.21736 0.60642 0.04500
C 	C 	0.20510 0.28292 0.56444 0.02200
C 	C 	0.20158 0.25224 0.53426 -0.03700
C 	C 	0.20141 0.30720 0.51002 -0.01600
C 	C 	0.20378 0.39247 0.51576 -0.02900
C 	C 	0.20619 0.42291 0.54577 -0.01900
C 	C 	0.20687 0.36836 0.57010 -0.04200
C 	C 	0.18849 0.01744 0.65175 -0.00500
C 	C 	0.23750 0.02866 0.67839 -0.08200
C 	C 	0.23200 0.95614 0.69616 -0.02000
C 	C 	0.17722 0.87253 0.68760 -0.04500
C 	C 	0.12823 0.86109 0.66112 -0.02400
C 	C 	0.13379 0.93327 0.64317 -0.03400
H 	H 	0.27062 0.96459 0.71644 0.02700
H 	H 	0.17302 0.81654 0.70140 0.03800
H 	H 	0.08655 0.79616 0.65435 0.03900
H 	H 	0.09609 0.92381 0.62256 0.05300
H 	H 	0.28001 0.09328 0.68518 0.02100
H 	H 	0.19950 0.18617 0.52964 0.05600
H 	H 	0.19938 0.28365 0.48679 0.04100
H 	H 	0.20904 0.39247 0.59328 0.04200
H 	H 	0.20746 0.48873 0.55017 0.03000
H 	H 	0.20349 0.43486 0.49696 0.02700
C 	C 	0.77308 0.59808 0.61891 -0.07400
C 	C 	0.85465 0.66034 0.61863 0.01700
C 	C 	0.88091 0.72597 0.64150 -0.01700
H 	H 	0.94080 0.77785 0.64012 0.04300
C 	C 	0.82933 0.72571 0.66573 -0.07400
C 	C 	0.75564 0.65235 0.66911 0.02200
C 	C 	0.72629 0.59097 0.64511 -0.02000
H 	H 	0.66641 0.53893 0.64660 0.03800
C 	C 	0.71021 0.63833 0.69790 0.01400
C 	C 	0.63513 0.65236 0.69936 -0.05100
C 	C 	0.59410 0.64267 0.72696 -0.03200
C 	C 	0.62679 0.61706 0.75299 -0.04100
C 	C 	0.70061 0.60123 0.75148 -0.01800
C 	C 	0.74271 0.61245 0.72407 -0.04700
C 	C 	0.91588 0.65115 0.59705 0.03600
C 	C 	0.96665 0.72478 0.58128 -0.07800
C 	C 	0.03563 0.72158 0.56611 0.00900
C 	C 	0.05274 0.64420 0.56568 -0.05600
C 	C 	0.00037 0.56955 0.58010 0.01600
C 	C 	0.93246 0.57295 0.59596 -0.07200
H 	H 	0.07552 0.77893 0.55452 0.03100
H 	H 	0.10569 0.64157 0.55366 0.04000
H 	H 	0.01306 0.50944 0.57934 0.03200
H 	H 	0.89438 0.51583 0.60818 0.05700
H 	H 	0.95418 0.78523 0.58165 0.05200
H 	H 	0.60967 0.67261 0.67932 0.04400
H 	H 	0.53708 0.65519 0.72820 0.02700
H 	H 	0.80048 0.60124 0.72317 0.04100
H 	H 	0.72527 0.58054 0.77155 0.03600
H 	H 	0.59500 0.60963 0.77433 0.03700
C 	C 	0.91993 0.54820 0.94949 -0.12600
C 	C 	0.93862 0.63174 0.96311 0.18200
C 	C 	0.00763 0.66591 0.98271 -0.06700
C 	C 	0.05876 0.61745 0.98857 -0.03700
C 	C 	0.04513 0.53910 0.97205 -0.01500
C 	C 	0.97572 0.50444 0.95280 0.00300
H 	H 	0.01982 0.72864 0.99407 0.07900
H 	H 	0.96308 0.44137 0.94167 0.03000
Cl	Cl	0.87701 0.69484 0.95535 -0.36100
H 	H 	0.08614 0.50293 0.97518 0.05100
C 	C 	0.56563 0.11527 0.95151 -0.13600
C 	C 	0.51523 0.12685 0.97481 0.20600
C 	C 	0.48093 0.05965 0.99554 -0.10100
C 	C 	0.50123 0.98395 0.99440 -0.01500
C 	C 	0.56278 0.98033 0.97480 -0.03000
C 	C 	0.59445 0.04534 0.95329 0.01600
H 	H 	0.43716 0.06538 0.01194 0.08000
H 	H 	0.63715 0.03815 0.93672 0.03100
Cl	Cl	0.49895 0.22672 0.97941 -0.36300
H 	H 	0.58237 0.92433 0.97499 0.04100
C 	C 	0.44520 0.43665 0.95393 -0.14900
C 	C 	0.36188 0.42923 0.95440 0.20900
C 	C 	0.33010 0.45199 0.98094 -0.09700
C 	C 	0.38112 0.48204 0.00705 -0.04000
C 	C 	0.46166 0.48118 0.00723 -0.05700
C 	C 	0.49376 0.45949 0.98074 0.04200
H 	H 	0.26723 0.45066 0.98071 0.08300
H 	H 	0.55701 0.46203 0.98089 -0.01400
Cl	Cl	0.29772 0.39537 0.92161 -0.33800
H 	H 	0.50081 0.50165 0.02749 0.04600
C 	C 	0.96628 0.22325 0.78288 -0.06200
C 	C 	0.90162 0.24817 0.77113 -0.00100
C 	C 	0.84966 0.26967 0.79129 -0.01900
H 	H 	0.79915 0.28741 0.78241 0.02700
C 	C 	0.86263 0.26880 0.82277 -0.08400
C 	C 	0.93246 0.25338 0.83439 0.03700
C 	C 	0.98555 0.23417 0.81424 -0.05300
H 	H 	0.03753 0.21924 0.82328 0.06900
C 	C 	0.94735 0.25081 0.86756 -0.00700
C 	C 	0.90347 0.17558 0.88395 -0.03800
C 	C 	0.91962 0.17183 0.91512 -0.02000
C 	C 	0.98065 0.24234 0.92991 -0.05300
C 	C 	0.02590 0.31650 0.91353 -0.00000
C 	C 	0.00936 0.32090 0.88241 -0.02300
C 	C 	0.89146 0.25923 0.73811 0.02200
C 	C 	0.81405 0.21668 0.72379 -0.06500
C 	C 	0.79419 0.24844 0.69644 -0.01400
C 	C 	0.85362 0.31765 0.68190 -0.04900
C 	C 	0.93305 0.35540 0.69473 -0.01200
C 	C 	0.95179 0.32719 0.72296 -0.07300
H 	H 	0.73222 0.22065 0.68687 0.03200
H 	H 	0.83787 0.34257 0.66085 0.04300
H 	H 	0.97923 0.40863 0.68332 0.02300
H 	H 	0.01162 0.36097 0.73377 0.06500
H 	H 	0.76734 0.16329 0.73498 0.03500
H 	H 	0.85771 0.11982 0.87246 0.04500
H 	H 	0.88532 0.11399 0.92775 0.03300
H 	H 	0.04562 0.37785 0.86981 0.04700
H 	H 	0.07390 0.37054 0.92492 0.04600
H 	H 	0.99328 0.23924 0.95402 0.04300
C 	C 	0.37255 0.10786 0.82966 -0.07000
C 	C 	0.37730 0.10758 0.79766 0.01600
C 	C 	0.30454 0.07606 0.77976 -0.02800
H 	H 	0.30788 0.08185 0.75520 0.02200
C 	C 	0.22718 0.04494 0.79349 -0.06100
C 	C 	0.22323 0.03612 0.82549 0.00200
C 	C 	0.29601 0.06799 0.84338 -0.00700
H 	H 	0.29270 0.06553 0.86802 0.05200
C 	C 	0.14296 0.99716 0.84046 0.06600
C 	C 	0.09704 0.04970 0.84785 -0.07600
C 	C 	0.01724 0.01114 0.85893 0.04500
C 	C 	0.98349 0.92039 0.86305 -0.07500
C 	C 	0.02955 0.86805 0.85619 0.02900
C 	C 	0.10920 0.90623 0.84495 -0.06500
C 	C 	0.45778 0.14672 0.78276 0.00500
C 	C 	0.47712 0.22672 0.76758 -0.05600
C 	C 	0.55466 0.26579 0.75474 -0.02900
C 	C 	0.61310 0.22533 0.75701 -0.04800
C 	C 	0.59409 0.14551 0.77202 -0.04200
C 	C 	0.51648 0.10595 0.78479 -0.07200
H 	H 	0.56959 0.32766 0.74316 0.03000
H 	H 	0.67305 0.25586 0.74712 0.03300
H 	H 	0.63937 0.11417 0.77368 0.01700
H 	H 	0.50200 0.04394 0.79629 0.03300
H 	H 	0.43247 0.25896 0.76604 0.03900
H 	H 	0.12229 0.11984 0.84423 0.06900
H 	H 	0.98128 0.05144 0.86402 0.01400
H 	H 	0.14393 0.86508 0.83912 0.05600
H 	H 	0.00324 0.79781 0.85932 0.03700
H 	H 	0.92154 0.89056 0.87141 0.06000
C 	C 	0.76696 0.63275 0.84899 -0.07300
C 	C 	0.83422 0.64257 0.82983 0.01900
C 	C 	0.85947 0.71224 0.80951 -0.02000
H 	H 	0.91070 0.71952 0.79466 0.03500
C 	C 	0.81909 0.77228 0.80802 -0.07300
C 	C 	0.75421 0.76504 0.82784 0.01600
C 	C 	0.72822 0.69502 0.84816 -0.01700
H 	H 	0.67761 0.68872 0.86319 0.04600
C 	C 	0.71544 0.83235 0.82826 0.00900
C 	C 	0.66371 0.83750 0.80392 -0.05700
C 	C 	0.63165 0.90486 0.80343 -0.04400
C 	C 	0.64990 0.96631 0.82741 -0.01500
C 	C 	0.70007 0.96043 0.85195 -0.02300
C 	C 	0.73317 0.89391 0.85236 -0.04400
C 	C 	0.88064 0.58245 0.83132 0.01900
C 	C 	0.88260 0.53178 0.80551 -0.04500
C 	C 	0.94043 0.49056 0.80403 -0.00900
C 	C 	0.99424 0.49659 0.82871 -0.04900
C 	C 	0.99026 0.54379 0.85498 -0.02500
C 	C 	0.93455 0.58789 0.85614 -0.03900
H 	H 	0.94437 0.45505 0.78355 0.03000
H 	H 	0.03960 0.46549 0.82731 0.05500
H 	H 	0.03155 0.54780 0.87419 0.05300
H 	H 	0.93463 0.62793 0.87597 0.05600
H 	H 	0.84190 0.52776 0.78610 0.04000
H 	H 	0.64956 0.79033 0.78523 0.02300
H 	H 	0.59282 0.90953 0.78444 0.02600
H 	H 	0.77292 0.89052 0.87125 0.04700
H 	H 	0.71329 0.00743 0.87065 0.02100
H 	H 	0.62502 0.01834 0.82701 -0.01500
