data_crystal

_cell_length_a 21.11007
_cell_length_b 20.50906
_cell_length_c 47.70120
_cell_angle_alpha 89.81466
_cell_angle_beta  89.81054
_cell_angle_gamma 119.89757

_symmetry_space_group_name_	'P 1'
_symmetry_space_group_name_H-M	'P 1'

loop_
_symmetry_equiv_pos_as_xyz
  x,y,z

loop_
_atom_site_label
_atom_site_type_symbol
_atom_site_fract_x
_atom_site_fract_y
_atom_site_fract_z
_atom_site_charge
C 	C 	0.86107 0.45949 0.93652 0.29000
C 	C 	0.54848 0.34677 0.90492 0.31800
C 	C 	0.74467 0.53244 0.94960 0.31300
C 	C 	0.66524 0.26023 0.88777 0.29400
C 	C 	0.58504 0.33773 0.99407 0.30500
C 	C 	0.67831 0.22164 0.97883 0.28700
Ni	Ni	0.71242 0.41552 0.90754 1.11100
Ni	Ni	0.59522 0.26640 0.94192 1.11800
Ni	Ni	0.73481 0.39172 0.97409 1.11800
O 	O 	0.82613 0.47271 0.91586 -0.37200
O 	O 	0.82584 0.40518 0.95514 -0.38900
O 	O 	0.56797 0.27333 0.98206 -0.39300
O 	O 	0.60892 0.37590 0.88997 -0.37700
O 	O 	0.54902 0.32818 0.93102 -0.40000
O 	O 	0.70951 0.28921 0.99131 -0.37900
O 	O 	0.69548 0.48869 0.93161 -0.38600
O 	O 	0.77578 0.50474 0.96611 -0.38400
O 	O 	0.64237 0.20832 0.95492 -0.39400
O 	O 	0.71449 0.33209 0.88390 -0.37500
O 	O 	0.60228 0.23979 0.90095 -0.38500
O 	O 	0.65216 0.39448 0.99345 -0.39000
O 	O 	0.68989 0.35144 0.93899 -0.71200
H 	H 	0.71750 0.32618 0.93391 0.15800
C 	C 	0.82237 0.47440 0.57291 0.29300
C 	C 	0.52207 0.22642 0.55758 0.31000
C 	C 	0.70568 0.27355 0.60727 0.31200
C 	C 	0.63008 0.42060 0.51919 0.28100
C 	C 	0.67730 0.16805 0.53359 0.29800
C 	C 	0.79164 0.36370 0.49276 0.28000
Ni	Ni	0.65824 0.36517 0.57377 1.11100
Ni	Ni	0.63991 0.27989 0.51419 1.11800
Ni	Ni	0.77992 0.32085 0.55289 1.12000
O 	O 	0.76231 0.44165 0.58866 -0.37600
O 	O 	0.84300 0.43398 0.55761 -0.38300
O 	O 	0.66966 0.20117 0.51130 -0.38700
O 	O 	0.54909 0.29742 0.56381 -0.38200
O 	O 	0.55364 0.20558 0.53848 -0.38900
O 	O 	0.80751 0.32681 0.51183 -0.37900
O 	O 	0.65001 0.28356 0.60210 -0.38600
O 	O 	0.76902 0.31640 0.59512 -0.38800
O 	O 	0.72271 0.34498 0.48747 -0.38100
O 	O 	0.65476 0.44043 0.54519 -0.38000
O 	O 	0.59607 0.34878 0.51153 -0.37800
O 	O 	0.72535 0.20751 0.55296 -0.39000
O 	O 	0.69911 0.33523 0.54502 -0.71200
H 	H 	0.72679 0.38423 0.53552 0.14100
C 	C 	0.88741 0.98728 0.69707 0.30300
C 	C 	0.95668 0.87584 0.79985 0.31600
C 	C 	0.90367 0.04442 0.77192 0.31100
C 	C 	0.96128 0.81868 0.72184 0.29800
C 	C 	0.12883 0.10091 0.77904 0.31800
C 	C 	0.13138 0.04662 0.70184 0.28700
Ni	Ni	0.89513 0.90541 0.74799 1.11000
Ni	Ni	0.06604 0.95177 0.75405 1.11900
Ni	Ni	0.02534 0.07420 0.73305 1.11800
O 	O 	0.87358 0.92080 0.70685 -0.38600
O 	O 	0.93572 0.05171 0.70923 -0.38500
O 	O 	0.09807 0.02870 0.78455 -0.39900
O 	O 	0.91386 0.90012 0.79041 -0.38800
O 	O 	0.00434 0.87185 0.78317 -0.38700
O 	O 	0.08460 0.07246 0.69996 -0.38500
O 	O 	0.86286 0.98334 0.75750 -0.38500
O 	O 	0.97501 0.08233 0.76828 -0.39400
O 	O 	0.14416 0.02353 0.72633 -0.38500
O 	O 	0.90895 0.81338 0.73883 -0.38400
O 	O 	0.03139 0.86384 0.72759 -0.39100
O 	O 	0.11984 0.12458 0.75455 -0.39400
O 	O 	0.99341 0.97087 0.73903 -0.71600
H 	H 	0.99386 0.95644 0.71940 0.15300
C 	C 	0.48041 0.84640 0.40074 0.29200
C 	C 	0.28708 0.52305 0.41856 0.31700
C 	C 	0.29318 0.70880 0.36951 0.31600
C 	C 	0.46732 0.65064 0.45392 0.28200
C 	C 	0.19113 0.64901 0.45073 0.30100
C 	C 	0.37902 0.79432 0.48443 0.28300
Ni	Ni	0.39838 0.67735 0.40089 1.11100
Ni	Ni	0.32240 0.63889 0.46245 1.12000
Ni	Ni	0.32750 0.77304 0.42635 1.11900
O 	O 	0.48708 0.78538 0.39989 -0.38100
O 	O 	0.41477 0.84152 0.40071 -0.38100
O 	O 	0.21823 0.60371 0.45218 -0.39100
O 	O 	0.30405 0.57394 0.39898 -0.39100
O 	O 	0.30959 0.54291 0.44444 -0.38600
O 	O 	0.37923 0.82944 0.46096 -0.38300
O 	O 	0.35779 0.71420 0.36837 -0.38200
O 	O 	0.26541 0.71318 0.39355 -0.39400
O 	O 	0.33137 0.72166 0.48852 -0.38100
O 	O 	0.44959 0.63422 0.42695 -0.37700
O 	O 	0.42447 0.66094 0.47172 -0.38400
O 	O 	0.23458 0.72254 0.44959 -0.38500
O 	O 	0.36561 0.70748 0.43206 -0.71800
H 	H 	0.41298 0.74303 0.44044 0.15500
C 	C 	0.42003 0.57733 0.04930 0.29200
C 	C 	0.19491 0.64064 0.09886 0.31700
C 	C 	0.23010 0.49055 0.04162 0.31500
C 	C 	0.39585 0.74813 0.11383 0.29400
C 	C 	0.23468 0.68803 0.00943 0.30900
C 	C 	0.44471 0.81381 0.02594 0.28200
Ni	Ni	0.30982 0.59678 0.08732 1.11100
Ni	Ni	0.31335 0.74653 0.06241 1.12000
Ni	Ni	0.34476 0.64414 0.02106 1.11900
O 	O 	0.37722 0.55447 0.07214 -0.37200
O 	O 	0.43082 0.63712 0.03503 -0.39100
O 	O 	0.27614 0.74917 0.02382 -0.39100
O 	O 	0.23681 0.61720 0.11020 -0.38000
O 	O 	0.20994 0.67131 0.07383 -0.39400
O 	O 	0.40849 0.75450 0.00899 -0.37800
O 	O 	0.22204 0.52355 0.06353 -0.38600
O 	O 	0.28582 0.52817 0.02425 -0.38400
O 	O 	0.41403 0.82189 0.04911 -0.38800
O 	O 	0.38973 0.68058 0.11188 -0.37900
O 	O 	0.34518 0.76170 0.10345 -0.38800
O 	O 	0.25309 0.63627 0.00588 -0.39000
O 	O 	0.33811 0.66995 0.05877 -0.71300
H 	H 	0.39056 0.69984 0.06301 0.15700
C 	C 	0.12018 0.16607 0.27100 0.29300
C 	C 	0.00350 0.90962 0.19244 0.31700
C 	C 	0.09056 0.15294 0.18824 0.31300
C 	C 	0.03862 0.90907 0.26650 0.30000
C 	C 	0.86468 0.01067 0.20149 0.31700
C 	C 	0.88378 0.01068 0.28121 0.28600
Ni	Ni	0.09771 0.04467 0.22870 1.11000
Ni	Ni	0.92286 0.93484 0.23745 1.12000
Ni	Ni	0.98788 0.11200 0.23597 1.11800
O 	O 	0.15046 0.14804 0.25006 -0.37500
O 	O 	0.05683 0.16427 0.26798 -0.38800
O 	O 	0.84937 0.95956 0.22105 -0.38900
O 	O 	0.06479 0.94532 0.20661 -0.38000
O 	O 	0.94834 0.92020 0.19789 -0.39700
O 	O 	0.89904 0.06452 0.26214 -0.38600
O 	O 	0.10315 0.09672 0.19064 -0.38600
O 	O 	0.07347 0.17890 0.21043 -0.38800
O 	O 	0.89224 0.95181 0.27552 -0.38600
O 	O 	0.09036 0.98051 0.26357 -0.38500
O 	O 	0.97456 0.88039 0.25334 -0.38500
O 	O 	0.92736 0.07350 0.20137 -0.40300
O 	O 	0.00698 0.03125 0.24014 -0.71900
H 	H 	0.01351 0.03256 0.26060 0.15000
C 	C 	0.14888 0.30056 0.13043 -0.09300
C 	C 	0.11817 0.25494 0.10684 0.00400
C 	C 	0.07845 0.17598 0.10999 0.02100
C 	C 	0.06871 0.14394 0.13686 -0.01200
C 	C 	0.09956 0.18942 0.16052 -0.11200
C 	C 	0.14161 0.26850 0.15717 0.09900
C 	C 	0.12880 0.29090 0.07886 0.00400
C 	C 	0.04781 0.12574 0.08479 -0.17000
H 	H 	0.03745 0.08341 0.13939 0.03500
C 	C 	0.17925 0.31895 0.18181 -0.20300
H 	H 	0.17942 0.36120 0.12787 0.04700
C 	C 	0.08446 0.32089 0.07020 0.02300
C 	C 	0.11098 0.37740 0.04943 -0.01100
C 	C 	0.18318 0.40798 0.03966 -0.11700
C 	C 	0.21570 0.36265 0.04190 0.10600
C 	C 	0.19102 0.30705 0.06293 -0.09800
C 	C 	0.01378 0.29973 0.08517 -0.16700
H 	H 	0.08087 0.40616 0.04471 0.04100
C 	C 	0.26690 0.36448 0.01964 -0.21100
H 	H 	0.22070 0.27761 0.06718 0.05200
H 	H 	0.13829 0.32276 0.19530 0.07800
H 	H 	0.22005 0.37676 0.17486 0.06300
H 	H 	0.20895 0.29691 0.19427 0.07900
H 	H 	0.09312 0.13343 0.07075 0.06100
H 	H 	0.01076 0.13974 0.07308 0.06000
H 	H 	0.01608 0.06540 0.09090 0.05500
H 	H 	0.97845 0.31370 0.07222 0.05900
H 	H 	0.02554 0.33078 0.10525 0.06500
H 	H 	0.98270 0.23838 0.08956 0.06000
H 	H 	0.31632 0.36899 0.02953 0.07900
H 	H 	0.28315 0.41178 0.00470 0.08700
H 	H 	0.23955 0.31140 0.00751 0.07100
C 	C 	0.72113 0.94983 0.14620 -0.10000
C 	C 	0.66796 0.95816 0.16088 0.01500
C 	C 	0.68682 0.00031 0.18583 0.01400
C 	C 	0.75507 0.02343 0.19791 -0.00500
C 	C 	0.80475 0.00650 0.18496 -0.12500
C 	C 	0.79010 0.97465 0.15798 0.11100
C 	C 	0.59088 0.91193 0.15277 -0.00000
C 	C 	0.63217 0.01483 0.20087 -0.17400
H 	H 	0.76785 0.05057 0.21823 0.03500
C 	C 	0.84555 0.96178 0.14272 -0.20600
H 	H 	0.70723 0.91990 0.12645 0.05500
C 	C 	0.56253 0.93282 0.12992 0.03100
C 	C 	0.49551 0.87977 0.11842 -0.02000
C 	C 	0.45622 0.80720 0.12992 -0.10800
C 	C 	0.47916 0.79079 0.15546 0.10000
C 	C 	0.54769 0.84251 0.16620 -0.09200
C 	C 	0.60551 0.00953 0.11657 -0.17900
H 	H 	0.47528 0.89400 0.09989 0.04000
C 	C 	0.43176 0.71825 0.17110 -0.20200
H 	H 	0.56840 0.82801 0.18455 0.05200
H 	H 	0.83180 0.94980 0.12017 0.06700
H 	H 	0.84744 0.91335 0.15228 0.07900
H 	H 	0.90052 0.01265 0.14396 0.07400
H 	H 	0.59291 0.96368 0.21270 0.06600
H 	H 	0.60175 0.02997 0.18569 0.06000
H 	H 	0.65968 0.06223 0.21581 0.05800
H 	H 	0.56870 0.02469 0.10527 0.05900
H 	H 	0.64577 0.00976 0.10148 0.06300
H 	H 	0.63474 0.05344 0.13264 0.06200
H 	H 	0.44094 0.67321 0.16268 0.07600
H 	H 	0.37307 0.70107 0.16922 0.07200
H 	H 	0.44498 0.72469 0.19381 0.06400
C 	C 	0.03635 0.80767 0.13432 -0.09600
C 	C 	0.01296 0.73788 0.14740 0.00700
C 	C 	0.96960 0.71907 0.17192 0.01900
C 	C 	0.96088 0.77471 0.18549 -0.01000
C 	C 	0.99236 0.84748 0.17416 -0.12000
C 	C 	0.02489 0.86222 0.14733 0.10400
C 	C 	0.04600 0.69227 0.13862 0.00300
C 	C 	0.93746 0.64179 0.18483 -0.16900
H 	H 	0.93349 0.76270 0.20569 0.03200
C 	C 	0.05032 0.93705 0.13315 -0.20800
H 	H 	0.06717 0.82103 0.11487 0.05100
C 	C 	0.02651 0.65276 0.11306 0.02300
C 	C 	0.07190 0.62773 0.10157 -0.01400
C 	C 	0.13586 0.64113 0.11546 -0.11600
C 	C 	0.14855 0.67007 0.14311 0.10200
C 	C 	0.10410 0.69665 0.15420 -0.09500
C 	C 	0.96055 0.64187 0.09702 -0.17200
H 	H 	0.05999 0.60209 0.08099 0.03900
C 	C 	0.21062 0.67555 0.16048 -0.20700
H 	H 	0.11697 0.72429 0.17441 0.05000
H 	H 	0.00637 0.95179 0.13407 0.07400
H 	H 	0.06385 0.93569 0.11071 0.06700
H 	H 	0.09970 0.98135 0.14381 0.08000
H 	H 	0.97977 0.63779 0.19726 0.05800
H 	H 	0.91681 0.59805 0.16830 0.06000
H 	H 	0.89076 0.62978 0.19888 0.05800
H 	H 	0.94302 0.59593 0.08145 0.05800
H 	H 	0.97380 0.69461 0.08573 0.06100
H 	H 	0.91382 0.62649 0.11150 0.06100
H 	H 	0.20834 0.69289 0.18233 0.06400
H 	H 	0.26372 0.71802 0.15125 0.08600
H 	H 	0.20752 0.61997 0.16170 0.07900
C 	C 	0.61884 0.99283 0.35455 -0.08500
C 	C 	0.68006 0.99272 0.36580 -0.00000
C 	C 	0.67851 0.97223 0.39417 0.02700
C 	C 	0.61123 0.93574 0.40852 -0.01600
C 	C 	0.54652 0.91933 0.39455 -0.10300
C 	C 	0.55197 0.95768 0.36918 0.09600
C 	C 	0.73659 0.99581 0.34642 0.01200
C 	C 	0.74620 0.98079 0.40805 -0.16700
H 	H 	0.60812 0.91212 0.42920 0.03600
C 	C 	0.48615 0.95650 0.35662 -0.19600
H 	H 	0.62151 0.01415 0.33349 0.04500
C 	C 	0.72540 0.93033 0.33239 0.02100
C 	C 	0.77549 0.93575 0.31183 -0.00800
C 	C 	0.83780 0.00513 0.30565 -0.11000
C 	C 	0.85232 0.06936 0.32153 0.09700
C 	C 	0.80017 0.06467 0.34111 -0.10100
C 	C 	0.65866 0.85505 0.33850 -0.17100
H 	H 	0.76476 0.88625 0.30001 0.03800
C 	C 	0.92276 0.14278 0.31773 -0.20400
H 	H 	0.80921 0.11454 0.35227 0.05000
H 	H 	0.45128 0.90141 0.34657 0.07700
H 	H 	0.50233 0.00137 0.34051 0.06000
H 	H 	0.45446 0.96624 0.37306 0.07800
H 	H 	0.79429 0.03601 0.40251 0.05900
H 	H 	0.75617 0.93505 0.40108 0.06200
H 	H 	0.74044 0.97817 0.43125 0.06100
H 	H 	0.66117 0.80861 0.32759 0.05800
H 	H 	0.60881 0.85541 0.33140 0.06600
H 	H 	0.65420 0.84268 0.36133 0.06700
H 	H 	0.91982 0.17198 0.29857 0.07400
H 	H 	0.96973 0.13289 0.31601 0.07400
H 	H 	0.93337 0.18053 0.33591 0.06400
C 	C 	0.16282 0.20506 0.34716 -0.09400
C 	C 	0.20602 0.28343 0.34632 0.00300
C 	C 	0.23535 0.32038 0.32047 0.02300
C 	C 	0.21338 0.27902 0.29551 -0.01300
C 	C 	0.16300 0.20178 0.29618 -0.10900
C 	C 	0.14112 0.16381 0.32222 0.09500
C 	C 	0.21394 0.32701 0.37194 0.00500
C 	C 	0.28577 0.40437 0.31929 -0.17100
H 	H 	0.23140 0.30784 0.27548 0.03600
C 	C 	0.09267 0.07974 0.32340 -0.21000
H 	H 	0.14288 0.17662 0.36715 0.04900
C 	C 	0.16487 0.35329 0.37767 0.02200
C 	C 	0.18475 0.41173 0.39695 -0.01100
C 	C 	0.25270 0.44378 0.41031 -0.11700
C 	C 	0.29502 0.40793 0.40832 0.10200
C 	C 	0.27560 0.35012 0.38878 -0.09800
C 	C 	0.09452 0.32381 0.36159 -0.17000
H 	H 	0.15052 0.43692 0.39958 0.03400
C 	C 	0.36505 0.43658 0.42448 -0.21000
H 	H 	0.31119 0.32687 0.38530 0.05000
H 	H 	0.08528 0.05792 0.34522 0.06500
H 	H 	0.11799 0.05314 0.31092 0.07700
H 	H 	0.03796 0.06320 0.31479 0.06900
H 	H 	0.33138 0.42130 0.33430 0.06200
H 	H 	0.25500 0.43353 0.32468 0.06300
H 	H 	0.31013 0.42332 0.29807 0.05800
H 	H 	0.05797 0.34226 0.37112 0.05700
H 	H 	0.06455 0.26136 0.36162 0.06200
H 	H 	0.10655 0.34471 0.33963 0.06200
H 	H 	0.38326 0.39426 0.42511 0.06800
H 	H 	0.35759 0.44884 0.44651 0.08900
H 	H 	0.40846 0.48829 0.41422 0.07800
C 	C 	0.13857 0.67594 0.32290 -0.09700
C 	C 	0.17151 0.74472 0.30837 0.00500
C 	C 	0.24851 0.79004 0.30815 0.02100
C 	C 	0.29022 0.77008 0.32523 -0.01300
C 	C 	0.25578 0.70838 0.34349 -0.11800
C 	C 	0.18051 0.65685 0.34025 0.10500
C 	C 	0.12533 0.77527 0.29823 0.00300
C 	C 	0.28560 0.86383 0.29239 -0.17100
H 	H 	0.34886 0.80620 0.32610 0.03400
C 	C 	0.14371 0.58450 0.35687 -0.20900
H 	H 	0.07976 0.63964 0.32213 0.05100
C 	C 	0.10505 0.76954 0.26980 0.02300
C 	C 	0.07407 0.81183 0.25983 -0.01600
C 	C 	0.05950 0.85611 0.27824 -0.10600
C 	C 	0.07021 0.85293 0.30733 0.09700
C 	C 	0.10528 0.81446 0.31697 -0.09300
C 	C 	0.11758 0.71982 0.25002 -0.17100
H 	H 	0.06298 0.81182 0.23765 0.04300
C 	C 	0.04469 0.88974 0.32832 -0.20500
H 	H 	0.11798 0.81592 0.33906 0.05200
H 	H 	0.09430 0.54119 0.34589 0.06600
H 	H 	0.12714 0.59487 0.37774 0.08200
H 	H 	0.18104 0.56145 0.35970 0.08000
H 	H 	0.27508 0.90535 0.30325 0.06400
H 	H 	0.26487 0.85639 0.27063 0.06100
H 	H 	0.34564 0.88708 0.29110 0.05700
H 	H 	0.09013 0.71394 0.22960 0.05700
H 	H 	0.09517 0.66265 0.25922 0.06100
H 	H 	0.17692 0.74392 0.24599 0.05800
H 	H 	0.00653 0.90648 0.31925 0.07400
H 	H 	0.09284 0.93991 0.33709 0.06800
H 	H 	0.01531 0.84994 0.34581 0.06800
C 	C 	0.63913 0.08582 0.53480 -0.07200
C 	C 	0.66902 0.04706 0.52097 0.00100
C 	C 	0.62417 0.97198 0.51328 -0.05300
C 	C 	0.54892 0.93565 0.51907 0.00900
C 	C 	0.52045 0.97193 0.53580 0.02100
C 	C 	0.56624 0.04664 0.54401 -0.03200
C 	C 	0.44504 0.93617 0.54118 -0.06200
C 	C 	0.39751 0.87027 0.52692 0.01000
C 	C 	0.42520 0.83942 0.50754 -0.07200
C 	C 	0.50087 0.86815 0.50561 -0.01900
H 	H 	0.72582 0.07657 0.51444 0.03100
H 	H 	0.64703 0.94385 0.50121 0.03900
H 	H 	0.54376 0.07608 0.55548 0.04500
H 	H 	0.42284 0.96214 0.55481 0.04500
H 	H 	0.33902 0.84687 0.52917 0.03300
H 	H 	0.52212 0.84263 0.49126 0.03400
C 	C 	0.85062 0.41825 0.47458 -0.06900
C 	C 	0.87282 0.39265 0.45137 0.00600
C 	C 	0.94180 0.43790 0.43929 -0.05700
C 	C 	0.98947 0.50898 0.45053 0.01000
C 	C 	0.96494 0.53751 0.47235 0.01700
C 	C 	0.89500 0.49222 0.48403 -0.02400
C 	C 	0.01267 0.60856 0.48363 -0.05900
C 	C 	0.08579 0.64823 0.47489 0.00700
C 	C 	0.11184 0.61730 0.45479 -0.07600
C 	C 	0.06278 0.54937 0.44169 -0.01600
H 	H 	0.83843 0.33595 0.44376 0.03300
H 	H 	0.95939 0.41618 0.42208 0.03800
H 	H 	0.87733 0.51236 0.50175 0.03800
H 	H 	0.99404 0.63169 0.49999 0.04300
H 	H 	0.12302 0.70106 0.48484 0.03700
H 	H 	0.08260 0.52604 0.42581 0.03900
C 	C 	0.52547 0.63890 0.46583 -0.07000
C 	C 	0.55109 0.66431 0.49305 0.00300
C 	C 	0.58668 0.63357 0.50814 -0.05800
C 	C 	0.59746 0.57756 0.49607 0.01200
C 	C 	0.57999 0.55879 0.46757 0.01200
C 	C 	0.54580 0.59121 0.45233 -0.02200
C 	C 	0.59157 0.50346 0.45537 -0.05800
C 	C 	0.61359 0.46211 0.47195 0.00300
C 	C 	0.62394 0.47541 0.50091 -0.07100
C 	C 	0.62013 0.53622 0.51259 -0.02100
H 	H 	0.53976 0.70475 0.50309 0.03500
H 	H 	0.60268 0.65074 0.52963 0.04000
H 	H 	0.53078 0.57547 0.43068 0.03900
H 	H 	0.58053 0.49020 0.43332 0.03900
H 	H 	0.61975 0.41762 0.46248 0.03300
H 	H 	0.63021 0.54827 0.53476 0.04100
C 	C 	0.75629 0.17088 0.65892 -0.09600
C 	C 	0.72703 0.10123 0.64541 0.00500
C 	C 	0.67367 0.08247 0.62445 0.02600
C 	C 	0.65821 0.13773 0.61472 -0.01200
C 	C 	0.69639 0.21110 0.62527 -0.11700
C 	C 	0.74047 0.22578 0.64921 0.10200
C 	C 	0.75773 0.05178 0.65161 -0.00200
C 	C 	0.63834 0.00645 0.61062 -0.18000
H 	H 	0.62123 0.12547 0.59732 0.03900
C 	C 	0.77563 0.30184 0.66297 -0.20600
H 	H 	0.79453 0.18382 0.67597 0.05200
C 	C 	0.82626 0.06837 0.64043 0.02900
C 	C 	0.86581 0.03835 0.65340 -0.02200
C 	C 	0.83653 0.99027 0.67667 -0.10200
C 	C 	0.76233 0.96252 0.68404 0.10000
C 	C 	0.72443 0.99577 0.67217 -0.08900
C 	C 	0.86014 0.12311 0.61640 -0.17500
H 	H 	0.92145 0.05687 0.64676 0.03500
C 	C 	0.72457 0.90060 0.70548 -0.20600
H 	H 	0.67030 0.98047 0.67982 0.04900
H 	H 	0.82678 0.34100 0.65162 0.07800
H 	H 	0.78902 0.29794 0.68519 0.06500
H 	H 	0.73807 0.32512 0.66278 0.07400
H 	H 	0.62151 0.96109 0.62653 0.06600
H 	H 	0.67738 0.00391 0.59563 0.06700
H 	H 	0.58843 0.99541 0.59904 0.06800
H 	H 	0.90452 0.11737 0.60623 0.06000
H 	H 	0.88337 0.18153 0.62420 0.06500
H 	H 	0.81861 0.11259 0.60014 0.06600
H 	H 	0.74469 0.92260 0.72676 0.07700
H 	H 	0.73439 0.85338 0.70081 0.07300
H 	H 	0.66446 0.87740 0.70531 0.06500
C 	C 	0.33013 0.12581 0.58510 -0.09400
C 	C 	0.34340 0.11392 0.61295 0.00200
C 	C 	0.41203 0.12236 0.62014 0.02500
C 	C 	0.46770 0.14782 0.59979 -0.01900
C 	C 	0.45744 0.16980 0.57312 -0.11300
C 	C 	0.38682 0.15372 0.56507 0.10100
C 	C 	0.28646 0.09628 0.63475 0.00300
C 	C 	0.42700 0.10700 0.64962 -0.17300
H 	H 	0.52091 0.15628 0.60543 0.04200
C 	C 	0.37306 0.17167 0.53585 -0.20700
H 	H 	0.27665 0.11662 0.57935 0.05000
C 	C 	0.27413 0.15313 0.64561 0.02400
C 	C 	0.22134 0.13519 0.66679 -0.01700
C 	C 	0.18352 0.06240 0.67832 -0.10100
C 	C 	0.19739 0.00606 0.66784 0.09200
C 	C 	0.24691 0.02302 0.64553 -0.09500
C 	C 	0.31701 0.23280 0.63473 -0.17200
H 	H 	0.21117 0.17852 0.67486 0.04000
C 	C 	0.16147 0.92870 0.68075 -0.20600
H 	H 	0.25641 0.97957 0.63710 0.05000
H 	H 	0.39342 0.23295 0.53392 0.07900
H 	H 	0.31384 0.14066 0.53085 0.06700
H 	H 	0.40149 0.15517 0.52018 0.07600
H 	H 	0.39225 0.04630 0.65463 0.06100
H 	H 	0.41532 0.14065 0.66481 0.06400
H 	H 	0.48501 0.12209 0.65231 0.06200
H 	H 	0.30695 0.27198 0.64750 0.05900
H 	H 	0.30094 0.23537 0.61279 0.06300
H 	H 	0.37651 0.25283 0.63543 0.06400
H 	H 	0.17137 0.88908 0.66818 0.06700
H 	H 	0.10192 0.90574 0.68169 0.08100
H 	H 	0.18301 0.93133 0.70216 0.07600
C 	C 	0.87872 0.66422 0.59762 -0.09200
C 	C 	0.93175 0.67144 0.61690 0.00300
C 	C 	0.96796 0.62994 0.61276 0.02500
C 	C 	0.93841 0.56947 0.59396 -0.01400
C 	C 	0.87568 0.55327 0.57866 -0.10700
C 	C 	0.85335 0.60755 0.57740 0.09600
C 	C 	0.93787 0.70944 0.64388 0.00500
C 	C 	0.03366 0.64546 0.62998 -0.17200
H 	H 	0.95962 0.53101 0.59337 0.03900
C 	C 	0.79696 0.60074 0.55662 -0.20600
H 	H 	0.85357 0.69896 0.59960 0.05000
C 	C 	0.96393 0.78754 0.64490 0.02200
C 	C 	0.96012 0.81989 0.67020 -0.01400
C 	C 	0.94183 0.77818 0.69519 -0.11700
C 	C 	0.91587 0.70020 0.69434 0.10100
C 	C 	0.91224 0.66599 0.66851 -0.09500
C 	C 	0.99672 0.83674 0.61933 -0.16900
H 	H 	0.97703 0.87924 0.67084 0.03200
C 	C 	0.89325 0.65368 0.72089 -0.20400
H 	H 	0.89036 0.60568 0.66756 0.05200
H 	H 	0.81013 0.65732 0.54891 0.06900
H 	H 	0.74251 0.57389 0.56695 0.07500
H 	H 	0.79524 0.56708 0.53813 0.07500
H 	H 	0.01561 0.61337 0.64998 0.06100
H 	H 	0.06728 0.70645 0.63460 0.06100
H 	H 	0.06894 0.62848 0.61847 0.06000
H 	H 	0.03194 0.89665 0.62526 0.06000
H 	H 	0.95255 0.83239 0.60554 0.06200
H 	H 	0.03159 0.81985 0.60748 0.06100
H 	H 	0.84932 0.65892 0.73167 0.07500
H 	H 	0.94083 0.67333 0.73510 0.07300
H 	H 	0.87212 0.59312 0.71654 0.06400
C 	C 	0.93595 0.51742 0.94314 -0.07300
C 	C 	0.99271 0.53761 0.92368 0.00600
C 	C 	0.06521 0.58602 0.93157 -0.05800
C 	C 	0.08098 0.61535 0.95886 0.01200
C 	C 	0.02326 0.59966 0.97766 0.01100
C 	C 	0.95132 0.54922 0.96996 -0.01800
C 	C 	0.03872 0.63134 0.00453 -0.05900
C 	C 	0.11082 0.67107 0.01376 0.00700
C 	C 	0.16759 0.67758 0.99651 -0.07800
C 	C 	0.15329 0.65499 0.96837 -0.01400
H 	H 	0.98101 0.51372 0.90283 0.03000
H 	H 	0.10901 0.59894 0.91675 0.04100
H 	H 	0.90743 0.53293 0.98508 0.03100
H 	H 	0.99477 0.62239 0.01868 0.03600
H 	H 	0.12191 0.69121 0.03514 0.03400
H 	H 	0.19772 0.66271 0.95469 0.03800
C 	C 	0.67212 0.15601 0.99422 -0.07000
C 	C 	0.66212 0.15107 0.02343 0.00300
C 	C 	0.62648 0.08064 0.03668 -0.05700
C 	C 	0.59923 0.01462 0.02074 0.00800
C 	C 	0.61637 0.01967 0.99192 0.00900
C 	C 	0.65640 0.09073 0.97914 -0.02100
C 	C 	0.58676 0.95398 0.97570 -0.05300
C 	C 	0.53431 0.88502 0.98728 0.00200
C 	C 	0.51229 0.88076 0.01540 -0.06500
C 	C 	0.54948 0.94459 0.03259 -0.01800
H 	H 	0.67663 0.20111 0.03555 0.03600
H 	H 	0.61555 0.07747 0.05897 0.03600
H 	H 	0.66809 0.09480 0.95683 0.04200
H 	H 	0.60120 0.95696 0.95372 0.04000
H 	H 	0.50875 0.83578 0.97405 0.03700
H 	H 	0.53605 0.94085 0.05469 0.04300
C 	C 	0.52897 0.34746 0.00843 -0.07600
C 	C 	0.52696 0.34696 0.03788 0.00700
C 	C 	0.49930 0.38707 0.05222 -0.05800
C 	C 	0.47508 0.42936 0.03715 0.00900
C 	C 	0.47209 0.42506 0.00754 0.01600
C 	C 	0.49529 0.38066 0.99354 -0.02100
C 	C 	0.45158 0.46977 0.99223 -0.06400
C 	C 	0.43641 0.52024 0.00596 0.01000
C 	C 	0.43878 0.52494 0.03540 -0.07700
C 	C 	0.45728 0.47870 0.05105 -0.01900
H 	H 	0.55166 0.32014 0.04962 0.02900
H 	H 	0.50045 0.38844 0.07493 0.04000
H 	H 	0.49498 0.37922 0.97081 0.04900
H 	H 	0.44890 0.46665 0.96954 0.04400
H 	H 	0.42086 0.55456 0.99371 0.01900
H 	H 	0.45928 0.48218 0.07374 0.03900
C 	C 	0.68345 0.13272 0.83614 -0.09400
C 	C 	0.74567 0.13343 0.84679 0.00200
C 	C 	0.77130 0.16267 0.87376 0.02500
C 	C 	0.73782 0.19632 0.88865 -0.01500
C 	C 	0.68062 0.20281 0.87670 -0.10900
C 	C 	0.65030 0.16689 0.85104 0.10000
C 	C 	0.78799 0.11082 0.82842 0.00500
C 	C 	0.83821 0.16424 0.88563 -0.17200
H 	H 	0.75973 0.22239 0.90874 0.03700
C 	C 	0.58592 0.16930 0.83859 -0.20500
H 	H 	0.66279 0.10843 0.81573 0.05000
C 	C 	0.77428 0.03609 0.82842 0.01900
C 	C 	0.81590 0.01666 0.81097 -0.01700
C 	C 	0.86857 0.06986 0.79260 -0.11200
C 	C 	0.88114 0.14441 0.79220 0.09900
C 	C 	0.84194 0.16461 0.81068 -0.09500
C 	C 	0.71376 0.97647 0.84621 -0.16700
H 	H 	0.80603 0.95944 0.81114 0.03900
C 	C 	0.93492 0.20212 0.77185 -0.20300
H 	H 	0.85240 0.22202 0.81088 0.05100
H 	H 	0.56294 0.13070 0.82046 0.06400
H 	H 	0.60313 0.22731 0.83132 0.07600
H 	H 	0.54174 0.15172 0.85449 0.07900
H 	H 	0.88755 0.20627 0.87401 0.06400
H 	H 	0.83367 0.10813 0.88386 0.06100
H 	H 	0.84535 0.17954 0.90818 0.06100
H 	H 	0.71102 0.92115 0.84426 0.05700
H 	H 	0.66039 0.96951 0.83954 0.06200
H 	H 	0.72266 0.99272 0.86863 0.06100
H 	H 	0.93095 0.25414 0.77169 0.06400
H 	H 	0.92399 0.17947 0.75020 0.07100
H 	H 	0.99147 0.21778 0.77787 0.07100
C 	C 	0.23143 0.23444 0.83798 -0.09500
C 	C 	0.30158 0.24452 0.83385 0.00400
C 	C 	0.31603 0.21229 0.81027 0.02300
C 	C 	0.25910 0.16741 0.79200 -0.01100
C 	C 	0.18817 0.15380 0.79705 -0.11500
C 	C 	0.17430 0.18887 0.81976 0.10100
C 	C 	0.35571 0.27732 0.85655 0.00500
C 	C 	0.39074 0.22117 0.80569 -0.17100
H 	H 	0.26947 0.14106 0.77424 0.03600
C 	C 	0.09853 0.17641 0.82499 -0.20800
H 	H 	0.22072 0.25961 0.85601 0.05000
C 	C 	0.41294 0.35264 0.85513 0.02100
C 	C 	0.47479 0.37575 0.87201 -0.01100
C 	C 	0.47829 0.32549 0.89115 -0.11600
C 	C 	0.41649 0.25271 0.89491 0.09900
C 	C 	0.35556 0.22974 0.87763 -0.09500
C 	C 	0.40994 0.40724 0.83470 -0.17000
H 	H 	0.52091 0.43227 0.86981 0.03500
C 	C 	0.41552 0.19865 0.91672 -0.20100
H 	H 	0.30961 0.17299 0.87944 0.05200
H 	H 	0.09705 0.20927 0.84320 0.06700
H 	H 	0.06009 0.11591 0.82930 0.08000
H 	H 	0.07969 0.19421 0.80629 0.07700
H 	H 	0.40232 0.19087 0.82243 0.06400
H 	H 	0.43331 0.28151 0.80596 0.06200
H 	H 	0.39471 0.19808 0.78514 0.05800
H 	H 	0.45056 0.46631 0.84000 0.05700
H 	H 	0.35501 0.40209 0.83519 0.06200
H 	H 	0.42157 0.39554 0.81317 0.06000
H 	H 	0.41832 0.22148 0.93804 0.07000
H 	H 	0.46188 0.18850 0.91333 0.05000
H 	H 	0.36457 0.14316 0.91573 0.06500
C 	C 	0.88945 0.72730 0.85708 -0.09400
C 	C 	0.89207 0.76979 0.88048 0.00400
C 	C 	0.92446 0.84867 0.87800 0.02200
C 	C 	0.94833 0.88310 0.85157 -0.01200
C 	C 	0.94157 0.83995 0.82780 -0.11300
C 	C 	0.91301 0.76149 0.83064 0.10000
C 	C 	0.85389 0.73005 0.90660 0.00400
C 	C 	0.93112 0.89583 0.90320 -0.17100
H 	H 	0.97062 0.94330 0.84936 0.03800
C 	C 	0.90519 0.71364 0.80547 -0.20500
H 	H 	0.86594 0.66694 0.85925 0.05000
C 	C 	0.77731 0.69764 0.90918 0.02200
C 	C 	0.73970 0.64102 0.92935 -0.01500
C 	C 	0.77785 0.61508 0.94578 -0.11600
C 	C 	0.85394 0.66258 0.94867 0.10900
C 	C 	0.89229 0.71577 0.92744 -0.09600
C 	C 	0.73504 0.71752 0.88881 -0.17100
H 	H 	0.68044 0.61066 0.92965 0.04100
C 	C 	0.88931 0.67242 0.97682 -0.20900
H 	H 	0.95152 0.74712 0.92755 0.05400
H 	H 	0.87183 0.72091 0.78913 0.07600
H 	H 	0.87774 0.65290 0.81099 0.06400
H 	H 	0.95994 0.72987 0.79674 0.08200
H 	H 	0.95941 0.88417 0.92042 0.06300
H 	H 	0.87597 0.88262 0.91050 0.06100
H 	H 	0.96315 0.95693 0.89830 0.06000
H 	H 	0.67925 0.69956 0.89687 0.05800
H 	H 	0.73018 0.68918 0.86849 0.06100
H 	H 	0.76300 0.77927 0.88535 0.06100
H 	H 	0.88964 0.72028 0.98777 0.07000
H 	H 	0.94670 0.68553 0.97420 0.07400
H 	H 	0.86000 0.62198 0.99039 0.08300
