data_crystal

_cell_length_a 46.38738
_cell_length_b 48.00304
_cell_length_c 29.40976
_cell_angle_alpha 92.04468
_cell_angle_beta  88.52715
_cell_angle_gamma 90.07425

_symmetry_space_group_name_	'P 1'
_symmetry_space_group_name_H-M	'P 1'

loop_
_symmetry_equiv_pos_as_xyz
  x,y,z

loop_
_atom_site_label
_atom_site_type_symbol
_atom_site_fract_x
_atom_site_fract_y
_atom_site_fract_z
_atom_site_charge
Cd	Cd	0.84972 0.88197 0.28968 1.24000
Cd	Cd	0.85156 0.93081 0.38277 1.17500
O 	O 	0.82319 0.83784 0.29800 -0.31900
O 	O 	0.84384 0.84877 0.23316 -0.35200
C 	C 	0.82950 0.83034 0.25601 0.27700
O 	O 	0.86974 0.91991 0.26033 -0.38800
O 	O 	0.88525 0.93883 0.32829 -0.42900
C 	C 	0.88109 0.94084 0.28432 0.29700
C 	C 	0.80072 0.91610 0.31055 0.30600
O 	O 	0.86776 0.88522 0.37410 -0.45800
O 	O 	0.79852 0.90417 0.27011 -0.29500
O 	O 	0.82178 0.90747 0.33445 -0.54500
C 	C 	0.89297 0.87699 0.35828 0.30500
O 	O 	0.89424 0.86918 0.31535 -0.36000
Cd	Cd	0.97407 0.85752 0.96206 1.24100
Cd	Cd	0.97747 0.91787 0.89401 1.16800
O 	O 	0.99003 0.81253 0.92730 -0.32100
O 	O 	0.97726 0.81684 0.99971 -0.34900
C 	C 	0.98613 0.80055 0.96589 0.27400
O 	O 	0.96527 0.89248 0.01231 -0.37500
O 	O 	0.95232 0.92405 0.95999 -0.42800
C 	C 	0.96291 0.91847 0.99980 0.28900
C 	C 	0.02826 0.88370 0.94429 0.31000
O 	O 	0.95288 0.87589 0.88689 -0.46000
O 	O 	0.03012 0.86674 0.97794 -0.29800
O 	O 	0.00407 0.88320 0.92337 -0.54200
C 	C 	0.92718 0.87017 0.90276 0.29500
O 	O 	0.92609 0.85685 0.94074 -0.35000
C 	C 	0.94400 0.62607 0.80948 0.12200
N 	N 	0.93439 0.60069 0.82222 -0.13900
C 	C 	0.92658 0.58121 0.79021 0.12900
N 	N 	0.92775 0.58739 0.74550 -0.14300
C 	C 	0.93685 0.61289 0.73268 0.12900
N 	N 	0.94517 0.63211 0.76467 -0.14200
C 	C 	0.85467 0.64222 0.34786 0.12100
N 	N 	0.86671 0.64692 0.38910 -0.13800
C 	C 	0.87408 0.62517 0.41459 0.13100
N 	N 	0.87034 0.59870 0.39824 -0.14400
C 	C 	0.85890 0.59388 0.35670 0.12900
N 	N 	0.85104 0.61564 0.33144 -0.14100
Cd	Cd	0.90321 0.99446 0.66951 1.24000
Cd	Cd	0.96967 0.95606 0.67172 1.16400
O 	O 	0.87319 0.99399 0.73945 -0.32500
O 	O 	0.86101 0.01905 0.68179 -0.35200
C 	C 	0.85499 0.01118 0.72293 0.27600
O 	O 	0.92702 0.00735 0.60656 -0.38000
O 	O 	0.95643 0.96978 0.60367 -0.43400
C 	C 	0.95272 0.99651 0.59756 0.28700
C 	C 	0.95057 0.01752 0.71818 0.31000
O 	O 	0.92146 0.94377 0.68169 -0.45800
O 	O 	0.93062 0.03620 0.71225 -0.29700
O 	O 	0.94394 0.99238 0.70493 -0.53400
C 	C 	0.90297 0.93429 0.65223 0.29100
O 	O 	0.88716 0.95340 0.63433 -0.36100
Cd	Cd	0.82380 0.11720 0.56495 1.24100
Cd	Cd	0.82707 0.13427 0.44753 1.16400
O 	O 	0.77807 0.12066 0.60929 -0.30900
O 	O 	0.81610 0.10061 0.63561 -0.34600
C 	C 	0.78835 0.10452 0.63966 0.27400
O 	O 	0.86732 0.10245 0.54096 -0.38300
O 	O 	0.87094 0.12805 0.47673 -0.43200
C 	C 	0.87923 0.10674 0.50045 0.28900
C 	C 	0.80035 0.07955 0.49787 0.31600
O 	O 	0.81734 0.16058 0.51431 -0.45600
O 	O 	0.80397 0.06762 0.53646 -0.30000
O 	O 	0.80507 0.10619 0.49844 -0.54000
C 	C 	0.83617 0.17360 0.53960 0.29900
O 	O 	0.84226 0.16145 0.57719 -0.35400
C 	C 	0.70893 0.03528 0.97427 0.11800
N 	N 	0.68212 0.04613 0.97029 -0.14300
C 	C 	0.66237 0.04444 0.00486 0.13500
N 	N 	0.66994 0.03352 0.04469 -0.14400
C 	C 	0.69685 0.02311 0.04942 0.12900
N 	N 	0.71624 0.02351 0.01389 -0.13600
C 	C 	0.67472 0.00456 0.45533 0.11900
N 	N 	0.68804 0.00418 0.41355 -0.14300
C 	C 	0.67255 0.99898 0.37557 0.12600
N 	N 	0.64359 0.99504 0.37935 -0.14200
C 	C 	0.63014 0.99622 0.42094 0.12900
N 	N 	0.64577 0.00069 0.45886 -0.13900
Cd	Cd	0.01113 0.17122 0.22233 1.24200
Cd	Cd	0.02114 0.13693 0.32579 1.17800
O 	O 	0.03499 0.21637 0.21100 -0.31800
O 	O 	0.00923 0.19617 0.15794 -0.36700
C 	C 	0.02356 0.21823 0.17128 0.28500
O 	O 	0.99146 0.12943 0.20932 -0.37300
O 	O 	0.98446 0.12060 0.28458 -0.42500
C 	C 	0.98699 0.11160 0.24188 0.29700
C 	C 	0.06374 0.14167 0.23446 0.31000
O 	O 	0.00160 0.17994 0.31072 -0.45700
O 	O 	0.06042 0.14766 0.19187 -0.28900
O 	O 	0.04499 0.15315 0.26296 -0.53000
C 	C 	0.97479 0.18481 0.30136 0.29900
O 	O 	0.96894 0.18630 0.25844 -0.35500
Cd	Cd	0.01401 0.15715 0.05714 1.24200
Cd	Cd	0.06655 0.10428 0.02788 1.16800
O 	O 	0.00428 0.19249 0.00068 -0.32100
O 	O 	0.97831 0.18977 0.06401 -0.34700
C 	C 	0.98319 0.20239 0.02619 0.27300
O 	O 	0.00830 0.12716 0.11277 -0.38100
O 	O 	0.05151 0.10552 0.10089 -0.42600
C 	C 	0.02395 0.10427 0.11231 0.30200
C 	C 	0.99897 0.11184 0.99623 0.29500
O 	O 	0.06830 0.15236 0.03389 -0.46600
O 	O 	0.97636 0.12562 0.01216 -0.29400
O 	O 	0.02354 0.12293 0.00679 -0.52600
C 	C 	0.07516 0.16844 0.06841 0.29500
O 	O 	0.05327 0.17882 0.09222 -0.34200
C 	C 	0.90881 0.32968 0.80362 0.12200
N 	N 	0.90939 0.35744 0.81408 -0.14000
C 	C 	0.90632 0.37609 0.78098 0.13000
N 	N 	0.90207 0.36696 0.73746 -0.14300
C 	C 	0.90157 0.33922 0.72677 0.12900
N 	N 	0.90496 0.32056 0.75989 -0.13900
C 	C 	0.92243 0.35419 0.31887 0.12100
N 	N 	0.90944 0.37919 0.31368 -0.14200
C 	C 	0.89793 0.39354 0.35040 0.12800
N 	N 	0.89945 0.38284 0.39239 -0.14300
C 	C 	0.91284 0.35810 0.39784 0.13000
N 	N 	0.92459 0.34395 0.36116 -0.13900
Cd	Cd	0.18257 0.07681 0.78609 1.24100
Cd	Cd	0.11946 0.07173 0.85811 1.16000
O 	O 	0.22979 0.07131 0.82083 -0.31900
O 	O 	0.22592 0.07585 0.74711 -0.34900
C 	C 	0.24271 0.07251 0.78126 0.27700
O 	O 	0.14665 0.07517 0.73720 -0.38200
O 	O 	0.11094 0.08779 0.78896 -0.42800
C 	C 	0.11929 0.07463 0.75080 0.29500
C 	C 	0.16251 0.02360 0.81300 0.30500
O 	O 	0.15859 0.10207 0.85831 -0.46600
O 	O 	0.18203 0.02087 0.78027 -0.29200
O 	O 	0.15931 0.04855 0.83051 -0.54500
C 	C 	0.16117 0.12546 0.83742 0.29400
O 	O 	0.17578 0.12435 0.79888 -0.35000
Cd	Cd	0.12168 0.97501 0.47769 1.23900
Cd	Cd	0.08529 0.95154 0.37845 1.17200
O 	O 	0.16879 0.95463 0.49464 -0.31700
O 	O 	0.15131 0.99079 0.53371 -0.35700
C 	C 	0.17304 0.97396 0.52589 0.27600
O 	O 	0.08557 0.00548 0.47134 -0.39100
O 	O 	0.05733 0.97554 0.42960 -0.42500
C 	C 	0.06263 0.00081 0.44631 0.29700
C 	C 	0.14142 0.99375 0.39119 0.31400
O 	O 	0.09912 0.92899 0.44285 -0.45700
O 	O 	0.15201 0.00858 0.42486 -0.30100
O 	O 	0.12694 0.97182 0.40298 -0.53400
C 	C 	0.08369 0.92705 0.48034 0.30500
O 	O 	0.09068 0.94438 0.51351 -0.36500
C 	C 	0.40626 0.09680 0.96637 0.11900
N 	N 	0.39598 0.10272 0.00936 -0.14000
C 	C 	0.41359 0.10105 0.04535 0.12900
N 	N 	0.44172 0.09407 0.03813 -0.14300
C 	C 	0.45210 0.08817 0.99533 0.12800
N 	N 	0.43430 0.08924 0.95954 -0.13800
C 	C 	0.36829 0.01896 0.42221 0.12100
N 	N 	0.39429 0.00964 0.43571 -0.13800
C 	C 	0.41857 0.01511 0.41078 0.13000
N 	N 	0.41685 0.02991 0.37252 -0.14300
C 	C 	0.39094 0.03889 0.35854 0.12900
N 	N 	0.36662 0.03310 0.38312 -0.14200
C 	C 	0.38892 0.05139 0.31366 -0.05000
C 	C 	0.37763 0.07855 0.30899 0.10200
C 	C 	0.37676 0.08975 0.26554 -0.08700
C 	C 	0.38826 0.07497 0.22728 -0.00500
C 	C 	0.40014 0.04809 0.23218 0.07200
C 	C 	0.39962 0.03632 0.27515 -0.05200
N 	N 	0.36848 0.09427 0.34599 -0.19900
H 	H 	0.36786 0.11039 0.26168 0.05500
C 	C 	0.38896 0.08832 0.18263 -0.00500
N 	N 	0.41251 0.03369 0.19603 -0.19400
H 	H 	0.40825 0.01555 0.27884 0.04900
C 	C 	0.41094 0.10746 0.17304 -0.08600
C 	C 	0.41672 0.11519 0.12813 0.10300
C 	C 	0.40133 0.10225 0.09223 -0.05100
C 	C 	0.37695 0.08604 0.10252 -0.05400
C 	C 	0.37030 0.07936 0.14770 0.07100
H 	H 	0.42417 0.11563 0.20031 0.05600
N 	N 	0.43675 0.13517 0.11969 -0.19900
H 	H 	0.36412 0.07729 0.07520 0.05100
N 	N 	0.34652 0.06381 0.15720 -0.19400
H 	H 	0.44896 0.14377 0.14607 0.08700
H 	H 	0.43929 0.14335 0.08739 0.09500
H 	H 	0.33344 0.05636 0.13102 0.08600
H 	H 	0.34028 0.05976 0.19069 0.09000
H 	H 	0.42059 0.01362 0.19987 0.08500
H 	H 	0.41494 0.04242 0.16417 0.09000
H 	H 	0.37116 0.08769 0.37904 0.09800
H 	H 	0.35942 0.11393 0.34196 0.08900
C 	C 	0.23954 0.01751 0.51742 -0.03700
C 	C 	0.26078 0.99653 0.51715 0.02300
C 	C 	0.25346 0.97004 0.53244 -0.05600
C 	C 	0.22455 0.96330 0.54183 0.02400
C 	C 	0.20275 0.98316 0.53541 -0.06900
C 	C 	0.21066 0.01080 0.52698 0.01000
C 	C 	0.28901 0.00061 0.49352 0.01300
C 	C 	0.31204 0.01242 0.51745 -0.04400
C 	C 	0.33823 0.01822 0.49476 -0.00400
C 	C 	0.34160 0.01170 0.44766 -0.01900
C 	C 	0.31872 0.99930 0.42408 -0.02100
C 	C 	0.29247 0.99389 0.44662 -0.02800
C 	C 	0.36108 0.03176 0.51967 0.08400
C 	C 	0.26894 0.98197 0.42119 0.08600
C 	C 	0.24697 0.04556 0.50529 0.09300
C 	C 	0.21731 0.93576 0.55675 0.07900
N 	N 	0.37940 0.04261 0.53961 -0.11400
N 	N 	0.25006 0.97244 0.40088 -0.11500
N 	N 	0.21151 0.91369 0.56871 -0.10900
N 	N 	0.25295 0.06803 0.49554 -0.11500
H 	H 	0.19412 0.02654 0.52404 0.04900
H 	H 	0.27002 0.95421 0.53435 0.05400
H 	H 	0.30934 0.01767 0.55350 0.05200
H 	H 	0.32127 0.99412 0.38798 0.04500
C 	C 	0.33971 0.07927 0.89975 -0.02700
C 	C 	0.34781 0.08791 0.85585 0.01200
C 	C 	0.37470 0.10058 0.84867 -0.04500
C 	C 	0.39370 0.10441 0.88470 -0.00500
C 	C 	0.38606 0.09468 0.92826 -0.01900
C 	C 	0.35899 0.08225 0.93535 -0.02100
C 	C 	0.32742 0.08514 0.81799 0.02400
C 	C 	0.31120 0.10839 0.80665 -0.05800
C 	C 	0.28460 0.10465 0.78580 0.02400
C 	C 	0.27387 0.07750 0.77775 -0.07000
C 	C 	0.29257 0.05477 0.78089 0.01000
C 	C 	0.31955 0.05853 0.80057 -0.03800
C 	C 	0.26768 0.12867 0.77512 0.07400
C 	C 	0.33809 0.03479 0.80580 0.09200
C 	C 	0.31140 0.06778 0.90870 0.08600
C 	C 	0.42034 0.11940 0.87716 0.08300
N 	N 	0.25414 0.14790 0.76643 -0.10600
N 	N 	0.35296 0.01577 0.81003 -0.11500
N 	N 	0.44167 0.13139 0.87110 -0.11500
N 	N 	0.28872 0.05859 0.91581 -0.11400
H 	H 	0.35296 0.07480 0.96868 0.04400
H 	H 	0.38065 0.10784 0.81519 0.05000
H 	H 	0.31817 0.12916 0.81723 0.05300
H 	H 	0.28508 0.03390 0.77198 0.04200
C 	C 	0.90050 0.32962 0.67871 -0.04800
C 	C 	0.87731 0.33729 0.65147 0.10200
C 	C 	0.88062 0.33551 0.60387 -0.08400
C 	C 	0.90634 0.32547 0.58329 -0.00600
C 	C 	0.92792 0.31435 0.61052 0.07200
C 	C 	0.92491 0.31677 0.65816 -0.05300
N 	N 	0.85191 0.34632 0.67080 -0.19900
H 	H 	0.86358 0.34294 0.58283 0.05600
C 	C 	0.91223 0.33078 0.53462 -0.00500
N 	N 	0.95158 0.30157 0.59117 -0.19500
H 	H 	0.94220 0.30987 0.67917 0.05700
C 	C 	0.92781 0.35470 0.52329 -0.08500
C 	C 	0.93021 0.36279 0.47798 0.10200
C 	C 	0.91568 0.34726 0.44376 -0.04900
C 	C 	0.90177 0.32228 0.45458 -0.05200
C 	C 	0.90025 0.31366 0.49977 0.07100
H 	H 	0.93777 0.36728 0.54994 0.05600
N 	N 	0.94680 0.38518 0.46747 -0.19900
H 	H 	0.89159 0.30984 0.42799 0.05400
N 	N 	0.88752 0.28893 0.50936 -0.19400
H 	H 	0.95649 0.39720 0.49318 0.08600
H 	H 	0.95130 0.39011 0.43374 0.09300
H 	H 	0.87819 0.27669 0.48359 0.08800
H 	H 	0.88762 0.28118 0.54208 0.09100
H 	H 	0.96789 0.29420 0.61146 0.08700
H 	H 	0.95352 0.29796 0.55600 0.08800
H 	H 	0.84806 0.34579 0.70590 0.09400
H 	H 	0.83523 0.35294 0.65052 0.08700
C 	C 	0.12121 0.21286 0.00600 -0.05900
C 	C 	0.13906 0.19066 0.99056 0.00000
C 	C 	0.14490 0.16942 0.02115 -0.00300
C 	C 	0.12748 0.16714 0.06041 -0.02000
C 	C 	0.10262 0.18358 0.06557 -0.08800
C 	C 	0.10293 0.20941 0.04423 0.05500
C 	C 	0.14385 0.18535 0.94085 0.01700
S 	S 	0.17151 0.14403 0.00836 -0.08300
H 	H 	0.12991 0.14925 0.08132 0.01900
S 	S 	0.07787 0.23556 0.06061 -0.02200
H 	H 	0.11887 0.23094 0.98537 0.05300
C 	C 	0.12104 0.17531 0.91370 -0.02000
C 	C 	0.12723 0.15909 0.87425 -0.01400
C 	C 	0.15576 0.15207 0.86239 -0.10200
C 	C 	0.17839 0.16620 0.88469 0.05900
C 	C 	0.17217 0.18359 0.92302 -0.07500
S 	S 	0.08473 0.18152 0.92980 -0.03400
H 	H 	0.10975 0.14963 0.85537 0.01200
S 	S 	0.21456 0.16043 0.86745 -0.02600
H 	H 	0.18965 0.19304 0.94187 0.05500
H 	H 	0.05277 0.23118 0.03782 0.04300
H 	H 	0.07282 0.15748 0.94552 0.00900
H 	H 	0.22487 0.13759 0.88845 0.04100
H 	H 	0.19741 0.15320 0.02454 0.04300
C 	C 	0.95643 0.26934 0.98200 -0.04100
C 	C 	0.93581 0.25923 0.95110 0.02700
C 	C 	0.92637 0.23155 0.95312 -0.05800
C 	C 	0.93965 0.21316 0.98198 0.02300
C 	C 	0.96276 0.22250 0.00880 -0.07000
C 	C 	0.96989 0.25089 0.01058 0.01200
C 	C 	0.92751 0.27602 0.91228 0.01100
C 	C 	0.94461 0.27481 0.87224 -0.04400
C 	C 	0.93822 0.29160 0.83589 -0.00400
C 	C 	0.91417 0.30962 0.83926 -0.01900
C 	C 	0.89661 0.31025 0.87890 -0.02000
C 	C 	0.90317 0.29357 0.91539 -0.02600
C 	C 	0.95712 0.29102 0.79603 0.08200
C 	C 	0.88510 0.29490 0.95614 0.08800
C 	C 	0.96458 0.29839 0.98343 0.09400
C 	C 	0.93032 0.18445 0.98238 0.07800
N 	N 	0.97226 0.29056 0.76412 -0.11700
N 	N 	0.87065 0.29595 0.98882 -0.11200
N 	N 	0.92280 0.16145 0.98267 -0.10500
N 	N 	0.97109 0.32168 0.98456 -0.11300
H 	H 	0.98712 0.25828 0.03217 0.03700
H 	H 	0.90973 0.22400 0.93051 0.05500
H 	H 	0.96327 0.26118 0.86982 0.05100
H 	H 	0.87810 0.32407 0.88157 0.04600
C 	C 	0.11629 0.08078 0.22717 -0.08300
C 	C 	0.11041 0.06863 0.26900 0.01900
C 	C 	0.09263 0.08277 0.30184 -0.02100
C 	C 	0.07958 0.10788 0.29147 0.01600
C 	C 	0.08295 0.11864 0.24789 -0.13000
C 	C 	0.10351 0.10620 0.21699 0.07000
C 	C 	0.12563 0.04293 0.28055 0.01800
S 	S 	0.08704 0.06957 0.35657 -0.06900
H 	H 	0.06713 0.11914 0.31756 -0.08500
S 	S 	0.11692 0.12405 0.16972 -0.04200
H 	H 	0.13149 0.07089 0.20308 0.04900
C 	C 	0.11033 0.01773 0.28352 -0.02300
C 	C 	0.11741 0.99899 0.31692 0.02100
C 	C 	0.14104 0.00459 0.34475 -0.13800
C 	C 	0.16071 0.02560 0.33211 0.07100
C 	C 	0.15250 0.04528 0.30098 -0.08200
S 	S 	0.08351 0.00899 0.24436 -0.06500
H 	H 	0.10412 0.98084 0.32208 -0.08700
S 	S 	0.19563 0.02706 0.35421 -0.02800
H 	H 	0.16589 0.06343 0.29541 0.05500
H 	H 	0.10420 0.11381 0.13111 0.01900
H 	H 	0.05764 0.02049 0.25807 0.03700
H 	H 	0.21390 0.01094 0.32706 0.04100
H 	H 	0.10897 0.07822 0.38402 0.04000
C 	C 	0.97388 0.27469 0.14466 -0.03900
C 	C 	0.98551 0.29507 0.17457 0.02500
C 	C 	0.01510 0.29407 0.18323 -0.05700
C 	C 	0.03077 0.26978 0.17172 0.02400
C 	C 	0.01613 0.24602 0.15469 -0.07300
C 	C 	0.98904 0.24982 0.13548 0.00100
C 	C 	0.96617 0.31074 0.20722 0.01300
C 	C 	0.94925 0.29586 0.23834 -0.04400
C 	C 	0.93381 0.30984 0.27365 -0.00500
C 	C 	0.93593 0.33914 0.27901 -0.02000
C 	C 	0.95183 0.35413 0.24666 -0.02100
C 	C 	0.96673 0.34009 0.21064 -0.02700
C 	C 	0.91550 0.29397 0.30369 0.08400
C 	C 	0.98241 0.35593 0.17727 0.08600
C 	C 	0.94564 0.27829 0.12626 0.09200
C 	C 	0.06130 0.26880 0.17988 0.08300
N 	N 	0.90088 0.28122 0.32774 -0.11600
N 	N 	0.99498 0.36861 0.15052 -0.11200
N 	N 	0.08578 0.26800 0.18639 -0.10700
N 	N 	0.92301 0.28117 0.11145 -0.11000
H 	H 	0.97849 0.23258 0.11808 0.05600
H 	H 	0.02514 0.31095 0.20256 0.05600
H 	H 	0.94861 0.27326 0.23555 0.05400
H 	H 	0.95308 0.37667 0.25005 0.04700
C 	C 	0.59842 0.99612 0.42456 -0.04800
C 	C 	0.58209 0.01915 0.41086 0.10200
C 	C 	0.55188 0.01819 0.41447 -0.08400
C 	C 	0.53778 0.99520 0.43298 -0.00500
C 	C 	0.55412 0.97257 0.44807 0.07200
C 	C 	0.58434 0.97317 0.44331 -0.05200
N 	N 	0.59523 0.04240 0.39503 -0.19900
H 	H 	0.53928 0.03553 0.40316 0.05600
C 	C 	0.50583 0.99466 0.43445 -0.00600
N 	N 	0.54102 0.95043 0.46759 -0.19400
H 	H 	0.59694 0.95579 0.45449 0.05300
C 	C 	0.49136 0.98078 0.39904 -0.08500
C 	C 	0.46168 0.98474 0.39378 0.10100
C 	C 	0.44655 0.00372 0.42356 -0.04700
C 	C 	0.46036 0.01540 0.46155 -0.05300
C 	C 	0.48992 0.01082 0.46755 0.07400
H 	H 	0.50340 0.96752 0.37472 0.05600
N 	N 	0.44784 0.97037 0.36014 -0.19900
H 	H 	0.44844 0.02911 0.48533 0.05600
N 	N 	0.50291 0.02211 0.50484 -0.19400
H 	H 	0.45934 0.95720 0.33716 0.08600
H 	H 	0.42545 0.97128 0.35759 0.09300
H 	H 	0.49124 0.03474 0.52840 0.08900
H 	H 	0.52440 0.01775 0.51156 0.09200
H 	H 	0.55324 0.93365 0.47802 0.08800
H 	H 	0.51874 0.94985 0.47336 0.09100
H 	H 	0.61760 0.04468 0.39478 0.09300
H 	H 	0.58294 0.05895 0.38392 0.08600
C 	C 	0.63210 0.05185 0.99768 -0.05700
C 	C 	0.61511 0.03635 0.96637 0.10400
C 	C 	0.58629 0.04401 0.96069 -0.08700
C 	C 	0.57372 0.06568 0.98748 -0.00600
C 	C 	0.59067 0.08114 0.01885 0.07300
C 	C 	0.61980 0.07416 0.02334 -0.04700
N 	N 	0.62596 0.01357 0.94294 -0.20000
H 	H 	0.57320 0.03223 0.93675 0.05700
C 	C 	0.54222 0.07008 0.98562 -0.00800
N 	N 	0.57911 0.10257 0.04482 -0.19400
H 	H 	0.63289 0.08597 0.04725 0.04900
C 	C 	0.52381 0.05305 0.01099 -0.08300
C 	C 	0.49388 0.05710 0.01133 0.10500
C 	C 	0.48238 0.07968 0.98800 -0.05100
C 	C 	0.50062 0.09585 0.96079 -0.05300
C 	C 	0.53050 0.09106 0.95891 0.07200
H 	H 	0.53281 0.03642 0.03021 0.05600
N 	N 	0.47628 0.03884 0.03298 -0.19900
H 	H 	0.49166 0.11269 0.94199 0.05600
N 	N 	0.54777 0.10682 0.93195 -0.19400
H 	H 	0.48498 0.02299 0.05187 0.08600
H 	H 	0.45395 0.03927 0.02936 0.09500
H 	H 	0.53895 0.12254 0.91293 0.08900
H 	H 	0.56997 0.10343 0.92907 0.09100
H 	H 	0.59176 0.11371 0.06809 0.08500
H 	H 	0.55761 0.10852 0.04207 0.09100
H 	H 	0.64618 0.00544 0.94978 0.09300
H 	H 	0.61357 0.00295 0.91870 0.08800
C 	C 	0.70453 0.01074 0.09279 -0.04700
C 	C 	0.68596 0.99108 0.11314 0.10300
C 	C 	0.68657 0.98771 0.16033 -0.08500
C 	C 	0.70661 0.00237 0.18685 -0.00400
C 	C 	0.72852 0.01805 0.16513 0.07200
C 	C 	0.72690 0.02264 0.11823 -0.05400
N 	N 	0.66756 0.97547 0.08753 -0.19800
H 	H 	0.67086 0.97432 0.17661 0.05700
C 	C 	0.70239 0.00364 0.23716 -0.00300
N 	N 	0.75064 0.02921 0.18918 -0.19400
H 	H 	0.74211 0.03663 0.10218 0.05700
C 	C 	0.70903 0.98011 0.26188 -0.08700
C 	C 	0.70094 0.97872 0.30817 0.10500
C 	C 	0.68629 0.00150 0.33014 -0.05000
C 	C 	0.68154 0.02577 0.30632 -0.05200
C 	C 	0.68881 0.02691 0.25977 0.07000
H 	H 	0.71958 0.96242 0.24465 0.06200
N 	N 	0.70679 0.95530 0.33095 -0.19900
H 	H 	0.67075 0.04336 0.32351 0.04600
N 	N 	0.68192 0.05002 0.23681 -0.19400
H 	H 	0.71674 0.93822 0.31405 0.09600
H 	H 	0.70216 0.95401 0.36573 0.09600
H 	H 	0.67217 0.06712 0.25396 0.08300
H 	H 	0.68569 0.05118 0.20182 0.09000
H 	H 	0.76622 0.04153 0.17326 0.08600
H 	H 	0.75311 0.02499 0.22346 0.08700
H 	H 	0.66847 0.97577 0.05203 0.09500
H 	H 	0.65302 0.96184 0.10293 0.08900
C 	C 	0.90587 0.19938 0.49148 -0.07800
C 	C 	0.89576 0.20931 0.45061 0.01000
C 	C 	0.86649 0.21654 0.44777 -0.02100
C 	C 	0.84692 0.20897 0.48220 -0.02600
C 	C 	0.85640 0.19375 0.51890 -0.11100
C 	C 	0.88640 0.19226 0.52625 0.05900
C 	C 	0.91393 0.20566 0.40890 0.00800
S 	S 	0.85396 0.23368 0.40019 -0.06000
H 	H 	0.82406 0.21253 0.47826 0.02400
S 	S 	0.89987 0.18340 0.57924 -0.02700
H 	H 	0.92873 0.19570 0.49516 0.05100
C 	C 	0.93798 0.22295 0.40106 -0.00600
C 	C 	0.95778 0.21597 0.36572 -0.00200
C 	C 	0.95329 0.19236 0.33725 -0.10600
C 	C 	0.92829 0.17605 0.34351 0.04900
C 	C 	0.90896 0.18263 0.37947 -0.06700
S 	S 	0.94305 0.25368 0.43438 -0.03300
H 	H 	0.97658 0.22899 0.36020 0.03800
S 	S 	0.92126 0.14693 0.30738 -0.05500
H 	H 	0.89040 0.16936 0.38541 0.01900
H 	H 	0.90252 0.20707 0.60624 0.04000
H 	H 	0.95794 0.24764 0.47243 0.03100
H 	H 	0.93030 0.12322 0.32732 0.03500
H 	H 	0.85642 0.26193 0.40736 0.04200
C 	C 	0.99396 0.03816 0.41674 -0.08500
C 	C 	0.98977 0.05582 0.45527 0.01600
C 	C 	0.01179 0.05869 0.48716 -0.01000
C 	C 	0.03592 0.04113 0.48365 -0.00000
C 	C 	0.03923 0.02192 0.44667 -0.10200
C 	C 	0.01898 0.02195 0.41146 0.06700
C 	C 	0.96110 0.06860 0.46473 0.00200
S 	S 	0.01009 0.08522 0.52989 -0.03800
H 	H 	0.05188 0.04222 0.50988 0.04600
S 	S 	0.02572 0.00355 0.35943 -0.11500
H 	H 	0.97766 0.03693 0.39096 0.05300
C 	C 	0.95528 0.09613 0.45260 0.01400
C 	C 	0.92870 0.10840 0.46493 -0.01800
C 	C 	0.90730 0.09319 0.48811 -0.09300
C 	C 	0.91284 0.06513 0.49855 0.05100
C 	C 	0.93976 0.05324 0.48727 -0.07000
S 	S 	0.98094 0.11537 0.42165 -0.12900
H 	H 	0.92471 0.12985 0.45652 0.04300
S 	S 	0.88626 0.04432 0.52450 -0.05000
H 	H 	0.94419 0.03199 0.49635 0.05600
H 	H 	0.04817 0.01614 0.33722 0.02900
H 	H 	0.97579 0.11201 0.37617 -0.00700
H 	H 	0.88722 0.04782 0.57086 0.05200
H 	H 	0.02299 0.10880 0.51408 0.02800
C 	C 	0.71552 0.05041 0.53800 -0.02500
C 	C 	0.71592 0.03385 0.57678 0.01300
C 	C 	0.70359 0.00714 0.57488 -0.04300
C 	C 	0.69108 0.99683 0.53472 -0.00600
C 	C 	0.69077 0.01343 0.49601 -0.02000
C 	C 	0.70348 0.03991 0.49776 -0.02000
C 	C 	0.73118 0.04369 0.61815 0.02300
C 	C 	0.72058 0.06720 0.64307 -0.05200
C 	C 	0.74009 0.08632 0.66239 0.02400
C 	C 	0.76992 0.08162 0.65603 -0.06600
C 	C 	0.77901 0.05416 0.64561 0.00700
C 	C 	0.75993 0.03542 0.62449 -0.03300
C 	C 	0.72962 0.11197 0.68387 0.08200
C 	C 	0.77059 0.00914 0.60553 0.09600
C 	C 	0.72621 0.07868 0.53989 0.09000
C 	C 	0.67930 0.96895 0.53311 0.08000
N 	N 	0.72122 0.13255 0.70109 -0.10800
N 	N 	0.77914 0.98809 0.59030 -0.11900
N 	N 	0.66985 0.94662 0.53178 -0.11500
N 	N 	0.73460 0.10139 0.54149 -0.11200
H 	H 	0.70302 0.05279 0.46821 0.04500
H 	H 	0.70405 0.99429 0.60445 0.05200
H 	H 	0.69783 0.07231 0.64240 0.05500
H 	H 	0.80168 0.04888 0.64716 0.05600
C 	C 	0.00419 0.05396 0.63137 -0.07800
C 	C 	0.02986 0.03857 0.62916 0.00700
C 	C 	0.03097 0.01327 0.60352 -0.01700
C 	C 	0.00568 0.00209 0.58529 -0.02600
C 	C 	0.97883 0.01476 0.59561 -0.11700
C 	C 	0.97861 0.04236 0.61455 0.05200
C 	C 	0.05384 0.04694 0.65916 0.01200
S 	S 	0.06353 0.99467 0.59616 -0.06000
H 	H 	0.00650 0.98209 0.56707 0.02700
S 	S 	0.94773 0.06359 0.61340 -0.03200
H 	H 	0.00399 0.07478 0.64688 0.05400
C 	C 	0.07527 0.06584 0.64490 -0.00600
C 	C 	0.09682 0.07442 0.67486 0.00500
C 	C 	0.09728 0.06433 0.71901 -0.10200
C 	C 	0.07639 0.04473 0.73277 0.06400
C 	C 	0.05496 0.03606 0.70271 -0.07500
S 	S 	0.07570 0.07855 0.58957 -0.03600
H 	H 	0.11303 0.08924 0.66399 0.04600
S 	S 	0.07744 0.03011 0.78684 -0.13700
H 	H 	0.03918 0.02072 0.71314 0.03800
H 	H 	0.94969 0.08080 0.57733 0.04500
H 	H 	0.06176 0.10371 0.59029 0.03400
H 	H 	0.06388 0.04738 0.81867 -0.00200
H 	H 	0.07983 0.00593 0.56200 0.04100
C 	C 	0.98842 0.01867 0.82846 -0.08500
C 	C 	0.99759 0.04645 0.82927 0.01100
C 	C 	0.00071 0.06026 0.78810 -0.00800
C 	C 	0.98771 0.04914 0.74924 0.00800
C 	C 	0.97385 0.02317 0.75029 -0.13700
C 	C 	0.97697 0.00669 0.78887 0.07100
C 	C 	0.99711 0.06244 0.87294 0.01100
S 	S 	0.01889 0.09240 0.78581 -0.05200
H 	H 	0.98591 0.06181 0.71982 0.03600
S 	S 	0.96591 0.97157 0.78877 -0.17500
H 	H 	0.98813 0.00712 0.85949 0.03600
C 	C 	0.97466 0.08151 0.88397 -0.01200
C 	C 	0.97515 0.09717 0.92479 0.00400
C 	C 	0.99660 0.09255 0.95644 -0.11400
C 	C 	0.01648 0.07061 0.94804 0.04500
C 	C 	0.01772 0.05692 0.90532 -0.09000
S 	S 	0.94515 0.08499 0.84801 -0.02200
H 	H 	0.95890 0.11306 0.93185 0.05200
S 	S 	0.03588 0.05678 0.99244 -0.18400
H 	H 	0.03412 0.04128 0.89784 0.03100
H 	H 	0.98830 0.95487 0.77346 -0.03400
H 	H 	0.92482 0.06525 0.85801 0.04200
H 	H 	0.06485 0.05948 0.98338 -0.07500
H 	H 	0.99976 0.11372 0.79490 0.04100
C 	C 	0.79037 0.99810 0.79747 -0.04100
C 	C 	0.78388 0.02533 0.81422 0.02500
C 	C 	0.79730 0.04821 0.79408 -0.05900
C 	C 	0.81886 0.04402 0.76016 0.02200
C 	C 	0.82688 0.01667 0.74594 -0.07400
C 	C 	0.81127 0.99400 0.76273 0.01000
C 	C 	0.76439 0.02991 0.85465 0.01100
C 	C 	0.77620 0.03630 0.89724 -0.04500
C 	C 	0.75843 0.03838 0.93657 -0.00400
C 	C 	0.72852 0.03311 0.93356 -0.01800
C 	C 	0.71676 0.02709 0.89069 -0.02100
C 	C 	0.73438 0.02616 0.85130 -0.02500
C 	C 	0.77093 0.04692 0.97935 0.08000
C 	C 	0.72150 0.02151 0.80746 0.08700
C 	C 	0.77668 0.97417 0.81724 0.09100
C 	C 	0.83370 0.06780 0.74201 0.08100
N 	N 	0.78095 0.05377 0.01361 -0.11300
N 	N 	0.71122 0.01779 0.77231 -0.11400
N 	N 	0.84563 0.08686 0.72753 -0.10000
N 	N 	0.76570 0.95501 0.83310 -0.11600
H 	H 	0.81689 0.97296 0.75101 0.03900
H 	H 	0.79172 0.06921 0.80600 0.05500
H 	H 	0.79926 0.03958 0.89975 0.05000
H 	H 	0.69380 0.02325 0.88799 0.04700
C 	C 	0.85461 0.56505 0.33972 -0.05000
C 	C 	0.83611 0.54696 0.36373 0.10200
C 	C 	0.84004 0.51804 0.35842 -0.08600
C 	C 	0.86173 0.50711 0.32894 -0.00500
C 	C 	0.87703 0.52506 0.29976 0.07200
C 	C 	0.87343 0.55403 0.30565 -0.05300
N 	N 	0.81489 0.55727 0.39229 -0.19900
H 	H 	0.82725 0.50411 0.37905 0.05600
C 	C 	0.87132 0.47804 0.33425 -0.00400
N 	N 	0.89568 0.51466 0.26701 -0.19400
H 	H 	0.88665 0.56798 0.28572 0.05100
C 	C 	0.85665 0.45629 0.31168 -0.08700
C 	C 	0.86430 0.42837 0.31770 0.10300
C 	C 	0.88772 0.42230 0.34572 -0.05000
C 	C 	0.90226 0.44406 0.36842 -0.05200
C 	C 	0.89418 0.47189 0.36332 0.07200
H 	H 	0.83890 0.46108 0.28998 0.05600
N 	N 	0.84860 0.40760 0.29762 -0.19900
H 	H 	0.92011 0.43932 0.38998 0.04900
N 	N 	0.90836 0.49254 0.38652 -0.19400
H 	H 	0.83192 0.41231 0.27593 0.08800
H 	H 	0.85204 0.38670 0.30454 0.09600
H 	H 	0.92535 0.48775 0.40756 0.08500
H 	H 	0.90259 0.51345 0.38438 0.09200
H 	H 	0.90768 0.52808 0.24666 0.08800
H 	H 	0.89777 0.49322 0.26052 0.09100
H 	H 	0.81029 0.57858 0.39454 0.09200
H 	H 	0.80203 0.54386 0.41135 0.08600
C 	C 	0.91867 0.55285 0.80365 -0.04800
C 	C 	0.89422 0.53922 0.78553 0.10200
C 	C 	0.89159 0.51022 0.78856 -0.08500
C 	C 	0.91185 0.49504 0.81210 -0.00600
C 	C 	0.93408 0.50928 0.83544 0.07400
C 	C 	0.93762 0.53804 0.83027 -0.05400
N 	N 	0.87298 0.55390 0.76621 -0.19900
H 	H 	0.87390 0.49940 0.77218 0.05600
C 	C 	0.91164 0.46424 0.80751 -0.00400
N 	N 	0.95206 0.49546 0.86265 -0.19500
H 	H 	0.95574 0.54871 0.84567 0.05900
C 	C 	0.93187 0.45096 0.77789 -0.08600
C 	C 	0.93159 0.42191 0.77092 0.10400
C 	C 	0.90943 0.40610 0.79173 -0.05000
C 	C 	0.88957 0.41927 0.82213 -0.05100
C 	C 	0.89076 0.44820 0.83087 0.07100
H 	H 	0.94815 0.46327 0.76067 0.05700
N 	N 	0.95304 0.40930 0.74535 -0.19900
H 	H 	0.87304 0.40701 0.83884 0.05000
N 	N 	0.87205 0.46035 0.86197 -0.19400
H 	H 	0.96856 0.42124 0.72853 0.08700
H 	H 	0.95540 0.38767 0.74375 0.09700
H 	H 	0.85628 0.44843 0.87825 0.08700
H 	H 	0.87344 0.48150 0.87121 0.09000
H 	H 	0.96904 0.50594 0.87855 0.09000
H 	H 	0.94876 0.47450 0.86960 0.09200
H 	H 	0.87261 0.57566 0.76836 0.09400
H 	H 	0.85566 0.54357 0.75100 0.08700
C 	C 	0.93433 0.62081 0.68492 -0.05000
C 	C 	0.94512 0.60331 0.64863 0.10300
C 	C 	0.93659 0.60794 0.60408 -0.08600
C 	C 	0.91895 0.63067 0.59495 -0.00500
C 	C 	0.91092 0.64995 0.63053 0.07100
C 	C 	0.91833 0.64459 0.67537 -0.05200
N 	N 	0.96417 0.58257 0.65619 -0.19900
H 	H 	0.94352 0.59372 0.57647 0.05600
C 	C 	0.90660 0.63241 0.54921 -0.00500
N 	N 	0.89611 0.67355 0.62189 -0.19400
H 	H 	0.91086 0.65852 0.70303 0.05000
C 	C 	0.87834 0.62303 0.54259 -0.08500
C 	C 	0.86655 0.62241 0.49912 0.10400
C 	C 	0.88388 0.63019 0.46133 -0.04900
C 	C 	0.91171 0.64068 0.46816 -0.05200
C 	C 	0.92319 0.64217 0.51192 0.07100
H 	H 	0.86547 0.61618 0.57142 0.05600
N 	N 	0.83854 0.61474 0.49398 -0.19900
H 	H 	0.92468 0.64722 0.43923 0.05100
N 	N 	0.94997 0.65306 0.51792 -0.19400
H 	H 	0.82622 0.60806 0.52178 0.08700
H 	H 	0.82840 0.61635 0.46289 0.09600
H 	H 	0.96229 0.65966 0.49005 0.08700
H 	H 	0.95855 0.65573 0.55025 0.09000
H 	H 	0.88950 0.68726 0.64854 0.08600
H 	H 	0.89183 0.67897 0.58867 0.09100
H 	H 	0.97351 0.58069 0.68787 0.09500
H 	H 	0.97103 0.56896 0.62956 0.08700
C 	C 	0.95766 0.98216 0.07869 -0.07400
C 	C 	0.98579 0.99281 0.07388 0.01000
C 	C 	0.00724 0.97627 0.05099 -0.00200
C 	C 	0.99987 0.95039 0.03117 -0.01500
C 	C 	0.97111 0.94153 0.03113 -0.09700
C 	C 	0.95008 0.95697 0.05653 0.05600
C 	C 	0.99199 0.02191 0.09005 0.01400
S 	S 	0.04304 0.98809 0.04502 -0.05300
H 	H 	0.01634 0.93774 0.01377 0.03200
S 	S 	0.91428 0.94500 0.06090 -0.03200
H 	H 	0.94148 0.99394 0.09834 0.05600
C 	C 	0.97842 0.04481 0.07059 -0.00400
C 	C 	0.98560 0.07196 0.08505 -0.00900
C 	C 	0.00944 0.07676 0.11259 -0.11000
C 	C 	0.02179 0.05410 0.13429 0.05400
C 	C 	0.01209 0.02690 0.12439 -0.07300
S 	S 	0.95465 0.03995 0.02519 -0.03100
H 	H 	0.97362 0.08934 0.07289 0.04600
S 	S 	0.04871 0.05956 0.17462 -0.04500
H 	H 	0.02123 0.00954 0.14169 0.05400
H 	H 	0.89890 0.95500 0.02583 0.04200
H 	H 	0.92696 0.03756 0.04190 0.03800
H 	H 	0.07526 0.05785 0.15321 0.02800
H 	H 	0.04800 0.99578 0.00112 0.03500
C 	C 	0.88172 0.84788 0.80588 -0.07200
C 	C 	0.87974 0.87377 0.78547 0.01500
C 	C 	0.88373 0.89838 0.81247 -0.01400
C 	C 	0.89438 0.89663 0.85631 -0.01000
C 	C 	0.90247 0.87081 0.87257 -0.10000
C 	C 	0.89358 0.84623 0.84911 0.05900
C 	C 	0.88001 0.87491 0.73507 0.01200
S 	S 	0.87772 0.93151 0.79067 -0.02900
H 	H 	0.89951 0.91558 0.87562 0.01300
S 	S 	0.89912 0.81333 0.87192 -0.02300
H 	H 	0.87676 0.82894 0.78647 0.05500
C 	C 	0.90614 0.87093 0.70991 -0.00800
C 	C 	0.91081 0.88545 0.66988 -0.00900
C 	C 	0.89112 0.90608 0.65865 -0.10100
C 	C 	0.86243 0.90331 0.67520 0.05900
C 	C 	0.85694 0.88765 0.71387 -0.07200
S 	S 	0.93405 0.85041 0.73046 -0.07000
H 	H 	0.93180 0.88453 0.65283 0.00700
S 	S 	0.83379 0.92019 0.64946 -0.03700
H 	H 	0.83575 0.88818 0.73029 0.05700
H 	H 	0.87556 0.80636 0.89820 0.04600
H 	H 	0.93055 0.82333 0.71531 0.04000
H 	H 	0.82938 0.94583 0.67050 0.04400
H 	H 	0.90280 0.94098 0.77106 0.03400
C 	C 	0.11834 0.95801 0.82798 -0.07700
C 	C 	0.11441 0.95857 0.87545 0.01000
C 	C 	0.12906 0.97858 0.90236 -0.01300
C 	C 	0.14594 0.99887 0.88151 -0.02100
C 	C 	0.14851 0.99942 0.83388 -0.12400
C 	C 	0.13530 0.97827 0.80700 0.05600
C 	C 	0.09280 0.93995 0.89624 0.01500
S 	S 	0.12567 0.97897 0.96215 -0.05400
H 	H 	0.15655 0.01469 0.90234 0.01200
S 	S 	0.13914 0.97724 0.74719 -0.03700
H 	H 	0.10738 0.94236 0.80729 0.04600
C 	C 	0.06425 0.94907 0.90467 -0.02000
C 	C 	0.04389 0.93100 0.92332 -0.00600
C 	C 	0.05136 0.90349 0.93248 -0.13300
C 	C 	0.08010 0.89443 0.92456 0.06400
C 	C 	0.10066 0.91281 0.90687 -0.08100
S 	S 	0.05348 0.98273 0.89047 -0.09400
H 	H 	0.02196 0.93814 0.92958 -0.06000
S 	S 	0.09030 0.85985 0.93417 -0.03500
H 	H 	0.12266 0.90581 0.90051 0.05700
H 	H 	0.11757 0.99219 0.72856 0.03600
H 	H 	0.04423 0.98210 0.84658 0.02000
H 	H 	0.08572 0.84362 0.89576 0.03700
H 	H 	0.10285 0.99558 0.97592 0.01700
C 	C 	0.00155 0.72696 0.92963 -0.03900
C 	C 	0.97407 0.71504 0.93661 0.02300
C 	C 	0.95390 0.72889 0.96564 -0.05500
C 	C 	0.95888 0.75647 0.98068 0.02000
C 	C 	0.98478 0.76993 0.96770 -0.06900
C 	C 	0.00687 0.75422 0.94577 0.00900
C 	C 	0.96429 0.69170 0.90641 0.01100
C 	C 	0.97390 0.66453 0.91328 -0.04400
C 	C 	0.96752 0.64281 0.88196 -0.00400
C 	C 	0.95023 0.64811 0.84427 -0.02000
C 	C 	0.93967 0.67511 0.83862 -0.02100
C 	C 	0.94701 0.69694 0.86886 -0.02700
C 	C 	0.98000 0.61562 0.88751 0.08400
C 	C 	0.93755 0.72489 0.86026 0.08500
C 	C 	0.02371 0.71206 0.90340 0.08900
C 	C 	0.93654 0.77131 0.00664 0.08700
N 	N 	0.99003 0.59386 0.89201 -0.11600
N 	N 	0.93000 0.74728 0.85337 -0.11500
N 	N 	0.91862 0.78318 0.02741 -0.10400
N 	N 	0.04146 0.70010 0.88237 -0.11600
H 	H 	0.02738 0.76405 0.93782 0.04200
H 	H 	0.93327 0.71914 0.97303 0.05400
H 	H 	0.98724 0.66050 0.94209 0.05100
H 	H 	0.92613 0.67923 0.81008 0.04500
C 	C 	0.90361 0.01214 0.24680 -0.07300
C 	C 	0.93131 0.00661 0.22847 0.01200
C 	C 	0.94102 0.97874 0.22374 -0.00600
C 	C 	0.92348 0.95708 0.23937 0.00100
C 	C 	0.89650 0.96292 0.26016 -0.09600
C 	C 	0.88636 0.99060 0.26301 0.05500
C 	C 	0.95133 0.03033 0.22168 0.01600
S 	S 	0.97547 0.97079 0.20029 -0.04700
H 	H 	0.93135 0.93580 0.23707 0.04100
S 	S 	0.85278 0.99886 0.28900 -0.09000
H 	H 	0.89615 0.03350 0.25092 0.04900
C 	C 	0.94441 0.05161 0.19186 -0.00800
C 	C 	0.95753 0.07783 0.19662 0.00500
C 	C 	0.97810 0.08280 0.23010 -0.09700
C 	C 	0.98748 0.06055 0.25599 0.06500
C 	C 	0.97385 0.03462 0.25212 -0.07600
S 	S 	0.91854 0.04601 0.14975 -0.03800
H 	H 	0.95095 0.09459 0.17545 0.04900
S 	S 	0.01629 0.06495 0.29338 -0.11000
H 	H 	0.97967 0.01824 0.27461 0.05500
H 	H 	0.85732 0.01345 0.32900 0.03200
H 	H 	0.89185 0.05359 0.16692 0.03500
H 	H 	0.00605 0.07365 0.33558 0.00900
H 	H 	0.97290 0.95715 0.15895 0.04200
C 	C 	0.77972 0.99099 0.32260 -0.08200
C 	C 	0.77487 0.99264 0.36988 0.01700
C 	C 	0.76803 0.96813 0.39281 -0.01800
C 	C 	0.77291 0.94215 0.37089 -0.02300
C 	C 	0.78338 0.94057 0.32570 -0.12800
C 	C 	0.78359 0.96493 0.30017 0.05300
C 	C 	0.78415 0.01789 0.39593 -0.00100
S 	S 	0.75584 0.96974 0.45000 -0.03700
H 	H 	0.77060 0.92331 0.38991 0.02400
S 	S 	0.78838 0.96312 0.24056 -0.04000
H 	H 	0.78251 0.00990 0.30390 0.05000
C 	C 	0.81072 0.01829 0.41835 0.02600
C 	C 	0.81772 0.04092 0.44701 -0.01300
C 	C 	0.79817 0.06279 0.45521 -0.14200
C 	C 	0.77330 0.06406 0.42872 0.05000
C 	C 	0.76609 0.04133 0.39982 -0.07100
S 	S 	0.83460 0.98983 0.41312 -0.18700
H 	H 	0.83753 0.04057 0.46556 0.03500
S 	S 	0.75198 0.09434 0.42971 -0.07800
H 	H 	0.74626 0.04167 0.38110 0.05300
H 	H 	0.81706 0.96042 0.22903 0.04400
H 	H 	0.82797 0.97120 0.44603 -0.00700
H 	H 	0.76282 0.11225 0.39831 -0.00700
H 	H 	0.72669 0.96532 0.45187 0.04400
C 	C 	0.94922 0.88028 0.44959 -0.07300
C 	C 	0.97098 0.89571 0.42811 0.00600
C 	C 	0.96679 0.90542 0.38410 0.00100
C 	C 	0.94120 0.89923 0.36179 -0.00600
C 	C 	0.91945 0.88366 0.38306 -0.11500
C 	C 	0.92347 0.87422 0.42737 0.04900
C 	C 	0.99856 0.90078 0.45114 0.01100
S 	S 	0.99315 0.92590 0.35701 -0.08900
H 	H 	0.93811 0.90670 0.32789 0.04600
S 	S 	0.89699 0.85398 0.45469 -0.05000
H 	H 	0.95243 0.87278 0.48343 0.04900
C 	C 	0.00301 0.92552 0.47730 -0.01400
C 	C 	0.03071 0.93225 0.49197 -0.00300
C 	C 	0.05432 0.91529 0.47865 -0.12000
C 	C 	0.04936 0.88930 0.45635 0.04200
C 	C 	0.02151 0.88215 0.44284 -0.08200
S 	S 	0.97455 0.94914 0.48908 -0.04500
H 	H 	0.03425 0.95184 0.51046 0.04200
S 	S 	0.07777 0.86552 0.44541 -0.05400
H 	H 	0.01791 0.86265 0.42410 0.05200
H 	H 	0.87828 0.87121 0.47903 0.02400
H 	H 	0.97432 0.96861 0.45612 0.03600
H 	H 	0.09007 0.87020 0.40351 0.01900
H 	H 	0.98703 0.95337 0.36685 0.03600
C 	C 	0.86015 0.75872 0.25013 -0.03800
C 	C 	0.83467 0.74271 0.25378 0.02600
C 	C 	0.80800 0.75523 0.24594 -0.05800
C 	C 	0.80621 0.78411 0.24102 0.02400
C 	C 	0.83138 0.80053 0.24289 -0.07000
C 	C 	0.85835 0.78741 0.24357 0.01000
C 	C 	0.83517 0.71506 0.27478 0.01100
C 	C 	0.82511 0.71281 0.31987 -0.04500
C 	C 	0.82941 0.68826 0.34303 -0.00400
C 	C 	0.84498 0.66599 0.32152 -0.01900
C 	C 	0.85299 0.66740 0.27527 -0.02000
C 	C 	0.84768 0.69165 0.25159 -0.02500
C 	C 	0.81717 0.68584 0.38840 0.08200
C 	C 	0.85526 0.69243 0.20372 0.08800
C 	C 	0.88804 0.74628 0.25643 0.09400
C 	C 	0.77838 0.79690 0.23581 0.07800
N 	N 	0.80737 0.68388 0.42474 -0.11500
N 	N 	0.86135 0.69307 0.16537 -0.11200
N 	N 	0.75608 0.80714 0.23164 -0.10700
N 	N 	0.91038 0.73631 0.26148 -0.11400
H 	H 	0.87785 0.79992 0.24336 0.04400
H 	H 	0.78847 0.74279 0.24692 0.05400
H 	H 	0.81447 0.73044 0.33723 0.05100
H 	H 	0.86402 0.64994 0.25809 0.04800
