data_crystal

_cell_length_a 37.99580
_cell_length_b 39.40396
_cell_length_c 31.47196
_cell_angle_alpha 87.09943
_cell_angle_beta  89.88676
_cell_angle_gamma 121.42589

_symmetry_space_group_name_	'P 1'
_symmetry_space_group_name_H-M	'P 1'

loop_
_symmetry_equiv_pos_as_xyz
  x,y,z

loop_
_atom_site_label
_atom_site_type_symbol
_atom_site_fract_x
_atom_site_fract_y
_atom_site_fract_z
_atom_site_charge
N 	N 	0.03890 0.29738 0.48319 -0.11300
C 	C 	0.03182 0.31197 0.92579 0.09100
N 	N 	0.01931 0.36199 0.89734 -0.10900
N 	N 	0.99651 0.70371 0.97810 -0.09300
O 	O 	0.07834 0.73947 0.94811 -0.44600
C 	C 	0.07045 0.73575 0.98939 0.29800
O 	O 	0.07328 0.74031 0.46024 -0.44600
C 	C 	0.06700 0.72575 0.49999 0.30800
N 	N 	0.04588 0.34639 0.41394 -0.08900
C 	C 	0.08052 0.35047 0.43147 -0.02600
C 	C 	0.07692 0.32533 0.46665 0.04400
H 	H 	0.10421 0.32831 0.48097 0.02100
N 	N 	0.07263 0.33600 0.91533 -0.09700
C 	C 	0.08757 0.37321 0.89689 -0.02800
C 	C 	0.06022 0.38619 0.88716 0.04800
H 	H 	0.07152 0.41552 0.87202 0.04300
H 	H 	0.09652 0.63338 0.38071 0.03800
C 	C 	0.02416 0.69791 0.51480 -0.03100
C 	C 	0.01487 0.66949 0.54858 0.04400
H 	H 	0.03934 0.66992 0.56660 0.03900
C 	C 	0.02737 0.70958 0.00437 -0.02200
C 	C 	0.01767 0.68672 0.04310 0.04200
H 	H 	0.04186 0.69094 0.06432 0.03800
Zn	Zn	0.12948 0.74951 0.91885 1.19700
O 	O 	0.15081 0.78962 0.07989 -0.39600
O 	O 	0.09660 0.76289 0.01472 -0.42000
O 	O 	0.15605 0.73601 0.87451 -0.44700
O 	O 	0.12869 0.70310 0.96087 -0.41600
Zn	Zn	0.15651 0.77265 0.52153 1.22300
Zn	Zn	0.12132 0.75568 0.42177 1.19800
C 	C 	0.14757 0.69280 0.43063 0.29100
O 	O 	0.15383 0.75306 0.58668 -0.39700
O 	O 	0.09538 0.74380 0.52866 -0.42400
O 	O 	0.14371 0.75460 0.36533 -0.44400
O 	O 	0.11910 0.70041 0.44231 -0.41200
C 	C 	0.13226 0.40045 0.89021 0.29300
O 	O 	0.15586 0.38599 0.88217 -0.42000
O 	O 	0.14857 0.43879 0.89495 -0.40700
C 	C 	0.12126 0.38073 0.41337 0.29100
O 	O 	0.17271 0.50477 0.38807 -0.44100
O 	O 	0.17215 0.48516 0.45797 -0.42700
O 	O 	0.16076 0.42094 0.32146 -0.44000
O 	O 	0.14777 0.37028 0.40286 -0.43000
O 	O 	0.13109 0.41812 0.40817 -0.39600
C 	C 	0.17032 0.50941 0.42890 0.30800
C 	C 	0.13494 0.58092 0.42433 0.09500
C 	C 	0.13844 0.65172 0.43283 -0.03000
C 	C 	0.11345 0.62537 0.40244 0.04700
N 	N 	0.11249 0.59064 0.39852 -0.10900
N 	N 	0.13755 0.54853 0.41738 -0.08900
C 	C 	0.16170 0.53978 0.44182 -0.03100
C 	C 	0.14502 0.58368 0.94745 0.09700
C 	C 	0.12020 0.62667 0.93226 0.04800
N 	N 	0.11988 0.59266 0.92553 -0.10900
N 	N 	0.14900 0.55288 0.93656 -0.09100
H 	H 	0.10143 0.63438 0.91311 0.03700
N 	N 	0.13823 0.72759 0.71959 -0.11200
C 	C 	0.14212 0.73358 0.67651 0.04400
H 	H 	0.11539 0.71686 0.65739 0.04400
C 	C 	0.13387 0.78599 0.16897 0.04400
N 	N 	0.12809 0.77838 0.21185 -0.11200
H 	H 	0.10738 0.77444 0.14893 0.04600
Zn	Zn	0.15794 0.79289 0.01224 1.22300
H 	H 	0.18402 0.82125 0.93090 0.18200
C 	C 	0.15806 0.69476 0.95860 0.29400
O 	O 	0.17349 0.79550 0.94735 -0.79400
O 	O 	0.18743 0.85219 0.01086 -0.42400
H 	H 	0.18014 0.74355 0.02928 0.18600
O 	O 	0.19386 0.77070 0.01531 -0.78900
O 	O 	0.19651 0.72325 0.94966 -0.42200
C 	C 	0.18148 0.81086 0.10478 0.29700
C 	C 	0.19299 0.76166 0.85817 0.29300
H 	H 	0.17907 0.82013 0.44906 0.18700
O 	O 	0.16795 0.79152 0.45648 -0.79400
O 	O 	0.18886 0.82913 0.53704 -0.41500
H 	H 	0.17512 0.72106 0.50998 0.18600
O 	O 	0.18957 0.75030 0.50432 -0.79300
O 	O 	0.18535 0.72212 0.42051 -0.42300
C 	C 	0.18621 0.76735 0.61075 0.29800
C 	C 	0.18092 0.78204 0.35092 0.29500
Zn	Zn	0.21773 0.46715 0.96691 1.22200
Zn	Zn	0.20742 0.48588 0.86665 1.19700
Zn	Zn	0.21547 0.41418 0.89396 1.22100
O 	O 	0.19839 0.45290 0.03217 -0.38600
O 	O 	0.20229 0.52493 0.90034 -0.44500
O 	O 	0.17825 0.48526 0.96200 -0.42500
O 	O 	0.19402 0.45532 0.81512 -0.44400
H 	H 	0.17570 0.39261 0.97038 0.18100
O 	O 	0.23119 0.42551 0.82718 -0.39200
O 	O 	0.20398 0.41259 0.95950 -0.79700
C 	C 	0.18617 0.51755 0.93922 0.31000
C 	C 	0.21644 0.44165 0.80070 0.29300
Zn	Zn	0.21683 0.47347 0.45948 1.22100
Zn	Zn	0.17886 0.46232 0.36331 1.19800
Zn	Zn	0.20803 0.40801 0.39985 1.22200
O 	O 	0.21244 0.47420 0.52695 -0.38900
O 	O 	0.22542 0.46486 0.39500 -0.78800
H 	H 	0.18375 0.40104 0.48179 0.17500
O 	O 	0.20961 0.40476 0.33252 -0.39200
O 	O 	0.20870 0.41998 0.46419 -0.79500
C 	C 	0.18530 0.40979 0.30679 0.29500
C 	C 	0.21689 0.46499 0.68524 0.09200
C 	C 	0.24105 0.45115 0.66843 0.09100
C 	C 	0.23273 0.47124 0.59906 -0.03400
C 	C 	0.20899 0.48556 0.61604 0.04400
N 	N 	0.20157 0.48215 0.65880 -0.11200
N 	N 	0.20884 0.46099 0.72779 -0.09400
H 	H 	0.19638 0.49913 0.59536 0.04500
C 	C 	0.22395 0.44366 0.75449 -0.03300
C 	C 	0.18357 0.42813 0.19074 0.09200
C 	C 	0.20487 0.41084 0.17500 0.09200
C 	C 	0.20454 0.43641 0.10562 -0.03000
C 	C 	0.18269 0.45324 0.12134 0.04400
N 	N 	0.17274 0.44882 0.16362 -0.11200
N 	N 	0.17569 0.42566 0.23321 -0.09700
H 	H 	0.17417 0.47014 0.10019 0.04700
C 	C 	0.18848 0.40679 0.26078 -0.03400
C 	C 	0.20854 0.38833 0.24479 0.04600
H 	H 	0.21844 0.37271 0.26614 0.04700
C 	C 	0.15809 0.60617 0.45635 0.09300
N 	N 	0.15977 0.64124 0.45965 -0.10200
N 	N 	0.18106 0.59678 0.48172 -0.11400
C 	C 	0.18296 0.56384 0.47540 0.04300
H 	H 	0.20244 0.55744 0.49502 0.03600
C 	C 	0.16989 0.60858 0.97893 0.09100
N 	N 	0.17098 0.64302 0.98488 -0.09500
C 	C 	0.14752 0.65324 0.96126 -0.02900
N 	N 	0.19560 0.60002 0.00033 -0.10400
C 	C 	0.17602 0.54524 0.95679 -0.02800
C 	C 	0.19876 0.56851 0.99024 0.03600
C 	C 	0.21015 0.77539 0.72490 0.09200
C 	C 	0.17145 0.74799 0.74409 0.09200
N 	N 	0.16717 0.74300 0.78705 -0.09500
C 	C 	0.19990 0.76460 0.81193 -0.03400
N 	N 	0.21412 0.78134 0.68192 -0.09100
C 	C 	0.18084 0.76112 0.65720 -0.03400
C 	C 	0.16093 0.79186 0.23742 0.09200
C 	C 	0.20114 0.81490 0.21966 0.09200
C 	C 	0.17418 0.80780 0.15099 -0.03700
N 	N 	0.15516 0.78180 0.27979 -0.09500
C 	C 	0.18801 0.79388 0.30530 -0.03200
H 	H 	0.20175 0.29800 0.41862 0.03300
H 	H 	0.19109 0.91944 0.00216 0.04700
H 	H 	0.20561 0.29362 0.90328 0.03400
Zn	Zn	0.20667 0.77547 0.44090 1.22400
Zn	Zn	0.21471 0.77987 0.95065 1.22200
Zn	Zn	0.24019 0.81058 0.04698 1.20000
O 	O 	0.21942 0.83172 0.08910 -0.44600
O 	O 	0.22292 0.78522 0.88285 -0.38600
C 	C 	0.22735 0.87477 0.00126 0.29400
Zn	Zn	0.23893 0.77906 0.53797 1.20000
O 	O 	0.22358 0.78881 0.59366 -0.44900
O 	O 	0.25034 0.83699 0.51468 -0.41400
O 	O 	0.21179 0.79807 0.37693 -0.39000
C 	C 	0.22862 0.85228 0.52719 0.29200
C 	C 	0.25669 0.37032 0.92424 0.28700
Zn	Zn	0.24767 0.41295 0.99378 1.19400
O 	O 	0.24599 0.43546 0.04831 -0.44000
O 	O 	0.24063 0.47160 0.90358 -0.78500
O 	O 	0.23796 0.37802 0.89318 -0.41400
C 	C 	0.21630 0.44128 0.06024 0.29100
C 	C 	0.25858 0.37526 0.43253 0.28500
Zn	Zn	0.26069 0.43230 0.49142 1.19600
H 	H 	0.25278 0.48212 0.38054 0.18400
O 	O 	0.26819 0.46756 0.53766 -0.44200
O 	O 	0.27299 0.52080 0.45965 -0.43500
O 	O 	0.24074 0.38173 0.39979 -0.41500
C 	C 	0.23819 0.47141 0.55281 0.29000
N 	N 	0.24863 0.45467 0.62578 -0.09900
N 	N 	0.25609 0.43371 0.69487 -0.11300
C 	C 	0.24806 0.42968 0.73759 0.04200
H 	H 	0.26051 0.41595 0.75824 0.04600
N 	N 	0.21500 0.41540 0.13289 -0.09600
N 	N 	0.21642 0.39083 0.20222 -0.11200
H 	H 	0.22035 0.56278 0.00663 0.04200
C 	C 	0.23886 0.79157 0.79270 0.04400
N 	N 	0.24318 0.79639 0.74951 -0.11000
N 	N 	0.20694 0.82255 0.17694 -0.09500
N 	N 	0.23400 0.82747 0.24506 -0.11100
C 	C 	0.22828 0.81751 0.28756 0.04500
N 	N 	0.23076 0.91488 0.51135 -0.09600
C 	C 	0.24885 0.89560 0.52882 -0.02700
C 	C 	0.23183 0.30298 0.42611 0.03800
C 	C 	0.22348 0.93644 0.99263 0.03700
N 	N 	0.24342 0.27021 0.91880 -0.11100
C 	C 	0.23606 0.30037 0.91201 0.03700
O 	O 	0.32632 0.19649 0.95583 -0.42000
O 	O 	0.31375 0.21090 0.52493 -0.44800
O 	O 	0.30953 0.10068 0.46637 -0.42500
C 	C 	0.31742 0.21723 0.48332 0.29900
C 	C 	0.32559 0.07920 0.47870 0.28800
C 	C 	0.30077 0.82203 0.98078 0.31300
O 	O 	0.25093 0.85934 0.00233 -0.40400
O 	O 	0.28709 0.80979 0.02029 -0.45400
O 	O 	0.27562 0.81864 0.95025 -0.41200
C 	C 	0.29365 0.80658 0.46158 0.31900
O 	O 	0.28240 0.78496 0.49775 -0.45800
O 	O 	0.26749 0.81235 0.43994 -0.41900
H 	H 	0.27069 0.48772 0.89701 0.18500
O 	O 	0.27249 0.50896 0.98465 -0.42600
O 	O 	0.29973 0.47112 0.97147 -0.41000
O 	O 	0.27492 0.39550 0.95405 -0.44100
C 	C 	0.30471 0.50554 0.98013 0.30100
O 	O 	0.30314 0.48454 0.45010 -0.39700
O 	O 	0.28099 0.40398 0.45793 -0.43200
C 	C 	0.30566 0.51911 0.45005 0.29700
N 	N 	0.38129 0.56082 0.44797 -0.09000
N 	N 	0.37946 0.62169 0.40313 -0.11200
C 	C 	0.34440 0.55579 0.43627 -0.03200
C 	C 	0.34362 0.58672 0.41292 0.04300
H 	H 	0.31463 0.58302 0.40287 0.03000
N 	N 	0.35139 0.57664 0.99008 -0.09100
C 	C 	0.34641 0.54138 0.97942 -0.03400
N 	N 	0.34807 0.80769 0.41972 -0.09200
C 	C 	0.33661 0.82635 0.44675 -0.03300
H 	H 	0.35836 0.87389 0.48979 0.03500
N 	N 	0.35894 0.82371 0.94518 -0.09100
C 	C 	0.34506 0.84117 0.97118 -0.02900
H 	H 	0.36275 0.88685 0.01602 0.03900
H 	H 	0.26534 0.80891 0.81191 0.04900
H 	H 	0.25482 0.82750 0.30732 0.04900
C 	C 	0.29241 0.97740 0.52129 0.09500
C 	C 	0.25183 0.95537 0.50718 0.09200
C 	C 	0.28893 0.91779 0.54411 0.04800
N 	N 	0.30989 0.95822 0.54004 -0.10800
N 	N 	0.31486 0.01749 0.51348 -0.08900
N 	N 	0.23502 0.97456 0.48683 -0.11200
H 	H 	0.30362 0.90288 0.55833 0.03800
C 	C 	0.29863 0.03674 0.49196 -0.02800
C 	C 	0.25755 0.01484 0.47903 0.04200
H 	H 	0.24409 0.02955 0.46176 0.04400
C 	C 	0.30794 0.31581 0.44639 0.09300
C 	C 	0.27429 0.27699 0.44216 0.09300
N 	N 	0.27852 0.24524 0.45155 -0.08900
C 	C 	0.31530 0.25087 0.46453 -0.02800
N 	N 	0.34495 0.32145 0.45781 -0.10900
N 	N 	0.30259 0.34725 0.44166 -0.08900
N 	N 	0.23703 0.27137 0.43157 -0.11000
C 	C 	0.26505 0.34164 0.43214 -0.02900
C 	C 	0.30590 0.97967 0.96935 0.09400
C 	C 	0.28346 0.99861 0.97339 0.09100
N 	N 	0.30309 0.03895 0.96767 -0.09400
C 	C 	0.34443 0.06115 0.95832 -0.02800
N 	N 	0.34687 0.00165 0.95915 -0.11000
N 	N 	0.28685 0.93968 0.97727 -0.09100
N 	N 	0.24264 0.97661 0.98464 -0.11200
C 	C 	0.24614 0.91755 0.98930 -0.03200
C 	C 	0.31255 0.31742 0.93710 0.09200
C 	C 	0.28076 0.27788 0.93216 0.09200
N 	N 	0.28643 0.24746 0.94427 -0.08900
C 	C 	0.32278 0.25514 0.96096 -0.02800
N 	N 	0.34924 0.32506 0.95231 -0.11000
N 	N 	0.30510 0.34738 0.93056 -0.09100
C 	C 	0.26711 0.33965 0.91939 -0.03000
N 	N 	0.01757 0.27620 0.94725 -0.11500
O 	O 	0.31907 0.21431 0.02173 -0.43500
O 	O 	0.34554 0.12277 0.94608 -0.41600
C 	C 	0.32642 0.22259 0.98042 0.28900
H 	H 	0.33524 0.13201 0.54635 0.18200
O 	O 	0.31254 0.18893 0.45891 -0.41400
C 	C 	0.38108 0.54006 0.96616 0.04200
H 	H 	0.37785 0.51229 0.95776 0.04500
C 	C 	0.36691 0.85822 0.46879 0.04800
C 	C 	0.37323 0.87232 0.99560 0.04300
C 	C 	0.34936 0.28978 0.46672 0.03700
H 	H 	0.36839 0.22800 0.82605 0.04600
H 	H 	0.30353 0.16177 0.32833 0.04700
C 	C 	0.36659 0.04197 0.95353 0.04600
C 	C 	0.35500 0.29471 0.96427 0.03700
Zn	Zn	0.36599 0.17862 0.96018 1.22200
H 	H 	0.34439 0.13463 0.03445 0.18400
O 	O 	0.37994 0.19875 0.89505 -0.40000
C 	C 	0.36607 0.10494 0.95558 0.29000
Zn	Zn	0.34247 0.15999 0.46455 1.22200
Zn	Zn	0.35220 0.20187 0.55921 1.19700
O 	O 	0.34213 0.16242 0.39697 -0.39600
O 	O 	0.35193 0.15819 0.53049 -0.79000
O 	O 	0.36597 0.09566 0.47994 -0.39800
C 	C 	0.35123 0.14104 0.37386 0.29700
C 	C 	0.41709 0.59595 0.43838 0.09200
C 	C 	0.41606 0.62706 0.41580 0.09100
C 	C 	0.38917 0.61055 0.98708 0.09200
N 	N 	0.39357 0.64589 0.99590 -0.11100
C 	C 	0.38765 0.81641 0.41776 0.09600
N 	N 	0.39729 0.79298 0.39661 -0.10900
C 	C 	0.39914 0.83412 0.94519 0.09500
C 	C 	0.38158 0.21575 0.80582 0.04400
N 	N 	0.38084 0.22054 0.76286 -0.11200
N 	N 	0.32475 0.16253 0.26592 -0.11200
C 	C 	0.32293 0.15572 0.30884 0.04600
N 	N 	0.40651 0.86687 0.46709 -0.11000
Zn	Zn	0.35009 0.19777 0.06014 1.19500
O 	O 	0.42068 0.17294 0.88533 -0.44800
O 	O 	0.36150 0.16335 0.02564 -0.78900
O 	O 	0.40548 0.12592 0.96464 -0.41500
C 	C 	0.40065 0.18937 0.86971 0.29900
O 	O 	0.36755 0.12167 0.39134 -0.44400
O 	O 	0.39095 0.21659 0.60633 -0.44700
N 	N 	0.45128 0.66309 0.40909 -0.09100
N 	N 	0.45359 0.60198 0.45257 -0.10900
C 	C 	0.42355 0.60938 0.97276 0.09300
C 	C 	0.43073 0.68033 0.98980 0.04400
N 	N 	0.41890 0.57412 0.96297 -0.11000
H 	H 	0.43361 0.70837 0.99641 0.03200
C 	C 	0.41701 0.84524 0.44376 0.09600
C 	C 	0.43334 0.79446 0.40364 0.04600
C 	C 	0.42649 0.86303 0.97237 0.09500
N 	N 	0.41331 0.88242 0.99595 -0.10900
N 	N 	0.41189 0.81356 0.92295 -0.10900
H 	H 	0.37880 0.29474 0.47684 0.03700
C 	C 	0.39735 0.20554 0.73697 0.09200
C 	C 	0.41567 0.18522 0.75461 0.09300
N 	N 	0.41646 0.18044 0.79744 -0.09200
C 	C 	0.39952 0.19503 0.82353 -0.03400
N 	N 	0.39505 0.20891 0.69421 -0.09500
C 	C 	0.37235 0.14055 0.25962 0.09200
C 	C 	0.34956 0.15593 0.24107 0.09300
N 	N 	0.35423 0.16617 0.19880 -0.09700
N 	N 	0.37053 0.13372 0.30244 -0.09700
C 	C 	0.34713 0.14200 0.32764 -0.03500
H 	H 	0.39936 0.05908 0.94564 0.04000
H 	H 	0.38404 0.30123 0.97746 0.03200
O 	O 	0.37590 0.20028 0.11551 -0.44300
Zn	Zn	0.41086 0.17689 0.53039 1.22400
Zn	Zn	0.40912 0.14405 0.43562 1.19900
O 	O 	0.41007 0.17111 0.59785 -0.39300
O 	O 	0.40283 0.18405 0.46466 -0.78900
O 	O 	0.40229 0.25006 0.51962 -0.42400
C 	C 	0.40374 0.19357 0.62236 0.29700
N 	N 	0.45280 0.84639 0.45094 -0.09000
H 	H 	0.43934 0.77364 0.38889 0.03600
C 	C 	0.45002 0.81913 0.92861 0.04300
C 	C 	0.41000 0.19251 0.66813 -0.03400
C 	C 	0.38071 0.16160 0.17408 -0.03200
H 	H 	0.45903 0.80119 0.91218 0.03700
Zn	Zn	0.41969 0.18545 0.03824 1.22400
Zn	Zn	0.44873 0.18675 0.93987 1.19900
H 	H 	0.43698 0.23850 0.96901 0.18500
O 	O 	0.40402 0.16253 0.10250 -0.38700
O 	O 	0.42434 0.20948 0.97503 -0.79500
O 	O 	0.40488 0.25514 0.03930 -0.41500
C 	C 	0.38662 0.17480 0.12891 0.29200
H 	H 	0.41830 0.21114 0.45050 0.18400
O 	O 	0.43326 0.14151 0.53282 -0.42200
C 	C 	0.48771 0.66975 0.42443 -0.03400
C 	C 	0.48896 0.63824 0.44602 0.03900
N 	N 	0.46073 0.64379 0.96660 -0.09000
C 	C 	0.46486 0.67943 0.97400 -0.03300
C 	C 	0.46035 0.81981 0.43355 -0.03100
N 	N 	0.46421 0.86804 0.97857 -0.08900
C 	C 	0.47607 0.84572 0.95834 -0.03100
N 	N 	0.43151 0.16960 0.72869 -0.11000
C 	C 	0.42910 0.17286 0.68575 0.04600
H 	H 	0.44165 0.16004 0.66547 0.04800
C 	C 	0.40273 0.14525 0.19246 0.04500
N 	N 	0.39818 0.13515 0.23493 -0.11200
C 	C 	0.44292 0.26609 0.04900 0.29800
O 	O 	0.44897 0.15573 0.03626 -0.41800
C 	C 	0.44126 0.26091 0.52315 0.29900
O 	O 	0.45650 0.14507 0.46472 -0.44000
O 	O 	0.45129 0.23417 0.53233 -0.42800
O 	O 	0.47598 0.78900 0.49169 -0.45000
C 	C 	0.48799 0.80974 0.45486 0.31400
H 	H 	0.43857 0.32581 0.54351 0.03600
H 	H 	0.42391 0.14134 0.17329 0.04800
H 	H 	0.44658 0.33225 0.07633 0.03800
O 	O 	0.45246 0.23914 0.05851 -0.42200
C 	C 	0.46179 0.14524 0.50604 0.30900
O 	O 	0.50190 0.74808 0.94806 -0.43800
C 	C 	0.50329 0.71672 0.96113 0.29800
O 	O 	0.51817 0.74029 0.41257 -0.42500
H 	H 	0.51757 0.64284 0.45851 0.04500
C 	C 	0.48385 0.16859 0.01469 0.31900
O 	O 	0.49164 0.18902 0.97798 -0.45700
O 	O 	0.51572 0.84145 0.01538 -0.43500
C 	C 	0.51108 0.84340 0.97404 0.30400
O 	O 	0.52529 0.82363 0.43867 -0.42400
C 	C 	0.52368 0.71078 0.42261 0.29600
C 	C 	0.47383 0.30293 0.51596 -0.03400
C 	C 	0.46805 0.33310 0.52982 0.04700
C 	C 	0.47617 0.30767 0.04090 -0.03500
C 	C 	0.47381 0.33861 0.05817 0.04700
H 	H 	0.47725 0.09793 0.00314 0.03900
H 	H 	0.54223 0.76647 0.02854 0.18300
O 	O 	0.53785 0.84410 0.94693 -0.42900
O 	O 	0.53897 0.71886 0.96345 -0.40400
Zn	Zn	0.55140 0.79175 0.43797 1.22300
Zn	Zn	0.51305 0.78536 0.53404 1.19800
H 	H 	0.52527 0.73369 0.50424 0.18200
O 	O 	0.53919 0.76302 0.50015 -0.79200
O 	O 	0.55961 0.71824 0.43639 -0.41100
C 	C 	0.53306 0.80589 0.79139 0.04400
H 	H 	0.52401 0.82228 0.81062 0.04700
H 	H 	0.56066 0.84637 0.30685 0.04800
N 	N 	0.50016 0.37155 0.52756 -0.11000
N 	N 	0.50509 0.11623 0.50960 -0.08800
C 	C 	0.49738 0.14430 0.52236 -0.03000
C 	C 	0.51220 0.15603 0.02880 -0.03200
C 	C 	0.50623 0.11974 0.01628 0.04800
N 	N 	0.53139 0.80867 0.74826 -0.11000
Zn	Zn	0.55076 0.80191 0.94807 1.22200
Zn	Zn	0.56046 0.83685 0.04329 1.19800
O 	O 	0.55556 0.75150 0.87455 -0.44200
O 	O 	0.54980 0.80608 0.88037 -0.39000
O 	O 	0.55944 0.79303 0.01360 -0.78700
C 	C 	0.55088 0.77987 0.85687 0.29100
O 	O 	0.57411 0.81849 0.37590 -0.39000
C 	C 	0.54658 0.78182 0.81057 -0.03200
C 	C 	0.57771 0.83802 0.28670 0.04400
N 	N 	0.51119 0.31268 0.49907 -0.09500
H 	H 	0.52114 0.19816 0.55610 0.03400
N 	N 	0.51063 0.31623 0.01813 -0.10000
N 	N 	0.50650 0.37674 0.05312 -0.10900
O 	O 	0.53537 0.79463 0.59202 -0.44500
C 	C 	0.54273 0.78842 0.72359 0.09300
C 	C 	0.52691 0.17569 0.54559 0.04300
N 	N 	0.58112 0.84717 0.24406 -0.11100
N 	N 	0.54221 0.79214 0.68052 -0.09100
N 	N 	0.99292 0.69666 0.49245 -0.08900
O 	O 	0.55991 0.84669 0.51547 -0.40800
C 	C 	0.59053 0.80501 0.34977 0.29200
C 	C 	0.55428 0.77756 0.60907 0.29800
C 	C 	0.55582 0.76408 0.74272 0.09200
C 	C 	0.55457 0.77268 0.65565 -0.03200
N 	N 	0.55733 0.76114 0.78570 -0.09700
N 	N 	0.53807 0.11327 0.01746 -0.10900
O 	O 	0.59960 0.77835 0.36357 -0.44000
C 	C 	0.59561 0.81711 0.30408 -0.02800
C 	C 	0.54297 0.35116 0.49605 0.09200
C 	C 	0.53759 0.38109 0.51137 0.09500
C 	C 	0.54177 0.11933 0.51748 0.09600
N 	N 	0.54893 0.18316 0.04506 -0.09300
N 	N 	0.55051 0.09299 0.50179 -0.10900
Zn	Zn	0.59284 0.75956 0.92208 1.19600
O 	O 	0.57527 0.76748 0.58497 -0.39900
H 	H 	0.56971 0.91207 0.55278 0.04200
C 	C 	0.56742 0.74810 0.67492 0.04300
N 	N 	0.56777 0.74432 0.71807 -0.11200
C 	C 	0.60184 0.83647 0.21812 0.09200
N 	N 	0.60282 0.84325 0.17529 -0.09600
C 	C 	0.54284 0.35432 0.01234 0.09400
C 	C 	0.54107 0.38511 0.03084 0.09400
O 	O 	0.60384 0.85544 0.08632 -0.43800
O 	O 	0.60620 0.81026 0.94610 -0.79800
O 	O 	0.60481 0.88291 0.99769 -0.40600
Zn	Zn	0.59554 0.79082 0.52105 1.22300
O 	O 	0.60703 0.80953 0.45638 -0.79600
H 	H 	0.57689 0.73202 0.65572 0.04400
C 	C 	0.57246 0.15238 0.53796 0.09500
N 	N 	0.56407 0.17937 0.55252 -0.10900
C 	C 	0.57539 0.14134 0.03144 0.09400
Zn	Zn	0.61803 0.77502 0.42207 1.19500
N 	N 	0.61694 0.80702 0.27802 -0.09400
O 	O 	0.62316 0.73990 0.95711 -0.43900
C 	C 	0.58049 0.17638 0.04700 0.09400
C 	C 	0.62046 0.81634 0.23550 0.09300
Zn	Zn	0.61868 0.81135 0.01092 1.22300
O 	O 	0.62251 0.80969 0.07846 -0.39600
C 	C 	0.61677 0.83267 0.10271 0.29500
C 	C 	0.59817 0.86539 0.52834 0.29300
C 	C 	0.62151 0.83051 0.14895 -0.03300
N 	N 	0.57009 0.41919 0.51082 -0.09000
C 	C 	0.60113 0.92874 0.53997 0.04900
N 	N 	0.58026 0.36075 0.47940 -0.11300
C 	C 	0.58941 0.09974 0.50319 0.04900
N 	N 	0.57423 0.42292 0.02704 -0.09000
N 	N 	0.57711 0.36273 0.98952 -0.11800
C 	C 	0.00791 0.31796 0.42998 0.09600
C 	C 	0.00467 0.32538 0.91693 0.09300
Zn	Zn	0.71727 0.53107 0.04588 1.22000
Zn	Zn	0.77903 0.49550 0.06421 1.19600
C 	C 	0.73347 0.52109 0.88553 0.30300
Zn	Zn	0.76226 0.51368 0.97338 1.21900
Zn	Zn	0.70499 0.55247 0.95463 1.19700
H 	H 	0.71090 0.46153 0.02738 0.17900
C 	C 	0.83874 0.57296 0.00942 0.29500
O 	O 	0.66527 0.55817 0.98961 -0.45600
O 	O 	0.70086 0.57518 0.05098 -0.38400
O 	O 	0.73332 0.48970 0.02895 -0.78900
O 	O 	0.76766 0.50776 0.12251 -0.43200
O 	O 	0.65826 0.49017 0.03876 -0.41900
O 	O 	0.73721 0.54410 0.10557 -0.42100
O 	O 	0.66650 0.48804 0.96686 -0.41700
O 	O 	0.81370 0.48374 0.02762 -0.43200
H 	H 	0.77182 0.58459 0.99431 0.18100
O 	O 	0.77590 0.46795 0.96759 -0.39200
O 	O 	0.74884 0.55682 0.99169 -0.79200
O 	O 	0.72225 0.54608 0.89643 -0.44100
O 	O 	0.82171 0.55306 0.97537 -0.43400
O 	O 	0.73826 0.49858 0.91489 -0.42000
O 	O 	0.82048 0.55908 0.04742 -0.40000
C 	C 	0.67518 0.57742 0.02472 0.29900
C 	C 	0.74650 0.52408 0.13396 0.29900
C 	C 	0.64533 0.47164 0.00313 0.29100
C 	C 	0.79959 0.46251 0.99399 0.28700
Zn	Zn	0.71168 0.52551 0.54515 1.22000
Zn	Zn	0.77015 0.48655 0.56498 1.19700
C 	C 	0.73593 0.52303 0.38499 0.30500
Zn	Zn	0.75944 0.51052 0.47383 1.22100
Zn	Zn	0.70564 0.55251 0.45398 1.19700
H 	H 	0.70488 0.45652 0.52393 0.17800
C 	C 	0.83437 0.56561 0.51532 0.29300
O 	O 	0.66385 0.55643 0.48725 -0.45100
O 	O 	0.69553 0.56968 0.55096 -0.38500
O 	O 	0.72749 0.48429 0.52747 -0.79200
O 	O 	0.75643 0.49696 0.62326 -0.43400
O 	O 	0.65326 0.48587 0.53334 -0.41900
O 	O 	0.72849 0.53572 0.60623 -0.42200
O 	O 	0.66627 0.48786 0.46169 -0.41200
O 	O 	0.80526 0.47476 0.52913 -0.43600
H 	H 	0.76982 0.58088 0.49810 0.18200
O 	O 	0.77150 0.46406 0.46665 -0.39100
O 	O 	0.74658 0.55369 0.49336 -0.79000
O 	O 	0.72644 0.54911 0.39639 -0.44100
O 	O 	0.81884 0.54819 0.47962 -0.42900
O 	O 	0.73836 0.49871 0.41388 -0.41800
O 	O 	0.81382 0.55023 0.55202 -0.40200
C 	C 	0.67139 0.57339 0.52372 0.29500
C 	C 	0.73774 0.51571 0.63474 0.30200
C 	C 	0.64290 0.46943 0.49630 0.28800
C 	C 	0.79219 0.45546 0.49411 0.29200
C 	C 	0.63295 0.74541 0.99745 0.29400
C 	C 	0.64398 0.89405 0.99367 0.28600
H 	H 	0.62561 0.83415 0.92782 0.17900
O 	O 	0.65660 0.86993 0.00664 -0.41600
O 	O 	0.64624 0.78032 0.01328 -0.42500
C 	C 	0.63505 0.74548 0.50421 0.29900
H 	H 	0.62618 0.83839 0.44955 0.18500
O 	O 	0.64309 0.75354 0.46286 -0.44000
O 	O 	0.61672 0.84570 0.53804 -0.42000
O 	O 	0.63368 0.77124 0.52821 -0.42800
Zn	Zn	0.77161 0.20423 0.04167 1.22400
Zn	Zn	0.72879 0.17083 0.94606 1.19700
C 	C 	0.90921 0.24679 0.97380 0.30900
Zn	Zn	0.81954 0.20404 0.96067 1.22200
Zn	Zn	0.86049 0.22704 0.05419 1.19800
H 	H 	0.78268 0.24115 0.96373 0.18200
C 	C 	0.76806 0.11889 0.95872 0.29600
O 	O 	0.84478 0.23995 0.10796 -0.45700
O 	O 	0.77590 0.19371 0.10803 -0.38200
O 	O 	0.77586 0.21439 0.97493 -0.79300
O 	O 	0.68223 0.14934 0.98893 -0.43200
O 	O 	0.79776 0.26176 0.04904 -0.42500
O 	O 	0.71131 0.17222 0.05276 -0.41400
O 	O 	0.86144 0.27842 0.02263 -0.40000
O 	O 	0.74994 0.16774 0.88939 -0.43900
H 	H 	0.80024 0.15930 0.03618 0.18600
O 	O 	0.81722 0.21765 0.89506 -0.39200
O 	O 	0.81003 0.18723 0.02659 -0.79100
O 	O 	0.90466 0.23392 0.01396 -0.45500
O 	O 	0.80469 0.14976 0.94765 -0.42800
O 	O 	0.87879 0.24679 0.95388 -0.41600
O 	O 	0.73828 0.12399 0.97161 -0.40300
C 	C 	0.80983 0.21526 0.12875 0.29600
C 	C 	0.68343 0.16623 0.02439 0.28900
C 	C 	0.83388 0.28817 0.03110 0.28700
C 	C 	0.78530 0.19609 0.87162 0.29500
Zn	Zn	0.75086 0.18566 0.53185 1.22300
Zn	Zn	0.71957 0.15911 0.43551 1.19900
C 	C 	0.89095 0.22989 0.48173 0.30300
Zn	Zn	0.80278 0.17418 0.46263 1.22300
Zn	Zn	0.83753 0.21198 0.55826 1.19800
H 	H 	0.78196 0.22531 0.45335 0.18800
C 	C 	0.73341 0.09331 0.47458 0.28800
O 	O 	0.81374 0.22336 0.60742 -0.44500
O 	O 	0.74569 0.17669 0.59950 -0.38700
O 	O 	0.76839 0.19769 0.46604 -0.79100
O 	O 	0.67477 0.16046 0.46635 -0.45700
O 	O 	0.77176 0.24256 0.53760 -0.42100
O 	O 	0.68971 0.14908 0.53421 -0.41500
O 	O 	0.83837 0.26102 0.52161 -0.41500
O 	O 	0.73672 0.13804 0.38953 -0.45600
H 	H 	0.78066 0.14234 0.54335 0.18100
O 	O 	0.80593 0.17998 0.39474 -0.38600
O 	O 	0.79122 0.16893 0.52882 -0.79100
O 	O 	0.88681 0.22347 0.52342 -0.44100
O 	O 	0.77230 0.11559 0.46104 -0.43000
O 	O 	0.86395 0.20292 0.45692 -0.42000
O 	O 	0.70993 0.10876 0.47692 -0.40500
C 	C 	0.77669 0.19810 0.62410 0.29300
C 	C 	0.66389 0.14971 0.50671 0.31700
C 	C 	0.80995 0.27025 0.52640 0.29600
C 	C 	0.77382 0.15835 0.37170 0.29800
C 	C 	0.00437 0.29321 0.46555 0.09300
N 	N 	0.96642 0.26498 0.48178 -0.08900
C 	C 	0.93173 0.25986 0.46328 -0.02800
C 	C 	0.93531 0.28416 0.42728 0.04700
N 	N 	0.97335 0.31291 0.41150 -0.10700
H 	H 	0.90799 0.28056 0.41237 0.03700
N 	N 	0.96457 0.30283 0.93065 -0.08600
C 	C 	0.95058 0.26762 0.95349 -0.03300
C 	C 	0.97750 0.25376 0.96132 0.04600
H 	H 	0.96677 0.22568 0.97919 0.03300
C 	C 	0.76045 0.18494 0.75758 0.09300
C 	C 	0.79817 0.21440 0.73799 0.09300
N 	N 	0.80217 0.21891 0.69498 -0.09300
C 	C 	0.77005 0.19509 0.67043 -0.03100
C 	C 	0.73201 0.16601 0.69005 0.04300
N 	N 	0.72802 0.16154 0.73327 -0.11000
N 	N 	0.75692 0.17946 0.80065 -0.09200
N 	N 	0.83081 0.23737 0.76218 -0.11000
H 	H 	0.70607 0.14671 0.67111 0.04900
C 	C 	0.78971 0.20229 0.82503 -0.03000
C 	C 	0.82738 0.23198 0.80528 0.04400
H 	H 	0.85375 0.25060 0.82408 0.05000
C 	C 	0.81024 0.19999 0.26199 0.09200
C 	C 	0.77996 0.16958 0.23824 0.09300
N 	N 	0.77985 0.17545 0.19545 -0.09100
C 	C 	0.80901 0.21045 0.17523 -0.03500
C 	C 	0.83936 0.24084 0.19900 0.04300
N 	N 	0.83930 0.23500 0.24193 -0.11100
N 	N 	0.80917 0.19482 0.30498 -0.09200
N 	N 	0.75051 0.13482 0.25836 -0.11000
H 	H 	0.86271 0.26894 0.18343 0.04200
C 	C 	0.77880 0.16057 0.32537 -0.03600
C 	C 	0.74936 0.12965 0.30146 0.04400
H 	H 	0.72525 0.10202 0.31717 0.04300
C 	C 	0.68048 0.97069 0.50667 0.09200
C 	C 	0.65977 0.99028 0.51683 0.09400
N 	N 	0.67791 0.02996 0.50727 -0.09100
C 	C 	0.71603 0.05110 0.48786 -0.03000
C 	C 	0.73720 0.03166 0.47870 0.04100
N 	N 	0.71893 0.99182 0.48822 -0.11300
N 	N 	0.66089 0.93043 0.51285 -0.09600
N 	N 	0.62079 0.96901 0.53387 -0.10900
H 	H 	0.76757 0.04794 0.46332 0.04300
C 	C 	0.62124 0.90893 0.52849 -0.02700
C 	C 	0.71619 0.01185 0.94412 0.09800
C 	C 	0.72870 0.99892 0.98030 0.09000
N 	N 	0.70702 0.95978 0.99396 -0.09000
C 	C 	0.67328 0.93311 0.97293 -0.02900
C 	C 	0.66276 0.94568 0.93510 0.04300
N 	N 	0.68431 0.98481 0.92156 -0.10900
N 	N 	0.73260 0.05140 0.93508 -0.09200
N 	N 	0.75915 0.02621 0.00414 -0.10400
H 	H 	0.63634 0.92469 0.91771 0.03600
C 	C 	0.76110 0.07872 0.96055 -0.02500
C 	C 	0.77586 0.06589 0.99475 0.03600
H 	H 	0.79854 0.08727 0.01535 0.02700
C 	C 	0.64143 0.81163 0.16655 0.04500
N 	N 	0.64038 0.80484 0.20946 -0.11100
H 	H 	0.65697 0.80179 0.14619 0.04600
C 	C 	0.79995 0.35359 0.48448 0.09300
C 	C 	0.82687 0.38399 0.51046 0.09300
N 	N 	0.82565 0.41778 0.51131 -0.09100
C 	C 	0.79896 0.42270 0.48676 -0.03300
C 	C 	0.77400 0.39329 0.45875 0.04100
N 	N 	0.77476 0.35921 0.45848 -0.11300
N 	N 	0.79678 0.31765 0.48822 -0.09900
N 	N 	0.85136 0.37795 0.53721 -0.10900
H 	H 	0.75280 0.39675 0.43873 0.04200
C 	C 	0.82000 0.31099 0.51631 -0.03100
C 	C 	0.84876 0.34214 0.54032 0.04800
H 	H 	0.86740 0.33725 0.56286 0.03800
C 	C 	0.66407 0.66048 0.54453 0.09200
C 	C 	0.62498 0.64855 0.52859 0.09400
N 	N 	0.61489 0.67629 0.51873 -0.09900
C 	C 	0.64203 0.71545 0.52456 -0.03100
C 	C 	0.67990 0.72695 0.54324 0.04800
N 	N 	0.69029 0.69925 0.55261 -0.11200
N 	N 	0.67717 0.63429 0.54685 -0.09600
N 	N 	0.59952 0.61024 0.51858 -0.11200
H 	H 	0.70181 0.75802 0.54814 0.03900
C 	C 	0.65286 0.59675 0.53364 -0.03200
C 	C 	0.61254 0.58400 0.52115 0.04600
H 	H 	0.59252 0.55398 0.51133 0.04500
C 	C 	0.81668 0.36585 0.98558 0.08800
C 	C 	0.84307 0.39806 0.00984 0.09800
N 	N 	0.83874 0.43016 0.01015 -0.08900
C 	C 	0.80931 0.43159 0.98682 -0.03500
C 	C 	0.78475 0.40040 0.96047 0.04000
N 	N 	0.78873 0.36805 0.96067 -0.11600
N 	N 	0.81656 0.33138 0.99035 -0.10600
N 	N 	0.87008 0.39529 0.03584 -0.10900
H 	H 	0.76142 0.40109 0.94141 0.04100
C 	C 	0.84212 0.32784 0.01800 -0.02400
C 	C 	0.87039 0.36090 0.04010 0.04800
H 	H 	0.89082 0.35851 0.06232 0.03900
C 	C 	0.62722 0.65143 0.02890 0.09500
C 	C 	0.66799 0.66544 0.04082 0.09200
N 	N 	0.68204 0.63999 0.04351 -0.09500
C 	C 	0.65700 0.60112 0.03456 -0.03200
C 	C 	0.61537 0.58660 0.02609 0.04700
N 	N 	0.60140 0.61209 0.02316 -0.10900
N 	N 	0.61544 0.67780 0.01837 -0.09300
N 	N 	0.69438 0.70509 0.04456 -0.11100
H 	H 	0.59486 0.55561 0.01964 0.04600
C 	C 	0.64258 0.71769 0.01953 -0.02400
C 	C 	0.68237 0.73149 0.03452 0.04500
H 	H 	0.70435 0.76312 0.03577 0.04400
C 	C 	0.74239 0.50579 0.75352 0.09200
C 	C 	0.72652 0.52872 0.76702 0.09200
N 	N 	0.72363 0.53299 0.80947 -0.09200
C 	C 	0.73583 0.51500 0.83925 -0.02800
C 	C 	0.75160 0.49187 0.82547 0.04200
N 	N 	0.75456 0.48779 0.78297 -0.10900
N 	N 	0.74568 0.50187 0.71101 -0.09200
N 	N 	0.71429 0.54668 0.73763 -0.11000
H 	H 	0.76177 0.47756 0.84832 0.04500
C 	C 	0.73358 0.52002 0.68126 -0.02500
C 	C 	0.71738 0.54277 0.69516 0.04200
H 	H 	0.70737 0.55727 0.67238 0.04900
C 	C 	0.73221 0.53404 0.26640 0.09300
C 	C 	0.74802 0.51113 0.25269 0.09300
N 	N 	0.75232 0.50824 0.21012 -0.09200
C 	C 	0.74124 0.52736 0.18050 -0.02500
C 	C 	0.72502 0.55003 0.19457 0.04200
N 	N 	0.72097 0.55297 0.23713 -0.10900
N 	N 	0.72833 0.53728 0.30894 -0.09200
N 	N 	0.75909 0.49206 0.28199 -0.10900
H 	H 	0.71582 0.56531 0.17187 0.04900
C 	C 	0.73942 0.51821 0.33857 -0.02700
C 	C 	0.75509 0.49507 0.32457 0.04200
H 	H 	0.76440 0.47992 0.34731 0.04600
C 	C 	0.94397 0.63822 0.53409 0.09600
C 	C 	0.95317 0.66752 0.50137 0.09400
N 	N 	0.97493 0.64011 0.55747 -0.10800
N 	N 	0.90476 0.60655 0.53985 -0.09000
N 	N 	0.92264 0.66473 0.47668 -0.11200
C 	C 	0.87446 0.60291 0.51390 -0.02900
C 	C 	0.88346 0.63304 0.48231 0.04500
H 	H 	0.85961 0.63070 0.46168 0.02400
C 	C 	0.95676 0.67512 0.98817 0.08900
C 	C 	0.94725 0.65104 0.02599 0.10000
N 	N 	0.90825 0.61939 0.03362 -0.09100
C 	C 	0.87843 0.61086 0.00480 -0.02400
C 	C 	0.88764 0.63615 0.96802 0.03900
N 	N 	0.92664 0.66767 0.96039 -0.11100
N 	N 	0.97778 0.65772 0.05304 -0.10800
H 	H 	0.86412 0.63013 0.94512 0.02900
C 	C 	0.60758 0.42878 0.49449 -0.03000
C 	C 	0.61260 0.39906 0.47797 0.03900
H 	H 	0.64231 0.40626 0.46505 0.02900
N 	N 	0.61152 0.15948 0.53870 -0.09200
C 	C 	0.62106 0.13470 0.52003 -0.03000
H 	H 	0.59642 0.07959 0.48849 0.03800
C 	C 	0.60878 0.43134 0.00448 -0.02600
C 	C 	0.61000 0.40070 0.98493 0.03300
H 	H 	0.63738 0.40691 0.96717 0.03200
N 	N 	0.60867 0.13750 0.02669 -0.08700
N 	N 	0.61812 0.20498 0.05983 -0.11000
C 	C 	0.64680 0.16695 0.03772 -0.02900
C 	C 	0.65129 0.20074 0.05596 0.03800
H 	H 	0.68139 0.22442 0.06491 0.03300
