data_crystal

_cell_length_a 32.43676
_cell_length_b 28.93916
_cell_length_c 31.66519
_cell_angle_alpha 103.63003
_cell_angle_beta  115.74485
_cell_angle_gamma 112.41870

_symmetry_space_group_name_	'P 1'
_symmetry_space_group_name_H-M	'P 1'

loop_
_symmetry_equiv_pos_as_xyz
  x,y,z

loop_
_atom_site_label
_atom_site_type_symbol
_atom_site_fract_x
_atom_site_fract_y
_atom_site_fract_z
_atom_site_charge
C 	C 	0.79556 0.26505 0.97599 -0.00700
C 	C 	0.81337 0.28181 0.02931 -0.02700
C 	C 	0.79643 0.31188 0.05118 -0.07100
C 	C 	0.76237 0.32645 0.02047 0.07700
C 	C 	0.74426 0.30938 0.96685 -0.07100
C 	C 	0.76036 0.27836 0.94467 -0.02600
C 	C 	0.59922 0.29187 0.02805 -0.00900
C 	C 	0.69946 0.33663 0.03994 0.07600
C 	C 	0.65076 0.28859 0.99162 -0.07300
C 	C 	0.60100 0.26643 0.98590 -0.02400
C 	C 	0.81458 0.23439 0.95341 0.00900
C 	C 	0.80932 0.18550 0.95748 -0.04500
C 	C 	0.44615 0.23190 0.00797 0.00700
C 	C 	0.47171 0.20225 0.01791 -0.04300
C 	C 	0.52144 0.22143 0.02380 -0.04400
C 	C 	0.54635 0.27094 0.02074 0.00900
C 	C 	0.52110 0.30096 0.01142 -0.04400
C 	C 	0.47125 0.28162 0.00525 -0.04600
H 	H 	0.84099 0.27225 0.05402 0.03000
H 	H 	0.71780 0.32010 0.94247 0.04500
H 	H 	0.74583 0.26505 0.90331 0.03200
H 	H 	0.65098 0.26935 0.95816 0.04700
H 	H 	0.56363 0.23014 0.94836 0.03200
H 	H 	0.78690 0.16706 0.97268 0.03700
H 	H 	0.45318 0.16459 0.02130 0.03400
H 	H 	0.54087 0.19820 0.03125 0.03800
H 	H 	0.54019 0.33931 0.00911 0.03500
H 	H 	0.45202 0.30510 0.99824 0.03500
C 	C 	0.70819 0.21104 0.44309 -0.00700
C 	C 	0.74641 0.26037 0.49324 -0.02600
C 	C 	0.73097 0.29523 0.51106 -0.07200
C 	C 	0.67738 0.28150 0.47887 0.07900
C 	C 	0.63864 0.23131 0.42898 -0.07300
C 	C 	0.65411 0.19637 0.41121 -0.02500
C 	C 	0.51716 0.24598 0.48740 -0.00800
C 	C 	0.61369 0.29554 0.49269 0.07800
C 	C 	0.56383 0.28062 0.44824 -0.07300
C 	C 	0.51584 0.25584 0.44567 -0.02500
C 	C 	0.72566 0.17041 0.37881 -0.04400
C 	C 	0.72521 0.17538 0.42379 0.01000
C 	C 	0.74520 0.15004 0.45286 -0.04500
C 	C 	0.36934 0.17147 0.47808 0.00400
C 	C 	0.37760 0.13747 0.44721 -0.04200
C 	C 	0.42624 0.16165 0.45086 -0.04400
C 	C 	0.46666 0.22018 0.48479 0.00900
C 	C 	0.45836 0.25427 0.51544 -0.04500
C 	C 	0.40963 0.23014 0.51165 -0.04200
H 	H 	0.59708 0.22003 0.40363 0.04700
H 	H 	0.62423 0.15816 0.37258 0.03300
H 	H 	0.56198 0.28718 0.41542 0.04600
H 	H 	0.47763 0.24428 0.41126 0.03200
H 	H 	0.70993 0.18947 0.35587 0.03700
H 	H 	0.74434 0.15298 0.48718 0.03500
H 	H 	0.34592 0.09257 0.41971 0.03400
H 	H 	0.43225 0.13509 0.42686 0.03900
H 	H 	0.48927 0.29957 0.54153 0.03600
H 	H 	0.40295 0.25705 0.53446 0.03500
Zn	Zn	0.17039 0.14865 0.01689 1.17900
Zn	Zn	0.07217 0.09104 0.90408 1.19200
O 	O 	0.04321 0.06039 0.82561 -0.44100
C 	C 	0.24398 0.16315 0.98780 0.29400
C 	C 	0.15543 0.21748 0.96156 0.33400
O 	O 	0.23479 0.15339 0.02227 -0.47200
O 	O 	0.20382 0.15362 0.94299 -0.31300
O 	O 	0.09613 0.10639 0.97963 -0.79000
O 	O 	0.10934 0.17115 0.91763 -0.45400
O 	O 	0.18051 0.21738 0.00740 -0.47000
O 	O 	0.06788 0.07680 0.12379 -0.47300
O 	O 	0.07657 0.04473 0.03548 -0.88500
H 	H 	0.11661 0.07039 0.06366 0.16400
Zn	Zn	0.10031 0.11669 0.48604 1.18400
Zn	Zn	0.01203 0.05081 0.36672 1.20200
O 	O 	0.98913 0.02059 0.29061 -0.44600
C 	C 	0.16488 0.10247 0.45331 0.30700
C 	C 	0.08891 0.17774 0.42550 0.31600
O 	O 	0.16872 0.13219 0.49482 -0.46500
O 	O 	0.11668 0.05787 0.41142 -0.36000
O 	O 	0.02607 0.06581 0.43976 -0.76600
O 	O 	0.06609 0.12879 0.38443 -0.46100
O 	O 	0.10200 0.18094 0.47215 -0.46200
O 	O 	0.98755 0.02686 0.57802 -0.45200
O 	O 	0.00284 0.00068 0.49272 -0.87000
H 	H 	0.04238 0.02548 0.52271 0.16800
C 	C 	0.00943 0.99619 0.64433 -0.06500
C 	C 	0.16926 0.27261 0.46098 -0.00700
C 	C 	0.11290 0.23100 0.42307 -0.10900
C 	C 	0.08108 0.23907 0.38134 0.07100
H 	H 	0.19351 0.26637 0.49290 0.03300
C 	C 	0.01958 0.19606 0.34053 -0.10900
H 	H 	0.27144 0.29193 0.48137 0.02900
C 	C 	0.98803 0.19977 0.36456 -0.04600
H 	H 	0.00359 0.19440 0.40077 0.03500
H 	H 	0.01007 0.15219 0.32385 0.05900
H 	H 	0.23753 0.29805 0.39637 0.05800
H 	H 	0.00438 0.20379 0.30569 0.05300
C 	C 	0.18284 0.26833 0.95762 -0.11400
C 	C 	0.19745 0.32220 0.99112 0.08000
C 	C 	0.19930 0.26380 0.92344 -0.00400
H 	H 	0.18792 0.22239 0.89776 0.04700
C 	C 	0.17337 0.32794 0.02230 -0.12800
C 	C 	0.30360 0.29919 0.92031 -0.02700
H 	H 	0.28885 0.26022 0.92463 0.03600
H 	H 	0.16279 0.29364 0.03327 0.05300
H 	H 	0.36179 0.28803 0.91047 0.05300
H 	H 	0.32904 0.06620 0.01870 0.03800
H 	H 	0.73037 0.01054 0.33613 0.05400
C 	C 	0.31555 0.14726 0.46977 0.00600
C 	C 	0.30970 0.14039 0.51010 0.00000
C 	C 	0.25943 0.12398 0.50298 -0.00700
C 	C 	0.21519 0.11459 0.45669 -0.10900
C 	C 	0.22032 0.11868 0.41513 0.07800
C 	C 	0.27051 0.13482 0.42229 -0.08900
H 	H 	0.25483 0.11862 0.53376 0.03200
H 	H 	0.27518 0.13992 0.39146 0.05100
C 	C 	0.35609 0.14918 0.56056 -0.09400
C 	C 	0.17490 0.11149 0.36517 -0.13200
C 	C 	0.34900 0.09252 0.55725 -0.02400
H 	H 	0.30595 0.06053 0.54099 0.03100
H 	H 	0.37574 0.10011 0.59839 0.02600
C 	C 	0.17818 0.16757 0.37481 -0.00400
H 	H 	0.21861 0.20087 0.38641 0.02400
H 	H 	0.17458 0.18191 0.40803 0.03600
H 	H 	0.39723 0.17853 0.57107 0.04800
H 	H 	0.13378 0.07687 0.35044 0.07500
C 	C 	0.36513 0.06816 0.52339 -0.15700
C 	C 	0.13280 0.16102 0.32476 -0.16900
H 	H 	0.33761 0.05730 0.48130 0.06000
H 	H 	0.35630 0.17060 0.59486 0.04100
H 	H 	0.13617 0.14761 0.29115 0.06600
H 	H 	0.13668 0.20249 0.33310 0.06400
H 	H 	0.09176 0.12884 0.31278 0.08200
H 	H 	0.17907 0.09808 0.33210 0.06100
H 	H 	0.03370 0.28165 0.01585 0.04700
C 	C 	0.29668 0.17805 0.99572 -0.09800
C 	C 	0.34833 0.22193 0.04506 0.06800
C 	C 	0.39666 0.23512 0.04891 -0.08100
C 	C 	0.39447 0.21259 0.00315 -0.00200
C 	C 	0.34308 0.17346 0.95310 0.01000
C 	C 	0.29518 0.15265 0.95100 -0.01700
H 	H 	0.43624 0.26627 0.08705 0.04600
H 	H 	0.25611 0.11906 0.91346 0.04700
C 	C 	0.35334 0.25967 0.09194 -0.11800
C 	C 	0.33837 0.15591 0.90133 -0.09800
C 	C 	0.36854 0.31866 0.09623 -0.01500
H 	H 	0.40339 0.33724 0.09308 0.02500
H 	H 	0.38232 0.34781 0.13628 0.01900
C 	C 	0.33644 0.10058 0.88425 -0.02200
H 	H 	0.30226 0.06648 0.88109 0.03200
H 	H 	0.37566 0.10758 0.91455 0.03000
H 	H 	0.31672 0.24055 0.09200 0.05000
H 	H 	0.37272 0.19018 0.90488 0.04800
C 	C 	0.32018 0.31654 0.05376 -0.16500
C 	C 	0.32778 0.08054 0.83026 -0.15800
H 	H 	0.28670 0.30223 0.05913 0.06600
H 	H 	0.33354 0.35975 0.05771 0.05800
H 	H 	0.30454 0.28709 0.01308 0.06900
H 	H 	0.38674 0.26616 0.12934 0.04600
H 	H 	0.28811 0.07178 0.79866 0.06000
H 	H 	0.36183 0.11345 0.83237 0.05600
H 	H 	0.30025 0.14955 0.86934 0.05100
C 	C 	0.64769 0.33872 0.07649 -0.02600
C 	C 	0.56674 0.26094 0.53168 -0.02600
Zn	Zn	0.05571 0.02931 0.96427 1.21900
C 	C 	0.06652 0.03491 0.13401 0.33800
C 	C 	0.05467 0.02812 0.80217 0.31500
Zn	Zn	0.98448 0.98754 0.42256 1.21200
C 	C 	0.99616 0.99029 0.59193 0.29200
C 	C 	0.00367 0.98924 0.27145 0.31200
C 	C 	0.03988 0.01720 0.74808 -0.08500
C 	C 	0.05439 0.02742 0.17269 -0.11100
C 	C 	0.01759 0.99800 0.23403 -0.08300
H 	H 	0.99400 0.24239 0.37650 0.02800
C 	C 	0.23300 0.31250 0.92426 0.00200
C 	C 	0.25587 0.30621 0.89198 -0.09500
C 	C 	0.32790 0.29361 0.88903 -0.15500
H 	H 	0.29607 0.25584 0.84851 0.05500
H 	H 	0.22267 0.26774 0.85202 0.04800
H 	H 	0.40828 0.09935 0.53946 0.05900
H 	H 	0.36136 0.02863 0.52414 0.05700
H 	H 	0.56807 0.25341 0.56405 0.03200
C 	C 	0.61471 0.28547 0.53422 -0.07100
H 	H 	0.23386 0.03912 0.98280 0.02000
H 	H 	0.37782 0.06228 0.97039 0.04500
H 	H 	0.06427 0.23881 0.95504 0.06000
H 	H 	0.23482 0.01363 0.43644 0.06100
H 	H 	0.81102 0.32535 0.09255 0.04600
C 	C 	0.07874 0.00788 0.20662 0.08600
C 	C 	0.05999 0.99293 0.23669 -0.05400
H 	H 	0.07988 0.97937 0.26371 0.05200
I 	I 	0.14803 0.00688 0.21855 -0.14800
H 	H 	0.14505 0.98904 0.42124 0.03600
H 	H 	0.30518 0.31147 0.42615 0.05300
N 	N 	0.66377 0.32072 0.49619 -0.14400
H 	H 	0.23566 0.01428 0.35670 0.07300
C 	C 	0.07273 0.27286 0.94345 -0.16500
H 	H 	0.03622 0.27553 0.92655 0.06000
H 	H 	0.07932 0.26146 0.91196 0.07100
H 	H 	0.78969 0.02316 0.87431 0.06800
H 	H 	0.20505 0.36821 0.06106 0.04600
H 	H 	0.76096 0.33368 0.54947 0.04600
C 	C 	0.28710 0.33436 0.48314 -0.02400
C 	C 	0.28117 0.32832 0.43125 -0.15600
C 	C 	0.12288 0.33037 0.99206 -0.00700
H 	H 	0.11255 0.34367 0.01992 0.01700
H 	H 	0.33651 0.33656 0.96095 0.02900
N 	N 	0.75085 0.36332 0.04583 -0.14400
C 	C 	0.72858 0.41743 0.99939 -0.07300
C 	C 	0.76643 0.41482 0.04145 0.07700
C 	C 	0.69754 0.36082 0.08244 -0.07100
H 	H 	0.68643 0.38132 0.97068 0.04600
H 	H 	0.64661 0.35844 0.10930 0.03100
H 	H 	0.73471 0.39755 0.11976 0.04600
C 	C 	0.65911 0.35316 0.42914 -0.07300
C 	C 	0.67520 0.36540 0.48162 0.07800
H 	H 	0.63242 0.30955 0.39729 0.04600
H 	H 	0.65283 0.29675 0.56850 0.04700
H 	H 	0.18558 0.33218 0.34152 0.03300
C 	C 	0.16369 0.32861 0.41461 0.00400
C 	C 	0.19545 0.32033 0.45617 0.00300
C 	C 	0.10681 0.28845 0.37820 -0.08400
H 	H 	0.08257 0.29540 0.34695 0.04900
C 	C 	0.25757 0.36072 0.49472 -0.09500
H 	H 	0.33152 0.36238 0.51670 0.02400
H 	H 	0.26962 0.37047 0.53596 0.04200
C 	C 	0.23086 0.37095 0.99172 -0.08600
C 	C 	0.24796 0.36656 0.95801 0.00500
H 	H 	0.13246 0.36313 0.97902 0.02600
H 	H 	0.26938 0.34264 0.88412 0.04900
H 	H 	0.34460 0.33260 0.88527 0.05300
H 	H 	0.97386 0.30841 0.51334 0.05000
H 	H 	0.06399 0.36009 0.10106 0.05000
H 	H 	0.29702 0.37043 0.43246 0.05800
H 	H 	0.79554 0.02395 0.54283 0.03400
H 	H 	0.75938 0.07370 0.57600 0.05800
C 	C 	0.73940 0.05032 0.53239 -0.16600
H 	H 	0.75651 0.08115 0.52005 0.05900
C 	C 	0.74587 0.46583 0.99301 -0.02500
C 	C 	0.82076 0.46210 0.07828 -0.07200
H 	H 	0.71695 0.46668 0.95945 0.03000
H 	H 	0.84995 0.46062 0.11104 0.04600
C 	C 	0.67805 0.39747 0.41790 -0.02500
C 	C 	0.70803 0.42236 0.52170 -0.07200
H 	H 	0.66608 0.38758 0.37760 0.03100
H 	H 	0.72044 0.43219 0.56208 0.04600
C 	C 	0.27432 0.41722 0.95298 0.00500
C 	C 	0.24330 0.43748 0.92780 -0.04100
C 	C 	0.33093 0.44770 0.97675 -0.04200
H 	H 	0.19970 0.41461 0.91003 0.03800
H 	H 	0.35545 0.43312 0.99742 0.03400
C 	C 	0.18930 0.37898 0.40871 0.00500
C 	C 	0.19818 0.37347 0.36873 -0.04300
H 	H 	0.27322 0.40261 0.49566 0.04900
H 	H 	0.24160 0.41226 0.01684 0.04600
C 	C 	0.75043 0.00376 0.52061 0.00400
H 	H 	0.69457 0.03134 0.51084 0.06200
C 	C 	0.76812 0.12265 0.43884 -0.04100
C 	C 	0.86615 0.18681 0.92668 0.00600
C 	C 	0.86621 0.23157 0.91680 -0.04300
C 	C 	0.84162 0.25625 0.93133 -0.04500
C 	C 	0.83498 0.16182 0.94416 -0.04300
H 	H 	0.88741 0.24891 0.90024 0.03200
H 	H 	0.84505 0.29333 0.92703 0.03500
H 	H 	0.83248 0.12540 0.94940 0.03500
C 	C 	0.77165 0.12078 0.39595 0.00400
C 	C 	0.74834 0.14266 0.36462 -0.04100
H 	H 	0.78829 0.27206 0.51809 0.03100
H 	H 	0.74973 0.14011 0.33062 0.03500
H 	H 	0.78517 0.10488 0.46257 0.03600
C 	C 	0.89001 0.07729 0.02690 -0.02200
H 	H 	0.88608 0.06375 0.98883 0.04000
H 	H 	0.84917 0.06645 0.01743 0.03000
C 	C 	0.80513 0.01343 0.36125 0.09800
C 	C 	0.77458 0.03783 0.35796 -0.09400
C 	C 	0.80113 0.09717 0.38504 0.01200
C 	C 	0.87593 0.11232 0.88402 -0.08600
H 	H 	0.83452 0.09065 0.84848 0.04800
C 	C 	0.86860 0.01920 0.85490 -0.10800
C 	C 	0.80081 0.51231 0.02890 -0.01000
C 	C 	0.83787 0.51071 0.07223 -0.02600
C 	C 	0.71339 0.45435 0.45884 -0.00800
C 	C 	0.72735 0.46665 0.51053 -0.02600
H 	H 	0.77600 0.46605 0.42171 0.03600
C 	C 	0.26865 0.48805 0.92676 -0.04400
C 	C 	0.35600 0.49713 0.97381 -0.04500
C 	C 	0.20397 0.43229 0.44248 -0.04200
C 	C 	0.22381 0.42136 0.36410 -0.04500
H 	H 	0.19629 0.43670 0.47279 0.03700
H 	H 	0.23109 0.41679 0.33351 0.03400
Zn	Zn	0.03581 0.06640 0.05146 1.20400
Zn	Zn	0.95692 0.01568 0.50552 1.19600
H 	H 	0.02609 0.19247 0.00819 0.03000
C 	C 	0.92667 0.15374 0.32433 -0.15100
C 	C 	0.90930 0.04629 0.05586 -0.10200
O 	O 	0.97861 0.04047 0.93858 -0.46400
C 	C 	0.97531 0.07918 0.96620 0.32400
O 	O 	0.99663 0.09520 0.01699 -0.50300
O 	O 	0.90574 0.99641 0.39416 -0.47300
C 	C 	0.89635 0.02873 0.42071 0.33600
O 	O 	0.91392 0.04053 0.47008 -0.49900
C 	C 	0.97354 0.99554 0.65833 0.03500
C 	C 	0.98872 0.00549 0.70978 -0.02400
H 	H 	0.96061 0.00412 0.72005 0.04000
I 	I 	0.89565 0.97896 0.60260 -0.15900
C 	C 	0.99252 0.01635 0.19908 0.04200
C 	C 	0.01331 0.03414 0.17138 0.00800
H 	H 	0.99434 0.04888 0.14527 0.02800
H 	H 	0.90968 0.15750 0.28732 0.05400
H 	H 	0.90464 0.15873 0.34197 0.05200
H 	H 	0.91944 0.11065 0.31400 0.04200
H 	H 	0.91809 0.06416 0.09616 0.05300
C 	C 	0.93044 0.14189 0.06111 -0.15700
H 	H 	0.97162 0.15442 0.07077 0.05800
H 	H 	0.91559 0.16286 0.03882 0.05600
H 	H 	0.93390 0.15709 0.09888 0.05200
C 	C 	0.86311 0.04922 0.39411 -0.13200
C 	C 	0.85805 0.13272 0.40931 -0.00500
C 	C 	0.88854 0.10817 0.41336 0.00100
H 	H 	0.93282 0.13546 0.43557 0.01500
C 	C 	0.88738 0.19700 0.43392 -0.09100
C 	C 	0.91276 0.22479 0.49398 -0.02700
H 	H 	0.94373 0.21541 0.51488 0.02600
H 	H 	0.88057 0.20731 0.50069 0.03300
H 	H 	0.85915 0.20930 0.41320 0.04600
C 	C 	0.94066 0.28937 0.51853 -0.15500
H 	H 	0.92057 0.21398 0.42827 0.03800
C 	C 	0.95401 0.11029 0.94254 -0.12300
C 	C 	0.90056 0.08180 0.89457 0.07100
C 	C 	0.90133 0.16818 0.92242 0.00300
C 	C 	0.95767 0.19894 0.96480 0.00200
C 	C 	0.98371 0.16968 0.97395 -0.02200
C 	C 	0.99015 0.26254 0.00143 -0.10200
C 	C 	0.98815 0.27546 0.05012 -0.05000
H 	H 	0.00617 0.25687 0.07362 0.03800
H 	H 	0.94505 0.25638 0.03706 0.03600
H 	H 	0.97543 0.28371 0.97929 0.04300
C 	C 	0.02026 0.33960 0.08632 -0.14000
H 	H 	0.01838 0.34750 0.12130 0.05200
H 	H 	0.94884 0.05536 0.06313 0.03800
H 	H 	0.82680 0.00218 0.28256 0.06700
H 	H 	0.00222 0.35913 0.06422 0.05600
H 	H 	0.95897 0.30819 0.56199 0.05000
H 	H 	0.91023 0.29998 0.49940 0.05400
C 	C 	0.82030 0.56112 0.01938 0.00900
C 	C 	0.79638 0.59279 0.01666 -0.04700
C 	C 	0.81508 0.63911 0.00773 -0.04300
H 	H 	0.76365 0.58175 0.02184 0.03300
H 	H 	0.79665 0.66357 0.00595 0.03000
C 	C 	0.78683 0.59014 0.43023 0.00400
C 	C 	0.76979 0.50050 0.42916 -0.04500
C 	C 	0.73802 0.50078 0.44826 0.00900
C 	C 	0.73104 0.54615 0.45857 -0.04600
C 	C 	0.75580 0.59092 0.45009 -0.04300
H 	H 	0.75441 0.51044 0.54238 0.02900
H 	H 	0.70662 0.54679 0.47330 0.03400
H 	H 	0.75058 0.62601 0.45855 0.03200
C 	C 	0.35178 0.57162 0.94800 -0.00800
C 	C 	0.32659 0.57463 0.90064 -0.02500
C 	C 	0.34855 0.62657 0.90066 -0.07200
C 	C 	0.40092 0.62063 0.99464 -0.02300
C 	C 	0.32509 0.51802 0.94937 0.01000
H 	H 	0.28960 0.53685 0.86399 0.03200
H 	H 	0.32819 0.62874 0.86427 0.04800
H 	H 	0.42071 0.61911 0.03153 0.02900
H 	H 	0.24452 0.50424 0.90883 0.03800
H 	H 	0.39941 0.51937 0.99085 0.03500
C 	C 	0.26542 0.52525 0.39287 -0.00800
C 	C 	0.23548 0.52709 0.34608 -0.02600
C 	C 	0.25881 0.57541 0.34111 -0.07100
C 	C 	0.31931 0.57184 0.43435 -0.02600
C 	C 	0.22959 0.48021 0.43786 -0.04400
C 	C 	0.23984 0.47500 0.39880 0.00900
H 	H 	0.19386 0.49137 0.31387 0.03200
H 	H 	0.23508 0.57678 0.30516 0.04800
H 	H 	0.34282 0.57075 0.47057 0.03100
H 	H 	0.24110 0.52126 0.46434 0.03700
C 	C 	0.72367 0.59902 0.33371 -0.09500
C 	C 	0.71816 0.56742 0.28325 -0.02200
H 	H 	0.73866 0.59833 0.27265 0.02500
H 	H 	0.67386 0.53904 0.24938 0.02300
H 	H 	0.70332 0.56766 0.34391 0.04800
C 	C 	0.74194 0.53095 0.28954 -0.15600
H 	H 	0.72251 0.50030 0.30088 0.05800
H 	H 	0.73375 0.50642 0.25095 0.05200
H 	H 	0.78707 0.55832 0.32036 0.05900
C 	C 	0.82267 0.64123 0.89327 -0.09200
C 	C 	0.76609 0.63195 0.87176 -0.02600
H 	H 	0.75777 0.63317 0.90240 0.02900
H 	H 	0.82300 0.60556 0.90040 0.04700
C 	C 	0.72046 0.57463 0.82103 -0.15600
H 	H 	0.72696 0.57250 0.78914 0.05100
H 	H 	0.68025 0.56945 0.80655 0.05000
H 	H 	0.71937 0.53913 0.82937 0.05400
H 	H 	0.83051 0.64005 0.86226 0.04000
C 	C 	0.85768 0.65396 0.00133 0.00200
C 	C 	0.88191 0.62267 0.00453 -0.04200
C 	C 	0.86293 0.57608 0.01295 -0.04600
H 	H 	0.88019 0.54675 0.10060 0.03000
H 	H 	0.91523 0.63431 0.00018 0.03400
H 	H 	0.88134 0.55162 0.01455 0.03600
C 	C 	0.79422 0.54510 0.42035 -0.04300
H 	H 	0.81901 0.54475 0.40602 0.03300
H 	H 	0.73492 0.97506 0.53547 0.02000
C 	C 	0.40554 0.77876 0.00932 -0.07500
C 	C 	0.40306 0.76573 0.96216 0.08100
C 	C 	0.38235 0.78718 0.92884 -0.07200
N 	N 	0.41916 0.72857 0.94622 -0.14500
C 	C 	0.39691 0.67561 0.94733 0.08000
C 	C 	0.42411 0.67201 0.99394 -0.07200
C 	C 	0.47479 0.75506 0.96185 0.08000
C 	C 	0.48442 0.73469 0.92470 -0.07300
C 	C 	0.53722 0.76216 0.93722 -0.02500
H 	H 	0.42351 0.76470 0.03672 0.04600
H 	H 	0.38118 0.77821 0.89300 0.04700
H 	H 	0.46245 0.70921 0.02981 0.04300
H 	H 	0.45057 0.69819 0.88558 0.04700
H 	H 	0.54390 0.74670 0.90769 0.03100
H 	H 	0.25690 0.79731 0.91603 0.03800
C 	C 	0.31836 0.72579 0.43787 -0.07300
C 	C 	0.31606 0.71002 0.39088 0.07900
C 	C 	0.29600 0.73001 0.35568 -0.07100
N 	N 	0.33394 0.67345 0.37829 -0.14300
C 	C 	0.31223 0.62246 0.38279 0.07800
C 	C 	0.34274 0.62024 0.42937 -0.07300
C 	C 	0.45547 0.71049 0.37446 -0.02600
C 	C 	0.40316 0.67937 0.36261 -0.07100
C 	C 	0.39055 0.70157 0.39615 0.07700
H 	H 	0.33518 0.71207 0.46623 0.04600
H 	H 	0.29466 0.71858 0.31978 0.04800
H 	H 	0.38381 0.65645 0.46215 0.04500
H 	H 	0.46437 0.69306 0.34777 0.03200
H 	H 	0.37171 0.63879 0.32631 0.04700
H 	H 	0.17444 0.75003 0.34482 0.03800
H 	H 	0.51439 0.79397 0.35147 0.03600
H 	H 	0.85173 0.78394 0.55545 0.05200
H 	H 	0.77910 0.73746 0.50261 0.05300
C 	C 	0.74991 0.77063 0.95558 -0.02700
H 	H 	0.75805 0.78610 0.99568 0.02700
H 	H 	0.78826 0.77738 0.96067 0.03100
H 	H 	0.72278 0.78712 0.88828 0.04100
C 	C 	0.70578 0.70677 0.92222 -0.15500
H 	H 	0.66714 0.69841 0.91726 0.05300
H 	H 	0.72002 0.68420 0.94278 0.05000
H 	H 	0.69765 0.68966 0.88220 0.05200
H 	H 	0.69317 0.79616 0.92271 0.04800
C 	C 	0.78304 0.64569 0.37981 0.00200
H 	H 	0.69988 0.61889 0.32397 0.04000
H 	H 	0.76537 0.66658 0.86263 0.02600
H 	H 	0.82830 0.74724 0.48730 0.06600
C 	C 	0.81381 0.63803 0.42230 0.00200
C 	C 	0.80830 0.69675 0.37904 -0.01100
H 	H 	0.78400 0.70320 0.34738 0.03300
C 	C 	0.91259 0.75869 0.03843 -0.08800
C 	C 	0.87902 0.70422 0.99418 0.00700
C 	C 	0.86721 0.69811 0.94389 -0.00200
C 	C 	0.89307 0.74665 0.93996 -0.00500
H 	H 	0.88520 0.74203 0.90175 0.02700
C 	C 	0.86383 0.74030 0.41971 -0.11200
C 	C 	0.89578 0.73038 0.45999 0.06800
C 	C 	0.87018 0.67898 0.46031 -0.08600
H 	H 	0.89382 0.67214 0.49204 0.04500
H 	H 	0.97786 0.75348 0.51494 0.04000
H 	H 	0.91969 0.76317 0.07637 0.04400
C 	C 	0.81973 0.76873 0.51311 -0.16200
C 	C 	0.36110 0.82888 0.98602 -0.00700
C 	C 	0.38396 0.80952 0.02074 -0.02600
C 	C 	0.36193 0.81900 0.94088 -0.02500
C 	C 	0.58106 0.81049 0.98711 -0.00800
C 	C 	0.57218 0.82969 0.02537 -0.02700
C 	C 	0.51926 0.80198 0.01296 -0.07600
C 	C 	0.27907 0.83494 0.95377 -0.04800
C 	C 	0.63516 0.84308 0.99751 0.01000
C 	C 	0.67863 0.84030 0.03173 -0.04800
H 	H 	0.38404 0.81731 0.05596 0.03200
H 	H 	0.34560 0.83491 0.91448 0.03100
H 	H 	0.51290 0.81701 0.04281 0.04500
H 	H 	0.21226 0.84644 0.92847 0.03500
H 	H 	0.67427 0.81860 0.05459 0.03300
C 	C 	0.27794 0.77858 0.41239 -0.00800
C 	C 	0.29901 0.75955 0.44829 -0.02500
C 	C 	0.27735 0.76440 0.36648 -0.02500
C 	C 	0.49576 0.76460 0.41985 -0.00800
C 	C 	0.43229 0.75389 0.44392 -0.07300
C 	C 	0.48429 0.78559 0.45516 -0.02600
C 	C 	0.19873 0.78928 0.38187 -0.04400
C 	C 	0.54952 0.79961 0.42974 0.00900
C 	C 	0.55177 0.80904 0.38902 -0.04400
H 	H 	0.29969 0.77025 0.48385 0.03200
H 	H 	0.26176 0.77942 0.33882 0.03200
H 	H 	0.42440 0.77034 0.47189 0.04600
H 	H 	0.13254 0.80148 0.36023 0.03800
H 	H 	0.60288 0.83997 0.36307 0.03500
C 	C 	0.73213 0.80391 0.92893 -0.09300
H 	H 	0.85872 0.81057 0.06532 0.05300
C 	C 	0.88619 0.79637 0.42077 0.31900
C 	C 	0.95588 0.77516 0.50526 -0.10700
C 	C 	0.96184 0.80834 0.55563 -0.03300
H 	H 	0.94591 0.77855 0.56945 0.02400
H 	H 	0.97667 0.80412 0.49351 0.04600
C 	C 	0.92754 0.80123 0.98448 -0.11000
C 	C 	0.93503 0.80750 0.03358 0.07700
C 	C 	0.17493 0.81827 0.39067 -0.04100
C 	C 	0.25349 0.81040 0.42116 0.00900
H 	H 	0.11547 0.86592 0.00682 0.04900
C 	C 	0.25361 0.86248 0.96095 -0.03400
C 	C 	0.33324 0.85627 0.99495 0.01300
C 	C 	0.73167 0.88874 0.00290 0.00200
C 	C 	0.64150 0.87183 0.96856 -0.04600
C 	C 	0.72697 0.86344 0.03469 -0.04000
H 	H 	0.60599 0.86662 0.06426 0.03000
H 	H 	0.60835 0.87471 0.94250 0.03600
H 	H 	0.75996 0.86011 0.06029 0.03200
C 	C 	0.59851 0.82103 0.47879 -0.04500
C 	C 	0.60200 0.83582 0.39584 -0.04200
H 	H 	0.51532 0.82681 0.49083 0.03000
H 	H 	0.69272 0.79167 0.44297 0.04800
H 	H 	0.14571 0.84307 0.47745 0.04800
H 	H 	0.05997 0.82129 0.46814 0.04800
C 	C 	0.77736 0.86699 0.96158 -0.00100
C 	C 	0.81980 0.88650 0.95516 -0.00600
H 	H 	0.81914 0.85645 0.92651 0.03100
H 	H 	0.20765 0.88448 0.03198 0.05100
H 	H 	0.12756 0.91953 0.08828 0.03400
C 	C 	0.02148 0.85586 0.60127 -0.14300
H 	H 	0.04767 0.83859 0.61032 0.05300
C 	C 	0.82016 0.81922 0.50598 -0.01600
H 	H 	0.80870 0.83751 0.53069 0.03500
H 	H 	0.74403 0.75741 0.42577 0.04900
C 	C 	0.88250 0.85790 0.08562 -0.15800
H 	H 	0.90918 0.87498 0.12958 0.05300
H 	H 	0.85331 0.87143 0.07659 0.06000
H 	H 	0.88945 0.86498 0.02227 0.03500
C 	C 	0.95282 0.85132 0.97833 0.30700
O 	O 	0.00654 0.88808 0.01090 -0.45100
O 	O 	0.92249 0.85351 0.93542 -0.46700
O 	O 	0.92322 0.84370 0.46723 -0.46200
O 	O 	0.86138 0.79838 0.37605 -0.47100
H 	H 	0.86250 0.85243 0.52151 0.04600
H 	H 	0.93738 0.82750 0.54655 0.04700
C 	C 	0.95947 0.86502 0.07798 -0.12600
C 	C 	0.91707 0.88104 0.06586 -0.01500
H 	H 	0.97563 0.86510 0.11704 0.05300
H 	H 	0.59741 0.81434 0.51063 0.03400
C 	C 	0.78058 0.80161 0.44695 -0.11900
C 	C 	0.28188 0.91145 0.00941 -0.00600
C 	C 	0.36082 0.90406 0.04426 -0.05000
C 	C 	0.68956 0.89454 0.97123 -0.04000
H 	H 	0.40251 0.92074 0.07645 0.03600
H 	H 	0.69333 0.91487 0.94725 0.03300
C 	C 	0.20550 0.86847 0.43886 0.00600
C 	C 	0.28431 0.86103 0.46926 -0.04500
C 	C 	0.26019 0.88966 0.47828 -0.04400
C 	C 	0.65067 0.85483 0.44394 0.00500
C 	C 	0.64887 0.84891 0.48597 -0.04300
H 	H 	0.32673 0.87794 0.49969 0.03400
C 	C 	0.71611 0.83081 0.44367 -0.08500
C 	C 	0.70097 0.87011 0.44638 0.00600
C 	C 	0.10897 0.89103 0.46221 0.07500
C 	C 	0.14541 0.87491 0.46506 -0.08400
C 	C 	0.07343 0.86659 0.48027 -0.11500
C 	C 	0.10523 0.89921 0.54132 -0.02900
H 	H 	0.08274 0.87271 0.55356 0.02400
H 	H 	0.17131 0.89381 0.34166 0.03000
H 	H 	0.03491 0.86545 0.46035 0.03800
C 	C 	0.77892 0.90587 0.99992 0.00600
C 	C 	0.17689 0.93584 0.01127 0.08100
C 	C 	0.21348 0.91837 0.02145 -0.09600
C 	C 	0.13427 0.91259 0.02227 -0.11300
C 	C 	0.15979 0.94068 0.08242 -0.04600
H 	H 	0.19292 0.93417 0.10409 0.03400
H 	H 	0.09978 0.91735 0.00087 0.02500
H 	H 	0.02420 0.87587 0.63773 0.05900
H 	H 	0.03695 0.88924 0.59063 0.06400
C 	C 	0.76145 0.84167 0.44252 0.08200
Zn	Zn	0.94370 0.92096 0.92183 1.17100
Zn	Zn	0.87137 0.86992 0.37316 1.17600
H 	H 	0.80065 0.80002 0.42635 0.06200
H 	H 	0.99580 0.89857 0.08381 0.06600
O 	O 	0.81689 0.87111 0.38350 -0.49000
C 	C 	0.17905 0.89699 0.44896 0.00200
H 	H 	0.14653 0.90605 0.56148 0.02800
C 	C 	0.33480 0.93092 0.05175 -0.03800
H 	H 	0.68622 0.86340 0.52325 0.03500
O 	O 	0.10008 0.94915 0.91337 -0.50900
O 	O 	0.01699 0.89730 0.37274 -0.49600
C 	C 	0.25573 0.94223 0.01532 0.02200
H 	H 	0.27603 0.94715 0.92866 0.04400
H 	H 	0.72732 0.88631 0.24400 0.01400
H 	H 	0.75028 0.94764 0.84982 0.05500
H 	H 	0.81733 0.93588 0.84300 0.02000
O 	O 	0.89642 0.93982 0.93178 -0.49300
C 	C 	0.79119 0.89223 0.44232 -0.11100
C 	C 	0.86431 0.94371 0.98691 -0.11400
O 	O 	0.01558 0.95189 0.94950 -0.79500
C 	C 	0.83298 0.90068 0.43223 0.32400
O 	O 	0.94426 0.90961 0.40612 -0.81000
H 	H 	0.93860 0.92806 0.08542 0.03700
C 	C 	0.05991 0.00630 0.68200 -0.02800
H 	H 	0.32693 0.04064 0.81931 0.05600
H 	H 	0.73904 0.99843 0.44637 0.04400
C 	C 	0.11144 0.95665 0.56056 -0.13700
H 	H 	0.07073 0.95091 0.53941 0.00700
H 	H 	0.15055 0.01177 0.08522 0.00600
H 	H 	0.35635 0.96781 0.08981 0.03100
H 	H 	0.28401 0.92836 0.51567 0.03100
O 	O 	0.07573 0.00255 0.82485 -0.47900
Zn	Zn	0.04415 0.96812 0.02671 1.18900
Zn	Zn	0.06144 0.97473 0.87164 1.17700
C 	C 	0.13585 0.98198 0.96531 0.31700
Zn	Zn	0.98513 0.92582 0.32937 1.17800
C 	C 	0.05883 0.93397 0.42269 0.31600
C 	C 	0.73276 0.92237 0.44963 0.00700
C 	C 	0.77739 0.93265 0.44702 -0.00900
H 	H 	0.67789 0.95143 0.43773 0.04900
C 	C 	0.10750 0.93112 0.44432 -0.11700
C 	C 	0.18127 0.94103 0.43603 0.00800
C 	C 	0.18623 0.93971 0.35867 -0.01300
H 	H 	0.15007 0.94303 0.34140 0.02800
H 	H 	0.19867 0.94711 0.29803 0.06500
C 	C 	0.82299 0.96318 0.03132 -0.08100
C 	C 	0.18233 0.97700 0.99367 -0.14200
C 	C 	0.26592 0.98939 0.00565 -0.04100
C 	C 	0.18293 0.00447 0.10680 -0.12800
H 	H 	0.19805 0.02188 0.14940 0.05800
H 	H 	0.73952 0.92724 0.32788 0.05200
H 	H 	0.75771 0.97381 0.80558 0.05100
C 	C 	0.86571 0.98282 0.02505 0.06100
H 	H 	0.80114 0.93347 0.34234 0.04800
C 	C 	0.83040 0.98047 0.86523 -0.02700
C 	C 	0.90923 0.96101 0.98033 0.32100
O 	O 	0.95891 0.98071 0.02105 -0.48500
Zn	Zn	0.96696 0.92334 0.48191 1.18300
O 	O 	0.88420 0.92492 0.47279 -0.49000
C 	C 	0.07601 0.01820 0.73411 0.06800
C 	C 	0.75434 0.93357 0.26844 -0.01100
C 	C 	0.80098 0.95483 0.26179 -0.16900
H 	H 	0.78345 0.93906 0.21862 0.04800
I 	I 	0.91770 0.00851 0.17965 -0.15300
H 	H 	0.89638 0.00583 0.85505 0.03900
H 	H 	0.82697 0.93862 0.27800 0.02800
H 	H 	0.72915 0.95071 0.25253 0.02100
O 	O 	0.03322 0.01339 0.89266 -0.86500
O 	O 	0.96438 0.97360 0.35162 -0.88600
H 	H 	0.13034 0.97617 0.60414 0.04300
O 	O 	0.06835 0.99536 0.10509 -0.44000
O 	O 	0.01305 0.95575 0.29058 -0.47800
O 	O 	0.99791 0.95179 0.56179 -0.44400
I 	I 	0.15721 0.04361 0.79153 -0.14700
C 	C 	0.72258 0.96933 0.46053 -0.11000
C 	C 	0.14607 0.95833 0.43483 -0.01600
C 	C 	0.21805 0.96727 0.41974 -0.11400
H 	H 	0.25391 0.96364 0.43676 0.04800
C 	C 	0.22234 0.96888 0.34232 -0.17800
H 	H 	0.25912 0.96665 0.35920 0.05700
H 	H 	0.82311 0.99312 0.05947 0.04800
C 	C 	0.22858 0.00590 0.99424 0.03600
C 	C 	0.29998 0.99446 0.94796 -0.07900
H 	H 	0.27417 0.00684 0.92315 0.04800
H 	H 	0.21793 0.02784 0.10514 0.05500
H 	H 	0.33949 0.99918 0.90730 0.03300
H 	H 	0.37508 0.99833 0.96921 0.03800
C 	C 	0.77896 0.98160 0.84750 -0.17200
H 	H 	0.80127 0.97210 0.44843 0.02900
C 	C 	0.77527 0.94980 0.32687 -0.14000
H 	H 	0.85273 0.99322 0.90832 0.03900
H 	H 	0.99291 0.99280 0.86684 0.12300
H 	H 	0.92494 0.95749 0.32574 0.15000
H 	H 	0.84387 0.01215 0.81352 0.04400
C 	C 	0.35140 0.01497 0.94890 -0.09900
H 	H 	0.13836 0.98617 0.55350 0.04700
O 	O 	0.13500 0.02462 0.99038 -0.46100
O 	O 	0.06248 0.98025 0.44804 -0.44200
H 	H 	0.08772 0.00720 0.67142 0.04600
C 	C 	0.31478 0.02048 0.00464 -0.05100
H 	H 	0.35002 0.02036 0.03322 0.04300
