data_crystal

_cell_length_a 17.94087
_cell_length_b 18.72144
_cell_length_c 48.83313
_cell_angle_alpha 88.45542
_cell_angle_beta  88.52253
_cell_angle_gamma 108.10132

_symmetry_space_group_name_	'P 1'
_symmetry_space_group_name_H-M	'P 1'

loop_
_symmetry_equiv_pos_as_xyz
  x,y,z

loop_
_atom_site_label
_atom_site_type_symbol
_atom_site_fract_x
_atom_site_fract_y
_atom_site_fract_z
_atom_site_charge
Zn	Zn	0.68314 0.36946 0.89551 1.22700
Zn	Zn	0.52619 0.38143 0.86468 1.19600
C 	C 	0.69882 0.16876 0.83517 0.28700
Zn	Zn	0.59062 0.24741 0.85714 1.22400
H 	H 	0.65717 0.38343 0.84132 0.18600
C 	C 	0.47909 0.23298 0.90295 0.29500
O 	O 	0.62549 0.35751 0.85763 -0.79200
O 	O 	0.56157 0.46645 0.89056 -0.45800
O 	O 	0.61450 0.40106 0.92032 -0.44600
O 	O 	0.43846 0.31086 0.84538 -0.45500
H 	H 	0.65348 0.23357 0.90519 0.17500
O 	O 	0.51117 0.24439 0.82521 -0.40600
O 	O 	0.67128 0.26596 0.88841 -0.80500
O 	O 	0.50195 0.19770 0.88296 -0.44200
O 	O 	0.62794 0.17640 0.83534 -0.42400
O 	O 	0.48934 0.30582 0.90075 -0.40600
C 	C 	0.59227 0.46001 0.91441 0.31700
C 	C 	0.44417 0.25831 0.82883 0.31000
Zn	Zn	0.50999 0.19751 0.64334 1.22300
Zn	Zn	0.51880 0.37087 0.65535 1.19700
C 	C 	0.73412 0.21761 0.70087 0.29200
Zn	Zn	0.65245 0.30938 0.67186 1.22200
Zn	Zn	0.60967 0.11690 0.67111 1.19700
H 	H 	0.51526 0.26926 0.69229 0.18400
C 	C 	0.66705 0.38101 0.61769 0.30300
O 	O 	0.54028 0.03350 0.65033 -0.45800
O 	O 	0.50212 0.10542 0.61802 -0.39600
O 	O 	0.53701 0.28207 0.67335 -0.78800
O 	O 	0.42470 0.32283 0.63356 -0.46300
O 	O 	0.42495 0.13076 0.66680 -0.43400
O 	O 	0.47404 0.24137 0.61096 -0.43100
O 	O 	0.51000 0.11481 0.69838 -0.41000
O 	O 	0.60169 0.46317 0.66536 -0.46200
H 	H 	0.64904 0.21348 0.63159 0.18000
O 	O 	0.66739 0.40872 0.69460 -0.40000
O 	O 	0.62007 0.21044 0.64932 -0.79200
O 	O 	0.67127 0.15848 0.70332 -0.45000
O 	O 	0.70486 0.37154 0.63953 -0.43900
O 	O 	0.72780 0.28560 0.69733 -0.41800
O 	O 	0.59069 0.36843 0.61888 -0.41700
C 	C 	0.51420 0.04211 0.62582 0.31600
C 	C 	0.42848 0.28455 0.61168 0.32100
C 	C 	0.43790 0.10530 0.69085 0.30300
C 	C 	0.64677 0.46732 0.68643 0.30300
Zn	Zn	0.01389 0.97783 0.76116 1.21700
Zn	Zn	0.05542 0.88925 0.80872 1.19600
O 	O 	0.11765 0.98771 0.82049 -0.47100
O 	O 	0.10409 0.06056 0.78318 -0.38800
O 	O 	0.09545 0.95748 0.73959 -0.46800
O 	O 	0.14457 0.90451 0.77441 -0.40100
O 	O 	0.96991 0.92104 0.79400 -0.80600
O 	O 	0.02559 0.77845 0.80155 -0.47300
C 	C 	0.14643 0.04654 0.80352 0.31200
C 	C 	0.15501 0.94549 0.75137 0.31800
Zn	Zn	0.20133 0.66011 0.38391 1.22400
Zn	Zn	0.37237 0.66574 0.35752 1.19600
C 	C 	0.22173 0.90454 0.33663 0.30500
Zn	Zn	0.31490 0.80597 0.35605 1.22300
Zn	Zn	0.12045 0.77281 0.36896 1.19100
H 	H 	0.26045 0.68628 0.33055 0.18700
C 	C 	0.39610 0.78338 0.40440 0.29900
O 	O 	0.03545 0.69527 0.39047 -0.46500
O 	O 	0.11327 0.64208 0.41526 -0.39900
O 	O 	0.27959 0.69775 0.34925 -0.79000
O 	O 	0.32171 0.56498 0.37637 -0.46300
O 	O 	0.12304 0.59464 0.36124 -0.44800
O 	O 	0.25131 0.60551 0.40872 -0.43500
O 	O 	0.11060 0.69390 0.33615 -0.42400
O 	O 	0.46957 0.74673 0.34575 -0.45700
H 	H 	0.22800 0.78812 0.40270 0.17100
O 	O 	0.40908 0.82596 0.32662 -0.41000
O 	O 	0.21964 0.76812 0.38409 -0.80200
O 	O 	0.15715 0.84678 0.33764 -0.46300
O 	O 	0.38974 0.83324 0.38581 -0.44200
O 	O 	0.29143 0.89455 0.33855 -0.42600
O 	O 	0.38623 0.71317 0.39810 -0.40800
C 	C 	0.04629 0.65590 0.41205 0.28100
C 	C 	0.28642 0.55698 0.40078 0.31900
C 	C 	0.09584 0.62129 0.34007 0.32200
C 	C 	0.47287 0.80754 0.33100 0.31100
Zn	Zn	0.33787 0.88142 0.18387 1.22000
Zn	Zn	0.17363 0.72883 0.17507 1.19200
C 	C 	0.47845 0.76981 0.11618 0.31900
Zn	Zn	0.33004 0.74489 0.14676 1.22300
Zn	Zn	0.49511 0.87064 0.16224 1.20200
H 	H 	0.24910 0.83035 0.14051 0.16800
C 	C 	0.27675 0.62884 0.18871 0.30700
O 	O 	0.52073 0.97262 0.17628 -0.45200
O 	O 	0.42531 0.95061 0.20972 -0.39200
O 	O 	0.26429 0.80672 0.15694 -0.79000
O 	O 	0.15786 0.77635 0.20972 -0.45400
O 	O 	0.36269 0.96289 0.15480 -0.43700
O 	O 	0.26127 0.88358 0.21346 -0.43100
O 	O 	0.43866 0.91005 0.12883 -0.41500
O 	O 	0.14683 0.64170 0.15059 -0.46300
H 	H 	0.39713 0.77931 0.19650 0.18600
O 	O 	0.24661 0.68628 0.11818 -0.39500
O 	O 	0.39406 0.80690 0.17921 -0.78500
O 	O 	0.52138 0.79944 0.13689 -0.45700
O 	O 	0.31849 0.64816 0.16577 -0.43900
O 	O 	0.40498 0.76886 0.11510 -0.43700
O 	O 	0.24312 0.67535 0.19928 -0.42100
C 	C 	0.49828 0.98369 0.20108 0.28800
C 	C 	0.18503 0.84939 0.21259 0.29100
C 	C 	0.39507 0.95495 0.13094 0.29900
C 	C 	0.17450 0.64433 0.12516 0.29000
Zn	Zn	0.07386 0.19548 0.22973 1.20100
C 	C 	0.13054 0.14173 0.28602 0.28800
O 	O 	0.17205 0.27648 0.23592 -0.45700
O 	O 	0.12843 0.34480 0.26670 -0.40100
O 	O 	0.12516 0.20392 0.29671 -0.43400
O 	O 	0.10552 0.12337 0.26116 -0.40800
C 	C 	0.77867 0.02457 0.31152 0.30800
C 	C 	0.76631 0.13901 0.26110 0.31800
C 	C 	0.16958 0.34162 0.24438 0.30400
C 	C 	0.25051 0.54945 0.19849 -0.07700
C 	C 	0.30440 0.51045 0.20493 0.01800
C 	C 	0.27759 0.44204 0.22024 -0.01300
H 	H 	0.31898 0.41431 0.22709 0.03800
C 	C 	0.19716 0.40825 0.22581 -0.09400
C 	C 	0.14303 0.43965 0.21399 0.02800
C 	C 	0.16989 0.51255 0.20233 -0.01600
H 	H 	0.12805 0.53931 0.19512 0.03400
C 	C 	0.38571 0.53550 0.19324 0.01500
C 	C 	0.39939 0.53669 0.16473 -0.04100
C 	C 	0.47620 0.55786 0.15375 -0.02300
C 	C 	0.53946 0.57447 0.17116 -0.03900
C 	C 	0.52601 0.56971 0.19958 -0.02300
C 	C 	0.44928 0.54916 0.21062 -0.05200
H 	H 	0.48664 0.56060 0.13176 0.03400
H 	H 	0.59889 0.59051 0.16264 0.03300
H 	H 	0.57501 0.58128 0.21305 0.03100
H 	H 	0.43898 0.54094 0.23256 0.03700
H 	H 	0.35058 0.52133 0.15113 0.05200
C 	C 	0.68897 0.09522 0.25115 -0.09400
C 	C 	0.63042 0.12900 0.24542 0.03000
C 	C 	0.56454 0.08928 0.23080 -0.02700
H 	H 	0.52002 0.11535 0.22604 0.04700
C 	C 	0.55861 0.01806 0.22086 -0.05500
C 	C 	0.61614 0.98375 0.22741 -0.01100
C 	C 	0.67809 0.02094 0.24379 0.01600
H 	H 	0.72192 0.99425 0.24879 0.03200
C 	C 	0.61742 0.91320 0.21459 0.00700
C 	C 	0.55578 0.84610 0.21983 -0.09500
C 	C 	0.55771 0.77987 0.20766 -0.05200
C 	C 	0.62112 0.78026 0.19036 -0.05200
C 	C 	0.68246 0.84691 0.18501 -0.03200
C 	C 	0.68074 0.91330 0.19703 -0.07000
C 	C 	0.63876 0.20653 0.25356 0.01300
C 	C 	0.69332 0.26801 0.23960 -0.04200
C 	C 	0.59491 0.29264 0.28122 -0.02200
C 	C 	0.58904 0.21923 0.27425 -0.04500
H 	H 	0.55672 0.30224 0.29725 0.03000
H 	H 	0.54554 0.17243 0.28473 0.03900
H 	H 	0.73080 0.25891 0.22322 0.04300
H 	H 	0.50561 0.84570 0.23266 0.03500
H 	H 	0.50948 0.72852 0.21131 0.02700
H 	H 	0.72834 0.96485 0.19264 0.04700
H 	H 	0.73125 0.84718 0.17146 0.03200
H 	H 	0.62234 0.72918 0.18084 0.04000
C 	C 	0.13048 0.89415 0.21458 -0.09300
C 	C 	0.05887 0.86887 0.23023 0.02200
C 	C 	0.01068 0.91509 0.23207 -0.02600
C 	C 	0.03342 0.98689 0.21921 -0.12300
C 	C 	0.10301 0.00988 0.20216 0.04900
C 	C 	0.15075 0.96366 0.20033 -0.04100
H 	H 	0.20409 0.98188 0.18752 0.03100
C 	C 	0.12646 0.08135 0.18576 -0.00100
C 	C 	0.20992 0.21057 0.17867 -0.03800
C 	C 	0.18717 0.14323 0.19437 -0.08600
C 	C 	0.03366 0.79525 0.24525 0.00300
C 	C 	0.95274 0.66216 0.27496 -0.04000
C 	C 	0.99228 0.72666 0.28881 0.00600
C 	C 	0.03411 0.79262 0.27403 -0.06600
H 	H 	0.92031 0.61120 0.28640 0.04200
H 	H 	0.99002 0.72569 0.31098 0.03200
H 	H 	0.06373 0.84266 0.28491 0.05300
H 	H 	0.21606 0.13931 0.21331 0.04600
H 	H 	0.25611 0.25854 0.18549 0.03900
C 	C 	0.54962 0.86303 0.32438 -0.08400
C 	C 	0.60917 0.84353 0.30983 0.02400
C 	C 	0.68385 0.89673 0.30585 -0.02100
H 	H 	0.72884 0.88249 0.29399 0.04700
C 	C 	0.70082 0.96780 0.31733 -0.08200
C 	C 	0.64102 0.98571 0.33265 0.00900
C 	C 	0.56567 0.93437 0.33501 -0.01300
H 	H 	0.52003 0.94878 0.34648 0.04200
C 	C 	0.65709 0.05532 0.34797 0.03200
C 	C 	0.67597 0.05482 0.37568 -0.05400
C 	C 	0.67875 0.11657 0.39152 -0.02300
C 	C 	0.66188 0.17853 0.37987 -0.04700
C 	C 	0.64503 0.18003 0.35209 -0.02200
C 	C 	0.64307 0.11874 0.33612 -0.06600
C 	C 	0.59391 0.76787 0.29860 0.01300
C 	C 	0.53318 0.74083 0.28036 -0.05000
C 	C 	0.51856 0.66932 0.26994 -0.02900
C 	C 	0.56484 0.62460 0.27737 -0.04200
C 	C 	0.62564 0.65126 0.29545 -0.02500
C 	C 	0.64013 0.72266 0.30614 -0.04800
H 	H 	0.47126 0.64869 0.25617 0.02600
H 	H 	0.55341 0.56919 0.26920 0.03200
H 	H 	0.66135 0.61653 0.30124 0.03000
H 	H 	0.68687 0.74269 0.32035 0.04200
H 	H 	0.49639 0.77461 0.27471 0.03700
H 	H 	0.68658 0.00591 0.38504 0.04900
H 	H 	0.69223 0.11570 0.41298 0.03100
H 	H 	0.62932 0.11988 0.31472 0.05400
H 	H 	0.63174 0.22788 0.34308 0.03300
H 	H 	0.66054 0.22470 0.39249 0.03600
C 	C 	0.04381 0.56911 0.32203 -0.11700
C 	C 	0.07531 0.54055 0.29966 0.04300
C 	C 	0.03539 0.46858 0.29089 -0.05200
H 	H 	0.06120 0.44478 0.27466 0.05000
C 	C 	0.15301 0.58255 0.28700 0.00100
C 	C 	0.16480 0.65296 0.27389 -0.04300
C 	C 	0.23799 0.69248 0.26190 -0.02300
C 	C 	0.29945 0.66148 0.26245 -0.03700
C 	C 	0.28785 0.59084 0.27515 -0.03500
C 	C 	0.21492 0.55145 0.28752 -0.05100
C 	C 	0.70794 0.37391 0.36580 -0.04300
C 	C 	0.71261 0.39509 0.33799 -0.02100
H 	H 	0.65208 0.35894 0.37701 0.03400
H 	H 	0.66052 0.39729 0.32780 0.02900
H 	H 	0.11730 0.67673 0.27282 0.05300
H 	H 	0.24642 0.74631 0.25157 0.04500
H 	H 	0.20644 0.49690 0.29744 0.04800
H 	H 	0.33519 0.56645 0.27529 0.02500
H 	H 	0.35564 0.69173 0.25268 0.02700
C 	C 	0.21633 0.97829 0.32698 -0.12100
C 	C 	0.25026 0.01122 0.30145 0.06300
C 	C 	0.22398 0.06688 0.28868 -0.03600
H 	H 	0.24783 0.08993 0.26855 0.05100
C 	C 	0.16642 0.09225 0.30171 -0.06000
C 	C 	0.13908 0.06468 0.32873 -0.00200
C 	C 	0.16480 0.00838 0.34105 0.01700
H 	H 	0.14121 0.98504 0.36119 -0.00200
C 	C 	0.31754 0.99227 0.28925 -0.00700
C 	C 	0.30503 0.92535 0.27518 -0.02700
C 	C 	0.36829 0.89931 0.26874 -0.00700
C 	C 	0.44392 0.94004 0.27610 -0.03100
C 	C 	0.45695 0.00774 0.28931 -0.00800
C 	C 	0.39414 0.03431 0.29571 -0.02400
H 	H 	0.35877 0.84739 0.25821 0.02800
H 	H 	0.49238 0.91872 0.27185 0.04400
H 	H 	0.51549 0.03882 0.29507 0.03600
H 	H 	0.40442 0.08570 0.30676 0.03900
H 	H 	0.24602 0.89175 0.27054 0.05300
H 	H 	0.16042 0.20053 0.35119 0.05200
C 	C 	0.34813 0.89831 0.55620 -0.04100
C 	C 	0.42018 0.92136 0.56900 0.00200
C 	C 	0.48767 0.91216 0.55597 0.01100
C 	C 	0.48473 0.89163 0.52815 -0.00200
C 	C 	0.34284 0.86814 0.53026 -0.03800
C 	C 	0.41058 0.86289 0.51614 -0.00100
C 	C 	0.42663 0.95703 0.59410 -0.00500
C 	C 	0.49918 0.98098 0.60662 -0.09600
C 	C 	0.55634 0.92434 0.57103 -0.06100
C 	C 	0.55357 0.90922 0.51121 -0.03700
C 	C 	0.47638 0.85979 0.47192 0.00500
C 	C 	0.40725 0.83850 0.48883 0.00800
C 	C 	0.33724 0.79122 0.47837 -0.05700
C 	C 	0.33400 0.77405 0.45073 0.00600
C 	C 	0.40050 0.80250 0.43328 -0.08400
C 	C 	0.47206 0.84413 0.44392 -0.01100
C 	C 	0.56191 0.95895 0.59624 0.01000
H 	H 	0.61627 0.97203 0.60700 0.01400
H 	H 	0.60467 0.90636 0.56354 0.04100
H 	H 	0.37676 0.97044 0.60301 0.03600
H 	H 	0.29609 0.90485 0.56618 0.03500
H 	H 	0.28711 0.85452 0.52040 0.03300
H 	H 	0.61021 0.93868 0.51912 0.03500
H 	H 	0.28657 0.76484 0.49176 0.04100
H 	H 	0.27991 0.73760 0.44293 0.01800
H 	H 	0.52435 0.86294 0.43061 0.03600
C 	C 	0.54894 0.89517 0.48327 -0.04200
H 	H 	0.60218 0.91152 0.47044 0.03600
C 	C 	0.94950 0.67372 0.44621 -0.00100
C 	C 	0.98233 0.62528 0.43250 -0.06000
C 	C 	0.70129 0.35183 0.57078 0.00700
H 	H 	0.66467 0.29409 0.57450 0.02400
H 	H 	0.87540 0.68577 0.47970 0.04000
H 	H 	0.96231 0.73162 0.43894 0.02400
C 	C 	0.45858 0.34900 0.51327 -0.04100
C 	C 	0.41040 0.33306 0.53708 0.00600
C 	C 	0.33785 0.34825 0.53754 0.00800
C 	C 	0.31063 0.37193 0.51272 -0.00000
C 	C 	0.43676 0.38144 0.49008 -0.03600
C 	C 	0.36138 0.39005 0.48889 -0.00000
C 	C 	0.43697 0.30753 0.56109 -0.00900
C 	C 	0.39501 0.30220 0.58608 -0.08400
C 	C 	0.29742 0.34507 0.56307 -0.05700
C 	C 	0.23417 0.37761 0.51117 -0.03700
C 	C 	0.26591 0.43888 0.46616 0.00600
C 	C 	0.33654 0.42031 0.46488 0.00900
C 	C 	0.37983 0.43185 0.43964 -0.05700
C 	C 	0.36164 0.47399 0.41824 0.01000
C 	C 	0.29752 0.50143 0.42106 -0.08200
C 	C 	0.24734 0.48025 0.44442 -0.01100
C 	C 	0.32527 0.32095 0.58694 0.00700
H 	H 	0.29364 0.31896 0.60630 0.03000
H 	H 	0.24764 0.36564 0.56497 0.04000
H 	H 	0.49247 0.29565 0.56059 0.04800
H 	H 	0.51567 0.34049 0.51325 0.04000
H 	H 	0.48015 0.40257 0.47367 0.03700
H 	H 	0.18942 0.35155 0.52676 0.03500
H 	H 	0.42483 0.40575 0.43595 0.04100
H 	H 	0.39802 0.48588 0.39959 0.02800
H 	H 	0.19480 0.49719 0.44591 0.04300
C 	C 	0.21402 0.41478 0.48884 -0.04200
H 	H 	0.15687 0.42316 0.48891 0.03600
C 	C 	0.82168 0.18421 0.65362 -0.00800
C 	C 	0.83990 0.25583 0.64071 -0.05400
C 	C 	0.82042 0.26319 0.61347 -0.02800
C 	C 	0.78269 0.19929 0.59902 -0.04600
C 	C 	0.76406 0.12790 0.61182 -0.03400
C 	C 	0.78307 0.12022 0.63911 -0.08200
C 	C 	0.95342 0.20398 0.80944 0.02300
C 	C 	0.03393 0.24199 0.80694 -0.07900
C 	C 	0.07126 0.25805 0.78100 0.00600
C 	C 	0.02844 0.23512 0.75754 -0.08000
H 	H 	0.92420 0.19325 0.82949 0.01600
H 	H 	0.06721 0.25975 0.82508 0.03900
H 	H 	0.13315 0.28908 0.77904 0.02700
H 	H 	0.05766 0.24834 0.73749 0.05100
H 	H 	0.83464 0.31842 0.60355 0.04100
H 	H 	0.76804 0.06474 0.64894 0.02300
H 	H 	0.73537 0.07855 0.60053 0.02900
H 	H 	0.76766 0.20512 0.57793 0.03600
C 	C 	0.37122 0.06785 0.70987 -0.06100
C 	C 	0.31516 0.10351 0.71716 0.01100
C 	C 	0.25054 0.06513 0.73420 0.00300
H 	H 	0.20835 0.09322 0.74007 0.04000
C 	C 	0.23478 0.98845 0.74097 -0.10500
C 	C 	0.29043 0.95234 0.73361 0.03100
C 	C 	0.36010 0.99350 0.71922 -0.04000
H 	H 	0.40307 0.96601 0.71365 0.04100
C 	C 	0.27343 0.87056 0.73860 0.01100
C 	C 	0.21647 0.81959 0.72347 -0.04200
C 	C 	0.20061 0.74224 0.72813 -0.02300
C 	C 	0.24159 0.71542 0.74780 -0.03600
C 	C 	0.29963 0.76598 0.76246 -0.02400
C 	C 	0.31618 0.84345 0.75770 -0.04500
C 	C 	0.31836 0.17729 0.70467 0.01900
C 	C 	0.26831 0.18091 0.68340 -0.04900
C 	C 	0.26625 0.25067 0.67310 -0.01600
C 	C 	0.31421 0.31696 0.68390 -0.04800
C 	C 	0.36494 0.31361 0.70480 -0.04800
C 	C 	0.36641 0.24395 0.71540 -0.05800
H 	H 	0.22756 0.25334 0.65673 0.03100
H 	H 	0.31295 0.37092 0.67579 0.02700
H 	H 	0.40343 0.36498 0.71266 0.00900
H 	H 	0.40558 0.24191 0.73159 0.03300
H 	H 	0.23056 0.12974 0.67508 0.04900
H 	H 	0.18461 0.83995 0.70815 0.03900
H 	H 	0.15709 0.70315 0.71631 0.02900
H 	H 	0.36189 0.88230 0.76889 0.03700
H 	H 	0.33185 0.74515 0.77749 0.02900
H 	H 	0.22882 0.65548 0.75151 0.03200
C 	C 	0.67911 0.54374 0.72870 0.01500
C 	C 	0.67441 0.47707 0.74639 0.01800
C 	C 	0.61098 0.44853 0.76515 -0.05800
C 	C 	0.61022 0.39072 0.78389 -0.02700
C 	C 	0.67259 0.36079 0.78397 -0.04400
C 	C 	0.73623 0.38923 0.76542 -0.01700
H 	H 	0.92146 0.87749 0.65665 0.02700
H 	H 	0.56381 0.47307 0.76586 0.03300
H 	H 	0.56234 0.37071 0.79882 0.01000
H 	H 	0.67180 0.31588 0.79851 0.02900
C 	C 	0.14073 0.49563 0.04200 -0.07500
C 	C 	0.10798 0.52612 0.06333 0.04600
C 	C 	0.02681 0.51802 0.06398 -0.07100
C 	C 	0.09484 0.46087 0.02051 0.00200
C 	C 	0.01461 0.45548 0.02008 -0.08300
C 	C 	0.15583 0.56595 0.08380 -0.03900
C 	C 	0.12398 0.59998 0.10434 -0.05900
C 	C 	0.04440 0.59484 0.10424 -0.04100
H 	H 	0.21774 0.57094 0.08361 0.05000
H 	H 	0.20225 0.49934 0.04191 0.04600
H 	H 	0.12094 0.43447 0.00520 0.02400
H 	H 	0.06371 0.44360 0.96726 0.05400
C 	C 	0.45754 0.22792 0.00358 -0.04800
C 	C 	0.44185 0.19002 0.97904 0.01400
C 	C 	0.40328 0.11166 0.97958 -0.00200
C 	C 	0.38937 0.07051 0.00515 0.01800
C 	C 	0.43602 0.18897 0.02874 -0.02900
C 	C 	0.39972 0.11025 0.02994 -0.01300
C 	C 	0.46537 0.22961 0.95387 -0.02500
C 	C 	0.44848 0.19228 0.92915 -0.07600
C 	C 	0.37895 0.07652 0.95462 -0.05100
C 	C 	0.37517 0.99188 0.00641 -0.05800
C 	C 	0.37191 0.99091 0.05609 -0.01400
C 	C 	0.38295 0.06904 0.05550 0.02800
C 	C 	0.37782 0.10404 0.08049 -0.06700
C 	C 	0.37693 0.06534 0.10549 0.02500
C 	C 	0.37683 0.99046 0.10583 -0.09800
C 	C 	0.36899 0.95209 0.08126 -0.00800
C 	C 	0.40336 0.11621 0.92962 0.00100
H 	H 	0.38608 0.08807 0.91062 0.03700
H 	H 	0.33877 0.01990 0.95447 0.04100
H 	H 	0.49815 0.28908 0.95353 0.05100
H 	H 	0.48739 0.28799 0.00322 0.04100
H 	H 	0.45302 0.21962 0.04720 0.03600
H 	H 	0.37625 0.96137 0.98800 0.03700
H 	H 	0.37271 0.16008 0.08069 0.04500
H 	H 	0.37840 0.09421 0.12450 0.03600
H 	H 	0.36411 0.89280 0.08168 0.03900
C 	C 	0.36718 0.95297 0.03159 -0.03200
H 	H 	0.35898 0.89306 0.03200 0.03300
C 	C 	0.62420 0.53289 0.01032 -0.04300
C 	C 	0.60696 0.54827 0.98346 0.00500
C 	C 	0.58244 0.61152 0.97741 0.00700
C 	C 	0.56394 0.65236 0.99926 -0.00100
C 	C 	0.61458 0.57796 0.03148 -0.03700
C 	C 	0.58599 0.63916 0.02624 -0.00200
C 	C 	0.61186 0.49980 0.96265 -0.01400
C 	C 	0.59465 0.51504 0.93564 -0.08600
C 	C 	0.57658 0.63204 0.94970 -0.05900
C 	C 	0.51519 0.69803 0.99534 -0.03800
C 	C 	0.51728 0.72363 0.04373 0.00400
C 	C 	0.56922 0.68133 0.04798 0.00900
C 	C 	0.60269 0.68198 0.07388 -0.05800
C 	C 	0.57422 0.71243 0.09609 0.00800
C 	C 	0.51541 0.74621 0.09243 -0.08600
C 	C 	0.48994 0.75508 0.06604 -0.00900
C 	C 	0.58069 0.58306 0.92906 0.00700
H 	H 	0.57373 0.59840 0.90796 0.03100
H 	H 	0.57162 0.68656 0.94399 0.04000
H 	H 	0.62754 0.44957 0.96757 0.04700
H 	H 	0.64375 0.48477 0.01498 0.03700
H 	H 	0.62363 0.56135 0.05218 0.03600
H 	H 	0.49039 0.70249 0.97568 0.03500
H 	H 	0.65201 0.66125 0.07671 0.04100
H 	H 	0.59721 0.70890 0.11622 0.03100
H 	H 	0.44795 0.78538 0.06296 0.04400
C 	C 	0.49167 0.73245 0.01742 -0.04200
H 	H 	0.45214 0.76518 0.01408 0.03600
C 	C 	0.67711 0.07041 0.79919 0.01000
H 	H 	0.67777 0.99360 0.76717 0.02500
C 	C 	0.61398 0.09435 0.78693 0.02400
C 	C 	0.63190 0.16176 0.77119 -0.03500
C 	C 	0.57142 0.18520 0.76046 -0.00900
C 	C 	0.49324 0.14141 0.76537 -0.02300
C 	C 	0.47542 0.07297 0.78014 -0.01900
C 	C 	0.53550 0.04951 0.79105 -0.02900
C 	C 	0.91056 0.89395 0.87313 -0.05200
C 	C 	0.94386 0.96987 0.86530 -0.03500
H 	H 	0.94427 0.86512 0.88455 0.02900
H 	H 	0.00330 0.99981 0.87069 0.01200
H 	H 	0.69230 0.19643 0.76771 0.05000
H 	H 	0.58510 0.23731 0.74840 0.03300
H 	H 	0.52115 0.99691 0.80288 0.03100
H 	H 	0.41502 0.03836 0.78326 0.04000
H 	H 	0.44647 0.16042 0.75779 0.04000
C 	C 	0.22511 0.10026 0.80850 -0.08000
C 	C 	0.28302 0.07657 0.82212 0.03200
C 	C 	0.35667 0.12822 0.82616 -0.02100
H 	H 	0.40062 0.10971 0.83651 0.04700
C 	C 	0.37211 0.20439 0.81912 -0.07800
C 	C 	0.31470 0.22862 0.80579 0.02100
C 	C 	0.24294 0.17578 0.79958 -0.02000
H 	H 	0.20004 0.19412 0.78862 0.04600
C 	C 	0.32739 0.30922 0.79928 0.01400
C 	C 	0.38354 0.34772 0.77905 -0.05200
C 	C 	0.38902 0.42133 0.77075 -0.02600
C 	C 	0.34040 0.45756 0.78321 -0.04300
C 	C 	0.28583 0.42013 0.80388 -0.02600
C 	C 	0.27915 0.34609 0.81191 -0.05000
C 	C 	0.26579 0.99964 0.83412 0.00900
C 	C 	0.24438 0.98519 0.86206 -0.06200
C 	C 	0.22602 0.91202 0.87328 -0.02700
C 	C 	0.22973 0.85330 0.85675 -0.05300
C 	C 	0.25268 0.86782 0.82905 -0.03200
C 	C 	0.27156 0.94101 0.81780 -0.05700
H 	H 	0.20871 0.90079 0.89476 0.02300
H 	H 	0.21494 0.79659 0.86541 0.03100
H 	H 	0.25550 0.82231 0.81631 0.03400
H 	H 	0.28898 0.95191 0.79637 0.04900
H 	H 	0.24101 0.03040 0.87494 0.05300
H 	H 	0.42249 0.32058 0.76971 0.03900
H 	H 	0.43030 0.45001 0.75445 0.02400
H 	H 	0.23570 0.31695 0.82759 0.04000
H 	H 	0.24811 0.44819 0.81347 0.02700
H 	H 	0.34483 0.51455 0.77677 0.03200
C 	C 	0.00802 0.57788 0.76573 -0.06500
C 	C 	0.02233 0.58001 0.73739 -0.04100
C 	C 	0.97162 0.59980 0.71956 -0.01800
H 	H 	0.76489 0.62451 0.94047 0.03700
H 	H 	0.04815 0.56359 0.77945 0.04100
H 	H 	0.07297 0.56677 0.72926 0.03100
H 	H 	0.98325 0.60223 0.69764 0.03500
C 	C 	0.06146 0.39249 0.20959 -0.02100
C 	C 	0.64955 0.35367 0.26735 -0.03700
C 	C 	0.70996 0.40385 0.59146 -0.08100
C 	C 	0.70035 0.01353 0.78690 0.01900
C 	C 	0.69877 0.34138 0.24659 -0.02100
H 	H 	0.65364 0.41050 0.27264 0.03200
H 	H 	0.72635 0.33432 0.52891 0.04100
C 	C 	0.17272 0.21618 0.15427 -0.04600
H 	H 	0.18999 0.26853 0.14226 0.03600
C 	C 	0.73834 0.37429 0.54507 -0.05700
H 	H 	0.83678 0.36409 0.50418 0.03700
C 	C 	0.09041 0.08669 0.16095 -0.04200
H 	H 	0.68702 0.61484 0.76304 0.04300
C 	C 	0.73779 0.44792 0.74688 -0.04000
H 	H 	0.78460 0.36619 0.76554 0.04000
C 	C 	0.00113 0.42092 0.97129 -0.13000
O 	O 	0.76896 0.45411 0.88070 -0.44600
C 	C 	0.81326 0.60760 0.93234 -0.02100
H 	H 	0.78670 0.62265 0.89027 0.04400
Zn	Zn	0.77993 0.27564 0.87646 1.19100
O 	O 	0.84684 0.33075 0.90624 -0.46100
O 	O 	0.75146 0.36521 0.92991 -0.40100
O 	O 	0.81254 0.38197 0.85163 -0.41200
O 	O 	0.76100 0.22621 0.84022 -0.45200
C 	C 	0.82075 0.35439 0.92880 0.30700
C 	C 	0.81822 0.44833 0.86140 0.30800
Zn	Zn	0.85566 0.90300 0.72488 1.19800
Zn	Zn	0.87986 0.83239 0.78031 1.22700
C 	C 	0.79270 0.93921 0.78289 0.31000
O 	O 	0.75774 0.81614 0.73007 -0.45000
O 	O 	0.79797 0.74370 0.76109 -0.40500
O 	O 	0.79728 0.87455 0.79263 -0.43800
O 	O 	0.89205 0.75246 0.80527 -0.44800
O 	O 	0.81793 0.96328 0.75768 -0.42100
C 	C 	0.75947 0.74973 0.73913 0.29900
Zn	Zn	0.91073 0.10914 0.26679 1.22800
C 	C 	0.95807 0.34192 0.30837 0.30500
Zn	Zn	0.86336 0.18205 0.31677 1.20100
H 	H 	0.96721 0.25144 0.24476 0.19000
O 	O 	0.80510 0.07933 0.32871 -0.45500
O 	O 	0.82114 0.01905 0.28933 -0.38500
O 	O 	0.99099 0.21438 0.25228 -0.78000
O 	O 	0.82922 0.13586 0.24781 -0.44900
O 	O 	0.94787 0.02958 0.24969 -0.42700
O 	O 	0.77147 0.16764 0.28561 -0.39400
H 	H 	0.96789 0.11974 0.31088 0.19200
O 	O 	0.95155 0.15624 0.29962 -0.80600
O 	O 	0.88722 0.29277 0.30764 -0.44700
C 	C 	0.98954 0.04000 0.22635 0.36000
C 	C 	0.97061 0.28779 0.18731 -0.02200
C 	C 	0.90761 0.30975 0.19724 -0.03600
C 	C 	0.92127 0.37307 0.21326 -0.04100
H 	H 	0.95997 0.23871 0.17495 0.03100
H 	H 	0.87253 0.39031 0.22077 0.03700
H 	H 	0.84825 0.27779 0.19249 0.03900
H 	H 	0.74046 0.38874 0.23570 0.03000
H 	H 	0.92444 0.61347 0.23563 0.03100
H 	H 	0.99136 0.73196 0.20933 0.02300
C 	C 	0.93044 0.45724 0.32446 0.00600
H 	H 	0.94052 0.55603 0.34756 0.03600
C 	C 	0.85310 0.41605 0.33711 0.02300
C 	C 	0.84754 0.39158 0.36473 -0.05800
C 	C 	0.77515 0.37108 0.37906 -0.02100
C 	C 	0.78493 0.41570 0.32359 -0.04900
H 	H 	0.77135 0.35411 0.40055 0.02900
H 	H 	0.78871 0.43511 0.30234 0.04400
H 	H 	0.89988 0.39200 0.37540 0.04400
C 	C 	0.04649 0.18511 0.37005 -0.04900
C 	C 	0.97123 0.13513 0.37564 -0.04700
C 	C 	0.95104 0.06202 0.36615 -0.01100
C 	C 	0.00533 0.03941 0.35037 -0.09500
H 	H 	0.06242 0.24132 0.37777 0.03200
H 	H 	0.98901 0.98288 0.34286 0.05000
H 	H 	0.89304 0.02314 0.37075 0.03300
H 	H 	0.92871 0.15292 0.38747 0.02500
C 	C 	0.82553 0.57953 0.55394 -0.04100
C 	C 	0.78898 0.50293 0.56013 0.00600
C 	C 	0.78598 0.44944 0.53991 0.00900
C 	C 	0.82752 0.47343 0.51446 -0.00100
C 	C 	0.85723 0.60389 0.52770 -0.03600
C 	C 	0.85576 0.55145 0.50731 0.00100
C 	C 	0.75339 0.47929 0.58613 -0.01100
C 	C 	0.84897 0.42233 0.49760 -0.03500
C 	C 	0.91455 0.52355 0.46486 0.01100
C 	C 	0.89112 0.57507 0.48091 0.00600
C 	C 	0.96144 0.54929 0.44097 -0.01700
H 	H 	0.75731 0.51990 0.60191 0.03900
H 	H 	0.82875 0.62062 0.56946 0.03900
H 	H 	0.98385 0.51099 0.42951 0.04600
C 	C 	0.89294 0.44756 0.47327 -0.04300
H 	H 	0.91089 0.40784 0.46105 0.03900
C 	C 	0.91939 0.13063 0.71526 -0.07400
C 	C 	0.90129 0.17703 0.73513 0.01200
C 	C 	0.84453 0.21256 0.72958 -0.00600
H 	H 	0.82543 0.24310 0.74543 0.03900
C 	C 	0.81157 0.20751 0.70373 -0.09000
C 	C 	0.84385 0.17639 0.68226 0.01200
C 	C 	0.89720 0.13741 0.68817 -0.02000
H 	H 	0.91767 0.10868 0.67203 0.04600
C 	C 	0.91036 0.18092 0.78603 -0.07200
H 	H 	0.84795 0.15252 0.78805 0.06000
H 	H 	0.86935 0.30559 0.65175 0.04900
C 	C 	0.71735 0.68040 0.72510 -0.08300
C 	C 	0.72097 0.67740 0.69618 0.01500
C 	C 	0.69914 0.60737 0.68377 -0.01900
H 	H 	0.69986 0.60526 0.66160 0.04500
C 	C 	0.67835 0.54013 0.69985 -0.08100
C 	C 	0.69062 0.61299 0.74086 -0.01900
C 	C 	0.75011 0.74687 0.67879 0.01000
C 	C 	0.69726 0.78182 0.66855 -0.05000
C 	C 	0.72537 0.85128 0.65426 -0.03200
C 	C 	0.83111 0.78099 0.67405 -0.07800
H 	H 	0.68459 0.87861 0.64665 0.02600
H 	H 	0.63467 0.75596 0.67215 0.04300
H 	H 	0.78752 0.47001 0.73267 0.05600
C 	C 	0.89638 0.44914 0.04708 -0.07700
C 	C 	0.88478 0.40419 0.00079 -0.03400
C 	C 	0.87120 0.37285 0.95272 -0.10200
C 	C 	0.83737 0.37619 0.97867 0.00900
H 	H 	0.93752 0.55913 0.08288 0.02500
H 	H 	0.86800 0.45216 0.06663 0.04900
H 	H 	0.77399 0.35935 0.98145 0.03700
C 	C 	0.85014 0.41372 0.02589 -0.01000
H 	H 	0.78683 0.39465 0.02886 0.02900
C 	C 	0.75405 0.98356 0.79950 -0.11700
C 	C 	0.77929 0.00641 0.82607 0.05500
C 	C 	0.75916 0.06604 0.83769 -0.03900
H 	H 	0.78145 0.08599 0.85745 0.01900
C 	C 	0.71068 0.10021 0.82397 -0.07300
C 	C 	0.82479 0.96742 0.84223 -0.02900
C 	C 	0.79011 0.89233 0.85145 -0.03400
C 	C 	0.83357 0.85535 0.86638 -0.03500
H 	H 	0.80755 0.79681 0.87276 0.03400
H 	H 	0.73013 0.86235 0.84661 0.04500
C 	C 	0.87328 0.51804 0.84828 -0.07800
C 	C 	0.90209 0.58428 0.86339 0.02100
C 	C 	0.94014 0.65308 0.84959 -0.01500
H 	H 	0.95842 0.70413 0.86106 0.02600
C 	C 	0.92623 0.59121 0.80616 0.02100
C 	C 	0.88972 0.52159 0.81989 -0.02000
H 	H 	0.87044 0.47101 0.80823 0.04600
C 	C 	0.88989 0.61168 0.75831 -0.05600
C 	C 	0.88785 0.58360 0.89338 0.02100
C 	C 	0.82572 0.60656 0.90399 -0.04200
C 	C 	0.86392 0.58787 0.95017 -0.03300
C 	C 	0.92751 0.56769 0.93968 -0.01800
C 	C 	0.93883 0.56426 0.91135 -0.04500
H 	H 	0.85447 0.58907 0.97211 0.03900
H 	H 	0.96839 0.55539 0.95350 0.04000
H 	H 	0.83717 0.62124 0.76629 0.05700
H 	H 	0.86596 0.63044 0.71619 0.03500
H 	H 	0.02011 0.62340 0.11941 0.02300
H 	H 	0.00820 0.46542 0.23075 0.01900
C 	C 	0.11310 0.15428 0.14540 -0.03000
C 	C 	0.80615 0.88583 0.65007 -0.05000
H 	H 	0.87236 0.75460 0.68200 0.03000
C 	C 	0.90304 0.64861 0.47008 -0.05200
H 	H 	0.98763 0.54762 0.90338 0.04500
H 	H 	0.88745 0.66317 0.52391 0.03800
H 	H 	0.09593 0.31227 0.18528 0.02000
H 	H 	0.82782 0.93998 0.63928 0.03100
O 	O 	0.00605 0.10459 0.21293 -0.48400
O 	O 	0.97844 0.06235 0.74684 -0.41400
H 	H 	0.95259 0.95389 0.80641 0.18500
C 	C 	0.85895 0.85057 0.65985 -0.05400
H 	H 	0.95969 0.84295 0.73668 0.18200
C 	C 	0.99379 0.73021 0.23147 -0.02400
H 	H 	0.95620 0.89571 0.24421 0.05800
C 	C 	0.95478 0.66355 0.24632 -0.02600
C 	C 	0.95495 0.73079 0.80707 0.32000
O 	O 	0.93584 0.87738 0.74595 -0.78500
O 	O 	0.91995 0.00322 0.70888 -0.45300
C 	C 	0.94289 0.06383 0.72352 0.31400
Zn	Zn	0.04359 0.24915 0.28609 1.22200
O 	O 	0.01997 0.31928 0.31132 -0.46700
C 	C 	0.04738 0.32904 0.19338 -0.09500
C 	C 	0.99799 0.41486 0.21922 -0.01200
H 	H 	0.04434 0.03886 0.15393 0.04000
H 	H 	0.08450 0.15868 0.12646 0.03100
C 	C 	0.96918 0.42306 0.30589 -0.05500
C 	C 	0.96749 0.53120 0.33186 0.01500
C 	C 	0.08009 0.09036 0.34381 0.01800
C 	C 	0.10149 0.16229 0.35473 -0.05400
C 	C 	0.94770 0.19625 0.75997 0.06100
C 	C 	0.97879 0.47589 0.04357 0.08100
C 	C 	0.99656 0.55601 0.08389 0.01400
C 	C 	0.96756 0.42521 0.99750 0.08500
C 	C 	0.95313 0.39370 0.94929 0.05100
H 	H 	0.97993 0.39301 0.92921 0.02600
C 	C 	0.90089 0.00689 0.85013 -0.03300
H 	H 	0.92754 0.06532 0.84379 0.03500
C 	C 	0.94676 0.65787 0.82097 -0.08300
C 	C 	0.94176 0.59393 0.77628 0.03300
C 	C 	0.90563 0.61596 0.73002 -0.02600
