data_crystal

_cell_length_a 48.95866
_cell_length_b 44.20219
_cell_length_c 30.13856
_cell_angle_alpha 91.89630
_cell_angle_beta  88.33202
_cell_angle_gamma 90.10274

_symmetry_space_group_name_	'P 1'
_symmetry_space_group_name_H-M	'P 1'

loop_
_symmetry_equiv_pos_as_xyz
  x,y,z

loop_
_atom_site_label
_atom_site_type_symbol
_atom_site_fract_x
_atom_site_fract_y
_atom_site_fract_z
_atom_site_charge
Cd	Cd	0.94627 0.80956 0.25811 1.24200
Cd	Cd	0.94697 0.86772 0.34260 1.19100
O 	O 	0.93545 0.75754 0.27981 -0.31100
O 	O 	0.94055 0.76920 0.20952 -0.34300
C 	C 	0.93520 0.74857 0.23837 0.27400
O 	O 	0.95009 0.85274 0.22105 -0.37400
O 	O 	0.96893 0.87953 0.27900 -0.39700
C 	C 	0.95827 0.87877 0.23931 0.31400
C 	C 	0.89573 0.83248 0.29470 0.32300
O 	O 	0.97199 0.82346 0.33160 -0.43600
O 	O 	0.89185 0.81695 0.25775 -0.29300
O 	O 	0.92044 0.83211 0.30884 -0.51800
C 	C 	0.99490 0.82051 0.30876 0.30900
O 	O 	0.99308 0.80941 0.26826 -0.33100
Cd	Cd	0.02163 0.81907 0.84419 1.24300
Cd	Cd	0.01373 0.88550 0.78213 1.19100
O 	O 	0.01155 0.76917 0.80928 -0.31200
O 	O 	0.02901 0.77368 0.87574 -0.34400
C 	C 	0.02004 0.75588 0.84415 0.27700
O 	O 	0.03988 0.85549 0.88686 -0.36700
O 	O 	0.01702 0.89415 0.85556 -0.40200
C 	C 	0.03719 0.88462 0.87945 0.31600
C 	C 	0.06273 0.83482 0.78014 0.32400
O 	O 	0.98307 0.84820 0.80390 -0.43700
O 	O 	0.07125 0.81337 0.80516 -0.27300
O 	O 	0.03690 0.84101 0.78432 -0.53200
C 	C 	0.96864 0.84795 0.84095 0.32200
O 	O 	0.97861 0.83222 0.87257 -0.34700
C 	C 	0.97599 0.54482 0.77111 0.12300
N 	N 	0.97586 0.54441 0.72604 -0.14200
C 	C 	0.96598 0.51998 0.70323 0.12900
N 	N 	0.95555 0.49627 0.72564 -0.14300
C 	C 	0.95542 0.49669 0.77068 0.12900
N 	N 	0.96621 0.52071 0.79341 -0.14100
C 	C 	0.89547 0.54866 0.32774 0.12300
N 	N 	0.87738 0.52533 0.32491 -0.14100
C 	C 	0.87853 0.50251 0.35397 0.12900
N 	N 	0.89720 0.50348 0.38634 -0.14300
C 	C 	0.91510 0.52684 0.38946 0.12900
N 	N 	0.91421 0.54941 0.36012 -0.14200
Cd	Cd	0.85765 0.08864 0.77233 1.24300
Cd	Cd	0.90526 0.07683 0.85763 1.18100
O 	O 	0.81355 0.11047 0.79717 -0.31500
O 	O 	0.82389 0.10291 0.72609 -0.34100
C 	C 	0.80624 0.11271 0.75639 0.27500
O 	O 	0.89670 0.07675 0.73461 -0.35400
O 	O 	0.91580 0.05331 0.79277 -0.42500
C 	C 	0.91850 0.06627 0.75414 0.29900
C 	C 	0.88784 0.13836 0.80827 0.32900
O 	O 	0.86257 0.05630 0.84378 -0.43500
O 	O 	0.87586 0.14571 0.77198 -0.29200
O 	O 	0.88056 0.11245 0.82377 -0.52800
C 	C 	0.85716 0.03239 0.81890 0.32500
O 	O 	0.84842 0.03784 0.77946 -0.35200
Cd	Cd	0.83761 0.05262 0.47851 1.24200
Cd	Cd	0.86772 0.01062 0.38329 1.19300
O 	O 	0.80270 0.08999 0.46165 -0.31700
O 	O 	0.81063 0.07834 0.53061 -0.34400
C 	C 	0.79684 0.09444 0.50360 0.27600
O 	O 	0.86636 0.02060 0.50879 -0.36800
O 	O 	0.87823 0.99067 0.44839 -0.38800
C 	C 	0.88543 0.00699 0.48333 0.29800
C 	C 	0.80898 0.00419 0.43393 0.32400
O 	O 	0.86847 0.06125 0.40833 -0.44800
O 	O 	0.79846 0.01016 0.47368 -0.29100
O 	O 	0.82810 0.02243 0.42102 -0.50900
C 	C 	0.88526 0.07586 0.43405 0.30400
O 	O 	0.87561 0.08354 0.47354 -0.33500
C 	C 	0.64260 0.18587 0.89628 0.12200
N 	N 	0.64719 0.17987 0.93941 -0.14200
C 	C 	0.62819 0.18742 0.97157 0.12600
N 	N 	0.60450 0.20074 0.96057 -0.14400
C 	C 	0.59970 0.20658 0.91755 0.12700
N 	N 	0.61909 0.19985 0.88559 -0.14000
C 	C 	0.64065 0.16955 0.37475 0.12200
N 	N 	0.64691 0.17380 0.33112 -0.14300
C 	C 	0.62686 0.17341 0.30091 0.12900
N 	N 	0.60045 0.16974 0.31449 -0.14300
C 	C 	0.59405 0.16595 0.35804 0.12900
N 	N 	0.61413 0.16584 0.38817 -0.14100
Cd	Cd	0.03447 0.11123 0.21181 1.24700
Cd	Cd	0.10163 0.08416 0.21460 1.19200
O 	O 	0.01619 0.14645 0.27021 -0.29800
O 	O 	0.99182 0.13236 0.21308 -0.33400
C 	C 	0.99303 0.14797 0.25042 0.28000
O 	O 	0.04300 0.08464 0.14988 -0.39300
O 	O 	0.07536 0.05190 0.17362 -0.38200
C 	C 	0.05271 0.05695 0.15203 0.32800
C 	C 	0.07787 0.15187 0.19160 0.33100
O 	O 	0.06563 0.08297 0.26721 -0.45900
O 	O 	0.05495 0.16186 0.17628 -0.28100
O 	O 	0.07558 0.12635 0.21110 -0.54200
C 	C 	0.04596 0.06319 0.27194 0.31400
O 	O 	0.02534 0.06674 0.24605 -0.34300
Cd	Cd	0.05847 0.13983 0.05525 1.24600
Cd	Cd	0.10787 0.13062 0.96572 1.18600
O 	O 	0.03445 0.18864 0.06531 -0.31000
O 	O 	0.02142 0.14865 0.10124 -0.34700
C 	C 	0.01585 0.17625 0.09057 0.28500
O 	O 	0.06693 0.09075 0.05403 -0.35300
O 	O 	0.10534 0.09002 0.00902 -0.41100
C 	C 	0.08267 0.07685 0.02356 0.31200
C 	C 	0.04133 0.13174 0.96568 0.32300
O 	O 	0.10610 0.16122 0.03025 -0.44700
O 	O 	0.02153 0.12691 0.99451 -0.28400
O 	O 	0.06358 0.14233 0.98250 -0.53200
C 	C 	0.11513 0.15485 0.06911 0.31700
O 	O 	0.09642 0.14751 0.09856 -0.35300
C 	C 	0.87999 0.25749 0.90398 0.12500
N 	N 	0.87050 0.24420 0.86603 -0.13500
C 	C 	0.86387 0.26159 0.83152 0.13100
N 	N 	0.86673 0.29209 0.83507 -0.14300
C 	C 	0.87522 0.30549 0.87343 0.13000
N 	N 	0.88147 0.28812 0.90800 -0.14200
C 	C 	0.85536 0.25868 0.44307 0.12500
N 	N 	0.84989 0.25165 0.48597 -0.13900
C 	C 	0.83583 0.27139 0.51361 0.12700
N 	N 	0.82789 0.29855 0.49838 -0.14400
C 	C 	0.83457 0.30621 0.45613 0.12900
N 	N 	0.84785 0.28604 0.42839 -0.14100
Cd	Cd	0.18013 0.07085 0.73412 1.24300
Cd	Cd	0.14586 0.01857 0.80235 1.17300
O 	O 	0.23035 0.07016 0.72620 -0.31200
O 	O 	0.20549 0.10112 0.68910 -0.34400
C 	C 	0.22983 0.09328 0.70065 0.27600
O 	O 	0.13598 0.07801 0.72091 -0.37300
O 	O 	0.12006 0.05878 0.78658 -0.41300
C 	C 	0.11560 0.06833 0.74643 0.31400
C 	C 	0.17256 0.01031 0.70162 0.33000
O 	O 	0.17910 0.05482 0.81803 -0.45100
O 	O 	0.17950 0.02792 0.66915 -0.28000
O 	O 	0.17384 0.02255 0.74114 -0.54300
C 	C 	0.17524 0.08333 0.82917 0.30600
O 	O 	0.17656 0.10199 0.79658 -0.33800
Cd	Cd	0.13645 0.03244 0.47108 1.24300
Cd	Cd	0.09002 0.04173 0.38183 1.19600
O 	O 	0.18363 0.01690 0.45161 -0.30500
O 	O 	0.17172 0.03283 0.51898 -0.33900
C 	C 	0.19146 0.02455 0.49127 0.27700
O 	O 	0.09869 0.05066 0.50436 -0.36700
O 	O 	0.06863 0.05391 0.44769 -0.37900
C 	C 	0.07440 0.04512 0.48785 0.30900
C 	C 	0.14032 0.08415 0.41619 0.32000
O 	O 	0.11282 0.00006 0.40875 -0.43500
O 	O 	0.15331 0.08870 0.45304 -0.29000
O 	O 	0.13000 0.05736 0.41067 -0.51200
C 	C 	0.10515 0.98124 0.43902 0.30800
O 	O 	0.11666 0.98497 0.47736 -0.34500
C 	C 	0.35822 0.18286 0.89717 0.12500
N 	N 	0.34580 0.18378 0.93817 -0.13800
C 	C 	0.36020 0.19221 0.97444 0.12700
N 	N 	0.38687 0.20027 0.96945 -0.14400
C 	C 	0.39906 0.20027 0.92844 0.12900
N 	N 	0.38482 0.19117 0.89240 -0.14200
C 	C 	0.35161 0.11400 0.35364 0.12400
N 	N 	0.37767 0.11941 0.36616 -0.14200
C 	C 	0.39435 0.13733 0.34158 0.12900
N 	N 	0.38532 0.14872 0.30342 -0.14300
C 	C 	0.35977 0.14227 0.28962 0.13000
N 	N 	0.34271 0.12545 0.31527 -0.14100
C 	C 	0.34801 0.18913 0.01955 -0.04400
C 	C 	0.35299 0.21118 0.05349 0.10500
C 	C 	0.35003 0.20333 0.09814 -0.08300
C 	C 	0.34054 0.17453 0.10921 -0.00400
C 	C 	0.33100 0.15453 0.07540 0.07900
C 	C 	0.33537 0.16174 0.03068 -0.05100
N 	N 	0.36020 0.23991 0.04337 -0.19800
H 	H 	0.35587 0.21933 0.12423 0.05800
C 	C 	0.34418 0.16414 0.15499 -0.00200
N 	N 	0.31833 0.12816 0.08564 -0.19400
H 	H 	0.33023 0.14538 0.00466 0.05700
C 	C 	0.32649 0.17502 0.18935 -0.08500
C 	C 	0.33086 0.16788 0.23374 0.10600
C 	C 	0.35273 0.14843 0.24348 -0.04900
C 	C 	0.36953 0.13639 0.20880 -0.05000
C 	C 	0.36609 0.14479 0.16486 0.07300
H 	H 	0.30974 0.18981 0.18168 0.06400
N 	N 	0.31447 0.18036 0.26667 -0.19900
H 	H 	0.38609 0.12129 0.21632 0.05100
N 	N 	0.38423 0.13478 0.13257 -0.19400
H 	H 	0.29818 0.19433 0.25900 0.09800
H 	H 	0.31798 0.17691 0.30010 0.10000
H 	H 	0.39987 0.11988 0.14007 0.08700
H 	H 	0.38358 0.14227 0.10016 0.09200
H 	H 	0.31226 0.11297 0.06049 0.10000
H 	H 	0.31356 0.12299 0.11853 0.10000
H 	H 	0.35962 0.24722 0.01081 0.09800
H 	H 	0.36506 0.25572 0.06848 0.09100
C 	C 	0.26710 0.02967 0.47578 -0.06600
C 	C 	0.26944 0.06057 0.46702 0.01700
C 	C 	0.24742 0.08015 0.47850 0.00000
C 	C 	0.22277 0.06821 0.49487 -0.00300
C 	C 	0.21914 0.03679 0.49666 -0.06800
C 	C 	0.24198 0.01767 0.49023 0.05100
C 	C 	0.29277 0.07112 0.43919 0.00700
S 	S 	0.24958 0.11916 0.46876 -0.01000
H 	H 	0.20549 0.08315 0.50153 0.05900
S 	S 	0.23908 0.97858 0.49858 -0.01100
H 	H 	0.28431 0.01470 0.46869 0.05700
C 	C 	0.31338 0.08960 0.45737 0.00700
C 	C 	0.33273 0.10318 0.42921 -0.03200
C 	C 	0.33258 0.09727 0.38308 -0.02800
C 	C 	0.31377 0.07603 0.36561 0.03100
C 	C 	0.29354 0.06384 0.39352 -0.05600
S 	S 	0.31541 0.09553 0.51524 -0.03700
H 	H 	0.34768 0.11863 0.44314 0.04800
S 	S 	0.31659 0.06269 0.30992 -0.02400
H 	H 	0.27834 0.04864 0.37972 0.06000
H 	H 	0.24438 0.97292 0.54192 0.05400
H 	H 	0.33096 0.07315 0.53216 0.04000
H 	H 	0.30106 0.08042 0.28403 0.04900
H 	H 	0.25870 0.13417 0.50598 0.04200
C 	C 	0.26920 0.15827 0.74698 -0.06700
C 	C 	0.29500 0.14467 0.74716 0.01700
C 	C 	0.30055 0.11942 0.71860 -0.00300
C 	C 	0.27916 0.10514 0.69613 -0.00400
C 	C 	0.25224 0.11566 0.70253 -0.07500
C 	C 	0.24790 0.14426 0.72414 0.05100
C 	C 	0.31382 0.15318 0.78306 0.00700
S 	S 	0.33394 0.10499 0.71192 -0.02700
H 	H 	0.28304 0.08427 0.67709 0.04800
S 	S 	0.21589 0.16234 0.72409 -0.01500
H 	H 	0.26525 0.17878 0.76685 0.05800
C 	C 	0.32743 0.18131 0.78361 0.00600
C 	C 	0.34176 0.19082 0.82116 -0.03100
C 	C 	0.34307 0.17228 0.85799 -0.02800
C 	C 	0.33072 0.14340 0.85635 0.03200
C 	C 	0.31586 0.13426 0.81928 -0.05600
S 	S 	0.32707 0.20452 0.73729 -0.03600
H 	H 	0.35182 0.21270 0.82181 0.04700
S 	S 	0.33461 0.11797 0.89951 -0.02900
H 	H 	0.30562 0.11248 0.81874 0.05900
H 	H 	0.20076 0.15452 0.76092 0.05800
H 	H 	0.30483 0.22330 0.74095 0.04000
H 	H 	0.31332 0.12158 0.92973 0.04800
H 	H 	0.34727 0.11939 0.67804 0.03800
C 	C 	0.83359 0.26576 0.56172 -0.04900
C 	C 	0.82460 0.23746 0.57748 0.10600
C 	C 	0.82756 0.23104 0.62247 -0.08500
C 	C 	0.83747 0.25308 0.65247 -0.00300
C 	C 	0.84483 0.28206 0.63722 0.07300
C 	C 	0.84290 0.28803 0.59196 -0.05100
N 	N 	0.81228 0.21688 0.55010 -0.19900
H 	H 	0.82165 0.20902 0.63430 0.06300
C 	C 	0.84072 0.24542 0.69959 -0.00200
N 	N 	0.85407 0.30408 0.66567 -0.19400
H 	H 	0.84947 0.30983 0.58002 0.04900
C 	C 	0.86587 0.23414 0.71271 -0.08400
C 	C 	0.87252 0.23475 0.75779 0.11200
C 	C 	0.85389 0.24764 0.78986 -0.04900
C 	C 	0.82730 0.25455 0.77729 -0.05100
C 	C 	0.82048 0.25349 0.73228 0.06900
H 	H 	0.88082 0.22627 0.68769 0.06800
N 	N 	0.89689 0.22346 0.76992 -0.19900
H 	H 	0.81250 0.26289 0.80220 0.04900
N 	N 	0.79473 0.26074 0.72067 -0.19400
H 	H 	0.91117 0.21551 0.74587 0.10500
H 	H 	0.90125 0.22093 0.80323 0.10700
H 	H 	0.78011 0.26751 0.74491 0.08500
H 	H 	0.78874 0.25874 0.68773 0.08900
H 	H 	0.85954 0.32533 0.65401 0.08600
H 	H 	0.85586 0.30049 0.69951 0.09300
H 	H 	0.80674 0.22234 0.51815 0.09500
H 	H 	0.80670 0.19561 0.56155 0.09200
C 	C 	0.14360 0.14501 0.07295 -0.13700
C 	C 	0.14911 0.11380 0.07203 0.16100
C 	C 	0.16782 0.10189 0.04007 -0.10900
C 	C 	0.18246 0.12177 0.01273 0.02300
C 	C 	0.18440 0.15228 0.02742 0.07100
C 	C 	0.16425 0.16418 0.05699 -0.01100
H 	H 	0.16845 0.07771 0.03303 0.09400
C 	C 	0.18446 0.11445 0.96444 0.00300
H 	H 	0.16243 0.18846 0.06230 0.06100
C 	C 	0.16826 0.13073 0.93588 -0.12200
C 	C 	0.16540 0.12110 0.89175 0.11100
C 	C 	0.17867 0.09450 0.87548 -0.10800
C 	C 	0.19592 0.07890 0.90349 -0.02600
C 	C 	0.19916 0.08904 0.94760 0.08100
H 	H 	0.15707 0.15049 0.94849 0.00900
H 	H 	0.20710 0.05916 0.89084 0.06000
Br	Br	0.21090 0.17867 0.00106 -0.21300
Br	Br	0.13033 0.08745 0.11189 -0.32400
Br	Br	0.14260 0.14443 0.85502 -0.27300
Br	Br	0.22481 0.06893 0.98349 -0.22300
C 	C 	0.95793 0.22622 0.06303 -0.06800
C 	C 	0.94167 0.20481 0.04067 0.01500
C 	C 	0.94565 0.17379 0.04763 -0.00000
C 	C 	0.96792 0.16449 0.07191 -0.00400
C 	C 	0.98711 0.18582 0.08716 -0.07500
C 	C 	0.98062 0.21685 0.08633 0.05100
C 	C 	0.92469 0.21470 0.00394 0.01200
S 	S 	0.92396 0.14633 0.02386 -0.01200
H 	H 	0.97179 0.14052 0.07495 0.06100
S 	S 	0.00143 0.24417 0.11252 -0.01400
H 	H 	0.95404 0.25016 0.05976 0.05500
C 	C 	0.89651 0.22039 0.01058 0.01300
C 	C 	0.88148 0.23223 0.97623 -0.02800
C 	C 	0.89447 0.23922 0.93572 -0.02000
C 	C 	0.92259 0.23322 0.92905 0.03400
C 	C 	0.93734 0.22034 0.96269 -0.05500
S 	S 	0.88006 0.21378 0.06206 -0.03000
H 	H 	0.85994 0.23715 0.98166 0.04900
S 	S 	0.94003 0.24416 0.88021 -0.01100
H 	H 	0.95897 0.21578 0.95741 0.06200
H 	H 	0.99160 0.25040 0.15484 0.04200
H 	H 	0.88245 0.23899 0.08937 0.03700
H 	H 	0.94085 0.22058 0.84964 0.05300
H 	H 	0.90245 0.14108 0.05270 0.04500
C 	C 	0.14237 0.10569 0.37957 -0.11500
C 	C 	0.14109 0.09565 0.33463 0.10600
C 	C 	0.13901 0.11675 0.30152 -0.06700
C 	C 	0.14104 0.14791 0.31163 0.00500
C 	C 	0.14588 0.15776 0.35564 0.08600
C 	C 	0.14567 0.13678 0.38956 -0.01300
H 	H 	0.13589 0.10886 0.26765 -0.01500
C 	C 	0.13385 0.16966 0.27736 0.02900
H 	H 	0.14808 0.14467 0.42365 0.07100
C 	C 	0.10954 0.18634 0.28352 -0.09200
C 	C 	0.09244 0.18959 0.24756 0.15000
C 	C 	0.09855 0.17332 0.20759 -0.10900
C 	C 	0.12606 0.16608 0.19834 -0.03300
C 	C 	0.14412 0.16489 0.23349 0.06800
H 	H 	0.10235 0.19322 0.31663 0.09400
H 	H 	0.13232 0.15712 0.16583 0.06300
Br	Br	0.15434 0.19935 0.36963 -0.21100
Br	Br	0.14568 0.05376 0.31658 -0.35800
Br	Br	0.05839 0.21060 0.25624 -0.21600
Br	Br	0.18107 0.15192 0.22217 -0.22300
C 	C 	0.92696 0.18895 0.28203 -0.06600
C 	C 	0.92552 0.18449 0.32795 0.01800
C 	C 	0.94418 0.16484 0.34691 -0.00300
C 	C 	0.96531 0.15184 0.32065 0.00300
C 	C 	0.96808 0.15807 0.27533 -0.06400
C 	C 	0.94822 0.17600 0.25564 0.05400
C 	C 	0.90721 0.20379 0.35664 0.00600
S 	S 	0.94207 0.15752 0.40399 0.00600
H 	H 	0.98006 0.13740 0.33572 0.07000
S 	S 	0.95046 0.18377 0.19871 -0.01700
H 	H 	0.91235 0.20372 0.26727 0.05500
C 	C 	0.91602 0.23246 0.37239 0.00500
C 	C 	0.89907 0.24987 0.40125 -0.03000
C 	C 	0.87333 0.23902 0.41479 -0.02900
C 	C 	0.86453 0.21025 0.39933 0.03200
C 	C 	0.88149 0.19283 0.37024 -0.05700
S 	S 	0.94843 0.24659 0.35673 -0.02500
H 	H 	0.90588 0.27195 0.41318 0.04900
S 	S 	0.83227 0.19599 0.41559 -0.03800
H 	H 	0.87481 0.17066 0.35851 0.05600
H 	H 	0.96631 0.20895 0.19294 0.04200
H 	H 	0.96746 0.23636 0.38510 0.04700
H 	H 	0.83449 0.18088 0.45428 0.04400
H 	H 	0.95697 0.17880 0.42690 0.05100
C 	C 	0.56522 0.16325 0.37260 -0.05000
C 	C 	0.55406 0.13509 0.38526 0.10200
C 	C 	0.52556 0.13180 0.38925 -0.08600
C 	C 	0.50821 0.15561 0.37895 -0.00500
C 	C 	0.51939 0.18447 0.37043 0.07200
C 	C 	0.54786 0.18802 0.36766 -0.05200
N 	N 	0.57043 0.11096 0.39224 -0.20000
H 	H 	0.51685 0.11002 0.39731 0.05700
C 	C 	0.47919 0.14888 0.37016 -0.00400
N 	N 	0.50296 0.20861 0.36390 -0.19400
H 	H 	0.55652 0.20981 0.35946 0.05000
C 	C 	0.45932 0.15460 0.40384 -0.08600
C 	C 	0.43138 0.15195 0.39498 0.10200
C 	C 	0.42338 0.14084 0.35260 -0.04900
C 	C 	0.44339 0.13358 0.31974 -0.05100
C 	C 	0.47119 0.13803 0.32773 0.07300
H 	H 	0.46557 0.16275 0.43633 0.05600
N 	N 	0.41250 0.16132 0.42650 -0.19900
H 	H 	0.43726 0.12481 0.28748 0.05100
N 	N 	0.49003 0.13207 0.29448 -0.19400
H 	H 	0.41859 0.16813 0.45826 0.08700
H 	H 	0.39190 0.16353 0.41927 0.09400
H 	H 	0.48387 0.12402 0.26334 0.08600
H 	H 	0.51088 0.13546 0.29895 0.09200
H 	H 	0.51142 0.22963 0.35645 0.08600
H 	H 	0.48173 0.20698 0.36701 0.09000
H 	H 	0.59166 0.11245 0.38920 0.09700
H 	H 	0.56191 0.09023 0.40107 0.09000
C 	C 	0.57205 0.21550 0.90498 -0.05000
C 	C 	0.55790 0.23901 0.92882 0.10200
C 	C 	0.52927 0.24013 0.92783 -0.08600
C 	C 	0.51486 0.21885 0.90211 -0.00600
C 	C 	0.52935 0.19853 0.87285 0.07200
C 	C 	0.55791 0.19683 0.87487 -0.05400
N 	N 	0.57168 0.26055 0.95242 -0.19900
H 	H 	0.51815 0.25677 0.94847 0.05500
C 	C 	0.48518 0.21505 0.91091 -0.00500
N 	N 	0.51594 0.18016 0.84365 -0.19400
H 	H 	0.56890 0.17969 0.85501 0.05200
C 	C 	0.46678 0.23358 0.88964 -0.08700
C 	C 	0.43846 0.23004 0.89641 0.10200
C 	C 	0.42851 0.20673 0.92373 -0.05000
C 	C 	0.44694 0.18870 0.94578 -0.05200
C 	C 	0.47521 0.19284 0.94012 0.07200
H 	H 	0.47452 0.25094 0.86797 0.05600
N 	N 	0.42105 0.24953 0.87763 -0.19900
H 	H 	0.43925 0.17115 0.96717 0.05100
N 	N 	0.49263 0.17551 0.96283 -0.19400
H 	H 	0.42855 0.26597 0.85628 0.08800
H 	H 	0.40013 0.24943 0.88537 0.09400
H 	H 	0.48505 0.15879 0.98361 0.08500
H 	H 	0.51374 0.17876 0.96087 0.09000
H 	H 	0.52670 0.16443 0.82326 0.08700
H 	H 	0.49487 0.18196 0.83991 0.09100
H 	H 	0.59299 0.26182 0.95047 0.09300
H 	H 	0.56107 0.27715 0.97143 0.08600
C 	C 	0.63324 0.18118 0.01842 -0.04700
C 	C 	0.61418 0.16450 0.04406 0.10200
C 	C 	0.61652 0.16429 0.09035 -0.08500
C 	C 	0.63835 0.17897 0.11110 -0.00500
C 	C 	0.65884 0.19324 0.08501 0.07200
C 	C 	0.65589 0.19450 0.03885 -0.05300
N 	N 	0.59409 0.14806 0.02438 -0.19700
H 	H 	0.60135 0.15254 0.11030 0.05700
C 	C 	0.63910 0.17980 0.16026 -0.00400
N 	N 	0.68110 0.20608 0.10403 -0.19400
H 	H 	0.67086 0.20661 0.01898 0.05100
C 	C 	0.64901 0.15451 0.18159 -0.08600
C 	C 	0.64611 0.15232 0.22789 0.10300
C 	C 	0.63369 0.17639 0.25333 -0.05000
C 	C 	0.62521 0.20240 0.23220 -0.05200
C 	C 	0.62762 0.20432 0.18584 0.07100
H 	H 	0.65809 0.13595 0.16191 0.05900
N 	N 	0.65461 0.12678 0.24741 -0.20000
H 	H 	0.61598 0.22091 0.25182 0.04900
N 	N 	0.61862 0.22956 0.16613 -0.19400
H 	H 	0.66385 0.10926 0.22830 0.09100
H 	H 	0.65194 0.12383 0.28146 0.09600
H 	H 	0.60991 0.24738 0.18528 0.08500
H 	H 	0.62035 0.23192 0.13183 0.09000
H 	H 	0.69584 0.21706 0.08460 0.08700
H 	H 	0.68424 0.20491 0.13804 0.09100
H 	H 	0.59371 0.14486 0.98992 0.09300
H 	H 	0.57936 0.13694 0.04366 0.08700
C 	C 	0.03968 0.05274 0.31677 -0.16100
C 	C 	0.02160 0.02831 0.32166 0.15000
C 	C 	0.99967 0.03107 0.35238 -0.07800
C 	C 	0.99616 0.05817 0.37767 0.01900
C 	C 	0.01820 0.07865 0.38038 0.08800
C 	C 	0.04093 0.07434 0.35185 -0.06800
H 	H 	0.98397 0.01380 0.35308 0.10000
C 	C 	0.96838 0.06773 0.39233 0.02700
H 	H 	0.05718 0.09102 0.35203 0.02500
C 	C 	0.96185 0.07131 0.43773 -0.08300
C 	C 	0.93521 0.07858 0.45217 0.14300
C 	C 	0.91429 0.07982 0.42085 -0.11400
C 	C 	0.92146 0.07930 0.37542 -0.02400
C 	C 	0.94831 0.07337 0.36101 0.07600
H 	H 	0.97756 0.06868 0.46181 0.08800
H 	H 	0.90586 0.08227 0.35114 0.04900
Br	Br	0.01586 0.11494 0.41711 -0.21300
Br	Br	0.02432 0.99343 0.28232 -0.24000
Br	Br	0.92890 0.08979 0.51376 -0.20600
Br	Br	0.95702 0.07273 0.29835 -0.22400
C 	C 	0.91429 0.00610 0.49772 -0.10100
C 	C 	0.93630 0.00146 0.46642 0.15000
C 	C 	0.96324 0.00357 0.48026 -0.09000
C 	C 	0.96894 0.01130 0.52443 0.02900
C 	C 	0.94734 0.01428 0.55610 0.08800
C 	C 	0.92018 0.01155 0.54274 -0.00200
H 	H 	0.97987 0.00107 0.45589 0.09300
C 	C 	0.99730 0.01965 0.53565 0.02800
H 	H 	0.90368 0.01421 0.56730 0.07700
C 	C 	0.00450 0.05040 0.53867 -0.07900
C 	C 	0.03155 0.05932 0.52991 0.15600
C 	C 	0.05147 0.03738 0.51804 -0.08400
C 	C 	0.04530 0.00676 0.52393 -0.01100
C 	C 	0.01819 0.99774 0.53211 0.10100
H 	H 	0.98882 0.06742 0.54461 0.09900
H 	H 	0.06100 0.98976 0.51791 0.07600
Br	Br	0.95452 0.02159 0.61771 -0.18100
Br	Br	0.93071 0.99478 0.40390 -0.35200
Br	Br	0.04092 0.10143 0.53349 -0.18500
Br	Br	0.00980 0.95546 0.53534 -0.18400
C 	C 	0.68307 0.17028 0.47833 -0.06000
C 	C 	0.70363 0.14952 0.46532 0.00700
C 	C 	0.70399 0.13630 0.42206 0.00300
C 	C 	0.68351 0.14334 0.39278 -0.03100
C 	C 	0.66275 0.16388 0.40575 -0.03100
C 	C 	0.66289 0.17794 0.44858 0.03000
C 	C 	0.72531 0.14232 0.49644 0.01400
S 	S 	0.73021 0.11115 0.40400 -0.01500
H 	H 	0.68357 0.13255 0.35993 0.04700
S 	S 	0.63913 0.20646 0.46434 -0.03500
H 	H 	0.68309 0.18092 0.51126 0.05200
C 	C 	0.75015 0.15844 0.49519 -0.00300
C 	C 	0.77425 0.14411 0.50688 -0.00700
C 	C 	0.77369 0.11363 0.51846 -0.07700
C 	C 	0.74831 0.10016 0.52891 0.05200
C 	C 	0.72410 0.11470 0.51804 -0.06700
S 	S 	0.75176 0.19516 0.47445 -0.04100
H 	H 	0.79372 0.15534 0.50157 0.03800
S 	S 	0.74669 0.06395 0.55138 -0.01600
H 	H 	0.70470 0.10309 0.52195 0.05600
H 	H 	0.64923 0.23396 0.45203 0.03800
H 	H 	0.75615 0.19323 0.42933 0.03900
H 	H 	0.74606 0.06675 0.59681 0.04600
H 	H 	0.75214 0.12740 0.38850 0.04300
C 	C 	0.94448 0.06156 0.72842 -0.09000
C 	C 	0.95608 0.08486 0.70300 0.14600
C 	C 	0.98452 0.08605 0.69593 -0.07700
C 	C 	0.00134 0.06394 0.71333 0.02600
C 	C 	0.98935 0.03858 0.73319 0.09000
C 	C 	0.96098 0.03693 0.73880 -0.01300
H 	H 	0.99357 0.10464 0.67812 0.09900
C 	C 	0.03101 0.06957 0.71648 0.02600
H 	H 	0.95199 0.01774 0.75527 0.07800
C 	C 	0.04050 0.08794 0.75155 -0.08300
C 	C 	0.06842 0.08943 0.75999 0.15700
C 	C 	0.08722 0.07262 0.73277 -0.10000
C 	C 	0.07792 0.05668 0.69511 -0.01100
C 	C 	0.04990 0.05443 0.68749 0.09300
H 	H 	0.02608 0.10027 0.77321 0.08800
H 	H 	0.09235 0.04484 0.67287 0.06500
Br	Br	0.01145 0.00740 0.75677 -0.20300
Br	Br	0.93363 0.11343 0.67439 -0.20200
Br	Br	0.08043 0.11531 0.80784 -0.22400
Br	Br	0.03774 0.02858 0.63979 -0.17800
C 	C 	0.03510 0.13681 0.91934 -0.13600
C 	C 	0.02330 0.11336 0.89376 0.15300
C 	C 	0.00400 0.12032 0.86239 -0.09100
C 	C 	0.99687 0.15060 0.85635 0.02300
C 	C 	0.01345 0.17368 0.87419 0.08300
C 	C 	0.03265 0.16669 0.90573 -0.00400
H 	H 	0.99276 0.10227 0.84590 0.06000
C 	C 	0.96874 0.15743 0.84403 0.01100
H 	H 	0.04344 0.18478 0.92294 0.05300
C 	C 	0.94798 0.15785 0.87715 -0.10700
C 	C 	0.92063 0.15529 0.86559 0.10900
C 	C 	0.91396 0.15216 0.82063 -0.14300
C 	C 	0.93437 0.15632 0.78770 -0.02300
C 	C 	0.96181 0.15840 0.79918 0.07300
H 	H 	0.95321 0.15849 0.91187 0.07100
H 	H 	0.92909 0.15621 0.75310 0.07300
Br	Br	0.00902 0.21484 0.85781 -0.21700
Br	Br	0.03236 0.07191 0.90292 -0.25500
Br	Br	0.89264 0.15537 0.91153 -0.30100
Br	Br	0.98955 0.16156 0.75331 -0.20700
C 	C 	0.67777 0.15586 0.78951 -0.05900
C 	C 	0.70529 0.15926 0.80030 0.00400
C 	C 	0.71204 0.17373 0.84098 0.00500
C 	C 	0.69130 0.18382 0.87070 -0.03300
C 	C 	0.66375 0.17835 0.86154 -0.03000
C 	C 	0.65699 0.16406 0.82052 0.03000
C 	C 	0.72676 0.14429 0.77172 0.01500
S 	S 	0.74636 0.17793 0.85615 -0.03300
H 	H 	0.69664 0.19512 0.90175 0.04800
S 	S 	0.62309 0.15357 0.80926 -0.03900
H 	H 	0.67256 0.14487 0.75819 0.05200
C 	C 	0.73174 0.11302 0.77484 -0.00300
C 	C 	0.75713 0.10113 0.76087 -0.00400
C 	C 	0.77803 0.12044 0.74625 -0.07600
C 	C 	0.77151 0.15041 0.73618 0.05300
C 	C 	0.74567 0.16211 0.74833 -0.06900
S 	S 	0.70742 0.08915 0.79998 -0.02800
H 	H 	0.76165 0.07755 0.76627 0.04800
S 	S 	0.79638 0.17429 0.71268 -0.03700
H 	H 	0.74131 0.18581 0.74358 0.05300
H 	H 	0.61782 0.12562 0.82590 0.03800
H 	H 	0.71064 0.09022 0.84501 0.04200
H 	H 	0.81190 0.18664 0.74577 0.04900
H 	H 	0.75474 0.15204 0.87550 0.04600
C 	C 	0.85882 0.47742 0.35207 -0.05000
C 	C 	0.86599 0.44995 0.32945 0.10200
C 	C 	0.85409 0.42277 0.34329 -0.08500
C 	C 	0.83499 0.42291 0.37888 -0.00500
C 	C 	0.82448 0.45080 0.39606 0.07100
C 	C 	0.83657 0.47795 0.38247 -0.05100
N 	N 	0.88488 0.44944 0.29546 -0.20000
H 	H 	0.86105 0.40138 0.32838 0.05700
C 	C 	0.83084 0.39480 0.40370 -0.00400
N 	N 	0.80326 0.45160 0.42618 -0.19400
H 	H 	0.83006 0.49928 0.39812 0.05000
C 	C 	0.84739 0.38971 0.43987 -0.08500
C 	C 	0.84828 0.36115 0.45875 0.10200
C 	C 	0.83115 0.33763 0.44239 -0.04900
C 	C 	0.81310 0.34346 0.40836 -0.05200
C 	C 	0.81278 0.37188 0.38877 0.07000
H 	H 	0.86080 0.40758 0.45176 0.05700
N 	N 	0.86628 0.35621 0.49134 -0.20000
H 	H 	0.79980 0.32557 0.39624 0.05000
N 	N 	0.79510 0.37700 0.35586 -0.19400
H 	H 	0.87838 0.37390 0.50367 0.08700
H 	H 	0.86901 0.33481 0.50405 0.09500
H 	H 	0.78227 0.35973 0.34430 0.08600
H 	H 	0.79343 0.39831 0.34223 0.08900
H 	H 	0.79619 0.47224 0.43998 0.08700
H 	H 	0.79300 0.43184 0.43499 0.08900
H 	H 	0.89304 0.46946 0.28319 0.09500
H 	H 	0.89091 0.42893 0.27994 0.08800
C 	C 	0.94330 0.47118 0.79466 -0.04900
C 	C 	0.92099 0.47545 0.82532 0.10200
C 	C 	0.90968 0.45030 0.84644 -0.08600
C 	C 	0.91858 0.42091 0.83468 -0.00500
C 	C 	0.94011 0.41658 0.80264 0.07400
C 	C 	0.95292 0.44187 0.78432 -0.05300
N 	N 	0.90961 0.50326 0.83320 -0.19900
H 	H 	0.89305 0.45350 0.87071 0.05500
C 	C 	0.90434 0.39481 0.85455 -0.00500
N 	N 	0.94814 0.38830 0.78861 -0.19400
H 	H 	0.96985 0.43865 0.76062 0.05300
C 	C 	0.87834 0.38670 0.83984 -0.08600
C 	C 	0.86656 0.35899 0.85141 0.10200
C 	C 	0.88208 0.33811 0.87481 -0.05000
C 	C 	0.90666 0.34770 0.89374 -0.05300
C 	C 	0.91755 0.37633 0.88478 0.07300
H 	H 	0.86746 0.40176 0.81885 0.05500
N 	N 	0.84021 0.35291 0.84116 -0.19900
H 	H 	0.91795 0.33240 0.91378 0.05500
N 	N 	0.94090 0.38565 0.90444 -0.19400
H 	H 	0.82933 0.36768 0.82188 0.08600
H 	H 	0.82981 0.33452 0.85455 0.09300
H 	H 	0.95113 0.37138 0.92537 0.09000
H 	H 	0.94857 0.40748 0.90040 0.09200
H 	H 	0.96464 0.38539 0.76609 0.09100
H 	H 	0.93759 0.36901 0.79849 0.09400
H 	H 	0.91481 0.52161 0.81376 0.09700
H 	H 	0.89411 0.50635 0.85750 0.08800
C 	C 	0.96310 0.52093 0.65477 -0.05000
C 	C 	0.98603 0.52526 0.62587 0.10300
C 	C 	0.98204 0.52848 0.58030 -0.08600
C 	C 	0.95583 0.52605 0.56299 -0.00400
C 	C 	0.93310 0.52015 0.59160 0.07200
C 	C 	0.93695 0.51821 0.63733 -0.05200
N 	N 	0.01187 0.52541 0.64133 -0.19900
H 	H 	0.99943 0.53246 0.55815 0.05800
C 	C 	0.95239 0.52948 0.51479 -0.00500
N 	N 	0.90764 0.51616 0.57539 -0.19400
H 	H 	0.91947 0.51463 0.65949 0.05100
C 	C 	0.95683 0.50436 0.48590 -0.08600
C 	C 	0.94773 0.50452 0.44219 0.10300
C 	C 	0.93282 0.52969 0.42811 -0.05000
C 	C 	0.93134 0.55609 0.45524 -0.05300
C 	C 	0.94140 0.55636 0.49839 0.07300
H 	H 	0.96658 0.48432 0.49788 0.05700
N 	N 	0.95359 0.48072 0.41378 -0.19900
H 	H 	0.92107 0.57594 0.44366 0.05300
N 	N 	0.93992 0.58217 0.52418 -0.19400
H 	H 	0.96356 0.46163 0.42489 0.08900
H 	H 	0.94953 0.48160 0.38001 0.09500
H 	H 	0.93088 0.60163 0.51240 0.09100
H 	H 	0.94850 0.58347 0.55551 0.09300
H 	H 	0.89093 0.51251 0.59694 0.08600
H 	H 	0.90420 0.51593 0.54137 0.09100
H 	H 	0.01579 0.51998 0.67397 0.09700
H 	H 	0.02855 0.52973 0.62003 0.09100
C 	C 	0.05239 0.90700 0.90636 -0.09500
C 	C 	0.06281 0.93340 0.88702 0.15300
C 	C 	0.07239 0.95715 0.91400 -0.08600
C 	C 	0.07169 0.95497 0.96027 0.02700
C 	C 	0.06383 0.92755 0.97937 0.08500
C 	C 	0.05409 0.90370 0.95240 -0.00100
H 	H 	0.07916 0.97796 0.89911 0.06700
C 	C 	0.07472 0.98278 0.98804 0.02300
H 	H 	0.04688 0.88312 0.96744 0.07600
C 	C 	0.05134 0.99966 0.00019 -0.06900
C 	C 	0.05353 0.03014 0.01346 0.14600
C 	C 	0.07965 0.04374 0.01636 -0.09100
C 	C 	0.10310 0.02571 0.00897 -0.01200
C 	C 	0.10071 0.99543 0.99457 0.08400
H 	H 	0.03129 0.98964 0.99628 0.09200
H 	H 	0.12323 0.03542 0.01333 0.07000
Br	Br	0.06640 0.92234 0.04203 -0.16700
Br	Br	0.06369 0.93772 0.82386 -0.31500
Br	Br	0.02043 0.05294 0.02395 -0.20900
Br	Br	0.13315 0.97183 0.98303 -0.22000
C 	C 	0.94672 0.87014 0.85015 -0.11600
C 	C 	0.92265 0.86888 0.82579 0.14700
C 	C 	0.90479 0.89360 0.82744 -0.08300
C 	C 	0.91139 0.92011 0.85177 0.01900
C 	C 	0.93422 0.92030 0.87918 0.08300
C 	C 	0.95139 0.89502 0.87903 -0.01800
H 	H 	0.88673 0.89298 0.80748 0.08700
C 	C 	0.89699 0.94855 0.84307 0.02200
H 	H 	0.96916 0.89541 0.89963 0.07300
C 	C 	0.87790 0.96063 0.87448 -0.08600
C 	C 	0.86472 0.98805 0.86702 0.14400
C 	C 	0.87003 0.00308 0.82717 -0.12900
C 	C 	0.88820 0.99022 0.79500 -0.00600
C 	C 	0.90226 0.96365 0.80330 0.07900
H 	H 	0.87355 0.94889 0.90490 0.08900
H 	H 	0.89194 0.00132 0.76389 0.07100
Br	Br	0.94337 0.95558 0.91457 -0.21900
Br	Br	0.91410 0.83384 0.78948 -0.22200
Br	Br	0.83884 0.00394 0.91080 -0.23900
Br	Br	0.92944 0.94898 0.76063 -0.23500
C 	C 	0.08195 0.85573 0.75840 -0.13600
C 	C 	0.10195 0.87142 0.78296 0.14800
C 	C 	0.11728 0.89431 0.76318 -0.08600
C 	C 	0.11321 0.90156 0.71894 0.01700
C 	C 	0.09492 0.88425 0.69334 0.08200
C 	C 	0.07893 0.86190 0.71341 -0.02500
H 	H 	0.13180 0.90717 0.78268 0.06900
C 	C 	0.12705 0.92842 0.70085 0.02400
H 	H 	0.06403 0.84947 0.69410 0.05000
C 	C 	0.15537 0.92745 0.69218 -0.09500
C 	C 	0.17036 0.95433 0.68862 0.14800
C 	C 	0.15695 0.98240 0.69374 -0.14100
C 	C 	0.12841 0.98326 0.69818 -0.03000
C 	C 	0.11338 0.95646 0.70108 0.07200
H 	H 	0.16594 0.90591 0.69082 0.08700
H 	H 	0.11801 0.00481 0.70167 0.03100
Br	Br	0.09172 0.89058 0.63100 -0.18700
Br	Br	0.10789 0.86313 0.84412 -0.22100
Br	Br	0.20925 0.95232 0.67916 -0.23200
Br	Br	0.07429 0.95875 0.70679 -0.20900
C 	C 	0.97477 0.62640 0.81135 -0.06000
C 	C 	0.00084 0.62932 0.82904 0.00600
C 	C 	0.01709 0.60336 0.83352 0.00700
C 	C 	0.00818 0.57530 0.81638 -0.03200
C 	C 	0.98298 0.57291 0.79558 -0.03100
C 	C 	0.96570 0.59833 0.79489 0.03100
C 	C 	0.01190 0.65995 0.83814 0.01700
S 	S 	0.04868 0.60581 0.85982 -0.02800
H 	H 	0.02118 0.55557 0.81805 0.04800
S 	S 	0.93270 0.59527 0.77338 -0.03800
H 	H 	0.96192 0.64621 0.80904 0.05600
C 	C 	0.02729 0.67480 0.80511 -0.00200
C 	C 	0.03200 0.70594 0.80953 -0.00200
C 	C 	0.02102 0.72267 0.84613 -0.07400
C 	C 	0.00744 0.70743 0.88084 0.05300
C 	C 	0.00320 0.67612 0.87679 -0.06800
S 	S 	0.03933 0.65498 0.75679 -0.02600
H 	H 	0.04305 0.71745 0.78333 0.05300
S 	S 	0.99422 0.72741 0.92819 -0.02000
H 	H 	0.99178 0.66462 0.90260 0.05700
H 	H 	0.93411 0.59956 0.72856 0.04300
H 	H 	0.01932 0.65440 0.72592 0.04200
H 	H 	0.01369 0.72900 0.95993 0.05100
H 	H 	0.06893 0.61176 0.82899 0.04300
C 	C 	0.96205 0.90550 0.21142 -0.10000
C 	C 	0.95965 0.93493 0.23069 0.16000
C 	C 	0.97113 0.95953 0.20887 -0.08200
C 	C 	0.98332 0.95555 0.16635 0.03200
C 	C 	0.98195 0.92693 0.14438 0.08100
C 	C 	0.97206 0.90187 0.16737 0.00000
H 	H 	0.97097 0.98171 0.22532 0.10400
C 	C 	0.00029 0.98032 0.14777 0.03200
H 	H 	0.97287 0.87956 0.15140 0.07600
C 	C 	0.02863 0.97625 0.14196 -0.07400
C 	C 	0.04586 0.00118 0.13582 0.15000
C 	C 	0.03503 0.03080 0.13958 -0.09100
C 	C 	0.00649 0.03453 0.13993 -0.00300
C 	C 	0.98915 0.00936 0.14293 0.08500
H 	H 	0.03736 0.95381 0.14343 0.10200
H 	H 	0.99773 0.05701 0.13973 0.06800
Br	Br	0.99206 0.92203 0.08258 -0.18400
Br	Br	0.93993 0.94214 0.28608 -0.31200
Br	Br	0.08358 0.99416 0.11942 -0.19200
Br	Br	0.95039 0.01505 0.14022 -0.20000
C 	C 	0.87339 0.84953 0.31841 -0.12400
C 	C 	0.87582 0.85972 0.36305 0.12000
C 	C 	0.85787 0.88180 0.38086 -0.08900
C 	C 	0.83518 0.89070 0.35704 0.02000
C 	C 	0.83019 0.87647 0.31552 0.07800
C 	C 	0.84979 0.85694 0.29563 -0.00700
H 	H 	0.86143 0.89184 0.41347 0.07900
C 	C 	0.81936 0.91776 0.37264 0.02100
H 	H 	0.84670 0.84768 0.26242 0.07000
C 	C 	0.81958 0.94348 0.34655 -0.09800
C 	C 	0.81122 0.97145 0.36495 0.10600
C 	C 	0.80535 0.97456 0.41091 -0.12300
C 	C 	0.80183 0.94840 0.43566 -0.00800
C 	C 	0.80807 0.91990 0.41624 0.07700
H 	H 	0.82721 0.94196 0.31244 0.07600
H 	H 	0.79554 0.95026 0.47041 0.07100
Br	Br	0.79636 0.88249 0.28640 -0.20300
Br	Br	0.89985 0.84022 0.40250 -0.33100
Br	Br	0.80767 0.00510 0.32682 -0.30400
Br	Br	0.80084 0.88426 0.44934 -0.20000
C 	C 	0.02064 0.83292 0.32607 -0.11200
C 	C 	0.03735 0.85231 0.30052 0.14600
C 	C 	0.05635 0.87112 0.32162 -0.08700
C 	C 	0.05825 0.87161 0.36796 0.02400
C 	C 	0.04391 0.84993 0.39261 0.07800
C 	C 	0.02560 0.83032 0.37144 -0.02100
H 	H 	0.06810 0.88713 0.30236 0.08900
C 	C 	0.06973 0.89865 0.39054 0.02300
H 	H 	0.01370 0.81459 0.39095 0.06300
C 	C 	0.05386 0.92496 0.39490 -0.08200
C 	C 	0.06502 0.95185 0.41187 0.14900
C 	C 	0.09211 0.95239 0.42629 -0.10700
C 	C 	0.10769 0.92571 0.42372 -0.00100
C 	C 	0.09678 0.89898 0.40521 0.08700
H 	H 	0.03300 0.92472 0.38373 0.07800
H 	H 	0.12863 0.92604 0.43445 0.07100
Br	Br	0.04731 0.84851 0.45580 -0.19300
Br	Br	0.03351 0.85525 0.23751 -0.20200
Br	Br	0.04321 0.98777 0.41344 -0.32300
Br	Br	0.11934 0.86355 0.39881 -0.18900
C 	C 	0.89697 0.67670 0.21483 -0.06700
C 	C 	0.91442 0.65614 0.23434 0.01600
C 	C 	0.94146 0.66492 0.24328 -0.00100
C 	C 	0.94946 0.69506 0.23846 -0.00300
C 	C 	0.93061 0.71665 0.22551 -0.07300
C 	C 	0.90484 0.70702 0.21077 0.05200
C 	C 	0.90285 0.62831 0.25348 0.00600
S 	S 	0.96480 0.63894 0.26385 -0.02500
H 	H 	0.96969 0.70219 0.24820 0.04900
S 	S 	0.88159 0.73309 0.19028 -0.01800
H 	H 	0.87650 0.66972 0.20623 0.05600
C 	C 	0.89000 0.62946 0.29601 0.00400
C 	C 	0.88492 0.60268 0.31826 -0.03100
C 	C 	0.89305 0.57472 0.29901 -0.03000
C 	C 	0.90354 0.57332 0.25491 0.03000
C 	C 	0.90813 0.60012 0.23219 -0.05800
S 	S 	0.88171 0.66439 0.32284 -0.02200
H 	H 	0.87619 0.60373 0.35176 0.04800
S 	S 	0.91229 0.53835 0.22868 -0.03900
H 	H 	0.91733 0.59913 0.19902 0.05400
H 	H 	0.86638 0.74570 0.22500 0.05100
H 	H 	0.85621 0.67314 0.31082 0.04200
H 	H 	0.93864 0.53119 0.23831 0.04000
H 	H 	0.96153 0.63821 0.30911 0.04300
