data_crystal

_cell_length_a 24.75086
_cell_length_b 22.55891
_cell_length_c 49.91685
_cell_angle_alpha 90.57048
_cell_angle_beta  90.66415
_cell_angle_gamma 112.35941

_symmetry_space_group_name_	'P 1'
_symmetry_space_group_name_H-M	'P 1'

loop_
_symmetry_equiv_pos_as_xyz
  x,y,z

loop_
_atom_site_label
_atom_site_type_symbol
_atom_site_fract_x
_atom_site_fract_y
_atom_site_fract_z
_atom_site_charge
C 	C 	0.02013 0.96090 0.75965 -0.04700
H 	H 	0.02557 0.95947 0.73761 0.05200
C 	C 	0.00717 0.96439 0.81271 -0.04900
H 	H 	0.00201 0.96601 0.83476 0.05300
C 	C 	0.07634 0.99718 0.77575 0.02500
C 	C 	0.06994 0.99835 0.80295 0.02500
Ni	Ni	0.25360 0.74069 0.39380 1.10200
O 	O 	0.32165 0.76859 0.36714 -0.69900
O 	O 	0.20607 0.79231 0.37954 -0.36500
O 	O 	0.27022 0.85189 0.34828 -0.40100
O 	O 	0.20463 0.66583 0.36862 -0.36400
Ni	Ni	0.35216 0.86106 0.36202 1.07100
O 	O 	0.19503 0.60651 0.42013 -0.39600
O 	O 	0.33853 0.87305 0.40169 -0.42200
O 	O 	0.31046 0.71145 0.41274 -0.70500
O 	O 	0.19005 0.70610 0.42159 -0.36900
O 	O 	0.36080 0.61336 0.40709 -0.41400
Ni	Ni	0.27944 0.61808 0.41277 1.06700
H 	H 	0.31275 0.74398 0.35002 0.16400
H 	H 	0.31771 0.72849 0.43136 0.15100
C 	C 	0.37091 0.86053 0.42034 0.26900
O 	O 	0.26497 0.61140 0.37259 -0.42500
C 	C 	0.22520 0.84235 0.36371 0.31600
C 	C 	0.21743 0.61573 0.36274 0.32000
C 	C 	0.17994 0.64986 0.43258 0.28100
Ni	Ni	0.37520 0.75986 0.18476 1.09900
O 	O 	0.29992 0.71019 0.16370 -0.69800
Ni	Ni	0.24126 0.73360 0.18417 1.10100
O 	O 	0.36299 0.62203 0.16941 -0.41100
O 	O 	0.38379 0.82886 0.15734 -0.40400
Ni	Ni	0.27830 0.61791 0.16325 1.07500
O 	O 	0.27129 0.61568 0.20366 -0.41700
O 	O 	0.17192 0.68812 0.15915 -0.36700
O 	O 	0.31522 0.77530 0.20744 -0.70000
O 	O 	0.19558 0.78095 0.20298 -0.37400
O 	O 	0.26934 0.87770 0.19626 -0.40900
Ni	Ni	0.34184 0.86821 0.21432 1.06900
H 	H 	0.30163 0.72527 0.14506 0.15500
H 	H 	0.31175 0.75252 0.22458 0.15700
C 	C 	0.22204 0.61163 0.21394 0.32300
C 	C 	0.16839 0.63518 0.14630 0.26800
C 	C 	0.21570 0.84396 0.20385 0.29700
O 	O 	0.20462 0.65955 0.21101 -0.36800
O 	O 	0.19055 0.59589 0.15731 -0.38900
C 	C 	0.13483 0.43225 0.21320 -0.12800
C 	C 	0.09911 0.42548 0.23539 0.02000
C 	C 	0.10181 0.48029 0.25004 0.12200
C 	C 	0.14168 0.54118 0.24287 -0.02400
C 	C 	0.17924 0.54760 0.22125 -0.13300
C 	C 	0.17565 0.49238 0.20644 0.21100
C 	C 	0.06384 0.36045 0.24480 -0.01100
O 	O 	0.06752 0.47422 0.27205 -0.26600
H 	H 	0.14411 0.58307 0.25442 0.05800
O 	O 	0.21123 0.49724 0.18502 -0.34400
H 	H 	0.13243 0.39028 0.20169 0.07500
C 	C 	0.05989 0.25934 0.26288 0.14900
C 	C 	0.09218 0.32221 0.25517 -0.08800
O 	O 	0.08843 0.22097 0.27098 -0.28600
H 	H 	0.13942 0.34110 0.25701 0.07200
H 	H 	0.24529 0.48934 0.19234 0.14400
H 	H 	0.09792 0.23123 0.29023 0.14500
H 	H 	0.03141 0.47840 0.26519 0.15500
C 	C 	0.01285 0.96413 0.22861 -0.07900
C 	C 	0.07245 0.98207 0.23478 -0.01100
C 	C 	0.10106 0.03584 0.25141 0.14000
C 	C 	0.06962 0.06974 0.26255 -0.08800
C 	C 	0.00900 0.04877 0.25817 -0.01400
C 	C 	0.10416 0.94254 0.22511 0.00700
O 	O 	0.15974 0.05507 0.25693 -0.28000
H 	H 	0.09176 0.10987 0.27594 0.08000
C 	C 	0.10236 0.88859 0.23954 0.11600
C 	C 	0.13839 0.85613 0.23228 -0.03600
C 	C 	0.17592 0.87671 0.21045 -0.12100
C 	C 	0.17593 0.92927 0.19536 0.18900
C 	C 	0.13998 0.96176 0.20272 -0.10500
O 	O 	0.06721 0.86917 0.26141 -0.28200
H 	H 	0.13797 0.81571 0.24396 0.05700
O 	O 	0.20934 0.94740 0.17289 -0.28700
H 	H 	0.14081 0.00271 0.19130 0.07100
H 	H 	0.02943 0.83794 0.25427 0.14800
H 	H 	0.24632 0.98188 0.17904 0.15300
H 	H 	0.16245 0.03236 0.27350 0.15000
C 	C 	0.05594 0.36494 0.33322 -0.00200
C 	C 	0.07514 0.31616 0.34086 0.13600
C 	C 	0.04105 0.25218 0.33433 -0.08200
C 	C 	0.09379 0.43309 0.33771 0.01700
O 	O 	0.12555 0.33060 0.35579 -0.28100
H 	H 	0.05717 0.21516 0.33902 0.05900
C 	C 	0.14643 0.46113 0.32374 0.12100
C 	C 	0.18550 0.52305 0.33078 -0.03000
C 	C 	0.17157 0.55789 0.35112 -0.12900
C 	C 	0.11596 0.53245 0.36284 0.19700
C 	C 	0.07802 0.46973 0.35659 -0.11700
O 	O 	0.15841 0.42938 0.30247 -0.26900
H 	H 	0.22708 0.54339 0.32081 0.05000
O 	O 	0.09988 0.56752 0.38145 -0.27900
H 	H 	0.03675 0.44914 0.36680 0.07900
H 	H 	0.18517 0.40983 0.30967 0.13700
H 	H 	0.07981 0.59061 0.37106 0.15900
H 	H 	0.15579 0.33106 0.34286 0.14000
C 	C 	0.14046 0.92328 0.32497 -0.11800
C 	C 	0.11152 0.94078 0.34567 0.01500
C 	C 	0.11928 0.92531 0.37229 0.11600
C 	C 	0.15626 0.89285 0.37803 -0.03100
C 	C 	0.18556 0.87554 0.35731 -0.12500
C 	C 	0.17632 0.88961 0.33055 0.20000
C 	C 	0.07239 0.97437 0.33921 -0.00600
O 	O 	0.08931 0.93995 0.39257 -0.27000
H 	H 	0.16239 0.88146 0.39860 0.05700
O 	O 	0.20204 0.87027 0.30983 -0.29500
H 	H 	0.13453 0.93512 0.30446 0.08400
C 	C 	0.09306 0.04162 0.34105 0.13400
C 	C 	0.05953 0.07395 0.33045 -0.08800
C 	C 	0.01703 0.93986 0.32792 -0.08500
O 	O 	0.14778 0.07601 0.35145 -0.28300
H 	H 	0.07727 0.12576 0.33050 0.06200
H 	H 	0.00078 0.88800 0.32660 0.07400
H 	H 	0.17342 0.82740 0.30422 0.15300
H 	H 	0.14181 0.08252 0.37069 0.14300
H 	H 	0.11578 0.98252 0.39960 0.14400
C 	C 	0.01525 0.55654 0.51719 0.00500
C 	C 	0.05882 0.58292 0.49625 0.02800
C 	C 	0.10588 0.56313 0.49421 -0.06600
C 	C 	0.14612 0.58624 0.47375 0.01400
C 	C 	0.13970 0.62941 0.45513 -0.08500
C 	C 	0.09326 0.65032 0.45751 0.02100
C 	C 	0.05294 0.62710 0.47801 -0.06500
H 	H 	0.11103 0.52954 0.50839 0.04700
H 	H 	0.18215 0.57033 0.47226 0.01100
H 	H 	0.08763 0.68334 0.44318 0.04500
H 	H 	0.40791 0.53423 0.42719 0.03200
H 	H 	0.43161 0.49178 0.46913 0.04600
H 	H 	0.02080 0.09398 0.73591 0.07300
C 	C 	0.32965 0.17524 0.72260 -0.11600
C 	C 	0.31229 0.13117 0.74345 0.01100
C 	C 	0.35477 0.11949 0.75912 0.11600
C 	C 	0.24962 0.09785 0.74899 -0.01000
O 	O 	0.33831 0.07644 0.77961 -0.27300
H 	H 	0.29708 0.18376 0.71026 0.07200
C 	C 	0.21724 0.13201 0.75945 0.13700
C 	C 	0.15849 0.09950 0.76568 -0.08200
C 	C 	0.13246 0.03265 0.76268 -0.04000
C 	C 	0.16343 0.99923 0.75035 0.15500
C 	C 	0.22198 0.03185 0.74366 -0.10100
O 	O 	0.24383 0.19644 0.76498 -0.27400
H 	H 	0.13401 0.12578 0.77424 0.07000
O 	O 	0.13763 0.93416 0.74629 -0.29200
H 	H 	0.24624 0.00567 0.73483 0.06500
H 	H 	0.23748 0.21790 0.74868 0.14800
H 	H 	0.11946 0.92837 0.72814 0.14700
H 	H 	0.33540 0.03495 0.77155 0.14100
O 	O 	0.04414 0.79888 0.78069 -0.25800
H 	H 	0.07670 0.80737 0.76802 0.15700
C 	C 	0.12924 0.61321 0.12258 -0.08200
C 	C 	0.11964 0.65816 0.10588 0.00800
C 	C 	0.08625 0.63796 0.08231 -0.06200
C 	C 	0.06217 0.57268 0.07517 0.02300
C 	C 	0.07080 0.52758 0.09204 -0.06200
C 	C 	0.10408 0.54767 0.11564 0.00800
C 	C 	0.02827 0.55161 0.04993 0.00900
C 	C 	0.05499 0.57255 0.02524 -0.04300
C 	C 	0.02261 0.55339 0.00135 -0.02800
H 	H 	0.13899 0.70884 0.11087 0.03500
H 	H 	0.07942 0.67308 0.06951 0.04800
H 	H 	0.11052 0.51231 0.12843 0.04000
H 	H 	0.10077 0.60367 0.02459 0.04100
H 	H 	0.04352 0.57000 0.98240 0.04100
O 	O 	0.01292 0.13186 0.79344 -0.28500
H 	H 	0.04097 0.14925 0.80858 0.14600
C 	C 	0.21558 0.02355 0.83437 -0.10400
C 	C 	0.23528 0.08900 0.84105 -0.00300
C 	C 	0.19572 0.12020 0.84059 0.13900
C 	C 	0.13838 0.08740 0.83115 -0.08000
C 	C 	0.12069 0.02406 0.82162 -0.03600
C 	C 	0.15820 0.99084 0.82498 0.16400
C 	C 	0.29789 0.12544 0.84708 0.01500
O 	O 	0.21389 0.18364 0.84795 -0.27500
H 	H 	0.10903 0.11257 0.82951 0.06100
O 	O 	0.13881 0.92649 0.81909 -0.27100
H 	H 	0.24524 0.99858 0.83566 0.07800
C 	C 	0.32267 0.11762 0.87162 0.11300
C 	C 	0.33323 0.16685 0.82790 -0.10800
O 	O 	0.28823 0.07895 0.89088 -0.27300
H 	H 	0.31422 0.17346 0.80905 0.09700
H 	H 	0.15034 0.92351 0.80033 0.16500
H 	H 	0.28967 0.03614 0.88760 0.14400
H 	H 	0.20646 0.18365 0.86743 0.15100
O 	O 	0.01606 0.82493 0.84125 -0.25300
H 	H 	0.01615 0.84930 0.85791 0.14600
H 	H 	0.05219 0.47704 0.08673 0.04700
C 	C 	0.00570 0.03969 0.31768 -0.01700
C 	C 	0.00983 0.59656 0.53778 -0.03300
H 	H 	0.03704 0.64723 0.53811 0.04100
H 	H 	0.01670 0.64266 0.47948 0.05100
Ni	Ni	0.38191 0.75059 0.38939 1.09700
O 	O 	0.45262 0.79431 0.36598 -0.39600
O 	O 	0.42965 0.71411 0.41324 -0.36900
C 	C 	0.47151 0.85632 0.36198 0.31200
C 	C 	0.40767 0.65323 0.41975 0.27800
O 	O 	0.40617 0.83087 0.41401 -0.36800
O 	O 	0.43970 0.88898 0.36928 -0.39700
O 	O 	0.42235 0.72499 0.16019 -0.37400
O 	O 	0.41591 0.87058 0.23312 -0.41100
O 	O 	0.45226 0.81540 0.20390 -0.38800
O 	O 	0.39161 0.91631 0.18277 -0.39600
C 	C 	0.40830 0.66298 0.15704 0.27800
C 	C 	0.40846 0.89029 0.16243 0.30900
C 	C 	0.46003 0.86511 0.22001 0.31300
C 	C 	0.44278 0.99749 0.51965 0.02200
C 	C 	0.41096 0.02276 0.53610 -0.05200
C 	C 	0.43723 0.05865 0.55905 -0.03000
C 	C 	0.41515 0.95939 0.49550 0.01800
C 	C 	0.40801 0.89478 0.49356 -0.06000
C 	C 	0.38930 0.86093 0.46941 0.01000
C 	C 	0.37764 0.89141 0.44695 -0.08200
C 	C 	0.38105 0.95483 0.44943 0.01300
C 	C 	0.39988 0.98873 0.47362 -0.05300
H 	H 	0.36585 0.01431 0.53117 0.04200
H 	H 	0.41221 0.07765 0.57174 0.03800
H 	H 	0.41873 0.87142 0.51051 0.04500
H 	H 	0.38603 0.81172 0.46784 0.02000
H 	H 	0.37198 0.97887 0.43229 0.03800
H 	H 	0.40471 0.03846 0.47503 0.04200
C 	C 	0.43186 0.63080 0.44289 -0.09600
C 	C 	0.42500 0.56616 0.44429 0.00900
C 	C 	0.43834 0.54204 0.46806 -0.06800
C 	C 	0.45878 0.58232 0.49063 0.02500
C 	C 	0.45529 0.67182 0.46506 0.01000
C 	C 	0.46709 0.55553 0.51647 -0.00000
C 	C 	0.41912 0.51010 0.52926 -0.03800
C 	C 	0.42669 0.48586 0.55408 -0.03800
C 	C 	0.48200 0.41690 0.59500 -0.06700
C 	C 	0.49743 0.39494 0.61888 0.00900
H 	H 	0.37596 0.49403 0.52006 0.03700
H 	H 	0.38938 0.45108 0.56386 0.04100
H 	H 	0.46574 0.38417 0.57809 0.04500
H 	H 	0.49342 0.34551 0.62011 0.03200
C 	C 	0.41419 0.15309 0.75424 -0.02700
C 	C 	0.43155 0.19744 0.73346 -0.12200
C 	C 	0.38892 0.20800 0.71742 0.19900
H 	H 	0.44675 0.14428 0.76648 0.04500
O 	O 	0.40516 0.25014 0.69661 -0.27900
H 	H 	0.40741 0.22419 0.68081 0.15600
C 	C 	0.44235 0.93170 0.14105 -0.09500
C 	C 	0.42468 0.97884 0.13028 0.03400
C 	C 	0.44651 0.00646 0.10571 -0.08700
C 	C 	0.48644 0.98742 0.09187 0.04900
C 	C 	0.50749 0.94407 0.10368 -0.07400
C 	C 	0.48551 0.91630 0.12815 0.02400
C 	C 	0.50235 0.00861 0.06417 -0.01700
C 	C 	0.48672 0.96357 0.04296 -0.02700
C 	C 	0.50018 0.98373 0.01660 -0.03500
C 	C 	0.49552 0.06334 0.96534 -0.06700
H 	H 	0.39155 0.99132 0.14009 0.03500
H 	H 	0.43051 0.04049 0.09691 0.05300
H 	H 	0.49990 0.88046 0.13644 0.03300
H 	H 	0.46365 0.91308 0.04688 0.03800
H 	H 	0.48775 0.94867 0.00036 0.04100
H 	H 	0.45078 0.03629 0.97097 0.04900
C 	C 	0.44813 0.63952 0.14293 -0.09000
C 	C 	0.47627 0.67041 0.11982 0.01200
C 	C 	0.50537 0.64178 0.10362 -0.06600
C 	C 	0.50675 0.58217 0.11048 0.02700
C 	C 	0.48341 0.55435 0.13488 -0.06700
C 	C 	0.45401 0.58278 0.15101 0.01300
C 	C 	0.52317 0.54446 0.09028 0.00000
C 	C 	0.48066 0.48755 0.07989 -0.03800
C 	C 	0.49151 0.45934 0.05666 -0.03800
C 	C 	0.54491 0.48778 0.04365 -0.00000
H 	H 	0.47292 0.71482 0.11365 0.03300
H 	H 	0.52383 0.66399 0.08494 0.04600
H 	H 	0.48542 0.50904 0.14063 0.04700
H 	H 	0.43416 0.55963 0.16932 0.03500
H 	H 	0.43804 0.46731 0.08895 0.03800
H 	H 	0.45733 0.41734 0.04800 0.04100
H 	H 	0.54521 0.37216 0.02881 0.04600
C 	C 	0.38245 0.15084 0.87677 -0.02900
C 	C 	0.41812 0.19123 0.85738 -0.12400
C 	C 	0.39320 0.19949 0.83289 0.19800
H 	H 	0.40124 0.14450 0.89572 0.06000
O 	O 	0.42739 0.23885 0.81374 -0.29000
H 	H 	0.42630 0.28164 0.81749 0.15200
H 	H 	0.47063 0.09166 0.92763 0.03500
O 	O 	0.49813 0.25366 0.88672 -0.37800
C 	C 	0.48116 0.22488 0.86299 0.31500
O 	O 	0.51914 0.22168 0.84507 -0.41000
O 	O 	0.52850 0.35984 0.67182 -0.36000
O 	O 	0.52098 0.19090 0.71880 -0.41300
O 	O 	0.51504 0.28931 0.72153 -0.38300
C 	C 	0.49367 0.22790 0.72683 0.31300
C 	C 	0.52054 0.90876 0.22669 -0.12600
C 	C 	0.53985 0.92255 0.25356 0.19900
O 	O 	0.50096 0.90228 0.27408 -0.29400
H 	H 	0.49989 0.85918 0.27869 0.14600
C 	C 	0.53403 0.89156 0.35698 -0.12100
H 	H 	0.53656 0.82910 0.32436 0.05000
O 	O 	0.54173 0.96436 0.39401 -0.27900
H 	H 	0.54773 0.94075 0.40969 0.15600
C 	C 	0.52330 0.10772 0.58986 0.03000
C 	C 	0.49561 0.06973 0.56567 -0.00600
C 	C 	0.52745 0.04455 0.54918 -0.02900
C 	C 	0.50115 0.00858 0.52626 -0.05800
H 	H 	0.52614 0.98951 0.51359 0.05100
C 	C 	0.46856 0.64763 0.48884 -0.06700
C 	C 	0.48224 0.50693 0.56632 -0.00000
C 	C 	0.53026 0.55206 0.55346 -0.03800
C 	C 	0.52270 0.57629 0.52865 -0.03800
C 	C 	0.49035 0.48172 0.59256 0.02500
C 	C 	0.52170 0.43777 0.64042 -0.09200
H 	H 	0.46082 0.72178 0.46428 0.03400
H 	H 	0.57340 0.56824 0.56267 0.03600
H 	H 	0.56000 0.61115 0.51889 0.04000
C 	C 	0.52928 0.04906 0.01124 -0.00400
C 	C 	0.54521 0.09404 0.03248 -0.03900
C 	C 	0.53185 0.07388 0.05883 -0.03200
C 	C 	0.54167 0.07079 0.98338 0.03000
C 	C 	0.50680 0.09441 0.94070 0.02200
C 	C 	0.56420 0.13350 0.93408 -0.09100
C 	C 	0.59943 0.10494 0.97564 -0.06800
H 	H 	0.53921 0.93008 0.09340 0.05200
C 	C 	0.58918 0.54159 0.05525 -0.03800
C 	C 	0.57836 0.56983 0.07853 -0.03800
C 	C 	0.55172 0.46617 0.01651 0.02600
C 	C 	0.55710 0.50676 0.99475 -0.06700
C 	C 	0.56154 0.48571 0.96881 0.01000
C 	C 	0.56066 0.42381 0.96439 -0.09500
C 	C 	0.55416 0.38277 0.98616 0.01100
C 	C 	0.54980 0.40395 0.01211 -0.06700
H 	H 	0.55753 0.55452 0.99796 0.04600
H 	H 	0.56595 0.51759 0.95217 0.03400
H 	H 	0.55388 0.33505 0.98304 0.03500
H 	H 	0.51497 0.19435 0.57600 0.04500
H 	H 	0.48473 0.67919 0.50612 0.04600
O 	O 	0.55031 0.34297 0.93054 -0.36600
H 	H 	0.54645 0.92146 0.18528 0.05500
C 	C 	0.54217 0.07928 0.61098 -0.06700
C 	C 	0.52849 0.17164 0.59236 -0.06800
H 	H 	0.53872 0.03006 0.60915 0.04700
C 	C 	0.61063 0.13624 0.95110 0.01900
H 	H 	0.63545 0.10973 0.98917 0.04700
H 	H 	0.61181 0.61312 0.08669 0.04000
O 	O 	0.54650 0.24133 0.67212 -0.37100
O 	O 	0.55557 0.16388 0.88870 -0.39600
C 	C 	0.57435 0.18185 0.91330 0.30600
C 	C 	0.57155 0.40405 0.93753 0.27700
C 	C 	0.55036 0.41878 0.66290 0.27900
C 	C 	0.56100 0.93102 0.20600 -0.02800
C 	C 	0.56131 0.87110 0.33643 -0.03200
C 	C 	0.56694 0.94554 0.37295 0.19400
C 	C 	0.56350 0.11356 0.63488 0.01600
C 	C 	0.54963 0.20585 0.61625 0.01300
C 	C 	0.51069 0.52343 0.61471 -0.06700
H 	H 	0.54416 0.10896 0.07506 0.03800
H 	H 	0.63100 0.56311 0.04558 0.03700
H 	H 	0.55196 0.25466 0.61819 0.02000
C 	C 	0.56582 0.17647 0.63789 -0.08800
H 	H 	0.57259 0.05307 0.55407 0.03700
C 	C 	0.52628 0.50158 0.63853 0.01100
H 	H 	0.56739 0.14465 0.02851 0.04000
Ni	Ni	0.57966 0.32529 0.69445 1.09900
Ni	Ni	0.58238 0.31209 0.89790 1.10100
H 	H 	0.57595 0.09034 0.65138 0.03300
H 	H 	0.51617 0.57327 0.61317 0.04800
C 	C 	0.00289 0.33385 0.24056 0.14900
C 	C 	0.57825 0.20875 0.66434 0.27000
H 	H 	0.54387 0.53479 0.65520 0.03600
H 	H 	0.65518 0.16570 0.94601 0.02400
O 	O 	0.59181 0.24205 0.92079 -0.39800
C 	C 	0.59934 0.95653 0.25943 -0.11900
O 	O 	0.59976 0.46001 0.67304 -0.40900
Ni	Ni	0.59544 0.21300 0.85514 1.07000
O 	O 	0.60414 0.44736 0.92082 -0.40700
Ni	Ni	0.60936 0.21397 0.72145 1.06700
H 	H 	0.61397 0.96673 0.28009 0.08500
C 	C 	0.62060 0.96325 0.21193 0.11200
O 	O 	0.61265 0.19542 0.68163 -0.42600
H 	H 	0.62192 0.32966 0.85143 0.16100
C 	C 	0.62049 0.90513 0.33123 0.11200
C 	C 	0.62564 0.98034 0.36730 -0.10500
O 	O 	0.62748 0.30326 0.86612 -0.70400
H 	H 	0.63517 0.33796 0.64990 0.15200
C 	C 	0.64009 0.97521 0.23875 0.02400
O 	O 	0.64205 0.30632 0.71467 -0.69800
O 	O 	0.64615 0.35777 0.66795 -0.70700
H 	H 	0.65045 0.02246 0.37930 0.07500
H 	H 	0.64907 0.56263 0.83874 0.15400
H 	H 	0.65431 0.33231 0.73137 0.16600
C 	C 	0.65245 0.96077 0.34634 0.00800
O 	O 	0.64650 0.88534 0.31076 -0.28200
O 	O 	0.65974 0.98293 0.19148 -0.27500
O 	O 	0.66674 0.36367 0.91026 -0.69700
H 	H 	0.66210 0.85519 0.31902 0.14400
O 	O 	0.67279 0.56868 0.85544 -0.29600
H 	H 	0.67184 0.94648 0.18788 0.14600
O 	O 	0.67139 0.19793 0.86455 -0.41000
O 	O 	0.67185 0.45959 0.87315 -0.41000
H 	H 	0.67208 0.06730 0.30386 0.15200
Ni	Ni	0.67883 0.45101 0.66580 1.06600
H 	H 	0.67585 0.34819 0.92757 0.15200
Ni	Ni	0.68889 0.45595 0.91262 1.06900
O 	O 	0.68887 0.08337 0.32187 -0.27600
O 	O 	0.68926 0.13447 0.81246 -0.31100
O 	O 	0.69190 0.21565 0.73066 -0.41200
O 	O 	0.69613 0.46109 0.70590 -0.41400
H 	H 	0.69640 0.16305 0.79682 0.13200
C 	C 	0.70339 0.00161 0.24528 -0.02900
Ni	Ni	0.70536 0.33009 0.68578 1.10100
H 	H 	0.70631 0.90884 0.25290 0.07000
O 	O 	0.70991 0.10905 0.23670 -0.28200
Ni	Ni	0.71106 0.34163 0.88106 1.10100
C 	C 	0.71225 0.46338 0.85593 0.31300
C 	C 	0.71397 0.99852 0.34023 -0.00900
H 	H 	0.71489 0.11357 0.21704 0.15500
C 	C 	0.99914 0.34830 0.32271 -0.09500
C 	C 	0.99651 0.89529 0.77316 0.01700
C 	C 	0.99510 0.78535 0.76486 0.14100
H 	H 	0.98399 0.45971 0.50116 0.04200
C 	C 	0.99848 0.23484 0.26109 -0.02700
C 	C 	0.98011 0.49090 0.51703 -0.04200
O 	O 	0.74277 0.29402 0.85423 -0.38100
O 	O 	0.73242 0.41713 0.85460 -0.37100
O 	O 	0.77621 0.47825 0.90658 -0.40700
O 	O 	0.79167 0.38556 0.89827 -0.37300
C 	C 	0.72171 0.23097 0.85334 0.29500
C 	C 	0.80312 0.43901 0.91241 0.27500
O 	O 	0.76468 0.35983 0.65591 -0.37400
O 	O 	0.75457 0.28138 0.70057 -0.36000
C 	C 	0.74406 0.45711 0.71535 0.32000
C 	C 	0.77545 0.41602 0.64481 0.27900
C 	C 	0.73398 0.22657 0.71327 0.31700
O 	O 	0.75787 0.40828 0.70845 -0.36700
O 	O 	0.76231 0.46045 0.65749 -0.41000
C 	C 	0.97831 0.99250 0.76892 0.02100
C 	C 	0.97257 0.99536 0.79614 0.02000
C 	C 	0.98779 0.89666 0.80029 0.02600
C 	C 	0.93722 0.11032 0.26291 -0.04400
H 	H 	0.93507 0.11049 0.24066 0.04900
C 	C 	0.94159 0.11037 0.31653 -0.04600
H 	H 	0.94367 0.11052 0.33878 0.06000
C 	C 	0.97391 0.07513 0.27499 0.01900
C 	C 	0.96359 0.17709 0.27634 0.01000
C 	C 	0.87777 0.07871 0.27663 0.01600
C 	C 	0.97578 0.07480 0.30249 0.01400
C 	C 	0.96482 0.17696 0.30384 0.01300
C 	C 	0.88020 0.07913 0.30413 0.02000
C 	C 	0.97049 0.27090 0.24849 -0.09700
O 	O 	0.97482 0.36962 0.22920 -0.28900
H 	H 	0.92341 0.25113 0.24582 0.06100
H 	H 	0.97452 0.36127 0.20964 0.14600
C 	C 	0.73095 0.96015 0.25274 -0.08100
C 	C 	0.73627 0.06793 0.24403 0.14700
C 	C 	0.79552 0.09253 0.25171 -0.09200
C 	C 	0.82180 0.05147 0.26128 -0.02500
C 	C 	0.78992 0.98477 0.26069 0.14800
H 	H 	0.81992 0.14390 0.25192 0.06400
O 	O 	0.81641 0.94363 0.26779 -0.26600
H 	H 	0.80675 0.93379 0.28686 0.14900
C 	C 	0.98120 0.99778 0.23998 0.12900
O 	O 	0.92233 0.97766 0.23488 -0.26200
H 	H 	0.99074 0.92311 0.21556 0.06200
H 	H 	0.91867 0.00132 0.21877 0.13900
C 	C 	0.75704 0.97479 0.34689 -0.08300
C 	C 	0.72947 0.05674 0.32655 0.13900
C 	C 	0.78666 0.08768 0.31770 -0.08600
C 	C 	0.82720 0.05842 0.32075 -0.01800
C 	C 	0.81368 0.00460 0.33719 0.12900
H 	H 	0.79849 0.13234 0.30704 0.07600
O 	O 	0.85570 0.98139 0.34395 -0.27200
H 	H 	0.74602 0.93182 0.35869 0.06300
H 	H 	0.84778 0.94335 0.33215 0.15900
C 	C 	0.98823 0.23685 0.32014 -0.02900
C 	C 	0.96430 0.28390 0.31726 0.15000
O 	O 	0.90603 0.26645 0.31116 -0.28300
H 	H 	0.98200 0.38510 0.31889 0.07400
H 	H 	0.90381 0.27325 0.29169 0.15000
C 	C 	0.98407 0.97221 0.31676 0.14800
O 	O 	0.93108 0.93787 0.30472 -0.28100
H 	H 	0.94018 0.92688 0.28651 0.16100
C 	C 	0.81360 0.43463 0.62148 -0.09100
C 	C 	0.85921 0.41268 0.61836 0.01900
C 	C 	0.89813 0.43484 0.59727 -0.06600
C 	C 	0.89162 0.47893 0.57916 0.02800
C 	C 	0.84506 0.49934 0.58183 -0.06800
C 	C 	0.80626 0.47735 0.60290 0.01400
C 	C 	0.93462 0.50543 0.55799 0.00100
C 	C 	0.93995 0.46543 0.53737 -0.03700
C 	C 	0.96969 0.57109 0.55812 -0.04200
H 	H 	0.86542 0.37983 0.63261 0.04300
H 	H 	0.93396 0.41875 0.59530 0.05000
H 	H 	0.83937 0.53282 0.56774 0.04600
H 	H 	0.77076 0.49395 0.60493 0.00900
H 	H 	0.91279 0.41474 0.53706 0.04000
H 	H 	0.96590 0.60226 0.57402 0.04200
C 	C 	0.84753 0.17027 0.74217 -0.11800
C 	C 	0.84715 0.12438 0.72294 0.01000
C 	C 	0.81063 0.11340 0.70007 0.11800
C 	C 	0.77358 0.14695 0.69700 -0.03600
C 	C 	0.77303 0.19173 0.71656 -0.12300
C 	C 	0.81074 0.20397 0.73906 0.19700
C 	C 	0.88025 0.08337 0.72827 -0.00800
O 	O 	0.80964 0.06836 0.68120 -0.27800
H 	H 	0.74500 0.13779 0.67952 0.04800
O 	O 	0.81307 0.25035 0.75753 -0.28200
H 	H 	0.87555 0.17888 0.75982 0.07300
C 	C 	0.94149 0.10798 0.72613 0.14000
C 	C 	0.97348 0.07341 0.73640 -0.08100
C 	C 	0.94480 0.01587 0.74983 -0.03600
C 	C 	0.88327 0.98820 0.74932 0.16000
C 	C 	0.85134 0.02235 0.73885 -0.09900
O 	O 	0.97013 0.16616 0.71445 -0.28100
O 	O 	0.85440 0.93044 0.76118 -0.29000
H 	H 	0.80411 0.00272 0.74016 0.07300
H 	H 	0.78501 0.22756 0.77155 0.14600
H 	H 	0.97996 0.19812 0.72936 0.15200
H 	H 	0.84440 0.89820 0.74641 0.14700
H 	H 	0.83985 0.09190 0.66812 0.15000
C 	C 	0.81612 0.61599 0.75111 -0.12600
C 	C 	0.87003 0.64002 0.73816 0.01300
C 	C 	0.88525 0.60025 0.72049 0.11500
C 	C 	0.84561 0.53786 0.71498 -0.03000
C 	C 	0.78999 0.51533 0.72646 -0.12900
C 	C 	0.77631 0.55368 0.74549 0.19600
C 	C 	0.90965 0.70732 0.74258 -0.01500
O 	O 	0.93865 0.62248 0.70840 -0.27200
H 	H 	0.85687 0.50828 0.70060 0.07000
O 	O 	0.72330 0.53114 0.75792 -0.29000
H 	H 	0.80489 0.64586 0.76531 0.08700
C 	C 	0.89514 0.75738 0.73236 0.14400
C 	C 	0.92939 0.82098 0.73935 -0.09100
C 	C 	0.97633 0.83457 0.75748 -0.01900
C 	C 	0.96096 0.72171 0.75794 -0.08300
O 	O 	0.84749 0.74418 0.71563 -0.28500
H 	H 	0.91702 0.85924 0.73218 0.06300
H 	H 	0.97337 0.68346 0.76517 0.07700
H 	H 	0.72980 0.51089 0.77455 0.14700
H 	H 	0.81467 0.74078 0.72754 0.15200
H 	H 	0.93259 0.64187 0.69145 0.14800
C 	C 	0.96330 0.51306 0.00194 -0.00800
C 	C 	0.93674 0.49168 0.02661 -0.03300
C 	C 	0.96908 0.51089 0.05050 -0.04700
C 	C 	0.92843 0.49493 0.97686 0.02800
C 	C 	0.91812 0.54183 0.96178 -0.06800
C 	C 	0.87968 0.52394 0.93973 0.01100
C 	C 	0.85099 0.45887 0.93261 -0.09000
C 	C 	0.86380 0.41230 0.94687 0.01100
C 	C 	0.90228 0.43027 0.96892 -0.06700
H 	H 	0.89088 0.46084 0.02728 0.03600
H 	H 	0.94804 0.49462 0.06945 0.04200
H 	H 	0.93856 0.59195 0.96762 0.04700
H 	H 	0.87119 0.56054 0.92859 0.03400
H 	H 	0.84224 0.36198 0.94156 0.03000
H 	H 	0.91057 0.39380 0.98025 0.04700
C 	C 	0.92402 0.13109 0.81212 -0.09600
C 	C 	0.87051 0.09817 0.82445 -0.00600
C 	C 	0.85347 0.03251 0.82993 0.12500
C 	C 	0.88866 0.99970 0.82190 -0.06400
C 	C 	0.94120 0.03224 0.80877 -0.03700
C 	C 	0.96021 0.09885 0.80508 0.14500
C 	C 	0.83259 0.13267 0.83171 0.00800
O 	O 	0.80159 0.99996 0.84235 -0.26600
H 	H 	0.87419 0.94858 0.82511 0.06500
H 	H 	0.93755 0.18173 0.80800 0.06500
C 	C 	0.85000 0.18002 0.85210 0.11400
C 	C 	0.81388 0.21266 0.85879 -0.03000
C 	C 	0.76009 0.19799 0.84545 -0.12300
C 	C 	0.74263 0.15066 0.82506 0.19000
C 	C 	0.77915 0.11863 0.81808 -0.11300
O 	O 	0.90112 0.19253 0.86624 -0.27600
H 	H 	0.82723 0.24864 0.87470 0.05700
H 	H 	0.76583 0.08267 0.80218 0.07800
H 	H 	0.93099 0.22845 0.85682 0.14500
H 	H 	0.81129 0.00390 0.86179 0.14300
C 	C 	0.76767 0.64098 0.84281 -0.11600
C 	C 	0.82272 0.65203 0.83208 0.01100
C 	C 	0.83832 0.59954 0.82598 0.11300
C 	C 	0.80016 0.53712 0.83193 -0.03300
C 	C 	0.74578 0.52627 0.84361 -0.12800
C 	C 	0.72815 0.57847 0.84715 0.18700
C 	C 	0.86331 0.71860 0.82668 -0.01800
O 	O 	0.89196 0.60936 0.81546 -0.27000
H 	H 	0.81373 0.49748 0.82820 0.06800
H 	H 	0.75534 0.68096 0.84772 0.07100
C 	C 	0.84564 0.75816 0.81000 0.14200
C 	C 	0.88485 0.81990 0.80427 -0.09700
C 	C 	0.94299 0.84131 0.81344 -0.01700
C 	C 	0.95974 0.80383 0.83151 0.13900
C 	C 	0.91975 0.74281 0.83828 -0.08100
O 	O 	0.79144 0.73504 0.79783 -0.28800
H 	H 	0.87134 0.84926 0.79094 0.07800
H 	H 	0.93307 0.71372 0.85196 0.07600
H 	H 	0.76679 0.75076 0.80911 0.14800
H 	H 	0.88567 0.60598 0.79577 0.14900
