data_crystal

_cell_length_a 46.52014
_cell_length_b 46.76370
_cell_length_c 40.61563
_cell_angle_alpha 89.95471
_cell_angle_beta  89.95569
_cell_angle_gamma 90.52535

_symmetry_space_group_name_	'P 1'
_symmetry_space_group_name_H-M	'P 1'

loop_
_symmetry_equiv_pos_as_xyz
  x,y,z

loop_
_atom_site_label
_atom_site_type_symbol
_atom_site_fract_x
_atom_site_fract_y
_atom_site_fract_z
_atom_site_charge
Zn	Zn	0.50891 0.50360 0.99923 1.22200
C 	C 	0.54275 0.55534 0.99359 0.31200
O 	O 	0.52810 0.48157 0.03382 -0.47200
O 	O 	0.52729 0.56502 0.01825 -0.44800
O 	O 	0.55201 0.51825 0.05795 -0.49100
C 	C 	0.46481 0.54100 0.02083 0.32500
O 	O 	0.47921 0.53224 0.99503 -0.45300
O 	O 	0.47533 0.53719 0.05049 -0.50600
C 	C 	0.55135 0.49164 0.04794 0.31400
O 	O 	0.47135 0.46967 0.99851 -0.32600
Zn	Zn	0.51670 0.54033 0.05857 1.16900
O 	O 	0.54130 0.52817 0.98511 -0.43500
C 	C 	0.48308 0.46029 0.97169 0.27400
O 	O 	0.50595 0.47408 0.96226 -0.38100
Zn	Zn	0.33694 0.18288 0.99843 1.22000
C 	C 	0.35276 0.18353 0.06716 0.33800
O 	O 	0.30355 0.16377 0.01861 -0.44800
O 	O 	0.32816 0.19585 0.07358 -0.45200
O 	O 	0.27945 0.20538 0.02631 -0.50600
C 	C 	0.35698 0.24124 0.99832 0.31300
O 	O 	0.34729 0.22020 0.97997 -0.46700
O 	O 	0.34864 0.24347 0.02901 -0.49200
C 	C 	0.27951 0.17735 0.02446 0.32400
O 	O 	0.31890 0.17134 0.94555 -0.32600
Zn	Zn	0.31218 0.22711 0.04322 1.17000
O 	O 	0.36275 0.18284 0.03689 -0.43900
C 	C 	0.33914 0.15246 0.94502 0.29700
O 	O 	0.35531 0.15170 0.97087 -0.38500
C 	C 	0.52104 0.99138 0.37855 0.14600
C 	C 	0.53580 0.96967 0.36193 -0.11200
H 	H 	0.54674 0.95325 0.37585 0.07400
C 	C 	0.53624 0.96920 0.32745 0.07300
C 	C 	0.52211 0.99048 0.30959 -0.09900
C 	C 	0.50742 0.01218 0.32608 0.07300
C 	C 	0.50683 0.01264 0.36057 -0.11200
H 	H 	0.49537 0.02934 0.37343 0.07400
N 	N 	0.52026 0.99168 0.41393 -0.17900
C 	C 	0.53941 0.00861 0.43090 0.19000
C 	C 	0.53909 0.00903 0.46557 -0.06000
C 	C 	0.51911 0.99180 0.48255 0.03100
C 	C 	0.49963 0.97459 0.46485 -0.06000
C 	C 	0.50044 0.97493 0.43019 0.19000
C 	C 	0.55847 0.02634 0.48343 -0.01300
C 	C 	0.55790 0.02638 0.51787 -0.01300
C 	C 	0.53800 0.00905 0.53502 -0.06000
C 	C 	0.51862 0.99174 0.51731 0.03100
C 	C 	0.49879 0.97433 0.53429 -0.06000
C 	C 	0.47970 0.95730 0.48199 -0.01300
C 	C 	0.47931 0.95714 0.51642 -0.01300
C 	C 	0.53717 0.00871 0.56967 0.19000
N 	N 	0.51783 0.99143 0.58594 -0.17900
C 	C 	0.49880 0.97437 0.56895 0.19000
C 	C 	0.51753 0.99112 0.62133 0.14600
C 	C 	0.53719 0.97420 0.63865 -0.11200
C 	C 	0.53671 0.97371 0.67314 0.07300
C 	C 	0.51654 0.99002 0.69029 -0.09900
C 	C 	0.49685 0.00685 0.67310 0.07300
C 	C 	0.49738 0.00749 0.63861 -0.11200
O 	O 	0.48208 0.95912 0.41328 -0.20100
O 	O 	0.55826 0.02444 0.41466 -0.20000
O 	O 	0.55502 0.02510 0.58659 -0.20000
O 	O 	0.48053 0.95787 0.58519 -0.20000
H 	H 	0.48218 0.02051 0.62521 0.07400
H 	H 	0.55269 0.96151 0.62528 0.07400
H 	H 	0.46452 0.94390 0.46875 0.05000
H 	H 	0.46382 0.94364 0.52910 0.05000
H 	H 	0.57398 0.03980 0.47076 0.05000
H 	H 	0.57300 0.03986 0.53111 0.05000
H 	H 	0.51613 0.98956 0.71701 0.06100
H 	H 	0.52249 0.99010 0.28287 0.06100
Zn	Zn	0.71033 0.80722 0.00150 1.22100
C 	C 	0.69152 0.80281 0.06933 0.34000
O 	O 	0.74936 0.82395 0.00304 -0.46200
O 	O 	0.70472 0.77814 0.07080 -0.45200
O 	O 	0.75811 0.81103 0.05600 -0.49400
C 	C 	0.70671 0.74613 0.00183 0.32500
O 	O 	0.69169 0.76974 0.00131 -0.45300
O 	O 	0.73302 0.74653 0.01342 -0.50900
C 	C 	0.76275 0.82827 0.03107 0.31300
O 	O 	0.71414 0.80273 0.94357 -0.32700
Zn	Zn	0.74423 0.77228 0.04890 1.17000
O 	O 	0.69608 0.82030 0.04448 -0.43800
C 	C 	0.69691 0.82437 0.94277 0.29700
O 	O 	0.68872 0.83403 0.97104 -0.38500
Zn	Zn	0.18342 0.68652 0.99654 1.22000
C 	C 	0.17375 0.68922 0.06664 0.34000
O 	O 	0.17486 0.72478 0.97908 -0.46400
O 	O 	0.19989 0.69977 0.06981 -0.45200
O 	O 	0.18215 0.74854 0.02717 -0.49200
C 	C 	0.24165 0.67538 0.01457 0.32200
O 	O 	0.21560 0.66449 0.01335 -0.45300
O 	O 	0.24539 0.70321 0.01521 -0.50900
C 	C 	0.16937 0.74642 0.99853 0.31300
O 	O 	0.19758 0.67204 0.94321 -0.32600
Zn	Zn	0.21744 0.72813 0.03615 1.16900
O 	O 	0.16129 0.68819 0.03764 -0.44100
C 	C 	0.17331 0.65818 0.94280 0.29800
O 	O 	0.15764 0.66068 0.96893 -0.38500
C 	C 	0.99268 0.50123 0.37424 0.14600
C 	C 	0.97692 0.48077 0.35637 -0.11300
H 	H 	0.96372 0.46517 0.36929 0.07400
C 	C 	0.97827 0.48055 0.32191 0.07300
C 	C 	0.99527 0.50080 0.30534 -0.09800
C 	C 	0.01095 0.52129 0.32311 0.07200
C 	C 	0.00972 0.52148 0.35757 -0.11300
H 	H 	0.02187 0.53729 0.37142 0.07400
N 	N 	0.99130 0.50150 0.40959 -0.17900
C 	C 	0.00865 0.48357 0.42730 0.19000
C 	C 	0.00780 0.48372 0.46195 -0.06100
C 	C 	0.98915 0.50253 0.47816 0.03200
C 	C 	0.97151 0.52074 0.45970 -0.06000
C 	C 	0.97279 0.51981 0.42509 0.19100
C 	C 	0.02534 0.46541 0.48056 -0.01300
C 	C 	0.02429 0.46596 0.51497 -0.01300
C 	C 	0.00574 0.48486 0.53134 -0.06100
C 	C 	0.98819 0.50317 0.51288 0.03100
C 	C 	0.96971 0.52215 0.52909 -0.06000
C 	C 	0.95293 0.53962 0.47607 -0.01300
C 	C 	0.95206 0.54034 0.51048 -0.01300
C 	C 	0.00448 0.48582 0.56595 0.19000
N 	N 	0.98652 0.50465 0.58145 -0.17900
C 	C 	0.96925 0.52266 0.56375 0.19100
C 	C 	0.98590 0.50564 0.61681 0.14700
C 	C 	0.96448 0.49065 0.63423 -0.11200
C 	C 	0.96403 0.49148 0.66870 0.07300
C 	C 	0.98500 0.50719 0.68574 -0.09800
C 	C 	0.00648 0.52203 0.66845 0.07300
C 	C 	0.00688 0.52139 0.63398 -0.11300
O 	O 	0.95613 0.53658 0.40747 -0.20100
O 	O 	0.02628 0.46624 0.41179 -0.20100
O 	O 	0.02060 0.46853 0.58356 -0.20000
O 	O 	0.95225 0.54061 0.57927 -0.20000
H 	H 	0.02345 0.53291 0.62050 0.07400
H 	H 	0.94837 0.47838 0.62094 0.07500
H 	H 	0.93916 0.55381 0.46224 0.05000
H 	H 	0.93764 0.55507 0.52256 0.05000
H 	H 	0.03980 0.45073 0.46849 0.05000
H 	H 	0.03798 0.45169 0.52880 0.05000
H 	H 	0.98471 0.50772 0.71246 0.06100
H 	H 	0.99624 0.50067 0.27864 0.06100
Zn	Zn	0.80190 0.31308 0.99499 1.21900
C 	C 	0.79837 0.32723 0.92584 0.33900
O 	O 	0.76280 0.31627 0.01305 -0.46300
O 	O 	0.79011 0.30076 0.92013 -0.45100
O 	O 	0.74000 0.31118 0.96399 -0.49100
C 	C 	0.81888 0.25804 0.97132 0.32200
O 	O 	0.82701 0.28475 0.97532 -0.45600
O 	O 	0.79139 0.25156 0.96952 -0.50700
C 	C 	0.74082 0.32160 0.99391 0.30800
O 	O 	0.81831 0.29685 0.04685 -0.32500
Zn	Zn	0.76351 0.27858 0.95192 1.16900
O 	O 	0.79798 0.33763 0.95590 -0.44100
C 	C 	0.82979 0.32213 0.04930 0.29800
O 	O 	0.82548 0.33918 0.02477 -0.38300
Zn	Zn	0.00651 0.01239 0.01162 1.22100
C 	C 	0.03699 0.95954 0.00220 0.31500
O 	O 	0.97732 0.00183 0.04452 -0.47100
O 	O 	0.05264 0.96777 0.02752 -0.45000
O 	O 	0.99962 0.96367 0.06672 -0.49400
C 	C 	0.06031 0.03320 0.03573 0.32400
O 	O 	0.04592 0.02615 0.00917 -0.45200
O 	O 	0.05164 0.02394 0.06462 -0.50700
C 	C 	0.97610 0.97574 0.05613 0.31600
O 	O 	0.99359 0.06063 0.01709 -0.32500
Zn	Zn	0.03526 0.98553 0.06939 1.16900
O 	O 	0.01412 0.97411 0.99331 -0.43600
C 	C 	0.98052 0.05732 0.98915 0.27100
O 	O 	0.98220 0.03200 0.97626 -0.38000
C 	C 	0.95482 0.15826 0.97818 -0.04400
C 	C 	0.94736 0.12933 0.97500 0.01300
C 	C 	0.91865 0.12132 0.96787 0.00500
C 	C 	0.89693 0.14257 0.96804 0.00200
C 	C 	0.93410 0.17937 0.97454 -0.03400
C 	C 	0.90513 0.17191 0.96825 -0.00200
C 	C 	0.96819 0.10820 0.97976 -0.02100
C 	C 	0.96085 0.07921 0.97650 -0.06000
C 	C 	0.91248 0.09240 0.96036 -0.05000
C 	C 	0.86762 0.13519 0.97213 -0.03700
C 	C 	0.85444 0.18532 0.97094 0.00400
C 	C 	0.88355 0.19316 0.96601 0.01100
C 	C 	0.89031 0.22182 0.95802 -0.05700
C 	C 	0.86919 0.24279 0.95964 0.01200
C 	C 	0.84075 0.23544 0.96789 -0.08600
C 	C 	0.83328 0.20655 0.97269 -0.01200
C 	C 	0.93336 0.07147 0.96528 0.00100
H 	H 	0.92788 0.04917 0.96128 0.04200
H 	H 	0.89197 0.08615 0.94997 0.04200
H 	H 	0.98984 0.11424 0.98705 0.04500
H 	H 	0.97676 0.16447 0.98387 0.04100
H 	H 	0.94035 0.20135 0.97901 0.03800
H 	H 	0.86105 0.11322 0.97613 0.03800
H 	H 	0.91149 0.22776 0.94922 0.04400
H 	H 	0.87489 0.26476 0.95396 0.04100
H 	H 	0.81115 0.20062 0.97797 0.03700
C 	C 	0.84676 0.15640 0.97407 -0.04100
H 	H 	0.82450 0.15027 0.97807 0.03600
C 	C 	0.82950 0.37547 0.84986 -0.01200
C 	C 	0.84834 0.39839 0.85602 -0.02800
C 	C 	0.86084 0.41336 0.82978 -0.04400
C 	C 	0.85453 0.40551 0.79720 0.01200
C 	C 	0.83508 0.38302 0.79110 -0.04500
C 	C 	0.82262 0.36804 0.81737 -0.02800
C 	C 	0.86961 0.41972 0.76964 0.00400
C 	C 	0.86696 0.44931 0.76490 -0.03700
C 	C 	0.88416 0.46339 0.74164 -0.04200
C 	C 	0.90405 0.44798 0.72295 0.01600
C 	C 	0.90567 0.41823 0.72645 -0.04200
C 	C 	0.88852 0.40412 0.74974 -0.03600
C 	C 	0.92501 0.46301 0.70325 -0.00500
C 	C 	0.94246 0.47582 0.68682 -0.03300
C 	C 	0.81843 0.35864 0.87680 0.05400
C 	C 	0.80912 0.34448 0.89928 -0.11600
H 	H 	0.85371 0.40428 0.88108 0.04100
H 	H 	0.87589 0.43064 0.83475 0.04200
H 	H 	0.82997 0.37689 0.76604 0.04200
H 	H 	0.80800 0.35039 0.81245 0.03800
H 	H 	0.85219 0.46149 0.77989 0.04000
H 	H 	0.88270 0.48639 0.73895 0.04300
H 	H 	0.92093 0.40616 0.71199 0.04400
H 	H 	0.89065 0.38125 0.75312 0.04000
C 	C 	0.86949 0.34983 0.13308 -0.00500
C 	C 	0.89686 0.36248 0.13133 -0.03000
C 	C 	0.90942 0.37430 0.15952 -0.04300
C 	C 	0.89467 0.37348 0.18970 0.01100
C 	C 	0.86763 0.36001 0.19160 -0.04300
C 	C 	0.85508 0.34825 0.16335 -0.03000
C 	C 	0.90664 0.38853 0.21859 0.00500
C 	C 	0.93382 0.38119 0.23081 -0.03700
C 	C 	0.94710 0.39823 0.25475 -0.04200
C 	C 	0.93327 0.42262 0.26668 0.01600
C 	C 	0.90545 0.42901 0.25594 -0.04200
C 	C 	0.89216 0.41204 0.23195 -0.03700
C 	C 	0.94891 0.44286 0.28663 -0.00500
C 	C 	0.96206 0.45976 0.30334 -0.03400
C 	C 	0.85554 0.33991 0.10354 0.04500
C 	C 	0.84385 0.33160 0.07881 -0.09300
H 	H 	0.90817 0.36371 0.10802 0.04100
H 	H 	0.93026 0.38472 0.15776 0.04200
H 	H 	0.85615 0.35912 0.21480 0.04200
H 	H 	0.83395 0.33839 0.16489 0.04100
H 	H 	0.94502 0.36286 0.22097 0.04000
H 	H 	0.96855 0.39305 0.26310 0.04300
H 	H 	0.89456 0.44776 0.26519 0.04300
H 	H 	0.87112 0.41782 0.22280 0.04000
C 	C 	0.14650 0.84463 0.96542 -0.04200
C 	C 	0.13741 0.81728 0.97503 0.00400
C 	C 	0.10784 0.81152 0.98001 0.00900
C 	C 	0.08816 0.83464 0.98059 0.00100
C 	C 	0.12670 0.86660 0.96169 -0.03600
C 	C 	0.09728 0.86196 0.96892 -0.00200
C 	C 	0.15762 0.79561 0.98030 -0.01100
C 	C 	0.14839 0.76795 0.98861 -0.08500
C 	C 	0.09872 0.78287 0.98437 -0.05600
C 	C 	0.06132 0.83203 0.99675 -0.04200
C 	C 	0.05213 0.88246 0.98827 0.00200
C 	C 	0.07762 0.88507 0.96956 0.01000
C 	C 	0.08331 0.91111 0.95308 -0.05800
C 	C 	0.06755 0.93549 0.96099 0.01200
C 	C 	0.04525 0.93381 0.98413 -0.08400
C 	C 	0.03622 0.90698 0.99582 -0.01500
C 	C 	0.11897 0.76137 0.98925 0.01400
H 	H 	0.11176 0.73966 0.99401 0.03300
H 	H 	0.07621 0.77702 0.98294 0.04400
H 	H 	0.18044 0.80036 0.97844 0.02300
H 	H 	0.16912 0.84905 0.96115 0.03500
H 	H 	0.13476 0.88773 0.95572 0.03600
H 	H 	0.05496 0.81223 0.00855 0.03900
H 	H 	0.09960 0.91253 0.93412 0.04300
H 	H 	0.07368 0.95596 0.95047 0.03100
H 	H 	0.01837 0.90554 0.01293 0.03300
C 	C 	0.04383 0.85582 0.00093 -0.03700
H 	H 	0.02404 0.85361 0.01486 0.03600
C 	C 	0.13851 0.62658 0.85807 -0.00500
C 	C 	0.15575 0.61924 0.83110 -0.03000
C 	C 	0.14310 0.60856 0.80233 -0.04300
C 	C 	0.11313 0.60520 0.80042 0.01100
C 	C 	0.09594 0.61271 0.82743 -0.04300
C 	C 	0.10860 0.62338 0.85612 -0.03000
C 	C 	0.09976 0.59269 0.77079 0.00500
C 	C 	0.10498 0.56408 0.76246 -0.03700
C 	C 	0.08846 0.55061 0.73816 -0.04200
C 	C 	0.06662 0.56565 0.72212 0.01600
C 	C 	0.06274 0.59475 0.72880 -0.04200
C 	C 	0.07928 0.60826 0.75304 -0.03700
C 	C 	0.04572 0.55040 0.70264 -0.00500
C 	C 	0.02820 0.53765 0.68632 -0.03400
C 	C 	0.15141 0.63757 0.88772 0.04500
C 	C 	0.16168 0.64682 0.91282 -0.09400
H 	H 	0.17891 0.62174 0.83243 0.04200
H 	H 	0.15655 0.60280 0.78162 0.04200
H 	H 	0.07281 0.60996 0.82629 0.04200
H 	H 	0.09516 0.62904 0.87687 0.04200
H 	H 	0.12091 0.55195 0.77583 0.04000
H 	H 	0.09175 0.52816 0.73292 0.04300
H 	H 	0.04606 0.60657 0.71628 0.04300
H 	H 	0.07539 0.63048 0.75896 0.04000
C 	C 	0.05884 0.57959 0.27147 0.01600
C 	C 	0.04540 0.60355 0.25788 -0.04200
C 	C 	0.06017 0.62091 0.23536 -0.03700
C 	C 	0.08846 0.61433 0.22625 0.00400
C 	C 	0.10237 0.59120 0.24121 -0.03700
C 	C 	0.08759 0.57390 0.26377 -0.04200
C 	C 	0.10248 0.62987 0.19890 0.01100
C 	C 	0.09069 0.62853 0.16713 -0.04500
C 	C 	0.10495 0.64155 0.14072 -0.02800
C 	C 	0.13110 0.65595 0.14584 -0.01200
C 	C 	0.14267 0.65779 0.17763 -0.02900
C 	C 	0.12840 0.64478 0.20411 -0.04600
C 	C 	0.14649 0.66795 0.11827 0.05400
C 	C 	0.15905 0.67784 0.09486 -0.11700
C 	C 	0.04222 0.55915 0.29016 -0.00500
C 	C 	0.02817 0.54214 0.30578 -0.03400
H 	H 	0.02322 0.60818 0.26388 0.04300
H 	H 	0.04935 0.63891 0.22423 0.03900
H 	H 	0.12424 0.58602 0.23445 0.04000
H 	H 	0.09816 0.55548 0.27433 0.04300
H 	H 	0.07076 0.61695 0.16282 0.04200
H 	H 	0.09587 0.64009 0.11620 0.04100
H 	H 	0.16285 0.66897 0.18178 0.03700
H 	H 	0.13762 0.64602 0.22856 0.04100
C 	C 	0.84898 0.87783 0.98995 -0.04300
C 	C 	0.82688 0.87586 0.01334 0.00700
C 	C 	0.82812 0.89276 0.04226 0.00900
C 	C 	0.85133 0.91240 0.04643 -0.00100
C 	C 	0.87336 0.89454 0.99615 -0.03800
C 	C 	0.87565 0.91033 0.02562 0.00100
C 	C 	0.80428 0.85613 0.00890 -0.01200
C 	C 	0.78414 0.85148 0.03405 -0.08700
C 	C 	0.80779 0.88772 0.06751 -0.05700
C 	C 	0.84991 0.93519 0.06914 -0.03600
C 	C 	0.89951 0.94820 0.05721 0.00500
C 	C 	0.90097 0.92601 0.03358 0.00900
C 	C 	0.92796 0.91863 0.02036 -0.05600
C 	C 	0.95238 0.93481 0.02809 0.01200
C 	C 	0.95052 0.95803 0.04972 -0.08900
C 	C 	0.92413 0.96475 0.06428 -0.01000
C 	C 	0.78590 0.86743 0.06319 0.01000
H 	H 	0.77063 0.86362 0.08292 0.03500
H 	H 	0.80984 0.89810 0.09118 0.04200
H 	H 	0.80321 0.84339 0.98661 0.03800
H 	H 	0.84763 0.86577 0.96721 0.03900
H 	H 	0.88970 0.89627 0.97727 0.03900
H 	H 	0.83002 0.94010 0.08163 0.03800
H 	H 	0.93040 0.89973 0.00532 0.04300
H 	H 	0.97279 0.92937 0.01707 0.03500
H 	H 	0.92286 0.98244 0.08148 0.03400
C 	C 	0.87371 0.95312 0.07406 -0.04100
H 	H 	0.87218 0.97060 0.09147 0.03800
C 	C 	0.66228 0.85490 0.85759 -0.00500
C 	C 	0.67977 0.86623 0.83257 -0.03000
C 	C 	0.66731 0.87856 0.80467 -0.04300
C 	C 	0.63727 0.87964 0.80169 0.01100
C 	C 	0.61984 0.86765 0.82643 -0.04300
C 	C 	0.63232 0.85531 0.85425 -0.03000
C 	C 	0.62402 0.89498 0.77387 0.00500
C 	C 	0.60468 0.88070 0.75290 -0.03700
C 	C 	0.58895 0.89610 0.72964 -0.04200
C 	C 	0.59250 0.92582 0.72716 0.01600
C 	C 	0.61295 0.93986 0.74682 -0.04200
C 	C 	0.62865 0.92451 0.77012 -0.03700
C 	C 	0.57293 0.94227 0.70748 -0.00500
C 	C 	0.55673 0.95639 0.69115 -0.03400
C 	C 	0.67497 0.84409 0.88738 0.04500
C 	C 	0.68519 0.83495 0.91250 -0.09500
H 	H 	0.70296 0.86590 0.83494 0.04100
H 	H 	0.68095 0.88763 0.78565 0.04200
H 	H 	0.59663 0.86848 0.82444 0.04200
H 	H 	0.61867 0.84654 0.87348 0.04100
H 	H 	0.60120 0.85786 0.75533 0.04000
H 	H 	0.57329 0.88508 0.71438 0.04300
H 	H 	0.61591 0.96281 0.74492 0.04300
H 	H 	0.64360 0.93572 0.78609 0.04000
C 	C 	0.64460 0.83062 0.14770 -0.01200
C 	C 	0.65428 0.82539 0.17980 -0.02900
C 	C 	0.64025 0.83774 0.20665 -0.04600
C 	C 	0.61647 0.85547 0.20152 0.01100
C 	C 	0.60621 0.85984 0.16942 -0.04500
C 	C 	0.62023 0.84744 0.14262 -0.02800
C 	C 	0.60372 0.87121 0.22932 0.00400
C 	C 	0.62023 0.89153 0.24654 -0.03700
C 	C 	0.60719 0.90946 0.26956 -0.04200
C 	C 	0.57758 0.90721 0.27547 0.01600
C 	C 	0.56136 0.88588 0.25965 -0.04200
C 	C 	0.57438 0.86790 0.23667 -0.03700
C 	C 	0.56329 0.92889 0.29436 -0.00500
C 	C 	0.55115 0.94695 0.31015 -0.03400
C 	C 	0.66094 0.82060 0.11997 0.05400
C 	C 	0.67466 0.81217 0.09679 -0.11700
H 	H 	0.67305 0.81231 0.18392 0.03600
H 	H 	0.64820 0.83406 0.23134 0.04100
H 	H 	0.58791 0.87352 0.16518 0.04200
H 	H 	0.61259 0.85151 0.11787 0.04100
H 	H 	0.64292 0.89418 0.24115 0.04000
H 	H 	0.61989 0.92581 0.28182 0.04300
H 	H 	0.53848 0.88392 0.26424 0.04300
H 	H 	0.56152 0.85204 0.22381 0.03900
C 	C 	0.12618 0.11100 0.06783 -0.04200
C 	C 	0.12115 0.08586 0.05003 0.00400
C 	C 	0.14153 0.07665 0.02650 0.00900
C 	C 	0.16889 0.09056 0.02483 -0.00000
C 	C 	0.15116 0.12705 0.06263 -0.03600
C 	C 	0.17367 0.11621 0.04296 -0.00100
C 	C 	0.09502 0.07088 0.05381 -0.01100
C 	C 	0.08805 0.04827 0.03258 -0.09000
C 	C 	0.13339 0.05508 0.00388 -0.05600
C 	C 	0.19167 0.07899 0.00628 -0.03500
C 	C 	0.22129 0.12077 0.01720 0.00400
C 	C 	0.20074 0.13074 0.04016 0.01100
C 	C 	0.20821 0.15424 0.06047 -0.05900
C 	C 	0.23354 0.16971 0.05470 0.01400
C 	C 	0.25272 0.16108 0.03012 -0.08800
C 	C 	0.24685 0.13632 0.01185 -0.00500
C 	C 	0.10713 0.04073 0.00740 0.01300
H 	H 	0.10144 0.02390 0.99020 0.03500
H 	H 	0.14640 0.05047 0.98252 0.04200
H 	H 	0.07973 0.07743 0.07247 0.03700
H 	H 	0.10989 0.11907 0.08441 0.03700
H 	H 	0.15224 0.14831 0.07288 0.03600
H 	H 	0.19049 0.05742 0.99682 0.03600
H 	H 	0.19561 0.15960 0.08187 0.04100
H 	H 	0.23873 0.18791 0.07016 0.02000
H 	H 	0.26216 0.12913 0.99353 0.04300
C 	C 	0.21678 0.09473 0.00102 -0.03800
H 	H 	0.23334 0.08606 0.98521 0.03900
C 	C 	0.43872 0.05219 0.72682 0.01600
C 	C 	0.44633 0.07909 0.73943 -0.04200
C 	C 	0.42901 0.09211 0.76312 -0.03700
C 	C 	0.40391 0.07829 0.77430 0.00500
C 	C 	0.39546 0.05214 0.76019 -0.03700
C 	C 	0.41285 0.03912 0.73655 -0.04200
C 	C 	0.38825 0.08969 0.80299 0.01100
C 	C 	0.37673 0.11732 0.80199 -0.04300
C 	C 	0.36484 0.12932 0.83039 -0.03000
C 	C 	0.36434 0.11376 0.85990 -0.00500
C 	C 	0.37483 0.08578 0.86063 -0.03100
C 	C 	0.38678 0.07378 0.83229 -0.04300
C 	C 	0.35516 0.12727 0.88992 0.04500
C 	C 	0.34747 0.13864 0.91502 -0.09400
C 	C 	0.45905 0.03647 0.70736 -0.00500
C 	C 	0.47603 0.02325 0.69105 -0.03400
H 	H 	0.46623 0.08940 0.73188 0.04300
H 	H 	0.43567 0.11235 0.77375 0.04000
H 	H 	0.37594 0.04147 0.76834 0.04000
H 	H 	0.40674 0.01840 0.72675 0.04300
H 	H 	0.37755 0.12969 0.77944 0.04200
H 	H 	0.35665 0.15093 0.82962 0.04200
H 	H 	0.37445 0.07360 0.88334 0.04100
H 	H 	0.39566 0.05246 0.83335 0.04200
C 	C 	0.46672 0.07203 0.27019 0.01600
C 	C 	0.43672 0.07165 0.26715 -0.04200
C 	C 	0.42338 0.08877 0.24353 -0.03700
C 	C 	0.44001 0.10639 0.22282 0.00400
C 	C 	0.46993 0.10777 0.22701 -0.03700
C 	C 	0.48324 0.09062 0.25062 -0.04200
C 	C 	0.42636 0.12163 0.19523 0.01100
C 	C 	0.40555 0.14250 0.20139 -0.04500
C 	C 	0.39137 0.15565 0.17517 -0.02900
C 	C 	0.39789 0.14802 0.14266 -0.01200
C 	C 	0.41902 0.12756 0.13644 -0.02800
C 	C 	0.43321 0.11438 0.16263 -0.04500
C 	C 	0.38220 0.16046 0.11577 0.05400
C 	C 	0.36894 0.17100 0.09342 -0.11600
C 	C 	0.48072 0.05112 0.29050 -0.00500
C 	C 	0.49271 0.03372 0.30739 -0.03400
H 	H 	0.42380 0.05739 0.28228 0.04300
H 	H 	0.40025 0.08764 0.24058 0.04000
H 	H 	0.48292 0.12155 0.21139 0.04000
H 	H 	0.50644 0.09111 0.25294 0.04300
H 	H 	0.40020 0.14832 0.22646 0.04100
H 	H 	0.37510 0.17152 0.18013 0.03700
H 	H 	0.42420 0.12158 0.11137 0.04100
H 	H 	0.44916 0.09822 0.15763 0.04200
C 	C 	0.44183 0.30449 0.00248 -0.03500
C 	C 	0.41572 0.29656 0.98790 0.00100
C 	C 	0.40432 0.31319 0.96203 0.01100
C 	C 	0.41679 0.34036 0.95495 -0.00400
C 	C 	0.45632 0.32922 0.99236 -0.04300
C 	C 	0.44421 0.34738 0.96833 0.00400
C 	C 	0.40052 0.27242 0.99926 -0.01100
C 	C 	0.37501 0.26383 0.98367 -0.08800
C 	C 	0.38072 0.30228 0.94399 -0.05900
C 	C 	0.40078 0.36190 0.93905 -0.03300
C 	C 	0.43936 0.39627 0.94782 0.01300
C 	C 	0.45673 0.37451 0.96112 0.00400
C 	C 	0.48590 0.38072 0.96776 -0.05000
C 	C 	0.49567 0.40907 0.96773 0.00200
C 	C 	0.47677 0.43127 0.96005 -0.06100
C 	C 	0.44929 0.42472 0.94795 -0.02000
C 	C 	0.36593 0.27798 0.95514 0.00800
H 	H 	0.34706 0.27053 0.94197 0.03000
H 	H 	0.37431 0.31196 0.92097 0.04300
H 	H 	0.40828 0.26058 0.02040 0.04200
H 	H 	0.45087 0.29160 0.02203 0.03700
H 	H 	0.47578 0.33530 0.00520 0.04000
H 	H 	0.37887 0.35796 0.93135 0.03600
H 	H 	0.50101 0.36378 0.97262 0.04100
H 	H 	0.51747 0.41390 0.97546 0.03800
H 	H 	0.43510 0.44186 0.94056 0.04100
C 	C 	0.41181 0.38964 0.93618 -0.04500
H 	H 	0.39857 0.40616 0.92544 0.04000
C 	C 	0.34177 0.65324 0.98722 -0.04500
C 	C 	0.31602 0.64526 0.00260 0.01000
C 	C 	0.31495 0.62068 0.02305 0.00700
C 	C 	0.33939 0.60237 0.02461 0.00000
C 	C 	0.36640 0.63697 0.99132 -0.03700
C 	C 	0.36511 0.61042 0.00782 -0.00000
C 	C 	0.29168 0.66258 0.99925 -0.01600
C 	C 	0.26660 0.65640 0.01704 -0.08400
C 	C 	0.29008 0.61586 0.04251 -0.05500
C 	C 	0.33862 0.57619 0.04210 -0.03700
C 	C 	0.38926 0.56875 0.03136 0.00400
C 	C 	0.38943 0.59212 0.00922 0.01100
C 	C 	0.41321 0.59572 0.98786 -0.05900
C 	C 	0.43773 0.57908 0.99190 0.01000
C 	C 	0.43859 0.55789 0.01628 -0.08700
C 	C 	0.41423 0.55247 0.03570 -0.01100
C 	C 	0.26593 0.63308 0.03867 0.01000
H 	H 	0.24702 0.62896 0.05360 0.03700
H 	H 	0.28981 0.60015 0.06198 0.04200
H 	H 	0.29239 0.68106 0.98308 0.03900
H 	H 	0.34308 0.67291 0.97313 0.03700
H 	H 	0.38663 0.64573 0.98272 0.03600
H 	H 	0.31860 0.56700 0.05061 0.03800
H 	H 	0.41230 0.61011 0.96707 0.04400
H 	H 	0.45606 0.58259 0.97587 0.03600
H 	H 	0.41446 0.53518 0.05353 0.03700
C 	C 	0.36375 0.56082 0.04732 -0.04100
H 	H 	0.36296 0.54174 0.06248 0.03700
C 	C 	0.59988 0.39880 0.05441 -0.04200
C 	C 	0.60071 0.42808 0.04716 0.00500
C 	C 	0.62575 0.44044 0.03317 0.01000
C 	C 	0.64841 0.42237 0.02272 0.00100
C 	C 	0.62369 0.38168 0.04813 -0.03700
C 	C 	0.64862 0.39342 0.03332 0.00000
C 	C 	0.57662 0.44517 0.05335 -0.01100
C 	C 	0.57787 0.47471 0.04738 -0.08800
C 	C 	0.62783 0.47051 0.03076 -0.05700
C 	C 	0.66863 0.43155 0.99892 -0.03600
C 	C 	0.69221 0.38549 0.00094 0.01300
C 	C 	0.67254 0.37603 0.02529 0.00700
C 	C 	0.67790 0.35008 0.04193 -0.05400
C 	C 	0.70029 0.33242 0.03169 0.00600
C 	C 	0.71795 0.34061 0.00531 -0.07900
C 	C 	0.71421 0.36730 0.99030 -0.01700
C 	C 	0.60388 0.48742 0.03738 0.01100
H 	H 	0.60536 0.51036 0.03390 0.03300
H 	H 	0.64803 0.48090 0.02473 0.04300
H 	H 	0.55682 0.43548 0.06228 0.03800
H 	H 	0.58066 0.38918 0.06491 0.03800
H 	H 	0.62183 0.35895 0.05269 0.03700
H 	H 	0.66680 0.45227 0.98730 0.03800
H 	H 	0.66571 0.34413 0.06361 0.04200
H 	H 	0.70393 0.31237 0.04432 0.02700
H 	H 	0.72866 0.37405 0.97074 0.04300
C 	C 	0.68992 0.41307 0.98778 -0.04500
H 	H 	0.70478 0.42033 0.96892 0.04100
C 	C 	0.63050 0.69305 0.94358 -0.04000
C 	C 	0.65526 0.69275 0.96326 0.00500
C 	C 	0.66425 0.66686 0.97801 0.00800
C 	C 	0.64786 0.64149 0.97256 -0.00100
C 	C 	0.61296 0.66876 0.94123 -0.03600
C 	C 	0.62021 0.64358 0.95832 -0.00000
C 	C 	0.67028 0.71834 0.96968 -0.00700
C 	C 	0.69319 0.71873 0.99213 -0.09100
C 	C 	0.68742 0.66753 0.00048 -0.05800
C 	C 	0.65875 0.61419 0.97989 -0.03700
C 	C 	0.61134 0.59324 0.97190 0.00500
C 	C 	0.60082 0.61999 0.96094 0.00800
C 	C 	0.57087 0.62341 0.95696 -0.05600
C 	C 	0.55198 0.60094 0.96438 0.01000
C 	C 	0.56242 0.57495 0.97636 -0.08200
C 	C 	0.59210 0.57055 0.97817 -0.01300
C 	C 	0.70191 0.69317 0.00703 0.01400
H 	H 	0.71921 0.69335 0.02488 0.02100
H 	H 	0.69312 0.64877 0.01450 0.04100
H 	H 	0.66357 0.73807 0.95802 0.04600
H 	H 	0.62435 0.71240 0.93078 0.04000
H 	H 	0.59457 0.66926 0.92498 0.03800
H 	H 	0.68137 0.61121 0.98484 0.03600
H 	H 	0.56191 0.64395 0.95075 0.04200
H 	H 	0.52901 0.60440 0.96287 0.03200
H 	H 	0.60011 0.55033 0.98734 0.03800
C 	C 	0.64062 0.59025 0.97922 -0.04200
H 	H 	0.64913 0.56951 0.98576 0.03700
