data_crystal

_cell_length_a 39.20148
_cell_length_b 36.35324
_cell_length_c 45.32390
_cell_angle_alpha 104.41715
_cell_angle_beta  116.12657
_cell_angle_gamma 110.62476

_symmetry_space_group_name_	'P 1'
_symmetry_space_group_name_H-M	'P 1'

loop_
_symmetry_equiv_pos_as_xyz
  x,y,z

loop_
_atom_site_label
_atom_site_type_symbol
_atom_site_fract_x
_atom_site_fract_y
_atom_site_fract_z
_atom_site_charge
C 	C 	0.24121 0.10061 0.92364 0.04400
C 	C 	0.24926 0.13924 0.91967 -0.06900
C 	C 	0.28449 0.16066 0.91693 0.01900
C 	C 	0.31105 0.14277 0.91747 -0.06400
C 	C 	0.30305 0.10421 0.92146 0.01900
C 	C 	0.26772 0.08283 0.92401 -0.06800
H 	H 	0.22908 0.15332 0.91986 0.06000
H 	H 	0.33906 0.15988 0.91639 0.05000
H 	H 	0.26213 0.05357 0.92795 0.05800
C 	C 	0.30814 0.14487 0.45798 0.05100
C 	C 	0.31711 0.18333 0.45367 -0.07000
C 	C 	0.35214 0.20324 0.45036 0.02600
C 	C 	0.37720 0.18368 0.45015 -0.06900
C 	C 	0.36965 0.14653 0.45624 0.04600
C 	C 	0.33427 0.12639 0.45905 -0.07800
H 	H 	0.29794 0.19859 0.45422 0.05900
H 	H 	0.40494 0.19956 0.44843 0.05400
H 	H 	0.32855 0.09777 0.46395 0.06000
C 	C 	0.21149 0.37108 0.98508 0.04400
C 	C 	0.18297 0.38753 0.97951 -0.07400
C 	C 	0.14466 0.36570 0.97850 0.04700
C 	C 	0.13561 0.32812 0.98409 -0.06700
C 	C 	0.16346 0.31093 0.98879 0.02200
C 	C 	0.20248 0.33369 0.99095 -0.06700
H 	H 	0.18931 0.41578 0.97410 0.05900
H 	H 	0.10528 0.31052 0.98218 0.05400
H 	H 	0.22428 0.32072 0.99485 0.05400
C 	C 	0.27975 0.41867 0.51742 0.05000
C 	C 	0.25609 0.43998 0.51752 -0.07500
C 	C 	0.21614 0.41841 0.51429 0.04600
C 	C 	0.20251 0.37778 0.51516 -0.07000
C 	C 	0.22519 0.35553 0.51405 0.02500
C 	C 	0.26386 0.37609 0.51509 -0.06800
H 	H 	0.26685 0.47166 0.51719 0.05900
H 	H 	0.17239 0.36194 0.51393 0.05100
H 	H 	0.28060 0.35846 0.51280 0.05900
Zn	Zn	0.07898 0.56354 0.99375 1.18300
Zn	Zn	0.00640 0.53759 0.91683 1.19000
O 	O 	0.99746 0.45944 0.85695 -0.47000
O 	O 	0.98890 0.51945 0.86359 -0.43700
O 	O 	0.98148 0.39786 0.90021 -0.47500
C 	C 	0.11462 0.53372 0.95778 0.29400
O 	O 	0.95963 0.47752 0.90058 -0.86700
C 	C 	0.08732 0.63240 0.96952 0.33200
O 	O 	0.12549 0.55833 0.99078 -0.46100
O 	O 	0.07253 0.50216 0.93103 -0.35400
O 	O 	0.01923 0.54216 0.96690 -0.78500
O 	O 	0.02474 0.45691 0.95881 -0.44900
O 	O 	0.05325 0.60016 0.93486 -0.45300
O 	O 	0.09950 0.62443 0.99819 -0.46400
Zn	Zn	0.87300 0.41221 0.91598 1.18000
Zn	Zn	0.94722 0.42623 0.98184 1.18700
Zn	Zn	0.97353 0.48240 0.94842 1.22200
C 	C 	0.86244 0.33659 0.93351 0.33800
C 	C 	0.85307 0.43956 0.96645 0.30600
O 	O 	0.92385 0.51119 0.93831 -0.44600
Zn	Zn	0.95943 0.51111 0.01199 1.19300
O 	O 	0.90430 0.36297 0.96380 -0.45300
O 	O 	0.84373 0.35068 0.91052 -0.45200
O 	O 	0.84288 0.43350 0.93325 -0.46800
O 	O 	0.89324 0.44980 0.99226 -0.46200
C 	C 	0.98599 0.47945 0.06537 0.30900
O 	O 	0.92796 0.42276 0.93049 -0.78900
C 	C 	0.91656 0.53494 0.95943 0.33000
O 	O 	0.97104 0.44166 0.03714 -0.43300
O 	O 	0.98685 0.51413 0.06081 -0.46900
O 	O 	0.93246 0.54146 0.99374 -0.49000
O 	O 	0.98650 0.48728 0.99566 -0.87600
Zn	Zn	0.96747 0.43322 0.87841 1.19100
C 	C 	0.99443 0.48946 0.84638 0.33300
C 	C 	0.01519 0.41857 0.93562 0.29500
H 	H 	0.01837 0.49960 0.01525 0.14300
H 	H 	0.92905 0.47115 0.88397 0.16000
Zn	Zn	0.14214 0.61442 0.52607 1.18600
Zn	Zn	0.06672 0.58207 0.44711 1.19400
O 	O 	0.05287 0.50396 0.38399 -0.48000
O 	O 	0.04246 0.56281 0.39215 -0.44600
O 	O 	0.05083 0.44685 0.43287 -0.50000
C 	C 	0.17751 0.58654 0.48928 0.29900
O 	O 	0.02182 0.52239 0.43300 -0.88800
C 	C 	0.14644 0.67719 0.49620 0.33000
O 	O 	0.18903 0.61112 0.52259 -0.45500
O 	O 	0.13485 0.55764 0.46199 -0.36300
O 	O 	0.08165 0.58859 0.49852 -0.77600
O 	O 	0.09409 0.50739 0.49062 -0.44900
O 	O 	0.11636 0.64164 0.46249 -0.45500
O 	O 	0.15732 0.67326 0.52669 -0.45400
Zn	Zn	0.94116 0.45376 0.44833 1.17600
Zn	Zn	0.01778 0.46842 0.51432 1.18400
Zn	Zn	0.03935 0.52746 0.48145 1.21400
C 	C 	0.93312 0.37972 0.46819 0.33700
C 	C 	0.92173 0.48409 0.49846 0.31200
O 	O 	0.98624 0.55126 0.47420 -0.46200
Zn	Zn	0.02985 0.55445 0.54781 1.19800
O 	O 	0.97672 0.40423 0.49482 -0.44600
O 	O 	0.91348 0.39291 0.44474 -0.46400
O 	O 	0.91018 0.47508 0.46442 -0.47900
O 	O 	0.96132 0.49232 0.52351 -0.45800
C 	C 	0.04771 0.51456 0.59563 0.33800
O 	O 	0.99693 0.46660 0.46359 -0.79500
C 	C 	0.98735 0.58136 0.49867 0.33500
O 	O 	0.03977 0.48075 0.56859 -0.43500
O 	O 	0.05405 0.55211 0.59459 -0.47300
O 	O 	0.00693 0.58909 0.53347 -0.50700
O 	O 	0.05553 0.53093 0.52928 -0.89700
Zn	Zn	0.03045 0.47905 0.41020 1.18400
C 	C 	0.04385 0.53102 0.37205 0.32800
C 	C 	0.08572 0.46953 0.46799 0.30900
H 	H 	0.08782 0.54369 0.54792 0.16500
H 	H 	0.99070 0.51517 0.41731 0.15800
C 	C 	0.00129 0.49172 0.81717 -0.14400
C 	C 	0.01485 0.53150 0.81473 0.04600
C 	C 	0.02264 0.53373 0.78773 -0.08500
C 	C 	0.01706 0.49628 0.76301 0.06100
C 	C 	0.00385 0.45671 0.76561 -0.12300
C 	C 	0.99585 0.45435 0.79241 0.08100
C 	C 	0.02422 0.49814 0.73391 -0.02000
C 	C 	0.06617 0.52968 0.74408 -0.03100
C 	C 	0.07293 0.53105 0.71644 -0.02800
C 	C 	0.03788 0.50087 0.67852 -0.02100
C 	C 	0.99618 0.46903 0.66836 -0.01500
C 	C 	0.98929 0.46775 0.69591 -0.01700
C 	C 	0.04327 0.50522 0.64991 0.06000
C 	C 	0.04630 0.50921 0.62542 -0.11700
H 	H 	0.01968 0.56077 0.83385 0.03600
H 	H 	0.03284 0.56446 0.78593 0.05800
H 	H 	0.99980 0.42775 0.74686 0.07600
H 	H 	0.98535 0.42342 0.79387 0.01600
H 	H 	0.09340 0.55316 0.77332 0.04900
H 	H 	0.10518 0.55596 0.72448 0.04200
H 	H 	0.96888 0.44576 0.63908 0.05300
H 	H 	0.95675 0.44338 0.68775 0.04400
C 	C 	0.99979 0.48220 0.10214 -0.07500
C 	C 	0.03557 0.52279 0.13504 -0.00800
C 	C 	0.04368 0.52834 0.16958 -0.05800
C 	C 	0.01616 0.49336 0.17158 0.00600
C 	C 	0.98192 0.45194 0.13902 -0.04500
C 	C 	0.97382 0.44635 0.10443 0.00600
C 	C 	0.02126 0.50108 0.20719 -0.00700
C 	C 	0.98673 0.49960 0.21024 -0.03200
C 	C 	0.99207 0.50829 0.24432 -0.01700
C 	C 	0.03194 0.51859 0.27556 -0.02800
C 	C 	0.06655 0.52031 0.27264 -0.02800
C 	C 	0.06127 0.51162 0.23857 -0.04200
C 	C 	0.03624 0.52454 0.30989 0.05400
C 	C 	0.03972 0.52835 0.33843 -0.12800
H 	H 	0.05623 0.55049 0.13368 0.02300
H 	H 	0.07043 0.56030 0.19461 0.04000
H 	H 	0.96085 0.42454 0.14037 0.04200
H 	H 	0.94616 0.41485 0.07926 0.03700
H 	H 	0.95590 0.49193 0.18628 0.03800
H 	H 	0.96509 0.50669 0.24633 0.03300
H 	H 	0.09736 0.52795 0.29662 0.04600
H 	H 	0.08815 0.51296 0.23653 0.03900
C 	C 	0.20592 0.30898 0.50819 0.03700
C 	C 	0.16009 0.27697 0.48041 -0.07600
C 	C 	0.14108 0.23408 0.47657 0.03400
C 	C 	0.16784 0.22195 0.49950 -0.12000
C 	C 	0.21462 0.25292 0.52547 0.10000
C 	C 	0.23312 0.29668 0.53053 -0.09300
H 	H 	0.10536 0.21031 0.45592 0.02100
H 	H 	0.26870 0.32088 0.55147 0.06700
H 	H 	0.13904 0.28552 0.46207 0.05200
I 	I 	0.25888 0.23334 0.55363 -0.13200
C 	C 	0.38627 0.47145 0.50489 -0.07500
C 	C 	0.34178 0.45442 0.47569 0.00500
C 	C 	0.30739 0.43742 0.48007 -0.04400
C 	C 	0.31691 0.43774 0.51384 -0.01300
C 	C 	0.36172 0.45659 0.54386 0.03700
C 	C 	0.39619 0.47352 0.53934 -0.01700
H 	H 	0.27314 0.42358 0.45703 0.04900
H 	H 	0.43049 0.48764 0.56242 0.05800
H 	H 	0.33362 0.45358 0.44929 0.03700
I 	I 	0.37847 0.46060 0.59645 -0.12000
C 	C 	0.11965 0.45705 0.48004 -0.08900
C 	C 	0.15013 0.47175 0.51818 0.00400
C 	C 	0.18234 0.45998 0.52938 -0.04900
C 	C 	0.18441 0.43347 0.50260 -0.01400
C 	C 	0.15417 0.41909 0.46434 0.03200
C 	C 	0.12216 0.43105 0.45329 -0.01500
H 	H 	0.20533 0.47100 0.55883 0.04100
H 	H 	0.09935 0.42023 0.42387 0.04400
H 	H 	0.14861 0.49187 0.53911 0.01600
I 	I 	0.15539 0.37844 0.42246 -0.13600
C 	C 	0.14875 0.26631 0.98667 0.04700
C 	C 	0.13565 0.25682 0.00944 -0.08900
C 	C 	0.11645 0.21321 0.00418 0.02300
C 	C 	0.11079 0.17870 0.97653 -0.11400
C 	C 	0.12671 0.18876 0.95530 0.09900
C 	C 	0.14465 0.23223 0.95988 -0.09400
H 	H 	0.10508 0.20602 0.02111 0.01700
H 	H 	0.15509 0.23943 0.94243 0.07100
H 	H 	0.13936 0.28303 0.03060 0.04400
I 	I 	0.12790 0.14040 0.91863 -0.12300
C 	C 	0.31663 0.42261 0.97107 -0.06500
C 	C 	0.32437 0.44308 0.00586 -0.00600
C 	C 	0.28977 0.42654 0.01020 -0.05500
C 	C 	0.24726 0.38919 0.97988 -0.00500
C 	C 	0.23948 0.36847 0.94493 0.03300
C 	C 	0.27409 0.38526 0.94070 -0.01800
H 	H 	0.29608 0.44256 0.03719 0.03900
H 	H 	0.26807 0.36883 0.91390 0.05300
H 	H 	0.35708 0.47188 0.02949 0.03200
I 	I 	0.17598 0.31145 0.89815 -0.10600
C 	C 	0.04718 0.40354 0.94752 -0.08500
C 	C 	0.08759 0.42941 0.98370 0.01200
C 	C 	0.11942 0.41711 0.99357 -0.04000
C 	C 	0.11138 0.37900 0.96743 -0.01600
C 	C 	0.07093 0.35299 0.93114 0.03300
C 	C 	0.03883 0.36488 0.92160 -0.01900
H 	H 	0.15039 0.43724 0.02156 0.02800
H 	H 	0.00775 0.34450 0.89370 0.04900
H 	H 	0.09462 0.45928 0.00406 0.00800
I 	I 	0.05812 0.29669 0.88948 -0.11200
C 	C 	0.46057 0.10120 0.48580 -0.08900
C 	C 	0.42078 0.07719 0.44944 0.00700
C 	C 	0.39209 0.09320 0.43933 -0.05000
C 	C 	0.40275 0.13314 0.46550 -0.01400
C 	C 	0.44346 0.15809 0.50159 0.03100
C 	C 	0.47245 0.14241 0.51128 -0.01500
H 	H 	0.36087 0.07385 0.41154 0.04000
H 	H 	0.50354 0.16153 0.53915 0.04800
H 	H 	0.41125 0.04535 0.42948 0.01700
I 	I 	0.46054 0.21777 0.54307 -0.11800
C 	C 	0.36681 0.24776 0.45263 0.03700
C 	C 	0.36822 0.25400 0.42380 -0.07700
C 	C 	0.38816 0.29718 0.42832 0.03600
C 	C 	0.40695 0.33449 0.46175 -0.12300
C 	C 	0.40323 0.32812 0.48987 0.10000
C 	C 	0.38345 0.28483 0.48528 -0.09000
H 	H 	0.39038 0.30175 0.40637 0.01600
H 	H 	0.38199 0.28009 0.50748 0.06900
H 	H 	0.35505 0.22550 0.39835 0.04800
I 	I 	0.42596 0.38301 0.53898 -0.11500
C 	C 	0.21095 0.09735 0.48079 -0.06600
C 	C 	0.25693 0.12311 0.50996 0.00500
C 	C 	0.28850 0.13791 0.50224 -0.03900
C 	C 	0.27451 0.12677 0.46529 -0.01600
C 	C 	0.22850 0.09928 0.43575 0.04000
C 	C 	0.19695 0.08470 0.44359 -0.02300
H 	H 	0.32390 0.15864 0.52507 0.04900
H 	H 	0.16155 0.06443 0.42080 0.06100
H 	H 	0.26824 0.13240 0.53869 0.04500
I 	I 	0.20571 0.07921 0.37908 -0.12800
C 	C 	0.33480 0.08933 0.92746 0.04100
C 	C 	0.37857 0.11617 0.96029 -0.08000
C 	C 	0.40667 0.09948 0.96889 0.04000
C 	C 	0.39124 0.05557 0.94492 -0.13200
C 	C 	0.34856 0.03006 0.91001 0.11700
C 	C 	0.32039 0.04692 0.90182 -0.09900
H 	H 	0.43982 0.11994 0.99514 0.02200
H 	H 	0.28704 0.02677 0.87579 0.07200
H 	H 	0.39019 0.14933 0.97992 0.05100
I 	I 	0.32578 0.96714 0.86831 -0.22800
C 	C 	0.29656 0.20416 0.91727 0.03800
C 	C 	0.30848 0.24084 0.94759 -0.07500
C 	C 	0.32789 0.28382 0.95167 0.03800
C 	C 	0.33593 0.29067 0.92568 -0.12100
C 	C 	0.32193 0.25359 0.89415 0.10200
C 	C 	0.30170 0.21047 0.88983 -0.09300
H 	H 	0.33810 0.31209 0.97576 0.02900
H 	H 	0.29188 0.18211 0.86605 0.06500
H 	H 	0.30446 0.23632 0.96884 0.05200
I 	I 	0.33439 0.26196 0.85441 -0.15500
C 	C 	0.14737 0.04734 0.94871 -0.07300
C 	C 	0.19323 0.07737 0.97757 0.01700
C 	C 	0.22359 0.09461 0.96916 -0.04700
C 	C 	0.20860 0.08185 0.93182 -0.01100
C 	C 	0.16285 0.05070 0.90266 0.04000
C 	C 	0.13248 0.03344 0.91117 -0.01900
H 	H 	0.25884 0.11817 0.99171 0.04400
H 	H 	0.09718 0.01026 0.88863 0.06100
H 	H 	0.20531 0.08787 0.00658 0.02600
I 	I 	0.13856 0.02975 0.84563 -0.11300
C 	C 	0.24121 0.60061 0.92364 0.04400
C 	C 	0.24926 0.63924 0.91967 -0.06800
C 	C 	0.28449 0.66066 0.91693 0.02000
C 	C 	0.31105 0.64277 0.91747 -0.06300
C 	C 	0.30305 0.60421 0.92146 0.01800
C 	C 	0.26772 0.58283 0.92401 -0.06800
H 	H 	0.22908 0.65332 0.91986 0.06000
H 	H 	0.33906 0.65988 0.91639 0.05000
H 	H 	0.26213 0.55357 0.92795 0.05700
C 	C 	0.30814 0.64487 0.45798 0.05100
C 	C 	0.31711 0.68333 0.45367 -0.07000
C 	C 	0.35214 0.70324 0.45036 0.02500
C 	C 	0.37720 0.68368 0.45015 -0.06900
C 	C 	0.36965 0.64653 0.45624 0.04600
C 	C 	0.33427 0.62639 0.45905 -0.07800
H 	H 	0.29794 0.69859 0.45422 0.05900
H 	H 	0.40494 0.69956 0.44843 0.05400
H 	H 	0.32855 0.59777 0.46395 0.05800
C 	C 	0.21149 0.87108 0.98508 0.04400
C 	C 	0.18297 0.88753 0.97951 -0.07400
C 	C 	0.14466 0.86570 0.97850 0.04600
C 	C 	0.13561 0.82812 0.98409 -0.06700
C 	C 	0.16346 0.81093 0.98879 0.02100
C 	C 	0.20248 0.83369 0.99095 -0.06700
H 	H 	0.18931 0.91578 0.97410 0.05800
H 	H 	0.10528 0.81052 0.98218 0.05400
H 	H 	0.22428 0.82072 0.99485 0.05400
C 	C 	0.27975 0.91867 0.51742 0.04900
C 	C 	0.25609 0.93998 0.51752 -0.07600
C 	C 	0.21614 0.91841 0.51429 0.04600
C 	C 	0.20251 0.87778 0.51516 -0.07000
C 	C 	0.22519 0.85553 0.51405 0.02500
C 	C 	0.26386 0.87609 0.51509 -0.06800
H 	H 	0.26685 0.97166 0.51719 0.05800
H 	H 	0.17239 0.86194 0.51393 0.05100
H 	H 	0.28060 0.85846 0.51280 0.05900
Zn	Zn	0.07898 0.06354 0.99375 1.18400
Zn	Zn	0.00640 0.03759 0.91683 1.19200
O 	O 	0.99746 0.95944 0.85695 -0.47100
O 	O 	0.98890 0.01945 0.86359 -0.43000
O 	O 	0.98148 0.89786 0.90021 -0.47600
C 	C 	0.11462 0.03372 0.95778 0.29400
O 	O 	0.95963 0.97752 0.90058 -0.87000
C 	C 	0.08732 0.13240 0.96952 0.33200
O 	O 	0.12549 0.05833 0.99078 -0.45900
O 	O 	0.07253 0.00216 0.93103 -0.35000
O 	O 	0.01923 0.04215 0.96690 -0.78100
O 	O 	0.05325 0.10016 0.93486 -0.45300
O 	O 	0.09950 0.12443 0.99819 -0.46300
Zn	Zn	0.87300 0.91221 0.91598 1.17900
Zn	Zn	0.94722 0.92623 0.98184 1.18700
C 	C 	0.86244 0.83659 0.93351 0.33800
C 	C 	0.85307 0.93956 0.96645 0.30600
O 	O 	0.92385 0.01119 0.93831 -0.44100
O 	O 	0.90430 0.86297 0.96380 -0.45400
O 	O 	0.84373 0.85068 0.91052 -0.45200
O 	O 	0.84288 0.93350 0.93325 -0.46900
O 	O 	0.89324 0.94980 0.99226 -0.46500
C 	C 	0.98599 0.97945 0.06537 0.30100
O 	O 	0.92796 0.92276 0.93049 -0.79000
C 	C 	0.91656 0.03494 0.95943 0.33100
O 	O 	0.97104 0.94166 0.03714 -0.43300
O 	O 	0.98685 0.01413 0.06081 -0.46100
O 	O 	0.93246 0.04146 0.99374 -0.48800
C 	C 	0.99443 0.98946 0.84638 0.32700
C 	C 	0.01519 0.91857 0.93562 0.29400
H 	H 	0.01837 0.99960 0.01525 0.14200
Zn	Zn	0.14214 0.11442 0.52607 1.18600
Zn	Zn	0.06672 0.08207 0.44711 1.19400
O 	O 	0.05287 0.00396 0.38399 -0.47700
O 	O 	0.04246 0.06281 0.39215 -0.44600
O 	O 	0.05083 0.94685 0.43287 -0.50000
C 	C 	0.17751 0.08654 0.48928 0.29900
O 	O 	0.02182 0.02239 0.43300 -0.88500
C 	C 	0.14644 0.17719 0.49620 0.33000
O 	O 	0.18903 0.11112 0.52259 -0.45400
O 	O 	0.13485 0.05764 0.46199 -0.36200
O 	O 	0.08165 0.08859 0.49852 -0.77600
O 	O 	0.11636 0.14164 0.46249 -0.45500
O 	O 	0.15732 0.17326 0.52669 -0.45400
Zn	Zn	0.94116 0.95376 0.44833 1.17500
Zn	Zn	0.01778 0.96842 0.51432 1.18300
C 	C 	0.93312 0.87972 0.46819 0.33800
C 	C 	0.92173 0.98408 0.49846 0.31100
O 	O 	0.98624 0.05126 0.47420 -0.46000
O 	O 	0.97672 0.90423 0.49482 -0.44700
O 	O 	0.91348 0.89291 0.44474 -0.46500
O 	O 	0.91018 0.97508 0.46442 -0.48100
O 	O 	0.96132 0.99232 0.52351 -0.46100
C 	C 	0.04771 0.01456 0.59563 0.34600
O 	O 	0.99693 0.96660 0.46359 -0.79900
C 	C 	0.98735 0.08136 0.49867 0.33400
O 	O 	0.03977 0.98075 0.56859 -0.44200
O 	O 	0.05405 0.05211 0.59459 -0.47300
O 	O 	0.00693 0.08909 0.53347 -0.50500
C 	C 	0.04385 0.03102 0.37205 0.32800
C 	C 	0.08572 0.96953 0.46799 0.30100
H 	H 	0.08782 0.04369 0.54792 0.16600
C 	C 	0.00129 0.99172 0.81717 -0.15200
C 	C 	0.02264 0.03373 0.78773 -0.07900
C 	C 	0.01706 0.99628 0.76301 0.05600
C 	C 	0.00385 0.95671 0.76561 -0.12500
C 	C 	0.99585 0.95435 0.79241 0.08200
C 	C 	0.02422 0.99814 0.73391 -0.03300
C 	C 	0.06617 0.02968 0.74408 -0.01600
C 	C 	0.07293 0.03105 0.71644 -0.03600
C 	C 	0.03788 0.00087 0.67852 -0.00600
C 	C 	0.99618 0.96903 0.66836 -0.03000
C 	C 	0.98929 0.96775 0.69591 -0.01000
C 	C 	0.04327 0.00522 0.64991 0.05800
C 	C 	0.04630 0.00921 0.62542 -0.11400
H 	H 	0.01968 0.06077 0.83385 0.03500
H 	H 	0.03284 0.06446 0.78593 0.05800
H 	H 	0.99980 0.92775 0.74686 0.07500
H 	H 	0.98535 0.92342 0.79387 0.01500
H 	H 	0.09340 0.05316 0.77332 0.04600
H 	H 	0.10518 0.05596 0.72448 0.04500
H 	H 	0.96888 0.94576 0.63908 0.05600
H 	H 	0.95675 0.94338 0.68775 0.04200
C 	C 	0.99979 0.98220 0.10214 -0.07800
C 	C 	0.03557 0.02279 0.13504 -0.00500
C 	C 	0.04368 0.02834 0.16958 -0.04300
C 	C 	0.01616 0.99336 0.17158 -0.01900
C 	C 	0.98192 0.95194 0.13902 -0.03700
C 	C 	0.97382 0.94635 0.10443 0.00100
C 	C 	0.99207 0.00829 0.24432 0.00300
C 	C 	0.03194 0.01859 0.27556 -0.03700
C 	C 	0.06655 0.02031 0.27264 -0.01800
C 	C 	0.03624 0.02454 0.30989 0.05800
C 	C 	0.03972 0.02835 0.33843 -0.12900
H 	H 	0.05622 0.05049 0.13368 0.02400
H 	H 	0.96085 0.92454 0.14037 0.03800
H 	H 	0.94616 0.91485 0.07926 0.03800
H 	H 	0.96509 0.00669 0.24633 0.03000
H 	H 	0.09736 0.02795 0.29662 0.04400
C 	C 	0.20592 0.80898 0.50819 0.03700
C 	C 	0.16009 0.77697 0.48041 -0.07600
C 	C 	0.14108 0.73408 0.47657 0.03400
C 	C 	0.16784 0.72195 0.49950 -0.12000
C 	C 	0.21462 0.75292 0.52547 0.10000
C 	C 	0.23312 0.79668 0.53053 -0.09300
H 	H 	0.10536 0.71031 0.45592 0.02000
H 	H 	0.26870 0.82088 0.55147 0.06600
H 	H 	0.13904 0.78552 0.46207 0.05200
I 	I 	0.25889 0.73334 0.55363 -0.13300
C 	C 	0.38627 0.97145 0.50489 -0.07700
C 	C 	0.34178 0.95442 0.47569 0.00500
C 	C 	0.30739 0.93742 0.48007 -0.04500
C 	C 	0.31691 0.93774 0.51384 -0.01300
C 	C 	0.36172 0.95659 0.54386 0.03700
C 	C 	0.39619 0.97352 0.53934 -0.01700
H 	H 	0.27314 0.92358 0.45703 0.04800
H 	H 	0.43049 0.98764 0.56242 0.05700
H 	H 	0.33362 0.95358 0.44929 0.03500
I 	I 	0.37847 0.96060 0.59645 -0.12300
C 	C 	0.11965 0.95704 0.48004 -0.08700
C 	C 	0.15013 0.97175 0.51818 0.00200
C 	C 	0.18234 0.95998 0.52938 -0.04900
C 	C 	0.18441 0.93347 0.50260 -0.01500
C 	C 	0.15417 0.91909 0.46434 0.03200
C 	C 	0.12216 0.93105 0.45329 -0.01700
H 	H 	0.20533 0.97100 0.55883 0.04000
H 	H 	0.09935 0.92023 0.42387 0.04400
H 	H 	0.14861 0.99187 0.53911 0.01400
I 	I 	0.15539 0.87844 0.42246 -0.13800
C 	C 	0.14875 0.76631 0.98667 0.04700
C 	C 	0.13565 0.75682 0.00944 -0.08900
C 	C 	0.11645 0.71321 0.00418 0.02300
C 	C 	0.11079 0.67870 0.97653 -0.11400
C 	C 	0.12671 0.68876 0.95530 0.09900
C 	C 	0.14464 0.73223 0.95988 -0.09400
H 	H 	0.10508 0.70602 0.02111 0.01600
H 	H 	0.15509 0.73943 0.94243 0.07100
H 	H 	0.13936 0.78303 0.03060 0.04300
I 	I 	0.12790 0.64040 0.91863 -0.12400
C 	C 	0.31663 0.92261 0.97107 -0.06700
C 	C 	0.32437 0.94308 0.00586 -0.00600
C 	C 	0.28977 0.92654 0.01020 -0.05500
C 	C 	0.24726 0.88919 0.97988 -0.00500
C 	C 	0.23948 0.86847 0.94493 0.03300
C 	C 	0.27409 0.88526 0.94070 -0.01800
H 	H 	0.29608 0.94256 0.03719 0.03800
H 	H 	0.26807 0.86883 0.91390 0.05300
H 	H 	0.35708 0.97188 0.02949 0.03100
I 	I 	0.17598 0.81145 0.89815 -0.10700
C 	C 	0.04718 0.90354 0.94752 -0.08600
C 	C 	0.11942 0.91711 0.99357 -0.04100
C 	C 	0.11138 0.87900 0.96743 -0.01600
C 	C 	0.07093 0.85299 0.93114 0.03300
C 	C 	0.03883 0.86488 0.92160 -0.02000
H 	H 	0.00775 0.84450 0.89370 0.04800
H 	H 	0.09462 0.95928 0.00406 0.00700
I 	I 	0.05812 0.79669 0.88948 -0.11300
C 	C 	0.46057 0.60120 0.48580 -0.09000
C 	C 	0.42079 0.57719 0.44944 0.00700
C 	C 	0.39209 0.59320 0.43933 -0.05100
C 	C 	0.40275 0.63314 0.46550 -0.01400
C 	C 	0.44346 0.65809 0.50159 0.03100
C 	C 	0.47245 0.64241 0.51128 -0.01600
H 	H 	0.36087 0.57385 0.41154 0.03900
H 	H 	0.50354 0.66153 0.53915 0.04800
H 	H 	0.41125 0.54536 0.42948 0.01600
I 	I 	0.46054 0.71777 0.54307 -0.12000
C 	C 	0.36681 0.74776 0.45263 0.03700
C 	C 	0.36822 0.75400 0.42380 -0.07800
C 	C 	0.38816 0.79718 0.42832 0.03600
C 	C 	0.40695 0.83449 0.46175 -0.12300
C 	C 	0.40323 0.82812 0.48987 0.10000
C 	C 	0.38345 0.78483 0.48528 -0.09100
H 	H 	0.39038 0.80175 0.40637 0.01600
H 	H 	0.38199 0.78009 0.50748 0.06900
H 	H 	0.35505 0.72550 0.39835 0.04700
I 	I 	0.42596 0.88301 0.53898 -0.11700
C 	C 	0.21095 0.59734 0.48079 -0.06700
C 	C 	0.25693 0.62311 0.50996 0.00500
C 	C 	0.28850 0.63791 0.50224 -0.03900
C 	C 	0.27451 0.62677 0.46529 -0.01600
C 	C 	0.22850 0.59928 0.43575 0.04000
C 	C 	0.19695 0.58470 0.44359 -0.02300
H 	H 	0.32390 0.65864 0.52507 0.04900
H 	H 	0.16155 0.56443 0.42080 0.06000
H 	H 	0.26824 0.63240 0.53869 0.04400
I 	I 	0.20571 0.57921 0.37908 -0.13100
C 	C 	0.33480 0.58933 0.92746 0.04000
C 	C 	0.37857 0.61617 0.96029 -0.08000
C 	C 	0.40667 0.59948 0.96889 0.03900
C 	C 	0.39124 0.55557 0.94492 -0.13100
C 	C 	0.34856 0.53006 0.91001 0.11100
C 	C 	0.32039 0.54692 0.90182 -0.09800
H 	H 	0.43982 0.61994 0.99514 0.02100
H 	H 	0.28704 0.52677 0.87579 0.07000
H 	H 	0.39019 0.64933 0.97992 0.05000
I 	I 	0.32578 0.46714 0.86831 -0.21800
C 	C 	0.29656 0.70416 0.91727 0.03800
C 	C 	0.30848 0.74084 0.94759 -0.07500
C 	C 	0.32789 0.78382 0.95167 0.03800
C 	C 	0.33593 0.79067 0.92568 -0.12100
C 	C 	0.32193 0.75359 0.89415 0.10200
C 	C 	0.30170 0.71047 0.88983 -0.09300
H 	H 	0.33810 0.81209 0.97576 0.02900
H 	H 	0.29188 0.68211 0.86605 0.06500
H 	H 	0.30446 0.73632 0.96884 0.05100
I 	I 	0.33439 0.76196 0.85441 -0.15600
C 	C 	0.14737 0.54734 0.94871 -0.07400
C 	C 	0.19323 0.57737 0.97757 0.01700
C 	C 	0.22359 0.59461 0.96916 -0.04700
C 	C 	0.20860 0.58185 0.93182 -0.01100
C 	C 	0.16285 0.55070 0.90266 0.03900
C 	C 	0.13248 0.53344 0.91117 -0.02000
H 	H 	0.25884 0.61817 0.99171 0.04400
H 	H 	0.09718 0.51026 0.88863 0.05900
H 	H 	0.20531 0.58787 0.00658 0.02500
I 	I 	0.13856 0.52975 0.84563 -0.11800
C 	C 	0.74121 0.10061 0.92364 0.04500
C 	C 	0.74926 0.13924 0.91967 -0.06800
C 	C 	0.78449 0.16066 0.91693 0.02000
C 	C 	0.81105 0.14277 0.91747 -0.06300
C 	C 	0.80305 0.10421 0.92146 0.01900
C 	C 	0.76772 0.08283 0.92401 -0.06800
H 	H 	0.72908 0.15332 0.91986 0.06000
H 	H 	0.83906 0.15988 0.91639 0.05100
H 	H 	0.76213 0.05357 0.92795 0.05800
C 	C 	0.80814 0.14487 0.45798 0.05100
C 	C 	0.81711 0.18333 0.45367 -0.07000
C 	C 	0.85214 0.20324 0.45036 0.02600
C 	C 	0.87720 0.18368 0.45015 -0.06900
C 	C 	0.86965 0.14653 0.45624 0.04500
C 	C 	0.83427 0.12639 0.45905 -0.07700
H 	H 	0.79794 0.19859 0.45422 0.05900
H 	H 	0.90494 0.19956 0.44843 0.05500
H 	H 	0.82855 0.09777 0.46395 0.06000
C 	C 	0.71149 0.37108 0.98508 0.04400
C 	C 	0.68297 0.38753 0.97951 -0.07400
C 	C 	0.64466 0.36570 0.97850 0.04700
C 	C 	0.63561 0.32812 0.98409 -0.06700
C 	C 	0.66346 0.31093 0.98879 0.02200
C 	C 	0.70248 0.33369 0.99095 -0.06700
H 	H 	0.68931 0.41578 0.97410 0.06000
H 	H 	0.60528 0.31052 0.98218 0.05500
H 	H 	0.72428 0.32072 0.99485 0.05400
C 	C 	0.77975 0.41867 0.51742 0.05000
C 	C 	0.75609 0.43998 0.51752 -0.07500
C 	C 	0.71614 0.41841 0.51429 0.04600
C 	C 	0.70251 0.37778 0.51516 -0.07000
C 	C 	0.72519 0.35553 0.51405 0.02600
C 	C 	0.76386 0.37609 0.51509 -0.06800
H 	H 	0.76685 0.47166 0.51719 0.05900
H 	H 	0.67239 0.36194 0.51393 0.05200
H 	H 	0.78060 0.35846 0.51280 0.06000
Zn	Zn	0.57898 0.56354 0.99375 1.18400
Zn	Zn	0.50640 0.53759 0.91683 1.19400
O 	O 	0.49746 0.45944 0.85695 -0.47000
O 	O 	0.48890 0.51945 0.86359 -0.44000
O 	O 	0.48148 0.39786 0.90021 -0.49000
C 	C 	0.61462 0.53372 0.95778 0.29400
O 	O 	0.45963 0.47752 0.90058 -0.87200
C 	C 	0.58732 0.63240 0.96952 0.33100
O 	O 	0.62549 0.55833 0.99078 -0.46000
O 	O 	0.57253 0.50216 0.93103 -0.35000
O 	O 	0.51923 0.54216 0.96690 -0.77700
O 	O 	0.52474 0.45691 0.95881 -0.44700
O 	O 	0.55325 0.60016 0.93486 -0.45000
O 	O 	0.59950 0.62443 0.99819 -0.46200
Zn	Zn	0.37300 0.41221 0.91598 1.18000
Zn	Zn	0.44722 0.42623 0.98184 1.18700
Zn	Zn	0.47353 0.48240 0.94842 1.22000
C 	C 	0.36244 0.33659 0.93351 0.33800
C 	C 	0.35307 0.43956 0.96645 0.30600
O 	O 	0.42385 0.51119 0.93831 -0.44800
Zn	Zn	0.45943 0.51111 0.01199 1.19300
O 	O 	0.40430 0.36297 0.96380 -0.45500
O 	O 	0.34373 0.35068 0.91052 -0.45200
O 	O 	0.34288 0.43350 0.93325 -0.46800
O 	O 	0.39324 0.44980 0.99226 -0.46200
C 	C 	0.48599 0.47945 0.06537 0.31500
O 	O 	0.42796 0.42276 0.93049 -0.79100
C 	C 	0.41656 0.53494 0.95943 0.32900
O 	O 	0.47104 0.44166 0.03714 -0.43800
O 	O 	0.48685 0.51413 0.06081 -0.47500
O 	O 	0.43246 0.54146 0.99374 -0.49200
O 	O 	0.48650 0.48728 0.99566 -0.88900
Zn	Zn	0.46747 0.43322 0.87841 1.18900
C 	C 	0.49443 0.48946 0.84638 0.30800
C 	C 	0.51519 0.41857 0.93562 0.31100
H 	H 	0.51837 0.49960 0.01525 0.15500
H 	H 	0.42905 0.47115 0.88397 0.16000
Zn	Zn	0.64213 0.61442 0.52607 1.18600
Zn	Zn	0.56672 0.58207 0.44711 1.19500
O 	O 	0.55287 0.50396 0.38399 -0.47800
O 	O 	0.54246 0.56281 0.39215 -0.44300
O 	O 	0.55083 0.44685 0.43287 -0.49600
C 	C 	0.67751 0.58654 0.48928 0.29900
O 	O 	0.52182 0.52239 0.43300 -0.87400
C 	C 	0.64644 0.67719 0.49620 0.33000
O 	O 	0.68903 0.61112 0.52259 -0.45400
O 	O 	0.63485 0.55764 0.46199 -0.36300
O 	O 	0.58165 0.58859 0.49852 -0.77400
O 	O 	0.59409 0.50739 0.49062 -0.44800
O 	O 	0.61636 0.64164 0.46249 -0.45400
O 	O 	0.65732 0.67326 0.52669 -0.45300
Zn	Zn	0.44116 0.45376 0.44833 1.17500
Zn	Zn	0.51779 0.46842 0.51432 1.18900
Zn	Zn	0.53935 0.52746 0.48145 1.21700
C 	C 	0.43312 0.37972 0.46819 0.33800
C 	C 	0.42173 0.48409 0.49846 0.31200
O 	O 	0.48624 0.55126 0.47420 -0.46300
Zn	Zn	0.52985 0.55445 0.54781 1.20000
O 	O 	0.47672 0.40423 0.49482 -0.45300
O 	O 	0.41348 0.39291 0.44474 -0.46600
O 	O 	0.41018 0.47508 0.46442 -0.48000
O 	O 	0.46132 0.49232 0.52351 -0.46400
C 	C 	0.54771 0.51456 0.59563 0.33800
O 	O 	0.49693 0.46660 0.46359 -0.80500
C 	C 	0.48735 0.58136 0.49867 0.31400
O 	O 	0.53977 0.48075 0.56859 -0.42900
O 	O 	0.55405 0.55211 0.59459 -0.47000
O 	O 	0.50693 0.58909 0.53347 -0.49100
O 	O 	0.55553 0.53093 0.52928 -0.89300
Zn	Zn	0.53045 0.47905 0.41020 1.18500
C 	C 	0.54385 0.53102 0.37205 0.32700
C 	C 	0.58572 0.46953 0.46799 0.31000
H 	H 	0.58782 0.54369 0.54792 0.16500
H 	H 	0.49070 0.51517 0.41731 0.14500
C 	C 	0.50129 0.49172 0.81717 -0.09500
C 	C 	0.51485 0.53150 0.81473 0.02300
C 	C 	0.52264 0.53373 0.78773 -0.06200
C 	C 	0.51706 0.49628 0.76301 0.03300
C 	C 	0.50385 0.45671 0.76561 -0.06400
C 	C 	0.49585 0.45435 0.79241 0.02100
C 	C 	0.52422 0.49814 0.73391 0.00600
C 	C 	0.56617 0.52968 0.74408 -0.03700
C 	C 	0.57293 0.53105 0.71644 -0.02800
C 	C 	0.53788 0.50087 0.67852 -0.00600
C 	C 	0.49618 0.46903 0.66836 -0.02700
C 	C 	0.48929 0.46775 0.69591 -0.03600
C 	C 	0.54327 0.50522 0.64991 0.05900
C 	C 	0.54630 0.50921 0.62542 -0.11100
H 	H 	0.51968 0.56077 0.83385 0.04500
H 	H 	0.53284 0.56446 0.78593 0.05400
H 	H 	0.49980 0.42775 0.74686 0.05200
H 	H 	0.48535 0.42342 0.79387 0.02800
H 	H 	0.59340 0.55316 0.77332 0.05100
H 	H 	0.60518 0.55596 0.72448 0.04300
H 	H 	0.46888 0.44576 0.63908 0.05400
H 	H 	0.45675 0.44338 0.68775 0.04600
C 	C 	0.49979 0.48220 0.10214 -0.10000
C 	C 	0.53557 0.52279 0.13504 0.01900
C 	C 	0.54368 0.52834 0.16958 -0.07100
C 	C 	0.51616 0.49336 0.17158 0.02800
C 	C 	0.48192 0.45194 0.13902 -0.07000
C 	C 	0.47382 0.44635 0.10443 0.02000
C 	C 	0.52126 0.50108 0.20719 -0.00000
C 	C 	0.48673 0.49960 0.21024 -0.04100
C 	C 	0.49207 0.50829 0.24432 -0.03400
C 	C 	0.53194 0.51859 0.27556 -0.01100
C 	C 	0.56655 0.52031 0.27264 -0.03200
C 	C 	0.56127 0.51162 0.23857 -0.03900
C 	C 	0.53624 0.52454 0.30989 0.05100
C 	C 	0.53972 0.52835 0.33843 -0.12300
H 	H 	0.55622 0.55049 0.13368 0.02000
H 	H 	0.57043 0.56030 0.19461 0.04500
H 	H 	0.46085 0.42454 0.14037 0.04500
H 	H 	0.44616 0.41485 0.07926 0.03200
H 	H 	0.45590 0.49193 0.18628 0.03700
H 	H 	0.46509 0.50669 0.24633 0.03300
H 	H 	0.59736 0.52795 0.29662 0.04700
H 	H 	0.58815 0.51296 0.23653 0.04000
C 	C 	0.70592 0.30898 0.50819 0.03700
C 	C 	0.66009 0.27697 0.48041 -0.07500
C 	C 	0.64108 0.23408 0.47657 0.03400
C 	C 	0.66784 0.22195 0.49950 -0.11900
C 	C 	0.71461 0.25292 0.52547 0.10000
C 	C 	0.73312 0.29668 0.53053 -0.09200
H 	H 	0.60536 0.21031 0.45592 0.02200
H 	H 	0.76870 0.32088 0.55147 0.06700
H 	H 	0.63904 0.28552 0.46207 0.05300
I 	I 	0.75888 0.23334 0.55363 -0.13000
C 	C 	0.88628 0.47145 0.50489 -0.07400
C 	C 	0.84178 0.45442 0.47569 0.00500
C 	C 	0.80739 0.43742 0.48007 -0.04400
C 	C 	0.81691 0.43774 0.51384 -0.01300
C 	C 	0.86172 0.45659 0.54386 0.03800
C 	C 	0.89618 0.47352 0.53934 -0.01700
H 	H 	0.77314 0.42358 0.45703 0.04900
H 	H 	0.93049 0.48764 0.56242 0.06100
H 	H 	0.83362 0.45358 0.44929 0.03700
I 	I 	0.87847 0.46060 0.59645 -0.11500
C 	C 	0.61965 0.45705 0.48004 -0.08800
C 	C 	0.65013 0.47175 0.51818 0.00500
C 	C 	0.68234 0.45998 0.52938 -0.04800
C 	C 	0.68441 0.43347 0.50260 -0.01400
C 	C 	0.65417 0.41909 0.46434 0.03200
C 	C 	0.62216 0.43105 0.45329 -0.01500
H 	H 	0.70533 0.47100 0.55883 0.04200
H 	H 	0.59935 0.42023 0.42387 0.04500
H 	H 	0.64861 0.49187 0.53911 0.01700
I 	I 	0.65539 0.37844 0.42246 -0.13200
C 	C 	0.64875 0.26631 0.98667 0.04700
C 	C 	0.63565 0.25682 0.00944 -0.08800
C 	C 	0.61645 0.21321 0.00418 0.02300
C 	C 	0.61079 0.17870 0.97653 -0.11200
C 	C 	0.62671 0.18876 0.95530 0.09900
C 	C 	0.64465 0.23223 0.95988 -0.09300
H 	H 	0.60508 0.20602 0.02111 0.01900
H 	H 	0.65509 0.23943 0.94243 0.07100
H 	H 	0.63936 0.28303 0.03060 0.04500
I 	I 	0.62790 0.14040 0.91863 -0.12200
C 	C 	0.81663 0.42261 0.97107 -0.06500
C 	C 	0.82437 0.44308 0.00586 -0.00600
C 	C 	0.78977 0.42654 0.01020 -0.05500
C 	C 	0.74726 0.38919 0.97988 -0.00400
C 	C 	0.73948 0.36847 0.94493 0.03300
C 	C 	0.77409 0.38526 0.94070 -0.01800
H 	H 	0.79608 0.44256 0.03719 0.04000
H 	H 	0.76807 0.36883 0.91390 0.05300
H 	H 	0.85708 0.47188 0.02949 0.03300
I 	I 	0.67598 0.31145 0.89815 -0.10300
C 	C 	0.54719 0.40354 0.94752 -0.08800
C 	C 	0.58759 0.42941 0.98370 0.01500
C 	C 	0.61942 0.41711 0.99357 -0.04000
C 	C 	0.61138 0.37900 0.96743 -0.01500
C 	C 	0.57092 0.35299 0.93114 0.03200
C 	C 	0.53882 0.36488 0.92160 -0.01600
H 	H 	0.65039 0.43724 0.02156 0.02900
H 	H 	0.50775 0.34450 0.89370 0.05200
H 	H 	0.59462 0.45928 0.00406 0.00800
I 	I 	0.55812 0.29669 0.88948 -0.10600
C 	C 	0.96057 0.10120 0.48580 -0.10000
C 	C 	0.92078 0.07719 0.44944 0.01400
C 	C 	0.89209 0.09320 0.43933 -0.05400
C 	C 	0.90275 0.13314 0.46550 -0.00900
C 	C 	0.94346 0.15809 0.50159 0.02400
C 	C 	0.97245 0.14241 0.51128 0.00900
H 	H 	0.86087 0.07385 0.41154 0.04200
H 	H 	0.00354 0.16153 0.53915 0.03200
H 	H 	0.91125 0.04535 0.42948 0.01700
I 	I 	0.96054 0.21777 0.54307 -0.10800
C 	C 	0.86681 0.24776 0.45263 0.03700
C 	C 	0.86822 0.25400 0.42380 -0.07700
C 	C 	0.88816 0.29718 0.42832 0.03600
C 	C 	0.90695 0.33449 0.46175 -0.12100
C 	C 	0.90323 0.32812 0.48987 0.10000
C 	C 	0.88345 0.28483 0.48528 -0.09000
H 	H 	0.89038 0.30175 0.40637 0.01800
H 	H 	0.88199 0.28009 0.50748 0.06900
H 	H 	0.85505 0.22550 0.39835 0.04900
I 	I 	0.92595 0.38301 0.53898 -0.10900
C 	C 	0.71095 0.09735 0.48079 -0.06600
C 	C 	0.75693 0.12311 0.50996 0.00500
C 	C 	0.78850 0.13791 0.50224 -0.03900
C 	C 	0.77451 0.12677 0.46529 -0.01600
C 	C 	0.72850 0.09928 0.43575 0.04000
C 	C 	0.69695 0.08470 0.44359 -0.02300
H 	H 	0.82390 0.15864 0.52507 0.05000
H 	H 	0.66155 0.06443 0.42080 0.06100
H 	H 	0.76824 0.13240 0.53869 0.04500
I 	I 	0.70571 0.07921 0.37908 -0.12700
C 	C 	0.83480 0.08933 0.92746 0.04100
C 	C 	0.87857 0.11617 0.96029 -0.07900
C 	C 	0.90667 0.09948 0.96889 0.04100
C 	C 	0.89124 0.05557 0.94492 -0.13100
C 	C 	0.84856 0.03006 0.91001 0.11700
C 	C 	0.82039 0.04692 0.90182 -0.09900
H 	H 	0.93982 0.11994 0.99514 0.02400
H 	H 	0.78704 0.02677 0.87579 0.07300
H 	H 	0.89019 0.14933 0.97992 0.05200
I 	I 	0.82578 0.96714 0.86831 -0.22500
C 	C 	0.79656 0.20416 0.91727 0.03800
C 	C 	0.80848 0.24084 0.94759 -0.07400
C 	C 	0.82789 0.28382 0.95167 0.03900
C 	C 	0.83593 0.29067 0.92568 -0.12000
C 	C 	0.82193 0.25359 0.89415 0.10200
C 	C 	0.80170 0.21047 0.88983 -0.09300
H 	H 	0.83810 0.31209 0.97576 0.03000
H 	H 	0.79188 0.18211 0.86605 0.06600
H 	H 	0.80446 0.23632 0.96884 0.05200
I 	I 	0.83439 0.26196 0.85441 -0.15100
C 	C 	0.64737 0.04734 0.94871 -0.07200
C 	C 	0.69323 0.07737 0.97757 0.01700
C 	C 	0.72359 0.09461 0.96916 -0.04700
C 	C 	0.70860 0.08185 0.93182 -0.01100
C 	C 	0.66285 0.05070 0.90266 0.04000
C 	C 	0.63248 0.03344 0.91117 -0.02000
H 	H 	0.75884 0.11817 0.99171 0.04500
H 	H 	0.59718 0.01026 0.88863 0.06400
H 	H 	0.70531 0.08787 0.00658 0.02700
I 	I 	0.63856 0.02975 0.84563 -0.11000
C 	C 	0.74121 0.60061 0.92364 0.04500
C 	C 	0.74926 0.63924 0.91967 -0.06800
C 	C 	0.78449 0.66066 0.91693 0.02000
C 	C 	0.81105 0.64277 0.91747 -0.06300
C 	C 	0.80305 0.60421 0.92146 0.01900
C 	C 	0.76772 0.58283 0.92401 -0.06800
H 	H 	0.72908 0.65332 0.91986 0.06000
H 	H 	0.83906 0.65988 0.91639 0.05100
H 	H 	0.76213 0.55357 0.92795 0.05700
C 	C 	0.80814 0.64487 0.45798 0.05100
C 	C 	0.81711 0.68333 0.45367 -0.07000
C 	C 	0.85214 0.70324 0.45036 0.02600
C 	C 	0.87720 0.68368 0.45015 -0.06900
C 	C 	0.86965 0.64653 0.45624 0.04500
C 	C 	0.83427 0.62639 0.45905 -0.07700
H 	H 	0.79794 0.69859 0.45422 0.05900
H 	H 	0.90494 0.69956 0.44843 0.05500
H 	H 	0.82855 0.59777 0.46395 0.05900
C 	C 	0.71149 0.87108 0.98508 0.04400
C 	C 	0.68297 0.88753 0.97951 -0.07400
C 	C 	0.64466 0.86570 0.97850 0.04600
C 	C 	0.63561 0.82812 0.98409 -0.06700
C 	C 	0.66346 0.81093 0.98879 0.02200
C 	C 	0.70248 0.83369 0.99095 -0.06700
H 	H 	0.68931 0.91578 0.97410 0.05800
H 	H 	0.60528 0.81052 0.98218 0.05500
H 	H 	0.72428 0.82072 0.99485 0.05400
C 	C 	0.77975 0.91867 0.51742 0.05000
C 	C 	0.75609 0.93998 0.51752 -0.07500
C 	C 	0.71614 0.91841 0.51429 0.04600
C 	C 	0.70251 0.87778 0.51516 -0.07000
C 	C 	0.72519 0.85553 0.51405 0.02500
C 	C 	0.76386 0.87609 0.51509 -0.06800
H 	H 	0.76685 0.97166 0.51719 0.05800
H 	H 	0.67239 0.86194 0.51393 0.05200
H 	H 	0.78060 0.85846 0.51280 0.05900
Zn	Zn	0.57898 0.06354 0.99375 1.18400
Zn	Zn	0.50640 0.03759 0.91683 1.19600
O 	O 	0.49746 0.95944 0.85695 -0.47100
O 	O 	0.48890 0.01945 0.86359 -0.43300
O 	O 	0.48148 0.89786 0.90021 -0.49000
C 	C 	0.61462 0.03372 0.95778 0.29400
O 	O 	0.45963 0.97752 0.90058 -0.87600
C 	C 	0.58732 0.13240 0.96952 0.33100
O 	O 	0.62549 0.05833 0.99078 -0.45800
O 	O 	0.57253 0.00216 0.93103 -0.34600
O 	O 	0.51923 0.04215 0.96690 -0.77300
O 	O 	0.55325 0.10016 0.93486 -0.45000
O 	O 	0.59950 0.12443 0.99819 -0.46100
Zn	Zn	0.37300 0.91221 0.91598 1.17900
Zn	Zn	0.44722 0.92623 0.98184 1.18600
C 	C 	0.36244 0.83659 0.93351 0.33900
C 	C 	0.35307 0.93956 0.96645 0.30600
O 	O 	0.42385 0.01119 0.93831 -0.44300
O 	O 	0.40430 0.86297 0.96380 -0.45500
O 	O 	0.34373 0.85068 0.91052 -0.45200
O 	O 	0.34288 0.93350 0.93325 -0.46900
O 	O 	0.39324 0.94980 0.99226 -0.46500
C 	C 	0.48599 0.97945 0.06537 0.30700
O 	O 	0.42796 0.92276 0.93049 -0.79200
C 	C 	0.41656 0.03494 0.95943 0.33000
O 	O 	0.47104 0.94166 0.03714 -0.43700
O 	O 	0.48685 0.01413 0.06081 -0.46600
O 	O 	0.43246 0.04146 0.99374 -0.49000
C 	C 	0.49443 0.98946 0.84638 0.30100
C 	C 	0.51519 0.91857 0.93562 0.31100
H 	H 	0.51837 0.99960 0.01525 0.15400
Zn	Zn	0.64213 0.11442 0.52607 1.18600
Zn	Zn	0.56672 0.08207 0.44711 1.19500
O 	O 	0.55287 0.00396 0.38399 -0.47500
O 	O 	0.54246 0.06281 0.39215 -0.44300
O 	O 	0.55083 0.94685 0.43287 -0.49600
C 	C 	0.67751 0.08654 0.48928 0.29900
O 	O 	0.52182 0.02239 0.43300 -0.87200
C 	C 	0.64644 0.17719 0.49620 0.33000
O 	O 	0.68903 0.11112 0.52259 -0.45400
O 	O 	0.63485 0.05764 0.46199 -0.36200
O 	O 	0.58165 0.08859 0.49852 -0.77300
O 	O 	0.61636 0.14164 0.46249 -0.45400
O 	O 	0.65732 0.17326 0.52669 -0.45300
Zn	Zn	0.44116 0.95376 0.44833 1.17400
Zn	Zn	0.51779 0.96842 0.51432 1.18800
C 	C 	0.43312 0.87972 0.46819 0.33800
C 	C 	0.42173 0.98408 0.49846 0.31200
O 	O 	0.48624 0.05126 0.47420 -0.46100
O 	O 	0.47672 0.90423 0.49482 -0.45300
O 	O 	0.41348 0.89291 0.44474 -0.46700
O 	O 	0.41018 0.97508 0.46442 -0.48200
O 	O 	0.46132 0.99232 0.52351 -0.46700
C 	C 	0.54771 0.01456 0.59563 0.34600
O 	O 	0.49693 0.96660 0.46359 -0.80900
C 	C 	0.48735 0.08136 0.49867 0.31500
O 	O 	0.53977 0.98075 0.56859 -0.43700
O 	O 	0.55405 0.05211 0.59459 -0.47000
O 	O 	0.50693 0.08909 0.53347 -0.48900
C 	C 	0.54385 0.03102 0.37205 0.32800
C 	C 	0.58572 0.96953 0.46799 0.30100
H 	H 	0.58782 0.04369 0.54792 0.16600
C 	C 	0.50129 0.99172 0.81717 -0.10200
C 	C 	0.52264 0.03373 0.78773 -0.05700
C 	C 	0.51706 0.99628 0.76301 0.02800
C 	C 	0.50385 0.95671 0.76561 -0.06600
C 	C 	0.49585 0.95435 0.79241 0.02100
C 	C 	0.52422 0.99814 0.73391 -0.00700
C 	C 	0.56617 0.02968 0.74408 -0.02300
C 	C 	0.57293 0.03105 0.71644 -0.03500
C 	C 	0.53788 0.00087 0.67852 0.00800
C 	C 	0.49618 0.96903 0.66836 -0.04200
C 	C 	0.48929 0.96775 0.69591 -0.02900
C 	C 	0.54327 0.00522 0.64991 0.05800
C 	C 	0.54630 0.00921 0.62542 -0.10800
H 	H 	0.51968 0.06077 0.83385 0.04400
H 	H 	0.53284 0.06446 0.78593 0.05400
H 	H 	0.49980 0.92775 0.74686 0.05100
H 	H 	0.48535 0.92342 0.79387 0.02700
H 	H 	0.59340 0.05316 0.77332 0.04900
H 	H 	0.60518 0.05596 0.72448 0.04600
H 	H 	0.46888 0.94576 0.63908 0.05600
H 	H 	0.45675 0.94338 0.68775 0.04300
C 	C 	0.49979 0.98220 0.10214 -0.10300
C 	C 	0.53557 0.02279 0.13504 0.02200
C 	C 	0.54368 0.02834 0.16958 -0.05600
C 	C 	0.51616 0.99336 0.17158 0.00300
C 	C 	0.48192 0.95194 0.13902 -0.06200
C 	C 	0.47382 0.94635 0.10443 0.01500
C 	C 	0.49207 0.00829 0.24432 -0.01300
C 	C 	0.53194 0.01859 0.27556 -0.02000
C 	C 	0.56655 0.02031 0.27264 -0.02200
C 	C 	0.53624 0.02454 0.30989 0.05600
C 	C 	0.53972 0.02835 0.33843 -0.12400
H 	H 	0.55622 0.05049 0.13368 0.02100
H 	H 	0.46085 0.92454 0.14037 0.04100
H 	H 	0.44616 0.91485 0.07926 0.03300
H 	H 	0.46509 0.00669 0.24633 0.03000
H 	H 	0.59736 0.02795 0.29662 0.04600
C 	C 	0.70592 0.80898 0.50819 0.03700
C 	C 	0.66009 0.77697 0.48041 -0.07500
C 	C 	0.64108 0.73408 0.47657 0.03400
C 	C 	0.66784 0.72195 0.49950 -0.11900
C 	C 	0.71461 0.75292 0.52547 0.10000
C 	C 	0.73312 0.79668 0.53053 -0.09300
H 	H 	0.60536 0.71031 0.45592 0.02200
H 	H 	0.76870 0.82088 0.55147 0.06700
H 	H 	0.63904 0.78552 0.46207 0.05300
I 	I 	0.75888 0.73334 0.55363 -0.13100
C 	C 	0.88628 0.97145 0.50489 -0.07500
C 	C 	0.84178 0.95442 0.47569 0.00500
C 	C 	0.80739 0.93742 0.48007 -0.04500
C 	C 	0.81691 0.93774 0.51384 -0.01300
C 	C 	0.86172 0.95659 0.54386 0.03700
C 	C 	0.89618 0.97352 0.53934 -0.01700
H 	H 	0.77314 0.92358 0.45703 0.04800
H 	H 	0.93049 0.98764 0.56242 0.05900
H 	H 	0.83362 0.95358 0.44929 0.03600
I 	I 	0.87847 0.96060 0.59645 -0.11800
C 	C 	0.61965 0.95704 0.48004 -0.08700
C 	C 	0.65013 0.97175 0.51818 0.00200
C 	C 	0.68234 0.95998 0.52938 -0.04800
C 	C 	0.68441 0.93347 0.50260 -0.01500
C 	C 	0.65417 0.91909 0.46434 0.03200
C 	C 	0.62216 0.93105 0.45329 -0.01700
H 	H 	0.70533 0.97100 0.55883 0.04100
H 	H 	0.59935 0.92023 0.42387 0.04500
H 	H 	0.64861 0.99187 0.53911 0.01500
I 	I 	0.65539 0.87844 0.42246 -0.13500
C 	C 	0.64875 0.76631 0.98667 0.04700
C 	C 	0.63565 0.75682 0.00944 -0.08800
C 	C 	0.61645 0.71321 0.00418 0.02300
C 	C 	0.61079 0.67870 0.97653 -0.11300
C 	C 	0.62671 0.68876 0.95530 0.09900
C 	C 	0.64465 0.73223 0.95988 -0.09400
H 	H 	0.60508 0.70602 0.02111 0.01800
H 	H 	0.65509 0.73943 0.94243 0.07100
H 	H 	0.63936 0.78303 0.03060 0.04400
I 	I 	0.62790 0.64040 0.91863 -0.12200
C 	C 	0.81663 0.92261 0.97107 -0.06600
C 	C 	0.82437 0.94308 0.00586 -0.00600
C 	C 	0.78977 0.92654 0.01020 -0.05500
C 	C 	0.74726 0.88919 0.97988 -0.00500
C 	C 	0.73948 0.86847 0.94493 0.03300
C 	C 	0.77409 0.88526 0.94070 -0.01800
H 	H 	0.79608 0.94256 0.03719 0.03900
H 	H 	0.76807 0.86883 0.91390 0.05300
H 	H 	0.85708 0.97188 0.02949 0.03100
I 	I 	0.67598 0.81145 0.89815 -0.10500
C 	C 	0.54719 0.90354 0.94752 -0.08900
C 	C 	0.61942 0.91711 0.99357 -0.04100
C 	C 	0.61138 0.87900 0.96743 -0.01500
C 	C 	0.57092 0.85299 0.93114 0.03200
C 	C 	0.53882 0.86488 0.92160 -0.01600
H 	H 	0.50775 0.84450 0.89370 0.05100
H 	H 	0.59462 0.95928 0.00406 0.00700
I 	I 	0.55812 0.79669 0.88948 -0.10700
C 	C 	0.96057 0.60120 0.48580 -0.10100
C 	C 	0.92078 0.57719 0.44944 0.01400
C 	C 	0.89209 0.59320 0.43933 -0.05500
C 	C 	0.90275 0.63314 0.46550 -0.00900
C 	C 	0.94346 0.65809 0.50159 0.02400
C 	C 	0.97245 0.64241 0.51128 0.00900
H 	H 	0.86087 0.57385 0.41154 0.04100
H 	H 	0.00354 0.66153 0.53915 0.03200
H 	H 	0.91125 0.54536 0.42948 0.01500
I 	I 	0.96054 0.71777 0.54307 -0.11000
C 	C 	0.86681 0.74776 0.45263 0.03800
C 	C 	0.86822 0.75400 0.42380 -0.07700
C 	C 	0.88816 0.79718 0.42832 0.03600
C 	C 	0.90695 0.83449 0.46175 -0.12100
C 	C 	0.90323 0.82812 0.48987 0.10000
C 	C 	0.88345 0.78483 0.48528 -0.09000
H 	H 	0.89038 0.80175 0.40637 0.01700
H 	H 	0.88199 0.78009 0.50748 0.06900
H 	H 	0.85505 0.72550 0.39835 0.04800
I 	I 	0.92596 0.88301 0.53898 -0.11100
C 	C 	0.71095 0.59734 0.48079 -0.06700
C 	C 	0.75693 0.62311 0.50996 0.00500
C 	C 	0.78850 0.63791 0.50224 -0.03900
C 	C 	0.77451 0.62677 0.46529 -0.01600
C 	C 	0.72850 0.59928 0.43575 0.04000
C 	C 	0.69695 0.58470 0.44359 -0.02300
H 	H 	0.82390 0.65864 0.52507 0.04900
H 	H 	0.66155 0.56443 0.42080 0.06100
H 	H 	0.76824 0.63240 0.53869 0.04500
I 	I 	0.70571 0.57921 0.37908 -0.12900
C 	C 	0.83480 0.58933 0.92746 0.04000
C 	C 	0.87857 0.61617 0.96029 -0.07900
C 	C 	0.90667 0.59948 0.96889 0.03900
C 	C 	0.89124 0.55557 0.94492 -0.13000
C 	C 	0.84856 0.53006 0.91001 0.11100
C 	C 	0.82039 0.54692 0.90182 -0.09700
H 	H 	0.93982 0.61994 0.99514 0.02400
H 	H 	0.78704 0.52677 0.87579 0.07000
H 	H 	0.89019 0.64933 0.97992 0.05200
I 	I 	0.82578 0.46714 0.86831 -0.21500
C 	C 	0.79656 0.70416 0.91727 0.03800
C 	C 	0.80848 0.74084 0.94759 -0.07500
C 	C 	0.82789 0.78382 0.95167 0.03900
C 	C 	0.83593 0.79067 0.92568 -0.12000
C 	C 	0.82193 0.75359 0.89415 0.10200
C 	C 	0.80170 0.71047 0.88983 -0.09300
H 	H 	0.83810 0.81209 0.97576 0.02900
H 	H 	0.79188 0.68211 0.86605 0.06600
H 	H 	0.80446 0.73632 0.96884 0.05200
I 	I 	0.83439 0.76196 0.85441 -0.15200
C 	C 	0.64737 0.54734 0.94871 -0.07300
C 	C 	0.69323 0.57737 0.97757 0.01700
C 	C 	0.72359 0.59461 0.96916 -0.04700
C 	C 	0.70860 0.58185 0.93182 -0.01100
C 	C 	0.66285 0.55070 0.90266 0.04000
C 	C 	0.63248 0.53344 0.91117 -0.02000
H 	H 	0.75884 0.61817 0.99171 0.04400
H 	H 	0.59718 0.51026 0.88863 0.06200
H 	H 	0.70531 0.58787 0.00658 0.02500
I 	I 	0.63856 0.52975 0.84563 -0.11500
O 	O 	0.02474 0.95691 0.95881 -0.45100
Zn	Zn	0.97353 0.98240 0.94842 1.22100
Zn	Zn	0.95943 0.01111 0.01199 1.19600
O 	O 	0.98650 0.98727 0.99566 -0.88000
Zn	Zn	0.96747 0.93322 0.87841 1.19000
H 	H 	0.92905 0.97115 0.88397 0.15900
O 	O 	0.09409 0.00739 0.49062 -0.44100
Zn	Zn	0.03935 0.02746 0.48145 1.21500
Zn	Zn	0.02985 0.05445 0.54781 1.20000
O 	O 	0.05553 0.03093 0.52928 -0.89400
Zn	Zn	0.03045 0.97905 0.41020 1.18100
H 	H 	0.99070 0.01517 0.41731 0.15900
C 	C 	0.01485 0.03150 0.81473 0.05400
C 	C 	0.02126 0.00108 0.20719 0.02300
C 	C 	0.98673 0.99960 0.21024 -0.06100
C 	C 	0.06127 0.01162 0.23857 -0.05500
H 	H 	0.07043 0.06030 0.19461 0.03700
H 	H 	0.95590 0.99193 0.18628 0.04300
H 	H 	0.08815 0.01296 0.23653 0.04400
C 	C 	0.08759 0.92941 0.98370 0.01100
H 	H 	0.15039 0.93724 0.02156 0.02700
O 	O 	0.52474 0.95691 0.95881 -0.44900
Zn	Zn	0.47353 0.98240 0.94842 1.21800
Zn	Zn	0.45943 0.01111 0.01199 1.19500
O 	O 	0.48650 0.98727 0.99566 -0.89200
Zn	Zn	0.46747 0.93322 0.87841 1.18900
H 	H 	0.42905 0.97115 0.88397 0.15900
O 	O 	0.59409 0.00739 0.49062 -0.44000
Zn	Zn	0.53935 0.02746 0.48145 1.21800
Zn	Zn	0.52985 0.05445 0.54781 1.20200
O 	O 	0.55553 0.03093 0.52928 -0.89000
Zn	Zn	0.53045 0.97905 0.41020 1.18200
H 	H 	0.49070 0.01517 0.41731 0.14700
C 	C 	0.51484 0.03150 0.81473 0.03000
C 	C 	0.52126 0.00108 0.20719 0.02900
C 	C 	0.48673 0.99960 0.21024 -0.07100
C 	C 	0.56127 0.01162 0.23857 -0.05200
H 	H 	0.57043 0.06030 0.19461 0.04200
H 	H 	0.45590 0.99193 0.18628 0.04200
H 	H 	0.58815 0.01296 0.23653 0.04500
C 	C 	0.58759 0.92941 0.98370 0.01400
H 	H 	0.65039 0.93724 0.02156 0.02800
