data_crystal

_cell_length_a 36.15571
_cell_length_b 36.66107
_cell_length_c 20.55111
_cell_angle_alpha 91.26481
_cell_angle_beta  90.28288
_cell_angle_gamma 89.95842

_symmetry_space_group_name_	'P 1'
_symmetry_space_group_name_H-M	'P 1'

loop_
_symmetry_equiv_pos_as_xyz
  x,y,z

loop_
_atom_site_label
_atom_site_type_symbol
_atom_site_fract_x
_atom_site_fract_y
_atom_site_fract_z
_atom_site_charge
Cd	Cd	0.91764 0.86233 0.22345 1.24500
Cd	Cd	0.92122 0.90545 0.37736 1.16500
O 	O 	0.88411 0.80385 0.21642 -0.27000
O 	O 	0.91025 0.82754 0.13191 -0.30700
C 	C 	0.89578 0.79865 0.15734 0.31400
O 	O 	0.94387 0.91697 0.20438 -0.38700
O 	O 	0.96527 0.92499 0.30907 -0.46000
C 	C 	0.95965 0.93769 0.25032 0.28500
C 	C 	0.85514 0.90198 0.26765 0.31200
O 	O 	0.94048 0.84758 0.34265 -0.44200
O 	O 	0.85235 0.89515 0.20511 -0.26600
O 	O 	0.88209 0.88572 0.29686 -0.54400
C 	C 	0.97220 0.83872 0.31656 0.27800
O 	O 	0.97388 0.84050 0.25350 -0.36400
Cd	Cd	0.95773 0.91968 0.00894 1.24500
Cd	Cd	0.95586 0.99558 0.90252 1.18000
O 	O 	0.93429 0.86298 0.95846 -0.26800
O 	O 	0.96131 0.86363 0.05429 -0.35700
C 	C 	0.94636 0.84431 0.00697 0.32400
O 	O 	0.99035 0.96371 0.06325 -0.37700
O 	O 	0.96490 0.01134 0.00766 -0.42200
C 	C 	0.99124 0.99832 0.04524 0.27800
C 	C 	0.01376 0.92591 0.91380 0.32100
O 	O 	0.91026 0.95769 0.94253 -0.42900
O 	O 	0.02115 0.89988 0.95400 -0.29500
O 	O 	0.98074 0.93954 0.91824 -0.53700
C 	C 	0.89129 0.96273 0.99575 0.28200
O 	O 	0.90254 0.94456 0.04601 -0.33200
C 	C 	0.98956 0.70409 0.90943 0.14600
N 	N 	0.98233 0.69997 0.84475 -0.12500
C 	C 	0.99240 0.66883 0.81245 0.14200
N 	N 	0.01131 0.64262 0.84440 -0.13900
C 	C 	0.01930 0.64711 0.90874 0.14700
N 	N 	0.00738 0.67731 0.94157 -0.09200
C 	C 	0.95855 0.66847 0.21826 0.14200
N 	N 	0.95502 0.67334 0.28374 -0.12800
C 	C 	0.97362 0.65133 0.32495 0.14600
N 	N 	0.99448 0.62352 0.30066 -0.14000
C 	C 	0.99738 0.61800 0.23539 0.14500
N 	N 	0.97955 0.64057 0.19407 -0.10900
Cd	Cd	0.91123 0.13927 0.81166 1.24100
Cd	Cd	0.95773 0.14475 0.96310 1.16500
O 	O 	0.85357 0.17408 0.80626 -0.28300
O 	O 	0.87342 0.14240 0.72201 -0.33300
C 	C 	0.84665 0.16159 0.74797 0.29500
O 	O 	0.96641 0.11368 0.78997 -0.39500
O 	O 	0.98023 0.10094 0.89598 -0.46500
C 	C 	0.99097 0.10559 0.83546 0.26800
C 	C 	0.95255 0.20242 0.84532 0.31700
O 	O 	0.89914 0.12277 0.93483 -0.45100
O 	O 	0.94435 0.20214 0.78321 -0.27900
O 	O 	0.93605 0.17797 0.87899 -0.54400
C 	C 	0.89011 0.09020 0.91329 0.28700
O 	O 	0.89027 0.08537 0.85034 -0.39500
Cd	Cd	0.88552 0.04341 0.56958 1.24000
Cd	Cd	0.93141 0.05892 0.42183 1.17100
O 	O 	0.82049 0.06137 0.57317 -0.29500
O 	O 	0.84436 0.02711 0.64819 -0.28800
C 	C 	0.81443 0.04031 0.62179 0.27000
O 	O 	0.94040 0.01509 0.58132 -0.38900
O 	O 	0.97074 0.04865 0.50518 -0.45100
C 	C 	0.96986 0.02087 0.54485 0.26200
C 	C 	0.86931 0.99654 0.45968 0.24700
O 	O 	0.90153 0.09792 0.49499 -0.44800
O 	O 	0.86290 0.98135 0.51520 -0.27600
O 	O 	0.88147 0.02985 0.46481 -0.51700
C 	C 	0.91605 0.11464 0.54538 0.30900
O 	O 	0.91105 0.09914 0.60130 -0.35600
C 	C 	0.70799 0.13973 0.83071 0.14500
N 	N 	0.67305 0.13365 0.80882 -0.11000
C 	C 	0.64697 0.12065 0.84943 0.15300
N 	N 	0.65567 0.11449 0.91262 -0.14300
C 	C 	0.69059 0.12055 0.93495 0.15800
N 	N 	0.71649 0.13392 0.89419 -0.12300
C 	C 	0.72287 0.97757 0.46084 0.14100
N 	N 	0.70107 0.94797 0.44931 -0.12500
C 	C 	0.69162 0.93802 0.38725 0.13800
N 	N 	0.70390 0.95824 0.33709 -0.14200
C 	C 	0.72353 0.98924 0.34868 0.14300
N 	N 	0.73383 0.99838 0.41050 -0.11500
Cd	Cd	0.08125 0.14197 0.30039 1.24800
Cd	Cd	0.07396 0.07526 0.42298 1.17200
O 	O 	0.12633 0.19041 0.32531 -0.28700
O 	O 	0.09629 0.18836 0.23218 -0.28400
C 	C 	0.11956 0.20577 0.27035 0.27300
O 	O 	0.04592 0.09811 0.25348 -0.37500
O 	O 	0.02765 0.07392 0.34998 -0.46800
C 	C 	0.03251 0.07053 0.28663 0.27600
C 	C 	0.13561 0.08681 0.31039 0.31300
O 	O 	0.06456 0.13792 0.42455 -0.44000
O 	O 	0.13913 0.10309 0.25475 -0.28800
O 	O 	0.11224 0.10120 0.35057 -0.54800
C 	C 	0.03397 0.15520 0.41171 0.29200
O 	O 	0.03023 0.16661 0.35238 -0.32200
Cd	Cd	0.14960 0.17471 0.04474 1.24700
Cd	Cd	0.11597 0.12306 0.90866 1.17600
O 	O 	0.17580 0.23367 0.01569 -0.28200
O 	O 	0.16853 0.21920 0.11806 -0.29700
C 	C 	0.17892 0.24344 0.07635 0.27900
O 	O 	0.11853 0.12778 0.08873 -0.37300
O 	O 	0.12516 0.09060 0.99838 -0.47500
C 	C 	0.10914 0.09813 0.05437 0.29800
C 	C 	0.08116 0.19533 0.98672 0.25900
O 	O 	0.17444 0.14540 0.93538 -0.44000
O 	O 	0.08527 0.20930 0.04517 -0.20500
O 	O 	0.10944 0.17704 0.96489 -0.52200
C 	C 	0.19995 0.12957 0.96999 0.27000
O 	O 	0.20158 0.13922 0.03132 -0.34000
C 	C 	0.20481 0.38197 0.00494 0.16400
N 	N 	0.21738 0.37371 0.94400 -0.11800
C 	C 	0.21525 0.39886 0.89645 0.14500
N 	N 	0.20024 0.43208 0.90992 -0.14100
C 	C 	0.18652 0.44002 0.96992 0.13600
N 	N 	0.18936 0.41511 0.01749 -0.13200
C 	C 	0.16030 0.35186 0.32517 0.15500
N 	N 	0.15104 0.38339 0.29579 -0.12300
C 	C 	0.15833 0.41609 0.32555 0.14900
N 	N 	0.17390 0.41700 0.38599 -0.13800
C 	C 	0.18183 0.38547 0.41672 0.14900
N 	N 	0.17487 0.35291 0.38626 -0.11500
Cd	Cd	0.19047 0.01417 0.69899 1.24600
Cd	Cd	0.16837 0.01744 0.86945 1.16700
O 	O 	0.21917 0.95717 0.66107 -0.29800
O 	O 	0.20944 0.00200 0.59508 -0.30200
C 	C 	0.22681 0.97144 0.60547 0.25800
O 	O 	0.15505 0.06431 0.70966 -0.37600
O 	O 	0.16564 0.07087 0.81863 -0.47200
C 	C 	0.14363 0.07495 0.76811 0.28200
C 	C 	0.12696 0.97765 0.74418 0.30800
O 	O 	0.22303 0.01014 0.81264 -0.44900
O 	O 	0.12660 0.97771 0.68039 -0.29300
O 	O 	0.15731 0.98846 0.77176 -0.53400
C 	C 	0.24512 0.03631 0.79591 0.30000
O 	O 	0.24236 0.04589 0.73525 -0.33800
Cd	Cd	0.16231 0.88076 0.46118 1.24200
Cd	Cd	0.09662 0.90914 0.34235 1.17300
O 	O 	0.21606 0.84796 0.41704 -0.28600
O 	O 	0.21416 0.86579 0.51934 -0.31400
C 	C 	0.23353 0.85111 0.47210 0.29800
O 	O 	0.12174 0.91682 0.51715 -0.36700
O 	O 	0.07443 0.90765 0.44373 -0.44100
C 	C 	0.08862 0.92570 0.49399 0.28000
C 	C 	0.17731 0.94435 0.38880 0.31200
O 	O 	0.12006 0.85220 0.36935 -0.44700
O 	O 	0.20052 0.94068 0.43696 -0.26800
O 	O 	0.15586 0.91647 0.37790 -0.53700
C 	C 	0.10700 0.83016 0.41264 0.30700
O 	O 	0.12272 0.83168 0.46988 -0.34100
C 	C 	0.36070 0.97046 0.69099 0.14700
N 	N 	0.38889 0.99489 0.68835 -0.12600
C 	C 	0.41019 0.00178 0.74181 0.14000
N 	N 	0.40412 0.98333 0.79729 -0.14100
C 	C 	0.37590 0.95912 0.80032 0.14500
N 	N 	0.35376 0.95321 0.74762 -0.10700
C 	C 	0.37253 0.86048 0.36179 0.14600
N 	N 	0.36339 0.86728 0.29899 -0.11500
C 	C 	0.39027 0.87235 0.25425 0.15000
N 	N 	0.42637 0.86980 0.27205 -0.14100
C 	C 	0.43562 0.86272 0.33463 0.14600
N 	N 	0.40867 0.85802 0.37951 -0.11200
C 	C 	0.36944 0.93936 0.86082 -0.03700
C 	C 	0.39464 0.91243 0.88169 0.12200
C 	C 	0.39278 0.90005 0.94576 -0.08100
C 	C 	0.36544 0.91317 0.98843 -0.00800
C 	C 	0.33818 0.93762 0.96564 0.07000
C 	C 	0.34069 0.95078 0.90207 -0.04300
N 	N 	0.42051 0.89828 0.84042 -0.19800
H 	H 	0.41302 0.88057 0.96280 0.06500
C 	C 	0.36774 0.90374 0.05821 0.00900
N 	N 	0.30966 0.94853 0.00438 -0.18200
H 	H 	0.32087 0.97078 0.88539 0.05400
C 	C 	0.38342 0.92899 0.10254 -0.08700
C 	C 	0.38907 0.91994 0.16788 0.12300
C 	C 	0.38042 0.88432 0.18837 -0.04100
C 	C 	0.36358 0.85948 0.14466 -0.04500
C 	C 	0.35667 0.86901 0.07983 0.07900
H 	H 	0.39124 0.95580 0.08611 0.06800
N 	N 	0.40217 0.94569 0.21078 -0.19900
H 	H 	0.35615 0.83252 0.16092 0.06500
N 	N 	0.33923 0.84487 0.03890 -0.18800
H 	H 	0.40967 0.97150 0.19476 0.11100
H 	H 	0.40369 0.94091 0.26061 0.13600
H 	H 	0.33193 0.81898 0.05484 0.10800
H 	H 	0.33187 0.85182 0.99158 0.10100
H 	H 	0.29027 0.96740 0.98786 0.07400
H 	H 	0.30582 0.93765 0.05038 0.09800
H 	H 	0.42091 0.90500 0.79131 0.13600
H 	H 	0.43979 0.87926 0.85677 0.11100
C 	C 	0.28879 0.88894 0.45661 0.07100
C 	C 	0.27398 0.85476 0.47130 0.01700
C 	C 	0.29654 0.82336 0.46536 -0.06300
C 	C 	0.33057 0.82577 0.43270 0.03900
C 	C 	0.34341 0.85956 0.41152 0.06800
C 	C 	0.32432 0.89175 0.43000 -0.10700
C 	C 	0.34077 0.92900 0.41780 0.78900
H 	H 	0.27143 0.91296 0.46072 0.08000
H 	H 	0.34601 0.80120 0.42061 0.09000
C 	C 	0.28284 0.78673 0.48775 0.77900
F 	F 	0.32240 0.95612 0.45256 -0.42100
F 	F 	0.33832 0.93658 0.35232 -0.44900
F 	F 	0.37746 0.92972 0.43702 -0.44200
F 	F 	0.26010 0.77131 0.44039 -0.43500
F 	F 	0.26321 0.79086 0.54510 -0.41200
F 	F 	0.31211 0.76330 0.49904 -0.41900
C 	C 	0.28169 0.93229 0.59404 0.06600
C 	C 	0.26450 0.96558 0.57961 0.01800
C 	C 	0.28770 0.99611 0.57110 -0.07900
C 	C 	0.32186 0.99729 0.60389 0.04700
C 	C 	0.33491 0.96610 0.63522 0.06200
C 	C 	0.31750 0.93222 0.62118 -0.10600
C 	C 	0.33567 0.89640 0.63813 0.79000
H 	H 	0.26546 0.90744 0.59336 0.08400
H 	H 	0.33714 0.02268 0.60776 0.08200
C 	C 	0.27616 0.02737 0.52888 0.78900
F 	F 	0.32555 0.86932 0.59362 -0.42300
F 	F 	0.32454 0.88616 0.69934 -0.43600
F 	F 	0.37383 0.89935 0.63712 -0.43200
F 	F 	0.26097 0.05497 0.56714 -0.46600
F 	F 	0.25058 0.01587 0.48254 -0.43600
F 	F 	0.30655 0.04100 0.49674 -0.41400
C 	C 	0.22261 0.38809 0.82794 -0.03900
C 	C 	0.24438 0.41054 0.78814 0.11500
C 	C 	0.24087 0.40753 0.72008 -0.08300
C 	C 	0.21708 0.38157 0.69133 -0.00200
C 	C 	0.19915 0.35593 0.73096 0.08000
C 	C 	0.20189 0.35962 0.79910 -0.04800
N 	N 	0.26874 0.43484 0.81498 -0.19900
H 	H 	0.25591 0.42610 0.68952 0.06800
C 	C 	0.20840 0.38376 0.62075 0.00100
N 	N 	0.17880 0.32824 0.70405 -0.19400
H 	H 	0.18621 0.34154 0.82961 0.06500
C 	C 	0.23277 0.36792 0.57531 -0.08600
C 	C 	0.22564 0.36989 0.50811 0.12500
C 	C 	0.19262 0.38660 0.48627 -0.04700
C 	C 	0.16859 0.40296 0.53168 -0.04600
C 	C 	0.17632 0.40210 0.59871 0.07600
H 	H 	0.25766 0.35452 0.59225 0.07200
N 	N 	0.25110 0.35679 0.46502 -0.19800
H 	H 	0.14352 0.41610 0.51486 0.05600
N 	N 	0.15288 0.41892 0.64148 -0.19300
H 	H 	0.27464 0.34314 0.48145 0.12700
H 	H 	0.24872 0.36151 0.41528 0.15700
H 	H 	0.12901 0.43189 0.62477 0.09400
H 	H 	0.15829 0.41983 0.69141 0.09600
H 	H 	0.16472 0.31011 0.73364 0.09800
H 	H 	0.17758 0.32382 0.65372 0.10100
H 	H 	0.27418 0.43548 0.86495 0.12100
H 	H 	0.28372 0.45235 0.78552 0.10700
C 	C 	0.24458 0.12380 0.87958 -0.05000
C 	C 	0.23089 0.11051 0.93831 -0.08200
C 	C 	0.24121 0.07515 0.95757 0.03600
C 	C 	0.25712 0.05128 0.91134 -0.05100
C 	C 	0.25944 0.06191 0.84633 -0.11700
C 	C 	0.26048 0.09958 0.83412 0.10100
C 	C 	0.27680 0.11381 0.77246 -0.21100
H 	H 	0.24051 0.15217 0.86750 0.06100
H 	H 	0.26188 0.02300 0.92332 0.02300
C 	C 	0.23177 0.06163 0.02419 -0.18600
H 	H 	0.29115 0.14015 0.78242 0.09000
H 	H 	0.25449 0.11829 0.73618 0.10400
H 	H 	0.29748 0.09439 0.75181 0.10600
H 	H 	0.24529 0.03503 0.03371 0.06300
H 	H 	0.20139 0.05805 0.02827 0.04800
H 	H 	0.24150 0.08142 0.06219 0.10000
C 	C 	0.22108 0.29516 0.09413 0.08000
C 	C 	0.18463 0.28200 0.09451 0.01500
C 	C 	0.15505 0.30714 0.08756 -0.09300
C 	C 	0.16272 0.34234 0.06591 0.03800
C 	C 	0.19898 0.35243 0.05129 0.04900
C 	C 	0.22861 0.33061 0.07282 -0.09900
C 	C 	0.26820 0.34383 0.06908 0.78900
H 	H 	0.24373 0.27648 0.10294 0.10300
H 	H 	0.14009 0.36044 0.05379 0.07700
C 	C 	0.11507 0.29509 0.09093 0.78200
F 	F 	0.29039 0.32605 0.11341 -0.40400
F 	F 	0.27018 0.38088 0.08317 -0.42900
F 	F 	0.28169 0.33706 0.00716 -0.43400
F 	F 	0.11084 0.26532 0.12993 -0.43200
F 	F 	0.10253 0.28625 0.02890 -0.44500
F 	F 	0.09346 0.32306 0.11645 -0.43300
C 	C 	0.15131 0.02288 0.28006 -0.02800
C 	C 	0.15403 0.05228 0.32473 -0.13200
C 	C 	0.16718 0.04621 0.38832 0.07700
C 	C 	0.17124 0.01057 0.40950 -0.04000
C 	C 	0.16806 0.98093 0.36560 -0.11200
C 	C 	0.15965 0.98723 0.29943 0.04200
C 	C 	0.15867 0.95632 0.24982 -0.16400
H 	H 	0.14137 0.02750 0.23109 0.03700
H 	H 	0.17748 0.00588 0.46031 0.08200
C 	C 	0.17485 0.07762 0.43515 -0.20400
H 	H 	0.15987 0.96668 0.19950 0.05900
H 	H 	0.13270 0.94060 0.25490 -0.02900
H 	H 	0.18279 0.93793 0.25607 0.07600
H 	H 	0.14909 0.08531 0.46126 0.02300
H 	H 	0.18561 0.10161 0.40914 0.10900
H 	H 	0.19607 0.06999 0.47170 0.13400
C 	C 	0.16569 0.25479 0.26007 0.06700
C 	C 	0.12831 0.24466 0.26235 0.03200
C 	C 	0.10095 0.27183 0.27369 -0.06500
C 	C 	0.11209 0.30761 0.29039 0.03800
C 	C 	0.14965 0.31662 0.29475 0.05800
C 	C 	0.17664 0.29087 0.27465 -0.11600
C 	C 	0.21730 0.30102 0.27321 0.78700
H 	H 	0.18644 0.23397 0.25103 0.08300
H 	H 	0.09162 0.32807 0.30338 0.09100
C 	C 	0.06007 0.26234 0.27174 0.78300
F 	F 	0.23771 0.27545 0.23818 -0.43400
F 	F 	0.23108 0.30290 0.33604 -0.44500
F 	F 	0.22191 0.33445 0.24431 -0.43500
F 	F 	0.05185 0.23966 0.32248 -0.46900
F 	F 	0.05126 0.24498 0.21330 -0.41500
F 	F 	0.03804 0.29313 0.27753 -0.43400
C 	C 	0.47453 0.86514 0.35534 -0.04100
C 	C 	0.48984 0.89868 0.37780 0.12300
C 	C 	0.52805 0.90120 0.38906 -0.08200
C 	C 	0.55136 0.87155 0.37485 0.00200
C 	C 	0.53585 0.83740 0.35645 0.08100
C 	C 	0.49743 0.83453 0.34698 -0.04600
N 	N 	0.46827 0.92880 0.38669 -0.20000
H 	H 	0.54001 0.92708 0.40476 0.07300
C 	C 	0.59156 0.87832 0.36934 0.00000
N 	N 	0.55765 0.80755 0.34666 -0.19300
H 	H 	0.48550 0.80869 0.33102 0.06500
C 	C 	0.61460 0.87262 0.42328 -0.08100
C 	C 	0.65085 0.88645 0.42455 0.11900
C 	C 	0.66220 0.91025 0.37509 -0.04300
C 	C 	0.64101 0.91181 0.31762 -0.04600
C 	C 	0.60595 0.89554 0.31401 0.08100
H 	H 	0.60440 0.85734 0.46405 0.07200
N 	N 	0.67517 0.87498 0.47037 -0.19600
H 	H 	0.65095 0.92713 0.27673 0.06200
N 	N 	0.58596 0.89716 0.25789 -0.19300
H 	H 	0.66614 0.85918 0.50890 0.11300
H 	H 	0.70358 0.87904 0.46506 0.10800
H 	H 	0.59619 0.91114 0.21803 0.09900
H 	H 	0.56073 0.88357 0.25251 0.10000
H 	H 	0.54606 0.78265 0.33148 0.10700
H 	H 	0.58612 0.80852 0.35526 0.10500
H 	H 	0.44007 0.92843 0.37581 0.15200
H 	H 	0.47982 0.95334 0.40382 0.12000
C 	C 	0.61176 0.10706 0.82233 -0.03900
C 	C 	0.60383 0.06923 0.81937 0.12900
C 	C 	0.56897 0.05745 0.79750 -0.08200
C 	C 	0.54298 0.08242 0.77416 0.00300
C 	C 	0.55194 0.11999 0.77264 0.08400
C 	C 	0.58603 0.13203 0.79812 -0.04200
N 	N 	0.62982 0.04411 0.83578 -0.20000
H 	H 	0.56219 0.02863 0.79781 0.07000
C 	C 	0.50574 0.06904 0.75538 -0.00400
N 	N 	0.52830 0.14444 0.74596 -0.19300
H 	H 	0.59264 0.16089 0.79872 0.06600
C 	C 	0.47611 0.07554 0.79783 -0.08200
C 	C 	0.44260 0.05680 0.78914 0.10800
C 	C 	0.43974 0.02932 0.73995 -0.04200
C 	C 	0.46800 0.02532 0.69388 -0.04900
C 	C 	0.50078 0.04561 0.70037 0.08700
H 	H 	0.47941 0.09469 0.83843 0.06300
N 	N 	0.41314 0.06566 0.82726 -0.19800
H 	H 	0.46509 0.00543 0.65433 0.07500
N 	N 	0.52736 0.04243 0.65401 -0.19500
H 	H 	0.41591 0.08482 0.86539 0.09700
H 	H 	0.38684 0.05511 0.81723 0.09900
H 	H 	0.52411 0.02408 0.61475 0.11600
H 	H 	0.55078 0.05910 0.65515 0.12300
H 	H 	0.53471 0.17224 0.74665 0.10800
H 	H 	0.50397 0.13606 0.72250 0.10500
H 	H 	0.65724 0.05153 0.84503 0.15000
H 	H 	0.62313 0.01639 0.83621 0.11500
C 	C 	0.70230 0.10458 0.99711 -0.07000
C 	C 	0.71425 0.12671 0.05055 0.12900
C 	C 	0.72389 0.11023 0.10948 -0.09100
C 	C 	0.72109 0.07232 0.11624 0.00500
C 	C 	0.71022 0.05016 0.06210 0.07000
C 	C 	0.70120 0.06656 0.00300 -0.00900
N 	N 	0.71570 0.16367 0.04627 -0.20200
H 	H 	0.73236 0.12711 0.15091 0.06800
C 	C 	0.72488 0.05672 0.18205 -0.00100
N 	N 	0.70804 0.01324 0.06665 -0.19200
H 	H 	0.69282 0.04964 0.96154 0.06300
C 	C 	0.69422 0.05750 0.22350 -0.08300
C 	C 	0.69445 0.03793 0.28143 0.12500
C 	C 	0.72575 0.01661 0.29740 -0.03900
C 	C 	0.75750 0.01811 0.25866 -0.04900
C 	C 	0.75758 0.03846 0.20137 0.07700
H 	H 	0.66967 0.07253 0.20967 0.06900
N 	N 	0.66448 0.03949 0.32120 -0.19900
H 	H 	0.78176 0.00252 0.27191 0.05800
N 	N 	0.78878 0.03984 0.16480 -0.19300
H 	H 	0.64107 0.05443 0.30810 0.11600
H 	H 	0.66446 0.02680 0.36617 0.15300
H 	H 	0.81251 0.02566 0.17874 0.08700
H 	H 	0.79009 0.05562 0.12320 0.09600
H 	H 	0.69976 0.99719 0.02651 0.11000
H 	H 	0.71465 0.00004 0.10963 0.10200
H 	H 	0.70744 0.17690 0.00417 0.11400
H 	H 	0.72481 0.17970 0.08586 0.10500
C 	C 	0.93992 0.16648 0.48447 -0.05000
C 	C 	0.94453 0.14262 0.53631 -0.10100
C 	C 	0.98038 0.13760 0.56188 0.07800
C 	C 	0.01098 0.14665 0.52392 -0.04600
C 	C 	0.00563 0.16175 0.46241 -0.09900
C 	C 	0.97054 0.17658 0.44732 0.08400
C 	C 	0.96550 0.20327 0.39327 -0.21600
H 	H 	0.91228 0.17403 0.46901 0.06200
H 	H 	0.03863 0.13977 0.54026 0.03200
C 	C 	0.98615 0.12192 0.62811 -0.20200
H 	H 	0.94074 0.22065 0.40188 0.10000
H 	H 	0.96170 0.18829 0.34617 0.09700
H 	H 	0.98968 0.22182 0.39061 0.14500
H 	H 	0.97977 0.09233 0.62710 0.08200
H 	H 	0.96818 0.13622 0.66415 0.09200
H 	H 	0.01528 0.12530 0.64409 0.07400
C 	C 	0.99964 0.96033 0.56297 -0.08600
C 	C 	0.00360 0.99787 0.55306 -0.07300
C 	C 	0.03965 0.01218 0.54399 0.01300
C 	C 	0.06907 0.98812 0.52925 -0.04500
C 	C 	0.06395 0.95026 0.53214 -0.10400
C 	C 	0.03028 0.93686 0.55675 0.09000
C 	C 	0.02634 0.89743 0.57365 -0.20900
H 	H 	0.97270 0.94922 0.57427 0.04500
H 	H 	0.09563 0.99887 0.51462 0.00100
C 	C 	0.04786 0.05179 0.55878 -0.17200
H 	H 	0.00608 0.89416 0.61358 0.08200
H 	H 	0.05314 0.88589 0.59007 0.09500
H 	H 	0.01646 0.88210 0.53014 0.07000
H 	H 	0.03689 0.05950 0.60749 0.06800
H 	H 	0.03536 0.06932 0.52142 -0.02000
H 	H 	0.07810 0.05718 0.55975 0.00700
C 	C 	0.74746 0.03866 0.60216 0.08000
C 	C 	0.77922 0.01993 0.62248 0.04900
C 	C 	0.77974 0.98166 0.61309 -0.09700
C 	C 	0.75870 0.96621 0.56180 0.03600
C 	C 	0.73347 0.98800 0.52802 0.05300
C 	C 	0.72415 0.02278 0.55441 -0.11000
C 	C 	0.69165 0.04415 0.52839 0.78700
H 	H 	0.74430 0.06729 0.61535 0.10700
H 	H 	0.76312 0.93806 0.54649 0.06600
C 	C 	0.80201 0.95747 0.65719 0.79000
F 	F 	0.67820 0.06808 0.57568 -0.42000
F 	F 	0.66313 0.02096 0.50968 -0.44900
F 	F 	0.70275 0.06392 0.47542 -0.44800
F 	F 	0.80731 0.97419 0.71758 -0.41900
F 	F 	0.83599 0.94995 0.62950 -0.45900
F 	F 	0.78356 0.92492 0.66631 -0.43300
C 	C 	0.08607 0.05994 0.82697 -0.06700
C 	C 	0.10362 0.08081 0.77987 -0.18500
C 	C 	0.08398 0.10930 0.74994 0.06600
C 	C 	0.04746 0.11718 0.76942 -0.08100
C 	C 	0.02967 0.09609 0.81618 -0.09900
C 	C 	0.04937 0.06703 0.84519 0.00000
C 	C 	0.03207 0.04402 0.89654 -0.13300
H 	H 	0.10124 0.03826 0.85021 -0.05900
H 	H 	0.03327 0.14050 0.74966 0.04500
C 	C 	0.10193 0.13184 0.69839 -0.20200
H 	H 	0.04919 0.01974 0.90750 0.02100
H 	H 	0.00476 0.03418 0.87939 -0.04500
H 	H 	0.02926 0.06025 0.94237 0.02500
H 	H 	0.10836 0.11430 0.65519 0.07800
H 	H 	0.12781 0.14439 0.71770 0.06700
H 	H 	0.08353 0.15423 0.68230 0.06800
C 	C 	0.02016 0.20963 0.83861 -0.01700
C 	C 	0.98694 0.21858 0.87009 -0.14000
C 	C 	0.98823 0.23121 0.93520 0.07100
C 	C 	0.01950 0.22384 0.97286 -0.08600
C 	C 	0.05101 0.20817 0.94392 -0.07900
C 	C 	0.05286 0.20559 0.87499 0.03200
C 	C 	0.08922 0.20155 0.83999 -0.15400
H 	H 	0.02013 0.20365 0.78672 0.04300
H 	H 	0.01888 0.22924 0.02494 0.09200
C 	C 	0.95465 0.24805 0.96688 -0.22000
H 	H 	0.08686 0.21061 0.78889 0.06400
H 	H 	0.09790 0.17259 0.83878 -0.02800
H 	H 	0.11087 0.21863 0.86406 0.08300
H 	H 	0.96299 0.26811 0.00551 0.11000
H 	H 	0.93766 0.22642 0.98906 0.04000
H 	H 	0.93761 0.26272 0.93068 0.10300
C 	C 	0.79451 0.11879 0.73646 0.05500
C 	C 	0.80790 0.15447 0.72971 0.00100
C 	C 	0.78243 0.18366 0.73280 -0.08300
C 	C 	0.74826 0.17845 0.76355 0.03000
C 	C 	0.73802 0.14362 0.78350 0.06000
C 	C 	0.75942 0.11303 0.76401 -0.12800
C 	C 	0.74457 0.07461 0.77179 0.78200
H 	H 	0.81311 0.09598 0.72842 0.06200
H 	H 	0.73063 0.20165 0.77485 0.08500
C 	C 	0.79352 0.22140 0.71206 0.77900
F 	F 	0.76953 0.04852 0.75055 -0.45600
F 	F 	0.71227 0.07052 0.73607 -0.43600
F 	F 	0.73711 0.06809 0.83636 -0.47600
F 	F 	0.81941 0.21933 0.66270 -0.43000
F 	F 	0.80846 0.24050 0.76465 -0.43300
F 	F 	0.76304 0.24016 0.68926 -0.42700
C 	C 	0.02113 0.58847 0.21001 -0.03400
C 	C 	0.00977 0.55179 0.21486 0.10700
C 	C 	0.03657 0.52417 0.21846 -0.08400
C 	C 	0.07430 0.53287 0.21680 -0.00700
C 	C 	0.08520 0.56856 0.20040 0.08200
C 	C 	0.05832 0.59619 0.19701 -0.05200
N 	N 	0.97327 0.54309 0.21743 -0.20200
H 	H 	0.02814 0.49631 0.22697 0.06900
C 	C 	0.10125 0.50697 0.24465 0.00100
N 	N 	0.12134 0.57667 0.19000 -0.19500
H 	H 	0.06674 0.62415 0.18937 0.09400
C 	C 	0.11961 0.48211 0.20324 -0.08600
C 	C 	0.14240 0.45482 0.22894 0.12200
C 	C 	0.14377 0.45015 0.29725 -0.04500
C 	C 	0.12704 0.47629 0.33853 -0.04500
C 	C 	0.10633 0.50504 0.31289 0.07900
H 	H 	0.11663 0.48435 0.15095 0.06200
N 	N 	0.16385 0.43424 0.18824 -0.20000
H 	H 	0.12900 0.47356 0.39087 0.05800
N 	N 	0.09104 0.53039 0.35402 -0.19300
H 	H 	0.16062 0.43589 0.13785 0.11400
H 	H 	0.18554 0.41844 0.20605 0.14200
H 	H 	0.09411 0.52815 0.40438 0.09600
H 	H 	0.07682 0.55299 0.33665 0.10000
H 	H 	0.12927 0.60328 0.17936 0.10900
H 	H 	0.14171 0.55648 0.19037 0.09600
H 	H 	0.95285 0.56290 0.21125 0.10600
H 	H 	0.96500 0.51606 0.22333 0.10200
C 	C 	0.04557 0.62237 0.93992 -0.01800
C 	C 	0.08308 0.62135 0.92079 0.11800
C 	C 	0.10558 0.59250 0.94074 -0.07400
C 	C 	0.09137 0.56528 0.98033 -0.01700
C 	C 	0.05546 0.56918 0.00670 0.11100
C 	C 	0.03265 0.59765 0.98564 -0.07300
N 	N 	0.09760 0.64796 0.88353 -0.19800
H 	H 	0.13373 0.59031 0.92305 0.06500
C 	C 	0.11185 0.53054 0.98492 -0.00800
N 	N 	0.04238 0.54502 0.05024 -0.19800
H 	H 	0.00442 0.59972 0.00295 0.08700
C 	C 	0.14163 0.52836 0.02864 -0.07900
C 	C 	0.16639 0.49883 0.02526 0.11700
C 	C 	0.16057 0.47071 0.97792 -0.06000
C 	C 	0.12940 0.47181 0.93720 -0.04600
C 	C 	0.10512 0.50155 0.93974 0.07500
H 	H 	0.14656 0.55055 0.06333 0.06300
N 	N 	0.19603 0.49821 0.06629 -0.20300
H 	H 	0.12438 0.44962 0.90248 0.05600
N 	N 	0.07578 0.50238 0.89799 -0.19300
H 	H 	0.19934 0.51851 0.10237 0.10300
H 	H 	0.21633 0.47805 0.06233 0.12400
H 	H 	0.07134 0.48097 0.86445 0.09600
H 	H 	0.05702 0.52401 0.89842 0.09600
H 	H 	0.01528 0.54715 0.06736 0.10300
H 	H 	0.05926 0.52454 0.06875 0.10000
H 	H 	0.08241 0.67122 0.87213 0.14700
H 	H 	0.12497 0.64626 0.86762 0.11300
C 	C 	0.98625 0.66510 0.74140 -0.04900
C 	C 	0.95123 0.67227 0.71305 0.11500
C 	C 	0.94772 0.67273 0.64494 -0.08300
C 	C 	0.97754 0.66285 0.60488 -0.00600
C 	C 	0.01205 0.65377 0.63325 0.08300
C 	C 	0.01620 0.65567 0.70122 -0.04100
N 	N 	0.92066 0.67709 0.75064 -0.19800
H 	H 	0.92124 0.67923 0.62307 0.06900
C 	C 	0.97216 0.66153 0.53325 -0.00100
N 	N 	0.04119 0.64311 0.59569 -0.19400
H 	H 	0.04295 0.64995 0.72289 0.06100
C 	C 	0.98438 0.69092 0.49650 -0.08400
C 	C 	0.98482 0.68850 0.42816 0.11000
C 	C 	0.97046 0.65684 0.39609 -0.04600
C 	C 	0.95600 0.62849 0.43297 -0.04800
C 	C 	0.95719 0.63021 0.50127 0.07700
H 	H 	0.99535 0.71504 0.52123 0.06300
N 	N 	0.00021 0.71601 0.39407 -0.20000
H 	H 	0.94478 0.60443 0.40836 0.05800
N 	N 	0.94450 0.60153 0.53568 -0.19300
H 	H 	0.01037 0.73928 0.41836 0.10300
H 	H 	0.00330 0.71424 0.34370 0.13800
H 	H 	0.93365 0.57851 0.51156 0.09900
H 	H 	0.94527 0.60168 0.58645 0.09800
H 	H 	0.06666 0.63695 0.61709 0.10000
H 	H 	0.03882 0.64026 0.54520 0.10000
H 	H 	0.92102 0.67140 0.80018 0.11500
H 	H 	0.89542 0.68437 0.72957 0.11500
C 	C 	0.05698 0.01057 0.07708 -0.05100
C 	C 	0.02059 0.02351 0.07131 -0.08100
C 	C 	0.01395 0.06156 0.08030 0.06300
C 	C 	0.04398 0.08592 0.08360 -0.04100
C 	C 	0.08031 0.07309 0.07824 -0.10300
C 	C 	0.08697 0.03507 0.08033 0.06900
C 	C 	0.12587 0.02034 0.08098 -0.18000
H 	H 	0.06216 0.98148 0.07608 0.04200
H 	H 	0.03886 0.11509 0.08500 0.02100
C 	C 	0.97531 0.07676 0.08245 -0.17800
H 	H 	0.12680 0.99320 0.10389 0.05400
H 	H 	0.14458 0.03880 0.10932 0.07300
H 	H 	0.13615 0.01741 0.03031 0.02300
H 	H 	0.95668 0.05833 0.10873 0.07200
H 	H 	0.96501 0.08072 0.03215 0.00300
H 	H 	0.97467 0.10361 0.10855 0.02700
C 	C 	0.84460 0.00344 0.95078 -0.08200
C 	C 	0.86755 0.99492 0.00322 -0.06300
C 	C 	0.87942 0.02383 0.04432 0.05900
C 	C 	0.88271 0.05876 0.01827 -0.02300
C 	C 	0.87004 0.06459 0.95475 -0.14200
C 	C 	0.84533 0.03880 0.92643 0.11400
C 	C 	0.82110 0.04822 0.86966 -0.23200
H 	H 	0.83047 0.98180 0.92378 0.09000
H 	H 	0.89669 0.08036 0.04544 0.01700
C 	C 	0.89001 0.01711 0.11361 -0.19200
H 	H 	0.79463 0.03302 0.87225 0.15700
H 	H 	0.83506 0.04044 0.82339 0.13600
H 	H 	0.81458 0.07785 0.87009 0.12000
H 	H 	0.91861 0.00635 0.11573 0.08400
H 	H 	0.87102 0.99677 0.13452 0.08400
H 	H 	0.88807 0.04257 0.14364 0.05900
C 	C 	0.03226 0.95837 0.81404 -0.03700
C 	C 	0.04251 0.94150 0.87208 -0.12900
C 	C 	0.08049 0.93722 0.88720 0.08500
C 	C 	0.10682 0.94396 0.83970 -0.05900
C 	C 	0.09704 0.96198 0.78281 -0.11300
C 	C 	0.05942 0.97035 0.77072 0.08000
C 	C 	0.04809 0.99192 0.71241 -0.20400
H 	H 	0.00324 0.96253 0.80289 -0.00300
H 	H 	0.13566 0.93773 0.84931 0.02200
C 	C 	0.09341 0.92696 0.95433 -0.20300
H 	H 	0.01805 0.99835 0.71261 0.06900
H 	H 	0.05424 0.97572 0.66781 0.09800
H 	H 	0.06337 0.01813 0.71133 0.08100
H 	H 	0.09340 0.89682 0.95856 0.10800
H 	H 	0.07553 0.93948 0.99235 0.06800
H 	H 	0.12195 0.93700 0.96405 0.04100
C 	C 	0.99261 0.79483 0.00124 0.08300
C 	C 	0.95539 0.80543 0.99722 -0.03400
C 	C 	0.92875 0.78056 0.97139 -0.07200
C 	C 	0.94060 0.74662 0.94624 0.02200
C 	C 	0.97824 0.73767 0.94433 0.05700
C 	C 	0.00476 0.76213 0.97140 -0.10500
C 	C 	0.04599 0.75434 0.96583 0.78300
H 	H 	0.01249 0.81342 0.02346 0.09000
H 	H 	0.92063 0.72779 0.92483 0.08800
C 	C 	0.88849 0.79147 0.96279 0.76800
F 	F 	0.06707 0.78411 0.98568 -0.43700
F 	F 	0.05504 0.74601 0.90186 -0.45000
F 	F 	0.05537 0.72530 0.00436 -0.39500
F 	F 	0.88436 0.80920 0.90452 -0.42100
F 	F 	0.87658 0.81421 0.01294 -0.40500
F 	F 	0.86587 0.76100 0.96157 -0.40600
C 	C 	0.95761 0.00482 0.23670 -0.05300
C 	C 	0.97796 0.97229 0.23287 -0.10000
C 	C 	0.01690 0.97411 0.22816 0.06800
C 	C 	0.03499 0.00774 0.23914 -0.05800
C 	C 	0.01451 0.03964 0.25168 -0.08700
C 	C 	0.97566 0.03865 0.24508 0.03500
C 	C 	0.95322 0.07313 0.25278 -0.16000
H 	H 	0.92775 0.00367 0.23708 0.02300
H 	H 	0.06496 0.00867 0.24147 0.01700
C 	C 	0.03936 0.94007 0.21573 -0.17000
H 	H 	0.92542 0.06996 0.23028 0.04200
H 	H 	0.96713 0.09615 0.22868 0.06400
H 	H 	0.94995 0.08016 0.30523 -0.02400
H 	H 	0.02571 0.92243 0.17810 0.07600
H 	H 	0.04215 0.92473 0.26145 -0.02400
H 	H 	0.06742 0.94679 0.19774 0.03100
C 	C 	0.85511 0.96820 0.28634 -0.04400
C 	C 	0.83846 0.93445 0.29754 -0.13500
C 	C 	0.81728 0.93060 0.35420 0.08000
C 	C 	0.82350 0.95464 0.40697 -0.06700
C 	C 	0.84879 0.98348 0.40095 -0.09700
C 	C 	0.85914 0.99369 0.33779 0.02300
C 	C 	0.87120 0.03188 0.32392 -0.15600
H 	H 	0.86784 0.97315 0.23986 0.03500
H 	H 	0.81100 0.94930 0.45359 0.06700
C 	C 	0.79226 0.89822 0.36181 -0.20800
H 	H 	0.86476 0.03887 0.27276 0.05200
H 	H 	0.90138 0.03394 0.33135 -0.05800
H 	H 	0.85665 0.05205 0.35575 0.04900
H 	H 	0.80850 0.87474 0.37975 0.08200
H 	H 	0.77914 0.89052 0.31448 0.09900
H 	H 	0.76982 0.90460 0.39701 0.08300
C 	C 	0.04197 0.82092 0.44442 -0.03000
C 	C 	0.07122 0.81215 0.40238 -0.11900
C 	C 	0.06311 0.79553 0.34156 0.10300
C 	C 	0.02731 0.79859 0.31617 -0.06000
C 	C 	0.00007 0.81736 0.35213 -0.07900
C 	C 	0.00578 0.82296 0.41962 0.05100
C 	C 	0.97376 0.82941 0.46502 -0.17600
H 	H 	0.04766 0.82854 0.49469 0.05100
H 	H 	0.02162 0.78946 0.26659 0.10100
C 	C 	0.09316 0.77820 0.30090 -0.22600
H 	H 	0.98149 0.82312 0.51596 0.06600
H 	H 	0.95023 0.81135 0.45113 0.07600
H 	H 	0.96485 0.85836 0.46330 0.00700
H 	H 	0.11513 0.76662 0.33230 0.10900
H 	H 	0.10551 0.79890 0.26892 0.10000
H 	H 	0.08178 0.75557 0.27005 0.13700
C 	C 	0.94939 0.75835 0.13740 0.05800
C 	C 	0.91076 0.76237 0.13945 0.00500
C 	C 	0.88853 0.73093 0.14550 -0.07400
C 	C 	0.90507 0.69825 0.16554 0.02500
C 	C 	0.94349 0.69614 0.17444 0.05900
C 	C 	0.96606 0.72512 0.15381 -0.13100
C 	C 	0.00788 0.72136 0.15316 0.79300
H 	H 	0.96645 0.78226 0.13106 0.06700
H 	H 	0.88786 0.67536 0.17862 0.08600
C 	C 	0.84690 0.73304 0.13848 0.77800
F 	F 	0.02477 0.75172 0.12767 -0.43700
F 	F 	0.01777 0.69126 0.11538 -0.42600
F 	F 	0.02104 0.71708 0.21581 -0.47600
F 	F 	0.83685 0.75939 0.09458 -0.38300
F 	F 	0.83142 0.74150 0.19832 -0.42700
F 	F 	0.83286 0.69994 0.11611 -0.41800
