data_crystal

_cell_length_a 29.03021
_cell_length_b 30.08908
_cell_length_c 31.44547
_cell_angle_alpha 91.44864
_cell_angle_beta  89.99902
_cell_angle_gamma 89.71713

_symmetry_space_group_name_	'P 1'
_symmetry_space_group_name_H-M	'P 1'

loop_
_symmetry_equiv_pos_as_xyz
  x,y,z

loop_
_atom_site_label
_atom_site_type_symbol
_atom_site_fract_x
_atom_site_fract_y
_atom_site_fract_z
_atom_site_charge
C 	C 	0.95102 0.18308 0.28509 0.31000
C 	C 	0.92943 0.18019 0.09624 0.33200
C 	C 	0.01134 0.11639 0.19942 0.32400
C 	C 	0.86219 0.24568 0.17816 0.30700
C 	C 	0.06156 0.23922 0.14235 0.33100
C 	C 	0.99539 0.31225 0.21886 0.32000
Ni	Ni	0.92382 0.16658 0.19065 1.12700
Ni	Ni	0.96065 0.25655 0.14755 1.12600
Ni	Ni	0.01884 0.21339 0.22143 1.13000
O 	O 	0.93529 0.15432 0.25554 -0.33000
O 	O 	0.98264 0.21339 0.27630 -0.34900
O 	O 	0.02823 0.26834 0.13670 -0.37200
O 	O 	0.90292 0.16662 0.12710 -0.33400
O 	O 	0.96490 0.20561 0.10466 -0.37000
O 	O 	0.02757 0.28093 0.22450 -0.34900
O 	O 	0.97802 0.12513 0.17283 -0.33900
O 	O 	0.02381 0.14618 0.22849 -0.35900
O 	O 	0.96178 0.30703 0.19043 -0.37400
O 	O 	0.86860 0.20967 0.20112 -0.33100
O 	O 	0.88996 0.25493 0.14583 -0.36100
O 	O 	0.05592 0.20601 0.16800 -0.36800
O 	O 	0.96111 0.21729 0.19376 -0.71900
H 	H 	0.94397 0.23538 0.21504 0.16900
C 	C 	0.95498 0.18969 0.78646 0.31300
C 	C 	0.94362 0.17760 0.59711 0.33100
C 	C 	0.01868 0.11684 0.70733 0.31900
C 	C 	0.87399 0.24809 0.67311 0.30600
C 	C 	0.07454 0.23577 0.64617 0.33100
C 	C 	0.00461 0.31280 0.71845 0.30300
Ni	Ni	0.93280 0.16837 0.69190 1.12300
Ni	Ni	0.97404 0.25555 0.64654 1.12600
Ni	Ni	0.02737 0.21478 0.72463 1.13000
O 	O 	0.94051 0.15946 0.75774 -0.33600
O 	O 	0.98845 0.21819 0.77792 -0.34700
O 	O 	0.04237 0.26549 0.63838 -0.37100
O 	O 	0.91555 0.16539 0.62738 -0.33800
O 	O 	0.97932 0.20251 0.60618 -0.37200
O 	O 	0.03696 0.28202 0.72499 -0.34600
O 	O 	0.98635 0.12421 0.67924 -0.35200
O 	O 	0.03080 0.14822 0.73497 -0.34800
O 	O 	0.97397 0.30817 0.68718 -0.36600
O 	O 	0.87807 0.21298 0.69772 -0.33400
O 	O 	0.90358 0.25505 0.64161 -0.36200
O 	O 	0.06715 0.20419 0.67328 -0.36600
O 	O 	0.97128 0.21827 0.69422 -0.71900
H 	H 	0.95345 0.23764 0.71392 0.16600
C 	C 	0.16766 0.68536 0.21071 0.30900
C 	C 	0.18250 0.68622 0.40030 0.32700
C 	C 	0.10591 0.61781 0.29289 0.32800
C 	C 	0.24939 0.75150 0.32282 0.30400
C 	C 	0.04940 0.73819 0.35238 0.33500
C 	C 	0.11509 0.81308 0.27910 0.30900
Ni	Ni	0.19156 0.67043 0.30542 1.12500
Ni	Ni	0.14909 0.75994 0.35014 1.13000
Ni	Ni	0.09576 0.71377 0.27304 1.13000
O 	O 	0.18332 0.65724 0.23964 -0.33200
O 	O 	0.13383 0.71420 0.21930 -0.35000
O 	O 	0.08063 0.76921 0.35897 -0.36700
O 	O 	0.21009 0.67182 0.36975 -0.34200
O 	O 	0.14584 0.70968 0.39135 -0.36700
O 	O 	0.08413 0.78094 0.27203 -0.34500
O 	O 	0.13909 0.62684 0.31992 -0.35400
O 	O 	0.09458 0.64641 0.26369 -0.36000
O 	O 	0.14720 0.80989 0.30907 -0.36800
O 	O 	0.24514 0.71512 0.29829 -0.33300
O 	O 	0.21970 0.76086 0.35417 -0.34400
O 	O 	0.05676 0.70555 0.32478 -0.37300
O 	O 	0.15215 0.71988 0.30277 -0.72200
H 	H 	0.16930 0.73820 0.28269 0.16800
C 	C 	0.17423 0.67365 0.70966 0.30700
C 	C 	0.18767 0.69268 0.89846 0.33100
C 	C 	0.11559 0.61293 0.79906 0.32700
C 	C 	0.25293 0.75477 0.81552 0.30900
C 	C 	0.05443 0.73330 0.84837 0.33700
C 	C 	0.11209 0.80582 0.76810 0.30800
Ni	Ni	0.19895 0.67003 0.80531 1.12200
Ni	Ni	0.15190 0.76090 0.84196 1.12800
Ni	Ni	0.10091 0.70493 0.76948 1.12800
O 	O 	0.19137 0.64957 0.74109 -0.33800
O 	O 	0.13882 0.70145 0.71553 -0.35500
O 	O 	0.08313 0.76700 0.84981 -0.36300
O 	O 	0.21724 0.67953 0.86910 -0.34800
O 	O 	0.15091 0.71541 0.88818 -0.36500
O 	O 	0.08497 0.77044 0.76148 -0.35100
O 	O 	0.14937 0.62519 0.82430 -0.34300
O 	O 	0.10393 0.63738 0.76677 -0.35300
O 	O 	0.14626 0.80604 0.79633 -0.36100
O 	O 	0.24968 0.71654 0.79356 -0.35900
O 	O 	0.22240 0.76608 0.84575 -0.35600
O 	O 	0.06116 0.69983 0.82141 -0.37900
O 	O 	0.15689 0.71676 0.79834 -0.72400
H 	H 	0.17287 0.73386 0.77651 0.16600
C 	C 	0.66362 0.93223 0.54595 0.31200
C 	C 	0.68459 0.91925 0.35719 0.32800
C 	C 	0.60960 0.00014 0.45894 0.33100
C 	C 	0.74497 0.85485 0.44025 0.30600
C 	C 	0.54784 0.88164 0.40212 0.33300
C 	C 	0.60291 0.80702 0.48388 0.30800
Ni	Ni	0.69149 0.94046 0.45147 1.12000
Ni	Ni	0.64467 0.85134 0.41081 1.13300
Ni	Ni	0.59164 0.90685 0.48270 1.12800
O 	O 	0.68189 0.95784 0.51628 -0.33600
O 	O 	0.62727 0.90651 0.53793 -0.36100
O 	O 	0.57617 0.84734 0.40028 -0.35500
O 	O 	0.71203 0.93359 0.38781 -0.35700
O 	O 	0.64651 0.89834 0.36612 -0.35800
O 	O 	0.57443 0.84181 0.48702 -0.35500
O 	O 	0.64344 0.98777 0.43363 -0.36700
O 	O 	0.59539 0.97392 0.48888 -0.35900
O 	O 	0.63633 0.80474 0.45486 -0.35500
O 	O 	0.74119 0.89249 0.46309 -0.34800
O 	O 	0.71521 0.84460 0.40916 -0.34100
O 	O 	0.55519 0.91481 0.42919 -0.37700
O 	O 	0.64858 0.89444 0.45549 -0.72300
H 	H 	0.66353 0.87627 0.47721 0.16700
C 	C 	0.67156 0.93066 0.04623 0.30800
C 	C 	0.68684 0.92499 0.85686 0.33100
C 	C 	0.61041 0.99533 0.96001 0.32600
C 	C 	0.75458 0.85983 0.93530 0.30700
C 	C 	0.55437 0.87483 0.90501 0.33000
C 	C 	0.61712 0.80055 0.97926 0.30700
Ni	Ni	0.69662 0.94164 0.95123 1.12100
Ni	Ni	0.65394 0.85190 0.90839 1.12700
Ni	Ni	0.60031 0.90089 0.98404 1.13300
O 	O 	0.68786 0.95736 0.01650 -0.34800
O 	O 	0.63783 0.90182 0.03824 -0.35600
O 	O 	0.58556 0.84337 0.89935 -0.35700
O 	O 	0.71547 0.93754 0.88713 -0.33800
O 	O 	0.65080 0.90090 0.86570 -0.37300
O 	O 	0.58766 0.83413 0.98718 -0.34700
O 	O 	0.64495 0.98575 0.93453 -0.35500
O 	O 	0.59995 0.96846 0.99084 -0.34300
O 	O 	0.65096 0.80333 0.95091 -0.36400
O 	O 	0.74957 0.89610 0.95994 -0.34900
O 	O 	0.72458 0.84971 0.90443 -0.35800
O 	O 	0.56153 0.90804 0.93192 -0.35700
O 	O 	0.65688 0.89295 0.95493 -0.72200
H 	H 	0.67365 0.87491 0.97564 0.16300
C 	C 	0.45493 0.42892 0.96481 0.31000
C 	C 	0.42558 0.43319 0.15269 0.33200
C 	C 	0.50964 0.49885 0.05433 0.32900
C 	C 	0.36505 0.36435 0.06894 0.30800
C 	C 	0.56183 0.38128 0.11334 0.33200
C 	C 	0.50549 0.30324 0.03449 0.31100
Ni	Ni	0.42323 0.44582 0.05797 1.12000
Ni	Ni	0.46307 0.35796 0.10310 1.13000
Ni	Ni	0.52205 0.40308 0.03132 1.12700
O 	O 	0.43692 0.45775 0.99334 -0.34500
O 	O 	0.48869 0.40093 0.97486 -0.36400
O 	O 	0.53063 0.34996 0.11655 -0.35100
O 	O 	0.39952 0.44521 0.12078 -0.35000
O 	O 	0.46265 0.40923 0.14573 -0.36400
O 	O 	0.53556 0.33621 0.02923 -0.36100
O 	O 	0.47332 0.49087 0.07764 -0.35500
O 	O 	0.52237 0.47024 0.02425 -0.36000
O 	O 	0.46993 0.30717 0.06099 -0.35000
O 	O 	0.37102 0.40028 0.04580 -0.34600
O 	O 	0.39228 0.35594 0.10204 -0.35700
O 	O 	0.55638 0.41309 0.08601 -0.36800
O 	O 	0.46338 0.39672 0.05663 -0.72200
H 	H 	0.44827 0.37766 0.03489 0.17000
C 	C 	0.45493 0.43210 0.46146 0.31100
C 	C 	0.44238 0.42658 0.65063 0.33000
C 	C 	0.51193 0.50252 0.54736 0.32900
C 	C 	0.37804 0.35867 0.56854 0.30700
C 	C 	0.57648 0.38457 0.60044 0.33400
C 	C 	0.51789 0.30808 0.51954 0.30900
Ni	Ni	0.43074 0.44357 0.55702 1.12200
Ni	Ni	0.47916 0.35550 0.59473 1.12800
Ni	Ni	0.52934 0.40790 0.52189 1.12800
O 	O 	0.43775 0.45875 0.49223 -0.33300
O 	O 	0.49143 0.40609 0.46790 -0.36100
O 	O 	0.54801 0.35079 0.60260 -0.36000
O 	O 	0.41309 0.43888 0.62123 -0.34800
O 	O 	0.47963 0.40415 0.64019 -0.36400
O 	O 	0.54616 0.34249 0.51573 -0.35600
O 	O 	0.47953 0.49100 0.57388 -0.35500
O 	O 	0.52569 0.47489 0.51695 -0.35700
O 	O 	0.48551 0.30735 0.54954 -0.35700
O 	O 	0.38050 0.39568 0.54642 -0.34600
O 	O 	0.40874 0.34975 0.59883 -0.35600
O 	O 	0.56839 0.41694 0.57411 -0.37400
O 	O 	0.47353 0.39707 0.55086 -0.72300
H 	H 	0.45771 0.37832 0.52935 0.16700
C 	C 	0.44593 0.43588 0.91936 -0.08400
C 	C 	0.40081 0.43419 0.90281 0.14800
C 	C 	0.39370 0.43788 0.85895 -0.07500
C 	C 	0.43132 0.44198 0.83131 0.02600
C 	C 	0.47620 0.44500 0.84805 0.08700
C 	C 	0.48322 0.44235 0.89186 -0.00500
H 	H 	0.35910 0.43563 0.84616 0.09500
C 	C 	0.42412 0.43850 0.78486 0.02800
H 	H 	0.51790 0.44444 0.90451 0.07600
C 	C 	0.42524 0.47701 0.76061 -0.07600
C 	C 	0.42878 0.47369 0.71620 0.15500
C 	C 	0.42994 0.43150 0.69578 -0.09100
C 	C 	0.42491 0.39323 0.71985 -0.00000
C 	C 	0.42232 0.39649 0.76419 0.08800
H 	H 	0.42601 0.50944 0.77639 0.09400
H 	H 	0.42503 0.36073 0.70416 0.06800
Br	Br	0.52862 0.45070 0.81133 -0.16500
Br	Br	0.34887 0.42379 0.93896 -0.19400
Br	Br	0.43540 0.52692 0.68437 -0.18600
Br	Br	0.41932 0.34302 0.79614 -0.17400
C 	C 	0.40915 0.43956 0.19656 -0.09200
C 	C 	0.41063 0.48177 0.21684 0.15600
C 	C 	0.40786 0.48536 0.26128 -0.07500
C 	C 	0.40511 0.44695 0.28559 0.02800
C 	C 	0.39870 0.40535 0.26498 0.08700
C 	C 	0.40022 0.40197 0.22062 -0.00100
H 	H 	0.41138 0.51762 0.27702 0.09700
C 	C 	0.41738 0.44936 0.33115 0.02600
H 	H 	0.39762 0.36956 0.20495 0.06700
C 	C 	0.38281 0.44606 0.36209 -0.07200
C 	C 	0.39448 0.44051 0.40488 0.14900
C 	C 	0.44124 0.43999 0.41713 -0.07700
C 	C 	0.47558 0.44583 0.38640 -0.00100
C 	C 	0.46397 0.45002 0.34362 0.08900
H 	H 	0.34693 0.44559 0.35259 0.09500
H 	H 	0.51153 0.44637 0.39572 0.08300
Br	Br	0.39193 0.35225 0.29697 -0.17400
Br	Br	0.42012 0.53438 0.18476 -0.18200
Br	Br	0.34627 0.43009 0.44521 -0.18900
Br	Br	0.51243 0.45446 0.30234 -0.16100
C 	C 	0.51846 0.25838 0.01912 -0.08000
C 	C 	0.53697 0.22729 0.04732 0.15300
C 	C 	0.54881 0.18463 0.03241 -0.07700
C 	C 	0.54321 0.17270 0.98938 0.02800
C 	C 	0.52464 0.20366 0.96112 0.09100
C 	C 	0.51239 0.24637 0.97611 -0.00600
H 	H 	0.56326 0.16091 0.05416 0.09500
C 	C 	0.55868 0.12832 0.97408 0.02900
H 	H 	0.49818 0.27017 0.95432 0.07700
C 	C 	0.52806 0.09245 0.97498 -0.07600
C 	C 	0.54406 0.04888 0.96803 0.15300
C 	C 	0.59141 0.04094 0.96090 -0.08300
C 	C 	0.62143 0.07713 0.95737 -0.00300
C 	C 	0.60528 0.12063 0.96386 0.08800
H 	H 	0.49195 0.09836 0.98197 0.09700
H 	H 	0.65770 0.07140 0.95102 0.07700
Br	Br	0.51631 0.18836 0.90201 -0.16400
Br	Br	0.54808 0.24291 0.10601 -0.18900
Br	Br	0.50041 0.00110 0.96652 -0.17700
Br	Br	0.64766 0.16914 0.95991 -0.17000
C 	C 	0.60523 0.75632 0.99476 -0.08100
C 	C 	0.58856 0.72300 0.96648 0.15100
C 	C 	0.57613 0.68157 0.98186 -0.07600
C 	C 	0.57897 0.67319 0.02541 0.02600
C 	C 	0.59569 0.70635 0.05373 0.09000
C 	C 	0.60868 0.74777 0.03830 -0.00800
H 	H 	0.56307 0.65617 0.96005 0.09300
C 	C 	0.56234 0.63028 0.04109 0.03000
H 	H 	0.62120 0.77335 0.06020 0.07300
C 	C 	0.59297 0.59425 0.04351 -0.07800
C 	C 	0.57646 0.55141 0.05064 0.15300
C 	C 	0.52865 0.54429 0.05452 -0.08900
C 	C 	0.49843 0.58090 0.05505 -0.00200
C 	C 	0.51506 0.62372 0.04840 0.08600
H 	H 	0.62955 0.59937 0.03892 0.09600
H 	H 	0.46175 0.57588 0.05899 0.07400
Br	Br	0.60021 0.69594 0.11355 -0.16700
Br	Br	0.57984 0.73416 0.90715 -0.18300
Br	Br	0.61985 0.50359 0.05674 -0.19200
Br	Br	0.47248 0.67275 0.04811 -0.17100
C 	C 	0.67588 0.94111 0.59076 -0.07800
C 	C 	0.72172 0.93702 0.60501 0.14800
C 	C 	0.73147 0.94086 0.64859 -0.07200
C 	C 	0.69569 0.94728 0.67815 0.02500
C 	C 	0.65029 0.95359 0.66367 0.09000
C 	C 	0.64072 0.95089 0.62018 -0.00200
H 	H 	0.76652 0.93641 0.65963 0.09500
C 	C 	0.70477 0.94152 0.72384 0.02800
H 	H 	0.60558 0.95508 0.60930 0.08400
C 	C 	0.70609 0.97896 0.75136 -0.07700
C 	C 	0.70264 0.97401 0.79542 0.15600
C 	C 	0.69927 0.93115 0.81214 -0.09100
C 	C 	0.70270 0.89373 0.78483 -0.00000
C 	C 	0.70506 0.89868 0.74085 0.08600
H 	H 	0.70676 0.01198 0.73839 0.09700
H 	H 	0.70143 0.86068 0.79771 0.06800
Br	Br	0.60040 0.96332 0.70301 -0.17300
Br	Br	0.77090 0.92281 0.56609 -0.19300
Br	Br	0.69899 0.02615 0.83178 -0.18200
Br	Br	0.70539 0.84651 0.70436 -0.17100
C 	C 	0.69768 0.92473 0.31242 -0.09300
C 	C 	0.69803 0.88791 0.28377 0.15800
C 	C 	0.70212 0.89457 0.24013 -0.07800
C 	C 	0.70708 0.93756 0.22465 0.03100
C 	C 	0.71074 0.97396 0.25351 0.08400
C 	C 	0.70584 0.96742 0.29724 -0.00200
H 	H 	0.70025 0.86636 0.21808 0.09700
C 	C 	0.70219 0.94457 0.17854 0.02800
H 	H 	0.70683 0.99572 0.31923 0.07300
C 	C 	0.66019 0.96051 0.16285 -0.07600
C 	C 	0.65107 0.95882 0.11921 0.15100
C 	C 	0.68380 0.94011 0.09085 -0.08500
C 	C 	0.72706 0.92713 0.10614 -0.01000
C 	C 	0.73650 0.92956 0.14983 0.08700
H 	H 	0.63403 0.97293 0.18475 0.09700
H 	H 	0.75286 0.91395 0.08427 0.07100
Br	Br	0.72218 0.03271 0.23374 -0.16600
Br	Br	0.69419 0.82819 0.30362 -0.20600
Br	Br	0.59384 0.98253 0.09890 -0.18300
Br	Br	0.79622 0.91209 0.16979 -0.17300
C 	C 	0.59362 0.04662 0.45929 -0.09600
C 	C 	0.58726 0.07055 0.49808 0.15400
C 	C 	0.56744 0.11277 0.49800 -0.08300
C 	C 	0.55843 0.13372 0.45962 0.02900
C 	C 	0.56640 0.11073 0.42076 0.08700
C 	C 	0.58306 0.06697 0.42076 -0.00500
H 	H 	0.56225 0.13084 0.52790 0.09400
C 	C 	0.54851 0.18169 0.46091 0.02800
H 	H 	0.58806 0.04891 0.39085 0.07700
C 	C 	0.58451 0.21074 0.47141 -0.08000
C 	C 	0.57529 0.25153 0.49178 0.14900
C 	C 	0.52914 0.26632 0.49627 -0.08200
C 	C 	0.49332 0.23965 0.48015 -0.00900
C 	C 	0.50271 0.19702 0.46347 0.09100
H 	H 	0.61985 0.19918 0.46872 0.09300
H 	H 	0.45800 0.25134 0.48212 0.08600
Br	Br	0.55564 0.13884 0.36753 -0.16400
Br	Br	0.61125 0.04923 0.55085 -0.19200
Br	Br	0.62565 0.28210 0.51938 -0.19400
Br	Br	0.45247 0.15912 0.44699 -0.15700
C 	C 	0.52650 0.54928 0.54633 -0.09100
C 	C 	0.53146 0.57086 0.50723 0.15300
C 	C 	0.55061 0.61317 0.50653 -0.08200
C 	C 	0.56021 0.63655 0.54451 0.02900
C 	C 	0.55306 0.61613 0.58375 0.09000
C 	C 	0.53721 0.57225 0.58447 -0.00400
H 	H 	0.55498 0.62931 0.47636 0.09400
C 	C 	0.57059 0.68426 0.54249 0.02900
H 	H 	0.53302 0.55612 0.61465 0.08800
C 	C 	0.53496 0.71321 0.53126 -0.08000
C 	C 	0.54476 0.75259 0.51066 0.15000
C 	C 	0.59107 0.76643 0.50669 -0.08100
C 	C 	0.62650 0.74004 0.52319 -0.00800
C 	C 	0.61657 0.69859 0.54007 0.09100
H 	H 	0.49950 0.70241 0.53365 0.09600
H 	H 	0.66195 0.75096 0.52139 0.08700
Br	Br	0.56377 0.64789 0.63649 -0.15400
Br	Br	0.50641 0.54627 0.45518 -0.19000
Br	Br	0.49507 0.78207 0.48196 -0.18800
Br	Br	0.66635 0.66075 0.55703 -0.15600
C 	C 	0.29791 0.77733 0.81625 -0.08500
C 	C 	0.30068 0.82412 0.81662 0.14800
C 	C 	0.34272 0.84496 0.82564 -0.07800
C 	C 	0.38219 0.81955 0.83386 0.02800
C 	C 	0.38010 0.77286 0.83053 0.08700
C 	C 	0.33817 0.75202 0.82155 -0.00600
H 	H 	0.34444 0.88094 0.82732 0.09600
C 	C 	0.42375 0.84152 0.85111 0.02700
H 	H 	0.33647 0.71604 0.82074 0.07600
C 	C 	0.42781 0.84839 0.89518 -0.07700
C 	C 	0.46985 0.86134 0.91314 0.15800
C 	C 	0.50822 0.86843 0.88666 -0.08400
C 	C 	0.50328 0.86430 0.84235 -0.00100
C 	C 	0.46119 0.85111 0.82448 0.09200
H 	H 	0.39882 0.84155 0.91570 0.09300
H 	H 	0.53252 0.87019 0.82184 0.08000
Br	Br	0.43377 0.73693 0.84030 -0.16600
Br	Br	0.24794 0.86004 0.80376 -0.20300
Br	Br	0.47488 0.86573 0.97402 -0.19300
Br	Br	0.45583 0.84499 0.76378 -0.16300
C 	C 	0.80011 0.83833 0.93342 -0.08400
C 	C 	0.83817 0.86075 0.91636 0.15200
C 	C 	0.87948 0.83785 0.90883 -0.07800
C 	C 	0.88307 0.79246 0.91724 0.02600
C 	C 	0.84581 0.77047 0.93600 0.09000
C 	C 	0.80447 0.79345 0.94387 -0.00900
H 	H 	0.90827 0.85491 0.89470 0.09500
C 	C 	0.92440 0.76763 0.90281 0.03000
H 	H 	0.77535 0.77610 0.95708 0.07100
C 	C 	0.96369 0.76723 0.92873 -0.07200
C 	C 	0.00601 0.75239 0.91223 0.14900
C 	C 	0.00924 0.73833 0.86923 -0.09500
C 	C 	0.96908 0.73498 0.84455 0.00800
C 	C 	0.92683 0.74983 0.86102 0.08900
H 	H 	0.96167 0.77979 0.96129 0.09500
H 	H 	0.97114 0.72325 0.81173 0.07700
Br	Br	0.85035 0.70886 0.94985 -0.16700
Br	Br	0.83349 0.92177 0.90021 -0.19200
Br	Br	0.05869 0.75060 0.94913 -0.18600
Br	Br	0.87327 0.74786 0.82521 -0.16300
C 	C 	0.18772 0.66199 0.66582 -0.08200
C 	C 	0.15685 0.63942 0.63845 0.15000
C 	C 	0.16549 0.63717 0.59474 -0.07600
C 	C 	0.20541 0.65625 0.57813 0.02800
C 	C 	0.23879 0.67419 0.60612 0.08600
C 	C 	0.22959 0.67742 0.64981 -0.01000
H 	H 	0.14024 0.62225 0.57346 0.09600
C 	C 	0.20781 0.66456 0.53210 0.02900
H 	H 	0.25425 0.69333 0.67104 0.07200
C 	C 	0.20026 0.70779 0.51795 -0.07800
C 	C 	0.19480 0.71561 0.47466 0.15600
C 	C 	0.19508 0.67959 0.44505 -0.09200
C 	C 	0.20539 0.63670 0.45888 -0.00200
C 	C 	0.21209 0.62910 0.50223 0.08500
H 	H 	0.19786 0.73531 0.54077 0.09700
H 	H 	0.20713 0.60909 0.43612 0.07700
Br	Br	0.29667 0.69499 0.58510 -0.17100
Br	Br	0.10272 0.61146 0.66023 -0.17500
Br	Br	0.18925 0.77595 0.45663 -0.21700
Br	Br	0.22739 0.57028 0.52001 -0.17300
C 	C 	0.19891 0.68767 0.94366 -0.09100
C 	C 	0.20567 0.64529 0.96080 0.15400
C 	C 	0.20922 0.64097 0.00493 -0.07600
C 	C 	0.20458 0.67839 0.03216 0.02800
C 	C 	0.20058 0.72093 0.01485 0.08700
C 	C 	0.19816 0.72537 0.97080 0.00100
H 	H 	0.21279 0.60822 0.01816 0.09400
C 	C 	0.19701 0.67236 0.07803 0.02600
H 	H 	0.19384 0.75811 0.95769 0.06900
C 	C 	0.23312 0.68036 0.10685 -0.07300
C 	C 	0.22437 0.68302 0.15067 0.14900
C 	C 	0.17929 0.67662 0.16582 -0.07600
C 	C 	0.14398 0.66548 0.13713 -0.00300
C 	C 	0.15250 0.66368 0.09342 0.09000
H 	H 	0.26752 0.68663 0.09511 0.09500
H 	H 	0.10943 0.65970 0.14876 0.08100
Br	Br	0.19530 0.77312 0.05101 -0.16700
Br	Br	0.20636 0.59265 0.92494 -0.18400
Br	Br	0.27370 0.69820 0.18892 -0.18600
Br	Br	0.10227 0.65188 0.05505 -0.16300
C 	C 	0.29421 0.77388 0.32403 -0.07500
C 	C 	0.33302 0.75263 0.34137 0.15400
C 	C 	0.37387 0.77629 0.34758 -0.07500
C 	C 	0.37620 0.82134 0.33759 0.02600
C 	C 	0.33807 0.84216 0.31871 0.09300
C 	C 	0.29722 0.81839 0.31212 -0.00800
H 	H 	0.40329 0.76014 0.36187 0.09600
C 	C 	0.41715 0.84716 0.35056 0.03100
H 	H 	0.26747 0.83483 0.29869 0.07600
C 	C 	0.45576 0.84752 0.32379 -0.07900
C 	C 	0.49821 0.86279 0.33924 0.15400
C 	C 	0.50226 0.87733 0.38202 -0.09000
C 	C 	0.46264 0.88094 0.40744 0.00200
C 	C 	0.42024 0.86572 0.39201 0.08800
H 	H 	0.45319 0.83443 0.29145 0.09700
H 	H 	0.46531 0.89301 0.44011 0.07500
Br	Br	0.34077 0.90330 0.30294 -0.16300
Br	Br	0.33002 0.69226 0.35963 -0.18000
Br	Br	0.55013 0.86396 0.30142 -0.18600
Br	Br	0.36747 0.86809 0.42883 -0.15900
C 	C 	0.00302 0.74466 0.37034 -0.10900
C 	C 	0.96499 0.75268 0.34362 0.16500
C 	C 	0.92243 0.76459 0.36140 -0.08400
C 	C 	0.91745 0.76939 0.40560 0.03200
C 	C 	0.95460 0.75888 0.43237 0.08300
C 	C 	0.99728 0.74689 0.41465 0.01600
H 	H 	0.89370 0.77218 0.34075 0.09600
C 	C 	0.87523 0.79040 0.42303 0.02700
H 	H 	0.02624 0.74021 0.43533 0.06800
C 	C 	0.83555 0.76470 0.42826 -0.07500
C 	C 	0.79303 0.78523 0.43688 0.14900
C 	C 	0.79003 0.83199 0.43988 -0.07700
C 	C 	0.83040 0.85735 0.43776 -0.00500
C 	C 	0.87277 0.83686 0.42912 0.09000
H 	H 	0.83751 0.72884 0.42448 0.09600
H 	H 	0.82852 0.89328 0.44072 0.08000
Br	Br	0.94797 0.76194 0.49310 -0.16300
Br	Br	0.97110 0.75073 0.28276 -0.20800
Br	Br	0.73993 0.74882 0.44569 -0.19100
Br	Br	0.92658 0.87312 0.42338 -0.16800
C 	C 	0.33355 0.33515 0.56917 -0.08000
C 	C 	0.33176 0.28835 0.57025 0.14800
C 	C 	0.28976 0.26723 0.57781 -0.07600
C 	C 	0.24935 0.29232 0.58386 0.02700
C 	C 	0.25067 0.33883 0.58020 0.08900
C 	C 	0.29256 0.35995 0.57268 -0.00600
H 	H 	0.28870 0.23135 0.57988 0.09500
C 	C 	0.20720 0.27049 0.59899 0.02700
H 	H 	0.29351 0.39589 0.57137 0.08300
C 	C 	0.20069 0.26567 0.64277 -0.08000
C 	C 	0.15805 0.25234 0.65856 0.15500
C 	C 	0.12151 0.24289 0.63017 -0.09200
C 	C 	0.12896 0.24512 0.58618 -0.00200
C 	C 	0.17168 0.25864 0.57048 0.08900
H 	H 	0.22821 0.27426 0.66473 0.09300
H 	H 	0.10120 0.23741 0.56420 0.07700
Br	Br	0.19586 0.37426 0.58728 -0.17000
Br	Br	0.38579 0.25261 0.56019 -0.20000
Br	Br	0.14969 0.25046 0.71910 -0.21300
Br	Br	0.18048 0.26197 0.51016 -0.16100
C 	C 	0.82958 0.27166 0.67232 -0.08000
C 	C 	0.79041 0.25097 0.65446 0.15300
C 	C 	0.75008 0.27564 0.64850 -0.07700
C 	C 	0.74862 0.32109 0.65938 0.02600
C 	C 	0.78719 0.34145 0.67861 0.09100
C 	C 	0.82750 0.31668 0.68492 -0.00900
H 	H 	0.72033 0.25984 0.63392 0.09500
C 	C 	0.70781 0.34756 0.64764 0.03000
H 	H 	0.85757 0.33273 0.69865 0.07400
C 	C 	0.67029 0.35078 0.67566 -0.07700
C 	C 	0.62789 0.36734 0.66173 0.15300
C 	C 	0.62268 0.38018 0.61920 -0.08900
C 	C 	0.66143 0.38103 0.59256 0.00200
C 	C 	0.70382 0.36455 0.60648 0.08900
H 	H 	0.67364 0.33900 0.70780 0.09700
H 	H 	0.65793 0.39181 0.56008 0.07600
Br	Br	0.78587 0.40326 0.69522 -0.16200
Br	Br	0.79221 0.18984 0.63534 -0.18400
Br	Br	0.57756 0.37249 0.70124 -0.17900
Br	Br	0.75527 0.36327 0.56810 -0.16600
C 	C 	0.03700 0.07121 0.71164 -0.08600
C 	C 	0.04332 0.05251 0.75210 0.15000
C 	C 	0.06042 0.00921 0.75505 -0.07900
C 	C 	0.06785 0.98278 0.71836 0.02600
C 	C 	0.06035 0.00080 0.67804 0.09100
C 	C 	0.04604 0.04512 0.67485 -0.00800
H 	H 	0.06540 0.99512 0.78612 0.09100
C 	C 	0.07799 0.93497 0.72290 0.02700
H 	H 	0.04093 0.05899 0.64371 0.08600
C 	C 	0.04288 0.90690 0.73657 -0.08000
C 	C 	0.05325 0.86447 0.75106 0.15000
C 	C 	0.09906 0.84835 0.74885 -0.08200
C 	C 	0.13362 0.87534 0.73213 -0.00900
C 	C 	0.12355 0.91885 0.72023 0.09100
H 	H 	0.00781 0.91931 0.73879 0.09100
H 	H 	0.16873 0.86309 0.72993 0.08500
Br	Br	0.06764 0.96494 0.62709 -0.16100
Br	Br	0.02339 0.08275 0.80354 -0.19500
Br	Br	0.00529 0.83186 0.77849 -0.19800
Br	Br	0.17288 0.95654 0.70274 -0.16200
C 	C 	0.01156 0.35761 0.73728 -0.08100
C 	C 	0.01952 0.36383 0.78128 0.14800
C 	C 	0.03343 0.40547 0.79736 -0.07500
C 	C 	0.03876 0.44118 0.77006 0.02700
C 	C 	0.02819 0.43564 0.72656 0.08800
C 	C 	0.01458 0.39404 0.71043 -0.00600
H 	H 	0.04067 0.40990 0.83101 0.09600
C 	C 	0.05919 0.48304 0.78630 0.03000
H 	H 	0.00806 0.38965 0.67665 0.07800
C 	C 	0.10700 0.48868 0.78392 -0.07800
C 	C 	0.12638 0.53071 0.79073 0.16000
C 	C 	0.09776 0.56745 0.80094 -0.08500
C 	C 	0.05034 0.56103 0.80657 -0.00000
C 	C 	0.03097 0.51901 0.79938 0.08600
H 	H 	0.12888 0.46084 0.77452 0.09500
H 	H 	0.02826 0.58907 0.81491 0.07500
Br	Br	0.03368 0.48421 0.68844 -0.16200
Br	Br	0.00982 0.31660 0.82014 -0.19000
Br	Br	0.19149 0.53777 0.78249 -0.19800
Br	Br	0.96570 0.51175 0.80568 -0.15600
C 	C 	0.94259 0.18388 0.83138 -0.07500
C 	C 	0.89646 0.17741 0.84385 0.15000
C 	C 	0.88607 0.17090 0.88674 -0.07200
C 	C 	0.92102 0.17256 0.91753 0.02600
C 	C 	0.96698 0.17927 0.90505 0.09400
C 	C 	0.97754 0.18447 0.86220 0.00600
H 	H 	0.85060 0.16628 0.89635 0.09700
C 	C 	0.90907 0.17106 0.96302 0.02800
H 	H 	0.01309 0.18907 0.85282 0.08400
C 	C 	0.91792 0.13214 0.98538 -0.07600
C 	C 	0.92114 0.13383 0.02982 0.15400
C 	C 	0.91432 0.17450 0.05201 -0.08900
C 	C 	0.89966 0.21192 0.02997 -0.00200
C 	C 	0.89723 0.21046 0.98560 0.08700
H 	H 	0.92569 0.10139 0.96811 0.09500
H 	H 	0.89282 0.24292 0.04718 0.06900
Br	Br	0.01570 0.18297 0.94635 -0.17800
Br	Br	0.84685 0.18109 0.80365 -0.18700
Br	Br	0.93813 0.08114 0.05933 -0.17700
Br	Br	0.88145 0.26360 0.95622 -0.16700
C 	C 	0.94249 0.17381 0.33007 -0.07700
C 	C 	0.89730 0.17083 0.34615 0.14900
C 	C 	0.89037 0.16467 0.38969 -0.07200
C 	C 	0.92811 0.16288 0.41750 0.02500
C 	C 	0.97319 0.16431 0.40112 0.09300
C 	C 	0.98013 0.16931 0.35760 0.00300
H 	H 	0.85563 0.16345 0.40220 0.09300
C 	C 	0.92040 0.16498 0.46384 0.02800
H 	H 	0.01494 0.17064 0.34524 0.07700
C 	C 	0.92650 0.12653 0.48763 -0.07700
C 	C 	0.93177 0.12987 0.53187 0.15600
C 	C 	0.92963 0.17187 0.55254 -0.09200
C 	C 	0.91880 0.20958 0.52919 -0.00000
C 	C 	0.91447 0.20640 0.48501 0.08600
H 	H 	0.93017 0.09445 0.47150 0.09600
H 	H 	0.91585 0.24178 0.54524 0.06600
Br	Br	0.02581 0.16177 0.43807 -0.17500
Br	Br	0.84473 0.17837 0.30992 -0.18400
Br	Br	0.94514 0.07729 0.56303 -0.18000
Br	Br	0.90382 0.25953 0.45378 -0.16900
C 	C 	0.31988 0.34228 0.06687 -0.08000
C 	C 	0.31669 0.29557 0.06429 0.14700
C 	C 	0.27414 0.27500 0.07058 -0.07600
C 	C 	0.23459 0.30065 0.07910 0.02700
C 	C 	0.23723 0.34735 0.07868 0.08900
C 	C 	0.27970 0.36790 0.07237 -0.00600
H 	H 	0.27206 0.23903 0.07003 0.09400
C 	C 	0.19236 0.27881 0.09406 0.02700
H 	H 	0.28179 0.40387 0.07373 0.07900
C 	C 	0.18727 0.27090 0.13751 -0.08000
C 	C 	0.14524 0.25620 0.15352 0.15500
C 	C 	0.10782 0.24853 0.12564 -0.09300
C 	C 	0.11372 0.25427 0.08181 -0.00200
C 	C 	0.15584 0.26915 0.06591 0.08900
H 	H 	0.21552 0.27789 0.15916 0.09300
H 	H 	0.08526 0.24805 0.06019 0.07800
Br	Br	0.18353 0.38363 0.08877 -0.17400
Br	Br	0.36963 0.25937 0.05112 -0.19400
Br	Br	0.13901 0.24982 0.21390 -0.21600
Br	Br	0.16256 0.27705 0.00586 -0.16300
C 	C 	0.81703 0.26784 0.18011 -0.07900
C 	C 	0.77757 0.24635 0.16371 0.15200
C 	C 	0.73625 0.26999 0.16002 -0.07600
C 	C 	0.73402 0.31521 0.17172 0.02600
C 	C 	0.77274 0.33613 0.19011 0.09200
C 	C 	0.81411 0.31242 0.19405 -0.00900
H 	H 	0.70634 0.25371 0.14624 0.09600
C 	C 	0.69274 0.34119 0.16046 0.03000
H 	H 	0.84430 0.32899 0.20693 0.07500
C 	C 	0.65454 0.34201 0.18777 -0.07600
C 	C 	0.61216 0.35884 0.17400 0.15600
C 	C 	0.60767 0.37420 0.13220 -0.08500
C 	C 	0.64690 0.37684 0.10631 -0.00100
C 	C 	0.68926 0.36031 0.12017 0.08900
H 	H 	0.65744 0.32846 0.21927 0.09700
H 	H 	0.64397 0.38953 0.07447 0.07700
Br	Br	0.77012 0.39733 0.20870 -0.16200
Br	Br	0.78017 0.18563 0.14344 -0.17400
Br	Br	0.56129 0.36176 0.21306 -0.17000
Br	Br	0.74148 0.36204 0.08277 -0.16700
C 	C 	0.10535 0.85752 0.26245 -0.07900
C 	C 	0.09946 0.86392 0.21852 0.14600
C 	C 	0.08681 0.90592 0.20396 -0.07300
C 	C 	0.08057 0.94178 0.23283 0.02400
C 	C 	0.08795 0.93567 0.27654 0.09000
C 	C 	0.10026 0.89375 0.29110 -0.00700
H 	H 	0.08156 0.91061 0.17025 0.09400
C 	C 	0.06289 0.98468 0.21763 0.03400
H 	H 	0.10490 0.88910 0.32490 0.08000
C 	C 	0.01528 0.99252 0.21743 -0.09400
C 	C 	0.99788 0.03516 0.21049 0.17000
C 	C 	0.02842 0.07037 0.20243 -0.09600
C 	C 	0.07598 0.06197 0.20054 0.00100
C 	C 	0.09330 0.01932 0.20799 0.08600
H 	H 	0.99181 0.96586 0.22471 0.10300
H 	H 	0.09957 0.08878 0.19408 0.07700
Br	Br	0.08046 0.98410 0.31696 -0.17000
Br	Br	0.11039 0.81638 0.17782 -0.18200
Br	Br	0.93265 0.04511 0.21566 -0.20000
Br	Br	0.15862 0.00930 0.20614 -0.16500
C 	C 	0.08793 0.57221 0.28958 -0.09200
C 	C 	0.11714 0.53628 0.27807 0.15500
C 	C 	0.09880 0.49370 0.27203 -0.08000
C 	C 	0.05137 0.48661 0.27636 0.02900
C 	C 	0.02239 0.52214 0.28922 0.08400
C 	C 	0.04074 0.56477 0.29560 -0.00200
H 	H 	0.12118 0.46639 0.26218 0.09400
C 	C 	0.03188 0.44327 0.26282 0.02500
H 	H 	0.01819 0.59222 0.30468 0.07400
C 	C 	0.02938 0.40870 0.29185 -0.07500
C 	C 	0.01562 0.36605 0.27828 0.14900
C 	C 	0.00481 0.35770 0.23511 -0.08600
C 	C 	0.00575 0.39275 0.20650 -0.01100
C 	C 	0.01921 0.43531 0.22011 0.09000
H 	H 	0.03856 0.41486 0.32488 0.09400
H 	H 	0.99728 0.38662 0.17330 0.08200
Br	Br	0.95755 0.51327 0.29713 -0.16100
Br	Br	0.18158 0.54513 0.26745 -0.21100
Br	Br	0.01003 0.32030 0.31944 -0.18600
Br	Br	0.02128 0.48198 0.17960 -0.17100
