data_crystal

_cell_length_a 44.28730
_cell_length_b 45.08270
_cell_length_c 42.41665
_cell_angle_alpha 91.80812
_cell_angle_beta  88.19571
_cell_angle_gamma 89.86742

_symmetry_space_group_name_	'P 1'
_symmetry_space_group_name_H-M	'P 1'

loop_
_symmetry_equiv_pos_as_xyz
  x,y,z

loop_
_atom_site_label
_atom_site_type_symbol
_atom_site_fract_x
_atom_site_fract_y
_atom_site_fract_z
_atom_site_charge
Cd	Cd	0.00507 0.89691 0.24845 1.24800
Cd	Cd	0.00871 0.90436 0.33244 1.17200
O 	O 	0.01722 0.84798 0.22447 -0.28100
O 	O 	0.99690 0.88276 0.19724 -0.30400
C 	C 	0.00392 0.85471 0.19875 0.36800
O 	O 	0.98492 0.94175 0.26011 -0.35400
O 	O 	0.00773 0.94777 0.30775 -0.43800
C 	C 	0.98708 0.95571 0.28790 0.27600
C 	C 	0.95756 0.87367 0.28712 0.30100
O 	O 	0.04437 0.89193 0.29294 -0.42900
O 	O 	0.94965 0.87502 0.25785 -0.22800
O 	O 	0.98554 0.88005 0.29219 -0.52300
C 	C 	0.06190 0.91014 0.27766 0.29500
O 	O 	0.05321 0.91684 0.24957 -0.33000
Cd	Cd	0.95213 0.90421 0.91918 1.24200
Cd	Cd	0.93841 0.97068 0.96884 1.18200
O 	O 	0.93825 0.85265 0.93345 -0.27200
O 	O 	0.95379 0.86460 0.88564 -0.32300
C 	C 	0.94458 0.84400 0.90429 0.39100
O 	O 	0.95961 0.94705 0.88950 -0.34600
O 	O 	0.96456 0.98341 0.92781 -0.42500
C 	C 	0.95701 0.97566 0.89940 0.27300
C 	C 	0.89196 0.92591 0.92636 0.30200
O 	O 	0.97706 0.93448 0.96684 -0.41200
O 	O 	0.89480 0.90350 0.90654 -0.25000
O 	O 	0.91572 0.93050 0.94373 -0.52100
C 	C 	0.00082 0.92602 0.94859 0.27700
O 	O 	0.99892 0.89936 0.93743 -0.32400
C 	C 	0.87583 0.70843 0.73517 0.24700
N 	N 	0.85829 0.68411 0.73937 -0.11800
C 	C 	0.84915 0.66762 0.71411 0.14500
N 	N 	0.85698 0.67596 0.68448 -0.13600
C 	C 	0.87402 0.70058 0.68005 0.14300
N 	N 	0.88364 0.71671 0.70543 -0.11800
C 	C 	0.88387 0.72129 0.29800 0.23800
N 	N 	0.86557 0.69789 0.29131 -0.11700
C 	C 	0.85459 0.68081 0.31484 0.14400
N 	N 	0.86108 0.68779 0.34525 -0.13400
C 	C 	0.87902 0.71132 0.35218 0.14600
N 	N 	0.89068 0.72787 0.32852 -0.11700
Cd	Cd	0.86006 0.91370 0.75553 1.24900
Cd	Cd	0.87969 0.98777 0.77541 1.16800
O 	O 	0.80657 0.89924 0.75123 -0.27400
O 	O 	0.84343 0.86763 0.74124 -0.28900
C 	C 	0.81445 0.87170 0.74557 0.36700
O 	O 	0.91104 0.91367 0.74836 -0.34200
O 	O 	0.91832 0.95505 0.77970 -0.40300
C 	C 	0.92853 0.93573 0.75784 0.28300
C 	C 	0.85739 0.95782 0.70918 0.29600
O 	O 	0.84707 0.95424 0.79998 -0.43300
O 	O 	0.85551 0.93149 0.69529 -0.25400
O 	O 	0.85750 0.95786 0.73950 -0.54800
C 	C 	0.85315 0.93494 0.82101 0.28900
O 	O 	0.86215 0.90874 0.81014 -0.30200
Cd	Cd	0.86022 0.91636 0.44855 1.24700
Cd	Cd	0.88588 0.95174 0.37864 1.17300
O 	O 	0.81264 0.88906 0.44511 -0.28800
O 	O 	0.84098 0.88558 0.48632 -0.31600
C 	C 	0.81679 0.87690 0.47195 0.38300
O 	O 	0.90679 0.93253 0.45971 -0.35800
O 	O 	0.90708 0.96888 0.42300 -0.43600
C 	C 	0.92152 0.95241 0.44281 0.27500
C 	C 	0.88839 0.88182 0.39857 0.29100
O 	O 	0.84192 0.95657 0.40963 -0.42800
O 	O 	0.88635 0.86672 0.42427 -0.24100
O 	O 	0.87477 0.90730 0.39988 -0.52800
C 	C 	0.83734 0.97450 0.43406 0.29300
O 	O 	0.84038 0.96290 0.46165 -0.32800
C 	C 	0.68878 0.79062 0.91170 0.24800
N 	N 	0.69717 0.78149 0.94042 -0.12100
C 	C 	0.67695 0.78241 0.96527 0.14100
N 	N 	0.64855 0.79286 0.96138 -0.13700
C 	C 	0.64029 0.80247 0.93287 0.14300
N 	N 	0.66040 0.80110 0.90804 -0.12600
C 	C 	0.69684 0.77129 0.34719 0.24300
N 	N 	0.66898 0.78232 0.35514 -0.12500
C 	C 	0.64838 0.78642 0.33262 0.14200
N 	N 	0.65549 0.77860 0.30210 -0.13800
C 	C 	0.68317 0.76721 0.29397 0.13900
N 	N 	0.70396 0.76378 0.31652 -0.12400
Cd	Cd	0.90458 0.12460 0.35641 1.24700
Cd	Cd	0.93629 0.08342 0.41706 1.17200
O 	O 	0.88204 0.17415 0.36782 -0.27100
O 	O 	0.88733 0.15548 0.31937 -0.30500
C 	C 	0.87829 0.17754 0.33784 0.37000
O 	O 	0.92757 0.08629 0.33114 -0.36200
O 	O 	0.92660 0.05558 0.37341 -0.44300
C 	C 	0.93511 0.06112 0.34407 0.28000
C 	C 	0.96260 0.14039 0.37864 0.30100
O 	O 	0.88783 0.10174 0.41060 -0.42800
O 	O 	0.95755 0.15313 0.35205 -0.25900
O 	O 	0.93973 0.12662 0.39102 -0.52800
C 	C 	0.86591 0.08842 0.39605 0.29000
O 	O 	0.86282 0.09531 0.36664 -0.32800
Cd	Cd	0.89164 0.11431 0.77493 1.24400
Cd	Cd	0.93929 0.06330 0.73296 1.17500
O 	O 	0.86300 0.15204 0.74711 -0.28200
O 	O 	0.85702 0.14630 0.79833 -0.32300
C 	C 	0.84949 0.16048 0.77352 0.39300
O 	O 	0.90479 0.08137 0.81085 -0.38600
O 	O 	0.94956 0.07029 0.78469 -0.43300
C 	C 	0.93020 0.06596 0.80833 0.26300
C 	C 	0.86469 0.06651 0.73981 0.25600
O 	O 	0.93875 0.11461 0.73577 -0.42400
O 	O 	0.84565 0.07832 0.76086 -0.27300
O 	O 	0.89052 0.07991 0.73748 -0.52000
C 	C 	0.95321 0.13059 0.75643 0.29400
O 	O 	0.93690 0.13972 0.78117 -0.32300
C 	C 	0.72227 0.32945 0.71526 0.24900
N 	N 	0.70669 0.32670 0.68824 -0.12400
C 	C 	0.69702 0.35123 0.67368 0.14400
N 	N 	0.70225 0.37853 0.68677 -0.13700
C 	C 	0.71771 0.38146 0.71383 0.14400
N 	N 	0.72762 0.35685 0.72810 -0.12400
C 	C 	0.74314 0.34760 0.30989 0.24200
N 	N 	0.72516 0.34662 0.33636 -0.12300
C 	C 	0.70963 0.37108 0.34712 0.14200
N 	N 	0.71195 0.39661 0.33108 -0.13700
C 	C 	0.73017 0.39792 0.30477 0.14000
N 	N 	0.74543 0.37324 0.29398 -0.11900
Cd	Cd	0.09043 0.02042 0.80483 1.24400
Cd	Cd	0.01640 0.02851 0.83589 1.18500
O 	O 	0.13295 0.04999 0.82527 -0.27500
O 	O 	0.13992 0.01376 0.78995 -0.30400
C 	C 	0.15203 0.03408 0.80796 0.37600
O 	O 	0.06394 0.98246 0.78187 -0.35200
O 	O 	0.01912 0.00794 0.78600 -0.40700
C 	C 	0.03465 0.98406 0.77667 0.29000
C 	C 	0.07682 0.99696 0.86581 0.30700
O 	O 	0.04964 0.06246 0.81428 -0.43400
O 	O 	0.10236 0.98669 0.85359 -0.25000
O 	O 	0.06434 0.01732 0.84953 -0.52200
C 	C 	0.05265 0.06863 0.78458 0.28200
O 	O 	0.07358 0.05374 0.76836 -0.32600
Cd	Cd	0.10056 0.03133 0.42080 1.24800
Cd	Cd	0.04703 0.03871 0.36101 1.17200
O 	O 	0.14955 0.05686 0.41605 -0.27800
O 	O 	0.13684 0.03175 0.45789 -0.30400
C 	C 	0.15739 0.04719 0.44318 0.37800
O 	O 	0.05860 0.01028 0.44047 -0.36000
O 	O 	0.03804 0.00004 0.39228 -0.44300
C 	C 	0.03571 0.00116 0.42339 0.27900
C 	C 	0.06639 0.08472 0.41849 0.29300
O 	O 	0.09609 0.02018 0.35960 -0.42700
O 	O 	0.07972 0.08331 0.44547 -0.25800
O 	O 	0.07393 0.06419 0.39766 -0.53100
C 	C 	0.10453 0.99302 0.36464 0.28700
O 	O 	0.11275 0.98785 0.39321 -0.32000
C 	C 	0.34235 0.01772 0.92401 0.24700
N 	N 	0.36611 0.00036 0.91400 -0.12100
C 	C 	0.38922 0.99550 0.93352 0.14400
N 	N 	0.38837 0.00779 0.96316 -0.13800
C 	C 	0.36453 0.02483 0.97343 0.14300
N 	N 	0.34164 0.02998 0.95372 -0.12200
C 	C 	0.35410 0.00846 0.35498 0.25100
N 	N 	0.35283 0.02087 0.32629 -0.12600
C 	C 	0.37417 0.01425 0.30346 0.14400
N 	N 	0.39708 0.99543 0.30957 -0.13700
C 	C 	0.39860 0.98310 0.33830 0.14300
N 	N 	0.37708 0.98967 0.36102 -0.12400
C 	C 	0.36209 0.03504 0.00682 -0.00500
C 	C 	0.38834 0.04146 0.02347 -0.01100
C 	C 	0.38669 0.04595 0.05622 -0.03900
C 	C 	0.35877 0.04431 0.07263 0.02100
C 	C 	0.33228 0.03998 0.05578 -0.03400
C 	C 	0.33392 0.03531 0.02303 -0.01000
C 	C 	0.35768 0.04388 0.10741 0.01300
C 	C 	0.34698 0.01863 0.12269 -0.03200
C 	C 	0.34837 0.01702 0.15543 -0.03200
C 	C 	0.36054 0.04060 0.17323 0.01300
C 	C 	0.37064 0.06614 0.15808 -0.03100
C 	C 	0.36917 0.06780 0.12529 -0.03100
C 	C 	0.36393 0.03789 0.20747 0.02100
C 	C 	0.39285 0.03627 0.21993 -0.03900
C 	C 	0.39619 0.02976 0.25164 -0.01100
C 	C 	0.37062 0.02473 0.27117 -0.00600
C 	C 	0.34165 0.02771 0.25899 -0.00800
C 	C 	0.33835 0.03427 0.22730 -0.03500
H 	H 	0.41014 0.04202 0.01117 0.05500
H 	H 	0.40725 0.04955 0.06897 0.05500
H 	H 	0.31056 0.03914 0.06819 0.06500
H 	H 	0.31344 0.03063 0.01050 0.08700
H 	H 	0.33825 0.99998 0.10911 0.05700
H 	H 	0.34060 0.99718 0.16691 0.05700
H 	H 	0.37992 0.08453 0.17165 0.05800
H 	H 	0.37735 0.08745 0.11374 0.05800
H 	H 	0.41273 0.03917 0.20482 0.05500
H 	H 	0.41864 0.02807 0.26085 0.05600
H 	H 	0.32171 0.02394 0.27375 0.08400
H 	H 	0.31593 0.03572 0.21794 0.06500
C 	C 	0.23233 0.01062 0.45058 0.23400
C 	C 	0.25083 0.03231 0.43695 0.00100
C 	C 	0.23991 0.06146 0.43529 0.22900
C 	C 	0.20941 0.06761 0.44222 0.31100
C 	C 	0.18963 0.04454 0.45032 -0.19200
C 	C 	0.20174 0.01668 0.45724 0.31000
C 	C 	0.27784 0.02314 0.41780 -0.01100
F 	F 	0.25814 0.08314 0.42406 -0.34100
F 	F 	0.18340 0.99468 0.46754 -0.36700
C 	C 	0.27430 0.00873 0.38832 0.23400
C 	C 	0.29941 0.00302 0.36830 0.28900
C 	C 	0.32831 0.01180 0.37746 -0.16100
C 	C 	0.33208 0.02519 0.40743 0.29100
C 	C 	0.30687 0.03090 0.42754 0.24400
F 	F 	0.24633 0.00113 0.37868 -0.35600
F 	F 	0.35998 0.03350 0.41663 -0.37300
F 	F 	0.29563 0.98930 0.33975 -0.38400
F 	F 	0.31057 0.04454 0.45614 -0.33700
F 	F 	0.24329 0.98288 0.45449 -0.34100
F 	F 	0.19848 0.09535 0.43819 -0.36600
C 	C 	0.26221 0.01903 0.89610 0.23700
C 	C 	0.26671 0.02700 0.86459 -0.00800
C 	C 	0.29606 0.03229 0.85268 0.24200
C 	C 	0.32079 0.02950 0.87214 0.29000
C 	C 	0.31632 0.02131 0.90365 -0.15800
C 	C 	0.28688 0.01610 0.91552 0.28900
C 	C 	0.24059 0.02950 0.84410 0.00100
F 	F 	0.30058 0.04009 0.82225 -0.33900
F 	F 	0.28226 0.00753 0.94569 -0.38200
C 	C 	0.22692 0.05721 0.84032 0.23300
C 	C 	0.19895 0.05896 0.82601 0.31100
C 	C 	0.18428 0.03294 0.81570 -0.19100
C 	C 	0.19922 0.00543 0.81723 0.31100
C 	C 	0.22727 0.00378 0.83136 0.23300
F 	F 	0.24011 0.08231 0.85175 -0.34100
F 	F 	0.18581 0.98009 0.80673 -0.36400
F 	F 	0.18559 0.08584 0.82317 -0.36500
F 	F 	0.24085 0.97698 0.83404 -0.34300
F 	F 	0.23386 0.01396 0.90781 -0.35000
F 	F 	0.34906 0.03509 0.86052 -0.37000
C 	C 	0.68568 0.34856 0.64133 -0.00500
C 	C 	0.69689 0.32610 0.62035 -0.00800
C 	C 	0.69142 0.32727 0.58816 -0.03300
C 	C 	0.67473 0.35083 0.57663 0.02200
C 	C 	0.66138 0.37184 0.59783 -0.03900
C 	C 	0.66674 0.37067 0.63008 -0.01100
C 	C 	0.67508 0.35591 0.54252 0.01400
C 	C 	0.70192 0.36472 0.52713 -0.03100
C 	C 	0.70262 0.36913 0.49472 -0.03000
C 	C 	0.67647 0.36485 0.47734 0.01300
C 	C 	0.64949 0.35631 0.49274 -0.03100
C 	C 	0.64878 0.35192 0.52528 -0.03000
C 	C 	0.67785 0.36807 0.44286 0.02200
C 	C 	0.67511 0.34298 0.42277 -0.03400
C 	C 	0.68320 0.34453 0.39074 -0.00800
C 	C 	0.69438 0.37115 0.37860 -0.00700
C 	C 	0.69450 0.39688 0.39821 -0.01100
C 	C 	0.68624 0.39532 0.43018 -0.04000
H 	H 	0.71118 0.30865 0.62867 0.09000
H 	H 	0.70143 0.31069 0.57197 0.06900
H 	H 	0.64808 0.38989 0.58917 0.05700
H 	H 	0.65721 0.38765 0.64610 0.05600
H 	H 	0.72227 0.36802 0.54031 0.05900
H 	H 	0.72359 0.37553 0.48300 0.05900
H 	H 	0.62919 0.35294 0.47952 0.05700
H 	H 	0.62794 0.34521 0.53701 0.05900
H 	H 	0.66819 0.32193 0.43225 0.06600
H 	H 	0.68204 0.32473 0.37569 0.08100
H 	H 	0.70254 0.41772 0.38914 0.05400
H 	H 	0.68786 0.41496 0.44542 0.05500
C 	C 	0.98671 0.12801 0.75774 -0.06400
C 	C 	0.00295 0.11227 0.73333 -0.02300
C 	C 	0.02834 0.09519 0.74073 -0.00500
C 	C 	0.03782 0.09524 0.77213 -0.06200
C 	C 	0.02738 0.11817 0.79324 -0.00000
C 	C 	0.00149 0.13461 0.78606 0.00600
C 	C 	0.99423 0.11455 0.70087 0.07500
C 	C 	0.04394 0.12556 0.82132 0.10500
C 	C 	0.99141 0.15926 0.80648 0.11800
C 	C 	0.04561 0.07932 0.71601 0.10100
N 	N 	0.98337 0.17897 0.82281 -0.07600
N 	N 	0.05949 0.06677 0.69621 -0.08100
N 	N 	0.05717 0.13146 0.84375 -0.08300
N 	N 	0.98726 0.11636 0.67494 -0.09200
C 	C 	0.77287 0.26233 0.71927 0.23700
C 	C 	0.76891 0.25502 0.75104 -0.01000
C 	C 	0.74913 0.27190 0.77099 0.24200
C 	C 	0.73358 0.29608 0.75926 0.29000
C 	C 	0.73760 0.30339 0.72744 -0.16000
C 	C 	0.75728 0.28635 0.70750 0.28900
C 	C 	0.78595 0.22997 0.76338 0.00200
F 	F 	0.74503 0.26488 0.80171 -0.34200
F 	F 	0.76190 0.29362 0.67691 -0.38400
C 	C 	0.81223 0.23538 0.78032 0.23000
C 	C 	0.83199 0.21202 0.78605 0.31400
C 	C 	0.82570 0.18320 0.77466 -0.20200
C 	C 	0.79831 0.17745 0.75990 0.31600
C 	C 	0.77841 0.20073 0.75444 0.23100
F 	F 	0.81942 0.26350 0.78965 -0.34300
F 	F 	0.79163 0.14947 0.74962 -0.37300
F 	F 	0.85813 0.21768 0.80097 -0.37300
F 	F 	0.75254 0.19514 0.73900 -0.34300
F 	F 	0.79224 0.24636 0.69991 -0.34900
F 	F 	0.71448 0.31227 0.77869 -0.37200
C 	C 	0.99340 0.13767 0.39130 -0.09100
C 	C 	0.01902 0.13516 0.37069 0.00000
C 	C 	0.04478 0.11985 0.38031 -0.01700
C 	C 	0.04552 0.10925 0.41125 -0.09000
C 	C 	0.02356 0.11950 0.43385 -0.00900
C 	C 	0.99690 0.13292 0.42373 -0.02300
C 	C 	0.01973 0.14993 0.34083 0.11500
C 	C 	0.02926 0.11824 0.46722 0.10600
C 	C 	0.97357 0.14250 0.44656 0.05200
C 	C 	0.07072 0.11582 0.35889 0.07300
N 	N 	0.95493 0.15013 0.46478 -0.09700
N 	N 	0.09142 0.11258 0.34178 -0.09100
N 	N 	0.03380 0.11732 0.49389 -0.08100
N 	N 	0.02037 0.16172 0.31698 -0.07800
C 	C 	0.84309 0.25381 0.33496 0.23000
C 	C 	0.82596 0.25098 0.30774 -0.00300
C 	C 	0.82811 0.22488 0.28885 0.23500
C 	C 	0.84591 0.20114 0.29803 0.30800
C 	C 	0.86216 0.20353 0.32602 -0.19200
C 	C 	0.86141 0.23042 0.34381 0.30800
C 	C 	0.80408 0.27442 0.30053 -0.01000
F 	F 	0.81232 0.22225 0.26199 -0.33800
F 	F 	0.87828 0.23379 0.36985 -0.36600
C 	C 	0.81432 0.30298 0.29342 0.24100
C 	C 	0.79404 0.32686 0.29408 0.28800
C 	C 	0.76317 0.32220 0.30118 -0.15500
C 	C 	0.75257 0.29307 0.30472 0.28600
C 	C 	0.77297 0.26936 0.30486 0.23600
F 	F 	0.84420 0.30784 0.28760 -0.34200
F 	F 	0.72258 0.28793 0.30940 -0.37800
F 	F 	0.80468 0.35471 0.28979 -0.38200
F 	F 	0.76268 0.24169 0.31090 -0.34600
F 	F 	0.84130 0.27901 0.35335 -0.34700
F 	F 	0.84654 0.17553 0.28031 -0.36700
C 	C 	0.61974 0.80229 0.34069 -0.00700
C 	C 	0.61781 0.82227 0.36684 -0.00600
C 	C 	0.59198 0.83978 0.37235 -0.03600
C 	C 	0.56787 0.83768 0.35174 0.02300
C 	C 	0.56919 0.81685 0.32643 -0.04100
C 	C 	0.59490 0.79914 0.32103 -0.01100
C 	C 	0.54228 0.85872 0.35526 0.01300
C 	C 	0.51257 0.84815 0.35841 -0.03000
C 	C 	0.48822 0.86798 0.35879 -0.03100
C 	C 	0.49339 0.89852 0.35620 0.01300
C 	C 	0.52309 0.90917 0.35424 -0.03100
C 	C 	0.54744 0.88936 0.35369 -0.03100
C 	C 	0.46783 0.91898 0.35263 0.02200
C 	C 	0.46049 0.94040 0.37637 -0.03600
C 	C 	0.43748 0.96105 0.37198 -0.00700
C 	C 	0.42184 0.96056 0.34369 -0.00800
C 	C 	0.42889 0.93879 0.32020 -0.01000
C 	C 	0.45174 0.91808 0.32468 -0.04000
H 	H 	0.63665 0.82490 0.38235 0.07800
H 	H 	0.59101 0.85552 0.39220 0.06700
H 	H 	0.55062 0.81494 0.31048 0.05400
H 	H 	0.59572 0.78338 0.30121 0.05200
H 	H 	0.50836 0.82458 0.35998 0.05700
H 	H 	0.46534 0.85958 0.36044 0.05900
H 	H 	0.52728 0.93271 0.35219 0.05700
H 	H 	0.57027 0.89775 0.35120 0.05700
H 	H 	0.47281 0.94123 0.39804 0.06600
H 	H 	0.43223 0.97775 0.39027 0.07600
H 	H 	0.41671 0.93796 0.29844 0.05600
H 	H 	0.45728 0.90163 0.30623 0.05500
C 	C 	0.61058 0.81680 0.92954 -0.00800
C 	C 	0.59726 0.83342 0.95491 -0.01100
C 	C 	0.57077 0.84955 0.95078 -0.04000
C 	C 	0.55730 0.84924 0.92128 0.02200
C 	C 	0.56995 0.83185 0.89622 -0.03600
C 	C 	0.59642 0.81564 0.90033 -0.00700
C 	C 	0.53102 0.86845 0.91623 0.01300
C 	C 	0.50382 0.86416 0.93330 -0.03100
C 	C 	0.48008 0.88444 0.93131 -0.03100
C 	C 	0.48336 0.90917 0.91223 0.01300
C 	C 	0.51008 0.91277 0.89412 -0.02900
C 	C 	0.53382 0.89249 0.89611 -0.03000
C 	C 	0.46008 0.93266 0.91359 0.02400
C 	C 	0.46668 0.96074 0.92678 -0.04000
C 	C 	0.44378 0.98188 0.93175 -0.00700
C 	C 	0.41404 0.97516 0.92358 -0.00600
C 	C 	0.40774 0.94760 0.90889 -0.00500
C 	C 	0.43067 0.92641 0.90400 -0.03700
H 	H 	0.60791 0.83461 0.97755 0.05400
H 	H 	0.56114 0.86291 0.97027 0.05400
H 	H 	0.55953 0.83125 0.87345 0.06700
H 	H 	0.60613 0.80251 0.88071 0.08000
H 	H 	0.50136 0.84554 0.94870 0.05400
H 	H 	0.45951 0.88146 0.94536 0.05400
H 	H 	0.51275 0.93169 0.87917 0.06200
H 	H 	0.55471 0.89594 0.88277 0.06300
H 	H 	0.48935 0.96582 0.93412 0.05800
H 	H 	0.44898 0.00321 0.94273 0.05700
H 	H 	0.38489 0.94216 0.90243 0.07100
H 	H 	0.42543 0.90488 0.89353 0.06500
C 	C 	0.68607 0.77345 0.99675 -0.00500
C 	C 	0.66583 0.75770 0.01605 -0.01200
C 	C 	0.67242 0.75291 0.04750 -0.03900
C 	C 	0.69936 0.76375 0.05999 0.02100
C 	C 	0.72026 0.77833 0.04034 -0.03400
C 	C 	0.71368 0.78311 0.00882 -0.00900
C 	C 	0.70449 0.76188 0.09414 0.01400
C 	C 	0.70597 0.78791 0.11308 -0.03100
C 	C 	0.70664 0.78625 0.14592 -0.03000
C 	C 	0.70581 0.75855 0.16014 0.01300
C 	C 	0.70572 0.73249 0.14114 -0.03000
C 	C 	0.70507 0.73414 0.10828 -0.03100
C 	C 	0.70205 0.75697 0.19480 0.02100
C 	C 	0.67543 0.74526 0.20814 -0.04100
C 	C 	0.67004 0.74711 0.24079 -0.01400
C 	C 	0.69121 0.76072 0.26046 -0.00800
C 	C 	0.71855 0.77109 0.24727 -0.01100
C 	C 	0.72392 0.76928 0.21455 -0.03600
H 	H 	0.64464 0.74980 0.00691 0.05600
H 	H 	0.65617 0.74156 0.06241 0.05400
H 	H 	0.74124 0.78657 0.04967 0.06800
H 	H 	0.72951 0.79527 0.99418 0.08400
H 	H 	0.70553 0.80943 0.10243 0.05600
H 	H 	0.70671 0.80651 0.16035 0.05600
H 	H 	0.70534 0.71099 0.15185 0.05500
H 	H 	0.70422 0.71391 0.09387 0.05700
H 	H 	0.65846 0.73560 0.19313 0.05300
H 	H 	0.64903 0.73871 0.25071 0.05200
H 	H 	0.73509 0.78162 0.26218 0.08300
H 	H 	0.74467 0.77815 0.20452 0.06800
C 	C 	0.83308 0.00693 0.43029 -0.07100
C 	C 	0.84490 0.02765 0.45225 0.00300
C 	C 	0.85296 0.05625 0.44235 -0.01000
C 	C 	0.84802 0.06410 0.41085 -0.06900
C 	C 	0.82835 0.04634 0.39266 0.00800
C 	C 	0.82138 0.01739 0.40214 -0.00500
C 	C 	0.84585 0.02073 0.48532 0.11300
C 	C 	0.81341 0.05853 0.36603 0.11800
C 	C 	0.80134 0.99887 0.38372 0.09800
C 	C 	0.86394 0.07807 0.46503 0.07600
N 	N 	0.78535 0.98408 0.36901 -0.08800
N 	N 	0.87270 0.09546 0.48317 -0.10000
N 	N 	0.80143 0.06820 0.34476 -0.07700
N 	N 	0.84653 0.01525 0.51176 -0.08300
C 	C 	0.95280 0.96066 0.45064 -0.06500
C 	C 	0.95887 0.98974 0.46184 -0.00300
C 	C 	0.98750 0.00243 0.45580 -0.01100
C 	C 	0.01004 0.98580 0.43896 -0.06900
C 	C 	0.00554 0.95517 0.43295 -0.00300
C 	C 	0.97699 0.94249 0.43950 -0.01600
C 	C 	0.93567 0.00662 0.47930 0.07100
C 	C 	0.02996 0.93696 0.41940 0.06000
C 	C 	0.97251 0.91091 0.43478 0.05500
C 	C 	0.99334 0.03277 0.46592 0.04200
N 	N 	0.96905 0.88564 0.43113 -0.11400
N 	N 	0.99789 0.05701 0.47411 -0.12900
N 	N 	0.04941 0.92239 0.40854 -0.12800
N 	N 	0.91727 0.02022 0.49333 -0.11000
C 	C 	0.80239 0.79904 0.45335 0.22500
C 	C 	0.77115 0.80178 0.44925 -0.00400
C 	C 	0.75514 0.82442 0.46613 0.22400
C 	C 	0.77093 0.84738 0.48118 0.30700
C 	C 	0.80257 0.84825 0.47824 -0.19600
C 	C 	0.81809 0.82220 0.46829 0.30000
C 	C 	0.75720 0.78692 0.42175 -0.01800
F 	F 	0.72460 0.82605 0.46473 -0.34700
F 	F 	0.84871 0.82122 0.46872 -0.39900
C 	C 	0.73264 0.76770 0.42617 0.23900
C 	C 	0.71426 0.76018 0.40087 0.28400
C 	C 	0.72044 0.77173 0.37094 -0.16100
C 	C 	0.74687 0.78830 0.36585 0.28300
C 	C 	0.76511 0.79595 0.39115 0.22900
F 	F 	0.72560 0.75767 0.45532 -0.34900
F 	F 	0.75358 0.79901 0.33691 -0.38600
F 	F 	0.68962 0.74285 0.40575 -0.38000
F 	F 	0.78920 0.81404 0.38639 -0.35900
F 	F 	0.81788 0.77571 0.43976 -0.38000
F 	F 	0.75552 0.87104 0.49417 -0.37300
C 	C 	0.96180 0.93494 0.74968 -0.04700
C 	C 	0.97383 0.95398 0.72675 -0.00100
C 	C 	0.00217 0.96784 0.73162 0.00700
C 	C 	0.01916 0.96008 0.75770 -0.04800
C 	C 	0.01212 0.93287 0.77162 0.00500
C 	C 	0.98223 0.92161 0.76986 0.01600
C 	C 	0.95742 0.95911 0.69859 0.07000
C 	C 	0.03564 0.91578 0.78544 0.11700
C 	C 	0.97307 0.89611 0.78762 0.12300
C 	C 	0.01307 0.99053 0.71083 0.08300
N 	N 	0.96573 0.87568 0.80180 -0.06300
N 	N 	0.02172 0.00865 0.69411 -0.10500
N 	N 	0.05444 0.90192 0.79634 -0.07600
N 	N 	0.94446 0.96306 0.67588 -0.10600
C 	C 	0.84858 0.98508 0.69370 -0.07500
C 	C 	0.82310 0.00025 0.70660 0.00000
C 	C 	0.82661 0.02940 0.71908 -0.01300
C 	C 	0.85525 0.04322 0.71611 -0.09500
C 	C 	0.87608 0.03146 0.69283 -0.02700
C 	C 	0.87162 0.00233 0.68050 -0.01900
C 	C 	0.79488 0.98456 0.71095 0.11000
C 	C 	0.89905 0.05019 0.67888 0.02300
C 	C 	0.88713 0.99194 0.65178 0.10700
C 	C 	0.80068 0.04569 0.73216 0.11800
N 	N 	0.89936 0.98370 0.62862 -0.08700
N 	N 	0.77991 0.05868 0.74257 -0.06600
N 	N 	0.91739 0.06513 0.66762 -0.13100
N 	N 	0.77233 0.97199 0.71444 -0.07000
C 	C 	0.79136 0.80745 0.79477 0.24000
C 	C 	0.76125 0.81540 0.80213 -0.00400
C 	C 	0.74699 0.83669 0.78420 0.23000
C 	C 	0.76372 0.85237 0.76171 0.30500
C 	C 	0.79504 0.84760 0.75779 -0.18500
C 	C 	0.80815 0.82325 0.77243 0.30500
C 	C 	0.74604 0.80456 0.83103 -0.00800
F 	F 	0.71740 0.84347 0.78995 -0.34700
F 	F 	0.83756 0.81600 0.76644 -0.33300
C 	C 	0.75408 0.81619 0.86072 0.23800
C 	C 	0.73670 0.80964 0.88773 0.29100
C 	C 	0.71101 0.79162 0.88522 -0.15800
C 	C 	0.70418 0.77842 0.85584 0.28900
C 	C 	0.72166 0.78484 0.82886 0.24100
F 	F 	0.77786 0.83500 0.86315 -0.34100
F 	F 	0.67996 0.76019 0.85330 -0.37800
F 	F 	0.74374 0.82231 0.91601 -0.37700
F 	F 	0.71428 0.77274 0.80043 -0.34500
F 	F 	0.80481 0.78550 0.81050 -0.32800
F 	F 	0.74993 0.87366 0.74531 -0.36500
C 	C 	0.83771 0.65343 0.30729 -0.00400
C 	C 	0.84145 0.62818 0.32537 -0.00700
C 	C 	0.82525 0.60235 0.31863 -0.03800
C 	C 	0.80511 0.60143 0.29376 0.02300
C 	C 	0.80158 0.62646 0.27538 -0.03700
C 	C 	0.81782 0.65239 0.28211 -0.00300
C 	C 	0.78756 0.57428 0.28733 0.01300
C 	C 	0.79377 0.55689 0.25986 -0.03000
C 	C 	0.78097 0.52868 0.25634 -0.03000
C 	C 	0.76201 0.51760 0.28036 0.01300
C 	C 	0.75438 0.53578 0.30692 -0.03100
C 	C 	0.76702 0.56402 0.31032 -0.03300
C 	C 	0.75311 0.48601 0.27961 0.02000
C 	C 	0.77542 0.46380 0.27865 -0.03200
C 	C 	0.76760 0.43442 0.28446 -0.01200
C 	C 	0.73742 0.42699 0.29153 -0.00300
C 	C 	0.71484 0.44879 0.29008 -0.01400
C 	C 	0.72265 0.47816 0.28402 -0.03800
H 	H 	0.85708 0.62850 0.34452 0.05600
H 	H 	0.82834 0.58302 0.33272 0.05800
H 	H 	0.78609 0.62593 0.25612 0.06000
H 	H 	0.81466 0.67172 0.26803 0.07000
H 	H 	0.80942 0.56474 0.24186 0.06200
H 	H 	0.78667 0.51501 0.23553 0.06000
H 	H 	0.73971 0.52753 0.32556 0.05200
H 	H 	0.76181 0.57745 0.33143 0.05500
H 	H 	0.79899 0.46955 0.27505 0.06500
H 	H 	0.78524 0.41779 0.28526 0.09300
H 	H 	0.69138 0.44321 0.29481 0.05700
H 	H 	0.70517 0.49502 0.28414 0.05600
C 	C 	0.83219 0.63985 0.71887 -0.00200
C 	C 	0.83718 0.62284 0.74544 -0.00800
C 	C 	0.82255 0.59564 0.74892 -0.03200
C 	C 	0.80286 0.58515 0.72589 0.02200
C 	C 	0.79722 0.60243 0.69978 -0.03700
C 	C 	0.81176 0.62968 0.69629 -0.01000
C 	C 	0.78967 0.55528 0.72806 0.01400
C 	C 	0.79900 0.53264 0.70647 -0.03100
C 	C 	0.78658 0.50429 0.70844 -0.03100
C 	C 	0.76471 0.49831 0.73203 0.01300
C 	C 	0.75543 0.52092 0.75371 -0.02900
C 	C 	0.76792 0.54931 0.75178 -0.03000
C 	C 	0.75094 0.46863 0.73329 0.02300
C 	C 	0.76883 0.44386 0.73933 -0.03700
C 	C 	0.75728 0.41523 0.73510 -0.00500
C 	C 	0.72772 0.41114 0.72471 -0.00700
C 	C 	0.70916 0.43601 0.72088 -0.00900
C 	C 	0.72075 0.46463 0.72511 -0.04000
H 	H 	0.85294 0.63032 0.76299 0.09200
H 	H 	0.82705 0.58241 0.76914 0.06800
H 	H 	0.78187 0.59457 0.68199 0.05800
H 	H 	0.80728 0.64276 0.67597 0.06000
H 	H 	0.81587 0.53704 0.68817 0.05600
H 	H 	0.79376 0.48700 0.69150 0.05600
H 	H 	0.73853 0.51651 0.77197 0.06000
H 	H 	0.76062 0.56667 0.76857 0.06300
H 	H 	0.79206 0.44677 0.74608 0.06600
H 	H 	0.77180 0.39628 0.73838 0.07300
H 	H 	0.68611 0.43317 0.71351 0.05700
H 	H 	0.70666 0.48365 0.72075 0.05800
C 	C 	0.88251 0.70929 0.64774 -0.00400
C 	C 	0.89133 0.68750 0.62489 -0.01000
C 	C 	0.89602 0.69501 0.59341 -0.03800
C 	C 	0.89197 0.72440 0.58438 0.02400
C 	C 	0.88410 0.74642 0.60735 -0.03300
C 	C 	0.87948 0.73891 0.63894 -0.00700
C 	C 	0.89432 0.73164 0.55064 0.01400
C 	C 	0.92137 0.72612 0.53328 -0.02700
C 	C 	0.92205 0.72742 0.50036 -0.03200
C 	C 	0.89569 0.73426 0.48451 0.02400
C 	C 	0.86923 0.74192 0.50202 -0.02600
C 	C 	0.86853 0.74058 0.53496 -0.02200
C 	C 	0.89458 0.72909 0.45000 0.03000
C 	C 	0.89772 0.70017 0.43711 -0.03800
C 	C 	0.89389 0.69462 0.40491 -0.00600
C 	C 	0.88683 0.71792 0.38520 -0.00400
C 	C 	0.88485 0.74708 0.39784 0.00900
C 	C 	0.88865 0.75263 0.43017 -0.02300
H 	H 	0.89406 0.66464 0.63143 0.05700
H 	H 	0.90212 0.67785 0.57589 0.05700
H 	H 	0.88107 0.76921 0.60066 0.07000
H 	H 	0.87266 0.75594 0.65633 0.08700
H 	H 	0.94153 0.71965 0.54519 0.05900
H 	H 	0.94270 0.72185 0.48710 0.06000
H 	H 	0.84881 0.74747 0.49005 0.09400
H 	H 	0.84759 0.74512 0.54812 0.06600
H 	H 	0.90239 0.68187 0.45219 0.05700
H 	H 	0.89585 0.67209 0.39536 0.05500
H 	H 	0.87947 0.76527 0.38288 0.09700
H 	H 	0.88643 0.77508 0.43985 0.10800
C 	C 	0.95216 0.00016 0.87647 -0.09400
C 	C 	0.96024 0.99578 0.84455 -0.03600
C 	C 	0.95031 0.01608 0.82229 -0.07300
C 	C 	0.93757 0.04358 0.83237 -0.10700
C 	C 	0.93451 0.05048 0.86496 -0.01200
C 	C 	0.94192 0.02894 0.88713 -0.02400
C 	C 	0.98420 0.97514 0.83654 0.00600
C 	C 	0.92485 0.07993 0.87580 0.09300
C 	C 	0.93975 0.03685 0.92055 0.06800
C 	C 	0.95252 0.00899 0.78902 0.01600
N 	N 	0.93798 0.04327 0.94718 -0.13700
N 	N 	0.95351 0.00511 0.76200 -0.19700
N 	N 	0.91714 0.10343 0.88445 -0.08800
N 	N 	0.00380 0.95850 0.83220 -0.11700
C 	C 	0.87191 0.94995 0.91722 -0.10700
C 	C 	0.84215 0.94098 0.91057 0.02500
C 	C 	0.83442 0.93710 0.87823 0.01500
C 	C 	0.85634 0.94433 0.85441 -0.06000
C 	C 	0.88353 0.95723 0.86361 -0.01700
C 	C 	0.88436 0.96864 0.89479 -0.00500
C 	C 	0.82224 0.93099 0.93565 0.10500
C 	C 	0.91057 0.94473 0.84900 0.08100
C 	C 	0.87846 0.99986 0.89973 0.05200
C 	C 	0.80552 0.92483 0.86978 0.12500
N 	N 	0.87300 0.02484 0.90372 -0.10500
N 	N 	0.78242 0.91498 0.86300 -0.06200
N 	N 	0.93145 0.93326 0.83690 -0.08700
N 	N 	0.80628 0.92298 0.95575 -0.08000
C 	C 	0.01850 0.94682 0.92767 -0.07500
C 	C 	0.03123 0.93522 0.89832 0.01600
C 	C 	0.05564 0.94930 0.88417 0.01000
C 	C 	0.05926 0.97974 0.88944 -0.08800
C 	C 	0.04520 0.99334 0.91684 -0.00100
C 	C 	0.02738 0.97572 0.93780 0.01500
C 	C 	0.01743 0.91103 0.88071 0.08300
C 	C 	0.04956 0.02462 0.92385 0.07500
C 	C 	0.01875 0.98715 0.96906 0.07600
C 	C 	0.07756 0.93205 0.86523 0.12100
N 	N 	0.01182 0.99631 0.99404 -0.11800
N 	N 	0.09519 0.91824 0.85031 -0.06500
N 	N 	0.05304 0.04965 0.92944 -0.09400
N 	N 	0.00693 0.89179 0.86612 -0.08000
C 	C 	0.89354 0.78965 0.86504 0.23400
C 	C 	0.91467 0.77388 0.84561 0.00400
C 	C 	0.94560 0.77660 0.85132 0.23100
C 	C 	0.95544 0.79712 0.87417 0.31400
C 	C 	0.93447 0.81532 0.89117 -0.19600
C 	C 	0.90342 0.81021 0.88790 0.31600
C 	C 	0.90471 0.75710 0.81735 -0.00800
F 	F 	0.96619 0.76068 0.83340 -0.34000
F 	F 	0.88285 0.82703 0.90486 -0.36300
C 	C 	0.89637 0.77228 0.79054 0.25200
C 	C 	0.88739 0.75646 0.76351 0.29900
C 	C 	0.88703 0.72524 0.76292 -0.15200
C 	C 	0.89618 0.71009 0.78957 0.29100
C 	C 	0.90469 0.72598 0.81672 0.24600
F 	F 	0.89723 0.80239 0.79062 -0.33400
F 	F 	0.89726 0.67997 0.78898 -0.37800
F 	F 	0.87863 0.77146 0.73808 -0.35800
F 	F 	0.91310 0.71112 0.84238 -0.34000
F 	F 	0.86350 0.78626 0.86058 -0.31800
F 	F 	0.98551 0.80106 0.87799 -0.36700
C 	C 	0.97161 0.98462 0.29362 -0.06400
C 	C 	0.98869 0.01093 0.29538 -0.01200
C 	C 	0.97622 0.03668 0.31050 -0.01800
C 	C 	0.94645 0.03622 0.32332 -0.07300
C 	C 	0.92817 0.01107 0.31784 -0.00400
C 	C 	0.94070 0.98541 0.30259 -0.02100
C 	C 	0.01884 0.01167 0.28113 0.05500
C 	C 	0.89655 0.01161 0.32784 0.03900
C 	C 	0.92174 0.96005 0.29581 0.03500
C 	C 	0.99415 0.06340 0.31320 0.01300
N 	N 	0.90642 0.93994 0.29033 -0.12500
N 	N 	0.00860 0.08467 0.31521 -0.13500
N 	N 	0.87131 0.01198 0.33579 -0.13400
N 	N 	0.04287 0.01241 0.26970 -0.11000
C 	C 	0.93614 0.86483 0.31271 -0.06400
C 	C 	0.94691 0.85215 0.34024 -0.01500
C 	C 	0.92858 0.85298 0.36800 -0.00100
C 	C 	0.90107 0.86881 0.36858 -0.08200
C 	C 	0.88786 0.87529 0.33977 -0.00900
C 	C 	0.90511 0.87188 0.31147 0.00900
C 	C 	0.97583 0.83699 0.33951 0.06200
C 	C 	0.85640 0.88418 0.33919 0.08600
C 	C 	0.89050 0.87307 0.28143 0.15000
C 	C 	0.93631 0.83513 0.39439 0.11200
N 	N 	0.87879 0.87399 0.25747 -0.05600
N 	N 	0.94245 0.82076 0.41541 -0.08800
N 	N 	0.83129 0.89129 0.33873 -0.08300
N 	N 	0.99893 0.82489 0.33893 -0.10100
C 	C 	0.10585 0.96963 0.33891 -0.06400
C 	C 	0.10574 0.93916 0.34606 0.00000
C 	C 	0.09554 0.91812 0.32357 -0.01100
C 	C 	0.08529 0.92768 0.29442 -0.07300
C 	C 	0.09350 0.95628 0.28460 0.00900
C 	C 	0.10367 0.97747 0.30704 -0.00600
C 	C 	0.11796 0.92926 0.37524 0.11800
C 	C 	0.09428 0.96297 0.25140 0.11600
C 	C 	0.11399 0.00627 0.29699 0.09800
C 	C 	0.09673 0.88670 0.32982 0.08600
N 	N 	0.12222 0.02926 0.28895 -0.09000
N 	N 	0.09768 0.86164 0.33481 -0.09000
N 	N 	0.09495 0.96835 0.22489 -0.08400
N 	N 	0.12772 0.92126 0.39850 -0.07100
C 	C 	0.97386 0.78046 0.19427 0.22700
C 	C 	0.94342 0.78822 0.20038 -0.00200
C 	C 	0.93295 0.81566 0.19018 0.23200
C 	C 	0.95378 0.83745 0.18128 0.30400
C 	C 	0.98491 0.83186 0.18356 -0.18700
C 	C 	0.99441 0.80213 0.18446 0.30800
C 	C 	0.92532 0.77183 0.22406 -0.01800
F 	F 	0.90303 0.82232 0.19232 -0.35000
F 	F 	0.02426 0.79534 0.18147 -0.36600
C 	C 	0.91839 0.78527 0.25376 0.23400
C 	C 	0.90375 0.76921 0.27734 0.28000
C 	C 	0.89711 0.73898 0.27208 -0.15200
C 	C 	0.90385 0.72555 0.24216 0.28200
C 	C 	0.91736 0.74210 0.21815 0.24400
F 	F 	0.92670 0.81372 0.26006 -0.37400
F 	F 	0.89824 0.69628 0.23664 -0.37600
F 	F 	0.89603 0.78309 0.30533 -0.38600
F 	F 	0.92336 0.72902 0.18936 -0.33800
F 	F 	0.98407 0.75309 0.20123 -0.33800
F 	F 	0.94379 0.86494 0.17450 -0.37300
