data_crystal

_cell_length_a 30.34819
_cell_length_b 24.76289
_cell_length_c 75.34787
_cell_angle_alpha 90.39207
_cell_angle_beta  91.50404
_cell_angle_gamma 110.50463

_symmetry_space_group_name_	'P 1'
_symmetry_space_group_name_H-M	'P 1'

loop_
_symmetry_equiv_pos_as_xyz
  x,y,z

loop_
_atom_site_label
_atom_site_type_symbol
_atom_site_fract_x
_atom_site_fract_y
_atom_site_fract_z
_atom_site_charge
Ni	Ni	0.70277 0.31730 0.89064 1.10000
O 	O 	0.64614 0.27514 0.87422 -0.70300
Ni	Ni	0.59411 0.28624 0.88762 1.10200
O 	O 	0.74747 0.29901 0.87359 -0.36700
O 	O 	0.70380 0.20253 0.87333 -0.41100
O 	O 	0.70615 0.38733 0.87575 -0.39500
Ni	Ni	0.63270 0.19304 0.87120 1.06500
O 	O 	0.71792 0.38054 0.93024 -0.41900
O 	O 	0.62682 0.17736 0.89779 -0.41900
O 	O 	0.54280 0.25183 0.86872 -0.38000
O 	O 	0.64905 0.31600 0.90567 -0.70400
O 	O 	0.75960 0.36628 0.90635 -0.37800
O 	O 	0.55062 0.31816 0.90130 -0.37600
O 	O 	0.60794 0.40712 0.90355 -0.42200
Ni	Ni	0.66451 0.39296 0.91618 1.07000
H 	H 	0.64836 0.29342 0.86247 0.15400
H 	H 	0.64608 0.28809 0.91530 0.15600
C 	C 	0.58932 0.17672 0.90617 0.30800
O 	O 	0.71215 0.44703 0.89960 -0.40200
C 	C 	0.73746 0.24683 0.86667 0.27200
C 	C 	0.53888 0.20258 0.86068 0.27700
C 	C 	0.71255 0.43870 0.88238 0.30500
C 	C 	0.56463 0.37266 0.90631 0.29500
C 	C 	0.75786 0.38219 0.92313 0.29100
O 	O 	0.56625 0.21060 0.90132 -0.37200
O 	O 	0.56103 0.16913 0.86737 -0.40600
Ni	Ni	0.65475 0.32723 0.53968 1.10000
O 	O 	0.70533 0.33387 0.52145 -0.70000
Ni	Ni	0.75330 0.31348 0.53610 1.09700
O 	O 	0.62229 0.37367 0.52534 -0.37700
O 	O 	0.69210 0.44693 0.52189 -0.41400
O 	O 	0.60888 0.25467 0.52682 -0.37400
Ni	Ni	0.73569 0.40868 0.51048 1.06800
O 	O 	0.59971 0.21916 0.56082 -0.40700
O 	O 	0.79058 0.45680 0.52718 -0.39900
O 	O 	0.81006 0.33511 0.51956 -0.38200
O 	O 	0.69876 0.29749 0.55319 -0.70100
O 	O 	0.60632 0.31426 0.55889 -0.38100
O 	O 	0.78891 0.27885 0.55359 -0.37200
O 	O 	0.72576 0.19499 0.55474 -0.41200
Ni	Ni	0.66542 0.21571 0.55708 1.06500
H 	H 	0.69296 0.30448 0.51187 0.15200
H 	H 	0.70871 0.31861 0.56465 0.15600
C 	C 	0.80698 0.43826 0.54134 0.30400
O 	O 	0.65187 0.19623 0.53079 -0.41900
C 	C 	0.64619 0.42496 0.51929 0.27600
C 	C 	0.81572 0.36916 0.50562 0.29200
C 	C 	0.61937 0.20954 0.52199 0.28900
C 	C 	0.76717 0.22886 0.56102 0.27900
C 	C 	0.59130 0.26455 0.56724 0.27800
O 	O 	0.78136 0.39097 0.54914 -0.40100
O 	O 	0.77941 0.37725 0.49754 -0.42400
Ni	Ni	0.02177 0.95474 0.72111 1.09600
O 	O 	0.05200 0.89816 0.71241 -0.71200
Ni	Ni	0.08245 0.93698 0.69059 1.09800
O 	O 	0.99173 0.90355 0.74202 -0.37000
O 	O 	0.95597 0.82767 0.72319 -0.41100
O 	O 	0.08019 0.99371 0.73750 -0.36600
Ni	Ni	0.00663 0.82162 0.70591 1.06500
O 	O 	0.06393 0.08590 0.72747 -0.41100
O 	O 	0.96815 0.84380 0.68625 -0.39900
O 	O 	0.11007 0.87643 0.68371 -0.39000
O 	O 	0.04865 0.99207 0.69819 -0.69800
O 	O 	0.99267 0.01339 0.72867 -0.39200
O 	O 	0.12244 0.98972 0.67171 -0.36800
O 	O 	0.12805 0.08000 0.68072 -0.40400
Ni	Ni	0.09176 0.07046 0.70428 1.06500
H 	H 	0.07593 0.89444 0.72102 0.15500
H 	H 	0.02345 0.99298 0.68972 0.15300
C 	C 	0.98666 0.88387 0.67458 0.28700
O 	O 	0.13604 0.03780 0.71728 -0.42600
C 	C 	0.96631 0.84878 0.73946 0.27700
C 	C 	0.08174 0.82401 0.67905 0.30100
C 	C 	0.12398 0.00937 0.73214 0.26700
C 	C 	0.14813 0.04418 0.67488 0.28000
C 	C 	0.01839 0.06826 0.73043 0.28300
O 	O 	0.03155 0.90062 0.67145 -0.39100
O 	O 	0.04696 0.79323 0.68926 -0.41200
Ni	Ni	0.26013 0.67422 0.40151 1.09900
O 	O 	0.31580 0.71223 0.38554 -0.70300
Ni	Ni	0.36885 0.70516 0.40028 1.10100
O 	O 	0.21464 0.68673 0.38278 -0.37100
O 	O 	0.25751 0.78321 0.38147 -0.40800
O 	O 	0.25711 0.60045 0.38848 -0.40400
Ni	Ni	0.32875 0.79336 0.38115 1.06500
O 	O 	0.24670 0.61838 0.44151 -0.42100
O 	O 	0.33504 0.81561 0.40753 -0.41600
O 	O 	0.41935 0.73572 0.38193 -0.37600
O 	O 	0.31479 0.67912 0.41762 -0.70200
O 	O 	0.20368 0.62931 0.41675 -0.38000
O 	O 	0.41317 0.67697 0.41560 -0.37500
O 	O 	0.35621 0.58818 0.41777 -0.42000
Ni	Ni	0.30027 0.60449 0.42903 1.07000
H 	H 	0.31286 0.69097 0.37413 0.15500
H 	H 	0.31817 0.70891 0.42689 0.15600
C 	C 	0.37196 0.81693 0.41722 0.30500
O 	O 	0.25181 0.54417 0.41285 -0.40100
C 	C 	0.22399 0.73679 0.37492 0.27500
C 	C 	0.42262 0.78308 0.37316 0.27500
C 	C 	0.24420 0.54969 0.39581 0.31200
C 	C 	0.39969 0.62330 0.42089 0.29400
C 	C 	0.20613 0.61301 0.43340 0.31000
O 	O 	0.39633 0.78422 0.41307 -0.37100
O 	O 	0.40037 0.81746 0.37876 -0.40600
Ni	Ni	0.33003 0.68005 0.02669 1.10100
O 	O 	0.26798 0.65682 0.01222 -0.70200
Ni	Ni	0.22607 0.67577 0.02945 1.09800
O 	O 	0.35960 0.63380 0.01133 -0.37400
O 	O 	0.29455 0.55251 0.01302 -0.41700
O 	O 	0.36075 0.74854 0.01024 -0.37100
Ni	Ni	0.23819 0.57613 0.00463 1.06900
O 	O 	0.38619 0.80048 0.04285 -0.40900
O 	O 	0.19676 0.53156 0.02491 -0.40000
O 	O 	0.16029 0.63736 0.01743 -0.38300
O 	O 	0.29039 0.70853 0.04232 -0.70200
O 	O 	0.38960 0.70924 0.04219 -0.37800
O 	O 	0.19662 0.71099 0.04850 -0.37100
O 	O 	0.25078 0.80082 0.04432 -0.41400
Ni	Ni	0.31655 0.79240 0.04298 1.06400
H 	H 	0.27113 0.68154 0.00172 0.15500
H 	H 	0.29007 0.69317 0.05443 0.15500
C 	C 	0.19015 0.55372 0.04014 0.30800
O 	O 	0.31248 0.79881 0.01616 -0.42000
C 	C 	0.33689 0.57938 0.00704 0.27600
C 	C 	0.15045 0.60267 0.00324 0.31300
C 	C 	0.34325 0.78865 0.00602 0.29000
C 	C 	0.21640 0.76549 0.05351 0.27500
C 	C 	0.40314 0.76168 0.04929 0.27800
O 	O 	0.21646 0.60606 0.04508 -0.40500
O 	O 	0.18382 0.59503 0.99376 -0.42600
Ni	Ni	0.92255 0.00442 0.23633 1.09600
O 	O 	0.93188 0.07784 0.22233 -0.71000
Ni	Ni	0.90244 0.04408 0.19902 1.09800
O 	O 	0.95522 0.05171 0.25841 -0.37200
O 	O 	0.02016 0.10081 0.24257 -0.41100
O 	O 	0.85938 0.00987 0.24347 -0.40200
Ni	Ni	0.99717 0.12305 0.21822 1.06200
O 	O 	0.88346 0.86192 0.22645 -0.41000
O 	O 	0.01227 0.05643 0.20686 -0.41600
O 	O 	0.90801 0.11997 0.18743 -0.38500
O 	O 	0.90338 0.97213 0.21187 -0.70100
O 	O 	0.90794 0.92855 0.24968 -0.37300
O 	O 	0.85686 0.99837 0.17914 -0.37500
O 	O 	0.80602 0.94402 0.19945 -0.41700
Ni	Ni	0.84626 0.90455 0.21334 1.07000
H 	H 	0.91529 0.10200 0.22748 0.15600
H 	H 	0.92832 0.95895 0.20742 0.15400
C 	C 	0.99644 0.03693 0.19082 0.28900
O 	O 	0.81837 0.91513 0.23696 -0.39800
C 	C 	0.99599 0.09423 0.25725 0.26800
C 	C 	0.94948 0.16228 0.18715 0.27700
C 	C 	0.82006 0.96504 0.24352 0.31500
C 	C 	0.81537 0.96071 0.18294 0.27400
C 	C 	0.90665 0.88000 0.24182 0.28600
O 	O 	0.95815 0.04332 0.18413 -0.37800
O 	O 	0.98815 0.15471 0.19368 -0.40600
C 	C 	0.95582 0.20882 0.17427 -0.08300
C 	C 	0.93398 0.19605 0.15730 0.01700
C 	C 	0.95013 0.23475 0.14344 -0.07000
C 	C 	0.98789 0.28656 0.14648 0.03900
C 	C 	0.00682 0.30166 0.16373 -0.06700
C 	C 	0.99077 0.26302 0.17760 0.01000
C 	C 	0.01077 0.32071 0.13169 -0.02800
C 	C 	0.03030 0.34973 0.11946 -0.00400
C 	C 	0.05433 0.38337 0.10525 -0.00100
C 	C 	0.07560 0.41209 0.09325 -0.03200
C 	C 	0.10179 0.44680 0.07913 0.04500
C 	C 	0.12200 0.42221 0.06630 -0.07400
C 	C 	0.15008 0.45673 0.05330 0.02000
C 	C 	0.15826 0.51623 0.05310 -0.09200
C 	C 	0.13702 0.54039 0.06575 0.02000
C 	C 	0.10899 0.50582 0.07871 -0.07300
H 	H 	0.90665 0.15466 0.15455 0.03800
H 	H 	0.93478 0.22315 0.13019 0.04800
H 	H 	0.03548 0.34212 0.16626 0.04600
H 	H 	0.00732 0.27388 0.19069 0.01700
H 	H 	0.11655 0.37658 0.06654 0.04900
H 	H 	0.16622 0.43745 0.04366 0.03200
H 	H 	0.14247 0.58604 0.06560 0.03700
H 	H 	0.09336 0.52509 0.08855 0.05000
C 	C 	0.77782 0.94136 0.16906 -0.09700
C 	C 	0.77866 0.97572 0.15422 0.03200
C 	C 	0.74246 0.95764 0.14126 -0.07800
C 	C 	0.70529 0.90520 0.14304 0.04800
C 	C 	0.70459 0.87058 0.15772 -0.07700
C 	C 	0.74069 0.88852 0.17069 0.01800
C 	C 	0.66728 0.88744 0.13004 -0.03300
C 	C 	0.63517 0.87192 0.11927 -0.00100
C 	C 	0.59712 0.85337 0.10688 -0.00200
C 	C 	0.56426 0.83731 0.09645 -0.03200
C 	C 	0.52465 0.81795 0.08417 0.04500
C 	C 	0.51541 0.85709 0.07265 -0.07300
C 	C 	0.47592 0.83877 0.06115 0.01600
C 	C 	0.44533 0.78103 0.06113 -0.09100
C 	C 	0.45496 0.74184 0.07261 0.01600
C 	C 	0.49450 0.76029 0.08408 -0.07300
H 	H 	0.80694 0.01671 0.15282 0.02700
H 	H 	0.74316 0.98461 0.12993 0.05300
H 	H 	0.67595 0.82989 0.15913 0.04800
H 	H 	0.73987 0.86128 0.18196 0.01400
H 	H 	0.53869 0.90175 0.07265 0.04900
H 	H 	0.46927 0.86937 0.05224 0.03300
H 	H 	0.43153 0.69729 0.07280 0.02800
H 	H 	0.50144 0.72985 0.09299 0.04900
C 	C 	0.02430 0.01348 0.17947 -0.10600
C 	C 	0.04305 0.97298 0.18612 0.03000
C 	C 	0.06528 0.94636 0.17472 -0.08200
C 	C 	0.06905 0.96037 0.15669 0.05900
C 	C 	0.05173 0.00213 0.15020 -0.08900
C 	C 	0.02942 0.02856 0.16152 0.02800
C 	C 	0.08903 0.93055 0.14464 -0.03600
C 	C 	0.10539 0.90691 0.13399 0.00200
C 	C 	0.12402 0.88056 0.12095 -0.00300
C 	C 	0.13974 0.85926 0.10943 -0.03100
C 	C 	0.15855 0.83534 0.09530 0.04300
C 	C 	0.15272 0.77666 0.09507 -0.07300
C 	C 	0.17084 0.75353 0.08125 0.01500
C 	C 	0.19494 0.78907 0.06755 -0.09200
C 	C 	0.20022 0.84778 0.06775 0.01300
C 	C 	0.18211 0.87073 0.08157 -0.07300
H 	H 	0.03921 0.96094 0.19994 0.02200
H 	H 	0.07881 0.91426 0.17985 0.05100
H 	H 	0.05486 0.01346 0.13630 0.05200
H 	H 	0.01560 0.06029 0.15630 0.03600
H 	H 	0.13436 0.74901 0.10562 0.04900
H 	H 	0.16676 0.70828 0.08134 0.03200
H 	H 	0.21829 0.87563 0.05720 0.03100
H 	H 	0.18642 0.91607 0.08161 0.04900
C 	C 	0.78137 0.96661 0.25468 -0.09800
C 	C 	0.73457 0.93844 0.24875 0.02400
C 	C 	0.69787 0.92760 0.26060 -0.07500
C 	C 	0.70764 0.94484 0.27846 0.04900
C 	C 	0.75399 0.97632 0.28415 -0.07800
C 	C 	0.79078 0.98737 0.27229 0.03700
C 	C 	0.67084 0.92562 0.29118 -0.03200
C 	C 	0.63959 0.90914 0.30163 -0.00000
C 	C 	0.60283 0.88858 0.31376 -0.00200
C 	C 	0.57139 0.87044 0.32406 -0.03000
C 	C 	0.53379 0.84845 0.33634 0.04300
C 	C 	0.51243 0.78885 0.33856 -0.07100
C 	C 	0.47606 0.76748 0.35052 0.01400
C 	C 	0.46078 0.80565 0.36039 -0.08600
C 	C 	0.48225 0.86543 0.35807 0.01400
C 	C 	0.51858 0.88664 0.34610 -0.07100
H 	H 	0.72683 0.92277 0.23515 0.02600
H 	H 	0.66206 0.90390 0.25604 0.05000
H 	H 	0.76179 0.99035 0.29790 0.05400
H 	H 	0.82672 0.00928 0.27703 0.02600
H 	H 	0.52394 0.75905 0.33103 0.04900
H 	H 	0.45963 0.72132 0.35204 0.03100
H 	H 	0.47120 0.89551 0.36565 0.03500
H 	H 	0.53496 0.93277 0.34447 0.04900
C 	C 	0.21783 0.49833 0.38494 -0.09500
C 	C 	0.22340 0.44523 0.38815 0.02200
C 	C 	0.19967 0.39722 0.37728 -0.07500
C 	C 	0.17017 0.40203 0.36321 0.04600
C 	C 	0.16384 0.45461 0.36024 -0.07400
C 	C 	0.18751 0.50256 0.37105 0.02200
C 	C 	0.14792 0.35394 0.35132 -0.03300
C 	C 	0.12856 0.31496 0.34100 -0.00200
C 	C 	0.10582 0.27113 0.32838 -0.00400
C 	C 	0.08647 0.23517 0.31715 -0.03100
C 	C 	0.06361 0.19398 0.30327 0.04000
C 	C 	0.09056 0.18015 0.29040 -0.07100
C 	C 	0.06851 0.14629 0.27558 0.01000
C 	C 	0.01920 0.12604 0.27353 -0.08500
C 	C 	0.99221 0.13821 0.28680 0.00800
C 	C 	0.01439 0.17216 0.30160 -0.06700
H 	H 	0.24671 0.44140 0.39882 0.03000
H 	H 	0.20470 0.35663 0.37965 0.04900
H 	H 	0.14092 0.45851 0.34943 0.05000
H 	H 	0.18233 0.54303 0.36861 0.03700
H 	H 	0.12865 0.19673 0.29164 0.04700
H 	H 	0.08976 0.13632 0.26563 0.03100
H 	H 	0.95417 0.12274 0.28541 0.03300
H 	H 	0.99333 0.18272 0.31152 0.04600
C 	C 	0.92717 0.84261 0.25129 -0.09000
C 	C 	0.96796 0.83556 0.24502 0.01600
C 	C 	0.99467 0.81296 0.25611 -0.07300
C 	C 	0.98046 0.79690 0.27343 0.04500
C 	C 	0.93763 0.79938 0.27914 -0.07200
C 	C 	0.91113 0.82237 0.26812 0.02300
C 	C 	0.01254 0.78565 0.28601 -0.02900
C 	C 	0.03943 0.77624 0.29653 -0.00200
C 	C 	0.07116 0.76712 0.30913 -0.00100
C 	C 	0.09821 0.76048 0.32014 -0.03200
C 	C 	0.13030 0.75345 0.33356 0.04500
C 	C 	0.17616 0.79363 0.33523 -0.07500
C 	C 	0.20666 0.78847 0.34880 0.01500
C 	C 	0.19141 0.74304 0.36085 -0.09200
C 	C 	0.14539 0.70268 0.35907 0.02000
C 	C 	0.11501 0.70797 0.34548 -0.07300
H 	H 	0.98048 0.85076 0.23199 0.02100
H 	H 	0.02751 0.81058 0.25153 0.04900
H 	H 	0.92607 0.78625 0.29243 0.05100
H 	H 	0.87936 0.82705 0.27299 0.03500
H 	H 	0.18815 0.82900 0.32606 0.04800
H 	H 	0.24220 0.81947 0.34986 0.01100
H 	H 	0.13301 0.66751 0.36827 0.04000
H 	H 	0.07948 0.67693 0.34431 0.05100
C 	C 	0.58888 0.16828 0.50867 -0.09000
C 	C 	0.60425 0.12700 0.50057 0.01100
C 	C 	0.57368 0.08446 0.48929 -0.06900
C 	C 	0.52755 0.08292 0.48594 0.02900
C 	C 	0.51262 0.12515 0.49353 -0.06800
C 	C 	0.54309 0.16767 0.50482 0.01500
C 	C 	0.49458 0.03630 0.47480 -0.01100
C 	C 	0.47719 0.04900 0.45853 -0.03200
C 	C 	0.44755 0.00447 0.44762 -0.04700
C 	C 	0.43508 0.94703 0.45293 0.00600
C 	C 	0.45129 0.93444 0.46942 -0.04000
C 	C 	0.48092 0.97892 0.48034 -0.02500
C 	C 	0.41046 0.90096 0.44064 0.04300
C 	C 	0.39166 0.86245 0.43010 -0.10600
H 	H 	0.63967 0.12747 0.50315 0.03100
H 	H 	0.58568 0.05242 0.48328 0.04500
H 	H 	0.47712 0.12440 0.49095 0.04700
H 	H 	0.53067 0.19919 0.51092 0.04200
H 	H 	0.48736 0.09321 0.45419 0.03600
H 	H 	0.43528 0.01450 0.43486 0.03900
H 	H 	0.44188 0.89012 0.47359 0.04100
H 	H 	0.49374 0.96878 0.49298 0.03900
C 	C 	0.86242 0.39223 0.49760 -0.08800
C 	C 	0.90332 0.41252 0.50851 0.01500
C 	C 	0.94730 0.43905 0.50103 -0.06500
C 	C 	0.95080 0.44547 0.48257 0.02600
C 	C 	0.91004 0.42432 0.47163 -0.06600
C 	C 	0.86608 0.39786 0.47909 0.01300
C 	C 	0.99705 0.47508 0.47468 0.00300
C 	C 	0.02226 0.53340 0.47879 -0.04100
C 	C 	0.06518 0.56197 0.47079 -0.03200
C 	C 	0.08318 0.53245 0.45865 -0.00700
C 	C 	0.05829 0.47410 0.45467 -0.03200
C 	C 	0.01541 0.44549 0.46265 -0.04100
C 	C 	0.12682 0.56218 0.45003 0.04500
C 	C 	0.16314 0.58607 0.44259 -0.10500
H 	H 	0.90095 0.40900 0.52281 0.03500
H 	H 	0.97856 0.45499 0.50959 0.04700
H 	H 	0.91236 0.42900 0.45736 0.04600
H 	H 	0.83488 0.38208 0.47050 0.03000
H 	H 	0.00835 0.55671 0.48800 0.04000
H 	H 	0.08421 0.60706 0.47395 0.03900
H 	H 	0.07202 0.45096 0.44533 0.04000
H 	H 	0.99637 0.40045 0.45944 0.04000
C 	C 	0.62140 0.45761 0.50945 -0.09300
C 	C 	0.64479 0.49720 0.49653 0.01100
C 	C 	0.61988 0.52305 0.48576 -0.06800
C 	C 	0.57142 0.50966 0.48783 0.02600
C 	C 	0.54838 0.47178 0.50115 -0.06700
C 	C 	0.57324 0.44597 0.51194 0.01700
C 	C 	0.54439 0.53325 0.47557 0.00200
C 	C 	0.52082 0.56855 0.48211 -0.04100
C 	C 	0.49263 0.58776 0.47068 -0.03300
C 	C 	0.48787 0.57188 0.45265 -0.01000
C 	C 	0.51202 0.53748 0.44602 -0.03200
C 	C 	0.54021 0.51820 0.45745 -0.04100
C 	C 	0.45719 0.58962 0.44108 0.04500
C 	C 	0.43110 0.60472 0.43167 -0.11800
H 	H 	0.68192 0.50664 0.49446 0.01100
H 	H 	0.63803 0.55270 0.47561 0.04500
H 	H 	0.51101 0.46143 0.50290 0.04600
H 	H 	0.55489 0.41623 0.52203 0.03800
H 	H 	0.52397 0.58056 0.49607 0.04000
H 	H 	0.47413 0.61449 0.47587 0.03500
H 	H 	0.50854 0.52514 0.43208 0.03900
H 	H 	0.55814 0.49080 0.45229 0.03800
C 	C 	0.95586 0.90348 0.66296 -0.09700
C 	C 	0.92158 0.92206 0.67039 0.01400
C 	C 	0.89985 0.95312 0.66016 -0.07900
C 	C 	0.91202 0.96529 0.64244 0.05500
C 	C 	0.94368 0.94319 0.63465 -0.07800
C 	C 	0.96552 0.91233 0.64486 0.02500
C 	C 	0.89514 0.00425 0.63269 -0.04500
C 	C 	0.88127 0.03682 0.62438 0.00100
C 	C 	0.86532 0.07510 0.61462 -0.00600
C 	C 	0.85124 0.10740 0.60626 -0.03200
C 	C 	0.83324 0.14486 0.59627 0.04500
C 	C 	0.78922 0.14764 0.60015 -0.07600
C 	C 	0.76880 0.17804 0.58913 0.01800
C 	C 	0.79233 0.20603 0.57416 -0.09600
C 	C 	0.83757 0.20585 0.57082 0.02300
C 	C 	0.85790 0.17511 0.58183 -0.07500
H 	H 	0.91371 0.91529 0.68432 0.02000
H 	H 	0.87493 0.96950 0.66620 0.05000
H 	H 	0.95267 0.95167 0.62087 0.05400
H 	H 	0.99129 0.89723 0.63889 0.03600
H 	H 	0.77017 0.12480 0.61139 0.04600
H 	H 	0.73406 0.17843 0.59192 0.00000
H 	H 	0.85609 0.22740 0.55932 0.03400
H 	H 	0.89214 0.17346 0.57883 0.05000
C 	C 	0.19337 0.06880 0.66581 -0.08600
C 	C 	0.20259 0.04091 0.65078 0.01700
C 	C 	0.24489 0.06515 0.64199 -0.07200
C 	C 	0.27838 0.11730 0.64813 0.04400
C 	C 	0.26960 0.14495 0.66322 -0.07200
C 	C 	0.22730 0.12080 0.67205 0.01500
C 	C 	0.32166 0.14250 0.63886 -0.03100
C 	C 	0.35760 0.16276 0.63089 -0.00300
C 	C 	0.39943 0.18546 0.62133 -0.00200
C 	C 	0.43491 0.20380 0.61299 -0.03200
C 	C 	0.47705 0.22430 0.60282 0.04500
C 	C 	0.48165 0.26570 0.58972 -0.07300
C 	C 	0.52018 0.28104 0.57858 0.02000
C 	C 	0.55427 0.25480 0.58043 -0.08900
C 	C 	0.55044 0.21502 0.59403 0.01500
C 	C 	0.51198 0.19984 0.60516 -0.07400
H 	H 	0.17681 0.00091 0.64574 0.03800
H 	H 	0.25148 0.04349 0.63035 0.04900
H 	H 	0.29545 0.18516 0.66809 0.04800
H 	H 	0.22096 0.14244 0.68373 0.02300
H 	H 	0.45486 0.28495 0.58787 0.05000
H 	H 	0.52259 0.31173 0.56814 0.03900
H 	H 	0.57675 0.19496 0.59572 0.01100
H 	H 	0.50881 0.16807 0.61533 0.04700
C 	C 	0.84944 0.47764 0.55081 -0.09200
C 	C 	0.87515 0.45558 0.56267 0.01800
C 	C 	0.91324 0.49310 0.57263 -0.07200
C 	C 	0.92613 0.55285 0.57074 0.04600
C 	C 	0.90206 0.57490 0.55829 -0.07400
C 	C 	0.86388 0.53752 0.54835 0.02000
C 	C 	0.96016 0.59137 0.58297 -0.03200
C 	C 	0.98867 0.62350 0.59322 0.00200
C 	C 	0.01995 0.66093 0.60586 -0.00500
C 	C 	0.04451 0.69269 0.61721 -0.02900
C 	C 	0.07078 0.73006 0.63148 0.04400
C 	C 	0.07848 0.70596 0.64752 -0.07200
C 	C 	0.08842 0.73927 0.66316 0.02100
C 	C 	0.09065 0.79684 0.66282 -0.08800
C 	C 	0.08959 0.82289 0.64640 0.01900
C 	C 	0.07928 0.78941 0.63077 -0.07000
H 	H 	0.86526 0.40946 0.56434 0.03700
H 	H 	0.93192 0.47573 0.58216 0.05000
H 	H 	0.91195 0.62107 0.55672 0.05100
H 	H 	0.84478 0.55525 0.53913 0.03500
H 	H 	0.07315 0.66040 0.64812 0.04800
H 	H 	0.09071 0.71915 0.67571 0.02800
H 	H 	0.09246 0.86772 0.64592 0.04000
H 	H 	0.07444 0.80873 0.61835 0.05100
C 	C 	0.80208 0.40585 0.93380 -0.08700
C 	C 	0.80162 0.40215 0.95240 0.01200
C 	C 	0.84314 0.42756 0.96255 -0.06600
C 	C 	0.88547 0.45681 0.95419 0.02500
C 	C 	0.88611 0.45982 0.93561 -0.06500
C 	C 	0.84465 0.43454 0.92546 0.01500
C 	C 	0.92920 0.48411 0.96486 0.00300
C 	C 	0.95291 0.54394 0.96422 -0.04200
C 	C 	0.99638 0.56922 0.97316 -0.02900
C 	C 	0.01631 0.53491 0.98282 -0.01100
C 	C 	0.99198 0.47543 0.98394 -0.03000
C 	C 	0.94854 0.45008 0.97499 -0.04200
C 	C 	0.06321 0.55985 0.99039 0.04800
C 	C 	0.10287 0.57996 0.99642 -0.10900
H 	H 	0.76914 0.37972 0.95901 0.03000
H 	H 	0.84237 0.42485 0.97689 0.04500
H 	H 	0.91873 0.48195 0.92905 0.04700
H 	H 	0.84549 0.43817 0.91115 0.04100
H 	H 	0.93805 0.57063 0.95656 0.04100
H 	H 	0.01496 0.61525 0.97227 0.03900
H 	H 	0.00719 0.44866 0.99140 0.03700
H 	H 	0.93047 0.40389 0.97558 0.04000
C 	C 	0.36551 0.82966 0.99195 -0.08800
C 	C 	0.38982 0.81330 0.97852 0.01500
C 	C 	0.41841 0.85465 0.96722 -0.06400
C 	C 	0.42260 0.91266 0.96911 0.02300
C 	C 	0.39617 0.92851 0.98180 -0.06400
C 	C 	0.36773 0.88725 0.99317 0.01400
C 	C 	0.45578 0.95704 0.95818 0.01500
C 	C 	0.49302 0.00222 0.96632 -0.05500
C 	C 	0.52364 0.04517 0.95599 -0.02500
C 	C 	0.51739 0.04306 0.93748 -0.02100
C 	C 	0.48090 0.99729 0.92931 -0.01700
C 	C 	0.45016 0.95446 0.93961 -0.04800
C 	C 	0.54544 0.09038 0.92697 0.04900
C 	C 	0.56692 0.12995 0.91775 -0.11200
H 	H 	0.38770 0.76886 0.97718 0.03300
H 	H 	0.43821 0.84185 0.95730 0.04600
H 	H 	0.39847 0.97302 0.98312 0.04600
H 	H 	0.34894 0.90055 0.00335 0.02800
H 	H 	0.49799 0.00426 0.98064 0.04000
H 	H 	0.55169 0.08051 0.96241 0.03400
H 	H 	0.47574 0.99552 0.91500 0.03900
H 	H 	0.42160 0.91975 0.93320 0.04200
C 	C 	0.35796 0.54984 0.99458 -0.09500
C 	C 	0.38863 0.58174 0.98171 0.01100
C 	C 	0.40980 0.55453 0.97017 -0.06700
C 	C 	0.40053 0.49511 0.97132 0.02500
C 	C 	0.36939 0.46289 0.98400 -0.06700
C 	C 	0.34808 0.49013 0.99557 0.01000
C 	C 	0.42501 0.46729 0.95972 0.00200
C 	C 	0.45792 0.44501 0.96706 -0.04100
C 	C 	0.48522 0.42484 0.95597 -0.03300
C 	C 	0.47979 0.42680 0.93748 -0.01000
C 	C 	0.44605 0.44755 0.93012 -0.03100
C 	C 	0.41869 0.46769 0.94119 -0.04100
C 	C 	0.50942 0.40838 0.92611 0.04400
C 	C 	0.53455 0.39256 0.91687 -0.12000
H 	H 	0.39604 0.62767 0.98063 0.03400
H 	H 	0.43386 0.57975 0.96045 0.04600
H 	H 	0.36199 0.41694 0.98496 0.04400
H 	H 	0.32453 0.46502 0.00544 0.03100
H 	H 	0.46319 0.44470 0.98133 0.03900
H 	H 	0.51104 0.40850 0.96175 0.03300
H 	H 	0.44143 0.44879 0.91583 0.03900
H 	H 	0.39325 0.48463 0.93540 0.03800
C 	C 	0.76934 0.23660 0.85361 -0.09100
C 	C 	0.77318 0.18187 0.85181 0.01100
C 	C 	0.80225 0.17204 0.83903 -0.07300
C 	C 	0.82767 0.21669 0.82794 0.04300
C 	C 	0.82434 0.27143 0.82981 -0.07200
C 	C 	0.79530 0.28140 0.84257 0.01400
C 	C 	0.85611 0.20582 0.81432 -0.03200
C 	C 	0.87978 0.19610 0.80297 -0.00300
C 	C 	0.90678 0.18358 0.78963 -0.00200
C 	C 	0.92911 0.17158 0.77822 -0.03200
C 	C 	0.95471 0.15527 0.76459 0.04700
C 	C 	0.00168 0.16018 0.76781 -0.07500
C 	C 	0.02410 0.13564 0.75584 0.01700
C 	C 	0.99948 0.10566 0.74065 -0.08800
C 	C 	0.95349 0.10412 0.73692 0.01600
C 	C 	0.93121 0.12884 0.74885 -0.07300
H 	H 	0.75377 0.14700 0.86030 0.03000
H 	H 	0.80475 0.12962 0.83767 0.04700
H 	H 	0.84386 0.30613 0.82127 0.04900
H 	H 	0.79246 0.32369 0.84370 0.03600
H 	H 	0.02022 0.18098 0.77989 0.04900
H 	H 	0.05964 0.13724 0.75887 0.03600
H 	H 	0.93432 0.08166 0.72514 0.02300
H 	H 	0.89506 0.12542 0.74618 0.04800
C 	C 	0.49979 0.17718 0.84765 -0.08800
C 	C 	0.50152 0.13497 0.83540 0.01500
C 	C 	0.46362 0.10917 0.82352 -0.07400
C 	C 	0.42385 0.12545 0.82378 0.04500
C 	C 	0.42218 0.16787 0.83585 -0.07300
C 	C 	0.45994 0.19369 0.84774 0.02000
C 	C 	0.38486 0.09921 0.81156 -0.03200
C 	C 	0.35155 0.07821 0.80154 -0.00200
C 	C 	0.31211 0.05547 0.78990 -0.00300
C 	C 	0.27814 0.03789 0.78001 -0.03200
C 	C 	0.23742 0.01942 0.76822 0.04300
C 	C 	0.24292 0.01536 0.74992 -0.07200
C 	C 	0.20498 0.00855 0.73812 0.01200
C 	C 	0.16133 0.00622 0.74457 -0.09000
C 	C 	0.15512 0.00624 0.76299 0.01400
C 	C 	0.19310 0.01295 0.77475 -0.07200
H 	H 	0.53217 0.12218 0.83508 0.01300
H 	H 	0.46520 0.07659 0.81414 0.04600
H 	H 	0.39153 0.18072 0.83608 0.05000
H 	H 	0.45788 0.22584 0.85718 0.04100
H 	H 	0.27700 0.01968 0.74479 0.04800
H 	H 	0.20992 0.00696 0.72396 0.02500
H 	H 	0.12152 0.00367 0.76819 0.03900
H 	H 	0.18853 0.01553 0.78891 0.04900
C 	C 	0.72987 0.48879 0.87072 -0.09300
C 	C 	0.76830 0.53764 0.87622 0.02300
C 	C 	0.78984 0.58074 0.86408 -0.07400
C 	C 	0.77298 0.57540 0.84642 0.04700
C 	C 	0.73304 0.52834 0.84117 -0.07400
C 	C 	0.71156 0.48518 0.85326 0.02200
C 	C 	0.79912 0.61501 0.83331 -0.03100
C 	C 	0.82040 0.64759 0.82210 -0.00100
C 	C 	0.84539 0.68411 0.80864 -0.00200
C 	C 	0.86673 0.71398 0.79689 -0.03100
C 	C 	0.89216 0.74816 0.78256 0.04500
C 	C 	0.90879 0.80849 0.78385 -0.07200
C 	C 	0.93329 0.84153 0.76986 0.01900
C 	C 	0.94126 0.81431 0.75445 -0.09000
C 	C 	0.92475 0.75378 0.75329 0.01500
C 	C 	0.90027 0.72093 0.76728 -0.07300
H 	H 	0.78277 0.54100 0.88965 0.03400
H 	H 	0.82054 0.61722 0.86826 0.05100
H 	H 	0.71955 0.52420 0.82758 0.04900
H 	H 	0.68155 0.44809 0.84892 0.02400
H 	H 	0.90265 0.82983 0.79564 0.05200
H 	H 	0.94557 0.88813 0.77095 0.04200
H 	H 	0.93103 0.73216 0.74159 0.01400
H 	H 	0.88763 0.67428 0.76622 0.04800
