data_crystal

_cell_length_a 19.23412
_cell_length_b 19.36850
_cell_length_c 87.70720
_cell_angle_alpha 90.00035
_cell_angle_beta  90.00044
_cell_angle_gamma 119.89565

_symmetry_space_group_name_	'P 1'
_symmetry_space_group_name_H-M	'P 1'

loop_
_symmetry_equiv_pos_as_xyz
  x,y,z

loop_
_atom_site_label
_atom_site_type_symbol
_atom_site_fract_x
_atom_site_fract_y
_atom_site_fract_z
_atom_site_charge
Cu	Cu	0.81865 0.06512 0.63178 0.93100
Cu	Cu	0.79074 0.13847 0.60038 0.88500
Cu	Cu	0.86350 0.24073 0.62913 0.89900
Cu	Cu	0.90929 0.18611 0.65833 0.89900
C 	C 	0.91935 0.04049 0.65241 0.29000
O 	O 	0.73956 0.03211 0.64919 -0.35200
C 	C 	0.78577 0.27856 0.60391 0.27900
O 	O 	0.91199 0.18101 0.63682 -0.63500
O 	O 	0.77882 0.13141 0.62239 -0.63600
O 	O 	0.80828 0.99911 0.61371 -0.36800
O 	O 	0.86759 0.10542 0.59797 -0.42800
O 	O 	0.90802 0.08409 0.66258 -0.37700
O 	O 	0.94661 0.34326 0.63696 -0.37200
C 	C 	0.97212 0.35735 0.65125 0.28200
C 	C 	0.72668 0.08379 0.65655 0.27400
O 	O 	0.78437 0.15843 0.65780 -0.37500
O 	O 	0.97955 0.30369 0.65930 -0.38000
O 	O 	0.87669 0.01739 0.63979 -0.35500
C 	C 	0.84760 0.03188 0.60114 0.30000
O 	O 	0.82507 0.30186 0.61702 -0.36500
O 	O 	0.74238 0.20267 0.60061 -0.39700
H 	H 	0.96549 0.19725 0.63248 0.16600
H 	H 	0.72422 0.11766 0.62572 0.17900
Cu	Cu	0.10242 0.78487 0.69530 0.93000
Cu	Cu	0.17473 0.77732 0.72855 0.87300
Cu	Cu	0.27722 0.82896 0.69988 0.89900
Cu	Cu	0.22963 0.85986 0.66898 0.89800
C 	C 	0.08426 0.87688 0.67170 0.28500
O 	O 	0.06855 0.69745 0.67971 -0.35900
C 	C 	0.31520 0.76680 0.72732 0.27800
O 	O 	0.22033 0.87421 0.69004 -0.64100
O 	O 	0.16661 0.74920 0.70701 -0.63800
O 	O 	0.03339 0.78395 0.71213 -0.36900
O 	O 	0.13853 0.85217 0.72801 -0.42900
O 	O 	0.13061 0.86230 0.66269 -0.36900
O 	O 	0.38134 0.91249 0.69310 -0.36800
C 	C 	0.40289 0.93210 0.67873 0.28600
C 	C 	0.11985 0.68022 0.67339 0.28000
O 	O 	0.19598 0.73506 0.67232 -0.37800
O 	O 	0.34993 0.92061 0.66792 -0.37800
O 	O 	0.05717 0.83857 0.68470 -0.35600
C 	C 	0.06423 0.82874 0.72421 0.29200
O 	O 	0.33510 0.79219 0.71313 -0.36100
O 	O 	0.23991 0.73052 0.73173 -0.41100
H 	H 	0.23735 0.92956 0.69314 0.17300
H 	H 	0.15268 0.69330 0.70519 0.17300
Cu	Cu	0.35903 0.10121 0.86330 0.93000
Cu	Cu	0.44349 0.17295 0.89616 0.87400
Cu	Cu	0.48547 0.27637 0.86776 0.89800
Cu	Cu	0.39979 0.22686 0.83713 0.89700
C 	C 	0.24115 0.07997 0.84101 0.28600
O 	O 	0.41260 0.07060 0.84701 -0.36000
C 	C 	0.59267 0.31417 0.89448 0.28100
O 	O 	0.38170 0.21715 0.85841 -0.63900
O 	O 	0.46020 0.16719 0.87441 -0.63900
O 	O 	0.29623 0.03164 0.88041 -0.37100
O 	O 	0.33138 0.13451 0.89665 -0.42800
O 	O 	0.29892 0.12672 0.83150 -0.37300
O 	O 	0.50197 0.37862 0.86084 -0.37100
C 	C 	0.50214 0.39843 0.84640 0.28500
C 	C 	0.47829 0.12321 0.84007 0.27800
O 	O 	0.49577 0.19797 0.83917 -0.37800
O 	O 	0.45351 0.34588 0.83623 -0.37800
O 	O 	0.25735 0.05300 0.85352 -0.35900
C 	C 	0.28119 0.06103 0.89258 0.29100
O 	O 	0.58035 0.33677 0.88097 -0.36200
O 	O 	0.55594 0.23874 0.89846 -0.40600
H 	H 	0.34198 0.23174 0.86205 0.17100
H 	H 	0.50350 0.15533 0.87203 0.17900
Cu	Cu	0.79286 0.81755 0.80013 0.93000
Cu	Cu	0.69882 0.79614 0.76791 0.87800
Cu	Cu	0.66138 0.86126 0.79618 0.89800
Cu	Cu	0.74958 0.90047 0.82627 0.89500
C 	C 	0.91094 0.91686 0.82208 0.28300
O 	O 	0.74449 0.73520 0.81683 -0.35500
C 	C 	0.54718 0.78293 0.77066 0.28300
O 	O 	0.76630 0.90837 0.80498 -0.64100
O 	O 	0.68834 0.77784 0.78976 -0.63700
O 	O 	0.85516 0.81177 0.78263 -0.36200
O 	O 	0.80935 0.87212 0.76678 -0.43400
O 	O 	0.85280 0.90450 0.83166 -0.37500
O 	O 	0.64471 0.94770 0.80260 -0.37400
C 	C 	0.64651 0.97058 0.81687 0.28600
C 	C 	0.67768 0.71978 0.82371 0.27700
O 	O 	0.65713 0.77505 0.82461 -0.37700
O 	O 	0.69036 0.96116 0.82746 -0.38400
O 	O 	0.89571 0.87515 0.80940 -0.35400
C 	C 	0.86174 0.84987 0.76991 0.29400
O 	O 	0.56378 0.82380 0.78355 -0.36300
O 	O 	0.58562 0.74562 0.76668 -0.40400
H 	H 	0.80410 0.96264 0.80121 0.16700
H 	H 	0.64674 0.72311 0.79259 0.18200
Cu	Cu	0.08380 0.29375 0.46508 0.93000
Cu	Cu	0.16909 0.39537 0.43446 0.87800
Cu	Cu	0.26039 0.42401 0.46402 0.89800
Cu	Cu	0.20187 0.31906 0.49226 0.90100
C 	C 	0.05752 0.16561 0.48480 0.28800
O 	O 	0.04820 0.33841 0.48234 -0.35400
C 	C 	0.30568 0.54350 0.43957 0.28000
O 	O 	0.19942 0.31481 0.47074 -0.63500
O 	O 	0.15273 0.40000 0.45623 -0.63900
O 	O 	0.02373 0.24055 0.44630 -0.37200
O 	O 	0.13712 0.28621 0.43239 -0.42500
O 	O 	0.09868 0.21773 0.49557 -0.36700
O 	O 	0.36210 0.44005 0.47166 -0.36900
C 	C 	0.37582 0.42747 0.48588 0.28400
C 	C 	0.09971 0.39952 0.49055 0.27800
O 	O 	0.17452 0.41568 0.49182 -0.38200
O 	O 	0.32053 0.36749 0.49395 -0.37200
O 	O 	0.03297 0.18751 0.47268 -0.35900
C 	C 	0.06196 0.23276 0.43467 0.28700
O 	O 	0.32297 0.52666 0.45320 -0.36600
O 	O 	0.23170 0.50769 0.43448 -0.41000
H 	H 	0.21686 0.27909 0.46621 0.17200
H 	H 	0.13819 0.44061 0.45912 0.17400
Cu	Cu	0.80984 0.73358 0.52726 0.93000
Cu	Cu	0.79985 0.65929 0.56125 0.87700
Cu	Cu	0.85628 0.60611 0.53338 0.89800
Cu	Cu	0.88324 0.67590 0.50168 0.89800
C 	C 	0.90175 0.83775 0.50294 0.28200
O 	O 	0.72085 0.67654 0.51198 -0.35600
C 	C 	0.79204 0.51075 0.56158 0.27800
O 	O 	0.89973 0.70467 0.52250 -0.64100
O 	O 	0.77462 0.63649 0.53972 -0.63700
O 	O 	0.80870 0.80471 0.54337 -0.36600
O 	O 	0.87477 0.76965 0.56019 -0.42700
O 	O 	0.88566 0.77519 0.49444 -0.37100
O 	O 	0.94066 0.58557 0.52689 -0.37600
C 	C 	0.96061 0.58200 0.51260 0.28400
C 	C 	0.70300 0.60675 0.50643 0.28100
O 	O 	0.75820 0.58577 0.50572 -0.37800
O 	O 	0.94250 0.61532 0.50121 -0.37900
O 	O 	0.86335 0.82970 0.51584 -0.35200
C 	C 	0.85070 0.81905 0.55590 0.29200
O 	O 	0.82388 0.51699 0.54789 -0.37300
O 	O 	0.75284 0.54834 0.56478 -0.40400
H 	H 	0.95567 0.74416 0.52525 0.16900
H 	H 	0.71869 0.59379 0.53788 0.17300
Cu	Cu	0.76400 0.97218 0.36438 0.92300
Cu	Cu	0.68666 0.89604 0.39742 0.87700
Cu	Cu	0.63086 0.79928 0.36863 0.89800
Cu	Cu	0.70446 0.84960 0.33729 0.89600
C 	C 	0.86930 0.98885 0.33982 0.24900
O 	O 	0.71011 0.01175 0.34986 -0.34100
C 	C 	0.53098 0.76441 0.39650 0.28300
O 	O 	0.73126 0.85482 0.35811 -0.64200
O 	O 	0.66486 0.90911 0.37633 -0.64000
O 	O 	0.83595 0.03473 0.38137 -0.35400
O 	O 	0.79585 0.92481 0.39581 -0.42400
O 	O 	0.80639 0.94667 0.33099 -0.36900
O 	O 	0.60734 0.69618 0.36091 -0.37400
C 	C 	0.60282 0.67673 0.34635 0.28700
C 	C 	0.64089 0.96345 0.34344 0.26800
O 	O 	0.61700 0.88721 0.34213 -0.37600
O 	O 	0.64123 0.73063 0.33558 -0.38300
O 	O 	0.86150 0.01555 0.35317 -0.33700
C 	C 	0.84850 0.99902 0.39284 0.26300
O 	O 	0.53972 0.74063 0.38283 -0.36700
O 	O 	0.57484 0.83877 0.40087 -0.40900
H 	H 	0.76930 0.83596 0.36054 0.16600
H 	H 	0.62342 0.92475 0.37504 0.17500
Cu	Cu	0.32133 0.25787 0.29913 0.93000
Cu	Cu	0.41958 0.27151 0.26815 0.87800
Cu	Cu	0.45689 0.21851 0.29791 0.89900
Cu	Cu	0.35574 0.17573 0.32682 0.90100
C 	C 	0.19737 0.15948 0.32005 0.28900
O 	O 	0.36659 0.34140 0.31573 -0.35800
C 	C 	0.57331 0.29310 0.27268 0.28200
O 	O 	0.34792 0.16842 0.30535 -0.63500
O 	O 	0.42720 0.29686 0.28972 -0.63900
O 	O 	0.26360 0.25858 0.28053 -0.37400
O 	O 	0.31025 0.19147 0.26682 -0.42500
O 	O 	0.25269 0.17487 0.33048 -0.37200
O 	O 	0.47924 0.13867 0.30635 -0.36800
C 	C 	0.46826 0.11485 0.32073 0.28500
C 	C 	0.43128 0.35622 0.32343 0.27600
O 	O 	0.45019 0.30011 0.32526 -0.37800
O 	O 	0.40759 0.10925 0.32881 -0.37200
O 	O 	0.21588 0.20095 0.30733 -0.36300
C 	C 	0.25516 0.21105 0.26919 0.28900
O 	O 	0.55842 0.25921 0.28633 -0.36000
O 	O 	0.53277 0.32618 0.26752 -0.40900
H 	H 	0.31255 0.11410 0.30133 0.17200
H 	H 	0.46699 0.35294 0.29209 0.17900
Cu	Cu	0.29867 0.33743 0.03366 0.93100
Cu	Cu	0.30104 0.42524 0.06534 0.87900
Cu	Cu	0.25701 0.47054 0.03546 0.89700
Cu	Cu	0.22887 0.38203 0.00535 0.89900
C 	C 	0.21037 0.22213 0.01068 0.28700
O 	O 	0.38875 0.38660 0.01831 -0.35300
C 	C 	0.32388 0.57906 0.06212 0.28200
O 	O 	0.21145 0.36589 0.02655 -0.63700
O 	O 	0.33393 0.43953 0.04412 -0.63900
O 	O 	0.29271 0.27413 0.05182 -0.36800
O 	O 	0.22059 0.31643 0.06519 -0.42700
O 	O 	0.22950 0.28088 0.00093 -0.37100
O 	O 	0.17875 0.49387 0.02639 -0.37500
C 	C 	0.16126 0.48914 0.01170 0.28500
C 	C 	0.40855 0.45452 0.01154 0.27500
O 	O 	0.35351 0.47468 0.00899 -0.38000
O 	O 	0.16323 0.43493 0.00278 -0.37500
O 	O 	0.24480 0.23590 0.02417 -0.36100
C 	C 	0.24166 0.26277 0.06274 0.28800
O 	O 	0.29018 0.56598 0.04844 -0.37000
O 	O 	0.35559 0.53719 0.06719 -0.40600
H 	H 	0.15515 0.32897 0.02954 0.17000
H 	H 	0.39088 0.48022 0.04252 0.18200
Cu	Cu	0.02430 0.78311 0.96728 0.92800
Cu	Cu	0.94618 0.69416 0.93503 0.88000
Cu	Cu	0.84944 0.64850 0.96455 0.89700
Cu	Cu	0.90426 0.73730 0.99465 0.90000
C 	C 	0.04623 0.89711 0.99012 0.28600
O 	O 	0.06192 0.73366 0.98321 -0.35300
C 	C 	0.81056 0.54201 0.93782 0.27900
O 	O 	0.90667 0.75377 0.97336 -0.63500
O 	O 	0.95950 0.68066 0.95660 -0.63500
O 	O 	0.08931 0.84686 0.94970 -0.36200
O 	O 	0.98031 0.80417 0.93465 -0.42600
O 	O 	0.00544 0.83772 0.99965 -0.37600
O 	O 	0.74541 0.62254 0.97311 -0.36500
C 	C 	0.73072 0.63026 0.98759 0.28500
C 	C 	0.01231 0.66575 0.98984 0.27000
O 	O 	0.93628 0.64476 0.99150 -0.37500
O 	O 	0.78582 0.68549 0.99650 -0.38200
O 	O 	0.06971 0.88462 0.97683 -0.35600
C 	C 	0.05559 0.85538 0.93744 0.29000
O 	O 	0.79038 0.55187 0.95176 -0.36500
O 	O 	0.88522 0.58195 0.93313 -0.40600
H 	H 	0.88734 0.79016 0.97005 0.16900
H 	H 	0.97596 0.64053 0.95860 0.17600
Cu	Cu	0.31115 0.02867 0.13228 0.93400
Cu	Cu	0.30803 0.93821 0.10093 0.87900
Cu	Cu	0.26950 0.85445 0.13141 0.89800
Cu	Cu	0.24457 0.91954 0.16129 0.89700
C 	C 	0.22476 0.05975 0.15520 0.28700
O 	O 	0.40327 0.07028 0.14722 -0.35300
C 	C 	0.32937 0.80648 0.10461 0.28100
O 	O 	0.22461 0.91501 0.14011 -0.63800
O 	O 	0.34467 0.95989 0.12194 -0.64100
O 	O 	0.30303 0.08349 0.11393 -0.37000
O 	O 	0.22797 0.96793 0.10129 -0.43000
O 	O 	0.24536 0.02202 0.16518 -0.36500
O 	O 	0.19248 0.75541 0.14107 -0.37000
C 	C 	0.17815 0.74505 0.15588 0.28500
C 	C 	0.42331 0.02232 0.15407 0.28700
O 	O 	0.36808 0.94850 0.15713 -0.39300
O 	O 	0.18120 0.80207 0.16468 -0.37700
O 	O 	0.25866 0.07852 0.14165 -0.36100
C 	C 	0.24959 0.04278 0.10346 0.29500
O 	O 	0.30201 0.79026 0.11879 -0.36800
O 	O 	0.36113 0.87885 0.09907 -0.41000
H 	H 	0.16798 0.89566 0.13730 0.17000
H 	H 	0.40188 0.97585 0.12323 0.17800
Cu	Cu	0.03276 0.30243 0.20069 0.92700
Cu	Cu	0.93850 0.28562 0.23242 0.87900
Cu	Cu	0.85728 0.26297 0.20200 0.89800
Cu	Cu	0.92535 0.25438 0.17126 0.89900
C 	C 	0.06058 0.22346 0.17571 0.28400
O 	O 	0.08264 0.40475 0.18852 -0.35300
C 	C 	0.80941 0.31342 0.23028 0.28300
O 	O 	0.91815 0.22293 0.19174 -0.63800
O 	O 	0.96331 0.33197 0.21216 -0.63700
O 	O 	0.08315 0.28027 0.21828 -0.37000
O 	O 	0.96411 0.20376 0.22992 -0.42000
O 	O 	0.02289 0.24711 0.16631 -0.37700
O 	O 	0.75725 0.18993 0.19188 -0.36900
C 	C 	0.74741 0.17346 0.17711 0.28500
C 	C 	0.03945 0.42693 0.18051 0.27200
O 	O 	0.96339 0.37627 0.17792 -0.37700
O 	O 	0.80808 0.20659 0.16737 -0.38600
O 	O 	0.08314 0.25529 0.18937 -0.35500
C 	C 	0.03914 0.22352 0.22793 0.28000
O 	O 	0.79184 0.28836 0.21598 -0.36800
O 	O 	0.88174 0.34037 0.23582 -0.40700
H 	H 	0.89757 0.16528 0.19328 0.16800
H 	H 	0.98043 0.38939 0.21188 0.17900
C 	C 	0.14188 0.66360 0.16208 -0.06400
C 	C 	0.18685 0.62481 0.16220 -0.00900
C 	C 	0.15495 0.54829 0.16840 0.00100
C 	C 	0.07626 0.50928 0.17448 -0.06000
C 	C 	0.03106 0.54810 0.17424 -0.02400
C 	C 	0.06324 0.62473 0.16805 0.01200
H 	H 	0.24718 0.65458 0.15755 0.04300
H 	H 	0.97070 0.51855 0.17886 0.05300
C 	C 	0.01436 0.66208 0.16749 0.07600
C 	C 	0.20333 0.51036 0.16835 0.09100
N 	N 	0.97521 0.69201 0.16705 -0.10400
N 	N 	0.24237 0.48028 0.16836 -0.10200
C 	C 	0.50716 0.05308 0.15910 -0.07200
C 	C 	0.52246 0.03109 0.17343 0.00400
C 	C 	0.60089 0.06730 0.17923 -0.00200
C 	C 	0.66473 0.12852 0.17083 -0.05800
C 	C 	0.64962 0.14749 0.15618 -0.01400
C 	C 	0.57197 0.10888 0.15016 0.00800
H 	H 	0.47319 0.98658 0.18018 0.03400
H 	H 	0.69843 0.19279 0.14947 0.05100
C 	C 	0.55988 0.12502 0.13459 0.07400
C 	C 	0.61545 0.03900 0.19344 0.08800
N 	N 	0.55031 0.13801 0.12212 -0.12000
N 	N 	0.62702 0.01625 0.20483 -0.11400
C 	C 	0.18140 0.10064 0.16052 -0.06300
C 	C 	0.19982 0.17412 0.15397 -0.00900
C 	C 	0.15725 0.21231 0.15813 0.00600
C 	C 	0.09769 0.17889 0.16950 -0.06100
C 	C 	0.07878 0.10544 0.17603 -0.01600
C 	C 	0.11875 0.06516 0.17135 0.01300
H 	H 	0.24716 0.20146 0.14553 0.05600
H 	H 	0.03251 0.07941 0.18470 0.03900
C 	C 	0.09273 0.98630 0.17723 0.06000
C 	C 	0.17456 0.28534 0.15052 0.09200
N 	N 	0.07180 0.92310 0.18194 -0.11800
N 	N 	0.18836 0.34362 0.14435 -0.10400
C 	C 	0.12096 0.53220 0.00590 -0.06100
C 	C 	0.06429 0.53838 0.01505 -0.00600
C 	C 	0.02561 0.57897 0.00974 -0.00400
C 	C 	0.04249 0.61266 0.99497 -0.06000
C 	C 	0.09715 0.60412 0.98567 -0.01200
C 	C 	0.13761 0.56583 0.99114 0.00400
H 	H 	0.05053 0.51190 0.02633 0.04800
H 	H 	0.11025 0.62982 0.97432 0.04000
C 	C 	0.19897 0.56484 0.98178 0.07900
C 	C 	0.97089 0.58793 0.01972 0.08900
N 	N 	0.24812 0.56410 0.97429 -0.11500
N 	N 	0.92706 0.59508 0.02773 -0.11700
C 	C 	0.49168 0.50542 0.00596 -0.06300
C 	C 	0.50492 0.54155 0.99155 -0.01100
C 	C 	0.58254 0.58259 0.98535 0.00500
C 	C 	0.64750 0.58513 0.99340 -0.06000
C 	C 	0.63435 0.55050 0.00792 -0.01200
C 	C 	0.55765 0.51275 0.01440 0.00500
H 	H 	0.45477 0.53732 0.98511 0.04700
H 	H 	0.68445 0.55443 0.01434 0.04500
C 	C 	0.54791 0.48499 0.02997 0.07700
C 	C 	0.59535 0.62517 0.97117 0.08800
N 	N 	0.54020 0.46280 0.04244 -0.12000
N 	N 	0.60549 0.65942 0.95982 -0.10800
C 	C 	0.08629 0.97875 0.99606 -0.06600
C 	C 	0.05303 0.02745 0.99317 -0.01600
C 	C 	0.09353 0.10753 0.99767 0.00400
C 	C 	0.16864 0.13953 0.00500 -0.06200
C 	C 	0.20179 0.09055 0.00786 -0.01000
C 	C 	0.16089 0.01045 0.00351 0.01400
H 	H 	0.99575 0.00304 0.98736 0.04100
H 	H 	0.25947 0.11490 0.01351 0.05500
C 	C 	0.19601 0.96114 0.00668 0.08700
C 	C 	0.05670 0.15579 0.99506 0.06700
N 	N 	0.22408 0.92161 0.00921 -0.10400
N 	N 	0.02721 0.19445 0.99297 -0.12000
C 	C 	0.22061 0.08373 0.09325 -0.07400
C 	C 	0.21404 0.14772 0.09906 -0.00700
C 	C 	0.21337 0.20415 0.08921 0.00200
C 	C 	0.21626 0.19479 0.07325 -0.07000
C 	C 	0.20881 0.12378 0.06753 -0.01100
C 	C 	0.21259 0.06890 0.07737 0.01000
H 	H 	0.21488 0.15645 0.11130 0.05000
H 	H 	0.20578 0.11395 0.05531 0.05300
C 	C 	0.21166 0.99972 0.07097 0.06200
C 	C 	0.21293 0.27266 0.09562 0.06700
N 	N 	0.21091 0.94437 0.06579 -0.12300
N 	N 	0.21258 0.32744 0.10080 -0.12400
C 	C 	0.32826 0.74363 0.09503 -0.06700
C 	C 	0.40017 0.75601 0.08849 -0.00900
C 	C 	0.39924 0.70541 0.07699 0.00600
C 	C 	0.32562 0.64127 0.07196 -0.06700
C 	C 	0.25375 0.62901 0.07846 -0.01300
C 	C 	0.25469 0.67912 0.09006 0.00100
H 	H 	0.45675 0.80633 0.09211 0.04600
H 	H 	0.19715 0.57891 0.07478 0.03600
C 	C 	0.17975 0.66475 0.09664 0.07000
C 	C 	0.47395 0.72074 0.07015 0.08400
N 	N 	0.11975 0.65326 0.10192 -0.11500
N 	N 	0.53379 0.73300 0.06468 -0.11100
C 	C 	0.07768 0.19146 0.23806 -0.06800
C 	C 	0.14307 0.18602 0.23244 -0.01000
C 	C 	0.19918 0.18519 0.24247 0.00400
C 	C 	0.18787 0.18644 0.25839 -0.07200
C 	C 	0.11520 0.17725 0.26386 -0.00600
C 	C 	0.06057 0.18102 0.25386 -0.00500
H 	H 	0.15342 0.18844 0.22023 0.05300
H 	H 	0.10368 0.17252 0.27604 0.05000
C 	C 	0.98894 0.17697 0.26001 0.07300
C 	C 	0.26938 0.18638 0.23628 0.06900
N 	N 	0.93163 0.17370 0.26498 -0.12500
N 	N 	0.32555 0.18733 0.23129 -0.12400
C 	C 	0.63940 0.29825 0.26339 -0.06500
C 	C 	0.69877 0.37301 0.25808 -0.00800
C 	C 	0.75214 0.37872 0.24663 0.00600
C 	C 	0.74641 0.30897 0.24039 -0.06700
C 	C 	0.68759 0.23430 0.24579 -0.01200
C 	C 	0.63490 0.22858 0.25738 0.00100
H 	H 	0.70192 0.42670 0.26258 0.04900
H 	H 	0.68425 0.18062 0.24124 0.03900
C 	C 	0.57551 0.15088 0.26288 0.07300
C 	C 	0.81146 0.45632 0.24109 0.08300
N 	N 	0.52797 0.08868 0.26730 -0.11300
N 	N 	0.85899 0.51847 0.23665 -0.11100
C 	C 	0.47901 0.43418 0.33095 -0.06400
C 	C 	0.44061 0.46146 0.34085 -0.01000
C 	C 	0.48124 0.53967 0.34642 0.00400
C 	C 	0.56161 0.59151 0.34210 -0.06300
C 	C 	0.60115 0.56302 0.33275 -0.01000
C 	C 	0.56032 0.48481 0.32714 0.00200
H 	H 	0.37828 0.42233 0.34390 0.04900
H 	H 	0.66328 0.60229 0.32959 0.04300
C 	C 	0.60147 0.45804 0.31705 0.07000
C 	C 	0.43891 0.56705 0.35605 0.08300
N 	N 	0.63439 0.43659 0.30896 -0.11600
N 	N 	0.40492 0.58888 0.36377 -0.10600
C 	C 	0.11199 0.11271 0.32441 -0.07200
C 	C 	0.05996 0.14147 0.32068 -0.00100
C 	C 	0.97903 0.09872 0.32484 -0.00500
C 	C 	0.94952 0.02673 0.33296 -0.01800
C 	C 	0.00059 0.99649 0.33624 -0.05900
C 	C 	0.08142 0.03860 0.33189 0.02500
H 	H 	0.08280 0.19777 0.31473 0.05100
H 	H 	0.97767 0.94075 0.34241 0.04400
C 	C 	0.13193 0.00445 0.33481 0.07600
C 	C 	0.92683 0.12975 0.32094 0.09900
N 	N 	0.17239 0.97709 0.33715 -0.13100
N 	N 	0.88498 0.15456 0.31781 -0.10500
C 	C 	0.58989 0.99542 0.33794 -0.07200
C 	C 	0.57875 0.04776 0.34733 0.00500
C 	C 	0.54093 0.08840 0.34173 0.00200
C 	C 	0.51148 0.07506 0.32663 -0.05900
C 	C 	0.52119 0.02150 0.31730 0.00600
C 	C 	0.56059 0.98207 0.32282 -0.00600
H 	H 	0.60157 0.05850 0.35892 0.04000
H 	H 	0.49814 0.01054 0.30573 0.05400
C 	C 	0.57304 0.93025 0.31273 0.08000
C 	C 	0.53571 0.14624 0.35134 0.08100
N 	N 	0.58301 0.88876 0.30464 -0.12000
N 	N 	0.53156 0.19257 0.35905 -0.11400
C 	C 	0.91426 0.04653 0.40369 -0.05900
C 	C 	0.98333 0.11374 0.39819 -0.01100
C 	C 	0.03466 0.17411 0.40816 0.00300
C 	C 	0.01946 0.16511 0.42404 -0.07000
C 	C 	0.95704 0.09285 0.42965 -0.01100
C 	C 	0.90364 0.03404 0.41964 0.01100
H 	H 	0.99411 0.12157 0.38599 0.05600
H 	H 	0.94789 0.08386 0.44187 0.05500
C 	C 	0.83741 0.96241 0.42591 0.04900
C 	C 	0.09990 0.24645 0.40188 0.07000
N 	N 	0.78445 0.90514 0.43098 -0.12500
N 	N 	0.15208 0.30431 0.39681 -0.12500
C 	C 	0.36928 0.60610 0.43018 -0.06700
C 	C 	0.35741 0.66645 0.42409 -0.00900
C 	C 	0.40783 0.71649 0.41258 0.00600
C 	C 	0.47124 0.70655 0.40711 -0.06600
C 	C 	0.48386 0.64708 0.41335 -0.01100
C 	C 	0.43401 0.59756 0.42497 0.00100
H 	H 	0.30741 0.67287 0.42800 0.04700
H 	H 	0.53363 0.64044 0.40937 0.03800
C 	C 	0.44871 0.53702 0.43125 0.07200
C 	C 	0.39266 0.77637 0.40613 0.08300
N 	N 	0.46051 0.48858 0.43629 -0.11400
N 	N 	0.38051 0.82432 0.40096 -0.11300
C 	C 	0.61969 0.55089 0.50176 -0.06600
C 	C 	0.55699 0.53777 0.51166 -0.00700
C 	C 	0.47735 0.49786 0.50660 0.00200
C 	C 	0.45945 0.46845 0.49153 -0.05700
C 	C 	0.52190 0.47858 0.48180 -0.00900
C 	C 	0.60181 0.51986 0.48680 0.00800
H 	H 	0.57056 0.56134 0.52318 0.03500
H 	H 	0.50838 0.45497 0.47030 0.05600
C 	C 	0.66509 0.53242 0.47635 0.08100
C 	C 	0.41487 0.49086 0.51673 0.07800
N 	N 	0.71577 0.54248 0.46797 -0.11600
N 	N 	0.36486 0.48528 0.52484 -0.11500
C 	C 	0.01967 0.07974 0.48830 -0.06600
C 	C 	0.93836 0.02917 0.48477 0.00600
C 	C 	0.90053 0.94819 0.48849 -0.00500
C 	C 	0.94388 0.91720 0.49597 -0.05600
C 	C 	0.02597 0.96661 0.49880 -0.02300
C 	C 	0.06430 0.04750 0.49489 0.01600
H 	H 	0.90417 0.05319 0.47938 0.05400
H 	H 	0.05958 0.94247 0.50438 0.03900
C 	C 	0.14960 0.09647 0.49739 0.06800
C 	C 	0.81681 0.89738 0.48477 0.09400
N 	N 	0.21792 0.13570 0.49938 -0.11700
N 	N 	0.74977 0.85665 0.48179 -0.10600
C 	C 	0.07291 0.44956 0.49840 -0.06700
C 	C 	0.10855 0.53064 0.49473 -0.01100
C 	C 	0.07535 0.57616 0.50010 0.00200
C 	C 	0.00531 0.54008 0.50917 -0.05600
C 	C 	0.97358 0.46068 0.51381 -0.01800
C 	C 	0.00694 0.41529 0.50848 0.01200
H 	H 	0.16063 0.55769 0.48732 0.03900
H 	H 	0.92117 0.43339 0.52114 0.04900
C 	C 	0.97339 0.33372 0.51347 0.08100
C 	C 	0.11417 0.65998 0.49646 0.08100
N 	N 	0.94654 0.26838 0.51747 -0.10400
N 	N 	0.14529 0.72713 0.49355 -0.11600
C 	C 	0.21859 0.00684 0.90329 -0.07200
C 	C 	0.20791 0.93053 0.90572 -0.01400
C 	C 	0.15222 0.87935 0.91640 0.00700
C 	C 	0.10701 0.90469 0.92495 -0.07800
C 	C 	0.11518 0.97962 0.92217 -0.00700
C 	C 	0.17026 0.03068 0.91130 0.00300
H 	H 	0.24413 0.91153 0.89946 0.04600
H 	H 	0.07932 0.99851 0.92858 0.04100
C 	C 	0.17506 0.10612 0.90812 0.08000
C 	C 	0.14195 0.80083 0.91859 0.05000
N 	N 	0.17885 0.16653 0.90558 -0.11400
N 	N 	0.13369 0.73795 0.92035 -0.12900
C 	C 	0.65116 0.37419 0.90505 -0.06400
C 	C 	0.63836 0.43540 0.91025 -0.01400
C 	C 	0.68716 0.48768 0.92167 0.00200
C 	C 	0.75029 0.47947 0.92789 -0.06600
C 	C 	0.76332 0.41839 0.92265 -0.00900
C 	C 	0.71449 0.36607 0.91122 0.00500
H 	H 	0.58947 0.44150 0.90557 0.04000
H 	H 	0.81280 0.41289 0.92720 0.04800
C 	C 	0.73178 0.30632 0.90547 0.08800
C 	C 	0.67367 0.55123 0.92658 0.06800
N 	N 	0.74563 0.25848 0.90086 -0.10900
N 	N 	0.66292 0.60221 0.93050 -0.11200
C 	C 	0.54473 0.48397 0.84221 -0.06000
C 	C 	0.50523 0.51447 0.83335 -0.01000
C 	C 	0.54697 0.59279 0.82778 0.00300
C 	C 	0.62896 0.64198 0.83131 -0.06400
C 	C 	0.66726 0.61285 0.84081 -0.01000
C 	C 	0.62610 0.53417 0.84613 0.00400
H 	H 	0.44239 0.47662 0.83050 0.05000
H 	H 	0.73013 0.65076 0.84364 0.05200
C 	C 	0.66911 0.50446 0.85495 0.08300
C 	C 	0.50611 0.62086 0.81791 0.07500
N 	N 	0.70382 0.48090 0.86199 -0.10300
N 	N 	0.47343 0.64335 0.81000 -0.11000
C 	C 	0.99400 0.95850 0.82766 -0.05600
C 	C 	0.03843 0.04190 0.82711 -0.01700
C 	C 	0.11997 0.08241 0.83104 0.00400
C 	C 	0.15756 0.03897 0.83554 -0.06300
C 	C 	0.11285 0.95548 0.83608 -0.00500
C 	C 	0.03136 0.91520 0.83232 0.00100
H 	H 	0.00973 0.07521 0.82348 0.03500
H 	H 	0.14147 0.92191 0.83959 0.05300
C 	C 	0.98607 0.82937 0.83348 0.09400
C 	C 	0.16408 0.16843 0.83074 0.06700
N 	N 	0.94975 0.76065 0.83440 -0.10800
N 	N 	0.19944 0.23733 0.83050 -0.12000
C 	C 	0.60726 0.01761 0.82073 -0.06200
C 	C 	0.64771 0.08540 0.83005 -0.01100
C 	C 	0.60781 0.12414 0.83569 0.00200
C 	C 	0.52690 0.09579 0.83179 -0.06500
C 	C 	0.48846 0.03188 0.82158 -0.01000
C 	C 	0.52748 0.99192 0.81622 0.00300
H 	H 	0.70959 0.10662 0.83327 0.04600
H 	H 	0.42655 0.01075 0.81839 0.04800
C 	C 	0.48346 0.92193 0.80683 0.08400
C 	C 	0.64926 0.19065 0.84600 0.07400
N 	N 	0.44785 0.86588 0.79933 -0.10400
N 	N 	0.68239 0.24389 0.85426 -0.11100
C 	C 	0.37672 0.77031 0.73784 -0.06400
C 	C 	0.36192 0.70166 0.74590 -0.01000
C 	C 	0.41536 0.70565 0.75720 0.00700
C 	C 	0.48444 0.77906 0.76052 -0.06400
C 	C 	0.49868 0.84780 0.75262 -0.01300
C 	C 	0.44586 0.84376 0.74121 0.00200
H 	H 	0.30840 0.64527 0.74347 0.04800
H 	H 	0.55213 0.90419 0.75510 0.03600
C 	C 	0.46247 0.91555 0.73318 0.07300
C 	C 	0.39799 0.63455 0.76556 0.08800
N 	N 	0.47583 0.97304 0.72674 -0.11200
N 	N 	0.38410 0.57761 0.77226 -0.10700
C 	C 	0.01077 0.83670 0.73521 -0.07400
C 	C 	0.93641 0.76972 0.73862 -0.01400
C 	C 	0.88650 0.77406 0.74969 0.00700
C 	C 	0.91108 0.84601 0.75756 -0.07900
C 	C 	0.98412 0.91377 0.75386 -0.00600
C 	C 	0.03400 0.90968 0.74267 0.00300
H 	H 	0.91805 0.71372 0.73283 0.04300
H 	H 	0.00234 0.96948 0.75975 0.04100
C 	C 	0.10761 0.98094 0.73864 0.08000
C 	C 	0.80990 0.70437 0.75289 0.05200
N 	N 	0.16656 0.03805 0.73540 -0.11300
N 	N 	0.74856 0.64859 0.75546 -0.12600
C 	C 	0.09163 0.59792 0.66815 -0.06600
C 	C 	0.04129 0.53452 0.67775 -0.00900
C 	C 	0.00033 0.45633 0.67222 0.00400
C 	C 	0.01190 0.44026 0.65701 -0.05800
C 	C 	0.06440 0.50333 0.64752 -0.01000
C 	C 	0.10393 0.58198 0.65297 0.00600
H 	H 	0.03162 0.54654 0.68941 0.03600
H 	H 	0.07449 0.49124 0.63590 0.05000
C 	C 	0.15500 0.64598 0.64278 0.07900
C 	C 	0.94366 0.39347 0.68204 0.07400
N 	N 	0.19591 0.69724 0.63461 -0.11600
N 	N 	0.89827 0.34314 0.68990 -0.11700
C 	C 	0.64940 0.05584 0.66446 -0.06000
C 	C 	0.62229 0.99143 0.67459 -0.01100
C 	C 	0.54279 0.95219 0.67978 0.00600
C 	C 	0.48948 0.97816 0.67495 -0.06000
C 	C 	0.51815 0.04587 0.66559 -0.00800
C 	C 	0.59763 0.08468 0.66031 0.00200
H 	H 	0.66235 0.96980 0.67794 0.05000
H 	H 	0.47808 0.06733 0.66215 0.04900
C 	C 	0.62461 0.15221 0.65022 0.07300
C 	C 	0.51568 0.88312 0.68946 0.08700
N 	N 	0.64625 0.20630 0.64213 -0.11400
N 	N 	0.49424 0.82781 0.69722 -0.10500
C 	C 	0.04352 0.91749 0.66528 -0.05500
C 	C 	0.95953 0.87609 0.66434 -0.01200
C 	C 	0.91830 0.91600 0.66043 0.01200
C 	C 	0.96141 0.99818 0.65714 -0.07000
C 	C 	0.04544 0.03937 0.65776 -0.00400
C 	C 	0.08674 0.99944 0.66178 -0.00400
H 	H 	0.92620 0.81302 0.66703 0.05400
H 	H 	0.07864 0.10245 0.65510 0.03300
C 	C 	0.17326 0.04330 0.66262 0.07200
C 	C 	0.83163 0.87272 0.66026 0.09000
N 	N 	0.24257 0.07840 0.66329 -0.12000
N 	N 	0.76223 0.83810 0.66012 -0.10600
C 	C 	0.84982 0.98092 0.58902 -0.07700
C 	C 	0.92055 0.97876 0.58637 -0.01000
C 	C 	0.92250 0.92765 0.57529 0.00700
C 	C 	0.85255 0.87757 0.56687 -0.07500
C 	C 	0.78254 0.88162 0.56927 -0.01200
C 	C 	0.78093 0.93310 0.58024 0.00800
H 	H 	0.97393 0.01660 0.59299 0.04500
H 	H 	0.72880 0.84357 0.56277 0.04400
C 	C 	0.70832 0.93673 0.58239 0.05800
C 	C 	0.99688 0.92865 0.57233 0.07800
N 	N 	0.65020 0.93968 0.58412 -0.12400
N 	N 	0.05649 0.92949 0.56996 -0.11000
C 	C 	0.78983 0.45139 0.57254 -0.06500
C 	C 	0.78813 0.38260 0.56703 -0.00900
C 	C 	0.78966 0.32740 0.57712 0.00400
C 	C 	0.78803 0.33826 0.59306 -0.06700
C 	C 	0.79002 0.40713 0.59860 -0.00700
C 	C 	0.79293 0.46459 0.58849 0.00200
H 	H 	0.78706 0.37264 0.55484 0.05300
H 	H 	0.79027 0.41653 0.61080 0.05400
C 	C 	0.80329 0.53846 0.59459 0.06800
C 	C 	0.79747 0.26229 0.57099 0.05900
N 	N 	0.81162 0.59760 0.59949 -0.12700
N 	N 	0.80376 0.21024 0.56607 -0.13000
