data_crystal

_cell_length_a 32.69450
_cell_length_b 24.00254
_cell_length_c 50.96832
_cell_angle_alpha 90.00099
_cell_angle_beta  90.00170
_cell_angle_gamma 90.00525

_symmetry_space_group_name_	'P 1'
_symmetry_space_group_name_H-M	'P 1'

loop_
_symmetry_equiv_pos_as_xyz
  x,y,z

loop_
_atom_site_label
_atom_site_type_symbol
_atom_site_fract_x
_atom_site_fract_y
_atom_site_fract_z
_atom_site_charge
Cu	Cu	0.15560 0.43180 0.40062 0.93100
Cu	Cu	0.22537 0.40196 0.35704 0.86900
Cu	Cu	0.19391 0.51227 0.36141 0.89100
Cu	Cu	0.14800 0.56173 0.40593 0.89700
C 	C 	0.13955 0.48277 0.45025 0.28500
O 	O 	0.09693 0.45046 0.39176 -0.35400
C 	C 	0.21729 0.46582 0.30964 0.28200
O 	O 	0.18836 0.50745 0.39901 -0.64100
O 	O 	0.17203 0.43494 0.36331 -0.64000
O 	O 	0.17662 0.35600 0.40848 -0.35100
O 	O 	0.23828 0.37854 0.39152 -0.43200
O 	O 	0.12354 0.52528 0.43747 -0.37600
O 	O 	0.21894 0.58550 0.36117 -0.38100
C 	C 	0.20689 0.62998 0.37440 0.29300
C 	C 	0.08741 0.49104 0.37551 0.27700
O 	O 	0.11284 0.53293 0.37230 -0.38500
O 	O 	0.18160 0.62643 0.39460 -0.38100
O 	O 	0.14886 0.43634 0.43781 -0.34900
C 	C 	0.21451 0.34234 0.40319 0.29800
O 	O 	0.20571 0.50978 0.32352 -0.37400
O 	O 	0.22064 0.41585 0.32026 -0.40500
H 	H 	0.21420 0.51129 0.40899 0.16800
H 	H 	0.15081 0.42636 0.35004 0.18700
Cu	Cu	0.14607 0.54391 0.61147 0.93000
Cu	Cu	0.20825 0.58673 0.65856 0.87400
Cu	Cu	0.18355 0.46539 0.65270 0.89700
Cu	Cu	0.12993 0.41488 0.61049 0.89700
C 	C 	0.13102 0.48626 0.56311 0.28400
O 	O 	0.08600 0.53471 0.61892 -0.35000
C 	C 	0.21252 0.51481 0.70254 0.28000
O 	O 	0.17391 0.46537 0.61553 -0.63800
O 	O 	0.16035 0.54292 0.64957 -0.63500
O 	O 	0.17073 0.61627 0.60098 -0.35300
O 	O 	0.22836 0.60056 0.62449 -0.43500
O 	O 	0.11173 0.44678 0.57623 -0.36900
O 	O 	0.20747 0.39126 0.65253 -0.37100
C 	C 	0.19403 0.35042 0.63746 0.28500
C 	C 	0.07252 0.49862 0.63619 0.27900
O 	O 	0.09446 0.45428 0.64156 -0.38100
O 	O 	0.15633 0.35056 0.62828 -0.38200
O 	O 	0.14029 0.53412 0.57439 -0.34800
C 	C 	0.20721 0.63212 0.60853 0.28600
O 	O 	0.20001 0.46970 0.68995 -0.37200
O 	O 	0.20249 0.56488 0.69428 -0.40900
H 	H 	0.19846 0.45772 0.60472 0.16700
H 	H 	0.13712 0.54961 0.66162 0.17500
Cu	Cu	0.84290 0.54630 0.38763 0.92900
Cu	Cu	0.78634 0.58448 0.33716 0.87000
Cu	Cu	0.80681 0.46457 0.34746 0.89800
Cu	Cu	0.85250 0.41677 0.39314 0.89800
C 	C 	0.85315 0.49557 0.43835 0.28400
O 	O 	0.90326 0.53165 0.38276 -0.35600
C 	C 	0.78664 0.50799 0.29466 0.28000
O 	O 	0.81168 0.46969 0.38488 -0.64000
O 	O 	0.83244 0.54061 0.34922 -0.63700
O 	O 	0.81899 0.62141 0.39455 -0.35300
O 	O 	0.76305 0.60229 0.36995 -0.43700
O 	O 	0.87047 0.45231 0.42673 -0.37400
O 	O 	0.77955 0.39283 0.34848 -0.37000
C 	C 	0.79059 0.35051 0.36349 0.28700
C 	C 	0.91663 0.49078 0.36794 0.27800
O 	O 	0.89225 0.44896 0.36245 -0.37800
O 	O 	0.82548 0.35090 0.37660 -0.37700
O 	O 	0.84489 0.54157 0.42512 -0.34800
C 	C 	0.78278 0.63578 0.38578 0.28700
O 	O 	0.79568 0.46432 0.30941 -0.36800
O 	O 	0.79560 0.55892 0.30230 -0.41600
H 	H 	0.78566 0.46537 0.39461 0.17200
H 	H 	0.85690 0.54437 0.33790 0.17500
Cu	Cu	0.83704 0.45024 0.60077 0.93000
Cu	Cu	0.77293 0.40672 0.64638 0.87400
Cu	Cu	0.78879 0.52845 0.63686 0.89900
Cu	Cu	0.84512 0.58032 0.59648 0.89600
C 	C 	0.85340 0.50286 0.55140 0.28100
O 	O 	0.89526 0.46733 0.61059 -0.35200
C 	C 	0.76720 0.48301 0.68911 0.28600
O 	O 	0.80424 0.52549 0.60077 -0.64100
O 	O 	0.81831 0.45506 0.63784 -0.63800
O 	O 	0.81667 0.37456 0.59216 -0.36300
O 	O 	0.75547 0.38967 0.61187 -0.43100
O 	O 	0.86860 0.54647 0.56389 -0.37000
O 	O 	0.76007 0.59840 0.63262 -0.37000
C 	C 	0.77487 0.64198 0.61991 0.28500
C 	C 	0.90415 0.50664 0.62750 0.28100
O 	O 	0.87950 0.54943 0.63017 -0.37900
O 	O 	0.81321 0.64348 0.61172 -0.38500
O 	O 	0.84668 0.45542 0.56381 -0.34800
C 	C 	0.77876 0.35935 0.59652 0.28800
O 	O 	0.76230 0.52319 0.67162 -0.37800
O 	O 	0.77634 0.43177 0.68188 -0.40900
H 	H 	0.78102 0.52854 0.58837 0.16600
H 	H 	0.84031 0.45385 0.65118 0.17800
Cu	Cu	0.65382 0.94332 0.37713 0.92700
Cu	Cu	0.71806 0.90484 0.33058 0.87100
Cu	Cu	0.69661 0.02571 0.34010 0.90100
Cu	Cu	0.63911 0.07297 0.38098 0.90100
C 	C 	0.63570 0.99591 0.42620 0.27200
O 	O 	0.59414 0.95335 0.36789 -0.35400
C 	C 	0.72244 0.98105 0.28817 0.27900
O 	O 	0.68251 0.02188 0.37643 -0.63500
O 	O 	0.67100 0.94938 0.33981 -0.64100
O 	O 	0.67855 0.86994 0.38644 -0.35700
O 	O 	0.73741 0.88860 0.36464 -0.43900
O 	O 	0.61741 0.03682 0.41341 -0.35900
O 	O 	0.72176 0.09854 0.34372 -0.36600
C 	C 	0.70525 0.14080 0.35657 0.28400
C 	C 	0.58128 0.99460 0.35313 0.27100
O 	O 	0.60573 0.03671 0.34836 -0.36600
O 	O 	0.66714 0.13889 0.36517 -0.37500
O 	O 	0.64502 0.94890 0.41410 -0.35200
C 	C 	0.71598 0.85588 0.37996 0.28400
O 	O 	0.72199 0.02326 0.30489 -0.36500
O 	O 	0.71240 0.93029 0.29546 -0.41600
H 	H 	0.70591 0.02751 0.38847 0.16800
H 	H 	0.64839 0.94618 0.32698 0.17400
Cu	Cu	0.65598 0.05345 0.58880 0.93200
Cu	Cu	0.71662 0.08980 0.63807 0.87500
Cu	Cu	0.68988 0.97023 0.62876 0.89700
Cu	Cu	0.63322 0.92573 0.58636 0.89900
C 	C 	0.63742 0.99963 0.53979 0.27600
O 	O 	0.59547 0.05241 0.59602 -0.35600
C 	C 	0.71030 0.01544 0.68120 0.29500
O 	O 	0.67902 0.97211 0.59193 -0.64200
O 	O 	0.66888 0.04886 0.62685 -0.63500
O 	O 	0.68594 0.12260 0.57920 -0.36200
O 	O 	0.74037 0.10108 0.60476 -0.42900
O 	O 	0.61610 0.96189 0.55282 -0.36600
O 	O 	0.71052 0.89480 0.62750 -0.37300
C 	C 	0.69308 0.85361 0.61444 0.28500
C 	C 	0.57784 0.01310 0.60987 0.29100
O 	O 	0.59869 0.96860 0.61652 -0.38900
O 	O 	0.65593 0.85859 0.60447 -0.37900
O 	O 	0.65025 0.04548 0.55162 -0.34500
C 	C 	0.72255 0.13468 0.58802 0.28900
O 	O 	0.71350 0.97387 0.66433 -0.39100
O 	O 	0.70524 0.06710 0.67316 -0.41200
H 	H 	0.70305 0.96292 0.58092 0.16800
H 	H 	0.64504 0.05491 0.63849 0.17500
Cu	Cu	0.33844 0.04016 0.38784 0.93100
Cu	Cu	0.26850 0.06838 0.34420 0.87100
Cu	Cu	0.30115 0.95468 0.35027 0.89600
Cu	Cu	0.35443 0.91122 0.39336 0.89700
C 	C 	0.35497 0.99051 0.43759 0.27400
O 	O 	0.39802 0.03018 0.37845 -0.34900
C 	C 	0.26782 0.99570 0.30016 0.27400
O 	O 	0.31051 0.96069 0.38728 -0.64300
O 	O 	0.32117 0.03344 0.35068 -0.63500
O 	O 	0.31122 0.11206 0.39615 -0.36200
O 	O 	0.25190 0.08038 0.37925 -0.43100
O 	O 	0.37419 0.94909 0.42584 -0.37600
O 	O 	0.27829 0.88054 0.35222 -0.37700
C 	C 	0.29250 0.83896 0.36654 0.29000
C 	C 	0.41041 0.98979 0.36295 0.27000
O 	O 	0.38741 0.94542 0.35991 -0.37800
O 	O 	0.32744 0.84263 0.37954 -0.38000
O 	O 	0.34710 0.03709 0.42486 -0.33900
C 	C 	0.27162 0.11749 0.39317 0.29500
O 	O 	0.28478 0.95401 0.31318 -0.36800
O 	O 	0.27145 0.04754 0.30823 -0.40600
H 	H 	0.28598 0.95453 0.39830 0.16700
H 	H 	0.34231 0.04152 0.33730 0.18000
Cu	Cu	0.32953 0.94447 0.60066 0.92900
Cu	Cu	0.27356 0.90487 0.65158 0.87400
Cu	Cu	0.28984 0.02583 0.63925 0.90200
Cu	Cu	0.34026 0.07439 0.59545 0.89600
C 	C 	0.34321 0.99552 0.55021 0.27500
O 	O 	0.38974 0.95644 0.60691 -0.34900
C 	C 	0.27553 0.98353 0.69308 0.28000
O 	O 	0.29907 0.02156 0.60237 -0.63700
O 	O 	0.31750 0.95108 0.63879 -0.64100
O 	O 	0.30471 0.87030 0.59308 -0.35400
O 	O 	0.24973 0.88772 0.61893 -0.44000
O 	O 	0.35953 0.03915 0.56212 -0.36900
O 	O 	0.26262 0.09695 0.63653 -0.37300
C 	C 	0.27867 0.14184 0.62562 0.28800
C 	C 	0.40364 0.99955 0.61994 0.26300
O 	O 	0.37855 0.04001 0.62613 -0.37100
O 	O 	0.31369 0.14021 0.61261 -0.38600
O 	O 	0.33398 0.94956 0.56326 -0.35000
C 	C 	0.26928 0.85481 0.60272 0.28500
O 	O 	0.26871 0.02293 0.67549 -0.37100
O 	O 	0.28440 0.93225 0.68593 -0.41000
H 	H 	0.27405 0.02583 0.59160 0.16800
H 	H 	0.34194 0.94989 0.65024 0.18000
Cu	Cu	0.65414 0.55920 0.10175 0.92800
Cu	Cu	0.72061 0.58838 0.14774 0.87300
Cu	Cu	0.68586 0.47344 0.14137 0.89800
Cu	Cu	0.63443 0.43111 0.09665 0.90000
C 	C 	0.63751 0.50899 0.05180 0.28200
O 	O 	0.59363 0.55264 0.10935 -0.35900
C 	C 	0.71951 0.51485 0.19118 0.28000
O 	O 	0.67931 0.47844 0.10396 -0.63900
O 	O 	0.66835 0.55346 0.13953 -0.63700
O 	O 	0.68271 0.63039 0.09370 -0.36400
O 	O 	0.74038 0.59996 0.11333 -0.43100
O 	O 	0.61638 0.47003 0.06403 -0.36800
O 	O 	0.70616 0.39763 0.14079 -0.37200
C 	C 	0.69395 0.35788 0.12465 0.28600
C 	C 	0.57836 0.51348 0.12454 0.27700
O 	O 	0.59946 0.46766 0.12860 -0.37700
O 	O 	0.65933 0.36187 0.11132 -0.37400
O 	O 	0.64881 0.55460 0.06435 -0.35200
C 	C 	0.72184 0.63644 0.09841 0.29100
O 	O 	0.70037 0.47391 0.17891 -0.36700
O 	O 	0.71511 0.56682 0.18351 -0.40900
H 	H 	0.70442 0.47057 0.09376 0.16600
H 	H 	0.64611 0.56292 0.15194 0.17500
Cu	Cu	0.65318 0.45212 0.88857 0.93000
Cu	Cu	0.71430 0.41611 0.84014 0.87700
Cu	Cu	0.68412 0.53284 0.84632 0.89700
Cu	Cu	0.63782 0.58095 0.89167 0.89900
C 	C 	0.64046 0.50636 0.93806 0.28200
O 	O 	0.59240 0.46273 0.88326 -0.35400
C 	C 	0.71014 0.48659 0.79538 0.27800
O 	O 	0.68091 0.53080 0.88399 -0.64000
O 	O 	0.66403 0.45413 0.85010 -0.63400
O 	O 	0.67806 0.37849 0.89697 -0.35400
O 	O 	0.73477 0.39943 0.87380 -0.43400
O 	O 	0.62010 0.54540 0.92531 -0.36800
O 	O 	0.70665 0.60767 0.84494 -0.36700
C 	C 	0.69723 0.64891 0.86105 0.28500
C 	C 	0.57772 0.50044 0.86712 0.27800
O 	O 	0.60010 0.54403 0.86111 -0.37900
O 	O 	0.66343 0.64777 0.87529 -0.37900
O 	O 	0.65172 0.46023 0.92592 -0.35500
C 	C 	0.71440 0.36446 0.88849 0.29600
O 	O 	0.69443 0.52940 0.80825 -0.36400
O 	O 	0.70624 0.43540 0.80424 -0.40500
H 	H 	0.70701 0.53824 0.89321 0.16800
H 	H 	0.64041 0.44531 0.83868 0.18200
Cu	Cu	0.33556 0.43485 0.11171 0.92900
Cu	Cu	0.27353 0.39149 0.15824 0.87800
Cu	Cu	0.28864 0.51238 0.14924 0.89700
Cu	Cu	0.33961 0.56570 0.10650 0.90000
C 	C 	0.34760 0.48783 0.06166 0.28000
O 	O 	0.39459 0.45287 0.12017 -0.35000
C 	C 	0.26664 0.46533 0.20159 0.28300
O 	O 	0.30078 0.50882 0.11251 -0.63900
O 	O 	0.31902 0.43951 0.14929 -0.63500
O 	O 	0.31558 0.35826 0.10345 -0.35600
O 	O 	0.25545 0.37402 0.12400 -0.43500
O 	O 	0.36196 0.53256 0.07360 -0.36800
O 	O 	0.25803 0.58133 0.14587 -0.36900
C 	C 	0.27040 0.62485 0.13210 0.28400
C 	C 	0.40504 0.49745 0.13346 0.28300
O 	O 	0.37754 0.53574 0.13845 -0.37600
O 	O 	0.30797 0.62785 0.12270 -0.38000
O 	O 	0.34294 0.44030 0.07444 -0.34900
C 	C 	0.27836 0.34216 0.10924 0.29200
O 	O 	0.26723 0.50889 0.18560 -0.37000
O 	O 	0.27797 0.41547 0.19368 -0.40700
H 	H 	0.27638 0.51049 0.10102 0.16300
H 	H 	0.34181 0.43849 0.16208 0.18000
Cu	Cu	0.33798 0.54679 0.89950 0.93000
Cu	Cu	0.27378 0.58547 0.85351 0.87300
Cu	Cu	0.29936 0.46886 0.85904 0.89500
Cu	Cu	0.34456 0.41647 0.90312 0.89800
C 	C 	0.35006 0.49211 0.94870 0.28400
O 	O 	0.39704 0.52806 0.89191 -0.35400
C 	C 	0.27482 0.51566 0.80790 0.27900
O 	O 	0.30465 0.47171 0.89653 -0.64100
O 	O 	0.32373 0.54512 0.86164 -0.63700
O 	O 	0.31760 0.62284 0.90796 -0.35200
O 	O 	0.25747 0.60494 0.88787 -0.43200
O 	O 	0.36692 0.45029 0.93587 -0.37500
O 	O 	0.27234 0.39696 0.85850 -0.37600
C 	C 	0.28464 0.35118 0.87060 0.29100
C 	C 	0.40722 0.48866 0.87523 0.27800
O 	O 	0.38186 0.44723 0.87080 -0.38200
O 	O 	0.31247 0.35217 0.88948 -0.38100
O 	O 	0.34276 0.53983 0.93677 -0.34800
C 	C 	0.28065 0.63872 0.90147 0.29700
O 	O 	0.28887 0.47218 0.82109 -0.36800
O 	O 	0.27844 0.56671 0.81717 -0.40800
H 	H 	0.27871 0.46766 0.90637 0.17000
H 	H 	0.34643 0.55187 0.84918 0.18100
Cu	Cu	0.15407 0.03909 0.10299 0.93100
Cu	Cu	0.21513 0.06579 0.15267 0.87500
Cu	Cu	0.18365 0.95152 0.14257 0.89500
Cu	Cu	0.13111 0.91221 0.09777 0.89800
C 	C 	0.13882 0.98989 0.05260 0.27500
O 	O 	0.09285 0.03646 0.10832 -0.34400
C 	C 	0.20499 0.99279 0.19587 0.28000
O 	O 	0.17694 0.95723 0.10540 -0.64300
O 	O 	0.16477 0.03114 0.14127 -0.63400
O 	O 	0.18560 0.10892 0.09605 -0.35700
O 	O 	0.23913 0.07666 0.11944 -0.43200
O 	O 	0.11692 0.95071 0.06422 -0.37000
O 	O 	0.20385 0.87585 0.14078 -0.37500
C 	C 	0.18732 0.83566 0.12661 0.28600
C 	C 	0.07529 0.99820 0.12290 0.25600
O 	O 	0.09534 0.95231 0.12842 -0.37400
O 	O 	0.15175 0.84236 0.11467 -0.37700
O 	O 	0.15091 0.03464 0.06556 -0.34100
C 	C 	0.22344 0.11485 0.10414 0.29000
O 	O 	0.20148 0.95013 0.17959 -0.37900
O 	O 	0.20241 0.04457 0.18761 -0.40500
H 	H 	0.20182 0.94827 0.09515 0.16700
H 	H 	0.14117 0.03880 0.15289 0.17900
Cu	Cu	0.15857 0.94145 0.88995 0.92900
Cu	Cu	0.22604 0.91286 0.84470 0.86800
Cu	Cu	0.19070 0.02555 0.84994 0.89900
Cu	Cu	0.13994 0.07034 0.89415 0.89700
C 	C 	0.14179 0.99339 0.93968 0.27700
O 	O 	0.09831 0.94617 0.88187 -0.35400
C 	C 	0.22133 0.98268 0.79954 0.27400
O 	O 	0.18425 0.02199 0.88731 -0.63700
O 	O 	0.17304 0.94596 0.85229 -0.64300
O 	O 	0.18752 0.87102 0.89872 -0.36000
O 	O 	0.24521 0.90208 0.87935 -0.43500
O 	O 	0.12226 0.03389 0.92740 -0.36900
O 	O 	0.21172 0.10088 0.84975 -0.37600
C 	C 	0.19831 0.14264 0.86427 0.28800
C 	C 	0.08195 0.98773 0.86879 0.27200
O 	O 	0.10405 0.03185 0.86321 -0.37500
O 	O 	0.16428 0.13884 0.87823 -0.38100
O 	O 	0.15207 0.94721 0.92721 -0.34400
C 	C 	0.22673 0.86534 0.89418 0.29300
O 	O 	0.20341 0.02395 0.81233 -0.36100
O 	O 	0.22032 0.93124 0.80849 -0.41400
H 	H 	0.20948 0.02984 0.89740 0.16900
H 	H 	0.15106 0.93603 0.83976 0.17700
Cu	Cu	0.83443 0.95348 0.08974 0.92900
Cu	Cu	0.76653 0.92332 0.13428 0.87000
Cu	Cu	0.79783 0.03401 0.12957 0.89400
Cu	Cu	0.84265 0.08355 0.08471 0.90200
C 	C 	0.84776 0.00546 0.04024 0.29000
O 	O 	0.89361 0.97182 0.09756 -0.36000
C 	C 	0.77544 0.98723 0.18135 0.27500
O 	O 	0.80214 0.02953 0.09200 -0.63900
O 	O 	0.81960 0.95653 0.12726 -0.64300
O 	O 	0.81385 0.87717 0.08224 -0.35400
O 	O 	0.75266 0.89825 0.10025 -0.43600
O 	O 	0.86584 0.04636 0.05300 -0.36600
O 	O 	0.77272 0.10726 0.13020 -0.38000
C 	C 	0.78324 0.15145 0.11622 0.29100
C 	C 	0.90393 0.01203 0.11381 0.28700
O 	O 	0.87882 0.05400 0.11769 -0.38300
O 	O 	0.81009 0.14871 0.09681 -0.37500
O 	O 	0.83901 0.95860 0.05249 -0.36300
C 	C 	0.77654 0.86243 0.08843 0.29700
O 	O 	0.78695 0.03124 0.16751 -0.36600
O 	O 	0.77295 0.93712 0.17085 -0.40500
H 	H 	0.77601 0.03383 0.08239 0.16700
H 	H 	0.84135 0.94783 0.14015 0.18700
Cu	Cu	0.83276 0.05681 0.87659 0.93200
Cu	Cu	0.76554 0.08710 0.83149 0.87200
Cu	Cu	0.79628 0.97175 0.83825 0.89600
Cu	Cu	0.84841 0.92722 0.88229 0.89700
C 	C 	0.84864 0.00636 0.92661 0.29100
O 	O 	0.89293 0.04863 0.86815 -0.35600
C 	C 	0.76579 0.01452 0.78745 0.29100
O 	O 	0.80500 0.97726 0.87542 -0.64100
O 	O 	0.81711 0.05032 0.83914 -0.63500
O 	O 	0.80598 0.12926 0.88469 -0.36100
O 	O 	0.74712 0.10037 0.86608 -0.43100
O 	O 	0.86803 0.96544 0.91462 -0.38300
O 	O 	0.77315 0.89735 0.83989 -0.36800
C 	C 	0.78555 0.85741 0.85588 0.28500
C 	C 	0.90775 0.00494 0.85591 0.30700
O 	O 	0.88342 0.96312 0.85044 -0.39400
O 	O 	0.82184 0.85960 0.86726 -0.38300
O 	O 	0.83964 0.05274 0.91388 -0.35200
C 	C 	0.76686 0.13671 0.88044 0.29100
O 	O 	0.78029 0.97178 0.80098 -0.37500
O 	O 	0.77041 0.06610 0.79567 -0.41300
H 	H 	0.78011 0.97132 0.88614 0.16700
H 	H 	0.83919 0.05769 0.82630 0.18300
C 	C 	0.84673 0.00617 0.95566 -0.05400
C 	C 	0.85035 0.05655 0.96946 -0.00800
C 	C 	0.84834 0.05741 0.99690 0.00400
C 	C 	0.84646 0.00662 0.01105 -0.05200
C 	C 	0.84239 0.95628 0.99715 -0.01900
C 	C 	0.84103 0.95601 0.96971 -0.00300
H 	H 	0.85429 0.09530 0.95883 0.06300
H 	H 	0.83963 0.91722 0.00771 0.05900
C 	C 	0.83172 0.90453 0.95626 0.07100
C 	C 	0.84549 0.11056 0.01009 0.08100
N 	N 	0.82424 0.86330 0.94550 -0.12400
N 	N 	0.84316 0.15319 0.02060 -0.11700
C 	C 	0.03718 0.98918 0.86488 -0.07100
C 	C 	0.02104 0.00752 0.84083 -0.00700
C 	C 	0.97854 0.01063 0.83714 0.01900
C 	C 	0.95195 0.99469 0.85757 -0.09000
C 	C 	0.96806 0.97481 0.88122 -0.00500
C 	C 	0.01027 0.97322 0.88528 0.00100
H 	H 	0.04153 0.01962 0.82508 0.04800
H 	H 	0.94754 0.96282 0.89696 0.03900
C 	C 	0.02554 0.95827 0.91096 0.08600
C 	C 	0.96251 0.03036 0.81242 0.07600
N 	N 	0.03767 0.94627 0.93152 -0.10700
N 	N 	0.94965 0.04616 0.79262 -0.10900
C 	C 	0.03129 0.00440 0.12997 -0.03800
C 	C 	0.01273 0.05682 0.12680 -0.01600
C 	C 	0.97028 0.06120 0.12369 0.00900
C 	C 	0.94571 0.01283 0.12498 -0.05700
C 	C 	0.96358 0.96226 0.13270 -0.01300
C 	C 	0.00614 0.95762 0.13526 -0.01100
H 	H 	0.03159 0.09380 0.12497 0.05300
H 	H 	0.94447 0.92576 0.13546 0.04500
C 	C 	0.02328 0.90531 0.14394 0.08600
C 	C 	0.95264 0.11502 0.11793 0.08200
N 	N 	0.03689 0.86332 0.15090 -0.11200
N 	N 	0.93859 0.15818 0.11332 -0.11100
C 	C 	0.14141 0.99284 0.96862 -0.06500
C 	C 	0.10549 0.00752 0.98205 0.00000
C 	C 	0.10436 0.00694 0.00950 0.01700
C 	C 	0.13949 0.99151 0.02379 -0.06600
C 	C 	0.17551 0.97737 0.01046 -0.00900
C 	C 	0.17670 0.97793 0.98298 0.00500
H 	H 	0.07833 0.01911 0.97110 0.05800
H 	H 	0.20261 0.96587 0.02149 0.03900
C 	C 	0.21447 0.96445 0.96969 0.08200
C 	C 	0.06716 0.02275 0.02287 0.09400
N 	N 	0.24470 0.95362 0.95904 -0.11300
N 	N 	0.03738 0.03539 0.03361 -0.10100
C 	C 	0.26307 0.29823 0.86527 -0.06100
C 	C 	0.22028 0.29807 0.86293 -0.00900
C 	C 	0.19876 0.24766 0.86138 0.00600
C 	C 	0.22016 0.19656 0.86301 -0.06300
C 	C 	0.26306 0.19687 0.86376 -0.01100
C 	C 	0.28460 0.24725 0.86442 0.00500
H 	H 	0.20365 0.33719 0.86276 0.05000
H 	H 	0.27969 0.15776 0.86409 0.04400
C 	C 	0.32876 0.24627 0.86335 0.08400
C 	C 	0.15511 0.24887 0.85701 0.08800
N 	N 	0.36412 0.24542 0.86249 -0.10700
N 	N 	0.12015 0.24991 0.85350 -0.11000
C 	C 	0.27117 0.69855 0.90138 -0.08200
C 	C 	0.24768 0.72149 0.92168 -0.00500
C 	C 	0.23568 0.77757 0.92070 0.00700
C 	C 	0.24631 0.81061 0.89876 -0.07700
C 	C 	0.27218 0.78839 0.87940 -0.01500
C 	C 	0.28457 0.73271 0.88060 0.00200
H 	H 	0.23852 0.69564 0.93813 0.04600
H 	H 	0.28125 0.81380 0.86279 0.01600
C 	C 	0.31034 0.71052 0.86006 0.03300
C 	C 	0.21352 0.80120 0.94256 0.09200
N 	N 	0.33098 0.69273 0.84362 -0.13200
N 	N 	0.19576 0.82010 0.96007 -0.10200
C 	C 	0.20527 0.77931 0.12797 -0.06200
C 	C 	0.21428 0.75585 0.15253 -0.00800
C 	C 	0.23386 0.70402 0.15423 0.00700
C 	C 	0.24456 0.67512 0.13110 -0.06300
C 	C 	0.23433 0.69775 0.10659 -0.01200
C 	C 	0.21486 0.74961 0.10488 0.00300
H 	H 	0.20648 0.77830 0.17032 0.05200
H 	H 	0.24251 0.67556 0.08880 0.03500
C 	C 	0.20639 0.77305 0.07934 0.07100
C 	C 	0.24397 0.68168 0.17975 0.09000
N 	N 	0.19960 0.79184 0.05888 -0.11800
N 	N 	0.25206 0.66377 0.20018 -0.10200
C 	C 	0.26790 0.28278 0.10675 -0.07900
C 	C 	0.24842 0.26339 0.08402 -0.00600
C 	C 	0.23614 0.20748 0.08209 0.00700
C 	C 	0.24252 0.17088 0.10346 -0.07900
C 	C 	0.26413 0.18986 0.12556 -0.01400
C 	C 	0.27686 0.24536 0.12727 0.00300
H 	H 	0.24268 0.29181 0.06788 0.04300
H 	H 	0.26987 0.16185 0.14185 0.01200
C 	C 	0.29882 0.26375 0.15030 0.03200
C 	C 	0.21831 0.18769 0.05789 0.08800
N 	N 	0.31642 0.27846 0.16875 -0.13600
N 	N 	0.20403 0.17182 0.03850 -0.10500
C 	C 	0.34795 0.48671 0.03283 -0.05900
C 	C 	0.31363 0.50584 0.01904 -0.01400
C 	C 	0.31391 0.50765 0.99157 0.00300
C 	C 	0.34903 0.49033 0.97765 -0.06100
C 	C 	0.38328 0.47079 0.99150 -0.00900
C 	C 	0.38294 0.46904 0.01898 0.00800
H 	H 	0.28672 0.51946 0.02973 0.03300
H 	H 	0.41037 0.45760 0.98089 0.05400
C 	C 	0.41883 0.44982 0.03283 0.09300
C 	C 	0.27776 0.52629 0.97781 0.07600
N 	N 	0.44756 0.43447 0.04394 -0.10400
N 	N 	0.24883 0.54124 0.96678 -0.11600
C 	C 	0.72006 0.70204 0.85894 -0.06000
C 	C 	0.69853 0.75269 0.85921 -0.00900
C 	C 	0.71949 0.80358 0.85842 0.00400
C 	C 	0.76260 0.80420 0.85646 -0.06100
C 	C 	0.78411 0.75354 0.85586 -0.00800
C 	C 	0.76323 0.70267 0.85750 0.00300
H 	H 	0.66539 0.75250 0.86030 0.05300
H 	H 	0.81721 0.75373 0.85436 0.05000
C 	C 	0.78648 0.65154 0.85878 0.07900
C 	C 	0.69658 0.85484 0.86072 0.07900
N 	N 	0.80511 0.61061 0.85980 -0.12100
N 	N 	0.67822 0.89587 0.86257 -0.12100
C 	C 	0.72513 0.30505 0.88753 -0.08500
C 	C 	0.74823 0.28141 0.90782 -0.00400
C 	C 	0.75964 0.22512 0.90673 0.00600
C 	C 	0.74885 0.19254 0.88467 -0.07700
C 	C 	0.72385 0.21570 0.86510 -0.01500
C 	C 	0.71179 0.27149 0.86649 0.00300
H 	H 	0.75723 0.30675 0.92448 0.04300
H 	H 	0.71481 0.19072 0.84834 0.01600
C 	C 	0.68570 0.29404 0.84622 0.02700
C 	C 	0.78082 0.20063 0.92877 0.08900
N 	N 	0.66477 0.31202 0.82998 -0.13400
N 	N 	0.79773 0.18111 0.94646 -0.10800
C 	C 	0.53419 0.49691 0.85888 -0.06200
C 	C 	0.51503 0.44450 0.85901 -0.01000
C 	C 	0.47252 0.44030 0.86186 0.00500
C 	C 	0.44857 0.48925 0.86333 -0.06400
C 	C 	0.46706 0.54088 0.85811 -0.00900
C 	C 	0.50970 0.54523 0.85619 0.00300
H 	H 	0.53352 0.40695 0.85894 0.04800
H 	H 	0.44841 0.57824 0.85727 0.04400
C 	C 	0.52774 0.59933 0.85171 0.08200
C 	C 	0.45419 0.38579 0.86434 0.08100
N 	N 	0.54208 0.64275 0.84811 -0.11200
N 	N 	0.43960 0.34207 0.86633 -0.11000
C 	C 	0.71669 0.30467 0.12433 -0.06100
C 	C 	0.75941 0.30571 0.12174 -0.01100
C 	C 	0.78170 0.25598 0.12020 0.00600
C 	C 	0.76101 0.20431 0.12054 -0.06200
C 	C 	0.71844 0.20323 0.12418 -0.00900
C 	C 	0.69628 0.25295 0.12647 0.00600
H 	H 	0.77530 0.34535 0.12078 0.04200
H 	H 	0.70251 0.16362 0.12503 0.04400
C 	C 	0.65301 0.25042 0.13210 0.08900
C 	C 	0.82584 0.25838 0.11924 0.08500
N 	N 	0.61835 0.24833 0.13662 -0.10800
N 	N 	0.86119 0.26035 0.11848 -0.10600
C 	C 	0.74119 0.69122 0.09384 -0.07800
C 	C 	0.76401 0.71588 0.11408 -0.01400
C 	C 	0.77667 0.77137 0.11214 0.00300
C 	C 	0.76645 0.80288 0.08974 -0.08300
C 	C 	0.74576 0.77752 0.06884 -0.00500
C 	C 	0.73354 0.72164 0.07061 0.00600
H 	H 	0.77060 0.69248 0.13180 0.01700
H 	H 	0.73903 0.80132 0.05126 0.04200
C 	C 	0.71450 0.69536 0.04823 0.08700
C 	C 	0.79964 0.79599 0.13342 0.03600
N 	N 	0.69931 0.67437 0.03026 -0.10900
N 	N 	0.81804 0.81569 0.15046 -0.12600
C 	C 	0.44883 0.51014 0.13703 -0.06500
C 	C 	0.47370 0.47229 0.15063 -0.00700
C 	C 	0.51647 0.47627 0.14916 0.00100
C 	C 	0.53462 0.51696 0.13271 -0.06100
C 	C 	0.50964 0.55847 0.12162 -0.01300
C 	C 	0.46703 0.55511 0.12356 0.00800
H 	H 	0.45975 0.43910 0.16198 0.04300
H 	H 	0.52327 0.59211 0.11042 0.05500
C 	C 	0.44224 0.59659 0.11054 0.07100
C 	C 	0.54113 0.44089 0.16576 0.08400
N 	N 	0.42244 0.62986 0.10011 -0.12900
N 	N 	0.56082 0.41251 0.17908 -0.10900
C 	C 	0.64133 0.50770 0.96726 -0.05900
C 	C 	0.64332 0.45736 0.98134 -0.01000
C 	C 	0.64371 0.45739 0.00883 0.00400
C 	C 	0.63945 0.50809 0.02269 -0.05900
C 	C 	0.63779 0.55842 0.00867 -0.00800
C 	C 	0.64041 0.55870 0.98122 0.00400
H 	H 	0.64498 0.41804 0.97091 0.05900
H 	H 	0.63487 0.59755 0.01913 0.06200
C 	C 	0.64456 0.61142 0.96779 0.07900
C 	C 	0.65043 0.40549 0.02255 0.07300
N 	N 	0.64792 0.65368 0.95707 -0.11900
N 	N 	0.65585 0.36392 0.03352 -0.12100
C 	C 	0.26488 0.99413 0.72070 -0.07300
C 	C 	0.22568 0.01410 0.72684 -0.00200
C 	C 	0.21148 0.01284 0.75276 0.01400
C 	C 	0.23710 0.99247 0.77289 -0.07200
C 	C 	0.27736 0.97670 0.76698 -0.01300
C 	C 	0.29142 0.97762 0.74106 0.00600
H 	H 	0.20546 0.02783 0.71124 0.04700
H 	H 	0.29745 0.96247 0.78255 0.03100
C 	C 	0.33315 0.96174 0.73550 0.07700
C 	C 	0.16997 0.02986 0.75829 0.08700
N 	N 	0.36658 0.94901 0.73106 -0.10900
N 	N 	0.13673 0.04349 0.76271 -0.10900
C 	C 	0.24904 0.98516 0.27437 -0.07300
C 	C 	0.20960 0.00565 0.26944 -0.00400
C 	C 	0.19338 0.00442 0.24405 0.01300
C 	C 	0.21680 0.98247 0.22327 -0.07500
C 	C 	0.25479 0.95773 0.22857 -0.01200
C 	C 	0.27127 0.95948 0.25393 0.00700
H 	H 	0.19199 0.02397 0.28530 0.03200
H 	H 	0.27253 0.93993 0.21265 0.04100
C 	C 	0.31178 0.93744 0.25846 0.08500
C 	C 	0.15274 0.02591 0.23943 0.07900
N 	N 	0.34424 0.91980 0.26208 -0.10900
N 	N 	0.12019 0.04313 0.23573 -0.11100
C 	C 	0.35146 0.99024 0.46643 -0.06900
C 	C 	0.38532 0.97500 0.48177 -0.00900
C 	C 	0.38283 0.97603 0.50920 0.00800
C 	C 	0.34610 0.99238 0.52150 -0.06800
C 	C 	0.31212 0.00690 0.50623 -0.00300
C 	C 	0.31452 0.00581 0.47880 0.01200
H 	H 	0.41374 0.96302 0.47235 0.05200
H 	H 	0.28380 0.01915 0.51571 0.03700
C 	C 	0.27871 0.01955 0.46348 0.08000
C 	C 	0.41810 0.96027 0.52460 0.08800
N 	N 	0.25005 0.03058 0.45121 -0.11300
N 	N 	0.44633 0.94761 0.53693 -0.10800
C 	C 	0.72098 0.00562 0.70888 -0.06000
C 	C 	0.75898 0.98173 0.71502 -0.01900
C 	C 	0.77332 0.98180 0.74092 -0.00000
C 	C 	0.74908 0.00517 0.76101 -0.05700
C 	C 	0.70986 0.02527 0.75511 -0.01200
C 	C 	0.69567 0.02553 0.72920 0.00400
H 	H 	0.77824 0.96557 0.69944 0.04500
H 	H 	0.69080 0.04207 0.77064 0.03300
C 	C 	0.65505 0.04607 0.72364 0.07800
C 	C 	0.81367 0.96028 0.74647 0.08500
N 	N 	0.62251 0.06253 0.71918 -0.11400
N 	N 	0.84600 0.94306 0.75091 -0.11000
C 	C 	0.53305 0.01378 0.61313 -0.06100
C 	C 	0.51579 0.99904 0.63738 -0.01600
C 	C 	0.47317 0.99716 0.64041 -0.00800
C 	C 	0.44763 0.01083 0.61910 -0.04400
C 	C 	0.46485 0.02799 0.59532 -0.01500
C 	C 	0.50718 0.02798 0.59190 0.01000
H 	H 	0.53551 0.98852 0.65377 0.04400
H 	H 	0.44507 0.03851 0.57895 0.05000
C 	C 	0.52361 0.03891 0.56606 0.09400
C 	C 	0.45592 0.98059 0.66531 0.07800
N 	N 	0.53663 0.04767 0.54535 -0.09900
N 	N 	0.44209 0.96731 0.68525 -0.11000
C 	C 	0.73959 0.98941 0.26176 -0.07500
C 	C 	0.77351 0.95771 0.25399 -0.00900
C 	C 	0.78759 0.95990 0.22809 0.00400
C 	C 	0.76725 0.99365 0.20958 -0.07000
C 	C 	0.73524 0.02847 0.21780 -0.00500
C 	C 	0.72118 0.02638 0.24377 0.01500
H 	H 	0.78856 0.93063 0.26805 0.02900
H 	H 	0.72005 0.05525 0.20369 0.04500
C 	C 	0.68684 0.06053 0.25148 0.08500
C 	C 	0.82309 0.92767 0.22068 0.07900
N 	N 	0.65932 0.08787 0.25766 -0.10600
N 	N 	0.85151 0.90186 0.21474 -0.11300
C 	C 	0.53751 0.99715 0.34569 -0.07200
C 	C 	0.51655 0.94703 0.34113 -0.00800
C 	C 	0.47394 0.94437 0.34384 0.00300
C 	C 	0.45183 0.99292 0.35088 -0.07100
C 	C 	0.47210 0.04455 0.35047 -0.00300
C 	C 	0.51477 0.04698 0.34838 0.01200
H 	H 	0.53371 0.90929 0.33707 0.04400
H 	H 	0.45488 0.08267 0.35346 0.04700
C 	C 	0.53480 0.10053 0.34992 0.07600
C 	C 	0.45349 0.89202 0.33901 0.08300
N 	N 	0.55075 0.14350 0.35117 -0.11500
N 	N 	0.43722 0.85000 0.33510 -0.10700
C 	C 	0.63752 0.99793 0.51062 -0.06400
C 	C 	0.64278 0.04771 0.49644 -0.00100
C 	C 	0.64353 0.04735 0.46899 0.01100
C 	C 	0.63638 0.99717 0.45524 -0.06700
C 	C 	0.63119 0.94740 0.46933 -0.00800
C 	C 	0.63307 0.94710 0.49676 0.00400
H 	H 	0.64687 0.08681 0.50679 0.05900
H 	H 	0.62626 0.90857 0.45890 0.05900
C 	C 	0.63228 0.89421 0.51030 0.08100
C 	C 	0.65379 0.09809 0.45520 0.07200
N 	N 	0.63158 0.85178 0.52108 -0.11600
N 	N 	0.66205 0.13872 0.44417 -0.12300
C 	C 	0.75536 0.49324 0.71664 -0.06400
C 	C 	0.71618 0.51403 0.72226 -0.01000
C 	C 	0.70154 0.51460 0.74813 0.00700
C 	C 	0.72657 0.49490 0.76871 -0.06200
C 	C 	0.76668 0.47769 0.76325 -0.01300
C 	C 	0.78125 0.47697 0.73741 0.00400
H 	H 	0.69643 0.52745 0.70636 0.04800
H 	H 	0.78628 0.46366 0.77912 0.03000
C 	C 	0.82288 0.45986 0.73238 0.07600
C 	C 	0.66028 0.53325 0.75321 0.08800
N 	N 	0.85623 0.44615 0.72833 -0.11500
N 	N 	0.62723 0.54819 0.75727 -0.10800
C 	C 	0.75047 0.69349 0.61859 -0.06400
C 	C 	0.74478 0.71941 0.59420 -0.01100
C 	C 	0.72568 0.77149 0.59259 0.00300
C 	C 	0.71180 0.79797 0.61561 -0.06300
C 	C 	0.71669 0.77163 0.63997 -0.00700
C 	C 	0.73597 0.71962 0.64161 0.00600
H 	H 	0.75601 0.69946 0.57650 0.03600
H 	H 	0.70583 0.79192 0.65767 0.04900
C 	C 	0.74183 0.69425 0.66705 0.08900
C 	C 	0.72200 0.79853 0.56737 0.07000
N 	N 	0.74651 0.67391 0.68742 -0.10500
N 	N 	0.71914 0.82022 0.54718 -0.11600
C 	C 	0.76543 0.30281 0.58887 -0.07700
C 	C 	0.79381 0.25884 0.58934 -0.01600
C 	C 	0.78067 0.20362 0.58667 0.00000
C 	C 	0.73850 0.19192 0.58444 -0.08100
C 	C 	0.71076 0.23619 0.58123 -0.01600
C 	C 	0.72409 0.29143 0.58306 0.00100
H 	H 	0.82601 0.26749 0.59250 0.04800
H 	H 	0.67854 0.22765 0.57811 0.04800
C 	C 	0.69541 0.33607 0.57826 0.07900
C 	C 	0.81071 0.15957 0.58530 0.07900
N 	N 	0.67241 0.37180 0.57440 -0.11300
N 	N 	0.83481 0.12434 0.58420 -0.11100
C 	C 	0.73996 0.50377 0.21646 -0.06500
C 	C 	0.71881 0.47591 0.23651 -0.00700
C 	C 	0.73526 0.47329 0.26191 0.00000
C 	C 	0.77314 0.49913 0.26737 -0.06500
C 	C 	0.79565 0.52301 0.24684 -0.00900
C 	C 	0.77943 0.52516 0.22144 0.00200
H 	H 	0.68890 0.45817 0.23260 0.05100
H 	H 	0.82536 0.54132 0.25081 0.04600
C 	C 	0.80351 0.54928 0.20056 0.06100
C 	C 	0.71248 0.44570 0.28243 0.07600
N 	N 	0.82280 0.56860 0.18383 -0.12700
N 	N 	0.69425 0.42356 0.29887 -0.11100
C 	C 	0.76752 0.29781 0.36171 -0.06100
C 	C 	0.76055 0.27351 0.33706 -0.00600
C 	C 	0.74068 0.22190 0.33508 0.00700
C 	C 	0.72753 0.19416 0.35802 -0.06000
C 	C 	0.73390 0.21894 0.38260 -0.01200
C 	C 	0.75376 0.27048 0.38458 0.00500
H 	H 	0.77096 0.29454 0.31944 0.05500
H 	H 	0.72328 0.19807 0.40022 0.04300
C 	C 	0.75895 0.29573 0.41010 0.07400
C 	C 	0.73315 0.19837 0.30943 0.09300
N 	N 	0.76311 0.31598 0.43054 -0.11700
N 	N 	0.72714 0.17952 0.28889 -0.10100
C 	C 	0.76661 0.69255 0.39066 -0.07600
C 	C 	0.72417 0.70000 0.39248 -0.01400
C 	C 	0.70690 0.75322 0.39039 -0.00100
C 	C 	0.73262 0.80047 0.38753 -0.07600
C 	C 	0.77520 0.79340 0.38882 -0.01700
C 	C 	0.79238 0.73996 0.38978 -0.00100
H 	H 	0.70435 0.66390 0.39416 0.04600
H 	H 	0.79510 0.82952 0.38780 0.04300
C 	C 	0.83635 0.73440 0.38862 0.07500
C 	C 	0.66286 0.75829 0.39017 0.08000
N 	N 	0.87158 0.73008 0.38768 -0.11200
N 	N 	0.62757 0.76214 0.39001 -0.11000
C 	C 	0.85314 0.49803 0.46733 -0.05800
C 	C 	0.88785 0.48033 0.48128 -0.00900
C 	C 	0.88849 0.48239 0.50876 0.00900
C 	C 	0.85414 0.50250 0.52254 -0.06000
C 	C 	0.81959 0.52057 0.50867 -0.01200
C 	C 	0.81878 0.51822 0.48119 0.00400
H 	H 	0.91448 0.46530 0.47073 0.05300
H 	H 	0.79309 0.53579 0.51930 0.03400
C 	C 	0.78216 0.53508 0.46744 0.08200
C 	C 	0.92450 0.46378 0.52266 0.09300
N 	N 	0.75286 0.54859 0.45641 -0.11200
N 	N 	0.95332 0.44885 0.53380 -0.10100
C 	C 	0.23187 0.50900 0.72861 -0.06600
C 	C 	0.21378 0.47481 0.74771 -0.00700
C 	C 	0.22901 0.47418 0.77346 -0.00000
C 	C 	0.26258 0.50831 0.78024 -0.06200
C 	C 	0.28211 0.53982 0.76075 -0.01000
C 	C 	0.26718 0.54004 0.73500 0.00200
H 	H 	0.18712 0.45004 0.74275 0.04900
H 	H 	0.30861 0.56490 0.76575 0.04700
C 	C 	0.28862 0.57162 0.71516 0.06000
C 	C 	0.20928 0.43969 0.79294 0.07800
N 	N 	0.30579 0.59691 0.69927 -0.13000
N 	N 	0.19350 0.41204 0.80855 -0.11200
C 	C 	0.25809 0.19599 0.62908 -0.06400
C 	C 	0.24961 0.22863 0.60693 -0.01100
C 	C 	0.22995 0.28011 0.60958 0.00300
C 	C 	0.21862 0.29945 0.63467 -0.06500
C 	C 	0.22818 0.26769 0.65693 -0.00700
C 	C 	0.24781 0.21606 0.65430 0.00500
H 	H 	0.25804 0.21368 0.58757 0.04000
H 	H 	0.21967 0.28269 0.67626 0.05100
C 	C 	0.25792 0.18451 0.67756 0.08700
C 	C 	0.22184 0.31317 0.58645 0.06300
N 	N 	0.26599 0.15924 0.69620 -0.10400
N 	N 	0.21533 0.33969 0.56795 -0.12400
C 	C 	0.22243 0.68846 0.60171 -0.07800
C 	C 	0.26471 0.69709 0.59948 -0.01500
C 	C 	0.28073 0.75113 0.59831 -0.00100
C 	C 	0.25395 0.79756 0.59825 -0.07800
C 	C 	0.21160 0.78857 0.59767 -0.01500
C 	C 	0.19561 0.73476 0.60014 -0.00000
H 	H 	0.28534 0.66168 0.59982 0.04500
H 	H 	0.19096 0.82394 0.59680 0.04300
C 	C 	0.15183 0.72809 0.60258 0.07700
C 	C 	0.32461 0.75833 0.59844 0.07700
N 	N 	0.11677 0.72291 0.60454 -0.10800
N 	N 	0.35977 0.76394 0.59856 -0.11000
C 	C 	0.02967 0.50235 0.64529 -0.06400
C 	C 	0.00667 0.45337 0.64826 -0.01100
C 	C 	0.96396 0.45528 0.64648 0.00700
C 	C 	0.94435 0.50623 0.64069 -0.06500
C 	C 	0.96667 0.55595 0.64274 -0.00900
C 	C 	0.00924 0.55422 0.64565 0.00700
H 	H 	0.02200 0.41354 0.65031 0.04600
H 	H 	0.95133 0.59573 0.64048 0.04600
C 	C 	0.03173 0.60555 0.64892 0.08000
C 	C 	0.94049 0.40502 0.65052 0.07800
N 	N 	0.04976 0.64667 0.65154 -0.11500
N 	N 	0.92166 0.36477 0.65377 -0.12000
C 	C 	0.22504 0.47226 0.28126 -0.06100
C 	C 	0.25539 0.50945 0.27271 -0.01300
C 	C 	0.26825 0.50929 0.24643 0.00700
C 	C 	0.25036 0.47176 0.22845 -0.06400
C 	C 	0.21823 0.43717 0.23668 -0.01000
C 	C 	0.20532 0.43747 0.26288 0.00400
H 	H 	0.27013 0.53694 0.28672 0.04600
H 	H 	0.20365 0.40940 0.22272 0.03300
C 	C 	0.17148 0.40246 0.27067 0.08100
C 	C 	0.30081 0.54619 0.23837 0.08600
N 	N 	0.14437 0.37443 0.27692 -0.11200
N 	N 	0.32689 0.57576 0.23190 -0.10800
C 	C 	0.27045 0.78529 0.36613 -0.06400
C 	C 	0.22789 0.78497 0.36958 -0.01100
C 	C 	0.20644 0.73457 0.37093 0.00500
C 	C 	0.22789 0.68355 0.36954 -0.06300
C 	C 	0.27020 0.68391 0.36479 -0.01000
C 	C 	0.29146 0.73437 0.36268 0.00500
H 	H 	0.21149 0.82407 0.37147 0.04100
H 	H 	0.28669 0.64486 0.36308 0.04500
C 	C 	0.33440 0.73348 0.35599 0.08700
C 	C 	0.16237 0.73566 0.37295 0.08200
N 	N 	0.36879 0.73273 0.35062 -0.10600
N 	N 	0.12708 0.73664 0.37458 -0.10900
C 	C 	0.25242 0.17222 0.39803 -0.07800
C 	C 	0.22619 0.19472 0.37896 -0.01300
C 	C 	0.21283 0.24985 0.38088 0.00200
C 	C 	0.22547 0.28310 0.40218 -0.08100
C 	C 	0.24985 0.25998 0.42199 -0.00600
C 	C 	0.26304 0.20450 0.42021 0.00800
H 	H 	0.21750 0.16996 0.36205 0.01500
H 	H 	0.25876 0.28524 0.43870 0.04600
C 	C 	0.28650 0.18069 0.44145 0.09100
C 	C 	0.18709 0.27260 0.36045 0.04000
N 	N 	0.30529 0.16163 0.45847 -0.10400
N 	N 	0.16650 0.29084 0.34409 -0.12400
C 	C 	0.04610 0.49194 0.36341 -0.06300
C 	C 	0.02550 0.44113 0.35988 -0.01000
C 	C 	0.98271 0.43965 0.35855 0.00400
C 	C 	0.96023 0.48998 0.35979 -0.06500
C 	C 	0.98137 0.54080 0.35810 -0.01000
C 	C 	0.02408 0.54226 0.36029 0.00300
H 	H 	0.04262 0.40240 0.36005 0.04800
H 	H 	0.96437 0.57954 0.35683 0.04600
C 	C 	0.04467 0.59547 0.35959 0.08100
C 	C 	0.96245 0.38635 0.35646 0.08100
N 	N 	0.06105 0.63819 0.35900 -0.10900
N 	N 	0.94632 0.34357 0.35477 -0.11200
C 	C 	0.13214 0.48301 0.53432 -0.05900
C 	C 	0.16748 0.46316 0.52191 -0.01300
C 	C 	0.17022 0.46261 0.49447 0.00400
C 	C 	0.13705 0.48185 0.47919 -0.06100
C 	C 	0.10142 0.50099 0.49168 -0.00900
C 	C 	0.09884 0.50173 0.51912 0.00800
H 	H 	0.19312 0.44886 0.53364 0.04000
H 	H 	0.07569 0.51522 0.48003 0.05300
C 	C 	0.06204 0.52215 0.53153 0.09400
C 	C 	0.20759 0.44378 0.48220 0.08000
N 	N 	0.03259 0.53853 0.54149 -0.10100
N 	N 	0.23751 0.42869 0.47237 -0.11400
