data_crystal

_cell_length_a 26.10886
_cell_length_b 30.53982
_cell_length_c 16.46289
_cell_angle_alpha 90.00010
_cell_angle_beta  90.00043
_cell_angle_gamma 90.00277

_symmetry_space_group_name_	'P 1'
_symmetry_space_group_name_H-M	'P 1'

loop_
_symmetry_equiv_pos_as_xyz
  x,y,z

loop_
_atom_site_label
_atom_site_type_symbol
_atom_site_fract_x
_atom_site_fract_y
_atom_site_fract_z
_atom_site_charge
Co	Co	0.45115 0.34857 0.83538 1.18100
O 	O 	0.37929 0.32656 0.79920 -0.39300
Co	Co	0.57766 0.35423 0.84764 1.18100
O 	O 	0.51096 0.33537 0.76046 -0.46600
O 	O 	0.55386 0.32606 0.95038 -0.43200
O 	O 	0.40655 0.38659 0.75153 -0.36100
C 	C 	0.51079 0.30383 0.96151 0.31300
O 	O 	0.57747 0.29541 0.77568 -0.36800
C 	C 	0.66098 0.39556 0.81160 0.28700
C 	C 	0.49748 0.41348 0.91869 0.30700
O 	O 	0.65021 0.37701 0.87984 -0.38600
O 	O 	0.62324 0.39066 0.76188 -0.35800
O 	O 	0.45148 0.39798 0.92817 -0.37900
O 	O 	0.51852 0.39745 0.85417 -0.47500
O 	O 	0.47638 0.29923 0.90295 -0.53500
C 	C 	0.36958 0.35861 0.75102 0.29200
C 	C 	0.53125 0.29751 0.74656 0.30100
H 	H 	0.45499 0.27156 0.90060 0.16100
Co	Co	0.42960 0.65170 0.11412 1.18000
O 	O 	0.35608 0.67564 0.13397 -0.39400
Co	Co	0.55629 0.64595 0.12003 1.18100
O 	O 	0.48525 0.66861 0.19543 -0.46900
O 	O 	0.53789 0.66756 0.00921 -0.40200
O 	O 	0.37747 0.61654 0.19189 -0.36000
C 	C 	0.49579 0.68901 0.98811 0.29400
O 	O 	0.55181 0.70846 0.17908 -0.36300
C 	C 	0.63902 0.60949 0.17357 0.28500
C 	C 	0.47988 0.58400 0.04752 0.29700
O 	O 	0.63047 0.62293 0.10079 -0.38200
O 	O 	0.59915 0.61628 0.21833 -0.35400
O 	O 	0.43455 0.59853 0.02975 -0.36600
O 	O 	0.49774 0.60203 0.11271 -0.47000
O 	O 	0.45881 0.69720 0.04091 -0.51700
C 	C 	0.34116 0.64465 0.18106 0.28800
C 	C 	0.50497 0.70714 0.20570 0.30100
H 	H 	0.43810 0.72511 0.03509 0.16800
Co	Co	0.07030 0.34390 0.61849 1.18100
O 	O 	0.14419 0.32056 0.63923 -0.39400
Co	Co	0.94441 0.35325 0.62551 1.18200
O 	O 	0.01522 0.33167 0.70259 -0.47400
O 	O 	0.96273 0.32938 0.51641 -0.42700
O 	O 	0.12202 0.38077 0.69263 -0.37000
C 	C 	0.00160 0.30291 0.50116 0.33100
O 	O 	0.94764 0.29262 0.69122 -0.37600
C 	C 	0.86412 0.39322 0.67868 0.28900
C 	C 	0.02207 0.41121 0.54591 0.30900
O 	O 	0.86992 0.37620 0.60763 -0.38400
O 	O 	0.90522 0.38797 0.72096 -0.35600
O 	O 	0.06586 0.39376 0.52741 -0.37600
O 	O 	0.00421 0.39535 0.61300 -0.47200
O 	O 	0.03749 0.29576 0.55617 -0.53900
C 	C 	0.15854 0.35287 0.68399 0.29100
C 	C 	0.99447 0.29412 0.71742 0.31300
H 	H 	0.05413 0.26582 0.55970 0.16500
Co	Co	0.04898 0.65274 0.34091 1.18100
O 	O 	0.11986 0.67694 0.30385 -0.39300
Co	Co	0.92319 0.64275 0.36606 1.18100
O 	O 	0.98559 0.66536 0.27340 -0.46400
O 	O 	0.95032 0.66750 0.47024 -0.42100
O 	O 	0.09258 0.61814 0.25109 -0.35900
C 	C 	0.99469 0.68834 0.47900 0.34100
O 	O 	0.91995 0.70418 0.30295 -0.36900
C 	C 	0.83882 0.60365 0.32570 0.28200
C 	C 	0.00914 0.58500 0.42387 0.29500
O 	O 	0.84912 0.62111 0.39544 -0.37700
O 	O 	0.87823 0.60728 0.27894 -0.35800
O 	O 	0.05467 0.60175 0.42934 -0.37700
O 	O 	0.98430 0.60104 0.36275 -0.46500
O 	O 	0.02245 0.69858 0.41507 -0.54600
C 	C 	0.12937 0.64627 0.25233 0.29000
C 	C 	0.96333 0.70286 0.26486 0.30600
H 	H 	0.03507 0.72967 0.40780 0.17300
Co	Co	0.56714 0.84734 0.61480 1.17800
O 	O 	0.64157 0.82300 0.62651 -0.39000
Co	Co	0.44162 0.86025 0.61911 1.18200
O 	O 	0.50942 0.82960 0.69353 -0.45800
O 	O 	0.46176 0.84347 0.50677 -0.43000
O 	O 	0.61888 0.87695 0.70015 -0.36700
C 	C 	0.49752 0.81475 0.48700 0.33700
O 	O 	0.43988 0.79524 0.66703 -0.36800
C 	C 	0.36081 0.89913 0.67522 0.28200
C 	C 	0.52277 0.92024 0.55710 0.30900
O 	O 	0.36940 0.88803 0.60084 -0.37900
O 	O 	0.39972 0.88841 0.71951 -0.35300
O 	O 	0.56648 0.90344 0.53714 -0.37800
O 	O 	0.50312 0.90079 0.61961 -0.47400
O 	O 	0.53627 0.80526 0.53604 -0.53500
C 	C 	0.65549 0.85056 0.68138 0.29000
C 	C 	0.48579 0.79201 0.69696 0.29300
H 	H 	0.55590 0.77700 0.52731 0.16700
Co	Co	0.55103 0.15463 0.34234 1.18200
O 	O 	0.62204 0.18067 0.30924 -0.38500
Co	Co	0.42375 0.14205 0.34623 1.17800
O 	O 	0.49247 0.15999 0.26184 -0.47300
O 	O 	0.44093 0.17707 0.44530 -0.42100
O 	O 	0.60297 0.11693 0.26825 -0.35500
C 	C 	0.48499 0.19719 0.46001 0.33100
O 	O 	0.42302 0.19713 0.26535 -0.36700
C 	C 	0.34235 0.09839 0.30766 0.28300
C 	C 	0.50754 0.09288 0.43691 0.29300
O 	O 	0.34884 0.12188 0.37196 -0.38300
O 	O 	0.38280 0.09984 0.26244 -0.35800
O 	O 	0.55230 0.11122 0.44406 -0.37000
O 	O 	0.48663 0.10250 0.36730 -0.45900
O 	O 	0.51883 0.20392 0.40175 -0.53800
C 	C 	0.63668 0.14790 0.26592 0.28500
C 	C 	0.46985 0.19557 0.23950 0.30600
H 	H 	0.53711 0.23317 0.39871 0.16800
Co	Co	0.95024 0.83534 0.85375 1.18200
O 	O 	0.87776 0.80891 0.83130 -0.39400
Co	Co	0.07439 0.85125 0.86076 1.17600
O 	O 	0.00980 0.82137 0.77885 -0.46500
O 	O 	0.05320 0.83141 0.97135 -0.43100
O 	O 	0.90040 0.86601 0.76739 -0.35600
C 	C 	0.01366 0.80582 0.98758 0.31800
O 	O 	0.07857 0.78711 0.80813 -0.37700
C 	C 	0.15719 0.88832 0.80983 0.28400
C 	C 	0.98822 0.90919 0.92179 0.29600
O 	O 	0.14845 0.87481 0.88270 -0.38700
O 	O 	0.11745 0.88212 0.76462 -0.35900
O 	O 	0.94731 0.88699 0.93937 -0.38100
O 	O 	0.01142 0.89198 0.85916 -0.45800
O 	O 	0.98177 0.79313 0.93027 -0.53700
C 	C 	0.86452 0.83763 0.77807 0.29100
C 	C 	0.03386 0.78427 0.77433 0.30300
H 	H 	0.96375 0.76395 0.93645 0.16000
Co	Co	0.93871 0.15334 0.12682 1.18000
O 	O 	0.86862 0.18285 0.15567 -0.38500
Co	Co	0.06295 0.13211 0.11922 1.18100
O 	O 	0.99929 0.16069 0.20369 -0.46200
O 	O 	0.04411 0.15821 0.01239 -0.40400
O 	O 	0.88637 0.12167 0.20862 -0.36400
C 	C 	0.00651 0.18643 0.99862 0.29100
O 	O 	0.07016 0.19341 0.18076 -0.36800
C 	C 	0.14112 0.08704 0.16811 0.28300
C 	C 	0.97454 0.08228 0.04853 0.29800
O 	O 	0.13498 0.10420 0.09702 -0.37700
O 	O 	0.10119 0.09477 0.21209 -0.35700
O 	O 	0.93271 0.10415 0.03544 -0.37300
O 	O 	0.99744 0.09574 0.11369 -0.46100
O 	O 	0.97299 0.19726 0.05577 -0.51200
C 	C 	0.85283 0.15261 0.20446 0.28600
C 	C 	0.02568 0.19605 0.21544 0.30000
H 	H 	0.95700 0.22751 0.05483 0.16600
C 	C 	0.97957 0.03666 0.02091 -0.07700
C 	C 	0.93567 0.01069 0.00776 0.08000
C 	C 	0.93870 0.97595 0.95310 -0.05800
C 	C 	0.98646 0.95742 0.93414 -0.08200
C 	C 	0.03129 0.98262 0.94805 0.04600
C 	C 	0.02741 0.02158 0.99385 -0.07400
H 	H 	0.90382 0.95942 0.93487 0.04900
H 	H 	0.06105 0.04193 0.00236 0.04700
C 	C 	0.88764 0.01591 0.05933 -0.11900
C 	C 	0.07906 0.97550 0.89795 -0.10700
C 	C 	0.87672 0.97536 0.11202 -0.01300
H 	H 	0.87184 0.94581 0.07343 0.03500
H 	H 	0.84002 0.98062 0.14481 0.02400
C 	C 	0.07800 0.00496 0.82213 -0.01600
H 	H 	0.07376 0.03979 0.84072 0.02500
H 	H 	0.04460 0.99614 0.78352 0.03500
H 	H 	0.88946 0.04441 0.10088 0.07000
H 	H 	0.08319 0.94094 0.87991 0.04000
C 	C 	0.91887 0.96699 0.17461 -0.16200
C 	C 	0.12679 0.00089 0.77156 -0.16200
H 	H 	0.92561 0.99670 0.21203 0.06400
H 	H 	0.90710 0.93983 0.21538 0.05900
H 	H 	0.95511 0.95747 0.14400 0.07300
H 	H 	0.85451 0.02147 0.01822 0.05700
H 	H 	0.16132 0.00515 0.81008 0.05500
H 	H 	0.12706 0.02660 0.72387 0.05500
H 	H 	0.12823 0.96858 0.74106 0.07100
H 	H 	0.11324 0.98363 0.93542 0.04300
C 	C 	0.29093 0.08567 0.27645 -0.08800
C 	C 	0.24668 0.08854 0.32602 0.05500
C 	C 	0.19862 0.09251 0.28851 -0.03500
C 	C 	0.19260 0.08252 0.20570 -0.08500
C 	C 	0.23608 0.06960 0.15984 0.05100
C 	C 	0.28521 0.07375 0.19443 -0.03300
H 	H 	0.16580 0.10258 0.32407 0.04700
H 	H 	0.31878 0.06731 0.15761 0.04500
C 	C 	0.25028 0.08668 0.41834 -0.11400
C 	C 	0.23077 0.04925 0.07626 -0.11300
C 	C 	0.20891 0.05832 0.45952 -0.01800
H 	H 	0.17026 0.07273 0.45083 0.02600
H 	H 	0.21635 0.05827 0.52602 0.02200
C 	C 	0.24375 0.08232 0.00906 0.00000
H 	H 	0.28512 0.09078 0.01211 0.02500
H 	H 	0.22140 0.11295 0.01740 0.04400
H 	H 	0.28766 0.07302 0.43779 0.06100
H 	H 	0.19178 0.03554 0.06695 0.06200
C 	C 	0.20916 0.01085 0.42982 -0.15700
C 	C 	0.23205 0.06365 0.92501 -0.17700
H 	H 	0.24811 0.99658 0.43475 0.05700
H 	H 	0.18262 0.99110 0.46770 0.05600
H 	H 	0.19617 0.00883 0.36574 0.06400
H 	H 	0.24757 0.12058 0.44245 0.05600
H 	H 	0.25338 0.03264 0.91514 0.05300
H 	H 	0.24375 0.08752 0.87764 0.05400
H 	H 	0.19032 0.05735 0.91880 0.05700
H 	H 	0.25744 0.02095 0.07155 0.05100
C 	C 	0.79763 0.14446 0.21870 -0.08700
C 	C 	0.77878 0.13287 0.29664 0.05100
C 	C 	0.72554 0.13176 0.31005 -0.03000
C 	C 	0.69108 0.14012 0.24659 -0.08300
C 	C 	0.70992 0.14713 0.16717 0.04700
C 	C 	0.76302 0.15023 0.15429 -0.02900
H 	H 	0.71098 0.12527 0.37056 0.03900
H 	H 	0.77739 0.15751 0.09397 0.04200
C 	C 	0.81451 0.12121 0.36619 -0.11300
C 	C 	0.67387 0.15253 0.09575 -0.10300
C 	C 	0.81411 0.07181 0.38463 -0.01100
H 	H 	0.77419 0.06016 0.39386 0.02600
H 	H 	0.83517 0.06611 0.44234 0.02300
C 	C 	0.65975 0.20083 0.08263 -0.04400
H 	H 	0.69480 0.22153 0.08392 0.04000
H 	H 	0.63381 0.21193 0.13207 0.04100
H 	H 	0.85441 0.13251 0.35640 0.06000
H 	H 	0.63847 0.13284 0.10462 0.05600
C 	C 	0.83946 0.04460 0.31789 -0.16300
C 	C 	0.63301 0.20758 0.00108 -0.07900
H 	H 	0.88034 0.05396 0.31127 0.07300
H 	H 	0.83768 0.00938 0.33440 0.05600
H 	H 	0.81940 0.04906 0.25899 0.07100
H 	H 	0.80129 0.13878 0.42151 0.04700
H 	H 	0.65998 0.20092 0.95037 0.02700
H 	H 	0.61963 0.24200 0.99613 0.03300
H 	H 	0.59955 0.18536 0.99552 0.02600
H 	H 	0.69258 0.13939 0.04010 0.05000
C 	C 	0.20949 0.89008 0.77604 -0.09000
C 	C 	0.22739 0.85837 0.71961 0.05800
C 	C 	0.27582 0.86369 0.68431 -0.03300
C 	C 	0.30840 0.89771 0.70866 -0.08400
C 	C 	0.29160 0.92817 0.76776 0.04900
C 	C 	0.24206 0.92417 0.80044 -0.03300
H 	H 	0.28923 0.83981 0.64041 0.04200
H 	H 	0.22861 0.94803 0.84433 0.03100
C 	C 	0.19800 0.81644 0.70183 -0.11800
C 	C 	0.32409 0.96729 0.79131 -0.11600
C 	C 	0.22100 0.77667 0.74571 -0.01200
H 	H 	0.26202 0.77273 0.72913 0.02600
H 	H 	0.20053 0.74676 0.72499 0.02400
C 	C 	0.31206 0.00658 0.73652 -0.01600
H 	H 	0.27137 0.01644 0.74464 0.02300
H 	H 	0.31785 0.99738 0.67193 0.02600
H 	H 	0.15677 0.81828 0.71585 0.06800
H 	H 	0.36557 0.95947 0.78856 0.06100
C 	C 	0.21613 0.77987 0.83796 -0.15900
C 	C 	0.34634 0.04566 0.75622 -0.16100
H 	H 	0.22898 0.74864 0.86535 0.05000
H 	H 	0.24054 0.80668 0.86199 0.06300
H 	H 	0.17577 0.78559 0.85610 0.06000
H 	H 	0.19982 0.81009 0.63538 0.05000
H 	H 	0.34103 0.05590 0.82044 0.05100
H 	H 	0.33616 0.07357 0.71613 0.05300
H 	H 	0.38720 0.03716 0.74584 0.05500
H 	H 	0.31614 0.97626 0.85559 0.04500
C 	C 	0.81093 0.84650 0.75612 -0.08700
C 	C 	0.77145 0.84839 0.81545 0.05200
C 	C 	0.72049 0.85304 0.78985 -0.03300
C 	C 	0.70870 0.85657 0.70725 -0.09400
C 	C 	0.74849 0.86106 0.64968 0.05800
C 	C 	0.79930 0.85478 0.67448 -0.03400
H 	H 	0.68979 0.85268 0.83423 0.03400
H 	H 	0.82998 0.85689 0.63022 0.04300
C 	C 	0.78302 0.84817 0.90600 -0.11100
C 	C 	0.73801 0.87904 0.56540 -0.11500
C 	C 	0.80857 0.89076 0.93497 -0.02000
H 	H 	0.84419 0.89714 0.90029 0.03600
H 	H 	0.81951 0.88677 0.99978 0.02100
C 	C 	0.73758 0.92928 0.56689 -0.01700
H 	H 	0.77679 0.94158 0.58012 0.02800
H 	H 	0.71163 0.94107 0.61561 0.03100
H 	H 	0.74723 0.84318 0.94156 0.04200
H 	H 	0.70127 0.86660 0.54072 0.06000
C 	C 	0.77319 0.93044 0.92766 -0.15500
C 	C 	0.71958 0.94835 0.48605 -0.16200
H 	H 	0.73686 0.92464 0.96110 0.05100
H 	H 	0.79238 0.95959 0.95414 0.04700
H 	H 	0.76451 0.93745 0.86291 0.06000
H 	H 	0.80729 0.81975 0.92230 0.05500
H 	H 	0.74438 0.93672 0.43563 0.05600
H 	H 	0.72153 0.98464 0.48854 0.05600
H 	H 	0.67929 0.93863 0.47401 0.06300
H 	H 	0.76819 0.86770 0.52256 0.05100
C 	C 	0.49575 0.05184 0.48182 -0.09400
C 	C 	0.46917 0.01687 0.44461 0.05500
C 	C 	0.48250 0.97386 0.46537 -0.03100
C 	C 	0.50997 0.96564 0.53662 -0.10700
C 	C 	0.52665 0.00121 0.58528 0.06200
C 	C 	0.52058 0.04415 0.55605 -0.03300
H 	H 	0.46872 0.94673 0.42903 0.03300
H 	H 	0.53738 0.07130 0.58906 0.04000
C 	C 	0.42157 0.02521 0.39471 -0.10500
C 	C 	0.55329 0.99409 0.66600 -0.11900
C 	C 	0.37504 0.99715 0.41958 -0.02400
H 	H 	0.38243 0.96192 0.40780 0.03100
H 	H 	0.34200 0.00664 0.38083 0.03000
C 	C 	0.61167 0.99376 0.65557 -0.01600
H 	H 	0.62442 0.02461 0.62590 0.02900
H 	H 	0.62299 0.96587 0.61617 0.04200
H 	H 	0.41004 0.05972 0.40227 0.03600
H 	H 	0.54056 0.96339 0.69574 0.06800
C 	C 	0.35988 0.00353 0.50862 -0.15300
C 	C 	0.63894 0.98952 0.73730 -0.16300
H 	H 	0.35421 0.03879 0.52242 0.05600
H 	H 	0.32357 0.98584 0.52084 0.05700
H 	H 	0.38963 0.99009 0.54984 0.06200
H 	H 	0.43042 0.01941 0.32959 0.05800
H 	H 	0.62918 0.01765 0.77718 0.05300
H 	H 	0.68103 0.98929 0.72772 0.05600
H 	H 	0.62778 0.95859 0.76802 0.07100
H 	H 	0.54219 0.02083 0.70829 0.04700
C 	C 	0.97646 0.73266 0.19724 -0.09800
C 	C 	0.93883 0.75638 0.15293 0.06100
C 	C 	0.95525 0.78996 0.10117 -0.03100
C 	C 	0.00548 0.78978 0.07111 -0.09700
C 	C 	0.04295 0.76406 0.11098 0.05600
C 	C 	0.02835 0.73812 0.17738 -0.03700
H 	H 	0.92687 0.81076 0.07232 0.03900
H 	H 	0.05733 0.72098 0.21195 0.02500
C 	C 	0.88403 0.73997 0.14344 -0.11600
C 	C 	0.09872 0.76492 0.08550 -0.11000
C 	C 	0.87475 0.71879 0.05991 -0.02100
H 	H 	0.88338 0.74235 0.01033 0.03000
H 	H 	0.83352 0.71035 0.05493 0.02700
C 	C 	0.12649 0.80413 0.12367 -0.01600
H 	H 	0.12456 0.80170 0.19102 0.03000
H 	H 	0.10777 0.83523 0.10514 0.04500
H 	H 	0.87153 0.71641 0.19003 0.07000
H 	H 	0.10249 0.76540 0.01832 0.06100
C 	C 	0.90616 0.67706 0.04769 -0.13700
C 	C 	0.18262 0.80558 0.09806 -0.16100
H 	H 	0.89976 0.65388 0.09872 0.06700
H 	H 	0.89427 0.66089 0.99031 0.03700
H 	H 	0.94760 0.68492 0.04330 0.06400
H 	H 	0.85778 0.76845 0.14944 0.05100
H 	H 	0.20279 0.77592 0.12027 0.05800
H 	H 	0.20129 0.83488 0.12486 0.06000
H 	H 	0.18589 0.80750 0.03084 0.06600
H 	H 	0.11797 0.73422 0.10549 0.05000
C 	C 	0.02521 0.75397 0.70535 -0.09400
C 	C 	0.97643 0.73583 0.68956 0.04600
C 	C 	0.96691 0.71641 0.61399 -0.01700
C 	C 	0.00710 0.70815 0.55936 -0.11400
C 	C 	0.05818 0.71911 0.58258 0.05200
C 	C 	0.06607 0.74385 0.65351 -0.02800
H 	H 	0.92833 0.70590 0.59940 0.04400
H 	H 	0.10452 0.75391 0.66968 0.04200
C 	C 	0.93716 0.73050 0.75621 -0.10400
C 	C 	0.10493 0.70056 0.53949 -0.11200
C 	C 	0.93629 0.68380 0.79103 -0.02200
H 	H 	0.92853 0.65974 0.74186 0.03000
H 	H 	0.90434 0.68148 0.83545 0.02300
C 	C 	0.13644 0.73689 0.49783 -0.01800
H 	H 	0.14167 0.76523 0.53932 0.02700
H 	H 	0.11612 0.74888 0.44303 0.02600
H 	H 	0.94369 0.75383 0.80590 0.02300
H 	H 	0.09538 0.67450 0.49524 0.04000
C 	C 	0.98612 0.67149 0.83423 -0.15400
C 	C 	0.18951 0.72084 0.47270 -0.16300
H 	H 	0.99595 0.69609 0.88134 0.05200
H 	H 	0.98144 0.63919 0.86427 0.05100
H 	H 	0.01808 0.66896 0.78999 0.06000
H 	H 	0.89858 0.73806 0.73125 0.05300
H 	H 	0.21120 0.70903 0.52646 0.05400
H 	H 	0.21119 0.74820 0.44456 0.05700
H 	H 	0.18631 0.69408 0.42762 0.06500
H 	H 	0.12918 0.68426 0.58614 0.04800
C 	C 	0.01290 0.26423 0.78210 -0.11500
C 	C 	0.03327 0.28035 0.85627 0.05900
C 	C 	0.02508 0.25608 0.92756 -0.03700
C 	C 	0.00858 0.21252 0.92331 -0.10300
C 	C 	0.99749 0.19359 0.84679 0.05100
C 	C 	0.99924 0.21991 0.77687 -0.02600
H 	H 	0.03289 0.27054 0.98629 0.03200
H 	H 	0.98636 0.20667 0.71924 0.03400
C 	C 	0.06439 0.32252 0.85954 -0.11700
C 	C 	0.97839 0.14690 0.83954 -0.11600
C 	C 	0.11104 0.32152 0.91701 -0.01500
H 	H 	0.09916 0.31670 0.98108 0.02300
H 	H 	0.13005 0.35405 0.91432 0.02300
C 	C 	0.91984 0.14517 0.84701 -0.01300
H 	H 	0.90212 0.16699 0.80080 0.02400
H 	H 	0.90800 0.15688 0.90811 0.02500
H 	H 	0.08027 0.33020 0.79910 0.05800
H 	H 	0.99634 0.12535 0.88578 0.05700
C 	C 	0.15044 0.28676 0.89303 -0.16200
C 	C 	0.89962 0.09876 0.83413 -0.16200
H 	H 	0.16320 0.29172 0.82934 0.06300
H 	H 	0.18437 0.28935 0.93339 0.05400
H 	H 	0.13417 0.25336 0.89945 0.06300
H 	H 	0.03866 0.34978 0.87769 0.05600
H 	H 	0.90775 0.08768 0.77118 0.05700
H 	H 	0.85754 0.09825 0.84389 0.05400
H 	H 	0.91770 0.07568 0.87754 0.06700
H 	H 	0.99000 0.13336 0.77953 0.04900
C 	C 	0.01864 0.22209 0.29009 -0.10100
C 	C 	0.06058 0.23352 0.34033 0.06200
C 	C 	0.05486 0.26859 0.39406 -0.03200
C 	C 	0.00586 0.28088 0.42067 -0.11200
C 	C 	0.96230 0.26587 0.37626 0.05900
C 	C 	0.96979 0.23826 0.30875 -0.03200
H 	H 	0.08845 0.28287 0.42227 0.03000
H 	H 	0.93748 0.22942 0.27070 0.02700
C 	C 	0.10941 0.20606 0.34320 -0.11700
C 	C 	0.90846 0.28155 0.39485 -0.11100
C 	C 	0.12547 0.19253 0.42970 -0.01500
H 	H 	0.13269 0.22167 0.46836 0.02200
H 	H 	0.16223 0.17428 0.42569 0.02400
C 	C 	0.89858 0.32671 0.35666 -0.01400
H 	H 	0.90025 0.32389 0.28936 0.02800
H 	H 	0.92842 0.35054 0.37569 0.03900
H 	H 	0.10569 0.17515 0.30845 0.07000
H 	H 	0.90073 0.28137 0.46108 0.05900
C 	C 	0.08589 0.16293 0.47058 -0.16100
C 	C 	0.84616 0.34464 0.38069 -0.16400
H 	H 	0.07850 0.13348 0.43272 0.06300
H 	H 	0.10068 0.15208 0.53053 0.05300
H 	H 	0.04939 0.18083 0.48046 0.06000
H 	H 	0.14097 0.22525 0.31521 0.05800
H 	H 	0.81536 0.32202 0.36053 0.06000
H 	H 	0.84009 0.37695 0.35132 0.05500
H 	H 	0.84388 0.34896 0.44757 0.06900
H 	H 	0.88018 0.25802 0.36923 0.04900
C 	C 	0.99840 0.54107 0.45672 -0.09300
C 	C 	0.99070 0.50438 0.40484 0.05200
C 	C 	0.99473 0.46191 0.43805 -0.02500
C 	C 	0.00929 0.45578 0.51903 -0.10800
C 	C 	0.01589 0.49258 0.57062 0.06300
C 	C 	0.00664 0.53453 0.53976 -0.04000
H 	H 	0.98879 0.43332 0.40070 0.03600
H 	H 	0.01171 0.56276 0.57899 0.03800
C 	C 	0.98053 0.51119 0.31406 -0.11300
C 	C 	0.04009 0.48858 0.65419 -0.11800
C 	C 	0.97498 0.47025 0.25986 -0.01400
H 	H 	0.00609 0.44629 0.27165 0.02600
H 	H 	0.97972 0.48057 0.19552 0.03100
C 	C 	0.09878 0.48887 0.64802 -0.01300
H 	H 	0.11169 0.51899 0.61608 0.02700
H 	H 	0.11196 0.46016 0.61239 0.04200
H 	H 	0.94539 0.53140 0.30695 0.06400
H 	H 	0.02676 0.45915 0.68717 0.07000
C 	C 	0.92229 0.44863 0.26732 -0.16100
C 	C 	0.12384 0.48757 0.73181 -0.16100
H 	H 	0.89272 0.46992 0.23924 0.05900
H 	H 	0.92251 0.41678 0.23480 0.05700
H 	H 	0.91176 0.44266 0.33165 0.05700
H 	H 	0.01311 0.53027 0.28877 0.06500
H 	H 	0.11474 0.51792 0.76608 0.05400
H 	H 	0.16606 0.48514 0.72488 0.06000
H 	H 	0.11021 0.45880 0.76695 0.07000
H 	H 	0.02776 0.51671 0.69247 0.04900
C 	C 	0.49657 0.75930 0.76219 -0.09200
C 	C 	0.53546 0.76601 0.82070 0.05100
C 	C 	0.52966 0.74732 0.89805 -0.02700
C 	C 	0.49576 0.71234 0.90941 -0.10300
C 	C 	0.46469 0.69840 0.84374 0.04900
C 	C 	0.46297 0.72380 0.77255 -0.03200
H 	H 	0.55493 0.75711 0.94706 0.03300
H 	H 	0.43596 0.71552 0.72492 0.04300
C 	C 	0.58695 0.78431 0.79628 -0.10400
C 	C 	0.43654 0.65516 0.84582 -0.12000
C 	C 	0.63214 0.75359 0.81570 -0.01900
H 	H 	0.63514 0.74808 0.88212 0.02300
H 	H 	0.66821 0.76975 0.79633 0.03100
C 	C 	0.38019 0.66107 0.86942 -0.01000
H 	H 	0.36200 0.68629 0.83015 0.02400
H 	H 	0.37766 0.67211 0.93357 0.01200
H 	H 	0.58758 0.78990 0.73017 0.03200
H 	H 	0.45523 0.63220 0.88838 0.05500
C 	C 	0.62827 0.70956 0.77182 -0.15700
C 	C 	0.35065 0.61817 0.86010 -0.16700
H 	H 	0.62445 0.71463 0.70528 0.05900
H 	H 	0.66350 0.69019 0.78348 0.05400
H 	H 	0.59493 0.69050 0.79428 0.06300
H 	H 	0.59286 0.81616 0.82748 0.05200
H 	H 	0.35311 0.60611 0.79656 0.05700
H 	H 	0.30969 0.62348 0.87492 0.05200
H 	H 	0.36627 0.59285 0.90172 0.06600
H 	H 	0.43904 0.63962 0.78479 0.04900
C 	C 	0.48718 0.73792 0.26984 -0.09600
C 	C 	0.46451 0.72282 0.34319 0.05300
C 	C 	0.47256 0.74696 0.41473 -0.02500
C 	C 	0.49138 0.78980 0.41097 -0.11300
C 	C 	0.50447 0.80823 0.33495 0.06100
C 	C 	0.50331 0.78172 0.26516 -0.03300
H 	H 	0.46360 0.73275 0.47327 0.03400
H 	H 	0.51781 0.79445 0.20811 0.04200
C 	C 	0.43140 0.68181 0.34524 -0.11100
C 	C 	0.52335 0.85500 0.32816 -0.12000
C 	C 	0.38438 0.68400 0.40183 -0.01700
H 	H 	0.39591 0.68841 0.46617 0.02500
H 	H 	0.36425 0.65199 0.39863 0.02600
C 	C 	0.58142 0.85759 0.34177 -0.01000
H 	H 	0.60141 0.83627 0.29713 0.03000
H 	H 	0.59107 0.84589 0.40383 0.02900
H 	H 	0.41578 0.67536 0.28420 0.05200
H 	H 	0.50318 0.87649 0.37216 0.06200
C 	C 	0.34642 0.71979 0.37722 -0.16100
C 	C 	0.60105 0.90440 0.33196 -0.16500
H 	H 	0.33419 0.71535 0.31312 0.06300
H 	H 	0.31197 0.71786 0.41661 0.05500
H 	H 	0.36375 0.75274 0.38450 0.06400
H 	H 	0.45566 0.65352 0.36311 0.05700
H 	H 	0.59342 0.91645 0.26945 0.06100
H 	H 	0.64301 0.90514 0.34271 0.05800
H 	H 	0.58219 0.92654 0.37635 0.07300
H 	H 	0.51402 0.86804 0.26679 0.05200
C 	C 	0.28665 0.63372 0.19235 -0.08600
C 	C 	0.25009 0.64143 0.13003 0.04800
C 	C 	0.19787 0.64219 0.15001 -0.02900
C 	C 	0.18183 0.63456 0.22965 -0.08900
C 	C 	0.21754 0.62018 0.28854 0.05200
C 	C 	0.26994 0.62022 0.26931 -0.03500
H 	H 	0.16961 0.64903 0.10347 0.03600
H 	H 	0.29780 0.61109 0.31511 0.03800
C 	C 	0.26538 0.64312 0.04097 -0.08100
C 	C 	0.20004 0.60179 0.36963 -0.10900
C 	C 	0.25122 0.68673 0.99957 -0.07400
H 	H 	0.20987 0.69408 0.00780 0.04600
H 	H 	0.25785 0.68321 0.93327 0.02700
C 	C 	0.18418 0.55359 0.36167 -0.01900
H 	H 	0.21666 0.53411 0.33709 0.03100
H 	H 	0.15139 0.55069 0.31895 0.04300
H 	H 	0.30648 0.63573 0.03094 0.05400
H 	H 	0.16749 0.62089 0.39450 0.05000
C 	C 	0.28273 0.72555 0.02993 -0.12700
C 	C 	0.16838 0.53443 0.44370 -0.16300
H 	H 	0.32358 0.72149 0.01304 0.06100
H 	H 	0.26862 0.75613 0.00125 0.05100
H 	H 	0.27912 0.72915 0.09678 0.06400
H 	H 	0.24448 0.61651 0.00894 0.04600
H 	H 	0.20167 0.53356 0.48568 0.05600
H 	H 	0.15406 0.50053 0.43521 0.06100
H 	H 	0.13730 0.55418 0.47152 0.07200
H 	H 	0.23150 0.60462 0.41494 0.04500
C 	C 	0.78682 0.60609 0.29039 -0.08500
C 	C 	0.74483 0.58285 0.32374 0.05400
C 	C 	0.69741 0.58333 0.28286 -0.03300
C 	C 	0.69144 0.60575 0.20876 -0.08300
C 	C 	0.73469 0.62714 0.17377 0.05200
C 	C 	0.78034 0.62961 0.21804 -0.03000
H 	H 	0.66497 0.56623 0.30907 0.04300
H 	H 	0.81205 0.64853 0.19391 0.04300
C 	C 	0.74958 0.55722 0.40246 -0.11700
C 	C 	0.73395 0.64670 0.08900 -0.10500
C 	C 	0.75517 0.50778 0.38773 -0.01500
H 	H 	0.72396 0.49588 0.34743 0.02600
H 	H 	0.75123 0.49055 0.44688 0.02400
C 	C 	0.71491 0.69430 0.09030 -0.02800
H 	H 	0.74233 0.71479 0.12535 0.03100
H 	H 	0.67700 0.69659 0.12061 0.03900
H 	H 	0.78133 0.56901 0.44143 0.06500
H 	H 	0.71226 0.62597 0.04575 0.07100
C 	C 	0.80695 0.49568 0.35085 -0.16000
C 	C 	0.71030 0.71285 0.00452 -0.10900
H 	H 	0.83877 0.50794 0.38948 0.06000
H 	H 	0.81007 0.45951 0.34653 0.05400
H 	H 	0.81062 0.50952 0.28876 0.06300
H 	H 	0.71429 0.56258 0.43899 0.05000
H 	H 	0.74801 0.71212 0.97330 0.03200
H 	H 	0.69696 0.74734 0.00758 0.05000
H 	H 	0.68217 0.69352 0.96876 0.03800
H 	H 	0.77350 0.64657 0.06379 0.05000
C 	C 	0.50634 0.27613 0.03486 -0.09800
C 	C 	0.50109 0.29467 0.11333 0.05800
C 	C 	0.49173 0.26716 0.17996 -0.03300
C 	C 	0.48723 0.22182 0.16984 -0.10200
C 	C 	0.49441 0.20307 0.09179 0.04900
C 	C 	0.50431 0.23055 0.02538 -0.01000
H 	H 	0.48628 0.28134 0.23978 0.03300
H 	H 	0.50917 0.21642 0.96541 0.01200
C 	C 	0.50345 0.34376 0.12719 -0.11700
C 	C 	0.48777 0.15436 0.07676 -0.10800
C 	C 	0.55230 0.35757 0.17272 -0.01000
H 	H 	0.55720 0.33763 0.22867 0.02400
H 	H 	0.54814 0.39224 0.19216 0.02100
C 	C 	0.43104 0.14250 0.06571 -0.02500
H 	H 	0.41522 0.16058 0.01271 0.03400
H 	H 	0.40876 0.15203 0.12038 0.04800
H 	H 	0.49970 0.36274 0.07027 0.06300
H 	H 	0.50534 0.13466 0.12590 0.06600
C 	C 	0.60042 0.35370 0.12042 -0.16300
C 	C 	0.42401 0.09347 0.05147 -0.13200
H 	H 	0.59736 0.37522 0.06626 0.07100
H 	H 	0.63425 0.36419 0.15633 0.06000
H 	H 	0.60646 0.31928 0.10088 0.07500
H 	H 	0.46988 0.35343 0.16469 0.05000
H 	H 	0.44533 0.08293 0.99643 0.03500
H 	H 	0.38277 0.08616 0.04235 0.05500
H 	H 	0.43788 0.07463 0.10485 0.06400
H 	H 	0.50893 0.14485 0.02079 0.05100
C 	C 	0.51374 0.26930 0.67866 -0.09800
C 	C 	0.52852 0.22468 0.67329 0.05300
C 	C 	0.52006 0.20203 0.59983 -0.02800
C 	C 	0.49095 0.22099 0.53748 -0.11000
C 	C 	0.47084 0.26364 0.54734 0.05800
C 	C 	0.48253 0.28744 0.61781 -0.03500
H 	H 	0.53598 0.16970 0.59092 0.03600
H 	H 	0.46802 0.32051 0.62449 0.04300
C 	C 	0.55590 0.20234 0.74408 -0.11400
C 	C 	0.43525 0.28355 0.48462 -0.11300
C 	C 	0.54617 0.15259 0.75280 -0.01900
H 	H 	0.51062 0.14224 0.72100 0.02600
H 	H 	0.54024 0.14475 0.81814 0.01900
C 	C 	0.37936 0.27138 0.50265 -0.01800
H 	H 	0.36761 0.28591 0.56172 0.03000
H 	H 	0.37522 0.23525 0.50722 0.04200
H 	H 	0.59758 0.20939 0.73937 0.06100
H 	H 	0.44589 0.27305 0.42223 0.05600
C 	C 	0.59159 0.12527 0.72316 -0.16100
C 	C 	0.34350 0.28797 0.43622 -0.16000
H 	H 	0.62616 0.13261 0.76006 0.05300
H 	H 	0.58260 0.09000 0.73002 0.05200
H 	H 	0.60011 0.13198 0.65834 0.06000
H 	H 	0.54266 0.21726 0.80201 0.05300
H 	H 	0.34621 0.32416 0.43087 0.05500
H 	H 	0.30341 0.27908 0.45156 0.05600
H 	H 	0.35343 0.27279 0.37694 0.06400
H 	H 	0.43912 0.31983 0.48524 0.04800
C 	C 	0.31712 0.37079 0.72990 -0.08900
C 	C 	0.28082 0.38062 0.79114 0.05300
C 	C 	0.22853 0.37822 0.77253 -0.03300
C 	C 	0.21246 0.36488 0.69539 -0.09200
C 	C 	0.24860 0.36210 0.63123 0.05500
C 	C 	0.30093 0.36501 0.64962 -0.03400
H 	H 	0.20025 0.38566 0.81871 0.03600
H 	H 	0.32918 0.36060 0.60202 0.03400
C 	C 	0.29733 0.39755 0.87400 -0.10500
C 	C 	0.23212 0.35770 0.54307 -0.11400
C 	C 	0.27844 0.36889 0.94488 -0.04100
H 	H 	0.23608 0.36569 0.94352 0.02700
H 	H 	0.28846 0.38550 0.00281 0.04500
C 	C 	0.20530 0.39921 0.51198 -0.01900
H 	H 	0.23253 0.42720 0.51362 0.02800
H 	H 	0.17210 0.40751 0.55102 0.03600
H 	H 	0.33947 0.40164 0.87883 0.05500
H 	H 	0.20747 0.32851 0.53473 0.06000
C 	C 	0.30254 0.32334 0.94545 -0.14900
C 	C 	0.18615 0.39310 0.42506 -0.15900
H 	H 	0.34482 0.32585 0.95131 0.05200
H 	H 	0.28772 0.30457 0.99822 0.04800
H 	H 	0.29254 0.30517 0.88921 0.06700
H 	H 	0.28099 0.43090 0.88184 0.04500
H 	H 	0.21872 0.38617 0.38359 0.05600
H 	H 	0.16670 0.42338 0.40423 0.06000
H 	H 	0.15826 0.36565 0.42211 0.06000
H 	H 	0.26610 0.35177 0.50394 0.04600
C 	C 	0.71390 0.39669 0.78173 -0.08700
C 	C 	0.73460 0.43446 0.74414 0.05100
C 	C 	0.78469 0.43298 0.71310 -0.03200
C 	C 	0.81367 0.39446 0.71763 -0.08600
C 	C 	0.79295 0.35684 0.75582 0.05200
C 	C 	0.74357 0.35869 0.78849 -0.02900
H 	H 	0.80105 0.46189 0.68495 0.03500
H 	H 	0.72768 0.32996 0.81797 0.03900
C 	C 	0.70480 0.47712 0.73948 -0.11200
C 	C 	0.82312 0.31455 0.76374 -0.10700
C 	C 	0.68949 0.48896 0.65195 -0.01400
H 	H 	0.72354 0.48840 0.61144 0.02600
H 	H 	0.67432 0.52296 0.65147 0.02100
C 	C 	0.85196 0.31260 0.84509 -0.01800
H 	H 	0.82602 0.32209 0.89571 0.02800
H 	H 	0.88456 0.33595 0.84410 0.04400
H 	H 	0.67035 0.47715 0.77895 0.05100
H 	H 	0.85017 0.31009 0.71251 0.05400
C 	C 	0.64840 0.45855 0.61764 -0.16300
C 	C 	0.87248 0.26666 0.86234 -0.16100
H 	H 	0.61342 0.45966 0.65598 0.07000
H 	H 	0.63806 0.46934 0.55536 0.05600
H 	H 	0.66284 0.42440 0.61421 0.07600
H 	H 	0.72961 0.50378 0.76334 0.04600
H 	H 	0.84027 0.24356 0.87275 0.05300
H 	H 	0.89689 0.26729 0.91758 0.05500
H 	H 	0.89580 0.25464 0.81068 0.07400
H 	H 	0.79612 0.28641 0.75989 0.04800
C 	C 	0.51026 0.45790 0.94756 -0.13300
C 	C 	0.50605 0.49466 0.89538 0.07800
C 	C 	0.49696 0.53603 0.93001 -0.06400
C 	C 	0.49938 0.54220 0.01426 -0.06900
C 	C 	0.51323 0.50644 0.06496 0.03800
C 	C 	0.51725 0.46445 0.03095 0.00400
H 	H 	0.48622 0.56323 0.89209 0.04200
H 	H 	0.52384 0.43660 0.07008 0.02500
C 	C 	0.50705 0.48872 0.80313 -0.12700
C 	C 	0.52229 0.51191 0.15535 -0.10300
C 	C 	0.51493 0.53001 0.75057 -0.01300
H 	H 	0.48362 0.55407 0.75993 0.02300
H 	H 	0.51254 0.51995 0.68577 0.02400
C 	C 	0.47177 0.51056 0.20310 -0.01800
H 	H 	0.45490 0.47721 0.19860 0.03100
H 	H 	0.44370 0.53414 0.17753 0.04800
H 	H 	0.53855 0.46590 0.78688 0.06800
H 	H 	0.54427 0.54219 0.16796 0.05900
C 	C 	0.56721 0.55157 0.76350 -0.16200
C 	C 	0.48022 0.52164 0.29252 -0.15800
H 	H 	0.59832 0.52750 0.75313 0.05600
H 	H 	0.57195 0.57888 0.71961 0.05400
H 	H 	0.57089 0.56512 0.82570 0.05900
H 	H 	0.47040 0.47319 0.78441 0.06800
H 	H 	0.50748 0.49813 0.32047 0.05600
H 	H 	0.44320 0.51967 0.32553 0.05900
H 	H 	0.49551 0.55544 0.29875 0.06700
H 	H 	0.54728 0.48495 0.17775 0.04600
