data_crystal

_cell_length_a 26.94631
_cell_length_b 24.35514
_cell_length_c 49.37306
_cell_angle_alpha 88.67740
_cell_angle_beta  88.77900
_cell_angle_gamma 107.35561

_symmetry_space_group_name_	'P 1'
_symmetry_space_group_name_H-M	'P 1'

loop_
_symmetry_equiv_pos_as_xyz
  x,y,z

loop_
_atom_site_label
_atom_site_type_symbol
_atom_site_fract_x
_atom_site_fract_y
_atom_site_fract_z
_atom_site_charge
Zn	Zn	0.60092 0.31598 0.88597 1.22100
Zn	Zn	0.68247 0.41024 0.92227 1.19700
C 	C 	0.74671 0.24290 0.85515 0.30900
Zn	Zn	0.72263 0.34180 0.88103 1.22100
Zn	Zn	0.63327 0.22671 0.85511 1.19100
H 	H 	0.67020 0.30232 0.92422 0.18000
C 	C 	0.71526 0.45431 0.86334 0.31700
O 	O 	0.55683 0.20188 0.85013 -0.47000
O 	O 	0.54086 0.28802 0.85739 -0.39800
O 	O 	0.66875 0.33089 0.90990 -0.79100
O 	O 	0.61115 0.41065 0.93144 -0.48300
O 	O 	0.56309 0.24990 0.90958 -0.44100
O 	O 	0.57517 0.38395 0.89044 -0.43200
O 	O 	0.61851 0.19937 0.89790 -0.41900
O 	O 	0.75717 0.45126 0.92002 -0.47300
H 	H 	0.65224 0.33245 0.84221 0.17000
O 	O 	0.78554 0.37562 0.90809 -0.40300
O 	O 	0.65400 0.31094 0.85925 -0.79600
O 	O 	0.69962 0.20747 0.85982 -0.46100
O 	O 	0.74134 0.41663 0.86105 -0.44300
O 	O 	0.76343 0.29050 0.86886 -0.43000
O 	O 	0.67762 0.44655 0.88185 -0.42000
C 	C 	0.52741 0.23619 0.84727 0.31700
C 	C 	0.57563 0.40975 0.91363 0.34400
C 	C 	0.57840 0.20396 0.91225 0.32200
C 	C 	0.79320 0.42529 0.91983 0.32200
Zn	Zn	0.64830 0.37423 0.55738 1.22100
Zn	Zn	0.55942 0.28792 0.52048 1.19700
C 	C 	0.68791 0.20109 0.59600 0.31400
Zn	Zn	0.60657 0.23970 0.56795 1.22200
Zn	Zn	0.71793 0.32839 0.59153 1.19100
H 	H 	0.65216 0.28556 0.52432 0.17800
C 	C 	0.50604 0.26037 0.57742 0.31800
O 	O 	0.75208 0.41254 0.59366 -0.47000
O 	O 	0.68285 0.44514 0.58282 -0.39500
O 	O 	0.62660 0.29431 0.53688 -0.79200
O 	O 	0.57122 0.36913 0.50893 -0.48200
O 	O 	0.70976 0.40339 0.53325 -0.44400
O 	O 	0.59360 0.41154 0.54956 -0.43400
O 	O 	0.74433 0.33493 0.54898 -0.42000
O 	O 	0.51476 0.20769 0.52280 -0.47500
H 	H 	0.62488 0.32624 0.60323 0.17200
O 	O 	0.57202 0.16767 0.54284 -0.40300
O 	O 	0.64295 0.31768 0.58693 -0.79600
O 	O 	0.72372 0.24919 0.58864 -0.46600
O 	O 	0.53817 0.23212 0.58532 -0.44400
O 	O 	0.64143 0.18741 0.58543 -0.43400
O 	O 	0.52018 0.30071 0.55806 -0.41600
C 	C 	0.72957 0.45380 0.59290 0.31600
C 	C 	0.57328 0.41096 0.52549 0.34300
C 	C 	0.74691 0.37915 0.53275 0.32600
C 	C 	0.53158 0.16330 0.52760 0.32300
Zn	Zn	0.97300 0.91012 0.71641 1.22400
Zn	Zn	0.05493 0.93288 0.76662 1.19500
C 	C 	0.11989 0.04206 0.66185 0.31800
Zn	Zn	0.07345 0.01463 0.71715 1.21700
Zn	Zn	0.00636 0.97050 0.66058 1.19600
H 	H 	0.07524 0.91078 0.71743 0.18000
C 	C 	0.01308 0.03970 0.76235 0.30200
O 	O 	0.93325 0.92514 0.65480 -0.46200
O 	O 	0.89953 0.90296 0.69827 -0.38300
O 	O 	0.05310 0.93132 0.72643 -0.78300
O 	O 	0.99450 0.86440 0.77699 -0.46600
O 	O 	0.97538 0.84004 0.69886 -0.44600
O 	O 	0.93482 0.89121 0.75161 -0.43200
O 	O 	0.02165 0.88700 0.66201 -0.40600
O 	O 	0.11294 0.99987 0.77790 -0.44700
H 	H 	0.97890 0.01089 0.70322 0.15200
O 	O 	0.14695 0.03211 0.73567 -0.41200
O 	O 	0.00164 0.98640 0.69963 -0.78000
O 	O 	0.08343 0.00136 0.65011 -0.46300
O 	O 	0.04921 0.06209 0.74348 -0.44000
O 	O 	0.11189 0.06091 0.68583 -0.45200
O 	O 	0.00277 0.98561 0.77054 -0.40100
C 	C 	0.89556 0.92045 0.67303 0.31600
C 	C 	0.94616 0.85668 0.76979 0.33500
C 	C 	0.98929 0.84037 0.67340 0.32500
C 	C 	0.15234 0.02824 0.76193 0.30400
Zn	Zn	0.30356 0.69304 0.38814 1.22200
Zn	Zn	0.20988 0.59201 0.42122 1.19500
C 	C 	0.16783 0.77160 0.34896 0.31800
Zn	Zn	0.18409 0.67223 0.37969 1.22100
Zn	Zn	0.28123 0.78349 0.35209 1.19300
H 	H 	0.22711 0.70079 0.42430 0.17800
C 	C 	0.18864 0.56079 0.36166 0.31300
O 	O 	0.35826 0.80845 0.35239 -0.46800
O 	O 	0.37091 0.72117 0.36160 -0.39700
O 	O 	0.23111 0.67476 0.40986 -0.78900
O 	O 	0.27592 0.58039 0.43311 -0.46900
O 	O 	0.33376 0.75956 0.41060 -0.44500
O 	O 	0.32709 0.62589 0.39690 -0.43900
O 	O 	0.27981 0.80826 0.39438 -0.41800
O 	O 	0.13447 0.55779 0.41672 -0.47000
H 	H 	0.26138 0.67715 0.34312 0.17200
O 	O 	0.11558 0.64032 0.40543 -0.40100
O 	O 	0.25693 0.69934 0.35906 -0.79600
O 	O 	0.21619 0.80553 0.34765 -0.45800
O 	O 	0.16404 0.60001 0.35949 -0.44100
O 	O 	0.15202 0.73239 0.36868 -0.43300
O 	O 	0.22257 0.56370 0.38082 -0.41900
C 	C 	0.38727 0.77367 0.35083 0.31600
C 	C 	0.32208 0.60265 0.42148 0.33300
C 	C 	0.31497 0.80329 0.41160 0.32100
C 	C 	0.10198 0.58842 0.41672 0.32100
Zn	Zn	0.21976 0.71578 0.06405 1.22000
Zn	Zn	0.31672 0.80099 0.09716 1.19500
C 	C 	0.34282 0.61969 0.02526 0.31000
Zn	Zn	0.33814 0.72250 0.05443 1.22100
Zn	Zn	0.23511 0.61874 0.03133 1.19400
H 	H 	0.28941 0.69168 0.09931 0.18000
C 	C 	0.34776 0.84084 0.03731 0.31800
O 	O 	0.15955 0.60447 0.03168 -0.47300
O 	O 	0.15457 0.69569 0.03754 -0.39100
O 	O 	0.28981 0.72117 0.08510 -0.78900
O 	O 	0.25086 0.81503 0.10853 -0.48000
O 	O 	0.17906 0.65144 0.08852 -0.43400
O 	O 	0.20555 0.79089 0.06961 -0.43100
O 	O 	0.22794 0.59569 0.07436 -0.42100
O 	O 	0.39325 0.82918 0.09333 -0.47100
H 	H 	0.26503 0.72544 0.01836 0.17000
O 	O 	0.40573 0.74574 0.07895 -0.40400
O 	O 	0.26607 0.70273 0.03512 -0.79100
O 	O 	0.29524 0.58845 0.03181 -0.46200
O 	O 	0.36478 0.79606 0.03394 -0.44500
O 	O 	0.36732 0.66228 0.04060 -0.42700
O 	O 	0.31420 0.84099 0.05715 -0.41700
C 	C 	0.13684 0.64437 0.02702 0.31300
C 	C 	0.21523 0.82060 0.09194 0.34100
C 	C 	0.18944 0.60217 0.08935 0.32000
C 	C 	0.42341 0.79634 0.08987 0.32400
Zn	Zn	0.95267 0.12373 0.21679 1.22400
Zn	Zn	0.86773 0.08978 0.26857 1.19200
C 	C 	0.80667 0.00790 0.16265 0.28400
Zn	Zn	0.85089 0.02087 0.21711 1.21600
Zn	Zn	0.91956 0.08057 0.16030 1.19000
H 	H 	0.85066 0.12477 0.22092 0.17500
C 	C 	0.90784 0.98337 0.25966 0.33800
O 	O 	0.99226 0.12934 0.15440 -0.46800
O 	O 	0.02653 0.13307 0.19653 -0.38100
O 	O 	0.87203 0.10172 0.22853 -0.79000
O 	O 	0.92841 0.15445 0.27953 -0.46800
O 	O 	0.95322 0.19889 0.20196 -0.44700
O 	O 	0.98877 0.13343 0.25145 -0.43600
O 	O 	0.90144 0.16123 0.16724 -0.41800
O 	O 	0.80843 0.02067 0.27929 -0.48500
H 	H 	0.94526 0.02641 0.19961 0.16800
O 	O 	0.77637 0.99939 0.23710 -0.41000
O 	O 	0.92320 0.05232 0.19812 -0.80300
O 	O 	0.84346 0.05121 0.15102 -0.45500
O 	O 	0.87316 0.96633 0.24085 -0.43800
O 	O 	0.81409 0.98297 0.18548 -0.43000
O 	O 	0.91866 0.03548 0.26912 -0.43500
C 	C 	0.02892 0.12323 0.17034 0.31300
C 	C 	0.97688 0.16436 0.27071 0.33000
C 	C 	0.93371 0.20558 0.17861 0.32900
C 	C 	0.76976 0.99635 0.26356 0.34100
C 	C 	0.10434 0.40356 0.11625 -0.07400
C 	C 	0.08335 0.45516 0.12177 0.02200
C 	C 	0.99084 0.38648 0.11951 -0.08400
C 	C 	0.01708 0.35788 0.14103 0.03100
C 	C 	0.06551 0.34657 0.12752 -0.07800
H 	H 	0.11078 0.40030 0.09407 0.04100
H 	H 	0.14260 0.41021 0.12589 0.04200
C 	C 	0.12090 0.50911 0.11099 0.02800
H 	H 	0.95605 0.39541 0.12866 0.04100
H 	H 	0.97723 0.35675 0.10259 0.04000
C 	C 	0.98146 0.30324 0.15235 0.02400
H 	H 	0.05342 0.31613 0.11071 0.04400
H 	H 	0.08532 0.32607 0.14250 0.04700
C 	C 	0.03586 0.40093 0.16409 -0.07800
H 	H 	0.05501 0.38168 0.17990 0.04500
H 	H 	0.00198 0.41027 0.17411 0.04200
C 	C 	0.07473 0.45797 0.15280 -0.07500
H 	H 	0.05938 0.49451 0.15739 0.04100
H 	H 	0.11238 0.46580 0.16318 0.04000
C 	C 	0.02983 0.44371 0.10817 -0.07200
H 	H 	0.01357 0.47995 0.11189 0.04300
H 	H 	0.03472 0.44129 0.08583 0.04200
C 	C 	0.15222 0.55220 0.10166 -0.10700
C 	C 	0.95663 0.25829 0.16329 -0.11000
C 	C 	0.57272 0.87686 0.14302 -0.07600
C 	C 	0.57389 0.87119 0.11180 0.02500
C 	C 	0.64766 0.96587 0.10846 -0.05600
C 	C 	0.66704 0.92770 0.12869 0.02300
C 	C 	0.62733 0.91003 0.15292 -0.07600
H 	H 	0.54444 0.89995 0.14908 0.04000
H 	H 	0.55954 0.83342 0.15316 0.03900
C 	C 	0.52135 0.84047 0.10283 0.02800
H 	H 	0.67533 0.97901 0.09075 0.04000
H 	H 	0.64592 0.00594 0.11832 0.02300
C 	C 	0.71858 0.95891 0.13877 0.02000
H 	H 	0.62508 0.94893 0.16369 0.04400
H 	H 	0.64018 0.88242 0.16782 0.04400
C 	C 	0.66860 0.87226 0.11419 -0.07600
H 	H 	0.68235 0.84388 0.12827 0.04200
H 	H 	0.69664 0.88359 0.09658 0.04100
C 	C 	0.61374 0.83898 0.10425 -0.07700
H 	H 	0.61554 0.83446 0.08190 0.04300
H 	H 	0.60130 0.79478 0.11361 0.04200
C 	C 	0.59288 0.93264 0.09852 -0.08200
H 	H 	0.59435 0.92997 0.07605 0.04600
H 	H 	0.56504 0.95695 0.10361 0.04600
C 	C 	0.47712 0.81820 0.09646 -0.11100
C 	C 	0.75956 0.98275 0.14872 -0.08500
C 	C 	0.18622 0.99831 0.11800 -0.04500
C 	C 	0.14463 0.93830 0.11788 0.02100
C 	C 	0.10275 0.96513 0.16045 -0.05600
C 	C 	0.10554 0.01494 0.13977 -0.01100
C 	C 	0.16323 0.04337 0.13089 -0.08700
H 	H 	0.22043 0.99563 0.12962 0.03800
H 	H 	0.20041 0.01277 0.09692 0.02300
C 	C 	0.16695 0.89541 0.10618 0.03400
H 	H 	0.06166 0.94380 0.16719 0.03400
H 	H 	0.12475 0.98230 0.17880 0.04100
C 	C 	0.08269 0.05700 0.15187 0.03000
H 	H 	0.18637 0.06207 0.14867 0.03900
H 	H 	0.16640 0.07930 0.11595 0.04200
C 	C 	0.07484 0.98896 0.11442 -0.03500
H 	H 	0.07626 0.02372 0.09911 0.01900
H 	H 	0.03315 0.96806 0.12016 0.02700
C 	C 	0.09782 0.94392 0.10156 -0.08600
H 	H 	0.06717 0.90156 0.10123 0.04500
H 	H 	0.11033 0.95723 0.08016 0.04900
C 	C 	0.12566 0.92013 0.14759 -0.08000
H 	H 	0.09549 0.87734 0.14821 0.04200
H 	H 	0.15856 0.91575 0.15986 0.04200
C 	C 	0.18736 0.86060 0.09839 -0.11400
C 	C 	0.06051 0.08904 0.16102 -0.14000
C 	C 	0.60830 0.94307 0.31730 -0.07600
C 	C 	0.62721 0.90476 0.29734 0.02200
C 	C 	0.57499 0.81645 0.32565 -0.07600
C 	C 	0.53470 0.84837 0.31868 0.02300
C 	C 	0.55404 0.90999 0.32983 -0.07600
H 	H 	0.63654 0.95662 0.33379 0.04200
H 	H 	0.60606 0.98294 0.30657 0.04000
C 	C 	0.67867 0.93674 0.28538 0.03100
H 	H 	0.56229 0.77210 0.31778 0.04200
H 	H 	0.57769 0.81232 0.34804 0.04400
C 	C 	0.48273 0.81791 0.33052 0.02600
H 	H 	0.55639 0.90778 0.35230 0.04300
H 	H 	0.52597 0.93414 0.32507 0.04200
C 	C 	0.53238 0.85349 0.28737 -0.07600
H 	H 	0.50382 0.87641 0.28171 0.03800
H 	H 	0.51889 0.80987 0.27873 0.03900
C 	C 	0.58668 0.88660 0.27484 -0.07600
H 	H 	0.59911 0.85879 0.26022 0.04200
H 	H 	0.58400 0.92529 0.26322 0.04100
C 	C 	0.62941 0.84962 0.31310 -0.07600
H 	H 	0.64270 0.82107 0.29925 0.04300
H 	H 	0.65808 0.86128 0.32950 0.04300
C 	C 	0.72039 0.96372 0.27548 -0.11500
C 	C 	0.43949 0.79587 0.33997 -0.10900
C 	C 	0.04223 0.32423 0.32532 -0.07500
C 	C 	0.07431 0.31135 0.30112 0.02200
C 	C 	0.11435 0.41962 0.29292 -0.07600
C 	C 	0.12475 0.40941 0.32313 0.02400
C 	C 	0.07176 0.38164 0.33820 -0.07700
H 	H 	0.00386 0.32670 0.31840 0.04100
H 	H 	0.03433 0.28874 0.34095 0.04000
C 	C 	0.04442 0.25690 0.28918 0.03000
H 	H 	0.15181 0.43932 0.28153 0.04000
H 	H 	0.09102 0.45029 0.29116 0.04200
C 	C 	0.15149 0.46415 0.33581 0.02500
H 	H 	0.04747 0.41146 0.33741 0.04400
H 	H 	0.07795 0.37356 0.35998 0.04300
C 	C 	0.15710 0.36628 0.32463 -0.07700
H 	H 	0.16508 0.35795 0.34613 0.04200
H 	H 	0.19537 0.38497 0.31385 0.04100
C 	C 	0.12737 0.30849 0.31166 -0.07600
H 	H 	0.15141 0.29958 0.29467 0.04200
H 	H 	0.12115 0.27263 0.32697 0.04100
C 	C 	0.08470 0.36197 0.27997 -0.07600
H 	H 	0.10798 0.35411 0.26239 0.04200
H 	H 	0.04727 0.36521 0.27204 0.04200
C 	C 	0.01576 0.21358 0.28027 -0.11200
C 	C 	0.17011 0.50865 0.34712 -0.10500
C 	C 	0.02410 0.92212 0.31494 -0.06900
C 	C 	0.99829 0.88887 0.28995 0.01800
C 	C 	0.07940 0.85704 0.28245 -0.07700
C 	C 	0.06209 0.83829 0.31230 0.02300
C 	C 	0.06149 0.89247 0.32804 -0.07700
H 	H 	0.04615 0.96726 0.30880 0.04800
H 	H 	0.99374 0.92419 0.33020 0.04200
C 	C 	0.96341 0.91852 0.27784 0.03300
H 	H 	0.07999 0.81890 0.27059 0.03900
H 	H 	0.11965 0.88725 0.28159 0.04100
C 	C 	0.09832 0.81124 0.32500 0.02800
H 	H 	0.10136 0.92346 0.32814 0.04600
H 	H 	0.04896 0.88035 0.34955 0.04700
C 	C 	0.00584 0.79650 0.31255 -0.07000
H 	H 	0.99223 0.78242 0.33375 0.04100
H 	H 	0.00502 0.75719 0.30129 0.04100
C 	C 	0.96826 0.82630 0.29938 -0.07900
H 	H 	0.94950 0.80124 0.28182 0.04100
H 	H 	0.93673 0.82643 0.31430 0.04400
C 	C 	0.04189 0.88677 0.26931 -0.07300
H 	H 	0.02453 0.86285 0.25117 0.04000
H 	H 	0.06426 0.93115 0.26219 0.04300
C 	C 	0.93683 0.94627 0.26894 -0.11100
C 	C 	0.12937 0.79180 0.33581 -0.11000
C 	C 	0.39079 0.01548 0.49126 -0.08900
C 	C 	0.44932 0.01941 0.48856 0.01400
C 	C 	0.42242 0.91143 0.48128 -0.07600
C 	C 	0.39256 0.93507 0.45953 0.02000
C 	C 	0.35742 0.96589 0.47418 -0.06200
H 	H 	0.37740 0.00799 0.51290 0.03900
H 	H 	0.38485 0.05684 0.48434 0.04000
C 	C 	0.48078 0.06749 0.50427 0.02700
H 	H 	0.44811 0.88906 0.47134 0.04400
H 	H 	0.39443 0.87918 0.49491 0.04200
C 	C 	0.36159 0.88819 0.44302 0.03000
H 	H 	0.32813 0.93467 0.48765 0.04100
H 	H 	0.33566 0.98360 0.45909 0.04300
C 	C 	0.43290 0.97998 0.44112 -0.06100
H 	H 	0.41268 0.99803 0.42538 0.04200
H 	H 	0.45881 0.95904 0.43033 0.04300
C 	C 	0.46623 0.02944 0.45816 -0.08900
H 	H 	0.50804 0.03210 0.45552 0.03600
H 	H 	0.46193 0.07111 0.45051 0.03700
C 	C 	0.45584 0.96109 0.49837 -0.06400
H 	H 	0.49746 0.96249 0.49655 0.04500
H 	H 	0.44377 0.95263 0.52014 0.04500
C 	C 	0.50522 0.10967 0.51577 -0.11800
C 	C 	0.33860 0.84972 0.42888 -0.10900
C 	C 	0.91383 0.51040 0.44105 -0.07500
C 	C 	0.96295 0.51236 0.45729 0.01800
C 	C 	0.91032 0.51084 0.50097 -0.07600
C 	C 	0.87790 0.45738 0.48584 0.02300
C 	C 	0.86378 0.47804 0.45784 -0.07600
H 	H 	0.91317 0.55491 0.43587 0.04200
H 	H 	0.91463 0.48834 0.42161 0.04000
C 	C 	0.01099 0.54248 0.44167 0.03300
H 	H 	0.92130 0.49743 0.52112 0.04100
H 	H 	0.88669 0.54060 0.50467 0.04300
C 	C 	0.83065 0.42706 0.50201 0.02800
H 	H 	0.83919 0.50710 0.46066 0.04300
H 	H 	0.84066 0.44054 0.44641 0.03900
C 	C 	0.91217 0.41728 0.48102 -0.07700
H 	H 	0.89000 0.37857 0.47006 0.03900
H 	H 	0.92315 0.40192 0.50077 0.04000
C 	C 	0.96212 0.44955 0.46426 -0.07400
H 	H 	0.99692 0.44949 0.47601 0.03700
H 	H 	0.96382 0.42620 0.44530 0.03900
C 	C 	0.96025 0.54314 0.48420 -0.07400
H 	H 	0.99503 0.54511 0.49636 0.03700
H 	H 	0.96045 0.58828 0.47987 0.04000
C 	C 	0.05176 0.56503 0.42975 -0.11600
C 	C 	0.79232 0.40386 0.51579 -0.11200
C 	C 	0.47324 0.60274 0.47737 -0.07600
C 	C 	0.43342 0.55455 0.46215 0.02200
C 	C 	0.49906 0.49838 0.46112 -0.07500
C 	C 	0.49350 0.51062 0.49162 0.02100
C 	C 	0.50877 0.57675 0.49481 -0.07600
H 	H 	0.49767 0.63534 0.46256 0.04300
H 	H 	0.45239 0.62537 0.49071 0.04100
C 	C 	0.39827 0.57690 0.44588 0.03200
H 	H 	0.48838 0.45113 0.45812 0.04000
H 	H 	0.54026 0.51712 0.45392 0.04100
C 	C 	0.52581 0.48316 0.50732 0.03300
H 	H 	0.55018 0.59686 0.48831 0.04300
H 	H 	0.50486 0.58687 0.51647 0.04300
C 	C 	0.43572 0.48420 0.50078 -0.07500
H 	H 	0.43042 0.49274 0.52255 0.04200
H 	H 	0.42361 0.43661 0.49876 0.04000
C 	C 	0.40048 0.50991 0.48347 -0.07500
H 	H 	0.37159 0.47455 0.47322 0.04100
H 	H 	0.37818 0.53065 0.49698 0.04000
C 	C 	0.46378 0.52417 0.44382 -0.07600
H 	H 	0.43623 0.48924 0.43267 0.04200
H 	H 	0.48804 0.55536 0.42840 0.04300
C 	C 	0.36546 0.59066 0.43369 -0.11600
C 	C 	0.54928 0.45351 0.51754 -0.11700
C 	C 	0.73858 0.97687 0.64564 -0.03700
C 	C 	0.79688 0.00972 0.64931 -0.01900
C 	C 	0.79219 0.07728 0.60994 -0.08300
C 	C 	0.74773 0.08012 0.62979 0.03000
C 	C 	0.70956 0.01845 0.63410 -0.09800
H 	H 	0.73479 0.94084 0.63159 0.03900
H 	H 	0.72017 0.95772 0.66543 0.03900
C 	C 	0.82637 0.97207 0.65966 0.05600
H 	H 	0.82039 0.12093 0.60647 0.04100
H 	H 	0.77618 0.06217 0.58990 0.04200
C 	C 	0.72198 0.12063 0.61850 0.02300
H 	H 	0.69189 0.00223 0.61455 0.04400
H 	H 	0.67723 0.01914 0.64838 0.04200
C 	C 	0.77160 0.10098 0.65742 -0.08300
H 	H 	0.74044 0.10321 0.67215 0.03600
H 	H 	0.79931 0.14515 0.65499 0.03600
C 	C 	0.80048 0.05958 0.66891 -0.06300
H 	H 	0.84195 0.08405 0.67195 0.02900
H 	H 	0.78315 0.04198 0.68913 0.03200
C 	C 	0.82098 0.03603 0.62138 -0.06200
H 	H 	0.86291 0.06004 0.62333 0.02600
H 	H 	0.81876 0.00121 0.60679 0.03000
C 	C 	0.85550 0.94574 0.66665 -0.13400
C 	C 	0.70464 0.15631 0.60851 -0.11500
C 	C 	0.30162 0.14119 0.64811 -0.07600
C 	C 	0.26156 0.12825 0.62519 0.02200
C 	C 	0.31626 0.22057 0.60034 -0.07700
C 	C 	0.35541 0.18625 0.60566 0.02400
C 	C 	0.35654 0.17515 0.63668 -0.07600
H 	H 	0.28947 0.16663 0.66401 0.04400
H 	H 	0.30318 0.10024 0.65805 0.04100
C 	C 	0.20951 0.09588 0.63660 0.02600
H 	H 	0.31439 0.22896 0.57818 0.04000
H 	H 	0.32951 0.26312 0.61001 0.04100
C 	C 	0.40831 0.21760 0.59500 0.02600
H 	H 	0.37054 0.21679 0.64711 0.04100
H 	H 	0.38423 0.15037 0.64119 0.04100
C 	C 	0.33515 0.12711 0.59204 -0.07700
H 	H 	0.36235 0.10126 0.59556 0.04300
H 	H 	0.33358 0.13359 0.56971 0.04100
C 	C 	0.28013 0.09311 0.60350 -0.07600
H 	H 	0.25230 0.08344 0.58666 0.03900
H 	H 	0.28116 0.05114 0.61250 0.03900
C 	C 	0.26113 0.18650 0.61181 -0.07600
H 	H 	0.23295 0.17870 0.59512 0.03800
H 	H 	0.24809 0.21288 0.62693 0.04100
C 	C 	0.16796 0.07031 0.64728 -0.11300
C 	C 	0.45254 0.23971 0.58677 -0.10500
C 	C 	0.91935 0.67554 0.61181 -0.07700
C 	C 	0.89503 0.70154 0.63511 0.02400
C 	C 	0.80625 0.66203 0.61367 -0.07600
C 	C 	0.82598 0.60869 0.61718 0.02400
C 	C 	0.87879 0.62099 0.60127 -0.07600
H 	H 	0.93300 0.70788 0.59486 0.04100
H 	H 	0.95389 0.66397 0.61904 0.04000
C 	C 	0.93291 0.75292 0.64598 0.03000
H 	H 	0.76857 0.65474 0.62500 0.04300
H 	H 	0.79915 0.66903 0.59191 0.04400
C 	C 	0.78797 0.55590 0.60761 0.02500
H 	H 	0.87316 0.62727 0.57927 0.04200
H 	H 	0.89411 0.58347 0.60344 0.04100
C 	C 	0.83571 0.60070 0.64767 -0.07600
H 	H 	0.85007 0.56271 0.65087 0.03800
H 	H 	0.79864 0.59225 0.65972 0.04000
C 	C 	0.87612 0.65500 0.65815 -0.07600
H 	H 	0.85831 0.67236 0.67523 0.04400
H 	H 	0.90973 0.64287 0.66634 0.04100
C 	C 	0.84683 0.71660 0.62419 -0.07700
H 	H 	0.82840 0.73535 0.64052 0.04700
H 	H 	0.85905 0.74968 0.60747 0.04400
C 	C 	0.96105 0.79370 0.65715 -0.10900
C 	C 	0.75930 0.51048 0.60059 -0.10600
C 	C 	0.92492 0.57697 0.95952 -0.07400
C 	C 	0.92528 0.51332 0.95824 0.02100
C 	C 	0.02397 0.54872 0.96001 -0.07400
C 	C 	0.00527 0.57512 0.98520 0.02800
C 	C 	0.97203 0.61336 0.97541 -0.08000
H 	H 	0.92641 0.59583 0.93865 0.04100
H 	H 	0.88816 0.57905 0.96956 0.04000
C 	C 	0.88021 0.47897 0.94346 0.02800
H 	H 	0.04809 0.52097 0.96642 0.03800
H 	H 	0.04895 0.58355 0.94637 0.03800
C 	C 	0.05050 0.60784 0.00035 0.02500
H 	H 	0.99609 0.64948 0.96213 0.04100
H 	H 	0.95779 0.63263 0.99306 0.04200
C 	C 	0.97035 0.52519 0.00349 -0.07900
H 	H 	0.95596 0.54274 0.02167 0.04200
H 	H 	0.99329 0.49694 0.01089 0.04100
C 	C 	0.92341 0.48887 0.98765 -0.07500
H 	H 	0.92401 0.44336 0.98745 0.03900
H 	H 	0.88659 0.48905 0.99827 0.03700
C 	C 	0.97695 0.51236 0.94418 -0.07800
H 	H 	0.97854 0.46730 0.94310 0.04100
H 	H 	0.97938 0.52986 0.92299 0.04100
C 	C 	0.84161 0.45260 0.93214 -0.11500
C 	C 	0.08922 0.62874 0.01277 -0.11100
C 	C 	0.48757 0.99289 0.99737 -0.04000
C 	C 	0.42926 0.98347 0.99144 0.02600
C 	C 	0.45147 0.09072 0.97954 -0.07800
C 	C 	0.48936 0.06983 0.96117 0.03000
C 	C 	0.52282 0.04353 0.97961 -0.09800
H 	H 	0.49467 0.00216 0.01917 0.02300
H 	H 	0.49829 0.95304 0.99327 0.04000
C 	C 	0.39646 0.93456 0.00824 0.03100
H 	H 	0.42674 0.10972 0.96685 0.04200
H 	H 	0.47388 0.12510 0.99287 0.04000
C 	C 	0.52279 0.11788 0.94412 0.02400
H 	H 	0.54668 0.07699 0.99293 0.04300
H 	H 	0.55025 0.02782 0.96702 0.04200
C 	C 	0.45654 0.02178 0.94313 -0.09300
H 	H 	0.48260 0.00558 0.92979 0.04000
H 	H 	0.43191 0.03936 0.92968 0.04200
C 	C 	0.42127 0.97113 0.96089 -0.06000
H 	H 	0.37983 0.96456 0.95592 0.04200
H 	H 	0.43052 0.93079 0.95600 0.04100
C 	C 	0.41614 0.03995 0.99733 -0.08600
H 	H 	0.37459 0.03469 0.99310 0.03900
H 	H 	0.42174 0.05009 0.01913 0.03900
C 	C 	0.37226 0.89276 0.02170 -0.10400
C 	C 	0.54912 0.15706 0.92979 -0.10900
C 	C 	0.41812 0.46570 0.94094 -0.07600
C 	C 	0.47729 0.49072 0.94537 0.02100
C 	C 	0.46366 0.58754 0.95543 -0.07600
C 	C 	0.42537 0.54425 0.97540 0.02200
C 	C 	0.38749 0.49727 0.95866 -0.07600
H 	H 	0.40971 0.47061 0.91919 0.04200
H 	H 	0.40485 0.41885 0.94633 0.04200
C 	C 	0.50774 0.46073 0.92975 0.03400
H 	H 	0.49151 0.62167 0.96684 0.04200
H 	H 	0.44192 0.60921 0.94210 0.03900
C 	C 	0.39665 0.57350 0.99263 0.02700
H 	H 	0.36430 0.51719 0.94537 0.03700
H 	H 	0.35951 0.46542 0.97247 0.04000
C 	C 	0.45692 0.51495 0.99352 -0.07600
H 	H 	0.43037 0.48348 0.00807 0.04300
H 	H 	0.48468 0.54763 0.00570 0.04300
C 	C 	0.48732 0.48354 0.97593 -0.07400
H 	H 	0.52963 0.50116 0.97979 0.04100
H 	H 	0.47534 0.43706 0.98211 0.04100
C 	C 	0.49424 0.55598 0.93772 -0.07500
H 	H 	0.53670 0.57511 0.94068 0.04100
H 	H 	0.48713 0.56252 0.91592 0.04200
C 	C 	0.53671 0.43659 0.92026 -0.11700
C 	C 	0.37279 0.59568 0.00746 -0.11700
C 	C 	0.83600 0.15672 0.78919 -0.07500
C 	C 	0.85264 0.17473 0.81838 0.02200
C 	C 	0.89243 0.09213 0.82142 -0.07600
C 	C 	0.91813 0.12667 0.79534 0.02400
C 	C 	0.87447 0.12849 0.77565 -0.07700
H 	H 	0.79608 0.12580 0.78968 0.03600
H 	H 	0.83487 0.19502 0.77675 0.03500
C 	C 	0.81568 0.20086 0.83137 0.02400
H 	H 	0.92281 0.09024 0.83605 0.04100
H 	H 	0.87117 0.04698 0.81644 0.04100
C 	C 	0.95415 0.09881 0.78272 0.02300
H 	H 	0.85288 0.08412 0.76970 0.03900
H 	H 	0.89172 0.15331 0.75676 0.03700
C 	C 	0.94702 0.18921 0.80319 -0.07600
H 	H 	0.96568 0.21521 0.78483 0.04000
H 	H 	0.97854 0.18929 0.81742 0.04100
C 	C 	0.90849 0.21749 0.81674 -0.07600
H 	H 	0.92165 0.23106 0.83743 0.04300
H 	H 	0.90879 0.25700 0.80486 0.04000
C 	C 	0.85403 0.12031 0.83493 -0.07500
H 	H 	0.86610 0.13190 0.85599 0.04200
H 	H 	0.81448 0.08862 0.83638 0.04000
C 	C 	0.78460 0.22073 0.84218 -0.11400
C 	C 	0.98205 0.07335 0.77302 -0.11000
C 	C 	0.36294 0.10136 0.82631 -0.07600
C 	C 	0.38408 0.16426 0.81499 0.02300
C 	C 	0.33543 0.13222 0.77159 -0.07600
C 	C 	0.29298 0.11209 0.79447 0.02300
C 	C 	0.30945 0.07073 0.81426 -0.07600
H 	H 	0.39086 0.07711 0.82130 0.03900
H 	H 	0.35880 0.10093 0.84881 0.04100
C 	C 	0.43507 0.19264 0.82646 0.02600
H 	H 	0.32474 0.16220 0.75708 0.04200
H 	H 	0.33837 0.09465 0.75994 0.03900
C 	C 	0.24226 0.08261 0.78298 0.02300
H 	H 	0.31186 0.03190 0.80349 0.03600
H 	H 	0.27977 0.05569 0.83100 0.03700
C 	C 	0.29038 0.16563 0.81024 -0.07600
H 	H 	0.26031 0.15251 0.82690 0.04200
H 	H 	0.27878 0.19628 0.79650 0.04300
C 	C 	0.34398 0.19633 0.82231 -0.07600
H 	H 	0.35800 0.24162 0.81433 0.04300
H 	H 	0.33951 0.19784 0.84473 0.04300
C 	C 	0.38896 0.16288 0.78365 -0.07600
H 	H 	0.40384 0.20751 0.77491 0.03900
H 	H 	0.41744 0.13994 0.77775 0.03700
C 	C 	0.47711 0.21380 0.83591 -0.11000
C 	C 	0.20105 0.05793 0.77346 -0.11000
C 	C 	0.83879 0.63341 0.83971 -0.07600
C 	C 	0.78607 0.61080 0.82549 0.02400
C 	C 	0.79026 0.71507 0.81430 -0.07600
C 	C 	0.84264 0.70963 0.80282 0.02200
C 	C 	0.87190 0.69127 0.82643 -0.07500
H 	H 	0.83199 0.63944 0.86162 0.04300
H 	H 	0.86080 0.60139 0.83843 0.04400
C 	C 	0.75601 0.55524 0.83839 0.02600
H 	H 	0.76822 0.72796 0.79775 0.04400
H 	H 	0.79766 0.74926 0.82959 0.04400
C 	C 	0.87571 0.76432 0.79036 0.03200
H 	H 	0.88090 0.72492 0.84201 0.04200
H 	H 	0.90968 0.68679 0.81884 0.04100
C 	C 	0.83058 0.66144 0.78174 -0.07600
H 	H 	0.86745 0.65636 0.77315 0.04100
H 	H 	0.80927 0.67328 0.76457 0.04300
C 	C 	0.79736 0.60338 0.79506 -0.07600
H 	H 	0.76016 0.58747 0.78426 0.04000
H 	H 	0.81842 0.57068 0.79282 0.04100
C 	C 	0.75693 0.65683 0.82766 -0.07700
H 	H 	0.71896 0.64190 0.81750 0.04200
H 	H 	0.74843 0.66325 0.84932 0.04300
C 	C 	0.73524 0.50923 0.84950 -0.10500
C 	C 	0.90617 0.80754 0.78068 -0.11200
