data_crystal

_cell_length_a 38.51114
_cell_length_b 34.98573
_cell_length_c 27.79532
_cell_angle_alpha 91.42148
_cell_angle_beta  88.64873
_cell_angle_gamma 90.02888

_symmetry_space_group_name_	'P 1'
_symmetry_space_group_name_H-M	'P 1'

loop_
_symmetry_equiv_pos_as_xyz
  x,y,z

loop_
_atom_site_label
_atom_site_type_symbol
_atom_site_fract_x
_atom_site_fract_y
_atom_site_fract_z
_atom_site_charge
Cd	Cd	0.85113 0.94714 0.26009 1.25100
Cd	Cd	0.86958 0.00980 0.35684 1.20400
O 	O 	0.80827 0.89593 0.27276 -0.27900
O 	O 	0.83434 0.90360 0.20300 -0.30500
C 	C 	0.81562 0.88138 0.23026 0.38000
O 	O 	0.88538 0.99137 0.22719 -0.33800
O 	O 	0.91104 0.00968 0.29800 -0.37300
C 	C 	0.90796 0.01259 0.25103 0.33300
C 	C 	0.80465 0.00815 0.28370 0.33200
O 	O 	0.87467 0.94390 0.34857 -0.41700
O 	O 	0.79727 0.99313 0.24158 -0.25400
O 	O 	0.82689 0.98932 0.30805 -0.51700
C 	C 	0.90128 0.92507 0.33023 0.32700
O 	O 	0.89983 0.91588 0.28468 -0.29200
Cd	Cd	0.91922 0.89461 0.05948 1.25100
Cd	Cd	0.93507 0.94056 0.94811 1.20500
O 	O 	0.87693 0.84211 0.05898 -0.27300
O 	O 	0.90900 0.85405 0.12160 -0.26900
C 	C 	0.88603 0.83186 0.10143 0.37900
O 	O 	0.96471 0.93279 0.07489 -0.32800
O 	O 	0.95298 0.97291 0.01374 -0.37200
C 	C 	0.97466 0.96005 0.04549 0.32800
C 	C 	0.96365 0.85900 0.98826 0.33700
O 	O 	0.88534 0.93278 0.99527 -0.42000
O 	O 	0.96642 0.84289 0.02984 -0.22200
O 	O 	0.93864 0.88357 0.98550 -0.50700
C 	C 	0.87407 0.95560 0.03004 0.33200
O 	O 	0.88121 0.94524 0.07354 -0.31200
C 	C 	0.91469 0.63927 0.89960 0.24300
N 	N 	0.90070 0.64257 0.85537 -0.11700
C 	C 	0.92023 0.63447 0.81504 0.15100
N 	N 	0.95349 0.62229 0.81896 -0.14100
C 	C 	0.96722 0.61800 0.86301 0.15200
N 	N 	0.94791 0.62681 0.90320 -0.12000
C 	C 	0.88836 0.65920 0.38730 0.24200
N 	N 	0.87642 0.65281 0.43286 -0.11800
C 	C 	0.89714 0.63566 0.46485 0.14900
N 	N 	0.92967 0.62440 0.45096 -0.14100
C 	C 	0.94140 0.62991 0.40525 0.14900
N 	N 	0.92082 0.64744 0.37351 -0.11700
Cd	Cd	0.93971 0.18222 0.74452 1.25100
Cd	Cd	0.01201 0.18802 0.81778 1.20800
O 	O 	0.89366 0.23128 0.74805 -0.26100
O 	O 	0.89224 0.18230 0.69783 -0.27400
C 	C 	0.87526 0.21069 0.71844 0.36500
O 	O 	0.97350 0.13354 0.71981 -0.34700
O 	O 	0.00181 0.12742 0.79119 -0.37900
C 	C 	0.99413 0.11428 0.74774 0.33600
C 	C 	0.99501 0.23242 0.71963 0.34900
O 	O 	0.95304 0.18850 0.83736 -0.40900
O 	O 	0.97548 0.22629 0.68228 -0.25400
O 	O 	0.98352 0.21850 0.75953 -0.52600
C 	C 	0.93340 0.15860 0.84318 0.33600
O 	O 	0.91770 0.14555 0.80520 -0.31300
Cd	Cd	0.92794 0.24028 0.54515 1.25100
Cd	Cd	0.96310 0.24213 0.42615 1.21200
O 	O 	0.87617 0.27922 0.56737 -0.27300
O 	O 	0.89696 0.23655 0.61487 -0.30800
C 	C 	0.87051 0.25766 0.60428 0.38000
O 	O 	0.96381 0.19017 0.54198 -0.33600
O 	O 	0.99595 0.20743 0.47556 -0.37000
C 	C 	0.98469 0.18091 0.50517 0.33000
C 	C 	0.89170 0.20396 0.46812 0.34000
O 	O 	0.95923 0.28857 0.48766 -0.41800
O 	O 	0.88087 0.19196 0.50982 -0.22400
O 	O 	0.91350 0.23212 0.46947 -0.51100
C 	C 	0.98127 0.29568 0.52164 0.32800
O 	O 	0.97371 0.28110 0.56341 -0.31000
C 	C 	0.69326 0.12392 0.93241 0.25300
N 	N 	0.69928 0.12953 0.98007 -0.13200
C 	C 	0.68322 0.10712 0.01311 0.16000
N 	N 	0.66023 0.08002 0.99844 -0.14500
C 	C 	0.65396 0.07463 0.95089 0.15200
N 	N 	0.67039 0.09669 0.91797 -0.12700
C 	C 	0.68268 0.14341 0.45074 0.24000
N 	N 	0.69533 0.14786 0.40505 -0.11900
C 	C 	0.68103 0.12813 0.36776 0.14900
N 	N 	0.65561 0.10223 0.37657 -0.14100
C 	C 	0.64438 0.09594 0.42228 0.14900
N 	N 	0.65766 0.11683 0.45935 -0.11700
Cd	Cd	0.19546 0.20303 0.22701 1.25200
Cd	Cd	0.17377 0.15672 0.33597 1.20200
O 	O 	0.24866 0.24188 0.22148 -0.26800
O 	O 	0.21491 0.23338 0.15991 -0.28900
C 	C 	0.24120 0.25172 0.17808 0.37400
O 	O 	0.15051 0.16525 0.20858 -0.33400
O 	O 	0.12926 0.16312 0.28629 -0.38900
C 	C 	0.12880 0.15097 0.24108 0.33500
C 	C 	0.22967 0.13373 0.24865 0.34400
O 	O 	0.18234 0.22087 0.31883 -0.41200
O 	O 	0.23686 0.14331 0.20433 -0.24400
O 	O 	0.21391 0.15978 0.27494 -0.50900
C 	C 	0.15903 0.24468 0.30395 0.32600
O 	O 	0.15782 0.24914 0.25765 -0.29600
Cd	Cd	0.23284 0.19564 0.98370 1.25000
Cd	Cd	0.21700 0.14058 0.87715 1.19900
O 	O 	0.27827 0.24500 0.98179 -0.27400
O 	O 	0.24264 0.23979 0.04393 -0.28900
C 	C 	0.26760 0.25904 0.02328 0.38400
O 	O 	0.18397 0.16269 0.99950 -0.33700
O 	O 	0.19601 0.11399 0.94469 -0.38900
C 	C 	0.17494 0.13047 0.97699 0.33700
C 	C 	0.19446 0.22886 0.90907 0.34900
O 	O 	0.26596 0.14804 0.92386 -0.41600
O 	O 	0.19186 0.24932 0.94884 -0.22300
O 	O 	0.21675 0.20108 0.90924 -0.51300
C 	C 	0.27385 0.12795 0.96103 0.32900
O 	O 	0.26626 0.14355 0.00310 -0.30500
C 	C 	0.25551 0.48713 0.85966 0.24200
N 	N 	0.26363 0.48363 0.81183 -0.11500
C 	C 	0.24584 0.50402 0.77952 0.15200
N 	N 	0.22031 0.52835 0.79511 -0.14000
C 	C 	0.21273 0.53277 0.84288 0.15100
N 	N 	0.23053 0.51228 0.87503 -0.12100
C 	C 	0.22385 0.47569 0.34568 0.24600
N 	N 	0.23967 0.47918 0.38882 -0.12000
C 	C 	0.22365 0.49822 0.42634 0.15100
N 	N 	0.19172 0.51372 0.42064 -0.14000
C 	C 	0.17609 0.51080 0.37745 0.15000
N 	N 	0.19217 0.49183 0.34001 -0.12100
Cd	Cd	0.20231 0.82526 0.73848 1.25100
Cd	Cd	0.15793 0.84466 0.85232 1.20200
O 	O 	0.24911 0.77801 0.74082 -0.27600
O 	O 	0.23474 0.80363 0.67309 -0.29500
C 	C 	0.25636 0.78191 0.69537 0.38000
O 	O 	0.15954 0.86519 0.71898 -0.33600
O 	O 	0.12776 0.86403 0.78938 -0.37400
C 	C 	0.13924 0.88268 0.75184 0.32800
C 	C 	0.15216 0.77312 0.77705 0.34000
O 	O 	0.21401 0.85746 0.82264 -0.42100
O 	O 	0.15928 0.76570 0.73153 -0.25300
O 	O 	0.17256 0.79782 0.79759 -0.50000
C 	C 	0.22706 0.88624 0.79927 0.32100
O 	O 	0.23317 0.87998 0.75362 -0.29400
Cd	Cd	0.16774 0.86482 0.49030 1.24900
Cd	Cd	0.12856 0.87521 0.37746 1.20900
O 	O 	0.20867 0.81194 0.50110 -0.27700
O 	O 	0.20123 0.85727 0.55608 -0.29800
C 	C 	0.21884 0.82718 0.54151 0.37400
O 	O 	0.14143 0.92184 0.49638 -0.34500
O 	O 	0.10208 0.90820 0.43795 -0.38800
C 	C 	0.11681 0.93296 0.46747 0.33300
C 	C 	0.20829 0.89566 0.41291 0.33100
O 	O 	0.12723 0.82605 0.43205 -0.41400
O 	O 	0.22223 0.90244 0.45459 -0.23300
O 	O 	0.18116 0.87350 0.41374 -0.49600
C 	C 	0.10512 0.82223 0.46791 0.32700
O 	O 	0.11589 0.83449 0.50976 -0.31200
C 	C 	0.44277 0.82052 0.87956 0.24100
N 	N 	0.43976 0.80498 0.92393 -0.12100
C 	C 	0.45551 0.82204 0.96213 0.14300
N 	N 	0.47512 0.85378 0.95566 -0.14200
C 	C 	0.47826 0.86927 0.91153 0.14900
N 	N 	0.46214 0.85261 0.87350 -0.12100
C 	C 	0.43779 0.83489 0.39240 0.24200
N 	N 	0.46028 0.86238 0.40731 -0.12000
C 	C 	0.48535 0.87534 0.37679 0.15200
N 	N 	0.48860 0.85995 0.33158 -0.13900
C 	C 	0.46526 0.83368 0.31559 0.14900
N 	N 	0.43972 0.82129 0.34610 -0.12100
C 	C 	0.45126 0.80655 0.01078 -0.03200
C 	C 	0.42126 0.81512 0.03952 0.12300
C 	C 	0.42242 0.81142 0.08971 -0.07900
C 	C 	0.45323 0.80053 0.11154 0.00200
C 	C 	0.48177 0.78774 0.08240 0.08800
C 	C 	0.48032 0.79054 0.03214 -0.04600
N 	N 	0.39173 0.82800 0.01945 -0.19800
H 	H 	0.40006 0.81965 0.11206 0.08000
C 	C 	0.45729 0.80892 0.16374 0.00500
N 	N 	0.51092 0.77381 0.10242 -0.19300
H 	H 	0.50282 0.78265 0.00987 0.07400
C 	C 	0.45226 0.77957 0.19671 -0.08000
C 	C 	0.45743 0.78629 0.24616 0.12900
C 	C 	0.46404 0.82406 0.26336 -0.03800
C 	C 	0.46840 0.85351 0.23031 -0.04100
C 	C 	0.46603 0.84615 0.18064 0.08300
H 	H 	0.44596 0.75100 0.18362 0.08100
N 	N 	0.45780 0.75624 0.27627 -0.19700
H 	H 	0.47362 0.88238 0.24328 0.06100
N 	N 	0.47222 0.87491 0.14946 -0.19200
H 	H 	0.45085 0.72891 0.26388 0.12500
H 	H 	0.46738 0.75910 0.31099 0.12900
H 	H 	0.47800 0.90244 0.16239 0.10300
H 	H 	0.47211 0.87022 0.11224 0.10200
H 	H 	0.53224 0.76543 0.08069 0.11700
H 	H 	0.51249 0.77039 0.13949 0.11100
H 	H 	0.38972 0.83029 0.98227 0.14700
H 	H 	0.37005 0.83525 0.04110 0.12800
C 	C 	0.31211 0.85053 0.54150 0.24000
C 	C 	0.32503 0.81452 0.52673 0.00300
C 	C 	0.30506 0.78183 0.53588 0.23200
C 	C 	0.27025 0.78575 0.55087 0.31400
C 	C 	0.25525 0.82233 0.55522 -0.18300
C 	C 	0.27727 0.85444 0.55614 0.32600
C 	C 	0.35435 0.81222 0.49170 -0.01000
F 	F 	0.31831 0.74652 0.52575 -0.34100
F 	F 	0.26411 0.88985 0.56591 -0.35200
C 	C 	0.38864 0.81268 0.50754 0.24700
C 	C 	0.41623 0.81728 0.47447 0.29000
C 	C 	0.40962 0.82228 0.42538 -0.15300
C 	C 	0.37535 0.81942 0.40929 0.28900
C 	C 	0.34792 0.81406 0.44227 0.23700
F 	F 	0.39515 0.80986 0.55512 -0.32600
F 	F 	0.36841 0.82396 0.36210 -0.37500
F 	F 	0.44935 0.81773 0.49022 -0.36800
F 	F 	0.31482 0.81255 0.42653 -0.35400
F 	F 	0.33222 0.88215 0.53670 -0.33200
F 	F 	0.25008 0.75415 0.55542 -0.36800
C 	C 	0.34560 0.81376 0.69625 0.23900
C 	C 	0.35906 0.78105 0.71742 0.00700
C 	C 	0.34323 0.74557 0.70799 0.23800
C 	C 	0.31029 0.74434 0.68762 0.31900
C 	C 	0.29283 0.77867 0.67907 -0.18600
C 	C 	0.31254 0.81242 0.67631 0.30300
C 	C 	0.38164 0.78565 0.75944 -0.01100
F 	F 	0.35770 0.71298 0.72387 -0.33900
F 	F 	0.29740 0.84535 0.66276 -0.36500
C 	C 	0.36663 0.78752 0.80602 0.23500
C 	C 	0.38690 0.79712 0.84561 0.29000
C 	C 	0.42252 0.80480 0.83910 -0.15300
C 	C 	0.43787 0.80109 0.79271 0.29000
C 	C 	0.41744 0.79174 0.75302 0.24800
F 	F 	0.33199 0.78166 0.81259 -0.35400
F 	F 	0.47247 0.80709 0.78605 -0.37100
F 	F 	0.37155 0.80092 0.88995 -0.38200
F 	F 	0.43229 0.78943 0.70826 -0.32500
F 	F 	0.36237 0.84775 0.70073 -0.33100
F 	F 	0.29310 0.71055 0.68412 -0.36400
C 	C 	0.25057 0.49565 0.72757 -0.03200
C 	C 	0.22403 0.47737 0.70114 0.12300
C 	C 	0.22603 0.47666 0.65065 -0.07900
C 	C 	0.25483 0.49212 0.62623 0.00200
C 	C 	0.28285 0.50728 0.65278 0.09400
C 	C 	0.28018 0.50942 0.70332 -0.04200
N 	N 	0.19684 0.46013 0.72401 -0.19700
H 	H 	0.20500 0.46420 0.63026 0.07300
C 	C 	0.25416 0.49462 0.57303 0.00000
N 	N 	0.31235 0.51952 0.63009 -0.19300
H 	H 	0.30089 0.52252 0.72373 0.08300
C 	C 	0.24686 0.52991 0.55263 -0.07900
C 	C 	0.24046 0.53225 0.50325 0.12000
C 	C 	0.23903 0.49829 0.47457 -0.03400
C 	C 	0.24867 0.46340 0.49425 -0.04700
C 	C 	0.25694 0.46138 0.54309 0.09400
H 	H 	0.24590 0.55558 0.57532 0.07900
N 	N 	0.23655 0.56710 0.48343 -0.19800
H 	H 	0.24873 0.43754 0.47190 0.09900
N 	N 	0.26754 0.42759 0.56096 -0.19400
H 	H 	0.23605 0.59191 0.50517 0.12600
H 	H 	0.23591 0.57006 0.44617 0.12400
H 	H 	0.26840 0.40288 0.53904 0.12900
H 	H 	0.27619 0.42579 0.59615 0.11900
H 	H 	0.33250 0.53164 0.64987 0.12900
H 	H 	0.31604 0.51606 0.59290 0.12000
H 	H 	0.19609 0.45727 0.76133 0.12800
H 	H 	0.17671 0.44792 0.70426 0.11700
C 	C 	0.28167 0.08677 0.95535 -0.12400
C 	C 	0.25888 0.05962 0.97544 0.11500
C 	C 	0.25460 0.02402 0.95195 0.06000
C 	C 	0.27650 0.01373 0.91248 0.01400
C 	C 	0.30451 0.03765 0.89974 0.06100
C 	C 	0.30678 0.07454 0.92074 0.11400
C 	C 	0.26722 0.98105 0.88060 0.01400
C 	C 	0.27724 0.94365 0.89187 0.07600
C 	C 	0.26560 0.91235 0.86381 0.11500
C 	C 	0.24380 0.91866 0.82464 -0.10500
C 	C 	0.23827 0.95631 0.80949 0.12100
C 	C 	0.24778 0.98734 0.83926 0.08800
Br	Br	0.33839 0.02054 0.85181 -0.12600
Br	Br	0.23605 0.06957 0.03676 -0.11800
Br	Br	0.28315 0.86176 0.87508 -0.10400
Br	Br	0.23256 0.03829 0.82495 -0.22200
Br	Br	0.34386 0.10848 0.90208 -0.14000
Br	Br	0.21684 0.99097 0.97089 -0.13100
Br	Br	0.30670 0.93546 0.94583 -0.13400
Br	Br	0.22035 0.96558 0.74649 -0.10800
C 	C 	0.28008 0.44306 0.97673 0.24500
C 	C 	0.27973 0.40408 0.96376 -0.01200
C 	C 	0.27669 0.39287 0.91518 0.23800
C 	C 	0.27123 0.42022 0.88034 0.28800
C 	C 	0.26916 0.45925 0.89368 -0.15000
C 	C 	0.27522 0.47061 0.94176 0.29000
C 	C 	0.27853 0.37480 0.00108 0.00900
F 	F 	0.27708 0.35519 0.90219 -0.35000
F 	F 	0.27536 0.50827 0.95478 -0.36300
C 	C 	0.24616 0.36162 0.01799 0.23500
C 	C 	0.24289 0.32423 0.03427 0.30500
C 	C 	0.27214 0.30013 0.03390 -0.18800
C 	C 	0.30525 0.31633 0.02721 0.31700
C 	C 	0.30845 0.35349 0.01003 0.24200
F 	F 	0.21730 0.38334 0.01321 -0.33300
F 	F 	0.33408 0.29447 0.03147 -0.34700
F 	F 	0.21079 0.30991 0.04396 -0.34500
F 	F 	0.34027 0.36722 0.99743 -0.33200
F 	F 	0.28401 0.45421 0.02342 -0.31800
F 	F 	0.26574 0.40855 0.83418 -0.37400
C 	C 	0.23339 0.09384 0.26509 -0.13300
C 	C 	0.23149 0.06235 0.23217 0.13000
C 	C 	0.23754 0.02531 0.24825 0.06800
C 	C 	0.23528 0.01815 0.29775 0.01500
C 	C 	0.23472 0.04926 0.33107 0.06700
C 	C 	0.23778 0.08677 0.31444 0.09300
C 	C 	0.23351 0.97825 0.31472 0.02600
C 	C 	0.20349 0.95569 0.30752 0.07000
C 	C 	0.20035 0.92051 0.33039 0.09600
C 	C 	0.22244 0.91285 0.36830 -0.11100
C 	C 	0.25536 0.93047 0.36844 0.13100
C 	C 	0.26114 0.96308 0.34067 0.07200
Br	Br	0.22903 0.04081 0.39909 -0.14200
Br	Br	0.21350 0.06811 0.16880 -0.11100
Br	Br	0.17825 0.87866 0.29740 -0.29300
Br	Br	0.30631 0.98677 0.33787 -0.11200
Br	Br	0.25282 0.12701 0.35786 -0.23500
Br	Br	0.25049 0.98504 0.20277 -0.10500
Br	Br	0.16680 0.97243 0.26718 -0.12100
Br	Br	0.29293 0.90779 0.40234 -0.06100
C 	C 	0.28596 0.34406 0.18731 0.23900
C 	C 	0.25634 0.36715 0.19446 0.00200
C 	C 	0.22480 0.35480 0.17505 0.23100
C 	C 	0.22117 0.31681 0.15908 0.31200
C 	C 	0.24892 0.29108 0.16350 -0.18500
C 	C 	0.28225 0.30596 0.17147 0.31200
C 	C 	0.25584 0.39717 0.23290 -0.00900
F 	F 	0.19659 0.37809 0.17731 -0.33000
F 	F 	0.31023 0.28236 0.17012 -0.35100
C 	C 	0.24816 0.43521 0.22212 0.24800
C 	C 	0.23955 0.46162 0.25924 0.29300
C 	C 	0.23871 0.45017 0.30743 -0.15400
C 	C 	0.24887 0.41285 0.31830 0.29100
C 	C 	0.25749 0.38656 0.28127 0.23400
F 	F 	0.24767 0.44616 0.17562 -0.31800
F 	F 	0.24830 0.40134 0.36462 -0.37700
F 	F 	0.23127 0.49807 0.24835 -0.36500
F 	F 	0.26534 0.34999 0.29221 -0.34600
F 	F 	0.31750 0.35706 0.20110 -0.32600
F 	F 	0.18948 0.30389 0.14576 -0.34500
C 	C 	0.62251 0.06236 0.43195 -0.03300
C 	C 	0.58717 0.06640 0.44637 0.12300
C 	C 	0.56530 0.03426 0.44492 -0.08500
C 	C 	0.57791 0.99862 0.42817 0.00600
C 	C 	0.61373 0.99414 0.41674 0.09200
C 	C 	0.63578 0.02599 0.41973 -0.04900
N 	N 	0.57389 0.10103 0.46055 -0.19800
H 	H 	0.53801 0.03736 0.45474 0.07800
C 	C 	0.55275 0.96778 0.41706 -0.00200
N 	N 	0.62697 0.95963 0.40192 -0.19400
H 	H 	0.66309 0.02285 0.40996 0.07800
C 	C 	0.53382 0.96965 0.37473 -0.07700
C 	C 	0.50974 0.94109 0.36280 0.11600
C 	C 	0.50705 0.90821 0.39141 -0.03400
C 	C 	0.52545 0.90665 0.43430 -0.04500
C 	C 	0.54763 0.93667 0.44811 0.09400
H 	H 	0.53711 0.99405 0.35172 0.06800
N 	N 	0.48821 0.94624 0.32538 -0.19800
H 	H 	0.52260 0.88198 0.45693 0.09300
N 	N 	0.56406 0.93530 0.49083 -0.19400
H 	H 	0.49192 0.96928 0.30258 0.10700
H 	H 	0.46620 0.92926 0.32069 0.11500
H 	H 	0.56063 0.91186 0.51305 0.12700
H 	H 	0.57986 0.95765 0.50283 0.12000
H 	H 	0.65342 0.95676 0.39324 0.12100
H 	H 	0.61136 0.93535 0.39901 0.11200
H 	H 	0.58940 0.12545 0.46237 0.12700
H 	H 	0.54763 0.10375 0.47044 0.12000
C 	C 	0.49952 0.90387 0.90492 -0.03500
C 	C 	0.49416 0.93678 0.93482 0.11600
C 	C 	0.51965 0.96544 0.93599 -0.07900
C 	C 	0.54915 0.96291 0.90557 -0.00100
C 	C 	0.55251 0.93211 0.87177 0.09200
C 	C 	0.52786 0.90251 0.87230 -0.04500
N 	N 	0.46436 0.94137 0.96159 -0.19800
H 	H 	0.51657 0.98973 0.96073 0.07000
C 	C 	0.57764 0.99087 0.91230 0.00300
N 	N 	0.57918 0.93084 0.83881 -0.19400
H 	H 	0.53132 0.87785 0.84825 0.08900
C 	C 	0.60711 0.97985 0.93720 -0.07500
C 	C 	0.63355 0.00626 0.94728 0.10900
C 	C 	0.62924 0.04499 0.93501 -0.03700
C 	C 	0.60027 0.05577 0.90887 -0.04500
C 	C 	0.57468 0.02888 0.89657 0.08500
H 	H 	0.60962 0.95050 0.94832 0.07000
N 	N 	0.66334 0.99406 0.96735 -0.19200
H 	H 	0.59745 0.08526 0.89844 0.08400
N 	N 	0.54758 0.03964 0.86942 -0.19300
H 	H 	0.66563 0.96581 0.97828 0.11500
H 	H 	0.68508 0.01175 0.96993 0.11900
H 	H 	0.54514 0.06800 0.85904 0.12200
H 	H 	0.52930 0.01985 0.85717 0.11400
H 	H 	0.58205 0.90744 0.81494 0.12300
H 	H 	0.59663 0.95353 0.83548 0.11700
H 	H 	0.44334 0.92282 0.95735 0.11700
H 	H 	0.46128 0.96489 0.98524 0.11000
C 	C 	0.68912 0.11348 0.06515 -0.04500
C 	C 	0.72309 0.11619 0.08371 0.13100
C 	C 	0.72720 0.12426 0.13306 -0.08300
C 	C 	0.69840 0.12469 0.16492 0.00700
C 	C 	0.66452 0.12059 0.14663 0.08200
C 	C 	0.66024 0.11616 0.09680 -0.04000
N 	N 	0.75164 0.10892 0.05518 -0.20000
H 	H 	0.75305 0.12777 0.14713 0.09400
C 	C 	0.70402 0.12766 0.21752 0.00500
N 	N 	0.63606 0.12054 0.17663 -0.19200
H 	H 	0.63428 0.11415 0.08266 0.06800
C 	C 	0.69828 0.16287 0.24160 -0.07800
C 	C 	0.69285 0.16464 0.29182 0.12800
C 	C 	0.69598 0.13080 0.31853 -0.03700
C 	C 	0.70730 0.09699 0.29492 -0.04800
C 	C 	0.71005 0.09461 0.24452 0.08800
H 	H 	0.69510 0.18843 0.22087 0.08200
N 	N 	0.68346 0.19844 0.31365 -0.19900
H 	H 	0.71111 0.07152 0.31562 0.07200
N 	N 	0.71714 0.06030 0.22232 -0.19200
H 	H 	0.68128 0.22312 0.29349 0.13100
H 	H 	0.67805 0.20069 0.35051 0.15400
H 	H 	0.72110 0.03599 0.24262 0.11700
H 	H 	0.71935 0.05744 0.18492 0.11500
H 	H 	0.61118 0.11791 0.16267 0.10700
H 	H 	0.63822 0.12252 0.21396 0.10300
H 	H 	0.74958 0.09631 0.02095 0.14700
H 	H 	0.77653 0.11313 0.06857 0.13700
C 	C 	0.01512 0.31422 0.51110 -0.11900
C 	C 	0.04608 0.29776 0.52698 0.12400
C 	C 	0.07601 0.29846 0.49688 0.06100
C 	C 	0.07502 0.31765 0.45299 0.02200
C 	C 	0.04778 0.34354 0.44576 0.06100
C 	C 	0.01740 0.34154 0.47477 0.11500
C 	C 	0.09590 0.30295 0.41097 0.00000
C 	C 	0.13089 0.31390 0.40447 0.08000
C 	C 	0.15191 0.29488 0.36921 0.11300
C 	C 	0.13702 0.26749 0.33781 -0.11000
C 	C 	0.10092 0.26155 0.33941 0.10500
C 	C 	0.08088 0.27699 0.37785 0.09700
Br	Br	0.05104 0.37875 0.39375 -0.15100
Br	Br	0.04887 0.28007 0.59178 -0.12200
Br	Br	0.20049 0.30747 0.36250 -0.08600
Br	Br	0.03326 0.26144 0.38599 -0.31700
Br	Br	0.97913 0.37563 0.46505 -0.16500
Br	Br	0.11782 0.27289 0.51495 -0.12700
Br	Br	0.14936 0.35592 0.44209 -0.13900
Br	Br	0.07845 0.23469 0.28730 -0.13600
C 	C 	0.09889 0.96962 0.47790 -0.09900
C 	C 	0.07216 0.97157 0.51327 0.13700
C 	C 	0.05129 0.00456 0.51847 0.07000
C 	C 	0.05792 0.03634 0.48917 0.02100
C 	C 	0.08423 0.03394 0.45298 0.07900
C 	C 	0.10471 0.00069 0.44753 0.11600
C 	C 	0.03818 0.07276 0.49733 0.02200
C 	C 	0.00337 0.07564 0.48304 0.07700
C 	C 	0.98478 0.10970 0.49257 0.12200
C 	C 	0.00278 0.14347 0.50500 -0.09800
C 	C 	0.03830 0.14131 0.51599 0.13000
C 	C 	0.05496 0.10547 0.51638 0.07100
Br	Br	0.09185 0.07608 0.41050 -0.16800
Br	Br	0.06266 0.92786 0.55227 -0.11500
Br	Br	0.93478 0.10876 0.49435 -0.13900
Br	Br	0.10057 0.10123 0.54295 -0.11600
Br	Br	0.14013 0.99713 0.39756 -0.18300
Br	Br	0.01211 0.00487 0.56299 -0.10500
Br	Br	0.98226 0.03472 0.44648 -0.14000
Br	Br	0.06457 0.18711 0.52811 -0.12500
C 	C 	0.72010 0.17022 0.57172 0.24600
C 	C 	0.73739 0.20435 0.56037 -0.00500
C 	C 	0.72957 0.22250 0.51734 0.23500
C 	C 	0.70897 0.20395 0.48320 0.29100
C 	C 	0.69699 0.16657 0.49103 -0.15200
C 	C 	0.70103 0.15063 0.53663 0.29500
C 	C 	0.76895 0.21566 0.58684 -0.00500
F 	F 	0.74329 0.25728 0.50761 -0.33100
F 	F 	0.68814 0.11541 0.54610 -0.36400
C 	C 	0.79690 0.18998 0.58856 0.23400
C 	C 	0.82951 0.20287 0.60237 0.30900
C 	C 	0.83523 0.24207 0.61176 -0.19800
C 	C 	0.80657 0.26690 0.61549 0.31700
C 	C 	0.77334 0.25353 0.60395 0.24000
F 	F 	0.79317 0.15314 0.57297 -0.32700
F 	F 	0.81122 0.30436 0.62753 -0.35000
F 	F 	0.85637 0.17775 0.60216 -0.35300
F 	F 	0.74584 0.27780 0.60690 -0.31900
F 	F 	0.72433 0.15440 0.61532 -0.31900
F 	F 	0.70102 0.22208 0.44228 -0.37800
C 	C 	0.12004 0.91745 0.73923 -0.10400
C 	C 	0.12255 0.95059 0.76907 0.13200
C 	C 	0.10169 0.98247 0.76048 0.07600
C 	C 	0.07291 0.97853 0.73057 0.02600
C 	C 	0.06793 0.94403 0.70446 0.06900
C 	C 	0.09316 0.91491 0.70559 0.13200
C 	C 	0.04673 0.00959 0.72923 0.01600
C 	C 	0.02079 0.01306 0.76578 0.06900
C 	C 	0.99895 0.04536 0.76779 0.13000
C 	C 	0.00380 0.07443 0.73418 -0.10300
C 	C 	0.02436 0.06684 0.69267 0.12600
C 	C 	0.04809 0.03627 0.69206 0.07200
Br	Br	0.02462 0.93474 0.67282 -0.09700
Br	Br	0.14846 0.94950 0.82757 -0.21300
Br	Br	0.96019 0.04804 0.81274 -0.15000
Br	Br	0.08424 0.03297 0.64312 -0.12100
Br	Br	0.08979 0.87091 0.66304 -0.10900
Br	Br	0.11218 0.03128 0.79028 -0.12700
Br	Br	0.01603 0.97435 0.81367 -0.13900
Br	Br	0.01389 0.09154 0.63390 -0.12300
C 	C 	0.03127 0.24525 0.71497 -0.13700
C 	C 	0.04061 0.28060 0.73613 0.12100
C 	C 	0.07293 0.28438 0.75858 0.06400
C 	C 	0.09457 0.25208 0.76181 0.00900
C 	C 	0.08772 0.21931 0.73312 0.04300
C 	C 	0.05715 0.21759 0.70668 0.09900
C 	C 	0.12024 0.25014 0.80062 0.00800
C 	C 	0.15602 0.25327 0.78965 0.07200
C 	C 	0.18054 0.24426 0.82445 0.11600
C 	C 	0.16924 0.23282 0.87053 -0.14900
C 	C 	0.13343 0.23042 0.88163 0.12100
C 	C 	0.10908 0.24079 0.84752 0.07000
Br	Br	0.11798 0.17546 0.73416 -0.17500
Br	Br	0.00816 0.32240 0.73734 -0.13600
Br	Br	0.22953 0.24839 0.80943 -0.15100
Br	Br	0.06063 0.24451 0.86601 -0.29500
Br	Br	0.05090 0.17839 0.65868 -0.13600
Br	Br	0.08671 0.33258 0.78710 -0.12200
Br	Br	0.17124 0.27065 0.72732 -0.11400
Br	Br	0.11764 0.21190 0.94325 -0.14800
C 	C 	0.79017 0.16327 0.74508 0.24300
C 	C 	0.77775 0.18840 0.78165 -0.00100
C 	C 	0.79110 0.22572 0.78460 0.23800
C 	C 	0.82003 0.23567 0.75611 0.30700
C 	C 	0.83719 0.20756 0.72728 -0.18400
C 	C 	0.82013 0.17243 0.71845 0.30300
C 	C 	0.75633 0.17340 0.82179 -0.00600
F 	F 	0.77775 0.25133 0.81753 -0.32800
F 	F 	0.83413 0.14592 0.68726 -0.33200
C 	C 	0.77025 0.14587 0.85191 0.23700
C 	C 	0.74976 0.13031 0.88864 0.29400
C 	C 	0.71543 0.14271 0.89642 -0.16100
C 	C 	0.70153 0.17053 0.86678 0.29500
C 	C 	0.72190 0.18579 0.82948 0.24600
F 	F 	0.80342 0.13348 0.84466 -0.34900
F 	F 	0.66815 0.18231 0.87366 -0.36700
F 	F 	0.76271 0.10187 0.91532 -0.38500
F 	F 	0.70802 0.21200 0.80028 -0.32300
F 	F 	0.77516 0.12845 0.73860 -0.32400
F 	F 	0.83323 0.27159 0.75982 -0.34900
C 	C 	0.97660 0.61723 0.39035 -0.03400
C 	C 	0.00626 0.63229 0.41326 0.12000
C 	C 	0.03860 0.61448 0.40521 -0.07900
C 	C 	0.04209 0.58320 0.37294 -0.00000
C 	C 	0.01303 0.57035 0.34678 0.09400
C 	C 	0.98041 0.58726 0.35620 -0.04300
N 	N 	0.00396 0.66419 0.44217 -0.19800
H 	H 	0.06112 0.62493 0.42421 0.07300
C 	C 	0.07570 0.56256 0.36939 0.00100
N 	N 	0.01626 0.54196 0.31262 -0.19300
H 	H 	0.95779 0.57646 0.33772 0.08900
C 	C 	0.07963 0.52893 0.39515 -0.07900
C 	C 	0.11186 0.51024 0.39587 0.12100
C 	C 	0.14098 0.52649 0.37197 -0.03600
C 	C 	0.13679 0.55931 0.34476 -0.04300
C 	C 	0.10428 0.57732 0.34274 0.09200
H 	H 	0.05751 0.51727 0.41470 0.07400
N 	N 	0.11451 0.47647 0.41879 -0.19800
H 	H 	0.15900 0.57118 0.32562 0.08400
N 	N 	0.10064 0.60853 0.31504 -0.19300
H 	H 	0.09309 0.46520 0.43738 0.12100
H 	H 	0.13737 0.46041 0.41697 0.12700
H 	H 	0.12205 0.61974 0.29638 0.12500
H 	H 	0.07649 0.62138 0.31075 0.12100
H 	H 	0.99451 0.53201 0.29433 0.12800
H 	H 	0.04043 0.53023 0.30293 0.12100
H 	H 	0.98104 0.68008 0.44538 0.12200
H 	H 	0.02574 0.67440 0.46018 0.11500
C 	C 	0.00407 0.60741 0.86714 -0.03300
C 	C 	0.01787 0.57447 0.84304 0.11800
C 	C 	0.05381 0.56798 0.84290 -0.07800
C 	C 	0.07580 0.59211 0.86932 -0.00100
C 	C 	0.06184 0.62418 0.89512 0.09500
C 	C 	0.02607 0.63158 0.89357 -0.04400
N 	N 	0.99671 0.54822 0.82178 -0.19800
H 	H 	0.06458 0.54318 0.82369 0.07100
C 	C 	0.11310 0.58227 0.87144 0.00100
N 	N 	0.08249 0.64777 0.92161 -0.19400
H 	H 	0.01535 0.65637 0.91279 0.09200
C 	C 	0.13706 0.60121 0.84166 -0.08000
C 	C 	0.17150 0.58828 0.83685 0.12300
C 	C 	0.18112 0.55393 0.85890 -0.03500
C 	C 	0.15799 0.53697 0.89185 -0.04300
C 	C 	0.12425 0.55138 0.89911 0.09300
H 	H 	0.12888 0.62602 0.82221 0.07700
N 	N 	0.19537 0.60947 0.81249 -0.19800
H 	H 	0.16577 0.51162 0.91050 0.08700
N 	N 	0.10264 0.53536 0.93239 -0.19400
H 	H 	0.18779 0.63387 0.79450 0.12500
H 	H 	0.22186 0.60331 0.81373 0.13100
H 	H 	0.11066 0.51168 0.95147 0.12900
H 	H 	0.07825 0.54703 0.94089 0.12000
H 	H 	0.07189 0.67140 0.94040 0.13500
H 	H 	0.10909 0.64283 0.92418 0.12400
H 	H 	0.96978 0.54936 0.82680 0.12100
H 	H 	0.00724 0.52497 0.80213 0.11400
C 	C 	0.90612 0.64096 0.76704 -0.03500
C 	C 	0.92332 0.66547 0.73445 0.12300
C 	C 	0.91444 0.66426 0.68577 -0.08100
C 	C 	0.88713 0.64103 0.66979 0.00200
C 	C 	0.86739 0.61980 0.70348 0.08900
C 	C 	0.87754 0.61939 0.75173 -0.04300
N 	N 	0.94780 0.69068 0.74986 -0.19900
H 	H 	0.92887 0.68140 0.66019 0.07400
C 	C 	0.88141 0.63681 0.61729 -0.00200
N 	N 	0.83864 0.60009 0.68988 -0.19400
H 	H 	0.86366 0.60156 0.77712 0.07800
C 	C 	0.89169 0.60284 0.59316 -0.07800
C 	C 	0.89271 0.60040 0.54264 0.11500
C 	C 	0.88600 0.63346 0.51600 -0.03200
C 	C 	0.87297 0.66640 0.54001 -0.04900
C 	C 	0.86981 0.66803 0.59049 0.09500
H 	H 	0.89925 0.57838 0.61372 0.07100
N 	N 	0.89931 0.56620 0.51998 -0.19800
H 	H 	0.86642 0.69128 0.51956 0.10100
N 	N 	0.85567 0.69950 0.61295 -0.19500
H 	H 	0.90587 0.54233 0.53975 0.11400
H 	H 	0.89601 0.56245 0.48297 0.11900
H 	H 	0.84831 0.72301 0.59306 0.12700
H 	H 	0.85058 0.70034 0.65003 0.11700
H 	H 	0.82486 0.58351 0.71460 0.12100
H 	H 	0.82899 0.60210 0.65524 0.11500
H 	H 	0.95222 0.69526 0.78646 0.13400
H 	H 	0.96147 0.70750 0.72527 0.12200
C 	C 	0.00606 0.98296 0.05597 -0.09000
C 	C 	0.03929 0.96626 0.05071 0.12400
C 	C 	0.06843 0.98946 0.04016 0.08400
C 	C 	0.06415 0.02928 0.03541 0.01300
C 	C 	0.03123 0.04585 0.04394 0.07200
C 	C 	0.00325 0.02300 0.05889 0.12600
C 	C 	0.09391 0.05375 0.02040 0.03100
C 	C 	0.11442 0.07194 0.05553 0.06600
C 	C 	0.13826 0.10063 0.04232 0.14300
C 	C 	0.14361 0.10915 0.99322 -0.11100
C 	C 	0.12220 0.09179 0.95838 0.13700
C 	C 	0.09845 0.06309 0.97167 0.06100
Br	Br	0.02326 0.09824 0.02769 -0.10300
Br	Br	0.04513 0.91234 0.06047 -0.11600
Br	Br	0.16158 0.12965 0.09185 -0.12200
Br	Br	0.07195 0.03651 0.92316 -0.11200
Br	Br	0.96202 0.04628 0.08651 -0.13000
Br	Br	0.11359 0.96665 0.02964 -0.10900
Br	Br	0.11080 0.05643 0.12147 -0.12100
Br	Br	0.12390 0.10913 0.89299 -0.22800
C 	C 	0.92233 0.14675 0.89119 -0.11700
C 	C 	0.94221 0.11968 0.91433 0.13200
C 	C 	0.92561 0.09260 0.94303 0.08100
C 	C 	0.89038 0.09780 0.95682 0.01400
C 	C 	0.87273 0.13082 0.94269 0.08100
C 	C 	0.88826 0.15453 0.90811 0.13800
C 	C 	0.87123 0.06675 0.98099 0.01500
C 	C 	0.85548 0.03767 0.95322 0.05900
C 	C 	0.84911 0.00190 0.97355 0.08900
C 	C 	0.86133 0.99456 0.01977 -0.10400
C 	C 	0.86911 0.02597 0.05060 0.12000
C 	C 	0.87411 0.06233 0.03088 0.07100
Br	Br	0.82757 0.14300 0.97008 -0.09500
Br	Br	0.99196 0.11948 0.90600 -0.20300
Br	Br	0.82249 0.96373 0.93955 -0.15300
Br	Br	0.88456 0.10600 0.07161 -0.10400
Br	Br	0.86297 0.19686 0.88301 -0.09400
Br	Br	0.94886 0.04542 0.95490 -0.20500
Br	Br	0.84530 0.04591 0.88673 -0.08600
Br	Br	0.86821 0.02058 0.11930 -0.12900
C 	C 	0.98249 0.84399 0.94524 -0.13800
C 	C 	0.97701 0.80594 0.92938 0.12800
C 	C 	0.00076 0.78827 0.89663 0.07700
C 	C 	0.03060 0.80826 0.88120 0.00800
C 	C 	0.03484 0.84701 0.89494 0.08000
C 	C 	0.00979 0.86530 0.92486 0.12300
C 	C 	0.05807 0.78831 0.85201 0.01400
C 	C 	0.08537 0.76967 0.87488 0.03900
C 	C 	0.11474 0.75740 0.84769 0.08500
C 	C 	0.11744 0.76545 0.79843 -0.14300
C 	C 	0.08740 0.77680 0.77445 0.12200
C 	C 	0.05830 0.79011 0.80143 0.05900
Br	Br	0.07606 0.87427 0.87575 -0.23700
Br	Br	0.93707 0.77813 0.95277 -0.10000
Br	Br	0.15144 0.72986 0.87749 -0.20700
Br	Br	0.01977 0.81280 0.76951 -0.13300
Br	Br	0.01269 0.91957 0.93726 -0.28500
Br	Br	0.99291 0.73659 0.87367 -0.16700
Br	Br	0.08344 0.76329 0.94358 -0.16600
Br	Br	0.08470 0.77044 0.70562 -0.13400
C 	C 	0.91076 0.73194 0.08860 0.23600
C 	C 	0.87850 0.71807 0.07316 0.00700
C 	C 	0.84812 0.73685 0.08976 0.25000
C 	C 	0.85038 0.77373 0.11023 0.31100
C 	C 	0.88300 0.79145 0.11394 -0.17400
C 	C 	0.91287 0.76846 0.11004 0.32000
C 	C 	0.87739 0.69292 0.02965 -0.00600
F 	F 	0.81652 0.72166 0.08017 -0.32500
F 	F 	0.94449 0.78360 0.11970 -0.35000
C 	C 	0.89065 0.65559 0.03056 0.25300
C 	C 	0.89969 0.63615 0.98741 0.28500
C 	C 	0.89581 0.65413 0.94307 -0.15000
C 	C 	0.87862 0.68956 0.94217 0.29100
C 	C 	0.86922 0.70869 0.98525 0.23100
F 	F 	0.89658 0.63903 0.07325 -0.32100
F 	F 	0.87349 0.70686 0.89972 -0.37300
F 	F 	0.91362 0.60056 0.98871 -0.36600
F 	F 	0.85487 0.74408 0.98387 -0.34600
F 	F 	0.94035 0.71236 0.07711 -0.33500
F 	F 	0.82096 0.79423 0.11943 -0.36600
C 	C 	0.93612 0.03184 0.22423 -0.09500
C 	C 	0.96563 0.01084 0.20846 0.12800
C 	C 	0.99788 0.02961 0.20250 0.07300
C 	C 	0.00110 0.06850 0.21711 0.02000
C 	C 	0.97101 0.08912 0.23164 0.07600
C 	C 	0.93841 0.07173 0.22784 0.12700
C 	C 	0.03592 0.08724 0.21846 0.02300
C 	C 	0.06080 0.07512 0.25129 0.07000
C 	C 	0.09386 0.09210 0.25143 0.13200
C 	C 	0.10012 0.12572 0.22595 -0.10600
C 	C 	0.07526 0.13841 0.19343 0.13400
C 	C 	0.04374 0.11831 0.18839 0.06700
Br	Br	0.97448 0.13883 0.26251 -0.12200
Br	Br	0.96199 0.95660 0.19601 -0.12200
Br	Br	0.13100 0.06914 0.28586 -0.21000
Br	Br	0.01026 0.13525 0.14307 -0.09800
Br	Br	0.89802 0.10226 0.21821 -0.11300
Br	Br	0.03741 0.00200 0.17583 -0.12400
Br	Br	0.04846 0.03839 0.29945 -0.11200
Br	Br	0.08345 0.18412 0.15737 -0.09900
C 	C 	0.79406 0.04736 0.29887 -0.15100
C 	C 	0.78486 0.05458 0.34756 0.09100
C 	C 	0.79308 0.09007 0.36936 0.03600
C 	C 	0.80863 0.11870 0.34142 0.01800
C 	C 	0.80842 0.11479 0.29096 0.05800
C 	C 	0.80210 0.07864 0.26941 0.11700
C 	C 	0.83190 0.14727 0.36442 0.00500
C 	C 	0.81811 0.18069 0.38681 0.07300
C 	C 	0.83881 0.20252 0.41839 0.13000
C 	C 	0.87394 0.19269 0.42387 -0.14100
C 	C 	0.88907 0.16484 0.39314 0.12600
C 	C 	0.86779 0.13966 0.36728 0.08900
Br	Br	0.81673 0.15877 0.25210 -0.13000
Br	Br	0.76176 0.01559 0.38406 -0.20300
Br	Br	0.81925 0.24520 0.45469 -0.10000
Br	Br	0.88673 0.09219 0.34304 -0.30000
Br	Br	0.80457 0.07221 0.20044 -0.16400
Br	Br	0.78486 0.09879 0.43739 -0.12400
Br	Br	0.77138 0.19636 0.37415 -0.10600
Br	Br	0.93878 0.16180 0.38578 -0.27500
C 	C 	0.92523 0.90502 0.36126 -0.10900
C 	C 	0.91634 0.86877 0.37893 0.12900
C 	C 	0.94095 0.84768 0.40397 0.07600
C 	C 	0.97402 0.86338 0.41241 0.01500
C 	C 	0.98157 0.90086 0.39824 0.07200
C 	C 	0.95822 0.92056 0.37000 0.11700
C 	C 	0.00221 0.83918 0.43031 0.02000
C 	C 	0.01006 0.84018 0.47959 0.06500
C 	C 	0.04234 0.82641 0.49431 0.12800
C 	C 	0.06765 0.81544 0.45919 -0.12000
C 	C 	0.05672 0.80613 0.41235 0.09700
C 	C 	0.02440 0.81936 0.39726 0.05200
Br	Br	0.02397 0.92521 0.41741 -0.16200
Br	Br	0.87119 0.84729 0.36656 -0.09000
Br	Br	0.04887 0.81492 0.56084 -0.11400
Br	Br	0.01151 0.81274 0.33100 -0.12100
Br	Br	0.97299 0.96660 0.33899 -0.15000
Br	Br	0.92991 0.79697 0.42535 -0.11000
Br	Br	0.97764 0.86234 0.52615 -0.11200
Br	Br	0.08384 0.77165 0.37151 -0.19100
C 	C 	0.79741 0.77861 0.25208 0.24300
C 	C 	0.83147 0.76546 0.25810 0.00400
C 	C 	0.85949 0.78739 0.24122 0.22700
C 	C 	0.85393 0.82448 0.22561 0.31000
C 	C 	0.82009 0.83967 0.22557 -0.18400
C 	C 	0.79174 0.81561 0.23567 0.32700
C 	C 	0.83809 0.73374 0.29081 -0.00900
F 	F 	0.89250 0.77428 0.24481 -0.33900
F 	F 	0.75883 0.82928 0.23378 -0.36200
C 	C 	0.85384 0.69992 0.27296 0.24900
C 	C 	0.86836 0.67421 0.30472 0.29200
C 	C 	0.86767 0.68244 0.35459 -0.15000
C 	C 	0.84958 0.71494 0.37251 0.29000
C 	C 	0.83442 0.74006 0.34078 0.23800
F 	F 	0.85643 0.69283 0.22476 -0.32900
F 	F 	0.84838 0.72337 0.42047 -0.37800
F 	F 	0.88373 0.64173 0.28698 -0.36300
F 	F 	0.81788 0.77184 0.35850 -0.34400
F 	F 	0.76995 0.75672 0.26568 -0.33100
F 	F 	0.88171 0.84733 0.21668 -0.37700
