data_crystal

_cell_length_a 35.74889
_cell_length_b 37.16431
_cell_length_c 22.84160
_cell_angle_alpha 92.09212
_cell_angle_beta  89.84292
_cell_angle_gamma 90.15511

_symmetry_space_group_name_	'P 1'
_symmetry_space_group_name_H-M	'P 1'

loop_
_symmetry_equiv_pos_as_xyz
  x,y,z

loop_
_atom_site_label
_atom_site_type_symbol
_atom_site_fract_x
_atom_site_fract_y
_atom_site_fract_z
_atom_site_charge
Cd	Cd	0.90889 0.95190 0.28317 1.23900
Cd	Cd	0.91797 0.01587 0.40157 1.17200
O 	O 	0.84944 0.91899 0.26759 -0.32700
O 	O 	0.89680 0.91239 0.20724 -0.35700
C 	C 	0.86372 0.90131 0.22269 0.28100
O 	O 	0.96511 0.97757 0.26975 -0.38700
O 	O 	0.97254 0.99463 0.36660 -0.42900
C 	C 	0.98373 0.99536 0.31170 0.28000
C 	C 	0.87981 0.02243 0.27138 0.29900
O 	O 	0.90386 0.95480 0.39912 -0.44900
O 	O 	0.88050 0.00476 0.22088 -0.29700
O 	O 	0.88635 0.00317 0.31650 -0.53900
C 	C 	0.92755 0.92803 0.39833 0.30100
O 	O 	0.93530 0.91358 0.34696 -0.37200
Cd	Cd	0.86941 0.93829 0.99104 1.23600
Cd	Cd	0.86996 0.98167 0.85371 1.17100
O 	O 	0.82771 0.88610 0.00002 -0.32000
O 	O 	0.86852 0.90088 0.06830 -0.34600
C 	C 	0.84366 0.87775 0.04868 0.27300
O 	O 	0.91847 0.97628 0.99770 -0.38600
O 	O 	0.89817 0.01364 0.92664 -0.42600
C 	C 	0.92533 0.00160 0.95963 0.28100
C 	C 	0.90851 0.90567 0.89379 0.31000
O 	O 	0.82350 0.97198 0.92326 -0.44500
O 	O 	0.91662 0.89056 0.94276 -0.30800
O 	O 	0.88145 0.92881 0.89729 -0.54200
C 	C 	0.81474 0.99328 0.96777 0.27200
O 	O 	0.82881 0.98477 0.01810 -0.34400
C 	C 	0.86530 0.64503 0.88629 0.11700
N 	N 	0.84687 0.63569 0.83595 -0.14400
C 	C 	0.86497 0.61764 0.79157 0.12600
N 	N 	0.90126 0.60807 0.79822 -0.14400
C 	C 	0.91985 0.61748 0.84814 0.12600
N 	N 	0.90183 0.63582 0.89217 -0.14300
C 	C 	0.83189 0.64596 0.29733 0.12300
N 	N 	0.86165 0.62705 0.27577 -0.14200
C 	C 	0.87252 0.59637 0.30131 0.12700
N 	N 	0.85508 0.58593 0.35083 -0.14400
C 	C 	0.82520 0.60467 0.37271 0.12700
N 	N 	0.81312 0.63410 0.34467 -0.14300
Cd	Cd	0.90378 0.07676 0.64537 1.23800
Cd	Cd	0.95466 0.13802 0.73807 1.16500
O 	O 	0.85460 0.09734 0.57852 -0.33000
O 	O 	0.87202 0.04109 0.58031 -0.39200
C 	C 	0.84749 0.06401 0.56246 0.26400
O 	O 	0.94693 0.04215 0.68358 -0.40900
O 	O 	0.96216 0.08004 0.76102 -0.43900
C 	C 	0.97139 0.05407 0.72278 0.28200
C 	C 	0.96505 0.11605 0.60050 0.30800
O 	O 	0.89121 0.12542 0.73057 -0.45800
O 	O 	0.95553 0.08974 0.56375 -0.32700
O 	O 	0.94157 0.12268 0.64262 -0.54200
C 	C 	0.87274 0.10047 0.75688 0.29300
O 	O 	0.86703 0.07046 0.72688 -0.39700
Cd	Cd	0.95965 0.22397 0.50728 1.23900
Cd	Cd	0.01781 0.23399 0.38160 1.16500
O 	O 	0.90617 0.26400 0.53218 -0.33000
O 	O 	0.91709 0.21438 0.57776 -0.37300
C 	C 	0.89325 0.23962 0.56680 0.27600
O 	O 	0.99091 0.17252 0.49644 -0.38900
O 	O 	0.04056 0.19298 0.44254 -0.42700
C 	C 	0.02168 0.16637 0.46552 0.29600
C 	C 	0.93097 0.20456 0.39425 0.31000
O 	O 	0.00896 0.26933 0.46699 -0.46300
O 	O 	0.90942 0.19384 0.43619 -0.30600
O 	O 	0.95748 0.22651 0.41113 -0.54500
C 	C 	0.02746 0.26622 0.51576 0.29200
O 	O 	0.00923 0.25041 0.55728 -0.37200
C 	C 	0.70336 0.93533 0.80714 0.12400
N 	N 	0.71018 0.95365 0.85860 -0.14400
C 	C 	0.69735 0.94070 0.90970 0.13100
N 	N 	0.67791 0.90931 0.90940 -0.14500
C 	C 	0.67087 0.89106 0.85809 0.12800
N 	N 	0.68369 0.90400 0.80691 -0.14400
C 	C 	0.73009 0.05498 0.41423 0.12200
N 	N 	0.71839 0.02651 0.44527 -0.13800
C 	C 	0.70602 0.99605 0.41683 0.12600
N 	N 	0.70585 0.99390 0.35746 -0.14500
C 	C 	0.71651 0.02258 0.32629 0.13000
N 	N 	0.72904 0.05299 0.35469 -0.14400
Cd	Cd	0.21784 0.17816 0.23937 1.24000
Cd	Cd	0.21089 0.13866 0.37828 1.16100
O 	O 	0.27634 0.20809 0.20949 -0.32500
O 	O 	0.22792 0.20278 0.15153 -0.35500
C 	C 	0.26038 0.21779 0.16137 0.27800
O 	O 	0.16279 0.14972 0.23573 -0.38800
O 	O 	0.15551 0.14735 0.33516 -0.43700
C 	C 	0.14717 0.13529 0.28184 0.28200
C 	C 	0.24858 0.10859 0.25472 0.29600
O 	O 	0.22319 0.19745 0.35195 -0.46100
O 	O 	0.24701 0.11591 0.19920 -0.29500
O 	O 	0.24221 0.13568 0.29079 -0.54600
C 	C 	0.19891 0.22256 0.34129 0.29800
O 	O 	0.18998 0.22633 0.28668 -0.37400
Cd	Cd	0.15959 0.19191 0.90524 1.23800
Cd	Cd	0.15911 0.11479 0.80777 1.17600
O 	O 	0.19927 0.24305 0.87842 -0.32900
O 	O 	0.16113 0.24669 0.95431 -0.36100
C 	C 	0.18543 0.26262 0.92140 0.27800
O 	O 	0.11235 0.15826 0.93805 -0.38700
O 	O 	0.13374 0.10524 0.89622 -0.42000
C 	C 	0.10622 0.12473 0.91891 0.27900
C 	C 	0.11739 0.19390 0.79988 0.30200
O 	O 	0.20629 0.14331 0.86173 -0.46100
O 	O 	0.10886 0.22058 0.83620 -0.31500
O 	O 	0.14611 0.17491 0.81440 -0.53700
C 	C 	0.21595 0.13678 0.91528 0.29200
O 	O 	0.20206 0.15826 0.95618 -0.36200
C 	C 	0.22466 0.50320 0.78590 0.12300
N 	N 	0.24174 0.50774 0.73345 -0.14400
C 	C 	0.22912 0.53292 0.69667 0.12700
N 	N 	0.20041 0.55477 0.71388 -0.14500
C 	C 	0.18390 0.55105 0.76691 0.12700
N 	N 	0.19586 0.52504 0.80250 -0.14300
C 	C 	0.17286 0.45686 0.20237 0.12300
N 	N 	0.13947 0.47015 0.18487 -0.14200
C 	C 	0.12390 0.49876 0.21449 0.12700
N 	N 	0.14182 0.51400 0.26151 -0.14500
C 	C 	0.17476 0.50037 0.27991 0.12700
N 	N 	0.19021 0.47174 0.25025 -0.14200
Cd	Cd	0.19278 0.89437 0.83691 1.24100
Cd	Cd	0.13629 0.94654 0.93873 1.16800
O 	O 	0.20714 0.83160 0.85989 -0.32900
O 	O 	0.22510 0.85486 0.77742 -0.35300
C 	C 	0.22574 0.82737 0.81117 0.27700
O 	O 	0.17995 0.94447 0.78910 -0.37600
O 	O 	0.16726 0.97824 0.87249 -0.42400
C 	C 	0.16308 0.97214 0.81580 0.28100
C 	C 	0.11363 0.88558 0.83571 0.30100
O 	O 	0.19370 0.91878 0.94645 -0.46400
O 	O 	0.12909 0.86912 0.79023 -0.29900
O 	O 	0.13670 0.89684 0.87626 -0.53700
C 	C 	0.22592 0.93372 0.93546 0.29500
O 	O 	0.24134 0.92314 0.88588 -0.36400
Cd	Cd	0.18833 0.92404 0.55510 1.23900
Cd	Cd	0.14873 0.92595 0.41192 1.16600
O 	O 	0.22801 0.87203 0.57406 -0.33000
O 	O 	0.22311 0.91721 0.63830 -0.35800
C 	C 	0.23788 0.88594 0.62465 0.28100
O 	O 	0.16181 0.97881 0.55168 -0.38700
O 	O 	0.12048 0.96183 0.47897 -0.43400
C 	C 	0.13661 0.98723 0.51189 0.27800
C 	C 	0.23355 0.94726 0.46061 0.30600
O 	O 	0.14316 0.88545 0.48670 -0.46100
O 	O 	0.24957 0.95386 0.51114 -0.31300
O 	O 	0.20361 0.92736 0.46224 -0.54200
C 	C 	0.11892 0.88679 0.52966 0.29600
O 	O 	0.13109 0.90031 0.57951 -0.36000
C 	C 	0.42974 0.69097 0.96522 0.10900
N 	N 	0.46209 0.70464 0.94402 -0.14000
C 	C 	0.49421 0.70257 0.97519 0.11400
N 	N 	0.49369 0.68769 0.02858 -0.13600
C 	C 	0.46150 0.67365 0.05004 0.12800
N 	N 	0.42976 0.67440 0.01733 -0.13300
C 	C 	0.47501 0.79041 0.53276 0.12100
N 	N 	0.50930 0.80599 0.53761 -0.14300
C 	C 	0.53738 0.79561 0.50058 0.12500
N 	N 	0.53109 0.76915 0.45917 -0.14400
C 	C 	0.49648 0.75449 0.45257 0.12700
N 	N 	0.46868 0.76462 0.49023 -0.14100
C 	C 	0.45930 0.66483 0.11285 -0.04900
C 	C 	0.49158 0.65382 0.14306 0.10200
C 	C 	0.49453 0.66155 0.20354 -0.08600
C 	C 	0.46451 0.67733 0.23456 -0.00700
C 	C 	0.42964 0.68092 0.20635 0.07100
C 	C 	0.42734 0.67483 0.14542 -0.05500
N 	N 	0.51926 0.63528 0.11452 -0.19800
H 	H 	0.52058 0.65651 0.22599 0.05500
C 	C 	0.47186 0.69662 0.29131 -0.00400
N 	N 	0.39859 0.69087 0.23732 -0.19400
H 	H 	0.40125 0.67981 0.12320 0.05400
C 	C 	0.47683 0.73404 0.29188 -0.08600
C 	C 	0.48371 0.75357 0.34442 0.10100
C 	C 	0.48700 0.73503 0.39728 -0.05000
C 	C 	0.48185 0.69759 0.39690 -0.05300
C 	C 	0.47402 0.67813 0.34435 0.06800
H 	H 	0.47492 0.74809 0.25121 0.05500
N 	N 	0.48665 0.79010 0.34391 -0.20000
H 	H 	0.48400 0.68354 0.43754 0.04700
N 	N 	0.46828 0.64195 0.34527 -0.19400
H 	H 	0.48507 0.80339 0.30446 0.08300
H 	H 	0.48957 0.80575 0.38248 0.09300
H 	H 	0.47028 0.62851 0.38455 0.08300
H 	H 	0.46133 0.62688 0.30738 0.08700
H 	H 	0.37320 0.69486 0.21596 0.08400
H 	H 	0.39908 0.69348 0.28300 0.08800
H 	H 	0.51567 0.62548 0.07145 0.09400
H 	H 	0.54381 0.62867 0.13638 0.08600
C 	C 	0.38740 0.84398 0.56622 -0.06100
C 	C 	0.38102 0.83602 0.62496 0.00300
C 	C 	0.40668 0.81431 0.65429 0.00700
C 	C 	0.43761 0.79976 0.62393 -0.03600
C 	C 	0.44314 0.80675 0.56458 -0.03100
C 	C 	0.41831 0.82968 0.53605 0.03000
C 	C 	0.34552 0.84768 0.65304 0.01700
S 	S 	0.40078 0.80576 0.72900 -0.04800
H 	H 	0.45717 0.78281 0.64633 0.04300
S 	S 	0.42589 0.84103 0.46275 -0.04700
H 	H 	0.36783 0.86087 0.54370 0.05100
C 	C 	0.33842 0.88459 0.66400 -0.00400
C 	C 	0.30149 0.89718 0.66436 -0.00500
C 	C 	0.27181 0.87304 0.65368 -0.07700
C 	C 	0.27881 0.83571 0.65485 0.06000
C 	C 	0.31568 0.82320 0.65443 -0.07000
S 	S 	0.37554 0.91532 0.67418 -0.04400
H 	H 	0.29619 0.92589 0.66754 0.04500
S 	S 	0.24170 0.80444 0.65275 -0.03000
H 	H 	0.32109 0.79454 0.65010 0.05400
H 	H 	0.44937 0.87019 0.46135 0.03400
H 	H 	0.38684 0.92719 0.62084 0.03400
H 	H 	0.23393 0.79456 0.59569 0.04200
H 	H 	0.41674 0.83310 0.76222 0.03600
C 	C 	0.32036 0.78506 0.82654 -0.07400
C 	C 	0.30972 0.74950 0.83653 0.01600
C 	C 	0.27278 0.73836 0.82436 -0.00500
C 	C 	0.24606 0.76372 0.80850 -0.00600
C 	C 	0.25568 0.80028 0.80617 -0.08200
C 	C 	0.29356 0.81067 0.81255 0.05400
C 	C 	0.33495 0.72690 0.87072 0.00100
S 	S 	0.25930 0.69313 0.83138 -0.04100
H 	H 	0.21723 0.75542 0.80193 0.04000
S 	S 	0.30723 0.85614 0.80942 -0.04000
H 	H 	0.34895 0.79351 0.83493 0.05300
C 	C 	0.36183 0.70464 0.84258 0.00900
C 	C 	0.39091 0.69009 0.87519 -0.03800
C 	C 	0.39413 0.69848 0.93545 -0.02600
C 	C 	0.36596 0.71928 0.96400 0.01600
C 	C 	0.33607 0.73234 0.93170 -0.05600
S 	S 	0.36009 0.69579 0.76640 -0.04600
H 	H 	0.41215 0.67377 0.85314 0.04500
S 	S 	0.36956 0.73225 0.03873 -0.03200
H 	H 	0.31505 0.74907 0.95346 0.04600
H 	H 	0.30427 0.87230 0.86411 0.04000
H 	H 	0.37947 0.72198 0.73839 0.03800
H 	H 	0.39069 0.76298 0.04446 0.03800
H 	H 	0.26499 0.67463 0.77914 0.03600
C 	C 	0.24026 0.53086 0.63421 -0.05200
C 	C 	0.24266 0.56237 0.60141 0.10000
C 	C 	0.23857 0.55969 0.54024 -0.08700
C 	C 	0.23398 0.52595 0.51162 -0.00600
C 	C 	0.23858 0.49434 0.54344 0.07100
C 	C 	0.24129 0.49704 0.60472 -0.05400
N 	N 	0.24927 0.59499 0.62828 -0.19900
H 	H 	0.23728 0.58392 0.51527 0.05300
C 	C 	0.21792 0.52405 0.45190 -0.00500
N 	N 	0.23935 0.46138 0.51557 -0.19400
H 	H 	0.24175 0.47274 0.62958 0.04900
C 	C 	0.24182 0.52582 0.40328 -0.08700
C 	C 	0.22784 0.52058 0.34612 0.10000
C 	C 	0.18955 0.51185 0.33795 -0.05000
C 	C 	0.16542 0.51182 0.38649 -0.05300
C 	C 	0.17910 0.51842 0.44333 0.07100
H 	H 	0.27138 0.53114 0.40994 0.05300
N 	N 	0.25096 0.52497 0.29952 -0.19900
H 	H 	0.13596 0.50589 0.38011 0.04900
N 	N 	0.15488 0.51919 0.48945 -0.19400
H 	H 	0.27948 0.52992 0.30594 0.08400
H 	H 	0.24064 0.52531 0.25683 0.09200
H 	H 	0.12643 0.51397 0.48281 0.08200
H 	H 	0.16373 0.52590 0.53198 0.08900
H 	H 	0.24129 0.43803 0.53953 0.08300
H 	H 	0.23931 0.45869 0.46990 0.08900
H 	H 	0.25623 0.59717 0.67266 0.09100
H 	H 	0.24940 0.61837 0.60420 0.08500
C 	C 	0.23445 0.96998 0.96066 -0.10500
C 	C 	0.21177 0.98481 0.00572 -0.00500
C 	C 	0.20824 0.02216 0.01297 -0.05600
C 	C 	0.22748 0.04485 0.97536 0.00500
C 	C 	0.25428 0.03009 0.93575 0.01300
C 	C 	0.25885 0.99266 0.93069 -0.01100
C 	C 	0.27297 0.05256 0.89721 -0.06200
C 	C 	0.26222 0.08849 0.89348 -0.00400
C 	C 	0.23339 0.10248 0.92926 -0.09100
C 	C 	0.21772 0.08129 0.97270 -0.02900
H 	H 	0.19464 0.96748 0.03198 -0.01500
H 	H 	0.18879 0.03329 0.04526 0.03300
H 	H 	0.27852 0.98122 0.89896 0.04400
H 	H 	0.29427 0.04173 0.86774 0.04000
H 	H 	0.27518 0.10505 0.86098 0.02200
H 	H 	0.19585 0.09230 0.00105 0.05900
C 	C 	0.22987 0.43781 0.90831 -0.06200
C 	C 	0.22448 0.40512 0.87684 0.00300
C 	C 	0.22443 0.40449 0.81507 0.00500
C 	C 	0.22803 0.43661 0.78562 -0.03400
C 	C 	0.23074 0.46966 0.81704 -0.03200
C 	C 	0.23340 0.47003 0.87874 0.03000
C 	C 	0.21625 0.37205 0.90851 0.01300
S 	S 	0.21800 0.36384 0.77416 -0.04000
H 	H 	0.22650 0.43609 0.73819 0.04500
S 	S 	0.24208 0.51042 0.91920 -0.05000
H 	H 	0.23063 0.43825 0.95577 0.04500
C 	C 	0.24411 0.34583 0.91511 -0.00700
C 	C 	0.23384 0.31034 0.92573 -0.00800
C 	C 	0.19595 0.30077 0.93039 -0.08800
C 	C 	0.16852 0.32807 0.93173 0.05400
C 	C 	0.17893 0.36363 0.92135 -0.07400
S 	S 	0.29171 0.35665 0.90624 -0.04800
H 	H 	0.25519 0.28972 0.92689 0.03800
S 	S 	0.12088 0.31783 0.94195 -0.04800
H 	H 	0.15760 0.38418 0.91867 0.05200
H 	H 	0.20875 0.52648 0.93407 0.03800
H 	H 	0.30147 0.35210 0.84841 0.03500
H 	H 	0.10503 0.30888 0.88882 0.04200
H 	H 	0.25207 0.34827 0.76281 0.03400
C 	C 	0.24296 0.07169 0.27360 -0.11600
C 	C 	0.20743 0.05575 0.26882 -0.01600
C 	C 	0.19892 0.02507 0.29996 -0.06500
C 	C 	0.22635 0.00942 0.33463 -0.02100
C 	C 	0.26335 0.02296 0.33384 0.01200
C 	C 	0.27136 0.05444 0.30394 -0.03600
C 	C 	0.29124 0.00606 0.36577 -0.07500
C 	C 	0.28186 0.97816 0.40246 0.02200
C 	C 	0.24436 0.96749 0.40886 -0.13300
C 	C 	0.21689 0.98193 0.37270 0.00000
H 	H 	0.18595 0.06801 0.24290 0.02700
H 	H 	0.17081 0.01409 0.29831 0.02000
H 	H 	0.29911 0.06630 0.30638 0.02800
H 	H 	0.31998 0.01533 0.36381 0.04200
H 	H 	0.30345 0.96631 0.42876 0.02800
H 	H 	0.18797 0.97373 0.37708 -0.08200
C 	C 	0.23780 0.30119 0.08537 -0.07100
C 	C 	0.24678 0.32638 0.13041 0.01600
C 	C 	0.27203 0.31663 0.17439 -0.00400
C 	C 	0.28299 0.28064 0.17807 -0.00900
C 	C 	0.26774 0.25419 0.13950 -0.08200
C 	C 	0.24954 0.26535 0.08873 0.05300
C 	C 	0.22418 0.35955 0.13807 0.00600
S 	S 	0.28789 0.34865 0.22741 -0.03700
H 	H 	0.30030 0.27281 0.21432 0.04700
S 	S 	0.24132 0.23465 0.02979 -0.00700
H 	H 	0.21984 0.30892 0.04993 0.06200
C 	C 	0.23824 0.39311 0.12126 0.00700
C 	C 	0.22010 0.42490 0.13999 -0.03300
C 	C 	0.18769 0.42347 0.17463 -0.03100
C 	C 	0.17217 0.38979 0.18780 0.03200
C 	C 	0.19033 0.35808 0.16911 -0.06000
S 	S 	0.27875 0.39567 0.07769 -0.03900
H 	H 	0.23172 0.45076 0.12889 0.04400
S 	S 	0.13104 0.38697 0.23005 -0.05500
H 	H 	0.17909 0.33224 0.18117 0.05100
H 	H 	0.27123 0.23471 0.99218 0.02700
H 	H 	0.26847 0.39670 0.02014 0.04200
H 	H 	0.10054 0.38764 0.19390 0.03400
H 	H 	0.31964 0.36488 0.20730 0.03700
C 	C 	0.57081 0.81873 0.49565 -0.05000
C 	C 	0.59122 0.83054 0.54585 0.10000
C 	C 	0.61694 0.85900 0.54150 -0.08700
C 	C 	0.62347 0.87477 0.48756 -0.00500
C 	C 	0.60589 0.86042 0.43634 0.07100
C 	C 	0.57953 0.83270 0.44101 -0.05400
N 	N 	0.58691 0.81417 0.59774 -0.19900
H 	H 	0.63145 0.86924 0.58029 0.05500
C 	C 	0.64658 0.90780 0.48566 -0.00500
N 	N 	0.61383 0.87346 0.38277 -0.19400
H 	H 	0.56461 0.82298 0.40225 0.04900
C 	C 	0.68512 0.90454 0.47539 -0.08600
C 	C 	0.70603 0.93405 0.45665 0.10000
C 	C 	0.68805 0.96750 0.44969 -0.04900
C 	C 	0.65039 0.97155 0.46566 -0.05300
C 	C 	0.62954 0.94206 0.48437 0.07100
H 	H 	0.69837 0.87846 0.47837 0.05400
N 	N 	0.74303 0.92989 0.44414 -0.20000
H 	H 	0.63695 0.99748 0.46172 0.04700
N 	N 	0.59313 0.94669 0.50033 -0.19400
H 	H 	0.75593 0.90492 0.44834 0.08600
H 	H 	0.75947 0.95148 0.43130 0.09500
H 	H 	0.58043 0.97187 0.49762 0.08200
H 	H 	0.57747 0.92572 0.51731 0.08800
H 	H 	0.59995 0.86333 0.34545 0.08300
H 	H 	0.63436 0.89309 0.37730 0.09000
H 	H 	0.57117 0.79060 0.60077 0.09100
H 	H 	0.60088 0.82400 0.63519 0.08500
C 	C 	0.52790 0.72180 0.95568 -0.04500
C 	C 	0.54190 0.71660 0.89795 0.09700
C 	C 	0.56819 0.74101 0.87646 -0.08600
C 	C 	0.58198 0.76932 0.91253 -0.00500
C 	C 	0.57051 0.77250 0.97191 0.06500
C 	C 	0.54351 0.74868 0.99285 -0.06900
N 	N 	0.53086 0.68788 0.86356 -0.19900
H 	H 	0.57783 0.73805 0.83149 0.05300
C 	C 	0.60586 0.79718 0.88652 -0.00600
N 	N 	0.58484 0.79865 0.00870 -0.18200
H 	H 	0.53347 0.75204 0.03756 0.06100
C 	C 	0.58876 0.82731 0.86304 -0.08600
C 	C 	0.61006 0.85754 0.84872 0.09900
C 	C 	0.64917 0.85742 0.85820 -0.05100
C 	C 	0.66662 0.82606 0.87662 -0.05300
C 	C 	0.64532 0.79573 0.89057 0.06800
H 	H 	0.55860 0.82782 0.85817 0.05300
N 	N 	0.59275 0.88673 0.82695 -0.20000
H 	H 	0.69673 0.82574 0.88238 0.04700
N 	N 	0.66280 0.76572 0.90899 -0.19400
H 	H 	0.56373 0.88688 0.82147 0.08300
H 	H 	0.60788 0.90918 0.81410 0.09000
H 	H 	0.69188 0.76529 0.91362 0.08000
H 	H 	0.64787 0.74231 0.91762 0.08600
H 	H 	0.57573 0.80111 0.05218 0.08500
H 	H 	0.60544 0.81643 0.99497 0.08100
H 	H 	0.51455 0.66728 0.88030 0.08900
H 	H 	0.54011 0.68504 0.82019 0.08300
C 	C 	0.70593 0.95973 0.96570 -0.06400
C 	C 	0.68839 0.99274 0.98204 0.08300
C 	C 	0.69526 0.00856 0.03774 -0.06600
C 	C 	0.71766 0.99115 0.07826 -0.01200
C 	C 	0.73656 0.95901 0.06087 0.07300
C 	C 	0.73069 0.94382 0.00448 -0.02300
N 	N 	0.66454 0.00906 0.94504 -0.19600
H 	H 	0.68145 0.03355 0.05079 0.05200
C 	C 	0.71619 0.00360 0.14064 0.00300
N 	N 	0.76004 0.94247 0.09810 -0.19300
H 	H 	0.74487 0.91906 0.99118 0.04100
C 	C 	0.68403 0.99629 0.17344 -0.09200
C 	C 	0.68205 0.00632 0.23313 0.10600
C 	C 	0.71416 0.02070 0.26170 -0.05300
C 	C 	0.74561 0.02979 0.22838 -0.05000
C 	C 	0.74645 0.02245 0.16758 0.07000
H 	H 	0.66023 0.98329 0.15218 0.05700
N 	N 	0.64899 0.00334 0.26222 -0.19800
H 	H 	0.76981 0.04174 0.24995 0.04900
N 	N 	0.77647 0.03298 0.13566 -0.19400
H 	H 	0.62601 0.99086 0.24178 0.08300
H 	H 	0.64509 0.01541 0.30378 0.09200
H 	H 	0.79925 0.04574 0.15623 0.09400
H 	H 	0.77710 0.02947 0.09012 0.10400
H 	H 	0.77338 0.91851 0.08506 0.09300
H 	H 	0.76567 0.95331 0.13991 0.09800
H 	H 	0.65765 0.99744 0.90420 0.08800
H 	H 	0.65219 0.03366 0.95731 0.08000
C 	C 	0.06862 0.26479 0.51409 -0.09600
C 	C 	0.08725 0.23556 0.53830 0.00700
C 	C 	0.12256 0.22530 0.51754 -0.05400
C 	C 	0.13924 0.24393 0.47204 -0.00700
C 	C 	0.12323 0.27654 0.45431 0.01000
C 	C 	0.08823 0.28726 0.47662 -0.04200
C 	C 	0.14011 0.29541 0.40923 -0.07700
C 	C 	0.16898 0.27946 0.37633 0.01600
C 	C 	0.18103 0.24452 0.38816 -0.10600
C 	C 	0.16860 0.22826 0.43918 -0.00600
H 	H 	0.07283 0.21851 0.56834 0.04200
H 	H 	0.13555 0.20129 0.53368 0.02900
H 	H 	0.07462 0.31090 0.46016 0.02400
H 	H 	0.12922 0.32128 0.39706 0.03800
H 	H 	0.17997 0.29306 0.33877 0.03200
H 	H 	0.17893 0.20185 0.44969 -0.02400
C 	C 	0.11975 0.02350 0.51368 -0.07700
C 	C 	0.14196 0.05418 0.52504 -0.01300
C 	C 	0.12738 0.08861 0.51692 -0.06800
C 	C 	0.09065 0.09262 0.49639 0.00400
C 	C 	0.06811 0.06182 0.48566 0.01500
C 	C 	0.08236 0.02759 0.49612 -0.02700
C 	C 	0.03169 0.06562 0.46403 -0.05900
C 	C 	0.01733 0.09981 0.45466 0.01100
C 	C 	0.03899 0.13062 0.46738 -0.07900
C 	C 	0.07594 0.12699 0.48717 -0.01500
H 	H 	0.17081 0.05136 0.53846 0.01700
H 	H 	0.14485 0.11206 0.52565 0.01100
H 	H 	0.06482 0.00402 0.48857 0.04100
H 	H 	0.01439 0.04210 0.45485 0.02800
H 	H 	0.98896 0.10244 0.43875 0.01500
H 	H 	0.09267 0.15078 0.49706 0.03300
C 	C 	0.81256 0.17900 0.58306 -0.07000
C 	C 	0.79870 0.18038 0.52579 0.01800
C 	C 	0.80613 0.21108 0.49313 -0.00200
C 	C 	0.83290 0.23619 0.51331 -0.00400
C 	C 	0.85301 0.23010 0.56488 -0.08700
C 	C 	0.83902 0.20439 0.60327 0.06300
C 	C 	0.78126 0.14782 0.49779 0.01000
S 	S 	0.78360 0.21733 0.42585 -0.04100
H 	H 	0.84082 0.25815 0.48587 0.04500
S 	S 	0.85578 0.20274 0.67545 -0.06800
H 	H 	0.80417 0.15737 0.61075 0.05800
C 	C 	0.80144 0.12587 0.45700 0.00500
C 	C 	0.78430 0.09576 0.43015 -0.03300
C 	C 	0.74753 0.08641 0.44455 -0.03000
C 	C 	0.72761 0.10767 0.48657 0.03100
C 	C 	0.74449 0.13838 0.51258 -0.06200
S 	S 	0.84808 0.13577 0.43890 -0.02900
H 	H 	0.79982 0.07924 0.39843 0.03600
S 	S 	0.68155 0.09642 0.50659 -0.04200
H 	H 	0.72909 0.15484 0.54447 0.04900
H 	H 	0.83379 0.22390 0.71177 0.03300
H 	H 	0.87236 0.11545 0.46995 0.02900
H 	H 	0.65694 0.11205 0.46939 0.03500
H 	H 	0.80443 0.20182 0.38129 0.03700
C 	C 	0.00666 0.03415 0.73049 -0.08800
C 	C 	0.01029 0.99842 0.70858 0.00400
C 	C 	0.04436 0.98028 0.71320 -0.06000
C 	C 	0.07513 0.99756 0.74004 0.01200
C 	C 	0.07179 0.03366 0.76093 0.00900
C 	C 	0.03754 0.05165 0.75653 -0.02000
C 	C 	0.10244 0.05098 0.78756 -0.08000
C 	C 	0.13495 0.03168 0.79884 -0.02400
C 	C 	0.13709 0.99479 0.78362 -0.08600
C 	C 	0.10840 0.97857 0.74989 -0.02600
H 	H 	0.98667 0.98458 0.68835 0.02900
H 	H 	0.04653 0.95256 0.69705 0.04900
H 	H 	0.03505 0.07937 0.77268 0.01300
H 	H 	0.10048 0.07899 0.80173 -0.03400
H 	H 	0.15748 0.04473 0.82318 -0.03300
H 	H 	0.11043 0.95033 0.73648 0.04700
C 	C 	0.09661 0.18740 0.74484 -0.13100
C 	C 	0.07425 0.21502 0.72356 0.02100
C 	C 	0.04715 0.20735 0.68124 -0.09100
C 	C 	0.04286 0.17216 0.65818 0.00100
C 	C 	0.06802 0.14504 0.67438 -0.02500
C 	C 	0.09500 0.15281 0.71779 0.00100
C 	C 	0.06349 0.10984 0.65096 -0.06100
C 	C 	0.03140 0.10072 0.61860 -0.00100
C 	C 	0.00419 0.12696 0.60828 -0.11100
C 	C 	0.01172 0.16307 0.62368 -0.04600
H 	H 	0.07655 0.24219 0.74210 0.03000
H 	H 	0.02858 0.22854 0.66797 0.04700
H 	H 	0.11298 0.13164 0.73273 -0.07000
H 	H 	0.08353 0.08909 0.66076 0.03300
H 	H 	0.02627 0.07280 0.60574 0.03400
H 	H 	0.99103 0.18345 0.61473 0.01400
C 	C 	0.76615 0.97473 0.69248 -0.07100
C 	C 	0.73972 0.98640 0.65209 0.00200
C 	C 	0.70162 0.97790 0.65983 0.00500
C 	C 	0.69019 0.95963 0.70944 -0.03400
C 	C 	0.71643 0.94997 0.75165 -0.03800
C 	C 	0.75477 0.95665 0.74211 0.04100
C 	C 	0.75203 0.01079 0.60603 0.02500
S 	S 	0.66794 0.99087 0.60882 -0.04000
H 	H 	0.66075 0.95399 0.71617 0.04200
S 	S 	0.78883 0.94208 0.79147 -0.13400
H 	H 	0.79554 0.98081 0.68615 0.03600
C 	C 	0.75348 0.04819 0.61849 -0.00800
C 	C 	0.78120 0.06889 0.59243 -0.00100
C 	C 	0.80823 0.05213 0.55611 -0.09600
C 	C 	0.80041 0.01746 0.53238 0.07400
C 	C 	0.77267 0.99649 0.55828 -0.08200
S 	S 	0.72414 0.06840 0.67216 -0.04300
H 	H 	0.78467 0.09679 0.60654 0.04100
S 	S 	0.82674 0.99945 0.47320 -0.11500
H 	H 	0.76980 0.96828 0.54542 0.05800
H 	H 	0.79972 0.90778 0.77553 0.03800
H 	H 	0.74002 0.06509 0.72622 0.03100
H 	H 	0.85709 0.98157 0.49411 0.02500
H 	H 	0.65417 0.02419 0.62465 0.03800
C 	C 	0.90642 0.57721 0.28011 -0.05100
C 	C 	0.91103 0.56691 0.22015 0.10000
C 	C 	0.94570 0.55340 0.20039 -0.08700
C 	C 	0.97489 0.54786 0.23993 -0.00500
C 	C 	0.96964 0.55649 0.30033 0.07000
C 	C 	0.93547 0.57120 0.31972 -0.05400
N 	N 	0.88204 0.56869 0.18191 -0.20000
H 	H 	0.94966 0.54631 0.15432 0.05500
C 	C 	0.01104 0.53344 0.21758 -0.00500
N 	N 	0.99734 0.55105 0.33981 -0.19400
H 	H 	0.93179 0.57875 0.36569 0.05000
C 	C 	0.03915 0.55762 0.20175 -0.08600
C 	C 	0.07612 0.54579 0.19325 0.10100
C 	C 	0.08507 0.50936 0.20223 -0.05100
C 	C 	0.05619 0.48449 0.21108 -0.05300
C 	C 	0.01909 0.49619 0.21869 0.06800
H 	H 	0.03255 0.58592 0.19826 0.05500
N 	N 	0.10285 0.56943 0.17652 -0.19900
H 	H 	0.06289 0.45628 0.21567 0.04700
N 	N 	0.99159 0.47173 0.22835 -0.19400
H 	H 	0.09639 0.59660 0.17204 0.08500
H 	H 	0.12983 0.56078 0.16556 0.09100
H 	H 	0.99796 0.44439 0.23086 0.07900
H 	H 	0.96359 0.47941 0.23195 0.08600
H 	H 	0.99318 0.55759 0.38424 0.08200
H 	H 	0.02316 0.54028 0.32706 0.08800
H 	H 	0.85477 0.57372 0.19643 0.09200
H 	H 	0.88624 0.56303 0.13722 0.08500
C 	C 	0.96065 0.61318 0.85034 -0.05100
C 	C 	0.98489 0.64127 0.83366 0.09900
C 	C 	0.02319 0.63426 0.82628 -0.08700
C 	C 	0.03744 0.59971 0.83427 -0.00600
C 	C 	0.01374 0.57246 0.85535 0.06900
C 	C 	0.97542 0.57945 0.86285 -0.05400
N 	N 	0.97151 0.67473 0.82352 -0.20000
H 	H 	0.04168 0.65531 0.81161 0.05400
C 	C 	0.07585 0.59130 0.81387 -0.00600
N 	N 	0.02749 0.53950 0.86773 -0.19400
H 	H 	0.95689 0.55825 0.87686 0.04500
C 	C 	0.10592 0.59732 0.85230 -0.08700
C 	C 	0.14239 0.58729 0.83567 0.09900
C 	C 	0.14847 0.56980 0.78038 -0.05100
C 	C 	0.11880 0.56603 0.74056 -0.05300
C 	C 	0.08250 0.57671 0.75665 0.07100
H 	H 	0.10089 0.60965 0.89536 0.05200
N 	N 	0.17145 0.59518 0.87230 -0.19900
H 	H 	0.12367 0.55336 0.69769 0.04900
N 	N 	0.05416 0.57253 0.71729 -0.19400
H 	H 	0.16659 0.60674 0.91402 0.08200
H 	H 	0.19915 0.59142 0.85881 0.09100
H 	H 	0.05928 0.56115 0.67552 0.08200
H 	H 	0.02698 0.58096 0.72723 0.08900
H 	H 	0.00961 0.51922 0.88173 0.08100
H 	H 	0.05606 0.53393 0.86500 0.08800
H 	H 	0.94331 0.68110 0.82941 0.09000
H 	H 	0.98956 0.69504 0.81014 0.08300
C 	C 	0.84816 0.61541 0.73283 -0.05100
C 	C 	0.86196 0.63689 0.68759 0.10100
C 	C 	0.84960 0.63032 0.63003 -0.08600
C 	C 	0.82200 0.60434 0.61738 -0.00500
C 	C 	0.80630 0.58451 0.66328 0.06800
C 	C 	0.82004 0.58988 0.72059 -0.05300
N 	N 	0.88656 0.66421 0.69932 -0.19900
H 	H 	0.86111 0.64587 0.59494 0.05500
C 	C 	0.81010 0.59823 0.55571 -0.00700
N 	N 	0.77790 0.56070 0.65285 -0.19400
H 	H 	0.80903 0.57393 0.75557 0.04600
C 	C 	0.82349 0.56798 0.52370 -0.08700
C 	C 	0.82168 0.56657 0.46223 0.10000
C 	C 	0.81095 0.59774 0.43268 -0.05100
C 	C 	0.79244 0.62549 0.46466 -0.05500
C 	C 	0.79127 0.62554 0.52609 0.07000
H 	H 	0.83557 0.54575 0.54653 0.05300
N 	N 	0.82789 0.53490 0.43223 -0.19800
H 	H 	0.78049 0.64789 0.44212 0.05200
N 	N 	0.77259 0.65207 0.55642 -0.19400
H 	H 	0.83791 0.51258 0.45383 0.08300
H 	H 	0.81987 0.53138 0.38845 0.09200
H 	H 	0.75997 0.67300 0.53443 0.08300
H 	H 	0.76921 0.65138 0.60180 0.08700
H 	H 	0.76704 0.54568 0.68678 0.08100
H 	H 	0.76573 0.55749 0.61150 0.08600
H 	H 	0.89352 0.67214 0.74225 0.09000
H 	H 	0.89779 0.67895 0.66531 0.08300
C 	C 	0.06939 0.10775 0.92860 -0.08200
C 	C 	0.03664 0.12565 0.91266 -0.00700
C 	C 	0.00183 0.10855 0.91641 -0.06500
C 	C 	0.99927 0.07347 0.93695 0.01500
C 	C 	0.03200 0.05546 0.95401 -0.00100
C 	C 	0.06705 0.07254 0.94908 -0.01600
C 	C 	0.02927 0.02058 0.97546 -0.05400
C 	C 	0.99434 0.00355 0.97932 -0.00500
C 	C 	0.96173 0.02102 0.96128 -0.07500
C 	C 	0.96437 0.05610 0.94024 -0.02700
H 	H 	0.03824 0.15250 0.89588 0.01300
H 	H 	0.97690 0.12256 0.90302 0.01400
H 	H 	0.09235 0.05852 0.96100 0.02200
H 	H 	0.05420 0.00643 0.98846 -0.00100
H 	H 	0.99284 0.97632 0.99456 0.02600
H 	H 	0.93944 0.06969 0.92591 0.03700
C 	C 	0.80200 0.02993 0.95766 -0.08100
C 	C 	0.77223 0.03432 0.91873 -0.01100
C 	C 	0.77416 0.06108 0.87752 -0.05700
C 	C 	0.80629 0.08267 0.87481 -0.01200
C 	C 	0.83170 0.08349 0.92231 0.02000
C 	C 	0.82754 0.05833 0.96624 -0.05000
C 	C 	0.86502 0.10329 0.91804 -0.07600
C 	C 	0.87696 0.11455 0.86329 0.01100
C 	C 	0.85470 0.10735 0.81375 -0.11300
C 	C 	0.81749 0.09645 0.82125 -0.01100
H 	H 	0.75087 0.01379 0.91423 0.04100
H 	H 	0.75322 0.06181 0.84336 0.03900
H 	H 	0.84852 0.05678 0.00030 0.06400
H 	H 	0.88355 0.10632 0.95537 0.04300
H 	H 	0.90500 0.12519 0.85840 -0.01800
H 	H 	0.79938 0.09341 0.78333 0.03300
C 	C 	0.07501 0.89909 0.83318 -0.12200
C 	C 	0.06669 0.93447 0.85263 0.01500
C 	C 	0.02992 0.94694 0.85194 -0.08000
C 	C 	0.00080 0.92353 0.83516 0.01600
C 	C 	0.00918 0.88859 0.81232 0.00600
C 	C 	0.04646 0.87685 0.81012 -0.00300
C 	C 	0.97986 0.86470 0.79805 -0.06300
C 	C 	0.94329 0.87328 0.81531 0.02000
C 	C 	0.93603 0.90580 0.84638 -0.13500
C 	C 	0.96360 0.93267 0.84813 -0.02200
H 	H 	0.08873 0.95259 0.86705 -0.07500
H 	H 	0.02399 0.97443 0.86630 0.04200
H 	H 	0.05299 0.84984 0.79365 0.03900
H 	H 	0.98570 0.83842 0.77804 0.04400
H 	H 	0.92153 0.85305 0.81054 0.02100
H 	H 	0.95720 0.95889 0.86785 -0.00300
C 	C 	0.87465 0.78216 0.04349 -0.06700
C 	C 	0.83951 0.76555 0.03974 0.01400
C 	C 	0.80771 0.78469 0.05961 -0.00200
C 	C 	0.81037 0.82179 0.07203 -0.00600
C 	C 	0.84459 0.83979 0.06505 -0.07500
C 	C 	0.87746 0.81919 0.05580 0.05400
C 	C 	0.83563 0.73189 0.00364 0.01300
S 	S 	0.76423 0.76288 0.06624 -0.04000
H 	H 	0.78529 0.83712 0.08234 0.04000
S 	S 	0.92195 0.83962 0.05515 -0.01900
H 	H 	0.89955 0.76685 0.03200 0.05500
C 	C 	0.82686 0.73333 0.94352 -0.00600
C 	C 	0.83301 0.70322 0.90628 -0.03600
C 	C 	0.84865 0.67181 0.92795 -0.02700
C 	C 	0.85365 0.66913 0.98892 0.00600
C 	C 	0.84756 0.69930 0.02631 -0.04600
S 	S 	0.81113 0.77357 0.91344 -0.04000
H 	H 	0.82811 0.70514 0.85967 0.04500
S 	S 	0.86706 0.62814 0.01891 -0.02700
H 	H 	0.85397 0.69795 0.07251 0.04600
H 	H 	0.93995 0.83450 0.10699 0.03500
H 	H 	0.77282 0.77403 0.91313 0.03000
H 	H 	0.83575 0.60879 0.03251 0.03400
H 	H 	0.74474 0.76480 0.01491 0.03800
C 	C 	0.02094 0.01033 0.29944 -0.07800
C 	C 	0.05081 0.00285 0.33693 -0.00400
C 	C 	0.08248 0.02492 0.33868 -0.06500
C 	C 	0.08455 0.05485 0.30322 0.00400
C 	C 	0.05617 0.06064 0.26168 0.01400
C 	C 	0.02470 0.03784 0.25926 -0.03200
C 	C 	0.05881 0.09013 0.22512 -0.06800
C 	C 	0.08889 0.11420 0.23090 0.00900
C 	C 	0.11630 0.10929 0.27380 -0.09100
C 	C 	0.11403 0.07960 0.30989 -0.01700
H 	H 	0.04852 0.98112 0.36714 0.01600
H 	H 	0.10481 0.01943 0.36907 0.02000
H 	H 	0.00221 0.04291 0.22890 0.04000
H 	H 	0.03732 0.09476 0.19290 0.04300
H 	H 	0.09042 0.13707 0.20292 0.03000
H 	H 	0.13514 0.07587 0.34316 0.00500
C 	C 	0.88553 0.06150 0.27457 -0.11500
C 	C 	0.85491 0.08479 0.27129 0.01000
C 	C 	0.85997 0.12195 0.27952 -0.06000
C 	C 	0.89569 0.13598 0.29215 -0.00100
C 	C 	0.92694 0.11276 0.29152 0.01500
C 	C 	0.92167 0.07560 0.28236 -0.04300
C 	C 	0.96242 0.12671 0.30590 -0.08400
C 	C 	0.96574 0.16185 0.32939 0.02300
C 	C 	0.93353 0.18269 0.33973 -0.14200
C 	C 	0.89991 0.17176 0.31282 0.00300
H 	H 	0.82707 0.07407 0.26412 0.02300
H 	H 	0.83587 0.13956 0.27918 0.04300
H 	H 	0.94528 0.05757 0.28412 0.01000
H 	H 	0.98691 0.10959 0.30317 0.04100
H 	H 	0.99256 0.17115 0.34586 -0.05800
H 	H 	0.87554 0.18903 0.31699 0.02900
C 	C 	0.07867 0.88454 0.51788 -0.09700
C 	C 	0.06394 0.85433 0.48748 -0.00300
C 	C 	0.02676 0.85417 0.46889 -0.06100
C 	C 	0.00450 0.88492 0.47825 0.00300
C 	C 	0.01871 0.91484 0.51113 0.01600
C 	C 	0.05540 0.91394 0.53265 -0.02100
C 	C 	0.99723 0.94637 0.51740 -0.07300
C 	C 	0.96401 0.94955 0.48570 0.02500
C 	C 	0.95179 0.92097 0.44852 -0.10200
C 	C 	0.96998 0.88760 0.45000 -0.00700
H 	H 	0.08154 0.83126 0.47713 0.02300
H 	H 	0.01591 0.83088 0.44446 0.03900
H 	H 	0.06660 0.93697 0.55744 0.04800
H 	H 	0.00736 0.96917 0.54382 0.04200
H 	H 	0.94932 0.97502 0.48686 -0.03700
H 	H 	0.95939 0.86492 0.42366 0.03800
C 	C 	0.82021 0.72505 0.19950 -0.06000
C 	C 	0.82597 0.75385 0.23990 0.00400
C 	C 	0.82860 0.74715 0.30010 0.00600
C 	C 	0.82818 0.71174 0.31873 -0.03400
C 	C 	0.82525 0.68277 0.27788 -0.03200
C 	C 	0.81959 0.68956 0.21823 0.03000
C 	C 	0.83412 0.79015 0.21857 0.01700
S 	S 	0.83428 0.78282 0.35226 -0.04300
H 	H 	0.83177 0.70665 0.36482 0.04500
S 	S 	0.81098 0.65403 0.16694 -0.04600
H 	H 	0.81756 0.73016 0.15338 0.05200
C 	C 	0.87127 0.80051 0.20731 -0.00500
C 	C 	0.88037 0.83699 0.20436 -0.00500
C 	C 	0.85248 0.86344 0.21027 -0.07900
C 	C 	0.81465 0.85266 0.21443 0.05500
C 	C 	0.80573 0.81611 0.21902 -0.07200
S 	S 	0.90695 0.76810 0.19977 -0.04300
H 	H 	0.90945 0.84487 0.20076 0.04300
S 	S 	0.77827 0.88441 0.21271 -0.04600
H 	H 	0.77688 0.80802 0.22523 0.05400
H 	H 	0.84450 0.64027 0.14771 0.03900
H 	H 	0.92061 0.76086 0.25406 0.03400
H 	H 	0.76967 0.89612 0.26871 0.04700
H 	H 	0.87153 0.79112 0.35722 0.03600
