data_crystal

_cell_length_a 34.40819
_cell_length_b 34.57906
_cell_length_c 27.73697
_cell_angle_alpha 90.01108
_cell_angle_beta  90.11306
_cell_angle_gamma 119.87573

_symmetry_space_group_name_	'P 1'
_symmetry_space_group_name_H-M	'P 1'

loop_
_symmetry_equiv_pos_as_xyz
  x,y,z

loop_
_atom_site_label
_atom_site_type_symbol
_atom_site_fract_x
_atom_site_fract_y
_atom_site_fract_z
_atom_site_charge
Ni	Ni	0.98769 0.17877 0.79791 1.10300
O 	O 	0.02320 0.21726 0.64384 -0.37700
Ni	Ni	0.99259 0.82861 0.30665 1.11300
O 	O 	0.01168 0.78723 0.14666 -0.36600
C 	C 	0.05435 0.71457 0.12953 0.07300
H 	H 	0.06933 0.66806 0.09393 0.04600
C 	C 	0.97843 0.58985 0.80709 -0.05900
C 	C 	0.06038 0.55310 0.76379 -0.20200
H 	H 	0.90018 0.58606 0.81183 0.06500
C 	C 	0.96735 0.48614 0.03399 -0.06900
C 	C 	0.98074 0.52146 0.45604 -0.08200
H 	H 	0.97080 0.53920 0.43122 0.04800
H 	H 	0.00376 0.34108 0.48143 0.06900
C 	C 	0.00795 0.10145 0.20207 0.12200
C 	C 	0.01913 0.91945 0.79457 0.00900
C 	C 	0.01726 0.88442 0.71781 0.12200
H 	H 	0.01876 0.84930 0.65329 0.07600
C 	C 	0.46409 0.71325 0.43383 0.29000
C 	C 	0.55247 0.62467 0.34121 0.30700
C 	C 	0.42436 0.60322 0.42957 0.30800
C 	C 	0.59994 0.75075 0.36505 0.29000
C 	C 	0.53648 0.59928 0.48656 0.31300
C 	C 	0.59385 0.72303 0.52629 0.29300
Ni	Ni	0.50474 0.67226 0.37203 1.10900
Ni	Ni	0.59024 0.67920 0.42993 1.12200
Ni	Ni	0.50262 0.66192 0.48892 1.11700
O 	O 	0.49169 0.72076 0.39746 -0.38900
O 	O 	0.46688 0.69436 0.47503 -0.38500
O 	O 	0.56478 0.61597 0.45066 -0.39600
O 	O 	0.51266 0.61928 0.34976 -0.38500
O 	O 	0.58805 0.65814 0.36094 -0.37900
O 	O 	0.55223 0.71583 0.52225 -0.39300
O 	O 	0.43786 0.62699 0.38972 -0.38500
O 	O 	0.45335 0.60432 0.46083 -0.39900
O 	O 	0.60932 0.70233 0.49838 -0.38200
O 	O 	0.56567 0.71908 0.34029 -0.37300
O 	O 	0.61903 0.74079 0.40094 -0.38100
O 	O 	0.52852 0.62512 0.51475 -0.39900
O 	O 	0.53510 0.68030 0.43073 -0.71600
H 	H 	0.54721 0.71246 0.43587 0.15200
C 	C 	0.71142 0.48131 0.08632 0.29200
C 	C 	0.60350 0.54973 0.18588 0.31100
C 	C 	0.58566 0.42518 0.09374 0.30300
C 	C 	0.72561 0.59583 0.16846 0.28800
C 	C 	0.57951 0.52913 0.03274 0.31300
C 	C 	0.70284 0.60267 0.00600 0.27600
Ni	Ni	0.65223 0.50141 0.15332 1.11200
Ni	Ni	0.65461 0.58516 0.09740 1.11600
Ni	Ni	0.64962 0.50427 0.03552 1.11900
O 	O 	0.68259 0.46781 0.12285 -0.37900
O 	O 	0.70570 0.50025 0.04719 -0.38300
O 	O 	0.61142 0.57018 0.04202 -0.40600
O 	O 	0.62292 0.52719 0.19991 -0.37700
O 	O 	0.60019 0.55620 0.14011 -0.40600
O 	O 	0.68258 0.55976 0.99292 -0.36800
O 	O 	0.58981 0.45019 0.13134 -0.38400
O 	O 	0.61647 0.44033 0.05993 -0.38600
O 	O 	0.70608 0.61522 0.05155 -0.39500
O 	O 	0.71248 0.55357 0.17851 -0.37300
O 	O 	0.69627 0.60869 0.15635 -0.38700
O 	O 	0.58940 0.49786 0.02295 -0.40000
O 	O 	0.66130 0.53423 0.09606 -0.71700
H 	H 	0.69418 0.54955 0.09405 0.15000
C 	C 	0.83793 0.90241 0.74111 0.29100
C 	C 	0.78428 0.73650 0.85775 0.31000
C 	C 	0.89921 0.84051 0.75981 0.29700
C 	C 	0.72494 0.80038 0.83271 0.28600
C 	C 	0.79873 0.72142 0.70531 0.30300
C 	C 	0.71796 0.77201 0.67926 0.28700
Ni	Ni	0.82192 0.83005 0.81708 1.11100
Ni	Ni	0.74133 0.74028 0.76813 1.11900
Ni	Ni	0.81732 0.81430 0.70072 1.11800
O 	O 	0.85204 0.89169 0.78104 -0.37700
O 	O 	0.81729 0.87305 0.70563 -0.38800
O 	O 	0.75697 0.71059 0.71480 -0.38800
O 	O 	0.80028 0.77888 0.86802 -0.37800
O 	O 	0.77630 0.72276 0.81299 -0.40100
O 	O 	0.75855 0.78275 0.66273 -0.38400
O 	O 	0.87453 0.82033 0.79761 -0.38700
O 	O 	0.88207 0.85073 0.72290 -0.38700
O 	O 	0.70397 0.75311 0.72222 -0.39000
O 	O 	0.76634 0.83409 0.83900 -0.37400
O 	O 	0.71693 0.75894 0.82566 -0.38300
O 	O 	0.82854 0.76274 0.69413 -0.39000
O 	O 	0.78880 0.79979 0.76190 -0.71700
H 	H 	0.77106 0.81471 0.75740 0.14900
C 	C 	0.24640 0.37174 0.84662 0.29000
C 	C 	0.37410 0.55974 0.89624 0.30800
C 	C 	0.37427 0.43952 0.82218 0.30400
C 	C 	0.25439 0.49643 0.90816 0.29100
C 	C 	0.40051 0.46659 0.96736 0.30500
C 	C 	0.27462 0.39419 0.00481 0.28100
Ni	Ni	0.31100 0.47166 0.84721 1.11100
Ni	Ni	0.32595 0.48461 0.96284 1.12100
Ni	Ni	0.32351 0.40034 0.91205 1.12100
O 	O 	0.27339 0.40668 0.81964 -0.37300
O 	O 	0.26172 0.35986 0.88453 -0.38000
O 	O 	0.37054 0.47041 0.99307 -0.38800
O 	O 	0.34468 0.54024 0.86135 -0.38100
O 	O 	0.37897 0.53605 0.93003 -0.39800
O 	O 	0.30257 0.38462 0.98138 -0.37400
O 	O 	0.37079 0.47550 0.82629 -0.38600
O 	O 	0.34505 0.40248 0.84353 -0.38300
O 	O 	0.27709 0.43370 0.00043 -0.39400
O 	O 	0.25449 0.47274 0.87062 -0.38100
O 	O 	0.28526 0.50996 0.94326 -0.38000
O 	O 	0.38788 0.43774 0.93176 -0.39600
O 	O 	0.31020 0.44760 0.90801 -0.71900
H 	H 	0.27774 0.43050 0.91418 0.15400
C 	C 	0.37576 0.25904 0.63765 0.28900
C 	C 	0.56058 0.39159 0.58126 0.30900
C 	C 	0.43546 0.38698 0.66048 0.30700
C 	C 	0.49928 0.27449 0.57150 0.29000
C 	C 	0.45758 0.41217 0.51768 0.31100
C 	C 	0.39082 0.28624 0.47776 0.28900
Ni	Ni	0.47368 0.32985 0.63408 1.11300
Ni	Ni	0.48240 0.34261 0.51787 1.11900
Ni	Ni	0.39527 0.33314 0.57181 1.12200
O 	O 	0.40999 0.28902 0.66360 -0.37300
O 	O 	0.35998 0.27128 0.60052 -0.38200
O 	O 	0.46421 0.38502 0.49017 -0.39700
O 	O 	0.54220 0.36708 0.61983 -0.38000
O 	O 	0.53568 0.39603 0.54825 -0.39700
O 	O 	0.37823 0.31098 0.50287 -0.38300
O 	O 	0.47322 0.38750 0.65286 -0.38400
O 	O 	0.39825 0.35621 0.64009 -0.37800
O 	O 	0.43193 0.29188 0.48135 -0.39300
O 	O 	0.47850 0.27563 0.61126 -0.38700
O 	O 	0.51084 0.30454 0.53611 -0.38400
O 	O 	0.42617 0.39665 0.55066 -0.39500
O 	O 	0.44713 0.32637 0.57401 -0.71700
H 	H 	0.43206 0.29408 0.56826 0.14600
C 	C 	0.25601 0.18953 0.15990 0.29100
C 	C 	0.08379 0.14795 0.23973 0.31400
C 	C 	0.20312 0.26048 0.15062 0.31100
C 	C 	0.14883 0.08419 0.23886 0.28600
C 	C 	0.18572 0.25690 0.30453 0.31000
C 	C 	0.26421 0.21213 0.32271 0.29600
Ni	Ni	0.16012 0.16267 0.17741 1.11000
Ni	Ni	0.16450 0.16359 0.29576 1.12000
Ni	Ni	0.24258 0.24398 0.23532 1.11600
O 	O 	0.21411 0.15904 0.14954 -0.37800
O 	O 	0.26655 0.23045 0.17375 -0.38800
O 	O 	0.15528 0.21502 0.31249 -0.38900
O 	O 	0.10833 0.17128 0.20305 -0.38100
O 	O 	0.09995 0.13143 0.27160 -0.37600
O 	O 	0.27488 0.22186 0.27693 -0.40000
O 	O 	0.18333 0.21949 0.13380 -0.37500
O 	O 	0.20908 0.26765 0.19690 -0.39800
O 	O 	0.22158 0.18717 0.33694 -0.37900
O 	O 	0.13009 0.09812 0.20626 -0.37500
O 	O 	0.16332 0.10542 0.28086 -0.37900
O 	O 	0.22711 0.26727 0.29451 -0.40300
O 	O 	0.19340 0.18526 0.23496 -0.71100
H 	H 	0.21011 0.16905 0.23503 0.14900
C 	C 	0.50371 0.23530 0.08286 0.29000
C 	C 	0.43435 0.05569 0.16665 0.30800
C 	C 	0.56305 0.17681 0.09515 0.30900
C 	C 	0.37267 0.11797 0.13359 0.28800
C 	C 	0.47177 0.05989 0.01787 0.30100
C 	C 	0.40130 0.11753 0.98197 0.30100
Ni	Ni	0.47276 0.15097 0.14033 1.11000
Ni	Ni	0.40383 0.07000 0.07070 1.12000
Ni	Ni	0.49111 0.15300 0.02498 1.11500
O 	O 	0.47733 0.21026 0.11821 -0.38300
O 	O 	0.51675 0.21865 0.04657 -0.38400
O 	O 	0.44317 0.04462 0.05382 -0.39100
O 	O 	0.47227 0.09305 0.16102 -0.38600
O 	O 	0.39985 0.04668 0.13889 -0.38200
O 	O 	0.44210 0.15314 0.98477 -0.38700
O 	O 	0.54252 0.18364 0.13137 -0.38500
O 	O 	0.54014 0.14903 0.06062 -0.39700
O 	O 	0.39269 0.07876 0.00073 -0.39600
O 	O 	0.40611 0.12505 0.16316 -0.37600
O 	O 	0.36231 0.09116 0.09555 -0.38200
O 	O 	0.47799 0.09509 0.99309 -0.38000
O 	O 	0.45150 0.13023 0.07800 -0.71600
H 	H 	0.43521 0.14632 0.07137 0.15100
C 	C 	0.14075 0.05584 0.75906 0.29200
C 	C 	0.21296 0.95103 0.67097 0.31000
C 	C 	0.09000 0.94563 0.75065 0.32200
C 	C 	0.27618 0.07748 0.70054 0.29000
C 	C 	0.18464 0.92132 0.81559 0.30900
C 	C 	0.25871 0.04890 0.85371 0.28700
Ni	Ni	0.17671 0.00953 0.69978 1.10800
Ni	Ni	0.25086 0.99945 0.76255 1.12200
Ni	Ni	0.16624 0.99531 0.81657 1.11900
O 	O 	0.17042 0.06219 0.72542 -0.39000
O 	O 	0.13917 0.03540 0.80072 -0.38300
O 	O 	0.21374 0.93490 0.78015 -0.39000
O 	O 	0.17574 0.95166 0.67812 -0.39200
O 	O 	0.24983 0.97977 0.69327 -0.38100
O 	O 	0.21791 0.04422 0.85399 -0.38800
O 	O 	0.10797 0.97159 0.71304 -0.39100
O 	O 	0.11491 0.94232 0.78413 -0.40600
O 	O 	0.26638 0.01906 0.83223 -0.38300
O 	O 	0.24159 0.05040 0.67286 -0.37500
O 	O 	0.28982 0.06178 0.73657 -0.38300
O 	O 	0.18167 0.95053 0.84353 -0.38700
O 	O 	0.20205 0.01136 0.76034 -0.71500
H 	H 	0.21820 0.04368 0.76660 0.15100
C 	C 	0.26373 0.75948 0.41174 0.29000
C 	C 	0.37094 0.94244 0.33386 0.29600
C 	C 	0.36732 0.80972 0.41940 0.29500
C 	C 	0.25121 0.87578 0.34661 0.29000
C 	C 	0.38489 0.93239 0.49340 0.30600
C 	C 	0.26435 0.88213 0.51311 0.29100
Ni	Ni	0.31845 0.84533 0.35799 1.10800
Ni	Ni	0.31743 0.92536 0.42428 1.11600
Ni	Ni	0.31556 0.83988 0.47742 1.11500
O 	O 	0.26496 0.78289 0.37366 -0.38500
O 	O 	0.27045 0.77637 0.45599 -0.38900
O 	O 	0.36508 0.95302 0.47509 -0.39200
O 	O 	0.37114 0.90450 0.33203 -0.37600
O 	O 	0.36779 0.95829 0.37587 -0.38000
O 	O 	0.26546 0.84445 0.50964 -0.38800
O 	O 	0.36167 0.82132 0.37579 -0.38000
O 	O 	0.36838 0.83359 0.45649 -0.39300
O 	O 	0.26858 0.90624 0.47415 -0.38600
O 	O 	0.27531 0.86206 0.32310 -0.38100
O 	O 	0.27083 0.91287 0.37227 -0.38800
O 	O 	0.36085 0.89353 0.51396 -0.40100
O 	O 	0.31156 0.86699 0.41867 -0.70300
H 	H 	0.27850 0.85043 0.41873 0.12800
C 	C 	0.58819 0.84932 0.83846 0.28700
C 	C 	0.42160 0.83455 0.90533 0.30600
C 	C 	0.54552 0.93096 0.82045 0.31000
C 	C 	0.46107 0.75074 0.91317 0.29300
C 	C 	0.52624 0.93250 0.97391 0.30400
C 	C 	0.59059 0.87498 0.00027 0.28100
Ni	Ni	0.49487 0.83391 0.84905 1.11000
Ni	Ni	0.49341 0.83588 0.96694 1.12200
Ni	Ni	0.57920 0.91050 0.90873 1.11700
O 	O 	0.54538 0.82080 0.82869 -0.37300
O 	O 	0.60201 0.89160 0.85006 -0.38500
O 	O 	0.49392 0.89238 0.98553 -0.38900
O 	O 	0.44948 0.85394 0.86936 -0.38500
O 	O 	0.43113 0.81406 0.93932 -0.38400
O 	O 	0.60592 0.88611 0.95564 -0.39000
O 	O 	0.52865 0.88985 0.80503 -0.38000
O 	O 	0.55364 0.94022 0.86637 -0.39500
O 	O 	0.54697 0.84871 0.00972 -0.38500
O 	O 	0.45242 0.76996 0.87646 -0.38000
O 	O 	0.48154 0.77324 0.95294 -0.37800
O 	O 	0.56670 0.93969 0.96456 -0.39600
O 	O 	0.52598 0.85427 0.90810 -0.71500
H 	H 	0.53924 0.83488 0.91103 0.15200
C 	C 	0.70411 0.93180 0.30406 0.29100
C 	C 	0.89211 0.05895 0.25250 0.30100
C 	C 	0.76950 0.05496 0.33838 0.31000
C 	C 	0.83705 0.94820 0.24231 0.29000
C 	C 	0.79987 0.08880 0.19103 0.30900
C 	C 	0.72128 0.96277 0.15083 0.28600
Ni	Ni	0.80469 0.99710 0.30425 1.11000
Ni	Ni	0.81439 0.01227 0.18752 1.11600
Ni	Ni	0.73235 0.01149 0.24350 1.11900
O 	O 	0.73970 0.95696 0.33150 -0.37400
O 	O 	0.69177 0.94923 0.26858 -0.38600
O 	O 	0.80115 0.05915 0.16227 -0.38900
O 	O 	0.87351 0.03462 0.29109 -0.39000
O 	O 	0.86792 0.06381 0.21929 -0.40200
O 	O 	0.71608 0.99372 0.17338 -0.38500
O 	O 	0.80653 0.05453 0.32917 -0.39200
O 	O 	0.73311 0.02969 0.31333 -0.38200
O 	O 	0.76119 0.96528 0.14995 -0.38500
O 	O 	0.80950 0.94369 0.27784 -0.38700
O 	O 	0.83878 0.96948 0.20126 -0.38200
O 	O 	0.77203 0.07591 0.22758 -0.39400
O 	O 	0.77938 0.99696 0.24432 -0.71300
H 	H 	0.76221 0.96471 0.23776 0.15000
C 	C 	0.71767 0.13166 0.65648 0.29000
C 	C 	0.58484 0.16917 0.57455 0.31100
C 	C 	0.59459 0.06607 0.67450 0.31000
C 	C 	0.70957 0.23313 0.56193 0.29000
C 	C 	0.57212 0.05220 0.52095 0.31200
C 	C 	0.70014 0.10145 0.49909 0.29300
Ni	Ni	0.65024 0.16009 0.63552 1.11100
Ni	Ni	0.64408 0.14568 0.51903 1.12000
Ni	Ni	0.64553 0.07199 0.58782 1.11800
O 	O 	0.70927 0.16501 0.66122 -0.37500
O 	O 	0.68510 0.09025 0.64802 -0.38700
O 	O 	0.58231 0.09322 0.51050 -0.38900
O 	O 	0.58805 0.14777 0.61185 -0.38600
O 	O 	0.61364 0.18068 0.53897 -0.38600
O 	O 	0.69816 0.08838 0.54448 -0.39500
O 	O 	0.61928 0.10851 0.68556 -0.37700
O 	O 	0.59084 0.05300 0.62957 -0.39700
O 	O 	0.67318 0.11574 0.48191 -0.38300
O 	O 	0.68220 0.22187 0.59969 -0.37800
O 	O 	0.70203 0.20483 0.52575 -0.38400
O 	O 	0.60354 0.04264 0.53199 -0.40100
O 	O 	0.65654 0.13110 0.58123 -0.71500
H 	H 	0.68941 0.14688 0.57847 0.15200
C 	C 	0.23555 0.50154 0.42773 0.28800
C 	C 	0.07494 0.45280 0.30330 0.30900
C 	C 	0.17829 0.56890 0.40440 0.30800
C 	C 	0.13698 0.39346 0.33355 0.28400
C 	C 	0.05516 0.46965 0.45805 0.31200
C 	C 	0.09605 0.38804 0.49025 0.29400
Ni	Ni	0.16726 0.49067 0.34906 1.11200
Ni	Ni	0.07538 0.41183 0.39553 1.11700
Ni	Ni	0.14818 0.48729 0.46447 1.12000
O 	O 	0.22738 0.51829 0.38830 -0.37900
O 	O 	0.20591 0.48467 0.46358 -0.37900
O 	O 	0.04380 0.42817 0.44672 -0.39200
O 	O 	0.11812 0.47048 0.29537 -0.37800
O 	O 	0.05927 0.44541 0.34734 -0.39900
O 	O 	0.11439 0.43042 0.50501 -0.38100
O 	O 	0.15970 0.54496 0.36565 -0.38300
O 	O 	0.18746 0.55135 0.44174 -0.38100
O 	O 	0.08789 0.37666 0.44426 -0.40100
O 	O 	0.17096 0.43491 0.32924 -0.38100
O 	O 	0.09524 0.38559 0.34043 -0.38700
O 	O 	0.09730 0.50002 0.46552 -0.39200
O 	O 	0.13485 0.45851 0.40341 -0.72000
H 	H 	0.14914 0.44036 0.40907 0.15300
C 	C 	0.75419 0.28520 0.07338 0.28900
C 	C 	0.93775 0.39666 0.15832 0.32100
C 	C 	0.82746 0.40883 0.07458 0.30600
C 	C 	0.86067 0.27163 0.14848 0.28800
C 	C 	0.93125 0.40838 0.00506 0.29400
C 	C 	0.87977 0.28562 0.98648 0.30500
Ni	Ni	0.83878 0.34425 0.13378 1.11100
Ni	Ni	0.91664 0.33867 0.07388 1.11600
Ni	Ni	0.83653 0.34096 0.01545 1.11700
O 	O 	0.77275 0.31556 0.10806 -0.38100
O 	O 	0.77588 0.28789 0.03266 -0.38600
O 	O 	0.94118 0.37722 0.01513 -0.40800
O 	O 	0.89706 0.37356 0.17580 -0.38100
O 	O 	0.94480 0.39608 0.11214 -0.40200
O 	O 	0.85330 0.30222 0.97447 -0.37900
O 	O 	0.85312 0.40595 0.10763 -0.38800
O 	O 	0.81087 0.37920 0.03952 -0.38500
O 	O 	0.89167 0.28471 0.03161 -0.41100
O 	O 	0.83127 0.28447 0.15936 -0.37600
O 	O 	0.90223 0.30106 0.13518 -0.38500
O 	O 	0.89007 0.39793 0.99406 -0.37800
O 	O 	0.85869 0.33229 0.07530 -0.71300
H 	H 	0.84062 0.29959 0.07480 0.14800
C 	C 	0.03409 0.14199 0.73891 0.29200
C 	C 	0.93384 0.22016 0.82649 0.31000
C 	C 	0.92099 0.09249 0.74701 0.30700
C 	C 	0.05951 0.27709 0.79861 0.28900
C 	C 	0.90319 0.19273 0.68053 0.31300
C 	C 	0.02847 0.25802 0.64026 0.29600
Ni	Ni	0.98299 0.25499 0.73432 1.11400
Ni	Ni	0.97292 0.16767 0.68163 1.11100
O 	O 	0.03987 0.17092 0.77318 -0.37900
O 	O 	0.01083 0.13814 0.69847 -0.36900
O 	O 	0.91828 0.22167 0.71604 -0.39600
O 	O 	0.93142 0.18171 0.81877 -0.38900
O 	O 	0.96336 0.25570 0.80314 -0.39000
O 	O 	0.94735 0.11025 0.78468 -0.39300
O 	O 	0.91815 0.11767 0.71363 -0.39900
O 	O 	0.00278 0.26976 0.66471 -0.37300
O 	O 	0.03082 0.24287 0.82553 -0.36400
O 	O 	0.04583 0.29095 0.76094 -0.37400
O 	O 	0.93077 0.18625 0.65343 -0.40000
O 	O 	0.99109 0.20415 0.73724 -0.73900
H 	H 	0.02353 0.21888 0.73101 0.17200
C 	C 	0.12766 0.73903 0.85612 0.28600
C 	C 	0.16881 0.60126 0.91004 0.30500
C 	C 	0.05506 0.61259 0.83726 0.30400
C 	C 	0.23705 0.73009 0.91894 0.28400
C 	C 	0.06669 0.59253 0.98831 0.31200
C 	C 	0.11536 0.71485 0.01706 0.28500
Ni	Ni	0.15436 0.66893 0.85941 1.11000
Ni	Ni	0.16002 0.66392 0.97690 1.12200
Ni	Ni	0.07603 0.66561 0.92702 1.12000
O 	O 	0.15819 0.72896 0.84131 -0.37400
O 	O 	0.08704 0.70733 0.86975 -0.37500
O 	O 	0.10891 0.60359 0.99394 -0.38900
O 	O 	0.14499 0.60638 0.87620 -0.38600
O 	O 	0.18863 0.63179 0.94371 -0.37700
O 	O 	0.09990 0.71661 0.97380 -0.39000
O 	O 	0.09481 0.64053 0.81971 -0.37600
O 	O 	0.04738 0.61093 0.88375 -0.38500
O 	O 	0.14026 0.69561 0.02498 -0.38500
O 	O 	0.22065 0.69968 0.88410 -0.37900
O 	O 	0.21839 0.72086 0.96247 -0.38000
O 	O 	0.05512 0.62326 0.98319 -0.39200
O 	O 	0.13466 0.67470 0.92085 -0.71500
H 	H 	0.15118 0.70729 0.92397 0.14500
C 	C 	0.91306 0.72516 0.18384 0.28800
C 	C 	0.05912 0.89831 0.24059 0.30300
C 	C 	0.03719 0.77198 0.16326 0.31100
C 	C 	0.93286 0.85104 0.25024 0.29100
C 	C 	0.06278 0.80412 0.31486 0.30500
C 	C 	0.94243 0.73361 0.34575 0.29200
Ni	Ni	0.98690 0.82025 0.18882 1.10100
Ni	Ni	0.98722 0.74266 0.25383 1.10900
O 	O 	0.92476 0.76654 0.17097 -0.38200
O 	O 	0.94362 0.71417 0.19701 -0.39000
O 	O 	0.05094 0.83358 0.32659 -0.38300
O 	O 	0.05161 0.86861 0.20704 -0.37800
O 	O 	0.02942 0.88956 0.27491 -0.36400
O 	O 	0.93752 0.71649 0.30208 -0.39900
O 	O 	0.04093 0.76800 0.20960 -0.38800
O 	O 	0.95630 0.77680 0.35301 -0.38400
O 	O 	0.96112 0.86034 0.21372 -0.38500
O 	O 	0.93801 0.83437 0.29140 -0.38500
O 	O 	0.03225 0.76202 0.30799 -0.38800
O 	O 	0.97974 0.79318 0.24976 -0.72300
H 	H 	0.94695 0.77820 0.25316 0.15300
C 	C 	0.85734 0.59515 0.66153 0.27900
C 	C 	0.81358 0.42279 0.57312 0.29200
C 	C 	0.92542 0.54457 0.68518 0.29800
C 	C 	0.75275 0.46875 0.57435 0.28600
C 	C 	0.93844 0.53494 0.52027 0.28900
C 	C 	0.88936 0.60563 0.49991 0.29100
Ni	Ni	0.83253 0.49909 0.64224 1.10700
Ni	Ni	0.84360 0.50956 0.52358 1.11600
Ni	Ni	0.92011 0.58632 0.59312 1.11500
O 	O 	0.83710 0.55403 0.67895 -0.37800
O 	O 	0.89896 0.61353 0.64499 -0.38200
O 	O 	0.90287 0.52533 0.49441 -0.39500
O 	O 	0.82065 0.43680 0.61829 -0.38500
O 	O 	0.83756 0.44943 0.53806 -0.39100
O 	O 	0.90868 0.62153 0.54230 -0.38800
O 	O 	0.88724 0.50689 0.68220 -0.38100
O 	O 	0.94623 0.56511 0.64557 -0.38800
O 	O 	0.85106 0.56723 0.49688 -0.38500
O 	O 	0.76969 0.48432 0.61744 -0.38900
O 	O 	0.77665 0.48621 0.53452 -0.38600
O 	O 	0.95614 0.57069 0.54783 -0.39000
O 	O 	0.86185 0.53377 0.58717 -0.70800
H 	H 	0.84460 0.54951 0.58576 0.12600
C 	C 	0.87113 0.64759 0.43937 -0.03800
C 	C 	0.90250 0.63732 0.45925 -0.08800
C 	C 	0.94721 0.65977 0.44242 0.08000
C 	C 	0.96009 0.69301 0.40719 -0.04700
C 	C 	0.92891 0.70327 0.38734 -0.08900
C 	C 	0.88400 0.68038 0.40332 0.07900
C 	C 	0.84962 0.69009 0.38140 -0.19600
H 	H 	0.83686 0.63046 0.45231 0.04900
H 	H 	0.99416 0.70985 0.39389 0.03400
C 	C 	0.98092 0.64740 0.46062 -0.22800
H 	H 	0.81682 0.67173 0.40011 0.06700
H 	H 	0.84439 0.67998 0.34286 0.07700
H 	H 	0.86126 0.72629 0.38408 0.07700
H 	H 	0.96777 0.61117 0.45541 0.08300
H 	H 	0.98797 0.65597 0.49941 0.07700
H 	H 	0.01321 0.66541 0.44088 0.08700
C 	C 	0.08975 0.78920 0.09487 -0.03700
C 	C 	0.06121 0.75850 0.12926 -0.08800
C 	C 	0.07533 0.70195 0.09455 -0.03500
C 	C 	0.10184 0.73191 0.05863 -0.08900
C 	C 	0.11084 0.77649 0.06005 0.07900
C 	C 	0.14269 0.81049 0.02460 -0.20600
H 	H 	0.09545 0.82300 0.09514 0.04200
C 	C 	0.02342 0.68056 0.16565 -0.16500
H 	H 	0.15279 0.84501 0.03615 0.06600
H 	H 	0.12639 0.80461 0.98869 0.08700
H 	H 	0.17370 0.80825 0.02176 0.06800
H 	H 	0.98965 0.67711 0.16343 0.04500
H 	H 	0.03711 0.69083 0.20263 0.06100
H 	H 	0.01943 0.64711 0.15875 0.06200
C 	C 	0.98992 0.54622 0.72788 -0.06300
C 	C 	0.95296 0.55300 0.72918 -0.08400
C 	C 	0.94569 0.57244 0.77052 0.07500
C 	C 	0.01735 0.58652 0.80371 -0.07200
C 	C 	0.02161 0.56183 0.76548 0.10200
H 	H 	0.99456 0.52963 0.69710 0.04400
H 	H 	0.97445 0.60760 0.83719 0.03800
C 	C 	0.90465 0.57723 0.77454 -0.19800
H 	H 	0.05259 0.52409 0.74027 0.07300
H 	H 	0.06790 0.54535 0.80034 0.08000
H 	H 	0.09050 0.58283 0.74933 0.07600
H 	H 	0.87413 0.54536 0.76506 0.07700
H 	H 	0.90799 0.60397 0.74995 0.07800
C 	C 	0.86021 0.23826 0.91277 -0.03900
C 	C 	0.89152 0.26265 0.94913 -0.09000
C 	C 	0.93466 0.26674 0.94793 0.07900
C 	C 	0.94566 0.24721 0.91006 -0.03800
C 	C 	0.91599 0.22681 0.87164 -0.09800
C 	C 	0.87224 0.22035 0.87387 0.07900
C 	C 	0.83896 0.19602 0.83402 -0.19700
H 	H 	0.82681 0.23400 0.91425 0.04800
H 	H 	0.97875 0.25067 0.90872 0.03400
C 	C 	0.96974 0.29314 0.98566 -0.21100
H 	H 	0.80469 0.18870 0.84391 0.06600
H 	H 	0.83739 0.16373 0.82640 0.07500
H 	H 	0.84926 0.21664 0.80079 0.07800
H 	H 	0.96009 0.27534 0.02071 0.06200
H 	H 	0.97396 0.32693 0.98954 0.06700
H 	H 	0.00303 0.29770 0.97568 0.08200
C 	C 	0.03198 0.51426 0.96106 0.00700
C 	C 	0.03196 0.54556 0.99320 -0.09600
C 	C 	0.00007 0.53132 0.03073 0.09400
C 	C 	0.96702 0.45497 0.00146 -0.07800
C 	C 	0.99960 0.46899 0.96473 0.02500
C 	C 	0.00025 0.43586 0.92978 -0.12700
H 	H 	0.05716 0.52528 0.93295 0.04000
H 	H 	0.94228 0.47508 0.06219 0.05300
C 	C 	0.00093 0.56393 0.06749 -0.13800
H 	H 	0.02485 0.45276 0.90034 0.05900
H 	H 	0.96674 0.41553 0.91289 0.05300
H 	H 	0.00964 0.41355 0.94906 0.07100
H 	H 	0.98998 0.58598 0.05047 0.04500
H 	H 	0.03526 0.58447 0.08240 0.06500
H 	H 	0.97824 0.54653 0.09826 0.03700
C 	C 	0.96724 0.51675 0.50440 -0.06400
C 	C 	0.97903 0.49242 0.53643 0.03300
C 	C 	0.00552 0.47457 0.51984 0.00900
C 	C 	0.02008 0.48040 0.47177 -0.11200
C 	C 	0.00719 0.50366 0.43952 0.12100
C 	C 	0.02016 0.50818 0.38712 -0.21900
H 	H 	0.01608 0.45743 0.54480 0.03900
C 	C 	0.96602 0.48782 0.58888 -0.18100
H 	H 	0.00983 0.52950 0.36722 0.07700
H 	H 	0.00334 0.47467 0.37013 0.09100
H 	H 	0.05707 0.52359 0.38344 0.09000
H 	H 	0.93041 0.47892 0.59288 0.07200
H 	H 	0.98775 0.51986 0.60765 0.07600
H 	H 	0.96999 0.46124 0.60676 0.05700
C 	C 	0.10852 0.35613 0.56556 -0.04300
C 	C 	0.08041 0.35206 0.52674 -0.07700
C 	C 	0.03756 0.31329 0.52282 0.05800
C 	C 	0.02477 0.27875 0.55636 0.00300
C 	C 	0.05098 0.28458 0.59730 -0.09700
C 	C 	0.09402 0.32265 0.60102 0.08200
C 	C 	0.12355 0.32878 0.64390 -0.20000
H 	H 	0.14143 0.38556 0.56851 0.04700
H 	H 	0.99209 0.24900 0.55323 0.01800
C 	C 	0.00434 0.30938 0.48474 -0.15400
H 	H 	0.15886 0.35485 0.63707 0.06800
H 	H 	0.12330 0.29719 0.65197 0.07300
H 	H 	0.11118 0.33876 0.67584 0.07800
H 	H 	0.01314 0.30053 0.44957 0.06000
H 	H 	0.96973 0.28303 0.49401 0.04000
C 	C 	0.01808 0.46343 0.25887 -0.01400
C 	C 	0.04387 0.44236 0.26217 -0.09400
C 	C 	0.03777 0.40951 0.22771 0.06300
C 	C 	0.00381 0.39619 0.19291 0.02600
C 	C 	0.97628 0.41530 0.19157 -0.13000
C 	C 	0.98444 0.45033 0.22355 0.06000
C 	C 	0.95708 0.47338 0.22061 -0.18800
H 	H 	0.02415 0.48998 0.28381 0.03900
H 	H 	0.99776 0.36969 0.16781 0.00400
C 	C 	0.06446 0.38574 0.23020 -0.19100
H 	H 	0.97191 0.50418 0.24290 0.05400
H 	H 	0.92256 0.45061 0.23370 0.07000
H 	H 	0.95556 0.48310 0.18277 0.06700
H 	H 	0.05198 0.36153 0.26036 0.07900
H 	H 	0.10073 0.40967 0.23485 0.08700
H 	H 	0.06096 0.36693 0.19645 0.06900
C 	C 	0.82514 0.14317 0.70518 -0.03700
C 	C 	0.85535 0.16973 0.66939 -0.09700
C 	C 	0.83941 0.17963 0.62690 0.08000
C 	C 	0.79362 0.16509 0.62238 -0.03900
C 	C 	0.76390 0.14102 0.65962 -0.09300
C 	C 	0.77937 0.12856 0.70060 0.07700
C 	C 	0.74757 0.10128 0.74028 -0.19400
H 	H 	0.83766 0.13561 0.73766 0.04400
H 	H 	0.78121 0.17361 0.59045 0.04100
C 	C 	0.87123 0.20707 0.58725 -0.19400
H 	H 	0.76501 0.09402 0.76965 0.06000
H 	H 	0.72102 0.06890 0.72563 0.07300
H 	H 	0.73193 0.11972 0.75620 0.07100
H 	H 	0.88879 0.18986 0.57308 0.07600
H 	H 	0.89631 0.24044 0.60127 0.07300
H 	H 	0.85336 0.21212 0.55663 0.06400
C 	C 	0.78263 0.30104 0.57730 -0.04400
C 	C 	0.74079 0.28095 0.55418 -0.08600
C 	C 	0.72567 0.30799 0.53212 0.07800
C 	C 	0.75112 0.35455 0.53676 -0.04600
C 	C 	0.79072 0.37433 0.56393 -0.09200
C 	C 	0.80816 0.34770 0.58173 0.08200
C 	C 	0.85361 0.36868 0.60553 -0.19600
H 	H 	0.79453 0.28028 0.59350 0.04000
H 	H 	0.73889 0.37529 0.52126 0.03900
C 	C 	0.68057 0.28734 0.50751 -0.19600
H 	H 	0.86528 0.34418 0.61029 0.06400
H 	H 	0.85210 0.38178 0.64159 0.08000
H 	H 	0.87875 0.39626 0.58291 0.07600
H 	H 	0.65362 0.27418 0.53505 0.08400
H 	H 	0.67606 0.25986 0.48324 0.07600
H 	H 	0.67718 0.31215 0.48514 0.06700
C 	C 	0.80271 0.14619 0.13653 -0.03600
C 	C 	0.82099 0.13539 0.17579 -0.09400
C 	C 	0.85480 0.16971 0.20418 0.07900
C 	C 	0.86900 0.21434 0.19312 -0.03900
C 	C 	0.84840 0.22495 0.15594 -0.09100
C 	C 	0.81503 0.19058 0.12718 0.07700
C 	C 	0.79275 0.20092 0.08627 -0.20300
H 	H 	0.77711 0.11971 0.11465 0.04600
H 	H 	0.89537 0.24085 0.21427 0.04200
C 	C 	0.87820 0.15925 0.24382 -0.20100
H 	H 	0.76407 0.17018 0.07109 0.07000
H 	H 	0.81710 0.21788 0.05688 0.08000
H 	H 	0.77937 0.22228 0.09905 0.07500
H 	H 	0.90350 0.15215 0.22777 0.08000
H 	H 	0.85412 0.13031 0.26562 0.08600
H 	H 	0.89572 0.18785 0.26903 0.06200
C 	C 	0.74262 0.03981 0.42214 -0.03600
C 	C 	0.76433 0.07109 0.38552 -0.09700
C 	C 	0.77219 0.11494 0.39102 0.07800
C 	C 	0.75350 0.12534 0.43053 -0.04100
C 	C 	0.72715 0.09241 0.46436 -0.08600
C 	C 	0.72252 0.04940 0.46071 0.07700
C 	C 	0.69438 0.01294 0.49616 -0.19600
H 	H 	0.73817 0.00660 0.41850 0.04300
H 	H 	0.75793 0.15854 0.43390 0.04300
C 	C 	0.79858 0.15003 0.35374 -0.19600
H 	H 	0.69066 0.98035 0.48517 0.06600
H 	H 	0.66016 0.00845 0.49837 0.07200
H 	H 	0.71051 0.02134 0.53226 0.07200
H 	H 	0.77885 0.14247 0.31985 0.07600
H 	H 	0.83063 0.15076 0.34625 0.07000
H 	H 	0.80683 0.18381 0.36625 0.06500
C 	C 	0.85219 0.88963 0.21050 -0.03800
C 	C 	0.86111 0.92277 0.24500 -0.08600
C 	C 	0.89153 0.93003 0.28312 0.07300
C 	C 	0.91271 0.90438 0.28560 -0.03500
C 	C 	0.90466 0.87209 0.25055 -0.08700
C 	C 	0.87320 0.86367 0.21342 0.07200
C 	C 	0.86224 0.82748 0.17669 -0.19200
H 	H 	0.82849 0.88366 0.18169 0.04300
H 	H 	0.93711 0.91094 0.31383 0.04200
C 	C 	0.90474 0.96759 0.31864 -0.19200
H 	H 	0.83120 0.81921 0.15634 0.06400
H 	H 	0.85673 0.79648 0.19474 0.07200
H 	H 	0.89025 0.83862 0.15063 0.06800
H 	H 	0.87475 0.96561 0.33585 0.06500
H 	H 	0.92452 0.99996 0.29988 0.08000
H 	H 	0.92592 0.96630 0.34818 0.06300
C 	C 	0.61012 0.90280 0.08421 -0.04300
C 	C 	0.62269 0.89086 0.04119 -0.08300
C 	C 	0.66595 0.89559 0.03751 0.06000
C 	C 	0.69779 0.91827 0.07412 -0.03600
C 	C 	0.68577 0.93250 0.11625 -0.08900
C 	C 	0.64031 0.92095 0.12277 0.07700
C 	C 	0.62331 0.92695 0.17067 -0.19800
H 	H 	0.57658 0.89791 0.08779 0.04500
H 	H 	0.73192 0.92514 0.06951 0.04600
C 	C 	0.67840 0.87639 0.99532 -0.16800
H 	H 	0.58627 0.90587 0.17305 0.06600
H 	H 	0.63197 0.96221 0.17548 0.07000
H 	H 	0.63741 0.91644 0.20042 0.07800
H 	H 	0.68822 0.89949 0.96416 0.07500
H 	H 	0.64995 0.84329 0.98491 0.07300
H 	H 	0.70705 0.87141 0.00451 0.05300
C 	C 	0.52541 0.96299 0.75093 -0.03800
C 	C 	0.55731 0.96723 0.78535 -0.09200
C 	C 	0.60103 0.00471 0.78398 0.07500
C 	C 	0.61176 0.03757 0.74875 -0.03600
C 	C 	0.58036 0.03273 0.71350 -0.10000
C 	C 	0.53643 0.99568 0.71521 0.07900
C 	C 	0.50152 0.99031 0.67869 -0.19300
H 	H 	0.49199 0.93411 0.75186 0.04100
H 	H 	0.64515 0.06645 0.74788 0.04800
C 	C 	0.63668 0.00947 0.81919 -0.19700
H 	H 	0.46725 0.96520 0.69058 0.06300
H 	H 	0.50826 0.97914 0.64375 0.07900
H 	H 	0.50186 0.02233 0.67351 0.07200
H 	H 	0.63929 0.97874 0.81939 0.06600
H 	H 	0.62848 0.01595 0.85592 0.06800
H 	H 	0.67021 0.03764 0.80946 0.06200
C 	C 	0.30220 0.77701 0.86595 -0.04300
C 	C 	0.28201 0.77034 0.91153 -0.08600
C 	C 	0.30714 0.79955 0.94976 0.06900
C 	C 	0.35375 0.82670 0.94461 -0.03400
C 	C 	0.37509 0.82573 0.90193 -0.09400
C 	C 	0.34865 0.80448 0.86079 0.07700
C 	C 	0.36977 0.80874 0.81205 -0.19000
H 	H 	0.28214 0.75889 0.83494 0.04200
H 	H 	0.37383 0.84600 0.97511 0.04600
C 	C 	0.28522 0.80272 0.99549 -0.16600
H 	H 	0.34412 0.79490 0.78297 0.06000
H 	H 	0.38847 0.79024 0.81174 0.05900
H 	H 	0.39276 0.84441 0.80344 0.07300
H 	H 	0.27986 0.77539 0.02042 0.06700
H 	H 	0.25291 0.80127 0.98765 0.07100
H 	H 	0.30669 0.83493 0.01422 0.05300
C 	C 	0.17239 0.82010 0.36460 -0.04100
C 	C 	0.20314 0.85525 0.33568 -0.08900
C 	C 	0.18768 0.87051 0.29696 0.08300
C 	C 	0.14140 0.85114 0.28876 -0.03800
C 	C 	0.11046 0.81705 0.31878 -0.08900
C 	C 	0.12607 0.80101 0.35678 0.08200
C 	C 	0.09368 0.76445 0.38967 -0.19700
H 	H 	0.18455 0.80826 0.39400 0.04000
H 	H 	0.12933 0.86372 0.26000 0.05000
C 	C 	0.22006 0.90936 0.26643 -0.19600
H 	H 	0.11129 0.75744 0.41905 0.06600
H 	H 	0.07392 0.73322 0.36874 0.07800
H 	H 	0.07079 0.77436 0.40675 0.08200
H 	H 	0.24800 0.90449 0.25404 0.08000
H 	H 	0.23378 0.94061 0.28779 0.07300
H 	H 	0.20342 0.91312 0.23382 0.06900
C 	C 	0.46377 0.95550 0.47487 -0.04000
C 	C 	0.43281 0.95855 0.50508 -0.09000
C 	C 	0.44808 0.98862 0.54428 0.08300
C 	C 	0.49417 0.01792 0.55012 -0.04000
C 	C 	0.52510 0.01656 0.51836 -0.09700
C 	C 	0.50998 0.98430 0.48124 0.08500
C 	C 	0.54280 0.98131 0.44761 -0.19500
H 	H 	0.45183 0.93156 0.44551 0.04900
H 	H 	0.50600 0.04252 0.57883 0.05000
C 	C 	0.41542 0.98993 0.57952 -0.19000
H 	H 	0.52550 0.95476 0.42007 0.07100
H 	H 	0.56560 0.97344 0.46842 0.07900
H 	H 	0.56288 0.01347 0.42844 0.07700
H 	H 	0.39368 0.95621 0.59483 0.07300
H 	H 	0.39429 0.00136 0.56107 0.07900
H 	H 	0.43293 0.01299 0.61004 0.06400
C 	C 	0.26667 0.69062 0.39793 -0.04500
C 	C 	0.24100 0.71090 0.40676 -0.08900
C 	C 	0.19390 0.68459 0.41073 0.08300
C 	C 	0.17352 0.63794 0.40810 -0.03800
C 	C 	0.19958 0.61760 0.40134 -0.09400
C 	C 	0.24644 0.64419 0.39485 0.08200
C 	C 	0.27507 0.62329 0.38521 -0.19700
H 	H 	0.30252 0.71104 0.39341 0.04000
H 	H 	0.13750 0.61743 0.41216 0.04400
C 	C 	0.16534 0.70610 0.41681 -0.19800
H 	H 	0.31004 0.64873 0.37589 0.06800
H 	H 	0.26122 0.59987 0.35430 0.07300
H 	H 	0.27634 0.60539 0.41783 0.08900
H 	H 	0.16908 0.72696 0.38482 0.07900
H 	H 	0.17570 0.72732 0.44965 0.08100
H 	H 	0.12925 0.68089 0.42051 0.06700
C 	C 	0.24210 0.90277 0.64151 -0.03400
C 	C 	0.21531 0.92217 0.63318 -0.09400
C 	C 	0.19721 0.91955 0.58657 0.07900
C 	C 	0.21018 0.90184 0.54843 -0.03900
C 	C 	0.24215 0.88844 0.55560 -0.08300
C 	C 	0.25615 0.88632 0.60305 0.07400
C 	C 	0.28675 0.86768 0.61289 -0.19600
H 	H 	0.25403 0.90270 0.67772 0.04400
H 	H 	0.19697 0.90044 0.51254 0.05200
C 	C 	0.16525 0.93666 0.57681 -0.19100
H 	H 	0.29445 0.86857 0.65193 0.06500
H 	H 	0.31895 0.88764 0.59374 0.07500
H 	H 	0.27060 0.83237 0.60100 0.07300
H 	H 	0.18144 0.97274 0.58562 0.06300
H 	H 	0.13432 0.91765 0.59853 0.07300
H 	H 	0.15501 0.93270 0.53829 0.06500
C 	C 	0.18312 0.86417 0.86964 -0.03300
C 	C 	0.16396 0.87466 0.83099 -0.09300
C 	C 	0.12965 0.83997 0.80329 0.08600
C 	C 	0.11520 0.79543 0.81518 -0.04000
C 	C 	0.13707 0.78517 0.85121 -0.08500
C 	C 	0.17122 0.81984 0.87896 0.07400
C 	C 	0.19836 0.81037 0.91468 -0.19800
H 	H 	0.20966 0.89084 0.89048 0.04600
H 	H 	0.08840 0.76872 0.79465 0.05100
C 	C 	0.10666 0.84989 0.76280 -0.20600
H 	H 	0.21823 0.83942 0.93872 0.06600
H 	H 	0.22189 0.80301 0.89493 0.07600
H 	H 	0.17632 0.78183 0.93795 0.07000
H 	H 	0.13075 0.87916 0.74144 0.09100
H 	H 	0.08027 0.85580 0.77796 0.08700
H 	H 	0.09042 0.82135 0.73732 0.07300
C 	C 	0.09301 0.08434 0.79373 -0.04100
C 	C 	0.11135 0.07575 0.75274 -0.08500
C 	C 	0.09978 0.08453 0.70625 0.07700
C 	C 	0.07507 0.10676 0.70247 -0.03900
C 	C 	0.05746 0.11589 0.74362 -0.08600
C 	C 	0.06377 0.10138 0.78932 0.08100
C 	C 	0.03877 0.10280 0.83331 -0.20000
H 	H 	0.10064 0.07678 0.82926 0.05000
H 	H 	0.06933 0.11668 0.66729 0.04900
C 	C 	0.11256 0.06978 0.66065 -0.19200
H 	H 	0.03851 0.08023 0.86198 0.06900
H 	H 	0.00329 0.09137 0.82427 0.08200
H 	H 	0.05510 0.13715 0.84824 0.07200
H 	H 	0.10504 0.03475 0.66377 0.06500
H 	H 	0.14867 0.09217 0.65289 0.07200
H 	H 	0.09320 0.07101 0.62916 0.06500
C 	C 	0.51886 0.02606 0.03582 -0.03300
C 	C 	0.49323 0.03426 0.00226 -0.10400
C 	C 	0.48285 0.01238 0.95707 0.09200
C 	C 	0.49629 0.98089 0.94731 -0.04400
C 	C 	0.51943 0.97072 0.98209 -0.07700
C 	C 	0.53192 0.99428 0.02620 0.06800
C 	C 	0.55724 0.98416 0.06394 -0.18700
H 	H 	0.52705 0.04314 0.07032 0.04400
H 	H 	0.48736 0.96312 0.91322 0.05200
C 	C 	0.45629 0.02136 0.91983 -0.20000
H 	H 	0.56595 0.00666 0.09564 0.06000
H 	H 	0.58898 0.98856 0.04859 0.07700
H 	H 	0.53645 0.94928 0.07671 0.07000
H 	H 	0.47529 0.05680 0.90840 0.08100
H 	H 	0.42347 0.01405 0.93498 0.08200
H 	H 	0.44959 0.00030 0.88719 0.06900
C 	C 	0.32417 0.10248 0.96679 -0.02900
C 	C 	0.36766 0.11795 0.94920 -0.09400
C 	C 	0.37515 0.12278 0.89893 0.08400
C 	C 	0.33830 0.10549 0.86729 -0.04600
C 	C 	0.29432 0.08260 0.88518 -0.08500
C 	C 	0.28721 0.08434 0.93521 0.07700
C 	C 	0.24054 0.06500 0.95543 -0.19300
H 	H 	0.31874 0.10123 0.00540 0.03500
H 	H 	0.34381 0.10636 0.82873 0.04400
C 	C 	0.42196 0.14337 0.87879 -0.19700
H 	H 	0.24115 0.07157 0.99472 0.07000
H 	H 	0.22170 0.02831 0.94991 0.07700
H 	H 	0.22269 0.08040 0.93751 0.07900
H 	H 	0.43671 0.12198 0.88729 0.07500
H 	H 	0.44326 0.17710 0.89443 0.07700
H 	H 	0.42219 0.14718 0.83899 0.06600
C 	C 	0.39828 0.03766 0.24641 -0.03500
C 	C 	0.42546 0.03210 0.21296 -0.09900
C 	C 	0.43757 0.99917 0.22070 0.08100
C 	C 	0.42016 0.97059 0.26077 -0.04200
C 	C 	0.39018 0.97408 0.29265 -0.08100
C 	C 	0.37875 0.00780 0.28478 0.07200
C 	C 	0.34427 0.01100 0.31541 -0.19900
H 	H 	0.38993 0.06370 0.24072 0.04300
H 	H 	0.42966 0.94545 0.26685 0.05100
C 	C 	0.46770 0.99339 0.18557 -0.19500
H 	H 	0.33438 0.03440 0.29970 0.06300
H 	H 	0.35793 0.02338 0.35199 0.07200
H 	H 	0.31346 0.97805 0.31757 0.07900
H 	H 	0.49862 0.02587 0.17931 0.07400
H 	H 	0.44990 0.98048 0.15073 0.07500
H 	H 	0.47797 0.96961 0.19928 0.06500
C 	C 	0.68771 0.22063 0.10983 -0.04300
C 	C 	0.70532 0.25482 0.07529 -0.09100
C 	C 	0.67599 0.26396 0.04815 0.08400
C 	C 	0.62958 0.23859 0.05587 -0.04600
C 	C 	0.61203 0.20443 0.09030 -0.09800
C 	C 	0.64117 0.19499 0.11719 0.07900
C 	C 	0.62286 0.15772 0.15365 -0.19600
H 	H 	0.71027 0.21454 0.13165 0.03900
H 	H 	0.60702 0.24547 0.03503 0.03800
C 	C 	0.69398 0.30110 0.01149 -0.22500
H 	H 	0.64994 0.15393 0.17091 0.06600
H 	H 	0.59942 0.12564 0.13576 0.07300
H 	H 	0.60476 0.16467 0.18241 0.07500
H 	H 	0.71173 0.29403 0.98246 0.08700
H 	H 	0.71746 0.33330 0.02903 0.08700
H 	H 	0.66675 0.30484 0.99454 0.07900
C 	C 	0.34554 0.16903 0.10869 -0.03900
C 	C 	0.34624 0.13978 0.14326 -0.09100
C 	C 	0.32017 0.13025 0.18549 0.07900
C 	C 	0.29322 0.14970 0.19200 -0.03800
C 	C 	0.29108 0.17741 0.15646 -0.09300
C 	C 	0.31822 0.18810 0.11504 0.07900
C 	C 	0.31683 0.21836 0.07676 -0.19500
H 	H 	0.36582 0.17640 0.07645 0.04000
H 	H 	0.27250 0.14192 0.22395 0.04000
C 	C 	0.32055 0.09908 0.22334 -0.19300
H 	H 	0.34215 0.22571 0.04816 0.06500
H 	H 	0.32398 0.25058 0.09308 0.07600
H 	H 	0.28318 0.20229 0.05959 0.07400
H 	H 	0.35357 0.11501 0.24185 0.07400
H 	H 	0.31417 0.06726 0.20658 0.07500
H 	H 	0.29423 0.09080 0.25099 0.06200
C 	C 	0.13121 0.28036 0.33141 -0.03700
C 	C 	0.17408 0.29264 0.31331 -0.08800
C 	C 	0.20288 0.33764 0.29928 0.08000
C 	C 	0.18644 0.36742 0.29873 -0.04200
C 	C 	0.14521 0.35629 0.32019 -0.08600
C 	C 	0.11633 0.31150 0.33472 0.07600
C 	C 	0.06905 0.29576 0.35134 -0.19500
H 	H 	0.10900 0.24621 0.34247 0.05200
H 	H 	0.20742 0.40070 0.28447 0.04800
C 	C 	0.25178 0.35535 0.28803 -0.19100
H 	H 	0.05018 0.25913 0.35735 0.06700
H 	H 	0.05040 0.30316 0.32357 0.07500
H 	H 	0.06954 0.31184 0.38601 0.07700
H 	H 	0.25518 0.34124 0.25353 0.06800
H 	H 	0.26832 0.34757 0.31788 0.07400
H 	H 	0.27020 0.39223 0.28405 0.06100
C 	C 	0.12203 0.01486 0.19055 -0.04300
C 	C 	0.14218 0.03845 0.23309 -0.08300
C 	C 	0.14790 0.01518 0.27199 0.07400
C 	C 	0.12251 0.96836 0.27286 -0.03400
C 	C 	0.09508 0.94484 0.23357 -0.09100
C 	C 	0.09755 0.96812 0.19063 0.08400
C 	C 	0.07261 0.94367 0.14568 -0.19500
H 	H 	0.12257 0.03287 0.15833 0.04400
H 	H 	0.12340 0.95032 0.30444 0.04500
C 	C 	0.18264 0.03927 0.31059 -0.18900
H 	H 	0.07822 0.96700 0.11549 0.06400
H 	H 	0.03601 0.92460 0.15276 0.07000
H 	H 	0.08444 0.92068 0.13360 0.07200
H 	H 	0.16793 0.04933 0.34028 0.07700
H 	H 	0.21238 0.06910 0.29558 0.07400
H 	H 	0.19466 0.01736 0.32583 0.06200
C 	C 	0.01504 0.13821 0.27919 0.00600
C 	C 	0.03515 0.13087 0.23893 -0.11200
C 	C 	0.96122 0.07857 0.20717 -0.08100
C 	C 	0.94123 0.08442 0.24836 -0.07900
C 	C 	0.96819 0.11556 0.28403 0.03500
C 	C 	0.94751 0.12354 0.32812 -0.17600
H 	H 	0.03596 0.16073 0.30742 0.03600
H 	H 	0.94029 0.05540 0.17940 0.04100
C 	C 	0.02851 0.09328 0.15798 -0.21300
H 	H 	0.97184 0.15457 0.34718 0.05000
H 	H 	0.93652 0.09512 0.35342 0.06600
H 	H 	0.91831 0.12726 0.31804 0.06800
H 	H 	0.05040 0.07965 0.16871 0.07800
H 	H 	0.04835 0.12487 0.13777 0.07200
H 	H 	0.00254 0.06886 0.13306 0.07300
C 	C 	0.32680 0.13403 0.64265 -0.03600
C 	C 	0.30379 0.12413 0.68639 -0.09200
C 	C 	0.30580 0.15878 0.71519 0.07700
C 	C 	0.32903 0.20276 0.69827 -0.03700
C 	C 	0.35150 0.21263 0.65404 -0.08900
C 	C 	0.35142 0.17809 0.62649 0.07500
C 	C 	0.38195 0.18812 0.58379 -0.19800
H 	H 	0.32626 0.10737 0.62149 0.04600
H 	H 	0.32967 0.22940 0.71953 0.04800
C 	C 	0.28209 0.14894 0.76312 -0.20200
H 	H 	0.36808 0.15940 0.55846 0.06400
H 	H 	0.41498 0.19389 0.59649 0.07900
H 	H 	0.38631 0.21736 0.56312 0.06800
H 	H 	0.29210 0.12915 0.78614 0.07700
H 	H 	0.24532 0.13013 0.75741 0.08000
H 	H 	0.29053 0.18002 0.78309 0.07100
C 	C 	0.37049 0.28876 0.39304 -0.03600
C 	C 	0.36424 0.26348 0.43463 -0.08600
C 	C 	0.32776 0.21951 0.43729 0.07300
C 	C 	0.29636 0.20255 0.39943 -0.03700
C 	C 	0.30057 0.22918 0.35934 -0.08700
C 	C 	0.33843 0.27280 0.35597 0.07600
C 	C 	0.34449 0.30303 0.31389 -0.19100
H 	H 	0.39909 0.32224 0.39088 0.04300
H 	H 	0.26827 0.16880 0.40149 0.04500
C 	C 	0.32275 0.19034 0.47977 -0.19600
H 	H 	0.37225 0.33759 0.32039 0.06100
H 	H 	0.31377 0.30519 0.30796 0.05900
H 	H 	0.35282 0.29052 0.28088 0.06800
H 	H 	0.31913 0.20561 0.51346 0.07500
H 	H 	0.35278 0.18639 0.48230 0.06600
H 	H 	0.29284 0.15658 0.47622 0.06500
C 	C 	0.62887 0.38495 0.58952 -0.03400
C 	C 	0.60930 0.40973 0.57302 -0.09600
C 	C 	0.63700 0.45265 0.55313 0.07700
C 	C 	0.68354 0.46940 0.54971 -0.04100
C 	C 	0.70330 0.44599 0.56993 -0.08400
C 	C 	0.67552 0.40369 0.59119 0.06900
C 	C 	0.69452 0.37963 0.61951 -0.19500
H 	H 	0.60774 0.35179 0.60403 0.04800
H 	H 	0.70477 0.50202 0.53401 0.04600
C 	C 	0.61780 0.48152 0.53750 -0.19400
H 	H 	0.67934 0.34463 0.60664 0.06900
H 	H 	0.68613 0.37918 0.65821 0.06800
H 	H 	0.73121 0.39499 0.61675 0.07300
H 	H 	0.59775 0.48442 0.56712 0.07600
H 	H 	0.59647 0.46702 0.50502 0.07900
H 	H 	0.64459 0.51585 0.52833 0.06500
C 	C 	0.52987 0.18692 0.53862 -0.03500
C 	C 	0.55723 0.19045 0.57792 -0.09700
C 	C 	0.56396 0.22060 0.61582 0.07900
C 	C 	0.54558 0.24851 0.61215 -0.04000
C 	C 	0.51947 0.24597 0.57225 -0.08900
C 	C 	0.51044 0.21417 0.53573 0.07200
C 	C 	0.48148 0.21017 0.49296 -0.19200
H 	H 	0.52476 0.16380 0.50962 0.04300
H 	H 	0.55167 0.27249 0.64052 0.04200
C 	C 	0.59118 0.22372 0.65993 -0.19600
H 	H 	0.47255 0.17976 0.47141 0.06500
H 	H 	0.49973 0.23969 0.46925 0.07400
H 	H 	0.44969 0.20797 0.50504 0.06800
H 	H 	0.62601 0.23374 0.64955 0.06100
H 	H 	0.57559 0.19119 0.67895 0.06800
H 	H 	0.59296 0.24900 0.68595 0.06300
C 	C 	0.43653 0.39650 0.74863 -0.03400
C 	C 	0.43212 0.41062 0.70270 -0.09300
C 	C 	0.41885 0.44297 0.69786 0.07700
C 	C 	0.40403 0.45595 0.73864 -0.03700
C 	C 	0.40281 0.43719 0.78396 -0.09300
C 	C 	0.42234 0.40977 0.78951 0.07800
C 	C 	0.42444 0.39111 0.83799 -0.19800
H 	H 	0.44840 0.37288 0.75229 0.03800
H 	H 	0.39071 0.47835 0.73453 0.04100
C 	C 	0.41821 0.46191 0.64909 -0.19600
H 	H 	0.45344 0.38537 0.83974 0.06500
H 	H 	0.39324 0.35883 0.84391 0.07300
H 	H 	0.42863 0.41430 0.86763 0.07700
H 	H 	0.38891 0.43696 0.62804 0.07700
H 	H 	0.44944 0.47066 0.62906 0.07800
H 	H 	0.41595 0.49275 0.65246 0.06600
C 	C 	0.27904 0.37004 0.08696 -0.03600
C 	C 	0.25230 0.36722 0.04759 -0.08700
C 	C 	0.20742 0.33227 0.04529 0.07700
C 	C 	0.19136 0.29831 0.08026 -0.03700
C 	C 	0.21979 0.29867 0.11694 -0.09200
C 	C 	0.26446 0.33487 0.11998 0.07200
C 	C 	0.29897 0.33262 0.15181 -0.18400
H 	H 	0.31331 0.39746 0.08881 0.04400
H 	H 	0.15711 0.27097 0.07814 0.04400
C 	C 	0.17750 0.32948 0.00408 -0.21900
H 	H 	0.28717 0.32313 0.18924 0.03700
H 	H 	0.33018 0.36554 0.15407 0.05900
H 	H 	0.30793 0.30855 0.13628 0.07000
H 	H 	0.18671 0.31760 0.97117 0.08400
H 	H 	0.18115 0.36274 0.99691 0.08100
H 	H 	0.14165 0.30612 0.01226 0.06700
C 	C 	0.16756 0.34618 0.86721 -0.03800
C 	C 	0.19866 0.34611 0.83471 -0.09300
C 	C 	0.18392 0.32296 0.79054 0.08100
C 	C 	0.13817 0.30099 0.77913 -0.04000
C 	C 	0.10706 0.30102 0.81162 -0.09000
C 	C 	0.12176 0.32400 0.85593 0.07900
C 	C 	0.08886 0.32461 0.89141 -0.19500
H 	H 	0.17921 0.36444 0.90084 0.03700
H 	H 	0.12661 0.28334 0.74513 0.04000
C 	C 	0.21681 0.32223 0.75516 -0.19600
H 	H 	0.10620 0.34954 0.92050 0.06300
H 	H 	0.06918 0.29127 0.90835 0.07700
H 	H 	0.06570 0.33350 0.87296 0.08200
H 	H 	0.24003 0.31355 0.77381 0.08100
H 	H 	0.23641 0.35548 0.73799 0.07900
H 	H 	0.19947 0.29708 0.72628 0.06800
C 	C 	0.37090 0.62947 0.90499 -0.03900
C 	C 	0.39689 0.60872 0.90136 -0.09600
C 	C 	0.44414 0.63467 0.90460 0.08000
C 	C 	0.46452 0.68096 0.91166 -0.04100
C 	C 	0.43858 0.70176 0.91401 -0.08800
C 	C 	0.39126 0.67571 0.91205 0.08000
C 	C 	0.36236 0.69705 0.91666 -0.19700
H 	H 	0.33468 0.60948 0.90310 0.04900
H 	H 	0.50076 0.70103 0.91362 0.04200
C 	C 	0.47295 0.61343 0.90004 -0.19800
H 	H 	0.32683 0.67180 0.92394 0.07400
H 	H 	0.36349 0.71456 0.88269 0.08200
H 	H 	0.37414 0.72119 0.94705 0.08700
H 	H 	0.46316 0.59200 0.86739 0.07300
H 	H 	0.46899 0.59326 0.93269 0.08000
H 	H 	0.50901 0.63877 0.89645 0.06500
C 	C 	0.16976 0.53297 0.93479 -0.03700
C 	C 	0.18392 0.56880 0.90262 -0.09200
C 	C 	0.21798 0.57743 0.86878 0.07900
C 	C 	0.23925 0.55190 0.86986 -0.04000
C 	C 	0.22734 0.51828 0.90427 -0.08600
C 	C 	0.19106 0.50726 0.93558 0.07600
C 	C 	0.17573 0.46903 0.97054 -0.19400
H 	H 	0.14324 0.52608 0.96031 0.04500
H 	H 	0.26650 0.55945 0.84512 0.04400
C 	C 	0.23453 0.61623 0.83435 -0.19500
H 	H 	0.14343 0.46095 0.98778 0.06800
H 	H 	0.20133 0.47784 0.99926 0.07700
H 	H 	0.17071 0.43861 0.95144 0.06800
H 	H 	0.25366 0.64799 0.85455 0.07800
H 	H 	0.20602 0.61580 0.81510 0.06200
H 	H 	0.25703 0.61492 0.80652 0.06300
C 	C 	0.62256 0.80659 0.87077 -0.04100
C 	C 	0.62115 0.83427 0.83469 -0.09000
C 	C 	0.65220 0.84854 0.79641 0.07900
C 	C 	0.68531 0.83614 0.79579 -0.03900
C 	C 	0.68752 0.80946 0.83256 -0.09100
C 	C 	0.65584 0.79436 0.87031 0.07800
C 	C 	0.65802 0.76623 0.91063 -0.19500
H 	H 	0.59838 0.79548 0.89990 0.04000
H 	H 	0.70977 0.84768 0.76692 0.03900
C 	C 	0.65085 0.87781 0.75688 -0.19400
H 	H 	0.63209 0.75892 0.93848 0.06400
H 	H 	0.69131 0.78403 0.92857 0.07200
H 	H 	0.65248 0.73396 0.89606 0.07500
H 	H 	0.66144 0.91155 0.77146 0.07500
H 	H 	0.61639 0.86316 0.74197 0.07800
H 	H 	0.67355 0.88136 0.72666 0.06600
C 	C 	0.78498 0.64989 0.66821 -0.03500
C 	C 	0.81065 0.68595 0.69913 -0.09000
C 	C 	0.84982 0.68993 0.72078 0.07800
C 	C 	0.86471 0.66020 0.70778 -0.04000
C 	C 	0.83992 0.62505 0.67561 -0.08200
C 	C 	0.79941 0.61951 0.65598 0.07200
C 	C 	0.77123 0.58117 0.62255 -0.19700
H 	H 	0.75447 0.64623 0.65242 0.04700
H 	H 	0.89580 0.66458 0.72269 0.04200
C 	C 	0.87702 0.72679 0.75616 -0.19900
H 	H 	0.74420 0.58501 0.60522 0.06900
H 	H 	0.75529 0.54960 0.64335 0.08500
H 	H 	0.79213 0.57918 0.59328 0.07200
H 	H 	0.85505 0.73340 0.77982 0.08700
H 	H 	0.90011 0.75754 0.73619 0.08000
H 	H 	0.89725 0.71774 0.77999 0.06500
C 	C 	0.83061 0.97032 0.74135 -0.03900
C 	C 	0.85648 0.95030 0.73100 -0.08900
C 	C 	0.90269 0.97752 0.72094 0.08000
C 	C 	0.92319 0.02386 0.72692 -0.04500
C 	C 	0.89789 0.04376 0.73990 -0.09800
C 	C 	0.85097 0.01703 0.74573 0.07600
C 	C 	0.82249 0.03802 0.75568 -0.19600
H 	H 	0.79499 0.94951 0.74800 0.03800
H 	H 	0.95902 0.04449 0.72161 0.03900
C 	C 	0.93083 0.95719 0.70647 -0.19600
H 	H 	0.78758 0.01261 0.76523 0.06200
H 	H 	0.82130 0.05593 0.72302 0.07600
H 	H 	0.83655 0.06185 0.78627 0.07300
H 	H 	0.91283 0.93043 0.67935 0.07700
H 	H 	0.93861 0.94329 0.73874 0.08400
H 	H 	0.96298 0.98240 0.68996 0.06400
C 	C 	0.97084 0.85662 0.72276 -0.08500
C 	C 	0.94817 0.86075 0.76268 -0.07300
C 	C 	0.97280 0.89161 0.79969 0.03300
C 	C 	0.04127 0.91690 0.75347 -0.12600
C 	C 	0.04040 0.88070 0.67331 -0.21300
H 	H 	0.95191 0.83308 0.69436 0.04700
H 	H 	0.03805 0.94364 0.82245 0.03000
C 	C 	0.94983 0.89598 0.84396 -0.17700
H 	H 	0.07165 0.88062 0.68305 0.08000
H 	H 	0.04864 0.90921 0.64892 0.08000
H 	H 	0.93319 0.86391 0.86389 0.06400
H 	H 	0.92474 0.90573 0.83356 0.05800
H 	H 	0.97401 0.92188 0.86907 0.05200
C 	C 	0.83456 0.69542 0.20971 -0.04100
C 	C 	0.86557 0.69060 0.18130 -0.09100
C 	C 	0.85050 0.65456 0.14868 0.07700
C 	C 	0.80448 0.62392 0.14502 -0.03800
C 	C 	0.77341 0.62917 0.17286 -0.09000
C 	C 	0.78854 0.66473 0.20612 0.07900
C 	C 	0.75591 0.67035 0.23752 -0.19500
H 	H 	0.84635 0.72314 0.23475 0.03900
H 	H 	0.79271 0.59602 0.12022 0.04000
C 	C 	0.88324 0.64825 0.11823 -0.19100
H 	H 	0.77346 0.69565 0.26620 0.06600
H 	H 	0.73259 0.63840 0.25556 0.08000
H 	H 	0.73640 0.68136 0.21517 0.07700
H 	H 	0.90320 0.63850 0.14154 0.07100
H 	H 	0.90613 0.67959 0.09889 0.07300
H 	H 	0.86579 0.62173 0.09068 0.06100
C 	C 	0.73422 0.70434 0.92821 -0.03200
C 	C 	0.76571 0.70341 0.89700 -0.10000
C 	C 	0.77730 0.66971 0.90208 0.08200
C 	C 	0.75615 0.63674 0.93769 -0.04600
C 	C 	0.72413 0.63737 0.96849 -0.07000
C 	C 	0.71252 0.67109 0.96314 0.06600
C 	C 	0.67494 0.67010 0.99211 -0.17800
H 	H 	0.72544 0.73023 0.92415 0.04700
H 	H 	0.76484 0.61075 0.94163 0.04800
C 	C 	0.81188 0.66858 0.86966 -0.19700
H 	H 	0.66945 0.69823 0.98257 0.06000
H 	H 	0.68278 0.67284 0.03119 0.05300
H 	H 	0.64325 0.63870 0.98463 0.07600
H 	H 	0.84243 0.70203 0.86818 0.07100
H 	H 	0.79792 0.65823 0.83276 0.07900
H 	H 	0.82214 0.64468 0.88297 0.06500
C 	C 	0.52743 0.52954 0.97201 -0.01900
C 	C 	0.53482 0.52097 0.01949 -0.11200
C 	C 	0.49797 0.49677 0.05059 0.08700
C 	C 	0.45440 0.48136 0.03343 -0.05600
C 	C 	0.44687 0.48718 0.98505 -0.07800
C 	C 	0.48375 0.51202 0.95404 0.06700
C 	C 	0.47723 0.51668 0.90098 -0.19400
H 	H 	0.55577 0.54756 0.94807 0.04000
H 	H 	0.42610 0.46327 0.05740 0.04800
C 	C 	0.50480 0.48881 0.10257 -0.20700
H 	H 	0.50511 0.54851 0.88689 0.06400
H 	H 	0.44562 0.51678 0.89354 0.08400
H 	H 	0.47721 0.48901 0.88088 0.07400
H 	H 	0.51523 0.51976 0.12359 0.08500
H 	H 	0.53027 0.47824 0.10599 0.08900
H 	H 	0.47337 0.46187 0.11864 0.06900
C 	C 	0.75894 0.40532 0.10402 -0.04400
C 	C 	0.80268 0.43150 0.08711 -0.09600
C 	C 	0.81764 0.47570 0.07211 0.07400
C 	C 	0.78723 0.49173 0.07125 -0.03900
C 	C 	0.74209 0.46343 0.08352 -0.09100
C 	C 	0.72744 0.41881 0.09703 0.08300
C 	C 	0.67827 0.38493 0.10232 -0.19700
H 	H 	0.74816 0.37224 0.11781 0.04900
H 	H 	0.79862 0.52603 0.06116 0.04000
C 	C 	0.86556 0.50549 0.05677 -0.19400
H 	H 	0.67209 0.35043 0.09723 0.06800
H 	H 	0.65792 0.39015 0.07473 0.08800
H 	H 	0.66678 0.38723 0.13900 0.07700
H 	H 	0.87178 0.49336 0.02216 0.07100
H 	H 	0.88865 0.50536 0.08473 0.06900
H 	H 	0.87340 0.54053 0.05181 0.06000
C 	C 	0.56629 0.35335 0.13192 -0.03500
C 	C 	0.55623 0.37649 0.09725 -0.09600
C 	C 	0.52613 0.35257 0.05945 0.08000
C 	C 	0.51026 0.30657 0.05421 -0.04300
C 	C 	0.52335 0.28416 0.08681 -0.08500
C 	C 	0.55204 0.30790 0.12577 0.07200
C 	C 	0.57031 0.28593 0.15859 -0.19200
H 	H 	0.58858 0.37162 0.16152 0.03500
H 	H 	0.48760 0.28824 0.02488 0.04000
C 	C 	0.51221 0.37621 0.02362 -0.20800
H 	H 	0.59435 0.30978 0.18538 0.06200
H 	H 	0.58848 0.27299 0.13694 0.08000
H 	H 	0.54266 0.25825 0.17882 0.06900
H 	H 	0.53899 0.39331 0.99631 0.08400
H 	H 	0.50620 0.40125 0.04214 0.07800
H 	H 	0.48068 0.35240 0.00484 0.06600
C 	C 	0.56301 0.54071 0.26306 -0.03700
C 	C 	0.58416 0.56674 0.22220 -0.09600
C 	C 	0.59001 0.61029 0.21858 0.07500
C 	C 	0.57695 0.62761 0.25700 -0.03600
C 	C 	0.55863 0.60264 0.29895 -0.09300
C 	C 	0.55011 0.55834 0.30149 0.07600
C 	C 	0.52786 0.53004 0.34522 -0.19800
H 	H 	0.55735 0.50698 0.26533 0.04400
H 	H 	0.58229 0.66124 0.25487 0.04500
C 	C 	0.61050 0.63870 0.17435 -0.19100
H 	H 	0.52259 0.49578 0.34124 0.06500
H 	H 	0.49459 0.52722 0.35064 0.07500
H 	H 	0.54902 0.54540 0.37765 0.08000
H 	H 	0.58812 0.62335 0.14276 0.06400
H 	H 	0.64394 0.64263 0.16708 0.05300
H 	H 	0.61530 0.67273 0.17901 0.06200
C 	C 	0.66389 0.78198 0.56396 -0.03800
C 	C 	0.62017 0.74603 0.56967 -0.08800
C 	C 	0.60628 0.72607 0.61555 0.08000
C 	C 	0.63817 0.73707 0.65233 -0.04200
C 	C 	0.68342 0.76898 0.64451 -0.08200
C 	C 	0.69519 0.79491 0.60188 0.07500
C 	C 	0.74036 0.83635 0.59657 -0.19300
H 	H 	0.67406 0.79885 0.52947 0.03900
H 	H 	0.62803 0.71932 0.68629 0.05100
C 	C 	0.55819 0.69100 0.62466 -0.19700
H 	H 	0.73865 0.85990 0.57056 0.06400
H 	H 	0.76514 0.82731 0.58306 0.07200
H 	H 	0.75195 0.85419 0.63154 0.07400
H 	H 	0.54982 0.66026 0.60416 0.07400
H 	H 	0.53540 0.70353 0.61373 0.07100
H 	H 	0.55204 0.68213 0.66348 0.06500
C 	C 	0.64040 0.80605 0.30129 -0.03600
C 	C 	0.62175 0.79664 0.34753 -0.09000
C 	C 	0.62740 0.83169 0.37821 0.07700
C 	C 	0.65406 0.87590 0.36310 -0.03600
C 	C 	0.67429 0.88537 0.31764 -0.09100
C 	C 	0.66725 0.85026 0.28622 0.07600
C 	C 	0.69023 0.85976 0.23784 -0.19800
H 	H 	0.63556 0.77891 0.27779 0.04500
H 	H 	0.65943 0.90303 0.38690 0.04500
C 	C 	0.60610 0.82216 0.42750 -0.19800
H 	H 	0.68209 0.82857 0.21827 0.06700
H 	H 	0.72712 0.87917 0.24274 0.07600
H 	H 	0.67937 0.87889 0.21488 0.07300
H 	H 	0.62379 0.81062 0.45203 0.07600
H 	H 	0.57021 0.79615 0.42509 0.07700
H 	H 	0.60769 0.85234 0.44359 0.06800
C 	C 	0.51194 0.48938 0.53995 -0.04100
C 	C 	0.48039 0.45966 0.50686 -0.09700
C 	C 	0.46605 0.47594 0.46815 0.08100
C 	C 	0.48314 0.52189 0.46362 -0.03800
C 	C 	0.51519 0.55164 0.49628 -0.09700
C 	C 	0.52997 0.53542 0.53463 0.07900
C 	C 	0.56444 0.56699 0.57020 -0.19600
H 	H 	0.52160 0.47649 0.57056 0.04500
H 	H 	0.47193 0.53469 0.43428 0.04900
C 	C 	0.43220 0.44442 0.43204 -0.19500
H 	H 	0.57405 0.54904 0.59659 0.06500
H 	H 	0.55068 0.58514 0.59052 0.07600
H 	H 	0.59528 0.59138 0.55094 0.07600
H 	H 	0.40039 0.42122 0.45056 0.07800
H 	H 	0.44551 0.42491 0.41366 0.07600
H 	H 	0.42451 0.46255 0.40395 0.06400
C 	C 	0.39730 0.76385 0.38246 -0.04300
C 	C 	0.38689 0.77976 0.42430 -0.08900
C 	C 	0.39453 0.76604 0.47006 0.07500
C 	C 	0.42051 0.74501 0.47286 -0.04100
C 	C 	0.43281 0.73120 0.43081 -0.08900
C 	C 	0.41669 0.73664 0.38567 0.07600
C 	C 	0.41838 0.71240 0.34119 -0.19600
H 	H 	0.38871 0.77114 0.34731 0.04800
H 	H 	0.43037 0.73872 0.50782 0.04600
C 	C 	0.37330 0.77111 0.51541 -0.19100
H 	H 	0.39270 0.70881 0.31443 0.06200
H 	H 	0.41108 0.67820 0.35030 0.07000
H 	H 	0.45182 0.73128 0.32397 0.06900
H 	H 	0.33812 0.76262 0.50848 0.06200
H 	H 	0.39310 0.80573 0.52931 0.07400
H 	H 	0.37219 0.74812 0.54406 0.06200
C 	C 	0.35485 0.53594 0.40164 -0.03400
C 	C 	0.37639 0.57021 0.43569 -0.09500
C 	C 	0.35142 0.57362 0.47436 0.07400
C 	C 	0.30470 0.54563 0.47528 -0.04000
C 	C 	0.28266 0.51510 0.43790 -0.08500
C 	C 	0.30819 0.50749 0.40329 0.07100
C 	C 	0.28560 0.47114 0.36606 -0.19200
H 	H 	0.37424 0.53200 0.37324 0.04100
H 	H 	0.28512 0.55054 0.50268 0.04400
C 	C 	0.37339 0.61006 0.51161 -0.19200
H 	H 	0.30878 0.45983 0.35289 0.06200
H 	H 	0.27483 0.48379 0.33497 0.06900
H 	H 	0.25586 0.44165 0.38160 0.07300
H 	H 	0.38098 0.64239 0.49537 0.07400
H 	H 	0.40458 0.61213 0.52566 0.05700
H 	H 	0.35103 0.60375 0.54303 0.06300
