data_crystal

_cell_length_a 46.20973
_cell_length_b 46.38926
_cell_length_c 24.89398
_cell_angle_alpha 94.26745
_cell_angle_beta  93.79591
_cell_angle_gamma 90.07521

_symmetry_space_group_name_	'P 1'
_symmetry_space_group_name_H-M	'P 1'

loop_
_symmetry_equiv_pos_as_xyz
  x,y,z

loop_
_atom_site_label
_atom_site_type_symbol
_atom_site_fract_x
_atom_site_fract_y
_atom_site_fract_z
_atom_site_charge
C 	C 	0.00746 0.67068 0.85597 0.12200
N 	N 	0.00105 0.64422 0.87230 -0.14300
C 	C 	0.98537 0.62486 0.83859 0.12600
N 	N 	0.97880 0.63068 0.78663 -0.14400
C 	C 	0.98651 0.65644 0.76916 0.12500
N 	N 	0.99954 0.67694 0.80452 -0.14700
C 	C 	0.90893 0.66461 0.29203 0.12200
N 	N 	0.89243 0.64037 0.28063 -0.14500
C 	C 	0.88907 0.62174 0.31941 0.12500
N 	N 	0.90246 0.62726 0.36934 -0.14400
C 	C 	0.91965 0.65098 0.38033 0.12600
N 	N 	0.92285 0.66965 0.34166 -0.14500
Cd	Cd	0.87144 0.02926 0.88929 1.16500
C 	C 	0.83961 0.07002 0.80145 0.30200
O 	O 	0.83319 0.06952 0.74943 -0.30000
O 	O 	0.84175 0.04516 0.82142 -0.55200
O 	O 	0.82412 0.96302 0.34728 -0.45700
C 	C 	0.81968 0.98986 0.36405 0.30100
O 	O 	0.82264 0.99587 0.41612 -0.37200
Cd	Cd	0.89702 0.11754 0.21730 1.23900
Cd	Cd	0.91318 0.07506 0.32909 1.17800
O 	O 	0.87702 0.16565 0.23946 -0.33100
O 	O 	0.88918 0.15262 0.15737 -0.35700
C 	C 	0.87894 0.17266 0.19035 0.28100
O 	O 	0.92088 0.07875 0.18222 -0.37600
O 	O 	0.90952 0.04969 0.24863 -0.43500
C 	C 	0.92471 0.05464 0.20730 0.28600
C 	C 	0.94813 0.12997 0.28578 0.31000
O 	O 	0.87053 0.09553 0.29524 -0.44900
O 	O 	0.94880 0.14273 0.24087 -0.31200
O 	O 	0.92405 0.11673 0.29231 -0.53800
C 	C 	0.85197 0.08373 0.25835 0.29500
O 	O 	0.85416 0.09118 0.20924 -0.36100
Cd	Cd	0.94630 0.16649 0.02156 1.24100
Cd	Cd	0.95498 0.11971 0.90307 1.16600
O 	O 	0.93169 0.21605 0.00570 -0.33300
O 	O 	0.93361 0.20058 0.08717 -0.36000
C 	C 	0.92802 0.22172 0.05656 0.28200
O 	O 	0.95272 0.12237 0.05275 -0.37700
O 	O 	0.97610 0.10389 0.97934 -0.44800
C 	C 	0.96260 0.09996 0.02329 0.28200
C 	C 	0.89659 0.14280 0.96049 0.29400
O 	O 	0.97661 0.16317 0.93570 -0.45400
O 	O 	0.88941 0.15435 0.00715 -0.29700
O 	O 	0.92316 0.14707 0.94977 -0.55000
C 	C 	0.99982 0.16649 0.96813 0.29100
O 	O 	0.99586 0.17260 0.01917 -0.35900
C 	C 	0.88026 0.39442 0.91122 0.12000
N 	N 	0.87269 0.38700 0.85825 -0.14400
C 	C 	0.87103 0.40761 0.82213 0.12500
N 	N 	0.87800 0.43540 0.83879 -0.14400
C 	C 	0.88638 0.44277 0.89130 0.12500
N 	N 	0.88756 0.42223 0.92748 -0.14600
C 	C 	0.84584 0.36661 0.33107 0.12000
N 	N 	0.84435 0.39373 0.31378 -0.14700
C 	C 	0.84350 0.41704 0.35003 0.12400
N 	N 	0.84277 0.41316 0.40343 -0.14400
C 	C 	0.84241 0.38608 0.42063 0.12500
N 	N 	0.84458 0.36287 0.38456 -0.14500
Cd	Cd	0.09326 0.06766 0.77035 1.24000
Cd	Cd	0.07307 0.05566 0.90261 1.16000
O 	O 	0.14521 0.07356 0.75912 -0.33500
O 	O 	0.11365 0.07016 0.68905 -0.35600
C 	C 	0.14071 0.07295 0.70705 0.28100
O 	O 	0.04582 0.05676 0.75850 -0.38000
O 	O 	0.03551 0.06848 0.84650 -0.45000
C 	C 	0.02811 0.05597 0.79809 0.28100
C 	C 	0.10030 0.01213 0.81028 0.30300
O 	O 	0.09818 0.09257 0.86798 -0.45900
O 	O 	0.10273 0.01046 0.75813 -0.30700
O 	O 	0.09870 0.03792 0.83307 -0.55200
C 	C 	0.08681 0.11585 0.84982 0.29600
O 	O 	0.08231 0.11534 0.79728 -0.35700
Cd	Cd	0.07946 0.04752 0.43872 1.24100
Cd	Cd	0.04158 0.04697 0.30985 1.17200
O 	O 	0.12639 0.07282 0.45038 -0.33200
O 	O 	0.10786 0.05308 0.51780 -0.35500
C 	C 	0.12968 0.06671 0.50047 0.28200
O 	O 	0.03574 0.02995 0.45268 -0.37900
O 	O 	0.02389 0.01533 0.36394 -0.44300
C 	C 	0.01611 0.02165 0.41349 0.28000
C 	C 	0.04944 0.09764 0.40779 0.30600
O 	O 	0.05604 0.09970 0.45989 -0.29900
O 	O 	0.06056 0.07592 0.38109 -0.54500
C 	C 	0.32538 0.03926 0.81828 0.12000
N 	N 	0.35190 0.03092 0.80258 -0.14700
C 	C 	0.37268 0.02299 0.83966 0.12500
N 	N 	0.36784 0.02578 0.89298 -0.14500
C 	C 	0.34208 0.03600 0.90923 0.12500
N 	N 	0.32061 0.04193 0.87182 -0.14500
C 	C 	0.31661 0.02340 0.39183 0.12000
N 	N 	0.31558 0.03044 0.33962 -0.14500
C 	C 	0.33815 0.02390 0.30864 0.12500
N 	N 	0.36162 0.01013 0.32988 -0.14500
C 	C 	0.36239 0.00234 0.38140 0.12600
N 	N 	0.33958 0.00836 0.41196 -0.14600
C 	C 	0.33723 0.04003 0.96745 -0.05400
C 	C 	0.35799 0.05451 0.00441 0.10300
C 	C 	0.35593 0.05258 0.06005 -0.08800
C 	C 	0.33234 0.03845 0.07942 -0.00600
C 	C 	0.30969 0.02716 0.04264 0.07000
C 	C 	0.31273 0.02740 0.98685 -0.05600
N 	N 	0.37924 0.07107 0.98687 -0.20100
H 	H 	0.37268 0.06221 0.08838 0.05300
C 	C 	0.33247 0.03417 0.13797 -0.00700
N 	N 	0.28523 0.01588 0.06054 -0.19400
H 	H 	0.29628 0.01721 0.95855 0.04700
C 	C 	0.32707 0.05787 0.17425 -0.08700
C 	C 	0.32958 0.05530 0.23030 0.09800
C 	C 	0.33554 0.02790 0.25012 -0.05000
C 	C 	0.34001 0.00402 0.21365 -0.05400
C 	C 	0.33947 0.00704 0.15791 0.07000
H 	H 	0.32199 0.07867 0.15889 0.05200
N 	N 	0.32740 0.07934 0.26458 -0.19900
H 	H 	0.34458 0.98306 0.22883 0.04900
N 	N 	0.34607 0.98396 0.12398 -0.19400
H 	H 	0.32175 0.09917 0.24957 0.08200
H 	H 	0.33272 0.07901 0.30591 0.09000
H 	H 	0.35053 0.96388 0.13903 0.08200
H 	H 	0.34759 0.98578 0.08274 0.08900
H 	H 	0.26905 0.00676 0.03313 0.08200
H 	H 	0.28164 0.01680 0.10159 0.08700
H 	H 	0.37891 0.07633 0.94678 0.09100
H 	H 	0.39537 0.08042 0.01414 0.08400
C 	C 	0.27101 0.04776 0.50872 -0.07800
C 	C 	0.24297 0.04295 0.48474 -0.00900
C 	C 	0.23913 0.03181 0.43026 0.04200
C 	C 	0.26346 0.02441 0.40149 -0.05000
C 	C 	0.29158 0.02985 0.42486 -0.04400
C 	C 	0.29540 0.04230 0.47869 0.06500
C 	C 	0.21763 0.05186 0.51526 0.00800
C 	C 	0.20915 0.02799 0.40249 -0.18200
H 	H 	0.26051 0.01482 0.36041 0.04700
C 	C 	0.32518 0.05019 0.50411 -0.18900
H 	H 	0.27383 0.05654 0.55036 0.04500
C 	C 	0.19926 0.03089 0.53355 0.02700
C 	C 	0.16970 0.03713 0.53740 -0.01700
C 	C 	0.15913 0.06455 0.52614 -0.09800
C 	C 	0.17915 0.08723 0.52259 0.10000
C 	C 	0.20828 0.08057 0.51515 -0.09400
C 	C 	0.21048 0.00127 0.54426 -0.17300
H 	H 	0.15467 0.02005 0.54440 0.04200
C 	C 	0.16904 0.11800 0.52093 -0.20600
H 	H 	0.22305 0.09728 0.50531 0.05100
H 	H 	0.33684 0.03033 0.51510 0.07100
H 	H 	0.32390 0.06473 0.54140 0.06200
H 	H 	0.33783 0.06178 0.47590 0.06700
H 	H 	0.19670 0.04837 0.40724 0.07400
H 	H 	0.19738 0.01043 0.41994 0.06900
H 	H 	0.21006 0.02224 0.35851 0.06600
H 	H 	0.19611 0.99016 0.57031 0.06100
H 	H 	0.23242 0.00294 0.56543 0.06400
H 	H 	0.21168 0.98792 0.50560 0.06300
H 	H 	0.18665 0.13331 0.53657 0.06600
H 	H 	0.15040 0.12192 0.54646 0.07800
H 	H 	0.16239 0.12247 0.47870 0.08100
C 	C 	0.20579 0.03327 0.67598 -0.09600
C 	C 	0.22431 0.05723 0.67670 0.00900
C 	C 	0.21284 0.08342 0.65956 0.02600
C 	C 	0.18274 0.08788 0.65966 -0.01700
C 	C 	0.16455 0.06550 0.67256 -0.09900
C 	C 	0.17567 0.03715 0.67161 0.10400
C 	C 	0.25244 0.05689 0.70890 -0.01000
C 	C 	0.23257 0.10706 0.64504 -0.17100
H 	H 	0.17397 0.10927 0.65490 0.03500
C 	C 	0.15587 0.01159 0.67389 -0.21400
H 	H 	0.21464 0.01224 0.68379 0.05200
C 	C 	0.25534 0.07038 0.76194 0.04300
C 	C 	0.28109 0.06713 0.79380 -0.05100
C 	C 	0.30191 0.04679 0.77779 -0.04400
C 	C 	0.29841 0.03219 0.72534 0.06500
C 	C 	0.27461 0.03894 0.69035 -0.07800
C 	C 	0.23050 0.08684 0.78601 -0.18400
H 	H 	0.28407 0.07912 0.83288 0.04700
C 	C 	0.31895 0.00874 0.70700 -0.19000
H 	H 	0.27229 0.02856 0.64978 0.04400
H 	H 	0.15419 0.00680 0.71658 0.08900
H 	H 	0.16460 0.99228 0.65146 0.07200
H 	H 	0.13395 0.01582 0.65518 0.09300
H 	H 	0.25070 0.09766 0.62248 0.06300
H 	H 	0.24163 0.11956 0.68205 0.06000
H 	H 	0.22068 0.12210 0.61892 0.05900
H 	H 	0.23460 0.09163 0.83026 0.06600
H 	H 	0.21014 0.07394 0.77975 0.08100
H 	H 	0.22743 0.10772 0.76753 0.06700
H 	H 	0.32183 0.99257 0.73762 0.07300
H 	H 	0.34019 0.01837 0.69955 0.07300
H 	H 	0.31049 0.99686 0.66877 0.06400
C 	C 	0.86574 0.39935 0.76381 -0.05000
C 	C 	0.84008 0.38460 0.74274 0.09800
C 	C 	0.83576 0.37796 0.68674 -0.08700
C 	C 	0.85540 0.38767 0.65129 -0.00600
C 	C 	0.88058 0.40322 0.67230 0.07000
C 	C 	0.88598 0.40791 0.72839 -0.05400
N 	N 	0.81906 0.37776 0.77553 -0.19900
H 	H 	0.81642 0.36622 0.67052 0.05200
C 	C 	0.84851 0.38288 0.59220 -0.00600
N 	N 	0.89932 0.41417 0.63896 -0.19400
H 	H 	0.90562 0.41914 0.74454 0.04900
C 	C 	0.82691 0.39963 0.56764 -0.08700
C 	C 	0.82236 0.39839 0.51120 0.10000
C 	C 	0.84140 0.38198 0.47886 -0.05200
C 	C 	0.86153 0.36357 0.50339 -0.05500
C 	C 	0.86465 0.36323 0.55989 0.06900
H 	H 	0.81363 0.41368 0.59251 0.05300
N 	N 	0.79916 0.41209 0.48840 -0.19900
H 	H 	0.87533 0.35004 0.47861 0.04800
N 	N 	0.88335 0.34435 0.58278 -0.19400
H 	H 	0.78613 0.42542 0.51230 0.08300
H 	H 	0.79275 0.40816 0.44749 0.09000
H 	H 	0.89593 0.33063 0.55872 0.08200
H 	H 	0.88488 0.34243 0.62440 0.08700
H 	H 	0.91824 0.42487 0.65493 0.08200
H 	H 	0.89496 0.41304 0.59720 0.08800
H 	H 	0.81984 0.38531 0.81613 0.09000
H 	H 	0.80082 0.36584 0.75982 0.08200
C 	C 	0.02874 0.16207 0.94800 -0.09200
C 	C 	0.03435 0.17258 0.89821 -0.03500
C 	C 	0.05603 0.16011 0.86753 0.04100
C 	C 	0.07183 0.13651 0.88662 -0.10100
C 	C 	0.06991 0.13007 0.94058 -0.04000
C 	C 	0.04812 0.14227 0.97100 0.02500
S 	S 	0.06495 0.17607 0.80875 -0.03500
S 	S 	0.04443 0.13126 0.03643 -0.07200
H 	H 	0.06023 0.14945 0.07319 0.04000
H 	H 	0.08586 0.19682 0.82199 0.03500
H 	H 	0.02087 0.18946 0.88217 0.04100
H 	H 	0.08407 0.11402 0.95767 -0.01200
C 	C 	0.87307 0.35064 0.03272 -0.07600
C 	C 	0.89200 0.32778 0.02113 -0.00800
C 	C 	0.90738 0.32706 0.97374 0.04000
C 	C 	0.90343 0.34920 0.93864 -0.04900
C 	C 	0.88406 0.37175 0.94953 -0.04400
C 	C 	0.86857 0.37246 0.99681 0.06100
C 	C 	0.89323 0.30296 0.05525 0.00800
C 	C 	0.92759 0.30245 0.95996 -0.18100
H 	H 	0.91538 0.34884 0.90254 0.04500
C 	C 	0.84729 0.39630 0.00913 -0.18400
H 	H 	0.86132 0.35109 0.06907 0.04500
C 	C 	0.91755 0.29916 0.09134 0.02200
C 	C 	0.92669 0.27099 0.10065 -0.01800
C 	C 	0.91148 0.24718 0.07461 -0.10200
C 	C 	0.88343 0.25144 0.05034 0.10400
C 	C 	0.87438 0.27957 0.04108 -0.09700
C 	C 	0.93564 0.32465 0.11463 -0.17200
H 	H 	0.94719 0.26770 0.12307 0.03400
C 	C 	0.86522 0.22611 0.02636 -0.20900
H 	H 	0.85438 0.28284 0.01706 0.05300
H 	H 	0.85922 0.41675 0.02158 0.07100
H 	H 	0.83366 0.39118 0.04234 0.06200
H 	H 	0.83249 0.39941 0.97306 0.06700
H 	H 	0.91552 0.28160 0.95600 0.07500
H 	H 	0.94540 0.30164 0.99195 0.06800
H 	H 	0.93758 0.30493 0.92117 0.06500
H 	H 	0.94639 0.32012 0.15435 0.05900
H 	H 	0.92194 0.34409 0.12110 0.06000
H 	H 	0.95249 0.32932 0.08667 0.06200
H 	H 	0.84178 0.23126 0.02701 0.07000
H 	H 	0.86925 0.20682 0.04953 0.09300
H 	H 	0.87048 0.22083 0.98388 0.08300
C 	C 	0.02526 0.11367 0.38331 -0.11600
C 	C 	0.99845 0.11417 0.40665 -0.03800
C 	C 	0.97314 0.12136 0.37656 0.02300
C 	C 	0.97457 0.12687 0.32163 -0.12500
C 	C 	0.00178 0.12919 0.30035 -0.02600
C 	C 	0.02705 0.12315 0.33119 0.01000
S 	S 	0.94065 0.12577 0.40938 -0.17200
S 	S 	0.06091 0.12740 0.30405 -0.10800
H 	H 	0.07103 0.15493 0.31757 0.04800
H 	H 	0.93846 0.15393 0.42951 0.05800
H 	H 	0.99711 0.10796 0.44756 0.04300
H 	H 	0.00325 0.13496 0.25921 0.04300
C 	C 	0.86864 0.31576 0.21380 -0.07900
C 	C 	0.85716 0.28952 0.22743 -0.00900
C 	C 	0.84034 0.28909 0.27280 0.04100
C 	C 	0.83448 0.31508 0.30245 -0.05000
C 	C 	0.84809 0.34098 0.29196 -0.04500
C 	C 	0.86574 0.34122 0.24731 0.06600
C 	C 	0.86670 0.26216 0.19960 0.01000
C 	C 	0.82979 0.26088 0.29141 -0.18100
H 	H 	0.82045 0.31489 0.33566 0.04600
C 	C 	0.88231 0.36794 0.23608 -0.18900
H 	H 	0.88138 0.31602 0.17886 0.04900
C 	C 	0.84704 0.24465 0.16575 0.02600
C 	C 	0.85250 0.21490 0.15735 -0.01900
C 	C 	0.87845 0.20325 0.17856 -0.09700
C 	C 	0.90054 0.22216 0.20225 0.11100
C 	C 	0.89421 0.25141 0.21395 -0.09500
C 	C 	0.82007 0.25739 0.13987 -0.17200
H 	H 	0.83603 0.20067 0.13671 0.03600
C 	C 	0.92975 0.21074 0.22063 -0.21100
H 	H 	0.91006 0.26538 0.23711 0.05400
H 	H 	0.86713 0.38419 0.21986 0.07300
H 	H 	0.89851 0.36298 0.20573 0.06100
H 	H 	0.89446 0.37722 0.27337 0.07200
H 	H 	0.84817 0.24573 0.29668 0.07300
H 	H 	0.81320 0.25086 0.26155 0.06600
H 	H 	0.81984 0.26409 0.33082 0.06400
H 	H 	0.81054 0.24275 0.10594 0.05900
H 	H 	0.82534 0.27824 0.12340 0.06500
H 	H 	0.80358 0.26120 0.16995 0.06100
H 	H 	0.94669 0.22781 0.22138 0.07600
H 	H 	0.93629 0.19249 0.19274 0.10000
H 	H 	0.92889 0.20327 0.26184 0.08600
C 	C 	0.38662 0.98482 0.40182 -0.05200
C 	C 	0.41005 0.99783 0.43437 0.09700
C 	C 	0.43684 0.98358 0.43778 -0.08600
C 	C 	0.44056 0.95704 0.40829 -0.00700
C 	C 	0.41606 0.94228 0.38242 0.06900
C 	C 	0.38920 0.95635 0.37959 -0.05400
N 	N 	0.40721 0.02422 0.46110 -0.20000
H 	H 	0.45538 0.99420 0.45993 0.05200
H 	H 	0.37077 0.94587 0.35685 0.04600
H 	H 	0.38735 0.03490 0.46075 0.08600
H 	H 	0.42487 0.03405 0.48378 0.08100
C 	C 	0.49562 0.95858 0.77200 -0.08700
C 	C 	0.48684 0.98034 0.80953 -0.00700
H 	H 	0.48051 0.95055 0.73907 0.05100
C 	C 	0.45602 0.98912 0.80744 -0.00500
C 	C 	0.43587 0.97186 0.83015 -0.08800
C 	C 	0.40744 0.98148 0.83623 0.10100
C 	C 	0.39961 0.00952 0.82196 -0.05400
C 	C 	0.41898 0.02578 0.79520 -0.05400
C 	C 	0.44707 0.01558 0.78689 0.06600
H 	H 	0.44246 0.95105 0.84380 0.05300
N 	N 	0.38765 0.96357 0.85479 -0.19900
H 	H 	0.41253 0.04680 0.78234 0.04500
N 	N 	0.46543 0.03143 0.76013 -0.19400
H 	H 	0.39391 0.94338 0.86745 0.08200
H 	H 	0.36568 0.96886 0.85430 0.09000
H 	H 	0.45893 0.05134 0.74649 0.08000
H 	H 	0.48598 0.02384 0.75139 0.08600
H 	H 	0.51606 0.91657 0.71075 0.08000
C 	C 	0.81758 0.01296 0.32630 -0.10700
C 	C 	0.82924 0.00850 0.27570 -0.02300
C 	C 	0.83590 0.03216 0.24697 0.02500
C 	C 	0.83255 0.06040 0.27061 -0.09200
C 	C 	0.81624 0.06456 0.31601 -0.03500
C 	C 	0.80798 0.04086 0.34315 0.04500
S 	S 	0.84754 0.02619 0.18127 -0.05800
S 	S 	0.78419 0.04614 0.39538 -0.05100
H 	H 	0.79986 0.05215 0.44361 0.04100
H 	H 	0.82398 0.02547 0.14476 0.03500
H 	H 	0.83427 0.98683 0.25979 -0.02100
H 	H 	0.81139 0.08629 0.33189 0.04200
C 	C 	0.98768 0.01118 0.42777 -0.07800
C 	C 	0.96447 0.03054 0.43150 -0.05900
S 	S 	0.90733 0.04498 0.43872 -0.19400
H 	H 	0.02593 0.95474 0.38878 -0.04100
H 	H 	0.96843 0.05358 0.43149 0.01100
C 	C 	0.93856 0.03019 0.77579 -0.08800
C 	C 	0.94611 0.05957 0.77704 -0.06200
C 	C 	0.97536 0.06825 0.78185 0.02900
C 	C 	0.99745 0.04732 0.78494 -0.09300
C 	C 	0.98994 0.01789 0.78043 -0.06200
C 	C 	0.96069 0.00922 0.77562 0.02300
S 	S 	0.98400 0.10536 0.78492 -0.18000
H 	H 	0.98757 0.11338 0.73389 0.06100
H 	H 	0.92923 0.07578 0.77700 0.00900
H 	H 	0.00680 0.00173 0.78273 -0.00100
C 	C 	0.84532 0.09685 0.83549 -0.11700
C 	C 	0.83557 0.09864 0.88782 -0.05400
C 	C 	0.85066 0.11547 0.92945 0.02100
C 	C 	0.87482 0.13203 0.91776 -0.11700
C 	C 	0.88067 0.13453 0.86362 -0.05400
C 	C 	0.86641 0.11668 0.82252 0.02300
S 	S 	0.83969 0.11459 0.99575 -0.07100
S 	S 	0.87626 0.11843 0.75571 -0.07100
H 	H 	0.85895 0.13800 0.73052 0.04400
H 	H 	0.82046 0.13649 0.00572 0.04600
H 	H 	0.81799 0.08472 0.89716 0.02400
H 	H 	0.89771 0.14897 0.85389 0.00900
C 	C 	0.71463 0.98075 0.79719 -0.18100
H 	H 	0.71233 0.98636 0.84086 0.06400
H 	H 	0.71550 0.00123 0.77694 0.07300
H 	H 	0.73544 0.96909 0.79327 0.07300
C 	C 	0.87323 0.59423 0.30618 -0.05200
C 	C 	0.85242 0.58498 0.34050 0.10000
C 	C 	0.84507 0.55555 0.33877 -0.08700
C 	C 	0.85720 0.53560 0.30172 -0.00600
C 	C 	0.87435 0.54563 0.26182 0.06800
C 	C 	0.88256 0.57492 0.26486 -0.05400
N 	N 	0.83936 0.60426 0.37480 -0.19900
H 	H 	0.83067 0.54802 0.36752 0.05300
C 	C 	0.85499 0.50435 0.30966 -0.00600
N 	N 	0.88353 0.52719 0.22149 -0.19400
H 	H 	0.89748 0.58230 0.23689 0.04600
C 	C 	0.82943 0.48932 0.29136 -0.08700
C 	C 	0.82538 0.46046 0.30300 0.09700
C 	C 	0.84766 0.44632 0.33260 -0.05200
C 	C 	0.87366 0.46099 0.34889 -0.05400
C 	C 	0.87743 0.49002 0.33852 0.07000
H 	H 	0.81235 0.50034 0.26911 0.05100
N 	N 	0.79991 0.44674 0.28659 -0.20000
H 	H 	0.89078 0.44998 0.37108 0.04700
N 	N 	0.90240 0.50408 0.35714 -0.19400
H 	H 	0.78365 0.45737 0.26466 0.08100
H 	H 	0.79586 0.42556 0.29563 0.08900
H 	H 	0.91889 0.49320 0.37800 0.08100
H 	H 	0.90566 0.52591 0.35174 0.08800
H 	H 	0.89703 0.53455 0.19327 0.08100
H 	H 	0.87664 0.50565 0.21678 0.08500
H 	H 	0.84240 0.62650 0.37335 0.08900
H 	H 	0.82491 0.59717 0.40165 0.08300
C 	C 	0.97303 0.59896 0.85955 -0.05100
C 	C 	0.95403 0.60121 0.90215 0.09800
C 	C 	0.94213 0.57600 0.91975 -0.08800
C 	C 	0.94649 0.54904 0.89231 -0.00600
C 	C 	0.96516 0.54681 0.84924 0.07000
C 	C 	0.97887 0.57175 0.83438 -0.05400
N 	N 	0.94597 0.62743 0.92441 -0.20000
H 	H 	0.92785 0.57759 0.95270 0.05100
C 	C 	0.92883 0.52406 0.90488 -0.00600
N 	N 	0.96959 0.52098 0.82139 -0.19400
H 	H 	0.99343 0.57008 0.80187 0.04700
C 	C 	0.89974 0.52214 0.88498 -0.08700
C 	C 	0.88387 0.49656 0.88758 0.10000
C 	C 	0.89798 0.47202 0.90709 -0.05300
C 	C 	0.92588 0.47507 0.93292 -0.05500
C 	C 	0.94129 0.50119 0.93289 0.06700
H 	H 	0.88965 0.54036 0.86642 0.05300
N 	N 	0.85512 0.49571 0.87187 -0.19900
H 	H 	0.93623 0.45666 0.95040 0.04700
N 	N 	0.96817 0.50393 0.95855 -0.19400
H 	H 	0.84508 0.51349 0.85528 0.08200
H 	H 	0.84222 0.47799 0.87854 0.08800
H 	H 	0.97763 0.48658 0.97755 0.08000
H 	H 	0.97954 0.52351 0.96131 0.08500
H 	H 	0.98365 0.51959 0.79009 0.08200
H 	H 	0.95893 0.50217 0.82978 0.08800
H 	H 	0.95008 0.64651 0.90649 0.09000
H 	H 	0.93360 0.62878 0.95816 0.07900
C 	C 	0.93459 0.65660 0.43439 -0.05200
C 	C 	0.95054 0.63462 0.45936 0.10000
C 	C 	0.95917 0.63851 0.51452 -0.08700
C 	C 	0.95410 0.66473 0.54404 -0.00600
C 	C 	0.94114 0.68792 0.51752 0.06800
C 	C 	0.93095 0.68341 0.46309 -0.05400
N 	N 	0.95847 0.61025 0.43026 -0.19900
H 	H 	0.97009 0.62116 0.53447 0.05300
C 	C 	0.96160 0.66719 0.60303 -0.00600
N 	N 	0.93810 0.71432 0.54415 -0.19400
H 	H 	0.91955 0.70059 0.44344 0.04500
C 	C 	0.99079 0.67070 0.62169 -0.08800
C 	C 	0.99952 0.66786 0.67617 0.09700
C 	C 	0.97828 0.66296 0.71314 -0.05100
C 	C 	0.94888 0.66156 0.69507 -0.05300
C 	C 	0.94032 0.66304 0.64020 0.07000
H 	H 	0.00697 0.67420 0.59318 0.05400
N 	N 	0.02828 0.66885 0.69215 -0.19900
H 	H 	0.93264 0.65824 0.72358 0.04800
N 	N 	0.91176 0.66001 0.62345 -0.19400
H 	H 	0.04363 0.67324 0.66481 0.08100
H 	H 	0.03581 0.66448 0.73110 0.08800
H 	H 	0.89626 0.65692 0.65126 0.08200
H 	H 	0.90460 0.66062 0.58292 0.08800
H 	H 	0.92785 0.73109 0.52462 0.08200
H 	H 	0.94640 0.71866 0.58396 0.08700
H 	H 	0.95600 0.60846 0.38815 0.09100
H 	H 	0.96888 0.59348 0.44950 0.08200
C 	C 	0.97099 0.01075 0.04131 -0.08100
C 	C 	0.94309 0.02283 0.03882 -0.03800
C 	C 	0.93956 0.05292 0.04014 0.03400
C 	C 	0.96415 0.07118 0.04514 -0.08700
C 	C 	0.99150 0.05925 0.05729 -0.03300
C 	C 	0.99500 0.02914 0.05578 0.02000
S 	S 	0.90451 0.06724 0.03053 -0.16000
S 	S 	0.02970 0.01487 0.06939 -0.10000
H 	H 	0.89262 0.07209 0.07933 0.05800
H 	H 	0.92426 0.00879 0.03103 0.02800
H 	H 	0.01037 0.07327 0.06418 0.03000
H 	H 	0.12278 0.00241 0.90961 0.01400
C 	C 	0.02283 0.77250 0.99658 0.01000
C 	C 	0.02636 0.74379 0.96757 -0.00700
C 	C 	0.07505 0.77232 0.03506 -0.17100
C 	C 	0.01302 0.71911 0.98499 0.03600
C 	C 	0.00792 0.69478 0.94877 -0.04600
C 	C 	0.01791 0.69400 0.89659 -0.04700
C 	C 	0.03584 0.71676 0.88287 0.06900
C 	C 	0.03883 0.74205 0.91756 -0.07800
C 	C 	0.00295 0.71912 0.04116 -0.17400
H 	H 	0.99531 0.67686 0.96062 0.04300
C 	C 	0.05165 0.71443 0.83165 -0.19000
H 	H 	0.05013 0.76065 0.90498 0.05000
H 	H 	0.08696 0.76955 0.99774 0.06300
H 	H 	0.07100 0.75079 0.04992 0.06100
H 	H 	0.08894 0.78483 0.06673 0.06100
H 	H 	0.99989 0.69673 0.05273 0.05800
H 	H 	0.98209 0.73083 0.04344 0.06500
H 	H 	0.01947 0.72965 0.07055 0.06400
H 	H 	0.03721 0.72128 0.79756 0.07500
H 	H 	0.05903 0.69194 0.82235 0.06900
H 	H 	0.07127 0.72851 0.83571 0.06500
C 	C 	0.97141 0.02872 0.19640 0.04500
C 	C 	0.94145 0.03054 0.18291 -0.08600
S 	S 	0.99184 0.06001 0.21778 -0.22800
H 	H 	0.00366 0.07095 0.17450 0.05200
C 	C 	0.98175 0.74508 0.16408 -0.09400
C 	C 	0.95168 0.74384 0.15216 0.00500
C 	C 	0.93816 0.76563 0.12283 0.02400
C 	C 	0.95371 0.79096 0.11571 -0.01800
C 	C 	0.93413 0.72345 0.17987 -0.00600
C 	C 	0.90661 0.76316 0.10355 -0.17200
H 	H 	0.94249 0.80912 0.09906 0.04300
H 	H 	0.99254 0.72762 0.18390 0.05100
C 	C 	0.93475 0.69339 0.16578 0.03700
C 	C 	0.92483 0.67413 0.20158 -0.04700
C 	C 	0.91314 0.68461 0.24979 -0.04600
C 	C 	0.90864 0.71462 0.25968 0.06900
C 	C 	0.91995 0.73385 0.22544 -0.07800
C 	C 	0.94777 0.68165 0.11482 -0.17800
H 	H 	0.92737 0.65104 0.19302 0.04300
C 	C 	0.89304 0.72635 0.30789 -0.19100
H 	H 	0.91873 0.75695 0.23540 0.05000
H 	H 	0.89296 0.77051 0.13693 0.06400
H 	H 	0.90088 0.74045 0.08956 0.06200
H 	H 	0.90172 0.77665 0.06905 0.06000
H 	H 	0.93872 0.65993 0.10119 0.06000
H 	H 	0.97159 0.67977 0.12252 0.06100
H 	H 	0.94295 0.69595 0.08154 0.06100
H 	H 	0.90840 0.72829 0.34422 0.07300
H 	H 	0.87469 0.71198 0.31522 0.07100
H 	H 	0.88389 0.74805 0.30132 0.06500
Cd	Cd	0.99335 0.88079 0.19643 1.24000
Cd	Cd	0.99665 0.92399 0.32032 1.17400
O 	O 	0.00354 0.82922 0.20302 -0.32700
O 	O 	0.98618 0.84571 0.12731 -0.35500
C 	C 	0.99406 0.82330 0.15322 0.28100
O 	O 	0.97626 0.92399 0.17350 -0.38500
O 	O 	0.99778 0.95004 0.24762 -0.43400
C 	C 	0.97949 0.94850 0.20440 0.27500
C 	C 	0.94725 0.87782 0.26669 0.28800
O 	O 	0.03113 0.89621 0.27677 -0.45100
O 	O 	0.93929 0.86788 0.21757 -0.31300
O 	O 	0.97434 0.88522 0.27450 -0.54100
C 	C 	0.04829 0.90450 0.24132 0.29400
O 	O 	0.04029 0.89715 0.19087 -0.35200
Cd	Cd	0.99856 0.91785 0.99575 1.24000
Cd	Cd	0.98331 0.96380 0.88886 1.16700
O 	O 	0.01838 0.87079 0.96635 -0.32800
O 	O 	0.01270 0.88265 0.05188 -0.36400
C 	C 	0.02023 0.86295 0.01533 0.28900
O 	O 	0.98833 0.96104 0.03833 -0.37400
O 	O 	0.96150 0.97637 0.96501 -0.44600
C 	C 	0.97518 0.98203 0.01280 0.27600
C 	C 	0.04505 0.94607 0.95110 0.29200
O 	O 	0.96633 0.91837 0.90478 -0.45100
O 	O 	0.05408 0.93498 0.99599 -0.29500
O 	O 	0.01854 0.93979 0.93452 -0.54900
C 	C 	0.94405 0.91266 0.93171 0.30000
O 	O 	0.94957 0.90766 0.98221 -0.37000
Cd	Cd	0.84087 0.01242 0.75526 1.24100
O 	O 	0.78782 0.01057 0.74448 -0.33100
O 	O 	0.81415 0.00358 0.67472 -0.35700
C 	C 	0.78834 0.00408 0.69296 0.28000
O 	O 	0.88829 0.02047 0.74495 -0.37700
O 	O 	0.90355 0.01143 0.83171 -0.45200
C 	C 	0.90847 0.02212 0.78554 0.27600
O 	O 	0.84248 0.99137 0.85076 -0.44900
C 	C 	0.85099 0.96696 0.82783 0.29500
O 	O 	0.85055 0.96555 0.77522 -0.36400
Cd	Cd	0.84020 0.95363 0.44819 1.24000
Cd	Cd	0.86690 0.94317 0.31767 1.16200
O 	O 	0.79469 0.92868 0.46106 -0.33000
O 	O 	0.81788 0.95436 0.52791 -0.35700
C 	C 	0.79502 0.93893 0.51100 0.28300
O 	O 	0.88511 0.97295 0.45848 -0.38100
O 	O 	0.88809 0.98036 0.36885 -0.44900
C 	C 	0.90065 0.97874 0.41764 0.28300
C 	C 	0.86765 0.90087 0.41749 0.30200
O 	O 	0.86530 0.90333 0.46968 -0.29900
O 	O 	0.85442 0.92034 0.39067 -0.55000
C 	C 	0.61894 0.93341 0.81402 0.12100
N 	N 	0.62378 0.92100 0.86156 -0.14500
C 	C 	0.60196 0.91894 0.89508 0.12500
N 	N 	0.57534 0.92941 0.88101 -0.14400
C 	C 	0.57044 0.94189 0.83370 0.12500
N 	N 	0.59240 0.94436 0.80069 -0.14600
C 	C 	0.60516 0.91760 0.37997 0.12100
N 	N 	0.61065 0.91387 0.32692 -0.14500
C 	C 	0.58839 0.91153 0.28842 0.12600
N 	N 	0.56069 0.91438 0.30283 -0.14500
C 	C 	0.55512 0.91978 0.35551 0.12500
N 	N 	0.57743 0.92143 0.39407 -0.14500
O 	O 	0.08667 0.02936 0.33777 -0.45500
C 	C 	0.09228 0.00385 0.35436 0.29700
O 	O 	0.09388 0.00219 0.40657 -0.36600
C 	C 	0.47021 0.94809 0.39550 -0.00600
N 	N 	0.41839 0.91506 0.35880 -0.19400
C 	C 	0.48490 0.92799 0.42658 -0.08800
C 	C 	0.51197 0.91714 0.41243 0.09800
C 	C 	0.52570 0.92871 0.36942 -0.05000
C 	C 	0.51137 0.94956 0.33961 -0.05400
C 	C 	0.48354 0.95894 0.35143 0.07100
H 	H 	0.47456 0.91967 0.46015 0.05100
N 	N 	0.52390 0.89482 0.43848 -0.19900
H 	H 	0.52193 0.95851 0.30688 0.04900
N 	N 	0.46972 0.97829 0.32027 -0.19400
H 	H 	0.51437 0.88746 0.47189 0.08100
H 	H 	0.54157 0.88341 0.42398 0.08900
H 	H 	0.47988 0.98630 0.28811 0.08300
H 	H 	0.44878 0.98540 0.32709 0.09000
H 	H 	0.40040 0.90471 0.33812 0.08100
H 	H 	0.43779 0.90364 0.36199 0.08600
C 	C 	0.54257 0.95623 0.82206 -0.05000
C 	C 	0.52316 0.94600 0.77831 0.09700
C 	C 	0.50660 0.99116 0.85225 0.07100
C 	C 	0.53441 0.97922 0.85755 -0.05300
N 	N 	0.53044 0.92368 0.74322 -0.20000
N 	N 	0.49887 0.01262 0.88875 -0.19400
H 	H 	0.54952 0.98730 0.89046 0.04800
H 	H 	0.51361 0.02033 0.92022 0.08100
H 	H 	0.47832 0.02189 0.88642 0.08800
H 	H 	0.55011 0.91286 0.74814 0.08600
C 	C 	0.60801 0.90900 0.94963 -0.05100
C 	C 	0.58904 0.88935 0.97062 0.09700
C 	C 	0.58927 0.88750 0.02667 -0.08400
C 	C 	0.60904 0.90392 0.06159 -0.00800
C 	C 	0.63084 0.92017 0.03994 0.07100
C 	C 	0.62989 0.92287 0.98400 -0.05700
N 	N 	0.57084 0.87208 0.93717 -0.19800
H 	H 	0.57350 0.87391 0.04323 0.05300
C 	C 	0.60460 0.90656 0.12017 -0.00600
N 	N 	0.65226 0.93366 0.07262 -0.19400
H 	H 	0.64527 0.93697 0.96763 0.04700
C 	C 	0.61429 0.88438 0.15210 -0.08700
C 	C 	0.60868 0.88520 0.20700 0.09700
C 	C 	0.59433 0.90943 0.23079 -0.05100
C 	C 	0.58509 0.93181 0.19901 -0.05300
C 	C 	0.58962 0.93044 0.14370 0.07000
H 	H 	0.62552 0.86603 0.13382 0.05200
N 	N 	0.61624 0.86230 0.23597 -0.20000
H 	H 	0.57401 0.95028 0.21730 0.04700
N 	N 	0.57929 0.95191 0.11344 -0.19400
H 	H 	0.62782 0.84506 0.21863 0.08000
H 	H 	0.60969 0.86076 0.27497 0.08600
H 	H 	0.56861 0.96961 0.13140 0.08200
H 	H 	0.58130 0.95115 0.07185 0.08900
H 	H 	0.66770 0.94643 0.05653 0.08100
H 	H 	0.65432 0.93091 0.11395 0.08600
H 	H 	0.57220 0.87097 0.89535 0.08900
H 	H 	0.55602 0.85849 0.95297 0.08200
C 	C 	0.93049 0.99012 0.42871 -0.09200
C 	C 	0.95389 0.97090 0.42671 -0.04700
C 	C 	0.98245 0.98134 0.42897 0.01500
C 	C 	0.93597 0.02018 0.43289 0.04000
S 	S 	0.01152 0.95703 0.43525 -0.11700
H 	H 	0.90285 0.05118 0.49219 0.06300
H 	H 	0.94988 0.94789 0.42140 -0.00200
C 	C 	0.71991 0.96334 0.51575 -0.09200
C 	C 	0.70701 0.93674 0.52374 0.00800
C 	C 	0.72380 0.91569 0.54958 0.02600
C 	C 	0.75413 0.91871 0.55470 -0.01500
C 	C 	0.76741 0.94301 0.53640 -0.09900
C 	C 	0.75006 0.96698 0.52404 0.10400
C 	C 	0.67903 0.92859 0.49347 -0.00700
C 	C 	0.70986 0.88872 0.56651 -0.17100
H 	H 	0.76741 0.90103 0.56812 0.03600
C 	C 	0.76381 0.99498 0.51174 -0.21000
H 	H 	0.70694 0.98023 0.49850 0.05200
C 	C 	0.65338 0.94434 0.50258 0.03900
C 	C 	0.62917 0.94028 0.46552 -0.04900
C 	C 	0.62944 0.91914 0.42207 -0.04500
C 	C 	0.65365 0.90064 0.41787 0.06800
C 	C 	0.67886 0.90682 0.45114 -0.07800
C 	C 	0.65205 0.96647 0.54984 -0.18100
H 	H 	0.61033 0.95395 0.46998 0.04700
C 	C 	0.65287 0.87438 0.37823 -0.19000
H 	H 	0.69849 0.89477 0.44386 0.05000
H 	H 	0.74811 0.01306 0.51455 0.07000
H 	H 	0.77136 0.99292 0.47023 0.08100
H 	H 	0.78248 0.00057 0.54107 0.08700
H 	H 	0.70713 0.87241 0.53161 0.06200
H 	H 	0.68836 0.89369 0.58226 0.06100
H 	H 	0.72350 0.87911 0.59887 0.05900
H 	H 	0.62956 0.96848 0.56287 0.06300
H 	H 	0.65926 0.98784 0.53827 0.06300
H 	H 	0.66595 0.96020 0.58500 0.06700
H 	H 	0.65846 0.88068 0.33801 0.07400
H 	H 	0.63112 0.86392 0.37492 0.06800
H 	H 	0.66873 0.85795 0.39156 0.06300
S 	S 	0.95205 0.97208 0.77002 -0.18000
H 	H 	0.94930 0.96235 0.71660 0.06200
C 	C 	0.71198 0.98637 0.66094 -0.09200
C 	C 	0.71252 0.95939 0.68293 0.00500
C 	C 	0.73845 0.94331 0.68353 0.02800
C 	C 	0.76440 0.95700 0.67321 -0.01600
C 	C 	0.76459 0.98661 0.66536 -0.09700
C 	C 	0.73808 0.00011 0.65170 0.09500
C 	C 	0.68896 0.95189 0.71703 -0.00900
C 	C 	0.73941 0.91336 0.70313 -0.17400
H 	H 	0.78481 0.94578 0.67903 0.04300
C 	C 	0.73756 0.03066 0.63516 -0.20400
H 	H 	0.69169 0.99797 0.65675 0.05000
C 	C 	0.68973 0.96217 0.77204 0.04100
C 	C 	0.66692 0.95536 0.80341 -0.04800
C 	C 	0.64338 0.93852 0.78074 -0.04500
C 	C 	0.64301 0.92748 0.72617 0.06600
C 	C 	0.66573 0.93453 0.69458 -0.08000
H 	H 	0.66721 0.96362 0.84536 0.04400
C 	C 	0.61827 0.90869 0.70118 -0.19000
H 	H 	0.66551 0.92620 0.65274 0.04300
H 	H 	0.71869 0.03378 0.60618 0.06600
H 	H 	0.75752 0.03573 0.61511 0.07400
H 	H 	0.73589 0.04590 0.67136 0.07500
H 	H 	0.71893 0.90139 0.69098 0.06300
H 	H 	0.74280 0.91483 0.74782 0.06500
H 	H 	0.75740 0.90073 0.68566 0.06200
H 	H 	0.62382 0.89750 0.66221 0.06200
H 	H 	0.59885 0.92221 0.69349 0.07000
H 	H 	0.61301 0.89179 0.72841 0.06800
H 	H 	0.03534 0.01528 0.12414 0.03300
C 	C 	0.91454 0.91845 0.91021 -0.10500
C 	C 	0.89668 0.93672 0.94068 -0.02100
C 	C 	0.87269 0.94980 0.91558 0.00900
C 	C 	0.86760 0.94575 0.85881 -0.09100
C 	C 	0.88246 0.92367 0.83057 -0.02600
C 	C 	0.90585 0.90997 0.85609 0.03300
S 	S 	0.84784 0.96836 0.95605 -0.06800
S 	S 	0.92406 0.88222 0.82005 -0.05600
H 	H 	0.91155 0.85614 0.82744 0.03700
H 	H 	0.85710 0.99631 0.96809 -0.04500
H 	H 	0.90212 0.94170 0.98340 0.04000
H 	H 	0.87681 0.91823 0.78807 0.05200
C 	C 	0.06545 0.95651 0.91359 -0.11200
C 	C 	0.05907 0.95112 0.85773 -0.05100
C 	C 	0.07379 0.96608 0.82108 0.02600
C 	C 	0.09506 0.98677 0.84046 -0.11800
C 	C 	0.10503 0.98795 0.89509 -0.05400
C 	C 	0.08973 0.97385 0.93216 0.01000
S 	S 	0.06559 0.95837 0.75140 -0.04700
S 	S 	0.10018 0.97971 0.00146 -0.05300
H 	H 	0.08885 0.00531 0.02118 -0.00400
H 	H 	0.04520 0.97730 0.73296 0.03200
H 	H 	0.04192 0.93603 0.84287 0.01500
C 	C 	0.99596 0.78630 0.99146 -0.09800
C 	C 	0.04682 0.78757 0.02337 0.02500
C 	C 	0.04473 0.81746 0.03660 -0.01700
C 	C 	0.01886 0.83206 0.02423 -0.09500
C 	C 	0.99367 0.81595 0.00575 0.11200
H 	H 	0.06378 0.82965 0.05282 0.04000
C 	C 	0.96509 0.83083 0.99490 -0.21300
H 	H 	0.97719 0.77433 0.97320 0.05400
H 	H 	0.94666 0.81551 0.99575 0.07200
H 	H 	0.96443 0.83958 0.95452 0.08100
H 	H 	0.96198 0.84879 0.02597 0.09000
C 	C 	0.96841 0.97608 0.18381 -0.07300
C 	C 	0.98481 0.00159 0.19645 -0.04400
C 	C 	0.92649 0.00564 0.16065 -0.02500
C 	C 	0.93962 0.97837 0.16153 0.02700
S 	S 	0.91964 0.94760 0.13518 -0.08700
H 	H 	0.92489 0.94209 0.08187 0.05200
H 	H 	0.00750 0.00026 0.21012 0.01600
H 	H 	0.90408 0.00723 0.14564 0.03700
C 	C 	0.88947 0.88245 0.39257 -0.11300
C 	C 	0.88126 0.86615 0.34439 -0.05400
C 	C 	0.90115 0.86101 0.30489 0.02500
C 	C 	0.92898 0.87416 0.31258 -0.12800
C 	C 	0.93848 0.88579 0.36458 -0.03400
C 	C 	0.91904 0.88838 0.40542 0.01500
S 	S 	0.89224 0.83527 0.25060 -0.05600
S 	S 	0.93209 0.89670 0.47282 -0.04900
H 	H 	0.92559 0.92467 0.48907 0.04100
H 	H 	0.90070 0.80842 0.26475 0.03700
H 	H 	0.85897 0.85892 0.33637 0.03000
H 	H 	0.96074 0.89295 0.37315 -0.03700
C 	C 	0.09027 0.97768 0.31649 -0.10400
C 	C 	0.07684 0.97945 0.26453 -0.02600
C 	C 	0.06755 0.95432 0.23371 0.02800
C 	C 	0.06993 0.92742 0.25654 -0.09300
C 	C 	0.08779 0.92532 0.30383 -0.03800
C 	C 	0.09863 0.95031 0.33330 0.04200
S 	S 	0.05385 0.95678 0.16652 -0.03600
S 	S 	0.12434 0.94695 0.38790 -0.04600
H 	H 	0.11028 0.94461 0.43417 0.04100
H 	H 	0.07614 0.95444 0.13283 0.04400
H 	H 	0.07274 0.00034 0.24882 -0.01200
H 	H 	0.09187 0.90435 0.31928 0.03900
C 	C 	0.98272 0.79411 0.13595 -0.09800
C 	C 	0.99760 0.76969 0.15404 0.09600
C 	C 	0.02985 0.77080 0.16794 -0.20300
H 	H 	0.03951 0.74901 0.16144 0.06400
H 	H 	0.03419 0.77858 0.21097 0.08300
H 	H 	0.04074 0.78543 0.14214 0.07600
