data_crystal

_cell_length_a 16.36393
_cell_length_b 30.34982
_cell_length_c 43.93199
_cell_angle_alpha 90.00015
_cell_angle_beta  89.99974
_cell_angle_gamma 90.04644

_symmetry_space_group_name_	'P 1'
_symmetry_space_group_name_H-M	'P 1'

loop_
_symmetry_equiv_pos_as_xyz
  x,y,z

loop_
_atom_site_label
_atom_site_type_symbol
_atom_site_fract_x
_atom_site_fract_y
_atom_site_fract_z
_atom_site_charge
Co	Co	0.91878 0.93654 0.99780 1.16800
Co	Co	0.12112 0.02769 0.99781 1.19200
Co	Co	0.11741 0.93447 0.99710 1.18900
Co	Co	0.92441 0.02922 0.99986 1.16700
C 	C 	0.80482 0.92715 0.05106 0.29000
Co	Co	0.74370 0.98635 0.99975 1.16400
Co	Co	0.29664 0.98007 0.00192 1.16900
C 	C 	0.79333 0.06062 0.95784 0.28400
O 	O 	0.31574 0.93239 0.96901 -0.37600
O 	O 	0.16981 0.98101 0.99149 -0.78200
C 	C 	0.25565 0.91226 0.95466 0.28300
O 	O 	0.01647 0.89615 0.99901 -0.42400
O 	O 	0.02433 0.06775 0.00207 -0.42300
C 	C 	0.25998 0.05008 0.95526 0.28100
O 	O 	0.02007 0.98229 0.98118 -0.54200
C 	C 	0.22191 0.92469 0.05220 0.29600
C 	C 	0.78348 0.91691 0.95342 0.28300
C 	C 	0.81525 0.03612 0.05308 0.29400
O 	O 	0.19298 0.89613 0.97006 -0.35900
O 	O 	0.72386 0.93954 0.96612 -0.37300
O 	O 	0.84183 0.89960 0.97035 -0.37800
O 	O 	0.31844 0.02806 0.96930 -0.37700
O 	O 	0.19722 0.06589 0.97082 -0.36100
O 	O 	0.28580 0.92979 0.03428 -0.37700
O 	O 	0.14759 0.93287 0.04240 -0.39400
O 	O 	0.75485 0.03516 0.03316 -0.37900
O 	O 	0.89051 0.02712 0.04469 -0.41600
O 	O 	0.87126 0.98391 0.99196 -0.79500
C 	C 	0.22621 0.03568 0.05290 0.29600
O 	O 	0.29018 0.02944 0.03522 -0.37700
O 	O 	0.15215 0.02695 0.04319 -0.39400
O 	O 	0.74432 0.93562 0.03202 -0.38500
O 	O 	0.88191 0.93225 0.04275 -0.40200
O 	O 	0.73308 0.03399 0.96563 -0.36300
O 	O 	0.84812 0.07271 0.97807 -0.39500
Co	Co	0.62661 0.27695 0.25233 1.18800
Co	Co	0.42487 0.18533 0.25195 1.18900
Co	Co	0.42783 0.27848 0.25256 1.18700
Co	Co	0.62145 0.18429 0.24999 1.18700
C 	C 	0.76112 0.29671 0.29670 0.28400
Co	Co	0.80199 0.22736 0.25068 1.16400
Co	Co	0.24901 0.23244 0.24770 1.17000
C 	C 	0.73129 0.17747 0.19712 0.29300
O 	O 	0.25923 0.28263 0.21538 -0.37300
O 	O 	0.37577 0.23186 0.25830 -0.78100
C 	C 	0.32300 0.28785 0.19741 0.29600
O 	O 	0.52850 0.31703 0.25066 -0.45500
O 	O 	0.52196 0.14541 0.24803 -0.46100
C 	C 	0.31995 0.17675 0.19710 0.29800
O 	O 	0.52542 0.23097 0.26870 -0.57100
C 	C 	0.28970 0.30042 0.29502 0.28100
C 	C 	0.74126 0.28646 0.19900 0.28800
C 	C 	0.75235 0.15321 0.29251 0.28400
O 	O 	0.39746 0.28001 0.20721 -0.40400
O 	O 	0.80170 0.27795 0.21807 -0.39200
O 	O 	0.66412 0.28127 0.20724 -0.38600
O 	O 	0.25596 0.18288 0.21477 -0.37500
O 	O 	0.39394 0.18573 0.20677 -0.40700
O 	O 	0.22971 0.28019 0.28068 -0.36500
O 	O 	0.35226 0.31663 0.27960 -0.36200
O 	O 	0.81259 0.17988 0.28478 -0.37200
O 	O 	0.69791 0.14094 0.27219 -0.38100
O 	O 	0.67428 0.22963 0.25810 -0.78200
C 	C 	0.28598 0.16267 0.29475 0.27900
O 	O 	0.22745 0.18462 0.28068 -0.36700
O 	O 	0.34888 0.14694 0.27921 -0.36100
O 	O 	0.82114 0.27444 0.28396 -0.38100
O 	O 	0.70262 0.31390 0.27979 -0.36800
O 	O 	0.79134 0.17844 0.21719 -0.38800
O 	O 	0.65581 0.18621 0.20537 -0.40400
C 	C 	0.24511 0.10195 0.13678 0.10200
C 	C 	0.30127 0.11032 0.11326 0.10000
N 	N 	0.29622 0.08738 0.08680 -0.08600
C 	C 	0.23677 0.05655 0.08275 -0.02300
C 	C 	0.18138 0.04777 0.10648 0.05200
N 	N 	0.18670 0.07066 0.13301 -0.09900
N 	N 	0.25012 0.12492 0.16323 -0.08300
N 	N 	0.35965 0.14163 0.11703 -0.10500
H 	H 	0.13397 0.02319 0.10368 0.05300
C 	C 	0.30954 0.15578 0.16727 -0.02400
C 	C 	0.36494 0.16454 0.14355 0.04900
H 	H 	0.41231 0.18914 0.14633 0.04400
C 	C 	0.23846 0.11337 0.88318 0.10000
C 	C 	0.30755 0.09940 0.86683 0.09800
N 	N 	0.32164 0.11542 0.83839 -0.08900
C 	C 	0.26912 0.14483 0.82548 -0.01700
C 	C 	0.20003 0.15883 0.84201 0.04600
N 	N 	0.18617 0.14276 0.87046 -0.10000
N 	N 	0.22436 0.09735 0.91163 -0.08600
N 	N 	0.35983 0.06999 0.87955 -0.10500
H 	H 	0.15771 0.18233 0.83230 0.05300
C 	C 	0.27687 0.06792 0.92453 -0.01800
C 	C 	0.34596 0.05392 0.90800 0.04400
H 	H 	0.38824 0.03040 0.91770 0.04500
C 	C 	0.24355 0.85975 0.13640 0.10200
C 	C 	0.30085 0.85246 0.11312 0.10000
N 	N 	0.29445 0.87484 0.08651 -0.08600
C 	C 	0.23256 0.90405 0.08207 -0.02300
C 	C 	0.17592 0.91175 0.10554 0.05100
N 	N 	0.18259 0.88942 0.13224 -0.09900
N 	N 	0.25004 0.83743 0.16304 -0.08300
N 	N 	0.36184 0.82280 0.11729 -0.10500
H 	H 	0.12667 0.93513 0.10245 0.05300
C 	C 	0.31201 0.80827 0.16749 -0.02400
C 	C 	0.36858 0.80052 0.14400 0.04900
H 	H 	0.41789 0.77718 0.14710 0.04400
C 	C 	0.79506 0.09894 0.13779 0.09300
C 	C 	0.75251 0.11504 0.11234 0.09600
N 	N 	0.75626 0.09296 0.08554 -0.08900
C 	C 	0.80155 0.05558 0.08304 -0.03100
C 	C 	0.84293 0.03910 0.10863 0.04300
N 	N 	0.83880 0.06111 0.13553 -0.11200
N 	N 	0.79112 0.12095 0.16461 -0.09100
N 	N 	0.70874 0.15285 0.11461 -0.10700
H 	H 	0.87906 0.00931 0.10698 0.03600
C 	C 	0.74567 0.15827 0.16714 -0.03100
C 	C 	0.70446 0.17481 0.14152 0.04500
H 	H 	0.66825 0.20457 0.14318 0.04400
C 	C 	0.79605 0.84504 0.88561 0.09200
C 	C 	0.74807 0.86842 0.86457 0.09400
N 	N 	0.73727 0.85223 0.83609 -0.08900
C 	C 	0.77298 0.81365 0.82763 -0.02600
C 	C 	0.82035 0.79009 0.84879 0.04000
N 	N 	0.83104 0.80633 0.87735 -0.11100
N 	N 	0.80694 0.86125 0.91409 -0.09300
N 	N 	0.71312 0.90715 0.87283 -0.10600
H 	H 	0.84788 0.75891 0.84261 0.04100
C 	C 	0.77132 0.89987 0.92253 -0.02700
C 	C 	0.72389 0.92341 0.90138 0.04200
H 	H 	0.69643 0.95461 0.90754 0.04700
C 	C 	0.79071 0.12788 0.87377 0.09100
C 	C 	0.75466 0.08603 0.87661 0.09300
N 	N 	0.75379 0.06550 0.90410 -0.09500
C 	C 	0.78795 0.08503 0.92894 -0.02900
C 	C 	0.82323 0.12717 0.92608 0.04000
N 	N 	0.82381 0.14770 0.89856 -0.11200
N 	N 	0.79163 0.14840 0.84628 -0.09700
N 	N 	0.72158 0.06620 0.85182 -0.10800
H 	H 	0.85016 0.14340 0.94560 0.04200
C 	C 	0.75753 0.12885 0.82144 -0.02800
C 	C 	0.72222 0.08672 0.82430 0.04200
H 	H 	0.69534 0.07047 0.80478 0.05000
C 	C 	0.30073 0.86734 0.86540 0.09900
C 	C 	0.24449 0.84537 0.88426 0.10100
N 	N 	0.23020 0.86050 0.91284 -0.08400
C 	C 	0.27034 0.89665 0.92348 -0.02100
C 	C 	0.32605 0.91881 0.90447 0.04500
N 	N 	0.34017 0.90365 0.87584 -0.10500
N 	N 	0.31504 0.85221 0.83682 -0.08700
N 	N 	0.20506 0.80906 0.87382 -0.10000
H 	H 	0.35771 0.94794 0.91242 0.04100
C 	C 	0.27492 0.81606 0.82618 -0.02000
C 	C 	0.21919 0.79390 0.84519 0.04800
H 	H 	0.18753 0.76478 0.83724 0.04700
C 	C 	0.73868 0.86382 0.13329 0.09600
C 	C 	0.80753 0.84985 0.11680 0.09200
N 	N 	0.82992 0.87165 0.09098 -0.09500
C 	C 	0.78577 0.90684 0.08086 -0.02700
C 	C 	0.71751 0.92105 0.09766 0.04400
N 	N 	0.69542 0.89929 0.12352 -0.10700
N 	N 	0.71627 0.84201 0.15911 -0.09000
N 	N 	0.85080 0.81438 0.12658 -0.11300
H 	H 	0.68201 0.94907 0.09006 0.03800
C 	C 	0.76041 0.80681 0.16923 -0.02500
C 	C 	0.82870 0.79261 0.15244 0.04100
H 	H 	0.86418 0.76459 0.16004 0.03100
Co	Co	0.91878 0.93654 0.49780 1.16800
Co	Co	0.12112 0.02769 0.49781 1.19300
Co	Co	0.11741 0.93447 0.49710 1.19000
Co	Co	0.92441 0.02922 0.49986 1.16900
C 	C 	0.80482 0.92715 0.55106 0.29000
Co	Co	0.74370 0.98635 0.49975 1.16600
Co	Co	0.29664 0.98007 0.50192 1.16600
C 	C 	0.79333 0.06062 0.45784 0.28300
O 	O 	0.31574 0.93239 0.46901 -0.37400
O 	O 	0.16981 0.98101 0.49149 -0.78000
C 	C 	0.25565 0.91226 0.45466 0.28200
O 	O 	0.01647 0.89615 0.49901 -0.42200
O 	O 	0.02433 0.06775 0.50207 -0.42800
C 	C 	0.25998 0.05008 0.45526 0.28100
O 	O 	0.02007 0.98229 0.48118 -0.54100
C 	C 	0.22191 0.92469 0.55220 0.29600
C 	C 	0.78348 0.91691 0.45342 0.28200
C 	C 	0.81525 0.03612 0.55308 0.29400
O 	O 	0.19298 0.89613 0.47006 -0.35700
O 	O 	0.72386 0.93954 0.46612 -0.37200
O 	O 	0.84183 0.89960 0.47035 -0.37700
O 	O 	0.31844 0.02806 0.46930 -0.37400
O 	O 	0.19722 0.06589 0.47082 -0.35900
O 	O 	0.28580 0.92979 0.53429 -0.37900
O 	O 	0.14759 0.93287 0.54240 -0.39700
O 	O 	0.75484 0.03516 0.53316 -0.38200
O 	O 	0.89051 0.02712 0.54469 -0.41800
O 	O 	0.87126 0.98391 0.49196 -0.79300
C 	C 	0.22621 0.03568 0.55290 0.29600
O 	O 	0.29018 0.02944 0.53522 -0.37900
O 	O 	0.15215 0.02695 0.54319 -0.39600
O 	O 	0.74432 0.93562 0.53202 -0.38800
O 	O 	0.88191 0.93225 0.54275 -0.40400
O 	O 	0.73308 0.03399 0.46563 -0.36200
O 	O 	0.84812 0.07271 0.47807 -0.39300
Co	Co	0.62661 0.27695 0.75233 1.18800
Co	Co	0.42487 0.18533 0.75195 1.18900
Co	Co	0.42783 0.27848 0.75256 1.18700
Co	Co	0.62145 0.18429 0.74999 1.18700
C 	C 	0.76112 0.29671 0.79670 0.28400
Co	Co	0.80199 0.22736 0.75068 1.16400
Co	Co	0.24901 0.23244 0.74770 1.17000
C 	C 	0.73129 0.17747 0.69712 0.29300
O 	O 	0.25923 0.28263 0.71538 -0.37300
O 	O 	0.37577 0.23186 0.75830 -0.78100
C 	C 	0.32300 0.28785 0.69741 0.29600
O 	O 	0.52850 0.31703 0.75066 -0.45500
O 	O 	0.52196 0.14541 0.74803 -0.46100
C 	C 	0.31995 0.17675 0.69710 0.29800
O 	O 	0.52542 0.23097 0.76870 -0.57100
C 	C 	0.28970 0.30042 0.79502 0.28100
C 	C 	0.74126 0.28646 0.69900 0.28800
C 	C 	0.75235 0.15321 0.79251 0.28400
O 	O 	0.39746 0.28001 0.70721 -0.40400
O 	O 	0.80170 0.27795 0.71806 -0.39200
O 	O 	0.66412 0.28127 0.70724 -0.38600
O 	O 	0.25596 0.18288 0.71477 -0.37500
O 	O 	0.39394 0.18573 0.70677 -0.40700
O 	O 	0.22971 0.28019 0.78068 -0.36500
O 	O 	0.35226 0.31663 0.77960 -0.36200
O 	O 	0.81259 0.17988 0.78478 -0.37200
O 	O 	0.69791 0.14094 0.77219 -0.38100
O 	O 	0.67428 0.22963 0.75810 -0.78200
C 	C 	0.28598 0.16266 0.79475 0.27900
O 	O 	0.22745 0.18462 0.78068 -0.36700
O 	O 	0.34888 0.14694 0.77921 -0.36100
O 	O 	0.82114 0.27444 0.78396 -0.38100
O 	O 	0.70262 0.31390 0.77979 -0.36800
O 	O 	0.79134 0.17844 0.71719 -0.38800
O 	O 	0.65581 0.18621 0.70537 -0.40400
C 	C 	0.24511 0.10195 0.63677 0.10200
C 	C 	0.30127 0.11032 0.61326 0.10000
N 	N 	0.29622 0.08738 0.58680 -0.08600
C 	C 	0.23677 0.05655 0.58275 -0.02400
C 	C 	0.18138 0.04777 0.60648 0.05200
N 	N 	0.18670 0.07066 0.63301 -0.09900
N 	N 	0.25012 0.12492 0.66323 -0.08300
N 	N 	0.35965 0.14163 0.61703 -0.10500
H 	H 	0.13397 0.02319 0.60368 0.05300
C 	C 	0.30954 0.15578 0.66727 -0.02400
C 	C 	0.36494 0.16454 0.64355 0.04900
H 	H 	0.41231 0.18914 0.64633 0.04300
C 	C 	0.23846 0.11337 0.38318 0.10000
C 	C 	0.30755 0.09940 0.36683 0.09800
N 	N 	0.32164 0.11542 0.33838 -0.08900
C 	C 	0.26912 0.14484 0.32548 -0.01700
C 	C 	0.20003 0.15883 0.34201 0.04600
N 	N 	0.18617 0.14276 0.37047 -0.09900
N 	N 	0.22436 0.09735 0.41163 -0.08600
N 	N 	0.35983 0.06999 0.37955 -0.10500
H 	H 	0.15771 0.18233 0.33230 0.05300
C 	C 	0.27687 0.06792 0.42453 -0.01800
C 	C 	0.34596 0.05392 0.40800 0.04400
H 	H 	0.38824 0.03040 0.41770 0.04500
C 	C 	0.24355 0.85975 0.63640 0.10200
C 	C 	0.30085 0.85246 0.61312 0.10000
N 	N 	0.29445 0.87484 0.58651 -0.08600
C 	C 	0.23256 0.90405 0.58207 -0.02400
C 	C 	0.17592 0.91175 0.60554 0.05100
N 	N 	0.18259 0.88942 0.63224 -0.09900
N 	N 	0.25004 0.83743 0.66304 -0.08300
N 	N 	0.36184 0.82280 0.61729 -0.10500
H 	H 	0.12667 0.93513 0.60245 0.05300
C 	C 	0.31201 0.80827 0.66749 -0.02400
C 	C 	0.36858 0.80052 0.64401 0.04900
H 	H 	0.41789 0.77718 0.64710 0.04400
C 	C 	0.79506 0.09894 0.63779 0.09300
C 	C 	0.75251 0.11504 0.61234 0.09500
N 	N 	0.75626 0.09296 0.58554 -0.08900
C 	C 	0.80154 0.05558 0.58304 -0.03200
C 	C 	0.84293 0.03910 0.60863 0.04300
N 	N 	0.83880 0.06111 0.63553 -0.11200
N 	N 	0.79112 0.12095 0.66461 -0.09100
N 	N 	0.70874 0.15285 0.61461 -0.10700
H 	H 	0.87906 0.00931 0.60698 0.03600
C 	C 	0.74567 0.15827 0.66714 -0.03100
C 	C 	0.70446 0.17481 0.64152 0.04500
H 	H 	0.66825 0.20457 0.64318 0.04400
C 	C 	0.79605 0.84504 0.38561 0.09200
C 	C 	0.74807 0.86842 0.36457 0.09400
N 	N 	0.73726 0.85223 0.33609 -0.08900
C 	C 	0.77298 0.81365 0.32763 -0.02600
C 	C 	0.82035 0.79009 0.34879 0.04000
N 	N 	0.83104 0.80633 0.37735 -0.11100
N 	N 	0.80694 0.86125 0.41409 -0.09200
N 	N 	0.71312 0.90715 0.37283 -0.10600
H 	H 	0.84788 0.75891 0.34261 0.04100
C 	C 	0.77132 0.89987 0.42253 -0.02700
C 	C 	0.72389 0.92341 0.40138 0.04200
H 	H 	0.69643 0.95461 0.40754 0.04700
C 	C 	0.79071 0.12788 0.37377 0.09100
C 	C 	0.75466 0.08603 0.37661 0.09300
N 	N 	0.75379 0.06550 0.40410 -0.09500
C 	C 	0.78795 0.08503 0.42894 -0.02800
C 	C 	0.82323 0.12717 0.42608 0.04000
N 	N 	0.82381 0.14770 0.39856 -0.11200
N 	N 	0.79163 0.14840 0.34628 -0.09700
N 	N 	0.72158 0.06620 0.35182 -0.10800
H 	H 	0.85016 0.14340 0.44560 0.04300
C 	C 	0.75753 0.12885 0.32144 -0.02800
C 	C 	0.72222 0.08672 0.32430 0.04200
H 	H 	0.69534 0.07047 0.30478 0.05000
C 	C 	0.30073 0.86734 0.36540 0.09900
C 	C 	0.24449 0.84537 0.38426 0.10100
N 	N 	0.23020 0.86050 0.41284 -0.08400
C 	C 	0.27034 0.89665 0.42348 -0.02000
C 	C 	0.32605 0.91881 0.40447 0.04500
N 	N 	0.34017 0.90365 0.37584 -0.10500
N 	N 	0.31504 0.85221 0.33682 -0.08700
N 	N 	0.20506 0.80906 0.37382 -0.10000
H 	H 	0.35771 0.94794 0.41242 0.04100
C 	C 	0.27492 0.81606 0.32618 -0.02000
C 	C 	0.21919 0.79390 0.34519 0.04800
H 	H 	0.18753 0.76478 0.33724 0.04700
C 	C 	0.73868 0.86382 0.63330 0.09600
C 	C 	0.80753 0.84985 0.61680 0.09200
N 	N 	0.82992 0.87165 0.59098 -0.09500
C 	C 	0.78577 0.90684 0.58086 -0.02700
C 	C 	0.71751 0.92105 0.59766 0.04400
N 	N 	0.69542 0.89929 0.62352 -0.10700
N 	N 	0.71627 0.84201 0.65911 -0.09000
N 	N 	0.85080 0.81438 0.62658 -0.11300
H 	H 	0.68201 0.94907 0.59006 0.03800
C 	C 	0.76041 0.80681 0.66923 -0.02500
C 	C 	0.82870 0.79261 0.65244 0.04100
H 	H 	0.86418 0.76459 0.66004 0.03100
Co	Co	0.91878 0.43654 0.99780 1.16700
Co	Co	0.12112 0.52769 0.99781 1.19000
Co	Co	0.11741 0.43447 0.99710 1.18900
Co	Co	0.92441 0.52922 0.99986 1.16600
C 	C 	0.80482 0.42715 0.05106 0.29000
Co	Co	0.74370 0.48635 0.99975 1.16500
Co	Co	0.29664 0.48007 0.00192 1.17000
C 	C 	0.79333 0.56061 0.95784 0.28400
O 	O 	0.31574 0.43239 0.96901 -0.37600
O 	O 	0.16981 0.48101 0.99149 -0.78100
C 	C 	0.25565 0.41226 0.95466 0.28300
O 	O 	0.01647 0.39615 0.99901 -0.42300
O 	O 	0.02433 0.56775 0.00207 -0.42300
C 	C 	0.25998 0.55008 0.95526 0.28100
O 	O 	0.02007 0.48229 0.98118 -0.54100
C 	C 	0.22191 0.42469 0.05220 0.29600
C 	C 	0.78348 0.41691 0.95342 0.28300
C 	C 	0.81525 0.53612 0.05308 0.29400
O 	O 	0.19298 0.39613 0.97006 -0.35900
O 	O 	0.72386 0.43954 0.96612 -0.37200
O 	O 	0.84183 0.39960 0.97035 -0.37800
O 	O 	0.31844 0.52806 0.96930 -0.37800
O 	O 	0.19722 0.56589 0.97082 -0.36100
O 	O 	0.28580 0.42979 0.03428 -0.37700
O 	O 	0.14759 0.43287 0.04240 -0.39400
O 	O 	0.75485 0.53516 0.03316 -0.38000
O 	O 	0.89051 0.52712 0.04469 -0.41700
O 	O 	0.87126 0.48391 0.99196 -0.79300
C 	C 	0.22621 0.53568 0.05290 0.29600
O 	O 	0.29018 0.52945 0.03522 -0.37800
O 	O 	0.15215 0.52694 0.04319 -0.39500
O 	O 	0.74432 0.43562 0.03202 -0.38500
O 	O 	0.88191 0.43225 0.04275 -0.40100
O 	O 	0.73308 0.53399 0.96563 -0.36500
O 	O 	0.84812 0.57271 0.97807 -0.39500
Co	Co	0.62661 0.77695 0.25233 1.18800
Co	Co	0.42487 0.68533 0.25195 1.18900
Co	Co	0.42783 0.77848 0.25256 1.18700
Co	Co	0.62145 0.68429 0.24999 1.18700
C 	C 	0.76112 0.79671 0.29670 0.28400
Co	Co	0.80199 0.72736 0.25068 1.16400
Co	Co	0.24901 0.73244 0.24770 1.17000
C 	C 	0.73129 0.67747 0.19712 0.29300
O 	O 	0.25923 0.78263 0.21538 -0.37300
O 	O 	0.37577 0.73186 0.25830 -0.78100
C 	C 	0.32300 0.78785 0.19741 0.29600
O 	O 	0.52850 0.81703 0.25066 -0.45600
O 	O 	0.52196 0.64541 0.24803 -0.46100
C 	C 	0.31995 0.67675 0.19710 0.29800
O 	O 	0.52542 0.73097 0.26870 -0.57100
C 	C 	0.28970 0.80042 0.29502 0.28100
C 	C 	0.74125 0.78646 0.19900 0.28800
C 	C 	0.75235 0.65321 0.29251 0.28400
O 	O 	0.39746 0.78001 0.20721 -0.40400
O 	O 	0.80170 0.77795 0.21807 -0.39200
O 	O 	0.66412 0.78127 0.20724 -0.38600
O 	O 	0.25596 0.68288 0.21477 -0.37500
O 	O 	0.39394 0.68573 0.20677 -0.40800
O 	O 	0.22971 0.78019 0.28068 -0.36500
O 	O 	0.35226 0.81663 0.27960 -0.36200
O 	O 	0.81259 0.67988 0.28478 -0.37200
O 	O 	0.69791 0.64093 0.27219 -0.38100
O 	O 	0.67428 0.72963 0.25810 -0.78200
C 	C 	0.28598 0.66266 0.29475 0.27900
O 	O 	0.22745 0.68462 0.28068 -0.36700
O 	O 	0.34888 0.64694 0.27921 -0.36100
O 	O 	0.82114 0.77444 0.28396 -0.38100
O 	O 	0.70262 0.81390 0.27979 -0.36800
O 	O 	0.79134 0.67844 0.21719 -0.38900
O 	O 	0.65581 0.68621 0.20537 -0.40400
C 	C 	0.24511 0.60195 0.13678 0.10200
C 	C 	0.30127 0.61032 0.11326 0.10000
N 	N 	0.29622 0.58738 0.08680 -0.08600
C 	C 	0.23677 0.55655 0.08275 -0.02400
C 	C 	0.18138 0.54777 0.10648 0.05100
N 	N 	0.18670 0.57066 0.13301 -0.09900
N 	N 	0.25012 0.62492 0.16323 -0.08300
N 	N 	0.35965 0.64163 0.11703 -0.10500
H 	H 	0.13397 0.52319 0.10368 0.05200
C 	C 	0.30954 0.65578 0.16727 -0.02400
C 	C 	0.36494 0.66454 0.14355 0.04900
H 	H 	0.41231 0.68914 0.14633 0.04400
C 	C 	0.23846 0.61337 0.88318 0.10000
C 	C 	0.30755 0.59940 0.86683 0.09800
N 	N 	0.32164 0.61542 0.83839 -0.09000
C 	C 	0.26912 0.64484 0.82548 -0.01700
C 	C 	0.20003 0.65883 0.84201 0.04600
N 	N 	0.18617 0.64277 0.87046 -0.10000
N 	N 	0.22436 0.59735 0.91163 -0.08600
N 	N 	0.35983 0.57000 0.87955 -0.10600
H 	H 	0.15771 0.68233 0.83230 0.05300
C 	C 	0.27687 0.56793 0.92453 -0.01900
C 	C 	0.34596 0.55392 0.90800 0.04400
H 	H 	0.38824 0.53040 0.91770 0.04400
C 	C 	0.24355 0.35975 0.13640 0.10200
C 	C 	0.30085 0.35246 0.11312 0.10000
N 	N 	0.29445 0.37484 0.08651 -0.08600
C 	C 	0.23256 0.40405 0.08207 -0.02300
C 	C 	0.17592 0.41175 0.10554 0.05200
N 	N 	0.18259 0.38942 0.13224 -0.09900
N 	N 	0.25004 0.33743 0.16304 -0.08300
N 	N 	0.36184 0.32280 0.11729 -0.10500
H 	H 	0.12667 0.43513 0.10245 0.05400
C 	C 	0.31201 0.30827 0.16749 -0.02400
C 	C 	0.36858 0.30052 0.14400 0.04900
H 	H 	0.41789 0.27718 0.14710 0.04400
C 	C 	0.79506 0.59894 0.13779 0.09300
C 	C 	0.75251 0.61504 0.11234 0.09500
N 	N 	0.75626 0.59296 0.08554 -0.08900
C 	C 	0.80155 0.55558 0.08304 -0.03200
C 	C 	0.84293 0.53910 0.10863 0.04200
N 	N 	0.83880 0.56111 0.13553 -0.11200
N 	N 	0.79112 0.62095 0.16461 -0.09200
N 	N 	0.70874 0.65285 0.11461 -0.10700
H 	H 	0.87906 0.50931 0.10698 0.03500
C 	C 	0.74567 0.65827 0.16714 -0.03100
C 	C 	0.70446 0.67481 0.14152 0.04500
H 	H 	0.66825 0.70457 0.14318 0.04400
C 	C 	0.79605 0.34504 0.88561 0.09200
C 	C 	0.74807 0.36842 0.86457 0.09500
N 	N 	0.73727 0.35224 0.83609 -0.08900
C 	C 	0.77298 0.31365 0.82763 -0.02600
C 	C 	0.82035 0.29009 0.84879 0.04000
N 	N 	0.83104 0.30633 0.87735 -0.11100
N 	N 	0.80694 0.36125 0.91409 -0.09300
N 	N 	0.71312 0.40715 0.87283 -0.10600
H 	H 	0.84788 0.25891 0.84261 0.04100
C 	C 	0.77132 0.39987 0.92253 -0.02700
C 	C 	0.72389 0.42341 0.90138 0.04200
H 	H 	0.69643 0.45461 0.90754 0.04700
C 	C 	0.79071 0.62788 0.87377 0.09100
C 	C 	0.75466 0.58603 0.87661 0.09200
N 	N 	0.75379 0.56550 0.90410 -0.09500
C 	C 	0.78795 0.58503 0.92894 -0.02900
C 	C 	0.82323 0.62717 0.92608 0.04000
N 	N 	0.82381 0.64770 0.89856 -0.11200
N 	N 	0.79163 0.64840 0.84628 -0.09700
N 	N 	0.72158 0.56620 0.85182 -0.10800
H 	H 	0.85016 0.64340 0.94560 0.04200
C 	C 	0.75753 0.62885 0.82144 -0.02800
C 	C 	0.72222 0.58672 0.82430 0.04200
H 	H 	0.69534 0.57047 0.80478 0.05000
C 	C 	0.30073 0.36734 0.86540 0.09900
C 	C 	0.24449 0.34537 0.88426 0.10100
N 	N 	0.23020 0.36050 0.91284 -0.08400
C 	C 	0.27034 0.39665 0.92348 -0.02000
C 	C 	0.32605 0.41881 0.90447 0.04500
N 	N 	0.34017 0.40365 0.87584 -0.10400
N 	N 	0.31504 0.35221 0.83682 -0.08600
N 	N 	0.20506 0.30906 0.87382 -0.10000
H 	H 	0.35771 0.44794 0.91242 0.04100
C 	C 	0.27492 0.31606 0.82618 -0.02000
C 	C 	0.21919 0.29390 0.84519 0.04800
H 	H 	0.18753 0.26478 0.83724 0.04700
C 	C 	0.73868 0.36382 0.13329 0.09600
C 	C 	0.80753 0.34985 0.11680 0.09200
N 	N 	0.82992 0.37165 0.09098 -0.09500
C 	C 	0.78577 0.40684 0.08086 -0.02600
C 	C 	0.71751 0.42105 0.09766 0.04500
N 	N 	0.69542 0.39929 0.12352 -0.10600
N 	N 	0.71627 0.34201 0.15911 -0.09000
N 	N 	0.85080 0.31438 0.12658 -0.11300
H 	H 	0.68201 0.44907 0.09006 0.03900
C 	C 	0.76041 0.30681 0.16923 -0.02500
C 	C 	0.82870 0.29261 0.15244 0.04100
H 	H 	0.86418 0.26459 0.16004 0.03100
Co	Co	0.91878 0.43654 0.49780 1.16800
Co	Co	0.12112 0.52769 0.49781 1.19200
Co	Co	0.11741 0.43447 0.49710 1.19000
Co	Co	0.92441 0.52922 0.49986 1.16800
C 	C 	0.80482 0.42715 0.55106 0.29000
Co	Co	0.74370 0.48635 0.49975 1.16700
Co	Co	0.29664 0.48007 0.50192 1.16700
C 	C 	0.79333 0.56061 0.45784 0.28300
O 	O 	0.31574 0.43239 0.46901 -0.37400
O 	O 	0.16981 0.48101 0.49149 -0.77900
C 	C 	0.25565 0.41226 0.45466 0.28200
O 	O 	0.01647 0.39615 0.49901 -0.42100
O 	O 	0.02433 0.56775 0.50207 -0.42800
C 	C 	0.25998 0.55008 0.45526 0.28100
O 	O 	0.02007 0.48229 0.48118 -0.54000
C 	C 	0.22191 0.42469 0.55220 0.29600
C 	C 	0.78348 0.41691 0.45342 0.28200
C 	C 	0.81525 0.53612 0.55308 0.29400
O 	O 	0.19298 0.39613 0.47006 -0.35700
O 	O 	0.72386 0.43954 0.46612 -0.37100
O 	O 	0.84183 0.39960 0.47035 -0.37700
O 	O 	0.31844 0.52806 0.46930 -0.37600
O 	O 	0.19722 0.56590 0.47082 -0.35900
O 	O 	0.28580 0.42979 0.53429 -0.37900
O 	O 	0.14759 0.43287 0.54240 -0.39600
O 	O 	0.75484 0.53516 0.53316 -0.38300
O 	O 	0.89051 0.52712 0.54469 -0.41900
O 	O 	0.87126 0.48390 0.49196 -0.79200
C 	C 	0.22621 0.53568 0.55290 0.29600
O 	O 	0.29018 0.52945 0.53522 -0.38000
O 	O 	0.15215 0.52694 0.54319 -0.39700
O 	O 	0.74432 0.43562 0.53202 -0.38800
O 	O 	0.88191 0.43225 0.54275 -0.40400
O 	O 	0.73308 0.53399 0.46563 -0.36400
O 	O 	0.84812 0.57271 0.47807 -0.39300
Co	Co	0.62661 0.77695 0.75233 1.18800
Co	Co	0.42487 0.68533 0.75195 1.18900
Co	Co	0.42783 0.77848 0.75256 1.18700
Co	Co	0.62145 0.68429 0.74999 1.18700
C 	C 	0.76112 0.79671 0.79670 0.28400
Co	Co	0.80199 0.72736 0.75068 1.16400
Co	Co	0.24901 0.73244 0.74770 1.17000
C 	C 	0.73129 0.67747 0.69712 0.29300
O 	O 	0.25923 0.78263 0.71538 -0.37300
O 	O 	0.37577 0.73186 0.75830 -0.78100
C 	C 	0.32300 0.78785 0.69741 0.29600
O 	O 	0.52850 0.81703 0.75066 -0.45600
O 	O 	0.52196 0.64541 0.74803 -0.46100
C 	C 	0.31995 0.67675 0.69710 0.29800
O 	O 	0.52542 0.73097 0.76870 -0.57100
C 	C 	0.28970 0.80042 0.79502 0.28100
C 	C 	0.74126 0.78646 0.69900 0.28800
C 	C 	0.75235 0.65321 0.79251 0.28400
O 	O 	0.39746 0.78001 0.70721 -0.40400
O 	O 	0.80170 0.77795 0.71806 -0.39200
O 	O 	0.66412 0.78127 0.70724 -0.38600
O 	O 	0.25596 0.68288 0.71477 -0.37500
O 	O 	0.39394 0.68573 0.70677 -0.40700
O 	O 	0.22971 0.78019 0.78068 -0.36500
O 	O 	0.35226 0.81663 0.77960 -0.36200
O 	O 	0.81259 0.67988 0.78478 -0.37200
O 	O 	0.69791 0.64093 0.77219 -0.38100
O 	O 	0.67428 0.72963 0.75810 -0.78200
C 	C 	0.28598 0.66266 0.79475 0.27900
O 	O 	0.22745 0.68462 0.78068 -0.36700
O 	O 	0.34888 0.64694 0.77921 -0.36100
O 	O 	0.82114 0.77444 0.78396 -0.38100
O 	O 	0.70262 0.81390 0.77979 -0.36800
O 	O 	0.79134 0.67844 0.71719 -0.38900
O 	O 	0.65581 0.68621 0.70537 -0.40400
C 	C 	0.24511 0.60195 0.63677 0.10200
C 	C 	0.30127 0.61032 0.61326 0.09900
N 	N 	0.29622 0.58738 0.58680 -0.08600
C 	C 	0.23677 0.55655 0.58275 -0.02400
C 	C 	0.18138 0.54777 0.60648 0.05100
N 	N 	0.18670 0.57066 0.63301 -0.09900
N 	N 	0.25012 0.62492 0.66323 -0.08300
N 	N 	0.35965 0.64163 0.61703 -0.10500
H 	H 	0.13397 0.52319 0.60368 0.05200
C 	C 	0.30954 0.65578 0.66727 -0.02400
C 	C 	0.36494 0.66454 0.64355 0.04900
H 	H 	0.41231 0.68914 0.64633 0.04300
C 	C 	0.23846 0.61337 0.38318 0.10000
C 	C 	0.30755 0.59940 0.36683 0.09800
N 	N 	0.32164 0.61542 0.33838 -0.09000
C 	C 	0.26912 0.64484 0.32548 -0.01700
C 	C 	0.20003 0.65883 0.34201 0.04600
N 	N 	0.18617 0.64276 0.37047 -0.09900
N 	N 	0.22436 0.59735 0.41163 -0.08600
N 	N 	0.35983 0.57000 0.37955 -0.10500
H 	H 	0.15771 0.68234 0.33230 0.05300
C 	C 	0.27687 0.56792 0.42453 -0.01800
C 	C 	0.34596 0.55392 0.40800 0.04400
H 	H 	0.38824 0.53040 0.41770 0.04500
C 	C 	0.24355 0.35975 0.63640 0.10200
C 	C 	0.30085 0.35246 0.61312 0.10000
N 	N 	0.29445 0.37484 0.58651 -0.08600
C 	C 	0.23256 0.40405 0.58207 -0.02400
C 	C 	0.17592 0.41175 0.60554 0.05200
N 	N 	0.18259 0.38942 0.63224 -0.09900
N 	N 	0.25004 0.33743 0.66304 -0.08300
N 	N 	0.36184 0.32280 0.61729 -0.10500
H 	H 	0.12667 0.43513 0.60245 0.05400
C 	C 	0.31201 0.30827 0.66749 -0.02400
C 	C 	0.36858 0.30052 0.64401 0.04900
H 	H 	0.41789 0.27718 0.64710 0.04400
C 	C 	0.79506 0.59894 0.63779 0.09300
C 	C 	0.75251 0.61504 0.61234 0.09500
N 	N 	0.75626 0.59296 0.58554 -0.08900
C 	C 	0.80154 0.55558 0.58304 -0.03200
C 	C 	0.84293 0.53910 0.60863 0.04200
N 	N 	0.83880 0.56111 0.63553 -0.11200
N 	N 	0.79112 0.62095 0.66461 -0.09200
N 	N 	0.70874 0.65285 0.61461 -0.10700
H 	H 	0.87906 0.50931 0.60698 0.03500
C 	C 	0.74567 0.65827 0.66714 -0.03100
C 	C 	0.70446 0.67481 0.64152 0.04500
H 	H 	0.66825 0.70457 0.64318 0.04400
C 	C 	0.79605 0.34504 0.38561 0.09200
C 	C 	0.74807 0.36842 0.36457 0.09500
N 	N 	0.73727 0.35223 0.33609 -0.08900
C 	C 	0.77298 0.31365 0.32763 -0.02600
C 	C 	0.82035 0.29009 0.34879 0.04000
N 	N 	0.83104 0.30633 0.37735 -0.11100
N 	N 	0.80694 0.36125 0.41409 -0.09200
N 	N 	0.71312 0.40715 0.37283 -0.10600
H 	H 	0.84788 0.25891 0.34261 0.04200
C 	C 	0.77132 0.39987 0.42253 -0.02700
C 	C 	0.72389 0.42341 0.40138 0.04200
H 	H 	0.69643 0.45462 0.40754 0.04800
C 	C 	0.79071 0.62788 0.37377 0.09100
C 	C 	0.75466 0.58603 0.37661 0.09300
N 	N 	0.75379 0.56550 0.40410 -0.09500
C 	C 	0.78795 0.58503 0.42894 -0.02900
C 	C 	0.82323 0.62717 0.42608 0.04000
N 	N 	0.82381 0.64770 0.39856 -0.11200
N 	N 	0.79163 0.64840 0.34628 -0.09700
N 	N 	0.72158 0.56620 0.35182 -0.10800
H 	H 	0.85016 0.64339 0.44560 0.04300
C 	C 	0.75753 0.62885 0.32144 -0.02800
C 	C 	0.72222 0.58672 0.32430 0.04200
H 	H 	0.69534 0.57047 0.30478 0.05000
C 	C 	0.30073 0.36734 0.36540 0.09900
C 	C 	0.24449 0.34537 0.38426 0.10100
N 	N 	0.23020 0.36050 0.41284 -0.08400
C 	C 	0.27034 0.39665 0.42348 -0.02000
C 	C 	0.32605 0.41881 0.40447 0.04500
N 	N 	0.34017 0.40365 0.37584 -0.10400
N 	N 	0.31504 0.35221 0.33682 -0.08600
N 	N 	0.20506 0.30906 0.37382 -0.10000
H 	H 	0.35771 0.44794 0.41242 0.04100
C 	C 	0.27492 0.31606 0.32618 -0.02000
C 	C 	0.21919 0.29390 0.34519 0.04800
H 	H 	0.18753 0.26478 0.33724 0.04700
C 	C 	0.73868 0.36382 0.63330 0.09600
C 	C 	0.80753 0.34985 0.61680 0.09200
N 	N 	0.82992 0.37165 0.59098 -0.09500
C 	C 	0.78577 0.40684 0.58086 -0.02700
C 	C 	0.71751 0.42105 0.59766 0.04500
N 	N 	0.69542 0.39929 0.62352 -0.10600
N 	N 	0.71627 0.34201 0.65911 -0.09000
N 	N 	0.85080 0.31438 0.62658 -0.11300
H 	H 	0.68201 0.44907 0.59006 0.03900
C 	C 	0.76041 0.30681 0.66923 -0.02500
C 	C 	0.82870 0.29262 0.65244 0.04100
H 	H 	0.86418 0.26459 0.66004 0.03100
