data_crystal

_cell_length_a 17.67319
_cell_length_b 17.05340
_cell_length_c 49.43725
_cell_angle_alpha 89.64146
_cell_angle_beta  89.64813
_cell_angle_gamma 119.47477

_symmetry_space_group_name_	'P 1'
_symmetry_space_group_name_H-M	'P 1'

loop_
_symmetry_equiv_pos_as_xyz
  x,y,z

loop_
_atom_site_label
_atom_site_type_symbol
_atom_site_fract_x
_atom_site_fract_y
_atom_site_fract_z
_atom_site_charge
Ni	Ni	0.05428 0.94172 0.76850 1.14800
Ni	Ni	0.03842 0.09155 0.73129 1.13700
O 	O 	0.12484 0.05883 0.79066 -0.27000
O 	O 	0.08909 0.03118 0.70779 -0.30000
C 	C 	0.06580 0.08651 0.16781 0.30400
C 	C 	0.15066 0.10476 0.23981 0.29500
C 	C 	0.94716 0.81795 0.25429 0.27600
Ni	Ni	0.02843 0.94061 0.20745 1.15500
O 	O 	0.93540 0.82370 0.19236 -0.27900
O 	O 	0.07762 0.13952 0.18840 -0.30300
O 	O 	0.02919 0.99889 0.17138 -0.29900
O 	O 	0.02176 0.87147 0.24139 -0.26600
O 	O 	0.09488 0.13419 0.24470 -0.28400
C 	C 	0.12252 0.25408 0.04170 0.04500
C 	C 	0.08749 0.31960 0.00088 0.77800
H 	H 	0.05699 0.19744 0.04105 0.14600
C 	C 	0.09289 0.23586 0.10750 -0.08900
C 	C 	0.06562 0.19048 0.13256 0.08300
C 	C 	0.08873 0.12577 0.14021 0.01700
C 	C 	0.07338 0.31123 0.10069 0.78700
F 	F 	0.03613 0.35319 0.01093 -0.31900
F 	F 	0.03444 0.23126 0.99314 -0.33900
F 	F 	0.13213 0.36877 0.97813 -0.34500
C 	C 	0.97128 0.54653 0.03941 0.77900
C 	C 	0.79805 0.67866 0.15216 -0.03300
C 	C 	0.82450 0.63746 0.13256 0.05000
F 	F 	0.99025 0.60058 0.01666 -0.37200
C 	C 	0.18196 0.05814 0.29573 0.77600
F 	F 	0.21695 0.05231 0.32013 -0.35500
F 	F 	0.16739 0.98452 0.28037 -0.40200
C 	C 	0.96342 0.63667 0.29301 0.02900
C 	C 	0.01091 0.68646 0.31534 0.12600
C 	C 	0.01435 0.76944 0.32117 -0.07400
C 	C 	0.98452 0.80834 0.30181 0.07300
C 	C 	0.94891 0.76427 0.27750 0.03800
C 	C 	0.07515 0.66482 0.32732 0.09000
C 	C 	0.06002 0.82232 0.34618 0.79200
H 	H 	0.99431 0.87558 0.30482 0.12600
C 	C 	0.05213 0.59948 0.34825 -0.06300
C 	C 	0.11777 0.58679 0.36013 0.08100
H 	H 	0.10246 0.54093 0.37716 0.12600
F 	F 	0.04284 0.76550 0.36822 -0.34600
F 	F 	0.03237 0.88310 0.35268 -0.34100
C 	C 	0.04027 0.52758 0.47963 0.30800
C 	C 	0.07896 0.43954 0.50961 0.29700
C 	C 	0.15697 0.46918 0.49518 0.30300
F 	F 	0.98555 0.55844 0.47237 -0.31700
F 	F 	0.05457 0.98700 0.65512 -0.38400
F 	F 	0.07403 0.21313 0.58712 -0.35600
F 	F 	0.04095 0.07156 0.59683 -0.37100
F 	F 	0.12572 0.83729 0.70938 -0.35700
C 	C 	0.00359 0.63345 0.91732 0.31400
C 	C 	0.07913 0.67479 0.93294 0.31500
C 	C 	0.09094 0.62661 0.95411 -0.14400
C 	C 	0.03019 0.53521 0.95810 0.32900
F 	F 	0.04115 0.48744 0.97825 -0.27800
F 	F 	0.99175 0.68144 0.89740 -0.33600
F 	F 	0.98765 0.16717 0.80683 -0.44400
F 	F 	0.95064 0.78075 0.00025 -0.35900
F 	F 	0.03118 0.12874 0.88638 -0.33000
F 	F 	0.07414 0.04056 0.90759 -0.37300
C 	C 	0.99470 0.60421 0.06448 -0.05500
H 	H 	0.02769 0.20660 0.14645 0.11900
F 	F 	0.10373 0.05545 0.30070 -0.42300
F 	F 	0.02938 0.68018 0.73933 -0.33000
F 	F 	0.98738 0.85395 0.63435 -0.35400
F 	F 	0.03928 0.33344 0.12275 -0.36800
C 	C 	0.02503 0.67752 0.11662 -0.07600
H 	H 	0.80095 0.56558 0.13362 0.14700
F 	F 	0.01699 0.50001 0.03830 -0.35000
F 	F 	0.14848 0.38810 0.09265 -0.39900
F 	F 	0.19036 0.30485 0.29710 -0.40500
C 	C 	0.11790 0.55617 0.46505 0.30200
C 	C 	0.15303 0.14037 0.77994 0.30500
C 	C 	0.15096 0.01498 0.71580 0.32300
O 	O 	0.14965 0.15207 0.75347 -0.32000
O 	O 	0.15885 0.00054 0.74147 -0.26300
C 	C 	0.17279 0.66556 0.96911 0.42000
O 	O 	0.15898 0.68690 0.03286 -0.28700
O 	O 	0.14138 0.05258 0.21871 -0.28600
C 	C 	0.17610 0.26171 0.06351 0.10100
C 	C 	0.14965 0.32460 0.02257 -0.03400
C 	C 	0.13626 0.20863 0.08866 0.09900
C 	C 	0.13542 0.10163 0.12175 -0.04200
C 	C 	0.14968 0.13628 0.09517 0.05400
C 	C 	0.17404 0.04341 0.13057 0.77700
H 	H 	0.17724 0.11163 0.08004 0.14500
F 	F 	0.10902 0.95484 0.13290 -0.37000
C 	C 	0.09272 0.67627 0.10197 0.09000
C 	C 	0.07966 0.64483 0.07529 0.03600
C 	C 	0.03531 0.69868 0.14661 0.79500
C 	C 	0.72936 0.62150 0.17289 0.78100
F 	F 	0.68485 0.66455 0.18169 -0.36000
F 	F 	0.76831 0.60523 0.19468 -0.32700
C 	C 	0.24287 0.14455 0.28086 -0.05500
F 	F 	0.14869 0.86929 0.34142 -0.36000
C 	C 	0.17562 0.52553 0.47240 -0.16400
F 	F 	0.13647 0.61273 0.44350 -0.33900
F 	F 	0.21241 0.43937 0.50257 -0.31700
F 	F 	0.14089 0.76107 0.92734 -0.30100
H 	H 	0.13568 0.28717 0.77856 0.11500
C 	C 	0.15619 0.66321 0.05834 0.32100
F 	F 	0.01341 0.28435 0.08010 -0.38200
H 	H 	0.15637 0.70276 0.11092 0.12400
F 	F 	0.96547 0.63215 0.16092 -0.37500
F 	F 	0.11018 0.70288 0.15665 -0.35900
C 	C 	0.01864 0.46638 0.50142 -0.15900
C 	C 	0.23602 0.15271 0.25268 0.04100
O 	O 	0.20721 0.74766 0.97886 -0.29400
F 	F 	0.21282 0.44367 0.28792 -0.37500
C 	C 	0.27414 0.63929 0.36774 0.29700
C 	C 	0.25095 0.54562 0.45484 0.39100
O 	O 	0.27778 0.56344 0.37180 -0.32300
O 	O 	0.23606 0.51526 0.42964 -0.32200
C 	C 	0.24346 0.49208 0.01759 0.32400
Ni	Ni	0.26889 0.78443 0.01491 1.14300
O 	O 	0.22640 0.67178 0.07007 -0.31000
O 	O 	0.22618 0.53731 0.03532 -0.29400
O 	O 	0.20876 0.61557 0.97320 -0.31200
C 	C 	0.26416 0.33082 0.06300 -0.09500
C 	C 	0.29074 0.40117 0.04394 0.07700
C 	C 	0.23100 0.40323 0.02585 0.01500
F 	F 	0.21498 0.07189 0.15521 -0.38100
F 	F 	0.23518 0.04786 0.11205 -0.36200
F 	F 	0.66969 0.53995 0.16186 -0.33900
C 	C 	0.24786 0.38709 0.28545 0.79000
C 	C 	0.30406 0.22516 0.23867 0.09200
C 	C 	0.30243 0.22044 0.29529 0.05600
H 	H 	0.30225 0.22833 0.21679 0.13700
H 	H 	0.29992 0.21987 0.31721 0.13000
F 	F 	0.25599 0.37580 0.25814 -0.38300
C 	C 	0.20410 0.63598 0.35084 0.03100
C 	C 	0.22371 0.69136 0.32740 -0.05100
C 	C 	0.15996 0.70863 0.31683 0.05200
H 	H 	0.17631 0.75682 0.30037 0.14100
C 	C 	0.24723 0.09168 0.67613 0.10300
C 	C 	0.21852 0.02416 0.69618 0.03600
C 	C 	0.25834 0.96966 0.69815 -0.03700
H 	H 	0.21546 0.13185 0.67401 0.12900
C 	C 	0.21458 0.88020 0.71321 0.78300
F 	F 	0.23219 0.89399 0.74051 -0.35900
F 	F 	0.24419 0.82363 0.70386 -0.34800
C 	C 	0.21223 0.36234 0.81270 -0.08000
C 	C 	0.17858 0.29001 0.79456 0.09400
C 	C 	0.19890 0.22041 0.79708 0.02800
C 	C 	0.26171 0.22800 0.81608 -0.05400
C 	C 	0.19372 0.43964 0.80835 0.79100
F 	F 	0.30978 0.14285 0.78987 -0.37800
F 	F 	0.24261 0.08594 0.83003 -0.37300
F 	F 	0.18009 0.47059 0.83268 -0.35500
F 	F 	0.12007 0.41301 0.79292 -0.36800
F 	F 	0.18742 0.38578 0.91496 -0.34600
F 	F 	0.13973 0.34628 0.87269 -0.34000
C 	C 	0.20495 0.35907 0.89043 0.79400
H 	H 	0.95876 0.57201 0.28912 0.15500
O 	O 	0.29115 0.53290 0.99596 -0.28000
F 	F 	0.20437 0.27836 0.89415 -0.36400
H 	H 	0.31373 0.51808 0.32327 0.12400
F 	F 	0.03956 0.78057 0.15107 -0.38200
C 	C 	0.94753 0.65818 0.10302 0.08900
C 	C 	0.93087 0.67436 0.27413 -0.04600
F 	F 	0.92354 0.65826 0.22640 -0.35600
C 	C 	0.33555 0.42584 0.29929 -0.09400
C 	C 	0.35805 0.30067 0.28140 0.09100
C 	C 	0.93091 0.61716 0.07763 0.05600
C 	C 	0.88965 0.69079 0.11375 0.10400
C 	C 	0.84272 0.77363 0.15369 0.02100
F 	F 	0.88351 0.48383 0.03945 -0.37000
F 	F 	0.86322 0.53169 0.25156 -0.34100
C 	C 	0.86663 0.81697 0.18025 0.31400
H 	H 	0.86933 0.59717 0.06790 0.14000
C 	C 	0.87878 0.61953 0.25022 0.78400
C 	C 	0.91224 0.78217 0.11036 -0.09100
C 	C 	0.76579 0.62968 0.94833 0.27100
C 	C 	0.60128 0.22762 0.93701 0.40300
C 	C 	0.85067 0.50576 0.91224 0.40300
C 	C 	0.54158 0.37632 0.97751 0.36400
C 	C 	0.61551 0.36893 0.86297 0.31500
C 	C 	0.51303 0.49484 0.89788 0.28500
Ni	Ni	0.71201 0.42500 0.95203 1.13800
Ni	Ni	0.53376 0.34278 0.91721 1.14200
Ni	Ni	0.69814 0.52672 0.89770 1.15300
O 	O 	0.78567 0.56708 0.95689 -0.27400
O 	O 	0.71942 0.61901 0.92615 -0.33000
O 	O 	0.54252 0.34689 0.87624 -0.31100
O 	O 	0.65414 0.28395 0.95511 -0.27600
O 	O 	0.58296 0.25841 0.91529 -0.34000
O 	O 	0.58750 0.52353 0.88424 -0.26200
O 	O 	0.79167 0.42733 0.92125 -0.31400
O 	O 	0.82563 0.56168 0.90310 -0.30300
O 	O 	0.48531 0.42700 0.91543 -0.31500
O 	O 	0.62499 0.40837 0.98247 -0.29500
O 	O 	0.50231 0.31639 0.95784 -0.30000
O 	O 	0.69010 0.43522 0.87113 -0.29900
O 	O 	0.64204 0.44187 0.92666 -0.71900
H 	H 	0.62060 0.47476 0.93772 0.16500
C 	C 	0.82157 0.18219 0.53753 0.30200
C 	C 	0.65190 0.36378 0.48009 0.40800
C 	C 	0.92980 0.42298 0.51355 0.39000
C 	C 	0.56903 0.14610 0.49427 0.40300
C 	C 	0.74143 0.45709 0.56922 0.30600
C 	C 	0.62952 0.22021 0.58808 0.32300
Ni	Ni	0.75873 0.27571 0.49677 1.14000
Ni	Ni	0.62065 0.29946 0.53565 1.14900
Ni	Ni	0.80245 0.33287 0.55953 1.13700
O 	O 	0.83334 0.22122 0.51321 -0.28500
O 	O 	0.80591 0.21674 0.55944 -0.29000
O 	O 	0.66083 0.40459 0.56142 -0.27100
O 	O 	0.69259 0.32138 0.47147 -0.27500
O 	O 	0.65897 0.38956 0.50514 -0.33700
O 	O 	0.71127 0.28697 0.58983 -0.33300
O 	O 	0.86363 0.40478 0.49800 -0.30600
O 	O 	0.91668 0.38658 0.53792 -0.31600
O 	O 	0.57920 0.21534 0.56760 -0.27000
O 	O 	0.64672 0.15285 0.49507 -0.29800
O 	O 	0.54588 0.19396 0.51026 -0.27000
O 	O 	0.80471 0.45033 0.55769 -0.34700
O 	O 	0.71882 0.28249 0.53157 -0.72200
H 	H 	0.69018 0.21860 0.53715 0.19600
C 	C 	0.90794 0.77598 0.74418 0.32600
C 	C 	0.91315 0.90504 0.81031 0.29000
C 	C 	0.89791 0.97014 0.69548 0.33200
C 	C 	0.89813 0.10845 0.75899 0.30200
Ni	Ni	0.86538 0.91972 0.75351 1.14000
O 	O 	0.86207 0.90274 0.71301 -0.32600
O 	O 	0.99303 0.82734 0.74430 -0.24100
O 	O 	0.85921 0.79862 0.75847 -0.29400
O 	O 	0.98192 0.15189 0.75179 -0.31100
O 	O 	0.84464 0.02615 0.75005 -0.32600
O 	O 	0.96466 0.87636 0.79996 -0.26400
O 	O 	0.86067 0.92067 0.79467 -0.25900
O 	O 	0.94338 0.05344 0.70391 -0.33600
O 	O 	0.98788 0.99316 0.75602 -0.71600
H 	H 	0.98940 0.02707 0.77222 0.16800
C 	C 	0.61160 0.79289 0.42121 0.32700
C 	C 	0.44712 0.58165 0.35687 0.32800
C 	C 	0.43116 0.83863 0.43581 0.37400
C 	C 	0.45621 0.51348 0.43917 0.41000
Ni	Ni	0.45875 0.74086 0.38719 1.13800
Ni	Ni	0.44264 0.67539 0.44971 1.14200
Ni	Ni	0.33229 0.53243 0.40411 1.13600
O 	O 	0.33926 0.71972 0.37411 -0.27600
O 	O 	0.49780 0.59725 0.44744 -0.31600
O 	O 	0.57398 0.74892 0.39930 -0.30200
O 	O 	0.56421 0.78307 0.44296 -0.30500
O 	O 	0.45331 0.66131 0.35440 -0.27100
O 	O 	0.42969 0.54119 0.38041 -0.32200
O 	O 	0.32887 0.57613 0.46601 -0.30400
O 	O 	0.47705 0.84545 0.41345 -0.30700
O 	O 	0.40346 0.76812 0.45252 -0.30800
O 	O 	0.37400 0.47608 0.43211 -0.31600
O 	O 	0.39630 0.65495 0.41406 -0.72400
H 	H 	0.34748 0.66647 0.41699 0.17900
C 	C 	0.45773 0.63845 0.01382 0.39000
C 	C 	0.39159 0.85326 0.06234 0.30100
C 	C 	0.40826 0.86587 0.97341 0.40300
Ni	Ni	0.32294 0.65804 0.04983 1.13600
Ni	Ni	0.33187 0.66376 0.98368 1.14900
O 	O 	0.42429 0.63160 0.03861 -0.29800
O 	O 	0.45096 0.69033 0.99522 -0.30300
O 	O 	0.37662 0.78350 0.96278 -0.30100
O 	O 	0.37229 0.88078 0.99505 -0.30700
O 	O 	0.40663 0.78459 0.06487 -0.27000
O 	O 	0.31804 0.84239 0.05165 -0.30800
O 	O 	0.32721 0.71604 0.01699 -0.72400
H 	H 	0.38796 0.76518 0.01758 0.19400
C 	C 	0.87968 0.03190 0.27248 0.27600
C 	C 	0.80974 0.02179 0.19772 0.30400
Ni	Ni	0.98884 0.10335 0.22032 1.13000
Ni	Ni	0.84072 0.89398 0.23005 1.14300
O 	O 	0.90649 0.09328 0.25265 -0.26300
O 	O 	0.84901 0.94475 0.26756 -0.28800
O 	O 	0.87064 0.79984 0.24404 -0.26700
O 	O 	0.89210 0.07738 0.19243 -0.31200
O 	O 	0.78620 0.97035 0.21948 -0.27500
O 	O 	0.81735 0.84447 0.19221 -0.31600
O 	O 	0.95930 0.98246 0.22483 -0.72800
H 	H 	0.97959 0.98496 0.24348 0.17100
C 	C 	0.32830 0.33251 0.08365 0.78600
H 	H 	0.35455 0.45934 0.04535 0.09000
F 	F 	0.33260 0.25389 0.08218 -0.38300
F 	F 	0.30235 0.34074 0.10944 -0.37200
F 	F 	0.41123 0.40385 0.07909 -0.36500
C 	C 	0.59241 0.02506 0.09379 0.03700
C 	C 	0.56203 0.01046 0.12058 0.08800
C 	C 	0.47282 0.97902 0.12571 -0.07100
C 	C 	0.41352 0.93740 0.10463 0.09800
C 	C 	0.44406 0.93326 0.07871 0.03100
C 	C 	0.53320 0.98864 0.07251 -0.03100
C 	C 	0.61949 0.01048 0.14222 0.09300
C 	C 	0.44045 0.98288 0.15385 0.79700
H 	H 	0.34433 0.90023 0.10897 0.12600
C 	C 	0.56580 0.00029 0.04364 0.76500
H 	H 	0.66166 0.05640 0.08975 0.13200
C 	C 	0.62662 0.93254 0.14774 -0.08400
C 	C 	0.68810 0.93780 0.16656 0.09300
C 	C 	0.74269 0.01872 0.17959 0.00500
C 	C 	0.73334 0.09558 0.17490 -0.03900
C 	C 	0.67368 0.09128 0.15546 0.04000
C 	C 	0.57352 0.84572 0.13217 0.78500
H 	H 	0.69544 0.87943 0.17060 0.11100
C 	C 	0.78943 0.18332 0.18954 0.77500
H 	H 	0.66999 0.15116 0.15030 0.14800
F 	F 	0.57164 0.92546 0.03614 -0.37000
F 	F 	0.64688 0.07609 0.04076 -0.35800
F 	F 	0.50920 0.01024 0.02663 -0.41000
F 	F 	0.49377 0.06601 0.16517 -0.37700
F 	F 	0.44026 0.91641 0.17005 -0.35000
F 	F 	0.35694 0.97046 0.15317 -0.34700
F 	F 	0.75588 0.24130 0.18732 -0.34600
F 	F 	0.87229 0.22537 0.17843 -0.38800
F 	F 	0.79385 0.16731 0.21679 -0.35900
F 	F 	0.58531 0.77637 0.14206 -0.36600
F 	F 	0.59852 0.85933 0.10524 -0.39900
F 	F 	0.48591 0.81803 0.13419 -0.38000
C 	C 	0.88995 0.82390 0.13097 0.10000
C 	C 	0.96322 0.83549 0.08565 0.79000
H 	H 	0.91704 0.89637 0.13080 0.09700
F 	F 	0.96562 0.91776 0.08386 -0.39800
F 	F 	0.92455 0.78768 0.06251 -0.38000
F 	F 	0.04757 0.85085 0.08678 -0.37700
C 	C 	0.82375 0.93279 0.38856 0.04400
C 	C 	0.81451 0.00861 0.38331 0.10100
C 	C 	0.76205 0.02719 0.40103 -0.11800
C 	C 	0.70266 0.95821 0.41833 0.10000
C 	C 	0.69787 0.87361 0.41840 0.01100
C 	C 	0.76746 0.86627 0.40695 -0.04900
C 	C 	0.83548 0.04841 0.35566 0.09800
C 	C 	0.76094 0.11531 0.39930 0.79700
H 	H 	0.65391 0.96695 0.42922 0.10800
C 	C 	0.77583 0.78328 0.41158 0.78100
H 	H 	0.86760 0.92055 0.37616 0.14900
C 	C 	0.92219 0.09241 0.34562 -0.08100
C 	C 	0.93672 0.09471 0.31754 0.05500
C 	C 	0.86661 0.05768 0.29970 0.03900
C 	C 	0.78210 0.03137 0.30949 -0.05200
C 	C 	0.76675 0.02391 0.33753 0.03100
C 	C 	0.99917 0.12925 0.36452 0.76900
H 	H 	0.00221 0.12087 0.30969 0.15000
C 	C 	0.70691 0.00398 0.29024 0.77000
H 	H 	0.70055 0.99192 0.34523 0.14000
F 	F 	0.73989 0.74332 0.43631 -0.36200
F 	F 	0.86254 0.80585 0.41147 -0.34000
F 	F 	0.73400 0.72270 0.39110 -0.33800
F 	F 	0.69587 0.10603 0.38203 -0.37300
F 	F 	0.83968 0.18451 0.38992 -0.36200
F 	F 	0.74509 0.13875 0.42461 -0.38700
F 	F 	0.63875 0.00853 0.30266 -0.35500
F 	F 	0.67754 0.91658 0.28187 -0.37900
F 	F 	0.73277 0.06078 0.26789 -0.35500
F 	F 	0.07007 0.20272 0.35272 -0.36400
F 	F 	0.02126 0.06339 0.36979 -0.35900
F 	F 	0.98076 0.15715 0.38867 -0.37100
C 	C 	0.47025 0.42443 0.30881 0.04000
C 	C 	0.39006 0.38727 0.29563 0.10700
C 	C 	0.35907 0.49500 0.31816 0.09000
C 	C 	0.43679 0.52842 0.33249 0.01700
C 	C 	0.49600 0.49773 0.32632 -0.04800
C 	C 	0.58356 0.53775 0.34000 0.78300
H 	H 	0.51103 0.39393 0.30623 0.15300
C 	C 	0.36791 0.29866 0.25306 -0.07500
C 	C 	0.44143 0.37737 0.23810 0.79100
F 	F 	0.64120 0.52169 0.32518 -0.35100
F 	F 	0.57316 0.49930 0.36540 -0.36700
F 	F 	0.61957 0.63007 0.34245 -0.36800
F 	F 	0.45091 0.35400 0.21203 -0.34100
F 	F 	0.51895 0.40463 0.25138 -0.36100
F 	F 	0.42500 0.44861 0.23675 -0.34700
C 	C 	0.95766 0.53924 0.35658 0.77900
C 	C 	0.31321 0.73553 0.31416 0.78400
F 	F 	0.79929 0.61681 0.24992 -0.33700
F 	F 	0.30857 0.75429 0.28713 -0.35400
F 	F 	0.34897 0.67960 0.31535 -0.40600
F 	F 	0.36726 0.81545 0.32702 -0.37200
F 	F 	0.95022 0.48930 0.37963 -0.35600
F 	F 	0.91406 0.48020 0.33591 -0.37100
F 	F 	0.91788 0.58998 0.36192 -0.34000
C 	C 	0.48666 0.00480 0.43334 0.28200
C 	C 	0.43321 0.92111 0.44613 -0.14000
C 	C 	0.39941 0.92046 0.47208 0.29500
C 	C 	0.43614 0.99924 0.48735 0.32400
C 	C 	0.50437 0.07885 0.47636 -0.16400
C 	C 	0.52299 0.08346 0.44858 0.30700
F 	F 	0.58167 0.16288 0.43692 -0.32300
F 	F 	0.50702 0.00939 0.40664 -0.31700
F 	F 	0.41015 0.99656 0.51338 -0.28900
F 	F 	0.33469 0.84290 0.48300 -0.31800
F 	F 	0.06044 0.38158 0.53076 -0.33900
C 	C 	0.50642 0.33831 0.46628 0.29500
C 	C 	0.59687 0.38173 0.46168 -0.16300
C 	C 	0.63531 0.45629 0.44408 0.31500
C 	C 	0.58615 0.49393 0.43409 0.31300
C 	C 	0.49860 0.45798 0.44194 -0.16700
C 	C 	0.45763 0.37672 0.45664 0.30300
F 	F 	0.37202 0.33852 0.46331 -0.32000
F 	F 	0.46672 0.26210 0.48154 -0.34900
F 	F 	0.62468 0.56832 0.41802 -0.28300
F 	F 	0.72168 0.49640 0.43832 -0.29200
C 	C 	0.88358 0.92535 0.62002 0.05400
C 	C 	0.83824 0.96945 0.61212 0.11400
C 	C 	0.79295 0.99050 0.63194 -0.09200
C 	C 	0.80760 0.98206 0.65947 0.11300
C 	C 	0.86751 0.95504 0.66726 0.02200
C 	C 	0.90447 0.92368 0.64737 -0.03300
C 	C 	0.85363 0.00981 0.58452 0.07800
C 	C 	0.72823 0.02027 0.62378 0.78400
H 	H 	0.77632 0.00143 0.67490 0.10600
C 	C 	0.97815 0.90581 0.65410 0.78200
H 	H 	0.91221 0.90302 0.60455 0.14700
C 	C 	0.92877 0.09383 0.57862 -0.09000
C 	C 	0.92727 0.14455 0.55629 0.07500
C 	C 	0.85019 0.11581 0.54195 0.04600
C 	C 	0.78745 0.02368 0.54304 -0.07100
C 	C 	0.78787 0.97127 0.56510 0.07800
C 	C 	0.00851 0.13060 0.59648 0.79500
H 	H 	0.98053 0.21212 0.55277 0.13900
C 	C 	0.71594 0.98366 0.52235 0.79300
H 	H 	0.73441 0.90342 0.56817 0.14100
F 	F 	0.96403 0.86063 0.67852 -0.40900
F 	F 	0.66430 0.95442 0.60813 -0.36600
F 	F 	0.76984 0.10009 0.60917 -0.40900
F 	F 	0.68825 0.03392 0.64602 -0.39300
F 	F 	0.74606 0.02547 0.49744 -0.41200
F 	F 	0.64706 0.99492 0.53055 -0.37100
F 	F 	0.68694 0.89262 0.51934 -0.38600
F 	F 	0.98713 0.14196 0.62257 -0.40200
C 	C 	0.33739 0.99697 0.68442 0.05700
C 	C 	0.36785 0.06673 0.66514 0.09700
C 	C 	0.31672 0.10728 0.65882 -0.08100
C 	C 	0.45072 0.09333 0.65070 0.11000
C 	C 	0.33366 0.16390 0.63330 0.79000
H 	H 	0.37408 0.96251 0.68818 0.14400
C 	C 	0.52688 0.17501 0.65655 -0.08900
C 	C 	0.59339 0.21319 0.63685 0.11600
C 	C 	0.58623 0.16740 0.61266 0.03400
C 	C 	0.52107 0.07602 0.61060 -0.03300
C 	C 	0.45162 0.04068 0.62921 0.04500
C 	C 	0.53651 0.22221 0.68324 0.79500
H 	H 	0.64675 0.28113 0.63932 0.10200
C 	C 	0.52039 0.01873 0.58726 0.77900
H 	H 	0.39578 0.97476 0.62596 0.14700
F 	F 	0.34403 0.12033 0.61127 -0.37400
F 	F 	0.40777 0.24632 0.63618 -0.34200
F 	F 	0.26499 0.17887 0.62787 -0.34200
F 	F 	0.60354 0.04828 0.57736 -0.37200
F 	F 	0.46949 0.02268 0.56679 -0.35500
F 	F 	0.48640 0.92997 0.59559 -0.34100
F 	F 	0.62257 0.28472 0.68796 -0.37200
F 	F 	0.50737 0.16020 0.70432 -0.36200
F 	F 	0.48874 0.26642 0.68304 -0.36300
C 	C 	0.72033 0.49394 0.64305 0.03600
C 	C 	0.80523 0.55970 0.64936 0.09700
C 	C 	0.86994 0.59371 0.62871 -0.08800
C 	C 	0.84525 0.56792 0.60174 0.08000
C 	C 	0.75853 0.50626 0.59528 0.01600
C 	C 	0.69391 0.47771 0.61600 -0.05600
C 	C 	0.82097 0.60502 0.67591 0.11400
C 	C 	0.96601 0.64338 0.63569 0.78200
H 	H 	0.89444 0.59150 0.58591 0.11700
C 	C 	0.59843 0.44080 0.60952 0.78500
H 	H 	0.67248 0.46362 0.65919 0.15200
C 	C 	0.78700 0.66320 0.68184 -0.09400
C 	C 	0.80276 0.70367 0.70725 0.10000
C 	C 	0.86626 0.70380 0.72400 0.03800
C 	C 	0.89280 0.63892 0.71984 -0.02400
C 	C 	0.86940 0.58943 0.69563 0.05300
C 	C 	0.73216 0.68056 0.66163 0.79000
H 	H 	0.76802 0.73795 0.71357 0.10200
C 	C 	0.94168 0.61898 0.74146 0.77600
H 	H 	0.89087 0.54097 0.69174 0.14800
F 	F 	0.55403 0.45141 0.63108 -0.32900
F 	F 	0.55996 0.34996 0.60404 -0.39700
F 	F 	0.58953 0.48625 0.58756 -0.36400
F 	F 	0.98877 0.58251 0.64610 -0.38700
F 	F 	0.98463 0.70977 0.65452 -0.35300
F 	F 	0.01723 0.68439 0.61305 -0.35800
F 	F 	0.91207 0.62446 0.76699 -0.35500
F 	F 	0.93012 0.53302 0.73870 -0.36700
F 	F 	0.72510 0.75510 0.66871 -0.40500
F 	F 	0.64941 0.60713 0.66111 -0.36800
F 	F 	0.76887 0.69662 0.63599 -0.40400
C 	C 	0.95884 0.49234 0.94128 0.29600
C 	C 	0.94057 0.54265 0.92235 -0.16200
F 	F 	0.90611 0.40191 0.94384 -0.31100
C 	C 	0.55358 0.99905 0.96458 0.32900
C 	C 	0.46666 0.94508 0.95680 -0.15400
C 	C 	0.43010 0.98024 0.93861 0.31400
C 	C 	0.47530 0.07157 0.93128 0.29000
C 	C 	0.55877 0.12859 0.94170 -0.16000
C 	C 	0.59927 0.09075 0.95735 0.30600
F 	F 	0.68232 0.14265 0.96573 -0.29100
F 	F 	0.59242 0.96365 0.98019 -0.28400
F 	F 	0.43578 0.10561 0.91536 -0.34900
F 	F 	0.34744 0.92772 0.92997 -0.30800
C 	C 	0.52155 0.53835 0.02278 0.29200
C 	C 	0.47960 0.56900 0.00503 -0.18900
C 	C 	0.44468 0.52172 0.98087 0.27900
C 	C 	0.44239 0.43986 0.97652 0.26300
C 	C 	0.49633 0.41804 0.99146 -0.16500
C 	C 	0.52984 0.46308 0.01605 0.28800
F 	F 	0.57368 0.43629 0.03277 -0.31300
F 	F 	0.55499 0.58184 0.04634 -0.31500
F 	F 	0.38588 0.38062 0.95856 -0.35900
F 	F 	0.41343 0.55516 0.96166 -0.39900
C 	C 	0.80440 0.20859 0.80788 0.04700
C 	C 	0.74456 0.21595 0.79105 0.10000
C 	C 	0.74472 0.19994 0.76296 -0.09100
C 	C 	0.80624 0.17842 0.75243 0.08900
C 	C 	0.85891 0.16081 0.76969 0.02200
C 	C 	0.86000 0.17840 0.79774 -0.04900
C 	C 	0.68482 0.24442 0.80306 0.10800
C 	C 	0.68168 0.20830 0.74397 0.79400
H 	H 	0.80933 0.16936 0.73085 0.11100
C 	C 	0.90938 0.15244 0.81757 0.78100
H 	H 	0.80482 0.22265 0.82925 0.13800
C 	C 	0.61935 0.18855 0.82202 -0.09300
C 	C 	0.58702 0.22828 0.84028 0.09300
C 	C 	0.61414 0.32041 0.83827 0.02700
C 	C 	0.66171 0.36910 0.81508 -0.04900
C 	C 	0.70255 0.33325 0.79896 0.04500
C 	C 	0.58950 0.08883 0.82454 0.79100
H 	H 	0.54665 0.18936 0.85728 0.12500
C 	C 	0.67662 0.46262 0.80890 0.78400
H 	H 	0.75159 0.37599 0.78425 0.15300
F 	F 	0.92742 0.20240 0.84098 -0.35500
F 	F 	0.85883 0.06240 0.82428 -0.40700
F 	F 	0.71099 0.29821 0.73828 -0.37400
F 	F 	0.59936 0.17035 0.75540 -0.34900
F 	F 	0.67480 0.16450 0.71986 -0.37000
F 	F 	0.68031 0.47684 0.78121 -0.35700
F 	F 	0.75461 0.52538 0.81992 -0.35400
F 	F 	0.61006 0.47436 0.81934 -0.37100
F 	F 	0.50616 0.04259 0.83532 -0.35100
F 	F 	0.64486 0.07637 0.84141 -0.38300
F 	F 	0.58841 0.05234 0.79953 -0.36000
C 	C 	0.29139 0.29711 0.83514 0.04900
C 	C 	0.26867 0.36506 0.83334 0.09400
C 	C 	0.31162 0.44247 0.85170 0.11100
C 	C 	0.29847 0.16398 0.81603 0.78200
H 	H 	0.33509 0.30026 0.85093 0.11700
C 	C 	0.29335 0.42932 0.87983 -0.09900
C 	C 	0.36293 0.47072 0.89788 0.07000
C 	C 	0.44820 0.51913 0.88761 0.04000
C 	C 	0.45899 0.55785 0.86157 -0.06000
C 	C 	0.39073 0.51619 0.84315 0.04100
H 	H 	0.35212 0.45347 0.91916 0.15100
C 	C 	0.53988 0.64380 0.85357 0.78600
H 	H 	0.40219 0.53448 0.82189 0.15100
F 	F 	0.37882 0.20249 0.82839 -0.39200
F 	F 	0.26345 0.50952 0.79499 -0.37700
F 	F 	0.58475 0.62490 0.83411 -0.33900
F 	F 	0.59322 0.68375 0.87549 -0.37800
F 	F 	0.51694 0.70421 0.84284 -0.35000
C 	C 	0.93538 0.84430 0.93702 0.02700
C 	C 	0.87802 0.87111 0.92624 0.12400
C 	C 	0.79947 0.84539 0.94073 -0.10000
C 	C 	0.76828 0.77070 0.95850 0.08900
C 	C 	0.81246 0.72135 0.95950 0.02900
C 	C 	0.90292 0.77091 0.95530 -0.06400
C 	C 	0.88060 0.88588 0.89657 0.08800
C 	C 	0.74145 0.88419 0.93352 0.79200
H 	H 	0.70250 0.74075 0.96649 0.10600
C 	C 	0.96308 0.75905 0.97431 0.78400
H 	H 	0.00098 0.87303 0.92904 0.16100
C 	C 	0.94077 0.96902 0.88419 -0.07000
C 	C 	0.94902 0.97420 0.85575 0.09600
C 	C 	0.89890 0.89848 0.83979 0.05000
C 	C 	0.84081 0.81532 0.85225 -0.05800
C 	C 	0.82897 0.81132 0.88040 0.06100
C 	C 	0.00280 0.04931 0.90090 0.78800
H 	H 	0.99667 0.03643 0.84602 0.12400
C 	C 	0.79856 0.72925 0.83595 0.79800
H 	H 	0.78291 0.74850 0.89006 0.10700
F 	F 	0.94557 0.67083 0.97424 -0.40500
F 	F 	0.04935 0.81404 0.96703 -0.37800
F 	F 	0.68194 0.83051 0.91443 -0.37600
F 	F 	0.78927 0.97077 0.92321 -0.33900
F 	F 	0.69701 0.88710 0.95629 -0.35600
F 	F 	0.74286 0.65560 0.85170 -0.40400
F 	F 	0.86213 0.71289 0.82546 -0.35900
F 	F 	0.75152 0.73742 0.81494 -0.35700
F 	F 	0.96362 0.05614 0.92437 -0.34200
