data_crystal

_cell_length_a 26.44751
_cell_length_b 26.00791
_cell_length_c 104.67341
_cell_angle_alpha 90.00049
_cell_angle_beta  90.00056
_cell_angle_gamma 119.53519

_symmetry_space_group_name_	'P 1'
_symmetry_space_group_name_H-M	'P 1'

loop_
_symmetry_equiv_pos_as_xyz
  x,y,z

loop_
_atom_site_label
_atom_site_type_symbol
_atom_site_fract_x
_atom_site_fract_y
_atom_site_fract_z
_atom_site_charge
C 	C 	0.97178 0.76497 0.95391 0.32600
O 	O 	0.98069 0.22586 0.18673 -0.32700
C 	C 	0.94061 0.52706 0.01217 0.02300
C 	C 	0.92429 0.86813 0.99541 -0.10600
C 	C 	0.96145 0.09474 0.18178 0.13400
C 	C 	0.05613 0.11531 0.50285 0.06900
C 	C 	0.03225 0.79904 0.74114 0.07100
C 	C 	0.04294 0.88800 0.73081 0.06900
C 	C 	0.05950 0.51711 0.65711 0.06900
Br	Br	0.02558 0.96171 0.84837 -0.10000
C 	C 	0.99698 0.45311 0.15037 0.06500
Br	Br	0.09385 0.86282 0.65229 -0.10400
C 	C 	0.98918 0.03557 0.34165 0.05600
Br	Br	0.96392 0.96452 0.15357 -0.11300
C 	C 	0.01583 0.83693 0.82133 0.07400
C 	C 	0.05855 0.98690 0.50624 0.07800
Br	Br	0.91904 0.53069 0.17249 -0.11500
C 	C 	0.05791 0.12715 0.65191 0.12300
Br	Br	0.93409 0.01563 0.97628 -0.11700
Br	Br	0.06218 0.22671 0.50922 -0.10500
C 	C 	0.98543 0.49458 0.15643 0.01500
C 	C 	0.01576 0.08369 0.33315 0.04200
Br	Br	0.02390 0.89345 0.91114 -0.10400
C 	C 	0.06911 0.07773 0.49556 0.02300
Br	Br	0.97027 0.99431 0.19102 -0.10400
C 	C 	0.09216 0.97104 0.65805 0.07500
O 	O 	0.00431 0.28734 0.20761 -0.32200
C 	C 	0.97972 0.14701 0.17472 -0.11900
C 	C 	0.00425 0.83930 0.93616 0.12900
C 	C 	0.07519 0.05525 0.66316 0.02000
O 	O 	0.97895 0.76135 0.96620 -0.33100
Br	Br	0.03742 0.69429 0.13054 -0.16800
Br	Br	0.05801 0.88892 0.51961 -0.15900
C 	C 	0.97444 0.46077 0.02165 0.06700
Br	Br	0.00987 0.60769 0.03233 -0.09500
Br	Br	0.00344 0.37922 0.03424 -0.16700
C 	C 	0.01465 0.58991 0.14505 0.07500
Br	Br	0.05376 0.47804 0.13685 -0.09700
C 	C 	0.94338 0.96565 0.98858 0.07400
C 	C 	0.03718 0.88480 0.82991 0.03000
Br	Br	0.01481 0.35956 0.24001 -0.19800
C 	C 	0.08402 0.17612 0.50013 0.13100
C 	C 	0.01542 0.26114 0.41828 0.08400
C 	C 	0.04854 0.21066 0.43812 0.12700
C 	C 	0.98951 0.06128 0.18013 0.05800
Br	Br	0.07161 0.17621 0.45165 -0.12500
Br	Br	0.08309 0.19183 0.64001 -0.15900
Br	Br	0.99352 0.29557 0.40452 -0.11800
C 	C 	0.09208 0.10022 0.65394 0.07400
C 	C 	0.11967 0.93773 0.66066 0.12800
Br	Br	0.06725 0.81278 0.84976 -0.10700
C 	C 	0.07441 0.79946 0.73292 0.13200
C 	C 	0.08479 0.88810 0.72249 0.13300
C 	C 	0.02904 0.26613 0.22833 -0.10500
C 	C 	0.10890 0.02409 0.66472 0.01400
Br	Br	0.97844 0.04911 0.62013 -0.13400
C 	C 	0.01850 0.81255 0.94623 -0.10600
Br	Br	0.06183 0.91370 0.76575 -0.10000
C 	C 	0.98249 0.50487 0.01277 0.01300
Br	Br	0.87401 0.42805 0.99521 -0.11300
C 	C 	0.02558 0.55857 0.15462 0.02700
C 	C 	0.95672 0.89290 0.00664 0.13000
Br	Br	0.03174 0.17503 0.21282 -0.12300
C 	C 	0.98658 0.26350 0.21891 0.32200
C 	C 	0.09433 0.45458 0.64067 0.13100
C 	C 	0.04674 0.87392 0.92710 0.06800
Br	Br	0.20560 0.56542 0.67236 -0.11400
Br	Br	0.05817 0.02408 0.31292 -0.10500
C 	C 	0.07418 0.64232 0.52062 0.12900
C 	C 	0.10078 0.84405 0.72361 -0.11600
C 	C 	0.11228 0.10150 0.48604 0.07100
Br	Br	0.05973 0.18659 0.26969 -0.10500
C 	C 	0.04546 0.30606 0.23865 0.12800
C 	C 	0.09764 0.57358 0.50986 0.02000
C 	C 	0.11410 0.54661 0.65102 0.02100
C 	C 	0.05249 0.65092 0.14352 0.13000
C 	C 	0.01390 0.43924 0.02203 0.13400
O 	O 	0.93586 0.79369 0.98453 -0.32800
Br	Br	0.11980 0.94808 0.70948 -0.12800
Br	Br	0.03855 0.16720 0.39514 -0.09900
Br	Br	0.09487 0.73790 0.73412 -0.19600
Br	Br	0.99767 0.19411 0.01750 -0.17300
C 	C 	0.07421 0.27252 0.43712 -0.11200
C 	C 	0.05704 0.29772 0.42730 0.12600
Br	Br	0.12927 0.04989 0.47591 -0.10700
C 	C 	0.02271 0.16321 0.16524 0.14200
C 	C 	0.97847 0.99081 0.99944 0.01700
C 	C 	0.05396 0.22946 0.22695 0.12900
Br	Br	0.03576 0.00945 0.35080 -0.09900
O 	O 	0.12970 0.82036 0.70370 -0.33400
Br	Br	0.06890 0.81918 0.81228 -0.09900
Br	Br	0.96751 0.84339 0.01880 -0.11300
Br	Br	0.03823 0.89293 0.14857 -0.16100
C 	C 	0.12699 0.19980 0.49057 -0.10600
C 	C 	0.07964 0.11542 0.33152 0.01600
C 	C 	0.99210 0.08818 0.00698 0.05600
C 	C 	0.91618 0.90429 0.98659 0.12300
C 	C 	0.16535 0.95857 0.66961 -0.09800
Br	Br	0.07965 0.19198 0.35170 -0.09900
C 	C 	0.98315 0.95417 0.00872 0.06500
C 	C 	0.13084 0.51563 0.64254 0.06900
C 	C 	0.15610 0.04604 0.67328 0.07400
O 	O 	0.10331 0.31748 0.45787 -0.33200
Br	Br	0.11901 0.41116 0.62979 -0.13000
Br	Br	0.20149 0.64714 0.49094 -0.10800
O 	O 	0.16069 0.88099 0.68271 -0.32500
C 	C 	0.03963 0.99309 0.16112 0.08300
C 	C 	0.03261 0.07751 0.17067 0.03500
C 	C 	0.09941 0.91546 0.83370 0.01400
Br	Br	0.16120 0.12372 0.64389 -0.10700
C 	C 	0.14231 0.16275 0.48379 0.12800
C 	C 	0.15451 0.60969 0.65389 0.02000
C 	C 	0.19417 0.62518 0.66409 0.06900
Br	Br	0.13241 0.03472 0.51454 -0.11200
Br	Br	0.04868 0.23549 0.15575 -0.10400
C 	C 	0.11135 0.61852 0.51895 0.07100
C 	C 	0.13653 0.54829 0.50807 0.02100
C 	C 	0.14489 0.84438 0.71505 0.34000
O 	O 	0.12903 0.27842 0.47828 -0.32400
C 	C 	0.04774 0.12736 0.16293 0.06200
C 	C 	0.10562 0.09485 0.32264 0.07400
C 	C 	0.12035 0.88748 0.84198 0.07300
C 	C 	0.18515 0.01388 0.67549 0.12000
Br	Br	0.09497 0.70677 0.53240 -0.12500
C 	C 	0.18862 0.92035 0.67372 0.33200
C 	C 	0.08583 0.30844 0.24769 0.06900
Br	Br	0.08856 0.38223 0.42656 -0.20100
O 	O 	0.18048 0.78479 0.67506 -0.33000
C 	C 	0.01420 0.05581 0.00058 0.03300
C 	C 	0.02786 0.14922 0.00895 0.14100
Br	Br	0.06995 0.46751 0.52844 -0.10200
C 	C 	0.11876 0.31092 0.44636 0.33800
C 	C 	0.18112 0.57246 0.49885 0.06900
C 	C 	0.15384 0.26261 0.48718 0.33400
C 	C 	0.07748 0.82924 0.94839 0.12500
Br	Br	0.11238 0.00664 0.81585 -0.11000
Br	Br	0.17966 0.11921 0.68225 -0.10800
C 	C 	0.07494 0.58808 0.16251 0.06700
C 	C 	0.09502 0.23252 0.23590 0.06900
C 	C 	0.11429 0.16741 0.33853 0.07000
C 	C 	0.89392 0.50190 0.00348 0.06600
C 	C 	0.22374 0.68386 0.66852 0.12200
C 	C 	0.14951 0.65411 0.64726 0.07000
C 	C 	0.06325 0.04331 0.16907 0.01300
C 	C 	0.07222 0.96512 0.15835 0.12400
C 	C 	0.10552 0.89158 0.92947 0.02200
C 	C 	0.04639 0.55200 0.50256 0.06900
C 	C 	0.12499 0.49617 0.51456 0.06900
C 	C 	0.10130 0.68049 0.15153 -0.10600
C 	C 	0.03031 0.52777 0.00435 0.07500
Br	Br	0.10130 0.63427 0.63224 -0.10200
Br	Br	0.28107 0.70641 0.68182 -0.15800
O 	O 	0.15517 0.39456 0.48766 -0.33000
Cu	Cu	0.18968 0.83462 0.69064 0.93700
Br	Br	0.13849 0.80899 0.91366 -0.12000
C 	C 	0.06120 0.46159 0.01351 -0.10600
O 	O 	0.22720 0.91636 0.66644 -0.34000
C 	C 	0.11114 0.27219 0.24624 0.02100
C 	C 	0.13790 0.97233 0.82893 0.08400
C 	C 	0.02244 0.61998 0.51346 -0.10000
Br	Br	0.06123 0.03876 0.06633 -0.10500
C 	C 	0.21161 0.72617 0.66313 -0.10600
Cu	Cu	0.16269 0.35655 0.47146 0.93700
Br	Br	0.06976 0.13912 0.04517 -0.12700
Br	Br	0.12969 0.18279 0.23398 -0.10700
C 	C 	0.17834 0.71251 0.65187 0.12800
C 	C 	0.20900 0.54075 0.49507 0.12100
Br	Br	0.02703 0.98834 0.02414 -0.09200
Br	Br	0.10692 0.36161 0.26206 -0.10600
C 	C 	0.12089 0.87338 0.94078 0.06900
Br	Br	0.09865 0.78641 0.96032 -0.13100
Br	Br	0.07641 0.10702 0.10294 -0.10600
C 	C 	0.11299 0.64892 0.16090 0.13200
Br	Br	0.91339 0.04846 0.01332 -0.10900
C 	C 	0.15211 0.46408 0.51056 0.12800
Br	Br	0.27358 0.57555 0.48338 -0.15600
O 	O 	0.19262 0.30213 0.49497 -0.34300
C 	C 	0.14052 0.24167 0.26634 0.06800
Br	Br	0.09630 0.02059 0.12360 -0.12700
Br	Br	0.25224 0.04548 0.68652 -0.16500
Br	Br	0.09005 0.54498 0.17556 -0.12000
C 	C 	0.19004 0.48381 0.50002 -0.10600
Br	Br	0.20532 0.19627 0.47164 -0.16100
O 	O 	0.19644 0.85901 0.71955 -0.39400
Br	Br	0.20397 0.55690 0.63361 -0.10300
C 	C 	0.22394 0.77952 0.67042 0.32000
C 	C 	0.19986 0.44114 0.49272 0.31800
Br	Br	0.16208 0.19657 0.28983 -0.13200
C 	C 	0.15018 0.92347 0.91955 0.01500
O 	O 	0.17225 0.34521 0.44251 -0.39700
H 	H 	0.10372 0.32939 0.02692 0.19400
C 	C 	0.13950 0.74456 0.15026 0.33400
O 	O 	0.13562 0.77968 0.15879 -0.34600
H 	H 	0.13293 0.85484 0.13851 0.19200
C 	C 	0.06964 0.50615 0.00473 0.13100
C 	C 	0.16598 0.12687 0.32064 0.12700
Br	Br	0.14501 0.02741 0.92781 -0.11000
C 	C 	0.17985 0.91506 0.84491 0.12200
Br	Br	0.10261 0.14618 0.14915 -0.10200
C 	C 	0.10180 0.43836 0.01379 0.33300
O 	O 	0.09457 0.39702 0.00553 -0.34400
Br	Br	0.04165 0.58869 0.99229 -0.13000
C 	C 	0.17446 0.89392 0.91285 0.07200
Br	Br	0.13793 0.39345 0.51950 -0.11800
C 	C 	0.15635 0.27741 0.25532 0.02200
H 	H 	0.22237 0.76108 0.69712 0.20400
C 	C 	0.17144 0.98417 0.91739 0.08100
C 	C 	0.08598 0.17760 0.00476 -0.11200
C 	C 	0.93993 0.47528 0.16539 0.06900
O 	O 	0.18375 0.76426 0.14230 -0.33900
C 	C 	0.07127 0.08498 0.99570 0.06400
C 	C 	0.95130 0.57773 0.01915 0.06300
C 	C 	0.17404 0.20137 0.33590 0.13000
Br	Br	0.18087 0.64706 0.52913 -0.10100
C 	C 	0.00616 0.17403 0.42922 0.08400
C 	C 	0.86350 0.53200 0.00047 0.11800
Br	Br	0.97050 0.08925 0.43061 -0.11800
Br	Br	0.99576 0.73773 0.75385 -0.11600
C 	C 	0.95579 0.18593 0.17769 0.33700
Br	Br	0.79725 0.49611 0.98924 -0.15600
Br	Br	0.97656 0.95336 0.59859 -0.10800
O 	O 	0.91462 0.68088 0.99490 -0.33100
O 	O 	0.95972 0.31987 0.17771 -0.33200
C 	C 	0.91140 0.41609 0.16950 0.12100
C 	C 	0.88141 0.58814 0.00582 -0.10700
C 	C 	0.90392 0.80592 0.99224 0.33400
C 	C 	0.96861 0.39407 0.15455 0.12800
Br	Br	0.89670 0.06809 0.19340 -0.16800
Br	Br	0.90927 0.42987 0.03323 -0.10700
Br	Br	0.84757 0.38861 0.18136 -0.15600
Br	Br	0.00021 0.08323 0.51655 -0.09900
C 	C 	0.92968 0.37702 0.16490 -0.10800
Cu	Cu	0.88050 0.13258 0.63913 0.93700
Cu	Cu	0.84823 0.17070 0.61184 0.90500
Cu	Cu	0.91037 0.25935 0.63295 0.91000
Cu	Cu	0.96025 0.23990 0.65717 0.91200
C 	C 	0.96620 0.12995 0.65530 0.32400
O 	O 	0.83276 0.12212 0.65501 -0.33100
C 	C 	0.84205 0.27557 0.61276 0.32900
O 	O 	0.95024 0.22023 0.63960 -0.63500
O 	O 	0.84677 0.17586 0.63033 -0.63200
O 	O 	0.86503 0.07272 0.62564 -0.33400
O 	O 	0.90158 0.14250 0.61014 -0.39400
O 	O 	0.96268 0.16817 0.66299 -0.34200
O 	O 	0.97601 0.33799 0.63506 -0.35100
C 	C 	0.00409 0.36038 0.64587 0.34600
C 	C 	0.82802 0.16607 0.65995 0.31900
O 	O 	0.87043 0.22084 0.65865 -0.35400
O 	O 	0.00919 0.32698 0.65474 -0.34700
O 	O 	0.92636 0.10194 0.64649 -0.32300
C 	C 	0.88689 0.08929 0.61416 0.33800
O 	O 	0.87377 0.29719 0.62320 -0.33400
O 	O 	0.81231 0.21835 0.61072 -0.36500
H 	H 	0.98623 0.22937 0.63492 0.20000
H 	H 	0.80846 0.16763 0.63363 0.20300
Cu	Cu	0.22401 0.80429 0.71856 0.90400
Cu	Cu	0.31321 0.86406 0.69768 0.91000
Cu	Cu	0.29700 0.91398 0.67290 0.91400
C 	C 	0.32618 0.79557 0.71858 0.32900
O 	O 	0.27611 0.90497 0.69038 -0.63400
O 	O 	0.23061 0.80050 0.70014 -0.63300
O 	O 	0.39129 0.92959 0.69553 -0.34300
C 	C 	0.41401 0.95640 0.68460 0.33600
O 	O 	0.27781 0.82238 0.67191 -0.35300
O 	O 	0.38228 0.96366 0.67578 -0.34600
O 	O 	0.34854 0.82672 0.70804 -0.33400
O 	O 	0.26976 0.76682 0.72053 -0.36500
H 	H 	0.28479 0.94192 0.69488 0.20200
Cu	Cu	0.35092 0.03461 0.86913 0.93600
Cu	Cu	0.41162 0.09901 0.89634 0.90000
Cu	Cu	0.44552 0.16404 0.87059 0.91000
Cu	Cu	0.39192 0.11540 0.84487 0.91500
C 	C 	0.27442 0.00873 0.84772 0.31400
O 	O 	0.39132 0.00229 0.85787 -0.32500
C 	C 	0.52116 0.20094 0.89347 0.33000
O 	O 	0.37233 0.11857 0.86211 -0.63600
O 	O 	0.42322 0.08576 0.87863 -0.63500
O 	O 	0.29959 0.99190 0.88377 -0.32100
O 	O 	0.33118 0.07410 0.89606 -0.38900
O 	O 	0.32082 0.03836 0.84042 -0.33200
O 	O 	0.46102 0.23697 0.86242 -0.34600
C 	C 	0.46469 0.24597 0.84996 0.33500
C 	C 	0.44247 0.03750 0.85282 0.32000
O 	O 	0.45811 0.09314 0.85061 -0.35600
O 	O 	0.43383 0.20288 0.84176 -0.34100
O 	O 	0.27960 0.99915 0.85990 -0.32300
C 	C 	0.29258 0.01899 0.89362 0.31600
O 	O 	0.51332 0.21277 0.88157 -0.33800
O 	O 	0.49357 0.14676 0.89798 -0.37200
H 	H 	0.34424 0.13282 0.86346 0.19800
H 	H 	0.45448 0.07574 0.87763 0.20300
Cu	Cu	0.77414 0.74765 0.79825 0.93800
Cu	Cu	0.71435 0.76905 0.77297 0.90100
Cu	Cu	0.68421 0.78831 0.79953 0.90900
Cu	Cu	0.74436 0.78926 0.82407 0.91600
C 	C 	0.85784 0.79620 0.81845 0.32700
O 	O 	0.73263 0.67330 0.80902 -0.32500
C 	C 	0.60524 0.76053 0.77765 0.33000
O 	O 	0.75931 0.81251 0.80673 -0.63500
O 	O 	0.70152 0.73278 0.78978 -0.63500
O 	O 	0.82027 0.75746 0.78259 -0.33400
O 	O 	0.79569 0.82151 0.77368 -0.39600
O 	O 	0.81467 0.77995 0.82668 -0.33300
O 	O 	0.67392 0.84648 0.80878 -0.34800
C 	C 	0.67299 0.84969 0.82134 0.33400
C 	C 	0.68522 0.66058 0.81548 0.32300
O 	O 	0.67366 0.70278 0.81849 -0.35700
O 	O 	0.70681 0.83772 0.82865 -0.33700
O 	O 	0.84759 0.77793 0.80649 -0.32500
C 	C 	0.83133 0.80029 0.77454 0.33900
O 	O 	0.61337 0.77111 0.79004 -0.33700
O 	O 	0.63283 0.73822 0.77129 -0.37000
H 	H 	0.78833 0.85456 0.80529 0.19800
H 	H 	0.66923 0.69156 0.79005 0.21000
Cu	Cu	0.20655 0.42821 0.44446 0.90000
Cu	Cu	0.28849 0.44890 0.46606 0.90900
Cu	Cu	0.26592 0.37300 0.48942 0.91400
C 	C 	0.31057 0.53889 0.44668 0.32900
O 	O 	0.24740 0.36800 0.47182 -0.63400
O 	O 	0.20781 0.43390 0.46300 -0.63400
O 	O 	0.36546 0.45871 0.46841 -0.34100
C 	C 	0.38493 0.44805 0.47913 0.33600
O 	O 	0.25267 0.44886 0.49150 -0.35400
O 	O 	0.35054 0.40409 0.48675 -0.34800
O 	O 	0.32681 0.52631 0.45764 -0.33300
O 	O 	0.25567 0.51177 0.44314 -0.36700
H 	H 	0.25538 0.34062 0.46676 0.20000
H 	H 	0.20055 0.46547 0.46621 0.20400
Cu	Cu	0.85678 0.74293 0.52499 0.93700
Cu	Cu	0.84138 0.67781 0.55258 0.90000
Cu	Cu	0.89101 0.64860 0.52969 0.91000
Cu	Cu	0.93144 0.71623 0.50522 0.91400
C 	C 	0.93394 0.83029 0.50740 0.33400
O 	O 	0.80334 0.70202 0.51005 -0.33000
C 	C 	0.83509 0.56609 0.55071 0.32900
O 	O 	0.92767 0.72755 0.52297 -0.63600
O 	O 	0.82856 0.66752 0.53421 -0.63300
O 	O 	0.84561 0.78802 0.53899 -0.33300
O 	O 	0.89238 0.76050 0.55322 -0.39700
O 	O 	0.92844 0.78792 0.49966 -0.34300
O 	O 	0.95572 0.63560 0.52621 -0.34400
C 	C 	0.98332 0.64452 0.51521 0.33300
C 	C 	0.79857 0.65352 0.50496 0.32000
O 	O 	0.84243 0.64310 0.50541 -0.35700
O 	O 	0.98401 0.68193 0.50656 -0.34900
O 	O 	0.89773 0.81867 0.51700 -0.32400
C 	C 	0.87348 0.79649 0.54982 0.33900
O 	O 	0.85624 0.57359 0.53901 -0.33400
O 	O 	0.80841 0.59446 0.55469 -0.36700
H 	H 	0.96505 0.75505 0.52712 0.20100
H 	H 	0.78888 0.63632 0.53190 0.20500
Cu	Cu	0.75273 0.00592 0.36006 0.93500
Cu	Cu	0.69218 0.96526 0.38825 0.90400
Cu	Cu	0.66014 0.87912 0.36623 0.91000
Cu	Cu	0.72225 0.90003 0.34094 0.91500
C 	C 	0.83567 0.00886 0.34217 0.32900
O 	O 	0.71074 0.01849 0.34526 -0.33400
C 	C 	0.58311 0.86122 0.38798 0.32800
O 	O 	0.73610 0.91793 0.35857 -0.63200
O 	O 	0.67998 0.96258 0.36989 -0.63200
O 	O 	0.79999 0.06389 0.37351 -0.33400
O 	O 	0.77312 0.99244 0.38856 -0.38900
O 	O 	0.79303 0.97182 0.33473 -0.33700
O 	O 	0.64667 0.80007 0.36301 -0.34500
C 	C 	0.64893 0.77909 0.35168 0.33700
C 	C 	0.66237 0.97519 0.34049 0.32500
O 	O 	0.65146 0.92017 0.34131 -0.35500
O 	O 	0.68681 0.81280 0.34291 -0.34700
O 	O 	0.82577 0.03674 0.35149 -0.32400
C 	C 	0.80953 0.04567 0.38445 0.33300
O 	O 	0.58953 0.84154 0.37679 -0.33500
O 	O 	0.61040 0.91804 0.39059 -0.36300
H 	H 	0.76397 0.90783 0.36258 0.20200
H 	H 	0.64921 0.97182 0.36746 0.20400
Cu	Cu	0.34395 0.30212 0.30523 0.93700
Cu	Cu	0.40521 0.32506 0.27708 0.90300
Cu	Cu	0.43656 0.26851 0.29871 0.91000
Cu	Cu	0.37313 0.22415 0.32386 0.91400
C 	C 	0.26008 0.22018 0.32275 0.33300
O 	O 	0.38555 0.35479 0.32032 -0.33000
C 	C 	0.51441 0.33035 0.27719 0.32800
O 	O 	0.36023 0.23045 0.30626 -0.63300
O 	O 	0.41695 0.33256 0.29546 -0.63300
O 	O 	0.29747 0.31501 0.29197 -0.33400
O 	O 	0.32408 0.27189 0.27654 -0.39300
O 	O 	0.30238 0.22480 0.33016 -0.34200
O 	O 	0.45006 0.20272 0.30165 -0.34400
C 	C 	0.44734 0.17860 0.31290 0.33700
C 	C 	0.43376 0.35930 0.32501 0.32000
O 	O 	0.44433 0.31506 0.32398 -0.35400
O 	O 	0.40806 0.17227 0.32149 -0.34800
O 	O 	0.27053 0.25897 0.31361 -0.32400
C 	C 	0.28801 0.28870 0.28085 0.33800
O 	O 	0.50742 0.30266 0.28820 -0.33400
O 	O 	0.48705 0.35995 0.27480 -0.36400
H 	H 	0.33238 0.19296 0.30204 0.20100
H 	H 	0.44770 0.37236 0.29808 0.20300
Cu	Cu	0.20320 0.32242 0.02688 0.93800
Cu	Cu	0.20184 0.38612 0.05340 0.89400
Cu	Cu	0.19076 0.43129 0.02881 0.90700
Cu	Cu	0.14270 0.35803 0.00484 0.91800
C 	C 	0.12577 0.23865 0.00873 0.33700
O 	O 	0.26334 0.35906 0.01281 -0.32700
C 	C 	0.24382 0.51113 0.05029 0.32400
O 	O 	0.14247 0.35060 0.02283 -0.63500
O 	O 	0.23580 0.39677 0.03644 -0.64000
O 	O 	0.20279 0.27379 0.04148 -0.33100
O 	O 	0.15035 0.30314 0.05357 -0.39500
O 	O 	0.13880 0.28167 0.00051 -0.34200
O 	O 	0.15037 0.46729 0.02034 -0.33800
C 	C 	0.27462 0.40858 0.00697 0.31800
O 	O 	0.23441 0.42428 0.00597 -0.35700
O 	O 	0.15828 0.24733 0.01887 -0.32700
C 	C 	0.17030 0.26666 0.05150 0.34200
O 	O 	0.23541 0.50601 0.03781 -0.33100
O 	O 	0.24566 0.46919 0.05706 -0.36600
H 	H 	0.27852 0.42234 0.03605 0.21300
Cu	Cu	0.91246 0.71672 0.97794 0.93700
Cu	Cu	0.89414 0.64378 0.95110 0.89400
Cu	Cu	0.79403 0.61672 0.96954 0.91100
Cu	Cu	0.79721 0.68957 0.99250 0.91400
C 	C 	0.79182 0.53178 0.95084 0.32900
O 	O 	0.82558 0.69693 0.97555 -0.63200
O 	O 	0.87821 0.63914 0.96933 -0.63200
O 	O 	0.92368 0.72568 0.94834 -0.39500
O 	O 	0.86288 0.76428 0.99928 -0.34400
O 	O 	0.71363 0.59918 0.96971 -0.33800
C 	C 	0.68711 0.60590 0.97973 0.33500
C 	C 	0.87033 0.63111 0.99894 0.31600
O 	O 	0.81681 0.61891 0.99641 -0.35000
O 	O 	0.71418 0.65160 0.98746 -0.34900
O 	O 	0.76611 0.54083 0.96072 -0.33100
O 	O 	0.84880 0.55974 0.94981 -0.37200
H 	H 	0.81784 0.72269 0.96987 0.20000
H 	H 	0.88603 0.60995 0.97367 0.19700
Cu	Cu	0.23243 0.96118 0.13631 0.93900
Cu	Cu	0.20887 0.89040 0.10956 0.89300
Cu	Cu	0.21743 0.83945 0.13325 0.90600
Cu	Cu	0.18508 0.86662 0.15904 0.91900
C 	C 	0.16805 0.96957 0.15731 0.33200
O 	O 	0.30133 0.98482 0.14812 -0.32600
C 	C 	0.25505 0.80985 0.10962 0.32600
O 	O 	0.17380 0.87271 0.14140 -0.63500
O 	O 	0.25661 0.91768 0.12488 -0.64000
O 	O 	0.22325 0.00860 0.12262 -0.33300
O 	O 	0.16111 0.92548 0.11179 -0.39400
O 	O 	0.18531 0.93984 0.16454 -0.34000
C 	C 	0.31460 0.94637 0.15312 0.32000
O 	O 	0.27448 0.89067 0.15466 -0.36000
O 	O 	0.19489 0.99329 0.14652 -0.32400
C 	C 	0.18471 0.98266 0.11355 0.34900
O 	O 	0.25573 0.80878 0.12225 -0.33400
O 	O 	0.24889 0.85054 0.10334 -0.36500
H 	H 	0.29889 0.93456 0.12354 0.21600
Cu	Cu	0.94763 0.27078 0.19358 0.93600
Cu	Cu	0.90049 0.29549 0.22049 0.89800
Cu	Cu	0.82183 0.23995 0.19787 0.91000
Cu	Cu	0.84698 0.18895 0.17439 0.91400
C 	C 	0.79778 0.30372 0.21775 0.32800
O 	O 	0.86199 0.19914 0.19220 -0.63300
O 	O 	0.90266 0.30327 0.20197 -0.63400
O 	O 	0.93276 0.24497 0.22240 -0.39400
O 	O 	0.91993 0.18959 0.16950 -0.34600
O 	O 	0.74447 0.17506 0.19446 -0.34100
C 	C 	0.72708 0.14817 0.18334 0.33600
C 	C 	0.91684 0.32370 0.17225 0.31900
O 	O 	0.86331 0.27933 0.17289 -0.35600
O 	O 	0.76171 0.13716 0.17618 -0.34900
O 	O 	0.78383 0.27906 0.20632 -0.33200
O 	O 	0.85201 0.33063 0.22174 -0.36800
H 	H 	0.85187 0.16262 0.19704 0.20000
H 	H 	0.91182 0.34310 0.19903 0.20300
Br	Br	0.98243 0.33631 0.14611 -0.12900
Br	Br	0.94778 0.54915 0.13408 -0.11200
Br	Br	0.18167 0.68902 0.17138 -0.12700
C 	C 	0.66468 0.11720 0.18041 -0.10600
C 	C 	0.64095 0.14599 0.17325 0.12400
C 	C 	0.58252 0.11481 0.16935 0.06900
C 	C 	0.54768 0.05488 0.17270 0.02200
C 	C 	0.57095 0.02662 0.18023 0.06600
C 	C 	0.62944 0.05784 0.18410 0.13100
C 	C 	0.48666 0.02161 0.16827 0.01700
C 	C 	0.44209 0.02152 0.17565 0.06700
C 	C 	0.38494 0.99427 0.17092 0.13100
C 	C 	0.37247 0.96772 0.15875 -0.10600
C 	C 	0.41620 0.96441 0.15174 0.12500
C 	C 	0.47346 0.99184 0.15645 0.07300
Br	Br	0.52268 0.94503 0.18510 -0.10300
Br	Br	0.68884 0.22812 0.16873 -0.14000
Br	Br	0.32341 0.99226 0.18117 -0.13100
Br	Br	0.53414 0.98975 0.14663 -0.11200
Br	Br	0.66141 0.01952 0.19449 -0.12900
Br	Br	0.55016 0.15380 0.15930 -0.11300
Br	Br	0.45977 0.05971 0.19213 -0.10600
Br	Br	0.39747 0.92167 0.13582 -0.16100
C 	C 	0.12974 0.98972 0.16278 -0.10200
C 	C 	0.15221 0.03797 0.17128 0.12600
C 	C 	0.11817 0.06357 0.17473 0.07200
Br	Br	0.23049 0.07074 0.17766 -0.10600
Br	Br	0.14690 0.12708 0.18702 -0.10200
C 	C 	0.92086 0.60773 0.01610 0.12700
Br	Br	0.93296 0.67558 0.02591 -0.12000
Br	Br	0.13525 0.53757 0.99325 -0.12500
C 	C 	0.33025 0.44270 0.00022 -0.10600
C 	C 	0.34108 0.41974 0.98901 0.12700
C 	C 	0.39756 0.44610 0.98389 0.07000
C 	C 	0.44307 0.49574 0.98994 0.02000
C 	C 	0.43111 0.52169 0.00050 0.06900
C 	C 	0.37452 0.49547 0.00555 0.12400
C 	C 	0.50392 0.51826 0.98577 0.02000
C 	C 	0.53739 0.49549 0.99129 0.07000
C 	C 	0.59707 0.52182 0.98857 0.12300
C 	C 	0.62342 0.57120 0.98042 -0.10500
C 	C 	0.58921 0.59125 0.97417 0.13000
C 	C 	0.52938 0.56470 0.97683 0.06900
Br	Br	0.49277 0.59207 0.00823 -0.11600
Br	Br	0.27822 0.35275 0.98059 -0.12700
Br	Br	0.64327 0.49121 0.99618 -0.13700
Br	Br	0.48248 0.59273 0.96851 -0.10600
Br	Br	0.35765 0.53170 0.01977 -0.16300
Br	Br	0.41313 0.41349 0.96883 -0.10300
Br	Br	0.50162 0.42936 0.00289 -0.11500
Br	Br	0.62467 0.65584 0.96220 -0.12500
C 	C 	0.10728 0.14579 0.99787 0.13500
Br	Br	0.18626 0.18537 0.99169 -0.10700
Br	Br	0.86859 0.86961 0.97165 -0.15800
Br	Br	0.10023 0.04116 0.98626 -0.11000
C 	C 	0.17397 0.01862 0.10428 -0.12200
C 	C 	0.20300 0.03281 0.09244 0.13100
C 	C 	0.19572 0.07030 0.08388 0.06700
C 	C 	0.15943 0.09368 0.08717 0.02200
C 	C 	0.12856 0.07755 0.09879 0.06800
C 	C 	0.13635 0.04055 0.10741 0.13400
C 	C 	0.15736 0.13865 0.07886 0.02100
C 	C 	0.19734 0.19897 0.08078 0.06700
C 	C 	0.20021 0.24123 0.07202 0.13000
C 	C 	0.16319 0.22323 0.06131 -0.11700
C 	C 	0.12159 0.16325 0.05965 0.13300
C 	C 	0.11832 0.12098 0.06849 0.06800
Br	Br	0.25438 0.00249 0.08815 -0.19800
Br	Br	0.25618 0.32371 0.07442 -0.19400
Br	Br	0.23649 0.09094 0.06777 -0.11000
Br	Br	0.24922 0.22330 0.09526 -0.10900
C 	C 	0.27059 0.77096 0.10240 -0.10100
C 	C 	0.31520 0.79533 0.09318 0.12800
C 	C 	0.31856 0.75892 0.08369 0.07000
C 	C 	0.28187 0.69726 0.08433 0.02000
C 	C 	0.24360 0.67224 0.09473 0.06900
C 	C 	0.23603 0.70902 0.10346 0.12400
C 	C 	0.27981 0.65914 0.07361 0.02000
C 	C 	0.23437 0.63921 0.06462 0.06900
C 	C 	0.22373 0.59222 0.05638 0.12400
C 	C 	0.26164 0.56858 0.05643 -0.10100
C 	C 	0.31252 0.59555 0.06391 0.12900
C 	C 	0.31988 0.63834 0.07304 0.06900
Br	Br	0.20070 0.58756 0.09682 -0.11800
Br	Br	0.37335 0.87778 0.09401 -0.11700
Br	Br	0.15504 0.55757 0.04579 -0.14400
Br	Br	0.38249 0.66567 0.08524 -0.10500
Br	Br	0.17556 0.67459 0.11620 -0.14000
Br	Br	0.37082 0.79358 0.06944 -0.10300
Br	Br	0.18588 0.67533 0.06389 -0.11500
Br	Br	0.37314 0.57593 0.06119 -0.11800
C 	C 	0.21518 0.31849 0.25298 0.06800
C 	C 	0.25818 0.32348 0.26158 0.13100
C 	C 	0.24256 0.28640 0.27238 -0.11500
C 	C 	0.18363 0.24611 0.27486 0.13300
Br	Br	0.33835 0.38248 0.25882 -0.19600
Br	Br	0.23668 0.36761 0.23792 -0.10800
C 	C 	0.75377 0.30893 0.22531 -0.10700
C 	C 	0.75144 0.36187 0.22520 0.13000
C 	C 	0.71241 0.36825 0.23329 0.06900
C 	C 	0.67662 0.32214 0.24168 0.02000
C 	C 	0.67859 0.26900 0.24168 0.07000
C 	C 	0.71641 0.26205 0.23333 0.12300
C 	C 	0.63636 0.32914 0.25040 0.02100
C 	C 	0.65550 0.35446 0.26257 0.06900
C 	C 	0.61611 0.35724 0.27120 0.13000
C 	C 	0.55696 0.33214 0.26787 -0.10800
C 	C 	0.53805 0.30743 0.25562 0.12600
C 	C 	0.57807 0.30748 0.24679 0.06900
Br	Br	0.63006 0.20618 0.25328 -0.11200
Br	Br	0.80170 0.42549 0.21397 -0.11200
Br	Br	0.64362 0.39752 0.28730 -0.10800
Br	Br	0.55313 0.27735 0.22974 -0.10500
Br	Br	0.71756 0.18845 0.23293 -0.16900
Br	Br	0.70780 0.43998 0.23293 -0.10700
Br	Br	0.73548 0.38424 0.26748 -0.11300
Br	Br	0.45669 0.27051 0.25121 -0.18500
C 	C 	0.61827 0.71470 0.34979 -0.10600
C 	C 	0.56920 0.68823 0.34179 0.12400
C 	C 	0.54268 0.62749 0.33905 0.06900
C 	C 	0.56415 0.59278 0.34465 0.02000
C 	C 	0.61166 0.61877 0.35313 0.07000
C 	C 	0.63941 0.67994 0.35551 0.13000
C 	C 	0.53765 0.52931 0.34134 0.02000
C 	C 	0.48784 0.48717 0.34789 0.06900
C 	C 	0.45632 0.42906 0.34320 0.12700
C 	C 	0.47457 0.41326 0.33195 -0.10700
C 	C 	0.52851 0.45311 0.32646 0.12200
C 	C 	0.55946 0.51161 0.33096 0.06900
Br	Br	0.63869 0.57049 0.36139 -0.10500
Br	Br	0.53801 0.73529 0.33470 -0.14000
Br	Br	0.38873 0.37070 0.35222 -0.12500
Br	Br	0.63027 0.56821 0.32261 -0.11500
Br	Br	0.70761 0.71650 0.36622 -0.13000
Br	Br	0.47754 0.59183 0.32747 -0.12000
Br	Br	0.46195 0.50979 0.36302 -0.10600
Br	Br	0.56022 0.42746 0.31292 -0.16000
C 	C 	0.19964 0.18161 0.32675 -0.10500
C 	C 	0.98174 0.10303 0.32656 0.05100
C 	C 	0.92210 0.07758 0.32927 0.13500
C 	C 	0.89592 0.03063 0.33805 -0.10900
C 	C 	0.92888 0.00768 0.34371 0.12900
Br	Br	0.20287 0.09548 0.30968 -0.16600
Br	Br	0.87654 0.10790 0.32123 -0.11200
Br	Br	0.22052 0.27562 0.34455 -0.10700
Br	Br	0.01710 0.16449 0.31386 -0.09400
Br	Br	0.89113 0.93758 0.35415 -0.16400
C 	C 	0.62216 0.98909 0.33355 -0.10500
C 	C 	0.56846 0.97579 0.33904 0.12700
C 	C 	0.53785 0.00336 0.33438 0.06200
C 	C 	0.55977 0.04214 0.32387 0.02100
C 	C 	0.60949 0.04925 0.31739 0.06900
C 	C 	0.64067 0.02263 0.32223 0.12400
C 	C 	0.53332 0.07880 0.32029 0.02000
C 	C 	0.48589 0.05653 0.31179 0.06600
C 	C 	0.45806 0.08962 0.30918 0.13000
C 	C 	0.47888 0.14582 0.31476 -0.10600
C 	C 	0.52805 0.16927 0.32274 0.12400
C 	C 	0.55475 0.13547 0.32567 0.06900
Br	Br	0.63569 0.09697 0.30214 -0.10800
Br	Br	0.53658 0.91943 0.35279 -0.15900
Br	Br	0.39034 0.05728 0.29832 -0.13100
Br	Br	0.62002 0.16616 0.33723 -0.12100
Br	Br	0.70811 0.03110 0.31330 -0.12800
Br	Br	0.46728 0.99009 0.34267 -0.10900
Br	Br	0.45899 0.98059 0.30380 -0.09900
Br	Br	0.55898 0.24803 0.32958 -0.14200
C 	C 	0.98956 0.19929 0.41930 0.00100
C 	C 	0.94351 0.16080 0.41021 0.02900
C 	C 	0.95825 0.14223 0.39885 0.06000
C 	C 	0.91440 0.10545 0.39023 0.13400
C 	C 	0.85585 0.08752 0.39295 -0.11500
C 	C 	0.84137 0.10778 0.40410 0.13200
C 	C 	0.88506 0.14367 0.41281 0.06500
Br	Br	0.93439 0.07896 0.37482 -0.13900
Br	Br	0.86505 0.16923 0.42838 -0.11100
Br	Br	0.76184 0.08795 0.40720 -0.19700
C 	C 	0.54157 0.81938 0.39732 -0.10800
C 	C 	0.56154 0.81347 0.40944 0.12600
C 	C 	0.52273 0.77156 0.41817 0.06900
C 	C 	0.46486 0.73296 0.41453 0.02100
C 	C 	0.44460 0.73934 0.40251 0.06800
C 	C 	0.48254 0.78366 0.39406 0.13000
C 	C 	0.42626 0.68379 0.42308 0.02000
C 	C 	0.42765 0.63034 0.42280 0.07000
C 	C 	0.39182 0.58399 0.43107 0.12300
C 	C 	0.35289 0.59008 0.43927 -0.10600
C 	C 	0.35175 0.64366 0.43962 0.13000
C 	C 	0.38899 0.69078 0.43165 0.06900
Br	Br	0.36520 0.68644 0.39757 -0.11000
Br	Br	0.64281 0.86030 0.41377 -0.18500
Br	Br	0.39538 0.51162 0.43110 -0.16000
Br	Br	0.38922 0.76501 0.43243 -0.10500
Br	Br	0.45315 0.79719 0.37829 -0.10700
Br	Br	0.54883 0.76636 0.43509 -0.10400
Br	Br	0.47803 0.62050 0.41092 -0.11100
Br	Br	0.29920 0.65240 0.45102 -0.11100
C 	C 	0.74521 0.61302 0.49799 -0.10700
C 	C 	0.72909 0.63335 0.48711 0.12700
C 	C 	0.67146 0.60261 0.48266 0.06900
C 	C 	0.63029 0.55112 0.48901 0.02000
C 	C 	0.64834 0.52688 0.49887 0.06900
C 	C 	0.70620 0.55742 0.50321 0.12200
C 	C 	0.56760 0.52570 0.48615 0.02000
C 	C 	0.53477 0.54679 0.49264 0.07000
C 	C 	0.47516 0.52241 0.49003 0.12400
C 	C 	0.44805 0.47624 0.48111 -0.10500
C 	C 	0.48092 0.45552 0.47451 0.13000
C 	C 	0.54079 0.48054 0.47696 0.07000
Br	Br	0.59317 0.45329 0.50675 -0.11300
Br	Br	0.78632 0.70267 0.47823 -0.12400
Br	Br	0.43046 0.55251 0.49859 -0.14100
Br	Br	0.58619 0.45300 0.46781 -0.10500
Br	Br	0.73211 0.52300 0.51616 -0.15900
Br	Br	0.64815 0.63209 0.46822 -0.10400
Br	Br	0.57158 0.60877 0.50519 -0.12000
Br	Br	0.44362 0.39213 0.46229 -0.12800
C 	C 	0.03654 0.01317 0.49777 0.01800
C 	C 	0.02612 0.92605 0.50882 0.13300
C 	C 	0.97050 0.89204 0.50345 -0.11200
C 	C 	0.94888 0.91803 0.49480 0.13100
C 	C 	0.98247 0.97832 0.49175 0.07100
Br	Br	0.95458 0.01349 0.47938 -0.11100
Br	Br	0.87268 0.87134 0.48742 -0.10500
C 	C 	0.00846 0.57464 0.50448 0.12900
Br	Br	0.02841 0.49147 0.48988 -0.12200
Br	Br	0.93653 0.54262 0.49506 -0.14600
C 	C 	0.24304 0.98599 0.90243 -0.09600
C 	C 	0.22474 0.92638 0.90550 0.12100
C 	C 	0.21377 0.01375 0.90792 0.11200
Br	Br	0.27264 0.89171 0.90140 -0.13000
Br	Br	0.92895 0.83403 0.93554 -0.13200
Br	Br	0.20142 0.90834 0.94569 -0.11200
Br	Br	0.22651 0.08883 0.90155 -0.13300
C 	C 	0.56393 0.24872 0.90162 -0.11000
C 	C 	0.54485 0.26634 0.91249 0.12600
C 	C 	0.58541 0.31098 0.92050 0.06800
C 	C 	0.64493 0.33988 0.91738 0.02100
C 	C 	0.66407 0.32260 0.90647 0.06900
C 	C 	0.62365 0.27646 0.89868 0.13100
C 	C 	0.68695 0.39004 0.92531 0.02000
C 	C 	0.69619 0.44736 0.92294 0.06900
C 	C 	0.73053 0.49372 0.93136 0.12300
C 	C 	0.75690 0.48322 0.94197 -0.10900
C 	C 	0.75002 0.42658 0.94400 0.13000
C 	C 	0.71458 0.37983 0.93573 0.06900
Br	Br	0.74558 0.36258 0.90218 -0.11100
Br	Br	0.46281 0.23091 0.91608 -0.18900
Br	Br	0.74125 0.57175 0.92846 -0.17400
Br	Br	0.70291 0.30157 0.93878 -0.11100
Br	Br	0.65013 0.25011 0.88423 -0.12100
Br	Br	0.55961 0.33286 0.93576 -0.10900
Br	Br	0.66117 0.46197 0.90822 -0.11000
Br	Br	0.78917 0.41316 0.95807 -0.11300
C 	C 	0.49569 0.30723 0.84523 -0.10400
C 	C 	0.46523 0.33811 0.84304 0.12900
C 	C 	0.49495 0.39662 0.83847 0.06900
C 	C 	0.55507 0.42407 0.83597 0.02100
C 	C 	0.58556 0.39324 0.83824 0.07000
C 	C 	0.55595 0.33504 0.84298 0.12500
C 	C 	0.58609 0.48503 0.83074 0.02100
C 	C 	0.58913 0.49410 0.81743 0.06900
C 	C 	0.62007 0.55175 0.81243 0.12900
C 	C 	0.64916 0.60047 0.82074 -0.10600
C 	C 	0.64629 0.59127 0.83407 0.13000
C 	C 	0.61375 0.53373 0.83906 0.06900
Br	Br	0.66778 0.43074 0.83476 -0.10800
Br	Br	0.38289 0.30031 0.84640 -0.13200
Br	Br	0.62192 0.56386 0.79423 -0.16200
Br	Br	0.60726 0.52138 0.85729 -0.10700
Br	Br	0.59783 0.29329 0.84643 -0.13600
Br	Br	0.45353 0.43932 0.83563 -0.10700
Br	Br	0.55135 0.42726 0.80606 -0.11000
Br	Br	0.68991 0.65693 0.84546 -0.15900
C 	C 	0.91832 0.82385 0.82328 -0.10000
C 	C 	0.94047 0.87442 0.83118 0.12800
C 	C 	0.99878 0.90191 0.83525 0.06000
C 	C 	0.95580 0.80300 0.81910 0.12600
C 	C 	0.19526 0.00364 0.83360 0.10900
C 	C 	0.21653 0.97493 0.84164 -0.08400
Br	Br	0.89288 0.90910 0.83553 -0.16200
Br	Br	0.24269 0.08662 0.82977 -0.15500
Br	Br	0.92458 0.72503 0.81183 -0.11200
Br	Br	0.21194 0.86917 0.85218 -0.10900
C 	C 	0.47989 0.01319 0.84859 -0.11000
C 	C 	0.49828 0.98464 0.85742 0.13300
C 	C 	0.53290 0.96058 0.85330 0.06900
C 	C 	0.54815 0.96364 0.84033 0.02200
C 	C 	0.53010 0.99225 0.83151 0.07400
C 	C 	0.49523 0.01616 0.83558 0.12500
C 	C 	0.58054 0.93393 0.83585 0.02000
C 	C 	0.64177 0.96519 0.83549 0.07400
C 	C 	0.67236 0.93714 0.83106 0.12800
C 	C 	0.64173 0.87758 0.82713 -0.10300
C 	C 	0.58060 0.84602 0.82776 0.12500
C 	C 	0.55001 0.87421 0.83205 0.07000
Br	Br	0.55272 0.99801 0.81381 -0.10500
Br	Br	0.47518 0.97711 0.87510 -0.16500
Br	Br	0.75604 0.98076 0.82997 -0.12400
Br	Br	0.46621 0.83129 0.83267 -0.10600
Br	Br	0.46470 0.04863 0.82316 -0.15500
Br	Br	0.55922 0.92285 0.86540 -0.10800
Br	Br	0.68353 0.04651 0.84098 -0.11600
Br	Br	0.53889 0.76400 0.82273 -0.13900
C 	C 	0.56028 0.76799 0.77107 -0.10800
C 	C 	0.57649 0.81953 0.76388 0.12500
C 	C 	0.53592 0.82301 0.75579 0.06900
C 	C 	0.47864 0.77541 0.75511 0.02100
C 	C 	0.46141 0.72537 0.76293 0.06900
C 	C 	0.50237 0.72156 0.77087 0.13100
C 	C 	0.43706 0.77748 0.74594 0.02100
C 	C 	0.40467 0.80495 0.74944 0.07000
C 	C 	0.36949 0.81210 0.74035 0.12600
C 	C 	0.36457 0.78940 0.72790 -0.10800
C 	C 	0.39543 0.76006 0.72453 0.13000
C 	C 	0.43230 0.75487 0.73350 0.06800
Br	Br	0.38199 0.66190 0.76258 -0.10600
Br	Br	0.65468 0.88509 0.76506 -0.17300
Br	Br	0.32997 0.85529 0.74478 -0.18400
Br	Br	0.47695 0.71745 0.72873 -0.11200
Br	Br	0.47961 0.65251 0.78133 -0.11800
Br	Br	0.55898 0.89228 0.74537 -0.10900
Br	Br	0.40896 0.83307 0.76668 -0.10400
Br	Br	0.38591 0.72544 0.70781 -0.10700
C 	C 	0.01620 0.84307 0.74004 0.02700
C 	C 	0.96920 0.84027 0.74819 0.01700
C 	C 	0.98204 0.86517 0.76052 0.06400
C 	C 	0.93665 0.85364 0.76908 0.13400
C 	C 	0.87849 0.81809 0.76521 -0.11600
C 	C 	0.86568 0.79642 0.75261 0.13200
C 	C 	0.91104 0.80767 0.74409 0.06800
Br	Br	0.95398 0.88576 0.78616 -0.14500
Br	Br	0.89371 0.77677 0.72692 -0.11100
Br	Br	0.02190 0.94906 0.72954 -0.09800
Br	Br	0.78591 0.74896 0.74722 -0.19200
C 	C 	0.04031 0.42489 0.64698 -0.10800
C 	C 	0.02235 0.45646 0.65494 0.13000
Br	Br	0.94655 0.41643 0.66282 -0.14500
Br	Br	0.17291 0.77401 0.64277 -0.12100
Br	Br	0.03625 0.55975 0.66858 -0.11900
C 	C 	0.77531 0.15332 0.66719 -0.10700
C 	C 	0.75995 0.11674 0.67805 0.12600
C 	C 	0.70245 0.08905 0.68261 0.07000
C 	C 	0.66054 0.09830 0.67631 0.01900
C 	C 	0.67778 0.14069 0.66648 0.06900
C 	C 	0.73564 0.16931 0.66214 0.12100
C 	C 	0.59800 0.05991 0.67920 0.02200
C 	C 	0.56607 0.00538 0.67284 0.06000
C 	C 	0.50612 0.97019 0.67510 0.12900
C 	C 	0.47764 0.99027 0.68339 -0.10100
C 	C 	0.50969 0.04431 0.68992 0.12500
C 	C 	0.57006 0.07859 0.68801 0.07000
Br	Br	0.62146 0.15729 0.65859 -0.11700
Br	Br	0.81801 0.10542 0.68673 -0.12500
Br	Br	0.46282 0.89406 0.66695 -0.14000
Br	Br	0.61457 0.15127 0.69734 -0.10600
Br	Br	0.76068 0.23085 0.64948 -0.16000
Br	Br	0.68037 0.03676 0.69713 -0.11000
Br	Br	0.60444 0.97962 0.66086 -0.11500
Br	Br	0.47050 0.07237 0.70111 -0.13400
C 	C 	0.00551 0.10727 0.65867 -0.09100
C 	C 	0.98932 0.06331 0.66810 0.11700
C 	C 	0.02481 0.03819 0.67053 0.07200
Br	Br	0.91774 0.03642 0.67743 -0.11200
Br	Br	0.03109 0.94394 0.64545 -0.09700
Br	Br	0.00452 0.98020 0.68390 -0.09400
C 	C 	0.87505 0.83983 0.55905 -0.11700
C 	C 	0.91296 0.90061 0.55711 0.13200
C 	C 	0.91631 0.94176 0.56626 0.07100
C 	C 	0.88190 0.92208 0.57739 0.02200
C 	C 	0.84397 0.86129 0.57931 0.06700
C 	C 	0.83975 0.82029 0.57004 0.13100
C 	C 	0.88365 0.96540 0.58679 0.01900
C 	C 	0.92326 0.98355 0.59705 0.07500
C 	C 	0.92378 0.02357 0.60616 0.12600
C 	C 	0.88455 0.04522 0.60504 -0.11300
C 	C 	0.84395 0.02583 0.59496 0.12500
C 	C 	0.84425 0.98684 0.58571 0.07500
Br	Br	0.79780 0.83441 0.59467 -0.10900
Br	Br	0.96054 0.92736 0.54195 -0.13000
Br	Br	0.79075 0.96266 0.57153 -0.10600
Br	Br	0.78385 0.73757 0.57211 -0.20300
Br	Br	0.96774 0.02514 0.56360 -0.11500
Br	Br	0.78624 0.05067 0.59416 -0.20600
C 	C 	0.83528 0.52034 0.55889 -0.10900
C 	C 	0.78494 0.46469 0.56005 0.13000
C 	C 	0.78390 0.42293 0.56875 0.06900
C 	C 	0.83291 0.43726 0.57642 0.02000
C 	C 	0.88338 0.49277 0.57515 0.07000
C 	C 	0.88489 0.53383 0.56623 0.12300
C 	C 	0.83203 0.39344 0.58557 0.02100
C 	C 	0.81151 0.39073 0.59811 0.06800
C 	C 	0.81351 0.35114 0.60699 0.13000
C 	C 	0.83816 0.31596 0.60346 -0.10900
C 	C 	0.85898 0.31903 0.59093 0.12600
C 	C 	0.85440 0.35650 0.58190 0.06900
Br	Br	0.95013 0.51262 0.58579 -0.11300
Br	Br	0.71773 0.44566 0.54967 -0.11200
Br	Br	0.78066 0.34365 0.62379 -0.10800
Br	Br	0.87904 0.35764 0.56450 -0.10700
Br	Br	0.95485 0.60890 0.56405 -0.17000
Br	Br	0.71558 0.34610 0.57019 -0.10800
Br	Br	0.78143 0.44188 0.60313 -0.11200
Br	Br	0.89649 0.27407 0.58631 -0.19000
