data_crystal

_cell_length_a 46.01430
_cell_length_b 49.10130
_cell_length_c 24.24462
_cell_angle_alpha 94.15298
_cell_angle_beta  93.49969
_cell_angle_gamma 90.10062

_symmetry_space_group_name_	'P 1'
_symmetry_space_group_name_H-M	'P 1'

loop_
_symmetry_equiv_pos_as_xyz
  x,y,z

loop_
_atom_site_label
_atom_site_type_symbol
_atom_site_fract_x
_atom_site_fract_y
_atom_site_fract_z
_atom_site_charge
C 	C 	0.92381 0.84848 0.16849 0.33900
C 	C 	0.98825 0.69179 0.87757 0.16700
N 	N 	0.98544 0.66671 0.89714 -0.14300
C 	C 	0.98862 0.64382 0.86301 0.13400
N 	N 	0.99259 0.64609 0.80849 -0.14400
C 	C 	0.99419 0.67105 0.78832 0.13600
N 	N 	0.99329 0.69385 0.82331 -0.11800
C 	C 	0.96059 0.66938 0.28692 0.17800
N 	N 	0.96711 0.67424 0.34225 -0.14100
C 	C 	0.97583 0.65347 0.37337 0.13700
N 	N 	0.97697 0.62768 0.34942 -0.14400
C 	C 	0.97013 0.62264 0.29436 0.13900
N 	N 	0.96186 0.64351 0.26317 -0.12100
Cd	Cd	0.86304 0.04287 0.86746 1.15600
C 	C 	0.82615 0.08531 0.79145 0.29100
O 	O 	0.81492 0.08579 0.74068 -0.26000
O 	O 	0.82894 0.06134 0.80991 -0.54100
O 	O 	0.82775 0.07558 0.37800 -0.43700
C 	C 	0.83563 0.09731 0.40926 0.29400
O 	O 	0.83810 0.09438 0.46256 -0.33300
Cd	Cd	0.96546 0.14152 0.22037 1.24600
Cd	Cd	0.96670 0.09808 0.33263 1.17200
O 	O 	0.98112 0.18907 0.24308 -0.29200
O 	O 	0.96944 0.17367 0.15734 -0.34400
C 	C 	0.97795 0.19429 0.19137 0.34100
O 	O 	0.95754 0.09940 0.17901 -0.36400
O 	O 	0.94057 0.08163 0.25605 -0.43500
C 	C 	0.95090 0.07809 0.20650 0.28400
C 	C 	0.01963 0.12225 0.26485 0.29500
O 	O 	0.94216 0.13815 0.31617 -0.43600
O 	O 	0.02313 0.13259 0.21743 -0.25900
O 	O 	0.99380 0.12463 0.28255 -0.53800
C 	C 	0.91673 0.14058 0.29032 0.28200
O 	O 	0.91686 0.14579 0.23827 -0.33700
Cd	Cd	0.94625 0.16873 0.98749 1.24200
Cd	Cd	0.94001 0.12080 0.86998 1.15700
O 	O 	0.93566 0.21661 0.97086 -0.30500
O 	O 	0.94549 0.20383 0.05494 -0.33300
C 	C 	0.93883 0.22359 0.02351 0.35400
O 	O 	0.94976 0.12769 0.02356 -0.34500
O 	O 	0.96484 0.10525 0.94402 -0.45800
C 	C 	0.95514 0.10466 0.99401 0.23900
C 	C 	0.89007 0.15205 0.94194 0.28900
O 	O 	0.96937 0.15910 0.89110 -0.43800
O 	O 	0.88821 0.16451 0.99108 -0.26900
O 	O 	0.91565 0.15213 0.92264 -0.54300
C 	C 	0.99484 0.16024 0.91790 0.28700
O 	O 	0.99506 0.16780 0.97063 -0.34000
C 	C 	0.95642 0.40111 0.90123 0.17100
N 	N 	0.94930 0.39609 0.84613 -0.14200
C 	C 	0.94975 0.41668 0.81172 0.13600
N 	N 	0.95581 0.44253 0.83280 -0.14400
C 	C 	0.96241 0.44776 0.88788 0.13500
N 	N 	0.96351 0.42692 0.92188 -0.12600
C 	C 	0.94477 0.38277 0.31117 0.17600
N 	N 	0.94249 0.40637 0.28529 -0.11800
C 	C 	0.93730 0.43029 0.31467 0.13900
N 	N 	0.93475 0.43061 0.37026 -0.14400
C 	C 	0.93654 0.40704 0.39622 0.13700
N 	N 	0.94201 0.38320 0.36676 -0.14200
Cd	Cd	0.07794 0.04550 0.74066 1.24600
Cd	Cd	0.04102 0.04847 0.86627 1.15800
O 	O 	0.13112 0.04258 0.75129 -0.30100
O 	O 	0.10797 0.03663 0.66961 -0.31000
C 	C 	0.13272 0.03605 0.69878 0.32600
O 	O 	0.03040 0.04152 0.71252 -0.35900
O 	O 	0.01398 0.06210 0.79282 -0.45700
C 	C 	0.00889 0.04760 0.74522 0.27200
C 	C 	0.07074 0.99700 0.79595 0.28500
O 	O 	0.07624 0.07603 0.83377 -0.43900
O 	O 	0.07870 0.99120 0.74576 -0.24000
O 	O 	0.07039 0.02272 0.81179 -0.53600
C 	C 	0.07193 0.09703 0.80447 0.29000
O 	O 	0.07389 0.09259 0.75103 -0.33700
Cd	Cd	0.08670 0.00909 0.45856 1.24500
O 	O 	0.13994 0.01268 0.46501 -0.28800
O 	O 	0.11561 0.00868 0.53894 -0.31700
C 	C 	0.14095 0.01018 0.51796 0.33400
O 	O 	0.03874 0.01399 0.47312 -0.36500
C 	C 	0.01838 0.00878 0.43265 0.27200
C 	C 	0.08188 0.06031 0.41189 0.29900
O 	O 	0.08962 0.06376 0.46477 -0.26700
O 	O 	0.08141 0.03533 0.39094 -0.53100
C 	C 	0.28688 0.91853 0.81772 0.17100
N 	N 	0.31295 0.91122 0.79765 -0.11500
C 	C 	0.33318 0.89844 0.82976 0.13500
N 	N 	0.32690 0.89254 0.88161 -0.14600
C 	C 	0.30203 0.90179 0.90345 0.14000
N 	N 	0.28183 0.91438 0.87121 -0.14300
C 	C 	0.30696 0.92104 0.40627 0.17900
N 	N 	0.29783 0.91365 0.35288 -0.14000
C 	C 	0.31740 0.90562 0.31539 0.13700
N 	N 	0.34587 0.90318 0.33215 -0.14300
C 	C 	0.35501 0.90964 0.38581 0.13600
N 	N 	0.33561 0.91905 0.42263 -0.12700
C 	C 	0.30849 0.90276 0.25571 -0.04600
C 	C 	0.29616 0.92492 0.22813 0.11100
C 	C 	0.28893 0.92158 0.17096 -0.08300
C 	C 	0.29684 0.89787 0.13988 -0.00200
C 	C 	0.30874 0.87558 0.16737 0.07600
C 	C 	0.31402 0.87813 0.22523 -0.04800
N 	N 	0.29286 0.94983 0.25542 -0.19800
H 	H 	0.27949 0.93848 0.14978 0.06800
C 	C 	0.29756 0.89866 0.07896 -0.00200
N 	N 	0.31536 0.85181 0.13855 -0.19400
H 	H 	0.32317 0.86111 0.24641 0.05700
C 	C 	0.32048 0.91262 0.05772 -0.09100
C 	C 	0.32091 0.91586 0.00083 0.13900
C 	C 	0.29946 0.90260 0.96388 -0.06400
C 	C 	0.27630 0.88884 0.98499 -0.06300
C 	C 	0.27482 0.88716 0.04244 0.09300
H 	H 	0.33747 0.92197 0.08591 0.06300
N 	N 	0.34119 0.93258 0.98219 -0.21900
H 	H 	0.25956 0.87918 0.95670 0.05900
N 	N 	0.25179 0.87430 0.06208 -0.19600
H 	H 	0.35798 0.94096 0.00919 0.10500
H 	H 	0.33947 0.93881 0.94186 0.10300
H 	H 	0.23523 0.86574 0.03478 0.10700
H 	H 	0.25000 0.87274 0.10445 0.10300
H 	H 	0.32462 0.83565 0.15910 0.09600
H 	H 	0.31098 0.84896 0.09578 0.09800
H 	H 	0.30290 0.95468 0.29464 0.10400
H 	H 	0.28192 0.96541 0.23566 0.10500
C 	C 	0.21954 0.00144 0.55278 -0.13000
C 	C 	0.22129 0.97320 0.53958 0.01000
C 	C 	0.19610 0.95711 0.54047 0.29100
C 	C 	0.16889 0.96962 0.54277 -0.06000
C 	C 	0.16683 0.99818 0.54443 -0.12300
C 	C 	0.19230 0.01401 0.55413 0.37000
C 	C 	0.24604 0.96235 0.50901 0.00400
F 	F 	0.19764 0.92952 0.53227 -0.42000
F 	F 	0.19067 0.04167 0.55918 -0.42500
H 	H 	0.23907 0.01394 0.55552 0.13200
C 	C 	0.24973 0.97026 0.45531 0.30100
C 	C 	0.27014 0.95716 0.42261 -0.08400
C 	C 	0.28699 0.93587 0.44282 -0.08400
C 	C 	0.28417 0.92857 0.49729 0.34800
C 	C 	0.26371 0.94180 0.53027 -0.11900
F 	F 	0.23257 0.98987 0.43395 -0.41800
H 	H 	0.27254 0.96329 0.38107 0.09600
F 	F 	0.30046 0.90809 0.51753 -0.43200
H 	H 	0.26100 0.93555 0.57161 0.12700
C 	C 	0.25051 0.95869 0.70412 -0.11600
C 	C 	0.22248 0.96206 0.72321 0.00200
C 	C 	0.21504 0.94924 0.77039 0.30300
C 	C 	0.23565 0.93394 0.79912 -0.09000
C 	C 	0.26437 0.93198 0.78245 -0.07600
C 	C 	0.27154 0.94404 0.73380 0.34100
C 	C 	0.20168 0.98088 0.69695 0.01200
F 	F 	0.18807 0.95249 0.78967 -0.42200
H 	H 	0.22944 0.92413 0.83528 0.10200
F 	F 	0.29894 0.94229 0.71608 -0.42900
H 	H 	0.25629 0.96814 0.66723 0.12200
C 	C 	0.20777 0.00902 0.69990 0.28900
C 	C 	0.18522 0.02760 0.69128 -0.05000
C 	C 	0.15644 0.01828 0.68072 -0.11900
C 	C 	0.15111 0.99010 0.67054 0.37000
C 	C 	0.17372 0.97151 0.67832 -0.13300
F 	F 	0.23498 0.01845 0.71572 -0.41700
H 	H 	0.18972 0.04931 0.69774 0.11100
F 	F 	0.12363 0.98068 0.65739 -0.42400
H 	H 	0.16909 0.94979 0.67341 0.13400
C 	C 	0.94451 0.41099 0.75134 -0.04700
C 	C 	0.96455 0.39565 0.71963 0.10900
C 	C 	0.96023 0.39308 0.66162 -0.08300
C 	C 	0.93742 0.40682 0.63468 -0.00200
C 	C 	0.91695 0.42150 0.66633 0.07500
C 	C 	0.92058 0.42319 0.72443 -0.04900
N 	N 	0.98844 0.38417 0.74428 -0.19900
H 	H 	0.97560 0.38154 0.63719 0.06600
C 	C 	0.93668 0.40759 0.57356 -0.00100
N 	N 	0.89408 0.43434 0.64132 -0.19400
H 	H 	0.90515 0.43470 0.74877 0.05600
C 	C 	0.91882 0.38901 0.54034 -0.08400
C 	C 	0.91696 0.38969 0.48238 0.11100
C 	C 	0.93526 0.40776 0.45711 -0.04800
C 	C 	0.95323 0.42625 0.49040 -0.04900
C 	C 	0.95377 0.42669 0.54842 0.07400
H 	H 	0.90550 0.37465 0.55976 0.06600
N 	N 	0.89678 0.37387 0.45161 -0.19900
H 	H 	0.96701 0.44027 0.47108 0.05500
N 	N 	0.97064 0.44550 0.57964 -0.19300
H 	H 	0.88446 0.35960 0.47027 0.10500
H 	H 	0.89184 0.37671 0.40984 0.11100
H 	H 	0.98346 0.45925 0.56066 0.09100
H 	H 	0.97089 0.44701 0.62283 0.09300
H 	H 	0.87927 0.44536 0.66507 0.09300
H 	H 	0.89062 0.43342 0.59828 0.09500
H 	H 	0.99371 0.38744 0.78670 0.10400
H 	H 	0.00263 0.37238 0.72054 0.10200
C 	C 	0.02211 0.15488 0.88908 -0.07700
C 	C 	0.04702 0.14470 0.91770 0.00400
C 	C 	0.06742 0.12932 0.88780 -0.01400
C 	C 	0.06217 0.12349 0.83027 -0.07600
C 	C 	0.04220 0.13981 0.80123 0.00100
C 	C 	0.02198 0.15564 0.83087 -0.00700
C 	C 	0.05221 0.15074 0.97690 0.08700
C 	C 	0.04377 0.14182 0.74217 0.10900
C 	C 	0.00223 0.17360 0.80220 0.09300
C 	C 	0.09384 0.11983 0.91572 0.08900
N 	N 	0.98646 0.18793 0.77928 -0.09500
N 	N 	0.11494 0.11224 0.93802 -0.09800
N 	N 	0.04504 0.14347 0.69499 -0.09000
N 	N 	0.05642 0.15555 0.02416 -0.06500
C 	C 	0.92368 0.29779 0.03195 -0.14300
C 	C 	0.95216 0.30785 0.03054 0.00900
C 	C 	0.97569 0.29111 0.04531 0.30900
C 	C 	0.97099 0.26329 0.05072 -0.05900
C 	C 	0.94272 0.25236 0.04321 -0.13400
C 	C 	0.91896 0.27011 0.03859 0.38400
C 	C 	0.95726 0.33279 0.00170 0.02100
F 	F 	0.00328 0.30119 0.04906 -0.40300
H 	H 	0.98947 0.24989 0.05600 0.10900
F 	F 	0.89136 0.26003 0.03473 -0.41600
H 	H 	0.90527 0.31085 0.02312 0.12800
C 	C 	0.96956 0.33068 0.94988 0.29500
C 	C 	0.97029 0.35333 0.91834 -0.08800
C 	C 	0.95835 0.37825 0.93761 -0.07800
C 	C 	0.94693 0.38068 0.99029 0.31600
C 	C 	0.94650 0.35803 0.02224 -0.11700
F 	F 	0.97955 0.30631 0.92895 -0.41200
H 	H 	0.97958 0.35135 0.87824 0.09900
F 	F 	0.93513 0.40459 0.00950 -0.42000
H 	H 	0.93696 0.35985 0.06210 0.12500
C 	C 	0.07438 0.08336 0.37778 -0.09600
C 	C 	0.05634 0.10464 0.39791 -0.00500
C 	C 	0.04268 0.12184 0.36047 -0.02200
C 	C 	0.04457 0.11589 0.30304 -0.08300
C 	C 	0.06701 0.09880 0.28446 -0.00800
C 	C 	0.08209 0.08245 0.32207 -0.01600
C 	C 	0.05067 0.10798 0.45618 0.07800
C 	C 	0.07558 0.09913 0.22801 0.10100
C 	C 	0.10557 0.06501 0.30387 0.06200
C 	C 	0.02689 0.14569 0.38072 0.07200
N 	N 	0.12430 0.05107 0.28934 -0.09800
N 	N 	0.01427 0.16471 0.39684 -0.09400
N 	N 	0.08253 0.09943 0.18298 -0.08700
N 	N 	0.04609 0.11068 0.50267 -0.09600
C 	C 	0.94730 0.32656 0.19573 -0.11600
C 	C 	0.96355 0.30668 0.22248 0.00400
C 	C 	0.97475 0.31236 0.27733 0.30300
C 	C 	0.96918 0.33742 0.30554 -0.08700
C 	C 	0.95195 0.35698 0.27970 -0.07900
C 	C 	0.94125 0.35152 0.22425 0.34300
C 	C 	0.96647 0.27902 0.19528 0.01500
F 	F 	0.99024 0.29319 0.30393 -0.41700
H 	H 	0.97800 0.34153 0.34779 0.10300
F 	F 	0.92415 0.36992 0.19870 -0.42700
H 	H 	0.93862 0.32235 0.15343 0.12100
C 	C 	0.94201 0.26174 0.18667 0.29000
C 	C 	0.94568 0.23358 0.17712 -0.05000
C 	C 	0.97375 0.22249 0.17678 -0.12900
C 	C 	0.99793 0.24005 0.17840 0.37400
C 	C 	0.99427 0.26827 0.18728 -0.12900
F 	F 	0.91485 0.27198 0.19189 -0.41000
H 	H 	0.92682 0.22020 0.17454 0.10500
F 	F 	0.02516 0.22964 0.17576 -0.41900
H 	H 	0.01320 0.28158 0.19173 0.14000
C 	C 	0.44757 0.91010 0.41601 -0.00200
N 	N 	0.48613 0.94235 0.49440 -0.19400
C 	C 	0.43065 0.89169 0.44219 -0.08600
C 	C 	0.40012 0.89185 0.43486 0.11100
C 	C 	0.38641 0.91112 0.40129 -0.04500
C 	C 	0.40329 0.93045 0.37767 -0.04900
C 	C 	0.43376 0.92984 0.38369 0.07600
N 	N 	0.38423 0.87323 0.45937 -0.20000
H 	H 	0.39265 0.94540 0.35261 0.05600
N 	N 	0.44959 0.94784 0.35738 -0.19300
H 	H 	0.36153 0.87273 0.45477 0.11900
H 	H 	0.43913 0.96251 0.33420 0.09300
H 	H 	0.47228 0.94728 0.35881 0.09500
H 	H 	0.49916 0.95693 0.51782 0.10000
H 	H 	0.46460 0.94002 0.50468 0.09900
C 	C 	0.36378 0.89681 0.81397 -0.04400
C 	C 	0.37081 0.89115 0.75820 0.12000
C 	C 	0.39942 0.89570 0.74346 -0.08400
C 	C 	0.42152 0.90321 0.78417 -0.00000
C 	C 	0.41500 0.90629 0.84060 0.07500
C 	C 	0.38617 0.90341 0.85479 -0.05000
N 	N 	0.35073 0.88011 0.71945 -0.19500
H 	H 	0.40464 0.89265 0.70044 0.06500
C 	C 	0.45113 0.90914 0.76738 -0.00300
N 	N 	0.43624 0.91233 0.88128 -0.19300
H 	H 	0.38105 0.90711 0.89773 0.05200
C 	C 	0.45918 0.93643 0.76322 -0.08300
H 	H 	0.44243 0.95180 0.75930 0.06600
N 	N 	0.49589 0.97118 0.76873 -0.19900
H 	H 	0.47976 0.98586 0.76308 0.09900
H 	H 	0.43105 0.91507 0.92269 0.08700
H 	H 	0.45808 0.91394 0.87259 0.09300
H 	H 	0.33106 0.87219 0.73076 0.11600
H 	H 	0.35555 0.87752 0.67783 0.11300
C 	C 	0.88979 0.14230 0.32109 -0.07100
C 	C 	0.89183 0.14777 0.37929 -0.00800
C 	C 	0.87092 0.13652 0.41139 0.00200
C 	C 	0.84740 0.12143 0.38447 -0.07600
C 	C 	0.84087 0.12447 0.32770 -0.01300
C 	C 	0.86278 0.13339 0.29504 -0.00700
C 	C 	0.91449 0.16571 0.40545 0.09200
C 	C 	0.81196 0.11797 0.30317 0.08800
C 	C 	0.85770 0.13287 0.23538 0.09700
C 	C 	0.87295 0.14143 0.47114 0.10300
N 	N 	0.85358 0.13242 0.18775 -0.08700
N 	N 	0.87460 0.14539 0.51887 -0.09200
N 	N 	0.78887 0.11278 0.28358 -0.09500
N 	N 	0.93258 0.18004 0.42633 -0.09400
C 	C 	0.93974 0.02416 0.39130 -0.03000
C 	C 	0.97005 0.02249 0.38894 -0.04200
C 	C 	0.98765 0.01875 0.43766 -0.09200
C 	C 	0.92113 0.01618 0.34241 -0.03400
C 	C 	0.98318 0.02797 0.33807 -0.04000
N 	N 	0.99368 0.03248 0.29752 -0.20200
N 	N 	0.90633 0.00967 0.30336 -0.19400
C 	C 	0.91744 0.03568 0.72580 -0.07600
C 	C 	0.96625 0.01666 0.71780 -0.02300
C 	C 	0.97817 0.04326 0.72359 -0.07300
C 	C 	0.95933 0.06580 0.72013 -0.01300
C 	C 	0.92894 0.06201 0.72146 -0.02100
C 	C 	0.97119 0.09283 0.71544 0.05800
C 	C 	0.90963 0.08520 0.71932 0.03300
N 	N 	0.89428 0.10377 0.71747 -0.12300
N 	N 	0.98054 0.11445 0.71164 -0.11400
C 	C 	0.83081 0.11036 0.82857 -0.09000
C 	C 	0.82615 0.10977 0.88549 -0.02700
C 	C 	0.84258 0.12719 0.92431 -0.00800
C 	C 	0.86398 0.14426 0.90569 -0.09700
C 	C 	0.86294 0.14956 0.84913 -0.01700
C 	C 	0.84559 0.13286 0.81045 -0.01000
C 	C 	0.80436 0.09163 0.90367 0.06600
C 	C 	0.87930 0.17222 0.83119 0.07600
C 	C 	0.84169 0.13964 0.75332 0.10600
C 	C 	0.83642 0.12868 0.98232 0.07400
N 	N 	0.83855 0.14511 0.70771 -0.08500
N 	N 	0.83134 0.12996 0.02860 -0.07100
N 	N 	0.89239 0.19030 0.81689 -0.09400
N 	N 	0.78696 0.07713 0.91817 -0.09900
F 	F 	0.71142 0.06039 0.66973 -0.41000
C 	C 	0.93739 0.45624 0.28731 -0.03900
C 	C 	0.91801 0.47753 0.30198 0.10900
C 	C 	0.92403 0.50418 0.28847 -0.08200
C 	C 	0.94734 0.50934 0.25590 -0.00400
C 	C 	0.96371 0.48724 0.23369 0.08100
C 	C 	0.95919 0.46097 0.25100 -0.04700
N 	N 	0.89324 0.47236 0.32733 -0.19800
H 	H 	0.91068 0.52095 0.30361 0.06100
C 	C 	0.95673 0.53798 0.25162 -0.00300
N 	N 	0.98359 0.49112 0.19571 -0.19400
H 	H 	0.97320 0.44439 0.23741 0.07100
C 	C 	0.98324 0.54703 0.27846 -0.08400
C 	C 	0.98993 0.57499 0.28552 0.10900
C 	C 	0.96864 0.59419 0.26997 -0.04100
C 	C 	0.94349 0.58512 0.23815 -0.04900
C 	C 	0.93776 0.55707 0.22748 0.07800
H 	H 	0.99845 0.53232 0.29471 0.06100
N 	N 	0.01689 0.58327 0.30620 -0.19800
H 	H 	0.92781 0.59984 0.22357 0.06500
N 	N 	0.91415 0.54859 0.19415 -0.19400
H 	H 	0.03205 0.56908 0.32010 0.09600
H 	H 	0.02358 0.60358 0.30562 0.10700
H 	H 	0.89962 0.56279 0.17817 0.09900
H 	H 	0.91071 0.52795 0.18192 0.10000
H 	H 	0.99640 0.47491 0.18106 0.10400
H 	H 	0.98563 0.50990 0.17863 0.10000
H 	H 	0.88607 0.45239 0.33064 0.10700
H 	H 	0.87984 0.48838 0.34070 0.09600
C 	C 	0.98398 0.61657 0.88309 -0.04800
C 	C 	0.00126 0.60704 0.92819 0.10800
C 	C 	0.99746 0.58011 0.94270 -0.08500
C 	C 	0.97899 0.56192 0.90981 -0.00300
C 	C 	0.96126 0.57161 0.86566 0.07500
C 	C 	0.96341 0.59903 0.85382 -0.05000
N 	N 	0.02230 0.62307 0.95600 -0.19900
H 	H 	0.01056 0.57272 0.97716 0.06100
C 	C 	0.98026 0.53239 0.91872 -0.00400
N 	N 	0.94250 0.55463 0.83395 -0.19400
H 	H 	0.94973 0.60652 0.82021 0.05500
C 	C 	0.95824 0.52075 0.94710 -0.08600
C 	C 	0.95326 0.49240 0.94163 0.10800
C 	C 	0.97159 0.47550 0.90916 -0.04600
C 	C 	0.99619 0.48686 0.88805 -0.05100
C 	C 	0.00051 0.51523 0.89170 0.07500
H 	H 	0.94356 0.53392 0.96991 0.06000
N 	N 	0.93044 0.48173 0.96621 -0.20100
H 	H 	0.01095 0.47372 0.86533 0.05500
N 	N 	0.02360 0.52587 0.86786 -0.19400
H 	H 	0.91670 0.49448 0.98907 0.09800
H 	H 	0.92633 0.46077 0.96369 0.12700
H 	H 	0.03800 0.51304 0.84682 0.09200
H 	H 	0.02781 0.54683 0.87072 0.09400
H 	H 	0.92958 0.56203 0.80142 0.09000
H 	H 	0.94057 0.53401 0.84092 0.09400
H 	H 	0.02831 0.64179 0.94224 0.10500
H 	H 	0.03400 0.61620 0.99058 0.10000
C 	C 	0.98090 0.65827 0.43412 -0.04800
C 	C 	0.00010 0.67906 0.45825 0.11200
C 	C 	0.00281 0.68387 0.51621 -0.08400
C 	C 	0.98885 0.66677 0.55037 -0.00200
C 	C 	0.97074 0.64519 0.52628 0.07500
C 	C 	0.96643 0.64159 0.46842 -0.04900
N 	N 	0.01688 0.69358 0.42640 -0.19900
H 	H 	0.01679 0.70027 0.53483 0.06700
C 	C 	0.99305 0.67180 0.61140 -0.00100
N 	N 	0.95759 0.62778 0.55834 -0.19300
H 	H 	0.95188 0.62559 0.44997 0.05500
C 	C 	0.97130 0.68557 0.64015 -0.08400
C 	C 	0.97098 0.68537 0.69800 0.11700
C 	C 	0.99444 0.67330 0.72799 -0.04300
C 	C 	0.01739 0.66143 0.69943 -0.04900
C 	C 	0.01680 0.66024 0.64131 0.07600
H 	H 	0.95338 0.69472 0.61707 0.06800
N 	N 	0.94750 0.69557 0.72396 -0.19600
H 	H 	0.03544 0.65242 0.72245 0.05600
N 	N 	0.03881 0.64766 0.61457 -0.19400
H 	H 	0.93107 0.70560 0.70183 0.11100
H 	H 	0.94444 0.69238 0.76528 0.12700
H 	H 	0.05602 0.63885 0.63701 0.09300
H 	H 	0.03926 0.64668 0.57149 0.09500
H 	H 	0.94387 0.61222 0.54014 0.09000
H 	H 	0.96122 0.62910 0.60137 0.09300
H 	H 	0.01875 0.68791 0.38446 0.11200
H 	H 	0.02978 0.70981 0.44433 0.10600
C 	C 	0.95661 0.07848 0.02115 -0.04900
C 	C 	0.93068 0.06500 0.03144 -0.03000
C 	C 	0.92993 0.03617 0.03033 -0.00000
C 	C 	0.95581 0.02110 0.02391 -0.08500
C 	C 	0.98260 0.03525 0.02566 -0.01500
C 	C 	0.98300 0.06395 0.02374 -0.01700
C 	C 	0.90493 0.08070 0.04319 0.06300
C 	C 	0.00962 0.02028 0.02750 0.04000
C 	C 	0.01043 0.07845 0.02309 0.06700
C 	C 	0.90239 0.02202 0.03228 0.05700
N 	N 	0.03235 0.08998 0.02257 -0.11400
N 	N 	0.88437 0.09325 0.05287 -0.10600
C 	C 	0.05099 0.94028 0.76213 0.10600
N 	N 	0.05049 0.93106 0.71677 -0.08200
C 	C 	0.95023 0.80462 0.01877 -0.16800
C 	C 	0.97680 0.79068 0.01825 0.05100
C 	C 	0.00235 0.80436 0.03984 0.29300
C 	C 	0.94991 0.83290 0.03043 0.38300
C 	C 	0.97873 0.76485 0.98328 -0.04700
F 	F 	0.02817 0.79103 0.04171 -0.38900
F 	F 	0.92474 0.84674 0.02158 -0.42100
H 	H 	0.93017 0.79399 0.00477 0.13000
C 	C 	0.98970 0.74106 0.00563 0.36000
C 	C 	0.99271 0.71718 0.97117 -0.12200
C 	C 	0.98428 0.71676 0.91432 -0.06900
C 	C 	0.97228 0.74038 0.89262 0.33100
C 	C 	0.97002 0.76431 0.92672 -0.11900
F 	F 	0.99760 0.74110 0.06049 -0.39900
H 	H 	0.00184 0.69912 0.98855 0.10800
F 	F 	0.96232 0.74003 0.83869 -0.43800
H 	H 	0.96146 0.78255 0.90915 0.11100
C 	C 	0.97674 0.03689 0.16775 -0.00400
C 	C 	0.95033 0.05024 0.17822 -0.06800
C 	C 	0.89646 0.04882 0.17492 0.06700
C 	C 	0.00297 0.05272 0.16362 0.06300
N 	N 	0.02393 0.06535 0.16012 -0.11100
N 	N 	0.87432 0.05992 0.17633 -0.12900
C 	C 	0.90709 0.77406 0.15209 -0.13100
C 	C 	0.93473 0.76372 0.16652 0.01600
C 	C 	0.95932 0.78063 0.16579 0.30100
C 	C 	0.95586 0.80844 0.15882 -0.06100
C 	C 	0.92789 0.81951 0.15212 -0.12200
C 	C 	0.90365 0.80195 0.14509 0.37700
C 	C 	0.93729 0.73765 0.19318 0.00800
F 	F 	0.98636 0.77066 0.17716 -0.39400
F 	F 	0.87653 0.81224 0.13639 -0.41500
H 	H 	0.88806 0.76094 0.15060 0.12900
C 	C 	0.92703 0.73569 0.24619 0.30000
C 	C 	0.93384 0.71295 0.27582 -0.08500
C 	C 	0.95122 0.69203 0.25317 -0.08300
C 	C 	0.96049 0.69345 0.19914 0.35000
C 	C 	0.95329 0.71608 0.16919 -0.12300
F 	F 	0.91157 0.75643 0.26998 -0.41700
H 	H 	0.92606 0.71183 0.31689 0.10200
F 	F 	0.97751 0.67356 0.17662 -0.42700
H 	H 	0.96106 0.71731 0.12816 0.14900
Cd	Cd	0.94012 0.90273 0.19893 1.24800
Cd	Cd	0.95164 0.95058 0.31666 1.17900
O 	O 	0.92585 0.85669 0.22061 -0.29400
O 	O 	0.92878 0.86726 0.13485 -0.30800
O 	O 	0.94473 0.94338 0.16228 -0.36500
O 	O 	0.97018 0.96336 0.23910 -0.43000
C 	C 	0.95466 0.96554 0.19216 0.28300
C 	C 	0.89152 0.92548 0.25193 0.29900
O 	O 	0.97347 0.90940 0.29117 -0.43400
O 	O 	0.88296 0.91290 0.20432 -0.25700
O 	O 	0.91876 0.92288 0.26663 -0.53100
C 	C 	0.99580 0.90573 0.26097 0.28700
O 	O 	0.99008 0.89845 0.20862 -0.33500
Cd	Cd	0.96568 0.92817 0.99851 1.24200
Cd	Cd	0.96222 0.96678 0.87883 1.15800
O 	O 	0.97805 0.88030 0.97754 -0.31600
O 	O 	0.97258 0.89631 0.06324 -0.34600
C 	C 	0.97836 0.87542 0.02934 0.35300
O 	O 	0.96212 0.97216 0.03269 -0.35900
O 	O 	0.94081 0.98668 0.95190 -0.47100
C 	C 	0.95412 0.99219 0.00110 0.29500
C 	C 	0.01816 0.94371 0.95288 0.27500
O 	O 	0.93637 0.92906 0.90181 -0.43700
O 	O 	0.02365 0.93517 0.00223 -0.25300
O 	O 	0.99128 0.94148 0.93405 -0.54200
C 	C 	0.91262 0.92899 0.92850 0.29400
O 	O 	0.91590 0.92560 0.98136 -0.33300
Cd	Cd	0.81889 0.03124 0.74223 1.24500
O 	O 	0.76605 0.03363 0.75040 -0.29200
O 	O 	0.78467 0.02651 0.66954 -0.33700
C 	C 	0.76132 0.02892 0.69729 0.34100
O 	O 	0.86453 0.03455 0.71437 -0.36300
O 	O 	0.88667 0.02290 0.79680 -0.46200
C 	C 	0.88827 0.03253 0.74769 0.27500
O 	O 	0.82772 0.01023 0.83874 -0.43900
C 	C 	0.83151 0.98672 0.81162 0.29100
O 	O 	0.82637 0.98597 0.75805 -0.33900
Cd	Cd	0.83121 0.04754 0.46574 1.24400
Cd	Cd	0.85832 0.04627 0.33041 1.18100
O 	O 	0.77811 0.04749 0.46829 -0.29900
O 	O 	0.80606 0.04206 0.54312 -0.34000
C 	C 	0.77967 0.04266 0.52025 0.33900
O 	O 	0.87966 0.04046 0.47971 -0.36200
O 	O 	0.89030 0.06018 0.40063 -0.43600
C 	C 	0.89804 0.04469 0.44111 0.27900
C 	C 	0.83173 0.99740 0.39971 0.31300
O 	O 	0.82623 0.99334 0.45069 -0.27700
O 	O 	0.83191 0.02265 0.38779 -0.52900
C 	C 	0.58654 0.94854 0.80106 0.17600
N 	N 	0.59130 0.94729 0.85673 -0.14100
C 	C 	0.56951 0.93959 0.88769 0.13200
N 	N 	0.54331 0.93194 0.86261 -0.14400
C 	C 	0.53869 0.93246 0.80686 0.13700
N 	N 	0.56026 0.94082 0.77609 -0.12200
C 	C 	0.61311 0.94019 0.39178 0.17900
N 	N 	0.61336 0.94357 0.33662 -0.12100
C 	C 	0.59018 0.93540 0.30201 0.13800
N 	N 	0.56675 0.92377 0.32257 -0.14400
C 	C 	0.56619 0.92069 0.37772 0.13700
N 	N 	0.58941 0.92888 0.41227 -0.14000
Cd	Cd	0.05238 0.01212 0.32390 1.17700
O 	O 	0.02505 0.99469 0.38690 -0.43800
O 	O 	0.08677 0.98284 0.35999 -0.43300
C 	C 	0.08151 0.96038 0.38319 0.29300
O 	O 	0.08118 0.96259 0.43715 -0.33800
H 	H 	0.14932 0.95715 0.53770 0.10800
C 	C 	0.53898 0.91198 0.40065 -0.04600
C 	C 	0.52232 0.89002 0.37413 0.10900
C 	C 	0.49251 0.88830 0.38272 -0.08400
C 	C 	0.47964 0.90733 0.41950 -0.00400
C 	C 	0.49745 0.92614 0.45328 0.07900
C 	C 	0.52700 0.92862 0.44292 -0.05000
N 	N 	0.53488 0.87049 0.34093 -0.19900
H 	H 	0.47911 0.87282 0.35921 0.06000
H 	H 	0.54020 0.94454 0.46553 0.06200
H 	H 	0.44130 0.87677 0.46728 0.06200
H 	H 	0.39460 0.85899 0.48373 0.09900
H 	H 	0.55744 0.86976 0.33831 0.10600
H 	H 	0.52223 0.85497 0.31953 0.09600
C 	C 	0.48857 0.94440 0.77014 0.10700
C 	C 	0.51007 0.92449 0.78026 -0.04200
C 	C 	0.50229 0.89676 0.77519 -0.04900
C 	C 	0.47288 0.88885 0.76837 0.07600
H 	H 	0.51899 0.88141 0.78012 0.06100
N 	N 	0.46562 0.86191 0.76491 -0.19400
H 	H 	0.51760 0.97759 0.77167 0.10600
H 	H 	0.48176 0.84704 0.76787 0.09400
H 	H 	0.44401 0.85545 0.75750 0.09400
C 	C 	0.57409 0.93996 0.94858 -0.03400
C 	C 	0.58314 0.96406 0.98088 0.08500
C 	C 	0.58881 0.96311 0.03829 -0.05500
C 	C 	0.58348 0.93923 0.06453 -0.01500
C 	C 	0.57334 0.91542 0.03254 0.10100
C 	C 	0.56925 0.91593 0.97472 -0.07700
N 	N 	0.58521 0.98833 0.95757 -0.19400
H 	H 	0.59624 0.98138 0.06299 0.06400
C 	C 	0.58673 0.94001 0.12589 0.00100
N 	N 	0.56737 0.89211 0.05696 -0.19700
H 	H 	0.56211 0.89757 0.95000 0.05900
C 	C 	0.56477 0.95210 0.15680 -0.08400
C 	C 	0.56678 0.95289 0.21489 0.10700
C 	C 	0.59019 0.93957 0.24229 -0.04000
C 	C 	0.61272 0.92837 0.21156 -0.05000
C 	C 	0.61149 0.92889 0.15356 0.08200
H 	H 	0.54628 0.96134 0.13558 0.06200
N 	N 	0.54680 0.96722 0.24410 -0.19800
H 	H 	0.63100 0.91876 0.23269 0.07900
N 	N 	0.63397 0.91855 0.12482 -0.19400
H 	H 	0.52879 0.97579 0.22360 0.09400
H 	H 	0.54982 0.97137 0.28691 0.10100
H 	H 	0.65187 0.90990 0.14552 0.11000
H 	H 	0.63419 0.91941 0.08195 0.10700
H 	H 	0.56014 0.87460 0.03292 0.09900
H 	H 	0.56955 0.89114 0.09987 0.09700
H 	H 	0.57716 0.99072 0.91704 0.10100
H 	H 	0.59339 0.00562 0.98116 0.09700
C 	C 	0.92756 0.03181 0.44199 -0.08600
C 	C 	0.97485 0.02235 0.48965 -0.00400
C 	C 	0.94529 0.03077 0.49178 -0.00300
C 	C 	0.99148 0.01710 0.54044 0.09700
C 	C 	0.93350 0.03833 0.54474 0.09900
N 	N 	0.92407 0.04437 0.58704 -0.09800
N 	N 	0.00470 0.01294 0.58110 -0.09400
C 	C 	0.70325 0.02214 0.52913 -0.14400
C 	C 	0.70664 0.99367 0.52533 0.01800
C 	C 	0.73408 0.98264 0.53905 0.28200
C 	C 	0.75852 0.99978 0.54762 -0.05700
C 	C 	0.75566 0.02793 0.54213 -0.12800
C 	C 	0.72766 0.03923 0.53835 0.38000
C 	C 	0.68349 0.97611 0.49626 0.00600
F 	F 	0.73735 0.95522 0.54042 -0.41000
H 	H 	0.77995 0.99089 0.55314 0.10300
F 	F 	0.72439 0.06665 0.53715 -0.41200
H 	H 	0.68203 0.03098 0.52072 0.13800
C 	C 	0.65503 0.97679 0.51433 0.30000
C 	C 	0.63221 0.96410 0.48117 -0.08600
C 	C 	0.63762 0.95054 0.42977 -0.08200
C 	C 	0.66637 0.94838 0.41346 0.34600
C 	C 	0.68909 0.96129 0.44630 -0.12300
F 	F 	0.64931 0.99063 0.56290 -0.43700
H 	H 	0.61020 0.96563 0.49454 0.09800
F 	F 	0.67225 0.93403 0.36547 -0.43000
H 	H 	0.71095 0.96057 0.43198 0.13000
C 	C 	0.93586 0.01283 0.71955 -0.00900
C 	C 	0.92364 0.98549 0.71609 0.06000
C 	C 	0.98519 0.99333 0.71073 0.05100
N 	N 	0.00027 0.97466 0.70486 -0.11100
N 	N 	0.91393 0.96364 0.71334 -0.11300
C 	C 	0.68118 0.02139 0.67562 -0.11800
C 	C 	0.67856 0.99359 0.68462 0.03200
C 	C 	0.70293 0.97662 0.67941 0.30000
C 	C 	0.73037 0.98813 0.67451 -0.05100
C 	C 	0.73363 0.01658 0.67533 -0.13400
C 	C 	0.70872 0.03295 0.67181 0.37700
C 	C 	0.65291 0.98389 0.71157 0.01100
F 	F 	0.70051 0.94939 0.68472 -0.40700
H 	H 	0.74943 0.97519 0.67530 0.10600
H 	H 	0.66223 0.03444 0.67672 0.13900
C 	C 	0.64728 0.99459 0.76518 0.29900
C 	C 	0.62515 0.98344 0.79351 -0.08500
C 	C 	0.60867 0.96115 0.76917 -0.08300
C 	C 	0.61385 0.95076 0.71501 0.34600
C 	C 	0.63578 0.96225 0.68626 -0.11500
F 	F 	0.66399 0.01520 0.79060 -0.42000
H 	H 	0.62103 0.99194 0.83478 0.09600
F 	F 	0.59838 0.92901 0.69100 -0.42900
H 	H 	0.64000 0.95383 0.64499 0.14800
N 	N 	0.88034 0.01080 0.03371 -0.11200
N 	N 	0.03130 0.00844 0.02918 -0.11700
C 	C 	0.88368 0.93333 0.90032 -0.07700
C 	C 	0.86183 0.94775 0.92853 0.00600
C 	C 	0.84083 0.96232 0.89809 -0.01300
C 	C 	0.84223 0.96261 0.84015 -0.07400
C 	C 	0.85868 0.94232 0.81211 -0.00000
C 	C 	0.87957 0.92759 0.84250 -0.00700
C 	C 	0.86013 0.94658 0.98780 0.08900
C 	C 	0.85298 0.93548 0.75329 0.11000
C 	C 	0.89615 0.90615 0.81488 0.09300
C 	C 	0.81728 0.97603 0.92572 0.08700
N 	N 	0.90938 0.88904 0.79281 -0.09400
N 	N 	0.79848 0.98697 0.94780 -0.10000
N 	N 	0.84845 0.92995 0.70632 -0.08600
N 	N 	0.85870 0.94563 0.03512 -0.06900
C 	C 	0.04154 0.94782 0.91536 -0.09300
C 	C 	0.03796 0.93796 0.85926 -0.01900
C 	C 	0.05172 0.95170 0.81899 -0.01200
C 	C 	0.06772 0.97574 0.83534 -0.08800
C 	C 	0.07699 0.98101 0.89174 -0.02300
C 	C 	0.06450 0.96611 0.93187 -0.00500
C 	C 	0.02067 0.91362 0.84346 0.07000
C 	C 	0.09975 0.00096 0.90797 0.06700
C 	C 	0.07676 0.96774 0.98847 0.08000
N 	N 	0.08662 0.96898 0.03366 -0.07700
N 	N 	0.11790 0.01690 0.92093 -0.10100
N 	N 	0.00685 0.89419 0.83088 -0.09700
C 	C 	0.00177 0.83250 0.05411 -0.05400
C 	C 	0.97607 0.84724 0.04467 -0.14500
H 	H 	0.02196 0.84327 0.06655 0.10100
C 	C 	0.95227 0.99274 0.16936 -0.06300
C 	C 	0.97777 0.00805 0.16378 0.00300
C 	C 	0.92420 0.03494 0.17320 0.00300
C 	C 	0.92519 0.00610 0.16767 -0.00700
C 	C 	0.00519 0.99417 0.15656 0.07200
C 	C 	0.89851 0.99026 0.16160 0.07700
N 	N 	0.87716 0.97763 0.15652 -0.10300
N 	N 	0.02711 0.98313 0.15086 -0.11300
C 	C 	0.84411 0.97577 0.36322 -0.10700
C 	C 	0.86739 0.95985 0.38339 0.00900
C 	C 	0.87879 0.93903 0.34857 -0.02500
C 	C 	0.87083 0.93737 0.29133 -0.07800
C 	C 	0.84573 0.95120 0.27220 0.00000
C 	C 	0.83262 0.97077 0.30805 -0.00300
C 	C 	0.88108 0.96623 0.43833 0.06500
C 	C 	0.83225 0.94405 0.21746 0.11100
C 	C 	0.80740 0.98576 0.28824 0.06200
C 	C 	0.89760 0.91857 0.37188 0.05200
N 	N 	0.78729 0.99773 0.27245 -0.10100
N 	N 	0.91263 0.90225 0.39047 -0.10500
N 	N 	0.82141 0.93834 0.17380 -0.08100
N 	N 	0.89206 0.97133 0.48211 -0.10000
C 	C 	0.07048 0.93559 0.34963 -0.07400
C 	C 	0.07044 0.93468 0.29130 -0.01400
C 	C 	0.04759 0.92106 0.25913 -0.00400
C 	C 	0.02589 0.90769 0.28591 -0.07300
C 	C 	0.03150 0.90180 0.34163 -0.00400
C 	C 	0.05409 0.91580 0.37382 0.00300
C 	C 	0.09420 0.94681 0.26486 0.08000
C 	C 	0.01432 0.88131 0.36525 0.09700
C 	C 	0.06163 0.90864 0.42981 0.10800
C 	C 	0.04660 0.92056 0.19921 0.09900
N 	N 	0.06764 0.90288 0.47452 -0.08700
N 	N 	0.04585 0.92011 0.15134 -0.08900
N 	N 	0.00059 0.86496 0.38410 -0.09100
N 	N 	0.11316 0.95650 0.24371 -0.09900
H 	H 	0.97476 0.82179 0.16325 0.09800
