data_crystal

_cell_length_a 33.18342
_cell_length_b 26.15924
_cell_length_c 30.90967
_cell_angle_alpha 103.63008
_cell_angle_beta  115.75264
_cell_angle_gamma 112.42092

_symmetry_space_group_name_	'P 1'
_symmetry_space_group_name_H-M	'P 1'

loop_
_symmetry_equiv_pos_as_xyz
  x,y,z

loop_
_atom_site_label
_atom_site_type_symbol
_atom_site_fract_x
_atom_site_fract_y
_atom_site_fract_z
_atom_site_charge
C 	C 	0.59022 0.05741 0.81023 -0.01800
C 	C 	0.60546 0.06574 0.86277 -0.01600
C 	C 	0.59954 0.10632 0.89417 -0.07300
C 	C 	0.57859 0.13924 0.87373 0.08200
C 	C 	0.55873 0.12655 0.81924 -0.07400
C 	C 	0.56460 0.08584 0.78771 -0.01800
N 	N 	0.58336 0.19037 0.91069 -0.14500
C 	C 	0.66664 0.36254 0.91358 -0.00600
C 	C 	0.61029 0.32419 0.87836 -0.02500
C 	C 	0.58238 0.26890 0.87896 -0.07300
C 	C 	0.61074 0.25064 0.91386 0.07900
C 	C 	0.66681 0.29006 0.95022 -0.07200
C 	C 	0.69464 0.34595 0.95045 -0.02600
C 	C 	0.45224 0.14243 0.92230 -0.00500
C 	C 	0.50506 0.17945 0.96971 -0.02700
C 	C 	0.54796 0.19605 0.96545 -0.07200
C 	C 	0.53851 0.17550 0.91384 0.08000
C 	C 	0.48541 0.13866 0.86619 -0.07200
C 	C 	0.44252 0.12233 0.87053 -0.02400
C 	C 	0.76577 0.47912 0.90087 -0.04500
C 	C 	0.73699 0.42579 0.90316 -0.04000
C 	C 	0.69647 0.41854 0.91027 0.00900
C 	C 	0.68470 0.46493 0.91449 -0.03900
C 	C 	0.67959 0.99936 0.77566 -0.04600
C 	C 	0.67701 0.04831 0.76624 0.00900
C 	C 	0.64235 0.06324 0.77076 -0.06800
C 	C 	0.60919 0.02818 0.78337 0.05300
C 	C 	0.60429 0.97181 0.78156 -0.08900
C 	C 	0.63967 0.95759 0.77800 -0.00500
C 	C 	0.31908 0.09390 0.93188 0.02600
C 	C 	0.34399 0.06081 0.94049 -0.04300
C 	C 	0.38800 0.07714 0.93802 -0.03700
C 	C 	0.40721 0.12659 0.92687 0.01000
C 	C 	0.38313 0.16064 0.91968 -0.03900
C 	C 	0.33937 0.14454 0.92239 -0.04000
H 	H 	0.62481 0.04371 0.88055 0.03800
H 	H 	0.61401 0.11495 0.93567 0.05300
H 	H 	0.54072 0.14993 0.80209 0.05000
H 	H 	0.55186 0.07906 0.74694 0.03700
H 	H 	0.58822 0.33650 0.84974 0.03600
H 	H 	0.53904 0.23926 0.85102 0.04800
H 	H 	0.68884 0.27667 0.97764 0.04900
H 	H 	0.73803 0.37584 0.97862 0.03300
H 	H 	0.51287 0.19553 0.00983 0.03700
H 	H 	0.58868 0.22437 0.00227 0.05200
H 	H 	0.47736 0.12329 0.82605 0.05000
H 	H 	0.40178 0.09421 0.83371 0.03900
H 	H 	0.74618 0.39011 0.89944 0.03800
H 	H 	0.65395 0.46023 0.92057 0.03800
H 	H 	0.70565 0.07870 0.76112 0.02900
H 	H 	0.64482 0.10529 0.76945 0.04800
H 	H 	0.57655 0.94222 0.78799 0.04900
H 	H 	0.63942 0.91764 0.78246 0.04600
H 	H 	0.32843 0.02153 0.94767 0.04800
H 	H 	0.40662 0.05085 0.94394 0.04300
H 	H 	0.39800 0.19916 0.91144 0.03800
H 	H 	0.32036 0.17036 0.91579 0.04100
C 	C 	0.77955 0.26438 0.50765 -0.00500
C 	C 	0.78604 0.26739 0.55642 -0.02400
C 	C 	0.77209 0.30208 0.58180 -0.06900
C 	C 	0.75068 0.33311 0.55830 0.07900
C 	C 	0.74080 0.32642 0.50741 -0.07100
C 	C 	0.75586 0.29301 0.48275 -0.02400
N 	N 	0.74210 0.37443 0.58814 -0.14300
C 	C 	0.81069 0.54181 0.57971 -0.00800
C 	C 	0.75467 0.49957 0.54603 -0.02600
C 	C 	0.73103 0.44705 0.55185 -0.07300
C 	C 	0.76350 0.43557 0.59076 0.07700
C 	C 	0.81891 0.48102 0.62765 -0.07000
C 	C 	0.84244 0.53390 0.62219 -0.02700
C 	C 	0.58846 0.29099 0.55874 -0.00400
C 	C 	0.63490 0.33855 0.61121 -0.02600
C 	C 	0.68516 0.36550 0.62049 -0.07000
C 	C 	0.68958 0.34556 0.57743 0.07700
C 	C 	0.64281 0.29766 0.52469 -0.07200
C 	C 	0.59273 0.27025 0.51570 -0.02500
C 	C 	0.89433 0.63255 0.53935 -0.04100
C 	C 	0.87261 0.58967 0.55497 -0.04000
C 	C 	0.83629 0.58992 0.56679 0.00700
C 	C 	0.82220 0.63376 0.56315 -0.04400
C 	C 	0.84439 0.18486 0.44163 0.02500
C 	C 	0.87657 0.23012 0.49710 -0.04600
C 	C 	0.85528 0.25558 0.51865 -0.03900
C 	C 	0.80139 0.23569 0.48509 0.01000
C 	C 	0.76927 0.19084 0.42941 -0.03900
C 	C 	0.79097 0.16634 0.40759 -0.03900
C 	C 	0.43524 0.22298 0.53065 0.02400
C 	C 	0.47308 0.21730 0.56971 -0.04000
C 	C 	0.52283 0.23844 0.57826 -0.03800
C 	C 	0.53510 0.26579 0.54804 0.00900
C 	C 	0.49674 0.27038 0.50833 -0.03900
C 	C 	0.44689 0.24857 0.49937 -0.04600
H 	H 	0.80320 0.24425 0.57537 0.03500
H 	H 	0.77902 0.30608 0.62042 0.05000
H 	H 	0.72206 0.34762 0.48736 0.04800
H 	H 	0.75032 0.29068 0.44495 0.03500
H 	H 	0.72968 0.50569 0.51356 0.03200
H 	H 	0.68809 0.41310 0.52357 0.04700
H 	H 	0.84406 0.47336 0.65851 0.04900
H 	H 	0.88560 0.56723 0.64941 0.03300
H 	H 	0.63194 0.35522 0.64458 0.03500
H 	H 	0.72078 0.40228 0.66112 0.04700
H 	H 	0.64495 0.28258 0.49053 0.04900
H 	H 	0.55709 0.23355 0.47502 0.03600
H 	H 	0.88330 0.55557 0.55703 0.03900
H 	H 	0.79433 0.63448 0.57229 0.02700
H 	H 	0.91788 0.24475 0.52372 0.04300
H 	H 	0.88072 0.29095 0.56140 0.03800
H 	H 	0.72766 0.17530 0.40305 0.04000
H 	H 	0.76629 0.13298 0.36439 0.04300
H 	H 	0.46420 0.19725 0.59381 0.04400
H 	H 	0.55195 0.23407 0.60861 0.04000
H 	H 	0.50589 0.29168 0.48499 0.03700
H 	H 	0.41779 0.25308 0.46914 0.03900
C 	C 	0.34403 0.58600 0.98351 -0.00900
C 	C 	0.35910 0.60352 0.95074 -0.02400
C 	C 	0.22248 0.39823 0.92881 0.02400
C 	C 	0.21117 0.42865 0.89783 -0.04600
C 	C 	0.25133 0.48923 0.91472 -0.04000
C 	C 	0.30327 0.51960 0.96246 0.01000
C 	C 	0.31508 0.48800 0.99215 -0.04200
C 	C 	0.27480 0.42760 0.97544 -0.03900
H 	H 	0.34331 0.56790 0.91114 0.03200
H 	H 	0.17090 0.40614 0.86165 0.03800
H 	H 	0.24175 0.51323 0.89156 0.03700
H 	H 	0.35515 0.51075 0.02875 0.04000
H 	H 	0.28394 0.40415 0.99932 0.04500
C 	C 	0.43315 0.68486 0.53708 -0.00600
C 	C 	0.41599 0.71015 0.50293 -0.02500
C 	C 	0.32229 0.49576 0.49285 0.02500
C 	C 	0.34658 0.54625 0.54361 -0.04000
C 	C 	0.38311 0.60781 0.55826 -0.03900
C 	C 	0.39593 0.61940 0.52237 0.00900
C 	C 	0.37189 0.56870 0.47172 -0.03900
C 	C 	0.33501 0.50719 0.45692 -0.04500
H 	H 	0.37603 0.68136 0.46491 0.03300
H 	H 	0.33695 0.53782 0.57157 0.04500
H 	H 	0.40104 0.64654 0.59722 0.03900
H 	H 	0.38166 0.57698 0.44381 0.03700
H 	H 	0.31653 0.46844 0.41771 0.03900
Zn	Zn	0.06863 0.08018 0.94459 1.18800
Zn	Zn	0.98040 0.02127 0.82348 1.20300
O 	O 	0.95707 0.98841 0.74522 -0.46100
C 	C 	0.12784 0.04810 0.91379 0.32100
C 	C 	0.07280 0.15956 0.89062 0.33600
O 	O 	0.13190 0.08089 0.95654 -0.44600
O 	O 	0.08178 0.01577 0.86521 -0.34800
O 	O 	0.99601 0.03603 0.89818 -0.77400
O 	O 	0.03240 0.10889 0.84222 -0.44400
O 	O 	0.08614 0.15771 0.93685 -0.46400
O 	O 	0.87833 0.96063 0.85383 -0.46300
Zn	Zn	0.93849 0.99427 0.97096 1.19400
C 	C 	0.86971 0.99741 0.88072 0.28300
O 	O 	0.97305 0.00858 0.04574 -0.44100
O 	O 	0.89622 0.02198 0.93414 -0.45200
O 	O 	0.97562 0.96726 0.95265 -0.90200
H 	H 	0.01495 0.99384 0.98094 0.14800
Zn	Zn	0.16538 0.18476 0.51494 1.18700
Zn	Zn	0.07950 0.11949 0.38984 1.19700
O 	O 	0.05114 0.08586 0.30924 -0.43100
C 	C 	0.23368 0.16593 0.49248 0.32200
C 	C 	0.17299 0.25704 0.45579 0.34000
O 	O 	0.23131 0.18945 0.53314 -0.46800
O 	O 	0.19116 0.13731 0.44184 -0.33800
O 	O 	0.09329 0.13601 0.46467 -0.77700
O 	O 	0.13212 0.20640 0.40754 -0.44300
O 	O 	0.18100 0.25882 0.50190 -0.46100
O 	O 	0.97763 0.05839 0.42383 -0.44600
Zn	Zn	0.03779 0.09031 0.53941 1.20300
C 	C 	0.97462 0.10122 0.45245 0.34400
O 	O 	0.06540 0.09480 0.61130 -0.47000
O 	O 	0.00111 0.12447 0.50571 -0.49300
O 	O 	0.07683 0.06635 0.52128 -0.88500
H 	H 	0.11614 0.09515 0.54933 0.14600
H 	H 	0.15031 0.14391 0.74834 0.03500
C 	C 	0.97836 0.98500 0.18281 0.02100
C 	C 	0.96201 0.96586 0.12854 -0.01300
H 	H 	0.91973 0.94067 0.09559 0.04800
H 	H 	0.08392 0.08962 0.11764 0.02400
H 	H 	0.95160 0.99540 0.23641 0.02900
H 	H 	0.90480 0.97263 0.16766 0.04200
C 	C 	0.21006 0.31332 0.45825 -0.12600
C 	C 	0.19131 0.34520 0.43267 0.16800
C 	C 	0.22832 0.40472 0.44372 -0.10500
C 	C 	0.28365 0.43083 0.47748 -0.01100
C 	C 	0.30206 0.39640 0.49919 0.09500
C 	C 	0.26532 0.33869 0.49073 -0.02700
H 	H 	0.21397 0.43098 0.42680 0.06300
H 	H 	0.27993 0.31407 0.51009 0.04600
O 	O 	0.13712 0.32164 0.40188 -0.20700
O 	O 	0.35647 0.42201 0.53312 -0.19600
C 	C 	0.11558 0.28958 0.34593 -0.02100
H 	H 	0.13177 0.32299 0.33236 0.03400
H 	H 	0.07148 0.26699 0.32149 0.04000
H 	H 	0.12271 0.25136 0.33669 0.04800
C 	C 	0.37186 0.39878 0.50129 -0.02200
H 	H 	0.41592 0.42144 0.52802 0.03700
H 	H 	0.36289 0.41082 0.46741 0.03500
H 	H 	0.35265 0.34689 0.48485 0.03400
H 	H 	0.88541 0.13861 0.53372 0.04500
H 	H 	0.87194 0.16381 0.58203 0.04200
C 	C 	0.34428 0.14360 0.62423 -0.02500
H 	H 	0.36496 0.14760 0.60366 0.04400
H 	H 	0.37593 0.17113 0.66907 0.04200
H 	H 	0.32072 0.16530 0.61451 0.04100
C 	C 	0.17892 0.33741 0.91443 -0.01100
C 	C 	0.15741 0.33503 0.94494 0.09400
C 	C 	0.12059 0.27648 0.93515 -0.02600
C 	C 	0.10302 0.22021 0.89333 -0.12600
C 	C 	0.12045 0.22303 0.85914 0.16500
C 	C 	0.15988 0.28151 0.87123 -0.10500
H 	H 	0.10662 0.27485 0.96095 0.04600
H 	H 	0.17584 0.28324 0.84718 0.06000
O 	O 	0.17645 0.38983 0.98811 -0.19500
O 	O 	0.10259 0.16828 0.81687 -0.20200
C 	C 	0.14220 0.41082 0.96894 -0.02400
H 	H 	0.14099 0.42112 0.93558 0.03600
H 	H 	0.15812 0.45551 0.00331 0.04000
H 	H 	0.10094 0.37621 0.95510 0.03300
C 	C 	0.06096 0.15780 0.76759 -0.02200
H 	H 	0.02671 0.15289 0.76892 0.04800
H 	H 	0.04546 0.11299 0.73394 0.05400
H 	H 	0.07592 0.19566 0.75729 0.03400
C 	C 	0.70491 0.98247 0.91483 -0.05200
H 	H 	0.67668 0.99612 0.89582 0.03900
H 	H 	0.73895 0.00644 0.91217 0.06300
H 	H 	0.08160 0.95551 0.00397 0.00400
C 	C 	0.93235 0.11167 0.42422 -0.13400
C 	C 	0.94658 0.17125 0.42784 0.16800
C 	C 	0.91293 0.19220 0.42530 -0.10500
C 	C 	0.86606 0.15442 0.42050 -0.01200
C 	C 	0.84784 0.09106 0.40771 0.09900
C 	C 	0.88052 0.06951 0.40763 -0.02800
H 	H 	0.92600 0.24012 0.43277 0.06500
H 	H 	0.86728 0.02151 0.39926 0.06200
O 	O 	0.99690 0.21266 0.44217 -0.21700
O 	O 	0.80317 0.05398 0.40519 -0.20000
C 	C 	0.99389 0.20317 0.39376 -0.01400
H 	H 	0.98264 0.15462 0.37065 0.01500
H 	H 	0.03421 0.23664 0.40518 0.03500
H 	H 	0.96557 0.21311 0.36721 0.03500
C 	C 	0.76015 0.00979 0.34985 0.03600
C 	C 	0.28537 0.17827 0.50346 -0.12000
C 	C 	0.28696 0.13720 0.46618 0.16200
C 	C 	0.33661 0.14948 0.47818 -0.10400
C 	C 	0.38443 0.20511 0.52417 -0.01400
C 	C 	0.38295 0.24669 0.56085 0.09400
C 	C 	0.33362 0.23210 0.55122 -0.03300
H 	H 	0.33782 0.11672 0.45058 0.06400
H 	H 	0.33291 0.26358 0.58038 0.05100
O 	O 	0.24010 0.08232 0.42030 -0.19100
O 	O 	0.43014 0.29918 0.60855 -0.19400
C 	C 	0.44126 0.35227 0.60026 -0.02500
H 	H 	0.44466 0.34618 0.56537 0.03700
H 	H 	0.48052 0.39368 0.63759 0.04400
H 	H 	0.41055 0.36327 0.59414 0.04200
C 	C 	0.73026 0.00224 0.79725 0.04900
C 	C 	0.73046 0.94973 0.77272 0.06300
C 	C 	0.77661 0.94887 0.79972 -0.04900
C 	C 	0.82342 0.00134 0.84978 -0.09000
C 	C 	0.82470 0.05622 0.87131 0.16400
C 	C 	0.77776 0.05568 0.84598 -0.12200
H 	H 	0.77796 0.09635 0.86504 0.07000
O 	O 	0.68424 0.89719 0.72430 -0.19300
O 	O 	0.87086 0.10898 0.91963 -0.20300
C 	C 	0.68641 0.90126 0.68060 -0.02200
H 	H 	0.69394 0.94692 0.68153 0.03300
C 	C 	0.90065 0.14898 0.90661 -0.01700
H 	H 	0.91301 0.12558 0.88465 0.02600
H 	H 	0.93788 0.19117 0.94539 0.03400
H 	H 	0.87805 0.16582 0.88228 0.03200
C 	C 	0.17557 0.05165 0.91901 -0.11200
C 	C 	0.22360 0.07806 0.97086 0.16500
C 	C 	0.27013 0.08900 0.97464 -0.10100
C 	C 	0.26869 0.07182 0.92724 -0.00800
C 	C 	0.21969 0.03940 0.87543 0.10300
C 	C 	0.17362 0.03002 0.87156 -0.02800
H 	H 	0.30769 0.11280 0.01459 0.06600
H 	H 	0.13661 0.00695 0.83155 0.05800
O 	O 	0.22660 0.09864 0.01829 -0.19800
O 	O 	0.21825 0.02388 0.82862 -0.18800
C 	C 	0.21401 0.04895 0.03101 -0.02100
H 	H 	0.24214 0.03348 0.03730 0.04200
H 	H 	0.17175 0.00846 0.99899 0.04800
H 	H 	0.21797 0.06607 0.06996 0.03800
C 	C 	0.71282 0.51765 0.91109 -0.04200
H 	H 	0.79756 0.48481 0.89633 0.03900
C 	C 	0.84348 0.67614 0.54689 -0.05100
H 	H 	0.83167 0.70902 0.54328 0.03100
C 	C 	0.36535 0.63251 0.03504 -0.02200
H 	H 	0.35405 0.61947 0.06070 0.03500
H 	H 	0.49908 0.70352 0.61252 0.03600
Zn	Zn	0.95421 0.95017 0.88011 1.21500
C 	C 	0.97337 0.95621 0.72651 0.30600
Zn	Zn	0.05472 0.04995 0.44827 1.21800
C 	C 	0.06406 0.04647 0.61806 0.32100
C 	C 	0.99428 0.97406 0.69548 -0.07500
C 	C 	0.04233 0.02556 0.64752 -0.12000
H 	H 	0.15763 0.11775 0.79874 0.04500
H 	H 	0.13843 0.12745 0.18886 0.03000
C 	C 	0.22700 0.09125 0.37391 -0.02400
H 	H 	0.22562 0.13408 0.37940 0.04600
H 	H 	0.25550 0.09350 0.36338 0.03700
C 	C 	0.73384 0.49099 0.77621 -0.02200
H 	H 	0.69701 0.44559 0.74030 0.03900
H 	H 	0.75985 0.47950 0.80371 0.03400
H 	H 	0.75398 0.51759 0.76074 0.03200
C 	C 	0.85997 0.12172 0.54810 -0.02400
H 	H 	0.81687 0.09903 0.51484 0.05300
H 	H 	0.72310 0.98503 0.34754 0.01300
C 	C 	0.75331 0.52478 0.90410 0.02500
C 	C 	0.87968 0.67574 0.53503 0.02300
H 	H 	0.92212 0.63180 0.53006 0.04600
C 	C 	0.48521 0.72270 0.58609 -0.02400
C 	C 	0.98185 0.96860 0.06072 0.30200
C 	C 	0.05255 0.03961 0.28307 0.30200
H 	H 	0.24618 0.19766 0.82499 0.06000
C 	C 	0.03382 0.01998 0.22582 -0.06200
C 	C 	0.99970 0.97988 0.11646 -0.10800
H 	H 	0.74401 0.90835 0.86409 0.05200
H 	H 	0.21661 0.06357 0.55680 0.03700
C 	C 	0.16408 0.11664 0.76620 -0.00900
H 	H 	0.17251 0.14724 0.13350 0.04500
C 	C 	0.11765 0.08867 0.14732 -0.02700
O 	O 	0.31164 0.08049 0.61065 -0.19300
H 	H 	0.70327 0.55302 0.91403 0.04300
C 	C 	0.07201 0.01927 0.69288 0.10000
C 	C 	0.04746 0.99322 0.71619 -0.07400
C 	C 	0.22407 0.14861 0.79225 -0.16600
H 	H 	0.23927 0.12278 0.81081 0.07400
H 	H 	0.23198 0.15034 0.76103 0.05800
C 	C 	0.15703 0.10048 0.13190 -0.15600
O 	O 	0.67745 0.91625 0.88578 -0.19100
H 	H 	0.82855 0.66851 0.43596 0.06200
C 	C 	0.39319 0.66723 0.96824 -0.07500
H 	H 	0.40254 0.68016 0.94147 0.04800
C 	C 	0.45008 0.77294 0.51811 -0.07300
O 	O 	0.71873 0.52416 0.80193 -0.19300
H 	H 	0.85217 0.65032 0.35981 0.03200
H 	H 	0.07041 0.98984 0.75179 0.04900
C 	C 	0.13168 0.04797 0.72156 -0.13200
H 	H 	0.19152 0.10019 0.16100 0.05800
H 	H 	0.13667 0.06370 0.08963 0.04200
C 	C 	0.78289 0.58033 0.90051 -0.01200
O 	O 	0.03308 0.03379 0.37526 -0.87000
H 	H 	0.14246 0.04554 0.69215 0.06900
H 	H 	0.14304 0.02019 0.74066 0.07100
C 	C 	0.05477 0.01181 0.15907 0.07400
C 	C 	0.07143 0.03252 0.21357 -0.03800
H 	H 	0.92932 0.06863 0.53912 0.03500
H 	H 	0.43659 0.79128 0.49084 0.04700
C 	C 	0.41260 0.71415 0.01891 0.08100
C 	C 	0.39965 0.69615 0.05271 -0.07100
C 	C 	0.50174 0.81151 0.56811 0.07900
C 	C 	0.51920 0.78571 0.60153 -0.07200
C 	C 	0.90181 0.72009 0.51749 -0.01300
C 	C 	0.86969 0.70909 0.46401 -0.10800
C 	C 	0.76470 0.57831 0.84930 0.09400
H 	H 	0.11378 0.05832 0.24654 0.04400
C 	C 	0.09627 0.02515 0.14706 -0.09300
H 	H 	0.55875 0.81497 0.64008 0.05800
N 	N 	0.44108 0.78030 0.03418 -0.14400
C 	C 	0.53003 0.80951 0.05636 -0.07200
H 	H 	0.34810 0.73353 0.93661 0.04700
H 	H 	0.41459 0.73183 0.09182 0.04900
H 	H 	0.60569 0.83225 0.07078 0.03200
H 	H 	0.53882 0.80186 0.09143 0.04800
C 	C 	0.56103 0.85457 0.52336 -0.06800
H 	H 	0.52440 0.80805 0.49626 0.04600
H 	H 	0.59064 0.83897 0.47531 0.03500
C 	C 	0.95536 0.77250 0.55371 0.09200
C 	C 	0.89096 0.74902 0.44581 0.16500
O 	O 	0.98898 0.78006 0.60449 -0.19700
O 	O 	0.85929 0.73564 0.39215 -0.20900
C 	C 	0.98975 0.82157 0.64382 -0.01600
H 	H 	0.01695 0.82784 0.68459 0.03400
H 	H 	0.94930 0.80212 0.63531 0.02800
C 	C 	0.86615 0.69644 0.35993 -0.01500
H 	H 	0.90860 0.72009 0.37358 0.03200
H 	H 	0.84125 0.68640 0.31699 0.03100
C 	C 	0.82804 0.63625 0.94858 -0.10600
C 	C 	0.78971 0.63341 0.84688 -0.02800
H 	H 	0.84199 0.63786 0.98805 0.06100
H 	H 	0.77391 0.63215 0.80745 0.04800
N 	N 	0.53568 0.87820 0.58721 -0.14100
H 	H 	0.17394 0.83826 0.81882 0.03400
C 	C 	0.40727 0.80450 0.02233 0.07900
C 	C 	0.35851 0.77292 0.97015 -0.07300
C 	C 	0.32268 0.79146 0.96157 -0.02700
C 	C 	0.56798 0.82702 0.04479 -0.02300
C 	C 	0.48040 0.80083 0.02235 0.07900
H 	H 	0.28490 0.76615 0.92153 0.03400
H 	H 	0.23769 0.76304 0.98159 0.03700
C 	C 	0.50937 0.91149 0.58578 0.07700
C 	C 	0.48345 0.91824 0.53950 -0.07100
C 	C 	0.57140 0.89695 0.57068 0.07000
C 	C 	0.59839 0.87241 0.51097 -0.03400
H 	H 	0.48492 0.90090 0.50513 0.04500
C 	C 	0.80902 0.82379 0.41364 -0.02400
H 	H 	0.85198 0.84360 0.44497 0.04700
H 	H 	0.79404 0.78112 0.37796 0.05000
H 	H 	0.78478 0.80831 0.42953 0.03200
C 	C 	0.12914 0.87021 0.36959 -0.01600
H 	H 	0.15551 0.85199 0.37769 0.03000
H 	H 	0.09697 0.84300 0.32489 0.02800
H 	H 	0.74928 0.85377 0.00912 0.06300
C 	C 	0.79330 0.78401 0.96419 -0.02300
H 	H 	0.75804 0.75944 0.96496 0.03500
H 	H 	0.82237 0.77295 0.98693 0.05300
C 	C 	0.15015 0.83381 0.83579 -0.02100
H 	H 	0.15062 0.79962 0.85140 0.03700
H 	H 	0.10850 0.81522 0.80160 0.03300
C 	C 	0.97603 0.81408 0.53637 -0.02800
C 	C 	0.94363 0.80394 0.48305 -0.12800
H 	H 	0.00587 0.86893 0.64650 0.03500
C 	C 	0.83441 0.69002 0.89505 -0.12500
C 	C 	0.85501 0.69059 0.94610 0.16200
O 	O 	0.89781 0.74611 0.99422 -0.20100
H 	H 	0.94373 0.70989 0.02395 0.03200
O 	O 	0.13356 0.04779 0.47453 -0.46300
O 	O 	0.86833 0.08096 0.56822 -0.19400
C 	C 	0.45378 0.94513 0.53671 -0.03200
H 	H 	0.43220 0.94772 0.49998 0.03100
H 	H 	0.92186 0.83225 0.20826 0.03100
C 	C 	0.33465 0.84106 0.00500 -0.00300
C 	C 	0.38418 0.87439 0.05633 -0.02700
C 	C 	0.42037 0.85623 0.06485 -0.07100
C 	C 	0.55688 0.83650 0.99918 -0.00900
C 	C 	0.46956 0.81111 0.97683 -0.07600
C 	C 	0.50776 0.82912 0.96562 -0.02500
C 	C 	0.20280 0.81726 0.96994 -0.04800
C 	C 	0.24431 0.80768 0.98358 -0.03900
C 	C 	0.64817 0.90466 0.02272 -0.04000
C 	C 	0.59552 0.85094 0.98496 0.00700
C 	C 	0.58038 0.80957 0.93442 -0.04000
H 	H 	0.45777 0.88083 0.10507 0.04600
H 	H 	0.16414 0.77963 0.95676 0.04000
H 	H 	0.66010 0.93724 0.06160 0.03400
H 	H 	0.53988 0.76794 0.90503 0.03800
C 	C 	0.45004 0.96602 0.58023 0.00400
C 	C 	0.47799 0.96193 0.62740 -0.03200
C 	C 	0.50738 0.93469 0.63003 -0.07000
C 	C 	0.64610 0.93271 0.54509 0.00700
C 	C 	0.65541 0.97586 0.59075 -0.06300
C 	C 	0.61822 0.95813 0.60337 -0.05700
C 	C 	0.37109 0.95395 0.57893 -0.01700
C 	C 	0.68770 0.94924 0.53483 -0.00300
C 	C 	0.73624 0.95688 0.57101 -0.03800
H 	H 	0.52704 0.92947 0.66563 0.05100
H 	H 	0.29817 0.93961 0.56742 0.04800
H 	H 	0.36883 0.91793 0.59113 0.03100
H 	H 	0.74424 0.95322 0.60769 0.02900
C 	C 	0.85639 0.74915 0.89213 0.33600
O 	O 	0.90760 0.79499 0.92929 -0.44600
O 	O 	0.82511 0.75323 0.85021 -0.46500
C 	C 	0.96428 0.85244 0.46774 0.33100
O 	O 	0.93039 0.85334 0.42509 -0.44900
H 	H 	0.84440 0.80007 0.52044 0.05500
H 	H 	0.74295 0.87915 0.42627 0.06100
O 	O 	0.80292 0.86696 0.39584 -0.20600
H 	H 	0.25322 0.95306 0.43882 0.06300
O 	O 	0.15795 0.93465 0.38438 -0.21000
H 	H 	0.10934 0.86131 0.39075 0.03400
C 	C 	0.74831 0.86599 0.97768 -0.10900
O 	O 	0.81855 0.85005 0.99040 -0.20400
H 	H 	0.78133 0.76538 0.92134 0.04500
H 	H 	0.01703 0.85489 0.56488 0.05100
C 	C 	0.94485 0.74640 0.01102 -0.01400
H 	H 	0.95189 0.73993 0.97859 0.04500
H 	H 	0.43147 0.80400 0.94954 0.04700
H 	H 	0.62654 0.99126 0.63960 0.04100
C 	C 	0.94487 0.88248 0.21881 -0.12600
C 	C 	0.29360 0.85461 0.99770 0.00400
C 	C 	0.67094 0.87344 0.96083 0.02200
C 	C 	0.68579 0.91574 0.01075 -0.04600
C 	C 	0.61792 0.82087 0.92238 -0.04100
H 	H 	0.39389 0.91302 0.09003 0.03100
H 	H 	0.49889 0.83650 0.93039 0.03200
H 	H 	0.72664 0.95658 0.04058 0.03600
H 	H 	0.60619 0.78793 0.88377 0.04500
C 	C 	0.33100 0.96616 0.56542 -0.08200
C 	C 	0.41244 0.98578 0.57393 -0.03100
C 	C 	0.76330 0.97027 0.51086 0.02900
C 	C 	0.71552 0.96468 0.47555 -0.05300
C 	C 	0.67781 0.95410 0.48743 -0.03600
C 	C 	0.77382 0.96724 0.55904 -0.05000
H 	H 	0.47534 0.97776 0.66118 0.03100
H 	H 	0.69203 0.02264 0.61719 0.05900
H 	H 	0.64061 0.94869 0.45943 0.03400
H 	H 	0.81044 0.97130 0.58647 0.03700
Zn	Zn	0.84263 0.82979 0.83910 1.17500
O 	O 	0.01643 0.89364 0.49660 -0.47400
C 	C 	0.87384 0.84054 0.56272 -0.15300
H 	H 	0.86497 0.82641 0.59030 0.04500
H 	H 	0.91457 0.85237 0.57602 0.06300
H 	H 	0.96079 0.91252 0.26161 -0.04000
H 	H 	0.97874 0.89137 0.21567 0.03700
C 	C 	0.82005 0.91950 0.43979 0.17100
C 	C 	0.78355 0.92052 0.45086 -0.10300
C 	C 	0.19494 0.96926 0.44072 0.15800
C 	C 	0.24508 0.97690 0.46453 -0.12100
C 	C 	0.71181 0.88109 0.95067 -0.01000
C 	C 	0.78217 0.86404 0.96273 0.16700
H 	H 	0.97968 0.79304 0.04710 0.04500
C 	C 	0.93581 0.96553 0.19366 -0.09500
C 	C 	0.21032 0.87411 0.97080 0.02100
H 	H 	0.13032 0.02590 0.17839 0.04900
C 	C 	0.41484 0.03249 0.55819 0.00300
O 	O 	0.17384 0.89397 0.87789 -0.20200
H 	H 	0.89252 0.86538 0.13670 0.03900
H 	H 	0.87280 0.88224 0.18099 0.02100
H 	H 	0.82746 0.88177 0.54375 0.02700
C 	C 	0.90794 0.89569 0.17929 -0.04100
C 	C 	0.87000 0.89693 0.56307 -0.02800
H 	H 	0.88198 0.91214 0.53772 0.03500
H 	H 	0.14705 0.86415 0.00557 0.06100
C 	C 	0.30209 0.91268 0.00114 -0.03800
C 	C 	0.26071 0.92260 0.98815 -0.04400
C 	C 	0.33149 0.00978 0.54627 0.06000
C 	C 	0.37425 0.04407 0.54400 -0.06600
H 	H 	0.44712 0.05828 0.55524 0.03400
H 	H 	0.70716 0.96729 0.43841 0.04200
O 	O 	0.98601 0.84992 0.82608 -0.50100
Zn	Zn	0.94224 0.88316 0.94375 1.19300
C 	C 	0.81690 0.87912 0.90614 0.33500
O 	O 	0.79703 0.84798 0.85436 -0.47800
O 	O 	0.91264 0.86435 0.86397 -0.78800
O 	O 	0.09308 0.95702 0.39868 -0.51200
Zn	Zn	0.94576 0.92324 0.40418 1.17600
C 	C 	0.91256 0.97291 0.46140 0.33500
O 	O 	0.89653 0.94076 0.41126 -0.47200
O 	O 	0.01700 0.96325 0.43253 -0.80900
C 	C 	0.87310 0.97328 0.47173 -0.15700
C 	C 	0.79993 0.97344 0.49496 -0.03300
C 	C 	0.18459 0.00174 0.47388 -0.11400
C 	C 	0.28366 0.01261 0.52133 0.00400
C 	C 	0.78107 0.87999 0.92183 -0.13200
C 	C 	0.16403 0.88022 0.94828 -0.01300
C 	C 	0.14612 0.88782 0.90120 0.09100
C 	C 	0.10148 0.89214 0.87943 -0.02300
C 	C 	0.08932 0.87570 0.94822 0.17000
C 	C 	0.13482 0.87279 0.97083 -0.11300
O 	O 	0.05745 0.86119 0.96669 -0.23000
Zn	Zn	0.95422 0.88258 0.78327 1.18400
Zn	Zn	0.04884 0.98161 0.51211 1.18600
C 	C 	0.07268 0.88547 0.90232 -0.14400
C 	C 	0.07871 0.91601 0.01300 -0.01400
H 	H 	0.05111 0.90476 0.02546 0.01200
H 	H 	0.64706 0.86303 0.64143 0.04000
C 	C 	0.90481 0.95244 0.62122 -0.10000
H 	H 	0.16121 0.92776 0.79218 0.04000
H 	H 	0.20375 0.94912 0.76991 0.03600
H 	H 	0.37507 0.07808 0.52951 0.05100
H 	H 	0.76681 0.97351 0.33343 0.01200
H 	H 	0.34012 0.94933 0.01229 0.03200
O 	O 	0.98127 0.91733 0.74410 -0.48100
O 	O 	0.86662 0.89984 0.94397 -0.47900
O 	O 	0.97063 0.91605 0.02557 -0.41900
C 	C 	0.02540 0.88891 0.87808 0.34300
H 	H 	0.89526 0.91717 0.78124 0.15100
O 	O 	0.07446 0.01411 0.30885 -0.46500
O 	O 	0.96103 0.99374 0.50274 -0.48700
O 	O 	0.07470 0.01136 0.59233 -0.43500
Zn	Zn	0.05475 0.98241 0.35294 1.18100
C 	C 	0.13425 0.00037 0.44904 0.35100
C 	C 	0.85209 0.02794 0.52546 0.11500
C 	C 	0.88879 0.02711 0.51456 -0.00300
C 	C 	0.27397 0.04561 0.55444 0.09600
C 	C 	0.71203 0.89919 0.91131 0.09200
C 	C 	0.74533 0.89649 0.89574 -0.02600
H 	H 	0.08875 0.89975 0.84412 0.03800
H 	H 	0.18639 0.05001 0.33847 0.05400
H 	H 	0.23156 0.95331 0.83588 0.04200
C 	C 	0.20299 0.96071 0.80634 -0.04300
C 	C 	0.98956 0.00751 0.62744 0.01100
H 	H 	0.89849 0.99060 0.61829 0.04600
C 	C 	0.96430 0.97920 0.64931 0.01800
H 	H 	0.96754 0.01418 0.59375 0.04200
H 	H 	0.11857 0.93107 0.04821 0.02300
H 	H 	0.77543 0.90673 0.78240 0.03500
H 	H 	0.71747 0.89423 0.68069 0.02400
H 	H 	0.88962 0.93672 0.64434 0.04800
H 	H 	0.75293 0.03262 0.32360 0.02500
H 	H 	0.71915 0.99955 0.95843 0.03800
H 	H 	0.26710 0.96694 0.98949 0.03900
O 	O 	0.93388 0.93490 0.80734 -0.87800
O 	O 	0.02847 0.93945 0.90425 -0.46600
H 	H 	0.99429 0.01543 0.34930 0.16800
H 	H 	0.07900 0.98663 0.10703 0.03200
C 	C 	0.22419 0.03911 0.53081 -0.02400
