data_crystal

_cell_length_a 15.67754
_cell_length_b 15.16118
_cell_length_c 97.41955
_cell_angle_alpha 90.06991
_cell_angle_beta  90.02751
_cell_angle_gamma 119.73013

_symmetry_space_group_name_	'P 1'
_symmetry_space_group_name_H-M	'P 1'

loop_
_symmetry_equiv_pos_as_xyz
  x,y,z

loop_
_atom_site_label
_atom_site_type_symbol
_atom_site_fract_x
_atom_site_fract_y
_atom_site_fract_z
_atom_site_charge
C 	C 	0.01507 0.22990 0.07177 -0.08800
O 	O 	0.00561 0.17574 0.23766 -0.42100
H 	H 	0.00168 0.81096 0.77016 0.04100
O 	O 	0.01836 0.96371 0.01425 -0.71100
O 	O 	0.00604 0.85468 0.79674 -0.37400
O 	O 	0.04103 0.13186 0.03261 -0.37900
H 	H 	0.02403 0.68393 0.30446 0.01400
C 	C 	0.02061 0.59808 0.37697 -0.05400
H 	H 	0.00235 0.30586 0.73136 0.04500
C 	C 	0.04170 0.07881 0.04324 0.30200
Ni	Ni	0.01779 0.90153 0.22586 1.09700
H 	H 	0.02862 0.71758 0.27971 0.01300
C 	C 	0.02495 0.77611 0.00538 0.27900
H 	H 	0.03281 0.31072 0.25447 0.02500
H 	H 	0.03611 0.51597 0.29106 -0.00400
H 	H 	0.03415 0.66522 0.37126 0.04300
O 	O 	0.03206 0.78403 0.01899 -0.38100
C 	C 	0.03711 0.52014 0.39804 -0.02400
C 	C 	0.03591 0.51295 0.53067 0.08800
H 	H 	0.03811 0.45292 0.55071 0.08700
H 	H 	0.02459 0.56816 0.74689 0.04700
H 	H 	0.03612 0.02500 0.79842 0.15200
H 	H 	0.03257 0.71232 0.75305 0.04500
O 	O 	0.03991 0.03433 0.80843 -0.69900
C 	C 	0.05479 0.20509 0.06058 0.02500
Ni	Ni	0.05410 0.91016 0.02947 1.11700
H 	H 	0.04962 0.30818 0.07509 0.04400
Ni	Ni	0.06608 0.10556 0.01252 1.11100
C 	C 	0.04051 0.64883 0.61778 -0.00000
C 	C 	0.03518 0.58086 0.64047 0.05600
C 	C 	0.03974 0.27443 0.72553 -0.04500
H 	H 	0.05313 0.38056 0.41423 0.04200
Ni	Ni	0.05591 0.13183 0.22159 1.10900
C 	C 	0.05595 0.60789 0.39049 0.02500
C 	C 	0.03649 0.51347 0.66308 -0.04000
O 	O 	0.05076 0.86739 0.82461 -0.37400
H 	H 	0.06405 0.96083 0.00758 0.14000
H 	H 	0.06325 0.58322 0.55064 0.08500
C 	C 	0.06585 0.44927 0.41934 -0.06200
C 	C 	0.06972 0.53108 0.41192 0.01500
H 	H 	0.05584 0.36454 0.70767 0.04500
C 	C 	0.06305 0.79800 0.77159 0.00100
O 	O 	0.06618 0.18900 0.82802 -0.37200
C 	C 	0.07539 0.52631 0.54512 -0.19900
C 	C 	0.06422 0.20525 0.73151 0.00800
O 	O 	0.08884 0.02731 0.04269 -0.38800
H 	H 	0.08044 0.44215 0.27177 0.05700
H 	H 	0.07212 0.07067 0.26861 0.03000
H 	H 	0.06919 0.08219 0.29371 0.03300
C 	C 	0.06639 0.53470 0.50607 -0.08300
H 	H 	0.06630 0.71408 0.61107 0.03200
C 	C 	0.06438 0.30311 0.71183 0.00200
C 	C 	0.06889 0.66369 0.63151 -0.06700
C 	C 	0.06675 0.59643 0.65418 -0.03600
H 	H 	0.07096 0.50290 0.72685 0.03900
C 	C 	0.07478 0.19979 0.74594 0.01100
H 	H 	0.08124 0.39444 0.43890 0.03600
C 	C 	0.07871 0.73865 0.76208 -0.05000
C 	C 	0.08668 0.45891 0.43334 0.01000
H 	H 	0.08101 0.34295 0.75101 0.04700
C 	C 	0.08506 0.27828 0.75484 -0.04900
C 	C 	0.08735 0.14583 0.72272 0.01400
C 	C 	0.08956 0.12123 0.75125 0.01000
C 	C 	0.09284 0.05026 0.74229 -0.03400
O 	O 	0.10060 0.09123 0.20441 -0.40300
C 	C 	0.10408 0.70379 0.39679 -0.05300
C 	C 	0.10151 0.54837 0.51957 -0.04300
C 	C 	0.09545 0.06467 0.72811 -0.04000
H 	H 	0.10046 0.98790 0.74632 0.03800
C 	C 	0.10057 0.89157 0.79376 0.27900
O 	O 	0.10458 0.97406 0.24272 -0.38500
C 	C 	0.09349 0.52467 0.67568 0.30000
O 	O 	0.10578 0.22928 0.79786 -0.36500
C 	C 	0.10936 0.62720 0.41842 -0.00100
C 	C 	0.10099 0.59046 0.74534 -0.05300
H 	H 	0.11216 0.02998 0.85523 0.08400
H 	H 	0.11393 0.26515 0.05476 0.02900
H 	H 	0.10710 0.01479 0.72135 0.04300
C 	C 	0.10845 0.27768 0.76868 0.00800
C 	C 	0.10990 0.11996 0.76525 -0.01300
H 	H 	0.11962 0.77118 0.39101 0.03900
C 	C 	0.11527 0.26479 0.70433 -0.06600
C 	C 	0.11202 0.17557 0.70897 -0.01100
H 	H 	0.11855 0.05831 0.76935 0.04100
H 	H 	0.11803 0.33949 0.77529 0.03800
C 	C 	0.12185 0.93377 0.83260 0.30400
H 	H 	0.11520 0.00459 0.17807 0.03400
C 	C 	0.12037 0.55248 0.44001 -0.07800
O 	O 	0.11385 0.45383 0.67877 -0.38800
C 	C 	0.12269 0.19980 0.77387 -0.07100
C 	C 	0.12834 0.71304 0.41071 -0.03700
H 	H 	0.11744 0.74011 0.63521 0.05000
C 	C 	0.12573 0.84028 0.78291 -0.06500
H 	H 	0.11978 0.67220 0.65765 0.05600
C 	C 	0.13238 0.63681 0.43250 -0.01600
C 	C 	0.12653 0.54958 0.73430 0.00300
C 	C 	0.13700 0.57347 0.49467 0.28700
O 	O 	0.14664 0.98541 0.21459 -0.38200
C 	C 	0.14638 0.10427 0.29401 -0.04100
O 	O 	0.13940 0.50674 0.48600 -0.37900
H 	H 	0.14227 0.13891 0.70262 0.04600
C 	C 	0.14740 0.19951 0.78847 0.28100
H 	H 	0.14092 0.19567 0.85553 0.04300
C 	C 	0.15143 0.07410 0.24400 0.28100
C 	C 	0.15086 0.10001 0.26904 -0.01800
O 	O 	0.14602 0.62297 0.46292 -0.37900
H 	H 	0.15545 0.55309 0.54520 0.06800
H 	H 	0.14471 0.98772 0.15442 0.06100
C 	C 	0.15586 0.04869 0.20472 0.30500
H 	H 	0.15487 0.12012 0.31596 0.03600
O 	O 	0.14663 0.61518 0.68104 -0.36800
C 	C 	0.15695 0.71884 0.76389 0.00500
H 	H 	0.15210 0.77443 0.83111 0.05200
C 	C 	0.15969 0.56566 0.45407 0.30000
C 	C 	0.16217 0.23464 0.82876 0.30300
C 	C 	0.16112 0.89626 0.84361 -0.08900
O 	O 	0.16654 0.13383 0.23318 -0.38400
H 	H 	0.16247 0.78743 0.41549 0.03500
O 	O 	0.16822 0.03132 0.82967 -0.39400
H 	H 	0.16277 0.71036 0.43748 0.03900
O 	O 	0.17192 0.95909 0.80189 -0.38300
C 	C 	0.01716 0.10332 0.05672 -0.09700
Ni	Ni	0.17690 0.08434 0.81059 1.12000
C 	C 	0.17322 0.81201 0.84101 -0.03800
H 	H 	0.18004 0.58607 0.52142 0.04100
C 	C 	0.17424 0.65813 0.75443 0.00500
H 	H 	0.16891 0.61818 0.85184 0.08400
C 	C 	0.18098 0.03832 0.85956 -0.19800
O 	O 	0.17721 0.67131 0.49153 -0.37600
O 	O 	0.19388 0.99126 0.02288 -0.38800
C 	C 	0.18927 0.94557 0.85652 0.08100
C 	C 	0.19004 0.27507 0.85346 -0.04100
C 	C 	0.19351 0.04669 0.18008 -0.03600
C 	C 	0.19818 0.11574 0.28177 0.00600
C 	C 	0.19475 0.12485 0.30666 -0.04300
O 	O 	0.19849 0.15490 0.79217 -0.37500
O 	O 	0.21270 0.14682 0.01711 -0.36800
C 	C 	0.20427 0.11803 0.25682 -0.07400
O 	O 	0.19756 0.50963 0.45801 -0.38700
O 	O 	0.19987 0.33813 0.68312 -0.37600
C 	C 	0.20167 0.33759 0.69662 0.29700
C 	C 	0.20800 0.82712 0.78429 -0.02000
C 	C 	0.21220 0.30843 0.83986 -0.09100
O 	O 	0.21385 0.22209 0.81906 -0.38000
O 	O 	0.21142 0.58095 0.70784 -0.38000
H 	H 	0.22500 0.42531 0.81657 0.08000
C 	C 	0.00360 0.41603 0.27382 -0.14000
C 	C 	0.21519 0.77771 0.85093 0.07800
C 	C 	0.22164 0.05165 0.15459 -0.19400
C 	C 	0.22738 0.07054 0.19364 -0.09700
C 	C 	0.22493 0.57552 0.73226 -0.07200
C 	C 	0.22541 0.76888 0.77462 0.00800
H 	H 	0.22357 0.11826 0.14956 0.07800
C 	C 	0.22837 0.34376 0.86439 0.08200
C 	C 	0.22910 0.91009 0.86652 -0.04000
C 	C 	0.24105 0.09097 0.02418 0.29000
H 	H 	0.23193 0.67927 0.83623 0.06600
C 	C 	0.23007 0.68913 0.84751 -0.19500
H 	H 	0.24487 0.10629 0.85509 0.08000
C 	C 	0.24109 0.82573 0.86399 -0.08800
Ni	Ni	0.24153 0.46711 0.67248 1.11900
H 	H 	0.25439 0.63367 0.63408 0.04400
C 	C 	0.25825 0.56990 0.71829 0.29300
H 	H 	0.25784 0.86137 0.79288 0.04400
C 	C 	0.25994 0.07894 0.16909 0.07500
Ni	Ni	0.26205 0.73580 0.47410 1.11100
Ni	Ni	0.26174 0.52078 0.47641 1.12000
O 	O 	0.26090 0.58111 0.65913 -0.37500
C 	C 	0.27046 0.41340 0.83709 0.07700
H 	H 	0.26680 0.02753 0.14859 0.07600
C 	C 	0.26744 0.66502 0.75413 0.00800
H 	H 	0.28416 0.26583 0.03778 0.03700
H 	H 	0.28373 0.24613 0.08228 0.04300
C 	C 	0.28126 0.44914 0.86165 -0.09600
Ni	Ni	0.28259 0.66587 0.69071 1.11200
O 	O 	0.28544 0.38524 0.70316 -0.38500
C 	C 	0.29389 0.45176 0.82253 -0.19500
C 	C 	0.29347 0.14915 0.30731 0.00800
C 	C 	0.29367 0.62599 0.74279 -0.01900
C 	C 	0.29892 0.14451 0.28225 0.00500
H 	H 	0.30084 0.70111 0.85165 0.07700
C 	C 	0.30442 0.48302 0.84805 -0.03700
C 	C 	0.30779 0.13717 0.03600 -0.07300
C 	C 	0.31053 0.22027 0.04282 0.01000
C 	C 	0.30626 0.15881 0.25733 0.00600
H 	H 	0.30821 0.17951 0.32915 0.04200
C 	C 	0.31197 0.76289 0.77527 -0.04100
H 	H 	0.31527 0.26270 0.10701 0.03500
H 	H 	0.31682 0.74236 0.61381 0.04200
O 	O 	0.31712 0.56605 0.68599 -0.70900
C 	C 	0.31966 0.70760 0.63498 -0.00200
O 	O 	0.32822 0.66475 0.47796 -0.71700
H 	H 	0.32732 0.66813 0.48804 0.14600
O 	O 	0.32555 0.51318 0.49394 -0.38900
C 	C 	0.32729 0.68016 0.66017 0.27000
C 	C 	0.33175 0.22097 0.08655 -0.05200
C 	C 	0.32950 0.12427 0.19632 0.07700
H 	H 	0.32950 0.67295 0.41029 0.04000
O 	O 	0.33192 0.79285 0.45551 -0.38800
H 	H 	0.32854 0.86593 0.60181 0.04200
C 	C 	0.33373 0.71302 0.76493 -0.04300
H 	H 	0.33528 0.53610 0.82212 0.06500
Ni	Ni	0.89872 0.86814 0.00552 1.12000
C 	C 	0.85057 0.02825 0.00592 0.30000
O 	O 	0.83155 0.76338 0.02038 -0.38700
O 	O 	0.93873 0.10874 0.00671 -0.36400
O 	O 	0.83303 0.94496 0.01226 -0.39100
H 	H 	0.65589 0.88927 0.00235 0.03500
H 	H 	0.35622 0.02628 0.03666 0.04100
C 	C 	0.83907 0.78445 0.03357 0.30400
H 	H 	0.74674 0.58003 0.03707 0.04600
O 	O 	0.92522 0.84057 0.03936 -0.38700
C 	C 	0.35122 0.08551 0.04225 -0.01900
C 	C 	0.38118 0.10522 0.05604 0.00800
H 	H 	0.44099 0.00373 0.05654 0.03900
C 	C 	0.75590 0.72222 0.04262 -0.07200
C 	C 	0.66993 0.47495 0.06009 -0.03900
C 	C 	0.68934 0.57403 0.05744 0.00900
C 	C 	0.72497 0.77079 0.05200 0.00500
C 	C 	0.72831 0.61997 0.04471 -0.01400
H 	H 	0.67243 0.42821 0.05184 0.04200
H 	H 	0.73918 0.84719 0.04998 0.03400
C 	C 	0.33908 0.23933 0.05657 -0.05100
H 	H 	0.34248 0.30476 0.06157 0.04300
C 	C 	0.36450 0.17462 0.06365 0.00700
C 	C 	0.42485 0.05445 0.06241 -0.04200
C 	C 	0.44831 0.06927 0.07638 -0.04200
H 	H 	0.48391 0.03121 0.08109 0.03900
C 	C 	0.65191 0.43745 0.07347 -0.03900
C 	C 	0.67752 0.63131 0.06801 0.00600
C 	C 	0.68346 0.72455 0.06452 -0.05300
H 	H 	0.63933 0.36147 0.07539 0.04200
H 	H 	0.65497 0.76048 0.07125 0.04100
H 	H 	0.92224 0.94711 0.06248 0.04400
C 	C 	0.90641 0.05008 0.07624 -0.00700
C 	C 	0.94734 0.02588 0.06503 0.00700
H 	H 	0.82047 0.89507 0.08316 0.03800
C 	C 	0.37491 0.17813 0.07813 0.00400
C 	C 	0.42164 0.12890 0.08438 0.00900
C 	C 	0.43812 0.13728 0.09863 -0.02400
C 	C 	0.67941 0.66126 0.09313 -0.05200
C 	C 	0.66783 0.59709 0.08185 0.00500
C 	C 	0.65811 0.50032 0.08446 0.01000
C 	C 	0.66303 0.47113 0.09798 -0.01500
H 	H 	0.68741 0.73543 0.09166 0.04000
H 	H 	0.65628 0.39748 0.09996 0.03700
C 	C 	0.93407 0.15275 0.07890 0.03700
C 	C 	0.83810 0.97300 0.08475 -0.03200
C 	C 	0.79335 0.99607 0.09545 -0.04400
C 	C 	0.81286 0.09609 0.09745 0.01200
C 	C 	0.88129 0.17517 0.08889 -0.00400
C 	C 	0.88996 0.27239 0.08988 -0.04400
H 	H 	0.74139 0.93546 0.10201 0.03700
H 	H 	0.93124 0.33077 0.08240 0.04600
C 	C 	0.34643 0.22679 0.10071 0.00400
C 	C 	0.40338 0.18935 0.10674 -0.07100
C 	C 	0.68131 0.53853 0.10888 -0.07200
C 	C 	0.68595 0.63170 0.10649 0.00500
H 	H 	0.47961 0.10549 0.10333 0.04300
C 	C 	0.83983 0.29276 0.10014 -0.00100
H 	H 	0.84858 0.36812 0.10095 0.03600
C 	C 	0.77705 0.21597 0.10912 -0.06700
C 	C 	0.76262 0.11750 0.10767 -0.01900
H 	H 	0.71283 0.05782 0.11454 0.03900
O 	O 	0.44232 0.15332 0.12947 -0.38000
C 	C 	0.69586 0.51119 0.12279 0.28100
C 	C 	0.44035 0.22039 0.12081 0.27900
C 	C 	0.72987 0.23955 0.12043 0.28400
O 	O 	0.63882 0.51028 0.13291 -0.37000
O 	O 	0.76190 0.48173 0.12485 -0.37300
O 	O 	0.78736 0.30491 0.13002 -0.38400
O 	O 	0.63423 0.17827 0.12246 -0.39100
O 	O 	0.46030 0.31176 0.12506 -0.37400
H 	H 	0.61819 0.32307 0.12845 0.14800
H 	H 	0.69775 0.68296 0.11496 0.03500
Ni	Ni	0.53861 0.37591 0.14288 1.11200
Ni	Ni	0.56569 0.17687 0.13996 1.11800
Ni	Ni	0.75592 0.39784 0.14144 1.12100
O 	O 	0.61826 0.31912 0.13852 -0.71500
C 	C 	0.36165 0.13895 0.17172 -0.09400
C 	C 	0.43166 0.18850 0.16042 0.30600
O 	O 	0.42160 0.25235 0.15241 -0.37900
C 	C 	0.69797 0.49765 0.16297 0.30600
C 	C 	0.72994 0.23232 0.15960 0.30800
O 	O 	0.67371 0.16770 0.15007 -0.39000
O 	O 	0.50303 0.16812 0.15851 -0.39000
O 	O 	0.60417 0.43122 0.16181 -0.38400
O 	O 	0.75841 0.51224 0.15275 -0.37700
O 	O 	0.75504 0.32892 0.15906 -0.39300
C 	C 	0.87739 0.12789 0.17711 -0.03800
C 	C 	0.75366 0.20549 0.18404 -0.03500
C 	C 	0.77386 0.19822 0.17022 -0.09300
C 	C 	0.83743 0.16051 0.16669 0.08200
C 	C 	0.86262 0.15458 0.15189 -0.19800
H 	H 	0.92466 0.09712 0.17445 0.04500
H 	H 	0.70433 0.23370 0.18669 0.04100
H 	H 	0.88768 0.22863 0.14672 0.08500
H 	H 	0.79721 0.09450 0.14647 0.08200
H 	H 	0.92271 0.13613 0.15101 0.07200
C 	C 	0.77884 0.67668 0.17090 -0.03800
C 	C 	0.73076 0.57297 0.17417 -0.09000
C 	C 	0.81383 0.75057 0.18129 0.08400
C 	C 	0.86051 0.86143 0.17751 -0.20400
H 	H 	0.78864 0.69987 0.16022 0.05200
H 	H 	0.87367 0.87326 0.16629 0.07200
H 	H 	0.93253 0.90619 0.18272 0.09200
H 	H 	0.81116 0.89094 0.18058 0.08400
C 	C 	0.39593 0.15734 0.18529 -0.03800
H 	H 	0.47427 0.20065 0.18726 0.04200
C 	C 	0.85720 0.13534 0.19093 -0.09100
C 	C 	0.79533 0.17508 0.19446 0.07800
H 	H 	0.72876 0.10440 0.21366 0.07300
C 	C 	0.89793 0.09806 0.20159 0.30800
O 	O 	0.85321 0.00039 0.20428 -0.39900
C 	C 	0.77073 0.18187 0.20925 -0.19700
H 	H 	0.72507 0.21885 0.21028 0.06700
C 	C 	0.71444 0.54237 0.18808 0.08000
C 	C 	0.74808 0.61644 0.19848 -0.03600
C 	C 	0.80006 0.72006 0.19518 -0.09000
C 	C 	0.66111 0.43132 0.19189 -0.19700
H 	H 	0.69159 0.39004 0.18612 0.08100
H 	H 	0.58174 0.39763 0.18951 0.07900
H 	H 	0.34380 0.07914 0.21679 0.08100
H 	H 	0.33982 0.19642 0.21584 0.07600
C 	C 	0.36782 0.14994 0.21083 -0.19600
H 	H 	0.34826 0.17567 0.24791 0.03100
H 	H 	0.44938 0.19405 0.21113 0.06400
C 	C 	0.85028 0.79486 0.20617 0.30500
O 	O 	0.94498 0.83188 0.20784 -0.36700
O 	O 	0.79808 0.80850 0.21562 -0.37900
O 	O 	0.96978 0.16418 0.20949 -0.37200
H 	H 	0.83903 0.22767 0.21525 0.09100
C 	C 	0.91058 0.14192 0.23990 0.31500
Ni	Ni	0.83547 0.94756 0.22350 1.12000
O 	O 	0.84133 0.07478 0.23151 -0.39600
O 	O 	0.89928 0.80181 0.23817 -0.36000
O 	O 	0.80598 0.87849 0.24207 -0.37600
O 	O 	0.97101 0.99463 0.22657 -0.69800
H 	H 	0.97241 0.00494 0.23654 0.15400
H 	H 	0.73685 0.59342 0.20916 0.04800
H 	H 	0.66868 0.42022 0.20301 0.06600
C 	C 	0.85585 0.83517 0.24681 0.28000
H 	H 	0.72676 0.09246 0.24827 0.03400
C 	C 	0.87269 0.83555 0.26180 -0.07100
H 	H 	0.78989 0.91049 0.26687 0.04000
H 	H 	0.96300 0.76514 0.26016 0.04800
C 	C 	0.88293 0.19657 0.24997 -0.07800
C 	C 	0.78364 0.16153 0.25296 -0.00000
C 	C 	0.75703 0.21374 0.26228 -0.04300
C 	C 	0.93011 0.33591 0.26615 0.06000
C 	C 	0.95589 0.28411 0.25655 0.00100
H 	H 	0.68048 0.18077 0.26504 0.03700
C 	C 	0.35381 0.17309 0.26995 -0.05400
H 	H 	0.43307 0.20879 0.27012 0.04000
C 	C 	0.43369 0.15168 0.29626 -0.05400
H 	H 	0.46631 0.13618 0.28747 0.04100
C 	C 	0.83386 0.87911 0.27079 0.00400
C 	C 	0.93137 0.79735 0.26706 -0.00900
C 	C 	0.82974 0.30344 0.26868 -0.02100
C 	C 	0.80537 0.35548 0.27872 0.03300
C 	C 	0.70884 0.33841 0.28033 -0.06600
H 	H 	0.65410 0.30122 0.27240 0.04300
C 	C 	0.84973 0.88113 0.28491 -0.05100
C 	C 	0.90561 0.83965 0.29040 0.01000
C 	C 	0.94612 0.79687 0.28130 0.00400
C 	C 	0.99422 0.74694 0.28659 -0.01000
H 	H 	0.81399 0.91024 0.29149 0.04400
C 	C 	0.97854 0.45840 0.28472 0.06100
C 	C 	0.87974 0.42567 0.28756 -0.03300
C 	C 	0.68384 0.37297 0.29214 0.01200
H 	H 	0.60877 0.35604 0.29358 0.03800
C 	C 	0.34339 0.15026 0.29516 0.00500
C 	C 	0.48122 0.17069 0.30894 0.00700
C 	C 	0.72410 0.42552 0.31663 0.29900
H 	H 	0.55310 0.17713 0.30950 0.03800
C 	C 	0.99147 0.72758 0.30063 -0.01700
C 	C 	0.91119 0.82730 0.30482 0.01000
C 	C 	0.75464 0.42463 0.30235 -0.08200
C 	C 	0.85377 0.45842 0.29950 0.00600
H 	H 	0.90954 0.50353 0.30703 0.04300
C 	C 	0.94304 0.76042 0.30959 0.00800
H 	H 	0.87209 0.93843 0.31212 0.04500
C 	C 	0.34318 0.17201 0.31996 -0.01900
C 	C 	0.43969 0.18898 0.32061 -0.07400
O 	O 	0.63727 0.41646 0.31904 -0.38400
C 	C 	0.50276 0.24225 0.33250 0.29500
Ni	Ni	0.59775 0.46012 0.33667 1.12000
O 	O 	0.69296 0.60345 0.33163 -0.38500
O 	O 	0.77557 0.41567 0.32655 -0.37900
O 	O 	0.58149 0.23271 0.33480 -0.37300
O 	O 	0.49232 0.31404 0.33855 -0.39200
C 	C 	0.87664 0.87131 0.31454 -0.05100
C 	C 	0.84808 0.82771 0.32757 0.01100
C 	C 	0.85601 0.74218 0.33094 -0.06800
C 	C 	0.91628 0.71895 0.32283 -0.01400
H 	H 	0.81033 0.85332 0.33441 0.03900
H 	H 	0.92992 0.65839 0.32598 0.04800
H 	H 	0.43639 0.31245 0.37847 0.02800
C 	C 	0.42178 0.37236 0.38155 0.00100
C 	C 	0.42515 0.53040 0.37668 -0.01500
C 	C 	0.45431 0.45920 0.37338 -0.06700
C 	C 	0.77485 0.65910 0.33838 0.29700
Ni	Ni	0.71469 0.33630 0.34451 1.11200
C 	C 	0.90345 0.48943 0.35866 0.30100
C 	C 	0.54113 0.49035 0.36478 0.28000
Ni	Ni	0.74643 0.53324 0.36264 1.11900
O 	O 	0.66851 0.27225 0.36386 -0.36700
O 	O 	0.62713 0.52790 0.37108 -0.37900
O 	O 	0.85662 0.40021 0.35273 -0.36700
O 	O 	0.87713 0.55661 0.35599 -0.38900
O 	O 	0.53555 0.50469 0.35144 -0.37700
O 	O 	0.77499 0.65846 0.35188 -0.37800
O 	O 	0.67331 0.43057 0.34938 -0.70900
H 	H 	0.61754 0.38565 0.35525 0.14000
H 	H 	0.44428 0.59425 0.36990 0.04500
C 	C 	0.96220 0.50147 0.37115 -0.04900
H 	H 	0.90061 0.33998 0.37418 0.04800
C 	C 	0.37988 0.36765 0.39436 -0.04900
C 	C 	0.38398 0.52682 0.38963 0.01100
C 	C 	0.36233 0.60242 0.39358 -0.04100
H 	H 	0.36360 0.65589 0.38609 0.04100
H 	H 	0.49017 0.17669 0.37920 0.03300
C 	C 	0.97986 0.42357 0.39193 -0.02300
C 	C 	0.67719 0.32509 0.37524 0.27200
O 	O 	0.73941 0.42500 0.37604 -0.37500
C 	C 	0.94622 0.41502 0.37848 -0.00500
C 	C 	0.63473 0.26790 0.38794 -0.06300
H 	H 	0.35234 0.29891 0.40035 0.04000
H 	H 	0.41630 0.93200 0.40908 0.04200
C 	C 	0.36523 0.46823 0.41341 0.00800
C 	C 	0.35308 0.55151 0.41738 0.00800
C 	C 	0.37324 0.45179 0.39919 0.00500
C 	C 	0.34383 0.61256 0.40733 -0.03700
H 	H 	0.42409 0.06453 0.39914 0.04000
H 	H 	0.95448 0.35469 0.39779 0.03900
C 	C 	0.50125 0.12093 0.39898 -0.05000
C 	C 	0.65812 0.21794 0.41074 0.01200
C 	C 	0.56382 0.13032 0.40999 0.00300
C 	C 	0.53750 0.18783 0.38792 -0.00000
C 	C 	0.69373 0.28552 0.39959 -0.02000
H 	H 	0.76782 0.34979 0.39983 0.04700
H 	H 	0.35548 0.81530 0.42854 0.03300
H 	H 	0.39584 0.35161 0.42109 0.04300
C 	C 	0.38302 0.41329 0.42369 -0.05400
C 	C 	0.41937 0.88982 0.42989 0.00600
C 	C 	0.36092 0.57936 0.43126 -0.00900
H 	H 	0.35272 0.64368 0.43427 0.04400
C 	C 	0.45185 0.95793 0.41894 -0.05500
C 	C 	0.53325 0.05647 0.42059 0.00700
C 	C 	0.71531 0.23728 0.42263 -0.04200
H 	H 	0.78693 0.30496 0.42335 0.04200
H 	H 	0.40968 0.40286 0.44510 0.03300
C 	C 	0.39243 0.44334 0.43743 0.00800
C 	C 	0.38558 0.52870 0.44114 -0.07600
C 	C 	0.40836 0.56814 0.45523 0.30100
C 	C 	0.42754 0.84896 0.45442 0.30200
C 	C 	0.46907 0.91714 0.44251 -0.07700
O 	O 	0.46459 0.66622 0.45727 -0.38700
C 	C 	0.58941 0.07999 0.43282 0.00600
C 	C 	0.55561 0.01128 0.44384 -0.01500
C 	C 	0.67975 0.17058 0.43375 -0.03900
H 	H 	0.59585 0.03150 0.45346 0.04100
H 	H 	0.72377 0.18824 0.44300 0.03800
H 	H 	0.96085 0.54687 0.48356 0.08300
O 	O 	0.36384 0.50734 0.46562 -0.39200
H 	H 	0.53007 0.47083 0.48352 0.08400
H 	H 	0.47578 0.07100 0.48366 0.08000
Ni	Ni	0.46697 0.73128 0.47533 1.12100
O 	O 	0.48495 0.85478 0.46464 -0.38400
H 	H 	0.93883 0.41770 0.48357 0.08300
H 	H 	0.40463 0.37684 0.48763 0.07800
O 	O 	0.37009 0.86456 0.48460 -0.37200
H 	H 	0.50314 0.35240 0.49133 0.06600
C 	C 	0.48225 0.41252 0.49110 -0.19500
C 	C 	0.43110 0.86408 0.49413 0.28700
C 	C 	0.42222 0.56517 0.49588 0.29000
O 	O 	0.48034 0.81438 0.49230 -0.38100
C 	C 	0.49345 0.46113 0.50500 0.08100
O 	O 	0.48315 0.62573 0.48620 -0.38100
C 	C 	0.96419 0.48725 0.50357 0.07800
C 	C 	0.92481 0.47327 0.48912 -0.19500
C 	C 	0.54300 0.08470 0.48925 -0.19500
H 	H 	0.57903 0.04851 0.48356 0.08000
H 	H 	0.59477 0.16791 0.48940 0.06400
H 	H 	0.84439 0.44453 0.48900 0.06700
C 	C 	0.51636 0.04161 0.50356 0.08000
C 	C 	0.46361 0.53408 0.50716 -0.08500
H 	H 	0.39401 0.81578 0.52067 0.03900
C 	C 	0.45951 0.93563 0.50570 -0.08600
C 	C 	0.43664 0.89721 0.51909 -0.04000
H 	H 	0.41007 0.95982 0.55063 0.08100
H 	H 	0.55754 0.37823 0.51431 0.04000
C 	C 	0.54873 0.10749 0.51492 -0.04100
H 	H 	0.59172 0.18891 0.51334 0.03900
C 	C 	0.89858 0.45211 0.51468 -0.03800
H 	H 	0.82006 0.41447 0.51282 0.04000
C 	C 	0.56134 0.14011 0.53996 0.28700
C 	C 	0.86291 0.42576 0.53957 0.29000
C 	C 	0.58486 0.44564 0.54020 0.28900
O 	O 	0.62282 0.13535 0.54902 -0.37200
O 	O 	0.51619 0.19318 0.54244 -0.38100
O 	O 	0.52348 0.38494 0.54982 -0.38100
O 	O 	0.68162 0.49591 0.54213 -0.38800
O 	O 	0.81768 0.32645 0.54195 -0.37800
O 	O 	0.86428 0.49105 0.54885 -0.38100
O 	O 	0.67352 0.33615 0.55673 -0.71700
H 	H 	0.67269 0.33542 0.54663 0.14700
C 	C 	0.47381 0.57779 0.52015 -0.04000
C 	C 	0.53425 0.43395 0.51591 -0.04000
C 	C 	0.54433 0.47755 0.52891 -0.08500
C 	C 	0.51465 0.55062 0.53106 0.08100
C 	C 	0.52571 0.59907 0.54497 -0.19500
H 	H 	0.45038 0.63339 0.52176 0.04000
H 	H 	0.50591 0.65999 0.54470 0.06600
H 	H 	0.60306 0.63368 0.54853 0.07800
C 	C 	0.52699 0.06893 0.52831 -0.08500
C 	C 	0.46878 0.96309 0.53043 0.07800
C 	C 	0.93366 0.46562 0.52818 -0.09200
Ni	Ni	0.73594 0.25995 0.55954 1.11100
Ni	Ni	0.74510 0.47937 0.55914 1.12000
Ni	Ni	0.53568 0.27391 0.55987 1.12100
O 	O 	0.64732 0.49580 0.57059 -0.39100
O 	O 	0.85758 0.36737 0.57045 -0.38200
O 	O 	0.51526 0.14702 0.56988 -0.38400
H 	H 	0.47696 0.54086 0.55249 0.08300
C 	C 	0.44160 0.91999 0.54474 -0.19400
H 	H 	0.38579 0.83790 0.54456 0.06500
H 	H 	0.50780 0.92884 0.55014 0.07900
C 	C 	0.85017 0.42489 0.57994 0.30400
C 	C 	0.57349 0.14938 0.57976 0.30000
C 	C 	0.60135 0.43317 0.58074 0.30200
O 	O 	0.80766 0.47888 0.57728 -0.38800
O 	O 	0.66915 0.20130 0.57826 -0.38700
O 	O 	0.54299 0.33594 0.57835 -0.38800
H 	H 	0.39361 0.97965 0.58207 0.03600
C 	C 	0.40359 0.92734 0.60217 -0.05400
C 	C 	0.43889 0.99515 0.59114 0.00300
H 	H 	0.65113 0.35407 0.60192 0.04400
C 	C 	0.61150 0.55445 0.59870 0.00800
C 	C 	0.62042 0.47037 0.59495 -0.07600
C 	C 	0.64136 0.41743 0.60495 -0.00900
H 	H 	0.59677 0.59646 0.59096 0.03300
C 	C 	0.89899 0.43847 0.59326 -0.08600
C 	C 	0.87599 0.35403 0.60152 0.01100
C 	C 	0.95496 0.53648 0.59868 0.00200
H 	H 	0.83594 0.27813 0.59725 0.03000
H 	H 	0.97555 0.60189 0.59214 0.03100
C 	C 	0.53195 0.08243 0.59182 -0.07400
C 	C 	0.55410 0.03542 0.61487 0.00700
C 	C 	0.58745 0.10419 0.60390 -0.01600
H 	H 	0.65681 0.17456 0.60474 0.04000
C 	C 	0.35254 0.77183 0.62356 -0.05000
H 	H 	0.66139 0.31672 0.62601 0.03900
C 	C 	0.43399 0.87119 0.62474 0.00200
C 	C 	0.64680 0.37704 0.62893 -0.03700
C 	C 	0.61512 0.58093 0.61251 -0.05400
H 	H 	0.60046 0.64143 0.61508 0.04300
C 	C 	0.90183 0.36685 0.61543 -0.06800
C 	C 	0.98141 0.55047 0.61259 -0.03200
C 	C 	0.46363 0.94305 0.61380 0.00500
C 	C 	0.60980 0.05890 0.62695 -0.03600
H 	H 	0.67830 0.13010 0.62785 0.03300
C 	C 	0.64264 0.44122 0.61889 0.00800
C 	C 	0.62905 0.52363 0.62285 0.00800
C 	C 	0.94929 0.46514 0.62134 0.03000
H 	H 	0.88805 0.30082 0.62133 0.04200
C 	C 	0.57717 0.99203 0.63799 -0.05000
C 	C 	0.48983 0.89868 0.63703 0.01300
C 	C 	0.96334 0.41682 0.65879 -0.04400
O 	O 	0.35705 0.46115 0.66464 -0.37900
C 	C 	0.37006 0.73919 0.64752 -0.06300
H 	H 	0.61821 0.32854 0.64995 0.04000
C 	C 	0.62307 0.38414 0.64254 -0.04100
C 	C 	0.55760 0.45507 0.65920 -0.01500
C 	C 	0.45766 0.83242 0.64829 -0.02400
C 	C 	0.60150 0.45992 0.64643 0.01100
C 	C 	0.60938 0.62117 0.64186 -0.04900
C 	C 	0.61608 0.53712 0.63701 0.00500
H 	H 	0.63915 0.69091 0.63605 0.04100
C 	C 	0.97091 0.48115 0.63564 -0.04200
C 	C 	0.92856 0.40106 0.64527 -0.02700
H 	H 	0.86722 0.32791 0.64252 0.03100
H 	H 	0.62048 0.01264 0.64734 0.04100
H 	H 	0.49959 0.85446 0.65777 0.04300
C 	C 	0.56454 0.61513 0.65448 0.00100
H 	H 	0.54988 0.67516 0.65751 0.02800
H 	H 	0.93483 0.35337 0.66585 0.03900
O 	O 	0.34078 0.73193 0.67183 -0.36900
H 	H 	0.53612 0.39007 0.66585 0.04500
C 	C 	0.44267 0.49718 0.67100 0.28000
C 	C 	0.52964 0.52724 0.66249 -0.06700
H 	H 	0.37511 0.60854 0.68034 0.14200
O 	O 	0.44743 0.48297 0.68438 -0.37600
O 	O 	0.34277 0.57159 0.71655 -0.38000
H 	H 	0.36841 0.64045 0.74176 0.04700
Ni	Ni	0.38507 0.52863 0.69899 1.12000
O 	O 	0.41252 0.75835 0.70193 -0.37500
O 	O 	0.49621 0.67207 0.69762 -0.39400
H 	H 	0.46400 0.84675 0.72485 0.04500
C 	C 	0.49029 0.74626 0.70371 0.29500
C 	C 	0.64668 0.79731 0.71623 -0.00000
C 	C 	0.55978 0.80180 0.71498 -0.07400
H 	H 	0.67105 0.76820 0.70785 0.03600
C 	C 	0.80761 0.88711 0.75468 -0.05500
C 	C 	0.58142 0.86694 0.73834 0.00700
C 	C 	0.66678 0.85787 0.73986 0.00300
C 	C 	0.69809 0.82181 0.72864 -0.05300
C 	C 	0.53057 0.84203 0.72580 -0.01700
H 	H 	0.85242 0.89248 0.74596 0.03500
H 	H 	0.75747 0.80559 0.72968 0.03700
C 	C 	0.71393 0.87780 0.75294 0.00500
C 	C 	0.54361 0.89372 0.74964 -0.04300
H 	H 	0.47935 0.90234 0.74846 0.04000
H 	H 	0.40199 0.71142 0.76537 0.04100
C 	C 	0.84869 0.90070 0.76777 -0.00100
C 	C 	0.66765 0.89326 0.76446 0.00600
C 	C 	0.58428 0.90338 0.76264 -0.04200
H 	H 	0.92214 0.91188 0.76886 0.01500
C 	C 	0.79986 0.90986 0.77924 -0.07300
C 	C 	0.70873 0.90451 0.77759 -0.01500
H 	H 	0.55105 0.91942 0.77134 0.03600
H 	H 	0.36409 0.79985 0.78354 0.03600
H 	H 	0.33959 0.42350 0.81760 0.08300
H 	H 	0.34690 0.56364 0.84596 0.03800
Ni	Ni	0.99015 0.12439 0.81008 1.09700
C 	C 	0.85539 0.95298 0.79189 0.27500
Ni	Ni	0.95874 0.89648 0.81334 1.10400
O 	O 	0.90120 0.05289 0.79337 -0.38100
O 	O 	0.84420 0.89219 0.80245 -0.38000
H 	H 	0.66533 0.89347 0.82845 0.04700
H 	H 	0.49772 0.80041 0.83432 0.06500
H 	H 	0.67305 0.91600 0.78641 0.03900
C 	C 	0.85990 0.97494 0.83147 0.30300
O 	O 	0.86388 0.03541 0.82154 -0.37900
O 	O 	0.91421 0.93117 0.83110 -0.40100
C 	C 	0.61551 0.86478 0.84948 0.07900
C 	C 	0.68734 0.90284 0.83915 -0.04000
C 	C 	0.78726 0.94863 0.84253 -0.09300
C 	C 	0.50841 0.81178 0.84559 -0.19800
H 	H 	0.47498 0.85774 0.84901 0.07900
H 	H 	0.46962 0.73587 0.85048 0.07700
C 	C 	0.74474 0.92609 0.86677 -0.03700
C 	C 	0.64467 0.87489 0.86340 -0.09400
C 	C 	0.81638 0.96427 0.85646 0.07500
C 	C 	0.92315 0.01552 0.86043 -0.19000
H 	H 	0.96862 0.07824 0.85326 0.07000
H 	H 	0.94760 0.95829 0.86035 0.06700
H 	H 	0.17943 0.05035 0.87079 0.06700
C 	C 	0.27935 0.78822 0.87517 0.30500
C 	C 	0.31160 0.52411 0.87286 0.30500
C 	C 	0.21191 0.30379 0.87891 -0.19700
O 	O 	0.24223 0.68968 0.87673 -0.39300
H 	H 	0.24975 0.94778 0.87642 0.05300
H 	H 	0.18910 0.22175 0.87911 0.06700
O 	O 	0.24795 0.51149 0.88256 -0.38700
H 	H 	0.15314 0.31325 0.88384 0.08400
H 	H 	0.28069 0.34422 0.88499 0.08300
Ni	Ni	0.25215 0.62526 0.89422 1.12100
O 	O 	0.22671 0.71854 0.90653 -0.37600
O 	O 	0.25068 0.54209 0.91050 -0.38900
C 	C 	0.29398 0.48579 0.91055 0.28800
C 	C 	0.29015 0.77894 0.91601 0.28000
H 	H 	0.10130 0.36815 0.91667 0.03300
C 	C 	0.24805 0.39028 0.91845 -0.07400
C 	C 	0.14663 0.33945 0.92093 0.00500
C 	C 	0.10325 0.25310 0.92921 -0.05600
H 	H 	0.16116 0.60755 0.92934 0.03900
C 	C 	0.25881 0.76968 0.93047 -0.06700
H 	H 	0.02633 0.22062 0.93168 0.04500
C 	C 	0.16074 0.21440 0.93499 0.01300
C 	C 	0.26330 0.26536 0.93232 0.00400
C 	C 	0.19222 0.67421 0.93586 0.00200
C 	C 	0.12108 0.13403 0.94474 -0.00800
C 	C 	0.01910 0.07428 0.94711 -0.01900
C 	C 	0.16931 0.66305 0.94985 -0.05000
H 	H 	0.12715 0.58716 0.95389 0.04300
C 	C 	0.18586 0.11742 0.95304 0.02100
C 	C 	0.20767 0.74916 0.95854 0.00600
C 	C 	0.05293 0.02412 0.96915 -0.04800
C 	C 	0.15102 0.06152 0.96522 -0.02600
H 	H 	0.05044 0.58928 0.97141 0.04300
C 	C 	0.17485 0.74379 0.97237 0.00400
H 	H 	0.20191 0.05633 0.97228 0.04300
C 	C 	0.09009 0.65724 0.97748 -0.04900
C 	C 	0.22219 0.83161 0.98082 0.01400
C 	C 	0.02882 0.01672 0.98383 0.27300
C 	C 	0.04987 0.66164 0.99008 0.00500
O 	O 	0.08866 0.09436 0.99176 -0.36900
C 	C 	0.18243 0.83271 0.99370 -0.02600
C 	C 	0.09070 0.75244 0.99755 -0.06700
H 	H 	0.21601 0.90164 0.99981 0.04400
C 	C 	0.28038 0.84409 0.95326 0.00900
C 	C 	0.28570 0.16373 0.94967 -0.04500
C 	C 	0.30200 0.92092 0.97575 -0.04400
C 	C 	0.30560 0.35115 0.92376 -0.01700
C 	C 	0.30404 0.85408 0.93924 -0.01600
C 	C 	0.32362 0.23522 0.93913 -0.03700
C 	C 	0.32909 0.92795 0.96202 -0.03900
O 	O 	0.33249 0.85170 0.88500 -0.38800
H 	H 	0.33471 0.14686 0.95552 0.04000
H 	H 	0.93499 0.04902 0.87088 0.05900
O 	O 	0.40504 0.59149 0.87423 -0.38700
C 	C 	0.57192 0.82624 0.87443 0.30700
O 	O 	0.50398 0.85187 0.87628 -0.39200
H 	H 	0.76694 0.93481 0.87746 0.04700
O 	O 	0.58479 0.76958 0.88346 -0.37600
O 	O 	0.38966 0.70376 0.89679 -0.71700
Ni	Ni	0.46920 0.64637 0.89325 1.11200
Ni	Ni	0.44299 0.84649 0.89485 1.12000
O 	O 	0.37112 0.50685 0.90258 -0.37700
O 	O 	0.56798 0.87208 0.90484 -0.37700
H 	H 	0.38996 0.69993 0.90686 0.14800
O 	O 	0.37988 0.85125 0.91258 -0.38200
O 	O 	0.54479 0.71494 0.91128 -0.37000
C 	C 	0.56909 0.81002 0.91437 0.27900
H 	H 	0.38406 0.39040 0.92183 0.04000
H 	H 	0.70665 0.00037 0.92176 0.04100
C 	C 	0.60240 0.84866 0.92839 -0.06900
C 	C 	0.67325 0.95076 0.93051 -0.01900
H 	H 	0.35784 0.92750 0.93518 0.04700
H 	H 	0.40142 0.27183 0.93684 0.03700
H 	H 	0.50621 0.70500 0.93810 0.03700
H 	H 	0.81543 0.13695 0.93712 0.03400
C 	C 	0.56082 0.78405 0.93967 0.00200
C 	C 	0.70358 0.98817 0.94388 0.01000
H 	H 	0.96623 0.06778 0.93947 0.02800
C 	C 	0.78145 0.08747 0.94585 -0.04600
C 	C 	0.58959 0.82048 0.95302 -0.05000
H 	H 	0.38758 0.99947 0.95813 0.03900
C 	C 	0.65899 0.92389 0.95534 0.00200
C 	C 	0.81980 0.12148 0.95894 -0.04000
H 	H 	0.88380 0.19614 0.96015 0.03700
C 	C 	0.98540 0.02064 0.95941 -0.02500
H 	H 	0.56135 0.76681 0.96138 0.04200
H 	H 	0.90762 0.98157 0.96170 0.05000
C 	C 	0.77789 0.05854 0.97037 0.00300
C 	C 	0.69215 0.96276 0.96880 0.00900
H 	H 	0.33956 0.98731 0.98229 0.04200
C 	C 	0.64341 0.90795 0.98071 -0.05600
H 	H 	0.56875 0.84557 0.98025 0.04300
O 	O 	0.93752 0.95147 0.98776 -0.37700
C 	C 	0.82380 0.08759 0.98326 -0.00900
H 	H 	0.89326 0.15768 0.98425 0.04600
H 	H 	0.98053 0.59772 0.99329 0.03800
C 	C 	0.69076 0.93610 0.99344 0.00400
C 	C 	0.78514 0.02121 0.99450 -0.08100
O 	O 	0.95585 0.78415 0.99862 -0.37900
