data_crystal

_cell_length_a 48.25468
_cell_length_b 45.02719
_cell_length_c 26.22447
_cell_angle_alpha 94.24004
_cell_angle_beta  93.33794
_cell_angle_gamma 90.10549

_symmetry_space_group_name_	'P 1'
_symmetry_space_group_name_H-M	'P 1'

loop_
_symmetry_equiv_pos_as_xyz
  x,y,z

loop_
_atom_site_label
_atom_site_type_symbol
_atom_site_fract_x
_atom_site_fract_y
_atom_site_fract_z
_atom_site_charge
C 	C 	0.03115 0.67191 0.87496 0.15600
N 	N 	0.03907 0.67772 0.82775 -0.09700
C 	C 	0.03965 0.65537 0.79007 0.15500
N 	N 	0.03337 0.62712 0.80013 -0.14000
C 	C 	0.02635 0.62109 0.84764 0.15100
N 	N 	0.02559 0.64344 0.88521 -0.12500
C 	C 	0.03676 0.65449 0.33366 0.15900
N 	N 	0.04022 0.65900 0.38550 -0.09700
C 	C 	0.05192 0.63761 0.41347 0.15600
N 	N 	0.05811 0.61079 0.39011 -0.14100
C 	C 	0.05343 0.60553 0.33870 0.14900
N 	N 	0.04324 0.62759 0.31038 -0.12500
Cd	Cd	0.84979 0.98172 0.81076 1.18200
C 	C 	0.80921 0.02715 0.74750 0.32700
O 	O 	0.79285 0.02553 0.70593 -0.24200
O 	O 	0.81288 0.00223 0.76863 -0.52200
O 	O 	0.80680 0.04508 0.38785 -0.40500
C 	C 	0.80824 0.07230 0.40875 0.31000
O 	O 	0.80132 0.07584 0.45614 -0.27100
Cd	Cd	0.91415 0.14086 0.23573 1.25400
Cd	Cd	0.91379 0.12004 0.36475 1.17900
O 	O 	0.91969 0.19401 0.22356 -0.22200
O 	O 	0.92093 0.16036 0.15881 -0.25600
C 	C 	0.92315 0.18837 0.17508 0.26600
O 	O 	0.91548 0.09091 0.22827 -0.33100
O 	O 	0.89696 0.08470 0.30562 -0.43700
C 	C 	0.90988 0.07378 0.26541 0.31400
C 	C 	0.96503 0.13883 0.29619 0.32600
O 	O 	0.88620 0.15137 0.31750 -0.41200
O 	O 	0.96974 0.14078 0.24809 -0.18100
O 	O 	0.93931 0.14119 0.30707 -0.51000
C 	C 	0.86350 0.14407 0.29014 0.32300
O 	O 	0.86615 0.13917 0.24088 -0.30400
Cd	Cd	0.92677 0.11649 0.91041 1.25600
Cd	Cd	0.91456 0.07565 0.79018 1.18600
O 	O 	0.92614 0.17107 0.91197 -0.24700
O 	O 	0.93160 0.14803 0.98269 -0.23800
C 	C 	0.93070 0.17324 0.96137 0.26900
O 	O 	0.92312 0.06902 0.92983 -0.33100
O 	O 	0.93482 0.04881 0.85094 -0.43700
C 	C 	0.92586 0.04561 0.89683 0.31200
C 	C 	0.87160 0.11063 0.86663 0.33600
O 	O 	0.94835 0.11058 0.82020 -0.40100
O 	O 	0.87154 0.12061 0.91467 -0.24100
O 	O 	0.89579 0.10880 0.84778 -0.52100
C 	C 	0.97214 0.10565 0.84426 0.32600
O 	O 	0.97254 0.10864 0.89407 -0.26900
C 	C 	0.98971 0.35403 0.86101 0.15800
N 	N 	0.99763 0.34439 0.81368 -0.10400
C 	C 	0.00490 0.36439 0.78041 0.15400
N 	N 	0.00494 0.39392 0.79500 -0.14100
C 	C 	0.99701 0.40360 0.84216 0.15100
N 	N 	0.98959 0.38364 0.87529 -0.11600
C 	C 	0.02901 0.33918 0.32343 0.16500
N 	N 	0.02771 0.36788 0.31093 -0.09600
C 	C 	0.03293 0.39051 0.34737 0.15300
N 	N 	0.03792 0.38448 0.39708 -0.14100
C 	C 	0.03859 0.35582 0.41012 0.14900
N 	N 	0.03486 0.33324 0.37299 -0.12600
Cd	Cd	0.03342 0.95900 0.69177 1.25100
Cd	Cd	0.99270 0.96716 0.80096 1.18800
O 	O 	0.08311 0.95040 0.70964 -0.23000
O 	O 	0.06548 0.95183 0.63111 -0.28300
C 	C 	0.08772 0.95005 0.66135 0.29600
O 	O 	0.98924 0.95869 0.65862 -0.33200
O 	O 	0.97205 0.98349 0.72963 -0.42800
C 	C 	0.96789 0.96799 0.68515 0.31100
C 	C 	0.01961 0.90776 0.74267 0.32300
O 	O 	0.02973 0.99457 0.77587 -0.40400
O 	O 	0.02941 0.89992 0.69824 -0.21700
O 	O 	0.02071 0.93601 0.75595 -0.52100
C 	C 	0.02876 0.01668 0.74628 0.32600
O 	O 	0.03320 0.01006 0.69833 -0.31800
Cd	Cd	0.04053 0.04023 0.50946 1.25100
Cd	Cd	0.99604 0.02987 0.39571 1.18200
O 	O 	0.08886 0.05192 0.49486 -0.22700
O 	O 	0.07494 0.05025 0.57275 -0.27700
C 	C 	0.09544 0.05418 0.54363 0.29000
O 	O 	0.99750 0.03808 0.53828 -0.33200
O 	O 	0.97866 0.01265 0.46525 -0.43100
C 	C 	0.97550 0.02821 0.50912 0.30800
C 	C 	0.02248 0.09061 0.45732 0.32200
O 	O 	0.03366 0.09901 0.50270 -0.21500
O 	O 	0.02421 0.06245 0.44417 -0.52300
C 	C 	0.25947 0.01010 0.82728 0.15800
N 	N 	0.28633 0.00772 0.81455 -0.10200
C 	C 	0.30728 0.01311 0.85098 0.15100
N 	N 	0.30142 0.01831 0.90083 -0.14000
C 	C 	0.27466 0.01931 0.91410 0.14800
N 	N 	0.25371 0.01631 0.87713 -0.12200
C 	C 	0.26224 0.04278 0.38040 0.15800
N 	N 	0.28822 0.05269 0.39582 -0.09900
C 	C 	0.30803 0.05381 0.36136 0.15300
N 	N 	0.30136 0.04711 0.31083 -0.14200
C 	C 	0.27525 0.03797 0.29492 0.14700
N 	N 	0.25573 0.03562 0.32975 -0.12100
C 	C 	0.26850 0.02269 0.96874 -0.04000
C 	C 	0.25472 0.99989 0.99226 0.12400
C 	C 	0.25097 0.00322 0.04511 -0.07900
C 	C 	0.26236 0.02770 0.07540 0.00300
C 	C 	0.27596 0.05057 0.05189 0.08400
C 	C 	0.27842 0.04803 0.99862 -0.04300
N 	N 	0.24608 0.97432 0.96495 -0.19700
H 	H 	0.24045 0.98584 0.06321 0.08400
C 	C 	0.26270 0.02741 0.13201 -0.00000
N 	N 	0.28698 0.07477 0.08017 -0.19300
H 	H 	0.28881 0.06550 0.98055 0.06900
C 	C 	0.28242 0.00991 0.15707 -0.08000
C 	C 	0.28468 0.01057 0.21074 0.11800
C 	C 	0.26822 0.03067 0.23983 -0.03700
C 	C 	0.24725 0.04672 0.21488 -0.04500
C 	C 	0.24398 0.04487 0.16107 0.09300
H 	H 	0.29598 0.99563 0.13470 0.06900
N 	N 	0.30209 0.99136 0.23406 -0.19800
H 	H 	0.23404 0.06142 0.23725 0.07900
N 	N 	0.22318 0.06016 0.13769 -0.19400
H 	H 	0.31527 0.97770 0.21258 0.11000
H 	H 	0.30152 0.98856 0.27315 0.12000
H 	H 	0.20989 0.07355 0.15942 0.12800
H 	H 	0.21962 0.05845 0.09793 0.12300
H 	H 	0.29701 0.09147 0.06243 0.10800
H 	H 	0.28578 0.07731 0.11985 0.10400
H 	H 	0.25140 0.96939 0.92730 0.12200
H 	H 	0.23492 0.95829 0.98224 0.13100
C 	C 	0.22678 0.03476 0.50451 0.04700
C 	C 	0.19968 0.04356 0.49094 0.09000
C 	C 	0.19284 0.05132 0.44020 -0.09800
C 	C 	0.21388 0.05164 0.40529 0.05400
C 	C 	0.24061 0.04132 0.41812 0.05300
C 	C 	0.24649 0.03058 0.46721 -0.07900
C 	C 	0.17835 0.04390 0.52960 0.09900
C 	C 	0.16351 0.06043 0.42369 0.78600
H 	H 	0.20954 0.06013 0.36807 0.09300
C 	C 	0.27329 0.01438 0.48009 0.78400
H 	H 	0.23220 0.03001 0.54376 0.13500
C 	C 	0.16275 0.01794 0.53611 -0.09700
C 	C 	0.13550 0.02114 0.55199 0.07900
C 	C 	0.12437 0.04961 0.56161 0.03700
C 	C 	0.14263 0.07428 0.56901 -0.03900
C 	C 	0.16966 0.07133 0.55193 0.05900
C 	C 	0.17430 0.98721 0.52280 0.78800
H 	H 	0.12183 0.00192 0.55009 0.08700
C 	C 	0.13227 0.10456 0.58787 0.78300
H 	H 	0.18271 0.09088 0.55092 0.12000
F 	F 	0.27010 0.99636 0.51995 -0.38800
F 	F 	0.29413 0.03488 0.49484 -0.42500
F 	F 	0.28113 0.99628 0.43847 -0.42400
F 	F 	0.15754 0.08785 0.44765 -0.41100
F 	F 	0.14445 0.03958 0.43615 -0.40500
F 	F 	0.16041 0.06262 0.37128 -0.40800
F 	F 	0.11197 0.10178 0.62241 -0.37800
F 	F 	0.12132 0.11911 0.54673 -0.39000
F 	F 	0.15376 0.12155 0.61225 -0.38400
F 	F 	0.15657 0.96495 0.53500 -0.40500
F 	F 	0.19940 0.98390 0.54995 -0.41500
F 	F 	0.17822 0.98349 0.47090 -0.38900
C 	C 	0.16369 0.95076 0.65594 0.05800
C 	C 	0.16831 0.97940 0.67986 0.10000
C 	C 	0.14714 0.00102 0.67611 -0.10500
C 	C 	0.12023 0.99166 0.65848 0.07300
C 	C 	0.11442 0.96134 0.64673 0.02300
C 	C 	0.13664 0.94154 0.63883 -0.04100
C 	C 	0.19274 0.98475 0.71644 0.09200
C 	C 	0.15270 0.03341 0.69426 0.78600
H 	H 	0.10317 0.00727 0.65981 0.08600
C 	C 	0.13126 0.90972 0.61795 0.78300
H 	H 	0.18054 0.93488 0.65527 0.13000
C 	C 	0.19261 0.97566 0.76712 -0.09600
C 	C 	0.21532 0.98316 0.80175 0.05700
C 	C 	0.23658 0.00195 0.78853 0.05400
C 	C 	0.23575 0.01239 0.73863 -0.07600
C 	C 	0.21535 0.00102 0.70181 0.04900
C 	C 	0.16885 0.95708 0.78388 0.78600
H 	H 	0.21646 0.97453 0.83929 0.08900
C 	C 	0.25574 0.03619 0.72476 0.78500
H 	H 	0.21608 0.00641 0.66230 0.13400
F 	F 	0.15428 0.89803 0.59470 -0.37700
F 	F 	0.10912 0.90834 0.58181 -0.38900
F 	F 	0.12524 0.89260 0.65759 -0.38500
F 	F 	0.17421 0.04439 0.66841 -0.41700
F 	F 	0.15976 0.03585 0.74628 -0.39300
F 	F 	0.12967 0.05099 0.68542 -0.39700
F 	F 	0.24574 0.04977 0.68175 -0.39500
F 	F 	0.28105 0.02346 0.71449 -0.42800
F 	F 	0.25933 0.05818 0.76435 -0.42900
F 	F 	0.17121 0.95358 0.83597 -0.40900
F 	F 	0.16889 0.92911 0.75832 -0.40800
F 	F 	0.14368 0.97064 0.77344 -0.40300
C 	C 	0.00923 0.35449 0.72665 -0.03300
C 	C 	0.98997 0.36197 0.68694 0.12800
C 	C 	0.99743 0.35864 0.63592 -0.08200
C 	C 	0.02297 0.34603 0.62362 0.00300
C 	C 	0.04117 0.33594 0.66301 0.08900
C 	C 	0.03430 0.34080 0.71436 -0.04200
N 	N 	0.96416 0.37188 0.69752 -0.20000
H 	H 	0.98321 0.36562 0.60560 0.07400
C 	C 	0.03071 0.34440 0.56947 -0.00300
N 	N 	0.06502 0.32144 0.65186 -0.19300
H 	H 	0.04876 0.33444 0.74481 0.07500
C 	C 	0.05040 0.36457 0.55470 -0.08000
C 	C 	0.05560 0.36617 0.50279 0.11500
C 	C 	0.03889 0.34936 0.46482 -0.03900
C 	C 	0.02028 0.32805 0.47979 -0.04600
C 	C 	0.01664 0.32482 0.53184 0.09500
H 	H 	0.06188 0.37886 0.58370 0.06600
N 	N 	0.07729 0.38284 0.48985 -0.19800
H 	H 	0.00812 0.31436 0.45088 0.08200
N 	N 	0.99972 0.30290 0.54542 -0.19400
H 	H 	0.08853 0.39648 0.51774 0.10600
H 	H 	0.08437 0.38084 0.45289 0.11800
H 	H 	0.98863 0.28921 0.51738 0.13300
H 	H 	0.99823 0.29847 0.58369 0.12500
H 	H 	0.07867 0.31480 0.68124 0.12100
H 	H 	0.06985 0.31580 0.61409 0.11700
H 	H 	0.95696 0.37153 0.73425 0.15000
H 	H 	0.95050 0.37868 0.66830 0.12200
C 	C 	0.01817 0.07978 0.84372 0.10500
C 	C 	0.99623 0.09373 0.81688 -0.08900
C 	C 	0.99506 0.09106 0.76292 0.08500
C 	C 	0.00976 0.06801 0.73756 0.11100
C 	C 	0.02491 0.04777 0.76683 -0.10100
C 	C 	0.03214 0.05605 0.81874 0.10100
Br	Br	0.06278 0.03703 0.85358 -0.08000
Br	Br	0.03225 0.09643 0.91008 -0.02400
Br	Br	0.01247 0.06708 0.66436 -0.10900
Br	Br	0.97678 0.12105 0.72448 -0.12300
C 	C 	0.94918 0.29157 0.91152 0.04600
C 	C 	0.96421 0.28774 0.95801 0.09000
C 	C 	0.98572 0.30816 0.97551 -0.09700
C 	C 	0.99392 0.32961 0.94290 0.05200
C 	C 	0.97949 0.33261 0.89556 0.05200
C 	C 	0.95549 0.31505 0.88169 -0.08400
C 	C 	0.96037 0.25961 0.98293 0.10000
C 	C 	0.00154 0.30575 0.02681 0.78700
H 	H 	0.01190 0.34362 0.95389 0.09300
C 	C 	0.93726 0.32029 0.83403 0.78300
H 	H 	0.93315 0.27556 0.89777 0.12100
C 	C 	0.93479 0.25306 0.00379 -0.11300
C 	C 	0.92678 0.22310 0.00538 0.06500
C 	C 	0.94394 0.20021 0.98678 0.03400
C 	C 	0.97182 0.20689 0.97766 -0.06200
C 	C 	0.97960 0.23673 0.97469 0.03000
C 	C 	0.91449 0.27755 0.01794 0.79000
H 	H 	0.90600 0.21772 0.01553 0.09500
C 	C 	0.99197 0.18243 0.96246 0.78100
H 	H 	0.99956 0.24189 0.96042 0.12700
F 	F 	0.91130 0.30740 0.83599 -0.39500
F 	F 	0.94954 0.30790 0.79118 -0.42900
F 	F 	0.93342 0.35045 0.82943 -0.43100
F 	F 	0.02306 0.28579 0.02101 -0.41400
F 	F 	0.98443 0.29627 0.06296 -0.39500
F 	F 	0.01253 0.33313 0.04535 -0.39500
F 	F 	0.98869 0.17533 0.91025 -0.42600
F 	F 	0.98755 0.15718 0.98791 -0.38200
F 	F 	0.01908 0.19173 0.97449 -0.38000
F 	F 	0.89669 0.26844 0.05332 -0.39700
F 	F 	0.89884 0.28454 0.97467 -0.40400
F 	F 	0.92832 0.30283 0.03922 -0.36600
C 	C 	0.01113 0.11918 0.32749 0.09400
C 	C 	0.98758 0.13693 0.33649 -0.10300
C 	C 	0.98326 0.14825 0.38696 0.06300
C 	C 	0.99713 0.13533 0.42836 0.08600
C 	C 	0.01603 0.11209 0.41866 -0.11900
C 	C 	0.02549 0.10682 0.36898 0.08100
Br	Br	0.05893 0.08429 0.35859 -0.10500
Br	Br	0.02522 0.11395 0.26007 -0.05000
Br	Br	0.99106 0.15014 0.49758 -0.12900
Br	Br	0.96016 0.18268 0.39889 -0.14300
C 	C 	0.98455 0.22950 0.15191 0.05600
C 	C 	0.97467 0.25685 0.17219 0.09700
C 	C 	0.94621 0.26344 0.16378 -0.07900
C 	C 	0.92745 0.23971 0.15077 0.07900
C 	C 	0.93736 0.21037 0.14655 0.03500
C 	C 	0.96569 0.20621 0.13683 -0.07500
C 	C 	0.99218 0.27465 0.21162 0.09700
C 	C 	0.93565 0.29487 0.17383 0.79200
H 	H 	0.90532 0.24348 0.15196 0.11900
C 	C 	0.97629 0.17652 0.11585 0.78500
H 	H 	0.00669 0.22536 0.15309 0.12100
C 	C 	0.98986 0.27117 0.26453 -0.10000
C 	C 	0.00212 0.29256 0.30058 0.06200
C 	C 	0.01959 0.31479 0.28526 0.05200
C 	C 	0.02614 0.31447 0.23309 -0.07600
C 	C 	0.01094 0.29560 0.19637 0.04500
C 	C 	0.97401 0.24510 0.28276 0.78600
H 	H 	0.99754 0.29240 0.34052 0.09000
C 	C 	0.04895 0.33410 0.21605 0.78200
H 	H 	0.01364 0.29727 0.15594 0.15300
F 	F 	0.98314 0.15899 0.15565 -0.40000
F 	F 	0.99971 0.18046 0.08902 -0.38000
F 	F 	0.95640 0.16204 0.08293 -0.40600
F 	F 	0.95331 0.31499 0.15468 -0.37400
F 	F 	0.93423 0.30151 0.22592 -0.39500
F 	F 	0.90949 0.29816 0.15048 -0.36400
F 	F 	0.05968 0.32166 0.17157 -0.39300
F 	F 	0.07063 0.33743 0.25300 -0.43000
F 	F 	0.03827 0.36176 0.20657 -0.41500
F 	F 	0.97889 0.24289 0.33488 -0.41900
F 	F 	0.98222 0.21861 0.25825 -0.42700
F 	F 	0.94584 0.24880 0.27297 -0.40500
H 	H 	0.41888 0.11303 0.34581 0.06600
C 	C 	0.39403 0.07225 0.39846 0.00300
C 	C 	0.38560 0.04388 0.37753 -0.08200
C 	C 	0.35735 0.03656 0.36992 0.12700
C 	C 	0.33725 0.05882 0.37920 -0.03000
C 	C 	0.34553 0.08677 0.40221 -0.03900
C 	C 	0.37381 0.09346 0.41322 0.08800
H 	H 	0.40109 0.02739 0.36749 0.07400
N 	N 	0.34964 0.00801 0.35502 -0.19900
H 	H 	0.33000 0.10346 0.41102 0.07600
N 	N 	0.38135 0.12000 0.43843 -0.19300
H 	H 	0.36456 0.99206 0.34554 0.11800
H 	H 	0.32904 0.00099 0.35569 0.13700
H 	H 	0.36635 0.13591 0.44767 0.11600
H 	H 	0.45739 0.13810 0.31363 0.10700
C 	C 	0.43561 0.04323 0.84135 -0.08100
C 	C 	0.42340 0.01806 0.81435 -0.00200
N 	N 	0.47602 0.07200 0.86939 -0.19900
H 	H 	0.42257 0.06007 0.85930 0.06800
C 	C 	0.39322 0.01290 0.81730 0.00400
C 	C 	0.37459 0.03134 0.79161 -0.08300
C 	C 	0.34657 0.03251 0.80322 0.13800
C 	C 	0.33641 0.01235 0.83685 -0.04000
C 	C 	0.35464 0.99226 0.85945 -0.04200
C 	C 	0.38312 0.99292 0.85135 0.08200
H 	H 	0.38238 0.04654 0.76552 0.08100
N 	N 	0.33005 0.05409 0.78445 -0.19500
H 	H 	0.34678 0.97673 0.88492 0.06500
N 	N 	0.40064 0.97483 0.87712 -0.19300
H 	H 	0.33722 0.06765 0.75728 0.14300
H 	H 	0.31081 0.05898 0.79905 0.16700
H 	H 	0.39289 0.96004 0.90180 0.10700
H 	H 	0.42205 0.97542 0.87361 0.10400
H 	H 	0.46348 0.08857 0.88577 0.10900
C 	C 	0.80632 0.09486 0.32380 0.09300
C 	C 	0.81198 0.09808 0.37749 -0.08800
C 	C 	0.82463 0.12480 0.39948 0.08800
C 	C 	0.83607 0.14459 0.36735 0.08400
C 	C 	0.83812 0.13588 0.31516 -0.10600
C 	C 	0.81993 0.11359 0.29229 0.10800
Br	Br	0.80993 0.11217 0.21992 -0.09100
Br	Br	0.84783 0.18396 0.39380 -0.12300
Br	Br	0.82655 0.13459 0.47251 -0.09500
C 	C 	0.90470 0.05607 0.53721 0.09800
C 	C 	0.94780 0.02822 0.53059 -0.09700
C 	C 	0.93399 0.05538 0.54069 0.08200
Br	Br	0.95500 0.09132 0.55881 -0.15900
Br	Br	0.88535 0.09301 0.54953 -0.15100
C 	C 	0.89445 0.99151 0.66176 0.08000
C 	C 	0.88159 0.96360 0.66312 -0.10000
C 	C 	0.92595 0.93963 0.64824 0.08400
C 	C 	0.93952 0.96720 0.66030 -0.09800
C 	C 	0.92356 0.99345 0.66161 0.09400
Br	Br	0.94164 0.03184 0.66744 -0.23500
Br	Br	0.87233 0.02690 0.66355 -0.24600
C 	C 	0.82836 0.07905 0.75294 0.09000
C 	C 	0.81562 0.05591 0.77649 -0.12400
C 	C 	0.81214 0.05924 0.82961 0.08600
C 	C 	0.82697 0.08169 0.85990 0.10300
C 	C 	0.84633 0.09923 0.83702 -0.12400
C 	C 	0.84441 0.10045 0.78339 0.06900
Br	Br	0.86284 0.13193 0.75229 -0.16400
Br	Br	0.82094 0.08370 0.68096 -0.09500
Br	Br	0.81814 0.09076 0.93011 -0.08700
Br	Br	0.78562 0.03475 0.85979 -0.13200
C 	C 	0.65670 0.03725 0.67463 0.79600
H 	H 	0.70853 0.01529 0.66174 0.09100
F 	F 	0.66074 0.05707 0.71724 -0.39500
F 	F 	0.62872 0.03580 0.65982 -0.35000
F 	F 	0.67057 0.04803 0.63507 -0.38600
C 	C 	0.03457 0.42140 0.33254 -0.02700
C 	C 	0.01898 0.44445 0.35669 0.11500
C 	C 	0.02392 0.47409 0.34644 -0.07700
C 	C 	0.04261 0.48088 0.30989 -0.00300
C 	C 	0.05644 0.45760 0.28261 0.09700
C 	C 	0.05272 0.42810 0.29501 -0.04400
N 	N 	0.99871 0.43824 0.38833 -0.19700
H 	H 	0.01294 0.49195 0.36655 0.06900
C 	C 	0.04874 0.51254 0.30298 -0.00000
N 	N 	0.07301 0.46335 0.24424 -0.19400
H 	H 	0.06416 0.41034 0.27567 0.11300
C 	C 	0.07366 0.52516 0.32482 -0.08200
C 	C 	0.07734 0.55618 0.32960 0.11700
C 	C 	0.05501 0.57476 0.31546 -0.04000
C 	C 	0.03154 0.56211 0.28792 -0.04500
C 	C 	0.02839 0.53103 0.28086 0.09000
H 	H 	0.08989 0.51087 0.33936 0.06900
N 	N 	0.10226 0.56803 0.34756 -0.19900
H 	H 	0.01498 0.57637 0.27458 0.08000
N 	N 	0.00579 0.51911 0.25329 -0.19400
H 	H 	0.11833 0.55429 0.36001 0.11000
H 	H 	0.10632 0.59080 0.34698 0.12100
H 	H 	0.99034 0.53289 0.23862 0.12600
H 	H 	0.00387 0.49616 0.24454 0.12100
H 	H 	0.08373 0.44611 0.22524 0.13000
H 	H 	0.07475 0.48473 0.23178 0.11400
H 	H 	0.99202 0.41644 0.39155 0.11900
H 	H 	0.98827 0.45548 0.40790 0.11000
C 	C 	0.02109 0.59009 0.85890 -0.04500
C 	C 	0.99535 0.58122 0.87662 0.12800
C 	C 	0.99094 0.55117 0.88484 -0.08300
C 	C 	0.01073 0.52959 0.87173 0.00400
C 	C 	0.03644 0.53846 0.85399 0.08000
C 	C 	0.04159 0.56874 0.84913 -0.04300
N 	N 	0.97441 0.60107 0.88363 -0.20000
H 	H 	0.97133 0.54428 0.89854 0.08200
C 	C 	0.00289 0.49774 0.87055 0.00100
N 	N 	0.05602 0.51804 0.84066 -0.19300
H 	H 	0.06137 0.57564 0.83607 0.06300
C 	C 	0.98547 0.48549 0.82972 -0.08100
C 	C 	0.98064 0.45471 0.82335 0.12200
C 	C 	0.99513 0.43577 0.85624 -0.03900
C 	C 	0.01057 0.44816 0.89965 -0.04400
C 	C 	0.01404 0.47916 0.90782 0.08900
H 	H 	0.97583 0.49995 0.80262 0.07100
N 	N 	0.96164 0.44353 0.78655 -0.19900
H 	H 	0.02068 0.43365 0.92614 0.07700
N 	N 	0.02846 0.49087 0.95076 -0.19400
H 	H 	0.95211 0.45742 0.76061 0.11300
H 	H 	0.95493 0.42142 0.78534 0.12800
H 	H 	0.03738 0.47693 0.97725 0.11700
H 	H 	0.03028 0.51386 0.95898 0.11400
H 	H 	0.07499 0.52491 0.82802 0.10400
H 	H 	0.05261 0.49524 0.84204 0.10200
H 	H 	0.97555 0.62265 0.87187 0.14300
H 	H 	0.95599 0.59451 0.89876 0.13200
C 	C 	0.04598 0.66179 0.73778 -0.03600
C 	C 	0.02501 0.67158 0.70290 0.13900
C 	C 	0.03027 0.67196 0.65090 -0.07900
C 	C 	0.05516 0.66068 0.63268 0.00700
C 	C 	0.07679 0.65280 0.66787 0.08500
C 	C 	0.07204 0.65378 0.72029 -0.04200
N 	N 	0.99949 0.67942 0.71861 -0.19900
H 	H 	0.01408 0.67885 0.62392 0.08900
C 	C 	0.05665 0.65314 0.57701 0.00600
N 	N 	0.10186 0.64369 0.65154 -0.19300
H 	H 	0.08824 0.64687 0.74724 0.06900
C 	C 	0.06933 0.67322 0.54711 -0.08100
C 	C 	0.07001 0.66724 0.49388 0.14500
C 	C 	0.05523 0.64234 0.46975 -0.04100
C 	C 	0.04282 0.62210 0.49971 -0.04000
C 	C 	0.04399 0.62684 0.55326 0.08200
H 	H 	0.07945 0.69305 0.56550 0.09100
N 	N 	0.08594 0.68452 0.46668 -0.19300
H 	H 	0.03208 0.60264 0.48127 0.06400
N 	N 	0.03297 0.60610 0.58158 -0.19200
H 	H 	0.09550 0.70381 0.48416 0.15300
H 	H 	0.09046 0.67796 0.42908 0.16400
H 	H 	0.02302 0.58717 0.56360 0.10300
H 	H 	0.03481 0.60808 0.62154 0.10000
H 	H 	0.11748 0.63728 0.67771 0.11100
H 	H 	0.10627 0.64331 0.61301 0.10700
H 	H 	0.99413 0.67716 0.75603 0.17400
H 	H 	0.98437 0.68719 0.69276 0.14200
C 	C 	0.94849 0.96751 0.92129 0.07400
C 	C 	0.92261 0.95358 0.92504 -0.11200
C 	C 	0.89850 0.97103 0.92893 0.07700
C 	C 	0.89981 0.00186 0.92326 0.06400
C 	C 	0.92536 0.01541 0.91523 -0.10600
C 	C 	0.94992 0.99851 0.91729 0.08100
Br	Br	0.98545 0.01789 0.91472 -0.21100
Br	Br	0.86646 0.02525 0.92416 -0.26700
Br	Br	0.86384 0.95276 0.94281 -0.19900
Br	Br	0.06105 0.91575 0.84245 -0.09900
C 	C 	0.03436 0.71428 0.00514 -0.08200
C 	C 	0.04019 0.69378 0.96404 0.04600
C 	C 	0.02777 0.69642 0.91479 0.05700
C 	C 	0.00996 0.72077 0.90586 -0.09200
C 	C 	0.04409 0.70747 0.05916 0.78400
H 	H 	0.05325 0.67475 0.97094 0.09600
C 	C 	0.99266 0.72214 0.85577 0.78300
F 	F 	0.97929 0.69520 0.84292 -0.44900
F 	F 	0.00953 0.72876 0.81726 -0.42700
F 	F 	0.02492 0.68891 0.07795 -0.38700
F 	F 	0.06945 0.69315 0.05889 -0.40000
C 	C 	0.93841 0.02751 0.26028 0.07900
C 	C 	0.91216 0.04109 0.25653 -0.10700
Br	Br	0.97162 0.05151 0.26260 -0.25500
C 	C 	0.00433 0.72760 0.30208 0.05200
C 	C 	0.98714 0.71868 0.25874 0.08600
C 	C 	0.99087 0.69030 0.23320 -0.08000
C 	C 	0.00723 0.66920 0.25803 0.05900
C 	C 	0.02344 0.67776 0.30316 0.06200
C 	C 	0.02466 0.70833 0.32081 -0.08600
C 	C 	0.97894 0.68319 0.17884 0.79400
H 	H 	0.00718 0.64621 0.24260 0.09800
C 	C 	0.04836 0.72102 0.35642 0.78400
H 	H 	0.99718 0.76232 0.19851 0.13700
F 	F 	0.04152 0.72002 0.40673 -0.42500
F 	F 	0.05346 0.75040 0.34743 -0.39800
F 	F 	0.07258 0.70534 0.34871 -0.43100
F 	F 	0.98667 0.70517 0.14838 -0.39200
F 	F 	0.95032 0.68178 0.17781 -0.36400
F 	F 	0.98859 0.65627 0.15807 -0.39700
F 	F 	0.93532 0.68963 0.27249 -0.39000
Cd	Cd	0.92033 0.88002 0.29173 1.25400
Cd	Cd	0.91394 0.92733 0.40482 1.18700
O 	O 	0.92238 0.82620 0.30116 -0.25700
O 	O 	0.92184 0.84412 0.22548 -0.24300
C 	C 	0.92382 0.82082 0.25208 0.27300
O 	O 	0.91369 0.92565 0.26380 -0.33300
O 	O 	0.92987 0.95063 0.33937 -0.44100
C 	C 	0.91809 0.95084 0.29273 0.31200
C 	C 	0.86769 0.88616 0.33444 0.33300
O 	O 	0.94725 0.89252 0.38118 -0.40400
O 	O 	0.86501 0.87303 0.28830 -0.23700
O 	O 	0.89296 0.89030 0.35300 -0.52200
C 	C 	0.96929 0.89691 0.35607 0.31300
O 	O 	0.96675 0.89073 0.30674 -0.27700
Cd	Cd	0.92643 0.85625 0.96151 1.25100
Cd	Cd	0.91866 0.86894 0.82875 1.18300
O 	O 	0.93321 0.80498 0.98569 -0.25100
O 	O 	0.93841 0.84312 0.04216 -0.27700
C 	C 	0.94119 0.81453 0.03221 0.29700
O 	O 	0.92807 0.90578 0.96032 -0.33800
O 	O 	0.90546 0.90779 0.88104 -0.43700
C 	C 	0.92042 0.92076 0.92031 0.31700
C 	C 	0.97399 0.85475 0.90176 0.33500
O 	O 	0.89368 0.84078 0.88106 -0.40900
O 	O 	0.98136 0.85627 0.95056 -0.23800
O 	O 	0.94766 0.85130 0.89057 -0.51500
C 	C 	0.87254 0.84967 0.90674 0.32400
O 	O 	0.87815 0.85746 0.95529 -0.29900
Cd	Cd	0.79353 0.96695 0.71800 1.25200
O 	O 	0.74655 0.97505 0.74756 -0.24700
O 	O 	0.75353 0.96372 0.66614 -0.28100
C 	C 	0.73592 0.96970 0.70123 0.28200
O 	O 	0.83173 0.96373 0.67223 -0.33500
O 	O 	0.86076 0.95330 0.74095 -0.43800
C 	C 	0.85708 0.96131 0.69376 0.31600
O 	O 	0.81237 0.94896 0.80712 -0.40500
C 	C 	0.81096 0.92178 0.78606 0.31200
O 	O 	0.79909 0.91856 0.73997 -0.28600
Cd	Cd	0.79669 0.02776 0.47914 1.25400
Cd	Cd	0.84265 0.01101 0.37964 1.18000
O 	O 	0.74659 0.02122 0.45841 -0.24600
O 	O 	0.76305 0.03378 0.53694 -0.27000
C 	C 	0.74137 0.02812 0.50581 0.27100
O 	O 	0.83918 0.02982 0.51942 -0.33400
O 	O 	0.86169 0.03881 0.44739 -0.44500
C 	C 	0.86235 0.03122 0.49499 0.31900
C 	C 	0.80792 0.96717 0.44870 0.33000
O 	O 	0.79576 0.96921 0.49204 -0.24300
O 	O 	0.80968 0.99181 0.42655 -0.52200
C 	C 	0.55812 0.01664 0.83380 0.15800
N 	N 	0.56381 0.01848 0.88535 -0.10100
C 	C 	0.54291 0.02194 0.91771 0.15300
N 	N 	0.51624 0.02234 0.89849 -0.14200
C 	C 	0.51040 0.02052 0.84714 0.14900
N 	N 	0.53134 0.01766 0.81475 -0.12200
C 	C 	0.55522 0.06290 0.37903 0.15900
N 	N 	0.55872 0.06242 0.32798 -0.10400
C 	C 	0.53722 0.06897 0.29509 0.15700
N 	N 	0.51216 0.07611 0.31346 -0.14000
C 	C 	0.50877 0.07759 0.36466 0.15100
N 	N 	0.53034 0.07087 0.39737 -0.12300
O 	O 	0.03515 0.00475 0.42477 -0.40800
C 	C 	0.03615 0.98244 0.45390 0.32900
O 	O 	0.04224 0.98905 0.50244 -0.31400
C 	C 	0.48087 0.08290 0.38404 -0.03700
C 	C 	0.46211 0.10261 0.36058 0.11400
C 	C 	0.43361 0.09991 0.36732 -0.08000
C 	C 	0.42397 0.08004 0.40115 -0.00300
C 	C 	0.44331 0.06439 0.43154 0.09300
C 	C 	0.47157 0.06522 0.42162 -0.04500
N 	N 	0.47142 0.12466 0.33312 -0.19800
N 	N 	0.43485 0.04849 0.46998 -0.19500
H 	H 	0.48611 0.05130 0.44187 0.08900
H 	H 	0.40196 0.12463 0.45082 0.11100
H 	H 	0.44907 0.03602 0.49097 0.12600
H 	H 	0.41435 0.04938 0.48077 0.12000
H 	H 	0.49253 0.12995 0.33376 0.11300
C 	C 	0.48146 0.02313 0.82696 -0.04000
C 	C 	0.46455 0.04645 0.84635 0.11800
C 	C 	0.44030 0.99722 0.78770 0.09000
C 	C 	0.46933 0.99961 0.79518 -0.04600
N 	N 	0.42884 0.97464 0.75604 -0.19400
H 	H 	0.48239 0.98242 0.77826 0.07700
H 	H 	0.44145 0.95878 0.73786 0.12300
H 	H 	0.40741 0.97310 0.74801 0.12000
H 	H 	0.49729 0.07624 0.86898 0.12500
C 	C 	0.54919 0.03086 0.97228 -0.03000
C 	C 	0.55956 0.01021 0.00678 0.12900
C 	C 	0.56061 0.01818 0.05970 -0.07700
C 	C 	0.55071 0.04590 0.07852 0.00500
C 	C 	0.54198 0.06716 0.04388 0.08800
C 	C 	0.54168 0.05950 0.99105 -0.03700
N 	N 	0.56792 0.98260 0.98960 -0.19800
H 	H 	0.56793 0.00224 0.08638 0.08700
C 	C 	0.54719 0.05136 0.13414 0.00700
N 	N 	0.53333 0.09468 0.06103 -0.19200
H 	H 	0.53443 0.07551 0.96440 0.07700
C 	C 	0.56756 0.06770 0.16464 -0.07700
C 	C 	0.56356 0.07590 0.21639 0.13200
C 	C 	0.54010 0.06483 0.23923 -0.03500
C 	C 	0.51998 0.04801 0.20886 -0.03700
C 	C 	0.52301 0.04160 0.15632 0.08500
H 	H 	0.58586 0.07546 0.14734 0.08600
N 	N 	0.58147 0.09550 0.24305 -0.19600
H 	H 	0.50197 0.03962 0.22627 0.07100
N 	N 	0.50266 0.02617 0.12746 -0.19200
H 	H 	0.59955 0.10218 0.22688 0.12800
H 	H 	0.57673 0.10585 0.27839 0.12200
H 	H 	0.48500 0.01892 0.14432 0.10500
H 	H 	0.50395 0.02142 0.08812 0.10200
H 	H 	0.52661 0.11006 0.03509 0.11300
H 	H 	0.53331 0.10119 0.10005 0.10600
H 	H 	0.56733 0.97588 0.95061 0.12700
H 	H 	0.57528 0.96746 0.01548 0.12800
Br	Br	0.77749 0.06799 0.29456 -0.10200
C 	C 	0.88953 0.02969 0.52346 -0.10500
C 	C 	0.90324 0.00220 0.52415 0.08100
C 	C 	0.93244 0.00142 0.52797 0.08900
Br	Br	0.95140 0.96380 0.52643 -0.22800
Br	Br	0.88212 0.96578 0.51553 -0.29600
C 	C 	0.67530 0.06945 0.49284 0.04200
C 	C 	0.65633 0.04668 0.49982 0.10800
C 	C 	0.66575 0.02088 0.52341 -0.09400
C 	C 	0.69447 0.01638 0.53143 0.07900
C 	C 	0.71349 0.03786 0.51899 0.02400
C 	C 	0.70371 0.06595 0.50540 -0.05900
C 	C 	0.62805 0.04782 0.47454 0.08800
C 	C 	0.64560 0.99691 0.53589 0.79600
H 	H 	0.70207 0.99526 0.54374 0.09300
C 	C 	0.72379 0.09114 0.49889 0.77800
H 	H 	0.66814 0.08909 0.47461 0.12400
C 	C 	0.60853 0.06956 0.49079 -0.09200
C 	C 	0.58469 0.07414 0.45897 0.05100
C 	C 	0.57855 0.05532 0.41467 0.05100
C 	C 	0.59586 0.03060 0.40338 -0.08300
C 	C 	0.62165 0.02888 0.43052 0.04600
C 	C 	0.61378 0.08935 0.53984 0.78500
H 	H 	0.57123 0.09281 0.46800 0.09300
C 	C 	0.58735 0.00623 0.36230 0.78300
H 	H 	0.63686 0.01283 0.41730 0.12000
F 	F 	0.71036 0.11832 0.50068 -0.38600
F 	F 	0.73559 0.08661 0.45216 -0.42400
F 	F 	0.74453 0.09251 0.53771 -0.40200
F 	F 	0.63964 0.97786 0.49285 -0.39600
F 	F 	0.62120 0.00933 0.55247 -0.35100
F 	F 	0.65694 0.98040 0.57430 -0.38600
F 	F 	0.59490 0.01432 0.31516 -0.42600
F 	F 	0.55901 0.00110 0.36044 -0.41900
F 	F 	0.60038 0.97973 0.37232 -0.38600
F 	F 	0.58903 0.10007 0.55791 -0.39400
F 	F 	0.63022 0.11330 0.53056 -0.40300
F 	F 	0.62676 0.07381 0.57786 -0.34600
C 	C 	0.89685 0.93779 0.65022 0.10000
Br	Br	0.94709 0.90473 0.62965 -0.15200
Br	Br	0.87796 0.90012 0.63729 -0.13800
C 	C 	0.66148 0.95839 0.72072 0.04100
C 	C 	0.65147 0.98704 0.71305 0.10800
C 	C 	0.66756 0.00683 0.68693 -0.09500
C 	C 	0.69498 0.99906 0.67630 0.08500
C 	C 	0.70590 0.97169 0.68953 0.02200
C 	C 	0.68803 0.94996 0.70605 -0.05600
C 	C 	0.62640 0.99752 0.73920 0.08800
C 	C 	0.69825 0.91872 0.71363 0.77800
H 	H 	0.64925 0.94329 0.74074 0.12500
C 	C 	0.59965 0.98573 0.72396 -0.09200
C 	C 	0.57756 0.99208 0.75571 0.05300
C 	C 	0.58092 0.01273 0.79848 0.05300
C 	C 	0.60659 0.02804 0.80849 -0.08200
C 	C 	0.62967 0.01796 0.78218 0.04700
C 	C 	0.59479 0.96488 0.67602 0.78500
H 	H 	0.55788 0.98053 0.74769 0.09200
C 	C 	0.60968 0.05506 0.84666 0.78400
H 	H 	0.65022 0.02630 0.79474 0.12100
F 	F 	0.67625 0.89879 0.71138 -0.38400
F 	F 	0.71242 0.91828 0.76094 -0.41100
F 	F 	0.71579 0.90941 0.67576 -0.39800
F 	F 	0.61575 0.04593 0.89523 -0.42300
F 	F 	0.58566 0.07182 0.84655 -0.41800
F 	F 	0.63104 0.07333 0.83435 -0.38300
F 	F 	0.56710 0.96471 0.65886 -0.39600
F 	F 	0.60219 0.93626 0.68669 -0.40400
F 	F 	0.61011 0.97369 0.63679 -0.34800
Br	Br	0.98179 0.94399 0.91942 -0.28800
C 	C 	0.84227 0.84996 0.82667 0.07800
C 	C 	0.84620 0.85792 0.87946 -0.10200
C 	C 	0.82846 0.87940 0.90175 0.11100
C 	C 	0.81333 0.89826 0.86993 0.09900
C 	C 	0.81683 0.89590 0.81665 -0.09300
C 	C 	0.82925 0.86999 0.79456 0.08900
Br	Br	0.82929 0.86211 0.72128 -0.12000
Br	Br	0.85276 0.81092 0.79949 -0.13300
Br	Br	0.78578 0.92472 0.89806 -0.09000
Br	Br	0.82126 0.87951 0.97329 -0.08200
C 	C 	0.98674 0.84741 0.81089 0.05900
C 	C 	0.99397 0.85814 0.86176 -0.10900
C 	C 	0.01747 0.87688 0.87148 0.10300
C 	C 	0.02826 0.89101 0.83079 0.08700
C 	C 	0.01572 0.88596 0.78096 -0.11900
C 	C 	0.99700 0.86198 0.77021 0.08600
Br	Br	0.98580 0.84881 0.70051 -0.13400
Br	Br	0.96497 0.81145 0.79739 -0.15200
Br	Br	0.03682 0.88040 0.93817 -0.03600
C 	C 	0.00698 0.74304 0.94542 0.04900
C 	C 	0.01693 0.73882 0.99562 0.07700
C 	C 	0.00515 0.75759 0.03768 0.11900
H 	H 	0.99474 0.76263 0.93828 0.10900
C 	C 	0.01196 0.78830 0.04413 -0.10500
C 	C 	0.99080 0.80876 0.05526 0.09300
C 	C 	0.96356 0.79857 0.05878 0.03700
C 	C 	0.95946 0.76855 0.06852 -0.06500
C 	C 	0.98041 0.74790 0.05698 0.03500
C 	C 	0.03977 0.79967 0.02967 0.79600
H 	H 	0.99462 0.83238 0.05337 0.11200
C 	C 	0.93153 0.75775 0.08313 0.77700
H 	H 	0.97589 0.72426 0.05568 0.14600
F 	F 	0.97242 0.74384 0.85941 -0.41500
F 	F 	0.04735 0.73289 0.09194 -0.37300
F 	F 	0.91563 0.74836 0.03933 -0.39800
F 	F 	0.91771 0.78027 0.10985 -0.40600
F 	F 	0.93483 0.73421 0.11395 -0.38000
F 	F 	0.04690 0.82583 0.05856 -0.38000
F 	F 	0.03818 0.80521 0.97842 -0.41900
F 	F 	0.06054 0.77920 0.03819 -0.37600
C 	C 	0.88992 0.99259 0.25999 0.07400
C 	C 	0.91610 0.97957 0.26898 -0.10600
C 	C 	0.94034 0.99661 0.26516 0.08800
C 	C 	0.88801 0.02322 0.25255 0.08200
Br	Br	0.85238 0.04076 0.23722 -0.18200
Br	Br	0.85670 0.96904 0.26173 -0.26100
Br	Br	0.97615 0.97765 0.26805 -0.19400
C 	C 	0.82216 0.91263 0.33881 0.09600
C 	C 	0.84369 0.89673 0.36307 -0.12600
C 	C 	0.84479 0.89606 0.41682 0.07300
C 	C 	0.82889 0.91636 0.44603 0.09600
C 	C 	0.81345 0.93817 0.42128 -0.12600
C 	C 	0.80742 0.93403 0.36800 0.08000
Br	Br	0.77794 0.95623 0.33595 -0.14100
Br	Br	0.81088 0.90297 0.26777 -0.09100
Br	Br	0.82586 0.91219 0.51811 -0.10100
Br	Br	0.86722 0.86684 0.44981 -0.15500
C 	C 	0.01619 0.92111 0.35521 0.10000
C 	C 	0.99589 0.90741 0.38242 -0.08900
C 	C 	0.99892 0.90922 0.43629 0.08900
C 	C 	0.01595 0.93161 0.46192 0.11400
C 	C 	0.02992 0.95158 0.43296 -0.10300
C 	C 	0.03308 0.94368 0.38066 0.09700
Br	Br	0.06190 0.96196 0.34551 -0.08600
Br	Br	0.02414 0.90570 0.28706 -0.03200
Br	Br	0.02276 0.93220 0.53513 -0.10600
Br	Br	0.98299 0.87884 0.47396 -0.10900
C 	C 	0.96670 0.74015 0.23880 0.11300
H 	H 	0.00268 0.75001 0.31982 0.11200
C 	C 	0.93918 0.74096 0.25511 -0.09300
C 	C 	0.92281 0.76611 0.24635 0.08600
C 	C 	0.93494 0.79217 0.23136 0.04100
C 	C 	0.96172 0.79062 0.21153 -0.06300
C 	C 	0.97656 0.76377 0.21278 0.03500
C 	C 	0.92916 0.71833 0.29035 0.79000
H 	H 	0.90176 0.76708 0.25868 0.11000
C 	C 	0.97584 0.81823 0.19497 0.77700
F 	F 	0.98151 0.83809 0.23708 -0.42200
F 	F 	0.95890 0.83170 0.15928 -0.41100
F 	F 	0.00065 0.81142 0.17294 -0.40200
F 	F 	0.90071 0.71982 0.29430 -0.39600
F 	F 	0.94190 0.72408 0.33870 -0.41900
