data_crystal

_cell_length_a 21.60144
_cell_length_b 33.39931
_cell_length_c 31.35685
_cell_angle_alpha 90.81314
_cell_angle_beta  87.39397
_cell_angle_gamma 88.04543

_symmetry_space_group_name_	'P 1'
_symmetry_space_group_name_H-M	'P 1'

loop_
_symmetry_equiv_pos_as_xyz
  x,y,z

loop_
_atom_site_label
_atom_site_type_symbol
_atom_site_fract_x
_atom_site_fract_y
_atom_site_fract_z
_atom_site_charge
Ni	Ni	0.51945 0.55275 0.49834 1.10200
O 	O 	0.57589 0.51216 0.52683 -0.70500
Ni	Ni	0.54385 0.46038 0.50591 1.10100
O 	O 	0.54219 0.59821 0.53805 -0.38200
O 	O 	0.51265 0.56383 0.59731 -0.41000
O 	O 	0.59085 0.57040 0.45796 -0.37000
Ni	Ni	0.57180 0.51305 0.58929 1.07300
O 	O 	0.49872 0.56239 0.40154 -0.39900
O 	O 	0.50144 0.47657 0.61016 -0.38400
O 	O 	0.58915 0.41964 0.54416 -0.36900
O 	O 	0.49454 0.50141 0.47187 -0.70200
O 	O 	0.46221 0.58968 0.46602 -0.37800
O 	O 	0.50978 0.41427 0.47090 -0.35600
O 	O 	0.54476 0.44183 0.40833 -0.39800
Ni	Ni	0.51923 0.50254 0.41153 1.07100
H 	H 	0.61958 0.51439 0.51649 0.16100
H 	H 	0.44916 0.49854 0.47568 0.16200
C 	C 	0.46706 0.45460 0.58597 0.32200
O 	O 	0.60991 0.51125 0.42233 -0.39400
C 	C 	0.52339 0.59813 0.57829 0.29400
C 	C 	0.61881 0.42844 0.57933 0.30100
C 	C 	0.62894 0.54578 0.43570 0.30600
C 	C 	0.51453 0.41373 0.42877 0.28400
C 	C 	0.45689 0.58481 0.42449 0.29600
O 	O 	0.46596 0.46053 0.54492 -0.40300
O 	O 	0.63331 0.46576 0.58849 -0.41600
Ni	Ni	0.97703 0.55966 0.48428 1.10400
O 	O 	0.90628 0.52843 0.46265 -0.71200
Ni	Ni	0.92433 0.47560 0.48850 1.10500
O 	O 	0.94676 0.60754 0.45064 -0.36200
O 	O 	0.95128 0.57647 0.38461 -0.39400
O 	O 	0.91922 0.57970 0.53520 -0.36100
Ni	Ni	0.91287 0.52096 0.40062 1.07200
O 	O 	0.02279 0.56966 0.57448 -0.41900
O 	O 	0.00207 0.49745 0.39892 -0.41100
O 	O 	0.84759 0.45025 0.46704 -0.37500
O 	O 	0.00182 0.50503 0.50545 -0.70900
O 	O 	0.04782 0.59081 0.50733 -0.37500
O 	O 	0.93956 0.42604 0.52468 -0.35200
O 	O 	0.99955 0.44883 0.57699 -0.40000
Ni	Ni	0.00692 0.50997 0.56744 1.06300
H 	H 	0.86496 0.53966 0.47243 0.17200
H 	H 	0.04137 0.49471 0.49163 0.15900
C 	C 	0.01533 0.46247 0.41547 0.29600
O 	O 	0.91400 0.52056 0.57119 -0.43500
C 	C 	0.95733 0.60876 0.40919 0.29300
C 	C 	0.84021 0.44620 0.42571 0.30400
C 	C 	0.89080 0.55642 0.56324 0.30300
C 	C 	0.95273 0.42769 0.56511 0.30700
C 	C 	0.05849 0.59015 0.54816 0.30400
O 	O 	0.97482 0.44542 0.44081 -0.36000
O 	O 	0.87708 0.46444 0.39731 -0.39200
Ni	Ni	0.48079 0.51291 0.06334 1.10000
O 	O 	0.40783 0.53830 0.03350 -0.71100
Ni	Ni	0.41658 0.51241 0.97587 1.10500
O 	O 	0.46205 0.54927 0.11568 -0.37700
O 	O 	0.47264 0.60503 0.07517 -0.39400
O 	O 	0.41928 0.47175 0.08696 -0.38500
Ni	Ni	0.40700 0.59625 0.02910 1.07100
O 	O 	0.59049 0.44560 0.03737 -0.42200
O 	O 	0.47721 0.60292 0.98361 -0.38800
O 	O 	0.34092 0.53917 0.95018 -0.36500
O 	O 	0.49436 0.49110 0.00395 -0.71400
O 	O 	0.55198 0.48545 0.09411 -0.37000
O 	O 	0.42399 0.47104 0.92649 -0.35600
O 	O 	0.43463 0.41942 0.97307 -0.40100
Ni	Ni	0.51300 0.43385 0.00570 1.06700
H 	H 	0.36814 0.53048 0.04749 0.16300
H 	H 	0.53110 0.50408 0.99107 0.16400
C 	C 	0.47976 0.58713 0.94490 0.30500
O 	O 	0.47498 0.41539 0.06274 -0.40300
C 	C 	0.47185 0.58782 0.11292 0.28600
C 	C 	0.33245 0.57872 0.95169 0.29500
C 	C 	0.42766 0.43236 0.08473 0.31500
C 	C 	0.42642 0.43226 0.93401 0.28200
C 	C 	0.58834 0.45547 0.07856 0.31000
O 	O 	0.47211 0.54852 0.93908 -0.38500
O 	O 	0.33581 0.59917 0.98816 -0.40100
Ni	Ni	0.54463 0.95396 0.50901 1.09900
O 	O 	0.49271 0.99562 0.54487 -0.71100
Ni	Ni	0.52085 0.04621 0.51809 1.10700
O 	O 	0.50633 0.90841 0.54327 -0.37100
O 	O 	0.53646 0.93641 0.60537 -0.41400
O 	O 	0.47117 0.95378 0.47030 -0.40300
Ni	Ni	0.51225 0.99709 0.60457 1.06000
O 	O 	0.64919 0.95990 0.43009 -0.41700
O 	O 	0.60317 0.00604 0.58962 -0.41200
O 	O 	0.46194 0.08400 0.55246 -0.37100
O 	O 	0.57948 0.00502 0.48819 -0.69500
O 	O 	0.59341 0.91333 0.46904 -0.36800
O 	O 	0.54052 0.09015 0.47527 -0.37900
O 	O 	0.51670 0.04997 0.41940 -0.39200
Ni	Ni	0.58294 0.00380 0.42589 1.08300
H 	H 	0.44761 0.99284 0.54187 0.16100
H 	H 	0.62196 0.00724 0.49835 0.17100
C 	C 	0.62174 0.04205 0.58176 0.31300
O 	O 	0.52280 0.96158 0.40586 -0.40000
C 	C 	0.50602 0.90890 0.58532 0.29600
C 	C 	0.45339 0.07899 0.59394 0.30100
C 	C 	0.47768 0.94622 0.42927 0.33000
C 	C 	0.52292 0.08614 0.43589 0.28400
C 	C 	0.63685 0.92240 0.43961 0.31500
O 	O 	0.59172 0.06506 0.55516 -0.35900
O 	O 	0.49371 0.05713 0.61519 -0.40600
Ni	Ni	0.00301 0.50833 0.95479 1.10000
O 	O 	0.07649 0.52590 0.98764 -0.70200
Ni	Ni	0.06085 0.49848 0.04321 1.10000
O 	O 	0.00897 0.55496 0.91357 -0.40100
O 	O 	0.00545 0.60180 0.96730 -0.40700
O 	O 	0.06252 0.47472 0.91420 -0.37600
Ni	Ni	0.08626 0.58301 0.99694 1.07700
O 	O 	0.97415 0.42194 0.93260 -0.39100
O 	O 	0.04302 0.59448 0.05555 -0.41000
O 	O 	0.12515 0.52408 0.08040 -0.36600
O 	O 	0.99409 0.47525 0.00715 -0.70000
O 	O 	0.93141 0.48494 0.92404 -0.37300
O 	O 	0.03914 0.45968 0.09118 -0.35900
O 	O 	0.05796 0.40579 0.04633 -0.41400
Ni	Ni	0.01319 0.41982 0.99076 1.06900
H 	H 	0.11588 0.51479 0.97434 0.16700
H 	H 	0.95188 0.47857 0.02069 0.16500
C 	C 	0.99509 0.57576 0.07149 0.34500
O 	O 	0.09783 0.43306 0.96521 -0.41800
C 	C 	0.99351 0.59130 0.92775 0.31100
C 	C 	0.15725 0.55590 0.07000 0.31100
C 	C 	0.10405 0.44840 0.92715 0.31100
C 	C 	0.04099 0.42062 0.08446 0.28800
C 	C 	0.92619 0.44562 0.92364 0.29900
O 	O 	0.99123 0.53671 0.06730 -0.38200
O 	O 	0.16215 0.56838 0.03005 -0.41500
Ni	Ni	0.94247 0.95780 0.51748 1.10200
O 	O 	0.00958 0.99304 0.49108 -0.72000
Ni	Ni	0.98463 0.04609 0.51789 1.10900
O 	O 	0.95228 0.91456 0.47015 -0.36800
O 	O 	0.94398 0.96192 0.41862 -0.40900
O 	O 	0.00795 0.92676 0.55085 -0.38100
Ni	Ni	0.01636 0.99976 0.42952 1.05800
O 	O 	0.91854 0.94173 0.61456 -0.39400
O 	O 	0.96117 0.04930 0.41741 -0.38800
O 	O 	0.03755 0.08536 0.48207 -0.38100
O 	O 	0.92725 0.00872 0.55051 -0.68900
O 	O 	0.87711 0.92575 0.54980 -0.37000
O 	O 	0.95646 0.09128 0.55963 -0.37500
O 	O 	0.98831 0.05608 0.61775 -0.37500
Ni	Ni	0.94960 0.99959 0.60880 1.06200
H 	H 	0.05100 0.98497 0.50087 0.15900
H 	H 	0.88309 0.01757 0.54976 0.16100
C 	C 	0.91254 0.06248 0.44081 0.32900
O 	O 	0.03727 0.97915 0.59186 -0.42200
C 	C 	0.94669 0.92402 0.42983 0.29100
C 	C 	0.07791 0.07534 0.45000 0.30600
C 	C 	0.04860 0.94336 0.57494 0.31000
C 	C 	0.97179 0.09047 0.59983 0.28300
C 	C 	0.87560 0.92396 0.59214 0.28600
O 	O 	0.90934 0.05796 0.48232 -0.39200
O 	O 	0.08704 0.03763 0.43668 -0.39600
Ni	Ni	0.50714 0.04888 0.02993 1.10600
O 	O 	0.44368 0.01234 0.00572 -0.69800
Ni	Ni	0.47970 0.95888 0.02131 1.09700
O 	O 	0.48885 0.09455 0.98896 -0.37700
O 	O 	0.50185 0.05212 0.93152 -0.39900
O 	O 	0.44039 0.07199 0.07352 -0.37200
Ni	Ni	0.43102 0.01294 0.94473 1.08400
O 	O 	0.53670 0.05622 0.12454 -0.40000
O 	O 	0.48865 0.96748 0.91939 -0.39800
O 	O 	0.42886 0.92041 0.98599 -0.35100
O 	O 	0.53399 0.99648 0.05343 -0.71700
O 	O 	0.56980 0.08166 0.05985 -0.38000
O 	O 	0.52115 0.91157 0.05067 -0.36400
O 	O 	0.48960 0.93785 0.11618 -0.41200
Ni	Ni	0.51553 0.99755 0.11433 1.06100
H 	H 	0.40291 0.01644 0.02109 0.16800
H 	H 	0.57880 0.99098 0.04702 0.15900
C 	C 	0.54200 0.95592 0.93449 0.32500
O 	O 	0.42471 0.01327 0.10809 -0.40800
C 	C 	0.50214 0.08864 0.94792 0.28900
C 	C 	0.38671 0.93215 0.95891 0.31300
C 	C 	0.40756 0.05043 0.10056 0.31200
C 	C 	0.51587 0.90828 0.09244 0.28900
C 	C 	0.57709 0.07673 0.10114 0.30200
O 	O 	0.55051 0.95777 0.97563 -0.39500
O 	O 	0.36865 0.97025 0.95688 -0.41900
Ni	Ni	0.04726 0.99360 0.96298 1.08900
O 	O 	0.98241 0.96473 0.99950 -0.69300
Ni	Ni	0.98330 0.99492 0.05491 1.09600
O 	O 	0.03552 0.95471 0.91284 -0.38000
O 	O 	0.06066 0.90141 0.95448 -0.38700
O 	O 	0.97412 0.02997 0.94478 -0.36800
Ni	Ni	0.00401 0.90902 0.01009 1.06200
O 	O 	0.14116 0.06407 0.98011 -0.41300
O 	O 	0.08330 0.92066 0.04047 -0.40700
O 	O 	0.91069 0.96768 0.08419 -0.38300
O 	O 	0.05732 0.01760 0.02139 -0.70100
O 	O 	0.10826 0.02563 0.92497 -0.36400
O 	O 	0.98001 0.03828 0.10234 -0.36100
O 	O 	0.98170 0.08717 0.05263 -0.39900
Ni	Ni	0.06231 0.07548 0.01577 1.07100
H 	H 	0.94074 0.96710 0.98766 0.16100
H 	H 	0.09656 0.00678 0.03249 0.16600
C 	C 	0.08102 0.93323 0.08026 0.30900
O 	O 	0.01832 0.08963 0.96091 -0.40300
C 	C 	0.04749 0.91589 0.91680 0.28400
C 	C 	0.90585 0.92840 0.08051 0.29500
C 	C 	0.97459 0.06947 0.94326 0.32900
C 	C 	0.97868 0.07648 0.09276 0.29200
C 	C 	0.13858 0.05676 0.93890 0.31700
O 	O 	0.04053 0.96163 0.09339 -0.38400
O 	O 	0.95464 0.90525 0.06749 -0.39300
Ni	Ni	0.80294 0.77145 0.25239 1.10200
O 	O 	0.72988 0.73947 0.23460 -0.70500
Ni	Ni	0.74818 0.68678 0.26166 1.10300
O 	O 	0.76926 0.81938 0.21962 -0.35900
O 	O 	0.77246 0.78460 0.15594 -0.40400
O 	O 	0.74520 0.78791 0.30332 -0.38500
Ni	Ni	0.72896 0.73162 0.17316 1.06800
O 	O 	0.91616 0.75992 0.31919 -0.39400
O 	O 	0.81612 0.70593 0.16914 -0.41400
O 	O 	0.66910 0.66035 0.24522 -0.36800
O 	O 	0.82647 0.71690 0.27372 -0.70200
O 	O 	0.87305 0.80547 0.27399 -0.37100
O 	O 	0.77114 0.64004 0.30028 -0.37300
O 	O 	0.78255 0.68197 0.35697 -0.40100
Ni	Ni	0.84869 0.72096 0.33369 1.07500
H 	H 	0.68954 0.75116 0.24582 0.16900
H 	H 	0.86271 0.70587 0.25642 0.17100
C 	C 	0.82753 0.66950 0.18212 0.31400
O 	O 	0.79584 0.76725 0.36172 -0.39500
C 	C 	0.77010 0.81899 0.17762 0.29200
C 	C 	0.64922 0.66549 0.20635 0.29600
C 	C 	0.76379 0.79490 0.34176 0.31300
C 	C 	0.77775 0.64545 0.34141 0.28900
C 	C 	0.90267 0.79736 0.30902 0.30800
O 	O 	0.79298 0.65408 0.21272 -0.36500
O 	O 	0.68782 0.67714 0.17513 -0.40000
Ni	Ni	0.74934 0.19487 0.76794 1.09900
O 	O 	0.81280 0.22332 0.72933 -0.70000
Ni	Ni	0.80594 0.27961 0.75168 1.10200
O 	O 	0.75595 0.14323 0.73109 -0.36300
O 	O 	0.73473 0.17995 0.67254 -0.41000
O 	O 	0.82306 0.17576 0.80245 -0.38500
Ni	Ni	0.80267 0.22218 0.66784 1.07100
O 	O 	0.66913 0.22245 0.85622 -0.42100
O 	O 	0.73359 0.26452 0.65868 -0.39900
O 	O 	0.86950 0.30528 0.71134 -0.36100
O 	O 	0.74063 0.25163 0.78836 -0.70400
O 	O 	0.68933 0.16775 0.81069 -0.37800
O 	O 	0.80057 0.33052 0.78885 -0.36800
O 	O 	0.81894 0.29416 0.84824 -0.40700
Ni	Ni	0.74705 0.25415 0.85001 1.07200
H 	H 	0.85510 0.21269 0.73449 0.15900
H 	H 	0.69880 0.26195 0.78152 0.15800
C 	C 	0.72984 0.30033 0.67666 0.30800
O 	O 	0.80391 0.20698 0.86763 -0.38700
C 	C 	0.74489 0.14501 0.69012 0.28200
C 	C 	0.87367 0.29759 0.66981 0.30600
C 	C 	0.82248 0.17509 0.84446 0.31600
C 	C 	0.81295 0.32906 0.82939 0.29000
C 	C 	0.66632 0.18374 0.84746 0.31100
O 	O 	0.73486 0.30431 0.71811 -0.38300
O 	O 	0.87229 0.26043 0.65464 -0.40900
Ni	Ni	0.25690 0.76662 0.67976 1.10500
O 	O 	0.31162 0.79036 0.72388 -0.70100
Ni	Ni	0.28552 0.76020 0.77626 1.10200
O 	O 	0.26125 0.81515 0.64067 -0.37300
O 	O 	0.23255 0.85862 0.69531 -0.40100
O 	O 	0.33486 0.74188 0.64736 -0.36100
Ni	Ni	0.30570 0.84766 0.73515 1.08000
O 	O 	0.25751 0.67816 0.65193 -0.41600
O 	O 	0.24418 0.85242 0.78695 -0.38300
O 	O 	0.32704 0.79225 0.82322 -0.36900
O 	O 	0.24070 0.73095 0.72957 -0.70100
O 	O 	0.20465 0.73711 0.63821 -0.36700
O 	O 	0.26301 0.71665 0.81958 -0.35600
O 	O 	0.31071 0.66889 0.77565 -0.41400
Ni	Ni	0.27837 0.67863 0.71513 1.06700
H 	H 	0.35567 0.78314 0.71664 0.16400
H 	H 	0.19564 0.72921 0.73627 0.16300
C 	C 	0.19600 0.82999 0.79322 0.31400
O 	O 	0.36182 0.70245 0.70221 -0.42700
C 	C 	0.23592 0.84966 0.65416 0.29200
C 	C 	0.35762 0.82556 0.81649 0.31300
C 	C 	0.37481 0.71707 0.66466 0.30900
C 	C 	0.27901 0.67868 0.81136 0.28400
C 	C 	0.20911 0.69756 0.63638 0.29600
O 	O 	0.20216 0.79062 0.78970 -0.38500
O 	O 	0.37224 0.83729 0.77736 -0.40700
Ni	Ni	0.28217 0.30031 0.73807 1.09900
O 	O 	0.20432 0.27984 0.71232 -0.70400
Ni	Ni	0.19608 0.22750 0.74157 1.10300
O 	O 	0.27502 0.34939 0.70077 -0.38300
O 	O 	0.27473 0.31609 0.63582 -0.38700
O 	O 	0.22171 0.32849 0.78113 -0.38600
Ni	Ni	0.21398 0.26958 0.65106 1.07000
O 	O 	0.36900 0.27668 0.81909 -0.40200
O 	O 	0.29149 0.23378 0.65712 -0.41400
O 	O 	0.11493 0.21335 0.71599 -0.38000
O 	O 	0.27905 0.24541 0.76299 -0.70300
O 	O 	0.35666 0.32385 0.76725 -0.38600
O 	O 	0.18958 0.17995 0.78224 -0.37000
O 	O 	0.20496 0.22046 0.83946 -0.40300
Ni	Ni	0.28702 0.24893 0.82502 1.07200
H 	H 	0.16730 0.29750 0.71901 0.17100
H 	H 	0.31414 0.22867 0.75050 0.16300
C 	C 	0.28838 0.19786 0.67317 0.31000
O 	O 	0.24291 0.30151 0.84531 -0.39500
C 	C 	0.28959 0.34723 0.65972 0.29800
C 	C 	0.10964 0.21261 0.67417 0.29600
C 	C 	0.23171 0.33297 0.82169 0.31500
C 	C 	0.19404 0.18491 0.82360 0.29100
C 	C 	0.37244 0.31404 0.80615 0.30300
O 	O 	0.24102 0.18842 0.69832 -0.37300
O 	O 	0.15810 0.22063 0.64818 -0.39700
Ni	Ni	0.22778 0.72303 0.26594 1.10100
O 	O 	0.29721 0.74686 0.22909 -0.70200
Ni	Ni	0.30376 0.80020 0.25778 1.10200
O 	O 	0.23186 0.67158 0.22927 -0.37000
O 	O 	0.21923 0.70762 0.16873 -0.39900
O 	O 	0.29911 0.70043 0.30025 -0.39100
Ni	Ni	0.27947 0.75483 0.16981 1.07200
O 	O 	0.13576 0.75539 0.34825 -0.40000
O 	O 	0.20435 0.79205 0.18389 -0.40700
O 	O 	0.38095 0.81640 0.22415 -0.37200
O 	O 	0.22552 0.77973 0.28757 -0.70700
O 	O 	0.16319 0.69846 0.30721 -0.37500
O 	O 	0.31310 0.84587 0.30118 -0.37400
O 	O 	0.30842 0.80294 0.35729 -0.41000
Ni	Ni	0.22225 0.77760 0.34986 1.07100
H 	H 	0.33682 0.73129 0.23085 0.16000
H 	H 	0.18796 0.79395 0.27773 0.16800
C 	C 	0.21127 0.82969 0.19397 0.31100
O 	O 	0.25628 0.72157 0.36485 -0.39700
C 	C 	0.23077 0.67321 0.18732 0.29300
C 	C 	0.38738 0.80732 0.18302 0.28900
C 	C 	0.29921 0.70090 0.34206 0.32100
C 	C 	0.32204 0.83827 0.34155 0.28700
C 	C 	0.12381 0.71898 0.33374 0.31100
O 	O 	0.25308 0.83986 0.22120 -0.36800
O 	O 	0.33742 0.80152 0.16079 -0.40700
Ni	Ni	0.78874 0.22004 0.26149 1.10500
O 	O 	0.69886 0.23500 0.27895 -0.70400
Ni	Ni	0.69282 0.29147 0.25853 1.10300
O 	O 	0.79422 0.17294 0.30244 -0.36900
O 	O 	0.75812 0.21264 0.35867 -0.40300
O 	O 	0.75966 0.18118 0.21554 -0.36600
Ni	Ni	0.67221 0.23331 0.33904 1.07200
O 	O 	0.84914 0.21796 0.16844 -0.40400
O 	O 	0.68660 0.29015 0.36200 -0.40000
O 	O 	0.60803 0.31098 0.28594 -0.37400
O 	O 	0.77937 0.27343 0.23509 -0.70400
O 	O 	0.87642 0.20819 0.23833 -0.38100
O 	O 	0.69925 0.34377 0.22551 -0.37100
O 	O 	0.71852 0.31005 0.16205 -0.39500
Ni	Ni	0.78528 0.26537 0.17361 1.07000
H 	H 	0.67024 0.21881 0.26272 0.16900
H 	H 	0.81216 0.29122 0.24430 0.16100
C 	C 	0.72923 0.31392 0.34694 0.32500
O 	O 	0.71350 0.22786 0.17391 -0.41700
C 	C 	0.78381 0.17860 0.34377 0.28800
C 	C 	0.57550 0.29119 0.31527 0.31700
C 	C 	0.71900 0.19108 0.18733 0.31400
C 	C 	0.71041 0.34406 0.18380 0.29200
C 	C 	0.88811 0.20357 0.19681 0.30500
O 	O 	0.74001 0.31800 0.30574 -0.39200
O 	O 	0.58743 0.25283 0.32192 -0.41300
Ni	Ni	0.22304 0.30344 0.27481 1.10200
O 	O 	0.29350 0.27460 0.30357 -0.70900
Ni	Ni	0.28404 0.21843 0.28325 1.10100
O 	O 	0.22294 0.35055 0.31644 -0.38500
O 	O 	0.20778 0.31156 0.37468 -0.40300
O 	O 	0.28302 0.33623 0.23691 -0.36300
Ni	Ni	0.28896 0.27524 0.36598 1.07600
O 	O 	0.19473 0.30552 0.17760 -0.39800
O 	O 	0.24440 0.22463 0.38681 -0.39400
O 	O 	0.34314 0.18806 0.32233 -0.37300
O 	O 	0.22129 0.24903 0.24810 -0.70500
O 	O 	0.15244 0.32811 0.24274 -0.38800
O 	O 	0.27380 0.16745 0.24740 -0.36200
O 	O 	0.30006 0.20079 0.18629 -0.40600
Ni	Ni	0.24389 0.25297 0.18775 1.06800
H 	H 	0.33406 0.28427 0.29285 0.17400
H 	H 	0.17923 0.23837 0.25195 0.16100
C 	C 	0.21230 0.20023 0.36370 0.31900
O 	O 	0.32206 0.28377 0.19583 -0.41200
C 	C 	0.20026 0.34628 0.35535 0.29600
C 	C 	0.37547 0.20423 0.35294 0.30600
C 	C 	0.31852 0.32226 0.20451 0.31800
C 	C 	0.28509 0.16738 0.20569 0.28800
C 	C 	0.14688 0.32062 0.20162 0.29900
O 	O 	0.20924 0.20456 0.32228 -0.38900
O 	O 	0.37035 0.24291 0.36335 -0.39500
Ni	Ni	0.66244 0.78092 0.75741 1.10000
O 	O 	0.73009 0.75406 0.79197 -0.70400
Ni	Ni	0.73470 0.69918 0.76587 1.10300
O 	O 	0.66838 0.83322 0.79167 -0.37400
O 	O 	0.65095 0.80064 0.85454 -0.39300
O 	O 	0.73447 0.79821 0.71759 -0.39600
Ni	Ni	0.70837 0.74900 0.85222 1.07000
O 	O 	0.57477 0.74910 0.68293 -0.40600
O 	O 	0.63013 0.71870 0.84141 -0.41300
O 	O 	0.80754 0.67812 0.79848 -0.36400
O 	O 	0.66025 0.72408 0.73736 -0.70300
O 	O 	0.59818 0.80734 0.71868 -0.37900
O 	O 	0.74470 0.65168 0.72371 -0.36500
O 	O 	0.74696 0.69481 0.66802 -0.40900
Ni	Ni	0.66086 0.72412 0.67508 1.08000
H 	H 	0.77048 0.76697 0.78789 0.15900
H 	H 	0.62143 0.71242 0.74866 0.16400
C 	C 	0.63267 0.68043 0.83169 0.30400
O 	O 	0.69461 0.77816 0.65468 -0.37200
C 	C 	0.66299 0.83381 0.83374 0.29100
C 	C 	0.80853 0.68290 0.84035 0.29400
C 	C 	0.73097 0.80129 0.67607 0.31600
C 	C 	0.75518 0.65842 0.68282 0.29100
C 	C 	0.56530 0.78777 0.69066 0.31000
O 	O 	0.67677 0.66547 0.80487 -0.35900
O 	O 	0.75834 0.69668 0.86286 -0.40000
C 	C 	0.97078 0.10734 0.12689 -0.11000
C 	C 	0.93539 0.09958 0.16428 -0.05400
C 	C 	0.91630 0.13104 0.19230 0.16900
C 	C 	0.93086 0.17070 0.18211 -0.09800
C 	C 	0.97368 0.17744 0.14829 -0.06700
C 	C 	0.99422 0.14584 0.12088 0.18100
H 	H 	0.91958 0.06966 0.17037 0.07500
O 	O 	0.87752 0.12358 0.22693 -0.27200
H 	H 	0.98721 0.20767 0.14125 0.05300
O 	O 	0.03477 0.15302 0.08712 -0.32500
H 	H 	0.07665 0.14806 0.09809 0.12400
H 	H 	0.90527 0.11871 0.25080 0.15700
C 	C 	0.18004 0.86097 0.16892 -0.10400
C 	C 	0.21205 0.87788 0.13396 -0.06100
C 	C 	0.18046 0.90259 0.10559 0.16600
C 	C 	0.11628 0.91067 0.11216 -0.10700
C 	C 	0.08485 0.89513 0.14818 -0.05800
C 	C 	0.11642 0.87027 0.17640 0.16600
H 	H 	0.26107 0.87087 0.12797 0.06700
O 	O 	0.21207 0.91778 0.07085 -0.28500
H 	H 	0.03548 0.90122 0.15358 0.06800
O 	O 	0.08435 0.85372 0.21016 -0.28600
H 	H 	0.08713 0.87309 0.23421 0.14200
H 	H 	0.22703 0.94394 0.08071 0.14000
C 	C 	0.15385 0.08913 0.90915 -0.11400
C 	C 	0.13900 0.12900 0.92147 -0.05100
C 	C 	0.15002 0.16019 0.89332 0.16000
C 	C 	0.17829 0.15195 0.85262 -0.10200
C 	C 	0.19330 0.11204 0.84019 -0.06700
C 	C 	0.18055 0.08062 0.86811 0.17300
H 	H 	0.11775 0.13583 0.95281 0.04300
O 	O 	0.13022 0.19847 0.90484 -0.27300
H 	H 	0.21547 0.10538 0.80907 0.06700
O 	O 	0.19692 0.04193 0.85596 -0.28700
H 	H 	0.16073 0.03192 0.84118 0.16100
H 	H 	0.16420 0.20950 0.92119 0.14400
C 	C 	0.06607 0.89140 0.87810 -0.09900
C 	C 	0.08637 0.91017 0.84043 -0.06300
C 	C 	0.12318 0.88868 0.80940 0.17000
C 	C 	0.14034 0.84820 0.81614 -0.10100
C 	C 	0.11190 0.82808 0.85038 -0.05600
C 	C 	0.07377 0.84937 0.88084 0.16400
H 	H 	0.07684 0.94190 0.83624 0.06600
O 	O 	0.14266 0.90729 0.77267 -0.28800
H 	H 	0.12205 0.79645 0.85481 0.07100
O 	O 	0.04687 0.82942 0.91443 -0.29000
H 	H 	0.00579 0.82176 0.90472 0.13200
H 	H 	0.18023 0.92168 0.78009 0.15200
C 	C 	0.93357 0.09095 0.91375 -0.10500
C 	C 	0.95994 0.11115 0.87870 -0.03200
C 	C 	0.92328 0.13696 0.85439 0.16600
C 	C 	0.85961 0.14324 0.86536 -0.09100
C 	C 	0.83277 0.12186 0.89939 -0.06000
C 	C 	0.86947 0.09589 0.92360 0.17600
H 	H 	0.00930 0.10774 0.87100 0.05800
O 	O 	0.95064 0.15786 0.82167 -0.27400
H 	H 	0.78373 0.12604 0.90775 0.07500
O 	O 	0.84261 0.07578 0.95710 -0.28500
H 	H 	0.84493 0.09393 0.98226 0.15300
H 	H 	0.94856 0.14035 0.79599 0.15600
C 	C 	0.78652 0.85585 0.15438 -0.10000
C 	C 	0.78175 0.85660 0.10981 -0.06300
C 	C 	0.81697 0.88295 0.08521 0.16300
C 	C 	0.85574 0.90962 0.10525 -0.10400
C 	C 	0.85323 0.91308 0.14988 -0.05500
C 	C 	0.81837 0.88663 0.17458 0.16400
H 	H 	0.75418 0.83485 0.09399 0.05700
O 	O 	0.81665 0.88071 0.04150 -0.30900
H 	H 	0.88130 0.93468 0.16551 0.06800
O 	O 	0.81839 0.88957 0.21824 -0.27500
H 	H 	0.78333 0.90846 0.22651 0.14300
H 	H 	0.78314 0.89985 0.03356 0.13800
C 	C 	0.68306 0.16014 0.16794 -0.11200
C 	C 	0.71337 0.12997 0.14249 -0.05200
C 	C 	0.67889 0.10301 0.11965 0.16400
C 	C 	0.61383 0.10555 0.12330 -0.10300
C 	C 	0.58365 0.13516 0.14953 -0.05800
C 	C 	0.61800 0.16266 0.17149 0.17200
H 	H 	0.76360 0.12804 0.13964 0.07000
O 	O 	0.70878 0.07351 0.09483 -0.29400
H 	H 	0.53343 0.13697 0.15264 0.07200
O 	O 	0.58802 0.19129 0.19743 -0.30200
H 	H 	0.58019 0.21446 0.17873 0.15200
H 	H 	0.71499 0.08540 0.06621 0.15100
C 	C 	0.36115 0.07095 0.12959 -0.10800
C 	C 	0.36987 0.07100 0.17365 -0.05100
C 	C 	0.33941 0.10004 0.20038 0.16700
C 	C 	0.29935 0.12906 0.18293 -0.10000
C 	C 	0.28395 0.12516 0.14009 -0.06600
C 	C 	0.31543 0.09665 0.11323 0.17300
H 	H 	0.40396 0.05058 0.18668 0.05600
O 	O 	0.35339 0.10229 0.24257 -0.27600
H 	H 	0.25090 0.14617 0.12688 0.04000
O 	O 	0.30204 0.09429 0.07093 -0.30400
H 	H 	0.32875 0.11398 0.05637 0.15000
H 	H 	0.32300 0.08528 0.25771 0.15800
C 	C 	0.44585 0.81669 0.15952 -0.10700
C 	C 	0.45026 0.81150 0.11495 -0.05800
C 	C 	0.48643 0.83714 0.09027 0.16300
C 	C 	0.51734 0.86801 0.11064 -0.10300
C 	C 	0.52790 0.86440 0.15421 -0.06800
C 	C 	0.49110 0.83926 0.17915 0.17000
H 	H 	0.42120 0.79046 0.09937 0.05500
O 	O 	0.48522 0.83519 0.04660 -0.26500
H 	H 	0.55823 0.88480 0.16955 0.04700
O 	O 	0.49942 0.83672 0.22217 -0.28700
H 	H 	0.47670 0.86047 0.23527 0.15900
H 	H 	0.52085 0.81713 0.03735 0.14800
C 	C 	0.58741 0.93266 0.90639 -0.10500
C 	C 	0.63111 0.90661 0.92450 -0.05500
C 	C 	0.66244 0.87677 0.89940 0.16700
C 	C 	0.64945 0.87240 0.85606 -0.10100
C 	C 	0.61347 0.90218 0.83669 -0.06100
C 	C 	0.58235 0.93226 0.86164 0.17300
H 	H 	0.63847 0.90808 0.95843 0.07000
O 	O 	0.70264 0.85025 0.91788 -0.30200
H 	H 	0.60627 0.90055 0.80274 0.06700
O 	O 	0.54781 0.96142 0.84225 -0.29100
H 	H 	0.50716 0.94947 0.83767 0.14600
H 	H 	0.74388 0.86232 0.91462 0.13700
C 	C 	0.53664 0.11889 0.92408 -0.09900
C 	C 	0.58607 0.13748 0.94301 -0.06100
C 	C 	0.62904 0.15832 0.91797 0.16900
C 	C 	0.62293 0.16056 0.87359 -0.10500
C 	C 	0.57185 0.14381 0.85497 -0.05300
C 	C 	0.52866 0.12315 0.88002 0.17000
H 	H 	0.59289 0.13416 0.97683 0.07000
O 	O 	0.67867 0.17482 0.93661 -0.29200
H 	H 	0.56545 0.14694 0.82108 0.06200
O 	O 	0.47815 0.10759 0.86154 -0.30200
H 	H 	0.49247 0.08084 0.85013 0.15400
H 	H 	0.66420 0.20227 0.94566 0.14200
C 	C 	0.37206 0.90471 0.92389 -0.10200
C 	C 	0.36250 0.92026 0.88329 -0.05700
C 	C 	0.36027 0.89476 0.84785 0.17300
C 	C 	0.36644 0.85291 0.85279 -0.10500
C 	C 	0.37415 0.83725 0.89359 -0.05300
C 	C 	0.37595 0.86288 0.92915 0.17300
H 	H 	0.35895 0.95237 0.87887 0.04600
O 	O 	0.34946 0.91073 0.80869 -0.31100
H 	H 	0.37810 0.80512 0.89783 0.07400
O 	O 	0.38242 0.84702 0.96890 -0.26300
H 	H 	0.33952 0.84361 0.98060 0.15600
H 	H 	0.39097 0.91694 0.79617 0.13900
C 	C 	0.98996 0.12842 0.62018 -0.09000
C 	C 	0.01336 0.15931 0.59472 -0.08300
C 	C 	0.04775 0.18953 0.61283 0.17000
C 	C 	0.05914 0.18894 0.65675 -0.09800
C 	C 	0.02780 0.16153 0.68297 -0.07600
C 	C 	0.99285 0.13162 0.66485 0.16900
H 	H 	0.00788 0.15877 0.56054 0.07000
O 	O 	0.06910 0.21992 0.58774 -0.29900
H 	H 	0.03267 0.16221 0.71721 0.07400
O 	O 	0.96379 0.10459 0.69076 -0.28500
H 	H 	0.92175 0.11656 0.69745 0.13300
H 	H 	0.10817 0.20910 0.57342 0.14900
C 	C 	0.11259 0.10734 0.42810 -0.09900
C 	C 	0.08019 0.13801 0.40731 -0.06000
C 	C 	0.11243 0.16822 0.38590 0.17100
C 	C 	0.17771 0.16800 0.38522 -0.10400
C 	C 	0.21010 0.13750 0.40627 -0.05400
C 	C 	0.17786 0.10723 0.42760 0.16600
H 	H 	0.02997 0.13832 0.40749 0.06600
O 	O 	0.08004 0.19761 0.36531 -0.28600
H 	H 	0.26031 0.13717 0.40605 0.06300
O 	O 	0.21031 0.07742 0.44749 -0.27800
H 	H 	0.21493 0.08754 0.47703 0.15100
H 	H 	0.07158 0.21929 0.38695 0.15000
C 	C 	0.83863 0.89209 0.61323 -0.09000
C 	C 	0.77610 0.88774 0.60389 -0.06200
C 	C 	0.74082 0.85793 0.62382 0.17000
C 	C 	0.76829 0.83169 0.65303 -0.09900
C 	C 	0.83100 0.83563 0.66179 -0.05500
C 	C 	0.86623 0.86539 0.64199 0.16400
H 	H 	0.75452 0.90769 0.58153 0.06300
O 	O 	0.67978 0.85440 0.61444 -0.27100
H 	H 	0.85278 0.81538 0.68376 0.06200
O 	O 	0.92833 0.86686 0.64907 -0.26900
H 	H 	0.93096 0.88381 0.67511 0.15000
H 	H 	0.65595 0.87196 0.63554 0.15200
C 	C 	0.86877 0.09064 0.42173 -0.10800
C 	C 	0.86713 0.13105 0.43461 -0.05100
C 	C 	0.83670 0.15999 0.41055 0.16400
C 	C 	0.80709 0.14838 0.37340 -0.10300
C 	C 	0.80475 0.10756 0.36252 -0.06500
C 	C 	0.83603 0.07878 0.38624 0.17100
H 	H 	0.89240 0.14033 0.46194 0.06800
O 	O 	0.83999 0.19973 0.42157 -0.27000
H 	H 	0.78041 0.09827 0.33477 0.06400
O 	O 	0.83435 0.03903 0.37480 -0.28600
H 	H 	0.86963 0.03427 0.35376 0.15400
H 	H 	0.80394 0.20542 0.44173 0.15000
C 	C 	0.10176 0.91871 0.58900 -0.10600
C 	C 	0.09668 0.87701 0.59178 -0.05900
C 	C 	0.14316 0.85366 0.60993 0.17100
C 	C 	0.19513 0.87198 0.62604 -0.10200
C 	C 	0.20234 0.91320 0.62078 -0.05900
C 	C 	0.15607 0.93662 0.60219 0.16600
H 	H 	0.05545 0.86280 0.58142 0.07800
O 	O 	0.13544 0.81337 0.61485 -0.29200
H 	H 	0.24297 0.92732 0.63228 0.04900
O 	O 	0.16481 0.97664 0.59586 -0.29400
H 	H 	0.15075 0.99016 0.62315 0.15000
H 	H 	0.15365 0.80062 0.58818 0.16000
C 	C 	0.93711 0.89226 0.39788 -0.10900
C 	C 	0.97352 0.85664 0.39781 -0.05000
C 	C 	0.96416 0.82586 0.36818 0.17100
C 	C 	0.91823 0.83076 0.33787 -0.10200
C 	C 	0.88328 0.86701 0.33724 -0.06100
C 	C 	0.89186 0.89737 0.36732 0.16800
H 	H 	0.00924 0.85280 0.42074 0.04500
O 	O 	0.00155 0.79182 0.36787 -0.29600
H 	H 	0.84813 0.87128 0.31406 0.06900
O 	O 	0.85357 0.93105 0.36829 -0.27900
H 	H 	0.87343 0.94969 0.34793 0.14800
H 	H 	0.98171 0.77405 0.38917 0.15600
C 	C 	0.22326 0.63621 0.16280 -0.10300
C 	C 	0.17442 0.61141 0.17406 -0.05700
C 	C 	0.15515 0.58290 0.14496 0.16900
C 	C 	0.18522 0.57901 0.10406 -0.10600
C 	C 	0.23815 0.60098 0.09464 -0.06500
C 	C 	0.25737 0.62942 0.12393 0.16000
H 	H 	0.14859 0.61608 0.20428 0.06700
O 	O 	0.10381 0.56129 0.15519 -0.27800
H 	H 	0.26320 0.59698 0.06408 0.04000
O 	O 	0.30767 0.65192 0.11367 -0.32800
H 	H 	0.34384 0.63605 0.12341 0.12900
H 	H 	0.11985 0.53695 0.16937 0.16300
C 	C 	0.04316 0.39359 0.12136 -0.10600
C 	C 	0.04539 0.35193 0.11401 -0.06500
C 	C 	0.07328 0.32649 0.14308 0.16300
C 	C 	0.09781 0.34271 0.18002 -0.10600
C 	C 	0.08392 0.38294 0.19132 -0.05700
C 	C 	0.05601 0.40840 0.16230 0.16500
H 	H 	0.03015 0.33965 0.08424 0.04700
O 	O 	0.08074 0.28630 0.13380 -0.30600
H 	H 	0.09883 0.39516 0.22123 0.07000
O 	O 	0.04469 0.44801 0.17308 -0.27200
H 	H 	0.00191 0.44942 0.18603 0.14500
H 	H 	0.04351 0.27401 0.14699 0.13000
C 	C 	0.14905 0.42950 0.89585 -0.10800
C 	C 	0.13248 0.42449 0.85343 -0.05800
C 	C 	0.16314 0.39537 0.82713 0.17000
C 	C 	0.21064 0.37074 0.84353 -0.10400
C 	C 	0.23314 0.38006 0.88362 -0.06300
C 	C 	0.20294 0.40965 0.90962 0.16900
H 	H 	0.09299 0.44117 0.84173 0.07300
O 	O 	0.14382 0.38931 0.78654 -0.27700
H 	H 	0.27238 0.36318 0.89541 0.06400
O 	O 	0.22640 0.41942 0.94822 -0.28900
H 	H 	0.21071 0.39914 0.96844 0.16000
H 	H 	0.16912 0.40711 0.76826 0.15100
C 	C 	0.95239 0.59739 0.10219 -0.11300
C 	C 	0.97544 0.62587 0.13022 -0.03000
C 	C 	0.93480 0.64905 0.15714 0.16300
C 	C 	0.87078 0.64331 0.15675 -0.10200
C 	C 	0.84782 0.61387 0.13000 -0.05900
C 	C 	0.88833 0.59091 0.10271 0.17800
H 	H 	0.02487 0.63034 0.13078 0.06400
O 	O 	0.95784 0.67659 0.18461 -0.28600
H 	H 	0.79834 0.60950 0.12959 0.07100
O 	O 	0.86494 0.56386 0.07486 -0.29400
H 	H 	0.86277 0.53843 0.09074 0.15300
H 	H 	0.95967 0.70184 0.16840 0.15400
C 	C 	0.85591 0.65980 0.86272 -0.09900
C 	C 	0.89529 0.67930 0.88997 -0.06000
C 	C 	0.94185 0.65745 0.91026 0.16600
C 	C 	0.94787 0.61549 0.90429 -0.10200
C 	C 	0.90841 0.59622 0.87676 -0.06200
C 	C 	0.86254 0.61809 0.85626 0.17800
H 	H 	0.89051 0.71146 0.89492 0.04700
O 	O 	0.98109 0.67710 0.93593 -0.27000
H 	H 	0.91237 0.56403 0.87189 0.07500
O 	O 	0.82449 0.59865 0.82953 -0.27300
H 	H 	0.78924 0.59005 0.84816 0.16400
H 	H 	0.01653 0.68449 0.91675 0.12600
C 	C 	0.82726 0.36613 0.85246 -0.10500
C 	C 	0.81411 0.36940 0.89661 -0.06100
C 	C 	0.83840 0.40052 0.92023 0.16100
C 	C 	0.87713 0.42802 0.89977 -0.10300
C 	C 	0.88206 0.42841 0.85509 -0.05300
C 	C 	0.85800 0.39732 0.83128 0.16800
H 	H 	0.78748 0.34681 0.91290 0.04300
O 	O 	0.82971 0.40153 0.96385 -0.31000
H 	H 	0.91010 0.45044 0.83902 0.07200
O 	O 	0.86941 0.39561 0.78787 -0.26600
H 	H 	0.83418 0.41075 0.77578 0.15300
H 	H 	0.79186 0.41873 0.96972 0.14400
C 	C 	0.49384 0.12083 0.41512 -0.09900
C 	C 	0.45554 0.14816 0.43948 -0.06400
C 	C 	0.41848 0.17667 0.41935 0.17100
C 	C 	0.42054 0.17860 0.37451 -0.10200
C 	C 	0.46177 0.15302 0.35029 -0.05500
C 	C 	0.49877 0.12445 0.37042 0.16100
H 	H 	0.45205 0.14599 0.47396 0.07400
O 	O 	0.37914 0.20196 0.44350 -0.28900
H 	H 	0.46428 0.15479 0.31576 0.07000
O 	O 	0.53814 0.09919 0.34628 -0.28500
H 	H 	0.57805 0.11302 0.34401 0.12900
H 	H 	0.33983 0.18760 0.44703 0.15000
C 	C 	0.66999 0.88999 0.41515 -0.10100
C 	C 	0.67282 0.89129 0.37053 -0.04900
C 	C 	0.70486 0.86116 0.34641 0.16800
C 	C 	0.73369 0.82862 0.36700 -0.09800
C 	C 	0.73212 0.82796 0.41192 -0.05700
C 	C 	0.69993 0.85829 0.43595 0.17700
H 	H 	0.64988 0.91576 0.35442 0.05600
O 	O 	0.70666 0.86311 0.30270 -0.27600
H 	H 	0.75505 0.80368 0.42828 0.07300
O 	O 	0.69996 0.85773 0.47970 -0.28300
H 	H 	0.66371 0.84192 0.48873 0.16400
H 	H 	0.74257 0.87970 0.29510 0.15200
C 	C 	0.72869 0.10879 0.66653 -0.10200
C 	C 	0.74833 0.10468 0.62327 -0.06700
C 	C 	0.71558 0.08105 0.59544 0.16800
C 	C 	0.66405 0.06037 0.61114 -0.11000
C 	C 	0.64979 0.06013 0.65527 -0.05200
C 	C 	0.68144 0.08457 0.68293 0.16500
H 	H 	0.78606 0.12225 0.61062 0.04300
O 	O 	0.73205 0.07988 0.55265 -0.28400
H 	H 	0.61153 0.04296 0.66779 0.04800
O 	O 	0.66434 0.08601 0.72564 -0.27300
H 	H 	0.63069 0.10697 0.72872 0.14900
H 	H 	0.76250 0.05706 0.54882 0.13600
C 	C 	0.49154 0.87222 0.60832 -0.10400
C 	C 	0.51349 0.83522 0.59102 -0.05500
C 	C 	0.53059 0.80437 0.61814 0.17900
C 	C 	0.52507 0.81071 0.66275 -0.10700
C 	C 	0.49053 0.84411 0.67924 -0.06900
C 	C 	0.47309 0.87483 0.65196 0.16200
H 	H 	0.52371 0.83185 0.55697 0.07500
O 	O 	0.55912 0.77004 0.60119 -0.29400
H 	H 	0.48139 0.84767 0.71339 0.05300
O 	O 	0.44042 0.90805 0.66813 -0.32700
H 	H 	0.47184 0.92579 0.67957 0.13000
H 	H 	0.52509 0.75150 0.59656 0.15700
C 	C 	0.33058 0.16596 0.65586 -0.11100
C 	C 	0.30670 0.13357 0.63377 -0.05300
C 	C 	0.34676 0.10417 0.61468 0.16300
C 	C 	0.41111 0.10700 0.61781 -0.10600
C 	C 	0.43493 0.13854 0.64126 -0.05600
C 	C 	0.39490 0.16830 0.65986 0.17100
H 	H 	0.25711 0.13170 0.63060 0.06900
O 	O 	0.32310 0.07344 0.59168 -0.28900
H 	H 	0.48457 0.14058 0.64405 0.06800
O 	O 	0.41853 0.19905 0.68284 -0.30400
H 	H 	0.42723 0.22025 0.66177 0.15400
H 	H 	0.31600 0.05181 0.61251 0.14100
C 	C 	0.35808 0.86643 0.36678 -0.10000
C 	C 	0.40022 0.85157 0.39605 -0.06400
C 	C 	0.43826 0.87769 0.41739 0.17400
C 	C 	0.43496 0.91901 0.40919 -0.11000
C 	C 	0.39186 0.93408 0.38092 -0.05500
C 	C 	0.35327 0.90810 0.35986 0.16300
H 	H 	0.40460 0.81966 0.40156 0.07200
O 	O 	0.48073 0.86251 0.44467 -0.28000
H 	H 	0.38832 0.96598 0.37512 0.05800
O 	O 	0.30943 0.92362 0.33379 -0.29000
H 	H 	0.33119 0.92625 0.30547 0.15700
H 	H 	0.45856 0.86235 0.47307 0.15900
C 	C 	0.30497 0.59915 0.91519 -0.10300
C 	C 	0.26872 0.63467 0.92217 -0.06600
C 	C 	0.25537 0.65969 0.88803 0.16000
C 	C 	0.27849 0.64921 0.84643 -0.10600
C 	C 	0.30695 0.61105 0.83898 -0.06600
C 	C 	0.32190 0.58667 0.87310 0.16000
H 	H 	0.25250 0.64355 0.95424 0.06000
O 	O 	0.22088 0.69451 0.89563 -0.27100
H 	H 	0.32077 0.60116 0.80678 0.05700
O 	O 	0.35454 0.55115 0.86524 -0.27000
H 	H 	0.39886 0.55810 0.86460 0.15400
H 	H 	0.17720 0.68716 0.89243 0.13700
C 	C 	0.39216 0.40714 0.11492 -0.10100
C 	C 	0.39213 0.41533 0.15898 -0.06000
C 	C 	0.36998 0.38729 0.18847 0.17200
C 	C 	0.34667 0.35080 0.17394 -0.10300
C 	C 	0.34488 0.34326 0.12983 -0.05300
C 	C 	0.36768 0.37109 0.10043 0.16500
H 	H 	0.41119 0.44284 0.17048 0.06500
O 	O 	0.37415 0.39476 0.23137 -0.28000
H 	H 	0.32517 0.31600 0.11822 0.04900
O 	O 	0.36452 0.36342 0.05748 -0.28700
H 	H 	0.40315 0.34778 0.04917 0.14600
H 	H 	0.33566 0.41036 0.24014 0.15900
C 	C 	0.50258 0.60795 0.14814 -0.09700
C 	C 	0.54247 0.58555 0.17367 -0.06700
C 	C 	0.58713 0.60473 0.19682 0.17500
C 	C 	0.59195 0.64656 0.19459 -0.10500
C 	C 	0.54703 0.66922 0.17373 -0.06300
C 	C 	0.50177 0.65012 0.15110 0.16100
H 	H 	0.54201 0.55311 0.17311 0.08200
O 	O 	0.62952 0.58224 0.21835 -0.27200
H 	H 	0.54911 0.70159 0.17323 0.04100
O 	O 	0.45930 0.67268 0.12973 -0.29300
H 	H 	0.42482 0.67887 0.15103 0.12400
H 	H 	0.61090 0.57981 0.24765 0.15600
C 	C 	0.62894 0.43370 0.10778 -0.10500
C 	C 	0.68135 0.41153 0.09143 -0.06000
C 	C 	0.71335 0.38519 0.11769 0.16500
C 	C 	0.69205 0.38023 0.16039 -0.10100
C 	C 	0.64497 0.40617 0.17799 -0.06000
C 	C 	0.61258 0.43220 0.15190 0.17200
H 	H 	0.69642 0.41392 0.05815 0.05700
O 	O 	0.76363 0.36301 0.10109 -0.30200
H 	H 	0.63022 0.40409 0.21136 0.07300
O 	O 	0.56388 0.45531 0.16936 -0.27500
H 	H 	0.52724 0.43832 0.16795 0.15300
H 	H 	0.80001 0.37942 0.10636 0.13500
C 	C 	0.58870 0.65351 0.85411 -0.10300
C 	C 	0.53089 0.66923 0.87030 -0.06100
C 	C 	0.49390 0.64706 0.89865 0.16600
C 	C 	0.51423 0.60864 0.91090 -0.10300
C 	C 	0.56992 0.59180 0.89262 -0.05600
C 	C 	0.60708 0.61393 0.86433 0.16600
H 	H 	0.51535 0.69917 0.86189 0.06600
O 	O 	0.43899 0.66363 0.91548 -0.28800
H 	H 	0.58564 0.56205 0.90154 0.06000
O 	O 	0.66292 0.59765 0.84886 -0.27900
H 	H 	0.65364 0.58335 0.82208 0.15200
H 	H 	0.40756 0.65667 0.89478 0.14900
C 	C 	0.39483 0.34534 0.83523 -0.10800
C 	C 	0.37397 0.38534 0.83102 -0.06000
C 	C 	0.38389 0.41389 0.86295 0.16600
C 	C 	0.41728 0.40295 0.89895 -0.10000
C 	C 	0.44173 0.36357 0.90168 -0.06500
C 	C 	0.43132 0.33498 0.86987 0.16400
H 	H 	0.34688 0.39390 0.80414 0.06800
O 	O 	0.36028 0.45226 0.85907 -0.26700
H 	H 	0.46909 0.35508 0.92844 0.04600
O 	O 	0.45646 0.29691 0.87295 -0.28600
H 	H 	0.49766 0.29747 0.85768 0.14300
H 	H 	0.31803 0.45229 0.87284 0.16000
C 	C 	0.06871 0.43824 0.39838 -0.10900
C 	C 	0.11155 0.42248 0.42667 -0.05600
C 	C 	0.15323 0.39119 0.41348 0.16700
C 	C 	0.15243 0.37566 0.37163 -0.10200
C 	C 	0.11006 0.39186 0.34328 -0.06300
C 	C 	0.06914 0.42339 0.35626 0.17600
H 	H 	0.11111 0.43361 0.45932 0.04500
O 	O 	0.19592 0.37682 0.44105 -0.29400
H 	H 	0.10901 0.38001 0.31098 0.06600
O 	O 	0.02656 0.43776 0.32860 -0.29200
H 	H 	0.04718 0.45984 0.31336 0.15000
H 	H 	0.17517 0.35499 0.45662 0.15100
C 	C 	0.84623 0.57521 0.59471 -0.10900
C 	C 	0.85800 0.57294 0.63828 -0.05300
C 	C 	0.82578 0.59842 0.66795 0.16500
C 	C 	0.78076 0.62619 0.65408 -0.10300
C 	C 	0.76472 0.62556 0.61117 -0.06600
C 	C 	0.79782 0.60057 0.58141 0.17200
H 	H 	0.89492 0.55318 0.64882 0.05600
O 	O 	0.84183 0.59831 0.70979 -0.27100
H 	H 	0.72815 0.64558 0.60060 0.05000
O 	O 	0.78249 0.60071 0.53942 -0.30700
H 	H 	0.80646 0.62244 0.52610 0.16700
H 	H 	0.81537 0.57817 0.72380 0.15900
C 	C 	0.09589 0.62156 0.56594 -0.10200
C 	C 	0.06831 0.64969 0.59522 -0.05800
C 	C 	0.10473 0.67706 0.61594 0.16600
C 	C 	0.16934 0.67582 0.60803 -0.11100
C 	C 	0.19630 0.64955 0.57656 -0.05400
C 	C 	0.15979 0.62240 0.55556 0.15800
H 	H 	0.01877 0.64977 0.60257 0.07000
O 	O 	0.07766 0.70313 0.64604 -0.30000
H 	H 	0.24590 0.64918 0.56950 0.05700
O 	O 	0.18671 0.59648 0.52525 -0.28000
H 	H 	0.20000 0.57244 0.54114 0.13100
H 	H 	0.06652 0.72762 0.63016 0.16200
C 	C 	0.93200 0.39472 0.59264 -0.10600
C 	C 	0.96908 0.38103 0.62554 -0.03800
C 	C 	0.95158 0.34815 0.64981 0.16600
C 	C 	0.89655 0.32876 0.64146 -0.09200
C 	C 	0.86058 0.34152 0.60792 -0.05600
C 	C 	0.87652 0.37532 0.58472 0.17500
H 	H 	0.01190 0.39548 0.63196 0.04800
O 	O 	0.98802 0.33521 0.68195 -0.25700
H 	H 	0.81877 0.32616 0.60090 0.06000
O 	O 	0.83802 0.38926 0.55418 -0.27400
H 	H 	0.80903 0.40892 0.56928 0.14600
H 	H 	0.01754 0.31493 0.66839 0.12500
C 	C 	0.98705 0.64446 0.39040 -0.09400
C 	C 	0.99102 0.64870 0.34581 -0.07000
C 	C 	0.03299 0.67505 0.32691 0.15300
C 	C 	0.07021 0.69824 0.35269 -0.09600
C 	C 	0.06084 0.69759 0.39718 -0.05800
C 	C 	0.01913 0.67124 0.41617 0.14600
H 	H 	0.96356 0.63035 0.32566 0.05600
O 	O 	0.03690 0.67849 0.28331 -0.29000
H 	H 	0.08793 0.71627 0.41724 0.06100
O 	O 	0.01223 0.67041 0.45984 -0.27800
H 	H 	0.97799 0.69011 0.46750 0.16000
H 	H 	0.06699 0.65702 0.27296 0.15800
C 	C 	0.81068 0.40985 0.41123 -0.09200
C 	C 	0.84806 0.37761 0.39478 -0.05500
C 	C 	0.82118 0.34416 0.37707 0.17500
C 	C 	0.75637 0.34266 0.37582 -0.10900
C 	C 	0.71876 0.37350 0.39535 -0.05000
C 	C 	0.74582 0.40698 0.41341 0.16300
H 	H 	0.89815 0.37895 0.39478 0.08200
O 	O 	0.85835 0.31297 0.36067 -0.28300
H 	H 	0.66870 0.37243 0.39472 0.06500
O 	O 	0.70881 0.43761 0.43111 -0.29000
H 	H 	0.70219 0.43068 0.46160 0.14200
H 	H 	0.86824 0.31995 0.33053 0.14500
C 	C 	0.41578 0.61336 0.40237 -0.10100
C 	C 	0.43873 0.63419 0.36675 -0.05900
C 	C 	0.40132 0.66318 0.34730 0.17000
C 	C 	0.34016 0.67164 0.36349 -0.10300
C 	C 	0.31720 0.65069 0.39904 -0.05500
C 	C 	0.35474 0.62188 0.41861 0.16600
H 	H 	0.48603 0.62852 0.35458 0.07000
O 	O 	0.42561 0.68449 0.31378 -0.29000
H 	H 	0.26993 0.65636 0.41128 0.07300
O 	O 	0.33085 0.60103 0.45260 -0.29100
H 	H 	0.33834 0.61766 0.47820 0.15500
H 	H 	0.41869 0.66810 0.28790 0.14900
C 	C 	0.64683 0.39521 0.60432 -0.09900
C 	C 	0.69526 0.40311 0.63155 -0.06400
C 	C 	0.72056 0.37270 0.65655 0.16300
C 	C 	0.69932 0.33344 0.65345 -0.10500
C 	C 	0.65049 0.32550 0.62678 -0.05800
C 	C 	0.62396 0.35609 0.60251 0.16100
H 	H 	0.71359 0.43284 0.63332 0.06100
O 	O 	0.76813 0.38108 0.68245 -0.28600
H 	H 	0.63261 0.29563 0.62506 0.06800
O 	O 	0.57385 0.34805 0.57883 -0.27900
H 	H 	0.59165 0.33779 0.55091 0.16100
H 	H 	0.74779 0.38963 0.71024 0.15500
C 	C 	0.41992 0.42894 0.60635 -0.10400
C 	C 	0.36441 0.42212 0.58596 -0.05400
C 	C 	0.32125 0.39583 0.60345 0.16600
C 	C 	0.33321 0.37615 0.64169 -0.10100
C 	C 	0.38785 0.38360 0.66260 -0.06200
C 	C 	0.43153 0.40933 0.64485 0.17700
H 	H 	0.35467 0.43715 0.55648 0.06500
O 	O 	0.26789 0.38902 0.58278 -0.28500
H 	H 	0.39729 0.36856 0.69213 0.06600
O 	O 	0.48551 0.41517 0.66516 -0.28300
H 	H 	0.51498 0.39378 0.65381 0.15800
H 	H 	0.23712 0.40949 0.59449 0.13700
C 	C 	0.68825 0.56085 0.41830 -0.10500
C 	C 	0.71426 0.59361 0.43852 -0.06700
C 	C 	0.75146 0.61953 0.41482 0.16500
C 	C 	0.76284 0.61230 0.37064 -0.10700
C 	C 	0.74875 0.57480 0.35343 -0.07700
C 	C 	0.71146 0.54900 0.37711 0.16100
H 	H 	0.70162 0.60079 0.47166 0.07200
O 	O 	0.77741 0.65118 0.43492 -0.29200
H 	H 	0.76298 0.56684 0.32074 0.07100
O 	O 	0.69436 0.51374 0.35885 -0.28000
H 	H 	0.72717 0.49372 0.36585 0.15300
H 	H 	0.74441 0.67261 0.43713 0.16000
C 	C 	0.49614 0.63541 0.59730 -0.10700
C 	C 	0.45388 0.65843 0.57439 -0.06300
C 	C 	0.41880 0.68967 0.59470 0.16600
C 	C 	0.42624 0.69813 0.63832 -0.10900
C 	C 	0.47564 0.67930 0.65888 -0.06600
C 	C 	0.50943 0.64724 0.63893 0.16100
H 	H 	0.44577 0.65073 0.54145 0.06600
O 	O 	0.37666 0.71134 0.57211 -0.27500
H 	H 	0.48437 0.68732 0.69163 0.06000
O 	O 	0.55567 0.62782 0.66000 -0.32000
H 	H 	0.53489 0.60650 0.67640 0.14600
H 	H 	0.33828 0.69584 0.57358 0.15600
C 	C 	0.50403 0.37626 0.40536 -0.09800
C 	C 	0.48388 0.37852 0.36347 -0.06700
C 	C 	0.50055 0.34790 0.33378 0.17400
C 	C 	0.53520 0.31413 0.34660 -0.11100
C 	C 	0.54287 0.30820 0.39030 -0.05000
C 	C 	0.52912 0.33958 0.41961 0.16500
H 	H 	0.46062 0.40564 0.35293 0.04800
O 	O 	0.48373 0.35128 0.29226 -0.28400
H 	H 	0.56554 0.28093 0.40096 0.04900
O 	O 	0.54343 0.33510 0.46150 -0.27200
H 	H 	0.58730 0.34275 0.46287 0.14800
H 	H 	0.51601 0.36748 0.27796 0.16100
