data_crystal

_cell_length_a 36.37549
_cell_length_b 37.08143
_cell_length_c 20.51944
_cell_angle_alpha 91.44456
_cell_angle_beta  90.44673
_cell_angle_gamma 90.00093

_symmetry_space_group_name_	'P 1'
_symmetry_space_group_name_H-M	'P 1'

loop_
_symmetry_equiv_pos_as_xyz
  x,y,z

loop_
_atom_site_label
_atom_site_type_symbol
_atom_site_fract_x
_atom_site_fract_y
_atom_site_fract_z
_atom_site_charge
Cd	Cd	0.00836 0.91054 0.26607 1.23800
Cd	Cd	0.98200 0.96742 0.39976 1.16700
O 	O 	0.96381 0.86617 0.22226 -0.32000
O 	O 	0.01885 0.87114 0.18174 -0.37300
C 	C 	0.98898 0.85190 0.18503 0.28500
O 	O 	0.05451 0.95057 0.27474 -0.40800
O 	O 	0.04234 0.96245 0.38153 -0.46900
C 	C 	0.05639 0.97258 0.32615 0.21900
C 	C 	0.96362 0.97174 0.24243 0.29200
O 	O 	0.98480 0.90515 0.38763 -0.45600
O 	O 	0.97713 0.95874 0.18775 -0.29900
O 	O 	0.96858 0.95206 0.29308 -0.53800
C 	C 	0.01327 0.88454 0.39764 0.29600
O 	O 	0.03317 0.87653 0.34679 -0.39000
Cd	Cd	0.91888 0.91498 0.00562 1.23900
Cd	Cd	0.91243 0.96195 0.85600 1.16800
O 	O 	0.88454 0.85806 0.00937 -0.32400
O 	O 	0.92476 0.87332 0.08471 -0.35200
C 	C 	0.90462 0.84772 0.05802 0.27600
O 	O 	0.96139 0.95941 0.01553 -0.37600
O 	O 	0.93471 0.99598 0.93955 -0.42800
C 	C 	0.96260 0.98810 0.97807 0.27600
C 	C 	0.96032 0.88988 0.89614 0.30600
O 	O 	0.86907 0.94504 0.93257 -0.45600
O 	O 	0.97077 0.87477 0.94972 -0.30700
O 	O 	0.93113 0.90982 0.90131 -0.54500
C 	C 	0.85864 0.96415 0.98343 0.29200
O 	O 	0.87334 0.95500 0.03890 -0.36100
C 	C 	0.94618 0.71469 0.94841 0.11700
N 	N 	0.93722 0.71723 0.88419 -0.14000
C 	C 	0.94884 0.69162 0.84050 0.12800
N 	N 	0.96957 0.66367 0.86115 -0.14400
C 	C 	0.97870 0.66114 0.92507 0.13200
N 	N 	0.96726 0.68683 0.96861 -0.14200
C 	C 	0.00435 0.71012 0.26216 0.11200
N 	N 	0.02584 0.68210 0.24196 -0.14200
C 	C 	0.03374 0.65504 0.28324 0.12600
N 	N 	0.01962 0.65572 0.34435 -0.14500
C 	C 	0.99839 0.68381 0.36492 0.12800
N 	N 	0.99135 0.71131 0.32415 -0.13800
Cd	Cd	0.89954 0.09138 0.70465 1.23900
Cd	Cd	0.95315 0.11924 0.84138 1.16300
O 	O 	0.84289 0.12505 0.68082 -0.32200
O 	O 	0.86097 0.07985 0.61853 -0.36800
C 	C 	0.83479 0.10262 0.63317 0.28400
O 	O 	0.94995 0.05712 0.69533 -0.40400
O 	O 	0.96690 0.06354 0.80269 -0.45200
C 	C 	0.97536 0.05593 0.74152 0.27600
C 	C 	0.94720 0.15166 0.69489 0.30500
O 	O 	0.89186 0.10130 0.83219 -0.45500
O 	O 	0.93677 0.14019 0.63693 -0.31600
O 	O 	0.93081 0.13698 0.74325 -0.54900
C 	C 	0.87870 0.06861 0.83296 0.27900
O 	O 	0.87514 0.05208 0.77646 -0.40900
Cd	Cd	0.94010 0.15097 0.48198 1.24200
Cd	Cd	0.01199 0.14892 0.36601 1.17800
O 	O 	0.88138 0.17609 0.44409 -0.32100
O 	O 	0.88602 0.14879 0.53694 -0.34400
C 	C 	0.86440 0.16271 0.49331 0.27500
O 	O 	0.98412 0.11736 0.52885 -0.37400
O 	O 	0.03092 0.14128 0.46957 -0.42100
C 	C 	0.01858 0.11637 0.50847 0.27100
C 	C 	0.93903 0.09643 0.38138 0.28900
O 	O 	0.97846 0.19598 0.41359 -0.45300
O 	O 	0.91680 0.08924 0.42881 -0.32300
O 	O 	0.95398 0.12831 0.38463 -0.53100
C 	C 	0.98665 0.21348 0.46776 0.29200
O 	O 	0.96910 0.20323 0.51934 -0.35000
C 	C 	0.69766 0.05911 0.70346 0.11700
N 	N 	0.70138 0.07075 0.76648 -0.14200
C 	C 	0.67781 0.05923 0.81242 0.12500
N 	N 	0.65073 0.03559 0.79536 -0.14200
C 	C 	0.64593 0.02498 0.73201 0.12500
N 	N 	0.66953 0.03662 0.68594 -0.14000
C 	C 	0.72936 0.10383 0.39681 0.12000
N 	N 	0.70560 0.08265 0.42926 -0.14200
C 	C 	0.67910 0.06390 0.39612 0.12900
N 	N 	0.67589 0.06701 0.33043 -0.14300
C 	C 	0.69999 0.08773 0.29774 0.12800
N 	N 	0.72647 0.10638 0.33108 -0.14100
Cd	Cd	0.15906 0.17838 0.28023 1.23900
Cd	Cd	0.14713 0.14057 0.43619 1.17400
O 	O 	0.21028 0.22056 0.26570 -0.32300
O 	O 	0.17272 0.20613 0.18550 -0.35300
C 	C 	0.19814 0.22802 0.20784 0.27300
O 	O 	0.11497 0.13662 0.26299 -0.39000
O 	O 	0.09802 0.13894 0.36977 -0.46900
C 	C 	0.09854 0.12180 0.31288 0.25000
C 	C 	0.20183 0.11751 0.31399 0.29700
O 	O 	0.14946 0.19975 0.40324 -0.45700
O 	O 	0.20583 0.12481 0.25234 -0.29800
O 	O 	0.18615 0.14276 0.34895 -0.53300
C 	C 	0.12190 0.21897 0.38248 0.29600
O 	O 	0.11685 0.21903 0.31960 -0.38600
Cd	Cd	0.10920 0.17645 0.95467 1.23800
Cd	Cd	0.11075 0.11798 0.81489 1.17500
O 	O 	0.14492 0.23214 0.94587 -0.32300
O 	O 	0.10967 0.22303 0.03048 -0.35700
C 	C 	0.13242 0.24432 0.00114 0.27700
O 	O 	0.06789 0.13250 0.97564 -0.39800
O 	O 	0.09388 0.09018 0.90599 -0.42700
C 	C 	0.06781 0.09983 0.94726 0.26400
C 	C 	0.06446 0.19340 0.84488 0.29500
O 	O 	0.15702 0.13990 0.88398 -0.45600
O 	O 	0.05512 0.21224 0.89668 -0.32600
O 	O 	0.09390 0.17392 0.85118 -0.54400
C 	C 	0.16849 0.12557 0.93797 0.29700
O 	O 	0.15531 0.13976 0.99158 -0.36000
C 	C 	0.15715 0.38656 0.95047 0.11800
N 	N 	0.17347 0.38218 0.89135 -0.13900
C 	C 	0.17081 0.40844 0.84652 0.12700
N 	N 	0.15388 0.44001 0.86246 -0.14400
C 	C 	0.13836 0.44485 0.92199 0.12900
N 	N 	0.14003 0.41813 0.96587 -0.14200
C 	C 	0.20230 0.37362 0.25774 0.11800
N 	N 	0.20770 0.37138 0.32320 -0.14000
C 	C 	0.19982 0.39994 0.36343 0.12700
N 	N 	0.18767 0.43120 0.33780 -0.14300
C 	C 	0.18134 0.43335 0.27275 0.12700
N 	N 	0.18888 0.40460 0.23272 -0.14300
Cd	Cd	0.16870 0.92691 0.78360 1.24100
Cd	Cd	0.10783 0.96155 0.90538 1.17600
O 	O 	0.20845 0.87601 0.81392 -0.32100
O 	O 	0.20970 0.89840 0.71630 -0.35300
C 	C 	0.22495 0.87698 0.75808 0.27600
O 	O 	0.13315 0.96630 0.72993 -0.37600
O 	O 	0.11906 0.99838 0.82318 -0.43000
C 	C 	0.11189 0.98954 0.76192 0.27500
C 	C 	0.10065 0.89175 0.80327 0.29700
O 	O 	0.17102 0.95564 0.90261 -0.45400
O 	O 	0.11680 0.87861 0.75106 -0.29200
O 	O 	0.12120 0.91196 0.84110 -0.53400
C 	C 	0.19403 0.97933 0.88051 0.29500
O 	O 	0.20516 0.97337 0.82111 -0.36700
Cd	Cd	0.18754 0.94776 0.54674 1.23900
Cd	Cd	0.12669 0.94666 0.40997 1.17800
O 	O 	0.23755 0.90357 0.53892 -0.32600
O 	O 	0.23676 0.94518 0.61667 -0.36100
C 	C 	0.25438 0.91836 0.58868 0.28700
O 	O 	0.15046 0.99642 0.56315 -0.38500
O 	O 	0.10337 0.97310 0.49972 -0.42500
C 	C 	0.11801 0.00012 0.53374 0.28600
C 	C 	0.20944 0.98236 0.43091 0.30200
O 	O 	0.14310 0.90288 0.48449 -0.45000
O 	O 	0.23176 0.98983 0.47935 -0.31000
O 	O 	0.18563 0.95720 0.44210 -0.54400
C 	C 	0.12738 0.89681 0.54019 0.29300
O 	O 	0.14297 0.91160 0.59166 -0.35600
C 	C 	0.37520 0.85132 0.81510 0.11800
N 	N 	0.40653 0.85924 0.78263 -0.14100
C 	C 	0.43725 0.86976 0.81622 0.12600
N 	N 	0.43765 0.86873 0.88237 -0.14400
C 	C 	0.40694 0.85931 0.91504 0.12500
N 	N 	0.37592 0.85022 0.88127 -0.13900
C 	C 	0.39954 0.90714 0.50681 0.11800
N 	N 	0.43217 0.92167 0.52644 -0.14500
C 	C 	0.45995 0.92494 0.48327 0.12700
N 	N 	0.45523 0.91324 0.42055 -0.14300
C 	C 	0.42286 0.89824 0.40086 0.12700
N 	N 	0.39528 0.89448 0.44443 -0.14100
C 	C 	0.40585 0.86339 0.98691 -0.03800
C 	C 	0.41634 0.89618 0.01887 0.09100
C 	C 	0.41940 0.89765 0.08711 -0.08200
C 	C 	0.40863 0.86832 0.12431 -0.00900
C 	C 	0.39525 0.83649 0.09258 0.07300
C 	C 	0.39486 0.83405 0.02403 -0.06500
N 	N 	0.42173 0.92669 0.98472 -0.19400
H 	H 	0.42880 0.92228 0.11155 0.05300
C 	C 	0.41006 0.87205 0.19656 -0.00500
N 	N 	0.38293 0.80824 0.12740 -0.19500
H 	H 	0.38602 0.80924 0.99958 0.05500
C 	C 	0.38386 0.89385 0.22822 -0.08700
C 	C 	0.38803 0.90368 0.29443 0.10000
C 	C 	0.41699 0.88834 0.33126 -0.05000
C 	C 	0.44204 0.86490 0.30031 -0.05300
C 	C 	0.43945 0.85729 0.23297 0.06900
H 	H 	0.36143 0.90514 0.20018 0.05300
N 	N 	0.36541 0.92918 0.32119 -0.19900
H 	H 	0.46421 0.85322 0.32845 0.04800
N 	N 	0.46539 0.83613 0.20367 -0.19400
H 	H 	0.34281 0.93861 0.29484 0.08400
H 	H 	0.37132 0.94169 0.36616 0.09500
H 	H 	0.48691 0.82533 0.23103 0.08200
H 	H 	0.46465 0.83028 0.15368 0.08800
H 	H 	0.37361 0.78470 0.10355 0.08200
H 	H 	0.38198 0.80948 0.17823 0.08800
H 	H 	0.41366 0.92829 0.93595 0.09200
H 	H 	0.43168 0.95011 0.00817 0.08100
C 	C 	0.29465 0.91505 0.59427 -0.07900
C 	C 	0.31622 0.94626 0.58979 -0.01500
C 	C 	0.35225 0.94399 0.56664 0.01000
C 	C 	0.36732 0.90997 0.54962 -0.01800
C 	C 	0.34779 0.87864 0.56391 -0.05200
C 	C 	0.31148 0.88095 0.58563 0.05000
S 	S 	0.37698 0.98406 0.55430 -0.04400
S 	S 	0.28643 0.84096 0.59655 -0.03700
H 	H 	0.27018 0.83037 0.53872 0.04500
H 	H 	0.39769 0.99227 0.60873 0.03200
H 	H 	0.30385 0.97255 0.59811 0.04400
H 	H 	0.35993 0.85241 0.55375 0.05000
C 	C 	0.33953 0.85592 0.78205 -0.01600
C 	C 	0.32769 0.89097 0.76969 -0.05000
C 	C 	0.29044 0.89833 0.76033 0.04800
C 	C 	0.26481 0.86962 0.75547 -0.07300
C 	C 	0.27731 0.83401 0.76158 -0.01300
C 	C 	0.31447 0.82707 0.77546 0.01300
S 	S 	0.27583 0.94348 0.76691 -0.03800
S 	S 	0.32922 0.78229 0.78469 -0.03800
H 	H 	0.34011 0.76840 0.72542 0.03600
H 	H 	0.28579 0.96249 0.71369 0.04600
H 	H 	0.34691 0.91319 0.77491 0.04500
H 	H 	0.25790 0.81185 0.75812 0.04300
C 	C 	0.19866 0.39523 0.43477 -0.04900
C 	C 	0.16642 0.40341 0.47049 0.10200
C 	C 	0.16800 0.40500 0.53880 -0.08600
C 	C 	0.19989 0.39464 0.57222 -0.00500
C 	C 	0.23114 0.38302 0.53651 0.06800
C 	C 	0.23050 0.38433 0.46798 -0.05300
N 	N 	0.13359 0.40799 0.43963 -0.19800
H 	H 	0.14377 0.41285 0.56617 0.05500
C 	C 	0.19928 0.39440 0.64462 -0.00600
N 	N 	0.26178 0.37093 0.56750 -0.19500
H 	H 	0.25492 0.37715 0.44058 0.05000
C 	C 	0.17853 0.36784 0.67500 -0.08600
C 	C 	0.16813 0.37215 0.74052 0.10000
C 	C 	0.18265 0.40142 0.77854 -0.04900
C 	C 	0.20626 0.42617 0.74950 -0.05300
C 	C 	0.21399 0.42353 0.68252 0.07000
H 	H 	0.16767 0.34536 0.64599 0.05300
N 	N 	0.14262 0.34948 0.76518 -0.19900
H 	H 	0.21761 0.44836 0.77864 0.04900
N 	N 	0.23509 0.44923 0.65492 -0.19400
H 	H 	0.13417 0.32657 0.73836 0.08500
H 	H 	0.12882 0.35569 0.80839 0.09400
H 	H 	0.24551 0.47079 0.68320 0.08400
H 	H 	0.24157 0.44804 0.60548 0.08900
H 	H 	0.28484 0.36287 0.54080 0.08300
H 	H 	0.26291 0.36899 0.61814 0.08700
H 	H 	0.13001 0.40060 0.39060 0.09200
H 	H 	0.11047 0.41641 0.46586 0.08400
C 	C 	0.17342 0.02604 0.96162 -0.01900
C 	C 	0.19648 0.01585 0.90982 -0.08700
C 	C 	0.21703 0.04239 0.87860 -0.00800
C 	C 	0.20993 0.07881 0.89141 -0.02200
C 	C 	0.18332 0.08890 0.93723 -0.08900
C 	C 	0.16701 0.06251 0.97552 -0.00600
H 	H 	0.15860 0.00585 0.98819 -0.01200
H 	H 	0.23658 0.03482 0.84112 0.04100
H 	H 	0.22372 0.09910 0.86340 0.02800
H 	H 	0.14722 0.07012 0.01258 0.03800
C 	C 	0.13668 0.28261 0.01968 -0.07400
C 	C 	0.17245 0.29666 0.02514 -0.01100
C 	C 	0.17930 0.33265 0.01024 0.01100
C 	C 	0.15014 0.35470 0.98989 -0.01300
C 	C 	0.11387 0.34254 0.99652 -0.05100
C 	C 	0.10699 0.30658 0.01168 0.04500
S 	S 	0.22429 0.34980 0.01723 -0.03600
S 	S 	0.06126 0.29141 0.01600 -0.05200
H 	H 	0.04905 0.28169 0.95473 0.04600
H 	H 	0.22903 0.36547 0.07789 0.03800
H 	H 	0.19525 0.27885 0.03574 0.04600
H 	H 	0.09112 0.36018 0.98481 0.04900
C 	C 	0.23182 0.02200 0.34483 -0.00500
C 	C 	0.20240 0.00961 0.38219 -0.11800
C 	C 	0.17077 0.03082 0.38826 -0.02600
C 	C 	0.17112 0.06639 0.36817 -0.01200
C 	C 	0.20157 0.07989 0.33506 -0.11200
C 	C 	0.23122 0.05698 0.32070 -0.00500
H 	H 	0.25621 0.00553 0.33856 0.03100
H 	H 	0.14726 0.02100 0.41446 -0.02200
H 	H 	0.14824 0.08360 0.38007 -0.05900
H 	H 	0.25450 0.06674 0.29364 0.03600
C 	C 	0.20214 0.34031 0.21721 -0.01800
C 	C 	0.16840 0.32419 0.20121 -0.05000
C 	C 	0.16635 0.28701 0.18843 0.04400
C 	C 	0.19900 0.26602 0.18763 -0.07500
C 	C 	0.23303 0.28396 0.18938 -0.01400
C 	C 	0.23480 0.32082 0.20626 0.01200
S 	S 	0.12264 0.26708 0.17857 -0.03100
S 	S 	0.27789 0.34196 0.21525 -0.03900
H 	H 	0.28815 0.35571 0.15676 0.03400
H 	H 	0.10396 0.26962 0.23614 0.03800
H 	H 	0.14331 0.33985 0.20530 0.04800
H 	H 	0.25823 0.26853 0.18474 0.04300
C 	C 	0.49206 0.94715 0.50071 -0.05000
C 	C 	0.52496 0.93119 0.52286 0.09600
C 	C 	0.55778 0.95107 0.52213 -0.08100
C 	C 	0.55827 0.98615 0.49803 -0.01700
C 	C 	0.52470 0.00302 0.48071 0.08100
C 	C 	0.49176 0.98357 0.48445 -0.06000
N 	N 	0.52534 0.89662 0.54345 -0.19900
H 	H 	0.58336 0.93849 0.53668 0.05300
C 	C 	0.59405 0.00222 0.48083 0.00800
N 	N 	0.52403 0.03722 0.45812 -0.19600
H 	H 	0.46613 0.99603 0.46970 0.04800
C 	C 	0.61272 0.98833 0.42624 -0.09900
C 	C 	0.64409 0.00568 0.40332 0.11200
C 	C 	0.65444 0.03949 0.43112 -0.05500
C 	C 	0.63823 0.05144 0.48969 -0.04900
C 	C 	0.60863 0.03242 0.51592 0.06700
H 	H 	0.60290 0.96388 0.40177 0.05700
N 	N 	0.66516 0.98905 0.35716 -0.20100
H 	H 	0.64769 0.07620 0.51356 0.05100
N 	N 	0.59365 0.04385 0.57332 -0.19200
H 	H 	0.65614 0.96527 0.33371 0.08300
H 	H 	0.69182 0.99791 0.34814 0.08800
H 	H 	0.60429 0.06644 0.59848 0.08600
H 	H 	0.57189 0.03002 0.59420 0.09100
H 	H 	0.49905 0.04938 0.44600 0.08400
H 	H 	0.54805 0.05195 0.45144 0.09000
H 	H 	0.50099 0.88228 0.54988 0.09100
H 	H 	0.55018 0.88397 0.55466 0.08300
C 	C 	0.46924 0.88515 0.78179 -0.04900
C 	C 	0.46479 0.90918 0.72935 0.10100
C 	C 	0.49606 0.92409 0.70072 -0.08700
C 	C 	0.53055 0.92166 0.73138 -0.00600
C 	C 	0.53513 0.89780 0.78385 0.07000
C 	C 	0.50477 0.87816 0.80559 -0.05400
N 	N 	0.43096 0.92073 0.71061 -0.19900
H 	H 	0.49272 0.94182 0.65984 0.05700
C 	C 	0.55849 0.94975 0.71814 -0.00300
N 	N 	0.56815 0.89438 0.81476 -0.19500
H 	H 	0.50849 0.85904 0.84424 0.05100
C 	C 	0.55130 0.98550 0.73795 -0.09100
C 	C 	0.57849 0.01206 0.73349 0.10200
C 	C 	0.61421 0.00213 0.71341 -0.04800
C 	C 	0.62026 0.96749 0.68653 -0.05700
C 	C 	0.59241 0.94116 0.68784 0.06700
H 	H 	0.52458 0.99259 0.75754 0.05400
N 	N 	0.57007 0.04712 0.74736 -0.20000
H 	H 	0.64720 0.96039 0.66793 0.04800
N 	N 	0.59886 0.90757 0.66236 -0.19500
H 	H 	0.54414 0.05416 0.76523 0.08300
H 	H 	0.58846 0.06782 0.73711 0.08500
H 	H 	0.62406 0.90142 0.64064 0.07900
H 	H 	0.57885 0.88742 0.66312 0.08500
H 	H 	0.57122 0.87634 0.85275 0.08400
H 	H 	0.59083 0.90994 0.80264 0.08900
H 	H 	0.40912 0.92145 0.74317 0.09200
H 	H 	0.42761 0.93407 0.66670 0.09000
C 	C 	0.68273 0.07105 0.88138 -0.04700
C 	C 	0.65222 0.08096 0.92044 0.09600
C 	C 	0.65683 0.08484 0.98823 -0.07500
C 	C 	0.69195 0.08318 0.01666 -0.01700
C 	C 	0.72306 0.07751 0.97658 0.08000
C 	C 	0.71802 0.07030 0.90956 -0.05800
N 	N 	0.61905 0.08846 0.89296 -0.19700
H 	H 	0.63316 0.09021 0.01878 0.05000
C 	C 	0.69558 0.08520 0.08872 -0.00100
N 	N 	0.75771 0.07944 0.00190 -0.19900
H 	H 	0.74159 0.06377 0.87945 0.05200
C 	C 	0.70367 0.05365 0.12227 -0.08800
C 	C 	0.70780 0.05455 0.19032 0.10200
C 	C 	0.70000 0.08682 0.22590 -0.05100
C 	C 	0.69183 0.11839 0.19252 -0.05100
C 	C 	0.69050 0.11815 0.12404 0.06700
H 	H 	0.70811 0.02859 0.09507 0.05600
N 	N 	0.72078 0.02495 0.22081 -0.19900
H 	H 	0.68675 0.14329 0.21985 0.04800
N 	N 	0.68494 0.14960 0.09265 -0.19400
H 	H 	0.72433 0.00060 0.19485 0.08500
H 	H 	0.72986 0.02645 0.26918 0.09000
H 	H 	0.68027 0.17358 0.11916 0.08200
H 	H 	0.68630 0.15084 0.04197 0.08600
H 	H 	0.78048 0.07483 0.97210 0.09200
H 	H 	0.76249 0.08698 0.05058 0.08900
H 	H 	0.61638 0.09230 0.84294 0.09000
H 	H 	0.59610 0.09337 0.92223 0.08400
C 	C 	0.05035 0.21591 0.50994 -0.02400
C 	C 	0.02205 0.23206 0.47405 -0.08500
C 	C 	0.03147 0.25683 0.42656 -0.02600
C 	C 	0.06735 0.25743 0.40303 -0.00700
C 	C 	0.09336 0.23292 0.42671 -0.10600
C 	C 	0.08602 0.21525 0.48493 -0.00600
H 	H 	0.04382 0.19951 0.55127 0.04700
H 	H 	0.01019 0.27191 0.40198 0.03200
H 	H 	0.07367 0.27367 0.36139 0.03400
H 	H 	0.10661 0.19815 0.50676 -0.02300
C 	C 	0.08290 0.09537 0.53106 -0.02200
C 	C 	0.04469 0.08933 0.53434 -0.07600
C 	C 	0.03195 0.05528 0.55198 -0.02600
C 	C 	0.05667 0.02665 0.55877 -0.01300
C 	C 	0.09455 0.03179 0.54887 -0.06900
C 	C 	0.10767 0.06668 0.53803 -0.04000
H 	H 	0.09332 0.12182 0.51967 -0.04000
H 	H 	0.00273 0.05028 0.55617 0.02400
H 	H 	0.04610 0.99989 0.56722 0.02100
H 	H 	0.13673 0.07115 0.53038 -0.01200
C 	C 	0.82730 0.14797 0.48279 -0.07100
C 	C 	0.82331 0.11048 0.47470 -0.01500
C 	C 	0.79106 0.09572 0.44813 0.01800
C 	C 	0.76187 0.11856 0.43071 -0.01800
C 	C 	0.76514 0.15593 0.44103 -0.05000
C 	C 	0.79788 0.17080 0.46603 0.04600
S 	S 	0.78879 0.04888 0.43173 -0.04700
S 	S 	0.80199 0.21800 0.47485 -0.03900
H 	H 	0.79015 0.22907 0.53532 0.03800
H 	H 	0.76965 0.03244 0.47992 0.04000
H 	H 	0.84622 0.09287 0.48556 0.05600
H 	H 	0.74262 0.17351 0.42778 0.04800
C 	C 	0.07812 0.04538 0.73794 -0.01100
C 	C 	0.08150 0.00796 0.72866 -0.06700
C 	C 	0.05054 0.98798 0.70787 -0.03400
C 	C 	0.01566 0.00423 0.70749 -0.00600
C 	C 	0.01185 0.04065 0.72673 -0.08700
C 	C 	0.04336 0.06134 0.74008 -0.03200
H 	H 	0.10208 0.06136 0.75100 -0.06700
H 	H 	0.05297 0.95930 0.69749 0.03800
H 	H 	0.99157 0.98805 0.69596 0.00600
H 	H 	0.04076 0.08906 0.75675 -0.03700
C 	C 	0.97984 0.20407 0.74275 -0.03200
C 	C 	0.98125 0.17194 0.70553 -0.09600
C 	C 	0.01505 0.15407 0.69843 -0.04900
C 	C 	0.04472 0.16374 0.73920 -0.00500
C 	C 	0.04039 0.19135 0.78659 -0.13200
C 	C 	0.00933 0.21376 0.78340 -0.01500
H 	H 	0.95446 0.21930 0.74572 0.03000
H 	H 	0.01717 0.13047 0.66647 0.04000
H 	H 	0.06998 0.14842 0.73652 -0.07200
H 	H 	0.00679 0.23701 0.81610 0.03200
C 	C 	0.79580 0.09271 0.62089 -0.08000
C 	C 	0.78628 0.05603 0.61438 -0.01800
C 	C 	0.75116 0.04441 0.63199 0.01400
C 	C 	0.72524 0.06974 0.65539 -0.01700
C 	C 	0.73228 0.10658 0.64805 -0.05300
C 	C 	0.76753 0.11828 0.63164 0.05100
S 	S 	0.74084 0.99803 0.62854 -0.05300
S 	S 	0.77628 0.16485 0.62807 -0.03900
H 	H 	0.78538 0.17814 0.68898 0.04500
H 	H 	0.74886 0.98335 0.68759 0.03000
H 	H 	0.80696 0.03627 0.60071 0.03900
H 	H 	0.71141 0.12623 0.66138 0.04800
C 	C 	0.05921 0.62601 0.26312 -0.05100
C 	C 	0.09247 0.62033 0.29762 0.10000
C 	C 	0.11265 0.58867 0.28545 -0.08600
C 	C 	0.10132 0.56360 0.23700 -0.00600
C 	C 	0.06965 0.57081 0.19879 0.06800
C 	C 	0.04876 0.60191 0.21259 -0.05300
N 	N 	0.10543 0.64539 0.34162 -0.19900
H 	H 	0.13716 0.58337 0.31410 0.05500
C 	C 	0.12042 0.52826 0.23189 -0.00500
N 	N 	0.05897 0.54787 0.14946 -0.19400
H 	H 	0.02380 0.60687 0.18496 0.04800
C 	C 	0.10206 0.49727 0.25211 -0.08600
C 	C 	0.12092 0.46453 0.25813 0.10100
C 	C 	0.15935 0.46347 0.24827 -0.05000
C 	C 	0.17731 0.49370 0.22407 -0.05200
C 	C 	0.15799 0.52599 0.21440 0.06800
H 	H 	0.07309 0.49877 0.26401 0.05400
N 	N 	0.10206 0.43425 0.27332 -0.20000
H 	H 	0.20657 0.49246 0.21452 0.04700
N 	N 	0.17560 0.55463 0.18869 -0.19500
H 	H 	0.07399 0.43556 0.28357 0.08200
H 	H 	0.11466 0.40894 0.27220 0.08800
H 	H 	0.20359 0.55310 0.17785 0.08100
H 	H 	0.16145 0.57811 0.17695 0.08400
H 	H 	0.03443 0.55228 0.12414 0.08200
H 	H 	0.07529 0.52606 0.13462 0.08900
H 	H 	0.09311 0.67070 0.34708 0.09000
H 	H 	0.12919 0.64031 0.36885 0.08300
C 	C 	0.00552 0.63382 0.94497 -0.05700
C 	C 	0.99464 0.60358 0.98089 0.10800
C 	C 	0.01885 0.57434 0.98664 -0.08800
C 	C 	0.05337 0.57469 0.95670 -0.00500
C 	C 	0.06510 0.60592 0.92436 0.06900
C 	C 	0.04122 0.63546 0.92003 -0.04900
N 	N 	0.96082 0.60204 0.00856 -0.20200
H 	H 	0.01001 0.55042 0.01149 0.04700
C 	C 	0.07440 0.54059 0.95139 -0.00500
N 	N 	0.09877 0.60739 0.89606 -0.19400
H 	H 	0.04978 0.65914 0.89409 0.04800
C 	C 	0.06270 0.51402 0.90611 -0.08700
C 	C 	0.08204 0.48152 0.89864 0.10100
C 	C 	0.11482 0.47639 0.93483 -0.05200
C 	C 	0.12591 0.50239 0.98173 -0.05000
C 	C 	0.10585 0.53446 0.99077 0.06900
H 	H 	0.03817 0.51852 0.87704 0.05400
N 	N 	0.06856 0.45508 0.85790 -0.19900
H 	H 	0.15057 0.49794 0.01050 0.04500
N 	N 	0.11737 0.55950 0.03603 -0.19700
H 	H 	0.04515 0.45968 0.82944 0.08300
H 	H 	0.08008 0.42929 0.85619 0.09100
H 	H 	0.14126 0.55519 0.06330 0.08400
H 	H 	0.10252 0.58313 0.04538 0.08800
H 	H 	0.10701 0.63052 0.87201 0.08400
H 	H 	0.11710 0.58579 0.89757 0.08900
H 	H 	0.94219 0.62334 0.00556 0.09100
H 	H 	0.95294 0.57937 0.03430 0.08200
C 	C 	0.94304 0.69638 0.76991 -0.05000
C 	C 	0.93014 0.66740 0.72976 0.10000
C 	C 	0.93623 0.66782 0.66229 -0.08600
C 	C 	0.95328 0.69747 0.63411 -0.00600
C 	C 	0.96138 0.72857 0.67311 0.06900
C 	C 	0.95665 0.72753 0.74099 -0.05400
N 	N 	0.91166 0.63936 0.75566 -0.19900
H 	H 	0.92840 0.64470 0.63187 0.05400
C 	C 	0.96527 0.69439 0.56518 -0.00300
N 	N 	0.97427 0.75912 0.64594 -0.19400
H 	H 	0.96526 0.75034 0.77155 0.05000
C 	C 	0.93897 0.69729 0.51523 -0.08700
C 	C 	0.94881 0.69197 0.44957 0.10000
C 	C 	0.98622 0.68621 0.43349 -0.04700
C 	C 	0.01256 0.68354 0.48346 -0.05600
C 	C 	0.00237 0.68673 0.54923 0.06800
H 	H 	0.91049 0.70249 0.52763 0.05300
N 	N 	0.92212 0.69092 0.40275 -0.19900
H 	H 	0.04114 0.67883 0.47114 0.04800
N 	N 	0.02820 0.68212 0.59664 -0.19400
H 	H 	0.89490 0.69707 0.41459 0.08400
H 	H 	0.92764 0.68196 0.35521 0.09400
H 	H 	0.05561 0.67720 0.58431 0.08300
H 	H 	0.02137 0.68255 0.64595 0.08900
H 	H 	0.98135 0.78154 0.67529 0.08200
H 	H 	0.97636 0.76131 0.59547 0.08800
H 	H 	0.90374 0.63995 0.80449 0.09100
H 	H 	0.90352 0.61732 0.72622 0.08400
C 	C 	0.98149 0.05199 0.00007 -0.03100
C 	C 	0.99149 0.01567 0.98923 -0.05600
C 	C 	0.02822 0.00722 0.97556 -0.03300
C 	C 	0.05395 0.03483 0.96717 -0.02200
C 	C 	0.04307 0.07131 0.97154 -0.07700
C 	C 	0.00704 0.07970 0.99057 -0.03700
H 	H 	0.95351 0.05882 0.01292 0.02500
H 	H 	0.03642 0.97937 0.96755 -0.02900
H 	H 	0.08195 0.02783 0.95441 -0.02400
H 	H 	0.99828 0.10756 0.99501 0.00000
C 	C 	0.86744 0.02990 0.99497 -0.01100
C 	C 	0.84501 0.00088 0.97438 -0.08700
C 	C 	0.82029 0.00638 0.92286 -0.02300
C 	C 	0.82744 0.03367 0.87910 -0.02500
C 	C 	0.85828 0.05596 0.88936 -0.09900
C 	C 	0.87481 0.05733 0.95128 -0.01400
H 	H 	0.88382 0.02804 0.03907 0.04400
H 	H 	0.79971 0.98616 0.91061 0.02800
H 	H 	0.81178 0.03483 0.83406 0.03500
H 	H 	0.89633 0.07675 0.96238 0.00500
C 	C 	0.00209 0.86262 0.81540 -0.01200
C 	C 	0.98653 0.89398 0.84346 -0.11800
C 	C 	0.00577 0.92655 0.84025 -0.03400
C 	C 	0.04299 0.92622 0.82455 -0.01900
C 	C 	0.06036 0.89360 0.80707 -0.10700
C 	C 	0.03916 0.86234 0.79781 -0.00300
H 	H 	0.98680 0.83753 0.81457 0.03300
H 	H 	0.99328 0.95141 0.85796 -0.02300
H 	H 	0.05852 0.95095 0.82859 -0.05900
H 	H 	0.05188 0.83732 0.78150 0.03700
C 	C 	0.91864 0.81047 0.05570 -0.07800
C 	C 	0.95505 0.80473 0.03570 -0.01000
C 	C 	0.96509 0.77239 0.00429 0.01000
C 	C 	0.93864 0.74516 0.99349 -0.00800
C 	C 	0.90371 0.74891 0.02126 -0.05800
C 	C 	0.89382 0.78130 0.05326 0.04800
S 	S 	0.01032 0.76707 0.97564 -0.02800
S 	S 	0.85027 0.78525 0.08935 -0.04600
H 	H 	0.85268 0.77519 0.15303 0.03500
H 	H 	0.03084 0.74953 0.02128 0.03600
H 	H 	0.97496 0.82637 0.04058 0.05600
H 	H 	0.88388 0.72718 0.01610 0.04800
C 	C 	0.08931 0.02223 0.26869 -0.02300
C 	C 	0.06583 0.01106 0.31851 -0.10800
C 	C 	0.05068 0.03695 0.36137 -0.01800
C 	C 	0.05899 0.07328 0.35526 -0.03000
C 	C 	0.08343 0.08468 0.30753 -0.10800
C 	C 	0.09816 0.05898 0.26328 -0.01000
H 	H 	0.10133 0.00256 0.23526 0.02200
H 	H 	0.03182 0.02900 0.39900 -0.02700
H 	H 	0.04667 0.09262 0.38830 -0.04200
H 	H 	0.11759 0.06712 0.22672 0.03800
C 	C 	0.97888 0.03689 0.25095 -0.03200
C 	C 	0.95220 0.00948 0.24990 -0.09800
C 	C 	0.91710 0.01707 0.27408 -0.03000
C 	C 	0.91089 0.04903 0.30963 -0.01300
C 	C 	0.94002 0.07318 0.32213 -0.11700
C 	C 	0.97270 0.06890 0.28704 -0.00800
H 	H 	0.00539 0.03220 0.22864 0.03700
H 	H 	0.89568 0.99679 0.27074 0.02600
H 	H 	0.88446 0.05339 0.33251 0.03700
H 	H 	0.99410 0.08911 0.29109 -0.04000
C 	C 	0.04966 0.84747 0.47229 -0.00100
C 	C 	0.02739 0.87789 0.46333 -0.11000
C 	C 	0.03020 0.90679 0.50861 0.00000
C 	C 	0.06109 0.90922 0.54952 -0.03300
C 	C 	0.08945 0.88387 0.54180 -0.07300
C 	C 	0.08125 0.85066 0.51107 -0.02300
H 	H 	0.04570 0.82349 0.44178 0.03500
H 	H 	0.01130 0.92931 0.50636 -0.03800
H 	H 	0.06529 0.93317 0.57993 0.04700
H 	H 	0.10164 0.82937 0.50955 0.03800
C 	C 	0.99806 0.74092 0.21931 -0.01000
C 	C 	0.02821 0.75856 0.19212 -0.05900
C 	C 	0.02423 0.79353 0.16853 0.04500
C 	C 	0.99043 0.81194 0.17704 -0.07600
C 	C 	0.95922 0.79187 0.19375 -0.01200
C 	C 	0.96283 0.75624 0.21342 0.01200
S 	S 	0.06005 0.81203 0.12283 -0.04700
S 	S 	0.92313 0.73073 0.22835 -0.04200
H 	H 	0.91128 0.71465 0.17111 0.03500
H 	H 	0.08448 0.82935 0.16403 0.03300
H 	H 	0.05492 0.74561 0.19113 0.05000
H 	H 	0.93241 0.80463 0.19485 0.05200
