data_crystal

_cell_length_a 19.46140
_cell_length_b 16.36596
_cell_length_c 47.71824
_cell_angle_alpha 89.64648
_cell_angle_beta  89.65215
_cell_angle_gamma 119.50241

_symmetry_space_group_name_	'P 1'
_symmetry_space_group_name_H-M	'P 1'

loop_
_symmetry_equiv_pos_as_xyz
  x,y,z

loop_
_atom_site_label
_atom_site_type_symbol
_atom_site_fract_x
_atom_site_fract_y
_atom_site_fract_z
_atom_site_charge
O 	O 	0.03874 0.06727 0.68056 -0.29500
H 	H 	0.03707 0.07415 0.75786 0.18500
C 	C 	0.03926 0.57451 0.44876 0.05100
F 	F 	0.04492 0.10517 0.89981 -0.36800
C 	C 	0.18445 0.17701 0.76801 0.28200
C 	C 	0.18350 0.03482 0.70579 0.33900
Ni	Ni	0.07813 0.96751 0.75549 1.12300
Ni	Ni	0.09251 0.13821 0.71532 1.14300
O 	O 	0.18126 0.09422 0.76458 -0.32200
O 	O 	0.15963 0.21324 0.74800 -0.26600
O 	O 	0.12455 0.96021 0.71718 -0.32100
O 	O 	0.18536 0.11646 0.70654 -0.32300
C 	C 	0.16727 0.57538 0.44516 0.31900
O 	O 	0.23809 0.61734 0.45562 -0.35900
O 	O 	0.15347 0.52889 0.42152 -0.31800
C 	C 	0.20205 0.71934 0.99448 0.29700
O 	O 	0.21015 0.74156 0.02142 -0.34200
C 	C 	0.96914 0.19923 0.18538 0.29400
C 	C 	0.09875 0.03308 0.19514 0.34600
C 	C 	0.06354 0.00932 0.26719 0.32200
Ni	Ni	0.03804 0.13497 0.22976 1.15100
O 	O 	0.11743 0.10351 0.21226 -0.31200
O 	O 	0.02663 0.18203 0.19149 -0.26900
O 	O 	0.02796 0.93703 0.24952 -0.30600
O 	O 	0.05480 0.08472 0.26586 -0.30500
O 	O 	0.98356 0.19848 0.24956 -0.27300
O 	O 	0.02501 0.97610 0.18911 -0.34200
C 	C 	0.05585 0.30256 0.06094 0.02500
C 	C 	0.02327 0.35093 0.07491 0.14800
C 	C 	0.03071 0.43401 0.06264 -0.11700
C 	C 	0.08444 0.47678 0.04011 0.08100
C 	C 	0.12697 0.43517 0.02931 -0.00500
C 	C 	0.10224 0.34105 0.03669 -0.04100
C 	C 	0.99815 0.32611 0.10464 0.04800
H 	H 	0.09912 0.54636 0.03304 0.06400
C 	C 	0.13149 0.28497 0.02045 0.77700
H 	H 	0.04969 0.23846 0.07001 0.16400
C 	C 	0.97369 0.25098 0.15932 0.00700
C 	C 	0.03942 0.34021 0.15341 -0.03700
C 	C 	0.05345 0.37424 0.12566 0.07700
C 	C 	0.09598 0.39822 0.17625 0.78200
H 	H 	0.10835 0.43699 0.12020 0.10800
F 	F 	0.07922 0.18970 0.02322 -0.34100
F 	F 	0.20434 0.30355 0.03038 -0.40200
F 	F 	0.99993 0.55881 0.06076 -0.44500
F 	F 	0.05653 0.38598 0.20151 -0.34700
C 	C 	0.23903 0.75355 0.16044 0.04800
C 	C 	0.17578 0.77163 0.15949 0.11300
C 	C 	0.11187 0.71732 0.14149 -0.09900
C 	C 	0.12370 0.66926 0.11934 0.09100
C 	C 	0.19482 0.66771 0.11711 0.00500
C 	C 	0.24416 0.69355 0.14076 -0.04200
C 	C 	0.18597 0.86062 0.17104 0.09500
C 	C 	0.03486 0.71888 0.14377 0.81000
H 	H 	0.08262 0.64420 0.10218 0.13300
C 	C 	0.17592 0.87052 0.20004 -0.08800
C 	C 	0.16710 0.94674 0.20875 0.06400
C 	C 	0.15690 0.00320 0.18890 0.02300
C 	C 	0.18114 0.00388 0.16099 -0.01800
C 	C 	0.19628 0.93242 0.15227 0.01800
C 	C 	0.17564 0.80157 0.22162 0.79000
H 	H 	0.16008 0.95631 0.23073 0.08600
C 	C 	0.18195 0.07354 0.13979 0.77400
H 	H 	0.20900 0.92765 0.13037 0.12000
F 	F 	0.03923 0.79169 0.12759 -0.39000
F 	F 	0.10705 0.03962 0.12901 -0.37400
F 	F 	0.23407 0.08770 0.11800 -0.37300
F 	F 	0.15148 0.81473 0.24776 -0.38100
F 	F 	0.25098 0.81425 0.22405 -0.37200
F 	F 	0.12459 0.71003 0.21387 -0.34000
C 	C 	0.99834 0.21521 0.40323 -0.03200
C 	C 	0.02126 0.18663 0.37888 0.18000
C 	C 	0.13074 0.27790 0.42089 0.00900
C 	C 	0.05163 0.25441 0.42539 -0.03800
C 	C 	0.98139 0.18309 0.35209 0.00800
C 	C 	0.02568 0.27937 0.45219 0.80000
C 	C 	0.92818 0.17034 0.29678 0.05300
C 	C 	0.98451 0.25868 0.30752 -0.13000
C 	C 	0.01374 0.26295 0.33464 0.12800
C 	C 	0.01406 0.34837 0.29040 0.82800
H 	H 	0.06278 0.32802 0.34201 0.09600
F 	F 	0.01974 0.35918 0.44793 -0.42200
F 	F 	0.07873 0.29493 0.47342 -0.38100
F 	F 	0.95703 0.34224 0.27200 -0.37600
C 	C 	0.20194 0.70589 0.32437 0.78700
H 	H 	0.25706 0.86660 0.29413 0.16400
C 	C 	0.20237 0.06729 0.28026 0.06600
C 	C 	0.12200 0.01036 0.28669 0.05900
C 	C 	0.09870 0.95249 0.31092 -0.06400
C 	C 	0.15706 0.95191 0.32791 0.07700
C 	C 	0.01251 0.88207 0.31663 0.82500
H 	H 	0.13993 0.90638 0.34624 0.13300
F 	F 	0.20602 0.63360 0.33765 -0.40600
F 	F 	0.20178 0.69206 0.29578 -0.31700
F 	F 	0.13121 0.70094 0.33186 -0.37700
C 	C 	0.10017 0.56763 0.46211 -0.02300
C 	C 	0.09403 0.54791 0.49128 0.04400
H 	H 	0.04577 0.59571 0.42688 0.09200
C 	C 	0.15556 0.54060 0.50594 0.17100
N 	N 	0.20475 0.53463 0.51771 -0.05500
C 	C 	0.18354 0.88630 0.66930 0.78300
F 	F 	0.14655 0.82562 0.69160 -0.38800
F 	F 	0.19798 0.83726 0.64871 -0.36300
F 	F 	0.13342 0.91539 0.65829 -0.40100
C 	C 	0.04946 0.62573 0.93737 0.06900
C 	C 	0.12129 0.68425 0.95045 0.02600
C 	C 	0.12541 0.68727 0.98011 -0.02400
C 	C 	0.05518 0.64588 0.99578 0.04200
H 	H 	0.04719 0.62119 0.91468 0.09300
H 	H 	0.05699 0.65660 0.01817 0.12500
C 	C 	0.18830 0.74757 0.93332 0.15800
F 	F 	0.07576 0.44638 0.76475 -0.34500
F 	F 	0.18903 0.38608 0.76116 -0.35600
F 	F 	0.10086 0.26938 0.78948 -0.40200
F 	F 	0.04350 0.90650 0.96718 -0.36300
H 	H 	0.28626 0.78998 0.17525 0.15500
F 	F 	0.03292 0.42381 0.30779 -0.35500
C 	C 	0.27705 0.87839 0.31565 0.01500
C 	C 	0.26915 0.80252 0.33172 -0.03000
C 	C 	0.23639 0.99763 0.31914 0.07100
C 	C 	0.17447 0.34919 0.78806 0.78500
F 	F 	0.13824 0.30824 0.99227 -0.38400
F 	F 	0.20530 0.15935 0.15223 -0.37600
F 	F 	0.08107 0.36546 0.27549 -0.35100
C 	C 	0.25735 0.03379 0.69893 0.02000
C 	C 	0.23068 0.68079 0.08913 0.31300
N 	N 	0.24190 0.79830 0.91958 -0.05400
C 	C 	0.19060 0.37791 0.42109 0.28800
Ni	Ni	0.23684 0.55565 0.39104 1.14700
O 	O 	0.21513 0.42353 0.44544 -0.28800
O 	O 	0.21055 0.42186 0.39652 -0.34400
C 	C 	0.20976 0.49701 0.02050 0.30600
O 	O 	0.23147 0.61033 0.07673 -0.33400
F 	F 	0.15304 0.37199 0.17943 -0.36200
C 	C 	0.09293 0.18312 0.37907 -0.12300
C 	C 	0.28590 0.95850 0.32916 0.12900
C 	C 	0.26009 0.05905 0.29559 -0.05000
H 	H 	0.21948 0.11234 0.26182 0.10900
F 	F 	0.26145 0.03880 0.38856 -0.39700
C 	C 	0.25923 0.97032 0.67927 -0.06700
C 	C 	0.23268 0.23857 0.79135 0.02800
F 	F 	0.17301 0.41448 0.80601 -0.36200
C 	C 	0.14438 0.22264 0.40186 0.09800
F 	F 	0.05905 0.08306 0.33948 -0.38400
O 	O 	0.25668 0.68749 0.38910 -0.33400
O 	O 	0.22714 0.54892 0.99742 -0.32800
O 	O 	0.26281 0.72912 0.97974 -0.35300
F 	F 	0.13259 0.49277 0.16942 -0.36200
O 	O 	0.03362 0.03777 0.74107 -0.69800
C 	C 	0.23901 0.32769 0.79627 -0.05600
C 	C 	0.31533 0.75138 0.37414 0.32600
Ni	Ni	0.31190 0.56069 0.45168 1.12500
O 	O 	0.29576 0.56523 0.35441 -0.25500
O 	O 	0.27031 0.76651 0.07876 -0.33200
O 	O 	0.26572 0.50300 0.03672 -0.32400
C 	C 	0.30292 0.65970 0.14498 0.78300
F 	F 	0.28864 0.58636 0.12732 -0.41900
F 	F 	0.29789 0.62844 0.17232 -0.32600
C 	C 	0.12143 0.15435 0.35337 0.79600
H 	H 	0.20212 0.22799 0.40119 0.10600
F 	F 	0.16028 0.23069 0.33546 -0.41800
C 	C 	0.31753 0.97779 0.35658 -0.13200
C 	C 	0.30422 0.82167 0.35860 -0.00900
F 	F 	0.34987 0.04220 0.26581 -0.37700
C 	C 	0.32831 0.10346 0.71032 0.08700
H 	H 	0.32655 0.14836 0.72661 0.10800
C 	C 	0.27827 0.21148 0.80763 0.08500
H 	H 	0.26932 0.14094 0.80600 0.11400
F 	F 	0.06285 0.06189 0.56695 -0.35600
F 	F 	0.05672 0.31446 0.53118 -0.36400
F 	F 	0.17292 0.12262 0.36079 -0.38500
C 	C 	0.33293 0.98640 0.66890 0.00500
C 	C 	0.33002 0.91018 0.37051 0.09500
C 	C 	0.32829 0.06317 0.37251 0.81200
O 	O 	0.32633 0.58492 0.41314 -0.72300
H 	H 	0.33665 0.53403 0.40766 0.16400
Ni	Ni	0.33375 0.62356 0.05899 1.13200
Ni	Ni	0.31798 0.80525 0.03950 1.12900
Ni	Ni	0.33018 0.67421 0.99164 1.13100
C 	C 	0.34383 0.10393 0.28397 0.78200
F 	F 	0.34117 0.13655 0.35476 -0.35900
F 	F 	0.36258 0.18592 0.26945 -0.35000
H 	H 	0.35109 0.88181 0.45030 0.07600
H 	H 	0.33536 0.94195 0.65265 0.14700
F 	F 	0.37284 0.20352 0.59331 -0.38600
N 	N 	0.28774 0.41131 0.96234 -0.02400
C 	C 	0.30543 0.39611 0.81044 0.04900
H 	H 	0.31728 0.46813 0.81098 0.13300
H 	H 	0.37394 0.46168 0.87366 0.11700
F 	F 	0.24958 0.54021 0.30073 -0.33700
N 	N 	0.38399 0.11080 0.45410 -0.03900
O 	O 	0.34087 0.70676 0.03046 -0.71300
F 	F 	0.37837 0.73290 0.14018 -0.38100
O 	O 	0.40208 0.68951 0.46579 -0.33700
O 	O 	0.36814 0.87832 0.00397 -0.35300
C 	C 	0.40123 0.90892 0.46426 -0.00300
C 	C 	0.40135 0.12134 0.69912 -0.10300
C 	C 	0.33613 0.27590 0.82573 -0.08900
F 	F 	0.00046 0.84928 0.34403 -0.35000
H 	H 	0.40942 0.19631 0.64016 0.12500
C 	C 	0.36187 0.56014 0.35175 0.27800
H 	H 	0.40262 0.42451 0.34638 0.09800
F 	F 	0.39861 0.12643 0.30500 -0.34200
C 	C 	0.40839 0.06315 0.46201 0.15500
N 	N 	0.37208 0.33929 0.40078 -0.05600
C 	C 	0.40260 0.06854 0.67591 0.13900
F 	F 	0.42007 0.13529 0.56470 -0.41100
N 	N 	0.42522 0.04043 0.04610 -0.04600
C 	C 	0.34366 0.42498 0.97447 0.18800
C 	C 	0.35583 0.37142 0.82429 0.10100
F 	F 	0.96534 0.92217 0.31225 -0.37700
F 	F 	0.33998 0.14531 0.84745 -0.38100
C 	C 	0.41646 0.76999 0.45437 0.30400
O 	O 	0.38118 0.74788 0.37084 -0.32200
O 	O 	0.39701 0.51924 0.44944 -0.32900
F 	F 	0.45232 0.32568 0.32024 -0.34700
H 	H 	0.35513 0.92415 0.39132 0.07000
C 	C 	0.43311 0.85150 0.47208 -0.04700
C 	C 	0.37335 0.24208 0.84744 0.79000
F 	F 	0.36270 0.26855 0.87387 -0.41000
C 	C 	0.37632 0.52304 0.32561 0.02600
C 	C 	0.44152 0.20613 0.58407 0.78100
C 	C 	0.43882 0.00374 0.47194 0.03400
Ni	Ni	0.42125 0.68906 0.39938 1.13100
O 	O 	0.42280 0.60711 0.36862 -0.34500
O 	O 	0.39892 0.61135 0.99296 -0.31600
O 	O 	0.40420 0.73853 0.08431 -0.28100
H 	H 	0.39869 0.74272 0.02930 0.14500
C 	C 	0.41178 0.46655 0.32764 0.08200
C 	C 	0.32597 0.60544 0.29295 0.79000
C 	C 	0.42927 0.38476 0.41316 0.13600
C 	C 	0.45222 0.17446 0.63495 0.05400
C 	C 	0.42923 0.47551 0.86398 0.06000
F 	F 	0.32618 0.62255 0.26448 -0.33900
F 	F 	0.01870 0.73033 0.17129 -0.36900
C 	C 	0.38125 0.56821 0.29972 -0.06100
C 	C 	0.43008 0.44579 0.83654 0.08900
F 	F 	0.34969 0.68855 0.30700 -0.39700
C 	C 	0.41781 0.57823 0.01542 0.31200
C 	C 	0.43083 0.88074 0.99250 0.28400
O 	O 	0.42690 0.61798 0.04014 -0.34200
O 	O 	0.42605 0.80214 0.98247 -0.32100
O 	O 	0.42378 0.87020 0.05953 -0.31900
F 	F 	0.39261 0.09474 0.39005 -0.41500
C 	C 	0.46278 0.11533 0.65348 0.09500
C 	C 	0.47584 0.20709 0.70880 0.79600
F 	F 	0.47103 0.22025 0.73723 -0.33600
F 	F 	0.47017 0.92805 0.65710 -0.40200
C 	C 	0.46678 0.04472 0.02799 0.14000
C 	C 	0.41386 0.44233 0.98938 0.04600
F 	F 	0.45309 0.28093 0.84200 -0.36600
O 	O 	0.41850 0.78052 0.42705 -0.36100
C 	C 	0.49408 0.88489 0.49198 0.03800
H 	H 	0.43495 0.34917 0.96341 0.11500
C 	C 	0.45202 0.82358 0.07392 0.30200
C 	C 	0.02490 0.52855 0.50594 0.06500
F 	F 	0.45972 0.48759 0.77744 -0.37800
F 	F 	0.45936 0.60400 0.90801 -0.40600
F 	F 	0.46362 0.48076 0.92707 -0.44300
C 	C 	0.46402 0.56765 0.43504 0.27900
C 	C 	0.44197 0.58351 0.28085 0.03700
F 	F 	0.48446 0.28526 0.69445 -0.36700
F 	F 	0.51909 0.02740 0.69330 -0.33500
F 	F 	0.48479 0.36943 0.78637 -0.34000
F 	F 	0.00439 0.58532 0.67733 -0.31900
F 	F 	0.48230 0.45243 0.23555 -0.34700
C 	C 	0.48578 0.19194 0.60810 -0.07300
C 	C 	0.50778 0.04082 0.48817 -0.00300
C 	C 	0.52256 0.82471 0.50293 0.12800
C 	C 	0.45391 0.39437 0.98156 0.02900
C 	C 	0.44322 0.50740 0.01157 -0.01700
F 	F 	0.50310 0.91196 0.13300 -0.37000
C 	C 	0.46704 0.47387 0.30724 -0.10400
H 	H 	0.45692 0.63387 0.26386 0.13800
F 	F 	0.47941 0.57671 0.21624 -0.37600
C 	C 	0.52139 0.08989 0.64751 -0.07000
C 	C 	0.52804 0.01639 0.66505 0.80400
C 	C 	0.50367 0.47579 0.82292 -0.07100
C 	C 	0.50061 0.44142 0.42864 0.02400
O 	O 	0.48663 0.65431 0.42563 -0.33700
C 	C 	0.53038 0.97910 0.50019 -0.04100
N 	N 	0.54528 0.77636 0.51170 -0.03500
F 	F 	0.48745 0.29204 0.57127 -0.44600
C 	C 	0.51902 0.05212 0.00527 0.05100
C 	C 	0.50353 0.97393 0.98810 -0.05100
F 	F 	0.58262 0.26586 0.79640 -0.32800
C 	C 	0.49900 0.51586 0.87964 -0.07000
C 	C 	0.50826 0.46242 0.79171 0.79100
C 	C 	0.49997 0.55442 0.90832 0.79400
H 	H 	0.02030 0.51296 0.52820 0.13600
O 	O 	0.54681 0.20638 0.49375 -0.32400
F 	F 	0.52749 0.01346 0.09722 -0.36900
C 	C 	0.48990 0.54337 0.28593 0.10700
C 	C 	0.50606 0.41385 0.30996 0.79100
C 	C 	0.52248 0.53458 0.43598 -0.03100
H 	H 	0.52763 0.32886 0.43306 0.09700
F 	F 	0.54202 0.19819 0.70420 -0.32600
F 	F 	0.61864 0.37037 0.83103 -0.40200
F 	F 	0.55787 0.21514 0.84094 -0.36100
C 	C 	0.53766 0.85859 0.07381 -0.00800
C 	C 	0.55927 0.97088 0.11374 0.74200
C 	C 	0.52807 0.54193 0.22455 0.78800
C 	C 	0.54740 0.40232 0.43705 0.01400
C 	C 	0.56864 0.12675 0.62305 0.09300
C 	C 	0.55185 0.17858 0.60334 0.02600
C 	C 	0.61160 0.28566 0.82341 0.79500
C 	C 	0.56664 0.14178 0.48669 0.27200
H 	H 	0.58073 0.00638 0.51407 0.09200
O 	O 	0.56870 0.20192 0.55344 -0.31400
H 	H 	0.53639 0.78926 0.03559 0.07000
F 	F 	0.53368 0.40260 0.28431 -0.34400
H 	H 	0.54504 0.92855 0.95254 0.11900
C 	C 	0.50098 0.50784 0.02912 0.02800
C 	C 	0.55453 0.98764 0.96536 -0.01500
C 	C 	0.52300 0.41226 0.99545 -0.03200
F 	F 	0.56747 0.53524 0.20119 -0.34700
F 	F 	0.60103 0.02249 0.66126 -0.34600
C 	C 	0.58244 0.14091 0.99891 0.01400
H 	H 	0.59266 0.20004 0.01188 0.09600
C 	C 	0.57225 0.51158 0.83931 0.09700
C 	C 	0.56619 0.51558 0.86851 0.05100
F 	F 	0.58443 0.51753 0.78157 -0.32800
H 	H 	0.51779 0.54912 0.04808 0.11500
O 	O 	0.56819 0.33660 0.96217 -0.34300
C 	C 	0.53939 0.45805 0.02153 0.03900
O 	O 	0.57500 0.42315 0.90642 -0.30000
F 	F 	0.00430 0.77413 0.94272 -0.42300
F 	F 	0.98960 0.80678 0.29888 -0.37000
F 	F 	0.97299 0.63522 0.13436 -0.35300
C 	C 	0.92062 0.15276 0.26615 0.28600
C 	C 	0.97356 0.46835 0.07041 0.77900
F 	F 	0.96355 0.46808 0.09913 -0.39000
F 	F 	0.07235 0.37480 0.72437 -0.35700
C 	C 	0.97970 0.81994 0.96093 0.74700
C 	C 	0.91366 0.10007 0.34335 -0.05200
C 	C 	0.92491 0.24634 0.11195 -0.07600
O 	O 	0.90600 0.16672 0.20150 -0.29400
H 	H 	0.94206 0.21371 0.40407 0.13600
C 	C 	0.91479 0.20748 0.13912 0.07700
C 	C 	0.88842 0.09408 0.31542 0.05500
F 	F 	0.91846 0.98072 0.37049 -0.37000
O 	O 	0.02563 0.96338 0.79382 -0.29900
C 	C 	0.87017 0.01728 0.36336 0.80700
H 	H 	0.84016 0.02918 0.30783 0.14300
F 	F 	0.00992 0.45851 0.72789 -0.35000
H 	H 	0.92584 0.00812 0.24809 0.18600
O 	O 	0.93857 0.02164 0.22800 -0.72400
F 	F 	0.80216 0.94653 0.35162 -0.38500
C 	C 	0.02919 0.39893 0.74219 0.82100
F 	F 	0.95263 0.20642 0.46039 -0.40800
O 	O 	0.85245 0.08726 0.25578 -0.29400
F 	F 	0.84838 0.04580 0.38740 -0.41400
F 	F 	0.90139 0.41041 0.05835 -0.37000
C 	C 	0.80854 0.66829 0.94517 0.28700
C 	C 	0.67231 0.25382 0.96305 0.31400
C 	C 	0.90341 0.52609 0.93842 0.31900
C 	C 	0.58642 0.40780 0.97962 0.29800
C 	C 	0.71520 0.34100 0.87579 0.30500
C 	C 	0.61319 0.48760 0.88650 0.31000
Ni	Ni	0.75605 0.46649 0.96788 1.12800
Ni	Ni	0.61856 0.34548 0.92331 1.13600
Ni	Ni	0.77705 0.52422 0.90195 1.13600
O 	O 	0.82134 0.61508 0.96356 -0.29200
O 	O 	0.78638 0.64139 0.91897 -0.33500
O 	O 	0.64440 0.32321 0.88401 -0.29100
O 	O 	0.70095 0.32496 0.98053 -0.32000
O 	O 	0.66768 0.26877 0.93642 -0.35900
O 	O 	0.68486 0.50685 0.87749 -0.29900
O 	O 	0.84601 0.45234 0.95030 -0.34800
O 	O 	0.88753 0.56895 0.91813 -0.33000
O 	O 	0.66052 0.46829 0.98596 -0.32700
O 	O 	0.77875 0.41189 0.88626 -0.34800
O 	O 	0.70972 0.45921 0.93305 -0.72200
H 	H 	0.68515 0.49837 0.93665 0.18000
C 	C 	0.80580 0.20730 0.52123 0.28800
C 	C 	0.64437 0.40532 0.47126 0.30300
C 	C 	0.87833 0.45972 0.50374 0.33000
C 	C 	0.70386 0.45909 0.56356 0.31900
C 	C 	0.60289 0.21807 0.57803 0.28500
Ni	Ni	0.73212 0.29932 0.48296 1.12400
Ni	Ni	0.60173 0.30358 0.52482 1.14300
Ni	Ni	0.76609 0.33929 0.54952 1.13800
O 	O 	0.80885 0.24980 0.49674 -0.28600
O 	O 	0.78003 0.22638 0.54474 -0.32800
O 	O 	0.63090 0.39814 0.55653 -0.29500
O 	O 	0.66498 0.34629 0.46068 -0.32600
O 	O 	0.64248 0.41450 0.49835 -0.33900
O 	O 	0.68146 0.27332 0.58083 -0.32300
O 	O 	0.81693 0.43773 0.48818 -0.34600
O 	O 	0.86989 0.41193 0.52714 -0.29800
O 	O 	0.63776 0.16664 0.47645 -0.33000
O 	O 	0.76240 0.45805 0.55072 -0.32700
O 	O 	0.69319 0.29100 0.51968 -0.71600
H 	H 	0.67150 0.22349 0.52349 0.16600
C 	C 	0.93378 0.80583 0.72966 0.32600
C 	C 	0.95162 0.94562 0.79605 0.25900
C 	C 	0.96343 0.03737 0.67586 0.26700
C 	C 	0.96196 0.17386 0.73756 0.27600
Ni	Ni	0.92331 0.97717 0.73559 1.13000
O 	O 	0.91399 0.02185 0.69688 -0.28100
O 	O 	0.98581 0.82945 0.74989 -0.30400
O 	O 	0.92543 0.86987 0.71615 -0.34400
O 	O 	0.01962 0.19532 0.71869 -0.23000
O 	O 	0.92773 0.09249 0.75127 -0.30400
O 	O 	0.90291 0.91323 0.77433 -0.26000
C 	C 	0.78353 0.83144 0.24444 0.30400
C 	C 	0.85750 0.91379 0.16938 0.29500
Ni	Ni	0.84926 0.02910 0.21668 1.13500
Ni	Ni	0.94511 0.91336 0.21963 1.13400
O 	O 	0.76985 0.88922 0.22851 -0.32600
O 	O 	0.85519 0.84139 0.24714 -0.27200
O 	O 	0.85130 0.98786 0.17576 -0.35900
O 	O 	0.86199 0.86101 0.18929 -0.29300
C 	C 	0.85337 0.21378 0.09327 0.79700
H 	H 	0.86122 0.14317 0.14453 0.09800
F 	F 	0.79660 0.12270 0.09993 -0.39600
F 	F 	0.87265 0.21606 0.06523 -0.37000
F 	F 	0.82084 0.27123 0.09731 -0.34400
C 	C 	0.65649 0.91595 0.10139 0.03600
C 	C 	0.68315 0.86776 0.08411 0.10000
C 	C 	0.64054 0.82269 0.05971 -0.10500
C 	C 	0.56918 0.82186 0.05432 0.07300
C 	C 	0.58528 0.91480 0.09575 -0.04000
C 	C 	0.75014 0.85652 0.09379 0.10100
C 	C 	0.66868 0.77166 0.04027 0.78600
H 	H 	0.68960 0.95064 0.11996 0.11600
C 	C 	0.82653 0.93605 0.09472 -0.09300
C 	C 	0.87268 0.94936 0.11863 0.04700
C 	C 	0.84449 0.88138 0.14007 0.03000
C 	C 	0.78394 0.79016 0.13356 -0.06900
C 	C 	0.73325 0.77955 0.11136 0.04300
C 	C 	0.86315 0.99704 0.06896 0.77300
H 	H 	0.92676 0.01514 0.12162 0.12800
C 	C 	0.77547 0.70482 0.14906 0.79100
H 	H 	0.67767 0.71484 0.10937 0.13200
F 	F 	0.62228 0.04072 0.12808 -0.35000
F 	F 	0.66611 0.69584 0.05416 -0.43100
F 	F 	0.74519 0.83155 0.03144 -0.37000
F 	F 	0.62219 0.73874 0.01667 -0.42600
F 	F 	0.72990 0.68893 0.17287 -0.39800
F 	F 	0.84883 0.71789 0.15649 -0.36200
F 	F 	0.73954 0.62605 0.13236 -0.35800
F 	F 	0.92552 0.08324 0.07619 -0.39400
F 	F 	0.80890 0.01243 0.05467 -0.34100
F 	F 	0.89145 0.95332 0.05136 -0.35000
C 	C 	0.57199 0.59272 0.27488 0.09800
C 	C 	0.58691 0.60738 0.24573 -0.09400
C 	C 	0.65542 0.68759 0.23625 0.08100
C 	C 	0.71488 0.74412 0.25505 0.02800
C 	C 	0.70582 0.71911 0.28388 -0.06700
C 	C 	0.63329 0.64502 0.29359 0.04000
H 	H 	0.66175 0.70712 0.21429 0.13200
C 	C 	0.77426 0.76667 0.30389 0.79300
H 	H 	0.62240 0.63206 0.31589 0.12500
F 	F 	0.56840 0.45524 0.32834 -0.40300
F 	F 	0.80803 0.86297 0.30165 -0.40300
F 	F 	0.82990 0.74045 0.29743 -0.34700
F 	F 	0.75065 0.74152 0.33151 -0.37100
C 	C 	0.96961 0.55312 0.46339 0.00400
C 	C 	0.95901 0.51964 0.49147 -0.03000
C 	C 	0.91212 0.57150 0.45003 0.14700
N 	N 	0.86622 0.58625 0.43921 -0.05900
C 	C 	0.59596 0.59088 0.44844 0.01400
C 	C 	0.64256 0.55171 0.45692 0.03000
C 	C 	0.61541 0.45503 0.45298 -0.03400
H 	H 	0.61457 0.66356 0.45318 0.09600
C 	C 	0.71612 0.60995 0.47103 0.15400
N 	N 	0.77495 0.65659 0.48240 -0.02600
C 	C 	0.84930 0.03426 0.61049 0.04300
C 	C 	0.89191 0.01857 0.58952 0.10800
C 	C 	0.95115 0.99643 0.59722 -0.08100
C 	C 	0.97135 0.99989 0.62569 -0.00100
C 	C 	0.93539 0.02774 0.64636 0.06400
C 	C 	0.87536 0.04894 0.63835 -0.07200
C 	C 	0.88715 0.04841 0.56045 0.10800
C 	C 	0.99834 0.97782 0.57521 0.73700
H 	H 	0.01714 0.98393 0.63167 0.15500
C 	C 	0.84159 0.09148 0.65868 0.78200
H 	H 	0.80090 0.04540 0.60448 0.12800
C 	C 	0.81602 0.00090 0.54516 -0.09000
C 	C 	0.79627 0.05255 0.52636 0.07800
C 	C 	0.84476 0.15001 0.52373 0.02600
C 	C 	0.92298 0.19152 0.53394 -0.04800
C 	C 	0.94373 0.13920 0.55196 0.03400
C 	C 	0.75615 0.89935 0.55136 0.77600
H 	H 	0.73829 0.01936 0.51692 0.08500
C 	C 	0.97916 0.29552 0.53039 0.76200
H 	H 	0.99996 0.17386 0.56258 0.13100
F 	F 	0.78903 0.02261 0.67686 -0.37900
F 	F 	0.80139 0.12952 0.64480 -0.38100
F 	F 	0.90149 0.16333 0.67349 -0.41800
F 	F 	0.95325 0.93433 0.55197 -0.35900
F 	F 	0.02509 0.91988 0.58597 -0.33700
F 	F 	0.96680 0.34312 0.55191 -0.43200
F 	F 	0.96764 0.32755 0.50501 -0.40800
F 	F 	0.71815 0.85512 0.52700 -0.40400
F 	F 	0.70075 0.89536 0.57041 -0.41800
F 	F 	0.79149 0.85096 0.56220 -0.35800
H 	H 	0.61607 0.11181 0.61876 0.12000
C 	C 	0.81762 0.62259 0.62160 0.03400
C 	C 	0.78755 0.56052 0.64454 0.10300
C 	C 	0.72048 0.47069 0.64107 -0.10900
C 	C 	0.68292 0.44738 0.61494 0.08300
C 	C 	0.71904 0.50419 0.59127 0.00700
C 	C 	0.78406 0.59546 0.59491 -0.05400
C 	C 	0.81980 0.59539 0.67276 0.09500
C 	C 	0.68780 0.40019 0.66516 0.79700
H 	H 	0.62887 0.38141 0.61252 0.09900
C 	C 	0.82072 0.66230 0.57022 0.78500
H 	H 	0.86742 0.69226 0.62460 0.13200
C 	C 	0.89808 0.61857 0.67985 -0.08700
C 	C 	0.93431 0.67803 0.70279 0.07600
C 	C 	0.89190 0.70916 0.71921 0.02100
C 	C 	0.80923 0.66520 0.71614 -0.06300
C 	C 	0.77534 0.61663 0.69146 0.04400
C 	C 	0.94546 0.58768 0.66184 0.76900
H 	H 	0.99705 0.70715 0.70613 0.13000
C 	C 	0.75782 0.67198 0.73881 0.79100
H 	H 	0.71555 0.59894 0.68618 0.14200
F 	F 	0.87346 0.64270 0.55639 -0.39500
F 	F 	0.86115 0.75427 0.57915 -0.36000
F 	F 	0.76309 0.65407 0.55177 -0.38200
F 	F 	0.64058 0.42042 0.68217 -0.36400
F 	F 	0.74806 0.40223 0.68091 -0.36500
F 	F 	0.64294 0.30987 0.65534 -0.39600
F 	F 	0.77032 0.76264 0.74017 -0.40100
F 	F 	0.77601 0.64680 0.76421 -0.34500
F 	F 	0.67850 0.61206 0.73386 -0.33700
F 	F 	0.98007 0.65022 0.63976 -0.38600
F 	F 	0.89789 0.49864 0.65141 -0.37600
C 	C 	0.97972 0.57768 0.95321 -0.05700
C 	C 	0.98266 0.58939 0.98276 0.03000
C 	C 	0.91182 0.54583 0.99989 0.14300
N 	N 	0.85527 0.51117 0.01371 -0.06700
C 	C 	0.62647 0.15644 0.97426 -0.04000
C 	C 	0.61516 0.07847 0.95814 0.06300
C 	C 	0.66492 0.09109 0.93408 0.16800
N 	N 	0.70471 0.10158 0.91475 -0.01300
C 	C 	0.59458 0.45314 0.04062 0.16300
N 	N 	0.63882 0.44923 0.05592 -0.02400
C 	C 	0.73033 0.28857 0.80115 0.03700
C 	C 	0.78665 0.25927 0.80251 0.10900
C 	C 	0.80581 0.23566 0.82889 -0.10100
C 	C 	0.77881 0.25854 0.85342 0.08500
C 	C 	0.72375 0.29009 0.85181 0.01200
C 	C 	0.69106 0.29101 0.82551 -0.05500
C 	C 	0.82827 0.25856 0.77663 0.08100
C 	C 	0.85793 0.19102 0.83110 0.78700
H 	H 	0.80237 0.25472 0.87361 0.10700
H 	H 	0.71645 0.30827 0.78114 0.15800
C 	C 	0.79122 0.18673 0.75649 -0.06600
C 	C 	0.83848 0.17811 0.73567 0.07100
C 	C 	0.92083 0.22890 0.73795 0.07800
C 	C 	0.95420 0.31439 0.75251 -0.09300
C 	C 	0.90783 0.32691 0.77281 0.07200
C 	C 	0.70272 0.11897 0.75738 0.78400
H 	H 	0.81244 0.12092 0.72100 0.16000
H 	H 	0.93357 0.38907 0.78574 0.11200
F 	F 	0.93627 0.25949 0.82829 -0.39300
F 	F 	0.83973 0.12432 0.81056 -0.39600
F 	F 	0.84735 0.14651 0.85681 -0.36800
F 	F 	0.68133 0.04612 0.73871 -0.33700
F 	F 	0.66268 0.16612 0.75028 -0.34600
F 	F 	0.67908 0.07976 0.78388 -0.36200
H 	H 	0.62828 0.52800 0.82978 0.16700
F 	F 	0.57636 0.61415 0.91699 -0.41600
C 	C 	0.93647 0.90261 0.92651 0.02500
C 	C 	0.87665 0.91241 0.91322 0.11600
C 	C 	0.80145 0.87173 0.92658 -0.10900
C 	C 	0.78170 0.79912 0.94640 0.09000
C 	C 	0.83556 0.76739 0.95154 0.02800
C 	C 	0.91611 0.83276 0.94721 -0.05900
C 	C 	0.88282 0.92787 0.88236 0.05700
C 	C 	0.73849 0.89338 0.91664 0.79400
H 	H 	0.72098 0.75701 0.95349 0.12500
H 	H 	0.99626 0.93946 0.91826 0.12100
C 	C 	0.93637 0.01605 0.87014 -0.04700
C 	C 	0.95418 0.02113 0.84127 0.09200
C 	C 	0.91889 0.94056 0.82454 0.01600
C 	C 	0.86184 0.85364 0.83659 -0.07300
C 	C 	0.84275 0.84934 0.86519 0.04800
C 	C 	0.97961 0.10333 0.88792 0.74500
H 	H 	0.99824 0.08717 0.83200 0.11000
C 	C 	0.82103 0.76548 0.81913 0.78800
H 	H 	0.79996 0.78305 0.87465 0.11000
F 	F 	0.95242 0.76859 0.98560 -0.40500
F 	F 	0.68910 0.82486 0.89826 -0.39400
F 	F 	0.77147 0.97984 0.90326 -0.38400
F 	F 	0.69429 0.89489 0.93926 -0.40200
F 	F 	0.77535 0.68645 0.83546 -0.42000
F 	F 	0.87643 0.75093 0.80510 -0.40000
F 	F 	0.77207 0.77506 0.80014 -0.35200
F 	F 	0.00497 0.18390 0.87179 -0.33100
F 	F 	0.93114 0.10504 0.90895 -0.35200
