data_crystal

_cell_length_a 39.21879
_cell_length_b 36.63047
_cell_length_c 32.28023
_cell_angle_alpha 104.39764
_cell_angle_beta  116.10952
_cell_angle_gamma 110.63030

_symmetry_space_group_name_	'P 1'
_symmetry_space_group_name_H-M	'P 1'

loop_
_symmetry_equiv_pos_as_xyz
  x,y,z

loop_
_atom_site_label
_atom_site_type_symbol
_atom_site_fract_x
_atom_site_fract_y
_atom_site_fract_z
_atom_site_charge
C 	C 	0.29316 0.13426 0.93770 0.05600
C 	C 	0.31681 0.11310 0.93816 -0.06800
C 	C 	0.35036 0.12879 0.93016 0.01700
C 	C 	0.35978 0.16547 0.92109 -0.05900
C 	C 	0.33693 0.18741 0.92187 0.01800
C 	C 	0.30260 0.17085 0.92850 -0.06600
H 	H 	0.31024 0.08551 0.94658 0.05600
H 	H 	0.38635 0.17822 0.91601 0.05100
H 	H 	0.28458 0.18749 0.92867 0.06000
C 	C 	0.26755 0.11872 0.41644 0.05900
C 	C 	0.28687 0.09350 0.41229 -0.06800
C 	C 	0.31733 0.10483 0.39908 0.01800
C 	C 	0.32560 0.13926 0.38621 -0.06000
C 	C 	0.31098 0.16794 0.39669 0.02100
C 	C 	0.28046 0.15665 0.40993 -0.06500
H 	H 	0.27955 0.06629 0.42130 0.05900
H 	H 	0.34743 0.14665 0.37349 0.05300
H 	H 	0.26802 0.17796 0.41688 0.06400
C 	C 	0.26084 0.40009 0.01052 0.00600
C 	C 	0.23952 0.42402 0.00874 -0.05400
C 	C 	0.19971 0.40686 0.00551 0.01200
C 	C 	0.18250 0.36660 0.00654 -0.05400
C 	C 	0.20474 0.34351 0.01059 0.00800
C 	C 	0.24428 0.36067 0.01336 -0.05300
H 	H 	0.25257 0.45471 0.00712 0.04900
H 	H 	0.15094 0.35237 0.00209 0.05500
H 	H 	0.26103 0.34242 0.01541 0.05300
C 	C 	0.23736 0.38569 0.49703 0.01700
C 	C 	0.21670 0.41007 0.49743 -0.05900
C 	C 	0.17642 0.39211 0.49310 0.01900
C 	C 	0.15847 0.35084 0.49172 -0.06800
C 	C 	0.17999 0.32719 0.49344 0.05900
C 	C 	0.21984 0.34500 0.49700 -0.06600
H 	H 	0.23038 0.44162 0.49774 0.05000
H 	H 	0.12675 0.33618 0.48686 0.06500
H 	H 	0.23575 0.32608 0.49671 0.06200
Zn	Zn	0.11846 0.60220 0.02529 1.18800
Zn	Zn	0.04212 0.57303 0.91842 1.19700
O 	O 	0.03841 0.50721 0.82775 -0.47300
O 	O 	0.01900 0.55874 0.84273 -0.44300
O 	O 	0.04747 0.44732 0.89475 -0.49600
C 	C 	0.15760 0.58209 0.97496 0.29700
O 	O 	0.00384 0.51024 0.89519 -0.87400
C 	C 	0.11685 0.66978 0.98994 0.34700
O 	O 	0.16653 0.60078 0.02174 -0.44900
O 	O 	0.11591 0.55916 0.93333 -0.38000
O 	O 	0.05771 0.57462 0.98856 -0.76200
O 	O 	0.08063 0.50093 0.97726 -0.44400
O 	O 	0.07956 0.63783 0.94331 -0.44800
O 	O 	0.13433 0.66211 0.02980 -0.43400
Zn	Zn	0.92382 0.42961 0.90721 1.18000
Zn	Zn	0.00144 0.44929 0.00443 1.20200
Zn	Zn	0.01994 0.51186 0.96135 1.21900
C 	C 	0.92091 0.35821 0.93670 0.34900
C 	C 	0.89691 0.44993 0.97265 0.34200
O 	O 	0.96004 0.52567 0.94615 -0.47100
Zn	Zn	0.00262 0.52821 0.04842 1.20500
O 	O 	0.96395 0.38449 0.97587 -0.43400
O 	O 	0.90192 0.36811 0.89960 -0.44400
O 	O 	0.88618 0.44162 0.92527 -0.46300
O 	O 	0.93724 0.46087 0.00943 -0.46200
C 	C 	0.02504 0.48977 0.11629 0.38200
O 	O 	0.98208 0.44953 0.93412 -0.79300
C 	C 	0.95868 0.55367 0.97922 0.34700
O 	O 	0.02193 0.45949 0.07983 -0.41200
O 	O 	0.02656 0.52563 0.11369 -0.47300
O 	O 	0.97471 0.55875 0.02677 -0.47500
O 	O 	0.03458 0.51244 0.02694 -0.88200
Zn	Zn	0.02151 0.47713 0.86486 1.18900
C 	C 	0.02578 0.53369 0.81407 0.32900
C 	C 	0.07771 0.46734 0.94572 0.35200
H 	H 	0.06698 0.52786 0.05499 0.18700
H 	H 	0.97159 0.49888 0.87106 0.14700
Zn	Zn	0.09380 0.58720 0.50697 1.18700
Zn	Zn	0.01676 0.55419 0.39776 1.19900
O 	O 	0.01472 0.48584 0.31022 -0.46900
O 	O 	0.99421 0.53686 0.32178 -0.45100
O 	O 	0.02204 0.42870 0.38048 -0.48800
C 	C 	0.13322 0.56765 0.45661 0.29700
O 	O 	0.97886 0.49193 0.37691 -0.87700
C 	C 	0.09156 0.65145 0.46802 0.31200
O 	O 	0.14294 0.58910 0.50324 -0.45400
O 	O 	0.09104 0.54007 0.41641 -0.37700
O 	O 	0.03289 0.55819 0.46904 -0.76100
O 	O 	0.05590 0.48460 0.46182 -0.43900
O 	O 	0.05913 0.61734 0.42015 -0.44200
O 	O 	0.10571 0.64572 0.50985 -0.44800
Zn	Zn	0.89988 0.41556 0.39344 1.18100
Zn	Zn	0.97566 0.43769 0.49187 1.19500
Zn	Zn	0.99532 0.49598 0.44429 1.21800
C 	C 	0.89768 0.34358 0.42151 0.34600
C 	C 	0.87298 0.43733 0.45851 0.34200
O 	O 	0.93483 0.50936 0.42648 -0.47500
Zn	Zn	0.97832 0.51651 0.53155 1.19800
O 	O 	0.93560 0.37432 0.46809 -0.42600
O 	O 	0.87732 0.35410 0.38575 -0.44600
O 	O 	0.86300 0.42924 0.41147 -0.46100
O 	O 	0.91361 0.44977 0.49639 -0.47900
C 	C 	0.00728 0.48504 0.60638 0.37700
O 	O 	0.95771 0.43423 0.42003 -0.78500
C 	C 	0.93194 0.53720 0.45767 0.35800
O 	O 	0.00153 0.45249 0.56949 -0.41900
O 	O 	0.00364 0.51781 0.59926 -0.47600
O 	O 	0.94918 0.54510 0.50637 -0.48500
O 	O 	0.01026 0.49951 0.51101 -0.88500
Zn	Zn	0.99649 0.45764 0.34810 1.18900
C 	C 	0.00493 0.51394 0.29702 0.33900
C 	C 	0.05283 0.45022 0.43143 0.35400
H 	H 	0.04259 0.51460 0.53913 0.18600
H 	H 	0.94655 0.48027 0.35258 0.15300
C 	C 	0.02263 0.53821 0.76860 -0.15400
C 	C 	0.02604 0.51130 0.73582 0.00200
C 	C 	0.02092 0.51554 0.68936 0.03700
C 	C 	0.01712 0.48453 0.65171 -0.20600
H 	H 	0.01859 0.54330 0.68510 0.03500
H 	H 	0.01647 0.56337 0.76110 0.08000
H 	H 	0.02012 0.45735 0.65702 0.10200
H 	H 	0.03149 0.48559 0.74254 0.03800
C 	C 	0.02713 0.48388 0.15669 -0.20100
C 	C 	0.02629 0.51170 0.19212 0.04000
C 	C 	0.02121 0.50109 0.23111 0.00700
C 	C 	0.00891 0.52234 0.25654 -0.15400
H 	H 	0.02708 0.47582 0.23867 0.04400
H 	H 	0.02652 0.45448 0.15876 0.11000
H 	H 	0.00225 0.54689 0.24781 0.08600
H 	H 	0.02710 0.54139 0.19082 0.03900
C 	C 	0.11415 0.19648 0.47436 -0.05700
C 	C 	0.13838 0.23433 0.52316 -0.00300
C 	C 	0.16055 0.27683 0.52943 -0.03000
C 	C 	0.15868 0.28207 0.48705 -0.03300
C 	C 	0.13429 0.24422 0.43796 0.10100
C 	C 	0.11239 0.20169 0.43189 -0.04000
H 	H 	0.17887 0.30575 0.56717 0.04100
H 	H 	0.09419 0.17275 0.39422 0.07400
H 	H 	0.13979 0.23089 0.55616 0.04600
Br	Br	0.12963 0.24997 0.37843 -0.23400
C 	C 	0.27207 0.39873 0.48723 0.05200
C 	C 	0.31444 0.43755 0.52536 -0.08600
C 	C 	0.34676 0.45035 0.51519 0.04800
C 	C 	0.33703 0.42458 0.46664 -0.13900
C 	C 	0.29386 0.38559 0.42785 0.16800
C 	C 	0.26188 0.37312 0.43854 -0.11600
H 	H 	0.37949 0.48032 0.54517 0.02200
H 	H 	0.22890 0.34340 0.40876 0.09400
H 	H 	0.32239 0.45776 0.56292 0.05300
Br	Br	0.27747 0.34801 0.36048 -0.25800
C 	C 	0.15005 0.41352 0.48300 0.05400
C 	C 	0.14022 0.42462 0.44231 -0.08500
C 	C 	0.11037 0.43904 0.42776 0.05600
C 	C 	0.08900 0.44145 0.45269 -0.15200
C 	C 	0.10012 0.43211 0.49503 0.17400
C 	C 	0.13111 0.41886 0.51051 -0.11700
H 	H 	0.10274 0.44705 0.39590 0.02200
H 	H 	0.13922 0.41119 0.54266 0.08100
H 	H 	0.15452 0.42060 0.42071 0.06000
Br	Br	0.07122 0.43423 0.52980 -0.30500
C 	C 	0.18448 0.29943 0.00734 0.05700
C 	C 	0.17230 0.26164 0.96625 -0.08900
C 	C 	0.15049 0.21956 0.96104 0.05000
C 	C 	0.14039 0.21464 0.99672 -0.13900
C 	C 	0.15269 0.25262 0.03822 0.16800
C 	C 	0.17496 0.29480 0.04353 -0.11700
H 	H 	0.14136 0.19067 0.92915 0.02700
H 	H 	0.18415 0.32388 0.07524 0.08000
H 	H 	0.17918 0.26482 0.93787 0.05700
Br	Br	0.13712 0.24755 0.08608 -0.22500
C 	C 	0.29606 0.41255 0.00137 0.06000
C 	C 	0.33612 0.45430 0.03590 -0.08600
C 	C 	0.36864 0.46642 0.02595 0.05600
C 	C 	0.36143 0.43697 0.98131 -0.14000
C 	C 	0.32125 0.39462 0.94690 0.17400
C 	C 	0.28877 0.38298 0.95689 -0.12100
H 	H 	0.39947 0.49876 0.05294 0.02200
H 	H 	0.25778 0.35075 0.93002 0.08000
H 	H 	0.34206 0.47736 0.07041 0.05700
Br	Br	0.31060 0.35106 0.88768 -0.25800
C 	C 	0.17349 0.42849 0.99544 0.04700
C 	C 	0.16317 0.43905 0.95429 -0.08700
C 	C 	0.13385 0.45415 0.94033 0.05500
C 	C 	0.11336 0.45766 0.96620 -0.15700
C 	C 	0.12482 0.44859 0.00880 0.17600
C 	C 	0.15547 0.43490 0.02383 -0.11600
H 	H 	0.12597 0.46187 0.90823 0.01900
H 	H 	0.16400 0.42770 0.05635 0.08100
H 	H 	0.17676 0.43422 0.93200 0.05400
Br	Br	0.09661 0.45132 0.04434 -0.32700
C 	C 	0.34681 0.08701 0.40870 0.05400
C 	C 	0.32859 0.04097 0.38651 -0.08900
C 	C 	0.35679 0.02452 0.40013 0.06100
C 	C 	0.40338 0.05398 0.43575 -0.15800
C 	C 	0.42179 0.10002 0.45528 0.17000
C 	C 	0.39354 0.11639 0.44241 -0.11700
H 	H 	0.34238 0.98897 0.38448 0.02000
H 	H 	0.40787 0.15201 0.45941 0.08300
H 	H 	0.29262 0.01801 0.35975 0.06000
Br	Br	0.48553 0.14097 0.49926 -0.27600
C 	C 	0.33300 0.21258 0.40181 0.05000
C 	C 	0.30743 0.22923 0.37763 -0.07600
C 	C 	0.32856 0.27145 0.38280 0.04300
C 	C 	0.37549 0.29718 0.41130 -0.12800
C 	C 	0.40094 0.27914 0.43261 0.16300
C 	C 	0.37987 0.23806 0.42991 -0.10900
H 	H 	0.30847 0.28427 0.36498 0.05100
H 	H 	0.39990 0.22542 0.44864 0.08100
H 	H 	0.27122 0.20954 0.35495 0.05800
Br	Br	0.46337 0.30736 0.46016 -0.22800
C 	C 	0.16874 0.07894 0.44783 -0.05800
C 	C 	0.15788 0.05587 0.39767 -0.00800
C 	C 	0.19019 0.06920 0.38771 -0.02900
C 	C 	0.23390 0.10540 0.42777 -0.03400
C 	C 	0.24547 0.12772 0.47864 0.10100
C 	C 	0.21288 0.11455 0.48844 -0.04300
H 	H 	0.18121 0.05146 0.34868 0.04400
H 	H 	0.22185 0.13230 0.52744 0.06900
H 	H 	0.12422 0.02793 0.36612 0.04800
Br	Br	0.30568 0.17571 0.53534 -0.24500
C 	C 	0.37901 0.11009 0.93728 0.05000
C 	C 	0.35968 0.06412 0.90905 -0.08600
C 	C 	0.38634 0.04588 0.92063 0.04700
C 	C 	0.43254 0.07346 0.96024 -0.15100
C 	C 	0.45239 0.11986 0.98598 0.16100
C 	C 	0.42556 0.13794 0.97492 -0.11300
H 	H 	0.37083 0.01015 0.90030 0.02300
H 	H 	0.44077 0.17352 0.99645 0.08500
H 	H 	0.32387 0.04244 0.87925 0.05400
Br	Br	0.51617 0.15902 0.03598 -0.24100
C 	C 	0.35269 0.23056 0.92221 0.05300
C 	C 	0.35567 0.23402 0.88146 -0.08300
C 	C 	0.37692 0.27577 0.88566 0.05300
C 	C 	0.39524 0.31443 0.93054 -0.12900
C 	C 	0.38983 0.31091 0.97001 0.16800
C 	C 	0.36895 0.26907 0.96591 -0.11200
H 	H 	0.38019 0.27815 0.85465 0.02600
H 	H 	0.36629 0.26656 0.99725 0.08900
H 	H 	0.34265 0.20443 0.84724 0.05400
Br	Br	0.40949 0.36268 0.02889 -0.23500
C 	C 	0.19425 0.09255 0.96841 -0.06500
C 	C 	0.18554 0.06635 0.92081 -0.00400
C 	C 	0.21813 0.07983 0.91127 -0.03400
C 	C 	0.25994 0.11936 0.94936 -0.03100
C 	C 	0.26974 0.14445 0.99835 0.09200
C 	C 	0.23687 0.13107 0.00760 -0.03300
H 	H 	0.21066 0.05988 0.87391 0.04200
H 	H 	0.24415 0.15125 0.04473 0.06900
H 	H 	0.15317 0.03601 0.89071 0.04200
Br	Br	0.32791 0.19678 0.05320 -0.23700
C 	C 	0.29316 0.63426 0.93770 0.05600
C 	C 	0.31681 0.61310 0.93816 -0.06700
C 	C 	0.35036 0.62879 0.93016 0.01800
C 	C 	0.35978 0.66547 0.92109 -0.05800
C 	C 	0.33693 0.68741 0.92187 0.01800
C 	C 	0.30260 0.67085 0.92850 -0.06500
H 	H 	0.31024 0.58551 0.94658 0.05600
H 	H 	0.38635 0.67822 0.91601 0.05200
H 	H 	0.28458 0.68749 0.92867 0.06100
C 	C 	0.26755 0.61872 0.41644 0.06000
C 	C 	0.28687 0.59350 0.41229 -0.06800
C 	C 	0.31733 0.60483 0.39908 0.01900
C 	C 	0.32560 0.63926 0.38621 -0.06100
C 	C 	0.31098 0.66794 0.39669 0.02100
C 	C 	0.28046 0.65665 0.40993 -0.06500
H 	H 	0.27955 0.56630 0.42130 0.05800
H 	H 	0.34743 0.64665 0.37349 0.05300
H 	H 	0.26802 0.67796 0.41688 0.06400
C 	C 	0.26084 0.90009 0.01052 0.00600
C 	C 	0.23952 0.92402 0.00874 -0.05400
C 	C 	0.19971 0.90686 0.00551 0.01200
C 	C 	0.18250 0.86660 0.00654 -0.05400
C 	C 	0.20474 0.84351 0.01059 0.00700
C 	C 	0.24428 0.86067 0.01336 -0.05300
H 	H 	0.25257 0.95471 0.00712 0.04800
H 	H 	0.15094 0.85237 0.00209 0.05500
H 	H 	0.26103 0.84242 0.01541 0.05300
C 	C 	0.23736 0.88569 0.49703 0.01700
C 	C 	0.21670 0.91007 0.49743 -0.05900
C 	C 	0.17642 0.89211 0.49310 0.01800
C 	C 	0.15847 0.85084 0.49172 -0.06800
C 	C 	0.17999 0.82719 0.49344 0.05800
C 	C 	0.21984 0.84500 0.49700 -0.06600
H 	H 	0.23038 0.94162 0.49774 0.04900
H 	H 	0.12675 0.83618 0.48686 0.06500
H 	H 	0.23575 0.82608 0.49671 0.06200
Zn	Zn	0.11846 0.10220 0.02529 1.18800
Zn	Zn	0.04212 0.07303 0.91842 1.19700
O 	O 	0.03841 0.00720 0.82775 -0.47100
O 	O 	0.01900 0.05874 0.84273 -0.44300
O 	O 	0.04747 0.94732 0.89475 -0.49600
C 	C 	0.15760 0.08209 0.97496 0.29700
O 	O 	0.00384 0.01024 0.89519 -0.86700
C 	C 	0.11685 0.16978 0.98994 0.34700
O 	O 	0.16653 0.10078 0.02174 -0.44900
O 	O 	0.11591 0.05916 0.93333 -0.37900
O 	O 	0.05771 0.07462 0.98856 -0.76200
O 	O 	0.08063 0.00093 0.97726 -0.43700
O 	O 	0.07956 0.13783 0.94331 -0.44800
O 	O 	0.13433 0.16211 0.02980 -0.43400
Zn	Zn	0.92382 0.92961 0.90721 1.17900
Zn	Zn	0.00144 0.94929 0.00443 1.20100
Zn	Zn	0.01994 0.01185 0.96135 1.22000
C 	C 	0.92091 0.85821 0.93670 0.35000
C 	C 	0.89691 0.94993 0.97265 0.34100
O 	O 	0.96004 0.02567 0.94615 -0.46800
Zn	Zn	0.00262 0.02821 0.04842 1.20600
O 	O 	0.96395 0.88449 0.97587 -0.43400
O 	O 	0.90192 0.86811 0.89960 -0.44500
O 	O 	0.88618 0.94162 0.92527 -0.46500
O 	O 	0.93724 0.96088 0.00943 -0.46400
C 	C 	0.02504 0.98977 0.11629 0.37700
O 	O 	0.98208 0.94953 0.93412 -0.79600
C 	C 	0.95868 0.05367 0.97922 0.34800
O 	O 	0.02193 0.95949 0.07983 -0.41300
O 	O 	0.02656 0.02564 0.11369 -0.46700
O 	O 	0.97471 0.05875 0.02677 -0.47400
O 	O 	0.03458 0.01244 0.02694 -0.87900
Zn	Zn	0.02151 0.97713 0.86486 1.18600
C 	C 	0.02578 0.03369 0.81407 0.33000
C 	C 	0.07771 0.96734 0.94572 0.34500
H 	H 	0.06698 0.02786 0.05499 0.18700
H 	H 	0.97159 0.99888 0.87106 0.14000
Zn	Zn	0.09380 0.08720 0.50697 1.18700
Zn	Zn	0.01676 0.05419 0.39776 1.20000
O 	O 	0.01472 0.98584 0.31022 -0.47600
O 	O 	0.99421 0.03686 0.32178 -0.45000
O 	O 	0.02204 0.92870 0.38048 -0.48900
C 	C 	0.13322 0.06765 0.45661 0.29800
O 	O 	0.97886 0.99193 0.37691 -0.88000
C 	C 	0.09156 0.15145 0.46802 0.31200
O 	O 	0.14294 0.08910 0.50324 -0.45300
O 	O 	0.09104 0.04007 0.41641 -0.37400
O 	O 	0.03289 0.05819 0.46904 -0.75900
O 	O 	0.05590 0.98460 0.46182 -0.44200
O 	O 	0.05913 0.11734 0.42015 -0.44200
O 	O 	0.10571 0.14572 0.50985 -0.44800
Zn	Zn	0.89988 0.91556 0.39344 1.18000
Zn	Zn	0.97566 0.93769 0.49187 1.19500
Zn	Zn	0.99532 0.99598 0.44429 1.21600
C 	C 	0.89768 0.84359 0.42151 0.34600
C 	C 	0.87298 0.93733 0.45851 0.34200
O 	O 	0.93483 0.00936 0.42648 -0.47000
Zn	Zn	0.97832 0.01651 0.53155 1.20000
O 	O 	0.93560 0.87432 0.46809 -0.42700
O 	O 	0.87732 0.85410 0.38575 -0.44600
O 	O 	0.86300 0.92924 0.41147 -0.46300
O 	O 	0.91361 0.94977 0.49639 -0.48100
C 	C 	0.00728 0.98504 0.60638 0.37200
O 	O 	0.95771 0.93423 0.42003 -0.78600
C 	C 	0.93194 0.03720 0.45767 0.35900
O 	O 	0.00153 0.95249 0.56949 -0.41900
O 	O 	0.00364 0.01781 0.59926 -0.47100
O 	O 	0.94918 0.04510 0.50637 -0.48300
O 	O 	0.01026 0.99951 0.51101 -0.89300
Zn	Zn	0.99649 0.95764 0.34810 1.18800
C 	C 	0.00493 0.01394 0.29702 0.34700
C 	C 	0.05283 0.95022 0.43143 0.35400
H 	H 	0.04259 0.01460 0.53913 0.19300
H 	H 	0.94655 0.98027 0.35258 0.15200
C 	C 	0.02263 0.03821 0.76860 -0.15600
C 	C 	0.02604 0.01130 0.73582 0.00900
C 	C 	0.02092 0.01554 0.68936 0.04300
C 	C 	0.01712 0.98453 0.65171 -0.21200
H 	H 	0.01859 0.04330 0.68510 0.03500
H 	H 	0.01647 0.06337 0.76110 0.08100
H 	H 	0.02012 0.95735 0.65702 0.10200
H 	H 	0.03149 0.98559 0.74254 0.03200
C 	C 	0.02713 0.98388 0.15669 -0.20700
C 	C 	0.02629 0.01170 0.19212 0.04500
C 	C 	0.02121 0.00109 0.23111 0.01600
C 	C 	0.00891 0.02234 0.25654 -0.15800
H 	H 	0.02708 0.97582 0.23867 0.03800
H 	H 	0.02652 0.95448 0.15876 0.11000
H 	H 	0.00225 0.04689 0.24781 0.08700
H 	H 	0.02710 0.04139 0.19082 0.03900
C 	C 	0.11415 0.69648 0.47436 -0.05700
C 	C 	0.13838 0.73433 0.52316 -0.00300
C 	C 	0.16055 0.77683 0.52943 -0.03000
C 	C 	0.15868 0.78207 0.48705 -0.03300
C 	C 	0.13429 0.74422 0.43796 0.10100
C 	C 	0.11239 0.70169 0.43189 -0.04000
H 	H 	0.17887 0.80575 0.56717 0.04100
H 	H 	0.09419 0.67275 0.39422 0.07300
H 	H 	0.13979 0.73089 0.55616 0.04600
Br	Br	0.12963 0.74997 0.37843 -0.23500
C 	C 	0.27207 0.89873 0.48723 0.05200
C 	C 	0.31444 0.93755 0.52536 -0.08600
C 	C 	0.34676 0.95035 0.51519 0.04700
C 	C 	0.33703 0.92458 0.46664 -0.14000
C 	C 	0.29386 0.88559 0.42785 0.16800
C 	C 	0.26188 0.87311 0.43854 -0.11700
H 	H 	0.37949 0.98032 0.54517 0.02000
H 	H 	0.22890 0.84340 0.40876 0.09400
H 	H 	0.32239 0.95776 0.56292 0.05200
Br	Br	0.27747 0.84801 0.36048 -0.25900
C 	C 	0.15005 0.91352 0.48300 0.05300
C 	C 	0.14022 0.92462 0.44231 -0.08500
C 	C 	0.11037 0.93904 0.42776 0.05600
C 	C 	0.08900 0.94145 0.45269 -0.15300
C 	C 	0.10012 0.93211 0.49503 0.17400
C 	C 	0.13111 0.91886 0.51051 -0.11800
H 	H 	0.10274 0.94705 0.39590 0.02100
H 	H 	0.13922 0.91119 0.54266 0.08100
H 	H 	0.15452 0.92060 0.42071 0.05900
Br	Br	0.07122 0.93423 0.52980 -0.30700
C 	C 	0.18448 0.79943 0.00734 0.05700
C 	C 	0.17230 0.76164 0.96625 -0.08900
C 	C 	0.15049 0.71956 0.96104 0.05000
C 	C 	0.14039 0.71464 0.99672 -0.13900
C 	C 	0.15269 0.75262 0.03822 0.16800
C 	C 	0.17496 0.79480 0.04353 -0.11700
H 	H 	0.14136 0.69067 0.92915 0.02700
H 	H 	0.18415 0.82388 0.07524 0.08000
H 	H 	0.17918 0.76482 0.93787 0.05700
Br	Br	0.13712 0.74755 0.08608 -0.22500
C 	C 	0.29606 0.91255 0.00137 0.05900
C 	C 	0.33612 0.95430 0.03590 -0.08700
C 	C 	0.36864 0.96642 0.02595 0.05500
C 	C 	0.36143 0.93697 0.98131 -0.14100
C 	C 	0.32125 0.89462 0.94690 0.17300
C 	C 	0.28877 0.88298 0.95689 -0.12100
H 	H 	0.39947 0.99875 0.05294 0.02000
H 	H 	0.25778 0.85075 0.93002 0.08000
H 	H 	0.34206 0.97736 0.07041 0.05600
Br	Br	0.31060 0.85106 0.88768 -0.25900
C 	C 	0.17349 0.92849 0.99544 0.04700
C 	C 	0.16317 0.93905 0.95429 -0.08700
C 	C 	0.13385 0.95415 0.94033 0.05300
C 	C 	0.11336 0.95766 0.96620 -0.15600
C 	C 	0.12482 0.94859 0.00880 0.17500
C 	C 	0.15547 0.93490 0.02383 -0.11600
H 	H 	0.12597 0.96187 0.90823 0.01800
H 	H 	0.16400 0.92770 0.05635 0.08100
H 	H 	0.17676 0.93422 0.93200 0.05300
Br	Br	0.09661 0.95132 0.04434 -0.33000
C 	C 	0.34681 0.58701 0.40870 0.05200
C 	C 	0.32859 0.54097 0.38651 -0.08500
C 	C 	0.35679 0.52452 0.40013 0.04900
C 	C 	0.40338 0.55398 0.43575 -0.15500
C 	C 	0.42179 0.60002 0.45528 0.16800
C 	C 	0.39354 0.61639 0.44241 -0.11600
H 	H 	0.34238 0.48897 0.38448 0.02800
H 	H 	0.40788 0.65201 0.45941 0.08300
H 	H 	0.29262 0.51801 0.35975 0.05700
Br	Br	0.48553 0.64097 0.49926 -0.27600
C 	C 	0.33300 0.71258 0.40181 0.04900
C 	C 	0.30743 0.72923 0.37763 -0.07700
C 	C 	0.32856 0.77145 0.38280 0.04200
C 	C 	0.37549 0.79718 0.41130 -0.12800
C 	C 	0.40094 0.77914 0.43261 0.16300
C 	C 	0.37987 0.73806 0.42991 -0.10900
H 	H 	0.30847 0.78427 0.36498 0.05100
H 	H 	0.39990 0.72542 0.44864 0.08100
H 	H 	0.27122 0.70954 0.35495 0.05800
Br	Br	0.46337 0.80736 0.46016 -0.22900
C 	C 	0.16874 0.57894 0.44783 -0.05900
C 	C 	0.15788 0.55587 0.39767 -0.00800
C 	C 	0.19019 0.56920 0.38771 -0.03000
C 	C 	0.23390 0.60540 0.42777 -0.03400
C 	C 	0.24547 0.62772 0.47864 0.10000
C 	C 	0.21288 0.61455 0.48844 -0.04300
H 	H 	0.18121 0.55146 0.34868 0.04300
H 	H 	0.22185 0.63230 0.52744 0.06900
H 	H 	0.12422 0.52793 0.36612 0.04600
Br	Br	0.30568 0.67571 0.53534 -0.24600
C 	C 	0.37901 0.61009 0.93728 0.05000
C 	C 	0.35968 0.56412 0.90905 -0.08600
C 	C 	0.38634 0.54587 0.92063 0.04700
C 	C 	0.43254 0.57346 0.96024 -0.15100
C 	C 	0.45239 0.61986 0.98598 0.16100
C 	C 	0.42556 0.63794 0.97492 -0.11300
H 	H 	0.37083 0.51015 0.90030 0.02100
H 	H 	0.44077 0.67352 0.99645 0.08400
H 	H 	0.32387 0.54244 0.87925 0.05300
Br	Br	0.51617 0.65902 0.03598 -0.24200
C 	C 	0.35269 0.73056 0.92221 0.05300
C 	C 	0.35567 0.73402 0.88146 -0.08300
C 	C 	0.37692 0.77578 0.88566 0.05300
C 	C 	0.39524 0.81443 0.93054 -0.12900
C 	C 	0.38983 0.81091 0.97001 0.16800
C 	C 	0.36895 0.76907 0.96591 -0.11200
H 	H 	0.38019 0.77815 0.85465 0.02600
H 	H 	0.36629 0.76656 0.99725 0.08900
H 	H 	0.34265 0.70442 0.84724 0.05400
Br	Br	0.40949 0.86268 0.02889 -0.23600
C 	C 	0.19425 0.59255 0.96841 -0.06600
C 	C 	0.18554 0.56635 0.92081 -0.00400
C 	C 	0.21813 0.57983 0.91127 -0.03500
C 	C 	0.25994 0.61936 0.94936 -0.03100
C 	C 	0.26974 0.64445 0.99835 0.09100
C 	C 	0.23687 0.63107 0.00760 -0.03200
H 	H 	0.21066 0.55988 0.87391 0.04100
H 	H 	0.24415 0.65125 0.04473 0.06800
H 	H 	0.15317 0.53601 0.89071 0.04000
Br	Br	0.32791 0.69678 0.05320 -0.23700
C 	C 	0.79316 0.13426 0.93770 0.05600
C 	C 	0.81681 0.11310 0.93816 -0.06700
C 	C 	0.85036 0.12879 0.93016 0.01800
C 	C 	0.85978 0.16547 0.92109 -0.05800
C 	C 	0.83693 0.18741 0.92187 0.01800
C 	C 	0.80260 0.17085 0.92850 -0.06500
H 	H 	0.81024 0.08551 0.94658 0.05700
H 	H 	0.88635 0.17822 0.91601 0.05100
H 	H 	0.78458 0.18749 0.92867 0.06100
C 	C 	0.76755 0.11872 0.41644 0.06000
C 	C 	0.78687 0.09350 0.41229 -0.06700
C 	C 	0.81733 0.10483 0.39908 0.01900
C 	C 	0.82559 0.13926 0.38621 -0.06000
C 	C 	0.81098 0.16794 0.39669 0.02100
C 	C 	0.78046 0.15665 0.40993 -0.06500
H 	H 	0.77955 0.06629 0.42130 0.05900
H 	H 	0.84743 0.14665 0.37349 0.05300
H 	H 	0.76802 0.17796 0.41688 0.06300
C 	C 	0.76084 0.40009 0.01052 0.00600
C 	C 	0.73952 0.42402 0.00874 -0.05400
C 	C 	0.69971 0.40686 0.00551 0.01300
C 	C 	0.68250 0.36660 0.00654 -0.05400
C 	C 	0.70474 0.34351 0.01059 0.00700
C 	C 	0.74428 0.36067 0.01336 -0.05300
H 	H 	0.75257 0.45471 0.00712 0.04900
H 	H 	0.65094 0.35237 0.00209 0.05500
H 	H 	0.76103 0.34242 0.01541 0.05300
C 	C 	0.73736 0.38569 0.49703 0.01700
C 	C 	0.71670 0.41007 0.49743 -0.05900
C 	C 	0.67643 0.39211 0.49310 0.01900
C 	C 	0.65847 0.35084 0.49172 -0.06800
C 	C 	0.67999 0.32719 0.49344 0.05800
C 	C 	0.71984 0.34500 0.49700 -0.06600
H 	H 	0.73038 0.44162 0.49774 0.04900
H 	H 	0.62675 0.33618 0.48686 0.06500
H 	H 	0.73575 0.32608 0.49671 0.06200
Zn	Zn	0.61846 0.60220 0.02529 1.18900
Zn	Zn	0.54212 0.57303 0.91842 1.19700
O 	O 	0.53841 0.50721 0.82775 -0.47400
O 	O 	0.51900 0.55874 0.84273 -0.44500
O 	O 	0.54747 0.44732 0.89475 -0.49700
C 	C 	0.65760 0.58209 0.97496 0.29600
O 	O 	0.50384 0.51024 0.89519 -0.87900
C 	C 	0.61685 0.66978 0.98994 0.34700
O 	O 	0.66653 0.60078 0.02174 -0.44900
O 	O 	0.61591 0.55916 0.93333 -0.38000
O 	O 	0.55771 0.57462 0.98856 -0.76300
O 	O 	0.58063 0.50093 0.97726 -0.44500
O 	O 	0.57956 0.63783 0.94331 -0.44900
O 	O 	0.63433 0.66211 0.02980 -0.43400
Zn	Zn	0.42382 0.42961 0.90721 1.18000
Zn	Zn	0.50144 0.44929 0.00443 1.20000
Zn	Zn	0.51994 0.51186 0.96135 1.21800
C 	C 	0.42091 0.35821 0.93670 0.34900
C 	C 	0.39691 0.44993 0.97265 0.34200
O 	O 	0.46004 0.52567 0.94615 -0.47000
Zn	Zn	0.50262 0.52821 0.04842 1.20400
O 	O 	0.46395 0.38449 0.97587 -0.43200
O 	O 	0.40192 0.36811 0.89960 -0.44400
O 	O 	0.38618 0.44162 0.92527 -0.46200
O 	O 	0.43724 0.46087 0.00943 -0.46100
C 	C 	0.52504 0.48977 0.11629 0.38200
O 	O 	0.48208 0.44953 0.93412 -0.79000
C 	C 	0.45868 0.55367 0.97922 0.34900
O 	O 	0.52193 0.45949 0.07983 -0.41400
O 	O 	0.52656 0.52563 0.11369 -0.47400
O 	O 	0.47471 0.55875 0.02677 -0.47400
O 	O 	0.53458 0.51244 0.02694 -0.88300
Zn	Zn	0.52151 0.47713 0.86486 1.18800
C 	C 	0.52578 0.53369 0.81407 0.32800
C 	C 	0.57771 0.46734 0.94572 0.35200
H 	H 	0.56698 0.52786 0.05499 0.18700
H 	H 	0.47159 0.49888 0.87106 0.15100
Zn	Zn	0.59380 0.58720 0.50697 1.18700
Zn	Zn	0.51677 0.55419 0.39776 1.19800
O 	O 	0.51472 0.48584 0.31022 -0.47000
O 	O 	0.49421 0.53686 0.32178 -0.44600
O 	O 	0.52204 0.42870 0.38048 -0.49000
C 	C 	0.63322 0.56765 0.45661 0.29700
O 	O 	0.47886 0.49193 0.37691 -0.87500
C 	C 	0.59156 0.65145 0.46802 0.31200
O 	O 	0.64294 0.58910 0.50324 -0.45400
O 	O 	0.59104 0.54007 0.41641 -0.37700
O 	O 	0.53289 0.55819 0.46904 -0.76400
O 	O 	0.55590 0.48460 0.46182 -0.44000
O 	O 	0.55913 0.61734 0.42015 -0.44300
O 	O 	0.60571 0.64572 0.50985 -0.44900
Zn	Zn	0.39988 0.41556 0.39344 1.18100
Zn	Zn	0.47566 0.43769 0.49187 1.19600
Zn	Zn	0.49532 0.49598 0.44429 1.21900
C 	C 	0.39768 0.34358 0.42151 0.34500
C 	C 	0.37298 0.43733 0.45851 0.34200
O 	O 	0.43483 0.50936 0.42648 -0.47400
Zn	Zn	0.47832 0.51651 0.53155 1.20000
O 	O 	0.43560 0.37432 0.46809 -0.42500
O 	O 	0.37732 0.35410 0.38575 -0.44600
O 	O 	0.36300 0.42924 0.41147 -0.46100
O 	O 	0.41361 0.44977 0.49639 -0.47700
C 	C 	0.50728 0.48504 0.60638 0.37700
O 	O 	0.45771 0.43423 0.42003 -0.78300
C 	C 	0.43194 0.53720 0.45767 0.35800
O 	O 	0.50153 0.45249 0.56949 -0.42200
O 	O 	0.50364 0.51781 0.59926 -0.47900
O 	O 	0.44918 0.54510 0.50637 -0.48300
O 	O 	0.51027 0.49951 0.51101 -0.88800
Zn	Zn	0.49649 0.45764 0.34810 1.19000
C 	C 	0.50493 0.51394 0.29702 0.33400
C 	C 	0.55283 0.45022 0.43143 0.35400
H 	H 	0.54259 0.51460 0.53913 0.18600
H 	H 	0.44655 0.48027 0.35258 0.15300
C 	C 	0.52263 0.53821 0.76860 -0.15500
C 	C 	0.52604 0.51130 0.73582 0.00100
C 	C 	0.52092 0.51554 0.68936 0.03600
C 	C 	0.51712 0.48453 0.65171 -0.20700
H 	H 	0.51859 0.54330 0.68510 0.03500
H 	H 	0.51648 0.56337 0.76110 0.08000
H 	H 	0.52012 0.45735 0.65702 0.10200
H 	H 	0.53149 0.48559 0.74254 0.03800
C 	C 	0.52713 0.48388 0.15669 -0.20200
C 	C 	0.52629 0.51170 0.19212 0.04000
C 	C 	0.52121 0.50109 0.23111 0.00600
C 	C 	0.50892 0.52234 0.25654 -0.15300
H 	H 	0.52708 0.47582 0.23867 0.04300
H 	H 	0.52652 0.45448 0.15876 0.10900
H 	H 	0.50225 0.54689 0.24781 0.08400
H 	H 	0.52710 0.54139 0.19082 0.03900
C 	C 	0.61415 0.19648 0.47436 -0.05800
C 	C 	0.63838 0.23433 0.52316 -0.00300
C 	C 	0.66055 0.27683 0.52943 -0.03000
C 	C 	0.65868 0.28207 0.48705 -0.03300
C 	C 	0.63429 0.24422 0.43796 0.10100
C 	C 	0.61239 0.20169 0.43189 -0.04000
H 	H 	0.67887 0.30575 0.56717 0.04100
H 	H 	0.59419 0.17275 0.39422 0.07300
H 	H 	0.63979 0.23089 0.55616 0.04600
Br	Br	0.62963 0.24997 0.37843 -0.23500
C 	C 	0.77207 0.39873 0.48723 0.05200
C 	C 	0.81444 0.43755 0.52536 -0.08600
C 	C 	0.84676 0.45035 0.51519 0.04800
C 	C 	0.83703 0.42458 0.46664 -0.14000
C 	C 	0.79386 0.38559 0.42785 0.16800
C 	C 	0.76188 0.37312 0.43854 -0.11700
H 	H 	0.87949 0.48032 0.54517 0.02100
H 	H 	0.72890 0.34340 0.40876 0.09400
H 	H 	0.82239 0.45776 0.56292 0.05200
Br	Br	0.77747 0.34801 0.36048 -0.25800
C 	C 	0.65005 0.41352 0.48300 0.05300
C 	C 	0.64022 0.42462 0.44231 -0.08500
C 	C 	0.61037 0.43904 0.42776 0.05600
C 	C 	0.58900 0.44145 0.45269 -0.15200
C 	C 	0.60012 0.43211 0.49503 0.17400
C 	C 	0.63111 0.41886 0.51051 -0.11700
H 	H 	0.60274 0.44705 0.39590 0.02200
H 	H 	0.63922 0.41119 0.54266 0.08100
H 	H 	0.65452 0.42060 0.42071 0.06000
Br	Br	0.57122 0.43423 0.52980 -0.30700
C 	C 	0.68448 0.29943 0.00734 0.05800
C 	C 	0.67230 0.26164 0.96625 -0.09000
C 	C 	0.65049 0.21956 0.96104 0.05100
C 	C 	0.64039 0.21464 0.99672 -0.14000
C 	C 	0.65269 0.25262 0.03822 0.16900
C 	C 	0.67496 0.29480 0.04353 -0.11700
H 	H 	0.64136 0.19067 0.92915 0.02700
H 	H 	0.68415 0.32388 0.07524 0.08000
H 	H 	0.67918 0.26482 0.93787 0.05700
Br	Br	0.63712 0.24755 0.08608 -0.22600
C 	C 	0.79606 0.41255 0.00137 0.06100
C 	C 	0.83612 0.45430 0.03590 -0.08700
C 	C 	0.86864 0.46642 0.02595 0.05800
C 	C 	0.86143 0.43697 0.98131 -0.14200
C 	C 	0.82125 0.39462 0.94690 0.17400
C 	C 	0.78877 0.38298 0.95689 -0.12300
H 	H 	0.89947 0.49876 0.05294 0.02200
H 	H 	0.75778 0.35075 0.93002 0.08000
H 	H 	0.84206 0.47736 0.07041 0.05700
Br	Br	0.81060 0.35106 0.88768 -0.25900
C 	C 	0.67349 0.42849 0.99544 0.04600
C 	C 	0.66317 0.43905 0.95429 -0.08700
C 	C 	0.63385 0.45415 0.94033 0.05500
C 	C 	0.61336 0.45766 0.96620 -0.15800
C 	C 	0.62482 0.44859 0.00880 0.17700
C 	C 	0.65547 0.43490 0.02383 -0.11500
H 	H 	0.62597 0.46187 0.90823 0.01900
H 	H 	0.66400 0.42770 0.05635 0.08100
H 	H 	0.67676 0.43422 0.93200 0.05400
Br	Br	0.59661 0.45132 0.04434 -0.32800
C 	C 	0.84681 0.08701 0.40870 0.05400
C 	C 	0.82859 0.04097 0.38651 -0.08900
C 	C 	0.85679 0.02452 0.40013 0.06100
C 	C 	0.90338 0.05398 0.43575 -0.15900
C 	C 	0.92179 0.10002 0.45528 0.17000
C 	C 	0.89354 0.11639 0.44241 -0.11700
H 	H 	0.84238 0.98897 0.38448 0.02000
H 	H 	0.90788 0.15201 0.45941 0.08300
H 	H 	0.79262 0.01801 0.35975 0.06000
Br	Br	0.98553 0.14097 0.49926 -0.27800
C 	C 	0.83300 0.21258 0.40181 0.05000
C 	C 	0.80743 0.22923 0.37763 -0.07700
C 	C 	0.82856 0.27145 0.38280 0.04300
C 	C 	0.87549 0.29718 0.41130 -0.12900
C 	C 	0.90094 0.27914 0.43261 0.16300
C 	C 	0.87987 0.23806 0.42991 -0.10900
H 	H 	0.80847 0.28427 0.36498 0.05100
H 	H 	0.89990 0.22542 0.44864 0.08100
H 	H 	0.77122 0.20954 0.35495 0.05800
Br	Br	0.96337 0.30736 0.46016 -0.23100
C 	C 	0.66874 0.07894 0.44783 -0.05800
C 	C 	0.65788 0.05587 0.39767 -0.00800
C 	C 	0.69019 0.06920 0.38771 -0.02900
C 	C 	0.73390 0.10540 0.42777 -0.03400
C 	C 	0.74547 0.12772 0.47864 0.10100
C 	C 	0.71288 0.11455 0.48844 -0.04300
H 	H 	0.68121 0.05146 0.34868 0.04400
H 	H 	0.72185 0.13230 0.52744 0.06900
H 	H 	0.62422 0.02793 0.36612 0.04800
Br	Br	0.80568 0.17571 0.53534 -0.24600
C 	C 	0.87901 0.11009 0.93728 0.04900
C 	C 	0.85968 0.06412 0.90905 -0.08500
C 	C 	0.88634 0.04588 0.92063 0.04600
C 	C 	0.93254 0.07346 0.96024 -0.15000
C 	C 	0.95239 0.11986 0.98598 0.15800
C 	C 	0.92556 0.13794 0.97492 -0.11200
H 	H 	0.87083 0.01015 0.90030 0.02300
H 	H 	0.94077 0.17352 0.99645 0.08300
H 	H 	0.82387 0.04244 0.87925 0.05400
Br	Br	0.01617 0.15902 0.03598 -0.23700
C 	C 	0.85269 0.23056 0.92221 0.05300
C 	C 	0.85567 0.23402 0.88146 -0.08300
C 	C 	0.87692 0.27577 0.88566 0.05300
C 	C 	0.89524 0.31443 0.93054 -0.12900
C 	C 	0.88983 0.31091 0.97001 0.16700
C 	C 	0.86895 0.26907 0.96591 -0.11200
H 	H 	0.88019 0.27815 0.85465 0.02500
H 	H 	0.86629 0.26656 0.99725 0.08900
H 	H 	0.84265 0.20443 0.84724 0.05400
Br	Br	0.90949 0.36268 0.02889 -0.23500
C 	C 	0.69425 0.09255 0.96841 -0.06600
C 	C 	0.68554 0.06635 0.92081 -0.00300
C 	C 	0.71813 0.07983 0.91127 -0.03400
C 	C 	0.75994 0.11936 0.94936 -0.03000
C 	C 	0.76974 0.14445 0.99835 0.09000
C 	C 	0.73687 0.13107 0.00760 -0.03000
H 	H 	0.71066 0.05988 0.87391 0.04200
H 	H 	0.74415 0.15125 0.04473 0.06800
H 	H 	0.65317 0.03601 0.89071 0.04200
Br	Br	0.82791 0.19678 0.05320 -0.23700
C 	C 	0.79316 0.63426 0.93770 0.05600
C 	C 	0.81681 0.61310 0.93816 -0.06700
C 	C 	0.85036 0.62879 0.93016 0.01800
C 	C 	0.85978 0.66547 0.92109 -0.05800
C 	C 	0.83693 0.68741 0.92187 0.01800
C 	C 	0.80260 0.67085 0.92850 -0.06500
H 	H 	0.81024 0.58551 0.94658 0.05600
H 	H 	0.88635 0.67822 0.91601 0.05100
H 	H 	0.78458 0.68749 0.92867 0.06100
C 	C 	0.76755 0.61872 0.41644 0.06000
C 	C 	0.78687 0.59350 0.41229 -0.06800
C 	C 	0.81733 0.60483 0.39908 0.01900
C 	C 	0.82560 0.63926 0.38621 -0.06100
C 	C 	0.81098 0.66794 0.39669 0.02000
C 	C 	0.78046 0.65665 0.40993 -0.06500
H 	H 	0.77955 0.56630 0.42130 0.05800
H 	H 	0.84743 0.64665 0.37349 0.05300
H 	H 	0.76802 0.67796 0.41688 0.06300
C 	C 	0.76084 0.90009 0.01052 0.00600
C 	C 	0.73952 0.92402 0.00874 -0.05400
C 	C 	0.69971 0.90686 0.00551 0.01300
C 	C 	0.68250 0.86660 0.00654 -0.05400
C 	C 	0.70474 0.84351 0.01059 0.00700
C 	C 	0.74428 0.86067 0.01336 -0.05300
H 	H 	0.75257 0.95471 0.00712 0.04800
H 	H 	0.65094 0.85237 0.00209 0.05500
H 	H 	0.76103 0.84242 0.01541 0.05300
C 	C 	0.73736 0.88569 0.49703 0.01600
C 	C 	0.71670 0.91007 0.49743 -0.05900
C 	C 	0.67643 0.89211 0.49310 0.01800
C 	C 	0.65847 0.85084 0.49172 -0.06800
C 	C 	0.67999 0.82719 0.49344 0.05800
C 	C 	0.71984 0.84500 0.49700 -0.06600
H 	H 	0.73038 0.94162 0.49774 0.04800
H 	H 	0.62675 0.83618 0.48686 0.06500
H 	H 	0.73575 0.82608 0.49671 0.06200
Zn	Zn	0.61846 0.10220 0.02529 1.18900
Zn	Zn	0.54212 0.07303 0.91842 1.19700
O 	O 	0.53841 0.00720 0.82775 -0.47100
O 	O 	0.51900 0.05874 0.84273 -0.44400
O 	O 	0.54747 0.94732 0.89475 -0.49800
C 	C 	0.65760 0.08209 0.97496 0.29700
O 	O 	0.50384 0.01024 0.89519 -0.87100
C 	C 	0.61685 0.16978 0.98994 0.34700
O 	O 	0.66653 0.10078 0.02174 -0.44800
O 	O 	0.61591 0.05916 0.93333 -0.37900
O 	O 	0.55771 0.07462 0.98856 -0.76300
O 	O 	0.58063 0.00093 0.97726 -0.43700
O 	O 	0.57956 0.13783 0.94331 -0.44900
O 	O 	0.63433 0.16211 0.02980 -0.43400
Zn	Zn	0.42382 0.92961 0.90721 1.17900
Zn	Zn	0.50144 0.94929 0.00443 1.19900
Zn	Zn	0.51994 0.01185 0.96135 1.21900
C 	C 	0.42091 0.85821 0.93670 0.34900
C 	C 	0.39691 0.94993 0.97265 0.34200
O 	O 	0.46004 0.02567 0.94615 -0.46700
Zn	Zn	0.50262 0.02821 0.04842 1.20500
O 	O 	0.46395 0.88449 0.97587 -0.43200
O 	O 	0.40192 0.86811 0.89960 -0.44400
O 	O 	0.38618 0.94162 0.92527 -0.46400
O 	O 	0.43724 0.96088 0.00943 -0.46300
C 	C 	0.52504 0.98977 0.11629 0.37700
O 	O 	0.48208 0.94953 0.93412 -0.79300
C 	C 	0.45868 0.05367 0.97922 0.35000
O 	O 	0.52193 0.95949 0.07983 -0.41400
O 	O 	0.52656 0.02564 0.11369 -0.46800
O 	O 	0.47471 0.05875 0.02677 -0.47300
O 	O 	0.53458 0.01244 0.02694 -0.88000
Zn	Zn	0.52151 0.97713 0.86486 1.18600
C 	C 	0.52578 0.03369 0.81407 0.33000
C 	C 	0.57771 0.96734 0.94572 0.34400
H 	H 	0.56698 0.02786 0.05499 0.18800
H 	H 	0.47159 0.99888 0.87106 0.14400
Zn	Zn	0.59380 0.08720 0.50697 1.18700
Zn	Zn	0.51677 0.05419 0.39776 1.19900
O 	O 	0.51472 0.98584 0.31022 -0.47800
O 	O 	0.49421 0.03686 0.32178 -0.44600
O 	O 	0.52204 0.92870 0.38048 -0.49100
C 	C 	0.63322 0.06765 0.45661 0.29800
O 	O 	0.47886 0.99193 0.37691 -0.87800
C 	C 	0.59156 0.15145 0.46802 0.31200
O 	O 	0.64293 0.08910 0.50324 -0.45300
O 	O 	0.59104 0.04007 0.41641 -0.37400
O 	O 	0.53289 0.05819 0.46904 -0.76100
O 	O 	0.55590 0.98460 0.46182 -0.44300
O 	O 	0.55913 0.11734 0.42015 -0.44300
O 	O 	0.60571 0.14572 0.50985 -0.44800
Zn	Zn	0.39988 0.91556 0.39344 1.18000
Zn	Zn	0.47566 0.93769 0.49187 1.19600
Zn	Zn	0.49532 0.99598 0.44429 1.21800
C 	C 	0.39768 0.84359 0.42151 0.34500
C 	C 	0.37298 0.93733 0.45851 0.34200
O 	O 	0.43483 0.00936 0.42648 -0.47000
Zn	Zn	0.47832 0.01651 0.53155 1.20200
O 	O 	0.43560 0.87432 0.46809 -0.42500
O 	O 	0.37732 0.85410 0.38575 -0.44600
O 	O 	0.36300 0.92924 0.41147 -0.46200
O 	O 	0.41361 0.94977 0.49639 -0.47900
C 	C 	0.50728 0.98504 0.60638 0.37200
O 	O 	0.45771 0.93423 0.42003 -0.78400
C 	C 	0.43194 0.03720 0.45767 0.35900
O 	O 	0.50153 0.95249 0.56949 -0.42200
O 	O 	0.50364 0.01781 0.59926 -0.47200
O 	O 	0.44918 0.04510 0.50637 -0.48200
O 	O 	0.51027 0.99951 0.51101 -0.89700
Zn	Zn	0.49649 0.95764 0.34810 1.19000
C 	C 	0.50493 0.01394 0.29702 0.34300
C 	C 	0.55283 0.95022 0.43143 0.35400
H 	H 	0.54259 0.01460 0.53913 0.19400
H 	H 	0.44655 0.98027 0.35258 0.15200
C 	C 	0.52263 0.03821 0.76860 -0.15700
C 	C 	0.52604 0.01130 0.73582 0.00900
C 	C 	0.52092 0.01554 0.68936 0.04300
C 	C 	0.51712 0.98453 0.65171 -0.21400
H 	H 	0.51859 0.04330 0.68510 0.03400
H 	H 	0.51648 0.06337 0.76110 0.08100
H 	H 	0.52012 0.95735 0.65702 0.10200
H 	H 	0.53149 0.98559 0.74254 0.03000
C 	C 	0.52713 0.98388 0.15669 -0.20800
C 	C 	0.52629 0.01170 0.19212 0.04600
C 	C 	0.52121 0.00109 0.23111 0.01600
C 	C 	0.50892 0.02234 0.25654 -0.15700
H 	H 	0.52708 0.97582 0.23867 0.03700
H 	H 	0.52652 0.95448 0.15876 0.11000
H 	H 	0.50225 0.04689 0.24781 0.08600
H 	H 	0.52710 0.04139 0.19082 0.03900
C 	C 	0.61415 0.69648 0.47436 -0.05800
C 	C 	0.63838 0.73433 0.52316 -0.00300
C 	C 	0.66055 0.77683 0.52943 -0.03000
C 	C 	0.65868 0.78207 0.48705 -0.03300
C 	C 	0.63429 0.74422 0.43796 0.10100
C 	C 	0.61239 0.70169 0.43189 -0.04000
H 	H 	0.67887 0.80575 0.56717 0.04100
H 	H 	0.59419 0.67275 0.39422 0.07300
H 	H 	0.63979 0.73089 0.55616 0.04500
Br	Br	0.62963 0.74997 0.37843 -0.23600
C 	C 	0.77207 0.89873 0.48723 0.05200
C 	C 	0.81444 0.93755 0.52536 -0.08700
C 	C 	0.84676 0.95035 0.51519 0.04700
C 	C 	0.83703 0.92458 0.46664 -0.14100
C 	C 	0.79386 0.88559 0.42785 0.16800
C 	C 	0.76188 0.87311 0.43854 -0.11700
H 	H 	0.87949 0.98032 0.54517 0.02000
H 	H 	0.72890 0.84340 0.40876 0.09300
H 	H 	0.82239 0.95776 0.56292 0.05100
Br	Br	0.77747 0.84801 0.36048 -0.25900
C 	C 	0.65005 0.91352 0.48300 0.05300
C 	C 	0.64022 0.92462 0.44231 -0.08500
C 	C 	0.61037 0.93904 0.42776 0.05600
C 	C 	0.58900 0.94145 0.45269 -0.15300
C 	C 	0.60012 0.93211 0.49503 0.17400
C 	C 	0.63111 0.91886 0.51051 -0.11800
H 	H 	0.60274 0.94705 0.39590 0.02000
H 	H 	0.63922 0.91119 0.54266 0.08100
H 	H 	0.65452 0.92060 0.42071 0.05900
Br	Br	0.57122 0.93423 0.52980 -0.31000
C 	C 	0.68448 0.79943 0.00734 0.05900
C 	C 	0.67230 0.76164 0.96625 -0.09000
C 	C 	0.65049 0.71956 0.96104 0.05100
C 	C 	0.64039 0.71464 0.99672 -0.14100
C 	C 	0.65269 0.75262 0.03822 0.16900
C 	C 	0.67496 0.79480 0.04353 -0.11800
H 	H 	0.64136 0.69067 0.92915 0.02700
H 	H 	0.68415 0.82388 0.07524 0.08000
H 	H 	0.67918 0.76482 0.93787 0.05700
Br	Br	0.63712 0.74755 0.08608 -0.22600
C 	C 	0.79606 0.91255 0.00137 0.06100
C 	C 	0.83612 0.95430 0.03590 -0.08800
C 	C 	0.86864 0.96642 0.02595 0.05700
C 	C 	0.86143 0.93697 0.98131 -0.14300
C 	C 	0.82125 0.89462 0.94690 0.17400
C 	C 	0.78877 0.88298 0.95689 -0.12300
H 	H 	0.89947 0.99875 0.05294 0.01900
H 	H 	0.75778 0.85075 0.93002 0.08000
H 	H 	0.84206 0.97736 0.07041 0.05600
Br	Br	0.81060 0.85106 0.88768 -0.26000
C 	C 	0.67349 0.92849 0.99544 0.04500
C 	C 	0.66317 0.93905 0.95429 -0.08700
C 	C 	0.63385 0.95415 0.94033 0.05300
C 	C 	0.61336 0.95766 0.96620 -0.15700
C 	C 	0.62482 0.94859 0.00880 0.17500
C 	C 	0.65547 0.93490 0.02383 -0.11500
H 	H 	0.62597 0.96187 0.90823 0.01800
H 	H 	0.66400 0.92770 0.05635 0.08000
H 	H 	0.67676 0.93422 0.93200 0.05300
Br	Br	0.59661 0.95132 0.04434 -0.33100
C 	C 	0.84681 0.58701 0.40870 0.05200
C 	C 	0.82859 0.54097 0.38651 -0.08500
C 	C 	0.85679 0.52452 0.40013 0.04900
C 	C 	0.90338 0.55398 0.43575 -0.15600
C 	C 	0.92179 0.60002 0.45528 0.16800
C 	C 	0.89354 0.61639 0.44241 -0.11600
H 	H 	0.84238 0.48897 0.38448 0.02800
H 	H 	0.90787 0.65201 0.45941 0.08300
H 	H 	0.79262 0.51801 0.35975 0.05700
Br	Br	0.98553 0.64097 0.49926 -0.27900
C 	C 	0.83300 0.71258 0.40181 0.04900
C 	C 	0.80743 0.72923 0.37763 -0.07700
C 	C 	0.82856 0.77145 0.38280 0.04200
C 	C 	0.87549 0.79718 0.41130 -0.12900
C 	C 	0.90094 0.77914 0.43261 0.16300
C 	C 	0.87987 0.73806 0.42991 -0.10900
H 	H 	0.80847 0.78427 0.36498 0.05100
H 	H 	0.89990 0.72542 0.44864 0.08100
H 	H 	0.77122 0.70954 0.35495 0.05800
Br	Br	0.96337 0.80736 0.46016 -0.23200
C 	C 	0.66874 0.57894 0.44783 -0.05900
C 	C 	0.65788 0.55587 0.39767 -0.00800
C 	C 	0.69019 0.56920 0.38771 -0.03000
C 	C 	0.73390 0.60540 0.42777 -0.03400
C 	C 	0.74547 0.62772 0.47864 0.10000
C 	C 	0.71288 0.61455 0.48844 -0.04300
H 	H 	0.68121 0.55146 0.34868 0.04300
H 	H 	0.72185 0.63230 0.52744 0.06900
H 	H 	0.62422 0.52793 0.36612 0.04600
Br	Br	0.80568 0.67571 0.53534 -0.24700
C 	C 	0.87901 0.61009 0.93728 0.04900
C 	C 	0.85968 0.56412 0.90905 -0.08600
C 	C 	0.88634 0.54587 0.92063 0.04600
C 	C 	0.93254 0.57346 0.96024 -0.15100
C 	C 	0.95239 0.61986 0.98598 0.15700
C 	C 	0.92556 0.63794 0.97492 -0.11200
H 	H 	0.87083 0.51015 0.90030 0.02100
H 	H 	0.94077 0.67352 0.99645 0.08300
H 	H 	0.82387 0.54244 0.87925 0.05200
Br	Br	0.01617 0.65902 0.03598 -0.23700
C 	C 	0.85269 0.73056 0.92221 0.05300
C 	C 	0.85567 0.73402 0.88146 -0.08300
C 	C 	0.87692 0.77578 0.88566 0.05300
C 	C 	0.89524 0.81443 0.93054 -0.12900
C 	C 	0.88983 0.81091 0.97001 0.16700
C 	C 	0.86895 0.76907 0.96591 -0.11200
H 	H 	0.88019 0.77815 0.85465 0.02500
H 	H 	0.86629 0.76656 0.99725 0.08900
H 	H 	0.84265 0.70442 0.84724 0.05300
Br	Br	0.90949 0.86268 0.02889 -0.23600
C 	C 	0.69425 0.59255 0.96841 -0.06800
C 	C 	0.68554 0.56635 0.92081 -0.00300
C 	C 	0.71813 0.57983 0.91127 -0.03500
C 	C 	0.75994 0.61936 0.94936 -0.03000
C 	C 	0.76974 0.64445 0.99835 0.08900
C 	C 	0.73687 0.63107 0.00760 -0.03000
H 	H 	0.71066 0.55988 0.87391 0.04100
H 	H 	0.74415 0.65125 0.04473 0.06800
H 	H 	0.65317 0.53601 0.89071 0.04000
Br	Br	0.82791 0.69678 0.05320 -0.23700
