data_crystal

_cell_length_a 17.85248
_cell_length_b 17.97082
_cell_length_c 88.75802
_cell_angle_alpha 90.07213
_cell_angle_beta  90.02663
_cell_angle_gamma 119.72194

_symmetry_space_group_name_	'P 1'
_symmetry_space_group_name_H-M	'P 1'

loop_
_symmetry_equiv_pos_as_xyz
  x,y,z

loop_
_atom_site_label
_atom_site_type_symbol
_atom_site_fract_x
_atom_site_fract_y
_atom_site_fract_z
_atom_site_charge
O 	O 	0.93630 0.62218 0.99345 -0.07900
H 	H 	0.02539 0.99341 0.00754 0.17800
N 	N 	0.00313 0.68018 0.00074 -0.02200
C 	C 	0.04592 0.85785 0.00460 0.31000
Ni	Ni	0.02649 0.94972 0.03161 1.13600
O 	O 	0.09528 0.15361 0.02315 -0.35200
O 	O 	0.04630 0.86342 0.01963 -0.35300
O 	O 	0.00795 0.67406 0.01526 -0.07000
C 	C 	0.15194 0.12949 0.02745 0.31900
O 	O 	0.13766 0.05119 0.02478 -0.37800
O 	O 	0.33284 0.19809 0.01425 -0.07000
N 	N 	0.32959 0.16137 0.02705 -0.02400
O 	O 	0.36062 0.10957 0.02806 -0.07800
O 	O 	0.02274 0.03185 0.04714 -0.37500
H 	H 	0.12992 0.21297 0.05082 0.06700
C 	C 	0.18782 0.20808 0.05165 0.00400
C 	C 	0.21560 0.18014 0.03920 -0.08600
C 	C 	0.29450 0.18005 0.04010 0.12600
C 	C 	0.33833 0.19732 0.05394 -0.07000
C 	C 	0.22664 0.21735 0.06574 0.06000
O 	O 	0.24956 0.03241 0.07802 -0.07600
C 	C 	0.30259 0.21180 0.06695 0.03000
C 	C 	0.34730 0.22593 0.08167 0.02900
N 	N 	0.33141 0.08135 0.08076 -0.01700
O 	O 	0.16675 0.28762 0.07967 -0.07600
O 	O 	0.15906 0.16855 0.08943 -0.07100
N 	N 	0.18556 0.22644 0.07892 -0.01900
H 	H 	0.36162 0.35144 0.08466 0.09500
C 	C 	0.37279 0.30247 0.08952 -0.06800
F 	F 	0.17804 0.96794 0.17536 -0.33400
C 	C 	0.30105 0.10284 0.16968 0.29400
O 	O 	0.05035 0.06864 0.19571 -0.34100
C 	C 	0.10824 0.04446 0.19448 0.37500
F 	F 	0.19659 0.22623 0.19441 -0.38800
C 	C 	0.18565 0.09557 0.18523 -0.17400
C 	C 	0.22969 0.18564 0.18616 0.28000
C 	C 	0.22102 0.05461 0.17672 0.26000
C 	C 	0.30997 0.23385 0.17918 0.29300
Ni	Ni	0.00868 0.91770 0.21935 1.11800
Ni	Ni	0.02829 0.10689 0.21578 1.12800
O 	O 	0.10630 0.98572 0.20358 -0.29700
O 	O 	0.14087 0.11884 0.22422 -0.32900
O 	O 	0.30464 0.07549 0.22159 -0.04800
O 	O 	0.99895 0.14405 0.23520 -0.35300
O 	O 	0.10337 0.98756 0.23511 -0.31300
H 	H 	0.98835 0.28678 0.23919 0.09100
C 	C 	0.14721 0.07256 0.23532 0.27800
N 	N 	0.29540 0.04649 0.23529 -0.03600
O 	O 	0.30287 0.97937 0.23802 -0.02400
O 	O 	0.03621 0.44524 0.25335 -0.07300
H 	H 	0.16267 0.18579 0.25654 0.07900
C 	C 	0.21746 0.11497 0.24628 -0.05900
C 	C 	0.21032 0.16540 0.25758 -0.00000
C 	C 	0.28142 0.09088 0.24742 0.13100
O 	O 	0.01498 0.03343 0.26285 -0.12500
N 	N 	0.02412 0.96883 0.26684 -0.02500
O 	O 	0.10103 0.97961 0.26884 -0.06800
C 	C 	0.25681 0.18086 0.27101 0.06900
C 	C 	0.31856 0.15391 0.27247 0.03100
O 	O 	0.99987 0.72820 0.29711 -0.04600
H 	H 	0.99131 0.92222 0.29543 0.10700
O 	O 	0.23998 0.99760 0.29318 -0.04100
O 	O 	0.21552 0.18246 0.29631 -0.07600
N 	N 	0.23900 0.22107 0.28336 -0.01700
O 	O 	0.24070 0.29359 0.28138 -0.07000
N 	N 	0.00679 0.77399 0.30894 -0.03300
O 	O 	0.08260 0.82583 0.31450 -0.06600
O 	O 	0.98503 0.37486 0.35207 -0.06200
C 	C 	0.00827 0.42084 0.39022 -0.07900
H 	H 	0.04669 0.39012 0.39196 0.10200
C 	C 	0.00835 0.47761 0.40112 0.02900
O 	O 	0.20912 0.37813 0.41853 -0.08000
N 	N 	0.26470 0.45113 0.41262 -0.01800
O 	O 	0.24227 0.48093 0.40117 -0.08600
N 	N 	0.94839 0.37066 0.42778 -0.01200
O 	O 	0.94331 0.30709 0.41995 -0.06000
C 	C 	0.06235 0.49749 0.41475 0.03200
C 	C 	0.14181 0.57370 0.41520 -0.06300
H 	H 	0.16904 0.60976 0.40494 0.09500
O 	O 	0.33680 0.68199 0.42929 -0.08300
C 	C 	0.02734 0.45080 0.42812 0.07200
C 	C 	0.06947 0.48358 0.44189 0.00600
C 	C 	0.14751 0.56128 0.44239 -0.08000
C 	C 	0.18448 0.60574 0.42891 0.13000
N 	N 	0.26502 0.68403 0.42912 -0.02500
H 	H 	0.04257 0.44742 0.45216 0.10000
O 	O 	0.26669 0.75644 0.42700 -0.06300
C 	C 	0.19748 0.58689 0.45643 0.33400
O 	O 	0.24898 0.55648 0.45930 -0.37300
F 	F 	0.01001 0.46454 0.48821 -0.37300
O 	O 	0.18609 0.63480 0.46629 -0.33700
C 	C 	0.01581 0.49214 0.50264 0.28500
C 	C 	0.17411 0.58908 0.49915 0.38600
O 	O 	0.18740 0.53600 0.49036 -0.32900
O 	O 	0.21749 0.67350 0.49735 -0.32100
C 	C 	0.09615 0.55255 0.50868 -0.18000
C 	C 	0.02528 0.55352 0.53204 0.28800
C 	C 	0.10030 0.58406 0.52334 0.28400
F 	F 	0.17726 0.64335 0.52924 -0.35800
F 	F 	0.03078 0.58290 0.54633 -0.36400
O 	O 	0.04410 0.48198 0.57179 -0.02200
H 	H 	0.07388 0.48555 0.61024 0.08400
C 	C 	0.07574 0.63510 0.63757 -0.07800
H 	H 	0.07492 0.68016 0.62955 0.10300
C 	C 	0.12057 0.66518 0.65121 0.13400
O 	O 	0.20860 0.81257 0.64563 -0.06600
H 	H 	0.06928 0.47249 0.66704 0.07700
C 	C 	0.07171 0.51826 0.65883 -0.00600
C 	C 	0.12467 0.60675 0.66139 -0.08600
N 	N 	0.15740 0.75393 0.65504 -0.02300
O 	O 	0.13426 0.77611 0.66739 -0.05300
C 	C 	0.19540 0.63589 0.67267 0.32600
O 	O 	0.25786 0.71617 0.67261 -0.33500
O 	O 	0.01119 0.38165 0.70670 -0.06900
N 	N 	0.09109 0.42540 0.71109 -0.02700
O 	O 	0.20989 0.57848 0.67885 -0.37300
C 	C 	0.20578 0.38823 0.70788 -0.09000
C 	C 	0.23910 0.33442 0.71154 0.00500
H 	H 	0.05756 0.33166 0.73604 0.09600
O 	O 	0.12837 0.50844 0.71203 -0.05800
H 	H 	0.05177 0.12195 0.74045 0.08800
C 	C 	0.10869 0.33285 0.72928 -0.06900
C 	C 	0.13523 0.38170 0.71607 0.13700
O 	O 	0.08787 0.83819 0.73984 -0.05300
C 	C 	0.15084 0.28892 0.73412 0.03200
C 	C 	0.21261 0.28535 0.72473 0.06300
N 	N 	0.00550 0.03023 0.76572 -0.04000
O 	O 	0.08529 0.71363 0.74422 -0.06200
H 	H 	0.05139 0.85131 0.77038 0.08300
O 	O 	0.02990 0.98760 0.77429 -0.07900
C 	C 	0.05741 0.12168 0.76472 0.12200
C 	C 	0.07756 0.16075 0.75051 -0.06600
N 	N 	0.10802 0.79158 0.74828 -0.01600
C 	C 	0.13210 0.24920 0.74919 0.02800
C 	C 	0.14920 0.82369 0.76254 0.07300
C 	C 	0.16801 0.29958 0.76223 0.07100
O 	O 	0.20993 0.54600 0.74278 -0.06000
O 	O 	0.21337 0.44302 0.76912 -0.05300
N 	N 	0.22615 0.38987 0.76105 -0.01600
C 	C 	0.22733 0.82581 0.76604 0.03500
H 	H 	0.23325 0.67893 0.76363 0.10300
O 	O 	0.05656 0.86366 0.80759 -0.33100
C 	C 	0.06439 0.13470 0.79294 0.32100
C 	C 	0.09089 0.17258 0.77783 -0.07500
C 	C 	0.11261 0.91904 0.79772 0.34100
C 	C 	0.11200 0.85410 0.77301 0.00800
O 	O 	0.14766 0.00344 0.79933 -0.38800
C 	C 	0.14678 0.26102 0.77646 0.00400
C 	C 	0.15226 0.88708 0.78690 -0.07400
H 	H 	0.17330 0.30010 0.78647 0.09200
C 	C 	0.22857 0.88610 0.79063 0.14900
O 	O 	0.12485 0.15122 0.80326 -0.35600
F 	F 	0.08799 0.76376 0.83012 -0.37800
F 	F 	0.06198 0.31731 0.82596 -0.36300
Ni	Ni	0.12728 0.06095 0.81709 1.12200
C 	C 	0.13636 0.80259 0.84252 0.28800
C 	C 	0.11864 0.33026 0.83724 0.27600
F 	F 	0.13474 0.46840 0.84150 -0.34900
F 	F 	0.17614 0.69439 0.84393 -0.34500
O 	O 	0.07815 0.33495 0.88520 -0.05400
C 	C 	0.10778 0.92382 0.83887 0.41100
O 	O 	0.13507 0.24804 0.88615 -0.03100
C 	C 	0.08952 0.17897 0.83420 0.38300
N 	N 	0.11616 0.30117 0.89279 -0.02500
O 	O 	0.11782 0.12408 0.83531 -0.33200
C 	C 	0.14408 0.87985 0.84777 -0.18400
O 	O 	0.16075 0.99231 0.83095 -0.32000
C 	C 	0.13864 0.26579 0.84113 -0.17600
C 	C 	0.18076 0.76655 0.84971 0.28200
C 	C 	0.15760 0.40867 0.84489 0.29200
C 	C 	0.19455 0.91956 0.86056 0.29500
F 	F 	0.20234 0.99419 0.86575 -0.34100
O 	O 	0.19592 0.50914 0.87456 -0.33400
O 	O 	0.15067 0.81898 0.90733 -0.02000
O 	O 	0.21950 0.70084 0.90212 -0.34300
O 	O 	0.19316 0.52771 0.90563 -0.35100
C 	C 	0.23142 0.80608 0.86258 -0.17400
C 	C 	0.23709 0.88246 0.86806 0.28400
C 	C 	0.20414 0.28457 0.85181 0.27600
H 	H 	0.04905 0.17408 0.91272 0.10300
O 	O 	0.04083 0.69381 0.91550 -0.05400
C 	C 	0.08267 0.23698 0.91790 -0.06300
C 	C 	0.12294 0.31020 0.90883 0.13800
N 	N 	0.12012 0.75560 0.91682 -0.02500
C 	C 	0.16707 0.39219 0.91557 -0.06900
C 	C 	0.08409 0.24468 0.93360 0.02700
C 	C 	0.17036 0.75854 0.92961 0.13600
C 	C 	0.04167 0.16699 0.94300 0.04700
C 	C 	0.05777 0.07105 0.96024 0.13700
O 	O 	0.06303 0.32169 0.96400 -0.06700
H 	H 	0.08496 0.76983 0.94544 0.09800
C 	C 	0.08979 0.13038 0.94842 -0.07400
O 	O 	0.07293 0.95180 0.96698 -0.05800
N 	N 	0.10756 0.03453 0.96587 -0.04200
C 	C 	0.12616 0.32650 0.94033 0.07300
C 	C 	0.14434 0.76794 0.94407 -0.06800
N 	N 	0.13080 0.33525 0.95637 -0.01800
H 	H 	0.15351 0.15076 0.94392 0.09700
H 	H 	0.07856 0.66483 0.97587 0.09300
C 	C 	0.10598 0.73041 0.97977 -0.06600
O 	O 	0.00203 0.08910 0.99288 -0.33800
O 	O 	0.98268 0.85509 0.99633 -0.36000
C 	C 	0.07289 0.74850 0.99272 0.13000
C 	C 	0.10459 0.83427 0.99720 -0.07100
C 	C 	0.16623 0.39976 0.93128 -0.00200
C 	C 	0.17209 0.79706 0.97155 0.02900
C 	C 	0.17885 0.89917 0.99027 -0.00000
F 	F 	0.22637 0.22485 0.85556 -0.35800
Ni	Ni	0.22282 0.61116 0.88831 1.13200
O 	O 	0.18833 0.08374 0.96937 -0.08000
O 	O 	0.24326 0.68239 0.86987 -0.33400
C 	C 	0.21972 0.42553 0.85599 -0.19300
C 	C 	0.21806 0.46928 0.90636 0.30900
C 	C 	0.19649 0.77886 0.95665 0.03300
H 	H 	0.20538 0.96497 0.99401 0.08900
C 	C 	0.24520 0.36451 0.85903 0.29000
H 	H 	0.19755 0.46241 0.93651 0.08600
C 	C 	0.21160 0.88149 0.97723 0.08000
C 	C 	0.25108 0.50235 0.86553 0.41700
C 	C 	0.27510 0.76562 0.87070 0.39300
C 	C 	0.24885 0.75819 0.92775 -0.07000
O 	O 	0.20427 0.36265 0.96322 -0.06800
N 	N 	0.25078 0.23453 0.72882 -0.01700
O 	O 	0.24292 0.17343 0.71995 -0.07700
F 	F 	0.28261 0.92009 0.88077 -0.35800
N 	N 	0.26837 0.91587 0.80504 -0.02500
C 	C 	0.25989 0.46610 0.69927 0.33300
O 	O 	0.26887 0.46165 0.68466 -0.37300
C 	C 	0.27781 0.74592 0.91274 0.30700
O 	O 	0.27099 0.97018 0.95583 -0.04800
O 	O 	0.26136 0.78269 0.59945 -0.06000
C 	C 	0.26541 0.85505 0.78021 -0.06600
H 	H 	0.28878 0.73200 0.62942 0.07500
C 	C 	0.26585 0.72294 0.75445 -0.06600
O 	O 	0.27705 0.86379 0.81410 -0.02600
O 	O 	0.27802 0.47090 0.89722 -0.31900
O 	O 	0.29679 0.41814 0.75327 -0.06100
N 	N 	0.28682 0.61257 0.74213 -0.02400
O 	O 	0.32228 0.64244 0.65280 -0.36400
Ni	Ni	0.30574 0.56251 0.67061 1.12600
F 	F 	0.30661 0.38093 0.86958 -0.38900
N 	N 	0.28207 0.95002 0.96940 -0.01600
C 	C 	0.27300 0.80427 0.75447 0.03400
O 	O 	0.30431 0.99685 0.80840 -0.04500
C 	C 	0.27432 0.77817 0.95482 0.07000
H 	H 	0.29125 0.33673 0.70492 0.07000
O 	O 	0.29916 0.25376 0.74077 -0.07000
C 	C 	0.29744 0.69684 0.74227 0.14000
O 	O 	0.31641 0.72750 0.70345 -0.35500
O 	O 	0.30416 0.97487 0.73169 -0.05400
Ni	Ni	0.28845 0.73232 0.47820 1.12900
C 	C 	0.30171 0.77138 0.94037 0.00300
H 	H 	0.29748 0.48027 0.44196 0.07900
O 	O 	0.30867 0.53677 0.70670 -0.36600
O 	O 	0.32372 0.61641 0.93272 -0.11800
O 	O 	0.32188 0.93693 0.46369 -0.05800
C 	C 	0.35566 0.76067 0.62597 0.00400
O 	O 	0.33432 0.55182 0.86735 -0.33600
O 	O 	0.34492 0.81385 0.87881 -0.32000
O 	O 	0.34064 0.65129 0.89246 -0.71700
H 	H 	0.33538 0.64566 0.90347 0.15800
N 	N 	0.32788 0.84123 0.60671 -0.01900
H 	H 	0.32506 0.85605 0.78297 0.10600
O 	O 	0.36158 0.79026 0.90963 -0.35000
Ni	Ni	0.29954 0.55838 0.47977 1.13400
C 	C 	0.33184 0.11078 0.26051 -0.06500
N 	N 	0.32351 0.03207 0.29345 -0.04100
C 	C 	0.39126 0.71896 0.65024 0.31000
C 	C 	0.31765 0.86222 0.74274 0.07100
Ni	Ni	0.37830 0.75759 0.68280 1.12200
C 	C 	0.33598 0.75247 0.72997 -0.08700
O 	O 	0.33752 0.07931 0.40557 -0.07100
O 	O 	0.34909 0.78055 0.45781 -0.34700
C 	C 	0.41375 0.74743 0.63462 -0.07500
C 	C 	0.35283 0.72096 0.71580 0.32700
O 	O 	0.29443 0.72326 0.97775 -0.07800
O 	O 	0.36549 0.97169 0.40172 -0.04500
C 	C 	0.38569 0.81945 0.61408 0.07200
N 	N 	0.32973 0.94716 0.74301 -0.01700
O 	O 	0.35409 0.60255 0.74272 -0.06100
O 	O 	0.35470 0.99747 0.97636 -0.04400
N 	N 	0.32533 0.78348 0.96764 -0.01800
O 	O 	0.35840 0.98357 0.29262 -0.04400
O 	O 	0.38699 0.65722 0.68220 -0.71700
C 	C 	0.34824 0.83579 0.73051 0.00700
H 	H 	0.41114 0.37536 0.66589 0.07300
F 	F 	0.35340 0.32044 0.18070 -0.36000
C 	C 	0.34796 0.50162 0.41942 0.06400
C 	C 	0.35459 0.51388 0.43508 0.00300
Ni	Ni	0.38749 0.57963 0.88868 1.13200
H 	H 	0.36392 0.77552 0.93899 0.07700
C 	C 	0.36147 0.16212 0.08815 0.06600
O 	O 	0.40166 0.54419 0.66361 -0.36200
F 	F 	0.33405 0.06241 0.16136 -0.38900
C 	C 	0.34690 0.19258 0.17119 -0.19300
H 	H 	0.35932 0.38168 0.39860 0.09600
O 	O 	0.35207 0.67824 0.48257 -0.73000
H 	H 	0.44495 0.86532 0.58040 0.10000
O 	O 	0.40264 0.31707 0.62820 -0.06900
O 	O 	0.33656 0.91691 0.60859 -0.04900
O 	O 	0.42471 0.77850 0.66094 -0.33900
O 	O 	0.37176 0.54626 0.94722 -0.07500
N 	N 	0.38610 0.61512 0.94004 -0.02200
H 	H 	0.38198 0.09360 0.26129 0.09800
H 	H 	0.35074 0.67937 0.49367 0.17800
O 	O 	0.44087 0.25635 0.64659 -0.07300
Ni	Ni	0.41372 0.77224 0.89093 1.13200
O 	O 	0.37200 0.36972 0.12537 -0.05300
F 	F 	0.34929 0.91820 0.51526 -0.35600
O 	O 	0.55986 0.99094 0.55063 -0.04500
N 	N 	0.39281 0.05269 0.40399 -0.02700
O 	O 	0.37775 0.84547 0.48941 -0.31500
H 	H 	0.37978 0.87949 0.72123 0.06600
O 	O 	0.37073 0.99843 0.75415 -0.05800
H 	H 	0.39927 0.19794 0.05461 0.09200
N 	N 	0.40534 0.98002 0.46231 -0.01800
O 	O 	0.53549 0.68789 0.64260 -0.07200
C 	C 	0.37750 0.18184 0.28558 0.03100
C 	C 	0.37650 0.12213 0.29602 0.06400
O 	O 	0.38497 0.05402 0.07776 -0.07700
H 	H 	0.43817 0.67705 0.67572 0.17400
N 	N 	0.44765 0.32451 0.64021 -0.01800
C 	C 	0.40715 0.31395 0.10404 0.13000
O 	O 	0.39417 0.27481 0.38493 -0.08600
O 	O 	0.39255 0.55175 0.46798 -0.35000
O 	O 	0.35782 0.55293 0.49877 -0.34000
C 	C 	0.49962 0.78144 0.62969 0.13300
Ni	Ni	0.42545 0.62478 0.69958 1.12800
O 	O 	0.41623 0.70357 0.71519 -0.36300
C 	C 	0.39687 0.43284 0.39072 -0.06600
C 	C 	0.40410 0.17739 0.10208 0.00100
N 	N 	0.41593 0.38422 0.11298 -0.02300
C 	C 	0.43129 0.83668 0.45702 0.32700
O 	O 	0.42422 0.96216 0.55522 -0.01100
C 	C 	0.47379 0.86080 0.61017 0.02800
C 	C 	0.44491 0.97514 0.44863 0.16000
C 	C 	0.45693 0.53881 0.67293 0.31000
O 	O 	0.44981 0.61959 0.90936 -0.32500
O 	O 	0.39845 0.30364 0.36019 -0.07900
N 	N 	0.50252 0.98889 0.55991 -0.01200
C 	C 	0.47105 0.42374 0.66089 0.00200
O 	O 	0.40370 0.84698 0.96896 -0.06600
N 	N 	0.40789 0.32906 0.37414 -0.02600
O 	O 	0.44885 0.54014 0.68788 -0.35800
C 	C 	0.48807 0.92824 0.58503 -0.03900
C 	C 	0.43346 0.57318 0.44169 -0.07600
C 	C 	0.46003 0.90637 0.44605 -0.07700
C 	C 	0.43417 0.60560 0.45700 0.32400
C 	C 	0.42774 0.25338 0.11008 -0.06900
C 	C 	0.42304 0.54135 0.41047 0.03300
O 	O 	0.45237 0.03124 0.47304 -0.06300
O 	O 	0.46911 0.76352 0.87162 -0.33600
H 	H 	0.41840 0.12996 0.10668 0.08000
H 	H 	0.45871 0.09305 0.43992 0.10000
N 	N 	0.55897 0.76495 0.63793 -0.02400
C 	C 	0.42068 0.51764 0.39441 0.03100
C 	C 	0.46995 0.03991 0.43785 -0.08600
C 	C 	0.52847 0.83612 0.61719 -0.05900
O 	O 	0.46230 0.46233 0.10811 -0.06900
H 	H 	0.42614 0.10555 0.31717 0.07100
C 	C 	0.42923 0.41541 0.37762 0.12200
C 	C 	0.46795 0.69151 0.94140 0.11500
C 	C 	0.42622 0.15140 0.30924 -0.00100
C 	C 	0.42959 0.26943 0.28829 -0.06700
C 	C 	0.49804 0.40649 0.64719 0.06500
C 	C 	0.48785 0.70145 0.91344 0.30200
C 	C 	0.43431 0.24248 0.16483 0.40600
H 	H 	0.43172 0.31534 0.28013 0.10000
O 	O 	0.41016 0.67514 0.39099 -0.06400
F 	F 	0.38677 0.41310 0.49806 -0.37500
C 	C 	0.44280 0.85764 0.49848 0.39400
H 	H 	0.45146 0.70737 0.96498 0.09100
O 	O 	0.98205 0.45985 0.31524 -0.06000
C 	C 	0.78002 0.94829 0.00851 0.37000
Ni	Ni	0.89111 0.87602 0.00479 1.12800
O 	O 	0.84149 0.02854 0.00714 -0.38500
O 	O 	0.79887 0.89315 0.01440 -0.36500
H 	H 	0.73901 0.03653 0.98788 0.04700
C 	C 	0.86605 0.78830 0.03427 0.33300
Ni	Ni	0.96719 0.07469 0.01534 1.11200
O 	O 	0.86249 0.77904 0.01953 -0.35600
O 	O 	0.91592 0.05014 0.03682 -0.36900
O 	O 	0.91402 0.86321 0.04042 -0.36000
O 	O 	0.97779 0.97523 0.01480 -0.70400
C 	C 	0.82804 0.71301 0.04412 -0.08200
H 	H 	0.93387 0.68863 0.04126 0.08100
O 	O 	0.61616 0.66931 0.04644 -0.05800
C 	C 	0.95822 0.04704 0.04861 0.32300
C 	C 	0.74164 0.65192 0.06667 -0.06800
C 	C 	0.79955 0.62577 0.07162 0.03200
C 	C 	0.86635 0.63483 0.06200 0.06800
C 	C 	0.87891 0.67667 0.04814 0.00100
C 	C 	0.75558 0.69556 0.05297 0.13700
N 	N 	0.92413 0.60541 0.06656 -0.01800
N 	N 	0.69752 0.72445 0.04832 -0.02500
O 	O 	0.72359 0.80604 0.04784 -0.04500
O 	O 	0.93208 0.54973 0.05835 -0.06400
C 	C 	0.95466 0.16055 0.06373 0.01100
C 	C 	0.94452 0.07811 0.06305 -0.09000
H 	H 	0.98604 0.20515 0.05456 0.06200
C 	C 	0.79068 0.59014 0.08695 0.02600
H 	H 	0.68781 0.64155 0.07374 0.09500
H 	H 	0.75127 0.46267 0.07892 0.09100
O 	O 	0.97391 0.63945 0.07822 -0.05200
C 	C 	0.91836 0.18339 0.07555 0.06200
C 	C 	0.90492 0.02088 0.07509 0.12700
N 	N 	0.92522 0.26620 0.07561 -0.01500
N 	N 	0.89846 0.93830 0.07499 -0.01200
O 	O 	0.69622 0.06832 0.07352 -0.07300
O 	O 	0.96791 0.93203 0.07443 -0.04800
O 	O 	0.82359 0.86965 0.07644 -0.05400
O 	O 	0.00080 0.33479 0.07585 -0.06500
O 	O 	0.85635 0.27309 0.07424 -0.06500
C 	C 	0.80821 0.64274 0.09978 0.07800
C 	C 	0.75334 0.46787 0.10315 0.12200
C 	C 	0.76372 0.50310 0.08874 -0.06100
N 	N 	0.84421 0.73330 0.09820 -0.01700
O 	O 	0.78736 0.35721 0.10140 -0.06800
O 	O 	0.91935 0.77857 0.09193 -0.04400
C 	C 	0.82902 0.14472 0.09897 0.02300
C 	C 	0.73873 0.10891 0.09884 0.07000
C 	C 	0.87281 0.12372 0.08701 0.04700
N 	N 	0.68732 0.04693 0.08767 -0.03200
C 	C 	0.86881 0.04381 0.08699 -0.10400
H 	H 	0.83638 0.99894 0.09608 0.13300
O 	O 	0.62730 0.97105 0.09175 -0.03500
C 	C 	0.79385 0.60665 0.11421 -0.00100
C 	C 	0.76641 0.51939 0.11600 -0.06300
N 	N 	0.73068 0.38011 0.10466 -0.02600
O 	O 	0.65008 0.32193 0.10611 -0.10600
O 	O 	0.80730 0.77160 0.10472 -0.05000
C 	C 	0.87846 0.20555 0.10989 -0.06200
C 	C 	0.69886 0.13474 0.10961 -0.00200
H 	H 	0.62934 0.10658 0.10941 0.08200
H 	H 	0.94804 0.23359 0.10990 0.10200
C 	C 	0.74629 0.48144 0.13118 0.30300
C 	C 	0.48013 0.27297 0.12401 0.30600
C 	C 	0.70470 0.22316 0.13188 0.30200
O 	O 	0.78369 0.43788 0.13607 -0.32100
O 	O 	0.61909 0.18791 0.13139 -0.35700
O 	O 	0.52977 0.35455 0.12774 -0.34200
O 	O 	0.46463 0.20945 0.13360 -0.33900
H 	H 	0.80580 0.64696 0.12403 0.11600
C 	C 	0.74843 0.19745 0.12041 -0.06300
C 	C 	0.83956 0.23401 0.12031 0.13600
N 	N 	0.89310 0.30249 0.13029 -0.02500
O 	O 	0.91015 0.38015 0.12729 -0.04600
Ni	Ni	0.57983 0.39568 0.14904 1.12700
Ni	Ni	0.55098 0.20199 0.14821 1.13600
O 	O 	0.69464 0.49535 0.14009 -0.31900
O 	O 	0.74890 0.26539 0.14403 -0.32600
O 	O 	0.62611 0.32236 0.14741 -0.71500
H 	H 	0.63709 0.32608 0.13652 0.16100
O 	O 	0.93454 0.28932 0.14107 -0.01400
Ni	Ni	0.74037 0.36150 0.15454 1.14300
O 	O 	0.61091 0.16100 0.16272 -0.33600
O 	O 	0.45525 0.31219 0.15697 -0.32400
O 	O 	0.48840 0.21358 0.16619 -0.33900
O 	O 	0.76457 0.47007 0.16611 -0.32300
C 	C 	0.78551 0.64238 0.17305 0.28600
F 	F 	0.86204 0.79492 0.17240 -0.35100
F 	F 	0.80613 0.64067 0.15839 -0.37400
C 	C 	0.70704 0.48242 0.17334 0.40600
C 	C 	0.66988 0.20905 0.17278 0.40900
O 	O 	0.62462 0.43221 0.17081 -0.33500
O 	O 	0.69898 0.29201 0.17337 -0.34200
C 	C 	0.67773 0.09495 0.18759 0.29700
C 	C 	0.72016 0.17409 0.18007 -0.19800
C 	C 	0.80966 0.21382 0.17773 0.28900
C 	C 	0.85590 0.17434 0.18260 0.27400
C 	C 	0.81446 0.09716 0.19074 -0.16600
F 	F 	0.94175 0.21219 0.17972 -0.35600
F 	F 	0.85179 0.29035 0.17053 -0.39400
C 	C 	0.73585 0.56547 0.18096 -0.18900
C 	C 	0.81437 0.72130 0.18024 0.28400
C 	C 	0.84223 0.80690 0.20379 0.39900
C 	C 	0.86723 0.06851 0.19914 0.36400
Ni	Ni	0.84309 0.94620 0.22275 1.14200
O 	O 	0.83619 0.98650 0.20198 -0.30700
O 	O 	0.92521 0.85526 0.20170 -0.32400
O 	O 	0.80268 0.82543 0.21446 -0.32300
O 	O 	0.93811 0.12711 0.20583 -0.32800
O 	O 	0.96483 0.99219 0.22265 -0.67900
C 	C 	0.72469 0.05708 0.19305 0.24800
F 	F 	0.68344 0.98321 0.20106 -0.35100
F 	F 	0.59117 0.05542 0.18981 -0.36700
C 	C 	0.71313 0.56840 0.19602 0.28900
C 	C 	0.79593 0.72458 0.19554 -0.17900
C 	C 	0.74360 0.64761 0.20333 0.28200
F 	F 	0.72551 0.64936 0.21814 -0.36700
F 	F 	0.66402 0.49461 0.20371 -0.36000
C 	C 	0.91809 0.11517 0.23974 0.30800
O 	O 	0.85089 0.05324 0.23232 -0.35100
O 	O 	0.92198 0.83365 0.23563 -0.32200
H 	H 	0.97682 0.00303 0.23349 0.13900
C 	C 	0.88698 0.85816 0.24645 0.30600
O 	O 	0.84013 0.89484 0.24319 -0.32200
C 	C 	0.91532 0.30670 0.25643 0.07400
C 	C 	0.94075 0.25693 0.24803 0.00200
C 	C 	0.90132 0.16814 0.25038 -0.06900
N 	N 	0.95281 0.39631 0.25329 -0.01100
O 	O 	0.90394 0.42777 0.24935 -0.04700
O 	O 	0.70095 0.26773 0.25200 -0.05200
C 	C 	0.82294 0.75556 0.26770 0.00600
C 	C 	0.88951 0.83354 0.26220 -0.06700
H 	H 	0.77509 0.70961 0.26001 0.09900
C 	C 	0.81409 0.17952 0.27029 -0.06500
C 	C 	0.85164 0.26782 0.26765 0.02700
C 	C 	0.83817 0.12951 0.26168 0.12600
N 	N 	0.79847 0.03947 0.26446 -0.03800
N 	N 	0.68132 0.25136 0.26618 -0.01600
O 	O 	0.71610 0.99052 0.26226 -0.03500
O 	O 	0.84295 0.00782 0.27051 -0.08500
O 	O 	0.60494 0.19047 0.26999 -0.08300
C 	C 	0.47117 0.29856 0.30209 0.12800
N 	N 	0.50720 0.38738 0.30577 -0.03600
O 	O 	0.57105 0.44438 0.29782 -0.07900
C 	C 	0.94419 0.87558 0.28773 -0.06400
C 	C 	0.87751 0.79830 0.29326 0.03500
C 	C 	0.81743 0.73696 0.28315 0.07100
C 	C 	0.95152 0.89275 0.27228 0.14400
N 	N 	0.75088 0.65587 0.28854 -0.01700
O 	O 	0.67037 0.63217 0.28597 -0.06100
O 	O 	0.77088 0.60355 0.29518 -0.06900
C 	C 	0.82748 0.31979 0.27728 0.03500
H 	H 	0.76634 0.14971 0.27911 0.08600
C 	C 	0.74167 0.30366 0.27755 0.06200
C 	C 	0.71457 0.33679 0.28932 0.00500
C 	C 	0.77258 0.38635 0.30071 -0.08500
C 	C 	0.86092 0.41291 0.29911 0.13600
C 	C 	0.88762 0.37791 0.28760 -0.07100
H 	H 	0.64731 0.31972 0.29007 0.07600
H 	H 	0.95453 0.39364 0.28699 0.10100
C 	C 	0.73882 0.39397 0.31541 0.32900
O 	O 	0.66892 0.40083 0.31591 -0.35700
C 	C 	0.47194 0.23932 0.31260 -0.08200
O 	O 	0.46341 0.41140 0.31421 -0.08100
C 	C 	0.87207 0.78086 0.30961 0.02600
H 	H 	0.76174 0.79777 0.31313 0.09600
N 	N 	0.92319 0.47368 0.30941 -0.02200
O 	O 	0.92234 0.54387 0.31267 -0.05800
C 	C 	0.52060 0.26942 0.32692 0.30800
C 	C 	0.78191 0.60886 0.34249 0.33000
Ni	Ni	0.68617 0.30732 0.34518 1.11900
Ni	Ni	0.63348 0.44754 0.33391 1.13400
O 	O 	0.75113 0.54862 0.33233 -0.36900
O 	O 	0.76704 0.37470 0.32755 -0.35400
O 	O 	0.58650 0.50384 0.34822 -0.34900
O 	O 	0.57672 0.24330 0.33068 -0.35000
O 	O 	0.52264 0.33557 0.33364 -0.35100
C 	C 	0.93103 0.76136 0.31667 0.08300
C 	C 	0.91187 0.72354 0.33097 0.00200
C 	C 	0.83082 0.69753 0.33736 -0.08000
C 	C 	0.78376 0.73626 0.33218 0.12700
C 	C 	0.80304 0.77577 0.31798 -0.06300
H 	H 	0.95298 0.70119 0.33579 0.08400
N 	N 	0.70957 0.72518 0.34032 -0.02500
O 	O 	0.63858 0.70611 0.33318 -0.07300
C 	C 	0.63773 0.29000 0.37793 0.30400
C 	C 	0.85148 0.42433 0.36160 0.33600
C 	C 	0.56260 0.47948 0.36242 0.30700
Ni	Ni	0.72318 0.47342 0.36568 1.12500
O 	O 	0.61994 0.24942 0.36476 -0.35200
O 	O 	0.70070 0.37158 0.37938 -0.35100
O 	O 	0.61385 0.46943 0.37204 -0.36600
O 	O 	0.79750 0.34366 0.35829 -0.33500
O 	O 	0.83173 0.48171 0.35743 -0.37600
O 	O 	0.76138 0.59081 0.35676 -0.35900
O 	O 	0.66123 0.39554 0.34986 -0.71400
H 	H 	0.60471 0.36210 0.35479 0.17300
O 	O 	0.71283 0.73365 0.35490 -0.06500
C 	C 	0.46165 0.58201 0.38340 0.06600
C 	C 	0.49617 0.56478 0.37053 -0.00200
C 	C 	0.48908 0.48402 0.36870 -0.07300
N 	N 	0.47330 0.66607 0.38579 -0.01700
H 	H 	0.53570 0.61622 0.36283 0.09100
O 	O 	0.54676 0.73354 0.38264 -0.06300
C 	C 	0.90978 0.44494 0.37469 -0.09400
C 	C 	0.95931 0.40438 0.37695 0.15300
N 	N 	0.96130 0.34787 0.36578 -0.02600
O 	O 	0.94549 0.27153 0.36956 -0.06100
H 	H 	0.47134 0.17818 0.38396 0.08000
H 	H 	0.56150 0.62307 0.41059 0.09400
C 	C 	0.96142 0.52016 0.39856 0.07300
C 	C 	0.91299 0.50409 0.38542 0.01500
H 	H 	0.87533 0.53572 0.38379 0.04000
N 	N 	0.56761 0.96435 0.40844 -0.01800
C 	C 	0.48319 0.11329 0.40341 0.06500
C 	C 	0.51490 0.17747 0.39239 -0.00100
C 	C 	0.60337 0.23717 0.39160 -0.07700
C 	C 	0.65973 0.23498 0.40253 0.13300
N 	N 	0.74983 0.29518 0.40206 -0.02400
O 	O 	0.63664 0.95742 0.40926 -0.05400
O 	O 	0.53316 0.96131 0.39537 -0.05400
O 	O 	0.80273 0.27261 0.39639 -0.06700
C 	C 	0.50310 0.59532 0.41730 -0.06900
N 	N 	0.96293 0.58014 0.40935 -0.01900
O 	O 	0.99553 0.66038 0.40572 -0.06400
O 	O 	0.88468 0.35862 0.43647 -0.04600
C 	C 	0.51018 0.03679 0.42451 0.01300
C 	C 	0.52573 0.96808 0.42195 0.09400
C 	C 	0.50066 0.90330 0.43277 0.00600
C 	C 	0.54067 0.10820 0.41369 0.03200
H 	H 	0.51201 0.85018 0.43075 0.08400
C 	C 	0.62808 0.17064 0.41347 -0.07100
H 	H 	0.67208 0.16795 0.42159 0.09900
O 	O 	0.77992 0.36767 0.40919 -0.06600
C 	C 	0.50864 0.61184 0.43279 0.13400
N 	N 	0.59114 0.66633 0.43952 -0.02500
O 	O 	0.64211 0.74153 0.43383 -0.05700
O 	O 	0.92608 0.55351 0.42239 -0.05500
O 	O 	0.47525 0.68862 0.45946 -0.35400
O 	O 	0.61723 0.63893 0.45082 -0.05200
Ni	Ni	0.47338 0.73966 0.47948 1.13800
O 	O 	0.48407 0.84230 0.46784 -0.33800
O 	O 	0.49700 0.65550 0.49125 -0.32900
C 	C 	0.44322 0.59057 0.50011 0.39100
O 	O 	0.47822 0.80761 0.49800 -0.32000
C 	C 	0.49221 0.42350 0.51571 0.28200
C 	C 	0.45172 0.46127 0.50780 0.28400
C 	C 	0.47996 0.54907 0.50958 -0.18100
F 	F 	0.46481 0.33887 0.51376 -0.36200
C 	C 	0.61688 0.06804 0.51446 0.25200
C 	C 	0.48600 0.93757 0.50732 -0.19200
C 	C 	0.57642 0.98887 0.50703 0.32100
F 	F 	0.62492 0.96317 0.49919 -0.36500
F 	F 	0.70416 0.11699 0.51405 -0.35700
F 	F 	0.86390 0.40261 0.50539 -0.36100
C 	C 	0.61008 0.17395 0.53182 0.38100
C 	C 	0.59840 0.43146 0.53488 0.38900
O 	O 	0.57339 0.22242 0.53320 -0.31700
C 	C 	0.58946 0.56086 0.52727 0.28300
C 	C 	0.56136 0.47304 0.52547 -0.17900
C 	C 	0.54915 0.59865 0.51932 0.28400
F 	F 	0.57679 0.68338 0.52120 -0.36200
C 	C 	0.56744 0.09700 0.52217 -0.15800
C 	C 	0.47686 0.04689 0.52202 0.25300
C 	C 	0.43656 0.96724 0.51480 0.32100
F 	F 	0.42796 0.07363 0.52945 -0.36500
C 	C 	0.94537 0.49069 0.52619 -0.18200
C 	C 	0.94092 0.46151 0.51134 0.28300
C 	C 	0.87010 0.44535 0.53623 0.38500
O 	O 	0.67515 0.18379 0.54073 -0.32100
O 	O 	0.54431 0.36363 0.54313 -0.33200
O 	O 	0.68324 0.47257 0.53718 -0.33600
O 	O 	0.83385 0.36073 0.53707 -0.32600
H 	H 	0.69549 0.34719 0.54016 0.17800
F 	F 	0.65408 0.60902 0.53707 -0.37300
C 	C 	0.97837 0.05047 0.96695 -0.08600
Ni	Ni	0.75605 0.28879 0.55472 1.12500
Ni	Ni	0.73639 0.45820 0.55612 1.13400
Ni	Ni	0.56758 0.27424 0.55305 1.13700
O 	O 	0.55509 0.16414 0.56227 -0.33600
O 	O 	0.85340 0.49069 0.54631 -0.32900
O 	O 	0.68979 0.34119 0.55119 -0.72700
C 	C 	0.60717 0.16065 0.57241 0.32100
C 	C 	0.59565 0.39215 0.57793 0.31800
O 	O 	0.63701 0.45239 0.56784 -0.35500
O 	O 	0.85287 0.37881 0.56893 -0.33300
O 	O 	0.68712 0.22273 0.57354 -0.35800
O 	O 	0.55735 0.31102 0.57397 -0.34800
C 	C 	0.84099 0.42842 0.57844 0.33100
O 	O 	0.77769 0.44412 0.57642 -0.37600
C 	C 	0.57661 0.48225 0.59724 0.00200
C 	C 	0.59348 0.41575 0.59382 -0.07900
H 	H 	0.56338 0.51494 0.58826 0.08700
N 	N 	0.00557 0.43104 0.58306 -0.01900
O 	O 	0.00801 0.36021 0.58439 -0.05900
C 	C 	0.57783 0.08236 0.58162 -0.07000
C 	C 	0.52102 0.00029 0.57566 0.09700
C 	C 	0.57196 0.50355 0.61228 0.06800
C 	C 	0.61090 0.37388 0.60562 0.12700
N 	N 	0.54499 0.56456 0.61561 -0.01600
N 	N 	0.62021 0.30095 0.60265 -0.02400
O 	O 	0.69603 0.30780 0.60360 -0.09000
O 	O 	0.55189 0.22541 0.60214 -0.07200
O 	O 	0.59258 0.64400 0.61151 -0.06700
O 	O 	0.46895 0.53900 0.62131 -0.07000
C 	C 	0.86081 0.49017 0.60425 -0.00400
C 	C 	0.89133 0.45828 0.59269 -0.06700
C 	C 	0.96949 0.45753 0.59486 0.11000
H 	H 	0.80173 0.49235 0.60273 0.07800
C 	C 	0.51117 0.93698 0.60028 0.05200
C 	C 	0.57059 0.01839 0.60608 0.04300
C 	C 	0.60632 0.08968 0.59656 0.00500
H 	H 	0.65459 0.15114 0.60093 0.09000
H 	H 	0.59509 0.86419 0.61361 0.10100
C 	C 	0.57092 0.47214 0.63985 0.03100
C 	C 	0.58958 0.46150 0.62402 0.03100
C 	C 	0.61337 0.40018 0.62052 -0.06700
H 	H 	0.62739 0.36806 0.62950 0.09600
C 	C 	0.01395 0.48605 0.60859 -0.03000
C 	C 	0.98208 0.51642 0.62010 -0.00300
C 	C 	0.90493 0.51799 0.61791 0.07600
O 	O 	0.85542 0.60999 0.62694 -0.08100
N 	N 	0.59323 0.02918 0.62173 -0.01500
O 	O 	0.67362 0.06257 0.62574 -0.07700
O 	O 	0.53434 0.01155 0.63190 -0.08000
O 	O 	0.63695 0.82676 0.64058 -0.05400
C 	C 	0.62216 0.55012 0.64734 -0.06300
C 	C 	0.51181 0.50748 0.66659 -0.07600
C 	C 	0.59358 0.56730 0.66096 0.12900
H 	H 	0.68208 0.59825 0.64232 0.10100
O 	O 	0.69343 0.71657 0.66124 -0.05100
C 	C 	0.02997 0.54702 0.63444 0.04800
N 	N 	0.87082 0.54766 0.62960 -0.02000
C 	C 	0.02585 0.48826 0.64533 0.06900
N 	N 	0.97676 0.39797 0.64255 -0.02900
O 	O 	0.84726 0.50697 0.64236 -0.07800
O 	O 	0.01428 0.35174 0.64293 -0.07100
O 	O 	0.89370 0.36113 0.64064 -0.07100
O 	O 	0.73627 0.88865 0.68495 -0.05400
N 	N 	0.64589 0.64656 0.66876 -0.02500
O 	O 	0.64952 0.64778 0.68340 -0.06400
C 	C 	0.55606 0.80469 0.69738 0.31800
O 	O 	0.50207 0.83146 0.69269 -0.34500
O 	O 	0.54085 0.72628 0.69450 -0.35400
C 	C 	0.61638 0.85185 0.70971 -0.08200
C 	C 	0.69666 0.85454 0.71059 0.13100
N 	N 	0.73915 0.85017 0.69717 -0.02300
O 	O 	0.78530 0.81243 0.69742 -0.05700
C 	C 	0.73521 0.86193 0.72475 -0.06800
C 	C 	0.69296 0.86403 0.73795 0.03000
C 	C 	0.61633 0.86844 0.73683 0.06200
C 	C 	0.58339 0.87018 0.72263 0.00300
H 	H 	0.52537 0.87487 0.72185 0.07000
H 	H 	0.79734 0.86511 0.72548 0.09700
O 	O 	0.78511 0.71030 0.74535 -0.07200
O 	O 	0.64690 0.68041 0.74480 -0.07100
C 	C 	0.73294 0.86957 0.75287 0.03700
N 	N 	0.56878 0.86521 0.75005 -0.01900
C 	C 	0.74889 0.80423 0.75797 0.06700
C 	C 	0.78541 0.81072 0.77228 0.00700
C 	C 	0.77963 0.94137 0.77704 0.16000
C 	C 	0.75177 0.93914 0.76228 -0.07100
N 	N 	0.72668 0.73058 0.74879 -0.01700
H 	H 	0.79944 0.76146 0.77598 0.08100
H 	H 	0.74031 0.98977 0.75837 0.10300
O 	O 	0.54563 0.92262 0.75214 -0.07400
O 	O 	0.54115 0.80021 0.75915 -0.06300
O 	O 	0.94326 0.98901 0.75611 -0.08800
C 	C 	0.84277 0.88708 0.79687 0.30300
O 	O 	0.98196 0.10027 0.79677 -0.36000
O 	O 	0.88794 0.84756 0.79951 -0.35200
C 	C 	0.80097 0.87890 0.78197 -0.07300
N 	N 	0.78107 0.00398 0.78719 -0.06200
O 	O 	0.71904 0.98117 0.79692 -0.00500
O 	O 	0.83130 0.08493 0.78435 -0.08500
Ni	Ni	0.96099 0.87209 0.81863 1.12500
O 	O 	0.83198 0.93142 0.80763 -0.30300
O 	O 	0.00649 0.99074 0.81482 -0.68900
H 	H 	0.00566 0.98622 0.80380 0.16500
F 	F 	0.69793 0.90251 0.82897 -0.37600
Ni	Ni	0.93492 0.03928 0.81734 1.10800
O 	O 	0.85235 0.84776 0.83029 -0.34700
C 	C 	0.69315 0.86572 0.84254 0.28600
F 	F 	0.54249 0.81719 0.84347 -0.35800
O 	O 	0.01782 0.15833 0.82685 -0.31200
O 	O 	0.02355 0.89145 0.83828 -0.33300
C 	C 	0.84589 0.90087 0.83980 0.41400
O 	O 	0.89592 0.98403 0.83841 -0.33100
C 	C 	0.52336 0.73411 0.87156 0.39800
O 	O 	0.50544 0.76262 0.90334 -0.34200
O 	O 	0.50745 0.66620 0.87955 -0.32000
C 	C 	0.76681 0.86851 0.84881 -0.19300
C 	C 	0.76156 0.83165 0.86295 0.28700
C 	C 	0.68271 0.79015 0.87061 0.28000
C 	C 	0.60778 0.78339 0.86398 -0.18600
C 	C 	0.61387 0.82281 0.85002 0.28200
F 	F 	0.67921 0.75707 0.88451 -0.37300
F 	F 	0.83264 0.83507 0.86920 -0.36800
H 	H 	0.65161 0.81429 0.92132 0.10300
C 	C 	0.60810 0.79082 0.93086 -0.00100
C 	C 	0.52237 0.72605 0.92879 -0.06800
O 	O 	0.77001 0.94672 0.93844 -0.05200
O 	O 	0.88146 0.15451 0.92784 -0.07400
C 	C 	0.58014 0.79829 0.95749 0.02500
H 	H 	0.56019 0.71961 0.98443 0.09000
C 	C 	0.63843 0.82427 0.94526 0.07600
C 	C 	0.49561 0.73039 0.95552 -0.06600
N 	N 	0.72865 0.88216 0.94751 -0.01600
O 	O 	0.77117 0.86497 0.95751 -0.08000
C 	C 	0.95679 0.13617 0.94814 0.05300
C 	C 	0.92555 0.07804 0.96013 0.00900
N 	N 	0.90450 0.16838 0.94192 -0.01400
H 	H 	0.86314 0.06008 0.96496 0.07300
O 	O 	0.87883 0.21047 0.95040 -0.06500
C 	C 	0.96425 0.02624 0.98286 0.26300
O 	O 	0.89750 0.95009 0.98658 -0.32600
C 	C 	0.59898 0.78877 0.98513 -0.08100
C 	C 	0.60811 0.83943 0.97251 0.04200
C 	C 	0.65074 0.92956 0.97412 0.05400
C 	C 	0.64195 0.82720 0.99855 0.13500
N 	N 	0.64492 0.98236 0.96256 0.00400
N 	N 	0.62382 0.77676 0.01193 -0.02500
O 	O 	0.62404 0.70450 0.01158 -0.07400
O 	O 	0.71124 0.05658 0.95947 -0.09100
C 	C 	0.69990 0.96744 0.98715 0.05800
C 	C 	0.70235 0.91566 0.99879 -0.11100
O 	O 	0.60206 0.80063 0.02423 -0.04600
O 	O 	0.57181 0.95873 0.95581 -0.05600
