data_crystal

_cell_length_a 37.47917
_cell_length_b 38.04113
_cell_length_c 21.13845
_cell_angle_alpha 90.34554
_cell_angle_beta  90.34565
_cell_angle_gamma 120.00214

_symmetry_space_group_name_	'P 1'
_symmetry_space_group_name_H-M	'P 1'

loop_
_symmetry_equiv_pos_as_xyz
  x,y,z

loop_
_atom_site_label
_atom_site_type_symbol
_atom_site_fract_x
_atom_site_fract_y
_atom_site_fract_z
_atom_site_charge
C 	C 	0.52519 0.81579 0.26150 0.27700
C 	C 	0.64165 0.77335 0.14012 0.29600
C 	C 	0.52712 0.71606 0.24912 0.29700
C 	C 	0.64401 0.87402 0.14000 0.27700
C 	C 	0.64446 0.77017 0.34552 0.29800
C 	C 	0.65069 0.87430 0.35417 0.27700
Ni	Ni	0.57429 0.79118 0.17298 1.11200
Ni	Ni	0.66226 0.83142 0.24648 1.12000
Ni	Ni	0.57946 0.79047 0.32595 1.12000
O 	O 	0.52380 0.79281 0.21255 -0.36800
O 	O 	0.54749 0.81995 0.31328 -0.37800
O 	O 	0.67045 0.80709 0.32602 -0.38500
O 	O 	0.61707 0.78573 0.11772 -0.37500
O 	O 	0.65551 0.78192 0.19876 -0.38400
O 	O 	0.62477 0.83755 0.37673 -0.37900
O 	O 	0.55048 0.73111 0.19928 -0.37700
O 	O 	0.52741 0.74035 0.29392 -0.37800
O 	O 	0.67084 0.87897 0.30032 -0.38000
O 	O 	0.60322 0.85063 0.14096 -0.37300
O 	O 	0.66877 0.86126 0.16305 -0.37500
O 	O 	0.60450 0.75504 0.33864 -0.39000
O 	O 	0.60491 0.81236 0.24756 -0.72100
H 	H 	0.60563 0.83857 0.24950 0.15600
C 	C 	0.19762 0.86509 0.14119 0.27900
C 	C 	0.15985 0.71114 0.25787 0.29900
C 	C 	0.09911 0.76332 0.14512 0.29700
C 	C 	0.26150 0.81190 0.26467 0.27900
C 	C 	0.09753 0.76621 0.35376 0.30000
C 	C 	0.19422 0.87081 0.35307 0.27700
Ni	Ni	0.18559 0.78376 0.17760 1.11300
Ni	Ni	0.18259 0.78699 0.33066 1.12000
Ni	Ni	0.13769 0.82350 0.24827 1.12100
O 	O 	0.21531 0.84229 0.14201 -0.37300
O 	O 	0.15967 0.85127 0.16317 -0.37600
O 	O 	0.12201 0.75120 0.34550 -0.39000
O 	O 	0.14926 0.72488 0.20883 -0.37900
O 	O 	0.18402 0.73634 0.30234 -0.37600
O 	O 	0.17739 0.87294 0.29853 -0.38200
O 	O 	0.13596 0.77579 0.12215 -0.37300
O 	O 	0.09467 0.77206 0.20373 -0.38300
O 	O 	0.18528 0.83519 0.37823 -0.37900
O 	O 	0.23884 0.78730 0.21740 -0.36900
O 	O 	0.24421 0.81694 0.31623 -0.38000
O 	O 	0.10650 0.80142 0.32940 -0.38500
O 	O 	0.17728 0.80641 0.25086 -0.72000
H 	H 	0.20279 0.83300 0.25131 0.15800
C 	C 	0.16941 0.45658 0.24694 0.27800
C 	C 	0.20960 0.33978 0.36694 0.29800
C 	C 	0.26858 0.45107 0.24948 0.29700
C 	C 	0.11056 0.34469 0.37079 0.27700
C 	C 	0.20467 0.33221 0.15857 0.29800
C 	C 	0.10199 0.33023 0.15949 0.27900
Ni	Ni	0.19569 0.40870 0.33293 1.11200
Ni	Ni	0.14819 0.32021 0.26485 1.12000
Ni	Ni	0.18930 0.39956 0.18007 1.12000
O 	O 	0.19530 0.45865 0.29217 -0.36900
O 	O 	0.16270 0.43407 0.19487 -0.37800
O 	O 	0.16847 0.30802 0.18379 -0.38500
O 	O 	0.20060 0.36667 0.38927 -0.37500
O 	O 	0.19899 0.32561 0.30887 -0.38400
O 	O 	0.13853 0.35520 0.13386 -0.38000
O 	O 	0.25446 0.42796 0.29942 -0.37700
O 	O 	0.24291 0.45031 0.20598 -0.37600
O 	O 	0.09891 0.31268 0.21512 -0.38500
O 	O 	0.13726 0.38437 0.37140 -0.37200
O 	O 	0.12128 0.31810 0.35013 -0.37300
O 	O 	0.22220 0.37183 0.16508 -0.38900
O 	O 	0.16978 0.37703 0.26087 -0.72000
H 	H 	0.14385 0.37769 0.26118 0.15600
C 	C 	0.86220 0.65316 0.65129 0.27800
C 	C 	0.69579 0.52973 0.73956 0.29900
C 	C 	0.75891 0.65108 0.64858 0.29700
C 	C 	0.79501 0.52650 0.73919 0.27800
C 	C 	0.75194 0.64193 0.85244 0.29900
C 	C 	0.85247 0.63796 0.86178 0.27900
Ni	Ni	0.77387 0.58198 0.66777 1.11200
Ni	Ni	0.76904 0.57575 0.82071 1.12000
Ni	Ni	0.81530 0.66273 0.75654 1.12000
O 	O 	0.82586 0.62890 0.62348 -0.36900
O 	O 	0.86495 0.67055 0.70741 -0.38000
O 	O 	0.76211 0.61583 0.87479 -0.38600
O 	O 	0.71930 0.53030 0.69322 -0.37100
O 	O 	0.71146 0.55603 0.78644 -0.38500
O 	O 	0.84260 0.66516 0.84139 -0.37900
O 	O 	0.74065 0.61151 0.65341 -0.37700
O 	O 	0.79595 0.67420 0.67290 -0.37800
O 	O 	0.82534 0.59834 0.86021 -0.38400
O 	O 	0.80119 0.54709 0.68585 -0.37300
O 	O 	0.76938 0.52602 0.78320 -0.37500
O 	O 	0.76485 0.65838 0.79664 -0.38900
O 	O 	0.79421 0.60613 0.74713 -0.71900
H 	H 	0.82017 0.60555 0.74844 0.15600
C 	C 	0.70300 0.17126 0.76064 0.27800
C 	C 	0.86869 0.21337 0.84909 0.29700
C 	C 	0.80379 0.27133 0.75702 0.29800
C 	C 	0.76967 0.11003 0.84879 0.27700
C 	C 	0.86312 0.21865 0.64521 0.29900
C 	C 	0.76071 0.11691 0.63762 0.27800
Ni	Ni	0.78246 0.19569 0.83036 1.11200
Ni	Ni	0.82408 0.15633 0.74212 1.12000
Ni	Ni	0.77816 0.19847 0.67743 1.11900
O 	O 	0.71936 0.16641 0.81360 -0.37400
O 	O 	0.72670 0.19623 0.71535 -0.37400
O 	O 	0.86847 0.20648 0.70074 -0.38700
O 	O 	0.84578 0.23028 0.84330 -0.37800
O 	O 	0.85614 0.17700 0.82511 -0.37800
O 	O 	0.74606 0.14239 0.63926 -0.38300
O 	O 	0.78177 0.24799 0.80363 -0.37200
O 	O 	0.81439 0.25618 0.70951 -0.38500
O 	O 	0.79874 0.12810 0.65793 -0.37800
O 	O 	0.78080 0.14588 0.87578 -0.36900
O 	O 	0.78434 0.10728 0.79281 -0.37900
O 	O 	0.82581 0.20663 0.62304 -0.38500
O 	O 	0.78629 0.17535 0.75143 -0.72000
H 	H 	0.76028 0.14921 0.75089 0.15600
C 	C 	0.30986 0.10536 0.85923 0.27800
C 	C 	0.43843 0.26445 0.76149 0.29900
C 	C 	0.31891 0.21083 0.85799 0.29700
C 	C 	0.43705 0.16391 0.76529 0.27800
C 	C 	0.32418 0.21256 0.65424 0.30000
C 	C 	0.31988 0.11017 0.64584 0.27900
Ni	Ni	0.38500 0.18993 0.83764 1.11200
Ni	Ni	0.38786 0.19081 0.68439 1.12000
Ni	Ni	0.30129 0.15166 0.75305 1.12100
O 	O 	0.33665 0.14112 0.88522 -0.36700
O 	O 	0.29117 0.10272 0.80412 -0.37700
O 	O 	0.34775 0.19904 0.63146 -0.38800
O 	O 	0.43826 0.24139 0.80769 -0.37200
O 	O 	0.41146 0.24892 0.71492 -0.38400
O 	O 	0.29455 0.12214 0.66908 -0.37900
O 	O 	0.35886 0.22616 0.85320 -0.37700
O 	O 	0.29350 0.17400 0.83643 -0.37900
O 	O 	0.36068 0.13387 0.64907 -0.38300
O 	O 	0.41701 0.15949 0.81909 -0.37400
O 	O 	0.43768 0.18856 0.72013 -0.37500
O 	O 	0.30798 0.20169 0.71074 -0.39000
O 	O 	0.35819 0.16925 0.75993 -0.72000
H 	H 	0.35691 0.14275 0.75964 0.15700
C 	C 	0.57956 0.15148 0.64505 -0.04200
C 	C 	0.54137 0.14978 0.64571 -0.04200
C 	C 	0.52181 0.14733 0.70335 0.01800
C 	C 	0.53979 0.14450 0.76049 -0.00800
C 	C 	0.57819 0.14612 0.75982 -0.00800
C 	C 	0.59862 0.15066 0.70202 0.01800
C 	C 	0.59702 0.14511 0.81721 0.01700
C 	C 	0.57647 0.14058 0.87457 -0.04200
C 	C 	0.53841 0.13910 0.87525 -0.04200
C 	C 	0.52039 0.14208 0.81857 0.01700
C 	C 	0.48445 0.14488 0.81957 -0.02700
C 	C 	0.46828 0.15096 0.76306 -0.05200
C 	C 	0.48570 0.14983 0.70483 -0.02700
C 	C 	0.63857 0.15615 0.70216 -0.02700
C 	C 	0.65851 0.15792 0.75969 -0.05100
C 	C 	0.63691 0.15057 0.81686 -0.02700
H 	H 	0.59470 0.15432 0.60030 0.03900
H 	H 	0.52750 0.15135 0.60145 0.03900
H 	H 	0.59040 0.13914 0.91885 0.03900
H 	H 	0.52343 0.13658 0.92004 0.03900
H 	H 	0.47041 0.14451 0.86446 0.04700
H 	H 	0.47226 0.15280 0.66101 0.04400
H 	H 	0.65463 0.16036 0.65786 0.04400
H 	H 	0.65179 0.15095 0.86122 0.04700
C 	C 	0.53573 0.38292 0.63784 -0.04100
C 	C 	0.57188 0.42066 0.63476 -0.04100
C 	C 	0.59306 0.44080 0.69045 0.01600
C 	C 	0.57694 0.42358 0.74978 -0.00700
C 	C 	0.54060 0.38557 0.75288 -0.00700
C 	C 	0.52032 0.36487 0.69666 0.01600
C 	C 	0.52536 0.36760 0.81213 0.01600
C 	C 	0.54571 0.38844 0.86789 -0.04100
C 	C 	0.58181 0.42623 0.86482 -0.04100
C 	C 	0.59801 0.44363 0.80593 0.01600
C 	C 	0.63584 0.47993 0.80243 -0.02200
C 	C 	0.65306 0.49592 0.74326 -0.06100
C 	C 	0.63093 0.47709 0.68750 -0.02100
C 	C 	0.48577 0.32583 0.69984 -0.02200
C 	C 	0.47163 0.30715 0.75873 -0.06100
C 	C 	0.49077 0.32853 0.81479 -0.02100
H 	H 	0.52011 0.36745 0.59440 0.03900
H 	H 	0.58377 0.43387 0.58898 0.04000
H 	H 	0.53398 0.37511 0.91366 0.03900
H 	H 	0.59754 0.44161 0.90824 0.03900
H 	H 	0.65274 0.49470 0.84550 0.04000
H 	H 	0.64378 0.49005 0.64191 0.04400
H 	H 	0.47079 0.30945 0.65658 0.04200
H 	H 	0.47921 0.31448 0.86026 0.04300
C 	C 	0.81623 0.42890 0.86228 -0.04200
C 	C 	0.81712 0.39259 0.86482 -0.04100
C 	C 	0.81705 0.37253 0.80875 0.01500
C 	C 	0.81772 0.38994 0.74974 -0.00600
C 	C 	0.81681 0.42650 0.74718 -0.00900
C 	C 	0.81523 0.44560 0.80365 0.01900
C 	C 	0.81580 0.44304 0.68812 0.01800
C 	C 	0.81738 0.42383 0.63211 -0.04200
C 	C 	0.81831 0.38754 0.63464 -0.04100
C 	C 	0.81769 0.37002 0.69322 0.01500
C 	C 	0.81540 0.33209 0.69590 -0.02300
C 	C 	0.81257 0.31369 0.75461 -0.06100
C 	C 	0.81479 0.33460 0.81093 -0.02200
C 	C 	0.81095 0.48018 0.80075 -0.02800
C 	C 	0.80735 0.49524 0.74191 -0.05200
C 	C 	0.81141 0.47755 0.68573 -0.02700
H 	H 	0.81553 0.44362 0.90595 0.04000
H 	H 	0.81712 0.37971 0.91041 0.03900
H 	H 	0.81712 0.43657 0.58650 0.03900
H 	H 	0.81879 0.37272 0.59096 0.03900
H 	H 	0.81411 0.31618 0.65243 0.04200
H 	H 	0.81370 0.32088 0.85625 0.04400
H 	H 	0.80905 0.49454 0.84410 0.04400
H 	H 	0.80928 0.48947 0.64027 0.04700
C 	C 	0.94410 0.19684 0.02736 -0.04200
C 	C 	0.00373 0.25542 0.07435 0.01500
C 	C 	0.93972 0.22201 0.98340 0.01700
C 	C 	0.96291 0.28975 0.94154 0.01600
C 	C 	0.02282 0.34832 0.98824 -0.04300
C 	C 	0.02748 0.32309 0.03178 0.01700
C 	C 	0.06024 0.33937 0.07575 -0.02800
C 	C 	0.06506 0.31384 0.11848 -0.05300
C 	C 	0.03634 0.27202 0.11840 -0.02600
C 	C 	0.90802 0.20546 0.93784 -0.02500
C 	C 	0.90338 0.23081 0.89452 -0.06000
C 	C 	0.93078 0.27291 0.89648 -0.02500
H 	H 	0.92296 0.16437 0.02647 0.04100
H 	H 	0.04414 0.38075 0.98885 0.03900
H 	H 	0.08224 0.37169 0.07626 0.04300
H 	H 	0.04019 0.25230 0.15117 0.04500
H 	H 	0.88650 0.17303 0.93678 0.05000
H 	H 	0.92715 0.29240 0.86294 0.04600
C 	C 	0.00818 0.32275 0.61062 -0.04200
C 	C 	0.04278 0.34091 0.57167 -0.04200
C 	C 	0.04032 0.32724 0.50902 0.01700
C 	C 	0.00261 0.29549 0.48506 -0.00900
C 	C 	0.93001 0.24563 0.50018 0.01600
C 	C 	0.92747 0.23217 0.43739 -0.04100
C 	C 	0.96227 0.24980 0.39883 -0.04200
C 	C 	0.03532 0.29821 0.38461 -0.02900
C 	C 	0.07299 0.32947 0.40869 -0.05200
C 	C 	0.07529 0.34436 0.47049 -0.02500
C 	C 	0.93608 0.27181 0.62665 -0.02400
C 	C 	0.89864 0.23988 0.60303 -0.06000
C 	C 	0.89554 0.22719 0.53964 -0.02400
H 	H 	0.01069 0.33340 0.65900 0.04000
H 	H 	0.07158 0.36537 0.59046 0.03900
H 	H 	0.89863 0.20781 0.41852 0.04000
H 	H 	0.95989 0.23880 0.35069 0.04100
H 	H 	0.03364 0.28693 0.33677 0.04300
H 	H 	0.10450 0.36835 0.48908 0.04500
H 	H 	0.93829 0.28170 0.67549 0.04700
H 	H 	0.86665 0.20237 0.52161 0.04800
C 	C 	0.28526 0.26588 0.39916 -0.04200
C 	C 	0.30152 0.24826 0.43951 -0.04200
C 	C 	0.29858 0.25076 0.50544 0.01600
C 	C 	0.27956 0.27153 0.53100 -0.00800
C 	C 	0.26307 0.28916 0.49038 -0.00800
C 	C 	0.26578 0.28617 0.42421 0.01700
C 	C 	0.24351 0.30941 0.51593 0.01600
C 	C 	0.24102 0.31235 0.58187 -0.04200
C 	C 	0.25749 0.29492 0.62222 -0.04200
C 	C 	0.27657 0.27425 0.59716 0.01700
C 	C 	0.29219 0.25582 0.63740 -0.02500
C 	C 	0.31029 0.23426 0.61200 -0.06000
C 	C 	0.31389 0.23225 0.54599 -0.02500
C 	C 	0.24869 0.30320 0.38393 -0.02600
C 	C 	0.22863 0.32290 0.40930 -0.06000
C 	C 	0.22632 0.32611 0.47533 -0.02500
H 	H 	0.28763 0.26354 0.34841 0.04100
H 	H 	0.31623 0.23249 0.41943 0.04000
H 	H 	0.22617 0.32799 0.60195 0.04000
H 	H 	0.25515 0.29730 0.67297 0.04100
H 	H 	0.29001 0.25799 0.68828 0.05000
H 	H 	0.32784 0.21565 0.52623 0.04800
H 	H 	0.25098 0.30115 0.33305 0.04900
H 	H 	0.21069 0.34111 0.49502 0.04900
C 	C 	0.32374 0.32987 0.06428 -0.04200
C 	C 	0.33984 0.31336 0.02129 -0.04200
C 	C 	0.31347 0.28158 0.98017 0.01600
C 	C 	0.27064 0.26660 0.98186 -0.00700
C 	C 	0.25441 0.28304 0.02540 -0.00800
C 	C 	0.28106 0.31476 0.06682 0.01700
C 	C 	0.21151 0.26758 0.02776 0.01700
C 	C 	0.18520 0.23623 0.98603 -0.04200
C 	C 	0.20133 0.22005 0.94261 -0.04100
C 	C 	0.24397 0.23488 0.94051 0.01600
C 	C 	0.26013 0.21792 0.89829 -0.02400
C 	C 	0.30269 0.23177 0.89795 -0.05900
C 	C 	0.32936 0.26419 0.93814 -0.02500
C 	C 	0.26467 0.33084 0.11042 -0.02600
C 	C 	0.22188 0.31515 0.11323 -0.06000
C 	C 	0.19543 0.28360 0.07180 -0.02500
H 	H 	0.34450 0.35429 0.09576 0.04000
H 	H 	0.37281 0.32519 0.02023 0.03900
H 	H 	0.15221 0.22427 0.98728 0.04000
H 	H 	0.18058 0.19577 0.91091 0.03900
H 	H 	0.23960 0.19361 0.86640 0.04500
H 	H 	0.36222 0.27528 0.93764 0.04600
H 	H 	0.28503 0.35518 0.14242 0.04700
H 	H 	0.16246 0.27192 0.07340 0.04900
C 	C 	0.19394 0.97627 0.93277 -0.04200
C 	C 	0.17813 0.94284 0.97293 -0.04200
C 	C 	0.20423 0.93814 0.01567 0.01700
C 	C 	0.24663 0.96710 0.01775 -0.00800
C 	C 	0.26255 0.00081 0.97738 -0.00800
C 	C 	0.23606 0.00543 0.93487 0.01700
C 	C 	0.30487 0.03005 0.97986 0.01700
C 	C 	0.33105 0.02512 0.02221 -0.04200
C 	C 	0.31525 0.99151 0.06218 -0.04200
C 	C 	0.27307 0.96244 0.06037 0.01800
C 	C 	0.25693 0.92887 0.10077 -0.02800
C 	C 	0.21462 0.90028 0.09911 -0.05300
C 	C 	0.18844 0.90489 0.05634 -0.02700
C 	C 	0.25188 0.03934 0.89550 -0.02500
C 	C 	0.29392 0.06881 0.89844 -0.05300
C 	C 	0.32040 0.06398 0.94030 -0.02800
H 	H 	0.17338 0.97953 0.90018 0.04000
H 	H 	0.14553 0.92066 0.97088 0.03900
H 	H 	0.36363 0.04736 0.02437 0.03900
H 	H 	0.33583 0.98818 0.09466 0.04000
H 	H 	0.27706 0.92513 0.13374 0.04300
H 	H 	0.15590 0.88235 0.05436 0.04800
H 	H 	0.23141 0.04326 0.86353 0.04700
H 	H 	0.35292 0.08658 0.94205 0.04200
C 	C 	0.22373 0.03203 0.47264 -0.04200
C 	C 	0.20645 0.99875 0.43104 -0.04200
C 	C 	0.21987 0.97028 0.43211 0.01700
C 	C 	0.25118 0.97549 0.47499 -0.00800
C 	C 	0.26867 0.00910 0.51679 -0.00900
C 	C 	0.25470 0.03731 0.51580 0.01700
C 	C 	0.29993 0.01434 0.55984 0.01800
C 	C 	0.31354 0.98598 0.56060 -0.04200
C 	C 	0.29601 0.95246 0.51924 -0.04200
C 	C 	0.26470 0.94693 0.47648 0.01700
C 	C 	0.24649 0.91301 0.43562 -0.02800
C 	C 	0.21493 0.90755 0.39340 -0.05200
C 	C 	0.20199 0.93642 0.39141 -0.02600
C 	C 	0.27170 0.07034 0.55810 -0.02700
C 	C 	0.30258 0.07548 0.60140 -0.05200
C 	C 	0.31695 0.04772 0.60185 -0.02900
H 	H 	0.21290 0.05364 0.47140 0.04000
H 	H 	0.18247 0.99504 0.39817 0.04000
H 	H 	0.33759 0.98974 0.59338 0.04000
H 	H 	0.30672 0.93076 0.52064 0.04000
H 	H 	0.25670 0.89090 0.43671 0.04400
H 	H 	0.17742 0.93204 0.35922 0.04700
H 	H 	0.26119 0.09223 0.55709 0.04900
H 	H 	0.34088 0.05184 0.63522 0.04400
C 	C 	0.93939 0.63316 0.48017 -0.04200
C 	C 	0.00305 0.69022 0.44196 0.01500
C 	C 	0.00084 0.71533 0.48939 -0.00800
C 	C 	0.93665 0.65814 0.52687 0.01700
C 	C 	0.96534 0.72451 0.57886 0.01600
C 	C 	0.02907 0.78147 0.54101 -0.04300
C 	C 	0.03131 0.75671 0.49348 0.01600
C 	C 	0.06326 0.77297 0.44944 -0.02400
C 	C 	0.06508 0.74825 0.40146 -0.06200
C 	C 	0.03545 0.70678 0.39839 -0.02400
C 	C 	0.90278 0.64276 0.56760 -0.02800
C 	C 	0.89974 0.66823 0.61312 -0.05400
C 	C 	0.93149 0.70882 0.61948 -0.02600
H 	H 	0.91579 0.60147 0.47610 0.03900
H 	H 	0.05251 0.81324 0.54479 0.04100
H 	H 	0.08663 0.80485 0.45222 0.04800
H 	H 	0.03712 0.68776 0.36143 0.04500
H 	H 	0.87858 0.61126 0.56344 0.04200
H 	H 	0.92917 0.72847 0.65462 0.04600
C 	C 	0.03405 0.75328 0.93766 -0.04200
C 	C 	0.03162 0.73900 0.99951 0.01600
C 	C 	0.95993 0.68725 0.97986 -0.00800
C 	C 	0.96242 0.70222 0.91816 0.01800
C 	C 	0.92269 0.65421 0.00111 0.01700
C 	C 	0.92036 0.63974 0.06282 -0.04200
C 	C 	0.95463 0.65832 0.10352 -0.04200
C 	C 	0.02599 0.71066 0.12381 -0.02500
C 	C 	0.06302 0.74364 0.10265 -0.06200
C 	C 	0.06577 0.75768 0.04055 -0.02500
C 	C 	0.92743 0.68476 0.87865 -0.02800
C 	C 	0.89009 0.65251 0.90028 -0.05300
C 	C 	0.88798 0.63673 0.96096 -0.02500
H 	H 	0.00192 0.74663 0.84986 0.03900
H 	H 	0.06251 0.77869 0.92092 0.03900
H 	H 	0.89192 0.61430 0.07954 0.03900
H 	H 	0.95224 0.64698 0.15112 0.04000
H 	H 	0.02405 0.69976 0.17169 0.04700
H 	H 	0.09432 0.78339 0.02455 0.04700
H 	H 	0.92898 0.69665 0.83157 0.04300
H 	H 	0.85903 0.61190 0.97760 0.04500
C 	C 	0.14695 0.55479 0.36654 -0.04200
C 	C 	0.14674 0.59147 0.36826 -0.04100
C 	C 	0.14705 0.61088 0.31177 0.01500
C 	C 	0.14592 0.59242 0.25310 -0.00600
C 	C 	0.14633 0.55560 0.25138 -0.00900
C 	C 	0.14766 0.53715 0.30830 0.01800
C 	C 	0.14726 0.53819 0.19271 0.01800
C 	C 	0.14577 0.55668 0.13622 -0.04200
C 	C 	0.14511 0.59312 0.13793 -0.04100
C 	C 	0.14603 0.61158 0.19616 0.01500
C 	C 	0.14864 0.64964 0.19808 -0.02300
C 	C 	0.15184 0.66904 0.25644 -0.06000
C 	C 	0.14990 0.64911 0.31318 -0.02200
C 	C 	0.15168 0.50243 0.30633 -0.02700
C 	C 	0.15576 0.48684 0.24804 -0.05300
C 	C 	0.15170 0.50369 0.19128 -0.02600
H 	H 	0.14745 0.54056 0.41055 0.04000
H 	H 	0.14704 0.60511 0.41356 0.03900
H 	H 	0.14591 0.54326 0.09091 0.03900
H 	H 	0.14468 0.60738 0.09392 0.03900
H 	H 	0.14979 0.66485 0.15426 0.04200
H 	H 	0.15141 0.66368 0.35819 0.04400
H 	H 	0.15341 0.48856 0.35008 0.04200
H 	H 	0.15408 0.49125 0.14623 0.04700
C 	C 	0.70155 0.05038 0.43260 -0.04200
C 	C 	0.68742 0.01665 0.39209 -0.04200
C 	C 	0.68291 0.97997 0.41452 0.01800
C 	C 	0.69222 0.97705 0.47840 -0.00800
C 	C 	0.70672 0.01108 0.51904 -0.00800
C 	C 	0.71155 0.04792 0.49598 0.01700
C 	C 	0.71716 0.00848 0.58242 0.01800
C 	C 	0.71207 0.97163 0.60511 -0.04200
C 	C 	0.69728 0.93773 0.56491 -0.04200
C 	C 	0.68755 0.94028 0.50144 0.01800
C 	C 	0.67363 0.90665 0.46060 -0.02700
C 	C 	0.66476 0.90960 0.39681 -0.05200
C 	C 	0.66944 0.94624 0.37384 -0.02800
C 	C 	0.72728 0.08209 0.53614 -0.02500
C 	C 	0.73894 0.07985 0.59865 -0.05200
C 	C 	0.73336 0.04296 0.62189 -0.02900
H 	H 	0.70505 0.07852 0.41447 0.03900
H 	H 	0.68016 0.01916 0.34320 0.04000
H 	H 	0.71980 0.96927 0.65379 0.04000
H 	H 	0.69367 0.90956 0.58310 0.04000
H 	H 	0.67028 0.87841 0.47808 0.04900
H 	H 	0.66238 0.94834 0.32463 0.04300
H 	H 	0.73184 0.11070 0.51825 0.04400
H 	H 	0.74227 0.04136 0.67026 0.04300
C 	C 	0.65299 0.99926 0.05717 -0.04300
C 	C 	0.67019 0.03205 0.01551 -0.04200
C 	C 	0.69998 0.03597 0.97167 0.01700
C 	C 	0.71228 0.00649 0.96931 -0.00800
C 	C 	0.69518 0.97364 0.01149 -0.00900
C 	C 	0.66544 0.97003 0.05564 0.01700
C 	C 	0.70800 0.94455 0.00974 0.01700
C 	C 	0.73739 0.94818 0.96540 -0.04300
C 	C 	0.75426 0.98070 0.92339 -0.04200
C 	C 	0.74203 0.01008 0.92526 0.01600
C 	C 	0.75971 0.04333 0.88439 -0.02600
C 	C 	0.74826 0.07329 0.88767 -0.05300
C 	C 	0.71803 0.06927 0.93077 -0.02800
C 	C 	0.64870 0.93732 0.09783 -0.02900
C 	C 	0.66183 0.90860 0.09650 -0.05300
C 	C 	0.69134 0.91223 0.05232 -0.02700
H 	H 	0.63012 0.99674 0.09078 0.03900
H 	H 	0.66042 0.05446 0.01755 0.03900
H 	H 	0.74730 0.92587 0.96354 0.04000
H 	H 	0.77702 0.98314 0.88962 0.03900
H 	H 	0.78315 0.04651 0.85132 0.04600
H 	H 	0.70888 0.09218 0.93273 0.04100
H 	H 	0.62581 0.93435 0.13185 0.04200
H 	H 	0.70088 0.88961 0.05066 0.04900
C 	C 	0.71626 0.66580 0.06681 -0.04100
C 	C 	0.70139 0.68473 0.10723 -0.04200
C 	C 	0.68573 0.70851 0.08235 0.01700
C 	C 	0.68457 0.71289 0.01626 -0.00800
C 	C 	0.69942 0.69371 0.97555 -0.00700
C 	C 	0.71560 0.67035 0.00097 0.01600
C 	C 	0.69855 0.69835 0.90949 0.01600
C 	C 	0.68245 0.72175 0.88458 -0.04200
C 	C 	0.66782 0.74089 0.92501 -0.04200
C 	C 	0.66897 0.73676 0.99088 0.01600
C 	C 	0.65499 0.75646 0.03160 -0.02600
C 	C 	0.65624 0.75231 0.09757 -0.06000
C 	C 	0.67143 0.72814 0.12274 -0.02600
C 	C 	0.73160 0.65243 0.96039 -0.02500
C 	C 	0.73175 0.65783 0.89452 -0.05900
C 	C 	0.71440 0.68011 0.86923 -0.02500
H 	H 	0.72850 0.64777 0.08679 0.04000
H 	H 	0.70228 0.68105 0.15792 0.04100
H 	H 	0.68152 0.72539 0.83389 0.04000
H 	H 	0.65573 0.75904 0.90504 0.03900
H 	H 	0.64359 0.77534 0.01209 0.04800
H 	H 	0.67200 0.72454 0.17355 0.05000
H 	H 	0.74476 0.63511 0.98009 0.04900
H 	H 	0.71371 0.68363 0.81842 0.04900
C 	C 	0.62413 0.67310 0.51492 -0.04100
C 	C 	0.64047 0.65740 0.55888 -0.04300
C 	C 	0.68283 0.67061 0.55952 0.01700
C 	C 	0.70887 0.69960 0.51527 -0.00900
C 	C 	0.69236 0.71513 0.47067 -0.00700
C 	C 	0.64990 0.70212 0.47088 0.01500
C 	C 	0.71841 0.74402 0.42636 0.01500
C 	C 	0.76069 0.75697 0.42662 -0.04100
C 	C 	0.77713 0.74175 0.47115 -0.04200
C 	C 	0.75146 0.71320 0.51576 0.01700
C 	C 	0.76783 0.69793 0.56060 -0.02500
C 	C 	0.74190 0.66882 0.60439 -0.06000
C 	C 	0.69946 0.65519 0.60377 -0.02600
C 	C 	0.63389 0.71890 0.42798 -0.02400
C 	C 	0.66008 0.74871 0.38505 -0.06000
C 	C 	0.70206 0.76025 0.38321 -0.02300
H 	H 	0.59144 0.66279 0.51535 0.03900
H 	H 	0.62018 0.63508 0.59258 0.04000
H 	H 	0.78094 0.77909 0.39266 0.04000
H 	H 	0.80986 0.75223 0.47096 0.04100
H 	H 	0.80051 0.70803 0.56067 0.04900
H 	H 	0.67953 0.63272 0.63766 0.04700
H 	H 	0.60143 0.70962 0.42917 0.04400
H 	H 	0.72209 0.78245 0.34908 0.04400
C 	C 	0.38316 0.82925 0.38173 -0.04200
C 	C 	0.42078 0.82981 0.38130 -0.04200
C 	C 	0.44062 0.83253 0.32385 0.01700
C 	C 	0.42355 0.83681 0.26675 -0.00800
C 	C 	0.38566 0.83620 0.26718 -0.00800
C 	C 	0.36491 0.83137 0.32473 0.01700
C 	C 	0.36750 0.83828 0.20971 0.01700
C 	C 	0.38837 0.84308 0.15261 -0.04200
C 	C 	0.42604 0.84372 0.15218 -0.04200
C 	C 	0.44327 0.83954 0.20886 0.01800
C 	C 	0.47874 0.83593 0.20803 -0.02800
C 	C 	0.49399 0.82859 0.26434 -0.05200
C 	C 	0.47601 0.82881 0.32246 -0.02600
C 	C 	0.32527 0.82655 0.32421 -0.02600
C 	C 	0.30593 0.82570 0.26652 -0.05300
C 	C 	0.32784 0.83343 0.20974 -0.02700
H 	H 	0.36777 0.82618 0.42630 0.03900
H 	H 	0.43398 0.82717 0.42554 0.04000
H 	H 	0.37498 0.84536 0.10831 0.03900
H 	H 	0.44128 0.84649 0.10757 0.03900
H 	H 	0.49346 0.83711 0.16342 0.04200
H 	H 	0.48820 0.82392 0.36611 0.04700
H 	H 	0.30865 0.82127 0.36820 0.04600
H 	H 	0.31336 0.83402 0.16546 0.04200
C 	C 	0.38716 0.55635 0.13366 -0.04100
C 	C 	0.42357 0.59402 0.13359 -0.04100
C 	C 	0.44240 0.61355 0.19094 0.01600
C 	C 	0.42531 0.59435 0.24876 -0.00700
C 	C 	0.38868 0.55640 0.24883 -0.00700
C 	C 	0.36911 0.53773 0.19108 0.01600
C 	C 	0.37078 0.53791 0.30669 0.01600
C 	C 	0.39042 0.55675 0.36400 -0.04200
C 	C 	0.42678 0.59445 0.36394 -0.04100
C 	C 	0.44398 0.61379 0.30656 0.01600
C 	C 	0.47873 0.65288 0.30632 -0.02200
C 	C 	0.49460 0.67289 0.24883 -0.05900
C 	C 	0.47715 0.65263 0.19121 -0.02300
C 	C 	0.33095 0.50156 0.19151 -0.02200
C 	C 	0.31189 0.48433 0.24917 -0.05900
C 	C 	0.33262 0.50174 0.30661 -0.02300
H 	H 	0.37262 0.54203 0.08902 0.04000
H 	H 	0.43671 0.60830 0.08890 0.04000
H 	H 	0.37715 0.54256 0.40870 0.03900
H 	H 	0.44116 0.60890 0.40858 0.03900
H 	H 	0.49282 0.66814 0.35072 0.04200
H 	H 	0.48958 0.66788 0.14679 0.04400
H 	H 	0.31545 0.48755 0.14719 0.04400
H 	H 	0.31819 0.48823 0.35114 0.04200
C 	C 	0.00001 0.28126 0.42244 0.01800
C 	C 	0.96731 0.26424 0.98524 -0.00800
C 	C 	0.96768 0.27747 0.52409 -0.00700
C 	C 	0.96776 0.69924 0.53199 -0.00800
C 	C 	0.97060 0.29084 0.58732 0.01700
C 	C 	0.97242 0.64909 0.43803 -0.04100
H 	H 	0.97392 0.62950 0.40199 0.04000
C 	C 	0.97585 0.21345 0.07261 -0.04100
H 	H 	0.97888 0.19360 0.10608 0.03900
C 	C 	0.99965 0.73504 0.89727 -0.04200
H 	H 	0.98755 0.35163 0.91020 0.04000
C 	C 	0.99069 0.33176 0.94348 -0.04200
C 	C 	0.99170 0.69151 0.08293 0.01700
C 	C 	0.99447 0.70582 0.02069 -0.00700
C 	C 	0.99632 0.76546 0.58348 -0.04200
H 	H 	0.99485 0.78504 0.61957 0.03900
C 	C 	0.99941 0.28095 0.03062 -0.00700
