data_crystal

_cell_length_a 44.56760
_cell_length_b 22.30427
_cell_length_c 22.92329
_cell_angle_alpha 90.00224
_cell_angle_beta  89.99503
_cell_angle_gamma 89.99973

_symmetry_space_group_name_	'P 1'
_symmetry_space_group_name_H-M	'P 1'

loop_
_symmetry_equiv_pos_as_xyz
  x,y,z

loop_
_atom_site_label
_atom_site_type_symbol
_atom_site_fract_x
_atom_site_fract_y
_atom_site_fract_z
_atom_site_charge
C 	C 	0.64601 0.26801 0.30148 0.34300
C 	C 	0.64528 0.26217 0.56496 0.34300
C 	C 	0.69061 0.17769 0.40470 0.34200
C 	C 	0.60692 0.36477 0.47783 0.34300
C 	C 	0.60846 0.09879 0.48032 0.35100
C 	C 	0.55822 0.19734 0.38675 0.33600
Ni	Ni	0.65610 0.28530 0.43572 1.11800
Ni	Ni	0.59505 0.22881 0.48902 1.13400
Ni	Ni	0.62496 0.16848 0.37736 1.13700
O 	O 	0.66441 0.28556 0.34451 -0.33800
O 	O 	0.62517 0.22600 0.30924 -0.32700
O 	O 	0.58782 0.13945 0.49087 -0.36300
O 	O 	0.65667 0.29938 0.52624 -0.36200
O 	O 	0.62834 0.21731 0.54809 -0.34500
O 	O 	0.57931 0.15689 0.37314 -0.34000
O 	O 	0.68294 0.21129 0.44873 -0.36900
O 	O 	0.67052 0.16374 0.36477 -0.30800
O 	O 	0.56130 0.23459 0.43161 -0.34600
O 	O 	0.62624 0.35623 0.43467 -0.33600
O 	O 	0.59359 0.31929 0.50572 -0.34800
O 	O 	0.62987 0.10901 0.44224 -0.34400
O 	O 	0.62200 0.23765 0.42565 -0.72600
H 	H 	0.60993 0.26383 0.40018 0.18100
C 	C 	0.62113 0.23488 0.96094 0.33200
C 	C 	0.68997 0.45348 0.91187 0.34800
C 	C 	0.65426 0.34207 0.06156 0.35000
C 	C 	0.65043 0.34705 0.80120 0.32900
C 	C 	0.60403 0.49722 0.98644 0.32100
C 	C 	0.56226 0.39035 0.88856 0.33600
Ni	Ni	0.66589 0.33058 0.93124 1.11900
Ni	Ni	0.62564 0.43969 0.88056 1.12900
Ni	Ni	0.60165 0.36405 0.98876 1.12300
O 	O 	0.64211 0.25140 0.92318 -0.32900
O 	O 	0.60897 0.27350 0.99888 -0.37200
O 	O 	0.62651 0.49426 0.94970 -0.36700
O 	O 	0.68801 0.40988 0.94988 -0.34300
O 	O 	0.67015 0.45772 0.86956 -0.35800
O 	O 	0.56837 0.35159 0.93111 -0.35200
O 	O 	0.66745 0.30988 0.02064 -0.31900
O 	O 	0.63432 0.38261 0.04720 -0.31000
O 	O 	0.57986 0.43764 0.87782 -0.36800
O 	O 	0.67243 0.33994 0.84023 -0.32400
O 	O 	0.62943 0.38884 0.80789 -0.34700
O 	O 	0.58736 0.44978 0.99726 -0.35100
O 	O 	0.62842 0.36794 0.92469 -0.72600
H 	H 	0.61820 0.34025 0.89776 0.17000
C 	C 	0.83766 0.36018 0.48810 0.33700
C 	C 	0.84185 0.35074 0.22977 0.34700
C 	C 	0.80989 0.24556 0.37726 0.34400
C 	C 	0.86715 0.47784 0.32969 0.33200
C 	C 	0.90154 0.22175 0.31352 0.35800
C 	C 	0.93370 0.33846 0.40933 0.33000
Ni	Ni	0.82732 0.37224 0.35563 1.12500
Ni	Ni	0.89484 0.35421 0.30668 1.12700
Ni	Ni	0.87243 0.27600 0.41410 1.13600
O 	O 	0.81753 0.36283 0.44511 -0.33200
O 	O 	0.86261 0.32784 0.48362 -0.34900
O 	O 	0.91526 0.27300 0.30336 -0.36900
O 	O 	0.82827 0.38738 0.26602 -0.31600
O 	O 	0.86614 0.32204 0.24591 -0.37800
O 	O 	0.91758 0.28984 0.42363 -0.34600
O 	O 	0.81115 0.28734 0.33731 -0.36700
O 	O 	0.82919 0.24590 0.42076 -0.31000
O 	O 	0.92479 0.37667 0.36821 -0.34500
O 	O 	0.84479 0.45815 0.36298 -0.32100
O 	O 	0.88136 0.44152 0.29228 -0.34800
O 	O 	0.87781 0.21949 0.34724 -0.35700
O 	O 	0.86658 0.34539 0.36788 -0.72500
H 	H 	0.87389 0.37640 0.39499 0.16900
C 	C 	0.87170 0.25558 0.81558 0.33600
C 	C 	0.81017 0.47575 0.88661 0.35800
C 	C 	0.84345 0.38646 0.72917 0.34800
C 	C 	0.83942 0.36099 0.98819 0.31000
C 	C 	0.89966 0.51521 0.82210 0.36400
C 	C 	0.93583 0.39221 0.90848 0.33800
Ni	Ni	0.83062 0.35464 0.85380 1.12600
Ni	Ni	0.87370 0.44957 0.91930 1.12700
Ni	Ni	0.89694 0.38350 0.80485 1.13100
O 	O 	0.85074 0.27095 0.85401 -0.31700
O 	O 	0.88602 0.29644 0.78306 -0.35100
O 	O 	0.87668 0.51223 0.85752 -0.37400
O 	O 	0.81387 0.44004 0.84216 -0.34200
O 	O 	0.82988 0.47535 0.92941 -0.37300
O 	O 	0.92812 0.35845 0.86298 -0.34400
O 	O 	0.83122 0.34615 0.76344 -0.34300
O 	O 	0.86698 0.41687 0.74678 -0.32200
O 	O 	0.91924 0.43911 0.92581 -0.37100
O 	O 	0.82026 0.35543 0.94370 -0.34400
O 	O 	0.86536 0.38977 0.98309 -0.36400
O 	O 	0.91500 0.46677 0.80838 -0.34400
O 	O 	0.86921 0.38392 0.86751 -0.72500
H 	H 	0.87755 0.35141 0.89167 0.18100
C 	C 	0.12967 0.46696 0.32801 0.32800
C 	C 	0.18348 0.23471 0.38981 0.34400
C 	C 	0.15293 0.33122 0.23606 0.34700
C 	C 	0.15793 0.35469 0.49464 0.34300
C 	C 	0.09240 0.21203 0.32520 0.36300
C 	C 	0.06041 0.33445 0.41450 0.32900
Ni	Ni	0.16775 0.36052 0.36057 1.12600
Ni	Ni	0.12126 0.27059 0.42426 1.13700
Ni	Ni	0.10003 0.34364 0.31255 1.12600
O 	O 	0.15166 0.44786 0.36256 -0.30900
O 	O 	0.11467 0.42928 0.29307 -0.35300
O 	O 	0.11522 0.20972 0.36125 -0.35100
O 	O 	0.18266 0.27377 0.34735 -0.36700
O 	O 	0.16409 0.23854 0.43300 -0.32400
O 	O 	0.07047 0.37087 0.37289 -0.37400
O 	O 	0.16706 0.36951 0.26993 -0.31400
O 	O 	0.12798 0.30593 0.25359 -0.38000
O 	O 	0.07631 0.28718 0.43330 -0.31000
O 	O 	0.17769 0.35630 0.45072 -0.33800
O 	O 	0.13178 0.32648 0.49024 -0.35000
O 	O 	0.07883 0.26321 0.31397 -0.36600
O 	O 	0.12815 0.33676 0.37416 -0.72700
H 	H 	0.12135 0.36985 0.39939 0.17500
C 	C 	0.15691 0.32654 0.99557 0.31400
C 	C 	0.15559 0.37045 0.73750 0.34400
C 	C 	0.19013 0.44526 0.90076 0.33900
C 	C 	0.11951 0.24122 0.81676 0.33700
C 	C 	0.10808 0.50270 0.83703 0.36100
C 	C 	0.06165 0.38243 0.91412 0.33600
Ni	Ni	0.16603 0.32794 0.86059 1.12300
Ni	Ni	0.10194 0.37378 0.81227 1.12800
Ni	Ni	0.12633 0.42438 0.93313 1.13000
O 	O 	0.17571 0.31919 0.95063 -0.33900
O 	O 	0.13152 0.35703 0.99070 -0.36100
O 	O 	0.08914 0.45999 0.82256 -0.34500
O 	O 	0.16618 0.32636 0.76949 -0.32300
O 	O 	0.13425 0.40498 0.75803 -0.38100
O 	O 	0.08051 0.42204 0.93837 -0.32900
O 	O 	0.18753 0.40986 0.85555 -0.36900
O 	O 	0.17107 0.44079 0.94447 -0.34700
O 	O 	0.06889 0.35044 0.86719 -0.36400
O 	O 	0.14230 0.24824 0.85363 -0.32300
O 	O 	0.10902 0.28693 0.78490 -0.35900
O 	O 	0.12650 0.49606 0.88108 -0.37400
O 	O 	0.12883 0.36392 0.87518 -0.72700
H 	H 	0.11869 0.33102 0.89599 0.17900
C 	C 	0.38527 0.37349 0.45478 0.32600
C 	C 	0.30291 0.17339 0.41648 0.34700
C 	C 	0.34696 0.27864 0.56076 0.34800
C 	C 	0.34631 0.25542 0.30061 0.34100
C 	C 	0.38871 0.10974 0.49343 0.37100
C 	C 	0.43458 0.19958 0.38910 0.32500
Ni	Ni	0.33579 0.28661 0.43064 1.12700
Ni	Ni	0.36821 0.16511 0.38599 1.13500
Ni	Ni	0.39798 0.24189 0.48819 1.12700
O 	O 	0.36426 0.35830 0.41664 -0.30700
O 	O 	0.39639 0.33415 0.49328 -0.36300
O 	O 	0.36549 0.11627 0.45893 -0.35100
O 	O 	0.31064 0.21330 0.45516 -0.36400
O 	O 	0.32259 0.15558 0.37720 -0.32200
O 	O 	0.43102 0.24256 0.42881 -0.36600
O 	O 	0.33676 0.31279 0.51831 -0.35000
O 	O 	0.36531 0.23425 0.54916 -0.34700
O 	O 	0.41400 0.15655 0.38078 -0.31400
O 	O 	0.32659 0.27267 0.34120 -0.31900
O 	O 	0.36607 0.21183 0.31051 -0.35700
O 	O 	0.40765 0.15422 0.50170 -0.35800
O 	O 	0.37054 0.24014 0.42494 -0.72300
H 	H 	0.38195 0.26313 0.39571 0.17200
C 	C 	0.34676 0.35210 0.80042 0.33400
C 	C 	0.34643 0.32969 0.06067 0.34200
C 	C 	0.30993 0.44855 0.91868 0.33700
C 	C 	0.37902 0.22741 0.95303 0.32400
C 	C 	0.39767 0.48788 0.99203 0.28300
C 	C 	0.43784 0.38738 0.88878 0.32600
Ni	Ni	0.33418 0.32522 0.93064 1.11800
Ni	Ni	0.39889 0.35455 0.98788 1.11700
Ni	Ni	0.37414 0.43671 0.88507 1.13100
O 	O 	0.32600 0.34065 0.84102 -0.33800
O 	O 	0.36918 0.39021 0.81004 -0.33700
O 	O 	0.41380 0.43933 0.00112 -0.29800
O 	O 	0.33343 0.29924 0.01843 -0.29600
O 	O 	0.36678 0.37019 0.04841 -0.34500
O 	O 	0.41986 0.43456 0.87990 -0.33500
O 	O 	0.31303 0.40386 0.95509 -0.37600
O 	O 	0.32966 0.45653 0.87677 -0.31700
O 	O 	0.43158 0.34548 0.92835 -0.37800
O 	O 	0.35752 0.24609 0.91726 -0.32700
O 	O 	0.39127 0.26363 0.99304 -0.36200
O 	O 	0.37429 0.48647 0.95749 -0.36700
O 	O 	0.37170 0.36229 0.92472 -0.72800
H 	H 	0.38153 0.33620 0.89578 0.16600
C 	C 	0.63803 0.82874 0.23329 0.33600
C 	C 	0.63803 0.83022 0.97400 0.31900
C 	C 	0.68873 0.90136 0.12644 0.34900
C 	C 	0.59255 0.73532 0.06840 0.33000
C 	C 	0.61085 0.99679 0.04828 0.32800
C 	C 	0.55753 0.91662 0.15492 0.32700
Ni	Ni	0.64687 0.80446 0.10191 1.12400
Ni	Ni	0.58870 0.87230 0.05012 1.13600
Ni	Ni	0.62504 0.93196 0.15531 1.13200
O 	O 	0.65651 0.80819 0.19200 -0.32000
O 	O 	0.62330 0.88031 0.22750 -0.35100
O 	O 	0.58695 0.96249 0.04489 -0.32500
O 	O 	0.64389 0.78817 0.01251 -0.28900
O 	O 	0.62100 0.87604 0.98797 -0.38600
O 	O 	0.58063 0.95417 0.16183 -0.32800
O 	O 	0.67741 0.87073 0.08359 -0.36900
O 	O 	0.67067 0.92627 0.16486 -0.31700
O 	O 	0.55641 0.87793 0.11075 -0.35600
O 	O 	0.61289 0.74216 0.10986 -0.35800
O 	O 	0.58213 0.78174 0.03736 -0.31200
O 	O 	0.63210 0.98511 0.08624 -0.36000
O 	O 	0.61649 0.86098 0.11186 -0.71900
H 	H 	0.60354 0.83971 0.13986 0.16300
C 	C 	0.69610 0.70273 0.64233 0.34000
C 	C 	0.59797 0.86065 0.57171 0.35200
C 	C 	0.64750 0.79094 0.73232 0.36500
C 	C 	0.63512 0.76061 0.47314 0.33800
C 	C 	0.56367 0.70499 0.67645 0.35100
C 	C 	0.60925 0.59786 0.58287 0.33700
Ni	Ni	0.65306 0.79557 0.60088 1.12100
Ni	Ni	0.59188 0.72701 0.56492 1.13300
Ni	Ni	0.62936 0.68049 0.67454 1.12800
O 	O 	0.68844 0.73620 0.59714 -0.34300
O 	O 	0.67581 0.68288 0.68115 -0.36000
O 	O 	0.56820 0.74590 0.63651 -0.36800
O 	O 	0.61680 0.85124 0.61418 -0.33600
O 	O 	0.58787 0.81508 0.54102 -0.34400
O 	O 	0.62922 0.60624 0.62521 -0.33500
O 	O 	0.66486 0.80733 0.68877 -0.34600
O 	O 	0.62492 0.75487 0.72342 -0.37300
O 	O 	0.58696 0.63658 0.57379 -0.34100
O 	O 	0.64798 0.80051 0.50907 -0.35200
O 	O 	0.61681 0.71802 0.49221 -0.34700
O 	O 	0.58491 0.66586 0.68898 -0.33200
O 	O 	0.62934 0.72649 0.60461 -0.71900
H 	H 	0.64099 0.69934 0.57941 0.17400
C 	C 	0.91345 0.98541 0.23938 0.31700
C 	C 	0.80975 0.83779 0.18285 0.34700
C 	C 	0.85743 0.91176 0.33280 0.35200
C 	C 	0.86126 0.88356 0.07387 0.31700
C 	C 	0.88000 0.72806 0.27332 0.34900
C 	C 	0.94001 0.79406 0.17431 0.33300
Ni	Ni	0.85634 0.92781 0.20303 1.12000
Ni	Ni	0.87224 0.79169 0.16373 1.13400
Ni	Ni	0.90695 0.85081 0.27108 1.12800
O 	O 	0.89440 0.97983 0.19546 -0.33400
O 	O 	0.91810 0.94068 0.27756 -0.35100
O 	O 	0.86011 0.74623 0.23514 -0.37200
O 	O 	0.82132 0.87169 0.22304 -0.37900
O 	O 	0.82740 0.80628 0.14836 -0.31100
O 	O 	0.94161 0.83310 0.21813 -0.35700
O 	O 	0.85725 0.95176 0.29089 -0.35000
O 	O 	0.87174 0.86074 0.32630 -0.37300
O 	O 	0.91553 0.76064 0.16515 -0.32600
O 	O 	0.84841 0.92085 0.11221 -0.33400
O 	O 	0.87922 0.83927 0.09027 -0.33200
O 	O 	0.90396 0.76083 0.28455 -0.33100
O 	O 	0.88306 0.86329 0.20337 -0.72100
H 	H 	0.89845 0.87876 0.17646 0.17200
C 	C 	0.87528 0.01057 0.73659 0.38600
C 	C 	0.81279 0.78720 0.67474 0.34700
C 	C 	0.84981 0.88785 0.82742 0.36800
C 	C 	0.84320 0.90468 0.56789 0.33100
C 	C 	0.90150 0.74982 0.73600 0.36100
C 	C 	0.93895 0.86544 0.64425 0.33500
Ni	Ni	0.83365 0.91117 0.70161 1.12000
Ni	Ni	0.87552 0.81304 0.63716 1.12900
Ni	Ni	0.90090 0.88232 0.74771 1.13300
O 	O 	0.85470 0.99378 0.69804 -0.38000
O 	O 	0.89148 0.97081 0.76712 -0.33700
O 	O 	0.87858 0.75188 0.70034 -0.37700
O 	O 	0.81408 0.82806 0.71573 -0.33100
O 	O 	0.83130 0.79009 0.63004 -0.35300
O 	O 	0.93125 0.90328 0.68650 -0.33800
O 	O 	0.83481 0.92337 0.79218 -0.34000
O 	O 	0.87097 0.85298 0.80720 -0.36000
O 	O 	0.92108 0.82020 0.62767 -0.36800
O 	O 	0.82344 0.90837 0.61160 -0.33600
O 	O 	0.86757 0.87057 0.57126 -0.36000
O 	O 	0.91770 0.79795 0.74662 -0.35600
O 	O 	0.87201 0.88013 0.68734 -0.72400
H 	H 	0.88028 0.91152 0.66176 0.17400
C 	C 	0.13792 0.87816 0.07277 0.30700
C 	C 	0.14409 0.90353 0.33182 0.35000
C 	C 	0.18954 0.83349 0.17470 0.35200
C 	C 	0.08634 0.97727 0.24284 0.31800
C 	C 	0.12014 0.71848 0.26938 0.34700
C 	C 	0.05944 0.78912 0.17542 0.34200
Ni	Ni	0.14326 0.92149 0.20204 1.13500
Ni	Ni	0.09409 0.84241 0.27199 1.12800
Ni	Ni	0.12694 0.78529 0.16131 1.12800
O 	O 	0.14941 0.91759 0.11063 -0.28800
O 	O 	0.11946 0.83473 0.08915 -0.34500
O 	O 	0.09692 0.75209 0.28382 -0.33900
O 	O 	0.14385 0.94384 0.29021 -0.33600
O 	O 	0.13029 0.85195 0.32493 -0.37200
O 	O 	0.08351 0.75525 0.16420 -0.34900
O 	O 	0.17878 0.86513 0.21740 -0.35000
O 	O 	0.17164 0.79891 0.14373 -0.36500
O 	O 	0.05847 0.82601 0.22103 -0.35200
O 	O 	0.10497 0.97336 0.19803 -0.30900
O 	O 	0.08307 0.93206 0.28096 -0.34900
O 	O 	0.13968 0.73736 0.23084 -0.37600
O 	O 	0.11691 0.85624 0.20305 -0.72200
H 	H 	0.10110 0.87219 0.17736 0.18400
C 	C 	0.15660 0.91235 0.56907 0.33600
C 	C 	0.15763 0.87341 0.82792 0.37600
C 	C 	0.19293 0.79331 0.66303 0.35600
C 	C 	0.12137 0.99706 0.74728 0.31300
C 	C 	0.11143 0.73484 0.73072 0.36600
C 	C 	0.06456 0.85595 0.65196 0.33000
Ni	Ni	0.16853 0.91126 0.70314 1.12200
Ni	Ni	0.10471 0.86417 0.75399 1.12700
Ni	Ni	0.12863 0.81263 0.63368 1.13100
O 	O 	0.17638 0.91977 0.61241 -0.33100
O 	O 	0.13203 0.87948 0.57517 -0.36600
O 	O 	0.09242 0.77741 0.74541 -0.36900
O 	O 	0.16997 0.91444 0.79445 -0.35400
O 	O 	0.13827 0.83560 0.80602 -0.35500
O 	O 	0.08277 0.81332 0.63117 -0.33300
O 	O 	0.19249 0.83150 0.70658 -0.31800
O 	O 	0.17335 0.79859 0.62026 -0.34600
O 	O 	0.07092 0.88630 0.70035 -0.36900
O 	O 	0.14427 0.99042 0.71052 -0.33200
O 	O 	0.11142 0.95153 0.77999 -0.36700
O 	O 	0.13027 0.74239 0.68745 -0.34800
O 	O 	0.13134 0.87386 0.69064 -0.72100
H 	H 	0.12077 0.90628 0.66995 0.16900
C 	C 	0.41061 0.72704 0.06535 0.32600
C 	C 	0.31033 0.88812 0.10630 0.35400
C 	C 	0.36542 0.81651 0.96311 0.32600
C 	C 	0.35742 0.82626 0.22165 0.33700
C 	C 	0.38913 0.98672 0.03225 0.39100
C 	C 	0.44009 0.91311 0.14766 0.33700
Ni	Ni	0.35447 0.79391 0.09024 1.13800
Ni	Ni	0.37260 0.92510 0.13976 1.12900
Ni	Ni	0.41286 0.86332 0.04126 1.13800
O 	O 	0.38922 0.73464 0.10460 -0.33600
O 	O 	0.42106 0.77261 0.03311 -0.30600
O 	O 	0.36679 0.97433 0.06755 -0.37300
O 	O 	0.32341 0.85701 0.06581 -0.33400
O 	O 	0.32681 0.91677 0.14493 -0.36000
O 	O 	0.44332 0.87349 0.10471 -0.34500
O 	O 	0.36051 0.77469 0.00224 -0.32000
O 	O 	0.38261 0.86259 0.97530 -0.35000
O 	O 	0.41649 0.95001 0.14999 -0.35400
O 	O 	0.34180 0.80052 0.17869 -0.31400
O 	O 	0.37321 0.87624 0.21376 -0.35600
O 	O 	0.41349 0.95343 0.03222 -0.33900
O 	O 	0.38350 0.85297 0.10052 -0.72100
H 	H 	0.39594 0.83388 0.13080 0.18000
C 	C 	0.36774 0.77571 0.46231 0.32500
C 	C 	0.35657 0.77920 0.72127 0.36100
C 	C 	0.40834 0.86869 0.56939 0.35600
C 	C 	0.30883 0.70676 0.62094 0.33400
C 	C 	0.44053 0.70274 0.65905 0.35800
C 	C 	0.39542 0.60702 0.54964 0.33000
Ni	Ni	0.35302 0.80208 0.59157 1.12200
Ni	Ni	0.37519 0.67733 0.65045 1.13700
Ni	Ni	0.41385 0.73650 0.54791 1.12900
O 	O 	0.35943 0.81659 0.50170 -0.32200
O 	O 	0.38998 0.73730 0.47290 -0.36400
O 	O 	0.41953 0.66133 0.66386 -0.34800
O 	O 	0.34052 0.80376 0.67959 -0.35900
O 	O 	0.37914 0.74422 0.70876 -0.34600
O 	O 	0.41822 0.64548 0.54646 -0.34300
O 	O 	0.38982 0.85427 0.61111 -0.33800
O 	O 	0.41857 0.82668 0.53430 -0.35700
O 	O 	0.37550 0.60972 0.59272 -0.34900
O 	O 	0.31723 0.74481 0.57992 -0.34000
O 	O 	0.32869 0.67921 0.65596 -0.32900
O 	O 	0.43768 0.74643 0.62119 -0.35300
O 	O 	0.37613 0.73220 0.58700 -0.71700
H 	H 	0.36448 0.70886 0.55841 0.16900
C 	C 	0.35063 0.74984 0.88088 -0.07700
C 	C 	0.35479 0.80798 0.90282 -0.10200
C 	C 	0.35201 0.85740 0.86494 0.34900
C 	C 	0.34932 0.84811 0.80486 -0.06900
C 	C 	0.34898 0.78967 0.78252 -0.12200
C 	C 	0.34746 0.74076 0.82099 0.35600
F 	F 	0.34498 0.68409 0.79990 -0.43100
H 	H 	0.35156 0.71144 0.90978 0.12100
H 	H 	0.34942 0.88620 0.77552 0.11900
F 	F 	0.35294 0.91424 0.88609 -0.42100
C 	C 	0.36427 0.73793 0.35996 -0.08000
C 	C 	0.35739 0.78255 0.40130 -0.10400
C 	C 	0.34415 0.83654 0.38226 0.34900
C 	C 	0.34153 0.84832 0.32271 -0.07600
C 	C 	0.35204 0.80674 0.28169 -0.10800
C 	C 	0.36188 0.75023 0.30032 0.35500
F 	F 	0.37099 0.70869 0.26081 -0.41300
H 	H 	0.37289 0.69485 0.37395 0.11900
H 	H 	0.33279 0.89122 0.30840 0.11200
F 	F 	0.33503 0.87866 0.42115 -0.41900
C 	C 	0.26751 0.71849 0.69281 -0.08000
C 	C 	0.27663 0.70470 0.63574 -0.10100
C 	C 	0.25528 0.70608 0.59059 0.35400
C 	C 	0.22683 0.73071 0.60048 -0.07700
C 	C 	0.21929 0.75308 0.65590 -0.09500
C 	C 	0.23889 0.74231 0.70303 0.35500
F 	F 	0.23068 0.75677 0.75829 -0.39200
H 	H 	0.28336 0.71535 0.72853 0.12900
H 	H 	0.21135 0.73523 0.56434 0.14100
F 	F 	0.26297 0.68829 0.53596 -0.40700
C 	C 	0.15716 0.82610 0.98460 -0.19700
C 	C 	0.14812 0.87951 0.01175 0.00400
C 	C 	0.14771 0.93313 0.97962 0.25700
C 	C 	0.15404 0.93223 0.91978 -0.03600
C 	C 	0.16043 0.87772 0.89165 -0.15600
C 	C 	0.16333 0.82518 0.92488 0.39600
F 	F 	0.17073 0.77261 0.89870 -0.41200
H 	H 	0.15863 0.78493 0.00955 0.15300
H 	H 	0.15219 0.97322 0.89468 0.09400
F 	F 	0.13965 0.98542 0.00557 -0.36200
C 	C 	0.17654 0.88084 0.41698 -0.07700
C 	C 	0.15619 0.91934 0.38932 -0.12200
C 	C 	0.14431 0.96827 0.42024 0.34500
C 	C 	0.14897 0.97271 0.48041 -0.10500
C 	C 	0.16539 0.92830 0.50965 -0.10300
C 	C 	0.18176 0.88633 0.47687 0.34300
F 	F 	0.19972 0.84598 0.50418 -0.42400
H 	H 	0.18694 0.84459 0.39284 0.11200
H 	H 	0.13728 0.00697 0.50505 0.14300
F 	F 	0.12624 0.00847 0.39307 -0.40800
C 	C 	0.25935 0.92081 0.13649 -0.07600
C 	C 	0.27885 0.87466 0.12011 -0.12100
C 	C 	0.26841 0.81498 0.11872 0.35400
C 	C 	0.23890 0.80186 0.13475 -0.07600
C 	C 	0.21966 0.84784 0.15270 -0.12400
C 	C 	0.22979 0.90772 0.15215 0.35200
F 	F 	0.21091 0.95318 0.16646 -0.44400
H 	H 	0.26707 0.96688 0.13699 0.11600
H 	H 	0.23126 0.75574 0.13475 0.11800
F 	F 	0.28715 0.76952 0.10377 -0.44800
C 	C 	0.98548 0.80888 0.62019 -0.08300
C 	C 	0.97068 0.86419 0.62587 -0.11100
C 	C 	0.98760 0.91738 0.62515 0.34900
C 	C 	0.01894 0.91475 0.62728 -0.08300
C 	C 	0.03358 0.85908 0.62977 -0.11100
C 	C 	0.01680 0.80621 0.62238 0.34600
F 	F 	0.03060 0.75195 0.62256 -0.41800
H 	H 	0.97272 0.76755 0.61879 0.11400
H 	H 	0.03175 0.95591 0.63062 0.11700
F 	F 	0.97366 0.97150 0.62570 -0.40800
C 	C 	0.98442 0.82141 0.11593 -0.08000
C 	C 	0.96825 0.77711 0.14588 -0.10300
C 	C 	0.98336 0.72533 0.16470 0.35600
C 	C 	0.01479 0.72430 0.16523 -0.07700
C 	C 	0.03094 0.77482 0.14670 -0.10500
C 	C 	0.01580 0.82036 0.11639 0.35100
F 	F 	0.03134 0.86741 0.09406 -0.41200
H 	H 	0.97285 0.86011 0.09830 0.11600
H 	H 	0.02637 0.68732 0.18604 0.14000
F 	F 	0.96783 0.67946 0.18918 -0.38600
C 	C 	0.85386 0.94203 0.98218 -0.18900
C 	C 	0.85257 0.88718 0.01204 0.00800
C 	C 	0.84478 0.83474 0.98159 0.27800
C 	C 	0.84071 0.83642 0.92126 -0.03100
C 	C 	0.84464 0.89018 0.89059 -0.14500
C 	C 	0.84996 0.94360 0.92153 0.39200
F 	F 	0.85341 0.99619 0.89248 -0.43400
H 	H 	0.85927 0.98291 0.00545 0.16500
H 	H 	0.83609 0.79521 0.89786 0.12100
F 	F 	0.84190 0.78183 0.01035 -0.37100
C 	C 	0.82305 0.88571 0.41386 -0.07600
C 	C 	0.84368 0.92587 0.38928 -0.12500
C 	C 	0.85542 0.97233 0.42371 0.34500
C 	C 	0.85067 0.97205 0.48404 -0.10500
C 	C 	0.83434 0.92529 0.50987 -0.10400
C 	C 	0.81796 0.88611 0.47404 0.34300
F 	F 	0.80032 0.84317 0.49827 -0.42100
H 	H 	0.81276 0.85134 0.38709 0.11000
H 	H 	0.86233 0.00428 0.51120 0.13500
F 	F 	0.87371 0.01423 0.39972 -0.40800
C 	C 	0.48641 0.64138 0.67392 -0.08000
C 	C 	0.46997 0.69345 0.68667 -0.11000
C 	C 	0.48460 0.74218 0.71308 0.35400
C 	C 	0.51590 0.74248 0.71780 -0.07800
C 	C 	0.53272 0.69420 0.69615 -0.11400
C 	C 	0.51776 0.64167 0.67868 0.35100
F 	F 	0.53365 0.59326 0.66039 -0.40600
H 	H 	0.47524 0.60271 0.65528 0.13500
H 	H 	0.52718 0.78239 0.73350 0.12200
F 	F 	0.46874 0.79142 0.72926 -0.40400
C 	C 	0.73785 0.71815 0.71259 -0.07600
C 	C 	0.72828 0.69965 0.65709 -0.11100
C 	C 	0.74951 0.69522 0.61187 0.35500
C 	C 	0.77826 0.71935 0.61907 -0.07700
C 	C 	0.78629 0.74674 0.67205 -0.10500
C 	C 	0.76681 0.74131 0.72026 0.34800
F 	F 	0.77545 0.76051 0.77389 -0.41500
H 	H 	0.72214 0.71923 0.74865 0.10900
H 	H 	0.79361 0.71974 0.58243 0.13200
F 	F 	0.74139 0.67243 0.55927 -0.41000
C 	C 	0.51374 0.88205 0.21133 -0.08000
C 	C 	0.52934 0.92962 0.18527 -0.10400
C 	C 	0.51358 0.98220 0.17113 0.34700
C 	C 	0.48220 0.98126 0.16951 -0.09800
C 	C 	0.46687 0.92780 0.18182 -0.09900
C 	C 	0.48239 0.88115 0.20973 0.34800
F 	F 	0.46744 0.83136 0.22748 -0.41900
H 	H 	0.52581 0.84271 0.22614 0.10700
H 	H 	0.47020 0.01922 0.15145 0.15500
F 	F 	0.52853 0.03105 0.15105 -0.37200
C 	C 	0.64615 0.87254 0.87418 -0.08700
C 	C 	0.64864 0.82386 0.91299 -0.10200
C 	C 	0.65837 0.76794 0.89152 0.34900
C 	C 	0.66211 0.75956 0.83156 -0.07500
C 	C 	0.65557 0.80612 0.79246 -0.12700
C 	C 	0.64939 0.86358 0.81410 0.35800
F 	F 	0.64419 0.90966 0.77675 -0.41100
H 	H 	0.64025 0.91668 0.89026 0.11300
H 	H 	0.66783 0.71544 0.81513 0.09400
F 	F 	0.66262 0.72089 0.92815 -0.41900
C 	C 	0.66380 0.77667 0.38116 -0.07800
C 	C 	0.63619 0.77168 0.41007 -0.11500
C 	C 	0.60935 0.77780 0.37849 0.34900
C 	C 	0.61016 0.79154 0.31918 -0.08100
C 	C 	0.63769 0.79965 0.29074 -0.10700
C 	C 	0.66459 0.78981 0.32142 0.35900
F 	F 	0.69143 0.79461 0.29389 -0.39800
H 	H 	0.68460 0.77073 0.40495 0.11900
H 	H 	0.58932 0.79850 0.29577 0.10500
F 	F 	0.58245 0.77313 0.40595 -0.43100
C 	C 	0.74093 0.87777 0.09630 -0.08200
C 	C 	0.72058 0.89173 0.14111 -0.11900
C 	C 	0.72947 0.88459 0.19956 0.36000
C 	C 	0.75759 0.86053 0.21265 -0.07700
C 	C 	0.77796 0.84663 0.16788 -0.11700
C 	C 	0.76930 0.85482 0.10946 0.35200
F 	F 	0.78863 0.84222 0.06544 -0.40300
H 	H 	0.73447 0.88342 0.05106 0.12100
H 	H 	0.76411 0.85508 0.25790 0.12100
F 	F 	0.71091 0.90084 0.24375 -0.39500
C 	C 	0.41439 0.59130 0.96978 -0.12200
C 	C 	0.40920 0.54623 0.01116 -0.03700
C 	C 	0.41179 0.55945 0.07075 0.34000
C 	C 	0.41626 0.61874 0.08876 -0.08000
C 	C 	0.41767 0.66517 0.04733 -0.07500
C 	C 	0.41869 0.65053 0.98760 0.32500
F 	F 	0.42129 0.69423 0.94668 -0.42100
H 	H 	0.41353 0.58091 0.92361 0.12900
H 	H 	0.41648 0.62916 0.13493 0.13400
F 	F 	0.40795 0.51569 0.11122 -0.40600
C 	C 	0.41134 0.14092 0.98077 -0.14400
C 	C 	0.38378 0.16222 0.95948 -0.07600
C 	C 	0.35952 0.12210 0.95358 0.33700
C 	C 	0.36217 0.06318 0.97357 -0.03800
C 	C 	0.38881 0.04371 0.99993 -0.18100
C 	C 	0.41384 0.08209 0.00133 0.44600
F 	F 	0.43997 0.06372 0.02596 -0.41100
H 	H 	0.43040 0.17088 0.98415 0.12200
H 	H 	0.34301 0.03336 0.97091 0.12300
F 	F 	0.33282 0.14111 0.93192 -0.41000
C 	C 	0.41786 0.45616 0.49126 -0.08400
C 	C 	0.39089 0.43790 0.46498 -0.10300
C 	C 	0.36756 0.47996 0.45770 0.35100
C 	C 	0.37016 0.53720 0.48175 -0.08000
C 	C 	0.39592 0.55321 0.51300 -0.11200
C 	C 	0.42034 0.51351 0.51548 0.35400
F 	F 	0.44570 0.52902 0.54461 -0.41600
H 	H 	0.43633 0.42488 0.49562 0.11500
H 	H 	0.35151 0.56822 0.47852 0.11500
F 	F 	0.34161 0.46422 0.43075 -0.40900
C 	C 	0.40635 0.94459 0.48995 -0.10500
C 	C 	0.40919 0.93161 0.54969 -0.10100
C 	C 	0.40793 0.97866 0.59052 0.32200
C 	C 	0.40196 0.03728 0.57193 -0.04100
C 	C 	0.39709 0.04920 0.51262 -0.13000
C 	C 	0.40021 0.00296 0.47153 0.39600
F 	F 	0.39693 0.01450 0.41372 -0.41700
H 	H 	0.40744 0.90890 0.45794 0.12900
H 	H 	0.40033 0.07306 0.60375 0.11800
F 	F 	0.41177 0.96735 0.64823 -0.40500
C 	C 	0.33955 0.35763 0.63668 -0.08000
C 	C 	0.34190 0.29659 0.62221 -0.11600
C 	C 	0.34196 0.25343 0.66710 0.35100
C 	C 	0.34164 0.27158 0.72568 -0.08600
C 	C 	0.34124 0.33274 0.73989 -0.10400
C 	C 	0.33917 0.37562 0.69515 0.35200
F 	F 	0.33763 0.43488 0.70834 -0.40300
H 	H 	0.33918 0.39135 0.60266 0.11800
H 	H 	0.34282 0.23816 0.75991 0.11500
F 	F 	0.34271 0.19408 0.65404 -0.41400
C 	C 	0.33944 0.23241 0.19519 -0.07400
C 	C 	0.34184 0.27522 0.23983 -0.10200
C 	C 	0.34278 0.33642 0.22551 0.34900
C 	C 	0.34286 0.35434 0.16687 -0.07700
C 	C 	0.34189 0.31129 0.12208 -0.10800
C 	C 	0.33956 0.25016 0.13666 0.35000
F 	F 	0.33902 0.20771 0.09420 -0.40600
H 	H 	0.33832 0.18512 0.20585 0.12400
H 	H 	0.34440 0.40158 0.15625 0.13100
F 	F 	0.34490 0.37837 0.26823 -0.40600
C 	C 	0.08244 0.64934 0.77225 -0.07700
C 	C 	0.11018 0.67625 0.75965 -0.11600
C 	C 	0.13688 0.64457 0.77001 0.35700
C 	C 	0.13584 0.58635 0.79174 -0.07800
C 	C 	0.10824 0.55961 0.80519 -0.12000
C 	C 	0.08144 0.59118 0.79514 0.35500
F 	F 	0.05458 0.56628 0.80907 -0.40500
H 	H 	0.06171 0.67317 0.76381 0.12300
H 	H 	0.15661 0.56236 0.79961 0.11100
F 	F 	0.16390 0.67064 0.75962 -0.39900
C 	C 	0.10993 0.07374 0.82337 -0.08400
C 	C 	0.11288 0.05869 0.76410 -0.08900
C 	C 	0.11212 0.10440 0.72191 0.34700
C 	C 	0.11163 0.16458 0.73917 -0.07400
C 	C 	0.11188 0.17962 0.79868 -0.10800
C 	C 	0.10954 0.13392 0.84063 0.35400
F 	F 	0.10822 0.14779 0.89824 -0.40000
H 	H 	0.10957 0.03893 0.85630 0.12500
H 	H 	0.11283 0.19944 0.70633 0.12100
F 	F 	0.11311 0.09056 0.66426 -0.40900
C 	C 	0.23572 0.49133 0.85800 -0.07600
C 	C 	0.21828 0.47942 0.90775 -0.11600
C 	C 	0.23193 0.48386 0.96283 0.33500
C 	C 	0.26323 0.48351 0.96701 -0.12100
C 	C 	0.28074 0.47957 0.91614 -0.10200
C 	C 	0.26701 0.49045 0.86192 0.34600
F 	F 	0.28370 0.49403 0.81251 -0.39500
H 	H 	0.22517 0.49416 0.81549 0.11800
H 	H 	0.27376 0.48077 0.00954 0.14900
F 	F 	0.21506 0.48520 0.01204 -0.39700
C 	C 	0.09867 0.55817 0.30673 -0.08400
C 	C 	0.12693 0.53248 0.31740 -0.09800
C 	C 	0.15270 0.56908 0.31555 0.35200
C 	C 	0.15016 0.63024 0.30251 -0.07700
C 	C 	0.12202 0.65571 0.29059 -0.11600
C 	C 	0.09617 0.61941 0.29333 0.35000
F 	F 	0.06879 0.64277 0.28076 -0.41900
H 	H 	0.07866 0.53061 0.30814 0.11100
H 	H 	0.17022 0.65761 0.30044 0.11800
F 	F 	0.18034 0.54502 0.32402 -0.40400
C 	C 	0.07016 0.05028 0.31925 -0.08000
C 	C 	0.07584 0.03786 0.26013 -0.07200
C 	C 	0.07818 0.08616 0.22068 0.34200
C 	C 	0.08079 0.14488 0.24173 -0.06700
C 	C 	0.08013 0.15577 0.30192 -0.12000
C 	C 	0.07268 0.10894 0.34021 0.37300
F 	F 	0.06979 0.11971 0.39823 -0.39500
H 	H 	0.06619 0.01408 0.34979 0.14100
H 	H 	0.08522 0.18123 0.21157 0.11200
F 	F 	0.07965 0.07592 0.16237 -0.38000
C 	C 	0.18360 0.32973 0.58694 -0.08400
C 	C 	0.16786 0.37173 0.55324 -0.10600
C 	C 	0.15449 0.42112 0.58075 0.34700
C 	C 	0.15316 0.42381 0.64164 -0.08100
C 	C 	0.16479 0.37658 0.67550 -0.11600
C 	C 	0.18198 0.33172 0.64788 0.35400
F 	F 	0.19596 0.28863 0.67964 -0.41200
H 	H 	0.19494 0.29258 0.56592 0.13600
H 	H 	0.14155 0.46083 0.66230 0.11300
F 	F 	0.14055 0.46388 0.54848 -0.42100
C 	C 	0.15308 0.26797 0.14645 -0.06800
C 	C 	0.16399 0.31852 0.17648 -0.12200
C 	C 	0.18115 0.36109 0.14588 0.36600
C 	C 	0.18334 0.35753 0.08510 -0.10200
C 	C 	0.16754 0.31311 0.05455 -0.06500
C 	C 	0.15447 0.26571 0.08557 0.34100
F 	F 	0.14068 0.22035 0.05660 -0.38100
H 	H 	0.14153 0.23265 0.16990 0.11600
H 	H 	0.19479 0.39265 0.06144 0.15500
F 	F 	0.19390 0.40806 0.17423 -0.40200
C 	C 	0.22783 0.18394 0.34546 -0.08200
C 	C 	0.21017 0.19532 0.39511 -0.11100
C 	C 	0.22140 0.17919 0.45033 0.34800
C 	C 	0.25143 0.16184 0.45625 -0.08100
C 	C 	0.27060 0.16192 0.40754 -0.11400
C 	C 	0.25803 0.16784 0.35156 0.35000
F 	F 	0.27561 0.16363 0.30337 -0.41500
H 	H 	0.21885 0.19222 0.30228 0.12000
H 	H 	0.26050 0.15386 0.49942 0.12200
F 	F 	0.20396 0.18411 0.49864 -0.41500
C 	C 	0.90987 0.62277 0.84071 -0.07600
C 	C 	0.90979 0.57415 0.80177 -0.11600
C 	C 	0.91420 0.58451 0.74203 0.36100
C 	C 	0.91476 0.64321 0.72081 -0.07200
C 	C 	0.91094 0.69169 0.75915 -0.12200
C 	C 	0.91037 0.68145 0.81947 0.35500
F 	F 	0.90770 0.72811 0.85715 -0.42600
H 	H 	0.90761 0.61508 0.88719 0.10300
H 	H 	0.91618 0.65094 0.67421 0.10800
F 	F 	0.91557 0.53785 0.70409 -0.39800
C 	C 	0.90062 0.16352 0.78921 -0.07700
C 	C 	0.87290 0.19245 0.79684 -0.10000
C 	C 	0.84620 0.16176 0.78373 0.35400
C 	C 	0.84721 0.10264 0.76398 -0.06300
C 	C 	0.87483 0.07346 0.75642 -0.10600
C 	C 	0.90161 0.10406 0.76933 0.36300
F 	F 	0.92853 0.07668 0.76170 -0.40000
H 	H 	0.92133 0.18702 0.79868 0.12400
H 	H 	0.82641 0.07929 0.75480 0.11900
F 	F 	0.81928 0.18980 0.78867 -0.41900
C 	C 	0.98365 0.44026 0.93937 -0.08200
C 	C 	0.96698 0.38774 0.92979 -0.11400
C 	C 	0.98179 0.33209 0.92960 0.34900
C 	C 	0.01316 0.32989 0.93063 -0.08500
C 	C 	0.02992 0.38316 0.93223 -0.10900
C 	C 	0.01499 0.43813 0.94031 0.34800
F 	F 	0.03078 0.49006 0.94390 -0.40900
H 	H 	0.97247 0.48335 0.94144 0.11400
H 	H 	0.02444 0.28703 0.92676 0.12100
F 	F 	0.96587 0.28040 0.92512 -0.41500
C 	C 	0.84906 0.64262 0.30938 -0.07800
C 	C 	0.87753 0.66656 0.29731 -0.11200
C 	C 	0.90293 0.62914 0.30096 0.35400
C 	C 	0.89957 0.56792 0.31346 -0.08000
C 	C 	0.87091 0.54350 0.32274 -0.10100
C 	C 	0.84567 0.58153 0.32165 0.35200
F 	F 	0.81770 0.55886 0.32959 -0.40700
H 	H 	0.82937 0.67103 0.30730 0.12000
H 	H 	0.91920 0.53930 0.31490 0.12600
F 	F 	0.93071 0.65141 0.29013 -0.38800
C 	C 	0.92643 0.06136 0.31509 -0.08200
C 	C 	0.92288 0.04680 0.25583 -0.07900
C 	C 	0.92095 0.09366 0.21473 0.34000
C 	C 	0.91657 0.15272 0.23361 -0.06800
C 	C 	0.91508 0.16540 0.29340 -0.12600
C 	C 	0.92216 0.12036 0.33392 0.37100
F 	F 	0.92306 0.13310 0.39181 -0.41500
H 	H 	0.93002 0.02637 0.34710 0.14400
H 	H 	0.91248 0.18780 0.20189 0.11200
F 	F 	0.92131 0.08145 0.15671 -0.39700
C 	C 	0.98053 0.28802 0.44301 -0.08400
C 	C 	0.96534 0.34124 0.42877 -0.10400
C 	C 	0.98176 0.39493 0.42402 0.34600
C 	C 	0.01316 0.39360 0.42512 -0.08300
C 	C 	0.02840 0.33880 0.43125 -0.10600
C 	C 	0.01185 0.28658 0.44403 0.35000
F 	F 	0.02599 0.23356 0.45347 -0.39400
H 	H 	0.96817 0.24671 0.44938 0.13600
H 	H 	0.02562 0.43474 0.41839 0.11700
F 	F 	0.96736 0.44799 0.41632 -0.41600
C 	C 	0.84297 0.43037 0.57060 -0.07900
C 	C 	0.82888 0.38008 0.54634 -0.11000
C 	C 	0.81316 0.34049 0.58275 0.35500
C 	C 	0.81563 0.34572 0.64328 -0.08100
C 	C 	0.83358 0.39107 0.66771 -0.10200
C 	C 	0.84504 0.43639 0.63116 0.35200
F 	F 	0.85902 0.48504 0.65411 -0.39200
H 	H 	0.85412 0.46258 0.54261 0.11200
H 	H 	0.80515 0.31235 0.67091 0.13200
F 	F 	0.79794 0.29348 0.55949 -0.39900
C 	C 	0.81604 0.39472 0.07985 -0.09000
C 	C 	0.82876 0.34811 0.04711 -0.07400
C 	C 	0.83850 0.29600 0.07547 0.34300
C 	C 	0.83947 0.29415 0.13636 -0.07300
C 	C 	0.83129 0.34491 0.16908 -0.12000
C 	C 	0.81751 0.39358 0.14070 0.35900
F 	F 	0.80779 0.44176 0.17156 -0.40300
H 	H 	0.80767 0.43443 0.05812 0.12300
H 	H 	0.84856 0.25492 0.15793 0.11300
F 	F 	0.84948 0.24927 0.04409 -0.39900
C 	C 	0.59085 0.60334 0.96724 -0.11600
C 	C 	0.59419 0.55623 0.00717 -0.04700
C 	C 	0.59072 0.56728 0.06704 0.34800
C 	C 	0.58676 0.62604 0.08700 -0.07900
C 	C 	0.58657 0.67408 0.04730 -0.07800
C 	C 	0.58702 0.66201 0.98702 0.33200
F 	F 	0.58613 0.70750 0.94771 -0.42100
H 	H 	0.59253 0.59478 0.92081 0.11100
H 	H 	0.58564 0.63460 0.13348 0.12000
F 	F 	0.59303 0.52171 0.10605 -0.39000
C 	C 	0.58909 0.14916 0.99147 -0.11100
C 	C 	0.61693 0.17036 0.97171 -0.10700
C 	C 	0.64172 0.13119 0.97019 0.35600
C 	C 	0.63903 0.07301 0.99189 -0.12300
C 	C 	0.61181 0.05342 0.01575 -0.05900
C 	C 	0.58650 0.09101 0.01362 0.38100
F 	F 	0.55987 0.07245 0.03599 -0.37800
H 	H 	0.56974 0.17858 0.99190 0.12300
H 	H 	0.65848 0.04383 0.99226 0.12100
F 	F 	0.66887 0.15061 0.95113 -0.42600
C 	C 	0.51556 0.44506 0.86308 -0.08000
C 	C 	0.53152 0.39086 0.86519 -0.11100
C 	C 	0.51603 0.33661 0.85736 0.34900
C 	C 	0.48467 0.33609 0.85756 -0.08400
C 	C 	0.46869 0.38970 0.86570 -0.11000
C 	C 	0.48423 0.44464 0.86360 0.34700
F 	F 	0.46917 0.49741 0.86732 -0.42100
H 	H 	0.52734 0.48743 0.86632 0.11500
H 	H 	0.47286 0.29366 0.85576 0.11100
F 	F 	0.53131 0.28407 0.85385 -0.42000
C 	C 	0.73022 0.50319 0.85393 -0.08700
C 	C 	0.71818 0.48799 0.90857 -0.10200
C 	C 	0.73642 0.49345 0.95841 0.31600
C 	C 	0.76744 0.50034 0.95210 -0.06800
C 	C 	0.78016 0.50187 0.89611 -0.12500
C 	C 	0.76118 0.51121 0.84788 0.35800
F 	F 	0.77300 0.52135 0.79419 -0.40800
H 	H 	0.71608 0.50363 0.81550 0.12700
H 	H 	0.78167 0.49898 0.99032 0.10000
F 	F 	0.72446 0.48700 0.01251 -0.37300
C 	C 	0.60617 0.43030 0.56517 -0.08100
C 	C 	0.60499 0.42462 0.50422 -0.11100
C 	C 	0.60416 0.47629 0.46919 0.35400
C 	C 	0.60517 0.53305 0.49509 -0.08100
C 	C 	0.60726 0.53846 0.55594 -0.10400
C 	C 	0.60725 0.48684 0.59093 0.35900
F 	F 	0.60809 0.49153 0.64997 -0.41400
H 	H 	0.60697 0.39073 0.59258 0.11400
H 	H 	0.60477 0.57278 0.46788 0.11500
F 	F 	0.60231 0.47152 0.41026 -0.40700
C 	C 	0.59832 0.02922 0.56276 -0.06000
C 	C 	0.60427 0.03784 0.50325 -0.10200
C 	C 	0.60450 0.98834 0.46536 0.33300
C 	C 	0.60013 0.93056 0.48731 -0.08100
C 	C 	0.59574 0.92155 0.54736 -0.11400
C 	C 	0.59413 0.97135 0.58481 0.33300
F 	F 	0.58909 0.96355 0.64273 -0.40100
H 	H 	0.59740 0.06731 0.59207 0.12300
H 	H 	0.60135 0.89257 0.45795 0.12200
F 	F 	0.60878 0.99625 0.40722 -0.43000
C 	C 	0.51199 0.13684 0.37404 -0.07800
C 	C 	0.52787 0.18990 0.36258 -0.10300
C 	C 	0.51214 0.24060 0.34297 0.35200
C 	C 	0.48075 0.24111 0.34405 -0.08200
C 	C 	0.46491 0.19108 0.36483 -0.10300
C 	C 	0.48056 0.13740 0.37551 0.34900
F 	F 	0.46556 0.08760 0.39315 -0.40300
H 	H 	0.52393 0.09680 0.38740 0.12400
H 	H 	0.46885 0.28205 0.33343 0.11500
F 	F 	0.52726 0.29121 0.32820 -0.41100
C 	C 	0.67461 0.30456 0.64872 -0.07600
C 	C 	0.64871 0.27529 0.62817 -0.11900
C 	C 	0.62502 0.26358 0.66723 0.35100
C 	C 	0.62674 0.28334 0.72512 -0.08200
C 	C 	0.65194 0.31514 0.74482 -0.10300
C 	C 	0.67624 0.32441 0.70676 0.35000
F 	F 	0.70075 0.35525 0.72503 -0.41400
H 	H 	0.69317 0.31329 0.61939 0.11700
H 	H 	0.60788 0.27605 0.75412 0.11800
F 	F 	0.59965 0.23598 0.64844 -0.43100
C 	C 	0.65240 0.34885 0.22688 -0.07700
C 	C 	0.65247 0.28766 0.24112 -0.09700
C 	C 	0.65662 0.24490 0.19672 0.36100
C 	C 	0.65897 0.26305 0.13840 -0.08000
C 	C 	0.65717 0.32408 0.12363 -0.10200
C 	C 	0.65467 0.36710 0.16842 0.35600
F 	F 	0.65398 0.42643 0.15528 -0.38400
H 	H 	0.64965 0.38221 0.26082 0.12500
H 	H 	0.66098 0.22942 0.10450 0.12800
F 	F 	0.65786 0.18562 0.20999 -0.39800
C 	C 	0.74299 0.16425 0.43922 -0.08000
C 	C 	0.72291 0.17001 0.39228 -0.11100
C 	C 	0.73428 0.18413 0.33673 0.34800
C 	C 	0.76425 0.20181 0.33054 -0.08300
C 	C 	0.78291 0.20658 0.37984 -0.10900
C 	C 	0.77283 0.18294 0.43334 0.35300
F 	F 	0.79128 0.18111 0.48040 -0.39200
H 	H 	0.73484 0.15016 0.48160 0.12000
H 	H 	0.77232 0.21594 0.28813 0.11700
F 	F 	0.71578 0.18588 0.28972 -0.39900
