data_crystal

_cell_length_a 22.38660
_cell_length_b 21.62122
_cell_length_c 51.83463
_cell_angle_alpha 89.89121
_cell_angle_beta  89.89287
_cell_angle_gamma 119.78107

_symmetry_space_group_name_	'P 1'
_symmetry_space_group_name_H-M	'P 1'

loop_
_symmetry_equiv_pos_as_xyz
  x,y,z

loop_
_atom_site_label
_atom_site_type_symbol
_atom_site_fract_x
_atom_site_fract_y
_atom_site_fract_z
_atom_site_charge
C 	C 	0.84457 0.49982 0.93214 0.30900
C 	C 	0.56723 0.36191 0.88221 0.31600
C 	C 	0.71621 0.55425 0.92709 0.31700
C 	C 	0.70376 0.30285 0.88044 0.29500
C 	C 	0.55722 0.35291 0.96380 0.32700
C 	C 	0.67360 0.27785 0.96902 0.32000
Ni	Ni	0.71841 0.44393 0.89503 1.11300
Ni	Ni	0.60910 0.29691 0.92324 1.12500
Ni	Ni	0.70716 0.43136 0.95758 1.12400
O 	O 	0.81680 0.51128 0.91105 -0.36400
O 	O 	0.80655 0.45888 0.95162 -0.36100
O 	O 	0.55999 0.29672 0.95592 -0.37300
O 	O 	0.62969 0.39112 0.87245 -0.37900
O 	O 	0.55498 0.33699 0.90580 -0.37800
O 	O 	0.68708 0.34155 0.97803 -0.36000
O 	O 	0.68169 0.50772 0.90924 -0.39300
O 	O 	0.73814 0.53464 0.94737 -0.37500
O 	O 	0.65981 0.26058 0.94437 -0.38300
O 	O 	0.74518 0.37291 0.87936 -0.36400
O 	O 	0.63902 0.27461 0.88871 -0.38000
O 	O 	0.61198 0.41666 0.96235 -0.38700
O 	O 	0.69068 0.38685 0.92470 -0.72000
H 	H 	0.72550 0.37164 0.92478 0.17000
C 	C 	0.79490 0.46193 0.53644 0.30500
C 	C 	0.61272 0.16619 0.56500 0.32500
C 	C 	0.59921 0.35242 0.53677 0.32500
C 	C 	0.79610 0.26058 0.57494 0.29600
C 	C 	0.58562 0.31314 0.61648 0.31800
C 	C 	0.78075 0.42925 0.62513 0.29600
Ni	Ni	0.70383 0.30437 0.54279 1.13100
Ni	Ni	0.69268 0.27816 0.60452 1.12000
Ni	Ni	0.69229 0.41484 0.58114 1.12400
O 	O 	0.79077 0.39909 0.53368 -0.35200
O 	O 	0.74596 0.46906 0.54857 -0.35800
O 	O 	0.59747 0.26126 0.61056 -0.39000
O 	O 	0.61127 0.21770 0.55283 -0.36200
O 	O 	0.64904 0.18050 0.58635 -0.37900
O 	O 	0.77471 0.46105 0.60412 -0.38600
O 	O 	0.64799 0.34650 0.52479 -0.33100
O 	O 	0.60279 0.36319 0.56168 -0.38400
O 	O 	0.73656 0.36056 0.63041 -0.38300
O 	O 	0.76028 0.25276 0.55328 -0.34100
O 	O 	0.78326 0.28378 0.59679 -0.38900
O 	O 	0.63345 0.38011 0.61323 -0.38900
O 	O 	0.71376 0.34133 0.57592 -0.71900
H 	H 	0.76432 0.36900 0.57713 0.16500
C 	C 	0.94863 0.06126 0.70191 0.28000
C 	C 	0.95499 0.90712 0.79544 0.30200
C 	C 	0.91585 0.07597 0.77379 0.31400
C 	C 	0.97825 0.86861 0.72466 0.28400
C 	C 	0.12925 0.12298 0.79048 0.31400
C 	C 	0.15520 0.09340 0.71996 0.29200
Ni	Ni	0.91853 0.95524 0.74667 1.11000
Ni	Ni	0.07347 0.98883 0.76031 1.12100
Ni	Ni	0.04749 0.11659 0.74586 1.12000
O 	O 	0.90170 0.01511 0.71841 -0.37400
O 	O 	0.01201 0.10840 0.70943 -0.38300
O 	O 	0.14343 0.07796 0.77864 -0.38700
O 	O 	0.91679 0.88519 0.77459 -0.37700
O 	O 	0.02004 0.95723 0.79404 -0.37900
O 	O 	0.14208 0.13850 0.73295 -0.39000
O 	O 	0.90139 0.00953 0.77602 -0.39000
O 	O 	0.96080 0.11846 0.75653 -0.39400
O 	O 	0.13310 0.02736 0.72860 -0.38600
O 	O 	0.93336 0.89098 0.72060 -0.38000
O 	O 	0.01761 0.88797 0.74567 -0.37000
O 	O 	0.07753 0.13103 0.78289 -0.39600
O 	O 	0.01332 0.01710 0.74526 -0.71700
H 	H 	0.02066 0.01121 0.72689 0.15100
C 	C 	0.23550 0.73862 0.42306 0.29300
C 	C 	0.30319 0.51893 0.45887 0.33200
C 	C 	0.40289 0.75563 0.44657 0.33300
C 	C 	0.13115 0.50749 0.43918 0.30800
C 	C 	0.39244 0.61298 0.38412 0.31800
C 	C 	0.22740 0.58139 0.35934 0.30500
Ni	Ni	0.26479 0.63397 0.45382 1.11800
Ni	Ni	0.25298 0.52824 0.40739 1.12300
Ni	Ni	0.32740 0.69578 0.39699 1.12100
O 	O 	0.25676 0.72553 0.44547 -0.36100
O 	O 	0.26066 0.73249 0.40052 -0.37800
O 	O 	0.33138 0.55541 0.38190 -0.38700
O 	O 	0.26834 0.54653 0.46947 -0.35400
O 	O 	0.31726 0.52648 0.43422 -0.38200
O 	O 	0.28477 0.64449 0.36270 -0.38200
O 	O 	0.37053 0.69090 0.45550 -0.37200
O 	O 	0.38341 0.77028 0.42451 -0.37800
O 	O 	0.19818 0.53534 0.37845 -0.38000
O 	O 	0.15996 0.56649 0.45308 -0.35400
O 	O 	0.16751 0.47766 0.43092 -0.35600
O 	O 	0.39976 0.66765 0.39737 -0.39000
O 	O 	0.26608 0.61795 0.41828 -0.71700
H 	H 	0.22194 0.61361 0.41300 0.16800
C 	C 	0.51544 0.69371 0.08605 0.30400
C 	C 	0.27848 0.67536 0.02496 0.33400
C 	C 	0.47299 0.83121 0.06643 0.33200
C 	C 	0.31116 0.52805 0.04029 0.31200
C 	C 	0.27974 0.72630 0.10967 0.32000
C 	C 	0.29882 0.56654 0.12444 0.29900
Ni	Ni	0.41061 0.68546 0.04433 1.11700
Ni	Ni	0.26470 0.60946 0.07518 1.12300
Ni	Ni	0.40225 0.71430 0.10510 1.12000
O 	O 	0.50469 0.70757 0.06182 -0.36700
O 	O 	0.46900 0.67735 0.10460 -0.38600
O 	O 	0.24037 0.65923 0.10295 -0.38500
O 	O 	0.33209 0.66911 0.01856 -0.35400
O 	O 	0.26535 0.67957 0.04928 -0.37600
O 	O 	0.33660 0.63590 0.12986 -0.39200
O 	O 	0.43238 0.78979 0.04829 -0.36100
O 	O 	0.47965 0.80387 0.08819 -0.38100
O 	O 	0.26328 0.54361 0.10268 -0.36900
O 	O 	0.37697 0.57835 0.03856 -0.35700
O 	O 	0.26207 0.54365 0.04606 -0.36600
O 	O 	0.34470 0.76097 0.10315 -0.38000
O 	O 	0.36251 0.65649 0.07574 -0.71800
H 	H 	0.36932 0.61608 0.08013 0.16700
C 	C 	0.00791 0.13215 0.28380 0.30800
C 	C 	0.07267 0.92717 0.23172 0.31900
C 	C 	0.04643 0.11314 0.22163 0.32900
C 	C 	0.04578 0.92811 0.30463 0.29800
C 	C 	0.86799 0.88928 0.21521 0.32000
C 	C 	0.82547 0.87927 0.28481 0.29900
Ni	Ni	0.07235 0.04050 0.26498 1.11100
Ni	Ni	0.94376 0.88021 0.26041 1.11600
Ni	Ni	0.91776 0.00998 0.25080 1.11600
O 	O 	0.06431 0.12667 0.28021 -0.37700
O 	O 	0.94479 0.07671 0.28137 -0.39300
O 	O 	0.86590 0.85072 0.23513 -0.40500
O 	O 	0.10485 0.97216 0.25049 -0.38100
O 	O 	0.00561 0.89589 0.22973 -0.38800
O 	O 	0.83110 0.93081 0.26874 -0.38300
O 	O 	0.07278 0.07310 0.22756 -0.39800
O 	O 	0.98624 0.09935 0.23089 -0.40200
O 	O 	0.87592 0.86474 0.28825 -0.39600
O 	O 	0.07345 0.99778 0.30083 -0.37000
O 	O 	0.01514 0.88196 0.28553 -0.38200
O 	O 	0.89830 0.95887 0.21688 -0.39600
O 	O 	0.97695 0.97923 0.26483 -0.72100
H 	H 	0.96766 0.98090 0.28335 0.16200
C 	C 	0.19806 0.44014 0.17792 -0.08900
C 	C 	0.21604 0.38730 0.17408 0.00200
C 	C 	0.27147 0.40077 0.15755 0.03700
C 	C 	0.30423 0.46471 0.14344 -0.01200
C 	C 	0.28165 0.51447 0.14537 -0.09900
C 	C 	0.23096 0.50412 0.16384 0.10200
C 	C 	0.17381 0.31646 0.18620 0.00900
C 	C 	0.29262 0.34523 0.15354 -0.17800
H 	H 	0.34447 0.47376 0.12974 0.05100
C 	C 	0.20911 0.55926 0.16751 -0.20600
H 	H 	0.15688 0.43042 0.19125 0.05100
C 	C 	0.18740 0.30316 0.21157 0.01900
C 	C 	0.14530 0.23609 0.22282 -0.01000
C 	C 	0.09047 0.18210 0.20898 -0.12600
C 	C 	0.07735 0.19504 0.18351 0.10600
C 	C 	0.11892 0.26248 0.17235 -0.09700
C 	C 	0.24560 0.36076 0.22689 -0.17000
H 	H 	0.15473 0.22605 0.24248 0.03000
C 	C 	0.01900 0.13741 0.16826 -0.20100
H 	H 	0.10869 0.27304 0.15287 0.06300
H 	H 	0.17319 0.54591 0.18409 0.06800
H 	H 	0.18275 0.56276 0.14990 0.08700
H 	H 	0.25475 0.61211 0.17140 0.07900
H 	H 	0.25240 0.30000 0.14236 0.08000
H 	H 	0.29966 0.32530 0.17240 0.06600
H 	H 	0.34206 0.36727 0.14281 0.07400
H 	H 	0.25362 0.33991 0.24539 0.05700
H 	H 	0.23398 0.40394 0.23129 0.06100
H 	H 	0.29443 0.38325 0.21577 0.06100
H 	H 	0.01879 0.15420 0.14800 0.07600
H 	H 	0.96909 0.12439 0.17731 0.07400
H 	H 	0.02390 0.08875 0.16780 0.08000
C 	C 	0.69873 0.79583 0.10714 -0.09300
C 	C 	0.69616 0.75113 0.12721 0.00400
C 	C 	0.64326 0.67918 0.12752 0.02900
C 	C 	0.58741 0.65679 0.11056 -0.01200
C 	C 	0.58414 0.70550 0.09347 -0.10100
C 	C 	0.64367 0.77300 0.08980 0.10800
C 	C 	0.74000 0.78326 0.15019 0.00500
C 	C 	0.64270 0.62809 0.14746 -0.17400
H 	H 	0.54365 0.60341 0.11233 0.04800
C 	C 	0.64677 0.82303 0.06892 -0.21400
H 	H 	0.74139 0.85003 0.10608 0.05600
C 	C 	0.80899 0.79812 0.15067 0.02400
C 	C 	0.85055 0.83347 0.17204 -0.01200
C 	C 	0.82391 0.85360 0.19286 -0.11500
C 	C 	0.75478 0.83821 0.19244 0.10200
C 	C 	0.71332 0.80288 0.17113 -0.09400
C 	C 	0.83881 0.77794 0.12826 -0.17400
H 	H 	0.90367 0.84541 0.17247 0.03600
C 	C 	0.72524 0.85986 0.21456 -0.20600
H 	H 	0.66036 0.79141 0.17064 0.05300
H 	H 	0.70017 0.86747 0.06592 0.08100
H 	H 	0.61426 0.84621 0.07451 0.09300
H 	H 	0.62916 0.79460 0.05026 0.09400
H 	H 	0.62345 0.63669 0.16610 0.06500
H 	H 	0.69529 0.63619 0.15021 0.06500
H 	H 	0.60898 0.57191 0.14143 0.06700
H 	H 	0.89086 0.78638 0.13273 0.06300
H 	H 	0.84306 0.81090 0.11116 0.06900
H 	H 	0.80530 0.72076 0.12349 0.06700
H 	H 	0.67091 0.84538 0.21100 0.06800
H 	H 	0.75553 0.91845 0.21734 0.07300
H 	H 	0.72661 0.83270 0.23255 0.08000
C 	C 	0.26060 0.82688 0.16601 -0.09100
C 	C 	0.19694 0.82120 0.16050 0.00400
C 	C 	0.16116 0.78609 0.13789 0.03200
C 	C 	0.18943 0.75607 0.12129 -0.00900
C 	C 	0.25233 0.75995 0.12717 -0.10500
C 	C 	0.28759 0.79442 0.15008 0.11000
C 	C 	0.16648 0.84899 0.17926 0.00900
C 	C 	0.09277 0.78015 0.13154 -0.17700
H 	H 	0.16241 0.72949 0.10381 0.05000
C 	C 	0.35283 0.79527 0.15804 -0.21300
H 	H 	0.28795 0.85441 0.18332 0.05500
C 	C 	0.12998 0.80805 0.20099 0.02000
C 	C 	0.10283 0.83627 0.21882 -0.00700
C 	C 	0.11053 0.90399 0.21496 -0.11900
C 	C 	0.14818 0.94553 0.19351 0.11300
C 	C 	0.17615 0.91768 0.17584 -0.09800
C 	C 	0.12005 0.73445 0.20523 -0.17000
H 	H 	0.07421 0.80485 0.23542 0.02900
C 	C 	0.15651 0.01832 0.18892 -0.21700
H 	H 	0.20484 0.94910 0.15925 0.06100
H 	H 	0.36728 0.81408 0.17821 0.07100
H 	H 	0.39604 0.83166 0.14531 0.08800
H 	H 	0.34584 0.74087 0.15714 0.06600
H 	H 	0.09911 0.83415 0.12922 0.07400
H 	H 	0.05522 0.75153 0.14727 0.06800
H 	H 	0.07102 0.75041 0.11333 0.07400
H 	H 	0.08619 0.70747 0.22209 0.05900
H 	H 	0.17057 0.73805 0.20880 0.06200
H 	H 	0.09584 0.70077 0.18801 0.06400
H 	H 	0.17952 0.05236 0.20616 0.08100
H 	H 	0.10554 0.01326 0.18493 0.08700
H 	H 	0.19080 0.04567 0.17221 0.07500
C 	C 	0.66425 0.71375 0.30773 -0.09200
C 	C 	0.63631 0.74333 0.32452 0.00200
C 	C 	0.66943 0.81803 0.32777 0.03000
C 	C 	0.73037 0.86204 0.31407 -0.01700
C 	C 	0.75851 0.83241 0.29729 -0.10500
C 	C 	0.72411 0.75761 0.29356 0.09900
C 	C 	0.57072 0.69577 0.33791 0.00800
C 	C 	0.64032 0.85080 0.34597 -0.17700
H 	H 	0.75653 0.91929 0.31680 0.04100
C 	C 	0.74949 0.72442 0.27394 -0.20600
H 	H 	0.63830 0.65642 0.30522 0.05200
C 	C 	0.50709 0.67788 0.32638 0.02200
C 	C 	0.44649 0.64246 0.34105 -0.01300
C 	C 	0.44859 0.62345 0.36677 -0.11700
C 	C 	0.51100 0.63316 0.37708 0.11500
C 	C 	0.57201 0.67048 0.36270 -0.09700
C 	C 	0.50410 0.70041 0.29908 -0.17100
H 	H 	0.39875 0.63550 0.33320 0.03700
C 	C 	0.51373 0.60925 0.40418 -0.22200
H 	H 	0.62076 0.68211 0.37115 0.06100
H 	H 	0.71316 0.66641 0.27180 0.06700
H 	H 	0.79987 0.73100 0.27993 0.07000
H 	H 	0.75429 0.74924 0.25477 0.07900
H 	H 	0.63833 0.83075 0.36587 0.07600
H 	H 	0.58757 0.83683 0.33987 0.06700
H 	H 	0.67219 0.90984 0.34631 0.06900
H 	H 	0.45020 0.67733 0.29225 0.06000
H 	H 	0.53101 0.68191 0.28584 0.06300
H 	H 	0.52901 0.75937 0.29796 0.06300
H 	H 	0.55993 0.60353 0.40701 0.08800
H 	H 	0.46771 0.55663 0.40828 0.09400
H 	H 	0.51551 0.64897 0.41816 0.10900
C 	C 	0.09716 0.46835 0.31379 -0.09300
C 	C 	0.12534 0.42487 0.30782 0.00500
C 	C 	0.19751 0.45445 0.30854 0.02600
C 	C 	0.23753 0.51908 0.32155 -0.01800
C 	C 	0.20583 0.55416 0.33307 -0.10800
C 	C 	0.13863 0.53517 0.32525 0.11300
C 	C 	0.07937 0.34710 0.30436 0.00600
C 	C 	0.23126 0.41500 0.29745 -0.17400
H 	H 	0.29097 0.53656 0.32563 0.04100
C 	C 	0.11363 0.58803 0.32684 -0.21100
H 	H 	0.04305 0.44945 0.31037 0.05900
C 	C 	0.07429 0.29823 0.32360 0.03100
C 	C 	0.04577 0.22580 0.31733 -0.01200
C 	C 	0.01674 0.20093 0.29294 -0.10800
C 	C 	0.01000 0.24809 0.27572 0.11200
C 	C 	0.04455 0.32144 0.28100 -0.09700
C 	C 	0.10156 0.32325 0.35042 -0.18000
H 	H 	0.04840 0.18935 0.33107 0.04200
C 	C 	0.96793 0.22159 0.25148 -0.22700
H 	H 	0.04528 0.35856 0.26673 0.05300
H 	H 	0.05774 0.56057 0.33138 0.08900
H 	H 	0.12221 0.61560 0.30797 0.07100
H 	H 	0.14136 0.62879 0.34191 0.09200
H 	H 	0.20217 0.38268 0.28055 0.06400
H 	H 	0.23370 0.37937 0.31233 0.06500
H 	H 	0.28438 0.45301 0.29082 0.06000
H 	H 	0.07726 0.27874 0.36455 0.07500
H 	H 	0.09009 0.36526 0.35683 0.08200
H 	H 	0.15803 0.34479 0.35074 0.06800
H 	H 	0.94354 0.25426 0.24697 0.07100
H 	H 	0.92563 0.16574 0.25356 0.07600
H 	H 	0.00182 0.22635 0.23508 0.09300
C 	C 	0.19007 0.87574 0.40526 -0.09200
C 	C 	0.12427 0.83041 0.39538 0.00700
C 	C 	0.08790 0.75869 0.40373 0.03100
C 	C 	0.12257 0.73086 0.41801 -0.01200
C 	C 	0.19305 0.77315 0.42308 -0.09700
C 	C 	0.22471 0.84753 0.41929 0.10900
C 	C 	0.10132 0.85354 0.37233 0.00400
C 	C 	0.01508 0.70983 0.39505 -0.15300
H 	H 	0.09649 0.67472 0.42292 0.05600
C 	C 	0.29556 0.89651 0.42971 -0.21500
H 	H 	0.21626 0.93192 0.40033 0.05800
C 	C 	0.06686 0.89307 0.37470 0.03200
C 	C 	0.04923 0.91739 0.35234 -0.01600
C 	C 	0.06639 0.90349 0.32780 -0.10200
C 	C 	0.10345 0.86638 0.32558 0.10200
C 	C 	0.11841 0.83969 0.34783 -0.09200
C 	C 	0.05030 0.91078 0.40093 -0.17900
H 	H 	0.02204 0.94702 0.35403 0.04400
C 	C 	0.12760 0.85536 0.29965 -0.20500
H 	H 	0.14516 0.80959 0.34614 0.05500
H 	H 	0.31345 0.95312 0.42482 0.08400
H 	H 	0.33328 0.88260 0.42158 0.09100
H 	H 	0.29445 0.89180 0.45105 0.09900
H 	H 	0.01553 0.68942 0.37546 0.07200
H 	H 	0.98529 0.73831 0.39464 0.05900
H 	H 	0.98814 0.66390 0.40845 0.06400
H 	H 	0.01876 0.93729 0.39950 0.07300
H 	H 	0.09874 0.94723 0.41115 0.07500
H 	H 	0.02080 0.86140 0.41252 0.07400
H 	H 	0.15035 0.90520 0.28805 0.08800
H 	H 	0.08370 0.81213 0.28906 0.08000
H 	H 	0.16796 0.84009 0.30179 0.06900
C 	C 	0.59274 0.09931 0.55090 -0.11000
C 	C 	0.61097 0.10049 0.52456 0.15300
C 	C 	0.58698 0.03680 0.51114 -0.09100
C 	C 	0.54107 0.97196 0.52274 0.02300
C 	C 	0.52581 0.96981 0.54922 0.08400
C 	C 	0.55230 0.03345 0.56326 -0.01200
H 	H 	0.60002 0.03816 0.49091 0.08400
C 	C 	0.50074 0.90987 0.50603 0.02500
H 	H 	0.53929 0.03178 0.58350 0.05900
C 	C 	0.52955 0.86844 0.49790 -0.08600
C 	C 	0.49994 0.82015 0.47752 0.14900
C 	C 	0.44127 0.81353 0.46498 -0.10900
C 	C 	0.41191 0.85393 0.47350 -0.01400
C 	C 	0.44092 0.90150 0.49396 0.08200
H 	H 	0.57616 0.87536 0.50688 0.08200
H 	H 	0.36493 0.84638 0.46484 0.06000
Br	Br	0.46723 0.88085 0.56622 -0.21700
Br	Br	0.66642 0.18770 0.50583 -0.29200
Br	Br	0.54121 0.76499 0.46666 -0.23100
Br	Br	0.39891 0.95599 0.50481 -0.21600
C 	C 	0.05598 0.46841 0.43770 -0.09700
C 	C 	0.02457 0.50136 0.42438 0.15400
C 	C 	0.97533 0.51226 0.43702 -0.10000
C 	C 	0.95191 0.48245 0.46149 0.02700
C 	C 	0.96716 0.43010 0.47043 0.07900
C 	C 	0.01973 0.42327 0.45838 0.00300
H 	H 	0.95878 0.54715 0.42862 0.06900
C 	C 	0.92259 0.51430 0.47912 0.01800
H 	H 	0.03832 0.39055 0.46720 0.07300
C 	C 	0.85874 0.50872 0.47364 -0.08300
C 	C 	0.82116 0.51681 0.49367 0.14700
C 	C 	0.84264 0.51868 0.51922 -0.09000
C 	C 	0.91303 0.54493 0.52335 -0.01500
C 	C 	0.95355 0.54241 0.50319 0.08400
H 	H 	0.83726 0.49511 0.45441 0.07800
H 	H 	0.93345 0.55672 0.54277 0.05600
Br	Br	0.91873 0.37002 0.49927 -0.20900
Br	Br	0.05683 0.54206 0.39103 -0.27500
Br	Br	0.73773 0.51741 0.48646 -0.20200
Br	Br	0.04951 0.57582 0.50881 -0.20800
C 	C 	0.33167 0.48392 0.47495 -0.09800
C 	C 	0.30488 0.40981 0.47304 0.14700
C 	C 	0.34333 0.37913 0.48191 -0.08300
C 	C 	0.40808 0.42169 0.49310 0.02300
C 	C 	0.43325 0.49524 0.49631 0.08500
C 	C 	0.39485 0.52590 0.48733 -0.00900
H 	H 	0.32296 0.32223 0.48002 0.08300
C 	C 	0.44806 0.38851 0.50237 0.02100
H 	H 	0.41583 0.58301 0.48879 0.07500
C 	C 	0.49875 0.38804 0.48650 -0.07900
C 	C 	0.54250 0.36440 0.49621 0.15100
C 	C 	0.53880 0.34649 0.52263 -0.08800
C 	C 	0.48162 0.33711 0.53712 -0.01400
C 	C 	0.43717 0.35918 0.52730 0.08600
H 	H 	0.50366 0.40524 0.46658 0.08100
H 	H 	0.47439 0.31711 0.55672 0.06600
Br	Br	0.52071 0.55490 0.51231 -0.20000
Br	Br	0.21629 0.34992 0.45790 -0.23900
Br	Br	0.59434 0.34207 0.47217 -0.19400
Br	Br	0.36398 0.35217 0.54874 -0.22300
C 	C 	0.94855 0.10277 0.63103 -0.08700
C 	C 	0.90340 0.13003 0.63115 0.00200
C 	C 	0.86514 0.12410 0.65366 0.02800
C 	C 	0.87632 0.09542 0.67624 -0.01900
C 	C 	0.92536 0.07307 0.67671 -0.09700
C 	C 	0.95966 0.07385 0.65360 0.08200
C 	C 	0.89609 0.16474 0.60762 0.00400
C 	C 	0.81394 0.15027 0.65389 -0.17500
H 	H 	0.84900 0.09338 0.69379 0.03900
C 	C 	0.00271 0.03805 0.65195 -0.18200
H 	H 	0.97538 0.10431 0.61339 0.05300
C 	C 	0.93291 0.23965 0.60503 0.03700
C 	C 	0.90663 0.27298 0.58901 -0.01500
C 	C 	0.84382 0.23202 0.57619 -0.09500
C 	C 	0.81806 0.15784 0.57378 0.11000
C 	C 	0.84318 0.12428 0.59020 -0.09300
C 	C 	0.99545 0.28427 0.62132 -0.19900
H 	H 	0.93015 0.33056 0.58915 0.04500
C 	C 	0.75969 0.11337 0.55583 -0.21900
H 	H 	0.81809 0.06659 0.59083 0.05900
H 	H 	0.05095 0.07252 0.64111 0.06700
H 	H 	0.97342 0.98694 0.64145 0.06100
H 	H 	0.01744 0.02682 0.67105 0.06700
H 	H 	0.77498 0.12338 0.63853 0.06900
H 	H 	0.84092 0.20875 0.65062 0.06500
H 	H 	0.78615 0.13899 0.67261 0.06100
H 	H 	0.02625 0.33902 0.61333 0.08100
H 	H 	0.02925 0.26024 0.62190 0.08200
H 	H 	0.97924 0.28787 0.64125 0.06800
H 	H 	0.75972 0.06363 0.55051 0.08400
H 	H 	0.76441 0.14265 0.53764 0.11000
H 	H 	0.71033 0.09864 0.56558 0.09500
C 	C 	0.45180 0.28311 0.66663 -0.09200
C 	C 	0.39207 0.23360 0.65378 0.00400
C 	C 	0.39495 0.22003 0.62733 0.03400
C 	C 	0.45886 0.25106 0.61477 -0.00800
C 	C 	0.51946 0.29572 0.62823 -0.10900
C 	C 	0.51582 0.31407 0.65411 0.10400
C 	C 	0.32780 0.19263 0.66861 0.00500
C 	C 	0.33051 0.17007 0.61278 -0.17800
H 	H 	0.46187 0.23787 0.59481 0.05100
C 	C 	0.58011 0.36397 0.66874 -0.20700
H 	H 	0.44877 0.29502 0.68674 0.05200
C 	C 	0.31567 0.13192 0.68297 0.02600
C 	C 	0.25749 0.09819 0.69896 -0.01500
C 	C 	0.21005 0.12276 0.70007 -0.10500
C 	C 	0.21920 0.17945 0.68366 0.10000
C 	C 	0.27951 0.21570 0.66894 -0.09400
C 	C 	0.36610 0.10482 0.68214 -0.17500
H 	H 	0.25027 0.05416 0.71113 0.04400
C 	C 	0.16481 0.20080 0.68133 -0.20900
H 	H 	0.28859 0.26160 0.65747 0.05800
H 	H 	0.61537 0.34173 0.66958 0.07700
H 	H 	0.56838 0.37214 0.68886 0.06700
H 	H 	0.60646 0.41684 0.65907 0.08500
H 	H 	0.29232 0.18847 0.61426 0.07700
H 	H 	0.30794 0.11545 0.62093 0.07200
H 	H 	0.34115 0.16770 0.59197 0.08000
H 	H 	0.34527 0.05232 0.69193 0.06500
H 	H 	0.41455 0.14326 0.69193 0.06600
H 	H 	0.37762 0.09798 0.66184 0.07000
H 	H 	0.16677 0.23324 0.69821 0.07600
H 	H 	0.11341 0.15281 0.67986 0.08200
H 	H 	0.17225 0.23289 0.66361 0.07300
C 	C 	0.92811 0.72894 0.67247 -0.09400
C 	C 	0.92826 0.67343 0.68644 0.00500
C 	C 	0.95648 0.68639 0.71147 0.02400
C 	C 	0.97421 0.75120 0.72363 -0.01700
C 	C 	0.96921 0.80523 0.71031 -0.10300
C 	C 	0.95136 0.79589 0.68387 0.10200
C 	C 	0.89400 0.60074 0.67543 0.00400
C 	C 	0.96558 0.63055 0.72556 -0.17300
H 	H 	0.99028 0.75885 0.74363 0.04300
C 	C 	0.95768 0.85681 0.66768 -0.21700
H 	H 	0.90917 0.71976 0.65281 0.05700
C 	C 	0.82379 0.55264 0.68064 0.02600
C 	C 	0.78922 0.48938 0.66642 -0.01400
C 	C 	0.82268 0.47560 0.64625 -0.10500
C 	C 	0.89444 0.51940 0.64308 0.10100
C 	C 	0.92957 0.58230 0.65754 -0.09300
C 	C 	0.78400 0.57170 0.69947 -0.17300
H 	H 	0.73457 0.45422 0.66940 0.03800
C 	C 	0.93269 0.50223 0.62296 -0.20800
H 	H 	0.98388 0.61840 0.65407 0.05400
H 	H 	0.96105 0.84714 0.64682 0.07300
H 	H 	0.00525 0.90688 0.67277 0.08300
H 	H 	0.91208 0.86341 0.67075 0.08300
H 	H 	0.99014 0.60852 0.71269 0.06500
H 	H 	0.91485 0.58667 0.73208 0.06200
H 	H 	0.99913 0.65322 0.74272 0.06200
H 	H 	0.73113 0.52642 0.70268 0.06000
H 	H 	0.77984 0.61747 0.69188 0.06800
H 	H 	0.81016 0.58613 0.71845 0.06400
H 	H 	0.92626 0.52103 0.60377 0.08400
H 	H 	0.91282 0.44386 0.62218 0.07700
H 	H 	0.98849 0.52841 0.62747 0.07400
C 	C 	0.22319 0.65606 0.00601 -0.10200
C 	C 	0.23171 0.70066 0.98483 0.15000
C 	C 	0.17680 0.68245 0.96781 -0.08300
C 	C 	0.11337 0.62020 0.97188 0.02700
C 	C 	0.10594 0.57444 0.99252 0.08000
C 	C 	0.16057 0.59265 0.00947 -0.00500
H 	H 	0.18277 0.71775 0.95193 0.08300
C 	C 	0.05296 0.60668 0.95627 0.01300
H 	H 	0.15405 0.55781 0.02558 0.05300
C 	C 	0.03334 0.55926 0.93541 -0.06700
C 	C 	0.96639 0.52857 0.92552 0.13400
C 	C 	0.91878 0.54546 0.93656 -0.08600
C 	C 	0.94089 0.59856 0.95549 -0.02900
C 	C 	0.00791 0.62987 0.96510 0.09800
H 	H 	0.06859 0.54282 0.92801 0.07900
H 	H 	0.90465 0.61217 0.96395 0.06100
Br	Br	0.02059 0.48777 0.99835 -0.19300
Br	Br	0.31654 0.78810 0.97955 -0.20300
Br	Br	0.93984 0.46092 0.89797 -0.25400
Br	Br	0.03529 0.70009 0.99182 -0.21800
C 	C 	0.52297 0.90544 0.05987 -0.10500
C 	C 	0.51873 0.96223 0.07123 0.15600
C 	C 	0.55625 0.03082 0.06066 -0.08700
C 	C 	0.59678 0.04268 0.03852 0.01900
C 	C 	0.60682 0.98758 0.02904 0.08700
C 	C 	0.56937 0.91917 0.03953 -0.00900
H 	H 	0.54976 0.07361 0.06843 0.08100
C 	C 	0.61499 0.10574 0.02230 0.02300
H 	H 	0.57386 0.87586 0.03106 0.05200
C 	C 	0.68126 0.16548 0.02367 -0.08100
C 	C 	0.70136 0.22229 0.00630 0.14500
C 	C 	0.65448 0.21960 0.98763 -0.09300
C 	C 	0.58772 0.16076 0.98685 -0.00900
C 	C 	0.56789 0.10399 0.00397 0.08300
H 	H 	0.71770 0.16686 0.03771 0.08100
H 	H 	0.55114 0.15906 0.97279 0.06500
Br	Br	0.66724 0.00354 0.00036 -0.22400
Br	Br	0.45782 0.94624 0.09972 -0.23800
Br	Br	0.79385 0.30096 0.00751 -0.21000
Br	Br	0.47663 0.02332 0.00152 -0.19200
C 	C 	0.49662 0.34373 0.97830 -0.10200
C 	C 	0.42883 0.29721 0.96967 0.14900
C 	C 	0.37339 0.29947 0.98126 -0.08300
C 	C 	0.38517 0.35045 0.00020 0.02200
C 	C 	0.45212 0.39290 0.01008 0.08000
C 	C 	0.50685 0.38778 0.99959 -0.00900
H 	H 	0.32170 0.26542 0.97411 0.08500
C 	C 	0.33085 0.36783 0.00635 0.01800
H 	H 	0.55829 0.42126 0.00707 0.06200
C 	C 	0.30335 0.35509 0.03142 -0.07800
C 	C 	0.28461 0.40219 0.04237 0.14700
C 	C 	0.29111 0.46001 0.02770 -0.08800
C 	C 	0.30052 0.46014 0.00097 -0.01100
C 	C 	0.32173 0.41500 0.99022 0.08800
H 	H 	0.30495 0.31474 0.04336 0.08000
H 	H 	0.30005 0.50131 0.98915 0.06900
Br	Br	0.47115 0.46302 0.03633 -0.22600
Br	Br	0.41066 0.23415 0.94097 -0.24900
Br	Br	0.25729 0.39132 0.07790 -0.24500
Br	Br	0.34739 0.42566 0.95443 -0.23900
C 	C 	0.71299 0.17160 0.83431 -0.09000
C 	C 	0.78042 0.18590 0.83871 0.00000
C 	C 	0.82067 0.23508 0.85796 0.03900
C 	C 	0.79199 0.26769 0.87298 -0.01700
C 	C 	0.72613 0.25692 0.86757 -0.09600
C 	C 	0.68630 0.20873 0.84785 0.10100
C 	C 	0.81051 0.15409 0.82147 0.00600
C 	C 	0.89545 0.25651 0.86135 -0.18100
H 	H 	0.82209 0.30398 0.88824 0.06300
C 	C 	0.61650 0.19807 0.84064 -0.20400
H 	H 	0.68233 0.13369 0.81952 0.05200
C 	C 	0.81494 0.09391 0.82921 0.02500
C 	C 	0.85025 0.06968 0.81356 -0.01500
C 	C 	0.87628 0.10110 0.78933 -0.11300
C 	C 	0.86309 0.15515 0.78020 0.10200
C 	C 	0.83407 0.18389 0.79699 -0.09600
C 	C 	0.78134 0.05487 0.85390 -0.17600
H 	H 	0.85668 0.02573 0.82009 0.04100
C 	C 	0.87638 0.17999 0.75248 -0.20400
H 	H 	0.82822 0.22851 0.79075 0.05300
H 	H 	0.59679 0.16643 0.82266 0.06800
H 	H 	0.61950 0.25025 0.83715 0.08300
H 	H 	0.57893 0.16899 0.85630 0.08500
H 	H 	0.92432 0.28138 0.84330 0.07400
H 	H 	0.90056 0.20930 0.86605 0.07100
H 	H 	0.91975 0.29566 0.87721 0.08400
H 	H 	0.78310 0.00459 0.85575 0.06600
H 	H 	0.72642 0.04082 0.85427 0.07200
H 	H 	0.80798 0.08877 0.87079 0.07000
H 	H 	0.84677 0.20678 0.74707 0.06600
H 	H 	0.85986 0.13407 0.73924 0.08300
H 	H 	0.93189 0.21868 0.74961 0.07800
C 	C 	0.39578 0.34202 0.86420 -0.09700
C 	C 	0.37867 0.29601 0.84308 0.01000
C 	C 	0.42936 0.28378 0.83174 0.02300
C 	C 	0.49419 0.31170 0.84346 -0.01000
C 	C 	0.50904 0.35213 0.86607 -0.11500
C 	C 	0.46114 0.37139 0.87551 0.11900
C 	C 	0.30653 0.25740 0.83389 0.00400
C 	C 	0.41330 0.23793 0.80803 -0.17200
H 	H 	0.53158 0.29845 0.83584 0.03700
C 	C 	0.47776 0.41974 0.89854 -0.22100
H 	H 	0.35745 0.35308 0.87238 0.06600
C 	C 	0.25989 0.18858 0.84330 0.03200
C 	C 	0.19710 0.14709 0.83051 -0.01300
C 	C 	0.18002 0.17399 0.80883 -0.10900
C 	C 	0.22249 0.24643 0.80182 0.10500
C 	C 	0.28601 0.28731 0.81423 -0.09200
C 	C 	0.27865 0.15763 0.86590 -0.18100
H 	H 	0.16345 0.09230 0.83644 0.03800
C 	C 	0.20246 0.27913 0.78017 -0.21000
H 	H 	0.32082 0.34133 0.80781 0.05400
H 	H 	0.46289 0.38764 0.91655 0.11200
H 	H 	0.44936 0.44969 0.89762 0.09000
H 	H 	0.53345 0.45950 0.89922 0.09000
H 	H 	0.39179 0.25711 0.79271 0.06700
H 	H 	0.37534 0.18179 0.81290 0.06600
H 	H 	0.46015 0.23946 0.80008 0.06000
H 	H 	0.23372 0.10740 0.87289 0.07400
H 	H 	0.29705 0.19581 0.88222 0.08600
H 	H 	0.31986 0.14600 0.86015 0.07400
H 	H 	0.23683 0.33783 0.77924 0.07100
H 	H 	0.14923 0.26904 0.78314 0.07500
H 	H 	0.20601 0.25639 0.76145 0.07500
C 	C 	0.89352 0.86466 0.86484 -0.09700
C 	C 	0.86191 0.79012 0.86475 0.00600
C 	C 	0.86480 0.75449 0.84236 0.02500
C 	C 	0.89675 0.79387 0.82003 -0.01200
C 	C 	0.92725 0.86830 0.81988 -0.11100
C 	C 	0.92683 0.90430 0.84261 0.10600
C 	C 	0.82534 0.74919 0.88811 0.00400
C 	C 	0.83275 0.67441 0.84207 -0.17300
H 	H 	0.89768 0.76652 0.80264 0.04100
C 	C 	0.96450 0.98466 0.84370 -0.22500
H 	H 	0.89248 0.89182 0.88225 0.05500
C 	C 	0.86011 0.73111 0.90671 0.03000
C 	C 	0.82212 0.67192 0.92280 -0.01100
C 	C 	0.75037 0.63069 0.92021 -0.11400
C 	C 	0.71544 0.65786 0.90545 0.10600
C 	C 	0.75339 0.71670 0.88918 -0.09400
C 	C 	0.93763 0.76975 0.90759 -0.17700
H 	H 	0.84888 0.65413 0.93551 0.05000
C 	C 	0.63804 0.62146 0.90539 -0.21000
H 	H 	0.72675 0.73352 0.87592 0.05500
H 	H 	0.02076 0.00505 0.84484 0.09300
H 	H 	0.94870 0.00401 0.86082 0.07500
H 	H 	0.95351 0.00743 0.82637 0.09100
H 	H 	0.77603 0.64910 0.84415 0.06300
H 	H 	0.85345 0.65660 0.85813 0.06500
H 	H 	0.84390 0.65534 0.82378 0.06100
H 	H 	0.95647 0.75741 0.92562 0.07600
H 	H 	0.95845 0.82826 0.90694 0.07200
H 	H 	0.95786 0.75360 0.89089 0.07100
H 	H 	0.62080 0.66129 0.90312 0.07800
H 	H 	0.61596 0.59236 0.92376 0.08800
H 	H 	0.61777 0.58356 0.88902 0.07800
