data_crystal

_cell_length_a 42.16629
_cell_length_b 67.29115
_cell_length_c 22.44304
_cell_angle_alpha 89.99963
_cell_angle_beta  90.00044
_cell_angle_gamma 91.85713

_symmetry_space_group_name_	'P 1'
_symmetry_space_group_name_H-M	'P 1'

loop_
_symmetry_equiv_pos_as_xyz
  x,y,z

loop_
_atom_site_label
_atom_site_type_symbol
_atom_site_fract_x
_atom_site_fract_y
_atom_site_fract_z
_atom_site_charge
Cu	Cu	0.61270 0.80400 0.93528 0.92600
Cu	Cu	0.55890 0.83752 0.94750 0.86600
Cu	Cu	0.55317 0.79806 0.01197 0.89400
Cu	Cu	0.60720 0.76878 0.02919 0.89500
C 	C 	0.66710 0.78730 0.98842 0.26100
O 	O 	0.60554 0.77878 0.88753 -0.35700
C 	C 	0.49770 0.82135 0.97830 0.25300
O 	O 	0.59880 0.79628 0.02316 -0.63100
O 	O 	0.56732 0.80966 0.93408 -0.64400
O 	O 	0.62790 0.83026 0.90565 -0.37200
O 	O 	0.59949 0.84777 0.97238 -0.43100
O 	O 	0.65107 0.77045 0.99689 -0.38100
O 	O 	0.53989 0.78487 0.08609 -0.37100
C 	C 	0.55196 0.76835 0.10667 0.26100
C 	C 	0.58210 0.76612 0.90039 0.25100
O 	O 	0.57426 0.76263 0.95625 -0.38100
O 	O 	0.58266 0.76555 0.10341 -0.38900
O 	O 	0.65682 0.80051 0.95050 -0.35600
C 	C 	0.62437 0.84629 0.93777 0.26500
O 	O 	0.50835 0.80485 0.00227 -0.37000
O 	O 	0.51460 0.83154 0.93866 -0.41300
H 	H 	0.60751 0.80466 0.05595 0.15800
H 	H 	0.55553 0.80398 0.89960 0.17100
Cu	Cu	0.88587 0.72896 0.96862 0.92700
Cu	Cu	0.90839 0.68371 0.99865 0.86500
Cu	Cu	0.95148 0.71910 0.01390 0.89500
Cu	Cu	0.93549 0.76211 0.01300 0.89200
C 	C 	0.86619 0.76628 0.01353 0.26200
O 	O 	0.90110 0.74377 0.89488 -0.35500
C 	C 	0.97580 0.67986 0.99026 0.25500
O 	O 	0.91870 0.73681 0.03645 -0.63700
O 	O 	0.91825 0.70866 0.95786 -0.64200
O 	O 	0.84817 0.71052 0.97552 -0.36200
O 	O 	0.87291 0.69156 0.04366 -0.43500
O 	O 	0.89378 0.77429 0.99730 -0.38000
O 	O 	0.98175 0.72881 0.07260 -0.38100
C 	C 	0.99206 0.74747 0.07680 0.26500
C 	C 	0.93158 0.74685 0.88478 0.25300
O 	O 	0.95142 0.74935 0.92955 -0.38900
O 	O 	0.97291 0.76235 0.06763 -0.38600
O 	O 	0.85696 0.74855 0.99405 -0.35400
C 	C 	0.84691 0.69645 0.01600 0.26400
O 	O 	0.98208 0.69920 0.99264 -0.37600
O 	O 	0.94770 0.67282 0.97303 -0.41200
H 	H 	0.91190 0.73569 0.07858 0.16300
H 	H 	0.92605 0.70690 0.91664 0.17200
Cu	Cu	0.78333 0.44697 0.43645 0.92700
Cu	Cu	0.81878 0.40614 0.39937 0.86600
Cu	Cu	0.84973 0.44643 0.38291 0.89600
Cu	Cu	0.82769 0.48533 0.42802 0.89200
C 	C 	0.77392 0.48029 0.51461 0.26400
O 	O 	0.76230 0.46396 0.37449 -0.35700
C 	C 	0.86642 0.41210 0.31104 0.25600
O 	O 	0.82982 0.45840 0.45028 -0.64200
O 	O 	0.80717 0.43272 0.37487 -0.64000
O 	O 	0.76379 0.42349 0.47793 -0.36900
O 	O 	0.81055 0.40778 0.48223 -0.43400
O 	O 	0.78950 0.49184 0.47613 -0.37800
O 	O 	0.89117 0.45873 0.39753 -0.38000
C 	C 	0.89665 0.47710 0.41659 0.26400
C 	C 	0.77874 0.47410 0.33433 0.25800
O 	O 	0.80950 0.47683 0.34100 -0.38700
O 	O 	0.87423 0.49040 0.41643 -0.38800
O 	O 	0.76762 0.46130 0.50323 -0.36000
C 	C 	0.78155 0.40990 0.50151 0.26500
O 	O 	0.86952 0.43153 0.31860 -0.37200
O 	O 	0.83986 0.40238 0.32508 -0.41000
H 	H 	0.84019 0.45592 0.48904 0.16200
H 	H 	0.79836 0.43334 0.33404 0.17400
Cu	Cu	0.19111 0.55855 0.26730 0.92800
Cu	Cu	0.15771 0.60139 0.28503 0.87100
Cu	Cu	0.11973 0.56448 0.25699 0.89600
Cu	Cu	0.14306 0.52236 0.24631 0.89300
C 	C 	0.20666 0.51896 0.30411 0.26300
O 	O 	0.20142 0.54924 0.18403 -0.35400
C 	C 	0.10212 0.60455 0.21473 0.26100
O 	O 	0.14728 0.54560 0.29281 -0.63800
O 	O 	0.16118 0.57794 0.23620 -0.64300
O 	O 	0.21617 0.57669 0.32070 -0.37200
O 	O 	0.17258 0.59126 0.35834 -0.43200
O 	O 	0.18551 0.51159 0.26584 -0.37900
O 	O 	0.08123 0.55056 0.28319 -0.37300
C 	C 	0.07846 0.53102 0.28858 0.25900
C 	C 	0.17910 0.54351 0.14627 0.25600
O 	O 	0.15011 0.53960 0.16537 -0.38400
O 	O 	0.09608 0.51921 0.25631 -0.38500
O 	O 	0.21392 0.53821 0.30631 -0.35800
C 	C 	0.20209 0.58602 0.36424 0.26200
O 	O 	0.09262 0.58675 0.23444 -0.37900
O 	O 	0.13098 0.61179 0.22530 -0.41500
H 	H 	0.14379 0.54357 0.33605 0.16200
H 	H 	0.16336 0.58086 0.19312 0.17300
Cu	Cu	0.69047 0.56110 0.93818 0.92700
Cu	Cu	0.67000 0.59692 0.84841 0.86900
Cu	Cu	0.63052 0.55964 0.86129 0.89500
Cu	Cu	0.64057 0.52534 0.94616 0.89200
C 	C 	0.68195 0.53881 0.04640 0.26000
O 	O 	0.71362 0.53761 0.90574 -0.35800
C 	C 	0.63510 0.58242 0.74777 0.26100
O 	O 	0.64183 0.55336 0.94174 -0.64000
O 	O 	0.67613 0.56873 0.85772 -0.64200
O 	O 	0.70948 0.58721 0.96289 -0.37100
O 	O 	0.66759 0.60452 0.92982 -0.43300
O 	O 	0.67033 0.52362 0.01505 -0.37800
O 	O 	0.58636 0.55149 0.87199 -0.37500
C 	C 	0.57655 0.53601 0.90412 0.26000
C 	C 	0.69996 0.52503 0.86823 0.25600
O 	O 	0.66889 0.52326 0.86560 -0.38200
O 	O 	0.59589 0.52163 0.91777 -0.38800
O 	O 	0.69629 0.55417 0.02000 -0.35400
C 	C 	0.69245 0.60319 0.96456 0.26300
O 	O 	0.61755 0.57119 0.78440 -0.38100
O 	O 	0.66086 0.59217 0.76635 -0.41400
H 	H 	0.62906 0.56005 0.97236 0.16100
H 	H 	0.68787 0.56278 0.82431 0.17200
Cu	Cu	0.27899 0.45628 0.76348 0.92800
Cu	Cu	0.31567 0.41441 0.78101 0.86900
Cu	Cu	0.35100 0.45229 0.75545 0.89500
Cu	Cu	0.32497 0.49357 0.74527 0.89200
C 	C 	0.26155 0.49512 0.80352 0.26000
O 	O 	0.26893 0.46592 0.68071 -0.35500
C 	C 	0.37286 0.41298 0.71382 0.26100
O 	O 	0.32182 0.47010 0.79128 -0.63900
O 	O 	0.31068 0.43779 0.73232 -0.64100
O 	O 	0.25300 0.43707 0.81182 -0.36400
O 	O 	0.29651 0.42331 0.85193 -0.43600
O 	O 	0.28186 0.50318 0.76494 -0.37800
O 	O 	0.38816 0.46707 0.78427 -0.37400
C 	C 	0.39010 0.48667 0.78785 0.25900
C 	C 	0.29129 0.47183 0.64340 0.25800
O 	O 	0.31981 0.47661 0.66330 -0.38400
O 	O 	0.37174 0.49783 0.75506 -0.38700
O 	O 	0.25450 0.47583 0.80295 -0.35400
C 	C 	0.26592 0.42609 0.85297 0.26500
O 	O 	0.38027 0.43141 0.73092 -0.37800
O 	O 	0.34450 0.40481 0.72342 -0.41600
H 	H 	0.32485 0.47206 0.83467 0.16100
H 	H 	0.30923 0.43493 0.68911 0.17300
Cu	Cu	0.59847 0.29951 0.44814 0.92600
Cu	Cu	0.56248 0.33930 0.49220 0.86800
Cu	Cu	0.53101 0.29870 0.49929 0.89600
Cu	Cu	0.56050 0.25922 0.47383 0.89300
C 	C 	0.63023 0.26397 0.47807 0.26000
O 	O 	0.58941 0.28778 0.36625 -0.35500
C 	C 	0.49547 0.33587 0.48755 0.25500
O 	O 	0.56907 0.28416 0.51013 -0.63800
O 	O 	0.55952 0.31504 0.44568 -0.64000
O 	O 	0.62885 0.32144 0.47045 -0.37300
O 	O 	0.59702 0.33339 0.54284 -0.43300
O 	O 	0.60578 0.25325 0.45787 -0.38100
O 	O 	0.50640 0.28265 0.55577 -0.37300
C 	C 	0.50933 0.26333 0.56341 0.25900
C 	C 	0.56135 0.27989 0.35311 0.25500
O 	O 	0.54201 0.27394 0.39576 -0.38300
O 	O 	0.52204 0.25218 0.52188 -0.38500
O 	O 	0.63353 0.28303 0.46503 -0.35500
C 	C 	0.62547 0.33086 0.52113 0.26200
O 	O 	0.49455 0.31637 0.49625 -0.37200
O 	O 	0.52092 0.34512 0.46581 -0.41400
H 	H 	0.57653 0.28354 0.55191 0.16000
H 	H 	0.55053 0.31695 0.40541 0.17300
Cu	Cu	0.87715 0.19728 0.45520 0.92700
Cu	Cu	0.89902 0.15230 0.48458 0.86400
Cu	Cu	0.91705 0.18603 0.56219 0.89300
Cu	Cu	0.88600 0.22622 0.56693 0.89400
C 	C 	0.83182 0.22601 0.48596 0.26100
O 	O 	0.90768 0.21939 0.42869 -0.35500
C 	C 	0.95756 0.15155 0.55101 0.25700
O 	O 	0.87719 0.19894 0.54942 -0.63400
O 	O 	0.91231 0.18007 0.47579 -0.64600
O 	O 	0.85381 0.17773 0.40419 -0.36500
O 	O 	0.85421 0.15388 0.47578 -0.43400
O 	O 	0.85426 0.23708 0.51132 -0.38000
O 	O 	0.92009 0.19152 0.64700 -0.37500
C 	C 	0.91751 0.20932 0.67072 0.26200
C 	C 	0.93252 0.22475 0.46121 0.25200
O 	O 	0.93086 0.22443 0.51972 -0.38600
O 	O 	0.89561 0.22142 0.65212 -0.38700
O 	O 	0.83916 0.21201 0.44793 -0.35200
C 	C 	0.84216 0.16106 0.42664 0.26400
O 	O 	0.95427 0.16975 0.57200 -0.37500
O 	O 	0.94151 0.14508 0.50391 -0.41300
H 	H 	0.85898 0.19274 0.57114 0.15900
H 	H 	0.93211 0.18223 0.45263 0.17200
Cu	Cu	0.71931 0.03508 0.12747 0.92800
Cu	Cu	0.68336 0.07535 0.16872 0.86200
Cu	Cu	0.64893 0.03803 0.15104 0.89500
Cu	Cu	0.67332 0.99700 0.13720 0.89200
C 	C 	0.74196 0.99738 0.16411 0.25900
O 	O 	0.71588 0.02422 0.04359 -0.35600
C 	C 	0.61840 0.07544 0.12571 0.26000
O 	O 	0.68214 0.02135 0.17684 -0.64100
O 	O 	0.68449 0.05330 0.11304 -0.64600
O 	O 	0.75025 0.05522 0.15943 -0.36600
O 	O 	0.71428 0.06714 0.22476 -0.43300
O 	O 	0.71821 0.98850 0.13520 -0.37500
O 	O 	0.61588 0.02361 0.19344 -0.38400
C 	C 	0.60852 0.00458 0.18595 0.26600
C 	C 	0.68822 0.01908 0.02009 0.25700
O 	O 	0.66463 0.01284 0.05439 -0.38300
O 	O 	0.63055 0.99154 0.17409 -0.38600
O 	O 	0.74928 0.01633 0.15461 -0.35400
C 	C 	0.74385 0.06503 0.20826 0.26300
O 	O 	0.61680 0.05581 0.12284 -0.38000
O 	O 	0.64583 0.08538 0.13137 -0.41100
H 	H 	0.68444 0.02042 0.22065 0.16300
H 	H 	0.68043 0.05695 0.07105 0.17600
Cu	Cu	0.29682 0.95282 0.27382 0.92600
Cu	Cu	0.32973 0.90935 0.27003 0.86500
Cu	Cu	0.35071 0.94237 0.18972 0.89500
Cu	Cu	0.33349 0.98506 0.19589 0.89200
C 	C 	0.30129 0.99359 0.30941 0.26000
O 	O 	0.26571 0.96129 0.21034 -0.35600
C 	C 	0.35798 0.90057 0.15767 0.25500
O 	O 	0.34215 0.96318 0.24554 -0.64000
O 	O 	0.31073 0.93043 0.22412 -0.64100
O 	O 	0.28712 0.93751 0.34779 -0.36800
O 	O 	0.33435 0.92235 0.34460 -0.43400
O 	O 	0.30486 0.99855 0.25293 -0.37900
O 	O 	0.39097 0.95395 0.16278 -0.37700
C 	C 	0.39807 0.97317 0.15827 0.26200
C 	C 	0.27403 0.96217 0.15387 0.25400
O 	O 	0.30377 0.96598 0.13924 -0.38500
O 	O 	0.37576 0.98652 0.15608 -0.38700
O 	O 	0.29175 0.97543 0.32443 -0.35400
C 	C 	0.30913 0.92738 0.37437 0.26500
O 	O 	0.35973 0.91932 0.13996 -0.37100
O 	O 	0.33749 0.89461 0.19881 -0.41200
H 	H 	0.35887 0.96561 0.27591 0.16000
H 	H 	0.29540 0.92551 0.19367 0.17400
Cu	Cu	0.15438 0.81012 0.45560 0.92700
Cu	Cu	0.11676 0.85164 0.47237 0.86500
Cu	Cu	0.08470 0.81156 0.48945 0.89600
Cu	Cu	0.11564 0.77227 0.50427 0.89200
C 	C 	0.18523 0.77767 0.51154 0.26200
O 	O 	0.14739 0.79219 0.38395 -0.35400
C 	C 	0.04973 0.84652 0.45755 0.25500
O 	O 	0.12217 0.79966 0.52110 -0.63800
O 	O 	0.11642 0.82523 0.43632 -0.64100
O 	O 	0.18449 0.83324 0.46458 -0.37100
O 	O 	0.15133 0.84950 0.52611 -0.43200
O 	O 	0.16118 0.76583 0.49568 -0.38200
O 	O 	0.05524 0.79937 0.54589 -0.37800
C 	C 	0.06093 0.78352 0.57826 0.26100
C 	C 	0.11965 0.78349 0.37225 0.25200
O 	O 	0.09916 0.77967 0.41534 -0.38600
O 	O 	0.07777 0.76892 0.55687 -0.38500
O 	O 	0.18859 0.79568 0.48887 -0.35500
C 	C 	0.18004 0.84651 0.50633 0.26300
O 	O 	0.04925 0.82693 0.46123 -0.37300
O 	O 	0.07553 0.85650 0.44029 -0.41000
H 	H 	0.12678 0.80299 0.56327 0.16000
H 	H 	0.11014 0.82505 0.39379 0.17000
Cu	Cu	0.39371 0.67852 0.45163 0.92600
Cu	Cu	0.42604 0.63785 0.50079 0.86700
Cu	Cu	0.45877 0.67784 0.51261 0.89600
Cu	Cu	0.43289 0.71801 0.48321 0.89200
C 	C 	0.36310 0.71473 0.47869 0.25900
O 	O 	0.40648 0.69042 0.37188 -0.35600
C 	C 	0.49292 0.64053 0.51017 0.25500
O 	O 	0.42127 0.69315 0.51779 -0.63800
O 	O 	0.43201 0.66211 0.45439 -0.63800
O 	O 	0.36100 0.65707 0.46651 -0.36800
O 	O 	0.38887 0.64421 0.54309 -0.43500
O 	O 	0.38873 0.72499 0.46173 -0.37900
O 	O 	0.48129 0.69303 0.57362 -0.37500
C 	C 	0.47864 0.71237 0.58104 0.26100
C 	C 	0.43549 0.69739 0.36225 0.25500
O 	O 	0.45350 0.70315 0.40714 -0.38200
O 	O 	0.46975 0.72384 0.53677 -0.38500
O 	O 	0.35909 0.69582 0.46406 -0.35300
C 	C 	0.36201 0.64614 0.51482 0.26500
O 	O 	0.49500 0.66017 0.51155 -0.37000
O 	O 	0.46875 0.63115 0.48433 -0.41300
H 	H 	0.41213 0.69388 0.55835 0.16000
H 	H 	0.44266 0.66005 0.41565 0.17300
Cu	Cu	0.08635 0.30914 0.98033 0.92700
Cu	Cu	0.05154 0.34754 0.03843 0.87000
Cu	Cu	0.03522 0.30593 0.07643 0.89700
Cu	Cu	0.06467 0.26801 0.03433 0.89400
C 	C 	0.12869 0.27642 0.97882 0.26400
O 	O 	0.06508 0.29423 0.91207 -0.35700
C 	C 	0.98842 0.33803 0.07511 0.26100
O 	O 	0.07503 0.29412 0.05946 -0.63900
O 	O 	0.04624 0.32149 0.00297 -0.63800
O 	O 	0.11370 0.33371 0.97687 -0.37300
O 	O 	0.09450 0.34634 0.06318 -0.43400
O 	O 	0.10376 0.26410 0.98515 -0.38000
O 	O 	0.02847 0.29060 0.14865 -0.37400
C 	C 	0.03637 0.27185 0.15454 0.25900
C 	C 	0.03785 0.28451 0.91963 0.25500
O 	O 	0.02909 0.27870 0.97315 -0.38400
O 	O 	0.04018 0.26037 0.10748 -0.38500
O 	O 	0.12554 0.29585 0.97425 -0.36100
C 	C 	0.11738 0.34516 0.02389 0.26700
O 	O 	0.99928 0.32205 0.10190 -0.38200
O 	O 	0.00652 0.34891 0.03909 -0.41200
H 	H 	0.09071 0.29514 0.09226 0.16300
H 	H 	0.02937 0.32078 0.97228 0.16900
Cu	Cu	0.35622 0.18357 0.94068 0.92700
Cu	Cu	0.39188 0.14337 0.98240 0.86800
Cu	Cu	0.41933 0.18393 0.00640 0.89700
Cu	Cu	0.38941 0.22315 0.98408 0.89100
C 	C 	0.31946 0.21848 0.95470 0.26800
O 	O 	0.37037 0.19808 0.86562 -0.35900
C 	C 	0.45936 0.14917 0.98262 0.25800
O 	O 	0.37989 0.19731 0.01242 -0.63900
O 	O 	0.39576 0.16882 0.94294 -0.64600
O 	O 	0.32581 0.16051 0.94889 -0.37000
O 	O 	0.35336 0.14668 0.02466 -0.42600
O 	O 	0.34600 0.22959 0.95358 -0.37800
O 	O 	0.43916 0.19861 0.07143 -0.37500
C 	C 	0.43600 0.21770 0.08321 0.26200
C 	C 	0.39954 0.20541 0.86085 0.25500
O 	O 	0.41511 0.21120 0.90883 -0.38700
O 	O 	0.42277 0.22989 0.04485 -0.38500
O 	O 	0.31975 0.19887 0.95401 -0.36600
C 	C 	0.32660 0.14894 0.99596 0.25500
O 	O 	0.45594 0.16639 0.01024 -0.37800
O 	O 	0.43483 0.13887 0.96096 -0.41200
H 	H 	0.36972 0.19659 0.05216 0.16500
H 	H 	0.40745 0.16823 0.90476 0.17300
Cu	Cu	0.77603 0.94842 0.62405 0.92800
Cu	Cu	0.81204 0.90584 0.63090 0.86900
Cu	Cu	0.84757 0.94468 0.62968 0.89600
Cu	Cu	0.82251 0.98572 0.63845 0.89200
C 	C 	0.75477 0.98453 0.67676 0.26200
O 	O 	0.77445 0.96325 0.54560 -0.35700
C 	C 	0.87050 0.90977 0.56599 0.26200
O 	O 	0.81621 0.95985 0.66954 -0.64000
O 	O 	0.80942 0.93149 0.59274 -0.64400
O 	O 	0.74722 0.92679 0.65500 -0.36800
O 	O 	0.78756 0.91089 0.69991 -0.43200
O 	O 	0.77772 0.99423 0.64775 -0.37700
O 	O 	0.88285 0.95731 0.67128 -0.38000
C 	C 	0.88950 0.97662 0.67295 0.26300
C 	C 	0.80083 0.96873 0.51782 0.25300
O 	O 	0.82634 0.97381 0.54870 -0.38600
O 	O 	0.86707 0.98989 0.66808 -0.38500
O 	O 	0.74845 0.96551 0.66631 -0.35800
C 	C 	0.75714 0.91416 0.69503 0.26200
O 	O 	0.87776 0.92540 0.59970 -0.38500
O 	O 	0.84423 0.89897 0.57494 -0.41000
H 	H 	0.81662 0.95886 0.71355 0.16600
H 	H 	0.81056 0.93062 0.54876 0.17000
Cu	Cu	0.20127 0.03961 0.76667 0.92600
Cu	Cu	0.16809 0.08289 0.75110 0.86500
Cu	Cu	0.14572 0.04687 0.68348 0.89600
Cu	Cu	0.16347 0.00489 0.70070 0.89200
C 	C 	0.19796 0.00021 0.81381 0.26000
O 	O 	0.23091 0.02906 0.70367 -0.35600
C 	C 	0.13664 0.08699 0.63891 0.25400
O 	O 	0.15551 0.02819 0.74469 -0.64100
O 	O 	0.18614 0.06015 0.71134 -0.64100
O 	O 	0.21266 0.05743 0.83477 -0.36700
O 	O 	0.16561 0.07287 0.83003 -0.43300
O 	O 	0.19370 0.99352 0.75911 -0.37800
O 	O 	0.10508 0.03447 0.66288 -0.38200
C 	C 	0.09822 0.01518 0.65978 0.26500
C 	C 	0.22139 0.02691 0.64814 0.25400
O 	O 	0.19152 0.02224 0.63669 -0.38500
O 	O 	0.12028 0.00171 0.66473 -0.38700
O 	O 	0.20752 0.01877 0.82335 -0.35300
C 	C 	0.19154 0.06880 0.85920 0.26400
O 	O 	0.13583 0.06777 0.62675 -0.37200
O 	O 	0.15798 0.09474 0.67588 -0.41100
H 	H 	0.13933 0.02671 0.77649 0.16100
H 	H 	0.20079 0.06400 0.67853 0.17400
C 	C 	0.96426 0.00198 0.68754 0.07300
C 	C 	0.98431 0.01588 0.65821 -0.08500
C 	C 	0.01363 0.00949 0.63731 0.00900
C 	C 	0.02306 0.99013 0.64674 0.07400
C 	C 	0.00309 0.97628 0.67633 -0.08500
C 	C 	0.97379 0.98265 0.69737 0.01100
N 	N 	0.93239 0.00241 0.68458 -0.15200
C 	C 	0.92146 0.98345 0.69206 0.00100
C 	C 	0.94651 0.97075 0.70005 -0.04700
N 	N 	0.05492 0.98962 0.64921 -0.15200
C 	C 	0.06594 0.00857 0.64197 -0.00100
C 	C 	0.04097 0.02137 0.63457 -0.04600
H 	H 	0.97710 0.03099 0.65102 0.04900
H 	H 	0.01030 0.96116 0.68350 0.05000
H 	H 	0.94551 0.95503 0.68936 0.05200
H 	H 	0.04211 0.03707 0.64541 0.04800
H 	H 	0.92000 0.01337 0.66220 0.08400
H 	H 	0.06734 0.97857 0.67109 0.08300
C 	C 	0.26685 0.11246 0.03007 0.07100
C 	C 	0.25844 0.09255 0.01722 -0.07900
C 	C 	0.22844 0.08838 0.99231 0.00500
C 	C 	0.20926 0.10363 0.97353 0.07400
C 	C 	0.21948 0.12359 0.97988 -0.09000
C 	C 	0.24747 0.12771 0.01196 0.01500
N 	N 	0.29724 0.11914 0.03340 -0.15100
C 	C 	0.29756 0.13844 0.01672 -0.00200
C 	C 	0.26714 0.14429 0.00278 -0.04300
N 	N 	0.19057 0.09730 0.92827 -0.15100
C 	C 	0.19796 0.07826 0.91721 -0.01000
C 	C 	0.22145 0.07219 0.95603 -0.04100
H 	H 	0.27553 0.08098 0.02211 0.04900
H 	H 	0.20743 0.13531 0.95684 0.04900
H 	H 	0.26189 0.15634 0.97266 0.04800
H 	H 	0.23785 0.06054 0.94635 0.05100
H 	H 	0.31680 0.11005 0.03004 0.07100
H 	H 	0.18079 0.10674 0.89663 0.06600
C 	C 	0.25716 0.25076 0.91725 0.07400
C 	C 	0.24043 0.26810 0.92818 -0.08400
C 	C 	0.20726 0.26691 0.92294 0.00900
C 	C 	0.19117 0.24861 0.91712 0.07600
C 	C 	0.20788 0.23095 0.91419 -0.08400
C 	C 	0.24102 0.23255 0.90941 0.01000
N 	N 	0.28657 0.24791 0.93837 -0.15100
C 	C 	0.28901 0.22809 0.94565 -0.00100
C 	C 	0.26144 0.21805 0.92724 -0.04200
N 	N 	0.16184 0.24952 0.94038 -0.15100
C 	C 	0.15927 0.26810 0.96221 -0.00100
C 	C 	0.18676 0.27946 0.95132 -0.04100
H 	H 	0.25255 0.28157 0.94365 0.04900
H 	H 	0.19577 0.21660 0.91920 0.05000
H 	H 	0.25444 0.20301 0.93996 0.04900
H 	H 	0.19370 0.29298 0.97480 0.04500
H 	H 	0.30085 0.25871 0.95977 0.08200
H 	H 	0.14758 0.23724 0.95305 0.08400
C 	C 	0.92384 0.88071 0.48355 0.07300
C 	C 	0.93822 0.86219 0.48573 -0.08300
C 	C 	0.97107 0.86198 0.49469 0.00900
C 	C 	0.98929 0.87950 0.49766 0.07300
C 	C 	0.97516 0.89803 0.49414 -0.08500
C 	C 	0.94212 0.89832 0.48697 0.01200
N 	N 	0.89454 0.88354 0.50501 -0.15100
C 	C 	0.89402 0.90270 0.52305 -0.00200
C 	C 	0.92312 0.91238 0.51245 -0.04700
N 	N 	0.01908 0.87636 0.47936 -0.15500
C 	C 	0.01989 0.85703 0.46337 -0.00300
C 	C 	0.99064 0.84749 0.47347 -0.04300
H 	H 	0.92415 0.84847 0.48282 0.05100
H 	H 	0.98932 0.91172 0.49709 0.05100
H 	H 	0.93207 0.92521 0.53717 0.05100
H 	H 	0.98272 0.83356 0.45340 0.05100
H 	H 	0.87965 0.87217 0.52199 0.08400
H 	H 	0.03556 0.88743 0.46607 0.07900
C 	C 	0.26109 0.76488 0.56650 0.07500
C 	C 	0.29352 0.76602 0.55224 -0.08300
C 	C 	0.31016 0.74831 0.55191 0.01100
C 	C 	0.29419 0.72992 0.55633 0.07400
C 	C 	0.26113 0.72874 0.56342 -0.08300
C 	C 	0.24532 0.74648 0.57314 0.01100
N 	N 	0.24061 0.77869 0.54912 -0.15200
C 	C 	0.21194 0.76926 0.54426 -0.00000
C 	C 	0.21388 0.74924 0.55866 -0.04900
N 	N 	0.31048 0.71593 0.52769 -0.15300
C 	C 	0.33623 0.72532 0.50374 0.00200
C 	C 	0.33725 0.74534 0.51876 -0.05100
H 	H 	0.30477 0.77992 0.53789 0.05100
H 	H 	0.24802 0.71476 0.55748 0.05100
H 	H 	0.19775 0.73761 0.54236 0.04600
H 	H 	0.35076 0.75683 0.49519 0.04600
H 	H 	0.24719 0.79177 0.52652 0.09300
H 	H 	0.30100 0.70219 0.51344 0.09000
C 	C 	0.30461 0.02226 0.44220 0.07600
C 	C 	0.30584 0.02094 0.50461 -0.08300
C 	C 	0.28357 0.03146 0.53746 0.01000
C 	C 	0.25769 0.03978 0.50946 0.07500
C 	C 	0.25418 0.03869 0.44730 -0.08200
C 	C 	0.27957 0.03148 0.41410 0.01000
N 	N 	0.31718 0.00874 0.40571 -0.15400
C 	C 	0.30059 0.00939 0.35429 -0.00000
C 	C 	0.27679 0.02314 0.35788 -0.04200
N 	N 	0.23296 0.04041 0.54727 -0.15300
C 	C 	0.24297 0.03268 0.59930 -0.00400
C 	C 	0.27416 0.02681 0.59503 -0.04500
H 	H 	0.32232 0.01130 0.52648 0.05200
H 	H 	0.23203 0.04231 0.42605 0.05300
H 	H 	0.25503 0.02233 0.33217 0.04900
H 	H 	0.28438 0.01535 0.62218 0.04700
H 	H 	0.32966 0.99644 0.42010 0.08100
H 	H 	0.20920 0.04098 0.53421 0.08600
C 	C 	0.23352 0.95177 0.01799 0.07800
C 	C 	0.23680 0.95234 0.95571 -0.08600
C 	C 	0.21356 0.96205 0.92294 0.01100
C 	C 	0.19162 0.97384 0.95137 0.07200
C 	C 	0.19119 0.97540 0.01375 -0.08000
C 	C 	0.21044 0.96269 0.04637 0.00800
N 	N 	0.25790 0.94872 0.05526 -0.15400
C 	C 	0.25044 0.95746 0.10742 -0.00300
C 	C 	0.22131 0.96645 0.10360 -0.04400
N 	N 	0.18253 0.98845 0.91478 -0.15400
C 	C 	0.19836 0.98594 0.86318 -0.00000
C 	C 	0.21798 0.96981 0.86629 -0.04400
H 	H 	0.25743 0.94642 0.93405 0.05300
H 	H 	0.17771 0.98671 0.03576 0.05200
H 	H 	0.21453 0.97898 0.13052 0.04700
H 	H 	0.23904 0.96808 0.83939 0.04800
H 	H 	0.28101 0.94585 0.04156 0.08600
H 	H 	0.17316 0.00187 0.92879 0.08200
C 	C 	0.23528 0.88487 0.54681 0.07200
C 	C 	0.24252 0.90482 0.53255 -0.08500
C 	C 	0.27275 0.90966 0.50972 0.01000
C 	C 	0.29377 0.89487 0.49515 0.07100
C 	C 	0.28524 0.87475 0.50407 -0.08500
C 	C 	0.25653 0.87010 0.53321 0.01000
N 	N 	0.20536 0.87725 0.54651 -0.15100
C 	C 	0.20717 0.85786 0.53177 -0.00700
C 	C 	0.23856 0.85285 0.52319 -0.04400
N 	N 	0.31272 0.90100 0.45003 -0.15100
C 	C 	0.30363 0.91937 0.43462 -0.01000
C 	C 	0.27895 0.92530 0.47094 -0.04300
H 	H 	0.22433 0.91582 0.53405 0.04900
H 	H 	0.29904 0.86315 0.48426 0.04700
H 	H 	0.24599 0.84070 0.49530 0.05000
H 	H 	0.26160 0.93604 0.45806 0.05200
H 	H 	0.18530 0.88567 0.53934 0.07000
H 	H 	0.32400 0.89134 0.42097 0.06500
C 	C 	0.81642 0.97077 0.36154 0.07400
C 	C 	0.81989 0.98346 0.31217 -0.08300
C 	C 	0.80247 0.97868 0.26056 0.01100
C 	C 	0.77902 0.96362 0.26103 0.07400
C 	C 	0.77274 0.95261 0.31311 -0.08500
C 	C 	0.79335 0.95545 0.36162 0.01200
N 	N 	0.82278 0.97671 0.41772 -0.15100
C 	C 	0.80359 0.96553 0.45334 -0.00300
C 	C 	0.78494 0.95217 0.42048 -0.05200
N 	N 	0.75641 0.96749 0.22070 -0.15200
C 	C 	0.76498 0.98500 0.19485 0.00300
C 	C 	0.79342 0.99245 0.21864 -0.04500
H 	H 	0.83389 0.99721 0.31522 0.05200
H 	H 	0.75144 0.94325 0.31705 0.05000
H 	H 	0.76248 0.94561 0.43524 0.04500
H 	H 	0.80047 0.00808 0.21974 0.05500
H 	H 	0.83260 0.99064 0.42935 0.08200
H 	H 	0.73302 0.96188 0.22316 0.07700
C 	C 	0.71300 0.01859 0.76675 0.07400
C 	C 	0.71655 0.03148 0.81564 -0.08400
C 	C 	0.69475 0.02934 0.86262 0.01100
C 	C 	0.67348 0.01310 0.86519 0.07400
C 	C 	0.67298 0.99868 0.81991 -0.08300
C 	C 	0.69123 0.00258 0.76867 0.01000
N 	N 	0.73699 0.01461 0.72946 -0.15200
C 	C 	0.73082 0.99615 0.70784 0.00300
C 	C 	0.70275 0.98810 0.73144 -0.04500
N 	N 	0.66612 0.00882 0.92227 -0.15100
C 	C 	0.68270 0.02211 0.95613 -0.00300
C 	C 	0.70094 0.03502 0.92079 -0.04900
H 	H 	0.73664 0.04188 0.81867 0.05000
H 	H 	0.66049 0.98450 0.82594 0.05100
H 	H 	0.69730 0.97232 0.73588 0.05200
H 	H 	0.72249 0.04277 0.93538 0.04500
H 	H 	0.75965 0.02135 0.73182 0.07900
H 	H 	0.65809 0.99483 0.93722 0.08100
C 	C 	0.52225 0.11595 0.99390 0.06300
C 	C 	0.52728 0.09682 0.01630 -0.07400
C 	C 	0.54592 0.09510 0.06755 0.00500
C 	C 	0.56112 0.11164 0.09299 0.07700
C 	C 	0.55688 0.13072 0.06986 -0.08800
C 	C 	0.53702 0.13260 0.02010 0.01700
N 	N 	0.49457 0.12089 0.96908 -0.15000
C 	C 	0.49095 0.14043 0.98037 -0.00500
C 	C 	0.51701 0.14825 0.01165 -0.04500
N 	N 	0.58776 0.10634 0.12110 -0.15300
C 	C 	0.58952 0.08646 0.11380 -0.00300
C 	C 	0.56400 0.07892 0.08070 -0.04200
H 	H 	0.51590 0.08383 0.99606 0.04600
H 	H 	0.56835 0.14367 0.09018 0.05100
H 	H 	0.51629 0.16109 0.04069 0.05200
H 	H 	0.56434 0.06543 0.05436 0.05000
H 	H 	0.47574 0.11074 0.96114 0.08200
H 	H 	0.60718 0.11596 0.12973 0.08300
C 	C 	0.48180 0.97698 0.14117 0.07400
C 	C 	0.51004 0.96822 0.15899 -0.08500
C 	C 	0.53168 0.97968 0.19315 0.00900
C 	C 	0.52553 0.99921 0.20853 0.07500
C 	C 	0.49732 0.00794 0.19048 -0.08500
C 	C 	0.47604 0.99666 0.15519 0.01000
N 	N 	0.45423 0.96659 0.13411 -0.15200
C 	C 	0.43085 0.97955 0.14339 0.00100
C 	C 	0.44348 0.99836 0.15665 -0.04700
N 	N 	0.55290 0.00976 0.21552 -0.15200
C 	C 	0.57660 0.99726 0.20377 0.00100
C 	C 	0.56432 0.97839 0.18960 -0.04700
H 	H 	0.51484 0.95300 0.14722 0.04900
H 	H 	0.49249 0.02316 0.20226 0.05100
H 	H 	0.43135 0.00938 0.18258 0.04100
H 	H 	0.57634 0.96780 0.16193 0.04500
H 	H 	0.45162 0.95118 0.13951 0.08900
H 	H 	0.55498 0.02523 0.21132 0.09100
C 	C 	0.97567 0.22718 0.77150 0.07400
C 	C 	0.00400 0.23873 0.76989 -0.08500
C 	C 	0.00422 0.25768 0.79588 0.01000
C 	C 	0.97777 0.26441 0.82571 0.07500
C 	C 	0.94946 0.25291 0.82754 -0.08500
C 	C 	0.94892 0.23419 0.79999 0.01000
N 	N 	0.96699 0.21469 0.72716 -0.15300
C 	C 	0.93493 0.21402 0.72585 0.00100
C 	C 	0.92285 0.22593 0.77063 -0.04600
N 	N 	0.98672 0.27707 0.86947 -0.15300
C 	C 	0.01877 0.27856 0.86763 -0.00300
C 	C 	0.03049 0.26673 0.82244 -0.04500
H 	H 	0.02486 0.23337 0.74765 0.05200
H 	H 	0.92864 0.25828 0.84988 0.05100
H 	H 	0.89986 0.23265 0.76886 0.04800
H 	H 	0.05388 0.26050 0.82288 0.04800
H 	H 	0.98122 0.21181 0.69017 0.08300
H 	H 	0.97318 0.27978 0.90748 0.08300
C 	C 	0.03014 0.24063 0.28289 0.07500
C 	C 	0.01328 0.22446 0.30847 -0.08300
C 	C 	0.00196 0.22664 0.36676 0.01200
C 	C 	0.00300 0.24511 0.39494 0.07500
C 	C 	0.01588 0.26194 0.36564 -0.08300
C 	C 	0.03166 0.25904 0.31145 0.01100
N 	N 	0.03326 0.24304 0.22362 -0.15200
C 	C 	0.03635 0.26282 0.21416 -0.00100
C 	C 	0.03542 0.27330 0.26738 -0.04800
N 	N 	0.97945 0.24604 0.43529 -0.15100
C 	C 	0.96335 0.22840 0.43256 -0.00000
C 	C 	0.97633 0.21600 0.39034 -0.05000
H 	H 	0.00753 0.21121 0.28274 0.05100
H 	H 	0.01214 0.27677 0.38256 0.05100
H 	H 	0.02864 0.28863 0.27152 0.04900
H 	H 	0.96339 0.20406 0.36763 0.03800
H 	H 	0.02516 0.23273 0.19178 0.08700
H 	H 	0.96984 0.25923 0.45061 0.08200
C 	C 	0.07334 0.10785 0.56031 0.07500
C 	C 	0.04084 0.10388 0.55069 -0.08500
C 	C 	0.01916 0.11641 0.57761 0.01000
C 	C 	0.02937 0.13306 0.60975 0.07300
C 	C 	0.06182 0.13748 0.61766 -0.08600
C 	C 	0.08363 0.12457 0.59243 0.01000
N 	N 	0.09428 0.09330 0.56592 -0.15200
C 	C 	0.11767 0.10035 0.60224 0.00100
C 	C 	0.11195 0.11981 0.61916 -0.04900
N 	N 	0.00729 0.14706 0.60814 -0.15100
C 	C 	0.98311 0.13944 0.57480 -0.00000
C 	C 	0.98961 0.12044 0.55483 -0.05100
H 	H 	0.03274 0.09100 0.52533 0.05100
H 	H 	0.06983 0.15038 0.64302 0.05000
H 	H 	0.12078 0.12660 0.65995 0.03900
H 	H 	0.97942 0.11357 0.51526 0.04500
H 	H 	0.08838 0.07819 0.56042 0.09200
H 	H 	0.01210 0.16226 0.61442 0.09100
C 	C 	0.79889 0.13279 0.31950 0.07200
C 	C 	0.80394 0.12229 0.26648 -0.08800
C 	C 	0.79867 0.10161 0.26682 0.00800
C 	C 	0.78735 0.09184 0.31749 0.07300
C 	C 	0.78269 0.10226 0.37075 -0.08800
C 	C 	0.78836 0.12291 0.37061 0.00800
N 	N 	0.81597 0.14929 0.33429 -0.15100
C 	C 	0.81704 0.14984 0.39447 -0.00700
C 	C 	0.80015 0.13367 0.41868 -0.04800
N 	N 	0.76968 0.07564 0.30204 -0.15100
C 	C 	0.76963 0.07494 0.24182 -0.00700
C 	C 	0.78749 0.09081 0.21840 -0.04600
H 	H 	0.81221 0.12993 0.22664 0.05000
H 	H 	0.77440 0.09462 0.41056 0.04900
H 	H 	0.80473 0.12736 0.46214 0.04100
H 	H 	0.78357 0.09714 0.17470 0.03600
H 	H 	0.83307 0.15610 0.30663 0.08500
H 	H 	0.75187 0.06917 0.32885 0.08200
C 	C 	0.51557 0.27064 0.22541 0.07600
C 	C 	0.48326 0.26828 0.21079 -0.08400
C 	C 	0.47137 0.24912 0.19742 0.01200
C 	C 	0.49115 0.23304 0.19527 0.07500
C 	C 	0.52371 0.23553 0.20702 -0.08400
C 	C 	0.53560 0.25462 0.22200 0.01100
N 	N 	0.52619 0.28365 0.26698 -0.15300
C 	C 	0.55265 0.27606 0.29086 0.00000
C 	C 	0.55937 0.25814 0.26348 -0.04500
N 	N 	0.47909 0.21897 0.15832 -0.15100
C 	C 	0.45182 0.22609 0.13641 0.00100
C 	C 	0.44628 0.24486 0.15936 -0.04900
H 	H 	0.46771 0.28076 0.21246 0.05100
H 	H 	0.53919 0.22300 0.20528 0.05100
H 	H 	0.57237 0.24647 0.28485 0.04200
H 	H 	0.43229 0.25595 0.13748 0.04600
H 	H 	0.51163 0.29345 0.28950 0.08000
H 	H 	0.49259 0.20834 0.13689 0.09000
C 	C 	0.45732 0.23045 0.63818 0.07600
C 	C 	0.42775 0.22360 0.65987 -0.08300
C 	C 	0.42755 0.21087 0.70948 0.00900
C 	C 	0.45522 0.20788 0.74185 0.07400
C 	C 	0.48418 0.21691 0.72401 -0.08400
C 	C 	0.48500 0.22680 0.66908 0.01200
N 	N 	0.46125 0.24681 0.60423 -0.15100
C 	C 	0.49165 0.25342 0.61173 0.00200
C 	C 	0.50668 0.24171 0.65360 -0.05000
N 	N 	0.44814 0.20386 0.79914 -0.15300
C 	C 	0.41620 0.20419 0.80359 -0.00500
C 	C 	0.40252 0.20859 0.74905 -0.04500
H 	H 	0.40587 0.22894 0.64138 0.05300
H 	H 	0.50460 0.21727 0.75334 0.05100
H 	H 	0.53211 0.24102 0.65965 0.03600
H 	H 	0.37979 0.21545 0.74389 0.04800
H 	H 	0.44682 0.25033 0.56812 0.08700
H 	H 	0.46381 0.20614 0.83477 0.08400
C 	C 	0.74923 0.22406 0.51579 0.07300
C 	C 	0.71769 0.21960 0.49930 -0.08300
C 	C 	0.69424 0.23219 0.52028 0.00900
C 	C 	0.70247 0.25029 0.54724 0.07500
C 	C 	0.73445 0.25595 0.55624 -0.08400
C 	C 	0.75731 0.24175 0.54493 0.01000
N 	N 	0.77440 0.21746 0.48564 -0.15400
C 	C 	0.79840 0.23096 0.49420 0.00000
C 	C 	0.78877 0.24611 0.53154 -0.05100
N 	N 	0.67960 0.26345 0.53819 -0.15300
C 	C 	0.65685 0.25387 0.50577 -0.00200
C 	C 	0.66504 0.23446 0.49345 -0.04600
H 	H 	0.71188 0.20755 0.46879 0.05200
H 	H 	0.74131 0.27108 0.56830 0.05100
H 	H 	0.80054 0.26059 0.53579 0.04600
H 	H 	0.65632 0.22587 0.45569 0.04800
H 	H 	0.77346 0.20682 0.45169 0.09200
H 	H 	0.68304 0.27889 0.53996 0.08900
C 	C 	0.43155 0.39150 0.62297 0.07300
C 	C 	0.44401 0.39158 0.56505 -0.08600
C 	C 	0.44275 0.37369 0.53274 0.00900
C 	C 	0.42920 0.35638 0.55722 0.07400
C 	C 	0.41566 0.35658 0.61437 -0.08600
C 	C 	0.41815 0.37422 0.64739 0.01000
N 	N 	0.41918 0.40761 0.64856 -0.15100
C 	C 	0.39780 0.40067 0.68901 -0.00100
C 	C 	0.39638 0.37999 0.68939 -0.04900
N 	N 	0.44351 0.34034 0.53538 -0.15300
C 	C 	0.46663 0.34716 0.49816 -0.00100
C 	C 	0.46657 0.36784 0.49490 -0.04800
H 	H 	0.45470 0.40499 0.54607 0.05000
H 	H 	0.40489 0.34321 0.63344 0.05100
H 	H 	0.37593 0.37101 0.70337 0.04300
H 	H 	0.48718 0.37712 0.48363 0.04200
H 	H 	0.41839 0.42159 0.62834 0.08500
H 	H 	0.44397 0.32667 0.55749 0.09000
C 	C 	0.20120 0.40280 0.92935 0.07700
C 	C 	0.17829 0.40275 0.97459 -0.09100
C 	C 	0.17398 0.38543 0.00896 0.01900
C 	C 	0.19180 0.36872 0.99811 0.06700
C 	C 	0.21570 0.36916 0.95459 -0.08100
C 	C 	0.21940 0.38627 0.91954 0.00900
N 	N 	0.21693 0.41939 0.91083 -0.14900
C 	C 	0.24555 0.41365 0.89152 -0.00900
C 	C 	0.24771 0.39315 0.89509 -0.05300
N 	N 	0.17467 0.35208 0.01124 -0.14700
C 	C 	0.14599 0.35793 0.03002 -0.00600
C 	C 	0.14479 0.37855 0.02970 -0.04900
H 	H 	0.16411 0.41563 0.98241 0.05000
H 	H 	0.22994 0.35631 0.94664 0.04800
H 	H 	0.26958 0.38514 0.89414 0.02900
H 	H 	0.12306 0.38658 0.02486 0.03000
H 	H 	0.21175 0.43387 0.92357 0.08600
H 	H 	0.17869 0.33816 0.99245 0.08700
C 	C 	0.58570 0.58858 0.62243 0.07600
C 	C 	0.55317 0.58915 0.60925 -0.08500
C 	C 	0.54067 0.60756 0.59499 0.01100
C 	C 	0.55993 0.62455 0.58994 0.07400
C 	C 	0.59271 0.62385 0.59954 -0.08400
C 	C 	0.60528 0.60558 0.61621 0.00900
N 	N 	0.59716 0.57667 0.66496 -0.15200
C 	C 	0.62365 0.58595 0.68674 -0.00100
C 	C 	0.62959 0.60383 0.65702 -0.04600
N 	N 	0.54652 0.63773 0.55340 -0.15100
C 	C 	0.51916 0.62901 0.53358 -0.00100
C 	C 	0.51455 0.61033 0.55925 -0.05600
H 	H 	0.53793 0.57594 0.61318 0.05100
H 	H 	0.60780 0.63712 0.59557 0.05100
H 	H 	0.64268 0.61641 0.67614 0.04100
H 	H 	0.49832 0.59872 0.54322 0.04000
H 	H 	0.58328 0.56623 0.68871 0.09200
H 	H 	0.55841 0.64976 0.53290 0.09000
C 	C 	0.49808 0.51704 0.93210 0.07400
C 	C 	0.47821 0.50003 0.92540 -0.08400
C 	C 	0.44896 0.50221 0.89685 0.01000
C 	C 	0.44194 0.51984 0.86790 0.07200
C 	C 	0.46372 0.53606 0.86813 -0.08300
C 	C 	0.49062 0.53487 0.90461 0.01000
N 	N 	0.52966 0.51614 0.93966 -0.15300
C 	C 	0.54245 0.53318 0.91691 -0.00300
C 	C 	0.51903 0.54517 0.89448 -0.04700
N 	N 	0.42168 0.51610 0.82263 -0.15300
C 	C 	0.41641 0.49620 0.82130 -0.00000
C 	C 	0.43241 0.48709 0.86739 -0.05000
H 	H 	0.48615 0.48549 0.93829 0.05000
H 	H 	0.46089 0.54852 0.83822 0.05000
H 	H 	0.52279 0.55619 0.85977 0.05000
H 	H 	0.43788 0.47149 0.86899 0.04800
H 	H 	0.54182 0.50294 0.94430 0.08500
H 	H 	0.41788 0.52567 0.78681 0.08400
C 	C 	0.22054 0.53288 0.01335 0.07800
C 	C 	0.23770 0.53894 0.96265 -0.08700
C 	C 	0.23004 0.52975 0.90816 0.01100
C 	C 	0.20630 0.51488 0.90463 0.07600
C 	C 	0.18843 0.50937 0.95511 -0.08700
C 	C 	0.19660 0.51828 0.00958 0.01400
N 	N 	0.21537 0.54493 0.05994 -0.15000
C 	C 	0.18770 0.53855 0.08487 -0.00100
C 	C 	0.17564 0.52179 0.05539 -0.04900
N 	N 	0.21299 0.50195 0.86103 -0.15200
C 	C 	0.24085 0.50835 0.83678 0.00500
C 	C 	0.25211 0.52560 0.86470 -0.04900
H 	H 	0.25642 0.55031 0.96553 0.05100
H 	H 	0.16970 0.49801 0.95243 0.05100
H 	H 	0.15135 0.51610 0.05798 0.04300
H 	H 	0.27696 0.53019 0.86695 0.03900
H 	H 	0.22586 0.55907 0.06595 0.08400
H 	H 	0.20427 0.48723 0.85959 0.09400
C 	C 	0.26337 0.49812 0.39942 0.07500
C 	C 	0.28229 0.50359 0.44863 -0.08400
C 	C 	0.27435 0.49532 0.50402 0.01100
C 	C 	0.24995 0.48115 0.50984 0.07700
C 	C 	0.23200 0.47490 0.46038 -0.08600
C 	C 	0.23907 0.48366 0.40501 0.01100
N 	N 	0.25636 0.51104 0.35603 -0.15100
C 	C 	0.22768 0.50516 0.33417 0.00500
C 	C 	0.21632 0.48813 0.36315 -0.04800
N 	N 	0.25506 0.46954 0.55737 -0.15000
C 	C 	0.28306 0.47583 0.58121 -0.00200
C 	C 	0.29551 0.49206 0.54969 -0.04800
H 	H 	0.30140 0.51465 0.44439 0.05000
H 	H 	0.21288 0.46386 0.46495 0.05100
H 	H 	0.19136 0.48402 0.36745 0.03900
H 	H 	0.31997 0.49747 0.55120 0.04300
H 	H 	0.26573 0.52560 0.35361 0.09300
H 	H 	0.24401 0.45565 0.56520 0.08400
C 	C 	0.30192 0.60858 0.53053 0.07300
C 	C 	0.28991 0.59145 0.50151 -0.08400
C 	C 	0.25761 0.59059 0.48655 0.01000
C 	C 	0.23900 0.60720 0.49270 0.07300
C 	C 	0.25230 0.62521 0.51416 -0.08300
C 	C 	0.28329 0.62518 0.53676 0.01000
N 	N 	0.33283 0.61419 0.52907 -0.15100
C 	C 	0.33409 0.63421 0.53342 -0.01000
C 	C 	0.30384 0.64163 0.53768 -0.04200
N 	N 	0.21509 0.60642 0.45300 -0.15100
C 	C 	0.21855 0.58964 0.42102 -0.00600
C 	C 	0.24478 0.57942 0.44014 -0.04400
H 	H 	0.30556 0.57988 0.48744 0.04800
H 	H 	0.23981 0.63895 0.50961 0.04900
H 	H 	0.29758 0.65643 0.52381 0.04700
H 	H 	0.25795 0.56930 0.41276 0.05100
H 	H 	0.35053 0.60586 0.50936 0.06300
H 	H 	0.20323 0.61884 0.43769 0.07300
C 	C 	0.75044 0.50779 0.64152 0.07400
C 	C 	0.76210 0.51678 0.69381 -0.08500
C 	C 	0.75011 0.50984 0.74854 0.00900
C 	C 	0.72674 0.49475 0.75094 0.07500
C 	C 	0.71566 0.48543 0.69869 -0.08400
C 	C 	0.72745 0.49250 0.64405 0.01100
N 	N 	0.76796 0.50619 0.59176 -0.15200
C 	C 	0.75657 0.48985 0.56295 0.00300
C 	C 	0.73147 0.48086 0.59408 -0.04500
N 	N 	0.70829 0.49707 0.79918 -0.15200
C 	C 	0.71955 0.51355 0.82753 -0.00200
C 	C 	0.74559 0.52186 0.79755 -0.04500
H 	H 	0.77997 0.52870 0.69198 0.04900
H 	H 	0.69780 0.47351 0.70046 0.05200
H 	H 	0.72448 0.46526 0.59098 0.05300
H 	H 	0.75267 0.53747 0.79948 0.04000
H 	H 	0.79105 0.51212 0.58686 0.07900
H 	H 	0.68497 0.49142 0.80280 0.08500
C 	C 	0.71918 0.50028 0.26244 0.07800
C 	C 	0.69187 0.50204 0.22754 -0.08400
C 	C 	0.68835 0.51982 0.19587 0.01300
C 	C 	0.71320 0.53396 0.19219 0.07500
C 	C 	0.74205 0.53092 0.22162 -0.08100
C 	C 	0.74355 0.51459 0.26013 0.00900
N 	N 	0.73050 0.48271 0.27927 -0.15200
C 	C 	0.76192 0.48569 0.28950 -0.00100
C 	C 	0.77104 0.50523 0.27557 -0.04400
N 	N 	0.71146 0.54408 0.14062 -0.15100
C 	C 	0.68595 0.53642 0.11106 0.00300
C 	C 	0.67101 0.52131 0.14389 -0.05000
H 	H 	0.67523 0.48958 0.22184 0.05200
H 	H 	0.76303 0.54003 0.21161 0.05200
H 	H 	0.79278 0.51279 0.28992 0.04000
H 	H 	0.65670 0.50926 0.12474 0.04400
H 	H 	0.71662 0.47058 0.29438 0.08800
H 	H 	0.73088 0.55129 0.12002 0.09300
C 	C 	0.68519 0.35803 0.60111 0.07300
C 	C 	0.69714 0.37754 0.60942 -0.08400
C 	C 	0.72946 0.38149 0.59832 0.01000
C 	C 	0.74827 0.36720 0.57247 0.07200
C 	C 	0.73520 0.34840 0.55745 -0.08500
C 	C 	0.70408 0.34366 0.57581 0.01000
N 	N 	0.65438 0.35381 0.58957 -0.15100
C 	C 	0.65344 0.33706 0.55637 -0.00600
C 	C 	0.68380 0.33033 0.54658 -0.04600
N 	N 	0.77194 0.37606 0.54101 -0.15100
C 	C 	0.76815 0.39586 0.54560 -0.01000
C 	C 	0.74196 0.39983 0.58073 -0.04300
H 	H 	0.68138 0.38949 0.61960 0.04900
H 	H 	0.74791 0.33846 0.52868 0.04900
H 	H 	0.69051 0.32125 0.50904 0.05200
H 	H 	0.72837 0.41318 0.57732 0.05000
H 	H 	0.63670 0.36435 0.58926 0.07400
H 	H 	0.78361 0.36932 0.50560 0.06600
C 	C 	0.92800 0.36937 0.12243 0.07200
C 	C 	0.92571 0.38908 0.14226 -0.08300
C 	C 	0.92028 0.39229 0.20298 0.00700
C 	C 	0.91463 0.37651 0.24175 0.07500
C 	C 	0.91517 0.35683 0.22159 -0.08600
C 	C 	0.92226 0.35350 0.16140 0.01200
N 	N 	0.94882 0.36421 0.08018 -0.15200
C 	C 	0.95718 0.34539 0.09240 -0.00100
C 	C 	0.94072 0.33817 0.14203 -0.04700
N 	N 	0.89684 0.38225 0.28795 -0.15400
C 	C 	0.89111 0.40166 0.27884 -0.00400
C 	C 	0.90511 0.40847 0.22632 -0.04000
H 	H 	0.92984 0.40146 0.11207 0.05000
H 	H 	0.91092 0.34451 0.25196 0.05100
H 	H 	0.94912 0.32655 0.17092 0.05400
H 	H 	0.89675 0.42079 0.20019 0.04800
H 	H 	0.96306 0.37446 0.05644 0.08300
H 	H 	0.88267 0.37263 0.31402 0.07500
C 	C 	0.96998 0.50402 0.43759 0.07400
C 	C 	0.98684 0.52147 0.42071 -0.08300
C 	C 	0.01752 0.51956 0.39771 0.01000
C 	C 	0.02882 0.50100 0.38281 0.07300
C 	C 	0.01014 0.48366 0.39253 -0.08300
C 	C 	0.98181 0.48541 0.42467 0.01000
N 	N 	0.93811 0.50284 0.44142 -0.15200
C 	C 	0.92946 0.48364 0.43088 -0.00200
C 	C 	0.95589 0.47236 0.41997 -0.04700
N 	N 	0.05017 0.50280 0.33839 -0.15400
C 	C 	0.05209 0.52227 0.32375 -0.00000
C 	C 	0.03261 0.53321 0.36036 -0.04800
H 	H 	0.97578 0.53577 0.42194 0.05100
H 	H 	0.01641 0.46963 0.37276 0.05000
H 	H 	0.95555 0.45877 0.39406 0.05100
H 	H 	0.02441 0.54794 0.35042 0.05000
H 	H 	0.92335 0.51485 0.43501 0.08600
H 	H 	0.05730 0.49119 0.31101 0.08300
C 	C 	0.02468 0.76496 0.71141 0.07500
C 	C 	0.01439 0.74765 0.74140 -0.08500
C 	C 	0.98221 0.74566 0.75685 0.01400
C 	C 	0.96102 0.76043 0.74303 0.07400
C 	C 	0.97130 0.77759 0.71208 -0.08300
C 	C 	0.00363 0.77982 0.69818 0.00900
N 	N 	0.04899 0.76543 0.67254 -0.15300
C 	C 	0.04349 0.78049 0.63445 -0.00300
C 	C 	0.01554 0.78979 0.64875 -0.04600
N 	N 	0.93747 0.76053 0.78351 -0.15100
C 	C 	0.94366 0.74619 0.82361 -0.00100
C 	C 	0.97125 0.73662 0.80850 -0.05200
H 	H 	0.03083 0.73617 0.75236 0.05200
H 	H 	0.95490 0.78910 0.70105 0.05100
H 	H 	0.00132 0.79788 0.61734 0.05100
H 	H 	0.98626 0.72924 0.84025 0.04500
H 	H 	0.06304 0.75332 0.66285 0.08400
H 	H 	0.92413 0.77298 0.79306 0.08400
C 	C 	0.06601 0.74792 0.15473 0.07400
C 	C 	0.08137 0.74237 0.20738 -0.08300
C 	C 	0.10072 0.75677 0.23603 0.01100
C 	C 	0.10068 0.77665 0.21858 0.07600
C 	C 	0.08146 0.78265 0.17119 -0.08400
C 	C 	0.06633 0.76775 0.13671 0.01100
N 	N 	0.04003 0.73817 0.13342 -0.15100
C 	C 	0.02362 0.75169 0.10269 0.00000
C 	C 	0.03904 0.77024 0.10365 -0.04800
N 	N 	0.10843 0.78854 0.26499 -0.15200
C 	C 	0.11289 0.77637 0.31180 0.00200
C 	C 	0.10833 0.75657 0.29598 -0.04500
H 	H 	0.07701 0.72782 0.22695 0.05000
H 	H 	0.07711 0.79823 0.16356 0.05100
H 	H 	0.02758 0.78426 0.09722 0.04600
H 	H 	0.10209 0.74465 0.32669 0.04100
H 	H 	0.03009 0.72509 0.15164 0.08700
H 	H 	0.10267 0.80349 0.26855 0.07600
C 	C 	0.04310 0.65626 0.04503 0.07500
C 	C 	0.06296 0.65791 0.09510 -0.08600
C 	C 	0.06035 0.64311 0.13879 0.01000
C 	C 	0.04066 0.62639 0.13090 0.07300
C 	C 	0.02175 0.62424 0.07978 -0.08600
C 	C 	0.02308 0.63956 0.03724 0.00900
N 	N 	0.03043 0.67222 0.01935 -0.15200
C 	C 	0.00207 0.66612 0.99653 -0.00200
C 	C 	0.99691 0.64584 0.00618 -0.04700
N 	N 	0.05186 0.61088 0.16142 -0.15100
C 	C 	0.07866 0.61769 0.18865 -0.00200
C 	C 	0.08480 0.63763 0.17551 -0.04900
H 	H 	0.07865 0.67081 0.10125 0.05100
H 	H 	0.00613 0.61129 0.07381 0.05000
H 	H 	0.97360 0.63862 0.00895 0.04000
H 	H 	0.10812 0.64489 0.17647 0.04500
H 	H 	0.03599 0.68688 0.03206 0.09200
H 	H 	0.04701 0.59596 0.15074 0.08800
C 	C 	0.74141 0.63738 0.04354 0.07500
C 	C 	0.77387 0.64004 0.05656 -0.08500
C 	C 	0.79098 0.65507 0.02634 0.00900
C 	C 	0.77610 0.66808 0.98852 0.07100
C 	C 	0.74336 0.66633 0.97820 -0.08600
C 	C 	0.72628 0.65059 0.00582 0.01000
N 	N 	0.72714 0.61925 0.04018 -0.15100
C 	C 	0.70346 0.62050 0.99984 -0.00800
C 	C 	0.70195 0.63982 0.97824 -0.04800
N 	N 	0.79288 0.68538 0.98502 -0.15200
C 	C 	0.81813 0.68367 0.02161 -0.00900
C 	C 	0.81796 0.66488 0.04744 -0.05700
H 	H 	0.78568 0.62997 0.08627 0.05000
H 	H 	0.73174 0.67646 0.94842 0.05000
H 	H 	0.69241 0.64354 0.93494 0.03000
H 	H 	0.83114 0.66087 0.08684 0.04000
H 	H 	0.73830 0.60605 0.05085 0.09200
H 	H 	0.78415 0.69882 0.96972 0.09100
C 	C 	0.48543 0.70303 0.23647 0.07500
C 	C 	0.51603 0.71002 0.22072 -0.08300
C 	C 	0.51866 0.72491 0.17725 0.00900
C 	C 	0.49220 0.73458 0.15694 0.07400
C 	C 	0.46181 0.72926 0.17821 -0.08300
C 	C 	0.45870 0.71226 0.21448 0.01000
N 	N 	0.47885 0.69440 0.28930 -0.15300
C 	C 	0.44817 0.69799 0.30143 -0.00200
C 	C 	0.43488 0.70912 0.25619 -0.04400
N 	N 	0.50053 0.75304 0.13827 -0.15300
C 	C 	0.53237 0.75511 0.14506 0.00100
C 	C 	0.54415 0.73811 0.17132 -0.04700
H 	H 	0.53674 0.70507 0.24437 0.05200
H 	H 	0.44186 0.73865 0.17019 0.05300
H 	H 	0.41521 0.71888 0.26250 0.04700
H 	H 	0.56885 0.73421 0.17321 0.04500
H 	H 	0.49588 0.69137 0.32164 0.08400
H 	H 	0.48667 0.76180 0.11078 0.09000
C 	C 	0.52039 0.74276 0.81577 0.07400
C 	C 	0.50653 0.72572 0.78910 -0.08300
C 	C 	0.49262 0.72785 0.73278 0.01000
C 	C 	0.49671 0.74541 0.70046 0.07400
C 	C 	0.51441 0.76156 0.72407 -0.08400
C 	C 	0.52398 0.76043 0.78375 0.01200
N 	N 	0.54275 0.74198 0.85845 -0.15100
C 	C 	0.56129 0.75861 0.85260 -0.00100
C 	C 	0.55004 0.77058 0.80745 -0.05500
N 	N 	0.49493 0.74159 0.64171 -0.15300
C 	C 	0.49072 0.72170 0.63600 0.00000
C 	C 	0.48857 0.71269 0.69160 -0.05100
H 	H 	0.50834 0.71122 0.80959 0.05100
H 	H 	0.52217 0.77390 0.69606 0.05000
H 	H 	0.56350 0.78250 0.78575 0.04100
H 	H 	0.49180 0.69705 0.70023 0.04600
H 	H 	0.54943 0.72908 0.88045 0.08300
H 	H 	0.50339 0.75111 0.60806 0.08600
C 	C 	0.71635 0.88143 0.79589 0.07500
C 	C 	0.71732 0.87265 0.85241 -0.08400
C 	C 	0.69157 0.87527 0.89096 0.01200
C 	C 	0.66606 0.88668 0.87402 0.07200
C 	C 	0.66619 0.89647 0.81865 -0.08300
C 	C 	0.69109 0.89291 0.77917 0.00800
N 	N 	0.74250 0.88675 0.76476 -0.15300
C 	C 	0.73406 0.90168 0.72836 -0.01100
C 	C 	0.70232 0.90607 0.73614 -0.04200
N 	N 	0.63913 0.87941 0.89925 -0.15100
C 	C 	0.64689 0.86319 0.93097 -0.00700
C 	C 	0.67938 0.86041 0.92762 -0.04400
H 	H 	0.73698 0.86362 0.86535 0.05000
H 	H 	0.64662 0.90554 0.80550 0.04900
H 	H 	0.69233 0.92036 0.72674 0.04900
H 	H 	0.69014 0.84611 0.93320 0.05100
H 	H 	0.76572 0.88433 0.77873 0.07900
H 	H 	0.61652 0.88147 0.88150 0.06900
C 	C 	0.40954 0.87462 0.06197 0.07200
C 	C 	0.41829 0.86832 0.00498 -0.08300
C 	C 	0.42679 0.84845 0.99778 0.00700
C 	C 	0.42630 0.83531 0.04585 0.07500
C 	C 	0.41584 0.84144 0.10217 -0.08700
C 	C 	0.40855 0.86145 0.10956 0.01100
N 	N 	0.38969 0.88955 0.07159 -0.15100
C 	C 	0.37517 0.88560 0.12413 0.00100
C 	C 	0.38669 0.86846 0.14961 -0.05500
N 	N 	0.44895 0.82182 0.03911 -0.15300
C 	C 	0.46431 0.82636 0.98772 0.00000
C 	C 	0.45086 0.84266 0.96051 -0.04700
H 	H 	0.41907 0.87858 0.96778 0.04900
H 	H 	0.41499 0.83124 0.13950 0.05000
H 	H 	0.37497 0.85978 0.18432 0.04100
H 	H 	0.46345 0.85266 0.93015 0.04300
H 	H 	0.38100 0.89892 0.03865 0.09000
H 	H 	0.45918 0.81425 0.07459 0.08700
C 	C 	0.74603 0.80257 0.02950 0.07300
C 	C 	0.77697 0.80765 0.01058 -0.08000
C 	C 	0.80233 0.79902 0.04046 0.00800
C 	C 	0.79695 0.78374 0.08148 0.07700
C 	C 	0.76593 0.77713 0.09541 -0.08400
C 	C 	0.74071 0.78773 0.07205 0.01300
N 	N 	0.72053 0.80387 0.99373 -0.15200
C 	C 	0.69950 0.78961 0.01201 0.00200
C 	C 	0.71079 0.77951 0.06104 -0.05300
N 	N 	0.82166 0.77160 0.08205 -0.15300
C 	C 	0.84277 0.77887 0.04168 -0.00200
C 	C 	0.83160 0.79588 0.01480 -0.04100
H 	H 	0.78103 0.81675 0.97131 0.05000
H 	H 	0.76161 0.76338 0.11964 0.05200
H 	H 	0.70244 0.76487 0.07524 0.04400
H 	H 	0.83833 0.80085 0.97050 0.04700
H 	H 	0.72078 0.81029 0.95129 0.09000
H 	H 	0.82018 0.75672 0.09561 0.08500
