data_crystal

_cell_length_a 48.27704
_cell_length_b 48.33585
_cell_length_c 29.57680
_cell_angle_alpha 90.97664
_cell_angle_beta  89.22914
_cell_angle_gamma 89.99214

_symmetry_space_group_name_	'P 1'
_symmetry_space_group_name_H-M	'P 1'

loop_
_symmetry_equiv_pos_as_xyz
  x,y,z

loop_
_atom_site_label
_atom_site_type_symbol
_atom_site_fract_x
_atom_site_fract_y
_atom_site_fract_z
_atom_site_charge
Cd	Cd	0.92967 0.91840 0.13848 1.24500
Cd	Cd	0.97376 0.97840 0.14495 1.17600
O 	O 	0.93406 0.88371 0.19807 -0.30900
O 	O 	0.90227 0.88004 0.14566 -0.33900
C 	C 	0.91333 0.86990 0.18169 0.29800
O 	O 	0.91251 0.94582 0.08621 -0.35800
O 	O 	0.95030 0.97322 0.08084 -0.40700
C 	C 	0.92320 0.97074 0.08266 0.31200
C 	C 	0.91718 0.96179 0.20277 0.32200
O 	O 	0.98242 0.93104 0.13868 -0.45300
O 	O 	0.89632 0.94474 0.19774 -0.27400
O 	O 	0.93981 0.95420 0.18196 -0.53400
C 	C 	0.98617 0.91537 0.10272 0.30900
O 	O 	0.96390 0.90270 0.08848 -0.33500
Cd	Cd	0.02018 0.95226 0.98445 1.24200
Cd	Cd	0.98838 0.01471 0.94454 1.16100
O 	O 	0.03186 0.91564 0.92847 -0.30800
O 	O 	0.04359 0.91256 0.99981 -0.34500
C 	C 	0.04381 0.90138 0.95953 0.29900
O 	O 	0.02098 0.98043 0.04471 -0.40600
O 	O 	0.98874 0.01046 0.01983 -0.42400
C 	C 	0.01226 0.00606 0.04047 0.29200
C 	C 	0.05319 0.99317 0.94050 0.32900
O 	O 	0.97517 0.96850 0.94367 -0.46700
O 	O 	0.06854 0.97501 0.96084 -0.29500
O 	O 	0.02702 0.98729 0.93874 -0.53600
C 	C 	0.96082 0.95556 0.97434 0.31900
O 	O 	0.97487 0.93986 0.00120 -0.33800
C 	C 	0.07811 0.73028 0.78551 0.14700
N 	N 	0.09159 0.70649 0.79519 -0.13900
C 	C 	0.08982 0.68416 0.76693 0.13400
N 	N 	0.07449 0.68566 0.72886 -0.14300
C 	C 	0.06175 0.70970 0.71828 0.13500
N 	N 	0.06297 0.73176 0.74720 -0.13100
C 	C 	0.94716 0.70224 0.35337 0.14800
N 	N 	0.95186 0.67627 0.33671 -0.13100
C 	C 	0.96267 0.65664 0.36366 0.13400
N 	N 	0.96896 0.66308 0.40721 -0.14300
C 	C 	0.96421 0.68899 0.42404 0.13400
N 	N 	0.95343 0.70857 0.39697 -0.13900
Cd	Cd	0.86728 0.07301 0.76402 1.24500
Cd	Cd	0.91853 0.04446 0.83480 1.15100
O 	O 	0.82758 0.09816 0.79827 -0.31000
O 	O 	0.83381 0.09515 0.72483 -0.33100
C 	C 	0.81814 0.10358 0.75843 0.29300
O 	O 	0.90036 0.05956 0.71560 -0.37400
O 	O 	0.92062 0.02867 0.76282 -0.44700
C 	C 	0.92182 0.04427 0.72667 0.31400
C 	C 	0.90819 0.10802 0.80350 0.32400
O 	O 	0.87121 0.03663 0.82870 -0.46400
O 	O 	0.89533 0.12087 0.77133 -0.27500
O 	O 	0.89774 0.08446 0.81484 -0.55000
C 	C 	0.85925 0.01873 0.80194 0.30700
O 	O 	0.84961 0.02828 0.76434 -0.32300
Cd	Cd	0.83734 0.00914 0.57215 1.24400
Cd	Cd	0.89415 0.05731 0.56382 1.16700
O 	O 	0.80103 0.01281 0.51496 -0.31100
O 	O 	0.80048 0.97957 0.56498 -0.33700
C 	C 	0.78848 0.99131 0.53111 0.29500
O 	O 	0.86763 0.99290 0.62122 -0.35600
O 	O 	0.89326 0.03208 0.62648 -0.41000
C 	C 	0.89206 0.00492 0.62362 0.32100
C 	C 	0.87969 0.00070 0.50470 0.32500
O 	O 	0.84657 0.06243 0.57443 -0.46900
O 	O 	0.86432 0.97861 0.50965 -0.27900
O 	O 	0.87108 0.02243 0.52699 -0.54300
C 	C 	0.83193 0.06454 0.61170 0.31200
O 	O 	0.82063 0.04142 0.62503 -0.33200
C 	C 	0.63722 0.08702 0.88220 0.14400
N 	N 	0.61100 0.08357 0.86686 -0.14000
C 	C 	0.59218 0.06899 0.89130 0.13300
N 	N 	0.59947 0.05822 0.93155 -0.14300
C 	C 	0.62535 0.06236 0.94768 0.13500
N 	N 	0.64445 0.07592 0.92231 -0.13000
C 	C 	0.63704 0.95705 0.31870 0.14400
N 	N 	0.64513 0.96912 0.27943 -0.12900
C 	C 	0.62622 0.97450 0.24715 0.13500
N 	N 	0.59894 0.96983 0.25551 -0.14300
C 	C 	0.59066 0.95856 0.29514 0.13300
N 	N 	0.60980 0.95124 0.32597 -0.14000
Cd	Cd	0.88855 0.16609 0.35952 1.24400
Cd	Cd	0.88150 0.10138 0.41570 1.17500
O 	O 	0.90706 0.20757 0.39924 -0.29700
O 	O 	0.89773 0.20729 0.32659 -0.34500
C 	C 	0.90611 0.22126 0.36177 0.29300
O 	O 	0.87889 0.13642 0.30380 -0.37200
O 	O 	0.86149 0.10159 0.34720 -0.41900
C 	C 	0.87408 0.10990 0.30999 0.31700
C 	C 	0.93638 0.13312 0.37615 0.32800
O 	O 	0.86208 0.14479 0.42844 -0.46100
O 	O 	0.94200 0.15200 0.34618 -0.28600
O 	O 	0.91216 0.13484 0.39514 -0.52500
C 	C 	0.83905 0.15432 0.41254 0.31100
O 	O 	0.84159 0.17075 0.37810 -0.33900
Cd	Cd	0.14810 0.19247 0.91111 1.24300
Cd	Cd	0.12958 0.12671 0.86304 1.18400
O 	O 	0.13582 0.23506 0.87124 -0.30900
O 	O 	0.15481 0.23635 0.93841 -0.33300
C 	C 	0.14480 0.25005 0.90487 0.29800
O 	O 	0.15733 0.16337 0.96611 -0.37900
O 	O 	0.15933 0.12498 0.92044 -0.41600
C 	C 	0.15366 0.13658 0.96007 0.31500
C 	C 	0.09190 0.17386 0.91707 0.32100
O 	O 	0.15740 0.16265 0.83718 -0.45700
O 	O 	0.09638 0.19465 0.94493 -0.28300
O 	O 	0.11223 0.16795 0.88952 -0.53200
C 	C 	0.18388 0.16632 0.84308 0.31300
O 	O 	0.19046 0.18296 0.87653 -0.34400
C 	C 	0.13070 0.43830 0.79228 0.14700
N 	N 	0.13034 0.46475 0.80865 -0.13400
C 	C 	0.12420 0.48590 0.78081 0.13500
N 	N 	0.11683 0.48043 0.73747 -0.14300
C 	C 	0.11620 0.45399 0.72154 0.13500
N 	N 	0.12402 0.43304 0.74850 -0.13700
C 	C 	0.98902 0.40971 0.37628 0.14600
N 	N 	0.00452 0.41066 0.41426 -0.13200
C 	C 	0.01435 0.43518 0.43018 0.13600
N 	N 	0.00844 0.45887 0.40832 -0.14200
C 	C 	0.99183 0.45822 0.37167 0.13400
N 	N 	0.98229 0.43359 0.35539 -0.13800
Cd	Cd	0.16923 0.06490 0.59672 1.24200
Cd	Cd	0.13408 0.12182 0.65576 1.17600
O 	O 	0.21702 0.05794 0.62146 -0.31600
O 	O 	0.19611 0.02762 0.57708 -0.32200
C 	C 	0.21832 0.03453 0.59919 0.29000
O 	O 	0.12426 0.06115 0.57925 -0.36100
O 	O 	0.10130 0.09358 0.62531 -0.40400
C 	C 	0.10366 0.06804 0.60780 0.31100
C 	C 	0.15244 0.06148 0.68894 0.32400
O 	O 	0.15239 0.11516 0.58490 -0.46300
O 	O 	0.15497 0.03711 0.66940 -0.26200
O 	O 	0.15905 0.08261 0.66428 -0.52700
C 	C 	0.17575 0.11918 0.56416 0.32000
O 	O 	0.18574 0.09683 0.54463 -0.33900
Cd	Cd	0.09137 0.92352 0.40584 1.24200
Cd	Cd	0.02379 0.93389 0.35926 1.18700
O 	O 	0.13123 0.94867 0.37358 -0.31400
O 	O 	0.13532 0.92254 0.43309 -0.33400
C 	C 	0.14743 0.93852 0.40392 0.29900
O 	O 	0.06352 0.90189 0.45414 -0.37500
O 	O 	0.02657 0.89862 0.40724 -0.40500
C 	C 	0.03650 0.90203 0.44821 0.31400
C 	C 	0.06065 0.97245 0.42906 0.32600
O 	O 	0.06532 0.91729 0.32898 -0.46000
O 	O 	0.08191 0.96958 0.45557 -0.29000
O 	O 	0.05988 0.95546 0.39471 -0.52500
C 	C 	0.07395 0.89176 0.32717 0.31100
O 	O 	0.09174 0.88493 0.35791 -0.34000
C 	C 	0.36171 0.98322 0.80252 0.14600
N 	N 	0.38854 0.99027 0.79426 -0.13200
C 	C 	0.40630 0.99369 0.82914 0.13600
N 	N 	0.39746 0.98917 0.87208 -0.14300
C 	C 	0.37063 0.98246 0.88056 0.13400
N 	N 	0.35278 0.97944 0.84576 -0.13900
C 	C 	0.33939 0.94955 0.28542 0.14800
N 	N 	0.36488 0.95228 0.30395 -0.13200
C 	C 	0.38745 0.95617 0.27689 0.13500
N 	N 	0.38444 0.95779 0.23145 -0.14300
C 	C 	0.35898 0.95554 0.21294 0.13500
N 	N 	0.33656 0.95070 0.23985 -0.13700
C 	C 	0.35581 0.95822 0.16363 -0.04700
C 	C 	0.33668 0.97713 0.14528 0.10800
C 	C 	0.33409 0.97857 0.09816 -0.08400
C 	C 	0.35224 0.96390 0.06915 -0.00400
C 	C 	0.37199 0.94566 0.08751 0.07500
C 	C 	0.37287 0.94234 0.13451 -0.05000
N 	N 	0.32193 0.99493 0.17240 -0.19800
H 	H 	0.31911 0.99262 0.08401 0.06100
C 	C 	0.35249 0.97027 0.02030 -0.00200
N 	N 	0.39041 0.93168 0.06039 -0.19400
H 	H 	0.38747 0.92787 0.14857 0.05600
C 	C 	0.36384 0.99545 0.00629 -0.08000
C 	C 	0.36686 0.00115 0.96017 0.10100
C 	C 	0.36057 0.98034 0.92767 -0.04700
C 	C 	0.34730 0.95601 0.94147 -0.05100
C 	C 	0.34249 0.95110 0.98763 0.07100
H 	H 	0.37027 0.01068 0.03137 0.05700
N 	N 	0.37502 0.02680 0.94726 -0.19800
H 	H 	0.34143 0.94053 0.91642 0.05900
N 	N 	0.32870 0.92790 0.00031 -0.19100
H 	H 	0.38099 0.04161 0.97138 0.09000
H 	H 	0.37391 0.03280 0.91358 0.09600
H 	H 	0.32216 0.91345 0.97603 0.09500
H 	H 	0.32365 0.92436 0.03416 0.09900
H 	H 	0.40456 0.91795 0.07429 0.09200
H 	H 	0.39133 0.93462 0.02554 0.09500
H 	H 	0.32683 0.99805 0.20636 0.10000
H 	H 	0.30660 0.00745 0.15878 0.09700
C 	C 	0.31459 0.94876 0.31466 -0.03800
C 	C 	0.30849 0.92531 0.34061 0.12500
C 	C 	0.28280 0.92331 0.36290 -0.06800
C 	C 	0.26299 0.94433 0.35886 0.01500
C 	C 	0.26986 0.96855 0.33542 0.09600
C 	C 	0.29557 0.97064 0.31348 -0.03900
H 	H 	0.27770 0.90479 0.38140 0.08400
C 	C 	0.23411 0.93924 0.37334 0.02500
H 	H 	0.30042 0.98895 0.29423 0.06700
C 	C 	0.22453 0.94956 0.41535 -0.07800
C 	C 	0.19626 0.94855 0.42655 0.14500
C 	C 	0.17744 0.93692 0.39561 -0.08400
C 	C 	0.18729 0.92522 0.35477 -0.01100
C 	C 	0.21544 0.92635 0.34350 0.08700
H 	H 	0.23890 0.95925 0.43858 0.08700
H 	H 	0.17292 0.91578 0.33126 0.06900
Br	Br	0.24379 0.99836 0.33105 -0.20800
Br	Br	0.33418 0.89510 0.34373 -0.21500
Br	Br	0.18361 0.96432 0.48316 -0.19300
Br	Br	0.22790 0.91116 0.28633 -0.20200
C 	C 	0.24045 0.01459 0.60807 -0.07700
C 	C 	0.23540 0.99239 0.63739 0.14600
C 	C 	0.25723 0.98137 0.66204 -0.07800
C 	C 	0.28392 0.99255 0.65792 0.02400
C 	C 	0.28965 0.01133 0.62320 0.08900
C 	C 	0.26789 0.02218 0.59825 -0.01500
H 	H 	0.25297 0.96587 0.68725 0.08600
C 	C 	0.30343 0.98957 0.69550 0.01500
H 	H 	0.27205 0.03838 0.57419 0.06800
C 	C 	0.32350 0.96859 0.69379 -0.06900
C 	C 	0.34254 0.96610 0.72885 0.12200
C 	C 	0.34142 0.98471 0.76604 -0.03800
C 	C 	0.32106 0.00537 0.76800 -0.04300
C 	C 	0.30213 0.00791 0.73301 0.09600
H 	H 	0.32440 0.95432 0.66515 0.08500
H 	H 	0.32015 0.01972 0.79655 0.06700
Br	Br	0.32666 0.02438 0.61250 -0.20700
Br	Br	0.19854 0.97878 0.64767 -0.18000
Br	Br	0.36932 0.93674 0.72597 -0.21400
Br	Br	0.27481 0.03682 0.73676 -0.22500
C 	C 	0.10429 0.44791 0.67686 -0.04700
C 	C 	0.08018 0.43138 0.67233 0.10800
C 	C 	0.06923 0.42655 0.62923 -0.08400
C 	C 	0.08018 0.44001 0.59141 -0.00200
C 	C 	0.10419 0.45660 0.59585 0.07400
C 	C 	0.11625 0.46002 0.63852 -0.04900
N 	N 	0.06666 0.42131 0.70923 -0.19800
H 	H 	0.05090 0.41377 0.62558 0.06200
C 	C 	0.06429 0.43933 0.54895 -0.00500
N 	N 	0.11568 0.46934 0.55946 -0.19400
H 	H 	0.13473 0.47260 0.64204 0.05500
C 	C 	0.04092 0.45635 0.54573 -0.08300
C 	C 	0.02330 0.45400 0.50857 0.10400
C 	C 	0.03071 0.43612 0.47191 -0.04400
C 	C 	0.05431 0.41934 0.47481 -0.05200
C 	C 	0.07096 0.42040 0.51338 0.07800
H 	H 	0.03567 0.47050 0.57338 0.05800
N 	N 	0.99874 0.46783 0.50933 -0.19800
H 	H 	0.05980 0.40545 0.44692 0.06900
N 	N 	0.09332 0.40336 0.51589 -0.19500
H 	H 	0.99425 0.48225 0.53513 0.09000
H 	H 	0.98316 0.46306 0.48636 0.09600
H 	H 	0.09805 0.38948 0.48943 0.09900
H 	H 	0.10620 0.40370 0.54395 0.09800
H 	H 	0.13324 0.48178 0.56320 0.09200
H 	H 	0.10754 0.46687 0.52714 0.09500
H 	H 	0.07127 0.42817 0.74190 0.10000
H 	H 	0.04995 0.40777 0.70530 0.09700
C 	C 	0.22482 0.18254 0.73872 -0.10800
C 	C 	0.21981 0.15825 0.71352 -0.00500
C 	C 	0.21098 0.13432 0.73615 0.10400
C 	C 	0.20262 0.13619 0.78157 -0.04000
C 	C 	0.20312 0.16176 0.80463 -0.13200
C 	C 	0.21641 0.18444 0.78422 0.19700
C 	C 	0.21671 0.15973 0.66396 0.00900
O 	O 	0.20753 0.10988 0.71263 -0.30200
H 	H 	0.19341 0.11833 0.79759 0.02500
O 	O 	0.21856 0.20926 0.80707 -0.28000
H 	H 	0.23279 0.20072 0.72201 0.08800
C 	C 	0.19309 0.17260 0.64631 0.08400
C 	C 	0.18277 0.16363 0.60458 -0.05100
C 	C 	0.19464 0.14047 0.58263 -0.14500
C 	C 	0.22190 0.13312 0.59407 0.19700
C 	C 	0.23274 0.14242 0.63540 -0.11400
O 	O 	0.17890 0.19227 0.67135 -0.25900
H 	H 	0.16319 0.17173 0.59310 0.03100
O 	O 	0.23807 0.11774 0.56458 -0.27400
H 	H 	0.25237 0.13441 0.64679 0.08400
H 	H 	0.23684 0.20869 0.82195 0.16200
H 	H 	0.16499 0.18188 0.68930 0.09400
H 	H 	0.23715 0.09851 0.57556 0.16200
H 	H 	0.22532 0.09985 0.71552 0.16800
C 	C 	0.14938 0.27994 0.90025 -0.08300
C 	C 	0.13905 0.29895 0.93300 0.14600
C 	C 	0.13914 0.32729 0.92391 -0.07800
C 	C 	0.14868 0.33673 0.88189 0.02400
C 	C 	0.16089 0.31793 0.85068 0.08700
C 	C 	0.16140 0.28973 0.86017 -0.01300
H 	H 	0.13019 0.34179 0.94835 0.08700
C 	C 	0.14212 0.36514 0.86808 0.01500
H 	H 	0.17010 0.27525 0.83544 0.07300
C 	C 	0.16309 0.38523 0.86739 -0.06900
C 	C 	0.15918 0.41004 0.84452 0.12500
C 	C 	0.13376 0.41513 0.82332 -0.03900
C 	C 	0.11199 0.39615 0.82778 -0.03800
C 	C 	0.11610 0.37113 0.84965 0.09500
H 	H 	0.18299 0.38087 0.88224 0.08400
H 	H 	0.09219 0.40031 0.81244 0.06600
Br	Br	0.17529 0.33014 0.79355 -0.20400
Br	Br	0.12274 0.28656 0.98865 -0.19900
Br	Br	0.18942 0.43567 0.83987 -0.22300
Br	Br	0.08649 0.34461 0.85132 -0.20700
C 	C 	0.97451 0.07996 0.44459 -0.10600
C 	C 	0.99282 0.06886 0.41199 -0.00100
C 	C 	0.99389 0.08006 0.36840 0.12600
C 	C 	0.97588 0.10153 0.35718 -0.03100
C 	C 	0.95679 0.11204 0.38931 -0.13300
C 	C 	0.95660 0.10153 0.43359 0.16500
C 	C 	0.00952 0.04432 0.42261 0.01600
O 	O 	0.01174 0.06930 0.33619 -0.28400
H 	H 	0.97635 0.10956 0.32320 0.07100
O 	O 	0.93975 0.11303 0.46657 -0.28800
H 	H 	0.97386 0.07160 0.47836 0.05200
C 	C 	0.03768 0.04704 0.43339 0.11100
C 	C 	0.05405 0.02336 0.43827 -0.01400
C 	C 	0.04246 0.99693 0.43210 -0.16000
C 	C 	0.01382 0.99432 0.42460 0.21200
C 	C 	0.99749 0.01800 0.42018 -0.12900
O 	O 	0.04951 0.07276 0.43708 -0.26900
H 	H 	0.07596 0.02558 0.44494 0.06600
O 	O 	0.00193 0.96870 0.42006 -0.42300
H 	H 	0.97552 0.01588 0.41409 0.08800
H 	H 	0.92322 0.10088 0.46792 0.02900
H 	H 	0.04688 0.07842 0.46924 0.14700
H 	H 	0.99489 0.96415 0.45063 0.17400
H 	H 	0.02897 0.08033 0.33908 0.16100
C 	C 	0.97710 0.38315 0.36084 -0.03800
C 	C 	0.99352 0.35902 0.35846 0.12300
C 	C 	0.98088 0.33309 0.35425 -0.07000
C 	C 	0.95207 0.33101 0.34996 0.01600
C 	C 	0.93597 0.35525 0.34775 0.09400
C 	C 	0.94848 0.38116 0.35367 -0.04100
H 	H 	0.99345 0.31452 0.35464 0.08600
C 	C 	0.93876 0.30350 0.35156 0.02600
H 	H 	0.93579 0.39966 0.35425 0.07100
C 	C 	0.92428 0.29574 0.39077 -0.08000
C 	C 	0.91250 0.26938 0.39381 0.14500
C 	C 	0.91659 0.24986 0.35825 -0.08300
C 	C 	0.93076 0.25783 0.31876 -0.01400
C 	C 	0.94149 0.28459 0.31505 0.08500
H 	H 	0.92180 0.31039 0.41867 0.08600
H 	H 	0.93354 0.24316 0.29095 0.07600
Br	Br	0.89692 0.35334 0.33663 -0.20200
Br	Br	0.03326 0.36111 0.35867 -0.21800
Br	Br	0.88888 0.26155 0.44483 -0.20900
Br	Br	0.95919 0.29516 0.25944 -0.19500
C 	C 	0.56093 0.95451 0.30463 -0.04800
C 	C 	0.54706 0.96949 0.33985 0.10700
C 	C 	0.51818 0.96718 0.34457 -0.08500
C 	C 	0.50281 0.95171 0.31323 -0.00300
C 	C 	0.51673 0.93606 0.27893 0.07500
C 	C 	0.54572 0.93731 0.27551 -0.04900
N 	N 	0.56110 0.98690 0.36804 -0.19900
H 	H 	0.50745 0.97884 0.37112 0.06200
C 	C 	0.47235 0.95524 0.31271 -0.00400
N 	N 	0.50241 0.92024 0.24875 -0.19400
H 	H 	0.55642 0.92558 0.24901 0.05300
C 	C 	0.46132 0.97870 0.29236 -0.08300
C 	C 	0.43275 0.98093 0.28538 0.10600
C 	C 	0.41522 0.95856 0.29658 -0.04500
C 	C 	0.42583 0.93634 0.32088 -0.05100
C 	C 	0.45431 0.93470 0.32978 0.07700
H 	H 	0.47506 0.99508 0.28134 0.05900
N 	N 	0.42220 0.00467 0.26853 -0.19900
H 	H 	0.41216 0.91971 0.33111 0.06700
N 	N 	0.46422 0.91317 0.35379 -0.19400
H 	H 	0.43538 0.02065 0.25849 0.09200
H 	H 	0.40085 0.00801 0.26736 0.09800
H 	H 	0.45086 0.89767 0.36511 0.09900
H 	H 	0.48508 0.91198 0.36242 0.09800
H 	H 	0.51290 0.90897 0.22336 0.09100
H 	H 	0.48086 0.91883 0.25015 0.09500
H 	H 	0.58206 0.99123 0.36304 0.10100
H 	H 	0.55074 0.99717 0.39467 0.09700
C 	C 	0.56459 0.06297 0.87257 -0.04700
C 	C 	0.54037 0.06562 0.89980 0.10500
C 	C 	0.51560 0.05353 0.88509 -0.08400
C 	C 	0.51407 0.04085 0.84221 -0.00400
C 	C 	0.53747 0.04107 0.81282 0.07600
C 	C 	0.56271 0.05168 0.82866 -0.05100
N 	N 	0.54056 0.08055 0.93919 -0.19800
H 	H 	0.49733 0.05432 0.90681 0.05800
C 	C 	0.48782 0.02736 0.82876 -0.00400
N 	N 	0.53596 0.03081 0.76981 -0.19400
H 	H 	0.58109 0.05041 0.80723 0.05800
C 	C 	0.46560 0.04402 0.81592 -0.08400
C 	C 	0.43875 0.03307 0.81285 0.10600
C 	C 	0.43436 0.00458 0.82112 -0.04600
C 	C 	0.45707 0.98743 0.82953 -0.04800
C 	C 	0.48376 0.99858 0.83416 0.07600
H 	H 	0.46896 0.06593 0.81070 0.06100
N 	N 	0.41725 0.05016 0.80339 -0.19900
H 	H 	0.45373 0.96554 0.83494 0.05800
N 	N 	0.50519 0.98167 0.84465 -0.19400
H 	H 	0.42075 0.07118 0.79779 0.09500
H 	H 	0.39696 0.04292 0.80143 0.10200
H 	H 	0.50188 0.96051 0.84911 0.09300
H 	H 	0.52531 0.98919 0.84813 0.09500
H 	H 	0.55351 0.03052 0.74870 0.09800
H 	H 	0.51735 0.02349 0.75661 0.09800
H 	H 	0.55738 0.09308 0.94773 0.09600
H 	H 	0.52304 0.08115 0.96034 0.09000
C 	C 	0.63521 0.98529 0.20297 -0.04300
C 	C 	0.62771 0.97163 0.16222 0.10800
C 	C 	0.63054 0.98548 0.12110 -0.08300
C 	C 	0.64229 0.01198 0.11971 -0.00400
C 	C 	0.65270 0.02430 0.15982 0.07700
C 	C 	0.64863 0.01099 0.20128 -0.05000
N 	N 	0.61826 0.94511 0.16232 -0.19900
H 	H 	0.62339 0.97569 0.09012 0.06000
C 	C 	0.64106 0.02765 0.07709 -0.00400
N 	N 	0.66662 0.04874 0.15872 -0.19400
H 	H 	0.65525 0.02103 0.23238 0.05800
C 	C 	0.62108 0.04850 0.07315 -0.08400
C 	C 	0.61727 0.06176 0.03185 0.11000
C 	C 	0.63246 0.05268 0.99311 -0.04600
C 	C 	0.65332 0.03273 0.99745 -0.05200
C 	C 	0.65814 0.02046 0.03937 0.07900
H 	H 	0.60851 0.05447 0.10238 0.06000
N 	N 	0.59956 0.08360 0.02988 -0.19900
H 	H 	0.66553 0.02641 0.96801 0.05800
N 	N 	0.67922 0.00201 0.04324 -0.19500
H 	H 	0.58739 0.08929 0.05802 0.09300
H 	H 	0.59882 0.09601 0.00138 0.10200
H 	H 	0.69121 0.99622 0.01494 0.09700
H 	H 	0.68451 0.99395 0.07449 0.09900
H 	H 	0.67348 0.05813 0.18863 0.09600
H 	H 	0.67159 0.05817 0.12817 0.09900
H 	H 	0.61873 0.93328 0.19152 0.10400
H 	H 	0.61161 0.93558 0.13239 0.09400
C 	C 	0.82246 0.13742 0.59281 -0.10900
C 	C 	0.79592 0.13480 0.57412 0.00200
C 	C 	0.77796 0.11473 0.59226 0.12700
C 	C 	0.78916 0.09259 0.61609 -0.03000
C 	C 	0.81799 0.09105 0.62174 -0.10500
C 	C 	0.83346 0.11550 0.61721 0.17800
C 	C 	0.79179 0.14417 0.52712 0.01300
O 	O 	0.75052 0.11442 0.58092 -0.25500
H 	H 	0.77617 0.07505 0.62427 0.08800
O 	O 	0.86028 0.11675 0.63194 -0.27400
H 	H 	0.83586 0.15432 0.58308 0.06700
C 	C 	0.79875 0.17142 0.51523 0.11800
C 	C 	0.80988 0.17652 0.47205 -0.02700
C 	C 	0.81403 0.15444 0.44122 -0.12000
C 	C 	0.80081 0.12911 0.44954 0.17500
C 	C 	0.78948 0.12407 0.49242 -0.11100
O 	O 	0.79527 0.19282 0.54586 -0.25600
H 	H 	0.81805 0.19683 0.46453 0.07100
O 	O 	0.80119 0.10841 0.41719 -0.26900
H 	H 	0.78205 0.10350 0.50007 0.09200
H 	H 	0.87197 0.11079 0.60571 0.08400
H 	H 	0.81365 0.19576 0.55967 0.15100
H 	H 	0.81807 0.09740 0.42310 0.09600
H 	H 	0.74094 0.12507 0.60546 0.16800
C 	C 	0.97111 0.91773 0.51546 -0.11900
C 	C 	0.98016 0.93961 0.54332 0.00100
C 	C 	0.00865 0.94578 0.54518 0.11800
C 	C 	0.02744 0.93151 0.51683 -0.03500
C 	C 	0.01794 0.91169 0.48541 -0.13900
C 	C 	0.98984 0.90377 0.48655 0.19000
C 	C 	0.95954 0.95745 0.56728 0.00700
O 	O 	0.01823 0.96549 0.57498 -0.26800
H 	H 	0.04918 0.93699 0.51759 0.06700
O 	O 	0.98049 0.88301 0.45848 -0.29200
H 	H 	0.94939 0.91207 0.51522 0.08100
C 	C 	0.95414 0.98428 0.55188 0.10200
C 	C 	0.93368 0.00052 0.57319 -0.01000
C 	C 	0.91681 0.98946 0.60743 -0.15700
C 	C 	0.92238 0.96275 0.62328 0.20700
C 	C 	0.94372 0.94687 0.60324 -0.12200
O 	O 	0.96668 0.99350 0.51311 -0.29300
H 	H 	0.92986 0.02115 0.56112 -0.05100
O 	O 	0.90670 0.95193 0.65772 -0.27300
H 	H 	0.94771 0.92620 0.61521 0.08300
H 	H 	0.98245 0.86578 0.47591 0.16000
H 	H 	0.98254 0.00484 0.52332 0.15300
H 	H 	0.91644 0.95730 0.68585 0.15800
H 	H 	0.02044 0.98254 0.55714 0.15300
C 	C 	0.76181 0.98168 0.51310 -0.08400
C 	C 	0.74147 0.00096 0.50069 0.14500
C 	C 	0.71978 0.99260 0.47283 -0.07800
C 	C 	0.71707 0.96477 0.45946 0.02600
C 	C 	0.73565 0.94497 0.47600 0.08500
C 	C 	0.75811 0.95355 0.50231 -0.01300
H 	H 	0.70508 0.00780 0.46128 0.08700
C 	C 	0.69602 0.95703 0.42561 0.01700
H 	H 	0.77320 0.93847 0.51296 0.07500
C 	C 	0.70450 0.94976 0.38141 -0.06900
C 	C 	0.68505 0.94714 0.34692 0.12200
C 	C 	0.65701 0.95388 0.35587 -0.03700
C 	C 	0.64835 0.95938 0.40071 -0.04200
C 	C 	0.66761 0.96034 0.43561 0.09300
H 	H 	0.72626 0.94633 0.37378 0.08700
H 	H 	0.62672 0.96357 0.40836 0.07000
Br	Br	0.73052 0.90623 0.46346 -0.19500
Br	Br	0.74224 0.03851 0.52317 -0.20700
Br	Br	0.69680 0.93185 0.28941 -0.21100
Br	Br	0.65474 0.96602 0.49677 -0.20300
C 	C 	0.97880 0.05904 0.64151 -0.12300
C 	C 	0.99437 0.03450 0.64304 0.00000
C 	C 	0.98361 0.01177 0.66688 0.11200
C 	C 	0.95900 0.01460 0.69210 -0.04200
C 	C 	0.94464 0.03986 0.69341 -0.12600
C 	C 	0.95386 0.06163 0.66592 0.16500
C 	C 	0.02393 0.03478 0.62831 0.00700
O 	O 	0.99843 0.98764 0.66903 -0.27300
H 	H 	0.95150 0.99731 0.71161 0.05000
O 	O 	0.93960 0.08618 0.66534 -0.28300
H 	H 	0.98696 0.07680 0.62391 0.06000
C 	C 	0.03169 0.04393 0.58485 0.11400
C 	C 	0.05930 0.05137 0.57583 -0.03000
C 	C 	0.07907 0.05015 0.61007 -0.11400
C 	C 	0.07203 0.03757 0.65114 0.18800
C 	C 	0.04458 0.03011 0.66025 -0.10500
O 	O 	0.01244 0.04558 0.55132 -0.29100
H 	H 	0.06485 0.05992 0.54333 0.05700
O 	O 	0.09174 0.03368 0.68331 -0.27800
H 	H 	0.03905 0.02260 0.69349 0.08100
H 	H 	0.92677 0.08436 0.63954 0.09700
H 	H 	0.00679 0.06530 0.55074 0.13400
H 	H 	0.08948 0.04956 0.70466 0.14300
H 	H 	0.98955 0.97482 0.64719 0.16100
C 	C 	0.97902 0.14114 0.81537 -0.12400
C 	C 	0.98507 0.13514 0.86041 0.00400
C 	C 	0.96567 0.12073 0.88692 0.09900
C 	C 	0.94035 0.11256 0.86839 -0.05600
C 	C 	0.93427 0.11839 0.82320 -0.16300
C 	C 	0.95388 0.13259 0.79653 0.19600
C 	C 	0.01165 0.14432 0.87982 0.00400
O 	O 	0.97109 0.11531 0.93132 -0.27100
H 	H 	0.92544 0.10161 0.88916 0.00600
O 	O 	0.94864 0.13799 0.75207 -0.27700
H 	H 	0.99394 0.15220 0.79479 0.07400
C 	C 	0.03394 0.12573 0.88302 0.11100
C 	C 	0.05988 0.13529 0.89721 -0.02900
C 	C 	0.06370 0.16334 0.90862 -0.15300
C 	C 	0.04099 0.18167 0.90731 0.20400
C 	C 	0.01519 0.17212 0.89264 -0.11600
O 	O 	0.03026 0.09812 0.87330 -0.29700
H 	H 	0.07708 0.12095 0.89890 -0.00600
O 	O 	0.04438 0.20924 0.91753 -0.27700
H 	H 	0.99804 0.18648 0.89039 0.08600
H 	H 	0.95636 0.12195 0.73475 0.15000
H 	H 	0.03373 0.09609 0.84030 0.13900
H 	H 	0.03966 0.21117 0.95018 0.16800
H 	H 	0.98006 0.09684 0.93094 0.10100
C 	C 	0.78827 0.10747 0.75244 -0.08700
C 	C 	0.77081 0.08421 0.74923 0.14200
C 	C 	0.74279 0.08667 0.76093 -0.08100
C 	C 	0.73169 0.11243 0.77410 0.02700
C 	C 	0.74826 0.13632 0.77049 0.08200
C 	C 	0.77661 0.13370 0.76045 -0.01500
H 	H 	0.73000 0.06827 0.76231 0.08900
C 	C 	0.70482 0.11337 0.79887 0.01700
H 	H 	0.78975 0.15186 0.76110 0.06800
C 	C 	0.70439 0.12029 0.84517 -0.07000
C 	C 	0.68099 0.11469 0.87187 0.12200
C 	C 	0.65857 0.09997 0.85297 -0.03800
C 	C 	0.65797 0.09546 0.80590 -0.04100
C 	C 	0.68069 0.10277 0.77874 0.09200
H 	H 	0.72251 0.12944 0.86066 0.08700
H 	H 	0.64024 0.08548 0.79054 0.07200
Br	Br	0.73259 0.17252 0.77948 -0.19900
Br	Br	0.78529 0.04845 0.73242 -0.21300
Br	Br	0.67914 0.12946 0.93256 -0.21500
Br	Br	0.67844 0.09816 0.71430 -0.20400
C 	C 	0.96685 0.62817 0.34615 -0.04400
C 	C 	0.99249 0.61445 0.35134 0.10500
C 	C 	0.99385 0.58563 0.34514 -0.08300
C 	C 	0.97054 0.57063 0.33111 -0.00500
C 	C 	0.94600 0.58490 0.32012 0.07800
C 	C 	0.94419 0.61354 0.32862 -0.05200
N 	N 	0.01587 0.62887 0.36134 -0.19800
H 	H 	0.01297 0.57479 0.35199 0.05900
C 	C 	0.97092 0.54004 0.33409 -0.00300
N 	N 	0.92422 0.57127 0.30141 -0.19400
H 	H 	0.92486 0.62427 0.32287 0.06800
C 	C 	0.95641 0.52751 0.36967 -0.08400
C 	C 	0.96080 0.49956 0.37943 0.10500
C 	C 	0.98087 0.48428 0.35426 -0.04700
C 	C 	0.99357 0.49607 0.31630 -0.05000
C 	C 	0.98837 0.52377 0.30544 0.07600
H 	H 	0.94230 0.53976 0.39065 0.06000
N 	N 	0.94585 0.48757 0.41312 -0.19900
H 	H 	0.00824 0.48399 0.29608 0.05800
N 	N 	0.00010 0.53459 0.26760 -0.19400
H 	H 	0.93187 0.49927 0.43281 0.09200
H 	H 	0.94717 0.46637 0.41897 0.09600
H 	H 	0.01371 0.52275 0.24744 0.09500
H 	H 	0.99504 0.55442 0.25696 0.09600
H 	H 	0.90581 0.58175 0.29483 0.09900
H 	H 	0.92571 0.55045 0.29167 0.09700
H 	H 	0.01620 0.65046 0.36104 0.10000
H 	H 	0.03445 0.61848 0.36716 0.09200
C 	C 	0.10253 0.65763 0.77951 -0.04800
C 	C 	0.11578 0.64046 0.74659 0.10700
C 	C 	0.12060 0.61258 0.75618 -0.08400
C 	C 	0.11470 0.60232 0.79929 -0.00400
C 	C 	0.10558 0.62063 0.83425 0.07500
C 	C 	0.09883 0.64802 0.82373 -0.05100
N 	N 	0.12482 0.65086 0.70661 -0.19800
H 	H 	0.12898 0.59883 0.73007 0.05900
C 	C 	0.11644 0.57214 0.80639 -0.00300
N 	N 	0.10268 0.61191 0.87754 -0.19400
H 	H 	0.08983 0.66154 0.84961 0.05800
C 	C 	0.14264 0.55980 0.80917 -0.08600
C 	C 	0.14564 0.53097 0.80501 0.11000
C 	C 	0.12184 0.51431 0.79891 -0.04800
C 	C 	0.09549 0.52641 0.80173 -0.04900
C 	C 	0.09249 0.55525 0.80430 0.07400
H 	H 	0.16088 0.57277 0.81225 0.06100
N 	N 	0.17138 0.51955 0.80584 -0.20100
H 	H 	0.07725 0.51344 0.79863 0.05300
N 	N 	0.06667 0.56655 0.80333 -0.19400
H 	H 	0.18888 0.53210 0.80930 0.09900
H 	H 	0.17427 0.49817 0.80393 0.11700
H 	H 	0.04919 0.55385 0.80155 0.09100
H 	H 	0.06361 0.58791 0.80429 0.09400
H 	H 	0.09508 0.62533 0.90286 0.09500
H 	H 	0.10867 0.59204 0.88672 0.09600
H 	H 	0.12553 0.67216 0.70146 0.09800
H 	H 	0.13308 0.63775 0.68139 0.09200
C 	C 	0.97332 0.69658 0.47015 -0.04700
C 	C 	0.96770 0.67922 0.50728 0.10600
C 	C 	0.98154 0.68385 0.54817 -0.08500
C 	C 	0.99891 0.70687 0.55384 -0.00500
C 	C 	0.00209 0.72593 0.51831 0.07600
C 	C 	0.98979 0.72023 0.47641 -0.05100
N 	N 	0.94838 0.65881 0.50441 -0.19900
H 	H 	0.97849 0.66972 0.57589 0.05900
C 	C 	0.01520 0.70972 0.59584 -0.00300
N 	N 	0.01677 0.74971 0.52425 -0.19400
H 	H 	0.99347 0.73399 0.44838 0.05700
C 	C 	0.04353 0.70331 0.59435 -0.08400
C 	C 	0.05959 0.70546 0.63345 0.10700
C 	C 	0.04653 0.71178 0.67553 -0.04500
C 	C 	0.01830 0.71865 0.67696 -0.04900
C 	C 	0.00258 0.71825 0.63730 0.07500
H 	H 	0.05326 0.69735 0.56238 0.06000
N 	N 	0.08757 0.70249 0.63011 -0.19900
H 	H 	0.00846 0.72409 0.70907 0.05800
N 	N 	0.97558 0.72631 0.63921 -0.19400
H 	H 	0.09688 0.69629 0.59948 0.09300
H 	H 	0.10042 0.70799 0.65690 0.10100
H 	H 	0.96628 0.73193 0.67014 0.09500
H 	H 	0.96378 0.72784 0.61004 0.09600
H 	H 	0.01976 0.76323 0.49742 0.09600
H 	H 	0.02452 0.75549 0.55581 0.09800
H 	H 	0.93497 0.65738 0.47707 0.10200
H 	H 	0.94541 0.64517 0.53110 0.09200
C 	C 	0.07344 0.04974 0.07754 -0.12200
C 	C 	0.07473 0.06911 0.04275 0.02200
C 	C 	0.05433 0.06884 0.00918 0.10300
C 	C 	0.03315 0.04919 0.01027 -0.00100
C 	C 	0.03255 0.02890 0.04368 -0.17000
C 	C 	0.05262 0.02947 0.07787 0.21300
C 	C 	0.09925 0.08718 0.03785 0.00700
O 	O 	0.05650 0.08615 0.97303 -0.28100
H 	H 	0.01792 0.04899 0.98376 -0.05600
O 	O 	0.05154 0.01073 0.11218 -0.33400
H 	H 	0.08905 0.04987 0.10353 0.08200
C 	C 	0.09615 0.11613 0.03929 0.12000
C 	C 	0.11571 0.13284 0.01749 -0.03200
C 	C 	0.13841 0.12071 0.99448 -0.14400
C 	C 	0.14376 0.09233 0.99972 0.19100
C 	C 	0.12433 0.07574 0.02202 -0.11000
O 	O 	0.07416 0.12805 0.06213 -0.26500
H 	H 	0.11230 0.15497 0.01614 0.06400
O 	O 	0.16720 0.08053 0.98109 -0.29700
H 	H 	0.12811 0.05376 0.02482 0.08700
H 	H 	0.06378 0.99527 0.10211 0.16100
H 	H 	0.06007 0.13167 0.03887 0.14700
H 	H 	0.18133 0.08189 0.00506 0.16100
H 	H 	0.04376 0.10175 0.98019 0.14200
C 	C 	0.88836 0.97547 0.94846 -0.11700
C 	C 	0.87961 0.95105 0.92645 -0.00500
C 	C 	0.89387 0.92624 0.93450 0.12300
C 	C 	0.91956 0.92712 0.95607 -0.03200
C 	C 	0.93076 0.95264 0.96992 -0.12000
C 	C 	0.91423 0.97652 0.96890 0.16600
C 	C 	0.86238 0.95351 0.88572 0.01000
O 	O 	0.88424 0.90164 0.91708 -0.26700
H 	H 	0.93175 0.90838 0.95843 0.07900
O 	O 	0.92403 0.00127 0.98551 -0.28800
H 	H 	0.87684 0.99450 0.94459 0.05000
C 	C 	0.83818 0.96973 0.88826 0.11600
C 	C 	0.83320 0.98900 0.85442 -0.03000
C 	C 	0.85197 0.99114 0.81799 -0.11900
C 	C 	0.87049 0.96921 0.80934 0.17600
C 	C 	0.87541 0.95001 0.84324 -0.11500
O 	O 	0.82080 0.96837 0.92526 -0.26200
H 	H 	0.81693 0.00427 0.85923 0.06500
O 	O 	0.88533 0.96781 0.76948 -0.26900
H 	H 	0.89216 0.93524 0.83884 0.08100
H 	H 	0.93288 0.01047 0.95930 0.03300
H 	H 	0.82695 0.98326 0.94631 0.14400
H 	H 	0.90321 0.97709 0.77585 0.12700
H 	H 	0.87231 0.89389 0.94129 0.16000
C 	C 	0.13772 0.04099 0.80817 -0.12600
C 	C 	0.11515 0.05832 0.81869 -0.02200
C 	C 	0.10987 0.08124 0.79131 0.06300
C 	C 	0.12484 0.08446 0.75075 -0.03600
C 	C 	0.14442 0.06445 0.73700 -0.15700
C 	C 	0.15256 0.04421 0.76775 0.20400
C 	C 	0.09500 0.04978 0.85388 -0.00600
O 	O 	0.09007 0.10033 0.80390 -0.37900
H 	H 	0.11950 0.10108 0.72840 -0.06000
O 	O 	0.17389 0.02641 0.75699 -0.26600
H 	H 	0.14269 0.02398 0.83006 0.08200
C 	C 	0.06940 0.03823 0.84102 0.12100
C 	C 	0.05440 0.02188 0.87136 -0.03600
C 	C 	0.06556 0.01549 0.91347 -0.16100
C 	C 	0.09012 0.02855 0.92745 0.21400
C 	C 	0.10404 0.04660 0.89839 -0.12900
O 	O 	0.05973 0.04170 0.79807 -0.30000
H 	H 	0.03508 0.01255 0.86077 0.01000
O 	O 	0.10078 0.02335 0.96918 -0.30000
H 	H 	0.12327 0.05611 0.90904 0.05900
H 	H 	0.19081 0.03563 0.76850 0.15800
H 	H 	0.06734 0.02591 0.77999 0.15600
H 	H 	0.11456 0.00836 0.96405 0.16400
H 	H 	0.07329 0.09501 0.78686 0.16200
C 	C 	0.07765 0.75336 0.81867 -0.03900
C 	C 	0.08350 0.78063 0.80535 0.12300
C 	C 	0.08014 0.80254 0.83642 -0.06900
C 	C 	0.07193 0.79747 0.88120 0.01500
C 	C 	0.06792 0.77008 0.89528 0.09400
C 	C 	0.07056 0.74820 0.86395 -0.04100
H 	H 	0.08370 0.82358 0.82567 0.08500
C 	C 	0.06495 0.82103 0.91164 0.02800
H 	H 	0.06664 0.72721 0.87465 0.06900
C 	C 	0.03704 0.82783 0.91955 -0.08100
C 	C 	0.02990 0.85313 0.94009 0.14900
C 	C 	0.05077 0.87216 0.95179 -0.08700
C 	C 	0.07865 0.86426 0.94802 -0.01300
C 	C 	0.08583 0.83871 0.92813 0.08400
H 	H 	0.02089 0.81389 0.90818 0.08800
H 	H 	0.09478 0.87852 0.95837 0.06700
Br	Br	0.05905 0.76218 0.95719 -0.20500
Br	Br	0.09757 0.78825 0.74578 -0.21400
Br	Br	0.99151 0.86167 0.95102 -0.21000
Br	Br	0.12418 0.82852 0.92295 -0.20000
C 	C 	0.87131 0.01354 0.14890 -0.11300
C 	C 	0.88629 0.03834 0.15288 0.00600
C 	C 	0.90820 0.04333 0.12220 0.10700
C 	C 	0.91842 0.02174 0.09460 -0.05700
C 	C 	0.90643 0.99528 0.09669 -0.14300
C 	C 	0.88091 0.99225 0.11999 0.19400
C 	C 	0.88262 0.05632 0.19373 0.00800
O 	O 	0.92100 0.06866 0.12170 -0.28300
H 	H 	0.93673 0.02510 0.07383 0.04800
O 	O 	0.86599 0.96820 0.11621 -0.27800
H 	H 	0.85306 0.01023 0.16974 0.09100
C 	C 	0.85677 0.06846 0.20460 0.12000
C 	C 	0.85385 0.08526 0.24358 -0.02500
C 	C 	0.87674 0.09065 0.27111 -0.12400
C 	C 	0.90268 0.07915 0.25953 0.18900
C 	C 	0.90530 0.06136 0.22194 -0.10400
O 	O 	0.83484 0.06530 0.17595 -0.26700
H 	H 	0.83397 0.09465 0.25171 0.06600
O 	O 	0.92584 0.08683 0.28296 -0.29800
H 	H 	0.92519 0.05186 0.21420 0.06300
H 	H 	0.85347 0.97101 0.09037 0.16000
H 	H 	0.82366 0.04997 0.18856 0.15000
H 	H 	0.92986 0.07114 0.30294 0.15100
H 	H 	0.91082 0.07950 0.09909 0.15300
C 	C 	0.92063 0.98102 0.40022 -0.12000
C 	C 	0.92007 0.00626 0.37753 0.01100
C 	C 	0.91326 0.03063 0.40173 0.09400
C 	C 	0.90342 0.02911 0.44631 -0.03000
C 	C 	0.89915 0.00319 0.46607 -0.15900
C 	C 	0.90997 0.97934 0.44427 0.21200
C 	C 	0.91972 0.00582 0.32776 0.00300
O 	O 	0.91512 0.05579 0.38133 -0.33300
H 	H 	0.89705 0.04789 0.46408 -0.06200
O 	O 	0.90830 0.95410 0.46461 -0.27900
H 	H 	0.92708 0.96230 0.38233 0.07600
C 	C 	0.94438 0.00150 0.30294 0.10300
C 	C 	0.94337 0.98999 0.25924 -0.03100
C 	C 	0.91780 0.98210 0.24075 -0.15900
C 	C 	0.89309 0.99030 0.26319 0.20900
C 	C 	0.89426 0.00292 0.30601 -0.12500
O 	O 	0.96950 0.00640 0.32257 -0.30200
H 	H 	0.96254 0.98539 0.24118 -0.01800
O 	O 	0.86783 0.98539 0.24395 -0.29600
H 	H 	0.87518 0.00785 0.32414 0.07400
H 	H 	0.92603 0.95209 0.48066 0.15600
H 	H 	0.97391 0.02593 0.31573 0.15400
H 	H 	0.86112 0.96786 0.25719 0.17500
H 	H 	0.89685 0.05861 0.36718 0.08400
C 	C 	0.03673 0.86065 0.11978 -0.10400
C 	C 	0.05435 0.87718 0.14624 0.01200
C 	C 	0.05695 0.90539 0.13555 0.11800
C 	C 	0.03695 0.91775 0.10859 -0.03200
C 	C 	0.01361 0.90241 0.09559 -0.12100
C 	C 	0.01584 0.87328 0.09484 0.20600
C 	C 	0.06126 0.86824 0.19244 0.00100
O 	O 	0.07733 0.92134 0.15470 -0.27000
H 	H 	0.03721 0.93997 0.10446 0.03300
O 	O 	0.99689 0.85729 0.07221 -0.26000
H 	H 	0.03664 0.83839 0.12364 0.08600
C 	C 	0.03973 0.86442 0.22452 0.11800
C 	C 	0.04503 0.86796 0.27061 -0.04000
C 	C 	0.07149 0.87564 0.28495 -0.12700
C 	C 	0.09377 0.87481 0.25369 0.19900
C 	C 	0.08862 0.87050 0.20753 -0.10800
O 	O 	0.01298 0.86054 0.21070 -0.27900
H 	H 	0.02797 0.86745 0.29479 0.04200
O 	O 	0.12030 0.87977 0.26780 -0.27400
H 	H 	0.10556 0.87180 0.18323 0.09100
H 	H 	0.98307 0.85166 0.09544 0.16300
H 	H 	0.01047 0.84019 0.20892 0.16700
H 	H 	0.12297 0.90004 0.26535 0.15700
H 	H 	0.06905 0.92904 0.18311 0.13400
C 	C 	0.93826 0.72424 0.32301 -0.03800
C 	C 	0.91204 0.72333 0.30261 0.12300
C 	C 	0.90370 0.74502 0.27504 -0.07000
C 	C 	0.92128 0.76765 0.26772 0.01500
C 	C 	0.94756 0.76841 0.28786 0.09800
C 	C 	0.95590 0.74675 0.31528 -0.04200
H 	H 	0.88341 0.74446 0.25982 0.08400
C 	C 	0.91157 0.79124 0.24112 0.02500
H 	H 	0.97611 0.74748 0.33081 0.06900
C 	C 	0.89838 0.81352 0.26343 -0.08100
C 	C 	0.89589 0.83898 0.24205 0.14700
C 	C 	0.90652 0.84218 0.19792 -0.08500
C 	C 	0.91650 0.81895 0.17373 -0.01200
C 	C 	0.91912 0.79350 0.19518 0.08700
H 	H 	0.89161 0.81156 0.29832 0.08500
H 	H 	0.92407 0.82114 0.13931 0.06700
Br	Br	0.97219 0.79909 0.27877 -0.22400
Br	Br	0.88686 0.69337 0.31363 -0.22000
Br	Br	0.87926 0.86961 0.27441 -0.21300
Br	Br	0.93475 0.76258 0.16223 -0.20000
