data_crystal

_cell_length_a 21.60581
_cell_length_b 23.34424
_cell_length_c 81.26950
_cell_angle_alpha 90.04570
_cell_angle_beta  90.02047
_cell_angle_gamma 119.49797

_symmetry_space_group_name_	'P 1'
_symmetry_space_group_name_H-M	'P 1'

loop_
_symmetry_equiv_pos_as_xyz
  x,y,z

loop_
_atom_site_label
_atom_site_type_symbol
_atom_site_fract_x
_atom_site_fract_y
_atom_site_fract_z
_atom_site_charge
C 	C 	0.10469 0.15465 0.75570 0.28200
C 	C 	0.11724 0.13682 0.80035 0.30100
C 	C 	0.08331 0.93577 0.79424 0.27500
C 	C 	0.05168 0.94376 0.74755 0.27300
Ni	Ni	0.11620 0.04924 0.77338 1.12400
O 	O 	0.06278 0.15501 0.76776 -0.37000
O 	O 	0.12297 0.10816 0.75445 -0.37700
O 	O 	0.03107 0.90053 0.78393 -0.38000
O 	O 	0.10576 0.97621 0.75794 -0.38700
O 	O 	0.04843 0.09913 0.80158 -0.37400
O 	O 	0.15133 0.13187 0.78751 -0.37700
O 	O 	0.98464 0.91405 0.75284 -0.38500
O 	O 	0.11578 0.00040 0.79373 -0.36400
H 	H 	0.00972 0.02179 0.76111 0.16400
Ni	Ni	0.02965 0.92982 0.22118 1.10500
Ni	Ni	0.04367 0.07330 0.22576 1.11900
O 	O 	0.09785 0.96800 0.24115 -0.39600
O 	O 	0.13517 0.07737 0.23436 -0.38000
O 	O 	0.11640 0.99849 0.20766 -0.40200
O 	O 	0.07199 0.06725 0.20230 -0.39300
O 	O 	0.99047 0.98075 0.22849 -0.72000
H 	H 	0.99559 0.97785 0.24046 0.16000
C 	C 	0.96797 0.89507 0.96843 0.29800
C 	C 	0.06251 0.08159 0.96660 0.26600
C 	C 	0.09842 0.08645 0.02088 0.27900
Ni	Ni	0.05313 0.98982 0.99390 1.10400
O 	O 	0.04465 0.94042 0.01497 -0.40300
O 	O 	0.98985 0.90101 0.98363 -0.39100
O 	O 	0.03716 0.04490 0.02823 -0.37300
O 	O 	0.11475 0.07380 0.00604 -0.37900
O 	O 	0.99550 0.06882 0.96623 -0.35100
H 	H 	0.00365 0.05619 0.99523 0.14700
H 	H 	0.10350 0.09787 0.05425 0.05000
H 	H 	0.01685 0.27590 0.17634 0.02100
H 	H 	0.99658 0.17970 0.19258 0.04500
H 	H 	0.16247 0.19372 0.98079 0.04000
C 	C 	0.01545 0.71190 0.96165 -0.05000
C 	C 	0.00967 0.76415 0.95468 0.01000
C 	C 	0.00357 0.87218 0.94110 -0.03200
C 	C 	0.97925 0.85140 0.95720 -0.06000
C 	C 	0.97847 0.79498 0.96355 -0.01900
H 	H 	0.99216 0.69242 0.97358 0.04400
H 	H 	0.00307 0.91500 0.93608 0.04400
H 	H 	0.95753 0.77767 0.97578 0.04400
C 	C 	0.11027 0.70190 0.82222 -0.04000
C 	C 	0.08089 0.73320 0.81297 -0.04300
C 	C 	0.11167 0.80206 0.81335 0.01800
C 	C 	0.08170 0.83354 0.80429 -0.02800
C 	C 	0.11297 0.90262 0.80458 -0.05200
H 	H 	0.08550 0.64870 0.82190 0.04000
H 	H 	0.03438 0.80437 0.79697 0.04900
C 	C 	0.16200 0.25612 0.80402 -0.02600
C 	C 	0.15183 0.19634 0.81046 -0.06100
C 	C 	0.16861 0.19244 0.82694 -0.02300
H 	H 	0.18626 0.37559 0.79489 0.04000
H 	H 	0.14665 0.25820 0.79143 0.04400
H 	H 	0.16003 0.14591 0.83188 0.04600
C 	C 	0.13128 0.21472 0.72909 -0.02700
C 	C 	0.14470 0.21476 0.74598 -0.05200
H 	H 	0.11536 0.22931 0.69691 0.04200
H 	H 	0.09120 0.16997 0.72321 0.04300
C 	C 	0.01749 0.76053 0.68958 -0.02800
C 	C 	0.99285 0.78685 0.70175 -0.05700
C 	C 	0.03940 0.84777 0.70904 0.03100
C 	C 	0.01834 0.86976 0.72293 -0.03400
C 	C 	0.06726 0.92821 0.73095 -0.04100
H 	H 	0.98167 0.71235 0.68451 0.03300
C 	C 	0.09313 0.64900 0.37379 -0.05000
C 	C 	0.04350 0.62657 0.36095 -0.03300
C 	C 	0.10710 0.55218 0.37084 -0.01800
C 	C 	0.12308 0.61084 0.37920 0.02200
C 	C 	0.13654 0.51333 0.37627 0.02200
C 	C 	0.17826 0.53120 0.39060 -0.03000
H 	H 	0.01872 0.65526 0.35735 0.03300
H 	H 	0.19893 0.50018 0.39509 0.04800
C 	C 	0.94857 0.46489 0.64716 -0.00400
C 	C 	0.98558 0.43097 0.65107 0.01000
C 	C 	0.96539 0.52408 0.65537 0.00900
C 	C 	0.92910 0.55814 0.65125 -0.03900
C 	C 	0.88061 0.53646 0.63817 -0.04400
C 	C 	0.04400 0.46001 0.66179 -0.01800
H 	H 	0.85493 0.56457 0.63475 0.03900
H 	H 	0.07601 0.43660 0.66386 0.04400
C 	C 	0.03412 0.51506 0.49685 -0.01000
C 	C 	0.03077 0.48354 0.48180 0.01100
C 	C 	0.09641 0.57353 0.50122 0.01600
C 	C 	0.09930 0.60459 0.51624 -0.04200
C 	C 	0.04072 0.57780 0.52687 -0.04500
C 	C 	0.08942 0.51088 0.47112 -0.02400
H 	H 	0.04388 0.60232 0.53842 0.04000
H 	H 	0.08641 0.48729 0.45941 0.04800
C 	C 	0.78244 0.39637 0.58889 0.27600
C 	C 	0.61091 0.19755 0.53862 0.30000
C 	C 	0.79954 0.40049 0.54114 0.29700
C 	C 	0.59953 0.18418 0.58356 0.28200
C 	C 	0.58696 0.37696 0.53773 0.30000
C 	C 	0.56229 0.36542 0.58347 0.27800
Ni	Ni	0.72018 0.28588 0.56349 1.11200
Ni	Ni	0.56169 0.26718 0.56046 1.12000
Ni	Ni	0.69535 0.41180 0.56295 1.12000
O 	O 	0.79735 0.36330 0.57769 -0.36900
O 	O 	0.74566 0.42631 0.58489 -0.37700
O 	O 	0.54086 0.32902 0.54719 -0.38400
O 	O 	0.65719 0.20144 0.54969 -0.37500
O 	O 	0.58564 0.23840 0.53902 -0.38400
O 	O 	0.60927 0.41111 0.57335 -0.38100
O 	O 	0.76357 0.33606 0.54174 -0.37600
O 	O 	0.79120 0.43570 0.55267 -0.37700
O 	O 	0.53562 0.30130 0.58056 -0.38000
O 	O 	0.66853 0.22745 0.58362 -0.37600
O 	O 	0.55500 0.18652 0.57246 -0.37400
O 	O 	0.65563 0.40254 0.54021 -0.39000
O 	O 	0.65865 0.32021 0.56623 -0.71900
H 	H 	0.65352 0.31814 0.57829 0.15800
C 	C 	0.40831 0.81447 0.41996 0.28300
C 	C 	0.21057 0.60126 0.46347 0.29700
C 	C 	0.39977 0.80498 0.46486 0.29600
C 	C 	0.22578 0.60147 0.41578 0.27600
C 	C 	0.42401 0.62599 0.46676 0.30000
C 	C 	0.44603 0.63308 0.42093 0.27900
Ni	Ni	0.28900 0.71411 0.44059 1.11200
Ni	Ni	0.31427 0.58854 0.44178 1.12000
Ni	Ni	0.44788 0.73347 0.44337 1.12000
O 	O 	0.33944 0.77082 0.42013 -0.37800
O 	O 	0.45379 0.81299 0.43093 -0.37600
O 	O 	0.35521 0.60016 0.46445 -0.39000
O 	O 	0.24672 0.66563 0.46260 -0.37700
O 	O 	0.21879 0.56521 0.45216 -0.37800
O 	O 	0.47289 0.69747 0.42345 -0.38200
O 	O 	0.35251 0.79981 0.45391 -0.37600
O 	O 	0.42509 0.76416 0.46465 -0.38400
O 	O 	0.39995 0.58849 0.43139 -0.38100
O 	O 	0.21129 0.63542 0.42680 -0.36900
O 	O 	0.26288 0.57200 0.41992 -0.37700
O 	O 	0.46955 0.67299 0.45700 -0.38400
O 	O 	0.35059 0.67979 0.43797 -0.71800
H 	H 	0.35504 0.68079 0.42590 0.15800
C 	C 	0.22384 0.75034 0.67182 0.28000
C 	C 	0.33367 0.58167 0.64307 0.30200
C 	C 	0.14338 0.56674 0.67108 0.29900
C 	C 	0.41138 0.76509 0.64270 0.27700
C 	C 	0.31795 0.57238 0.69556 0.30100
C 	C 	0.42214 0.76424 0.69784 0.28200
Ni	Ni	0.26165 0.66158 0.65041 1.11200
Ni	Ni	0.39694 0.67262 0.67042 1.11900
Ni	Ni	0.26697 0.66641 0.69038 1.12200
O 	O 	0.20424 0.70665 0.65952 -0.36800
O 	O 	0.25713 0.74601 0.68513 -0.37900
O 	O 	0.38099 0.62078 0.69139 -0.38600
O 	O 	0.30599 0.61523 0.63642 -0.36800
O 	O 	0.34513 0.58504 0.65887 -0.39100
O 	O 	0.35833 0.71995 0.70368 -0.37800
O 	O 	0.18816 0.57095 0.65972 -0.37900
O 	O 	0.16396 0.61251 0.68251 -0.37400
O 	O 	0.44628 0.75581 0.68354 -0.38900
O 	O 	0.34335 0.74772 0.64075 -0.37000
O 	O 	0.43089 0.72284 0.64850 -0.37500
O 	O 	0.26191 0.58027 0.69536 -0.38500
O 	O 	0.31543 0.68289 0.66990 -0.71600
H 	H 	0.33856 0.73126 0.66967 0.15800
C 	C 	0.89871 0.96101 0.80417 0.26500
C 	C 	0.86417 0.97423 0.76016 0.25200
Ni	Ni	0.98414 0.07389 0.78096 1.11200
Ni	Ni	0.95974 0.92660 0.77596 1.11400
O 	O 	0.89896 0.00858 0.79548 -0.34900
O 	O 	0.93879 0.93564 0.79987 -0.38200
O 	O 	0.91091 0.03789 0.76182 -0.35400
O 	O 	0.86943 0.92811 0.76880 -0.37500
O 	O 	0.01694 0.01879 0.77298 -0.71200
C 	C 	0.43062 0.73152 0.92498 0.27700
C 	C 	0.29597 0.53065 0.87264 0.29800
C 	C 	0.47985 0.73716 0.87864 0.29900
C 	C 	0.25542 0.51567 0.91524 0.28300
C 	C 	0.27426 0.71149 0.86544 0.30000
C 	C 	0.21300 0.69926 0.90846 0.28100
Ni	Ni	0.38734 0.62202 0.89969 1.11300
Ni	Ni	0.23266 0.60130 0.88942 1.12000
Ni	Ni	0.36209 0.74665 0.89498 1.11900
O 	O 	0.45333 0.69959 0.91537 -0.36900
O 	O 	0.39609 0.76055 0.91871 -0.37600
O 	O 	0.22200 0.66255 0.87349 -0.38400
O 	O 	0.33616 0.53721 0.88541 -0.37800
O 	O 	0.27026 0.57071 0.87047 -0.38500
O 	O 	0.27014 0.74637 0.90078 -0.38300
O 	O 	0.44466 0.67271 0.87911 -0.37600
O 	O 	0.46390 0.77138 0.88897 -0.37900
O 	O 	0.19283 0.63563 0.90681 -0.38100
O 	O 	0.32146 0.56271 0.91823 -0.37900
O 	O 	0.21529 0.52087 0.90337 -0.37400
O 	O 	0.33999 0.73848 0.87086 -0.39100
O 	O 	0.32398 0.65498 0.89854 -0.72000
H 	H 	0.31015 0.65250 0.91018 0.16000
C 	C 	0.77219 0.49027 0.08655 0.28100
C 	C 	0.55188 0.28715 0.13087 0.29900
C 	C 	0.76796 0.46789 0.13162 0.29900
C 	C 	0.53687 0.30423 0.08613 0.28100
C 	C 	0.74617 0.27273 0.12643 0.29800
C 	C 	0.73266 0.28279 0.07881 0.27600
Ni	Ni	0.64414 0.40376 0.10935 1.11300
Ni	Ni	0.62875 0.25961 0.10498 1.12000
Ni	Ni	0.78301 0.38642 0.10523 1.12000
O 	O 	0.72596 0.48784 0.09783 -0.37100
O 	O 	0.79469 0.44653 0.08615 -0.38100
O 	O 	0.69917 0.23659 0.11516 -0.38100
O 	O 	0.55410 0.33495 0.12193 -0.37500
O 	O 	0.59625 0.26504 0.12804 -0.38300
O 	O 	0.78232 0.31626 0.09014 -0.37700
O 	O 	0.69939 0.42758 0.13132 -0.38000
O 	O 	0.80844 0.46665 0.11968 -0.37800
O 	O 	0.66399 0.25013 0.08279 -0.37900
O 	O 	0.58044 0.36810 0.08857 -0.37300
O 	O 	0.54022 0.25831 0.09531 -0.37500
O 	O 	0.77722 0.33725 0.12592 -0.38600
O 	O 	0.68363 0.35229 0.10264 -0.72000
H 	H 	0.68110 0.35603 0.09062 0.15900
C 	C 	0.14272 0.03206 0.24284 0.30800
C 	C 	0.90162 0.86327 0.20021 0.29800
C 	C 	0.11619 0.04551 0.19885 0.33100
C 	C 	0.90538 0.84242 0.24497 0.28200
C 	C 	0.92226 0.05721 0.20547 0.32600
C 	C 	0.94467 0.05091 0.25306 0.29900
Ni	Ni	0.89046 0.94540 0.22700 1.11700
O 	O 	0.89042 0.99271 0.20639 -0.40900
O 	O 	0.97004 0.90408 0.19983 -0.37800
O 	O 	0.86324 0.86453 0.21264 -0.38000
O 	O 	0.01248 0.08355 0.24836 -0.39400
O 	O 	0.89291 0.01589 0.24228 -0.37100
O 	O 	0.95141 0.84571 0.23350 -0.36600
O 	O 	0.88387 0.88676 0.24599 -0.38500
O 	O 	0.97006 0.09400 0.21650 -0.38000
C 	C 	0.59292 0.23133 0.36018 0.27600
C 	C 	0.86328 0.43236 0.33336 0.30400
C 	C 	0.67374 0.41541 0.36178 0.30100
C 	C 	0.77839 0.24826 0.33012 0.27900
C 	C 	0.68699 0.43136 0.30857 0.30100
C 	C 	0.58465 0.24220 0.30526 0.28100
Ni	Ni	0.74330 0.33460 0.35308 1.11300
Ni	Ni	0.73933 0.33844 0.31320 1.12100
Ni	Ni	0.60930 0.32907 0.33366 1.11900
O 	O 	0.66062 0.24726 0.36191 -0.36800
O 	O 	0.57461 0.27532 0.35508 -0.37500
O 	O 	0.74397 0.42556 0.31030 -0.38600
O 	O 	0.81831 0.42659 0.34483 -0.37800
O 	O 	0.84230 0.38943 0.32124 -0.37500
O 	O 	0.55960 0.24832 0.31968 -0.38700
O 	O 	0.69960 0.37940 0.36786 -0.36600
O 	O 	0.66247 0.41472 0.34600 -0.38900
O 	O 	0.64811 0.28822 0.29967 -0.37900
O 	O 	0.79924 0.28986 0.34290 -0.36600
O 	O 	0.74813 0.25733 0.31687 -0.37700
O 	O 	0.62416 0.38380 0.31321 -0.38300
O 	O 	0.69008 0.31742 0.33360 -0.71600
H 	H 	0.66653 0.26904 0.33320 0.15900
C 	C 	0.90011 0.08754 0.00092 0.27800
C 	C 	0.80198 0.90338 0.00133 0.29900
C 	C 	0.98308 0.89709 0.02130 0.31200
Ni	Ni	0.91445 0.98816 0.97798 1.09900
Ni	Ni	0.93915 0.99649 0.01743 1.11000
O 	O 	0.87084 0.04268 0.98892 -0.35300
O 	O 	0.93639 0.08036 0.01323 -0.36600
O 	O 	0.94420 0.93337 0.96274 -0.37600
O 	O 	0.83878 0.90167 0.98878 -0.38100
O 	O 	0.83263 0.94992 0.01246 -0.38600
O 	O 	0.07929 0.03629 0.97142 -0.36000
O 	O 	0.92862 0.90738 0.02114 -0.39200
O 	O 	0.97694 0.00781 0.99582 -0.68400
C 	C 	0.40259 0.17388 0.24336 -0.03700
C 	C 	0.46733 0.20140 0.25183 -0.04500
C 	C 	0.47081 0.17891 0.26764 0.02200
C 	C 	0.40966 0.12559 0.27455 -0.01600
C 	C 	0.34434 0.09830 0.26609 0.00500
C 	C 	0.34055 0.12367 0.25062 0.00900
C 	C 	0.28215 0.04793 0.27348 -0.00500
C 	C 	0.28657 0.02279 0.28886 -0.00900
C 	C 	0.35159 0.04978 0.29724 -0.05600
C 	C 	0.41285 0.10250 0.29038 0.02700
C 	C 	0.47559 0.13571 0.29963 -0.03000
C 	C 	0.53340 0.19388 0.29355 -0.05200
C 	C 	0.53290 0.21227 0.27711 -0.02800
C 	C 	0.27451 0.10030 0.24289 -0.01400
C 	C 	0.21203 0.05264 0.25061 -0.07100
C 	C 	0.21610 0.02513 0.26565 0.00800
H 	H 	0.40039 0.19281 0.23133 0.04000
H 	H 	0.51429 0.24150 0.24628 0.04100
H 	H 	0.23940 0.98331 0.29451 0.01900
H 	H 	0.35378 0.03099 0.30929 0.04600
H 	H 	0.47740 0.11971 0.31207 0.04500
H 	H 	0.57848 0.25575 0.27219 0.04900
H 	H 	0.27146 0.11972 0.23097 0.04800
H 	H 	0.16792 0.98749 0.27144 0.02200
C 	C 	0.77123 0.60031 0.24670 -0.04200
C 	C 	0.73436 0.54154 0.25553 -0.04200
C 	C 	0.72504 0.54291 0.27260 0.01600
C 	C 	0.75031 0.60383 0.28074 -0.00700
C 	C 	0.78702 0.66300 0.27182 -0.00800
C 	C 	0.79878 0.66118 0.25481 0.01700
C 	C 	0.81393 0.72398 0.28003 0.01700
C 	C 	0.80271 0.72529 0.29702 -0.04200
C 	C 	0.76713 0.66646 0.30592 -0.04100
C 	C 	0.74197 0.60560 0.29791 0.01700
C 	C 	0.71254 0.54682 0.30698 -0.02300
C 	C 	0.69247 0.48678 0.29901 -0.06000
C 	C 	0.69493 0.48449 0.28178 -0.02300
C 	C 	0.83881 0.72015 0.24617 -0.02600
C 	C 	0.86606 0.78093 0.25432 -0.05500
C 	C 	0.85280 0.78281 0.27118 -0.02800
H 	H 	0.77915 0.59844 0.23358 0.03900
H 	H 	0.71449 0.49498 0.24914 0.03900
H 	H 	0.82254 0.77184 0.30341 0.04000
H 	H 	0.76028 0.66834 0.31908 0.04100
H 	H 	0.70978 0.54822 0.32029 0.04600
H 	H 	0.67847 0.43781 0.27568 0.04000
H 	H 	0.84841 0.71888 0.23311 0.04600
H 	H 	0.87342 0.82985 0.27740 0.04300
C 	C 	0.97846 0.22568 0.31313 0.00300
C 	C 	0.00227 0.19924 0.30081 -0.08400
C 	C 	0.95377 0.14189 0.29239 0.03600
C 	C 	0.88184 0.10811 0.29727 -0.00800
C 	C 	0.85787 0.13475 0.30966 -0.00100
C 	C 	0.90587 0.19522 0.31712 0.00200
C 	C 	0.78480 0.10425 0.31348 0.02100
C 	C 	0.73728 0.04407 0.30602 -0.05100
C 	C 	0.76118 0.01725 0.29381 -0.01100
C 	C 	0.83282 0.05041 0.28892 0.00200
C 	C 	0.85502 0.02902 0.27513 0.00600
C 	C 	0.92520 0.06609 0.26932 -0.06600
C 	C 	0.97534 0.12040 0.27851 -0.00900
C 	C 	0.87957 0.22764 0.32706 -0.01700
C 	C 	0.80588 0.20224 0.32857 -0.05500
C 	C 	0.75935 0.13765 0.32330 -0.02500
H 	H 	0.01605 0.27134 0.31907 0.01900
H 	H 	0.05802 0.22464 0.29744 0.04800
H 	H 	0.68131 0.01936 0.30918 0.04700
H 	H 	0.72343 0.97197 0.28776 0.02000
H 	H 	0.81712 0.98522 0.26855 0.02400
H 	H 	0.03019 0.14766 0.27445 0.03800
H 	H 	0.91576 0.27598 0.33198 0.04400
H 	H 	0.70258 0.11673 0.32523 0.04200
C 	C 	0.90472 0.66223 0.02473 -0.04000
C 	C 	0.87071 0.60399 0.03390 -0.04300
C 	C 	0.86115 0.60635 0.05094 0.01800
C 	C 	0.88826 0.66783 0.05890 -0.01000
C 	C 	0.92333 0.72641 0.04971 -0.00500
C 	C 	0.92991 0.72355 0.03250 0.01400
C 	C 	0.94863 0.78777 0.05762 0.01300
C 	C 	0.94110 0.79024 0.07473 -0.04100
C 	C 	0.90584 0.73206 0.08384 -0.04300
C 	C 	0.87813 0.67071 0.07597 0.01700
C 	C 	0.83931 0.61232 0.08488 -0.02700
C 	C 	0.81160 0.55106 0.07696 -0.05400
C 	C 	0.82353 0.54808 0.06007 -0.02800
C 	C 	0.95769 0.78168 0.02319 -0.02000
C 	C 	0.97784 0.84207 0.03097 -0.06500
C 	C 	0.97699 0.84548 0.04820 -0.01900
H 	H 	0.91029 0.65954 0.01154 0.03900
H 	H 	0.85076 0.55705 0.02770 0.04100
H 	H 	0.96108 0.83718 0.08093 0.03700
H 	H 	0.89919 0.73474 0.09698 0.03800
H 	H 	0.83068 0.61441 0.09796 0.04500
H 	H 	0.80259 0.50064 0.05404 0.04400
H 	H 	0.95925 0.77944 0.00987 0.04200
H 	H 	0.99360 0.89248 0.05415 0.03700
C 	C 	0.27601 0.18572 0.08402 -0.04200
C 	C 	0.21300 0.15702 0.07487 -0.04100
C 	C 	0.21489 0.16661 0.05778 0.01800
C 	C 	0.28021 0.20832 0.04998 -0.00800
C 	C 	0.34369 0.23711 0.05918 -0.00800
C 	C 	0.34165 0.22443 0.07619 0.01800
C 	C 	0.40951 0.27614 0.05125 0.01800
C 	C 	0.41095 0.28855 0.03430 -0.04200
C 	C 	0.34779 0.25996 0.02515 -0.04200
C 	C 	0.28248 0.21840 0.03284 0.01800
C 	C 	0.22025 0.18367 0.02347 -0.02800
C 	C 	0.15667 0.13681 0.03103 -0.05200
C 	C 	0.15314 0.13181 0.04829 -0.02700
C 	C 	0.40529 0.24854 0.08503 -0.02600
C 	C 	0.47091 0.28467 0.07700 -0.05200
C 	C 	0.47304 0.30017 0.06025 -0.02800
H 	H 	0.27387 0.17663 0.09714 0.04200
H 	H 	0.16292 0.12594 0.08102 0.04100
H 	H 	0.46108 0.31927 0.02813 0.04100
H 	H 	0.34994 0.26883 0.01202 0.04000
H 	H 	0.22215 0.19023 0.01023 0.04600
H 	H 	0.40401 0.23820 0.09808 0.05000
H 	H 	0.52390 0.32903 0.05417 0.04300
C 	C 	0.67998 0.14547 0.02898 -0.04100
C 	C 	0.70443 0.11985 0.01659 -0.03900
C 	C 	0.77769 0.14741 0.01368 0.01800
C 	C 	0.82627 0.20446 0.02233 -0.00400
C 	C 	0.80167 0.23033 0.03477 -0.01000
C 	C 	0.72853 0.19912 0.03853 0.02100
C 	C 	0.85076 0.28441 0.04423 0.02200
C 	C 	0.92357 0.31503 0.04044 -0.04800
C 	C 	0.94804 0.28888 0.02820 -0.02500
C 	C 	0.89995 0.23196 0.01959 0.01400
C 	C 	0.92470 0.19839 0.00962 -0.02300
C 	C 	0.87653 0.13635 0.00312 -0.05000
C 	C 	0.80336 0.11501 0.00354 -0.02400
C 	C 	0.70539 0.21923 0.05240 -0.02900
C 	C 	0.75505 0.26954 0.06267 -0.04900
C 	C 	0.82704 0.30450 0.05799 -0.02900
H 	H 	0.62348 0.12217 0.03151 0.04400
H 	H 	0.66654 0.07688 0.00976 0.04500
H 	H 	0.96154 0.35763 0.04737 0.04400
H 	H 	0.00465 0.31140 0.02588 0.02800
H 	H 	0.98142 0.21673 0.00845 0.04600
H 	H 	0.76633 0.06969 0.99741 0.05200
H 	H 	0.64938 0.19394 0.05556 0.05200
H 	H 	0.86490 0.34553 0.06540 0.04700
C 	C 	0.70620 0.08030 0.15964 -0.05700
C 	C 	0.73114 0.04985 0.17056 -0.00200
C 	C 	0.80139 0.08400 0.17644 -0.00100
C 	C 	0.84691 0.14924 0.17128 0.00900
C 	C 	0.82178 0.17993 0.16030 -0.01700
C 	C 	0.75117 0.14530 0.15445 0.02800
C 	C 	0.86728 0.24520 0.15517 0.02600
C 	C 	0.93756 0.27932 0.16102 -0.05300
C 	C 	0.96251 0.24886 0.17193 -0.01300
C 	C 	0.91751 0.18389 0.17713 0.00200
C 	C 	0.94218 0.15326 0.18815 -0.00900
C 	C 	0.89674 0.08841 0.19343 -0.06800
C 	C 	0.82648 0.05382 0.18748 -0.00700
C 	C 	0.72644 0.17604 0.14348 -0.02700
C 	C 	0.77180 0.24105 0.13829 -0.05400
C 	C 	0.84211 0.27551 0.14420 -0.02700
H 	H 	0.65187 0.05325 0.15523 0.04900
H 	H 	0.69573 0.99969 0.17445 0.01200
H 	H 	0.97296 0.32949 0.15714 0.04600
H 	H 	0.79120 0.00393 0.19161 0.04900
H 	H 	0.67205 0.14965 0.13904 0.04700
H 	H 	0.87735 0.32545 0.14010 0.04700
C 	C 	0.37422 0.28744 0.16863 -0.04700
C 	C 	0.30984 0.25340 0.17715 -0.03600
C 	C 	0.27239 0.18427 0.17724 0.00100
C 	C 	0.29972 0.14912 0.16860 0.01100
C 	C 	0.36471 0.18338 0.16010 -0.01900
C 	C 	0.40197 0.25278 0.16008 0.02100
C 	C 	0.39224 0.14822 0.15154 0.02700
C 	C 	0.35465 0.07910 0.15157 -0.06100
C 	C 	0.29017 0.04506 0.16005 0.00500
C 	C 	0.26253 0.07972 0.16865 -0.01600
C 	C 	0.19921 0.04586 0.17763 0.02600
C 	C 	0.17347 0.08075 0.18681 -0.08800
C 	C 	0.20902 0.14987 0.18622 -0.00800
C 	C 	0.46579 0.28665 0.15126 -0.02500
C 	C 	0.49224 0.25173 0.14234 -0.05900
C 	C 	0.45623 0.18260 0.14279 -0.02800
H 	H 	0.40243 0.34078 0.16867 0.03900
H 	H 	0.28929 0.28086 0.18374 0.03500
H 	H 	0.37525 0.05163 0.14501 0.04800
H 	H 	0.26193 0.99172 0.16000 0.00900
H 	H 	0.17113 0.99247 0.17794 0.01400
H 	H 	0.18915 0.17677 0.19332 0.03200
H 	H 	0.49405 0.34005 0.15101 0.04300
H 	H 	0.47651 0.15570 0.13584 0.04000
C 	C 	0.76096 0.62427 0.19201 -0.04200
C 	C 	0.74771 0.56813 0.18304 -0.04300
C 	C 	0.78029 0.57430 0.16769 0.01600
C 	C 	0.82684 0.63739 0.16135 -0.00800
C 	C 	0.83975 0.69386 0.17031 -0.00800
C 	C 	0.80696 0.68727 0.18573 0.01400
C 	C 	0.88614 0.75694 0.16393 0.01500
C 	C 	0.91870 0.76312 0.14858 -0.04300
C 	C 	0.90586 0.70700 0.13968 -0.04300
C 	C 	0.86006 0.64401 0.14598 0.01500
C 	C 	0.84550 0.58764 0.13691 -0.02500
C 	C 	0.79605 0.52488 0.14278 -0.06300
C 	C 	0.76542 0.51828 0.15841 -0.02500
C 	C 	0.82235 0.74367 0.19491 -0.02500
C 	C 	0.87177 0.80639 0.18899 -0.06400
C 	C 	0.90122 0.81295 0.17322 -0.02500
H 	H 	0.73566 0.61869 0.20386 0.03700
H 	H 	0.71192 0.51986 0.18803 0.04000
H 	H 	0.95435 0.81139 0.14357 0.03900
H 	H 	0.93136 0.71257 0.12785 0.03800
H 	H 	0.87001 0.59267 0.12496 0.04700
H 	H 	0.72820 0.46970 0.16305 0.04800
H 	H 	0.79864 0.73865 0.20695 0.04600
H 	H 	0.93815 0.86151 0.16853 0.04600
C 	C 	0.59423 0.70493 0.98271 -0.04100
C 	C 	0.53942 0.68011 0.97106 -0.04300
C 	C 	0.51580 0.72122 0.96422 0.01800
C 	C 	0.54242 0.78571 0.97032 -0.01000
C 	C 	0.59634 0.81015 0.98235 -0.00700
C 	C 	0.62525 0.77085 0.98780 0.01500
C 	C 	0.62665 0.87614 0.98760 0.01100
C 	C 	0.59901 0.91561 0.98174 -0.04300
C 	C 	0.54638 0.89172 0.96954 -0.04500
C 	C 	0.52016 0.82781 0.96325 0.01600
C 	C 	0.47702 0.80746 0.94913 -0.02700
C 	C 	0.45659 0.74564 0.94208 -0.05400
C 	C 	0.47114 0.70085 0.95041 -0.02800
C 	C 	0.68911 0.79994 0.99675 -0.02200
C 	C 	0.72425 0.86779 0.99999 -0.06600
C 	C 	0.68895 0.90372 0.99710 -0.02600
H 	H 	0.61452 0.67369 0.98724 0.04000
H 	H 	0.51780 0.62986 0.96678 0.04000
H 	H 	0.62075 0.96589 0.98601 0.03000
H 	H 	0.52804 0.92380 0.96455 0.03600
H 	H 	0.46362 0.84123 0.94303 0.04600
H 	H 	0.45210 0.65188 0.94541 0.04100
H 	H 	0.71501 0.77150 0.99971 0.04400
H 	H 	0.71427 0.95517 0.00055 0.03800
C 	C 	0.22199 0.31772 0.96990 -0.04400
C 	C 	0.24335 0.37956 0.96292 -0.04200
C 	C 	0.22880 0.38477 0.94630 0.01600
C 	C 	0.19475 0.32757 0.93649 -0.00700
C 	C 	0.17430 0.26549 0.94344 -0.00900
C 	C 	0.18612 0.26038 0.96032 0.02000
C 	C 	0.13855 0.20817 0.93373 0.02000
C 	C 	0.12638 0.21356 0.91696 -0.04200
C 	C 	0.14634 0.27517 0.91008 -0.04200
C 	C 	0.17919 0.33219 0.91985 0.01600
C 	C 	0.19610 0.39361 0.91322 -0.02700
C 	C 	0.23064 0.45082 0.92290 -0.05500
C 	C 	0.24718 0.44634 0.93942 -0.02800
C 	C 	0.15758 0.19792 0.96762 -0.03300
C 	C 	0.11594 0.14105 0.95826 -0.04700
C 	C 	0.11095 0.14612 0.94115 -0.02600
H 	H 	0.23216 0.31441 0.98282 0.03900
H 	H 	0.27020 0.42325 0.97052 0.03900
H 	H 	0.09985 0.16989 0.90934 0.04300
H 	H 	0.13542 0.27841 0.89720 0.04100
H 	H 	0.18359 0.39715 0.90046 0.04700
H 	H 	0.27411 0.49056 0.94686 0.04400
H 	H 	0.08008 0.10191 0.93390 0.04900
C 	C 	0.05324 0.68590 0.95350 -0.04100
C 	C 	0.03925 0.78838 0.93905 -0.00800
C 	C 	0.07707 0.76207 0.93082 -0.00900
C 	C 	0.08546 0.71163 0.93824 0.01700
C 	C 	0.10905 0.78812 0.91549 0.01700
C 	C 	0.10073 0.83849 0.90820 -0.04400
C 	C 	0.06363 0.86494 0.91643 -0.04300
C 	C 	0.03418 0.84122 0.93203 0.01500
C 	C 	0.12802 0.68928 0.93058 -0.02900
C 	C 	0.16244 0.71736 0.91567 -0.05200
C 	C 	0.15100 0.76519 0.90791 -0.02700
H 	H 	0.05849 0.64656 0.95921 0.03800
H 	H 	0.12429 0.85817 0.89631 0.03900
H 	H 	0.05917 0.90487 0.91083 0.03700
H 	H 	0.13618 0.65177 0.93644 0.04500
H 	H 	0.17589 0.78535 0.89614 0.04900
C 	C 	0.29462 0.91477 0.84228 -0.04200
C 	C 	0.26527 0.94609 0.83301 -0.04500
C 	C 	0.20422 0.90891 0.82340 0.01700
C 	C 	0.17303 0.83978 0.82293 -0.01000
C 	C 	0.20270 0.80825 0.83223 -0.00600
C 	C 	0.26328 0.84585 0.84207 0.01300
C 	C 	0.17073 0.73902 0.83200 0.01400
C 	C 	0.17398 0.94005 0.81427 -0.03100
C 	C 	0.29022 0.81398 0.85202 -0.02200
C 	C 	0.25630 0.74483 0.85242 -0.06200
C 	C 	0.19809 0.70766 0.84199 -0.02100
H 	H 	0.34134 0.94414 0.84975 0.03500
H 	H 	0.28986 0.99927 0.83339 0.03500
H 	H 	0.03394 0.70379 0.80557 0.04100
H 	H 	0.19805 0.99322 0.81465 0.04300
H 	H 	0.33522 0.84271 0.86004 0.03600
H 	H 	0.17262 0.65435 0.84212 0.04400
C 	C 	0.23513 0.29992 0.86390 -0.04200
C 	C 	0.21071 0.24459 0.85372 -0.04100
C 	C 	0.19500 0.24823 0.83711 0.01800
C 	C 	0.20453 0.30820 0.83066 -0.00800
C 	C 	0.22864 0.36373 0.84093 -0.00700
C 	C 	0.24395 0.35954 0.85761 0.01600
C 	C 	0.23660 0.42326 0.83458 0.01600
C 	C 	0.22159 0.42708 0.81792 -0.04200
C 	C 	0.19785 0.37193 0.80770 -0.04300
C 	C 	0.18858 0.31221 0.81402 0.01700
C 	C 	0.26724 0.41474 0.86782 -0.02500
C 	C 	0.27390 0.47375 0.86161 -0.06300
C 	C 	0.25891 0.47798 0.84498 -0.02500
H 	H 	0.24674 0.29625 0.87671 0.04100
H 	H 	0.20368 0.19883 0.85879 0.04300
H 	H 	0.22798 0.47266 0.81289 0.04000
H 	H 	0.27941 0.41168 0.88063 0.04600
H 	H 	0.26491 0.52376 0.84015 0.04800
C 	C 	0.67320 0.94037 0.85406 -0.02200
C 	C 	0.73383 0.97216 0.84415 -0.09000
C 	C 	0.76160 0.93590 0.83639 0.04700
C 	C 	0.72900 0.86735 0.83888 -0.02500
C 	C 	0.66800 0.83535 0.84888 0.00400
C 	C 	0.63968 0.87194 0.85639 0.00300
C 	C 	0.63480 0.76668 0.85117 0.01000
C 	C 	0.66324 0.73057 0.84361 -0.03700
C 	C 	0.72363 0.76230 0.83363 -0.04800
C 	C 	0.75642 0.83056 0.83108 0.02700
C 	C 	0.81492 0.86213 0.82044 -0.03800
C 	C 	0.84570 0.93004 0.81742 -0.03800
C 	C 	0.82027 0.96704 0.82581 -0.07200
C 	C 	0.57792 0.83963 0.86602 -0.01800
C 	C 	0.54455 0.77106 0.86832 -0.06200
C 	C 	0.57334 0.73483 0.86089 -0.02100
H 	H 	0.65212 0.96900 0.85985 0.02900
H 	H 	0.75872 0.02492 0.84238 0.06900
H 	H 	0.63832 0.67780 0.84537 0.03900
H 	H 	0.74447 0.73362 0.82776 0.04100
H 	H 	0.83464 0.83356 0.81404 0.04400
H 	H 	0.84494 0.01967 0.82374 0.07200
H 	H 	0.55567 0.86766 0.87163 0.04200
H 	H 	0.54809 0.68204 0.86269 0.04700
C 	C 	0.72310 0.98132 0.71323 -0.07900
C 	C 	0.65826 0.95417 0.70476 -0.02700
C 	C 	0.59615 0.90363 0.71193 0.00600
C 	C 	0.59837 0.88303 0.72811 0.00100
C 	C 	0.66351 0.91055 0.73667 -0.02300
C 	C 	0.72648 0.95855 0.72902 0.04100
C 	C 	0.66626 0.88761 0.75254 0.02700
C 	C 	0.60345 0.83967 0.76007 -0.04800
C 	C 	0.53890 0.81188 0.75151 -0.03800
C 	C 	0.53636 0.83185 0.73534 0.01200
C 	C 	0.47421 0.79797 0.72590 -0.02400
C 	C 	0.47439 0.81376 0.70920 -0.05700
C 	C 	0.53333 0.87004 0.70271 -0.02300
C 	C 	0.79225 0.98114 0.73698 -0.06800
C 	C 	0.79521 0.95570 0.75243 -0.03400
C 	C 	0.73201 0.91081 0.76042 -0.03900
H 	H 	0.77089 0.01900 0.70735 0.06100
H 	H 	0.65684 0.97108 0.69242 0.03100
H 	H 	0.60487 0.82263 0.77239 0.04200
H 	H 	0.49131 0.77350 0.75729 0.03900
H 	H 	0.42787 0.75605 0.73113 0.04800
H 	H 	0.53217 0.88417 0.69004 0.04000
H 	H 	0.84102 0.01669 0.73097 0.06600
H 	H 	0.73430 0.89303 0.77261 0.05200
C 	C 	0.15412 0.27387 0.70307 -0.04200
C 	C 	0.18844 0.33284 0.69421 -0.04000
C 	C 	0.23771 0.39145 0.70205 0.01700
C 	C 	0.25484 0.39025 0.71874 -0.00600
C 	C 	0.22014 0.33098 0.72768 -0.00900
C 	C 	0.16869 0.27278 0.71988 0.01900
C 	C 	0.23506 0.33037 0.74455 0.01800
C 	C 	0.28609 0.38852 0.75225 -0.04300
C 	C 	0.32033 0.44748 0.74339 -0.04100
C 	C 	0.30392 0.44902 0.72672 0.01600
C 	C 	0.33234 0.50910 0.71824 -0.02300
C 	C 	0.31049 0.51084 0.70207 -0.06000
C 	C 	0.26652 0.45178 0.69372 -0.02200
C 	C 	0.19771 0.27201 0.75358 -0.02700
H 	H 	0.17551 0.33315 0.68133 0.04100
H 	H 	0.29833 0.38838 0.76518 0.04100
H 	H 	0.35847 0.49220 0.74959 0.04000
H 	H 	0.36705 0.55481 0.72458 0.04300
H 	H 	0.25067 0.45336 0.68113 0.04900
H 	H 	0.20996 0.27093 0.76647 0.04600
C 	C 	0.25183 0.95536 0.69260 -0.02600
C 	C 	0.22667 0.98253 0.70442 -0.07800
C 	C 	0.15654 0.94633 0.71024 0.04100
C 	C 	0.10960 0.88487 0.70310 -0.02400
C 	C 	0.13461 0.85807 0.69099 0.00400
C 	C 	0.20694 0.89193 0.68639 0.00700
C 	C 	0.08911 0.79456 0.68469 0.00700
C 	C 	0.13450 0.96843 0.72390 -0.06300
C 	C 	0.23489 0.85923 0.67711 -0.02100
C 	C 	0.19154 0.79269 0.67292 -0.05700
C 	C 	0.11762 0.76326 0.67503 -0.02100
H 	H 	0.30698 0.98258 0.68879 0.03300
H 	H 	0.26262 0.03057 0.70953 0.06200
H 	H 	0.93824 0.75876 0.70591 0.04300
H 	H 	0.96554 0.83971 0.72800 0.04900
H 	H 	0.17096 0.01513 0.72961 0.06700
H 	H 	0.29161 0.88301 0.67472 0.03900
H 	H 	0.08357 0.71331 0.67082 0.04300
C 	C 	0.69391 0.59783 0.39590 -0.04100
C 	C 	0.66227 0.63226 0.40276 -0.04300
C 	C 	0.58826 0.60638 0.40183 0.01700
C 	C 	0.54587 0.54573 0.39381 -0.00900
C 	C 	0.57753 0.51058 0.38716 -0.00600
C 	C 	0.65189 0.53690 0.38811 0.01500
C 	C 	0.53485 0.44928 0.37947 0.01500
C 	C 	0.46099 0.42373 0.37837 -0.04100
C 	C 	0.42962 0.45878 0.38489 -0.04300
C 	C 	0.47161 0.51955 0.39272 0.01900
C 	C 	0.43992 0.55303 0.40009 -0.02800
C 	C 	0.48131 0.61095 0.40910 -0.05300
C 	C 	0.55576 0.63901 0.40938 -0.02600
C 	C 	0.68336 0.50272 0.38087 -0.02100
C 	C 	0.64092 0.44274 0.37273 -0.06400
C 	C 	0.56669 0.41519 0.37254 -0.02200
H 	H 	0.75106 0.61857 0.39668 0.04000
H 	H 	0.69535 0.67889 0.40887 0.03900
H 	H 	0.42782 0.37677 0.37241 0.03900
H 	H 	0.37252 0.43829 0.38398 0.03900
H 	H 	0.38258 0.53206 0.39968 0.04200
H 	H 	0.58776 0.68392 0.41629 0.04400
H 	H 	0.74073 0.52394 0.38096 0.04100
H 	H 	0.53415 0.36875 0.36627 0.03400
C 	C 	0.02351 0.56587 0.35334 -0.00800
C 	C 	0.05782 0.53003 0.35778 0.00600
C 	C 	0.12056 0.45511 0.36782 -0.04900
C 	C 	0.07178 0.43323 0.35479 -0.03300
C 	C 	0.03813 0.46913 0.35015 -0.00900
C 	C 	0.98033 0.44196 0.33922 -0.00200
C 	C 	0.93943 0.47299 0.33686 -0.07500
C 	C 	0.96509 0.53753 0.34261 0.00000
C 	C 	0.16545 0.62865 0.39340 -0.03100
C 	C 	0.19019 0.58731 0.39958 -0.05300
H 	H 	0.10638 0.69495 0.37989 0.03900
H 	H 	0.14423 0.42571 0.37164 0.04000
H 	H 	0.05808 0.38703 0.34877 0.03300
H 	H 	0.96241 0.39349 0.33405 0.04400
H 	H 	0.93515 0.56267 0.34012 0.04200
H 	H 	0.17729 0.67347 0.39993 0.04300
C 	C 	0.43942 0.93305 0.36770 -0.03900
C 	C 	0.45989 0.99182 0.35916 -0.06200
C 	C 	0.48321 0.05115 0.36779 0.03400
C 	C 	0.48333 0.05091 0.38515 -0.00100
C 	C 	0.46396 0.99204 0.39373 -0.01600
C 	C 	0.44245 0.93295 0.38497 0.01500
C 	C 	0.46803 0.99263 0.41106 0.00300
C 	C 	0.48857 0.05142 0.41971 -0.02500
C 	C 	0.50728 0.10978 0.41119 -0.04500
C 	C 	0.50629 0.11020 0.39391 0.02000
C 	C 	0.53260 0.16972 0.38529 -0.02600
C 	C 	0.53943 0.17075 0.36810 -0.05000
C 	C 	0.51077 0.11124 0.35933 -0.03400
C 	C 	0.42510 0.87477 0.39359 -0.02700
C 	C 	0.43076 0.87579 0.41082 -0.05600
C 	C 	0.45207 0.93462 0.41951 -0.02300
H 	H 	0.42230 0.88784 0.36085 0.03700
H 	H 	0.45879 0.99134 0.34582 0.03700
H 	H 	0.49085 0.05215 0.43304 0.04100
H 	H 	0.52416 0.15495 0.41804 0.04300
H 	H 	0.55364 0.21579 0.39200 0.04700
H 	H 	0.51506 0.11217 0.34601 0.04100
H 	H 	0.40758 0.82899 0.38696 0.04100
H 	H 	0.45496 0.93482 0.43285 0.04600
C 	C 	0.34623 0.36955 0.60007 -0.04300
C 	C 	0.31494 0.40395 0.60713 -0.04000
C 	C 	0.35656 0.46210 0.61606 0.01400
C 	C 	0.43011 0.48555 0.61800 -0.00500
C 	C 	0.46138 0.45052 0.61108 -0.00900
C 	C 	0.41948 0.39274 0.60192 0.01800
C 	C 	0.53493 0.47411 0.61302 0.01900
C 	C 	0.57646 0.53197 0.62205 -0.04300
C 	C 	0.54544 0.56681 0.62888 -0.04000
C 	C 	0.47241 0.54401 0.62688 0.01400
C 	C 	0.44094 0.57815 0.63395 -0.01900
C 	C 	0.36734 0.55361 0.63261 -0.06600
C 	C 	0.32541 0.49644 0.62338 -0.02000
C 	C 	0.45189 0.36048 0.59415 -0.02500
C 	C 	0.52587 0.38623 0.59531 -0.05200
C 	C 	0.56656 0.44119 0.60533 -0.02800
H 	H 	0.31351 0.32511 0.59309 0.04000
H 	H 	0.25839 0.38538 0.60560 0.04000
H 	H 	0.63297 0.55041 0.62363 0.03900
H 	H 	0.57828 0.61154 0.63576 0.03800
H 	H 	0.47311 0.62250 0.64105 0.03100
H 	H 	0.26853 0.47751 0.62241 0.04100
H 	H 	0.42049 0.31790 0.58643 0.04500
H 	H 	0.62350 0.46043 0.60636 0.04200
C 	C 	0.96837 0.37192 0.64290 -0.03900
C 	C 	0.91899 0.34960 0.63001 -0.04400
C 	C 	0.88652 0.38623 0.62510 0.01900
C 	C 	0.89957 0.44292 0.63404 -0.01100
C 	C 	0.86757 0.48024 0.62913 0.01800
C 	C 	0.82634 0.46310 0.61473 -0.02800
C 	C 	0.81744 0.40926 0.60516 -0.05400
C 	C 	0.84458 0.36908 0.61084 -0.02800
C 	C 	0.06717 0.52360 0.66797 -0.06500
C 	C 	0.02314 0.55179 0.66631 -0.02000
H 	H 	0.99520 0.34460 0.64610 0.03900
H 	H 	0.90795 0.30507 0.62347 0.04100
H 	H 	0.94059 0.60295 0.65772 0.03600
H 	H 	0.80364 0.49303 0.61065 0.04800
H 	H 	0.83498 0.32580 0.60388 0.04400
H 	H 	0.03842 0.59877 0.67206 0.04600
C 	C 	0.51004 0.94558 0.58316 -0.06000
C 	C 	0.49061 0.88670 0.59149 -0.03700
C 	C 	0.49452 0.88602 0.60873 0.01500
C 	C 	0.52104 0.94546 0.61762 -0.01500
C 	C 	0.54107 0.00484 0.60922 -0.00100
C 	C 	0.53418 0.00461 0.59196 0.03300
C 	C 	0.56620 0.06414 0.61812 0.02100
C 	C 	0.57210 0.06372 0.63533 -0.04600
C 	C 	0.55101 0.00448 0.64371 -0.02300
C 	C 	0.52419 0.94500 0.63495 0.00100
C 	C 	0.49626 0.88469 0.64333 -0.02500
C 	C 	0.46427 0.82523 0.63450 -0.05600
C 	C 	0.46780 0.82625 0.61725 -0.02300
C 	C 	0.55105 0.06326 0.58372 -0.03100
C 	C 	0.57600 0.12233 0.59254 -0.05000
C 	C 	0.58435 0.12291 0.60969 -0.02900
H 	H 	0.50553 0.94509 0.56987 0.04200
H 	H 	0.47097 0.84138 0.58454 0.03900
H 	H 	0.59197 0.10906 0.64228 0.04300
H 	H 	0.55444 0.00477 0.65701 0.04000
H 	H 	0.49443 0.88372 0.65668 0.03500
H 	H 	0.44417 0.78018 0.61049 0.04500
H 	H 	0.54613 0.06334 0.57043 0.05300
H 	H 	0.60463 0.16884 0.61643 0.04400
C 	C 	0.38997 0.48389 0.51474 -0.04200
C 	C 	0.41162 0.44710 0.52432 -0.04100
C 	C 	0.47497 0.44675 0.52062 0.01600
C 	C 	0.51689 0.48373 0.50720 -0.00800
C 	C 	0.49517 0.52088 0.49757 -0.00800
C 	C 	0.43136 0.52081 0.50133 0.01700
C 	C 	0.53705 0.55778 0.48415 0.01600
C 	C 	0.60045 0.55752 0.48046 -0.04100
C 	C 	0.62210 0.52072 0.49004 -0.04200
C 	C 	0.58066 0.48373 0.50343 0.01700
C 	C 	0.60247 0.44719 0.51317 -0.02500
C 	C 	0.56123 0.41100 0.52670 -0.06100
C 	C 	0.49719 0.41046 0.53028 -0.02400
C 	C 	0.40935 0.55705 0.49154 -0.02600
C 	C 	0.45038 0.59293 0.47796 -0.06100
C 	C 	0.51462 0.59378 0.47443 -0.02400
H 	H 	0.34090 0.48353 0.51774 0.04100
H 	H 	0.37909 0.41890 0.53463 0.04000
H 	H 	0.63298 0.58571 0.47015 0.04000
H 	H 	0.67117 0.52109 0.48704 0.04100
H 	H 	0.65153 0.44720 0.51032 0.04900
H 	H 	0.46565 0.38310 0.54081 0.05000
H 	H 	0.36020 0.55690 0.49437 0.04800
H 	H 	0.54610 0.62102 0.46388 0.04900
C 	C 	0.38048 0.97839 0.49526 -0.06800
C 	C 	0.41094 0.03483 0.50514 -0.01600
C 	C 	0.48120 0.06113 0.51080 -0.00100
C 	C 	0.52118 0.03053 0.50644 0.02100
C 	C 	0.49048 0.97366 0.49652 -0.03600
C 	C 	0.41989 0.94755 0.49090 0.03100
C 	C 	0.53042 0.94299 0.49219 0.03100
C 	C 	0.60072 0.96936 0.49781 -0.06700
C 	C 	0.63119 0.02581 0.50769 -0.01600
C 	C 	0.59174 0.05659 0.51208 -0.00100
C 	C 	0.62169 0.11262 0.52218 -0.01300
C 	C 	0.58150 0.14247 0.52679 -0.06800
C 	C 	0.51159 0.11708 0.52092 -0.01400
C 	C 	0.38975 0.89122 0.48090 -0.03300
C 	C 	0.42977 0.86106 0.47639 -0.05700
C 	C 	0.49984 0.88674 0.48218 -0.03300
H 	H 	0.32621 0.95873 0.49100 0.04200
H 	H 	0.37979 0.05799 0.50843 0.03500
H 	H 	0.63187 0.94619 0.49454 0.04300
H 	H 	0.68545 0.04548 0.51196 0.03600
H 	H 	0.67591 0.13270 0.52655 0.04300
H 	H 	0.48041 0.13987 0.52455 0.03900
H 	H 	0.33545 0.87102 0.47658 0.04500
H 	H 	0.53094 0.86380 0.47860 0.04200
C 	C 	0.96847 0.42541 0.47753 -0.03500
C 	C 	0.90986 0.39868 0.48814 -0.04300
C 	C 	0.91280 0.42969 0.50317 0.01800
C 	C 	0.97506 0.48817 0.50754 -0.00600
C 	C 	0.97846 0.51958 0.52262 0.01900
C 	C 	0.91997 0.49193 0.53335 -0.02700
C 	C 	0.85830 0.43289 0.52917 -0.05800
C 	C 	0.85456 0.40249 0.51397 -0.02600
C 	C 	0.15124 0.56975 0.47532 -0.06000
C 	C 	0.15480 0.60052 0.49045 -0.02600
H 	H 	0.96532 0.40085 0.46598 0.04100
H 	H 	0.86226 0.35374 0.48467 0.04200
H 	H 	0.14689 0.64955 0.51971 0.04000
H 	H 	0.92307 0.51534 0.54509 0.05000
H 	H 	0.80668 0.35743 0.51065 0.05000
H 	H 	0.20272 0.64554 0.49377 0.04800
