data_crystal

_cell_length_a 33.24370
_cell_length_b 15.86781
_cell_length_c 43.33962
_cell_angle_alpha 89.51067
_cell_angle_beta  82.21828
_cell_angle_gamma 105.70898

_symmetry_space_group_name_	'P 1'
_symmetry_space_group_name_H-M	'P 1'

loop_
_symmetry_equiv_pos_as_xyz
  x,y,z

loop_
_atom_site_label
_atom_site_type_symbol
_atom_site_fract_x
_atom_site_fract_y
_atom_site_fract_z
_atom_site_charge
Zn	Zn	0.36426 0.30380 0.94939 1.21100
Zn	Zn	0.38910 0.47559 0.90804 1.21600
Zn	Zn	0.28475 0.24409 0.91826 1.21500
P 	P 	0.37400 0.29869 0.88468 0.30100
P 	P 	0.30616 0.41253 0.94848 0.30200
C 	C 	0.20616 0.20305 0.89521 0.27000
C 	C 	0.30549 0.14165 0.96842 0.26200
C 	C 	0.43337 0.44086 0.96094 0.27700
O 	O 	0.40139 0.30590 0.91194 -0.45900
O 	O 	0.31738 0.34091 0.96872 -0.46800
O 	O 	0.36407 0.38994 0.87923 -0.44000
O 	O 	0.28730 0.36875 0.91858 -0.41900
O 	O 	0.33200 0.21908 0.89188 -0.43200
O 	O 	0.34612 0.49569 0.93922 -0.41900
O 	O 	0.23653 0.17035 0.90168 -0.41900
O 	O 	0.35049 0.61008 0.88718 -0.24400
O 	O 	0.20372 0.27876 0.90604 -0.25300
O 	O 	0.27698 0.17856 0.96016 -0.42800
O 	O 	0.43754 0.46076 0.93057 -0.42500
O 	O 	0.34575 0.17852 0.95908 -0.44400
O 	O 	0.40308 0.37345 0.97376 -0.44800
C 	C 	0.39132 0.63518 0.87772 0.27100
O 	O 	0.41559 0.59032 0.88744 -0.41400
Zn	Zn	0.34806 0.17231 0.52970 1.21000
Zn	Zn	0.26364 0.14390 0.57265 1.21500
Zn	Zn	0.37842 0.35080 0.55614 1.21400
P 	P 	0.34572 0.17828 0.59412 0.30400
P 	P 	0.30035 0.29927 0.52717 0.30100
C 	C 	0.40514 0.46175 0.60313 0.27000
C 	C 	0.43121 0.27674 0.50973 0.28000
C 	C 	0.28096 0.02810 0.52177 0.24900
O 	O 	0.34213 0.10845 0.56839 -0.46100
O 	O 	0.33597 0.26522 0.50752 -0.46500
O 	O 	0.30257 0.20495 0.60033 -0.43300
O 	O 	0.31988 0.35359 0.55508 -0.42700
O 	O 	0.38541 0.26056 0.58365 -0.42700
O 	O 	0.25926 0.22113 0.53964 -0.42700
O 	O 	0.41268 0.45423 0.57286 -0.41600
O 	O 	0.19922 0.23809 0.59245 -0.24600
O 	O 	0.37416 0.40295 0.61986 -0.24900
O 	O 	0.41595 0.34508 0.51551 -0.43000
O 	O 	0.26962 0.03145 0.55222 -0.43200
O 	O 	0.40817 0.19726 0.51887 -0.45100
O 	O 	0.31562 0.08283 0.50762 -0.45100
C 	C 	0.18431 0.15538 0.60202 0.26700
O 	O 	0.20622 0.09974 0.59348 -0.42400
Zn	Zn	0.46236 0.05896 0.73868 1.19300
Zn	Zn	0.53063 0.03097 0.77597 1.20800
Zn	Zn	0.47204 0.90391 0.70079 1.21700
P 	P 	0.45501 0.88929 0.76890 0.30000
P 	P 	0.54437 0.05472 0.70756 0.27400
C 	C 	0.48121 0.75464 0.66718 0.27600
C 	C 	0.41383 0.01498 0.69073 0.25300
C 	C 	0.48053 0.16235 0.78885 0.30300
O 	O 	0.43976 0.97489 0.77462 -0.41700
O 	O 	0.50618 0.09204 0.70211 -0.44400
O 	O 	0.50521 0.91191 0.76582 -0.42600
O 	O 	0.52970 0.95007 0.70906 -0.40400
O 	O 	0.43718 0.84470 0.73865 -0.40800
O 	O 	0.56290 0.09531 0.73821 -0.40800
O 	O 	0.46222 0.81719 0.66967 -0.41200
O 	O 	0.62728 0.07374 0.77167 -0.24600
O 	O 	0.50934 0.75183 0.68540 -0.24300
O 	O 	0.44601 0.98581 0.67884 -0.39300
O 	O 	0.49191 0.09548 0.79969 -0.44500
O 	O 	0.41114 0.03793 0.71966 -0.44400
O 	O 	0.47733 0.16847 0.75927 -0.44900
C 	C 	0.60941 0.06808 0.80081 0.27400
O 	O 	0.56809 0.04545 0.80751 -0.42500
Zn	Zn	0.23268 0.49648 0.35544 1.20200
Zn	Zn	0.15452 0.38964 0.40294 1.21900
Zn	Zn	0.22437 0.65050 0.39808 1.22100
P 	P 	0.23445 0.48951 0.42349 0.29700
P 	P 	0.15410 0.54704 0.36805 0.30100
C 	C 	0.20987 0.75568 0.44644 0.25100
C 	C 	0.29131 0.66700 0.34452 0.29100
C 	C 	0.19018 0.31665 0.34884 0.28800
O 	O 	0.24800 0.44743 0.39201 -0.44700
O 	O 	0.19513 0.56159 0.34308 -0.44500
O 	O 	0.18434 0.47057 0.43065 -0.43400
O 	O 	0.16569 0.58717 0.40025 -0.43900
O 	O 	0.25628 0.59243 0.42097 -0.41900
O 	O 	0.13011 0.44515 0.37300 -0.42400
O 	O 	0.23042 0.75803 0.41817 -0.42100
O 	O 	0.12973 0.33152 0.47037 -0.25500
O 	O 	0.18181 0.68290 0.45777 -0.24700
O 	O 	0.25837 0.69431 0.35603 -0.43200
O 	O 	0.18657 0.31520 0.37947 -0.44300
O 	O 	0.28729 0.58247 0.34152 -0.43400
O 	O 	0.21267 0.38862 0.33256 -0.42600
C 	C 	0.09861 0.30294 0.45407 0.25100
O 	O 	0.10724 0.30104 0.42368 -0.42300
Zn	Zn	0.17672 0.53393 0.12216 1.20600
Zn	Zn	0.10626 0.54707 0.08314 1.21700
Zn	Zn	0.22994 0.70435 0.08142 1.21900
P 	P 	0.14904 0.68896 0.12131 0.30300
P 	P 	0.18846 0.54314 0.05280 0.29900
C 	C 	0.26339 0.88730 0.06898 0.25200
C 	C 	0.26361 0.61767 0.12717 0.29300
C 	C 	0.09865 0.40023 0.12946 0.28800
O 	O 	0.13972 0.59999 0.14110 -0.44500
O 	O 	0.20427 0.51122 0.08257 -0.45900
O 	O 	0.13281 0.67079 0.08835 -0.43400
O 	O 	0.19582 0.64692 0.05115 -0.44500
O 	O 	0.19823 0.73755 0.11775 -0.41400
O 	O 	0.13979 0.49397 0.05331 -0.41500
O 	O 	0.27196 0.81133 0.06546 -0.41700
O 	O 	0.09558 0.63127 0.02638 -0.24800
O 	O 	0.23774 0.89780 0.09357 -0.22900
O 	O 	0.26626 0.63658 0.09713 -0.44000
O 	O 	0.08308 0.46494 0.12179 -0.43000
O 	O 	0.22678 0.57802 0.14374 -0.42900
O 	O 	0.13929 0.41558 0.13114 -0.43600
C 	C 	0.05986 0.57295 0.03698 0.25200
O 	O 	0.05631 0.53056 0.06389 -0.41900
Zn	Zn	0.01871 0.02563 0.24425 1.18500
Zn	Zn	0.03346 0.87863 0.28271 1.21500
P 	P 	0.05418 0.88904 0.21513 0.30100
C 	C 	0.99671 0.08456 0.19017 0.29100
C 	C 	0.07249 0.07067 0.28953 0.25200
O 	O 	0.05528 0.98851 0.20950 -0.41700
O 	O 	0.00726 0.82805 0.21626 -0.42900
O 	O 	0.07395 0.87999 0.24629 -0.41000
O 	O 	0.02240 0.68676 0.29088 -0.24600
O 	O 	0.99642 0.00790 0.17828 -0.44500
O 	O 	0.04771 0.99668 0.30357 -0.39600
O 	O 	0.98944 0.08887 0.22048 -0.45800
O 	O 	0.06467 0.09822 0.26301 -0.44600
C 	C 	0.04517 0.72796 0.31149 0.27200
O 	O 	0.05132 0.81288 0.31357 -0.41000
C 	C 	0.06807 0.20753 0.17510 -0.01300
H 	H 	0.08678 0.17900 0.18949 0.03300
C 	C 	0.05933 0.29778 0.17939 -0.00800
H 	H 	0.07106 0.34468 0.19716 0.03900
C 	C 	0.07826 0.22634 0.13944 -0.01200
H 	H 	0.10569 0.21439 0.12426 0.03500
C 	C 	0.06930 0.31604 0.14391 -0.06100
C 	C 	0.02136 0.16687 0.17172 -0.06800
C 	C 	0.03120 0.18469 0.13617 -0.01200
H 	H 	0.01946 0.13751 0.11850 0.03200
C 	C 	0.02261 0.27578 0.14035 -0.01500
H 	H 	0.00409 0.30475 0.12594 0.03600
C 	C 	0.01237 0.25656 0.17615 -0.00800
C 	C 	0.34594 0.64371 0.12913 -0.00900
H 	H 	0.35354 0.61142 0.10732 0.03600
C 	C 	0.35285 0.61709 0.16207 -0.01700
H 	H 	0.36690 0.56373 0.16756 0.04100
C 	C 	0.36438 0.74155 0.13536 -0.01200
H 	H 	0.38779 0.79057 0.11888 0.04500
C 	C 	0.37081 0.71457 0.16808 -0.05300
C 	C 	0.30176 0.65010 0.14283 -0.06800
C 	C 	0.31976 0.74752 0.14887 -0.00900
H 	H 	0.30571 0.80087 0.14333 0.04200
C 	C 	0.32664 0.72096 0.18180 -0.01200
H 	H 	0.31911 0.75328 0.20362 0.04200
C 	C 	0.30810 0.62300 0.17557 -0.00600
H 	H 	0.28464 0.57396 0.19200 0.04100
C 	C 	0.08423 0.74897 0.18965 -0.01500
H 	H 	0.06869 0.70618 0.21072 0.05500
C 	C 	0.13198 0.77552 0.17801 -0.01200
H 	H 	0.15588 0.75361 0.18910 0.05000
C 	C 	0.07454 0.73015 0.15619 -0.01800
H 	H 	0.05136 0.67139 0.14924 0.04000
C 	C 	0.12211 0.75696 0.14469 -0.02100
C 	C 	0.08390 0.84478 0.18431 -0.02300
C 	C 	0.07386 0.82656 0.15099 -0.02200
H 	H 	0.04976 0.84853 0.14019 0.03900
C 	C 	0.12215 0.85280 0.13899 -0.01400
H 	H 	0.13799 0.89451 0.11775 0.05300
C 	C 	0.13153 0.87185 0.17288 -0.01300
H 	H 	0.15466 0.93044 0.17998 0.05300
C 	C 	0.37349 0.71119 0.32396 0.00000
H 	H 	0.37989 0.65067 0.33258 0.04200
C 	C 	0.39526 0.80565 0.33241 -0.03200
H 	H 	0.41989 0.82426 0.34794 0.04100
C 	C 	0.37919 0.74175 0.28944 -0.02700
H 	H 	0.39060 0.70649 0.26958 0.06200
C 	C 	0.40057 0.83582 0.29799 -0.01400
C 	C 	0.33048 0.73170 0.32870 -0.06800
C 	C 	0.33608 0.76213 0.29427 0.00400
H 	H 	0.31172 0.74349 0.27851 0.03900
C 	C 	0.35773 0.85686 0.30260 -0.02400
H 	H 	0.35167 0.91749 0.29377 0.05400
C 	C 	0.35155 0.82573 0.33753 -0.00300
H 	H 	0.33961 0.85965 0.35757 0.03900
C 	C 	0.17085 0.19361 0.30638 -0.00900
H 	H 	0.20331 0.19690 0.29511 0.03300
C 	C 	0.13591 0.21427 0.28990 -0.01200
H 	H 	0.13936 0.23410 0.26483 0.04200
C 	C 	0.13831 0.11085 0.32285 -0.02100
H 	H 	0.14350 0.04496 0.32509 0.02700
C 	C 	0.10370 0.13233 0.30656 -0.05500
C 	C 	0.15956 0.24824 0.33363 -0.07200
C 	C 	0.12744 0.16644 0.35041 -0.01200
H 	H 	0.12415 0.14715 0.37551 0.03600
C 	C 	0.09245 0.18702 0.33384 -0.01500
H 	H 	0.06001 0.18392 0.34513 0.03600
C 	C 	0.12490 0.26944 0.31735 -0.01200
H 	H 	0.11962 0.33526 0.31507 0.04000
C 	C 	0.13256 0.70084 0.34279 -0.02400
H 	H 	0.16318 0.74811 0.34548 0.04100
C 	C 	0.08846 0.70618 0.35818 -0.00600
H 	H 	0.08230 0.75887 0.37324 0.04300
C 	C 	0.11525 0.67797 0.31160 -0.00400
H 	H 	0.13114 0.70742 0.28827 0.04100
C 	C 	0.07153 0.68274 0.32710 -0.05700
C 	C 	0.11977 0.60273 0.35228 -0.02300
C 	C 	0.10290 0.57924 0.32129 -0.01900
H 	H 	0.10913 0.52652 0.30627 0.04500
C 	C 	0.05886 0.58443 0.33668 -0.00800
H 	H 	0.02832 0.53679 0.33404 0.04100
C 	C 	0.07617 0.60714 0.36796 -0.02500
H 	H 	0.06050 0.57741 0.39129 0.04100
C 	C 	0.28893 0.89289 0.49631 -0.05700
C 	C 	0.25934 0.95305 0.50376 -0.02000
C 	C 	0.23253 0.91716 0.45160 -0.08800
C 	C 	0.22642 0.82641 0.46791 -0.01700
C 	C 	0.26976 0.81909 0.47530 -0.06400
H 	H 	0.32038 0.93151 0.48427 0.06000
H 	H 	0.29427 0.86373 0.51834 0.05300
H 	H 	0.20168 0.92392 0.44628 0.05800
H 	H 	0.25385 0.92414 0.42901 0.06600
H 	H 	0.29206 0.82323 0.45335 0.05100
H 	H 	0.26598 0.75431 0.48717 0.04700
C 	C 	0.19673 0.82130 0.49945 -0.06400
H 	H 	0.19165 0.75691 0.51196 0.05400
H 	H 	0.16529 0.82655 0.49499 0.05100
C 	C 	0.21617 0.89609 0.52059 -0.05900
H 	H 	0.19416 0.93741 0.52616 0.05500
H 	H 	0.22037 0.86717 0.54301 0.05900
C 	C 	0.25163 0.99106 0.47252 0.02600
H 	H 	0.23002 0.03364 0.47730 -0.00100
H 	H 	0.28173 0.03279 0.45949 0.01000
C 	C 	0.50105 0.25915 0.51845 -0.05800
C 	C 	0.47600 0.28827 0.49452 -0.03600
C 	C 	0.54552 0.38888 0.46741 -0.06500
C 	C 	0.55408 0.29722 0.46868 -0.02700
C 	C 	0.54655 0.26409 0.50337 -0.06100
H 	H 	0.50204 0.30167 0.53880 0.04300
H 	H 	0.48506 0.19073 0.52755 0.04800
H 	H 	0.55040 0.41430 0.44277 0.04300
H 	H 	0.56832 0.43645 0.47979 0.05200
H 	H 	0.56914 0.30887 0.51672 0.05300
H 	H 	0.55208 0.19819 0.50508 0.04200
C 	C 	0.52152 0.23325 0.45128 -0.06000
H 	H 	0.52659 0.16676 0.45189 0.04100
H 	H 	0.52567 0.25542 0.42632 0.04900
C 	C 	0.47598 0.22820 0.46631 -0.05700
H 	H 	0.45856 0.24805 0.44859 0.03900
H 	H 	0.45937 0.15881 0.47385 0.04400
C 	C 	0.49970 0.38371 0.48260 -0.05400
H 	H 	0.48266 0.40639 0.46522 0.04700
H 	H 	0.50070 0.42848 0.50229 0.04900
C 	C 	0.31918 0.42800 0.47810 -0.07100
C 	C 	0.28199 0.36089 0.49835 0.00500
C 	C 	0.23425 0.45684 0.48779 -0.07200
C 	C 	0.25389 0.43886 0.45467 0.00600
C 	C 	0.30272 0.47346 0.45244 -0.06800
H 	H 	0.33612 0.47818 0.49308 0.04200
H 	H 	0.34236 0.39465 0.46678 0.05500
H 	H 	0.19926 0.43289 0.49043 0.06800
H 	H 	0.24244 0.52865 0.49109 0.05400
H 	H 	0.31205 0.54556 0.45511 0.05300
H 	H 	0.31803 0.46132 0.42906 0.05300
C 	C 	0.24245 0.33863 0.45102 -0.07300
H 	H 	0.25664 0.32326 0.42773 0.05700
H 	H 	0.20765 0.31141 0.45256 0.04900
C 	C 	0.25865 0.29334 0.47636 -0.06500
H 	H 	0.23120 0.24461 0.48985 0.05600
H 	H 	0.28015 0.25615 0.46498 0.05100
C 	C 	0.25061 0.41062 0.51346 -0.06900
H 	H 	0.22337 0.36413 0.52802 0.06400
H 	H 	0.26641 0.46023 0.52911 0.05400
C 	C 	0.37230 0.16882 0.65735 -0.02400
H 	H 	0.36923 0.23377 0.66487 0.05300
C 	C 	0.41391 0.14169 0.65139 -0.00800
H 	H 	0.44571 0.18380 0.65424 0.04100
C 	C 	0.35010 0.07942 0.67530 -0.00100
H 	H 	0.32920 0.07016 0.69803 0.03400
C 	C 	0.39171 0.05309 0.66886 -0.05300
C 	C 	0.35982 0.12692 0.62704 -0.01300
C 	C 	0.33734 0.03833 0.64433 -0.06200
H 	H 	0.30559 0.99661 0.64121 0.07600
C 	C 	0.37917 0.01156 0.63845 -0.04200
H 	H 	0.38236 0.94686 0.63071 0.07100
C 	C 	0.40134 0.10034 0.62088 -0.01200
H 	H 	0.42262 0.10926 0.59829 0.04100
C 	C 	0.12657 0.05698 0.67232 -0.01100
H 	H 	0.13403 0.01460 0.68998 0.04200
C 	C 	0.15270 0.15167 0.66187 -0.01000
H 	H 	0.18243 0.18744 0.67036 0.04300
C 	C 	0.12232 0.03512 0.63796 -0.05400
H 	H 	0.12692 0.97504 0.62681 0.08000
C 	C 	0.14810 0.12956 0.62780 -0.04800
C 	C 	0.08615 0.08718 0.67469 -0.02400
C 	C 	0.08128 0.06483 0.64075 -0.01900
H 	H 	0.05142 0.02892 0.63246 0.02500
C 	C 	0.10755 0.15973 0.63022 -0.01200
H 	H 	0.10002 0.20213 0.61259 0.04000
C 	C 	0.11173 0.18150 0.66465 -0.01500
H 	H 	0.10695 0.24127 0.67594 0.04900
C 	C 	0.42355 0.60599 0.66184 -0.00900
H 	H 	0.40515 0.60389 0.68535 0.04200
C 	C 	0.44493 0.53542 0.64936 -0.01100
H 	H 	0.44379 0.47390 0.66229 0.04200
C 	C 	0.40664 0.61078 0.63056 -0.01100
H 	H 	0.37398 0.61161 0.62796 0.04200
C 	C 	0.42816 0.54095 0.61821 -0.05500
C 	C 	0.46391 0.67736 0.64887 -0.05500
C 	C 	0.44723 0.68302 0.61770 -0.01100
H 	H 	0.44832 0.74457 0.60481 0.04400
C 	C 	0.46858 0.61208 0.60509 -0.01200
H 	H 	0.48686 0.61392 0.58155 0.04200
C 	C 	0.48563 0.60775 0.63654 -0.01300
H 	H 	0.51828 0.60711 0.63923 0.04400
C 	C 	0.49442 0.41432 0.98333 -0.05500
C 	C 	0.46826 0.48050 0.97969 -0.03300
C 	C 	0.48246 0.53381 0.03380 -0.06200
C 	C 	0.52695 0.54146 0.01580 -0.02200
C 	C 	0.52857 0.44977 0.00447 -0.06400
H 	H 	0.47340 0.35039 0.99362 0.04500
H 	H 	0.50973 0.40155 0.96003 0.04500
H 	H 	0.48044 0.59907 0.04197 0.04400
H 	H 	0.47626 0.48902 0.05486 0.05100
H 	H 	0.52357 0.40281 0.02478 0.04700
H 	H 	0.56029 0.45380 0.99135 0.04700
C 	C 	0.53342 0.60399 0.98644 -0.06200
H 	H 	0.56508 0.61092 0.97274 0.05500
H 	H 	0.53226 0.67049 0.99371 0.05100
C 	C 	0.49890 0.56815 0.96524 -0.05800
H 	H 	0.48109 0.61723 0.96248 0.04400
H 	H 	0.51424 0.55806 0.94163 0.05200
C 	C 	0.44824 0.49844 0.01277 -0.05800
H 	H 	0.42967 0.54659 0.01087 0.04000
H 	H 	0.42594 0.43730 0.02422 0.05000
C 	C 	0.28830 0.04869 0.05373 -0.08200
C 	C 	0.27481 0.95426 0.04194 -0.01900
C 	C 	0.24701 0.01587 0.99693 -0.14100
C 	C 	0.29346 0.07280 0.99485 -0.00200
C 	C 	0.29905 0.11781 0.02624 -0.06700
H 	H 	0.26246 0.06081 0.07075 0.04500
H 	H 	0.31626 0.05658 0.06608 0.03800
H 	H 	0.24208 0.98236 0.97474 0.08700
H 	H 	0.22504 0.05801 0.00035 0.06000
H 	H 	0.27824 0.16228 0.03014 0.04500
H 	H 	0.33215 0.15899 0.02556 0.04100
C 	C 	0.32262 0.01042 0.99065 -0.14300
H 	H 	0.35633 0.04840 0.98939 0.06000
H 	H 	0.31923 0.97677 0.96833 0.08600
C 	C 	0.31171 0.94124 0.01810 -0.01200
H 	H 	0.30299 0.87459 0.00876 0.04000
H 	H 	0.34008 0.94662 0.02979 0.04700
C 	C 	0.23615 0.94650 0.02447 -0.01700
H 	H 	0.22597 0.87969 0.01546 0.03600
H 	H 	0.20899 0.95573 0.04084 0.05000
C 	C 	0.20642 0.40604 0.01957 -0.06400
C 	C 	0.22055 0.50759 0.02035 -0.00200
C 	C 	0.29550 0.50405 0.00062 -0.06900
C 	C 	0.26935 0.45165 0.97643 0.00900
C 	C 	0.23486 0.37330 0.99388 -0.07300
H 	H 	0.20782 0.37587 0.04255 0.05200
H 	H 	0.17307 0.38360 0.01511 0.05200
H 	H 	0.32008 0.56188 0.98897 0.05700
H 	H 	0.31223 0.46253 0.01173 0.05300
H 	H 	0.24942 0.32758 0.00495 0.05600
H 	H 	0.21525 0.33544 0.97710 0.04800
C 	C 	0.24696 0.51305 0.96176 -0.07400
H 	H 	0.22759 0.47739 0.94446 0.06100
H 	H 	0.27086 0.57019 0.94910 0.06300
C 	C 	0.21804 0.54608 0.98775 -0.06500
H 	H 	0.22818 0.61894 0.98740 0.05100
H 	H 	0.18485 0.52617 0.98286 0.05400
C 	C 	0.26722 0.53642 0.02607 -0.06900
H 	H 	0.27829 0.60917 0.02650 0.03600
H 	H 	0.27082 0.50950 0.04901 0.06000
C 	C 	0.39684 0.24472 0.81946 -0.02700
H 	H 	0.36862 0.25150 0.80969 0.04300
C 	C 	0.40910 0.15832 0.82363 -0.00300
H 	H 	0.39141 0.09274 0.81692 0.03300
C 	C 	0.44354 0.29207 0.80633 -0.00200
H 	H 	0.45432 0.33702 0.78527 0.03900
C 	C 	0.45530 0.20582 0.81100 -0.07300
C 	C 	0.40671 0.26808 0.85236 -0.02000
C 	C 	0.45281 0.31604 0.83987 -0.02900
H 	H 	0.47029 0.38151 0.84680 0.03900
C 	C 	0.46490 0.22933 0.84399 0.00100
H 	H 	0.49296 0.22243 0.85397 0.03600
C 	C 	0.41859 0.18198 0.85677 -0.02100
H 	H 	0.40801 0.13639 0.87770 0.04300
C 	C 	0.12368 0.06941 0.86035 -0.01400
H 	H 	0.09517 0.01684 0.87022 0.03200
C 	C 	0.13451 0.16597 0.86984 -0.01300
H 	H 	0.11526 0.19346 0.88788 0.03800
C 	C 	0.16996 0.06816 0.86131 -0.01500
H 	H 	0.17991 0.01515 0.87235 0.03400
C 	C 	0.18042 0.16430 0.87048 -0.05600
C 	C 	0.13565 0.10141 0.82585 -0.05800
C 	C 	0.18156 0.09962 0.82645 -0.01200
H 	H 	0.20077 0.07213 0.80839 0.03800
C 	C 	0.19237 0.19619 0.83598 -0.01200
H 	H 	0.22088 0.24878 0.82613 0.04000
C 	C 	0.14615 0.19745 0.83507 -0.00900
H 	H 	0.13620 0.25050 0.82405 0.04000
C 	C 	0.44643 0.72607 0.80534 -0.02500
H 	H 	0.46701 0.70118 0.78746 0.05000
C 	C 	0.39954 0.67974 0.81739 -0.00500
H 	H 	0.38142 0.61542 0.80998 0.04000
C 	C 	0.45479 0.74645 0.83916 -0.00400
H 	H 	0.48211 0.73741 0.84964 0.04300
C 	C 	0.40810 0.70080 0.85090 -0.05900
C 	C 	0.43480 0.81287 0.80247 -0.01700
C 	C 	0.44349 0.83437 0.83585 -0.02900
H 	H 	0.46167 0.89889 0.84307 0.04700
C 	C 	0.39653 0.78788 0.84794 -0.00200
H 	H 	0.37595 0.81298 0.86577 0.04400
C 	C 	0.38818 0.76756 0.81409 -0.02000
H 	H 	0.36101 0.77689 0.80349 0.05200
C 	C 	0.70616 0.20305 0.89521 0.26900
O 	O 	0.73653 0.17035 0.90168 -0.41900
O 	O 	0.70372 0.27876 0.90604 -0.25300
O 	O 	0.69922 0.23809 0.59245 -0.24600
C 	C 	0.68431 0.15538 0.60202 0.26700
O 	O 	0.70622 0.09974 0.59348 -0.42400
Zn	Zn	0.03063 0.03097 0.77597 1.20900
P 	P 	0.04437 0.05472 0.70756 0.27400
O 	O 	0.02969 0.95007 0.70906 -0.40300
O 	O 	0.06290 0.09531 0.73821 -0.40800
O 	O 	0.12728 0.07374 0.77167 -0.24600
C 	C 	0.10941 0.06808 0.80081 0.27400
O 	O 	0.06809 0.04545 0.80751 -0.42400
Zn	Zn	0.73268 0.49648 0.35544 1.20200
Zn	Zn	0.65452 0.38964 0.40294 1.21900
P 	P 	0.73445 0.48951 0.42349 0.29700
P 	P 	0.65410 0.54704 0.36805 0.30100
C 	C 	0.69018 0.31665 0.34884 0.28800
O 	O 	0.69513 0.56159 0.34308 -0.44500
O 	O 	0.68434 0.47057 0.43065 -0.43400
O 	O 	0.66569 0.58717 0.40025 -0.43900
O 	O 	0.63011 0.44515 0.37300 -0.42400
O 	O 	0.62973 0.33152 0.47037 -0.25500
O 	O 	0.68181 0.68290 0.45777 -0.24700
O 	O 	0.68657 0.31520 0.37947 -0.44300
O 	O 	0.71267 0.38862 0.33256 -0.42600
C 	C 	0.59861 0.30294 0.45407 0.25100
O 	O 	0.60724 0.30104 0.42368 -0.42300
Zn	Zn	0.67672 0.53393 0.12216 1.20600
Zn	Zn	0.60626 0.54707 0.08314 1.21700
Zn	Zn	0.72994 0.70435 0.08142 1.21900
P 	P 	0.64904 0.68896 0.12131 0.30300
P 	P 	0.68846 0.54314 0.05280 0.29900
C 	C 	0.76339 0.88730 0.06898 0.25200
C 	C 	0.59865 0.40023 0.12946 0.28800
O 	O 	0.63972 0.59999 0.14110 -0.44500
O 	O 	0.70427 0.51122 0.08257 -0.45900
O 	O 	0.63281 0.67079 0.08835 -0.43400
O 	O 	0.69582 0.64692 0.05115 -0.44500
O 	O 	0.69823 0.73755 0.11775 -0.41400
O 	O 	0.63979 0.49397 0.05331 -0.41500
O 	O 	0.59558 0.63127 0.02638 -0.24800
O 	O 	0.73774 0.89780 0.09357 -0.22900
O 	O 	0.58308 0.46494 0.12179 -0.43000
O 	O 	0.72678 0.57802 0.14374 -0.42900
O 	O 	0.63929 0.41558 0.13114 -0.43600
C 	C 	0.55986 0.57295 0.03698 0.25200
O 	O 	0.55631 0.53056 0.06389 -0.42000
Zn	Zn	0.51871 0.02563 0.24425 1.18400
Zn	Zn	0.53346 0.87863 0.28271 1.21500
Zn	Zn	0.47019 0.89163 0.20340 1.22400
P 	P 	0.44846 0.89195 0.27215 0.29900
P 	P 	0.55418 0.88904 0.21513 0.30100
C 	C 	0.40952 0.75197 0.18270 0.27000
C 	C 	0.49671 0.08456 0.19017 0.29200
C 	C 	0.57249 0.07067 0.28953 0.25200
O 	O 	0.47492 0.98437 0.28151 -0.41000
O 	O 	0.55528 0.98851 0.20950 -0.41700
O 	O 	0.47751 0.82662 0.27133 -0.42800
O 	O 	0.50727 0.82805 0.21626 -0.43000
O 	O 	0.43276 0.90641 0.23960 -0.41700
O 	O 	0.57395 0.87999 0.24629 -0.41000
O 	O 	0.43174 0.83345 0.17571 -0.40900
O 	O 	0.52240 0.68676 0.29088 -0.24600
O 	O 	0.41727 0.70879 0.20613 -0.25000
O 	O 	0.49642 0.00790 0.17828 -0.44500
O 	O 	0.54771 0.99668 0.30357 -0.39700
O 	O 	0.48944 0.08887 0.22048 -0.45800
O 	O 	0.56467 0.09822 0.26301 -0.44700
C 	C 	0.54517 0.72796 0.31149 0.27200
O 	O 	0.55133 0.81288 0.31357 -0.41100
C 	C 	0.56807 0.20753 0.17510 -0.01300
H 	H 	0.58678 0.17900 0.18949 0.03300
C 	C 	0.55933 0.29778 0.17939 -0.00800
H 	H 	0.57106 0.34468 0.19716 0.03900
C 	C 	0.57826 0.22634 0.13944 -0.01200
H 	H 	0.60569 0.21439 0.12426 0.03500
C 	C 	0.56930 0.31604 0.14391 -0.06100
C 	C 	0.52136 0.16687 0.17172 -0.06900
C 	C 	0.53120 0.18469 0.13617 -0.01200
H 	H 	0.51946 0.13751 0.11850 0.03200
C 	C 	0.52261 0.27578 0.14035 -0.01500
H 	H 	0.50409 0.30475 0.12594 0.03600
C 	C 	0.51237 0.25656 0.17615 -0.00900
H 	H 	0.48498 0.26849 0.19137 0.03900
C 	C 	0.58423 0.74897 0.18965 -0.01500
H 	H 	0.56869 0.70618 0.21072 0.05500
C 	C 	0.63198 0.77552 0.17801 -0.01200
H 	H 	0.65588 0.75361 0.18910 0.05000
C 	C 	0.57454 0.73015 0.15619 -0.01900
H 	H 	0.55136 0.67139 0.14924 0.03900
C 	C 	0.62211 0.75696 0.14469 -0.02100
C 	C 	0.58390 0.84478 0.18431 -0.02300
C 	C 	0.57387 0.82656 0.15099 -0.02200
H 	H 	0.54976 0.84853 0.14019 0.03800
C 	C 	0.62215 0.85280 0.13899 -0.01400
H 	H 	0.63799 0.89451 0.11775 0.05200
C 	C 	0.63153 0.87185 0.17288 -0.01300
H 	H 	0.65466 0.93044 0.17998 0.05300
C 	C 	0.67085 0.19361 0.30638 -0.00900
H 	H 	0.70331 0.19690 0.29511 0.03300
C 	C 	0.63591 0.21427 0.28990 -0.01200
H 	H 	0.63936 0.23410 0.26483 0.04200
C 	C 	0.63831 0.11085 0.32285 -0.02100
H 	H 	0.64350 0.04496 0.32509 0.02700
C 	C 	0.60370 0.13233 0.30656 -0.05500
C 	C 	0.65956 0.24824 0.33363 -0.07200
C 	C 	0.62744 0.16644 0.35041 -0.01200
H 	H 	0.62415 0.14715 0.37551 0.03600
C 	C 	0.59245 0.18702 0.33384 -0.01500
H 	H 	0.56001 0.18392 0.34513 0.03600
C 	C 	0.62490 0.26944 0.31735 -0.01200
H 	H 	0.61962 0.33526 0.31507 0.04000
C 	C 	0.63256 0.70084 0.34279 -0.02400
H 	H 	0.66318 0.74811 0.34548 0.04100
C 	C 	0.58846 0.70618 0.35818 -0.00600
H 	H 	0.58231 0.75887 0.37324 0.04300
C 	C 	0.61525 0.67797 0.31160 -0.00400
H 	H 	0.63114 0.70742 0.28827 0.04100
C 	C 	0.57153 0.68274 0.32710 -0.05700
C 	C 	0.61977 0.60273 0.35228 -0.02300
C 	C 	0.60290 0.57924 0.32129 -0.02000
H 	H 	0.60913 0.52652 0.30627 0.04500
C 	C 	0.55886 0.58443 0.33668 -0.00800
H 	H 	0.52832 0.53679 0.33404 0.04000
C 	C 	0.57617 0.60714 0.36796 -0.02500
H 	H 	0.56050 0.57741 0.39129 0.04100
C 	C 	0.73253 0.91716 0.45160 -0.08700
H 	H 	0.70168 0.92392 0.44628 0.05800
H 	H 	0.66529 0.82655 0.49499 0.05100
H 	H 	0.69416 0.93741 0.52616 0.05500
H 	H 	0.73002 0.03364 0.47730 -0.00100
C 	C 	0.04552 0.38888 0.46741 -0.06400
C 	C 	0.05408 0.29722 0.46868 -0.02700
C 	C 	0.04655 0.26409 0.50337 -0.06100
H 	H 	0.05040 0.41430 0.44277 0.04300
H 	H 	0.06832 0.43645 0.47979 0.05100
H 	H 	0.06914 0.30887 0.51672 0.05300
H 	H 	0.05208 0.19819 0.50508 0.04200
C 	C 	0.02152 0.23325 0.45128 -0.05900
H 	H 	0.02659 0.16676 0.45189 0.04100
H 	H 	0.02566 0.25542 0.42632 0.04900
C 	C 	0.73425 0.45684 0.48779 -0.07100
H 	H 	0.69926 0.43289 0.49043 0.06800
C 	C 	0.74245 0.33863 0.45102 -0.07300
H 	H 	0.70765 0.31141 0.45256 0.04900
H 	H 	0.73120 0.24461 0.48985 0.05600
H 	H 	0.72337 0.36413 0.52802 0.06400
C 	C 	0.62657 0.05698 0.67232 -0.01100
H 	H 	0.63403 0.01460 0.68998 0.04200
C 	C 	0.65270 0.15167 0.66187 -0.01000
H 	H 	0.68243 0.18744 0.67036 0.04300
C 	C 	0.62232 0.03512 0.63796 -0.05400
H 	H 	0.62692 0.97504 0.62681 0.07900
C 	C 	0.64810 0.12956 0.62780 -0.04800
C 	C 	0.58615 0.08718 0.67469 -0.02400
C 	C 	0.58128 0.06483 0.64075 -0.01900
H 	H 	0.55142 0.02892 0.63246 0.02400
C 	C 	0.60755 0.15973 0.63022 -0.01200
H 	H 	0.60002 0.20213 0.61259 0.04000
C 	C 	0.61173 0.18150 0.66465 -0.01500
H 	H 	0.60695 0.24127 0.67594 0.04900
C 	C 	0.02695 0.54146 0.01580 -0.02200
C 	C 	0.02857 0.44977 0.00447 -0.06200
H 	H 	0.02357 0.40281 0.02478 0.04700
H 	H 	0.06029 0.45380 0.99135 0.04700
C 	C 	0.03342 0.60399 0.98644 -0.06000
H 	H 	0.06508 0.61092 0.97274 0.05500
H 	H 	0.03226 0.67049 0.99371 0.05100
C 	C 	0.78830 0.04869 0.05373 -0.08200
C 	C 	0.74701 0.01587 0.99693 -0.14000
H 	H 	0.76246 0.06081 0.07075 0.04500
H 	H 	0.72504 0.05801 0.00035 0.06000
H 	H 	0.77824 0.16228 0.03014 0.04500
C 	C 	0.73615 0.94650 0.02447 -0.01700
H 	H 	0.72597 0.87969 0.01546 0.03600
H 	H 	0.70899 0.95573 0.04084 0.05000
C 	C 	0.70642 0.40604 0.01957 -0.06400
C 	C 	0.72055 0.50759 0.02035 -0.00200
H 	H 	0.67307 0.38360 0.01511 0.05200
H 	H 	0.71525 0.33544 0.97710 0.04800
C 	C 	0.74696 0.51305 0.96176 -0.07400
H 	H 	0.72759 0.47739 0.94446 0.06100
C 	C 	0.71804 0.54608 0.98775 -0.06500
H 	H 	0.72818 0.61894 0.98740 0.05100
H 	H 	0.68485 0.52617 0.98286 0.05400
C 	C 	0.62368 0.06941 0.86035 -0.01400
H 	H 	0.59517 0.01684 0.87022 0.03200
C 	C 	0.63451 0.16597 0.86984 -0.01300
H 	H 	0.61526 0.19346 0.88788 0.03800
C 	C 	0.66996 0.06816 0.86131 -0.01500
H 	H 	0.67991 0.01515 0.87235 0.03400
C 	C 	0.68042 0.16430 0.87048 -0.05600
C 	C 	0.63565 0.10141 0.82585 -0.05800
C 	C 	0.68156 0.09962 0.82645 -0.01200
H 	H 	0.70077 0.07213 0.80839 0.03800
C 	C 	0.69237 0.19619 0.83598 -0.01200
H 	H 	0.72088 0.24878 0.82613 0.04000
C 	C 	0.64615 0.19745 0.83507 -0.00900
H 	H 	0.63620 0.25050 0.82405 0.04000
Zn	Zn	0.72437 0.65050 0.39808 1.22100
C 	C 	0.70987 0.75568 0.44644 0.25200
C 	C 	0.69673 0.82130 0.49945 -0.06400
C 	C 	0.73486 0.37330 0.99388 -0.07300
H 	H 	0.70782 0.37587 0.04255 0.05200
H 	H 	0.00972 0.40155 0.96003 0.04700
H 	H 	0.01424 0.55806 0.94163 0.05400
H 	H 	0.69165 0.75691 0.51196 0.05400
C 	C 	0.71617 0.89609 0.52059 -0.05900
H 	H 	0.74244 0.52865 0.49109 0.05400
C 	C 	0.75061 0.41062 0.51346 -0.06900
H 	H 	0.72037 0.86717 0.54301 0.05900
H 	H 	0.98506 0.19073 0.52755 0.04700
C 	C 	0.99890 0.56815 0.96524 -0.06100
H 	H 	0.75385 0.92414 0.42901 0.06600
C 	C 	0.75163 0.99106 0.47252 0.02500
H 	H 	0.75664 0.32326 0.42773 0.05700
C 	C 	0.75865 0.29334 0.47636 -0.06500
Zn	Zn	0.76364 0.14390 0.57265 1.21500
O 	O 	0.75926 0.22113 0.53964 -0.42700
O 	O 	0.74800 0.44743 0.39201 -0.44700
O 	O 	0.75628 0.59243 0.42097 -0.41900
C 	C 	0.75389 0.43886 0.45467 0.00500
H 	H 	0.78015 0.25615 0.46498 0.05100
H 	H 	0.77086 0.57019 0.94910 0.06300
Zn	Zn	0.78476 0.24409 0.91826 1.21400
P 	P 	0.80616 0.41253 0.94848 0.30100
C 	C 	0.80549 0.14165 0.96842 0.26200
O 	O 	0.81738 0.34091 0.96872 -0.46800
O 	O 	0.78730 0.36875 0.91858 -0.41900
O 	O 	0.77698 0.17856 0.96016 -0.42800
P 	P 	0.80035 0.29927 0.52717 0.30100
C 	C 	0.78096 0.02810 0.52177 0.25000
O 	O 	0.80257 0.20495 0.60033 -0.43300
O 	O 	0.81988 0.35359 0.55508 -0.42700
O 	O 	0.76962 0.03145 0.55222 -0.43200
O 	O 	0.81562 0.08283 0.50762 -0.45100
C 	C 	0.79131 0.66700 0.34452 0.29100
O 	O 	0.73042 0.75803 0.41817 -0.42100
O 	O 	0.75837 0.69431 0.35603 -0.43200
O 	O 	0.78729 0.58247 0.34152 -0.43400
C 	C 	0.76361 0.61767 0.12717 0.29300
O 	O 	0.77196 0.81133 0.06546 -0.41700
O 	O 	0.76626 0.63658 0.09713 -0.44000
C 	C 	0.80176 0.65010 0.14283 -0.06800
C 	C 	0.81976 0.74752 0.14887 -0.00900
H 	H 	0.80571 0.80087 0.14333 0.04200
H 	H 	0.78464 0.57396 0.19200 0.04100
C 	C 	0.78893 0.89289 0.49631 -0.05700
C 	C 	0.75934 0.95305 0.50376 -0.02000
C 	C 	0.72642 0.82641 0.46791 -0.01700
C 	C 	0.76976 0.81909 0.47530 -0.06400
H 	H 	0.79427 0.86373 0.51834 0.05300
H 	H 	0.79206 0.82323 0.45335 0.05100
H 	H 	0.76597 0.75431 0.48717 0.04700
H 	H 	0.78173 0.03279 0.45949 0.01100
C 	C 	0.81918 0.42800 0.47810 -0.07100
C 	C 	0.78199 0.36089 0.49835 0.00500
C 	C 	0.80272 0.47346 0.45244 -0.06800
H 	H 	0.81205 0.54556 0.45511 0.05300
H 	H 	0.76641 0.46023 0.52911 0.05400
H 	H 	0.80559 0.99661 0.64121 0.07500
C 	C 	0.77481 0.95426 0.04194 -0.01900
C 	C 	0.79346 0.07280 0.99485 -0.00200
C 	C 	0.79905 0.11781 0.02624 -0.06600
H 	H 	0.81626 0.05658 0.06608 0.03800
H 	H 	0.74208 0.98236 0.97474 0.08600
H 	H 	0.83215 0.15899 0.02556 0.04100
C 	C 	0.82262 0.01042 0.99065 -0.14200
C 	C 	0.81171 0.94124 0.01810 -0.01200
H 	H 	0.80299 0.87459 0.00876 0.04000
H 	H 	0.84008 0.94662 0.02979 0.04700
C 	C 	0.79550 0.50405 0.00062 -0.06900
C 	C 	0.76935 0.45165 0.97643 0.00900
H 	H 	0.82008 0.56188 0.98897 0.05700
H 	H 	0.81223 0.46253 0.01173 0.05300
H 	H 	0.74942 0.32758 0.00495 0.05600
C 	C 	0.76722 0.53642 0.02607 -0.06900
H 	H 	0.77829 0.60917 0.02650 0.03600
H 	H 	0.77082 0.50950 0.04901 0.06000
H 	H 	0.81911 0.75328 0.20362 0.04200
O 	O 	0.83200 0.21908 0.89188 -0.43200
O 	O 	0.84612 0.49569 0.93922 -0.41900
O 	O 	0.84575 0.17852 0.95908 -0.44400
Zn	Zn	0.84806 0.17231 0.52970 1.21000
P 	P 	0.84572 0.17828 0.59412 0.30400
O 	O 	0.83597 0.26522 0.50752 -0.46500
O 	O 	0.87416 0.40295 0.61986 -0.24900
C 	C 	0.82664 0.72096 0.18180 -0.01200
C 	C 	0.80810 0.62300 0.17557 -0.00600
H 	H 	0.81172 0.74349 0.27851 0.03900
H 	H 	0.82038 0.93151 0.48427 0.06000
H 	H 	0.83612 0.47818 0.49308 0.04200
H 	H 	0.84236 0.39465 0.46678 0.05400
H 	H 	0.81803 0.46132 0.42906 0.05300
C 	C 	0.87230 0.16882 0.65735 -0.02500
H 	H 	0.86923 0.23377 0.66487 0.05300
C 	C 	0.85010 0.07942 0.67530 -0.00100
H 	H 	0.82920 0.07016 0.69803 0.03400
C 	C 	0.85982 0.12692 0.62704 -0.01300
H 	H 	0.85633 0.04840 0.98939 0.06000
H 	H 	0.81923 0.97677 0.96833 0.08500
H 	H 	0.87595 0.81298 0.86577 0.04400
Zn	Zn	0.86426 0.30380 0.94939 1.21000
P 	P 	0.87400 0.29869 0.88468 0.30000
O 	O 	0.86407 0.38994 0.87923 -0.44000
O 	O 	0.85049 0.61008 0.88718 -0.24400
Zn	Zn	0.87842 0.35080 0.55614 1.21400
O 	O 	0.84213 0.10845 0.56839 -0.46100
C 	C 	0.84594 0.64371 0.12913 -0.00900
H 	H 	0.85354 0.61142 0.10732 0.03600
C 	C 	0.85285 0.61709 0.16207 -0.01700
C 	C 	0.86438 0.74155 0.13536 -0.01200
C 	C 	0.87081 0.71457 0.16808 -0.05300
C 	C 	0.83048 0.73170 0.32870 -0.06800
C 	C 	0.83608 0.76213 0.29427 0.00300
C 	C 	0.85773 0.85686 0.30260 -0.02400
H 	H 	0.85167 0.91749 0.29377 0.05400
C 	C 	0.85155 0.82573 0.33753 -0.00300
H 	H 	0.83961 0.85965 0.35757 0.03800
C 	C 	0.83734 0.03833 0.64433 -0.06100
H 	H 	0.87398 0.61161 0.62796 0.04200
H 	H 	0.86862 0.25150 0.80969 0.04300
H 	H 	0.86101 0.77689 0.80349 0.05200
H 	H 	0.88779 0.79057 0.11888 0.04500
H 	H 	0.90515 0.60389 0.68535 0.04200
C 	C 	0.90952 0.75197 0.18270 0.27000
Zn	Zn	0.88911 0.47559 0.90804 1.21500
O 	O 	0.90139 0.30590 0.91194 -0.45900
O 	O 	0.90308 0.37345 0.97376 -0.44800
C 	C 	0.89132 0.63518 0.87772 0.27100
O 	O 	0.91559 0.59032 0.88744 -0.41400
C 	C 	0.90514 0.46175 0.60313 0.27000
O 	O 	0.88541 0.26056 0.58365 -0.42700
O 	O 	0.91268 0.45423 0.57286 -0.41600
O 	O 	0.91595 0.34508 0.51551 -0.43100
O 	O 	0.90817 0.19726 0.51887 -0.45100
C 	C 	0.91383 0.01498 0.69073 0.25400
O 	O 	0.91114 0.03793 0.71966 -0.44400
H 	H 	0.86690 0.56373 0.16756 0.04100
C 	C 	0.87349 0.71119 0.32396 0.00000
H 	H 	0.87989 0.65067 0.33258 0.04200
C 	C 	0.89526 0.80565 0.33241 -0.03200
C 	C 	0.87919 0.74175 0.28944 -0.02700
H 	H 	0.89060 0.70649 0.26958 0.06200
C 	C 	0.90057 0.83582 0.29799 -0.01400
C 	C 	0.91391 0.14169 0.65139 -0.00700
C 	C 	0.89171 0.05309 0.66886 -0.05300
C 	C 	0.87917 0.01156 0.63845 -0.04200
H 	H 	0.88236 0.94686 0.63071 0.07100
C 	C 	0.90134 0.10034 0.62088 -0.01200
C 	C 	0.92355 0.60599 0.66184 -0.01000
C 	C 	0.94493 0.53542 0.64936 -0.01100
H 	H 	0.94379 0.47390 0.66229 0.04200
C 	C 	0.90664 0.61078 0.63056 -0.01000
C 	C 	0.92816 0.54095 0.61821 -0.05500
C 	C 	0.89684 0.24472 0.81946 -0.02700
C 	C 	0.90910 0.15832 0.82363 -0.00300
H 	H 	0.89141 0.09274 0.81692 0.03300
C 	C 	0.90671 0.26808 0.85236 -0.02000
C 	C 	0.91859 0.18198 0.85677 -0.02100
H 	H 	0.90801 0.13639 0.87770 0.04300
C 	C 	0.89954 0.67974 0.81739 -0.00500
H 	H 	0.88142 0.61542 0.80998 0.04000
C 	C 	0.90810 0.70080 0.85090 -0.05900
C 	C 	0.89653 0.78788 0.84794 -0.00200
C 	C 	0.88818 0.76756 0.81409 -0.02000
O 	O 	0.97751 0.82662 0.27133 -0.42900
H 	H 	0.98498 0.26849 0.19137 0.03800
O 	O 	0.97492 0.98437 0.28151 -0.41100
Zn	Zn	0.97019 0.89163 0.20340 1.22300
P 	P 	0.94846 0.89195 0.27215 0.29900
O 	O 	0.93276 0.90641 0.23960 -0.41700
O 	O 	0.93174 0.83345 0.17571 -0.40900
O 	O 	0.91727 0.70879 0.20613 -0.25000
C 	C 	0.93337 0.44086 0.96094 0.27700
O 	O 	0.93754 0.46076 0.93057 -0.42500
C 	C 	0.93121 0.27674 0.50973 0.28000
Zn	Zn	0.96236 0.05896 0.73868 1.19300
Zn	Zn	0.97204 0.90391 0.70079 1.21700
P 	P 	0.95501 0.88929 0.76890 0.29900
C 	C 	0.98121 0.75464 0.66718 0.27400
C 	C 	0.98053 0.16235 0.78885 0.30200
O 	O 	0.93976 0.97489 0.77462 -0.41700
O 	O 	0.00618 0.09204 0.70211 -0.44300
O 	O 	0.00521 0.91191 0.76582 -0.42400
O 	O 	0.93718 0.84470 0.73865 -0.40900
O 	O 	0.96222 0.81719 0.66967 -0.41200
O 	O 	0.00934 0.75183 0.68540 -0.24100
O 	O 	0.94601 0.98581 0.67884 -0.39400
O 	O 	0.99191 0.09548 0.79969 -0.44500
O 	O 	0.97733 0.16847 0.75927 -0.44900
H 	H 	0.91989 0.82426 0.34794 0.04100
C 	C 	0.00105 0.25915 0.51845 -0.05600
C 	C 	0.97600 0.28827 0.49452 -0.03600
H 	H 	0.00204 0.30167 0.53880 0.04200
C 	C 	0.97598 0.22820 0.46631 -0.05800
H 	H 	0.95856 0.24805 0.44859 0.03900
H 	H 	0.95937 0.15881 0.47385 0.04400
C 	C 	0.99970 0.38371 0.48260 -0.05700
H 	H 	0.98266 0.40639 0.46522 0.04700
H 	H 	0.00070 0.42848 0.50229 0.05000
H 	H 	0.94571 0.18380 0.65424 0.04100
H 	H 	0.92262 0.10926 0.59829 0.04100
C 	C 	0.96391 0.67736 0.64887 -0.05400
C 	C 	0.94723 0.68302 0.61770 -0.01200
H 	H 	0.94832 0.74457 0.60481 0.04400
C 	C 	0.96858 0.61208 0.60509 -0.01200
H 	H 	0.98686 0.61392 0.58155 0.04100
C 	C 	0.98563 0.60775 0.63654 -0.01500
H 	H 	0.01829 0.60711 0.63923 0.04500
C 	C 	0.99442 0.41432 0.98333 -0.05800
C 	C 	0.96826 0.48050 0.97969 -0.03200
C 	C 	0.98246 0.53381 0.03380 -0.06300
H 	H 	0.97340 0.35039 0.99362 0.04600
H 	H 	0.98044 0.59907 0.04197 0.04400
H 	H 	0.97626 0.48902 0.05486 0.05100
H 	H 	0.98109 0.61723 0.96248 0.04500
C 	C 	0.94824 0.49844 0.01277 -0.05800
H 	H 	0.92967 0.54659 0.01087 0.04000
H 	H 	0.92594 0.43730 0.02422 0.05000
C 	C 	0.94354 0.29207 0.80633 -0.00200
H 	H 	0.95432 0.33702 0.78527 0.03900
C 	C 	0.95530 0.20582 0.81100 -0.07300
C 	C 	0.95281 0.31604 0.83987 -0.02900
H 	H 	0.97029 0.38151 0.84680 0.03900
C 	C 	0.96490 0.22933 0.84399 0.00100
H 	H 	0.99296 0.22243 0.85397 0.03600
C 	C 	0.94642 0.72607 0.80534 -0.02500
H 	H 	0.96701 0.70118 0.78746 0.05000
C 	C 	0.95479 0.74645 0.83916 -0.00400
H 	H 	0.98211 0.73741 0.84964 0.04300
C 	C 	0.93480 0.81287 0.80247 -0.01700
C 	C 	0.94349 0.83437 0.83585 -0.02900
H 	H 	0.96167 0.89889 0.84307 0.04700
