data_crystal

_cell_length_a 37.34210
_cell_length_b 38.42724
_cell_length_c 20.67539
_cell_angle_alpha 91.95915
_cell_angle_beta  90.65489
_cell_angle_gamma 90.13153

_symmetry_space_group_name_	'P 1'
_symmetry_space_group_name_H-M	'P 1'

loop_
_symmetry_equiv_pos_as_xyz
  x,y,z

loop_
_atom_site_label
_atom_site_type_symbol
_atom_site_fract_x
_atom_site_fract_y
_atom_site_fract_z
_atom_site_charge
Cd	Cd	0.03467 0.87864 0.28072 1.24700
Cd	Cd	0.01130 0.95375 0.37724 1.20300
O 	O 	0.03715 0.82498 0.34113 -0.28800
O 	O 	0.04335 0.82388 0.23549 -0.32800
C 	C 	0.04260 0.80654 0.28861 0.26900
O 	O 	0.02684 0.92129 0.20862 -0.34000
O 	O 	0.03810 0.96533 0.28385 -0.40700
C 	C 	0.02536 0.95472 0.22695 0.32600
C 	C 	0.96178 0.88887 0.31542 0.34500
O 	O 	0.05746 0.91374 0.38482 -0.41800
O 	O 	0.96445 0.86478 0.26967 -0.26500
O 	O 	0.99200 0.90082 0.33828 -0.51900
C 	C 	0.08896 0.91480 0.35837 0.31100
O 	O 	0.09230 0.89709 0.30381 -0.32300
Cd	Cd	0.97622 0.83169 0.04476 1.24900
Cd	Cd	0.96725 0.86374 0.88585 1.18200
O 	O 	0.00895 0.77687 0.04826 -0.29500
O 	O 	0.98887 0.80219 0.13724 -0.32900
C 	C 	0.00537 0.77560 0.11035 0.27400
O 	O 	0.95492 0.88650 0.06007 -0.33600
O 	O 	0.93039 0.88925 0.95800 -0.46600
C 	C 	0.94079 0.90483 0.01280 0.33000
C 	C 	0.03647 0.86246 0.98690 0.31900
O 	O 	0.94707 0.81278 0.93157 -0.41700
O 	O 	0.04230 0.85871 0.04864 -0.25300
O 	O 	0.00707 0.84869 0.96400 -0.53100
C 	C 	0.91740 0.80780 0.96292 0.29700
O 	O 	0.91945 0.81151 0.02558 -0.31800
C 	C 	0.00180 0.64117 0.06135 0.12000
N 	N 	0.01408 0.64504 0.00027 -0.12600
C 	C 	0.00647 0.62067 0.95290 0.11800
N 	N 	0.98686 0.59219 0.96701 -0.15100
C 	C 	0.97542 0.58774 0.02828 0.14300
N 	N 	0.98230 0.61254 0.07518 -0.14400
C 	C 	0.02340 0.67017 0.37257 0.11700
N 	N 	0.02457 0.67102 0.43836 -0.13300
C 	C 	0.01390 0.64284 0.47122 0.13000
N 	N 	0.00207 0.61382 0.43812 -0.14300
C 	C 	0.00160 0.61265 0.37229 0.13000
N 	N 	0.01216 0.64093 0.33975 -0.14000
Cd	Cd	0.77154 0.89128 0.74808 1.24500
Cd	Cd	0.82543 0.91815 0.88415 1.17900
O 	O 	0.71080 0.87425 0.77638 -0.29700
O 	O 	0.72512 0.88157 0.67540 -0.33600
C 	C 	0.69984 0.87564 0.71688 0.27000
O 	O 	0.82369 0.91010 0.70536 -0.34700
O 	O 	0.85752 0.90129 0.79727 -0.43600
C 	C 	0.85474 0.91237 0.73765 0.31400
C 	C 	0.76219 0.95930 0.80445 0.33000
O 	O 	0.79444 0.86677 0.85810 -0.41900
O 	O 	0.74634 0.95623 0.74806 -0.27500
O 	O 	0.77613 0.93087 0.82514 -0.53100
C 	C 	0.80586 0.83954 0.82504 0.32200
O 	O 	0.79717 0.83770 0.76376 -0.32700
Cd	Cd	0.82482 0.02340 0.49354 1.24700
Cd	Cd	0.86532 0.01800 0.33767 1.21000
O 	O 	0.76778 0.99236 0.49594 -0.29100
O 	O 	0.78909 0.01983 0.58263 -0.30900
C 	C 	0.76278 0.00196 0.55577 0.26600
O 	O 	0.88117 0.04462 0.51060 -0.33100
O 	O 	0.88754 0.06008 0.40514 -0.41300
C 	C 	0.90185 0.05374 0.46204 0.32200
C 	C 	0.85765 0.95971 0.45255 0.33600
O 	O 	0.81141 0.04059 0.37404 -0.41900
O 	O 	0.85079 0.96007 0.51431 -0.24800
O 	O 	0.84585 0.98634 0.42191 -0.50200
C 	C 	0.80551 0.07223 0.39627 0.32500
O 	O 	0.80591 0.07657 0.45895 -0.33300
C 	C 	0.58410 0.94144 0.80967 0.11900
N 	N 	0.56026 0.96599 0.79127 -0.14000
C 	C 	0.54645 0.98886 0.83600 0.13700
N 	N 	0.55625 0.98665 0.89918 -0.14500
C 	C 	0.57786 0.96056 0.91844 0.14400
N 	N 	0.59225 0.93822 0.87355 -0.13600
C 	C 	0.62456 0.01972 0.49491 0.11700
N 	N 	0.62491 0.00405 0.43486 -0.13600
C 	C 	0.59903 0.01137 0.39067 0.12400
N 	N 	0.57298 0.03458 0.40650 -0.14100
C 	C 	0.57267 0.05045 0.46616 0.13000
N 	N 	0.59867 0.04328 0.51014 -0.14200
Cd	Cd	0.94875 0.16091 0.16064 1.24900
Cd	Cd	0.96569 0.11906 0.31055 1.19700
O 	O 	0.94700 0.22364 0.18112 -0.29100
O 	O 	0.93677 0.20141 0.08395 -0.32000
C 	C 	0.93638 0.22906 0.12259 0.26800
O 	O 	0.96082 0.10464 0.13084 -0.32900
O 	O 	0.94599 0.08408 0.23000 -0.40300
C 	C 	0.96234 0.07983 0.17424 0.31800
C 	C 	0.01852 0.16307 0.21580 0.34000
O 	O 	0.91841 0.15261 0.27424 -0.41700
O 	O 	0.01921 0.17433 0.15689 -0.25100
O 	O 	0.98700 0.15619 0.23733 -0.52800
C 	C 	0.88985 0.14251 0.24148 0.32500
O 	O 	0.89075 0.14644 0.17938 -0.34000
Cd	Cd	0.84549 0.11467 0.99340 1.24600
Cd	Cd	0.84831 0.05781 0.85267 1.18400
O 	O 	0.80632 0.16450 0.97559 -0.30700
O 	O 	0.83691 0.16039 0.06548 -0.31900
C 	C 	0.81842 0.18036 0.02762 0.27900
O 	O 	0.87486 0.06662 0.02679 -0.30800
O 	O 	0.89222 0.04833 0.92481 -0.42300
C 	C 	0.88721 0.04189 0.98630 0.27700
C 	C 	0.78673 0.07004 0.96359 0.31500
O 	O 	0.86429 0.11558 0.87160 -0.42100
O 	O 	0.78280 0.08383 0.02183 -0.22900
O 	O 	0.81343 0.08162 0.93148 -0.53200
C 	C 	0.89529 0.12779 0.89144 0.32900
O 	O 	0.89818 0.13503 0.95319 -0.34800
C 	C 	0.84218 0.30939 0.91579 0.11200
N 	N 	0.83760 0.30590 0.85044 -0.13500
C 	C 	0.84294 0.33373 0.81268 0.12900
N 	N 	0.85081 0.36533 0.84075 -0.14300
C 	C 	0.85538 0.36889 0.90601 0.12100
N 	N 	0.85217 0.34057 0.94309 -0.14100
C 	C 	0.86638 0.34132 0.22225 0.11700
N 	N 	0.85982 0.33266 0.28445 -0.13400
C 	C 	0.85570 0.35804 0.33135 0.13000
N 	N 	0.85997 0.39193 0.31637 -0.14300
C 	C 	0.86781 0.40062 0.25497 0.12900
N 	N 	0.86970 0.37534 0.20771 -0.14300
Cd	Cd	0.05944 0.00734 0.72938 1.24600
Cd	Cd	0.00419 0.98178 0.85956 1.18700
O 	O 	0.11385 0.03659 0.76948 -0.29200
O 	O 	0.10508 0.02657 0.66511 -0.32400
C 	C 	0.12578 0.03941 0.71138 0.27200
O 	O 	0.01564 0.97377 0.68125 -0.34200
O 	O 	0.97603 0.98371 0.76400 -0.42800
C 	C 	0.98540 0.96611 0.71121 0.31400
C 	C 	0.07808 0.94776 0.79958 0.33400
O 	O 	0.02412 0.03580 0.82797 -0.41100
O 	O 	0.09705 0.94906 0.74708 -0.25000
O 	O 	0.05821 0.97466 0.81200 -0.52600
C 	C 	0.00926 0.05587 0.78567 0.33000
O 	O 	0.02219 0.05425 0.72754 -0.32600
Cd	Cd	0.13623 0.08968 0.51282 1.24400
Cd	Cd	0.10537 0.05236 0.36161 1.19800
O 	O 	0.19906 0.10704 0.51273 -0.30800
O 	O 	0.16436 0.12282 0.59307 -0.34100
C 	C 	0.19584 0.12478 0.56669 0.27000
O 	O 	0.07587 0.08381 0.52370 -0.34300
O 	O 	0.07340 0.03888 0.44877 -0.41900
C 	C 	0.05686 0.06285 0.48412 0.30800
C 	C 	0.11728 0.13448 0.41199 0.35100
O 	O 	0.15263 0.03966 0.42984 -0.42900
O 	O 	0.12274 0.15218 0.46616 -0.27600
O 	O 	0.12617 0.10197 0.41263 -0.52200
C 	C 	0.15224 0.01794 0.47671 0.31200
O 	O 	0.14666 0.03137 0.53470 -0.33100
C 	C 	0.25297 0.10589 0.77597 0.11500
N 	N 	0.24933 0.11731 0.83866 -0.13500
C 	C 	0.27871 0.12208 0.87740 0.12600
N 	N 	0.31177 0.11548 0.85332 -0.14300
C 	C 	0.31548 0.10333 0.79134 0.12800
N 	N 	0.28621 0.09981 0.75204 -0.14300
C 	C 	0.29697 0.19357 0.45514 0.11700
N 	N 	0.28336 0.19533 0.39389 -0.13500
C 	C 	0.30563 0.19443 0.34222 0.13000
N 	N 	0.34151 0.19182 0.35199 -0.14300
C 	C 	0.35524 0.18937 0.41278 0.13000
N 	N 	0.33290 0.19053 0.46419 -0.14100
C 	C 	0.27461 0.13208 0.94681 -0.03300
C 	C 	0.29167 0.11290 0.99571 0.08200
C 	C 	0.29280 0.12652 0.05962 -0.05800
C 	C 	0.27411 0.15702 0.07691 -0.01500
C 	C 	0.25430 0.17454 0.02905 0.10300
C 	C 	0.25550 0.16234 0.96411 -0.07700
N 	N 	0.30569 0.08086 0.98217 -0.20300
H 	H 	0.30734 0.11274 0.09649 0.05600
C 	C 	0.27611 0.17061 0.14520 -0.00000
N 	N 	0.23383 0.20271 0.04508 -0.19700
H 	H 	0.24171 0.17660 0.92696 0.05900
C 	C 	0.29725 0.20007 0.16040 -0.08500
C 	C 	0.30384 0.21072 0.22522 0.10500
C 	C 	0.29076 0.19032 0.27566 -0.04500
C 	C 	0.26777 0.16218 0.26049 -0.04900
C 	C 	0.25998 0.15234 0.19568 0.08300
H 	H 	0.30884 0.21460 0.12172 0.05900
N 	N 	0.32222 0.24073 0.23870 -0.19900
H 	H 	0.25694 0.14706 0.29911 0.06700
N 	N 	0.23743 0.12514 0.18228 -0.19300
H 	H 	0.33306 0.25494 0.20137 0.09100
H 	H 	0.32446 0.25107 0.28595 0.09600
H 	H 	0.22818 0.10983 0.21944 0.11600
H 	H 	0.22809 0.11953 0.13528 0.11200
H 	H 	0.22009 0.21602 0.00924 0.10300
H 	H 	0.23041 0.21101 0.09321 0.10300
H 	H 	0.30047 0.06766 0.93808 0.09800
H 	H 	0.32005 0.06779 0.01757 0.10300
C 	C 	0.25517 0.14862 0.59336 0.00200
C 	C 	0.21912 0.15504 0.57841 -0.05900
C 	C 	0.21090 0.18521 0.54479 0.00400
C 	C 	0.23744 0.20092 0.50826 -0.03300
C 	C 	0.27260 0.18804 0.50991 -0.00100
C 	C 	0.28202 0.16448 0.55787 -0.03500
H 	H 	0.26214 0.12736 0.62415 0.04200
H 	H 	0.18319 0.19267 0.53792 0.05600
H 	H 	0.23013 0.22101 0.47510 0.05600
H 	H 	0.30949 0.15595 0.56325 0.05200
C 	C 	0.18842 0.11215 0.74649 -0.02700
C 	C 	0.22099 0.09459 0.73794 -0.00300
C 	C 	0.22146 0.06314 0.70104 -0.03300
C 	C 	0.18921 0.04703 0.68161 0.00200
C 	C 	0.15645 0.06210 0.69942 -0.05900
C 	C 	0.15630 0.09605 0.72692 0.01100
H 	H 	0.18778 0.13726 0.77191 0.05700
H 	H 	0.24654 0.04988 0.69173 0.05200
H 	H 	0.18975 0.02128 0.65863 0.06400
H 	H 	0.13112 0.10860 0.73862 0.05700
C 	C 	0.85295 0.34885 0.40040 -0.04400
C 	C 	0.82542 0.32675 0.42234 0.10800
C 	C 	0.82347 0.31977 0.48872 -0.08000
C 	C 	0.84651 0.33663 0.53399 -0.00200
C 	C 	0.87379 0.35890 0.51212 0.07600
C 	C 	0.87724 0.36405 0.44549 -0.04900
N 	N 	0.80005 0.31328 0.38080 -0.19800
H 	H 	0.80277 0.30255 0.50552 0.06600
C 	C 	0.84113 0.33165 0.60445 -0.00100
N 	N 	0.89649 0.37574 0.55470 -0.19300
H 	H 	0.89851 0.38066 0.42878 0.05600
C 	C 	0.86358 0.30864 0.63703 -0.08300
C 	C 	0.86451 0.30848 0.70515 0.10900
C 	C 	0.84034 0.32986 0.74110 -0.04700
C 	C 	0.81588 0.35073 0.70805 -0.05000
C 	C 	0.81638 0.35232 0.64017 0.07300
H 	H 	0.88211 0.29247 0.60950 0.07100
N 	N 	0.88956 0.28891 0.73537 -0.19900
H 	H 	0.79716 0.36678 0.73543 0.05200
N 	N 	0.79346 0.37410 0.60989 -0.19400
H 	H 	0.90637 0.27241 0.70839 0.10600
H 	H 	0.89368 0.29081 0.78533 0.10400
H 	H 	0.77554 0.38948 0.63674 0.08800
H 	H 	0.79299 0.37594 0.55966 0.09100
H 	H 	0.91673 0.39185 0.53799 0.09000
H 	H 	0.89409 0.37346 0.60460 0.09200
H 	H 	0.79786 0.32127 0.33321 0.09900
H 	H 	0.78091 0.29579 0.39695 0.10000
C 	C 	0.92390 0.10780 0.78939 0.07700
C 	C 	0.92726 0.12421 0.85067 -0.11700
C 	C 	0.96169 0.12779 0.87871 0.11500
C 	C 	0.98944 0.10608 0.85611 0.10600
C 	C 	0.98254 0.08210 0.80426 -0.11600
C 	C 	0.95017 0.08423 0.76883 0.09800
Br	Br	0.93972 0.05203 0.69824 -0.18500
Br	Br	0.88511 0.11977 0.73214 -0.20600
Br	Br	0.03676 0.11006 0.89411 -0.15200
Br	Br	0.97183 0.16535 0.94038 -0.17900
C 	C 	0.80222 0.24271 0.02389 0.02200
C 	C 	0.82882 0.21693 0.02204 -0.05000
C 	C 	0.86174 0.22412 0.99290 -0.01500
C 	C 	0.86648 0.25485 0.95980 -0.02900
C 	C 	0.83860 0.27900 0.95642 0.00100
C 	C 	0.80712 0.27370 0.99121 -0.05500
H 	H 	0.77677 0.23767 0.04646 0.04300
H 	H 	0.88256 0.20456 0.99126 0.05900
H 	H 	0.89136 0.25929 0.93489 0.05400
H 	H 	0.78586 0.29283 0.99057 0.04800
C 	C 	0.04199 0.17883 0.32489 0.07200
C 	C 	0.04888 0.16815 0.26072 -0.12700
C 	C 	0.08271 0.15443 0.24514 0.09500
C 	C 	0.10591 0.14438 0.29514 0.08700
C 	C 	0.09498 0.14819 0.36010 -0.15300
C 	C 	0.06274 0.16566 0.37494 0.09500
Br	Br	0.04390 0.16655 0.46152 -0.20800
Br	Br	0.00484 0.21231 0.34360 -0.20900
Br	Br	0.15259 0.12592 0.27496 -0.25300
Br	Br	0.09857 0.15273 0.15676 -0.15200
C 	C 	0.92243 0.29037 0.10271 0.00400
C 	C 	0.91000 0.25665 0.11360 -0.05400
C 	C 	0.87642 0.25269 0.14265 0.00500
C 	C 	0.86000 0.28120 0.17378 -0.03000
C 	C 	0.87639 0.31403 0.17370 -0.00000
C 	C 	0.90587 0.31908 0.13324 -0.03100
H 	H 	0.94735 0.29402 0.07746 0.04800
H 	H 	0.86567 0.22683 0.14903 0.05500
H 	H 	0.83604 0.27725 0.20170 0.05500
H 	H 	0.91777 0.34468 0.12982 0.05100
C 	C 	0.39276 0.17810 0.42172 -0.04900
C 	C 	0.41374 0.19068 0.47508 0.10200
C 	C 	0.44532 0.17311 0.49168 -0.08600
C 	C 	0.45775 0.14520 0.45273 -0.00400
C 	C 	0.43862 0.13491 0.39567 0.07500
C 	C 	0.40613 0.15126 0.38110 -0.05200
N 	N 	0.40449 0.22023 0.50883 -0.19900
H 	H 	0.46063 0.18162 0.53424 0.05500
C 	C 	0.49008 0.12607 0.47314 -0.00500
N 	N 	0.45103 0.10910 0.35516 -0.19400
H 	H 	0.39054 0.14214 0.33929 0.05600
C 	C 	0.48585 0.09534 0.50695 -0.08500
C 	C 	0.51394 0.07122 0.51050 0.10000
C 	C 	0.54676 0.07834 0.48005 -0.04900
C 	C 	0.55233 0.11096 0.45348 -0.05200
C 	C 	0.52426 0.13507 0.44997 0.07300
H 	H 	0.46001 0.08923 0.52720 0.05700
N 	N 	0.50902 0.04111 0.54201 -0.20000
H 	H 	0.57803 0.11689 0.43249 0.05400
N 	N 	0.53001 0.16632 0.42285 -0.19400
H 	H 	0.48439 0.03568 0.56302 0.08600
H 	H 	0.52980 0.02328 0.54751 0.09200
H 	H 	0.55503 0.17230 0.40392 0.09000
H 	H 	0.51008 0.18531 0.42185 0.09100
H 	H 	0.43638 0.10134 0.31376 0.09000
H 	H 	0.47549 0.09687 0.36358 0.09400
H 	H 	0.38423 0.23647 0.49220 0.09500
H 	H 	0.41906 0.22838 0.55009 0.08700
C 	C 	0.51665 0.01227 0.81827 -0.05500
C 	C 	0.51508 0.02831 0.75749 0.10500
C 	C 	0.48327 0.04482 0.73839 -0.08800
C 	C 	0.45502 0.04945 0.78199 -0.00400
C 	C 	0.45835 0.03692 0.84537 0.07100
C 	C 	0.48848 0.01737 0.86200 -0.05000
N 	N 	0.54444 0.02985 0.71937 -0.20000
H 	H 	0.48103 0.05520 0.69039 0.05400
C 	C 	0.42088 0.06477 0.75965 -0.00600
N 	N 	0.43264 0.04341 0.89035 -0.19400
H 	H 	0.48983 0.00584 0.90910 0.04800
C 	C 	0.39172 0.04244 0.74720 -0.08500
C 	C 	0.35656 0.05443 0.75582 0.10200
C 	C 	0.35061 0.09043 0.76941 -0.05100
C 	C 	0.37975 0.11358 0.77063 -0.05300
C 	C 	0.41497 0.10103 0.76634 0.07100
H 	H 	0.39647 0.01483 0.73874 0.05800
N 	N 	0.32910 0.03103 0.75478 -0.20000
H 	H 	0.37511 0.14125 0.77843 0.05000
N 	N 	0.44292 0.12377 0.77055 -0.19400
H 	H 	0.33370 0.00492 0.74171 0.09300
H 	H 	0.30350 0.03787 0.77011 0.09800
H 	H 	0.43839 0.15044 0.77778 0.08600
H 	H 	0.46928 0.11533 0.76486 0.09000
H 	H 	0.43473 0.03294 0.93623 0.08400
H 	H 	0.41109 0.05984 0.88124 0.09100
H 	H 	0.56991 0.02402 0.73723 0.09800
H 	H 	0.54247 0.03988 0.67312 0.09000
C 	C 	0.58393 0.95548 0.98833 -0.08900
C 	C 	0.55475 0.95542 0.03149 0.13300
C 	C 	0.56105 0.96127 0.09804 -0.09400
C 	C 	0.59608 0.96458 0.12257 0.00600
C 	C 	0.62540 0.95933 0.08045 0.07300
C 	C 	0.61906 0.95568 0.01329 -0.00300
N 	N 	0.52082 0.94914 0.00942 -0.19400
H 	H 	0.53862 0.96355 0.13076 0.06300
C 	C 	0.60156 0.97606 0.19135 -0.00000
N 	N 	0.65949 0.95798 0.10400 -0.19100
H 	H 	0.64148 0.95428 0.98045 0.05500
C 	C 	0.59721 0.95180 0.23988 -0.08100
C 	C 	0.59695 0.96257 0.30562 0.10500
C 	C 	0.60214 0.99825 0.32295 -0.03200
C 	C 	0.60822 0.02220 0.27453 -0.05600
C 	C 	0.60760 0.01160 0.20884 0.07800
H 	H 	0.59279 0.92460 0.22637 0.06300
N 	N 	0.59083 0.93870 0.35140 -0.19800
H 	H 	0.61263 0.04942 0.28798 0.06000
N 	N 	0.61231 0.03572 0.16295 -0.19300
H 	H 	0.58730 0.91242 0.33807 0.09600
H 	H 	0.58903 0.94591 0.40036 0.10000
H 	H 	0.61675 0.06185 0.17643 0.10000
H 	H 	0.61158 0.02894 0.11366 0.10200
H 	H 	0.68093 0.95389 0.07265 0.13300
H 	H 	0.66494 0.95977 0.15365 0.11500
H 	H 	0.51583 0.94058 0.96166 0.08800
H 	H 	0.49919 0.95091 0.04099 0.09400
C 	C 	0.80598 0.09526 0.28672 0.08300
C 	C 	0.80814 0.10193 0.35358 -0.11900
C 	C 	0.82479 0.13301 0.37619 0.10400
C 	C 	0.84873 0.14988 0.33557 0.09400
C 	C 	0.85591 0.13485 0.27385 -0.12100
C 	C 	0.83195 0.10946 0.24703 0.09600
Br	Br	0.83617 0.09193 0.15913 -0.20000
Br	Br	0.76869 0.06547 0.25091 -0.17600
Br	Br	0.86802 0.19501 0.36065 -0.18800
Br	Br	0.81171 0.15423 0.45827 -0.16700
C 	C 	0.96390 0.04131 0.42346 0.07700
C 	C 	0.94145 0.05667 0.47055 -0.12000
C 	C 	0.95686 0.07896 0.51916 0.10300
C 	C 	0.99473 0.08084 0.52643 0.09800
C 	C 	0.01683 0.06636 0.47673 -0.11500
C 	C 	0.99992 0.05126 0.42107 0.04900
Br	Br	0.02290 0.05195 0.33819 -0.47500
Br	Br	0.94612 0.00545 0.36405 -0.47100
Br	Br	0.01495 0.10431 0.60224 -0.14800
Br	Br	0.92709 0.11160 0.56631 -0.14700
C 	C 	0.70324 0.97640 0.57014 0.00800
C 	C 	0.72598 0.00534 0.57895 -0.04300
C 	C 	0.71066 0.03868 0.58301 0.00600
C 	C 	0.67520 0.04342 0.56240 -0.02900
C 	C 	0.65485 0.01465 0.53977 -0.00800
C 	C 	0.66787 0.98100 0.54928 -0.02700
H 	H 	0.71427 0.95035 0.57057 0.05400
H 	H 	0.72743 0.06126 0.59347 0.06400
H 	H 	0.66485 0.06957 0.55822 0.05600
H 	H 	0.65168 0.95847 0.53542 0.05000
C 	C 	0.91827 0.89693 0.71045 0.08600
C 	C 	0.88846 0.91912 0.70229 -0.10200
C 	C 	0.89366 0.95075 0.67079 0.10100
C 	C 	0.92835 0.95972 0.65099 0.11700
C 	C 	0.95802 0.94358 0.67898 -0.10500
C 	C 	0.95324 0.90986 0.70157 0.08300
Br	Br	0.99417 0.88323 0.72691 -0.29800
Br	Br	0.91126 0.84908 0.73121 -0.22400
Br	Br	0.93502 0.98668 0.57604 -0.18200
Br	Br	0.85574 0.98421 0.66517 -0.23300
C 	C 	0.75022 0.01635 0.95611 0.07800
C 	C 	0.75905 0.04858 0.93095 -0.12300
C 	C 	0.75388 0.05288 0.86467 0.07200
C 	C 	0.75697 0.02392 0.82229 0.06500
C 	C 	0.75634 0.99018 0.84759 -0.14700
C 	C 	0.74895 0.98658 0.91424 0.08400
Br	Br	0.73361 0.94252 0.94647 -0.24500
Br	Br	0.73597 0.01408 0.04494 -0.15100
Br	Br	0.76813 0.03087 0.73307 -0.23900
Br	Br	0.74796 0.09891 0.83236 -0.20900
C 	C 	0.65655 0.92157 0.69121 0.00300
C 	C 	0.66277 0.88653 0.70479 -0.05700
C 	C 	0.63521 0.86759 0.73323 0.00600
C 	C 	0.60671 0.88524 0.76296 -0.03300
C 	C 	0.60457 0.92160 0.76048 0.00000
C 	C 	0.62762 0.93921 0.71954 -0.03300
H 	H 	0.67694 0.93635 0.66756 0.05100
H 	H 	0.63854 0.83999 0.74056 0.04700
H 	H 	0.58803 0.87105 0.79196 0.05200
H 	H 	0.62535 0.96713 0.71499 0.05300
C 	C 	0.88252 0.43550 0.24329 -0.05200
C 	C 	0.86668 0.46570 0.27139 0.10300
C 	C 	0.88720 0.49620 0.27986 -0.08600
C 	C 	0.92260 0.49730 0.25799 -0.00400
C 	C 	0.93648 0.46870 0.22150 0.07200
C 	C 	0.91616 0.43805 0.21415 -0.05200
N 	N 	0.83180 0.46563 0.28950 -0.19900
H 	H 	0.87599 0.51876 0.30514 0.05800
C 	C 	0.94617 0.52631 0.28077 -0.00400
N 	N 	0.96957 0.47023 0.19491 -0.19400
H 	H 	0.92757 0.41543 0.18935 0.05300
C 	C 	0.97119 0.52053 0.33034 -0.08500
C 	C 	0.99253 0.54788 0.35584 0.10300
C 	C 	0.98593 0.58226 0.33630 -0.05000
C 	C 	0.96208 0.58778 0.28458 -0.05100
C 	C 	0.94290 0.55987 0.25530 0.07300
H 	H 	0.97461 0.49449 0.34805 0.05800
N 	N 	0.02028 0.54080 0.39644 -0.19800
H 	H 	0.95800 0.61391 0.26770 0.05500
N 	N 	0.92182 0.56537 0.20254 -0.19400
H 	H 	0.02364 0.51574 0.41367 0.09000
H 	H 	0.04018 0.55928 0.40735 0.09700
H 	H 	0.91930 0.59034 0.18447 0.09300
H 	H 	0.90882 0.54483 0.17757 0.09300
H 	H 	0.98020 0.44854 0.17012 0.08600
H 	H 	0.98454 0.49323 0.19675 0.09100
H 	H 	0.81506 0.44445 0.27796 0.09400
H 	H 	0.82063 0.48757 0.31265 0.09000
C 	C 	0.95361 0.55717 0.04246 -0.05600
C 	C 	0.97006 0.52504 0.05548 0.10700
C 	C 	0.95035 0.49407 0.04647 -0.09500
C 	C 	0.91468 0.49495 0.02473 0.02200
C 	C 	0.89690 0.52733 0.02131 0.06500
C 	C 	0.91668 0.55827 0.03011 -0.04800
N 	N 	0.00490 0.52374 0.07506 -0.20100
H 	H 	0.96351 0.46919 0.05181 0.06100
C 	C 	0.89891 0.46313 0.99355 -0.05300
N 	N 	0.86125 0.52887 0.00757 -0.19200
H 	H 	0.90374 0.58315 0.02336 0.05400
C 	C 	0.87621 0.44214 0.02923 -0.03400
C 	C 	0.85860 0.41341 0.99937 0.06000
C 	C 	0.86793 0.40262 0.93538 -0.03300
C 	C 	0.89141 0.42324 0.90031 -0.06800
C 	C 	0.90619 0.45390 0.92809 0.08900
H 	H 	0.87046 0.44948 0.07916 0.04500
N 	N 	0.83130 0.39788 0.03055 -0.18500
H 	H 	0.89849 0.41528 0.85130 0.05600
N 	N 	0.92737 0.47426 0.89171 -0.19800
H 	H 	0.82684 0.40373 0.07954 0.09100
H 	H 	0.81234 0.38257 0.00525 0.10100
H 	H 	0.93300 0.46688 0.84378 0.08700
H 	H 	0.93795 0.49781 0.90995 0.09000
H 	H 	0.84858 0.55291 0.00300 0.09400
H 	H 	0.84559 0.50637 0.00309 0.09500
H 	H 	0.01952 0.54644 0.08582 0.09500
H 	H 	0.01737 0.49980 0.08194 0.08800
C 	C 	0.01476 0.64388 0.54281 -0.04500
C 	C 	0.98317 0.63911 0.57886 0.10800
C 	C 	0.98563 0.63622 0.64636 -0.08400
C 	C 	0.01867 0.63997 0.67882 -0.00100
C 	C 	0.05002 0.64652 0.64315 0.07600
C 	C 	0.04776 0.64806 0.57534 -0.04900
N 	N 	0.95040 0.63833 0.54936 -0.19800
H 	H 	0.96160 0.63174 0.67389 0.06300
C 	C 	0.02003 0.63683 0.75029 -0.00700
N 	N 	0.08222 0.65155 0.67354 -0.19300
H 	H 	0.07185 0.65218 0.54777 0.05600
C 	C 	0.02990 0.60494 0.77623 -0.08200
C 	C 	0.02923 0.60035 0.84338 0.10000
C 	C 	0.01559 0.62724 0.88473 -0.04200
C 	C 	0.00721 0.65964 0.85906 -0.05300
C 	C 	0.01001 0.66493 0.79233 0.08500
H 	H 	0.03868 0.58380 0.74415 0.05600
N 	N 	0.04285 0.57072 0.86796 -0.19800
H 	H 	0.99765 0.68058 0.89081 0.06500
N 	N 	0.00328 0.69701 0.76914 -0.19400
H 	H 	0.05112 0.55027 0.83706 0.08700
H 	H 	0.04743 0.56856 0.91757 0.09200
H 	H 	0.99587 0.71756 0.80053 0.11800
H 	H 	0.00637 0.70216 0.72027 0.11100
H 	H 	0.10527 0.65592 0.64674 0.09500
H 	H 	0.08468 0.65174 0.72389 0.09700
H 	H 	0.94720 0.64421 0.50072 0.10300
H 	H 	0.92739 0.63340 0.57593 0.09700
C 	C 	0.95288 0.96883 0.01413 0.07300
C 	C 	0.92921 0.94124 0.02598 -0.11100
C 	C 	0.89280 0.94846 0.03727 0.09000
C 	C 	0.87960 0.98261 0.03105 0.07300
C 	C 	0.90258 0.00946 0.01197 -0.08600
C 	C 	0.93954 0.00274 0.00573 0.07900
Br	Br	0.97166 0.03970 0.98320 -0.25700
Br	Br	0.00339 0.95993 0.00792 -0.31900
Br	Br	0.83009 0.99249 0.04783 -0.20800
Br	Br	0.86079 0.91127 0.05896 -0.21100
C 	C 	0.85098 0.79914 0.96114 0.08500
C 	C 	0.88424 0.79504 0.93004 -0.10900
C 	C 	0.88412 0.78690 0.86304 0.09000
C 	C 	0.85331 0.79425 0.82620 0.10500
C 	C 	0.82433 0.81091 0.85694 -0.11700
C 	C 	0.82077 0.80767 0.92402 0.09600
Br	Br	0.77474 0.81399 0.96372 -0.18200
Br	Br	0.84579 0.78805 0.05076 -0.14000
Br	Br	0.84825 0.77653 0.73836 -0.15100
Br	Br	0.92336 0.76155 0.82460 -0.20200
C 	C 	0.06733 0.86408 0.88080 0.07400
C 	C 	0.06340 0.87755 0.94456 -0.13200
C 	C 	0.07982 0.90955 0.96229 0.08500
C 	C 	0.08950 0.93227 0.91366 0.08600
C 	C 	0.08476 0.92162 0.84831 -0.13700
C 	C 	0.07904 0.88617 0.83255 0.09100
Br	Br	0.08987 0.86772 0.74723 -0.14300
Br	Br	0.05807 0.81553 0.86070 -0.21800
Br	Br	0.10930 0.97753 0.93592 -0.17600
Br	Br	0.09153 0.92092 0.05158 -0.11600
C 	C 	0.97417 0.72323 0.14560 -0.00000
C 	C 	0.00645 0.74166 0.14035 -0.05500
C 	C 	0.03850 0.72274 0.13672 0.00500
C 	C 	0.03750 0.68725 0.11938 -0.03300
C 	C 	0.00440 0.67058 0.10862 -0.00100
C 	C 	0.97305 0.68762 0.12892 -0.03300
H 	H 	0.94935 0.73722 0.15332 0.05400
H 	H 	0.06394 0.73637 0.13784 0.05000
H 	H 	0.06217 0.67374 0.10782 0.05300
H 	H 	0.94742 0.67442 0.12466 0.05300
C 	C 	0.97167 0.98299 0.17962 0.09800
C 	C 	0.00914 0.98070 0.18405 -0.08900
C 	C 	0.03003 0.00864 0.16296 0.10800
C 	C 	0.01340 0.04025 0.14683 0.09900
C 	C 	0.97636 0.04473 0.15663 -0.09100
C 	C 	0.95520 0.01523 0.16899 0.10900
Br	Br	0.90414 0.01992 0.17966 -0.23900
Br	Br	0.94298 0.94253 0.19166 -0.19100
Br	Br	0.04133 0.07756 0.11351 -0.15100
Br	Br	0.08134 0.00419 0.15962 -0.17900
C 	C 	0.90040 0.90970 0.45343 0.10600
C 	C 	0.87551 0.92987 0.41944 -0.12100
C 	C 	0.87110 0.92338 0.35218 0.08200
C 	C 	0.89651 0.90273 0.31913 0.10700
C 	C 	0.92840 0.89395 0.35154 -0.12800
C 	C 	0.92895 0.89442 0.41963 0.08700
Br	Br	0.96657 0.87123 0.46601 -0.18500
Br	Br	0.88898 0.89356 0.53769 -0.14400
Br	Br	0.88347 0.87867 0.23903 -0.12800
Br	Br	0.82834 0.93808 0.30780 -0.22700
C 	C 	0.14904 0.94393 0.36618 0.08500
C 	C 	0.12060 0.92679 0.39647 -0.10900
C 	C 	0.11870 0.92905 0.46468 0.08800
C 	C 	0.13653 0.95649 0.49849 0.10100
C 	C 	0.15647 0.98025 0.46337 -0.11300
C 	C 	0.16864 0.96931 0.40197 0.09000
Br	Br	0.21086 0.99008 0.36707 -0.18900
Br	Br	0.16049 0.93373 0.27687 -0.16300
Br	Br	0.13837 0.95832 0.59142 -0.16700
Br	Br	0.09441 0.89343 0.51090 -0.15600
C 	C 	0.06802 0.74785 0.30154 0.00300
C 	C 	0.03821 0.76872 0.28826 -0.05300
C 	C 	0.00364 0.75490 0.29435 0.01000
C 	C 	0.99890 0.72170 0.31841 -0.03500
C 	C 	0.02865 0.70232 0.33767 0.00300
C 	C 	0.06326 0.71484 0.32680 -0.03400
H 	H 	0.09484 0.75819 0.29681 0.04800
H 	H 	0.98041 0.77070 0.28392 0.05800
H 	H 	0.97206 0.71177 0.32502 0.05500
H 	H 	0.08642 0.69963 0.34017 0.05100
