data_crystal

_cell_length_a 44.21232
_cell_length_b 44.16923
_cell_length_c 25.19424
_cell_angle_alpha 94.18496
_cell_angle_beta  93.30617
_cell_angle_gamma 90.09594

_symmetry_space_group_name_	'P 1'
_symmetry_space_group_name_H-M	'P 1'

loop_
_symmetry_equiv_pos_as_xyz
  x,y,z

loop_
_atom_site_label
_atom_site_type_symbol
_atom_site_fract_x
_atom_site_fract_y
_atom_site_fract_z
_atom_site_charge
O 	O 	0.93825 0.84324 0.24016 -0.33200
O 	O 	0.95009 0.86756 0.17140 -0.36700
C 	C 	0.94202 0.84200 0.18936 0.28500
C 	C 	0.97884 0.69242 0.90312 0.11700
N 	N 	0.96669 0.66643 0.91879 -0.14700
C 	C 	0.95472 0.64514 0.88187 0.12500
N 	N 	0.95579 0.64934 0.82922 -0.14500
C 	C 	0.96880 0.67472 0.81324 0.12500
N 	N 	0.98050 0.69616 0.85020 -0.14500
C 	C 	0.95040 0.65991 0.32723 0.12100
N 	N 	0.94235 0.63056 0.31381 -0.14500
C 	C 	0.94272 0.61020 0.35164 0.12600
N 	N 	0.95115 0.61927 0.40297 -0.14500
C 	C 	0.95866 0.64870 0.41692 0.12400
N 	N 	0.95825 0.66905 0.37894 -0.14600
Cd	Cd	0.89647 0.95145 0.87612 1.16700
O 	O 	0.92370 0.95483 0.80413 -0.42800
C 	C 	0.83831 0.98783 0.82377 0.30400
O 	O 	0.82412 0.98935 0.77715 -0.30800
O 	O 	0.85250 0.96259 0.83049 -0.54400
O 	O 	0.83593 0.08808 0.44889 -0.46100
C 	C 	0.84583 0.11010 0.48266 0.29100
O 	O 	0.85212 0.10263 0.53133 -0.36700
Cd	Cd	0.94215 0.15909 0.24607 1.23900
Cd	Cd	0.97832 0.14399 0.37102 1.16400
O 	O 	0.94468 0.21069 0.21576 -0.33600
O 	O 	0.92300 0.17329 0.16562 -0.36100
C 	C 	0.92898 0.20227 0.17190 0.28100
O 	O 	0.93955 0.10862 0.24638 -0.39300
O 	O 	0.94564 0.10760 0.33710 -0.44300
C 	C 	0.94642 0.09371 0.28903 0.26700
C 	C 	0.00599 0.15118 0.25512 0.29200
O 	O 	0.93968 0.17693 0.34809 -0.46000
O 	O 	0.99614 0.14952 0.20501 -0.30100
O 	O 	0.98633 0.16002 0.28898 -0.54600
C 	C 	0.91072 0.17097 0.34310 0.29400
O 	O 	0.89956 0.16395 0.29468 -0.37900
Cd	Cd	0.91560 0.15232 0.93183 1.23800
Cd	Cd	0.91541 0.10260 0.81400 1.17000
O 	O 	0.87875 0.19401 0.93499 -0.32800
O 	O 	0.90899 0.18533 0.00437 -0.34800
C 	C 	0.88818 0.20244 0.98361 0.25500
O 	O 	0.94697 0.11481 0.95403 -0.38800
O 	O 	0.95753 0.10097 0.86765 -0.42800
C 	C 	0.95805 0.09510 0.91820 0.27900
C 	C 	0.87083 0.10578 0.91381 0.29600
O 	O 	0.92365 0.15441 0.82925 -0.45500
O 	O 	0.87129 0.11750 0.96300 -0.30500
O 	O 	0.88696 0.12007 0.88223 -0.54400
C 	C 	0.94966 0.16770 0.84252 0.29500
O 	O 	0.95449 0.17591 0.89315 -0.37300
C 	C 	0.84843 0.39484 0.86276 0.12100
N 	N 	0.83438 0.38836 0.81380 -0.14700
C 	C 	0.82968 0.41060 0.77989 0.12500
N 	N 	0.83607 0.43988 0.79709 -0.14400
C 	C 	0.84997 0.44662 0.84607 0.12300
N 	N 	0.85669 0.42393 0.87842 -0.14500
C 	C 	0.82092 0.36052 0.29947 0.12000
N 	N 	0.81000 0.35829 0.34851 -0.14500
C 	C 	0.81567 0.38077 0.38768 0.12500
N 	N 	0.83083 0.40612 0.37699 -0.14400
C 	C 	0.84121 0.40870 0.32791 0.12600
N 	N 	0.83634 0.38590 0.28933 -0.14600
Cd	Cd	0.08487 0.07021 0.71346 1.23800
Cd	Cd	0.05994 0.08503 0.84410 1.17500
O 	O 	0.13471 0.08960 0.69305 -0.33400
O 	O 	0.10848 0.05844 0.63631 -0.36300
C 	C 	0.13377 0.07334 0.64785 0.28200
O 	O 	0.04278 0.04194 0.71469 -0.39500
O 	O 	0.02234 0.07111 0.78278 -0.42000
C 	C 	0.02152 0.04669 0.74928 0.27400
C 	C 	0.10909 0.03527 0.79681 0.29800
O 	O 	0.07295 0.11681 0.77960 -0.45900
O 	O 	0.11506 0.02298 0.74990 -0.32100
O 	O 	0.09691 0.06201 0.79695 -0.54000
C 	C 	0.05445 0.12654 0.74249 0.29000
O 	O 	0.05540 0.11198 0.69559 -0.36500
Cd	Cd	0.11033 0.03671 0.43516 1.23900
Cd	Cd	0.06026 0.01798 0.32173 1.17000
O 	O 	0.16477 0.03940 0.42083 -0.33100
O 	O 	0.14705 0.05247 0.49915 -0.35900
C 	C 	0.17045 0.04906 0.47027 0.28000
O 	O 	0.06389 0.04423 0.46505 -0.38600
O 	O 	0.03987 0.01220 0.40000 -0.43300
C 	C 	0.03871 0.03337 0.43947 0.27500
C 	C 	0.09493 0.08238 0.36409 0.30000
O 	O 	0.10824 0.09405 0.40858 -0.31400
O 	O 	0.09490 0.05293 0.35813 -0.53900
C 	C 	0.31962 0.02247 0.80446 0.12000
N 	N 	0.33964 0.99990 0.79343 -0.14600
C 	C 	0.36339 0.99526 0.82837 0.12600
N 	N 	0.36653 0.01243 0.87524 -0.14400
C 	C 	0.34638 0.03473 0.88676 0.12200
N 	N 	0.32343 0.04037 0.85065 -0.14500
C 	C 	0.36835 0.07677 0.35384 0.12100
N 	N 	0.36587 0.08604 0.30355 -0.14600
C 	C 	0.38915 0.08192 0.27107 0.12600
N 	N 	0.41621 0.07195 0.29103 -0.14400
C 	C 	0.41912 0.06324 0.34163 0.12400
N 	N 	0.39503 0.06532 0.37282 -0.14500
C 	C 	0.34909 0.05219 0.93897 -0.04300
C 	C 	0.32738 0.04911 0.97755 0.08200
C 	C 	0.33288 0.06295 0.02914 -0.06900
C 	C 	0.36089 0.07683 0.04438 -0.01500
C 	C 	0.38168 0.08163 0.00519 0.08400
C 	C 	0.37539 0.06951 0.95260 -0.07000
N 	N 	0.30221 0.03149 0.96641 -0.19800
H 	H 	0.31660 0.06016 0.05904 0.05000
C 	C 	0.37072 0.07956 0.10172 -0.00100
N 	N 	0.40782 0.09747 0.01792 -0.19100
H 	H 	0.39162 0.07253 0.92269 0.04900
C 	C 	0.38124 0.05353 0.12534 -0.08800
C 	C 	0.38559 0.05339 0.18082 0.10100
C 	C 	0.38291 0.08088 0.21286 -0.05300
C 	C 	0.37339 0.10729 0.18917 -0.05300
C 	C 	0.36675 0.10680 0.13382 0.06600
H 	H 	0.38402 0.03268 0.10062 0.05600
N 	N 	0.39067 0.02659 0.20317 -0.19900
H 	H 	0.37093 0.12821 0.21383 0.04600
N 	N 	0.35679 0.13247 0.11187 -0.19400
H 	H 	0.39472 0.00685 0.17921 0.08200
H 	H 	0.38836 0.02454 0.24374 0.08800
H 	H 	0.35370 0.15239 0.13593 0.08100
H 	H 	0.35232 0.13304 0.07082 0.08600
H 	H 	0.42348 0.10020 0.98909 0.07500
H 	H 	0.41247 0.10787 0.05608 0.08700
H 	H 	0.29968 0.01710 0.93177 0.08600
H 	H 	0.28561 0.03070 0.99418 0.07700
C 	C 	0.28751 0.06426 0.39095 -0.07900
C 	C 	0.28935 0.07415 0.44516 -0.00600
C 	C 	0.31737 0.08452 0.46989 0.03600
C 	C 	0.34291 0.08559 0.43927 -0.04700
C 	C 	0.34110 0.07535 0.38505 -0.04700
C 	C 	0.31345 0.06307 0.36149 0.06900
C 	C 	0.26210 0.07126 0.47601 0.00500
C 	C 	0.32103 0.09162 0.52939 -0.17700
H 	H 	0.36433 0.09399 0.45786 0.04300
C 	C 	0.31151 0.04792 0.30566 -0.19000
H 	H 	0.26600 0.05614 0.37228 0.05200
C 	C 	0.24072 0.09500 0.47902 0.02400
C 	C 	0.21034 0.08814 0.48693 -0.01800
C 	C 	0.20122 0.05799 0.49036 -0.09900
C 	C 	0.22343 0.03546 0.49699 0.09800
C 	C 	0.25384 0.04232 0.48974 -0.09500
C 	C 	0.24918 0.12668 0.46657 -0.17200
H 	H 	0.19334 0.10573 0.48447 0.03700
H 	H 	0.27054 0.02436 0.48952 0.05000
H 	H 	0.30983 0.06540 0.27614 0.07400
H 	H 	0.29124 0.03293 0.29890 0.06500
H 	H 	0.33161 0.03343 0.29866 0.07100
H 	H 	0.32574 0.07033 0.54905 0.06100
H 	H 	0.30049 0.10235 0.54553 0.06000
H 	H 	0.34020 0.10764 0.53990 0.06000
H 	H 	0.23259 0.14352 0.48196 0.05900
H 	H 	0.24965 0.12778 0.42274 0.06600
H 	H 	0.27175 0.13329 0.48539 0.06100
C 	C 	0.24070 0.03511 0.74303 -0.07900
C 	C 	0.24681 0.03769 0.68955 -0.00600
C 	C 	0.27684 0.03504 0.67372 0.03700
C 	C 	0.30048 0.03088 0.71212 -0.04700
C 	C 	0.29434 0.02799 0.76558 -0.04700
C 	C 	0.26402 0.02904 0.78077 0.06800
C 	C 	0.22143 0.04370 0.65086 0.00700
C 	C 	0.28365 0.03572 0.61598 -0.17800
H 	H 	0.32368 0.02959 0.70033 0.04200
C 	C 	0.25629 0.02328 0.83671 -0.19100
H 	H 	0.21758 0.03723 0.75502 0.05200
C 	C 	0.19842 0.02168 0.63858 0.02500
C 	C 	0.16871 0.03122 0.62644 -0.01400
C 	C 	0.16230 0.06231 0.62621 -0.09200
C 	C 	0.18655 0.08285 0.62367 0.10400
C 	C 	0.21610 0.07364 0.63785 -0.09100
C 	C 	0.20468 0.98854 0.64426 -0.17200
H 	H 	0.15030 0.01483 0.62333 0.04500
C 	C 	0.18069 0.11531 0.61193 -0.20400
H 	H 	0.23430 0.09026 0.64324 0.05100
H 	H 	0.23161 0.01934 0.83921 0.06400
H 	H 	0.26296 0.04323 0.86427 0.07300
H 	H 	0.26809 0.00270 0.84983 0.06700
H 	H 	0.27736 0.05810 0.60143 0.06500
H 	H 	0.27061 0.01751 0.59206 0.06200
H 	H 	0.30806 0.03189 0.60982 0.05900
H 	H 	0.18861 0.97410 0.61793 0.05800
H 	H 	0.20223 0.98326 0.68622 0.06400
H 	H 	0.22797 0.98272 0.63278 0.06000
H 	H 	0.17656 0.12906 0.64945 0.07800
H 	H 	0.16068 0.11677 0.58348 0.07800
H 	H 	0.20044 0.12504 0.59358 0.06800
C 	C 	0.82349 0.40243 0.72237 -0.05200
C 	C 	0.84386 0.41085 0.68452 0.09900
C 	C 	0.83578 0.40567 0.62997 -0.08700
C 	C 	0.80945 0.38931 0.61246 -0.00500
C 	C 	0.79005 0.37896 0.65031 0.06600
C 	C 	0.79699 0.38619 0.70500 -0.05400
N 	N 	0.87174 0.42247 0.70024 -0.19900
H 	H 	0.85087 0.41304 0.60094 0.05300
C 	C 	0.80380 0.38139 0.55446 -0.00700
N 	N 	0.76475 0.36235 0.63452 -0.19500
H 	H 	0.78174 0.37916 0.73404 0.04500
C 	C 	0.82108 0.35832 0.53006 -0.08600
C 	C 	0.82415 0.35641 0.47473 0.09800
C 	C 	0.80777 0.37674 0.44287 -0.05000
C 	C 	0.78751 0.39724 0.46675 -0.05400
C 	C 	0.78570 0.40013 0.52240 0.06900
H 	H 	0.83417 0.34336 0.55470 0.05100
N 	N 	0.84379 0.33597 0.45299 -0.20000
H 	H 	0.77439 0.41223 0.44222 0.04600
N 	N 	0.76699 0.42124 0.54475 -0.19400
H 	H 	0.85540 0.32089 0.47685 0.08000
H 	H 	0.84827 0.33515 0.41276 0.08900
H 	H 	0.75423 0.43546 0.52086 0.08100
H 	H 	0.76445 0.42336 0.58578 0.08700
H 	H 	0.75055 0.35490 0.66272 0.08000
H 	H 	0.75893 0.35662 0.59429 0.08500
H 	H 	0.88064 0.42161 0.73938 0.08800
H 	H 	0.88578 0.43051 0.67229 0.08100
C 	C 	0.02972 0.16622 0.79966 -0.03100
C 	C 	0.02739 0.14379 0.75724 -0.08900
C 	C 	0.99861 0.13410 0.73612 -0.01600
C 	C 	0.97267 0.14400 0.76130 -0.01100
C 	C 	0.97533 0.16374 0.80771 -0.09500
C 	C 	0.00379 0.17630 0.82461 -0.00900
H 	H 	0.05177 0.17457 0.81524 0.02300
H 	H 	0.99643 0.11723 0.70267 0.03900
H 	H 	0.95076 0.13491 0.74654 -0.02700
H 	H 	0.00605 0.19261 0.85887 0.03300
C 	C 	0.87093 0.31775 0.90900 -0.08800
C 	C 	0.86634 0.32180 0.96365 0.00900
C 	C 	0.85871 0.35083 0.98629 0.01900
C 	C 	0.85229 0.37434 0.95264 -0.04200
C 	C 	0.85634 0.37007 0.89763 -0.05100
C 	C 	0.86787 0.34210 0.87650 0.07200
C 	C 	0.87100 0.29555 0.99653 -0.03400
C 	C 	0.85651 0.35686 0.04569 -0.16400
H 	H 	0.84427 0.39599 0.96934 0.04000
C 	C 	0.87754 0.33812 0.81991 -0.19200
H 	H 	0.87777 0.29571 0.89204 0.05300
C 	C 	0.84690 0.27512 0.00144 0.06700
C 	C 	0.85321 0.24426 0.00605 -0.03800
C 	C 	0.88311 0.23378 0.00538 -0.07300
C 	C 	0.90722 0.25515 0.01085 0.08100
C 	C 	0.90076 0.28613 0.00805 -0.06500
C 	C 	0.81448 0.28535 0.99527 -0.22000
H 	H 	0.83472 0.22802 0.00489 0.04500
C 	C 	0.93977 0.24491 0.01275 -0.18600
H 	H 	0.91918 0.30237 0.00807 0.04600
H 	H 	0.85746 0.33302 0.79216 0.07400
H 	H 	0.89376 0.31907 0.81502 0.06400
H 	H 	0.88920 0.35884 0.80878 0.07200
H 	H 	0.87194 0.34213 0.06859 0.06400
H 	H 	0.83287 0.35319 0.05640 0.05700
H 	H 	0.86300 0.38073 0.05828 0.06100
H 	H 	0.79866 0.26819 0.00841 0.07300
H 	H 	0.80849 0.28903 0.95282 0.07300
H 	H 	0.81118 0.30673 0.02003 0.07500
H 	H 	0.94536 0.23452 0.97306 0.06500
H 	H 	0.94364 0.22814 0.04308 0.08200
H 	H 	0.95558 0.26422 0.02375 0.06300
C 	C 	0.05260 0.14959 0.31386 -0.04800
C 	C 	0.03356 0.13560 0.27287 -0.10400
C 	C 	0.03766 0.10484 0.25691 -0.03800
C 	C 	0.05905 0.08769 0.28460 -0.00800
C 	C 	0.07617 0.10113 0.32892 -0.12300
C 	C 	0.07385 0.13251 0.34165 -0.01100
H 	H 	0.04985 0.17343 0.32599 0.01400
H 	H 	0.02319 0.09384 0.22501 0.02700
H 	H 	0.06173 0.06391 0.27236 -0.07300
H 	H 	0.08769 0.14349 0.37442 0.03000
C 	C 	0.89500 0.27757 0.15498 -0.09200
C 	C 	0.86464 0.26887 0.15713 0.00700
C 	C 	0.85594 0.23903 0.13899 0.02600
C 	C 	0.87831 0.21661 0.13426 -0.01600
C 	C 	0.90894 0.22436 0.14620 -0.09900
C 	C 	0.91741 0.25536 0.14892 0.09800
C 	C 	0.84496 0.28764 0.19170 -0.00800
C 	C 	0.82298 0.23048 0.12992 -0.17300
H 	H 	0.87169 0.19300 0.12634 0.04900
C 	C 	0.95022 0.26484 0.15113 -0.20300
H 	H 	0.90150 0.30117 0.16374 0.05200
C 	C 	0.84495 0.28339 0.24685 0.04100
C 	C 	0.83325 0.30613 0.28154 -0.04900
C 	C 	0.82222 0.33320 0.26212 -0.04500
C 	C 	0.81818 0.33536 0.20636 0.06700
C 	C 	0.83021 0.31278 0.17156 -0.07900
C 	C 	0.85948 0.25579 0.26936 -0.18100
H 	H 	0.83495 0.30377 0.32414 0.04300
C 	C 	0.80247 0.36225 0.18379 -0.19000
H 	H 	0.82918 0.31538 0.12904 0.04400
H 	H 	0.95842 0.27026 0.19323 0.07900
H 	H 	0.95286 0.28531 0.12865 0.06600
H 	H 	0.96454 0.24667 0.13310 0.07600
H 	H 	0.81001 0.24924 0.11247 0.06200
H 	H 	0.81352 0.22566 0.16829 0.06100
H 	H 	0.82003 0.21003 0.10168 0.06300
H 	H 	0.85649 0.25534 0.31278 0.06400
H 	H 	0.88416 0.25577 0.26336 0.07300
H 	H 	0.84903 0.23476 0.24955 0.06700
H 	H 	0.79175 0.35588 0.14354 0.06200
H 	H 	0.81919 0.38069 0.18041 0.07100
H 	H 	0.78427 0.37077 0.20950 0.07000
C 	C 	0.50028 0.01335 0.37047 -0.00700
N 	N 	0.54295 0.02259 0.29063 -0.19400
C 	C 	0.49753 0.04264 0.39521 -0.08700
C 	C 	0.47040 0.05890 0.38900 0.09800
C 	C 	0.44566 0.04535 0.35781 -0.05100
C 	C 	0.44768 0.01523 0.33668 -0.05300
H 	H 	0.51688 0.05321 0.41774 0.05200
N 	N 	0.46838 0.08746 0.41262 -0.20000
H 	H 	0.42838 0.00468 0.31397 0.04400
H 	H 	0.48699 0.09752 0.43467 0.08100
H 	H 	0.44824 0.09972 0.41026 0.08900
H 	H 	0.55702 0.02468 0.25913 0.08200
H 	H 	0.52402 0.03661 0.29279 0.08800
C 	C 	0.38580 0.97173 0.81561 -0.05200
C 	C 	0.40985 0.97746 0.78288 0.09900
C 	C 	0.43486 0.95795 0.78225 -0.08700
C 	C 	0.43626 0.93315 0.81397 -0.00700
C 	C 	0.41073 0.92551 0.84163 0.06800
C 	C 	0.38574 0.94505 0.84250 -0.05300
N 	N 	0.40942 0.00198 0.75313 -0.20000
H 	H 	0.45407 0.96309 0.75949 0.05200
C 	C 	0.46608 0.91938 0.82617 -0.00500
N 	N 	0.41026 0.89971 0.86794 -0.19400
H 	H 	0.36676 0.94014 0.86597 0.04400
C 	C 	0.48407 0.93188 0.86993 -0.08700
C 	C 	0.51362 0.92156 0.88020 0.09900
H 	H 	0.47538 0.95051 0.89502 0.05300
N 	N 	0.53150 0.93591 0.92016 -0.20000
H 	H 	0.52265 0.95311 0.94536 0.07900
H 	H 	0.55457 0.93120 0.92519 0.08800
H 	H 	0.39172 0.89469 0.88977 0.07900
H 	H 	0.42780 0.88395 0.86555 0.08500
H 	H 	0.39086 0.01652 0.75163 0.08900
H 	H 	0.42763 0.00640 0.73012 0.08100
C 	C 	0.89113 0.14203 0.47331 -0.02500
C 	C 	0.85995 0.13680 0.46271 -0.08900
C 	C 	0.84485 0.15108 0.42097 -0.03200
C 	C 	0.86144 0.16535 0.38432 -0.01000
C 	C 	0.89321 0.16558 0.38953 -0.10700
C 	C 	0.90786 0.15596 0.43630 -0.00200
H 	H 	0.90290 0.13236 0.50695 0.04000
H 	H 	0.82054 0.14850 0.41390 0.02800
H 	H 	0.84973 0.17427 0.34990 0.03000
H 	H 	0.93231 0.15714 0.44204 -0.03600
C 	C 	0.96791 0.07549 0.47441 -0.02000
C 	C 	0.00928 0.04006 0.46202 -0.07700
C 	C 	0.99833 0.06988 0.46475 -0.02500
H 	H 	0.95935 0.09846 0.47397 0.00300
H 	H 	0.01291 0.08850 0.45649 -0.00900
H 	H 	0.72161 0.03630 0.65262 0.06400
C 	C 	0.96946 0.97830 0.73419 -0.02000
C 	C 	0.94173 0.99141 0.74769 -0.07100
C 	C 	0.93962 0.02306 0.75580 -0.02900
C 	C 	0.96539 0.04132 0.75360 -0.01900
C 	C 	0.99355 0.02805 0.74314 -0.07400
C 	C 	0.99522 0.99653 0.73181 -0.02600
H 	H 	0.97138 0.95386 0.72808 0.01900
H 	H 	0.91843 0.03342 0.76663 -0.02000
H 	H 	0.96362 0.06568 0.76155 -0.01200
H 	H 	0.01673 0.98599 0.72361 0.00500
C 	C 	0.82348 0.03694 0.86902 -0.00300
C 	C 	0.84607 0.01557 0.85733 -0.12700
C 	C 	0.87656 0.02305 0.87033 -0.01700
C 	C 	0.88451 0.05219 0.89153 -0.05500
C 	C 	0.86208 0.07406 0.90045 -0.10600
C 	C 	0.83148 0.06608 0.89080 -0.02000
H 	H 	0.79983 0.03134 0.85932 0.02800
H 	H 	0.89422 0.00695 0.86089 -0.06300
H 	H 	0.90815 0.05814 0.89885 -0.00600
H 	H 	0.81399 0.08280 0.89791 0.02900
C 	C 	0.69768 0.96441 0.71267 -0.17200
H 	H 	0.75757 0.96222 0.69400 0.04500
H 	H 	0.69804 0.97146 0.75590 0.06300
H 	H 	0.67393 0.95977 0.69738 0.06000
H 	H 	0.70627 0.98352 0.69134 0.05900
C 	C 	0.92871 0.58011 0.33919 -0.05100
C 	C 	0.94177 0.55799 0.30404 0.09900
C 	C 	0.92780 0.52938 0.29420 -0.08700
C 	C 	0.90163 0.52233 0.31982 -0.00600
C 	C 	0.88849 0.54455 0.35465 0.07000
C 	C 	0.90207 0.57330 0.36357 -0.05300
N 	N 	0.96800 0.56372 0.28076 -0.19900
H 	H 	0.93779 0.51227 0.26761 0.05200
C 	C 	0.88961 0.49094 0.31328 -0.00600
N 	N 	0.86305 0.53836 0.37995 -0.19400
H 	H 	0.89201 0.59041 0.39010 0.04600
C 	C 	0.90186 0.46939 0.34644 -0.08700
C 	C 	0.88768 0.44111 0.34841 0.10000
C 	C 	0.86012 0.43489 0.31812 -0.05300
C 	C 	0.84933 0.45534 0.28154 -0.05400
C 	C 	0.86410 0.48326 0.27828 0.06800
H 	H 	0.92210 0.47492 0.37170 0.05300
N 	N 	0.90078 0.41992 0.37874 -0.19900
H 	H 	0.82887 0.44995 0.25678 0.04400
N 	N 	0.85345 0.50273 0.24228 -0.19400
H 	H 	0.92046 0.42514 0.40268 0.08200
H 	H 	0.89241 0.39773 0.37702 0.09000
H 	H 	0.83407 0.49726 0.21769 0.08100
H 	H 	0.86470 0.52304 0.23735 0.08700
H 	H 	0.85358 0.55496 0.40559 0.08100
H 	H 	0.85242 0.51716 0.37466 0.08800
H 	H 	0.97991 0.58407 0.28946 0.09000
H 	H 	0.97715 0.54739 0.25423 0.08200
C 	C 	0.86264 0.47741 0.85971 -0.05000
C 	C 	0.86027 0.49237 0.91103 0.09700
C 	C 	0.87590 0.51988 0.92421 -0.08800
C 	C 	0.89147 0.53399 0.88570 -0.00700
C 	C 	0.89258 0.51977 0.83361 0.07000
C 	C 	0.87859 0.49140 0.82148 -0.05500
N 	N 	0.84202 0.48125 0.94679 -0.19900
H 	H 	0.87482 0.53101 0.96387 0.05000
C 	C 	0.90613 0.56390 0.89994 -0.00700
N 	N 	0.90705 0.53318 0.79512 -0.19400
H 	H 	0.88037 0.48002 0.78216 0.04800
C 	C 	0.93735 0.56505 0.91348 -0.08700
C 	C 	0.95362 0.59235 0.91255 0.09700
C 	C 	0.93813 0.61890 0.89860 -0.05400
C 	C 	0.90644 0.61846 0.89166 -0.05400
C 	C 	0.89022 0.59114 0.89205 0.06800
H 	H 	0.94930 0.54432 0.92158 0.05100
N 	N 	0.98408 0.59274 0.92397 -0.20000
H 	H 	0.89452 0.63913 0.88300 0.04400
N 	N 	0.85955 0.59110 0.88352 -0.19400
H 	H 	0.99545 0.57283 0.93276 0.08000
H 	H 	0.99662 0.61286 0.92549 0.08900
H 	H 	0.84809 0.61118 0.87620 0.07900
H 	H 	0.84673 0.57137 0.88524 0.08500
H 	H 	0.90795 0.52233 0.75696 0.08100
H 	H 	0.91723 0.55453 0.80228 0.08900
H 	H 	0.82663 0.46366 0.93569 0.08800
H 	H 	0.84168 0.49152 0.98547 0.07900
C 	C 	0.97271 0.67745 0.75596 -0.05100
C 	C 	0.95897 0.70120 0.72833 0.09600
C 	C 	0.96055 0.70089 0.67270 -0.08700
C 	C 	0.97348 0.67626 0.64400 -0.00700
C 	C 	0.98836 0.65329 0.67180 0.07000
C 	C 	0.98820 0.65441 0.72759 -0.05400
N 	N 	0.94326 0.72361 0.75439 -0.20000
H 	H 	0.94974 0.71877 0.65131 0.05100
C 	C 	0.96792 0.67276 0.58522 -0.00700
N 	N 	0.00237 0.62986 0.64520 -0.19500
H 	H 	0.99929 0.63666 0.74892 0.04700
C 	C 	0.99062 0.68141 0.55258 -0.08700
C 	C 	0.98821 0.67389 0.49725 0.09700
C 	C 	0.96151 0.65935 0.47396 -0.05100
C 	C 	0.93784 0.65296 0.50627 -0.05400
C 	C 	0.94098 0.65890 0.56176 0.06900
H 	H 	0.01101 0.69244 0.57064 0.05000
N 	N 	0.01192 0.67972 0.46734 -0.20000
H 	H 	0.91718 0.64242 0.48824 0.04600
N 	N 	0.91826 0.65084 0.59226 -0.19400
H 	H 	0.03117 0.69109 0.48479 0.08000
H 	H 	0.01201 0.67226 0.42710 0.09000
H 	H 	0.89851 0.64057 0.57448 0.08100
H 	H 	0.91989 0.65453 0.63370 0.08800
H 	H 	0.01289 0.61278 0.66607 0.08100
H 	H 	0.00326 0.62844 0.60380 0.08700
H 	H 	0.93933 0.72324 0.79475 0.09000
H 	H 	0.93388 0.74136 0.73374 0.08100
C 	C 	0.97637 0.01989 0.97298 -0.02000
C 	C 	0.00112 0.01111 0.94297 -0.08000
C 	C 	0.01433 0.03206 0.91203 -0.04000
C 	C 	0.00237 0.06118 0.90967 -0.00900
C 	C 	0.97597 0.06912 0.93550 -0.08400
C 	C 	0.96372 0.04882 0.96907 -0.02200
H 	H 	0.96602 0.00389 0.99715 0.01700
H 	H 	0.03312 0.02540 0.88814 -0.02300
H 	H 	0.01250 0.07702 0.88513 -0.05900
H 	H 	0.94342 0.05471 0.98955 0.02900
H 	H 	0.08843 0.04994 0.89606 -0.08100
C 	C 	0.99056 0.74562 0.02910 -0.06500
C 	C 	0.01354 0.76467 0.01437 -0.00200
C 	C 	0.02671 0.75842 0.96491 0.03200
C 	C 	0.01656 0.73329 0.93125 -0.05200
C 	C 	0.99133 0.71623 0.94332 -0.03800
C 	C 	0.97749 0.72326 0.99222 0.04000
C 	C 	0.02090 0.79329 0.04736 0.00600
C 	C 	0.05136 0.77859 0.94757 -0.17700
H 	H 	0.02768 0.72765 0.89459 0.04600
C 	C 	0.94801 0.70861 0.00409 -0.16100
H 	H 	0.98106 0.74994 0.06760 0.04500
C 	C 	0.00124 0.81846 0.04542 0.02900
C 	C 	0.01252 0.84758 0.06166 -0.02100
C 	C 	0.04356 0.85201 0.07491 -0.10300
C 	C 	0.06153 0.82667 0.08628 0.09500
C 	C 	0.04991 0.79726 0.07278 -0.09400
C 	C 	0.96931 0.81487 0.02115 -0.16000
H 	H 	0.99801 0.86711 0.05733 0.04400
C 	C 	0.09385 0.83079 0.10775 -0.20400
H 	H 	0.06436 0.77773 0.07760 0.05100
H 	H 	0.93705 0.72161 0.03706 0.05700
H 	H 	0.95221 0.68525 0.01619 0.06800
H 	H 	0.93171 0.70801 0.96879 0.05900
H 	H 	0.07241 0.77595 0.97296 0.06200
H 	H 	0.04421 0.80272 0.95063 0.06900
H 	H 	0.05660 0.77273 0.90547 0.06100
H 	H 	0.95667 0.83658 0.02438 0.06400
H 	H 	0.95665 0.79810 0.04204 0.06600
H 	H 	0.96977 0.80716 0.97825 0.05700
H 	H 	0.10123 0.81129 0.13071 0.06600
H 	H 	0.09634 0.85169 0.13501 0.07200
H 	H 	0.10883 0.83250 0.07420 0.07800
C 	C 	0.96073 0.04535 0.23862 -0.03000
C 	C 	0.94837 0.06021 0.28362 -0.08800
H 	H 	0.96731 0.05820 0.20608 0.03300
C 	C 	0.93080 0.72970 0.25356 -0.07800
C 	C 	0.94845 0.72519 0.20914 -0.00600
C 	C 	0.96494 0.69802 0.20144 0.03700
C 	C 	0.96560 0.67700 0.24075 -0.04700
C 	C 	0.94886 0.68212 0.28622 -0.04700
C 	C 	0.93011 0.70794 0.29130 0.07000
C 	C 	0.95235 0.75069 0.17501 0.00600
C 	C 	0.98255 0.69178 0.15237 -0.17800
H 	H 	0.97931 0.65674 0.23615 0.04300
C 	C 	0.90983 0.71278 0.33731 -0.19100
H 	H 	0.91802 0.75051 0.25926 0.05200
C 	C 	0.92699 0.76254 0.14699 0.02300
C 	C 	0.92567 0.79389 0.14100 -0.02000
C 	C 	0.94960 0.81280 0.16198 -0.10600
C 	C 	0.97778 0.79945 0.17553 0.10200
C 	C 	0.97882 0.76832 0.18299 -0.09500
C 	C 	0.89992 0.74277 0.12971 -0.17300
H 	H 	0.90476 0.80386 0.12607 0.03400
C 	C 	0.00514 0.81895 0.19239 -0.21100
H 	H 	0.99917 0.75870 0.20089 0.05200
H 	H 	0.89787 0.69139 0.34414 0.07200
H 	H 	0.89221 0.73004 0.32932 0.06500
H 	H 	0.92355 0.72077 0.37397 0.07300
H 	H 	0.00401 0.70503 0.15647 0.06300
H 	H 	0.96904 0.69813 0.11642 0.06300
H 	H 	0.98810 0.66731 0.14612 0.06300
H 	H 	0.88828 0.75078 0.09310 0.05900
H 	H 	0.88377 0.74354 0.16192 0.06400
H 	H 	0.90685 0.71888 0.12056 0.06100
H 	H 	0.00549 0.82498 0.23598 0.07800
H 	H 	0.00486 0.84011 0.17123 0.08500
H 	H 	0.02627 0.80659 0.18316 0.07300
Cd	Cd	0.95519 0.89623 0.25104 1.23900
Cd	Cd	0.95653 0.93115 0.38391 1.16600
O 	O 	0.96268 0.94568 0.24029 -0.38800
O 	O 	0.98134 0.95656 0.32617 -0.44000
C 	C 	0.96810 0.96538 0.28189 0.27000
C 	C 	0.90010 0.91542 0.29538 0.29600
O 	O 	0.98254 0.89037 0.34567 -0.45600
O 	O 	0.89621 0.90970 0.24378 -0.30400
O 	O 	0.92617 0.90793 0.31644 -0.54400
C 	C 	0.00821 0.89137 0.32269 0.29500
O 	O 	0.00609 0.88983 0.27071 -0.37500
Cd	Cd	0.04275 0.92163 0.98363 1.23600
Cd	Cd	0.04614 0.94115 0.84990 1.16200
O 	O 	0.07121 0.87740 0.01333 -0.32600
O 	O 	0.04433 0.90558 0.06735 -0.36600
C 	C 	0.05779 0.87966 0.05806 0.27700
O 	O 	0.01857 0.96592 0.98336 -0.39900
O 	O 	0.00799 0.96343 0.89306 -0.44200
C 	C 	0.01129 0.97939 0.93933 0.27500
C 	C 	0.09388 0.95381 0.95286 0.28200
O 	O 	0.03025 0.89725 0.88571 -0.46300
O 	O 	0.09339 0.95487 0.00489 -0.29400
O 	O 	0.07447 0.93546 0.92707 -0.54700
C 	C 	0.00333 0.89135 0.90099 0.29400
O 	O 	0.99907 0.89698 0.95144 -0.38500
Cd	Cd	0.85353 0.93799 0.75220 1.23900
O 	O 	0.80468 0.91230 0.75648 -0.33400
O 	O 	0.81784 0.93091 0.68258 -0.36800
C 	C 	0.79756 0.91666 0.70699 0.28200
O 	O 	0.89248 0.96737 0.73300 -0.38600
C 	C 	0.91742 0.97208 0.76442 0.28000
O 	O 	0.87820 0.90755 0.82875 -0.46100
C 	C 	0.89239 0.89134 0.79277 0.29200
O 	O 	0.88418 0.89572 0.74333 -0.36700
Cd	Cd	0.84911 0.04995 0.52131 1.23700
Cd	Cd	0.86453 0.06181 0.38663 1.17200
O 	O 	0.79596 0.04284 0.54083 -0.33400
O 	O 	0.83279 0.03425 0.59942 -0.36900
C 	C 	0.80389 0.03196 0.58606 0.28000
O 	O 	0.89967 0.04737 0.52041 -0.39200
O 	O 	0.90300 0.07440 0.44654 -0.42700
C 	C 	0.91530 0.05630 0.48102 0.27700
C 	C 	0.84879 0.99914 0.44459 0.30300
O 	O 	0.84893 0.99067 0.49312 -0.31800
O 	O 	0.84505 0.02801 0.43995 -0.53800
C 	C 	0.60693 0.88436 0.84341 0.12100
N 	N 	0.57786 0.89060 0.82776 -0.14500
C 	C 	0.55500 0.88449 0.85908 0.12600
N 	N 	0.56121 0.87155 0.90568 -0.14700
C 	C 	0.59034 0.86657 0.92285 0.12400
N 	N 	0.61312 0.87230 0.89092 -0.14600
C 	C 	0.65960 0.93088 0.38471 0.12100
N 	N 	0.66219 0.91316 0.33881 -0.14600
C 	C 	0.63916 0.91178 0.30063 0.12600
N 	N 	0.61330 0.92748 0.30898 -0.14500
C 	C 	0.61048 0.94482 0.35512 0.12500
N 	N 	0.63385 0.94690 0.39259 -0.14500
O 	O 	0.10056 0.99232 0.36088 -0.45700
C 	C 	0.09898 0.97387 0.39875 0.29100
O 	O 	0.10603 0.98552 0.44695 -0.36500
C 	C 	0.21443 0.00308 0.50350 -0.20500
H 	H 	0.21071 0.99077 0.46365 0.07500
H 	H 	0.19331 0.00202 0.52510 0.07600
H 	H 	0.23244 0.99139 0.52665 0.06500
C 	C 	0.58336 0.96377 0.36197 -0.05100
C 	C 	0.56446 0.96065 0.40487 0.09800
C 	C 	0.53867 0.97900 0.40936 -0.08700
C 	C 	0.53048 0.99890 0.37015 -0.00600
C 	C 	0.54970 0.00249 0.32798 0.06900
C 	C 	0.57602 0.98494 0.32448 -0.05400
N 	N 	0.57021 0.93938 0.44055 -0.19900
H 	H 	0.52400 0.97653 0.44183 0.05200
H 	H 	0.59075 0.98759 0.29214 0.04700
C 	C 	0.47479 0.99906 0.34253 0.07000
N 	N 	0.47632 0.97005 0.32060 -0.19400
H 	H 	0.45754 0.95994 0.29916 0.08100
H 	H 	0.49589 0.95710 0.32515 0.08800
H 	H 	0.58729 0.92333 0.43551 0.09000
H 	H 	0.55667 0.93796 0.47296 0.08100
C 	C 	0.52472 0.89699 0.84770 -0.05200
C 	C 	0.50663 0.88422 0.80420 -0.05300
C 	C 	0.47733 0.89524 0.79296 0.06700
H 	H 	0.51529 0.86554 0.77921 0.04500
N 	N 	0.46010 0.88237 0.75075 -0.19400
H 	H 	0.46872 0.86473 0.72619 0.08000
H 	H 	0.43794 0.88943 0.74223 0.08500
C 	C 	0.59746 0.86203 0.97990 -0.06000
C 	C 	0.62283 0.84480 0.99647 0.08800
C 	C 	0.63386 0.84792 0.05006 -0.07700
C 	C 	0.61850 0.86592 0.08788 -0.00800
C 	C 	0.59111 0.88025 0.07233 0.07000
C 	C 	0.58101 0.87837 0.01842 -0.04500
N 	N 	0.63588 0.82447 0.96178 -0.19800
H 	H 	0.65428 0.83613 0.06242 0.05100
C 	C 	0.63259 0.87197 0.14238 -0.00500
N 	N 	0.57471 0.89630 0.10876 -0.19400
H 	H 	0.56098 0.89080 0.00617 0.05000
C 	C 	0.64999 0.89843 0.15390 -0.08600
C 	C 	0.65519 0.91051 0.20673 0.09800
C 	C 	0.64304 0.89549 0.24851 -0.05200
C 	C 	0.62933 0.86690 0.23742 -0.05400
C 	C 	0.62418 0.85482 0.18452 0.06800
H 	H 	0.65767 0.91078 0.12149 0.05300
N 	N 	0.67107 0.93691 0.21692 -0.20000
H 	H 	0.62114 0.85482 0.26975 0.04500
N 	N 	0.61037 0.82731 0.17439 -0.19400
H 	H 	0.67926 0.94828 0.18568 0.08000
H 	H 	0.67600 0.94605 0.25582 0.08600
H 	H 	0.60323 0.81526 0.20565 0.08200
H 	H 	0.60742 0.81724 0.13564 0.08700
H 	H 	0.55489 0.90737 0.09664 0.08300
H 	H 	0.58104 0.89750 0.14941 0.09000
H 	H 	0.62556 0.81839 0.92418 0.08900
H 	H 	0.65555 0.81303 0.97352 0.07800
C 	C 	0.94825 0.05133 0.48199 -0.07400
C 	C 	0.95971 0.02177 0.48273 -0.02700
C 	C 	0.99004 0.01612 0.47249 -0.01600
H 	H 	0.94475 0.00295 0.48829 0.00400
H 	H 	0.99826 0.99299 0.47049 0.00600
C 	C 	0.73435 0.98884 0.58448 -0.09000
C 	C 	0.74527 0.96247 0.55773 0.00500
C 	C 	0.77608 0.95486 0.56628 0.03600
C 	C 	0.79643 0.97704 0.59000 -0.01200
C 	C 	0.78609 0.00655 0.60290 -0.09900
C 	C 	0.75483 0.01067 0.60882 0.09600
C 	C 	0.72712 0.94843 0.51103 -0.00500
C 	C 	0.78783 0.92471 0.54476 -0.17400
H 	H 	0.82057 0.97265 0.59104 0.05100
C 	C 	0.74317 0.04009 0.63348 -0.20300
H 	H 	0.71030 0.99366 0.58200 0.05000
C 	C 	0.70269 0.92874 0.51758 0.03800
C 	C 	0.68139 0.92193 0.47488 -0.04700
C 	C 	0.68492 0.93352 0.42529 -0.04600
C 	C 	0.71103 0.95070 0.41725 0.06900
C 	C 	0.73196 0.95803 0.46032 -0.07800
C 	C 	0.69836 0.91620 0.57046 -0.18100
H 	H 	0.66156 0.90832 0.48069 0.04100
C 	C 	0.71614 0.96205 0.36343 -0.19000
H 	H 	0.75132 0.97240 0.45502 0.05300
H 	H 	0.73912 0.05633 0.60224 0.07500
H 	H 	0.75978 0.05016 0.66464 0.07100
H 	H 	0.79222 0.92574 0.50198 0.06600
H 	H 	0.77115 0.90636 0.54905 0.06400
H 	H 	0.80923 0.91879 0.56684 0.07000
H 	H 	0.68312 0.89605 0.56598 0.06000
H 	H 	0.68835 0.93393 0.59746 0.06500
H 	H 	0.72036 0.90884 0.58836 0.06900
H 	H 	0.69705 0.97676 0.35098 0.06800
H 	H 	0.71790 0.94252 0.33347 0.07100
H 	H 	0.73739 0.97557 0.36403 0.06300
C 	C 	0.72218 0.88176 0.69475 -0.09300
C 	C 	0.70521 0.90736 0.71025 0.00500
C 	C 	0.71690 0.93659 0.70377 0.02400
C 	C 	0.74745 0.93977 0.69256 -0.01700
C 	C 	0.76587 0.91407 0.68660 -0.10300
C 	C 	0.75211 0.88513 0.68036 0.09300
C 	C 	0.67891 0.90363 0.74319 -0.00600
C 	C 	0.77032 0.85749 0.66467 -0.20300
H 	H 	0.71283 0.85923 0.69719 0.05000
C 	C 	0.65150 0.89047 0.72084 0.03700
C 	C 	0.62849 0.88375 0.75438 -0.04800
C 	C 	0.63177 0.89156 0.80944 -0.04600
C 	C 	0.65824 0.90711 0.83105 0.06700
C 	C 	0.68212 0.91165 0.79813 -0.07800
C 	C 	0.64616 0.88479 0.66132 -0.17700
H 	H 	0.60788 0.87258 0.73757 0.04400
C 	C 	0.66123 0.91904 0.88882 -0.18900
H 	H 	0.70319 0.92176 0.81519 0.05000
H 	H 	0.75542 0.83925 0.64481 0.06500
H 	H 	0.78203 0.84891 0.70071 0.07400
H 	H 	0.78743 0.86307 0.63621 0.06900
H 	H 	0.62316 0.87536 0.65021 0.06000
H 	H 	0.66288 0.86832 0.64540 0.06100
H 	H 	0.64816 0.90650 0.64222 0.06000
H 	H 	0.66701 0.90017 0.91433 0.07200
H 	H 	0.63986 0.92992 0.90114 0.07000
H 	H 	0.67940 0.93653 0.89572 0.06100
C 	C 	0.95435 0.86428 0.88149 -0.01000
C 	C 	0.97852 0.88048 0.86319 -0.10500
C 	C 	0.97589 0.89109 0.81198 -0.00400
C 	C 	0.94784 0.88984 0.78332 -0.02200
C 	C 	0.92227 0.87896 0.80671 -0.09000
C 	C 	0.92624 0.86353 0.85325 -0.03200
H 	H 	0.95663 0.85448 0.91969 0.02800
H 	H 	0.99476 0.90262 0.79641 -0.02600
H 	H 	0.94532 0.90043 0.74588 0.03900
H 	H 	0.90691 0.85362 0.87028 0.02600
C 	C 	0.09578 0.00770 0.93189 -0.04900
C 	C 	0.10749 0.97822 0.92565 -0.09900
C 	C 	0.12555 0.97049 0.88286 -0.04800
C 	C 	0.12824 0.99036 0.84273 -0.01200
C 	C 	0.11288 0.01820 0.84513 -0.13200
C 	C 	0.09861 0.02774 0.89182 0.00200
H 	H 	0.08236 0.01422 0.96548 0.02900
H 	H 	0.13545 0.94808 0.87844 0.02100
H 	H 	0.14087 0.98337 0.80837 0.02700
C 	C 	0.94565 0.01205 0.32382 -0.01800
C 	C 	0.95886 0.99731 0.27974 -0.10100
C 	C 	0.96581 0.01394 0.23659 -0.02400
C 	C 	0.94015 0.04318 0.32550 -0.03800
H 	H 	0.94005 0.99940 0.35725 -0.02000
H 	H 	0.97616 0.00284 0.20246 0.02400
H 	H 	0.92999 0.05414 0.35983 -0.00300
C 	C 	0.86558 0.92549 0.36818 -0.03900
C 	C 	0.88001 0.93580 0.32486 -0.10200
C 	C 	0.87953 0.96677 0.31605 -0.04800
C 	C 	0.86746 0.98765 0.35342 0.01100
C 	C 	0.85538 0.97754 0.39940 -0.13100
C 	C 	0.85296 0.94622 0.40494 -0.00400
H 	H 	0.86540 0.90151 0.37473 0.02400
H 	H 	0.89014 0.97484 0.28199 0.03100
H 	H 	0.86881 0.01159 0.34772 -0.09000
H 	H 	0.84261 0.93801 0.43915 0.02900
C 	C 	0.03350 0.92061 0.40151 -0.00500
C 	C 	0.03563 0.90433 0.35182 -0.10100
C 	C 	0.06276 0.90548 0.32564 -0.00500
C 	C 	0.08528 0.92643 0.34418 -0.02800
C 	C 	0.08115 0.94580 0.38971 -0.08700
C 	C 	0.05623 0.94132 0.42039 -0.02500
H 	H 	0.01332 0.91891 0.42356 -0.04200
H 	H 	0.06542 0.89179 0.28875 0.03500
H 	H 	0.10502 0.92896 0.32129 0.02900
H 	H 	0.05327 0.95556 0.45656 0.03800
