data_crystal

_cell_length_a 35.21477
_cell_length_b 34.86481
_cell_length_c 18.36416
_cell_angle_alpha 91.42480
_cell_angle_beta  89.49206
_cell_angle_gamma 90.17132

_symmetry_space_group_name_	'P 1'
_symmetry_space_group_name_H-M	'P 1'

loop_
_symmetry_equiv_pos_as_xyz
  x,y,z

loop_
_atom_site_label
_atom_site_type_symbol
_atom_site_fract_x
_atom_site_fract_y
_atom_site_fract_z
_atom_site_charge
Cd	Cd	0.04170 0.89238 0.23037 1.24000
Cd	Cd	0.01968 0.94578 0.39381 1.16300
O 	O 	0.98974 0.86152 0.16065 -0.31900
O 	O 	0.04885 0.85965 0.12278 -0.46100
C 	C 	0.01399 0.84836 0.11241 0.23800
O 	O 	0.09672 0.92186 0.25968 -0.38700
O 	O 	0.08128 0.93099 0.38011 -0.43600
C 	C 	0.10139 0.94051 0.32260 0.28000
C 	C 	0.01144 0.96781 0.22057 0.30500
O 	O 	0.01096 0.88158 0.35982 -0.45600
O 	O 	0.02510 0.95536 0.15810 -0.32000
O 	O 	0.00944 0.94240 0.27092 -0.54700
C 	C 	0.03507 0.85354 0.36722 0.30000
O 	O 	0.05464 0.84406 0.30900 -0.36700
Cd	Cd	0.80893 0.89199 0.99316 1.23400
Cd	Cd	0.84742 0.93809 0.83644 1.16800
O 	O 	0.76003 0.84343 0.96805 -0.34900
O 	O 	0.78450 0.85057 0.07675 -0.35800
C 	C 	0.76246 0.83045 0.03349 0.30100
O 	O 	0.85820 0.92639 0.03681 -0.35400
O 	O 	0.85942 0.96846 0.94275 -0.42500
C 	C 	0.87629 0.95233 0.99782 0.24000
C 	C 	0.86509 0.85295 0.90686 0.30900
O 	O 	0.78644 0.93353 0.88471 -0.46400
O 	O 	0.85866 0.83597 0.96826 -0.32000
O 	O 	0.84179 0.88055 0.89237 -0.53900
C 	C 	0.77072 0.95691 0.93251 0.29600
O 	O 	0.77092 0.94604 0.99998 -0.37100
C 	C 	0.77615 0.63696 0.84854 0.11000
N 	N 	0.79776 0.60867 0.87619 -0.14400
C 	C 	0.82080 0.58722 0.83176 0.12800
N 	N 	0.82182 0.59389 0.75932 -0.14300
C 	C 	0.79917 0.62093 0.73081 0.12700
N 	N 	0.77584 0.64212 0.77527 -0.14400
C 	C 	0.94334 0.64742 0.14061 0.11000
N 	N 	0.91878 0.64688 0.19809 -0.14200
C 	C 	0.91844 0.61681 0.24365 0.12600
N 	N 	0.94195 0.58654 0.23036 -0.14300
C 	C 	0.96717 0.58733 0.17403 0.12300
N 	N 	0.96762 0.61763 0.12894 -0.14300
Cd	Cd	0.89110 0.12491 0.61630 1.24000
Cd	Cd	0.92025 0.16158 0.78776 1.16000
O 	O 	0.85519 0.16550 0.53369 -0.32100
O 	O 	0.87110 0.10680 0.50322 -0.36400
C 	C 	0.84932 0.13600 0.49033 0.27300
O 	O 	0.92922 0.07957 0.65889 -0.40200
O 	O 	0.92108 0.09699 0.77935 -0.43900
C 	C 	0.93808 0.07593 0.72819 0.28400
C 	C 	0.95536 0.17396 0.62474 0.29900
O 	O 	0.86031 0.15431 0.73769 -0.46300
O 	O 	0.95408 0.15613 0.56130 -0.29700
O 	O 	0.92542 0.17018 0.66527 -0.54800
C 	C 	0.83889 0.12373 0.73817 0.30200
O 	O 	0.84140 0.10067 0.68153 -0.37900
Cd	Cd	0.99225 0.24000 0.45693 1.24100
Cd	Cd	0.05872 0.20679 0.32168 1.17700
O 	O 	0.94014 0.28304 0.42293 -0.32600
O 	O 	0.94307 0.25817 0.53133 -0.36100
C 	C 	0.92406 0.27896 0.48640 0.27000
O 	O 	0.02576 0.19477 0.51144 -0.37300
O 	O 	0.07815 0.19653 0.43593 -0.42600
C 	C 	0.05848 0.18021 0.48825 0.28800
C 	C 	0.97055 0.18002 0.35731 0.30500
O 	O 	0.04445 0.26757 0.36920 -0.45400
O 	O 	0.94636 0.18362 0.41119 -0.28900
O 	O 	0.99612 0.20687 0.35383 -0.53700
C 	C 	0.05996 0.28396 0.42641 0.29200
O 	O 	0.03902 0.28420 0.48541 -0.36400
C 	C 	0.67192 0.08288 0.66855 0.10800
N 	N 	0.67746 0.10762 0.72596 -0.14300
C 	C 	0.65747 0.10330 0.78893 0.12500
N 	N 	0.63121 0.07486 0.79354 -0.14500
C 	C 	0.62725 0.04884 0.73802 0.12500
N 	N 	0.64672 0.05357 0.67478 -0.14400
C 	C 	0.71576 0.25766 0.37394 0.11000
N 	N 	0.69657 0.23217 0.41561 -0.14500
C 	C 	0.67211 0.20658 0.38431 0.12700
N 	N 	0.66603 0.20722 0.31148 -0.14300
C 	C 	0.68548 0.23209 0.26944 0.12800
N 	N 	0.70923 0.25822 0.30103 -0.14300
Cd	Cd	0.31893 0.16877 0.26279 1.24000
Cd	Cd	0.29000 0.15393 0.44445 1.15800
O 	O 	0.36941 0.21652 0.24615 -0.32300
O 	O 	0.34414 0.18599 0.15337 -0.35600
C 	C 	0.36451 0.21523 0.17614 0.26800
O 	O 	0.28065 0.11673 0.25506 -0.38200
O 	O 	0.24874 0.13224 0.36099 -0.44100
C 	C 	0.25646 0.10747 0.30761 0.28000
C 	C 	0.36439 0.12275 0.35214 0.30000
O 	O 	0.28813 0.20849 0.37392 -0.45800
O 	O 	0.37517 0.11942 0.28397 -0.29800
O 	O 	0.34063 0.15034 0.36637 -0.55100
C 	C 	0.26159 0.21795 0.32832 0.29500
O 	O 	0.26683 0.20717 0.26070 -0.36900
Cd	Cd	0.11084 0.15692 0.08982 1.23700
Cd	Cd	0.12986 0.08569 0.95139 1.16300
O 	O 	0.15370 0.21222 0.09797 -0.33000
O 	O 	0.10049 0.21105 0.16036 -0.44000
C 	C 	0.12984 0.23106 0.13962 0.27800
O 	O 	0.05986 0.11867 0.09308 -0.40400
O 	O 	0.08804 0.06633 0.03699 -0.42300
C 	C 	0.05714 0.08483 0.05903 0.28700
C 	C 	0.09073 0.17124 0.94297 0.30900
O 	O 	0.16485 0.10971 0.04902 -0.45500
O 	O 	0.07466 0.19581 0.98821 -0.33200
O 	O 	0.11537 0.14861 0.97130 -0.55300
C 	C 	0.16489 0.09636 0.11451 0.30100
O 	O 	0.14370 0.11490 0.16235 -0.37600
C 	C 	0.11653 0.42378 0.93782 0.11200
N 	N 	0.13625 0.42922 0.87496 -0.14400
C 	C 	0.12361 0.45430 0.82535 0.12400
N 	N 	0.09030 0.47306 0.83752 -0.14400
C 	C 	0.07045 0.46779 0.90040 0.12300
N 	N 	0.08369 0.44322 0.95041 -0.14900
C 	C 	0.24643 0.38906 0.21774 0.11100
N 	N 	0.25135 0.39637 0.29028 -0.14300
C 	C 	0.22429 0.41591 0.32932 0.12800
N 	N 	0.19300 0.42901 0.29546 -0.14300
C 	C 	0.18832 0.42245 0.22305 0.12900
N 	N 	0.21532 0.40314 0.18404 -0.14100
Cd	Cd	0.14497 0.85091 0.85728 1.24300
Cd	Cd	0.06913 0.86090 0.98469 1.18600
O 	O 	0.18693 0.79445 0.86370 -0.32600
O 	O 	0.19307 0.83646 0.77784 -0.35400
C 	C 	0.20667 0.80619 0.80828 0.27000
O 	O 	0.11059 0.90060 0.81843 -0.37100
O 	O 	0.08265 0.91557 0.92873 -0.43300
C 	C 	0.08461 0.91933 0.85773 0.27800
C 	C 	0.07751 0.80746 0.83624 0.30100
O 	O 	0.13453 0.85839 0.99973 -0.44300
O 	O 	0.09852 0.80671 0.77727 -0.29800
O 	O 	0.09341 0.82248 0.89358 -0.54200
C 	C 	0.15872 0.88686 0.99775 0.27300
O 	O 	0.17639 0.89144 0.93600 -0.36600
Cd	Cd	0.22454 0.95247 0.72094 1.23800
Cd	Cd	0.21107 0.93246 0.53195 1.16900
O 	O 	0.27143 0.91382 0.78421 -0.32500
O 	O 	0.24662 0.96516 0.83565 -0.37400
C 	C 	0.27315 0.93913 0.83723 0.27400
O 	O 	0.18664 0.99978 0.68361 -0.40600
O 	O 	0.16337 0.96594 0.58436 -0.43500
C 	C 	0.16542 0.99789 0.62425 0.28300
C 	C 	0.27868 0.98002 0.61899 0.30700
O 	O 	0.20241 0.89547 0.63425 -0.45500
O 	O 	0.28264 0.99657 0.68286 -0.32200
O 	O 	0.25467 0.95171 0.61597 -0.54200
C 	C 	0.17172 0.89379 0.67447 0.30300
O 	O 	0.17235 0.91412 0.73501 -0.38000
C 	C 	0.41102 0.81141 0.94942 0.08700
N 	N 	0.41023 0.82112 0.02157 -0.12800
C 	C 	0.43904 0.84188 0.05151 0.13000
N 	N 	0.46881 0.85274 0.00930 -0.12900
C 	C 	0.47005 0.84277 0.93730 0.10700
N 	N 	0.44117 0.82189 0.90763 -0.13900
C 	C 	0.45307 0.98185 0.66513 0.11000
N 	N 	0.44662 0.95397 0.61353 -0.14400
C 	C 	0.46579 0.95437 0.54899 0.12500
N 	N 	0.49314 0.98111 0.53806 -0.14400
C 	C 	0.50075 0.00804 0.59048 0.12900
N 	N 	0.48015 0.00895 0.65338 -0.14300
C 	C 	0.43722 0.85410 0.12906 -0.05000
C 	C 	0.44268 0.89301 0.15054 0.10400
C 	C 	0.44735 0.90266 0.22455 -0.08700
C 	C 	0.44322 0.87483 0.27788 -0.00400
C 	C 	0.43455 0.83644 0.25686 0.06700
C 	C 	0.43234 0.82632 0.18240 -0.05200
N 	N 	0.44182 0.92132 0.10090 -0.19900
H 	H 	0.45291 0.93224 0.24094 0.05800
C 	C 	0.44625 0.88689 0.35566 -0.00700
N 	N 	0.42874 0.80919 0.30757 -0.19400
H 	H 	0.42737 0.79665 0.16597 0.04900
C 	C 	0.41580 0.90662 0.38865 -0.08600
C 	C 	0.42073 0.92756 0.45423 0.10000
C 	C 	0.45637 0.92664 0.48971 -0.05100
C 	C 	0.48542 0.90324 0.46068 -0.05300
C 	C 	0.48100 0.88387 0.39326 0.07000
H 	H 	0.38888 0.90793 0.36059 0.05100
N 	N 	0.39165 0.94942 0.48112 -0.20000
H 	H 	0.51231 0.90172 0.48880 0.04600
N 	N 	0.51036 0.86300 0.36456 -0.19400
H 	H 	0.36522 0.94878 0.45568 0.08500
H 	H 	0.39503 0.96790 0.52603 0.09900
H 	H 	0.53613 0.86151 0.39213 0.08300
H 	H 	0.50779 0.84764 0.31534 0.08900
H 	H 	0.42272 0.78087 0.29148 0.08200
H 	H 	0.42982 0.81580 0.36326 0.08500
H 	H 	0.43262 0.91597 0.04771 0.09900
H 	H 	0.44800 0.94967 0.11656 0.09000
C 	C 	0.31098 0.94944 0.86518 -0.07400
C 	C 	0.33669 0.91961 0.87781 0.00700
C 	C 	0.37426 0.92253 0.85285 -0.06500
C 	C 	0.38608 0.95561 0.81680 0.02900
C 	C 	0.36264 0.98846 0.81929 0.00100
C 	C 	0.32573 0.98571 0.84841 -0.01700
C 	C 	0.37421 0.02157 0.78318 -0.03900
C 	C 	0.40611 0.02043 0.73731 -0.03100
C 	C 	0.42675 0.98626 0.72750 -0.01000
C 	C 	0.41812 0.95465 0.77070 -0.05500
H 	H 	0.32636 0.89235 0.89716 0.03400
H 	H 	0.39307 0.89812 0.85638 0.04500
H 	H 	0.30674 0.01007 0.84598 0.03900
H 	H 	0.35707 0.04733 0.78655 0.03300
H 	H 	0.41320 0.04528 0.70557 0.03400
H 	H 	0.43453 0.92854 0.76440 0.04700
C 	C 	0.24762 0.79721 0.80226 -0.06900
C 	C 	0.27116 0.81868 0.75621 0.01100
C 	C 	0.31019 0.82106 0.76903 -0.06300
C 	C 	0.32600 0.80184 0.82772 0.03500
C 	C 	0.30318 0.77658 0.86842 -0.00600
C 	C 	0.26431 0.77324 0.85340 -0.01500
C 	C 	0.31873 0.75795 0.92805 -0.02700
C 	C 	0.35529 0.76731 0.95166 -0.06500
C 	C 	0.37695 0.79475 0.91491 0.00700
C 	C 	0.36321 0.81002 0.85015 -0.06300
H 	H 	0.25891 0.83557 0.71366 0.04200
H 	H 	0.32766 0.83960 0.73600 0.04900
H 	H 	0.24656 0.75470 0.88596 0.04400
H 	H 	0.30181 0.73773 0.95847 0.03000
H 	H 	0.36621 0.75438 0.00023 0.06400
H 	H 	0.38039 0.83026 0.82028 0.04800
C 	C 	0.14403 0.45800 0.75502 -0.05000
C 	C 	0.18415 0.46119 0.75233 0.09700
C 	C 	0.20337 0.45494 0.68573 -0.08700
C 	C 	0.18313 0.44904 0.62100 -0.00600
C 	C 	0.14289 0.44981 0.62264 0.07100
C 	C 	0.12374 0.45371 0.68987 -0.05400
N 	N 	0.20415 0.47147 0.81278 -0.19900
H 	H 	0.23416 0.45543 0.68407 0.05100
C 	C 	0.20423 0.44006 0.55237 -0.00600
N 	N 	0.12252 0.44660 0.56013 -0.19400
H 	H 	0.09298 0.45224 0.69160 0.05100
C 	C 	0.20759 0.40167 0.52870 -0.08600
C 	C 	0.21966 0.39243 0.45727 0.10000
C 	C 	0.22803 0.42230 0.40867 -0.05100
C 	C 	0.22974 0.46027 0.43569 -0.05300
C 	C 	0.21747 0.46958 0.50698 0.06900
H 	H 	0.19916 0.37898 0.56485 0.05300
N 	N 	0.22267 0.35499 0.43560 -0.20000
H 	H 	0.23779 0.48302 0.39934 0.04800
N 	N 	0.21748 0.50687 0.53063 -0.19400
H 	H 	0.21586 0.33322 0.47159 0.08600
H 	H 	0.23336 0.34709 0.38429 0.09700
H 	H 	0.22650 0.52855 0.49613 0.08300
H 	H 	0.20917 0.51469 0.58362 0.08700
H 	H 	0.09285 0.44631 0.56206 0.08500
H 	H 	0.13578 0.44527 0.50908 0.09100
H 	H 	0.19051 0.48144 0.86026 0.08500
H 	H 	0.23383 0.47183 0.81132 0.07900
C 	C 	0.15870 0.91781 0.05351 -0.07200
C 	C 	0.12451 0.92909 0.08738 0.01900
C 	C 	0.12127 0.96551 0.12013 -0.06400
C 	C 	0.15208 0.99099 0.11916 0.01200
C 	C 	0.18740 0.97864 0.09019 0.00500
C 	C 	0.19090 0.94142 0.06042 -0.01700
C 	C 	0.21744 0.00491 0.08440 -0.06200
C 	C 	0.21133 0.04376 0.10064 0.00100
C 	C 	0.17556 0.05644 0.12517 -0.09800
C 	C 	0.14711 0.02956 0.14024 -0.02000
H 	H 	0.09968 0.91087 0.08356 -0.02000
H 	H 	0.09419 0.97473 0.14222 0.05500
H 	H 	0.21770 0.93219 0.03630 0.05000
H 	H 	0.24489 0.99566 0.06350 0.04500
H 	H 	0.23380 0.06431 0.09057 0.03200
H 	H 	0.11985 0.03930 0.16125 0.04800
C 	C 	0.12756 0.27323 0.13418 -0.08700
C 	C 	0.09408 0.29289 0.15413 0.01200
C 	C 	0.08689 0.32926 0.12649 -0.06700
C 	C 	0.11305 0.34609 0.07853 0.03000
C 	C 	0.14827 0.32807 0.06459 -0.00600
C 	C 	0.15577 0.29236 0.09449 -0.00800
C 	C 	0.17451 0.34465 0.01682 -0.01200
C 	C 	0.16535 0.37803 0.98086 -0.05100
C 	C 	0.12898 0.39413 0.98878 -0.02600
C 	C 	0.10344 0.37910 0.04041 -0.02900
H 	H 	0.07282 0.27929 0.18783 0.00600
H 	H 	0.06037 0.34355 0.13998 0.04300
H 	H 	0.18237 0.27800 0.08174 0.04300
H 	H 	0.20161 0.33098 0.00564 0.03600
H 	H 	0.18601 0.39039 0.94416 0.04300
H 	H 	0.07563 0.39176 0.04815 0.04500
C 	C 	0.36524 0.08955 0.39891 -0.11800
C 	C 	0.38317 0.09243 0.46664 -0.01200
C 	C 	0.37448 0.06626 0.52071 -0.06900
C 	C 	0.34667 0.03801 0.50813 -0.01400
C 	C 	0.33104 0.03305 0.43794 0.01100
C 	C 	0.34151 0.05815 0.38286 -0.03600
C 	C 	0.30257 0.00543 0.42585 -0.09300
C 	C 	0.28686 0.98590 0.48447 0.02900
C 	C 	0.30026 0.99309 0.55529 -0.13400
C 	C 	0.33192 0.01711 0.56599 -0.00500
H 	H 	0.40230 0.11611 0.47865 0.01500
H 	H 	0.38764 0.06943 0.57367 0.03400
H 	H 	0.32854 0.05543 0.32962 0.03500
H 	H 	0.29156 0.00018 0.37165 0.03900
H 	H 	0.26346 0.96632 0.47506 -0.09100
H 	H 	0.34355 0.02123 0.62013 0.03700
C 	C 	0.36142 0.25218 0.13913 -0.06600
C 	C 	0.38377 0.28313 0.16471 0.00800
C 	C 	0.36718 0.31930 0.17664 -0.06100
C 	C 	0.32871 0.32469 0.16030 0.02800
C 	C 	0.30908 0.29568 0.12053 0.00500
C 	C 	0.32704 0.26050 0.10495 -0.02000
C 	C 	0.27039 0.30001 0.10647 -0.04200
C 	C 	0.25039 0.33064 0.13818 -0.03000
C 	C 	0.26908 0.35882 0.18018 -0.00700
C 	C 	0.30862 0.35656 0.18937 -0.05200
H 	H 	0.41204 0.27792 0.18502 0.03700
H 	H 	0.38333 0.34198 0.20347 0.04600
H 	H 	0.31144 0.23764 0.07732 0.04700
H 	H 	0.25512 0.27803 0.07581 0.04200
H 	H 	0.21991 0.33108 0.13470 0.04200
H 	H 	0.32328 0.37845 0.22142 0.04900
C 	C 	0.65559 0.17535 0.42758 -0.05300
C 	C 	0.65476 0.13719 0.39953 0.10400
C 	C 	0.62966 0.11069 0.43022 -0.08600
C 	C 	0.60972 0.12000 0.49468 -0.00300
C 	C 	0.61666 0.15575 0.53068 0.06900
C 	C 	0.63769 0.18402 0.49456 -0.05600
N 	N 	0.67936 0.12541 0.34609 -0.19800
H 	H 	0.62634 0.08247 0.40488 0.05600
C 	C 	0.58157 0.09215 0.52345 -0.00300
N 	N 	0.60417 0.16265 0.60004 -0.19400
H 	H 	0.64025 0.21259 0.51874 0.04700
C 	C 	0.59381 0.05519 0.54036 -0.08400
C 	C 	0.56818 0.02789 0.56693 0.10600
C 	C 	0.52949 0.03776 0.57669 -0.05200
C 	C 	0.51736 0.07495 0.56148 -0.05100
C 	C 	0.54256 0.10163 0.53122 0.07000
H 	H 	0.62338 0.04752 0.53213 0.05900
N 	N 	0.58089 0.99228 0.58295 -0.19900
H 	H 	0.48758 0.08224 0.56808 0.04500
N 	N 	0.52885 0.13534 0.50665 -0.19300
H 	H 	0.60926 0.98483 0.57335 0.08700
H 	H 	0.56328 0.97227 0.60792 0.09000
H 	H 	0.50046 0.14283 0.51585 0.08000
H 	H 	0.54543 0.15331 0.47468 0.08900
H 	H 	0.60838 0.18949 0.62531 0.08100
H 	H 	0.59215 0.14087 0.63083 0.09000
H 	H 	0.70236 0.14250 0.33084 0.09400
H 	H 	0.67739 0.09773 0.32324 0.08700
C 	C 	0.60502 0.01355 0.74944 -0.04800
C 	C 	0.62207 0.97671 0.74386 0.09500
C 	C 	0.60026 0.94411 0.75911 -0.08800
C 	C 	0.56321 0.94774 0.78668 -0.00700
C 	C 	0.54620 0.98451 0.79267 0.07100
C 	C 	0.56689 0.01685 0.77123 -0.05100
N 	N 	0.65952 0.97249 0.72658 -0.20000
H 	H 	0.61303 0.91589 0.75401 0.05100
C 	C 	0.54426 0.91350 0.81652 -0.00600
N 	N 	0.51056 0.98909 0.82077 -0.19400
H 	H 	0.55371 0.04493 0.77431 0.05000
C 	C 	0.55599 0.89983 0.88381 -0.08800
C 	C 	0.53519 0.87105 0.91837 0.09800
C 	C 	0.49969 0.85947 0.88961 -0.04900
C 	C 	0.49037 0.86976 0.81836 -0.05800
C 	C 	0.51342 0.89558 0.78032 0.06800
H 	H 	0.58140 0.91147 0.90908 0.05100
N 	N 	0.55006 0.85349 0.97686 -0.21000
H 	H 	0.46452 0.85892 0.79358 0.04800
N 	N 	0.50584 0.90305 0.70960 -0.19400
H 	H 	0.57524 0.86357 0.00030 0.10300
H 	H 	0.53828 0.82809 0.99606 0.08700
H 	H 	0.48295 0.88971 0.68332 0.08600
H 	H 	0.52328 0.92111 0.67940 0.08800
H 	H 	0.49800 0.01623 0.82336 0.08700
H 	H 	0.49521 0.96612 0.84152 0.08900
H 	H 	0.67801 0.99584 0.72567 0.08400
H 	H 	0.67108 0.94514 0.71837 0.07700
C 	C 	0.66580 0.12811 0.85354 -0.05300
C 	C 	0.66849 0.11266 0.92415 0.10700
C 	C 	0.67015 0.13756 0.98511 -0.10900
C 	C 	0.67298 0.17730 0.97697 -0.02000
C 	C 	0.67330 0.19270 0.90632 0.06700
C 	C 	0.66902 0.16795 0.84527 -0.05400
N 	N 	0.67114 0.07417 0.93359 -0.20000
H 	H 	0.67085 0.12585 0.03926 0.07500
C 	C 	0.67810 0.20198 0.04306 0.01700
N 	N 	0.67723 0.23109 0.89675 -0.19600
H 	H 	0.66761 0.17980 0.79131 0.04600
C 	C 	0.71376 0.20276 0.07631 -0.09200
C 	C 	0.71727 0.21323 0.15026 0.10300
C 	C 	0.68489 0.22690 0.18950 -0.05200
C 	C 	0.65023 0.23065 0.15332 -0.04900
C 	C 	0.64636 0.21787 0.08060 0.06600
H 	H 	0.73824 0.19162 0.04652 0.05900
N 	N 	0.75115 0.20817 0.18383 -0.20000
H 	H 	0.62573 0.24193 0.18284 0.04900
N 	N 	0.61207 0.22040 0.04759 -0.18100
H 	H 	0.77509 0.19969 0.15355 0.08300
H 	H 	0.75381 0.21064 0.24023 0.09400
H 	H 	0.58852 0.23124 0.07629 0.08700
H 	H 	0.60862 0.21250 0.99284 0.07300
H 	H 	0.67727 0.24220 0.84440 0.07800
H 	H 	0.68036 0.25025 0.94088 0.07800
H 	H 	0.67564 0.05512 0.88982 0.09600
H 	H 	0.67126 0.06312 0.98598 0.08300
C 	C 	0.10162 0.28547 0.43218 -0.09400
C 	C 	0.11934 0.27066 0.49382 0.00900
C 	C 	0.15720 0.25889 0.48987 -0.05900
C 	C 	0.17792 0.26286 0.42499 -0.00400
C 	C 	0.16188 0.28304 0.36693 0.01200
C 	C 	0.12369 0.29434 0.37088 -0.03800
C 	C 	0.18330 0.28877 0.30351 -0.07000
C 	C 	0.21829 0.27054 0.29409 0.01400
C 	C 	0.23214 0.24635 0.34790 -0.09400
C 	C 	0.21321 0.24465 0.41526 -0.01500
H 	H 	0.10292 0.26523 0.54267 0.03800
H 	H 	0.16977 0.24506 0.53600 0.03000
H 	H 	0.11046 0.30731 0.32440 0.03000
H 	H 	0.17226 0.30606 0.26033 0.04500
H 	H 	0.23357 0.27332 0.24313 0.03900
H 	H 	0.22444 0.22695 0.45777 -0.00700
C 	C 	0.13695 0.02804 0.61198 -0.08500
C 	C 	0.10193 0.01807 0.58024 -0.00100
C 	C 	0.07764 0.04643 0.55563 -0.06500
C 	C 	0.08804 0.08517 0.56202 0.00800
C 	C 	0.12198 0.09561 0.59819 0.00400
C 	C 	0.14622 0.06691 0.62355 -0.03100
C 	C 	0.13210 0.13449 0.60522 -0.06400
C 	C 	0.11004 0.16247 0.57258 0.00500
C 	C 	0.07759 0.15191 0.53292 -0.07400
C 	C 	0.06595 0.11346 0.52967 -0.02700
H 	H 	0.09390 0.98821 0.57313 0.01700
H 	H 	0.05124 0.03816 0.52963 0.01300
H 	H 	0.17297 0.07475 0.64878 0.02200
H 	H 	0.15754 0.14298 0.63431 0.02400
H 	H 	0.11864 0.19229 0.57668 0.02800
H 	H 	0.04060 0.10542 0.49970 0.03100
C 	C 	0.88272 0.28483 0.49576 -0.06600
C 	C 	0.86224 0.26363 0.54720 0.01000
C 	C 	0.82281 0.25986 0.54169 -0.06100
C 	C 	0.80356 0.27697 0.48436 0.02800
C 	C 	0.82347 0.30157 0.43733 0.00300
C 	C 	0.86285 0.30630 0.44475 -0.01700
C 	C 	0.80434 0.31828 0.37947 -0.04100
C 	C 	0.76721 0.30698 0.36301 -0.02900
C 	C 	0.74878 0.27899 0.40455 -0.00900
C 	C 	0.76572 0.26703 0.46931 -0.05500
H 	H 	0.87704 0.24817 0.58876 0.03900
H 	H 	0.80764 0.24175 0.57932 0.04700
H 	H 	0.87838 0.32424 0.40725 0.04500
H 	H 	0.81887 0.33842 0.34480 0.04000
H 	H 	0.75352 0.31853 0.31576 0.04400
H 	H 	0.75055 0.24793 0.50505 0.04700
C 	C 	0.95941 0.04191 0.74996 -0.08800
C 	C 	0.94137 0.01365 0.79119 -0.00100
C 	C 	0.96223 0.98317 0.81832 -0.07400
C 	C 	0.00160 0.98114 0.80615 0.00500
C 	C 	0.02000 0.00981 0.76558 0.00600
C 	C 	0.99855 0.03943 0.73568 -0.03100
C 	C 	0.05968 0.00910 0.75738 -0.07300
C 	C 	0.08083 0.97967 0.78777 -0.00500
C 	C 	0.06244 0.94998 0.82456 -0.08400
C 	C 	0.02293 0.95122 0.83505 -0.02700
H 	H 	0.91118 0.01550 0.80269 -0.00500
H 	H 	0.94786 0.96149 0.84970 0.01500
H 	H 	0.01232 0.06083 0.70274 0.02700
H 	H 	0.07425 0.03174 0.72895 0.03500
H 	H 	0.11151 0.97999 0.78279 0.02300
H 	H 	0.00893 0.92917 0.86624 0.01300
C 	C 	0.99161 0.18397 0.65821 -0.11100
C 	C 	0.99709 0.22117 0.68694 -0.01800
C 	C 	0.02417 0.22797 0.74083 -0.06800
C 	C 	0.04533 0.19737 0.76731 -0.01600
C 	C 	0.04302 0.16088 0.73235 0.01400
C 	C 	0.01651 0.15457 0.67684 -0.03300
C 	C 	0.06398 0.13024 0.75918 -0.09300
C 	C 	0.08225 0.13420 0.82615 0.03400
C 	C 	0.08086 0.16930 0.86529 -0.14000
C 	C 	0.06516 0.20157 0.83280 -0.00400
H 	H 	0.97857 0.24424 0.67119 0.02200
H 	H 	0.02679 0.25643 0.76541 0.03400
H 	H 	0.01270 0.12600 0.65333 0.03600
H 	H 	0.06453 0.10286 0.73016 0.04200
H 	H 	0.09568 0.10950 0.84911 -0.09500
H 	H 	0.06586 0.22922 0.86123 0.03100
C 	C 	0.81007 0.12883 0.46527 -0.07100
C 	C 	0.78489 0.16001 0.46452 0.00700
C 	C 	0.74881 0.15650 0.49627 -0.06400
C 	C 	0.73702 0.12103 0.52304 0.03100
C 	C 	0.75869 0.08789 0.50608 0.00100
C 	C 	0.79458 0.09190 0.47307 -0.01900
C 	C 	0.74671 0.05223 0.53165 -0.04200
C 	C 	0.71631 0.05023 0.58089 -0.03200
C 	C 	0.69767 0.08387 0.60497 -0.00900
C 	C 	0.70684 0.11897 0.57330 -0.05200
H 	H 	0.79521 0.18811 0.44998 0.04000
H 	H 	0.73153 0.18177 0.50545 0.05000
H 	H 	0.81251 0.06691 0.46457 0.04000
H 	H 	0.76231 0.02639 0.51695 0.03200
H 	H 	0.70874 0.02285 0.60364 0.03300
H 	H 	0.69227 0.14491 0.59132 0.05000
C 	C 	0.99786 0.55875 0.16906 -0.04900
C 	C 	0.03542 0.56850 0.18946 0.10000
C 	C 	0.06439 0.54122 0.18032 -0.08500
C 	C 	0.05650 0.50424 0.15247 -0.00400
C 	C 	0.01890 0.49453 0.13197 0.07400
C 	C 	0.98980 0.52168 0.14203 -0.05300
N 	N 	0.04368 0.60356 0.21970 -0.19900
H 	H 	0.09306 0.54844 0.19700 0.05500
C 	C 	0.08709 0.47495 0.15261 -0.00400
N 	N 	0.01062 0.45943 0.10224 -0.19400
H 	H 	0.96088 0.51409 0.12768 0.04800
C 	C 	0.08490 0.44525 0.20270 -0.08700
C 	C 	0.11720 0.42364 0.21862 0.10200
C 	C 	0.15270 0.43395 0.18820 -0.04900
C 	C 	0.15400 0.46031 0.13183 -0.05100
C 	C 	0.12116 0.48036 0.11253 0.07600
H 	H 	0.05833 0.43972 0.23089 0.05400
N 	N 	0.11398 0.39284 0.26229 -0.19900
H 	H 	0.18083 0.46642 0.10504 0.05200
N 	N 	0.12249 0.50485 0.05610 -0.19300
H 	H 	0.08792 0.38607 0.28653 0.08400
H 	H 	0.13672 0.37414 0.26912 0.09100
H 	H 	0.14789 0.50931 0.02763 0.08900
H 	H 	0.09797 0.51820 0.03777 0.09600
H 	H 	0.98250 0.45167 0.09142 0.08800
H 	H 	0.03199 0.44018 0.08682 0.09200
H 	H 	0.02246 0.62349 0.23257 0.09000
H 	H 	0.07167 0.61081 0.23275 0.08400
C 	C 	0.84931 0.56163 0.86338 -0.05500
C 	C 	0.86192 0.52838 0.82468 0.10200
C 	C 	0.89733 0.51260 0.84112 -0.08900
C 	C 	0.91832 0.52704 0.90035 -0.00100
C 	C 	0.90265 0.55630 0.94611 0.05000
C 	C 	0.86859 0.57385 0.92640 -0.04800
N 	N 	0.83969 0.51094 0.77347 -0.19900
H 	H 	0.90846 0.48892 0.80809 0.05400
C 	C 	0.95753 0.51302 0.91100 -0.01000
N 	N 	0.92002 0.56754 0.00889 -0.18300
H 	H 	0.85804 0.59818 0.95840 0.04300
C 	C 	0.98824 0.53753 0.89658 -0.08500
C 	C 	0.02571 0.52406 0.89930 0.09600
C 	C 	0.03228 0.48457 0.90999 -0.05400
C 	C 	0.00165 0.46036 0.92650 -0.05400
C 	C 	0.96446 0.47462 0.93003 0.06400
H 	H 	0.98295 0.56727 0.88409 0.05300
N 	N 	0.05510 0.54928 0.89402 -0.19900
H 	H 	0.00677 0.43034 0.93691 0.04100
N 	N 	0.93569 0.45156 0.95275 -0.19500
H 	H 	0.05001 0.57809 0.88312 0.08100
H 	H 	0.08295 0.54111 0.90473 0.08400
H 	H 	0.94086 0.42286 0.96440 0.07200
H 	H 	0.90839 0.46227 0.96224 0.08000
H 	H 	0.90789 0.58878 0.04275 0.09400
H 	H 	0.94504 0.55465 0.02565 0.09700
H 	H 	0.81135 0.51886 0.76724 0.08900
H 	H 	0.84993 0.48757 0.74247 0.08200
C 	C 	0.80062 0.62741 0.65176 -0.05100
C 	C 	0.81962 0.65986 0.62371 0.10000
C 	C 	0.83198 0.65912 0.55073 -0.08600
C 	C 	0.82678 0.62629 0.50626 -0.00600
C 	C 	0.80463 0.59546 0.53216 0.07000
C 	C 	0.79103 0.59679 0.60433 -0.05200
N 	N 	0.82713 0.69121 0.66686 -0.20000
H 	H 	0.84773 0.68331 0.52979 0.05300
C 	C 	0.84936 0.62228 0.43789 -0.00500
N 	N 	0.79702 0.56424 0.48875 -0.19400
H 	H 	0.77535 0.57253 0.62522 0.04600
C 	C 	0.88801 0.61320 0.44244 -0.08600
C 	C 	0.91152 0.61353 0.38036 0.10100
C 	C 	0.89515 0.61879 0.31105 -0.05000
C 	C 	0.85626 0.62708 0.30623 -0.05300
C 	C 	0.83335 0.62987 0.36923 0.06900
H 	H 	0.90028 0.60797 0.49524 0.05500
N 	N 	0.94982 0.61098 0.38819 -0.19800
H 	H 	0.84385 0.63173 0.25334 0.04900
N 	N 	0.79615 0.63965 0.36334 -0.19500
H 	H 	0.96138 0.60441 0.43859 0.08500
H 	H 	0.96849 0.61842 0.34640 0.09200
H 	H 	0.78458 0.64503 0.31239 0.08400
H 	H 	0.77838 0.64215 0.40900 0.08800
H 	H 	0.78124 0.54131 0.50882 0.08200
H 	H 	0.80616 0.56259 0.43455 0.08900
H 	H 	0.81775 0.69319 0.72080 0.09400
H 	H 	0.84206 0.71452 0.64602 0.08200
C 	C 	0.91243 0.96860 0.02371 -0.05800
C 	C 	0.94616 0.94800 0.01155 0.01800
C 	C 	0.98138 0.96645 0.01754 -0.05500
C 	C 	0.98329 0.00559 0.03735 0.02400
C 	C 	0.94950 0.02600 0.05305 0.01200
C 	C 	0.91419 0.00737 0.04623 -0.02100
C 	C 	0.95136 0.06504 0.07325 -0.06000
C 	C 	0.98644 0.08392 0.07667 0.00500
C 	C 	0.02022 0.06404 0.05983 -0.07800
C 	C 	0.01852 0.02465 0.04080 -0.01700
H 	H 	0.94503 0.91819 0.99345 -0.00100
H 	H 	0.00713 0.95041 0.00580 0.03800
H 	H 	0.88811 0.02336 0.05532 0.04400
H 	H 	0.92562 0.08089 0.08608 0.03800
H 	H 	0.98726 0.11412 0.09186 0.02900
H 	H 	0.04441 0.00893 0.02852 0.04600
C 	C 	0.76301 0.99671 0.91418 -0.10400
C 	C 	0.73950 0.00400 0.85498 0.00200
C 	C 	0.74307 0.03831 0.81797 -0.06800
C 	C 	0.77071 0.06523 0.83914 0.00600
C 	C 	0.79158 0.05978 0.90355 0.00900
C 	C 	0.78620 0.02612 0.94273 -0.02400
C 	C 	0.82143 0.08505 0.92130 -0.07300
C 	C 	0.83420 0.11136 0.87019 0.01800
C 	C 	0.81652 0.11304 0.80217 -0.10800
C 	C 	0.78196 0.09381 0.79125 -0.00800
H 	H 	0.72046 0.98190 0.83441 0.02200
H 	H 	0.72635 0.04262 0.76965 0.04300
H 	H 	0.80337 0.02092 0.99024 0.04100
H 	H 	0.83687 0.08201 0.97163 0.03400
H 	H 	0.85992 0.12763 0.88066 -0.03500
H 	H 	0.76699 0.09706 0.74034 0.04200
C 	C 	0.90012 0.84528 0.86464 -0.13500
C 	C 	0.91778 0.87446 0.82513 0.03800
C 	C 	0.95533 0.87017 0.80100 -0.09600
C 	C 	0.97596 0.83734 0.81862 0.01800
C 	C 	0.95739 0.80676 0.85344 -0.00900
C 	C 	0.91918 0.81044 0.87399 0.00100
C 	C 	0.97806 0.77418 0.87228 -0.06000
C 	C 	0.01740 0.77341 0.86254 -0.00100
C 	C 	0.03622 0.80467 0.83195 -0.11400
C 	C 	0.01533 0.83580 0.80681 -0.04100
H 	H 	0.90316 0.90103 0.81579 -0.09700
H 	H 	0.96881 0.89304 0.77127 0.03900
H 	H 	0.90511 0.78729 0.90216 0.03500
H 	H 	0.96392 0.75020 0.89754 0.04100
H 	H 	0.03343 0.74912 0.88117 0.02300
H 	H 	0.02999 0.85973 0.78227 0.03200
C 	C 	0.75614 0.78918 0.04451 -0.08600
C 	C 	0.78504 0.76740 0.07568 0.01300
C 	C 	0.79089 0.72934 0.05226 -0.04300
C 	C 	0.76789 0.71298 0.99758 0.01500
C 	C 	0.73539 0.73289 0.97472 -0.03200
C 	C 	0.72849 0.77021 0.00209 0.04500
C 	C 	0.71304 0.71725 0.91835 -0.02800
C 	C 	0.72513 0.68437 0.87968 -0.03500
C 	C 	0.75912 0.66624 0.89827 -0.00800
C 	C 	0.77916 0.67923 0.96017 -0.05200
H 	H 	0.80532 0.78100 0.11211 0.04000
H 	H 	0.81496 0.71368 0.07262 0.04400
H 	H 	0.70461 0.78632 0.98196 0.01400
H 	H 	0.68749 0.73176 0.90168 0.03300
H 	H 	0.70878 0.67379 0.83365 0.04200
H 	H 	0.80505 0.66486 0.97561 0.04200
C 	C 	0.12716 0.97398 0.32785 -0.10600
C 	C 	0.11509 0.00723 0.36597 0.00900
C 	C 	0.13743 0.04035 0.36640 -0.07300
C 	C 	0.17298 0.04021 0.33139 0.01200
C 	C 	0.18682 0.00602 0.29808 -0.00000
C 	C 	0.16351 0.97303 0.29532 -0.02400
C 	C 	0.22342 0.00554 0.26682 -0.05700
C 	C 	0.24560 0.03909 0.26678 -0.00200
C 	C 	0.23155 0.07335 0.29852 -0.07700
C 	C 	0.19493 0.07381 0.32983 -0.02400
H 	H 	0.08754 0.00791 0.39276 -0.02000
H 	H 	0.12700 0.06617 0.39384 0.03800
H 	H 	0.17338 0.94705 0.26757 0.03300
H 	H 	0.23463 0.97936 0.24208 0.03600
H 	H 	0.27383 0.03825 0.24295 0.03300
H 	H 	0.18379 0.10021 0.35402 0.03600
C 	C 	0.01040 0.00896 0.23867 -0.12300
C 	C 	0.04440 0.02938 0.24819 -0.00200
C 	C 	0.04377 0.06831 0.26801 -0.05800
C 	C 	0.00899 0.08742 0.27692 -0.01000
C 	C 	0.97470 0.06748 0.26263 0.01600
C 	C 	0.97558 0.02815 0.24423 -0.02400
C 	C 	0.94003 0.08697 0.26855 -0.07200
C 	C 	0.93913 0.12512 0.29358 0.02600
C 	C 	0.97283 0.14416 0.31350 -0.12400
C 	C 	0.00789 0.12570 0.30263 -0.00100
H 	H 	0.07130 0.01493 0.24106 0.02400
H 	H 	0.07031 0.08348 0.27694 0.03100
H 	H 	0.94935 0.01256 0.23424 0.02900
H 	H 	0.91366 0.07234 0.25548 0.04400
H 	H 	0.91201 0.13940 0.30066 0.03100
H 	H 	0.03394 0.14015 0.31836 -0.06600
C 	C 	0.04919 0.84347 0.43943 -0.10400
C 	C 	0.07475 0.81283 0.44521 0.02000
C 	C 	0.10081 0.81265 0.50210 -0.07000
C 	C 	0.10125 0.84304 0.55351 0.01900
C 	C 	0.07163 0.87040 0.55413 -0.00600
C 	C 	0.04473 0.86944 0.49839 -0.00600
C 	C 	0.07231 0.90116 0.60453 -0.05800
C 	C 	0.10434 0.90756 0.64712 0.01200
C 	C 	0.13534 0.88240 0.64208 -0.09900
C 	C 	0.13282 0.84894 0.59854 -0.02800
H 	H 	0.07656 0.79095 0.40238 0.03400
H 	H 	0.12222 0.79041 0.50317 0.04300
H 	H 	0.02313 0.89151 0.49672 -0.04100
H 	H 	0.04936 0.92182 0.60670 0.02000
H 	H 	0.10644 0.93377 0.67924 0.04400
H 	H 	0.15640 0.82898 0.59608 0.03400
C 	C 	0.00586 0.81223 0.07164 -0.12700
C 	C 	0.03553 0.78632 0.05594 -0.00300
C 	C 	0.02803 0.74697 0.05060 -0.06400
C 	C 	0.99086 0.73342 0.06073 0.03300
C 	C 	0.96040 0.75975 0.06382 -0.00100
C 	C 	0.96812 0.79929 0.06608 0.00100
C 	C 	0.92322 0.74622 0.07397 -0.03700
C 	C 	0.91698 0.70795 0.09191 -0.02700
C 	C 	0.94787 0.68287 0.09884 -0.00600
C 	C 	0.98428 0.69480 0.07676 -0.05300
H 	H 	0.06469 0.79623 0.05446 -0.01800
H 	H 	0.05141 0.72702 0.04386 0.04800
H 	H 	0.94497 0.81963 0.07205 0.04500
H 	H 	0.89940 0.76582 0.07273 0.04900
H 	H 	0.88843 0.69839 0.10457 0.04200
H 	H 	0.00798 0.67508 0.07884 0.05100
