data_crystal

_cell_length_a 46.59221
_cell_length_b 48.00871
_cell_length_c 29.06533
_cell_angle_alpha 89.57371
_cell_angle_beta  89.99998
_cell_angle_gamma 90.00011

_symmetry_space_group_name_	'P 1'
_symmetry_space_group_name_H-M	'P 1'

loop_
_symmetry_equiv_pos_as_xyz
  x,y,z

loop_
_atom_site_label
_atom_site_type_symbol
_atom_site_fract_x
_atom_site_fract_y
_atom_site_fract_z
_atom_site_charge
C 	C 	0.47483 0.55494 0.87938 0.10000
N 	N 	0.46492 0.53060 0.89632 -0.17200
C 	C 	0.43792 0.52777 0.88048 0.10000
C 	C 	0.41696 0.50837 0.90178 -0.07400
C 	C 	0.42590 0.47980 0.91448 0.08800
C 	C 	0.38655 0.51664 0.90707 0.04000
C 	C 	0.37925 0.53967 0.93411 -0.05500
C 	C 	0.35047 0.54729 0.93937 -0.03600
C 	C 	0.32876 0.53181 0.91788 0.01100
C 	C 	0.36486 0.50118 0.88560 -0.05300
N 	N 	0.44913 0.46728 0.89629 -0.12800
C 	C 	0.41610 0.46558 0.95294 -0.06200
C 	C 	0.45368 0.44460 0.92289 0.08800
C 	C 	0.47990 0.42743 0.91996 -0.07700
C 	C 	0.47805 0.39733 0.93023 0.04100
C 	C 	0.46580 0.35054 0.90615 -0.03600
C 	C 	0.48289 0.38747 0.97508 -0.05800
C 	C 	0.47852 0.35933 0.98574 -0.03900
C 	C 	0.46961 0.34078 0.95142 0.01100
N 	N 	0.51563 0.46537 0.90964 -0.17200
C 	C 	0.54349 0.46652 0.89738 0.09900
C 	C 	0.55231 0.44114 0.87986 -0.06300
C 	C 	0.52868 0.42378 0.88167 -0.06400
C 	C 	0.56331 0.48831 0.91435 -0.07600
C 	C 	0.59388 0.48176 0.92251 0.04000
C 	C 	0.64393 0.48713 0.90130 -0.03700
C 	C 	0.65210 0.47072 0.93927 0.01000
C 	C 	0.63098 0.45959 0.96855 -0.03700
C 	C 	0.60195 0.46508 0.96016 -0.05600
N 	N 	0.53178 0.52787 0.89191 -0.12900
C 	C 	0.54421 0.55869 0.94658 -0.06200
C 	C 	0.52639 0.55320 0.90967 0.08700
C 	C 	0.50019 0.56928 0.89877 -0.07500
C 	C 	0.50024 0.59989 0.90416 0.03900
C 	C 	0.52041 0.61620 0.88032 -0.05400
C 	C 	0.52158 0.64494 0.88731 -0.03700
C 	C 	0.50256 0.65764 0.91817 0.01000
C 	C 	0.48207 0.64139 0.94148 -0.03700
C 	C 	0.48092 0.61261 0.93449 -0.05600
C 	C 	0.45413 0.56780 0.85239 -0.06400
C 	C 	0.43050 0.55041 0.85306 -0.06300
C 	C 	0.33610 0.50868 0.89108 -0.03700
C 	C 	0.43394 0.44293 0.95831 -0.06200
C 	C 	0.50653 0.43940 0.90014 0.09900
C 	C 	0.56174 0.53576 0.95132 -0.06200
C 	C 	0.55362 0.51753 0.91716 0.08800
C 	C 	0.61495 0.49268 0.89305 -0.05400
H 	H 	0.47271 0.52097 0.92618 0.09100
H 	H 	0.50618 0.47832 0.93412 0.09200
H 	H 	0.53751 0.65729 0.86923 0.03900
H 	H 	0.46721 0.65102 0.96521 0.03700
H 	H 	0.53533 0.60656 0.85670 0.04600
H 	H 	0.46528 0.60017 0.95304 0.04200
H 	H 	0.34504 0.56525 0.95998 0.03700
H 	H 	0.37030 0.48338 0.86464 0.04600
H 	H 	0.31950 0.49649 0.87459 0.04000
H 	H 	0.39585 0.55164 0.95099 0.04200
H 	H 	0.48148 0.35206 0.02080 0.04100
H 	H 	0.48935 0.40173 0.00189 0.04500
C 	C 	0.46976 0.37874 0.89573 -0.05500
H 	H 	0.45933 0.33636 0.87925 0.03900
H 	H 	0.66005 0.49560 0.87826 0.03900
H 	H 	0.60886 0.50547 0.86377 0.04600
H 	H 	0.58577 0.45657 0.98306 0.04300
H 	H 	0.63707 0.44692 0.99796 0.03700
H 	H 	0.45332 0.58988 0.84464 0.04800
H 	H 	0.40876 0.55706 0.84580 0.04800
H 	H 	0.40357 0.47477 0.98029 0.04600
H 	H 	0.43729 0.43186 0.99044 0.04500
H 	H 	0.57432 0.43395 0.87861 0.04800
H 	H 	0.52984 0.40127 0.88224 0.04800
H 	H 	0.53937 0.57316 0.97391 0.04600
H 	H 	0.57267 0.52984 0.98277 0.04600
H 	H 	0.46611 0.38621 0.86095 0.04600
Co	Co	0.41653 0.08792 0.00050 1.18000
Co	Co	0.42764 0.02368 0.00680 1.09000
O 	O 	0.40633 0.12904 0.00076 -0.38000
O 	O 	0.44906 0.12212 0.02452 -0.32400
O 	O 	0.38245 0.06903 0.97526 -0.42300
O 	O 	0.42756 0.03660 0.94171 -0.46600
C 	C 	0.36980 0.04848 0.99755 0.31500
C 	C 	0.42927 0.14031 0.01666 0.30200
O 	O 	0.38504 0.02974 0.01999 -0.44300
O 	O 	0.44322 0.08115 0.95079 -0.43900
C 	C 	0.44319 0.05775 0.92771 0.30800
O 	O 	0.41090 0.07830 0.06414 -0.44000
O 	O 	0.44487 0.04478 0.05829 -0.48800
C 	C 	0.42875 0.06091 0.08380 0.31900
S 	S 	0.53411 0.98673 0.44718 -0.00700
C 	C 	0.52151 0.99391 0.39308 -0.01600
C 	C 	0.50167 0.01606 0.39321 -0.01500
S 	S 	0.49699 0.02917 0.44725 -0.00900
C 	C 	0.51745 0.00937 0.48230 -0.00800
C 	C 	0.53070 0.02033 0.52418 -0.00700
S 	S 	0.51319 0.04198 0.55977 -0.00800
C 	C 	0.52611 0.03522 0.61376 -0.01600
C 	C 	0.54650 0.01351 0.61336 -0.01500
S 	S 	0.55163 0.00087 0.55899 -0.00800
C 	C 	0.48675 0.05181 0.74284 0.00500
C 	C 	0.47769 0.02900 0.71677 -0.04100
C 	C 	0.48918 0.02456 0.67306 -0.04500
C 	C 	0.51000 0.04281 0.65528 0.02000
C 	C 	0.51827 0.06619 0.68064 -0.04600
C 	C 	0.50696 0.07049 0.72455 -0.04000
H 	H 	0.46221 0.01440 0.73081 0.03300
H 	H 	0.48285 0.00632 0.65383 0.03900
H 	H 	0.53444 0.08030 0.66723 0.04000
H 	H 	0.51418 0.08808 0.74461 0.03800
C 	C 	0.56025 0.97292 0.74211 0.00300
C 	C 	0.56890 0.00065 0.73580 -0.03800
C 	C 	0.56716 0.01309 0.69233 -0.04300
C 	C 	0.55545 0.99832 0.65529 0.02000
C 	C 	0.54849 0.97004 0.66098 -0.04600
C 	C 	0.55153 0.95723 0.70407 -0.03700
H 	H 	0.57633 0.01274 0.76480 0.03700
H 	H 	0.57346 0.03466 0.68795 0.04100
H 	H 	0.53973 0.95830 0.63257 0.04100
H 	H 	0.54639 0.93537 0.70813 0.03700
C 	C 	0.53314 0.94900 0.26870 0.00400
C 	C 	0.50706 0.94690 0.29256 -0.03900
C 	C 	0.50360 0.96045 0.33459 -0.04500
C 	C 	0.52645 0.97554 0.35356 0.01900
C 	C 	0.55331 0.97539 0.33179 -0.04700
C 	C 	0.55661 0.96227 0.28934 -0.03900
H 	H 	0.48915 0.93579 0.27764 0.03400
H 	H 	0.48291 0.96004 0.35161 0.04000
H 	H 	0.57117 0.98669 0.34652 0.04100
H 	H 	0.57701 0.96350 0.27154 0.03900
C 	C 	0.46314 0.04938 0.27080 0.00300
C 	C 	0.49261 0.04343 0.27186 -0.04000
C 	C 	0.50547 0.03398 0.31244 -0.04500
C 	C 	0.48866 0.02860 0.35159 0.01900
C 	C 	0.45926 0.03494 0.35081 -0.04600
C 	C 	0.44661 0.04556 0.31073 -0.04000
H 	H 	0.50538 0.04531 0.24093 0.03500
H 	H 	0.52840 0.03038 0.31317 0.04100
H 	H 	0.44609 0.03112 0.38091 0.04000
H 	H 	0.42382 0.05002 0.31026 0.03600
Co	Co	0.58117 0.89987 0.00335 1.17900
Co	Co	0.51651 0.91597 0.99445 1.08700
O 	O 	0.62330 0.88874 0.00284 -0.38400
O 	O 	0.61813 0.93290 0.00141 -0.33200
O 	O 	0.55940 0.86476 0.00876 -0.42200
O 	O 	0.52518 0.90297 0.05807 -0.47100
C 	C 	0.53820 0.85882 0.98054 0.31100
C 	C 	0.63605 0.91248 0.00098 0.30300
O 	O 	0.52300 0.87897 0.96154 -0.44100
O 	O 	0.57234 0.91534 0.06285 -0.43900
C 	C 	0.54687 0.91291 0.08162 0.31000
O 	O 	0.57428 0.90780 0.93919 -0.43900
O 	O 	0.54212 0.94096 0.95852 -0.49000
C 	C 	0.55993 0.93037 0.92836 0.31800
Co	Co	0.06960 0.60189 0.95009 1.17800
Co	Co	0.00259 0.59615 0.95436 1.08900
O 	O 	0.11283 0.60710 0.95144 -0.39000
O 	O 	0.10134 0.56712 0.92554 -0.32600
O 	O 	0.05375 0.63761 0.97147 -0.42700
O 	O 	0.02055 0.57402 0.90453 -0.49100
C 	C 	0.03252 0.65000 0.94956 0.31500
C 	C 	0.12200 0.58402 0.93485 0.30200
O 	O 	0.01225 0.63509 0.93020 -0.44600
O 	O 	0.05680 0.60364 0.88717 -0.44000
C 	C 	0.03698 0.58621 0.87369 0.31800
O 	O 	0.06311 0.57963 0.00473 -0.44100
O 	O 	0.01904 0.59890 0.01714 -0.46400
C 	C 	0.04045 0.58314 0.03092 0.31000
S 	S 	0.02677 0.51077 0.50772 -0.00700
C 	C 	0.01809 0.50150 0.56300 -0.01600
C 	C 	0.00092 0.47732 0.56431 -0.01500
S 	S 	0.99440 0.46484 0.51033 -0.00800
C 	C 	0.01068 0.48713 0.47372 -0.00800
C 	C 	0.02266 0.47827 0.42951 -0.00700
S 	S 	0.00749 0.45303 0.39778 -0.00700
C 	C 	0.01441 0.46132 0.34156 -0.01600
C 	C 	0.02974 0.48657 0.33783 -0.01500
S 	S 	0.03622 0.50087 0.39067 -0.00800
C 	C 	0.97223 0.43592 0.21955 0.00200
C 	C 	0.96272 0.45969 0.24277 -0.03800
C 	C 	0.97467 0.46666 0.28513 -0.04400
C 	C 	0.99680 0.45035 0.30388 0.02000
C 	C 	0.00426 0.42514 0.28300 -0.04700
C 	C 	0.99145 0.41760 0.24139 -0.03800
H 	H 	0.94670 0.47316 0.22745 0.03400
H 	H 	0.96792 0.48557 0.30212 0.04100
H 	H 	0.02070 0.41197 0.29802 0.04000
H 	H 	0.99732 0.39817 0.22529 0.03600
C 	C 	0.03197 0.52865 0.20772 0.00300
C 	C 	0.04744 0.50388 0.21426 -0.04000
C 	C 	0.04762 0.49070 0.25730 -0.04500
C 	C 	0.03259 0.50236 0.29432 0.02000
C 	C 	0.01750 0.52741 0.28794 -0.04600
C 	C 	0.01713 0.54046 0.24474 -0.03800
H 	H 	0.05908 0.49471 0.18587 0.03500
H 	H 	0.05896 0.47116 0.26168 0.03900
H 	H 	0.00537 0.53630 0.31602 0.04000
H 	H 	0.00528 0.55968 0.24002 0.03600
C 	C 	0.02837 0.54722 0.68698 0.00400
C 	C 	0.00185 0.54749 0.66415 -0.04000
C 	C 	0.99875 0.53376 0.62219 -0.04500
C 	C 	0.02231 0.52011 0.60243 0.01900
C 	C 	0.04936 0.52188 0.62336 -0.04700
C 	C 	0.05238 0.53533 0.66560 -0.03900
H 	H 	0.98339 0.55733 0.67980 0.03300
H 	H 	0.97786 0.53283 0.60592 0.04000
H 	H 	0.06772 0.51166 0.60806 0.04100
H 	H 	0.07305 0.53546 0.68264 0.03900
C 	C 	0.96214 0.44569 0.68773 0.00300
C 	C 	0.99154 0.45202 0.68676 -0.04000
C 	C 	0.00443 0.46113 0.64599 -0.04500
C 	C 	0.98776 0.46551 0.60638 0.01900
C 	C 	0.95841 0.45891 0.60716 -0.04600
C 	C 	0.94573 0.44877 0.64753 -0.04000
H 	H 	0.00423 0.45058 0.71781 0.03500
H 	H 	0.02728 0.46527 0.64544 0.04100
H 	H 	0.94530 0.46216 0.57681 0.04100
H 	H 	0.92299 0.44406 0.64794 0.03700
Co	Co	0.91064 0.40488 0.95464 1.17800
Co	Co	0.92182 0.46865 0.95233 1.08900
O 	O 	0.90140 0.36357 0.95276 -0.38500
O 	O 	0.94416 0.37171 0.93040 -0.32600
O 	O 	0.87596 0.42284 0.97968 -0.43100
O 	O 	0.92036 0.45567 0.01748 -0.46800
C 	C 	0.86375 0.44418 0.95877 0.31400
C 	C 	0.92479 0.35295 0.93726 0.30300
O 	O 	0.87952 0.46272 0.93680 -0.44800
O 	O 	0.93671 0.41159 0.00505 -0.44300
C 	C 	0.93387 0.43324 0.03187 0.31200
O 	O 	0.90599 0.41545 0.89129 -0.44000
O 	O 	0.94004 0.44853 0.90059 -0.48600
C 	C 	0.92435 0.43302 0.87340 0.31800
C 	C 	0.98890 0.94561 0.09103 0.10000
N 	N 	0.97541 0.96989 0.08247 -0.17300
C 	C 	0.94990 0.96852 0.10411 0.10000
C 	C 	0.92538 0.98642 0.09075 -0.07500
C 	C 	0.92966 0.01672 0.08408 0.08700
C 	C 	0.89667 0.97409 0.08334 0.03900
C 	C 	0.89253 0.95441 0.04851 -0.05500
C 	C 	0.86506 0.94405 0.03962 -0.03800
C 	C 	0.84154 0.95327 0.06555 0.01100
C 	C 	0.87325 0.98292 0.10980 -0.05400
N 	N 	0.95357 0.03002 0.09814 -0.12900
C 	C 	0.91489 0.03247 0.05179 -0.06200
C 	C 	0.95362 0.05460 0.07542 0.08700
C 	C 	0.97923 0.07272 0.07244 -0.07400
C 	C 	0.97615 0.10174 0.05600 0.03500
C 	C 	0.95705 0.14827 0.06614 -0.04000
C 	C 	0.98738 0.10970 0.01314 -0.04400
C 	C 	0.98305 0.13676 0.99642 -0.04800
C 	C 	0.96766 0.15612 0.02272 0.01600
N 	N 	0.01893 0.03839 0.07396 -0.17200
C 	C 	0.04739 0.04000 0.08191 0.09800
C 	C 	0.05420 0.06529 0.10186 -0.06300
C 	C 	0.02866 0.07963 0.10625 -0.06300
C 	C 	0.06849 0.02152 0.05907 -0.07500
C 	C 	0.09873 0.03020 0.05414 0.04000
C 	C 	0.14677 0.03272 0.08600 -0.03600
C 	C 	0.15786 0.03871 0.04209 0.00900
C 	C 	0.13901 0.04178 0.00467 -0.03400
C 	C 	0.10952 0.03776 0.01079 -0.05200
N 	N 	0.04288 0.97726 0.07545 -0.12900
C 	C 	0.05029 0.95521 0.00831 -0.06000
C 	C 	0.03688 0.95433 0.05076 0.08700
C 	C 	0.01281 0.93550 0.06211 -0.07500
C 	C 	0.01318 0.90645 0.04558 0.03900
C 	C 	0.03674 0.88920 0.05537 -0.05300
C 	C 	0.03763 0.86208 0.03842 -0.03800
C 	C 	0.01493 0.85192 0.01166 0.01400
C 	C 	0.99124 0.86907 0.00213 -0.03500
C 	C 	0.99041 0.89628 0.01891 -0.05600
C 	C 	0.97202 0.92855 0.11854 -0.06300
C 	C 	0.94705 0.94320 0.12691 -0.06300
C 	C 	0.84579 0.97254 0.10096 -0.03700
C 	C 	0.93025 0.05675 0.04627 -0.06200
C 	C 	0.00745 0.06248 0.08871 0.10000
C 	C 	0.06568 0.97969 0.00715 -0.05900
C 	C 	0.06079 0.99242 0.04889 0.08800
C 	C 	0.11737 0.02819 0.09188 -0.05400
H 	H 	0.97949 0.98248 0.05371 0.09100
H 	H 	0.00964 0.02583 0.04880 0.09200
H 	H 	0.05591 0.84890 0.04619 0.04000
H 	H 	0.97360 0.86137 0.98153 0.03600
H 	H 	0.05435 0.89684 0.07608 0.04500
H 	H 	0.97219 0.90950 0.01098 0.04300
H 	H 	0.86199 0.92909 0.01233 0.03900
H 	H 	0.87629 0.99803 0.13686 0.04600
H 	H 	0.82776 0.97981 0.12111 0.04000
H 	H 	0.91052 0.94748 0.02792 0.04300
H 	H 	0.99129 0.14257 0.96285 0.04000
H 	H 	0.99904 0.09479 0.99248 0.03800
C 	C 	0.96115 0.12115 0.08258 -0.05100
H 	H 	0.94546 0.16314 0.08696 0.04000
H 	H 	0.16103 0.03084 0.11530 0.03800
H 	H 	0.10916 0.02251 0.12554 0.04600
H 	H 	0.09520 0.03965 0.98158 0.03900
H 	H 	0.14728 0.04647 0.97064 0.03500
H 	H 	0.97382 0.90609 0.12057 0.04800
H 	H 	0.92680 0.93366 0.13624 0.04800
H 	H 	0.90051 0.02402 0.02618 0.04700
H 	H 	0.92940 0.06987 0.01584 0.04700
H 	H 	0.07509 0.07510 0.10043 0.04800
H 	H 	0.02710 0.10207 0.10879 0.04800
H 	H 	0.04297 0.94424 0.97809 0.04300
H 	H 	0.07211 0.99042 0.97593 0.04100
H 	H 	0.95257 0.11518 0.11586 0.04500
C 	C 	0.94429 0.26751 0.96063 0.06400
N 	N 	0.96502 0.28743 0.96461 -0.12500
C 	C 	0.95941 0.31478 0.95581 0.06800
C 	C 	0.93171 0.32322 0.94298 -0.11100
C 	C 	0.91030 0.30308 0.93773 0.03300
C 	C 	0.91658 0.27513 0.94623 -0.07900
H 	H 	0.97632 0.33003 0.95996 0.02900
H 	H 	0.88883 0.30906 0.92734 0.02900
H 	H 	0.89998 0.25956 0.94203 0.05600
C 	C 	0.96206 0.18437 0.00442 -0.01500
C 	C 	0.98481 0.20178 0.99153 -0.02400
C 	C 	0.97916 0.22878 0.97598 -0.05400
C 	C 	0.95067 0.23831 0.97391 0.04800
N 	N 	0.92882 0.22084 0.98605 -0.11700
C 	C 	0.93386 0.19432 0.00077 0.02400
H 	H 	0.00678 0.19454 0.99404 0.03400
H 	H 	0.99678 0.24221 0.96589 0.04900
H 	H 	0.91595 0.18103 0.00998 0.03000
C 	C 	0.92943 0.43344 0.82355 -0.11300
C 	C 	0.91833 0.45508 0.79548 0.06800
C 	C 	0.92783 0.45764 0.74986 -0.08400
C 	C 	0.94793 0.43889 0.73194 0.00500
C 	C 	0.95588 0.41510 0.75811 0.00300
C 	C 	0.94690 0.41289 0.80414 -0.00500
H 	H 	0.92021 0.47481 0.72869 0.04500
H 	H 	0.95365 0.39522 0.82492 0.03900
C 	C 	0.89518 0.47463 0.81277 -0.11600
C 	C 	0.97188 0.39097 0.73654 -0.09600
C 	C 	0.86516 0.46616 0.79599 -0.01100
H 	H 	0.86493 0.46481 0.75782 0.02600
H 	H 	0.84967 0.48265 0.80596 0.02300
C 	C 	0.00238 0.38812 0.75609 -0.02400
H 	H 	0.00136 0.38304 0.79343 0.03200
H 	H 	0.01428 0.40800 0.75198 0.03000
H 	H 	0.89516 0.47647 0.85077 0.03400
H 	H 	0.97281 0.39299 0.69846 0.05100
C 	C 	0.85500 0.43849 0.81658 -0.16600
C 	C 	0.01910 0.36514 0.73188 -0.15800
H 	H 	0.85572 0.43913 0.85470 0.07700
H 	H 	0.83251 0.43453 0.80584 0.06200
H 	H 	0.86853 0.42104 0.80419 0.07400
H 	H 	0.89969 0.49599 0.79964 0.03600
H 	H 	0.00795 0.34482 0.73601 0.05900
H 	H 	0.04086 0.36337 0.74721 0.05700
H 	H 	0.02139 0.37009 0.69466 0.05800
H 	H 	0.95980 0.37145 0.74384 0.04900
C 	C 	0.94400 0.43160 0.07964 -0.11700
C 	C 	0.92502 0.42480 0.11599 0.08200
C 	C 	0.93524 0.42448 0.16142 -0.09000
C 	C 	0.96379 0.43155 0.17115 0.00800
C 	C 	0.98293 0.43783 0.13454 -0.00100
C 	C 	0.97283 0.43744 0.08908 -0.00600
H 	H 	0.92073 0.41945 0.18944 0.04900
H 	H 	0.98738 0.44226 0.06099 0.02100
C 	C 	0.89379 0.41769 0.10680 -0.12600
C 	C 	0.01425 0.44474 0.14325 -0.09500
C 	C 	0.88977 0.38730 0.09182 -0.01000
H 	H 	0.90339 0.38267 0.06149 0.03500
H 	H 	0.86705 0.38437 0.08124 0.03000
C 	C 	0.03338 0.41904 0.13710 -0.02400
H 	H 	0.03312 0.41264 0.10041 0.03200
H 	H 	0.02521 0.40135 0.15812 0.03200
H 	H 	0.88055 0.42161 0.13795 0.05200
H 	H 	0.01751 0.45378 0.17788 0.05100
C 	C 	0.89659 0.36646 0.13032 -0.16200
C 	C 	0.06430 0.42510 0.15127 -0.15800
H 	H 	0.88389 0.37122 0.16163 0.05900
H 	H 	0.89105 0.34512 0.11885 0.06200
H 	H 	0.91983 0.36691 0.13880 0.06600
H 	H 	0.88487 0.43172 0.07983 0.06600
H 	H 	0.07318 0.44255 0.13039 0.05600
H 	H 	0.07771 0.40631 0.14566 0.05700
H 	H 	0.06527 0.43061 0.18831 0.05700
H 	H 	0.02133 0.46108 0.11841 0.04200
C 	C 	0.02469 0.73803 0.95860 0.06400
N 	N 	0.00112 0.72177 0.95181 -0.12200
C 	C 	0.00333 0.69366 0.94714 0.06900
C 	C 	0.03024 0.68063 0.95008 -0.12100
C 	C 	0.05477 0.69706 0.95595 0.03700
C 	C 	0.05203 0.72581 0.96047 -0.08600
H 	H 	0.98407 0.68139 0.94251 0.01300
H 	H 	0.07584 0.68757 0.95773 0.02600
H 	H 	0.07090 0.73840 0.96678 0.04900
C 	C 	0.01588 0.82325 0.99411 -0.02500
C 	C 	0.03639 0.81568 0.96136 -0.01700
C 	C 	0.03885 0.78790 0.94836 -0.06200
C 	C 	0.02096 0.76780 0.96881 0.05000
N 	N 	0.00037 0.77579 0.99930 -0.11300
C 	C 	0.99750 0.80284 0.01224 0.02900
H 	H 	0.05060 0.83119 0.94655 0.03200
H 	H 	0.05472 0.78196 0.92302 0.04200
H 	H 	0.98138 0.80838 0.03739 0.02900
C 	C 	0.03043 0.55712 0.73488 0.00600
C 	C 	0.03087 0.53810 0.77239 0.00300
C 	C 	0.03581 0.54809 0.81689 -0.00400
C 	C 	0.03627 0.57676 0.82553 -0.11600
C 	C 	0.03380 0.59591 0.78836 0.07400
C 	C 	0.03215 0.58581 0.74316 -0.08600
H 	H 	0.03756 0.53345 0.84535 0.03400
H 	H 	0.03154 0.60036 0.71445 0.04900
C 	C 	0.02276 0.50769 0.76648 -0.09600
C 	C 	0.03266 0.62707 0.79624 -0.11900
C 	C 	0.99290 0.50134 0.78661 -0.02200
H 	H 	0.99212 0.50716 0.82353 0.02000
H 	H 	0.98896 0.47856 0.78489 0.03000
C 	C 	0.06270 0.64006 0.79285 -0.01300
H 	H 	0.07046 0.63881 0.75674 0.02800
H 	H 	0.07811 0.62849 0.81504 0.04500
H 	H 	0.02348 0.50082 0.73017 0.05200
H 	H 	0.02264 0.63191 0.82994 0.05900
C 	C 	0.96888 0.51645 0.76078 -0.15700
C 	C 	0.06243 0.67054 0.80748 -0.16100
H 	H 	0.96809 0.50952 0.72442 0.06200
H 	H 	0.94804 0.51166 0.77740 0.04800
H 	H 	0.97193 0.53936 0.76196 0.05600
H 	H 	0.03879 0.49463 0.78500 0.04500
H 	H 	0.04745 0.68277 0.78551 0.05800
H 	H 	0.08431 0.67945 0.80379 0.05900
H 	H 	0.05575 0.67228 0.84406 0.06600
H 	H 	0.01857 0.63696 0.76988 0.04800
C 	C 	0.03892 0.56926 0.07616 -0.12000
C 	C 	0.05702 0.57717 0.11302 0.08500
C 	C 	0.05366 0.56420 0.15618 -0.08900
C 	C 	0.03307 0.54328 0.16289 0.01000
C 	C 	0.01476 0.53567 0.12621 -0.00400
C 	C 	0.01805 0.54866 0.08313 -0.00300
H 	H 	0.06726 0.57033 0.18465 0.05100
H 	H 	0.00395 0.54296 0.05501 0.00200
C 	C 	0.07953 0.59989 0.10753 -0.12600
C 	C 	0.99054 0.51491 0.13282 -0.09400
C 	C 	0.11031 0.58842 0.11069 -0.00700
H 	H 	0.11319 0.57616 0.14294 0.02500
H 	H 	0.12546 0.60629 0.11209 0.02500
C 	C 	0.96184 0.52978 0.14110 -0.02600
H 	H 	0.95956 0.54802 0.11758 0.02200
H 	H 	0.96115 0.53742 0.17711 0.03000
H 	H 	0.07708 0.61219 0.07530 0.06500
H 	H 	0.99467 0.50031 0.16180 0.05000
C 	C 	0.11838 0.57039 0.06960 -0.16600
C 	C 	0.93643 0.51029 0.13298 -0.15800
H 	H 	0.11714 0.58281 0.03735 0.07600
H 	H 	0.14076 0.56283 0.07371 0.06200
H 	H 	0.10396 0.55204 0.06718 0.07500
H 	H 	0.07654 0.61509 0.13580 0.05400
H 	H 	0.93523 0.50451 0.09609 0.04800
H 	H 	0.91618 0.52094 0.14261 0.05200
H 	H 	0.93857 0.49103 0.15396 0.06000
H 	H 	0.98899 0.50191 0.10138 0.03800
C 	C 	0.72524 0.92435 0.02541 0.06600
N 	N 	0.70853 0.94567 0.00970 -0.11900
C 	C 	0.68001 0.94215 0.00144 0.07200
C 	C 	0.66710 0.91609 0.00872 -0.11300
C 	C 	0.68409 0.89371 0.02367 0.03600
C 	C 	0.71326 0.89780 0.03199 -0.08400
H 	H 	0.66738 0.95963 0.98918 0.02300
H 	H 	0.67473 0.87330 0.02917 0.03200
H 	H 	0.72647 0.88051 0.04337 0.05000
C 	C 	0.81231 0.94369 0.05440 -0.01800
C 	C 	0.79640 0.92832 0.08657 -0.01900
C 	C 	0.76807 0.92115 0.07680 -0.05900
C 	C 	0.75586 0.92936 0.03467 0.05000
N 	N 	0.77181 0.94411 0.00365 -0.10900
C 	C 	0.79955 0.95120 0.01243 0.02600
H 	H 	0.80582 0.92236 0.11927 0.03400
H 	H 	0.75545 0.90996 0.10220 0.04300
H 	H 	0.81150 0.96319 0.98722 0.02800
C 	C 	0.56041 0.94141 0.88071 -0.12000
C 	C 	0.58656 0.94678 0.85722 0.08800
C 	C 	0.58581 0.95466 0.81065 -0.09000
C 	C 	0.55972 0.96064 0.78883 0.01100
C 	C 	0.53365 0.95764 0.81348 -0.00400
C 	C 	0.53423 0.94701 0.85859 -0.00100
H 	H 	0.60577 0.95801 0.79222 0.05200
H 	H 	0.51421 0.94349 0.87677 0.00800
C 	C 	0.61498 0.94834 0.88253 -0.13100
C 	C 	0.50503 0.96569 0.79230 -0.09400
C 	C 	0.62324 0.97848 0.89426 -0.00600
H 	H 	0.62486 0.99115 0.86219 0.02600
H 	H 	0.64480 0.97831 0.91063 0.02800
C 	C 	0.48928 0.94009 0.77365 -0.02400
H 	H 	0.48297 0.92625 0.80278 0.02300
H 	H 	0.50353 0.92808 0.75050 0.03100
H 	H 	0.61546 0.93537 0.91397 0.07300
H 	H 	0.50765 0.98163 0.76475 0.05200
C 	C 	0.60205 0.99236 0.92710 -0.16500
C 	C 	0.46237 0.94847 0.74698 -0.15800
H 	H 	0.59882 0.97937 0.95841 0.07300
H 	H 	0.61065 0.01291 0.93771 0.05800
H 	H 	0.58108 0.99588 0.90987 0.06400
H 	H 	0.63206 0.93961 0.86014 0.05700
H 	H 	0.44776 0.96085 0.76907 0.05200
H 	H 	0.45085 0.92949 0.73559 0.05300
H 	H 	0.46827 0.96096 0.71606 0.05600
H 	H 	0.49138 0.97556 0.81899 0.04000
C 	C 	0.53510 0.93964 0.22054 0.00700
C 	C 	0.53216 0.95875 0.18341 0.00300
C 	C 	0.53702 0.94963 0.13837 -0.00700
C 	C 	0.54256 0.92156 0.12944 -0.11900
C 	C 	0.54412 0.90216 0.16621 0.08100
C 	C 	0.54099 0.91154 0.21162 -0.08800
H 	H 	0.53575 0.96438 0.10998 0.01400
H 	H 	0.54325 0.89696 0.24007 0.05000
C 	C 	0.52209 0.98849 0.19077 -0.09700
C 	C 	0.55035 0.87166 0.15763 -0.12600
C 	C 	0.49131 0.99303 0.17317 -0.02000
H 	H 	0.48958 0.98688 0.13649 0.01400
H 	H 	0.48620 0.01559 0.17486 0.02900
C 	C 	0.58279 0.86633 0.15535 -0.01200
H 	H 	0.59271 0.87123 0.18914 0.02900
H 	H 	0.59280 0.87996 0.12878 0.03900
H 	H 	0.52347 0.99512 0.22716 0.05200
H 	H 	0.53985 0.86468 0.12537 0.06500
C 	C 	0.46913 0.97691 0.20144 -0.15800
C 	C 	0.58928 0.83604 0.14357 -0.16400
H 	H 	0.46931 0.98401 0.23773 0.06200
H 	H 	0.44746 0.98055 0.18689 0.04800
H 	H 	0.47340 0.95419 0.20017 0.05600
H 	H 	0.53659 0.00274 0.17139 0.04400
H 	H 	0.57995 0.82183 0.16994 0.06000
H 	H 	0.61288 0.83282 0.14265 0.06100
H 	H 	0.58032 0.83084 0.10925 0.06700
H 	H 	0.54094 0.85873 0.18576 0.05100
C 	C 	0.27924 0.04331 0.01021 0.07000
N 	N 	0.29308 0.06806 0.01596 -0.12100
C 	C 	0.32201 0.07031 0.01039 0.07500
C 	C 	0.33833 0.04688 0.99869 -0.12600
C 	C 	0.32444 0.02149 0.99130 0.04100
C 	C 	0.29476 0.01973 0.99637 -0.09400
H 	H 	0.33242 0.09013 0.01635 0.02300
H 	H 	0.33660 0.00319 0.98173 0.01200
H 	H 	0.28392 0.00022 0.98969 0.04700
C 	C 	0.18924 0.03975 0.03473 -0.01500
C 	C 	0.20660 0.01750 0.04894 -0.02100
C 	C 	0.23609 0.01856 0.04136 -0.05800
C 	C 	0.24802 0.04163 0.01835 0.04800
N 	N 	0.23083 0.06326 0.00528 -0.10800
C 	C 	0.20199 0.06280 0.01293 0.02100
H 	H 	0.19726 0.99944 0.06577 0.03400
H 	H 	0.24960 0.00172 0.05364 0.04100
H 	H 	0.18898 0.08037 0.00218 0.03200
C 	C 	0.45568 0.05727 0.88128 -0.10600
C 	C 	0.47944 0.04002 0.87080 0.06300
C 	C 	0.48996 0.03945 0.82557 -0.08100
C 	C 	0.47664 0.05497 0.79059 0.00400
C 	C 	0.45332 0.07265 0.80125 0.00400
C 	C 	0.44310 0.07364 0.84661 -0.00400
H 	H 	0.50849 0.02671 0.81752 0.04800
H 	H 	0.42484 0.08673 0.85475 0.03700
C 	C 	0.49442 0.02269 0.90759 -0.10600
C 	C 	0.43810 0.08943 0.76421 -0.09500
C 	C 	0.52233 0.03636 0.92422 -0.02500
H 	H 	0.53646 0.04132 0.89444 0.02900
H 	H 	0.53398 0.02120 0.94648 0.01900
C 	C 	0.41328 0.07272 0.74339 -0.02400
H 	H 	0.39734 0.06758 0.77065 0.03200
H 	H 	0.42143 0.05290 0.72889 0.03200
H 	H 	0.48036 0.01798 0.93746 0.00700
H 	H 	0.45326 0.09610 0.73677 0.05000
C 	C 	0.51691 0.06278 0.95191 -0.15700
C 	C 	0.39824 0.08912 0.70519 -0.15800
H 	H 	0.50227 0.05836 0.98123 0.04800
H 	H 	0.53758 0.07061 0.96577 0.05600
H 	H 	0.50744 0.07930 0.92969 0.07100
H 	H 	0.49995 0.00207 0.89286 0.03600
H 	H 	0.38933 0.10887 0.71883 0.05800
H 	H 	0.38033 0.07653 0.69110 0.05600
H 	H 	0.41352 0.09391 0.67687 0.05800
H 	H 	0.42948 0.10895 0.77933 0.04800
C 	C 	0.43247 0.06105 0.13397 -0.11300
C 	C 	0.42076 0.03963 0.16189 0.06800
C 	C 	0.42928 0.03744 0.20805 -0.08400
C 	C 	0.44901 0.05634 0.22659 0.00500
C 	C 	0.45723 0.08007 0.20052 0.00300
C 	C 	0.44926 0.08191 0.15398 -0.00500
H 	H 	0.42132 0.02038 0.22911 0.04500
H 	H 	0.45628 0.09951 0.13327 0.03800
C 	C 	0.39796 0.01996 0.14382 -0.11600
C 	C 	0.47223 0.10458 0.22275 -0.09600
C 	C 	0.36763 0.02862 0.15881 -0.01000
H 	H 	0.36670 0.03065 0.19687 0.02600
H 	H 	0.35237 0.01190 0.14895 0.02300
C 	C 	0.50300 0.10817 0.20463 -0.02400
H 	H 	0.50256 0.11311 0.16722 0.03200
H 	H 	0.51537 0.08863 0.20953 0.03000
H 	H 	0.39876 0.01779 0.10591 0.03400
H 	H 	0.47254 0.10255 0.26085 0.05100
C 	C 	0.35776 0.05588 0.13640 -0.16700
C 	C 	0.51860 0.13166 0.22941 -0.15800
H 	H 	0.35892 0.05442 0.09839 0.07800
H 	H 	0.33514 0.06008 0.14620 0.06300
H 	H 	0.37116 0.07356 0.14820 0.07500
H 	H 	0.40215 0.99872 0.15768 0.03600
H 	H 	0.50697 0.15167 0.22452 0.05900
H 	H 	0.54059 0.13395 0.21514 0.05800
H 	H 	0.52031 0.12689 0.26678 0.05800
H 	H 	0.45978 0.12380 0.21487 0.04900
C 	C 	0.45098 0.25625 0.98563 0.05100
N 	N 	0.47714 0.26748 0.99541 -0.10900
C 	C 	0.48345 0.29449 0.98484 0.02100
C 	C 	0.46291 0.31149 0.96325 -0.01700
C 	C 	0.43599 0.30029 0.95268 -0.01900
C 	C 	0.43009 0.27254 0.96332 -0.06000
H 	H 	0.50450 0.30268 0.99286 0.03000
H 	H 	0.41976 0.31301 0.93606 0.03400
H 	H 	0.40959 0.26366 0.95374 0.04300
C 	C 	0.43516 0.17031 0.01196 -0.10500
C 	C 	0.41347 0.18971 0.02061 0.03300
C 	C 	0.41870 0.21798 0.01338 -0.07800
C 	C 	0.44547 0.22662 0.99626 0.06100
N 	N 	0.46662 0.20747 0.98939 -0.11700
C 	C 	0.46209 0.17978 0.99697 0.06400
H 	H 	0.39265 0.18292 0.03293 0.03000
H 	H 	0.40209 0.23306 0.02094 0.05000
H 	H 	0.47921 0.16511 0.99032 0.03000
C 	C 	0.21001 0.56059 0.93525 0.06400
N 	N 	0.19081 0.54755 0.90737 -0.11900
C 	C 	0.16243 0.55431 0.90769 0.06800
C 	C 	0.15235 0.57546 0.93652 -0.11300
C 	C 	0.17173 0.58902 0.96559 0.03300
C 	C 	0.20065 0.58160 0.96500 -0.08400
H 	H 	0.14783 0.54365 0.88481 0.02900
H 	H 	0.16447 0.60532 0.98840 0.02800
H 	H 	0.21578 0.59244 0.98680 0.04800
C 	C 	0.29837 0.53986 0.92324 -0.01800
C 	C 	0.28573 0.54052 0.96691 -0.01800
C 	C 	0.25680 0.54747 0.97123 -0.06400
C 	C 	0.24072 0.55378 0.93169 0.05100
N 	N 	0.25337 0.55284 0.88946 -0.10900
C 	C 	0.28161 0.54626 0.88451 0.02100
H 	H 	0.29818 0.53536 0.99728 0.03200
H 	H 	0.24686 0.54761 0.00492 0.04600
H 	H 	0.29102 0.54591 0.85046 0.03100
C 	C 	0.77276 0.45308 0.95902 0.06500
N 	N 	0.78941 0.46894 0.93060 -0.12200
C 	C 	0.81849 0.46636 0.93008 0.06500
C 	C 	0.83217 0.44725 0.95961 -0.12000
C 	C 	0.81539 0.43102 0.98957 0.03300
C 	C 	0.78561 0.43394 0.98932 -0.08900
H 	H 	0.83093 0.47906 0.90647 0.02000
H 	H 	0.82534 0.41634 0.01314 0.03100
H 	H 	0.77262 0.42163 0.01277 0.05200
C 	C 	0.68278 0.46548 0.94850 -0.01700
C 	C 	0.69370 0.43833 0.94768 -0.02000
C 	C 	0.72313 0.43396 0.95270 -0.05900
C 	C 	0.74143 0.45688 0.95858 0.04800
N 	N 	0.73032 0.48311 0.95996 -0.11100
C 	C 	0.70165 0.48780 0.95550 0.02000
H 	H 	0.67955 0.42078 0.94203 0.03400
H 	H 	0.73175 0.41305 0.95071 0.04300
H 	H 	0.69356 0.50893 0.95659 0.03000
C 	C 	0.51259 0.74421 0.94384 0.04900
N 	N 	0.51641 0.72506 0.97815 -0.11000
C 	C 	0.51253 0.69734 0.97081 0.02000
C 	C 	0.50474 0.68778 0.92710 -0.01700
C 	C 	0.50058 0.70711 0.89144 -0.02100
C 	C 	0.50461 0.73541 0.89969 -0.05900
H 	H 	0.51604 0.68267 0.99874 0.03000
H 	H 	0.49465 0.70018 0.85735 0.03300
H 	H 	0.50216 0.75032 0.87182 0.04200
C 	C 	0.53118 0.82938 0.97068 -0.11500
C 	C 	0.50597 0.82248 0.94700 0.03400
C 	C 	0.49968 0.79464 0.93812 -0.08700
C 	C 	0.51880 0.77379 0.95266 0.06500
N 	N 	0.54299 0.78082 0.97619 -0.12000
C 	C 	0.54957 0.80786 0.98527 0.06500
H 	H 	0.49117 0.83857 0.93583 0.01800
H 	H 	0.47998 0.78928 0.92047 0.04600
H 	H 	0.56913 0.81259 0.00373 0.03100
