data_crystal

_cell_length_a 15.42652
_cell_length_b 15.80782
_cell_length_c 93.52083
_cell_angle_alpha 90.06926
_cell_angle_beta  90.02711
_cell_angle_gamma 119.73578

_symmetry_space_group_name_	'P 1'
_symmetry_space_group_name_H-M	'P 1'

loop_
_symmetry_equiv_pos_as_xyz
  x,y,z

loop_
_atom_site_label
_atom_site_type_symbol
_atom_site_fract_x
_atom_site_fract_y
_atom_site_fract_z
_atom_site_charge
S 	S 	0.00804 0.50385 0.37568 -0.00800
C 	C 	0.00272 0.27387 0.73741 -0.00100
O 	O 	0.01099 0.08994 0.01830 -0.71400
O 	O 	0.00771 0.94532 0.03497 -0.34400
C 	C 	0.01317 0.23024 0.74980 -0.01300
O 	O 	0.01099 0.15557 0.82732 -0.37100
C 	C 	0.01937 0.00133 0.04624 0.23800
H 	H 	0.02486 0.83860 0.10028 0.02900
S 	S 	0.02225 0.61963 0.43538 0.01800
C 	C 	0.02633 0.24818 0.72418 0.00300
O 	O 	0.02657 0.04568 0.80374 -0.69800
H 	H 	0.03132 0.05111 0.79328 0.15000
Ni	Ni	0.02987 0.12603 0.22894 1.10000
O 	O 	0.03633 0.90719 0.78705 -0.37200
C 	C 	0.03903 0.63012 0.41784 -0.02000
C 	C 	0.04249 0.56449 0.53234 -0.03700
H 	H 	0.03760 0.70208 0.62978 0.06300
S 	S 	0.03895 0.28374 0.76583 0.04100
H 	H 	0.04572 0.86383 0.75993 0.05400
H 	H 	0.03496 0.93120 0.92997 0.04800
S 	S 	0.03841 0.03724 0.95605 0.02800
Ni	Ni	0.03994 0.92416 0.22909 1.09400
S 	S 	0.04347 0.94945 0.07339 0.00900
C 	C 	0.04896 0.57546 0.38999 -0.01700
H 	H 	0.04775 0.08082 0.18469 0.06200
H 	H 	0.05399 0.74284 0.74115 0.05200
O 	O 	0.04801 0.24609 0.99738 -0.38400
Ni	Ni	0.05739 0.00166 0.01468 1.10900
C 	C 	0.05536 0.62791 0.65547 0.00200
H 	H 	0.05780 0.38091 0.71248 0.04900
C 	C 	0.05730 0.17805 0.72351 0.01200
C 	C 	0.05648 0.17019 0.74921 0.03100
H 	H 	0.06730 0.55727 0.54290 0.05100
C 	C 	0.05851 0.56173 0.66516 -0.05600
C 	C 	0.05982 0.31332 0.71238 -0.00600
O 	O 	0.06310 0.23305 0.79722 -0.36400
O 	O 	0.06446 0.88800 0.81592 -0.37700
Ni	Ni	0.07960 0.19246 0.03166 1.11800
C 	C 	0.07621 0.60044 0.50702 -0.09000
C 	C 	0.07684 0.14182 0.73602 -0.05600
C 	C 	0.07149 0.07721 0.98486 0.31200
O 	O 	0.08381 0.09666 0.04607 -0.36900
O 	O 	0.09350 0.30570 0.02004 -0.38400
H 	H 	0.09582 0.37631 0.81710 0.08200
H 	H 	0.10207 0.92069 0.87908 0.07300
H 	H 	0.09965 0.16544 0.17021 0.05800
H 	H 	0.10065 0.18597 0.85760 0.04400
H 	H 	0.10197 0.31921 0.88775 0.08900
O 	O 	0.10544 0.99351 0.21004 -0.39300
C 	C 	0.10224 0.58046 0.43940 -0.07400
C 	C 	0.10547 0.23522 0.77229 -0.07700
C 	C 	0.10605 0.21710 0.82936 0.30400
H 	H 	0.10829 0.21057 0.18814 0.07100
O 	O 	0.10715 0.14406 0.24722 -0.39100
C 	C 	0.10722 0.59932 0.41432 0.02100
C 	C 	0.10678 0.17174 0.76197 -0.02200
H 	H 	0.11004 0.96321 0.85469 0.05000
C 	C 	0.11191 0.31205 0.00624 0.30700
C 	C 	0.11060 0.15307 0.18160 -0.19100
C 	C 	0.11065 0.59948 0.52098 0.08000
C 	C 	0.10956 0.97752 0.93413 -0.04200
C 	C 	0.11049 0.09335 0.97023 -0.07800
C 	C 	0.11192 0.57001 0.40033 -0.05300
H 	H 	0.11519 0.70269 0.65455 0.04700
H 	H 	0.11697 0.10177 0.73554 0.05100
H 	H 	0.11738 0.21849 0.88234 0.06900
H 	H 	0.11642 0.81835 0.88363 0.08200
H 	H 	0.11326 0.84090 0.91489 0.04500
C 	C 	0.12026 0.94508 0.82637 0.31700
C 	C 	0.11994 0.29701 0.70275 -0.07400
O 	O 	0.12188 0.06489 0.99522 -0.38100
C 	C 	0.12522 0.89215 0.76109 -0.02300
C 	C 	0.12376 0.22878 0.78753 0.28500
S 	S 	0.12602 0.20099 0.70887 0.03400
C 	C 	0.12887 0.76890 0.74520 -0.05300
C 	C 	0.12752 0.26194 0.85509 -0.03700
C 	C 	0.12675 0.04390 0.94519 -0.01400
C 	C 	0.13412 0.96510 0.78536 0.28900
C 	C 	0.13527 0.29083 0.84076 -0.09000
C 	C 	0.13974 0.61321 0.49452 0.28800
C 	C 	0.14262 0.08616 0.25101 0.28000
O 	O 	0.14206 0.55242 0.46309 -0.37900
C 	C 	0.19556 0.40041 0.00034 -0.07400
C 	C 	0.83926 0.90167 0.00276 0.29600
Ni	Ni	0.94023 0.11480 0.00376 1.11700
O 	O 	0.83041 0.97672 0.00713 -0.37500
O 	O 	0.92359 0.89861 0.00460 -0.36000
O 	O 	0.88110 0.17189 0.01761 -0.37900
O 	O 	0.19876 0.07246 0.02425 -0.37100
O 	O 	0.21375 0.22292 0.02384 -0.39400
C 	C 	0.25129 0.16671 0.02667 0.30900
H 	H 	0.95331 0.04775 0.02433 0.14400
C 	C 	0.34441 0.20598 0.03496 -0.07900
C 	C 	0.87167 0.15476 0.03159 0.28600
O 	O 	0.94977 0.17252 0.03968 -0.38000
C 	C 	0.78120 0.14092 0.03871 -0.07100
S 	S 	0.38362 0.13385 0.04211 0.03000
H 	H 	0.34700 0.33645 0.04342 0.03700
C 	C 	0.37643 0.28696 0.04406 -0.01900
S 	S 	0.76667 0.23575 0.04294 0.03300
C 	C 	0.73498 0.07099 0.04949 -0.02600
C 	C 	0.44290 0.20115 0.05628 -0.00100
C 	C 	0.43088 0.28384 0.05611 0.01600
H 	H 	0.82262 0.85155 0.05250 0.04800
C 	C 	0.70152 0.19286 0.05790 -0.00500
H 	H 	0.74878 0.01060 0.05088 0.03600
H 	H 	0.44454 0.08987 0.06956 0.04600
C 	C 	0.97474 0.95421 0.05981 -0.02600
C 	C 	0.88071 0.86949 0.06038 -0.03500
C 	C 	0.43942 0.33479 0.06883 -0.05500
C 	C 	0.45257 0.16195 0.06920 -0.05200
H 	H 	0.42108 0.39265 0.06911 0.04500
C 	C 	0.69064 0.10017 0.06032 0.02400
C 	C 	0.70749 0.25262 0.06935 -0.04900
H 	H 	0.73374 0.32942 0.06770 0.04900
C 	C 	0.87198 0.80742 0.07181 0.02600
H 	H 	0.71435 0.70112 0.07032 0.04900
C 	C 	0.78132 0.73118 0.07681 -0.05900
C 	C 	0.95895 0.84245 0.08000 0.00500
C 	C 	0.46342 0.30295 0.08140 0.00100
C 	C 	0.46391 0.21453 0.08180 0.01500
C 	C 	0.66588 0.11623 0.08536 0.00600
C 	C 	0.67270 0.06101 0.07417 -0.07700
C 	C 	0.68983 0.21350 0.08317 0.01400
H 	H 	0.67319 0.99393 0.07635 0.06400
C 	C 	0.77939 0.69700 0.09066 0.00500
C 	C 	0.95736 0.80938 0.09392 -0.02800
S 	S 	0.69857 0.58606 0.09638 0.02400
S 	S 	0.43833 0.32550 0.09781 0.01700
C 	C 	0.44564 0.17237 0.09559 -0.02100
H 	H 	0.44673 0.10581 0.09795 0.04500
H 	H 	0.74734 0.34822 0.09600 0.04500
C 	C 	0.86665 0.73255 0.09896 0.00900
S 	S 	0.69154 0.10553 0.10235 0.01500
C 	C 	0.72636 0.27189 0.09563 -0.02100
C 	C 	0.76824 0.57943 0.10961 -0.07300
C 	C 	0.85973 0.66706 0.10982 -0.01400
C 	C 	0.42908 0.22707 0.10598 -0.07400
C 	C 	0.73374 0.22093 0.10735 -0.07000
C 	C 	0.72498 0.51736 0.12221 0.28700
C 	C 	0.45560 0.22749 0.12107 0.28300
H 	H 	0.91894 0.68272 0.11741 0.04800
C 	C 	0.73740 0.25231 0.12218 0.28400
O 	O 	0.62703 0.47473 0.12414 -0.37200
O 	O 	0.49174 0.17066 0.12514 -0.37900
O 	O 	0.78529 0.52155 0.13271 -0.37600
O 	O 	0.79537 0.34581 0.12545 -0.37900
O 	O 	0.68231 0.18741 0.13209 -0.38500
O 	O 	0.44085 0.28237 0.13047 -0.36900
H 	H 	0.63500 0.33155 0.12946 0.14600
O 	O 	0.63335 0.33167 0.13996 -0.71400
Ni	Ni	0.55764 0.39395 0.14227 1.11200
Ni	Ni	0.57289 0.19513 0.14320 1.11900
Ni	Ni	0.77346 0.40305 0.14338 1.12100
C 	C 	0.27947 0.18772 0.17288 -0.03400
H 	H 	0.26282 0.20918 0.16269 0.04000
C 	C 	0.37206 0.19298 0.17492 -0.09400
C 	C 	0.44704 0.23323 0.16347 0.30600
C 	C 	0.72055 0.51539 0.16333 0.30600
C 	C 	0.73404 0.24386 0.16378 0.30900
O 	O 	0.63716 0.20629 0.16227 -0.40300
O 	O 	0.49659 0.32796 0.16168 -0.38500
O 	O 	0.44742 0.17448 0.15352 -0.38200
O 	O 	0.66067 0.51730 0.15348 -0.37200
O 	O 	0.75558 0.45489 0.16233 -0.38700
O 	O 	0.79682 0.30618 0.15439 -0.38500
C 	C 	0.81950 0.12020 0.15585 -0.19800
H 	H 	0.87198 0.18691 0.14990 0.09000
H 	H 	0.74454 0.08693 0.15080 0.07800
H 	H 	0.84663 0.06713 0.15492 0.06900
C 	C 	0.81653 0.68831 0.17082 -0.03800
C 	C 	0.75870 0.58996 0.17462 -0.09100
C 	C 	0.92366 0.86583 0.17707 -0.20400
H 	H 	0.83006 0.70826 0.15961 0.05100
H 	H 	0.94030 0.87314 0.16544 0.07700
H 	H 	0.88488 0.90726 0.17960 0.08500
C 	C 	0.77190 0.20477 0.17489 -0.09500
C 	C 	0.81334 0.14540 0.17125 0.08100
C 	C 	0.20875 0.15599 0.18394 0.06800
H 	H 	0.49580 0.11314 0.18386 0.07800
C 	C 	0.85893 0.76076 0.18139 0.08600
H 	H 	0.99600 0.89853 0.18288 0.09400
C 	C 	0.39509 0.16720 0.18826 0.07600
C 	C 	0.76435 0.22494 0.18928 -0.03600
C 	C 	0.84781 0.10827 0.18211 -0.03700
H 	H 	0.73199 0.26996 0.19202 0.03800
H 	H 	0.87919 0.06240 0.17938 0.04100
C 	C 	0.23175 0.13025 0.19729 -0.09100
C 	C 	0.32448 0.13578 0.19935 -0.03800
C 	C 	0.49312 0.16979 0.19057 -0.19800
C 	C 	0.84001 0.12825 0.19649 -0.09200
C 	C 	0.79916 0.18810 0.20013 0.08000
H 	H 	0.55610 0.24239 0.18765 0.07800
C 	C 	0.74034 0.56348 0.18918 0.08200
C 	C 	0.84076 0.73423 0.19595 -0.09100
C 	C 	0.67569 0.45841 0.19349 -0.20000
H 	H 	0.71432 0.41696 0.19090 0.08000
H 	H 	0.60318 0.42581 0.18774 0.08100
H 	H 	0.50353 0.15597 0.20192 0.06700
C 	C 	0.78263 0.63590 0.19975 -0.03700
H 	H 	0.86659 0.24298 0.22078 0.08200
O 	O 	0.15590 0.14585 0.21887 -0.38400
C 	C 	0.15616 0.08858 0.20866 0.29900
H 	H 	0.34115 0.11435 0.20954 0.04300
C 	C 	0.88018 0.80861 0.20727 0.30600
C 	C 	0.87415 0.08599 0.20764 0.30600
O 	O 	0.93741 0.80378 0.21730 -0.36000
O 	O 	0.84755 0.87104 0.20823 -0.38600
O 	O 	0.97047 0.12263 0.20971 -0.38300
O 	O 	0.96581 0.84048 0.24682 -0.35500
O 	O 	0.15643 0.03179 0.24142 -0.37500
H 	H 	0.69244 0.62432 0.25308 0.04300
H 	H 	0.96238 0.98650 0.24182 0.15100
C 	C 	0.86833 0.80380 0.24855 0.28500
C 	C 	0.86170 0.06442 0.24938 0.28400
Ni	Ni	0.82657 0.92037 0.22719 1.12100
O 	O 	0.80819 0.02115 0.21646 -0.38900
O 	O 	0.92007 0.13298 0.24009 -0.37400
O 	O 	0.79967 0.97412 0.24505 -0.37800
O 	O 	0.81059 0.79990 0.23772 -0.37700
O 	O 	0.96607 0.98858 0.23134 -0.69300
C 	C 	0.79248 0.21276 0.21554 -0.19800
H 	H 	0.76838 0.26814 0.21646 0.06900
H 	H 	0.73747 0.14632 0.22131 0.08500
H 	H 	0.76905 0.61593 0.21095 0.05000
H 	H 	0.65945 0.45100 0.20514 0.06900
C 	C 	0.17683 0.09062 0.26578 -0.07000
H 	H 	0.94544 0.24310 0.26565 0.04600
C 	C 	0.93084 0.17643 0.27095 -0.01500
C 	C 	0.82201 0.75360 0.26191 -0.07400
C 	C 	0.73736 0.66051 0.26241 -0.01900
C 	C 	0.87548 0.08402 0.26477 -0.07500
H 	H 	0.60978 0.46698 0.26994 0.04600
H 	H 	0.17811 0.22298 0.27327 0.04000
S 	S 	0.16276 0.99221 0.27453 -0.00100
C 	C 	0.17340 0.15420 0.27597 -0.02300
C 	C 	0.73042 0.61115 0.27538 0.01600
S 	S 	0.88676 0.77079 0.27703 0.03800
S 	S 	0.86647 0.00156 0.27667 0.02900
C 	C 	0.67257 0.50983 0.27695 -0.05300
C 	C 	0.80927 0.66612 0.28490 -0.00100
C 	C 	0.95752 0.17240 0.28539 0.02100
C 	C 	0.70057 0.46515 0.28748 -0.00100
C 	C 	0.15155 0.02571 0.29099 0.00400
C 	C 	0.16016 0.11807 0.29011 0.00800
C 	C 	0.83758 0.62144 0.29536 -0.05200
H 	H 	0.98834 0.31602 0.29193 0.05200
C 	C 	0.97564 0.24539 0.29540 -0.05100
C 	C 	0.77974 0.52023 0.29694 0.01900
S 	S 	0.62255 0.36114 0.29552 0.02900
C 	C 	0.92793 0.07711 0.29001 0.00600
H 	H 	0.90037 0.66433 0.30236 0.05200
H 	H 	0.18967 0.93307 0.30334 0.04200
C 	C 	0.17844 0.99552 0.30346 -0.06600
C 	C 	0.18319 0.17722 0.30227 -0.05300
H 	H 	0.19780 0.25153 0.30144 0.04100
C 	C 	0.68750 0.37890 0.31064 -0.07000
C 	C 	0.77272 0.47154 0.30996 -0.02100
C 	C 	0.90800 0.05114 0.30440 -0.04700
C 	C 	0.96316 0.22099 0.30996 0.00600
H 	H 	0.87029 0.97511 0.30750 0.04900
C 	C 	0.19945 0.05358 0.31577 0.01700
C 	C 	0.19618 0.14104 0.31526 -0.00700
H 	H 	0.81874 0.50789 0.31920 0.04800
C 	C 	0.92491 0.12378 0.31441 0.02100
C 	C 	0.64063 0.33155 0.32414 0.28400
O 	O 	0.57131 0.23761 0.32400 -0.37400
S 	S 	0.92505 0.27401 0.32175 0.02900
C 	C 	0.25818 0.05047 0.32724 -0.01800
H 	H 	0.28145 0.99618 0.32787 0.03500
S 	S 	0.26772 0.21187 0.32841 0.02800
O 	O 	0.69463 0.15022 0.33092 -0.38000
C 	C 	0.86234 0.18053 0.33288 -0.06600
C 	C 	0.87034 0.10205 0.32741 -0.01500
H 	H 	0.82212 0.02787 0.33097 0.04800
C 	C 	0.30211 0.13596 0.33553 -0.07900
C 	C 	0.39879 0.17143 0.34274 0.30900
C 	C 	0.76949 0.16437 0.33947 0.28600
Ni	Ni	0.56548 0.13607 0.33818 1.12000
O 	O 	0.65545 0.38671 0.33565 -0.36800
O 	O 	0.45783 0.26559 0.34459 -0.36800
O 	O 	0.43118 0.11061 0.34535 -0.39200
O 	O 	0.54226 0.01804 0.34938 -0.38500
O 	O 	0.63508 0.23503 0.35201 -0.71600
H 	H 	0.69589 0.27613 0.34647 0.15000
Ni	Ni	0.59433 0.32739 0.35545 1.11300
O 	O 	0.75504 0.14358 0.35335 -0.37200
C 	C 	0.51958 0.00910 0.36304 0.31200
S 	S 	0.44662 0.82674 0.37365 0.02800
C 	C 	0.43335 0.92026 0.36830 -0.08000
C 	C 	0.81112 0.41798 0.36724 0.28500
Ni	Ni	0.69633 0.20230 0.36700 1.12200
O 	O 	0.72492 0.41876 0.36714 -0.36700
O 	O 	0.81522 0.33735 0.36474 -0.37400
O 	O 	0.51876 0.25909 0.37405 -0.37400
O 	O 	0.58168 0.07205 0.37239 -0.38400
H 	H 	0.35934 0.99130 0.37855 0.04400
C 	C 	0.36739 0.92701 0.37796 -0.01800
C 	C 	0.33704 0.85862 0.38932 0.01700
C 	C 	0.56351 0.24412 0.38490 0.30100
O 	O 	0.65461 0.25816 0.38353 -0.37800
C 	C 	0.89960 0.50235 0.37337 -0.04100
C 	C 	0.37505 0.79416 0.38811 -0.00100
C 	C 	0.89170 0.55848 0.38440 -0.03100
H 	H 	0.82197 0.55583 0.38703 0.05100
H 	H 	0.29053 0.93476 0.40395 0.04600
C 	C 	0.31103 0.87870 0.40278 -0.05400
C 	C 	0.39712 0.75712 0.40031 -0.05400
H 	H 	0.44150 0.72149 0.39944 0.04600
H 	H 	0.15735 0.53726 0.39781 0.04600
S 	S 	0.40176 0.20498 0.40187 0.02500
C 	C 	0.51896 0.22881 0.39919 -0.07300
C 	C 	0.97464 0.59826 0.39386 0.04100
C 	C 	0.32715 0.83642 0.41488 0.00300
C 	C 	0.37523 0.78086 0.41375 0.01600
C 	C 	0.57478 0.27703 0.41138 -0.01900
H 	H 	0.65569 0.31615 0.41150 0.04900
C 	C 	0.96789 0.62391 0.40801 -0.03700
C 	C 	0.14375 0.57258 0.42643 -0.02300
H 	H 	0.20228 0.55374 0.42582 0.04200
H 	H 	0.28635 0.26895 0.41931 0.04400
C 	C 	0.35771 0.28712 0.42403 -0.05400
C 	C 	0.41567 0.24949 0.41834 -0.00200
C 	C 	0.51687 0.28914 0.42212 0.01700
H 	H 	0.90512 0.63163 0.41147 0.04600
C 	C 	0.42907 0.78437 0.42624 -0.01600
H 	H 	0.47064 0.74603 0.42728 0.04700
S 	S 	0.35432 0.88943 0.43091 0.02600
C 	C 	0.42634 0.84550 0.43686 -0.07500
H 	H 	0.28762 0.40514 0.43638 0.04200
C 	C 	0.36189 0.41889 0.43902 -0.02100
C 	C 	0.39870 0.35580 0.43509 0.01300
C 	C 	0.55893 0.36101 0.43277 -0.05500
H 	H 	0.63862 0.39909 0.43478 0.04800
C 	C 	0.43252 0.50188 0.44644 -0.07800
C 	C 	0.49659 0.38814 0.43984 -0.00100
S 	S 	0.53629 0.49394 0.44817 0.01900
C 	C 	0.16227 0.61342 0.45242 0.30600
O 	O 	0.21901 0.70723 0.45440 -0.38000
O 	O 	0.31311 0.53927 0.45694 -0.39700
C 	C 	0.40579 0.55695 0.45645 0.30500
O 	O 	0.40579 0.86767 0.46187 -0.37400
C 	C 	0.44342 0.83584 0.45207 0.30400
O 	O 	0.48521 0.78420 0.45576 -0.38000
O 	O 	0.47128 0.61248 0.46617 -0.39000
Ni	Ni	0.24988 0.54850 0.47519 1.12000
Ni	Ni	0.28454 0.76889 0.47378 1.11200
O 	O 	0.33370 0.68418 0.47776 -0.71700
Ni	Ni	0.47246 0.72794 0.47562 1.12100
O 	O 	0.51039 0.85990 0.48474 -0.37400
H 	H 	0.42959 0.41217 0.48348 0.08500
H 	H 	0.50591 0.06363 0.49168 0.04900
O 	O 	0.15053 0.67773 0.48455 -0.37100
O 	O 	0.33652 0.51241 0.48747 -0.38300
H 	H 	0.33132 0.68615 0.48827 0.14600
C 	C 	0.50170 0.45303 0.48926 -0.19700
H 	H 	0.54083 0.41017 0.48843 0.06700
H 	H 	0.54885 0.52416 0.48392 0.08300
H 	H 	0.59385 0.23525 0.49746 0.06800
H 	H 	0.79052 0.53894 0.50294 0.06800
C 	C 	0.97719 0.57888 0.50495 -0.02900
H 	H 	0.95180 0.58351 0.49432 0.05100
O 	O 	0.16952 0.54822 0.49238 -0.37900
O 	O 	0.36066 0.84794 0.49179 -0.37800
C 	C 	0.45612 0.87653 0.49422 0.28800
C 	C 	0.40770 0.56987 0.49676 0.28900
O 	O 	0.46756 0.66454 0.49441 -0.39400
C 	C 	0.52580 0.04756 0.50205 -0.03000
C 	C 	0.51909 0.43432 0.51565 -0.04200
C 	C 	0.43621 0.52369 0.50805 -0.08700
C 	C 	0.48371 0.46932 0.50462 0.08000
H 	H 	0.55942 0.39646 0.51308 0.03500
C 	C 	0.56622 0.12034 0.51257 0.07900
C 	C 	0.50900 0.95363 0.50490 -0.08600
C 	C 	0.58428 0.22092 0.50914 -0.19400
H 	H 	0.65331 0.27724 0.51445 0.07000
H 	H 	0.51953 0.22766 0.51279 0.07700
C 	C 	0.90958 0.54665 0.51644 0.07100
C 	C 	0.80420 0.52650 0.51421 -0.19400
H 	H 	0.75032 0.44974 0.51694 0.06800
C 	C 	0.42464 0.54175 0.52239 -0.04100
C 	C 	0.58548 0.09725 0.52638 -0.08700
C 	C 	0.53744 0.93306 0.51821 0.06600
H 	H 	0.57619 0.82269 0.51342 0.07800
H 	H 	0.79001 0.57534 0.52116 0.07800
H 	H 	0.26804 0.69692 0.51746 0.06900
H 	H 	0.23253 0.57053 0.52043 0.07600
H 	H 	0.44964 0.77644 0.51967 0.06900
C 	C 	0.52828 0.83501 0.52102 -0.19200
C 	C 	0.50678 0.45176 0.52998 -0.08700
H 	H 	0.23836 0.64704 0.53515 0.06700
C 	C 	0.21861 0.63027 0.52367 -0.19700
H 	H 	0.39199 0.58675 0.52497 0.03600
C 	C 	0.60674 0.16498 0.53848 0.28900
C 	C 	0.86869 0.47747 0.54118 0.28500
C 	C 	0.55516 0.42456 0.54117 0.28800
O 	O 	0.67483 0.17461 0.54813 -0.36800
O 	O 	0.54349 0.19775 0.54093 -0.38300
O 	O 	0.49757 0.35061 0.54981 -0.38000
O 	O 	0.64979 0.48788 0.54431 -0.39300
O 	O 	0.84352 0.38439 0.54261 -0.37400
H 	H 	0.67878 0.35226 0.54721 0.14500
C 	C 	0.45821 0.50497 0.53342 0.08000
C 	C 	0.57486 0.00499 0.52893 -0.02400
H 	H 	0.59234 0.98807 0.53941 0.04500
H 	H 	0.55201 0.82983 0.53205 0.06700
C 	C 	0.94151 0.53421 0.53003 -0.08100
H 	H 	0.40373 0.56613 0.54967 0.06700
H 	H 	0.40372 0.45679 0.55480 0.08700
Ni	Ni	0.53695 0.25929 0.55961 1.12100
O 	O 	0.85233 0.52546 0.55160 -0.37600
O 	O 	0.67646 0.34709 0.55771 -0.71700
C 	C 	0.44571 0.52605 0.54879 -0.19700
Ni	Ni	0.76607 0.30071 0.56018 1.11200
Ni	Ni	0.71915 0.47939 0.56197 1.12000
H 	H 	0.52006 0.57125 0.55382 0.08000
O 	O 	0.60222 0.46041 0.57381 -0.38900
O 	O 	0.87397 0.41404 0.57252 -0.37500
O 	O 	0.54601 0.14911 0.56938 -0.38000
C 	C 	0.60669 0.16450 0.58017 0.30500
C 	C 	0.56253 0.39006 0.58330 0.30600
O 	O 	0.70222 0.22761 0.57905 -0.38100
O 	O 	0.51649 0.29877 0.57914 -0.38800
C 	C 	0.85057 0.45556 0.58283 0.30700
O 	O 	0.78274 0.48135 0.58095 -0.38700
H 	H 	0.42762 0.98578 0.58508 0.04000
H 	H 	0.34633 0.82101 0.60061 0.04600
C 	C 	0.57499 0.41276 0.59865 -0.07500
S 	S 	0.95681 0.59230 0.60308 0.01400
C 	C 	0.90430 0.47907 0.59640 -0.07400
C 	C 	0.56952 0.10505 0.59314 -0.08000
C 	C 	0.48151 0.01437 0.59372 -0.00800
S 	S 	0.64480 0.52474 0.60534 0.02800
C 	C 	0.56678 0.34601 0.60913 -0.01600
H 	H 	0.52500 0.26775 0.60764 0.04800
C 	C 	0.86603 0.41499 0.60808 -0.02200
H 	H 	0.82298 0.33655 0.60691 0.04400
C 	C 	0.41579 0.85651 0.60655 -0.04800
C 	C 	0.48072 0.95707 0.60543 0.00400
S 	S 	0.64423 0.11011 0.60650 0.01900
C 	C 	0.66386 0.49358 0.62157 0.00300
C 	C 	0.61480 0.39118 0.62214 0.01700
C 	C 	0.93082 0.56486 0.62020 0.00600
C 	C 	0.44341 0.80298 0.61556 -0.00600
C 	C 	0.56756 0.00290 0.61377 0.00900
S 	S 	0.36243 0.70408 0.62440 0.03300
C 	C 	0.88177 0.46331 0.62143 0.01800
C 	C 	0.59751 0.94940 0.62227 -0.06200
C 	C 	0.53200 0.84900 0.62367 0.02000
C 	C 	0.98613 0.62532 0.63152 -0.07200
C 	C 	0.67469 0.54849 0.63387 -0.05400
C 	C 	0.58656 0.34291 0.63531 -0.05200
H 	H 	0.69610 0.62477 0.63300 0.04600
C 	C 	0.87852 0.41964 0.63460 -0.05900
C 	C 	0.52806 0.79692 0.63621 -0.02400
H 	H 	0.66654 0.98548 0.62830 0.04500
C 	C 	0.98036 0.58232 0.64486 -0.00400
H 	H 	0.54133 0.26421 0.63570 0.04800
C 	C 	0.43545 0.71218 0.63818 -0.07000
C 	C 	0.64344 0.49995 0.64703 0.01900
C 	C 	0.92317 0.48043 0.64645 0.01100
H 	H 	0.84923 0.34173 0.63537 0.04700
H 	H 	0.58314 0.82866 0.64467 0.04400
O 	O 	0.31128 0.59107 0.65367 -0.37100
C 	C 	0.39445 0.67723 0.65248 0.28400
S 	S 	0.96951 0.45005 0.66029 -0.01200
C 	C 	0.60469 0.39848 0.64776 -0.00100
C 	C 	0.61038 0.53678 0.65838 -0.02200
H 	H 	0.61881 0.60906 0.65807 0.03800
Ni	Ni	0.28023 0.49258 0.66990 1.12100
O 	O 	0.39122 0.46836 0.66400 -0.37800
S 	S 	0.52941 0.35870 0.66183 0.02900
O 	O 	0.42712 0.74110 0.66320 -0.37200
C 	C 	0.54287 0.46433 0.66768 -0.07000
C 	C 	0.15186 0.57961 0.67203 0.30500
O 	O 	0.16173 0.50552 0.67605 -0.38200
O 	O 	0.22956 0.37608 0.68294 -0.38000
O 	O 	0.22924 0.66827 0.67211 -0.36900
C 	C 	0.45717 0.46960 0.67326 0.28500
H 	H 	0.43025 0.61806 0.67676 0.15100
C 	C 	0.20807 0.37942 0.69646 0.30900
O 	O 	0.36837 0.59374 0.68234 -0.71700
Ni	Ni	0.36148 0.70884 0.68329 1.11400
O 	O 	0.43902 0.46036 0.68726 -0.37500
O 	O 	0.27363 0.44633 0.70507 -0.38800
O 	O 	0.28037 0.66913 0.70211 -0.37400
Ni	Ni	0.40859 0.55198 0.69882 1.12100
C 	C 	0.56784 0.75808 0.69597 0.29000
O 	O 	0.49738 0.78327 0.69461 -0.36700
O 	O 	0.54665 0.66583 0.69535 -0.38600
S 	S 	0.68788 0.93736 0.70824 0.02300
C 	C 	0.66699 0.83144 0.70126 -0.07100
C 	C 	0.72998 0.80497 0.70845 -0.02200
H 	H 	0.72052 0.73241 0.70779 0.04300
C 	C 	0.31399 0.65031 0.71387 0.30600
O 	O 	0.39256 0.63846 0.71354 -0.37900
C 	C 	0.78922 0.87253 0.71920 0.01200
C 	C 	0.77495 0.95380 0.72011 0.00000
S 	S 	0.15871 0.64593 0.72867 0.03800
C 	C 	0.27152 0.65563 0.72762 -0.07600
C 	C 	0.82583 0.84512 0.73102 -0.05800
C 	C 	0.78741 0.00267 0.73311 -0.06300
H 	H 	0.82794 0.77761 0.73092 0.04000
H 	H 	0.76056 0.05390 0.73439 0.04300
H 	H 	0.98739 0.33362 0.73816 0.00500
C 	C 	0.33031 0.71836 0.73866 -0.01900
H 	H 	0.41090 0.75147 0.73891 0.04600
C 	C 	0.84854 0.90098 0.74349 -0.00400
C 	C 	0.82448 0.97537 0.74483 0.01400
C 	C 	0.17729 0.85437 0.75335 0.01900
C 	C 	0.17827 0.71615 0.74282 -0.00100
C 	C 	0.27769 0.75243 0.74720 0.01600
C 	C 	0.32521 0.83640 0.75575 -0.05500
C 	C 	0.27474 0.88798 0.75838 -0.00100
H 	H 	0.14455 0.13004 0.76343 0.04400
S 	S 	0.84749 0.85845 0.75978 -0.00300
C 	C 	0.80969 0.99398 0.75919 -0.01700
H 	H 	0.79305 0.05051 0.76226 0.03700
H 	H 	0.40022 0.86269 0.75974 0.04600
C 	C 	0.81920 0.93209 0.76902 -0.07400
C 	C 	0.18110 0.95293 0.77246 -0.07000
S 	S 	0.29184 0.95714 0.77269 0.02000
O 	O 	0.18892 0.20089 0.79119 -0.37600
C 	C 	0.85173 0.96113 0.78383 0.28800
O 	O 	0.87686 0.05049 0.78800 -0.39100
O 	O 	0.84491 0.89482 0.79320 -0.38100
O 	O 	0.19202 0.01999 0.79606 -0.38900
Ni	Ni	0.96368 0.90779 0.80481 1.10400
C 	C 	0.22691 0.83953 0.81840 -0.19800
H 	H 	0.25928 0.91041 0.81272 0.08500
Ni	Ni	0.16545 0.11242 0.80815 1.11900
H 	H 	0.28182 0.81363 0.81759 0.06800
C 	C 	0.17001 0.42118 0.82218 -0.19800
H 	H 	0.22734 0.41334 0.81608 0.08700
H 	H 	0.18869 0.49860 0.82154 0.07000
Ni	Ni	0.95089 0.10731 0.80714 1.09200
O 	O 	0.82551 0.99158 0.81647 -0.37700
H 	H 	0.15717 0.78557 0.81296 0.08700
O 	O 	0.15136 0.03911 0.82630 -0.39900
O 	O 	0.17333 0.22491 0.81997 -0.37900
C 	C 	0.83062 0.93026 0.82545 0.30600
O 	O 	0.89619 0.90110 0.82368 -0.39900
H 	H 	0.63188 0.83211 0.82221 0.04900
H 	H 	0.46350 0.71461 0.82817 0.06700
C 	C 	0.20508 0.85098 0.83379 0.08100
C 	C 	0.16731 0.38930 0.83746 0.08100
H 	H 	0.22523 0.53450 0.84600 0.04400
H 	H 	0.43721 0.77886 0.84187 0.08000
C 	C 	0.15741 0.90494 0.83747 -0.09100
H 	H 	0.26886 0.76596 0.84188 0.04100
C 	C 	0.23388 0.80869 0.84465 -0.03600
C 	C 	0.19693 0.45829 0.84853 -0.03700
C 	C 	0.58136 0.78978 0.84391 0.08200
C 	C 	0.65422 0.83630 0.83331 -0.04000
C 	C 	0.75587 0.88650 0.83690 -0.09100
C 	C 	0.47258 0.73381 0.83972 -0.19800
H 	H 	0.93415 0.01671 0.85028 0.05900
C 	C 	0.19292 0.43014 0.86282 -0.09100
C 	C 	0.14416 0.91976 0.85189 -0.03600
C 	C 	0.22134 0.82430 0.85905 -0.09400
C 	C 	0.71242 0.84570 0.86194 -0.03600
C 	C 	0.61075 0.79763 0.85839 -0.09500
C 	C 	0.78539 0.89145 0.85133 0.07200
C 	C 	0.89431 0.94413 0.85548 -0.17700
H 	H 	0.43289 0.66459 0.84581 0.08100
H 	H 	0.92884 0.90009 0.85217 0.06800
C 	C 	0.17350 0.87789 0.86273 0.08400
C 	C 	0.53632 0.76465 0.86993 0.30700
O 	O 	0.47533 0.79993 0.87066 -0.39000
C 	C 	0.15607 0.33088 0.86618 0.08100
O 	O 	0.22473 0.69748 0.87279 -0.39400
C 	C 	0.24178 0.50619 0.87381 0.30700
C 	C 	0.26519 0.79113 0.87014 0.30900
O 	O 	0.33941 0.55274 0.87461 -0.38400
H 	H 	0.73470 0.85034 0.87304 0.04700
H 	H 	0.90429 0.95616 0.86721 0.05700
H 	H 	0.22381 0.94019 0.88370 0.08800
C 	C 	0.14996 0.29870 0.88150 -0.19700
O 	O 	0.18779 0.51597 0.88389 -0.37900
C 	C 	0.15293 0.89004 0.87815 -0.19900
O 	O 	0.33528 0.85625 0.87850 -0.39000
Ni	Ni	0.43521 0.83428 0.88943 1.12100
O 	O 	0.53973 0.70996 0.88026 -0.37300
H 	H 	0.22579 0.33384 0.88631 0.07700
Ni	Ni	0.21958 0.64674 0.89262 1.12000
O 	O 	0.35960 0.70146 0.89485 -0.71500
Ni	Ni	0.41702 0.62116 0.89307 1.11200
O 	O 	0.20087 0.57972 0.91173 -0.37500
O 	O 	0.21915 0.76338 0.90202 -0.38400
C 	C 	0.25552 0.54035 0.91583 0.28300
C 	C 	0.29063 0.82904 0.91052 0.28600
O 	O 	0.30500 0.51742 0.90637 -0.37000
H 	H 	0.36396 0.71015 0.90530 0.14900
O 	O 	0.38685 0.86948 0.90715 -0.38500
C 	C 	0.55441 0.79323 0.91087 0.28600
O 	O 	0.50988 0.69697 0.91004 -0.37200
O 	O 	0.55837 0.84637 0.89963 -0.37700
C 	C 	0.17879 0.88651 0.92127 -0.02500
C 	C 	0.26239 0.87360 0.92205 -0.07400
C 	C 	0.19001 0.96691 0.92947 0.03300
S 	S 	0.71872 0.83146 0.92680 0.01700
C 	C 	0.61804 0.84165 0.92315 -0.06900
H 	H 	0.19775 0.60509 0.94066 0.04700
C 	C 	0.23788 0.56561 0.94208 -0.02300
C 	C 	0.25546 0.51633 0.93100 -0.07000
C 	C 	0.28319 0.01802 0.93628 -0.03200
S 	S 	0.32009 0.46639 0.93776 0.02100
S 	S 	0.34695 0.96159 0.93261 0.04300
C 	C 	0.71897 0.84359 0.94440 0.00000
C 	C 	0.57849 0.85068 0.93621 -0.02400
H 	H 	0.50380 0.84028 0.93719 0.04100
C 	C 	0.21743 0.08793 0.95284 0.01400
C 	C 	0.27617 0.55676 0.95543 0.01700
C 	C 	0.29602 0.07302 0.94862 -0.04800
C 	C 	0.32606 0.50280 0.95465 0.00100
H 	H 	0.36217 0.09813 0.95519 0.04000
C 	C 	0.63556 0.85165 0.94815 0.01900
C 	C 	0.76297 0.80885 0.95406 -0.05300
H 	H 	0.82595 0.80061 0.95090 0.04300
C 	C 	0.20826 0.11599 0.96691 -0.01900
H 	H 	0.26652 0.13805 0.97490 0.04400
C 	C 	0.33008 0.45083 0.96650 -0.05300
H 	H 	0.35113 0.39523 0.96524 0.04700
C 	C 	0.59940 0.83332 0.96219 -0.05400
C 	C 	0.72962 0.79382 0.96828 0.01600
H 	H 	0.53692 0.84249 0.96531 0.04900
H 	H 	0.19393 0.60318 0.96902 0.04800
C 	C 	0.24042 0.56963 0.96855 -0.05300
C 	C 	0.64645 0.80312 0.97214 0.00000
H 	H 	0.86885 0.81885 0.97837 0.04800
O 	O 	0.97977 0.05924 0.98700 -0.39900
C 	C 	0.25611 0.52794 0.98078 -0.00000
C 	C 	0.29559 0.46478 0.97972 0.01800
H 	H 	0.27167 0.33054 0.99024 0.04600
S 	S 	0.65842 0.83290 0.98932 0.02900
C 	C 	0.76457 0.83216 0.99274 -0.07100
C 	C 	0.79416 0.80747 0.97992 -0.01800
S 	S 	0.18018 0.49250 0.99479 0.03200
C 	C 	0.26270 0.39429 0.99081 -0.01700
