data_crystal

_cell_length_a 36.92966
_cell_length_b 36.89657
_cell_length_c 23.79065
_cell_angle_alpha 84.89092
_cell_angle_beta  88.23150
_cell_angle_gamma 89.99944

_symmetry_space_group_name_	'P 1'
_symmetry_space_group_name_H-M	'P 1'

loop_
_symmetry_equiv_pos_as_xyz
  x,y,z

loop_
_atom_site_label
_atom_site_type_symbol
_atom_site_fract_x
_atom_site_fract_y
_atom_site_fract_z
_atom_site_charge
Zn	Zn	0.95391 0.01091 0.30576 1.22800
Zn	Zn	0.99971 0.08358 0.24613 1.22000
C 	C 	0.06954 0.93792 0.29633 0.33100
Zn	Zn	0.03442 0.00862 0.25940 1.23800
Zn	Zn	0.98897 0.93616 0.31716 1.21200
H 	H 	0.01337 0.04658 0.33630 0.27100
C 	C 	0.00703 0.03260 0.14953 0.35300
O 	O 	0.94185 0.92787 0.35726 -0.41500
O 	O 	0.90999 0.97307 0.30991 -0.30100
O 	O 	0.00293 0.04063 0.30057 -0.77600
O 	O 	0.94820 0.09843 0.25616 -0.39300
O 	O 	0.95745 0.00383 0.38913 -0.39000
O 	O 	0.91659 0.04476 0.27319 -0.35300
O 	O 	0.00690 0.96623 0.38648 -0.32300
O 	O 	0.04788 0.09195 0.20818 -0.33800
H 	H 	0.97454 0.97417 0.22661 0.23800
O 	O 	0.07871 0.04607 0.25649 -0.28700
O 	O 	0.98509 0.97945 0.26276 -0.78400
O 	O 	0.03940 0.91869 0.30297 -0.38700
O 	O 	0.03339 0.01466 0.17585 -0.35000
O 	O 	0.06918 0.97361 0.29735 -0.32400
O 	O 	0.98409 0.05221 0.17751 -0.35700
C 	C 	0.91151 0.94021 0.33572 0.31400
C 	C 	0.91939 0.07842 0.24946 0.33600
C 	C 	0.98590 0.98841 0.41355 0.28600
C 	C 	0.07825 0.07834 0.22824 0.32200
Zn	Zn	0.95708 0.00947 0.80558 1.22800
Zn	Zn	0.99495 0.07728 0.72538 1.20700
C 	C 	0.07369 0.94373 0.80263 0.31000
Zn	Zn	0.03632 0.00755 0.75260 1.23500
Zn	Zn	0.99873 0.94078 0.84555 1.22900
H 	H 	0.01618 0.05194 0.82240 0.22700
C 	C 	0.99831 0.01372 0.64746 0.29800
O 	O 	0.95045 0.93169 0.88166 -0.36000
O 	O 	0.91609 0.96883 0.82265 -0.27800
O 	O 	0.00486 0.04163 0.79015 -0.76900
O 	O 	0.94425 0.09173 0.74274 -0.41400
O 	O 	0.95666 0.01723 0.88730 -0.36200
O 	O 	0.91935 0.03471 0.75864 -0.32900
O 	O 	0.00789 0.98344 0.90096 -0.34100
O 	O 	0.03847 0.08409 0.67527 -0.41100
H 	H 	0.98048 0.96140 0.74654 0.29100
O 	O 	0.07689 0.04783 0.72807 -0.30600
O 	O 	0.99125 0.97403 0.77701 -0.77900
O 	O 	0.05203 0.93344 0.84598 -0.34200
O 	O 	0.02801 0.00233 0.67256 -0.36300
O 	O 	0.07673 0.97844 0.78495 -0.35600
O 	O 	0.97613 0.03631 0.67141 -0.33200
C 	C 	0.92021 0.93839 0.85498 0.32100
C 	C 	0.91589 0.07009 0.74678 0.32600
C 	C 	0.98191 0.00355 0.92080 0.29400
C 	C 	0.07141 0.07574 0.69098 0.31600
Zn	Zn	0.24189 0.28719 0.06507 1.23700
Zn	Zn	0.30878 0.24554 0.99371 1.22000
C 	C 	0.17974 0.16961 0.10881 0.33400
Zn	Zn	0.24173 0.20458 0.04105 1.23500
Zn	Zn	0.17029 0.24790 0.09058 1.21100
H 	H 	0.28888 0.23360 0.09561 0.27000
C 	C 	0.24817 0.22010 0.91979 0.30900
O 	O 	0.16063 0.29487 0.12323 -0.38400
O 	O 	0.20135 0.32832 0.06621 -0.33400
O 	O 	0.27591 0.24170 0.06108 -0.77900
O 	O 	0.31530 0.29874 0.97451 -0.39200
O 	O 	0.24325 0.28318 0.14917 -0.31000
O 	O 	0.27082 0.32638 0.02387 -0.34500
O 	O 	0.20657 0.23279 0.16005 -0.37200
O 	O 	0.31826 0.19520 0.97537 -0.36500
H 	H 	0.20149 0.26174 0.99469 0.20300
O 	O 	0.28341 0.16402 0.04480 -0.27800
O 	O 	0.20959 0.25286 0.03274 -0.77200
O 	O 	0.15896 0.19564 0.08680 -0.40100
O 	O 	0.23549 0.19660 0.96052 -0.34800
O 	O 	0.21517 0.17079 0.09931 -0.31800
O 	O 	0.26642 0.24883 0.93197 -0.35700
C 	C 	0.17287 0.32652 0.10071 0.32400
C 	C 	0.30493 0.32431 0.00670 0.32500
C 	C 	0.22961 0.25498 0.18088 0.31500
C 	C 	0.31227 0.16616 0.01061 0.33200
Zn	Zn	0.24745 0.28534 0.58484 1.23300
Zn	Zn	0.31331 0.24531 0.51103 1.21500
C 	C 	0.17185 0.17591 0.57637 0.34100
Zn	Zn	0.24094 0.21010 0.53426 1.23400
Zn	Zn	0.17056 0.25491 0.58111 1.22700
H 	H 	0.28510 0.22359 0.60734 0.23600
C 	C 	0.25451 0.24094 0.42018 0.30800
O 	O 	0.16278 0.29770 0.62447 -0.37200
O 	O 	0.21232 0.33086 0.59086 -0.30000
O 	O 	0.27635 0.23756 0.57297 -0.78600
O 	O 	0.32800 0.29738 0.50993 -0.37900
O 	O 	0.23931 0.27142 0.66663 -0.39600
O 	O 	0.28535 0.32252 0.56737 -0.38000
O 	O 	0.19714 0.22765 0.65405 -0.35100
O 	O 	0.31970 0.19763 0.47933 -0.40600
H 	H 	0.21223 0.27703 0.49928 0.27900
O 	O 	0.27637 0.16456 0.53187 -0.29500
O 	O 	0.21542 0.26173 0.53498 -0.78100
O 	O 	0.15466 0.20621 0.56105 -0.34800
O 	O 	0.23992 0.21318 0.45122 -0.35100
O 	O 	0.20744 0.17509 0.57698 -0.36200
O 	O 	0.27706 0.26286 0.44249 -0.33000
C 	C 	0.17946 0.32920 0.61384 0.31700
C 	C 	0.31000 0.32590 0.52574 0.33900
C 	C 	0.21860 0.24398 0.68713 0.31500
C 	C 	0.30844 0.16675 0.50612 0.30800
Zn	Zn	0.25170 0.71682 0.28879 1.23100
Zn	Zn	0.32445 0.75648 0.33155 1.22800
C 	C 	0.18364 0.83439 0.29333 0.32000
Zn	Zn	0.25097 0.79518 0.33138 1.23400
Zn	Zn	0.18276 0.75716 0.26370 1.21200
H 	H 	0.28829 0.77944 0.24739 0.27200
C 	C 	0.27156 0.75452 0.43624 0.30700
O 	O 	0.17306 0.70911 0.23408 -0.38000
O 	O 	0.21186 0.67453 0.28969 -0.33000
O 	O 	0.28206 0.76623 0.28437 -0.77800
O 	O 	0.33733 0.70603 0.31427 -0.35500
O 	O 	0.25497 0.71755 0.20568 -0.31900
O 	O 	0.28145 0.67988 0.33216 -0.36800
O 	O 	0.22271 0.77020 0.19508 -0.36300
O 	O 	0.33461 0.79942 0.37303 -0.36000
H 	H 	0.20700 0.73759 0.36049 0.21500
O 	O 	0.29109 0.83699 0.33418 -0.30000
O 	O 	0.21777 0.74928 0.32477 -0.78000
O 	O 	0.17324 0.81069 0.25864 -0.38900
O 	O 	0.25507 0.78376 0.41356 -0.37500
O 	O 	0.21790 0.83617 0.30755 -0.33900
O 	O 	0.29170 0.73432 0.40465 -0.35100
C 	C 	0.18319 0.67721 0.25794 0.31400
C 	C 	0.31699 0.67717 0.32804 0.34200
C 	C 	0.24390 0.74595 0.17362 0.31300
C 	C 	0.32175 0.83228 0.36061 0.31900
Zn	Zn	0.24772 0.71716 0.79152 1.23200
Zn	Zn	0.31949 0.75967 0.82951 1.21700
C 	C 	0.18198 0.83561 0.77259 0.31100
Zn	Zn	0.24590 0.79779 0.82475 1.23400
Zn	Zn	0.17890 0.75681 0.75909 1.21800
H 	H 	0.28333 0.77789 0.74106 0.23300
C 	C 	0.26472 0.76010 0.93245 0.32200
O 	O 	0.16642 0.70595 0.74450 -0.35600
O 	O 	0.20798 0.67541 0.80105 -0.29800
O 	O 	0.27753 0.76712 0.77990 -0.77500
O 	O 	0.33253 0.70815 0.81952 -0.39700
O 	O 	0.25206 0.70959 0.71004 -0.36500
O 	O 	0.27659 0.68319 0.84128 -0.33700
O 	O 	0.21768 0.75938 0.68838 -0.33600
O 	O 	0.32847 0.80416 0.86773 -0.40500
H 	H 	0.20127 0.74175 0.85604 0.26400
O 	O 	0.28529 0.84030 0.82484 -0.29000
O 	O 	0.21334 0.75173 0.82043 -0.79300
O 	O 	0.17870 0.81022 0.73764 -0.37000
O 	O 	0.24902 0.78890 0.90741 -0.37600
O 	O 	0.21092 0.83727 0.80356 -0.32800
O 	O 	0.28666 0.73990 0.90387 -0.33300
C 	C 	0.17791 0.67586 0.77273 0.31500
C 	C 	0.31210 0.68034 0.83879 0.32900
C 	C 	0.23595 0.73154 0.67230 0.32600
C 	C 	0.31556 0.83661 0.85249 0.31600
Zn	Zn	0.53535 0.98693 0.02668 1.24000
Zn	Zn	0.49316 0.92240 0.96611 1.21700
C 	C 	0.42072 0.05473 0.03710 0.30900
Zn	Zn	0.45505 0.99326 0.98720 1.23300
Zn	Zn	0.49640 0.05191 0.06828 1.23200
H 	H 	0.47548 0.94517 0.06124 0.27500
C 	C 	0.49003 0.98919 0.87681 0.31800
O 	O 	0.54603 0.05715 0.09609 -0.39200
O 	O 	0.57774 0.02580 0.03207 -0.26400
O 	O 	0.48639 0.95649 0.02540 -0.76900
O 	O 	0.54427 0.90621 0.97700 -0.38700
O 	O 	0.53956 0.97330 0.10837 -0.33700
O 	O 	0.56923 0.96306 0.97607 -0.32800
O 	O 	0.48779 0.00400 0.12721 -0.35200
O 	O 	0.44785 0.91903 0.92418 -0.41100
H 	H 	0.51093 0.04013 0.96672 0.27200
O 	O 	0.41281 0.95505 0.97678 -0.30700
O 	O 	0.50112 0.02495 0.00013 -0.76200
O 	O 	0.44334 0.05887 0.07760 -0.33400
O 	O 	0.46190 0.00136 0.90483 -0.39800
O 	O 	0.41597 0.02232 0.01935 -0.35200
O 	O 	0.51170 0.96452 0.90126 -0.35000
C 	C 	0.57549 0.05274 0.06482 0.31200
C 	C 	0.57282 0.92759 0.97646 0.33500
C 	C 	0.51412 0.98221 0.14424 0.31300
C 	C 	0.41583 0.92890 0.94290 0.31700
Zn	Zn	0.53759 0.99196 0.53055 1.23800
Zn	Zn	0.49507 0.91879 0.49507 1.21700
C 	C 	0.42260 0.06387 0.50001 0.34400
Zn	Zn	0.46071 0.99389 0.47976 1.23900
Zn	Zn	0.50261 0.06616 0.52545 1.22300
H 	H 	0.47504 0.95818 0.57136 0.26200
C 	C 	0.50022 0.96920 0.38316 0.30800
O 	O 	0.54902 0.07450 0.56177 -0.40300
O 	O 	0.58196 0.02935 0.52509 -0.28600
O 	O 	0.48785 0.96301 0.53435 -0.78200
O 	O 	0.54428 0.90376 0.52047 -0.39000
O 	O 	0.53291 0.99691 0.61242 -0.37400
O 	O 	0.57369 0.95839 0.50108 -0.33600
O 	O 	0.48365 0.03438 0.60238 -0.33300
O 	O 	0.45200 0.90973 0.45019 -0.40100
H 	H 	0.52142 0.03095 0.44444 0.27800
O 	O 	0.41703 0.95572 0.48008 -0.29700
O 	O 	0.50858 0.02439 0.48097 -0.78800
O 	O 	0.45188 0.08245 0.51035 -0.37800
O 	O 	0.47105 0.98668 0.39950 -0.36800
O 	O 	0.42244 0.02798 0.50265 -0.34200
O 	O 	0.51910 0.94878 0.42001 -0.36200
C 	C 	0.58020 0.06154 0.54458 0.31600
C 	C 	0.57427 0.92269 0.50979 0.33900
C 	C 	0.50497 0.01340 0.63474 0.29500
C 	C 	0.42003 0.92450 0.45771 0.32000
Zn	Zn	0.75402 0.78391 0.42522 1.24000
Zn	Zn	0.81876 0.74154 0.35586 1.21500
C 	C 	0.68727 0.66683 0.45696 0.32000
Zn	Zn	0.74910 0.70315 0.39700 1.24000
Zn	Zn	0.68692 0.74505 0.47579 1.21800
H 	H 	0.79687 0.72566 0.45747 0.26400
C 	C 	0.75171 0.73565 0.28137 0.30400
O 	O 	0.68318 0.79403 0.50281 -0.41100
O 	O 	0.71530 0.82628 0.43168 -0.26800
O 	O 	0.78524 0.73599 0.42275 -0.78100
O 	O 	0.83500 0.79326 0.35514 -0.38500
O 	O 	0.76422 0.78570 0.50606 -0.33400
O 	O 	0.77918 0.81834 0.36956 -0.32700
O 	O 	0.73253 0.73315 0.53025 -0.35400
O 	O 	0.82203 0.69460 0.32117 -0.38900
H 	H 	0.70328 0.75896 0.37221 0.27300
O 	O 	0.78783 0.66116 0.38836 -0.31200
O 	O 	0.71700 0.74956 0.40547 -0.77800
O 	O 	0.67354 0.69249 0.48623 -0.38400
O 	O 	0.74142 0.70686 0.31500 -0.33300
O 	O 	0.72230 0.66575 0.44580 -0.33900
O 	O 	0.77628 0.75822 0.29750 -0.33500
C 	C 	0.68831 0.82392 0.46915 0.31000
C 	C 	0.81458 0.82152 0.36441 0.33500
C 	C 	0.75484 0.75867 0.54352 0.30400
C 	C 	0.81303 0.66312 0.34815 0.31900
Zn	Zn	0.75352 0.78290 0.93049 1.23700
Zn	Zn	0.82418 0.73838 0.88229 1.21700
C 	C 	0.67825 0.67060 0.92159 0.33500
Zn	Zn	0.74882 0.70561 0.88808 1.23900
Zn	Zn	0.67813 0.74993 0.94334 1.22300
H 	H 	0.78595 0.71952 0.97029 0.25900
C 	C 	0.77201 0.74414 0.78177 0.30400
O 	O 	0.67186 0.79709 0.97578 -0.40500
O 	O 	0.71792 0.82858 0.92737 -0.28100
O 	O 	0.78101 0.73240 0.93307 -0.78200
O 	O 	0.84200 0.78731 0.89861 -0.39000
O 	O 	0.74890 0.77863 0.01384 -0.36400
O 	O 	0.78803 0.81773 0.89070 -0.34000
O 	O 	0.70945 0.73061 0.01586 -0.32600
O 	O 	0.83080 0.69458 0.84031 -0.40600
H 	H 	0.71363 0.76736 0.85408 0.28200
O 	O 	0.78510 0.66057 0.88496 -0.29500
O 	O 	0.71994 0.75441 0.89055 -0.78600
O 	O 	0.66051 0.69913 0.93790 -0.37300
O 	O 	0.75470 0.71507 0.80533 -0.36300
O 	O 	0.71385 0.66899 0.92244 -0.34100
O 	O 	0.79368 0.76291 0.81154 -0.35600
C 	C 	0.68545 0.82773 0.95164 0.31500
C 	C 	0.82341 0.81783 0.89524 0.33800
C 	C 	0.73110 0.75148 0.04216 0.30300
C 	C 	0.81588 0.66276 0.85561 0.31800
Zn	Zn	0.74818 0.21014 0.10315 1.23300
Zn	Zn	0.81437 0.25716 0.15787 1.21800
C 	C 	0.67446 0.32541 0.09064 0.34000
Zn	Zn	0.74181 0.29098 0.13595 1.23400
Zn	Zn	0.67290 0.24438 0.09165 1.22600
H 	H 	0.78593 0.27101 0.06257 0.22900
C 	C 	0.75394 0.26216 0.25053 0.30300
O 	O 	0.66624 0.19699 0.06083 -0.36400
O 	O 	0.71075 0.16520 0.10785 -0.28400
O 	O 	0.77720 0.26006 0.10005 -0.77900
O 	O 	0.83174 0.20659 0.15479 -0.39900
O 	O 	0.74570 0.21444 0.01943 -0.34700
O 	O 	0.78112 0.17280 0.14030 -0.34400
O 	O 	0.70641 0.26276 0.01733 -0.36000
O 	O 	0.81894 0.30492 0.18896 -0.40600
H 	H 	0.70677 0.22888 0.17953 0.28600
O 	O 	0.77861 0.33641 0.13287 -0.28700
O 	O 	0.71389 0.24061 0.14196 -0.78400
O 	O 	0.65550 0.29509 0.09907 -0.37600
O 	O 	0.74006 0.28972 0.21927 -0.34600
O 	O 	0.71014 0.32516 0.09043 -0.35200
O 	O 	0.77666 0.23961 0.22780 -0.32700
C 	C 	0.67882 0.16627 0.08471 0.32400
C 	C 	0.81253 0.17658 0.16451 0.33900
C 	C 	0.72816 0.24097 0.99094 0.29000
C 	C 	0.80839 0.33549 0.16197 0.30900
Zn	Zn	0.75595 0.20935 0.60250 1.23300
Zn	Zn	0.82209 0.25516 0.66122 1.22500
C 	C 	0.68189 0.32315 0.58812 0.33100
Zn	Zn	0.74921 0.28974 0.63630 1.23200
Zn	Zn	0.68114 0.24333 0.59265 1.22000
H 	H 	0.79511 0.26934 0.56640 0.28000
C 	C 	0.76277 0.26678 0.75306 0.31400
O 	O 	0.67583 0.19784 0.55611 -0.40600
O 	O 	0.71885 0.16461 0.60401 -0.30600
O 	O 	0.78526 0.25823 0.60299 -0.78500
O 	O 	0.83669 0.20290 0.66816 -0.37400
O 	O 	0.75360 0.21635 0.51893 -0.37100
O 	O 	0.78997 0.17161 0.63291 -0.37000
O 	O 	0.71516 0.26495 0.52055 -0.32400
O 	O 	0.82786 0.30474 0.68559 -0.36000
H 	H 	0.71515 0.22748 0.68263 0.23200
O 	O 	0.78595 0.33466 0.63003 -0.28900
O 	O 	0.72178 0.23878 0.64439 -0.77900
O 	O 	0.66356 0.29321 0.60333 -0.39600
O 	O 	0.74686 0.29157 0.71909 -0.36600
O 	O 	0.71753 0.32393 0.58988 -0.33300
O 	O 	0.78422 0.24246 0.73221 -0.33600
C 	C 	0.68786 0.16648 0.57827 0.31400
C 	C 	0.81595 0.17369 0.66948 0.33200
C 	C 	0.73791 0.24493 0.49287 0.31000
C 	C 	0.81658 0.33445 0.65678 0.31800
Zn	Zn	0.44961 0.49862 0.94857 1.23900
Zn	Zn	0.49275 0.43291 0.02920 1.21900
C 	C 	0.56665 0.56723 0.93003 0.33200
Zn	Zn	0.53015 0.50262 0.98454 1.23900
Zn	Zn	0.48688 0.57128 0.91614 1.21700
H 	H 	0.50573 0.45430 0.92716 0.27500
C 	C 	0.50512 0.49757 0.10054 0.30300
O 	O 	0.44058 0.57636 0.87659 -0.38800
O 	O 	0.40708 0.53777 0.93778 -0.31100
O 	O 	0.49650 0.46661 0.95991 -0.78200
O 	O 	0.44065 0.41895 0.03532 -0.38900
O 	O 	0.45438 0.49650 0.86561 -0.33600
O 	O 	0.41251 0.46866 0.99197 -0.35300
O 	O 	0.50493 0.53290 0.85699 -0.33800
O 	O 	0.54187 0.42792 0.06074 -0.40800
H 	H 	0.47110 0.54263 0.01406 0.27500
O 	O 	0.57315 0.46396 0.99296 -0.27300
O 	O 	0.48178 0.53335 0.97961 -0.79100
O 	O 	0.53791 0.58800 0.92237 -0.38400
O 	O 	0.53213 0.50851 0.06582 -0.33600
O 	O 	0.56400 0.53160 0.93262 -0.32000
O 	O 	0.48030 0.47531 0.08473 -0.35700
C 	C 	0.40928 0.56628 0.90063 0.31700
C 	C 	0.41406 0.43327 0.00503 0.33500
C 	C 	0.48327 0.50933 0.83625 0.30500
C 	C 	0.57172 0.43553 0.03044 0.32200
Zn	Zn	0.45642 0.49899 0.44649 1.23500
Zn	Zn	0.49729 0.42781 0.51712 1.21400
C 	C 	0.57358 0.56644 0.44694 0.33100
Zn	Zn	0.53538 0.49979 0.48914 1.24000
Zn	Zn	0.49475 0.57190 0.42444 1.22000
H 	H 	0.51447 0.45781 0.42080 0.25800
C 	C 	0.50411 0.48735 0.60142 0.30000
O 	O 	0.44950 0.57955 0.38265 -0.40800
O 	O 	0.41408 0.53857 0.43659 -0.29100
O 	O 	0.50328 0.46671 0.45521 -0.79100
O 	O 	0.44527 0.41310 0.51228 -0.37900
O 	O 	0.46270 0.50075 0.36333 -0.39000
O 	O 	0.41864 0.46831 0.48685 -0.33100
O 	O 	0.51391 0.53600 0.36218 -0.35500
O 	O 	0.54474 0.41968 0.55398 -0.38200
H 	H 	0.47645 0.53941 0.51879 0.27400
O 	O 	0.57796 0.46047 0.49565 -0.29900
O 	O 	0.48774 0.53156 0.48369 -0.77900
O 	O 	0.54556 0.58760 0.43553 -0.38500
O 	O 	0.53292 0.49970 0.57169 -0.33700
O 	O 	0.57130 0.53105 0.44511 -0.34200
O 	O 	0.48179 0.46426 0.58088 -0.31400
C 	C 	0.41754 0.56903 0.40374 0.31400
C 	C 	0.41721 0.43252 0.49405 0.32000
C 	C 	0.49215 0.51468 0.33690 0.31000
C 	C 	0.57601 0.43084 0.53065 0.31400
Zn	Zn	0.03627 0.50861 0.17999 1.23400
Zn	Zn	0.99492 0.57108 0.25170 1.21200
C 	C 	0.91944 0.43639 0.19573 0.34200
Zn	Zn	0.95816 0.50022 0.23523 1.23400
Zn	Zn	0.99909 0.43543 0.17129 1.20700
H 	H 	0.97575 0.54940 0.15963 0.25900
C 	C 	0.99294 0.50459 0.34081 0.25200
O 	O 	0.04313 0.43273 0.12242 -0.38800
O 	O 	0.07891 0.47046 0.16775 -0.32700
O 	O 	0.98798 0.53782 0.19297 -0.79700
O 	O 	0.04512 0.58937 0.23422 -0.38400
O 	O 	0.02755 0.51211 0.09765 -0.32000
O 	O 	0.07590 0.53852 0.20881 -0.35400
O 	O 	0.97699 0.47589 0.10941 -0.37600
O 	O 	0.94975 0.57323 0.29855 -0.38000
H 	H 	0.01960 0.46106 0.25936 0.23300
O 	O 	0.91534 0.53745 0.24762 -0.31800
O 	O 	0.00715 0.47148 0.22539 -0.76800
O 	O 	0.94932 0.41705 0.19381 -0.39300
O 	O 	0.96321 0.49411 0.31761 -0.30800
O 	O 	0.92050 0.47184 0.19918 -0.34500
O 	O 	0.01480 0.52857 0.31250 -0.33300
C 	C 	0.07526 0.44229 0.13819 0.31800
C 	C 	0.07539 0.57101 0.22851 0.34000
C 	C 	0.99785 0.49890 0.07747 0.28100
C 	C 	0.91788 0.56254 0.28319 0.31900
Zn	Zn	0.03908 0.50920 0.68303 1.23700
Zn	Zn	0.99222 0.57743 0.73551 1.21600
C 	C 	0.92425 0.43696 0.69408 0.34000
Zn	Zn	0.95829 0.50436 0.72822 1.23300
Zn	Zn	0.00467 0.43301 0.68961 1.23500
H 	H 	0.97968 0.54706 0.64636 0.22800
C 	C 	0.98506 0.51788 0.83639 0.27900
O 	O 	0.05230 0.42472 0.65343 -0.36900
O 	O 	0.08345 0.47149 0.68654 -0.30500
O 	O 	0.98988 0.53903 0.68340 -0.78900
O 	O 	0.04321 0.59346 0.72311 -0.36900
O 	O 	0.03583 0.50512 0.60081 -0.34600
O 	O 	0.07615 0.54216 0.71001 -0.36000
O 	O 	0.98896 0.46420 0.61229 -0.40400
O 	O 	0.94452 0.58296 0.77418 -0.40200
H 	H 	0.01931 0.47028 0.76806 0.28100
O 	O 	0.91372 0.54144 0.72832 -0.28900
O 	O 	0.00804 0.47602 0.73132 -0.77300
O 	O 	0.95336 0.41761 0.70620 -0.37700
O 	O 	0.95785 0.50384 0.81107 -0.34500
O 	O 	0.92481 0.47275 0.69082 -0.35100
O 	O 	0.00803 0.54036 0.80756 -0.31200
C 	C 	0.08262 0.43854 0.66966 0.33600
C 	C 	0.07186 0.57311 0.73338 0.33200
C 	C 	0.01222 0.48384 0.57905 0.32800
C 	C 	0.91381 0.56985 0.75802 0.31400
C 	C 	0.03411 0.50142 0.42194 0.04300
C 	C 	0.00179 0.49027 0.39917 0.08700
C 	C 	0.97682 0.46910 0.43479 -0.09400
C 	C 	0.97900 0.47002 0.49350 0.06400
C 	C 	0.01047 0.48320 0.51674 0.02500
C 	C 	0.04013 0.49458 0.47981 -0.05800
C 	C 	0.07848 0.49641 0.50036 0.78600
H 	H 	0.05492 0.51462 0.39450 0.15500
H 	H 	0.95705 0.45882 0.52102 0.10600
C 	C 	0.95202 0.44153 0.41180 0.79600
F 	F 	0.10361 0.49306 0.45671 -0.35500
F 	F 	0.08440 0.46822 0.54116 -0.42900
F 	F 	0.08420 0.52941 0.52206 -0.39000
F 	F 	0.96816 0.42705 0.36552 -0.41200
F 	F 	0.91962 0.45778 0.39665 -0.33600
F 	F 	0.94466 0.41290 0.45219 -0.36700
C 	C 	0.97977 0.54158 0.93025 0.08600
C 	C 	0.98723 0.51218 0.89822 0.03400
C 	C 	0.99647 0.47784 0.92560 -0.06500
C 	C 	0.99815 0.47395 0.98474 0.02400
C 	C 	0.99209 0.50365 0.01642 0.06700
C 	C 	0.98138 0.53749 0.98947 -0.09500
C 	C 	0.97053 0.56872 0.02381 0.78900
H 	H 	0.97253 0.56760 0.90880 0.10700
H 	H 	0.00504 0.44791 0.00638 0.15100
C 	C 	0.00835 0.44656 0.89197 0.80500
F 	F 	0.95732 0.59805 0.99022 -0.39300
F 	F 	0.00024 0.58035 0.05137 -0.40700
F 	F 	0.94363 0.55730 0.06316 -0.42500
F 	F 	0.04068 0.45564 0.86332 -0.39500
F 	F 	0.98231 0.43920 0.85404 -0.43800
F 	F 	0.01375 0.41491 0.92649 -0.37100
C 	C 	0.45958 0.50605 0.74073 0.06800
C 	C 	0.48871 0.50106 0.77707 0.03400
C 	C 	0.52347 0.49241 0.75493 -0.06900
C 	C 	0.52840 0.49095 0.69644 0.07100
C 	C 	0.49920 0.49593 0.66042 0.03600
C 	C 	0.46519 0.50686 0.68195 -0.06000
C 	C 	0.43804 0.52628 0.64307 0.78400
H 	H 	0.43297 0.51154 0.75814 0.16300
H 	H 	0.55501 0.48575 0.67880 0.16300
C 	C 	0.55568 0.48592 0.79278 0.79000
F 	F 	0.40739 0.53656 0.67248 -0.33100
F 	F 	0.42697 0.50417 0.60307 -0.38000
F 	F 	0.45394 0.55731 0.61613 -0.40600
F 	F 	0.54566 0.46555 0.84234 -0.42000
F 	F 	0.56968 0.51895 0.80513 -0.39500
F 	F 	0.58283 0.46702 0.76665 -0.34300
C 	C 	0.52681 0.48453 0.19709 0.06600
C 	C 	0.50541 0.50589 0.15960 0.02600
C 	C 	0.48156 0.53200 0.18005 -0.07700
C 	C 	0.47712 0.53377 0.23855 0.06900
C 	C 	0.49754 0.51148 0.27626 0.01000
C 	C 	0.52345 0.48725 0.25555 -0.07400
C 	C 	0.54491 0.46185 0.29569 0.77700
H 	H 	0.54503 0.46471 0.18066 0.10200
H 	H 	0.45774 0.55251 0.25505 0.09400
C 	C 	0.46101 0.55799 0.13963 0.77800
F 	F 	0.57149 0.44351 0.26730 -0.38200
F 	F 	0.52171 0.43640 0.32361 -0.44800
F 	F 	0.56184 0.48122 0.33461 -0.42900
F 	F 	0.43576 0.53885 0.11222 -0.42800
F 	F 	0.48497 0.57542 0.10031 -0.42500
F 	F 	0.44295 0.58440 0.16737 -0.38400
C 	C 	0.83532 0.38637 0.70786 0.06300
C 	C 	0.83709 0.36836 0.65845 0.03800
C 	C 	0.86323 0.37901 0.61556 -0.08400
C 	C 	0.89082 0.40331 0.62689 0.07800
C 	C 	0.89138 0.41822 0.67902 0.00700
C 	C 	0.86228 0.41153 0.71863 -0.05200
C 	C 	0.86096 0.42978 0.77342 0.77600
H 	H 	0.81400 0.37934 0.73910 0.15600
H 	H 	0.91279 0.40946 0.59623 0.09700
C 	C 	0.86313 0.36261 0.55928 0.78300
F 	F 	0.82935 0.42149 0.80475 -0.35600
F 	F 	0.86265 0.46715 0.76182 -0.39300
F 	F 	0.88999 0.41837 0.80582 -0.38400
F 	F 	0.82876 0.36459 0.53771 -0.36200
F 	F 	0.87363 0.32656 0.56657 -0.42500
F 	F 	0.88657 0.38088 0.52002 -0.35300
C 	C 	0.64904 0.37859 0.61084 0.06800
C 	C 	0.66203 0.35649 0.56982 0.01600
C 	C 	0.65131 0.36336 0.51324 -0.06900
C 	C 	0.62404 0.38919 0.50053 0.06000
C 	C 	0.60896 0.40930 0.54267 0.02400
C 	C 	0.62339 0.40590 0.59733 -0.07000
C 	C 	0.61035 0.43012 0.64194 0.78100
H 	H 	0.65780 0.37345 0.65389 0.11000
H 	H 	0.61340 0.39259 0.45844 0.11200
C 	C 	0.66723 0.34169 0.46718 0.77700
F 	F 	0.63363 0.42895 0.68658 -0.36000
F 	F 	0.57642 0.41873 0.66247 -0.40800
F 	F 	0.60855 0.46582 0.61902 -0.37900
F 	F 	0.65364 0.30660 0.47384 -0.43300
F 	F 	0.70456 0.34064 0.47004 -0.37700
F 	F 	0.65882 0.35707 0.41397 -0.37700
C 	C 	0.75383 0.28007 0.90930 0.06000
C 	C 	0.73524 0.24825 0.92962 0.02000
C 	C 	0.72332 0.22384 0.89130 -0.06900
C 	C 	0.73236 0.23076 0.83352 0.07400
C 	C 	0.75167 0.26212 0.81329 0.02300
C 	C 	0.76221 0.28740 0.85126 -0.06900
C 	C 	0.78261 0.32188 0.83009 0.77800
H 	H 	0.76211 0.29889 0.93897 0.10000
H 	H 	0.72448 0.21167 0.80400 0.11600
C 	C 	0.70055 0.19084 0.91178 0.78000
F 	F 	0.79112 0.34257 0.87367 -0.37400
F 	F 	0.76152 0.34291 0.79291 -0.40500
F 	F 	0.81461 0.31301 0.80295 -0.41800
F 	F 	0.67038 0.20173 0.94170 -0.42700
F 	F 	0.72085 0.16702 0.94611 -0.40600
F 	F 	0.68865 0.17247 0.86751 -0.36700
C 	C 	0.77263 0.27673 0.34488 0.07800
C 	C 	0.74805 0.25945 0.31230 0.04100
C 	C 	0.71905 0.23875 0.33908 -0.06100
C 	C 	0.71647 0.23429 0.39841 0.07900
C 	C 	0.74133 0.25116 0.43097 0.03500
C 	C 	0.76913 0.27351 0.40419 -0.06100
C 	C 	0.79626 0.29221 0.43862 0.78200
H 	H 	0.79477 0.29236 0.32384 0.10700
H 	H 	0.69521 0.21747 0.41954 0.10700
C 	C 	0.69117 0.22112 0.30468 0.78000
F 	F 	0.81796 0.31653 0.40506 -0.36100
F 	F 	0.81833 0.26631 0.46558 -0.42300
F 	F 	0.77838 0.31144 0.47833 -0.38900
F 	F 	0.70772 0.19496 0.27467 -0.38400
F 	F 	0.67559 0.24726 0.26776 -0.41800
F 	F 	0.66368 0.20445 0.33849 -0.37000
C 	C 	0.83478 0.37929 0.22258 0.06600
C 	C 	0.82888 0.36928 0.16800 0.02800
C 	C 	0.84828 0.38728 0.12128 -0.08300
C 	C 	0.87635 0.41162 0.13105 0.07200
C 	C 	0.88460 0.41871 0.18615 0.01000
C 	C 	0.86218 0.40440 0.23208 -0.06600
C 	C 	0.86910 0.41382 0.29163 0.78100
H 	H 	0.81934 0.36589 0.25798 0.12000
H 	H 	0.89299 0.42377 0.09604 0.10200
C 	C 	0.83993 0.37969 0.06130 0.78500
F 	F 	0.84120 0.40192 0.32897 -0.35100
F 	F 	0.87209 0.45114 0.29261 -0.37800
F 	F 	0.90091 0.39761 0.30990 -0.37200
F 	F 	0.80396 0.38742 0.05108 -0.37800
F 	F 	0.84655 0.34349 0.05387 -0.43700
F 	F 	0.86093 0.40079 0.02176 -0.37800
C 	C 	0.61665 0.40918 0.09753 0.06800
C 	C 	0.60451 0.41363 0.04202 0.02600
C 	C 	0.62051 0.39304 0.00027 -0.07400
C 	C 	0.64601 0.36602 0.01643 0.08300
C 	C 	0.65552 0.35940 0.07296 0.01000
C 	C 	0.64263 0.38260 0.11327 -0.06500
C 	C 	0.65483 0.37752 0.17380 0.77900
H 	H 	0.60464 0.42545 0.12895 0.11800
H 	H 	0.65728 0.34890 0.98558 0.09500
C 	C 	0.61003 0.39940 0.93887 0.77900
F 	F 	0.64411 0.40626 0.20407 -0.36400
F 	F 	0.69222 0.37537 0.17471 -0.39800
F 	F 	0.64003 0.34578 0.20021 -0.39100
F 	F 	0.61923 0.43450 0.91810 -0.36000
F 	F 	0.57313 0.39442 0.93445 -0.42400
F 	F 	0.62765 0.37569 0.90534 -0.38500
C 	C 	0.83147 0.62790 0.77419 0.07200
C 	C 	0.83122 0.63008 0.83277 0.02000
C 	C 	0.85131 0.60468 0.86721 -0.07400
C 	C 	0.87555 0.58132 0.84147 0.07200
C 	C 	0.87963 0.58294 0.78246 0.02800
C 	C 	0.85519 0.60397 0.74855 -0.07400
C 	C 	0.85589 0.60259 0.68498 0.78400
H 	H 	0.81478 0.64646 0.74839 0.10400
H 	H 	0.89337 0.56387 0.86714 0.10700
C 	C 	0.84887 0.60425 0.93108 0.78300
F 	F 	0.82693 0.62113 0.66055 -0.37100
F 	F 	0.85394 0.56685 0.67202 -0.37600
F 	F 	0.88763 0.61815 0.66176 -0.40800
F 	F 	0.81303 0.60148 0.94962 -0.37600
F 	F 	0.86353 0.63602 0.94744 -0.41300
F 	F 	0.86742 0.57508 0.95710 -0.37900
C 	C 	0.64896 0.61648 0.97197 0.06000
C 	C 	0.65803 0.63649 0.92065 0.02600
C 	C 	0.64313 0.62674 0.87015 -0.07900
C 	C 	0.61468 0.60126 0.87328 0.07700
C 	C 	0.60260 0.58434 0.92561 0.02400
C 	C 	0.62175 0.58970 0.97477 -0.07600
C 	C 	0.61148 0.56876 0.03082 0.78400
H 	H 	0.66161 0.62333 0.01015 0.14800
H 	H 	0.60048 0.59615 0.83556 0.12500
C 	C 	0.65549 0.64553 0.81351 0.78000
F 	F 	0.63630 0.57421 0.07171 -0.37000
F 	F 	0.61032 0.53190 0.02445 -0.41200
F 	F 	0.57780 0.57998 0.04947 -0.41300
F 	F 	0.69294 0.64720 0.80976 -0.41700
F 	F 	0.64170 0.68047 0.80784 -0.41700
F 	F 	0.64382 0.62702 0.76924 -0.38000
C 	C 	0.79371 0.73242 0.68593 0.07200
C 	C 	0.77135 0.75248 0.72029 0.01900
C 	C 	0.74759 0.77903 0.69539 -0.07200
C 	C 	0.74383 0.78184 0.63657 0.07100
C 	C 	0.76451 0.76004 0.60262 0.02800
C 	C 	0.79131 0.73679 0.62689 -0.07200
C 	C 	0.81678 0.71616 0.59003 0.78000
H 	H 	0.81247 0.71289 0.70543 0.09400
H 	H 	0.72361 0.79983 0.61727 0.10300
C 	C 	0.72351 0.80170 0.73137 0.78000
F 	F 	0.84477 0.70008 0.62056 -0.38500
F 	F 	0.83193 0.73977 0.54727 -0.42200
F 	F 	0.79780 0.68920 0.56666 -0.41200
F 	F 	0.74288 0.81504 0.77394 -0.41000
F 	F 	0.69512 0.78043 0.75469 -0.41300
F 	F 	0.70929 0.83127 0.69950 -0.36200
C 	C 	0.73578 0.70873 0.19350 0.06500
C 	C 	0.73926 0.73987 0.22264 0.04100
C 	C 	0.73427 0.77464 0.19363 -0.08200
C 	C 	0.73291 0.77769 0.13445 0.07300
C 	C 	0.73303 0.74659 0.10440 0.01600
C 	C 	0.73450 0.71149 0.13428 -0.06200
C 	C 	0.73428 0.67694 0.10375 0.78600
H 	H 	0.73548 0.68223 0.21693 0.16700
H 	H 	0.73125 0.80439 0.11159 0.11600
C 	C 	0.73031 0.80859 0.22501 0.79000
F 	F 	0.74395 0.64683 0.13894 -0.34400
F 	F 	0.75874 0.67973 0.05836 -0.41900
F 	F 	0.69989 0.67092 0.08510 -0.40000
F 	F 	0.76421 0.82253 0.23385 -0.39900
F 	F 	0.71210 0.80097 0.27639 -0.41100
F 	F 	0.71075 0.83501 0.19411 -0.36700
C 	C 	0.85578 0.61377 0.37604 0.06200
C 	C 	0.83290 0.63024 0.33550 0.01800
C 	C 	0.83232 0.61749 0.28125 -0.07000
C 	C 	0.85950 0.59356 0.26522 0.06400
C 	C 	0.88492 0.57993 0.30417 0.02100
C 	C 	0.88067 0.58714 0.36156 -0.06900
C 	C 	0.90336 0.56777 0.40704 0.77900
H 	H 	0.85511 0.62264 0.41831 0.10800
H 	H 	0.86196 0.58685 0.22182 0.11800
C 	C 	0.80340 0.62994 0.24013 0.78200
F 	F 	0.93584 0.58600 0.41010 -0.42000
F 	F 	0.91016 0.53227 0.39568 -0.38500
F 	F 	0.88546 0.56672 0.45917 -0.38500
F 	F 	0.81129 0.66473 0.21646 -0.41500
F 	F 	0.76992 0.62975 0.26785 -0.37600
F 	F 	0.80136 0.60709 0.19721 -0.35800
C 	C 	0.65227 0.61469 0.50298 0.07200
C 	C 	0.66573 0.63377 0.45311 0.01700
C 	C 	0.65422 0.62416 0.40022 -0.08200
C 	C 	0.62553 0.59929 0.39874 0.07400
C 	C 	0.60937 0.58330 0.44894 0.01500
C 	C 	0.62463 0.58870 0.50127 -0.07600
C 	C 	0.61003 0.56834 0.55546 0.77800
H 	H 	0.66217 0.62142 0.54320 0.11900
H 	H 	0.61441 0.59377 0.35874 0.11300
C 	C 	0.67162 0.64135 0.34562 0.77700
F 	F 	0.63198 0.57291 0.60045 -0.37100
F 	F 	0.60823 0.53155 0.54887 -0.40100
F 	F 	0.57572 0.58088 0.56825 -0.42100
F 	F 	0.70856 0.63530 0.34577 -0.40300
F 	F 	0.66515 0.67841 0.34057 -0.44800
F 	F 	0.65815 0.62682 0.29878 -0.38100
C 	C 	0.61442 0.89350 0.44251 0.07300
C 	C 	0.60785 0.90337 0.49736 0.01300
C 	C 	0.63192 0.89230 0.54055 -0.06700
C 	C 	0.65995 0.86794 0.52933 0.06600
C 	C 	0.66462 0.85540 0.47560 0.02500
C 	C 	0.64258 0.86938 0.43096 -0.08200
C 	C 	0.64875 0.85830 0.37134 0.78600
H 	H 	0.59661 0.90363 0.40934 0.11000
H 	H 	0.67729 0.85745 0.56292 0.12100
C 	C 	0.62660 0.90495 0.59924 0.77900
F 	F 	0.62327 0.87346 0.33481 -0.38200
F 	F 	0.64655 0.82087 0.37132 -0.43000
F 	F 	0.68262 0.86997 0.35084 -0.36100
F 	F 	0.59543 0.88940 0.62459 -0.40200
F 	F 	0.62340 0.94244 0.59576 -0.39800
F 	F 	0.65549 0.89529 0.63314 -0.35600
C 	C 	0.62336 0.08727 0.60783 0.06900
C 	C 	0.61371 0.08170 0.55273 0.01900
C 	C 	0.63344 0.09926 0.50611 -0.07500
C 	C 	0.66031 0.12482 0.51579 0.06800
C 	C 	0.66747 0.13304 0.57080 0.01600
C 	C 	0.65021 0.11284 0.61753 -0.07700
C 	C 	0.65980 0.11907 0.67761 0.78300
H 	H 	0.60877 0.07271 0.64310 0.11200
H 	H 	0.67451 0.13974 0.48047 0.11400
C 	C 	0.62513 0.09160 0.44610 0.78300
F 	F 	0.63993 0.09679 0.71710 -0.36100
F 	F 	0.65287 0.15482 0.68765 -0.43200
F 	F 	0.69611 0.11172 0.68536 -0.38100
F 	F 	0.58957 0.10069 0.43483 -0.40900
F 	F 	0.63030 0.05505 0.43971 -0.36400
F 	F 	0.64733 0.11137 0.40661 -0.35700
C 	C 	0.46293 0.99716 0.78280 0.07100
C 	C 	0.49374 0.99899 0.81544 0.01200
C 	C 	0.52739 0.00988 0.78913 -0.07600
C 	C 	0.53034 0.01416 0.72986 0.06400
C 	C 	0.49978 0.01100 0.69686 0.01900
C 	C 	0.46531 0.00367 0.72367 -0.08500
C 	C 	0.43089 0.00437 0.69007 0.78500
H 	H 	0.43707 0.99019 0.80372 0.10100
H 	H 	0.55650 0.02004 0.70912 0.11100
C 	C 	0.56046 0.01599 0.82361 0.78400
F 	F 	0.40093 0.99340 0.72369 -0.36700
F 	F 	0.43401 0.98123 0.64760 -0.42400
F 	F 	0.42459 0.03941 0.66687 -0.40800
F 	F 	0.57560 0.98282 0.84134 -0.39800
F 	F 	0.55114 0.03434 0.87018 -0.40500
F 	F 	0.58640 0.03666 0.79202 -0.36100
C 	C 	0.48870 0.94505 0.29191 0.07300
C 	C 	0.50878 0.96827 0.32264 0.01400
C 	C 	0.53620 0.99074 0.29493 -0.06900
C 	C 	0.53980 0.99256 0.23575 0.07500
C 	C 	0.51740 0.97171 0.20470 0.02700
C 	C 	0.49362 0.94572 0.23306 -0.07100
C 	C 	0.47211 0.92006 0.20040 0.78300
H 	H 	0.46872 0.92700 0.31384 0.09200
H 	H 	0.55837 0.01198 0.21343 0.10200
C 	C 	0.55881 0.01577 0.32720 0.77600
F 	F 	0.45800 0.89121 0.23553 -0.37700
F 	F 	0.49416 0.90588 0.15973 -0.40900
F 	F 	0.44381 0.93875 0.17449 -0.38900
F 	F 	0.57177 0.99736 0.37562 -0.41000
F 	F 	0.53774 0.04471 0.34155 -0.41400
F 	F 	0.58844 0.02940 0.29498 -0.36200
C 	C 	0.61919 0.90267 0.91373 0.07400
C 	C 	0.60888 0.91194 0.96776 0.01700
C 	C 	0.62994 0.90005 0.01444 -0.06300
C 	C 	0.65720 0.87406 0.00766 0.08100
C 	C 	0.66479 0.86158 0.95460 0.01300
C 	C 	0.64755 0.87791 0.90642 -0.07500
C 	C 	0.65815 0.86764 0.84770 0.78400
H 	H 	0.60360 0.91302 0.87796 0.12900
H 	H 	0.67123 0.86205 0.04408 0.11700
C 	C 	0.62160 0.91300 0.07220 0.77700
F 	F 	0.63973 0.88812 0.80620 -0.36300
F 	F 	0.65038 0.83130 0.84361 -0.42000
F 	F 	0.69483 0.87353 0.83740 -0.36000
F 	F 	0.58964 0.89727 0.09426 -0.40100
F 	F 	0.61802 0.95046 0.06782 -0.40500
F 	F 	0.64896 0.90385 0.10934 -0.36500
C 	C 	0.64990 0.12246 0.02693 0.07400
C 	C 	0.65834 0.13226 0.08057 0.03200
C 	C 	0.64304 0.11245 0.12931 -0.07500
C 	C 	0.61803 0.08437 0.12285 0.07200
C 	C 	0.60687 0.07712 0.06906 0.02400
C 	C 	0.62307 0.09628 0.02033 -0.05800
C 	C 	0.61181 0.08910 0.96130 0.77600
H 	H 	0.66322 0.13641 0.99019 0.15200
H 	H 	0.60622 0.06886 0.15973 0.12100
C 	C 	0.65317 0.12124 0.18805 0.78400
F 	F 	0.62687 0.11424 0.92051 -0.34900
F 	F 	0.57455 0.09126 0.95742 -0.40700
F 	F 	0.62328 0.05486 0.94938 -0.36000
F 	F 	0.64589 0.15740 0.19493 -0.40300
F 	F 	0.68968 0.11475 0.19536 -0.36500
F 	F 	0.63395 0.10017 0.22989 -0.35200
C 	C 	0.12542 0.63847 0.80909 0.07000
C 	C 	0.15628 0.64251 0.77342 0.02800
C 	C 	0.16394 0.61635 0.73476 -0.06400
C 	C 	0.13656 0.59172 0.72359 0.07300
C 	C 	0.10386 0.59030 0.75543 0.02300
C 	C 	0.10049 0.61047 0.80316 -0.07600
C 	C 	0.07119 0.60156 0.84830 0.78100
H 	H 	0.12062 0.65741 0.84083 0.10400
H 	H 	0.14001 0.57484 0.68881 0.12200
C 	C 	0.20121 0.61419 0.70659 0.78400
F 	F 	0.07948 0.61580 0.89829 -0.38400
F 	F 	0.06791 0.56425 0.85937 -0.40300
F 	F 	0.03848 0.61592 0.83051 -0.44200
F 	F 	0.22752 0.61335 0.74684 -0.39300
F 	F 	0.20701 0.64411 0.66822 -0.38700
F 	F 	0.20492 0.58313 0.67831 -0.37400
C 	C 	0.34028 0.62208 0.81844 0.07100
C 	C 	0.32927 0.64578 0.85842 0.01600
C 	C 	0.33862 0.63824 0.91559 -0.06900
C 	C 	0.36316 0.60999 0.92976 0.05900
C 	C 	0.37694 0.58852 0.88842 0.01900
C 	C 	0.36305 0.59253 0.83348 -0.06900
C 	C 	0.37462 0.56719 0.78966 0.78200
H 	H 	0.33230 0.62757 0.77504 0.11800
H 	H 	0.37322 0.60601 0.97218 0.10900
C 	C 	0.32461 0.66179 0.96065 0.77100
F 	F 	0.35047 0.56829 0.74616 -0.34900
F 	F 	0.37597 0.53167 0.81373 -0.38200
F 	F 	0.40846 0.57760 0.76748 -0.40100
F 	F 	0.28754 0.66619 0.95711 -0.38400
F 	F 	0.34141 0.69543 0.95331 -0.43500
F 	F 	0.33149 0.64625 0.01439 -0.36600
C 	C 	0.33292 0.87009 0.93278 0.07200
C 	C 	0.33235 0.86849 0.87416 0.02200
C 	C 	0.35389 0.89289 0.83819 -0.07200
C 	C 	0.37936 0.91491 0.86198 0.06900
C 	C 	0.38311 0.91312 0.92069 0.01700
C 	C 	0.35846 0.89194 0.95675 -0.08400
C 	C 	0.35998 0.89184 0.02054 0.79200
H 	H 	0.31505 0.85235 0.95975 0.10000
H 	H 	0.39763 0.93211 0.83486 0.10300
C 	C 	0.35110 0.89402 0.77452 0.78100
F 	F 	0.33440 0.86861 0.04809 -0.37200
F 	F 	0.35332 0.92650 0.03612 -0.37100
F 	F 	0.39380 0.88061 0.03843 -0.40100
F 	F 	0.31549 0.89975 0.75972 -0.35400
F 	F 	0.36289 0.86138 0.75614 -0.41700
F 	F 	0.37189 0.92174 0.74695 -0.36200
C 	C 	0.22665 0.73942 0.51375 0.06900
C 	C 	0.26308 0.74176 0.49570 0.01600
C 	C 	0.29073 0.73553 0.53559 -0.07300
C 	C 	0.28092 0.72867 0.59325 0.07200
C 	C 	0.24451 0.72951 0.61159 0.02900
C 	C 	0.21691 0.73277 0.57122 -0.06500
C 	C 	0.17703 0.73124 0.58905 0.78200
H 	H 	0.20579 0.74404 0.48285 0.09800
H 	H 	0.30170 0.72466 0.62435 0.10400
C 	C 	0.33053 0.73714 0.51720 0.78500
F 	F 	0.15559 0.72443 0.54441 -0.39300
F 	F 	0.16659 0.76413 0.60800 -0.41000
F 	F 	0.17063 0.70371 0.63131 -0.40200
F 	F 	0.33837 0.77029 0.48756 -0.42900
F 	F 	0.33835 0.70942 0.48335 -0.41700
F 	F 	0.35300 0.73326 0.56286 -0.39500
C 	C 	0.22123 0.74218 0.07785 0.06700
C 	C 	0.25048 0.74781 0.11211 0.04500
C 	C 	0.28528 0.75580 0.08720 -0.07000
C 	C 	0.28966 0.75829 0.02795 0.10200
C 	C 	0.26030 0.75229 0.99397 0.00600
C 	C 	0.22634 0.74183 0.01925 -0.03300
C 	C 	0.19562 0.73021 0.98398 0.76000
H 	H 	0.19442 0.73823 0.09702 0.13200
H 	H 	0.31559 0.76618 0.00799 0.11300
C 	C 	0.31665 0.76544 0.12292 0.78400
F 	F 	0.16774 0.71387 0.01724 -0.35800
F 	F 	0.20811 0.70526 0.94789 -0.41500
F 	F 	0.18185 0.76032 0.95306 -0.44700
F 	F 	0.32229 0.73796 0.16515 -0.40500
F 	F 	0.30895 0.79749 0.14680 -0.41000
F 	F 	0.34860 0.77031 0.09111 -0.37300
C 	C 	0.14835 0.62218 0.29585 0.06300
C 	C 	0.16217 0.64406 0.24879 0.01800
C 	C 	0.15339 0.63557 0.19375 -0.07200
C 	C 	0.12628 0.60950 0.18758 0.06900
C 	C 	0.11003 0.59002 0.23495 0.01500
C 	C 	0.12325 0.59423 0.28918 -0.07500
C 	C 	0.10923 0.57028 0.34019 0.77900
H 	H 	0.15598 0.62793 0.33778 0.10400
H 	H 	0.11649 0.60570 0.14600 0.11500
C 	C 	0.17018 0.65624 0.14154 0.78400
F 	F 	0.13135 0.57212 0.38581 -0.37500
F 	F 	0.10809 0.53441 0.32759 -0.40500
F 	F 	0.07479 0.58136 0.35528 -0.43100
F 	F 	0.20622 0.66417 0.14919 -0.40100
F 	F 	0.15111 0.68810 0.12998 -0.40600
F 	F 	0.16869 0.63598 0.09538 -0.36600
C 	C 	0.33738 0.63303 0.40490 0.06800
C 	C 	0.33456 0.64258 0.34687 0.01500
C 	C 	0.35347 0.62226 0.30783 -0.07100
C 	C 	0.37931 0.59659 0.32762 0.06700
C 	C 	0.38509 0.58975 0.38563 0.01600
C 	C 	0.36281 0.60690 0.42501 -0.07100
C 	C 	0.36660 0.59797 0.48817 0.78400
H 	H 	0.32115 0.64745 0.43433 0.12600
H 	H 	0.39607 0.58295 0.29780 0.10600
C 	C 	0.34795 0.62958 0.24492 0.78100
F 	F 	0.34355 0.61869 0.51927 -0.36600
F 	F 	0.40171 0.60468 0.50321 -0.40300
F 	F 	0.35829 0.56171 0.50244 -0.35700
F 	F 	0.36666 0.66072 0.22461 -0.37300
F 	F 	0.31151 0.63426 0.23438 -0.38700
F 	F 	0.36033 0.60090 0.21587 -0.36800
C 	C 	0.33900 0.86412 0.44296 0.07100
C 	C 	0.33912 0.86331 0.38412 0.02800
C 	C 	0.36090 0.88829 0.34942 -0.07600
C 	C 	0.38555 0.91047 0.37475 0.07300
C 	C 	0.38814 0.90841 0.43363 0.01800
C 	C 	0.36325 0.88672 0.46827 -0.07000
C 	C 	0.36397 0.88604 0.53213 0.78400
H 	H 	0.32137 0.84563 0.46904 0.12500
H 	H 	0.40394 0.92818 0.34871 0.10100
C 	C 	0.35939 0.88986 0.28556 0.78500
F 	F 	0.33548 0.86598 0.55819 -0.38000
F 	F 	0.36138 0.92110 0.54814 -0.37300
F 	F 	0.39607 0.87071 0.55098 -0.41200
F 	F 	0.32398 0.89452 0.26911 -0.37800
F 	F 	0.37274 0.85781 0.26712 -0.38900
F 	F 	0.37968 0.91850 0.25951 -0.36400
C 	C 	0.13893 0.42359 0.61783 0.07000
C 	C 	0.11625 0.41750 0.66594 0.02800
C 	C 	0.12201 0.38677 0.70424 -0.07800
C 	C 	0.14522 0.35917 0.68798 0.06400
C 	C 	0.16279 0.36214 0.63453 0.02100
C 	C 	0.16079 0.39537 0.59961 -0.06700
C 	C 	0.18143 0.40080 0.54318 0.78200
H 	H 	0.13828 0.44969 0.59334 0.15100
H 	H 	0.14841 0.33462 0.71581 0.13400
C 	C 	0.10154 0.38216 0.76068 0.78100
F 	F 	0.17242 0.43334 0.51339 -0.35600
F 	F 	0.17345 0.37304 0.51005 -0.39100
F 	F 	0.21825 0.40127 0.55206 -0.38500
F 	F 	0.06682 0.36990 0.75294 -0.42400
F 	F 	0.09965 0.41498 0.78461 -0.38800
F 	F 	0.11854 0.35733 0.79816 -0.38400
C 	C 	0.33388 0.38381 0.55534 0.07100
C 	C 	0.32666 0.36202 0.51155 0.02200
C 	C 	0.34181 0.37173 0.45694 -0.07400
C 	C 	0.37075 0.39661 0.45074 0.06500
C 	C 	0.38154 0.41473 0.49678 0.01600
C 	C 	0.36067 0.41100 0.54787 -0.06900
C 	C 	0.36713 0.43569 0.59425 0.78600
H 	H 	0.32044 0.37792 0.59625 0.11700
H 	H 	0.38571 0.40086 0.41075 0.09300
C 	C 	0.32852 0.35456 0.40578 0.78200
F 	F 	0.34177 0.43002 0.63824 -0.37100
F 	F 	0.36468 0.47161 0.57257 -0.33900
F 	F 	0.40116 0.42933 0.61568 -0.39200
F 	F 	0.29199 0.34619 0.41206 -0.38800
F 	F 	0.34787 0.32315 0.39856 -0.41700
F 	F 	0.33326 0.37827 0.35764 -0.37700
C 	C 	0.37149 0.08966 0.55252 0.06400
C 	C 	0.38765 0.08292 0.50049 0.02100
C 	C 	0.37297 0.09857 0.44986 -0.07700
C 	C 	0.34524 0.12456 0.45258 0.06800
C 	C 	0.33139 0.13408 0.50488 0.01600
C 	C 	0.34364 0.11549 0.55554 -0.07500
C 	C 	0.32756 0.12351 0.61276 0.78200
H 	H 	0.38195 0.07604 0.59082 0.14200
H 	H 	0.33537 0.13856 0.41408 0.11200
C 	C 	0.38836 0.08928 0.39305 0.78000
F 	F 	0.34490 0.10432 0.65678 -0.37100
F 	F 	0.29137 0.11371 0.61645 -0.38800
F 	F 	0.33081 0.16018 0.61974 -0.44800
F 	F 	0.39126 0.05194 0.39226 -0.41300
F 	F 	0.42232 0.10485 0.38366 -0.41000
F 	F 	0.36648 0.10197 0.34937 -0.38400
C 	C 	0.20315 0.22228 0.84437 0.07000
C 	C 	0.23893 0.21630 0.86074 0.02700
C 	C 	0.26637 0.21132 0.81926 -0.07400
C 	C 	0.25864 0.21867 0.76198 0.07300
C 	C 	0.22360 0.22830 0.74556 0.01100
C 	C 	0.19493 0.22745 0.78675 -0.07200
C 	C 	0.15583 0.23208 0.76954 0.78800
H 	H 	0.18205 0.22446 0.87655 0.09700
H 	H 	0.28016 0.21815 0.73002 0.09300
C 	C 	0.30387 0.19851 0.83588 0.78300
F 	F 	0.13205 0.22962 0.81587 -0.39400
F 	F 	0.14675 0.20519 0.73555 -0.41500
F 	F 	0.15132 0.26573 0.74032 -0.43400
F 	F 	0.30108 0.16863 0.87509 -0.38000
F 	F 	0.32212 0.22619 0.85863 -0.43800
F 	F 	0.32407 0.18827 0.78992 -0.38600
C 	C 	0.27555 0.23583 0.32133 0.07700
C 	C 	0.24811 0.24566 0.35903 0.03000
C 	C 	0.21441 0.25828 0.33820 -0.05300
C 	C 	0.20862 0.25959 0.27986 0.07400
C 	C 	0.23637 0.25082 0.24203 0.04100
C 	C 	0.26971 0.23728 0.26293 -0.07000
C 	C 	0.29856 0.22346 0.22352 0.77700
H 	H 	0.30126 0.22642 0.33780 0.10600
H 	H 	0.18250 0.26753 0.26364 0.14100
C 	C 	0.18574 0.27285 0.37732 0.77900
F 	F 	0.32693 0.20707 0.25276 -0.39100
F 	F 	0.31238 0.25223 0.18819 -0.40500
F 	F 	0.28371 0.19792 0.19169 -0.43800
F 	F 	0.19961 0.30238 0.40153 -0.39500
F 	F 	0.17542 0.24612 0.41919 -0.42200
F 	F 	0.15504 0.28419 0.34882 -0.35800
C 	C 	0.12160 0.39872 0.17449 0.06200
C 	C 	0.10661 0.41885 0.12820 0.01300
C 	C 	0.11837 0.41252 0.07277 -0.07200
C 	C 	0.14040 0.38223 0.06466 0.06700
C 	C 	0.15301 0.36015 0.11100 0.01400
C 	C 	0.14575 0.37004 0.16649 -0.06900
C 	C 	0.16099 0.34838 0.21751 0.78000
H 	H 	0.11295 0.40421 0.21685 0.10200
H 	H 	0.14685 0.37514 0.02225 0.10800
C 	C 	0.10555 0.43628 0.02195 0.78900
F 	F 	0.16036 0.36847 0.26400 -0.36800
F 	F 	0.19660 0.33868 0.20710 -0.40000
F 	F 	0.14018 0.31747 0.23037 -0.40600
F 	F 	0.10298 0.47229 0.03365 -0.39300
F 	F 	0.07203 0.42423 0.00726 -0.39300
F 	F 	0.12947 0.43471 0.97626 -0.38100
C 	C 	0.36384 0.39864 0.05536 0.07100
C 	C 	0.38053 0.41201 0.00397 0.02200
C 	C 	0.36800 0.40084 0.95268 -0.08800
C 	C 	0.34161 0.37327 0.95438 0.06000
C 	C 	0.32768 0.35710 0.00621 0.02100
C 	C 	0.33782 0.37074 0.05727 -0.08200
C 	C 	0.32126 0.35536 0.11371 0.77900
H 	H 	0.37250 0.40889 0.09409 0.11400
H 	H 	0.33258 0.36353 0.91551 0.11300
C 	C 	0.38341 0.41764 0.89635 0.77800
F 	F 	0.33709 0.36998 0.15864 -0.38000
F 	F 	0.32598 0.31806 0.12039 -0.41900
F 	F 	0.28465 0.36318 0.11587 -0.39800
F 	F 	0.42003 0.41010 0.89179 -0.43700
F 	F 	0.37857 0.45494 0.89256 -0.40100
F 	F 	0.36659 0.40428 0.85122 -0.38500
C 	C 	0.35717 0.07343 0.01837 0.06300
C 	C 	0.39354 0.08329 0.02399 0.03000
C 	C 	0.40338 0.12057 0.01846 -0.08500
C 	C 	0.37602 0.14688 0.01846 0.08400
C 	C 	0.33961 0.13709 0.01394 0.02000
C 	C 	0.33048 0.10025 0.00881 -0.04200
C 	C 	0.29245 0.08907 0.99507 0.76700
H 	H 	0.34965 0.04490 0.02165 0.13400
H 	H 	0.38307 0.17522 0.02089 0.09000
C 	C 	0.44280 0.13259 0.01308 0.79200
F 	F 	0.29247 0.05531 0.97388 -0.36600
F 	F 	0.27766 0.11368 0.95494 -0.36000
F 	F 	0.27093 0.08711 0.04360 -0.33900
F 	F 	0.46294 0.11000 0.98081 -0.46800
F 	F 	0.45712 0.13211 0.06615 -0.43600
F 	F 	0.44586 0.16759 0.98703 -0.40500
C 	C 	0.84070 0.11171 0.66215 0.07000
C 	C 	0.83047 0.13933 0.69624 0.02000
C 	C 	0.83960 0.13616 0.75375 -0.07800
C 	C 	0.86570 0.11041 0.77229 0.07000
C 	C 	0.87989 0.08588 0.73560 0.01700
C 	C 	0.86415 0.08384 0.68248 -0.07600
C 	C 	0.87345 0.05301 0.64660 0.78500
H 	H 	0.83215 0.11316 0.61884 0.11100
H 	H 	0.87658 0.11087 0.81403 0.09900
C 	C 	0.82296 0.16112 0.79466 0.78200
F 	F 	0.85019 0.05200 0.60222 -0.38500
F 	F 	0.87053 0.02009 0.67909 -0.34800
F 	F 	0.90842 0.05741 0.62464 -0.41500
F 	F 	0.78678 0.16708 0.78356 -0.41600
F 	F 	0.84123 0.19401 0.78960 -0.43000
F 	F 	0.82497 0.14593 0.84982 -0.39300
C 	C 	0.87485 0.90367 0.91662 0.06200
C 	C 	0.89045 0.91184 0.86249 0.03500
C 	C 	0.88053 0.89150 0.81756 -0.08100
C 	C 	0.85663 0.86194 0.82876 0.07900
C 	C 	0.84311 0.85228 0.88366 0.01100
C 	C 	0.85080 0.87418 0.92763 -0.05900
C 	C 	0.83452 0.86521 0.98662 0.76400
H 	H 	0.88232 0.91972 0.95043 0.15400
H 	H 	0.84934 0.84558 0.79517 0.11100
C 	C 	0.89562 0.90108 0.75789 0.78400
F 	F 	0.84260 0.89157 0.02230 -0.35000
F 	F 	0.84797 0.83228 0.00927 -0.40100
F 	F 	0.79721 0.86281 0.98436 -0.40800
F 	F 	0.93309 0.90046 0.75740 -0.41400
F 	F 	0.88406 0.93544 0.73843 -0.35100
F 	F 	0.88420 0.87683 0.72087 -0.36900
C 	C 	0.13821 0.92768 0.78558 0.06500
C 	C 	0.10146 0.91812 0.78493 0.02000
C 	C 	0.09158 0.88320 0.77036 -0.08600
C 	C 	0.11839 0.85647 0.76740 0.07300
C 	C 	0.15514 0.86536 0.77102 0.01200
C 	C 	0.16528 0.90223 0.77448 -0.06500
C 	C 	0.20437 0.91481 0.76590 0.78400
H 	H 	0.14573 0.95481 0.79513 0.12800
H 	H 	0.11067 0.82852 0.76311 0.08300
C 	C 	0.05242 0.87385 0.76001 0.77900
F 	F 	0.20612 0.95167 0.74889 -0.36600
F 	F 	0.22195 0.89668 0.72452 -0.37500
F 	F 	0.22225 0.90862 0.81605 -0.38300
F 	F 	0.03546 0.90277 0.73054 -0.42700
F 	F 	0.03413 0.86546 0.81109 -0.44000
F 	F 	0.05036 0.84420 0.72840 -0.38600
C 	C 	0.15491 0.13488 0.66082 0.07800
C 	C 	0.15116 0.14467 0.60304 0.01500
C 	C 	0.12564 0.12654 0.57254 -0.06800
C 	C 	0.10139 0.10181 0.60198 0.06900
C 	C 	0.10242 0.09490 0.66098 0.01500
C 	C 	0.13010 0.11089 0.69079 -0.06800
C 	C 	0.13310 0.10276 0.75428 0.78700
H 	H 	0.17617 0.14743 0.68286 0.12500
H 	H 	0.08048 0.08918 0.57944 0.10700
C 	C 	0.12271 0.13518 0.50921 0.78100
F 	F 	0.15983 0.12349 0.77564 -0.37600
F 	F 	0.14165 0.06649 0.76656 -0.38400
F 	F 	0.10067 0.11035 0.78146 -0.41600
F 	F 	0.15677 0.13632 0.48316 -0.38300
F 	F 	0.10603 0.16851 0.49841 -0.37900
F 	F 	0.10260 0.10918 0.48551 -0.35300
C 	C 	0.01739 0.02535 0.54727 0.09500
C 	C 	0.99402 0.00725 0.58784 0.00000
C 	C 	0.96978 0.98056 0.57185 -0.05600
C 	C 	0.96803 0.97433 0.51436 0.06300
C 	C 	0.99162 0.99248 0.47378 0.00900
C 	C 	0.01846 0.01625 0.49121 -0.07600
C 	C 	0.04716 0.03382 0.45050 0.78200
H 	H 	0.03571 0.04584 0.55991 0.08700
H 	H 	0.94846 0.95521 0.50102 0.10600
C 	C 	0.94845 0.95648 0.61617 0.77800
F 	F 	0.07819 0.04049 0.47911 -0.37500
F 	F 	0.03426 0.06657 0.42638 -0.41400
F 	F 	0.05717 0.01186 0.40862 -0.43400
F 	F 	0.92964 0.97751 0.65236 -0.36300
F 	F 	0.97209 0.93404 0.64684 -0.38800
F 	F 	0.92361 0.93488 0.59214 -0.36100
C 	C 	0.97110 0.00400 0.07936 0.07700
C 	C 	0.99994 0.02664 0.09052 -0.01100
C 	C 	0.02028 0.04507 0.04533 -0.03500
C 	C 	0.01242 0.03877 0.98948 0.07300
C 	C 	0.98437 0.01507 0.97832 -0.00800
C 	C 	0.96245 0.99860 0.02354 -0.05100
C 	C 	0.93187 0.97286 0.01281 0.78800
H 	H 	0.95563 0.99025 0.11442 0.11700
H 	H 	0.02876 0.05145 0.95453 0.09700
C 	C 	0.05044 0.07119 0.05663 0.77300
F 	F 	0.90982 0.96525 0.06055 -0.35700
F 	F 	0.94631 0.94055 0.99725 -0.43100
F 	F 	0.91037 0.98808 0.97042 -0.40800
F 	F 	0.07698 0.05264 0.08714 -0.40100
F 	F 	0.03665 0.09855 0.08712 -0.40800
F 	F 	0.06637 0.08725 0.00713 -0.38700
C 	C 	0.86590 0.11675 0.26700 0.07300
C 	C 	0.88619 0.09689 0.22961 0.01200
C 	C 	0.87593 0.09701 0.17271 -0.07000
C 	C 	0.84890 0.12133 0.15260 0.07000
C 	C 	0.83102 0.14380 0.18902 0.02000
C 	C 	0.83728 0.13913 0.24757 -0.07700
C 	C 	0.81546 0.16012 0.28880 0.77900
H 	H 	0.87324 0.11569 0.31089 0.10200
H 	H 	0.84342 0.12454 0.10794 0.11100
C 	C 	0.89598 0.07403 0.13207 0.77700
F 	F 	0.81690 0.14346 0.34318 -0.39400
F 	F 	0.77947 0.16187 0.27431 -0.38400
F 	F 	0.82929 0.19497 0.28818 -0.43500
F 	F 	0.90133 0.03918 0.15692 -0.40300
F 	F 	0.92913 0.08994 0.11672 -0.42500
F 	F 	0.87664 0.07117 0.08371 -0.38300
C 	C 	0.86526 0.90545 0.39523 0.07000
C 	C 	0.87906 0.91702 0.34107 0.01400
C 	C 	0.86544 0.90172 0.29339 -0.07700
C 	C 	0.84155 0.87194 0.30174 0.07100
C 	C 	0.83082 0.85796 0.35636 0.02300
C 	C 	0.84051 0.87637 0.40331 -0.07700
C 	C 	0.82587 0.86389 0.46218 0.77800
H 	H 	0.87521 0.91800 0.43127 0.11300
H 	H 	0.83269 0.85836 0.26599 0.13300
C 	C 	0.87729 0.91632 0.23389 0.78300
F 	F 	0.83516 0.88772 0.50120 -0.37300
F 	F 	0.83970 0.82996 0.47911 -0.41300
F 	F 	0.78848 0.86182 0.46210 -0.41700
F 	F 	0.91434 0.91237 0.22648 -0.44800
F 	F 	0.86844 0.95277 0.22512 -0.37100
F 	F 	0.86050 0.89814 0.19334 -0.36500
C 	C 	0.15533 0.89110 0.25123 0.06900
C 	C 	0.16055 0.86664 0.29893 0.02000
C 	C 	0.14015 0.87054 0.34930 -0.08500
C 	C 	0.11178 0.89608 0.34880 0.07200
C 	C 	0.10445 0.91839 0.29956 0.01800
C 	C 	0.12769 0.91747 0.25127 -0.07600
C 	C 	0.12225 0.94363 0.19923 0.78100
H 	H 	0.17187 0.88854 0.21339 0.11700
H 	H 	0.09427 0.89755 0.38593 0.10800
C 	C 	0.14712 0.84595 0.40248 0.78100
F 	F 	0.14877 0.93974 0.15781 -0.37800
F 	F 	0.12357 0.97909 0.21365 -0.40600
F 	F 	0.08892 0.93733 0.17688 -0.42200
F 	F 	0.18353 0.84663 0.41439 -0.41800
F 	F 	0.13707 0.81068 0.39469 -0.44100
F 	F 	0.12774 0.85689 0.44874 -0.38900
C 	C 	0.13601 0.08302 0.17260 0.07100
C 	C 	0.11251 0.09729 0.21236 0.04600
C 	C 	0.11907 0.13237 0.22929 -0.08300
C 	C 	0.14383 0.15533 0.19744 0.07900
C 	C 	0.16384 0.14267 0.15209 0.01200
C 	C 	0.16255 0.10530 0.14319 -0.05400
C 	C 	0.19099 0.08884 0.10610 0.78700
H 	H 	0.13244 0.05516 0.16276 0.15800
H 	H 	0.14614 0.18363 0.20588 0.08200
C 	C 	0.09798 0.14629 0.27862 0.78100
F 	F 	0.18621 0.05170 0.10497 -0.35000
F 	F 	0.22472 0.09474 0.12728 -0.35700
F 	F 	0.18962 0.10480 0.05135 -0.36700
F 	F 	0.09293 0.11880 0.32169 -0.38100
F 	F 	0.06460 0.15891 0.26089 -0.42200
F 	F 	0.11635 0.17442 0.30020 -0.37900
