data_crystal

_cell_length_a 35.14200
_cell_length_b 57.94314
_cell_length_c 17.96002
_cell_angle_alpha 89.99985
_cell_angle_beta  89.99993
_cell_angle_gamma 91.55752

_symmetry_space_group_name_	'P 1'
_symmetry_space_group_name_H-M	'P 1'

loop_
_symmetry_equiv_pos_as_xyz
  x,y,z

loop_
_atom_site_label
_atom_site_type_symbol
_atom_site_fract_x
_atom_site_fract_y
_atom_site_fract_z
_atom_site_charge
Cu	Cu	0.61255 0.79669 0.95022 0.92900
Cu	Cu	0.57016 0.84593 0.96633 0.87300
Cu	Cu	0.54768 0.80459 0.06032 0.89000
Cu	Cu	0.58965 0.75869 0.06807 0.88900
C 	C 	0.66677 0.76418 0.00082 0.28200
O 	O 	0.58833 0.77033 0.89148 -0.36300
C 	C 	0.49450 0.84194 0.01872 0.27400
O 	O 	0.59753 0.79104 0.06245 -0.64100
O 	O 	0.56405 0.81284 0.95681 -0.63900
O 	O 	0.64410 0.82268 0.91000 -0.37500
O 	O 	0.62203 0.84807 0.99449 -0.44000
O 	O 	0.63831 0.74987 0.01853 -0.39100
O 	O 	0.53214 0.79391 0.15896 -0.38200
C 	C 	0.53402 0.77231 0.18215 0.29000
C 	C 	0.55559 0.76073 0.91178 0.28400
O 	O 	0.54578 0.76045 0.98248 -0.38600
O 	O 	0.56360 0.75966 0.16609 -0.39700
O 	O 	0.66073 0.78300 0.96207 -0.35400
C 	C 	0.64809 0.84217 0.94657 0.30300
O 	O 	0.50324 0.82500 0.06499 -0.38400
O 	O 	0.51645 0.84757 0.96193 -0.40900
H 	H 	0.61491 0.79767 0.10073 0.15800
H 	H 	0.54505 0.80813 0.91865 0.17000
Cu	Cu	0.87600 0.70173 0.96664 0.93100
Cu	Cu	0.91198 0.65178 0.00194 0.86500
Cu	Cu	0.93490 0.69356 0.08787 0.89200
Cu	Cu	0.89763 0.74050 0.08407 0.89100
C 	C 	0.82259 0.73625 0.00711 0.28100
O 	O 	0.90478 0.72589 0.90547 -0.36900
C 	C 	0.98675 0.65459 0.06055 0.28800
O 	O 	0.88679 0.70845 0.08025 -0.64300
O 	O 	0.92240 0.68426 0.98367 -0.63400
O 	O 	0.84327 0.67558 0.93047 -0.38000
O 	O 	0.85961 0.65266 0.02663 -0.45900
O 	O 	0.85083 0.75007 0.02974 -0.39400
O 	O 	0.94338 0.70326 0.18957 -0.38800
C 	C 	0.94625 0.72502 0.21098 0.29300
C 	C 	0.93527 0.73695 0.93114 0.30300
O 	O 	0.94287 0.73679 0.00276 -0.41200
O 	O 	0.92384 0.74091 0.18319 -0.39500
O 	O 	0.82921 0.71752 0.96808 -0.36100
C 	C 	0.83506 0.65827 0.97526 0.31200
O 	O 	0.97819 0.67283 0.10130 -0.39100
O 	O 	0.96523 0.64753 0.00465 -0.42900
H 	H 	0.86744 0.70280 0.11647 0.15900
H 	H 	0.94340 0.68751 0.94809 0.17300
Cu	Cu	0.78639 0.45079 0.25615 0.92800
Cu	Cu	0.83736 0.40522 0.25060 0.86400
Cu	Cu	0.86871 0.44980 0.20691 0.88900
Cu	Cu	0.84182 0.49525 0.26879 0.89600
C 	C 	0.77126 0.48802 0.35504 0.29500
O 	O 	0.77240 0.47111 0.16911 -0.36700
C 	C 	0.89449 0.40687 0.13823 0.28700
O 	O 	0.84085 0.46338 0.28937 -0.63900
O 	O 	0.82008 0.43195 0.19598 -0.64700
O 	O 	0.75523 0.42444 0.29483 -0.36900
O 	O 	0.80775 0.40704 0.33856 -0.43800
O 	O 	0.79131 0.50228 0.31243 -0.39500
O 	O 	0.91511 0.46938 0.21033 -0.38000
C 	C 	0.92364 0.48545 0.26027 0.29100
C 	C 	0.79767 0.48219 0.12711 0.28400
O 	O 	0.83235 0.48671 0.15203 -0.39800
O 	O 	0.89698 0.49802 0.29053 -0.39700
O 	O 	0.75971 0.46771 0.32993 -0.36600
C 	C 	0.77065 0.40793 0.33338 0.30100
O 	O 	0.89679 0.42975 0.13895 -0.38300
O 	O 	0.86464 0.39548 0.16532 -0.42300
H 	H 	0.85020 0.45898 0.33926 0.15000
H 	H 	0.81227 0.42919 0.14369 0.17400
Cu	Cu	0.21756 0.55255 0.25524 0.92700
Cu	Cu	0.17231 0.60033 0.23287 0.86800
Cu	Cu	0.13476 0.55277 0.20608 0.89500
Cu	Cu	0.16401 0.50740 0.26418 0.89500
C 	C 	0.23277 0.51560 0.35440 0.29700
O 	O 	0.23399 0.53249 0.16945 -0.36800
C 	C 	0.10832 0.59527 0.13889 0.28400
O 	O 	0.16323 0.53914 0.28701 -0.63600
O 	O 	0.18390 0.57027 0.19133 -0.64200
O 	O 	0.24525 0.57943 0.29974 -0.37900
O 	O 	0.19078 0.59693 0.33143 -0.44300
O 	O 	0.21422 0.50107 0.31030 -0.39400
O 	O 	0.08791 0.53382 0.21384 -0.37900
C 	C 	0.08107 0.51596 0.25821 0.29400
C 	C 	0.20950 0.52144 0.12573 0.28600
O 	O 	0.17456 0.51670 0.14858 -0.39900
O 	O 	0.10866 0.50275 0.28179 -0.39700
O 	O 	0.24389 0.53605 0.33005 -0.37000
C 	C 	0.22712 0.59381 0.34246 0.29700
O 	O 	0.10604 0.57246 0.13841 -0.37500
O 	O 	0.14113 0.60625 0.14884 -0.42200
H 	H 	0.15362 0.54297 0.33720 0.15300
H 	H 	0.19194 0.57092 0.13851 0.16700
Cu	Cu	0.71810 0.55440 0.75690 0.92700
Cu	Cu	0.67282 0.60219 0.73171 0.86900
Cu	Cu	0.63318 0.55566 0.72138 0.89500
Cu	Cu	0.66471 0.50957 0.76697 0.89200
C 	C 	0.73496 0.51727 0.85558 0.29400
O 	O 	0.73475 0.53472 0.67061 -0.36700
C 	C 	0.60632 0.59716 0.64409 0.28900
O 	O 	0.66480 0.54110 0.79412 -0.63800
O 	O 	0.68249 0.57144 0.69404 -0.64100
O 	O 	0.74583 0.58152 0.79999 -0.37800
O 	O 	0.69153 0.59950 0.83038 -0.44200
O 	O 	0.71471 0.50271 0.81400 -0.39100
O 	O 	0.58671 0.54031 0.75503 -0.38500
C 	C 	0.58101 0.51770 0.75672 0.29300
C 	C 	0.71027 0.52332 0.62811 0.28800
O 	O 	0.67531 0.51909 0.65135 -0.39700
O 	O 	0.60849 0.50372 0.77611 -0.39200
O 	O 	0.74559 0.53776 0.83013 -0.36800
C 	C 	0.72782 0.59624 0.84170 0.29600
O 	O 	0.60068 0.57494 0.65878 -0.38400
O 	O 	0.64036 0.60705 0.64886 -0.42300
H 	H 	0.65755 0.54415 0.84640 0.16200
H 	H 	0.68795 0.57096 0.63998 0.16900
Cu	Cu	0.28563 0.45056 0.75034 0.92800
Cu	Cu	0.32716 0.40176 0.72005 0.87000
Cu	Cu	0.37031 0.44785 0.71443 0.89500
Cu	Cu	0.34228 0.49369 0.76727 0.89300
C 	C 	0.27096 0.48698 0.85237 0.29500
O 	O 	0.27221 0.47248 0.66809 -0.36800
C 	C 	0.39573 0.40631 0.64017 0.28900
O 	O 	0.33971 0.46175 0.79018 -0.63800
O 	O 	0.32008 0.43327 0.68558 -0.64000
O 	O 	0.25283 0.42411 0.78333 -0.37400
O 	O 	0.30370 0.40309 0.81473 -0.43700
O 	O 	0.29198 0.50125 0.81134 -0.38900
O 	O 	0.41806 0.46145 0.74930 -0.38600
C 	C 	0.42509 0.48379 0.75782 0.29500
C 	C 	0.29814 0.48218 0.62477 0.28800
O 	O 	0.33289 0.48609 0.64974 -0.39700
O 	O 	0.39846 0.49781 0.78092 -0.39300
O 	O 	0.25945 0.46673 0.82635 -0.36400
C 	C 	0.26707 0.40641 0.81782 0.29900
O 	O 	0.40087 0.42882 0.64830 -0.38000
O 	O 	0.36144 0.39679 0.64033 -0.42100
H 	H 	0.34686 0.45772 0.84181 0.16000
H 	H 	0.31451 0.43430 0.63167 0.16900
Cu	Cu	0.61793 0.29879 0.44546 0.92900
Cu	Cu	0.59599 0.34690 0.52487 0.86700
Cu	Cu	0.56341 0.30483 0.57549 0.88800
Cu	Cu	0.59590 0.25677 0.55211 0.89200
C 	C 	0.66948 0.26221 0.47047 0.29200
O 	O 	0.58320 0.27889 0.38117 -0.36400
C 	C 	0.51836 0.34717 0.56951 0.29600
O 	O 	0.60969 0.28849 0.55778 -0.64000
O 	O 	0.57680 0.31877 0.47788 -0.64800
O 	O 	0.65274 0.32390 0.40912 -0.37000
O 	O 	0.64909 0.34252 0.51965 -0.43800
O 	O 	0.64257 0.24791 0.49626 -0.38800
O 	O 	0.55399 0.29142 0.67223 -0.38700
C 	C 	0.54854 0.26908 0.68249 0.29300
C 	C 	0.55214 0.26853 0.40663 0.28600
O 	O 	0.54813 0.26450 0.47837 -0.39500
O 	O 	0.57212 0.25418 0.65325 -0.39100
O 	O 	0.66074 0.28013 0.42948 -0.36600
C 	C 	0.66503 0.34022 0.45431 0.30000
O 	O 	0.52242 0.32626 0.59783 -0.39300
O 	O 	0.54565 0.35769 0.53116 -0.42200
H 	H 	0.63042 0.29235 0.59338 0.15800
H 	H 	0.55478 0.32046 0.44422 0.17100
Cu	Cu	0.87976 0.20101 0.43557 0.92800
Cu	Cu	0.90848 0.14993 0.48275 0.87000
Cu	Cu	0.93407 0.19240 0.56503 0.89200
Cu	Cu	0.90205 0.24137 0.54655 0.89300
C 	C 	0.82755 0.23673 0.46769 0.29200
O 	O 	0.91181 0.22290 0.37313 -0.36600
C 	C 	0.98269 0.15143 0.54694 0.29100
O 	O 	0.88857 0.20959 0.54874 -0.63700
O 	O 	0.92304 0.18173 0.46169 -0.64700
O 	O 	0.84579 0.17596 0.39779 -0.38100
O 	O 	0.85512 0.15251 0.49674 -0.44000
O 	O 	0.85502 0.25077 0.49270 -0.38800
O 	O 	0.94400 0.20516 0.66310 -0.38200
C 	C 	0.94948 0.22746 0.67531 0.29000
C 	C 	0.94385 0.23220 0.39766 0.28500
O 	O 	0.94922 0.23514 0.46962 -0.39100
O 	O 	0.92588 0.24261 0.64752 -0.39100
O 	O 	0.83540 0.21873 0.42630 -0.36600
C 	C 	0.83357 0.15927 0.44163 0.29500
O 	O 	0.97281 0.16932 0.58807 -0.39200
O 	O 	0.96099 0.14340 0.49247 -0.42200
H 	H 	0.86753 0.20545 0.58334 0.15800
H 	H 	0.94562 0.18345 0.42913 0.16500
Cu	Cu	0.70703 0.04906 0.27047 0.92700
Cu	Cu	0.66151 0.09718 0.25421 0.86900
Cu	Cu	0.62221 0.05102 0.23133 0.89200
Cu	Cu	0.65330 0.00441 0.27222 0.89200
C 	C 	0.72176 0.01121 0.36568 0.29300
O 	O 	0.72260 0.02981 0.18258 -0.36400
C 	C 	0.59575 0.09409 0.16341 0.28800
O 	O 	0.65300 0.03560 0.30407 -0.63700
O 	O 	0.67192 0.06741 0.20980 -0.64200
O 	O 	0.73763 0.07503 0.31371 -0.36900
O 	O 	0.68474 0.09353 0.34809 -0.44600
O 	O 	0.70276 0.99697 0.32099 -0.38600
O 	O 	0.57490 0.03486 0.25845 -0.38600
C 	C 	0.56973 0.01218 0.26106 0.29200
C 	C 	0.69727 0.02214 0.13422 0.27800
O 	O 	0.66304 0.01566 0.15720 -0.39600
O 	O 	0.59733 0.99855 0.28216 -0.39500
O 	O 	0.73388 0.03153 0.34170 -0.36100
C 	C 	0.72169 0.09165 0.35079 0.30400
O 	O 	0.59096 0.07142 0.16969 -0.38400
O 	O 	0.62938 0.10415 0.17280 -0.42300
H 	H 	0.64482 0.03795 0.35620 0.15700
H 	H 	0.67783 0.06833 0.15599 0.16700
Cu	Cu	0.27351 0.94805 0.24557 0.92800
Cu	Cu	0.30803 0.89760 0.20929 0.87100
Cu	Cu	0.35838 0.94064 0.21902 0.89300
Cu	Cu	0.33384 0.98878 0.27034 0.89300
C 	C 	0.26048 0.98385 0.35075 0.29400
O 	O 	0.26363 0.97085 0.16350 -0.37000
C 	C 	0.37608 0.89972 0.12481 0.29000
O 	O 	0.32765 0.95684 0.29013 -0.63600
O 	O 	0.30715 0.92987 0.18242 -0.64500
O 	O 	0.23877 0.92243 0.27691 -0.38000
O 	O 	0.28654 0.89857 0.30623 -0.44200
O 	O 	0.28407 0.99788 0.31414 -0.39000
O 	O 	0.40687 0.95351 0.25462 -0.38100
C 	C 	0.41511 0.97582 0.26162 0.28900
C 	C 	0.29127 0.98027 0.12366 0.29000
O 	O 	0.32574 0.98261 0.15155 -0.39600
O 	O 	0.38985 0.99019 0.28803 -0.39200
O 	O 	0.24724 0.96465 0.32011 -0.36600
C 	C 	0.25126 0.90488 0.31482 0.29800
O 	O 	0.38869 0.91802 0.16302 -0.38700
O 	O 	0.33997 0.89311 0.12571 -0.42500
H 	H 	0.33223 0.95241 0.34256 0.15700
H 	H 	0.30353 0.93233 0.12839 0.16600
Cu	Cu	0.10841 0.79549 0.46399 0.92700
Cu	Cu	0.06993 0.84560 0.48974 0.86900
Cu	Cu	0.04853 0.80422 0.58356 0.89400
Cu	Cu	0.08885 0.75824 0.58689 0.89200
C 	C 	0.16339 0.76226 0.50806 0.29300
O 	O 	0.08074 0.76962 0.40859 -0.36900
C 	C 	0.99769 0.84344 0.55891 0.28500
O 	O 	0.09793 0.79051 0.57866 -0.63700
O 	O 	0.06102 0.81255 0.47807 -0.64100
O 	O 	0.13932 0.82076 0.41731 -0.37300
O 	O 	0.12310 0.84633 0.50619 -0.44400
O 	O 	0.13544 0.74850 0.53218 -0.39100
O 	O 	0.03934 0.79522 0.68603 -0.38500
C 	C 	0.03857 0.77365 0.70977 0.29200
C 	C 	0.04969 0.75945 0.43514 0.28500
O 	O 	0.04253 0.75999 0.50690 -0.39500
O 	O 	0.06396 0.75879 0.68675 -0.39300
O 	O 	0.15630 0.78082 0.46853 -0.36600
C 	C 	0.14568 0.84037 0.45203 0.30100
O 	O 	0.00312 0.82342 0.59237 -0.38200
O 	O 	0.01662 0.84941 0.49849 -0.42100
H 	H 	0.11685 0.79709 0.61418 0.16000
H 	H 	0.04030 0.80845 0.44273 0.16900
Cu	Cu	0.37341 0.70098 0.45301 0.92700
Cu	Cu	0.41091 0.65181 0.49422 0.86800
Cu	Cu	0.43728 0.69582 0.56651 0.89500
Cu	Cu	0.39642 0.74163 0.56276 0.89100
C 	C 	0.31956 0.73472 0.49587 0.29200
O 	O 	0.39962 0.72534 0.38854 -0.36400
C 	C 	0.48613 0.65564 0.54985 0.28800
O 	O 	0.38749 0.70927 0.56434 -0.63600
O 	O 	0.42062 0.68394 0.46731 -0.64400
O 	O 	0.34094 0.67422 0.42153 -0.38000
O 	O 	0.35871 0.65284 0.52030 -0.44400
O 	O 	0.34770 0.74952 0.51159 -0.38400
O 	O 	0.45071 0.70763 0.66401 -0.38600
C 	C 	0.45105 0.72972 0.68184 0.29200
C 	C 	0.43256 0.73484 0.40808 0.28300
O 	O 	0.44095 0.73743 0.47911 -0.39600
O 	O 	0.42299 0.74305 0.66112 -0.39100
O 	O 	0.32597 0.71592 0.45730 -0.37100
C 	C 	0.33362 0.65747 0.46888 0.29700
O 	O 	0.48332 0.67726 0.57261 -0.38000
O 	O 	0.46426 0.64722 0.49644 -0.42300
H 	H 	0.36996 0.70361 0.60387 0.16100
H 	H 	0.44041 0.68616 0.42863 0.16800
Cu	Cu	0.11516 0.29683 0.93178 0.92900
Cu	Cu	0.08283 0.34676 0.97710 0.87200
Cu	Cu	0.05397 0.30398 0.05089 0.88600
Cu	Cu	0.09485 0.25768 0.05027 0.88800
C 	C 	0.16899 0.26374 0.97707 0.29900
O 	O 	0.08525 0.27244 0.87422 -0.36300
C 	C 	0.00863 0.34577 0.03703 0.26800
O 	O 	0.10369 0.29000 0.04570 -0.64200
O 	O 	0.06955 0.31507 0.94982 -0.63800
O 	O 	0.14777 0.32234 0.89083 -0.37300
O 	O 	0.13586 0.34452 0.99102 -0.43600
O 	O 	0.14149 0.24897 0.99569 -0.38500
O 	O 	0.03844 0.29161 0.14801 -0.38400
C 	C 	0.04368 0.27032 0.17166 0.29500
C 	C 	0.05340 0.26285 0.89953 0.28100
O 	O 	0.04770 0.26056 0.97174 -0.38300
O 	O 	0.07397 0.25890 0.15215 -0.40100
O 	O 	0.16195 0.28077 0.93118 -0.36000
C 	C 	0.15669 0.34020 0.93264 0.29800
O 	O 	0.00936 0.32388 0.05812 -0.38100
O 	O 	0.03056 0.35366 0.98307 -0.40400
H 	H 	0.12229 0.29623 0.08246 0.15300
H 	H 	0.04926 0.31348 0.91177 0.17100
Cu	Cu	0.37958 0.20487 0.94076 0.93000
Cu	Cu	0.41246 0.15444 0.98285 0.87100
Cu	Cu	0.44005 0.19776 0.06096 0.88600
Cu	Cu	0.40006 0.24425 0.05803 0.89100
C 	C 	0.32609 0.23851 0.98330 0.30300
O 	O 	0.41001 0.22899 0.88356 -0.36400
C 	C 	0.48586 0.15612 0.04814 0.26600
O 	O 	0.39058 0.21194 0.05463 -0.64200
O 	O 	0.42504 0.18653 0.95957 -0.63800
O 	O 	0.34682 0.17970 0.89859 -0.37100
O 	O 	0.35922 0.15615 0.99544 -0.44200
O 	O 	0.35372 0.25314 0.00241 -0.40700
O 	O 	0.45558 0.21043 0.15783 -0.38300
C 	C 	0.45042 0.23177 0.18122 0.29400
C 	C 	0.44240 0.23785 0.90868 0.28100
O 	O 	0.44773 0.24080 0.98074 -0.38200
O 	O 	0.42054 0.24338 0.16037 -0.40000
O 	O 	0.33316 0.22116 0.93874 -0.35700
C 	C 	0.33829 0.16121 0.93781 0.30500
O 	O 	0.48456 0.17797 0.06937 -0.38200
O 	O 	0.46506 0.14824 0.99235 -0.40700
H 	H 	0.37176 0.20595 0.09135 0.15300
H 	H 	0.44547 0.18843 0.92193 0.16800
Cu	Cu	0.77868 0.95259 0.77516 0.92800
Cu	Cu	0.82030 0.90329 0.75532 0.86800
Cu	Cu	0.86070 0.94962 0.72356 0.89300
Cu	Cu	0.83418 0.99606 0.77511 0.89500
C 	C 	0.76168 0.99256 0.86142 0.30400
O 	O 	0.76348 0.97262 0.68841 -0.36700
C 	C 	0.88430 0.90585 0.65905 0.28200
O 	O 	0.83370 0.96470 0.80363 -0.63900
O 	O 	0.81022 0.93324 0.71139 -0.64300
O 	O 	0.74621 0.92750 0.81765 -0.37400
O 	O 	0.79696 0.90645 0.84970 -0.44400
O 	O 	0.78319 0.00481 0.81500 -0.38900
O 	O 	0.90883 0.96764 0.72889 -0.37800
C 	C 	0.91664 0.98624 0.76966 0.29200
C 	C 	0.78843 0.98064 0.63952 0.28200
O 	O 	0.82364 0.98555 0.66041 -0.39400
O 	O 	0.88956 0.99977 0.79364 -0.39500
O 	O 	0.75574 0.97027 0.85146 -0.37100
C 	C 	0.76037 0.91003 0.85345 0.30500
O 	O 	0.88772 0.92864 0.65694 -0.37500
O 	O 	0.85118 0.89556 0.67226 -0.41900
H 	H 	0.84342 0.96149 0.85423 0.15800
H 	H 	0.80158 0.93219 0.65901 0.16800
Cu	Cu	0.21383 0.04966 0.74628 0.92800
Cu	Cu	0.17412 0.09879 0.71174 0.86800
Cu	Cu	0.13023 0.05194 0.70364 0.89500
Cu	Cu	0.15619 0.00730 0.77155 0.89500
C 	C 	0.22790 0.01482 0.85374 0.29600
O 	O 	0.22564 0.02633 0.66675 -0.36600
C 	C 	0.10608 0.09352 0.62849 0.28200
O 	O 	0.15915 0.03954 0.78595 -0.63700
O 	O 	0.18070 0.06694 0.67969 -0.64100
O 	O 	0.24709 0.07608 0.77628 -0.37600
O 	O 	0.19757 0.09840 0.80706 -0.44100
O 	O 	0.20689 0.00015 0.81440 -0.39100
O 	O 	0.08152 0.03530 0.72037 -0.37800
C 	C 	0.07398 0.01769 0.76555 0.29600
C 	C 	0.19892 0.01634 0.62567 0.28300
O 	O 	0.16437 0.01283 0.65250 -0.39500
O 	O 	0.10123 0.00553 0.79576 -0.39700
O 	O 	0.23987 0.03448 0.82448 -0.36400
C 	C 	0.23366 0.09356 0.81316 0.29800
O 	O 	0.10221 0.07081 0.63273 -0.37300
O 	O 	0.13997 0.10366 0.63102 -0.41800
H 	H 	0.15125 0.04502 0.83567 0.15400
H 	H 	0.18748 0.06564 0.62636 0.16700
C 	C 	0.96603 0.01795 0.77683 -0.04800
C 	C 	0.95697 0.99417 0.77868 -0.09000
C 	C 	0.98666 0.97826 0.78639 0.10200
C 	C 	0.02472 0.98619 0.78071 -0.04100
C 	C 	0.03376 0.00995 0.77709 -0.09500
C 	C 	0.00407 0.02597 0.78100 0.11000
N 	N 	0.01176 0.04880 0.79288 -0.19500
H 	H 	0.94344 0.03029 0.77386 0.04800
H 	H 	0.04735 0.97384 0.78072 0.04500
N 	N 	0.97897 0.95574 0.80329 -0.19600
H 	H 	0.99001 0.06073 0.79009 0.08000
H 	H 	0.03851 0.05462 0.81129 0.08200
H 	H 	0.95222 0.95032 0.82280 0.07800
H 	H 	0.00073 0.94379 0.80327 0.08100
C 	C 	0.29268 0.11765 0.80625 -0.04700
C 	C 	0.26046 0.11048 0.84703 -0.10100
C 	C 	0.25459 0.11940 0.91949 0.09700
C 	C 	0.27988 0.13649 0.94745 -0.01800
C 	C 	0.31220 0.14349 0.90666 -0.11400
C 	C 	0.31950 0.13326 0.83669 0.10500
N 	N 	0.35272 0.13773 0.79973 -0.19800
H 	H 	0.29739 0.11061 0.75116 0.04200
H 	H 	0.27482 0.14398 0.00179 0.02200
N 	N 	0.22581 0.11106 0.96340 -0.18900
H 	H 	0.35693 0.13104 0.74640 0.07800
H 	H 	0.37547 0.14665 0.82497 0.06300
H 	H 	0.20949 0.09648 0.94824 0.08900
H 	H 	0.22079 0.11843 0.01548 0.06500
C 	C 	0.27658 0.26841 0.99304 -0.05700
C 	C 	0.28603 0.24502 0.99442 -0.06900
C 	C 	0.25667 0.22789 0.00154 0.06300
C 	C 	0.21855 0.23422 0.99505 -0.01300
C 	C 	0.20909 0.25757 0.99047 -0.10900
C 	C 	0.23836 0.27484 0.99570 0.12600
N 	N 	0.23001 0.29738 0.00670 -0.20800
H 	H 	0.29893 0.28166 0.99094 0.05700
H 	H 	0.19624 0.22092 0.99460 0.04600
N 	N 	0.26484 0.20560 0.01735 -0.19100
H 	H 	0.25150 0.31019 0.00454 0.07600
H 	H 	0.20290 0.30216 0.02345 0.07800
H 	H 	0.29189 0.20110 0.03538 0.07400
H 	H 	0.24332 0.19279 0.01715 0.07500
C 	C 	0.91033 0.88026 0.56238 -0.04500
C 	C 	0.91540 0.89189 0.63032 -0.09200
C 	C 	0.94714 0.88702 0.67569 0.09400
C 	C 	0.97259 0.87013 0.65304 -0.04500
C 	C 	0.96733 0.85836 0.58551 -0.09900
C 	C 	0.93558 0.86320 0.54012 0.10600
N 	N 	0.92849 0.85103 0.47659 -0.20000
H 	H 	0.88576 0.88384 0.52813 0.04600
H 	H 	0.99714 0.86652 0.68734 0.03400
N 	N 	0.95327 0.89840 0.74108 -0.19900
H 	H 	0.90567 0.85519 0.44223 0.07900
H 	H 	0.94455 0.83681 0.46217 0.08900
H 	H 	0.93534 0.91134 0.75900 0.06800
H 	H 	0.97661 0.89454 0.77449 0.07600
C 	C 	0.25785 0.74221 0.43499 -0.04600
C 	C 	0.27998 0.74256 0.50007 -0.09000
C 	C 	0.26286 0.74800 0.56917 0.09600
C 	C 	0.22421 0.75373 0.57101 -0.04400
C 	C 	0.20224 0.75335 0.50583 -0.09600
C 	C 	0.21886 0.74673 0.43761 0.11100
N 	N 	0.19739 0.74411 0.37496 -0.20000
H 	H 	0.27078 0.73768 0.38233 0.05300
H 	H 	0.21130 0.75865 0.62332 0.03300
N 	N 	0.28300 0.74739 0.63384 -0.19800
H 	H 	0.21013 0.74001 0.32424 0.08200
H 	H 	0.16778 0.74508 0.37653 0.09700
H 	H 	0.31115 0.74213 0.63518 0.07000
H 	H 	0.27021 0.75177 0.68425 0.07800
C 	C 	0.24848 0.97932 0.48533 -0.04500
C 	C 	0.24261 0.99183 0.41978 -0.09700
C 	C 	0.21804 0.01083 0.42043 0.11000
C 	C 	0.20225 0.01797 0.48825 -0.04800
C 	C 	0.20945 0.00597 0.55431 -0.09400
C 	C 	0.23161 0.98597 0.55243 0.10600
N 	N 	0.23656 0.97301 0.61471 -0.19900
H 	H 	0.26613 0.96425 0.48404 0.03600
H 	H 	0.18481 0.03313 0.48976 0.03700
N 	N 	0.20896 0.02197 0.35641 -0.20100
H 	H 	0.25392 0.95865 0.61338 0.08100
H 	H 	0.22231 0.97657 0.66423 0.08700
H 	H 	0.21758 0.01599 0.30444 0.09800
H 	H 	0.19177 0.03641 0.35794 0.08000
C 	C 	0.26822 0.98704 0.92029 -0.04200
C 	C 	0.24611 0.00683 0.92249 -0.09600
C 	C 	0.24325 0.01951 0.98965 0.11800
C 	C 	0.26177 0.01171 0.05371 -0.05600
C 	C 	0.28209 0.99125 0.05245 -0.11000
C 	C 	0.28693 0.97939 0.98445 0.11600
N 	N 	0.30978 0.96087 0.98021 -0.19400
H 	H 	0.27142 0.97780 0.86825 0.04900
H 	H 	0.25858 0.02092 0.10583 0.04200
N 	N 	0.22179 0.03869 0.99368 -0.19100
H 	H 	0.31191 0.95156 0.93059 0.08200
H 	H 	0.32699 0.95622 0.02484 0.06600
H 	H 	0.20511 0.04395 0.94904 0.07700
H 	H 	0.22081 0.04828 0.04291 0.06800
C 	C 	0.19081 0.88204 0.31392 -0.04400
C 	C 	0.22368 0.88929 0.35254 -0.10500
C 	C 	0.22976 0.88146 0.42622 0.10500
C 	C 	0.20399 0.86528 0.45775 -0.04200
C 	C 	0.17142 0.85784 0.41853 -0.10500
C 	C 	0.16397 0.86699 0.34709 0.09900
N 	N 	0.13075 0.86187 0.31094 -0.19700
H 	H 	0.18589 0.88834 0.25796 0.03900
H 	H 	0.20908 0.85867 0.51325 0.04200
N 	N 	0.25940 0.88992 0.46768 -0.20000
H 	H 	0.12625 0.86795 0.25694 0.07500
H 	H 	0.10841 0.85282 0.33707 0.05800
H 	H 	0.27663 0.90370 0.44908 0.08600
H 	H 	0.26441 0.88342 0.52097 0.07900
C 	C 	0.75163 0.00863 0.56777 -0.04300
C 	C 	0.77459 0.98926 0.56773 -0.09200
C 	C 	0.77958 0.97665 0.50108 0.09900
C 	C 	0.76031 0.98329 0.43619 -0.04000
C 	C 	0.73701 0.00258 0.43655 -0.09600
C 	C 	0.73218 0.01519 0.50334 0.10300
N 	N 	0.70824 0.03324 0.50640 -0.19800
H 	H 	0.74773 0.01817 0.61907 0.04600
H 	H 	0.76442 0.97385 0.38480 0.04800
N 	N 	0.80311 0.95840 0.49869 -0.20000
H 	H 	0.70599 0.04298 0.55511 0.08100
H 	H 	0.69065 0.03727 0.46173 0.07500
H 	H 	0.81989 0.95406 0.54428 0.07900
H 	H 	0.80574 0.94876 0.44986 0.08100
C 	C 	0.75725 0.02268 0.95946 -0.01800
C 	C 	0.73972 0.00454 0.91943 -0.11200
C 	C 	0.70314 0.99623 0.94148 0.13700
C 	C 	0.68877 0.00255 0.01130 -0.07800
C 	C 	0.70812 0.01922 0.05487 -0.08200
C 	C 	0.74029 0.03117 0.02435 0.07700
N 	N 	0.75349 0.05139 0.05431 -0.19200
H 	H 	0.78403 0.03024 0.94014 0.03600
H 	H 	0.66252 0.99452 0.03146 0.05000
N 	N 	0.68105 0.98324 0.89452 -0.20200
H 	H 	0.77884 0.05912 0.03507 0.07400
H 	H 	0.73701 0.06066 0.09157 0.07500
H 	H 	0.68785 0.98186 0.83811 0.10100
H 	H 	0.65516 0.97596 0.91278 0.08800
C 	C 	0.51023 0.13185 0.14947 -0.05100
C 	C 	0.51556 0.14145 0.07853 -0.09000
C 	C 	0.54621 0.13435 0.03369 0.09000
C 	C 	0.57025 0.11719 0.06001 -0.03900
C 	C 	0.56514 0.10772 0.13130 -0.09800
C 	C 	0.53443 0.11482 0.17606 0.09800
N 	N 	0.52805 0.10541 0.24451 -0.20100
H 	H 	0.48646 0.13717 0.18336 0.03300
H 	H 	0.59406 0.11191 0.02616 0.04000
N 	N 	0.55340 0.14441 0.96649 -0.19000
H 	H 	0.50582 0.11114 0.27783 0.07600
H 	H 	0.54446 0.09204 0.26475 0.07600
H 	H 	0.53824 0.15860 0.94833 0.09400
H 	H 	0.57540 0.13859 0.93275 0.08400
C 	C 	0.51579 0.99154 0.32389 -0.04500
C 	C 	0.53035 0.00251 0.25987 -0.09200
C 	C 	0.50748 0.00366 0.19503 0.10200
C 	C 	0.47013 0.99429 0.19635 -0.04700
C 	C 	0.45547 0.98356 0.26061 -0.09200
C 	C 	0.47856 0.98202 0.32499 0.10700
N 	N 	0.46523 0.97154 0.38798 -0.20000
H 	H 	0.53340 0.99054 0.37331 0.04500
H 	H 	0.45236 0.99545 0.14718 0.03700
N 	N 	0.52127 0.01339 0.13118 -0.19900
H 	H 	0.48241 0.97066 0.43536 0.08000
H 	H 	0.43793 0.96403 0.39057 0.09100
H 	H 	0.54938 0.01953 0.12702 0.08500
H 	H 	0.50395 0.01449 0.08407 0.07900
C 	C 	0.96208 0.24927 0.79245 -0.04100
C 	C 	0.97565 0.23498 0.73571 -0.09500
C 	C 	0.01458 0.22914 0.73493 0.10600
C 	C 	0.03880 0.23735 0.79183 -0.04600
C 	C 	0.02570 0.25259 0.84626 -0.08900
C 	C 	0.98696 0.25884 0.84620 0.09700
N 	N 	0.97373 0.27455 0.89556 -0.19700
H 	H 	0.93227 0.25364 0.79329 0.04800
H 	H 	0.06842 0.23255 0.79205 0.05100
N 	N 	0.02921 0.21643 0.67853 -0.19800
H 	H 	0.94485 0.27840 0.89655 0.08400
H 	H 	0.99198 0.28381 0.93108 0.08000
H 	H 	0.01346 0.21244 0.63078 0.08400
H 	H 	0.05749 0.21132 0.68041 0.08500
C 	C 	0.99215 0.26178 0.35639 -0.05000
C 	C 	0.97311 0.24050 0.34377 -0.09400
C 	C 	0.97930 0.22858 0.27600 0.10000
C 	C 	0.00066 0.23937 0.21936 -0.04200
C 	C 	0.01928 0.26070 0.23147 -0.09800
C 	C 	0.01629 0.27164 0.30180 0.11100
N 	N 	0.03714 0.29112 0.31807 -0.20000
H 	H 	0.98812 0.27076 0.40867 0.04300
H 	H 	0.00403 0.23067 0.16637 0.03500
N 	N 	0.96626 0.20648 0.26619 -0.19600
H 	H 	0.03344 0.29957 0.36888 0.08000
H 	H 	0.05849 0.29740 0.28252 0.09100
H 	H 	0.95666 0.19647 0.31090 0.07400
H 	H 	0.96852 0.19847 0.21428 0.07600
C 	C 	0.07323 0.11770 0.53632 -0.04300
C 	C 	0.07330 0.10721 0.60666 -0.09300
C 	C 	0.04452 0.11231 0.65890 0.09400
C 	C 	0.01621 0.12782 0.63949 -0.04000
C 	C 	0.01599 0.13820 0.56902 -0.09800
C 	C 	0.04524 0.13352 0.51741 0.10400
N 	N 	0.04728 0.14465 0.45076 -0.19900
H 	H 	0.09570 0.11408 0.49695 0.04600
H 	H 	0.99371 0.13141 0.67884 0.04000
N 	N 	0.04406 0.10254 0.72784 -0.19800
H 	H 	0.06824 0.14055 0.41201 0.07800
H 	H 	0.02913 0.15805 0.43791 0.08400
H 	H 	0.06480 0.09107 0.74449 0.06200
H 	H 	0.02264 0.10639 0.76588 0.07700
C 	C 	0.79347 0.14110 0.34311 -0.04500
C 	C 	0.80000 0.14505 0.41918 -0.10400
C 	C 	0.77599 0.13404 0.47255 0.10100
C 	C 	0.74988 0.11671 0.44926 -0.04200
C 	C 	0.74529 0.11172 0.37339 -0.11000
C 	C 	0.76551 0.12504 0.31968 0.09800
N 	N 	0.75797 0.12262 0.24571 -0.19600
H 	H 	0.81068 0.15024 0.30192 0.04700
H 	H 	0.73305 0.10720 0.49018 0.04000
N 	N 	0.77661 0.14075 0.54510 -0.19900
H 	H 	0.77416 0.13183 0.20631 0.07500
H 	H 	0.73498 0.11245 0.22674 0.04500
H 	H 	0.79103 0.15587 0.56179 0.08600
H 	H 	0.76032 0.13172 0.58477 0.07800
C 	C 	0.50547 0.23832 0.36303 -0.04700
C 	C 	0.52226 0.26042 0.35372 -0.09500
C 	C 	0.51284 0.27365 0.29026 0.10400
C 	C 	0.49068 0.26350 0.23348 -0.04500
C 	C 	0.47443 0.24131 0.24204 -0.09600
C 	C 	0.48027 0.22904 0.30924 0.10800
N 	N 	0.46079 0.20893 0.32382 -0.19900
H 	H 	0.51181 0.22836 0.41240 0.04200
H 	H 	0.48508 0.27323 0.18323 0.03600
N 	N 	0.52348 0.29633 0.28505 -0.19700
H 	H 	0.46698 0.19935 0.37141 0.07900
H 	H 	0.43768 0.20345 0.29126 0.09000
H 	H 	0.53375 0.30548 0.33113 0.07700
H 	H 	0.51869 0.30552 0.23600 0.07800
C 	C 	0.53366 0.24626 0.79688 -0.04100
C 	C 	0.52138 0.26113 0.74057 -0.09500
C 	C 	0.48340 0.26873 0.74109 0.10500
C 	C 	0.45920 0.26237 0.80017 -0.04500
C 	C 	0.47095 0.24690 0.85507 -0.09100
C 	C 	0.50854 0.23856 0.85321 0.09900
N 	N 	0.52048 0.22286 0.90393 -0.19800
H 	H 	0.56273 0.24044 0.79653 0.04800
H 	H 	0.43038 0.26860 0.80139 0.05100
N 	N 	0.46950 0.28128 0.68358 -0.19700
H 	H 	0.54838 0.21707 0.90235 0.08400
H 	H 	0.50222 0.21587 0.94427 0.08000
H 	H 	0.48446 0.28323 0.63369 0.08400
H 	H 	0.44224 0.28800 0.68658 0.08600
C 	C 	0.75876 0.22646 0.47708 -0.04800
C 	C 	0.78739 0.24378 0.47124 -0.09500
C 	C 	0.77689 0.26713 0.46376 0.10800
C 	C 	0.73848 0.27270 0.47158 -0.04900
C 	C 	0.70981 0.25529 0.47134 -0.09400
C 	C 	0.72030 0.23183 0.46904 0.10700
N 	N 	0.69450 0.21474 0.45199 -0.19900
H 	H 	0.76659 0.20852 0.48136 0.04700
H 	H 	0.73070 0.29069 0.47207 0.04900
N 	N 	0.80263 0.28384 0.44282 -0.19900
H 	H 	0.70139 0.19745 0.45935 0.08100
H 	H 	0.66986 0.21822 0.42207 0.09800
H 	H 	0.82758 0.27973 0.41491 0.09900
H 	H 	0.79558 0.30123 0.44552 0.08000
C 	C 	0.43296 0.38462 0.54845 -0.04100
C 	C 	0.42820 0.39205 0.62199 -0.09700
C 	C 	0.45141 0.38324 0.67919 0.09700
C 	C 	0.47883 0.36701 0.66153 -0.04200
C 	C 	0.48427 0.36003 0.58776 -0.09800
C 	C 	0.46049 0.36842 0.53083 0.10500
N 	N 	0.46333 0.36056 0.45970 -0.19900
H 	H 	0.41451 0.39102 0.50510 0.04400
H 	H 	0.49711 0.36050 0.70499 0.04300
N 	N 	0.44764 0.39038 0.75098 -0.19900
H 	H 	0.44646 0.36734 0.41754 0.07900
H 	H 	0.48125 0.34711 0.44608 0.08200
H 	H 	0.42852 0.40307 0.76574 0.06400
H 	H 	0.46449 0.38347 0.79297 0.08000
C 	C 	0.20949 0.39683 0.89188 -0.04100
C 	C 	0.24118 0.38908 0.85269 -0.10000
C 	C 	0.24534 0.36502 0.84116 0.09800
C 	C 	0.21917 0.34940 0.87404 -0.04100
C 	C 	0.18575 0.35727 0.90695 -0.10100
C 	C 	0.18002 0.38136 0.91242 0.10000
N 	N 	0.14551 0.38971 0.93105 -0.19300
H 	H 	0.20610 0.41520 0.90034 0.05400
H 	H 	0.22350 0.33099 0.86925 0.05400
N 	N 	0.27250 0.35690 0.79481 -0.19300
H 	H 	0.14278 0.40722 0.94339 0.08000
H 	H 	0.12061 0.37973 0.92426 0.03700
H 	H 	0.28486 0.36731 0.75361 0.03700
H 	H 	0.27812 0.33928 0.79365 0.07800
C 	C 	0.54490 0.61561 0.66640 -0.04500
C 	C 	0.57444 0.61073 0.61695 -0.10000
C 	C 	0.57535 0.62109 0.54556 0.10700
C 	C 	0.54740 0.63689 0.52631 -0.04400
C 	C 	0.51802 0.64192 0.57610 -0.09400
C 	C 	0.51685 0.63130 0.64709 0.09700
N 	N 	0.48889 0.63603 0.69684 -0.20000
H 	H 	0.54434 0.60764 0.72107 0.03600
H 	H 	0.54785 0.64477 0.47151 0.04400
N 	N 	0.60214 0.61539 0.49457 -0.20000
H 	H 	0.48803 0.62786 0.74872 0.07800
H 	H 	0.46805 0.64800 0.68512 0.07300
H 	H 	0.62103 0.60213 0.50450 0.09000
H 	H 	0.60334 0.62365 0.44285 0.07900
C 	C 	0.52743 0.49595 0.81694 -0.04400
C 	C 	0.54143 0.50843 0.75532 -0.09100
C 	C 	0.51715 0.51251 0.69397 0.10400
C 	C 	0.47896 0.50472 0.69681 -0.04400
C 	C 	0.46500 0.49227 0.75837 -0.09300
C 	C 	0.48935 0.48793 0.81936 0.10900
N 	N 	0.47629 0.47643 0.88074 -0.19900
H 	H 	0.54602 0.49287 0.86390 0.04700
H 	H 	0.46024 0.50796 0.65017 0.04000
N 	N 	0.53050 0.52331 0.63154 -0.19800
H 	H 	0.49464 0.47305 0.92499 0.08300
H 	H 	0.44781 0.47107 0.88583 0.09000
H 	H 	0.55937 0.52744 0.62463 0.08700
H 	H 	0.51206 0.52695 0.58766 0.08300
C 	C 	0.21139 0.52084 0.98800 -0.03100
C 	C 	0.22298 0.51137 0.05584 -0.10800
C 	C 	0.24903 0.49316 0.05637 0.09100
C 	C 	0.26461 0.48567 0.98903 -0.02800
C 	C 	0.25377 0.49548 0.92130 -0.10000
C 	C 	0.22608 0.51281 0.92033 0.11000
N 	N 	0.21300 0.52145 0.85498 -0.20000
H 	H 	0.19097 0.53455 0.98782 0.04100
H 	H 	0.28512 0.47200 0.98931 0.03600
N 	N 	0.25867 0.48256 0.12105 -0.19800
H 	H 	0.19330 0.53465 0.85503 0.08400
H 	H 	0.22121 0.51474 0.80370 0.10000
H 	H 	0.24544 0.48645 0.17136 0.09000
H 	H 	0.27882 0.46962 0.12109 0.07700
C 	C 	0.27642 0.48965 0.42036 -0.04000
C 	C 	0.24944 0.50702 0.42376 -0.09900
C 	C 	0.24097 0.51741 0.49290 0.09900
C 	C 	0.26023 0.51049 0.55710 -0.04300
C 	C 	0.28616 0.49257 0.55433 -0.09600
C 	C 	0.29508 0.48237 0.48509 0.09900
N 	N 	0.32146 0.46568 0.48030 -0.20100
H 	H 	0.28333 0.48201 0.36708 0.04600
H 	H 	0.25353 0.51829 0.61028 0.04400
N 	N 	0.21355 0.53347 0.49843 -0.20000
H 	H 	0.32706 0.45779 0.42927 0.08000
H 	H 	0.33737 0.46080 0.52649 0.08000
H 	H 	0.19687 0.53791 0.45281 0.07200
H 	H 	0.20811 0.54141 0.54944 0.08000
C 	C 	0.30714 0.61738 0.46200 -0.04800
C 	C 	0.30142 0.64117 0.45525 -0.10600
C 	C 	0.26641 0.64891 0.42706 0.10800
C 	C 	0.24102 0.63300 0.39331 -0.04800
C 	C 	0.24877 0.60936 0.39294 -0.10600
C 	C 	0.28028 0.60137 0.43360 0.10900
N 	N 	0.28425 0.57849 0.44722 -0.20000
H 	H 	0.33290 0.61132 0.48782 0.03000
H 	H 	0.21565 0.63908 0.36607 0.03000
N 	N 	0.25653 0.67131 0.43458 -0.20000
H 	H 	0.30852 0.57260 0.47406 0.08300
H 	H 	0.26223 0.56659 0.43578 0.10400
H 	H 	0.27185 0.68257 0.46950 0.10100
H 	H 	0.23172 0.67722 0.40974 0.08300
C 	C 	0.76605 0.48760 0.49209 -0.04700
C 	C 	0.75426 0.49676 0.42399 -0.09800
C 	C 	0.72564 0.51353 0.42267 0.10900
C 	C 	0.71093 0.52168 0.49024 -0.04700
C 	C 	0.72346 0.51289 0.55841 -0.09700
C 	C 	0.75045 0.49519 0.55936 0.10500
N 	N 	0.76095 0.48512 0.62441 -0.20000
H 	H 	0.78724 0.47433 0.49271 0.03600
H 	H 	0.68983 0.53501 0.48971 0.03700
N 	N 	0.71174 0.52156 0.35714 -0.20100
H 	H 	0.78188 0.47264 0.62482 0.08100
H 	H 	0.74754 0.48889 0.67463 0.08900
H 	H 	0.72006 0.51475 0.30605 0.09700
H 	H 	0.69135 0.53436 0.35688 0.07900
C 	C 	0.74234 0.51844 0.99222 -0.03000
C 	C 	0.75291 0.50882 0.92400 -0.10100
C 	C 	0.78120 0.49185 0.92202 0.10900
C 	C 	0.79647 0.48377 0.98923 -0.03100
C 	C 	0.78501 0.49297 0.05759 -0.10700
C 	C 	0.75873 0.51106 0.05898 0.09000
N 	N 	0.74960 0.52163 0.12400 -0.19800
H 	H 	0.72144 0.53187 0.99332 0.03300
H 	H 	0.81709 0.47018 0.98829 0.04200
N 	N 	0.79431 0.48358 0.85618 -0.20000
H 	H 	0.72920 0.53443 0.12484 0.07500
H 	H 	0.76361 0.51794 0.17365 0.08700
H 	H 	0.78588 0.49048 0.80529 0.09800
H 	H 	0.81433 0.47056 0.85545 0.08400
C 	C 	0.72637 0.35035 0.39316 -0.03900
C 	C 	0.69305 0.35768 0.42768 -0.10200
C 	C 	0.68619 0.38163 0.43347 0.09900
C 	C 	0.71419 0.39762 0.40958 -0.04000
C 	C 	0.74605 0.39035 0.37000 -0.10000
C 	C 	0.75179 0.36638 0.36006 0.09700
N 	N 	0.78024 0.35865 0.31595 -0.19400
H 	H 	0.73148 0.33203 0.38837 0.04700
H 	H 	0.70974 0.41594 0.41693 0.05200
N 	N 	0.65201 0.38932 0.45708 -0.19400
H 	H 	0.78607 0.34107 0.31415 0.07600
H 	H 	0.79454 0.36953 0.27845 0.04200
H 	H 	0.62781 0.37851 0.45776 0.03500
H 	H 	0.64849 0.40687 0.46770 0.07700
C 	C 	0.96158 0.39556 0.13228 -0.04100
C 	C 	0.92478 0.39377 0.10258 -0.10300
C 	C 	0.91577 0.37621 0.05017 0.11500
C 	C 	0.94264 0.35942 0.03411 -0.06900
C 	C 	0.97901 0.36072 0.06601 -0.08200
C 	C 	0.98863 0.37895 0.11565 0.08700
N 	N 	0.02350 0.38034 0.14859 -0.19700
H 	H 	0.96854 0.40914 0.17197 0.03700
H 	H 	0.93578 0.34590 0.99414 0.06200
N 	N 	0.88194 0.37587 0.01335 -0.20900
H 	H 	0.03070 0.39417 0.18372 0.07300
H 	H 	0.04338 0.36746 0.14136 0.05700
H 	H 	0.86329 0.38953 0.01776 0.08800
H 	H 	0.87481 0.36237 0.97691 0.09300
C 	C 	0.97366 0.51626 0.27943 -0.04700
C 	C 	0.96413 0.49267 0.27111 -0.09200
C 	C 	0.99356 0.47643 0.26904 0.10000
C 	C 	0.03166 0.48433 0.26447 -0.04100
C 	C 	0.04109 0.50799 0.27010 -0.09500
C 	C 	0.01190 0.52389 0.28297 0.10700
N 	N 	0.02037 0.54618 0.30174 -0.19600
H 	H 	0.95130 0.52871 0.28387 0.04600
H 	H 	0.05401 0.47198 0.25739 0.04400
N 	N 	0.98562 0.45339 0.27473 -0.19600
H 	H 	0.99878 0.55815 0.30642 0.07700
H 	H 	0.04792 0.55141 0.31711 0.07500
H 	H 	0.95886 0.44718 0.29187 0.07200
H 	H 	0.00714 0.44148 0.26768 0.07700
C 	C 	0.97439 0.77161 0.76740 -0.05200
C 	C 	0.01336 0.76725 0.77281 -0.09000
C 	C 	0.02716 0.75524 0.83556 0.10400
C 	C 	0.00114 0.74512 0.88607 -0.04100
C 	C 	0.96197 0.74869 0.87901 -0.10500
C 	C 	0.94873 0.76326 0.82168 0.11000
N 	N 	0.91194 0.76998 0.82002 -0.20100
H 	H 	0.96398 0.78158 0.72090 0.04800
H 	H 	0.01150 0.73474 0.93166 0.04400
N 	N 	0.06513 0.75434 0.84952 -0.19800
H 	H 	0.90193 0.77959 0.77521 0.08300
H 	H 	0.89371 0.76713 0.86518 0.09500
H 	H 	0.08473 0.76484 0.82068 0.09100
H 	H 	0.07515 0.74433 0.89339 0.08200
C 	C 	0.98374 0.75326 0.38792 -0.05100
C 	C 	0.02238 0.74789 0.38391 -0.09600
C 	C 	0.03481 0.73237 0.32862 0.10500
C 	C 	0.00925 0.72475 0.27315 -0.04600
C 	C 	0.97099 0.73101 0.27507 -0.09800
C 	C 	0.95758 0.74411 0.33581 0.10600
N 	N 	0.91970 0.74709 0.34625 -0.19900
H 	H 	0.97393 0.76444 0.43195 0.04000
H 	H 	0.01922 0.71392 0.22830 0.04600
N 	N 	0.07071 0.72415 0.32985 -0.19900
H 	H 	0.91019 0.75786 0.38867 0.07800
H 	H 	0.89936 0.73754 0.31603 0.08800
H 	H 	0.08862 0.72687 0.37557 0.09100
H 	H 	0.08025 0.71368 0.28668 0.08000
C 	C 	0.01868 0.62942 0.15051 -0.04300
C 	C 	0.01947 0.64079 0.08168 -0.09700
C 	C 	0.04880 0.63631 0.03006 0.09200
C 	C 	0.07602 0.61986 0.04747 -0.04000
C 	C 	0.07526 0.60853 0.11643 -0.09700
C 	C 	0.04607 0.61315 0.16823 0.09400
N 	N 	0.04428 0.60212 0.23511 -0.19900
H 	H 	0.99598 0.63277 0.18968 0.03600
H 	H 	0.09877 0.61655 0.00841 0.04100
N 	N 	0.05172 0.64826 0.96500 -0.19100
H 	H 	0.02278 0.60579 0.27320 0.07500
H 	H 	0.06381 0.58965 0.24970 0.06300
H 	H 	0.03424 0.66211 0.95362 0.09100
H 	H 	0.07273 0.64434 0.92615 0.08300
C 	C 	0.80669 0.61859 0.96631 -0.04500
C 	C 	0.80242 0.64250 0.95861 -0.10900
C 	C 	0.76848 0.65086 0.92737 0.11100
C 	C 	0.74312 0.63537 0.89160 -0.04800
C 	C 	0.74946 0.61156 0.89284 -0.10400
C 	C 	0.77948 0.60305 0.93644 0.10900
N 	N 	0.78158 0.58014 0.95175 -0.19900
H 	H 	0.83147 0.61205 0.99444 0.03600
H 	H 	0.71875 0.64189 0.86199 0.03200
N 	N 	0.75943 0.67342 0.93428 -0.20000
H 	H 	0.80489 0.57379 0.98065 0.08700
H 	H 	0.75890 0.56874 0.93973 0.10000
H 	H 	0.77420 0.68435 0.97108 0.10500
H 	H 	0.73557 0.67977 0.90715 0.08600
C 	C 	0.48106 0.76415 0.36542 -0.04800
C 	C 	0.45932 0.74396 0.35034 -0.09300
C 	C 	0.46249 0.73324 0.27953 0.10100
C 	C 	0.48461 0.74404 0.22384 -0.04600
C 	C 	0.50713 0.76376 0.23960 -0.09500
C 	C 	0.50604 0.77367 0.31172 0.10800
N 	N 	0.52941 0.79187 0.33046 -0.20000
H 	H 	0.47896 0.77234 0.41950 0.04400
H 	H 	0.48605 0.73625 0.16902 0.03500
N 	N 	0.44628 0.71208 0.26590 -0.19600
H 	H 	0.52740 0.79951 0.38298 0.07900
H 	H 	0.55076 0.79801 0.29469 0.09200
H 	H 	0.43763 0.70117 0.30912 0.07500
H 	H 	0.44569 0.70540 0.21183 0.07600
C 	C 	0.48274 0.72419 0.80419 -0.04300
C 	C 	0.47732 0.73801 0.74101 -0.09100
C 	C 	0.49799 0.75924 0.73395 0.10000
C 	C 	0.52197 0.76676 0.79212 -0.04300
C 	C 	0.52830 0.75264 0.85415 -0.09600
C 	C 	0.50932 0.73078 0.85920 0.10500
N 	N 	0.51761 0.71568 0.91454 -0.19800
H 	H 	0.46716 0.70785 0.80940 0.04900
H 	H 	0.53673 0.78340 0.78796 0.03600
N 	N 	0.49611 0.77206 0.67058 -0.19800
H 	H 	0.50194 0.70018 0.92008 0.08100
H 	H 	0.54106 0.71839 0.94939 0.08400
H 	H 	0.48281 0.76566 0.62261 0.07900
H 	H 	0.50999 0.78821 0.66743 0.07800
C 	C 	0.70875 0.88176 0.82523 -0.04300
C 	C 	0.73435 0.89122 0.87750 -0.11400
C 	C 	0.73193 0.88426 0.95299 0.11500
C 	C 	0.70349 0.86809 0.97453 -0.02700
C 	C 	0.67703 0.85936 0.92253 -0.10900
C 	C 	0.67892 0.86686 0.84758 0.10200
N 	N 	0.65126 0.86070 0.79777 -0.19700
H 	H 	0.71078 0.88709 0.76742 0.03200
H 	H 	0.70185 0.86238 0.03199 0.02800
N 	N 	0.75634 0.89317 0.00503 -0.21700
H 	H 	0.65409 0.86523 0.74166 0.07600
H 	H 	0.62569 0.85278 0.81477 0.06700
H 	H 	0.77747 0.90543 0.99121 0.10100
H 	H 	0.75425 0.88790 0.06057 0.07700
C 	C 	0.46467 0.88026 0.02544 -0.05000
C 	C 	0.46123 0.85620 0.03468 -0.09700
C 	C 	0.42698 0.84637 0.06334 0.10500
C 	C 	0.39928 0.86089 0.09227 -0.04700
C 	C 	0.40359 0.88501 0.08640 -0.10000
C 	C 	0.43529 0.89465 0.04776 0.10600
N 	N 	0.43691 0.91741 0.02914 -0.19800
H 	H 	0.49024 0.88781 0.00062 0.03100
H 	H 	0.37423 0.85338 0.11910 0.03600
N 	N 	0.41978 0.82321 0.06015 -0.19800
H 	H 	0.46143 0.92467 0.00469 0.07600
H 	H 	0.41304 0.92766 0.03364 0.08600
H 	H 	0.43653 0.81246 0.02786 0.08900
H 	H 	0.39552 0.81596 0.08557 0.08000
C 	C 	0.72636 0.75402 0.93689 -0.03200
C 	C 	0.70597 0.75579 0.00370 -0.10200
C 	C 	0.72471 0.75223 0.07249 0.09500
C 	C 	0.76345 0.74671 0.07265 -0.04400
C 	C 	0.78380 0.74521 0.00575 -0.11200
C 	C 	0.76542 0.74972 0.93738 0.12300
N 	N 	0.78535 0.75069 0.87243 -0.20100
H 	H 	0.71208 0.75698 0.88433 0.05200
H 	H 	0.77763 0.74330 0.12498 0.03100
N 	N 	0.70593 0.75428 0.13834 -0.19900
H 	H 	0.77128 0.75298 0.82179 0.08400
H 	H 	0.81504 0.75041 0.87184 0.10000
H 	H 	0.67737 0.75871 0.14046 0.06900
H 	H 	0.72004 0.75156 0.18870 0.07500
