data_crystal

_cell_length_a 47.73938
_cell_length_b 48.50403
_cell_length_c 33.99698
_cell_angle_alpha 92.63927
_cell_angle_beta  87.36140
_cell_angle_gamma 89.77558

_symmetry_space_group_name_	'P 1'
_symmetry_space_group_name_H-M	'P 1'

loop_
_symmetry_equiv_pos_as_xyz
  x,y,z

loop_
_atom_site_label
_atom_site_type_symbol
_atom_site_fract_x
_atom_site_fract_y
_atom_site_fract_z
_atom_site_charge
Cd	Cd	0.01841 0.83915 0.30014 1.24400
Cd	Cd	0.98106 0.87694 0.37786 1.17200
O 	O 	0.01685 0.78834 0.29724 -0.29200
O 	O 	0.03887 0.81115 0.25122 -0.34400
C 	C 	0.03297 0.78724 0.26530 0.30000
O 	O 	0.02144 0.88257 0.28192 -0.38300
O 	O 	0.01175 0.90278 0.34329 -0.43800
C 	C 	0.01306 0.90414 0.30458 0.30200
C 	C 	0.95928 0.84580 0.29810 0.32200
O 	O 	0.01703 0.84452 0.37777 -0.44600
O 	O 	0.96980 0.83755 0.26327 -0.28100
O 	O 	0.97654 0.84600 0.32628 -0.53900
C 	C 	0.04390 0.84915 0.37517 0.31200
O 	O 	0.05594 0.84600 0.33999 -0.35100
Cd	Cd	0.99448 0.89532 0.93355 1.24400
Cd	Cd	0.99172 0.91186 0.83216 1.18800
O 	O 	0.02760 0.85879 0.94819 -0.31100
O 	O 	0.00302 0.88134 0.99547 -0.33100
C 	C 	0.02083 0.86149 0.98559 0.28900
O 	O 	0.96809 0.93379 0.93566 -0.37800
O 	O 	0.95630 0.92957 0.87110 -0.43500
C 	C 	0.95999 0.94504 0.90328 0.29800
C 	C 	0.03729 0.92785 0.89821 0.32800
O 	O 	0.98244 0.87186 0.86505 -0.42800
O 	O 	0.03862 0.92944 0.93662 -0.29300
O 	O 	0.01977 0.91007 0.88436 -0.52400
C 	C 	0.95853 0.86456 0.88135 0.30800
O 	O 	0.95582 0.86888 0.91954 -0.35200
C 	C 	0.04269 0.67762 0.91982 0.14900
N 	N 	0.05946 0.67876 0.88653 -0.12900
C 	C 	0.06280 0.65619 0.86157 0.12900
N 	N 	0.04998 0.63222 0.87061 -0.13900
C 	C 	0.03359 0.63078 0.90419 0.12700
N 	N 	0.02990 0.65357 0.92877 -0.13600
C 	C 	0.13124 0.64592 0.38977 0.14900
N 	N 	0.13591 0.65319 0.42800 -0.13700
C 	C 	0.13921 0.63346 0.45458 0.12600
N 	N 	0.13902 0.60640 0.44237 -0.14000
C 	C 	0.13451 0.59899 0.40415 0.12800
N 	N 	0.13017 0.61881 0.37813 -0.13000
Cd	Cd	0.83540 0.92143 0.75262 1.24300
Cd	Cd	0.86238 0.94002 0.84624 1.17400
O 	O 	0.78790 0.90234 0.75177 -0.30100
O 	O 	0.81109 0.91221 0.69687 -0.33000
C 	C 	0.78818 0.90289 0.71363 0.29100
O 	O 	0.87546 0.94352 0.73805 -0.36900
O 	O 	0.89546 0.93582 0.79678 -0.43400
C 	C 	0.89520 0.94871 0.76346 0.29600
C 	C 	0.81705 0.97152 0.79316 0.31700
O 	O 	0.84649 0.89868 0.81864 -0.44000
O 	O 	0.81026 0.97091 0.75633 -0.26800
O 	O 	0.82759 0.94881 0.80483 -0.53200
C 	C 	0.86162 0.88032 0.79804 0.31800
O 	O 	0.86029 0.88106 0.75981 -0.35600
Cd	Cd	0.85946 0.97561 0.38098 1.24100
Cd	Cd	0.91130 0.97018 0.30242 1.19800
O 	O 	0.80983 0.97227 0.36462 -0.29900
O 	O 	0.82241 0.97439 0.42623 -0.34100
C 	C 	0.80220 0.97268 0.40180 0.29500
O 	O 	0.90044 0.97278 0.41078 -0.38200
O 	O 	0.92735 0.98869 0.35886 -0.41000
C 	C 	0.92531 0.97762 0.39357 0.29400
C 	C 	0.87319 0.92257 0.34525 0.32200
O 	O 	0.87473 0.00114 0.31700 -0.43800
O 	O 	0.85867 0.92049 0.37850 -0.28800
O 	O 	0.87556 0.94745 0.33307 -0.52300
C 	C 	0.87598 0.02389 0.33880 0.31900
O 	O 	0.86613 0.02245 0.37511 -0.35400
C 	C 	0.60373 0.90873 0.80442 0.14800
N 	N 	0.58057 0.92283 0.79473 -0.12800
C 	C 	0.55860 0.92651 0.82129 0.12800
N 	N 	0.56028 0.91712 0.85810 -0.13900
C 	C 	0.58379 0.90398 0.86848 0.12600
N 	N 	0.60528 0.89936 0.84135 -0.13700
C 	C 	0.60756 0.96110 0.34064 0.14900
N 	N 	0.60914 0.94804 0.30439 -0.13700
C 	C 	0.58634 0.94681 0.28193 0.12700
N 	N 	0.56175 0.95837 0.29615 -0.13900
C 	C 	0.55994 0.97123 0.33254 0.12700
N 	N 	0.58294 0.97279 0.35466 -0.12800
Cd	Cd	0.02575 0.07847 0.25539 1.24300
Cd	Cd	0.00854 0.05458 0.35162 1.18300
O 	O 	0.04339 0.12571 0.25384 -0.29600
O 	O 	0.03997 0.10026 0.19937 -0.34500
C 	C 	0.04603 0.12423 0.21566 0.29800
O 	O 	0.01936 0.03289 0.24504 -0.37500
O 	O 	0.99232 0.02830 0.30186 -0.41400
C 	C 	0.00836 0.01728 0.27267 0.29800
C 	C 	0.06917 0.06301 0.30433 0.31800
O 	O 	0.99057 0.08963 0.31616 -0.42700
O 	O 	0.07914 0.06541 0.26820 -0.28200
O 	O 	0.04356 0.07119 0.31158 -0.53900
C 	C 	0.97028 0.08754 0.29176 0.31900
O 	O 	0.97814 0.08605 0.25444 -0.35500
Cd	Cd	0.87539 0.10631 0.90267 1.24300
Cd	Cd	0.87707 0.07005 0.80965 1.17300
O 	O 	0.84578 0.14792 0.91333 -0.29800
O 	O 	0.87007 0.13201 0.96039 -0.34700
C 	C 	0.85486 0.15212 0.94856 0.30000
O 	O 	0.89920 0.06763 0.91262 -0.37900
O 	O 	0.91249 0.05866 0.84755 -0.43700
C 	C 	0.90992 0.05069 0.88416 0.30000
C 	C 	0.83030 0.07113 0.88263 0.32100
O 	O 	0.88870 0.11502 0.82819 -0.44800
O 	O 	0.82910 0.07733 0.92058 -0.27700
O 	O 	0.84860 0.08460 0.86208 -0.54200
C 	C 	0.91304 0.12364 0.83935 0.32300
O 	O 	0.91580 0.12605 0.87735 -0.36000
C 	C 	0.89473 0.32870 0.85205 0.14800
N 	N 	0.89617 0.35556 0.86508 -0.12800
C 	C 	0.90500 0.37517 0.84004 0.12700
N 	N 	0.91050 0.36804 0.80130 -0.14000
C 	C 	0.90778 0.34147 0.78772 0.12700
N 	N 	0.90035 0.32177 0.81327 -0.13700
C 	C 	0.00150 0.29541 0.32011 0.14700
N 	N 	0.98409 0.29308 0.35264 -0.13600
C 	C 	0.98333 0.31322 0.38182 0.12600
N 	N 	0.99983 0.33576 0.37829 -0.13900
C 	C 	0.01759 0.33796 0.34628 0.12700
N 	N 	0.01859 0.31765 0.31740 -0.12900
Cd	Cd	0.04900 0.04762 0.73252 1.24200
Cd	Cd	0.01359 0.04928 0.82749 1.18100
O 	O 	0.09437 0.07093 0.72666 -0.31000
O 	O 	0.07948 0.04427 0.67844 -0.34200
C 	C 	0.10005 0.05876 0.69238 0.29800
O 	O 	0.01239 0.01892 0.72541 -0.37200
O 	O 	0.98595 0.03872 0.77741 -0.41800
C 	C 	0.99041 0.01845 0.75068 0.30900
C 	C 	0.06650 0.01085 0.78992 0.32800
O 	O 	0.02891 0.08371 0.78649 -0.44800
O 	O 	0.07776 0.00442 0.75498 -0.29500
O 	O 	0.05308 0.03423 0.79283 -0.52400
C 	C 	0.01461 0.09456 0.75926 0.31400
O 	O 	0.02028 0.08503 0.72321 -0.34300
Cd	Cd	0.08912 0.97752 0.50331 1.24100
Cd	Cd	0.09191 0.95290 0.40261 1.17500
O 	O 	0.13361 0.98690 0.53458 -0.30800
O 	O 	0.09359 0.00016 0.56320 -0.34500
C 	C 	0.12088 0.00182 0.56276 0.29600
O 	O 	0.04438 0.97911 0.48574 -0.38200
O 	O 	0.04969 0.94715 0.43381 -0.42900
C 	C 	0.03471 0.96649 0.45377 0.29500
C 	C 	0.10096 0.01527 0.44277 0.32000
O 	O 	0.10920 0.93581 0.45934 -0.45300
O 	O 	0.09417 0.02814 0.47642 -0.29100
O 	O 	0.10373 0.98873 0.44410 -0.53400
C 	C 	0.09598 0.91921 0.48271 0.31200
O 	O 	0.08473 0.93085 0.51519 -0.34200
C 	C 	0.25441 0.06013 0.84704 0.14700
N 	N 	0.24384 0.05982 0.88493 -0.12500
C 	C 	0.26149 0.06043 0.91527 0.12700
N 	N 	0.28966 0.05996 0.90759 -0.13900
C 	C 	0.30029 0.05928 0.86981 0.12700
N 	N 	0.28261 0.05993 0.83971 -0.13900
C 	C 	0.23544 0.07694 0.39671 0.14500
N 	N 	0.22734 0.07918 0.35908 -0.12600
C 	C 	0.24645 0.07553 0.32831 0.12600
N 	N 	0.27379 0.07089 0.33534 -0.13900
C 	C 	0.28212 0.06951 0.37284 0.12600
N 	N 	0.26289 0.07239 0.40347 -0.13800
C 	C 	0.25025 0.06080 0.95645 -0.01300
C 	C 	0.26091 0.04232 0.98272 -0.01600
C 	C 	0.25320 0.04491 0.02291 -0.04500
C 	C 	0.23488 0.06610 0.03733 0.01700
C 	C 	0.22349 0.08407 0.01096 -0.04200
C 	C 	0.23104 0.08134 0.97061 -0.01500
C 	C 	0.22898 0.07036 0.08026 0.00900
C 	C 	0.21371 0.05063 0.10109 -0.03500
C 	C 	0.21174 0.05240 0.14235 -0.03400
C 	C 	0.22522 0.07382 0.16317 0.00900
C 	C 	0.23928 0.09434 0.14225 -0.03500
C 	C 	0.24111 0.09263 0.10098 -0.03500
C 	C 	0.22749 0.07293 0.20642 0.01800
C 	C 	0.24074 0.05042 0.22242 -0.04500
C 	C 	0.24556 0.05068 0.26268 -0.01400
C 	C 	0.23726 0.07350 0.28745 -0.01300
C 	C 	0.22289 0.09552 0.27187 -0.01400
C 	C 	0.21808 0.09528 0.23146 -0.04300
H 	H 	0.27562 0.02630 0.97210 0.04500
H 	H 	0.26203 0.03089 0.04301 0.04700
H 	H 	0.20923 0.10043 0.02177 0.05400
H 	H 	0.22273 0.09577 0.95065 0.06100
H 	H 	0.20408 0.03347 0.08537 0.04800
H 	H 	0.20056 0.03662 0.15815 0.04800
H 	H 	0.24974 0.11098 0.15795 0.04600
H 	H 	0.25288 0.10802 0.08518 0.04700
H 	H 	0.24806 0.03305 0.20345 0.04700
H 	H 	0.25641 0.03345 0.27446 0.04700
H 	H 	0.21634 0.11321 0.29071 0.05100
H 	H 	0.20759 0.11266 0.21951 0.05600
C 	C 	0.21447 0.07833 0.43024 -0.03800
C 	C 	0.19124 0.06036 0.43117 0.12000
C 	C 	0.17481 0.05829 0.46605 -0.07600
C 	C 	0.18154 0.07342 0.50050 0.01500
C 	C 	0.20362 0.09250 0.49907 0.09400
C 	C 	0.21984 0.09502 0.46398 -0.04200
H 	H 	0.15760 0.04378 0.46696 0.08000
C 	C 	0.16772 0.06632 0.53853 0.03000
H 	H 	0.23728 0.10926 0.46334 0.07200
C 	C 	0.18029 0.04632 0.56068 -0.07800
C 	C 	0.16337 0.02746 0.58069 0.14400
C 	C 	0.13426 0.02776 0.57593 -0.08400
C 	C 	0.12216 0.05262 0.56521 -0.01200
C 	C 	0.13893 0.07184 0.54562 0.09200
H 	H 	0.20285 0.04350 0.55871 0.09000
H 	H 	0.09958 0.05512 0.56669 0.07800
Br	Br	0.21214 0.11499 0.54484 -0.19700
Br	Br	0.18280 0.03672 0.38638 -0.24100
Br	Br	0.18040 0.99840 0.60768 -0.19600
Br	Br	0.12217 0.10417 0.52625 -0.19000
C 	C 	0.23554 0.05756 0.81361 -0.03600
C 	C 	0.21003 0.07246 0.81396 0.12200
C 	C 	0.19235 0.06883 0.78242 -0.07200
C 	C 	0.20051 0.05186 0.74927 0.01400
C 	C 	0.22686 0.03869 0.74754 0.09900
C 	C 	0.24381 0.04086 0.78006 -0.04100
H 	H 	0.17239 0.07963 0.78335 0.08300
C 	C 	0.18099 0.04778 0.71697 0.02900
H 	H 	0.26360 0.02977 0.77907 0.07300
C 	C 	0.17501 0.07008 0.69373 -0.07900
C 	C 	0.14911 0.07147 0.67610 0.14300
C 	C 	0.12921 0.05065 0.68228 -0.08400
C 	C 	0.13844 0.02546 0.69585 -0.01100
C 	C 	0.16359 0.02436 0.71534 0.09400
H 	H 	0.18921 0.08742 0.69251 0.08800
H 	H 	0.12415 0.00819 0.69706 0.07800
Br	Br	0.24043 0.01843 0.70060 -0.19000
Br	Br	0.20016 0.09993 0.85487 -0.22200
Br	Br	0.13961 0.10362 0.64873 -0.20000
Br	Br	0.17179 0.99230 0.74393 -0.18900
C 	C 	0.91223 0.33416 0.74514 -0.01800
C 	C 	0.90584 0.35334 0.71707 -0.01600
C 	C 	0.91034 0.34660 0.67684 -0.04600
C 	C 	0.92120 0.32060 0.66417 0.01700
C 	C 	0.92734 0.30129 0.69212 -0.04400
C 	C 	0.92289 0.30803 0.73241 -0.01500
C 	C 	0.92711 0.31401 0.62171 0.00700
C 	C 	0.90539 0.31452 0.59526 -0.03600
C 	C 	0.91141 0.31092 0.55466 -0.03600
C 	C 	0.93919 0.30674 0.54018 0.00700
C 	C 	0.96076 0.30522 0.56673 -0.03600
C 	C 	0.95475 0.30885 0.60730 -0.03600
C 	C 	0.94606 0.30651 0.49734 0.01700
C 	C 	0.94159 0.33031 0.47645 -0.04500
C 	C 	0.95202 0.33174 0.43750 -0.01500
C 	C 	0.96704 0.30940 0.41904 -0.01800
C 	C 	0.96987 0.28492 0.43906 -0.01500
C 	C 	0.95948 0.28351 0.47810 -0.04500
H 	H 	0.89729 0.37344 0.72638 0.04500
H 	H 	0.90564 0.36169 0.65551 0.04700
H 	H 	0.93570 0.28115 0.68264 0.05100
H 	H 	0.92805 0.29306 0.75367 0.05300
H 	H 	0.88394 0.31821 0.60610 0.04600
H 	H 	0.89458 0.31196 0.53444 0.04700
H 	H 	0.98228 0.30207 0.55587 0.04600
H 	H 	0.97167 0.30841 0.62745 0.04700
H 	H 	0.93106 0.34809 0.49091 0.04800
H 	H 	0.94939 0.35061 0.42218 0.04700
H 	H 	0.98132 0.26749 0.42510 0.04800
H 	H 	0.96271 0.26491 0.49381 0.05000
C 	C 	0.93780 0.12290 0.81174 -0.13100
C 	C 	0.93768 0.10619 0.77688 -0.05000
C 	C 	0.96284 0.09978 0.75568 0.15900
C 	C 	0.98837 0.10950 0.76999 -0.11900
C 	C 	0.98795 0.12943 0.80120 -0.07200
C 	C 	0.96278 0.13616 0.82217 0.17300
H 	H 	0.91835 0.09697 0.76734 -0.00900
O 	O 	0.96264 0.08222 0.72290 -0.28500
H 	H 	0.00741 0.13830 0.81090 0.06400
O 	O 	0.96258 0.15581 0.85256 -0.26600
H 	H 	0.96815 0.14593 0.87592 0.15200
H 	H 	0.96069 0.09433 0.70045 0.15700
C 	C 	0.86053 0.18063 0.96231 -0.08500
C 	C 	0.83827 0.19970 0.96821 0.14900
C 	C 	0.84290 0.22765 0.96151 -0.07700
C 	C 	0.86938 0.23634 0.94737 0.02400
C 	C 	0.89239 0.21805 0.94765 0.08600
C 	C 	0.88793 0.19055 0.95674 -0.01300
H 	H 	0.82540 0.24203 0.96366 0.08700
C 	C 	0.87178 0.26213 0.92578 0.01400
H 	H 	0.90542 0.17616 0.95435 0.06800
C 	C 	0.88724 0.28429 0.94129 -0.06700
C 	C 	0.89527 0.30607 0.91760 0.12300
C 	C 	0.88519 0.30722 0.87918 -0.03700
C 	C 	0.86743 0.28629 0.86528 -0.04100
C 	C 	0.86150 0.26341 0.88768 0.09400
H 	H 	0.89495 0.28350 0.97071 0.08700
H 	H 	0.85918 0.28721 0.83619 0.07200
Br	Br	0.92949 0.22923 0.93109 -0.20100
Br	Br	0.80113 0.18752 0.98222 -0.20500
Br	Br	0.92273 0.33167 0.93661 -0.21700
Br	Br	0.84108 0.23322 0.86445 -0.20900
C 	C 	0.08632 0.05346 0.33562 -0.13300
C 	C 	0.08802 0.06983 0.37041 -0.07900
C 	C 	0.09604 0.05810 0.40493 0.17500
C 	C 	0.10100 0.02942 0.40515 -0.14800
C 	C 	0.10337 0.01405 0.36908 -0.05200
C 	C 	0.09630 0.02612 0.33423 0.14800
H 	H 	0.08189 0.09140 0.37110 0.06400
O 	O 	0.09833 0.07452 0.43853 -0.27500
H 	H 	0.11003 0.99267 0.36810 -0.04100
O 	O 	0.09750 0.01070 0.29938 -0.31000
H 	H 	0.11662 0.01364 0.28770 0.16300
H 	H 	0.11807 0.08084 0.43773 0.17100
C 	C 	0.04366 0.14963 0.19428 -0.08300
C 	C 	0.06456 0.16973 0.19875 0.14700
C 	C 	0.05676 0.19734 0.20696 -0.07900
C 	C 	0.02826 0.20471 0.20952 0.02300
C 	C 	0.00859 0.18593 0.19443 0.08900
C 	C 	0.01664 0.15842 0.18577 -0.01400
H 	H 	0.07241 0.21228 0.21557 0.08200
C 	C 	0.01883 0.22755 0.23733 0.01600
H 	H 	0.00085 0.14327 0.17844 0.06800
C 	C 	0.01453 0.25397 0.22361 -0.07000
C 	C 	0.00714 0.27607 0.25016 0.12200
C 	C 	0.00505 0.27191 0.29106 -0.03700
C 	C 	0.00834 0.24524 0.30447 -0.04100
C 	C 	0.01500 0.22310 0.27791 0.09500
H 	H 	0.01674 0.25733 0.19233 0.08400
H 	H 	0.00642 0.24179 0.33576 0.07000
Br	Br	0.97015 0.19662 0.19044 -0.20200
Br	Br	0.10313 0.15904 0.20084 -0.21800
Br	Br	0.99814 0.31115 0.22977 -0.21700
Br	Br	0.01901 0.18692 0.29774 -0.20900
C 	C 	0.53361 0.98502 0.34671 -0.01500
C 	C 	0.52189 0.98026 0.38442 -0.01500
C 	C 	0.49556 0.99135 0.39633 -0.04300
C 	C 	0.48094 0.00751 0.37077 0.01700
C 	C 	0.49309 0.01300 0.33362 -0.04500
C 	C 	0.51925 0.00176 0.32161 -0.01600
C 	C 	0.45225 0.01730 0.38176 0.00800
C 	C 	0.42979 0.99875 0.38073 -0.03700
C 	C 	0.40218 0.00855 0.38477 -0.03500
C 	C 	0.39679 0.03699 0.39007 0.00700
C 	C 	0.41930 0.05540 0.39326 -0.03600
C 	C 	0.44691 0.04559 0.38897 -0.03700
C 	C 	0.36783 0.04765 0.38841 0.01700
C 	C 	0.34665 0.03878 0.41486 -0.04500
C 	C 	0.31875 0.04668 0.41069 -0.01500
C 	C 	0.31179 0.06357 0.38003 -0.01800
C 	C 	0.33318 0.07330 0.35458 -0.01600
C 	C 	0.36101 0.06530 0.35867 -0.04600
H 	H 	0.53280 0.96738 0.40404 0.05800
H 	H 	0.48635 0.98706 0.42511 0.05200
H 	H 	0.48196 0.02548 0.31374 0.04700
H 	H 	0.52824 0.00580 0.29260 0.04500
H 	H 	0.43372 0.97686 0.37525 0.04700
H 	H 	0.38498 0.99415 0.38232 0.04500
H 	H 	0.41538 0.07735 0.39785 0.04600
H 	H 	0.46414 0.06005 0.39007 0.04700
H 	H 	0.35172 0.02533 0.43813 0.05100
H 	H 	0.30249 0.03902 0.43056 0.05100
H 	H 	0.32819 0.08671 0.33123 0.04500
H 	H 	0.37719 0.07229 0.33811 0.04700
C 	C 	0.33063 0.05461 0.86127 -0.01900
C 	C 	0.34644 0.03980 0.88718 -0.01600
C 	C 	0.37395 0.03176 0.87637 -0.04600
C 	C 	0.38597 0.03840 0.83961 0.01700
C 	C 	0.37080 0.05446 0.81462 -0.04500
C 	C 	0.34329 0.06264 0.82545 -0.01500
C 	C 	0.41331 0.02640 0.82594 0.00700
C 	C 	0.43740 0.03284 0.84655 -0.03700
C 	C 	0.46218 0.01785 0.83818 -0.03600
C 	C 	0.46304 0.99627 0.80917 0.00700
C 	C 	0.43949 0.99105 0.78682 -0.03600
C 	C 	0.41472 0.00606 0.79517 -0.03600
C 	C 	0.48702 0.97696 0.80600 0.01800
C 	C 	0.48359 0.94993 0.81834 -0.04500
C 	C 	0.50693 0.93280 0.82111 -0.01400
C 	C 	0.53390 0.94252 0.81144 -0.01500
C 	C 	0.53717 0.96898 0.79682 -0.01400
C 	C 	0.51380 0.98619 0.79427 -0.04500
H 	H 	0.33707 0.03354 0.91497 0.04500
H 	H 	0.38558 0.01946 0.89593 0.04700
H 	H 	0.38006 0.05999 0.78639 0.05100
H 	H 	0.33162 0.07464 0.80559 0.05100
H 	H 	0.43659 0.04872 0.87007 0.04500
H 	H 	0.48031 0.02213 0.85544 0.04500
H 	H 	0.44005 0.97461 0.76410 0.04800
H 	H 	0.39627 0.00106 0.77892 0.04800
H 	H 	0.46297 0.94257 0.82725 0.04900
H 	H 	0.50416 0.91229 0.83199 0.04700
H 	H 	0.55790 0.97666 0.78915 0.04900
H 	H 	0.51661 0.00696 0.78438 0.05000
C 	C 	0.58748 0.89838 0.91029 -0.01800
C 	C 	0.56411 0.89219 0.93491 -0.01500
C 	C 	0.56650 0.89207 0.97574 -0.04600
C 	C 	0.59230 0.89798 0.99233 0.01700
C 	C 	0.61608 0.90223 0.96759 -0.04500
C 	C 	0.61371 0.90243 0.92676 -0.01500
C 	C 	0.59373 0.90270 0.03540 0.00700
C 	C 	0.60015 0.92903 0.05123 -0.03600
C 	C 	0.60009 0.93401 0.09203 -0.03600
C 	C 	0.59363 0.91271 0.11744 0.00700
C 	C 	0.58750 0.88627 0.10165 -0.03600
C 	C 	0.58753 0.88129 0.06076 -0.03600
C 	C 	0.59256 0.91836 0.16054 0.01700
C 	C 	0.56717 0.91595 0.18256 -0.04600
C 	C 	0.56537 0.92427 0.22254 -0.01600
C 	C 	0.58895 0.93526 0.24086 -0.01800
C 	C 	0.61463 0.93664 0.21909 -0.01500
C 	C 	0.61642 0.92817 0.17919 -0.04500
H 	H 	0.54389 0.88840 0.92254 0.04600
H 	H 	0.54807 0.88847 0.99458 0.04700
H 	H 	0.63618 0.90641 0.98010 0.05000
H 	H 	0.63198 0.90703 0.90817 0.04900
H 	H 	0.60476 0.94573 0.03189 0.04600
H 	H 	0.60468 0.95452 0.10392 0.04600
H 	H 	0.58260 0.86966 0.12102 0.04600
H 	H 	0.58259 0.86088 0.04882 0.04600
H 	H 	0.54866 0.90828 0.16847 0.04700
H 	H 	0.54556 0.92257 0.23909 0.04700
H 	H 	0.63302 0.94502 0.23274 0.05100
H 	H 	0.63618 0.92986 0.16252 0.05100
C 	C 	0.89570 0.04583 0.32775 -0.11500
C 	C 	0.91217 0.05859 0.35645 -0.05400
C 	C 	0.93519 0.07468 0.34522 0.16600
C 	C 	0.94224 0.07758 0.30486 -0.12000
C 	C 	0.92362 0.06780 0.27666 -0.04600
C 	C 	0.90065 0.05169 0.28788 0.15400
H 	H 	0.90790 0.05508 0.38739 0.07300
O 	O 	0.95123 0.08673 0.37364 -0.34200
H 	H 	0.92768 0.07153 0.24574 0.07300
O 	O 	0.88292 0.04187 0.25990 -0.26600
H 	H 	0.89170 0.02448 0.24874 0.12200
H 	H 	0.94275 0.10523 0.37966 0.16700
C 	C 	0.95074 0.97584 0.41644 -0.11000
C 	C 	0.96007 0.95002 0.42751 -0.07100
C 	C 	0.98713 0.94693 0.44119 0.14900
C 	C 	0.00487 0.97002 0.44495 -0.10300
C 	C 	0.99482 0.99616 0.43632 -0.08100
C 	C 	0.96793 0.99915 0.42196 0.16200
H 	H 	0.94691 0.93203 0.42361 0.01100
O 	O 	0.99610 0.92139 0.45108 -0.29800
H 	H 	0.00826 0.01404 0.43917 0.02400
O 	O 	0.95905 0.02462 0.41152 -0.33800
H 	H 	0.94926 0.03299 0.43555 0.15800
H 	H 	0.00430 0.91262 0.42623 0.07300
C 	C 	0.77287 0.96829 0.41484 -0.08100
C 	C 	0.75937 0.94367 0.40331 0.14700
C 	C 	0.73018 0.94323 0.40128 -0.08100
C 	C 	0.71434 0.96717 0.41099 0.02400
C 	C 	0.72744 0.99035 0.42842 0.09100
C 	C 	0.75672 0.99088 0.43009 -0.01300
H 	H 	0.72003 0.92486 0.38963 0.08400
C 	C 	0.68585 0.96946 0.39615 0.01700
H 	H 	0.76696 0.00955 0.44051 0.07000
C 	C 	0.66325 0.95675 0.41586 -0.07200
C 	C 	0.63710 0.95487 0.39880 0.12200
C 	C 	0.63341 0.96607 0.36183 -0.03800
C 	C 	0.65563 0.97995 0.34315 -0.04000
C 	C 	0.68182 0.98142 0.35981 0.09600
H 	H 	0.66627 0.94750 0.44378 0.08400
H 	H 	0.65281 0.98879 0.31488 0.07000
Br	Br	0.70586 0.02205 0.44750 -0.19800
Br	Br	0.78067 0.91094 0.38813 -0.20600
Br	Br	0.60730 0.93553 0.42530 -0.21700
Br	Br	0.71232 0.99843 0.33131 -0.20300
C 	C 	0.91997 0.96495 0.75132 -0.10500
C 	C 	0.94704 0.95396 0.75436 -0.06800
C 	C 	0.97070 0.97084 0.74993 0.15400
C 	C 	0.96734 0.99904 0.74319 -0.10700
C 	C 	0.94044 0.00948 0.73731 -0.05700
C 	C 	0.91679 0.99265 0.74171 0.14700
H 	H 	0.94970 0.93260 0.76159 0.02400
O 	O 	0.99684 0.96025 0.75551 -0.35000
H 	H 	0.93768 0.03110 0.73161 0.05800
O 	O 	0.89055 0.00360 0.73795 -0.27800
H 	H 	0.88455 0.01105 0.76470 0.07600
H 	H 	0.00408 0.95353 0.72897 0.15700
C 	C 	0.81394 0.99672 0.81939 -0.14700
C 	C 	0.82081 0.99588 0.85910 -0.06400
C 	C 	0.82248 0.02034 0.88240 0.15000
C 	C 	0.81778 0.04589 0.86579 -0.13600
C 	C 	0.80738 0.04640 0.82794 -0.09500
C 	C 	0.80540 0.02202 0.80469 0.16500
H 	H 	0.82556 0.97639 0.87168 -0.02500
O 	O 	0.83055 0.01933 0.92049 -0.28500
H 	H 	0.80265 0.06597 0.81550 0.04900
O 	O 	0.79640 0.02320 0.76706 -0.28600
H 	H 	0.77577 0.02086 0.76955 0.17000
H 	H 	0.81286 0.01781 0.93670 0.16000
C 	C 	0.76200 0.89999 0.69291 -0.07900
C 	C 	0.74691 0.92390 0.68459 0.14600
C 	C 	0.71761 0.92411 0.68935 -0.07700
C 	C 	0.70363 0.90068 0.70273 0.02300
C 	C 	0.71821 0.87536 0.70157 0.08900
C 	C 	0.74743 0.87506 0.69578 -0.01400
H 	H 	0.70615 0.94328 0.68725 0.08400
C 	C 	0.67770 0.90438 0.72787 0.01500
H 	H 	0.75894 0.85605 0.69895 0.06800
C 	C 	0.65173 0.89698 0.71297 -0.06800
C 	C 	0.62739 0.89797 0.73771 0.12300
C 	C 	0.62885 0.90756 0.77743 -0.03800
C 	C 	0.65475 0.91567 0.79187 -0.04100
C 	C 	0.67912 0.91376 0.76759 0.09400
H 	H 	0.65060 0.88953 0.68254 0.08600
H 	H 	0.65599 0.92319 0.82226 0.06900
Br	Br	0.69909 0.84173 0.71294 -0.20400
Br	Br	0.76604 0.95737 0.67241 -0.20100
Br	Br	0.59301 0.88408 0.71750 -0.21000
Br	Br	0.71438 0.92309 0.78972 -0.21100
C 	C 	0.13147 0.56954 0.39184 -0.01500
C 	C 	0.13497 0.56095 0.35181 -0.01600
C 	C 	0.12877 0.53383 0.33957 -0.04300
C 	C 	0.11938 0.51498 0.36721 0.01600
C 	C 	0.11724 0.52309 0.40736 -0.04500
C 	C 	0.12321 0.55022 0.41965 -0.01700
C 	C 	0.10942 0.48757 0.35396 0.00800
C 	C 	0.08368 0.48509 0.33586 -0.03600
C 	C 	0.07174 0.45911 0.32948 -0.03600
C 	C 	0.08551 0.43539 0.34103 0.00800
C 	C 	0.11216 0.43774 0.35667 -0.03600
C 	C 	0.12401 0.46376 0.36329 -0.03600
C 	C 	0.07057 0.40883 0.34151 0.01700
C 	C 	0.06012 0.39703 0.30670 -0.04300
C 	C 	0.04335 0.37346 0.30803 -0.01600
C 	C 	0.03694 0.36151 0.34419 -0.01500
C 	C 	0.04826 0.37279 0.37874 -0.01700
C 	C 	0.06489 0.39635 0.37741 -0.04500
H 	H 	0.14199 0.57538 0.33010 0.06100
H 	H 	0.13072 0.52764 0.30853 0.05200
H 	H 	0.11006 0.50860 0.42890 0.04700
H 	H 	0.12051 0.55641 0.45062 0.04500
H 	H 	0.07236 0.50338 0.32835 0.04800
H 	H 	0.05121 0.45753 0.31725 0.04700
H 	H 	0.12316 0.41951 0.36515 0.04600
H 	H 	0.14404 0.46548 0.37690 0.04600
H 	H 	0.06452 0.40642 0.27880 0.05100
H 	H 	0.03481 0.36492 0.28114 0.06000
H 	H 	0.04391 0.36347 0.40671 0.04600
H 	H 	0.07282 0.40533 0.40445 0.04700
C 	C 	0.91049 0.40375 0.85529 -0.01300
C 	C 	0.91082 0.40999 0.89614 -0.01600
C 	C 	0.91927 0.43607 0.91023 -0.04200
C 	C 	0.92754 0.45619 0.88374 0.01700
C 	C 	0.92596 0.45044 0.84308 -0.04400
C 	C 	0.91725 0.42452 0.82894 -0.01700
C 	C 	0.93972 0.48252 0.89831 0.00900
C 	C 	0.92932 0.50773 0.88617 -0.03600
C 	C 	0.94377 0.53222 0.89414 -0.03500
C 	C 	0.96855 0.53181 0.91485 0.00700
C 	C 	0.97778 0.50691 0.92950 -0.03500
C 	C 	0.96356 0.48235 0.92101 -0.03600
C 	C 	0.98642 0.55663 0.91720 0.01800
C 	C 	0.97522 0.58196 0.93234 -0.04500
C 	C 	0.99107 0.60609 0.92984 -0.01400
C 	C 	0.01835 0.60505 0.91237 -0.01800
C 	C 	0.03006 0.57944 0.89932 -0.01500
C 	C 	0.01413 0.55542 0.90148 -0.04600
H 	H 	0.90512 0.39453 0.91700 0.06400
H 	H 	0.91993 0.44045 0.94171 0.05200
H 	H 	0.93218 0.46585 0.82235 0.04700
H 	H 	0.91638 0.42045 0.79743 0.04600
H 	H 	0.91063 0.50819 0.86928 0.04600
H 	H 	0.93634 0.55133 0.88288 0.04600
H 	H 	0.99658 0.50642 0.94613 0.04700
H 	H 	0.97170 0.46306 0.93076 0.04800
H 	H 	0.95399 0.58308 0.94506 0.05100
H 	H 	0.98179 0.62567 0.94019 0.05200
H 	H 	0.05127 0.57824 0.88654 0.04500
H 	H 	0.02304 0.53598 0.88980 0.04800
C 	C 	0.13912 0.64121 0.49728 -0.01800
C 	C 	0.12598 0.66580 0.51212 -0.01500
C 	C 	0.12210 0.67107 0.55280 -0.04500
C 	C 	0.13115 0.65180 0.57910 0.01700
C 	C 	0.14566 0.62800 0.56443 -0.04600
C 	C 	0.14978 0.62281 0.52376 -0.01600
C 	C 	0.12332 0.65535 0.62163 0.00700
C 	C 	0.14408 0.65593 0.64961 -0.03600
C 	C 	0.13647 0.65782 0.68991 -0.03600
C 	C 	0.10806 0.65929 0.70251 0.00800
C 	C 	0.08735 0.65913 0.67453 -0.03600
C 	C 	0.09493 0.65711 0.63430 -0.03600
C 	C 	0.09988 0.65993 0.74493 0.01700
C 	C 	0.08590 0.68308 0.76276 -0.04200
C 	C 	0.07495 0.68238 0.80157 -0.01500
C 	C 	0.07778 0.65844 0.82287 -0.01400
C 	C 	0.09293 0.63576 0.80556 -0.01700
C 	C 	0.10392 0.63651 0.76677 -0.04400
H 	H 	0.11783 0.68035 0.49222 0.05100
H 	H 	0.11129 0.68972 0.56385 0.05100
H 	H 	0.15296 0.61311 0.58449 0.04700
H 	H 	0.16059 0.60411 0.51287 0.04600
H 	H 	0.16605 0.65471 0.64016 0.04600
H 	H 	0.15261 0.65799 0.71131 0.04700
H 	H 	0.06537 0.66013 0.68399 0.04700
H 	H 	0.07873 0.65647 0.61298 0.04600
H 	H 	0.08287 0.70133 0.74620 0.05200
H 	H 	0.06338 0.70006 0.81453 0.06300
H 	H 	0.09567 0.61733 0.82185 0.04500
H 	H 	0.11483 0.61859 0.75331 0.04700
C 	C 	0.95035 0.97396 0.90480 -0.11400
C 	C 	0.92582 0.98179 0.92687 -0.07300
C 	C 	0.91335 0.00764 0.92215 0.15300
C 	C 	0.92524 0.02565 0.89465 -0.12100
C 	C 	0.95080 0.01847 0.87461 -0.06300
C 	C 	0.96328 0.99276 0.87949 0.14300
H 	H 	0.91579 0.96746 0.94652 0.05200
O 	O 	0.88875 0.01452 0.94274 -0.29000
H 	H 	0.96071 0.03259 0.85454 -0.00600
O 	O 	0.98829 0.98611 0.85977 -0.34600
H 	H 	0.98318 0.97726 0.83426 0.11400
H 	H 	0.89446 0.02376 0.96772 0.16200
C 	C 	0.88507 0.86655 0.81589 -0.13000
C 	C 	0.91124 0.86440 0.79547 -0.04500
C 	C 	0.93559 0.86085 0.81614 0.13700
C 	C 	0.93368 0.85964 0.85761 -0.10700
C 	C 	0.90716 0.85715 0.87674 -0.06600
C 	C 	0.88289 0.86036 0.85593 0.16000
H 	H 	0.91296 0.86725 0.76403 0.06600
O 	O 	0.96097 0.85783 0.79575 -0.26200
H 	H 	0.90534 0.85407 0.90812 0.07500
O 	O 	0.85711 0.85929 0.87535 -0.30200
H 	H 	0.85129 0.83973 0.87246 0.16200
H 	H 	0.96691 0.87682 0.78978 0.05400
C 	C 	0.06202 0.98956 0.81908 -0.12600
C 	C 	0.06186 0.96168 0.80611 -0.06000
C 	C 	0.05680 0.94114 0.83284 0.15300
C 	C 	0.05038 0.94835 0.87278 -0.14200
C 	C 	0.05253 0.97600 0.88641 -0.03600
C 	C 	0.05849 0.99663 0.85970 0.13800
H 	H 	0.06529 0.95590 0.77509 0.06900
O 	O 	0.05691 0.91399 0.81957 -0.35100
H 	H 	0.04852 0.98166 0.91736 0.06300
O 	O 	0.06218 0.02333 0.87352 -0.26900
H 	H 	0.04302 0.03115 0.87788 0.04600
H 	H 	0.07645 0.90747 0.82200 0.17300
C 	C 	0.02477 0.83802 0.01078 -0.08400
C 	C 	0.00152 0.82165 0.02143 0.14300
C 	C 	0.00448 0.79288 0.02076 -0.08400
C 	C 	0.03046 0.78057 0.00965 0.02900
C 	C 	0.05455 0.79726 0.00823 0.08700
C 	C 	0.05159 0.82603 0.01019 -0.01400
H 	H 	0.98610 0.78011 0.02483 0.08700
C 	C 	0.03088 0.75326 0.98847 0.01400
H 	H 	0.06992 0.83878 0.00543 0.06900
C 	C 	0.02276 0.75133 0.94933 -0.07300
C 	C 	0.02501 0.72628 0.92741 0.12300
C 	C 	0.03647 0.70299 0.94420 -0.03800
C 	C 	0.04325 0.70450 0.98401 -0.04000
C 	C 	0.04014 0.72945 0.00636 0.09900
H 	H 	0.01480 0.76942 0.93585 0.08200
H 	H 	0.05134 0.68644 0.99741 0.07300
Br	Br	0.09116 0.78125 0.99823 -0.19600
Br	Br	0.96516 0.83780 0.03309 -0.21600
Br	Br	0.01091 0.72396 0.87533 -0.22600
Br	Br	0.04837 0.73058 0.06113 -0.19300
C 	C 	0.01239 0.93143 0.28750 -0.11600
C 	C 	0.98654 0.94377 0.28083 -0.08100
C 	C 	0.98540 0.97130 0.27019 0.17400
C 	C 	0.01010 0.98700 0.26778 -0.11100
C 	C 	0.03611 0.97384 0.27047 -0.08000
C 	C 	0.03735 0.94615 0.28059 0.17200
H 	H 	0.96728 0.93231 0.28508 0.00700
O 	O 	0.95997 0.98337 0.26455 -0.39400
H 	H 	0.05528 0.98550 0.26715 0.06900
O 	O 	0.06282 0.93416 0.28628 -0.32300
H 	H 	0.06898 0.92564 0.26021 0.16100
H 	H 	0.95687 0.98028 0.23604 0.14100
C 	C 	0.93220 0.86025 0.30350 -0.12900
C 	C 	0.92591 0.88175 0.27905 -0.07800
C 	C 	0.90484 0.90101 0.29082 0.16200
C 	C 	0.89080 0.89944 0.32810 -0.15000
C 	C 	0.89485 0.87610 0.35013 -0.05300
C 	C 	0.91544 0.85658 0.33797 0.12600
H 	H 	0.93818 0.88429 0.25185 0.06400
O 	O 	0.89819 0.92133 0.26603 -0.40400
H 	H 	0.88288 0.87363 0.37759 0.06700
O 	O 	0.91946 0.83407 0.36013 -0.25500
H 	H 	0.93240 0.84034 0.38068 0.08600
H 	H 	0.88309 0.91347 0.24994 0.17700
C 	C 	0.08578 0.89259 0.46652 -0.12000
C 	C 	0.10179 0.87888 0.43591 -0.07500
C 	C 	0.08861 0.86293 0.40692 0.16100
C 	C 	0.05925 0.85969 0.40955 -0.11900
C 	C 	0.04430 0.86874 0.44440 -0.06100
C 	C 	0.05754 0.88504 0.47303 0.17500
H 	H 	0.12411 0.88272 0.43252 0.05800
O 	O 	0.10446 0.85029 0.37652 -0.26100
H 	H 	0.02220 0.86418 0.44856 0.03500
O 	O 	0.04304 0.89316 0.50743 -0.27300
H 	H 	0.03373 0.91079 0.50201 0.16800
H 	H 	0.10721 0.86450 0.35664 0.13900
C 	C 	0.05241 0.76379 0.25781 -0.08100
C 	C 	0.04208 0.73667 0.25824 0.14900
C 	C 	0.05904 0.71544 0.27066 -0.07700
C 	C 	0.08617 0.72127 0.28279 0.02400
C 	C 	0.09802 0.74712 0.27530 0.08900
C 	C 	0.08118 0.76820 0.26221 -0.01300
H 	H 	0.05033 0.69505 0.27417 0.08400
C 	C 	0.09911 0.70310 0.31059 0.01600
H 	H 	0.08976 0.78872 0.25964 0.07200
C 	C 	0.11969 0.68386 0.29686 -0.07000
C 	C 	0.13180 0.66628 0.32298 0.12300
C 	C 	0.12232 0.66708 0.36301 -0.03800
C 	C 	0.10234 0.68696 0.37682 -0.04000
C 	C 	0.09094 0.70506 0.35097 0.09400
H 	H 	0.12660 0.68285 0.26601 0.08600
H 	H 	0.09517 0.68794 0.40757 0.07000
Br	Br	0.13628 0.75484 0.28668 -0.20100
Br	Br	0.00427 0.72877 0.24477 -0.19700
Br	Br	0.16260 0.64294 0.30405 -0.21800
Br	Br	0.06420 0.73242 0.37139 -0.20600
