data_crystal

_cell_length_a 26.74520
_cell_length_b 27.29391
_cell_length_c 28.31496
_cell_angle_alpha 99.92567
_cell_angle_beta  92.70115
_cell_angle_gamma 87.56715

_symmetry_space_group_name_	'P 1'
_symmetry_space_group_name_H-M	'P 1'

loop_
_symmetry_equiv_pos_as_xyz
  x,y,z

loop_
_atom_site_label
_atom_site_type_symbol
_atom_site_fract_x
_atom_site_fract_y
_atom_site_fract_z
_atom_site_charge
Zn	Zn	0.60366 0.10546 0.51811 1.20800
Zn	Zn	0.51049 0.05139 0.46520 1.21400
Zn	Zn	0.60676 0.01781 0.58149 1.21500
P 	P 	0.51563 0.07951 0.56881 0.31000
C 	C 	0.67022 0.10553 0.59850 0.31300
C 	C 	0.54737 0.14761 0.44823 0.30100
O 	O 	0.62048 0.05497 0.46332 -0.43600
O 	O 	0.55978 0.11699 0.57167 -0.44100
O 	O 	0.53505 0.02324 0.57010 -0.43300
O 	O 	0.47972 0.08422 0.52296 -0.41400
O 	O 	0.63448 0.08162 0.61441 -0.44600
O 	O 	0.54202 0.10019 0.42979 -0.43900
O 	O 	0.66850 0.11220 0.55345 -0.43900
O 	O 	0.57652 0.15996 0.48669 -0.42900
Zn	Zn	0.00222 0.07832 0.63182 1.20300
Zn	Zn	0.07072 0.08551 0.54715 1.22000
P 	P 	0.11096 0.07444 0.64338 0.30900
C 	C 	0.98995 0.15741 0.57789 0.30200
O 	O 	0.06429 0.11220 0.65119 -0.44400
O 	O 	0.11810 0.05443 0.58764 -0.43900
O 	O 	0.10447 0.03002 0.67214 -0.43200
O 	O 	0.10676 0.01909 0.46496 -0.25300
O 	O 	0.03910 0.15135 0.57547 -0.44400
O 	O 	0.96502 0.12984 0.60209 -0.43500
C 	C 	0.11580 0.06481 0.45989 0.27900
O 	O 	0.09950 0.10219 0.49170 -0.42300
Zn	Zn	0.50741 0.06883 0.98237 1.21200
Zn	Zn	0.50734 0.16523 0.06113 1.21600
P 	P 	0.44508 0.08031 0.06626 0.31200
O 	O 	0.44201 0.08566 0.01115 -0.43300
O 	O 	0.57739 0.06204 0.00143 -0.44600
O 	O 	0.48386 0.11738 0.09624 -0.45300
O 	O 	0.45937 0.02419 0.07185 -0.42300
O 	O 	0.57858 0.15154 0.05313 -0.42300
O 	O 	0.49383 0.28631 0.16239 -0.23000
O 	O 	0.51286 0.11777 0.94051 -0.43400
C 	C 	0.51418 0.24763 0.13499 0.28900
O 	O 	0.49646 0.23362 0.09111 -0.42100
Zn	Zn	0.94588 0.00750 0.05086 1.20200
Zn	Zn	0.02204 0.09285 0.05469 1.21500
P 	P 	0.98173 0.06809 0.14507 0.31100
C 	C 	0.10253 0.15444 0.04182 0.28100
C 	C 	0.92316 0.08958 0.00402 0.29600
O 	O 	0.93666 0.05977 0.10615 -0.45000
O 	O 	0.03098 0.08516 0.12235 -0.41400
O 	O 	0.04552 0.03564 0.00700 -0.42100
O 	O 	0.99338 0.01942 0.16921 -0.41800
O 	O 	0.05400 0.14860 0.03450 -0.41100
O 	O 	0.12794 0.12828 0.07028 -0.24500
O 	O 	0.95124 0.11356 0.03933 -0.44100
O 	O 	0.92158 0.04077 0.99760 -0.43800
C 	C 	0.27048 0.10050 0.33986 0.28600
C 	C 	0.89589 0.13638 0.25328 0.02900
C 	C 	0.92807 0.10240 0.22758 0.03300
C 	C 	0.95684 0.11579 0.19146 -0.03700
C 	C 	0.85362 0.10147 0.24727 -0.08300
H 	H 	0.87737 0.05262 0.17995 0.06000
H 	H 	0.82143 0.11253 0.22458 0.06900
H 	H 	0.90059 0.03082 0.23667 0.05500
H 	H 	0.84367 0.09102 0.28181 0.06000
C 	C 	0.89009 0.06277 0.21824 -0.07900
C 	C 	0.10811 0.19625 0.97005 0.04000
C 	C 	0.12940 0.18545 0.01367 -0.07800
H 	H 	0.03034 0.20888 0.94793 0.05900
C 	C 	0.06242 0.22921 0.96730 -0.07700
C 	C 	0.84563 0.19703 0.97269 0.05300
C 	C 	0.86940 0.16497 0.99930 0.04700
C 	C 	0.88782 0.11801 0.97721 -0.08200
C 	C 	0.87960 0.10313 0.92761 -0.00900
H 	H 	0.89388 0.06724 0.90987 0.04100
C 	C 	0.85556 0.13603 0.90039 -0.00100
C 	C 	0.83965 0.18387 0.92271 -0.09600
C 	C 	0.80227 0.20713 0.00478 -0.09700
H 	H 	0.80882 0.13658 0.03534 0.05400
H 	H 	0.76639 0.19249 0.98757 0.06100
H 	H 	0.84320 0.19005 0.07126 0.05800
H 	H 	0.80018 0.24633 0.02376 0.05800
C 	C 	0.82963 0.17101 0.03533 -0.08700
C 	C 	0.54218 0.18194 0.18210 0.04200
C 	C 	0.55385 0.21761 0.15451 -0.13700
C 	C 	0.60366 0.22143 0.14264 0.00600
H 	H 	0.61283 0.24565 0.11801 0.03500
C 	C 	0.64187 0.19536 0.16434 -0.00700
H 	H 	0.68062 0.20096 0.15772 0.02800
C 	C 	0.37350 0.07277 0.13073 0.04000
C 	C 	0.34209 0.09617 0.16504 0.03900
C 	C 	0.36084 0.14091 0.08657 -0.02000
C 	C 	0.38594 0.09610 0.09265 -0.04700
C 	C 	0.34611 0.02535 0.12298 -0.10000
H 	H 	0.31304 0.03569 0.19540 0.06100
H 	H 	0.27154 0.05780 0.14736 0.06300
H 	H 	0.32721 0.01642 0.08682 0.06100
C 	C 	0.31031 0.05196 0.16193 -0.07900
H 	H 	0.55697 0.23191 0.01437 0.01400
C 	C 	0.23227 0.16005 0.66346 0.03100
C 	C 	0.19925 0.12488 0.64279 0.02700
C 	C 	0.16433 0.10725 0.67073 -0.04100
C 	C 	0.16856 0.12013 0.72091 -0.01200
H 	H 	0.14329 0.10518 0.74318 0.04900
C 	C 	0.20227 0.15606 0.74209 -0.01600
H 	H 	0.20268 0.16867 0.78052 0.03800
C 	C 	0.23182 0.17877 0.71302 -0.04300
H 	H 	0.19717 0.12999 0.56721 0.04800
H 	H 	0.14528 0.16584 0.60196 0.04600
C 	C 	0.18479 0.15130 0.60195 -0.08600
C 	C 	0.19614 0.13052 0.38768 0.03900
C 	C 	0.15823 0.12208 0.41558 0.03800
C 	C 	0.14918 0.07343 0.42246 -0.06900
C 	C 	0.17449 0.03301 0.39451 -0.03400
C 	C 	0.21323 0.04177 0.36587 0.00800
H 	H 	0.23429 0.01065 0.34623 0.02800
C 	C 	0.22660 0.09076 0.36528 -0.09300
C 	C 	0.21576 0.17275 0.42362 -0.09300
H 	H 	0.14379 0.19407 0.46047 0.05500
H 	H 	0.21121 0.20897 0.41072 0.04900
H 	H 	0.18672 0.15011 0.48881 0.05300
C 	C 	0.17253 0.16317 0.45546 -0.07700
C 	C 	0.90997 0.19339 0.54711 0.04800
C 	C 	0.96261 0.19210 0.55028 -0.09600
H 	H 	0.85545 0.18171 0.59840 0.06000
H 	H 	0.44391 0.12970 0.45573 0.04800
H 	H 	0.37749 0.16577 0.41351 0.06900
H 	H 	0.43421 0.17784 0.51066 0.05800
C 	C 	0.43701 0.16939 0.47106 -0.08200
C 	C 	0.70953 0.12267 0.67908 0.05200
C 	C 	0.72166 0.15647 0.71867 0.02800
C 	C 	0.70124 0.13705 0.63407 -0.09900
C 	C 	0.74971 0.08583 0.68894 -0.09400
H 	H 	0.80137 0.13956 0.73296 0.06000
H 	H 	0.77948 0.08012 0.66217 0.05200
H 	H 	0.75619 0.11133 0.76852 0.05300
H 	H 	0.73445 0.05127 0.69747 0.04900
C 	C 	0.76367 0.12434 0.73450 -0.07900
C 	C 	0.42131 0.16563 0.65406 0.03900
C 	C 	0.43843 0.13230 0.61617 0.03000
C 	C 	0.48177 0.10272 0.62114 -0.03700
C 	C 	0.50667 0.10626 0.66641 -0.02000
H 	H 	0.54143 0.08535 0.67055 0.04800
C 	C 	0.48904 0.14025 0.70541 0.00700
H 	H 	0.50928 0.14403 0.73980 0.03600
C 	C 	0.44652 0.17064 0.69913 -0.08600
C 	C 	0.36867 0.14891 0.64575 -0.08900
H 	H 	0.37354 0.11860 0.56732 0.06400
H 	H 	0.34290 0.17784 0.63399 0.05800
H 	H 	0.38617 0.07151 0.60808 0.06200
H 	H 	0.35512 0.13083 0.67488 0.06600
C 	C 	0.38840 0.11079 0.60271 -0.07800
O 	O 	0.01775 0.04282 0.51876 -0.42300
O 	O 	0.98488 0.06419 0.69458 -0.43200
P 	P 	0.59251 0.09355 0.05216 0.30600
O 	O 	0.56856 0.07168 0.09485 -0.42300
O 	O 	0.27610 0.07796 0.29546 -0.24300
H 	H 	0.85145 0.12537 0.86180 0.03600
O 	O 	0.45552 0.03319 0.41982 -0.42500
C 	C 	0.98594 0.01754 0.70135 0.28900
O 	O 	0.97547 0.01933 0.59149 -0.45100
C 	C 	0.87603 0.05172 0.74939 -0.07500
H 	H 	0.84967 0.04045 0.82068 0.05300
H 	H 	0.89624 0.08391 0.77002 0.05600
Zn	Zn	0.53112 0.01118 0.07349 1.21600
H 	H 	0.85418 0.05923 0.71695 0.04600
O 	O 	0.41334 0.19707 0.77683 -0.24400
O 	O 	0.39158 0.05811 0.46945 -0.23700
C 	C 	0.95651 0.16599 0.18613 -0.01400
C 	C 	0.41133 0.02570 0.43506 0.26900
H 	H 	0.07732 0.25172 0.89689 0.06000
H 	H 	0.67309 0.13304 0.00413 0.05100
C 	C 	0.84627 0.02380 0.78203 -0.11000
C 	C 	0.63008 0.16693 0.19893 -0.09100
C 	C 	0.51546 0.18585 0.42971 -0.08500
C 	C 	0.39376 0.19330 0.44320 -0.08400
C 	C 	0.49901 0.16353 0.95829 0.31200
C 	C 	0.47086 0.20302 0.45236 0.03200
H 	H 	0.36612 0.21557 0.46691 0.05600
O 	O 	0.47357 0.17173 0.99771 -0.44000
O 	O 	0.29678 0.13948 0.35692 -0.42600
C 	C 	0.32173 0.14390 0.16272 -0.04500
H 	H 	0.36976 0.15947 0.05731 0.04400
H 	H 	0.25330 0.16492 0.43989 0.06000
C 	C 	0.13462 0.22042 0.94120 0.04000
C 	C 	0.55682 0.23407 0.97657 0.01200
H 	H 	0.61963 0.28201 0.98477 0.04800
H 	H 	0.02923 0.21758 0.52234 0.04000
C 	C 	0.09255 0.25668 0.93455 -0.08300
C 	C 	0.32807 0.16443 0.12126 -0.01400
C 	C 	0.88417 0.22214 0.51842 0.03400
C 	C 	0.98867 0.21908 0.52166 -0.00200
H 	H 	0.47598 0.17436 0.22154 0.06400
O 	O 	0.83603 0.29608 0.46734 -0.24800
O 	O 	0.32744 0.15830 0.26152 -0.41000
H 	H 	0.31171 0.20082 0.11828 0.03800
C 	C 	0.52457 0.20480 0.94364 -0.10600
C 	C 	0.59227 0.26263 0.95986 -0.01000
H 	H 	0.54687 0.13573 0.86278 0.07100
C 	C 	0.90958 0.25060 0.49089 -0.07300
C 	C 	0.96217 0.24816 0.49198 -0.00900
H 	H 	0.98248 0.26891 0.47020 0.04900
C 	C 	0.87845 0.21148 0.58922 -0.08600
C 	C 	0.43280 0.22443 0.42800 0.04900
Zn	Zn	0.84353 0.27706 0.81906 1.20900
Zn	Zn	0.73878 0.28135 0.86821 1.22000
P 	P 	0.75085 0.24781 0.76594 0.30900
C 	C 	0.63808 0.28230 0.89112 0.28200
C 	C 	0.82793 0.22254 0.89343 0.30600
C 	C 	0.89296 0.31086 0.74566 0.30400
O 	O 	0.80967 0.24032 0.76343 -0.44900
O 	O 	0.83351 0.33225 0.87058 -0.43800
O 	O 	0.73274 0.30369 0.76315 -0.44500
O 	O 	0.73186 0.22999 0.81263 -0.41900
O 	O 	0.68353 0.27046 0.90621 -0.41700
O 	O 	0.63215 0.30507 0.85387 -0.24700
O 	O 	0.79712 0.26053 0.90914 -0.43500
O 	O 	0.84846 0.30550 0.72367 -0.43800
O 	O 	0.85371 0.22272 0.85498 -0.43800
O 	O 	0.90022 0.30110 0.78940 -0.43300
Zn	Zn	0.23020 0.28983 0.83151 1.21700
Zn	Zn	0.35656 0.28503 0.74597 1.22100
P 	P 	0.26148 0.23579 0.73729 0.31000
C 	C 	0.43036 0.20967 0.73803 0.28200
O 	O 	0.22464 0.27913 0.72476 -0.44000
O 	O 	0.27133 0.23895 0.79401 -0.43300
O 	O 	0.34393 0.29654 0.81326 -0.43400
O 	O 	0.31215 0.23716 0.71022 -0.42700
O 	O 	0.27067 0.34592 0.86179 -0.40600
O 	O 	0.42046 0.25472 0.72896 -0.42100
O 	O 	0.26135 0.26489 0.92988 -0.24700
O 	O 	0.17083 0.31303 0.79418 -0.44200
C 	C 	0.21315 0.25846 0.92130 0.28300
O 	O 	0.19165 0.26975 0.88161 -0.41500
Zn	Zn	0.73085 0.23818 0.27337 1.21500
Zn	Zn	0.85062 0.29283 0.36391 1.21900
P 	P 	0.84003 0.22688 0.26897 0.30800
C 	C 	0.88120 0.27779 0.45711 0.28000
O 	O 	0.85286 0.28065 0.26016 -0.44500
O 	O 	0.78902 0.20994 0.23995 -0.43300
O 	O 	0.83509 0.22724 0.32521 -0.42600
O 	O 	0.74306 0.25768 0.34271 -0.43300
O 	O 	0.89755 0.27719 0.41390 -0.41000
O 	O 	0.70201 0.12403 0.22807 -0.24500
O 	O 	0.69636 0.28856 0.23658 -0.43800
C 	C 	0.66758 0.15972 0.23653 0.28500
O 	O 	0.67467 0.19633 0.27229 -0.42100
Zn	Zn	0.29854 0.19178 0.32023 1.21600
Zn	Zn	0.23518 0.26720 0.21287 1.22000
P 	P 	0.30853 0.18474 0.21752 0.30800
C 	C 	0.39347 0.24100 0.34976 0.30300
O 	O 	0.34087 0.23211 0.21812 -0.44400
O 	O 	0.23432 0.22401 0.30848 -0.44000
O 	O 	0.24981 0.19858 0.21868 -0.43300
O 	O 	0.12495 0.24960 0.21070 -0.24900
O 	O 	0.34839 0.23333 0.36329 -0.44400
O 	O 	0.39817 0.26093 0.31112 -0.43300
H 	H 	0.97891 0.17746 0.15933 0.04100
C 	C 	0.92361 0.20078 0.21248 -0.01700
H 	H 	0.92176 0.23880 0.20609 0.05400
C 	C 	0.89079 0.18538 0.24421 -0.04000
C 	C 	0.17912 0.19871 0.02679 -0.01700
H 	H 	0.19662 0.19034 0.05990 0.04900
C 	C 	0.20633 0.22320 0.99716 0.00400
H 	H 	0.24443 0.23335 0.00783 0.04000
C 	C 	0.18391 0.23501 0.95430 -0.08200
H 	H 	0.05353 0.25302 0.00206 0.05800
H 	H 	0.10041 0.29570 0.95118 0.05900
C 	C 	0.57951 0.15729 0.20417 0.04900
C 	C 	0.55458 0.16603 0.25124 -0.08800
H 	H 	0.50913 0.23438 0.24067 0.06300
H 	H 	0.57477 0.19138 0.28016 0.06000
H 	H 	0.54232 0.13099 0.26142 0.06100
C 	C 	0.51196 0.19391 0.22580 -0.08800
C 	C 	0.55601 0.24071 0.87935 0.03300
C 	C 	0.52234 0.21160 0.89541 0.05800
C 	C 	0.59431 0.26302 0.91049 -0.07100
C 	C 	0.56599 0.20378 0.83504 -0.07800
H 	H 	0.60484 0.18742 0.83404 0.05800
H 	H 	0.49339 0.16469 0.83070 0.07100
H 	H 	0.55206 0.21744 0.80187 0.06000
C 	C 	0.52820 0.17026 0.85367 -0.09500
C 	C 	0.22222 0.19154 0.62547 -0.08000
H 	H 	0.25524 0.19315 0.60347 0.05000
H 	H 	0.20293 0.22799 0.63822 0.06500
H 	H 	0.85438 0.28502 0.56946 0.06400
H 	H 	0.89893 0.23374 0.62007 0.06100
H 	H 	0.81006 0.23345 0.54790 0.05900
C 	C 	0.84938 0.24455 0.55668 -0.08000
H 	H 	0.04078 0.30043 0.20553 0.04600
C 	C 	0.52406 0.19848 0.38481 -0.00200
H 	H 	0.55916 0.18761 0.36771 0.04000
C 	C 	0.48550 0.22164 0.36025 -0.00500
H 	H 	0.49156 0.22950 0.32489 0.04100
C 	C 	0.43804 0.23067 0.38009 -0.08600
C 	C 	0.72697 0.20652 0.71530 -0.03900
C 	C 	0.72005 0.22186 0.67058 -0.02600
H 	H 	0.72500 0.26028 0.66725 0.03500
C 	C 	0.70723 0.18710 0.62987 0.00900
H 	H 	0.69985 0.19942 0.59575 0.03900
H 	H 	0.34419 0.28449 0.08612 0.05800
H 	H 	0.59572 0.31967 0.20645 0.06600
H 	H 	0.26467 0.32122 0.41948 0.05600
C 	C 	0.95228 0.31056 0.68151 0.03400
C 	C 	0.99312 0.27146 0.68086 -0.08000
H 	H 	0.02478 0.28078 0.61122 0.06100
H 	H 	0.98133 0.23447 0.66187 0.05600
H 	H 	0.05605 0.31738 0.66607 0.05900
H 	H 	0.01262 0.27120 0.71639 0.05500
C 	C 	0.02102 0.30112 0.64846 -0.08800
C 	C 	0.40906 0.28097 0.61585 -0.09700
H 	H 	0.40849 0.26242 0.53605 0.05200
H 	H 	0.37585 0.25725 0.61285 0.04900
H 	H 	0.43862 0.27366 0.64289 0.07100
C 	C 	0.43063 0.28363 0.56629 -0.07700
C 	C 	0.13491 0.27297 0.17556 0.28400
O 	O 	0.18174 0.28035 0.16742 -0.41800
C 	C 	0.04763 0.30949 0.17068 -0.01100
C 	C 	0.93156 0.33487 0.72423 -0.09100
C 	C 	0.68671 0.10150 0.02020 -0.04600
C 	C 	0.65925 0.08571 0.05562 -0.02500
H 	H 	0.80748 0.01565 0.76787 0.05300
H 	H 	0.54756 0.35408 0.14415 0.07500
C 	C 	0.72643 0.07132 0.99965 0.03300
H 	H 	0.74344 0.08021 0.96833 0.03300
H 	H 	0.47187 0.27695 0.56542 0.06600
Zn	Zn	0.33550 0.27907 0.27764 1.20500
H 	H 	0.97864 0.35282 0.16781 0.04300
O 	O 	0.73796 0.34689 0.85071 -0.43200
H 	H 	0.06732 0.33404 0.76020 0.03900
H 	H 	0.41519 0.40424 0.79066 0.05800
Zn	Zn	0.78719 0.34304 0.75122 1.21800
P 	P 	0.79188 0.37054 0.85598 0.31000
Zn	Zn	0.25320 0.34441 0.74342 1.20600
P 	P 	0.31884 0.35018 0.83116 0.30800
C 	C 	0.32727 0.35069 0.67640 0.30200
C 	C 	0.16199 0.35992 0.79000 0.30400
O 	O 	0.30359 0.37820 0.78759 -0.44500
O 	O 	0.35779 0.34491 0.71329 -0.43900
O 	O 	0.27842 0.35263 0.68115 -0.43600
Zn	Zn	0.79706 0.32802 0.27330 1.20500
P 	P 	0.74275 0.31674 0.35738 0.31100
C 	C 	0.71723 0.30890 0.20354 0.30900
O 	O 	0.73728 0.34163 0.31077 -0.44900
O 	O 	0.79354 0.33362 0.38635 -0.42600
O 	O 	0.89261 0.33575 0.33221 -0.43400
O 	O 	0.76335 0.32427 0.21031 -0.44100
P 	P 	0.23690 0.28330 0.31862 0.30900
O 	O 	0.29266 0.29980 0.33153 -0.44200
O 	O 	0.21602 0.30694 0.27330 -0.41800
O 	O 	0.28923 0.30027 0.18443 -0.44100
C 	C 	0.09360 0.29567 0.14899 -0.07800
C 	C 	0.01215 0.33891 0.14912 -0.00100
C 	C 	0.06993 0.36086 0.79309 0.00600
H 	H 	0.77422 0.37856 0.95812 0.03900
C 	C 	0.40184 0.34133 0.08441 -0.08200
H 	H 	0.39002 0.29305 0.13898 0.07400
H 	H 	0.39620 0.33300 0.04472 0.06200
C 	C 	0.36858 0.31015 0.11095 -0.08000
C 	C 	0.68558 0.32563 0.16549 -0.09300
C 	C 	0.69748 0.31049 0.11722 -0.00200
H 	H 	0.72775 0.28345 0.10769 0.03400
C 	C 	0.57353 0.38090 0.16534 -0.08800
H 	H 	0.60502 0.38425 0.24052 0.05400
C 	C 	0.60457 0.35889 0.20531 -0.08200
C 	C 	0.36526 0.38681 0.86772 -0.04300
C 	C 	0.39046 0.36892 0.90621 -0.01500
H 	H 	0.38159 0.33321 0.91484 0.05600
C 	C 	0.20046 0.30841 0.36984 -0.03800
C 	C 	0.22467 0.32715 0.41409 -0.03400
C 	C 	0.19752 0.35665 0.45040 0.00800
H 	H 	0.21688 0.37392 0.48313 0.03600
C 	C 	0.97679 0.33666 0.65302 0.04800
C 	C 	0.39611 0.33517 0.61905 0.05900
C 	C 	0.41569 0.33751 0.57586 0.02700
C 	C 	0.34830 0.35566 0.63028 -0.09400
C 	C 	0.64166 0.32389 0.38182 0.02600
C 	C 	0.69052 0.34065 0.39409 -0.03800
H 	H 	0.61072 0.27943 0.31654 0.05400
C 	C 	0.66953 0.32992 0.08112 -0.01000
H 	H 	0.67871 0.31822 0.04396 0.03900
C 	C 	0.61851 0.31870 0.33221 -0.09100
H 	H 	0.53842 0.32502 0.35328 0.05900
H 	H 	0.63732 0.33986 0.30836 0.06600
C 	C 	0.57206 0.34802 0.35564 -0.07600
O 	O 	0.80642 0.38966 0.80818 -0.41000
H 	H 	0.99812 0.34379 0.81637 0.05500
C 	C 	0.64940 0.36400 0.17726 0.04400
Zn	Zn	0.50858 0.40556 0.54379 1.22000
C 	C 	0.41558 0.37068 0.49946 0.29600
O 	O 	0.50206 0.40778 0.43891 -0.42900
O 	O 	0.46418 0.36106 0.49833 -0.44000
O 	O 	0.39634 0.40348 0.47414 -0.42100
C 	C 	0.54016 0.37679 0.63157 0.27700
O 	O 	0.53224 0.35991 0.58564 -0.41900
C 	C 	0.11991 0.40651 0.47507 0.31000
C 	C 	0.00008 0.41740 0.63165 0.30700
O 	O 	0.11587 0.40216 0.52038 -0.44000
O 	O 	0.01840 0.39438 0.59099 -0.43700
C 	C 	0.59882 0.38372 0.05619 0.28100
O 	O 	0.55015 0.38888 0.06035 -0.41900
O 	O 	0.62050 0.40633 0.02570 -0.24300
C 	C 	0.99555 0.39792 0.09176 0.30200
O 	O 	0.97608 0.39610 0.04773 -0.43400
O 	O 	0.01593 0.39124 0.95050 -0.41900
O 	O 	0.74635 0.45545 0.74718 -0.23000
C 	C 	0.73863 0.41957 0.71051 0.27700
O 	O 	0.77199 0.38278 0.70200 -0.41600
O 	O 	0.19376 0.38320 0.76838 -0.43100
C 	C 	0.87631 0.38072 0.32655 0.30900
O 	O 	0.83693 0.38630 0.29812 -0.43200
C 	C 	0.31352 0.33923 0.20693 0.30900
O 	O 	0.33063 0.34062 0.25149 -0.44200
C 	C 	0.06479 0.33337 0.08099 0.03100
C 	C 	0.09990 0.30525 0.10232 0.04000
C 	C 	0.02231 0.35400 0.10564 -0.08800
H 	H 	0.16264 0.35558 0.12013 0.06000
H 	H 	0.16740 0.30917 0.06310 0.05500
C 	C 	0.14283 0.33281 0.08900 -0.08100
C 	C 	0.11622 0.42217 0.84804 0.04000
C 	C 	0.11517 0.38468 0.80714 -0.09200
C 	C 	0.03091 0.36606 0.82506 -0.01500
C 	C 	0.03686 0.39636 0.87011 -0.07600
C 	C 	0.15595 0.42470 0.88736 -0.08100
C 	C 	0.81430 0.46567 0.89735 0.04700
C 	C 	0.79299 0.42163 0.90456 -0.04400
C 	C 	0.79201 0.41152 0.95149 -0.00800
C 	C 	0.82063 0.43949 0.98835 -0.00900
H 	H 	0.82389 0.42851 0.02336 0.05200
C 	C 	0.37099 0.38564 0.10649 0.04300
C 	C 	0.34201 0.35835 0.12990 0.04100
C 	C 	0.33278 0.37396 0.17877 -0.09100
H 	H 	0.44158 0.34161 0.09798 0.07600
C 	C 	0.62217 0.38294 0.14212 0.03500
C 	C 	0.62951 0.36403 0.09345 -0.07900
H 	H 	0.55684 0.41857 0.17816 0.05500
C 	C 	0.41284 0.46141 0.88467 0.03300
C 	C 	0.37735 0.43330 0.85733 0.02900
C 	C 	0.42724 0.39748 0.93383 -0.01100
H 	H 	0.44530 0.38429 0.96456 0.03800
C 	C 	0.43823 0.44444 0.92359 -0.04500
C 	C 	0.43920 0.47145 0.84222 -0.08200
H 	H 	0.47756 0.45405 0.83897 0.05800
H 	H 	0.37359 0.46136 0.78973 0.06000
C 	C 	0.39897 0.43939 0.81104 -0.07900
C 	C 	0.12128 0.34078 0.40136 0.05000
C 	C 	0.14783 0.31215 0.36580 0.02200
C 	C 	0.14625 0.36692 0.44248 -0.09700
C 	C 	0.98153 0.38835 0.66601 -0.09000
C 	C 	0.96291 0.41276 0.70990 -0.00100
C 	C 	0.93795 0.38602 0.73883 -0.00900
H 	H 	0.92161 0.40541 0.77147 0.04600
C 	C 	0.89397 0.42327 0.36048 -0.10600
C 	C 	0.59848 0.41959 0.69584 0.03700
C 	C 	0.64565 0.43117 0.71404 0.04200
C 	C 	0.68803 0.41375 0.68773 -0.08800
C 	C 	0.68133 0.38758 0.64070 -0.00500
H 	H 	0.71343 0.37505 0.61930 0.04500
C 	C 	0.63300 0.37586 0.62194 -0.00900
H 	H 	0.62828 0.35470 0.58607 0.04000
C 	C 	0.59124 0.39006 0.65034 -0.09000
H 	H 	0.65892 0.38468 0.76967 0.06700
C 	C 	0.63640 0.41778 0.76181 -0.08700
C 	C 	0.38927 0.36144 0.54177 -0.10000
C 	C 	0.34191 0.38395 0.55306 -0.00200
C 	C 	0.32140 0.38096 0.59728 -0.00200
H 	H 	0.28493 0.39816 0.60569 0.04500
C 	C 	0.60073 0.34994 0.40243 0.03000
C 	C 	0.60685 0.39418 0.43570 -0.04600
C 	C 	0.65541 0.40804 0.45213 -0.01600
C 	C 	0.69716 0.38132 0.43144 -0.01500
H 	H 	0.73436 0.39404 0.44257 0.05600
O 	O 	0.44822 0.43415 0.06812 -0.44300
H 	H 	0.17799 0.38929 0.88787 0.04500
C 	C 	0.58269 0.40451 0.74105 -0.07900
H 	H 	0.57569 0.36410 0.73739 0.06600
H 	H 	0.63672 0.45067 0.79106 0.06400
H 	H 	0.55294 0.42996 0.75871 0.05700
H 	H 	0.32120 0.40377 0.52800 0.04500
H 	H 	0.56563 0.38504 0.34453 0.05900
C 	C 	0.34795 0.42104 0.20161 -0.00500
C 	C 	0.39185 0.42988 0.13082 -0.09100
H 	H 	0.14135 0.35638 0.30745 0.06700
H 	H 	0.09631 0.30463 0.30322 0.06500
C 	C 	0.11925 0.33291 0.32657 -0.07900
H 	H 	0.96642 0.45252 0.72091 0.04900
C 	C 	0.10289 0.36426 0.06430 -0.09200
H 	H 	0.10479 0.35795 0.02460 0.04600
P 	P 	0.55348 0.43210 0.45899 0.30800
O 	O 	0.50168 0.38993 0.65871 -0.23200
Zn	Zn	0.05644 0.43284 0.55359 1.20400
O 	O 	0.01017 0.43045 0.49869 -0.44400
O 	O 	0.51921 0.46786 0.98805 -0.42700
O 	O 	0.99189 0.43925 0.12315 -0.43800
C 	C 	0.00023 0.39609 0.90691 0.27600
H 	H 	0.10097 0.40387 0.08193 0.05000
C 	C 	0.07788 0.42780 0.87901 0.03100
C 	C 	0.84808 0.47899 0.97855 -0.03500
H 	H 	0.43616 0.51137 0.83851 0.05700
C 	C 	0.94463 0.43432 0.36127 0.05800
Zn	Zn	0.51654 0.45037 0.05094 1.21900
H 	H 	0.11086 0.39894 0.94195 0.06000
H 	H 	0.82659 0.43304 0.40100 0.04000
C 	C 	0.08894 0.36530 0.36699 -0.08800
H 	H 	0.04910 0.35504 0.36638 0.06000
O 	O 	0.55884 0.43865 0.51612 -0.44900
O 	O 	0.09291 0.44090 0.45676 -0.44300
O 	O 	0.00346 0.46609 0.64423 -0.44400
Zn	Zn	0.99631 0.44155 0.00284 1.21600
H 	H 	0.17846 0.45852 0.89060 0.05600
C 	C 	0.84152 0.49370 0.93359 0.03500
H 	H 	0.33891 0.43469 0.23847 0.04000
C 	C 	0.37815 0.44869 0.17789 -0.00400
C 	C 	0.86589 0.44122 0.40101 0.00400
H 	H 	0.99077 0.44879 0.30438 0.05500
Zn	Zn	0.44427 0.45221 0.46137 1.20100
C 	C 	0.42574 0.45728 0.10657 0.30800
O 	O 	0.90757 0.47080 0.05978 -0.43700
C 	C 	0.11223 0.43102 0.92260 -0.09000
H 	H 	0.09511 0.40563 0.36886 0.06500
O 	O 	0.94878 0.49061 0.98399 -0.43500
O 	O 	0.95369 0.41086 0.89904 -0.23000
H 	H 	0.79041 0.51760 0.84991 0.07000
H 	H 	0.74315 0.50807 0.89425 0.06500
C 	C 	0.78333 0.50925 0.88603 -0.08500
C 	C 	0.96780 0.45827 0.40229 0.01200
C 	C 	0.94156 0.47181 0.44457 -0.03200
C 	C 	0.96398 0.46823 0.33079 -0.09100
H 	H 	0.66087 0.44063 0.47943 0.05500
O 	O 	0.55545 0.48492 0.44230 -0.41800
O 	O 	0.46505 0.45444 0.58110 -0.41300
O 	O 	0.43152 0.48824 0.40652 -0.43500
P 	P 	0.97658 0.47984 0.50032 0.31100
O 	O 	0.08785 0.47787 0.60599 -0.43800
O 	O 	0.94187 0.48614 0.54553 -0.40300
P 	P 	0.46633 0.48916 0.97003 0.31100
O 	O 	0.42646 0.49651 0.01068 -0.45200
O 	O 	0.54694 0.49845 0.10202 -0.42200
O 	O 	0.42626 0.50607 0.11780 -0.44100
Zn	Zn	0.96345 0.49854 0.10099 1.20600
P 	P 	0.90100 0.50021 0.01620 0.30200
O 	O 	0.05834 0.47319 0.02565 -0.42900
H 	H 	0.11050 0.46842 0.94548 0.06100
C 	C 	0.81444 0.54118 0.92707 -0.08000
H 	H 	0.39313 0.48311 0.19686 0.04200
C 	C 	0.88985 0.46488 0.44332 -0.02300
H 	H 	0.86887 0.47507 0.47554 0.05900
H 	H 	0.40191 0.49305 0.30082 0.05900
H 	H 	0.34046 0.48231 0.32633 0.05800
H 	H 	0.93427 0.49181 0.31599 0.05900
H 	H 	0.03181 0.49133 0.37723 0.04500
C 	C 	0.99031 0.49555 0.37758 -0.07900
O 	O 	0.42613 0.50416 0.51570 -0.44200
Zn	Zn	0.98099 0.51601 0.60229 1.22000
O 	O 	0.47260 0.54019 0.95058 -0.41300
H 	H 	0.12613 0.48916 0.11238 0.06000
H 	H 	0.83907 0.56733 0.91396 0.06000
H 	H 	0.16860 0.45920 0.06367 0.05100
H 	H 	0.79146 0.55784 0.95795 0.06700
P 	P 	0.46274 0.50650 0.56200 0.30900
H 	H 	0.19121 0.53295 0.63348 0.05300
C 	C 	0.36584 0.50930 0.31557 -0.09000
Zn	Zn	0.07842 0.51134 0.48975 1.21900
Zn	Zn	0.44278 0.54352 0.06824 1.20800
O 	O 	0.89159 0.55817 0.03580 -0.41200
O 	O 	0.92706 0.54758 0.14642 -0.43900
H 	H 	0.61512 0.53178 0.16848 0.05400
P 	P 	0.08873 0.53222 0.59373 0.30400
O 	O 	0.91885 0.60225 0.58539 -0.24400
O 	O 	0.55990 0.54806 0.03190 -0.43200
C 	C 	0.15698 0.49345 0.08855 -0.07600
H 	H 	0.39104 0.59124 0.56160 0.05600
C 	C 	0.43845 0.53661 0.41324 0.30100
O 	O 	0.51733 0.52170 0.55048 -0.42600
O 	O 	0.00928 0.52752 0.50209 -0.43100
O 	O 	0.12088 0.53050 0.54715 -0.41400
O 	O 	0.93187 0.55388 0.64277 -0.41700
P 	P 	0.54923 0.55237 0.08755 0.30900
O 	O 	0.02571 0.53270 0.10039 -0.44200
H 	H 	0.42352 0.48219 0.66495 0.07300
P 	P 	0.04673 0.53006 0.04855 0.30600
H 	H 	0.97507 0.53419 0.38864 0.06500
Zn	Zn	0.52078 0.53670 0.48623 1.21900
O 	O 	0.03370 0.55561 0.58643 -0.43700
H 	H 	0.34797 0.54013 0.94561 0.06500
C 	C 	0.16902 0.56058 0.65644 -0.02200
H 	H 	0.29830 0.53752 0.27709 0.05500
C 	C 	0.91033 0.59321 0.62835 0.28000
Zn	Zn	0.51162 0.58505 0.99743 1.22100
O 	O 	0.00931 0.55727 0.01463 -0.44100
H 	H 	0.19568 0.53090 0.15601 0.05900
C 	C 	0.37169 0.55446 0.35312 0.05100
C 	C 	0.33884 0.54461 0.28391 -0.07800
C 	C 	0.40240 0.58949 0.59849 -0.03000
H 	H 	0.62430 0.56224 0.39222 0.05900
O 	O 	0.45670 0.55939 0.45506 -0.43700
O 	O 	0.10395 0.54566 0.44226 -0.41700
C 	C 	0.20203 0.52067 0.11692 -0.08900
H 	H 	0.23880 0.50181 0.10765 0.05500
C 	C 	0.62198 0.56887 0.16215 -0.02400
H 	H 	0.23037 0.58104 0.70692 0.03200
C 	C 	0.11846 0.56965 0.64446 -0.03500
H 	H 	0.04267 0.55319 0.70061 0.05100
C 	C 	0.41743 0.56672 0.37768 -0.09200
H 	H 	0.35975 0.54824 0.25176 0.05700
C 	C 	0.43800 0.55316 0.60925 -0.03600
C 	C 	0.96012 0.00495 0.74151 -0.09400
O 	O 	0.49797 0.58187 0.10002 -0.43600
O 	O 	0.39649 0.59622 0.05348 -0.42400
C 	C 	0.93684 0.59497 0.14980 0.31800
C 	C 	0.15016 0.53767 0.06385 0.02200
C 	C 	0.19084 0.58697 0.69858 0.00800
Zn	Zn	0.95392 0.59291 0.04846 1.21900
C 	C 	0.59772 0.58715 0.12324 -0.03200
H 	H 	0.15169 0.55448 0.36688 0.04700
H 	H 	0.68807 0.59813 0.35238 0.06200
H 	H 	0.67060 0.58590 0.22529 0.04300
H 	H 	0.30270 0.57218 0.88028 0.05700
C 	C 	0.45051 0.51027 0.68257 -0.07800
C 	C 	0.10386 0.56320 0.05846 -0.04000
C 	C 	0.33252 0.57868 0.95636 -0.09100
H 	H 	0.35179 0.64976 0.62726 0.04400
C 	C 	0.38013 0.62275 0.63580 0.00500
O 	O 	0.61561 0.62075 0.99786 -0.24400
O 	O 	0.96646 0.60941 0.11927 -0.43900
H 	H 	0.31165 0.58536 0.99009 0.07100
C 	C 	0.65334 0.59971 0.19454 0.00300
C 	C 	0.34828 0.58552 0.32511 0.02600
H 	H 	0.57698 0.61015 0.37601 0.05200
C 	C 	0.61561 0.60193 0.38950 -0.08400
H 	H 	0.38694 0.54005 0.72903 0.05600
C 	C 	0.18950 0.56171 0.08915 0.04500
C 	C 	0.91939 0.63110 0.19060 -0.09600
C 	C 	0.45422 0.55374 0.65733 0.02400
C 	C 	0.30339 0.59922 0.91448 -0.07600
O 	O 	0.53872 0.63174 0.96310 -0.41900
C 	C 	0.88174 0.63006 0.66186 -0.07800
H 	H 	0.48787 0.49501 0.69286 0.06400
O 	O 	0.62182 0.56142 0.52527 -0.24900
C 	C 	0.37011 0.61702 0.95390 0.04300
C 	C 	0.04539 0.59350 0.69933 -0.08500
C 	C 	0.65675 0.62508 0.36384 -0.08800
H 	H 	0.71576 0.09702 0.13790 0.06100
H 	H 	0.85656 0.57682 0.70334 0.05000
C 	C 	0.09035 0.60560 0.67472 0.01700
C 	C 	0.41664 0.62960 0.03287 0.30500
H 	H 	0.08087 0.59885 0.77313 0.06200
C 	C 	0.43927 0.61163 0.37296 0.00500
H 	H 	0.64104 0.64623 0.33602 0.04900
C 	C 	0.07791 0.58400 0.43039 0.27500
O 	O 	0.55863 0.59359 0.48250 -0.42100
O 	O 	0.46551 0.63415 0.03689 -0.44800
H 	H 	0.26651 0.61707 0.92520 0.06400
C 	C 	0.42671 0.54772 0.72403 -0.08600
C 	C 	0.16221 0.62274 0.72869 -0.09800
H 	H 	0.01057 0.61215 0.68721 0.04800
C 	C 	0.13641 0.59168 0.36582 -0.00900
H 	H 	0.47412 0.62238 0.39227 0.03700
O 	O 	0.03614 0.59892 0.45190 -0.24500
C 	C 	0.60553 0.59381 0.49823 0.28500
C 	C 	0.39391 0.62009 0.68394 -0.08400
O 	O 	0.51193 0.01116 0.17639 -0.26800
C 	C 	0.89904 0.61507 0.22999 0.05500
C 	C 	0.43292 0.58656 0.69371 0.04800
P 	P 	0.60965 0.00210 0.47572 0.27900
C 	C 	0.70520 0.05757 0.12699 -0.06100
C 	C 	0.68005 0.04743 0.07835 -0.00600
H 	H 	0.19322 0.60859 0.32022 0.03300
H 	H 	0.68163 0.00080 0.40085 0.04200
C 	C 	0.73990 0.02680 0.01638 -0.13900
H 	H 	0.86623 0.54500 0.23641 0.05900
C 	C 	0.34449 0.63510 0.91725 0.03000
C 	C 	0.09594 0.61102 0.39407 -0.07600
C 	C 	0.36945 0.63038 0.31964 -0.03500
H 	H 	0.45091 0.55360 0.75738 0.05800
O 	O 	0.49654 0.00111 0.95131 -0.44100
H 	H 	0.78452 0.04427 0.10508 0.06200
H 	H 	0.68523 0.04149 0.15397 0.05800
C 	C 	0.85580 0.58134 0.22533 -0.08700
C 	C 	0.15954 0.62208 0.33883 -0.00100
C 	C 	0.64135 0.62324 0.47831 -0.08000
C 	C 	0.71950 0.01820 0.05891 0.07100
O 	O 	0.86370 0.66202 0.07366 -0.24500
C 	C 	0.10136 0.61521 0.07174 -0.02100
C 	C 	0.85717 0.61569 0.69982 -0.00500
C 	C 	0.58402 0.64744 0.97493 0.28100
C 	C 	0.36839 0.65244 0.72388 0.28300
C 	C 	0.18384 0.61189 0.11070 -0.08200
C 	C 	0.87830 0.64870 0.26570 0.02100
H 	H 	0.83400 0.57912 0.19060 0.06800
C 	C 	0.38832 0.64954 0.99446 -0.10400
C 	C 	0.60902 0.63464 0.11479 0.02400
C 	C 	0.11176 0.63154 0.71582 0.05300
C 	C 	0.06990 0.62295 0.74613 -0.08600
C 	C 	0.41536 0.64330 0.34389 -0.02400
C 	C 	0.63084 0.63767 0.43346 0.04300
C 	C 	0.68794 0.63411 0.50200 -0.00800
H 	H 	0.69609 0.62511 0.53742 0.05000
C 	C 	0.74945 0.02373 0.10519 -0.11800
C 	C 	0.66044 0.64889 0.18799 -0.08400
C 	C 	0.90775 0.00520 0.73905 0.01700
H 	H 	0.82950 0.60493 0.30011 0.06200
C 	C 	0.83223 0.61973 0.26616 -0.07800
O 	O 	0.32287 0.67106 0.71711 -0.41500
O 	O 	0.27961 0.65034 0.27623 -0.42200
C 	C 	0.21709 0.63275 0.15108 0.28200
H 	H 	0.06682 0.63594 0.06596 0.03100
O 	O 	0.26362 0.64187 0.14372 -0.24100
O 	O 	0.19905 0.64620 0.19392 -0.41800
C 	C 	0.14128 0.63959 0.09832 0.00500
C 	C 	0.66687 0.65793 0.41097 0.02600
C 	C 	0.83481 0.65198 0.73437 -0.00700
H 	H 	0.81717 0.64074 0.76427 0.05200
O 	O 	0.93675 0.65945 0.03519 -0.41700
C 	C 	0.18811 0.66099 0.76214 0.30900
O 	O 	0.30179 0.67297 0.82438 -0.40800
H 	H 	0.79753 0.63843 0.25376 0.04800
C 	C 	0.07418 0.65770 0.38849 0.03600
C 	C 	0.72479 0.65500 0.47896 0.00200
C 	C 	0.71512 0.66473 0.43219 -0.09200
O 	O 	0.39063 0.66143 0.76670 -0.24600
H 	H 	0.76101 0.66253 0.49694 0.04800
C 	C 	0.63992 0.66459 0.14612 0.05000
P 	P 	0.32906 0.67785 0.29941 0.31000
H 	H 	0.53449 0.67010 0.12844 0.07300
H 	H 	0.04869 0.65794 0.76014 0.05300
C 	C 	0.14220 0.67159 0.34031 -0.09500
H 	H 	0.43139 0.67866 0.34198 0.03900
C 	C 	0.87930 0.68040 0.65654 0.04000
C 	C 	0.89249 0.68063 0.04532 0.28300
O 	O 	0.70105 0.67244 0.26693 -0.42100
O 	O 	0.75844 0.67667 0.36246 -0.43700
O 	O 	0.17261 0.67408 0.80624 -0.43400
C 	C 	0.33575 0.68650 0.91961 -0.03800
C 	C 	0.57035 0.67538 0.11193 -0.08600
H 	H 	0.32116 0.00267 0.39134 0.02900
H 	H 	0.13738 0.67897 0.11261 0.03600
C 	C 	0.92285 0.68239 0.19068 0.01300
C 	C 	0.68869 0.68388 0.22449 0.28100
O 	O 	0.21734 0.69025 0.74431 -0.44800
H 	H 	0.56652 0.68602 0.07577 0.05200
C 	C 	0.75217 0.68948 0.40904 0.30400
Zn	Zn	0.23522 0.69120 0.24216 1.22000
C 	C 	0.09691 0.68737 0.36227 0.04700
C 	C 	0.59686 0.69769 0.96851 -0.08200
H 	H 	0.95983 0.69254 0.66807 0.05500
H 	H 	0.08740 0.69461 0.46300 0.06000
H 	H 	0.93985 0.69563 0.16148 0.04400
C 	C 	0.38458 0.70105 0.99491 0.01700
C 	C 	0.06541 0.69913 0.42957 -0.07900
C 	C 	0.87693 0.69968 0.26353 -0.03500
H 	H 	0.79468 0.70598 0.02573 0.04800
H 	H 	0.65760 0.70478 0.02243 0.04200
C 	C 	0.83744 0.70277 0.73120 -0.07700
O 	O 	0.35490 0.70623 0.26216 -0.42000
Zn	Zn	0.28578 0.70800 0.77078 1.21900
C 	C 	0.17576 0.70795 0.32817 0.30700
P 	P 	0.29691 0.70979 0.87449 0.30800
H 	H 	0.49319 0.71106 0.90532 0.06400
C 	C 	0.92481 0.70971 0.65435 -0.08400
C 	C 	0.60579 0.70953 0.14715 -0.08400
H 	H 	0.02494 0.70886 0.43418 0.06000
O 	O 	0.24060 0.71248 0.89062 -0.43900
O 	O 	0.31710 0.71509 0.34734 -0.43900
O 	O 	0.17693 0.71558 0.28349 -0.43500
C 	C 	0.85779 0.71588 0.69038 0.04000
C 	C 	0.90145 0.71663 0.22712 -0.02300
C 	C 	0.35777 0.71961 0.95770 -0.03000
C 	C 	0.87297 0.72133 0.02046 -0.08200
O 	O 	0.83939 0.72081 0.35283 -0.43500
Zn	Zn	0.73509 0.72082 0.31511 1.22000
C 	C 	0.56919 0.72191 0.93534 0.04300
H 	H 	0.92736 0.72202 0.61913 0.05900
C 	C 	0.63568 0.72275 0.99670 -0.00500
H 	H 	0.58920 0.72283 0.18260 0.05900
H 	H 	0.36901 0.99428 0.13464 0.07300
O 	O 	0.06495 0.99826 0.08437 -0.44100
H 	H 	0.22818 0.98719 0.22883 0.07400
P 	P 	0.04895 0.98539 0.02897 0.31400
O 	O 	0.12499 0.98282 0.17070 -0.23700
H 	H 	0.16600 0.99506 0.39682 0.06800
H 	H 	0.45257 0.91436 0.07990 0.05700
C 	C 	0.51224 0.96479 0.97390 0.33100
C 	C 	0.44926 0.89199 0.04334 -0.08100
O 	O 	0.64191 0.99398 0.52303 -0.40700
O 	O 	0.54718 0.97287 0.00861 -0.43200
C 	C 	0.48069 0.92210 0.97022 -0.09200
C 	C 	0.44488 0.92383 0.00535 0.01700
H 	H 	0.49735 0.89200 0.89680 0.05100
H 	H 	0.47650 0.85997 0.03581 0.05100
H 	H 	0.02709 0.97688 0.77536 0.03100
O 	O 	0.63474 0.97744 0.62793 -0.40900
H 	H 	0.96259 0.92416 0.18753 0.02400
Zn	Zn	0.02553 0.96718 0.12473 1.22200
H 	H 	0.04836 0.95883 0.89395 0.05800
C 	C 	0.61078 0.97247 0.66635 0.28300
O 	O 	0.55133 0.99637 0.48140 -0.44100
O 	O 	0.56357 0.98741 0.66991 -0.24500
Zn	Zn	0.06511 0.97844 0.63551 1.22400
P 	P 	0.01076 0.99927 0.54853 0.32600
C 	C 	0.14119 0.90679 0.64330 0.28300
O 	O 	0.06339 0.97871 0.56741 -0.42700
O 	O 	0.09530 0.92021 0.65592 -0.41900
O 	O 	0.15706 0.91719 0.60310 -0.23600
O 	O 	0.99922 0.98122 0.66657 -0.42200
C 	C 	0.52198 0.96535 0.15504 0.29600
O 	O 	0.53874 0.95775 0.11127 -0.41300
C 	C 	0.92432 0.93090 0.09812 0.30000
O 	O 	0.99614 0.96063 0.02138 -0.43900
O 	O 	0.97271 0.91963 0.09429 -0.43900
O 	O 	0.90256 0.96121 0.07156 -0.42500
C 	C 	0.11230 0.93722 0.17256 0.27600
O 	O 	0.06600 0.92419 0.16040 -0.41500
Zn	Zn	0.80981 0.77180 0.40078 1.20800
Zn	Zn	0.82407 0.84858 0.33159 1.22000
P 	P 	0.84125 0.74225 0.30453 0.30300
P 	P 	0.72439 0.82435 0.35868 0.30800
C 	C 	0.87238 0.85564 0.42756 0.30900
O 	O 	0.76080 0.82694 0.40493 -0.44600
O 	O 	0.86926 0.79373 0.31455 -0.44400
O 	O 	0.69508 0.77341 0.34876 -0.43300
O 	O 	0.78662 0.74728 0.28034 -0.42300
O 	O 	0.75419 0.83264 0.31339 -0.41200
O 	O 	0.76478 0.90431 0.25623 -0.22700
O 	O 	0.70042 0.72733 0.21501 -0.24400
O 	O 	0.83985 0.87734 0.40048 -0.43000
O 	O 	0.77720 0.72622 0.43436 -0.43300
O 	O 	0.86676 0.80927 0.43321 -0.43400
C 	C 	0.81329 0.91048 0.26156 0.27700
O 	O 	0.83658 0.90546 0.30244 -0.41600
Zn	Zn	0.19468 0.73777 0.84371 1.20500
Zn	Zn	0.27016 0.81548 0.89745 1.22100
P 	P 	0.24215 0.81125 0.79598 0.30900
C 	C 	0.16781 0.80891 0.92432 0.30000
O 	O 	0.19578 0.77628 0.79224 -0.44300
O 	O 	0.31574 0.76341 0.87077 -0.45400
O 	O 	0.29398 0.77974 0.78676 -0.42400
O 	O 	0.24279 0.84819 0.84655 -0.40900
O 	O 	0.31624 0.91522 0.89019 -0.22500
O 	O 	0.21480 0.79993 0.93712 -0.43800
O 	O 	0.14816 0.78258 0.88502 -0.43100
C 	C 	0.33000 0.89578 0.92829 0.28700
O 	O 	0.30003 0.86604 0.94386 -0.41900
Zn	Zn	0.26324 0.76271 0.33900 1.21000
Zn	Zn	0.36361 0.77730 0.28602 1.21700
P 	P 	0.26147 0.79449 0.24528 0.31100
C 	C 	0.43845 0.80309 0.22748 0.27900
C 	C 	0.33534 0.83109 0.37938 0.30700
O 	O 	0.22854 0.79433 0.29030 -0.44600
O 	O 	0.27175 0.73946 0.21709 -0.43500
O 	O 	0.31311 0.82093 0.26143 -0.41900
O 	O 	0.42512 0.80691 0.27218 -0.41700
O 	O 	0.42017 0.76764 0.19467 -0.24500
O 	O 	0.36640 0.79650 0.35768 -0.44400
O 	O 	0.28748 0.82233 0.37994 -0.43100
O 	O 	0.20909 0.72796 0.36051 -0.43600
Zn	Zn	0.81341 0.93341 0.90359 1.20200
Zn	Zn	0.81316 0.83891 0.82321 1.22100
Zn	Zn	0.71822 0.88965 0.93561 1.21800
P 	P 	0.81565 0.83424 0.92511 0.30800
P 	P 	0.72487 0.90797 0.83846 0.30700
C 	C 	0.62943 0.84568 0.95205 0.28500
C 	C 	0.76140 0.98436 0.98354 0.33700
C 	C 	0.88012 0.92411 0.82664 0.31700
O 	O 	0.82601 0.88924 0.95079 -0.43600
O 	O 	0.77297 0.94085 0.84580 -0.44400
O 	O 	0.84851 0.82256 0.87864 -0.43000
O 	O 	0.69166 0.92239 0.88471 -0.41500
O 	O 	0.75730 0.82842 0.91165 -0.43300
O 	O 	0.74042 0.84994 0.82929 -0.42400
O 	O 	0.66980 0.86611 0.97362 -0.41300
O 	O 	0.81100 0.72969 0.81245 -0.24800
O 	O 	0.60826 0.86375 0.91558 -0.24100
O 	O 	0.75084 0.93870 0.98827 -0.43700
O 	O 	0.84767 0.89399 0.80114 -0.43800
O 	O 	0.79055 0.99168 0.94937 -0.43300
O 	O 	0.87806 0.93490 0.87373 -0.43900
C 	C 	0.82112 0.74171 0.77102 0.28100
O 	O 	0.82033 0.78888 0.76650 -0.41600
C 	C 	0.23591 0.88164 0.20982 0.02500
C 	C 	0.20038 0.91476 0.19652 0.04800
C 	C 	0.15148 0.89978 0.18226 -0.08200
C 	C 	0.14148 0.84873 0.17524 0.00000
H 	H 	0.10505 0.83572 0.16150 0.04400
C 	C 	0.17820 0.81461 0.18837 -0.02100
H 	H 	0.16920 0.77591 0.18599 0.03500
C 	C 	0.22462 0.83155 0.20880 -0.03700
C 	C 	0.25178 0.91622 0.25450 -0.07400
H 	H 	0.29075 0.92851 0.25341 0.06000
H 	H 	0.18054 0.96207 0.26428 0.06700
H 	H 	0.24238 0.90367 0.28826 0.06100
C 	C 	0.21163 0.95398 0.23899 -0.08800
C 	C 	0.11943 0.88957 0.92495 0.04400
C 	C 	0.09612 0.93181 0.94888 0.03100
C 	C 	0.09295 0.93961 0.99913 -0.03200
C 	C 	0.11814 0.90574 0.02497 -0.03100
H 	H 	0.11718 0.91144 0.06370 0.03900
C 	C 	0.14196 0.86257 0.00049 0.00500
H 	H 	0.16042 0.83619 0.02067 0.04200
C 	C 	0.14024 0.85281 0.95005 -0.09300
C 	C 	0.07799 0.87993 0.88769 -0.08700
H 	H 	0.01620 0.91961 0.93090 0.06700
H 	H 	0.05744 0.84565 0.88915 0.06200
H 	H 	0.08973 0.88408 0.85148 0.05600
C 	C 	0.05142 0.92786 0.91490 -0.08100
C 	C 	0.84518 0.91729 0.13507 0.05200
C 	C 	0.81826 0.91543 0.17454 0.03300
C 	C 	0.84244 0.91549 0.21974 -0.07900
C 	C 	0.89486 0.91909 0.22422 -0.01300
H 	H 	0.91430 0.92039 0.25882 0.04700
C 	C 	0.92237 0.92061 0.18366 0.00100
C 	C 	0.89760 0.91905 0.13854 -0.10600
C 	C 	0.81835 0.87573 0.10438 -0.09100
H 	H 	0.79496 0.83804 0.16357 0.06200
H 	H 	0.84242 0.84170 0.09370 0.05700
H 	H 	0.74756 0.88454 0.14477 0.06200
H 	H 	0.79544 0.88842 0.07469 0.06500
C 	C 	0.78770 0.87336 0.14938 -0.08000
C 	C 	0.47498 0.93181 0.21621 0.04500
C 	C 	0.45536 0.89325 0.23368 0.03300
C 	C 	0.46571 0.84360 0.21262 -0.07600
C 	C 	0.49565 0.83388 0.17221 -0.00900
H 	H 	0.50308 0.79594 0.15460 0.04300
C 	C 	0.51593 0.87339 0.15437 -0.00700
H 	H 	0.53880 0.86547 0.12320 0.04500
C 	C 	0.50596 0.92291 0.17658 -0.08400
C 	C 	0.49239 0.95752 0.26473 -0.08600
H 	H 	0.43688 0.92529 0.30671 0.05600
H 	H 	0.47194 0.99367 0.27592 0.06900
H 	H 	0.49909 0.89050 0.30066 0.05700
H 	H 	0.53388 0.95845 0.26982 0.06500
C 	C 	0.46997 0.91369 0.28456 -0.08000
H 	H 	0.75383 0.98820 0.11937 0.07500
C 	C 	0.39647 0.91116 0.99239 0.06400
C 	C 	0.38269 0.89541 0.94404 -0.09200
C 	C 	0.42002 0.88431 0.91028 -0.00100
H 	H 	0.41033 0.86917 0.87321 0.04500
C 	C 	0.46948 0.89621 0.92390 0.00200
H 	H 	0.36756 0.89215 0.05715 0.06000
H 	H 	0.39114 0.83769 0.01287 0.05400
C 	C 	0.39434 0.87773 0.02874 -0.09300
C 	C 	0.88219 0.98097 0.76805 0.07600
C 	C 	0.90780 0.95605 0.80176 -0.10000
C 	C 	0.96029 0.95509 0.80480 -0.00000
H 	H 	0.98063 0.93397 0.82900 0.03600
C 	C 	0.98652 0.97945 0.77452 0.01100
C 	C 	0.21070 0.85055 0.66646 0.05300
C 	C 	0.23549 0.82907 0.70159 0.01700
C 	C 	0.22937 0.84893 0.75041 -0.02900
C 	C 	0.20388 0.89518 0.76238 -0.02300
H 	H 	0.20078 0.91256 0.79954 0.06200
C 	C 	0.17758 0.91632 0.72661 0.00900
H 	H 	0.15492 0.95011 0.73636 0.04200
C 	C 	0.17750 0.89155 0.67888 -0.08400
C 	C 	0.19455 0.80206 0.63827 -0.08500
H 	H 	0.25483 0.75362 0.66630 0.05000
H 	H 	0.21303 0.79263 0.60335 0.05900
H 	H 	0.19452 0.76046 0.69877 0.07100
H 	H 	0.15330 0.79753 0.63651 0.05800
C 	C 	0.22172 0.77758 0.67869 -0.08800
C 	C 	0.95351 0.91557 0.53119 0.02000
C 	C 	0.92089 0.88374 0.50407 0.05700
C 	C 	0.91214 0.88498 0.45497 -0.09700
C 	C 	0.93744 0.91910 0.43373 0.01200
H 	H 	0.93075 0.92097 0.39603 0.03500
C 	C 	0.97115 0.95120 0.46135 -0.02300
H 	H 	0.99018 0.97767 0.44476 0.06800
C 	C 	0.97911 0.94983 0.51048 -0.02900
C 	C 	0.97999 0.87541 0.55338 -0.08100
H 	H 	0.91661 0.82298 0.54419 0.05700
H 	H 	0.97414 0.87979 0.59251 0.05300
H 	H 	0.96220 0.81182 0.49460 0.06200
H 	H 	0.01954 0.86813 0.54280 0.05200
C 	C 	0.94304 0.83910 0.52238 -0.08800
H 	H 	0.90176 0.75602 0.22570 0.05000
C 	C 	0.88876 0.78389 0.97280 0.03300
C 	C 	0.90624 0.74952 0.00014 0.03900
C 	C 	0.82106 0.72825 0.01164 -0.00800
C 	C 	0.80323 0.76356 0.98369 -0.01800
H 	H 	0.76333 0.76853 0.97690 0.04700
C 	C 	0.83717 0.79205 0.96461 -0.03900
C 	C 	0.92179 0.82354 0.99837 -0.07000
H 	H 	0.93146 0.79507 0.06789 0.05800
H 	H 	0.90077 0.85549 0.01918 0.06500
H 	H 	0.98140 0.77286 0.02386 0.05800
H 	H 	0.95054 0.83363 0.97495 0.06200
C 	C 	0.94153 0.78454 0.02968 -0.08800
C 	C 	0.61097 0.90662 0.42245 0.02100
C 	C 	0.63546 0.86735 0.39544 0.03300
C 	C 	0.67960 0.87463 0.37278 -0.03700
C 	C 	0.69330 0.92337 0.37120 -0.01900
H 	H 	0.72612 0.92984 0.35245 0.05200
C 	C 	0.66829 0.96358 0.39892 0.00700
C 	C 	0.62954 0.95476 0.42779 -0.03800
C 	C 	0.60549 0.87956 0.46351 -0.07800
H 	H 	0.60888 0.80250 0.42074 0.05500
H 	H 	0.56596 0.87192 0.46909 0.05000
H 	H 	0.67014 0.82564 0.44933 0.06500
H 	H 	0.62767 0.89482 0.49659 0.05900
C 	C 	0.63317 0.83474 0.43267 -0.08100
C 	C 	0.69060 0.95487 0.71158 0.04400
C 	C 	0.71611 0.94005 0.75015 0.02300
C 	C 	0.69051 0.92323 0.78618 -0.03500
C 	C 	0.63791 0.92400 0.78353 -0.02200
H 	H 	0.61740 0.91261 0.81166 0.06200
C 	C 	0.61165 0.93930 0.74406 0.00200
H 	H 	0.57111 0.93934 0.74213 0.05100
C 	C 	0.63803 0.95384 0.70706 -0.08100
C 	C 	0.72407 0.92480 0.67596 -0.08300
H 	H 	0.79156 0.92240 0.72542 0.06200
H 	H 	0.74634 0.94850 0.65721 0.05700
H 	H 	0.75031 0.86757 0.72040 0.05400
H 	H 	0.70513 0.89359 0.65231 0.06100
C 	C 	0.75312 0.90803 0.71983 -0.08400
C 	C 	0.39804 0.88856 0.42361 0.05000
C 	C 	0.41624 0.93513 0.43662 0.03000
C 	C 	0.39043 0.97647 0.42253 -0.07300
C 	C 	0.34271 0.97069 0.40008 0.01100
C 	C 	0.32374 0.92303 0.38715 -0.00400
H 	H 	0.28761 0.91838 0.36833 0.04200
C 	C 	0.35272 0.88136 0.39673 -0.09800
C 	C 	0.44717 0.86590 0.40643 -0.08600
H 	H 	0.48066 0.93509 0.39123 0.05500
H 	H 	0.44765 0.85325 0.36696 0.06000
H 	H 	0.49477 0.92143 0.45332 0.05800
H 	H 	0.46308 0.83869 0.42861 0.05600
C 	C 	0.46805 0.91894 0.42194 -0.09200
H 	H 	0.35302 0.75944 0.95919 0.03400
H 	H 	0.40114 0.72660 0.02450 0.03300
H 	H 	0.62219 0.73880 0.13038 0.05900
C 	C 	0.57871 0.76979 0.93122 0.04200
C 	C 	0.64495 0.77196 0.99300 -0.00100
H 	H 	0.67450 0.79113 0.01536 0.03900
C 	C 	0.61590 0.79621 0.96057 -0.08400
C 	C 	0.52469 0.78595 0.93215 -0.08400
H 	H 	0.51036 0.79564 0.89733 0.06000
H 	H 	0.49831 0.72913 0.97245 0.06000
H 	H 	0.51511 0.81325 0.96460 0.05700
C 	C 	0.51382 0.73157 0.93716 -0.08400
H 	H 	0.88935 0.78506 0.67942 0.05700
H 	H 	0.92193 0.75511 0.72799 0.05500
C 	C 	0.90038 0.75012 0.69300 -0.08300
C 	C 	0.09129 0.73298 0.39963 -0.09100
H 	H 	0.06524 0.76154 0.38746 0.05800
H 	H 	0.12727 0.74715 0.41693 0.06700
