data_crystal

_cell_length_a 45.97156
_cell_length_b 44.56114
_cell_length_c 37.48769
_cell_angle_alpha 91.65966
_cell_angle_beta  88.05336
_cell_angle_gamma 90.09279

_symmetry_space_group_name_	'P 1'
_symmetry_space_group_name_H-M	'P 1'

loop_
_symmetry_equiv_pos_as_xyz
  x,y,z

loop_
_atom_site_label
_atom_site_type_symbol
_atom_site_fract_x
_atom_site_fract_y
_atom_site_fract_z
_atom_site_charge
Cd	Cd	0.97035 0.92040 0.34664 1.23800
Cd	Cd	0.97239 0.98908 0.39475 1.14200
O 	O 	0.97200 0.87201 0.37687 -0.31500
O 	O 	0.96461 0.87447 0.31934 -0.34600
C 	C 	0.96753 0.85775 0.34681 0.24400
O 	O 	0.96080 0.95513 0.30741 -0.38600
O 	O 	0.98513 0.99332 0.33613 -0.41800
C 	C 	0.97222 0.98229 0.30769 0.26600
C 	C 	0.91941 0.94031 0.38610 0.25200
O 	O 	0.00529 0.94957 0.39005 -0.45600
O 	O 	0.91308 0.91948 0.36238 -0.28400
O 	O 	0.94697 0.94535 0.38941 -0.53700
C 	C 	0.02590 0.94608 0.36552 0.26500
O 	O 	0.01972 0.92923 0.33777 -0.34200
Cd	Cd	0.96787 0.86296 0.93914 1.23500
Cd	Cd	0.04451 0.87203 0.94252 1.16500
O 	O 	0.94528 0.81343 0.95016 -0.32700
O 	O 	0.91916 0.85384 0.94197 -0.37600
C 	C 	0.91958 0.82525 0.94795 0.24400
O 	O 	0.97337 0.91219 0.93698 -0.38400
O 	O 	0.02172 0.91180 0.92078 -0.41200
C 	C 	0.99920 0.92500 0.93721 0.26000
C 	C 	0.99457 0.86842 0.00652 0.27000
O 	O 	0.01555 0.84184 0.90603 -0.45900
O 	O 	0.96637 0.87184 0.00997 -0.27800
O 	O 	0.00401 0.85886 0.97525 -0.53400
C 	C 	0.00411 0.84855 0.87588 0.27400
O 	O 	0.97754 0.85885 0.87859 -0.43600
C 	C 	0.87686 0.66944 0.83140 0.09500
N 	N 	0.88587 0.67854 0.79851 -0.13900
C 	C 	0.89550 0.65805 0.77332 0.12700
N 	N 	0.89679 0.62861 0.78131 -0.14400
C 	C 	0.88879 0.61956 0.81446 0.12700
N 	N 	0.87856 0.63994 0.83942 -0.13900
C 	C 	0.97636 0.68605 0.46409 0.09500
N 	N 	0.96639 0.68839 0.49857 -0.13700
C 	C 	0.97020 0.66539 0.52090 0.12700
N 	N 	0.98208 0.63923 0.50802 -0.14400
C 	C 	0.99094 0.63637 0.47319 0.12800
N 	N 	0.98896 0.66012 0.45149 -0.14000
Cd	Cd	0.87834 0.90181 0.76919 1.24000
Cd	Cd	0.92372 0.86252 0.82725 1.17900
O 	O 	0.82504 0.89351 0.77005 -0.31500
O 	O 	0.84616 0.92896 0.73882 -0.35000
C 	C 	0.82208 0.91588 0.74888 0.24600
O 	O 	0.92128 0.92472 0.76359 -0.37900
O 	O 	0.94876 0.88614 0.78378 -0.40000
C 	C 	0.94606 0.91449 0.77536 0.25600
C 	C 	0.88049 0.92037 0.84251 0.27700
O 	O 	0.89397 0.84643 0.78131 -0.43800
O 	O 	0.86731 0.94021 0.82387 -0.28300
O 	O 	0.88569 0.89490 0.82591 -0.53200
C 	C 	0.90172 0.84342 0.74758 0.26300
O 	O 	0.89393 0.86531 0.72755 -0.34900
Cd	Cd	0.90521 0.11341 0.41544 1.24300
Cd	Cd	0.93238 0.04614 0.45185 1.14200
O 	O 	0.86536 0.11288 0.37244 -0.31100
O 	O 	0.88309 0.15489 0.39540 -0.34600
C 	C 	0.86446 0.14207 0.37456 0.24500
O 	O 	0.93646 0.12705 0.45644 -0.38100
O 	O 	0.96422 0.08448 0.46282 -0.42800
C 	C 	0.96201 0.11395 0.45915 0.27700
C 	C 	0.87249 0.08360 0.46971 0.27100
O 	O 	0.92984 0.06276 0.39394 -0.49200
O 	O 	0.86186 0.11047 0.46582 -0.27800
O 	O 	0.89308 0.07601 0.44708 -0.54300
C 	C 	0.94954 0.07831 0.37711 0.27200
O 	O 	0.94447 0.10709 0.37575 -0.34200
C 	C 	0.68591 0.98457 0.89029 0.09600
N 	N 	0.69717 0.00349 0.91541 -0.13800
C 	C 	0.68129 0.01070 0.94569 0.12700
N 	N 	0.65415 0.99921 0.95063 -0.14300
C 	C 	0.64283 0.98055 0.92549 0.12800
N 	N 	0.65894 0.97271 0.89572 -0.13700
C 	C 	0.71791 0.12701 0.23638 0.09600
N 	N 	0.72343 0.11394 0.20365 -0.13800
C 	C 	0.70176 0.09994 0.18590 0.12800
N 	N 	0.67434 0.09965 0.20055 -0.14300
C 	C 	0.66874 0.11250 0.23334 0.12700
N 	N 	0.69064 0.12579 0.25146 -0.13900
Cd	Cd	0.05280 0.19872 0.23912 1.24200
Cd	Cd	0.12197 0.16260 0.23724 1.11900
O 	O 	0.04399 0.24874 0.26832 -0.31200
O 	O 	0.01075 0.22508 0.23708 -0.35000
C 	C 	0.01785 0.24866 0.25603 0.24600
O 	O 	0.04963 0.15856 0.20353 -0.39300
O 	O 	0.08754 0.12866 0.22010 -0.42300
C 	C 	0.05997 0.13209 0.21169 0.27700
C 	C 	0.09842 0.21863 0.19240 0.27000
O 	O 	0.09015 0.17775 0.28373 -0.50800
O 	O 	0.07372 0.23025 0.18342 -0.27800
O 	O 	0.09734 0.20390 0.22152 -0.54800
C 	C 	0.06906 0.16193 0.29747 0.28200
O 	O 	0.04309 0.16825 0.28682 -0.35000
Cd	Cd	0.95711 0.14946 0.89453 1.24000
Cd	Cd	0.00196 0.08824 0.86178 1.17600
O 	O 	0.91906 0.16969 0.85671 -0.31500
O 	O 	0.92425 0.18546 0.91240 -0.34900
C 	C 	0.91025 0.18747 0.88300 0.24600
O 	O 	0.98050 0.13540 0.94248 -0.36100
O 	O 	0.01778 0.11334 0.90977 -0.42200
C 	C 	0.00184 0.11566 0.93948 0.25800
C 	C 	0.93455 0.08986 0.89533 0.26400
O 	O 	0.99544 0.13671 0.84230 -0.43800
O 	O 	0.91764 0.10865 0.91364 -0.28500
O 	O 	0.95497 0.10217 0.87594 -0.51500
C 	C 	0.00994 0.16041 0.85267 0.26400
O 	O 	0.99665 0.17788 0.87654 -0.35000
C 	C 	0.87403 0.34870 0.78485 0.09500
N 	N 	0.87508 0.37767 0.79705 -0.13800
C 	C 	0.88771 0.39901 0.77650 0.12700
N 	N 	0.89843 0.39149 0.74326 -0.14300
C 	C 	0.89699 0.36267 0.73074 0.12700
N 	N 	0.88534 0.34116 0.75183 -0.13900
C 	C 	0.97687 0.37959 0.42090 0.09700
N 	N 	0.96738 0.36593 0.45111 -0.13700
C 	C 	0.97338 0.37819 0.48363 0.12800
N 	N 	0.98954 0.40365 0.48582 -0.14300
C 	C 	0.99762 0.41833 0.45585 0.12700
N 	N 	0.99123 0.40620 0.42340 -0.13900
Cd	Cd	0.16462 0.98987 0.90286 1.23900
Cd	Cd	0.10960 0.02935 0.95247 1.17400
O 	O 	0.21522 0.98883 0.92284 -0.31600
O 	O 	0.20104 0.96143 0.87691 -0.35200
C 	C 	0.22210 0.96936 0.89744 0.24600
O 	O 	0.12336 0.97625 0.87787 -0.39300
O 	O 	0.09680 0.01812 0.89587 -0.41100
C 	C 	0.09910 0.99216 0.87806 0.26200
C 	C 	0.14002 0.96397 0.96538 0.26700
O 	O 	0.15263 0.04549 0.92484 -0.44000
O 	O 	0.15518 0.94425 0.94633 -0.29400
O 	O 	0.14257 0.99157 0.95554 -0.53300
C 	C 	0.15612 0.05305 0.89160 0.26100
O 	O 	0.16609 0.03230 0.86924 -0.35500
Cd	Cd	0.19839 0.14969 0.37715 1.23900
Cd	Cd	0.15180 0.14854 0.30320 1.12400
O 	O 	0.24666 0.12482 0.37405 -0.31500
O 	O 	0.23210 0.15354 0.42006 -0.34500
C 	C 	0.25248 0.13687 0.40503 0.24500
O 	O 	0.16173 0.17960 0.39270 -0.38400
O 	O 	0.12684 0.16854 0.35178 -0.41900
C 	C 	0.13465 0.17285 0.38522 0.27000
C 	C 	0.21014 0.18792 0.31864 0.25800
O 	O 	0.16976 0.11040 0.33779 -0.46400
O 	O 	0.22463 0.19667 0.34643 -0.28500
O 	O 	0.19666 0.16252 0.32141 -0.54100
C 	C 	0.15855 0.10014 0.36743 0.25800
O 	O 	0.16985 0.11028 0.39683 -0.33800
C 	C 	0.38934 0.94337 0.00887 0.09700
N 	N 	0.38614 0.94696 0.04488 -0.13700
C 	C 	0.40993 0.94854 0.06533 0.12700
N 	N 	0.43688 0.94575 0.04972 -0.14400
C 	C 	0.44022 0.94248 0.01372 0.12800
N 	N 	0.41640 0.94189 0.99324 -0.14000
C 	C 	0.42099 0.07591 0.35320 0.09600
N 	N 	0.41152 0.05396 0.33049 -0.13800
C 	C 	0.42815 0.04536 0.30140 0.12700
N 	N 	0.45424 0.05878 0.29495 -0.14400
C 	C 	0.46373 0.08082 0.31742 0.12700
N 	N 	0.44712 0.08936 0.34663 -0.13800
C 	C 	0.41722 0.02287 0.27560 -0.05200
C 	C 	0.43455 0.99793 0.26436 0.10200
C 	C 	0.42863 0.98263 0.23219 -0.08700
C 	C 	0.40520 0.99131 0.21189 -0.00500
C 	C 	0.38524 0.01303 0.22611 0.07000
C 	C 	0.39164 0.02893 0.25778 -0.05400
N 	N 	0.45675 0.98859 0.28437 -0.19900
H 	H 	0.44305 0.96486 0.22212 0.05500
C 	C 	0.40460 0.98137 0.17393 -0.00500
N 	N 	0.36044 0.01925 0.20900 -0.19400
H 	H 	0.37757 0.04713 0.26741 0.05000
C 	C 	0.39270 0.95323 0.16509 -0.08700
C 	C 	0.39396 0.94202 0.12964 0.10000
C 	C 	0.40695 0.95968 0.10260 -0.04900
C 	C 	0.41810 0.98813 0.11136 -0.05200
C 	C 	0.41740 0.99906 0.14679 0.07200
H 	H 	0.38295 0.93976 0.18596 0.05400
N 	N 	0.38323 0.91418 0.12196 -0.19900
H 	H 	0.42782 0.00166 0.09050 0.04800
N 	N 	0.42936 0.02635 0.15461 -0.19400
H 	H 	0.37347 0.90147 0.14209 0.08500
H 	H 	0.38477 0.90470 0.09618 0.09200
H 	H 	0.43856 0.03927 0.13430 0.08400
H 	H 	0.42993 0.03494 0.18076 0.09000
H 	H 	0.34634 0.03610 0.21895 0.08400
H 	H 	0.35449 0.00681 0.18636 0.08800
H 	H 	0.46000 0.99786 0.30984 0.09300
H 	H 	0.47021 0.97092 0.27522 0.08500
C 	C 	0.32470 0.12980 0.43319 0.08000
C 	C 	0.35340 0.13699 0.42249 -0.08600
C 	C 	0.37370 0.11351 0.41871 0.02200
C 	C 	0.36478 0.08368 0.42000 0.07500
C 	C 	0.33535 0.07649 0.42630 -0.08100
C 	C 	0.31600 0.09996 0.43556 0.01400
N 	N 	0.30176 0.14721 0.42628 -0.15300
C 	C 	0.27852 0.12875 0.42405 0.01700
C 	C 	0.28653 0.09921 0.42932 -0.04800
N 	N 	0.38296 0.06613 0.39976 -0.16300
C 	C 	0.40340 0.08445 0.38541 0.05700
C 	C 	0.39835 0.11409 0.39645 -0.07200
H 	H 	0.35918 0.15960 0.41505 0.05700
H 	H 	0.32751 0.05380 0.42172 0.05500
H 	H 	0.27519 0.07980 0.41857 0.05300
H 	H 	0.40527 0.13336 0.38134 0.05500
H 	H 	0.30340 0.16789 0.41385 0.09100
H 	H 	0.37732 0.04513 0.38886 0.09000
C 	C 	0.31828 0.94231 0.97427 0.07500
C 	C 	0.29311 0.92631 0.96563 -0.08100
C 	C 	0.28158 0.93027 0.93188 0.01300
C 	C 	0.29482 0.94956 0.90761 0.08000
C 	C 	0.32095 0.96425 0.91564 -0.08700
C 	C 	0.33182 0.96099 0.94973 0.02300
N 	N 	0.33769 0.93248 0.99731 -0.16300
C 	C 	0.36371 0.94384 0.98675 0.05600
C 	C 	0.36093 0.96216 0.95775 -0.07300
N 	N 	0.27461 0.96201 0.88752 -0.15400
C 	C 	0.24851 0.95125 0.89891 0.01500
C 	C 	0.25209 0.93116 0.92610 -0.04700
H 	H 	0.28257 0.91168 0.98469 0.05400
H 	H 	0.33159 0.97888 0.89664 0.05600
H 	H 	0.37854 0.96860 0.93962 0.05600
H 	H 	0.23548 0.92662 0.94647 0.05400
H 	H 	0.33489 0.91370 0.01315 0.08600
H 	H 	0.27734 0.98266 0.87524 0.08800
C 	C 	0.95758 0.36782 0.51577 -0.05000
C 	C 	0.93718 0.38680 0.53433 0.10200
C 	C 	0.92795 0.38007 0.56918 -0.08600
C 	C 	0.93744 0.35390 0.58502 -0.00400
C 	C 	0.95511 0.33311 0.56489 0.07000
C 	C 	0.96547 0.34057 0.53053 -0.05300
N 	N 	0.92624 0.41134 0.51867 -0.20000
H 	H 	0.91346 0.39535 0.58416 0.05500
C 	C 	0.92949 0.34923 0.62309 -0.00600
N 	N 	0.96259 0.30636 0.57855 -0.19400
H 	H 	0.98037 0.32558 0.51577 0.05000
C 	C 	0.90093 0.34051 0.63216 -0.08600
C 	C 	0.88978 0.34424 0.66736 0.10000
C 	C 	0.90837 0.35485 0.69442 -0.05000
C 	C 	0.93772 0.36072 0.68586 -0.05200
C 	C 	0.94841 0.35847 0.65037 0.07200
H 	H 	0.88668 0.33291 0.61127 0.05500
N 	N 	0.86104 0.33887 0.67455 -0.20000
H 	H 	0.95206 0.36818 0.70673 0.05000
N 	N 	0.97664 0.36573 0.64261 -0.19400
H 	H 	0.84782 0.33021 0.65458 0.08600
H 	H 	0.85126 0.34418 0.69943 0.09400
H 	H 	0.99028 0.37301 0.66287 0.08500
H 	H 	0.98547 0.36389 0.61663 0.09100
H 	H 	0.97622 0.29149 0.56385 0.08700
H 	H 	0.95450 0.29979 0.60350 0.09000
H 	H 	0.93044 0.41533 0.49167 0.09400
H 	H 	0.91223 0.42602 0.53311 0.08400
C 	C 	0.08341 0.14346 0.83377 0.11100
C 	C 	0.10300 0.12077 0.82248 -0.09900
C 	C 	0.12536 0.11338 0.84526 0.00600
C 	C 	0.12559 0.12457 0.87998 0.11400
C 	C 	0.10507 0.14618 0.89189 -0.09500
C 	C 	0.08559 0.15700 0.86720 0.00700
O 	O 	0.05592 0.14558 0.81974 -0.21700
C 	C 	0.04173 0.16135 0.84796 0.02400
C 	C 	0.05927 0.16841 0.87617 -0.05300
O 	O 	0.13906 0.10581 0.90340 -0.21400
C 	C 	0.14680 0.08239 0.87940 0.02600
C 	C 	0.13873 0.08664 0.84484 -0.05400
H 	H 	0.09956 0.10775 0.79813 0.05700
H 	H 	0.10290 0.15259 0.91995 0.06100
H 	H 	0.05128 0.17239 0.90345 0.05900
H 	H 	0.13515 0.06867 0.82535 0.05400
C 	C 	0.85296 0.29732 0.85169 0.07300
C 	C 	0.86373 0.28306 0.88143 -0.08100
C 	C 	0.86287 0.25158 0.88165 0.01200
C 	C 	0.85565 0.23488 0.85123 0.08000
C 	C 	0.84808 0.24926 0.82005 -0.08700
C 	C 	0.84482 0.28056 0.82170 0.02300
N 	N 	0.86148 0.32501 0.84226 -0.16300
C 	C 	0.85909 0.32597 0.80650 0.05700
C 	C 	0.84893 0.29879 0.79273 -0.07400
N 	N 	0.86922 0.20813 0.85055 -0.15400
C 	C 	0.88520 0.20760 0.88013 0.01500
C 	C 	0.88186 0.23420 0.90011 -0.04600
H 	H 	0.87434 0.29585 0.90230 0.05500
H 	H 	0.84696 0.23682 0.79487 0.05700
H 	H 	0.85296 0.29061 0.76550 0.05600
H 	H 	0.89799 0.24323 0.91791 0.05500
H 	H 	0.87554 0.33863 0.85696 0.08800
H 	H 	0.87379 0.19524 0.82728 0.09600
C 	C 	0.20623 0.20719 0.22906 0.10100
C 	C 	0.19227 0.19917 0.19755 -0.12900
C 	C 	0.17235 0.21933 0.18376 -0.00400
C 	C 	0.16579 0.24629 0.20143 0.10800
C 	C 	0.18042 0.25463 0.23246 -0.10000
C 	C 	0.20124 0.23501 0.24529 0.00000
O 	O 	0.21492 0.18550 0.25236 -0.24200
C 	C 	0.21378 0.20250 0.28421 0.00900
C 	C 	0.20612 0.23204 0.28024 -0.06200
O 	O 	0.13746 0.25580 0.19682 -0.18900
C 	C 	0.12635 0.23041 0.17936 0.01700
C 	C 	0.14766 0.21001 0.16862 -0.07500
H 	H 	0.19373 0.17630 0.18701 0.02800
H 	H 	0.17303 0.27386 0.24862 0.06500
H 	H 	0.19624 0.24611 0.30139 0.04400
H 	H 	0.14309 0.18656 0.16248 -0.00500
C 	C 	0.98405 0.31748 0.28249 0.08100
C 	C 	0.98982 0.34583 0.29795 -0.08600
C 	C 	0.97304 0.35503 0.32824 0.02200
C 	C 	0.95491 0.33486 0.34600 0.07500
C 	C 	0.95192 0.30523 0.33283 -0.08100
C 	C 	0.96472 0.29783 0.29920 0.01400
N 	N 	0.00372 0.30205 0.26188 -0.15400
C 	C 	0.99696 0.27272 0.26499 0.01700
C 	C 	0.97306 0.26913 0.28814 -0.04600
N 	N 	0.95243 0.34251 0.38099 -0.16300
C 	C 	0.96878 0.36749 0.38562 0.05700
C 	C 	0.98201 0.37589 0.35357 -0.07200
H 	H 	0.00785 0.35934 0.28816 0.05700
H 	H 	0.94159 0.28823 0.34903 0.05700
H 	H 	0.96889 0.24922 0.30343 0.05200
H 	H 	0.00197 0.38879 0.35139 0.05500
H 	H 	0.02444 0.31003 0.25471 0.09500
H 	H 	0.94691 0.32758 0.40114 0.09200
C 	C 	0.49249 0.09463 0.31067 -0.05100
C 	C 	0.49994 0.10645 0.27693 0.10100
C 	C 	0.52932 0.11134 0.26743 -0.08600
C 	C 	0.55113 0.10610 0.29173 -0.00500
C 	C 	0.54332 0.09797 0.32703 0.07000
C 	C 	0.51401 0.09190 0.33603 -0.05400
N 	N 	0.47899 0.11351 0.25383 -0.19900
H 	H 	0.53526 0.11884 0.24090 0.05500
C 	C 	0.58202 0.10734 0.27914 -0.00500
N 	N 	0.56382 0.09549 0.35210 -0.19400
H 	H 	0.50814 0.08384 0.36233 0.05000
C 	C 	0.59541 0.13541 0.27538 -0.08700
C 	C 	0.62346 0.13774 0.25962 0.10100
C 	C 	0.63908 0.11124 0.24957 -0.05000
C 	C 	0.62598 0.08312 0.25429 -0.05200
C 	C 	0.59741 0.08087 0.26840 0.07100
H 	H 	0.58349 0.15562 0.28340 0.05500
N 	N 	0.63469 0.16538 0.25296 -0.19900
H 	H 	0.63795 0.06288 0.24650 0.04800
N 	N 	0.58483 0.05333 0.27121 -0.19400
H 	H 	0.62352 0.18474 0.26186 0.08600
H 	H 	0.65375 0.16802 0.23745 0.09500
H 	H 	0.59646 0.03396 0.26344 0.08400
H 	H 	0.56341 0.05079 0.28076 0.09000
H 	H 	0.55798 0.08863 0.37779 0.08500
H 	H 	0.58556 0.10107 0.34666 0.08900
H 	H 	0.45695 0.11302 0.26153 0.09300
H 	H 	0.48468 0.12101 0.22837 0.08500
C 	C 	0.61329 0.96849 0.93093 -0.05000
C 	C 	0.58977 0.97888 0.91114 0.10000
C 	C 	0.56128 0.97025 0.92083 -0.08600
C 	C 	0.55585 0.95268 0.95075 -0.00600
C 	C 	0.57945 0.94056 0.96887 0.07100
C 	C 	0.60799 0.94859 0.95869 -0.05300
N 	N 	0.59426 0.99784 0.88366 -0.19900
H 	H 	0.54312 0.97883 0.90646 0.05500
C 	C 	0.52579 0.95083 0.96585 -0.00500
N 	N 	0.57483 0.92168 0.99638 -0.19400
H 	H 	0.62610 0.94009 0.97320 0.05000
C 	C 	0.50829 0.92632 0.95616 -0.08700
C 	C 	0.48054 0.92256 0.97228 0.10000
C 	C 	0.46950 0.94487 0.99682 -0.05100
C 	C 	0.48668 0.96988 0.00553 -0.05100
C 	C 	0.51485 0.97296 0.99063 0.07000
H 	H 	0.51677 0.90947 0.93712 0.05400
N 	N 	0.46519 0.89709 0.96508 -0.19900
H 	H 	0.47809 0.98702 0.02414 0.04900
N 	N 	0.53127 0.99713 0.00028 -0.19300
H 	H 	0.47308 0.88133 0.94597 0.08500
H 	H 	0.44603 0.89200 0.97938 0.09300
H 	H 	0.52295 0.01330 0.01861 0.08400
H 	H 	0.55237 0.00016 0.98985 0.09000
H 	H 	0.59236 0.91347 0.01021 0.08500
H 	H 	0.55395 0.91446 0.00384 0.08900
H 	H 	0.61500 0.00556 0.87641 0.09400
H 	H 	0.57672 0.00533 0.86928 0.08500
C 	C 	0.70756 0.08685 0.14975 -0.05000
C 	C 	0.69914 0.05705 0.14086 0.10200
C 	C 	0.70000 0.04721 0.10493 -0.08500
C 	C 	0.71079 0.06593 0.07810 -0.00500
C 	C 	0.72189 0.09464 0.08743 0.07100
C 	C 	0.71970 0.10503 0.12315 -0.05200
N 	N 	0.69097 0.03762 0.16669 -0.19900
H 	H 	0.69222 0.02491 0.09781 0.05600
C 	C 	0.70794 0.05623 0.04021 -0.00500
N 	N 	0.73477 0.11220 0.06234 -0.19400
H 	H 	0.72694 0.12756 0.13014 0.05100
C 	C 	0.68545 0.06825 0.02074 -0.08500
C 	C 	0.67869 0.05581 0.98722 0.10100
C 	C 	0.69378 0.02998 0.97388 -0.05000
C 	C 	0.71800 0.01973 0.99175 -0.05300
C 	C 	0.72548 0.03291 0.02470 0.07200
H 	H 	0.67277 0.08693 0.03204 0.05500
N 	N 	0.65786 0.06878 0.96789 -0.19900
H 	H 	0.73024 0.00061 0.98083 0.05200
N 	N 	0.74938 0.02307 0.04129 -0.19400
H 	H 	0.64597 0.08713 0.97848 0.08500
H 	H 	0.65418 0.06163 0.94164 0.09200
H 	H 	0.76168 0.00519 0.03024 0.08800
H 	H 	0.75656 0.03370 0.06457 0.09000
H 	H 	0.74213 0.13372 0.06927 0.08600
H 	H 	0.73845 0.10435 0.03607 0.09000
H 	H 	0.69342 0.04301 0.19371 0.09300
H 	H 	0.68348 0.01613 0.15980 0.08600
C 	C 	0.02477 0.07206 0.37654 0.10300
C 	C 	0.04823 0.09151 0.38147 -0.08000
C 	C 	0.06520 0.09976 0.35163 0.00400
C 	C 	0.06013 0.08780 0.31795 0.11700
C 	C 	0.03767 0.06708 0.31333 -0.08500
C 	C 	0.01964 0.06020 0.34277 0.00500
O 	O 	0.99977 0.07523 0.39800 -0.21900
C 	C 	0.97915 0.06698 0.37327 -0.04600
C 	C 	0.99066 0.05760 0.34069 -0.05400
O 	O 	0.06794 0.10687 0.29075 -0.20300
C 	C 	0.07499 0.13234 0.31100 -0.04700
C 	C 	0.07454 0.12794 0.34712 -0.04400
H 	H 	0.05021 0.10364 0.40671 0.06800
H 	H 	0.03134 0.06064 0.28667 0.07200
H 	H 	0.97920 0.05914 0.31606 0.06100
H 	H 	0.07068 0.14581 0.36680 0.05600
C 	C 	0.02024 0.16610 0.45290 0.11700
C 	C 	0.03746 0.18543 0.43205 -0.08800
C 	C 	0.06787 0.18392 0.43479 0.00800
C 	C 	0.08080 0.16093 0.45235 0.11700
C 	C 	0.06348 0.13970 0.47017 -0.08900
C 	C 	0.03324 0.14438 0.47242 0.00600
O 	O 	0.99114 0.16031 0.44608 -0.18700
C 	C 	0.98814 0.13286 0.46302 0.04000
C 	C 	0.01316 0.12300 0.47837 -0.05500
O 	O 	0.10918 0.15475 0.44037 -0.19000
C 	C 	0.11191 0.17589 0.41360 0.03900
C 	C 	0.08738 0.19328 0.40997 -0.05600
H 	H 	0.02764 0.19995 0.41317 0.06800
H 	H 	0.07304 0.11951 0.48010 0.06600
H 	H 	0.01795 0.09980 0.48379 0.04500
H 	H 	0.08182 0.20420 0.38564 0.05500
C 	C 	0.80646 0.17594 0.33079 0.08100
C 	C 	0.77606 0.17486 0.32813 -0.08600
C 	C 	0.76481 0.17104 0.29397 0.02200
C 	C 	0.78294 0.16349 0.26455 0.07500
C 	C 	0.81305 0.16038 0.26832 -0.08100
C 	C 	0.82461 0.16921 0.30116 0.01500
N 	N 	0.82006 0.16999 0.36103 -0.15400
C 	C 	0.84674 0.15952 0.35095 0.01800
C 	C 	0.85027 0.15833 0.31399 -0.04700
N 	N 	0.76802 0.14784 0.23994 -0.16300
C 	C 	0.74059 0.14518 0.25358 0.05700
C 	C 	0.73765 0.15921 0.28708 -0.07300
H 	H 	0.76187 0.17525 0.35181 0.05700
H 	H 	0.82662 0.14993 0.24729 0.05600
H 	H 	0.86485 0.14302 0.29924 0.05300
H 	H 	0.72131 0.15359 0.30732 0.05700
H 	H 	0.80936 0.16517 0.38526 0.09200
H 	H 	0.77747 0.13342 0.22034 0.09100
C 	C 	0.01723 0.94323 0.77449 0.11800
C 	C 	0.04556 0.93945 0.78631 -0.09200
C 	C 	0.05836 0.96345 0.80503 0.01100
C 	C 	0.04234 0.98825 0.81657 0.10400
C 	C 	0.01324 0.99102 0.80705 -0.09200
C 	C 	0.00193 0.96917 0.78352 0.00200
O 	O 	0.99971 0.91892 0.76569 -0.19300
C 	C 	0.97248 0.93254 0.77066 0.03900
C 	C 	0.97354 0.96240 0.78132 -0.06000
O 	O 	0.05324 0.00302 0.84648 -0.21900
C 	C 	0.07696 0.98431 0.85201 0.04100
C 	C 	0.08021 0.96082 0.82749 -0.05900
H 	H 	0.05641 0.91793 0.78313 0.06600
H 	H 	0.99949 0.00852 0.81910 0.03100
H 	H 	0.95613 0.97419 0.79605 0.04900
H 	H 	0.09257 0.94055 0.83133 0.05000
C 	C 	0.94516 0.01154 0.90251 0.13400
C 	C 	0.95069 0.98353 0.88569 -0.10500
C 	C 	0.93130 0.95978 0.89263 0.02800
C 	C 	0.90552 0.96466 0.91195 0.10800
C 	C 	0.89977 0.99283 0.92820 -0.07800
C 	C 	0.92085 0.01543 0.92482 -0.00800
O 	O 	0.95603 0.03812 0.88858 -0.26200
C 	C 	0.93566 0.05804 0.90438 0.02000
C 	C 	0.91482 0.04486 0.92600 -0.04100
O 	O 	0.88308 0.94570 0.90180 -0.18100
C 	C 	0.89712 0.93000 0.87344 -0.00300
C 	C 	0.92614 0.93742 0.86889 -0.08000
H 	H 	0.96809 0.98097 0.86565 0.06500
H 	H 	0.87843 0.99781 0.94004 0.06600
H 	H 	0.89364 0.05445 0.93286 0.05700
H 	H 	0.93852 0.93407 0.84408 0.02600
C 	C 	0.71225 0.95701 0.80498 0.07500
C 	C 	0.72323 0.93276 0.78399 -0.08100
C 	C 	0.74741 0.93785 0.76112 0.01400
C 	C 	0.76247 0.96499 0.76262 0.08000
C 	C 	0.75339 0.98807 0.78680 -0.08500
C 	C 	0.72700 0.98436 0.80603 0.02300
N 	N 	0.69682 0.95339 0.83570 -0.16300
C 	C 	0.70235 0.97764 0.85679 0.05800
C 	C 	0.72050 0.99768 0.83918 -0.07300
N 	N 	0.79062 0.96058 0.75286 -0.15300
C 	C 	0.79388 0.93083 0.74577 0.01600
C 	C 	0.76748 0.91599 0.75058 -0.04800
H 	H 	0.71472 0.91029 0.78742 0.05500
H 	H 	0.76743 0.00707 0.79240 0.05800
H 	H 	0.73332 0.01501 0.85209 0.05700
H 	H 	0.76546 0.89255 0.75718 0.05600
H 	H 	0.68913 0.93284 0.84495 0.09000
H 	H 	0.80752 0.97476 0.76078 0.09600
C 	C 	0.00098 0.60701 0.45868 -0.05200
C 	C 	0.98219 0.58809 0.43896 0.10100
C 	C 	0.98885 0.55747 0.43439 -0.08500
C 	C 	0.01327 0.54540 0.45013 -0.00500
C 	C 	0.03379 0.56487 0.46595 0.07000
C 	C 	0.02741 0.59561 0.47008 -0.05300
N 	N 	0.95730 0.59890 0.42545 -0.20000
H 	H 	0.97382 0.54261 0.42087 0.05500
C 	C 	0.01405 0.51271 0.45590 -0.00500
N 	N 	0.05917 0.55410 0.47809 -0.19400
H 	H 	0.04231 0.61038 0.48398 0.04800
C 	C 	0.02871 0.49381 0.43073 -0.08700
C 	C 	0.02659 0.46245 0.43301 0.10100
C 	C 	0.00729 0.45000 0.45889 -0.05000
C 	C 	0.99422 0.46890 0.48544 -0.05400
C 	C 	0.99782 0.50010 0.48455 0.07200
H 	H 	0.04199 0.50351 0.40956 0.05400
N 	N 	0.04389 0.44453 0.41138 -0.19900
H 	H 	0.98023 0.45941 0.50610 0.05100
N 	N 	0.98528 0.51786 0.51092 -0.19400
H 	H 	0.05689 0.45376 0.39107 0.08600
H 	H 	0.04608 0.42167 0.41606 0.09300
H 	H 	0.97259 0.50839 0.53135 0.08400
H 	H 	0.98860 0.54104 0.51201 0.09000
H 	H 	0.07378 0.56847 0.49083 0.08400
H 	H 	0.06499 0.53158 0.47415 0.08800
H 	H 	0.95176 0.62156 0.42800 0.09500
H 	H 	0.94330 0.58456 0.41165 0.08600
C 	C 	0.89067 0.58753 0.82291 -0.05100
C 	C 	0.91637 0.57101 0.81442 0.10100
C 	C 	0.91506 0.53958 0.81173 -0.08600
C 	C 	0.88893 0.52445 0.81929 -0.00500
C 	C 	0.86443 0.54079 0.83302 0.07000
C 	C 	0.86537 0.57233 0.83413 -0.05400
N 	N 	0.94233 0.58520 0.80926 -0.19900
H 	H 	0.93424 0.52690 0.80294 0.05500
C 	C 	0.88671 0.49212 0.80937 -0.00500
N 	N 	0.83987 0.52640 0.84443 -0.19400
H 	H 	0.84601 0.58501 0.84215 0.05000
C 	C 	0.89956 0.47101 0.83095 -0.08600
C 	C 	0.90076 0.44051 0.82040 0.10000
C 	C 	0.88718 0.43078 0.78868 -0.04900
C 	C 	0.87353 0.45180 0.76772 -0.05300
C 	C 	0.87374 0.48247 0.77724 0.07100
H 	H 	0.90967 0.47851 0.85537 0.05400
N 	N 	0.91584 0.42101 0.84006 -0.19900
H 	H 	0.86314 0.44430 0.74348 0.05000
N 	N 	0.86187 0.50252 0.75519 -0.19400
H 	H 	0.92484 0.42822 0.86407 0.08500
H 	H 	0.91991 0.39899 0.83109 0.09300
H 	H 	0.85195 0.49508 0.73187 0.08400
H 	H 	0.86279 0.52561 0.76049 0.09000
H 	H 	0.82153 0.53863 0.85338 0.08500
H 	H 	0.83904 0.50303 0.84556 0.08900
H 	H 	0.94452 0.60819 0.81473 0.09100
H 	H 	0.96097 0.57300 0.80138 0.08400
C 	C 	0.90746 0.66789 0.73863 -0.05000
C 	C 	0.88922 0.67946 0.71254 0.10200
C 	C 	0.90046 0.68316 0.67762 -0.08500
C 	C 	0.92892 0.67410 0.66799 -0.00500
C 	C 	0.94759 0.66418 0.69450 0.07100
C 	C 	0.93676 0.66172 0.72972 -0.05100
N 	N 	0.86082 0.68619 0.72046 -0.20000
H 	H 	0.88649 0.69150 0.65739 0.05600
C 	C 	0.93801 0.67243 0.62970 -0.00500
N 	N 	0.97568 0.65637 0.68622 -0.19400
H 	H 	0.95083 0.65353 0.74995 0.04700
C 	C 	0.95492 0.69569 0.61546 -0.08700
C 	C 	0.96720 0.69300 0.58071 0.10100
C 	C 	0.95973 0.66803 0.55854 -0.05000
C 	C 	0.94176 0.64538 0.57236 -0.05300
C 	C 	0.93129 0.64699 0.60795 0.07100
H 	H 	0.96007 0.71507 0.63225 0.05700
N 	N 	0.98723 0.71352 0.56956 -0.19900
H 	H 	0.93602 0.62630 0.55539 0.05000
N 	N 	0.91502 0.62400 0.62109 -0.19400
H 	H 	0.99128 0.73275 0.58524 0.08800
H 	H 	0.00037 0.70963 0.54665 0.09500
H 	H 	0.91009 0.60542 0.60473 0.08400
H 	H 	0.90729 0.62413 0.64759 0.08900
H 	H 	0.98917 0.64878 0.70596 0.08400
H 	H 	0.98449 0.65782 0.66031 0.08900
H 	H 	0.85145 0.68293 0.74577 0.09500
H 	H 	0.84763 0.69470 0.70095 0.08700
C 	C 	0.02057 0.99612 0.97139 0.09000
C 	C 	0.03642 0.02285 0.96982 -0.06800
C 	C 	0.02245 0.04972 0.98072 -0.03700
C 	C 	0.99273 0.05062 0.98751 0.12900
C 	C 	0.97658 0.02383 0.98780 -0.10000
C 	C 	0.99159 0.99660 0.98218 0.02100
O 	O 	0.02891 0.97052 0.95160 -0.20900
C 	C 	0.00202 0.95601 0.95091 0.03900
C 	C 	0.97980 0.97112 0.96933 -0.05700
O 	O 	0.98008 0.07791 0.97986 -0.19500
C 	C 	0.00471 0.09289 0.96658 0.02100
C 	C 	0.03008 0.07655 0.96815 -0.05700
H 	H 	0.05784 0.02309 0.95707 -0.05300
H 	H 	0.95303 0.02438 0.98987 0.07200
H 	H 	0.95677 0.96691 0.96657 0.06100
H 	H 	0.04937 0.08033 0.95139 0.00900
C 	C 	0.00911 0.82786 0.78673 0.11200
C 	C 	0.99817 0.83791 0.75474 -0.09600
C 	C 	0.97415 0.82299 0.74019 0.01000
C 	C 	0.96130 0.79906 0.75741 0.10400
C 	C 	0.97454 0.78681 0.78678 -0.10300
C 	C 	0.99878 0.80147 0.80100 -0.00300
O 	O 	0.01970 0.84811 0.81207 -0.20100
C 	C 	0.01349 0.83229 0.84299 0.00600
C 	C 	0.00266 0.80392 0.83635 -0.05900
O 	O 	0.93127 0.79791 0.75458 -0.20900
C 	C 	0.92684 0.82452 0.73687 0.02600
C 	C 	0.95239 0.83800 0.72553 -0.05900
H 	H 	0.00499 0.85949 0.74482 0.08000
H 	H 	0.96336 0.76952 0.80170 0.05700
H 	H 	0.98982 0.79160 0.85586 0.03700
H 	H 	0.95393 0.86140 0.71848 0.06500
C 	C 	0.04093 0.92188 0.04334 0.10700
C 	C 	0.05395 0.94952 0.03550 -0.09400
C 	C 	0.08438 0.95082 0.03110 -0.00300
C 	C 	0.10117 0.92518 0.03156 0.11000
C 	C 	0.08804 0.89740 0.03821 -0.11100
C 	C 	0.05795 0.89655 0.04576 -0.00300
O 	O 	0.01232 0.91568 0.03481 -0.19300
C 	C 	0.01408 0.88449 0.03053 0.00400
C 	C 	0.04100 0.87293 0.03760 -0.07300
O 	O 	0.12711 0.92706 0.01173 -0.19500
C 	C 	0.12382 0.95559 0.99800 -0.00000
C 	C 	0.09860 0.97008 0.00964 -0.05600
H 	H 	0.04066 0.96888 0.03067 0.06400
H 	H 	0.10038 0.87682 0.03412 0.04900
H 	H 	0.04920 0.85166 0.02666 0.01100
H 	H 	0.08811 0.98749 0.99515 -0.03100
C 	C 	0.87175 0.76349 0.94079 0.08100
C 	C 	0.87242 0.73200 0.93793 -0.08900
C 	C 	0.85997 0.71809 0.90807 0.02200
C 	C 	0.85150 0.73489 0.87946 0.07200
C 	C 	0.85389 0.76632 0.88069 -0.08100
C 	C 	0.86185 0.78034 0.91294 0.00400
N 	N 	0.89096 0.77953 0.95982 -0.15200
C 	C 	0.89349 0.80653 0.94446 0.00200
C 	C 	0.87575 0.80786 0.91525 -0.03900
N 	N 	0.85404 0.71840 0.84884 -0.16400
C 	C 	0.86398 0.69116 0.85770 0.05600
C 	C 	0.86804 0.69010 0.89419 -0.07400
H 	H 	0.88403 0.71901 0.95686 0.05600
H 	H 	0.85166 0.77914 0.85681 0.04900
H 	H 	0.88004 0.82207 0.89267 0.01200
H 	H 	0.88330 0.67531 0.90634 0.05500
H 	H 	0.90700 0.77005 0.97509 0.09300
H 	H 	0.85650 0.72740 0.82346 0.09000
C 	C 	0.02912 0.05941 0.20696 0.11400
C 	C 	0.02976 0.02957 0.21795 -0.09000
C 	C 	0.00380 0.01696 0.23161 0.00900
C 	C 	0.97950 0.03439 0.23934 0.11800
C 	C 	0.97974 0.06497 0.23121 -0.09000
C 	C 	0.00410 0.07624 0.21222 0.01000
O 	O 	0.05429 0.07650 0.20279 -0.19500
C 	C 	0.04195 0.10515 0.20604 0.04000
C 	C 	0.01216 0.10525 0.21207 -0.05400
O 	O 	0.96108 0.02297 0.26587 -0.20200
C 	C 	0.97687 0.99732 0.27368 0.04400
C 	C 	0.00240 0.99368 0.25359 -0.05600
H 	H 	0.05011 0.01736 0.21808 0.06400
H 	H 	0.96243 0.07975 0.24116 0.06800
H 	H 	0.00002 0.12347 0.22528 0.05500
H 	H 	0.02114 0.98134 0.26204 0.06000
C 	C 	0.84209 0.01590 0.47021 0.10900
C 	C 	0.84051 0.99493 0.44164 -0.09600
C 	C 	0.86027 0.97094 0.43954 0.00100
C 	C 	0.88210 0.96874 0.46372 0.10400
C 	C 	0.88325 0.98911 0.49278 -0.12900
C 	C 	0.86264 0.01241 0.49595 -0.00300
O 	O 	0.83435 0.04562 0.46578 -0.18700
C 	C 	0.85528 0.05991 0.48636 0.01900
C 	C 	0.86974 0.04031 0.50739 -0.07400
O 	O 	0.90709 0.95456 0.44977 -0.24500
C 	C 	0.89840 0.94900 0.41491 0.01100
C 	C 	0.87060 0.95839 0.40854 -0.05900
H 	H 	0.82688 0.99942 0.41938 0.06700
H 	H 	0.90204 0.98938 0.50948 0.02600
H 	H 	0.89053 0.04562 0.51894 -0.00500
H 	H 	0.86297 0.96371 0.38241 0.04600
C 	C 	0.08854 0.99064 0.35147 0.11500
C 	C 	0.10235 0.01274 0.33097 -0.09100
C 	C 	0.10935 0.04003 0.34815 0.01000
C 	C 	0.10513 0.04457 0.38437 0.11200
C 	C 	0.09164 0.02251 0.40500 -0.09100
C 	C 	0.08420 0.99524 0.38789 0.00300
O 	O 	0.06988 0.96949 0.33664 -0.18600
C 	C 	0.05355 0.96247 0.36744 0.02100
C 	C 	0.06189 0.97768 0.39802 -0.05800
O 	O 	0.12216 0.06733 0.39887 -0.18300
C 	C 	0.13721 0.07563 0.36760 0.02700
C 	C 	0.12977 0.05952 0.33723 -0.07100
H 	H 	0.10588 0.00945 0.30242 0.06200
H 	H 	0.08748 0.02624 0.43339 0.05800
H 	H 	0.04790 0.98186 0.42150 0.01700
H 	H 	0.14300 0.05735 0.31283 0.03300
C 	C 	0.95914 0.75459 0.42323 0.07600
C 	C 	0.93837 0.77318 0.40867 -0.08100
C 	C 	0.94513 0.78607 0.37568 0.01500
C 	C 	0.97169 0.78031 0.35772 0.08000
C 	C 	0.99168 0.76014 0.37139 -0.08600
C 	C 	0.98531 0.74833 0.40497 0.02300
N 	N 	0.95219 0.73234 0.44544 -0.16300
C 	C 	0.97327 0.71144 0.44053 0.05600
C 	C 	0.99455 0.72071 0.41608 -0.07400
N 	N 	0.98023 0.80449 0.33935 -0.15400
C 	C 	0.95975 0.82588 0.34580 0.01800
C 	C 	0.93741 0.81499 0.36776 -0.04700
H 	H 	0.91792 0.77801 0.42286 0.05600
H 	H 	0.01214 0.75520 0.35728 0.05600
H 	H 	0.00987 0.70605 0.40158 0.05600
H 	H 	0.92356 0.82917 0.38509 0.05700
H 	H 	0.93134 0.72820 0.45618 0.08900
H 	H 	0.00197 0.80920 0.33248 0.08800
