data_crystal

_cell_length_a 39.19603
_cell_length_b 39.23589
_cell_length_c 39.40136
_cell_angle_alpha 90.00038
_cell_angle_beta  90.00563
_cell_angle_gamma 90.00030

_symmetry_space_group_name_	'P 1'
_symmetry_space_group_name_H-M	'P 1'

loop_
_symmetry_equiv_pos_as_xyz
  x,y,z

loop_
_atom_site_label
_atom_site_type_symbol
_atom_site_fract_x
_atom_site_fract_y
_atom_site_fract_z
_atom_site_charge
C 	C 	0.26771 0.43801 0.18709 0.30700
C 	C 	0.20952 0.55090 0.27010 0.32600
C 	C 	0.20268 0.43692 0.26024 0.32800
C 	C 	0.27463 0.55388 0.20120 0.30500
C 	C 	0.13445 0.50005 0.20503 0.32700
C 	C 	0.19846 0.50773 0.13001 0.30600
Ni	Ni	0.25012 0.49270 0.24027 1.12100
Ni	Ni	0.19808 0.54016 0.19728 1.13100
Ni	Ni	0.19501 0.45936 0.18879 1.12600
O 	O 	0.26899 0.44699 0.21970 -0.34900
O 	O 	0.23912 0.44104 0.16906 -0.36000
O 	O 	0.14930 0.52557 0.18907 -0.35900
O 	O 	0.23983 0.53674 0.26810 -0.34800
O 	O 	0.18621 0.54463 0.24707 -0.35200
O 	O 	0.18138 0.48222 0.14445 -0.36900
O 	O 	0.21479 0.46659 0.26962 -0.35600
O 	O 	0.20445 0.42739 0.22832 -0.36900
O 	O 	0.20571 0.53608 0.14701 -0.35700
O 	O 	0.28343 0.52346 0.21321 -0.33300
O 	O 	0.24303 0.56609 0.20474 -0.34500
O 	O 	0.15161 0.47228 0.21246 -0.37300
O 	O 	0.22043 0.49779 0.20342 -0.72200
H 	H 	0.23702 0.49918 0.18471 0.16700
C 	C 	0.74058 0.55934 0.21181 0.30500
C 	C 	0.81332 0.43869 0.26304 0.32500
C 	C 	0.81262 0.55344 0.27382 0.32700
C 	C 	0.74327 0.44415 0.19517 0.30600
C 	C 	0.87884 0.50242 0.20242 0.32700
C 	C 	0.80970 0.51136 0.13266 0.30700
Ni	Ni	0.76719 0.49699 0.24769 1.12200
Ni	Ni	0.81660 0.46279 0.19137 1.12800
Ni	Ni	0.81581 0.54360 0.19992 1.12900
O 	O 	0.73219 0.52921 0.22471 -0.33400
O 	O 	0.77266 0.57072 0.21220 -0.34600
O 	O 	0.86226 0.47467 0.21112 -0.36800
O 	O 	0.80394 0.46903 0.27338 -0.35700
O 	O 	0.80978 0.43010 0.23096 -0.36500
O 	O 	0.80295 0.53934 0.15058 -0.35800
O 	O 	0.78184 0.54022 0.27491 -0.34600
O 	O 	0.83306 0.54717 0.24825 -0.36400
O 	O 	0.82706 0.48545 0.14607 -0.35700
O 	O 	0.74500 0.45234 0.22799 -0.34500
O 	O 	0.77061 0.44579 0.17516 -0.35700
O 	O 	0.86305 0.52769 0.18705 -0.36100
O 	O 	0.79334 0.50170 0.20828 -0.72300
H 	H 	0.77504 0.50360 0.19126 0.16700
C 	C 	0.56232 0.80744 0.26403 0.30900
C 	C 	0.44541 0.73770 0.19651 0.32900
C 	C 	0.55854 0.73586 0.19878 0.32400
C 	C 	0.44268 0.80562 0.26367 0.30800
C 	C 	0.50605 0.79860 0.12798 0.32700
C 	C 	0.50261 0.87401 0.19142 0.30600
Ni	Ni	0.50195 0.76159 0.24236 1.11900
Ni	Ni	0.46305 0.81025 0.18856 1.12800
Ni	Ni	0.54432 0.80970 0.19085 1.13000
O 	O 	0.54834 0.77642 0.26486 -0.35100
O 	O 	0.56118 0.82686 0.23633 -0.34700
O 	O 	0.48188 0.81761 0.14140 -0.36100
O 	O 	0.45603 0.73912 0.22806 -0.36200
O 	O 	0.45413 0.76130 0.17464 -0.35900
O 	O 	0.52765 0.85668 0.17636 -0.36500
O 	O 	0.52711 0.72982 0.20847 -0.35800
O 	O 	0.57128 0.76670 0.20170 -0.34900
O 	O 	0.47231 0.85987 0.19735 -0.35400
O 	O 	0.47162 0.79121 0.27390 -0.34600
O 	O 	0.43297 0.80489 0.23107 -0.36100
O 	O 	0.53167 0.78783 0.14659 -0.36700
O 	O 	0.50289 0.79932 0.21347 -0.72400
H 	H 	0.50234 0.81790 0.23027 0.17000
C 	C 	0.56453 0.26941 0.20166 0.30800
C 	C 	0.45203 0.19648 0.26801 0.33000
C 	C 	0.56494 0.20089 0.26865 0.32700
C 	C 	0.44515 0.26254 0.19828 0.30800
C 	C 	0.51032 0.12951 0.20337 0.32900
C 	C 	0.51154 0.19591 0.13123 0.30400
Ni	Ni	0.50626 0.24397 0.24434 1.11900
Ni	Ni	0.46841 0.19052 0.19439 1.12800
Ni	Ni	0.54957 0.19344 0.19574 1.12900
O 	O 	0.53507 0.27809 0.21599 -0.35200
O 	O 	0.57648 0.23760 0.20339 -0.36200
O 	O 	0.48383 0.14638 0.21494 -0.36800
O 	O 	0.48285 0.20762 0.27454 -0.35900
O 	O 	0.43981 0.19790 0.23696 -0.34900
O 	O 	0.54085 0.20370 0.14645 -0.35400
O 	O 	0.55250 0.23193 0.26742 -0.36100
O 	O 	0.55820 0.17887 0.24446 -0.35500
O 	O 	0.48694 0.17889 0.14739 -0.35700
O 	O 	0.45869 0.26368 0.22933 -0.34900
O 	O 	0.44833 0.23531 0.17838 -0.36100
O 	O 	0.53426 0.14529 0.18603 -0.35200
O 	O 	0.50792 0.21564 0.20628 -0.72200
H 	H 	0.50757 0.23292 0.18815 0.16400
C 	C 	0.56459 0.19383 0.74295 0.30600
C 	C 	0.44288 0.26296 0.80216 0.32400
C 	C 	0.55578 0.26733 0.80636 0.32600
C 	C 	0.44655 0.19102 0.73821 0.30200
C 	C 	0.50206 0.20371 0.87665 0.32700
C 	C 	0.50259 0.12805 0.81405 0.30500
Ni	Ni	0.50246 0.23893 0.76021 1.12000
Ni	Ni	0.46192 0.19123 0.81396 1.12800
Ni	Ni	0.54314 0.19318 0.81540 1.12900
O 	O 	0.55031 0.22460 0.74074 -0.35200
O 	O 	0.56298 0.17538 0.77129 -0.35000
O 	O 	0.47808 0.18508 0.86233 -0.35400
O 	O 	0.45544 0.26085 0.77134 -0.34700
O 	O 	0.45119 0.24051 0.82545 -0.36200
O 	O 	0.52680 0.14602 0.82974 -0.35300
O 	O 	0.52522 0.27268 0.79388 -0.36100
O 	O 	0.56945 0.23675 0.80521 -0.35300
O 	O 	0.47240 0.14162 0.80656 -0.36400
O 	O 	0.47437 0.20763 0.72807 -0.34200
O 	O 	0.43451 0.19476 0.76972 -0.35600
O 	O 	0.52784 0.21527 0.85872 -0.36700
O 	O 	0.50275 0.20238 0.79070 -0.72200
H 	H 	0.50351 0.18329 0.77449 0.16000
C 	C 	0.81232 0.26185 0.56582 0.30300
C 	C 	0.73799 0.19404 0.45181 0.32700
C 	C 	0.74504 0.19289 0.56568 0.32700
C 	C 	0.80156 0.26529 0.44776 0.30100
C 	C 	0.80768 0.12704 0.50515 0.32700
C 	C 	0.87867 0.19545 0.49833 0.30300
Ni	Ni	0.76311 0.23916 0.50867 1.12000
Ni	Ni	0.81198 0.18994 0.46411 1.12900
Ni	Ni	0.81794 0.18935 0.54478 1.13100
O 	O 	0.78029 0.26115 0.55431 -0.35300
O 	O 	0.83338 0.23546 0.56209 -0.35300
O 	O 	0.82383 0.14259 0.48030 -0.35700
O 	O 	0.73747 0.22499 0.46452 -0.34900
O 	O 	0.76332 0.17325 0.45855 -0.36200
O 	O 	0.86431 0.17860 0.52400 -0.34700
O 	O 	0.73602 0.20226 0.53505 -0.35900
O 	O 	0.77686 0.19627 0.57566 -0.35500
O 	O 	0.86155 0.20213 0.46991 -0.36100
O 	O 	0.78802 0.27387 0.47752 -0.35000
O 	O 	0.80127 0.23315 0.43660 -0.34800
O 	O 	0.79826 0.14380 0.53245 -0.35800
O 	O 	0.80258 0.21267 0.50548 -0.72200
H 	H 	0.81994 0.23078 0.50422 0.15900
C 	C 	0.19820 0.26086 0.43962 0.30400
C 	C 	0.27471 0.20057 0.55604 0.32600
C 	C 	0.26689 0.19345 0.44182 0.32700
C 	C 	0.20787 0.27084 0.55514 0.30400
C 	C 	0.20456 0.12927 0.50644 0.32900
C 	C 	0.13378 0.19782 0.50993 0.30100
Ni	Ni	0.24834 0.24192 0.49682 1.11800
Ni	Ni	0.20044 0.19446 0.54443 1.12700
Ni	Ni	0.19424 0.18925 0.46381 1.13300
O 	O 	0.23051 0.26083 0.45018 -0.35600
O 	O 	0.17791 0.23399 0.44396 -0.33900
O 	O 	0.18947 0.14577 0.53143 -0.36600
O 	O 	0.27412 0.23083 0.54173 -0.36200
O 	O 	0.24937 0.17910 0.55160 -0.36100
O 	O 	0.14815 0.17912 0.48558 -0.34600
O 	O 	0.27581 0.20411 0.47210 -0.35400
O 	O 	0.23484 0.19512 0.43211 -0.35300
O 	O 	0.15057 0.20516 0.53838 -0.35500
O 	O 	0.22292 0.27820 0.52576 -0.35900
O 	O 	0.21008 0.23976 0.56877 -0.35500
O 	O 	0.21549 0.14558 0.47947 -0.35800
O 	O 	0.20936 0.21492 0.50170 -0.72100
H 	H 	0.19166 0.23273 0.50198 0.16300
C 	C 	0.20110 0.43908 0.74107 0.30000
C 	C 	0.26416 0.55890 0.80528 0.32900
C 	C 	0.26898 0.44541 0.80747 0.32700
C 	C 	0.19179 0.55794 0.74007 0.30800
C 	C 	0.20471 0.50311 0.87635 0.32900
C 	C 	0.12932 0.49442 0.81335 0.30400
Ni	Ni	0.24176 0.50087 0.76171 1.12000
Ni	Ni	0.19115 0.54023 0.81336 1.12700
Ni	Ni	0.19574 0.45924 0.81593 1.13100
O 	O 	0.21398 0.46857 0.73045 -0.34400
O 	O 	0.20294 0.42942 0.77356 -0.34000
O 	O 	0.21347 0.52950 0.85784 -0.36900
O 	O 	0.27242 0.52826 0.79488 -0.36300
O 	O 	0.23254 0.56972 0.80263 -0.36100
O 	O 	0.14562 0.46537 0.80685 -0.36100
O 	O 	0.26751 0.45667 0.77609 -0.35100
O 	O 	0.24529 0.45361 0.82950 -0.35200
O 	O 	0.14511 0.52084 0.82780 -0.35500
O 	O 	0.22371 0.54606 0.73912 -0.34500
O 	O 	0.17285 0.55615 0.76805 -0.36700
O 	O 	0.18721 0.47780 0.86300 -0.35200
O 	O 	0.20422 0.49955 0.79091 -0.72300
H 	H 	0.18563 0.49785 0.77418 0.16200
C 	C 	0.19946 0.73925 0.56641 0.30800
C 	C 	0.26554 0.80228 0.44536 0.32500
C 	C 	0.26965 0.80580 0.55788 0.32700
C 	C 	0.19992 0.73398 0.44686 0.31100
C 	C 	0.20364 0.87342 0.50411 0.32900
C 	C 	0.13010 0.80732 0.50516 0.30500
Ni	Ni	0.24350 0.75902 0.50445 1.12200
Ni	Ni	0.19310 0.81020 0.46430 1.13000
Ni	Ni	0.19524 0.81183 0.54519 1.12700
O 	O 	0.23025 0.73866 0.55199 -0.34600
O 	O 	0.17970 0.76683 0.56515 -0.35000
O 	O 	0.18493 0.85822 0.48085 -0.36800
O 	O 	0.26463 0.77119 0.45757 -0.36100
O 	O 	0.24170 0.82444 0.45328 -0.35400
O 	O 	0.14748 0.82412 0.52898 -0.36800
O 	O 	0.27507 0.79494 0.52690 -0.35300
O 	O 	0.23913 0.80352 0.57144 -0.36500
O 	O 	0.14368 0.80111 0.47477 -0.34900
O 	O 	0.21332 0.72577 0.47673 -0.34400
O 	O 	0.19837 0.76634 0.43607 -0.35100
O 	O 	0.21546 0.85633 0.53022 -0.37200
O 	O 	0.20528 0.78738 0.50489 -0.72500
H 	H 	0.18692 0.77024 0.50566 0.17200
C 	C 	0.80953 0.73401 0.44721 0.30300
C 	C 	0.73416 0.80626 0.55702 0.32800
C 	C 	0.74042 0.80325 0.44304 0.32900
C 	C 	0.79845 0.73628 0.56334 0.30500
C 	C 	0.80132 0.87187 0.49991 0.32900
C 	C 	0.87443 0.80525 0.50913 0.30600
Ni	Ni	0.75924 0.75931 0.50165 1.12200
Ni	Ni	0.80788 0.81105 0.54371 1.13000
Ni	Ni	0.81331 0.80803 0.46297 1.12600
O 	O 	0.77700 0.73583 0.45701 -0.34400
O 	O 	0.82965 0.76141 0.44776 -0.36400
O 	O 	0.81837 0.85781 0.52507 -0.36400
O 	O 	0.73362 0.77492 0.54532 -0.34500
O 	O 	0.75909 0.82707 0.54919 -0.35200
O 	O 	0.85946 0.82068 0.48292 -0.37100
O 	O 	0.73140 0.79460 0.47388 -0.35700
O 	O 	0.77207 0.79894 0.43294 -0.36800
O 	O 	0.85771 0.79974 0.53806 -0.35300
O 	O 	0.78485 0.72639 0.53406 -0.33800
O 	O 	0.79814 0.76887 0.57319 -0.34400
O 	O 	0.79320 0.85405 0.47284 -0.36700
O 	O 	0.79840 0.78648 0.50348 -0.72300
H 	H 	0.81605 0.76873 0.50553 0.16500
C 	C 	0.55381 0.73043 0.79847 0.30200
C 	C 	0.43960 0.81008 0.74383 0.32900
C 	C 	0.55332 0.79994 0.73265 0.32500
C 	C 	0.43808 0.74168 0.81278 0.30600
C 	C 	0.50651 0.87265 0.80447 0.33000
C 	C 	0.51182 0.80457 0.87407 0.30400
Ni	Ni	0.49382 0.75975 0.76077 1.12200
Ni	Ni	0.46320 0.81311 0.81549 1.12900
Ni	Ni	0.54384 0.80682 0.80647 1.12600
O 	O 	0.52329 0.72337 0.78546 -0.33400
O 	O 	0.56753 0.76142 0.79577 -0.36300
O 	O 	0.47882 0.85684 0.79431 -0.35900
O 	O 	0.46917 0.79804 0.73398 -0.35400
O 	O 	0.43037 0.80783 0.77582 -0.36400
O 	O 	0.53926 0.79594 0.85614 -0.36400
O 	O 	0.53817 0.77004 0.73346 -0.35200
O 	O 	0.54902 0.82181 0.75752 -0.36200
O 	O 	0.48666 0.82299 0.86057 -0.35200
O 	O 	0.44724 0.74177 0.78021 -0.34900
O 	O 	0.44254 0.76889 0.83251 -0.36200
O 	O 	0.53204 0.85563 0.81809 -0.36100
O 	O 	0.50036 0.78683 0.79928 -0.72100
H 	H 	0.50091 0.76910 0.81697 0.16200
C 	C 	0.80826 0.55710 0.74049 0.31100
C 	C 	0.73248 0.44708 0.81306 0.32400
C 	C 	0.73955 0.56052 0.80815 0.32300
C 	C 	0.79894 0.43922 0.74424 0.30600
C 	C 	0.80231 0.50465 0.87847 0.32600
C 	C 	0.87331 0.49284 0.81123 0.30600
Ni	Ni	0.75885 0.50105 0.76530 1.12100
Ni	Ni	0.80628 0.45947 0.81834 1.12900
Ni	Ni	0.81265 0.54027 0.81399 1.13000
O 	O 	0.77619 0.54579 0.74152 -0.34200
O 	O 	0.82861 0.55561 0.76753 -0.34900
O 	O 	0.81764 0.47816 0.86477 -0.36700
O 	O 	0.73306 0.45749 0.78140 -0.35600
O 	O 	0.75721 0.45511 0.83401 -0.36700
O 	O 	0.85911 0.52001 0.82598 -0.34900
O 	O 	0.73089 0.52932 0.79992 -0.36800
O 	O 	0.77142 0.57065 0.80520 -0.35000
O 	O 	0.85603 0.46395 0.80694 -0.35700
O 	O 	0.78482 0.46797 0.73324 -0.33900
O 	O 	0.79645 0.42966 0.77664 -0.34900
O 	O 	0.79239 0.53044 0.85968 -0.36700
O 	O 	0.79768 0.49957 0.79287 -0.72400
H 	H 	0.81552 0.49733 0.77540 0.17000
C 	C 	0.60329 0.64756 0.79567 -0.06900
C 	C 	0.62670 0.65277 0.82204 0.03000
C 	C 	0.62363 0.68174 0.84298 0.06600
C 	C 	0.59815 0.70590 0.83629 -0.00300
C 	C 	0.57632 0.70196 0.80832 -0.07500
C 	C 	0.57880 0.67236 0.78803 0.13000
C 	C 	0.65731 0.63091 0.82396 0.03100
N 	N 	0.64728 0.68745 0.87012 -0.01700
H 	H 	0.59603 0.72831 0.85225 0.07100
N 	N 	0.55849 0.66869 0.75808 -0.02300
H 	H 	0.60568 0.62532 0.77951 0.09100
C 	C 	0.65496 0.59723 0.83618 0.06400
C 	C 	0.68270 0.57500 0.83239 0.00100
C 	C 	0.71245 0.58569 0.81559 -0.08600
C 	C 	0.71491 0.61969 0.80393 0.12900
C 	C 	0.68772 0.64222 0.80903 -0.07100
N 	N 	0.62399 0.58513 0.85127 -0.01700
H 	H 	0.68080 0.54913 0.84188 0.07400
N 	N 	0.74383 0.63074 0.78473 -0.02200
H 	H 	0.68947 0.66806 0.79943 0.09100
O 	O 	0.56423 0.68808 0.73192 -0.08100
O 	O 	0.53724 0.64336 0.75550 -0.06400
O 	O 	0.66323 0.71643 0.87246 -0.07500
O 	O 	0.65161 0.66436 0.89342 -0.06400
O 	O 	0.74675 0.62207 0.75300 -0.08000
O 	O 	0.76534 0.65221 0.79795 -0.07100
O 	O 	0.60995 0.55717 0.84033 -0.07300
O 	O 	0.61084 0.60101 0.87713 -0.06300
C 	C 	0.78364 0.67430 0.63514 -0.06700
C 	C 	0.81536 0.65791 0.63690 0.02900
C 	C 	0.84188 0.66781 0.61485 0.07300
C 	C 	0.83625 0.69383 0.59109 -0.00400
C 	C 	0.80445 0.71005 0.58924 -0.06900
C 	C 	0.77797 0.70012 0.61130 0.13000
C 	C 	0.82028 0.63000 0.66154 0.03100
N 	N 	0.87451 0.65153 0.61650 -0.01600
H 	H 	0.85636 0.70088 0.57366 0.08600
N 	N 	0.74494 0.71544 0.60883 -0.02300
H 	H 	0.76318 0.66663 0.65201 0.09200
C 	C 	0.83412 0.63657 0.69387 0.07100
C 	C 	0.83324 0.61120 0.71888 0.00500
C 	C 	0.81815 0.57946 0.71204 -0.06800
C 	C 	0.80739 0.57189 0.67870 0.12800
C 	C 	0.80811 0.59734 0.65377 -0.06700
N 	N 	0.84823 0.66927 0.70168 -0.01600
H 	H 	0.84233 0.61698 0.74422 0.08400
N 	N 	0.79553 0.53844 0.67018 -0.02500
H 	H 	0.79861 0.59189 0.62851 0.09300
O 	O 	0.73273 0.73258 0.63433 -0.06100
O 	O 	0.72547 0.70863 0.58297 -0.07100
O 	O 	0.87725 0.61913 0.61008 -0.06900
O 	O 	0.90180 0.66959 0.62193 -0.05800
O 	O 	0.81451 0.51200 0.67649 -0.06500
O 	O 	0.76665 0.53458 0.65438 -0.07600
O 	O 	0.82850 0.69586 0.70340 -0.06900
O 	O 	0.88027 0.67194 0.70983 -0.06100
C 	C 	0.69033 0.82576 0.63979 -0.06600
C 	C 	0.65604 0.82269 0.63016 0.02900
C 	C 	0.64756 0.81984 0.59551 0.07000
C 	C 	0.67352 0.81675 0.57127 0.00700
C 	C 	0.70785 0.81712 0.58123 -0.07600
C 	C 	0.71628 0.82312 0.61550 0.13400
C 	C 	0.62984 0.81705 0.65649 0.02900
N 	N 	0.61260 0.81822 0.58508 -0.01600
H 	H 	0.66697 0.81298 0.54480 0.07900
N 	N 	0.75120 0.82476 0.62598 -0.02800
H 	H 	0.69691 0.82863 0.66636 0.09000
C 	C 	0.62352 0.78399 0.66884 0.06500
C 	C 	0.59862 0.77885 0.69373 -0.00100
C 	C 	0.57966 0.80640 0.70650 -0.08500
C 	C 	0.58647 0.83971 0.69451 0.12900
C 	C 	0.61172 0.84480 0.66978 -0.06900
N 	N 	0.64303 0.75564 0.65678 -0.01700
H 	H 	0.59422 0.75334 0.70334 0.08200
N 	N 	0.56770 0.86834 0.70708 -0.02400
H 	H 	0.61686 0.87031 0.66054 0.09400
O 	O 	0.76335 0.80187 0.64655 -0.06800
O 	O 	0.76973 0.85102 0.61787 -0.08100
O 	O 	0.59209 0.84343 0.59165 -0.07200
O 	O 	0.60187 0.79260 0.56705 -0.06500
O 	O 	0.58383 0.89409 0.72030 -0.07700
O 	O 	0.53497 0.87025 0.70208 -0.05500
O 	O 	0.66248 0.73879 0.67760 -0.07200
O 	O 	0.63923 0.74499 0.62575 -0.06400
C 	C 	0.96435 0.77372 0.52595 -0.06900
C 	C 	0.98372 0.79954 0.51065 0.02900
C 	C 	0.96717 0.82636 0.49348 0.06800
C 	C 	0.93151 0.82809 0.49341 -0.00100
C 	C 	0.91201 0.80251 0.50910 -0.07800
C 	C 	0.92861 0.77471 0.52475 0.12600
C 	C 	0.02133 0.79870 0.51314 0.03000
N 	N 	0.98653 0.85185 0.47596 -0.01600
H 	H 	0.91897 0.84935 0.48104 0.07700
N 	N 	0.90935 0.74695 0.53845 -0.02400
H 	H 	0.97706 0.75268 0.53852 0.09100
C 	C 	0.03893 0.82346 0.53227 0.07000
C 	C 	0.07451 0.82572 0.52996 -0.00100
C 	C 	0.09292 0.80265 0.50973 -0.07400
C 	C 	0.07542 0.77600 0.49301 0.12900
C 	C 	0.03972 0.77460 0.49432 -0.06800
N 	N 	0.02068 0.84656 0.55380 -0.01600
H 	H 	0.08777 0.84569 0.54364 0.07800
N 	N 	0.09385 0.74980 0.47558 -0.02200
H 	H 	0.02625 0.75486 0.48049 0.09000
O 	O 	0.91469 0.73697 0.56948 -0.07500
O 	O 	0.88901 0.72955 0.51893 -0.09300
O 	O 	0.00752 0.84306 0.45193 -0.07600
O 	O 	0.98123 0.88396 0.48223 -0.06600
O 	O 	0.11786 0.73311 0.49116 -0.06700
O 	O 	0.08553 0.74152 0.44471 -0.06900
O 	O 	0.00002 0.83487 0.57686 -0.07300
O 	O 	0.02640 0.87916 0.55183 -0.06600
C 	C 	0.34737 0.79208 0.61229 -0.06800
C 	C 	0.34633 0.82128 0.63275 0.02800
C 	C 	0.32310 0.84762 0.62519 0.06800
C 	C 	0.29949 0.84334 0.59884 0.00500
C 	C 	0.29888 0.81300 0.58003 -0.08400
C 	C 	0.32368 0.78772 0.58613 0.13000
C 	C 	0.36761 0.82271 0.66358 0.03100
N 	N 	0.32293 0.87841 0.64467 -0.01700
H 	H 	0.28073 0.86303 0.59391 0.07700
N 	N 	0.32348 0.75664 0.56722 -0.02800
H 	H 	0.36566 0.77207 0.61766 0.09000
C 	C 	0.35937 0.80251 0.69200 0.06400
C 	C 	0.38236 0.80005 0.71904 0.00300
C 	C 	0.41351 0.81761 0.71808 -0.08700
C 	C 	0.42070 0.83963 0.69070 0.13100
C 	C 	0.39781 0.84182 0.66344 -0.07100
N 	N 	0.32816 0.78353 0.69291 -0.01700
H 	H 	0.37648 0.78352 0.74031 0.07700
N 	N 	0.45102 0.86002 0.69065 -0.02400
H 	H 	0.40374 0.85803 0.64195 0.09500
O 	O 	0.34067 0.75440 0.53908 -0.08300
O 	O 	0.30795 0.72996 0.57924 -0.08300
O 	O 	0.32783 0.90756 0.62971 -0.06900
O 	O 	0.31506 0.87760 0.67673 -0.06700
O 	O 	0.47010 0.86128 0.66366 -0.06500
O 	O 	0.45781 0.87972 0.71634 -0.06000
O 	O 	0.32880 0.75083 0.69830 -0.06800
O 	O 	0.29904 0.79920 0.69026 -0.06700
C 	C 	0.03642 0.50364 0.83807 -0.06900
C 	C 	0.02012 0.49366 0.80799 0.03000
C 	C 	0.03978 0.48445 0.77945 0.06500
C 	C 	0.07548 0.48520 0.78138 -0.00100
C 	C 	0.09179 0.49457 0.81166 -0.07900
C 	C 	0.07207 0.50348 0.84031 0.13000
C 	C 	0.98244 0.49191 0.80692 0.02900
N 	N 	0.02357 0.47401 0.74859 -0.01700
H 	H 	0.09054 0.47816 0.75938 0.06900
N 	N 	0.08812 0.51104 0.87207 -0.02300
H 	H 	0.02135 0.51054 0.86009 0.09300
C 	C 	0.96481 0.46673 0.82548 0.06600
C 	C 	0.92910 0.46698 0.82631 0.00300
C 	C 	0.91071 0.49170 0.80824 -0.07200
C 	C 	0.92829 0.51593 0.78848 0.12700
C 	C 	0.96405 0.51629 0.78838 -0.06500
N 	N 	0.98315 0.44097 0.84366 -0.01700
H 	H 	0.91565 0.44804 0.84122 0.07800
N 	N 	0.90994 0.53920 0.76735 -0.02600
H 	H 	0.97751 0.53534 0.77363 0.09200
O 	O 	0.10592 0.48778 0.88757 -0.06200
O 	O 	0.08260 0.54019 0.88681 -0.07100
O 	O 	0.03013 0.48999 0.72041 -0.07400
O 	O 	0.00423 0.44707 0.74819 -0.06600
O 	O 	0.91219 0.57183 0.77272 -0.07600
O 	O 	0.89366 0.52798 0.74084 -0.06700
O 	O 	0.97769 0.43656 0.87592 -0.07200
O 	O 	0.00368 0.42055 0.82756 -0.06700
C 	C 	0.32103 0.62318 0.84906 -0.06800
C 	C 	0.34058 0.63501 0.82165 0.03100
C 	C 	0.33570 0.62089 0.78909 0.06400
C 	C 	0.31139 0.59520 0.78430 0.00600
C 	C 	0.29144 0.58380 0.81154 -0.08700
C 	C 	0.29655 0.59757 0.84417 0.13000
C 	C 	0.36609 0.66225 0.82701 0.02700
N 	N 	0.35508 0.63296 0.76074 -0.01700
H 	H 	0.30740 0.58473 0.75914 0.07000
N 	N 	0.27757 0.58499 0.87254 -0.02700
H 	H 	0.32496 0.63374 0.87418 0.09300
C 	C 	0.35575 0.69650 0.83028 0.06700
C 	C 	0.38017 0.72256 0.82924 0.00100
C 	C 	0.41474 0.71477 0.82430 -0.07800
C 	C 	0.42536 0.68045 0.82418 0.12400
C 	C 	0.40096 0.65435 0.82550 -0.06500
N 	N 	0.32037 0.70499 0.83316 -0.01800
H 	H 	0.37196 0.74893 0.82993 0.07300
N 	N 	0.46089 0.67206 0.82215 -0.02600
H 	H 	0.40904 0.62796 0.82424 0.09100
O 	O 	0.25807 0.60550 0.88975 -0.07600
O 	O 	0.28203 0.55383 0.88290 -0.07500
O 	O 	0.37374 0.61186 0.74332 -0.07400
O 	O 	0.35215 0.66446 0.75086 -0.06700
O 	O 	0.48247 0.68576 0.84322 -0.08500
O 	O 	0.47138 0.64936 0.80048 -0.06700
O 	O 	0.30930 0.72074 0.86004 -0.07300
O 	O 	0.29984 0.69958 0.80779 -0.06600
C 	C 	0.15620 0.66729 0.61389 -0.06700
C 	C 	0.18106 0.65961 0.63829 0.02900
C 	C 	0.21126 0.67901 0.63987 0.07000
C 	C 	0.21638 0.70572 0.61694 -0.00000
C 	C 	0.19183 0.71314 0.59211 -0.07500
C 	C 	0.16121 0.69425 0.59104 0.12700
C 	C 	0.17511 0.63178 0.66276 0.02900
N 	N 	0.23678 0.67166 0.66482 -0.01700
H 	H 	0.23974 0.72047 0.61817 0.08500
N 	N 	0.13526 0.70214 0.56675 -0.02500
H 	H 	0.13277 0.65265 0.61294 0.09100
C 	C 	0.16617 0.63926 0.69657 0.06700
C 	C 	0.16918 0.61402 0.72151 0.00100
C 	C 	0.18080 0.58130 0.71294 -0.07800
C 	C 	0.18613 0.57289 0.67856 0.12600
C 	C 	0.18339 0.59824 0.65364 -0.06700
N 	N 	0.15556 0.67292 0.70590 -0.01600
H 	H 	0.16402 0.62035 0.74780 0.07500
N 	N 	0.19435 0.53867 0.66891 -0.02500
H 	H 	0.18906 0.59217 0.62740 0.09100
O 	O 	0.11754 0.72998 0.56998 -0.07100
O 	O 	0.12561 0.67906 0.54510 -0.06100
O 	O 	0.25253 0.64249 0.66444 -0.07400
O 	O 	0.24613 0.69512 0.68621 -0.06000
O 	O 	0.17440 0.51370 0.67771 -0.08500
O 	O 	0.22059 0.53274 0.64958 -0.07300
O 	O 	0.12991 0.68719 0.69051 -0.07500
O 	O 	0.17052 0.68866 0.73086 -0.06600
C 	C 	0.23681 0.96372 0.51130 -0.06900
C 	C 	0.20635 0.98238 0.50914 0.03100
C 	C 	0.17504 0.96511 0.50536 0.06300
C 	C 	0.17461 0.92955 0.50273 0.00300
C 	C 	0.20504 0.91086 0.50474 -0.08800
C 	C 	0.23633 0.92805 0.50918 0.13000
C 	C 	0.20753 0.02003 0.50834 0.03000
N 	N 	0.14358 0.98366 0.50438 -0.01700
H 	H 	0.15045 0.91637 0.50001 0.07600
N 	N 	0.26771 0.90942 0.51088 -0.02500
H 	H 	0.26094 0.97696 0.51397 0.09400
C 	C 	0.21502 0.03886 0.53790 0.06700
C 	C 	0.21423 0.07457 0.53695 0.00600
C 	C 	0.20548 0.09169 0.50691 -0.08000
C 	C 	0.19768 0.07273 0.47743 0.13300
C 	C 	0.19961 0.03714 0.47813 -0.06700
N 	N 	0.22303 0.02180 0.56901 -0.01700
H 	H 	0.22011 0.08897 0.55969 0.08000
N 	N 	0.18618 0.08944 0.44724 -0.02500
H 	H 	0.19369 0.02270 0.45542 0.09300
O 	O 	0.27705 0.89024 0.48560 -0.07400
O 	O 	0.28807 0.91355 0.53662 -0.07600
O 	O 	0.12259 0.97942 0.47917 -0.07300
O 	O 	0.13497 0.00313 0.52969 -0.06800
O 	O 	0.20331 0.08616 0.41915 -0.07300
O 	O 	0.15715 0.10551 0.44714 -0.08100
O 	O 	0.25183 0.02790 0.58424 -0.06700
O 	O 	0.20057 0.00209 0.58334 -0.06900
C 	C 	0.20525 0.35898 0.68770 -0.06800
C 	C 	0.18453 0.36816 0.66023 0.02700
C 	C 	0.16602 0.39895 0.66131 0.07200
C 	C 	0.17026 0.42122 0.68886 -0.00300
C 	C 	0.19294 0.41312 0.71523 -0.07300
C 	C 	0.21021 0.38151 0.71478 0.12800
C 	C 	0.18615 0.34774 0.62877 0.03100
N 	N 	0.14394 0.40830 0.63389 -0.01600
H 	H 	0.15640 0.44511 0.68943 0.07800
N 	N 	0.23453 0.37314 0.74053 -0.02100
H 	H 	0.21931 0.33520 0.68698 0.08900
C 	C 	0.21378 0.35182 0.60624 0.06400
C 	C 	0.21958 0.32754 0.58084 -0.00000
C 	C 	0.19779 0.29937 0.57738 -0.07900
C 	C 	0.16847 0.29698 0.59797 0.12400
C 	C 	0.16318 0.32076 0.62401 -0.06800
N 	N 	0.23706 0.37964 0.61027 -0.01700
H 	H 	0.24182 0.32992 0.56466 0.07400
N 	N 	0.14354 0.27109 0.59183 -0.02500
H 	H 	0.14151 0.31792 0.64087 0.09300
O 	O 	0.26359 0.38910 0.74158 -0.07300
O 	O 	0.23005 0.34605 0.75901 -0.07000
O 	O 	0.11849 0.38871 0.62564 -0.07300
O 	O 	0.14769 0.43762 0.61894 -0.06100
O 	O 	0.13619 0.24916 0.61548 -0.08100
O 	O 	0.12600 0.27139 0.56381 -0.07900
O 	O 	0.26938 0.37372 0.61493 -0.07600
O 	O 	0.22628 0.41085 0.60737 -0.06500
C 	C 	0.81309 0.03415 0.53037 -0.06900
C 	C 	0.79825 0.01835 0.50209 0.03000
C 	C 	0.78556 0.03840 0.47519 0.07100
C 	C 	0.78904 0.07394 0.47634 0.00400
C 	C 	0.80440 0.08970 0.50440 -0.07800
C 	C 	0.81654 0.06964 0.53155 0.13500
C 	C 	0.79786 0.98076 0.50001 0.03100
N 	N 	0.76916 0.02276 0.44667 -0.01600
H 	H 	0.77932 0.08933 0.45563 0.08000
N 	N 	0.83343 0.08513 0.55984 -0.02600
H 	H 	0.82295 0.01876 0.55101 0.09100
C 	C 	0.82077 0.96337 0.47852 0.06600
C 	C 	0.82067 0.92768 0.47765 0.00500
C 	C 	0.79846 0.90915 0.49856 -0.08400
C 	C 	0.77518 0.92652 0.51960 0.13200
C 	C 	0.77512 0.96222 0.52034 -0.07000
N 	N 	0.84454 0.98186 0.45797 -0.01600
H 	H 	0.83864 0.91435 0.46149 0.06800
N 	N 	0.75114 0.90802 0.53977 -0.02700
H 	H 	0.75725 0.97554 0.53662 0.09100
O 	O 	0.86195 0.10146 0.55534 -0.06800
O 	O 	0.82176 0.08054 0.59040 -0.07300
O 	O 	0.74286 0.00305 0.45126 -0.07300
O 	O 	0.77897 0.03016 0.41601 -0.06300
O 	O 	0.72716 0.89046 0.52512 -0.06100
O 	O 	0.75074 0.91201 0.57253 -0.07200
O 	O 	0.86724 0.00141 0.47215 -0.07000
O 	O 	0.84526 0.97701 0.42532 -0.06600
C 	C 	0.97224 0.17244 0.49851 -0.07000
C 	C 	0.98730 0.20452 0.50305 0.02900
C 	C 	0.96661 0.23388 0.50451 0.06700
C 	C 	0.93107 0.23076 0.50195 -0.00200
C 	C 	0.91600 0.19862 0.49789 -0.07700
C 	C 	0.93675 0.16933 0.49577 0.13200
C 	C 	0.02478 0.20711 0.50618 0.03000
N 	N 	0.98153 0.26674 0.50965 -0.01600
H 	H 	0.91516 0.25331 0.50366 0.06600
N 	N 	0.92185 0.13637 0.49071 -0.02300
H 	H 	0.98815 0.14989 0.49698 0.09200
C 	C 	0.04115 0.19887 0.53696 0.06700
C 	C 	0.07685 0.19678 0.53819 0.00200
C 	C 	0.09643 0.20308 0.50901 -0.07100
C 	C 	0.07999 0.21291 0.47868 0.12500
C 	C 	0.04434 0.21445 0.47734 -0.06500
N 	N 	0.02155 0.19179 0.56681 -0.01700
H 	H 	0.08927 0.18964 0.56173 0.08300
N 	N 	0.09941 0.22213 0.44943 -0.02600
H 	H 	0.03183 0.22099 0.45368 0.09300
O 	O 	0.92934 0.11147 0.51119 -0.06000
O 	O 	0.90313 0.13055 0.46408 -0.06600
O 	O 	0.99902 0.28102 0.48548 -0.07500
O 	O 	0.97514 0.28361 0.53734 -0.06600
O 	O 	0.10570 0.25409 0.44331 -0.07200
O 	O 	0.10620 0.19931 0.42647 -0.07100
O 	O 	0.02586 0.16322 0.58300 -0.07100
O 	O 	0.00095 0.21474 0.57896 -0.06500
C 	C 	0.83374 0.30691 0.64769 -0.06800
C 	C 	0.82453 0.34042 0.63945 0.02900
C 	C 	0.81685 0.34884 0.60552 0.06700
C 	C 	0.81579 0.32317 0.58082 -0.00200
C 	C 	0.82173 0.28908 0.58978 -0.07900
C 	C 	0.83179 0.28110 0.62325 0.13000
C 	C 	0.81856 0.36530 0.66696 0.02900
N 	N 	0.80878 0.38318 0.59634 -0.01800
H 	H 	0.80863 0.32953 0.55501 0.06900
N 	N 	0.83759 0.24653 0.63310 -0.02500
H 	H 	0.84026 0.30047 0.67365 0.09200
C 	C 	0.78975 0.36220 0.68815 0.06800
C 	C 	0.78435 0.38586 0.71414 0.00100
C 	C 	0.80712 0.41295 0.71899 -0.07200
C 	C 	0.83627 0.41585 0.69819 0.12600
C 	C 	0.84178 0.39200 0.67220 -0.06500
N 	N 	0.76569 0.33521 0.68306 -0.01700
H 	H 	0.76180 0.38377 0.72995 0.08400
N 	N 	0.86065 0.44248 0.70380 -0.02500
H 	H 	0.86421 0.39411 0.65625 0.09400
O 	O 	0.86860 0.23548 0.63717 -0.07100
O 	O 	0.81192 0.22702 0.64083 -0.07500
O 	O 	0.82785 0.39937 0.57467 -0.07300
O 	O 	0.78088 0.39726 0.60743 -0.06800
O 	O 	0.87430 0.44642 0.73364 -0.07700
O 	O 	0.87192 0.46030 0.67831 -0.05900
O 	O 	0.75889 0.31418 0.70767 -0.06700
O 	O 	0.74875 0.33319 0.65474 -0.06900
C 	C 	0.48014 0.96448 0.81795 -0.06900
C 	C 	0.50919 0.98181 0.80649 0.03000
C 	C 	0.53741 0.96326 0.79424 0.07000
C 	C 	0.53618 0.92756 0.79346 0.00600
C 	C 	0.50712 0.91019 0.80499 -0.07800
C 	C 	0.47904 0.92884 0.81758 0.13300
C 	C 	0.50990 0.01941 0.80777 0.03000
N 	N 	0.56734 0.98058 0.78254 -0.01600
H 	H 	0.55795 0.91333 0.78414 0.08100
N 	N 	0.44985 0.91166 0.83110 -0.02700
H 	H 	0.45852 0.97872 0.82760 0.09000
C 	C 	0.50360 0.03889 0.77837 0.06800
C 	C 	0.50203 0.07449 0.78060 -0.00300
C 	C 	0.50631 0.09083 0.81197 -0.07900
C 	C 	0.51287 0.07133 0.84134 0.13000
C 	C 	0.51498 0.03579 0.83898 -0.07100
N 	N 	0.49856 0.02258 0.74626 -0.01600
H 	H 	0.49698 0.08942 0.75799 0.07100
N 	N 	0.51617 0.08744 0.87378 -0.02300
H 	H 	0.51968 0.02083 0.86164 0.09100
O 	O 	0.42011 0.91583 0.81705 -0.07500
O 	O 	0.45246 0.89429 0.85909 -0.08200
O 	O 	0.58453 0.99996 0.80315 -0.07300
O 	O 	0.57877 0.97500 0.75206 -0.06000
O 	O 	0.49044 0.10375 0.88686 -0.07300
O 	O 	0.54394 0.08346 0.89140 -0.07100
O 	O 	0.47271 0.00227 0.74179 -0.07100
O 	O 	0.51824 0.03011 0.72076 -0.06400
C 	C 	0.36778 0.32233 0.79192 -0.07100
C 	C 	0.37135 0.34321 0.82052 0.02900
C 	C 	0.39705 0.33618 0.84457 0.07000
C 	C 	0.42004 0.30938 0.83873 0.00300
C 	C 	0.41688 0.28897 0.80965 -0.08400
C 	C 	0.38993 0.29494 0.78669 0.13100
C 	C 	0.34799 0.37236 0.82487 0.03300
N 	N 	0.40009 0.35632 0.87474 -0.01500
H 	H 	0.44055 0.30473 0.85659 0.08400
N 	N 	0.38409 0.27227 0.75888 -0.02300
H 	H 	0.34747 0.32717 0.77387 0.09300
C 	C 	0.35557 0.40394 0.80967 0.06600
C 	C 	0.32995 0.42857 0.80621 0.00500
C 	C 	0.29658 0.42181 0.81723 -0.07900
C 	C 	0.28948 0.39082 0.83422 0.13500
C 	C 	0.31544 0.36662 0.83838 -0.06800
N 	N 	0.38873 0.41029 0.79586 -0.01700
H 	H 	0.33574 0.45255 0.79382 0.07300
N 	N 	0.25574 0.38309 0.84597 -0.02300
H 	H 	0.30964 0.34233 0.85016 0.09500
O 	O 	0.37150 0.24213 0.76443 -0.07600
O 	O 	0.38808 0.28296 0.72789 -0.06300
O 	O 	0.37455 0.35858 0.89570 -0.07000
O 	O 	0.42932 0.36978 0.88280 -0.06000
O 	O 	0.23055 0.38194 0.82453 -0.08400
O 	O 	0.25144 0.37133 0.87654 -0.06100
O 	O 	0.39216 0.41716 0.76375 -0.07300
O 	O 	0.41519 0.41136 0.81574 -0.06400
C 	C 	0.41073 0.16960 0.65178 -0.06600
C 	C 	0.37570 0.17165 0.65873 0.02700
C 	C 	0.36441 0.17149 0.69266 0.07100
C 	C 	0.38819 0.17392 0.71908 -0.00000
C 	C 	0.42320 0.17706 0.71189 -0.07100
C 	C 	0.43461 0.17151 0.67828 0.12500
C 	C 	0.35153 0.17927 0.63094 0.03100
N 	N 	0.32869 0.17046 0.70030 -0.01700
H 	H 	0.37925 0.17479 0.74507 0.08300
N 	N 	0.47015 0.16677 0.67116 -0.02100
H 	H 	0.41945 0.16761 0.62575 0.09000
C 	C 	0.33950 0.21276 0.62611 0.06500
C 	C 	0.31454 0.21931 0.60158 0.00100
C 	C 	0.30160 0.19284 0.58130 -0.08600
C 	C 	0.31417 0.15932 0.58571 0.13000
C 	C 	0.33903 0.15280 0.61053 -0.07000
N 	N 	0.35220 0.24013 0.64656 -0.01600
H 	H 	0.30497 0.24505 0.59850 0.07500
N 	N 	0.30199 0.13195 0.56497 -0.02500
H 	H 	0.34841 0.12705 0.61411 0.09200
O 	O 	0.48442 0.18328 0.64629 -0.07700
O 	O 	0.48774 0.14449 0.68824 -0.08800
O 	O 	0.30973 0.14614 0.68815 -0.07700
O 	O 	0.31542 0.19297 0.72063 -0.06500
O 	O 	0.30614 0.13301 0.53224 -0.06100
O 	O 	0.28960 0.10464 0.57904 -0.07500
O 	O 	0.38437 0.24821 0.64548 -0.07300
O 	O 	0.33125 0.25828 0.66469 -0.06700
C 	C 	0.61862 0.32565 0.85011 -0.07000
C 	C 	0.62671 0.34823 0.82371 0.03200
C 	C 	0.60974 0.34544 0.79226 0.06700
C 	C 	0.58512 0.32002 0.78752 0.00600
C 	C 	0.57785 0.29677 0.81354 -0.08400
C 	C 	0.59412 0.30008 0.84525 0.13100
C 	C 	0.65402 0.37376 0.82856 0.02900
N 	N 	0.61810 0.36783 0.76479 -0.01600
H 	H 	0.57268 0.31749 0.76306 0.07000
N 	N 	0.58516 0.27813 0.87282 -0.02700
H 	H 	0.63131 0.32799 0.87445 0.09100
C 	C 	0.64623 0.40883 0.82997 0.06800
C 	C 	0.67250 0.43292 0.82703 0.00400
C 	C 	0.70647 0.42231 0.82358 -0.08700
C 	C 	0.71445 0.38732 0.82519 0.12900
C 	C 	0.68818 0.36325 0.82761 -0.06900
N 	N 	0.61160 0.42002 0.83347 -0.01600
H 	H 	0.66638 0.45987 0.82656 0.07000
N 	N 	0.74909 0.37607 0.82269 -0.02600
H 	H 	0.69429 0.33630 0.82729 0.09100
O 	O 	0.60794 0.25793 0.88592 -0.07700
O 	O 	0.55513 0.28045 0.88667 -0.07000
O 	O 	0.64869 0.36766 0.75199 -0.07400
O 	O 	0.59439 0.38622 0.75072 -0.06600
O 	O 	0.77060 0.38307 0.84684 -0.09600
O 	O 	0.75826 0.35616 0.79793 -0.07800
O 	O 	0.59279 0.40841 0.85808 -0.07000
O 	O 	0.59950 0.44324 0.81321 -0.06400
C 	C 	0.64619 0.16903 0.69802 -0.06600
C 	C 	0.63782 0.17734 0.66443 0.02800
C 	C 	0.60389 0.18588 0.65616 0.06900
C 	C 	0.57935 0.18833 0.68190 -0.00100
C 	C 	0.58856 0.18344 0.71598 -0.07500
C 	C 	0.62208 0.17290 0.72395 0.13000
C 	C 	0.66539 0.18120 0.63906 0.03000
N 	N 	0.59456 0.19342 0.62186 -0.01800
H 	H 	0.55349 0.19578 0.67554 0.07900
N 	N 	0.63240 0.16847 0.75848 -0.02400
H 	H 	0.67212 0.16181 0.70436 0.09200
C 	C 	0.68935 0.20785 0.64210 0.06500
C 	C 	0.71598 0.21059 0.61863 0.00300
C 	C 	0.71841 0.18771 0.59142 -0.08500
C 	C 	0.69436 0.16119 0.58814 0.12900
C 	C 	0.66806 0.15796 0.61211 -0.06800
N 	N 	0.68633 0.23255 0.66870 -0.01700
H 	H 	0.73421 0.23126 0.62095 0.08100
N 	N 	0.69675 0.13731 0.56076 -0.02500
H 	H 	0.64982 0.13732 0.60982 0.09300
O 	O 	0.63924 0.13813 0.76989 -0.07100
O 	O 	0.63817 0.19498 0.77746 -0.07300
O 	O 	0.57149 0.17513 0.60665 -0.06900
O 	O 	0.60685 0.22032 0.60693 -0.07100
O 	O 	0.72409 0.11889 0.55709 -0.07400
O 	O 	0.67072 0.13237 0.54088 -0.07200
O 	O 	0.71182 0.23795 0.68914 -0.06700
O 	O 	0.65917 0.25149 0.67080 -0.06900
C 	C 	0.47491 0.21074 0.96880 -0.06700
C 	C 	0.50615 0.20595 0.98547 0.03100
C 	C 	0.53629 0.20203 0.96635 0.06800
C 	C 	0.53475 0.20205 0.93083 0.00700
C 	C 	0.50341 0.20627 0.91406 -0.07800
C 	C 	0.47342 0.21135 0.93325 0.13100
C 	C 	0.50698 0.20353 0.02294 0.02900
N 	N 	0.56850 0.19765 0.98296 -0.01700
H 	H 	0.55792 0.19835 0.91628 0.07900
N 	N 	0.44162 0.21807 0.91678 -0.02400
H 	H 	0.45176 0.21417 0.98345 0.09200
C 	C 	0.50329 0.23292 0.04324 0.06800
C 	C 	0.50457 0.23009 0.07870 -0.00200
C 	C 	0.50985 0.19832 0.09406 -0.07600
C 	C 	0.51333 0.16892 0.07378 0.13000
C 	C 	0.51160 0.17165 0.03837 -0.06800
N 	N 	0.49824 0.26564 0.02795 -0.01700
H 	H 	0.50148 0.25265 0.09427 0.07500
N 	N 	0.51895 0.13630 0.08907 -0.02400
H 	H 	0.51435 0.14902 0.02283 0.09300
O 	O 	0.41613 0.19722 0.92071 -0.07600
O 	O 	0.43715 0.24661 0.90059 -0.07700
O 	O 	0.58735 0.17128 0.97601 -0.07000
O 	O 	0.57996 0.22110 0.00332 -0.06300
O 	O 	0.49768 0.11148 0.08348 -0.06900
O 	O 	0.54656 0.13071 0.10652 -0.06400
O 	O 	0.47188 0.28396 0.03627 -0.07000
O 	O 	0.52125 0.27818 0.00770 -0.06200
C 	C 	0.34695 0.16351 0.39709 -0.06900
C 	C 	0.34682 0.18461 0.36836 0.02800
C 	C 	0.31911 0.20675 0.36257 0.06900
C 	C 	0.29273 0.20881 0.38643 0.00100
C 	C 	0.29344 0.18866 0.41584 -0.08300
C 	C 	0.32030 0.16526 0.42079 0.12900
C 	C 	0.37679 0.18516 0.34564 0.03100
N 	N 	0.31804 0.22768 0.33280 -0.01600
H 	H 	0.27190 0.22653 0.38233 0.08300
N 	N 	0.32030 0.14284 0.44947 -0.02400
H 	H 	0.36793 0.14599 0.40120 0.09000
C 	C 	0.40002 0.21255 0.34678 0.06700
C 	C 	0.42553 0.21523 0.32207 0.00900
C 	C 	0.42839 0.19059 0.29642 -0.08000
C 	C 	0.40647 0.16210 0.29653 0.13400
C 	C 	0.38065 0.15964 0.32102 -0.06900
N 	N 	0.39717 0.23819 0.37250 -0.01600
H 	H 	0.44256 0.23699 0.32229 0.06900
N 	N 	0.41072 0.13539 0.27215 -0.02600
H 	H 	0.36325 0.13817 0.32056 0.09000
O 	O 	0.34753 0.13997 0.46813 -0.06800
O 	O 	0.29436 0.12288 0.45492 -0.06600
O 	O 	0.31908 0.21377 0.30285 -0.06600
O 	O 	0.31377 0.26044 0.33562 -0.05900
O 	O 	0.43900 0.11807 0.27126 -0.07300
O 	O 	0.38540 0.12667 0.25266 -0.07300
O 	O 	0.39875 0.22977 0.40439 -0.07800
O 	O 	0.39506 0.27016 0.36400 -0.06800
C 	C 	0.61065 0.16035 0.34312 -0.06900
C 	C 	0.63891 0.18207 0.34632 0.03000
C 	C 	0.64384 0.20855 0.32265 0.06400
C 	C 	0.62012 0.21354 0.29659 0.00400
C 	C 	0.59110 0.19280 0.29418 -0.08700
C 	C 	0.58645 0.16582 0.31741 0.13200
C 	C 	0.66231 0.17827 0.37553 0.02900
N 	N 	0.67258 0.23091 0.32544 -0.01800
H 	H 	0.62385 0.23416 0.27865 0.06900
N 	N 	0.55663 0.14476 0.31582 -0.02300
H 	H 	0.60682 0.13997 0.36129 0.09300
C 	C 	0.65283 0.19038 0.40786 0.06700
C 	C 	0.67733 0.19284 0.43362 0.00700
C 	C 	0.71141 0.18392 0.42728 -0.08200
C 	C 	0.72029 0.16945 0.39569 0.13100
C 	C 	0.69560 0.16635 0.37016 -0.06600
N 	N 	0.61865 0.20148 0.41421 -0.01700
H 	H 	0.67016 0.20320 0.45811 0.07600
N 	N 	0.75473 0.15976 0.38874 -0.02700
H 	H 	0.70282 0.15642 0.34551 0.09200
O 	O 	0.55975 0.11177 0.31513 -0.06800
O 	O 	0.52652 0.15834 0.31897 -0.07000
O 	O 	0.69406 0.23349 0.30042 -0.06800
O 	O 	0.67562 0.25079 0.35169 -0.06400
O 	O 	0.76345 0.12780 0.38974 -0.07800
O 	O 	0.77670 0.18256 0.37892 -0.08300
O 	O 	0.60016 0.18593 0.43680 -0.07200
O 	O 	0.60704 0.22880 0.39949 -0.07100
C 	C 	0.53953 0.03742 0.20406 -0.06800
C 	C 	0.50841 0.02035 0.19991 0.03200
C 	C 	0.47778 0.03906 0.19837 0.06600
C 	C 	0.47861 0.07464 0.20072 0.00600
C 	C 	0.50982 0.09189 0.20414 -0.07900
C 	C 	0.54044 0.07303 0.20631 0.13400
C 	C 	0.50796 0.98278 0.19794 0.02800
N 	N 	0.44577 0.02202 0.19399 -0.01700
H 	H 	0.45501 0.08891 0.19881 0.07800
N 	N 	0.57239 0.08987 0.21145 -0.02500
H 	H 	0.56307 0.02301 0.20579 0.09200
C 	C 	0.52007 0.96585 0.16879 0.06600
C 	C 	0.51921 0.93020 0.16731 0.00000
C 	C 	0.50589 0.91126 0.19447 -0.07800
C 	C 	0.49437 0.92822 0.22384 0.12600
C 	C 	0.49540 0.96384 0.22539 -0.06700
N 	N 	0.53282 0.98481 0.14045 -0.01800
H 	H 	0.52796 0.91729 0.14459 0.07700
N 	N 	0.48191 0.90930 0.25227 -0.02400
H 	H 	0.48651 0.97681 0.24802 0.09200
O 	O 	0.57851 0.10536 0.23998 -0.07100
O 	O 	0.59647 0.08703 0.18891 -0.06900
O 	O 	0.42128 0.02684 0.21573 -0.07000
O 	O 	0.44029 0.00369 0.16702 -0.06900
O 	O 	0.50173 0.88769 0.26772 -0.08100
O 	O 	0.45107 0.91440 0.26331 -0.07000
O 	O 	0.56346 0.97905 0.12912 -0.07300
O 	O 	0.51301 0.00605 0.12449 -0.06500
C 	C 	0.48041 0.78781 0.03590 -0.06900
C 	C 	0.51176 0.79285 0.01952 0.03100
C 	C 	0.54154 0.79804 0.03888 0.06500
C 	C 	0.53947 0.79919 0.07433 0.00400
C 	C 	0.50797 0.79498 0.09076 -0.08300
C 	C 	0.47839 0.78863 0.07137 0.13200
C 	C 	0.51280 0.79547 0.98216 0.02800
N 	N 	0.57384 0.80280 0.02255 -0.01600
H 	H 	0.56233 0.80397 0.08907 0.07800
N 	N 	0.44637 0.78250 0.08760 -0.02600
H 	H 	0.45752 0.78356 0.02105 0.09200
C 	C 	0.50998 0.76612 0.96168 0.06700
C 	C 	0.51033 0.76932 0.92625 -0.00300
C 	C 	0.51341 0.80150 0.91113 -0.07900
C 	C 	0.51671 0.83077 0.93162 0.13000
C 	C 	0.51611 0.82761 0.96699 -0.06900
N 	N 	0.50643 0.73311 0.97677 -0.01700
H 	H 	0.50793 0.74678 0.91050 0.07000
N 	N 	0.52100 0.86373 0.91657 -0.02200
H 	H 	0.51848 0.85016 0.98272 0.09100
O 	O 	0.44013 0.75291 0.10109 -0.06500
O 	O 	0.42226 0.80520 0.08583 -0.07800
O 	O 	0.59207 0.82967 0.02927 -0.07400
O 	O 	0.58592 0.77935 0.00256 -0.06400
O 	O 	0.50058 0.88851 0.92479 -0.07000
O 	O 	0.54696 0.86967 0.89688 -0.07000
O 	O 	0.48068 0.71384 0.96870 -0.07300
O 	O 	0.53010 0.72141 0.99677 -0.06200
C 	C 	0.64289 0.83107 0.31118 -0.06700
C 	C 	0.63386 0.82188 0.34435 0.02700
C 	C 	0.59978 0.81319 0.35176 0.06900
C 	C 	0.57580 0.81121 0.32548 -0.00100
C 	C 	0.58567 0.81708 0.29174 -0.07400
C 	C 	0.61930 0.82792 0.28471 0.12900
C 	C 	0.66093 0.81694 0.36996 0.03100
N 	N 	0.58975 0.80504 0.38572 -0.01800
H 	H 	0.54990 0.80336 0.33111 0.07900
N 	N 	0.63031 0.83322 0.25053 -0.02400
H 	H 	0.66896 0.83837 0.30554 0.09000
C 	C 	0.68393 0.78947 0.36702 0.06100
C 	C 	0.71042 0.78588 0.39052 0.00300
C 	C 	0.71377 0.80894 0.41748 -0.08900
C 	C 	0.69069 0.83629 0.42059 0.13000
C 	C 	0.66437 0.84017 0.39680 -0.07000
N 	N 	0.68020 0.76496 0.34035 -0.01700
H 	H 	0.72791 0.76458 0.38832 0.07300
N 	N 	0.69447 0.86070 0.44730 -0.02500
H 	H 	0.64687 0.86145 0.39898 0.09300
O 	O 	0.63683 0.86390 0.23986 -0.07500
O 	O 	0.63700 0.80721 0.23118 -0.07100
O 	O 	0.56666 0.82329 0.40091 -0.06900
O 	O 	0.60149 0.77771 0.40031 -0.07000
O 	O 	0.72138 0.88007 0.44840 -0.06900
O 	O 	0.66984 0.86542 0.46891 -0.06700
O 	O 	0.70534 0.75930 0.31956 -0.07900
O 	O 	0.65258 0.74670 0.33826 -0.07400
C 	C 	0.39824 0.83468 0.34436 -0.06600
C 	C 	0.36685 0.81781 0.34130 0.02900
C 	C 	0.35965 0.79890 0.31173 0.06400
C 	C 	0.38395 0.79688 0.28577 0.00100
C 	C 	0.41614 0.81214 0.28956 -0.07600
C 	C 	0.42330 0.83118 0.31920 0.12900
C 	C 	0.34248 0.81817 0.37004 0.02900
N 	N 	0.32818 0.78064 0.30852 -0.01800
H 	H 	0.37835 0.78195 0.26331 0.07300
N 	N 	0.45587 0.84691 0.32402 -0.02300
H 	H 	0.40374 0.84944 0.36697 0.09300
C 	C 	0.35038 0.80124 0.40061 0.06500
C 	C 	0.32577 0.79875 0.42623 0.00400
C 	C 	0.29273 0.81156 0.42113 -0.08200
C 	C 	0.28520 0.82957 0.39102 0.13000
C 	C 	0.31039 0.83351 0.36606 -0.06700
N 	N 	0.38291 0.78531 0.40517 -0.01700
H 	H 	0.33190 0.78538 0.44952 0.07600
N 	N 	0.25152 0.84209 0.38477 -0.02400
H 	H 	0.30438 0.84698 0.34279 0.09200
O 	O 	0.48206 0.82819 0.33196 -0.07300
O 	O 	0.45757 0.87975 0.32815 -0.06400
O 	O 	0.32111 0.75594 0.32939 -0.06600
O 	O 	0.30806 0.78673 0.28298 -0.07000
O 	O 	0.24589 0.87475 0.38407 -0.07500
O 	O 	0.22719 0.82099 0.37685 -0.08800
O 	O 	0.40259 0.79471 0.43004 -0.07300
O 	O 	0.39163 0.75960 0.38621 -0.07100
C 	C 	0.77209 0.51602 0.04423 -0.06500
C 	C 	0.80145 0.51165 0.02434 0.02700
C 	C 	0.83354 0.50839 0.04011 0.06900
C 	C 	0.83594 0.50936 0.07551 -0.00200
C 	C 	0.80656 0.51290 0.09551 -0.07400
C 	C 	0.77440 0.51639 0.07978 0.12200
C 	C 	0.79861 0.51093 0.98696 0.03000
N 	N 	0.86377 0.50387 0.02021 -0.01700
H 	H 	0.86069 0.50690 0.08750 0.09000
N 	N 	0.74403 0.51989 0.09972 -0.02500
H 	H 	0.74739 0.51857 0.03211 0.09200
C 	C 	0.78650 0.48160 0.97015 0.06500
C 	C 	0.78726 0.48006 0.93462 0.00300
C 	C 	0.80035 0.50737 0.91570 -0.08500
C 	C 	0.81204 0.53690 0.93256 0.13100
C 	C 	0.81048 0.53873 0.96800 -0.06900
N 	N 	0.77387 0.45315 0.98909 -0.01700
H 	H 	0.77806 0.45742 0.92177 0.07300
N 	N 	0.82700 0.56438 0.91388 -0.02600
H 	H 	0.81987 0.56127 0.98089 0.09200
O 	O 	0.73621 0.49677 0.12208 -0.08700
O 	O 	0.72228 0.54392 0.09273 -0.07700
O 	O 	0.88904 0.52512 0.02330 -0.07000
O 	O 	0.86704 0.47714 0.00095 -0.06700
O 	O 	0.81370 0.59470 0.91553 -0.07500
O 	O 	0.85557 0.55978 0.89773 -0.08100
O 	O 	0.74273 0.44267 0.98452 -0.07500
O 	O 	0.79422 0.43615 0.00893 -0.06900
C 	C 	0.78580 0.33747 0.38628 -0.06800
C 	C 	0.81776 0.34029 0.37058 0.02800
C 	C 	0.84516 0.31995 0.38192 0.06700
C 	C 	0.83992 0.29622 0.40806 -0.00200
C 	C 	0.80756 0.29252 0.42281 -0.07600
C 	C 	0.78041 0.31335 0.41186 0.13100
C 	C 	0.82169 0.36320 0.34104 0.03100
N 	N 	0.87819 0.32304 0.36673 -0.01800
H 	H 	0.86085 0.28019 0.41638 0.06900
N 	N 	0.74688 0.30879 0.42537 -0.02500
H 	H 	0.76473 0.35316 0.37769 0.09100
C 	C 	0.80603 0.35511 0.30985 0.06500
C 	C 	0.80497 0.37940 0.28385 0.00100
C 	C 	0.81963 0.41173 0.28848 -0.08600
C 	C 	0.83747 0.41891 0.31880 0.12800
C 	C 	0.83804 0.39474 0.34505 -0.07000
N 	N 	0.79021 0.32256 0.30492 -0.01700
H 	H 	0.79174 0.37346 0.26042 0.08000
N 	N 	0.85531 0.45051 0.32287 -0.02200
H 	H 	0.85080 0.40069 0.36873 0.09300
O 	O 	0.73392 0.33171 0.44542 -0.07800
O 	O 	0.72815 0.28344 0.41511 -0.06400
O 	O 	0.90452 0.33036 0.38545 -0.07500
O 	O 	0.88237 0.31596 0.33475 -0.06700
O 	O 	0.85036 0.46896 0.34986 -0.07800
O 	O 	0.87823 0.45965 0.30080 -0.07700
O 	O 	0.75864 0.32079 0.29491 -0.06500
O 	O 	0.80788 0.29476 0.30868 -0.06300
C 	C 	0.65350 0.41056 0.19068 -0.06700
C 	C 	0.65937 0.37840 0.17635 0.02800
C 	C 	0.69116 0.37132 0.16115 0.07000
C 	C 	0.71820 0.39433 0.16515 0.00100
C 	C 	0.71338 0.42477 0.18323 -0.07300
C 	C 	0.68026 0.43403 0.19365 0.12600
C 	C 	0.63488 0.35056 0.18286 0.03000
N 	N 	0.69644 0.34008 0.14304 -0.01600
H 	H 	0.74326 0.38782 0.15549 0.07800
N 	N 	0.67364 0.46743 0.20664 -0.02600
H 	H 	0.62855 0.41679 0.20080 0.08800
C 	C 	0.64284 0.32465 0.20635 0.06600
C 	C 	0.62015 0.29765 0.21126 0.00200
C 	C 	0.58894 0.29672 0.19390 -0.08000
C 	C 	0.58060 0.32293 0.17085 0.12600
C 	C 	0.60366 0.34975 0.16546 -0.06900
N 	N 	0.67378 0.32601 0.22568 -0.01600
H 	H 	0.62632 0.27788 0.22947 0.07200
N 	N 	0.54905 0.32213 0.15253 -0.02400
H 	H 	0.59749 0.36967 0.14741 0.09100
O 	O 	0.67813 0.49393 0.18732 -0.07100
O 	O 	0.66042 0.47114 0.23669 -0.07600
O 	O 	0.67497 0.33068 0.11967 -0.07200
O 	O 	0.72342 0.32171 0.14898 -0.06700
O 	O 	0.52874 0.34834 0.15323 -0.07700
O 	O 	0.54165 0.29611 0.13345 -0.08900
O 	O 	0.67961 0.35168 0.24575 -0.07700
O 	O 	0.69467 0.30025 0.22541 -0.06300
C 	C 	0.63743 0.68602 0.17408 -0.06800
C 	C 	0.63121 0.65491 0.19044 0.03300
C 	C 	0.59895 0.64865 0.20498 0.06400
C 	C 	0.57455 0.67471 0.20600 0.00300
C 	C 	0.58167 0.70681 0.19181 -0.07900
C 	C 	0.61249 0.71162 0.17381 0.13300
C 	C 	0.65955 0.63053 0.19554 0.02800
N 	N 	0.59117 0.61603 0.21937 -0.01700
H 	H 	0.55041 0.67021 0.21862 0.07700
N 	N 	0.61808 0.74195 0.15441 -0.02400
H 	H 	0.66177 0.69046 0.16178 0.09500
C 	C 	0.67403 0.61288 0.16785 0.07100
C 	C 	0.70109 0.59016 0.17338 -0.00300
C 	C 	0.71312 0.58414 0.20631 -0.06900
C 	C 	0.69842 0.60153 0.23400 0.13200
C 	C 	0.67224 0.62509 0.22838 -0.06500
N 	N 	0.66102 0.61760 0.13422 -0.01700
H 	H 	0.71229 0.57671 0.15212 0.08200
N 	N 	0.70966 0.59490 0.26794 -0.02200
H 	H 	0.66126 0.63870 0.24968 0.09300
O 	O 	0.64519 0.76033 0.15972 -0.07000
O 	O 	0.59764 0.74960 0.12955 -0.07500
O 	O 	0.57911 0.61396 0.25005 -0.07700
O 	O 	0.59462 0.58853 0.20124 -0.06400
O 	O 	0.70336 0.56553 0.28191 -0.07400
O 	O 	0.72170 0.61963 0.28637 -0.07100
O 	O 	0.68153 0.62627 0.10975 -0.07000
O 	O 	0.62925 0.61073 0.12754 -0.06200
C 	C 	0.82211 0.63723 0.31954 -0.06600
C 	C 	0.83183 0.62624 0.35204 0.03100
C 	C 	0.83887 0.59140 0.35766 0.06500
C 	C 	0.83341 0.56773 0.33154 0.00300
C 	C 	0.82263 0.57869 0.29943 -0.08300
C 	C 	0.81849 0.61377 0.29301 0.13100
C 	C 	0.83166 0.65085 0.38060 0.03100
N 	N 	0.85160 0.58002 0.38981 -0.01700
H 	H 	0.83751 0.54082 0.33624 0.08000
N 	N 	0.81092 0.62570 0.25949 -0.02300
H 	H 	0.81720 0.66402 0.31492 0.09300
C 	C 	0.85188 0.68057 0.37934 0.06200
C 	C 	0.84587 0.70708 0.40245 -0.00200
C 	C 	0.82079 0.70365 0.42774 -0.07600
C 	C 	0.80405 0.67202 0.43171 0.12600
C 	C 	0.80852 0.64639 0.40738 -0.06700
N 	N 	0.87826 0.68403 0.35441 -0.01700
H 	H 	0.86024 0.73057 0.40021 0.07600
N 	N 	0.78356 0.66540 0.46103 -0.02400
H 	H 	0.79381 0.62307 0.40921 0.09400
O 	O 	0.78470 0.64536 0.25442 -0.07000
O 	O 	0.83250 0.62041 0.23497 -0.09700
O 	O 	0.83713 0.55452 0.40523 -0.07200
O 	O 	0.87889 0.59379 0.40267 -0.06500
O 	O 	0.75194 0.65600 0.45751 -0.07900
O 	O 	0.79737 0.66574 0.49105 -0.07600
O 	O 	0.88004 0.71144 0.33593 -0.07900
O 	O 	0.90143 0.66050 0.35129 -0.06800
C 	C 	0.97170 0.50191 0.17697 -0.06900
C 	C 	0.98771 0.50133 0.20877 0.02800
C 	C 	0.96784 0.50191 0.23860 0.06700
C 	C 	0.93218 0.50281 0.23623 0.00300
C 	C 	0.91621 0.50265 0.20441 -0.08500
C 	C 	0.93609 0.50208 0.17463 0.13100
C 	C 	0.02530 0.50000 0.21061 0.03200
N 	N 	0.98377 0.50142 0.27130 -0.01700
H 	H 	0.91692 0.50340 0.25916 0.08100
N 	N 	0.92018 0.50033 0.14202 -0.02400
H 	H 	0.98694 0.50145 0.15401 0.09100
C 	C 	0.04297 0.47014 0.20134 0.06300
C 	C 	0.07866 0.47027 0.20017 0.00600
C 	C 	0.09700 0.49981 0.20861 -0.08400
C 	C 	0.07929 0.52921 0.21927 0.13300
C 	C 	0.04358 0.52928 0.21977 -0.07000
N 	N 	0.02469 0.43974 0.19273 -0.01700
H 	H 	0.09211 0.44746 0.19228 0.06900
N 	N 	0.09747 0.55867 0.23053 -0.02600
H 	H 	0.03003 0.55214 0.22735 0.09300
O 	O 	0.92456 0.52487 0.12026 -0.07500
O 	O 	0.90415 0.47279 0.13289 -0.08000
O 	O 	0.97714 0.52535 0.29318 -0.07000
O 	O 	0.00290 0.47581 0.28008 -0.06300
O 	O 	0.11298 0.55824 0.25970 -0.06400
O 	O 	0.09509 0.58703 0.21361 -0.06900
O 	O 	0.03015 0.42483 0.16374 -0.07700
O 	O 	0.00414 0.42584 0.21465 -0.06700
C 	C 	0.23665 0.50490 0.04219 -0.06800
C 	C 	0.20730 0.50753 0.02200 0.03000
C 	C 	0.17493 0.50980 0.03746 0.06700
C 	C 	0.17239 0.51041 0.07287 0.00200
C 	C 	0.20175 0.50806 0.09301 -0.08100
C 	C 	0.23402 0.50511 0.07762 0.12400
C 	C 	0.21055 0.50759 0.98471 0.03100
N 	N 	0.14459 0.51119 0.01724 -0.01600
H 	H 	0.14750 0.51229 0.08474 0.07600
N 	N 	0.26404 0.50116 0.09789 -0.02700
H 	H 	0.26153 0.50278 0.03035 0.09000
C 	C 	0.20401 0.53743 0.96587 0.07000
C 	C 	0.20270 0.53585 0.93039 0.00900
C 	C 	0.20881 0.50494 0.91349 -0.07800
C 	C 	0.21767 0.47575 0.93234 0.13400
C 	C 	0.21807 0.47710 0.96780 -0.06900
N 	N 	0.19835 0.56928 0.98274 -0.01500
H 	H 	0.19661 0.55860 0.91601 0.07900
N 	N 	0.22764 0.44510 0.91554 -0.02600
H 	H 	0.22395 0.45432 0.98223 0.08900
O 	O 	0.27559 0.52670 0.11551 -0.08400
O 	O 	0.28099 0.47267 0.09711 -0.07700
O 	O 	0.13737 0.48639 0.99653 -0.07100
O 	O 	0.12291 0.53592 0.02146 -0.06400
O 	O 	0.25834 0.44226 0.90336 -0.06600
O 	O 	0.20744 0.41882 0.91576 -0.06500
O 	O 	0.22105 0.58116 0.00372 -0.07000
O 	O 	0.17161 0.58748 0.97539 -0.06300
C 	C 	0.35502 0.40012 0.17611 -0.06800
C 	C 	0.34643 0.36656 0.16731 0.03100
C 	C 	0.31260 0.35882 0.15788 0.06300
C 	C 	0.28709 0.38362 0.16132 0.00100
C 	C 	0.29514 0.41612 0.17380 -0.07600
C 	C 	0.32959 0.42506 0.17894 0.12600
C 	C 	0.37113 0.33885 0.17383 0.02900
N 	N 	0.30382 0.32531 0.14635 -0.01700
H 	H 	0.26077 0.37700 0.15603 0.07400
N 	N 	0.33874 0.45939 0.18724 -0.02600
H 	H 	0.38126 0.40651 0.18205 0.09300
C 	C 	0.40042 0.33486 0.15339 0.06700
C 	C 	0.42437 0.30948 0.16133 -0.00100
C 	C 	0.41926 0.28809 0.18938 -0.08000
C 	C 	0.38965 0.29169 0.20933 0.13000
C 	C 	0.36599 0.31721 0.20169 -0.06900
N 	N 	0.40603 0.35661 0.12474 -0.01800
H 	H 	0.44700 0.30655 0.14578 0.07500
N 	N 	0.38321 0.26897 0.23701 -0.02400
H 	H 	0.34347 0.32018 0.21740 0.09200
O 	O 	0.35776 0.46557 0.21358 -0.07500
O 	O 	0.32985 0.48425 0.16725 -0.06800
O 	O 	0.27815 0.30922 0.15983 -0.07600
O 	O 	0.32069 0.31138 0.12153 -0.06600
O 	O 	0.38326 0.28042 0.26798 -0.07000
O 	O 	0.37448 0.23756 0.23105 -0.06500
O 	O 	0.43473 0.37297 0.12169 -0.06900
O 	O 	0.38346 0.35824 0.10059 -0.06300
C 	C 	0.16533 0.39336 0.33730 -0.06900
C 	C 	0.18594 0.36420 0.33924 0.03100
C 	C 	0.21127 0.35850 0.31445 0.06100
C 	C 	0.21535 0.38169 0.28782 0.00300
C 	C 	0.19535 0.41125 0.28631 -0.09000
C 	C 	0.17009 0.41707 0.31111 0.13100
C 	C 	0.18118 0.33969 0.36729 0.02800
N 	N 	0.23344 0.32958 0.31675 -0.01700
H 	H 	0.23505 0.37737 0.26898 0.07200
N 	N 	0.14914 0.44691 0.30968 -0.02500
H 	H 	0.14569 0.39768 0.35619 0.09500
C 	C 	0.19208 0.34783 0.40039 0.06700
C 	C 	0.19446 0.32215 0.42493 -0.00100
C 	C 	0.18731 0.28817 0.41642 -0.07500
C 	C 	0.17425 0.28045 0.38389 0.13300
C 	C 	0.17017 0.30650 0.35997 -0.06700
N 	N 	0.20235 0.38181 0.40870 -0.01800
H 	H 	0.20382 0.32832 0.45009 0.07000
N 	N 	0.16772 0.24594 0.37414 -0.02200
H 	H 	0.16107 0.30035 0.33472 0.09200
O 	O 	0.14857 0.46800 0.33514 -0.06700
O 	O 	0.12888 0.45176 0.28398 -0.07200
O 	O 	0.23525 0.30805 0.29172 -0.07300
O 	O 	0.25357 0.32611 0.34278 -0.07100
O 	O 	0.19306 0.22502 0.36961 -0.07400
O 	O 	0.13710 0.23689 0.36517 -0.06100
O 	O 	0.18567 0.39895 0.43156 -0.07200
O 	O 	0.23001 0.39451 0.39554 -0.07200
C 	C 	0.40287 0.65905 0.16112 -0.07100
C 	C 	0.37103 0.66072 0.17728 0.03400
C 	C 	0.36245 0.68973 0.19659 0.06200
C 	C 	0.38659 0.71553 0.20147 0.00500
C 	C 	0.41921 0.71273 0.18724 -0.09000
C 	C 	0.42709 0.68484 0.16613 0.13300
C 	C 	0.34986 0.62974 0.17959 0.02700
N 	N 	0.32989 0.69211 0.21289 -0.01700
H 	H 	0.38024 0.73738 0.21706 0.06700
N 	N 	0.46017 0.68179 0.15105 -0.02500
H 	H 	0.40952 0.63680 0.14621 0.09500
C 	C 	0.32279 0.62415 0.15671 0.07300
C 	C 	0.29884 0.59846 0.16343 0.00000
C 	C 	0.30199 0.57804 0.19250 -0.06800
C 	C 	0.33006 0.58271 0.21446 0.13200
C 	C 	0.35412 0.60802 0.20747 -0.06700
N 	N 	0.31899 0.64514 0.12720 -0.01600
H 	H 	0.27753 0.59471 0.14628 0.08000
N 	N 	0.33290 0.56345 0.24515 -0.02400
H 	H 	0.37508 0.61219 0.22496 0.08900
O 	O 	0.46308 0.67948 0.11825 -0.06000
O 	O 	0.48684 0.67725 0.17016 -0.07600
O 	O 	0.30214 0.69262 0.19481 -0.06200
O 	O 	0.32814 0.69626 0.24560 -0.06600
O 	O 	0.31245 0.56970 0.27039 -0.07000
O 	O 	0.35805 0.54220 0.24908 -0.06800
O 	O 	0.34379 0.64760 0.10541 -0.07100
O 	O 	0.28987 0.65970 0.12083 -0.06200
C 	C 	0.18390 0.63208 0.31544 -0.06600
C 	C 	0.19676 0.62583 0.34803 0.03100
C 	C 	0.21120 0.59383 0.35568 0.06600
C 	C 	0.21343 0.56884 0.33041 0.00700
C 	C 	0.20265 0.57589 0.29718 -0.07900
C 	C 	0.18786 0.60787 0.28967 0.13500
C 	C 	0.19725 0.65370 0.37325 0.02900
N 	N 	0.22457 0.58700 0.38879 -0.01700
H 	H 	0.22467 0.54431 0.33636 0.07700
N 	N 	0.17934 0.61688 0.25551 -0.02600
H 	H 	0.17265 0.65663 0.30958 0.09500
C 	C 	0.21766 0.68281 0.36794 0.06600
C 	C 	0.21699 0.70948 0.39148 -0.00000
C 	C 	0.19733 0.70688 0.42112 -0.07500
C 	C 	0.17744 0.67741 0.42679 0.12900
C 	C 	0.17692 0.65139 0.40242 -0.06600
N 	N 	0.23972 0.68499 0.33904 -0.01800
H 	H 	0.23291 0.73171 0.38736 0.08200
N 	N 	0.15772 0.67374 0.45710 -0.02400
H 	H 	0.16117 0.62906 0.40652 0.09500
O 	O 	0.20346 0.62057 0.23315 -0.08300
O 	O 	0.14866 0.62733 0.24846 -0.06400
O 	O 	0.21257 0.56173 0.40650 -0.07100
O 	O 	0.25051 0.60429 0.40010 -0.06900
O 	O 	0.17303 0.66773 0.48576 -0.06200
O 	O 	0.12487 0.66959 0.45489 -0.05900
O 	O 	0.23768 0.71102 0.31870 -0.06400
O 	O 	0.26357 0.66237 0.33457 -0.06300
