data_crystal

_cell_length_a 34.56883
_cell_length_b 33.48629
_cell_length_c 28.58109
_cell_angle_alpha 90.94851
_cell_angle_beta  88.91255
_cell_angle_gamma 90.07514

_symmetry_space_group_name_	'P 1'
_symmetry_space_group_name_H-M	'P 1'

loop_
_symmetry_equiv_pos_as_xyz
  x,y,z

loop_
_atom_site_label
_atom_site_type_symbol
_atom_site_fract_x
_atom_site_fract_y
_atom_site_fract_z
_atom_site_charge
Cd	Cd	0.87905 0.95800 0.26581 1.24400
Cd	Cd	0.91880 0.01561 0.35718 1.17900
O 	O 	0.81975 0.91988 0.28311 -0.32700
O 	O 	0.84634 0.91949 0.21311 -0.33500
C 	C 	0.82085 0.90368 0.24151 0.29200
O 	O 	0.92700 0.99218 0.23110 -0.38200
O 	O 	0.96110 0.00128 0.29873 -0.41000
C 	C 	0.95755 0.00615 0.25336 0.30300
C 	C 	0.84610 0.03335 0.28950 0.30200
O 	O 	0.90701 0.94726 0.35077 -0.44300
O 	O 	0.83305 0.02059 0.24927 -0.29200
O 	O 	0.86590 0.00766 0.31245 -0.54300
C 	C 	0.92985 0.92059 0.33099 0.30000
O 	O 	0.92371 0.91212 0.28722 -0.35400
Cd	Cd	0.91927 0.97489 0.09164 1.24300
Cd	Cd	0.93207 0.04315 0.99726 1.17900
O 	O 	0.88043 0.91536 0.07447 -0.31000
O 	O 	0.91174 0.92142 0.14022 -0.33900
C 	C 	0.88997 0.89923 0.11352 0.29900
O 	O 	0.96358 0.01868 0.11725 -0.36600
O 	O 	0.94283 0.06706 0.06869 -0.41500
C 	C 	0.97025 0.05186 0.09396 0.28600
C 	C 	0.97560 0.95651 0.02017 0.30300
O 	O 	0.87766 0.01774 0.03547 -0.43900
O 	O 	0.97808 0.93328 0.05610 -0.29400
O 	O 	0.94529 0.97955 0.02077 -0.51400
C 	C 	0.85926 0.03245 0.07220 0.29600
O 	O 	0.86931 0.01783 0.11227 -0.34100
C 	C 	0.92849 0.70178 0.89867 0.14400
N 	N 	0.90777 0.69615 0.85909 -0.14200
C 	C 	0.92639 0.68909 0.81744 0.13200
N 	N 	0.96557 0.68666 0.81566 -0.14100
C 	C 	0.98620 0.69164 0.85518 0.12900
N 	N 	0.96770 0.69935 0.89659 -0.14300
C 	C 	0.86268 0.68193 0.40325 0.14200
N 	N 	0.85635 0.68102 0.45032 -0.13400
C 	C 	0.88408 0.66690 0.47870 0.13200
N 	N 	0.91731 0.65164 0.45973 -0.14300
C 	C 	0.92396 0.65267 0.41281 0.13200
N 	N 	0.89668 0.66804 0.38466 -0.14000
Cd	Cd	0.80921 0.06061 0.71864 1.24200
Cd	Cd	0.88729 0.05061 0.79665 1.16900
O 	O 	0.76724 0.11919 0.72967 -0.31300
O 	O 	0.75879 0.07681 0.67152 -0.34200
C 	C 	0.74673 0.10881 0.69388 0.29500
O 	O 	0.84422 0.01096 0.68636 -0.37300
O 	O 	0.87474 0.99526 0.75402 -0.41500
C 	C 	0.87333 0.99418 0.70796 0.29000
C 	C 	0.87579 0.11047 0.70800 0.30300
O 	O 	0.82050 0.05298 0.80888 -0.45100
O 	O 	0.85455 0.11042 0.67070 -0.28300
O 	O 	0.86094 0.09141 0.74305 -0.53900
C 	C 	0.79595 0.02340 0.80854 0.29700
O 	O 	0.77876 0.01669 0.76892 -0.35200
Cd	Cd	0.99360 0.21096 0.56556 1.24100
Cd	Cd	0.05411 0.24451 0.47315 1.18500
O 	O 	0.93475 0.24881 0.58797 -0.30900
O 	O 	0.94669 0.18979 0.61570 -0.35500
C 	C 	0.92107 0.21763 0.60937 0.29700
O 	O 	0.03159 0.15900 0.54753 -0.37900
O 	O 	0.08092 0.19552 0.51483 -0.41400
C 	C 	0.06526 0.16074 0.52494 0.29700
C 	C 	0.96837 0.20290 0.47184 0.30800
O 	O 	0.03910 0.27170 0.54675 -0.43800
O 	O 	0.94818 0.18053 0.50005 -0.29500
O 	O 	0.99205 0.22764 0.49168 -0.53600
C 	C 	0.05737 0.26476 0.58533 0.30200
O 	O 	0.04087 0.23874 0.61289 -0.34900
C 	C 	0.59289 0.12593 0.93624 0.14600
N 	N 	0.57904 0.08803 0.93805 -0.14200
C 	C 	0.57399 0.06990 0.97978 0.13500
N 	N 	0.58156 0.09020 0.02005 -0.14200
C 	C 	0.59621 0.12785 0.01859 0.13600
N 	N 	0.60174 0.14579 0.97658 -0.13500
C 	C 	0.72770 0.11862 0.40192 0.14500
N 	N 	0.72019 0.13626 0.36049 -0.13800
C 	C 	0.70709 0.11399 0.32387 0.13400
N 	N 	0.70063 0.07431 0.32907 -0.14300
C 	C 	0.70840 0.05655 0.37014 0.13400
N 	N 	0.72158 0.07876 0.40669 -0.13900
Cd	Cd	0.26432 0.21330 0.25957 1.24300
Cd	Cd	0.26553 0.14099 0.34843 1.17700
O 	O 	0.31630 0.26361 0.25081 -0.30000
O 	O 	0.26884 0.25855 0.20140 -0.34900
C 	C 	0.29892 0.27869 0.21513 0.29500
O 	O 	0.21490 0.17294 0.24266 -0.37400
O 	O 	0.20691 0.14845 0.31673 -0.41400
C 	C 	0.19890 0.14714 0.27174 0.29500
C 	C 	0.31263 0.14476 0.24805 0.30500
O 	O 	0.26560 0.21051 0.35213 -0.43800
O 	O 	0.30915 0.16323 0.20838 -0.28000
O 	O 	0.29834 0.16360 0.28438 -0.53100
C 	C 	0.23575 0.23443 0.35286 0.29200
O 	O 	0.22587 0.24825 0.31240 -0.34700
Cd	Cd	0.18137 0.23641 0.81732 1.24300
Cd	Cd	0.12013 0.16593 0.76103 1.18600
O 	O 	0.20172 0.29719 0.77574 -0.31400
O 	O 	0.21626 0.28745 0.84941 -0.33700
C 	C 	0.21889 0.31021 0.81307 0.29400
O 	O 	0.16420 0.19493 0.87427 -0.37200
O 	O 	0.14800 0.14262 0.82576 -0.41600
C 	C 	0.14613 0.16064 0.86711 0.29600
C 	C 	0.10107 0.25297 0.81008 0.30600
O 	O 	0.18157 0.18961 0.74213 -0.44000
O 	O 	0.11680 0.27730 0.84046 -0.28200
O 	O 	0.12476 0.23065 0.78584 -0.53200
C 	C 	0.21437 0.17530 0.75594 0.29100
O 	O 	0.22981 0.19316 0.79196 -0.34200
C 	C 	0.30161 0.58331 0.76317 0.14500
N 	N 	0.27048 0.60218 0.78272 -0.14300
C 	C 	0.25916 0.63809 0.76676 0.13400
N 	N 	0.28019 0.65617 0.73252 -0.14100
C 	C 	0.31041 0.63675 0.71115 0.13300
N 	N 	0.32148 0.60060 0.72740 -0.13800
C 	C 	0.25449 0.54797 0.32581 0.14400
N 	N 	0.27403 0.56334 0.36279 -0.14400
C 	C 	0.25711 0.59113 0.39156 0.13500
N 	N 	0.22098 0.60440 0.38245 -0.14000
C 	C 	0.20081 0.58826 0.34651 0.13200
N 	N 	0.21768 0.56013 0.31810 -0.13500
Cd	Cd	0.21555 0.86987 0.70307 1.24200
Cd	Cd	0.19917 0.97279 0.73424 1.18500
O 	O 	0.27160 0.83799 0.73837 -0.31700
O 	O 	0.22998 0.80304 0.69732 -0.34600
C 	C 	0.26150 0.80336 0.72159 0.29200
O 	O 	0.15723 0.88258 0.67392 -0.36700
O 	O 	0.16395 0.95064 0.67400 -0.40900
C 	C 	0.14167 0.91871 0.67529 0.29300
C 	C 	0.17866 0.89074 0.78980 0.31200
O 	O 	0.25056 0.93874 0.69863 -0.43600
O 	O 	0.17679 0.85217 0.78197 -0.29300
O 	O 	0.20203 0.90981 0.76227 -0.52600
C 	C 	0.25650 0.93259 0.65406 0.29700
O 	O 	0.24613 0.89764 0.63756 -0.34100
Cd	Cd	0.22828 0.81862 0.41646 1.24200
Cd	Cd	0.16820 0.86070 0.32958 1.18800
O 	O 	0.27714 0.76854 0.39209 -0.31500
O 	O 	0.27363 0.79228 0.46409 -0.35400
C 	C 	0.29114 0.76853 0.43402 0.29300
O 	O 	0.19826 0.86848 0.45513 -0.36600
O 	O 	0.14846 0.87218 0.40398 -0.39500
C 	C 	0.17006 0.88894 0.43630 0.29200
C 	C 	0.25838 0.87994 0.35768 0.30500
O 	O 	0.17612 0.79619 0.35555 -0.44700
O 	O 	0.28113 0.87323 0.39268 -0.28100
O 	O 	0.23081 0.85407 0.35187 -0.52900
C 	C 	0.15699 0.77944 0.38983 0.29700
O 	O 	0.17534 0.77753 0.42924 -0.34800
C 	C 	0.44799 0.73423 0.93238 0.13900
N 	N 	0.46325 0.77155 0.93019 -0.14300
C 	C 	0.49333 0.78208 0.95743 0.13100
N 	N 	0.50920 0.75480 0.98577 -0.14300
C 	C 	0.49416 0.71739 0.98834 0.12600
N 	N 	0.46319 0.70720 0.96193 -0.13600
C 	C 	0.56071 0.74184 0.37800 0.13800
N 	N 	0.55708 0.72160 0.33677 -0.14400
C 	C 	0.58101 0.72964 0.29996 0.13000
N 	N 	0.60979 0.75692 0.30509 -0.14000
C 	C 	0.61389 0.77702 0.34639 0.13000
N 	N 	0.58980 0.76877 0.38306 -0.13500
C 	C 	0.50698 0.69096 0.02571 -0.04400
C 	C 	0.54694 0.68609 0.03350 0.10800
C 	C 	0.55973 0.68045 0.07925 -0.08500
C 	C 	0.53292 0.67796 0.11650 -0.00500
C 	C 	0.49318 0.67367 0.10668 0.07400
C 	C 	0.48039 0.68057 0.06115 -0.05300
N 	N 	0.57303 0.68808 0.99746 -0.20200
H 	H 	0.59044 0.68091 0.08629 0.06000
C 	C 	0.54512 0.69030 0.16400 -0.00300
N 	N 	0.46722 0.66431 0.14109 -0.19400
H 	H 	0.44964 0.68137 0.05443 0.05500
C 	C 	0.53694 0.72932 0.17966 -0.08300
C 	C 	0.54836 0.74273 0.22400 0.10400
C 	C 	0.56966 0.71691 0.25265 -0.04700
C 	C 	0.57819 0.67795 0.23692 -0.05100
C 	C 	0.56578 0.66418 0.19291 0.07200
H 	H 	0.52123 0.74926 0.15731 0.05800
N 	N 	0.53831 0.78016 0.23909 -0.19900
H 	H 	0.59405 0.65810 0.25920 0.05100
N 	N 	0.57327 0.62585 0.17905 -0.19400
H 	H 	0.52330 0.79920 0.21723 0.08900
H 	H 	0.54442 0.79049 0.27279 0.09400
H 	H 	0.58894 0.60695 0.20040 0.08900
H 	H 	0.56313 0.61423 0.14746 0.09200
H 	H 	0.43768 0.66272 0.13413 0.08900
H 	H 	0.47633 0.65714 0.17457 0.09200
H 	H 	0.56396 0.69010 0.96291 0.09700
H 	H 	0.60268 0.68608 0.00356 0.09400
C 	C 	0.38995 0.72358 0.41138 -0.11500
C 	C 	0.40974 0.73758 0.45074 0.00800
C 	C 	0.38884 0.75500 0.48850 0.11600
C 	C 	0.34915 0.76237 0.48446 -0.03700
C 	C 	0.33006 0.75206 0.44292 -0.11000
C 	C 	0.35017 0.72992 0.40776 0.19100
C 	C 	0.45242 0.73936 0.44898 -0.00500
O 	O 	0.40749 0.76662 0.52841 -0.26800
H 	H 	0.33362 0.77740 0.51292 0.06900
O 	O 	0.33089 0.71367 0.37047 -0.28600
H 	H 	0.40565 0.70866 0.38295 0.07700
C 	C 	0.47418 0.70398 0.44440 0.13000
C 	C 	0.51188 0.70526 0.42565 -0.06500
C 	C 	0.52815 0.74177 0.41198 -0.05900
C 	C 	0.50822 0.77759 0.42272 0.16400
C 	C 	0.47064 0.77622 0.44166 -0.09600
O 	O 	0.45760 0.66788 0.45468 -0.28500
H 	H 	0.52749 0.67764 0.41894 0.06500
O 	O 	0.52461 0.81383 0.41242 -0.27700
H 	H 	0.45451 0.80372 0.44684 0.08200
H 	H 	0.33472 0.73281 0.34466 0.16200
H 	H 	0.46282 0.66373 0.48825 0.14500
H 	H 	0.51657 0.81964 0.38009 0.14800
H 	H 	0.40613 0.74314 0.54909 0.14500
C 	C 	0.28446 0.73062 0.81289 -0.10600
C 	C 	0.32447 0.72739 0.80445 0.00900
C 	C 	0.33971 0.73771 0.76019 0.12500
C 	C 	0.31617 0.75680 0.72810 -0.03600
C 	C 	0.27793 0.76681 0.74050 -0.10900
C 	C 	0.26120 0.75060 0.78121 0.19600
C 	C 	0.35070 0.72287 0.84445 -0.00800
O 	O 	0.37803 0.73116 0.74925 -0.27800
H 	H 	0.32876 0.76739 0.69556 0.05800
O 	O 	0.22273 0.75668 0.79167 -0.29100
H 	H 	0.27215 0.72134 0.84610 0.06900
C 	C 	0.35118 0.75227 0.88032 0.12900
C 	C 	0.38117 0.75299 0.91236 -0.06400
C 	C 	0.41165 0.72552 0.90816 -0.05900
C 	C 	0.40962 0.69416 0.87484 0.16300
C 	C 	0.37869 0.69246 0.84372 -0.09600
O 	O 	0.32424 0.78235 0.88159 -0.27200
H 	H 	0.38207 0.77662 0.93871 0.06500
O 	O 	0.43821 0.66581 0.87183 -0.28000
H 	H 	0.37774 0.66889 0.81731 0.07800
H 	H 	0.22172 0.78143 0.81122 0.16100
H 	H 	0.30353 0.77316 0.90337 0.14500
H 	H 	0.45754 0.67632 0.84907 0.15000
H 	H 	0.39167 0.75580 0.75944 0.15300
C 	C 	0.27498 0.60164 0.43657 -0.04700
C 	C 	0.25499 0.59521 0.47949 0.10600
C 	C 	0.26992 0.61119 0.52102 -0.08200
C 	C 	0.30604 0.63028 0.52113 -0.00300
C 	C 	0.32781 0.63328 0.47886 0.07600
C 	C 	0.31166 0.61962 0.43672 -0.04800
N 	N 	0.22245 0.57234 0.48129 -0.19800
H 	H 	0.25398 0.60754 0.55374 0.06000
C 	C 	0.32110 0.64541 0.56628 -0.00500
N 	N 	0.36426 0.64854 0.47851 -0.19400
H 	H 	0.32745 0.62352 0.40396 0.06100
C 	C 	0.34841 0.62259 0.58976 -0.08500
C 	C 	0.35199 0.62679 0.63844 0.10800
C 	C 	0.32430 0.64975 0.66409 -0.04400
C 	C 	0.30273 0.67816 0.63991 -0.05500
C 	C 	0.30172 0.67667 0.59080 0.07600
H 	H 	0.36590 0.60082 0.57048 0.05900
N 	N 	0.38268 0.61039 0.66000 -0.19800
H 	H 	0.28467 0.69943 0.65912 0.06100
N 	N 	0.28136 0.70447 0.56748 -0.19500
H 	H 	0.40190 0.59172 0.64137 0.09000
H 	H 	0.38919 0.61841 0.69445 0.10100
H 	H 	0.26598 0.72677 0.58582 0.09700
H 	H 	0.28196 0.70509 0.53094 0.09800
H 	H 	0.38150 0.64665 0.44815 0.10300
H 	H 	0.37579 0.66244 0.50808 0.09200
H 	H 	0.21408 0.55480 0.45268 0.09700
H 	H 	0.20658 0.56978 0.51260 0.09200
C 	C 	0.26078 0.12208 0.65103 -0.03900
C 	C 	0.26519 0.08344 0.66894 0.01400
C 	C 	0.26015 0.07731 0.71749 -0.05000
C 	C 	0.24512 0.10813 0.74658 0.01000
C 	C 	0.23605 0.14540 0.72740 -0.09000
C 	C 	0.24556 0.15298 0.68004 0.02100
C 	C 	0.26967 0.04839 0.63641 0.01500
C 	C 	0.27068 0.03944 0.73754 0.03800
C 	C 	0.23954 0.19241 0.66126 0.08700
C 	C 	0.30437 0.02631 0.63572 -0.03900
C 	C 	0.30269 0.98449 0.62915 0.02400
C 	C 	0.26646 0.96605 0.62349 -0.08800
C 	C 	0.23603 0.98944 0.60730 0.00500
C 	C 	0.23651 0.03096 0.61639 -0.05400
C 	C 	0.34071 0.04604 0.64530 0.10500
C 	C 	0.20283 0.97024 0.58674 0.08600
C 	C 	0.33704 0.96026 0.63329 0.08900
C 	C 	0.20235 0.05491 0.60929 0.08300
C 	C 	0.27182 0.12990 0.60287 0.10600
C 	C 	0.23755 0.10099 0.79586 0.06400
N 	N 	0.36451 0.94086 0.63661 -0.10100
N 	N 	0.36975 0.06186 0.65299 -0.10700
N 	N 	0.17632 0.95438 0.57074 -0.09600
N 	N 	0.17524 0.07437 0.60379 -0.11900
N 	N 	0.27924 0.00935 0.75374 -0.14000
N 	N 	0.23150 0.09526 0.83515 -0.09900
N 	N 	0.23468 0.22389 0.64633 -0.10000
N 	N 	0.28070 0.13608 0.56442 -0.11100
C 	C 	0.30559 0.47174 0.75124 -0.10000
C 	C 	0.29564 0.46134 0.79724 -0.00400
C 	C 	0.29790 0.49025 0.83329 0.13700
C 	C 	0.30546 0.53013 0.82238 -0.06300
C 	C 	0.30942 0.54153 0.77546 -0.06000
C 	C 	0.31234 0.51173 0.74012 0.16500
C 	C 	0.27527 0.42339 0.80563 0.00700
O 	O 	0.29120 0.47985 0.87897 -0.27300
H 	H 	0.30514 0.55264 0.85007 0.06600
O 	O 	0.31804 0.52195 0.69422 -0.28100
H 	H 	0.30504 0.44930 0.72349 0.07300
C 	C 	0.23575 0.41986 0.79541 0.12000
C 	C 	0.21702 0.38311 0.80013 -0.03300
C 	C 	0.23745 0.34962 0.81486 -0.10600
C 	C 	0.27667 0.35341 0.82666 0.19100
C 	C 	0.29542 0.39034 0.82215 -0.10700
O 	O 	0.21530 0.45252 0.78139 -0.27100
H 	H 	0.18671 0.38046 0.79149 0.06900
O 	O 	0.29677 0.32107 0.84220 -0.27600
H 	H 	0.32575 0.39305 0.83060 0.08200
H 	H 	0.34648 0.52130 0.68900 0.15100
H 	H 	0.21743 0.45209 0.74673 0.15200
H 	H 	0.30822 0.30825 0.81363 0.15500
H 	H 	0.26299 0.48345 0.88443 0.15700
C 	C 	0.25730 0.97918 0.29676 -0.04700
C 	C 	0.29586 0.98082 0.28006 0.02300
C 	C 	0.31879 0.94605 0.27953 -0.04300
C 	C 	0.30454 0.91093 0.30042 0.03400
C 	C 	0.26773 0.91095 0.32276 -0.11600
C 	C 	0.24308 0.94421 0.31781 0.02700
C 	C 	0.31316 0.02007 0.26712 0.01700
C 	C 	0.35725 0.94670 0.25845 0.10200
C 	C 	0.20319 0.94273 0.33395 -0.00300
C 	C 	0.32896 0.04502 0.30211 -0.05200
C 	C 	0.33494 0.08588 0.29335 -0.01000
C 	C 	0.32368 0.10184 0.25030 -0.10600
C 	C 	0.31624 0.07531 0.21254 0.02600
C 	C 	0.30923 0.03459 0.22141 -0.04300
C 	C 	0.33748 0.02896 0.34757 0.07800
C 	C 	0.31933 0.08890 0.16476 0.09900
C 	C 	0.35342 0.11123 0.32795 0.02100
C 	C 	0.29684 0.00800 0.18408 0.10200
C 	C 	0.23261 0.01399 0.29352 0.08400
C 	C 	0.32769 0.87483 0.29915 0.07900
N 	N 	0.36815 0.13148 0.35558 -0.11700
N 	N 	0.34424 0.01609 0.38384 -0.10900
N 	N 	0.32185 0.09967 0.12655 -0.09200
N 	N 	0.28693 0.98674 0.15429 -0.10800
N 	N 	0.38795 0.94726 0.24161 -0.11300
N 	N 	0.34615 0.84601 0.29816 -0.10700
N 	N 	0.17112 0.94253 0.34626 -0.15200
N 	N 	0.21296 0.04178 0.29095 -0.13000
C 	C 	0.33354 0.38441 0.22748 -0.10700
C 	C 	0.29797 0.40447 0.22579 0.00800
C 	C 	0.26559 0.38441 0.20768 0.12600
C 	C 	0.26777 0.34352 0.19705 -0.03700
C 	C 	0.30158 0.32206 0.20650 -0.10500
C 	C 	0.33548 0.34327 0.21780 0.19100
C 	C 	0.29286 0.44315 0.25089 -0.00600
O 	O 	0.23133 0.40432 0.20233 -0.26900
H 	H 	0.24210 0.32796 0.18542 0.07400
O 	O 	0.36984 0.32345 0.22255 -0.27500
H 	H 	0.35906 0.40010 0.23938 0.07400
C 	C 	0.29360 0.44473 0.30014 0.12900
C 	C 	0.28245 0.47964 0.32428 -0.06300
C 	C 	0.27033 0.51317 0.29975 -0.06000
C 	C 	0.27139 0.51232 0.25046 0.16500
C 	C 	0.28272 0.47738 0.22621 -0.09500
O 	O 	0.30268 0.41131 0.32479 -0.27000
H 	H 	0.28182 0.48012 0.36222 0.06700
O 	O 	0.26022 0.54512 0.22598 -0.27900
H 	H 	0.28240 0.47649 0.18830 0.08100
H 	H 	0.38244 0.32392 0.19110 0.15400
H 	H 	0.33091 0.41319 0.32999 0.15000
H 	H 	0.28419 0.56096 0.22109 0.14800
H 	H 	0.21699 0.40132 0.23247 0.15600
C 	C 	0.63679 0.81413 0.34754 -0.04300
C 	C 	0.66554 0.82056 0.38147 0.10500
C 	C 	0.68099 0.85905 0.38794 -0.08700
C 	C 	0.66838 0.89093 0.36090 -0.00300
C 	C 	0.64135 0.88391 0.32506 0.07500
C 	C 	0.62617 0.84543 0.31846 -0.04800
N 	N 	0.67921 0.78978 0.40684 -0.19900
H 	H 	0.70264 0.86428 0.41432 0.06000
C 	C 	0.68348 0.93159 0.37053 -0.00300
N 	N 	0.62934 0.91407 0.29746 -0.19300
H 	H 	0.60457 0.84025 0.29199 0.05200
C 	C 	0.71460 0.94570 0.34336 -0.08600
C 	C 	0.72485 0.98626 0.34480 0.11100
C 	C 	0.70372 0.01301 0.37443 -0.04800
C 	C 	0.67488 0.99824 0.40463 -0.05000
C 	C 	0.66434 0.95772 0.40286 0.07600
H 	H 	0.72994 0.92534 0.31966 0.06400
N 	N 	0.75479 0.99935 0.31759 -0.19900
H 	H 	0.65942 0.01863 0.42817 0.05500
N 	N 	0.63549 0.94429 0.43160 -0.19400
H 	H 	0.76837 0.98010 0.29332 0.10600
H 	H 	0.76552 0.02833 0.32116 0.10300
H 	H 	0.62103 0.96396 0.45465 0.09500
H 	H 	0.62753 0.91421 0.43193 0.09800
H 	H 	0.60935 0.90852 0.27114 0.09000
H 	H 	0.63953 0.94322 0.30176 0.09500
H 	H 	0.67058 0.76037 0.40016 0.09900
H 	H 	0.69991 0.79489 0.43245 0.09400
C 	C 	0.56030 0.02819 0.98113 -0.05500
C 	C 	0.58283 0.99753 0.00089 0.11800
C 	C 	0.56990 0.95784 0.99811 -0.09700
C 	C 	0.53585 0.94803 0.97476 0.00100
C 	C 	0.51291 0.97862 0.95595 0.07200
C 	C 	0.52536 0.01844 0.95950 -0.04800
N 	N 	0.61713 0.00573 0.02165 -0.20200
H 	H 	0.58707 0.93428 0.01298 0.06500
C 	C 	0.52489 0.90550 0.96962 -0.00900
N 	N 	0.47917 0.96997 0.93419 -0.19300
H 	H 	0.50802 0.04193 0.94476 0.05400
C 	C 	0.50166 0.88812 0.00444 -0.08200
C 	C 	0.49062 0.84788 0.00088 0.10800
C 	C 	0.50412 0.82437 0.96226 -0.05200
C 	C 	0.52747 0.84169 0.92750 -0.05100
C 	C 	0.53798 0.88214 0.93068 0.07500
H 	H 	0.49171 0.90615 0.03415 0.05900
N 	N 	0.46668 0.83221 0.03422 -0.20000
H 	H 	0.53748 0.82365 0.89783 0.05200
N 	N 	0.56046 0.89835 0.89627 -0.19400
H 	H 	0.45746 0.84965 0.06297 0.09100
H 	H 	0.45633 0.80298 0.03161 0.09700
H 	H 	0.57001 0.88082 0.86775 0.09100
H 	H 	0.56856 0.92838 0.89728 0.09500
H 	H 	0.46260 0.99277 0.92012 0.09500
H 	H 	0.46892 0.94073 0.93114 0.09600
H 	H 	0.62941 0.03413 0.02122 0.10900
H 	H 	0.63251 0.98305 0.03770 0.10000
C 	C 	0.61106 0.14672 0.06184 -0.04600
C 	C 	0.59005 0.14386 0.10463 0.10600
C 	C 	0.60952 0.14833 0.14705 -0.08400
C 	C 	0.64879 0.15901 0.14737 -0.00500
C 	C 	0.66794 0.16844 0.10471 0.07600
C 	C 	0.64921 0.16116 0.06216 -0.05100
N 	N 	0.55122 0.13735 0.10511 -0.19900
H 	H 	0.59429 0.14275 0.17982 0.06000
C 	C 	0.67074 0.15457 0.19124 -0.00200
N 	N 	0.70414 0.18437 0.10443 -0.19400
H 	H 	0.66492 0.16515 0.02936 0.06500
C 	C 	0.69881 0.12445 0.19345 -0.08400
C 	C 	0.71511 0.11460 0.23635 0.10900
C 	C 	0.70046 0.13257 0.27818 -0.04800
C 	C 	0.67480 0.16485 0.27567 -0.05000
C 	C 	0.66066 0.17683 0.23226 0.07300
H 	H 	0.70774 0.10840 0.16180 0.06200
N 	N 	0.74521 0.08855 0.23714 -0.19900
H 	H 	0.66488 0.17991 0.30756 0.05400
N 	N 	0.63775 0.20970 0.23012 -0.19400
H 	H 	0.75439 0.07351 0.20657 0.10500
H 	H 	0.76124 0.08493 0.26736 0.10400
H 	H 	0.62923 0.22510 0.26070 0.09100
H 	H 	0.62960 0.22125 0.19806 0.09400
H 	H 	0.71878 0.18965 0.07279 0.09700
H 	H 	0.71739 0.19320 0.13547 0.09700
H 	H 	0.53539 0.13832 0.07437 0.10100
H 	H 	0.53613 0.13343 0.13674 0.09500
C 	C 	0.14829 0.31245 0.54727 -0.04300
C 	C 	0.16641 0.27673 0.53188 0.01500
C 	C 	0.15753 0.24111 0.55566 -0.04300
C 	C 	0.12532 0.24032 0.58660 0.02000
C 	C 	0.09943 0.27275 0.58766 -0.09600
C 	C 	0.11359 0.31034 0.57400 0.01700
C 	C 	0.18648 0.27486 0.48502 0.01700
C 	C 	0.17967 0.20510 0.54614 0.10400
C 	C 	0.09155 0.34607 0.58519 0.08600
C 	C 	0.22644 0.26681 0.48145 -0.03600
C 	C 	0.24340 0.25610 0.43764 0.01500
C 	C 	0.21994 0.25234 0.39756 -0.08100
C 	C 	0.18109 0.26584 0.40039 0.01900
C 	C 	0.16483 0.27807 0.44385 -0.04100
C 	C 	0.25019 0.27045 0.52257 0.10200
C 	C 	0.15792 0.26783 0.35869 0.08400
C 	C 	0.28506 0.25179 0.43335 0.08100
C 	C 	0.12668 0.29604 0.44578 0.03600
C 	C 	0.16396 0.35065 0.53327 0.10300
C 	C 	0.11882 0.20666 0.61690 0.09200
N 	N 	0.31832 0.24838 0.43002 -0.10600
N 	N 	0.26915 0.27338 0.55538 -0.10400
N 	N 	0.13940 0.26965 0.32547 -0.10400
N 	N 	0.09641 0.31078 0.44713 -0.18300
N 	N 	0.19730 0.17629 0.53855 -0.11300
N 	N 	0.11373 0.17977 0.64119 -0.14600
N 	N 	0.07391 0.37463 0.59414 -0.10300
N 	N 	0.17649 0.38116 0.52203 -0.11100
C 	C 	0.10613 0.97619 0.47209 -0.03700
C 	C 	0.13346 0.00684 0.47945 0.02400
C 	C 	0.17339 0.99812 0.47537 -0.03500
C 	C 	0.18572 0.95918 0.46254 0.02300
C 	C 	0.15820 0.92818 0.45701 -0.06900
C 	C 	0.11856 0.93652 0.46512 0.02600
C 	C 	0.12011 0.04781 0.49399 0.02300
C 	C 	0.20176 0.02890 0.48545 0.09400
C 	C 	0.09092 0.90420 0.46923 0.09600
C 	C 	0.10194 0.05415 0.53816 -0.03500
C 	C 	0.08509 0.09149 0.54958 0.02600
C 	C 	0.08875 0.12352 0.51800 -0.07500
C 	C 	0.11293 0.11866 0.47779 0.02100
C 	C 	0.12493 0.08016 0.46342 -0.03700
C 	C 	0.10052 0.02226 0.57184 0.10500
C 	C 	0.12953 0.15314 0.45502 0.07300
C 	C 	0.06554 0.09718 0.59449 0.09200
C 	C 	0.14212 0.07384 0.41723 0.09300
C 	C 	0.06522 0.98556 0.47137 0.10500
C 	C 	0.22666 0.95105 0.45600 0.08100
N 	N 	0.04983 0.10142 0.63031 -0.10900
N 	N 	0.09927 0.99690 0.59880 -0.10900
N 	N 	0.14313 0.18071 0.43722 -0.12900
N 	N 	0.15597 0.06871 0.38044 -0.12000
N 	N 	0.22441 0.05346 0.49341 -0.12000
N 	N 	0.25941 0.94487 0.45101 -0.09800
N 	N 	0.06868 0.87855 0.47271 -0.10200
N 	N 	0.03257 0.99309 0.47085 -0.11600
C 	C 	0.79674 0.18417 0.46993 -0.09800
C 	C 	0.78562 0.17548 0.51614 -0.00600
C 	C 	0.75200 0.15279 0.52460 0.14100
C 	C 	0.73176 0.13612 0.48693 -0.06400
C 	C 	0.74484 0.14204 0.44069 -0.05700
C 	C 	0.77656 0.16757 0.43226 0.16500
C 	C 	0.81246 0.18487 0.55453 0.01100
O 	O 	0.73861 0.14729 0.56955 -0.27400
H 	H 	0.70650 0.11775 0.49372 0.07000
O 	O 	0.78951 0.17414 0.38739 -0.27900
H 	H 	0.82232 0.20209 0.46316 0.07800
C 	C 	0.83716 0.15503 0.57073 0.13200
C 	C 	0.87123 0.16566 0.59346 -0.02800
C 	C 	0.88017 0.20605 0.60214 -0.10400
C 	C 	0.85219 0.23535 0.59267 0.19600
C 	C 	0.81873 0.22474 0.56824 -0.10800
O 	O 	0.82822 0.11542 0.56401 -0.26800
H 	H 	0.89196 0.14261 0.60130 0.08200
O 	O 	0.85764 0.27429 0.60679 -0.27700
H 	H 	0.79879 0.24777 0.55786 0.08000
H 	H 	0.77580 0.19850 0.37750 0.15800
H 	H 	0.84086 0.10748 0.53388 0.15800
H 	H 	0.86854 0.28801 0.57900 0.16700
H 	H 	0.74981 0.12155 0.57930 0.17100
C 	C 	0.03792 0.95244 0.69863 -0.04200
C 	C 	0.01813 0.93252 0.66249 0.03100
C 	C 	0.03881 0.90819 0.62996 -0.03900
C 	C 	0.07925 0.90331 0.63409 0.03200
C 	C 	0.09913 0.92355 0.67032 -0.07600
C 	C 	0.07848 0.94981 0.70099 0.02300
C 	C 	0.97542 0.93833 0.65827 0.01400
C 	C 	0.01859 0.88878 0.59189 0.10500
C 	C 	0.09907 0.97588 0.73302 0.04600
C 	C 	0.96131 0.97148 0.63394 -0.03500
C 	C 	0.92393 0.98641 0.64457 0.01600
C 	C 	0.90174 0.96929 0.68099 -0.08100
C 	C 	0.91264 0.93167 0.69793 0.02000
C 	C 	0.94972 0.91622 0.68671 -0.03800
C 	C 	0.98615 0.99181 0.60062 0.09600
C 	C 	0.88572 0.90895 0.72646 0.08900
C 	C 	0.90896 0.02001 0.61921 0.08100
C 	C 	0.96228 0.87894 0.70648 0.09800
C 	C 	0.01631 0.97559 0.73350 0.10800
C 	C 	0.10061 0.87953 0.59951 0.09900
N 	N 	0.89705 0.04684 0.59894 -0.10500
N 	N 	0.00593 0.00820 0.57407 -0.10500
N 	N 	0.86422 0.89077 0.74922 -0.10400
N 	N 	0.97236 0.84919 0.72226 -0.11000
N 	N 	0.00232 0.87340 0.56151 -0.10400
N 	N 	0.11768 0.86057 0.57194 -0.09500
N 	N 	0.11538 0.99695 0.75839 -0.16900
N 	N 	0.99863 0.99388 0.76110 -0.13600
C 	C 	0.00795 0.25429 0.74420 -0.03400
C 	C 	0.98655 0.22676 0.77091 0.01100
C 	C 	0.99779 0.21898 0.81707 -0.04800
C 	C 	0.03393 0.23278 0.83280 0.01900
C 	C 	0.05917 0.25256 0.80159 -0.11100
C 	C 	0.04515 0.26587 0.75852 0.01900
C 	C 	0.95860 0.19951 0.74731 0.02500
C 	C 	0.97311 0.19520 0.84725 0.09200
C 	C 	0.06939 0.29032 0.72852 0.08200
C 	C 	0.97145 0.16232 0.72923 -0.05800
C 	C 	0.94441 0.13313 0.71540 0.02000
C 	C 	0.90463 0.14231 0.71602 -0.10900
C 	C 	0.89224 0.18133 0.72846 0.03100
C 	C 	0.91909 0.20957 0.74544 -0.04600
C 	C 	0.01255 0.15422 0.72495 0.10600
C 	C 	0.85194 0.19232 0.72381 0.08500
C 	C 	0.95749 0.09348 0.70173 0.03500
C 	C 	0.90608 0.24870 0.76141 0.10500
C 	C 	0.99138 0.27117 0.70283 0.09800
C 	C 	0.04546 0.22597 0.88051 0.07300
N 	N 	0.96824 0.06189 0.69097 -0.11600
N 	N 	0.04540 0.14799 0.72159 -0.19200
N 	N 	0.81980 0.20110 0.72000 -0.09500
N 	N 	0.89573 0.27994 0.77415 -0.10600
N 	N 	0.95340 0.17616 0.87131 -0.13500
N 	N 	0.05467 0.22057 0.91861 -0.10000
N 	N 	0.08877 0.30980 0.70456 -0.10100
N 	N 	0.97807 0.28490 0.66993 -0.10700
C 	C 	0.64563 0.10558 0.73192 -0.10600
C 	C 	0.64357 0.14502 0.74932 0.00900
C 	C 	0.66687 0.17429 0.72799 0.12400
C 	C 	0.69812 0.16248 0.69901 -0.03200
C 	C 	0.70615 0.12168 0.69216 -0.10300
C 	C 	0.67683 0.09390 0.70282 0.19200
C 	C 	0.62705 0.15250 0.79687 0.00400
O 	O 	0.66218 0.21382 0.74000 -0.26700
H 	H 	0.71890 0.18462 0.68734 0.07300
O 	O 	0.68035 0.05474 0.68846 -0.27900
H 	H 	0.62599 0.08309 0.74533 0.07500
C 	C 	0.58809 0.14340 0.80714 0.13000
C 	C 	0.57573 0.13904 0.85378 -0.06000
C 	C 	0.60211 0.14351 0.89033 -0.05700
C 	C 	0.63968 0.15763 0.88026 0.17100
C 	C 	0.65202 0.16200 0.83368 -0.09400
O 	O 	0.56209 0.13892 0.77175 -0.26900
H 	H 	0.54617 0.13003 0.86137 0.06600
O 	O 	0.66458 0.16663 0.91575 -0.27900
H 	H 	0.68179 0.17026 0.82615 0.08700
H 	H 	0.69333 0.04101 0.71435 0.15900
H 	H 	0.56092 0.10980 0.76501 0.14900
H 	H 	0.68028 0.14222 0.91975 0.15900
H 	H 	0.64394 0.22437 0.71688 0.15500
C 	C 	0.96330 0.64472 0.39397 -0.04200
C 	C 	0.97038 0.61517 0.35874 0.09800
C 	C 	0.00856 0.60801 0.34293 -0.07700
C 	C 	0.03969 0.62836 0.36324 -0.00700
C 	C 	0.03243 0.65912 0.39678 0.08300
C 	C 	0.99433 0.66679 0.41202 -0.05600
N 	N 	0.94106 0.59259 0.34130 -0.19800
H 	H 	0.01424 0.58480 0.31679 0.05900
C 	C 	0.07952 0.61326 0.35457 -0.00100
N 	N 	0.06193 0.68094 0.41499 -0.19500
H 	H 	0.98880 0.68994 0.43829 0.05700
C 	C 	0.10199 0.62931 0.31802 -0.08600
C 	C 	0.14152 0.61990 0.31309 0.10900
C 	C 	0.15863 0.59410 0.34553 -0.04700
C 	C 	0.13558 0.57615 0.38014 -0.04900
C 	C 	0.09612 0.58531 0.38493 0.07400
H 	H 	0.08900 0.65015 0.29430 0.06400
N 	N 	0.16276 0.63580 0.27741 -0.19900
H 	H 	0.14863 0.55562 0.40419 0.05000
N 	N 	0.07447 0.56753 0.41899 -0.19300
H 	H 	0.14979 0.65456 0.25343 0.10000
H 	H 	0.19208 0.62917 0.27256 0.10500
H 	H 	0.08723 0.54764 0.44190 0.09100
H 	H 	0.04478 0.57259 0.42261 0.09400
H 	H 	0.05657 0.70163 0.44208 0.09500
H 	H 	0.09019 0.67827 0.40181 0.09800
H 	H 	0.91290 0.59471 0.35490 0.09700
H 	H 	0.94652 0.57154 0.31457 0.09100
C 	C 	0.02861 0.68971 0.85284 -0.04300
C 	C 	0.04814 0.65279 0.85597 0.10400
C 	C 	0.08805 0.65108 0.84643 -0.08300
C 	C 	0.10873 0.68560 0.83445 -0.00600
C 	C 	0.08971 0.72299 0.83469 0.07900
C 	C 	0.04963 0.72461 0.84346 -0.05200
N 	N 	0.02874 0.61892 0.86782 -0.19700
H 	H 	0.10293 0.62261 0.84719 0.06000
C 	C 	0.14922 0.68146 0.81740 0.00100
N 	N 	0.10971 0.75733 0.82682 -0.19500
H 	H 	0.03465 0.75299 0.84211 0.05900
C 	C 	0.15650 0.67852 0.76907 -0.07800
C 	C 	0.19202 0.66387 0.75155 0.11300
C 	C 	0.22191 0.65516 0.78319 -0.04500
C 	C 	0.21521 0.66034 0.83148 -0.04700
C 	C 	0.17937 0.67419 0.84885 0.07600
H 	H 	0.13340 0.68471 0.74509 0.06300
N 	N 	0.19632 0.65606 0.70485 -0.19900
H 	H 	0.23805 0.65365 0.85564 0.05000
N 	N 	0.17414 0.68068 0.89564 -0.19400
H 	H 	0.17541 0.66558 0.68158 0.09500
H 	H 	0.21858 0.63791 0.69158 0.10000
H 	H 	0.19621 0.67422 0.91883 0.08900
H 	H 	0.14870 0.69345 0.90927 0.09400
H 	H 	0.09532 0.78475 0.82637 0.10300
H 	H 	0.13977 0.75733 0.82247 0.10800
H 	H 	0.99934 0.61942 0.87685 0.09700
H 	H 	0.04329 0.59162 0.86906 0.09400
C 	C 	0.88087 0.67393 0.52973 -0.04700
C 	C 	0.90994 0.69529 0.55387 0.10800
C 	C 	0.91022 0.69482 0.60290 -0.08500
C 	C 	0.88011 0.67664 0.62828 -0.00200
C 	C 	0.84865 0.65925 0.60419 0.07200
C 	C 	0.84984 0.65719 0.55498 -0.05000
N 	N 	0.93671 0.71744 0.53028 -0.20000
H 	H 	0.93354 0.70942 0.62145 0.06200
C 	C 	0.88204 0.67626 0.68009 -0.00400
N 	N 	0.81762 0.64412 0.62796 -0.19400
H 	H 	0.82688 0.64202 0.53640 0.05400
C 	C 	0.87536 0.71198 0.70525 -0.08500
C 	C 	0.88713 0.71626 0.75185 0.10700
C 	C 	0.90435 0.68342 0.77418 -0.04800
C 	C 	0.90669 0.64638 0.75069 -0.05000
C 	C 	0.89647 0.64259 0.70351 0.07400
H 	H 	0.86323 0.73736 0.68758 0.06100
N 	N 	0.88297 0.75223 0.77426 -0.19900
H 	H 	0.91885 0.62098 0.76831 0.05300
N 	N 	0.90148 0.60692 0.68070 -0.19400
H 	H 	0.87086 0.77640 0.75711 0.09800
H 	H 	0.89142 0.75663 0.80879 0.10200
H 	H 	0.91266 0.58243 0.69816 0.09100
H 	H 	0.89408 0.60295 0.64571 0.09400
H 	H 	0.79493 0.63062 0.60991 0.09000
H 	H 	0.81535 0.64623 0.66439 0.09300
H 	H 	0.93384 0.72343 0.49478 0.10300
H 	H 	0.95942 0.73114 0.54809 0.09900
C 	C 	0.07009 0.05554 0.04538 -0.04300
C 	C 	0.07097 0.09585 0.03182 0.02100
C 	C 	0.04624 0.12354 0.05483 -0.04400
C 	C 	0.01493 0.10969 0.08243 0.02100
C 	C 	0.01002 0.06823 0.08905 -0.09400
C 	C 	0.04090 0.04245 0.07674 0.01000
C 	C 	0.09206 0.10763 0.98804 0.02300
C 	C 	0.05178 0.16595 0.04793 0.10600
C 	C 	0.04392 0.00391 0.09847 0.08600
C 	C 	0.07181 0.10988 0.94576 -0.04500
C 	C 	0.09016 0.12535 0.90549 0.02700
C 	C 	0.12872 0.13923 0.90752 -0.07900
C 	C 	0.14985 0.13424 0.94890 0.03300
C 	C 	0.13126 0.11928 0.98942 -0.03900
C 	C 	0.03147 0.09792 0.94439 0.10000
C 	C 	0.19096 0.14290 0.94921 0.09800
C 	C 	0.06908 0.12775 0.86227 0.04900
C 	C 	0.15218 0.11667 0.03275 0.11300
C 	C 	0.09848 0.02761 0.02647 0.10500
C 	C 	0.98652 0.13767 0.10140 0.08400
N 	N 	0.05220 0.12962 0.82781 -0.15200
N 	N 	0.99927 0.08849 0.94348 -0.19500
N 	N 	0.22377 0.14979 0.94945 -0.09400
N 	N 	0.16884 0.11460 0.06736 -0.10100
N 	N 	0.05624 0.19981 0.04237 -0.10100
N 	N 	0.96387 0.16009 0.11643 -0.09300
N 	N 	0.04645 0.97320 0.11609 -0.09800
N 	N 	0.12127 0.00528 0.01159 -0.10300
C 	C 	0.76248 0.01504 0.03682 -0.03600
C 	C 	0.76731 0.03689 0.99540 0.01500
C 	C 	0.78899 0.07265 0.99733 -0.04800
C 	C 	0.81508 0.07854 0.03410 0.01300
C 	C 	0.81990 0.04789 0.06636 -0.07700
C 	C 	0.78868 0.02146 0.07346 0.02200
C 	C 	0.76219 0.01649 0.94927 0.01900
C 	C 	0.78683 0.10113 0.95990 0.08000
C 	C 	0.78567 0.99879 0.11605 0.09000
C 	C 	0.73516 0.03146 0.91794 -0.04300
C 	C 	0.74350 0.02984 0.86947 0.02500
C 	C 	0.77771 0.01082 0.85289 -0.08800
C 	C 	0.79904 0.98742 0.88364 0.01200
C 	C 	0.79112 0.99005 0.93211 -0.04500
C 	C 	0.70016 0.05043 0.93573 0.09200
C 	C 	0.83041 0.96254 0.86565 0.05100
C 	C 	0.71880 0.05041 0.83735 0.08100
C 	C 	0.81342 0.96677 0.96426 0.09000
C 	C 	0.73379 0.98362 0.03948 0.09600
C 	C 	0.84035 0.11302 0.03523 0.05200
N 	N 	0.69904 0.06696 0.81187 -0.11500
N 	N 	0.67219 0.06558 0.94995 -0.12200
N 	N 	0.85549 0.94271 0.85132 -0.10800
N 	N 	0.83119 0.94805 0.98987 -0.10600
N 	N 	0.78508 0.12386 0.92995 -0.11900
N 	N 	0.86060 0.14055 0.03618 -0.11300
N 	N 	0.78330 0.98068 0.15012 -0.10400
N 	N 	0.71093 0.95841 0.04156 -0.11800
C 	C 	0.03120 0.98291 0.90825 -0.04400
C 	C 	0.06445 0.95919 0.91153 0.02400
C 	C 	0.07043 0.93708 0.95211 -0.03900
C 	C 	0.04178 0.93609 0.98768 0.02300
C 	C 	0.00615 0.95693 0.98220 -0.10100
C 	C 	0.00018 0.97786 0.94019 0.01400
C 	C 	0.08947 0.95154 0.86950 0.02500
C 	C 	0.10593 0.91445 0.95678 0.10500
C 	C 	0.96141 0.98753 0.92573 -0.00800
C 	C 	0.12710 0.96744 0.86783 -0.04300
C 	C 	0.15673 0.94661 0.84339 0.01200
C 	C 	0.14761 0.91231 0.81616 -0.12200
C 	C 	0.10836 0.90106 0.81105 0.02800
C 	C 	0.07936 0.92076 0.83784 -0.04500
C 	C 	0.13519 0.00511 0.89131 0.09400
C 	C 	0.09762 0.87061 0.77697 0.07200
C 	C 	0.19655 0.95975 0.84733 0.02200
C 	C 	0.03918 0.90905 0.83345 0.09900
C 	C 	0.02918 0.01287 0.87251 0.08400
C 	C 	0.04823 0.91142 0.02808 0.10000
N 	N 	0.22832 0.97027 0.85046 -0.11300
N 	N 	0.14171 0.03527 0.90988 -0.10900
N 	N 	0.08893 0.84638 0.74979 -0.10200
N 	N 	0.00709 0.89976 0.82993 -0.10900
N 	N 	0.13423 0.89644 0.96045 -0.10800
N 	N 	0.05363 0.89154 0.06005 -0.09700
N 	N 	0.93048 0.99508 0.91381 -0.18300
N 	N 	0.02775 0.03705 0.84415 -0.12400
C 	C 	0.90397 0.71839 0.02651 -0.09600
C 	C 	0.88977 0.75759 0.02586 0.00100
C 	C 	0.88272 0.77563 0.98261 0.12500
C 	C 	0.89199 0.75534 0.94074 -0.06100
C 	C 	0.90938 0.71760 0.94147 -0.06000
C 	C 	0.91424 0.69853 0.98452 0.16300
C 	C 	0.88897 0.78214 0.06932 0.01100
O 	O 	0.87044 0.81455 0.98129 -0.26900
H 	H 	0.88816 0.77017 0.90772 0.06400
O 	O 	0.92913 0.66061 0.98561 -0.28200
H 	H 	0.90898 0.70412 0.05961 0.07700
C 	C 	0.85389 0.79872 0.08603 0.12900
C 	C 	0.85414 0.83558 0.10998 -0.02800
C 	C 	0.88931 0.85556 0.11718 -0.08800
C 	C 	0.92406 0.83413 0.11074 0.19600
C 	C 	0.92385 0.79747 0.08640 -0.10500
O 	O 	0.81949 0.77959 0.07787 -0.26800
H 	H 	0.82700 0.85040 0.11857 0.06900
O 	O 	0.95839 0.85002 0.12560 -0.27200
H 	H 	0.95102 0.78314 0.07682 0.07800
H 	H 	0.95744 0.66416 0.98908 0.15100
H 	H 	0.80940 0.79143 0.04898 0.14900
H 	H 	0.96975 0.86361 0.09802 0.16900
H 	H 	0.84201 0.81302 0.97770 0.14600
C 	C 	0.06279 0.00915 0.22640 -0.03700
C 	C 	0.06719 0.05058 0.21983 0.02300
C 	C 	0.03464 0.07368 0.20850 -0.03300
C 	C 	0.99726 0.05685 0.21171 0.02300
C 	C 	0.99263 0.01718 0.22629 -0.07600
C 	C 	0.02539 0.99225 0.22800 0.03400
C 	C 	0.10342 0.07116 0.23460 0.02400
C 	C 	0.03944 0.11567 0.19825 0.10100
C 	C 	0.02045 0.94963 0.23399 0.09200
C 	C 	0.13544 0.07432 0.20348 -0.03500
C 	C 	0.16686 0.09950 0.21515 0.02400
C 	C 	0.16481 0.12362 0.25629 -0.07300
C 	C 	0.13123 0.12225 0.28501 0.02600
C 	C 	0.10367 0.09220 0.27754 -0.03700
C 	C 	0.13684 0.05051 0.16073 0.10500
C 	C 	0.12206 0.15514 0.31665 0.09600
C 	C 	0.20100 0.10049 0.18501 0.08900
C 	C 	0.07677 0.08153 0.31473 0.10700
C 	C 	0.09640 0.98455 0.23455 0.10600
C 	C 	0.96351 0.08102 0.20313 0.08600
N 	N 	0.22817 0.10130 0.16079 -0.09700
N 	N 	0.13813 0.03133 0.12671 -0.10400
N 	N 	0.11434 0.18161 0.34156 -0.11500
N 	N 	0.05546 0.07264 0.34449 -0.11000
N 	N 	0.04346 0.14921 0.19030 -0.10500
N 	N 	0.93655 0.10029 0.19620 -0.10000
N 	N 	0.01647 0.91561 0.23877 -0.09700
N 	N 	0.12324 0.96495 0.24109 -0.12500
C 	C 	0.90293 0.21056 0.37209 -0.04400
C 	C 	0.91363 0.17419 0.35011 0.02200
C 	C 	0.95156 0.15973 0.35580 -0.04600
C 	C 	0.97480 0.17658 0.39096 0.02100
C 	C 	0.95887 0.20521 0.42210 -0.12600
C 	C 	0.92513 0.22562 0.40936 0.03400
C 	C 	0.88290 0.14594 0.33466 0.01800
C 	C 	0.96424 0.12417 0.33056 0.07100
C 	C 	0.91157 0.25953 0.43718 0.06900
C 	C 	0.87504 0.14077 0.28672 -0.04300
C 	C 	0.85598 0.10579 0.27110 0.02400
C 	C 	0.84565 0.07614 0.30366 -0.11800
C 	C 	0.84525 0.08619 0.35169 -0.00500
C 	C 	0.86574 0.11996 0.36745 -0.05200
C 	C 	0.88751 0.17069 0.25363 0.10700
C 	C 	0.82512 0.06088 0.38485 0.04000
C 	C 	0.84635 0.10079 0.22223 0.09000
C 	C 	0.87240 0.12597 0.41697 0.07400
C 	C 	0.86828 0.23104 0.35808 0.10400
C 	C 	0.01349 0.16173 0.39824 0.03500
N 	N 	0.83867 0.09686 0.18318 -0.09700
N 	N 	0.89750 0.19461 0.22723 -0.10400
N 	N 	0.80909 0.04068 0.41137 -0.11300
N 	N 	0.87804 0.13086 0.45642 -0.11800
N 	N 	0.97426 0.09554 0.31073 -0.14100
N 	N 	0.04440 0.14994 0.40429 -0.12300
N 	N 	0.90071 0.28656 0.45948 -0.10900
N 	N 	0.84064 0.24748 0.34680 -0.11300
C 	C 	0.02081 0.87252 0.36413 -0.04000
C 	C 	0.00852 0.83295 0.37216 0.03000
C 	C 	0.96854 0.82431 0.37505 -0.04500
C 	C 	0.94130 0.85488 0.36756 0.03000
C 	C 	0.95409 0.89414 0.35870 -0.09200
C 	C 	0.99347 0.90339 0.36312 0.02300
C 	C 	0.03783 0.80086 0.37817 0.01800
C 	C 	0.95552 0.78385 0.38334 0.09600
C 	C 	0.00614 0.94464 0.36436 0.06400
C 	C 	0.05158 0.79304 0.42305 -0.04000
C 	C 	0.09037 0.78114 0.42831 0.02300
C 	C 	0.11411 0.77456 0.38790 -0.09600
C 	C 	0.09620 0.77098 0.34398 0.00200
C 	C 	0.05815 0.78520 0.33887 -0.04500
C 	C 	0.02552 0.79583 0.46323 0.10200
C 	C 	0.11666 0.75241 0.30466 0.05900
C 	C 	0.10498 0.77405 0.47462 0.09200
C 	C 	0.04065 0.78560 0.29324 0.09000
C 	C 	0.06033 0.88053 0.34962 0.11100
C 	C 	0.90032 0.84570 0.36674 0.07400
N 	N 	0.11653 0.76840 0.51167 -0.10000
N 	N 	0.00461 0.79789 0.49527 -0.11000
N 	N 	0.13300 0.73761 0.27322 -0.11800
N 	N 	0.02663 0.78597 0.25680 -0.10600
N 	N 	0.94501 0.75159 0.38996 -0.11900
N 	N 	0.86760 0.83848 0.36595 -0.11400
N 	N 	0.01664 0.97746 0.36544 -0.11800
N 	N 	0.09163 0.88729 0.33720 -0.18700
C 	C 	0.80229 0.76473 0.35446 -0.09800
C 	C 	0.80112 0.75270 0.30723 -0.00600
C 	C 	0.81151 0.71328 0.29467 0.13200
C 	C 	0.82881 0.68872 0.32754 -0.06400
C 	C 	0.83538 0.70313 0.37315 -0.05800
C 	C 	0.82027 0.74067 0.38716 0.16700
C 	C 	0.80012 0.78374 0.27104 0.01600
O 	O 	0.80800 0.70001 0.24929 -0.27200
H 	H 	0.83895 0.65927 0.31687 0.06500
O 	O 	0.82464 0.75469 0.43214 -0.28100
H 	H 	0.79290 0.79449 0.36488 0.07200
C 	C 	0.76848 0.81003 0.26907 0.11800
C 	C 	0.77379 0.84843 0.25104 -0.03300
C 	C 	0.81085 0.86108 0.23664 -0.11000
C 	C 	0.84087 0.83262 0.23248 0.19200
C 	C 	0.83469 0.79364 0.24765 -0.10700
O 	O 	0.73280 0.79879 0.28611 -0.27000
H 	H 	0.75006 0.86957 0.25270 0.05600
O 	O 	0.87740 0.84400 0.21867 -0.27700
H 	H 	0.85868 0.77282 0.24702 0.08700
H 	H 	0.84959 0.76938 0.43187 0.15800
H 	H 	0.73186 0.80844 0.31908 0.14600
H 	H 	0.89130 0.84979 0.24803 0.16300
H 	H 	0.78188 0.68783 0.24788 0.15200
