data_crystal

_cell_length_a 38.58029
_cell_length_b 37.01604
_cell_length_c 48.26582
_cell_angle_alpha 104.44569
_cell_angle_beta  116.12699
_cell_angle_gamma 110.55686

_symmetry_space_group_name_	'P 1'
_symmetry_space_group_name_H-M	'P 1'

loop_
_symmetry_equiv_pos_as_xyz
  x,y,z

loop_
_atom_site_label
_atom_site_type_symbol
_atom_site_fract_x
_atom_site_fract_y
_atom_site_fract_z
_atom_site_charge
C 	C 	0.23030 0.10885 0.91808 0.00400
C 	C 	0.25020 0.15247 0.92388 -0.05700
C 	C 	0.28701 0.17054 0.92135 0.00300
C 	C 	0.30674 0.14587 0.91690 -0.05700
C 	C 	0.28977 0.10410 0.91465 0.00100
C 	C 	0.24713 0.08350 0.90882 -0.05800
H 	H 	0.23862 0.17263 0.93209 0.03500
H 	H 	0.33730 0.16051 0.91801 0.03300
H 	H 	0.22756 0.04824 0.89745 0.03600
C 	C 	0.30695 0.13589 0.45066 0.00300
C 	C 	0.32308 0.17675 0.45118 -0.05900
C 	C 	0.36184 0.19555 0.45109 0.00200
C 	C 	0.38353 0.17210 0.44957 -0.05900
C 	C 	0.36842 0.13180 0.45005 0.00100
C 	C 	0.32686 0.11170 0.44592 -0.05900
H 	H 	0.30653 0.19438 0.45317 0.03500
H 	H 	0.41274 0.18596 0.44903 0.03400
H 	H 	0.31231 0.07859 0.44188 0.03500
C 	C 	0.20270 0.37671 0.98382 0.00200
C 	C 	0.17915 0.39831 0.98492 -0.05700
C 	C 	0.13946 0.37818 0.98334 0.00000
C 	C 	0.12909 0.34108 0.98836 -0.05800
C 	C 	0.15002 0.31732 0.98533 0.00200
C 	C 	0.18760 0.33600 0.98389 -0.05700
H 	H 	0.19045 0.42992 0.98587 0.03600
H 	H 	0.10577 0.33149 0.99538 0.03600
H 	H 	0.20425 0.31836 0.98186 0.03600
C 	C 	0.28293 0.40728 0.51990 0.00200
C 	C 	0.26083 0.43034 0.52132 -0.05900
C 	C 	0.21922 0.41031 0.51722 0.00200
C 	C 	0.20577 0.37207 0.52052 -0.05900
C 	C 	0.22672 0.34785 0.51894 0.00200
C 	C 	0.26570 0.36608 0.51901 -0.05800
H 	H 	0.27621 0.46380 0.52627 0.03500
H 	H 	0.17782 0.36055 0.52275 0.03500
H 	H 	0.28161 0.34758 0.51714 0.03400
O 	O 	0.98913 0.46937 0.86252 -0.48400
O 	O 	0.97899 0.41329 0.90658 -0.50700
O 	O 	0.95122 0.48776 0.90399 -0.87300
O 	O 	0.02444 0.47478 0.95973 -0.45000
Zn	Zn	0.86913 0.41536 0.91992 1.17100
Zn	Zn	0.95087 0.43704 0.98269 1.18600
Zn	Zn	0.96791 0.49330 0.94964 1.21600
C 	C 	0.87165 0.34595 0.94163 0.29500
C 	C 	0.84623 0.44006 0.96573 0.28800
O 	O 	0.91213 0.51502 0.94070 -0.45400
Zn	Zn	0.95402 0.51682 0.00986 1.19500
O 	O 	0.91575 0.37371 0.96644 -0.46200
O 	O 	0.84748 0.35662 0.91956 -0.46700
O 	O 	0.83493 0.43227 0.93402 -0.49100
O 	O 	0.88830 0.45340 0.99053 -0.46100
C 	C 	0.98192 0.48511 0.05919 0.31700
O 	O 	0.92672 0.43304 0.93395 -0.80800
C 	C 	0.91027 0.54248 0.96280 0.29000
O 	O 	0.97426 0.45138 0.03439 -0.44500
O 	O 	0.98285 0.51939 0.05542 -0.48100
O 	O 	0.92665 0.54736 0.99465 -0.49500
O 	O 	0.98413 0.49805 0.99469 -0.89800
Zn	Zn	0.96028 0.44460 0.88387 1.18300
C 	C 	0.01505 0.43652 0.93933 0.30100
H 	H 	0.01723 0.51314 0.01290 0.15800
H 	H 	0.91954 0.48032 0.88886 0.14200
O 	O 	0.06227 0.50490 0.39368 -0.47700
O 	O 	0.05877 0.44459 0.43663 -0.49700
O 	O 	0.02666 0.51692 0.43783 -0.86700
O 	O 	0.10115 0.50293 0.49117 -0.45100
Zn	Zn	0.94614 0.44161 0.45196 1.17100
Zn	Zn	0.02773 0.46117 0.51371 1.18800
Zn	Zn	0.04432 0.52048 0.48298 1.21800
C 	C 	0.94796 0.37080 0.47168 0.29600
C 	C 	0.92414 0.46435 0.49880 0.29000
O 	O 	0.98733 0.53975 0.47525 -0.45900
Zn	Zn	0.03157 0.54090 0.54406 1.20000
O 	O 	0.99243 0.39745 0.49542 -0.46700
O 	O 	0.92409 0.38200 0.44999 -0.46800
O 	O 	0.91228 0.45749 0.46713 -0.49000
O 	O 	0.96594 0.47617 0.52279 -0.46900
C 	C 	0.05684 0.50480 0.59017 0.31600
O 	O 	0.00381 0.45961 0.46589 -0.80200
C 	C 	0.98326 0.56424 0.49736 0.28500
O 	O 	0.04860 0.47191 0.56432 -0.43700
O 	O 	0.06022 0.54075 0.58855 -0.47600
O 	O 	0.00279 0.57084 0.52981 -0.49000
O 	O 	0.06112 0.52306 0.52762 -0.89700
Zn	Zn	0.03852 0.47740 0.41665 1.18600
C 	C 	0.09188 0.46501 0.47027 0.29000
H 	H 	0.09426 0.53779 0.54551 0.15900
H 	H 	0.99449 0.50820 0.42277 0.13800
C 	C 	0.99899 0.50449 0.82854 -0.11100
C 	C 	0.03004 0.49356 0.82769 0.02100
C 	C 	0.04017 0.49634 0.80361 -0.06200
C 	C 	0.01880 0.50931 0.77960 0.01500
C 	C 	0.02702 0.50898 0.75250 0.09700
N 	N 	0.06951 0.52296 0.76066 -0.08800
N 	N 	0.07645 0.51969 0.73567 -0.08900
C 	C 	0.04103 0.50196 0.70174 0.10100
N 	N 	0.99856 0.48817 0.69360 -0.09300
N 	N 	0.99165 0.49157 0.71861 -0.09200
C 	C 	0.04890 0.49960 0.67426 0.00200
C 	C 	0.09158 0.53502 0.65417 0.01200
C 	C 	0.05838 0.49975 0.61983 -0.09700
C 	C 	0.02200 0.46310 0.61331 0.01700
C 	C 	0.01711 0.46313 0.64035 -0.04800
C 	C 	0.08696 0.53491 0.68130 -0.05400
H 	H 	0.04632 0.48286 0.84570 0.02800
H 	H 	0.06386 0.48741 0.80307 0.04600
H 	H 	0.11195 0.56308 0.70741 0.04400
H 	H 	0.11998 0.56335 0.65954 0.02100
H 	H 	0.98806 0.43528 0.63474 0.03900
H 	H 	0.99615 0.43567 0.58688 0.02300
C 	C 	0.05240 0.53313 0.35263 -0.09600
C 	C 	0.04426 0.52650 0.29048 0.00100
C 	C 	0.07804 0.52054 0.34376 0.00700
C 	C 	0.03744 0.51989 0.25660 0.09700
N 	N 	0.02841 0.54611 0.24308 -0.08800
N 	N 	0.01957 0.53853 0.21154 -0.08700
C 	C 	0.01955 0.50453 0.19259 0.09300
N 	N 	0.02936 0.47875 0.20635 -0.08700
N 	N 	0.03816 0.48630 0.23789 -0.08900
C 	C 	0.00657 0.49439 0.15670 0.01800
C 	C 	0.96212 0.49357 0.10181 0.02100
C 	C 	0.98738 0.48367 0.09091 -0.10900
C 	C 	0.02074 0.47687 0.11222 0.02500
C 	C 	0.03038 0.48228 0.14508 -0.06200
C 	C 	0.07403 0.51730 0.31290 -0.05300
C 	C 	0.97158 0.49882 0.13446 -0.06800
H 	H 	0.09382 0.50732 0.30631 0.04400
H 	H 	0.10068 0.51274 0.36056 0.03000
H 	H 	0.95219 0.50704 0.14273 0.04600
H 	H 	0.93587 0.49829 0.08530 0.02100
H 	H 	0.05726 0.47845 0.16190 0.04700
H 	H 	0.04030 0.46903 0.10396 0.02100
C 	C 	0.16207 0.28509 0.51403 -0.08800
C 	C 	0.20537 0.30052 0.51391 0.03800
C 	C 	0.21967 0.24912 0.53829 -0.04300
C 	C 	0.16976 0.21844 0.50470 -0.05200
C 	C 	0.14167 0.23772 0.50877 -0.04400
H 	H 	0.17089 0.30751 0.53949 0.03900
H 	H 	0.13536 0.28595 0.49249 0.03900
H 	H 	0.24085 0.23608 0.53609 0.03100
H 	H 	0.22098 0.24995 0.56195 0.03600
H 	H 	0.14107 0.23798 0.53167 0.03000
H 	H 	0.10570 0.21668 0.48501 0.02800
C 	C 	0.17009 0.21931 0.47276 -0.04400
H 	H 	0.13484 0.19824 0.44814 0.04300
H 	H 	0.19022 0.20564 0.46921 0.03500
C 	C 	0.19068 0.26689 0.47809 -0.08900
H 	H 	0.22023 0.27523 0.47660 0.04000
H 	H 	0.16520 0.26834 0.45615 0.04200
C 	C 	0.24026 0.29675 0.54369 -0.09000
H 	H 	0.27155 0.30617 0.54452 0.04100
H 	H 	0.25090 0.31992 0.56966 0.04100
C 	C 	0.34364 0.40581 0.47267 -0.04400
C 	C 	0.38755 0.44960 0.50516 -0.05300
C 	C 	0.33684 0.46986 0.51652 -0.08800
C 	C 	0.32168 0.42376 0.51500 0.03800
C 	C 	0.30572 0.39064 0.47850 -0.08900
H 	H 	0.33068 0.40994 0.44875 0.03500
H 	H 	0.35151 0.37977 0.46745 0.03200
H 	H 	0.34931 0.49504 0.54244 0.04000
H 	H 	0.30742 0.46861 0.49561 0.03900
H 	H 	0.27488 0.38723 0.45725 0.04100
H 	H 	0.29600 0.35741 0.47618 0.04000
C 	C 	0.36503 0.42773 0.54382 -0.09000
H 	H 	0.35705 0.39584 0.54386 0.04200
H 	H 	0.37792 0.45199 0.57027 0.04500
C 	C 	0.40307 0.44226 0.53789 -0.04300
H 	H 	0.43430 0.47308 0.56184 0.04100
H 	H 	0.41192 0.41669 0.53426 0.03700
C 	C 	0.37523 0.48487 0.51122 -0.04500
H 	H 	0.40582 0.51646 0.53481 0.03000
H 	H 	0.36400 0.49116 0.48833 0.03400
C 	C 	0.14219 0.45609 0.52036 -0.03800
C 	C 	0.12560 0.45073 0.48300 -0.06100
C 	C 	0.20300 0.46568 0.49800 -0.08900
C 	C 	0.18594 0.42635 0.50515 0.03900
C 	C 	0.17695 0.44149 0.53311 -0.09200
H 	H 	0.15850 0.49101 0.53941 0.01900
H 	H 	0.11257 0.43612 0.52007 0.01200
H 	H 	0.21013 0.45673 0.47817 0.04000
H 	H 	0.23513 0.49485 0.52265 0.03800
H 	H 	0.20951 0.46926 0.55832 0.03900
H 	H 	0.16344 0.41449 0.53869 0.04000
C 	C 	0.13942 0.38791 0.47018 -0.09000
H 	H 	0.12481 0.35884 0.47341 0.04000
H 	H 	0.14460 0.37710 0.44938 0.04200
C 	C 	0.10429 0.40182 0.45769 -0.03900
H 	H 	0.09212 0.39658 0.43057 0.03600
H 	H 	0.07417 0.38035 0.45626 0.03100
C 	C 	0.16754 0.47906 0.48453 -0.04200
H 	H 	0.15671 0.47500 0.45788 0.03300
H 	H 	0.18353 0.51446 0.50229 0.03600
C 	C 	0.16625 0.26586 0.00848 -0.09200
C 	C 	0.12981 0.26994 0.98018 0.04100
C 	C 	0.09310 0.18890 0.93763 -0.04400
C 	C 	0.09571 0.18765 0.97044 -0.04700
C 	C 	0.14648 0.21810 0.00277 -0.05700
H 	H 	0.19634 0.27529 0.00766 0.03700
H 	H 	0.17861 0.28881 0.03518 0.04000
H 	H 	0.05714 0.16794 0.91392 0.04100
H 	H 	0.11240 0.17534 0.93233 0.03700
H 	H 	0.16686 0.20504 0.99884 0.03800
H 	H 	0.14988 0.21864 0.02702 0.03700
C 	C 	0.06865 0.20683 0.97683 -0.03900
H 	H 	0.06989 0.20662 0.00028 0.02500
H 	H 	0.03215 0.18602 0.95392 0.02600
C 	C 	0.08834 0.25441 0.98259 -0.08200
H 	H 	0.06073 0.25583 0.96237 0.03800
H 	H 	0.09901 0.27641 0.00896 0.03300
C 	C 	0.11282 0.23666 0.94328 -0.08900
H 	H 	0.08622 0.23835 0.92239 0.04200
H 	H 	0.14111 0.24523 0.94021 0.04100
C 	C 	0.29232 0.45592 0.97400 -0.04800
C 	C 	0.30883 0.42363 0.97115 -0.04600
C 	C 	0.28624 0.40227 0.00993 -0.09400
C 	C 	0.24172 0.39477 0.97943 0.04000
C 	C 	0.25380 0.43957 0.97900 -0.07900
H 	H 	0.32119 0.48915 0.99651 0.03200
H 	H 	0.27924 0.45899 0.94960 0.03500
H 	H 	0.28040 0.37127 0.01117 0.04000
H 	H 	0.29709 0.42656 0.03556 0.04200
H 	H 	0.26485 0.46514 0.00416 0.03200
H 	H 	0.22334 0.43589 0.95709 0.03700
C 	C 	0.22834 0.36129 0.94414 -0.08800
H 	H 	0.19699 0.35576 0.92172 0.04000
H 	H 	0.22042 0.32882 0.94300 0.04000
C 	C 	0.26722 0.37793 0.93944 -0.04600
H 	H 	0.27788 0.35377 0.93668 0.03300
H 	H 	0.25394 0.37981 0.91451 0.03400
C 	C 	0.32517 0.41909 0.00518 -0.04900
H 	H 	0.33726 0.39587 0.00396 0.03700
H 	H 	0.35447 0.45146 0.02857 0.03800
C 	C 	0.02697 0.38022 0.95477 -0.02800
C 	C 	0.04840 0.42184 0.95189 -0.06900
C 	C 	0.12743 0.44172 0.00013 -0.10900
C 	C 	0.10574 0.39386 0.97233 0.04800
C 	C 	0.06049 0.36449 0.96736 -0.09600
H 	H 	0.01783 0.38733 0.97353 0.01700
H 	H 	0.99488 0.35335 0.92879 0.02500
H 	H 	0.15912 0.46464 0.00410 0.04000
H 	H 	0.13711 0.44320 0.02596 0.04100
H 	H 	0.06796 0.36568 0.99273 0.04200
H 	H 	0.04358 0.32963 0.94784 0.04200
C 	C 	0.09231 0.39322 0.93655 -0.09200
H 	H 	0.07565 0.35910 0.91590 0.04200
H 	H 	0.12289 0.41409 0.93830 0.04100
C 	C 	0.05981 0.41021 0.92509 -0.03800
H 	H 	0.07581 0.43977 0.92275 0.03400
H 	H 	0.02818 0.38446 0.89847 0.03300
C 	C 	0.09386 0.45779 0.98847 -0.02100
H 	H 	0.11002 0.48835 0.98730 0.03100
H 	H 	0.08703 0.46632 0.00855 0.01100
C 	C 	0.40732 0.04661 0.44826 -0.04200
C 	C 	0.45318 0.08225 0.48446 -0.05900
C 	C 	0.44672 0.14085 0.46776 -0.09100
C 	C 	0.40021 0.11422 0.46202 0.03900
C 	C 	0.37696 0.06541 0.43480 -0.09100
H 	H 	0.41354 0.03418 0.42850 0.02000
H 	H 	0.46568 0.17581 0.48799 0.03900
H 	H 	0.44064 0.14024 0.44282 0.03700
H 	H 	0.37008 0.06332 0.40933 0.03800
H 	H 	0.34366 0.04403 0.42936 0.03900
C 	C 	0.41133 0.11619 0.49773 -0.09000
H 	H 	0.37963 0.09640 0.49513 0.04100
H 	H 	0.42810 0.15074 0.51776 0.04200
C 	C 	0.44262 0.09850 0.51101 -0.03900
H 	H 	0.47479 0.12509 0.53705 0.03700
H 	H 	0.42595 0.07112 0.51512 0.03500
C 	C 	0.47704 0.12168 0.48016 -0.03900
H 	H 	0.51036 0.14778 0.50561 0.02300
H 	H 	0.48430 0.11107 0.46070 0.01600
C 	C 	0.35679 0.26558 0.45849 -0.08900
C 	C 	0.38371 0.24291 0.45651 0.03800
C 	C 	0.41236 0.29079 0.43188 -0.04200
C 	C 	0.42483 0.32464 0.46636 -0.05300
C 	C 	0.38039 0.31272 0.46373 -0.04400
H 	H 	0.32159 0.24585 0.43387 0.04000
H 	H 	0.35437 0.26787 0.48094 0.03900
H 	H 	0.44377 0.29821 0.43315 0.02800
H 	H 	0.38983 0.29322 0.40904 0.03000
H 	H 	0.35656 0.31476 0.44126 0.03600
H 	H 	0.38813 0.33668 0.48806 0.03100
C 	C 	0.45608 0.31992 0.49746 -0.04300
H 	H 	0.46515 0.34352 0.52260 0.03900
H 	H 	0.48846 0.32808 0.50018 0.04000
C 	C 	0.43236 0.27254 0.49166 -0.08900
H 	H 	0.45394 0.25896 0.49185 0.04000
H 	H 	0.43027 0.27345 0.51408 0.04200
C 	C 	0.38786 0.24328 0.42583 -0.09000
H 	H 	0.40716 0.22810 0.42302 0.03900
H 	H 	0.35331 0.22336 0.40053 0.04100
C 	C 	0.22601 0.06373 0.47013 -0.04600
C 	C 	0.21571 0.10013 0.47862 -0.04700
C 	C 	0.29464 0.15650 0.49835 -0.08800
C 	C 	0.27311 0.12170 0.46044 0.03700
C 	C 	0.25958 0.07628 0.45994 -0.08700
H 	H 	0.24082 0.05850 0.49332 0.03100
H 	H 	0.19395 0.03209 0.44796 0.03800
H 	H 	0.30388 0.18951 0.50029 0.04000
H 	H 	0.32669 0.15950 0.51745 0.04100
H 	H 	0.29044 0.07742 0.47883 0.03900
H 	H 	0.24330 0.04995 0.43319 0.04000
C 	C 	0.22814 0.11806 0.43464 -0.08600
H 	H 	0.21135 0.09251 0.40743 0.04400
H 	H 	0.23493 0.14945 0.43396 0.04100
C 	C 	0.19512 0.10615 0.44552 -0.05000
H 	H 	0.18763 0.13248 0.45091 0.03700
H 	H 	0.16227 0.07541 0.42309 0.04700
C 	C 	0.26145 0.14385 0.50897 -0.04400
H 	H 	0.25509 0.17078 0.51574 0.03500
H 	H 	0.27759 0.14049 0.53301 0.03700
C 	C 	0.39834 0.10529 0.97730 -0.03200
C 	C 	0.37863 0.05866 0.94891 -0.06100
C 	C 	0.29886 0.04252 0.92672 -0.09000
C 	C 	0.32161 0.08658 0.92644 0.04000
C 	C 	0.36486 0.12101 0.96462 -0.09200
H 	H 	0.40516 0.10531 0.00225 0.03100
H 	H 	0.43145 0.12899 0.98343 0.02500
H 	H 	0.26888 0.01619 0.89962 0.03900
H 	H 	0.28672 0.04660 0.94370 0.04100
H 	H 	0.35472 0.12697 0.98282 0.04400
H 	H 	0.38306 0.15316 0.96618 0.04100
C 	C 	0.33751 0.07806 0.90220 -0.09400
H 	H 	0.35546 0.10874 0.90188 0.03900
H 	H 	0.30737 0.05349 0.87468 0.03900
C 	C 	0.37016 0.06104 0.91495 -0.03700
H 	H 	0.35495 0.02791 0.89366 0.02000
H 	H 	0.40310 0.08326 0.92011 0.01600
C 	C 	0.33232 0.02721 0.94055 -0.03900
C 	C 	0.35799 0.24744 0.96138 -0.08900
C 	C 	0.30875 0.21799 0.92694 0.03900
C 	C 	0.30504 0.28764 0.93454 -0.04400
C 	C 	0.34907 0.29973 0.93648 -0.05200
C 	C 	0.38106 0.29499 0.96724 -0.04300
H 	H 	0.35714 0.24811 0.98426 0.04300
H 	H 	0.37921 0.23383 0.96049 0.04000
H 	H 	0.28047 0.28892 0.91192 0.03600
H 	H 	0.31310 0.31196 0.95887 0.03200
H 	H 	0.39039 0.31832 0.99260 0.04200
H 	H 	0.41325 0.30357 0.96954 0.04100
C 	C 	0.33586 0.26587 0.90167 -0.04300
H 	H 	0.36695 0.27311 0.90248 0.02700
H 	H 	0.31309 0.26845 0.87904 0.02900
C 	C 	0.31135 0.21835 0.89561 -0.09000
H 	H 	0.27633 0.19879 0.87081 0.04300
H 	H 	0.32990 0.20276 0.89177 0.03900
C 	C 	0.28240 0.24085 0.93013 -0.08900
H 	H 	0.24649 0.22074 0.90638 0.04100
H 	H 	0.28201 0.24409 0.95353 0.04000
C 	C 	0.15659 0.09884 0.90994 -0.08600
C 	C 	0.19734 0.09272 0.92837 0.03700
C 	C 	0.19152 0.10448 0.98054 -0.04500
C 	C 	0.14220 0.06780 0.94815 -0.04500
C 	C 	0.12571 0.08597 0.92255 -0.05100
H 	H 	0.16838 0.13340 0.91539 0.04100
H 	H 	0.13620 0.07823 0.88090 0.04800
H 	H 	0.20486 0.09220 0.99916 0.03600
H 	H 	0.19176 0.13331 0.99495 0.03900
H 	H 	0.12586 0.11528 0.93595 0.03800
H 	H 	0.09006 0.06114 0.89935 0.04600
C 	C 	0.14368 0.02840 0.92935 -0.04700
H 	H 	0.10905 0.00172 0.90546 0.04200
H 	H 	0.15501 0.01436 0.94702 0.03300
C 	C 	0.17642 0.04297 0.91859 -0.08700
H 	H 	0.20393 0.03685 0.93225 0.03900
H 	H 	0.15741 0.02218 0.88973 0.04100
C 	C 	0.22327 0.11957 0.96894 -0.08800
H 	H 	0.25251 0.11566 0.98277 0.04200
H 	H 	0.23758 0.15526 0.97736 0.04100
Zn	Zn	0.07172 0.07813 0.99173 1.18400
Zn	Zn	0.99650 0.04704 0.91776 1.19000
O 	O 	0.97851 0.02717 0.86749 -0.45200
C 	C 	0.10977 0.05306 0.95820 0.27200
C 	C 	0.07605 0.14141 0.96566 0.28900
O 	O 	0.12070 0.07771 0.98903 -0.46300
O 	O 	0.06735 0.02081 0.93366 -0.35300
O 	O 	0.01024 0.05312 0.96550 -0.77100
O 	O 	0.04593 0.10722 0.93351 -0.45600
O 	O 	0.08677 0.13607 0.99366 -0.46300
O 	O 	0.91213 0.01502 0.94070 -0.45300
C 	C 	0.91027 0.04248 0.96280 0.29000
C 	C 	0.98673 0.99918 0.85284 0.30400
H 	H 	0.01723 0.01314 0.01290 0.16100
Zn	Zn	0.14706 0.10820 0.52504 1.18200
Zn	Zn	0.06967 0.07733 0.45199 1.19300
O 	O 	0.04716 0.05978 0.40091 -0.44700
C 	C 	0.18242 0.08711 0.48810 0.27600
C 	C 	0.14897 0.17207 0.49967 0.29100
O 	O 	0.19484 0.10920 0.52007 -0.46900
O 	O 	0.13968 0.05564 0.46354 -0.37100
O 	O 	0.08547 0.08137 0.49978 -0.77600
O 	O 	0.11722 0.13834 0.46744 -0.45600
O 	O 	0.16006 0.16628 0.52750 -0.46600
O 	O 	0.98733 0.03975 0.47525 -0.45800
C 	C 	0.98326 0.06424 0.49736 0.28500
O 	O 	0.00279 0.07084 0.52981 -0.49000
C 	C 	0.05309 0.03202 0.38319 0.30500
H 	H 	0.09426 0.03779 0.54551 0.15900
C 	C 	0.99899 0.00449 0.82854 -0.10400
C 	C 	0.01880 0.00931 0.77960 0.01700
C 	C 	0.97866 0.01882 0.80529 0.01300
C 	C 	0.98832 0.02097 0.78076 -0.06700
H 	H 	0.97199 0.03151 0.76260 0.04500
H 	H 	0.95469 0.02737 0.80567 0.02300
C 	C 	0.05240 0.03313 0.35263 -0.09600
C 	C 	0.02399 0.04401 0.33093 0.00400
C 	C 	0.01986 0.04063 0.29997 -0.04400
C 	C 	0.04426 0.02650 0.29048 0.00000
C 	C 	0.03744 0.01989 0.25660 0.09900
N 	N 	0.02841 0.04611 0.24308 -0.08800
N 	N 	0.01957 0.03853 0.21154 -0.08700
H 	H 	0.00406 0.05380 0.33745 0.02800
H 	H 	0.99677 0.04787 0.28293 0.03700
H 	H 	0.11002 0.98835 0.98730 0.03000
H 	H 	0.38897 0.51802 0.45062 0.03100
H 	H 	0.42595 0.57112 0.51512 0.03500
H 	H 	0.19395 0.53209 0.44796 0.03700
C 	C 	0.33232 0.52721 0.94055 -0.04200
H 	H 	0.31736 0.49320 0.92066 0.03200
H 	H 	0.33755 0.52643 0.96488 0.03800
H 	H 	0.10905 0.50172 0.90546 0.04100
C 	C 	0.73030 0.10885 0.91808 0.00300
C 	C 	0.75020 0.15247 0.92388 -0.05800
C 	C 	0.78701 0.17054 0.92135 0.00200
C 	C 	0.80674 0.14587 0.91690 -0.05800
C 	C 	0.78977 0.10410 0.91465 0.00100
C 	C 	0.74713 0.08350 0.90882 -0.05800
H 	H 	0.73862 0.17263 0.93209 0.03500
H 	H 	0.83730 0.16051 0.91801 0.03300
H 	H 	0.72756 0.04824 0.89745 0.03600
C 	C 	0.80695 0.13589 0.45066 0.00200
C 	C 	0.82308 0.17675 0.45118 -0.05900
C 	C 	0.86184 0.19555 0.45109 0.00200
C 	C 	0.88353 0.17210 0.44957 -0.05900
C 	C 	0.86842 0.13180 0.45005 0.00200
C 	C 	0.82686 0.11170 0.44592 -0.05900
H 	H 	0.80653 0.19438 0.45317 0.03500
H 	H 	0.91273 0.18596 0.44903 0.03400
H 	H 	0.81231 0.07859 0.44188 0.03500
C 	C 	0.70270 0.37671 0.98382 0.00200
C 	C 	0.67915 0.39831 0.98492 -0.05700
C 	C 	0.63946 0.37818 0.98334 0.00000
C 	C 	0.62909 0.34108 0.98836 -0.05800
C 	C 	0.65002 0.31732 0.98533 0.00200
C 	C 	0.68760 0.33600 0.98389 -0.05800
H 	H 	0.69045 0.42992 0.98587 0.03600
H 	H 	0.60577 0.33149 0.99538 0.03600
H 	H 	0.70425 0.31836 0.98186 0.03600
C 	C 	0.78294 0.40728 0.51990 0.00200
C 	C 	0.76083 0.43034 0.52132 -0.05900
C 	C 	0.71922 0.41031 0.51722 0.00100
C 	C 	0.70577 0.37207 0.52052 -0.05900
C 	C 	0.72672 0.34785 0.51894 0.00100
C 	C 	0.76570 0.36608 0.51901 -0.05800
H 	H 	0.77621 0.46380 0.52627 0.03500
H 	H 	0.67782 0.36055 0.52275 0.03400
H 	H 	0.78161 0.34758 0.51714 0.03400
O 	O 	0.48913 0.46937 0.86252 -0.48000
O 	O 	0.47899 0.41329 0.90658 -0.50100
O 	O 	0.45121 0.48776 0.90399 -0.87100
O 	O 	0.52444 0.47478 0.95973 -0.45100
Zn	Zn	0.36913 0.41536 0.91992 1.17100
Zn	Zn	0.45087 0.43704 0.98269 1.18700
Zn	Zn	0.46791 0.49330 0.94964 1.21700
C 	C 	0.37165 0.34595 0.94163 0.29500
C 	C 	0.34623 0.44006 0.96573 0.28800
O 	O 	0.41213 0.51502 0.94070 -0.45300
Zn	Zn	0.45402 0.51682 0.00986 1.19500
O 	O 	0.41574 0.37371 0.96644 -0.46100
O 	O 	0.34748 0.35662 0.91956 -0.46700
O 	O 	0.33493 0.43227 0.93402 -0.49100
O 	O 	0.38830 0.45340 0.99053 -0.46100
C 	C 	0.48192 0.48511 0.05919 0.31400
O 	O 	0.42672 0.43304 0.93395 -0.80700
C 	C 	0.41027 0.54248 0.96280 0.29000
O 	O 	0.47426 0.45138 0.03439 -0.44200
O 	O 	0.48285 0.51939 0.05542 -0.47900
O 	O 	0.42665 0.54736 0.99465 -0.49400
O 	O 	0.48413 0.49805 0.99469 -0.89100
Zn	Zn	0.46028 0.44460 0.88387 1.18400
C 	C 	0.51505 0.43652 0.93933 0.29300
H 	H 	0.51723 0.51314 0.01290 0.15200
H 	H 	0.41954 0.48032 0.88886 0.14200
O 	O 	0.56227 0.50490 0.39368 -0.47800
O 	O 	0.55877 0.44459 0.43663 -0.49800
O 	O 	0.52666 0.51692 0.43783 -0.87300
O 	O 	0.60115 0.50293 0.49117 -0.45100
Zn	Zn	0.44614 0.44161 0.45196 1.17200
Zn	Zn	0.52773 0.46117 0.51371 1.18700
Zn	Zn	0.54432 0.52048 0.48298 1.21700
C 	C 	0.44796 0.37080 0.47168 0.29500
C 	C 	0.42414 0.46435 0.49880 0.29000
O 	O 	0.48733 0.53975 0.47525 -0.45700
Zn	Zn	0.53157 0.54090 0.54406 1.19900
O 	O 	0.49243 0.39745 0.49542 -0.46400
O 	O 	0.42408 0.38200 0.44999 -0.46700
O 	O 	0.41228 0.45749 0.46713 -0.48900
O 	O 	0.46594 0.47617 0.52279 -0.46600
C 	C 	0.55684 0.50480 0.59017 0.31500
O 	O 	0.50381 0.45961 0.46589 -0.80600
C 	C 	0.48326 0.56424 0.49736 0.29300
O 	O 	0.54860 0.47191 0.56432 -0.43900
O 	O 	0.56022 0.54075 0.58855 -0.47800
O 	O 	0.50279 0.57084 0.52981 -0.49800
O 	O 	0.56112 0.52306 0.52762 -0.89800
Zn	Zn	0.53852 0.47740 0.41665 1.18500
C 	C 	0.59188 0.46501 0.47027 0.29000
H 	H 	0.59426 0.53779 0.54551 0.15900
H 	H 	0.49449 0.50820 0.42277 0.14400
C 	C 	0.49899 0.50449 0.82854 -0.09800
C 	C 	0.53004 0.49356 0.82769 0.00800
C 	C 	0.54017 0.49634 0.80361 -0.05600
C 	C 	0.51880 0.50931 0.77960 0.00400
C 	C 	0.52702 0.50898 0.75250 0.09500
N 	N 	0.56951 0.52296 0.76066 -0.08900
N 	N 	0.57646 0.51969 0.73567 -0.08900
C 	C 	0.54103 0.50196 0.70174 0.09500
N 	N 	0.49856 0.48817 0.69360 -0.08900
N 	N 	0.49165 0.49157 0.71861 -0.08900
C 	C 	0.54890 0.49960 0.67426 0.00500
C 	C 	0.59158 0.53502 0.65417 0.01200
C 	C 	0.55838 0.49975 0.61983 -0.09700
C 	C 	0.52200 0.46310 0.61331 0.01200
C 	C 	0.51711 0.46313 0.64035 -0.05500
C 	C 	0.58696 0.53491 0.68130 -0.05600
H 	H 	0.54632 0.48286 0.84570 0.03000
H 	H 	0.56386 0.48741 0.80307 0.04400
H 	H 	0.61195 0.56308 0.70741 0.04400
H 	H 	0.61998 0.56335 0.65954 0.02000
H 	H 	0.48806 0.43528 0.63474 0.04400
H 	H 	0.49615 0.43567 0.58688 0.02800
C 	C 	0.55241 0.53313 0.35263 -0.09900
C 	C 	0.54426 0.52650 0.29048 0.00400
C 	C 	0.57804 0.52054 0.34376 0.00800
C 	C 	0.53744 0.51989 0.25660 0.09500
N 	N 	0.52841 0.54611 0.24308 -0.08900
N 	N 	0.51957 0.53853 0.21154 -0.08900
C 	C 	0.51955 0.50453 0.19259 0.09500
N 	N 	0.52936 0.47875 0.20635 -0.08900
N 	N 	0.53816 0.48630 0.23789 -0.08900
C 	C 	0.50657 0.49439 0.15670 0.00600
C 	C 	0.46212 0.49357 0.10181 0.01300
C 	C 	0.48738 0.48367 0.09091 -0.09600
C 	C 	0.52074 0.47687 0.11222 0.01200
C 	C 	0.53038 0.48228 0.14508 -0.05600
C 	C 	0.57403 0.51730 0.31290 -0.05500
C 	C 	0.47158 0.49882 0.13446 -0.05500
H 	H 	0.59382 0.50732 0.30631 0.04400
H 	H 	0.60068 0.51274 0.36056 0.02900
H 	H 	0.45219 0.50704 0.14273 0.04500
H 	H 	0.43587 0.49829 0.08530 0.02300
H 	H 	0.55726 0.47845 0.16190 0.04400
H 	H 	0.54031 0.46903 0.10396 0.02200
C 	C 	0.66207 0.28509 0.51403 -0.08800
C 	C 	0.70537 0.30052 0.51391 0.03800
C 	C 	0.71967 0.24912 0.53829 -0.04200
C 	C 	0.66976 0.21844 0.50470 -0.05200
C 	C 	0.64166 0.23772 0.50877 -0.04300
H 	H 	0.67089 0.30751 0.53949 0.03800
H 	H 	0.63536 0.28595 0.49249 0.03900
H 	H 	0.74085 0.23608 0.53609 0.03100
H 	H 	0.72098 0.24995 0.56195 0.03500
H 	H 	0.64107 0.23798 0.53167 0.02900
H 	H 	0.60570 0.21668 0.48501 0.02700
C 	C 	0.67009 0.21931 0.47276 -0.04400
H 	H 	0.63484 0.19824 0.44814 0.04300
H 	H 	0.69022 0.20564 0.46921 0.03500
C 	C 	0.69068 0.26689 0.47809 -0.08900
H 	H 	0.72023 0.27523 0.47660 0.04000
H 	H 	0.66520 0.26834 0.45615 0.04200
C 	C 	0.74026 0.29675 0.54369 -0.09000
H 	H 	0.77155 0.30617 0.54452 0.04000
H 	H 	0.75090 0.31992 0.56966 0.04100
C 	C 	0.84364 0.40581 0.47267 -0.04300
C 	C 	0.88755 0.44960 0.50516 -0.05400
C 	C 	0.83684 0.46986 0.51652 -0.08800
C 	C 	0.82168 0.42376 0.51500 0.03800
C 	C 	0.80572 0.39064 0.47850 -0.08900
H 	H 	0.83068 0.40994 0.44875 0.03500
H 	H 	0.85151 0.37977 0.46745 0.03100
H 	H 	0.84931 0.49504 0.54244 0.03900
H 	H 	0.80742 0.46861 0.49561 0.03900
H 	H 	0.77488 0.38723 0.45725 0.04100
H 	H 	0.79600 0.35741 0.47618 0.04000
C 	C 	0.86503 0.42773 0.54382 -0.09000
H 	H 	0.85705 0.39584 0.54386 0.04100
H 	H 	0.87792 0.45199 0.57027 0.04500
C 	C 	0.90307 0.44226 0.53789 -0.04200
H 	H 	0.93430 0.47308 0.56184 0.04000
H 	H 	0.91192 0.41669 0.53426 0.03600
C 	C 	0.87523 0.48487 0.51122 -0.04400
H 	H 	0.90582 0.51646 0.53481 0.02900
H 	H 	0.86400 0.49116 0.48833 0.03400
C 	C 	0.64219 0.45609 0.52036 -0.03800
C 	C 	0.62560 0.45073 0.48300 -0.06200
C 	C 	0.70300 0.46568 0.49800 -0.08900
C 	C 	0.68595 0.42635 0.50515 0.03900
C 	C 	0.67695 0.44149 0.53311 -0.09200
H 	H 	0.65850 0.49101 0.53941 0.01800
H 	H 	0.61257 0.43612 0.52007 0.01100
H 	H 	0.71013 0.45673 0.47817 0.04000
H 	H 	0.73513 0.49485 0.52265 0.03800
H 	H 	0.70951 0.46926 0.55832 0.03900
H 	H 	0.66344 0.41449 0.53869 0.04000
C 	C 	0.63943 0.38791 0.47018 -0.09000
H 	H 	0.62481 0.35884 0.47341 0.04000
H 	H 	0.64460 0.37710 0.44938 0.04200
C 	C 	0.60429 0.40182 0.45769 -0.03900
H 	H 	0.59212 0.39658 0.43057 0.03500
H 	H 	0.57417 0.38035 0.45626 0.02900
C 	C 	0.66754 0.47906 0.48453 -0.04200
H 	H 	0.65671 0.47500 0.45788 0.03300
H 	H 	0.68353 0.51446 0.50229 0.03500
C 	C 	0.66625 0.26586 0.00848 -0.09200
C 	C 	0.62981 0.26994 0.98018 0.04000
C 	C 	0.59310 0.18890 0.93763 -0.04400
C 	C 	0.59571 0.18765 0.97044 -0.04700
C 	C 	0.64648 0.21810 0.00277 -0.05600
H 	H 	0.69634 0.27529 0.00766 0.03700
H 	H 	0.67861 0.28881 0.03518 0.03900
H 	H 	0.55714 0.16794 0.91392 0.04000
H 	H 	0.61240 0.17534 0.93233 0.03600
H 	H 	0.66686 0.20504 0.99884 0.03800
H 	H 	0.64988 0.21864 0.02702 0.03700
C 	C 	0.56865 0.20683 0.97683 -0.03800
H 	H 	0.56989 0.20662 0.00028 0.02400
H 	H 	0.53215 0.18602 0.95392 0.02400
C 	C 	0.58834 0.25441 0.98259 -0.08200
H 	H 	0.56073 0.25583 0.96237 0.03800
H 	H 	0.59901 0.27641 0.00896 0.03200
C 	C 	0.61282 0.23666 0.94328 -0.08900
H 	H 	0.58622 0.23835 0.92239 0.04100
H 	H 	0.64111 0.24523 0.94021 0.04100
C 	C 	0.79232 0.45592 0.97400 -0.04800
C 	C 	0.80883 0.42363 0.97115 -0.04600
C 	C 	0.78624 0.40227 0.00993 -0.09300
C 	C 	0.74172 0.39477 0.97943 0.04000
C 	C 	0.75380 0.43957 0.97900 -0.07900
H 	H 	0.82119 0.48915 0.99651 0.03200
H 	H 	0.77924 0.45899 0.94960 0.03400
H 	H 	0.78040 0.37127 0.01117 0.03900
H 	H 	0.79709 0.42656 0.03556 0.04200
H 	H 	0.76485 0.46514 0.00416 0.03200
H 	H 	0.72334 0.43589 0.95709 0.03700
C 	C 	0.72835 0.36129 0.94414 -0.08800
H 	H 	0.69699 0.35576 0.92172 0.04000
H 	H 	0.72042 0.32882 0.94300 0.04000
C 	C 	0.76722 0.37793 0.93944 -0.04600
H 	H 	0.77788 0.35377 0.93668 0.03300
H 	H 	0.75394 0.37981 0.91451 0.03400
C 	C 	0.82517 0.41909 0.00518 -0.04900
H 	H 	0.83726 0.39587 0.00396 0.03700
H 	H 	0.85447 0.45146 0.02857 0.03800
C 	C 	0.52697 0.38022 0.95477 -0.03700
C 	C 	0.54840 0.42184 0.95189 -0.06500
C 	C 	0.62743 0.44172 0.00013 -0.10800
C 	C 	0.60574 0.39386 0.97233 0.04700
C 	C 	0.56049 0.36449 0.96736 -0.09300
H 	H 	0.51783 0.38733 0.97353 0.01700
H 	H 	0.49488 0.35335 0.92879 0.03200
H 	H 	0.65912 0.46464 0.00410 0.04000
H 	H 	0.63711 0.44320 0.02596 0.04000
H 	H 	0.56796 0.36568 0.99273 0.04100
H 	H 	0.54358 0.32963 0.94784 0.04000
C 	C 	0.59231 0.39322 0.93655 -0.09200
H 	H 	0.57565 0.35910 0.91590 0.04100
H 	H 	0.62289 0.41409 0.93830 0.04100
C 	C 	0.55981 0.41021 0.92509 -0.04000
H 	H 	0.57581 0.43977 0.92275 0.03400
H 	H 	0.52818 0.38446 0.89847 0.03100
C 	C 	0.59386 0.45779 0.98847 -0.02200
H 	H 	0.61002 0.48835 0.98730 0.03100
H 	H 	0.58703 0.46632 0.00855 0.01000
C 	C 	0.90732 0.04661 0.44826 -0.04300
C 	C 	0.95318 0.08225 0.48446 -0.05600
C 	C 	0.94672 0.14085 0.46776 -0.08800
C 	C 	0.90021 0.11422 0.46202 0.03800
C 	C 	0.87696 0.06541 0.43480 -0.09000
H 	H 	0.91354 0.03418 0.42850 0.02000
H 	H 	0.96568 0.17581 0.48799 0.03700
H 	H 	0.94064 0.14024 0.44282 0.03600
H 	H 	0.87008 0.06332 0.40933 0.03700
H 	H 	0.84366 0.04403 0.42936 0.03900
C 	C 	0.91133 0.11619 0.49773 -0.09000
H 	H 	0.87963 0.09640 0.49513 0.04000
H 	H 	0.92810 0.15074 0.51776 0.04100
C 	C 	0.94262 0.09850 0.51101 -0.04000
H 	H 	0.97479 0.12509 0.53705 0.03500
H 	H 	0.92595 0.07112 0.51512 0.03500
C 	C 	0.97704 0.12168 0.48016 -0.04800
H 	H 	0.01036 0.14778 0.50561 0.03000
H 	H 	0.98430 0.11107 0.46070 0.01600
C 	C 	0.85679 0.26558 0.45849 -0.08900
C 	C 	0.88371 0.24291 0.45651 0.03800
C 	C 	0.91236 0.29079 0.43188 -0.04200
C 	C 	0.92483 0.32464 0.46636 -0.05300
C 	C 	0.88039 0.31272 0.46373 -0.04300
H 	H 	0.82159 0.24585 0.43387 0.04000
H 	H 	0.85437 0.26787 0.48094 0.03900
H 	H 	0.94377 0.29821 0.43315 0.02700
H 	H 	0.88983 0.29322 0.40904 0.02900
H 	H 	0.85656 0.31476 0.44126 0.03600
H 	H 	0.88813 0.33668 0.48806 0.03100
C 	C 	0.95608 0.31992 0.49746 -0.04200
H 	H 	0.96515 0.34352 0.52260 0.03800
H 	H 	0.98846 0.32808 0.50018 0.03900
C 	C 	0.93236 0.27254 0.49166 -0.08900
H 	H 	0.95394 0.25896 0.49185 0.03900
H 	H 	0.93027 0.27345 0.51408 0.04100
C 	C 	0.88786 0.24328 0.42583 -0.09000
H 	H 	0.90716 0.22810 0.42302 0.03800
H 	H 	0.85331 0.22336 0.40053 0.04100
C 	C 	0.72601 0.06373 0.47013 -0.04600
C 	C 	0.71571 0.10013 0.47862 -0.04700
C 	C 	0.79464 0.15650 0.49835 -0.08800
C 	C 	0.77311 0.12170 0.46044 0.03700
C 	C 	0.75958 0.07628 0.45994 -0.08700
H 	H 	0.74082 0.05850 0.49332 0.03100
H 	H 	0.69395 0.03209 0.44796 0.03700
H 	H 	0.80388 0.18951 0.50029 0.04000
H 	H 	0.82669 0.15950 0.51745 0.04100
H 	H 	0.79044 0.07742 0.47883 0.03900
H 	H 	0.74330 0.04995 0.43319 0.04000
C 	C 	0.72814 0.11806 0.43464 -0.08600
H 	H 	0.71135 0.09251 0.40743 0.04400
H 	H 	0.73493 0.14945 0.43396 0.04100
C 	C 	0.69512 0.10615 0.44552 -0.05000
H 	H 	0.68763 0.13248 0.45091 0.03700
H 	H 	0.66227 0.07541 0.42309 0.04700
C 	C 	0.76145 0.14385 0.50897 -0.04400
H 	H 	0.75509 0.17078 0.51574 0.03500
H 	H 	0.77759 0.14049 0.53301 0.03700
C 	C 	0.89834 0.10529 0.97730 -0.03300
C 	C 	0.87863 0.05866 0.94891 -0.06100
C 	C 	0.79886 0.04252 0.92672 -0.09000
C 	C 	0.82161 0.08658 0.92644 0.04000
C 	C 	0.86486 0.12101 0.96462 -0.09200
H 	H 	0.90516 0.10531 0.00225 0.03100
H 	H 	0.93144 0.12899 0.98343 0.02400
H 	H 	0.76889 0.01619 0.89962 0.03900
H 	H 	0.78672 0.04660 0.94370 0.04100
H 	H 	0.85472 0.12697 0.98282 0.04400
H 	H 	0.88306 0.15316 0.96618 0.04000
C 	C 	0.83751 0.07806 0.90220 -0.09400
H 	H 	0.85546 0.10874 0.90188 0.03800
H 	H 	0.80737 0.05349 0.87468 0.03900
C 	C 	0.87016 0.06104 0.91495 -0.03700
H 	H 	0.85495 0.02791 0.89366 0.02000
H 	H 	0.90310 0.08326 0.92011 0.01500
C 	C 	0.83232 0.02721 0.94055 -0.03900
C 	C 	0.85799 0.24744 0.96138 -0.08900
C 	C 	0.80875 0.21799 0.92694 0.03900
C 	C 	0.80504 0.28764 0.93454 -0.04400
C 	C 	0.84907 0.29973 0.93648 -0.05200
C 	C 	0.88106 0.29499 0.96724 -0.04300
H 	H 	0.85714 0.24811 0.98426 0.04200
H 	H 	0.87921 0.23383 0.96049 0.03900
H 	H 	0.78047 0.28892 0.91192 0.03600
H 	H 	0.81310 0.31196 0.95887 0.03200
H 	H 	0.89039 0.31832 0.99260 0.04100
H 	H 	0.91325 0.30357 0.96954 0.04000
C 	C 	0.83586 0.26587 0.90167 -0.04300
H 	H 	0.86695 0.27311 0.90248 0.02700
H 	H 	0.81309 0.26845 0.87904 0.02900
C 	C 	0.81135 0.21835 0.89561 -0.09000
H 	H 	0.77633 0.19879 0.87081 0.04200
H 	H 	0.82990 0.20276 0.89177 0.03900
C 	C 	0.78240 0.24085 0.93013 -0.08900
H 	H 	0.74649 0.22074 0.90638 0.04100
H 	H 	0.78202 0.24409 0.95353 0.04000
C 	C 	0.65659 0.09884 0.90994 -0.08700
C 	C 	0.69734 0.09272 0.92837 0.03700
C 	C 	0.69152 0.10448 0.98054 -0.04500
C 	C 	0.64221 0.06780 0.94815 -0.04600
C 	C 	0.62571 0.08597 0.92255 -0.05100
H 	H 	0.66838 0.13340 0.91539 0.04100
H 	H 	0.63620 0.07823 0.88090 0.04800
H 	H 	0.70486 0.09220 0.99916 0.03600
H 	H 	0.69176 0.13331 0.99495 0.03900
H 	H 	0.62586 0.11528 0.93595 0.03800
H 	H 	0.59006 0.06114 0.89935 0.04500
C 	C 	0.64368 0.02840 0.92935 -0.04700
H 	H 	0.60905 0.00172 0.90546 0.04200
H 	H 	0.65501 0.01436 0.94702 0.03200
C 	C 	0.67642 0.04297 0.91859 -0.08700
H 	H 	0.70393 0.03685 0.93225 0.03900
H 	H 	0.65741 0.02218 0.88973 0.04100
C 	C 	0.72327 0.11957 0.96894 -0.08900
H 	H 	0.75251 0.11566 0.98277 0.04200
H 	H 	0.73758 0.15526 0.97736 0.04100
Zn	Zn	0.57172 0.07813 0.99173 1.18300
Zn	Zn	0.49650 0.04704 0.91776 1.19200
O 	O 	0.47851 0.02717 0.86749 -0.44900
C 	C 	0.60977 0.05306 0.95820 0.27200
C 	C 	0.57605 0.14141 0.96566 0.28900
O 	O 	0.62070 0.07771 0.98903 -0.46400
O 	O 	0.56735 0.02081 0.93366 -0.35500
O 	O 	0.51024 0.05312 0.96550 -0.77600
O 	O 	0.54592 0.10722 0.93351 -0.45900
O 	O 	0.58678 0.13607 0.99366 -0.46400
O 	O 	0.41213 0.01502 0.94070 -0.45200
C 	C 	0.41027 0.04248 0.96280 0.29100
C 	C 	0.48673 0.99918 0.85284 0.30000
H 	H 	0.51723 0.01314 0.01290 0.15500
Zn	Zn	0.64706 0.10820 0.52504 1.18200
Zn	Zn	0.56967 0.07733 0.45199 1.19300
O 	O 	0.54716 0.05978 0.40091 -0.44800
C 	C 	0.68242 0.08711 0.48810 0.27600
C 	C 	0.64897 0.17207 0.49967 0.29100
O 	O 	0.69484 0.10920 0.52007 -0.46900
O 	O 	0.63968 0.05564 0.46354 -0.37100
O 	O 	0.58547 0.08137 0.49978 -0.77700
O 	O 	0.61722 0.13834 0.46744 -0.45700
O 	O 	0.66006 0.16628 0.52750 -0.46700
O 	O 	0.48733 0.03975 0.47525 -0.45700
C 	C 	0.48326 0.06424 0.49736 0.29300
O 	O 	0.50279 0.07084 0.52981 -0.49700
C 	C 	0.55309 0.03202 0.38319 0.30500
H 	H 	0.59426 0.03779 0.54551 0.15900
C 	C 	0.49899 0.00449 0.82854 -0.09100
C 	C 	0.51880 0.00931 0.77960 0.00600
C 	C 	0.47866 0.01882 0.80529 0.00600
C 	C 	0.48832 0.02097 0.78076 -0.05400
H 	H 	0.47199 0.03151 0.76260 0.04400
H 	H 	0.45469 0.02737 0.80567 0.02600
C 	C 	0.55241 0.03313 0.35263 -0.09800
C 	C 	0.52399 0.04401 0.33093 0.00700
C 	C 	0.51986 0.04063 0.29997 -0.05500
C 	C 	0.54426 0.02650 0.29048 0.00400
C 	C 	0.53744 0.01989 0.25660 0.09700
N 	N 	0.52841 0.04611 0.24308 -0.08900
N 	N 	0.51957 0.03853 0.21154 -0.08900
H 	H 	0.50406 0.05380 0.33745 0.02500
H 	H 	0.49678 0.04787 0.28293 0.04500
H 	H 	0.61002 0.98835 0.98730 0.03000
H 	H 	0.88897 0.51802 0.45062 0.03100
H 	H 	0.92595 0.57112 0.51512 0.03400
H 	H 	0.69395 0.53209 0.44796 0.03700
C 	C 	0.83232 0.52721 0.94055 -0.04200
H 	H 	0.81736 0.49320 0.92066 0.03200
H 	H 	0.83755 0.52643 0.96488 0.03800
H 	H 	0.60905 0.50172 0.90546 0.04100
Zn	Zn	0.99650 0.54704 0.91776 1.18900
O 	O 	0.97851 0.52717 0.86749 -0.45500
C 	C 	0.10977 0.55306 0.95820 0.27200
O 	O 	0.06735 0.52081 0.93366 -0.35400
O 	O 	0.01024 0.55312 0.96550 -0.77200
C 	C 	0.98673 0.49918 0.85284 0.31000
Zn	Zn	0.06967 0.57733 0.45199 1.19300
O 	O 	0.04716 0.55978 0.40091 -0.44700
C 	C 	0.18242 0.58711 0.48810 0.27600
O 	O 	0.13968 0.55564 0.46354 -0.37100
O 	O 	0.08547 0.58137 0.49978 -0.77600
C 	C 	0.05309 0.53202 0.38319 0.30500
C 	C 	0.97866 0.51882 0.80529 0.01500
C 	C 	0.98832 0.52097 0.78076 -0.06800
H 	H 	0.97199 0.53151 0.76260 0.04500
H 	H 	0.95469 0.52737 0.80567 0.02200
C 	C 	0.02399 0.54401 0.33093 0.00400
C 	C 	0.01986 0.54063 0.29997 -0.04500
H 	H 	0.00406 0.55380 0.33745 0.02700
H 	H 	0.99677 0.54787 0.28293 0.03700
H 	H 	0.31736 0.99320 0.92066 0.02900
H 	H 	0.22756 0.54824 0.89745 0.03600
H 	H 	0.31231 0.57859 0.44188 0.03500
C 	C 	0.40732 0.54661 0.44826 -0.04100
C 	C 	0.45318 0.58225 0.48446 -0.05900
C 	C 	0.37696 0.56541 0.43480 -0.09100
H 	H 	0.41354 0.53418 0.42850 0.02000
H 	H 	0.37008 0.56332 0.40933 0.03800
H 	H 	0.34366 0.54403 0.42936 0.03900
C 	C 	0.22601 0.56373 0.47013 -0.04600
C 	C 	0.25958 0.57628 0.45994 -0.08700
H 	H 	0.24082 0.55850 0.49332 0.03100
H 	H 	0.29044 0.57742 0.47883 0.03800
H 	H 	0.24330 0.54995 0.43319 0.03900
H 	H 	0.21135 0.59251 0.40743 0.04400
H 	H 	0.16227 0.57541 0.42309 0.04700
C 	C 	0.29886 0.54252 0.92672 -0.08900
H 	H 	0.26888 0.51619 0.89962 0.03800
H 	H 	0.28671 0.54660 0.94370 0.04000
H 	H 	0.30737 0.55349 0.87468 0.03900
H 	H 	0.35495 0.52791 0.89366 0.01900
H 	H 	0.09006 0.56114 0.89935 0.04500
C 	C 	0.14368 0.52840 0.92935 -0.04700
H 	H 	0.15501 0.51436 0.94702 0.03200
C 	C 	0.17642 0.54297 0.91859 -0.08700
H 	H 	0.20393 0.53685 0.93225 0.03900
H 	H 	0.15741 0.52218 0.88973 0.04100
Zn	Zn	0.49650 0.54704 0.91776 1.19100
O 	O 	0.47851 0.52717 0.86749 -0.45200
C 	C 	0.60977 0.55306 0.95820 0.27200
O 	O 	0.56735 0.52081 0.93366 -0.35600
O 	O 	0.51024 0.55312 0.96550 -0.77700
C 	C 	0.48673 0.49918 0.85284 0.30700
Zn	Zn	0.56967 0.57733 0.45199 1.19300
O 	O 	0.54716 0.55978 0.40091 -0.44800
C 	C 	0.68242 0.58711 0.48810 0.27600
O 	O 	0.63968 0.55564 0.46354 -0.37100
O 	O 	0.58547 0.58137 0.49978 -0.77700
C 	C 	0.55309 0.53202 0.38319 0.30500
C 	C 	0.47866 0.51882 0.80529 0.00800
C 	C 	0.48832 0.52097 0.78076 -0.05500
H 	H 	0.47199 0.53151 0.76260 0.04300
H 	H 	0.45469 0.52737 0.80567 0.02500
C 	C 	0.52399 0.54401 0.33093 0.00800
C 	C 	0.51986 0.54063 0.29997 -0.05500
H 	H 	0.50406 0.55380 0.33745 0.02500
H 	H 	0.49678 0.54787 0.28293 0.04400
H 	H 	0.81736 0.99320 0.92066 0.03000
H 	H 	0.72756 0.54824 0.89745 0.03500
H 	H 	0.81231 0.57859 0.44188 0.03500
C 	C 	0.90732 0.54661 0.44826 -0.04300
C 	C 	0.95318 0.58225 0.48446 -0.05600
C 	C 	0.87696 0.56541 0.43480 -0.09000
H 	H 	0.91354 0.53418 0.42850 0.01900
H 	H 	0.87008 0.56332 0.40933 0.03700
H 	H 	0.84366 0.54403 0.42936 0.03800
C 	C 	0.72601 0.56373 0.47013 -0.04600
C 	C 	0.75958 0.57628 0.45994 -0.08700
H 	H 	0.74082 0.55850 0.49332 0.03100
H 	H 	0.79044 0.57742 0.47883 0.03800
H 	H 	0.74330 0.54995 0.43319 0.03900
H 	H 	0.71135 0.59251 0.40743 0.04400
H 	H 	0.66227 0.57541 0.42309 0.04700
C 	C 	0.79886 0.54252 0.92672 -0.08900
H 	H 	0.76889 0.51619 0.89962 0.03800
H 	H 	0.78672 0.54660 0.94370 0.04000
H 	H 	0.80737 0.55349 0.87468 0.03800
H 	H 	0.85495 0.52791 0.89366 0.01900
H 	H 	0.59006 0.56114 0.89935 0.04400
C 	C 	0.64368 0.52840 0.92935 -0.04700
H 	H 	0.65501 0.51436 0.94702 0.03200
C 	C 	0.67642 0.54297 0.91859 -0.08700
H 	H 	0.70393 0.53685 0.93225 0.03900
H 	H 	0.65741 0.52218 0.88973 0.04100
Zn	Zn	0.96791 0.99330 0.94964 1.21500
Zn	Zn	0.95402 0.01682 0.00986 1.19600
O 	O 	0.98285 0.01939 0.05542 -0.47800
O 	O 	0.98413 0.99804 0.99469 -0.90200
Zn	Zn	0.04432 0.02048 0.48298 1.21800
Zn	Zn	0.03157 0.04090 0.54406 1.20000
O 	O 	0.06022 0.04075 0.58855 -0.47700
Zn	Zn	0.46791 0.99330 0.94964 1.21600
Zn	Zn	0.45402 0.01682 0.00986 1.19600
O 	O 	0.48285 0.01939 0.05542 -0.47600
O 	O 	0.48413 0.99804 0.99469 -0.89500
Zn	Zn	0.54432 0.02048 0.48298 1.21800
Zn	Zn	0.53157 0.04090 0.54406 1.19900
O 	O 	0.56022 0.04075 0.58855 -0.47800
H 	H 	0.95218 0.00704 0.14273 0.04800
H 	H 	0.45219 0.00704 0.14273 0.04800
O 	O 	0.06112 0.02306 0.52762 -0.89600
H 	H 	0.40582 0.01646 0.53481 0.03300
O 	O 	0.56112 0.02306 0.52762 -0.89700
H 	H 	0.90582 0.01646 0.53481 0.03200
O 	O 	0.95122 0.98776 0.90399 -0.87400
O 	O 	0.92665 0.04736 0.99465 -0.49400
C 	C 	0.02702 0.00898 0.75250 0.09900
O 	O 	0.45121 0.98776 0.90399 -0.87300
O 	O 	0.42665 0.04736 0.99465 -0.49300
C 	C 	0.52702 0.00898 0.75250 0.09700
H 	H 	0.33755 0.02643 0.96488 0.03800
H 	H 	0.83755 0.02643 0.96488 0.03800
H 	H 	0.32119 0.98915 0.99651 0.03100
H 	H 	0.82119 0.98915 0.99651 0.03100
C 	C 	0.01955 0.00453 0.19259 0.09800
C 	C 	0.51955 0.00453 0.19259 0.09900
H 	H 	0.93587 0.99829 0.08530 0.02000
H 	H 	0.43587 0.99829 0.08530 0.02200
C 	C 	0.96212 0.99357 0.10181 0.02000
C 	C 	0.97158 0.99882 0.13446 -0.06900
C 	C 	0.46212 0.99357 0.10181 0.01300
C 	C 	0.47158 0.99882 0.13446 -0.05800
N 	N 	0.06951 0.02296 0.76066 -0.08800
N 	N 	0.07645 0.01969 0.73567 -0.09000
C 	C 	0.09158 0.03503 0.65417 0.01600
C 	C 	0.08696 0.03491 0.68130 -0.05100
H 	H 	0.11195 0.06308 0.70741 0.04300
H 	H 	0.11998 0.06335 0.65954 0.02000
N 	N 	0.56951 0.02296 0.76066 -0.08800
N 	N 	0.57646 0.01969 0.73567 -0.08900
C 	C 	0.59158 0.03503 0.65417 0.01600
C 	C 	0.58696 0.03491 0.68130 -0.05200
H 	H 	0.61195 0.06308 0.70741 0.04300
H 	H 	0.61998 0.06335 0.65954 0.02000
C 	C 	0.04017 0.99634 0.80361 -0.06400
C 	C 	0.54017 0.99634 0.80361 -0.05700
C 	C 	0.00657 0.99439 0.15670 0.01400
C 	C 	0.50657 0.99439 0.15670 0.00300
C 	C 	0.98192 0.98511 0.05919 0.31500
C 	C 	0.48192 0.98511 0.05919 0.31100
C 	C 	0.98738 0.98367 0.09091 -0.10700
C 	C 	0.48738 0.98367 0.09091 -0.09600
C 	C 	0.03004 0.99356 0.82769 0.01600
C 	C 	0.53004 0.99356 0.82769 0.00300
C 	C 	0.37016 0.56103 0.91495 -0.03700
C 	C 	0.87016 0.56103 0.91495 -0.03700
H 	H 	0.37963 0.59640 0.49513 0.04000
C 	C 	0.21571 0.60013 0.47862 -0.04700
C 	C 	0.19512 0.60615 0.44552 -0.05000
C 	C 	0.37863 0.55866 0.94891 -0.06000
C 	C 	0.14220 0.56780 0.94815 -0.04500
H 	H 	0.87963 0.59640 0.49513 0.04000
C 	C 	0.71571 0.60013 0.47862 -0.04700
C 	C 	0.69512 0.60615 0.44552 -0.05000
C 	C 	0.87863 0.55866 0.94891 -0.06000
C 	C 	0.64220 0.56780 0.94815 -0.04600
H 	H 	0.13619 0.57823 0.88090 0.04800
H 	H 	0.63620 0.57823 0.88090 0.04800
C 	C 	0.04103 0.00196 0.70174 0.10700
C 	C 	0.54103 0.00196 0.70174 0.10000
Zn	Zn	0.07172 0.57813 0.99173 1.18300
O 	O 	0.12070 0.57771 0.98903 -0.46400
Zn	Zn	0.14706 0.60820 0.52504 1.18200
O 	O 	0.19484 0.60920 0.52007 -0.46900
C 	C 	0.32686 0.61170 0.44592 -0.05900
C 	C 	0.40021 0.61422 0.46202 0.03900
C 	C 	0.44262 0.59850 0.51101 -0.03900
H 	H 	0.48430 0.61107 0.46070 0.01600
C 	C 	0.22814 0.61806 0.43464 -0.08600
C 	C 	0.33751 0.57806 0.90220 -0.09300
Zn	Zn	0.57172 0.57813 0.99173 1.18300
O 	O 	0.62070 0.57771 0.98903 -0.46400
Zn	Zn	0.64706 0.60820 0.52504 1.18200
O 	O 	0.69484 0.60920 0.52007 -0.46900
C 	C 	0.82686 0.61170 0.44592 -0.05900
C 	C 	0.90021 0.61422 0.46202 0.03800
C 	C 	0.94262 0.59850 0.51101 -0.04000
H 	H 	0.98430 0.61107 0.46070 0.01600
C 	C 	0.72814 0.61806 0.43464 -0.08600
C 	C 	0.83751 0.57806 0.90220 -0.09300
H 	H 	0.38897 0.01802 0.45062 0.03200
H 	H 	0.88897 0.01802 0.45062 0.03200
C 	C 	0.12571 0.58597 0.92255 -0.05100
C 	C 	0.62571 0.58597 0.92255 -0.05100
C 	C 	0.24713 0.58350 0.90882 -0.05800
C 	C 	0.27311 0.62170 0.46044 0.03700
H 	H 	0.18763 0.63248 0.45091 0.03700
C 	C 	0.32161 0.58658 0.92644 0.04000
H 	H 	0.40310 0.58326 0.92011 0.01600
C 	C 	0.74713 0.58350 0.90882 -0.05800
C 	C 	0.77311 0.62170 0.46044 0.03700
H 	H 	0.68763 0.63248 0.45091 0.03700
C 	C 	0.82161 0.58658 0.92644 0.04000
H 	H 	0.90310 0.58326 0.92011 0.01500
C 	C 	0.15659 0.59884 0.90994 -0.08700
C 	C 	0.65659 0.59884 0.90994 -0.08700
C 	C 	0.28977 0.60410 0.91465 0.00100
C 	C 	0.30695 0.63589 0.45066 0.00200
C 	C 	0.36842 0.63180 0.45005 0.00100
H 	H 	0.44064 0.64024 0.44282 0.03700
C 	C 	0.41133 0.61619 0.49773 -0.09000
C 	C 	0.47704 0.62168 0.48016 -0.03900
H 	H 	0.23493 0.64945 0.43396 0.04100
C 	C 	0.19734 0.59272 0.92837 0.03700
H 	H 	0.12586 0.61528 0.93595 0.03800
C 	C 	0.78977 0.60410 0.91465 0.00100
C 	C 	0.80695 0.63589 0.45066 0.00200
C 	C 	0.86842 0.63180 0.45005 0.00100
H 	H 	0.94064 0.64024 0.44282 0.03600
C 	C 	0.91133 0.61619 0.49773 -0.09000
C 	C 	0.97704 0.62168 0.48016 -0.04700
H 	H 	0.73493 0.64945 0.43396 0.04100
C 	C 	0.69734 0.59272 0.92837 0.03700
H 	H 	0.62586 0.61528 0.93595 0.03800
H 	H 	0.35546 0.60874 0.90188 0.03800
H 	H 	0.85546 0.60874 0.90188 0.03800
H 	H 	0.47479 0.62509 0.53705 0.03700
H 	H 	0.97479 0.62509 0.53705 0.03500
O 	O 	0.02666 0.01691 0.43783 -0.86600
N 	N 	0.99856 0.98817 0.69360 -0.09500
N 	N 	0.99165 0.99157 0.71861 -0.09400
O 	O 	0.52666 0.01691 0.43783 -0.87200
N 	N 	0.49856 0.98817 0.69360 -0.09100
N 	N 	0.49165 0.99157 0.71861 -0.09100
C 	C 	0.23030 0.60885 0.91808 0.00300
C 	C 	0.73030 0.60885 0.91808 0.00300
C 	C 	0.04890 0.99960 0.67426 -0.00400
C 	C 	0.54890 0.99960 0.67426 -0.00100
O 	O 	0.04593 0.60722 0.93351 -0.45600
O 	O 	0.11722 0.63834 0.46744 -0.45600
C 	C 	0.44672 0.64085 0.46776 -0.09100
H 	H 	0.51036 0.64778 0.50561 0.02300
C 	C 	0.26145 0.64385 0.50897 -0.04400
H 	H 	0.27759 0.64050 0.53301 0.03700
C 	C 	0.39834 0.60529 0.97730 -0.03300
C 	C 	0.36486 0.62101 0.96462 -0.09200
H 	H 	0.40516 0.60531 0.00225 0.03100
C 	C 	0.19152 0.60448 0.98054 -0.04500
H 	H 	0.20486 0.59220 0.99916 0.03600
O 	O 	0.54592 0.60722 0.93351 -0.45900
O 	O 	0.61722 0.63834 0.46744 -0.45700
C 	C 	0.94672 0.64085 0.46776 -0.08800
H 	H 	0.01036 0.64778 0.50561 0.03000
C 	C 	0.76145 0.64385 0.50897 -0.04400
H 	H 	0.77759 0.64050 0.53301 0.03700
C 	C 	0.89834 0.60529 0.97730 -0.03300
C 	C 	0.86486 0.62101 0.96462 -0.09200
H 	H 	0.90516 0.60531 0.00225 0.03100
C 	C 	0.69152 0.60448 0.98054 -0.04500
H 	H 	0.70486 0.59220 0.99916 0.03600
H 	H 	0.16838 0.63340 0.91539 0.04100
H 	H 	0.66838 0.63340 0.91539 0.04100
H 	H 	0.35472 0.62697 0.98282 0.04400
H 	H 	0.85472 0.62697 0.98282 0.04400
C 	C 	0.22327 0.61957 0.96894 -0.08900
C 	C 	0.72327 0.61957 0.96894 -0.08900
H 	H 	0.42810 0.65074 0.51776 0.04100
C 	C 	0.29464 0.65650 0.49835 -0.08800
H 	H 	0.43145 0.62899 0.98343 0.02500
H 	H 	0.92810 0.65074 0.51776 0.04100
C 	C 	0.79464 0.65650 0.49835 -0.08800
H 	H 	0.93144 0.62899 0.98343 0.02400
H 	H 	0.25251 0.61566 0.98277 0.04200
H 	H 	0.75251 0.61566 0.98277 0.04200
O 	O 	0.08677 0.63607 0.99366 -0.46300
O 	O 	0.58678 0.63607 0.99366 -0.46400
H 	H 	0.19176 0.63331 0.99495 0.03900
H 	H 	0.69176 0.63331 0.99495 0.03900
C 	C 	0.38352 0.67210 0.44957 -0.05900
C 	C 	0.88353 0.67210 0.44957 -0.05900
O 	O 	0.16006 0.66628 0.52750 -0.46600
O 	O 	0.66006 0.66628 0.52750 -0.46700
C 	C 	0.25020 0.65247 0.92388 -0.05800
C 	C 	0.75020 0.65247 0.92388 -0.05800
H 	H 	0.32669 0.65950 0.51745 0.04100
H 	H 	0.82669 0.65950 0.51745 0.04100
H 	H 	0.38306 0.65316 0.96618 0.04100
H 	H 	0.88306 0.65316 0.96618 0.04000
C 	C 	0.07605 0.64141 0.96566 0.28900
C 	C 	0.14897 0.67207 0.49967 0.29100
H 	H 	0.25509 0.67078 0.51574 0.03500
C 	C 	0.57605 0.64141 0.96566 0.28900
C 	C 	0.64897 0.67207 0.49967 0.29100
H 	H 	0.75509 0.67078 0.51574 0.03500
C 	C 	0.32308 0.67675 0.45118 -0.05900
C 	C 	0.82308 0.67675 0.45118 -0.05900
H 	H 	0.46568 0.67581 0.48799 0.03900
H 	H 	0.96568 0.67581 0.48799 0.03700
C 	C 	0.30674 0.64587 0.91690 -0.05800
C 	C 	0.80674 0.64587 0.91690 -0.05800
C 	C 	0.07403 0.01730 0.31290 -0.05200
C 	C 	0.57403 0.01730 0.31290 -0.05500
H 	H 	0.04632 0.98286 0.84570 0.02800
H 	H 	0.54632 0.98286 0.84570 0.03000
C 	C 	0.07804 0.02054 0.34376 0.00700
C 	C 	0.57804 0.02054 0.34376 0.00800
H 	H 	0.10068 0.01274 0.36056 0.03000
H 	H 	0.60068 0.01274 0.36056 0.03000
O 	O 	0.98913 0.96937 0.86252 -0.48300
O 	O 	0.06227 0.00490 0.39368 -0.47600
H 	H 	0.98806 0.93528 0.63474 0.03800
H 	H 	0.99615 0.93567 0.58688 0.02300
H 	H 	0.18353 0.01446 0.50229 0.03800
H 	H 	0.08703 0.96632 0.00855 0.01100
O 	O 	0.48913 0.96937 0.86252 -0.48000
O 	O 	0.56227 0.00490 0.39368 -0.47700
H 	H 	0.48806 0.93528 0.63474 0.04400
H 	H 	0.49615 0.93567 0.58688 0.02700
H 	H 	0.68353 0.01446 0.50229 0.03800
H 	H 	0.58703 0.96632 0.00855 0.01000
C 	C 	0.28701 0.67054 0.92135 0.00200
H 	H 	0.23862 0.67263 0.93209 0.03500
H 	H 	0.33730 0.66051 0.91801 0.03300
C 	C 	0.36184 0.69555 0.45109 0.00200
H 	H 	0.30653 0.69438 0.45317 0.03500
H 	H 	0.41274 0.68596 0.44903 0.03400
C 	C 	0.20270 0.87671 0.98382 0.00200
C 	C 	0.17915 0.89831 0.98492 -0.05700
C 	C 	0.13946 0.87818 0.98334 0.00000
C 	C 	0.12909 0.84108 0.98836 -0.05800
C 	C 	0.15002 0.81732 0.98533 0.00200
C 	C 	0.18760 0.83600 0.98389 -0.05700
H 	H 	0.19045 0.92993 0.98587 0.03500
H 	H 	0.10577 0.83149 0.99538 0.03600
H 	H 	0.20425 0.81836 0.98186 0.03600
C 	C 	0.28293 0.90728 0.51990 0.00200
C 	C 	0.26083 0.93034 0.52132 -0.05900
C 	C 	0.21922 0.91031 0.51722 0.00200
C 	C 	0.20577 0.87207 0.52052 -0.05900
C 	C 	0.22672 0.84785 0.51894 0.00200
C 	C 	0.26570 0.86608 0.51901 -0.05800
H 	H 	0.27621 0.96380 0.52627 0.03500
H 	H 	0.17782 0.86055 0.52275 0.03500
H 	H 	0.28161 0.84758 0.51714 0.03400
O 	O 	0.97899 0.91329 0.90658 -0.50700
O 	O 	0.02444 0.97478 0.95973 -0.45200
Zn	Zn	0.86913 0.91536 0.91992 1.17100
Zn	Zn	0.95087 0.93703 0.98269 1.18600
C 	C 	0.87165 0.84595 0.94163 0.29500
C 	C 	0.84623 0.94006 0.96573 0.28800
O 	O 	0.91575 0.87371 0.96644 -0.46200
O 	O 	0.84748 0.85662 0.91956 -0.46700
O 	O 	0.83493 0.93227 0.93402 -0.49200
O 	O 	0.88830 0.95340 0.99053 -0.46100
O 	O 	0.92672 0.93304 0.93395 -0.80800
O 	O 	0.97426 0.95138 0.03439 -0.44400
Zn	Zn	0.96028 0.94460 0.88387 1.18300
C 	C 	0.01505 0.93652 0.93933 0.30000
H 	H 	0.91954 0.98032 0.88886 0.14100
O 	O 	0.05877 0.94459 0.43663 -0.49700
O 	O 	0.10115 0.00293 0.49117 -0.44800
Zn	Zn	0.94614 0.94161 0.45196 1.17100
Zn	Zn	0.02773 0.96117 0.51371 1.18800
C 	C 	0.94796 0.87080 0.47168 0.29600
C 	C 	0.92414 0.96435 0.49880 0.29000
O 	O 	0.99243 0.89745 0.49542 -0.46700
O 	O 	0.92408 0.88200 0.44999 -0.46800
O 	O 	0.91228 0.95749 0.46713 -0.49100
O 	O 	0.96594 0.97617 0.52279 -0.47000
C 	C 	0.05684 0.00480 0.59017 0.32300
O 	O 	0.00381 0.95961 0.46589 -0.80400
O 	O 	0.04860 0.97191 0.56432 -0.44000
Zn	Zn	0.03852 0.97740 0.41665 1.18500
C 	C 	0.09188 0.96501 0.47027 0.28600
H 	H 	0.99449 0.00820 0.42277 0.13800
C 	C 	0.05838 0.99975 0.61983 -0.10400
C 	C 	0.02200 0.96310 0.61331 0.01800
C 	C 	0.01711 0.96313 0.64035 -0.04700
H 	H 	0.06386 0.98741 0.80307 0.04600
N 	N 	0.02936 0.97875 0.20635 -0.08900
N 	N 	0.03816 0.98630 0.23789 -0.09100
C 	C 	0.02074 0.97687 0.11222 0.02300
C 	C 	0.03038 0.98228 0.14508 -0.06100
H 	H 	0.09382 0.00732 0.30631 0.04500
H 	H 	0.05726 0.97845 0.16190 0.04600
H 	H 	0.04030 0.96903 0.10396 0.02100
C 	C 	0.16207 0.78509 0.51403 -0.08800
C 	C 	0.20537 0.80052 0.51391 0.03800
C 	C 	0.21967 0.74912 0.53829 -0.04300
C 	C 	0.16976 0.71844 0.50470 -0.05200
C 	C 	0.14166 0.73772 0.50877 -0.04400
H 	H 	0.17089 0.80751 0.53949 0.03900
H 	H 	0.13536 0.78595 0.49249 0.03900
H 	H 	0.24085 0.73608 0.53609 0.03100
H 	H 	0.22098 0.74995 0.56195 0.03500
H 	H 	0.14107 0.73798 0.53167 0.03000
H 	H 	0.10570 0.71669 0.48501 0.02800
C 	C 	0.17009 0.71931 0.47276 -0.04400
H 	H 	0.13484 0.69824 0.44814 0.04300
H 	H 	0.19022 0.70564 0.46921 0.03500
C 	C 	0.19069 0.76689 0.47809 -0.08900
H 	H 	0.22023 0.77523 0.47660 0.04000
H 	H 	0.16520 0.76834 0.45615 0.04200
C 	C 	0.24026 0.79675 0.54369 -0.09000
H 	H 	0.27155 0.80617 0.54452 0.04100
H 	H 	0.25090 0.81992 0.56966 0.04100
C 	C 	0.34364 0.90581 0.47267 -0.04400
C 	C 	0.38755 0.94961 0.50516 -0.05200
C 	C 	0.33684 0.96986 0.51652 -0.08700
C 	C 	0.32168 0.92376 0.51500 0.03800
C 	C 	0.30572 0.89064 0.47850 -0.08900
H 	H 	0.33068 0.90994 0.44875 0.03500
H 	H 	0.35151 0.87977 0.46745 0.03200
H 	H 	0.34931 0.99504 0.54244 0.03900
H 	H 	0.30742 0.96861 0.49561 0.03800
H 	H 	0.27488 0.88723 0.45725 0.04100
H 	H 	0.29600 0.85741 0.47618 0.04000
C 	C 	0.36503 0.92773 0.54382 -0.09000
H 	H 	0.35705 0.89584 0.54386 0.04100
H 	H 	0.37792 0.95199 0.57027 0.04500
C 	C 	0.40307 0.94226 0.53789 -0.04300
H 	H 	0.43430 0.97308 0.56184 0.04100
H 	H 	0.41192 0.91669 0.53426 0.03700
C 	C 	0.37523 0.98487 0.51122 -0.04800
H 	H 	0.36400 0.99116 0.48833 0.03400
C 	C 	0.14219 0.95609 0.52036 -0.03900
C 	C 	0.12560 0.95073 0.48300 -0.06000
C 	C 	0.20300 0.96568 0.49800 -0.08800
C 	C 	0.18594 0.92635 0.50515 0.03800
C 	C 	0.17695 0.94149 0.53311 -0.09200
H 	H 	0.15850 0.99101 0.53941 0.01800
H 	H 	0.11257 0.93612 0.52007 0.01200
H 	H 	0.21013 0.95673 0.47817 0.03900
H 	H 	0.23513 0.99485 0.52265 0.03700
H 	H 	0.20951 0.96927 0.55832 0.03900
H 	H 	0.16344 0.91449 0.53869 0.04000
C 	C 	0.13942 0.88791 0.47018 -0.09000
H 	H 	0.12481 0.85884 0.47341 0.04000
H 	H 	0.14460 0.87710 0.44938 0.04200
C 	C 	0.10429 0.90182 0.45769 -0.04000
H 	H 	0.09212 0.89658 0.43057 0.03500
H 	H 	0.07417 0.88035 0.45626 0.03100
C 	C 	0.16754 0.97906 0.48453 -0.04600
H 	H 	0.15671 0.97500 0.45788 0.03300
C 	C 	0.16625 0.76586 0.00848 -0.09200
C 	C 	0.12981 0.76994 0.98018 0.04000
C 	C 	0.09310 0.68890 0.93763 -0.04400
C 	C 	0.09571 0.68765 0.97044 -0.04700
C 	C 	0.14648 0.71810 0.00277 -0.05600
H 	H 	0.19634 0.77529 0.00766 0.03700
H 	H 	0.17861 0.78881 0.03518 0.04000
H 	H 	0.05714 0.66795 0.91392 0.04100
H 	H 	0.11240 0.67534 0.93233 0.03700
H 	H 	0.16686 0.70504 0.99884 0.03800
H 	H 	0.14988 0.71864 0.02702 0.03700
C 	C 	0.06865 0.70683 0.97683 -0.03900
H 	H 	0.06989 0.70662 0.00028 0.02500
H 	H 	0.03215 0.68602 0.95392 0.02600
C 	C 	0.08834 0.75441 0.98259 -0.08200
H 	H 	0.06073 0.75583 0.96237 0.03800
H 	H 	0.09901 0.77641 0.00896 0.03300
C 	C 	0.11282 0.73666 0.94328 -0.08900
H 	H 	0.08622 0.73835 0.92239 0.04200
H 	H 	0.14111 0.74523 0.94021 0.04100
C 	C 	0.29232 0.95592 0.97400 -0.04800
C 	C 	0.30883 0.92363 0.97115 -0.04700
C 	C 	0.28623 0.90227 0.00993 -0.09300
C 	C 	0.24172 0.89477 0.97943 0.04000
C 	C 	0.25381 0.93957 0.97900 -0.08000
H 	H 	0.27924 0.95899 0.94960 0.03400
H 	H 	0.28040 0.87127 0.01117 0.04000
H 	H 	0.29709 0.92656 0.03556 0.04200
H 	H 	0.26485 0.96514 0.00416 0.03200
H 	H 	0.22334 0.93589 0.95709 0.03700
C 	C 	0.22834 0.86129 0.94414 -0.08800
H 	H 	0.19699 0.85576 0.92172 0.04000
H 	H 	0.22042 0.82882 0.94300 0.04000
C 	C 	0.26722 0.87793 0.93944 -0.04600
H 	H 	0.27788 0.85377 0.93668 0.03300
H 	H 	0.25394 0.87981 0.91451 0.03400
C 	C 	0.32517 0.91909 0.00518 -0.04900
H 	H 	0.33726 0.89587 0.00396 0.03700
H 	H 	0.35447 0.95146 0.02857 0.03800
C 	C 	0.02697 0.88022 0.95477 -0.02900
C 	C 	0.04840 0.92184 0.95189 -0.06900
C 	C 	0.12743 0.94172 0.00013 -0.10800
C 	C 	0.10574 0.89386 0.97233 0.04700
C 	C 	0.06049 0.86449 0.96736 -0.09500
H 	H 	0.01783 0.88733 0.97353 0.01700
H 	H 	0.99488 0.85335 0.92879 0.02500
H 	H 	0.15912 0.96464 0.00410 0.04000
H 	H 	0.13711 0.94320 0.02596 0.04000
H 	H 	0.06796 0.86568 0.99273 0.04200
H 	H 	0.04358 0.82963 0.94784 0.04200
C 	C 	0.09231 0.89322 0.93655 -0.09200
H 	H 	0.07565 0.85910 0.91590 0.04200
H 	H 	0.12289 0.91409 0.93830 0.04100
C 	C 	0.05981 0.91021 0.92509 -0.03800
H 	H 	0.07581 0.93977 0.92275 0.03300
H 	H 	0.02818 0.88446 0.89847 0.03300
C 	C 	0.09386 0.95779 0.98847 -0.02200
C 	C 	0.35680 0.76558 0.45849 -0.08900
C 	C 	0.38371 0.74291 0.45651 0.03800
C 	C 	0.41236 0.79079 0.43188 -0.04200
C 	C 	0.42483 0.82464 0.46636 -0.05300
C 	C 	0.38039 0.81272 0.46373 -0.04400
H 	H 	0.32159 0.74585 0.43387 0.04000
H 	H 	0.35437 0.76787 0.48094 0.03900
H 	H 	0.44377 0.79821 0.43315 0.02800
H 	H 	0.38983 0.79322 0.40904 0.02900
H 	H 	0.35656 0.81476 0.44126 0.03600
H 	H 	0.38813 0.83668 0.48806 0.03100
C 	C 	0.45608 0.81992 0.49746 -0.04300
H 	H 	0.46515 0.84352 0.52260 0.03900
H 	H 	0.48846 0.82808 0.50018 0.04000
C 	C 	0.43236 0.77254 0.49166 -0.08900
H 	H 	0.45394 0.75896 0.49185 0.04000
H 	H 	0.43027 0.77345 0.51408 0.04200
C 	C 	0.38786 0.74328 0.42583 -0.09000
H 	H 	0.40716 0.72810 0.42302 0.03900
H 	H 	0.35331 0.72335 0.40053 0.04100
H 	H 	0.30388 0.68951 0.50029 0.04000
C 	C 	0.35799 0.74744 0.96138 -0.08900
C 	C 	0.30875 0.71799 0.92694 0.03900
C 	C 	0.30504 0.78764 0.93454 -0.04400
C 	C 	0.34907 0.79973 0.93648 -0.05200
C 	C 	0.38106 0.79499 0.96724 -0.04300
H 	H 	0.35714 0.74811 0.98426 0.04300
H 	H 	0.37921 0.73383 0.96049 0.04000
H 	H 	0.28047 0.78892 0.91192 0.03600
H 	H 	0.31310 0.81196 0.95887 0.03200
H 	H 	0.39039 0.81832 0.99260 0.04200
H 	H 	0.41325 0.80357 0.96954 0.04100
C 	C 	0.33586 0.76587 0.90167 -0.04300
H 	H 	0.36695 0.77311 0.90248 0.02700
H 	H 	0.31309 0.76845 0.87904 0.02900
C 	C 	0.31135 0.71835 0.89561 -0.09000
H 	H 	0.27633 0.69879 0.87081 0.04200
H 	H 	0.32990 0.70276 0.89177 0.03900
C 	C 	0.28240 0.74085 0.93013 -0.08900
H 	H 	0.24649 0.72074 0.90638 0.04100
H 	H 	0.28201 0.74409 0.95353 0.04000
H 	H 	0.23758 0.65526 0.97736 0.04100
C 	C 	0.78701 0.67054 0.92135 0.00200
H 	H 	0.73862 0.67263 0.93209 0.03500
H 	H 	0.83730 0.66051 0.91801 0.03300
C 	C 	0.86184 0.69555 0.45109 0.00200
H 	H 	0.80653 0.69438 0.45317 0.03500
H 	H 	0.91273 0.68596 0.44903 0.03400
C 	C 	0.70270 0.87671 0.98382 0.00200
C 	C 	0.67915 0.89831 0.98492 -0.05800
C 	C 	0.63946 0.87818 0.98334 0.00000
C 	C 	0.62909 0.84108 0.98836 -0.05800
C 	C 	0.65002 0.81732 0.98533 0.00200
C 	C 	0.68760 0.83600 0.98389 -0.05800
H 	H 	0.69045 0.92993 0.98587 0.03500
H 	H 	0.60577 0.83149 0.99538 0.03600
H 	H 	0.70425 0.81836 0.98186 0.03600
C 	C 	0.78294 0.90728 0.51990 0.00200
C 	C 	0.76083 0.93034 0.52132 -0.05900
C 	C 	0.71922 0.91031 0.51722 0.00200
C 	C 	0.70577 0.87207 0.52052 -0.05900
C 	C 	0.72672 0.84785 0.51894 0.00100
C 	C 	0.76570 0.86608 0.51901 -0.05800
H 	H 	0.77621 0.96380 0.52627 0.03500
H 	H 	0.67782 0.86055 0.52275 0.03400
H 	H 	0.78161 0.84758 0.51714 0.03400
O 	O 	0.47899 0.91329 0.90658 -0.50100
O 	O 	0.52444 0.97478 0.95973 -0.45200
Zn	Zn	0.36913 0.91536 0.91992 1.17100
Zn	Zn	0.45087 0.93703 0.98269 1.18700
C 	C 	0.37165 0.84595 0.94163 0.29500
C 	C 	0.34623 0.94006 0.96573 0.28800
O 	O 	0.41575 0.87371 0.96644 -0.46100
O 	O 	0.34748 0.85662 0.91956 -0.46700
O 	O 	0.33493 0.93227 0.93402 -0.49200
O 	O 	0.38830 0.95340 0.99053 -0.46200
O 	O 	0.42672 0.93304 0.93395 -0.80700
O 	O 	0.47426 0.95138 0.03439 -0.44200
Zn	Zn	0.46028 0.94460 0.88387 1.18400
C 	C 	0.51505 0.93652 0.93933 0.29300
H 	H 	0.41954 0.98032 0.88886 0.14100
O 	O 	0.55877 0.94459 0.43663 -0.49800
O 	O 	0.60115 0.00293 0.49117 -0.44900
Zn	Zn	0.44614 0.94161 0.45196 1.17200
Zn	Zn	0.52773 0.96117 0.51371 1.18600
C 	C 	0.44796 0.87080 0.47168 0.29500
C 	C 	0.42414 0.96435 0.49880 0.28900
O 	O 	0.49243 0.89745 0.49542 -0.46400
O 	O 	0.42409 0.88200 0.44999 -0.46700
O 	O 	0.41228 0.95749 0.46713 -0.49000
O 	O 	0.46594 0.97617 0.52279 -0.46700
C 	C 	0.55684 0.00480 0.59017 0.32100
O 	O 	0.50381 0.95961 0.46589 -0.80700
O 	O 	0.54860 0.97191 0.56432 -0.44200
Zn	Zn	0.53852 0.97740 0.41665 1.18400
C 	C 	0.59189 0.96501 0.47027 0.28700
H 	H 	0.49449 0.00820 0.42277 0.14400
C 	C 	0.55838 0.99975 0.61983 -0.10300
C 	C 	0.52200 0.96310 0.61331 0.01300
C 	C 	0.51711 0.96313 0.64035 -0.05400
H 	H 	0.56386 0.98741 0.80307 0.04300
N 	N 	0.52936 0.97875 0.20635 -0.09100
N 	N 	0.53816 0.98630 0.23789 -0.09100
C 	C 	0.52074 0.97687 0.11222 0.01100
C 	C 	0.53038 0.98228 0.14508 -0.05500
H 	H 	0.59382 0.00732 0.30631 0.04500
H 	H 	0.55726 0.97845 0.16190 0.04300
H 	H 	0.54031 0.96903 0.10396 0.02200
C 	C 	0.66207 0.78509 0.51403 -0.08800
C 	C 	0.70537 0.80052 0.51391 0.03800
C 	C 	0.71967 0.74912 0.53829 -0.04200
C 	C 	0.66976 0.71844 0.50470 -0.05200
C 	C 	0.64167 0.73772 0.50877 -0.04300
H 	H 	0.67089 0.80751 0.53949 0.03800
H 	H 	0.63536 0.78595 0.49249 0.03900
H 	H 	0.74085 0.73608 0.53609 0.03100
H 	H 	0.72098 0.74995 0.56195 0.03500
H 	H 	0.64107 0.73798 0.53167 0.02900
H 	H 	0.60571 0.71669 0.48501 0.02700
C 	C 	0.67009 0.71931 0.47276 -0.04400
H 	H 	0.63484 0.69824 0.44814 0.04300
H 	H 	0.69022 0.70564 0.46921 0.03500
C 	C 	0.69068 0.76689 0.47809 -0.08900
H 	H 	0.72023 0.77523 0.47660 0.04000
H 	H 	0.66520 0.76834 0.45615 0.04200
C 	C 	0.74026 0.79675 0.54369 -0.09000
H 	H 	0.77155 0.80617 0.54452 0.04000
H 	H 	0.75090 0.81992 0.56966 0.04100
C 	C 	0.84364 0.90581 0.47267 -0.04400
C 	C 	0.88755 0.94961 0.50516 -0.05300
C 	C 	0.83684 0.96986 0.51652 -0.08700
C 	C 	0.82168 0.92376 0.51500 0.03800
C 	C 	0.80572 0.89064 0.47850 -0.08900
H 	H 	0.83068 0.90994 0.44875 0.03500
H 	H 	0.85151 0.87977 0.46745 0.03100
H 	H 	0.84931 0.99504 0.54244 0.03900
H 	H 	0.80742 0.96861 0.49561 0.03800
H 	H 	0.77488 0.88723 0.45725 0.04100
H 	H 	0.79600 0.85741 0.47618 0.04000
C 	C 	0.86503 0.92773 0.54382 -0.09000
H 	H 	0.85705 0.89584 0.54386 0.04100
H 	H 	0.87792 0.95199 0.57027 0.04500
C 	C 	0.90307 0.94226 0.53789 -0.04300
H 	H 	0.93430 0.97308 0.56184 0.04000
H 	H 	0.91192 0.91669 0.53426 0.03600
C 	C 	0.87523 0.98487 0.51122 -0.04700
H 	H 	0.86400 0.99116 0.48833 0.03300
C 	C 	0.64219 0.95609 0.52036 -0.03900
C 	C 	0.62560 0.95073 0.48300 -0.06000
C 	C 	0.70300 0.96568 0.49800 -0.08800
C 	C 	0.68595 0.92635 0.50515 0.03800
C 	C 	0.67695 0.94149 0.53311 -0.09200
H 	H 	0.65850 0.99101 0.53941 0.01800
H 	H 	0.61257 0.93612 0.52007 0.01100
H 	H 	0.71013 0.95673 0.47817 0.03900
H 	H 	0.73513 0.99485 0.52265 0.03700
H 	H 	0.70951 0.96927 0.55832 0.03900
H 	H 	0.66344 0.91449 0.53869 0.03900
C 	C 	0.63943 0.88791 0.47018 -0.09000
H 	H 	0.62481 0.85884 0.47341 0.04000
H 	H 	0.64460 0.87710 0.44938 0.04100
C 	C 	0.60429 0.90182 0.45769 -0.03900
H 	H 	0.59212 0.89658 0.43057 0.03500
H 	H 	0.57417 0.88035 0.45626 0.02900
C 	C 	0.66754 0.97906 0.48453 -0.04500
H 	H 	0.65671 0.97500 0.45788 0.03300
C 	C 	0.66625 0.76586 0.00848 -0.09200
C 	C 	0.62981 0.76994 0.98018 0.04000
C 	C 	0.59310 0.68890 0.93763 -0.04400
C 	C 	0.59571 0.68765 0.97044 -0.04800
C 	C 	0.64648 0.71810 0.00277 -0.05600
H 	H 	0.69634 0.77529 0.00766 0.03700
H 	H 	0.67861 0.78881 0.03518 0.03900
H 	H 	0.55714 0.66795 0.91392 0.04000
H 	H 	0.61240 0.67534 0.93233 0.03600
H 	H 	0.66686 0.70504 0.99884 0.03800
H 	H 	0.64988 0.71864 0.02702 0.03700
C 	C 	0.56865 0.70683 0.97683 -0.03800
H 	H 	0.56989 0.70662 0.00028 0.02400
H 	H 	0.53215 0.68602 0.95392 0.02400
C 	C 	0.58834 0.75441 0.98259 -0.08200
H 	H 	0.56073 0.75583 0.96237 0.03800
H 	H 	0.59901 0.77641 0.00896 0.03200
C 	C 	0.61282 0.73666 0.94328 -0.08900
H 	H 	0.58622 0.73835 0.92239 0.04100
H 	H 	0.64111 0.74523 0.94021 0.04100
C 	C 	0.79232 0.95592 0.97400 -0.04800
C 	C 	0.80883 0.92363 0.97115 -0.04700
C 	C 	0.78623 0.90227 0.00993 -0.09300
C 	C 	0.74172 0.89477 0.97943 0.04000
C 	C 	0.75380 0.93957 0.97900 -0.08000
H 	H 	0.77924 0.95899 0.94960 0.03400
H 	H 	0.78040 0.87127 0.01117 0.03900
H 	H 	0.79709 0.92656 0.03556 0.04200
H 	H 	0.76485 0.96514 0.00416 0.03200
H 	H 	0.72334 0.93589 0.95709 0.03700
C 	C 	0.72835 0.86129 0.94414 -0.08800
H 	H 	0.69699 0.85576 0.92172 0.04000
H 	H 	0.72042 0.82882 0.94300 0.04000
C 	C 	0.76722 0.87793 0.93944 -0.04600
H 	H 	0.77788 0.85377 0.93668 0.03300
H 	H 	0.75394 0.87981 0.91451 0.03400
C 	C 	0.82517 0.91909 0.00518 -0.04900
H 	H 	0.83726 0.89587 0.00396 0.03700
H 	H 	0.85447 0.95146 0.02857 0.03800
C 	C 	0.52697 0.88022 0.95477 -0.03700
C 	C 	0.54840 0.92184 0.95189 -0.06600
C 	C 	0.62743 0.94172 0.00013 -0.10700
C 	C 	0.60574 0.89386 0.97233 0.04600
C 	C 	0.56049 0.86449 0.96736 -0.09300
H 	H 	0.51783 0.88733 0.97353 0.01700
H 	H 	0.49488 0.85335 0.92879 0.03200
H 	H 	0.65912 0.96464 0.00410 0.03900
H 	H 	0.63711 0.94320 0.02596 0.04000
H 	H 	0.56796 0.86568 0.99273 0.04100
H 	H 	0.54358 0.82963 0.94784 0.04000
C 	C 	0.59231 0.89322 0.93655 -0.09100
H 	H 	0.57565 0.85910 0.91590 0.04100
H 	H 	0.62289 0.91409 0.93830 0.04000
C 	C 	0.55981 0.91021 0.92509 -0.04000
H 	H 	0.57581 0.93977 0.92275 0.03300
H 	H 	0.52818 0.88446 0.89847 0.03100
C 	C 	0.59386 0.95779 0.98847 -0.02300
C 	C 	0.85679 0.76558 0.45849 -0.08900
C 	C 	0.88371 0.74291 0.45651 0.03800
C 	C 	0.91236 0.79079 0.43188 -0.04200
C 	C 	0.92483 0.82464 0.46636 -0.05300
C 	C 	0.88039 0.81272 0.46373 -0.04300
H 	H 	0.82159 0.74585 0.43387 0.04000
H 	H 	0.85437 0.76787 0.48094 0.03900
H 	H 	0.94377 0.79821 0.43315 0.02700
H 	H 	0.88983 0.79322 0.40904 0.02900
H 	H 	0.85656 0.81476 0.44126 0.03600
H 	H 	0.88813 0.83668 0.48806 0.03100
C 	C 	0.95608 0.81992 0.49746 -0.04200
H 	H 	0.96515 0.84352 0.52260 0.03800
H 	H 	0.98846 0.82808 0.50018 0.03900
C 	C 	0.93236 0.77254 0.49166 -0.08900
H 	H 	0.95394 0.75896 0.49185 0.03900
H 	H 	0.93027 0.77345 0.51408 0.04100
C 	C 	0.88786 0.74328 0.42583 -0.09000
H 	H 	0.90716 0.72810 0.42302 0.03800
H 	H 	0.85331 0.72335 0.40053 0.04000
H 	H 	0.80388 0.68951 0.50029 0.04000
C 	C 	0.85799 0.74744 0.96138 -0.08900
C 	C 	0.80875 0.71799 0.92694 0.03900
C 	C 	0.80504 0.78764 0.93454 -0.04400
C 	C 	0.84907 0.79973 0.93648 -0.05200
C 	C 	0.88106 0.79499 0.96724 -0.04300
H 	H 	0.85714 0.74811 0.98426 0.04200
H 	H 	0.87921 0.73383 0.96049 0.03900
H 	H 	0.78047 0.78892 0.91192 0.03600
H 	H 	0.81310 0.81196 0.95887 0.03200
H 	H 	0.89039 0.81832 0.99260 0.04100
H 	H 	0.91325 0.80357 0.96954 0.04000
C 	C 	0.83586 0.76587 0.90167 -0.04300
H 	H 	0.86695 0.77311 0.90248 0.02700
H 	H 	0.81309 0.76845 0.87904 0.02900
C 	C 	0.81135 0.71835 0.89561 -0.09000
H 	H 	0.77633 0.69879 0.87081 0.04200
H 	H 	0.82990 0.70276 0.89177 0.03900
C 	C 	0.78240 0.74085 0.93013 -0.08900
H 	H 	0.74649 0.72074 0.90638 0.04100
H 	H 	0.78201 0.74409 0.95353 0.04000
H 	H 	0.73758 0.65526 0.97736 0.04100
