data_crystal

_cell_length_a 41.72677
_cell_length_b 41.00722
_cell_length_c 25.69332
_cell_angle_alpha 94.11135
_cell_angle_beta  93.67403
_cell_angle_gamma 90.06274

_symmetry_space_group_name_	'P 1'
_symmetry_space_group_name_H-M	'P 1'

loop_
_symmetry_equiv_pos_as_xyz
  x,y,z

loop_
_atom_site_label
_atom_site_type_symbol
_atom_site_fract_x
_atom_site_fract_y
_atom_site_fract_z
_atom_site_charge
C 	C 	0.03217 0.64661 0.88143 0.12400
N 	N 	0.02866 0.65772 0.83275 -0.13800
C 	C 	0.01219 0.63973 0.79339 0.12700
N 	N 	0.99729 0.61167 0.80352 -0.13900
C 	C 	0.00037 0.60055 0.85207 0.12400
N 	N 	0.01834 0.61772 0.89074 -0.13700
C 	C 	0.93525 0.69402 0.34300 0.12700
N 	N 	0.90831 0.67544 0.33271 -0.13700
C 	C 	0.89628 0.65888 0.37101 0.13200
N 	N 	0.91086 0.66131 0.41989 -0.14300
C 	C 	0.93705 0.68087 0.43089 0.13400
N 	N 	0.94972 0.69654 0.39209 -0.13700
Cd	Cd	0.90884 0.92100 0.86319 1.18200
C 	C 	0.84110 0.95049 0.81270 0.32300
O 	O 	0.82581 0.95072 0.76680 -0.28000
O 	O 	0.86057 0.92610 0.81812 -0.53200
O 	O 	0.79996 0.99126 0.38332 -0.45300
C 	C 	0.78520 0.01588 0.40587 0.31700
O 	O 	0.78445 0.01580 0.45658 -0.34300
Cd	Cd	0.85616 0.16771 0.25759 1.24200
Cd	Cd	0.87936 0.13423 0.37776 1.18800
O 	O 	0.83014 0.22112 0.26475 -0.30700
O 	O 	0.84216 0.19841 0.18819 -0.34100
C 	C 	0.82981 0.22306 0.21464 0.27700
O 	O 	0.88550 0.12339 0.23475 -0.36900
O 	O 	0.87643 0.09716 0.30859 -0.43900
C 	C 	0.89132 0.09893 0.26511 0.28600
C 	C 	0.91181 0.19258 0.31738 0.31000
O 	O 	0.82994 0.14985 0.34146 -0.44400
O 	O 	0.91122 0.20200 0.26980 -0.28300
O 	O 	0.88644 0.17716 0.32887 -0.54100
C 	C 	0.81014 0.13158 0.31076 0.31100
O 	O 	0.81135 0.13485 0.26075 -0.34000
Cd	Cd	0.90205 0.12557 0.97469 1.24300
Cd	Cd	0.91074 0.08632 0.84733 1.18200
O 	O 	0.85434 0.15971 0.98536 -0.31100
O 	O 	0.88838 0.15184 0.05179 -0.33900
C 	C 	0.86273 0.16679 0.03442 0.27900
O 	O 	0.94273 0.09075 0.98729 -0.36500
O 	O 	0.95491 0.08571 0.90142 -0.43600
C 	C 	0.95524 0.07392 0.94773 0.29300
C 	C 	0.86516 0.06889 0.94077 0.32200
O 	O 	0.90926 0.14085 0.87812 -0.43200
O 	O 	0.86376 0.07525 0.99118 -0.28600
O 	O 	0.87875 0.09098 0.91605 -0.54000
C 	C 	0.93357 0.15916 0.89656 0.31400
O 	O 	0.93692 0.16350 0.94746 -0.35600
C 	C 	0.83090 0.36088 0.88577 0.12600
N 	N 	0.80944 0.35947 0.84358 -0.13800
C 	C 	0.80960 0.38304 0.80909 0.13200
N 	N 	0.83075 0.40831 0.81737 -0.14300
C 	C 	0.85209 0.40989 0.85963 0.13200
N 	N 	0.85258 0.38577 0.89325 -0.13800
C 	C 	0.75003 0.41293 0.37032 0.12700
N 	N 	0.74018 0.40751 0.41840 -0.13800
C 	C 	0.73821 0.43275 0.45533 0.13200
N 	N 	0.74412 0.46369 0.44271 -0.14300
C 	C 	0.75471 0.46918 0.39526 0.13300
N 	N 	0.75779 0.44372 0.35923 -0.13800
Cd	Cd	0.08519 0.08970 0.74738 1.24100
Cd	Cd	0.05741 0.08322 0.87415 1.17400
O 	O 	0.13640 0.11815 0.73992 -0.30900
O 	O 	0.11147 0.09132 0.67222 -0.34000
C 	C 	0.13676 0.10798 0.69092 0.27800
O 	O 	0.04336 0.05519 0.73418 -0.38100
O 	O 	0.01916 0.07233 0.80912 -0.43300
C 	C 	0.02136 0.05127 0.76818 0.29400
C 	C 	0.11423 0.04332 0.81315 0.30900
O 	O 	0.06823 0.12789 0.82714 -0.44200
O 	O 	0.12092 0.03731 0.76452 -0.29700
O 	O 	0.09891 0.07034 0.82308 -0.53300
C 	C 	0.04811 0.14200 0.79506 0.31900
O 	O 	0.05052 0.13364 0.74546 -0.35600
Cd	Cd	0.05978 0.12281 0.45738 1.24300
Cd	Cd	0.00753 0.12498 0.34354 1.16900
O 	O 	0.11186 0.15118 0.45950 -0.30800
O 	O 	0.09630 0.12766 0.52762 -0.34000
C 	C 	0.11923 0.14254 0.50641 0.27700
O 	O 	0.01415 0.10084 0.48079 -0.37400
O 	O 	0.99352 0.08686 0.39728 -0.44900
C 	C 	0.98952 0.09209 0.44775 0.30500
C 	C 	0.02379 0.18007 0.43898 0.32100
O 	O 	0.03473 0.18090 0.48794 -0.28200
O 	O 	0.03411 0.15634 0.40895 -0.54800
C 	C 	0.34510 0.07836 0.80482 0.12600
N 	N 	0.37455 0.06630 0.79440 -0.13700
C 	C 	0.39278 0.05193 0.83205 0.13100
N 	N 	0.38225 0.05119 0.88089 -0.14300
C 	C 	0.35325 0.06392 0.89179 0.13100
N 	N 	0.33445 0.07679 0.85350 -0.13700
C 	C 	0.30886 0.07048 0.35720 0.12700
N 	N 	0.31007 0.08058 0.30811 -0.13800
C 	C 	0.33050 0.06606 0.27462 0.13300
N 	N 	0.34997 0.04171 0.29046 -0.14200
C 	C 	0.34911 0.03189 0.33963 0.13300
N 	N 	0.32826 0.04594 0.37278 -0.13700
C 	C 	0.32970 0.07473 0.21991 -0.04700
C 	C 	0.35810 0.08404 0.19740 0.10400
C 	C 	0.35843 0.08431 0.14285 -0.08500
C 	C 	0.33055 0.07692 0.11078 -0.00300
C 	C 	0.30137 0.07075 0.13366 0.07500
C 	C 	0.30130 0.06949 0.18814 -0.05200
N 	N 	0.38489 0.09320 0.22795 -0.19900
H 	H 	0.38050 0.09008 0.12527 0.05800
C 	C 	0.33274 0.07360 0.05335 -0.00700
N 	N 	0.27346 0.06596 0.10366 -0.19400
H 	H 	0.27934 0.06323 0.20562 0.06100
C 	C 	0.33689 0.04242 0.02864 -0.07800
C 	C 	0.34149 0.03850 0.97491 0.09900
C 	C 	0.34350 0.06650 0.94606 -0.04400
C 	C 	0.33816 0.09758 0.97037 -0.05800
C 	C 	0.33242 0.10140 0.02370 0.08000
H 	H 	0.33642 0.02112 0.05129 0.05800
N 	N 	0.34315 0.00788 0.95110 -0.19700
H 	H 	0.33911 0.11895 0.94796 0.06100
N 	N 	0.32656 0.13171 0.04607 -0.19500
H 	H 	0.34290 0.98740 0.97306 0.08800
H 	H 	0.34321 0.00401 0.91050 0.09800
H 	H 	0.32700 0.15217 0.02409 0.09500
H 	H 	0.32079 0.13522 0.08501 0.09500
H 	H 	0.25219 0.06066 0.12079 0.09500
H 	H 	0.27241 0.06826 0.06339 0.09500
H 	H 	0.38448 0.09623 0.26860 0.09700
H 	H 	0.40614 0.09881 0.21100 0.09100
C 	C 	0.27389 0.11331 0.47670 -0.02400
C 	C 	0.24067 0.11076 0.46269 0.01400
C 	C 	0.22999 0.09675 0.41272 -0.02600
C 	C 	0.25225 0.08303 0.37859 -0.00500
C 	C 	0.28547 0.08517 0.39284 -0.01800
C 	C 	0.29628 0.10095 0.44149 -0.00400
C 	C 	0.21663 0.12197 0.50064 0.02400
C 	C 	0.19601 0.09654 0.39648 0.09700
C 	C 	0.33042 0.10504 0.45489 0.09400
C 	C 	0.20704 0.15496 0.50394 -0.03700
C 	C 	0.17559 0.16295 0.51723 0.01900
C 	C 	0.15339 0.13776 0.52337 -0.06400
C 	C 	0.16507 0.10584 0.53032 0.01600
C 	C 	0.19739 0.09858 0.52163 -0.03800
C 	C 	0.22864 0.18021 0.49026 0.10500
C 	C 	0.14338 0.07995 0.54137 0.09200
C 	C 	0.16541 0.19675 0.52132 0.09600
C 	C 	0.20991 0.06624 0.52939 0.10000
C 	C 	0.28513 0.12918 0.52675 0.10100
C 	C 	0.24093 0.06581 0.32954 0.09300
N 	N 	0.15727 0.22375 0.52461 -0.09800
N 	N 	0.24591 0.20037 0.47933 -0.10600
N 	N 	0.16891 0.09637 0.38363 -0.10600
N 	N 	0.23190 0.05206 0.29042 -0.10900
N 	N 	0.35765 0.10832 0.46562 -0.11100
N 	N 	0.29438 0.14187 0.56655 -0.10500
C 	C 	0.29360 0.08589 0.67938 -0.02500
C 	C 	0.26842 0.10463 0.70026 0.01500
C 	C 	0.27387 0.12219 0.74948 -0.02500
C 	C 	0.30322 0.11874 0.77860 -0.00500
C 	C 	0.32444 0.09354 0.76365 -0.01700
C 	C 	0.32110 0.07912 0.71176 -0.00600
C 	C 	0.23518 0.10219 0.67443 0.02400
C 	C 	0.24858 0.14182 0.77178 0.09800
C 	C 	0.34581 0.05796 0.69131 0.09600
C 	C 	0.21724 0.07298 0.67538 -0.03500
C 	C 	0.18354 0.07376 0.66783 0.01800
C 	C 	0.16775 0.10407 0.66673 -0.06400
C 	C 	0.18552 0.13213 0.65774 0.01900
C 	C 	0.21933 0.13062 0.65858 -0.03700
C 	C 	0.23307 0.04287 0.68823 0.10500
C 	C 	0.16925 0.16300 0.65210 0.09000
C 	C 	0.16512 0.04362 0.66330 0.10000
C 	C 	0.23775 0.15905 0.64784 0.10300
C 	C 	0.29053 0.07227 0.62565 0.10100
C 	C 	0.31187 0.14133 0.82330 0.09300
N 	N 	0.15047 0.01949 0.65951 -0.10300
N 	N 	0.24569 0.01883 0.69852 -0.10800
N 	N 	0.15623 0.18765 0.64776 -0.09900
N 	N 	0.25232 0.18191 0.63946 -0.10300
N 	N 	0.22838 0.15747 0.78958 -0.10500
N 	N 	0.31877 0.15939 0.85897 -0.11200
N 	N 	0.36547 0.04109 0.67458 -0.11200
N 	N 	0.28825 0.06122 0.58285 -0.10600
C 	C 	0.78878 0.37991 0.76061 -0.04900
C 	C 	0.79998 0.36429 0.71437 0.10600
C 	C 	0.78417 0.36974 0.66593 -0.08500
C 	C 	0.75774 0.39075 0.66310 -0.00300
C 	C 	0.74406 0.40272 0.70966 0.07300
C 	C 	0.75993 0.39738 0.75817 -0.05100
N 	N 	0.82628 0.34472 0.71614 -0.20000
H 	H 	0.79375 0.35939 0.63015 0.06200
C 	C 	0.74889 0.40497 0.61283 -0.00300
N 	N 	0.71632 0.42009 0.70796 -0.19400
H 	H 	0.75069 0.40826 0.79388 0.05300
C 	C 	0.72585 0.38908 0.57766 -0.08500
C 	C 	0.71930 0.40016 0.52756 0.10700
C 	C 	0.73797 0.42596 0.51117 -0.04700
C 	C 	0.75968 0.44296 0.54747 -0.05000
C 	C 	0.76513 0.43291 0.59826 0.07400
H 	H 	0.71276 0.36827 0.58949 0.05900
N 	N 	0.69441 0.38688 0.49635 -0.19900
H 	H 	0.77343 0.46327 0.53553 0.05300
N 	N 	0.78640 0.44983 0.63249 -0.19400
H 	H 	0.68182 0.36675 0.50753 0.09300
H 	H 	0.68604 0.39765 0.46249 0.10000
H 	H 	0.79872 0.47005 0.62097 0.08800
H 	H 	0.79060 0.44354 0.67096 0.09300
H 	H 	0.70696 0.42986 0.74245 0.09000
H 	H 	0.70332 0.42321 0.67260 0.09200
H 	H 	0.83795 0.33938 0.75164 0.10500
H 	H 	0.83491 0.33399 0.68168 0.09500
C 	C 	0.01842 0.15657 0.81394 -0.13400
C 	C 	0.98889 0.14942 0.78616 -0.04000
C 	C 	0.96020 0.15348 0.81122 0.13600
C 	C 	0.96112 0.16455 0.86461 -0.10900
C 	C 	0.99017 0.17672 0.88925 -0.06000
C 	C 	0.01875 0.17284 0.86403 0.15700
H 	H 	0.98825 0.13885 0.74622 0.06600
O 	O 	0.93142 0.14764 0.78318 -0.26400
H 	H 	0.99090 0.18763 0.92899 0.07300
O 	O 	0.04723 0.18308 0.88969 -0.30200
H 	H 	0.05032 0.20581 0.88006 0.15900
H 	H 	0.92839 0.12358 0.78116 0.05500
C 	C 	0.81197 0.23867 0.03849 -0.03800
C 	C 	0.83691 0.26149 0.03512 0.02900
C 	C 	0.86751 0.25515 0.05866 -0.03800
C 	C 	0.87487 0.22324 0.07265 0.02100
C 	C 	0.85213 0.19799 0.06012 -0.06000
C 	C 	0.81966 0.20675 0.05208 0.02400
C 	C 	0.83354 0.28656 0.99576 0.00500
C 	C 	0.89183 0.28060 0.06445 0.10500
C 	C 	0.79482 0.18205 0.05186 0.09600
C 	C 	0.82012 0.31736 0.00896 -0.01700
C 	C 	0.81882 0.34158 0.97260 -0.01100
C 	C 	0.83104 0.33507 0.92300 -0.01600
C 	C 	0.84382 0.30404 0.90931 -0.00800
C 	C 	0.84473 0.27969 0.94540 -0.02300
C 	C 	0.80695 0.32388 0.05935 0.09800
C 	C 	0.85664 0.29739 0.85849 0.09100
C 	C 	0.80460 0.37310 0.98597 0.09200
C 	C 	0.85729 0.24756 0.93086 0.09600
C 	C 	0.77900 0.24749 0.02547 0.10400
C 	C 	0.90578 0.21620 0.09812 0.10000
N 	N 	0.79324 0.39824 0.99663 -0.11200
N 	N 	0.79622 0.32919 0.09942 -0.10600
N 	N 	0.86690 0.29205 0.81798 -0.11200
N 	N 	0.86734 0.22195 0.91930 -0.10500
N 	N 	0.91123 0.30096 0.06904 -0.10500
N 	N 	0.93049 0.21060 0.11855 -0.09900
N 	N 	0.77501 0.16226 0.05158 -0.09600
N 	N 	0.75264 0.25458 0.01512 -0.10500
C 	C 	0.93913 0.19977 0.35620 -0.14900
C 	C 	0.93750 0.19028 0.40751 -0.07400
C 	C 	0.96540 0.18953 0.44066 0.14700
C 	C 	0.99508 0.19790 0.42225 -0.13900
C 	C 	0.99546 0.21358 0.37557 -0.07400
C 	C 	0.96787 0.21370 0.34166 0.15000
H 	H 	0.91498 0.18199 0.42085 -0.01700
O 	O 	0.96416 0.17706 0.48863 -0.29700
H 	H 	0.01803 0.22218 0.36275 0.05400
O 	O 	0.96919 0.22713 0.29445 -0.25900
H 	H 	0.97684 0.20933 0.27017 0.13400
H 	H 	0.96064 0.19623 0.51334 0.16100
C 	C 	0.76780 0.28377 0.19960 -0.03400
C 	C 	0.78686 0.31111 0.21816 0.02800
C 	C 	0.81990 0.31078 0.20952 -0.03300
C 	C 	0.83486 0.28087 0.19559 0.02100
C 	C 	0.81648 0.25186 0.19031 -0.06700
C 	C 	0.78286 0.25430 0.18348 0.02000
C 	C 	0.77449 0.33563 0.25769 0.01400
C 	C 	0.83856 0.34072 0.21781 0.10500
C 	C 	0.76382 0.22551 0.16646 0.08800
C 	C 	0.78331 0.33328 0.31127 -0.02600
C 	C 	0.77575 0.35870 0.34816 -0.00600
C 	C 	0.75629 0.38493 0.33247 -0.01800
C 	C 	0.74473 0.38550 0.27958 -0.00600
C 	C 	0.75500 0.36171 0.24190 -0.02600
C 	C 	0.80034 0.30471 0.32834 0.09700
C 	C 	0.72180 0.41015 0.26418 0.09200
C 	C 	0.78929 0.35861 0.40162 0.09300
C 	C 	0.74553 0.36412 0.18703 0.10200
C 	C 	0.73317 0.28532 0.20060 0.10400
C 	C 	0.86949 0.27917 0.19467 0.08900
N 	N 	0.80009 0.35854 0.44424 -0.11000
N 	N 	0.81393 0.28194 0.34196 -0.10200
N 	N 	0.70351 0.42981 0.25189 -0.11100
N 	N 	0.73784 0.36612 0.14330 -0.10100
N 	N 	0.85343 0.36466 0.22445 -0.10700
N 	N 	0.89717 0.27782 0.19421 -0.09400
N 	N 	0.74853 0.20252 0.15301 -0.09600
N 	N 	0.70550 0.28657 0.20141 -0.10600
C 	C 	0.41704 0.95651 0.36312 -0.00400
N 	N 	0.44954 0.95311 0.26728 -0.19400
C 	C 	0.42462 0.98850 0.38305 -0.08700
C 	C 	0.40172 0.01342 0.37967 0.10800
C 	C 	0.37065 0.00589 0.35663 -0.04600
C 	C 	0.36206 0.97326 0.34242 -0.05300
C 	C 	0.38499 0.94837 0.34564 0.07400
H 	H 	0.44893 0.99439 0.39831 0.06000
N 	N 	0.40990 0.04455 0.39750 -0.20000
H 	H 	0.33787 0.96745 0.32645 0.05500
N 	N 	0.37634 0.91692 0.33072 -0.19400
H 	H 	0.43315 0.05002 0.41335 0.09500
H 	H 	0.39320 0.06346 0.39676 0.10400
H 	H 	0.35285 0.91127 0.31629 0.09100
H 	H 	0.39253 0.89773 0.33456 0.09300
H 	H 	0.46190 0.95339 0.23319 0.08800
H 	H 	0.42920 0.96774 0.27025 0.09300
C 	C 	0.49386 0.95959 0.80864 -0.00400
C 	C 	0.52638 0.96331 0.79730 0.07500
C 	C 	0.47123 0.98742 0.80729 -0.00700
N 	N 	0.53694 0.99126 0.77836 -0.19500
C 	C 	0.47426 0.01275 0.84700 -0.08200
C 	C 	0.45044 0.03675 0.85161 0.10400
C 	C 	0.42198 0.03378 0.81851 -0.04700
C 	C 	0.41994 0.00972 0.77673 -0.05000
C 	C 	0.44480 0.98709 0.76988 0.07300
H 	H 	0.49511 0.01368 0.87454 0.05800
N 	N 	0.45523 0.06280 0.88709 -0.19900
H 	H 	0.39840 0.00771 0.75079 0.06200
N 	N 	0.44316 0.96515 0.72748 -0.19400
H 	H 	0.47563 0.06410 0.91301 0.09100
H 	H 	0.43971 0.08276 0.88738 0.09800
H 	H 	0.42302 0.96428 0.70104 0.09300
H 	H 	0.56118 0.99417 0.77163 0.09400
H 	H 	0.52111 0.00985 0.76841 0.09600
C 	C 	0.79357 0.10377 0.33066 -0.11500
C 	C 	0.78605 0.10556 0.38321 -0.06800
C 	C 	0.78012 0.07704 0.40781 0.17600
C 	C 	0.78068 0.04640 0.37909 -0.11900
C 	C 	0.78273 0.04539 0.32465 -0.07600
C 	C 	0.79003 0.07372 0.30054 0.16400
H 	H 	0.78682 0.12890 0.40592 0.06000
O 	O 	0.77394 0.07920 0.45975 -0.26900
H 	H 	0.78105 0.02220 0.30155 0.04300
O 	O 	0.79437 0.07183 0.24793 -0.26900
H 	H 	0.81734 0.06629 0.24482 0.14200
H 	H 	0.79534 0.08006 0.47905 0.15400
C 	C 	0.95972 0.08017 0.46828 -0.10400
C 	C 	0.93095 0.09721 0.45959 -0.08700
C 	C 	0.90148 0.08278 0.46846 0.15600
H 	H 	0.93131 0.12103 0.44398 -0.01600
O 	O 	0.87348 0.09962 0.45990 -0.40800
H 	H 	0.86946 0.11116 0.49410 0.15300
N 	N 	0.73701 0.00374 0.58322 -0.09500
C 	C 	0.94644 0.97904 0.74584 -0.09800
C 	C 	0.97713 0.97170 0.72898 -0.05700
C 	C 	0.00138 0.99563 0.73356 0.15300
C 	C 	0.99488 0.02745 0.75453 -0.10400
C 	C 	0.96340 0.03548 0.76719 -0.05900
C 	C 	0.93934 0.01135 0.76340 0.14600
O 	O 	0.03196 0.98714 0.72146 -0.32500
H 	H 	0.95785 0.06014 0.78181 -0.00200
O 	O 	0.90911 0.01923 0.77816 -0.33400
H 	H 	0.90960 0.01616 0.81616 0.08600
H 	H 	0.03288 0.99073 0.68382 0.16000
C 	C 	0.84288 0.98004 0.84956 -0.14100
C 	C 	0.85985 0.97911 0.89850 -0.06800
C 	C 	0.86543 0.00791 0.93057 0.15600
C 	C 	0.85384 0.03788 0.91390 -0.14000
C 	C 	0.83478 0.03845 0.86718 -0.07800
C 	C 	0.82931 0.00989 0.83489 0.17500
H 	H 	0.86917 0.95621 0.91139 -0.03000
O 	O 	0.88393 0.00699 0.97654 -0.30600
H 	H 	0.82513 0.06141 0.85485 0.05200
O 	O 	0.81058 0.01119 0.78921 -0.26700
H 	H 	0.82546 0.01731 0.76286 0.15100
H 	H 	0.86860 0.00313 0.00342 0.16500
N 	N 	0.75010 0.87061 0.81344 -0.10500
C 	C 	0.76997 0.50071 0.38784 -0.04900
C 	C 	0.75932 0.51994 0.34657 0.10600
C 	C 	0.77695 0.54792 0.33724 -0.08600
C 	C 	0.80474 0.55696 0.36860 -0.00300
C 	C 	0.81466 0.53836 0.41106 0.07400
C 	C 	0.79704 0.51050 0.42033 -0.05000
N 	N 	0.73199 0.51210 0.31651 -0.19900
H 	H 	0.76914 0.56258 0.30535 0.05900
C 	C 	0.82338 0.58587 0.35664 -0.00500
N 	N 	0.84119 0.54693 0.44275 -0.19400
H 	H 	0.80495 0.49582 0.45218 0.05100
C 	C 	0.81743 0.61614 0.38308 -0.08400
C 	C 	0.83986 0.64174 0.38433 0.10400
C 	C 	0.86871 0.63670 0.35891 -0.04700
C 	C 	0.87276 0.60789 0.32733 -0.05200
C 	C 	0.85023 0.58235 0.32576 0.07700
H 	H 	0.79610 0.61921 0.40490 0.05900
N 	N 	0.83362 0.67102 0.40989 -0.19900
H 	H 	0.89430 0.60465 0.30608 0.06000
N 	N 	0.85484 0.55433 0.29560 -0.19400
H 	H 	0.81285 0.67417 0.43032 0.09300
H 	H 	0.84865 0.69123 0.40804 0.09600
H 	H 	0.87527 0.55153 0.27421 0.09500
H 	H 	0.83786 0.53546 0.29195 0.09600
H 	H 	0.84833 0.53291 0.47382 0.08800
H 	H 	0.85494 0.56751 0.43712 0.09400
H 	H 	0.71710 0.49292 0.32482 0.10300
H 	H 	0.72483 0.52591 0.28519 0.09500
C 	C 	0.98042 0.57279 0.86439 -0.04200
C 	C 	0.99431 0.54336 0.88071 0.10600
C 	C 	0.97430 0.51656 0.88729 -0.08400
C 	C 	0.94112 0.51806 0.87496 -0.00400
C 	C 	0.92718 0.54780 0.86037 0.07500
C 	C 	0.94698 0.57499 0.85603 -0.05100
N 	N 	0.02671 0.54027 0.88845 -0.20100
H 	H 	0.98479 0.49389 0.89930 0.06100
C 	C 	0.92163 0.48774 0.87329 -0.00300
N 	N 	0.89492 0.55029 0.84977 -0.19400
H 	H 	0.93638 0.59775 0.84458 0.05700
C 	C 	0.90392 0.48179 0.91625 -0.08500
C 	C 	0.88041 0.45702 0.91235 0.10500
C 	C 	0.87664 0.43605 0.86599 -0.04800
C 	C 	0.89596 0.44067 0.82439 -0.05100
C 	C 	0.91814 0.46657 0.82724 0.07300
H 	H 	0.90690 0.49790 0.95160 0.06100
N 	N 	0.86069 0.45456 0.95209 -0.19900
H 	H 	0.89335 0.42432 0.78925 0.05300
N 	N 	0.93572 0.47114 0.78550 -0.19400
H 	H 	0.86464 0.46916 0.98697 0.09500
H 	H 	0.84035 0.43956 0.94789 0.10500
H 	H 	0.93270 0.45557 0.75150 0.08900
H 	H 	0.95266 0.48995 0.78634 0.09300
H 	H 	0.88494 0.57229 0.83862 0.09000
H 	H 	0.87941 0.53061 0.85260 0.09300
H 	H 	0.04244 0.55883 0.88061 0.09900
H 	H 	0.03659 0.51864 0.90135 0.09200
C 	C 	0.95206 0.68453 0.48471 -0.04900
C 	C 	0.93308 0.68911 0.52839 0.10700
C 	C 	0.94691 0.68458 0.57857 -0.08500
C 	C 	0.97999 0.67914 0.58649 -0.00400
C 	C 	0.99968 0.67895 0.54356 0.07600
C 	C 	0.98538 0.68061 0.49280 -0.04600
N 	N 	0.90205 0.69905 0.52261 -0.19800
H 	H 	0.93197 0.68576 0.61168 0.06100
C 	C 	0.99321 0.67088 0.63892 -0.00100
N 	N 	0.03221 0.67753 0.55087 -0.19600
H 	H 	0.00016 0.67835 0.45954 0.05300
C 	C 	0.00364 0.63887 0.64580 -0.08800
C 	C 	0.01349 0.62937 0.69569 0.10300
C 	C 	0.00954 0.65121 0.74004 -0.04400
C 	C 	0.00041 0.68362 0.73306 -0.06100
C 	C 	0.99319 0.69396 0.68268 0.08100
H 	H 	0.00457 0.62147 0.61209 0.05800
N 	N 	0.02781 0.59987 0.70058 -0.19800
H 	H 	0.99849 0.70074 0.76688 0.06400
N 	N 	0.98664 0.72599 0.67654 -0.19500
H 	H 	0.02902 0.58316 0.66808 0.09000
H 	H 	0.03978 0.59417 0.73569 0.09700
H 	H 	0.98552 0.74263 0.70915 0.09700
H 	H 	0.98394 0.73495 0.63950 0.09600
H 	H 	0.04650 0.67617 0.51883 0.09100
H 	H 	0.04367 0.67913 0.58830 0.09300
H 	H 	0.89266 0.70761 0.48751 0.09900
H 	H 	0.88765 0.70049 0.55451 0.09400
C 	C 	0.01200 0.98782 0.95000 -0.12100
C 	C 	0.02265 0.01617 0.98003 -0.06900
C 	C 	0.00328 0.04413 0.98246 0.13300
C 	C 	0.97260 0.04341 0.95620 -0.10300
C 	C 	0.96099 0.01422 0.92989 -0.07400
C 	C 	0.98038 0.98642 0.92713 0.17300
H 	H 	0.04643 0.01708 0.99950 0.06500
O 	O 	0.01469 0.07232 0.00937 -0.25800
H 	H 	0.93739 0.01348 0.90961 0.02300
H 	H 	0.95893 0.94570 0.92651 0.08400
H 	H 	0.02610 0.08414 0.98364 0.08100
H 	H 	0.09749 0.04520 0.91411 -0.04400
C 	C 	0.07524 0.71735 0.99514 0.00500
C 	C 	0.08755 0.71258 0.94525 -0.02400
C 	C 	0.07741 0.68536 0.91167 -0.00900
C 	C 	0.05113 0.66622 0.92408 -0.01700
C 	C 	0.04101 0.66922 0.97595 -0.00900
C 	C 	0.05539 0.69309 0.01241 -0.01800
C 	C 	0.01502 0.64921 0.99121 0.09100
C 	C 	0.09465 0.67635 0.86559 0.09200
C 	C 	0.04990 0.69271 0.06742 0.09800
N 	N 	0.10840 0.66916 0.82881 -0.11000
N 	N 	0.99426 0.63330 0.00353 -0.09600
N 	N 	0.04561 0.69228 0.11139 -0.10400
N 	N 	0.15379 0.71892 0.06838 -0.10700
C 	C 	0.94057 0.07330 0.22903 0.14200
C 	C 	0.90920 0.06991 0.24524 -0.10700
O 	O 	0.95251 0.10362 0.22117 -0.26000
H 	H 	0.87260 0.03538 0.26167 0.01000
H 	H 	0.96292 0.11183 0.25541 0.05200
C 	C 	0.02011 0.77104 0.18091 -0.04200
C 	C 	0.98672 0.76581 0.18046 0.03200
C 	C 	0.97348 0.74710 0.22192 0.01300
C 	C 	0.93249 0.77633 0.14075 0.10300
C 	C 	0.96901 0.76298 0.27147 -0.02600
C 	C 	0.95457 0.74617 0.30978 -0.00600
C 	C 	0.94829 0.71228 0.30116 -0.01800
C 	C 	0.95444 0.69593 0.25242 -0.00600
C 	C 	0.96551 0.71374 0.21204 -0.02400
C 	C 	0.98030 0.79630 0.28351 0.10300
C 	C 	0.95040 0.66076 0.24439 0.09500
C 	C 	0.94499 0.76400 0.35706 0.09600
C 	C 	0.96810 0.69792 0.16019 0.10200
C 	C 	0.04201 0.74841 0.20524 0.10600
N 	N 	0.93734 0.77823 0.39476 -0.10500
N 	N 	0.94718 0.63269 0.23799 -0.11000
N 	N 	0.97006 0.68532 0.11876 -0.10100
N 	N 	0.90571 0.76909 0.13298 -0.11000
N 	N 	0.05948 0.73037 0.22481 -0.10700
Cd	Cd	0.00642 0.91993 0.21714 1.24100
Cd	Cd	0.01412 0.96296 0.34300 1.17200
O 	O 	0.03181 0.86608 0.21014 -0.31000
O 	O 	0.00056 0.88301 0.14591 -0.34400
C 	C 	0.01724 0.85908 0.16451 0.28000
O 	O 	0.97300 0.96256 0.20951 -0.36900
O 	O 	0.99686 0.99464 0.27840 -0.42900
C 	C 	0.97258 0.98846 0.24346 0.30100
C 	C 	0.96704 0.90176 0.29710 0.34000
O 	O 	0.05100 0.94380 0.28496 -0.46000
O 	O 	0.95658 0.88852 0.25142 -0.29300
O 	O 	0.99452 0.91662 0.29801 -0.53500
C 	C 	0.06229 0.96040 0.24889 0.31900
O 	O 	0.04974 0.95306 0.20151 -0.34900
Cd	Cd	0.07802 0.90030 0.96398 1.24300
Cd	Cd	0.07741 0.93458 0.84224 1.17500
O 	O 	0.11105 0.85177 0.97947 -0.31300
O 	O 	0.08324 0.87556 0.04058 -0.34000
C 	C 	0.09960 0.85001 0.02507 0.28000
O 	O 	0.04987 0.94639 0.97521 -0.37700
O 	O 	0.03477 0.94921 0.88805 -0.42500
C 	C 	0.03490 0.96152 0.93698 0.30700
C 	C 	0.12905 0.94192 0.94254 0.32100
O 	O 	0.06406 0.88248 0.86375 -0.43800
O 	O 	0.12995 0.93730 0.99249 -0.28300
O 	O 	0.10959 0.92286 0.91325 -0.54600
C 	C 	0.03625 0.87306 0.87795 0.31500
O 	O 	0.03266 0.87419 0.92794 -0.36700
Cd	Cd	0.86594 0.90310 0.73937 1.24200
O 	O 	0.81940 0.86643 0.73903 -0.31000
O 	O 	0.83000 0.89144 0.66921 -0.33900
C 	C 	0.81110 0.87180 0.69088 0.27700
O 	O 	0.90082 0.94292 0.72478 -0.37100
O 	O 	0.93581 0.93311 0.79444 -0.41400
C 	C 	0.92541 0.95213 0.75787 0.30000
O 	O 	0.89826 0.87269 0.81209 -0.45200
C 	C 	0.91586 0.85994 0.77572 0.32000
O 	O 	0.90573 0.86473 0.72779 -0.35500
Cd	Cd	0.81983 0.97458 0.47673 1.24300
Cd	Cd	0.85168 0.99227 0.35621 1.17500
O 	O 	0.78232 0.92830 0.47249 -0.31000
O 	O 	0.79666 0.95537 0.54710 -0.33900
C 	C 	0.77891 0.93230 0.52235 0.27800
O 	O 	0.85887 0.01175 0.50051 -0.37300
O 	O 	0.85736 0.03287 0.42003 -0.42600
C 	C 	0.87179 0.02993 0.46664 0.31100
C 	C 	0.86909 0.93449 0.43571 0.32300
O 	O 	0.86569 0.92900 0.48455 -0.28800
O 	O 	0.84804 0.95356 0.41487 -0.53800
C 	C 	0.60728 0.85239 0.81689 0.12800
N 	N 	0.60628 0.83845 0.86321 -0.13800
C 	C 	0.58321 0.84726 0.89641 0.13100
N 	N 	0.56102 0.86991 0.88296 -0.14200
C 	C 	0.56104 0.88272 0.83566 0.13200
N 	N 	0.58447 0.87429 0.80302 -0.13700
C 	C 	0.58164 0.86873 0.36410 0.12600
N 	N 	0.58808 0.85348 0.31719 -0.13800
C 	C 	0.56492 0.85063 0.27749 0.13200
N 	N 	0.53472 0.86099 0.28598 -0.14300
C 	C 	0.52803 0.87603 0.33280 0.13200
N 	N 	0.55171 0.88046 0.37145 -0.13800
O 	O 	0.05954 0.10566 0.35654 -0.43500
C 	C 	0.06807 0.07651 0.36871 0.30100
O 	O 	0.07468 0.07302 0.41836 -0.36600
N 	N 	0.12606 0.05923 0.55000 -0.10300
N 	N 	0.21979 0.04035 0.53555 -0.10600
C 	C 	0.49713 0.89305 0.33794 -0.04900
C 	C 	0.47954 0.89105 0.38296 0.10600
C 	C 	0.45361 0.91225 0.39084 -0.08600
C 	C 	0.44353 0.93351 0.35272 -0.00300
C 	C 	0.45960 0.93366 0.30583 0.07400
C 	C 	0.48647 0.91368 0.29922 -0.05100
N 	N 	0.48662 0.86810 0.41753 -0.19900
H 	H 	0.44081 0.91172 0.42620 0.05900
H 	H 	0.49965 0.91483 0.26435 0.05300
H 	H 	0.50257 0.84915 0.40906 0.10400
H 	H 	0.47465 0.86787 0.45202 0.09500
C 	C 	0.53722 0.90774 0.82159 -0.04700
C 	C 	0.50410 0.90303 0.82780 0.10400
C 	C 	0.48302 0.92948 0.82367 -0.08500
C 	C 	0.54793 0.93758 0.80520 -0.05100
N 	N 	0.49226 0.87298 0.83567 -0.19800
H 	H 	0.45794 0.92644 0.83110 0.05700
H 	H 	0.57317 0.94094 0.79914 0.05900
H 	H 	0.46235 0.94972 0.71920 0.09400
H 	H 	0.50622 0.85200 0.83084 0.09500
H 	H 	0.46815 0.87008 0.84329 0.08900
C 	C 	0.58444 0.83522 0.94938 -0.04400
C 	C 	0.55601 0.82604 0.97194 0.09800
C 	C 	0.55608 0.82457 0.02638 -0.07900
C 	C 	0.58449 0.83006 0.05797 -0.00800
C 	C 	0.61384 0.83412 0.03440 0.08100
C 	C 	0.61348 0.83723 0.98026 -0.05900
N 	N 	0.52893 0.81791 0.94150 -0.19700
H 	H 	0.53386 0.81981 0.04427 0.05700
C 	C 	0.58257 0.83545 0.11536 -0.00300
N 	N 	0.64224 0.83575 0.06359 -0.19500
H 	H 	0.63561 0.84260 0.96260 0.06200
C 	C 	0.57983 0.80836 0.14526 -0.08600
C 	C 	0.57563 0.81267 0.19919 0.10400
C 	C 	0.57420 0.84470 0.22335 -0.04700
C 	C 	0.57847 0.87168 0.19395 -0.05000
C 	C 	0.58203 0.86748 0.13999 0.07500
H 	H 	0.58059 0.78388 0.12640 0.05800
N 	N 	0.57294 0.78604 0.22734 -0.19900
H 	H 	0.57771 0.89617 0.21283 0.05600
N 	N 	0.58425 0.89425 0.11197 -0.19400
H 	H 	0.57350 0.76248 0.20899 0.09100
H 	H 	0.57080 0.78841 0.26769 0.09800
H 	H 	0.58429 0.91773 0.13072 0.09200
H 	H 	0.58542 0.89219 0.07143 0.09500
H 	H 	0.66369 0.83994 0.04620 0.09500
H 	H 	0.64341 0.83189 0.10340 0.09500
H 	H 	0.52934 0.81465 0.90087 0.09300
H 	H 	0.50755 0.81283 0.95852 0.08800
C 	C 	0.90050 0.05033 0.48270 -0.10900
C 	C 	0.92932 0.03533 0.49892 -0.05800
C 	C 	0.95896 0.04971 0.49036 0.16400
H 	H 	0.92882 0.01127 0.51376 0.07300
O 	O 	0.98697 0.03350 0.50195 -0.27400
H 	H 	0.99088 0.01950 0.46988 0.11700
C 	C 	0.70987 0.87676 0.52585 -0.03800
C 	C 	0.68567 0.90037 0.52024 0.02500
C 	C 	0.69205 0.93274 0.54027 -0.03700
C 	C 	0.72412 0.94297 0.55227 0.01900
C 	C 	0.74929 0.92066 0.54352 -0.06400
C 	C 	0.74199 0.88698 0.53708 0.01800
C 	C 	0.65826 0.89366 0.48079 0.01400
C 	C 	0.66595 0.95579 0.54500 0.10500
C 	C 	0.76772 0.86329 0.53677 0.08900
C 	C 	0.62922 0.88068 0.49557 -0.02600
C 	C 	0.60513 0.87022 0.45693 -0.00600
C 	C 	0.60822 0.87690 0.40419 -0.01800
C 	C 	0.63610 0.89301 0.39037 -0.00600
C 	C 	0.66165 0.89989 0.42808 -0.02700
C 	C 	0.62327 0.88019 0.55046 0.10100
C 	C 	0.63793 0.90381 0.33806 0.09300
C 	C 	0.57782 0.85166 0.47114 0.09300
C 	C 	0.69136 0.91377 0.41284 0.09700
C 	C 	0.70204 0.84236 0.51628 0.10100
C 	C 	0.73129 0.97675 0.56948 0.09400
N 	N 	0.55608 0.83682 0.48259 -0.11100
N 	N 	0.61842 0.88005 0.59428 -0.10700
N 	N 	0.63938 0.91243 0.29635 -0.11200
N 	N 	0.71505 0.92485 0.40072 -0.10500
N 	N 	0.64507 0.97418 0.54875 -0.10800
N 	N 	0.78830 0.84439 0.53644 -0.10200
N 	N 	0.69580 0.81486 0.50857 -0.10600
H 	H 	0.98278 0.94685 0.71542 0.06100
C 	C 	0.72244 0.88210 0.67426 -0.03800
C 	C 	0.71381 0.85010 0.68455 0.02500
C 	C 	0.73539 0.82444 0.67393 -0.03600
C 	C 	0.76741 0.83183 0.66439 0.01900
C 	C 	0.77804 0.86460 0.66944 -0.06300
C 	C 	0.75504 0.88984 0.66987 0.01900
C 	C 	0.68756 0.84540 0.72014 0.01400
C 	C 	0.72535 0.79081 0.67660 0.10200
C 	C 	0.76527 0.92370 0.67153 0.09600
C 	C 	0.65723 0.83339 0.70006 -0.02500
C 	C 	0.63115 0.83418 0.73254 -0.00400
C 	C 	0.63540 0.84715 0.78499 -0.01900
C 	C 	0.66627 0.85728 0.80578 -0.00600
C 	C 	0.69247 0.85530 0.77382 -0.02600
C 	C 	0.65308 0.81950 0.64657 0.10200
C 	C 	0.67076 0.87133 0.85922 0.09100
C 	C 	0.59999 0.82162 0.71210 0.09500
C 	C 	0.72452 0.86382 0.79592 0.09700
C 	C 	0.69825 0.90737 0.67280 0.10100
C 	C 	0.78990 0.80584 0.65278 0.09100
N 	N 	0.57512 0.81162 0.69580 -0.10700
N 	N 	0.64977 0.80829 0.60392 -0.10400
N 	N 	0.67438 0.88258 0.90181 -0.11300
N 	N 	0.71731 0.76395 0.67875 -0.10900
N 	N 	0.80788 0.78508 0.64348 -0.10400
N 	N 	0.77344 0.95074 0.67297 -0.09000
N 	N 	0.67889 0.92753 0.67168 -0.10700
O 	O 	0.96889 0.95830 0.90016 -0.32700
C 	C 	0.01070 0.86002 0.84009 -0.12600
C 	C 	0.98890 0.83713 0.85582 -0.05100
C 	C 	0.95820 0.83396 0.83083 0.15500
C 	C 	0.94975 0.85267 0.78841 -0.12500
C 	C 	0.97364 0.87043 0.76648 -0.05400
C 	C 	0.00383 0.87500 0.79304 0.17100
H 	H 	0.99482 0.82381 0.89008 0.07000
O 	O 	0.93622 0.81324 0.84874 -0.27500
H 	H 	0.96782 0.88342 0.73186 0.07000
O 	O 	0.02597 0.89513 0.77418 -0.32700
H 	H 	0.02072 0.91750 0.78830 0.10200
H 	H 	0.92587 0.82619 0.87708 0.13700
C 	C 	0.13773 0.97357 0.92432 -0.14400
C 	C 	0.15514 0.97382 0.87956 -0.08500
C 	C 	0.14947 0.99806 0.84448 0.15100
C 	C 	0.12647 0.02255 0.85479 -0.15300
C 	C 	0.11349 0.02531 0.90402 -0.06000
C 	C 	0.11992 0.00135 0.93941 0.14400
H 	H 	0.17074 0.95355 0.86941 0.05300
O 	O 	0.16666 0.99798 0.80068 -0.26800
O 	O 	0.10622 0.00354 0.98660 -0.30000
H 	H 	0.12223 0.01534 0.01128 0.16100
H 	H 	0.15506 0.98262 0.77437 0.13500
C 	C 	0.05290 0.77209 0.02394 -0.03800
C 	C 	0.07869 0.74992 0.02518 0.02900
C 	C 	0.10914 0.76101 0.04612 -0.03700
C 	C 	0.11557 0.79493 0.05309 0.02400
C 	C 	0.09103 0.81740 0.04139 -0.06500
C 	C 	0.05905 0.80590 0.03185 0.01700
C 	C 	0.13397 0.73763 0.05851 0.10500
C 	C 	0.03280 0.82881 0.02685 0.08200
C 	C 	0.10945 0.73632 0.92762 0.09400
C 	C 	0.02025 0.76021 0.01295 0.09400
C 	C 	0.14745 0.80671 0.07077 0.09500
N 	N 	0.12692 0.75530 0.91358 -0.10700
N 	N 	0.17291 0.81612 0.08489 -0.10000
N 	N 	0.01180 0.84705 0.02286 -0.10400
N 	N 	0.99417 0.75076 0.00428 -0.10400
C 	C 	0.94918 0.01478 0.23406 -0.09800
C 	C 	0.96011 0.04563 0.22224 -0.06200
C 	C 	0.89704 0.03842 0.25078 -0.06200
C 	C 	0.91696 0.01096 0.24563 0.14100
H 	H 	0.98421 0.04837 0.20978 0.06400
O 	O 	0.90493 0.98051 0.25236 -0.29700
H 	H 	0.90717 0.97823 0.29055 0.07800
C 	C 	0.94513 0.90847 0.33896 -0.16000
C 	C 	0.94356 0.94014 0.36278 -0.04500
C 	C 	0.92002 0.94822 0.39741 0.11300
C 	C 	0.89780 0.92451 0.40901 -0.12500
C 	C 	0.90051 0.89223 0.38790 -0.06600
C 	C 	0.92390 0.88417 0.35243 0.18500
H 	H 	0.95885 0.95927 0.35125 -0.06200
O 	O 	0.91846 0.97952 0.41934 -0.29200
H 	H 	0.88363 0.87372 0.39715 0.06800
O 	O 	0.92624 0.85257 0.33164 -0.27900
H 	H 	0.91127 0.85102 0.29996 0.15900
H 	H 	0.90813 0.99233 0.39166 0.04500
C 	C 	0.07615 0.99294 0.26372 -0.12600
C 	C 	0.06024 0.02050 0.24573 -0.05300
C 	C 	0.05929 0.04926 0.27843 0.16200
C 	C 	0.07578 0.05088 0.32822 -0.12200
C 	C 	0.09710 0.02578 0.34082 -0.06300
C 	C 	0.09756 0.99692 0.30834 0.14900
H 	H 	0.04551 0.01845 0.20933 0.07200
O 	O 	0.04149 0.07524 0.26239 -0.29900
H 	H 	0.11206 0.02791 0.37698 0.07000
O 	O 	0.11762 0.97194 0.32172 -0.27000
H 	H 	0.10599 0.95968 0.34665 0.12900
H 	H 	0.02023 0.07268 0.27682 0.07900
C 	C 	0.96602 0.78535 0.15055 -0.03900
C 	C 	0.97770 0.81475 0.13335 0.02400
C 	C 	0.00981 0.82438 0.14741 -0.06900
C 	C 	0.03178 0.80022 0.16301 0.02200
C 	C 	0.06593 0.80721 0.16711 0.09200
C 	C 	0.95682 0.83501 0.10223 0.10000
N 	N 	0.98950 0.82282 0.29305 -0.10100
N 	N 	0.94008 0.85117 0.07736 -0.10900
N 	N 	0.09319 0.81284 0.17076 -0.10100
