data_crystal

_cell_length_a 20.66145
_cell_length_b 23.07846
_cell_length_c 80.97106
_cell_angle_alpha 90.05370
_cell_angle_beta  90.02028
_cell_angle_gamma 119.47113

_symmetry_space_group_name_	'P 1'
_symmetry_space_group_name_H-M	'P 1'

loop_
_symmetry_equiv_pos_as_xyz
  x,y,z

loop_
_atom_site_label
_atom_site_type_symbol
_atom_site_fract_x
_atom_site_fract_y
_atom_site_fract_z
_atom_site_charge
C 	C 	0.14080 0.17863 0.76652 0.30800
C 	C 	0.14588 0.14936 0.81072 0.27800
C 	C 	0.10598 0.94541 0.80166 0.25600
C 	C 	0.08575 0.97154 0.75441 0.29500
Ni	Ni	0.14984 0.06713 0.78264 1.13000
O 	O 	0.09767 0.17699 0.77901 -0.35800
O 	O 	0.16312 0.13380 0.76493 -0.34900
O 	O 	0.05562 0.91428 0.79012 -0.36700
O 	O 	0.13978 0.99802 0.76565 -0.36100
O 	O 	0.07487 0.10731 0.81123 -0.34900
O 	O 	0.18622 0.14586 0.79861 -0.35400
O 	O 	0.01469 0.93912 0.75905 -0.36800
O 	O 	0.14452 0.01071 0.80200 -0.33300
H 	H 	0.04154 0.04563 0.76958 0.17200
Ni	Ni	0.06463 0.94768 0.22407 1.11500
Ni	Ni	0.03646 0.07364 0.22163 1.12200
O 	O 	0.14379 0.02841 0.23769 -0.34200
O 	O 	0.08761 0.09105 0.24400 -0.35900
O 	O 	0.11129 0.99453 0.20193 -0.36900
O 	O 	0.13679 0.09596 0.21183 -0.34900
O 	O 	0.99881 0.98152 0.22550 -0.72200
H 	H 	0.99181 0.98120 0.23753 0.16700
C 	C 	0.97003 0.88972 0.96385 0.33000
C 	C 	0.04758 0.07381 0.96762 0.29800
C 	C 	0.08849 0.05004 0.02309 0.31300
Ni	Ni	0.05030 0.97372 0.99208 1.11800
O 	O 	0.04860 0.91483 0.01086 -0.38100
O 	O 	0.99382 0.88924 0.97877 -0.36100
O 	O 	0.02378 0.00317 0.02932 -0.35900
O 	O 	0.10499 0.05204 0.00717 -0.35300
O 	O 	0.97668 0.05651 0.96988 -0.33700
O 	O 	0.07359 0.03239 0.97126 -0.34500
H 	H 	0.98670 0.02897 0.99730 0.19200
O 	O 	0.94348 0.68387 0.31787 -0.06500
N 	N 	0.95080 0.73812 0.00130 -0.02200
O 	O 	0.88872 0.69179 0.99507 -0.05400
O 	O 	0.00719 0.77275 0.99165 -0.07400
H 	H 	0.16798 0.00444 0.03901 0.07400
C 	C 	0.08887 0.18841 0.93161 0.06400
C 	C 	0.06194 0.12963 0.94075 -0.00000
N 	N 	0.05321 0.18815 0.91642 -0.01700
H 	H 	0.01492 0.08438 0.93612 0.07300
O 	O 	0.02111 0.22425 0.91493 -0.07600
C 	C 	0.98196 0.75717 0.93949 -0.06100
C 	C 	0.98981 0.85855 0.95047 -0.08100
C 	C 	0.94941 0.78898 0.94817 0.12900
H 	H 	0.95202 0.70353 0.93807 0.08900
N 	N 	0.11722 0.73140 0.95285 -0.01600
O 	O 	0.08660 0.67554 0.96094 -0.07600
O 	O 	0.14721 0.78753 0.96087 -0.07300
O 	O 	0.19094 0.93823 0.82259 -0.17900
C 	C 	0.12627 0.90724 0.81303 0.05600
C 	C 	0.09022 0.83850 0.81338 -0.05600
H 	H 	0.05265 0.80614 0.80393 0.06900
C 	C 	0.18244 0.30393 0.82659 0.13300
C 	C 	0.17352 0.35967 0.82446 -0.08200
O 	O 	0.12834 0.24073 0.82192 -0.18600
C 	C 	0.17322 0.21161 0.81990 0.05000
H 	H 	0.11855 0.35412 0.82317 0.08200
H 	H 	0.18829 0.47656 0.83560 0.07100
C 	C 	0.17860 0.23972 0.75662 -0.08100
C 	C 	0.17638 0.23687 0.73922 0.12900
N 	N 	0.13403 0.17456 0.73084 -0.02500
O 	O 	0.06321 0.13807 0.73372 -0.07100
H 	H 	0.06509 0.79199 0.70493 0.09100
C 	C 	0.06263 0.91324 0.71001 0.06600
C 	C 	0.04725 0.93131 0.72544 -0.00800
C 	C 	0.10465 0.96563 0.73697 -0.07000
N 	N 	0.00394 0.87964 0.69822 -0.01700
O 	O 	0.01420 0.89823 0.68284 -0.06700
C 	C 	0.01807 0.58316 0.42024 -0.07200
C 	C 	0.01594 0.55660 0.40457 0.02400
C 	C 	0.08186 0.56345 0.39753 0.06700
C 	C 	0.14850 0.59469 0.40653 -0.00200
C 	C 	0.08439 0.61365 0.42930 0.12700
N 	N 	0.08093 0.53728 0.38145 -0.01800
N 	N 	0.08457 0.63746 0.44563 -0.02200
O 	O 	0.04014 0.59687 0.45678 -0.09400
O 	O 	0.12415 0.57635 0.36992 -0.07100
O 	O 	0.96129 0.41402 0.41547 -0.07100
C 	C 	0.96753 0.47930 0.64072 0.03300
C 	C 	0.98973 0.45253 0.65380 0.06600
C 	C 	0.05484 0.49391 0.66268 0.00300
C 	C 	0.09773 0.56137 0.65855 -0.08000
C 	C 	0.07200 0.58883 0.64637 0.12900
C 	C 	0.00645 0.54796 0.63780 -0.07200
H 	H 	0.07353 0.47299 0.67231 0.07700
H 	H 	0.98893 0.56888 0.62793 0.09100
C 	C 	0.09958 0.53185 0.50745 0.12700
C 	C 	0.04902 0.46588 0.51166 -0.08600
C 	C 	0.07447 0.57594 0.50392 0.01600
C 	C 	0.12595 0.62353 0.49426 -0.04900
H 	H 	0.06822 0.43106 0.51459 0.08100
H 	H 	0.11506 0.65401 0.48578 0.08300
C 	C 	0.79936 0.36253 0.58232 0.30300
C 	C 	0.58940 0.18926 0.53256 0.27400
C 	C 	0.80725 0.38043 0.53495 0.27800
C 	C 	0.59078 0.17723 0.58022 0.30000
C 	C 	0.59312 0.37298 0.53499 0.28200
C 	C 	0.58957 0.38358 0.58028 0.31200
Ni	Ni	0.71394 0.26096 0.55626 1.11700
Ni	Ni	0.55749 0.26341 0.55863 1.12700
Ni	Ni	0.71246 0.40036 0.55907 1.12300
O 	O 	0.77402 0.29964 0.57787 -0.35200
O 	O 	0.80244 0.40757 0.57159 -0.36200
O 	O 	0.55597 0.30801 0.53732 -0.35100
O 	O 	0.66136 0.22948 0.53357 -0.34600
O 	O 	0.54564 0.18481 0.54489 -0.35400
O 	O 	0.66207 0.40503 0.57980 -0.38200
O 	O 	0.80813 0.33563 0.54478 -0.35100
O 	O 	0.75770 0.39979 0.53685 -0.35900
O 	O 	0.53964 0.32743 0.57283 -0.35200
O 	O 	0.63141 0.17541 0.56778 -0.35700
O 	O 	0.54882 0.20599 0.57856 -0.34400
O 	O 	0.63617 0.41330 0.54665 -0.36700
O 	O 	0.66245 0.30691 0.56146 -0.71900
H 	H 	0.66278 0.30485 0.57359 0.15400
C 	C 	0.46079 0.81927 0.43072 0.30400
C 	C 	0.23590 0.63389 0.47885 0.27800
C 	C 	0.46125 0.80911 0.47766 0.27900
C 	C 	0.21604 0.63992 0.43290 0.30300
C 	C 	0.42904 0.60901 0.47525 0.28100
C 	C 	0.41562 0.61056 0.42728 0.30100
Ni	Ni	0.33051 0.74438 0.45523 1.11900
Ni	Ni	0.30850 0.59552 0.45315 1.12400
Ni	Ni	0.47212 0.72057 0.45237 1.12600
O 	O 	0.41749 0.82405 0.44229 -0.34900
O 	O 	0.48708 0.77719 0.43217 -0.36800
O 	O 	0.38072 0.57202 0.46388 -0.36300
O 	O 	0.23713 0.67946 0.46891 -0.34300
O 	O 	0.27931 0.60833 0.47617 -0.35600
O 	O 	0.46814 0.64558 0.43841 -0.35200
O 	O 	0.38872 0.77387 0.47725 -0.35000
O 	O 	0.50139 0.80537 0.46554 -0.36200
O 	O 	0.34378 0.58045 0.43124 -0.36900
O 	O 	0.26125 0.70487 0.43484 -0.34100
O 	O 	0.21689 0.59547 0.44329 -0.35900
O 	O 	0.46657 0.67416 0.47377 -0.35400
O 	O 	0.36859 0.68842 0.44973 -0.72100
H 	H 	0.36558 0.68978 0.43761 0.16100
C 	C 	0.24730 0.77570 0.67642 0.30500
C 	C 	0.38891 0.63268 0.64383 0.32800
C 	C 	0.17350 0.60031 0.66510 0.32600
C 	C 	0.47254 0.81862 0.65287 0.30100
C 	C 	0.33835 0.58659 0.69691 0.32900
C 	C 	0.43576 0.77073 0.70621 0.30200
Ni	Ni	0.31310 0.71176 0.65249 1.12300
Ni	Ni	0.43583 0.70212 0.67561 1.12600
Ni	Ni	0.28380 0.67871 0.69145 1.13100
O 	O 	0.24513 0.74959 0.66154 -0.33600
O 	O 	0.27543 0.76178 0.68958 -0.36400
O 	O 	0.40720 0.63371 0.69397 -0.35700
O 	O 	0.37216 0.67735 0.63842 -0.35200
O 	O 	0.39412 0.62484 0.65967 -0.36500
O 	O 	0.36684 0.72056 0.70875 -0.34600
O 	O 	0.22922 0.61461 0.65522 -0.35400
O 	O 	0.18440 0.63269 0.67911 -0.34400
O 	O 	0.47492 0.77281 0.69301 -0.37200
O 	O 	0.40423 0.80458 0.64875 -0.35800
O 	O 	0.48798 0.77072 0.65706 -0.35000
O 	O 	0.28227 0.59167 0.69116 -0.36700
O 	O 	0.35146 0.71416 0.67362 -0.71800
H 	H 	0.37448 0.76204 0.67610 0.16100
C 	C 	0.91784 0.97245 0.81156 0.25700
C 	C 	0.88907 0.00030 0.76752 0.35100
Ni	Ni	0.01127 0.09191 0.79038 1.11900
Ni	Ni	0.98383 0.94434 0.78236 1.12100
O 	O 	0.91899 0.02197 0.80338 -0.32400
O 	O 	0.95654 0.94463 0.80645 -0.36700
O 	O 	0.93946 0.06339 0.77033 -0.35400
O 	O 	0.89181 0.94996 0.77501 -0.38300
O 	O 	0.04614 0.03817 0.78140 -0.71500
C 	C 	0.43895 0.69062 0.91600 0.30500
C 	C 	0.31348 0.54779 0.85433 0.27600
C 	C 	0.49100 0.73842 0.86976 0.27700
C 	C 	0.25510 0.48771 0.89906 0.30600
C 	C 	0.27242 0.70620 0.85946 0.28200
C 	C 	0.21475 0.67729 0.90310 0.31100
Ni	Ni	0.39824 0.60573 0.88547 1.11900
Ni	Ni	0.23257 0.58446 0.87875 1.12600
Ni	Ni	0.36413 0.72795 0.88928 1.12300
O 	O 	0.42681 0.63245 0.91001 -0.34900
O 	O 	0.44364 0.73844 0.90601 -0.36600
O 	O 	0.24601 0.64137 0.85876 -0.35700
O 	O 	0.37995 0.58757 0.86029 -0.34100
O 	O 	0.25497 0.52545 0.86400 -0.35600
O 	O 	0.28680 0.70773 0.90669 -0.37200
O 	O 	0.49240 0.69557 0.88013 -0.34500
O 	O 	0.43689 0.75282 0.87019 -0.37100
O 	O 	0.18335 0.62692 0.89231 -0.35300
O 	O 	0.31801 0.50724 0.89074 -0.34300
O 	O 	0.21224 0.51517 0.89652 -0.35600
O 	O 	0.29529 0.73850 0.87354 -0.36900
O 	O 	0.32892 0.63538 0.88788 -0.72400
H 	H 	0.31518 0.62344 0.89953 0.16400
C 	C 	0.78540 0.47601 0.09044 0.30900
C 	C 	0.56925 0.29536 0.14119 0.28100
C 	C 	0.79221 0.47794 0.13490 0.27800
C 	C 	0.53743 0.28895 0.09529 0.30900
C 	C 	0.76297 0.27310 0.13647 0.27800
C 	C 	0.73716 0.26293 0.08854 0.30500
Ni	Ni	0.65534 0.40025 0.11552 1.11800
Ni	Ni	0.63667 0.25239 0.11542 1.12500
Ni	Ni	0.79862 0.37839 0.11207 1.12800
O 	O 	0.73652 0.47809 0.10095 -0.35500
O 	O 	0.80586 0.42972 0.09129 -0.35400
O 	O 	0.71279 0.23306 0.12580 -0.36600
O 	O 	0.56690 0.33832 0.13088 -0.34700
O 	O 	0.61365 0.27096 0.13845 -0.35700
O 	O 	0.79213 0.30042 0.09892 -0.36400
O 	O 	0.72110 0.43673 0.13628 -0.35400
O 	O 	0.83219 0.46670 0.12406 -0.34600
O 	O 	0.66656 0.23254 0.09342 -0.35700
O 	O 	0.58090 0.35454 0.09621 -0.35700
O 	O 	0.54176 0.24829 0.10638 -0.35200
O 	O 	0.79945 0.33773 0.13397 -0.35300
O 	O 	0.69423 0.34449 0.11050 -0.72100
H 	H 	0.68810 0.34283 0.09842 0.16700
C 	C 	0.12660 0.06182 0.24853 0.30400
C 	C 	0.95487 0.85302 0.19932 0.28700
C 	C 	0.14453 0.05940 0.20040 0.28800
C 	C 	0.93857 0.84673 0.24431 0.32300
C 	C 	0.92730 0.03345 0.19500 0.29200
C 	C 	0.88760 0.02853 0.23905 0.32200
Ni	Ni	0.89848 0.92587 0.21935 1.12400
O 	O 	0.87765 0.98526 0.20434 -0.36800
O 	O 	0.00066 0.85941 0.21128 -0.36100
O 	O 	0.92370 0.89075 0.19875 -0.37000
O 	O 	0.94621 0.07616 0.23099 -0.37000
O 	O 	0.86904 0.96453 0.23829 -0.36700
O 	O 	0.00958 0.89308 0.24467 -0.37000
O 	O 	0.89058 0.84738 0.23324 -0.35800
O 	O 	0.99854 0.06183 0.19842 -0.37100
C 	C 	0.56158 0.40332 0.34470 0.30800
C 	C 	0.66716 0.25063 0.30314 0.32400
C 	C 	0.47056 0.22583 0.33369 0.32300
C 	C 	0.75765 0.43365 0.30905 0.30500
C 	C 	0.65562 0.20805 0.35569 0.32300
C 	C 	0.76382 0.39618 0.36459 0.30700
Ni	Ni	0.60044 0.33180 0.31680 1.12500
Ni	Ni	0.73796 0.32342 0.33331 1.13000
Ni	Ni	0.60217 0.30350 0.35584 1.12800
O 	O 	0.54453 0.37352 0.32992 -0.33100
O 	O 	0.59564 0.38769 0.35631 -0.35800
O 	O 	0.72161 0.25727 0.35153 -0.35300
O 	O 	0.64397 0.29282 0.29934 -0.34000
O 	O 	0.68225 0.24390 0.31842 -0.37000
O 	O 	0.69828 0.34587 0.36946 -0.35800
O 	O 	0.51771 0.23629 0.32185 -0.36300
O 	O 	0.49386 0.25843 0.34774 -0.34700
O 	O 	0.79186 0.39630 0.34981 -0.35600
O 	O 	0.68908 0.42327 0.31083 -0.35200
O 	O 	0.77669 0.38806 0.31343 -0.33800
O 	O 	0.59632 0.21458 0.35446 -0.37800
O 	O 	0.65458 0.33617 0.33568 -0.72300
H 	H 	0.68033 0.38442 0.33784 0.17000
C 	C 	0.86830 0.04192 0.00548 0.30600
C 	C 	0.78716 0.85624 0.99951 0.33000
C 	C 	0.98704 0.86450 0.01668 0.33500
Ni	Ni	0.89815 0.96397 0.97849 1.11600
Ni	Ni	0.92334 0.95269 0.01754 1.12300
O 	O 	0.84084 0.00118 0.99253 -0.33900
O 	O 	0.90668 0.03200 0.01729 -0.34200
O 	O 	0.94034 0.92708 0.96037 -0.35800
O 	O 	0.82716 0.86756 0.98616 -0.35000
O 	O 	0.81297 0.89840 0.01191 -0.37000
O 	O 	0.92494 0.86676 0.01698 -0.37000
O 	O 	0.96401 0.98035 0.99608 -0.73900
C 	C 	0.24948 0.07580 0.28479 -0.06900
C 	C 	0.21210 0.08608 0.29793 0.03000
C 	C 	0.14348 0.08361 0.29497 0.06600
C 	C 	0.11625 0.07604 0.27876 -0.00300
C 	C 	0.15740 0.07202 0.26544 -0.08000
C 	C 	0.22498 0.07251 0.26855 0.12500
C 	C 	0.25491 0.11818 0.31304 0.03300
N 	N 	0.10282 0.09142 0.30831 -0.01600
H 	H 	0.06309 0.07335 0.27656 0.07900
N 	N 	0.27188 0.07522 0.25521 -0.02200
H 	H 	0.30232 0.07782 0.28701 0.09000
C 	C 	0.28221 0.08472 0.32298 0.06300
C 	C 	0.34940 0.12169 0.33162 0.00200
C 	C 	0.39069 0.19101 0.32971 -0.08300
C 	C 	0.35931 0.22414 0.32091 0.12800
C 	C 	0.28823 0.18743 0.31417 -0.06900
N 	N 	0.24510 0.01340 0.32326 -0.01000
H 	H 	0.37217 0.09608 0.33872 0.07300
N 	N 	0.40407 0.29210 0.31612 -0.02200
H 	H 	0.26538 0.21315 0.30713 0.09200
O 	O 	0.29140 0.02975 0.25387 -0.07900
O 	O 	0.30071 0.12640 0.24539 -0.07600
O 	O 	0.07570 0.13145 0.30678 -0.07600
O 	O 	0.09034 0.05655 0.32173 -0.06000
O 	O 	0.44861 0.30645 0.30356 -0.11700
O 	O 	0.38772 0.33634 0.32157 -0.06800
O 	O 	0.28331 0.98250 0.32223 -0.08100
O 	O 	0.17320 0.97934 0.32482 -0.06900
C 	C 	0.81447 0.54779 0.27271 -0.06700
C 	C 	0.86760 0.60739 0.28003 0.02800
C 	C 	0.89537 0.60627 0.29588 0.07000
C 	C 	0.86508 0.54626 0.30473 -0.00400
C 	C 	0.80690 0.48786 0.29797 -0.07000
C 	C 	0.78440 0.48808 0.28153 0.12700
C 	C 	0.88999 0.67106 0.27146 0.03200
N 	N 	0.95269 0.66616 0.30319 -0.01400
H 	H 	0.88404 0.54590 0.31718 0.08300
N 	N 	0.72665 0.42852 0.27422 -0.02500
H 	H 	0.79443 0.54821 0.26036 0.08800
C 	C 	0.93071 0.68625 0.25662 0.06100
C 	C 	0.94339 0.74241 0.24752 0.00100
C 	C 	0.91750 0.78467 0.25326 -0.08500
C 	C 	0.87784 0.77025 0.26822 0.12800
C 	C 	0.86358 0.71312 0.27716 -0.07000
N 	N 	0.95920 0.64461 0.25074 -0.01300
H 	H 	0.97486 0.75400 0.23612 0.07000
N 	N 	0.85245 0.81366 0.27444 -0.02600
H 	H 	0.83179 0.70133 0.28851 0.09300
O 	O 	0.66508 0.42589 0.26950 -0.08400
O 	O 	0.73773 0.37876 0.27118 -0.06400
O 	O 	0.01550 0.70124 0.29553 -0.07100
O 	O 	0.78220 0.79052 0.27751 -0.06900
O 	O 	0.90017 0.87482 0.27830 -0.06600
O 	O 	0.94487 0.62143 0.23573 -0.08400
O 	O 	0.00321 0.63331 0.26001 -0.07800
C 	C 	0.77994 0.20488 0.27484 -0.06800
C 	C 	0.72652 0.14060 0.26999 0.02900
C 	C 	0.65172 0.11511 0.27476 0.06600
C 	C 	0.63162 0.15421 0.28448 0.00200
C 	C 	0.68592 0.21725 0.29003 -0.08300
C 	C 	0.76067 0.24237 0.28525 0.12900
C 	C 	0.75076 0.09888 0.26096 0.03300
N 	N 	0.59679 0.04857 0.27045 -0.01700
H 	H 	0.57433 0.13424 0.28835 0.07200
N 	N 	0.81811 0.30306 0.29214 -0.02300
H 	H 	0.83756 0.22432 0.27130 0.08900
C 	C 	0.77158 0.11205 0.24422 0.06000
C 	C 	0.81233 0.08510 0.23692 0.00200
C 	C 	0.83416 0.04633 0.24623 -0.08700
C 	C 	0.80932 0.02963 0.26265 0.13500
C 	C 	0.76670 0.05514 0.26984 -0.07300
N 	N 	0.75514 0.15596 0.23487 -0.01600
H 	H 	0.82912 0.09610 0.22410 0.07000
N 	N 	0.83053 0.98987 0.27236 -0.03200
H 	H 	0.75032 0.04454 0.28268 0.09400
O 	O 	0.84203 0.30317 0.30700 -0.10400
O 	O 	0.85523 0.35438 0.28264 -0.06500
O 	O 	0.55607 0.00715 0.28190 -0.07300
O 	O 	0.58453 0.03053 0.25503 -0.06900
O 	O 	0.90006 0.01227 0.27611 -0.06700
O 	O 	0.77974 0.93430 0.27875 -0.06300
O 	O 	0.80763 0.20517 0.22672 -0.08600
O 	O 	0.68711 0.14471 0.23381 -0.07300
C 	C 	0.93330 0.69120 0.02917 -0.06400
C 	C 	0.93888 0.69915 0.04637 0.02600
C 	C 	0.97801 0.76365 0.05319 0.07300
C 	C 	0.00475 0.81929 0.04282 -0.01700
C 	C 	0.99027 0.81112 0.02581 -0.07700
C 	C 	0.95906 0.74696 0.01884 0.13100
C 	C 	0.89908 0.64027 0.05716 0.03000
N 	N 	0.98734 0.77285 0.07069 -0.01500
H 	H 	0.03075 0.86876 0.04819 0.06400
H 	H 	0.90650 0.64166 0.02386 0.09200
C 	C 	0.82086 0.60752 0.05844 0.06300
C 	C 	0.78414 0.55311 0.06913 -0.00000
C 	C 	0.82475 0.53171 0.07878 -0.07900
C 	C 	0.90307 0.56486 0.07755 0.12700
C 	C 	0.93954 0.61801 0.06654 -0.06900
N 	N 	0.77864 0.62990 0.04905 -0.01700
H 	H 	0.72404 0.52798 0.07004 0.07000
N 	N 	0.94594 0.54690 0.08807 -0.02500
H 	H 	0.99965 0.64328 0.06565 0.09100
O 	O 	0.05380 0.80420 0.07700 -0.09100
O 	O 	0.92973 0.75514 0.08014 -0.08100
O 	O 	0.97981 0.51694 0.08192 -0.08400
O 	O 	0.95736 0.56656 0.10338 -0.08500
O 	O 	0.72743 0.58936 0.03892 -0.07400
O 	O 	0.78802 0.68931 0.05141 -0.07600
C 	C 	0.33688 0.19208 0.08151 -0.06900
C 	C 	0.34453 0.20008 0.06434 0.02600
C 	C 	0.41507 0.24236 0.05744 0.06900
C 	C 	0.47764 0.27360 0.06775 -0.00200
C 	C 	0.47046 0.26258 0.08484 -0.07700
C 	C 	0.39918 0.22373 0.09180 0.12500
C 	C 	0.27898 0.16171 0.05366 0.02900
N 	N 	0.42344 0.25324 0.03998 -0.01700
H 	H 	0.53203 0.30493 0.06239 0.08100
N 	N 	0.38967 0.21810 0.10935 -0.02200
H 	H 	0.28241 0.16110 0.08687 0.08600
C 	C 	0.25200 0.09331 0.05087 0.06600
C 	C 	0.18773 0.05675 0.04141 -0.00000
C 	C 	0.15004 0.08767 0.03463 -0.07700
C 	C 	0.17540 0.15553 0.03785 0.12700
C 	C 	0.24039 0.19243 0.04719 -0.06800
N 	N 	0.28958 0.06074 0.05773 -0.01700
N 	N 	0.13390 0.18647 0.03223 -0.02500
H 	H 	0.25987 0.24456 0.04974 0.08900
O 	O 	0.35995 0.15988 0.11632 -0.08500
O 	O 	0.40511 0.27048 0.11816 -0.09200
O 	O 	0.45189 0.31334 0.03415 -0.07400
O 	O 	0.40823 0.20388 0.03003 -0.06400
O 	O 	0.06309 0.15894 0.03533 -0.07200
O 	O 	0.16829 0.24548 0.02566 -0.06100
O 	O 	0.25363 0.00879 0.06711 -0.07600
O 	O 	0.35813 0.08008 0.05366 -0.06600
C 	C 	0.73399 0.21573 0.04366 -0.06700
C 	C 	0.78528 0.19259 0.04387 0.02900
C 	C 	0.82327 0.19565 0.05859 0.06300
C 	C 	0.80893 0.22090 0.07297 0.00000
C 	C 	0.75576 0.24188 0.07295 -0.07900
C 	C 	0.71893 0.24035 0.05813 0.12500
C 	C 	0.79606 0.16146 0.02898 0.02700
N 	N 	0.87516 0.17151 0.05906 -0.01700
H 	H 	0.83736 0.22200 0.08432 0.07500
N 	N 	0.66673 0.26420 0.05772 -0.02400
H 	H 	0.70528 0.21402 0.03231 0.09300
C 	C 	0.74364 0.09538 0.02485 0.06800
C 	C 	0.76482 0.05833 0.01477 0.00200
C 	C 	0.83836 0.08624 0.00922 -0.07400
C 	C 	0.88683 0.15510 0.01110 0.12900
C 	C 	0.86511 0.19262 0.02094 -0.06400
N 	N 	0.67079 0.06423 0.03190 -0.01800
H 	H 	0.72620 0.00603 0.01263 0.07800
N 	N 	0.95874 0.18653 0.00343 -0.02200
H 	H 	0.90380 0.24473 0.02329 0.09300
O 	O 	0.59994 0.22624 0.05204 -0.07600
O 	O 	0.68761 0.32540 0.06185 -0.09900
O 	O 	0.94461 0.21197 0.06255 -0.07500
O 	O 	0.85206 0.10835 0.05713 -0.07600
O 	O 	0.96606 0.17190 0.98827 -0.07200
O 	O 	0.01592 0.23303 0.01119 -0.06500
O 	O 	0.61318 0.04724 0.02249 -0.06600
O 	O 	0.66153 0.04736 0.04740 -0.07200
C 	C 	0.83082 0.08862 0.16924 0.12500
C 	C 	0.77069 0.10037 0.16752 -0.08000
C 	C 	0.78613 0.16589 0.16456 0.02300
C 	C 	0.85786 0.21717 0.16244 0.12300
C 	C 	0.91792 0.20526 0.16406 -0.07600
C 	C 	0.90247 0.13962 0.16685 0.01200
O 	O 	0.82613 0.03613 0.17857 -0.17200
C 	C 	0.90184 0.06107 0.18174 0.04200
C 	C 	0.94767 0.12265 0.17480 -0.03400
O 	O 	0.86283 0.27012 0.15327 -0.17400
C 	C 	0.78742 0.24470 0.14970 0.05400
C 	C 	0.74132 0.18270 0.15638 -0.04900
H 	H 	0.71409 0.06038 0.16904 0.08300
H 	H 	0.97454 0.24526 0.16256 0.08000
H 	H 	0.00262 0.15787 0.17932 0.05600
H 	H 	0.68671 0.14757 0.15166 0.07000
C 	C 	0.28620 0.16878 0.17353 0.12500
C 	C 	0.34262 0.23362 0.16999 -0.07700
C 	C 	0.41563 0.24500 0.16847 0.02000
C 	C 	0.43178 0.19381 0.16970 0.12700
C 	C 	0.37502 0.12888 0.17298 -0.07800
C 	C 	0.30187 0.11723 0.17406 0.02100
O 	O 	0.22181 0.15589 0.18193 -0.17800
C 	C 	0.20063 0.09165 0.18749 0.05000
C 	C 	0.24787 0.06829 0.18288 -0.04600
O 	O 	0.49656 0.20622 0.16163 -0.17600
C 	C 	0.51590 0.26826 0.15484 0.05500
C 	C 	0.46830 0.29204 0.15891 -0.04800
H 	H 	0.33049 0.27411 0.16902 0.07900
H 	H 	0.38708 0.08833 0.17392 0.08200
H 	H 	0.25375 0.03024 0.18947 0.07000
H 	H 	0.46107 0.32808 0.15173 0.07500
C 	C 	0.83124 0.63321 0.15164 0.12900
C 	C 	0.81072 0.67147 0.16150 -0.08400
C 	C 	0.85866 0.70889 0.17431 0.02100
C 	C 	0.92662 0.71258 0.17657 0.12000
C 	C 	0.94802 0.67547 0.16651 -0.06600
C 	C 	0.89995 0.63757 0.15370 0.01400
O 	O 	0.77888 0.57481 0.14408 -0.18400
C 	C 	0.82239 0.54437 0.14209 0.05100
C 	C 	0.89449 0.58121 0.14762 -0.04000
O 	O 	0.97769 0.76898 0.18506 -0.17200
C 	C 	0.93425 0.79959 0.18724 0.04600
C 	C 	0.86324 0.76391 0.18095 -0.05300
H 	H 	0.75759 0.66932 0.15979 0.07800
H 	H 	0.00100 0.67742 0.16832 0.07200
H 	H 	0.93001 0.56083 0.15100 0.07100
H 	H 	0.82588 0.78331 0.17855 0.06500
C 	C 	0.46830 0.67797 0.96167 -0.06900
C 	C 	0.53670 0.73598 0.96411 0.02900
C 	C 	0.56965 0.78151 0.95102 0.06400
C 	C 	0.53463 0.76816 0.93563 -0.00100
C 	C 	0.46802 0.70875 0.93293 -0.08100
C 	C 	0.43341 0.66430 0.94617 0.12300
C 	C 	0.57674 0.74678 0.97992 0.02900
N 	N 	0.64031 0.84016 0.95316 -0.01700
H 	H 	0.56135 0.80254 0.92551 0.07200
N 	N 	0.36263 0.60567 0.94395 -0.02300
H 	H 	0.44239 0.64335 0.97177 0.08900
C 	C 	0.59139 0.80225 0.98980 0.06400
C 	C 	0.65717 0.83333 0.99909 0.00200
C 	C 	0.70720 0.80878 0.99854 -0.08800
C 	C 	0.68292 0.74461 0.99209 0.13400
C 	C 	0.61758 0.71390 0.98262 -0.07100
N 	N 	0.54312 0.83042 0.98922 -0.01500
H 	H 	0.67276 0.87997 0.00532 0.06800
N 	N 	0.72633 0.71219 0.99449 -0.02400
H 	H 	0.60241 0.66775 0.97618 0.09000
O 	O 	0.30645 0.61050 0.93834 -0.09600
O 	O 	0.35334 0.54791 0.94838 -0.08400
O 	O 	0.69998 0.83522 0.95494 -0.09600
O 	O 	0.64581 0.89858 0.95186 -0.08700
O 	O 	0.76052 0.71862 0.00844 -0.06200
O 	O 	0.72852 0.67348 0.98307 -0.05800
O 	O 	0.47136 0.79183 0.98957 -0.07900
O 	O 	0.57086 0.89468 0.98871 -0.07900
C 	C 	0.20885 0.31443 0.91247 -0.06800
C 	C 	0.17804 0.31052 0.92814 0.02800
C 	C 	0.17070 0.36454 0.93409 0.06700
C 	C 	0.19524 0.42201 0.92442 -0.00200
C 	C 	0.22473 0.42530 0.90862 -0.07600
C 	C 	0.22927 0.37014 0.90243 0.12500
C 	C 	0.14883 0.24787 0.93772 0.02900
N 	N 	0.13758 0.36091 0.94986 -0.01800
H 	H 	0.19123 0.46403 0.92920 0.08000
N 	N 	0.25122 0.36925 0.88569 -0.02100
H 	H 	0.21381 0.27278 0.90777 0.09000
C 	C 	0.09101 0.13004 0.95644 -0.07200
C 	C 	0.15258 0.18881 0.96233 0.12500
C 	C 	0.18166 0.24729 0.95287 -0.06500
N 	N 	0.18414 0.18995 0.97814 -0.02600
H 	H 	0.22895 0.29246 0.95744 0.09200
O 	O 	0.21282 0.37422 0.87358 -0.08000
O 	O 	0.30584 0.35807 0.88254 -0.08500
O 	O 	0.17430 0.40563 0.96107 -0.07100
O 	O 	0.06886 0.31590 0.95257 -0.07000
O 	O 	0.21447 0.15303 0.98083 -0.07400
O 	O 	0.18859 0.23225 0.98932 -0.06100
O 	O 	0.04793 0.14802 0.90455 -0.08100
C 	C 	0.05349 0.79438 0.93284 0.02000
C 	C 	0.09042 0.86439 0.93372 0.06500
C 	C 	0.05804 0.89610 0.94241 -0.01100
C 	C 	0.09017 0.75984 0.92527 0.02900
N 	N 	0.16184 0.90335 0.92625 -0.01800
H 	H 	0.08835 0.94977 0.94381 0.06500
N 	N 	0.87533 0.75062 0.95455 -0.02300
C 	C 	0.12290 0.73109 0.93523 0.06400
C 	C 	0.16186 0.70247 0.92784 -0.00100
C 	C 	0.16831 0.70218 0.91061 -0.08200
C 	C 	0.13387 0.72946 0.90066 0.12300
C 	C 	0.09493 0.75795 0.90805 -0.07000
H 	H 	0.18807 0.68143 0.93552 0.07600
N 	N 	0.14116 0.73105 0.88308 -0.02400
H 	H 	0.06951 0.77976 0.90038 0.08400
O 	O 	0.85218 0.69050 0.95995 -0.06000
O 	O 	0.82870 0.77299 0.95336 -0.07000
O 	O 	0.17119 0.94679 0.91495 -0.09100
O 	O 	0.21872 0.89920 0.93165 -0.08100
O 	O 	0.10073 0.67751 0.87448 -0.08500
O 	O 	0.17953 0.78777 0.87558 -0.09200
C 	C 	0.19873 0.76450 0.82872 0.12600
C 	C 	0.13429 0.76349 0.82279 -0.07800
C 	C 	0.13118 0.82288 0.82339 0.02100
C 	C 	0.19100 0.88183 0.82855 0.12400
C 	C 	0.25595 0.88317 0.83410 -0.07700
C 	C 	0.25924 0.82385 0.83354 0.02100
O 	O 	0.19715 0.70857 0.83558 -0.17000
C 	C 	0.26137 0.74016 0.84529 0.05600
C 	C 	0.29895 0.80869 0.84401 -0.04800
H 	H 	0.08698 0.71746 0.81867 0.08100
H 	H 	0.30303 0.92918 0.83832 0.07900
H 	H 	0.33621 0.84227 0.85334 0.06800
C 	C 	0.23712 0.42295 0.82456 0.02700
C 	C 	0.30713 0.43031 0.82702 0.12700
C 	C 	0.31629 0.37390 0.82738 -0.07400
C 	C 	0.25230 0.31122 0.82797 0.02000
C 	C 	0.24755 0.25334 0.82338 -0.04600
O 	O 	0.35527 0.48805 0.83550 -0.17000
C 	C 	0.30672 0.51251 0.83880 0.05900
C 	C 	0.23796 0.47608 0.83146 -0.04900
H 	H 	0.37100 0.37899 0.82875 0.08400
H 	H 	0.29302 0.24802 0.81839 0.07300
C 	C 	0.64926 0.79498 0.84442 0.12500
C 	C 	0.71940 0.80112 0.84181 -0.08100
C 	C 	0.78060 0.86528 0.84008 0.01800
C 	C 	0.77217 0.92102 0.84011 0.12300
C 	C 	0.70196 0.91474 0.84283 -0.08000
C 	C 	0.64068 0.85053 0.84421 0.01900
O 	O 	0.59286 0.74100 0.85265 -0.17500
C 	C 	0.55011 0.76988 0.85744 0.04900
C 	C 	0.57808 0.83506 0.85252 -0.04800
O 	O 	0.82734 0.97450 0.83152 -0.18000
C 	C 	0.86811 0.94491 0.82582 0.05400
C 	C 	0.84107 0.88003 0.83098 -0.05200
H 	H 	0.72638 0.75759 0.84160 0.07900
H 	H 	0.69484 0.95820 0.84299 0.07900
H 	H 	0.56652 0.87085 0.85859 0.06300
H 	H 	0.85021 0.84348 0.82454 0.06500
C 	C 	0.73722 0.96123 0.73632 -0.07000
C 	C 	0.67512 0.93901 0.74674 0.03000
C 	C 	0.68561 0.94637 0.76399 0.05500
C 	C 	0.75671 0.96915 0.77063 0.00600
C 	C 	0.81779 0.98647 0.76023 -0.10500
C 	C 	0.80858 0.98543 0.74299 0.11800
C 	C 	0.59950 0.89906 0.73972 0.02800
N 	N 	0.62391 0.92957 0.77478 -0.01600
H 	H 	0.76427 0.97234 0.78392 0.06500
N 	N 	0.87129 0.00830 0.73220 -0.01000
H 	H 	0.72966 0.95685 0.72304 0.08800
C 	C 	0.57320 0.92618 0.72758 0.06100
C 	C 	0.51200 0.88361 0.71779 -0.00400
C 	C 	0.47672 0.81446 0.72010 -0.08000
C 	C 	0.49679 0.78863 0.73371 0.12700
C 	C 	0.55824 0.83094 0.74339 -0.07000
N 	N 	0.61010 0.99657 0.72478 -0.03200
H 	H 	0.49483 0.90397 0.70772 0.06200
N 	N 	0.45823 0.71875 0.73701 -0.02300
H 	H 	0.57677 0.81009 0.75308 0.08900
O 	O 	0.91099 0.97871 0.73209 -0.09700
O 	O 	0.88474 0.05487 0.72150 -0.05700
O 	O 	0.61383 0.89246 0.78767 -0.09300
O 	O 	0.58007 0.95418 0.77220 -0.08100
O 	O 	0.41527 0.69606 0.74987 -0.06700
O 	O 	0.47348 0.67922 0.72847 -0.07400
O 	O 	0.62718 0.01984 0.70983 -0.06100
O 	O 	0.62385 0.03726 0.73709 -0.05300
C 	C 	0.24696 0.45783 0.73046 -0.06700
C 	C 	0.28196 0.41952 0.72843 0.03000
C 	C 	0.34007 0.43924 0.71684 0.06600
C 	C 	0.36044 0.49573 0.70700 0.00600
C 	C 	0.32380 0.53293 0.70874 -0.08100
C 	C 	0.26820 0.51475 0.72092 0.13100
C 	C 	0.25508 0.35733 0.73804 0.03200
N 	N 	0.37805 0.40184 0.71495 -0.01700
H 	H 	0.40369 0.50980 0.69779 0.07800
N 	N 	0.23315 0.55413 0.72361 -0.03000
H 	H 	0.20283 0.44320 0.73947 0.09000
C 	C 	0.26029 0.35962 0.75543 0.05900
C 	C 	0.22114 0.30100 0.76461 0.00000
C 	C 	0.21453 0.29569 0.73003 -0.06900
N 	N 	0.30497 0.42156 0.76381 -0.01600
H 	H 	0.22499 0.30298 0.77798 0.06800
H 	H 	0.21026 0.29373 0.71667 0.09500
O 	O 	0.26939 0.61154 0.73094 -0.08200
O 	O 	0.16300 0.52983 0.72019 -0.08500
O 	O 	0.38388 0.38081 0.70041 -0.06900
O 	O 	0.41072 0.39234 0.72756 -0.06700
O 	O 	0.16531 0.15633 0.71959 -0.06100
O 	O 	0.27786 0.43811 0.77630 -0.09000
O 	O 	0.37417 0.45931 0.75964 -0.07200
C 	C 	0.11118 0.81563 0.69636 -0.07000
C 	C 	0.14743 0.88483 0.69416 0.03100
C 	C 	0.20528 0.91454 0.68244 0.06100
C 	C 	0.23372 0.87646 0.67515 -0.00300
C 	C 	0.20343 0.80900 0.67917 -0.07700
C 	C 	0.13861 0.77765 0.68886 0.12900
C 	C 	0.13528 0.92610 0.70644 0.02700
N 	N 	0.23668 0.98362 0.67835 -0.03100
H 	H 	0.28159 0.90009 0.66706 0.06800
N 	N 	0.10398 0.70790 0.69216 -0.02400
C 	C 	0.17915 0.98927 0.73197 0.11200
C 	C 	0.19373 0.96749 0.71702 -0.06500
H 	H 	0.99043 0.91701 0.72859 0.08700
N 	N 	0.23990 0.03705 0.74167 -0.01400
H 	H 	0.25038 0.98061 0.71396 0.08700
O 	O 	0.05556 0.66562 0.68183 -0.06400
O 	O 	0.11468 0.68719 0.70629 -0.08600
O 	O 	0.30845 0.02141 0.67744 -0.06000
O 	O 	0.19346 0.00823 0.67499 -0.05000
O 	O 	0.28715 0.02153 0.74805 -0.07200
O 	O 	0.25278 0.09809 0.74252 -0.07000
O 	O 	0.93954 0.83175 0.70295 -0.07800
C 	C 	0.43603 0.45369 0.36635 -0.06900
C 	C 	0.48207 0.52288 0.36677 0.03100
C 	C 	0.54597 0.55276 0.35670 0.06500
C 	C 	0.56763 0.51251 0.34798 -0.00200
C 	C 	0.52721 0.44313 0.34962 -0.07400
C 	C 	0.45995 0.41350 0.35857 0.12900
C 	C 	0.47447 0.56003 0.38078 0.03000
N 	N 	0.59161 0.62374 0.35620 -0.01700
H 	H 	0.61842 0.53535 0.34078 0.07400
N 	N 	0.42089 0.34334 0.36156 -0.02200
H 	H 	0.38601 0.43068 0.37381 0.09000
C 	C 	0.41189 0.56902 0.38199 0.06300
C 	C 	0.39430 0.58714 0.39717 -0.00300
C 	C 	0.43753 0.59486 0.41125 -0.08100
C 	C 	0.50134 0.58756 0.40986 0.12500
C 	C 	0.52089 0.57298 0.39452 -0.07100
N 	N 	0.36459 0.55742 0.36798 -0.01700
H 	H 	0.34643 0.59445 0.39804 0.06900
N 	N 	0.54285 0.58943 0.42420 -0.02200
H 	H 	0.56880 0.56573 0.39364 0.08900
O 	O 	0.35386 0.30730 0.35583 -0.06900
O 	O 	0.44575 0.31846 0.37266 -0.09000
O 	O 	0.66335 0.65097 0.35782 -0.07400
O 	O 	0.56168 0.66110 0.35368 -0.06300
O 	O 	0.51298 0.54248 0.43520 -0.07900
O 	O 	0.61270 0.63414 0.42541 -0.08200
O 	O 	0.29286 0.52106 0.36949 -0.07500
O 	O 	0.39291 0.58583 0.35392 -0.06300
C 	C 	0.14974 0.61841 0.42253 -0.07500
C 	C 	0.94395 0.51888 0.39591 0.03200
H 	H 	0.19861 0.59817 0.40131 0.06800
H 	H 	0.96772 0.57875 0.42558 0.09100
C 	C 	0.89160 0.45413 0.40105 0.06700
C 	C 	0.82668 0.41684 0.39182 -0.00200
C 	C 	0.81488 0.44249 0.37713 -0.07300
C 	C 	0.86318 0.50976 0.37301 0.12400
C 	C 	0.92794 0.54737 0.38234 -0.06700
N 	N 	0.90545 0.42522 0.41531 -0.01600
H 	H 	0.78805 0.36631 0.39548 0.09000
N 	N 	0.84681 0.53979 0.35929 -0.02300
H 	H 	0.96627 0.59842 0.37891 0.09400
O 	O 	0.12321 0.70078 0.44884 -0.09100
O 	O 	0.04158 0.47362 0.37872 -0.07100
O 	O 	0.77966 0.52983 0.35715 -0.09100
O 	O 	0.90000 0.58070 0.34963 -0.07600
O 	O 	0.85865 0.40498 0.42754 -0.08000
C 	C 	0.64550 0.09711 0.39059 -0.07100
C 	C 	0.59740 0.03438 0.38384 0.03700
C 	C 	0.57988 0.02868 0.36687 0.06700
C 	C 	0.60556 0.08626 0.35721 0.00200
C 	C 	0.64933 0.14938 0.36427 -0.08600
C 	C 	0.67228 0.15447 0.38086 0.12700
C 	C 	0.56146 0.97569 0.39484 0.02000
N 	N 	0.53470 0.96464 0.35950 -0.02000
H 	H 	0.58893 0.08202 0.34437 0.07400
N 	N 	0.71960 0.21816 0.38811 -0.02600
H 	H 	0.66056 0.10154 0.40355 0.09100
C 	C 	0.60418 0.95198 0.40295 0.06300
C 	C 	0.57074 0.90109 0.41467 -0.00300
C 	C 	0.49437 0.87200 0.41807 -0.08000
C 	C 	0.45102 0.89379 0.40942 0.12000
C 	C 	0.48501 0.94630 0.39811 -0.06600
N 	N 	0.68166 0.97960 0.39933 -0.02100
H 	H 	0.60433 0.88423 0.42117 0.07100
N 	N 	0.37216 0.86105 0.41160 -0.02500
H 	H 	0.45183 0.96400 0.39177 0.08700
O 	O 	0.69742 0.23694 0.40106 -0.09000
O 	O 	0.78782 0.25362 0.38303 -0.06900
O 	O 	0.47621 0.95307 0.35096 -0.07800
O 	O 	0.55420 0.91909 0.36060 -0.06700
O 	O 	0.34076 0.89431 0.41700 -0.08600
O 	O 	0.33125 0.79982 0.40671 -0.08200
O 	O 	0.73031 0.00220 0.41122 -0.07700
O 	O 	0.70315 0.97848 0.38429 -0.06900
C 	C 	0.49207 0.48258 0.58892 -0.06900
C 	C 	0.50828 0.49772 0.60569 0.02900
C 	C 	0.55378 0.47739 0.61401 0.06500
C 	C 	0.58069 0.44049 0.60557 0.00100
C 	C 	0.56297 0.42407 0.58888 -0.08400
C 	C 	0.51957 0.44642 0.58045 0.12500
C 	C 	0.47435 0.53189 0.61466 0.02900
N 	N 	0.57262 0.49404 0.63104 -0.01700
H 	H 	0.61518 0.42447 0.61200 0.07300
N 	N 	0.50571 0.43469 0.56313 -0.02400
H 	H 	0.45778 0.49874 0.58245 0.08700
C 	C 	0.49813 0.59967 0.61173 0.06400
C 	C 	0.46501 0.63104 0.62033 -0.00100
C 	C 	0.40956 0.59583 0.63210 -0.08700
C 	C 	0.38320 0.52720 0.63438 0.12800
C 	C 	0.41600 0.49576 0.62572 -0.07000
N 	N 	0.55708 0.63719 0.60032 -0.01600
H 	H 	0.48534 0.68374 0.61851 0.08500
N 	N 	0.32323 0.48940 0.64556 -0.02400
H 	H 	0.39602 0.44313 0.62758 0.09100
O 	O 	0.44970 0.37924 0.55799 -0.08200
O 	O 	0.54211 0.48291 0.55274 -0.08900
O 	O 	0.56011 0.44753 0.64169 -0.07000
O 	O 	0.60671 0.55603 0.63569 -0.06800
O 	O 	0.26055 0.48938 0.64401 -0.07500
O 	O 	0.33031 0.45290 0.65687 -0.07400
O 	O 	0.54685 0.66921 0.58831 -0.07900
O 	O 	0.62257 0.64363 0.60271 -0.07200
C 	C 	0.93394 0.39905 0.61757 -0.07100
C 	C 	0.91351 0.43533 0.62822 0.03100
C 	C 	0.85006 0.44098 0.62457 0.06200
C 	C 	0.81293 0.41669 0.60951 -0.00500
C 	C 	0.83723 0.38521 0.59829 -0.08600
C 	C 	0.89672 0.37459 0.60257 0.12900
N 	N 	0.82450 0.47295 0.63595 -0.01700
H 	H 	0.76512 0.42229 0.60655 0.06500
N 	N 	0.92181 0.34184 0.59135 -0.02400
H 	H 	0.98222 0.39399 0.62041 0.09300
N 	N 	0.94765 0.38313 0.65773 -0.01700
N 	N 	0.11515 0.65729 0.64183 -0.02400
O 	O 	0.92296 0.28837 0.59595 -0.07200
O 	O 	0.94903 0.36837 0.57706 -0.08300
O 	O 	0.80639 0.51628 0.63066 -0.07800
O 	O 	0.81601 0.45647 0.65149 -0.06200
O 	O 	0.16870 0.67526 0.63116 -0.11700
O 	O 	0.09289 0.69899 0.64607 -0.06900
O 	O 	0.98118 0.34844 0.65969 -0.07000
O 	O 	0.87619 0.35520 0.65997 -0.06100
C 	C 	0.59526 0.95636 0.62530 -0.09700
C 	C 	0.58363 0.00638 0.63213 0.06800
C 	C 	0.55766 0.99975 0.64849 0.03000
C 	C 	0.53467 0.93973 0.65694 0.01000
C 	C 	0.53328 0.88535 0.64885 -0.09100
C 	C 	0.57058 0.89587 0.63365 0.13600
C 	C 	0.58602 0.05886 0.62125 0.01700
N 	N 	0.54941 0.05185 0.65609 -0.00700
H 	H 	0.51005 0.93301 0.66911 0.05700
N 	N 	0.57743 0.84321 0.62598 -0.02500
H 	H 	0.61887 0.96269 0.61304 0.09200
C 	C 	0.65431 0.10979 0.61518 0.07200
C 	C 	0.65490 0.15138 0.60252 -0.00900
C 	C 	0.58804 0.14195 0.59560 -0.08000
C 	C 	0.51973 0.09324 0.60227 0.12500
C 	C 	0.51916 0.05270 0.61523 -0.06300
N 	N 	0.72319 0.11781 0.62140 -0.01800
H 	H 	0.70756 0.18974 0.59768 0.07000
N 	N 	0.45087 0.08214 0.59533 -0.02300
H 	H 	0.46652 0.01381 0.61995 0.08900
O 	O 	0.55441 0.82537 0.61090 -0.08400
O 	O 	0.61071 0.81583 0.63371 -0.07200
O 	O 	0.48690 0.03842 0.66310 -0.07200
O 	O 	0.60518 0.11226 0.65653 -0.06000
O 	O 	0.43158 0.05705 0.58058 -0.08200
O 	O 	0.40433 0.09096 0.60434 -0.07100
O 	O 	0.77367 0.12131 0.61122 -0.07300
O 	O 	0.73725 0.12566 0.63716 -0.05900
C 	C 	0.51882 0.55151 0.50238 0.12600
C 	C 	0.58230 0.54615 0.50567 -0.07600
C 	C 	0.57409 0.48221 0.50703 0.02200
C 	C 	0.50516 0.42582 0.50630 0.12500
C 	C 	0.44174 0.43114 0.50284 -0.07600
C 	C 	0.44999 0.49510 0.50147 0.02100
O 	O 	0.52264 0.60641 0.49440 -0.17300
C 	C 	0.45008 0.57689 0.48823 0.05500
C 	C 	0.40640 0.51062 0.49237 -0.04900
O 	O 	0.50123 0.37159 0.51468 -0.16800
C 	C 	0.57386 0.40143 0.52084 0.05900
C 	C 	0.61770 0.46714 0.51623 -0.04700
H 	H 	0.63653 0.59018 0.50659 0.08200
H 	H 	0.38748 0.38713 0.50195 0.08200
H 	H 	0.35781 0.47502 0.48555 0.07000
H 	H 	0.66634 0.50331 0.52294 0.07200
C 	C 	0.56484 0.06792 0.50326 0.11300
C 	C 	0.59604 0.03239 0.49585 -0.06400
C 	C 	0.56120 0.96334 0.49844 -0.00000
C 	C 	0.49644 0.93040 0.50746 0.13300
C 	C 	0.46483 0.96596 0.51461 -0.10000
C 	C 	0.49837 0.03452 0.51163 0.03700
O 	O 	0.60743 0.13446 0.50773 -0.17300
C 	C 	0.56054 0.13739 0.51976 0.05600
C 	C 	0.49518 0.07825 0.52199 -0.05900
O 	O 	0.45368 0.86365 0.50342 -0.17700
C 	C 	0.49632 0.86033 0.49046 0.04700
C 	C 	0.56120 0.91936 0.48755 -0.04400
H 	H 	0.64701 0.05791 0.48880 0.07800
H 	H 	0.41383 0.94047 0.52166 0.08300
H 	H 	0.46256 0.06449 0.53325 0.08100
H 	H 	0.58993 0.93297 0.47579 0.06700
C 	C 	0.97292 0.44523 0.51106 0.02600
C 	C 	0.94774 0.48934 0.50776 0.12200
C 	C 	0.99822 0.55539 0.50352 -0.07300
O 	O 	0.16866 0.54966 0.50074 -0.17800
C 	C 	0.18137 0.60708 0.49230 0.05500
O 	O 	0.87822 0.47078 0.51442 -0.17700
C 	C 	0.86502 0.41198 0.52226 0.05300
C 	C 	0.92097 0.39631 0.52027 -0.05300
H 	H 	0.97894 0.59011 0.50055 0.08200
H 	H 	0.93164 0.36523 0.52861 0.07600
