data_crystal

_cell_length_a 30.02504
_cell_length_b 26.71086
_cell_length_c 44.98489
_cell_angle_alpha 89.91734
_cell_angle_beta  89.91391
_cell_angle_gamma 91.07741

_symmetry_space_group_name_	'P 1'
_symmetry_space_group_name_H-M	'P 1'

loop_
_symmetry_equiv_pos_as_xyz
  x,y,z

loop_
_atom_site_label
_atom_site_type_symbol
_atom_site_fract_x
_atom_site_fract_y
_atom_site_fract_z
_atom_site_charge
Zn	Zn	0.50505 0.51880 0.98113 1.22100
C 	C 	0.53536 0.41976 0.99445 0.31100
O 	O 	0.55590 0.54434 0.95783 -0.47300
O 	O 	0.51542 0.40711 0.96947 -0.44900
O 	O 	0.58479 0.47131 0.94245 -0.48700
C 	C 	0.43553 0.46957 0.94864 0.32400
O 	O 	0.44941 0.48239 0.97524 -0.44900
O 	O 	0.46367 0.47002 0.92620 -0.50400
C 	C 	0.59063 0.51631 0.95345 0.31500
O 	O 	0.46635 0.59196 0.96997 -0.32400
Zn	Zn	0.52515 0.44796 0.93116 1.16900
O 	O 	0.53524 0.46662 0.00345 -0.43800
C 	C 	0.47547 0.60520 0.99705 0.27300
O 	O 	0.49763 0.57320 0.01245 -0.38400
Zn	Zn	0.28349 0.24507 0.99905 1.21700
C 	C 	0.26050 0.21077 0.94008 0.32200
O 	O 	0.31024 0.29762 0.97424 -0.45800
O 	O 	0.23951 0.25305 0.93615 -0.45200
O 	O 	0.24824 0.34523 0.97338 -0.50700
C 	C 	0.19534 0.20857 0.01208 0.32100
O 	O 	0.23199 0.22727 0.02366 -0.47600
O 	O 	0.17942 0.22779 0.98757 -0.49300
C 	C 	0.29108 0.34015 0.96844 0.32700
O 	O 	0.31381 0.28381 0.04173 -0.33300
Zn	Zn	0.20628 0.28820 0.96994 1.16500
O 	O 	0.27323 0.19699 0.96683 -0.44400
C 	C 	0.34228 0.24786 0.04131 0.27900
O 	O 	0.33762 0.21624 0.01968 -0.39100
C 	C 	0.46491 0.91759 0.65207 0.14000
C 	C 	0.43231 0.94506 0.66690 -0.10800
H 	H 	0.41258 0.97169 0.65468 0.07000
C 	C 	0.42607 0.93899 0.69759 0.05500
C 	C 	0.45219 0.90516 0.71335 -0.09000
C 	C 	0.48545 0.87849 0.69877 0.05400
C 	C 	0.49149 0.88430 0.66803 -0.10600
H 	H 	0.51740 0.86405 0.65667 0.07100
N 	N 	0.47246 0.92530 0.62082 -0.18200
C 	C 	0.50624 0.95705 0.61169 0.19600
C 	C 	0.51349 0.96595 0.58119 -0.07700
C 	C 	0.48491 0.94334 0.56026 0.05900
C 	C 	0.45172 0.90925 0.56992 -0.08000
C 	C 	0.44576 0.90085 0.60060 0.19700
C 	C 	0.54980 0.99545 0.57141 -0.00100
C 	C 	0.55673 0.00381 0.54112 -0.04700
C 	C 	0.52520 0.98644 0.51997 0.01000
C 	C 	0.49032 0.95375 0.52955 -0.02600
C 	C 	0.46207 0.92966 0.50859 0.01500
C 	C 	0.42616 0.88273 0.54889 0.01000
C 	C 	0.43247 0.89133 0.51856 -0.05700
C 	C 	0.52911 0.99890 0.48928 0.01300
C 	C 	0.50085 0.97474 0.46836 -0.02700
C 	C 	0.46572 0.94250 0.47797 0.01500
O 	O 	0.41425 0.86955 0.60994 -0.20300
O 	O 	0.53171 0.97972 0.63158 -0.20600
H 	H 	0.40232 0.85414 0.55590 0.04300
H 	H 	0.41604 0.86631 0.50305 0.04600
H 	H 	0.57377 0.01053 0.58716 0.04700
H 	H 	0.58777 0.02135 0.53427 0.04400
C 	C 	0.43381 0.92577 0.45692 -0.05800
C 	C 	0.44073 0.93395 0.42660 0.01000
C 	C 	0.47768 0.96238 0.41673 -0.08000
C 	C 	0.50664 0.98451 0.43761 0.05700
C 	C 	0.55921 0.03663 0.47915 -0.05300
C 	C 	0.56624 0.04412 0.44878 0.00800
C 	C 	0.54070 0.01737 0.42785 -0.07700
C 	C 	0.48541 0.97042 0.38620 0.19700
N 	N 	0.52073 0.99988 0.37698 -0.18500
C 	C 	0.54767 0.02417 0.39713 0.19900
C 	C 	0.53007 0.00466 0.34575 0.14600
C 	C 	0.55422 0.96757 0.33109 -0.11100
C 	C 	0.56213 0.97135 0.30047 0.05100
C 	C 	0.54673 0.01271 0.28464 -0.08600
C 	C 	0.52249 0.04974 0.29914 0.05400
C 	C 	0.51406 0.04568 0.32972 -0.10700
O 	O 	0.45893 0.94910 0.36637 -0.20500
O 	O 	0.58066 0.05337 0.38769 -0.20300
H 	H 	0.56608 0.93559 0.34343 0.07100
H 	H 	0.49485 0.07393 0.34097 0.07200
H 	H 	0.40256 0.90880 0.46387 0.04500
H 	H 	0.41648 0.91934 0.41089 0.04200
H 	H 	0.57549 0.06205 0.49450 0.04500
H 	H 	0.59058 0.07209 0.44164 0.04400
H 	H 	0.55272 0.01551 0.26090 0.05500
H 	H 	0.44806 0.90137 0.73722 0.05500
Zn	Zn	0.77350 0.71351 0.99750 1.21800
C 	C 	0.75913 0.71667 0.06048 0.31800
O 	O 	0.83666 0.73356 0.99329 -0.47000
O 	O 	0.77163 0.66959 0.06047 -0.44600
O 	O 	0.86023 0.70213 0.03738 -0.49500
C 	C 	0.74502 0.61153 0.00045 0.33100
O 	O 	0.73279 0.65782 0.00365 -0.46500
O 	O 	0.78569 0.59899 0.00742 -0.50400
C 	C 	0.86315 0.73627 0.01645 0.31700
O 	O 	0.77053 0.69326 0.94671 -0.33800
Zn	Zn	0.82163 0.64283 0.03343 1.16500
O 	O 	0.76234 0.74399 0.03613 -0.44000
C 	C 	0.74741 0.73354 0.94386 0.28000
O 	O 	0.74175 0.75882 0.96814 -0.38800
Zn	Zn	0.30236 0.77187 0.98561 1.22200
C 	C 	0.28597 0.80226 0.04594 0.31800
O 	O 	0.25315 0.81764 0.98048 -0.45000
O 	O 	0.29206 0.84878 0.03693 -0.44400
O 	O 	0.30153 0.88274 0.97344 -0.50100
C 	C 	0.39302 0.78305 0.00404 0.32200
O 	O 	0.36685 0.77183 0.98166 -0.48000
O 	O 	0.38536 0.82267 0.02017 -0.49100
C 	C 	0.26068 0.86442 0.97309 0.32600
O 	O 	0.30030 0.75351 0.93448 -0.32800
Zn	Zn	0.34109 0.86996 0.00710 1.17400
O 	O 	0.29794 0.76470 0.02893 -0.44300
C 	C 	0.28249 0.71099 0.94255 0.27800
O 	O 	0.27660 0.70513 0.97089 -0.39100
C 	C 	0.98563 0.53888 0.65907 0.14600
C 	C 	0.02346 0.54449 0.67714 -0.11100
H 	H 	0.05526 0.55485 0.66724 0.07000
C 	C 	0.02013 0.53670 0.70788 0.04800
C 	C 	0.97883 0.52395 0.72056 -0.08200
C 	C 	0.94092 0.51862 0.70266 0.05300
C 	C 	0.94434 0.52570 0.67185 -0.10600
H 	H 	0.91515 0.52131 0.65789 0.07200
N 	N 	0.98923 0.54686 0.62754 -0.17900
C 	C 	0.00763 0.51062 0.61006 0.19200
C 	C 	0.01491 0.51940 0.57956 -0.07800
C 	C 	0.00075 0.56441 0.56682 0.05400
C 	C 	0.98245 0.60140 0.58508 -0.07300
C 	C 	0.97649 0.59167 0.61563 0.19600
C 	C 	0.03814 0.48507 0.56210 0.00800
C 	C 	0.04601 0.49473 0.53206 -0.05700
C 	C 	0.02695 0.53666 0.51803 0.01400
C 	C 	0.00620 0.57309 0.53592 -0.03100
C 	C 	0.99273 0.61908 0.52345 0.01800
C 	C 	0.97248 0.64831 0.57294 0.00900
C 	C 	0.97927 0.65776 0.54275 -0.05600
C 	C 	0.02986 0.54405 0.48672 0.01800
C 	C 	0.01553 0.58970 0.47415 -0.03700
C 	C 	0.99495 0.62617 0.49212 0.02400
O 	O 	0.95902 0.62598 0.63292 -0.20300
O 	O 	0.01867 0.46742 0.62192 -0.20500
H 	H 	0.96090 0.67824 0.58704 0.04400
H 	H 	0.97638 0.69581 0.53492 0.04600
H 	H 	0.05190 0.45178 0.57203 0.04300
H 	H 	0.06892 0.47106 0.52038 0.04500
C 	C 	0.97479 0.66748 0.47816 -0.06200
C 	C 	0.98049 0.67607 0.44779 0.01900
C 	C 	0.00321 0.64160 0.43012 -0.08900
C 	C 	0.01973 0.59782 0.44311 0.06500
C 	C 	0.04449 0.50580 0.46750 -0.06000
C 	C 	0.05098 0.51526 0.43730 0.01200
C 	C 	0.03895 0.56130 0.42494 -0.08400
C 	C 	0.00737 0.64877 0.39919 0.19400
N 	N 	0.02612 0.61265 0.38181 -0.18100
C 	C 	0.04326 0.57025 0.39421 0.19800
C 	C 	0.02430 0.61716 0.34999 0.13400
C 	C 	0.99129 0.59087 0.33405 -0.10100
C 	C 	0.99105 0.59235 0.30292 0.05800
C 	C 	0.02322 0.62129 0.28777 -0.09500
C 	C 	0.05614 0.64781 0.30357 0.05400
C 	C 	0.05674 0.64575 0.33473 -0.10500
O 	O 	0.99233 0.68990 0.38680 -0.19900
O 	O 	0.06315 0.53729 0.37719 -0.20600
H 	H 	0.96660 0.56837 0.34588 0.06900
H 	H 	0.08256 0.66556 0.34703 0.07100
H 	H 	0.95261 0.69147 0.49026 0.04700
H 	H 	0.96557 0.70869 0.43787 0.04200
H 	H 	0.04846 0.46793 0.47533 0.04500
H 	H 	0.06344 0.48566 0.42329 0.04200
H 	H 	0.02341 0.62204 0.26365 0.05400
H 	H 	0.97610 0.51855 0.74441 0.05500
Zn	Zn	0.77110 0.28582 0.01450 1.22100
C 	C 	0.76528 0.29820 0.95072 0.31900
O 	O 	0.70908 0.28559 0.02815 -0.47000
O 	O 	0.76085 0.24914 0.94925 -0.45400
O 	O 	0.67805 0.26021 0.98467 -0.49900
C 	C 	0.81022 0.19138 0.00226 0.32500
O 	O 	0.81711 0.23997 0.00199 -0.45600
O 	O 	0.76952 0.17298 0.00005 -0.50700
C 	C 	0.67619 0.28672 0.00912 0.32000
O 	O 	0.79241 0.27095 0.06418 -0.32900
Zn	Zn	0.72263 0.20906 0.97949 1.16700
O 	O 	0.76352 0.32094 0.97660 -0.44500
C 	C 	0.80487 0.31773 0.06402 0.28200
O 	O 	0.79958 0.34110 0.03913 -0.38900
Zn	Zn	0.02373 0.99801 0.01278 1.21700
C 	C 	0.09666 0.94606 0.98671 0.31000
O 	O 	0.99537 0.93169 0.00706 -0.44200
O 	O 	0.08622 0.91161 0.00652 -0.44400
O 	O 	0.01501 0.90460 0.05303 -0.50400
C 	C 	0.09608 0.03522 0.04900 0.31800
O 	O 	0.05346 0.03915 0.04314 -0.46900
O 	O 	0.11345 0.99064 0.05116 -0.49700
C 	C 	0.99048 0.89975 0.02903 0.33000
O 	O 	0.95649 0.02668 0.03271 -0.32700
Zn	Zn	0.07637 0.92986 0.05058 1.17000
O 	O 	0.07559 0.98882 0.98668 -0.43800
C 	C 	0.95170 0.04941 0.00747 0.27600
O 	O 	0.98378 0.04376 0.98852 -0.37800
C 	C 	0.91819 0.08832 0.00375 -0.05800
C 	C 	0.88443 0.08356 0.98214 0.00900
C 	C 	0.84966 0.11799 0.98159 -0.01100
H 	H 	0.82351 0.11410 0.96509 0.02700
C 	C 	0.84841 0.15728 0.00233 -0.08800
C 	C 	0.88321 0.16276 0.02332 0.03000
C 	C 	0.91758 0.12810 0.02387 -0.02700
H 	H 	0.94346 0.13144 0.04052 0.04800
C 	C 	0.88367 0.20350 0.04547 0.01500
C 	C 	0.87143 0.19304 0.07501 -0.04300
C 	C 	0.88159 0.22748 0.09751 -0.01600
C 	C 	0.90383 0.27247 0.09063 -0.03700
C 	C 	0.91447 0.28396 0.06110 -0.02100
C 	C 	0.90461 0.24952 0.03855 -0.04400
C 	C 	0.88540 0.04280 0.95998 0.02400
C 	C 	0.87662 0.99308 0.96872 -0.05400
C 	C 	0.88223 0.95406 0.94846 -0.01400
C 	C 	0.89532 0.96455 0.91923 -0.04400
C 	C 	0.90301 0.01410 0.91024 -0.01300
C 	C 	0.89817 0.05321 0.93056 -0.04900
H 	H 	0.87704 0.91569 0.95549 0.03400
H 	H 	0.89969 0.93428 0.90359 0.03900
H 	H 	0.91317 0.02216 0.88762 0.03200
H 	H 	0.90509 0.09143 0.92362 0.04500
H 	H 	0.86665 0.98465 0.99137 0.04600
H 	H 	0.85563 0.15749 0.08064 0.04500
H 	H 	0.87272 0.21901 0.12032 0.03300
H 	H 	0.91463 0.25778 0.01589 0.04800
H 	H 	0.93095 0.31921 0.05575 0.03000
H 	H 	0.91209 0.29883 0.10812 0.03800
C 	C 	0.84571 0.46560 0.81564 -0.04200
C 	C 	0.81985 0.45868 0.78997 0.00700
C 	C 	0.77949 0.43148 0.79167 -0.04400
H 	H 	0.75912 0.42630 0.77202 0.03800
C 	C 	0.76615 0.40947 0.81857 -0.03700
C 	C 	0.79342 0.41395 0.84383 -0.00300
C 	C 	0.83267 0.44321 0.84240 -0.03600
H 	H 	0.85390 0.44705 0.86174 0.03700
C 	C 	0.78301 0.38471 0.87093 0.02800
C 	C 	0.77864 0.33238 0.86942 -0.07200
C 	C 	0.77269 0.30418 0.89536 0.01700
C 	C 	0.77112 0.32803 0.92318 -0.09900
C 	C 	0.77478 0.38057 0.92458 0.01800
C 	C 	0.78081 0.40867 0.89861 -0.07100
C 	C 	0.83770 0.47505 0.76095 0.00800
C 	C 	0.85532 0.43952 0.74145 -0.04200
C 	C 	0.88535 0.45461 0.71925 -0.03200
C 	C 	0.89791 0.50524 0.71650 -0.00800
C 	C 	0.87559 0.54125 0.73329 -0.03200
C 	C 	0.84564 0.52618 0.75553 -0.04300
H 	H 	0.90169 0.42659 0.70594 0.04200
H 	H 	0.88432 0.58058 0.73086 0.04100
H 	H 	0.83129 0.55400 0.76999 0.04000
H 	H 	0.84859 0.39997 0.74501 0.04100
H 	H 	0.78077 0.31346 0.84819 0.04400
H 	H 	0.76970 0.26380 0.89380 0.02700
H 	H 	0.78382 0.44909 0.90001 0.04700
H 	H 	0.77323 0.39968 0.94575 0.03400
H 	H 	0.73530 0.38784 0.81960 0.03300
H 	H 	0.87691 0.48660 0.81453 0.04000
C 	C 	0.90914 0.41869 0.17678 -0.03700
C 	C 	0.86340 0.41751 0.17052 -0.00300
C 	C 	0.83362 0.44114 0.18978 -0.03800
H 	H 	0.79822 0.44030 0.18513 0.03700
C 	C 	0.84964 0.46682 0.21476 -0.04300
C 	C 	0.89554 0.46904 0.22061 0.00700
C 	C 	0.92516 0.44440 0.20168 -0.04300
H 	H 	0.96066 0.44609 0.20594 0.04000
C 	C 	0.91296 0.49978 0.24532 0.00900
C 	C 	0.90768 0.55187 0.24496 -0.04400
C 	C 	0.93081 0.58207 0.26528 -0.03100
C 	C 	0.95959 0.56044 0.28601 -0.01000
C 	C 	0.96244 0.50813 0.28770 -0.03100
C 	C 	0.93914 0.47791 0.26747 -0.04300
C 	C 	0.84694 0.39300 0.14328 0.02400
C 	C 	0.82004 0.34963 0.14516 -0.06700
C 	C 	0.80586 0.32530 0.11928 0.01000
C 	C 	0.81859 0.34412 0.09129 -0.08100
C 	C 	0.84513 0.38784 0.08946 0.00800
C 	C 	0.85918 0.41220 0.11534 -0.06900
H 	H 	0.78522 0.29172 0.12100 0.03700
H 	H 	0.85535 0.40258 0.06801 0.03100
H 	H 	0.87984 0.44578 0.11370 0.03800
H 	H 	0.81052 0.33451 0.16666 0.04600
H 	H 	0.88725 0.56909 0.22810 0.03800
H 	H 	0.92793 0.62240 0.26408 0.03800
H 	H 	0.94287 0.43766 0.26821 0.04200
H 	H 	0.98432 0.49105 0.30377 0.04400
H 	H 	0.82651 0.48558 0.22930 0.03900
H 	H 	0.93231 0.40022 0.16212 0.03600
C 	C 	0.13907 0.94196 0.97074 -0.08000
C 	C 	0.14557 0.90148 0.95125 0.02100
C 	C 	0.18812 0.88065 0.94895 -0.01200
H 	H 	0.19327 0.84886 0.93445 0.04200
C 	C 	0.22275 0.89746 0.96766 -0.08900
C 	C 	0.21657 0.94090 0.98512 0.02700
C 	C 	0.17631 0.96623 0.98292 -0.02900
H 	H 	0.17178 0.00013 0.99547 0.04700
C 	C 	0.24636 0.95271 0.01046 0.00400
C 	C 	0.23165 0.94370 0.03968 -0.03900
C 	C 	0.25909 0.95621 0.06372 -0.02700
C 	C 	0.30147 0.97710 0.05874 -0.04200
C 	C 	0.31635 0.98586 0.02970 -0.06400
C 	C 	0.28862 0.97445 0.00560 -0.07000
C 	C 	0.10749 0.87905 0.93469 0.01600
C 	C 	0.09785 0.82748 0.93688 -0.04700
C 	C 	0.06013 0.80708 0.92290 -0.02100
C 	C 	0.03200 0.83786 0.90659 -0.03800
C 	C 	0.04173 0.88906 0.90399 -0.01900
C 	C 	0.07949 0.90966 0.91784 -0.04600
H 	H 	0.05254 0.76744 0.92489 0.03000
H 	H 	0.00268 0.82202 0.89594 0.03500
H 	H 	0.01993 0.91282 0.89133 0.03200
H 	H 	0.08672 0.94940 0.91577 0.04700
H 	H 	0.11920 0.80340 0.94969 0.04300
H 	H 	0.19900 0.92706 0.04371 0.02800
H 	H 	0.24765 0.94932 0.08621 0.02900
H 	H 	0.30037 0.98132 0.98318 0.03600
H 	H 	0.34927 0.00177 0.02587 0.01800
H 	H 	0.32284 0.98636 0.07736 0.02700
C 	C 	0.18843 0.55407 0.80459 -0.04200
C 	C 	0.14587 0.57365 0.80033 0.00600
C 	C 	0.12744 0.60464 0.82209 -0.04300
H 	H 	0.09433 0.61933 0.81918 0.03800
C 	C 	0.15198 0.61753 0.84736 -0.03700
C 	C 	0.19515 0.59935 0.85121 -0.00200
C 	C 	0.21298 0.56683 0.82996 -0.03800
H 	H 	0.24620 0.55240 0.83280 0.03700
C 	C 	0.22319 0.61875 0.87567 0.02500
C 	C 	0.20840 0.61459 0.90522 -0.06500
C 	C 	0.22958 0.64234 0.92764 0.01100
C 	C 	0.26566 0.67444 0.92061 -0.08100
C 	C 	0.28284 0.67497 0.89157 0.01100
C 	C 	0.26161 0.64740 0.86919 -0.06400
C 	C 	0.12063 0.56224 0.77303 0.00800
C 	C 	0.10450 0.51343 0.76783 -0.04400
C 	C 	0.07407 0.50427 0.74490 -0.03300
C 	C 	0.05937 0.54393 0.72714 -0.00800
C 	C 	0.07799 0.59203 0.73098 -0.03300
C 	C 	0.10857 0.60115 0.75382 -0.04300
H 	H 	0.06031 0.46685 0.74183 0.03800
H 	H 	0.06714 0.62281 0.71723 0.04000
H 	H 	0.12145 0.63882 0.75738 0.04100
H 	H 	0.11400 0.48305 0.78234 0.03800
H 	H 	0.17931 0.59169 0.91057 0.04200
H 	H 	0.21663 0.64065 0.95011 0.03600
H 	H 	0.27369 0.65031 0.84653 0.04600
H 	H 	0.31163 0.69827 0.88609 0.03700
H 	H 	0.13798 0.64283 0.86354 0.03700
H 	H 	0.20274 0.52972 0.78802 0.03900
C 	C 	0.15696 0.75909 0.16186 -0.03800
C 	C 	0.20348 0.76255 0.15929 -0.00600
C 	C 	0.23018 0.75468 0.18440 -0.03600
H 	H 	0.26614 0.75732 0.18263 0.03600
C 	C 	0.21050 0.74230 0.21171 -0.04300
C 	C 	0.16399 0.73750 0.21408 0.00700
C 	C 	0.13730 0.74649 0.18909 -0.04400
H 	H 	0.10139 0.74260 0.19063 0.03600
C 	C 	0.14333 0.71920 0.24196 0.00800
C 	C 	0.10986 0.74690 0.25580 -0.04400
C 	C 	0.08378 0.72509 0.27830 -0.03200
C 	C 	0.09110 0.67557 0.28718 -0.01000
C 	C 	0.12718 0.64964 0.27529 -0.03200
C 	C 	0.15312 0.67128 0.25269 -0.04300
C 	C 	0.22423 0.77300 0.13015 0.02700
C 	C 	0.25033 0.81654 0.12594 -0.07500
C 	C 	0.27032 0.82618 0.09841 0.01800
C 	C 	0.26444 0.79231 0.07482 -0.09700
C 	C 	0.23789 0.74902 0.07895 0.01700
C 	C 	0.21795 0.73937 0.10651 -0.07300
H 	H 	0.29108 0.85946 0.09558 0.02400
H 	H 	0.23269 0.72287 0.06084 0.03200
H 	H 	0.19778 0.70569 0.10955 0.04500
H 	H 	0.25525 0.84278 0.14404 0.04300
H 	H 	0.10264 0.78434 0.24812 0.03800
H 	H 	0.05623 0.74558 0.28757 0.03900
H 	H 	0.17921 0.64977 0.24241 0.04000
H 	H 	0.13331 0.61151 0.28220 0.04100
H 	H 	0.23139 0.73559 0.23087 0.04000
H 	H 	0.13609 0.76551 0.14265 0.03000
C 	C 	0.89572 0.77829 0.01929 -0.08200
C 	C 	0.88197 0.82858 0.01745 0.02300
C 	C 	0.91349 0.86773 0.02013 -0.01300
H 	H 	0.90292 0.90623 0.01831 0.04100
C 	C 	0.95813 0.85766 0.02636 -0.08600
C 	C 	0.97175 0.80750 0.02914 0.03200
C 	C 	0.94053 0.76817 0.02536 -0.01900
H 	H 	0.95114 0.72970 0.02722 0.03400
C 	C 	0.01851 0.79582 0.03612 -0.00200
C 	C 	0.03062 0.78350 0.06532 -0.05300
C 	C 	0.07533 0.77561 0.07232 -0.03800
C 	C 	0.10801 0.77986 0.05024 -0.05300
C 	C 	0.09601 0.79154 0.02106 -0.03200
C 	C 	0.05131 0.79919 0.01391 -0.04900
C 	C 	0.83434 0.84087 0.01556 0.01300
C 	C 	0.81442 0.84830 0.98776 -0.05100
C 	C 	0.77082 0.86558 0.98606 -0.01700
C 	C 	0.74668 0.87446 0.01207 -0.03600
C 	C 	0.76631 0.86676 0.03982 -0.01600
C 	C 	0.81009 0.85008 0.04162 -0.04300
H 	H 	0.75564 0.87172 0.96460 0.03500
H 	H 	0.71279 0.88737 0.01071 0.03400
H 	H 	0.74766 0.87389 0.05994 0.03200
H 	H 	0.82526 0.84466 0.06319 0.04600
H 	H 	0.83268 0.84073 0.96753 0.04900
H 	H 	0.00554 0.78083 0.08261 0.03700
H 	H 	0.08466 0.76649 0.09489 0.02500
H 	H 	0.04228 0.80884 0.99135 0.04900
H 	H 	0.12142 0.79519 0.00408 0.04000
H 	H 	0.14263 0.77421 0.05576 0.03500
C 	C 	0.63803 0.77536 0.78553 -0.04200
C 	C 	0.59339 0.78961 0.78769 0.00600
C 	C 	0.57269 0.79119 0.81569 -0.04300
H 	H 	0.53829 0.80228 0.81763 0.03800
C 	C 	0.59674 0.77985 0.84133 -0.03800
C 	C 	0.64179 0.76727 0.83923 -0.00200
C 	C 	0.66218 0.76444 0.81119 -0.03700
H 	H 	0.69691 0.75458 0.80934 0.03800
C 	C 	0.66793 0.75829 0.86639 0.02500
C 	C 	0.67337 0.79635 0.88764 -0.06600
C 	C 	0.69940 0.78841 0.91291 0.01100
C 	C 	0.72032 0.74236 0.91709 -0.08100
C 	C 	0.71455 0.70420 0.89586 0.01000
C 	C 	0.68841 0.71212 0.87070 -0.06700
C 	C 	0.56932 0.80652 0.76101 0.00800
C 	C 	0.58559 0.84781 0.74468 -0.04300
C 	C 	0.55956 0.86884 0.72235 -0.03200
C 	C 	0.51693 0.84903 0.71634 -0.00900
C 	C 	0.50195 0.80569 0.73123 -0.03200
C 	C 	0.52810 0.78441 0.75343 -0.04400
H 	H 	0.57147 0.90219 0.71088 0.04300
H 	H 	0.46920 0.78990 0.72656 0.03900
H 	H 	0.51561 0.75194 0.76551 0.03900
H 	H 	0.61751 0.86496 0.75018 0.04000
H 	H 	0.65780 0.83221 0.88443 0.04300
H 	H 	0.70351 0.81815 0.92907 0.03400
H 	H 	0.68395 0.68231 0.85461 0.04300
H 	H 	0.72997 0.66823 0.89895 0.03700
H 	H 	0.58057 0.78150 0.86284 0.03600
H 	H 	0.65421 0.77367 0.76402 0.04000
C 	C 	0.67480 0.87564 0.19737 -0.04300
C 	C 	0.65097 0.84629 0.21810 0.00700
C 	C 	0.64579 0.79456 0.21343 -0.04200
H 	H 	0.62753 0.77157 0.22932 0.04000
C 	C 	0.66345 0.77258 0.18791 -0.03600
C 	C 	0.68658 0.80215 0.16694 -0.00400
C 	C 	0.69262 0.85364 0.17196 -0.03600
H 	H 	0.71079 0.87666 0.15604 0.03700
C 	C 	0.70426 0.77929 0.13966 0.02900
C 	C 	0.73664 0.74228 0.14154 -0.07200
C 	C 	0.75451 0.72183 0.11568 0.02000
C 	C 	0.74017 0.73824 0.08767 -0.09700
C 	C 	0.70740 0.77489 0.08580 0.01900
C 	C 	0.68951 0.79531 0.11168 -0.07200
C 	C 	0.62857 0.87042 0.24338 0.00800
C 	C 	0.65333 0.89984 0.26351 -0.04300
C 	C 	0.63149 0.93018 0.28398 -0.03200
C 	C 	0.58482 0.93112 0.28453 -0.00900
C 	C 	0.56016 0.89881 0.26601 -0.03200
C 	C 	0.58193 0.86865 0.24546 -0.04300
H 	H 	0.65079 0.95474 0.29838 0.04100
H 	H 	0.52408 0.89903 0.26648 0.04000
H 	H 	0.56251 0.84577 0.23020 0.04000
H 	H 	0.68938 0.90079 0.26243 0.04100
H 	H 	0.74829 0.72975 0.16304 0.04500
H 	H 	0.77977 0.69354 0.11742 0.02300
H 	H 	0.66421 0.82357 0.11002 0.04400
H 	H 	0.69543 0.78716 0.06433 0.03200
H 	H 	0.65871 0.73276 0.18424 0.03700
H 	H 	0.67872 0.91565 0.20067 0.03800
C 	C 	0.17288 0.16483 0.02607 -0.08500
C 	C 	0.19223 0.11702 0.02519 0.02400
C 	C 	0.16971 0.07596 0.03804 -0.01800
H 	H 	0.18561 0.03997 0.03878 0.04700
C 	C 	0.12572 0.08048 0.04798 -0.08500
C 	C 	0.10863 0.12892 0.05230 0.02300
C 	C 	0.13200 0.17079 0.04065 -0.01500
H 	H 	0.11871 0.20799 0.04336 0.02900
C 	C 	0.06992 0.13670 0.07211 0.01900
C 	C 	0.06998 0.11759 0.10125 -0.04400
C 	C 	0.03474 0.12773 0.12056 -0.02900
C 	C 	0.99984 0.15773 0.11113 -0.03000
C 	C 	0.99995 0.17734 0.08232 -0.01800
C 	C 	0.03439 0.16617 0.06264 -0.05100
C 	C 	0.23317 0.10831 0.00794 0.01600
C 	C 	0.27509 0.11495 0.02124 -0.05100
C 	C 	0.31373 0.10451 0.00516 -0.01300
C 	C 	0.31060 0.08675 0.97601 -0.03600
C 	C 	0.26881 0.07879 0.96298 -0.01200
C 	C 	0.23015 0.08992 0.97879 -0.04200
H 	H 	0.34606 0.10953 0.01541 0.03600
H 	H 	0.34052 0.07835 0.96369 0.03100
H 	H 	0.26641 0.06420 0.94060 0.03600
H 	H 	0.19789 0.08409 0.96847 0.04700
H 	H 	0.27771 0.12819 0.04393 0.04900
H 	H 	0.09750 0.09543 0.10901 0.03800
H 	H 	0.03477 0.11280 0.14294 0.03100
H 	H 	0.03376 0.18088 0.04019 0.04100
H 	H 	0.97334 0.20107 0.07520 0.03500
H 	H 	0.97281 0.16600 0.12618 0.03600
C 	C 	0.32943 0.02293 0.81108 -0.03600
C 	C 	0.32968 0.04855 0.78379 0.00300
C 	C 	0.31483 0.09801 0.78252 -0.04100
H 	H 	0.31467 0.11803 0.76155 0.03900
C 	C 	0.30123 0.12216 0.80845 -0.03800
C 	C 	0.30200 0.09689 0.83582 -0.00300
C 	C 	0.31548 0.04693 0.83695 -0.03900
H 	H 	0.31582 0.02700 0.85794 0.03800
C 	C 	0.29035 0.12334 0.86343 0.02800
C 	C 	0.32207 0.12933 0.88610 -0.07300
C 	C 	0.31204 0.15718 0.91143 0.02200
C 	C 	0.27013 0.17899 0.91437 -0.09800
C 	C 	0.23811 0.17213 0.89199 0.02200
C 	C 	0.24815 0.14436 0.86664 -0.07200
C 	C 	0.34888 0.02493 0.75717 0.01500
C 	C 	0.38648 0.04667 0.74333 -0.04700
C 	C 	0.40962 0.02013 0.72169 -0.02500
C 	C 	0.39557 0.97155 0.71388 -0.01500
C 	C 	0.35613 0.95134 0.72606 -0.02800
C 	C 	0.33275 0.97801 0.74755 -0.05000
H 	H 	0.43991 0.03613 0.71225 0.04000
H 	H 	0.34484 0.91399 0.71996 0.03900
H 	H 	0.30323 0.96133 0.75766 0.04100
H 	H 	0.39902 0.08303 0.75040 0.04100
H 	H 	0.35487 0.11358 0.88372 0.04300
H 	H 	0.33726 0.16305 0.92833 0.02800
H 	H 	0.22334 0.13961 0.84937 0.04600
H 	H 	0.20557 0.18860 0.89414 0.02300
H 	H 	0.29089 0.16077 0.80736 0.03500
H 	H 	0.34105 0.98483 0.81235 0.03500
C 	C 	0.47329 0.17998 0.15274 -0.03700
C 	C 	0.43373 0.20676 0.15020 -0.00100
C 	C 	0.40997 0.21952 0.17592 -0.03600
H 	H 	0.37945 0.24033 0.17419 0.03900
C 	C 	0.42457 0.20366 0.20383 -0.04200
C 	C 	0.46295 0.17474 0.20622 0.00700
C 	C 	0.48778 0.16392 0.18061 -0.04200
H 	H 	0.51745 0.14161 0.18221 0.03900
C 	C 	0.47465 0.15150 0.23489 0.00900
C 	C 	0.51747 0.15872 0.24679 -0.04300
C 	C 	0.53192 0.12841 0.27009 -0.03200
C 	C 	0.50361 0.09082 0.28170 -0.00900
C 	C 	0.45945 0.08689 0.27173 -0.03200
C 	C 	0.44504 0.11700 0.24834 -0.04300
C 	C 	0.41523 0.21771 0.12058 0.02600
C 	C 	0.40753 0.26733 0.11204 -0.06500
C 	C 	0.38555 0.27732 0.08537 0.01200
C 	C 	0.37106 0.23776 0.06703 -0.08200
C 	C 	0.38082 0.18827 0.07488 0.01300
C 	C 	0.40268 0.17830 0.10158 -0.06600
H 	H 	0.37896 0.31573 0.07927 0.03500
H 	H 	0.36994 0.15741 0.06093 0.03200
H 	H 	0.40862 0.13987 0.10794 0.04300
H 	H 	0.41773 0.29804 0.12635 0.04700
H 	H 	0.54027 0.18602 0.23699 0.04100
H 	H 	0.56594 0.13212 0.27791 0.04100
H 	H 	0.41172 0.11151 0.23957 0.04100
H 	H 	0.43723 0.05826 0.28076 0.04200
H 	H 	0.40539 0.21257 0.22347 0.04000
H 	H 	0.49209 0.17039 0.13305 0.03600
C 	C 	0.39076 0.44637 0.94520 -0.08800
C 	C 	0.35504 0.46186 0.96322 0.02900
C 	C 	0.31948 0.42830 0.96915 -0.01800
H 	H 	0.29410 0.43807 0.98518 0.03800
C 	C 	0.31777 0.38140 0.95517 -0.08800
C 	C 	0.34819 0.37139 0.93201 0.02500
C 	C 	0.38551 0.40309 0.92791 -0.01600
H 	H 	0.41097 0.39327 0.91195 0.02500
C 	C 	0.33964 0.32991 0.91084 0.01500
C 	C 	0.30040 0.32884 0.89385 -0.04300
C 	C 	0.29446 0.29288 0.87157 -0.01800
C 	C 	0.32769 0.25819 0.86597 -0.03600
C 	C 	0.36638 0.25840 0.88322 -0.02300
C 	C 	0.37233 0.29398 0.90570 -0.04700
C 	C 	0.35335 0.51397 0.97413 0.01500
C 	C 	0.35388 0.52389 0.00475 -0.04100
C 	C 	0.35345 0.57333 0.01490 -0.01800
C 	C 	0.35255 0.61299 0.99457 -0.03400
C 	C 	0.35251 0.60328 0.96406 -0.01000
C 	C 	0.35253 0.55393 0.95380 -0.04300
H 	H 	0.35406 0.58087 0.03851 0.03100
H 	H 	0.35215 0.65124 0.00243 0.04300
H 	H 	0.35278 0.63400 0.94836 0.04100
H 	H 	0.35225 0.54670 0.93011 0.04500
H 	H 	0.35506 0.49339 0.02062 0.04500
H 	H 	0.27495 0.35637 0.89756 0.03600
H 	H 	0.26421 0.29213 0.85851 0.03000
H 	H 	0.40273 0.29445 0.91860 0.03700
H 	H 	0.39178 0.23101 0.87915 0.02800
H 	H 	0.32325 0.23078 0.84849 0.03700
C 	C 	0.42976 0.74989 0.01139 -0.09300
C 	C 	0.42437 0.71444 0.03447 0.02700
C 	C 	0.44403 0.66740 0.03164 -0.02800
H 	H 	0.43659 0.63807 0.04769 0.04400
C 	C 	0.47052 0.65717 0.00681 -0.06100
C 	C 	0.48455 0.69688 0.98814 0.01500
C 	C 	0.46335 0.74306 0.99018 -0.01000
H 	H 	0.47063 0.77225 0.97401 0.03000
C 	C 	0.52165 0.69028 0.96678 0.02100
C 	C 	0.56346 0.67491 0.97697 -0.04600
C 	C 	0.59812 0.66716 0.95678 -0.01400
C 	C 	0.59129 0.67483 0.92640 -0.03500
C 	C 	0.54983 0.69037 0.91614 -0.02000
C 	C 	0.51497 0.69794 0.93623 -0.04600
C 	C 	0.39891 0.72661 0.06167 0.01200
C 	C 	0.36260 0.69622 0.07060 -0.04200
C 	C 	0.34092 0.70551 0.09751 -0.01700
C 	C 	0.35466 0.74576 0.11529 -0.03500
C 	C 	0.39011 0.77683 0.10620 -0.02400
C 	C 	0.41251 0.76709 0.07961 -0.04000
H 	H 	0.31319 0.68178 0.10444 0.03400
H 	H 	0.33755 0.75316 0.13597 0.03600
H 	H 	0.40049 0.80821 0.11989 0.02900
H 	H 	0.44061 0.79067 0.07307 0.04400
H 	H 	0.35124 0.66552 0.05678 0.04100
H 	H 	0.56887 0.66856 0.00044 0.04800
H 	H 	0.63022 0.65501 0.96467 0.04200
H 	H 	0.48275 0.70921 0.92805 0.04500
H 	H 	0.54463 0.69630 0.89260 0.03100
H 	H 	0.61804 0.66854 0.91080 0.03900
C 	C 	0.63785 0.31911 0.01452 -0.09000
C 	C 	0.64400 0.37084 0.02027 0.02800
C 	C 	0.60778 0.40277 0.01814 -0.02000
H 	H 	0.61303 0.44266 0.02142 0.04900
C 	C 	0.56633 0.38451 0.00833 -0.08200
C 	C 	0.55874 0.33220 0.00640 0.02000
C 	C 	0.59467 0.29979 0.00975 -0.01500
H 	H 	0.58942 0.25975 0.00719 0.02900
C 	C 	0.51375 0.31130 0.99970 0.01500
C 	C 	0.47689 0.32518 0.01693 -0.04000
C 	C 	0.43392 0.31004 0.00852 -0.01300
C 	C 	0.42766 0.27897 0.98385 -0.03700
C 	C 	0.46428 0.26376 0.96717 -0.02300
C 	C 	0.50721 0.28025 0.97483 -0.05100
C 	C 	0.68850 0.39289 0.02631 0.01000
C 	C 	0.70291 0.39880 0.05578 -0.04100
C 	C 	0.74090 0.42799 0.06203 -0.02000
C 	C 	0.76492 0.45086 0.03890 -0.02900
C 	C 	0.75095 0.44468 0.00949 -0.01500
C 	C 	0.71274 0.41593 0.00317 -0.04200
H 	H 	0.75150 0.43322 0.08482 0.03400
H 	H 	0.79424 0.47356 0.04379 0.02600
H 	H 	0.76933 0.46277 0.99163 0.03400
H 	H 	0.70132 0.41257 0.98043 0.04600
H 	H 	0.68400 0.38196 0.07385 0.04700
H 	H 	0.48147 0.34890 0.03624 0.04600
H 	H 	0.40546 0.32288 0.02094 0.04200
H 	H 	0.53524 0.26971 0.96116 0.03100
H 	H 	0.45935 0.23976 0.94805 0.02500
H 	H 	0.39444 0.26687 0.97754 0.04900
C 	C 	0.63353 0.53050 0.96743 -0.08300
C 	C 	0.67364 0.53183 0.95093 0.02100
C 	C 	0.71254 0.55230 0.96377 -0.01500
H 	H 	0.74272 0.55572 0.95058 0.03700
C 	C 	0.71135 0.57322 0.99234 -0.09300
C 	C 	0.67231 0.56773 0.00966 0.03300
C 	C 	0.63380 0.54624 0.99716 -0.02500
H 	H 	0.60343 0.54377 0.01021 0.04100
C 	C 	0.67056 0.58802 0.04019 0.01500
C 	C 	0.65036 0.63410 0.04558 -0.03700
C 	C 	0.64991 0.65399 0.07432 -0.01700
C 	C 	0.66988 0.62819 0.09768 -0.03200
C 	C 	0.69015 0.58235 0.09237 -0.02000
C 	C 	0.69039 0.56217 0.06370 -0.04800
C 	C 	0.67437 0.51645 0.91944 0.01200
C 	C 	0.67750 0.46566 0.91192 -0.04800
C 	C 	0.67925 0.45137 0.88205 -0.02800
C 	C 	0.67887 0.48771 0.85965 -0.04200
C 	C 	0.67594 0.53838 0.86707 -0.02400
C 	C 	0.67354 0.55279 0.89689 -0.05200
H 	H 	0.68141 0.41216 0.87627 0.02800
H 	H 	0.68084 0.47662 0.83657 0.03400
H 	H 	0.67558 0.56647 0.84971 0.02900
H 	H 	0.67124 0.59209 0.90250 0.04100
H 	H 	0.67845 0.43737 0.92916 0.04400
H 	H 	0.63610 0.65500 0.02744 0.04700
H 	H 	0.63458 0.68968 0.07840 0.03500
H 	H 	0.70607 0.52672 0.05975 0.04200
H 	H 	0.70574 0.56250 0.11046 0.02900
H 	H 	0.66992 0.64390 0.11985 0.03800
