data_crystal

_cell_length_a 18.17424
_cell_length_b 17.67522
_cell_length_c 48.60128
_cell_angle_alpha 89.64312
_cell_angle_beta  89.64989
_cell_angle_gamma 119.50895

_symmetry_space_group_name_	'P 1'
_symmetry_space_group_name_H-M	'P 1'

loop_
_symmetry_equiv_pos_as_xyz
  x,y,z

loop_
_atom_site_label
_atom_site_type_symbol
_atom_site_fract_x
_atom_site_fract_y
_atom_site_fract_z
_atom_site_charge
C 	C 	0.02324 0.58634 0.98341 0.11700
Br	Br	0.02229 0.58399 0.02280 -0.07700
F 	F 	0.01531 0.83254 0.94366 -0.39900
F 	F 	0.09026 0.84067 0.67180 -0.39100
O 	O 	0.98440 0.96544 0.19389 -0.30800
C 	C 	0.04064 0.46417 0.50140 -0.03400
H 	H 	0.02591 0.48988 0.51947 0.14100
C 	C 	0.08856 0.77742 0.68908 0.76300
F 	F 	0.03765 0.22255 0.33285 -0.38100
Ni	Ni	0.03357 0.94168 0.74685 1.12100
O 	O 	0.02481 0.13295 0.74273 -0.29200
O 	O 	0.08589 0.95592 0.70811 -0.29300
C 	C 	0.02424 0.16139 0.17956 0.28000
C 	C 	0.01433 0.92711 0.26933 0.29100
Ni	Ni	0.05757 0.05565 0.22107 1.12700
O 	O 	0.08019 0.24164 0.23690 -0.24800
C 	C 	0.10723 0.31301 0.07011 0.11700
C 	C 	0.06850 0.35576 0.05666 -0.13600
C 	C 	0.07794 0.27243 0.09787 0.07400
C 	C 	0.04288 0.20057 0.15162 0.04800
F 	F 	0.06931 0.12759 0.35279 -0.38500
F 	F 	0.06444 0.30010 0.28489 -0.39900
C 	C 	0.99516 0.72412 0.30238 -0.05700
C 	C 	0.03609 0.87078 0.28592 -0.00400
H 	H 	0.04417 0.69961 0.36383 0.13500
F 	F 	0.02269 0.60901 0.40559 -0.39200
C 	C 	0.07922 0.39498 0.45554 -0.02500
H 	H 	0.09342 0.36688 0.43794 0.12400
F 	F 	0.07819 0.00150 0.63736 -0.40400
F 	F 	0.11593 0.81167 0.71494 -0.40600
F 	F 	0.14405 0.75183 0.67884 -0.35200
C 	C 	0.09693 0.63205 0.93941 -0.00100
C 	C 	0.09839 0.63712 0.96827 -0.03000
C 	C 	0.03540 0.18081 0.10171 -0.05600
C 	C 	0.01598 0.71566 0.16433 0.07300
H 	H 	0.08949 0.45859 0.02795 0.08000
F 	F 	0.11516 0.40141 0.25100 -0.34400
O 	O 	0.09989 0.08933 0.70010 -0.26900
O 	O 	0.08223 0.15034 0.19228 -0.30300
O 	O 	0.05907 0.96324 0.24627 -0.31600
C 	C 	0.11483 0.41938 0.03633 0.08700
C 	C 	0.08546 0.29201 0.14776 -0.06500
F 	F 	0.04939 0.33900 0.18885 -0.37400
C 	C 	0.01874 0.55065 0.15232 0.77300
C 	C 	0.04437 0.83597 0.19420 0.03200
F 	F 	0.07448 0.76725 0.04659 -0.40100
C 	C 	0.07911 0.75416 0.31127 0.06800
C 	C 	0.08550 0.67974 0.35397 0.03400
C 	C 	0.10407 0.62514 0.40015 0.77700
F 	F 	0.10870 0.55231 0.40808 -0.43400
C 	C 	0.12462 0.50239 0.49185 0.15000
C 	C 	0.01864 0.14599 0.12869 0.03000
F 	F 	0.08678 0.12038 0.06842 -0.37900
C 	C 	0.02226 0.57509 0.92578 0.14100
C 	C 	0.04994 0.70297 0.13826 0.09900
F 	F 	0.04002 0.57135 0.17957 -0.33600
C 	C 	0.08326 0.13167 0.75866 0.28900
C 	C 	0.12417 0.03136 0.69557 0.31000
O 	O 	0.11019 0.07478 0.75485 -0.31700
C 	C 	0.10098 0.32680 0.12085 0.05800
C 	C 	0.07119 0.78174 0.18220 -0.07700
F 	F 	0.08298 0.87115 0.07444 -0.36800
C 	C 	0.13196 0.37808 0.27642 0.78800
F 	F 	0.13962 0.44016 0.29518 -0.37800
C 	C 	0.11888 0.90155 0.29602 -0.04600
C 	C 	0.10328 0.69561 0.32573 0.10800
C 	C 	0.12588 0.64461 0.36987 -0.05900
C 	C 	0.14453 0.46800 0.46853 -0.02500
F 	F 	0.04023 0.48845 0.14496 -0.35600
F 	F 	0.09940 0.66088 0.26783 -0.35700
Br	Br	0.02634 0.56084 0.88676 -0.06600
H 	H 	0.09809 0.11912 0.81297 0.09600
C 	C 	0.13828 0.22831 0.24883 0.31000
O 	O 	0.13803 0.15320 0.24606 -0.28900
C 	C 	0.18403 0.32387 0.05970 0.03000
H 	H 	0.21226 0.28868 0.06916 0.14000
C 	C 	0.11699 0.35249 0.17227 0.79000
C 	C 	0.07009 0.76476 0.11726 0.03900
C 	C 	0.06307 0.63139 0.13416 -0.08000
C 	C 	0.11205 0.63304 0.11140 0.09300
H 	H 	0.12987 0.58319 0.10916 0.11100
C 	C 	0.11756 0.81850 0.06865 0.78200
H 	H 	0.05476 0.81626 0.12001 0.12500
H 	H 	0.08942 0.89350 0.20501 0.09800
C 	C 	0.14000 0.84213 0.30791 0.04800
F 	F 	0.15157 0.04968 0.29944 -0.38300
F 	F 	0.16001 0.69532 0.41557 -0.42800
C 	C 	0.15242 0.08040 0.63637 0.78000
F 	F 	0.13744 0.14472 0.64635 -0.38800
H 	H 	0.15500 0.66886 0.92765 0.11400
C 	C 	0.11064 0.76123 0.09315 -0.03800
C 	C 	0.15590 0.66787 0.31272 -0.09700
C 	C 	0.18061 0.67827 0.98218 0.31700
O 	O 	0.21568 0.76065 0.98924 -0.31000
C 	C 	0.19954 0.44376 0.03078 0.00700
H 	H 	0.13357 0.39660 0.11763 0.12300
C 	C 	0.13968 0.70011 0.09165 0.02300
C 	C 	0.18572 0.99687 0.29345 0.77600
C 	C 	0.19167 0.63496 0.35786 0.01400
C 	C 	0.17194 0.67823 0.28187 0.79400
Br	Br	0.20933 0.60136 0.51094 -0.08100
F 	F 	0.17742 0.09984 0.60907 -0.38500
C 	C 	0.13987 0.18396 0.80495 0.09300
C 	C 	0.13057 0.20412 0.77770 0.02100
F 	F 	0.08110 0.30320 0.73962 -0.37400
F 	F 	0.14614 0.14816 0.85975 -0.36700
F 	F 	0.15934 0.43911 0.16424 -0.35500
C 	C 	0.01902 0.13681 0.33326 0.76200
O 	O 	0.19693 0.71997 0.04588 -0.31200
F 	F 	0.17236 0.33660 0.18733 -0.39300
C 	C 	0.16294 0.80480 0.18466 0.78400
H 	H 	0.20395 0.86427 0.31481 0.12900
C 	C 	0.20119 0.63929 0.32914 0.09400
C 	C 	0.20667 0.05802 0.68230 0.04000
C 	C 	0.01434 0.12020 0.07737 0.74300
F 	F 	0.03965 0.11588 0.30812 -0.41800
C 	C 	0.22820 0.38585 0.03887 -0.05800
C 	C 	0.22871 0.51460 0.45458 0.30600
O 	O 	0.23109 0.50327 0.42762 -0.31900
C 	C 	0.20692 0.71251 0.07216 0.31800
F 	F 	0.20101 0.87180 0.06124 -0.40600
F 	F 	0.19389 0.84026 0.21017 -0.35500
F 	F 	0.17237 0.73229 0.18182 -0.34700
C 	C 	0.21584 0.30475 0.25929 0.05000
C 	C 	0.21221 0.37151 0.27453 -0.04800
F 	F 	0.21838 0.01441 0.26695 -0.38200
F 	F 	0.19801 0.62137 0.27247 -0.33100
C 	C 	0.21901 0.07492 0.65364 -0.04500
O 	O 	0.22519 0.63844 0.98111 -0.35800
F 	F 	0.21023 0.86501 0.16448 -0.36800
F 	F 	0.23445 0.76229 0.27588 -0.37500
C 	C 	0.20754 0.24413 0.82088 -0.09000
C 	C 	0.18106 0.29064 0.76774 -0.04300
C 	C 	0.21835 0.22087 0.85013 0.78800
C 	C 	0.16356 0.31898 0.74013 0.77900
H 	H 	0.99234 0.06931 0.25770 0.20200
C 	C 	0.96133 0.81970 0.19073 0.04700
F 	F 	0.99568 0.39803 0.08807 -0.38000
F 	F 	0.93221 0.51458 0.14975 -0.34700
C 	C 	0.98360 0.34316 0.06632 0.81900
C 	C 	0.97448 0.78335 0.29003 0.10700
F 	F 	0.95457 0.57320 0.30072 -0.34300
Ni	Ni	0.97741 0.05695 0.70922 1.15600
C 	C 	0.92957 0.68880 0.16546 0.07900
C 	C 	0.92635 0.63055 0.30749 0.78500
F 	F 	0.97213 0.07970 0.49561 -0.38100
C 	C 	0.76255 0.60399 0.93285 0.27300
C 	C 	0.60277 0.22335 0.95262 0.29800
C 	C 	0.86486 0.47353 0.92719 0.34300
C 	C 	0.54856 0.41920 0.97231 0.28900
C 	C 	0.63851 0.27401 0.88163 0.28100
C 	C 	0.55421 0.43379 0.87322 0.33100
Ni	Ni	0.71018 0.41967 0.95851 1.12100
Ni	Ni	0.54101 0.32327 0.92042 1.13900
Ni	Ni	0.72255 0.46118 0.89332 1.13800
O 	O 	0.77638 0.55754 0.95233 -0.30000
O 	O 	0.73797 0.57499 0.90731 -0.32600
O 	O 	0.56532 0.27089 0.88694 -0.29900
O 	O 	0.66153 0.28707 0.96713 -0.30600
O 	O 	0.53655 0.22815 0.94466 -0.32800
O 	O 	0.62733 0.43855 0.86712 -0.32800
O 	O 	0.80601 0.40738 0.94030 -0.35100
O 	O 	0.84325 0.50887 0.90748 -0.31100
O 	O 	0.51627 0.40186 0.89704 -0.31600
O 	O 	0.61431 0.41662 0.98266 -0.32800
O 	O 	0.49858 0.35988 0.95429 -0.29200
O 	O 	0.71166 0.34537 0.88586 -0.34100
O 	O 	0.65369 0.41296 0.92597 -0.72100
H 	H 	0.63648 0.45657 0.92952 0.15700
C 	C 	0.74845 0.10833 0.51531 0.28300
C 	C 	0.64381 0.36734 0.47948 0.31900
C 	C 	0.88927 0.35002 0.49917 0.32300
C 	C 	0.52209 0.13125 0.49469 0.29000
C 	C 	0.76339 0.40866 0.56514 0.31800
C 	C 	0.61128 0.18013 0.58132 0.27900
Ni	Ni	0.70912 0.23830 0.48405 1.14000
Ni	Ni	0.61326 0.28323 0.53322 1.12800
Ni	Ni	0.77347 0.26163 0.54678 1.16100
O 	O 	0.76144 0.15646 0.49254 -0.25800
O 	O 	0.74726 0.13862 0.54014 -0.32300
O 	O 	0.68034 0.37105 0.56294 -0.32200
O 	O 	0.65766 0.31071 0.46619 -0.30100
O 	O 	0.66226 0.38176 0.50554 -0.34800
O 	O 	0.69568 0.22626 0.58080 -0.26500
O 	O 	0.82746 0.34903 0.48512 -0.31400
O 	O 	0.87242 0.29656 0.52014 -0.28000
O 	O 	0.56482 0.19072 0.56238 -0.35400
O 	O 	0.58711 0.13601 0.48071 -0.28100
O 	O 	0.52450 0.20168 0.50552 -0.34400
O 	O 	0.80561 0.38620 0.54869 -0.31400
O 	O 	0.68588 0.23990 0.52179 -0.71900
H 	H 	0.64843 0.17758 0.52564 0.16200
C 	C 	0.93898 0.76717 0.72109 0.32100
C 	C 	0.88480 0.86103 0.78536 0.27200
C 	C 	0.86792 0.93315 0.66748 0.31900
C 	C 	0.80816 0.00256 0.73545 0.28100
Ni	Ni	0.84172 0.85963 0.72483 1.14000
O 	O 	0.81351 0.88141 0.68633 -0.27900
O 	O 	0.97974 0.80766 0.74316 -0.27800
O 	O 	0.89469 0.79429 0.70728 -0.31000
O 	O 	0.86258 0.04949 0.71541 -0.24100
O 	O 	0.77712 0.91738 0.73731 -0.29600
O 	O 	0.96830 0.91119 0.78395 -0.30700
O 	O 	0.84121 0.81268 0.76393 -0.27400
O 	O 	0.94569 0.99102 0.67378 -0.27600
O 	O 	0.94727 0.95968 0.73268 -0.70800
H 	H 	0.93201 0.98103 0.74919 0.15700
C 	C 	0.26325 0.64661 0.37476 0.30100
C 	C 	0.57289 0.80896 0.43860 0.30700
C 	C 	0.47081 0.64803 0.36452 0.32500
C 	C 	0.37949 0.81418 0.45605 0.31600
C 	C 	0.45105 0.52880 0.44474 0.33200
Ni	Ni	0.43041 0.76023 0.40096 1.14300
Ni	Ni	0.40827 0.66366 0.46011 1.13600
Ni	Ni	0.33852 0.55125 0.40568 1.13500
O 	O 	0.31334 0.72535 0.38460 -0.30700
O 	O 	0.28822 0.58715 0.37358 -0.33100
O 	O 	0.47976 0.60666 0.45514 -0.34500
O 	O 	0.54603 0.78099 0.41398 -0.28800
O 	O 	0.52037 0.78015 0.45989 -0.30000
O 	O 	0.45180 0.71081 0.36469 -0.30400
O 	O 	0.45006 0.59502 0.38565 -0.32100
O 	O 	0.29948 0.54952 0.46954 -0.31900
O 	O 	0.42276 0.83846 0.43226 -0.28000
O 	O 	0.35122 0.73548 0.46686 -0.32100
O 	O 	0.37767 0.48987 0.43217 -0.32900
O 	O 	0.37510 0.65983 0.42288 -0.72500
H 	H 	0.32053 0.65799 0.42571 0.18700
C 	C 	0.48493 0.68388 0.01676 0.32400
C 	C 	0.26051 0.53814 0.02937 0.30300
C 	C 	0.42900 0.89865 0.06552 0.27000
C 	C 	0.41793 0.88343 0.97807 0.29200
Ni	Ni	0.36666 0.70809 0.05768 1.13000
Ni	Ni	0.29046 0.81182 0.02250 1.14900
Ni	Ni	0.34767 0.69244 0.99054 1.12900
O 	O 	0.45890 0.67723 0.04284 -0.29600
O 	O 	0.46868 0.72944 0.99897 -0.35000
O 	O 	0.27990 0.72517 0.08155 -0.29700
O 	O 	0.38501 0.80353 0.96749 -0.31600
O 	O 	0.27147 0.58231 0.05198 -0.33700
O 	O 	0.31324 0.57252 0.00807 -0.31500
O 	O 	0.37717 0.90191 0.99726 -0.32800
O 	O 	0.45069 0.83699 0.06664 -0.32000
O 	O 	0.35296 0.88185 0.05672 -0.25600
O 	O 	0.34992 0.74901 0.02362 -0.72100
H 	H 	0.40727 0.79888 0.02164 0.15500
C 	C 	0.87926 0.06717 0.29051 0.28800
C 	C 	0.78502 0.01997 0.21479 0.29900
C 	C 	0.93852 0.88344 0.20140 0.32400
Ni	Ni	0.95041 0.15304 0.23578 1.15200
Ni	Ni	0.87157 0.94450 0.24732 1.14300
O 	O 	0.92802 0.14395 0.27843 -0.22600
O 	O 	0.82903 0.99891 0.27549 -0.31700
O 	O 	0.95800 0.15400 0.19303 -0.25600
O 	O 	0.94291 0.92737 0.27541 -0.30100
O 	O 	0.82051 0.08496 0.23189 -0.31500
O 	O 	0.79379 0.95093 0.21847 -0.25900
O 	O 	0.88754 0.86142 0.22292 -0.28500
O 	O 	0.96639 0.05632 0.23941 -0.71600
C 	C 	0.30969 0.39564 0.02750 0.78100
H 	H 	0.98805 0.07625 0.13191 0.16400
F 	F 	0.31195 0.31875 0.03004 -0.38700
F 	F 	0.37665 0.45983 0.04172 -0.43300
F 	F 	0.31710 0.41741 0.99990 -0.42100
F 	F 	0.93027 0.25827 0.07470 -0.34200
F 	F 	0.94404 0.36219 0.04530 -0.38300
F 	F 	0.95463 0.03584 0.08454 -0.33200
F 	F 	0.98185 0.14600 0.05590 -0.33400
C 	C 	0.66442 0.97999 0.14743 0.04800
C 	C 	0.64113 0.04446 0.14846 0.09000
C 	C 	0.66302 0.09943 0.17158 -0.08400
C 	C 	0.70215 0.08351 0.19404 0.08000
C 	C 	0.73250 0.02414 0.19197 0.02700
C 	C 	0.71778 0.97567 0.16733 -0.05700
C 	C 	0.59052 0.05028 0.12563 0.11300
C 	C 	0.64151 0.17221 0.17319 0.78800
H 	H 	0.71091 0.11899 0.21296 0.12400
C 	C 	0.75825 0.91998 0.16183 0.78800
H 	H 	0.64315 0.93494 0.13042 0.12500
C 	C 	0.62307 0.06600 0.09835 -0.10800
C 	C 	0.56694 0.02575 0.07653 0.08000
C 	C 	0.47960 0.97787 0.08168 0.02200
C 	C 	0.44860 0.98787 0.10737 -0.05700
C 	C 	0.50359 0.01703 0.12980 0.03400
C 	C 	0.71741 0.11610 0.09265 0.79500
H 	H 	0.59145 0.02457 0.05624 0.08600
C 	C 	0.35778 0.96673 0.11100 0.78600
H 	H 	0.47818 0.00756 0.15054 0.15200
F 	F 	0.74988 0.89494 0.13456 -0.35500
F 	F 	0.71906 0.84568 0.17803 -0.35500
F 	F 	0.84384 0.96583 0.16722 -0.41500
F 	F 	0.55844 0.13866 0.18171 -0.37400
F 	F 	0.65280 0.21331 0.14794 -0.35400
F 	F 	0.69302 0.23461 0.19181 -0.35100
F 	F 	0.30602 0.87782 0.11339 -0.39100
F 	F 	0.33348 0.99789 0.08869 -0.36300
F 	F 	0.34792 0.00538 0.13437 -0.35400
F 	F 	0.75947 0.17660 0.11292 -0.35300
F 	F 	0.73368 0.16035 0.06782 -0.36400
F 	F 	0.74876 0.05906 0.09138 -0.37900
C 	C 	0.90135 0.74202 0.17770 -0.06300
C 	C 	0.81165 0.72328 0.17271 0.78700
H 	H 	0.88664 0.63409 0.15313 0.15200
F 	F 	0.76223 0.64170 0.16159 -0.35500
F 	F 	0.81381 0.78434 0.15439 -0.34900
F 	F 	0.77333 0.72597 0.19704 -0.35400
C 	C 	0.75105 0.01252 0.41725 0.05300
C 	C 	0.79179 0.97296 0.40413 0.09600
C 	C 	0.78688 0.89778 0.41643 -0.08300
C 	C 	0.72275 0.85139 0.43625 0.09000
C 	C 	0.66190 0.87660 0.44164 0.02200
C 	C 	0.68439 0.96419 0.43591 -0.06200
C 	C 	0.81673 0.99508 0.37472 0.11100
C 	C 	0.84386 0.86303 0.40676 0.79100
H 	H 	0.71125 0.78837 0.44353 0.10600
C 	C 	0.62737 0.99969 0.44429 0.79300
H 	H 	0.76187 0.07515 0.40978 0.11900
C 	C 	0.75427 0.97231 0.35426 -0.10700
C 	C 	0.77706 0.01644 0.32893 0.07700
C 	C 	0.86196 0.06175 0.32047 0.02500
C 	C 	0.92597 0.07940 0.34021 -0.03600
C 	C 	0.90176 0.05153 0.36775 0.02700
C 	C 	0.66415 0.89968 0.35894 0.78500
H 	H 	0.72834 0.00738 0.31443 0.11500
H 	H 	0.94887 0.07449 0.38377 0.15000
F 	F 	0.56785 0.98173 0.42418 -0.41700
F 	F 	0.67418 0.08886 0.44692 -0.46000
F 	F 	0.58728 0.96404 0.46912 -0.45700
F 	F 	0.92685 0.92953 0.40565 -0.38500
F 	F 	0.81983 0.82767 0.38088 -0.37000
F 	F 	0.83975 0.79940 0.42449 -0.37900
F 	F 	0.62202 0.87081 0.33427 -0.41700
F 	F 	0.62053 0.92907 0.37494 -0.43300
F 	F 	0.66368 0.82940 0.37171 -0.40800
C 	C 	0.28674 0.43779 0.28590 0.05000
C 	C 	0.36558 0.44589 0.27954 0.08900
C 	C 	0.37039 0.38464 0.26204 -0.08100
C 	C 	0.29500 0.31184 0.25351 0.08800
C 	C 	0.44132 0.51601 0.29298 0.11500
C 	C 	0.45484 0.39333 0.25353 0.78900
H 	H 	0.29797 0.26145 0.24178 0.13000
H 	H 	0.28395 0.48468 0.29951 0.11300
C 	C 	0.45953 0.60338 0.29004 -0.11100
C 	C 	0.48340 0.65628 0.31343 0.08300
C 	C 	0.49690 0.62469 0.33838 0.02200
C 	C 	0.50967 0.55199 0.33745 -0.06100
C 	C 	0.47548 0.49414 0.31548 0.03200
C 	C 	0.44245 0.63645 0.26341 0.79300
H 	H 	0.48369 0.71773 0.31283 0.12800
C 	C 	0.55775 0.53491 0.35968 0.78000
H 	H 	0.46842 0.42975 0.31710 0.14500
F 	F 	0.48160 0.35709 0.27367 -0.37400
F 	F 	0.51568 0.47943 0.24948 -0.34900
F 	F 	0.44751 0.35042 0.22909 -0.35200
F 	F 	0.50138 0.47269 0.37792 -0.42400
F 	F 	0.60985 0.61016 0.37383 -0.38600
F 	F 	0.60787 0.50462 0.34802 -0.36000
F 	F 	0.50170 0.72320 0.25941 -0.37000
F 	F 	0.36285 0.62830 0.26454 -0.37200
F 	F 	0.44706 0.59052 0.24114 -0.35100
H 	H 	0.91062 0.76119 0.28305 0.11100
H 	H 	0.24947 0.62829 0.31984 0.11000
F 	F 	0.25144 0.01762 0.31152 -0.37800
F 	F 	0.90268 0.61935 0.33494 -0.37000
F 	F 	0.85553 0.60951 0.29184 -0.35600
C 	C 	0.36131 0.94421 0.45866 -0.00300
C 	C 	0.37400 0.88155 0.47248 -0.02400
C 	C 	0.40335 0.89805 0.49991 0.14200
C 	C 	0.43387 0.98141 0.51069 0.00100
C 	C 	0.44206 0.04935 0.49366 -0.05300
C 	C 	0.39523 0.02828 0.46926 0.14800
Br	Br	0.38890 0.11682 0.44814 -0.08900
H 	H 	0.33288 0.93036 0.43846 0.12000
H 	H 	0.46329 0.99607 0.53073 0.08800
Br	Br	0.41097 0.81196 0.52207 -0.05200
C 	C 	0.97559 0.39422 0.48744 -0.00700
C 	C 	0.99509 0.36122 0.46394 0.18200
Br	Br	0.90751 0.27358 0.44194 -0.06300
C 	C 	0.50571 0.36247 0.47325 -0.01700
C 	C 	0.59222 0.40150 0.46667 -0.05200
C 	C 	0.63039 0.47879 0.45088 0.14400
C 	C 	0.58278 0.51803 0.44284 0.00100
C 	C 	0.49694 0.48061 0.45032 -0.04000
C 	C 	0.45816 0.40166 0.46535 0.14000
Br	Br	0.34225 0.34969 0.47733 -0.09600
H 	H 	0.47594 0.30338 0.48549 0.09200
H 	H 	0.61307 0.57866 0.43128 0.13600
Br	Br	0.74784 0.53307 0.44078 -0.01400
C 	C 	0.77298 0.96240 0.60168 0.04800
C 	C 	0.79927 0.92138 0.58250 0.09600
C 	C 	0.84419 0.87923 0.59155 -0.07600
C 	C 	0.86706 0.88501 0.61945 0.09500
C 	C 	0.84066 0.92618 0.63857 0.03900
C 	C 	0.79222 0.96440 0.62970 -0.04700
C 	C 	0.78586 0.93086 0.55281 0.10800
C 	C 	0.87316 0.83344 0.57146 0.79200
H 	H 	0.90669 0.85874 0.62625 0.15800
C 	C 	0.76603 0.01250 0.64973 0.77400
H 	H 	0.73968 0.99530 0.59446 0.12400
C 	C 	0.70271 0.90011 0.54297 -0.11700
C 	C 	0.68834 0.95182 0.52396 0.07800
C 	C 	0.75665 0.02961 0.51405 0.02300
C 	C 	0.83809 0.03906 0.51601 -0.08200
C 	C 	0.85372 0.99440 0.53717 0.05400
C 	C 	0.62831 0.81967 0.55516 0.79400
H 	H 	0.62429 0.93824 0.52015 0.10300
C 	C 	0.90923 0.10208 0.49752 0.78800
H 	H 	0.91810 0.01520 0.54324 0.13800
F 	F 	0.71929 0.95757 0.67114 -0.36000
F 	F 	0.71686 0.04272 0.63736 -0.36300
F 	F 	0.83751 0.08312 0.65997 -0.37000
F 	F 	0.94735 0.89386 0.55865 -0.37900
F 	F 	0.81262 0.78947 0.55174 -0.37600
F 	F 	0.88805 0.77317 0.58497 -0.36500
F 	F 	0.94351 0.18510 0.50792 -0.41100
F 	F 	0.87915 0.10057 0.47135 -0.41400
F 	F 	0.57032 0.77491 0.53483 -0.40800
F 	F 	0.58971 0.84363 0.57522 -0.39700
F 	F 	0.65324 0.76419 0.56667 -0.37100
C 	C 	0.50478 0.15501 0.64747 0.03900
C 	C 	0.42799 0.07998 0.64206 0.10600
C 	C 	0.42516 0.02218 0.62141 -0.10400
C 	C 	0.49483 0.04953 0.60334 0.08900
C 	C 	0.56723 0.13115 0.60653 0.02700
C 	C 	0.57685 0.17576 0.63146 -0.04800
C 	C 	0.34984 0.06767 0.65598 0.09600
C 	C 	0.34602 0.93550 0.61686 0.79500
H 	H 	0.48931 0.01172 0.58521 0.09000
C 	C 	0.66195 0.24790 0.64042 0.78500
H 	H 	0.50782 0.19849 0.66360 0.14900
C 	C 	0.33583 0.04806 0.68449 -0.07800
C 	C 	0.26781 0.05014 0.69761 0.09100
C 	C 	0.29264 0.08317 0.64100 0.04700
C 	C 	0.39456 0.02798 0.70130 0.77900
H 	H 	0.25940 0.04043 0.71970 0.11500
H 	H 	0.30534 0.10079 0.61941 0.12500
F 	F 	0.66313 0.25753 0.66868 -0.32500
F 	F 	0.67728 0.32482 0.62803 -0.41700
F 	F 	0.72552 0.22970 0.63352 -0.35200
F 	F 	0.29026 0.94790 0.60080 -0.39800
F 	F 	0.30703 0.89728 0.64161 -0.34700
F 	F 	0.36554 0.87848 0.60355 -0.37200
F 	F 	0.35470 0.98232 0.72511 -0.35200
F 	F 	0.46518 0.10476 0.70859 -0.37100
F 	F 	0.41967 0.97768 0.68659 -0.34500
C 	C 	0.87544 0.46746 0.63317 0.05200
C 	C 	0.85065 0.52483 0.64367 0.11900
C 	C 	0.80327 0.55144 0.62706 -0.08500
C 	C 	0.77719 0.51464 0.60086 0.10400
C 	C 	0.80509 0.45964 0.59001 0.02700
C 	C 	0.86299 0.44412 0.60543 -0.04400
C 	C 	0.88960 0.57017 0.66940 0.08700
C 	C 	0.78194 0.61995 0.63697 0.79200
H 	H 	0.73494 0.52833 0.58888 0.12000
C 	C 	0.91821 0.41197 0.59201 0.78600
H 	H 	0.91126 0.44730 0.64608 0.15800
C 	C 	0.84430 0.54676 0.69457 -0.07900
C 	C 	0.87009 0.60920 0.71545 0.08600
C 	C 	0.94237 0.69076 0.71147 0.02900
C 	C 	0.99994 0.70061 0.69022 -0.03800
C 	C 	0.97112 0.64211 0.66839 0.08100
C 	C 	0.77275 0.45502 0.69959 0.79300
H 	H 	0.82971 0.59822 0.73325 0.12900
H 	H 	0.00973 0.65542 0.64997 0.10900
F 	F 	0.98275 0.42178 0.60921 -0.36500
F 	F 	0.95576 0.45953 0.56832 -0.41500
F 	F 	0.87053 0.32478 0.58593 -0.46100
F 	F 	0.85538 0.69625 0.64258 -0.41100
F 	F 	0.73267 0.59115 0.66058 -0.37900
F 	F 	0.73780 0.63847 0.61743 -0.37500
F 	F 	0.74464 0.44229 0.72666 -0.36200
F 	F 	0.80075 0.39676 0.69395 -0.34500
F 	F 	0.70545 0.43794 0.68274 -0.34700
C 	C 	0.94800 0.53302 0.96976 0.04100
C 	C 	0.94672 0.52635 0.94098 -0.03300
H 	H 	0.89016 0.49643 0.98163 0.08000
C 	C 	0.55860 0.01202 0.98467 -0.01300
C 	C 	0.49606 0.95641 0.96630 -0.04100
C 	C 	0.49667 0.98696 0.93945 0.15500
C 	C 	0.54767 0.07571 0.93322 -0.02100
C 	C 	0.59382 0.13488 0.95404 -0.04100
C 	C 	0.60696 0.10139 0.97885 0.13300
Br	Br	0.69383 0.17392 0.00399 -0.03400
H 	H 	0.56404 0.98729 0.00457 0.08800
H 	H 	0.54415 0.09977 0.91309 0.11800
Br	Br	0.42410 0.91047 0.91166 -0.01900
C 	C 	0.47339 0.58317 0.97954 0.01300
C 	C 	0.50458 0.61796 0.00558 -0.04800
C 	C 	0.54835 0.58528 0.02094 0.16000
C 	C 	0.55543 0.51487 0.01095 -0.00800
C 	C 	0.52228 0.47853 0.98507 -0.02800
C 	C 	0.47815 0.51163 0.96985 0.14200
Br	Br	0.41200 0.45326 0.93824 -0.02200
H 	H 	0.43981 0.60805 0.96749 0.08900
H 	H 	0.58897 0.48998 0.02300 0.12300
Br	Br	0.60461 0.63950 0.05444 -0.03300
C 	C 	0.61039 0.13115 0.82224 0.04700
C 	C 	0.69227 0.14229 0.82133 0.09400
C 	C 	0.74788 0.18224 0.84342 -0.08900
C 	C 	0.71622 0.19987 0.86740 0.08500
C 	C 	0.64045 0.20257 0.86662 0.00300
C 	C 	0.58217 0.15748 0.84535 -0.05800
C 	C 	0.71622 0.10425 0.79851 0.10700
C 	C 	0.84282 0.22118 0.83940 0.79300
H 	H 	0.75628 0.22503 0.88526 0.10700
C 	C 	0.48988 0.13386 0.84750 0.78800
H 	H 	0.56824 0.10025 0.80517 0.14300
C 	C 	0.71688 0.02540 0.80220 -0.09800
C 	C 	0.75860 0.00207 0.78272 0.08100
C 	C 	0.78234 0.04412 0.75693 0.02000
C 	C 	0.77119 0.11722 0.75171 -0.03800
C 	C 	0.74324 0.14964 0.77340 0.03700
C 	C 	0.67624 0.96771 0.82740 0.79700
H 	H 	0.76885 0.94784 0.78700 0.08900
C 	C 	0.78656 0.15947 0.72341 0.77900
H 	H 	0.74207 0.20997 0.77081 0.14500
F 	F 	0.45960 0.10886 0.87408 -0.41100
F 	F 	0.44012 0.06502 0.83052 -0.36400
F 	F 	0.48110 0.20423 0.83970 -0.39300
F 	F 	0.87075 0.28627 0.81960 -0.39400
F 	F 	0.86257 0.15888 0.83089 -0.37600
F 	F 	0.88632 0.25680 0.86345 -0.37400
F 	F 	0.75868 0.21955 0.72209 -0.33300
F 	F 	0.74295 0.09717 0.70385 -0.33300
F 	F 	0.87211 0.20237 0.71724 -0.34900
F 	F 	0.66527 0.88520 0.82359 -0.37800
F 	F 	0.59743 0.95881 0.83259 -0.38200
F 	F 	0.72679 0.00350 0.85009 -0.37200
C 	C 	0.37390 0.43860 0.83886 0.05400
C 	C 	0.35470 0.37279 0.81962 0.09600
C 	C 	0.41757 0.35154 0.81190 -0.08200
C 	C 	0.49184 0.38462 0.82740 0.10100
C 	C 	0.50268 0.43656 0.85037 0.03000
C 	C 	0.44925 0.47292 0.85392 -0.05400
C 	C 	0.26792 0.32379 0.80863 0.10000
C 	C 	0.40481 0.29242 0.78767 0.79400
H 	H 	0.53822 0.36466 0.82300 0.13500
C 	C 	0.48026 0.55903 0.86829 0.78900
H 	H 	0.32997 0.46253 0.84224 0.12900
C 	C 	0.24973 0.35001 0.78355 0.04200
H 	H 	0.29320 0.41408 0.77538 0.14100
F 	F 	0.41362 0.56101 0.88153 -0.38800
F 	F 	0.51411 0.62513 0.84880 -0.35000
F 	F 	0.54152 0.57431 0.88759 -0.41500
F 	F 	0.38810 0.32572 0.76420 -0.39100
F 	F 	0.33790 0.21013 0.79303 -0.38000
F 	F 	0.47594 0.28497 0.78243 -0.36200
F 	F 	0.21627 0.40694 0.73521 -0.36500
F 	F 	0.17607 0.27377 0.71919 -0.38400
F 	F 	0.23465 0.28892 0.86750 -0.39600
F 	F 	0.28490 0.20392 0.85112 -0.37600
C 	C 	0.88315 0.81920 0.90979 0.03900
C 	C 	0.81302 0.82338 0.89962 0.11300
C 	C 	0.73718 0.78380 0.91541 -0.10500
C 	C 	0.72518 0.71889 0.93480 0.08100
C 	C 	0.78814 0.69547 0.93781 0.01700
C 	C 	0.87145 0.75849 0.93053 -0.06500
C 	C 	0.81014 0.83832 0.86960 0.09600
C 	C 	0.66635 0.80315 0.90955 0.79500
H 	H 	0.66294 0.67742 0.94367 0.08400
C 	C 	0.94596 0.75073 0.94037 0.80200
H 	H 	0.94366 0.85406 0.89924 0.14500
C 	C 	0.86094 0.92147 0.85746 -0.07400
C 	C 	0.87461 0.92812 0.82880 0.07800
C 	C 	0.84219 0.85349 0.81234 0.01900
C 	C 	0.78261 0.77186 0.82400 -0.05200
C 	C 	0.76771 0.76542 0.85264 0.05100
C 	C 	0.90964 0.00174 0.87501 0.78400
H 	H 	0.91648 0.99105 0.81951 0.09700
C 	C 	0.73477 0.69182 0.80631 0.78400
H 	H 	0.72731 0.70246 0.86212 0.12600
F 	F 	0.96559 0.70626 0.92108 -0.42500
F 	F 	0.92819 0.70719 0.96540 -0.40300
F 	F 	0.69857 0.89031 0.90340 -0.35100
F 	F 	0.61304 0.78292 0.93219 -0.40900
F 	F 	0.61993 0.75479 0.88749 -0.35900
F 	F 	0.79046 0.66857 0.79476 -0.40700
F 	F 	0.69240 0.70878 0.78576 -0.38400
F 	F 	0.67515 0.62138 0.82150 -0.39800
F 	F 	0.92982 0.07654 0.86014 -0.34700
F 	F 	0.98397 0.00626 0.88365 -0.37200
F 	F 	0.86293 0.00007 0.89778 -0.35200
