data_crystal

_cell_length_a 39.07012
_cell_length_b 38.27923
_cell_length_c 23.08066
_cell_angle_alpha 89.95616
_cell_angle_beta  89.94353
_cell_angle_gamma 89.99878

_symmetry_space_group_name_	'P 1'
_symmetry_space_group_name_H-M	'P 1'

loop_
_symmetry_equiv_pos_as_xyz
  x,y,z

loop_
_atom_site_label
_atom_site_type_symbol
_atom_site_fract_x
_atom_site_fract_y
_atom_site_fract_z
_atom_site_charge
C 	C 	0.55868 0.46295 0.00837 0.09300
N 	N 	0.52706 0.45956 0.98597 -0.16700
C 	C 	0.51335 0.43089 0.01051 0.09300
C 	C 	0.48159 0.41413 0.98897 -0.07100
C 	C 	0.45319 0.43627 0.96762 0.08800
C 	C 	0.47728 0.37575 0.99264 0.04600
C 	C 	0.50083 0.35345 0.96537 -0.06200
C 	C 	0.49714 0.31721 0.97000 -0.02800
C 	C 	0.46980 0.30303 0.00166 -0.00700
C 	C 	0.44972 0.36152 0.02372 -0.06500
N 	N 	0.44894 0.46988 0.98349 -0.12800
C 	C 	0.42856 0.42601 0.92815 -0.06300
C 	C 	0.42100 0.48083 0.95443 0.08800
C 	C 	0.40825 0.51720 0.95657 -0.07500
C 	C 	0.37126 0.52408 0.95047 0.04000
C 	C 	0.31589 0.53482 0.99459 -0.03100
C 	C 	0.35715 0.53032 0.89559 -0.05900
C 	C 	0.32248 0.53882 0.89023 -0.03400
C 	C 	0.30198 0.54211 0.93989 -0.00200
N 	N 	0.46552 0.54569 0.95969 -0.17200
C 	C 	0.47704 0.57836 0.96910 0.09800
C 	C 	0.45071 0.59980 0.98793 -0.06400
C 	C 	0.42171 0.57910 0.98992 -0.06500
C 	C 	0.51149 0.59050 0.95076 -0.07500
C 	C 	0.51931 0.62826 0.94865 0.04000
C 	C 	0.54655 0.67919 0.99072 -0.03000
C 	C 	0.53140 0.70047 0.94840 -0.00200
C 	C 	0.51110 0.68536 0.90503 -0.03400
C 	C 	0.50501 0.64935 0.90522 -0.06000
N 	N 	0.54267 0.53650 0.97829 -0.12800
C 	C 	0.58934 0.54164 0.92150 -0.06300
C 	C 	0.57333 0.52260 0.96470 0.08600
C 	C 	0.58447 0.48773 0.98515 -0.07100
C 	C 	0.62134 0.47867 0.98592 0.04300
C 	C 	0.64494 0.50098 0.01295 -0.06200
C 	C 	0.67984 0.49304 0.01206 -0.03700
C 	C 	0.69144 0.46263 0.98448 0.00100
C 	C 	0.66777 0.43965 0.95932 -0.03400
C 	C 	0.63291 0.44793 0.95914 -0.05900
C 	C 	0.56531 0.43644 0.04769 -0.06400
C 	C 	0.53622 0.41582 0.04904 -0.06400
C 	C 	0.44573 0.32532 0.02753 -0.03000
C 	C 	0.40786 0.45468 0.91966 -0.06300
C 	C 	0.43187 0.54602 0.97242 0.09900
C 	C 	0.56776 0.56904 0.90871 -0.06400
C 	C 	0.53945 0.56482 0.94404 0.08700
C 	C 	0.54038 0.64325 0.99102 -0.05400
H 	H 	0.51926 0.47014 0.94635 0.09300
H 	H 	0.47717 0.52775 0.93184 0.09500
H 	H 	0.69791 0.51061 0.03250 0.03200
H 	H 	0.67647 0.41576 0.93893 0.03500
H 	H 	0.63624 0.52454 0.03439 0.04200
H 	H 	0.61491 0.43051 0.93821 0.04300
H 	H 	0.51556 0.30016 0.94920 0.03300
H 	H 	0.43142 0.37851 0.04495 0.04500
H 	H 	0.42424 0.31457 0.05128 0.03500
H 	H 	0.52203 0.36419 0.94087 0.04300
H 	H 	0.31174 0.54365 0.84771 0.03500
H 	H 	0.37307 0.52880 0.85722 0.04200
C 	C 	0.35040 0.52580 0.99984 -0.05500
H 	H 	0.30006 0.53664 0.03304 0.03100
H 	H 	0.56268 0.69062 0.02383 0.03200
H 	H 	0.55166 0.62710 0.02451 0.04200
H 	H 	0.48891 0.63791 0.87209 0.04200
H 	H 	0.49980 0.70155 0.87162 0.03300
H 	H 	0.59049 0.42809 0.06146 0.04400
H 	H 	0.53542 0.38902 0.06392 0.04400
H 	H 	0.42245 0.39939 0.91622 0.04600
H 	H 	0.38275 0.45439 0.89993 0.04500
H 	H 	0.45054 0.62803 0.98530 0.04500
H 	H 	0.39577 0.58898 0.98832 0.04500
H 	H 	0.61598 0.53968 0.90903 0.04400
H 	H 	0.57515 0.59295 0.88698 0.04500
H 	H 	0.36109 0.52080 0.04234 0.04100
Zn	Zn	0.39081 0.10610 0.02546 1.21800
C 	C 	0.32063 0.08375 0.00848 0.32000
O 	O 	0.40655 0.08259 0.09640 -0.47400
O 	O 	0.33281 0.05630 0.98116 -0.45300
O 	O 	0.36868 0.03764 0.09044 -0.50500
C 	C 	0.40766 0.07243 0.91940 0.32700
O 	O 	0.39070 0.09853 0.94240 -0.47000
O 	O 	0.40677 0.04155 0.94411 -0.51200
C 	C 	0.38842 0.05797 0.12155 0.32200
O 	O 	0.44574 0.13106 0.01237 -0.34100
Zn	Zn	0.37621 0.03072 0.00820 1.16800
O 	O 	0.34126 0.10389 0.03862 -0.44800
C 	C 	0.43113 0.15996 0.02823 0.28700
O 	O 	0.39902 0.15754 0.04118 -0.39500
C 	C 	0.52321 0.00812 0.55729 0.00700
C 	C 	0.49291 0.02842 0.56063 0.00900
C 	C 	0.52587 0.98132 0.51590 -0.05400
C 	C 	0.49878 0.97493 0.47725 0.00700
C 	C 	0.46580 0.02195 0.52216 -0.05700
C 	C 	0.46868 0.99558 0.48009 0.00900
H 	H 	0.44268 0.03753 0.52465 0.04700
H 	H 	0.54891 0.96563 0.51364 0.04700
C 	C 	0.44210 0.98945 0.44008 -0.01300
C 	C 	0.44491 0.96337 0.39729 0.00400
C 	C 	0.42482 0.97082 0.34705 -0.05400
C 	C 	0.40855 0.00334 0.34906 -0.00400
S 	S 	0.41756 0.02114 0.41296 -0.01900
H 	H 	0.42634 0.95589 0.30742 0.03900
C 	C 	0.50087 0.94806 0.43564 -0.01300
C 	C 	0.47436 0.94207 0.39577 0.00400
C 	C 	0.48593 0.92479 0.34458 -0.05500
C 	C 	0.52144 0.91998 0.34231 -0.00300
S 	S 	0.53724 0.93532 0.40430 -0.01800
H 	H 	0.46985 0.92025 0.30725 0.04000
C 	C 	0.54789 0.04203 0.63736 0.00400
C 	C 	0.55044 0.01544 0.59551 -0.01500
S 	S 	0.57639 0.98490 0.62233 -0.01400
C 	C 	0.58653 0.00389 0.68491 -0.00600
C 	C 	0.56906 0.03579 0.68673 -0.05400
C 	C 	0.49096 0.05560 0.60164 -0.01300
C 	C 	0.51818 0.06293 0.63941 0.00500
C 	C 	0.50739 0.08099 0.69029 -0.05500
C 	C 	0.47180 0.08469 0.69491 -0.00300
S 	S 	0.45496 0.06762 0.63494 -0.01800
H 	H 	0.52433 0.08716 0.72586 0.04000
H 	H 	0.56762 0.05104 0.72603 0.03800
Zn	Zn	0.60093 0.90044 0.00809 1.21900
C 	C 	0.66659 0.93237 0.03247 0.32300
O 	O 	0.57182 0.91127 0.07568 -0.46800
O 	O 	0.65438 0.96098 0.00872 -0.45800
O 	O 	0.60364 0.95800 0.10343 -0.50100
C 	C 	0.59727 0.94854 0.91344 0.33000
O 	O 	0.61187 0.91981 0.93206 -0.45800
O 	O 	0.58506 0.97135 0.95042 -0.51600
C 	C 	0.58115 0.93374 0.11560 0.31900
O 	O 	0.55377 0.87213 0.96385 -0.33800
Zn	Zn	0.60555 0.97792 0.02639 1.16900
O 	O 	0.64623 0.90587 0.04369 -0.44600
C 	C 	0.57032 0.84364 0.97572 0.29000
O 	O 	0.59905 0.84757 0.00260 -0.40000
Zn	Zn	0.09868 0.60690 0.95557 1.22100
C 	C 	0.05644 0.66720 0.98088 0.33000
O 	O 	0.08536 0.57246 0.01464 -0.48400
O 	O 	0.03267 0.65239 0.94904 -0.45900
O 	O 	0.03382 0.59603 0.03692 -0.50900
C 	C 	0.06100 0.60265 0.85056 0.33200
O 	O 	0.08519 0.62001 0.87736 -0.45700
O 	O 	0.03862 0.58445 0.88031 -0.52200
C 	C 	0.06165 0.57964 0.05302 0.32300
O 	O 	0.13502 0.56491 0.91253 -0.34000
Zn	Zn	0.02214 0.59984 0.95564 1.16700
O 	O 	0.08427 0.64992 0.99520 -0.44600
C 	C 	0.15957 0.58206 0.93738 0.28200
O 	O 	0.15035 0.60969 0.96566 -0.39400
C 	C 	0.00411 0.46699 0.42674 0.00700
C 	C 	0.02636 0.49609 0.42101 0.00800
C 	C 	0.97920 0.46666 0.47080 -0.05600
C 	C 	0.97565 0.49550 0.50802 0.00800
C 	C 	0.02363 0.52432 0.45962 -0.05700
C 	C 	0.99817 0.52444 0.50256 0.00800
H 	H 	0.04094 0.54632 0.45569 0.04700
H 	H 	0.96235 0.44436 0.47549 0.04700
C 	C 	0.99385 0.55343 0.53960 -0.01400
C 	C 	0.96897 0.55343 0.58356 0.00400
C 	C 	0.97748 0.57585 0.63073 -0.05400
C 	C 	0.00915 0.59249 0.62423 -0.00500
S 	S 	0.02570 0.57927 0.56133 -0.01800
H 	H 	0.96368 0.57611 0.67135 0.03800
C 	C 	0.94915 0.49697 0.54955 -0.01400
C 	C 	0.94611 0.52517 0.58800 0.00400
C 	C 	0.92766 0.51655 0.63935 -0.05500
C 	C 	0.91732 0.48157 0.64155 -0.00500
S 	S 	0.93138 0.46225 0.58125 -0.01700
H 	H 	0.92549 0.53374 0.67631 0.03800
C 	C 	0.02967 0.44078 0.33970 0.00400
C 	C 	0.00667 0.43927 0.38665 -0.01300
S 	S 	0.97325 0.41550 0.36523 -0.01800
C 	C 	0.98618 0.40561 0.29837 -0.00300
C 	C 	0.01837 0.42096 0.29092 -0.05500
C 	C 	0.05049 0.49655 0.37562 -0.01300
C 	C 	0.05234 0.46930 0.33485 0.00400
C 	C 	0.06678 0.48026 0.28093 -0.05500
C 	C 	0.07304 0.51618 0.27807 -0.00300
S 	S 	0.06322 0.53299 0.34234 -0.01800
H 	H 	0.06810 0.46381 0.24297 0.04000
H 	H 	0.03062 0.42198 0.24897 0.03900
Zn	Zn	0.89340 0.38936 0.97330 1.22100
C 	C 	0.83693 0.43688 0.98807 0.32400
O 	O 	0.88907 0.40759 0.89440 -0.45600
O 	O 	0.85693 0.46139 0.96683 -0.46100
O 	O 	0.92653 0.45189 0.91132 -0.52000
C 	C 	0.91611 0.41810 0.08221 0.32700
O 	O 	0.92185 0.39482 0.04175 -0.48600
O 	O 	0.90598 0.44945 0.06727 -0.50800
C 	C 	0.90969 0.43195 0.87493 0.33200
O 	O 	0.93580 0.35016 0.94134 -0.33200
Zn	Zn	0.90823 0.46468 0.98710 1.16600
O 	O 	0.84992 0.40678 0.00455 -0.45400
C 	C 	0.91323 0.32595 0.95085 0.28200
O 	O 	0.88339 0.33740 0.96633 -0.39100
C 	C 	0.98893 0.92716 0.14080 0.09900
N 	N 	0.97215 0.95577 0.12230 -0.17300
C 	C 	0.94021 0.95372 0.14401 0.09800
C 	C 	0.91136 0.97443 0.12035 -0.07500
C 	C 	0.91707 0.01091 0.10204 0.08600
C 	C 	0.87639 0.95971 0.11749 0.04000
C 	C 	0.87003 0.92926 0.08536 -0.06000
C 	C 	0.83634 0.91896 0.07398 -0.03400
C 	C 	0.80897 0.94005 0.09209 -0.00300
C 	C 	0.84883 0.97867 0.14058 -0.05700
N 	N 	0.94105 0.03164 0.12588 -0.13000
C 	C 	0.90376 0.02547 0.05213 -0.06400
C 	C 	0.94243 0.06004 0.09143 0.08600
C 	C 	0.97063 0.08564 0.09407 -0.07600
C 	C 	0.96470 0.12197 0.07458 0.03800
C 	C 	0.92928 0.17404 0.07412 -0.03700
C 	C 	0.98618 0.13715 0.03278 -0.05600
C 	C 	0.97932 0.17076 0.01202 -0.04100
C 	C 	0.95094 0.18936 0.03286 0.00300
N 	N 	0.01973 0.04508 0.10389 -0.17300
C 	C 	0.05267 0.04835 0.12002 0.09900
C 	C 	0.05811 0.08062 0.14571 -0.06500
C 	C 	0.02697 0.09776 0.14471 -0.06500
C 	C 	0.08014 0.02579 0.09629 -0.07800
C 	C 	0.11418 0.04047 0.08179 0.04000
C 	C 	0.17609 0.03693 0.08694 -0.03300
C 	C 	0.17889 0.06665 0.05174 -0.00200
C 	C 	0.14923 0.08276 0.03033 -0.03500
C 	C 	0.11698 0.06948 0.04476 -0.06000
N 	N 	0.05169 0.97015 0.12346 -0.12900
C 	C 	0.06780 0.93679 0.04777 -0.06400
C 	C 	0.04826 0.93876 0.09768 0.08700
C 	C 	0.02035 0.91420 0.11206 -0.07700
C 	C 	0.02404 0.87678 0.09752 0.04000
C 	C 	0.05231 0.85786 0.11807 -0.05800
C 	C 	0.05758 0.82345 0.10008 -0.03400
C 	C 	0.03474 0.80778 0.06116 -0.00200
C 	C 	0.00576 0.82618 0.04239 -0.03500
C 	C 	0.00056 0.86067 0.06014 -0.06000
C 	C 	0.96769 0.90666 0.17489 -0.06500
C 	C 	0.93651 0.92369 0.17701 -0.06500
C 	C 	0.81528 0.96901 0.12761 -0.03400
C 	C 	0.92012 0.05705 0.04520 -0.06400
C 	C 	0.00405 0.07510 0.11862 0.09800
C 	C 	0.08450 0.96833 0.04314 -0.06500
C 	C 	0.07426 0.98784 0.09042 0.08800
C 	C 	0.14392 0.02435 0.10290 -0.05900
H 	H 	0.97874 0.96988 0.08513 0.09100
H 	H 	0.01116 0.02822 0.07138 0.09000
H 	H 	0.07970 0.80916 0.11553 0.03500
H 	H 	0.98761 0.81395 0.01331 0.03200
H 	H 	0.07042 0.87001 0.14731 0.04400
H 	H 	0.97864 0.87507 0.04412 0.04100
H 	H 	0.83158 0.89574 0.04844 0.03200
H 	H 	0.85347 0.00177 0.16649 0.04300
H 	H 	0.79421 0.98478 0.14336 0.03400
H 	H 	0.89110 0.91428 0.06763 0.04100
H 	H 	0.99598 0.18231 0.97971 0.03800
H 	H 	0.00791 0.12278 0.01594 0.04000
C 	C 	0.93635 0.14067 0.09542 -0.05700
H 	H 	0.90715 0.18816 0.09005 0.03500
H 	H 	0.19889 0.02356 0.10186 0.03100
H 	H 	0.14210 0.00183 0.13121 0.04300
H 	H 	0.09421 0.08167 0.02720 0.04100
H 	H 	0.15120 0.10544 0.00242 0.03300
H 	H 	0.97110 0.87897 0.18253 0.04600
H 	H 	0.91238 0.91116 0.18703 0.04500
H 	H 	0.89170 0.01089 0.01753 0.04200
H 	H 	0.92292 0.07054 0.00422 0.04300
H 	H 	0.08268 0.09345 0.14960 0.04500
H 	H 	0.02395 0.12583 0.14720 0.04500
H 	H 	0.06260 0.91952 0.01169 0.04300
H 	H 	0.09424 0.97913 0.00301 0.04400
H 	H 	0.91964 0.12920 0.12773 0.04300
C 	C 	0.94332 0.22458 0.01037 0.00200
C 	C 	0.95206 0.25482 0.04236 -0.00300
C 	C 	0.94284 0.28778 0.02099 -0.01300
C 	C 	0.92448 0.29103 0.96912 -0.08500
C 	C 	0.91635 0.26093 0.93651 0.05500
C 	C 	0.92572 0.22788 0.95769 -0.07200
H 	H 	0.94961 0.31103 0.04525 0.03700
H 	H 	0.91889 0.20463 0.93349 0.04600
C 	C 	0.97257 0.25251 0.09799 -0.05400
C 	C 	0.89685 0.26354 0.88000 -0.07400
C 	C 	0.01091 0.25346 0.08555 -0.14200
H 	H 	0.96631 0.22861 0.12305 0.03800
H 	H 	0.96605 0.27485 0.12675 0.03300
H 	H 	0.01855 0.23088 0.05829 0.05600
H 	H 	0.02527 0.25217 0.12699 0.05000
H 	H 	0.01786 0.27811 0.06296 0.05500
C 	C 	0.85836 0.26041 0.89019 -0.13700
H 	H 	0.90505 0.24228 0.85025 0.03900
H 	H 	0.90248 0.28844 0.85713 0.04700
H 	H 	0.85216 0.23480 0.91030 0.05400
H 	H 	0.84472 0.26234 0.84814 0.05200
H 	H 	0.84917 0.28171 0.91888 0.06900
C 	C 	0.91421 0.46281 0.69698 0.01700
C 	C 	0.88238 0.46074 0.72590 -0.01500
C 	C 	0.88118 0.44839 0.78316 0.00200
C 	C 	0.91133 0.43924 0.81238 -0.11800
C 	C 	0.94290 0.43918 0.78219 0.07100
C 	C 	0.94398 0.45096 0.72463 -0.08600
H 	H 	0.85685 0.44710 0.80573 0.03200
H 	H 	0.96830 0.45218 0.70203 0.05100
C 	C 	0.84939 0.47045 0.69546 -0.04800
C 	C 	0.97575 0.42707 0.81075 -0.08400
C 	C 	0.83678 0.44049 0.65748 -0.14500
H 	H 	0.85278 0.49429 0.66859 0.03500
H 	H 	0.82914 0.47682 0.72768 0.03100
H 	H 	0.85582 0.43440 0.62318 0.05900
H 	H 	0.81236 0.44806 0.63637 0.05100
H 	H 	0.83224 0.41677 0.68417 0.05700
C 	C 	0.99749 0.45811 0.83005 -0.12500
H 	H 	0.99082 0.41130 0.77932 0.04300
H 	H 	0.97080 0.40964 0.84833 0.05100
H 	H 	0.00483 0.47435 0.79212 0.04600
H 	H 	0.02121 0.44850 0.85120 0.04200
H 	H 	0.98327 0.47461 0.86144 0.04300
C 	C 	0.96197 0.40333 0.24942 0.01600
C 	C 	0.96679 0.37825 0.20532 -0.01400
C 	C 	0.94976 0.38227 0.15224 -0.00200
C 	C 	0.92788 0.41089 0.14249 -0.11700
C 	C 	0.91924 0.43292 0.18985 0.06900
C 	C 	0.93754 0.42985 0.24189 -0.08600
H 	H 	0.95425 0.36346 0.11800 0.03800
H 	H 	0.93309 0.44859 0.27628 0.05000
C 	C 	0.98864 0.34609 0.21539 -0.05000
C 	C 	0.88933 0.45807 0.18753 -0.08300
C 	C 	0.96872 0.31831 0.24877 -0.14400
H 	H 	0.01241 0.35266 0.23931 0.03600
H 	H 	0.99704 0.33477 0.17334 0.03200
H 	H 	0.96138 0.32821 0.29227 0.05800
H 	H 	0.98495 0.29474 0.25439 0.05100
H 	H 	0.94529 0.31077 0.22458 0.05500
C 	C 	0.90151 0.49573 0.17951 -0.12100
H 	H 	0.87484 0.45649 0.22896 0.04000
H 	H 	0.87060 0.45099 0.15352 0.05200
H 	H 	0.91592 0.50451 0.21833 0.04400
H 	H 	0.87903 0.51313 0.17374 0.03800
H 	H 	0.91832 0.49823 0.14095 0.03800
C 	C 	0.05131 0.70290 0.00239 -0.11600
C 	C 	0.03111 0.70940 0.05217 0.06200
C 	C 	0.02636 0.74390 0.07103 -0.08200
C 	C 	0.04098 0.77187 0.04064 0.00800
C 	C 	0.06164 0.76532 0.99138 -0.00700
C 	C 	0.06640 0.73080 0.97255 0.00600
H 	H 	0.01119 0.74902 0.10948 0.04600
H 	H 	0.08170 0.72567 0.93424 0.03100
C 	C 	0.01552 0.67973 0.08682 -0.07200
C 	C 	0.07766 0.79490 0.95709 -0.05200
C 	C 	0.04105 0.66501 0.13056 -0.13600
H 	H 	0.00633 0.65858 0.05793 0.03000
H 	H 	0.99255 0.68907 0.11074 0.03300
H 	H 	0.06431 0.65510 0.10838 0.06800
H 	H 	0.02908 0.64303 0.15461 0.05500
H 	H 	0.04858 0.68552 0.16211 0.05300
C 	C 	0.05429 0.80652 0.90777 -0.14300
H 	H 	0.10246 0.78617 0.93837 0.03500
H 	H 	0.08377 0.81765 0.98501 0.04000
H 	H 	0.04943 0.78446 0.87764 0.05500
H 	H 	0.06676 0.82799 0.88320 0.05100
H 	H 	0.02951 0.81622 0.92495 0.05700
C 	C 	0.05725 0.60553 0.78751 -0.11700
C 	C 	0.06773 0.57797 0.75091 0.07300
C 	C 	0.05391 0.57547 0.69501 -0.08600
C 	C 	0.03066 0.60065 0.67483 0.01800
C 	C 	0.02401 0.63067 0.70865 -0.01600
C 	C 	0.03757 0.63290 0.76485 0.00100
H 	H 	0.05989 0.55294 0.66840 0.05200
H 	H 	0.03122 0.65504 0.79210 0.02700
C 	C 	0.09322 0.55081 0.77119 -0.08800
C 	C 	0.00324 0.66078 0.68464 -0.04900
C 	C 	0.07523 0.51800 0.79330 -0.12700
H 	H 	0.11006 0.56145 0.80561 0.05900
H 	H 	0.11033 0.54346 0.73466 0.04400
H 	H 	0.05811 0.52427 0.83024 0.05200
H 	H 	0.09464 0.49881 0.80824 0.04700
H 	H 	0.05996 0.50586 0.75808 0.04800
C 	C 	0.02456 0.68271 0.64278 -0.14400
H 	H 	0.99407 0.67795 0.72027 0.03000
H 	H 	0.97997 0.65113 0.66218 0.03500
H 	H 	0.04755 0.69323 0.66507 0.05700
H 	H 	0.00901 0.70498 0.62673 0.05100
H 	H 	0.03275 0.66679 0.60501 0.05800
C 	C 	0.06853 0.53611 0.22394 0.01600
C 	C 	0.03680 0.53645 0.19393 -0.01600
C 	C 	0.03542 0.55032 0.13776 0.00200
C 	C 	0.06431 0.56583 0.11253 -0.12000
C 	C 	0.09492 0.56893 0.14513 0.06800
C 	C 	0.09696 0.55303 0.19986 -0.08600
H 	H 	0.01152 0.54953 0.11394 0.01200
H 	H 	0.12086 0.55377 0.22372 0.04900
C 	C 	0.00352 0.52570 0.22306 -0.05200
C 	C 	0.12537 0.58959 0.12299 -0.07700
C 	C 	0.98610 0.55704 0.25131 -0.14200
H 	H 	0.00689 0.50497 0.25590 0.04300
H 	H 	0.98583 0.51448 0.19026 0.02700
H 	H 	0.00305 0.56899 0.28439 0.05800
H 	H 	0.96211 0.54842 0.27285 0.04900
H 	H 	0.97958 0.57699 0.21811 0.04900
C 	C 	0.15259 0.56548 0.09734 -0.13600
H 	H 	0.13698 0.60438 0.15946 0.04100
H 	H 	0.11783 0.60956 0.09054 0.04400
H 	H 	0.16325 0.54813 0.13145 0.05200
H 	H 	0.17378 0.58135 0.07899 0.05900
H 	H 	0.14164 0.54911 0.06232 0.06400
C 	C 	0.70333 0.93007 0.04635 -0.11100
C 	C 	0.71478 0.92074 0.10260 0.06600
C 	C 	0.75000 0.92047 0.11445 -0.08500
C 	C 	0.77365 0.93237 0.07322 0.01200
C 	C 	0.76224 0.94159 0.01696 -0.01300
C 	C 	0.72722 0.93974 0.00393 -0.00500
H 	H 	0.75887 0.91305 0.15725 0.04700
H 	H 	0.71840 0.94701 0.96103 0.03700
C 	C 	0.68987 0.91238 0.15116 -0.07900
C 	C 	0.78668 0.95576 0.97156 -0.05000
C 	C 	0.68416 0.87306 0.15667 -0.13100
H 	H 	0.66496 0.92586 0.14550 0.05600
H 	H 	0.70024 0.92221 0.19294 0.03900
H 	H 	0.67474 0.86187 0.11530 0.06800
H 	H 	0.66482 0.86789 0.19094 0.05000
H 	H 	0.70842 0.85983 0.16885 0.05100
C 	C 	0.79046 0.99534 0.97654 -0.13500
H 	H 	0.77693 0.94951 0.92751 0.03400
H 	H 	0.81221 0.94327 0.97432 0.03900
H 	H 	0.76516 0.00827 0.97180 0.05100
H 	H 	0.80765 0.00498 0.94169 0.04900
H 	H 	0.80175 0.00262 0.01894 0.05300
C 	C 	0.59155 0.98319 0.73805 0.01800
C 	C 	0.62325 0.98341 0.76741 -0.01300
C 	C 	0.62516 0.97005 0.82402 0.00100
C 	C 	0.59606 0.95615 0.85111 -0.11500
C 	C 	0.56506 0.95331 0.81991 0.06700
C 	C 	0.56315 0.96678 0.76349 -0.08600
H 	H 	0.64906 0.97166 0.84776 0.02800
H 	H 	0.53914 0.96558 0.74003 0.05000
C 	C 	0.65490 0.99909 0.73985 -0.05000
C 	C 	0.53461 0.93386 0.84469 -0.07900
C 	C 	0.65875 0.03754 0.75603 -0.14400
H 	H 	0.65419 0.99644 0.69192 0.03800
H 	H 	0.67803 0.98470 0.75463 0.03400
H 	H 	0.63651 0.05289 0.74030 0.05500
H 	H 	0.68232 0.04822 0.73576 0.05000
H 	H 	0.66085 0.04049 0.80378 0.05000
C 	C 	0.53676 0.89503 0.83014 -0.13400
H 	H 	0.51044 0.94457 0.82646 0.03700
H 	H 	0.53265 0.93719 0.89235 0.04600
H 	H 	0.53551 0.89115 0.78249 0.05300
H 	H 	0.51498 0.88099 0.85051 0.05800
H 	H 	0.56103 0.88372 0.84670 0.06600
C 	C 	0.56703 0.93105 0.17458 -0.11000
C 	C 	0.54901 0.95924 0.20013 0.06100
C 	C 	0.53678 0.95590 0.25696 -0.08100
C 	C 	0.54010 0.92430 0.28723 0.01500
C 	C 	0.55811 0.89618 0.26186 -0.01100
C 	C 	0.57192 0.90006 0.20598 0.00200
H 	H 	0.52291 0.97739 0.27662 0.04800
H 	H 	0.58648 0.87885 0.18688 0.03100
C 	C 	0.53905 0.99133 0.16538 -0.07300
C 	C 	0.56438 0.86260 0.29492 -0.05100
C 	C 	0.50501 0.98570 0.13439 -0.13800
H 	H 	0.55886 0.99881 0.13337 0.00900
H 	H 	0.53652 0.01421 0.19471 0.03200
H 	H 	0.50701 0.96360 0.10340 0.04200
H 	H 	0.49805 0.00967 0.10996 0.03300
H 	H 	0.48437 0.98014 0.16628 0.05000
C 	C 	0.59736 0.86489 0.33008 -0.14300
H 	H 	0.56652 0.84034 0.26418 0.03400
H 	H 	0.54266 0.85625 0.32415 0.03800
H 	H 	0.61961 0.86937 0.30097 0.05300
H 	H 	0.60142 0.84000 0.35384 0.05100
H 	H 	0.59582 0.88648 0.36207 0.05800
C 	C 	0.21301 0.08032 0.03631 0.00700
C 	C 	0.23439 0.09543 0.07883 -0.01100
C 	C 	0.26959 0.09836 0.06793 -0.00200
C 	C 	0.28322 0.08830 0.01416 -0.11400
C 	C 	0.26068 0.07986 0.96816 0.06900
C 	C 	0.22583 0.07454 0.98037 -0.08100
H 	H 	0.28643 0.10779 0.10178 0.03800
H 	H 	0.20878 0.06534 0.94662 0.04700
C 	C 	0.21979 0.11015 0.13458 -0.05300
C 	C 	0.27272 0.07976 0.90559 -0.08200
C 	C 	0.22884 0.08743 0.18676 -0.14300
H 	H 	0.19156 0.11323 0.13231 0.03900
H 	H 	0.23036 0.13678 0.14164 0.03600
H 	H 	0.21985 0.06022 0.18046 0.05400
H 	H 	0.21636 0.09816 0.22614 0.05100
H 	H 	0.25693 0.08732 0.19388 0.05200
C 	C 	0.28297 0.11633 0.88545 -0.12900
H 	H 	0.25202 0.07025 0.87656 0.03900
H 	H 	0.29437 0.06147 0.89924 0.05400
H 	H 	0.26135 0.13485 0.89144 0.05300
H 	H 	0.28976 0.11559 0.83873 0.04800
H 	H 	0.30556 0.12590 0.90989 0.05900
C 	C 	0.45445 0.08167 0.75162 0.01500
C 	C 	0.42895 0.10577 0.76897 -0.01300
C 	C 	0.41382 0.10229 0.82396 0.00000
C 	C 	0.42595 0.07733 0.86368 -0.11400
C 	C 	0.45459 0.05645 0.84854 0.06800
C 	C 	0.46524 0.05570 0.79050 -0.08400
H 	H 	0.39247 0.11895 0.83564 0.03500
H 	H 	0.48316 0.03594 0.77608 0.05000
C 	C 	0.41678 0.13460 0.72899 -0.05000
C 	C 	0.47398 0.03531 0.89393 -0.08000
C 	C 	0.38404 0.12400 0.69756 -0.14400
H 	H 	0.43660 0.14204 0.69676 0.03800
H 	H 	0.41154 0.15855 0.75478 0.03200
H 	H 	0.38816 0.09983 0.67196 0.05800
H 	H 	0.37616 0.14523 0.66761 0.05100
H 	H 	0.36303 0.11948 0.72917 0.05300
C 	C 	0.51281 0.03456 0.88436 -0.13300
H 	H 	0.46408 0.00810 0.89423 0.03900
H 	H 	0.47011 0.04667 0.93771 0.04100
H 	H 	0.51961 0.01746 0.84729 0.05200
H 	H 	0.52555 0.02379 0.92350 0.04100
H 	H 	0.52277 0.06134 0.87655 0.05000
C 	C 	0.39307 0.05067 0.18380 -0.11700
C 	C 	0.36471 0.04404 0.22055 0.07000
C 	C 	0.37036 0.03029 0.27617 -0.08600
C 	C 	0.40368 0.02466 0.29643 0.01600
C 	C 	0.43198 0.03576 0.26245 -0.01300
C 	C 	0.42633 0.04800 0.20596 -0.00200
H 	H 	0.34871 0.02333 0.30328 0.04800
H 	H 	0.44799 0.05495 0.17887 0.02900
C 	C 	0.32844 0.05255 0.20196 -0.08200
C 	C 	0.46786 0.03770 0.28734 -0.05000
C 	C 	0.30882 0.01963 0.18477 -0.12700
H 	H 	0.32788 0.07159 0.16566 0.05300
H 	H 	0.31474 0.06531 0.23851 0.03900
H 	H 	0.32274 0.00485 0.15077 0.05300
H 	H 	0.28329 0.02698 0.16755 0.04600
H 	H 	0.30509 0.00244 0.22305 0.04700
C 	C 	0.47438 0.07326 0.31505 -0.14400
H 	H 	0.48693 0.03373 0.25222 0.03000
H 	H 	0.47302 0.01692 0.31950 0.04100
H 	H 	0.47238 0.09430 0.28204 0.05600
H 	H 	0.50054 0.07378 0.33378 0.05300
H 	H 	0.45565 0.07835 0.35024 0.06000
C 	C 	0.44717 0.19408 0.01764 -0.09900
C 	C 	0.44398 0.21089 0.96328 0.06700
C 	C 	0.45262 0.24637 0.95831 -0.07800
C 	C 	0.46556 0.26477 0.00600 0.00900
C 	C 	0.47202 0.24693 0.05863 -0.00800
C 	C 	0.46246 0.21171 0.06402 -0.00500
H 	H 	0.44855 0.25987 0.91756 0.04700
H 	H 	0.46632 0.19820 0.10482 0.03100
C 	C 	0.43080 0.19157 0.91048 -0.08200
C 	C 	0.49104 0.26444 0.10790 -0.05300
C 	C 	0.39225 0.19635 0.90332 -0.13100
H 	H 	0.43693 0.16327 0.91259 0.05700
H 	H 	0.44378 0.20162 0.87094 0.04100
H 	H 	0.37826 0.18486 0.94061 0.06400
H 	H 	0.38367 0.18302 0.86319 0.05000
H 	H 	0.38577 0.22453 0.89977 0.05400
C 	C 	0.52965 0.26287 0.09818 -0.14200
H 	H 	0.48499 0.25128 0.14964 0.03500
H 	H 	0.48303 0.29205 0.11328 0.03900
H 	H 	0.53829 0.23529 0.09489 0.05300
H 	H 	0.54299 0.27534 0.13525 0.05000
H 	H 	0.53682 0.27702 0.05794 0.05500
C 	C 	0.19578 0.57093 0.93399 -0.09400
C 	C 	0.20555 0.53542 0.94098 0.05800
C 	C 	0.24040 0.52649 0.93962 -0.08000
C 	C 	0.26564 0.55230 0.93465 0.01000
C 	C 	0.25599 0.58771 0.92800 -0.00600
C 	C 	0.22113 0.59660 0.92736 -0.00800
H 	H 	0.24795 0.49935 0.94410 0.04700
H 	H 	0.21373 0.62377 0.92272 0.04000
C 	C 	0.17939 0.50667 0.95014 -0.07400
C 	C 	0.28251 0.61659 0.92520 -0.05500
C 	C 	0.16931 0.48985 0.89263 -0.13200
H 	H 	0.15630 0.51612 0.97327 0.05100
H 	H 	0.19037 0.48608 0.97862 0.03900
H 	H 	0.15939 0.50966 0.86177 0.06600
H 	H 	0.14902 0.47006 0.90029 0.04900
H 	H 	0.19178 0.47663 0.87286 0.05200
C 	C 	0.29156 0.62969 0.98572 -0.13200
H 	H 	0.27242 0.63889 0.89946 0.03600
H 	H 	0.30611 0.60797 0.90263 0.03900
H 	H 	0.26837 0.63984 0.00795 0.05100
H 	H 	0.31056 0.65117 0.98226 0.05000
H 	H 	0.30290 0.60839 0.01211 0.05200
C 	C 	0.72837 0.45427 0.98387 0.01500
C 	C 	0.74864 0.46025 0.93394 -0.01200
C 	C 	0.78397 0.45373 0.93611 -0.00100
C 	C 	0.79947 0.44184 0.98725 -0.10700
C 	C 	0.77921 0.43624 0.03741 0.06100
C 	C 	0.74371 0.44175 0.03468 -0.08700
H 	H 	0.79956 0.45841 0.89797 0.03300
H 	H 	0.72807 0.43707 0.07275 0.04700
C 	C 	0.73343 0.47577 0.87926 -0.05100
C 	C 	0.79494 0.42483 0.09437 -0.07500
C 	C 	0.73396 0.51561 0.88132 -0.14300
H 	H 	0.70687 0.46658 0.87192 0.03800
H 	H 	0.74834 0.46703 0.84085 0.03300
H 	H 	0.71829 0.52538 0.91803 0.05600
H 	H 	0.72320 0.52624 0.84043 0.05000
H 	H 	0.76064 0.52526 0.88607 0.05100
C 	C 	0.79226 0.38532 0.10227 -0.13400
H 	H 	0.78135 0.43777 0.13088 0.03600
H 	H 	0.82204 0.43306 0.09808 0.04600
H 	H 	0.76497 0.37725 0.10445 0.05200
H 	H 	0.80499 0.37762 0.14333 0.05100
H 	H 	0.80488 0.37137 0.06592 0.06800
C 	C 	0.55678 0.80890 0.96127 -0.09700
C 	C 	0.57306 0.78764 0.91939 0.06100
C 	C 	0.56338 0.75247 0.91407 -0.08000
C 	C 	0.53741 0.73853 0.94902 0.01000
C 	C 	0.51927 0.76057 0.98756 -0.00400
C 	C 	0.52905 0.79572 0.99297 -0.00200
H 	H 	0.57668 0.73571 0.88358 0.04700
H 	H 	0.51566 0.81258 0.02318 0.03000
C 	C 	0.60098 0.80195 0.88041 -0.07500
C 	C 	0.48840 0.74744 0.02091 -0.06200
C 	C 	0.63643 0.79257 0.90343 -0.13700
H 	H 	0.59899 0.83073 0.87532 0.04600
H 	H 	0.59813 0.79080 0.83620 0.03900
H 	H 	0.64019 0.80324 0.94766 0.07000
H 	H 	0.65630 0.80382 0.87447 0.05200
H 	H 	0.63977 0.76376 0.90463 0.05300
C 	C 	0.45591 0.75056 0.98464 -0.13100
H 	H 	0.48500 0.76290 0.06128 0.03500
H 	H 	0.49176 0.71992 0.03499 0.04000
H 	H 	0.45135 0.77825 0.97238 0.05200
H 	H 	0.43366 0.74115 0.01024 0.04500
H 	H 	0.45795 0.73449 0.94477 0.05400
