data_crystal

_cell_length_a 32.14238
_cell_length_b 55.74140
_cell_length_c 22.58606
_cell_angle_alpha 90.00179
_cell_angle_beta  89.99945
_cell_angle_gamma 89.99780

_symmetry_space_group_name_	'P 1'
_symmetry_space_group_name_H-M	'P 1'

loop_
_symmetry_equiv_pos_as_xyz
  x,y,z

loop_
_atom_site_label
_atom_site_type_symbol
_atom_site_fract_x
_atom_site_fract_y
_atom_site_fract_z
_atom_site_charge
Cu	Cu	0.53891 0.36134 0.94403 0.92400
Cu	Cu	0.56139 0.33421 0.82034 0.86600
Cu	Cu	0.47467 0.33564 0.86684 0.89400
Cu	Cu	0.44205 0.36772 0.96365 0.89000
C 	C 	0.50495 0.40337 0.99772 0.25300
O 	O 	0.52595 0.34312 0.01960 -0.35800
C 	C 	0.50509 0.29684 0.78942 0.27800
O 	O 	0.48122 0.36716 0.90120 -0.63700
O 	O 	0.53304 0.33197 0.89603 -0.64200
O 	O 	0.59451 0.37142 0.91429 -0.37500
O 	O 	0.57377 0.36743 0.81911 -0.44300
O 	O 	0.47270 0.39063 0.01522 -0.37100
O 	O 	0.41887 0.34121 0.83665 -0.38400
C 	C 	0.38699 0.34921 0.86797 0.28600
C 	C 	0.49365 0.32865 0.02355 0.28800
O 	O 	0.46117 0.33180 0.98898 -0.40700
O 	O 	0.39231 0.36452 0.91204 -0.39600
O 	O 	0.53900 0.39255 0.97928 -0.35700
C 	C 	0.60005 0.37613 0.85792 0.28600
O 	O 	0.47395 0.30543 0.82145 -0.37900
O 	O 	0.54397 0.30247 0.80146 -0.42000
H 	H 	0.47905 0.38055 0.87253 0.16100
H 	H 	0.53804 0.31673 0.91738 0.16900
Cu	Cu	0.54075 0.62223 0.13168 0.92800
Cu	Cu	0.56522 0.64967 0.25436 0.86700
Cu	Cu	0.47783 0.64800 0.21078 0.89400
Cu	Cu	0.44357 0.61614 0.11475 0.89400
C 	C 	0.50571 0.58021 0.07925 0.28400
O 	O 	0.52699 0.64029 0.05632 -0.36000
C 	C 	0.50915 0.68700 0.28683 0.27800
O 	O 	0.48365 0.61655 0.17613 -0.63700
O 	O 	0.53566 0.65172 0.17954 -0.64100
O 	O 	0.59684 0.61220 0.15944 -0.37200
O 	O 	0.57796 0.61649 0.25534 -0.44200
O 	O 	0.47319 0.59293 0.06270 -0.38300
O 	O 	0.42279 0.64223 0.24308 -0.38500
C 	C 	0.39018 0.63479 0.21252 0.28600
C 	C 	0.49493 0.65494 0.05316 0.27700
O 	O 	0.46269 0.65194 0.08823 -0.39400
O 	O 	0.39428 0.61995 0.16720 -0.39300
O 	O 	0.54009 0.59096 0.09673 -0.36100
C 	C 	0.60366 0.60784 0.21568 0.28700
O 	O 	0.47759 0.67826 0.25591 -0.37800
O 	O 	0.54788 0.68141 0.27370 -0.41900
H 	H 	0.48176 0.60314 0.20477 0.16200
H 	H 	0.54022 0.66694 0.15790 0.17200
Cu	Cu	0.94749 0.36352 0.62660 0.92700
Cu	Cu	0.92324 0.33850 0.75252 0.86600
Cu	Cu	0.00952 0.33771 0.70697 0.89400
Cu	Cu	0.04502 0.36818 0.60937 0.89400
C 	C 	0.98429 0.40432 0.57149 0.28200
O 	O 	0.96136 0.34416 0.55313 -0.36200
C 	C 	0.97706 0.30003 0.78584 0.27700
O 	O 	0.00486 0.36900 0.67070 -0.63500
O 	O 	0.95130 0.33466 0.67704 -0.64300
O 	O 	0.89160 0.37456 0.65319 -0.37100
O 	O 	0.91088 0.37165 0.74918 -0.44300
O 	O 	0.01608 0.39093 0.55540 -0.38300
O 	O 	0.06519 0.34258 0.73828 -0.38500
C 	C 	0.09781 0.34970 0.70725 0.28500
C 	C 	0.99212 0.32854 0.55319 0.27400
O 	O 	0.02490 0.33207 0.58696 -0.39500
O 	O 	0.09374 0.36500 0.66291 -0.39300
O 	O 	0.94935 0.39426 0.58908 -0.36100
C 	C 	0.88455 0.37935 0.70920 0.28700
O 	O 	0.00845 0.30774 0.75297 -0.38000
O 	O 	0.93850 0.30669 0.77478 -0.42000
H 	H 	0.00731 0.38261 0.69863 0.16200
H 	H 	0.94555 0.31919 0.65713 0.17200
Cu	Cu	0.95020 0.62338 0.45017 0.92800
Cu	Cu	0.92927 0.64979 0.32493 0.86600
Cu	Cu	0.01324 0.64951 0.37216 0.89200
Cu	Cu	0.04724 0.61856 0.47009 0.89400
C 	C 	0.98589 0.58201 0.50414 0.28100
O 	O 	0.96280 0.64190 0.52532 -0.36200
C 	C 	0.98033 0.69120 0.30454 0.28100
O 	O 	0.00808 0.61814 0.40748 -0.63600
O 	O 	0.95512 0.65272 0.40190 -0.64600
O 	O 	0.89476 0.61289 0.42086 -0.37100
O 	O 	0.91543 0.61675 0.32548 -0.44100
O 	O 	0.01755 0.59521 0.52177 -0.38300
O 	O 	0.06889 0.64417 0.34157 -0.38500
C 	C 	0.10131 0.63729 0.37332 0.28600
C 	C 	0.99344 0.65756 0.52711 0.27400
O 	O 	0.02666 0.65442 0.49399 -0.39400
O 	O 	0.09711 0.62258 0.41885 -0.39300
O 	O 	0.95130 0.59227 0.48574 -0.36100
C 	C 	0.88847 0.60874 0.36434 0.28600
O 	O 	0.01307 0.67943 0.32547 -0.38400
O 	O 	0.94225 0.68249 0.30865 -0.42200
H 	H 	0.01088 0.60462 0.37931 0.16300
H 	H 	0.94949 0.66808 0.42242 0.17300
C 	C 	0.47818 0.79592 0.78285 0.28100
Cu	Cu	0.44720 0.12191 0.44291 0.92800
Cu	Cu	0.42661 0.14927 0.31878 0.86700
Cu	Cu	0.51133 0.14739 0.36546 0.89300
Cu	Cu	0.54387 0.11620 0.46402 0.89300
C 	C 	0.48130 0.08002 0.49665 0.28200
O 	O 	0.45956 0.14008 0.51862 -0.36200
C 	C 	0.47994 0.18972 0.29866 0.28300
O 	O 	0.50515 0.11617 0.40097 -0.63700
O 	O 	0.45334 0.15134 0.39528 -0.64500
O 	O 	0.39199 0.11184 0.41202 -0.37300
O 	O 	0.41340 0.11612 0.31705 -0.44100
O 	O 	0.51333 0.09284 0.51478 -0.38500
O 	O 	0.56674 0.14124 0.33512 -0.38500
C 	C 	0.59898 0.13414 0.36697 0.28600
C 	C 	0.49061 0.15543 0.52125 0.27600
O 	O 	0.52392 0.15215 0.48840 -0.39500
O 	O 	0.59433 0.12007 0.41370 -0.39300
O 	O 	0.44718 0.09076 0.47812 -0.36200
C 	C 	0.38667 0.10747 0.35541 0.28500
O 	O 	0.51223 0.17703 0.31760 -0.38600
O 	O 	0.44139 0.18181 0.30362 -0.42100
H 	H 	0.50769 0.10259 0.37291 0.16300
H 	H 	0.44848 0.16666 0.41634 0.17200
Cu	Cu	0.03866 0.12309 0.12715 0.92800
Cu	Cu	0.06253 0.14698 0.25456 0.86600
Cu	Cu	0.97666 0.14820 0.20888 0.89300
Cu	Cu	0.94134 0.11899 0.10891 0.89400
C 	C 	0.00185 0.08302 0.06872 0.28400
O 	O 	0.02536 0.14304 0.05454 -0.35800
C 	C 	0.00909 0.18565 0.28881 0.28000
O 	O 	0.98117 0.11733 0.17057 -0.63700
O 	O 	0.03484 0.15152 0.17906 -0.64200
O 	O 	0.09447 0.11182 0.15313 -0.37000
O 	O 	0.07545 0.11391 0.24942 -0.44100
O 	O 	0.97023 0.09674 0.05357 -0.38500
O 	O 	0.92099 0.14293 0.23974 -0.38500
C 	C 	0.88838 0.13647 0.20786 0.28600
C 	C 	0.99480 0.15876 0.05501 0.27000
O 	O 	0.96201 0.15520 0.08871 -0.39500
O 	O 	0.89225 0.12199 0.16185 -0.39300
O 	O 	0.03669 0.09268 0.08806 -0.36000
C 	C 	0.10170 0.10660 0.20883 0.28700
O 	O 	0.97759 0.17781 0.25630 -0.38200
O 	O 	0.04760 0.17870 0.27830 -0.41900
H 	H 	0.97846 0.10340 0.19749 0.16200
H 	H 	0.04062 0.16718 0.16007 0.17300
C 	C 	0.07425 0.00813 0.01502 -0.05000
C 	C 	0.03765 0.02009 0.03151 0.01800
C 	C 	0.99995 0.00713 0.03737 -0.00600
C 	C 	0.96240 0.02000 0.04424 -0.04800
C 	C 	0.96315 0.04478 0.05340 -0.00500
C 	C 	0.00101 0.05729 0.05336 -0.06800
C 	C 	0.03811 0.04499 0.04092 -0.02000
H 	H 	0.10301 0.01803 0.00947 0.04500
H 	H 	0.93260 0.01120 0.03994 0.03900
H 	H 	0.93417 0.05425 0.06080 0.02600
H 	H 	0.06722 0.05478 0.03821 0.05100
C 	C 	0.14310 0.09748 0.22676 -0.08500
C 	C 	0.17636 0.09799 0.18655 0.00300
C 	C 	0.21713 0.09448 0.20608 -0.05500
C 	C 	0.22536 0.08966 0.26644 0.00400
C 	C 	0.19147 0.08830 0.30660 0.00400
C 	C 	0.15057 0.09120 0.28597 -0.02200
C 	C 	0.19896 0.08618 0.36759 -0.04300
C 	C 	0.23935 0.08782 0.38970 -0.04300
C 	C 	0.27314 0.09013 0.35096 0.00600
C 	C 	0.26674 0.08880 0.28904 0.00300
C 	C 	0.30181 0.08712 0.25162 -0.05600
C 	C 	0.34152 0.09181 0.27399 -0.00100
C 	C 	0.34698 0.09708 0.33429 -0.08400
C 	C 	0.31321 0.09449 0.37327 -0.01900
H 	H 	0.17098 0.10244 0.14050 0.03900
H 	H 	0.24208 0.09723 0.17481 0.04000
H 	H 	0.12478 0.09005 0.31683 0.03500
H 	H 	0.17318 0.08461 0.39829 0.03400
H 	H 	0.24429 0.08768 0.43717 0.03700
H 	H 	0.29881 0.08138 0.20614 0.04000
H 	H 	0.36795 0.09162 0.24425 0.03000
H 	H 	0.31773 0.09684 0.42050 0.04500
C 	C 	0.64122 0.13740 0.34267 -0.07200
C 	C 	0.64787 0.13669 0.28135 0.00500
C 	C 	0.68815 0.13802 0.25836 -0.05400
C 	C 	0.72262 0.14110 0.29655 0.00500
C 	C 	0.71592 0.14078 0.35860 0.00700
C 	C 	0.67525 0.13962 0.38112 -0.01900
C 	C 	0.74995 0.14042 0.39750 -0.04200
C 	C 	0.79047 0.13942 0.37561 -0.04100
C 	C 	0.79786 0.14025 0.31449 0.00700
C 	C 	0.76410 0.14267 0.27457 0.00500
C 	C 	0.77268 0.14727 0.21429 -0.05300
C 	C 	0.81338 0.14564 0.19301 0.00300
C 	C 	0.84636 0.14071 0.23173 -0.07300
C 	C 	0.83875 0.13885 0.29272 -0.01600
H 	H 	0.62191 0.13412 0.25141 0.03600
H 	H 	0.69240 0.13513 0.21146 0.04100
H 	H 	0.67014 0.13989 0.42861 0.03600
H 	H 	0.74495 0.14011 0.44495 0.03600
H 	H 	0.81626 0.13820 0.40639 0.03600
H 	H 	0.74852 0.15315 0.18437 0.04100
H 	H 	0.81935 0.14842 0.14629 0.02900
H 	H 	0.86442 0.13582 0.32300 0.04100
C 	C 	0.48040 0.05387 0.50853 -0.07200
C 	C 	0.44500 0.04034 0.49390 0.00100
C 	C 	0.44460 0.01552 0.50217 -0.05200
C 	C 	0.47914 0.00381 0.52786 0.00400
C 	C 	0.51590 0.01717 0.53846 0.00800
C 	C 	0.51597 0.04215 0.53023 -0.02100
C 	C 	0.55262 0.00536 0.55501 -0.04200
H 	H 	0.41805 0.04893 0.47441 0.04400
H 	H 	0.41844 0.00545 0.48529 0.04200
H 	H 	0.54398 0.05234 0.53941 0.03700
H 	H 	0.58099 0.01546 0.56222 0.03500
C 	C 	0.95272 0.78680 0.14491 -0.05500
C 	C 	0.98942 0.77410 0.15918 0.00500
C 	C 	0.02620 0.77888 0.12660 0.00800
C 	C 	0.06103 0.76392 0.13305 -0.04000
C 	C 	0.05923 0.74379 0.16976 -0.04200
C 	C 	0.02357 0.73919 0.20369 0.01000
C 	C 	0.98956 0.75533 0.20186 0.00200
C 	C 	0.95729 0.75269 0.24374 -0.05400
C 	C 	0.95539 0.73222 0.27921 0.00200
C 	C 	0.98641 0.71459 0.27532 -0.07600
C 	C 	0.02144 0.71862 0.23956 -0.01900
H 	H 	0.92299 0.78160 0.16321 0.04100
H 	H 	0.08914 0.76741 0.10798 0.03700
H 	H 	0.08581 0.73187 0.17219 0.03900
H 	H 	0.93463 0.76675 0.25065 0.04000
H 	H 	0.92961 0.72999 0.30963 0.03100
H 	H 	0.04632 0.70547 0.23829 0.04300
C 	C 	0.99970 0.77959 0.75282 -0.08100
C 	C 	0.02219 0.77961 0.69972 0.00500
C 	C 	0.01919 0.76040 0.66041 -0.05400
C 	C 	0.99215 0.74104 0.67258 0.00500
C 	C 	0.97076 0.74054 0.72752 0.00500
C 	C 	0.97363 0.76018 0.76643 -0.01300
C 	C 	0.94880 0.71990 0.74450 -0.04000
C 	C 	0.94924 0.69945 0.70879 -0.04300
C 	C 	0.96942 0.69978 0.65375 0.00800
C 	C 	0.98856 0.72113 0.63343 0.00200
C 	C 	0.00259 0.72223 0.57423 -0.05200
C 	C 	0.00384 0.70149 0.53967 0.00200
C 	C 	0.98906 0.67967 0.56222 -0.07800
C 	C 	0.97045 0.67902 0.61840 -0.01900
H 	H 	0.04314 0.79430 0.68966 0.01700
H 	H 	0.03987 0.76004 0.62273 0.04000
H 	H 	0.95712 0.75987 0.80832 0.04100
H 	H 	0.93252 0.71938 0.78651 0.03600
H 	H 	0.93354 0.68336 0.72384 0.03700
H 	H 	0.01066 0.73915 0.55389 0.04000
H 	H 	0.01573 0.70246 0.49483 0.02800
H 	H 	0.95748 0.66235 0.63494 0.04300
C 	C 	0.98408 0.28063 0.82893 -0.07900
C 	C 	0.96125 0.28033 0.88175 0.00300
C 	C 	0.96469 0.26111 0.92097 -0.06000
C 	C 	0.99257 0.24213 0.90910 0.01000
C 	C 	0.01428 0.24192 0.85440 0.00300
C 	C 	0.01088 0.26153 0.81552 -0.01200
C 	C 	0.03721 0.22160 0.83769 -0.03700
C 	C 	0.03751 0.20117 0.87344 -0.04900
C 	C 	0.01707 0.20123 0.92829 0.02000
C 	C 	0.99684 0.22230 0.94834 -0.01700
C 	C 	0.98246 0.22321 0.00740 -0.03300
C 	C 	0.98209 0.20248 0.04207 -0.01100
C 	C 	0.99808 0.18091 0.01978 -0.05900
C 	C 	0.01689 0.18050 0.96372 -0.03800
H 	H 	0.93980 0.29478 0.89172 0.01800
H 	H 	0.94377 0.26045 0.95837 0.03700
H 	H 	0.02767 0.26143 0.77384 0.04100
H 	H 	0.05372 0.22131 0.79585 0.03600
H 	H 	0.05400 0.18531 0.85860 0.03900
H 	H 	0.97344 0.24000 0.02757 0.03800
H 	H 	0.96996 0.20330 0.08680 0.03200
H 	H 	0.03072 0.16404 0.94734 0.04600
C 	C 	0.00224 0.20538 0.33111 -0.07200
C 	C 	0.02472 0.20583 0.38423 0.00000
C 	C 	0.02141 0.22531 0.42272 -0.05100
C 	C 	0.99402 0.24442 0.40978 0.00300
C 	C 	0.97276 0.24447 0.35474 0.00800
C 	C 	0.97600 0.22461 0.31660 -0.01800
C 	C 	0.95041 0.26487 0.33696 -0.04100
C 	C 	0.95022 0.28548 0.37205 -0.04200
C 	C 	0.97016 0.28558 0.42728 0.00800
C 	C 	0.98983 0.26449 0.44832 0.00300
C 	C 	0.00365 0.26379 0.50765 -0.05200
C 	C 	0.00405 0.28468 0.54175 0.00200
C 	C 	0.98864 0.30624 0.51855 -0.07800
C 	C 	0.97037 0.30648 0.46212 -0.01900
H 	H 	0.04578 0.19129 0.39503 0.02100
H 	H 	0.04206 0.22604 0.46041 0.03900
H 	H 	0.95953 0.22458 0.27467 0.04300
H 	H 	0.93427 0.26504 0.29483 0.03800
H 	H 	0.93418 0.30137 0.35642 0.03900
H 	H 	0.01221 0.24705 0.52847 0.04000
H 	H 	0.01575 0.28400 0.58671 0.02900
H 	H 	0.95698 0.32295 0.44503 0.04400
C 	C 	0.98637 0.55594 0.51559 -0.07500
C 	C 	0.02402 0.54328 0.51289 0.00300
C 	C 	0.02463 0.51837 0.51966 -0.05200
C 	C 	0.98753 0.50574 0.53217 0.00300
C 	C 	0.94924 0.51837 0.53118 0.00800
C 	C 	0.94901 0.54342 0.52455 -0.01600
C 	C 	0.91156 0.50577 0.53452 -0.04100
C 	C 	0.91138 0.48081 0.53828 -0.04100
C 	C 	0.94885 0.46805 0.54257 0.00800
C 	C 	0.98731 0.48051 0.54239 0.00300
C 	C 	0.02410 0.46772 0.55580 -0.05200
C 	C 	0.02307 0.44284 0.56281 0.00300
C 	C 	0.98528 0.43035 0.55945 -0.07500
C 	C 	0.94820 0.44301 0.54942 -0.01600
H 	H 	0.05276 0.55264 0.50318 0.02300
H 	H 	0.05347 0.50899 0.51149 0.04000
H 	H 	0.91973 0.55309 0.52546 0.04900
H 	H 	0.88221 0.51533 0.53289 0.04000
H 	H 	0.88189 0.47139 0.53923 0.04000
H 	H 	0.05298 0.47698 0.56450 0.03900
H 	H 	0.05157 0.43337 0.57329 0.02200
H 	H 	0.91881 0.43347 0.54794 0.04900
C 	C 	0.49472 0.67441 0.00935 -0.06700
C 	C 	0.52850 0.69019 0.00552 0.01500
C 	C 	0.52766 0.70940 0.96577 -0.06600
C 	C 	0.49356 0.71242 0.92683 0.00700
C 	C 	0.45884 0.69684 0.93241 0.00700
C 	C 	0.45999 0.67776 0.97290 -0.02700
C 	C 	0.42267 0.70107 0.89935 -0.04200
C 	C 	0.41977 0.72109 0.86270 -0.04300
C 	C 	0.45372 0.73662 0.85604 0.00700
C 	C 	0.49180 0.73164 0.88516 0.00200
C 	C 	0.52714 0.74560 0.87082 -0.05300
C 	C 	0.52293 0.76624 0.83613 -0.00100
C 	C 	0.48405 0.77256 0.81260 -0.07400
C 	C 	0.45000 0.75713 0.82044 -0.02000
H 	H 	0.55488 0.68809 0.03495 0.02400
H 	H 	0.55235 0.72251 0.96805 0.04000
H 	H 	0.43364 0.66568 0.97658 0.03300
H 	H 	0.39614 0.68917 0.90344 0.03400
H 	H 	0.39095 0.72451 0.83923 0.03500
H 	H 	0.55799 0.74011 0.88407 0.04000
H 	H 	0.54992 0.77740 0.82794 0.03800
H 	H 	0.42048 0.76125 0.79949 0.03900
C 	C 	0.50163 0.70617 0.33038 -0.07500
C 	C 	0.52459 0.70649 0.38307 0.00200
C 	C 	0.52070 0.72553 0.42275 -0.05500
C 	C 	0.49232 0.74432 0.41138 0.00600
C 	C 	0.47051 0.74454 0.35677 0.00700
C 	C 	0.47430 0.72507 0.31748 -0.01500
C 	C 	0.44711 0.76475 0.34053 -0.04000
C 	C 	0.44647 0.78507 0.37666 -0.04200
C 	C 	0.46702 0.78499 0.43144 0.00800
C 	C 	0.48768 0.76400 0.45102 0.00400
C 	C 	0.50215 0.76300 0.51002 -0.05300
C 	C 	0.50228 0.78363 0.54503 0.00000
H 	H 	0.54648 0.69222 0.39259 0.01800
H 	H 	0.54165 0.72624 0.46010 0.04000
H 	H 	0.45741 0.72515 0.27588 0.04300
H 	H 	0.43052 0.76505 0.29876 0.03900
H 	H 	0.51148 0.74620 0.52986 0.04000
H 	H 	0.51456 0.78277 0.58966 0.02900
C 	C 	0.34826 0.63844 0.23742 -0.07200
C 	C 	0.34183 0.63714 0.29871 0.00500
C 	C 	0.30164 0.63845 0.32209 -0.05300
C 	C 	0.26709 0.64212 0.28436 0.00500
C 	C 	0.27360 0.64254 0.22226 0.00800
C 	C 	0.31417 0.64135 0.19939 -0.01800
C 	C 	0.23947 0.64289 0.18356 -0.04100
C 	C 	0.19900 0.64185 0.20557 -0.04100
C 	C 	0.19178 0.64187 0.26677 0.00700
C 	C 	0.22567 0.64358 0.30670 0.00500
C 	C 	0.21728 0.64734 0.36740 -0.05300
C 	C 	0.17660 0.64561 0.38872 0.00300
C 	C 	0.14346 0.64144 0.34973 -0.07300
C 	C 	0.15093 0.64039 0.28859 -0.01600
H 	H 	0.36785 0.63405 0.32824 0.03500
H 	H 	0.29752 0.63506 0.36880 0.04100
H 	H 	0.31914 0.64207 0.15190 0.03600
H 	H 	0.24434 0.64318 0.13607 0.03700
H 	H 	0.17311 0.64119 0.17485 0.03700
H 	H 	0.24158 0.65269 0.39769 0.04100
H 	H 	0.17077 0.64778 0.43567 0.02900
H 	H 	0.12515 0.63794 0.25818 0.04200
C 	C 	0.84761 0.59962 0.34401 -0.08400
C 	C 	0.81421 0.59802 0.38383 0.00200
C 	C 	0.77377 0.59429 0.36322 -0.05600
C 	C 	0.76604 0.59134 0.30200 0.00300
C 	C 	0.80008 0.59221 0.26202 0.00500
C 	C 	0.84070 0.59531 0.28358 -0.02200
C 	C 	0.79288 0.59206 0.20074 -0.04300
C 	C 	0.75245 0.59345 0.17868 -0.04200
C 	C 	0.71843 0.59350 0.21744 0.00600
C 	C 	0.72482 0.59020 0.27892 0.00300
C 	C 	0.68985 0.58628 0.31550 -0.05600
C 	C 	0.64985 0.59063 0.29380 -0.00000
C 	C 	0.64407 0.59779 0.23478 -0.08400
C 	C 	0.67809 0.59753 0.19574 -0.01900
H 	H 	0.81918 0.60094 0.43071 0.03800
H 	H 	0.74856 0.59540 0.39469 0.03900
H 	H 	0.86661 0.59581 0.25283 0.03500
H 	H 	0.81882 0.59222 0.17006 0.03500
H 	H 	0.74762 0.59485 0.13131 0.03800
H 	H 	0.69324 0.57910 0.35968 0.04000
H 	H 	0.62338 0.58872 0.32313 0.03000
H 	H 	0.67349 0.60150 0.14919 0.04500
C 	C 	0.49313 0.30949 0.06838 -0.07700
C 	C 	0.45647 0.30459 0.09969 0.00700
C 	C 	0.45534 0.28617 0.14152 -0.05500
C 	C 	0.49150 0.27267 0.15397 0.00600
C 	C 	0.52773 0.27663 0.11952 0.00600
C 	C 	0.52876 0.29555 0.07841 -0.01500
C 	C 	0.56168 0.26090 0.12429 -0.04000
C 	C 	0.55941 0.24081 0.16104 -0.04200
C 	C 	0.52430 0.23697 0.19665 0.00800
C 	C 	0.49141 0.25387 0.19659 0.00400
C 	C 	0.46001 0.25191 0.24000 -0.05400
C 	C 	0.45749 0.23140 0.27530 0.00200
C 	C 	0.48711 0.21307 0.26970 -0.07400
C 	C 	0.52157 0.21638 0.23239 -0.02000
H 	H 	0.42855 0.31491 0.09109 0.02900
H 	H 	0.42578 0.28167 0.16143 0.04100
H 	H 	0.55674 0.29888 0.05282 0.03500
H 	H 	0.58937 0.26378 0.09784 0.03700
H 	H 	0.58521 0.22829 0.16213 0.03800
H 	H 	0.43855 0.26647 0.24816 0.04000
H 	H 	0.43228 0.22970 0.30688 0.03100
H 	H 	0.54546 0.20267 0.22978 0.04300
C 	C 	0.49710 0.27776 0.74588 -0.07600
C 	C 	0.51848 0.27802 0.69187 0.00200
C 	C 	0.51531 0.25878 0.65270 -0.05500
C 	C 	0.48911 0.23915 0.66591 0.00500
C 	C 	0.46864 0.23850 0.72156 0.00600
C 	C 	0.47173 0.25816 0.76038 -0.01500
C 	C 	0.44749 0.21768 0.73932 -0.04100
C 	C 	0.44793 0.19720 0.70374 -0.04200
C 	C 	0.46732 0.19763 0.64813 0.00800
C 	C 	0.48555 0.21913 0.62706 0.00400
C 	C 	0.49883 0.22023 0.56750 -0.05400
C 	C 	0.50031 0.19942 0.53320 0.00100
C 	C 	0.48637 0.17753 0.55636 -0.07700
C 	C 	0.46847 0.17682 0.61299 -0.01900
H 	H 	0.53886 0.29288 0.68106 0.01700
H 	H 	0.53531 0.25861 0.61427 0.03900
H 	H 	0.45604 0.25769 0.80290 0.04100
H 	H 	0.43187 0.21707 0.78183 0.03700
H 	H 	0.43289 0.18099 0.71937 0.03700
H 	H 	0.50608 0.23718 0.54670 0.04000
H 	H 	0.51163 0.20041 0.48806 0.02700
H 	H 	0.45612 0.16007 0.62999 0.04300
C 	C 	0.34441 0.34562 0.84499 -0.07300
C 	C 	0.31050 0.34625 0.88401 0.00200
C 	C 	0.26981 0.34524 0.86254 -0.05400
C 	C 	0.26223 0.34250 0.80126 0.00500
C 	C 	0.29654 0.34258 0.76170 0.00700
C 	C 	0.33735 0.34344 0.78392 -0.01700
C 	C 	0.28971 0.34317 0.70039 -0.04100
C 	C 	0.24942 0.34479 0.67789 -0.04200
C 	C 	0.21506 0.34440 0.71610 0.00800
C 	C 	0.22107 0.34161 0.77784 0.00400
C 	C 	0.18599 0.33740 0.81413 -0.05300
C 	C 	0.14586 0.33978 0.79103 0.00300
C 	C 	0.14000 0.34518 0.73089 -0.07200
C 	C 	0.17463 0.34656 0.69317 -0.01900
H 	H 	0.31565 0.34825 0.93117 0.02800
H 	H 	0.24460 0.34809 0.89336 0.03900
H 	H 	0.36349 0.34347 0.75352 0.04300
H 	H 	0.31582 0.34323 0.67002 0.03700
H 	H 	0.24491 0.34623 0.63046 0.03600
H 	H 	0.18946 0.33122 0.85921 0.04000
H 	H 	0.11934 0.33741 0.82004 0.03800
H 	H 	0.17011 0.34937 0.64607 0.03700
C 	C 	0.63968 0.38679 0.83742 -0.08500
C 	C 	0.64487 0.39292 0.77756 -0.00100
C 	C 	0.68447 0.39786 0.75518 -0.05700
C 	C 	0.71972 0.39567 0.79208 0.00300
C 	C 	0.71361 0.39348 0.85392 0.00500
C 	C 	0.67366 0.38877 0.87625 -0.02000
C 	C 	0.74758 0.39534 0.89250 -0.04300
C 	C 	0.78784 0.39748 0.87014 -0.04400
C 	C 	0.79505 0.39622 0.80893 0.00400
C 	C 	0.76099 0.39523 0.76902 0.00300
C 	C 	0.76897 0.39114 0.70825 -0.05600
C 	C 	0.80969 0.38800 0.68808 0.00200
C 	C 	0.84315 0.38821 0.72798 -0.08600
C 	C 	0.83588 0.39381 0.78767 -0.02200
H 	H 	0.61828 0.39355 0.74813 0.02900
H 	H 	0.68727 0.40420 0.71014 0.03900
H 	H 	0.66938 0.38569 0.92327 0.04400
H 	H 	0.74287 0.39481 0.94000 0.03500
H 	H 	0.81375 0.39874 0.90070 0.03300
H 	H 	0.74389 0.38864 0.67707 0.03900
H 	H 	0.81491 0.38408 0.64170 0.03800
H 	H 	0.86181 0.39474 0.81834 0.03400
C 	C 	0.50616 0.42944 0.01055 -0.03300
C 	C 	0.54100 0.44313 0.99423 -0.04300
C 	C 	0.54156 0.46790 0.00352 -0.01000
C 	C 	0.50773 0.47939 0.03167 -0.01400
C 	C 	0.47144 0.46586 0.04417 0.02400
C 	C 	0.47129 0.44094 0.03510 -0.04000
C 	C 	0.43517 0.47746 0.06337 -0.04900
C 	C 	0.43432 0.50233 0.06966 -0.03600
C 	C 	0.47046 0.51592 0.06062 0.00200
C 	C 	0.50811 0.50442 0.04445 0.01600
C 	C 	0.54538 0.51788 0.04483 -0.05700
C 	C 	0.54434 0.54263 0.05444 0.00800
C 	C 	0.50654 0.55425 0.06639 -0.07400
C 	C 	0.46973 0.54083 0.06981 -0.01700
H 	H 	0.56731 0.43471 0.97264 0.05200
H 	H 	0.56717 0.47813 0.98555 0.02400
H 	H 	0.44369 0.43063 0.04585 0.04400
H 	H 	0.40716 0.46723 0.07215 0.03900
H 	H 	0.40562 0.51101 0.08293 0.03500
H 	H 	0.57533 0.50921 0.04109 0.04600
H 	H 	0.57316 0.55270 0.05360 0.04400
H 	H 	0.44074 0.54964 0.08136 0.02900
C 	C 	0.00682 0.79882 0.79626 0.28300
C 	C 	0.02702 0.79788 0.08570 -0.01400
H 	H 	0.42963 0.80087 0.36217 0.03900
H 	H 	0.05540 0.80186 0.06160 0.03500
O 	O 	0.44068 0.80562 0.78246 -0.42300
O 	O 	0.04543 0.80456 0.80968 -0.42100
C 	C 	0.95371 0.80532 0.10334 0.00700
C 	C 	0.48598 0.80520 0.52312 -0.07600
C 	C 	0.46695 0.80564 0.46721 -0.01900
O 	O 	0.51029 0.80632 0.75628 -0.38600
O 	O 	0.97502 0.80752 0.82678 -0.38200
C 	C 	0.99081 0.81110 0.07406 -0.07900
H 	H 	0.92537 0.81505 0.09342 0.03000
H 	H 	0.44480 0.81777 0.66558 0.17500
H 	H 	0.03714 0.81882 0.92542 0.17000
H 	H 	0.45285 0.82208 0.45116 0.04400
C 	C 	0.48957 0.82733 0.55838 0.27600
C 	C 	0.99135 0.83052 0.02991 0.28700
O 	O 	0.52296 0.83100 0.59081 -0.39700
O 	O 	0.95939 0.83347 0.99428 -0.40600
O 	O 	0.45144 0.83341 0.68412 -0.64600
O 	O 	0.03256 0.83408 0.90392 -0.64100
Cu	Cu	0.51010 0.83654 0.71108 0.89100
Cu	Cu	0.06233 0.83634 0.82933 0.86700
H 	H 	0.73894 0.83571 0.68228 0.04000
Cu	Cu	0.97486 0.83773 0.87215 0.89400
Cu	Cu	0.42885 0.83819 0.76272 0.86400
C 	C 	0.73665 0.84139 0.89738 -0.04200
C 	C 	0.71456 0.84031 0.71317 -0.05400
H 	H 	0.74151 0.84025 0.94479 0.03400
H 	H 	0.66801 0.84075 0.64494 0.02800
O 	O 	0.45855 0.84275 0.55983 -0.36200
O 	O 	0.56619 0.84162 0.74037 -0.38700
C 	C 	0.77078 0.84259 0.85880 0.00600
C 	C 	0.69618 0.84266 0.87546 -0.04200
C 	C 	0.67381 0.84214 0.69207 0.00300
H 	H 	0.81626 0.84200 0.92923 0.03300
H 	H 	0.67028 0.84263 0.90620 0.03500
O 	O 	0.91995 0.84345 0.83935 -0.38500
C 	C 	0.76429 0.84412 0.79680 0.00500
C 	C 	0.81132 0.84351 0.88184 -0.01800
C 	C 	0.68897 0.84373 0.81433 0.00600
C 	C 	0.72290 0.84295 0.77426 0.00500
O 	O 	0.02331 0.84527 0.02722 -0.35700
C 	C 	0.64059 0.84528 0.73151 -0.07400
C 	C 	0.64809 0.84533 0.79269 -0.01700
C 	C 	0.84539 0.84724 0.84425 -0.07400
H 	H 	0.62229 0.84702 0.82337 0.04000
C 	C 	0.79885 0.84857 0.75957 -0.05400
C 	C 	0.59817 0.84906 0.70848 0.28700
C 	C 	0.83902 0.84959 0.78315 0.00500
C 	C 	0.88716 0.85081 0.86966 0.28600
H 	H 	0.86504 0.85329 0.75405 0.03400
H 	H 	0.79475 0.85279 0.71327 0.04000
Cu	Cu	0.44621 0.86208 0.63383 0.92800
O 	O 	0.59315 0.86398 0.66352 -0.39400
Cu	Cu	0.03726 0.86350 0.95211 0.92600
O 	O 	0.89097 0.86548 0.91536 -0.39600
Cu	Cu	0.54309 0.86719 0.61239 0.89400
O 	O 	0.50435 0.86786 0.67545 -0.63800
Cu	Cu	0.94003 0.86928 0.96823 0.89000
O 	O 	0.98033 0.86913 0.90718 -0.63900
O 	O 	0.07458 0.86956 0.82874 -0.44300
O 	O 	0.41304 0.87091 0.75817 -0.44100
O 	O 	0.39080 0.87262 0.66312 -0.37000
O 	O 	0.09332 0.87376 0.92469 -0.37400
C 	C 	0.38501 0.87759 0.71933 0.28700
C 	C 	0.10016 0.87824 0.86850 0.28600
H 	H 	0.50726 0.88146 0.70336 0.16100
H 	H 	0.97845 0.88259 0.87870 0.16100
H 	H 	0.17003 0.88443 0.93502 0.04300
C 	C 	0.34404 0.88651 0.73987 -0.08500
H 	H 	0.31552 0.88525 0.65322 0.03900
C 	C 	0.14056 0.88835 0.84953 -0.08600
C 	C 	0.17461 0.88848 0.88851 -0.02000
C 	C 	0.31059 0.88809 0.70014 0.00300
O 	O 	0.51278 0.88992 0.55971 -0.38400
C 	C 	0.33717 0.89072 0.80036 -0.02200
H 	H 	0.24422 0.89096 0.95282 0.03500
H 	H 	0.36310 0.89020 0.83108 0.03300
O 	O 	0.96926 0.89244 0.02088 -0.38600
C 	C 	0.21495 0.89247 0.86676 0.00500
C 	C 	0.24901 0.89242 0.90545 -0.04300
C 	C 	0.27015 0.89177 0.72087 -0.05600
H 	H 	0.24491 0.89066 0.68947 0.03900
O 	O 	0.44664 0.89277 0.59622 -0.36200
C 	C 	0.28942 0.89382 0.88333 -0.04400
C 	C 	0.29656 0.89375 0.82202 0.00400
H 	H 	0.31539 0.89360 0.91395 0.03300
O 	O 	0.03621 0.89470 0.98736 -0.37100
C 	C 	0.14632 0.89561 0.79058 -0.00100
C 	C 	0.22130 0.89584 0.80530 0.00300
C 	C 	0.26249 0.89468 0.78212 0.00300
H 	H 	0.11983 0.89761 0.76132 0.02900
C 	C 	0.18633 0.89989 0.76882 -0.05700
C 	C 	0.48086 0.90307 0.57666 0.28300
C 	C 	0.00171 0.90534 0.00479 0.29800
H 	H 	0.18972 0.90711 0.72469 0.04000
C 	C 	0.48028 0.92890 0.56221 -0.07300
C 	C 	0.00238 0.93138 0.01805 -0.07900
H 	H 	0.94037 0.93211 0.05540 0.03200
H 	H 	0.41339 0.93079 0.55304 0.04300
H 	H 	0.54655 0.93317 0.57310 0.03000
H 	H 	0.06539 0.93657 0.98707 0.03900
C 	C 	0.44237 0.94070 0.55215 0.00500
C 	C 	0.96723 0.94261 0.04250 0.00500
C 	C 	0.03770 0.94519 0.00444 0.00100
C 	C 	0.51740 0.94213 0.56316 -0.02000
C 	C 	0.96662 0.96742 0.05115 -0.06000
C 	C 	0.51677 0.96704 0.55392 0.00700
C 	C 	0.44142 0.96545 0.54258 -0.05300
C 	C 	0.03743 0.97012 0.01334 -0.00500
H 	H 	0.58232 0.97163 0.57214 0.03500
H 	H 	0.94055 0.97521 0.07445 0.04200
H 	H 	0.10217 0.97471 0.98991 0.02800
H 	H 	0.41152 0.97426 0.54060 0.04300
C 	C 	0.47883 0.97874 0.54016 0.00500
C 	C 	0.00068 0.98165 0.03305 0.01700
C 	C 	0.55335 0.98047 0.56082 -0.04200
C 	C 	0.07381 0.98350 0.00420 -0.01900
