data_crystal

_cell_length_a 17.38738
_cell_length_b 17.21036
_cell_length_c 91.48753
_cell_angle_alpha 90.06244
_cell_angle_beta  90.02694
_cell_angle_gamma 119.75503

_symmetry_space_group_name_	'P 1'
_symmetry_space_group_name_H-M	'P 1'

loop_
_symmetry_equiv_pos_as_xyz
  x,y,z

loop_
_atom_site_label
_atom_site_type_symbol
_atom_site_fract_x
_atom_site_fract_y
_atom_site_fract_z
_atom_site_charge
C 	C 	0.12083 0.27897 0.00517 0.31900
C 	C 	0.82446 0.92147 0.00308 0.26800
Ni	Ni	0.95589 0.11083 0.00308 1.12700
O 	O 	0.92638 0.19437 0.01487 -0.36400
O 	O 	0.88068 0.89360 0.00726 -0.34700
O 	O 	0.83777 0.00160 0.00673 -0.35700
N 	N 	0.97427 0.37659 0.00234 -0.07900
O 	O 	0.11264 0.27783 0.01947 -0.37200
O 	O 	0.17439 0.15538 0.02426 -0.37700
Ni	Ni	0.00551 0.96858 0.01777 1.09500
O 	O 	0.99327 0.07144 0.01950 -0.69900
H 	H 	0.93900 0.04685 0.02544 0.17200
Ni	Ni	0.07196 0.16639 0.03186 1.12200
N 	N 	0.09511 0.43761 0.03206 -0.09300
O 	O 	0.12735 0.00976 0.02837 -0.34700
C 	C 	0.18823 0.09433 0.03000 0.31000
C 	C 	0.92292 0.20005 0.02943 0.30100
O 	O 	0.95276 0.93542 0.03861 -0.35100
O 	O 	0.96894 0.17808 0.03835 -0.37200
C 	C 	0.25327 0.11959 0.04217 -0.08500
C 	C 	0.29264 0.06679 0.04493 0.02800
H 	H 	0.28105 0.01294 0.03748 0.05200
C 	C 	0.93618 0.33360 0.04203 0.05100
C 	C 	0.88132 0.24820 0.03584 -0.07400
C 	C 	0.79354 0.19790 0.04071 0.01600
C 	C 	0.02430 0.39117 0.03644 0.06200
H 	H 	0.74883 0.13494 0.03540 0.04900
N 	N 	0.73660 0.88692 0.04691 -0.11100
O 	O 	0.04984 0.07555 0.04821 -0.35600
N 	N 	0.20554 0.29676 0.04778 -0.13100
C 	C 	0.23354 0.24894 0.04958 0.04400
C 	C 	0.97858 0.99446 0.04948 0.25500
C 	C 	0.34553 0.08204 0.05740 -0.05100
C 	C 	0.26922 0.19004 0.05204 0.03800
C 	C 	0.38309 0.02513 0.06014 0.14300
N 	N 	0.41260 0.97900 0.06234 -0.13900
C 	C 	0.91010 0.35775 0.05491 -0.06100
C 	C 	0.76785 0.22165 0.05374 -0.03800
C 	C 	0.67996 0.16531 0.05945 0.10000
H 	H 	0.95587 0.41923 0.06051 0.06600
C 	C 	0.78815 0.89214 0.05544 0.08200
C 	C 	0.82991 0.29752 0.06158 0.02800
C 	C 	0.85263 0.89880 0.06608 0.00100
C 	C 	0.94350 0.96060 0.06418 -0.02400
C 	C 	0.35882 0.15052 0.06734 0.03000
C 	C 	0.32023 0.20348 0.06456 -0.06200
H 	H 	0.33069 0.25623 0.07219 0.06000
H 	H 	0.51742 0.29694 0.07171 0.06000
C 	C 	0.79311 0.43012 0.07449 0.09600
N 	N 	0.60962 0.12038 0.06411 -0.10200
N 	N 	0.78105 0.47755 0.06709 -0.10700
H 	H 	0.07185 0.02689 0.07469 0.09500
C 	C 	0.00258 0.97632 0.07576 -0.08900
N 	N 	0.99381 0.72749 0.07675 -0.10500
C 	C 	0.41629 0.17090 0.08043 0.02900
C 	C 	0.49356 0.25484 0.08134 -0.05700
C 	C 	0.97361 0.92250 0.08828 0.02500
C 	C 	0.88597 0.85050 0.08895 -0.00600
C 	C 	0.82458 0.84264 0.07829 -0.03500
C 	C 	0.94755 0.72187 0.08628 0.10300
H 	H 	0.75582 0.79052 0.07923 0.05200
C 	C 	0.80826 0.37096 0.08372 -0.03900
C 	C 	0.82102 0.30316 0.07758 0.02400
C 	C 	0.83589 0.24657 0.08676 -0.05500
H 	H 	0.84699 0.19514 0.08202 0.06400
C 	C 	0.03405 0.94078 0.10031 0.05500
N 	N 	0.08225 0.95537 0.10998 -0.11200
C 	C 	0.53486 0.28834 0.09485 0.02600
C 	C 	0.38484 0.11691 0.09306 -0.05100
C 	C 	0.60280 0.38111 0.09597 0.07000
C 	C 	0.30568 0.03016 0.09249 0.14300
N 	N 	0.65668 0.45575 0.09678 -0.10500
N 	N 	0.24239 0.96057 0.09200 -0.14300
C 	C 	0.86054 0.77777 0.09973 0.03600
C 	C 	0.86093 0.64360 0.10800 0.01500
C 	C 	0.88978 0.71490 0.09817 -0.04000
H 	H 	0.88455 0.59620 0.10693 0.04000
C 	C 	0.50433 0.23396 0.10739 -0.07500
C 	C 	0.43003 0.14801 0.10637 0.02300
C 	C 	0.84032 0.25848 0.10194 0.03000
C 	C 	0.81133 0.38207 0.09890 0.01300
H 	H 	0.80058 0.43369 0.10361 0.03900
C 	C 	0.80187 0.76768 0.11102 -0.06300
C 	C 	0.80025 0.63204 0.11900 -0.07400
H 	H 	0.77921 0.81582 0.11220 0.05600
H 	H 	0.40703 0.10561 0.11598 0.04800
C 	C 	0.82797 0.32673 0.10809 -0.08000
C 	C 	0.86197 0.20339 0.11103 0.08700
C 	C 	0.76786 0.55447 0.12879 0.29000
C 	C 	0.55552 0.26190 0.12108 0.28700
C 	C 	0.82993 0.33991 0.12405 0.28900
O 	O 	0.68136 0.49705 0.12906 -0.36200
O 	O 	0.86779 0.42268 0.12934 -0.37600
O 	O 	0.53253 0.30136 0.13140 -0.36200
O 	O 	0.60901 0.22937 0.12394 -0.36900
H 	H 	0.71262 0.37900 0.13169 0.15100
C 	C 	0.77099 0.69488 0.12059 0.03100
N 	N 	0.87934 0.15928 0.11831 -0.09600
O 	O 	0.78468 0.26964 0.13274 -0.37100
C 	C 	0.70925 0.68509 0.13197 0.07700
Ni	Ni	0.62097 0.40378 0.14558 1.11900
Ni	Ni	0.67194 0.24606 0.14325 1.12300
Ni	Ni	0.82578 0.44923 0.14816 1.12100
O 	O 	0.82144 0.55679 0.13941 -0.37700
O 	O 	0.54833 0.19258 0.15243 -0.36800
O 	O 	0.70649 0.36991 0.14234 -0.71200
N 	N 	0.65970 0.67725 0.14107 -0.10700
H 	H 	0.37349 0.26381 0.14612 0.16000
H 	H 	0.07745 0.24424 0.17390 0.15400
O 	O 	0.40003 0.29300 0.15559 -0.30100
C 	C 	0.52398 0.23471 0.16176 0.32500
C 	C 	0.75059 0.52313 0.16881 0.32600
C 	C 	0.80882 0.29425 0.16552 0.32700
O 	O 	0.72286 0.25181 0.16318 -0.38000
O 	O 	0.57232 0.32109 0.16351 -0.36200
O 	O 	0.68774 0.51294 0.15967 -0.35900
O 	O 	0.78676 0.47215 0.16774 -0.37800
O 	O 	0.86211 0.36716 0.15811 -0.37800
C 	C 	0.91851 0.24243 0.16907 -0.05400
H 	H 	0.94405 0.26667 0.15821 0.07700
O 	O 	0.02143 0.18875 0.17152 -0.27000
C 	C 	0.43344 0.18877 0.16771 -0.10500
C 	C 	0.29793 0.19150 0.17321 -0.05600
C 	C 	0.37667 0.22403 0.16526 0.18100
H 	H 	0.25688 0.22209 0.17184 0.07000
H 	H 	0.79627 0.69148 0.16085 0.07600
H 	H 	0.94085 0.86782 0.16936 0.15100
C 	C 	0.95553 0.20080 0.17741 0.17900
C 	C 	0.81399 0.68727 0.17205 -0.05600
O 	O 	0.88254 0.84679 0.17410 -0.27500
C 	C 	0.84774 0.25124 0.17456 -0.10000
C 	C 	0.40654 0.11532 0.17704 -0.04400
C 	C 	0.32699 0.08180 0.18485 0.16800
C 	C 	0.27409 0.12243 0.18336 -0.09200
H 	H 	0.44917 0.08687 0.17878 0.07000
H 	H 	0.26859 0.95802 0.18916 0.10800
C 	C 	0.79337 0.60402 0.17803 -0.10400
C 	C 	0.86111 0.76583 0.18025 0.17100
O 	O 	0.04384 0.14762 0.19952 -0.38000
O 	O 	0.14336 0.01973 0.19642 -0.35100
O 	O 	0.21431 0.16665 0.20324 -0.36500
C 	C 	0.20323 0.10317 0.19396 0.32200
C 	C 	0.94309 0.84395 0.20301 0.32500
C 	C 	0.95891 0.12223 0.20047 0.32800
C 	C 	0.92164 0.16736 0.19144 -0.09600
C 	C 	0.81361 0.21754 0.18851 0.17400
O 	O 	0.30461 0.01409 0.19475 -0.25000
C 	C 	0.88700 0.76148 0.19467 -0.10700
C 	C 	0.81817 0.59949 0.19251 0.17100
O 	O 	0.92294 0.90801 0.20347 -0.38200
C 	C 	0.85059 0.17607 0.19688 -0.05100
O 	O 	0.74673 0.22850 0.19426 -0.27200
H 	H 	0.69115 0.17328 0.19160 0.16400
C 	C 	0.86415 0.67795 0.20080 -0.05500
O 	O 	0.79511 0.51832 0.19874 -0.27000
H 	H 	0.84647 0.50924 0.19705 0.16200
O 	O 	0.06116 0.03878 0.22190 -0.69600
N 	N 	0.99687 0.33726 0.21741 -0.10900
Ni	Ni	0.11665 0.97109 0.21753 1.09800
Ni	Ni	0.11976 0.16257 0.21705 1.12200
O 	O 	0.01034 0.85042 0.21050 -0.38100
O 	O 	0.90589 0.05855 0.20959 -0.36700
H 	H 	0.82470 0.15176 0.20771 0.07400
H 	H 	0.88278 0.67392 0.21196 0.07500
C 	C 	0.96938 0.30501 0.22868 0.08300
O 	O 	0.04713 0.19627 0.23053 -0.37100
H 	H 	0.07024 0.04614 0.23253 0.16100
O 	O 	0.23729 0.07551 0.22495 -0.34600
O 	O 	0.20805 0.18413 0.23344 -0.35700
C 	C 	0.24080 0.12962 0.23550 0.28600
Ni	Ni	0.93600 0.97943 0.22189 1.10200
H 	H 	0.67230 0.92422 0.99869 0.04700
O 	O 	0.07944 0.91671 0.23815 -0.38100
C 	C 	0.99873 0.88771 0.24342 0.28600
C 	C 	0.97291 0.14286 0.23792 0.29300
O 	O 	0.94142 0.05511 0.23901 -0.36800
O 	O 	0.93276 0.88026 0.23494 -0.37700
H 	H 	0.38827 0.12042 0.24079 0.05500
C 	C 	0.93535 0.26533 0.24281 0.02400
C 	C 	0.27553 0.12375 0.25001 -0.07300
C 	C 	0.35180 0.11523 0.25070 0.01600
C 	C 	0.93296 0.18497 0.24713 -0.06800
N 	N 	0.65549 0.24666 0.25224 -0.10500
H 	H 	0.90655 0.36928 0.24903 0.05900
C 	C 	0.98689 0.76431 0.25928 0.02900
C 	C 	0.97572 0.72569 0.27310 -0.05900
N 	N 	0.08383 0.12588 0.26287 -0.10400
H 	H 	0.98074 0.66569 0.27441 0.05700
C 	C 	0.00435 0.72311 0.24690 0.07900
C 	C 	0.14686 0.11934 0.26274 0.08000
N 	N 	0.01828 0.69013 0.23699 -0.10900
C 	C 	0.22561 0.11142 0.26287 0.03000
C 	C 	0.38017 0.09824 0.26408 -0.03800
C 	C 	0.45422 0.08234 0.26434 0.10800
N 	N 	0.51302 0.06872 0.26461 -0.10200
C 	C 	0.97696 0.84025 0.25743 -0.07800
C 	C 	0.90307 0.30693 0.25223 -0.05400
C 	C 	0.89391 0.14565 0.26057 0.01300
C 	C 	0.69683 0.26884 0.26290 0.09900
C 	C 	0.33360 0.09229 0.27701 0.03800
C 	C 	0.25369 0.09340 0.27614 -0.05700
C 	C 	0.95657 0.87689 0.26949 0.00500
H 	H 	0.95111 0.93660 0.26816 0.03200
H 	H 	0.78314 0.62767 0.28667 0.05700
C 	C 	0.86053 0.18677 0.26984 -0.03500
C 	C 	0.86651 0.26867 0.26578 0.02400
C 	C 	0.83777 0.31632 0.27599 0.02200
C 	C 	0.74915 0.29742 0.27609 -0.03700
H 	H 	0.89093 0.08381 0.26394 0.05800
H 	H 	0.39550 0.24096 0.29298 0.05900
H 	H 	0.21645 0.08638 0.28604 0.06600
C 	C 	0.94358 0.83695 0.28328 -0.04000
C 	C 	0.89398 0.36639 0.28747 -0.05500
C 	C 	0.82073 0.14480 0.28358 0.10400
H 	H 	0.96393 0.38725 0.28699 0.05900
C 	C 	0.37807 0.10841 0.29143 0.01000
C 	C 	0.40514 0.19030 0.29838 -0.05000
C 	C 	0.35204 0.95302 0.29241 0.04600
N 	N 	0.32313 0.88217 0.28741 -0.10300
C 	C 	0.95014 0.75898 0.28500 0.02200
C 	C 	0.82011 0.63282 0.29654 -0.05800
C 	C 	0.68874 0.50133 0.30568 0.07600
C 	C 	0.92191 0.87523 0.29557 0.08800
N 	N 	0.61607 0.44601 0.30379 -0.11100
C 	C 	0.85866 0.38285 0.30009 0.02600
C 	C 	0.71272 0.30957 0.28901 0.01300
N 	N 	0.78884 0.11131 0.29459 -0.10200
H 	H 	0.64225 0.28617 0.28961 0.05100
C 	C 	0.38804 0.04143 0.29865 0.01100
C 	C 	0.90856 0.69980 0.29767 0.02300
N 	N 	0.90455 0.90589 0.30542 -0.11500
C 	C 	0.72516 0.31668 0.31611 0.28600
O 	O 	0.65017 0.31729 0.31882 -0.37000
C 	C 	0.43927 0.20552 0.31254 0.02900
C 	C 	0.45846 0.14254 0.31926 -0.07400
C 	C 	0.43127 0.06007 0.31227 0.00400
C 	C 	0.44881 0.28303 0.32030 0.05800
C 	C 	0.77933 0.57134 0.30778 0.02600
C 	C 	0.95746 0.70617 0.31034 -0.03900
C 	C 	0.76604 0.34451 0.30152 -0.07200
C 	C 	0.91720 0.43505 0.31181 0.07900
C 	C 	0.04948 0.77437 0.31158 0.09700
N 	N 	0.12321 0.82907 0.31256 -0.11500
N 	N 	0.45601 0.34505 0.32647 -0.11700
O 	O 	0.74878 0.26730 0.32401 -0.35100
H 	H 	0.44252 0.01004 0.31750 0.06300
C 	C 	0.82712 0.57812 0.32079 -0.07500
C 	C 	0.91646 0.64584 0.32189 0.01600
N 	N 	0.96439 0.47704 0.32117 -0.09400
N 	N 	0.10261 0.52057 0.34717 -0.09700
C 	C 	0.51257 0.16541 0.33288 0.30900
C 	C 	0.78349 0.51640 0.33328 0.29900
Ni	Ni	0.61746 0.35287 0.33835 1.12600
O 	O 	0.69853 0.48304 0.33511 -0.38100
O 	O 	0.57039 0.13771 0.33461 -0.35600
O 	O 	0.51733 0.22837 0.34125 -0.37600
H 	H 	0.95393 0.65187 0.33172 0.05500
Ni	Ni	0.69725 0.21326 0.34429 1.11600
O 	O 	0.83188 0.51109 0.34394 -0.36300
O 	O 	0.69101 0.31953 0.34866 -0.70600
C 	C 	0.06891 0.47502 0.35716 0.08600
C 	C 	0.88493 0.32429 0.35588 0.31900
Ni	Ni	0.78385 0.41369 0.35937 1.12100
O 	O 	0.82214 0.24368 0.35250 -0.36000
O 	O 	0.87856 0.39199 0.35134 -0.38000
O 	O 	0.57390 0.38490 0.35669 -0.35600
H 	H 	0.64652 0.29498 0.35638 0.14000
H 	H 	0.45515 0.39001 0.37168 0.05900
C 	C 	0.62189 0.41615 0.36882 0.28400
O 	O 	0.65992 0.17936 0.36604 -0.34800
O 	O 	0.70936 0.46169 0.36818 -0.37500
O 	O 	0.75823 0.32137 0.37591 -0.36300
C 	C 	0.57788 0.42041 0.38249 -0.06800
C 	C 	0.49183 0.40880 0.38188 0.01200
N 	N 	0.29175 0.39362 0.39317 -0.11200
C 	C 	0.02717 0.41838 0.36966 0.02700
C 	C 	0.94611 0.33727 0.36817 -0.08600
N 	N 	0.45468 0.18229 0.37319 -0.09700
C 	C 	0.68711 0.23880 0.37705 0.26900
C 	C 	0.06868 0.44376 0.38336 -0.05500
H 	H 	0.12860 0.50795 0.38464 0.05900
C 	C 	0.36366 0.40652 0.39370 0.09900
C 	C 	0.45348 0.42273 0.39437 -0.03600
C 	C 	0.62260 0.44007 0.39612 0.02400
C 	C 	0.91588 0.27641 0.37988 0.01900
H 	H 	0.85645 0.21179 0.37864 0.05300
C 	C 	0.55206 0.16114 0.39261 0.02500
C 	C 	0.64520 0.20722 0.39141 -0.06800
C 	C 	0.49813 0.17291 0.38181 0.07500
N 	N 	0.97654 0.56245 0.40293 -0.11100
C 	C 	0.50266 0.45187 0.40745 0.02200
C 	C 	0.70427 0.43843 0.39797 0.07600
N 	N 	0.49767 0.65448 0.39769 -0.10900
C 	C 	0.03141 0.38793 0.39552 0.02400
C 	C 	0.95834 0.30118 0.39351 -0.03900
N 	N 	0.61273 0.92612 0.40145 -0.11300
C 	C 	0.58608 0.45866 0.40828 -0.05600
C 	C 	0.48399 0.61107 0.40806 0.09600
N 	N 	0.76983 0.43763 0.39963 -0.10600
C 	C 	0.51124 0.10322 0.40437 -0.05100
C 	C 	0.69634 0.20734 0.40328 0.01300
C 	C 	0.57397 0.93218 0.41125 0.09600
H 	H 	0.43958 0.06298 0.40480 0.06000
H 	H 	0.76785 0.24787 0.40287 0.04900
C 	C 	0.01148 0.53021 0.40918 0.09300
C 	C 	0.06682 0.42224 0.41041 0.02400
C 	C 	0.05544 0.49026 0.41696 -0.03900
C 	C 	0.46797 0.47551 0.42046 0.02500
C 	C 	0.45274 0.42518 0.43326 -0.05900
C 	C 	0.46692 0.55692 0.42101 -0.04000
H 	H 	0.62250 0.47800 0.41852 0.05700
H 	H 	0.45369 0.36264 0.43284 0.05700
C 	C 	0.92721 0.23694 0.40528 0.09500
C 	C 	0.56277 0.09385 0.41524 0.01900
C 	C 	0.65533 0.15129 0.41528 -0.03300
H 	H 	0.11974 0.33341 0.41312 0.06400
C 	C 	0.11053 0.38533 0.41815 -0.05500
C 	C 	0.08827 0.52079 0.43108 0.01300
C 	C 	0.45242 0.58760 0.43432 0.01700
H 	H 	0.44892 0.64875 0.43460 0.04500
N 	N 	0.90257 0.18534 0.41470 -0.10400
C 	C 	0.52562 0.93984 0.42349 -0.06100
C 	C 	0.52032 0.01832 0.42563 0.04400
C 	C 	0.48339 0.86831 0.43326 0.01900
C 	C 	0.70824 0.15257 0.42754 0.10100
H 	H 	0.48920 0.80888 0.43181 0.03800
C 	C 	0.13946 0.41239 0.43251 0.02900
H 	H 	0.08149 0.57481 0.43585 0.04600
C 	C 	0.13145 0.48329 0.43894 -0.07800
C 	C 	0.44500 0.45900 0.44674 0.03100
C 	C 	0.44383 0.54061 0.44731 -0.08200
C 	C 	0.47060 0.02311 0.43728 -0.04400
C 	C 	0.44540 0.41314 0.45994 0.08400
C 	C 	0.43486 0.87369 0.44505 -0.08300
N 	N 	0.75038 0.15349 0.43741 -0.10400
H 	H 	0.46524 0.08280 0.43877 0.05600
C 	C 	0.00065 0.57815 0.65494 0.01700
O 	O 	0.99041 0.11771 0.83128 -0.34100
O 	O 	0.00869 0.28876 0.83064 -0.29400
C 	C 	0.00234 0.43782 0.65421 -0.01000
N 	N 	0.01988 0.95574 0.73320 -0.10400
C 	C 	0.96831 0.81707 0.76533 0.10900
C 	C 	0.00112 0.64932 0.66337 0.09300
C 	C 	0.06005 0.56577 0.60672 0.08100
N 	N 	0.00119 0.70621 0.67014 -0.10000
H 	H 	0.03512 0.31565 0.82105 0.15300
C 	C 	0.02443 0.51854 0.66144 -0.07400
H 	H 	0.01489 0.38863 0.65943 0.03400
C 	C 	0.98115 0.27361 0.70074 0.10400
C 	C 	0.03689 0.01629 0.74072 0.08600
H 	H 	0.04953 0.01974 0.76976 0.03300
C 	C 	0.04109 0.87016 0.79483 0.26500
C 	C 	0.02124 0.20719 0.72108 -0.06800
C 	C 	0.03701 0.79991 0.77045 -0.00200
O 	O 	0.03791 0.16400 0.79961 -0.36900
C 	C 	0.03901 0.89079 0.83511 0.30300
C 	C 	0.05464 0.45809 0.51738 -0.06300
N 	N 	0.04907 0.41367 0.73044 -0.10800
H 	H 	0.05808 0.56616 0.75640 0.05600
C 	C 	0.04504 0.48621 0.50348 -0.09700
C 	C 	0.05827 0.09204 0.75007 -0.03800
C 	C 	0.06174 0.08305 0.76521 0.00800
C 	C 	0.07192 0.82417 0.78475 -0.06000
C 	C 	0.04210 0.25050 0.70752 0.02500
H 	H 	0.04309 0.74079 0.75002 0.05400
C 	C 	0.06820 0.75725 0.76111 -0.04600
O 	O 	0.07057 0.97722 0.83380 -0.38600
C 	C 	0.07932 0.30956 0.83968 0.17200
H 	H 	0.08754 0.43210 0.84720 0.06600
C 	C 	0.07654 0.16813 0.83216 0.30200
C 	C 	0.07906 0.15465 0.77458 -0.08400
C 	C 	0.08442 0.14321 0.79042 0.28600
C 	C 	0.17315 0.36399 0.44074 0.08300
N 	N 	0.20017 0.32514 0.44730 -0.10900
N 	N 	0.13402 0.61984 0.60769 -0.11200
C 	C 	0.07587 0.17470 0.74412 0.02000
C 	C 	0.08250 0.18930 0.72812 0.03100
C 	C 	0.09279 0.48699 0.73425 0.07900
Ni	Ni	0.09645 0.03366 0.81404 1.11600
O 	O 	0.09872 0.92724 0.80459 -0.37700
C 	C 	0.13482 0.80139 0.78965 0.00500
C 	C 	0.08989 0.85866 0.84356 -0.08900
C 	C 	0.08564 0.54560 0.67421 0.30600
H 	H 	0.11792 0.46582 0.52071 0.06700
C 	C 	0.09249 0.24618 0.75347 -0.05900
C 	C 	0.09393 0.23657 0.76865 0.02700
H 	H 	0.15973 0.81711 0.80076 0.05200
C 	C 	0.12013 0.61013 0.75094 -0.06000
C 	C 	0.11451 0.25155 0.84081 -0.09500
C 	C 	0.13254 0.73669 0.76592 0.01600
O 	O 	0.12798 0.10286 0.79511 -0.37200
O 	O 	0.10786 0.48833 0.67895 -0.38300
H 	H 	0.10637 0.30994 0.74888 0.06000
O 	O 	0.12862 0.15378 0.82350 -0.37000
C 	C 	0.11431 0.31217 0.77798 0.08000
C 	C 	0.16444 0.75698 0.78037 -0.03300
C 	C 	0.12227 0.53105 0.49375 0.30400
C 	C 	0.14723 0.57853 0.73901 0.03000
O 	O 	0.15061 0.57384 0.46062 -0.36400
C 	C 	0.12609 0.27937 0.70138 -0.08300
O 	O 	0.14143 0.63100 0.67644 -0.35100
N 	N 	0.13063 0.37274 0.78546 -0.10600
C 	C 	0.17397 0.52298 0.45328 0.30600
C 	C 	0.17052 0.69974 0.75537 0.02700
O 	O 	0.14536 0.48042 0.48588 -0.37200
C 	C 	0.15829 0.20198 0.72042 -0.04000
O 	O 	0.15184 0.61652 0.49052 -0.35600
C 	C 	0.22751 0.73234 0.78576 0.09500
N 	N 	0.19873 0.82398 0.65742 -0.10300
C 	C 	0.18275 0.90413 0.84255 -0.06000
C 	C 	0.17264 0.36775 0.69460 0.31600
C 	C 	0.17753 0.24376 0.70674 0.01500
O 	O 	0.95247 0.50339 0.48564 -0.27700
H 	H 	0.93303 0.45039 0.47922 0.16000
C 	C 	0.96266 0.47605 0.49923 0.17900
H 	H 	0.96117 0.19442 0.72669 0.07800
C 	C 	0.53593 0.12276 0.53428 0.30200
C 	C 	0.80607 0.35864 0.57577 0.30100
C 	C 	0.54728 0.11634 0.57440 0.31400
C 	C 	0.82590 0.37674 0.53340 0.30500
C 	C 	0.60420 0.39036 0.57935 0.30800
C 	C 	0.56159 0.40167 0.53772 0.31200
Ni	Ni	0.69819 0.21985 0.55345 1.11600
Ni	Ni	0.72280 0.42072 0.55448 1.12300
Ni	Ni	0.52929 0.24988 0.55694 1.12400
O 	O 	0.62343 0.15610 0.53494 -0.35300
O 	O 	0.49138 0.13539 0.54505 -0.36600
O 	O 	0.68598 0.43515 0.57457 -0.38800
O 	O 	0.75950 0.27189 0.57350 -0.36200
O 	O 	0.82258 0.41425 0.56485 -0.37700
O 	O 	0.51495 0.31364 0.53973 -0.38000
O 	O 	0.59771 0.11038 0.56434 -0.36800
O 	O 	0.53591 0.18617 0.57507 -0.37600
O 	O 	0.63752 0.45471 0.54479 -0.37200
O 	O 	0.81396 0.30965 0.54214 -0.34900
O 	O 	0.78263 0.42160 0.53540 -0.37400
O 	O 	0.53859 0.34842 0.57005 -0.38100
O 	O 	0.64925 0.29552 0.55188 -0.72300
H 	H 	0.64345 0.29620 0.54117 0.16000
C 	C 	0.39935 0.80221 0.45605 0.31000
C 	C 	0.37096 0.82151 0.49608 0.30800
C 	C 	0.42949 0.57535 0.46123 0.31200
C 	C 	0.40557 0.56251 0.50204 0.31400
Ni	Ni	0.23956 0.68216 0.47356 1.11600
Ni	Ni	0.43535 0.71285 0.48084 1.12400
Ni	Ni	0.27117 0.51456 0.47911 1.12300
O 	O 	0.46025 0.66175 0.46286 -0.38700
O 	O 	0.31660 0.73842 0.45509 -0.37500
O 	O 	0.44403 0.81411 0.46819 -0.37900
O 	O 	0.31893 0.51843 0.49928 -0.38100
O 	O 	0.24042 0.51399 0.45779 -0.38300
O 	O 	0.46199 0.63649 0.49474 -0.37400
O 	O 	0.31235 0.80344 0.48529 -0.35200
O 	O 	0.41722 0.77936 0.49742 -0.37500
O 	O 	0.38170 0.51945 0.47156 -0.38400
O 	O 	0.31017 0.63778 0.48120 -0.72300
H 	H 	0.29872 0.63906 0.49173 0.16500
C 	C 	0.28395 0.66946 0.65362 0.29200
C 	C 	0.37906 0.48646 0.66953 0.29300
Ni	Ni	0.21198 0.48903 0.66940 1.12200
O 	O 	0.31652 0.48561 0.66112 -0.38000
O 	O 	0.31580 0.72001 0.66552 -0.35900
O 	O 	0.22232 0.58276 0.65429 -0.37100
N 	N 	0.44581 0.37641 0.47051 -0.10200
C 	C 	0.42743 0.95114 0.44694 0.01300
C 	C 	0.37471 0.95691 0.45864 0.07300
N 	N 	0.33248 0.96196 0.46797 -0.10700
C 	C 	0.64344 0.47893 0.61819 -0.04000
C 	C 	0.55828 0.43071 0.62432 0.02400
C 	C 	0.48848 0.36516 0.61596 -0.05500
C 	C 	0.50244 0.34874 0.60147 0.02900
C 	C 	0.58620 0.40319 0.59484 -0.07500
C 	C 	0.65633 0.46750 0.60344 0.01100
C 	C 	0.53894 0.45610 0.63879 0.02400
C 	C 	0.54574 0.54030 0.64048 -0.05400
C 	C 	0.50582 0.55701 0.65240 0.03000
C 	C 	0.45485 0.48762 0.66230 -0.07600
C 	C 	0.45974 0.40871 0.66187 0.01600
C 	C 	0.50213 0.39280 0.65016 -0.03900
C 	C 	0.51167 0.64343 0.65383 0.07800
C 	C 	0.50564 0.31075 0.64969 0.09500
C 	C 	0.71830 0.53969 0.62702 0.09100
C 	C 	0.43185 0.27352 0.59385 0.08500
N 	N 	0.51624 0.71258 0.65498 -0.10000
N 	N 	0.50849 0.24501 0.64930 -0.10900
N 	N 	0.37512 0.21314 0.58781 -0.11000
N 	N 	0.77816 0.58837 0.63411 -0.11100
H 	H 	0.72167 0.50757 0.59872 0.05000
H 	H 	0.42300 0.32706 0.62074 0.05900
H 	H 	0.57757 0.59084 0.63208 0.06100
H 	H 	0.42447 0.35685 0.66995 0.04600
C 	C 	0.96771 0.49829 0.60555 -0.02900
C 	C 	0.91389 0.46744 0.61812 0.02400
C 	C 	0.82392 0.40455 0.61665 -0.05700
C 	C 	0.78903 0.36492 0.60311 0.02600
C 	C 	0.84307 0.39402 0.59047 -0.07500
C 	C 	0.93184 0.46228 0.59178 0.01000
C 	C 	0.95390 0.48611 0.63292 0.01800
C 	C 	0.96787 0.56288 0.64055 -0.03700
C 	C 	0.96994 0.42273 0.63992 -0.02100
C 	C 	0.95478 0.34248 0.63238 0.09100
C 	C 	0.69854 0.29313 0.60251 0.08100
N 	N 	0.94260 0.27826 0.62633 -0.10600
N 	N 	0.62579 0.23572 0.60242 -0.10200
H 	H 	0.97339 0.48619 0.58213 0.04900
H 	H 	0.78224 0.38182 0.62631 0.06000
H 	H 	0.95190 0.60982 0.63540 0.06300
C 	C 	0.50522 0.95025 0.60437 -0.03700
C 	C 	0.41250 0.89401 0.60340 0.02500
C 	C 	0.36440 0.91137 0.59286 -0.05600
C 	C 	0.40738 0.98552 0.58360 0.02600
C 	C 	0.49994 0.04174 0.58462 -0.07600
C 	C 	0.54847 0.02249 0.59478 0.01800
C 	C 	0.36404 0.82549 0.61472 0.02500
C 	C 	0.31699 0.84275 0.62543 -0.05500
C 	C 	0.28438 0.78789 0.63773 0.03100
C 	C 	0.30009 0.71540 0.63948 -0.06900
C 	C 	0.33973 0.69308 0.62811 0.01500
C 	C 	0.37099 0.74732 0.61565 -0.03400
C 	C 	0.23662 0.80766 0.64866 0.08200
C 	C 	0.41106 0.72317 0.60398 0.09700
C 	C 	0.55600 0.93578 0.61545 0.10000
C 	C 	0.35604 0.00341 0.57310 0.07800
N 	N 	0.44323 0.70389 0.59463 -0.10900
N 	N 	0.31483 0.01772 0.56470 -0.10700
N 	N 	0.59659 0.92412 0.62434 -0.10400
H 	H 	0.61991 0.06470 0.59535 0.04800
H 	H 	0.29308 0.86856 0.59217 0.05800
H 	H 	0.30879 0.90106 0.62445 0.05900
H 	H 	0.34922 0.63563 0.62922 0.04400
C 	C 	0.44361 0.51935 0.51119 -0.09700
C 	C 	0.52063 0.51944 0.50648 -0.05400
C 	C 	0.56045 0.48274 0.51525 0.17200
C 	C 	0.52230 0.44363 0.52871 -0.09700
C 	C 	0.44471 0.44228 0.53339 -0.05300
C 	C 	0.40523 0.47995 0.52468 0.17100
H 	H 	0.54953 0.54779 0.49596 0.07500
O 	O 	0.63461 0.48187 0.51036 -0.28000
H 	H 	0.41524 0.41241 0.54380 0.06900
O 	O 	0.33172 0.48171 0.52968 -0.27800
H 	H 	0.28048 0.42463 0.52631 0.15800
H 	H 	0.68538 0.53855 0.51397 0.15700
C 	C 	0.48480 0.04979 0.52382 -0.08600
C 	C 	0.41372 0.96878 0.52886 -0.06400
C 	C 	0.37141 0.89512 0.51947 0.17300
C 	C 	0.39898 0.90243 0.50487 -0.09200
C 	C 	0.46614 0.98496 0.49958 -0.06400
C 	C 	0.50901 0.05863 0.50899 0.18000
H 	H 	0.39379 0.96168 0.54022 0.07800
O 	O 	0.30370 0.81566 0.52463 -0.28100
H 	H 	0.48783 0.99089 0.48833 0.07300
O 	O 	0.57655 0.13807 0.50380 -0.27600
H 	H 	0.54769 0.17227 0.50048 0.15800
H 	H 	0.33269 0.78275 0.52851 0.15700
C 	C 	0.90102 0.41292 0.52303 -0.09200
C 	C 	0.89123 0.43995 0.50902 -0.05900
C 	C 	0.98361 0.42282 0.52724 0.17500
H 	H 	0.82822 0.43288 0.50569 0.07600
O 	O 	0.99531 0.39897 0.54102 -0.26600
H 	H 	0.01533 0.45350 0.54709 0.15000
Ni	Ni	0.26611 0.67635 0.68628 1.11600
O 	O 	0.18186 0.37533 0.68034 -0.38100
O 	O 	0.36702 0.47077 0.68385 -0.37800
O 	O 	0.28848 0.58164 0.68241 -0.71400
H 	H 	0.34151 0.61233 0.67619 0.16800
C 	C 	0.63122 0.74227 0.69784 0.09000
N 	N 	0.65452 0.71698 0.68799 -0.09800
C 	C 	0.45537 0.73355 0.69872 0.29700
Ni	Ni	0.33243 0.54090 0.69783 1.12200
O 	O 	0.39058 0.75357 0.69683 -0.35900
O 	O 	0.44592 0.65584 0.69445 -0.37700
O 	O 	0.20222 0.62110 0.70581 -0.36700
O 	O 	0.21476 0.43746 0.70310 -0.38800
C 	C 	0.60211 0.77381 0.71013 0.02600
C 	C 	0.52991 0.78947 0.70876 -0.07300
N 	N 	0.93239 0.29225 0.69530 -0.09800
H 	H 	0.23931 0.26009 0.70135 0.04100
C 	C 	0.24442 0.61337 0.71706 0.31100
O 	O 	0.31535 0.60583 0.71514 -0.37900
C 	C 	0.62926 0.83463 0.73477 0.02300
C 	C 	0.64837 0.79236 0.72337 -0.05500
C 	C 	0.51903 0.84236 0.71937 0.01200
H 	H 	0.70008 0.77512 0.72475 0.06200
H 	H 	0.47038 0.86345 0.71773 0.04800
C 	C 	0.22056 0.18002 0.72703 0.09600
N 	N 	0.27045 0.16244 0.73233 -0.10900
C 	C 	0.22621 0.63671 0.73159 -0.08400
C 	C 	0.28039 0.72375 0.73688 0.01600
H 	H 	0.34157 0.76810 0.73130 0.03900
C 	C 	0.76774 0.91948 0.74973 -0.03800
C 	C 	0.67812 0.85262 0.74882 0.02500
C 	C 	0.63406 0.80400 0.76137 -0.05400
C 	C 	0.56768 0.86418 0.73244 -0.03800
C 	C 	0.81461 0.96954 0.73693 0.10800
N 	N 	0.85164 0.00906 0.72659 -0.11600
H 	H 	0.56497 0.75237 0.76065 0.05800
C 	C 	0.25226 0.75617 0.74852 -0.04000
C 	C 	0.30490 0.84892 0.75280 0.09900
N 	N 	0.91288 0.83015 0.76120 -0.11100
N 	N 	0.34677 0.92322 0.75624 -0.10300
C 	C 	0.55476 0.91749 0.74331 0.09600
C 	C 	0.67789 0.82385 0.77491 0.02800
C 	C 	0.76786 0.89163 0.77584 -0.07000
C 	C 	0.81175 0.93883 0.76318 0.01800
C 	C 	0.62851 0.77821 0.78784 0.08900
N 	N 	0.54472 0.96031 0.75204 -0.10300
N 	N 	0.58874 0.74163 0.79818 -0.10700
H 	H 	0.87975 0.99239 0.76389 0.04800
C 	C 	0.81367 0.92337 0.79009 0.29200
O 	O 	0.95423 0.83724 0.79627 -0.36200
O 	O 	0.85502 0.01064 0.79271 -0.36800
O 	O 	0.80154 0.86464 0.80064 -0.36700
H 	H 	0.97700 0.98572 0.79869 0.15700
N 	N 	0.27806 0.71261 0.79007 -0.10600
Ni	Ni	0.92842 0.06713 0.81143 1.11900
Ni	Ni	0.90015 0.86574 0.81335 1.12500
O 	O 	0.80909 0.98654 0.82242 -0.35800
O 	O 	0.97481 0.98937 0.80940 -0.70400
H 	H 	0.66307 0.71568 0.82493 0.15600
C 	C 	0.79611 0.92066 0.83122 0.32300
O 	O 	0.97490 0.83417 0.82642 -0.35200
O 	O 	0.85303 0.89203 0.83171 -0.36200
H 	H 	0.21691 0.96462 0.83608 0.05900
O 	O 	0.32226 0.91473 0.84820 -0.28200
C 	C 	0.71539 0.87638 0.84025 -0.09700
C 	C 	0.66906 0.78247 0.84178 0.17800
O 	O 	0.69600 0.73095 0.83431 -0.28700
C 	C 	0.04609 0.77864 0.85160 0.14700
H 	H 	0.06109 0.68477 0.86512 0.05200
C 	C 	0.11618 0.38882 0.84788 -0.05200
C 	C 	0.09516 0.74517 0.85863 -0.04100
O 	O 	0.16683 0.49757 0.87554 -0.37000
C 	C 	0.18875 0.27554 0.84969 -0.05500
C 	C 	0.18965 0.41225 0.85693 -0.10200
C 	C 	0.18799 0.79074 0.85764 -0.10800
O 	O 	0.17719 0.70954 0.89676 -0.37700
Ni	Ni	0.18916 0.61147 0.88616 1.12200
O 	O 	0.95571 0.73515 0.85315 -0.25100
C 	C 	0.22248 0.49143 0.86651 0.32700
C 	C 	0.49133 0.74864 0.86887 0.32600
C 	C 	0.23893 0.75961 0.86627 0.33200
O 	O 	0.21112 0.67354 0.86690 -0.39100
O 	O 	0.30798 0.54555 0.86777 -0.37100
O 	O 	0.48415 0.68446 0.87756 -0.36300
O 	O 	0.43181 0.77416 0.86909 -0.37500
O 	O 	0.29894 0.81553 0.87558 -0.37400
C 	C 	0.23178 0.87077 0.84961 0.18200
H 	H 	0.93235 0.68978 0.84522 0.16100
H 	H 	0.34501 0.95958 0.85620 0.16000
C 	C 	0.22649 0.35552 0.85772 0.17700
H 	H 	0.21665 0.23167 0.85052 0.07000
O 	O 	0.29615 0.37557 0.86695 -0.28600
H 	H 	0.35007 0.40940 0.86090 0.15300
C 	C 	0.68609 0.92783 0.84778 -0.05000
C 	C 	0.61243 0.88654 0.85705 0.17800
C 	C 	0.56744 0.79278 0.85885 -0.09900
C 	C 	0.59604 0.74131 0.85115 -0.05000
H 	H 	0.72158 0.00007 0.84672 0.07600
O 	O 	0.58759 0.93829 0.86495 -0.28400
H 	H 	0.56128 0.66914 0.85235 0.07100
H 	H 	0.54598 0.94619 0.85854 0.15900
Ni	Ni	0.36661 0.59308 0.88797 1.11700
Ni	Ni	0.37922 0.78801 0.88794 1.12400
O 	O 	0.31167 0.66248 0.89079 -0.71400
C 	C 	0.19625 0.90646 0.89765 0.08300
N 	N 	0.20729 0.93073 0.88565 -0.10400
N 	N 	0.18357 0.27709 0.91252 -0.09900
O 	O 	0.16122 0.53605 0.90440 -0.37000
C 	C 	0.19692 0.33601 0.92019 0.08400
H 	H 	0.14458 0.97279 0.91948 0.05700
C 	C 	0.15477 0.91816 0.92287 -0.06100
O 	O 	0.26002 0.48702 0.89890 -0.35300
H 	H 	0.30842 0.66223 0.90152 0.15000
O 	O 	0.43631 0.64781 0.90714 -0.36300
C 	C 	0.47372 0.73439 0.91024 0.28500
C 	C 	0.20979 0.49982 0.90848 0.28700
C 	C 	0.23222 0.76617 0.90682 0.29000
O 	O 	0.48158 0.79381 0.90013 -0.36100
O 	O 	0.31975 0.80400 0.90559 -0.37900
C 	C 	0.65739 0.88223 0.91216 0.09100
N 	N 	0.69544 0.91961 0.90174 -0.09400
C 	C 	0.18237 0.87642 0.91266 0.02900
C 	C 	0.19710 0.80637 0.91712 -0.07500
C 	C 	0.60993 0.83553 0.92516 0.02700
C 	C 	0.52069 0.76585 0.92439 -0.07100
C 	C 	0.21962 0.48871 0.92419 -0.08300
C 	C 	0.14086 0.89018 0.93747 0.02700
C 	C 	0.15322 0.81856 0.94186 -0.04200
C 	C 	0.21359 0.40956 0.92977 0.02800
C 	C 	0.18174 0.77742 0.93168 0.01300
H 	H 	0.19234 0.72323 0.93511 0.03700
N 	N 	0.90261 0.79404 0.93359 -0.10900
C 	C 	0.47847 0.71831 0.93711 0.01100
H 	H 	0.41141 0.66314 0.93648 0.04200
C 	C 	0.23380 0.55826 0.93376 0.01000
H 	H 	0.24151 0.62029 0.92941 0.03100
C 	C 	0.95741 0.84661 0.94108 0.11500
C 	C 	0.65473 0.85693 0.93863 -0.05500
H 	H 	0.72322 0.91013 0.93923 0.05700
C 	C 	0.02577 0.91221 0.95045 -0.03900
C 	C 	0.11547 0.93767 0.94823 -0.00000
C 	C 	0.13648 0.78681 0.95676 0.09600
C 	C 	0.18107 0.00487 0.95698 -0.02700
H 	H 	0.21154 0.33793 0.94921 0.05800
C 	C 	0.21985 0.40028 0.94486 -0.05700
C 	C 	0.52341 0.73918 0.95048 -0.03600
C 	C 	0.61201 0.80876 0.95128 0.02400
C 	C 	0.24104 0.54953 0.94880 -0.04200
H 	H 	0.25038 0.02732 0.95487 0.05700
C 	C 	0.23269 0.46955 0.95447 0.02300
C 	C 	0.00220 0.94871 0.96213 -0.04200
C 	C 	0.06702 0.00795 0.97192 -0.04000
H 	H 	0.10771 0.46756 0.97210 0.05900
N 	N 	0.12300 0.76144 0.96870 -0.11000
C 	C 	0.15731 0.04066 0.96874 0.01100
C 	C 	0.22309 0.45203 0.97042 0.02800
H 	H 	0.73341 0.76324 0.95930 0.06100
H 	H 	0.93309 0.92789 0.96399 0.06500
C 	C 	0.66112 0.83018 0.96534 0.02100
C 	C 	0.72201 0.80059 0.96777 -0.05600
C 	C 	0.47825 0.68891 0.96337 0.10000
N 	N 	0.44261 0.64943 0.97379 -0.10800
C 	C 	0.25747 0.62320 0.95833 0.09100
C 	C 	0.35913 0.43922 0.97126 0.10300
N 	N 	0.27062 0.68226 0.96595 -0.10700
N 	N 	0.42348 0.44857 0.96591 -0.10700
C 	C 	0.03984 0.02387 0.98635 0.28000
C 	C 	0.14893 0.44561 0.97758 -0.06000
C 	C 	0.22572 0.11201 0.97733 0.09400
C 	C 	0.76791 0.81850 0.98107 0.02200
C 	C 	0.82559 0.78176 0.98354 0.08800
N 	N 	0.87182 0.75225 0.98545 -0.10000
O 	O 	0.97074 0.03541 0.98732 -0.35400
C 	C 	0.64233 0.87383 0.97667 -0.03600
C 	C 	0.57956 0.90467 0.97448 0.09300
N 	N 	0.52924 0.92929 0.97271 -0.11000
C 	C 	0.27875 0.42748 0.97792 -0.03800
N 	N 	0.28041 0.16923 0.98422 -0.10100
C 	C 	0.04030 0.38785 0.99741 0.05500
O 	O 	0.07698 0.20601 0.99750 -0.40000
O 	O 	0.07307 0.00786 0.99809 -0.35200
C 	C 	0.12238 0.40231 0.99106 0.03800
C 	C 	0.16981 0.36390 0.99736 -0.08400
C 	C 	0.75500 0.86965 0.99197 -0.06600
C 	C 	0.68651 0.88979 0.99007 0.00400
C 	C 	0.25293 0.38593 0.99160 0.02100
H 	H 	0.29218 0.36081 0.99687 0.05000
