data_crystal

_cell_length_a 48.25981
_cell_length_b 44.75939
_cell_length_c 48.15303
_cell_angle_alpha 89.95768
_cell_angle_beta  89.95759
_cell_angle_gamma 90.50827

_symmetry_space_group_name_	'P 1'
_symmetry_space_group_name_H-M	'P 1'

loop_
_symmetry_equiv_pos_as_xyz
  x,y,z

loop_
_atom_site_label
_atom_site_type_symbol
_atom_site_fract_x
_atom_site_fract_y
_atom_site_fract_z
_atom_site_charge
Zn	Zn	0.49190 0.48390 0.95820 1.22100
C 	C 	0.53258 0.44010 0.97374 0.31200
O 	O 	0.51083 0.50579 0.92827 -0.47100
O 	O 	0.52099 0.42344 0.95440 -0.45100
O 	O 	0.54147 0.47015 0.91598 -0.49200
C 	C 	0.45855 0.43421 0.94126 0.32200
O 	O 	0.46788 0.44917 0.96278 -0.45100
O 	O 	0.47161 0.43592 0.91736 -0.50400
C 	C 	0.53591 0.49830 0.92070 0.31400
O 	O 	0.45134 0.51120 0.94938 -0.32700
Zn	Zn	0.51188 0.44028 0.91567 1.16900
O 	O 	0.52464 0.46791 0.97727 -0.43400
C 	C 	0.45751 0.52564 0.97193 0.27300
O 	O 	0.47992 0.51725 0.98438 -0.38100
Zn	Zn	0.26151 0.20355 0.01947 1.22000
C 	C 	0.28057 0.20170 0.07646 0.32600
O 	O 	0.22132 0.19563 0.02047 -0.46400
O 	O 	0.27330 0.22983 0.07887 -0.44800
O 	O 	0.21578 0.20964 0.06547 -0.49100
C 	C 	0.27867 0.26489 0.02095 0.32300
O 	O 	0.28731 0.23721 0.02017 -0.45400
O 	O 	0.25448 0.27106 0.03189 -0.50500
C 	C 	0.20784 0.19356 0.04410 0.31100
O 	O 	0.25925 0.21025 0.97071 -0.32600
Zn	Zn	0.23779 0.24586 0.06051 1.17000
O 	O 	0.27178 0.18569 0.05527 -0.43900
C 	C 	0.27113 0.18437 0.96950 0.28600
O 	O 	0.27635 0.17201 0.99321 -0.38300
C 	C 	0.50433 0.96382 0.36439 0.14500
C 	C 	0.52073 0.94258 0.35087 -0.10900
H 	H 	0.53292 0.92707 0.36297 0.07500
C 	C 	0.52119 0.94128 0.32175 0.06400
C 	C 	0.50534 0.96142 0.30623 -0.09300
C 	C 	0.48887 0.98262 0.31970 0.06400
C 	C 	0.48841 0.98379 0.34880 -0.11000
H 	H 	0.47562 0.00004 0.35932 0.07500
N 	N 	0.50360 0.96497 0.39421 -0.18200
C 	C 	0.52115 0.98411 0.40800 0.19800
C 	C 	0.51948 0.98702 0.43708 -0.08000
C 	C 	0.50042 0.96928 0.45194 0.06200
C 	C 	0.48224 0.95021 0.43744 -0.07900
C 	C 	0.48448 0.94796 0.40835 0.19900
C 	C 	0.53556 0.00840 0.45120 0.01200
C 	C 	0.53324 0.01158 0.47993 -0.05600
C 	C 	0.51655 0.99159 0.49558 0.01700
C 	C 	0.49891 0.97134 0.48129 -0.02800
C 	C 	0.47889 0.95419 0.49595 0.01700
C 	C 	0.46126 0.93487 0.45193 0.01200
C 	C 	0.45884 0.93784 0.48066 -0.05600
C 	C 	0.51603 0.99246 0.52514 0.01700
C 	C 	0.49598 0.97534 0.53978 -0.02800
C 	C 	0.47844 0.95500 0.52550 0.01700
O 	O 	0.46798 0.92957 0.39461 -0.19900
O 	O 	0.53955 0.99998 0.39394 -0.20000
H 	H 	0.44606 0.92149 0.44086 0.04600
H 	H 	0.44054 0.92876 0.49058 0.04800
H 	H 	0.54913 0.02347 0.43986 0.04600
H 	H 	0.54323 0.03060 0.48954 0.04800
C 	C 	0.46185 0.93492 0.54116 -0.05600
C 	C 	0.45942 0.93818 0.56986 0.01200
C 	C 	0.47527 0.95978 0.58396 -0.07900
C 	C 	0.49431 0.97755 0.56910 0.06200
C 	C 	0.53598 0.00892 0.54047 -0.05600
C 	C 	0.53335 0.01211 0.56916 0.01200
C 	C 	0.51228 0.99685 0.58360 -0.08000
C 	C 	0.47335 0.96294 0.61299 0.19800
N 	N 	0.49050 0.98254 0.62674 -0.18200
C 	C 	0.50972 0.99946 0.61264 0.19800
C 	C 	0.48908 0.98445 0.65651 0.14500
C 	C 	0.47018 0.00381 0.66917 -0.10800
C 	C 	0.46833 0.00516 0.69824 0.06400
C 	C 	0.48562 0.98720 0.71456 -0.09300
C 	C 	0.50481 0.96815 0.70195 0.06400
C 	C 	0.50640 0.96671 0.67291 -0.10900
O 	O 	0.45506 0.94692 0.62705 -0.19900
O 	O 	0.52588 0.01821 0.62634 -0.20000
H 	H 	0.45699 0.01768 0.65641 0.07400
H 	H 	0.52099 0.95180 0.66305 0.07400
H 	H 	0.45201 0.91579 0.53155 0.04800
H 	H 	0.44591 0.92305 0.58122 0.04600
H 	H 	0.55435 0.01792 0.53062 0.04800
H 	H 	0.54845 0.02560 0.58025 0.04500
H 	H 	0.48419 0.98810 0.73702 0.06200
H 	H 	0.50590 0.96067 0.28372 0.06300
Zn	Zn	0.71993 0.73489 0.00732 1.22100
C 	C 	0.71338 0.72389 0.06571 0.32400
O 	O 	0.74883 0.76047 0.02374 -0.44600
O 	O 	0.73942 0.71556 0.06698 -0.44900
O 	O 	0.78155 0.72430 0.02125 -0.50500
C 	C 	0.71333 0.67139 0.00108 0.31500
O 	O 	0.71619 0.69686 0.98783 -0.46800
O 	O 	0.72633 0.66708 0.02464 -0.48900
C 	C 	0.77491 0.75248 0.02436 0.32100
O 	O 	0.72844 0.75685 0.96341 -0.32400
Zn	Zn	0.75786 0.69197 0.03518 1.17000
O 	O 	0.70040 0.72413 0.04171 -0.44300
C 	C 	0.70516 0.77050 0.96746 0.28600
O 	O 	0.69279 0.76445 0.99069 -0.38300
Zn	Zn	0.26344 0.77270 0.98436 1.22300
C 	C 	0.25755 0.77674 0.04384 0.32600
O 	O 	0.26650 0.81347 0.97030 -0.47500
O 	O 	0.28450 0.78108 0.04575 -0.44700
O 	O 	0.27820 0.83567 0.01074 -0.48600
C 	C 	0.31495 0.74567 0.99617 0.32200
O 	O 	0.28802 0.74202 0.99740 -0.45700
O 	O 	0.32596 0.77255 0.99835 -0.49900
C 	C 	0.26386 0.83579 0.98760 0.31400
O 	O 	0.27101 0.75414 0.93902 -0.32700
Zn	Zn	0.30667 0.80554 0.01678 1.17000
O 	O 	0.24488 0.78041 0.01991 -0.44000
C 	C 	0.24475 0.74758 0.93948 0.28500
O 	O 	0.23178 0.75445 0.96210 -0.38500
C 	C 	0.01559 0.54431 0.62989 0.14600
C 	C 	0.03412 0.56170 0.64556 -0.11000
H 	H 	0.04907 0.57601 0.63510 0.07500
C 	C 	0.03341 0.56049 0.67465 0.06500
C 	C 	0.01401 0.54192 0.68802 -0.09400
C 	C 	0.99531 0.52464 0.67241 0.06500
C 	C 	0.99616 0.52582 0.64332 -0.11000
H 	H 	0.98185 0.51241 0.63114 0.07500
N 	N 	0.01677 0.54512 0.60008 -0.18200
C 	C 	0.03487 0.52686 0.58636 0.19800
C 	C 	0.03673 0.52777 0.55719 -0.08000
C 	C 	0.01922 0.54681 0.54222 0.06200
C 	C 	0.00150 0.56612 0.55666 -0.07900
C 	C 	0.00029 0.56468 0.58585 0.19900
C 	C 	0.05663 0.51095 0.54299 0.01200
C 	C 	0.05846 0.51230 0.51410 -0.05700
C 	C 	0.03878 0.52849 0.49853 0.01700
C 	C 	0.02001 0.54719 0.51281 -0.02800
C 	C 	0.00295 0.56723 0.49797 0.01700
C 	C 	0.98621 0.58741 0.54190 0.01200
C 	C 	0.98782 0.58881 0.51300 -0.05600
C 	C 	0.03834 0.52754 0.46899 0.01700
C 	C 	0.02123 0.54753 0.45415 -0.02800
C 	C 	0.00246 0.56622 0.46844 0.01700
O 	O 	0.98326 0.58220 0.59957 -0.19900
O 	O 	0.05055 0.50832 0.60056 -0.20000
H 	H 	0.97379 0.60368 0.55282 0.04600
H 	H 	0.97852 0.60764 0.50266 0.04800
H 	H 	0.07146 0.49762 0.55433 0.04600
H 	H 	0.07608 0.50208 0.50420 0.04800
C 	C 	0.98269 0.58231 0.45288 -0.05700
C 	C 	0.98438 0.58352 0.42398 0.01200
C 	C 	0.00428 0.56671 0.40976 -0.08000
C 	C 	0.02197 0.54786 0.42473 0.06200
C 	C 	0.05357 0.50603 0.45396 -0.05700
C 	C 	0.05521 0.50748 0.42506 0.01200
C 	C 	0.03980 0.52867 0.41031 -0.08000
C 	C 	0.00596 0.56742 0.38056 0.19900
N 	N 	0.02421 0.54932 0.36686 -0.18200
C 	C 	0.04099 0.53009 0.38112 0.19800
C 	C 	0.02519 0.54986 0.33704 0.14600
C 	C 	0.00910 0.52956 0.32168 -0.11000
C 	C 	0.01039 0.52964 0.29259 0.06400
C 	C 	0.02773 0.55021 0.27890 -0.09400
C 	C 	0.04367 0.57073 0.29420 0.06400
C 	C 	0.04244 0.57046 0.32330 -0.11000
O 	O 	0.98992 0.58555 0.36633 -0.19900
O 	O 	0.05834 0.51290 0.36743 -0.20100
H 	H 	0.99569 0.51376 0.33238 0.07400
H 	H 	0.05481 0.58616 0.33524 0.07500
H 	H 	0.96512 0.59258 0.46282 0.04800
H 	H 	0.96947 0.59674 0.41265 0.04600
H 	H 	0.06291 0.48722 0.46428 0.04800
H 	H 	0.06771 0.49128 0.41415 0.04500
H 	H 	0.02901 0.55009 0.25640 0.06300
H 	H 	0.01368 0.54065 0.71052 0.06400
Zn	Zn	0.79981 0.29495 0.98589 1.22200
C 	C 	0.80029 0.30239 0.92630 0.32600
O 	O 	0.76146 0.29923 0.99883 -0.46200
O 	O 	0.79277 0.27422 0.92377 -0.44800
O 	O 	0.74217 0.28920 0.95679 -0.49000
C 	C 	0.81648 0.23525 0.97469 0.32300
O 	O 	0.82450 0.26331 0.97420 -0.45500
O 	O 	0.79031 0.22821 0.97079 -0.50500
C 	C 	0.74084 0.30177 0.98132 0.31300
O 	O 	0.81382 0.28423 0.03193 -0.32700
Zn	Zn	0.76509 0.25428 0.95080 1.17100
O 	O 	0.79739 0.31617 0.95023 -0.44000
C 	C 	0.82438 0.31100 0.03150 0.28600
O 	O 	0.82112 0.32569 0.00860 -0.38400
Zn	Zn	0.99557 0.98299 0.04401 1.22200
C 	C 	0.04387 0.94769 0.03348 0.31300
O 	O 	0.97723 0.94489 0.03536 -0.44500
O 	O 	0.03199 0.92796 0.05001 -0.44900
O 	O 	0.97710 0.92988 0.08050 -0.50300
C 	C 	0.03215 0.00190 0.08702 0.31900
O 	O 	0.00746 0.00576 0.07634 -0.47500
O 	O 	0.04019 0.97493 0.09362 -0.49200
C 	C 	0.96736 0.92764 0.05511 0.32100
O 	O 	0.95210 0.00578 0.04959 -0.32400
Zn	Zn	0.01583 0.94061 0.08793 1.17000
O 	O 	0.03249 0.97393 0.02957 -0.43800
C 	C 	0.95736 0.01853 0.02593 0.27500
O 	O 	0.98084 0.01165 0.01470 -0.38200
C 	C 	0.85516 0.13538 0.95878 -0.03900
C 	C 	0.85402 0.16161 0.97458 0.00400
C 	C 	0.87091 0.16479 0.99841 0.01300
C 	C 	0.88643 0.13999 0.00785 -0.00200
C 	C 	0.87327 0.11253 0.96606 -0.03700
C 	C 	0.89000 0.11511 0.99000 0.00400
C 	C 	0.83624 0.18481 0.96680 -0.00700
C 	C 	0.83646 0.21181 0.98155 -0.08500
C 	C 	0.87274 0.19294 0.01151 -0.05600
C 	C 	0.89564 0.13811 0.03561 -0.03300
C 	C 	0.91695 0.09030 0.02615 0.01300
C 	C 	0.90803 0.09179 0.99821 0.00600
C 	C 	0.91840 0.07088 0.97893 -0.04900
C 	C 	0.93465 0.04709 0.98803 0.00300
C 	C 	0.94123 0.04416 0.01622 -0.06200
C 	C 	0.93273 0.06599 0.03517 -0.01900
C 	C 	0.85533 0.21609 0.00333 0.01400
H 	H 	0.85634 0.23730 0.01413 0.04100
H 	H 	0.88823 0.19734 0.02725 0.04700
H 	H 	0.82240 0.18197 0.94923 0.03100
H 	H 	0.84203 0.13267 0.94068 0.03800
H 	H 	0.87282 0.09211 0.95407 0.04000
H 	H 	0.88993 0.15485 0.05069 0.04000
H 	H 	0.91503 0.07367 0.95688 0.04500
H 	H 	0.94211 0.03091 0.97313 0.04100
H 	H 	0.93883 0.06434 0.05680 0.04800
C 	C 	0.91033 0.11327 0.04468 -0.04200
H 	H 	0.91677 0.11200 0.06621 0.04300
C 	C 	0.94187 0.46731 0.71947 0.12300
C 	C 	0.96070 0.45505 0.70055 -0.07300
H 	H 	0.96302 0.43105 0.69921 0.06600
C 	C 	0.97734 0.47378 0.68419 -0.00400
H 	H 	0.99251 0.46415 0.67031 0.04100
C 	C 	0.97521 0.50493 0.68665 -0.02200
C 	C 	0.95543 0.51714 0.70466 -0.00500
H 	H 	0.95347 0.54115 0.70652 0.03900
C 	C 	0.93886 0.49838 0.72104 -0.07400
H 	H 	0.92428 0.50795 0.73556 0.06400
N 	N 	0.92749 0.44829 0.73886 -0.17500
C 	C 	0.94035 0.44035 0.76316 0.19000
C 	C 	0.92613 0.42312 0.78313 -0.05900
C 	C 	0.89869 0.41404 0.77788 0.03100
C 	C 	0.88596 0.42186 0.75270 -0.05800
C 	C 	0.90090 0.43905 0.73317 0.19000
C 	C 	0.93884 0.41511 0.80834 -0.01200
C 	C 	0.92420 0.39848 0.82818 -0.01100
C 	C 	0.89660 0.38960 0.82316 -0.05900
C 	C 	0.88390 0.39728 0.79793 0.03200
C 	C 	0.85638 0.38840 0.79279 -0.05900
C 	C 	0.85847 0.41265 0.74753 -0.01200
C 	C 	0.84380 0.39606 0.76742 -0.01200
C 	C 	0.88139 0.37327 0.84307 0.19100
N 	N 	0.85440 0.36509 0.83793 -0.17800
C 	C 	0.84183 0.37210 0.81324 0.19100
C 	C 	0.83901 0.34921 0.85890 0.14000
C 	C 	0.83978 0.31795 0.85995 -0.09900
C 	C 	0.82662 0.30258 0.88160 0.04400
C 	C 	0.81259 0.31842 0.90243 -0.10800
C 	C 	0.81126 0.34973 0.90091 0.04500
C 	C 	0.82444 0.36503 0.87923 -0.09900
O 	O 	0.88925 0.44648 0.70943 -0.19700
O 	O 	0.96603 0.44922 0.76793 -0.19600
O 	O 	0.89307 0.36594 0.86684 -0.19600
O 	O 	0.81597 0.36368 0.80872 -0.20000
H 	H 	0.82374 0.38919 0.87843 0.06900
H 	H 	0.80019 0.36223 0.91660 0.03500
H 	H 	0.85103 0.30566 0.84427 0.07000
H 	H 	0.82788 0.27844 0.88252 0.03200
H 	H 	0.84835 0.41838 0.72820 0.05200
H 	H 	0.82264 0.38930 0.76305 0.05200
H 	H 	0.96002 0.42179 0.81268 0.05300
H 	H 	0.93436 0.39265 0.84746 0.05300
C 	C 	0.96522 0.46698 0.24269 0.12300
C 	C 	0.96044 0.49767 0.23988 -0.07500
H 	H 	0.94605 0.50565 0.22436 0.06300
C 	C 	0.97460 0.51810 0.25672 -0.00500
H 	H 	0.97096 0.54181 0.25423 0.03800
C 	C 	0.99382 0.50797 0.27639 -0.02200
C 	C 	0.99813 0.47718 0.27962 -0.00500
H 	H 	0.01294 0.46914 0.29472 0.04100
C 	C 	0.98381 0.45676 0.26286 -0.07300
H 	H 	0.98753 0.43306 0.26512 0.06500
N 	N 	0.95215 0.44619 0.22399 -0.17500
C 	C 	0.96630 0.43671 0.20093 0.19000
C 	C 	0.95304 0.41849 0.18109 -0.05900
C 	C 	0.92524 0.41003 0.18522 0.03100
C 	C 	0.91132 0.41904 0.20940 -0.05900
C 	C 	0.92536 0.43707 0.22889 0.19000
C 	C 	0.96700 0.40910 0.15698 -0.01200
C 	C 	0.95313 0.39206 0.13692 -0.01200
C 	C 	0.92505 0.38420 0.14061 -0.05900
C 	C 	0.91121 0.39292 0.16493 0.03100
C 	C 	0.88324 0.38499 0.16879 -0.05900
C 	C 	0.88349 0.41038 0.21349 -0.01200
C 	C 	0.86956 0.39350 0.19334 -0.01200
C 	C 	0.91037 0.36828 0.12008 0.19100
N 	N 	0.88271 0.36196 0.12354 -0.17800
C 	C 	0.86923 0.36917 0.14770 0.19000
C 	C 	0.86729 0.34911 0.10093 0.13700
C 	C 	0.85593 0.36765 0.08053 -0.09400
C 	C 	0.84175 0.35524 0.05799 0.03800
C 	C 	0.83875 0.32409 0.05568 -0.08900
C 	C 	0.84989 0.30553 0.07634 0.03600
C 	C 	0.86414 0.31803 0.09886 -0.09300
O 	O 	0.91261 0.44555 0.25175 -0.19700
O 	O 	0.99226 0.44520 0.19709 -0.19700
O 	O 	0.92311 0.35990 0.09717 -0.19700
O 	O 	0.84291 0.36181 0.15092 -0.19700
H 	H 	0.87294 0.30363 0.11457 0.06900
H 	H 	0.84786 0.28147 0.07478 0.03700
H 	H 	0.85828 0.39168 0.08210 0.06800
H 	H 	0.83307 0.36983 0.04235 0.03900
H 	H 	0.87251 0.41689 0.23212 0.05300
H 	H 	0.84808 0.38731 0.19680 0.05200
H 	H 	0.98853 0.41512 0.15360 0.05200
H 	H 	0.96420 0.38528 0.11843 0.05200
C 	C 	0.11044 0.88486 0.98375 -0.04000
C 	C 	0.10492 0.90930 0.00093 0.00600
C 	C 	0.12707 0.92632 0.01214 0.01000
C 	C 	0.15460 0.91578 0.00929 -0.00000
C 	C 	0.13769 0.87699 0.97774 -0.03500
C 	C 	0.16012 0.89272 0.98987 0.00200
C 	C 	0.07747 0.91682 0.00733 -0.01100
C 	C 	0.07197 0.94228 0.02321 -0.08400
C 	C 	0.12118 0.95363 0.02544 -0.05600
C 	C 	0.17574 0.92486 0.02785 -0.03500
C 	C 	0.20816 0.89118 0.00581 0.00700
C 	C 	0.18783 0.88321 0.98601 0.01000
C 	C 	0.19571 0.86608 0.96281 -0.05300
C 	C 	0.22163 0.85250 0.96220 0.00900
C 	C 	0.24022 0.85635 0.98441 -0.08300
C 	C 	0.23417 0.87730 0.00523 -0.01000
C 	C 	0.09377 0.96130 0.03120 0.00900
H 	H 	0.08952 0.98170 0.04248 0.03700
H 	H 	0.13758 0.96931 0.03057 0.04500
H 	H 	0.06047 0.90276 0.00024 0.04000
H 	H 	0.09355 0.87179 0.97504 0.04100
H 	H 	0.14117 0.85726 0.96530 0.04100
H 	H 	0.17136 0.93997 0.04477 0.03900
H 	H 	0.18214 0.86371 0.94506 0.04700
H 	H 	0.22691 0.83826 0.94484 0.04200
H 	H 	0.24920 0.88199 0.02142 0.04200
C 	C 	0.20203 0.91219 0.02640 -0.04000
H 	H 	0.21759 0.91854 0.04156 0.04000
C 	C 	0.20347 0.70513 0.87124 0.13700
C 	C 	0.18813 0.72055 0.89126 -0.09400
H 	H 	0.16578 0.72150 0.88966 0.06900
C 	C 	0.20160 0.73456 0.91345 0.03700
H 	H 	0.18951 0.74645 0.92877 0.03900
C 	C 	0.23059 0.73327 0.91578 -0.08900
C 	C 	0.24594 0.71802 0.89551 0.03700
H 	H 	0.26829 0.71671 0.89710 0.03700
C 	C 	0.23239 0.70399 0.87335 -0.09300
H 	H 	0.24430 0.69204 0.85793 0.07000
N 	N 	0.18946 0.68989 0.84898 -0.17800
C 	C 	0.18460 0.70472 0.82453 0.19100
C 	C 	0.16920 0.69086 0.80324 -0.05900
C 	C 	0.15910 0.66164 0.80723 0.03200
C 	C 	0.16491 0.64645 0.83207 -0.05900
C 	C 	0.18044 0.66102 0.85284 0.19100
C 	C 	0.16348 0.70590 0.77822 -0.01100
C 	C 	0.14747 0.69206 0.75763 -0.01200
C 	C 	0.13690 0.66297 0.76173 -0.05800
C 	C 	0.14291 0.64770 0.78648 0.03100
C 	C 	0.13250 0.61862 0.79064 -0.05800
C 	C 	0.15484 0.61712 0.83592 -0.01100
C 	C 	0.13875 0.60333 0.81539 -0.01200
C 	C 	0.12010 0.64897 0.74160 0.19000
N 	N 	0.10941 0.62091 0.74632 -0.17500
C 	C 	0.11567 0.60544 0.77010 0.19000
C 	C 	0.09066 0.60784 0.72649 0.12300
C 	C 	0.06230 0.61416 0.72787 -0.07400
C 	C 	0.04368 0.59946 0.71025 -0.00500
C 	C 	0.05330 0.57822 0.69118 -0.02200
C 	C 	0.08181 0.57259 0.68923 -0.00400
C 	C 	0.10043 0.58740 0.70681 -0.07300
O 	O 	0.18605 0.64702 0.87624 -0.19700
O 	O 	0.19409 0.73220 0.82113 -0.19700
O 	O 	0.11437 0.66299 0.71823 -0.19600
O 	O 	0.10552 0.57829 0.77388 -0.19600
H 	H 	0.12233 0.58251 0.70564 0.06600
H 	H 	0.08944 0.55623 0.67459 0.04200
H 	H 	0.05470 0.62999 0.74299 0.06400
H 	H 	0.02174 0.60412 0.71176 0.03800
H 	H 	0.15927 0.60499 0.85486 0.05300
H 	H 	0.13108 0.58081 0.81886 0.05300
H 	H 	0.17126 0.72836 0.77470 0.05300
H 	H 	0.14319 0.70410 0.73861 0.05300
C 	C 	0.09664 0.62838 0.24689 0.12300
C 	C 	0.10810 0.60795 0.26565 -0.07300
H 	H 	0.13037 0.60548 0.26691 0.06500
C 	C 	0.09079 0.58991 0.28199 -0.00500
H 	H 	0.09979 0.57355 0.29582 0.04100
C 	C 	0.06190 0.59221 0.27966 -0.02200
C 	C 	0.05049 0.61354 0.26171 -0.00500
H 	H 	0.02821 0.61562 0.25992 0.03800
C 	C 	0.06782 0.63154 0.24538 -0.07500
H 	H 	0.05889 0.64734 0.23097 0.06300
N 	N 	0.11424 0.64418 0.22766 -0.17500
C 	C 	0.12078 0.63109 0.20276 0.19000
C 	C 	0.13715 0.64656 0.18319 -0.05900
C 	C 	0.14679 0.67548 0.18946 0.03100
C 	C 	0.14021 0.68847 0.21516 -0.05900
C 	C 	0.12379 0.67227 0.23423 0.19000
C 	C 	0.14384 0.63362 0.15743 -0.01200
C 	C 	0.15986 0.64946 0.13811 -0.01200
C 	C 	0.16947 0.67851 0.14423 -0.05900
C 	C 	0.16297 0.69148 0.16996 0.03100
C 	C 	0.17256 0.72044 0.17618 -0.06000
C 	C 	0.14997 0.71745 0.22135 -0.01300
C 	C 	0.16601 0.73331 0.20202 -0.01200
C 	C 	0.18547 0.69486 0.12497 0.19000
N 	N 	0.19462 0.72317 0.13128 -0.17800
C 	C 	0.18854 0.73610 0.15637 0.19000
C 	C 	0.21082 0.73950 0.11122 0.13900
C 	C 	0.23963 0.73605 0.11033 -0.09900
C 	C 	0.25508 0.74912 0.08890 0.04400
C 	C 	0.24178 0.76577 0.06812 -0.10700
C 	C 	0.21303 0.77021 0.06973 0.04400
C 	C 	0.19763 0.75708 0.09118 -0.09800
O 	O 	0.11746 0.68416 0.25843 -0.19800
O 	O 	0.11154 0.60396 0.19709 -0.19700
O 	O 	0.19167 0.68295 0.10073 -0.19600
O 	O 	0.19768 0.76329 0.16192 -0.20000
H 	H 	0.17539 0.75992 0.09188 0.06900
H 	H 	0.20255 0.78343 0.05416 0.03500
H 	H 	0.24989 0.72252 0.12581 0.06900
H 	H 	0.27723 0.74552 0.08798 0.03200
H 	H 	0.14514 0.72780 0.24108 0.05200
H 	H 	0.17327 0.75559 0.20719 0.05100
H 	H 	0.13663 0.61132 0.15227 0.05200
H 	H 	0.16472 0.63909 0.11841 0.05200
C 	C 	0.87573 0.88334 0.07393 -0.04000
C 	C 	0.90083 0.88263 0.05941 0.00600
C 	C 	0.90418 0.86245 0.03708 0.01000
C 	C 	0.88379 0.83966 0.03262 0.00000
C 	C 	0.85411 0.86399 0.06682 -0.03500
C 	C 	0.85844 0.84045 0.04777 0.00100
C 	C 	0.92200 0.90326 0.06579 -0.01000
C 	C 	0.94546 0.90562 0.04874 -0.08600
C 	C 	0.92690 0.86662 0.01886 -0.05700
C 	C 	0.88864 0.81568 0.01427 -0.03500
C 	C 	0.84206 0.79658 0.02164 0.00600
C 	C 	0.83786 0.81782 0.04302 0.01000
C 	C 	0.81385 0.81511 0.05979 -0.05500
C 	C 	0.79308 0.79442 0.05304 0.01300
C 	C 	0.79655 0.77479 0.03071 -0.08600
C 	C 	0.82118 0.77555 0.01534 -0.01100
C 	C 	0.94753 0.88771 0.02500 0.01200
H 	H 	0.96505 0.89029 0.01109 0.03800
H 	H 	0.92794 0.85499 0.99924 0.04600
H 	H 	0.91983 0.91808 0.08347 0.03900
H 	H 	0.87237 0.90010 0.08979 0.04000
H 	H 	0.83386 0.86824 0.07540 0.04000
H 	H 	0.90902 0.81181 0.00578 0.03800
H 	H 	0.81180 0.82746 0.07890 0.04500
H 	H 	0.77467 0.79290 0.06589 0.03800
H 	H 	0.82418 0.75971 0.99858 0.03900
C 	C 	0.86750 0.79551 0.00777 -0.04100
H 	H 	0.87137 0.77814 0.99261 0.04000
C 	C 	0.66581 0.81937 0.90218 0.13700
C 	C 	0.65001 0.80772 0.92415 -0.09300
H 	H 	0.62775 0.81057 0.92437 0.06900
C 	C 	0.66287 0.79220 0.94570 0.03700
H 	H 	0.65037 0.78303 0.96240 0.04000
C 	C 	0.69171 0.78803 0.94537 -0.08700
C 	C 	0.70754 0.80003 0.92346 0.03700
H 	H 	0.72981 0.79723 0.92305 0.03900
C 	C 	0.69461 0.81567 0.90198 -0.09200
H 	H 	0.70691 0.82475 0.88510 0.07000
N 	N 	0.65243 0.83476 0.87974 -0.17700
C 	C 	0.64585 0.86435 0.88274 0.19000
C 	C 	0.63105 0.87925 0.86178 -0.05900
C 	C 	0.62354 0.86364 0.83759 0.03200
C 	C 	0.63115 0.83361 0.83445 -0.05900
C 	C 	0.64575 0.81940 0.85597 0.19100
C 	C 	0.62339 0.90936 0.86481 -0.01200
C 	C 	0.60806 0.92355 0.84408 -0.01200
C 	C 	0.60018 0.90789 0.81995 -0.05900
C 	C 	0.60816 0.87800 0.81661 0.03100
C 	C 	0.60058 0.86237 0.79245 -0.05900
C 	C 	0.62379 0.81814 0.81005 -0.01200
C 	C 	0.60865 0.83242 0.78921 -0.01200
C 	C 	0.58414 0.92156 0.79919 0.19000
N 	N 	0.57641 0.90582 0.77594 -0.17500
C 	C 	0.58473 0.87689 0.77203 0.19000
C 	C 	0.55865 0.91961 0.75579 0.12200
C 	C 	0.52996 0.91452 0.75677 -0.07400
C 	C 	0.51244 0.92958 0.73852 -0.00500
C 	C 	0.52348 0.95003 0.71926 -0.02200
C 	C 	0.55228 0.95451 0.71779 -0.00500
C 	C 	0.56980 0.93928 0.73596 -0.07300
O 	O 	0.65271 0.79111 0.85344 -0.19700
O 	O 	0.65322 0.87881 0.90545 -0.19700
O 	O 	0.57615 0.94946 0.80226 -0.19800
O 	O 	0.57767 0.86256 0.74915 -0.19600
H 	H 	0.59195 0.94321 0.73508 0.06500
H 	H 	0.56100 0.97026 0.70303 0.04100
H 	H 	0.52128 0.89927 0.77200 0.06400
H 	H 	0.49026 0.92578 0.73967 0.04000
H 	H 	0.62964 0.79504 0.80719 0.05200
H 	H 	0.60311 0.82006 0.77067 0.05300
H 	H 	0.62912 0.92179 0.88325 0.05200
H 	H 	0.60225 0.94667 0.84691 0.05200
C 	C 	0.57085 0.88134 0.27440 0.12300
C 	C 	0.58352 0.90179 0.29254 -0.07300
H 	H 	0.60589 0.90375 0.29322 0.06500
C 	C 	0.56729 0.92054 0.30898 -0.00500
H 	H 	0.57723 0.93696 0.32226 0.04100
C 	C 	0.53827 0.91890 0.30740 -0.02200
C 	C 	0.52565 0.89748 0.29015 -0.00500
H 	H 	0.50326 0.89589 0.28896 0.03800
C 	C 	0.54189 0.87882 0.27369 -0.07400
H 	H 	0.53202 0.86300 0.25977 0.06400
N 	N 	0.58736 0.86484 0.25494 -0.17500
C 	C 	0.59481 0.83605 0.26103 0.19000
C 	C 	0.60957 0.81900 0.24148 -0.05800
C 	C 	0.61682 0.83192 0.21586 0.03100
C 	C 	0.60956 0.86163 0.21017 -0.05900
C 	C 	0.59473 0.87791 0.23018 0.19000
C 	C 	0.61693 0.78922 0.24708 -0.01200
C 	C 	0.63117 0.77249 0.22720 -0.01200
C 	C 	0.63830 0.78527 0.20140 -0.05900
C 	C 	0.63121 0.81505 0.19581 0.03100
C 	C 	0.63836 0.82796 0.17016 -0.05900
C 	C 	0.61699 0.87453 0.18452 -0.01200
C 	C 	0.63127 0.85783 0.16468 -0.01200
C 	C 	0.65233 0.76868 0.18098 0.19000
N 	N 	0.65893 0.78152 0.15590 -0.17800
C 	C 	0.65241 0.81069 0.15029 0.19000
C 	C 	0.67273 0.76411 0.13506 0.13900
C 	C 	0.70173 0.76436 0.13348 -0.09900
C 	C 	0.71511 0.75019 0.11141 0.04400
C 	C 	0.69954 0.73569 0.09068 -0.10700
C 	C 	0.67051 0.73451 0.09291 0.04500
C 	C 	0.65719 0.74868 0.11501 -0.09800
O 	O 	0.58760 0.90573 0.22499 -0.19700
O 	O 	0.58794 0.82424 0.28519 -0.19600
O 	O 	0.65904 0.74069 0.18591 -0.19900
O 	O 	0.65922 0.82255 0.12613 -0.19700
H 	H 	0.63479 0.74834 0.11621 0.07000
H 	H 	0.65826 0.72306 0.07729 0.03500
H 	H 	0.71381 0.77623 0.14894 0.06900
H 	H 	0.73750 0.75138 0.10995 0.03000
H 	H 	0.61167 0.89744 0.17983 0.05200
H 	H 	0.63670 0.86818 0.14505 0.05200
H 	H 	0.61159 0.77891 0.26675 0.05300
H 	H 	0.63655 0.74960 0.23191 0.05200
C 	C 	0.08176 0.07871 0.03377 -0.04000
C 	C 	0.07664 0.06499 0.05939 0.00700
C 	C 	0.09440 0.07076 0.08217 0.01000
C 	C 	0.11474 0.09402 0.08000 -0.00000
C 	C 	0.10411 0.09828 0.03052 -0.03500
C 	C 	0.11957 0.10796 0.05380 0.00100
C 	C 	0.05515 0.04381 0.06190 -0.00800
C 	C 	0.05260 0.02645 0.08601 -0.08900
C 	C 	0.09259 0.05195 0.10577 -0.05800
C 	C 	0.12963 0.10417 0.10344 -0.03500
C 	C 	0.15765 0.13698 0.07460 0.00700
C 	C 	0.14039 0.13077 0.05151 0.00900
C 	C 	0.14366 0.14825 0.02718 -0.05500
C 	C 	0.16596 0.16822 0.02470 0.01000
C 	C 	0.18430 0.17256 0.04688 -0.08400
C 	C 	0.17985 0.15731 0.07195 -0.01200
C 	C 	0.07158 0.03033 0.10772 0.01400
H 	H 	0.07049 0.01608 0.12590 0.02800
H 	H 	0.10829 0.05254 0.12174 0.04400
H 	H 	0.04124 0.03982 0.04457 0.03700
H 	H 	0.06930 0.07287 0.01582 0.04400
H 	H 	0.10991 0.10479 0.00971 0.04100
H 	H 	0.12353 0.09767 0.12419 0.03900
H 	H 	0.12831 0.14792 0.01091 0.04500
H 	H 	0.16844 0.18105 0.00575 0.03600
H 	H 	0.19362 0.16126 0.08939 0.04400
C 	C 	0.15182 0.12399 0.10041 -0.04100
H 	H 	0.16386 0.13023 0.11853 0.04000
C 	C 	0.30343 0.14868 0.89382 0.13600
C 	C 	0.31871 0.14656 0.91848 -0.09400
H 	H 	0.33863 0.13561 0.91849 0.06900
C 	C 	0.30816 0.15821 0.94318 0.03800
H 	H 	0.32011 0.15632 0.96213 0.03800
C 	C 	0.28236 0.17247 0.94337 -0.08900
C 	C 	0.26730 0.17511 0.91856 0.03700
H 	H 	0.24737 0.18607 0.91846 0.03600
C 	C 	0.27772 0.16304 0.89390 -0.09200
H 	H 	0.26582 0.16470 0.87492 0.07100
N 	N 	0.31386 0.13548 0.86870 -0.17700
C 	C 	0.31320 0.10497 0.86578 0.19100
C 	C 	0.32721 0.09130 0.84359 -0.05900
C 	C 	0.34070 0.10929 0.82375 0.03200
C 	C 	0.33948 0.14055 0.82590 -0.05900
C 	C 	0.32586 0.15339 0.84880 0.19100
C 	C 	0.32856 0.05998 0.84138 -0.01200
C 	C 	0.34398 0.04682 0.82013 -0.01200
C 	C 	0.35813 0.06477 0.80061 -0.05800
C 	C 	0.35593 0.09600 0.80206 0.03100
C 	C 	0.36942 0.11397 0.78221 -0.05800
C 	C 	0.35248 0.15846 0.80558 -0.01200
C 	C 	0.36724 0.14528 0.78385 -0.01200
C 	C 	0.37508 0.05199 0.78007 0.19000
N 	N 	0.38903 0.06990 0.76146 -0.17500
C 	C 	0.38551 0.10032 0.76144 0.19000
C 	C 	0.40905 0.05681 0.74304 0.12100
C 	C 	0.43745 0.06058 0.74826 -0.07400
C 	C 	0.45690 0.04507 0.73250 -0.00600
C 	C 	0.44811 0.02510 0.71174 -0.02100
C 	C 	0.41972 0.02234 0.70569 -0.00500
C 	C 	0.40030 0.03836 0.72112 -0.07200
O 	O 	0.32533 0.18268 0.85157 -0.19900
O 	O 	0.29987 0.08839 0.88417 -0.19700
O 	O 	0.37833 0.02279 0.77931 -0.19700
O 	O 	0.39764 0.11684 0.74221 -0.19700
H 	H 	0.37841 0.03560 0.71680 0.06700
H 	H 	0.41268 0.00708 0.68968 0.04200
H 	H 	0.44434 0.07493 0.76503 0.06400
H 	H 	0.47877 0.04782 0.73699 0.03900
H 	H 	0.35139 0.18260 0.80665 0.05100
H 	H 	0.37729 0.15948 0.76857 0.05200
H 	H 	0.31803 0.04576 0.85631 0.05200
H 	H 	0.34505 0.02269 0.81904 0.05200
C 	C 	0.33105 0.16068 0.13862 0.13900
C 	C 	0.33257 0.19164 0.13438 -0.09800
H 	H 	0.34675 0.20515 0.14658 0.07000
C 	C 	0.31598 0.20512 0.11422 0.04300
H 	H 	0.31759 0.22901 0.11088 0.03100
C 	C 	0.29772 0.18767 0.09813 -0.10700
C 	C 	0.29610 0.15668 0.10263 0.04500
H 	H 	0.28190 0.14298 0.09062 0.03600
C 	C 	0.31271 0.14328 0.12277 -0.09900
H 	H 	0.31144 0.11937 0.12604 0.06900
N 	N 	0.34860 0.14670 0.15883 -0.17800
C 	C 	0.33897 0.14235 0.18537 0.19100
C 	C 	0.35484 0.12628 0.20474 -0.06000
C 	C 	0.38075 0.11512 0.19668 0.03200
C 	C 	0.39074 0.12066 0.16973 -0.05900
C 	C 	0.37427 0.13682 0.15096 0.19100
C 	C 	0.34499 0.12082 0.23182 -0.01200
C 	C 	0.36064 0.10393 0.25046 -0.01200
C 	C 	0.38640 0.09224 0.24232 -0.05900
C 	C 	0.39654 0.09809 0.21548 0.03100
C 	C 	0.42229 0.08663 0.20731 -0.05900
C 	C 	0.41680 0.10960 0.16182 -0.01200
C 	C 	0.43244 0.09271 0.18045 -0.01200
C 	C 	0.40206 0.07443 0.26049 0.19000
N 	N 	0.42679 0.06265 0.25192 -0.17500
C 	C 	0.43733 0.06889 0.22605 0.19000
C 	C 	0.44150 0.04273 0.26998 0.12300
C 	C 	0.46215 0.05387 0.28773 -0.07300
C 	C 	0.47734 0.03430 0.30433 -0.00500
C 	C 	0.47194 0.00344 0.30329 -0.02100
C 	C 	0.45093 0.99240 0.28585 -0.00600
C 	C 	0.43579 0.01198 0.26925 -0.07400
O 	O 	0.38336 0.14208 0.12558 -0.19700
O 	O 	0.31460 0.15290 0.19263 -0.20000
O 	O 	0.39278 0.06873 0.28572 -0.19700
O 	O 	0.46147 0.05787 0.21859 -0.19700
H 	H 	0.41983 0.00331 0.25559 0.06300
H 	H 	0.44651 0.96864 0.28502 0.03800
H 	H 	0.46661 0.07761 0.28836 0.06500
H 	H 	0.49354 0.04303 0.31770 0.04100
H 	H 	0.42493 0.11385 0.14121 0.05200
H 	H 	0.45236 0.08426 0.17387 0.05200
H 	H 	0.32516 0.12943 0.23846 0.05200
H 	H 	0.35260 0.09985 0.27113 0.05200
C 	C 	0.34600 0.30403 0.95305 -0.03900
C 	C 	0.32995 0.30833 0.97696 0.00800
C 	C 	0.33260 0.33520 0.99230 0.01100
C 	C 	0.35100 0.35796 0.98262 0.00100
C 	C 	0.36594 0.32517 0.94520 -0.03400
C 	C 	0.37008 0.35127 0.96115 0.00100
C 	C 	0.31170 0.28573 0.98607 -0.00700
C 	C 	0.29675 0.28920 0.01081 -0.08600
C 	C 	0.31835 0.33782 0.01782 -0.05800
C 	C 	0.34938 0.38759 0.99243 -0.03400
C 	C 	0.39078 0.40112 0.96648 0.00600
C 	C 	0.39174 0.37203 0.95494 0.01100
C 	C 	0.41523 0.36373 0.93929 -0.05800
C 	C 	0.43624 0.38457 0.93370 0.01400
C 	C 	0.43490 0.41353 0.94460 -0.08600
C 	C 	0.41208 0.42183 0.96079 -0.00600
C 	C 	0.30011 0.31528 0.02657 0.01400
H 	H 	0.28934 0.31764 0.04619 0.02300
H 	H 	0.32241 0.35634 0.03167 0.04400
H 	H 	0.30937 0.26533 0.97410 0.04700
H 	H 	0.34325 0.28404 0.94063 0.04500
H 	H 	0.37698 0.32189 0.92591 0.04000
H 	H 	0.33216 0.39466 0.00514 0.03900
H 	H 	0.41819 0.34085 0.93285 0.04400
H 	H 	0.45424 0.37773 0.92192 0.01900
H 	H 	0.41122 0.44418 0.96947 0.04400
C 	C 	0.36904 0.40890 0.98430 -0.03900
H 	H 	0.36757 0.43148 0.99225 0.04200
C 	C 	0.39384 0.68111 0.01894 -0.03900
C 	C 	0.37011 0.68690 0.00312 0.00400
C 	C 	0.36028 0.66532 0.98397 0.01300
C 	C 	0.37302 0.63689 0.98294 -0.00100
C 	C 	0.40832 0.65449 0.01539 -0.03700
C 	C 	0.39893 0.63280 0.99620 0.00400
C 	C 	0.35585 0.71394 0.00638 -0.00800
C 	C 	0.33250 0.71988 0.99003 -0.08500
C 	C 	0.33874 0.67305 0.96561 -0.05500
C 	C 	0.35922 0.61194 0.97138 -0.03200
C 	C 	0.39985 0.58146 0.97869 0.01400
C 	C 	0.41363 0.60581 0.99164 0.00500
C 	C 	0.44217 0.60337 0.99773 -0.04800
C 	C 	0.45608 0.57666 0.99262 0.00200
C 	C 	0.44213 0.55238 0.98046 -0.06100
C 	C 	0.41394 0.55468 0.97400 -0.02000
C 	C 	0.32462 0.69983 0.96909 0.01500
H 	H 	0.30741 0.70498 0.95551 0.04100
H 	H 	0.33346 0.65892 0.94814 0.04700
H 	H 	0.36245 0.72991 0.02203 0.03200
H 	H 	0.40114 0.69728 0.03406 0.03800
H 	H 	0.42571 0.65009 0.02888 0.04000
H 	H 	0.33775 0.61325 0.96510 0.04100
H 	H 	0.45406 0.62251 0.00473 0.04300
H 	H 	0.47806 0.57534 0.99697 0.04400
H 	H 	0.40319 0.53591 0.96447 0.04800
C 	C 	0.37246 0.58449 0.96960 -0.04200
H 	H 	0.36151 0.56559 0.96061 0.04300
C 	C 	0.58832 0.35493 0.00220 -0.04300
C 	C 	0.58569 0.38572 0.99817 0.00800
C 	C 	0.60957 0.40418 0.99726 0.00700
C 	C 	0.63612 0.39080 0.99550 0.00100
C 	C 	0.61444 0.34204 0.00402 -0.03400
C 	C 	0.63868 0.35973 0.00105 -0.00200
C 	C 	0.55952 0.39817 0.99352 -0.01400
C 	C 	0.55708 0.42888 0.98847 -0.08100
C 	C 	0.60622 0.43549 0.99743 -0.05500
C 	C 	0.65908 0.40668 0.98449 -0.03600
C 	C 	0.68739 0.36225 0.98700 0.00600
C 	C 	0.66527 0.34640 0.99968 0.01200
C 	C 	0.67030 0.31770 0.01068 -0.05800
C 	C 	0.69526 0.30335 0.00503 0.01100
C 	C 	0.71589 0.31787 0.98950 -0.08600
C 	C 	0.71238 0.34762 0.98134 -0.00700
C 	C 	0.58008 0.44771 0.99271 0.00700
H 	H 	0.57797 0.47172 0.99116 0.03900
H 	H 	0.62355 0.45031 0.00159 0.04200
H 	H 	0.54135 0.38379 0.99215 0.04200
H 	H 	0.57003 0.34074 0.00326 0.04000
H 	H 	0.61560 0.31798 0.00543 0.03700
H 	H 	0.65704 0.42951 0.97750 0.03700
H 	H 	0.65547 0.30691 0.02433 0.04400
H 	H 	0.69854 0.28088 0.01267 0.02100
H 	H 	0.72892 0.35921 0.97036 0.03900
C 	C 	0.68419 0.39232 0.97983 -0.04000
H 	H 	0.70117 0.40463 0.97033 0.04000
C 	C 	0.62590 0.52729 0.96013 -0.04000
C 	C 	0.60213 0.53489 0.94514 0.00500
C 	C 	0.59694 0.56513 0.93854 0.01100
C 	C 	0.61478 0.58785 0.94929 0.00100
C 	C 	0.64478 0.54930 0.96842 -0.03600
C 	C 	0.64022 0.57965 0.96191 0.00100
C 	C 	0.58302 0.51259 0.93728 -0.01000
C 	C 	0.55866 0.52025 0.92320 -0.08700
C 	C 	0.57433 0.57187 0.92104 -0.05600
C 	C 	0.60643 0.61799 0.95034 -0.03400
C 	C 	0.65054 0.63256 0.97059 0.00700
C 	C 	0.65927 0.60245 0.97025 0.01100
C 	C 	0.68702 0.59599 0.97730 -0.05700
C 	C 	0.70442 0.61844 0.98777 0.01300
C 	C 	0.69509 0.64790 0.98975 -0.08400
C 	C 	0.66840 0.65504 0.98062 -0.00700
C 	C 	0.55487 0.54973 0.91431 0.01200
H 	H 	0.53678 0.55554 0.90220 0.03500
H 	H 	0.57217 0.59382 0.91196 0.04600
H 	H 	0.58661 0.48951 0.94298 0.04000
H 	H 	0.62961 0.50421 0.96576 0.03700
H 	H 	0.66189 0.54279 0.98150 0.03800
H 	H 	0.58562 0.62431 0.94465 0.04000
H 	H 	0.69561 0.57415 0.97352 0.04300
H 	H 	0.72546 0.61303 0.99366 0.02200
H 	H 	0.66144 0.67801 0.98156 0.04100
C 	C 	0.62411 0.63996 0.96095 -0.03900
H 	H 	0.61714 0.66289 0.96176 0.04300
