data_crystal

_cell_length_a 43.07930
_cell_length_b 37.15256
_cell_length_c 27.98813
_cell_angle_alpha 89.99905
_cell_angle_beta  89.99963
_cell_angle_gamma 89.99937

_symmetry_space_group_name_	'P 1'
_symmetry_space_group_name_H-M	'P 1'

loop_
_symmetry_equiv_pos_as_xyz
  x,y,z

loop_
_atom_site_label
_atom_site_type_symbol
_atom_site_fract_x
_atom_site_fract_y
_atom_site_fract_z
_atom_site_charge
Cu	Cu	0.15213 0.83005 0.31313 0.93100
Cu	Cu	0.18399 0.76467 0.25196 0.86900
Cu	Cu	0.16915 0.83623 0.20809 0.89700
Cu	Cu	0.15356 0.90474 0.25985 0.89600
C 	C 	0.15831 0.89632 0.36475 0.30900
O 	O 	0.10729 0.84504 0.30471 -0.36000
C 	C 	0.17281 0.77071 0.15091 0.30600
O 	O 	0.17794 0.86258 0.26604 -0.63800
O 	O 	0.15131 0.80096 0.25432 -0.64200
O 	O 	0.16720 0.79174 0.35646 -0.35500
O 	O 	0.20735 0.77662 0.30774 -0.43700
O 	O 	0.14415 0.91227 0.32879 -0.38500
O 	O 	0.18785 0.87075 0.16454 -0.37000
C 	C 	0.18158 0.90555 0.16397 0.31100
C 	C 	0.09651 0.85672 0.26352 0.30800
O 	O 	0.11524 0.87262 0.23296 -0.39500
O 	O 	0.17685 0.92342 0.20405 -0.39300
O 	O 	0.16074 0.86095 0.36630 -0.34900
C 	C 	0.19425 0.77630 0.35012 0.31200
O 	O 	0.16407 0.80476 0.15285 -0.37100
O 	O 	0.17137 0.74979 0.18899 -0.40900
H 	H 	0.20028 0.86652 0.27254 0.16500
H 	H 	0.13061 0.79185 0.24484 0.18600
Cu	Cu	0.30663 0.61997 0.81671 0.93000
Cu	Cu	0.26450 0.67589 0.75378 0.86800
Cu	Cu	0.29169 0.60976 0.71171 0.89800
Cu	Cu	0.31804 0.54623 0.76357 0.89900
C 	C 	0.30977 0.55341 0.86828 0.31500
O 	O 	0.35329 0.61565 0.80998 -0.35900
C 	C 	0.27874 0.67234 0.65290 0.29900
O 	O 	0.28703 0.58203 0.76941 -0.63900
O 	O 	0.30304 0.64843 0.75771 -0.64300
O 	O 	0.28442 0.65411 0.85888 -0.37400
O 	O 	0.24297 0.65861 0.80896 -0.42200
O 	O 	0.32657 0.54009 0.83311 -0.38000
O 	O 	0.27843 0.57200 0.66856 -0.38200
C 	C 	0.29142 0.53990 0.66653 0.31600
C 	C 	0.36648 0.60543 0.76978 0.30000
O 	O 	0.35050 0.58675 0.73838 -0.38100
O 	O 	0.30010 0.52296 0.70579 -0.37900
O 	O 	0.30315 0.58805 0.87005 -0.36100
C 	C 	0.25509 0.66187 0.85183 0.31100
O 	O 	0.29372 0.64146 0.65657 -0.36600
O 	O 	0.27468 0.69324 0.69065 -0.41400
H 	H 	0.26572 0.57314 0.77551 0.16600
H 	H 	0.32183 0.66208 0.74835 0.17800
Cu	Cu	0.32520 0.32872 0.20663 0.93100
Cu	Cu	0.29119 0.26470 0.26734 0.87100
Cu	Cu	0.30693 0.33533 0.31114 0.89700
Cu	Cu	0.32661 0.40310 0.26105 0.89600
C 	C 	0.31971 0.39557 0.15612 0.31800
O 	O 	0.37076 0.34063 0.21369 -0.35300
C 	C 	0.30252 0.26957 0.36841 0.30400
O 	O 	0.30045 0.36257 0.25364 -0.63900
O 	O 	0.32485 0.29975 0.26551 -0.64200
O 	O 	0.30754 0.29162 0.16387 -0.37400
O 	O 	0.26709 0.27939 0.21334 -0.41900
O 	O 	0.33432 0.41154 0.19171 -0.38200
O 	O 	0.28744 0.37029 0.35262 -0.37200
C 	C 	0.29705 0.40382 0.35718 0.30800
C 	C 	0.38242 0.35363 0.25351 0.30700
O 	O 	0.36406 0.36849 0.28536 -0.39700
O 	O 	0.30610 0.42259 0.31950 -0.39100
O 	O 	0.31826 0.36015 0.15354 -0.36000
C 	C 	0.27921 0.27973 0.17026 0.31100
O 	O 	0.31022 0.30400 0.36692 -0.37700
O 	O 	0.30392 0.24910 0.32988 -0.40000
H 	H 	0.27845 0.36801 0.24642 0.17200
H 	H 	0.34524 0.29016 0.27571 0.17700
Cu	Cu	0.16982 0.12152 0.70356 0.93000
Cu	Cu	0.21359 0.17665 0.76499 0.87200
Cu	Cu	0.18571 0.11101 0.80848 0.89700
Cu	Cu	0.15554 0.04906 0.75776 0.89900
C 	C 	0.16268 0.05508 0.65295 0.31200
O 	O 	0.12309 0.11981 0.71124 -0.36000
C 	C 	0.20051 0.17479 0.86578 0.30800
O 	O 	0.18813 0.08280 0.75079 -0.63800
O 	O 	0.17477 0.14994 0.76241 -0.64200
O 	O 	0.19342 0.15394 0.66077 -0.36900
O 	O 	0.23483 0.15718 0.71093 -0.42800
O 	O 	0.14537 0.04368 0.68870 -0.38600
O 	O 	0.19786 0.07233 0.85108 -0.38500
C 	C 	0.18379 0.04081 0.85343 0.31200
C 	C 	0.10988 0.11101 0.75204 0.30000
O 	O 	0.12525 0.09162 0.78344 -0.38200
O 	O 	0.17367 0.02463 0.81442 -0.37700
O 	O 	0.17167 0.08895 0.65060 -0.35300
C 	C 	0.22303 0.16015 0.66782 0.31800
O 	O 	0.18729 0.14271 0.86411 -0.37600
O 	O 	0.20313 0.19502 0.82719 -0.40900
H 	H 	0.20886 0.07248 0.74402 0.16700
H 	H 	0.15638 0.16414 0.77216 0.17900
Cu	Cu	0.67411 0.36087 0.31119 0.93100
Cu	Cu	0.70790 0.29877 0.24653 0.86900
Cu	Cu	0.68557 0.36872 0.20454 0.89700
Cu	Cu	0.66582 0.43489 0.25805 0.89600
C 	C 	0.67689 0.42766 0.36233 0.31800
O 	O 	0.62784 0.36986 0.30906 -0.34700
C 	C 	0.69183 0.30331 0.14722 0.30700
O 	O 	0.69434 0.39628 0.26137 -0.63900
O 	O 	0.67291 0.33178 0.25249 -0.64100
O 	O 	0.69557 0.32511 0.35175 -0.37400
O 	O 	0.73393 0.31459 0.29771 -0.43200
O 	O 	0.66001 0.44215 0.32807 -0.37900
O 	O 	0.69961 0.40515 0.15974 -0.37100
C 	C 	0.68979 0.43883 0.15909 0.31100
C 	C 	0.61374 0.38052 0.26985 0.30400
O 	O 	0.62933 0.39782 0.23661 -0.39700
O 	O 	0.68371 0.45628 0.19912 -0.39200
O 	O 	0.68228 0.39274 0.36331 -0.35900
C 	C 	0.72391 0.31469 0.34202 0.31900
O 	O 	0.68131 0.33667 0.14958 -0.37300
O 	O 	0.69288 0.28261 0.18551 -0.41100
H 	H 	0.71638 0.40317 0.26544 0.16800
H 	H 	0.65258 0.32057 0.24531 0.17700
Cu	Cu	0.81963 0.15034 0.80873 0.93000
Cu	Cu	0.78144 0.21179 0.74953 0.87300
Cu	Cu	0.80524 0.14519 0.70266 0.89700
Cu	Cu	0.82729 0.07793 0.75124 0.90000
C 	C 	0.81923 0.08203 0.85611 0.31200
O 	O 	0.86596 0.14246 0.80202 -0.34700
C 	C 	0.79567 0.21168 0.64909 0.30500
O 	O 	0.79838 0.11585 0.75865 -0.63800
O 	O 	0.81818 0.18115 0.75163 -0.64200
O 	O 	0.79899 0.18444 0.85283 -0.37200
O 	O 	0.75835 0.19370 0.80260 -0.42000
O 	O 	0.83568 0.06918 0.82026 -0.37000
O 	O 	0.79085 0.10983 0.65652 -0.38300
C 	C 	0.80094 0.07631 0.65400 0.31000
C 	C 	0.87876 0.13327 0.76105 0.30200
O 	O 	0.86207 0.11663 0.72846 -0.39700
O 	O 	0.80742 0.05792 0.69309 -0.37700
O 	O 	0.81375 0.11681 0.85982 -0.36300
C 	C 	0.77014 0.19437 0.84586 0.31000
O 	O 	0.80796 0.17908 0.64952 -0.37900
O 	O 	0.79365 0.23101 0.68854 -0.40200
H 	H 	0.77656 0.10844 0.76379 0.16700
H 	H 	0.83778 0.19372 0.74369 0.17700
Cu	Cu	0.80337 0.85773 0.19508 0.93000
Cu	Cu	0.76362 0.80112 0.26012 0.86800
Cu	Cu	0.79127 0.86860 0.30100 0.89800
Cu	Cu	0.81651 0.93171 0.24645 0.90000
C 	C 	0.80510 0.92396 0.14284 0.30800
O 	O 	0.85011 0.86191 0.19854 -0.36300
C 	C 	0.77914 0.80513 0.35990 0.30700
O 	O 	0.78531 0.89597 0.24324 -0.63900
O 	O 	0.80147 0.82967 0.25450 -0.64200
O 	O 	0.77998 0.82342 0.15499 -0.36500
O 	O 	0.73976 0.81853 0.20714 -0.43500
O 	O 	0.82335 0.93697 0.17646 -0.37000
O 	O 	0.77933 0.90694 0.34433 -0.37000
C 	C 	0.79135 0.93966 0.34447 0.31100
C 	C 	0.86466 0.87224 0.23756 0.30100
O 	O 	0.84995 0.89159 0.26979 -0.38100
O 	O 	0.79951 0.95572 0.30427 -0.38800
O 	O 	0.79829 0.88937 0.14167 -0.35600
C 	C 	0.75059 0.81695 0.16328 0.31400
O 	O 	0.79237 0.83713 0.35685 -0.37100
O 	O 	0.77635 0.78414 0.32207 -0.41200
H 	H 	0.76390 0.90493 0.23831 0.16500
H 	H 	0.82065 0.81633 0.26267 0.17700
Cu	Cu	0.65481 0.65119 0.69952 0.93100
Cu	Cu	0.68730 0.71490 0.76264 0.87100
Cu	Cu	0.67060 0.64361 0.80482 0.89800
Cu	Cu	0.65462 0.57578 0.75164 0.89900
C 	C 	0.66283 0.58548 0.64773 0.31700
O 	O 	0.60967 0.63706 0.70612 -0.34900
C 	C 	0.67412 0.70841 0.86324 0.30900
O 	O 	0.67961 0.61755 0.74680 -0.63700
O 	O 	0.65385 0.67960 0.75875 -0.64100
O 	O 	0.67170 0.68960 0.65816 -0.37300
O 	O 	0.71183 0.70205 0.70816 -0.41800
O 	O 	0.64759 0.56878 0.68198 -0.38200
O 	O 	0.68853 0.60851 0.84813 -0.38000
C 	C 	0.68102 0.57407 0.84872 0.30900
C 	C 	0.59815 0.62517 0.74672 0.30100
O 	O 	0.61627 0.60855 0.77749 -0.39600
O 	O 	0.67640 0.55628 0.80853 -0.37500
O 	O 	0.66329 0.62092 0.64577 -0.36200
C 	C 	0.69981 0.70203 0.66499 0.31000
O 	O 	0.66490 0.67457 0.86029 -0.37700
O 	O 	0.67388 0.72966 0.82538 -0.41300
H 	H 	0.70196 0.61326 0.74083 0.17200
H 	H 	0.63323 0.68916 0.76785 0.17600
C 	C 	0.71931 0.80814 0.03809 -0.11400
C 	C 	0.70080 0.77729 0.04254 0.00700
C 	C 	0.69487 0.76291 0.08819 0.11600
C 	C 	0.70964 0.77752 0.12839 -0.03400
C 	C 	0.73004 0.80673 0.12336 -0.12900
C 	C 	0.73351 0.82322 0.07833 0.19400
C 	C 	0.69090 0.75772 0.99913 0.00600
O 	O 	0.67601 0.73340 0.09323 -0.27700
H 	H 	0.70632 0.76508 0.16304 0.04400
O 	O 	0.75191 0.85311 0.07323 -0.28000
H 	H 	0.72364 0.81966 0.00314 0.07200
C 	C 	0.66991 0.77355 0.96679 0.11400
C 	C 	0.66385 0.75688 0.92284 -0.03100
C 	C 	0.67860 0.72440 0.91092 -0.12500
C 	C 	0.69849 0.70779 0.94420 0.19200
C 	C 	0.70478 0.72464 0.98785 -0.11200
O 	O 	0.65482 0.80485 0.97850 -0.27400
H 	H 	0.64786 0.76935 0.89794 0.05700
O 	O 	0.71322 0.67616 0.93295 -0.29800
H 	H 	0.72108 0.71241 0.01249 0.08100
H 	H 	0.73786 0.87393 0.07822 0.14800
H 	H 	0.66782 0.82445 0.96513 0.14300
H 	H 	0.69951 0.65684 0.94533 0.16000
H 	H 	0.65486 0.74328 0.09805 0.14900
C 	C 	0.75201 0.75814 0.58550 -0.11000
C 	C 	0.74621 0.74241 0.54080 0.00500
C 	C 	0.72776 0.71124 0.53790 0.12100
C 	C 	0.71440 0.69682 0.57923 -0.03200
C 	C 	0.71841 0.71393 0.62356 -0.12200
C 	C 	0.73780 0.74442 0.62672 0.19100
C 	C 	0.75708 0.76036 0.49671 0.00400
O 	O 	0.72259 0.69499 0.49460 -0.27500
H 	H 	0.70012 0.67287 0.57658 0.06800
O 	O 	0.74251 0.76117 0.66980 -0.29500
H 	H 	0.76659 0.78184 0.58804 0.07300
C 	C 	0.74346 0.79292 0.48180 0.11800
C 	C 	0.75138 0.80777 0.43749 -0.03600
C 	C 	0.77261 0.79020 0.40754 -0.12100
C 	C 	0.78690 0.75814 0.42295 0.19500
C 	C 	0.77935 0.74358 0.46767 -0.10900
O 	O 	0.72119 0.80924 0.50935 -0.27600
H 	H 	0.74044 0.83256 0.42591 0.05700
O 	O 	0.80891 0.74166 0.39510 -0.28700
H 	H 	0.79027 0.71880 0.47928 0.08100
H 	H 	0.72601 0.77973 0.67201 0.13700
H 	H 	0.73262 0.82661 0.52972 0.14700
H 	H 	0.79739 0.72366 0.37584 0.15300
H 	H 	0.70359 0.70654 0.48174 0.15000
C 	C 	0.76802 0.97491 0.46670 -0.11400
C 	C 	0.79128 0.00059 0.47478 0.00700
C 	C 	0.81364 0.00732 0.43929 0.12300
C 	C 	0.81336 0.98743 0.39686 -0.03600
C 	C 	0.79044 0.96122 0.38890 -0.11800
C 	C 	0.76718 0.95563 0.42370 0.19300
C 	C 	0.79302 0.01934 0.52121 0.00500
O 	O 	0.83638 0.03258 0.44667 -0.27300
H 	H 	0.83126 0.99208 0.37034 0.05900
O 	O 	0.74378 0.93127 0.41595 -0.28400
H 	H 	0.75060 0.96983 0.49382 0.07200
C 	C 	0.77148 0.04643 0.53286 0.11600
C 	C 	0.77413 0.06501 0.57624 -0.03100
C 	C 	0.79817 0.05665 0.60832 -0.12000
C 	C 	0.81982 0.02965 0.59636 0.19200
C 	C 	0.81687 0.01081 0.55332 -0.10600
O 	O 	0.74852 0.05565 0.50118 -0.27200
H 	H 	0.75739 0.08576 0.58498 0.06200
O 	O 	0.84388 0.02166 0.62669 -0.29000
H 	H 	0.83349 0.98993 0.54450 0.08100
H 	H 	0.72694 0.94518 0.40036 0.14700
H 	H 	0.73048 0.04042 0.50989 0.14400
H 	H 	0.86113 0.03771 0.61684 0.14900
H 	H 	0.82767 0.05545 0.43424 0.15300
C 	C 	0.79380 0.00493 0.06330 -0.10700
C 	C 	0.79884 0.98981 0.01810 0.00100
C 	C 	0.80208 0.95229 0.01344 0.12400
C 	C 	0.80268 0.93052 0.05424 -0.03500
C 	C 	0.79961 0.94594 0.09981 -0.11600
C 	C 	0.79373 0.98311 0.10404 0.18700
C 	C 	0.80388 0.01350 0.97656 0.00900
O 	O 	0.80623 0.93710 0.96923 -0.27100
H 	H 	0.80669 0.90186 0.05049 0.07600
O 	O 	0.78901 0.99833 0.14811 -0.29700
H 	H 	0.79079 0.03376 0.06699 0.07200
C 	C 	0.77894 0.03238 0.95593 0.11600
C 	C 	0.78417 0.05510 0.91681 -0.03300
C 	C 	0.81419 0.05913 0.89817 -0.12200
C 	C 	0.83923 0.04087 0.91955 0.19700
C 	C 	0.83396 0.01798 0.95837 -0.11100
O 	O 	0.74933 0.02769 0.97287 -0.27500
H 	H 	0.76483 0.06923 0.90063 0.05200
O 	O 	0.86882 0.04513 0.90230 -0.28000
H 	H 	0.85330 0.00386 0.97456 0.08400
H 	H 	0.76627 0.99712 0.15343 0.14200
H 	H 	0.74645 0.04676 0.99726 0.14600
H 	H 	0.87758 0.06574 0.92035 0.15700
H 	H 	0.78503 0.93141 0.95765 0.15100
C 	C 	0.66775 0.50535 0.94651 -0.10800
C 	C 	0.68991 0.51587 0.98039 0.00400
C 	C 	0.70962 0.54516 0.97073 0.11600
C 	C 	0.70711 0.56365 0.92728 -0.03300
C 	C 	0.68455 0.55351 0.89358 -0.11900
C 	C 	0.66468 0.52430 0.90358 0.19100
C 	C 	0.69108 0.49755 0.02712 0.00600
O 	O 	0.73158 0.55549 0.00348 -0.27200
H 	H 	0.72261 0.58594 0.91991 0.06500
O 	O 	0.64215 0.51436 0.87153 -0.29200
H 	H 	0.65241 0.48291 0.95396 0.07900
C 	C 	0.66874 0.50530 0.06224 0.11500
C 	C 	0.66860 0.48608 0.10522 -0.03400
C 	C 	0.69100 0.45943 0.11395 -0.12100
C 	C 	0.71417 0.45266 0.07940 0.19400
C 	C 	0.71386 0.47144 0.03597 -0.11100
O 	O 	0.64642 0.53090 0.05399 -0.27400
H 	H 	0.65079 0.49161 0.13157 0.05300
O 	O 	0.73696 0.42766 0.08783 -0.28400
H 	H 	0.73129 0.46563 0.00914 0.08000
H 	H 	0.62352 0.52854 0.88050 0.14700
H 	H 	0.65546 0.55378 0.06581 0.14400
H 	H 	0.75409 0.44121 0.10321 0.15000
H 	H 	0.72113 0.57358 0.02399 0.14500
C 	C 	0.69693 0.51348 0.56852 -0.11500
C 	C 	0.68196 0.52078 0.52511 0.00600
C 	C 	0.66265 0.55119 0.52108 0.12400
C 	C 	0.65755 0.57324 0.56085 -0.02900
C 	C 	0.67137 0.56496 0.60486 -0.12200
C 	C 	0.69145 0.53522 0.60848 0.19200
C 	C 	0.68421 0.49480 0.48541 0.00700
O 	O 	0.64728 0.55813 0.47914 -0.26900
H 	H 	0.64197 0.59604 0.55788 0.06600
O 	O 	0.70617 0.52776 0.65082 -0.30100
H 	H 	0.71213 0.49035 0.57162 0.07300
C 	C 	0.70045 0.50372 0.44344 0.12000
C 	C 	0.69893 0.48092 0.40369 -0.03300
C 	C 	0.68205 0.44869 0.40603 -0.12100
C 	C 	0.66759 0.43863 0.44912 0.19700
C 	C 	0.66852 0.46182 0.48847 -0.11300
O 	O 	0.71674 0.53537 0.44058 -0.27600
H 	H 	0.71039 0.48861 0.37076 0.04700
O 	O 	0.65086 0.40727 0.45187 -0.27700
H 	H 	0.65629 0.45464 0.52095 0.07700
H 	H 	0.69233 0.51065 0.66775 0.14600
H 	H 	0.73800 0.52940 0.45168 0.14700
H 	H 	0.66576 0.38891 0.46355 0.15300
H 	H 	0.66095 0.57484 0.46123 0.15800
C 	C 	0.71663 0.25021 0.92343 -0.11000
C 	C 	0.72312 0.23585 0.96870 0.00400
C 	C 	0.74222 0.20529 0.97267 0.12000
C 	C 	0.75573 0.19030 0.93178 -0.03200
C 	C 	0.75115 0.20626 0.88685 -0.12400
C 	C 	0.73093 0.23596 0.88264 0.19100
C 	C 	0.71259 0.25495 0.01210 0.00400
O 	O 	0.74796 0.19024 0.01656 -0.27600
H 	H 	0.77063 0.16693 0.93524 0.06500
O 	O 	0.72558 0.25151 0.83894 -0.29600
H 	H 	0.70153 0.27341 0.92010 0.07300
C 	C 	0.72627 0.28793 0.02512 0.11900
C 	C 	0.71864 0.30402 0.06877 -0.03700
C 	C 	0.69763 0.28731 0.09993 -0.12100
C 	C 	0.68320 0.25486 0.08631 0.19400
C 	C 	0.69051 0.23901 0.04227 -0.10900
O 	O 	0.74831 0.30348 0.99639 -0.27600
H 	H 	0.72971 0.32908 0.07896 0.06000
O 	O 	0.66124 0.23927 0.11515 -0.28500
H 	H 	0.67952 0.21392 0.03206 0.08100
H 	H 	0.74157 0.27058 0.83575 0.13600
H 	H 	0.73671 0.32019 0.97530 0.14700
H 	H 	0.67274 0.22159 0.13495 0.15200
H 	H 	0.76677 0.20263 0.02869 0.15000
C 	C 	0.76669 0.31174 0.45916 -0.12000
C 	C 	0.77028 0.27449 0.46518 0.00800
C 	C 	0.76282 0.25106 0.42734 0.12000
C 	C 	0.74990 0.26481 0.38520 -0.03100
C 	C 	0.74397 0.30177 0.38078 -0.13200
C 	C 	0.75315 0.32539 0.41745 0.20000
C 	C 	0.77767 0.25995 0.51296 0.00500
O 	O 	0.76602 0.21456 0.43283 -0.27100
H 	H 	0.74295 0.24650 0.35701 0.04100
O 	O 	0.74878 0.36180 0.41265 -0.29600
H 	H 	0.77298 0.32997 0.48780 0.07400
C 	C 	0.80658 0.24367 0.52198 0.12000
C 	C 	0.81248 0.22803 0.56664 -0.02900
C 	C 	0.78994 0.22935 0.60285 -0.12100
C 	C 	0.76137 0.24651 0.59414 0.19100
C 	C 	0.75539 0.26179 0.54939 -0.11200
O 	O 	0.82880 0.24232 0.48692 -0.27500
H 	H 	0.83460 0.21505 0.57317 0.06200
O 	O 	0.73924 0.24832 0.62933 -0.30000
H 	H 	0.73319 0.27458 0.54275 0.07500
H 	H 	0.72836 0.36680 0.42765 0.16000
H 	H 	0.84120 0.26461 0.49099 0.14700
H 	H 	0.72635 0.22643 0.62514 0.14200
H 	H 	0.78697 0.20885 0.42023 0.15700
C 	C 	0.96229 0.16080 0.78118 -0.11000
C 	C 	0.97804 0.13367 0.75622 0.00600
C 	C 	0.96119 0.10891 0.72841 0.12100
C 	C 	0.92872 0.10989 0.72833 -0.03400
C 	C 	0.91280 0.13594 0.75523 -0.12000
C 	C 	0.92983 0.16249 0.78000 0.19100
C 	C 	0.01210 0.13043 0.76046 0.00600
O 	O 	0.97641 0.08284 0.70278 -0.27300
H 	H 	0.91594 0.08967 0.70852 0.05800
O 	O 	0.91478 0.18961 0.80389 -0.28400
H 	H 	0.97520 0.18038 0.80189 0.07400
C 	C 	0.03170 0.15561 0.73820 0.11700
C 	C 	0.06385 0.15020 0.73815 -0.03300
C 	C 	0.07672 0.11949 0.75977 -0.11900
C 	C 	0.05708 0.09507 0.78386 0.19300
C 	C 	0.02499 0.10097 0.78468 -0.10800
O 	O 	0.01937 0.18449 0.71425 -0.27300
H 	H 	0.07873 0.16938 0.72008 0.05800
O 	O 	0.06909 0.06517 0.80594 -0.28700
H 	H 	0.01000 0.08189 0.80274 0.08300
H 	H 	0.91253 0.20932 0.78024 0.14300
H 	H 	0.01865 0.20426 0.73803 0.14500
H 	H 	0.06872 0.04595 0.78135 0.14700
H 	H 	0.98029 0.09370 0.67096 0.15200
C 	C 	0.46393 0.38490 0.22738 -0.11300
C 	C 	0.48102 0.36496 0.26077 0.00600
C 	C 	0.46551 0.34194 0.29284 0.11900
C 	C 	0.43309 0.33912 0.29133 -0.03300
C 	C 	0.41611 0.35859 0.25734 -0.12500
C 	C 	0.43160 0.38182 0.22557 0.19200
C 	C 	0.51509 0.36893 0.26283 0.00500
O 	O 	0.48196 0.32262 0.32606 -0.27200
H 	H 	0.42124 0.32131 0.31599 0.05100
O 	O 	0.41520 0.40096 0.19210 -0.28300
H 	H 	0.47574 0.40286 0.20285 0.07200
C 	C 	0.53392 0.35476 0.22626 0.11700
C 	C 	0.56620 0.35920 0.22823 -0.03500
C 	C 	0.57981 0.37771 0.26651 -0.12200
C 	C 	0.56090 0.39239 0.30263 0.19200
C 	C 	0.52870 0.38783 0.30075 -0.10900
O 	O 	0.52094 0.33544 0.18957 -0.27100
H 	H 	0.58065 0.34774 0.20042 0.05400
O 	O 	0.57393 0.41075 0.34015 -0.27300
H 	H 	0.51427 0.39911 0.32873 0.08100
H 	H 	0.40985 0.42405 0.20788 0.14300
H 	H 	0.51686 0.35328 0.16396 0.14800
H 	H 	0.57480 0.43624 0.32968 0.14900
H 	H 	0.48705 0.29950 0.31017 0.15200
C 	C 	0.30354 0.20330 0.47127 -0.11100
C 	C 	0.28162 0.21889 0.50205 0.00500
C 	C 	0.26792 0.25204 0.48994 0.12300
C 	C 	0.27578 0.26903 0.44701 -0.03700
C 	C 	0.29670 0.25276 0.41525 -0.11900
C 	C 	0.31120 0.22014 0.42804 0.19200
C 	C 	0.27145 0.19940 0.54533 0.00400
O 	O 	0.24680 0.26784 0.52004 -0.27000
H 	H 	0.26489 0.29439 0.43774 0.06700
O 	O 	0.33253 0.20448 0.39815 -0.28600
H 	H 	0.31434 0.17790 0.48059 0.07200
C 	C 	0.25173 0.16938 0.54131 0.11700
C 	C 	0.23758 0.15507 0.58211 -0.02900
C 	C 	0.24286 0.17058 0.62713 -0.12600
C 	C 	0.26441 0.19894 0.63155 0.19300
C 	C 	0.27861 0.21319 0.59067 -0.11000
O 	O 	0.24463 0.15552 0.49721 -0.27000
H 	H 	0.22159 0.13270 0.57851 0.07300
O 	O 	0.26992 0.21446 0.67521 -0.30700
H 	H 	0.29416 0.23599 0.59402 0.08000
H 	H 	0.35288 0.21452 0.40799 0.15000
H 	H 	0.26017 0.13628 0.49160 0.14900
H 	H 	0.28812 0.20145 0.68836 0.14800
H 	H 	0.22629 0.25835 0.50998 0.15200
C 	C 	0.22726 0.22389 0.09015 -0.10900
C 	C 	0.23348 0.23947 0.04549 0.00400
C 	C 	0.25204 0.27055 0.04280 0.12400
C 	C 	0.26517 0.28498 0.08431 -0.03200
C 	C 	0.26078 0.26796 0.12861 -0.12200
C 	C 	0.24122 0.23760 0.13155 0.19100
C 	C 	0.22302 0.22136 0.00132 0.00900
O 	O 	0.25757 0.28670 0.99953 -0.27400
H 	H 	0.27958 0.30883 0.08182 0.07000
O 	O 	0.23612 0.22095 0.17460 -0.29400
H 	H 	0.21258 0.20026 0.09251 0.07300
C 	C 	0.23685 0.18881 0.98684 0.11300
C 	C 	0.22895 0.17350 0.94282 -0.03300
C 	C 	0.20750 0.19058 0.91274 -0.12400
C 	C 	0.19316 0.22275 0.92758 0.19800
C 	C 	0.20072 0.23780 0.97200 -0.11200
O 	O 	0.25923 0.17290 0.01460 -0.27400
H 	H 	0.23998 0.14867 0.93162 0.05100
O 	O 	0.17104 0.23884 0.89953 -0.28700
H 	H 	0.18970 0.26263 0.98324 0.08300
H 	H 	0.25251 0.20229 0.17714 0.13700
H 	H 	0.24791 0.15563 0.03527 0.14700
H 	H 	0.18247 0.25662 0.87980 0.15500
H 	H 	0.27663 0.27505 0.98703 0.15100
C 	C 	0.45058 0.59263 0.73331 -0.11000
C 	C 	0.46492 0.62041 0.75903 0.00500
C 	C 	0.44668 0.64491 0.78504 0.12200
C 	C 	0.41436 0.64109 0.78592 -0.03500
C 	C 	0.40001 0.61212 0.76234 -0.11800
C 	C 	0.41837 0.58794 0.73552 0.19100
C 	C 	0.49912 0.62328 0.75950 0.00600
O 	O 	0.46038 0.67273 0.80942 -0.27600
H 	H 	0.40050 0.66021 0.80592 0.05900
O 	O 	0.40497 0.55963 0.71172 -0.28500
H 	H 	0.46453 0.57406 0.71253 0.07300
C 	C 	0.51719 0.59692 0.78254 0.11500
C 	C 	0.54962 0.59860 0.78023 -0.03400
C 	C 	0.56428 0.62646 0.75488 -0.12200
C 	C 	0.54614 0.65405 0.73440 0.19200
C 	C 	0.51371 0.65199 0.73603 -0.10900
O 	O 	0.50320 0.56992 0.80814 -0.27300
H 	H 	0.56332 0.57764 0.79699 0.05500
O 	O 	0.56003 0.68274 0.71214 -0.28500
H 	H 	0.49989 0.67266 0.71886 0.08200
H 	H 	0.40523 0.53930 0.73469 0.14600
H 	H 	0.50083 0.54965 0.78536 0.14500
H 	H 	0.56304 0.70102 0.73755 0.14300
H 	H 	0.46472 0.66310 0.84179 0.15200
C 	C 	0.31569 0.48401 0.56019 -0.11500
C 	C 	0.28759 0.48086 0.53528 0.00600
C 	C 	0.26056 0.49704 0.55369 0.12400
C 	C 	0.26190 0.51640 0.59662 -0.02800
C 	C 	0.29006 0.51956 0.62149 -0.11900
C 	C 	0.31704 0.50335 0.60305 0.19400
C 	C 	0.28668 0.46081 0.48973 0.00600
O 	O 	0.23265 0.49281 0.53077 -0.27100
H 	H 	0.24099 0.52862 0.61079 0.05800
O 	O 	0.34468 0.50608 0.62714 -0.29300
H 	H 	0.33657 0.47162 0.54615 0.07400
C 	C 	0.28494 0.47937 0.44602 0.11900
C 	C 	0.28673 0.46040 0.40289 -0.03500
C 	C 	0.29149 0.42295 0.40287 -0.11800
C 	C 	0.29307 0.40437 0.44683 0.18900
C 	C 	0.29018 0.42330 0.48988 -0.11100
O 	O 	0.28151 0.51608 0.44537 -0.27700
H 	H 	0.28499 0.47496 0.36945 0.06100
O 	O 	0.29767 0.36783 0.44785 -0.27900
H 	H 	0.29156 0.40889 0.52350 0.07900
H 	H 	0.35473 0.52813 0.61447 0.15600
H 	H 	0.30294 0.52586 0.44530 0.14700
H 	H 	0.32051 0.36456 0.44907 0.15000
H 	H 	0.23069 0.51403 0.50948 0.15800
C 	C 	0.32039 0.51888 0.99398 -0.11900
C 	C 	0.30437 0.48608 0.99165 0.00400
C 	C 	0.28824 0.47670 0.94975 0.12500
C 	C 	0.28922 0.49951 0.90996 -0.03600
C 	C 	0.30605 0.53178 0.91180 -0.12300
C 	C 	0.32111 0.54185 0.95439 0.19800
C 	C 	0.30592 0.46085 0.03226 0.00800
O 	O 	0.27103 0.44566 0.94799 -0.27200
H 	H 	0.27722 0.49188 0.87746 0.04700
O 	O 	0.33798 0.57314 0.95650 -0.28400
H 	H 	0.33280 0.52623 0.02622 0.07500
C 	C 	0.32528 0.43039 0.03002 0.12100
C 	C 	0.32848 0.40808 0.06999 -0.02700
C 	C 	0.31331 0.41664 0.11285 -0.12100
C 	C 	0.29376 0.44694 0.11498 0.19200
C 	C 	0.28985 0.46868 0.07457 -0.11200
O 	O 	0.34116 0.42248 0.98885 -0.27600
H 	H 	0.34363 0.38482 0.06816 0.06700
O 	O 	0.27790 0.45485 0.15618 -0.30000
H 	H 	0.27484 0.49205 0.07641 0.07600
H 	H 	0.32330 0.59160 0.96855 0.15800
H 	H 	0.36129 0.43524 0.99178 0.14900
H 	H 	0.29155 0.47159 0.17410 0.14400
H 	H 	0.28518 0.42712 0.93475 0.15900
C 	C 	0.01267 0.82722 0.25901 -0.11500
C 	C 	0.99777 0.85994 0.24917 0.00600
C 	C 	0.01551 0.89117 0.24127 0.12400
C 	C 	0.04792 0.88963 0.24416 -0.03000
C 	C 	0.06283 0.85710 0.25514 -0.12300
C 	C 	0.04508 0.82574 0.26235 0.19600
C 	C 	0.96361 0.86131 0.24624 0.00400
O 	O 	0.00116 0.92349 0.23266 -0.27000
H 	H 	0.06141 0.91397 0.23914 0.05400
O 	O 	0.05941 0.79343 0.27113 -0.30000
H 	H 	0.99911 0.80297 0.26428 0.07300
C 	C 	0.94883 0.86297 0.20155 0.12000
C 	C 	0.91656 0.86642 0.19904 -0.03600
C 	C 	0.89863 0.86733 0.24098 -0.12000
C 	C 	0.91338 0.86400 0.28575 0.18900
C 	C 	0.94580 0.86145 0.28820 -0.11000
O 	O 	0.96601 0.86234 0.16028 -0.27400
H 	H 	0.90551 0.86886 0.16441 0.06800
O 	O 	0.89625 0.86355 0.32706 -0.28400
H 	H 	0.95710 0.85967 0.32272 0.07800
H 	H 	0.06033 0.79136 0.30644 0.15500
H 	H 	0.96772 0.83653 0.15158 0.14900
H 	H 	0.89137 0.83782 0.33285 0.14800
H 	H 	0.99962 0.92529 0.19738 0.15900
C 	C 	0.20689 0.93305 0.03918 -0.11300
C 	C 	0.18833 0.96354 0.03177 0.00800
C 	C 	0.16892 0.97599 0.06859 0.11800
C 	C 	0.16716 0.95711 0.11172 -0.03400
C 	C 	0.18516 0.92607 0.11899 -0.12100
C 	C 	0.20575 0.91456 0.08279 0.19500
C 	C 	0.18826 0.98160 0.98481 0.00300
O 	O 	0.15083 0.00597 0.06184 -0.27100
H 	H 	0.15136 0.96630 0.13929 0.05500
O 	O 	0.22454 0.88521 0.08974 -0.28200
H 	H 	0.22213 0.92358 0.01104 0.07400
C 	C 	0.21292 0.00428 0.97148 0.11600
C 	C 	0.21151 0.02338 0.92837 -0.03100
C 	C 	0.18560 0.01988 0.89821 -0.11900
C 	C 	0.16101 0.99695 0.91159 0.19200
C 	C 	0.16266 0.97758 0.95438 -0.10800
O 	O 	0.23783 0.00893 0.00139 -0.27200
H 	H 	0.23057 0.04089 0.91844 0.06000
O 	O 	0.13530 0.99358 0.88301 -0.29200
H 	H 	0.14365 0.96005 0.96449 0.08100
H 	H 	0.24399 0.89497 0.10358 0.14800
H 	H 	0.25313 0.99041 0.99155 0.14100
H 	H 	0.12070 0.01246 0.89414 0.15600
H 	H 	0.16377 0.02650 0.07265 0.15100
C 	C 	0.16188 0.92584 0.49426 -0.11200
C 	C 	0.16984 0.96221 0.48896 0.00600
C 	C 	0.17693 0.97584 0.44339 0.12000
C 	C 	0.17495 0.95342 0.40335 -0.03400
C 	C 	0.16494 0.91763 0.40812 -0.11900
C 	C 	0.15878 0.90368 0.45408 0.19500
C 	C 	0.16801 0.98663 0.53044 0.00200
O 	O 	0.18565 0.01112 0.43791 -0.27200
H 	H 	0.18032 0.96420 0.36832 0.04900
O 	O 	0.14932 0.86868 0.45979 -0.27600
H 	H 	0.15683 0.91510 0.52943 0.07200
C 	C 	0.13898 0.99568 0.55013 0.11500
C 	C 	0.13737 0.01869 0.58957 -0.02900
C 	C 	0.16457 0.03284 0.60968 -0.12100
C 	C 	0.19358 0.02432 0.58952 0.18800
C 	C 	0.19521 0.00124 0.55003 -0.10400
O 	O 	0.11213 0.98303 0.52980 -0.27100
H 	H 	0.11493 0.02556 0.60455 0.06300
O 	O 	0.22030 0.03875 0.60811 -0.28900
H 	H 	0.21761 0.99460 0.53474 0.07800
H 	H 	0.12632 0.86947 0.45835 0.15600
H 	H 	0.10726 0.96047 0.54721 0.14500
H 	H 	0.22734 0.02130 0.63265 0.14000
H 	H 	0.16605 0.02454 0.43258 0.15400
C 	C 	0.20656 0.72552 0.46569 -0.11600
C 	C 	0.23865 0.72929 0.47209 0.00400
C 	C 	0.25652 0.74684 0.43703 0.12300
C 	C 	0.24205 0.76126 0.39643 -0.03400
C 	C 	0.20976 0.75839 0.39070 -0.12700
C 	C 	0.19214 0.73950 0.42497 0.19300
C 	C 	0.25329 0.71502 0.51587 0.00500
O 	O 	0.28816 0.74911 0.44176 -0.27300
H 	H 	0.25587 0.77527 0.36995 0.05600
O 	O 	0.16077 0.73499 0.41893 -0.28200
H 	H 	0.19276 0.71171 0.49238 0.07200
C 	C 	0.26133 0.73838 0.55344 0.11900
C 	C 	0.27116 0.72433 0.59733 -0.03700
C 	C 	0.27204 0.68691 0.60472 -0.11700
C 	C 	0.26446 0.66356 0.56665 0.18600
C 	C 	0.25567 0.67772 0.52233 -0.11100
O 	O 	0.25944 0.77497 0.54740 -0.27700
H 	H 	0.27748 0.74259 0.62592 0.06000
O 	O 	0.26529 0.62692 0.57282 -0.27700
H 	H 	0.24950 0.65963 0.49347 0.07500
H 	H 	0.15851 0.71206 0.40110 0.14000
H 	H 	0.23807 0.78153 0.55733 0.14700
H 	H 	0.24415 0.62018 0.58365 0.14300
H 	H 	0.29201 0.77240 0.45805 0.15800
C 	C 	0.17309 0.70602 0.04622 -0.11100
C 	C 	0.19566 0.72183 0.01681 0.00600
C 	C 	0.20931 0.75470 0.03030 0.12200
C 	C 	0.20078 0.77114 0.07332 -0.03800
C 	C 	0.17932 0.75452 0.10388 -0.11900
C 	C 	0.16508 0.72202 0.08988 0.19300
C 	C 	0.20669 0.70270 0.97374 0.00300
O 	O 	0.23098 0.77080 0.00143 -0.27300
H 	H 	0.21155 0.79636 0.08360 0.06300
O 	O 	0.14256 0.70661 0.11785 -0.28300
H 	H 	0.16219 0.68095 0.03569 0.07300
C 	C 	0.22633 0.67265 0.97825 0.11400
C 	C 	0.24069 0.65812 0.93776 -0.03100
C 	C 	0.23571 0.67343 0.89253 -0.12600
C 	C 	0.21476 0.70235 0.88772 0.19100
C 	C 	0.20007 0.71657 0.92824 -0.10900
O 	O 	0.23302 0.65884 0.02253 -0.27600
H 	H 	0.25644 0.63556 0.94173 0.06200
O 	O 	0.20908 0.71724 0.84372 -0.29900
H 	H 	0.18455 0.73935 0.92450 0.08000
H 	H 	0.15362 0.68880 0.13805 0.15000
H 	H 	0.21734 0.63972 0.02794 0.14400
H 	H 	0.22460 0.73678 0.84018 0.13600
H 	H 	0.25128 0.76106 0.01209 0.14800
