data_crystal

_cell_length_a 43.96701
_cell_length_b 40.79265
_cell_length_c 20.19982
_cell_angle_alpha 89.68175
_cell_angle_beta  89.32925
_cell_angle_gamma 90.01556

_symmetry_space_group_name_	'P 1'
_symmetry_space_group_name_H-M	'P 1'

loop_
_symmetry_equiv_pos_as_xyz
  x,y,z

loop_
_atom_site_label
_atom_site_type_symbol
_atom_site_fract_x
_atom_site_fract_y
_atom_site_fract_z
_atom_site_charge
Cd	Cd	0.97473 0.84308 0.26559 1.24000
Cd	Cd	0.00754 0.88793 0.39996 1.17600
O 	O 	0.91995 0.82976 0.26912 -0.32400
O 	O 	0.94893 0.81747 0.18376 -0.35700
C 	C 	0.92216 0.81557 0.21173 0.26700
O 	O 	0.02157 0.85558 0.22918 -0.37200
O 	O 	0.04055 0.86231 0.33292 -0.42400
C 	C 	0.04181 0.86858 0.26915 0.28500
C 	C 	0.96651 0.91243 0.27188 0.30100
O 	O 	0.98402 0.83721 0.39368 -0.44700
O 	O 	0.95815 0.90084 0.21469 -0.30600
O 	O 	0.97234 0.89059 0.31713 -0.52900
C 	C 	0.99788 0.80954 0.38092 0.29300
O 	O 	0.99370 0.79827 0.32138 -0.36000
Cd	Cd	0.05564 0.84902 0.00226 1.23700
Cd	Cd	0.12655 0.87228 0.93151 1.16100
O 	O 	0.04259 0.79276 0.04096 -0.32700
O 	O 	0.01199 0.83468 0.05446 -0.36500
C 	C 	0.01573 0.80316 0.05931 0.26900
O 	O 	0.05207 0.90286 0.99118 -0.39500
O 	O 	0.08965 0.90941 0.91269 -0.43900
C 	C 	0.07150 0.92181 0.95861 0.29100
C 	C 	0.10504 0.86433 0.08591 0.29100
O 	O 	0.09105 0.83303 0.90043 -0.46500
O 	O 	0.07974 0.86097 0.11996 -0.29500
O 	O 	0.10406 0.85273 0.02632 -0.54700
C 	C 	0.06731 0.83786 0.86355 0.29500
O 	O 	0.04168 0.84327 0.89444 -0.37800
C 	C 	0.86359 0.70791 0.97761 0.11600
N 	N 	0.85256 0.70975 0.91512 -0.14300
C 	C 	0.83169 0.68759 0.89437 0.12700
N 	N 	0.82187 0.66374 0.93662 -0.14600
C 	C 	0.83410 0.66067 0.99775 0.13900
N 	N 	0.85456 0.68319 0.01854 -0.14700
C 	C 	0.84860 0.65444 0.29849 0.10700
N 	N 	0.83804 0.66664 0.35692 -0.14200
C 	C 	0.83424 0.64662 0.41025 0.12600
N 	N 	0.83983 0.61407 0.40443 -0.14300
C 	C 	0.84986 0.60158 0.34600 0.12500
N 	N 	0.85416 0.62177 0.29303 -0.14600
Cd	Cd	0.93146 0.98756 0.60187 1.23900
Cd	Cd	0.95279 0.93263 0.73215 1.16400
O 	O 	0.87823 0.98902 0.56509 -0.32800
O 	O 	0.91166 0.02541 0.53167 -0.35600
C 	C 	0.88316 0.01675 0.53469 0.27100
O 	O 	0.97825 0.00356 0.62792 -0.38400
O 	O 	0.99236 0.95516 0.67705 -0.42700
C 	C 	0.99641 0.98688 0.66748 0.28300
C 	C 	0.91620 0.00313 0.73588 0.31100
O 	O 	0.93371 0.92457 0.62652 -0.46100
O 	O 	0.91218 0.02809 0.69632 -0.30500
O 	O 	0.92210 0.97561 0.70655 -0.54700
C 	C 	0.94992 0.92105 0.57252 0.28900
O 	O 	0.95170 0.94698 0.53434 -0.38200
Cd	Cd	0.95566 0.15433 0.54691 1.23900
Cd	Cd	0.02501 0.17410 0.46002 1.18000
O 	O 	0.90890 0.18391 0.51624 -0.32400
O 	O 	0.90793 0.14209 0.58495 -0.36000
C 	C 	0.89253 0.16406 0.55244 0.26900
O 	O 	0.98872 0.11537 0.57886 -0.37800
O 	O 	0.03125 0.14578 0.55386 -0.42300
C 	C 	0.01836 0.11730 0.56673 0.27700
C 	C 	0.96566 0.12888 0.41704 0.30500
O 	O 	0.99258 0.20439 0.52811 -0.44600
O 	O 	0.94246 0.11506 0.44675 -0.29900
O 	O 	0.97699 0.15403 0.44740 -0.53200
C 	C 	0.99410 0.20690 0.59251 0.29700
O 	O 	0.97435 0.18935 0.62591 -0.36900
C 	C 	0.75602 0.12460 0.69615 0.11200
N 	N 	0.75796 0.14416 0.75025 -0.14400
C 	C 	0.73256 0.15169 0.78611 0.12700
N 	N 	0.70499 0.14099 0.76549 -0.14500
C 	C 	0.70284 0.12187 0.71093 0.12700
N 	N 	0.72850 0.11290 0.67779 -0.14200
C 	C 	0.73696 0.13580 0.37180 0.11100
N 	N 	0.73805 0.14684 0.30831 -0.14200
C 	C 	0.71277 0.14627 0.27057 0.12600
N 	N 	0.68609 0.13528 0.29690 -0.14400
C 	C 	0.68494 0.12359 0.36000 0.12400
N 	N 	0.71043 0.12391 0.39749 -0.14400
Cd	Cd	0.11071 0.16279 0.32933 1.23500
Cd	Cd	0.18399 0.12796 0.33064 1.16300
O 	O 	0.10217 0.22274 0.32161 -0.33600
O 	O 	0.06453 0.18738 0.32259 -0.42400
C 	C 	0.07285 0.21798 0.32256 0.27000
O 	O 	0.10143 0.10991 0.32406 -0.40700
O 	O 	0.14738 0.09243 0.36271 -0.43700
C 	C 	0.12225 0.08690 0.32948 0.29500
C 	C 	0.14221 0.15266 0.20779 0.28800
O 	O 	0.16080 0.16626 0.40042 -0.46900
O 	O 	0.11391 0.16108 0.19730 -0.29300
O 	O 	0.15157 0.15824 0.26735 -0.54100
C 	C 	0.14386 0.16050 0.45280 0.29600
O 	O 	0.11489 0.15727 0.44138 -0.40500
Cd	Cd	0.01450 0.21127 0.11165 1.24000
Cd	Cd	0.02594 0.18630 0.94262 1.17100
O 	O 	0.97074 0.24644 0.13923 -0.32600
O 	O 	0.00090 0.22716 0.21607 -0.35800
C 	C 	0.97714 0.24470 0.20181 0.27400
O 	O 	0.05056 0.17285 0.11784 -0.37300
O 	O 	0.06541 0.17731 0.00943 -0.42600
C 	C 	0.06256 0.15975 0.06388 0.29100
C 	C 	0.97752 0.16063 0.05836 0.30700
O 	O 	0.02599 0.23703 0.99399 -0.44500
O 	O 	0.97473 0.16195 0.12278 -0.30700
O 	O 	0.99284 0.18438 0.03096 -0.54000
C 	C 	0.04950 0.25145 0.02000 0.28000
O 	O 	0.05059 0.25026 0.08455 -0.35600
C 	C 	0.91759 0.40271 0.17857 0.11200
N 	N 	0.89971 0.42879 0.19368 -0.14100
C 	C 	0.88506 0.44518 0.14473 0.12400
N 	N 	0.88799 0.43510 0.08098 -0.14500
C 	C 	0.90667 0.40971 0.06563 0.12200
N 	N 	0.92125 0.39340 0.11454 -0.14000
C 	C 	0.94647 0.33229 0.48536 0.11200
N 	N 	0.94387 0.33352 0.55242 -0.14200
C 	C 	0.92933 0.35913 0.58167 0.12600
N 	N 	0.91653 0.38281 0.54373 -0.14400
C 	C 	0.91803 0.38094 0.47670 0.12700
N 	N 	0.93347 0.35595 0.44756 -0.14100
Cd	Cd	0.25568 0.08850 0.87339 1.24000
Cd	Cd	0.20482 0.10603 0.00733 1.17500
O 	O 	0.31158 0.09116 0.88601 -0.32500
O 	O 	0.29024 0.07281 0.79528 -0.36200
C 	C 	0.31513 0.07933 0.82669 0.27000
O 	O 	0.21033 0.07395 0.83633 -0.38900
O 	O 	0.18193 0.10530 0.90811 -0.42500
C 	C 	0.18398 0.08134 0.86464 0.28900
C 	C 	0.24528 0.04018 0.97388 0.31100
O 	O 	0.24147 0.13734 0.95219 -0.45600
O 	O 	0.25962 0.02782 0.92282 -0.30400
O 	O 	0.24288 0.07189 0.97346 -0.53500
C 	C 	0.23709 0.15528 0.89952 0.29200
O 	O 	0.24567 0.14219 0.84352 -0.36200
Cd	Cd	0.23934 0.92307 0.43451 1.23800
Cd	Cd	0.17927 0.91000 0.32169 1.17700
O 	O 	0.29110 0.90252 0.40998 -0.32700
O 	O 	0.28135 0.93393 0.49578 -0.36300
C 	C 	0.30153 0.91782 0.46134 0.26900
O 	O 	0.20125 0.95371 0.47369 -0.39300
O 	O 	0.16299 0.92497 0.42361 -0.42500
C 	C 	0.17231 0.95063 0.45749 0.28600
C 	C 	0.23628 0.96283 0.31795 0.30800
O 	O 	0.21009 0.87409 0.38004 -0.46100
O 	O 	0.25521 0.97500 0.36068 -0.31200
O 	O 	0.22578 0.93387 0.33240 -0.53900
C 	C 	0.20461 0.86268 0.43941 0.29400
O 	O 	0.21852 0.87762 0.48739 -0.36500
C 	C 	0.46723 0.98853 0.73989 0.11000
N 	N 	0.49017 0.99690 0.69746 -0.14100
C 	C 	0.51962 0.99201 0.71476 0.12300
N 	N 	0.52600 0.97919 0.77533 -0.14400
C 	C 	0.50313 0.97061 0.81767 0.12700
N 	N 	0.47382 0.97386 0.79843 -0.14000
C 	C 	0.47628 0.94092 0.38889 0.11200
N 	N 	0.49348 0.96032 0.42819 -0.14300
C 	C 	0.52044 0.97231 0.40513 0.12800
N 	N 	0.53066 0.96387 0.34389 -0.14600
C 	C 	0.51332 0.94508 0.30389 0.12700
N 	N 	0.48583 0.93420 0.32618 -0.14200
C 	C 	0.50981 0.96454 0.88809 -0.05100
C 	C 	0.49769 0.98513 0.93815 0.10600
C 	C 	0.50144 0.97652 0.00481 -0.09100
C 	C 	0.51991 0.94996 0.02263 -0.00900
C 	C 	0.53372 0.93056 0.97262 0.07300
C 	C 	0.52792 0.93764 0.90570 -0.05300
N 	N 	0.48363 0.01384 0.92262 -0.19800
H 	H 	0.49118 0.99154 0.04318 0.05500
C 	C 	0.52543 0.94371 0.09390 -0.00600
N 	N 	0.55283 0.90553 0.98831 -0.19200
H 	H 	0.53767 0.92228 0.86729 0.04700
C 	C 	0.51049 0.91751 0.12570 -0.08700
C 	C 	0.51053 0.91477 0.19507 0.10000
C 	C 	0.52219 0.94091 0.23314 -0.05100
C 	C 	0.53943 0.96552 0.20125 -0.05400
C 	C 	0.54200 0.96644 0.13194 0.06800
H 	H 	0.49908 0.89911 0.09645 0.05300
N 	N 	0.50102 0.88646 0.22448 -0.19800
H 	H 	0.55013 0.98454 0.23012 0.04900
N 	N 	0.56019 0.98926 0.10218 -0.19500
H 	H 	0.49065 0.86816 0.19662 0.08200
H 	H 	0.50612 0.88128 0.27380 0.09000
H 	H 	0.57142 0.00681 0.13042 0.08200
H 	H 	0.56436 0.98894 0.05119 0.08500
H 	H 	0.56248 0.89103 0.95109 0.08200
H 	H 	0.55884 0.90063 0.03720 0.08200
H 	H 	0.48487 0.02373 0.87490 0.09300
H 	H 	0.47307 0.02778 0.95956 0.08700
C 	C 	0.33446 0.92324 0.46946 -0.06600
C 	C 	0.34513 0.95265 0.49675 0.00600
C 	C 	0.37604 0.96067 0.49251 -0.06300
C 	C 	0.39655 0.93942 0.46072 0.02900
C 	C 	0.38625 0.90877 0.43755 0.00300
C 	C 	0.35530 0.90067 0.44283 -0.01700
C 	C 	0.40673 0.88742 0.40609 -0.04100
C 	C 	0.43668 0.89728 0.39359 -0.02800
C 	C 	0.44656 0.92856 0.41262 -0.00800
C 	C 	0.42680 0.94910 0.44857 -0.05200
H 	H 	0.32934 0.96995 0.51871 0.04000
H 	H 	0.38381 0.98388 0.51199 0.04500
H 	H 	0.34723 0.87751 0.42358 0.04400
H 	H 	0.39924 0.86356 0.38945 0.03800
H 	H 	0.45202 0.88094 0.36743 0.03900
H 	H 	0.43446 0.97312 0.46399 0.04800
C 	C 	0.43736 0.00387 0.73234 -0.00400
C 	C 	0.41206 0.98472 0.71605 -0.03000
C 	C 	0.38264 0.99719 0.72460 -0.04200
C 	C 	0.37831 0.02860 0.75129 0.00400
C 	C 	0.40382 0.04846 0.76487 0.02900
C 	C 	0.43321 0.03625 0.75358 -0.05300
C 	C 	0.39964 0.07937 0.79365 -0.06300
C 	C 	0.37052 0.08980 0.81214 0.00600
C 	C 	0.34520 0.06977 0.80074 -0.06600
C 	C 	0.34900 0.03965 0.76827 -0.01600
H 	H 	0.41516 0.95977 0.69916 0.04100
H 	H 	0.36325 0.98193 0.71303 0.04100
H 	H 	0.45286 0.05104 0.76583 0.04400
H 	H 	0.41903 0.09492 0.80363 0.04300
H 	H 	0.36767 0.11330 0.83619 0.03600
H 	H 	0.32940 0.02423 0.75917 0.04700
C 	C 	0.91138 0.39999 0.99588 -0.04600
C 	C 	0.91997 0.42323 0.94666 0.09900
C 	C 	0.92134 0.41363 0.88006 -0.08600
C 	C 	0.91683 0.38082 0.86237 -0.00500
C 	C 	0.91028 0.35712 0.91205 0.06800
C 	C 	0.90699 0.36711 0.97821 -0.04800
N 	N 	0.92820 0.45426 0.96320 -0.19600
H 	H 	0.92694 0.43158 0.84202 0.05400
C 	C 	0.91972 0.37156 0.79165 -0.00600
N 	N 	0.90700 0.32489 0.89665 -0.19400
H 	H 	0.90094 0.34922 0.01605 0.04600
C 	C 	0.94885 0.36863 0.76330 -0.08600
C 	C 	0.95267 0.36438 0.69474 0.10000
C 	C 	0.92666 0.36095 0.65445 -0.05000
C 	C 	0.89753 0.36219 0.68346 -0.05300
C 	C 	0.89374 0.36809 0.75147 0.06900
H 	H 	0.96867 0.37115 0.79433 0.05400
N 	N 	0.98121 0.36484 0.66787 -0.19800
H 	H 	0.87767 0.35950 0.65258 0.04700
N 	N 	0.86517 0.37070 0.77762 -0.19400
H 	H 	0.00020 0.36627 0.69835 0.08100
H 	H 	0.98489 0.36510 0.61677 0.09300
H 	H 	0.84617 0.36807 0.74750 0.08200
H 	H 	0.86147 0.37544 0.82778 0.08800
H 	H 	0.90175 0.30767 0.93356 0.08400
H 	H 	0.91000 0.31650 0.84829 0.08700
H 	H 	0.93221 0.46074 0.01224 0.08800
H 	H 	0.93268 0.47174 0.92634 0.08300
C 	C 	0.07784 0.25584 0.98102 -0.07600
C 	C 	0.10358 0.26922 0.01118 -0.00500
C 	C 	0.13262 0.26189 0.98673 -0.03700
C 	C 	0.13605 0.23982 0.93361 0.00500
C 	C 	0.11023 0.23229 0.89540 -0.00000
C 	C 	0.08113 0.24076 0.91899 -0.02000
C 	C 	0.11359 0.21442 0.83679 -0.04600
C 	C 	0.14170 0.20091 0.81962 -0.04200
C 	C 	0.16644 0.20361 0.86259 0.00400
C 	C 	0.16401 0.22344 0.91999 0.00200
C 	C 	0.18794 0.22293 0.96623 -0.05100
C 	C 	0.21306 0.20256 0.95636 -0.01100
C 	C 	0.21481 0.18216 0.90098 -0.09600
C 	C 	0.19236 0.18412 0.85235 -0.01300
H 	H 	0.10115 0.28395 0.05539 0.04100
H 	H 	0.15207 0.27383 0.00824 0.03300
H 	H 	0.06116 0.23322 0.89198 -0.03700
H 	H 	0.09417 0.21008 0.80557 0.02000
H 	H 	0.14372 0.18650 0.77484 0.03700
H 	H 	0.18636 0.23633 0.01206 0.03100
H 	H 	0.23050 0.20138 0.99377 0.02100
H 	H 	0.19379 0.16837 0.80931 0.04500
C 	C 	0.93229 0.38375 0.23097 -0.00700
C 	C 	0.96395 0.38605 0.23744 -0.03100
C 	C 	0.98075 0.35833 0.25508 -0.03500
C 	C 	0.96584 0.32824 0.26462 0.00200
C 	C 	0.93377 0.32770 0.27119 0.03500
C 	C 	0.91715 0.35623 0.25706 -0.05000
C 	C 	0.91878 0.29753 0.27881 -0.06100
C 	C 	0.93451 0.26841 0.26608 0.00900
C 	C 	0.96533 0.26944 0.24752 -0.06700
C 	C 	0.98161 0.29874 0.25484 -0.00700
H 	H 	0.97575 0.40809 0.22155 0.03600
H 	H 	0.00538 0.35949 0.25439 0.03600
H 	H 	0.89249 0.35534 0.25636 0.04700
H 	H 	0.89445 0.29675 0.28791 0.04700
H 	H 	0.92210 0.24548 0.26428 0.03300
H 	H 	0.00584 0.29917 0.24397 0.04000
C 	C 	0.22423 0.98297 0.26328 -0.13300
C 	C 	0.19325 0.98195 0.24817 0.03600
C 	C 	0.18004 0.00718 0.21127 -0.07700
C 	C 	0.19772 0.03429 0.18980 0.01100
C 	C 	0.22963 0.03346 0.19951 -0.01900
C 	C 	0.24274 0.00714 0.23398 0.00700
C 	C 	0.24753 0.06068 0.18165 -0.04400
C 	C 	0.23379 0.09043 0.16550 -0.08900
C 	C 	0.20205 0.09278 0.16362 -0.07000
C 	C 	0.18411 0.06401 0.16735 -0.02500
C 	C 	0.15268 0.06670 0.15525 -0.07800
C 	C 	0.13864 0.09739 0.15822 -0.01900
C 	C 	0.15601 0.12556 0.17022 -0.12100
C 	C 	0.18780 0.12362 0.16488 -0.10700
H 	H 	0.17896 0.96264 0.26799 -0.07800
H 	H 	0.15603 0.00587 0.20166 0.04900
H 	H 	0.26702 0.00702 0.24307 0.03300
H 	H 	0.27208 0.05952 0.18543 0.03000
H 	H 	0.24779 0.11200 0.15764 0.00800
H 	H 	0.13913 0.04548 0.14338 0.04200
H 	H 	0.11408 0.09885 0.15757 0.04100
H 	H 	0.20136 0.14571 0.16919 -0.00400
C 	C 	0.05168 0.24402 0.34483 -0.09100
C 	C 	0.06205 0.27644 0.35131 0.00900
C 	C 	0.04339 0.30025 0.38031 -0.07100
C 	C 	0.01406 0.29202 0.40286 0.02700
C 	C 	0.00312 0.25974 0.39472 -0.01100
C 	C 	0.02187 0.23597 0.36518 -0.03400
C 	C 	0.97344 0.25176 0.41555 -0.03500
C 	C 	0.95501 0.27546 0.44559 -0.02500
C 	C 	0.96589 0.30743 0.45419 -0.00800
C 	C 	0.99530 0.31577 0.43240 -0.04800
H 	H 	0.08476 0.28311 0.33484 0.03600
H 	H 	0.05184 0.32506 0.38544 0.04300
H 	H 	0.01338 0.21126 0.35856 -0.01800
H 	H 	0.96460 0.22724 0.40843 0.03700
H 	H 	0.93218 0.26903 0.46173 0.04600
H 	H 	0.00351 0.34065 0.43844 0.04100
C 	C 	0.65829 0.10437 0.38213 -0.05200
C 	C 	0.63885 0.11539 0.43379 0.09600
C 	C 	0.61429 0.09563 0.45455 -0.08800
C 	C 	0.60852 0.06558 0.42367 -0.00700
C 	C 	0.62658 0.05592 0.36855 0.07000
C 	C 	0.65198 0.07479 0.35013 -0.05400
N 	N 	0.64348 0.14484 0.46335 -0.20000
H 	H 	0.59967 0.10364 0.49487 0.05100
C 	C 	0.58274 0.04502 0.44749 -0.00500
N 	N 	0.61916 0.02919 0.33205 -0.19400
H 	H 	0.66654 0.06678 0.30962 0.04500
C 	C 	0.55305 0.05464 0.43207 -0.08600
C 	C 	0.52968 0.03124 0.42954 0.10200
C 	C 	0.53652 0.99792 0.44180 -0.05300
C 	C 	0.56427 0.98989 0.47121 -0.05400
C 	C 	0.58775 0.01322 0.47370 0.07300
H 	H 	0.54865 0.07972 0.41693 0.05200
N 	N 	0.50115 0.04061 0.41254 -0.20000
H 	H 	0.56872 0.96471 0.48561 0.04700
N 	N 	0.61537 0.00447 0.49762 -0.19300
H 	H 	0.49652 0.06506 0.40064 0.08300
H 	H 	0.48310 0.02397 0.41348 0.09300
H 	H 	0.61894 0.98088 0.51640 0.08100
H 	H 	0.63341 0.02108 0.49854 0.08500
H 	H 	0.63344 0.02140 0.29351 0.08100
H 	H 	0.59850 0.01697 0.33901 0.09000
H 	H 	0.66087 0.16060 0.44770 0.08900
H 	H 	0.62941 0.15238 0.50246 0.08200
C 	C 	0.67322 0.10695 0.69360 -0.05200
C 	C 	0.66717 0.09688 0.62800 0.10100
C 	C 	0.64283 0.07556 0.61630 -0.09000
C 	C 	0.62240 0.06714 0.66730 -0.00400
C 	C 	0.62697 0.07929 0.73201 0.07000
C 	C 	0.65241 0.09899 0.74452 -0.05400
N 	N 	0.68397 0.10847 0.57603 -0.19900
H 	H 	0.63911 0.06652 0.56688 0.05400
C 	C 	0.59621 0.04571 0.65257 -0.00700
N 	N 	0.60740 0.07167 0.78253 -0.19400
H 	H 	0.65658 0.10709 0.79463 0.05200
C 	C 	0.59919 0.01177 0.66146 -0.08100
C 	C 	0.57327 0.99212 0.67100 0.09600
C 	C 	0.54433 0.00712 0.67482 -0.04600
C 	C 	0.54119 0.03974 0.65345 -0.05500
C 	C 	0.56705 0.05924 0.64190 0.07200
H 	H 	0.62166 0.00094 0.66445 0.05200
N 	N 	0.57621 0.95906 0.67640 -0.19800
H 	H 	0.51877 0.05072 0.65109 0.05000
N 	N 	0.56377 0.09108 0.62312 -0.19400
H 	H 	0.59773 0.94818 0.67587 0.08200
H 	H 	0.55710 0.94384 0.67800 0.09000
H 	H 	0.54212 0.10108 0.61658 0.08100
H 	H 	0.58264 0.10593 0.61322 0.08400
H 	H 	0.61097 0.08087 0.83001 0.08400
H 	H 	0.58859 0.05653 0.77555 0.09000
H 	H 	0.69639 0.13020 0.57973 0.09300
H 	H 	0.68295 0.09709 0.52992 0.09100
C 	C 	0.73547 0.16549 0.85349 -0.05100
C 	C 	0.71173 0.18438 0.88190 0.10100
C 	C 	0.70885 0.18607 0.95113 -0.08800
C 	C 	0.73088 0.17180 0.99182 -0.00100
C 	C 	0.75746 0.15825 0.96287 0.07300
C 	C 	0.75931 0.15467 0.89386 -0.05500
N 	N 	0.69223 0.20150 0.84309 -0.19900
H 	H 	0.68925 0.19806 0.97332 0.05500
C 	C 	0.72382 0.16653 0.06300 -0.01100
N 	N 	0.78100 0.14823 0.00109 -0.20000
H 	H 	0.77856 0.14192 0.87203 0.05000
C 	C 	0.71453 0.13527 0.08417 -0.08400
C 	C 	0.71142 0.12790 0.15181 0.09800
C 	C 	0.71534 0.15311 0.19899 -0.05000
C 	C 	0.72335 0.18477 0.17767 -0.05400
C 	C 	0.72802 0.19169 0.11006 0.06900
H 	H 	0.71121 0.11613 0.04790 0.05200
N 	N 	0.70590 0.09639 0.17107 -0.19900
H 	H 	0.72647 0.20398 0.21389 0.04700
N 	N 	0.73692 0.22230 0.09091 -0.19500
H 	H 	0.70163 0.07835 0.13583 0.08100
H 	H 	0.70736 0.08908 0.22050 0.09000
H 	H 	0.73999 0.24067 0.12607 0.08100
H 	H 	0.74097 0.22817 0.04124 0.08400
H 	H 	0.80009 0.13712 0.97961 0.08600
H 	H 	0.78107 0.15247 0.05203 0.08800
H 	H 	0.69623 0.20409 0.79225 0.09000
H 	H 	0.67385 0.21409 0.86416 0.08300
C 	C 	0.02300 0.21628 0.62324 -0.10000
C 	C 	0.03638 0.19507 0.66951 0.00500
C 	C 	0.06801 0.19359 0.67425 -0.06000
C 	C 	0.08626 0.21343 0.63243 0.00000
C 	C 	0.07243 0.24041 0.60005 -0.00200
C 	C 	0.04062 0.24145 0.59486 -0.03200
C 	C 	0.09055 0.26272 0.56438 -0.04700
C 	C 	0.12061 0.25475 0.54880 -0.04200
C 	C 	0.13176 0.22346 0.56442 0.00200
C 	C 	0.11599 0.20371 0.61195 0.00400
C 	C 	0.12648 0.17127 0.62228 -0.05600
C 	C 	0.14463 0.15640 0.57367 0.00800
C 	C 	0.15257 0.17424 0.51666 -0.09900
C 	C 	0.15282 0.20846 0.52145 -0.01300
H 	H 	0.02257 0.17750 0.69678 0.02200
H 	H 	0.07802 0.17661 0.70896 0.03100
H 	H 	0.02999 0.25950 0.56293 0.03300
H 	H 	0.08067 0.28489 0.54406 0.03600
H 	H 	0.13372 0.27098 0.51677 0.03600
H 	H 	0.11880 0.15680 0.66417 0.03900
H 	H 	0.14819 0.13013 0.57532 0.02000
H 	H 	0.16335 0.22277 0.48196 0.03200
C 	C 	0.03800 0.08852 0.57720 -0.07700
C 	C 	0.06754 0.09294 0.60132 0.00300
C 	C 	0.08948 0.06851 0.59312 -0.05000
C 	C 	0.08241 0.03973 0.55807 0.00200
C 	C 	0.05156 0.03320 0.54364 0.01500
C 	C 	0.02957 0.05791 0.55209 -0.02000
C 	C 	0.04318 0.00247 0.51926 -0.04300
C 	C 	0.06534 0.97930 0.50323 -0.03700
C 	C 	0.09630 0.98646 0.51103 -0.00300
C 	C 	0.10525 0.01712 0.53715 0.01100
C 	C 	0.13644 0.02563 0.53570 -0.05600
C 	C 	0.15820 0.00339 0.51236 0.00400
C 	C 	0.14939 0.97265 0.48836 -0.08300
C 	C 	0.11844 0.96400 0.48922 -0.01700
H 	H 	0.07366 0.11563 0.62543 0.03500
H 	H 	0.11132 0.07154 0.61635 0.04200
H 	H 	0.00644 0.05394 0.53576 0.04700
H 	H 	0.01946 0.99685 0.51066 0.03800
H 	H 	0.05845 0.95638 0.48108 0.00600
H 	H 	0.14386 0.05003 0.54831 0.04000
H 	H 	0.18187 0.01074 0.51026 0.03200
H 	H 	0.11144 0.94030 0.47060 0.03000
C 	C 	0.76538 0.13191 0.40845 -0.00900
C 	C 	0.78823 0.11131 0.38326 -0.02700
C 	C 	0.81742 0.11206 0.40958 -0.04100
C 	C 	0.82410 0.13345 0.46151 0.00700
C 	C 	0.80079 0.15302 0.48952 0.02900
C 	C 	0.77133 0.15187 0.46321 -0.05200
C 	C 	0.80755 0.17428 0.54181 -0.06000
C 	C 	0.83746 0.17702 0.56423 0.00600
C 	C 	0.86069 0.15813 0.53547 -0.06300
C 	C 	0.85390 0.13604 0.48485 -0.01500
H 	H 	0.78358 0.09544 0.34173 0.03900
H 	H 	0.83497 0.09639 0.38884 0.04300
H 	H 	0.75353 0.16746 0.48323 0.04500
H 	H 	0.78981 0.18903 0.56439 0.04500
H 	H 	0.84261 0.19409 0.60344 0.03000
H 	H 	0.87193 0.12140 0.46281 0.05100
C 	C 	0.02491 0.00203 0.68937 -0.07800
C 	C 	0.05205 0.98408 0.68742 0.00100
C 	C 	0.07870 0.99725 0.71292 -0.05400
C 	C 	0.07812 0.02787 0.74515 0.00500
C 	C 	0.05138 0.04718 0.74184 0.01100
C 	C 	0.02483 0.03400 0.71447 -0.02000
C 	C 	0.05162 0.07959 0.76467 -0.04700
C 	C 	0.07806 0.09301 0.79081 -0.04200
C 	C 	0.10423 0.07371 0.79804 0.00200
C 	C 	0.10404 0.04046 0.77799 0.00400
C 	C 	0.12896 0.02027 0.79451 -0.05300
C 	C 	0.15490 0.03381 0.82260 0.00000
C 	C 	0.15601 0.06726 0.83750 -0.08200
C 	C 	0.13044 0.08707 0.82657 -0.01900
H 	H 	0.05267 0.96017 0.66465 0.03500
H 	H 	0.09984 0.98433 0.70442 0.04000
H 	H 	0.00404 0.04831 0.71392 0.04400
H 	H 	0.03140 0.09466 0.76105 0.03100
H 	H 	0.07800 0.11836 0.80666 0.01500
H 	H 	0.12775 0.99395 0.78942 0.03300
H 	H 	0.17394 0.01805 0.83440 0.02900
H 	H 	0.13099 0.11280 0.83983 0.03600
C 	C 	0.92357 0.00850 0.80550 -0.13700
C 	C 	0.90145 0.02250 0.84692 0.02200
C 	C 	0.90999 0.04271 0.89912 -0.06200
C 	C 	0.94110 0.04893 0.91082 0.00400
C 	C 	0.96334 0.03200 0.87266 -0.00200
C 	C 	0.95416 0.00997 0.82366 -0.01400
C 	C 	0.99409 0.04081 0.87721 -0.03500
C 	C 	0.00228 0.06964 0.90916 -0.04300
C 	C 	0.98045 0.08745 0.94504 -0.01300
C 	C 	0.95055 0.07500 0.95227 0.01800
C 	C 	0.93118 0.08862 0.00106 -0.07700
C 	C 	0.93996 0.11683 0.03483 0.02700
C 	C 	0.96820 0.13153 0.02120 -0.13500
C 	C 	0.98843 0.11679 0.97624 0.00300
H 	H 	0.87761 0.02050 0.83451 0.02200
H 	H 	0.89237 0.05580 0.92565 0.04300
H 	H 	0.97114 0.99748 0.79381 -0.01700
H 	H 	0.01144 0.02640 0.85247 0.03600
H 	H 	0.02578 0.07770 0.90737 0.03200
H 	H 	0.91024 0.07657 0.01566 0.04300
H 	H 	0.92487 0.12715 0.07201 0.02700
H 	H 	0.01077 0.12735 0.96771 -0.05900
C 	C 	0.85957 0.04213 0.53791 -0.06300
C 	C 	0.83132 0.03659 0.50838 0.00500
C 	C 	0.80571 0.05437 0.52883 -0.06000
C 	C 	0.80802 0.07726 0.58022 0.02900
C 	C 	0.83670 0.08405 0.60762 0.01100
C 	C 	0.86253 0.06745 0.58420 -0.01500
C 	C 	0.83900 0.10628 0.66005 -0.03900
C 	C 	0.81287 0.12065 0.68705 -0.02700
C 	C 	0.78403 0.11307 0.66176 -0.00800
C 	C 	0.78191 0.09246 0.60623 -0.05100
H 	H 	0.82891 0.01740 0.47195 0.03300
H 	H 	0.78392 0.04950 0.50635 0.04600
H 	H 	0.88451 0.07228 0.60595 0.05800
H 	H 	0.86099 0.11202 0.68071 0.05100
H 	H 	0.81506 0.13721 0.72842 0.04200
H 	H 	0.75995 0.08754 0.58450 0.05200
C 	C 	0.86185 0.56797 0.34421 -0.05100
C 	C 	0.89029 0.56046 0.37262 0.10000
C 	C 	0.89842 0.52759 0.38273 -0.08700
C 	C 	0.87957 0.50211 0.36124 -0.00400
C 	C 	0.85211 0.50973 0.32835 0.07200
C 	C 	0.84335 0.54266 0.32095 -0.05200
N 	N 	0.90981 0.58467 0.39044 -0.19900
H 	H 	0.91942 0.52179 0.40787 0.05400
C 	C 	0.88705 0.46783 0.38041 -0.00400
N 	N 	0.83407 0.48561 0.30421 -0.19400
H 	H 	0.82192 0.54856 0.29767 0.04500
C 	C 	0.86784 0.45127 0.42542 -0.08600
C 	C 	0.87594 0.42046 0.45076 0.10100
C 	C 	0.90504 0.40747 0.43593 -0.05000
C 	C 	0.92347 0.42293 0.38801 -0.05200
C 	C 	0.91461 0.45283 0.35937 0.07300
H 	H 	0.84649 0.46239 0.44062 0.05400
N 	N 	0.85549 0.40314 0.48796 -0.19900
H 	H 	0.94539 0.41243 0.37505 0.05100
N 	N 	0.93279 0.46717 0.31260 -0.19300
H 	H 	0.83462 0.41354 0.50151 0.08300
H 	H 	0.85936 0.37862 0.50040 0.09000
H 	H 	0.95327 0.45617 0.29821 0.08300
H 	H 	0.92665 0.48902 0.28940 0.08700
H 	H 	0.81275 0.49123 0.28482 0.08400
H 	H 	0.84164 0.46140 0.30122 0.09100
H 	H 	0.90535 0.60926 0.37975 0.08900
H 	H 	0.93033 0.57893 0.41338 0.08300
C 	C 	0.83213 0.62887 0.03211 -0.06800
C 	C 	0.82257 0.62645 0.09915 0.10800
C 	C 	0.82636 0.59665 0.13337 -0.09200
C 	C 	0.83969 0.56960 0.10175 0.00000
C 	C 	0.84736 0.57151 0.03350 0.06000
C 	C 	0.84314 0.60105 0.99933 -0.03400
N 	N 	0.80921 0.65226 0.13033 -0.20000
H 	H 	0.81959 0.59474 0.18504 0.05800
C 	C 	0.84716 0.54007 0.14090 -0.00800
N 	N 	0.85928 0.54527 0.00083 -0.19600
H 	H 	0.84984 0.60284 0.94757 0.04400
C 	C 	0.82753 0.51303 0.13845 -0.08700
C 	C 	0.83895 0.48115 0.14692 0.09700
C 	C 	0.87031 0.47669 0.15877 -0.05100
C 	C 	0.88865 0.50399 0.17144 -0.05400
C 	C 	0.87692 0.53576 0.16497 0.07300
H 	H 	0.80404 0.51657 0.12430 0.05100
N 	N 	0.81984 0.45503 0.14352 -0.20000
H 	H 	0.91262 0.50060 0.18111 0.04400
N 	N 	0.89456 0.56202 0.17983 -0.19400
H 	H 	0.79685 0.45843 0.13281 0.08100
H 	H 	0.82737 0.43131 0.15402 0.08800
H 	H 	0.91681 0.55870 0.19623 0.08200
H 	H 	0.88588 0.58583 0.17823 0.09200
H 	H 	0.86508 0.54712 0.95062 0.08500
H 	H 	0.86281 0.52281 0.02443 0.09000
H 	H 	0.80460 0.67410 0.10522 0.09000
H 	H 	0.80244 0.65032 0.17997 0.08700
C 	C 	0.82521 0.68468 0.82292 -0.05000
C 	C 	0.81723 0.71234 0.78410 0.09800
C 	C 	0.81630 0.70949 0.71479 -0.08700
C 	C 	0.82139 0.67915 0.68419 -0.00600
C 	C 	0.82710 0.65101 0.72345 0.07000
C 	C 	0.82922 0.65414 0.79234 -0.05300
N 	N 	0.80950 0.74126 0.81298 -0.19900
H 	H 	0.81135 0.73086 0.68465 0.05200
C 	C 	0.82304 0.67755 0.61094 -0.00600
N 	N 	0.83090 0.62101 0.69532 -0.19400
H 	H 	0.83485 0.63283 0.82212 0.04800
C 	C 	0.85146 0.68083 0.57952 -0.08600
C 	C 	0.85539 0.67227 0.51276 0.10000
C 	C 	0.83011 0.66086 0.47655 -0.05000
C 	C 	0.80121 0.66006 0.50657 -0.05400
C 	C 	0.79735 0.66855 0.57349 0.06900
H 	H 	0.87094 0.68851 0.60803 0.05400
N 	N 	0.88354 0.67436 0.48428 -0.19900
H 	H 	0.78179 0.65198 0.47832 0.04600
N 	N 	0.76911 0.66750 0.60167 -0.19400
H 	H 	0.90209 0.68237 0.51176 0.08400
H 	H 	0.88735 0.66833 0.43474 0.09200
H 	H 	0.75039 0.65997 0.57417 0.08200
H 	H 	0.76533 0.67484 0.65051 0.08700
H 	H 	0.83560 0.60049 0.72469 0.08300
H 	H 	0.82878 0.61758 0.64443 0.08900
H 	H 	0.80631 0.74307 0.86412 0.09000
H 	H 	0.80498 0.76192 0.78390 0.08100
C 	C 	0.06899 0.95781 0.96550 -0.09400
C 	C 	0.09268 0.97831 0.94340 0.00900
C 	C 	0.09223 0.01178 0.95786 -0.06600
C 	C 	0.06883 0.02498 0.99833 0.02400
C 	C 	0.04350 0.00488 0.01479 -0.01700
C 	C 	0.04384 0.97149 0.99864 0.00200
C 	C 	0.01818 0.01822 0.04765 -0.03400
C 	C 	0.01854 0.05055 0.06913 -0.05100
C 	C 	0.04418 0.07031 0.05788 0.01100
C 	C 	0.06960 0.05792 0.02195 -0.01000
C 	C 	0.09504 0.07867 0.01143 -0.06400
C 	C 	0.09319 0.11191 0.02731 -0.00100
C 	C 	0.06755 0.12421 0.06065 -0.09100
C 	C 	0.04424 0.10280 0.08023 -0.02700
H 	H 	0.11168 0.96830 0.91553 0.01200
H 	H 	0.10955 0.02717 0.93585 0.04500
H 	H 	0.02478 0.95604 0.01314 0.03200
H 	H 	0.99827 0.00324 0.05773 0.03600
H 	H 	0.99884 0.06024 0.09518 0.04500
H 	H 	0.11648 0.06930 0.99323 0.03300
H 	H 	0.11197 0.12807 0.01456 0.01600
H 	H 	0.02491 0.11211 0.10820 0.04100
C 	C 	0.06784 0.83103 0.79259 -0.10400
C 	C 	0.04746 0.80779 0.76786 0.01600
C 	C 	0.03388 0.81307 0.70660 -0.06600
C 	C 	0.04011 0.84225 0.67129 0.00700
C 	C 	0.06634 0.86037 0.68814 -0.00700
C 	C 	0.08034 0.85444 0.74917 -0.01300
C 	C 	0.07551 0.88688 0.64845 -0.04000
C 	C 	0.05620 0.89893 0.59983 -0.05500
C 	C 	0.02677 0.88604 0.59361 -0.00600
C 	C 	0.01889 0.85640 0.62681 -0.01400
C 	C 	0.98873 0.84462 0.62215 -0.06500
C 	C 	0.96634 0.86408 0.59330 -0.01900
C 	C 	0.97347 0.89551 0.56973 -0.12100
C 	C 	0.00410 0.90460 0.56242 -0.07100
H 	H 	0.04000 0.78745 0.79873 0.02800
H 	H 	0.01879 0.79464 0.68722 0.04100
H 	H 	0.09799 0.87081 0.76637 -0.00100
H 	H 	0.09682 0.89932 0.65771 0.03000
H 	H 	0.06312 0.92008 0.57110 0.02900
H 	H 	0.98200 0.82151 0.64401 0.03600
H 	H 	0.94286 0.85600 0.59519 0.02100
H 	H 	0.00981 0.92819 0.54053 0.01400
C 	C 	0.12532 0.89202 0.09959 -0.12800
C 	C 	0.11354 0.92396 0.09966 -0.00500
C 	C 	0.13299 0.95094 0.09523 -0.06900
C 	C 	0.16455 0.94613 0.08653 -0.01300
C 	C 	0.17659 0.91435 0.09698 -0.02300
C 	C 	0.15685 0.88728 0.10174 -0.05700
C 	C 	0.20813 0.90992 0.10058 -0.06300
C 	C 	0.22781 0.93618 0.08847 -0.04400
C 	C 	0.21635 0.96667 0.06806 -0.00600
C 	C 	0.18446 0.97196 0.06645 0.00400
C 	C 	0.17339 0.00156 0.03899 -0.06700
C 	C 	0.19357 0.02526 0.01459 0.00500
C 	C 	0.22498 0.01959 0.01484 -0.12600
C 	C 	0.23634 0.99096 0.04408 0.00100
H 	H 	0.08921 0.92784 0.10006 0.03600
H 	H 	0.12349 0.97526 0.10027 0.04300
H 	H 	0.16599 0.86261 0.10439 0.00700
H 	H 	0.21747 0.88599 0.11201 0.02000
H 	H 	0.25214 0.93229 0.09140 0.03300
H 	H 	0.14935 0.00566 0.03286 0.03600
H 	H 	0.18461 0.04726 0.99192 -0.04500
H 	H 	0.26070 0.98670 0.04443 0.03100
C 	C 	0.98906 0.78112 0.05754 -0.06400
C 	C 	0.99266 0.74713 0.06565 0.00800
C 	C 	0.96834 0.72588 0.05368 -0.06600
C 	C 	0.94016 0.73843 0.03353 0.02800
C 	C 	0.93610 0.77266 0.02775 0.00400
C 	C 	0.96045 0.79381 0.04025 -0.01200
C 	C 	0.90780 0.78531 0.00878 -0.04600
C 	C 	0.88398 0.76411 0.99354 -0.02300
C 	C 	0.88805 0.73009 0.99785 -0.00300
C 	C 	0.91597 0.71725 0.01902 -0.05800
H 	H 	0.01444 0.73710 0.07994 0.03500
H 	H 	0.97154 0.69968 0.05947 0.04300
H 	H 	0.95738 0.82006 0.03475 0.04800
H 	H 	0.90434 0.81156 0.00518 0.03600
H 	H 	0.86237 0.77412 0.97802 0.03700
H 	H 	0.91900 0.69092 0.02294 0.04800
C 	C 	0.11449 0.05322 0.30961 -0.08600
C 	C 	0.12853 0.02616 0.33942 0.00600
C 	C 	0.12043 0.99433 0.32151 -0.06100
C 	C 	0.09875 0.98905 0.27150 0.00400
C 	C 	0.08391 0.01648 0.24320 0.00400
C 	C 	0.09230 0.04825 0.26143 -0.01600
C 	C 	0.05911 0.01192 0.20129 -0.03600
C 	C 	0.04790 0.98059 0.18953 -0.04600
C 	C 	0.06197 0.95320 0.21764 0.01500
C 	C 	0.08903 0.95701 0.25411 -0.01700
C 	C 	0.10502 0.92868 0.27360 -0.03200
C 	C 	0.09090 0.89808 0.27077 -0.02600
C 	C 	0.06140 0.89534 0.24573 -0.07000
C 	C 	0.04842 0.92218 0.21312 -0.03200
H 	H 	0.14538 0.02970 0.37736 0.03000
H 	H 	0.13036 0.97410 0.34811 0.02400
H 	H 	0.08098 0.06915 0.23923 0.04300
H 	H 	0.04692 0.03291 0.18244 0.04200
H 	H 	0.02726 0.97773 0.16139 0.04300
H 	H 	0.12830 0.93007 0.28958 -0.06100
H 	H 	0.10218 0.87678 0.29136 0.01400
H 	H 	0.02653 0.91954 0.18949 0.04500
C 	C 	0.98195 0.11163 0.36385 -0.11800
C 	C 	0.96617 0.10532 0.30530 0.02300
C 	C 	0.96841 0.07451 0.27554 -0.05500
C 	C 	0.98658 0.05003 0.30480 0.00500
C 	C 	0.00849 0.05977 0.35145 0.00900
C 	C 	0.00622 0.09094 0.38069 -0.01500
C 	C 	0.03050 0.03734 0.37237 -0.04700
C 	C 	0.02774 0.00419 0.35653 -0.02500
C 	C 	0.00248 0.99301 0.32131 -0.02500
C 	C 	0.98207 0.01594 0.29293 0.02200
C 	C 	0.95617 0.00414 0.25978 -0.06600
C 	C 	0.95127 0.97046 0.25356 0.02400
C 	C 	0.97135 0.94786 0.28190 -0.12300
C 	C 	0.99694 0.95916 0.31574 0.01200
H 	H 	0.94965 0.12283 0.28728 0.03100
H 	H 	0.95637 0.07005 0.23011 0.04400
H 	H 	0.02066 0.09722 0.42189 -0.00300
H 	H 	0.04953 0.04547 0.40165 0.04600
H 	H 	0.04497 0.98706 0.37261 0.02600
H 	H 	0.93908 0.02069 0.24119 0.04600
H 	H 	0.93137 0.96189 0.22762 0.03000
H 	H 	0.01274 0.94172 0.33689 -0.06200
C 	C 	0.17780 0.84190 0.45257 -0.09900
C 	C 	0.15874 0.84819 0.50721 0.00900
C 	C 	0.12990 0.83385 0.51147 -0.06100
C 	C 	0.11917 0.81443 0.45890 0.00200
C 	C 	0.14017 0.80419 0.40948 0.00100
C 	C 	0.16928 0.81828 0.40620 -0.02900
C 	C 	0.13139 0.78118 0.36218 -0.04500
C 	C 	0.10121 0.77098 0.35887 -0.04000
C 	C 	0.07901 0.78504 0.40027 0.00600
C 	C 	0.08779 0.80628 0.45215 0.00600
C 	C 	0.06479 0.82198 0.48989 -0.06200
C 	C 	0.03432 0.81920 0.47199 -0.01500
C 	C 	0.02621 0.80121 0.41615 -0.09000
C 	C 	0.04810 0.78123 0.38539 -0.00700
H 	H 	0.16589 0.86490 0.54553 0.03500
H 	H 	0.11670 0.83698 0.55641 0.04200
H 	H 	0.18473 0.81204 0.36594 0.02600
H 	H 	0.14783 0.77186 0.32657 0.03300
H 	H 	0.09470 0.75381 0.32080 0.03800
H 	H 	0.07030 0.83821 0.52982 0.03800
H 	H 	0.01737 0.83365 0.49761 -0.00100
H 	H 	0.04155 0.76543 0.34494 0.04500
C 	C 	0.90112 0.78890 0.19503 -0.06500
C 	C 	0.86973 0.79331 0.20486 0.00600
C 	C 	0.85065 0.76613 0.21344 -0.06200
C 	C 	0.86292 0.73439 0.21256 0.03000
C 	C 	0.89366 0.72983 0.19365 0.00500
C 	C 	0.91263 0.75720 0.18471 -0.01600
C 	C 	0.90584 0.69806 0.19207 -0.04000
C 	C 	0.88924 0.67183 0.21883 -0.02700
C 	C 	0.86038 0.67728 0.24739 -0.00800
C 	C 	0.84615 0.70778 0.23815 -0.05100
H 	H 	0.86049 0.81775 0.21068 0.03400
H 	H 	0.82679 0.76988 0.22512 0.04400
H 	H 	0.93684 0.75373 0.17668 0.04700
H 	H 	0.92889 0.69402 0.17434 0.03900
H 	H 	0.89985 0.64794 0.22243 0.03800
H 	H 	0.82314 0.71153 0.25658 0.04600
