data_crystal

_cell_length_a 39.34491
_cell_length_b 36.45986
_cell_length_c 41.88806
_cell_angle_alpha 104.40977
_cell_angle_beta  116.11519
_cell_angle_gamma 110.62197

_symmetry_space_group_name_	'P 1'
_symmetry_space_group_name_H-M	'P 1'

loop_
_symmetry_equiv_pos_as_xyz
  x,y,z

loop_
_atom_site_label
_atom_site_type_symbol
_atom_site_fract_x
_atom_site_fract_y
_atom_site_fract_z
_atom_site_charge
C 	C 	0.99829 0.45111 0.17819 -0.07800
C 	C 	0.99829 0.95112 0.17819 -0.08500
O 	O 	0.97964 0.51995 0.34613 -0.44400
O 	O 	0.97964 0.01995 0.34613 -0.43800
H 	H 	0.01225 0.55914 0.24874 0.04900
H 	H 	0.01225 0.05914 0.24874 0.04800
Zn	Zn	0.02536 0.54401 0.04730 1.20200
Zn	Zn	0.02536 0.04401 0.04730 1.20300
C 	C 	0.00683 0.46341 0.72480 -0.07400
C 	C 	0.00683 0.96341 0.72480 -0.08200
C 	C 	0.98602 0.49060 0.32809 0.32800
C 	C 	0.00049 0.45680 0.68405 -0.07400
C 	C 	0.98602 0.99060 0.32809 0.32100
C 	C 	0.00049 0.95680 0.68405 -0.07000
H 	H 	0.02671 0.56113 0.20168 0.04800
H 	H 	0.02671 0.06113 0.20168 0.04800
O 	O 	0.03345 0.55458 0.87870 -0.42600
Zn	Zn	0.03540 0.47591 0.90321 1.18900
C 	C 	0.98781 0.48881 0.57256 0.33200
C 	C 	0.99471 0.49427 0.29882 -0.11300
O 	O 	0.03345 0.05458 0.87870 -0.42500
Zn	Zn	0.03540 0.97591 0.90321 1.18700
C 	C 	0.98781 0.98881 0.57256 0.32600
C 	C 	0.99471 0.99427 0.29882 -0.11400
O 	O 	0.98300 0.40569 0.39286 -0.49400
O 	O 	0.98300 0.90569 0.39286 -0.49400
Zn	Zn	0.03861 0.52002 0.97802 1.21800
C 	C 	0.01861 0.51098 0.74956 0.02700
C 	C 	0.02464 0.51706 0.78823 0.03300
C 	C 	0.00257 0.49627 0.27434 0.03300
Zn	Zn	0.03861 0.02002 0.97802 1.21900
C 	C 	0.01861 0.01098 0.74956 0.03400
C 	C 	0.02464 0.01706 0.78823 0.03300
C 	C 	0.00257 0.99627 0.27434 0.03200
C 	C 	0.03655 0.52438 0.85715 0.32700
O 	O 	0.98947 0.46084 0.33954 -0.47300
C 	C 	0.00782 0.49972 0.68024 0.02500
C 	C 	0.00157 0.49385 0.64152 0.03500
C 	C 	0.02982 0.52113 0.81977 -0.09900
C 	C 	0.99575 0.49050 0.60991 -0.10700
C 	C 	0.03655 0.02438 0.85715 0.32700
O 	O 	0.98947 0.96084 0.33954 -0.47400
C 	C 	0.00782 0.99972 0.68024 0.01200
C 	C 	0.00157 0.99385 0.64152 0.03500
C 	C 	0.02982 0.02113 0.81977 -0.09700
C 	C 	0.99575 0.99050 0.60991 -0.10800
Zn	Zn	0.97313 0.48881 0.44359 1.21700
Zn	Zn	0.97313 0.98881 0.44359 1.21600
O 	O 	0.98914 0.49535 0.49607 -0.89500
C 	C 	0.01219 0.49777 0.24426 0.02400
O 	O 	0.98914 0.99535 0.49607 -0.90200
C 	C 	0.01219 0.99777 0.24426 0.01200
O 	O 	0.04054 0.47537 0.07437 -0.41200
O 	O 	0.04054 0.97537 0.07437 -0.41800
O 	O 	0.99078 0.52373 0.56752 -0.46700
C 	C 	0.02904 0.50009 0.19008 0.02800
O 	O 	0.99078 0.02373 0.56752 -0.46100
C 	C 	0.02904 0.00009 0.19008 0.03500
H 	H 	0.99979 0.42981 0.22304 0.04800
H 	H 	0.99979 0.92981 0.22304 0.04600
C 	C 	0.04684 0.50913 0.10228 0.33300
O 	O 	0.97530 0.45158 0.54324 -0.43000
C 	C 	0.04684 0.00913 0.10228 0.34000
O 	O 	0.97530 0.95158 0.54324 -0.43000
C 	C 	0.03778 0.50171 0.15949 0.03500
C 	C 	0.04309 0.50423 0.13370 -0.09900
C 	C 	0.03778 0.00171 0.15949 0.03500
C 	C 	0.04309 0.00423 0.13370 -0.09800
C 	C 	0.98836 0.44975 0.21002 -0.07500
C 	C 	0.98836 0.94975 0.21002 -0.07100
O 	O 	0.05137 0.54531 0.09926 -0.46800
O 	O 	0.05137 0.04531 0.09926 -0.46800
O 	O 	0.05127 0.50102 0.87174 -0.46300
O 	O 	0.05127 0.00101 0.87174 -0.46100
H 	H 	0.01450 0.43189 0.17605 0.05500
H 	H 	0.01450 0.93189 0.17605 0.05500
O 	O 	0.05522 0.52481 0.03036 -0.89100
O 	O 	0.05522 0.02481 0.03036 -0.88800
Zn	Zn	0.05851 0.57491 0.93863 1.19700
O 	O 	0.06222 0.44852 0.92974 -0.49300
Zn	Zn	0.99985 0.54116 0.40476 1.19300
Zn	Zn	0.05851 0.07491 0.93863 1.19700
O 	O 	0.06222 0.94852 0.92974 -0.49400
Zn	Zn	0.99985 0.04116 0.40476 1.19400
H 	H 	0.03387 0.45818 0.74260 0.04800
H 	H 	0.03387 0.95818 0.74260 0.04800
H 	H 	0.02453 0.44847 0.68243 0.04900
H 	H 	0.02453 0.94847 0.68243 0.04700
O 	O 	0.02039 0.51361 0.92523 -0.87500
O 	O 	0.95594 0.48153 0.39044 -0.87200
O 	O 	0.02039 0.01361 0.92523 -0.87300
O 	O 	0.95594 0.98153 0.39044 -0.87500
C 	C 	0.30639 0.13715 0.95091 0.03500
C 	C 	0.32794 0.11408 0.94851 -0.07200
C 	C 	0.36267 0.13093 0.94404 0.07600
C 	C 	0.37398 0.16945 0.93968 -0.08700
C 	C 	0.35425 0.19376 0.94421 0.07100
C 	C 	0.31993 0.17723 0.94906 -0.07300
H 	H 	0.31901 0.08420 0.95178 0.06700
H 	H 	0.40114 0.18278 0.93668 0.06600
H 	H 	0.30510 0.19646 0.95311 0.06900
C 	C 	0.24139 0.10426 0.41417 0.08100
C 	C 	0.25122 0.14422 0.41227 -0.09100
C 	C 	0.28635 0.16545 0.40938 0.08300
C 	C 	0.31080 0.14599 0.40721 -0.09100
C 	C 	0.30175 0.10657 0.40997 0.08600
C 	C 	0.26616 0.08506 0.41228 -0.08500
H 	H 	0.23294 0.15977 0.41489 0.06700
H 	H 	0.33887 0.16315 0.40625 0.07000
H 	H 	0.25965 0.05507 0.41528 0.09000
C 	C 	0.27909 0.40939 0.01518 0.01100
C 	C 	0.25975 0.43475 0.01788 -0.05800
C 	C 	0.22030 0.41704 0.01568 0.01100
C 	C 	0.20250 0.37541 0.01438 -0.05800
C 	C 	0.22174 0.34984 0.01181 0.01300
C 	C 	0.26022 0.36710 0.01245 -0.05800
H 	H 	0.27373 0.46698 0.01909 0.04700
H 	H 	0.17247 0.36201 0.01338 0.04900
H 	H 	0.27438 0.34695 0.00910 0.05300
C 	C 	0.21038 0.37691 0.47938 0.01900
C 	C 	0.19458 0.33419 0.47654 -0.05900
C 	C 	0.15481 0.31247 0.47331 0.01800
C 	C 	0.12999 0.33271 0.47115 -0.06600
C 	C 	0.14581 0.37534 0.47443 0.06000
C 	C 	0.18690 0.39816 0.48038 -0.07000
H 	H 	0.21263 0.31767 0.47615 0.04800
H 	H 	0.09792 0.31488 0.46606 0.06300
H 	H 	0.19945 0.43156 0.48376 0.06100
Zn	Zn	0.13655 0.60958 0.02272 1.18700
C 	C 	0.17304 0.58593 0.98210 0.34100
C 	C 	0.13510 0.67186 0.99029 0.35100
O 	O 	0.18407 0.60980 0.01809 -0.45100
O 	O 	0.13108 0.55487 0.95287 -0.36100
O 	O 	0.07619 0.58167 0.99489 -0.76800
O 	O 	0.09851 0.50796 0.99125 -0.44200
O 	O 	0.10088 0.63755 0.95392 -0.43900
O 	O 	0.14794 0.66744 0.02318 -0.45200
Zn	Zn	0.94449 0.44151 0.94132 1.18000
Zn	Zn	0.02180 0.46225 0.01587 1.19500
C 	C 	0.94213 0.37038 0.96570 0.31000
C 	C 	0.91907 0.46629 0.99173 0.34300
O 	O 	0.98007 0.53614 0.96629 -0.46400
O 	O 	0.98491 0.39785 0.99610 -0.43500
O 	O 	0.92128 0.38124 0.93867 -0.43900
O 	O 	0.90961 0.45861 0.95570 -0.45900
O 	O 	0.95945 0.47868 0.02117 -0.47100
O 	O 	0.00139 0.45865 0.96038 -0.79500
C 	C 	0.97931 0.56561 0.99133 0.31700
O 	O 	0.99859 0.57469 0.02928 -0.49600
C 	C 	0.09453 0.47219 0.96863 0.35300
H 	H 	0.08769 0.54018 0.05135 0.18300
H 	H 	0.98819 0.50233 0.90725 0.14600
Zn	Zn	0.07636 0.57174 0.48817 1.18600
C 	C 	0.11141 0.54268 0.44796 0.28900
C 	C 	0.07770 0.63668 0.45825 0.34200
O 	O 	0.12256 0.56722 0.48385 -0.45000
O 	O 	0.06917 0.51262 0.41865 -0.35000
O 	O 	0.01629 0.54861 0.46071 -0.76800
O 	O 	0.02667 0.46703 0.45480 -0.44800
O 	O 	0.04744 0.60185 0.42140 -0.45700
O 	O 	0.09394 0.63128 0.49056 -0.44100
Zn	Zn	0.87511 0.41645 0.41076 1.17600
Zn	Zn	0.95154 0.43459 0.48308 1.18600
C 	C 	0.86843 0.34412 0.43380 0.31000
C 	C 	0.85643 0.44879 0.46533 0.34400
O 	O 	0.92058 0.51376 0.43321 -0.45800
Zn	Zn	0.96341 0.52027 0.51457 1.20100
O 	O 	0.91079 0.37140 0.46534 -0.45200
O 	O 	0.84848 0.35613 0.40746 -0.45600
O 	O 	0.84381 0.43731 0.42790 -0.46700
O 	O 	0.89685 0.45948 0.49297 -0.47400
O 	O 	0.93050 0.42906 0.42666 -0.79700
C 	C 	0.92043 0.54389 0.45832 0.31300
O 	O 	0.93899 0.55259 0.49619 -0.48200
Zn	Zn	0.96427 0.43746 0.36692 1.18700
C 	C 	0.01807 0.42889 0.43070 0.30900
H 	H 	0.02131 0.50839 0.51652 0.17200
H 	H 	0.92483 0.47393 0.37312 0.14900
C 	C 	0.06206 0.54565 0.75735 -0.07800
C 	C 	0.97393 0.51029 0.68295 -0.07700
C 	C 	0.05573 0.53902 0.71661 -0.07600
H 	H 	0.07129 0.58018 0.77490 0.05400
H 	H 	0.09024 0.54211 0.77585 0.05400
H 	H 	0.93914 0.48256 0.65731 0.04700
H 	H 	0.97844 0.54109 0.68040 0.04800
H 	H 	0.06196 0.57041 0.71474 0.04800
H 	H 	0.08086 0.53231 0.71566 0.04800
H 	H 	0.96626 0.42799 0.65839 0.04600
H 	H 	0.97562 0.43771 0.71857 0.04200
C 	C 	0.98028 0.51692 0.72367 -0.07800
H 	H 	0.94855 0.49233 0.71746 0.04500
H 	H 	0.98788 0.55088 0.74056 0.04900
C 	C 	0.00537 0.52572 0.19307 -0.07600
C 	C 	0.06319 0.52062 0.26441 -0.07400
C 	C 	0.99552 0.52439 0.22489 -0.07800
H 	H 	0.97346 0.51066 0.16303 0.04500
H 	H 	0.07613 0.50212 0.27854 0.04800
H 	H 	0.08128 0.55527 0.28908 0.04800
H 	H 	0.95895 0.50869 0.21005 0.04600
H 	H 	0.95163 0.43249 0.19481 0.04600
H 	H 	0.96629 0.43451 0.14782 0.05200
C 	C 	0.07310 0.52200 0.23253 -0.07900
H 	H 	0.09076 0.50417 0.23143 0.05600
H 	H 	0.09585 0.55732 0.24195 0.05600
C 	C 	0.13862 0.26823 0.47172 0.05000
C 	C 	0.13141 0.23213 0.44204 -0.08400
C 	C 	0.11167 0.18933 0.43785 0.04700
C 	C 	0.09825 0.18197 0.46286 -0.13800
C 	C 	0.10524 0.21820 0.49255 0.16400
C 	C 	0.12636 0.26118 0.49749 -0.11500
H 	H 	0.10669 0.16185 0.41507 0.03000
H 	H 	0.13183 0.28891 0.52046 0.08700
H 	H 	0.14032 0.23704 0.42172 0.05400
Br	Br	0.08270 0.20921 0.52416 -0.26400
C 	C 	0.24920 0.39782 0.47773 0.04800
C 	C 	0.28821 0.39819 0.50123 -0.08100
C 	C 	0.32392 0.41643 0.49836 0.04400
C 	C 	0.32173 0.43595 0.47300 -0.13800
C 	C 	0.28398 0.43871 0.45191 0.16400
C 	C 	0.24728 0.41796 0.45290 -0.11300
H 	H 	0.35287 0.41449 0.51520 0.03100
H 	H 	0.21743 0.41798 0.43467 0.07800
H 	H 	0.29074 0.38396 0.52140 0.05400
Br	Br	0.28326 0.47390 0.42460 -0.24000
C 	C 	0.05261 0.41764 0.44321 -0.07700
C 	C 	0.06313 0.40343 0.41643 0.00400
C 	C 	0.09473 0.39122 0.42742 -0.03500
C 	C 	0.11624 0.39302 0.46530 -0.03100
C 	C 	0.10700 0.40883 0.49292 0.09500
C 	C 	0.07526 0.42118 0.48178 -0.03800
H 	H 	0.10192 0.37948 0.40615 0.04300
H 	H 	0.06781 0.43287 0.50284 0.04500
H 	H 	0.04670 0.40176 0.38701 0.03300
Br	Br	0.13767 0.41424 0.54595 -0.24600
C 	C 	0.19979 0.30369 0.00563 0.04100
C 	C 	0.15343 0.27410 0.97681 -0.07000
C 	C 	0.13258 0.23105 0.97168 0.04400
C 	C 	0.15793 0.21638 0.99420 -0.12300
C 	C 	0.20491 0.24493 0.02104 0.15600
C 	C 	0.22533 0.28888 0.02779 -0.10900
H 	H 	0.09662 0.20919 0.95037 0.03000
H 	H 	0.26118 0.31123 0.04970 0.07500
H 	H 	0.13350 0.28450 0.95846 0.05400
Br	Br	0.24209 0.22331 0.04521 -0.25100
C 	C 	0.31483 0.42404 0.00910 0.04100
C 	C 	0.35621 0.46395 0.03901 -0.07900
C 	C 	0.38983 0.47766 0.03293 0.03600
C 	C 	0.38253 0.45153 0.99692 -0.12900
C 	C 	0.34080 0.41092 0.96693 0.16400
C 	C 	0.30719 0.39801 0.97302 -0.10500
H 	H 	0.42163 0.50863 0.05626 0.02300
H 	H 	0.27515 0.36725 0.94978 0.08100
H 	H 	0.36238 0.48429 0.06701 0.05000
Br	Br	0.32934 0.37075 0.91869 -0.26400
C 	C 	0.19398 0.43854 0.00841 0.04200
C 	C 	0.18263 0.44856 0.97632 -0.07700
C 	C 	0.15183 0.46177 0.96488 0.04800
C 	C 	0.13128 0.46431 0.98479 -0.14400
C 	C 	0.14420 0.45650 0.01836 0.16200
C 	C 	0.17595 0.44425 0.03036 -0.11500
H 	H 	0.14288 0.46876 0.93966 0.02600
H 	H 	0.18529 0.43751 0.05572 0.07800
H 	H 	0.19635 0.44441 0.95919 0.05600
Br	Br	0.11679 0.45938 0.04641 -0.32900
C 	C 	0.39384 0.06325 0.44268 -0.06700
C 	C 	0.40550 0.10502 0.46890 0.00300
C 	C 	0.37611 0.11983 0.45730 -0.02400
C 	C 	0.33490 0.09339 0.41913 -0.03300
C 	C 	0.32459 0.05313 0.39139 0.10700
C 	C 	0.35414 0.03820 0.40325 -0.03000
H 	H 	0.38465 0.15123 0.47856 0.05000
H 	H 	0.34524 0.00628 0.38251 0.05400
H 	H 	0.43669 0.12528 0.49893 0.04600
Br	Br	0.27023 0.01794 0.33760 -0.23200
C 	C 	0.34350 0.29861 0.42706 -0.06300
C 	C 	0.35214 0.29101 0.46025 -0.00500
C 	C 	0.33142 0.24750 0.45413 -0.02900
C 	C 	0.30194 0.21110 0.41479 -0.04000
C 	C 	0.29150 0.21870 0.38128 0.10100
C 	C 	0.31228 0.26240 0.38751 -0.04200
H 	H 	0.33936 0.24193 0.48006 0.04700
H 	H 	0.30501 0.26804 0.36168 0.06000
H 	H 	0.37540 0.31877 0.49085 0.04400
Br	Br	0.24937 0.16982 0.32693 -0.24700
C 	C 	0.14477 0.05422 0.43879 -0.05200
C 	C 	0.13108 0.04399 0.39889 -0.01300
C 	C 	0.16276 0.05947 0.39088 -0.02300
C 	C 	0.20845 0.08518 0.42254 -0.04100
C 	C 	0.22238 0.09429 0.46239 0.10500
C 	C 	0.19055 0.07858 0.47030 -0.04500
H 	H 	0.15179 0.05222 0.36015 0.04200
H 	H 	0.20146 0.08601 0.50104 0.07200
H 	H 	0.09589 0.02521 0.37424 0.04900
Br	Br	0.28467 0.12943 0.50660 -0.24200
C 	C 	0.45162 0.08375 0.97570 -0.06700
C 	C 	0.46587 0.12756 0.00008 -0.02100
C 	C 	0.43692 0.14287 0.98916 -0.01300
C 	C 	0.39351 0.11485 0.95332 -0.04100
C 	C 	0.37980 0.07159 0.92747 0.10100
C 	C 	0.40887 0.05610 0.93889 -0.04200
H 	H 	0.44788 0.17633 0.00902 0.04400
H 	H 	0.39776 0.02226 0.91978 0.05800
H 	H 	0.49905 0.14933 0.02824 0.03900
Br	Br	0.32204 0.03362 0.87645 -0.24400
C 	C 	0.41798 0.32554 0.96040 -0.05500
C 	C 	0.38226 0.28947 0.92155 -0.00100
C 	C 	0.36054 0.24665 0.91652 -0.02700
C 	C 	0.37424 0.23949 0.95020 -0.03800
C 	C 	0.40922 0.27580 0.98933 0.10700
C 	C 	0.43081 0.31862 0.99427 -0.03400
H 	H 	0.33362 0.21886 0.88634 0.04400
H 	H 	0.45766 0.34647 0.02444 0.07000
H 	H 	0.37190 0.29441 0.89518 0.04600
Br	Br	0.42853 0.26734 0.03627 -0.25000
C 	C 	0.27079 0.12042 0.95691 0.04800
C 	C 	0.27853 0.11151 0.98937 -0.07000
C 	C 	0.24625 0.09973 0.99718 0.05700
C 	C 	0.20641 0.09770 0.97320 -0.13100
C 	C 	0.19898 0.10738 0.94098 0.16700
C 	C 	0.23041 0.11706 0.93218 -0.10900
H 	H 	0.25238 0.09253 0.02208 0.02500
H 	H 	0.22426 0.12387 0.90707 0.08000
H 	H 	0.30983 0.11448 0.00897 0.05200
Br	Br	0.14891 0.11259 0.91155 -0.24600
C 	C 	0.30639 0.63715 0.95091 0.03400
C 	C 	0.32794 0.61408 0.94851 -0.07200
C 	C 	0.36267 0.63093 0.94404 0.07600
C 	C 	0.37398 0.66945 0.93968 -0.08700
C 	C 	0.35425 0.69376 0.94421 0.07100
C 	C 	0.31993 0.67723 0.94906 -0.07300
H 	H 	0.31901 0.58420 0.95178 0.06700
H 	H 	0.40114 0.68278 0.93668 0.06500
H 	H 	0.30510 0.69646 0.95311 0.06900
C 	C 	0.24139 0.60426 0.41417 0.08100
C 	C 	0.25122 0.64422 0.41227 -0.09100
C 	C 	0.28635 0.66545 0.40938 0.08200
C 	C 	0.31080 0.64599 0.40721 -0.09100
C 	C 	0.30175 0.60657 0.40997 0.08500
C 	C 	0.26616 0.58506 0.41228 -0.08500
H 	H 	0.23294 0.65977 0.41489 0.06700
H 	H 	0.33887 0.66314 0.40625 0.07000
H 	H 	0.25965 0.55507 0.41528 0.08900
C 	C 	0.27909 0.90939 0.01518 0.01100
C 	C 	0.25975 0.93475 0.01788 -0.05800
C 	C 	0.22030 0.91704 0.01568 0.01000
C 	C 	0.20250 0.87541 0.01438 -0.05800
C 	C 	0.22174 0.84984 0.01181 0.01200
C 	C 	0.26023 0.86710 0.01245 -0.05800
H 	H 	0.27373 0.96698 0.01909 0.04600
H 	H 	0.17247 0.86201 0.01338 0.04900
H 	H 	0.27438 0.84695 0.00910 0.05300
C 	C 	0.21038 0.87691 0.47938 0.01800
C 	C 	0.19458 0.83419 0.47654 -0.05900
C 	C 	0.15481 0.81247 0.47331 0.01800
C 	C 	0.12999 0.83271 0.47115 -0.06600
C 	C 	0.14581 0.87534 0.47443 0.06000
C 	C 	0.18690 0.89816 0.48038 -0.07000
H 	H 	0.21263 0.81767 0.47615 0.04800
H 	H 	0.09792 0.81488 0.46606 0.06300
H 	H 	0.19945 0.93156 0.48376 0.06000
Zn	Zn	0.13655 0.10958 0.02272 1.18700
C 	C 	0.17304 0.08593 0.98210 0.34200
C 	C 	0.13510 0.17186 0.99029 0.35100
O 	O 	0.18407 0.10980 0.01809 -0.45000
O 	O 	0.13108 0.05487 0.95287 -0.36000
O 	O 	0.07619 0.08167 0.99489 -0.76800
O 	O 	0.09851 0.00796 0.99125 -0.43500
O 	O 	0.10088 0.13755 0.95392 -0.43900
O 	O 	0.14794 0.16744 0.02318 -0.45200
Zn	Zn	0.94449 0.94151 0.94132 1.17900
Zn	Zn	0.02180 0.96225 0.01587 1.19400
C 	C 	0.94213 0.87038 0.96570 0.31000
C 	C 	0.91907 0.96629 0.99173 0.34100
O 	O 	0.98007 0.03614 0.96629 -0.46300
O 	O 	0.98491 0.89785 0.99610 -0.43500
O 	O 	0.92128 0.88124 0.93867 -0.43900
O 	O 	0.90961 0.95861 0.95570 -0.46100
O 	O 	0.95945 0.97867 0.02117 -0.47300
O 	O 	0.00139 0.95865 0.96038 -0.79800
C 	C 	0.97931 0.06561 0.99133 0.31800
O 	O 	0.99859 0.07469 0.02928 -0.49500
C 	C 	0.09453 0.97219 0.96863 0.34600
H 	H 	0.08769 0.04018 0.05135 0.18300
H 	H 	0.98819 0.00233 0.90725 0.14700
Zn	Zn	0.07636 0.07174 0.48817 1.18700
C 	C 	0.11140 0.04268 0.44796 0.28900
C 	C 	0.07770 0.13668 0.45825 0.34200
O 	O 	0.12256 0.06722 0.48385 -0.44900
O 	O 	0.06917 0.01262 0.41865 -0.34700
O 	O 	0.01629 0.04861 0.46071 -0.76600
O 	O 	0.02667 0.96703 0.45480 -0.45000
O 	O 	0.04744 0.10185 0.42140 -0.45700
O 	O 	0.09394 0.13128 0.49056 -0.44000
Zn	Zn	0.87511 0.91645 0.41076 1.17500
Zn	Zn	0.95154 0.93459 0.48308 1.18600
C 	C 	0.86843 0.84412 0.43380 0.31000
C 	C 	0.85643 0.94879 0.46533 0.34400
O 	O 	0.92058 0.01376 0.43321 -0.45500
Zn	Zn	0.96341 0.02027 0.51457 1.20300
O 	O 	0.91079 0.87140 0.46534 -0.45200
O 	O 	0.84848 0.85613 0.40746 -0.45700
O 	O 	0.84381 0.93731 0.42790 -0.46800
O 	O 	0.89685 0.95948 0.49297 -0.47500
O 	O 	0.93050 0.92906 0.42666 -0.79700
C 	C 	0.92043 0.04389 0.45832 0.31300
O 	O 	0.93899 0.05259 0.49619 -0.48000
Zn	Zn	0.96427 0.93746 0.36692 1.18700
C 	C 	0.01807 0.92889 0.43070 0.30900
H 	H 	0.02131 0.00839 0.51652 0.17800
H 	H 	0.92483 0.97393 0.37312 0.14800
C 	C 	0.06206 0.04565 0.75735 -0.08100
C 	C 	0.97393 0.01029 0.68295 -0.06400
C 	C 	0.05573 0.03902 0.71661 -0.06700
H 	H 	0.07129 0.08018 0.77490 0.05500
H 	H 	0.09024 0.04211 0.77585 0.05600
H 	H 	0.93914 0.98256 0.65731 0.04100
H 	H 	0.97844 0.04109 0.68040 0.04700
H 	H 	0.06196 0.07041 0.71474 0.04700
H 	H 	0.08086 0.03231 0.71566 0.04900
H 	H 	0.96626 0.92799 0.65839 0.04500
H 	H 	0.97562 0.93771 0.71857 0.04300
C 	C 	0.98028 0.01692 0.72367 -0.07700
H 	H 	0.94855 0.99233 0.71746 0.04100
H 	H 	0.98788 0.05088 0.74056 0.04900
C 	C 	0.00537 0.02572 0.19307 -0.07900
C 	C 	0.06319 0.02062 0.26441 -0.06600
C 	C 	0.99552 0.02439 0.22489 -0.07000
H 	H 	0.97346 0.01066 0.16303 0.04800
H 	H 	0.07613 0.00212 0.27854 0.04900
H 	H 	0.08128 0.05527 0.28908 0.04700
H 	H 	0.95895 0.00869 0.21005 0.04600
H 	H 	0.95163 0.93249 0.19481 0.04400
H 	H 	0.96629 0.93451 0.14782 0.05200
C 	C 	0.07310 0.02200 0.23253 -0.08300
H 	H 	0.09076 0.00417 0.23143 0.05800
H 	H 	0.09585 0.05732 0.24195 0.05700
C 	C 	0.13862 0.76823 0.47172 0.05000
C 	C 	0.13141 0.73213 0.44204 -0.08400
C 	C 	0.11167 0.68933 0.43785 0.04700
C 	C 	0.09825 0.68197 0.46286 -0.13800
C 	C 	0.10524 0.71820 0.49255 0.16400
C 	C 	0.12636 0.76118 0.49749 -0.11500
H 	H 	0.10669 0.66185 0.41507 0.03000
H 	H 	0.13183 0.78891 0.52046 0.08600
H 	H 	0.14032 0.73704 0.42172 0.05400
Br	Br	0.08270 0.70921 0.52416 -0.26500
C 	C 	0.24920 0.89782 0.47773 0.04800
C 	C 	0.28821 0.89819 0.50123 -0.08100
C 	C 	0.32392 0.91643 0.49836 0.04300
C 	C 	0.32173 0.93595 0.47300 -0.13900
C 	C 	0.28398 0.93871 0.45191 0.16400
C 	C 	0.24728 0.91796 0.45290 -0.11300
H 	H 	0.35287 0.91449 0.51520 0.03000
H 	H 	0.21743 0.91798 0.43467 0.07700
H 	H 	0.29074 0.88396 0.52140 0.05300
Br	Br	0.28326 0.97390 0.42460 -0.24500
C 	C 	0.05261 0.91765 0.44321 -0.07800
C 	C 	0.06313 0.90343 0.41643 0.00300
C 	C 	0.09473 0.89122 0.42742 -0.03500
C 	C 	0.11624 0.89302 0.46530 -0.03100
C 	C 	0.10700 0.90883 0.49292 0.09500
C 	C 	0.07526 0.92118 0.48178 -0.03800
H 	H 	0.10192 0.87948 0.40615 0.04300
H 	H 	0.06781 0.93287 0.50284 0.04400
H 	H 	0.04670 0.90176 0.38701 0.03200
Br	Br	0.13767 0.91424 0.54595 -0.24800
C 	C 	0.19979 0.80369 0.00563 0.04100
C 	C 	0.15343 0.77410 0.97681 -0.07100
C 	C 	0.13259 0.73105 0.97168 0.04400
C 	C 	0.15793 0.71638 0.99420 -0.12300
C 	C 	0.20491 0.74493 0.02104 0.15600
C 	C 	0.22533 0.78889 0.02779 -0.10900
H 	H 	0.09662 0.70919 0.95037 0.03000
H 	H 	0.26118 0.81123 0.04970 0.07500
H 	H 	0.13350 0.78450 0.95846 0.05400
Br	Br	0.24209 0.72331 0.04521 -0.25200
C 	C 	0.31483 0.92404 0.00910 0.04000
C 	C 	0.35621 0.96395 0.03901 -0.07600
C 	C 	0.38983 0.97766 0.03293 0.02700
C 	C 	0.38253 0.95153 0.99692 -0.12700
C 	C 	0.34080 0.91092 0.96693 0.16300
C 	C 	0.30719 0.89801 0.97302 -0.10400
H 	H 	0.42163 0.00863 0.05626 0.02900
H 	H 	0.27515 0.86725 0.94978 0.08000
H 	H 	0.36238 0.98429 0.06701 0.04800
Br	Br	0.32934 0.87075 0.91869 -0.26500
C 	C 	0.19399 0.93854 0.00841 0.04200
C 	C 	0.18263 0.94856 0.97632 -0.07700
C 	C 	0.15183 0.96177 0.96488 0.04600
C 	C 	0.13128 0.96431 0.98479 -0.14400
C 	C 	0.14420 0.95650 0.01836 0.16100
C 	C 	0.17595 0.94425 0.03036 -0.11600
H 	H 	0.14288 0.96876 0.93966 0.02500
H 	H 	0.18529 0.93751 0.05572 0.07800
H 	H 	0.19635 0.94441 0.95919 0.05500
Br	Br	0.11679 0.95938 0.04641 -0.33200
C 	C 	0.39384 0.56325 0.44268 -0.06800
C 	C 	0.40550 0.60502 0.46890 0.00300
C 	C 	0.37611 0.61983 0.45730 -0.02500
C 	C 	0.33490 0.59339 0.41913 -0.03300
C 	C 	0.32459 0.55313 0.39139 0.10600
C 	C 	0.35414 0.53820 0.40325 -0.03100
H 	H 	0.38465 0.65123 0.47856 0.04900
H 	H 	0.34524 0.50628 0.38251 0.05200
H 	H 	0.43669 0.62528 0.49893 0.04600
Br	Br	0.27023 0.51794 0.33760 -0.23500
C 	C 	0.34350 0.79861 0.42706 -0.06300
C 	C 	0.35214 0.79101 0.46025 -0.00500
C 	C 	0.33143 0.74750 0.45413 -0.02900
C 	C 	0.30194 0.71110 0.41479 -0.04000
C 	C 	0.29150 0.71870 0.38128 0.10100
C 	C 	0.31228 0.76240 0.38751 -0.04200
H 	H 	0.33936 0.74193 0.48006 0.04700
H 	H 	0.30501 0.76804 0.36168 0.06000
H 	H 	0.37540 0.81877 0.49085 0.04400
Br	Br	0.24937 0.66982 0.32693 -0.24800
C 	C 	0.14477 0.55422 0.43879 -0.05300
C 	C 	0.13108 0.54399 0.39889 -0.01300
C 	C 	0.16276 0.55947 0.39088 -0.02300
C 	C 	0.20845 0.58518 0.42254 -0.04100
C 	C 	0.22238 0.59429 0.46239 0.10500
C 	C 	0.19055 0.57858 0.47030 -0.04500
H 	H 	0.15179 0.55222 0.36015 0.04200
H 	H 	0.20146 0.58602 0.50104 0.07100
H 	H 	0.09589 0.52521 0.37424 0.04700
Br	Br	0.28467 0.62943 0.50660 -0.24300
C 	C 	0.45162 0.58375 0.97570 -0.06700
C 	C 	0.46587 0.62756 0.00008 -0.02000
C 	C 	0.43692 0.64287 0.98916 -0.01300
C 	C 	0.39351 0.61485 0.95332 -0.04100
C 	C 	0.37980 0.57159 0.92747 0.10000
C 	C 	0.40887 0.55610 0.93889 -0.04200
H 	H 	0.44788 0.67633 0.00902 0.04400
H 	H 	0.39777 0.52226 0.91978 0.05700
H 	H 	0.49905 0.64933 0.02824 0.03900
Br	Br	0.32204 0.53362 0.87645 -0.24700
C 	C 	0.41798 0.82554 0.96040 -0.05500
C 	C 	0.38226 0.78947 0.92155 -0.00100
C 	C 	0.36054 0.74665 0.91652 -0.02700
C 	C 	0.37424 0.73949 0.95020 -0.03800
C 	C 	0.40923 0.77580 0.98933 0.10700
C 	C 	0.43081 0.81862 0.99427 -0.03400
H 	H 	0.33362 0.71886 0.88634 0.04400
H 	H 	0.45766 0.84647 0.02444 0.06900
H 	H 	0.37190 0.79441 0.89518 0.04500
Br	Br	0.42853 0.76734 0.03627 -0.25100
C 	C 	0.27079 0.62042 0.95691 0.04800
C 	C 	0.27853 0.61151 0.98937 -0.07100
C 	C 	0.24625 0.59973 0.99718 0.05600
C 	C 	0.20641 0.59770 0.97320 -0.13200
C 	C 	0.19898 0.60738 0.94098 0.16700
C 	C 	0.23041 0.61706 0.93218 -0.10900
H 	H 	0.25238 0.59253 0.02208 0.02400
H 	H 	0.22426 0.62387 0.90707 0.07900
H 	H 	0.30983 0.61448 0.00897 0.05100
Br	Br	0.14891 0.61259 0.91155 -0.24700
C 	C 	0.80639 0.13715 0.95091 0.03400
C 	C 	0.82794 0.11408 0.94851 -0.07200
C 	C 	0.86267 0.13093 0.94404 0.07500
C 	C 	0.87398 0.16945 0.93968 -0.08600
C 	C 	0.85425 0.19376 0.94421 0.07100
C 	C 	0.81993 0.17723 0.94906 -0.07200
H 	H 	0.81901 0.08420 0.95178 0.06700
H 	H 	0.90114 0.18278 0.93668 0.06500
H 	H 	0.80510 0.19646 0.95311 0.06900
C 	C 	0.74139 0.10426 0.41417 0.08100
C 	C 	0.75122 0.14422 0.41227 -0.09100
C 	C 	0.78635 0.16545 0.40938 0.08300
C 	C 	0.81080 0.14599 0.40721 -0.09100
C 	C 	0.80175 0.10657 0.40997 0.08600
C 	C 	0.76616 0.08506 0.41228 -0.08500
H 	H 	0.73294 0.15977 0.41489 0.06700
H 	H 	0.83887 0.16315 0.40625 0.07000
H 	H 	0.75965 0.05507 0.41528 0.09000
C 	C 	0.77909 0.40939 0.01518 0.01000
C 	C 	0.75975 0.43475 0.01788 -0.05700
C 	C 	0.72030 0.41704 0.01568 0.01000
C 	C 	0.70250 0.37541 0.01438 -0.05700
C 	C 	0.72174 0.34984 0.01181 0.01200
C 	C 	0.76023 0.36710 0.01245 -0.05700
H 	H 	0.77373 0.46698 0.01909 0.04700
H 	H 	0.67247 0.36201 0.01338 0.04900
H 	H 	0.77438 0.34695 0.00910 0.05300
C 	C 	0.71038 0.37691 0.47938 0.01900
C 	C 	0.69458 0.33419 0.47654 -0.05900
C 	C 	0.65481 0.31247 0.47331 0.01800
C 	C 	0.62999 0.33271 0.47115 -0.06600
C 	C 	0.64581 0.37534 0.47443 0.06000
C 	C 	0.68690 0.39816 0.48038 -0.07000
H 	H 	0.71263 0.31767 0.47615 0.04800
H 	H 	0.59792 0.31488 0.46606 0.06300
H 	H 	0.69945 0.43156 0.48376 0.06100
Zn	Zn	0.63655 0.60958 0.02272 1.18700
Zn	Zn	0.55851 0.57491 0.93863 1.19600
O 	O 	0.55127 0.50102 0.87174 -0.46300
O 	O 	0.53345 0.55458 0.87870 -0.42600
O 	O 	0.56222 0.44852 0.92974 -0.49400
C 	C 	0.67304 0.58593 0.98210 0.34000
O 	O 	0.52039 0.51361 0.92523 -0.87700
C 	C 	0.63510 0.67186 0.99029 0.35100
O 	O 	0.68407 0.60980 0.01809 -0.45000
O 	O 	0.63108 0.55487 0.95287 -0.36100
O 	O 	0.57619 0.58167 0.99489 -0.76900
O 	O 	0.59851 0.50796 0.99125 -0.44200
O 	O 	0.60088 0.63755 0.95392 -0.43900
O 	O 	0.64794 0.66744 0.02318 -0.45200
Zn	Zn	0.44449 0.44151 0.94132 1.18000
Zn	Zn	0.52180 0.46225 0.01587 1.19500
Zn	Zn	0.53861 0.52002 0.97802 1.21800
C 	C 	0.44213 0.37038 0.96570 0.31000
C 	C 	0.41906 0.46629 0.99173 0.34400
O 	O 	0.48007 0.53614 0.96629 -0.46400
Zn	Zn	0.52536 0.54401 0.04730 1.20100
O 	O 	0.48491 0.39785 0.99610 -0.43400
O 	O 	0.42128 0.38124 0.93867 -0.43900
O 	O 	0.40961 0.45861 0.95570 -0.45900
O 	O 	0.45945 0.47868 0.02117 -0.47100
C 	C 	0.54684 0.50913 0.10228 0.33300
O 	O 	0.50139 0.45865 0.96038 -0.79600
C 	C 	0.47931 0.56561 0.99133 0.31800
O 	O 	0.54053 0.47537 0.07437 -0.41200
O 	O 	0.55137 0.54531 0.09926 -0.46800
O 	O 	0.49859 0.57469 0.02928 -0.49600
O 	O 	0.55522 0.52481 0.03036 -0.89100
Zn	Zn	0.53540 0.47591 0.90321 1.18900
C 	C 	0.53655 0.52438 0.85715 0.32700
C 	C 	0.59453 0.47219 0.96863 0.35300
H 	H 	0.58769 0.54018 0.05135 0.18300
H 	H 	0.48819 0.50233 0.90725 0.14700
Zn	Zn	0.57636 0.57174 0.48817 1.18600
Zn	Zn	0.49985 0.54116 0.40476 1.19400
O 	O 	0.48947 0.46084 0.33954 -0.47300
O 	O 	0.47964 0.51995 0.34613 -0.44400
O 	O 	0.48300 0.40569 0.39286 -0.49300
C 	C 	0.61140 0.54268 0.44796 0.28900
O 	O 	0.45594 0.48153 0.39044 -0.87200
C 	C 	0.57770 0.63668 0.45825 0.34200
O 	O 	0.62256 0.56722 0.48385 -0.45000
O 	O 	0.56917 0.51262 0.41865 -0.35000
O 	O 	0.51629 0.54861 0.46071 -0.76900
O 	O 	0.52667 0.46703 0.45480 -0.44800
O 	O 	0.54744 0.60185 0.42140 -0.45800
O 	O 	0.59394 0.63128 0.49056 -0.44100
Zn	Zn	0.37511 0.41645 0.41076 1.17600
Zn	Zn	0.45154 0.43459 0.48308 1.18600
Zn	Zn	0.47313 0.48881 0.44359 1.21700
C 	C 	0.36843 0.34412 0.43380 0.31000
C 	C 	0.35643 0.44879 0.46533 0.34400
O 	O 	0.42058 0.51376 0.43321 -0.45800
Zn	Zn	0.46341 0.52027 0.51457 1.20100
O 	O 	0.41079 0.37140 0.46534 -0.45100
O 	O 	0.34848 0.35613 0.40746 -0.45600
O 	O 	0.34381 0.43731 0.42790 -0.46700
O 	O 	0.39685 0.45948 0.49297 -0.47400
C 	C 	0.48781 0.48881 0.57256 0.33100
O 	O 	0.43050 0.42906 0.42666 -0.79700
C 	C 	0.42043 0.54389 0.45832 0.31300
O 	O 	0.47530 0.45158 0.54324 -0.43000
O 	O 	0.49078 0.52373 0.56752 -0.46600
O 	O 	0.43899 0.55259 0.49619 -0.48200
O 	O 	0.48914 0.49535 0.49607 -0.89400
Zn	Zn	0.46427 0.43746 0.36692 1.18700
C 	C 	0.48602 0.49060 0.32809 0.32600
C 	C 	0.51807 0.42889 0.43070 0.30800
H 	H 	0.52131 0.50839 0.51652 0.17100
H 	H 	0.42483 0.47393 0.37312 0.14900
C 	C 	0.56206 0.54565 0.75735 -0.07700
C 	C 	0.51861 0.51098 0.74956 0.02600
C 	C 	0.47393 0.51029 0.68295 -0.07600
C 	C 	0.50782 0.49972 0.68024 0.02500
C 	C 	0.55573 0.53902 0.71661 -0.07600
H 	H 	0.57129 0.58018 0.77490 0.05400
H 	H 	0.59024 0.54211 0.77585 0.05400
C 	C 	0.52465 0.51706 0.78823 0.03300
H 	H 	0.43914 0.48256 0.65731 0.04700
H 	H 	0.47844 0.54109 0.68040 0.04900
C 	C 	0.50157 0.49385 0.64152 0.03200
H 	H 	0.56196 0.57041 0.71474 0.04800
H 	H 	0.58086 0.53231 0.71566 0.04800
C 	C 	0.50049 0.45680 0.68405 -0.07700
H 	H 	0.52453 0.44847 0.68243 0.04900
H 	H 	0.46626 0.42799 0.65839 0.04800
C 	C 	0.50683 0.46341 0.72480 -0.07700
H 	H 	0.47563 0.43771 0.71857 0.04400
H 	H 	0.53387 0.45818 0.74260 0.04800
C 	C 	0.48028 0.51692 0.72367 -0.07700
H 	H 	0.44855 0.49233 0.71746 0.04500
H 	H 	0.48788 0.55088 0.74056 0.04900
C 	C 	0.52982 0.52113 0.81977 -0.09900
C 	C 	0.49575 0.49050 0.60991 -0.10500
C 	C 	0.50537 0.52572 0.19307 -0.07700
C 	C 	0.52904 0.50009 0.19008 0.02800
C 	C 	0.56319 0.52062 0.26441 -0.07400
C 	C 	0.51219 0.49777 0.24426 0.02300
C 	C 	0.49552 0.52439 0.22489 -0.07600
H 	H 	0.52671 0.56113 0.20168 0.04800
H 	H 	0.47346 0.51066 0.16303 0.04600
C 	C 	0.53778 0.50171 0.15949 0.03500
H 	H 	0.57613 0.50212 0.27854 0.04800
H 	H 	0.58128 0.55527 0.28908 0.04800
C 	C 	0.50257 0.49627 0.27434 0.03100
H 	H 	0.51225 0.55914 0.24874 0.04700
H 	H 	0.45895 0.50869 0.21005 0.04500
C 	C 	0.48836 0.44975 0.21002 -0.07500
H 	H 	0.45163 0.43249 0.19481 0.04600
H 	H 	0.49978 0.42981 0.22304 0.04800
C 	C 	0.49829 0.45111 0.17819 -0.07900
H 	H 	0.51450 0.43189 0.17605 0.05500
H 	H 	0.46629 0.43451 0.14782 0.05200
C 	C 	0.57310 0.52200 0.23253 -0.07900
H 	H 	0.59076 0.50417 0.23143 0.05600
H 	H 	0.59585 0.55732 0.24195 0.05600
C 	C 	0.54309 0.50423 0.13370 -0.09900
C 	C 	0.49471 0.49427 0.29882 -0.11200
C 	C 	0.63862 0.26823 0.47172 0.05000
C 	C 	0.63141 0.23213 0.44204 -0.08400
C 	C 	0.61167 0.18933 0.43785 0.04700
C 	C 	0.59825 0.18197 0.46286 -0.13800
C 	C 	0.60524 0.21820 0.49255 0.16400
C 	C 	0.62636 0.26118 0.49749 -0.11500
H 	H 	0.60669 0.16185 0.41507 0.03000
H 	H 	0.63183 0.28891 0.52046 0.08600
H 	H 	0.64032 0.23704 0.42172 0.05400
Br	Br	0.58269 0.20921 0.52416 -0.26400
C 	C 	0.74920 0.39782 0.47773 0.04800
C 	C 	0.78821 0.39819 0.50123 -0.08100
C 	C 	0.82392 0.41643 0.49836 0.04400
C 	C 	0.82173 0.43595 0.47300 -0.13800
C 	C 	0.78397 0.43871 0.45191 0.16400
C 	C 	0.74728 0.41796 0.45290 -0.11300
H 	H 	0.85287 0.41449 0.51520 0.03100
H 	H 	0.71743 0.41798 0.43467 0.07700
H 	H 	0.79074 0.38396 0.52140 0.05300
Br	Br	0.78326 0.47390 0.42460 -0.24000
C 	C 	0.55261 0.41764 0.44321 -0.07700
C 	C 	0.56313 0.40343 0.41643 0.00300
C 	C 	0.59473 0.39122 0.42742 -0.03500
C 	C 	0.61623 0.39302 0.46530 -0.03100
C 	C 	0.60700 0.40883 0.49292 0.09500
C 	C 	0.57526 0.42118 0.48178 -0.03800
H 	H 	0.60192 0.37948 0.40615 0.04300
H 	H 	0.56781 0.43287 0.50284 0.04500
H 	H 	0.54670 0.40176 0.38701 0.03200
Br	Br	0.63767 0.41424 0.54595 -0.24600
C 	C 	0.69979 0.30369 0.00563 0.04200
C 	C 	0.65343 0.27410 0.97681 -0.07200
C 	C 	0.63258 0.23105 0.97168 0.04400
C 	C 	0.65793 0.21638 0.99420 -0.12400
C 	C 	0.70491 0.24493 0.02104 0.15700
C 	C 	0.72533 0.28888 0.02779 -0.10900
H 	H 	0.59662 0.20919 0.95037 0.03000
H 	H 	0.76118 0.31123 0.04970 0.07600
H 	H 	0.63350 0.28450 0.95846 0.05400
Br	Br	0.74209 0.22331 0.04521 -0.25100
C 	C 	0.81483 0.42404 0.00910 0.04300
C 	C 	0.85621 0.46395 0.03901 -0.08100
C 	C 	0.88983 0.47766 0.03293 0.03800
C 	C 	0.88253 0.45153 0.99692 -0.13100
C 	C 	0.84080 0.41092 0.96693 0.16500
C 	C 	0.80719 0.39801 0.97302 -0.10700
H 	H 	0.92163 0.50863 0.05626 0.02300
H 	H 	0.77515 0.36725 0.94978 0.08100
H 	H 	0.86238 0.48429 0.06701 0.05100
Br	Br	0.82934 0.37075 0.91869 -0.26400
C 	C 	0.69398 0.43854 0.00841 0.04400
C 	C 	0.68263 0.44856 0.97632 -0.07800
C 	C 	0.65183 0.46177 0.96488 0.04900
C 	C 	0.63128 0.46431 0.98479 -0.14600
C 	C 	0.64420 0.45650 0.01836 0.16300
C 	C 	0.67595 0.44425 0.03036 -0.11600
H 	H 	0.64288 0.46876 0.93966 0.02600
H 	H 	0.68529 0.43751 0.05572 0.07900
H 	H 	0.69635 0.44441 0.95919 0.05600
Br	Br	0.61679 0.45938 0.04641 -0.32900
C 	C 	0.89384 0.06325 0.44268 -0.06700
C 	C 	0.90550 0.10502 0.46890 0.00300
C 	C 	0.87611 0.11983 0.45730 -0.02400
C 	C 	0.83490 0.09339 0.41913 -0.03300
C 	C 	0.82459 0.05313 0.39139 0.10700
C 	C 	0.85414 0.03820 0.40325 -0.03000
H 	H 	0.88466 0.15123 0.47856 0.04900
H 	H 	0.84524 0.00628 0.38251 0.05300
H 	H 	0.93669 0.12528 0.49893 0.04600
Br	Br	0.77023 0.01794 0.33760 -0.23200
C 	C 	0.84350 0.29861 0.42706 -0.06300
C 	C 	0.85214 0.29101 0.46025 -0.00500
C 	C 	0.83143 0.24750 0.45413 -0.02900
C 	C 	0.80194 0.21110 0.41479 -0.04000
C 	C 	0.79150 0.21870 0.38128 0.10100
C 	C 	0.81228 0.26240 0.38751 -0.04200
H 	H 	0.83936 0.24193 0.48006 0.04700
H 	H 	0.80501 0.26804 0.36168 0.06000
H 	H 	0.87540 0.31877 0.49085 0.04400
Br	Br	0.74937 0.16982 0.32693 -0.24800
C 	C 	0.64477 0.05422 0.43879 -0.05200
C 	C 	0.63108 0.04399 0.39889 -0.01300
C 	C 	0.66276 0.05947 0.39088 -0.02300
C 	C 	0.70845 0.08518 0.42254 -0.04100
C 	C 	0.72238 0.09429 0.46239 0.10500
C 	C 	0.69055 0.07858 0.47030 -0.04500
H 	H 	0.65178 0.05222 0.36015 0.04200
H 	H 	0.70146 0.08601 0.50104 0.07200
H 	H 	0.59589 0.02521 0.37424 0.04900
Br	Br	0.78467 0.12943 0.50660 -0.24200
C 	C 	0.95162 0.08375 0.97570 -0.06900
C 	C 	0.96587 0.12756 0.00008 -0.01700
C 	C 	0.93692 0.14287 0.98916 -0.01700
C 	C 	0.89351 0.11485 0.95332 -0.04000
C 	C 	0.87980 0.07159 0.92747 0.10000
C 	C 	0.90887 0.05610 0.93889 -0.04000
H 	H 	0.94788 0.17633 0.00902 0.04600
H 	H 	0.89777 0.02226 0.91978 0.05800
H 	H 	0.99905 0.14933 0.02824 0.03800
Br	Br	0.82204 0.03362 0.87645 -0.24400
C 	C 	0.91798 0.32554 0.96040 -0.05400
C 	C 	0.88226 0.28947 0.92155 -0.00100
C 	C 	0.86054 0.24665 0.91652 -0.02700
C 	C 	0.87424 0.23949 0.95020 -0.03800
C 	C 	0.90922 0.27580 0.98933 0.10600
C 	C 	0.93081 0.31862 0.99427 -0.03600
H 	H 	0.83362 0.21886 0.88634 0.04400
H 	H 	0.95766 0.34647 0.02444 0.07100
H 	H 	0.87190 0.29441 0.89518 0.04500
Br	Br	0.92853 0.26734 0.03627 -0.24900
C 	C 	0.77079 0.12042 0.95691 0.04900
C 	C 	0.77853 0.11151 0.98937 -0.07100
C 	C 	0.74625 0.09973 0.99718 0.05600
C 	C 	0.70641 0.09770 0.97320 -0.13100
C 	C 	0.69898 0.10738 0.94098 0.16700
C 	C 	0.73041 0.11706 0.93218 -0.10900
H 	H 	0.75238 0.09253 0.02208 0.02500
H 	H 	0.72426 0.12387 0.90707 0.08000
H 	H 	0.80983 0.11448 0.00897 0.05300
Br	Br	0.64891 0.11259 0.91155 -0.24700
C 	C 	0.80639 0.63715 0.95091 0.03400
C 	C 	0.82794 0.61408 0.94851 -0.07200
C 	C 	0.86267 0.63093 0.94404 0.07500
C 	C 	0.87398 0.66945 0.93968 -0.08600
C 	C 	0.85425 0.69376 0.94421 0.07100
C 	C 	0.81993 0.67723 0.94906 -0.07200
H 	H 	0.81901 0.58420 0.95178 0.06600
H 	H 	0.90114 0.68278 0.93668 0.06500
H 	H 	0.80510 0.69646 0.95311 0.06800
C 	C 	0.74139 0.60426 0.41417 0.08100
C 	C 	0.75122 0.64422 0.41227 -0.09100
C 	C 	0.78635 0.66545 0.40938 0.08200
C 	C 	0.81080 0.64599 0.40721 -0.09100
C 	C 	0.80175 0.60657 0.40997 0.08500
C 	C 	0.76616 0.58506 0.41228 -0.08500
H 	H 	0.73294 0.65977 0.41489 0.06700
H 	H 	0.83887 0.66314 0.40625 0.07000
H 	H 	0.75965 0.55507 0.41528 0.08900
C 	C 	0.77909 0.90939 0.01518 0.01100
C 	C 	0.75975 0.93475 0.01788 -0.05800
C 	C 	0.72030 0.91704 0.01568 0.01000
C 	C 	0.70250 0.87541 0.01438 -0.05700
C 	C 	0.72174 0.84984 0.01181 0.01200
C 	C 	0.76023 0.86710 0.01245 -0.05800
H 	H 	0.77373 0.96698 0.01909 0.04600
H 	H 	0.67247 0.86201 0.01338 0.04900
H 	H 	0.77438 0.84695 0.00910 0.05300
C 	C 	0.71038 0.87691 0.47938 0.01800
C 	C 	0.69458 0.83419 0.47654 -0.05900
C 	C 	0.65481 0.81247 0.47331 0.01800
C 	C 	0.62999 0.83271 0.47115 -0.06600
C 	C 	0.64581 0.87534 0.47443 0.06000
C 	C 	0.68690 0.89816 0.48038 -0.07000
H 	H 	0.71263 0.81767 0.47615 0.04800
H 	H 	0.59792 0.81488 0.46606 0.06300
H 	H 	0.69945 0.93156 0.48376 0.06000
Zn	Zn	0.63655 0.10958 0.02272 1.18700
Zn	Zn	0.55851 0.07491 0.93863 1.19700
O 	O 	0.55127 0.00101 0.87174 -0.46100
O 	O 	0.53345 0.05458 0.87870 -0.42500
O 	O 	0.56222 0.94852 0.92974 -0.49400
C 	C 	0.67304 0.08593 0.98210 0.34100
O 	O 	0.52039 0.01361 0.92523 -0.87500
C 	C 	0.63510 0.17186 0.99029 0.35100
O 	O 	0.68407 0.10980 0.01809 -0.45000
O 	O 	0.63108 0.05487 0.95287 -0.36000
O 	O 	0.57619 0.08167 0.99489 -0.76900
O 	O 	0.59851 0.00796 0.99125 -0.43600
O 	O 	0.60088 0.13755 0.95392 -0.43900
O 	O 	0.64794 0.16744 0.02318 -0.45100
Zn	Zn	0.44449 0.94151 0.94132 1.18000
Zn	Zn	0.52180 0.96225 0.01587 1.19400
Zn	Zn	0.53861 0.02002 0.97802 1.21900
C 	C 	0.44213 0.87038 0.96570 0.31000
C 	C 	0.41907 0.96629 0.99173 0.34200
O 	O 	0.48007 0.03614 0.96629 -0.46200
Zn	Zn	0.52536 0.04401 0.04730 1.20200
O 	O 	0.48491 0.89785 0.99610 -0.43400
O 	O 	0.42128 0.88124 0.93867 -0.43900
O 	O 	0.40961 0.95861 0.95570 -0.46100
O 	O 	0.45945 0.97867 0.02117 -0.47400
C 	C 	0.54684 0.00913 0.10228 0.34000
O 	O 	0.50139 0.95865 0.96038 -0.79900
C 	C 	0.47931 0.06561 0.99133 0.31800
O 	O 	0.54053 0.97537 0.07437 -0.41800
O 	O 	0.55137 0.04531 0.09926 -0.46800
O 	O 	0.49859 0.07469 0.02928 -0.49500
O 	O 	0.55522 0.02481 0.03036 -0.88800
Zn	Zn	0.53540 0.97591 0.90321 1.18700
C 	C 	0.53655 0.02438 0.85715 0.32700
C 	C 	0.59453 0.97219 0.96863 0.34600
H 	H 	0.58769 0.04018 0.05135 0.18300
H 	H 	0.48819 0.00233 0.90725 0.14900
Zn	Zn	0.57636 0.07174 0.48817 1.18600
Zn	Zn	0.49985 0.04116 0.40476 1.19500
O 	O 	0.48947 0.96084 0.33954 -0.47400
O 	O 	0.47964 0.01995 0.34613 -0.43800
O 	O 	0.48300 0.90569 0.39286 -0.49300
C 	C 	0.61140 0.04268 0.44796 0.28900
O 	O 	0.45594 0.98153 0.39044 -0.87500
C 	C 	0.57770 0.13668 0.45825 0.34200
O 	O 	0.62256 0.06722 0.48385 -0.44900
O 	O 	0.56917 0.01262 0.41865 -0.34700
O 	O 	0.51629 0.04861 0.46071 -0.76700
O 	O 	0.52667 0.96703 0.45480 -0.45000
O 	O 	0.54744 0.10185 0.42140 -0.45700
O 	O 	0.59394 0.13128 0.49056 -0.44000
Zn	Zn	0.37511 0.91645 0.41076 1.17500
Zn	Zn	0.45154 0.93459 0.48308 1.18600
Zn	Zn	0.47313 0.98881 0.44359 1.21600
C 	C 	0.36843 0.84412 0.43380 0.31000
C 	C 	0.35643 0.94879 0.46533 0.34400
O 	O 	0.42058 0.01376 0.43321 -0.45400
Zn	Zn	0.46341 0.02027 0.51457 1.20300
O 	O 	0.41079 0.87140 0.46534 -0.45200
O 	O 	0.34848 0.85613 0.40746 -0.45700
O 	O 	0.34381 0.93731 0.42790 -0.46800
O 	O 	0.39685 0.95948 0.49297 -0.47500
C 	C 	0.48781 0.98881 0.57256 0.32500
O 	O 	0.43050 0.92906 0.42666 -0.79700
C 	C 	0.42043 0.04389 0.45832 0.31300
O 	O 	0.47530 0.95158 0.54324 -0.42900
O 	O 	0.49078 0.02373 0.56752 -0.46000
O 	O 	0.43899 0.05259 0.49619 -0.48000
O 	O 	0.48914 0.99535 0.49607 -0.90200
Zn	Zn	0.46427 0.93746 0.36692 1.18700
C 	C 	0.48602 0.99060 0.32809 0.32000
C 	C 	0.51807 0.92889 0.43070 0.30800
H 	H 	0.52131 0.00839 0.51652 0.17700
H 	H 	0.42483 0.97393 0.37312 0.14800
C 	C 	0.56206 0.04565 0.75735 -0.08100
C 	C 	0.51861 0.01098 0.74956 0.03300
C 	C 	0.47393 0.01029 0.68295 -0.06300
C 	C 	0.50782 0.99972 0.68024 0.01200
C 	C 	0.55573 0.03902 0.71661 -0.06800
H 	H 	0.57129 0.08018 0.77490 0.05500
H 	H 	0.59024 0.04211 0.77585 0.05600
C 	C 	0.52465 0.01706 0.78823 0.03300
H 	H 	0.43914 0.98256 0.65731 0.04100
H 	H 	0.47844 0.04109 0.68040 0.04700
C 	C 	0.50157 0.99385 0.64152 0.03300
H 	H 	0.56196 0.07041 0.71474 0.04700
H 	H 	0.58086 0.03231 0.71566 0.04900
C 	C 	0.50049 0.95680 0.68405 -0.07300
H 	H 	0.52453 0.94847 0.68243 0.04700
H 	H 	0.46626 0.92799 0.65839 0.04600
C 	C 	0.50683 0.96341 0.72480 -0.08400
H 	H 	0.47563 0.93771 0.71857 0.04400
H 	H 	0.53387 0.95818 0.74260 0.04800
C 	C 	0.48028 0.01692 0.72367 -0.07500
H 	H 	0.44855 0.99233 0.71746 0.04100
H 	H 	0.48788 0.05088 0.74056 0.04900
C 	C 	0.52982 0.02113 0.81977 -0.09700
C 	C 	0.49575 0.99050 0.60991 -0.10600
C 	C 	0.50537 0.02572 0.19307 -0.08100
C 	C 	0.52904 0.00009 0.19008 0.03500
C 	C 	0.56319 0.02062 0.26441 -0.06600
C 	C 	0.51219 0.99777 0.24426 0.01100
C 	C 	0.49552 0.02439 0.22489 -0.06700
H 	H 	0.52671 0.06113 0.20168 0.04900
H 	H 	0.47346 0.01066 0.16303 0.04900
C 	C 	0.53778 0.00171 0.15949 0.03500
H 	H 	0.57613 0.00212 0.27854 0.04800
H 	H 	0.58128 0.05527 0.28908 0.04700
C 	C 	0.50257 0.99627 0.27434 0.03100
H 	H 	0.51225 0.05914 0.24874 0.04600
H 	H 	0.45895 0.00869 0.21005 0.04600
C 	C 	0.48836 0.94975 0.21002 -0.07100
H 	H 	0.45163 0.93249 0.19481 0.04400
H 	H 	0.49979 0.92981 0.22304 0.04600
C 	C 	0.49829 0.95112 0.17819 -0.08600
H 	H 	0.51450 0.93189 0.17605 0.05500
H 	H 	0.46629 0.93451 0.14782 0.05200
C 	C 	0.57310 0.02200 0.23253 -0.08300
H 	H 	0.59076 0.00417 0.23143 0.05800
H 	H 	0.59585 0.05732 0.24195 0.05700
C 	C 	0.54309 0.00423 0.13370 -0.09800
C 	C 	0.49471 0.99427 0.29882 -0.11400
C 	C 	0.63862 0.76823 0.47172 0.05000
C 	C 	0.63141 0.73213 0.44204 -0.08400
C 	C 	0.61167 0.68933 0.43785 0.04700
C 	C 	0.59825 0.68197 0.46286 -0.13800
C 	C 	0.60524 0.71820 0.49255 0.16400
C 	C 	0.62636 0.76118 0.49749 -0.11500
H 	H 	0.60669 0.66185 0.41507 0.03000
H 	H 	0.63183 0.78891 0.52046 0.08600
H 	H 	0.64032 0.73704 0.42172 0.05400
Br	Br	0.58269 0.70921 0.52416 -0.26500
C 	C 	0.74920 0.89782 0.47773 0.04800
C 	C 	0.78821 0.89819 0.50123 -0.08100
C 	C 	0.82392 0.91643 0.49836 0.04300
C 	C 	0.82173 0.93595 0.47300 -0.13900
C 	C 	0.78397 0.93871 0.45191 0.16400
C 	C 	0.74728 0.91796 0.45290 -0.11300
H 	H 	0.85287 0.91449 0.51520 0.03000
H 	H 	0.71743 0.91798 0.43467 0.07700
H 	H 	0.79074 0.88396 0.52140 0.05300
Br	Br	0.78326 0.97390 0.42460 -0.24500
C 	C 	0.55261 0.91765 0.44321 -0.07800
C 	C 	0.56313 0.90343 0.41643 0.00300
C 	C 	0.59473 0.89122 0.42742 -0.03500
C 	C 	0.61623 0.89302 0.46530 -0.03100
C 	C 	0.60700 0.90883 0.49292 0.09500
C 	C 	0.57526 0.92118 0.48178 -0.03800
H 	H 	0.60192 0.87948 0.40615 0.04300
H 	H 	0.56781 0.93287 0.50284 0.04400
H 	H 	0.54670 0.90176 0.38701 0.03200
Br	Br	0.63767 0.91424 0.54595 -0.24800
C 	C 	0.69979 0.80369 0.00563 0.04200
C 	C 	0.65343 0.77410 0.97681 -0.07200
C 	C 	0.63258 0.73105 0.97168 0.04400
C 	C 	0.65793 0.71638 0.99420 -0.12400
C 	C 	0.70491 0.74493 0.02104 0.15700
C 	C 	0.72533 0.78889 0.02779 -0.11000
H 	H 	0.59662 0.70919 0.95037 0.03000
H 	H 	0.76118 0.81123 0.04970 0.07500
H 	H 	0.63350 0.78450 0.95846 0.05400
Br	Br	0.74209 0.72331 0.04521 -0.25100
C 	C 	0.81483 0.92404 0.00910 0.04100
C 	C 	0.85621 0.96395 0.03901 -0.07800
C 	C 	0.88983 0.97766 0.03293 0.02900
C 	C 	0.88253 0.95153 0.99692 -0.12900
C 	C 	0.84080 0.91092 0.96693 0.16300
C 	C 	0.80719 0.89801 0.97302 -0.10600
H 	H 	0.92163 0.00863 0.05626 0.02900
H 	H 	0.77515 0.86725 0.94978 0.08000
H 	H 	0.86238 0.98429 0.06701 0.04800
Br	Br	0.82934 0.87075 0.91869 -0.26500
C 	C 	0.69398 0.93854 0.00841 0.04300
C 	C 	0.68263 0.94856 0.97632 -0.07900
C 	C 	0.65183 0.96177 0.96488 0.04700
C 	C 	0.63128 0.96431 0.98479 -0.14500
C 	C 	0.64420 0.95650 0.01836 0.16200
C 	C 	0.67595 0.94425 0.03036 -0.11700
H 	H 	0.64288 0.96876 0.93966 0.02500
H 	H 	0.68529 0.93751 0.05572 0.07800
H 	H 	0.69635 0.94441 0.95919 0.05500
Br	Br	0.61679 0.95938 0.04641 -0.33200
C 	C 	0.89384 0.56325 0.44268 -0.06800
C 	C 	0.90550 0.60502 0.46890 0.00300
C 	C 	0.87611 0.61983 0.45730 -0.02500
C 	C 	0.83490 0.59339 0.41913 -0.03300
C 	C 	0.82459 0.55313 0.39139 0.10600
C 	C 	0.85414 0.53820 0.40325 -0.03100
H 	H 	0.88466 0.65123 0.47856 0.04900
H 	H 	0.84524 0.50628 0.38251 0.05200
H 	H 	0.93669 0.62528 0.49893 0.04500
Br	Br	0.77023 0.51794 0.33760 -0.23500
C 	C 	0.84350 0.79861 0.42706 -0.06300
C 	C 	0.85214 0.79101 0.46025 -0.00500
C 	C 	0.83143 0.74750 0.45413 -0.02900
C 	C 	0.80194 0.71110 0.41479 -0.04000
C 	C 	0.79150 0.71870 0.38128 0.10100
C 	C 	0.81228 0.76240 0.38751 -0.04200
H 	H 	0.83936 0.74193 0.48006 0.04700
H 	H 	0.80501 0.76804 0.36168 0.06000
H 	H 	0.87540 0.81877 0.49085 0.04400
Br	Br	0.74937 0.66982 0.32693 -0.24800
C 	C 	0.64477 0.55422 0.43879 -0.05300
C 	C 	0.63108 0.54399 0.39889 -0.01300
C 	C 	0.66276 0.55947 0.39088 -0.02300
C 	C 	0.70845 0.58518 0.42254 -0.04100
C 	C 	0.72238 0.59429 0.46239 0.10500
C 	C 	0.69055 0.57858 0.47030 -0.04500
H 	H 	0.65178 0.55222 0.36015 0.04200
H 	H 	0.70146 0.58602 0.50104 0.07100
H 	H 	0.59589 0.52521 0.37424 0.04700
Br	Br	0.78467 0.62943 0.50660 -0.24400
C 	C 	0.95162 0.58375 0.97570 -0.07000
C 	C 	0.96587 0.62756 0.00008 -0.01600
C 	C 	0.93692 0.64287 0.98916 -0.01800
C 	C 	0.89351 0.61485 0.95332 -0.04000
C 	C 	0.87980 0.57159 0.92747 0.09900
C 	C 	0.90887 0.55610 0.93889 -0.04100
H 	H 	0.94788 0.67633 0.00902 0.04600
H 	H 	0.89777 0.52226 0.91978 0.05600
H 	H 	0.99905 0.64933 0.02824 0.03800
Br	Br	0.82204 0.53362 0.87645 -0.24700
C 	C 	0.91798 0.82554 0.96040 -0.05500
C 	C 	0.88226 0.78947 0.92155 -0.00100
C 	C 	0.86054 0.74665 0.91652 -0.02700
C 	C 	0.87424 0.73949 0.95020 -0.03800
C 	C 	0.90922 0.77580 0.98933 0.10600
C 	C 	0.93081 0.81862 0.99427 -0.03600
H 	H 	0.83362 0.71886 0.88634 0.04300
H 	H 	0.95766 0.84647 0.02444 0.07000
H 	H 	0.87190 0.79441 0.89518 0.04500
Br	Br	0.92853 0.76734 0.03627 -0.25000
C 	C 	0.77079 0.62042 0.95691 0.04800
C 	C 	0.77853 0.61151 0.98937 -0.07200
C 	C 	0.74625 0.59973 0.99718 0.05500
C 	C 	0.70641 0.59770 0.97320 -0.13100
C 	C 	0.69898 0.60738 0.94098 0.16700
C 	C 	0.73041 0.61706 0.93218 -0.10900
H 	H 	0.75238 0.59253 0.02208 0.02400
H 	H 	0.72426 0.62387 0.90707 0.07900
H 	H 	0.80983 0.61448 0.00897 0.05200
Br	Br	0.64891 0.61259 0.91155 -0.24700
