data_crystal

_cell_length_a 35.38186
_cell_length_b 32.27368
_cell_length_c 35.48681
_cell_angle_alpha 89.28697
_cell_angle_beta  92.54827
_cell_angle_gamma 100.84894

_symmetry_space_group_name_	'P 1'
_symmetry_space_group_name_H-M	'P 1'

loop_
_symmetry_equiv_pos_as_xyz
  x,y,z

loop_
_atom_site_label
_atom_site_type_symbol
_atom_site_fract_x
_atom_site_fract_y
_atom_site_fract_z
_atom_site_charge
Ni	Ni	0.96783 0.99987 0.02895 1.09400
O 	O 	0.02599 0.00493 0.02376 -0.69600
Ni	Ni	0.02827 0.98991 0.96864 1.09600
O 	O 	0.97177 0.00831 0.08661 -0.35800
O 	O 	0.00907 0.95893 0.09757 -0.40800
O 	O 	0.97222 0.06480 0.02728 -0.36700
Ni	Ni	0.04560 0.96096 0.05329 1.06200
O 	O 	0.91027 0.04015 0.98023 -0.40900
O 	O 	0.00391 0.91503 0.03039 -0.42100
O 	O 	0.08659 0.99570 0.96778 -0.38100
O 	O 	0.97015 0.98492 0.97382 -0.70300
O 	O 	0.90955 0.99409 0.02959 -0.38500
O 	O 	0.02419 0.98155 0.91094 -0.36500
O 	O 	0.98762 0.03170 0.90024 -0.40300
Ni	Ni	0.95083 0.02918 0.94434 1.06500
H 	H 	0.04087 0.03346 0.02953 0.15300
H 	H 	0.95520 0.95644 0.96795 0.15300
C 	C 	0.00709 0.90006 0.99696 0.28300
O 	O 	0.99224 0.07483 0.96740 -0.42200
C 	C 	0.99559 0.99154 0.10891 0.25900
C 	C 	0.10499 0.97904 0.99537 0.27300
C 	C 	0.98880 0.08977 0.00077 0.28400
C 	C 	0.00108 0.99923 0.88856 0.26600
C 	C 	0.89112 0.01091 0.00212 0.27600
O 	O 	0.02370 0.92496 0.97039 -0.36800
O 	O 	0.08584 0.94976 0.01720 -0.41000
Ni	Ni	0.97136 0.00770 0.52906 1.09800
O 	O 	0.02947 0.01252 0.52369 -0.69700
Ni	Ni	0.03155 0.99762 0.46856 1.09500
O 	O 	0.97558 0.01599 0.58674 -0.36000
O 	O 	0.01242 0.96607 0.59728 -0.40800
O 	O 	0.97600 0.07266 0.52741 -0.36800
Ni	Ni	0.04897 0.96830 0.55296 1.06200
O 	O 	0.91377 0.04828 0.48062 -0.40800
O 	O 	0.00702 0.92270 0.53000 -0.42300
O 	O 	0.08985 0.00317 0.46758 -0.37200
O 	O 	0.97345 0.99279 0.47389 -0.70400
O 	O 	0.91308 0.00213 0.52991 -0.37900
O 	O 	0.02738 0.98941 0.41085 -0.37100
O 	O 	0.99043 0.03920 0.40011 -0.40900
Ni	Ni	0.95407 0.03712 0.44453 1.06500
H 	H 	0.04448 0.04098 0.52951 0.15300
H 	H 	0.95843 0.96434 0.46804 0.15300
C 	C 	0.01024 0.90770 0.49662 0.28300
O 	O 	0.99571 0.08268 0.46739 -0.42200
C 	C 	0.99898 0.99855 0.60898 0.25900
C 	C 	0.10828 0.98565 0.49460 0.26700
C 	C 	0.99258 0.09759 0.50086 0.28300
C 	C 	0.00376 0.00655 0.38861 0.28400
C 	C 	0.89462 0.01905 0.50251 0.27200
O 	O 	0.02672 0.93263 0.47002 -0.36900
O 	O 	0.08895 0.95671 0.51667 -0.41300
Ni	Ni	0.96615 0.49917 0.02960 1.09700
O 	O 	0.02421 0.50398 0.02462 -0.70100
Ni	Ni	0.02685 0.49057 0.96924 1.09700
O 	O 	0.97033 0.50648 0.08736 -0.36400
O 	O 	0.00499 0.45429 0.09647 -0.41100
O 	O 	0.97103 0.56418 0.02886 -0.36800
Ni	Ni	0.04315 0.45898 0.05323 1.06300
O 	O 	0.90907 0.54108 0.98189 -0.41200
O 	O 	0.00195 0.41372 0.02870 -0.42100
O 	O 	0.08518 0.49654 0.96873 -0.37900
O 	O 	0.96863 0.48526 0.97423 -0.70000
O 	O 	0.90789 0.49364 0.03024 -0.37800
O 	O 	0.02332 0.48379 0.91142 -0.36500
O 	O 	0.98576 0.53310 0.90110 -0.40800
Ni	Ni	0.94931 0.53010 0.94557 1.06300
H 	H 	0.03924 0.53225 0.03112 0.15300
H 	H 	0.95373 0.45688 0.96792 0.15300
C 	C 	0.00568 0.39988 0.99501 0.28400
O 	O 	0.99106 0.57510 0.96903 -0.42300
C 	C 	0.99145 0.48611 0.10954 0.26900
C 	C 	0.10349 0.47939 0.99610 0.27100
C 	C 	0.98790 0.58948 0.00269 0.28300
C 	C 	0.99969 0.50101 0.88924 0.27200
C 	C 	0.88959 0.51184 0.00359 0.27100
O 	O 	0.02259 0.42566 0.96924 -0.36800
O 	O 	0.08429 0.44945 0.01735 -0.40800
Ni	Ni	0.97288 0.50712 0.52958 1.09700
O 	O 	0.03110 0.51252 0.52453 -0.70100
Ni	Ni	0.03355 0.49860 0.46917 1.09700
O 	O 	0.97639 0.51398 0.58737 -0.36600
O 	O 	0.01424 0.46497 0.59765 -0.40800
O 	O 	0.97703 0.57202 0.52948 -0.36800
Ni	Ni	0.05077 0.46800 0.55322 1.06300
O 	O 	0.91549 0.54840 0.48138 -0.40800
O 	O 	0.00895 0.42259 0.52979 -0.42100
O 	O 	0.09185 0.50437 0.46831 -0.37800
O 	O 	0.97550 0.49367 0.47419 -0.70100
O 	O 	0.91458 0.50118 0.52993 -0.38000
O 	O 	0.02926 0.49127 0.41140 -0.36400
O 	O 	0.99476 0.54362 0.40223 -0.41200
Ni	Ni	0.95674 0.53888 0.44559 1.06300
H 	H 	0.04593 0.54096 0.53075 0.15200
H 	H 	0.96047 0.46542 0.46764 0.15300
C 	C 	0.01201 0.40827 0.49609 0.28300
O 	O 	0.99779 0.58387 0.47006 -0.42300
C 	C 	0.00021 0.49701 0.60950 0.27200
C 	C 	0.11026 0.48645 0.49506 0.27100
C 	C 	0.99398 0.59777 0.50371 0.28500
C 	C 	0.00833 0.51181 0.38917 0.27100
C 	C 	0.89627 0.51850 0.50265 0.27200
O 	O 	0.02877 0.43360 0.46989 -0.36800
O 	O 	0.09090 0.45713 0.51677 -0.41200
Ni	Ni	0.46815 0.00352 0.03136 1.09900
O 	O 	0.52630 0.00848 0.02614 -0.69700
Ni	Ni	0.52850 0.99309 0.97110 1.09600
O 	O 	0.47211 0.01219 0.08900 -0.35900
O 	O 	0.50945 0.96288 0.10014 -0.40800
O 	O 	0.47257 0.06845 0.02948 -0.36700
Ni	Ni	0.54593 0.96465 0.05585 1.06200
O 	O 	0.41062 0.04357 0.98238 -0.40900
O 	O 	0.50411 0.91870 0.03319 -0.42200
O 	O 	0.58680 0.99875 0.97019 -0.38200
O 	O 	0.47041 0.98829 0.97628 -0.70400
O 	O 	0.40986 0.99782 0.03198 -0.38600
O 	O 	0.52436 0.98441 0.91343 -0.37100
O 	O 	0.48806 0.03478 0.90256 -0.40900
Ni	Ni	0.45120 0.03248 0.94659 1.06500
H 	H 	0.54122 0.03704 0.03177 0.15300
H 	H 	0.45540 0.95981 0.97051 0.15300
C 	C 	0.50731 0.90343 0.99989 0.28300
O 	O 	0.49263 0.07814 0.96960 -0.42200
C 	C 	0.49596 0.99553 0.11136 0.25900
C 	C 	0.60524 0.98204 0.99771 0.27300
C 	C 	0.48906 0.09331 0.00285 0.28400
C 	C 	0.50138 0.00218 0.89097 0.28400
C 	C 	0.39149 0.01433 0.00426 0.27600
O 	O 	0.52379 0.92813 0.97314 -0.36800
O 	O 	0.58605 0.95305 0.01979 -0.41100
Ni	Ni	0.47153 0.00980 0.53146 1.09800
O 	O 	0.52960 0.01447 0.52606 -0.69700
Ni	Ni	0.53162 0.99928 0.47097 1.09500
O 	O 	0.47583 0.01842 0.58911 -0.36500
O 	O 	0.51238 0.96826 0.59975 -0.41500
O 	O 	0.47640 0.07479 0.52947 -0.36800
Ni	Ni	0.54912 0.97047 0.55561 1.06200
O 	O 	0.41414 0.05058 0.48306 -0.41100
O 	O 	0.50739 0.92458 0.53272 -0.42200
O 	O 	0.58993 0.00494 0.46993 -0.37400
O 	O 	0.47351 0.99445 0.47638 -0.70400
O 	O 	0.41328 0.00439 0.53236 -0.37700
O 	O 	0.52736 0.99075 0.41330 -0.37200
O 	O 	0.49023 0.04032 0.40231 -0.40900
Ni	Ni	0.45410 0.03866 0.44688 1.06500
H 	H 	0.54463 0.04296 0.53174 0.15300
H 	H 	0.45847 0.96596 0.47070 0.15200
C 	C 	0.51072 0.90945 0.49941 0.28400
O 	O 	0.49602 0.08412 0.46941 -0.42200
C 	C 	0.49906 0.00082 0.61142 0.27800
C 	C 	0.60845 0.98831 0.49747 0.26800
C 	C 	0.49290 0.09944 0.50269 0.28300
C 	C 	0.50361 0.00764 0.39100 0.28200
C 	C 	0.39483 0.02181 0.50528 0.27000
O 	O 	0.52701 0.93433 0.47269 -0.36900
O 	O 	0.58936 0.95919 0.51951 -0.41000
Ni	Ni	0.46635 0.50223 0.03116 1.09700
O 	O 	0.52445 0.50656 0.02647 -0.70100
Ni	Ni	0.52725 0.49408 0.97087 1.09700
O 	O 	0.46991 0.50801 0.08906 -0.36400
O 	O 	0.50476 0.45595 0.09774 -0.41200
O 	O 	0.47141 0.56723 0.03212 -0.36900
Ni	Ni	0.54270 0.46059 0.05432 1.06300
O 	O 	0.40985 0.54525 0.98335 -0.40900
O 	O 	0.50082 0.41661 0.02915 -0.42200
O 	O 	0.58547 0.49894 0.97054 -0.37800
O 	O 	0.46921 0.48982 0.97553 -0.70100
O 	O 	0.40816 0.49720 0.03129 -0.37900
O 	O 	0.52359 0.48844 0.91295 -0.36400
O 	O 	0.48959 0.54134 0.90449 -0.41100
Ni	Ni	0.45122 0.53594 0.94759 1.06300
H 	H 	0.53970 0.53458 0.03345 0.15200
H 	H 	0.45393 0.46184 0.96848 0.15300
C 	C 	0.50458 0.40305 0.99536 0.28400
O 	O 	0.49258 0.57989 0.97293 -0.42400
C 	C 	0.49140 0.48780 0.11097 0.27000
C 	C 	0.60331 0.48024 0.99721 0.27100
C 	C 	0.48872 0.59327 0.00675 0.28500
C 	C 	0.50320 0.50981 0.89093 0.27000
C 	C 	0.39024 0.51513 0.00413 0.27200
O 	O 	0.52177 0.42902 0.96986 -0.36800
O 	O 	0.58342 0.45048 0.01817 -0.41200
Ni	Ni	0.47292 0.50864 0.53080 1.09700
O 	O 	0.53098 0.51294 0.52611 -0.70100
Ni	Ni	0.53380 0.50054 0.47049 1.09700
O 	O 	0.47653 0.51433 0.58871 -0.36400
O 	O 	0.51085 0.46174 0.59713 -0.41100
O 	O 	0.47820 0.57368 0.53177 -0.36800
Ni	Ni	0.54922 0.46703 0.55402 1.06300
O 	O 	0.41668 0.55216 0.48331 -0.41200
O 	O 	0.50761 0.42286 0.52870 -0.42200
O 	O 	0.59203 0.50561 0.47016 -0.37900
O 	O 	0.47572 0.49618 0.47518 -0.70100
O 	O 	0.41473 0.50375 0.53097 -0.37800
O 	O 	0.53018 0.49483 0.41257 -0.36500
O 	O 	0.49560 0.54715 0.40390 -0.41100
Ni	Ni	0.45768 0.54234 0.44733 1.06300
H 	H 	0.54621 0.54096 0.53310 0.15300
H 	H 	0.46046 0.46819 0.46814 0.15300
C 	C 	0.51135 0.40948 0.49485 0.28500
O 	O 	0.49927 0.58613 0.47252 -0.42400
C 	C 	0.49722 0.49325 0.61068 0.27000
C 	C 	0.60998 0.48756 0.49721 0.27100
C 	C 	0.49539 0.59967 0.50629 0.28400
C 	C 	0.50895 0.51531 0.39063 0.27000
C 	C 	0.39688 0.52226 0.50418 0.27100
O 	O 	0.52863 0.43552 0.46947 -0.36900
O 	O 	0.59033 0.45753 0.51806 -0.40900
C 	C 	0.48602 0.42594 0.77429 -0.04400
C 	C 	0.48312 0.42379 0.73487 -0.04300
C 	C 	0.48952 0.46089 0.71305 0.01500
C 	C 	0.49878 0.50045 0.73097 -0.01000
C 	C 	0.50175 0.50263 0.77064 -0.01000
C 	C 	0.49528 0.46522 0.79239 0.01600
C 	C 	0.51100 0.54219 0.78856 0.01500
C 	C 	0.51740 0.57929 0.76675 -0.04300
C 	C 	0.51452 0.57714 0.72733 -0.04400
C 	C 	0.50525 0.53786 0.70922 0.01600
C 	C 	0.50301 0.53546 0.66967 -0.03200
C 	C 	0.49483 0.49602 0.65183 -0.05800
C 	C 	0.48734 0.45886 0.67357 -0.02900
C 	C 	0.49750 0.46762 0.83195 -0.03200
C 	C 	0.50566 0.50706 0.84978 -0.05800
C 	C 	0.51315 0.54422 0.82805 -0.02900
H 	H 	0.48096 0.39704 0.79070 0.03800
H 	H 	0.47600 0.39323 0.72132 0.03800
H 	H 	0.52452 0.60985 0.78029 0.03800
H 	H 	0.51957 0.60604 0.71091 0.03800
H 	H 	0.50870 0.56407 0.65282 0.04100
H 	H 	0.48036 0.42844 0.65970 0.04500
H 	H 	0.49181 0.43901 0.84879 0.04100
H 	H 	0.52011 0.57464 0.84193 0.04500
C 	C 	0.48835 0.42692 0.27670 -0.04400
C 	C 	0.48372 0.42318 0.23744 -0.04400
C 	C 	0.48849 0.45940 0.21445 0.01500
C 	C 	0.49783 0.49968 0.23104 -0.01000
C 	C 	0.50255 0.50346 0.27055 -0.01000
C 	C 	0.49772 0.46693 0.29348 0.01600
C 	C 	0.51189 0.54375 0.28715 0.01500
C 	C 	0.51665 0.57997 0.26416 -0.04400
C 	C 	0.51204 0.57622 0.22490 -0.04400
C 	C 	0.50267 0.53622 0.20811 0.01600
C 	C 	0.49874 0.53223 0.16870 -0.03200
C 	C 	0.49051 0.49209 0.15214 -0.05900
C 	C 	0.48461 0.45578 0.17509 -0.02900
C 	C 	0.50165 0.47091 0.33290 -0.03200
C 	C 	0.50986 0.51105 0.34946 -0.05900
C 	C 	0.51575 0.54736 0.32651 -0.02900
H 	H 	0.48454 0.39867 0.29403 0.03800
H 	H 	0.47654 0.39207 0.22492 0.03800
H 	H 	0.52383 0.61107 0.27668 0.03800
H 	H 	0.51585 0.60447 0.20756 0.03800
H 	H 	0.50321 0.56018 0.15092 0.04100
H 	H 	0.47757 0.42480 0.16223 0.04500
H 	H 	0.49719 0.44296 0.35067 0.04100
H 	H 	0.52276 0.57834 0.33937 0.04500
C 	C 	0.44445 0.72484 0.54044 -0.04400
C 	C 	0.44440 0.76797 0.53582 -0.04300
C 	C 	0.47394 0.79386 0.51663 0.01500
C 	C 	0.50374 0.77622 0.50196 -0.00900
C 	C 	0.50396 0.73287 0.50688 -0.00900
C 	C 	0.47405 0.70702 0.52595 0.01500
C 	C 	0.53376 0.71525 0.49222 0.01500
C 	C 	0.56336 0.74115 0.47312 -0.04300
C 	C 	0.56318 0.78422 0.46830 -0.04300
C 	C 	0.53348 0.80199 0.48263 0.01500
C 	C 	0.53379 0.84540 0.47887 -0.02600
C 	C 	0.50512 0.86337 0.49503 -0.06300
C 	C 	0.47461 0.83733 0.51284 -0.02800
C 	C 	0.47334 0.66346 0.52903 -0.02700
C 	C 	0.50188 0.64551 0.51256 -0.06300
C 	C 	0.53286 0.67172 0.49560 -0.02800
H 	H 	0.42134 0.70527 0.55514 0.03900
H 	H 	0.42139 0.78124 0.54724 0.03700
H 	H 	0.58640 0.72789 0.46176 0.03800
H 	H 	0.58622 0.80376 0.45349 0.04000
H 	H 	0.55736 0.86552 0.46518 0.05200
H 	H 	0.45230 0.85121 0.52498 0.03700
H 	H 	0.44949 0.64325 0.54222 0.05200
H 	H 	0.55517 0.65787 0.48342 0.03800
C 	C 	0.56089 0.24025 0.46651 -0.04300
C 	C 	0.56127 0.28344 0.46161 -0.04300
C 	C 	0.53165 0.30168 0.47552 0.01500
C 	C 	0.50124 0.27618 0.49420 -0.00900
C 	C 	0.50101 0.23278 0.49938 -0.00900
C 	C 	0.53087 0.21473 0.48536 0.01500
C 	C 	0.47076 0.20737 0.51834 0.01600
C 	C 	0.44101 0.22554 0.53202 -0.04300
C 	C 	0.44129 0.26868 0.52696 -0.04300
C 	C 	0.47140 0.29423 0.50827 0.01500
C 	C 	0.47282 0.33783 0.50475 -0.02800
C 	C 	0.50432 0.36369 0.48829 -0.06400
C 	C 	0.53284 0.34532 0.47229 -0.02600
C 	C 	0.52979 0.17121 0.48945 -0.02800
C 	C 	0.49883 0.14554 0.50691 -0.06200
C 	C 	0.47004 0.16390 0.52240 -0.02700
H 	H 	0.58393 0.22666 0.45556 0.03800
H 	H 	0.58476 0.30273 0.44719 0.04000
H 	H 	0.41757 0.20627 0.54651 0.03900
H 	H 	0.41821 0.28225 0.53784 0.03700
H 	H 	0.45051 0.35201 0.51655 0.03700
H 	H 	0.55707 0.36526 0.45942 0.05200
H 	H 	0.55216 0.15702 0.47780 0.03800
H 	H 	0.44609 0.14406 0.53577 0.05200
C 	C 	0.55866 0.77730 0.96938 -0.04300
C 	C 	0.55840 0.73415 0.97428 -0.04300
C 	C 	0.52850 0.70857 0.99324 0.01500
C 	C 	0.49885 0.72660 0.00772 -0.00900
C 	C 	0.49907 0.77004 0.00272 -0.00900
C 	C 	0.52911 0.79548 0.98350 0.01600
C 	C 	0.46942 0.78808 0.01719 0.01500
C 	C 	0.43960 0.76253 0.03627 -0.04300
C 	C 	0.43920 0.71931 0.04096 -0.04300
C 	C 	0.46863 0.70108 0.02663 0.01500
C 	C 	0.46743 0.65742 0.02969 -0.02600
C 	C 	0.49577 0.63908 0.01332 -0.06400
C 	C 	0.52711 0.66496 0.99662 -0.02800
C 	C 	0.52984 0.83896 0.97963 -0.02600
C 	C 	0.50129 0.85732 0.99558 -0.06200
C 	C 	0.47052 0.83162 0.01330 -0.02800
H 	H 	0.58193 0.79659 0.95468 0.04000
H 	H 	0.58133 0.72059 0.96307 0.03700
H 	H 	0.41671 0.77611 0.04755 0.03800
H 	H 	0.41587 0.69999 0.05556 0.04000
H 	H 	0.44334 0.63746 0.04275 0.05200
H 	H 	0.54929 0.65081 0.98455 0.03700
H 	H 	0.55362 0.85881 0.96602 0.05300
H 	H 	0.44832 0.84581 0.02528 0.03800
C 	C 	0.55560 0.27780 0.96174 -0.04300
C 	C 	0.55563 0.23467 0.96649 -0.04300
C 	C 	0.52599 0.20884 0.98560 0.01500
C 	C 	0.49611 0.22652 0.00004 -0.00900
C 	C 	0.49592 0.26987 0.99500 -0.00900
C 	C 	0.52593 0.29566 0.97602 0.01500
C 	C 	0.46604 0.28754 0.00947 0.01500
C 	C 	0.43635 0.26169 0.02848 -0.04300
C 	C 	0.43649 0.21862 0.03341 -0.04300
C 	C 	0.46626 0.20081 0.01928 0.01600
C 	C 	0.46592 0.15740 0.02315 -0.02600
C 	C 	0.49468 0.13939 0.00719 -0.06200
C 	C 	0.52529 0.16538 0.98950 -0.02800
C 	C 	0.52666 0.33921 0.97282 -0.02700
C 	C 	0.49806 0.35722 0.98911 -0.06300
C 	C 	0.46699 0.33106 0.00598 -0.02800
H 	H 	0.57879 0.29733 0.94711 0.04000
H 	H 	0.57870 0.22137 0.95524 0.03800
H 	H 	0.41325 0.27498 0.03968 0.03800
H 	H 	0.41337 0.19912 0.04814 0.04100
H 	H 	0.44226 0.13732 0.03675 0.05300
H 	H 	0.54767 0.15147 0.97754 0.03900
H 	H 	0.55058 0.35938 0.95970 0.05200
H 	H 	0.44464 0.34495 0.01803 0.03800
C 	C 	0.43079 0.99612 0.76852 -0.05200
C 	C 	0.43092 0.00024 0.72920 -0.03300
C 	C 	0.46553 0.00391 0.71045 0.01100
C 	C 	0.50031 0.00356 0.73143 -0.00000
C 	C 	0.50015 0.99923 0.77099 -0.01400
C 	C 	0.46529 0.99569 0.78959 0.01700
C 	C 	0.53494 0.99892 0.79198 0.00900
C 	C 	0.56955 0.00257 0.77322 -0.03600
C 	C 	0.56967 0.00665 0.73391 -0.04300
C 	C 	0.53517 0.00709 0.71283 0.01300
C 	C 	0.53494 0.00979 0.67334 -0.02600
C 	C 	0.50013 0.00827 0.65228 -0.06200
C 	C 	0.46565 0.00663 0.67092 -0.01900
C 	C 	0.46552 0.99301 0.82907 -0.02700
C 	C 	0.50033 0.99461 0.85014 -0.06900
C 	C 	0.53482 0.99626 0.83152 -0.01900
H 	H 	0.40386 0.99344 0.78257 0.03500
H 	H 	0.40404 0.00042 0.71336 0.03800
H 	H 	0.59642 0.00240 0.78907 0.03800
H 	H 	0.59661 0.00932 0.71985 0.03500
H 	H 	0.56155 0.01134 0.65886 0.02000
H 	H 	0.43878 0.00538 0.65463 0.04900
H 	H 	0.43890 0.99144 0.84355 0.01700
H 	H 	0.56169 0.99755 0.84782 0.04500
C 	C 	0.56935 0.00292 0.27231 -0.04500
C 	C 	0.56872 0.00523 0.23288 -0.04200
C 	C 	0.53390 0.00518 0.21221 0.01600
C 	C 	0.49949 0.00297 0.23132 -0.00800
C 	C 	0.50009 0.00046 0.27101 -0.00400
C 	C 	0.53518 0.00059 0.29159 0.02200
C 	C 	0.46568 0.99825 0.29013 0.01000
C 	C 	0.43086 0.99821 0.26946 -0.04900
C 	C 	0.43023 0.00050 0.23002 -0.03700
C 	C 	0.46439 0.00281 0.21074 0.01600
C 	C 	0.46375 0.00375 0.17114 -0.02500
C 	C 	0.49779 0.00419 0.15206 -0.05200
C 	C 	0.53292 0.00613 0.17265 -0.03000
C 	C 	0.53582 0.99958 0.33119 -0.03400
C 	C 	0.50178 0.99912 0.35028 -0.06500
C 	C 	0.46665 0.99726 0.32968 -0.02700
H 	H 	0.59645 0.00308 0.28784 0.04000
H 	H 	0.59532 0.00690 0.21843 0.03400
H 	H 	0.40427 0.99655 0.28391 0.03400
H 	H 	0.40312 0.00032 0.21449 0.03800
H 	H 	0.43662 0.00217 0.15521 0.05000
H 	H 	0.55919 0.00677 0.15782 0.02100
H 	H 	0.56294 0.00113 0.34712 0.05400
H 	H 	0.44039 0.99663 0.34452 0.01700
C 	C 	0.73323 0.48475 0.56676 -0.04300
C 	C 	0.77331 0.48837 0.56750 -0.04300
C 	C 	0.79352 0.49808 0.53437 0.01400
C 	C 	0.77324 0.50415 0.50022 -0.00800
C 	C 	0.73290 0.50056 0.49949 -0.00900
C 	C 	0.71284 0.49080 0.53288 0.01300
C 	C 	0.71264 0.50672 0.46536 0.01500
C 	C 	0.73284 0.51636 0.43221 -0.04300
C 	C 	0.77290 0.51993 0.43294 -0.04300
C 	C 	0.79329 0.51394 0.46683 0.01300
C 	C 	0.83348 0.51784 0.46775 -0.02900
C 	C 	0.85384 0.51233 0.50181 -0.06400
C 	C 	0.83376 0.50213 0.53502 -0.02400
C 	C 	0.67266 0.48711 0.53199 -0.02900
C 	C 	0.65235 0.49294 0.49797 -0.06300
C 	C 	0.67244 0.50295 0.46475 -0.02500
H 	H 	0.71807 0.47723 0.59257 0.03400
H 	H 	0.78861 0.48365 0.59388 0.03800
H 	H 	0.71754 0.52111 0.40584 0.03900
H 	H 	0.78806 0.52743 0.40713 0.03400
H 	H 	0.84896 0.52523 0.44207 0.02100
H 	H 	0.84944 0.49808 0.56135 0.04900
H 	H 	0.65718 0.47978 0.55767 0.02100
H 	H 	0.65677 0.50716 0.43843 0.05100
C 	C 	0.26885 0.43352 0.51965 -0.04400
C 	C 	0.22863 0.42820 0.51744 -0.04400
C 	C 	0.21065 0.46203 0.50660 0.01400
C 	C 	0.23328 0.50146 0.49775 -0.01000
C 	C 	0.27377 0.50684 0.49999 -0.01000
C 	C 	0.29161 0.47273 0.51100 0.01500
C 	C 	0.29640 0.54630 0.49122 0.01400
C 	C 	0.27842 0.58010 0.48030 -0.04400
C 	C 	0.23820 0.57478 0.47810 -0.04400
C 	C 	0.21544 0.53559 0.48682 0.01500
C 	C 	0.17509 0.53022 0.48512 -0.03000
C 	C 	0.15250 0.49112 0.49445 -0.06200
C 	C 	0.17036 0.45697 0.50478 -0.02900
C 	C 	0.33196 0.47818 0.51297 -0.03000
C 	C 	0.35457 0.51736 0.50391 -0.06200
C 	C 	0.33671 0.55143 0.49331 -0.03000
H 	H 	0.28227 0.40712 0.52808 0.03700
H 	H 	0.21148 0.39776 0.52427 0.03700
H 	H 	0.29557 0.61055 0.47349 0.03600
H 	H 	0.22478 0.60119 0.46967 0.03700
H 	H 	0.16129 0.55656 0.47727 0.03800
H 	H 	0.15292 0.42660 0.51143 0.04400
H 	H 	0.34575 0.45187 0.52094 0.03900
H 	H 	0.35415 0.58184 0.48678 0.04400
C 	C 	0.77210 0.57208 0.98270 -0.04400
C 	C 	0.73193 0.56736 0.98092 -0.04400
C 	C 	0.70881 0.52835 0.98957 0.01500
C 	C 	0.72627 0.49383 0.00012 -0.01000
C 	C 	0.76672 0.49858 0.00193 -0.01000
C 	C 	0.78970 0.53783 0.99311 0.01400
C 	C 	0.78417 0.46404 0.01243 0.01500
C 	C 	0.76106 0.42505 0.02113 -0.04400
C 	C 	0.72088 0.42033 0.01936 -0.04400
C 	C 	0.70329 0.45457 0.00889 0.01400
C 	C 	0.66303 0.45005 0.00724 -0.02900
C 	C 	0.64555 0.48454 0.99708 -0.06200
C 	C 	0.66851 0.52352 0.98802 -0.03000
C 	C 	0.82994 0.54228 0.99453 -0.02900
C 	C 	0.84741 0.50773 0.00445 -0.06200
C 	C 	0.82448 0.46881 0.01374 -0.03000
H 	H 	0.78952 0.60237 0.97589 0.03700
H 	H 	0.71881 0.59409 0.97282 0.03700
H 	H 	0.77418 0.39832 0.02922 0.03700
H 	H 	0.70346 0.39004 0.02616 0.03700
H 	H 	0.64531 0.41979 0.01375 0.04400
H 	H 	0.65502 0.55015 0.98038 0.03900
H 	H 	0.84765 0.57251 0.98792 0.04400
H 	H 	0.83798 0.44215 0.02127 0.03900
C 	C 	0.26725 0.51668 0.93361 -0.04300
C 	C 	0.22709 0.51224 0.93249 -0.04300
C 	C 	0.20661 0.50174 0.96536 0.01500
C 	C 	0.22670 0.49572 0.99963 -0.00900
C 	C 	0.26712 0.50014 0.00075 -0.00800
C 	C 	0.28745 0.51068 0.96762 0.01300
C 	C 	0.28720 0.49403 0.03500 0.01500
C 	C 	0.26672 0.48360 0.06788 -0.04300
C 	C 	0.22658 0.47921 0.06677 -0.04300
C 	C 	0.20637 0.48515 0.03276 0.01300
C 	C 	0.16611 0.48047 0.03145 -0.02800
C 	C 	0.14595 0.48601 0.99728 -0.06400
C 	C 	0.16630 0.49692 0.96433 -0.02500
C 	C 	0.32771 0.51514 0.96889 -0.02900
C 	C 	0.34782 0.50929 0.00302 -0.06300
C 	C 	0.32747 0.49857 0.03599 -0.02500
H 	H 	0.28262 0.52479 0.90800 0.03400
H 	H 	0.21194 0.51694 0.90602 0.03800
H 	H 	0.28187 0.47888 0.09434 0.03900
H 	H 	0.21120 0.47111 0.09238 0.03400
H 	H 	0.15044 0.47254 0.05695 0.02100
H 	H 	0.15077 0.50099 0.93790 0.04900
H 	H 	0.34340 0.52302 0.94339 0.02100
H 	H 	0.34297 0.49435 0.06240 0.05100
C 	C 	0.93137 0.50063 0.72651 -0.04300
C 	C 	0.93076 0.49737 0.76586 -0.04300
C 	C 	0.96478 0.49577 0.78736 0.01400
C 	C 	0.99963 0.49729 0.76917 -0.00800
C 	C 	0.00029 0.50074 0.72958 -0.00800
C 	C 	0.96599 0.50227 0.70816 0.01500
C 	C 	0.03514 0.50226 0.71138 0.01400
C 	C 	0.06916 0.50066 0.73289 -0.04300
C 	C 	0.06855 0.49741 0.77224 -0.04300
C 	C 	0.03393 0.49577 0.79059 0.01600
C 	C 	0.03336 0.49380 0.83012 -0.02300
C 	C 	0.99891 0.49396 0.84832 -0.06000
C 	C 	0.96454 0.49378 0.82686 -0.02800
C 	C 	0.96656 0.50424 0.66863 -0.02300
C 	C 	0.00100 0.50406 0.65043 -0.06000
C 	C 	0.03538 0.50425 0.67189 -0.02800
H 	H 	0.90487 0.50173 0.71033 0.03800
H 	H 	0.90383 0.49625 0.77960 0.03400
H 	H 	0.09609 0.50179 0.71915 0.03400
H 	H 	0.09505 0.49631 0.78842 0.03800
H 	H 	0.05990 0.49403 0.84671 0.04900
H 	H 	0.93793 0.49357 0.84100 0.02000
H 	H 	0.94001 0.50400 0.65205 0.04900
H 	H 	0.06198 0.50445 0.65774 0.02000
C 	C 	0.98544 0.42420 0.27485 -0.04300
C 	C 	0.98069 0.42083 0.23557 -0.04400
C 	C 	0.98674 0.45720 0.21279 0.01600
C 	C 	0.99751 0.49727 0.22959 -0.01100
C 	C 	0.00237 0.50067 0.26912 -0.00800
C 	C 	0.99623 0.46398 0.29185 0.01500
C 	C 	0.01314 0.54073 0.28593 0.01400
C 	C 	0.01919 0.57710 0.26314 -0.04300
C 	C 	0.01444 0.57373 0.22386 -0.04500
C 	C 	0.00365 0.53395 0.20686 0.01700
C 	C 	0.99965 0.53030 0.16742 -0.03300
C 	C 	0.99009 0.49032 0.15065 -0.05800
C 	C 	0.98281 0.45393 0.17340 -0.02900
C 	C 	0.00022 0.46764 0.33129 -0.03100
C 	C 	0.00975 0.50761 0.34806 -0.05900
C 	C 	0.01704 0.54400 0.32532 -0.02800
H 	H 	0.98063 0.39585 0.29203 0.03800
H 	H 	0.97241 0.38990 0.22289 0.03800
H 	H 	0.02746 0.60803 0.27583 0.03800
H 	H 	0.01926 0.60208 0.20668 0.03800
H 	H 	0.00516 0.55831 0.14979 0.04100
H 	H 	0.97478 0.42311 0.16037 0.04500
H 	H 	0.99470 0.43962 0.34892 0.04000
H 	H 	0.02505 0.57482 0.33836 0.04500
C 	C 	0.06202 0.73905 0.46985 -0.04300
C 	C 	0.06201 0.78216 0.46507 -0.04300
C 	C 	0.03244 0.80008 0.47949 0.01500
C 	C 	0.00265 0.77442 0.49885 -0.00900
C 	C 	0.00273 0.73104 0.50377 -0.00900
C 	C 	0.03241 0.71327 0.48902 0.01500
C 	C 	0.97284 0.70533 0.52295 0.01600
C 	C 	0.94336 0.72328 0.53751 -0.04300
C 	C 	0.94341 0.76643 0.53284 -0.04300
C 	C 	0.97297 0.79220 0.51358 0.01500
C 	C 	0.97380 0.83570 0.50982 -0.02800
C 	C 	0.00439 0.86164 0.49205 -0.06300
C 	C 	0.03295 0.84354 0.47582 -0.02700
C 	C 	0.03138 0.66972 0.49245 -0.02800
C 	C 	0.00046 0.64367 0.50962 -0.06300
C 	C 	0.97205 0.66176 0.52614 -0.02600
H 	H 	0.08496 0.72568 0.45843 0.03700
H 	H 	0.08509 0.80162 0.45025 0.03900
H 	H 	0.92025 0.70381 0.55230 0.04000
H 	H 	0.92050 0.77981 0.54431 0.03800
H 	H 	0.95157 0.84968 0.52200 0.03800
H 	H 	0.05659 0.86358 0.46216 0.05200
H 	H 	0.05360 0.65576 0.48022 0.03700
H 	H 	0.94824 0.64166 0.53949 0.05200
C 	C 	0.94415 0.26728 0.53158 -0.04300
C 	C 	0.94371 0.22401 0.53578 -0.04300
C 	C 	0.97241 0.20571 0.52009 0.01600
C 	C 	0.00182 0.23117 0.50009 -0.00900
C 	C 	0.00218 0.27471 0.49575 -0.00900
C 	C 	0.97334 0.29284 0.51171 0.01500
C 	C 	0.03165 0.30020 0.47586 0.01600
C 	C 	0.06032 0.28189 0.46012 -0.04300
C 	C 	0.05983 0.23860 0.46424 -0.04300
C 	C 	0.03065 0.21304 0.48413 0.01500
C 	C 	0.02932 0.16940 0.48731 -0.02800
C 	C 	0.99905 0.14368 0.50570 -0.06300
C 	C 	0.97139 0.16210 0.52314 -0.02600
C 	C 	0.97475 0.33649 0.50866 -0.02900
C 	C 	0.00520 0.36227 0.49056 -0.06200
C 	C 	0.03282 0.34386 0.47304 -0.02700
H 	H 	0.92186 0.28092 0.54396 0.03800
H 	H 	0.92095 0.20472 0.55113 0.04100
H 	H 	0.08311 0.30119 0.44481 0.04000
H 	H 	0.08210 0.22495 0.45185 0.03800
H 	H 	0.05091 0.15518 0.47426 0.03800
H 	H 	0.94802 0.14226 0.53733 0.05300
H 	H 	0.95316 0.35070 0.52174 0.03900
H 	H 	0.05631 0.36374 0.45904 0.05200
C 	C 	0.73094 0.01429 0.43179 -0.03900
C 	C 	0.77098 0.01763 0.43249 -0.04600
C 	C 	0.79155 0.01327 0.46664 0.01800
C 	C 	0.77170 0.00543 0.50034 -0.01600
C 	C 	0.73139 0.00210 0.49965 0.00400
C 	C 	0.71093 0.00652 0.46523 0.00800
C 	C 	0.71155 0.99426 0.53335 0.00000
C 	C 	0.73211 0.98991 0.56751 -0.03600
C 	C 	0.77215 0.99324 0.56821 -0.05500
C 	C 	0.79215 0.00100 0.53476 0.02600
C 	C 	0.83236 0.00470 0.53534 -0.02800
C 	C 	0.85223 0.01298 0.50181 -0.06100
C 	C 	0.83170 0.01689 0.46752 -0.03100
C 	C 	0.67073 0.00277 0.46464 -0.01400
C 	C 	0.65085 0.99448 0.49817 -0.07300
C 	C 	0.67139 0.99062 0.53248 -0.02200
H 	H 	0.71551 0.01771 0.40520 0.03700
H 	H 	0.78599 0.02366 0.40643 0.03500
H 	H 	0.71710 0.98388 0.59356 0.03100
H 	H 	0.78758 0.98981 0.59479 0.03900
H 	H 	0.84819 0.00191 0.56185 0.05100
H 	H 	0.84703 0.02284 0.44161 0.02100
H 	H 	0.65489 0.00554 0.43813 0.04800
H 	H 	0.65606 0.98468 0.55839 0.01700
C 	C 	0.23628 0.07425 0.47874 -0.04200
C 	C 	0.27650 0.07973 0.48151 -0.04500
C 	C 	0.29446 0.04601 0.49275 0.01600
C 	C 	0.27181 0.00651 0.50137 -0.00800
C 	C 	0.23132 0.00098 0.49855 -0.00200
C 	C 	0.21350 0.03500 0.48722 0.01000
C 	C 	0.20867 0.96149 0.50716 0.00500
C 	C 	0.22662 0.92776 0.51841 -0.04200
C 	C 	0.26684 0.93324 0.52119 -0.04600
C 	C 	0.28963 0.97249 0.51270 0.01200
C 	C 	0.32998 0.97802 0.51500 -0.03700
C 	C 	0.35260 0.01715 0.50580 -0.05600
C 	C 	0.33475 0.05121 0.49515 -0.03100
C 	C 	0.17314 0.02947 0.48493 -0.02200
C 	C 	0.15052 0.99034 0.49411 -0.07000
C 	C 	0.16837 0.95627 0.50475 -0.02500
H 	H 	0.22288 0.10059 0.47004 0.03600
H 	H 	0.29367 0.11021 0.47483 0.03700
H 	H 	0.20946 0.89729 0.52509 0.03500
H 	H 	0.28024 0.90691 0.52989 0.03600
H 	H 	0.34377 0.95175 0.52310 0.03800
H 	H 	0.35222 0.08161 0.48862 0.04500
H 	H 	0.15934 0.05575 0.47683 0.03700
H 	H 	0.15091 0.92587 0.51127 0.04300
C 	C 	0.93926 0.71588 0.03791 -0.04300
C 	C 	0.93971 0.75914 0.03361 -0.04300
C 	C 	0.96899 0.78466 0.01382 0.01500
C 	C 	0.99796 0.76651 0.99813 -0.00900
C 	C 	0.99764 0.72300 0.00265 -0.01000
C 	C 	0.96806 0.69756 0.02245 0.01600
C 	C 	0.02661 0.70486 0.98696 0.01500
C 	C 	0.05590 0.73038 0.96719 -0.04300
C 	C 	0.05630 0.77362 0.96281 -0.04300
C 	C 	0.02747 0.79193 0.97822 0.01500
C 	C 	0.02846 0.83552 0.97500 -0.02600
C 	C 	0.00066 0.85397 0.99219 -0.06200
C 	C 	0.97029 0.82828 0.01047 -0.02800
C 	C 	0.96692 0.65391 0.02543 -0.02700
C 	C 	0.99468 0.63548 0.00815 -0.06300
C 	C 	0.02523 0.66123 0.99017 -0.02800
H 	H 	0.91639 0.69660 0.05314 0.04000
H 	H 	0.91734 0.77280 0.04580 0.03800
H 	H 	0.07829 0.71672 0.95502 0.03800
H 	H 	0.07914 0.79288 0.94752 0.04000
H 	H 	0.05190 0.85535 0.96089 0.05300
H 	H 	0.94860 0.84252 0.02333 0.03800
H 	H 	0.94336 0.63405 0.03934 0.05200
H 	H 	0.04692 0.64700 0.97729 0.03900
C 	C 	0.93781 0.25857 0.02906 -0.04300
C 	C 	0.93777 0.21542 0.03361 -0.04300
C 	C 	0.96707 0.19746 0.01871 0.01600
C 	C 	0.99668 0.22313 0.99911 -0.00900
C 	C 	0.99666 0.26655 0.99444 -0.00900
C 	C 	0.96723 0.28435 0.00965 0.01500
C 	C 	0.02637 0.29227 0.97503 0.01600
C 	C 	0.05560 0.27429 0.96000 -0.04200
C 	C 	0.05548 0.23109 0.96443 -0.04300
C 	C 	0.02610 0.20532 0.98391 0.01600
C 	C 	0.02519 0.16179 0.98744 -0.02800
C 	C 	0.99477 0.13584 0.00544 -0.06200
C 	C 	0.96649 0.15397 0.02215 -0.02600
C 	C 	0.96832 0.32793 0.00642 -0.02800
C 	C 	0.99908 0.35398 0.98901 -0.06300
C 	C 	0.02724 0.33588 0.97207 -0.02600
H 	H 	0.91507 0.27196 0.04085 0.03800
H 	H 	0.91485 0.19596 0.04863 0.04000
H 	H 	0.07857 0.29376 0.94504 0.04100
H 	H 	0.07820 0.21769 0.95260 0.03900
H 	H 	0.04723 0.14779 0.97493 0.03900
H 	H 	0.94300 0.13394 0.03602 0.05300
H 	H 	0.94629 0.34190 0.01898 0.03800
H 	H 	0.05092 0.35597 0.95852 0.05300
C 	C 	0.72744 0.00647 0.93165 -0.03200
C 	C 	0.76744 0.00952 0.93225 -0.05000
C 	C 	0.78806 0.00530 0.96640 0.02600
C 	C 	0.76831 0.99789 0.00019 -0.02100
C 	C 	0.72804 0.99487 0.99959 -0.00100
C 	C 	0.70753 0.99916 0.96518 0.00300
C 	C 	0.70829 0.98747 0.03338 0.00800
C 	C 	0.72891 0.98325 0.06753 -0.04100
C 	C 	0.76891 0.98629 0.06813 -0.04800
C 	C 	0.78882 0.99361 0.03460 0.02100
C 	C 	0.82898 0.99707 0.03510 -0.03400
C 	C 	0.84876 0.00495 0.00148 -0.05600
C 	C 	0.82818 0.00867 0.96719 -0.03400
C 	C 	0.66737 0.99573 0.96469 -0.02000
C 	C 	0.64760 0.98789 0.99831 -0.06800
C 	C 	0.66818 0.98415 0.03260 -0.02600
H 	H 	0.71196 0.00979 0.90507 0.03700
H 	H 	0.78238 0.01521 0.90613 0.03600
H 	H 	0.71397 0.97757 0.09365 0.03200
H 	H 	0.78439 0.98298 0.09471 0.03800
H 	H 	0.84487 0.99442 0.06160 0.05000
H 	H 	0.84345 0.01430 0.94122 0.02200
H 	H 	0.65148 0.99840 0.93819 0.04700
H 	H 	0.65292 0.97855 0.05858 0.01800
C 	C 	0.22837 0.00677 0.93132 -0.03100
C 	C 	0.26849 0.01080 0.93257 -0.05000
C 	C 	0.28870 0.00684 0.96701 0.02500
C 	C 	0.26843 0.99869 0.00043 -0.02100
C 	C 	0.22805 0.99466 0.99918 -0.00100
C 	C 	0.20795 0.99869 0.96449 0.00300
C 	C 	0.20778 0.98650 0.03261 0.00800
C 	C 	0.22799 0.98254 0.06705 -0.04100
C 	C 	0.26810 0.98658 0.06830 -0.04800
C 	C 	0.28853 0.99466 0.03513 0.02100
C 	C 	0.32880 0.99907 0.03627 -0.03400
C 	C 	0.34908 0.00764 0.00301 -0.05600
C 	C 	0.32891 0.01116 0.96844 -0.03400
C 	C 	0.16767 0.99429 0.96335 -0.01900
C 	C 	0.14740 0.98571 0.99661 -0.06900
C 	C 	0.16756 0.98218 0.03118 -0.02500
H 	H 	0.21321 0.00990 0.90452 0.03700
H 	H 	0.28383 0.01706 0.90673 0.03600
H 	H 	0.21264 0.97628 0.09289 0.03200
H 	H 	0.28326 0.98345 0.09509 0.03800
H 	H 	0.34435 0.99658 0.06299 0.05000
H 	H 	0.34458 0.01731 0.94273 0.02100
H 	H 	0.15212 0.99679 0.93664 0.04700
H 	H 	0.15190 0.97603 0.05688 0.01700
C 	C 	0.93059 0.99347 0.76605 -0.04100
C 	C 	0.93075 0.99767 0.72674 -0.05100
C 	C 	0.96538 0.00140 0.70801 0.02400
C 	C 	0.00015 0.00104 0.72900 -0.00800
C 	C 	0.99996 0.99663 0.76855 -0.00800
C 	C 	0.96508 0.99302 0.78713 0.01200
C 	C 	0.03473 0.99629 0.78956 0.00500
C 	C 	0.06936 0.00001 0.77082 -0.02600
C 	C 	0.06951 0.00418 0.73151 -0.04900
C 	C 	0.03502 0.00463 0.71042 0.01900
C 	C 	0.03483 0.00741 0.67094 -0.03300
C 	C 	0.00002 0.00591 0.64986 -0.05000
C 	C 	0.96552 0.00420 0.66848 -0.02900
C 	C 	0.96527 0.99025 0.82661 -0.02800
C 	C 	0.00008 0.99181 0.84770 -0.06100
C 	C 	0.03458 0.99354 0.82909 -0.02000
H 	H 	0.90364 0.99074 0.78008 0.03200
H 	H 	0.90388 0.99787 0.71089 0.03800
H 	H 	0.09623 0.99983 0.78668 0.03100
H 	H 	0.09646 0.00690 0.71747 0.03700
H 	H 	0.06145 0.00902 0.65647 0.02200
H 	H 	0.93866 0.00297 0.65218 0.05100
H 	H 	0.93864 0.98861 0.84108 0.01800
H 	H 	0.06145 0.99481 0.84540 0.04600
C 	C 	0.93110 0.99819 0.26697 -0.03800
C 	C 	0.93045 0.99981 0.22751 -0.05800
C 	C 	0.96444 0.00073 0.20826 0.02500
C 	C 	0.99938 0.00016 0.22888 -0.00500
C 	C 	0.00000 0.99834 0.26859 -0.01200
C 	C 	0.96577 0.99752 0.28768 0.01100
C 	C 	0.03494 0.99774 0.28922 0.01700
C 	C 	0.06893 0.99869 0.26997 -0.05100
C 	C 	0.06829 0.00033 0.23051 -0.03500
C 	C 	0.03362 0.00098 0.20979 0.01400
C 	C 	0.03260 0.00135 0.17024 -0.02900
C 	C 	0.99759 0.00022 0.14962 -0.05200
C 	C 	0.96375 0.00106 0.16865 -0.02900
C 	C 	0.96678 0.99710 0.32724 -0.02500
C 	C 	0.00177 0.99811 0.34786 -0.06800
C 	C 	0.03562 0.99731 0.32882 -0.02200
H 	H 	0.90464 0.99760 0.28140 0.03100
H 	H 	0.90346 0.00020 0.21195 0.04500
H 	H 	0.09592 0.99828 0.28553 0.04000
H 	H 	0.09475 0.00094 0.21608 0.03400
H 	H 	0.05873 0.00102 0.15544 0.02100
H 	H 	0.93671 0.00009 0.15271 0.05100
H 	H 	0.94065 0.99743 0.34205 0.01600
H 	H 	0.06264 0.99822 0.34477 0.04800
