data_crystal

_cell_length_a 43.46554
_cell_length_b 40.66941
_cell_length_c 25.15595
_cell_angle_alpha 93.80342
_cell_angle_beta  92.92584
_cell_angle_gamma 90.13776

_symmetry_space_group_name_	'P 1'
_symmetry_space_group_name_H-M	'P 1'

loop_
_symmetry_equiv_pos_as_xyz
  x,y,z

loop_
_atom_site_label
_atom_site_type_symbol
_atom_site_fract_x
_atom_site_fract_y
_atom_site_fract_z
_atom_site_charge
Cd	Cd	0.03629 0.88395 0.22207 1.23900
Cd	Cd	0.02516 0.92697 0.34668 1.17900
O 	O 	0.06305 0.83092 0.22479 -0.32600
O 	O 	0.04231 0.84761 0.14984 -0.34600
C 	C 	0.05765 0.82495 0.17391 0.27500
O 	O 	0.00506 0.92587 0.20151 -0.38400
O 	O 	0.01977 0.95858 0.27637 -0.41400
C 	C 	0.00122 0.95254 0.23366 0.29800
C 	C 	0.98858 0.86283 0.28601 0.31600
O 	O 	0.06919 0.90911 0.30525 -0.46000
O 	O 	0.98505 0.85024 0.23697 -0.30300
O 	O 	0.01401 0.87916 0.29733 -0.53800
C 	C 	0.08489 0.92554 0.27299 0.30900
O 	O 	0.07887 0.91842 0.22215 -0.35100
Cd	Cd	0.99900 0.91183 0.97074 1.23900
Cd	Cd	0.98591 0.95582 0.85427 1.17800
O 	O 	0.04497 0.87692 0.97323 -0.33300
O 	O 	0.01460 0.88117 0.04009 -0.35200
C 	C 	0.03809 0.86647 0.01880 0.28800
O 	O 	0.96036 0.94655 0.99180 -0.37400
O 	O 	0.94506 0.95137 0.90429 -0.43200
C 	C 	0.94450 0.96209 0.95483 0.30300
C 	C 	0.03429 0.96934 0.95803 0.31600
O 	O 	0.98938 0.89996 0.86670 -0.45300
O 	O 	0.03716 0.96111 0.00740 -0.29000
O 	O 	0.01958 0.94853 0.92482 -0.54300
C 	C 	0.96690 0.88040 0.87697 0.31300
O 	O 	0.96435 0.87519 0.92717 -0.35600
C 	C 	0.06144 0.64553 0.86761 0.12200
N 	N 	0.07424 0.64361 0.81928 -0.14400
C 	C 	0.06879 0.61690 0.78467 0.12600
N 	N 	0.05071 0.59198 0.79875 -0.14400
C 	C 	0.03739 0.59401 0.84650 0.12700
N 	N 	0.04241 0.62106 0.88051 -0.14100
C 	C 	0.07814 0.62428 0.30879 0.12200
N 	N 	0.09298 0.62514 0.35786 -0.14300
C 	C 	0.08311 0.60579 0.39571 0.12700
N 	N 	0.05853 0.58544 0.38423 -0.14400
C 	C 	0.04371 0.58447 0.33539 0.12800
N 	N 	0.05320 0.60429 0.29809 -0.14100
Cd	Cd	0.81613 0.94249 0.72018 1.23900
Cd	Cd	0.84930 0.95023 0.85272 1.18400
O 	O 	0.76922 0.90917 0.70519 -0.32300
O 	O 	0.78569 0.93886 0.64277 -0.35100
C 	C 	0.76397 0.92007 0.65827 0.28000
O 	O 	0.85363 0.98089 0.71815 -0.38700
O 	O 	0.88172 0.96320 0.79052 -0.41900
C 	C 	0.87645 0.98524 0.75509 0.29400
C 	C 	0.78878 0.98694 0.79662 0.32000
O 	O 	0.83842 0.90490 0.79351 -0.45300
O 	O 	0.77829 0.99104 0.74806 -0.31700
O 	O 	0.80640 0.96143 0.80154 -0.52600
C 	C 	0.85671 0.89199 0.75842 0.31000
O 	O 	0.85187 0.90083 0.70977 -0.35000
Cd	Cd	0.84060 0.91467 0.43269 1.24100
Cd	Cd	0.87670 0.91129 0.30910 1.18100
O 	O 	0.79899 0.87483 0.44314 -0.32000
O 	O 	0.81427 0.91032 0.50836 -0.35000
C 	C 	0.79380 0.88837 0.49003 0.27800
O 	O 	0.88062 0.94982 0.44767 -0.38000
O 	O 	0.88377 0.95865 0.35923 -0.44000
C 	C 	0.89621 0.96019 0.40812 0.30000
C 	C 	0.88586 0.86605 0.41119 0.32100
O 	O 	0.82583 0.91982 0.32994 -0.43700
O 	O 	0.88027 0.86806 0.46194 -0.29000
O 	O 	0.86722 0.88223 0.38098 -0.54100
C 	C 	0.81315 0.94788 0.34409 0.31300
O 	O 	0.81210 0.95513 0.39516 -0.37600
C 	C 	0.57884 0.94961 0.82736 0.12300
N 	N 	0.55780 0.97388 0.82120 -0.14100
C 	C 	0.53704 0.98050 0.85889 0.12600
N 	N 	0.53757 0.96307 0.90314 -0.14400
C 	C 	0.55898 0.93928 0.90999 0.12500
N 	N 	0.57963 0.93259 0.87209 -0.14300
C 	C 	0.57911 0.88687 0.37891 0.12100
N 	N 	0.58107 0.88697 0.32514 -0.14100
C 	C 	0.55616 0.89494 0.29392 0.12700
N 	N 	0.52985 0.90486 0.31674 -0.14300
C 	C 	0.52816 0.90629 0.37054 0.12800
N 	N 	0.55252 0.89651 0.40146 -0.14400
Cd	Cd	0.86531 0.11235 0.22126 1.24000
Cd	Cd	0.88050 0.06715 0.33671 1.17200
O 	O 	0.83424 0.16213 0.23528 -0.32100
O 	O 	0.85575 0.15039 0.15919 -0.34900
C 	C 	0.83920 0.17082 0.18780 0.28100
O 	O 	0.90021 0.07402 0.19590 -0.38200
O 	O 	0.88810 0.03865 0.25921 -0.42900
C 	C 	0.90677 0.04797 0.22341 0.29800
C 	C 	0.91174 0.13595 0.29864 0.32200
O 	O 	0.83514 0.08186 0.29138 -0.45500
O 	O 	0.91276 0.15089 0.25446 -0.31400
O 	O 	0.88817 0.11655 0.30136 -0.53000
C 	C 	0.82083 0.06512 0.25143 0.31900
O 	O 	0.82616 0.07421 0.20402 -0.35700
Cd	Cd	0.84909 0.14841 0.98006 1.24000
Cd	Cd	0.86113 0.10479 0.85525 1.18700
O 	O 	0.80779 0.18960 0.98039 -0.32200
O 	O 	0.83479 0.17967 0.05332 -0.34600
C 	C 	0.81406 0.19792 0.03047 0.28400
O 	O 	0.88136 0.10787 0.00227 -0.37700
O 	O 	0.89898 0.10027 0.91837 -0.44100
C 	C 	0.89388 0.08874 0.96483 0.29000
C 	C 	0.80832 0.09667 0.94211 0.32900
O 	O 	0.86347 0.16041 0.88238 -0.44600
O 	O 	0.80397 0.10461 0.99241 -0.29700
O 	O 	0.82642 0.11581 0.91895 -0.53100
C 	C 	0.88736 0.17674 0.90359 0.30400
O 	O 	0.88938 0.18031 0.95560 -0.36900
C 	C 	0.82419 0.40219 0.89037 0.11800
N 	N 	0.81111 0.40229 0.84006 -0.14300
C 	C 	0.82364 0.42076 0.80356 0.12700
N 	N 	0.84829 0.44045 0.81811 -0.14400
C 	C 	0.86092 0.44112 0.86859 0.12800
N 	N 	0.84930 0.42146 0.90435 -0.14100
C 	C 	0.82803 0.39436 0.32915 0.12200
N 	N 	0.81676 0.39853 0.37864 -0.14300
C 	C 	0.82524 0.42529 0.41149 0.12600
N 	N 	0.84504 0.44777 0.39454 -0.14400
C 	C 	0.85774 0.44267 0.34658 0.12900
N 	N 	0.84905 0.41611 0.31382 -0.14200
Cd	Cd	0.02978 0.12674 0.76386 1.24000
Cd	Cd	0.99211 0.12629 0.88728 1.16900
O 	O 	0.08162 0.15131 0.76762 -0.32400
O 	O 	0.06241 0.12436 0.69497 -0.34500
C 	C 	0.08603 0.13968 0.71931 0.27700
O 	O 	0.98832 0.09445 0.74408 -0.38500
O 	O 	0.96036 0.11312 0.81507 -0.43000
C 	C 	0.96580 0.09044 0.77670 0.29700
C 	C 	0.04768 0.08004 0.83901 0.32900
O 	O 	0.00997 0.16797 0.83808 -0.46400
O 	O 	0.05809 0.07208 0.79226 -0.30700
O 	O 	0.03426 0.10840 0.84386 -0.54400
C 	C 	0.99406 0.18273 0.80157 0.30900
O 	O 	0.99998 0.17346 0.75238 -0.35000
Cd	Cd	0.06382 0.08118 0.47250 1.24100
Cd	Cd	0.03579 0.07542 0.33699 1.18100
O 	O 	0.10207 0.12458 0.49743 -0.32000
O 	O 	0.08571 0.09241 0.55638 -0.34900
C 	C 	0.10556 0.11482 0.54546 0.27900
O 	O 	0.02439 0.04527 0.47176 -0.37400
O 	O 	0.02565 0.03133 0.38228 -0.43100
C 	C 	0.01096 0.03200 0.42695 0.28300
C 	C 	0.01904 0.12639 0.43676 0.32500
O 	O 	0.08479 0.07030 0.37623 -0.45100
O 	O 	0.02115 0.12782 0.48896 -0.29600
O 	O 	0.03971 0.10885 0.41316 -0.53600
C 	C 	0.09743 0.04353 0.39286 0.31600
O 	O 	0.09601 0.03958 0.44371 -0.36700
C 	C 	0.28923 0.11385 0.86543 0.12000
N 	N 	0.31770 0.10664 0.84808 -0.14100
C 	C 	0.34111 0.10001 0.88348 0.12700
N 	N 	0.33659 0.10265 0.93652 -0.14400
C 	C 	0.30878 0.11196 0.95434 0.12000
N 	N 	0.28490 0.11676 0.91877 -0.14400
C 	C 	0.29826 0.06789 0.42518 0.12200
N 	N 	0.29695 0.07941 0.37560 -0.14300
C 	C 	0.31905 0.07104 0.34095 0.12700
N 	N 	0.34190 0.05025 0.35547 -0.14400
C 	C 	0.34239 0.03734 0.40391 0.12800
N 	N 	0.32067 0.04633 0.43890 -0.14100
C 	C 	0.31607 0.08089 0.28532 -0.05000
C 	C 	0.30964 0.11387 0.27353 0.10100
C 	C 	0.30400 0.12136 0.22017 -0.08700
C 	C 	0.30765 0.09733 0.17834 -0.00500
C 	C 	0.31633 0.06493 0.19006 0.07200
C 	C 	0.31925 0.05677 0.24342 -0.05300
N 	N 	0.31038 0.13861 0.31273 -0.19900
H 	H 	0.29803 0.14632 0.21109 0.05400
C 	C 	0.30394 0.10687 0.12241 -0.00600
N 	N 	0.32234 0.04172 0.15048 -0.19400
H 	H 	0.32442 0.03158 0.25235 0.05000
C 	C 	0.32677 0.12630 0.10236 -0.08500
C 	C 	0.32643 0.13175 0.04782 0.10000
C 	C 	0.30425 0.11530 0.01229 -0.04300
C 	C 	0.27986 0.09833 0.03292 -0.05600
C 	C 	0.27903 0.09475 0.08804 0.07200
H 	H 	0.34500 0.13699 0.12917 0.05400
N 	N 	0.34685 0.15334 0.03001 -0.19400
H 	H 	0.26206 0.08693 0.00598 0.05300
N 	N 	0.25461 0.07937 0.10756 -0.19400
H 	H 	0.36413 0.16414 0.05593 0.08600
H 	H 	0.34465 0.16107 0.99123 0.08700
H 	H 	0.23687 0.06944 0.08172 0.08600
H 	H 	0.25246 0.07813 0.14853 0.09000
H 	H 	0.32767 0.01761 0.15951 0.08500
H 	H 	0.32295 0.04755 0.11078 0.09100
H 	H 	0.31946 0.13503 0.35111 0.09300
H 	H 	0.30383 0.16246 0.30406 0.08500
C 	C 	0.18815 0.13596 0.55732 -0.07100
C 	C 	0.19953 0.10399 0.56163 0.01200
C 	C 	0.18126 0.08068 0.58453 -0.00100
C 	C 	0.14966 0.08627 0.58821 -0.00800
C 	C 	0.13675 0.11584 0.57173 -0.07800
C 	C 	0.15679 0.14216 0.56327 0.05300
C 	C 	0.22499 0.09282 0.52815 0.00600
S 	S 	0.19704 0.04313 0.60322 -0.04200
H 	H 	0.13482 0.06638 0.59806 0.04900
S 	S 	0.14230 0.18185 0.55380 -0.03300
H 	H 	0.20288 0.15502 0.54410 0.05100
C 	C 	0.21864 0.07763 0.47658 0.00300
C 	C 	0.24283 0.06911 0.44393 -0.03100
C 	C 	0.27342 0.07587 0.46160 -0.03100
C 	C 	0.27984 0.09108 0.51314 0.02900
C 	C 	0.25560 0.09926 0.54621 -0.06100
S 	S 	0.18042 0.06985 0.45197 -0.01700
H 	H 	0.23783 0.05739 0.40444 0.04900
S 	S 	0.31786 0.10152 0.53568 -0.04300
H 	H 	0.26051 0.11116 0.58559 0.04900
H 	H 	0.14477 0.20106 0.60061 0.03500
H 	H 	0.16864 0.09750 0.43039 0.04100
H 	H 	0.32490 0.13221 0.52023 0.03500
H 	H 	0.19529 0.02065 0.56011 0.04200
C 	C 	0.23448 0.10807 0.74158 -0.06100
C 	C 	0.21077 0.12899 0.75836 0.00500
C 	C 	0.21360 0.14587 0.80934 0.00700
C 	C 	0.24037 0.14254 0.84169 -0.03600
C 	C 	0.26315 0.11981 0.82672 -0.03000
C 	C 	0.25972 0.10188 0.77634 0.02800
C 	C 	0.18107 0.12856 0.72659 0.01600
S 	S 	0.18283 0.16902 0.83508 -0.03600
H 	H 	0.24283 0.15660 0.87983 0.04700
S 	S 	0.28441 0.06907 0.75866 -0.03700
H 	H 	0.23214 0.09468 0.70283 0.05100
C 	C 	0.16882 0.15762 0.70676 -0.00200
C 	C 	0.13693 0.16014 0.69660 -0.00700
C 	C 	0.11759 0.13316 0.70318 -0.07400
C 	C 	0.13103 0.10220 0.71123 0.05500
C 	C 	0.16263 0.10017 0.72388 -0.07000
S 	S 	0.19294 0.19124 0.69681 -0.04400
H 	H 	0.12698 0.18368 0.68768 0.04000
S 	S 	0.10866 0.06595 0.70563 -0.02800
H 	H 	0.17250 0.07693 0.73470 0.05300
H 	H 	0.27363 0.04065 0.77766 0.03600
H 	H 	0.20377 0.18788 0.64658 0.03500
H 	H 	0.10985 0.05198 0.75373 0.05800
H 	H 	0.18598 0.20130 0.82372 0.03700
C 	C 	0.81230 0.41749 0.74719 -0.05000
C 	C 	0.81937 0.38935 0.71370 0.10100
C 	C 	0.81440 0.39020 0.65819 -0.08600
C 	C 	0.80417 0.41907 0.63558 -0.00500
C 	C 	0.79444 0.44597 0.66911 0.07000
C 	C 	0.79850 0.44483 0.72472 -0.05300
N 	N 	0.83195 0.36200 0.73424 -0.20000
H 	H 	0.82080 0.36920 0.63232 0.05600
C 	C 	0.80906 0.42293 0.57840 -0.00500
N 	N 	0.78190 0.47320 0.64821 -0.19400
H 	H 	0.79227 0.46595 0.75049 0.04800
C 	C 	0.78474 0.41609 0.54038 -0.08700
C 	C 	0.78886 0.41914 0.48580 0.10000
C 	C 	0.81862 0.42624 0.46877 -0.05000
C 	C 	0.84290 0.43301 0.50696 -0.05400
C 	C 	0.83826 0.43221 0.56160 0.07200
H 	H 	0.76230 0.40943 0.55344 0.05400
N 	N 	0.76404 0.41667 0.45056 -0.19900
H 	H 	0.86564 0.43865 0.49407 0.05000
N 	N 	0.86195 0.44029 0.59766 -0.19400
H 	H 	0.74253 0.40970 0.46300 0.08500
H 	H 	0.76535 0.42366 0.41155 0.09400
H 	H 	0.88358 0.44641 0.58477 0.08400
H 	H 	0.85906 0.44129 0.63866 0.09000
H 	H 	0.77561 0.49335 0.67322 0.08400
H 	H 	0.77760 0.47435 0.60718 0.08800
H 	H 	0.83697 0.36080 0.77503 0.09400
H 	H 	0.83707 0.34147 0.70909 0.08700
C 	C 	0.91086 0.19023 0.87038 -0.12600
C 	C 	0.91057 0.18085 0.81554 -0.06600
C 	C 	0.93712 0.18487 0.78733 0.17300
C 	C 	0.96422 0.19723 0.81461 -0.12800
C 	C 	0.96192 0.21372 0.86499 -0.07600
C 	C 	0.93562 0.20953 0.89372 0.15000
H 	H 	0.89043 0.16901 0.79548 0.04300
O 	O 	0.93664 0.17640 0.73358 -0.28000
H 	H 	0.98187 0.22632 0.88442 0.04900
O 	O 	0.93412 0.22443 0.94407 -0.27600
H 	H 	0.94490 0.20932 0.96810 0.12600
H 	H 	0.94154 0.15258 0.73033 0.15900
C 	C 	0.80503 0.35902 0.01381 -0.03700
C 	C 	0.80625 0.32595 0.99438 -0.01500
C 	C 	0.81045 0.31824 0.93969 0.01300
C 	C 	0.81480 0.34349 0.90574 -0.03900
C 	C 	0.81523 0.37654 0.92556 -0.02300
C 	C 	0.80942 0.38438 0.97969 0.01000
C 	C 	0.80592 0.29942 0.03184 0.02600
S 	S 	0.81144 0.27696 0.91363 -0.03100
H 	H 	0.81895 0.33735 0.86413 0.04700
S 	S 	0.80662 0.42566 0.00479 -0.02700
H 	H 	0.80137 0.36501 0.05565 0.04300
C 	C 	0.83399 0.28641 0.05100 -0.00900
C 	C 	0.83612 0.25272 0.05851 -0.00200
C 	C 	0.80992 0.23244 0.04992 -0.08200
C 	C 	0.78080 0.24725 0.04364 0.05700
C 	C 	0.77888 0.28085 0.03459 -0.07300
S 	S 	0.86707 0.31145 0.06111 -0.02700
H 	H 	0.85855 0.24182 0.06562 0.04700
S 	S 	0.74691 0.22345 0.04266 -0.03200
H 	H 	0.75676 0.29152 0.02395 0.05700
H 	H 	0.77680 0.43600 0.99769 0.03000
H 	H 	0.86874 0.32472 0.11270 0.03400
H 	H 	0.73744 0.22195 0.09355 0.03900
H 	H 	0.84070 0.26497 0.92072 0.04600
C 	C 	0.99112 0.13629 0.40680 -0.15200
C 	C 	0.96195 0.12995 0.42554 -0.05400
C 	C 	0.93568 0.12984 0.39069 0.13100
C 	C 	0.93869 0.13606 0.33669 -0.14100
C 	C 	0.96762 0.14478 0.31940 -0.07400
C 	C 	0.99348 0.14585 0.35452 0.13900
H 	H 	0.95975 0.12385 0.46646 0.05600
O 	O 	0.90716 0.12526 0.41003 -0.28300
H 	H 	0.97013 0.15053 0.27839 0.05200
O 	O 	0.02156 0.15438 0.33675 -0.34900
H 	H 	0.02331 0.17856 0.34454 0.16100
H 	H 	0.90492 0.10109 0.41167 0.03200
C 	C 	0.81749 0.33318 0.20933 -0.06100
C 	C 	0.82214 0.30344 0.23357 0.00400
C 	C 	0.82492 0.30343 0.28967 0.00400
C 	C 	0.82490 0.33323 0.32071 -0.03400
C 	C 	0.82202 0.36324 0.29648 -0.03100
C 	C 	0.81683 0.36303 0.24047 0.02900
C 	C 	0.82527 0.27246 0.20024 0.01600
S 	S 	0.82897 0.26625 0.32145 -0.03000
H 	H 	0.82832 0.33314 0.36370 0.04800
S 	S 	0.80793 0.39957 0.20924 -0.04300
H 	H 	0.81438 0.33309 0.16626 0.04900
C 	C 	0.79973 0.25138 0.18888 -0.00300
C 	C 	0.80438 0.21780 0.17611 -0.00400
C 	C 	0.83436 0.20514 0.17467 -0.07000
C 	C 	0.85954 0.22728 0.17715 0.05600
C 	C 	0.85483 0.26086 0.18984 -0.07100
S 	S 	0.76199 0.26633 0.19425 -0.04000
H 	H 	0.78478 0.20112 0.17142 0.04300
S 	S 	0.89705 0.21322 0.16597 -0.03700
H 	H 	0.87441 0.27752 0.19540 0.05300
H 	H 	0.83454 0.41370 0.19435 0.04000
H 	H 	0.75363 0.26482 0.24582 0.03700
H 	H 	0.91291 0.21088 0.21401 0.05000
H 	H 	0.80036 0.25360 0.32873 0.03800
C 	C 	0.50268 0.92422 0.39534 -0.05100
C 	C 	0.50013 0.95879 0.39299 0.10200
C 	C 	0.47263 0.97437 0.40671 -0.08700
C 	C 	0.44817 0.95624 0.42462 -0.00500
C 	C 	0.45205 0.92232 0.43249 0.06900
C 	C 	0.47915 0.90646 0.41684 -0.05200
N 	N 	0.52396 0.97709 0.37762 -0.20000
H 	H 	0.46994 0.00056 0.40215 0.05600
C 	C 	0.41756 0.97202 0.42808 -0.00500
N 	N 	0.42999 0.90497 0.45520 -0.19400
H 	H 	0.48163 0.88015 0.42031 0.04700
C 	C 	0.39474 0.96393 0.38791 -0.08600
C 	C 	0.36815 0.98319 0.38289 0.10100
C 	C 	0.36525 0.01203 0.41691 -0.04900
C 	C 	0.38666 0.01845 0.45996 -0.05100
C 	C 	0.41259 0.99825 0.46648 0.06700
H 	H 	0.39804 0.94306 0.35967 0.05500
N 	N 	0.34539 0.97371 0.34588 -0.19900
H 	H 	0.38370 0.03978 0.48742 0.04900
N 	N 	0.43255 0.00411 0.50950 -0.19300
H 	H 	0.34830 0.95324 0.31928 0.08500
H 	H 	0.32409 0.98555 0.34487 0.09200
H 	H 	0.42931 0.02420 0.53673 0.08300
H 	H 	0.45073 0.98813 0.51737 0.08600
H 	H 	0.43255 0.87970 0.45929 0.08300
H 	H 	0.41068 0.91658 0.47071 0.08700
H 	H 	0.54546 0.96666 0.37093 0.09300
H 	H 	0.52148 0.00243 0.37411 0.08600
C 	C 	0.51310 0.00555 0.85079 -0.05000
C 	C 	0.50647 0.02931 0.89223 0.10100
C 	C 	0.47869 0.04671 0.88914 -0.08600
C 	C 	0.45849 0.04219 0.84400 -0.00500
C 	C 	0.46736 0.02208 0.79935 0.06900
C 	C 	0.49438 0.00338 0.80355 -0.05300
N 	N 	0.52695 0.03604 0.93426 -0.19900
H 	H 	0.47252 0.06339 0.92230 0.05400
C 	C 	0.42702 0.05581 0.84626 -0.00500
N 	N 	0.44975 0.02010 0.75297 -0.19400
H 	H 	0.50020 0.98621 0.77080 0.04900
C 	C 	0.42255 0.08942 0.83922 -0.08700
C 	C 	0.39397 0.10422 0.84838 0.10000
C 	C 	0.36947 0.08481 0.86445 -0.05000
C 	C 	0.37335 0.05084 0.86798 -0.05200
C 	C 	0.40203 0.03615 0.85993 0.07100
H 	H 	0.44161 0.10429 0.82797 0.05300
N 	N 	0.39035 0.13700 0.84227 -0.20000
H 	H 	0.35429 0.03599 0.87930 0.04800
N 	N 	0.40557 0.00339 0.86653 -0.19300
H 	H 	0.40875 0.15122 0.83128 0.08400
H 	H 	0.36922 0.14859 0.84759 0.09100
H 	H 	0.38692 0.98914 0.87646 0.08200
H 	H 	0.42673 0.99173 0.86229 0.08800
H 	H 	0.45592 0.00435 0.72077 0.08300
H 	H 	0.43032 0.03485 0.74787 0.08800
H 	H 	0.54925 0.02653 0.93446 0.09300
H 	H 	0.52128 0.05246 0.96595 0.08400
C 	C 	0.56177 0.92322 0.96086 -0.04500
C 	C 	0.53585 0.90864 0.98198 0.09000
C 	C 	0.53712 0.90115 0.03571 -0.07500
C 	C 	0.56420 0.90665 0.06778 -0.01100
C 	C 	0.59120 0.91747 0.04484 0.08100
C 	C 	0.58962 0.92603 0.99160 -0.06500
N 	N 	0.50999 0.90126 0.95069 -0.19700
H 	H 	0.51681 0.89160 0.05288 0.05300
C 	C 	0.56318 0.90405 0.12609 -0.00300
N 	N 	0.61847 0.92022 0.07388 -0.19600
H 	H 	0.60980 0.93613 0.97477 0.05100
C 	C 	0.56661 0.87304 0.14689 -0.08700
C 	C 	0.56416 0.86937 0.20166 0.10200
C 	C 	0.55904 0.89753 0.23628 -0.04900
C 	C 	0.55604 0.92857 0.21551 -0.05200
C 	C 	0.55776 0.93212 0.16067 0.07100
H 	H 	0.57064 0.85160 0.12021 0.05500
N 	N 	0.56596 0.83875 0.22037 -0.19900
H 	H 	0.55213 0.95006 0.24216 0.04900
N 	N 	0.55401 0.96246 0.14150 -0.19400
H 	H 	0.57053 0.81828 0.19469 0.08600
H 	H 	0.56201 0.83476 0.26001 0.09400
H 	H 	0.55021 0.98303 0.16745 0.08500
H 	H 	0.55458 0.96599 0.10085 0.09100
H 	H 	0.63807 0.92915 0.05709 0.08900
H 	H 	0.62068 0.91274 0.11279 0.09200
H 	H 	0.50950 0.90330 0.90950 0.09100
H 	H 	0.49048 0.89179 0.96709 0.08200
C 	C 	0.80458 0.97242 0.30554 -0.12300
C 	C 	0.78517 0.99839 0.32148 -0.05900
C 	C 	0.78746 0.02876 0.29909 0.16100
C 	C 	0.80798 0.03255 0.25860 -0.12500
C 	C 	0.82175 0.00460 0.23461 -0.05900
C 	C 	0.82072 0.97458 0.25864 0.16300
H 	H 	0.77056 0.99603 0.35469 0.06400
O 	O 	0.77047 0.05500 0.31805 -0.28100
H 	H 	0.83581 0.00687 0.20066 0.07800
O 	O 	0.83583 0.94778 0.23687 -0.30600
H 	H 	0.85784 0.95145 0.24806 0.06600
H 	H 	0.78293 0.06525 0.34894 0.13700
C 	C 	0.92696 0.97556 0.41863 -0.12400
C 	C 	0.93199 0.00046 0.45968 -0.06700
C 	C 	0.95984 0.01847 0.46423 0.14600
C 	C 	0.98334 0.01057 0.42886 -0.11700
C 	C 	0.97877 0.98430 0.39023 -0.08700
C 	C 	0.95057 0.96764 0.38383 0.15200
H 	H 	0.91389 0.00690 0.48649 0.05200
O 	O 	0.96374 0.04393 0.50258 -0.27600
H 	H 	0.99660 0.97787 0.36322 -0.02000
O 	O 	0.94607 0.94361 0.34322 -0.36400
H 	H 	0.93899 0.95539 0.31157 0.11900
H 	H 	0.95547 0.06362 0.48565 0.12700
C 	C 	0.71211 0.91661 0.48663 -0.07000
C 	C 	0.69704 0.88663 0.49243 0.01800
C 	C 	0.71410 0.86001 0.51169 -0.00500
C 	C 	0.74629 0.86240 0.51840 -0.00500
C 	C 	0.76166 0.89105 0.50593 -0.07800
C 	C 	0.74416 0.91908 0.49371 0.05800
C 	C 	0.66482 0.88192 0.47017 0.00500
S 	S 	0.69555 0.82340 0.52636 -0.03800
H 	H 	0.75950 0.84117 0.52982 0.04200
S 	S 	0.76223 0.95638 0.48117 -0.04400
H 	H 	0.69912 0.93737 0.47276 0.05500
C 	C 	0.64091 0.90240 0.48868 0.00600
C 	C 	0.61255 0.90272 0.45987 -0.03500
C 	C 	0.60723 0.88209 0.41331 -0.03000
C 	C 	0.62997 0.85906 0.39804 0.03000
C 	C 	0.65892 0.85995 0.42529 -0.05800
S 	S 	0.64614 0.92789 0.54758 -0.04100
H 	H 	0.59493 0.91983 0.47285 0.04800
S 	S 	0.62192 0.82765 0.34758 -0.03900
H 	H 	0.67702 0.84382 0.41115 0.05400
H 	H 	0.77600 0.97057 0.52722 0.05100
H 	H 	0.65692 0.95816 0.53609 0.03600
H 	H 	0.60957 0.80098 0.36956 0.03600
H 	H 	0.68927 0.82473 0.57920 0.03700
C 	C 	0.89956 0.01170 0.75100 -0.10900
C 	C 	0.88991 0.04453 0.74895 -0.08900
C 	C 	0.91148 0.07045 0.75562 0.14900
C 	C 	0.94310 0.06358 0.76387 -0.11300
C 	C 	0.95286 0.03078 0.76344 -0.08200
C 	C 	0.93136 0.00489 0.75699 0.16200
H 	H 	0.86556 0.05008 0.74475 0.02400
O 	O 	0.90150 0.10240 0.75586 -0.36900
H 	H 	0.97712 0.02529 0.76970 0.02300
O 	O 	0.94141 0.97301 0.75848 -0.37000
H 	H 	0.94700 0.96654 0.72153 0.14500
H 	H 	0.90088 0.10789 0.71799 0.15800
C 	C 	0.78709 0.01394 0.83866 -0.13300
C 	C 	0.77783 0.04532 0.82413 -0.07000
C 	C 	0.78028 0.07232 0.86116 0.15300
C 	C 	0.79312 0.06843 0.91264 -0.14100
C 	C 	0.79794 0.03661 0.92963 -0.04500
C 	C 	0.79475 0.00916 0.89277 0.14000
H 	H 	0.76976 0.04903 0.78351 0.06000
O 	O 	0.77260 0.10309 0.84563 -0.31400
H 	H 	0.80611 0.03327 0.97033 0.05700
O 	O 	0.79690 0.97799 0.91031 -0.29200
H 	H 	0.81909 0.97474 0.91931 0.03800
H 	H 	0.75066 0.10597 0.85391 0.15600
C 	C 	0.68856 0.95762 0.65928 -0.07300
C 	C 	0.67289 0.93013 0.67540 0.01700
C 	C 	0.68392 0.89834 0.66151 -0.00100
C 	C 	0.71300 0.89478 0.64032 -0.00300
C 	C 	0.73188 0.92258 0.63740 -0.08100
C 	C 	0.71770 0.95379 0.63857 0.05800
C 	C 	0.64876 0.93496 0.71434 0.00500
S 	S 	0.66277 0.86307 0.67447 -0.04000
H 	H 	0.72276 0.87038 0.63448 0.04100
S 	S 	0.73624 0.98809 0.61540 -0.04600
H 	H 	0.67891 0.98203 0.66565 0.05300
C 	C 	0.65682 0.94083 0.76916 0.00400
C 	C 	0.63376 0.94545 0.80562 -0.03200
C 	C 	0.60260 0.94389 0.78814 -0.03200
C 	C 	0.59452 0.93726 0.73336 0.03000
C 	C 	0.61765 0.93331 0.69676 -0.06100
S 	S 	0.69574 0.94212 0.79265 -0.02700
H 	H 	0.64005 0.95043 0.84766 0.04600
S 	S 	0.55572 0.93207 0.71049 -0.04400
H 	H 	0.61144 0.92835 0.65471 0.05200
H 	H 	0.75056 0.00641 0.65714 0.05000
H 	H 	0.70722 0.97335 0.79002 0.04300
H 	H 	0.54730 0.89975 0.71296 0.03600
H 	H 	0.66999 0.85489 0.72556 0.04000
C 	C 	0.01481 0.56570 0.32578 -0.04900
C 	C 	0.01293 0.53696 0.29074 0.10200
C 	C 	0.98562 0.51823 0.28634 -0.08800
C 	C 	0.96053 0.52745 0.31682 -0.00600
C 	C 	0.96187 0.55714 0.34957 0.07100
C 	C 	0.98908 0.57593 0.35379 -0.05300
N 	N 	0.03737 0.52678 0.26228 -0.20000
H 	H 	0.98433 0.49568 0.26076 0.05500
C 	C 	0.93501 0.50367 0.32000 -0.00500
N 	N 	0.93725 0.56758 0.37733 -0.19400
H 	H 	0.99041 0.59837 0.37966 0.04900
C 	C 	0.93777 0.47994 0.35782 -0.08600
C 	C 	0.91327 0.45850 0.36505 0.10200
C 	C 	0.88507 0.46180 0.33516 -0.05100
C 	C 	0.88272 0.48452 0.29565 -0.05300
C 	C 	0.90759 0.50540 0.28739 0.06900
H 	H 	0.95907 0.47822 0.38184 0.05500
N 	N 	0.91710 0.43454 0.40007 -0.20000
H 	H 	0.86134 0.48637 0.27189 0.04800
N 	N 	0.90489 0.52719 0.24867 -0.19400
H 	H 	0.93756 0.43317 0.42349 0.08400
H 	H 	0.90043 0.41631 0.40293 0.09300
H 	H 	0.88438 0.52864 0.22539 0.08400
H 	H 	0.92315 0.54254 0.24077 0.08900
H 	H 	0.93870 0.58917 0.40230 0.08400
H 	H 	0.91631 0.55482 0.37367 0.08900
H 	H 	0.05829 0.53958 0.26562 0.09300
H 	H 	0.03566 0.50556 0.23645 0.08500
C 	C 	0.01334 0.56994 0.85693 -0.04800
C 	C 	0.01440 0.55290 0.90435 0.10100
C 	C 	0.98985 0.53195 0.91419 -0.08800
C 	C 	0.96531 0.52630 0.87625 -0.00500
C 	C 	0.96448 0.54300 0.82855 0.07100
C 	C 	0.98847 0.56473 0.81952 -0.05400
N 	N 	0.03928 0.55556 0.93948 -0.19900
H 	H 	0.99044 0.51901 0.95056 0.05300
C 	C 	0.94126 0.50181 0.88574 -0.00600
N 	N 	0.94071 0.53837 0.79138 -0.19400
H 	H 	0.98764 0.57791 0.78338 0.04900
C 	C 	0.91443 0.51258 0.91009 -0.08600
C 	C 	0.88833 0.49203 0.90864 0.09900
C 	C 	0.88932 0.46019 0.88244 -0.05000
C 	C 	0.91709 0.44835 0.86280 -0.05300
C 	C 	0.94321 0.46882 0.86445 0.07100
H 	H 	0.91338 0.53753 0.92796 0.05400
N 	N 	0.86235 0.50318 0.93168 -0.20000
H 	H 	0.91803 0.42355 0.84425 0.04900
N 	N 	0.96983 0.45690 0.84467 -0.19400
H 	H 	0.86158 0.52703 0.94978 0.08400
H 	H 	0.84295 0.48811 0.93297 0.09200
H 	H 	0.97079 0.43280 0.82759 0.08500
H 	H 	0.98998 0.47105 0.84719 0.08800
H 	H 	0.94047 0.55062 0.75613 0.08300
H 	H 	0.92219 0.52283 0.79706 0.09000
H 	H 	0.05933 0.56776 0.93056 0.09300
H 	H 	0.03928 0.54399 0.97536 0.08400
C 	C 	0.09578 0.61049 0.45130 -0.05100
C 	C 	0.10326 0.58295 0.48091 0.10100
C 	C 	0.10401 0.58635 0.53689 -0.08600
C 	C 	0.09860 0.61703 0.56344 -0.00600
C 	C 	0.09620 0.64545 0.53395 0.07000
C 	C 	0.09448 0.64187 0.47790 -0.05400
N 	N 	0.10973 0.55333 0.45580 -0.19900
H 	H 	0.10752 0.56484 0.55970 0.05400
C 	C 	0.09083 0.61827 0.62028 -0.00600
N 	N 	0.09475 0.67600 0.55911 -0.19400
H 	H 	0.09024 0.66328 0.45514 0.04900
C 	C 	0.11468 0.61870 0.66008 -0.08700
C 	C 	0.10810 0.61811 0.71420 0.09900
C 	C 	0.07699 0.61795 0.72858 -0.05000
C 	C 	0.05321 0.61809 0.68879 -0.05300
C 	C 	0.05975 0.61775 0.63472 0.07100
H 	H 	0.13843 0.61892 0.64885 0.05300
N 	N 	0.13167 0.61692 0.75176 -0.19900
H 	H 	0.02943 0.61804 0.69994 0.04800
N 	N 	0.03612 0.61658 0.59695 -0.19400
H 	H 	0.15452 0.61761 0.74078 0.08400
H 	H 	0.12766 0.61458 0.79188 0.09200
H 	H 	0.01328 0.61663 0.60814 0.08400
H 	H 	0.04003 0.61512 0.55629 0.09000
H 	H 	0.09186 0.69678 0.53709 0.08300
H 	H 	0.09744 0.67951 0.60059 0.08800
H 	H 	0.11189 0.55085 0.41456 0.09100
H 	H 	0.11402 0.53274 0.47774 0.08500
C 	C 	0.92290 0.98907 0.96980 -0.12700
C 	C 	0.89986 0.99748 0.93201 -0.06100
C 	C 	0.88844 0.02957 0.93252 0.14900
C 	C 	0.89913 0.05338 0.97235 -0.12400
C 	C 	0.91799 0.04346 0.01547 -0.05700
C 	C 	0.92929 0.01098 0.01495 0.17600
H 	H 	0.89279 0.97996 0.89946 -0.03600
O 	O 	0.86714 0.03777 0.89355 -0.36300
H 	H 	0.92456 0.06098 0.04846 0.05600
O 	O 	0.94430 0.00013 0.05977 -0.28600
H 	H 	0.96630 0.00580 0.05706 0.15500
H 	H 	0.87928 0.04309 0.86290 0.08300
C 	C 	0.94118 0.87277 0.83731 -0.12700
C 	C 	0.94131 0.88563 0.78683 -0.06800
C 	C 	0.91386 0.88718 0.75555 0.17000
C 	C 	0.88600 0.87714 0.77589 -0.12200
C 	C 	0.88694 0.85913 0.82153 -0.07500
C 	C 	0.91455 0.85635 0.85180 0.16800
H 	H 	0.96233 0.89559 0.77278 0.02800
O 	O 	0.91440 0.89779 0.70496 -0.28200
H 	H 	0.86588 0.84914 0.83544 0.05500
O 	O 	0.91509 0.83893 0.89670 -0.28500
H 	H 	0.92074 0.81615 0.88451 0.14900
H 	H 	0.91068 0.92183 0.70881 0.15800
C 	C 	0.04163 0.00246 0.94307 -0.13900
C 	C 	0.06929 0.00780 0.91872 -0.07300
C 	C 	0.07244 0.03494 0.88803 0.17400
C 	C 	0.04744 0.05642 0.88058 -0.16900
C 	C 	0.02091 0.05266 0.90892 -0.05700
C 	C 	0.01834 0.02629 0.94123 0.12500
H 	H 	0.08768 0.98991 0.92103 0.05500
O 	O 	0.09931 0.03944 0.86301 -0.29200
H 	H 	0.00161 0.06910 0.90382 -0.06100
O 	O 	0.99228 0.02284 0.96865 -0.33100
H 	H 	0.99626 0.03630 0.00265 0.14200
H 	H 	0.11230 0.05383 0.88849 0.14400
C 	C 	0.08172 0.78805 0.01027 -0.07200
C 	C 	0.05698 0.76591 0.00087 0.02400
C 	C 	0.02731 0.77591 0.01493 -0.00400
C 	C 	0.02186 0.80909 0.02978 0.00200
C 	C 	0.04581 0.83235 0.03027 -0.07300
C 	C 	0.07627 0.82118 0.02554 0.05700
C 	C 	0.06098 0.73556 0.96628 -0.00100
S 	S 	0.99646 0.74759 0.01033 -0.02400
H 	H 	0.99854 0.81720 0.03632 0.05000
S 	S 	0.10757 0.84867 0.03710 -0.03300
H 	H 	0.10491 0.77997 0.00253 0.05400
C 	C 	0.05547 0.73579 0.91057 0.00600
C 	C 	0.05682 0.70642 0.87864 -0.03400
C 	C 	0.06368 0.67661 0.90155 -0.03100
C 	C 	0.07074 0.67664 0.95707 0.03100
C 	C 	0.06915 0.70610 0.98911 -0.06700
S 	S 	0.04637 0.77268 0.88045 -0.03900
H 	H 	0.05167 0.70660 0.83603 0.04800
S 	S 	0.08286 0.64046 0.98655 -0.04900
H 	H 	0.07400 0.70603 0.03182 0.05700
H 	H 	0.11408 0.86195 0.99027 0.04000
H 	H 	0.07306 0.78841 0.86982 0.03700
H 	H 	0.11422 0.63788 0.98501 0.03400
H 	H 	0.98331 0.74609 0.95955 0.03400
C 	C 	0.93258 0.02622 0.20893 -0.11000
C 	C 	0.96267 0.03580 0.22594 -0.08300
C 	C 	0.98603 0.01220 0.23009 0.16700
C 	C 	0.97931 0.97849 0.21722 -0.11200
C 	C 	0.94999 0.96948 0.19484 -0.06800
C 	C 	0.92668 0.99318 0.19063 0.16800
H 	H 	0.96754 0.06125 0.23938 0.01700
O 	O 	0.01498 0.02199 0.24903 -0.36000
H 	H 	0.94467 0.94382 0.18365 0.05200
O 	O 	0.89756 0.98355 0.17232 -0.30300
H 	H 	0.89694 0.98617 0.13337 0.16400
H 	H 	0.02557 0.02854 0.21733 0.13200
C 	C 	0.96625 0.85654 0.32679 -0.15700
C 	C 	0.96727 0.87558 0.37553 -0.03900
C 	C 	0.94223 0.87540 0.40844 0.14400
C 	C 	0.91604 0.85609 0.39253 -0.13900
C 	C 	0.91717 0.83338 0.34837 -0.08900
C 	C 	0.94224 0.83328 0.31568 0.16500
H 	H 	0.98658 0.89191 0.38653 -0.04000
O 	O 	0.94216 0.89649 0.45331 -0.29000
H 	H 	0.89760 0.81737 0.33720 0.05000
O 	O 	0.94264 0.81130 0.27195 -0.29200
H 	H 	0.95318 0.79152 0.28486 0.14700
H 	H 	0.95106 0.88369 0.48253 0.14900
C 	C 	0.10074 0.95626 0.29252 -0.12100
C 	C 	0.11666 0.95744 0.34247 -0.07400
C 	C 	0.11888 0.98709 0.37392 0.16600
C 	C 	0.10498 0.01569 0.35514 -0.12900
C 	C 	0.09456 0.01561 0.30130 -0.05800
C 	C 	0.09311 0.98598 0.26956 0.16500
H 	H 	0.12503 0.93492 0.35872 0.05400
O 	O 	0.13475 0.98813 0.42259 -0.28100
H 	H 	0.08637 0.03809 0.28472 0.01200
O 	O 	0.08499 0.98621 0.21617 -0.28300
H 	H 	0.06231 0.98342 0.21326 0.15900
H 	H 	0.12004 0.98006 0.44774 0.14200
C 	C 	0.04434 0.73517 0.15762 -0.07100
C 	C 	0.07521 0.72551 0.16290 0.01300
C 	C 	0.09817 0.74687 0.14761 -0.00300
C 	C 	0.09110 0.78002 0.14133 -0.00700
C 	C 	0.06118 0.79150 0.14949 -0.07800
C 	C 	0.03719 0.76833 0.15193 0.05300
C 	C 	0.08336 0.69954 0.19947 0.00500
S 	S 	0.13625 0.73320 0.14174 -0.04100
H 	H 	0.10941 0.79739 0.13567 0.04100
S 	S 	0.99868 0.78114 0.15513 -0.03200
H 	H 	0.02622 0.71792 0.16494 0.05400
C 	C 	0.08740 0.70748 0.25490 0.00400
C 	C 	0.08835 0.68240 0.29031 -0.03400
C 	C 	0.08528 0.64932 0.27119 -0.03100
C 	C 	0.08464 0.64127 0.21558 0.03000
C 	C 	0.08317 0.66644 0.18006 -0.06100
S 	S 	0.08969 0.74885 0.28057 -0.03400
H 	H 	0.08974 0.68875 0.33292 0.04600
S 	S 	0.08688 0.60000 0.19012 -0.04300
H 	H 	0.08118 0.66026 0.13742 0.05100
H 	H 	0.99144 0.78447 0.20753 0.05100
H 	H 	0.06054 0.76099 0.28580 0.04200
H 	H 	0.11718 0.59141 0.18631 0.03600
H 	H 	0.15170 0.73695 0.19064 0.03900
