data_crystal

_cell_length_a 38.15490
_cell_length_b 37.96911
_cell_length_c 20.89083
_cell_angle_alpha 91.26906
_cell_angle_beta  90.05361
_cell_angle_gamma 89.97535

_symmetry_space_group_name_	'P 1'
_symmetry_space_group_name_H-M	'P 1'

loop_
_symmetry_equiv_pos_as_xyz
  x,y,z

loop_
_atom_site_label
_atom_site_type_symbol
_atom_site_fract_x
_atom_site_fract_y
_atom_site_fract_z
_atom_site_charge
Cd	Cd	0.98293 0.86722 0.21043 1.24300
Cd	Cd	0.94286 0.89251 0.35516 1.18800
O 	O 	0.96316 0.81154 0.16105 -0.28600
O 	O 	0.00394 0.84327 0.11728 -0.34100
C 	C 	0.98848 0.81265 0.11974 0.28200
O 	O 	0.00354 0.92221 0.22838 -0.37600
O 	O 	0.99434 0.91921 0.33587 -0.43300
C 	C 	0.00174 0.93794 0.28538 0.27500
C 	C 	0.91575 0.89873 0.20898 0.33200
O 	O 	0.97297 0.84155 0.32591 -0.42300
O 	O 	0.92944 0.89893 0.15150 -0.29900
O 	O 	0.93239 0.88014 0.25004 -0.53600
C 	C 	0.00672 0.83651 0.32810 0.29200
O 	O 	0.02422 0.84444 0.27688 -0.37900
Cd	Cd	0.92777 0.90732 0.98105 1.24200
Cd	Cd	0.93380 0.97314 0.86134 1.20200
O 	O 	0.90679 0.85073 0.93694 -0.29100
O 	O 	0.92923 0.85496 0.03302 -0.31800
C 	C 	0.91928 0.83424 0.98558 0.28500
O 	O 	0.95654 0.95265 0.03052 -0.35900
O 	O 	0.93632 0.99462 0.96210 -0.41400
C 	C 	0.95890 0.98451 0.00573 0.30500
C 	C 	0.98601 0.90662 0.89643 0.32600
O 	O 	0.88775 0.94011 0.90063 -0.42700
O 	O 	0.99078 0.88569 0.94410 -0.29800
O 	O 	0.95491 0.92023 0.89235 -0.51700
C 	C 	0.86720 0.94895 0.94810 0.29900
O 	O 	0.87425 0.93432 0.00264 -0.31900
C 	C 	0.99415 0.71922 0.87226 0.14100
N 	N 	0.99907 0.72276 0.80827 -0.13200
C 	C 	0.02151 0.70093 0.77617 0.13900
N 	N 	0.03972 0.67624 0.80839 -0.14100
C 	C 	0.03473 0.67249 0.87226 0.13500
N 	N 	0.01130 0.69348 0.90377 -0.13400
C 	C 	0.06221 0.69799 0.19600 0.14600
N 	N 	0.07247 0.66524 0.17639 -0.14400
C 	C 	0.07898 0.64017 0.22020 0.13500
N 	N 	0.07475 0.64772 0.28357 -0.14300
C 	C 	0.06462 0.68045 0.30339 0.13900
N 	N 	0.05947 0.70585 0.25960 -0.13300
Cd	Cd	0.87928 0.12136 0.73956 1.24500
Cd	Cd	0.92718 0.13240 0.88346 1.17900
O 	O 	0.82012 0.14653 0.74227 -0.30700
O 	O 	0.84007 0.11983 0.65578 -0.32900
C 	C 	0.81331 0.13424 0.68525 0.28800
O 	O 	0.93403 0.10381 0.71287 -0.35900
O 	O 	0.95038 0.09170 0.81579 -0.44200
C 	C 	0.95877 0.09701 0.75552 0.28200
C 	C 	0.90945 0.18765 0.77057 0.31100
O 	O 	0.87391 0.10461 0.86142 -0.41700
O 	O 	0.90032 0.18673 0.71017 -0.26800
O 	O 	0.89974 0.16110 0.80374 -0.54600
C 	C 	0.86884 0.07212 0.84193 0.28900
O 	O 	0.86770 0.06698 0.78008 -0.34900
Cd	Cd	0.88995 0.04070 0.50408 1.24400
Cd	Cd	0.95710 0.03781 0.38787 1.19600
O 	O 	0.83474 0.06745 0.46948 -0.29300
O 	O 	0.83911 0.04118 0.56179 -0.31500
C 	C 	0.81939 0.05793 0.52156 0.29100
O 	O 	0.93281 0.00808 0.54849 -0.37300
O 	O 	0.97699 0.03227 0.48882 -0.41000
C 	C 	0.96636 0.00973 0.53197 0.30200
C 	C 	0.88545 0.99010 0.40150 0.28600
O 	O 	0.92564 0.08444 0.43354 -0.41300
O 	O 	0.86491 0.98179 0.44875 -0.28400
O 	O 	0.90182 0.01977 0.40924 -0.51600
C 	C 	0.93295 0.10222 0.48599 0.29900
O 	O 	0.91772 0.09175 0.53805 -0.34300
C 	C 	0.67797 0.10774 0.75334 0.14500
N 	N 	0.64730 0.09429 0.73054 -0.13400
C 	C 	0.62157 0.08501 0.77184 0.13500
N 	N 	0.62696 0.08835 0.83596 -0.14200
C 	C 	0.65720 0.10251 0.85896 0.13200
N 	N 	0.68281 0.11197 0.81760 -0.13400
C 	C 	0.68187 0.05902 0.43479 0.14600
N 	N 	0.68572 0.06733 0.37223 -0.13100
C 	C 	0.65906 0.06155 0.33017 0.13500
N 	N 	0.62841 0.04760 0.35091 -0.14300
C 	C 	0.62445 0.03938 0.41352 0.13400
N 	N 	0.65125 0.04512 0.45526 -0.13900
Cd	Cd	0.08678 0.14835 0.31923 1.24500
Cd	Cd	0.06482 0.10219 0.46193 1.20900
O 	O 	0.13673 0.18860 0.33012 -0.29300
O 	O 	0.10860 0.18224 0.23936 -0.33700
C 	C 	0.13172 0.20011 0.27280 0.29500
O 	O 	0.04853 0.10710 0.28489 -0.34800
O 	O 	0.02478 0.09879 0.38364 -0.44000
C 	C 	0.03294 0.08636 0.32626 0.28600
C 	C 	0.12693 0.08916 0.35572 0.31800
O 	O 	0.06637 0.16110 0.43697 -0.41600
O 	O 	0.13473 0.09782 0.29705 -0.27000
O 	O 	0.10741 0.11127 0.38731 -0.50900
C 	C 	0.04033 0.17929 0.41464 0.30700
O 	O 	0.04183 0.18526 0.35337 -0.34300
Cd	Cd	0.06989 0.18450 0.01739 1.24500
Cd	Cd	0.05554 0.14095 0.86783 1.17700
O 	O 	0.09517 0.24345 0.01172 -0.29500
O 	O 	0.07707 0.22281 0.10339 -0.33300
C 	C 	0.09154 0.24861 0.07283 0.29400
O 	O 	0.04094 0.13456 0.04134 -0.37100
O 	O 	0.05847 0.10395 0.95058 -0.45900
C 	C 	0.03985 0.10589 0.00374 0.29700
C 	C 	0.01080 0.20383 0.94239 0.27600
O 	O 	0.10569 0.16483 0.91511 -0.41700
O 	O 	0.00794 0.21584 0.00118 -0.26300
O 	O 	0.04047 0.18884 0.92883 -0.53700
C 	C 	0.12752 0.14943 0.95356 0.28500
O 	O 	0.12200 0.15412 0.01472 -0.32800
C 	C 	0.10259 0.38482 0.02407 0.15000
N 	N 	0.10796 0.37862 0.96041 -0.14000
C 	C 	0.11210 0.40601 0.92028 0.13300
N 	N 	0.10907 0.43955 0.94354 -0.15000
C 	C 	0.10269 0.44577 0.00678 0.14200
N 	N 	0.10032 0.41841 0.04732 -0.14000
C 	C 	0.13631 0.34188 0.34287 0.14200
N 	N 	0.13809 0.34221 0.40795 -0.13500
C 	C 	0.13610 0.37328 0.44142 0.13500
N 	N 	0.13486 0.40403 0.40954 -0.14300
C 	C 	0.13344 0.40384 0.34446 0.13600
N 	N 	0.13294 0.37261 0.31143 -0.13100
Cd	Cd	0.16221 0.00123 0.72553 1.24500
Cd	Cd	0.11411 0.02338 0.86829 1.19400
O 	O 	0.20161 0.95096 0.73833 -0.29700
O 	O 	0.19720 0.97735 0.64646 -0.31300
C 	C 	0.21344 0.95398 0.68060 0.28300
O 	O 	0.12175 0.04064 0.69353 -0.35400
O 	O 	0.11433 0.06492 0.79392 -0.44000
C 	C 	0.10244 0.05866 0.73568 0.29400
C 	C 	0.10314 0.96046 0.75929 0.31200
O 	O 	0.17323 0.02028 0.84484 -0.42000
O 	O 	0.11309 0.95213 0.70098 -0.28000
O 	O 	0.12389 0.98121 0.79118 -0.52000
C 	C 	0.19260 0.04600 0.82486 0.31000
O 	O 	0.19857 0.04592 0.76332 -0.33200
Cd	Cd	0.15048 0.88678 0.52152 1.24300
Cd	Cd	0.08420 0.90263 0.40355 1.20800
O 	O 	0.20636 0.87042 0.47132 -0.29900
O 	O 	0.20282 0.88029 0.57513 -0.33900
C 	C 	0.22250 0.87220 0.52581 0.28900
O 	O 	0.10522 0.91065 0.57824 -0.35400
O 	O 	0.06387 0.89517 0.50297 -0.38400
C 	C 	0.07361 0.91469 0.55265 0.30500
C 	C 	0.14996 0.95280 0.45949 0.32200
O 	O 	0.11810 0.85391 0.42767 -0.43200
O 	O 	0.17100 0.95259 0.50858 -0.26900
O 	O 	0.13668 0.92234 0.44314 -0.49800
C 	C 	0.11029 0.82903 0.46731 0.31500
O 	O 	0.12440 0.83174 0.52402 -0.35100
C 	C 	0.34963 0.92410 0.74635 0.14400
N 	N 	0.34490 0.91568 0.80875 -0.12900
C 	C 	0.37161 0.91947 0.85142 0.13200
N 	N 	0.40307 0.93190 0.83164 -0.14200
C 	C 	0.40766 0.94122 0.76982 0.13400
N 	N 	0.38137 0.93595 0.72674 -0.13900
C 	C 	0.35811 0.87042 0.42867 0.14500
N 	N 	0.39015 0.88040 0.45080 -0.13500
C 	C 	0.41596 0.88896 0.40922 0.13500
N 	N 	0.40953 0.88785 0.34528 -0.14200
C 	C 	0.37783 0.87724 0.32271 0.13500
N 	N 	0.35240 0.86767 0.36442 -0.13500
C 	C 	0.37059 0.87814 0.25312 -0.04600
C 	C 	0.34397 0.90003 0.22795 0.11200
C 	C 	0.34000 0.90221 0.16123 -0.08500
C 	C 	0.36399 0.88576 0.11941 0.00200
C 	C 	0.39065 0.86399 0.14449 0.07300
C 	C 	0.39300 0.85967 0.21102 -0.04800
N 	N 	0.32330 0.92024 0.26713 -0.19900
H 	H 	0.31950 0.91868 0.14187 0.07000
C 	C 	0.36333 0.89486 0.05050 -0.01200
N 	N 	0.41435 0.84765 0.10527 -0.19300
H 	H 	0.41328 0.84288 0.23025 0.05500
C 	C 	0.37567 0.92799 0.03253 -0.06500
C 	C 	0.37536 0.93775 0.96810 0.09200
C 	C 	0.36570 0.91262 0.92010 -0.03500
C 	C 	0.35230 0.87986 0.93810 -0.06700
C 	C 	0.35013 0.87106 0.00309 0.09500
H 	H 	0.38466 0.94663 0.06906 0.05900
N 	N 	0.38281 0.97159 0.95295 -0.19500
H 	H 	0.34393 0.86097 0.90149 0.06900
N 	N 	0.33567 0.83978 0.01947 -0.19100
H 	H 	0.39189 0.98940 0.98804 0.09200
H 	H 	0.37738 0.98117 0.90754 0.10100
H 	H 	0.32669 0.82209 0.98409 0.09400
H 	H 	0.33255 0.83300 0.06727 0.10100
H 	H 	0.43382 0.83156 0.12429 0.09300
H 	H 	0.41394 0.85084 0.05581 0.09700
H 	H 	0.32873 0.92355 0.31582 0.10700
H 	H 	0.30258 0.93472 0.24818 0.10700
C 	C 	0.31052 0.90493 0.47955 -0.05900
C 	C 	0.32790 0.87272 0.47207 -0.02500
C 	C 	0.31398 0.84253 0.50041 0.10800
C 	C 	0.28085 0.84414 0.52949 -0.02300
C 	C 	0.26091 0.87522 0.52753 -0.07600
C 	C 	0.27690 0.90628 0.50573 0.13000
Br	Br	0.25133 0.94953 0.50120 -0.18900
H 	H 	0.32193 0.92854 0.46010 0.07200
H 	H 	0.26928 0.82038 0.54802 0.07300
Br	Br	0.33901 0.79871 0.49737 -0.20900
C 	C 	0.31065 0.96151 0.68138 -0.05800
C 	C 	0.31882 0.92811 0.70450 -0.02600
C 	C 	0.29411 0.90085 0.69781 0.10700
C 	C 	0.25976 0.90864 0.67931 -0.02800
C 	C 	0.24990 0.94351 0.66692 -0.05900
C 	C 	0.27631 0.96950 0.66316 0.13300
Br	Br	0.26560 0.01698 0.63984 -0.19700
H 	H 	0.33022 0.98215 0.68261 0.07100
H 	H 	0.23998 0.88822 0.68075 0.08300
Br	Br	0.30662 0.85304 0.71503 -0.21400
C 	C 	0.11725 0.39945 0.85052 -0.04600
C 	C 	0.14325 0.37577 0.82691 0.10800
C 	C 	0.14555 0.36865 0.76062 -0.08300
C 	C 	0.12492 0.38730 0.71720 -0.00200
C 	C 	0.10005 0.41216 0.74060 0.07400
C 	C 	0.09593 0.41733 0.80704 -0.04900
N 	N 	0.16709 0.36121 0.86694 -0.19800
H 	H 	0.16473 0.34983 0.74259 0.06600
C 	C 	0.13008 0.38109 0.64715 -0.00100
N 	N 	0.08032 0.43136 0.69975 -0.19300
H 	H 	0.07621 0.43562 0.82494 0.05400
C 	C 	0.10616 0.35969 0.61321 -0.08300
C 	C 	0.10724 0.35708 0.54592 0.11200
C 	C 	0.13474 0.37381 0.51241 -0.04700
C 	C 	0.15983 0.39357 0.54681 -0.04900
C 	C 	0.15742 0.39799 0.61370 0.07400
H 	H 	0.08540 0.34663 0.63897 0.06900
N 	N 	0.08104 0.33982 0.51400 -0.19900
H 	H 	0.18084 0.40635 0.52124 0.05400
N 	N 	0.18109 0.41885 0.64520 -0.19400
H 	H 	0.06187 0.32622 0.53924 0.10800
H 	H 	0.07826 0.34123 0.46445 0.11400
H 	H 	0.20121 0.43110 0.62010 0.09100
H 	H 	0.17969 0.42339 0.69458 0.09200
H 	H 	0.06173 0.44928 0.71750 0.09000
H 	H 	0.08358 0.42925 0.65022 0.09300
H 	H 	0.17002 0.37027 0.91416 0.10000
H 	H 	0.18474 0.34221 0.84968 0.10100
C 	C 	0.18950 0.11089 0.83394 -0.02200
C 	C 	0.19529 0.07860 0.86348 -0.09300
C 	C 	0.19182 0.07694 0.93050 0.08600
C 	C 	0.17279 0.10318 0.96320 -0.05300
C 	C 	0.15914 0.13156 0.92945 -0.07700
C 	C 	0.17146 0.13771 0.86703 0.08900
N 	N 	0.16583 0.17101 0.83759 -0.02100
H 	H 	0.19609 0.11399 0.78394 0.08300
H 	H 	0.16644 0.10013 0.01332 0.09300
N 	N 	0.20481 0.04711 0.96418 -0.02800
O 	O 	0.17170 0.20015 0.86975 -0.08100
O 	O 	0.15682 0.17219 0.77760 -0.08300
O 	O 	0.23557 0.03421 0.95052 -0.08700
O 	O 	0.18591 0.03283 0.00844 -0.09000
C 	C 	0.06396 0.30542 0.09925 -0.02000
C 	C 	0.09412 0.28433 0.10017 -0.07400
C 	C 	0.12710 0.30093 0.10061 0.13100
C 	C 	0.12971 0.33630 0.08375 -0.05500
C 	C 	0.09949 0.35507 0.06746 -0.02700
C 	C 	0.06640 0.34058 0.08080 0.11200
Br	Br	0.02429 0.36702 0.06745 -0.20600
H 	H 	0.03838 0.29335 0.10386 0.08400
H 	H 	0.15531 0.34807 0.07747 0.07000
Br	Br	0.16908 0.27399 0.11190 -0.20400
C 	C 	0.13956 0.01659 0.47257 -0.01000
C 	C 	0.13827 0.98639 0.43271 -0.09700
C 	C 	0.13290 0.99008 0.36632 0.09700
C 	C 	0.12990 0.02389 0.34085 -0.02000
C 	C 	0.13407 0.05397 0.38057 -0.10000
C 	C 	0.14008 0.05007 0.44651 0.07000
N 	N 	0.14875 0.08001 0.48653 -0.03200
H 	H 	0.14310 0.01397 0.52376 0.07000
H 	H 	0.12433 0.02669 0.29033 0.07700
N 	N 	0.13095 0.95978 0.32460 -0.03400
O 	O 	0.13308 0.08485 0.54129 -0.12800
O 	O 	0.17444 0.10061 0.47082 -0.07600
O 	O 	0.10189 0.95248 0.29457 -0.15900
O 	O 	0.15916 0.94185 0.31119 -0.09800
C 	C 	0.16867 0.28876 0.30438 -0.05700
C 	C 	0.13747 0.30824 0.30661 -0.02300
C 	C 	0.10697 0.29413 0.27805 0.10400
C 	C 	0.10691 0.25921 0.25495 -0.02600
C 	C 	0.13676 0.23794 0.26208 -0.06800
C 	C 	0.16853 0.25391 0.28104 0.14100
Br	Br	0.21148 0.22763 0.27925 -0.18600
H 	H 	0.19273 0.30023 0.32292 0.07700
H 	H 	0.08265 0.24765 0.23756 0.08000
Br	Br	0.06440 0.32102 0.27503 -0.21100
C 	C 	0.59337 0.01945 0.43406 -0.05100
C 	C 	0.55912 0.02975 0.41626 0.10800
C 	C 	0.53110 0.00642 0.42500 -0.08800
C 	C 	0.53632 0.97428 0.45549 -0.00100
C 	C 	0.56978 0.96596 0.48007 0.07000
C 	C 	0.59820 0.98825 0.46783 -0.04900
N 	N 	0.55285 0.06228 0.39275 -0.19900
H 	H 	0.50517 0.01324 0.40794 0.06100
C 	C 	0.50765 0.94800 0.45495 -0.00500
N 	N 	0.57473 0.93680 0.51567 -0.19500
H 	H 	0.62425 0.98093 0.48354 0.05500
C 	C 	0.51009 0.91852 0.41354 -0.08400
C 	C 	0.48135 0.89595 0.40446 0.10700
C 	C 	0.44890 0.90464 0.43344 -0.04700
C 	C 	0.44734 0.93231 0.47910 -0.05000
C 	C 	0.47673 0.95370 0.49109 0.07400
H 	H 	0.53434 0.91331 0.38797 0.06000
N 	N 	0.48519 0.86572 0.36903 -0.19900
H 	H 	0.42286 0.93809 0.50348 0.05900
N 	N 	0.47511 0.97956 0.53713 -0.19400
H 	H 	0.50874 0.86027 0.34527 0.09400
H 	H 	0.46559 0.84652 0.36767 0.10100
H 	H 	0.45186 0.98420 0.56236 0.09200
H 	H 	0.49712 0.99450 0.54973 0.09000
H 	H 	0.59977 0.93016 0.53175 0.09100
H 	H 	0.55364 0.92140 0.53019 0.09200
H 	H 	0.57211 0.08180 0.39370 0.10300
H 	H 	0.52781 0.06901 0.37677 0.09400
C 	C 	0.43978 0.96027 0.75133 -0.05000
C 	C 	0.43809 0.99239 0.71800 0.10800
C 	C 	0.46928 0.00939 0.70122 -0.09400
C 	C 	0.50143 0.99860 0.72669 0.00000
C 	C 	0.50321 0.96672 0.76071 0.07200
C 	C 	0.47248 0.94720 0.77036 -0.05000
N 	N 	0.40690 0.00849 0.70692 -0.20100
H 	H 	0.46806 0.03350 0.67439 0.05900
C 	C 	0.53079 0.02419 0.72876 -0.00600
N 	N 	0.53406 0.95509 0.78529 -0.19400
H 	H 	0.47386 0.92244 0.79517 0.05500
C 	C 	0.52815 0.05388 0.76959 -0.08400
C 	C 	0.55634 0.07726 0.77672 0.10700
C 	C 	0.58880 0.06889 0.74754 -0.04700
C 	C 	0.59053 0.04106 0.70222 -0.05000
C 	C 	0.56134 0.01914 0.69116 0.07100
H 	H 	0.50400 0.05888 0.79559 0.05800
N 	N 	0.55192 0.10809 0.81009 -0.19800
H 	H 	0.61496 0.03554 0.67746 0.05800
N 	N 	0.56313 0.99295 0.64582 -0.19400
H 	H 	0.52852 0.11327 0.83453 0.09100
H 	H 	0.57073 0.12803 0.80870 0.09900
H 	H 	0.58617 0.98880 0.61972 0.09200
H 	H 	0.54157 0.97693 0.63523 0.09000
H 	H 	0.53501 0.93154 0.81022 0.09100
H 	H 	0.55729 0.96923 0.78045 0.09500
H 	H 	0.38466 0.00256 0.73362 0.09900
H 	H 	0.40558 0.02996 0.67654 0.09400
C 	C 	0.66332 0.10472 0.92892 -0.03700
C 	C 	0.63771 0.11940 0.97070 0.09000
C 	C 	0.63993 0.11335 0.03669 -0.06600
C 	C 	0.66864 0.09530 0.06215 -0.01200
C 	C 	0.69616 0.08393 0.02112 0.09500
C 	C 	0.69291 0.08820 0.95467 -0.06700
N 	N 	0.61158 0.14006 0.94800 -0.19600
H 	H 	0.61940 0.12299 0.06839 0.05800
C 	C 	0.66849 0.08648 0.13114 0.00000
N 	N 	0.72569 0.06905 0.04511 -0.19600
H 	H 	0.71303 0.07779 0.92286 0.06400
C 	C 	0.66007 0.05206 0.14867 -0.08400
C 	C 	0.65902 0.04283 0.21341 0.10800
C 	C 	0.66384 0.06926 0.26161 -0.04400
C 	C 	0.67259 0.10363 0.24411 -0.04900
C 	C 	0.67564 0.11238 0.17928 0.07800
H 	H 	0.65514 0.03216 0.11172 0.06300
N 	N 	0.65465 0.00847 0.22879 -0.20000
H 	H 	0.67699 0.12368 0.28103 0.06600
N 	N 	0.68578 0.14546 0.16371 -0.19400
H 	H 	0.64939 0.98946 0.19312 0.09800
H 	H 	0.65842 0.99995 0.27546 0.10400
H 	H 	0.69024 0.16460 0.19952 0.10200
H 	H 	0.69022 0.15228 0.11628 0.10100
H 	H 	0.74543 0.05984 0.01437 0.10700
H 	H 	0.72986 0.06748 0.09436 0.10500
H 	H 	0.61185 0.14884 0.90099 0.09800
H 	H 	0.59172 0.14928 0.97848 0.08900
C 	C 	0.97545 0.17848 0.41085 -0.02500
C 	C 	0.00622 0.17868 0.44763 -0.08300
C 	C 	0.00450 0.16659 0.51090 0.07300
C 	C 	0.97685 0.14453 0.52824 -0.03600
C 	C 	0.95046 0.13650 0.48366 -0.08000
C 	C 	0.94734 0.15715 0.42863 0.10000
N 	N 	0.91645 0.15525 0.38958 -0.02000
H 	H 	0.97466 0.19192 0.36565 0.08100
H 	H 	0.97751 0.13140 0.57379 0.07600
N 	N 	0.03245 0.17373 0.55505 -0.02200
O 	O 	0.88560 0.15613 0.41606 -0.07600
O 	O 	0.91913 0.15317 0.32753 -0.08400
O 	O 	0.04535 0.20536 0.56070 -0.07200
O 	O 	0.04635 0.14821 0.58689 -0.13000
C 	C 	0.98562 0.95394 0.58305 -0.02600
C 	C 	0.99313 0.98890 0.56719 -0.05700
C 	C 	0.02835 0.00081 0.57187 0.09400
C 	C 	0.05560 0.97613 0.57933 -0.02000
C 	C 	0.04810 0.94005 0.58100 -0.07100
C 	C 	0.01304 0.92943 0.59091 0.11000
N 	N 	0.00532 0.89406 0.60992 -0.01600
H 	H 	0.95862 0.94525 0.58515 0.07600
H 	H 	0.08265 0.98475 0.57768 0.06600
N 	N 	0.03672 0.03750 0.56570 -0.01600
O 	O 	0.02843 0.87618 0.64157 -0.08200
O 	O 	0.97413 0.88098 0.60092 -0.07900
O 	O 	0.01561 0.06164 0.58829 -0.12200
O 	O 	0.06643 0.04671 0.54068 -0.20900
C 	C 	0.76362 0.09055 0.51807 -0.02700
C 	C 	0.78100 0.05836 0.52612 -0.06500
C 	C 	0.76195 0.02670 0.51911 0.13200
C 	C 	0.72782 0.02736 0.49456 -0.05900
C 	C 	0.71256 0.05937 0.47730 -0.02600
C 	C 	0.72949 0.09118 0.49364 0.10600
Br	Br	0.70669 0.13561 0.48173 -0.20700
H 	H 	0.77762 0.11510 0.52593 0.07700
H 	H 	0.71409 0.00282 0.48499 0.07200
Br	Br	0.78303 0.98209 0.53722 -0.19400
C 	C 	0.03997 0.04173 0.72584 -0.04200
C 	C 	0.06572 0.06784 0.72085 -0.09100
C 	C 	0.05540 0.10352 0.71808 0.05400
C 	C 	0.01965 0.11255 0.72356 -0.06600
C 	C 	0.99425 0.08652 0.73329 -0.08900
C 	C 	0.00452 0.05086 0.73353 0.09200
N 	N 	0.97966 0.02414 0.74810 -0.01300
H 	H 	0.04769 0.01435 0.72801 0.04000
H 	H 	0.01192 0.13993 0.72367 0.04600
N 	N 	0.08121 0.13076 0.71211 -0.02300
O 	O 	0.95240 0.01907 0.71162 -0.12200
O 	O 	0.98374 0.00561 0.79913 -0.25100
O 	O 	0.10693 0.12684 0.67172 -0.07000
O 	O 	0.07771 0.16041 0.74389 -0.17800
C 	C 	0.92628 0.22717 0.85874 -0.04400
C 	C 	0.93399 0.21360 0.79753 -0.10600
C 	C 	0.96938 0.21168 0.77901 0.08000
C 	C 	0.99526 0.20975 0.82680 -0.06300
C 	C 	0.98586 0.21401 0.89165 -0.12100
C 	C 	0.95172 0.22606 0.90690 0.06700
N 	N 	0.94237 0.23558 0.97119 -0.02400
H 	H 	0.89935 0.23315 0.87142 0.06200
H 	H 	0.02230 0.20470 0.81375 0.03300
N 	N 	0.97904 0.21325 0.71255 -0.02600
O 	O 	0.94966 0.26692 0.99381 -0.07800
O 	O 	0.92363 0.21422 0.00489 -0.12000
O 	O 	0.95777 0.22735 0.67166 -0.07400
O 	O 	0.01070 0.20504 0.69458 -0.08800
C 	C 	0.75165 0.14975 0.66417 -0.02400
C 	C 	0.77715 0.12332 0.67021 -0.08000
C 	C 	0.76614 0.08893 0.68517 0.13000
C 	C 	0.73152 0.08298 0.70381 -0.06100
C 	C 	0.70810 0.11113 0.71014 -0.02400
C 	C 	0.71732 0.14405 0.68565 0.10700
Br	Br	0.68414 0.18199 0.68486 -0.20500
H 	H 	0.75936 0.17582 0.64953 0.07400
H 	H 	0.72385 0.05706 0.71943 0.07500
Br	Br	0.79891 0.05097 0.69065 -0.21400
C 	C 	0.12871 0.43748 0.31044 -0.04400
C 	C 	0.14187 0.44223 0.24760 0.10800
C 	C 	0.13240 0.47251 0.21415 -0.08400
C 	C 	0.11509 0.50047 0.24562 -0.00200
C 	C 	0.10366 0.49664 0.30963 0.07700
C 	C 	0.10948 0.46473 0.34043 -0.05000
N 	N 	0.16552 0.41940 0.22121 -0.19700
H 	H 	0.14116 0.47556 0.16521 0.05900
C 	C 	0.11062 0.53432 0.21262 -0.00400
N 	N 	0.08722 0.52348 0.34188 -0.19400
H 	H 	0.09915 0.46122 0.38819 0.05700
C 	C 	0.07751 0.54283 0.18822 -0.08400
C 	C 	0.06768 0.57825 0.18176 0.10200
C 	C 	0.09163 0.60514 0.19960 -0.05200
C 	C 	0.12659 0.59631 0.21206 -0.05200
C 	C 	0.13641 0.56096 0.21868 0.07400
H 	H 	0.05842 0.52212 0.17951 0.06200
N 	N 	0.03510 0.58623 0.16001 -0.20000
H 	H 	0.14555 0.61705 0.22162 0.05700
N 	N 	0.17016 0.55288 0.23326 -0.19400
H 	H 	0.01709 0.56624 0.14919 0.09200
H 	H 	0.02784 0.61220 0.15129 0.09800
H 	H 	0.18876 0.57283 0.24002 0.09200
H 	H 	0.17852 0.52679 0.23602 0.09200
H 	H 	0.07845 0.52012 0.38873 0.09000
H 	H 	0.08352 0.54806 0.32157 0.09500
H 	H 	0.18015 0.40255 0.24962 0.10300
H 	H 	0.17217 0.42097 0.17282 0.09500
C 	C 	0.05245 0.64359 0.90598 -0.04200
C 	C 	0.06500 0.64817 0.96953 0.09400
C 	C 	0.07449 0.61846 0.00449 -0.05800
C 	C 	0.07624 0.58513 0.97444 -0.03100
C 	C 	0.06798 0.58137 0.90848 0.08300
C 	C 	0.05497 0.61038 0.87556 -0.05800
N 	N 	0.07015 0.68090 0.99554 -0.20400
H 	H 	0.08173 0.62147 0.05451 0.05700
C 	C 	0.08361 0.55382 0.01316 0.01400
N 	N 	0.07236 0.55000 0.87665 -0.19600
H 	H 	0.04641 0.60696 0.82630 0.05500
C 	C 	0.05581 0.53121 0.02737 -0.09300
C 	C 	0.06203 0.49522 0.03605 0.11100
C 	C 	0.09660 0.48207 0.03022 -0.05600
C 	C 	0.12466 0.50589 0.02970 -0.04900
C 	C 	0.11841 0.54197 0.02150 0.06900
H 	H 	0.02913 0.54100 0.02607 0.06300
N 	N 	0.03475 0.47334 0.04801 -0.20300
H 	H 	0.15134 0.49606 0.03032 0.04900
N 	N 	0.14580 0.56478 0.01954 -0.19200
H 	H 	0.00911 0.48302 0.04949 0.10100
H 	H 	0.03887 0.44699 0.05878 0.12000
H 	H 	0.17153 0.55566 0.02378 0.09200
H 	H 	0.14175 0.59187 0.01618 0.09700
H 	H 	0.06493 0.54715 0.82864 0.08800
H 	H 	0.08431 0.52858 0.89828 0.09200
H 	H 	0.06886 0.70330 0.96759 0.11900
H 	H 	0.07869 0.68397 0.04284 0.11400
C 	C 	0.02521 0.70309 0.70612 -0.04400
C 	C 	0.01185 0.67617 0.66497 0.10700
C 	C 	0.02056 0.67596 0.59967 -0.08200
C 	C 	0.04188 0.70237 0.57461 -0.00400
C 	C 	0.05435 0.72995 0.61539 0.08200
C 	C 	0.04538 0.73029 0.68069 -0.04900
N 	N 	0.99030 0.65076 0.68764 -0.20000
H 	H 	0.01064 0.65517 0.56815 0.05900
C 	C 	0.05032 0.70108 0.50519 -0.00000
N 	N 	0.07577 0.75543 0.59273 -0.19500
H 	H 	0.05539 0.75100 0.71228 0.06800
C 	C 	0.02535 0.71312 0.46152 -0.08200
C 	C 	0.02859 0.70526 0.39572 0.10900
C 	C 	0.05938 0.68829 0.37255 -0.04300
C 	C 	0.08539 0.67820 0.41606 -0.04200
C 	C 	0.08099 0.68399 0.48224 0.07800
H 	H 	0.00210 0.72656 0.47922 0.06900
N 	N 	0.00140 0.71243 0.35588 -0.19700
H 	H 	0.10911 0.66562 0.39840 0.06000
N 	N 	0.10630 0.67318 0.52333 -0.19300
H 	H 	0.98032 0.72776 0.37218 0.10100
H 	H 	0.99951 0.70071 0.31037 0.10100
H 	H 	0.12868 0.66029 0.50598 0.09500
H 	H 	0.10431 0.67779 0.57262 0.09600
H 	H 	0.08376 0.77641 0.62249 0.10900
H 	H 	0.08564 0.75405 0.54621 0.11100
H 	H 	0.98136 0.65151 0.73487 0.09800
H 	H 	0.98137 0.63041 0.65733 0.09200
C 	C 	0.01853 0.00928 0.02084 -0.03100
C 	C 	0.98263 0.01132 0.03465 -0.08500
C 	C 	0.96878 0.04375 0.05781 0.11300
C 	C 	0.98794 0.07501 0.04872 -0.03400
C 	C 	0.02260 0.07345 0.02671 -0.07500
C 	C 	0.03905 0.04014 0.01936 0.08300
N 	N 	0.07655 0.03747 0.01426 -0.01900
H 	H 	0.03014 0.98401 0.00824 0.05900
H 	H 	0.97586 0.10039 0.05853 0.06300
N 	N 	0.93619 0.04485 0.09269 -0.01500
O 	O 	0.09651 0.05964 0.04566 -0.09500
O 	O 	0.09063 0.01028 0.98538 -0.22600
O 	O 	0.92179 0.01584 0.11153 -0.08600
O 	O 	0.92314 0.07491 0.11206 -0.06900
C 	C 	0.86049 0.01126 0.97994 -0.04700
C 	C 	0.84744 0.98195 0.94562 -0.08400
C 	C 	0.82715 0.98796 0.89078 0.09100
C 	C 	0.83075 0.02001 0.85956 -0.04200
C 	C 	0.85329 0.04604 0.88488 -0.09000
C 	C 	0.86494 0.04319 0.94855 0.08600
N 	N 	0.88288 0.07169 0.97987 -0.01700
H 	H 	0.87186 0.00790 0.02686 0.09800
H 	H 	0.81774 0.02384 0.81435 0.08800
N 	N 	0.80642 0.96011 0.86268 -0.02300
O 	O 	0.86608 0.09254 0.01939 -0.09400
O 	O 	0.91552 0.07793 0.96638 -0.21800
O 	O 	0.78994 0.93826 0.89912 -0.08600
O 	O 	0.80404 0.95656 0.80073 -0.08700
C 	C 	0.04872 0.92198 0.88948 -0.02000
C 	C 	0.01582 0.91956 0.85973 -0.11600
C 	C 	0.01264 0.92644 0.79403 0.09000
C 	C 	0.04153 0.93956 0.76081 -0.01800
C 	C 	0.07430 0.94233 0.79093 -0.10500
C 	C 	0.07822 0.93137 0.85449 0.07500
N 	N 	0.11237 0.92816 0.88251 -0.02800
H 	H 	0.05159 0.91531 0.93941 0.06900
H 	H 	0.03837 0.94804 0.71218 0.06800
N 	N 	0.98109 0.91765 0.76007 -0.03100
O 	O 	0.11838 0.94100 0.93971 -0.12000
O 	O 	0.13655 0.90989 0.85305 -0.08100
O 	O 	0.96471 0.94151 0.72789 -0.13700
O 	O 	0.96994 0.88526 0.75813 -0.08100
C 	C 	0.97475 0.80178 0.96925 -0.03100
C 	C 	0.93802 0.80095 0.97269 -0.06300
C 	C 	0.91993 0.77166 0.94638 0.13900
C 	C 	0.93851 0.74455 0.91476 -0.05400
C 	C 	0.97506 0.74652 0.90888 -0.02300
C 	C 	0.99323 0.77496 0.93739 0.10700
Br	Br	0.04323 0.77888 0.92978 -0.21700
H 	H 	0.98891 0.82430 0.98838 0.08200
H 	H 	0.92447 0.72228 0.89398 0.07600
Br	Br	0.86991 0.76827 0.95342 -0.19200
C 	C 	0.03361 0.02449 0.36286 -0.07300
C 	C 	0.02958 0.04787 0.31263 -0.13900
C 	C 	0.02033 0.03460 0.25144 0.10100
C 	C 	0.01255 0.99852 0.24233 -0.04200
C 	C 	0.01387 0.97540 0.29418 -0.09200
C 	C 	0.02527 0.98877 0.35479 0.03600
N 	N 	0.02965 0.96620 0.40786 -0.02200
H 	H 	0.04251 0.03420 0.40929 0.01200
H 	H 	0.00443 0.98885 0.19541 0.07900
N 	N 	0.01889 0.05754 0.19845 -0.02100
O 	O 	0.06032 0.96397 0.43444 -0.21800
O 	O 	0.00221 0.95593 0.43913 -0.17200
O 	O 	0.04661 0.06153 0.16327 -0.07700
O 	O 	0.99280 0.07935 0.19341 -0.08600
C 	C 	0.90704 0.96175 0.23248 -0.02800
C 	C 	0.89344 0.92746 0.23255 -0.11800
C 	C 	0.86715 0.91939 0.27714 0.07500
C 	C 	0.86271 0.94123 0.33147 -0.06000
C 	C 	0.88192 0.97263 0.33772 -0.10600
C 	C 	0.90006 0.98509 0.28387 0.05800
N 	N 	0.90767 0.02182 0.27803 -0.03700
H 	H 	0.92582 0.96897 0.19630 0.07200
H 	H 	0.84541 0.93316 0.36953 0.07300
N 	N 	0.84809 0.88692 0.27120 -0.02500
O 	O 	0.93800 0.03172 0.25666 -0.17600
O 	O 	0.88286 0.04500 0.28627 -0.08500
O 	O 	0.84182 0.86836 0.32154 -0.12100
O 	O 	0.83717 0.87580 0.21530 -0.07800
C 	C 	0.04960 0.79090 0.35741 -0.03000
C 	C 	0.02240 0.81380 0.37619 -0.09600
C 	C 	0.01902 0.82285 0.44154 0.08000
C 	C 	0.04772 0.81794 0.48214 -0.03600
C 	C 	0.07964 0.80683 0.45546 -0.10000
C 	C 	0.07857 0.78699 0.39793 0.09200
N 	N 	0.10860 0.76702 0.37710 -0.02300
H 	H 	0.05001 0.77961 0.30930 0.07400
H 	H 	0.04689 0.82823 0.53091 0.08100
N 	N 	0.98876 0.84125 0.46450 -0.02200
O 	O 	0.12920 0.75283 0.41899 -0.10100
O 	O 	0.11551 0.76317 0.31636 -0.08600
O 	O 	0.96174 0.82376 0.48439 -0.11700
O 	O 	0.98762 0.87545 0.46300 -0.18500
C 	C 	0.01171 0.71798 0.13253 -0.05300
C 	C 	0.04695 0.72209 0.14968 -0.03700
C 	C 	0.06467 0.75302 0.13328 0.10600
C 	C 	0.04571 0.78162 0.10998 -0.03000
C 	C 	0.00889 0.78006 0.10668 -0.06900
C 	C 	0.99247 0.74682 0.11129 0.12400
Br	Br	0.94321 0.74100 0.09586 -0.19600
H 	H 	0.99847 0.69329 0.14118 0.06500
H 	H 	0.05920 0.80608 0.10076 0.08400
Br	Br	0.11435 0.75714 0.14515 -0.20200
