data_crystal

_cell_length_a 35.72956
_cell_length_b 32.23502
_cell_length_c 35.17202
_cell_angle_alpha 89.29072
_cell_angle_beta  92.55498
_cell_angle_gamma 100.84275

_symmetry_space_group_name_	'P 1'
_symmetry_space_group_name_H-M	'P 1'

loop_
_symmetry_equiv_pos_as_xyz
  x,y,z

loop_
_atom_site_label
_atom_site_type_symbol
_atom_site_fract_x
_atom_site_fract_y
_atom_site_fract_z
_atom_site_charge
O 	O 	0.03418 0.02668 0.02830 -0.70000
Ni	Ni	0.04143 0.00828 0.97469 1.10200
O 	O 	0.01033 0.98180 0.10303 -0.38300
Ni	Ni	0.05228 0.98616 0.06319 1.07800
O 	O 	0.01493 0.93777 0.03840 -0.41000
O 	O 	0.09940 0.01705 0.97888 -0.36100
O 	O 	0.04229 0.99548 0.91744 -0.34300
H 	H 	0.04786 0.05586 0.03322 0.17200
C 	C 	0.02378 0.92028 0.00781 0.30300
C 	C 	0.11647 0.00329 0.00920 0.28400
C 	C 	0.01723 0.00605 0.89242 0.28400
O 	O 	0.04000 0.94397 0.98026 -0.35400
O 	O 	0.09681 0.97548 0.03221 -0.38700
O 	O 	0.00478 0.98965 0.52616 -0.69700
Ni	Ni	0.00248 0.96851 0.47249 1.10500
Ni	Ni	0.03430 0.95655 0.55781 1.07800
O 	O 	0.02853 0.90063 0.52891 -0.37900
O 	O 	0.05729 0.95760 0.46717 -0.35300
H 	H 	0.01859 0.01928 0.52649 0.16600
C 	C 	0.08565 0.96618 0.49334 0.29800
O 	O 	0.08048 0.98001 0.52759 -0.40200
O 	O 	0.03839 0.52607 0.02633 -0.69900
Ni	Ni	0.04920 0.50886 0.97391 1.10500
O 	O 	0.01804 0.46364 0.08643 -0.39800
Ni	Ni	0.06697 0.49778 0.06350 1.07800
O 	O 	0.07528 0.44571 0.03451 -0.38300
O 	O 	0.10703 0.50887 0.97954 -0.35400
O 	O 	0.05051 0.49987 0.91631 -0.34700
H 	H 	0.04783 0.55681 0.02887 0.16800
C 	C 	0.04994 0.42509 0.01017 0.30200
C 	C 	0.12922 0.52111 0.01026 0.29800
C 	C 	0.03051 0.51978 0.89241 0.28300
O 	O 	0.03682 0.44472 0.98112 -0.37200
O 	O 	0.11519 0.53131 0.04227 -0.40000
O 	O 	0.01758 0.49554 0.52337 -0.70100
Ni	Ni	0.02070 0.47776 0.46873 1.10200
O 	O 	0.01074 0.45274 0.60077 -0.38700
Ni	Ni	0.04576 0.46009 0.55471 1.07500
O 	O 	0.01027 0.40699 0.53568 -0.41000
O 	O 	0.07826 0.49446 0.46566 -0.36500
O 	O 	0.01561 0.46422 0.41156 -0.34700
H 	H 	0.02785 0.52597 0.52702 0.17200
C 	C 	0.01538 0.39059 0.50312 0.29900
C 	C 	0.10089 0.48096 0.49154 0.29000
O 	O 	0.02656 0.41519 0.47410 -0.35300
O 	O 	0.08649 0.45314 0.51741 -0.39400
C 	C 	0.19473 0.44817 0.47412 -0.03600
C 	C 	0.22043 0.48672 0.47980 0.02300
C 	C 	0.20642 0.52445 0.48414 -0.03400
C 	C 	0.16690 0.52298 0.48652 0.02000
C 	C 	0.14139 0.48399 0.48312 -0.06900
C 	C 	0.15520 0.44713 0.47434 0.02700
C 	C 	0.23274 0.56457 0.48664 0.10600
C 	C 	0.12867 0.40836 0.46490 0.10400
C 	C 	0.20904 0.40950 0.46886 0.10600
C 	C 	0.15256 0.56133 0.49325 0.08200
N 	N 	0.14109 0.59192 0.49862 -0.10100
N 	N 	0.10753 0.37745 0.45735 -0.09200
C 	C 	0.25048 0.52897 0.00870 0.02300
C 	C 	0.23196 0.55171 0.98165 -0.03400
C 	C 	0.19220 0.54932 0.98217 0.02800
C 	C 	0.17074 0.52291 0.00888 -0.07100
C 	C 	0.18921 0.49897 0.03503 0.02700
C 	C 	0.22910 0.50273 0.03544 -0.03500
C 	C 	0.25391 0.57761 0.95338 0.10800
C 	C 	0.16710 0.46995 0.06111 0.08400
C 	C 	0.17354 0.57496 0.95605 0.09600
C 	C 	0.24827 0.47971 0.06348 0.10600
N 	N 	0.15865 0.59542 0.93524 -0.09400
N 	N 	0.14959 0.44678 0.08198 -0.10900
C 	C 	0.04398 0.51150 0.78704 -0.04000
C 	C 	0.05278 0.51721 0.82632 0.02900
C 	C 	0.02387 0.50602 0.85257 -0.07200
C 	C 	0.07393 0.52096 0.76001 0.10800
C 	C 	0.09143 0.53477 0.83971 0.09700
N 	N 	0.12226 0.54877 0.85041 -0.09100
N 	N 	0.09780 0.52851 0.73840 -0.10500
C 	C 	0.02590 0.47765 0.32763 0.03100
C 	C 	0.02520 0.47526 0.28760 -0.03000
C 	C 	0.06205 0.48987 0.34876 0.10000
C 	C 	0.06062 0.48152 0.26785 0.10500
N 	N 	0.09090 0.49961 0.36558 -0.09200
N 	N 	0.08885 0.48651 0.25205 -0.10500
C 	C 	0.00511 0.77141 0.48332 -0.03000
C 	C 	0.01071 0.81584 0.48256 0.03400
C 	C 	0.02695 0.74949 0.45927 0.10700
C 	C 	0.02525 0.61755 0.54693 0.09100
C 	C 	0.02665 0.70594 0.55611 0.11500
C 	C 	0.03843 0.83977 0.45781 0.09900
N 	N 	0.04826 0.60204 0.56268 -0.11800
N 	N 	0.04924 0.72575 0.57650 -0.10000
N 	N 	0.04435 0.73195 0.44012 -0.10000
N 	N 	0.06052 0.85887 0.43808 -0.09000
C 	C 	0.03089 0.18673 0.50048 -0.04000
C 	C 	0.02387 0.14258 0.50534 0.03400
C 	C 	0.01206 0.25724 0.50894 0.02800
C 	C 	0.06313 0.20733 0.47924 0.10900
C 	C 	0.03836 0.28464 0.53244 -0.03500
C 	C 	0.04188 0.32863 0.52815 0.02900
C 	C 	0.01750 0.34530 0.50179 -0.06600
C 	C 	0.06129 0.26749 0.56152 0.10700
C 	C 	0.07083 0.35672 0.55058 0.08400
C 	C 	0.05157 0.11811 0.49385 0.08200
N 	N 	0.09397 0.37896 0.56857 -0.11600
N 	N 	0.07957 0.25375 0.58470 -0.10100
N 	N 	0.08885 0.22381 0.46230 -0.09900
N 	N 	0.07367 0.09855 0.48474 -0.10500
C 	C 	0.20314 0.96300 0.47837 0.02400
C 	C 	0.18031 0.92959 0.49763 -0.03500
C 	C 	0.14102 0.92899 0.50050 0.02400
C 	C 	0.12445 0.96159 0.48361 -0.06800
C 	C 	0.14649 0.99230 0.46074 0.02700
C 	C 	0.18596 0.99328 0.45845 -0.03400
C 	C 	0.19749 0.89632 0.51515 0.10600
C 	C 	0.12867 0.02312 0.44002 0.09400
C 	C 	0.11777 0.89499 0.52100 0.08500
C 	C 	0.20906 0.02583 0.43628 0.10600
N 	N 	0.09953 0.86767 0.53743 -0.09800
N 	N 	0.11444 0.04769 0.42343 -0.09500
C 	C 	0.04561 0.71973 0.00986 -0.03400
C 	C 	0.04120 0.67544 0.01165 0.02100
C 	C 	0.01841 0.78602 0.01269 0.02100
C 	C 	0.07414 0.65545 0.00899 0.08200
C 	C 	0.02404 0.87441 0.00826 -0.07700
C 	C 	0.03989 0.85585 0.04033 0.03000
C 	C 	0.03533 0.81166 0.04329 -0.03500
C 	C 	0.06199 0.88223 0.06964 0.08000
C 	C 	0.04774 0.79245 0.07798 0.10800
C 	C 	0.08223 0.74524 0.00129 0.10500
N 	N 	0.07962 0.90317 0.09309 -0.12200
N 	N 	0.05763 0.77709 0.10563 -0.10000
N 	N 	0.10040 0.63949 0.00686 -0.10900
N 	N 	0.11144 0.76563 0.99445 -0.09800
C 	C 	0.03700 0.21746 0.03387 -0.03300
C 	C 	0.03124 0.17330 0.02926 0.02000
C 	C 	0.03022 0.28956 0.00957 0.02100
C 	C 	0.05819 0.23707 0.06717 0.10800
C 	C 	0.04330 0.37858 0.01009 -0.07600
C 	C 	0.07248 0.35740 0.99978 0.03000
C 	C 	0.06563 0.31292 0.99866 -0.03400
C 	C 	0.10921 0.38143 0.98948 0.10000
C 	C 	0.09473 0.29115 0.98576 0.10700
C 	C 	0.05113 0.14822 0.05473 0.08600
N 	N 	0.13849 0.40063 0.98127 -0.09300
N 	N 	0.11792 0.27373 0.97547 -0.10100
N 	N 	0.07510 0.25276 0.09372 -0.09900
N 	N 	0.06719 0.12839 0.07505 -0.11300
C 	C 	0.21921 0.02785 0.04784 -0.03400
C 	C 	0.23889 0.01694 0.01667 0.02300
C 	C 	0.21836 0.00145 0.98296 -0.03700
C 	C 	0.17820 0.99575 0.98085 0.03000
C 	C 	0.15867 0.00886 0.01127 -0.07200
C 	C 	0.17933 0.02515 0.04469 0.02100
C 	C 	0.23861 0.99149 0.95047 0.10600
C 	C 	0.15958 0.03965 0.07563 0.06700
C 	C 	0.24004 0.04171 0.08317 0.10600
C 	C 	0.15694 0.97445 0.94829 0.10400
N 	N 	0.13998 0.95738 0.92237 -0.08800
N 	N 	0.14379 0.05121 0.10028 -0.11900
C 	C 	0.03870 0.98083 0.79144 -0.03800
C 	C 	0.04448 0.99125 0.83040 0.02800
C 	C 	0.01290 0.98718 0.85390 -0.06400
C 	C 	0.07110 0.98292 0.76762 0.10700
C 	C 	0.08258 0.00808 0.84576 0.10200
N 	N 	0.00327 0.07050 0.63080 -0.09500
N 	N 	0.00942 0.07695 0.74506 -0.10200
N 	N 	0.09693 0.98459 0.74856 -0.10500
N 	N 	0.11300 0.02157 0.85795 -0.09100
C 	C 	0.00470 0.97669 0.33098 0.03100
C 	C 	0.00311 0.98106 0.29099 -0.03100
C 	C 	0.03974 0.97016 0.35055 0.10000
C 	C 	0.03568 0.97652 0.26931 0.10700
N 	N 	0.06771 0.96492 0.36613 -0.09000
N 	N 	0.06164 0.97291 0.25196 -0.10200
N 	N 	0.21124 0.86981 0.52912 -0.10100
N 	N 	0.22051 0.37867 0.46467 -0.10100
C 	C 	0.01416 0.73923 0.01569 0.02900
C 	C 	0.02205 0.24260 0.00614 0.02800
N 	N 	0.00509 0.59035 0.13605 -0.09400
N 	N 	0.02244 0.11785 0.14990 -0.09400
N 	N 	0.01031 0.10089 0.26263 -0.09400
C 	C 	0.40375 0.03804 0.01278 0.28300
C 	C 	0.36771 0.98490 0.49054 0.28900
C 	C 	0.41400 0.54600 0.00645 0.28600
C 	C 	0.38358 0.49371 0.49160 0.28900
N 	N 	0.42872 0.55311 0.13428 -0.09100
N 	N 	0.38805 0.59114 0.54553 -0.09200
C 	C 	0.26226 0.48726 0.48303 0.02400
C 	C 	0.28291 0.48596 0.44998 -0.03500
C 	C 	0.32204 0.48436 0.45314 0.02200
C 	C 	0.34139 0.48774 0.48920 -0.07200
C 	C 	0.32064 0.48924 0.52238 0.02800
C 	C 	0.28096 0.48776 0.51924 -0.03600
C 	C 	0.26388 0.48657 0.41273 0.10600
C 	C 	0.34014 0.49350 0.55962 0.10600
C 	C 	0.34229 0.47839 0.41938 0.06500
C 	C 	0.25928 0.48685 0.55325 0.10600
N 	N 	0.35846 0.47363 0.39246 -0.12300
N 	N 	0.24866 0.48706 0.38303 -0.10000
N 	N 	0.35564 0.49688 0.58934 -0.08800
N 	N 	0.24194 0.48612 0.58034 -0.10400
N 	N 	0.25379 0.59656 0.48863 -0.10000
C 	C 	0.31645 0.56616 0.02897 -0.03600
C 	C 	0.29268 0.53272 0.00914 0.02200
C 	C 	0.30882 0.50216 0.99064 -0.03300
C 	C 	0.34867 0.50512 0.99189 0.02100
C 	C 	0.37247 0.53968 0.01006 -0.07500
C 	C 	0.35637 0.56987 0.02911 0.02900
C 	C 	0.28436 0.46786 0.97019 0.10700
C 	C 	0.38093 0.60489 0.04856 0.10300
C 	C 	0.29975 0.59671 0.04910 0.10700
C 	C 	0.36524 0.47233 0.97497 0.06800
N 	N 	0.27146 0.59827 0.93084 -0.10000
N 	N 	0.26360 0.46137 0.08582 -0.10100
N 	N 	0.26480 0.44051 0.95390 -0.09800
N 	N 	0.37849 0.44614 0.96156 -0.10600
N 	N 	0.40056 0.63281 0.06405 -0.09000
N 	N 	0.28637 0.62106 0.06515 -0.10100
C 	C 	0.26517 0.94977 0.45455 -0.03400
C 	C 	0.24552 0.96817 0.48172 0.02300
C 	C 	0.26581 0.99012 0.51298 -0.03500
C 	C 	0.30573 0.99394 0.51694 0.02900
C 	C 	0.32555 0.97648 0.48919 -0.07200
C 	C 	0.30514 0.95380 0.45835 0.02100
C 	C 	0.24552 0.00889 0.54097 0.10600
C 	C 	0.32527 0.93416 0.43080 0.06400
C 	C 	0.24420 0.92672 0.42272 0.10600
C 	C 	0.32642 0.01617 0.54936 0.10600
N 	N 	0.22754 0.05180 0.41859 -0.10100
N 	N 	0.22928 0.02384 0.56327 -0.10300
N 	N 	0.34290 0.03389 0.57523 -0.08800
N 	N 	0.34137 0.91852 0.40885 -0.11800
N 	N 	0.22743 0.90835 0.39733 -0.09900
C 	C 	0.28149 0.02277 0.01899 0.02100
C 	C 	0.29940 0.98781 0.02598 -0.03300
C 	C 	0.33950 0.99276 0.02525 0.01900
C 	C 	0.36200 0.03328 0.01920 -0.06800
C 	C 	0.34394 0.06893 0.01667 0.01900
C 	C 	0.30382 0.06328 0.01423 -0.03500
C 	C 	0.27649 0.94670 0.03375 0.10600
C 	C 	0.36637 0.11138 0.01850 0.10100
C 	C 	0.35739 0.95623 0.03096 0.09300
C 	C 	0.28547 0.09917 0.00650 0.10300
N 	N 	0.37153 0.92699 0.03569 -0.09600
N 	N 	0.25818 0.91391 0.03994 -0.10000
N 	N 	0.38407 0.14536 0.01982 -0.09800
N 	N 	0.27078 0.12777 0.00035 -0.10200
N 	N 	0.25481 0.98354 0.92456 -0.10500
N 	N 	0.25670 0.05277 0.11133 -0.09900
N 	N 	0.37022 0.10302 0.50687 -0.09300
N 	N 	0.37336 0.96922 0.64171 -0.09200
N 	N 	0.38840 0.47560 0.76482 -0.10000
N 	N 	0.40810 0.47860 0.87841 -0.11800
C 	C 	0.00601 0.21078 0.51567 0.03100
O 	O 	0.42037 0.06978 0.99171 -0.39600
O 	O 	0.38554 0.01214 0.46597 -0.39200
O 	O 	0.42953 0.57037 0.97876 -0.38900
O 	O 	0.40340 0.52561 0.47283 -0.39300
N 	N 	0.40122 0.71645 0.55942 -0.10100
O 	O 	0.42483 0.01768 0.03509 -0.36100
O 	O 	0.38619 0.97437 0.52131 -0.36300
O 	O 	0.43541 0.53646 0.03542 -0.36100
O 	O 	0.40046 0.47423 0.51858 -0.36400
C 	C 	0.41923 0.47892 0.77760 0.10600
C 	C 	0.43333 0.48218 0.85836 0.06600
N 	N 	0.43485 0.54567 0.24858 -0.10400
C 	C 	0.41639 0.61274 0.53779 0.10300
C 	C 	0.40111 0.12056 0.50253 0.10000
N 	N 	0.39613 0.22957 0.51537 -0.10200
N 	N 	0.42293 0.89916 0.97583 -0.10900
N 	N 	0.41873 0.77436 0.99529 -0.09900
N 	N 	0.44100 0.63395 0.90644 -0.12300
C 	C 	0.40298 0.98594 0.65369 0.10300
N 	N 	0.38836 0.00127 0.75253 -0.10500
N 	N 	0.46420 0.86860 0.35637 -0.09400
N 	N 	0.41377 0.99890 0.13145 -0.09000
N 	N 	0.41926 0.99702 0.24579 -0.10400
N 	N 	0.42927 0.36932 0.63802 -0.09500
C 	C 	0.45782 0.55320 0.15016 0.10100
C 	C 	0.42519 0.70210 0.54661 0.10600
C 	C 	0.41902 0.21075 0.50690 0.10500
C 	C 	0.44660 0.79570 0.98593 0.10700
C 	C 	0.46186 0.65690 0.92609 0.08000
N 	N 	0.46365 0.75820 0.88212 -0.10000
N 	N 	0.44315 0.13946 0.09176 -0.08900
N 	N 	0.44901 0.26515 0.08357 -0.10000
N 	N 	0.45562 0.26458 0.94503 -0.10200
C 	C 	0.41382 0.00780 0.73270 0.10500
C 	C 	0.44264 0.99874 0.14769 0.10100
N 	N 	0.47822 0.87726 0.24334 -0.10000
C 	C 	0.47768 0.90056 0.34293 0.08900
C 	C 	0.46203 0.54735 0.23149 0.10500
N 	N 	0.44442 0.36323 0.40814 -0.10500
Ni	Ni	0.45779 0.06530 0.95041 1.07200
H 	H 	0.46906 0.99181 0.96399 0.16700
Ni	Ni	0.43046 0.00222 0.43539 1.07400
H 	H 	0.44021 0.93596 0.46938 0.17200
Ni	Ni	0.46633 0.55276 0.94199 1.07800
H 	H 	0.47326 0.48557 0.97641 0.17300
Ni	Ni	0.44844 0.52132 0.44002 1.07500
H 	H 	0.45324 0.44732 0.45923 0.17100
C 	C 	0.45788 0.48308 0.79358 -0.03400
C 	C 	0.44389 0.40078 0.65218 0.10000
N 	N 	0.45398 0.37410 0.75105 -0.10000
N 	N 	0.42704 0.85144 0.43555 -0.10900
N 	N 	0.43255 0.72771 0.43201 -0.10300
C 	C 	0.43975 0.14269 0.49696 0.02500
N 	N 	0.44286 0.23849 0.39572 -0.10100
C 	C 	0.47632 0.74548 0.90977 0.10800
C 	C 	0.45001 0.88460 0.97385 0.08200
C 	C 	0.46405 0.15925 0.07130 0.10600
C 	C 	0.46899 0.24883 0.06640 0.10700
N 	N 	0.45864 0.38994 0.93779 -0.10300
C 	C 	0.48754 0.90668 0.26245 0.10600
C 	C 	0.44616 0.99575 0.22901 0.10600
C 	C 	0.44010 0.00685 0.66872 0.02700
Ni	Ni	0.44417 0.98761 0.52479 1.10100
O 	O 	0.44304 0.00455 0.58091 -0.34800
O 	O 	0.44197 0.05034 0.51411 -0.35900
O 	O 	0.45199 0.96612 0.47252 -0.70300
C 	C 	0.46496 0.48672 0.83321 0.02300
C 	C 	0.46004 0.40449 0.73271 0.10600
C 	C 	0.44641 0.83733 0.45741 0.08500
C 	C 	0.45182 0.63998 0.52807 0.02500
C 	C 	0.44911 0.74903 0.45579 0.10600
C 	C 	0.44776 0.18721 0.49627 -0.03600
C 	C 	0.45828 0.25639 0.42201 0.10700
C 	C 	0.46090 0.34540 0.42990 0.08800
C 	C 	0.47822 0.37658 0.95998 0.08800
C 	C 	0.47578 0.28738 0.96538 0.10700
C 	C 	0.44576 0.01599 0.70791 -0.03600
Ni	Ni	0.45833 0.48410 0.52377 1.10200
O 	O 	0.45508 0.48637 0.58199 -0.34700
C 	C 	0.46221 0.44022 0.66993 0.02500
C 	C 	0.45527 0.68418 0.53052 -0.03600
C 	C 	0.48799 0.68576 0.95067 0.02800
C 	C 	0.47881 0.99851 0.16810 0.02800
Ni	Ni	0.48244 0.02667 0.02972 1.10000
O 	O 	0.48236 0.02020 0.97235 -0.70000
O 	O 	0.48844 0.51463 0.97674 -0.69800
O 	O 	0.45899 0.54825 0.52743 -0.35700
O 	O 	0.46654 0.47546 0.46822 -0.70200
C 	C 	0.46763 0.44260 0.70977 -0.03600
C 	C 	0.48155 0.82240 0.97420 -0.03500
N 	N 	0.48623 0.92697 0.75503 -0.10100
C 	C 	0.47991 0.99415 0.20804 -0.03600
O 	O 	0.01789 0.55333 0.90333 -0.38700
Ni	Ni	0.49230 0.54104 0.02932 1.10100
O 	O 	0.48509 0.09095 0.03514 -0.35900
O 	O 	0.47150 0.00581 0.39468 -0.39300
O 	O 	0.46466 0.05598 0.45449 -0.40500
C 	C 	0.45978 0.07319 0.48684 0.29400
O 	O 	0.49551 0.60495 0.01813 -0.35500
C 	C 	0.49425 0.55332 0.17011 0.02600
C 	C 	0.46987 0.77570 0.48563 -0.03500
C 	C 	0.49221 0.72959 0.94444 -0.03600
C 	C 	0.48392 0.86643 0.97119 0.02600
N 	N 	0.49556 0.93628 0.86934 -0.09900
C 	C 	0.47054 0.81960 0.48491 0.02500
O 	O 	0.49093 0.02744 0.08795 -0.35400
C 	C 	0.48892 0.95953 0.76947 0.10600
C 	C 	0.47386 0.47647 0.64733 -0.06900
C 	C 	0.49613 0.54943 0.21012 -0.03600
C 	C 	0.46886 0.11980 0.49008 -0.07500
C 	C 	0.49031 0.18408 0.04579 0.02400
C 	C 	0.46893 0.99730 0.60657 0.28700
C 	C 	0.47628 0.57717 0.50420 0.29800
C 	C 	0.48120 0.48199 0.72728 0.02200
C 	C 	0.47760 0.27875 0.45496 -0.03500
C 	C 	0.49405 0.22843 0.04484 -0.03600
C 	C 	0.49658 0.96630 0.85072 0.08800
O 	O 	0.50321 0.56122 0.08477 -0.35000
C 	C 	0.48136 0.32304 0.45732 0.02600
C 	C 	0.47095 0.01697 0.64442 -0.07300
O 	O 	0.00718 0.59530 0.97139 -0.39600
O 	O 	0.48941 0.07563 0.90209 -0.39200
O 	O 	0.49880 0.54695 0.89572 -0.38900
O 	O 	0.48379 0.56699 0.46999 -0.40700
C 	C 	0.47868 0.47188 0.60617 0.28600
C 	C 	0.48848 0.48437 0.76938 0.02400
C 	C 	0.48222 0.62254 0.51447 -0.07400
C 	C 	0.49227 0.00035 0.78751 -0.03500
C 	C 	0.48271 0.03266 0.72306 0.02300
C 	C 	0.50106 0.31589 0.99092 -0.03400
N 	N 	0.49200 0.40336 0.34052 -0.09300
C 	C 	0.49787 0.00394 0.82739 0.01800
C 	C 	0.00589 0.49662 0.77402 0.03700
C 	C 	0.48375 0.20892 0.48528 0.02300
O 	O 	0.49830 0.11132 0.97413 -0.40400
C 	C 	0.50007 0.11979 0.01053 0.29000
C 	C 	0.50659 0.62399 0.98618 0.30200
O 	O 	0.49112 0.53329 0.40078 -0.39200
C 	C 	0.48501 0.51626 0.66482 0.01800
C 	C 	0.48815 0.51908 0.70488 -0.03400
C 	C 	0.50280 0.35990 0.98780 0.02800
C 	C 	0.48999 0.03655 0.76512 0.02200
C 	C 	0.49462 0.94050 0.32596 0.02000
C 	C 	0.49230 0.97740 0.38770 0.29100
C 	C 	0.00729 0.84874 0.97748 0.03200
O 	O 	0.48646 0.96556 0.60241 -0.38800
O 	O 	0.50880 0.60172 0.95608 -0.41300
C 	C 	0.50281 0.49525 0.84848 -0.07200
N 	N 	0.50576 0.43320 0.22993 -0.10100
C 	C 	0.48776 0.71104 0.51692 0.02300
C 	C 	0.50775 0.67015 0.98189 -0.07300
C 	C 	0.49922 0.94359 0.28634 -0.03400
C 	C 	0.48947 0.75769 0.51537 0.02400
C 	C 	0.49233 0.25612 0.48491 0.02500
C 	C 	0.50662 0.04793 0.88662 0.28400
O 	O 	0.48835 0.91125 0.54165 -0.41000
C 	C 	0.50248 0.43814 0.33163 0.09200
C 	C 	0.49571 0.07658 0.78242 -0.03600
C 	C 	0.50407 0.04415 0.84458 -0.07000
C 	C 	0.51160 0.00294 0.10579 0.28500
C 	C 	0.51024 0.51202 0.88762 0.28800
O 	O 	0.49696 0.44262 0.59563 -0.39200
O 	O 	0.49691 0.40492 0.52529 -0.41500
C 	C 	0.49102 0.11348 0.76002 0.10500
C 	C 	0.49373 0.55409 0.64164 0.08500
C 	C 	0.49329 0.84595 0.51214 -0.07300
N 	N 	0.48728 0.14290 0.74211 -0.10000
C 	C 	0.49501 0.89219 0.51087 0.29600
C 	C 	0.49889 0.55997 0.72307 0.10400
C 	C 	0.51196 0.75804 0.97183 0.02600
C 	C 	0.51259 0.00049 0.14800 -0.07300
C 	C 	0.51215 0.45932 0.25285 0.10500
C 	C 	0.50289 0.34511 0.48787 -0.07100
C 	C 	0.51358 0.80446 0.96673 0.02300
C 	C 	0.51322 0.16423 0.02282 -0.07400
C 	C 	0.50564 0.08066 0.82152 0.02300
C 	C 	0.50632 0.97646 0.34898 -0.06800
C 	C 	0.50439 0.39107 0.49238 0.29700
C 	C 	0.51926 0.89288 0.96502 -0.07400
C 	C 	0.51378 0.98814 0.22768 0.02400
O 	O 	0.50257 0.99948 0.52382 -0.69900
C 	C 	0.50989 0.50586 0.38700 0.28700
C 	C 	0.51472 0.98288 0.26986 0.02300
N 	N 	0.50065 0.58425 0.62309 -0.10100
C 	C 	0.50556 0.14176 0.48141 0.02400
N 	N 	0.50746 0.59257 0.73764 -0.10100
C 	C 	0.51571 0.48162 0.32035 0.01900
O 	O 	0.52294 0.94462 0.01397 -0.40900
O 	O 	0.51009 0.96035 0.41554 -0.35300
C 	C 	0.52188 0.25294 0.02248 0.02400
C 	C 	0.50622 0.03957 0.65882 0.02000
O 	O 	0.52492 0.97449 0.08686 -0.39000
Ni	Ni	0.51002 0.97745 0.47162 1.10100
C 	C 	0.52578 0.93722 0.97798 0.30000
C 	C 	0.52525 0.54423 0.10883 0.28700
C 	C 	0.52016 0.49211 0.28151 -0.03400
C 	C 	0.51287 0.04515 0.69832 -0.03400
C 	C 	0.51236 0.18602 0.47701 -0.03500
C 	C 	0.52391 0.29951 0.01893 0.02300
O 	O 	0.51122 0.91426 0.48226 -0.35500
C 	C 	0.51379 0.27814 0.51544 -0.03500
C 	C 	0.51956 0.12224 0.83757 0.10000
C 	C 	0.52777 0.55609 0.14954 -0.06900
H 	H 	0.51424 0.02972 0.52670 0.16900
O 	O 	0.52833 0.45561 0.03948 -0.41000
O 	O 	0.51673 0.49375 0.52392 -0.69900
C 	C 	0.51078 0.78382 0.54359 -0.03600
C 	C 	0.52801 0.38766 0.01216 -0.07400
C 	C 	0.00756 0.35523 0.01988 0.02900
O 	O 	0.52090 0.41774 0.46672 -0.35300
C 	C 	0.52412 0.51358 0.34813 -0.06800
C 	C 	0.51649 0.64967 0.50523 0.02500
O 	O 	0.53475 0.03449 0.90542 -0.34600
C 	C 	0.53007 0.43393 0.00888 0.30000
C 	C 	0.52045 0.32256 0.51610 0.03000
C 	C 	0.52694 0.01381 0.33311 0.02600
C 	C 	0.51409 0.82798 0.54105 0.02800
C 	C 	0.51862 0.69376 0.50476 -0.03500
C 	C 	0.52983 0.01762 0.29342 -0.03600
C 	C 	0.52600 0.48795 0.78502 -0.03600
C 	C 	0.53112 0.54674 0.22934 0.02400
O 	O 	0.53956 0.96803 0.95476 -0.35600
Ni	Ni	0.52444 0.48285 0.46827 1.10100
O 	O 	0.52523 0.48034 0.40983 -0.35400
C 	C 	0.52878 0.69876 0.00862 0.02500
O 	O 	0.53956 0.03575 0.02105 -0.70300
Ni	Ni	0.53997 0.03147 0.96391 1.10100
C 	C 	0.53197 0.53470 0.27049 0.02200
N 	N 	0.53068 0.15541 0.85035 -0.09400
O 	O 	0.53432 0.49720 0.91098 -0.34900
C 	C 	0.52968 0.74255 0.00431 -0.03700
Ni	Ni	0.52506 0.96367 0.56050 1.07700
C 	C 	0.53335 0.49439 0.82446 0.02700
O 	O 	0.53727 0.50993 0.09960 -0.39100
C 	C 	0.52839 0.25496 0.54658 0.10700
C 	C 	0.00837 0.08518 0.16156 0.09900
H 	H 	0.52946 0.52246 0.53198 0.16700
C 	C 	0.00357 0.04447 0.73007 0.11200
O 	O 	0.54141 0.45340 0.97723 -0.35400
C 	C 	0.54460 0.18913 0.00532 0.02300
Ni	Ni	0.54480 0.51734 0.96650 1.10200
C 	C 	0.53644 0.11880 0.47757 0.08000
Ni	Ni	0.53599 0.44934 0.55311 1.07400
C 	C 	0.53542 0.05746 0.63283 0.06400
C 	C 	0.00755 0.15386 0.99880 -0.05600
C 	C 	0.52914 0.76517 0.57533 0.10700
C 	C 	0.54141 0.55487 0.33732 0.02400
C 	C 	0.54344 0.56594 0.29852 -0.03500
C 	C 	0.00131 0.96907 0.77545 0.03500
O 	O 	0.00397 0.09043 0.96257 -0.40200
C 	C 	0.00535 0.80465 0.97934 -0.02900
C 	C 	0.00471 0.65045 0.01592 -0.06100
O 	O 	0.00222 0.03934 0.89818 -0.38600
N 	N 	0.54003 0.23644 0.57140 -0.10100
C 	C 	0.53962 0.85494 0.56761 0.08500
C 	C 	0.54713 0.83054 0.95437 -0.03500
C 	C 	0.54500 0.04828 0.35773 0.09500
C 	C 	0.00169 0.31082 0.02146 -0.02800
O 	O 	0.54856 0.54353 0.01903 -0.70100
C 	C 	0.54824 0.23342 0.00406 -0.03600
C 	C 	0.54690 0.99632 0.16810 0.02500
C 	C 	0.54547 0.34504 0.54578 0.08200
C 	C 	0.54885 0.32717 0.04345 -0.03500
N 	N 	0.54377 0.75024 0.60063 -0.10000
C 	C 	0.54702 0.98834 0.20755 -0.03500
C 	C 	0.54734 0.05753 0.27671 0.10600
C 	C 	0.54871 0.77166 0.03327 0.10600
C 	C 	0.55013 0.68329 0.04002 0.09100
C 	C 	0.54868 0.20805 0.46380 0.10800
C 	C 	0.54946 0.63214 0.49600 0.08600
C 	C 	0.55032 0.87485 0.95432 0.02400
C 	C 	0.55157 0.37116 0.03959 0.03000
C 	C 	0.55088 0.06250 0.71361 0.10600
C 	C 	0.55225 0.72134 0.49108 0.10800
C 	C 	0.99967 0.07321 0.24184 0.09600
C 	C 	0.99819 0.88345 0.50838 0.29900
C 	C 	0.99832 0.68118 0.53054 -0.04000
C 	C 	0.99979 0.55710 0.14987 0.07600
N 	N 	0.99586 0.57821 0.24921 -0.10300
C 	C 	0.99658 0.63729 0.52729 0.02000
C 	C 	0.99767 0.03984 0.64883 0.07400
C 	C 	0.99417 0.54859 0.23049 0.10400
N 	N 	0.99781 0.60102 0.74127 -0.10200
O 	O 	0.99132 0.95801 0.41515 -0.35500
C 	C 	0.98906 0.83706 0.50556 -0.07700
C 	C 	0.99581 0.56837 0.72721 0.10200
N 	N 	0.98370 0.58921 0.62748 -0.09600
C 	C 	0.98582 0.55990 0.64619 0.09400
C 	C 	0.99206 0.51140 0.20709 -0.03800
C 	C 	0.99105 0.47829 0.38819 0.28300
C 	C 	0.99334 0.52743 0.70964 -0.03100
C 	C 	0.98830 0.52323 0.66976 0.01600
C 	C 	0.98632 0.03848 0.21585 -0.03100
C 	C 	0.99067 0.04437 0.17632 0.01100
O 	O 	0.98893 0.93319 0.59157 -0.40400
C 	C 	0.97826 0.74819 0.50750 0.01700
O 	O 	0.98252 0.90583 0.48303 -0.38000
C 	C 	0.97608 0.98501 0.39381 0.28100
C 	C 	0.99128 0.46986 0.34687 -0.07400
N 	N 	0.98052 0.36081 0.23368 -0.10100
C 	C 	0.97247 0.97984 0.35192 -0.07600
C 	C 	0.99300 0.41448 0.73909 0.10300
N 	N 	0.99535 0.38513 0.75768 -0.10100
C 	C 	0.98255 0.39367 0.21943 0.10500
C 	C 	0.99626 0.00371 0.71136 -0.04300
C 	C 	0.93435 0.92544 0.21918 0.10500
N 	N 	0.91935 0.89311 0.23079 -0.10100
C 	C 	0.99007 0.45130 0.71583 -0.03300
C 	C 	0.98509 0.43488 0.20162 -0.03700
C 	C 	0.95315 0.96599 0.20468 -0.03500
C 	C 	0.97276 0.70115 0.50861 0.02600
C 	C 	0.98195 0.44686 0.67648 0.02100
C 	C 	0.96899 0.40519 0.66028 0.09800
N 	N 	0.95865 0.37195 0.64736 -0.09600
C 	C 	0.98376 0.43855 0.16165 0.02200
C 	C 	0.99003 0.46738 0.26665 0.01800
C 	C 	0.97598 0.40077 0.13843 0.09500
N 	N 	0.96978 0.37049 0.12010 -0.09600
C 	C 	0.95602 0.97258 0.16517 0.02400
C 	C 	0.96995 0.99028 0.27207 0.01800
C 	C 	0.93674 0.94051 0.13878 0.09500
N 	N 	0.92137 0.91493 0.11770 -0.09800
C 	C 	0.99066 0.00140 0.67143 0.02300
Ni	Ni	0.97622 0.02001 0.02853 1.09900
O 	O 	0.97619 0.03277 0.08577 -0.35300
O 	O 	0.98006 0.08447 0.02165 -0.35600
O 	O 	0.92232 0.05692 0.97254 -0.39200
O 	O 	0.98308 0.00094 0.97499 -0.70100
O 	O 	0.91829 0.01336 0.02454 -0.36600
Ni	Ni	0.96445 0.04212 0.94069 1.07400
H 	H 	0.96959 0.97162 0.97012 0.17200
C 	C 	0.99188 0.01157 0.11227 0.28000
C 	C 	0.99934 0.10731 0.99523 0.28100
C 	C 	0.90158 0.03075 0.99601 0.29000
Ni	Ni	0.94811 0.98681 0.53515 1.10400
O 	O 	0.95377 0.98519 0.59368 -0.35300
O 	O 	0.95682 0.05183 0.53808 -0.36000
O 	O 	0.89352 0.03438 0.48907 -0.39100
O 	O 	0.94729 0.97497 0.47939 -0.70100
O 	O 	0.89139 0.98646 0.53831 -0.35500
O 	O 	0.97024 0.02056 0.40844 -0.39300
Ni	Ni	0.93293 0.02266 0.45195 1.07600
H 	H 	0.92882 0.94874 0.47313 0.17000
O 	O 	0.97547 0.06525 0.47722 -0.40600
C 	C 	0.97314 0.95915 0.61135 0.27900
C 	C 	0.97409 0.07770 0.51234 0.29700
C 	C 	0.87372 0.00548 0.51133 0.27800
Ni	Ni	0.98013 0.51268 0.02447 1.10400
O 	O 	0.97535 0.50806 0.08244 -0.35500
O 	O 	0.97933 0.57652 0.02783 -0.35600
O 	O 	0.92681 0.55342 0.97093 -0.38900
O 	O 	0.99110 0.50451 0.97023 -0.70200
O 	O 	0.92248 0.50163 0.01693 -0.36300
Ni	Ni	0.97363 0.54899 0.94048 1.07600
H 	H 	0.97761 0.47640 0.96136 0.17400
C 	C 	0.99387 0.48318 0.10270 0.27400
C 	C 	0.99779 0.60544 0.00512 0.27700
C 	C 	0.90627 0.52179 0.98975 0.28700
Ni	Ni	0.96018 0.47881 0.53049 1.10100
O 	O 	0.96390 0.49080 0.58798 -0.34900
O 	O 	0.95336 0.54103 0.52619 -0.35600
O 	O 	0.89454 0.50371 0.48142 -0.38700
O 	O 	0.96336 0.46234 0.47564 -0.70400
O 	O 	0.90259 0.46157 0.53274 -0.36400
O 	O 	0.97272 0.50731 0.39938 -0.39000
Ni	Ni	0.93657 0.49974 0.44471 1.07600
H 	H 	0.95258 0.43211 0.47111 0.17200
O 	O 	0.97076 0.55300 0.46514 -0.40900
C 	C 	0.98961 0.47923 0.61165 0.28100
C 	C 	0.96667 0.56723 0.49900 0.29500
C 	C 	0.88047 0.47353 0.50542 0.28700
Ni	Ni	0.56178 0.98889 0.04248 1.07500
O 	O 	0.59783 0.04236 0.96043 -0.35600
H 	H 	0.55370 0.06341 0.03033 0.16800
C 	C 	0.61840 0.02323 0.98449 0.28700
O 	O 	0.60221 0.98911 0.00304 -0.39200
O 	O 	0.56811 0.99027 0.47464 -0.36300
C 	C 	0.58673 0.97727 0.50422 0.28900
O 	O 	0.56823 0.95079 0.52894 -0.38800
Ni	Ni	0.57059 0.50527 0.05356 1.07500
O 	O 	0.60171 0.52190 0.96042 -0.36100
H 	H 	0.56381 0.57256 0.01944 0.17000
C 	C 	0.62311 0.51039 0.98856 0.28800
O 	O 	0.60718 0.48708 0.01678 -0.39400
O 	O 	0.58240 0.49041 0.47210 -0.36500
C 	C 	0.59910 0.46951 0.49804 0.28800
O 	O 	0.57833 0.44023 0.51875 -0.39600
C 	C 	0.57230 0.50152 0.84000 0.10100
C 	C 	0.55703 0.48549 0.76044 0.10500
N 	N 	0.60339 0.50720 0.85239 -0.09100
N 	N 	0.58176 0.48353 0.74078 -0.10600
C 	C 	0.56502 0.55394 0.20921 -0.03400
C 	C 	0.56339 0.56067 0.16956 0.02200
C 	C 	0.60130 0.55302 0.22906 0.10500
C 	C 	0.55759 0.58564 0.36617 0.09600
C 	C 	0.55630 0.60960 0.28741 0.10600
C 	C 	0.59828 0.57132 0.14910 0.07000
N 	N 	0.57050 0.61018 0.38919 -0.09400
N 	N 	0.56656 0.64442 0.27850 -0.10000
N 	N 	0.63025 0.55227 0.24494 -0.10000
N 	N 	0.62611 0.57981 0.13274 -0.11600
N 	N 	0.57573 0.61812 0.48856 -0.10100
N 	N 	0.57906 0.74338 0.48018 -0.09800
N 	N 	0.55998 0.87638 0.58885 -0.11400
N 	N 	0.56542 0.36276 0.56956 -0.12300
N 	N 	0.56104 0.10046 0.47452 -0.10800
N 	N 	0.57766 0.22568 0.45327 -0.09700
C 	C 	0.57844 0.81179 0.94224 0.10600
C 	C 	0.58584 0.90175 0.94446 0.10100
N 	N 	0.61427 0.92308 0.93658 -0.09100
N 	N 	0.60341 0.79678 0.93257 -0.10000
N 	N 	0.56715 0.67091 0.06507 -0.10300
N 	N 	0.56389 0.79494 0.05635 -0.10400
C 	C 	0.57176 0.31024 0.07271 0.10700
C 	C 	0.57858 0.25886 0.98328 0.11000
C 	C 	0.57321 0.16909 0.98896 0.08300
C 	C 	0.57929 0.39941 0.06319 0.08200
N 	N 	0.59602 0.15304 0.97593 -0.10600
N 	N 	0.60277 0.27921 0.96671 -0.09700
N 	N 	0.59001 0.29669 0.09602 -0.10100
N 	N 	0.60142 0.42182 0.08211 -0.12100
N 	N 	0.55863 0.07185 0.61203 -0.11200
N 	N 	0.58120 0.07633 0.72585 -0.09900
C 	C 	0.58131 0.98008 0.22748 0.10700
C 	C 	0.58210 0.00025 0.14819 0.06900
N 	N 	0.55940 0.07575 0.37740 -0.09600
N 	N 	0.56131 0.08936 0.26333 -0.10100
N 	N 	0.60864 0.97349 0.24341 -0.09900
N 	N 	0.61020 0.00323 0.13239 -0.12000
C 	C 	0.77748 0.44674 0.47288 -0.03400
C 	C 	0.75951 0.46095 0.50382 0.02400
C 	C 	0.78082 0.47290 0.53802 -0.03600
C 	C 	0.82072 0.47566 0.53953 0.02800
C 	C 	0.83868 0.46240 0.50808 -0.07200
C 	C 	0.81634 0.44423 0.47644 0.02100
C 	C 	0.71819 0.46346 0.50035 0.02300
C 	C 	0.76172 0.48252 0.57143 0.10600
C 	C 	0.83287 0.42087 0.44881 0.06700
C 	C 	0.69030 0.42617 0.49885 -0.03600
C 	C 	0.65168 0.42861 0.49235 0.02500
C 	C 	0.64003 0.46800 0.49480 -0.07100
C 	C 	0.66785 0.50544 0.49704 0.02000
C 	C 	0.70691 0.50315 0.49767 -0.03500
C 	C 	0.70129 0.38539 0.50459 0.10600
C 	C 	0.65643 0.54608 0.49980 0.08500
C 	C 	0.62448 0.39129 0.48041 0.10400
C 	C 	0.73546 0.54147 0.49541 0.10600
C 	C 	0.75630 0.43597 0.43711 0.10600
C 	C 	0.84330 0.49323 0.57284 0.10300
N 	N 	0.60287 0.36150 0.47077 -0.09400
N 	N 	0.71010 0.35287 0.50916 -0.10000
N 	N 	0.64748 0.57861 0.50206 -0.09700
N 	N 	0.75828 0.57201 0.49362 -0.09900
N 	N 	0.74644 0.49019 0.59807 -0.10300
N 	N 	0.86132 0.50727 0.59940 -0.08900
N 	N 	0.84598 0.40192 0.42690 -0.10600
N 	N 	0.73938 0.42737 0.40858 -0.10000
C 	C 	0.80393 0.51541 0.01855 -0.03700
C 	C 	0.78449 0.51320 0.98266 0.02500
C 	C 	0.80467 0.51238 0.94927 -0.03400
C 	C 	0.84438 0.51409 0.95167 0.02100
C 	C 	0.86416 0.51723 0.98757 -0.06600
C 	C 	0.84381 0.51857 0.02105 0.02600
C 	C 	0.74268 0.51264 0.98005 0.02300
C 	C 	0.78452 0.51006 0.91240 0.10700
C 	C 	0.86401 0.52533 0.05784 0.10700
C 	C 	0.72900 0.55091 0.98052 -0.03400
C 	C 	0.68957 0.55027 0.98203 0.02000
C 	C 	0.66379 0.51135 0.98236 -0.07100
C 	C 	0.67731 0.47319 0.97879 0.02700
C 	C 	0.71679 0.47381 0.97836 -0.03500
C 	C 	0.75560 0.59087 0.97990 0.10600
C 	C 	0.65055 0.43340 0.97510 0.10400
C 	C 	0.67555 0.58956 0.98414 0.07900
C 	C 	0.73088 0.43454 0.97663 0.10700
C 	C 	0.78281 0.51475 0.05291 0.10600
C 	C 	0.86498 0.51336 0.91712 0.07300
N 	N 	0.66435 0.62089 0.98583 -0.10400
N 	N 	0.77688 0.62272 0.97941 -0.10000
N 	N 	0.62918 0.40170 0.97218 -0.09200
N 	N 	0.74216 0.40324 0.97525 -0.09900
N 	N 	0.76839 0.50820 0.88301 -0.09900
N 	N 	0.88127 0.51296 0.88947 -0.11800
N 	N 	0.88010 0.53074 0.08718 -0.08900
N 	N 	0.76591 0.51422 0.08028 -0.10300
C 	C 	0.99626 0.49171 0.73246 0.01300
C 	C 	0.98509 0.48311 0.65300 -0.06600
C 	C 	0.98691 0.48667 0.83970 0.01500
C 	C 	0.97727 0.48459 0.80049 -0.04200
C 	C 	0.95948 0.46713 0.86679 0.05700
C 	C 	0.93790 0.47077 0.78734 0.10700
N 	N 	0.93768 0.45132 0.88841 -0.11800
N 	N 	0.90648 0.45974 0.77681 -0.10000
C 	C 	0.98914 0.47127 0.22435 0.02300
C 	C 	0.98918 0.47894 0.14431 -0.07800
C 	C 	0.99314 0.51541 0.16720 0.02100
C 	C 	0.95565 0.45787 0.28581 -0.03300
C 	C 	0.95632 0.45817 0.32586 0.02300
C 	C 	0.91953 0.44856 0.26423 0.10600
C 	C 	0.92100 0.44687 0.34549 0.07000
N 	N 	0.89274 0.43793 0.36104 -0.11500
N 	N 	0.89074 0.44113 0.24697 -0.09900
C 	C 	0.95587 0.76943 0.52971 -0.03300
C 	C 	0.96036 0.81378 0.52763 0.02300
C 	C 	0.93460 0.83537 0.54699 0.08400
C 	C 	0.94355 0.67677 0.48573 -0.03700
C 	C 	0.94054 0.63263 0.48397 0.02800
C 	C 	0.96780 0.61296 0.50379 -0.07100
C 	C 	0.91694 0.69725 0.46357 0.10600
C 	C 	0.90930 0.60744 0.46189 0.08600
C 	C 	0.92853 0.74565 0.55484 0.10800
N 	N 	0.88435 0.58749 0.44423 -0.10700
N 	N 	0.89573 0.71363 0.44592 -0.10100
N 	N 	0.91398 0.85265 0.56226 -0.10000
N 	N 	0.90671 0.72664 0.57489 -0.09800
C 	C 	0.97596 0.19092 0.53813 -0.04400
C 	C 	0.99019 0.12221 0.52222 -0.08500
C 	C 	0.96843 0.14659 0.54199 0.02900
C 	C 	0.93943 0.12637 0.56724 0.10500
C 	C 	0.99294 0.31798 0.47661 0.01900
C 	C 	0.99050 0.27391 0.47996 -0.03900
C 	C 	0.96963 0.33514 0.44789 0.08500
C 	C 	0.96550 0.24565 0.45401 0.10500
C 	C 	0.95258 0.21608 0.55678 0.10800
N 	N 	0.95106 0.34887 0.42497 -0.10700
N 	N 	0.94555 0.22304 0.43334 -0.10400
N 	N 	0.91636 0.11026 0.58751 -0.08800
N 	N 	0.93395 0.23622 0.57164 -0.10100
C 	C 	0.76788 0.95790 0.51180 -0.03500
C 	C 	0.75150 0.99442 0.50894 0.02400
C 	C 	0.77515 0.03465 0.50793 -0.03600
C 	C 	0.81512 0.03850 0.51082 0.02300
C 	C 	0.83167 0.00184 0.51189 -0.07000
C 	C 	0.80784 0.96150 0.51211 0.02100
C 	C 	0.70915 0.99056 0.50745 0.02400
C 	C 	0.75827 0.07211 0.50379 0.10500
C 	C 	0.82437 0.92371 0.51140 0.08300
C 	C 	0.69027 0.99675 0.54066 -0.03300
C 	C 	0.65045 0.99443 0.53909 0.02300
C 	C 	0.62902 0.98345 0.50471 -0.07000
C 	C 	0.64795 0.97594 0.47164 0.02700
C 	C 	0.68806 0.98104 0.47279 -0.03500
C 	C 	0.71187 0.00533 0.57653 0.10700
C 	C 	0.62620 0.96112 0.43701 0.10400
C 	C 	0.63154 0.00341 0.57286 0.07100
C 	C 	0.70769 0.97639 0.43833 0.10600
C 	C 	0.74354 0.91662 0.51438 0.10700
C 	C 	0.83905 0.08014 0.51350 0.10100
N 	N 	0.61650 0.01047 0.59986 -0.11900
N 	N 	0.72915 0.01218 0.60511 -0.09900
N 	N 	0.60888 0.94930 0.40938 -0.09000
N 	N 	0.72340 0.97268 0.41086 -0.10200
N 	N 	0.74476 0.10196 0.50049 -0.10000
N 	N 	0.85797 0.11344 0.51549 -0.09600
N 	N 	0.83755 0.89358 0.51081 -0.10300
N 	N 	0.72407 0.88371 0.51643 -0.09900
C 	C 	0.97879 0.71443 0.02481 -0.04000
C 	C 	0.97374 0.67002 0.02403 0.01600
C 	C 	0.94752 0.73468 0.03448 0.10500
C 	C 	0.98982 0.77838 0.94708 0.09900
C 	C 	0.99145 0.86754 0.94426 0.08300
C 	C 	0.93638 0.64464 0.02992 0.10200
N 	N 	0.97885 0.88256 0.91776 -0.10200
N 	N 	0.97743 0.75737 0.92137 -0.10200
N 	N 	0.92261 0.75088 0.04219 -0.10100
N 	N 	0.90652 0.62449 0.03459 -0.09300
C 	C 	0.99967 0.22331 0.97485 -0.03700
C 	C 	0.99096 0.17898 0.97212 0.02000
C 	C 	0.96397 0.15922 0.94266 0.09000
C 	C 	0.96634 0.28691 0.03522 0.10300
C 	C 	0.97646 0.37691 0.02696 0.07700
C 	C 	0.98572 0.24918 0.94541 0.10600
N 	N 	0.95168 0.39426 0.03249 -0.11100
N 	N 	0.93814 0.26778 0.04620 -0.09600
N 	N 	0.94242 0.14348 0.91917 -0.11400
N 	N 	0.97462 0.26986 0.92195 -0.10100
C 	C 	0.80881 0.07218 0.99426 -0.03600
C 	C 	0.78161 0.03431 0.99204 0.02200
C 	C 	0.79379 0.99507 0.99348 -0.03300
C 	C 	0.83312 0.99379 0.99516 0.02100
C 	C 	0.86031 0.03171 0.99742 -0.07100
C 	C 	0.84794 0.07081 0.99895 0.02700
C 	C 	0.73996 0.03574 0.98902 0.02500
C 	C 	0.76583 0.95611 0.99318 0.10600
C 	C 	0.87529 0.10937 0.00695 0.10100
C 	C 	0.71970 0.02939 0.95352 -0.03600
C 	C 	0.67987 0.02767 0.95127 0.02800
C 	C 	0.66056 0.03374 0.98435 -0.07000
C 	C 	0.68161 0.04496 0.01873 0.01900
C 	C 	0.72087 0.04386 0.02160 -0.03500
C 	C 	0.73980 0.02437 0.91946 0.10700
C 	C 	0.66315 0.05945 0.05056 0.06300
C 	C 	0.65886 0.01956 0.91506 0.10700
C 	C 	0.74150 0.05037 0.05814 0.10500
C 	C 	0.79650 0.11253 0.99142 0.10700
C 	C 	0.84557 0.95354 0.99383 0.08400
N 	N 	0.64210 0.01311 0.88616 -0.08800
N 	N 	0.75589 0.02036 0.89231 -0.10200
N 	N 	0.64842 0.07122 0.07588 -0.11500
N 	N 	0.75800 0.05557 0.08728 -0.10000
N 	N 	0.74348 0.92504 0.99293 -0.10000
N 	N 	0.85553 0.92144 0.99277 -0.10100
N 	N 	0.89710 0.14012 0.01336 -0.09300
N 	N 	0.78663 0.14470 0.98916 -0.09900
C 	C 	0.97004 0.96259 0.79935 -0.04000
C 	C 	0.97602 0.97031 0.83872 0.01700
C 	C 	0.99469 0.96644 0.73316 0.01700
C 	C 	0.94417 0.96145 0.86363 0.06300
C 	C 	0.97991 0.96161 0.65344 -0.08000
C 	C 	0.97710 0.92425 0.67559 0.02100
C 	C 	0.98614 0.92678 0.71508 -0.03600
C 	C 	0.96400 0.88330 0.65808 0.09400
C 	C 	0.98672 0.88857 0.73713 0.10300
C 	C 	0.93165 0.94908 0.78325 0.10700
N 	N 	0.95361 0.85052 0.64428 -0.09400
N 	N 	0.98719 0.85811 0.75476 -0.10000
N 	N 	0.91879 0.95440 0.88355 -0.12400
N 	N 	0.90104 0.93830 0.77036 -0.10000
C 	C 	0.96943 0.99852 0.23015 0.02200
C 	C 	0.97770 0.01044 0.15122 -0.06500
C 	C 	0.93728 0.99153 0.29277 -0.03300
C 	C 	0.93813 0.98464 0.33242 0.02200
C 	C 	0.90306 0.00064 0.27336 0.10400
C 	C 	0.90367 0.98246 0.35326 0.06300
N 	N 	0.87620 0.98073 0.36992 -0.12500
N 	N 	0.87577 0.00791 0.25782 -0.10000
