data_crystal

_cell_length_a 42.29090
_cell_length_b 42.35202
_cell_length_c 29.26394
_cell_angle_alpha 89.96505
_cell_angle_beta  89.94819
_cell_angle_gamma 89.99845

_symmetry_space_group_name_	'P 1'
_symmetry_space_group_name_H-M	'P 1'

loop_
_symmetry_equiv_pos_as_xyz
  x,y,z

loop_
_atom_site_label
_atom_site_type_symbol
_atom_site_fract_x
_atom_site_fract_y
_atom_site_fract_z
_atom_site_charge
C 	C 	0.54229 0.44365 0.02872 0.09700
N 	N 	0.51367 0.44978 0.01058 -0.17500
C 	C 	0.49531 0.42472 0.02041 0.09300
C 	C 	0.46460 0.41878 0.99752 -0.07400
C 	C 	0.44390 0.44563 0.98555 0.09100
C 	C 	0.45232 0.38625 0.99336 0.04700
C 	C 	0.46861 0.36382 0.96705 -0.06000
C 	C 	0.45780 0.33265 0.96514 -0.03400
C 	C 	0.43063 0.32377 0.98948 0.00300
C 	C 	0.42464 0.37753 0.01659 -0.06300
N 	N 	0.44183 0.47212 0.01078 -0.13500
C 	C 	0.42358 0.44644 0.94871 -0.06400
C 	C 	0.41999 0.49011 0.98953 0.09100
C 	C 	0.41646 0.52425 0.99851 -0.07400
C 	C 	0.38527 0.53928 0.99244 0.04600
C 	C 	0.33404 0.55305 0.02390 -0.03800
C 	C 	0.38022 0.56025 0.95607 -0.06000
C 	C 	0.35239 0.57805 0.95414 -0.03400
C 	C 	0.33001 0.57571 0.98943 0.00200
N 	N 	0.47318 0.53668 0.01135 -0.17400
C 	C 	0.48927 0.56164 0.02783 0.09700
C 	C 	0.46876 0.58315 0.04773 -0.06500
C 	C 	0.43878 0.57057 0.04319 -0.06400
C 	C 	0.52220 0.56892 0.01411 -0.07400
C 	C 	0.53228 0.60201 0.00838 0.03100
C 	C 	0.56035 0.64784 0.03676 -0.04300
C 	C 	0.55359 0.66407 0.99613 0.00600
C 	C 	0.53616 0.64913 0.96160 -0.04000
C 	C 	0.52531 0.61826 0.96787 -0.04900
N 	N 	0.54033 0.51339 0.02277 -0.12900
C 	C 	0.58986 0.51752 0.99497 -0.05800
C 	C 	0.56769 0.49794 0.01525 0.08100
C 	C 	0.57073 0.46316 0.01941 -0.07400
C 	C 	0.60227 0.44825 0.01607 0.03300
C 	C 	0.61829 0.43890 0.05581 -0.05800
C 	C 	0.64963 0.42855 0.05320 -0.03500
C 	C 	0.66582 0.42959 0.01133 -0.00500
C 	C 	0.64933 0.43735 0.97128 -0.03100
C 	C 	0.61757 0.44632 0.97360 -0.05300
C 	C 	0.54236 0.41451 0.05026 -0.06600
C 	C 	0.51223 0.40239 0.04499 -0.06300
C 	C 	0.41367 0.34650 0.01427 -0.03800
C 	C 	0.40841 0.47519 0.95093 -0.06300
C 	C 	0.44246 0.54198 0.02073 0.09400
C 	C 	0.57554 0.54653 0.99034 -0.05800
C 	C 	0.54525 0.54300 0.00753 0.08100
C 	C 	0.54963 0.61696 0.04292 -0.05500
H 	H 	0.50975 0.46519 0.98325 0.09700
H 	H 	0.48119 0.52228 0.98475 0.09700
H 	H 	0.66186 0.42144 0.08405 0.03600
H 	H 	0.66135 0.43726 0.93857 0.03300
H 	H 	0.60666 0.44023 0.08875 0.04300
H 	H 	0.60524 0.45311 0.94268 0.04200
H 	H 	0.47065 0.31538 0.94513 0.03400
H 	H 	0.41185 0.39472 0.03682 0.04500
H 	H 	0.39231 0.33994 0.03241 0.03400
H 	H 	0.48981 0.37046 0.94859 0.04400
H 	H 	0.34893 0.59474 0.92653 0.03600
H 	H 	0.39820 0.56339 0.93007 0.04300
C 	C 	0.36167 0.53502 0.02555 -0.06400
H 	H 	0.31628 0.55022 0.05029 0.03400
H 	H 	0.57411 0.65911 0.06337 0.03600
H 	H 	0.55508 0.60450 0.07429 0.04200
H 	H 	0.51191 0.60681 0.94105 0.04100
H 	H 	0.53129 0.66132 0.92983 0.03500
H 	H 	0.56317 0.40046 0.05720 0.04500
H 	H 	0.50622 0.37762 0.04781 0.04300
H 	H 	0.42573 0.43202 0.91834 0.04500
H 	H 	0.39783 0.48710 0.92199 0.04500
H 	H 	0.47370 0.60800 0.05260 0.04400
H 	H 	0.41720 0.58431 0.04406 0.04200
H 	H 	0.61509 0.51334 0.99374 0.04200
H 	H 	0.58785 0.56871 0.98571 0.04500
H 	H 	0.36526 0.51859 0.05346 0.04400
Zn	Zn	0.33407 0.14888 0.98286 1.22100
C 	C 	0.34812 0.13817 0.07841 0.32800
O 	O 	0.28767 0.14660 0.97841 -0.46800
O 	O 	0.34406 0.16872 0.08410 -0.45500
O 	O 	0.27810 0.15769 0.05310 -0.50000
C 	C 	0.35960 0.21047 0.99638 0.33700
O 	O 	0.36685 0.18050 0.99271 -0.45600
O 	O 	0.33145 0.21884 0.01067 -0.52100
C 	C 	0.26971 0.14407 0.01482 0.31900
O 	O 	0.33620 0.16239 0.90467 -0.34000
Zn	Zn	0.30750 0.19272 0.05302 1.16900
O 	O 	0.34017 0.12472 0.03955 -0.45000
C 	C 	0.34701 0.13402 0.89869 0.28900
O 	O 	0.34963 0.11718 0.93547 -0.39200
C 	C 	0.51712 0.00276 0.52033 0.01000
C 	C 	0.49153 0.02453 0.51859 0.01100
C 	C 	0.51945 0.97868 0.48745 -0.05400
C 	C 	0.49662 0.97614 0.45274 0.01000
C 	C 	0.46878 0.02208 0.48377 -0.05500
C 	C 	0.47117 0.99807 0.45079 0.01100
H 	H 	0.44936 0.03872 0.48237 0.05000
H 	H 	0.53886 0.96203 0.48886 0.05000
C 	C 	0.44815 0.99462 0.41618 -0.01300
C 	C 	0.45118 0.97165 0.38189 0.00800
C 	C 	0.43413 0.97922 0.34135 -0.05700
C 	C 	0.41807 0.00809 0.34427 0.00700
S 	S 	0.42609 0.02390 0.39517 -0.01000
H 	H 	0.43590 0.96594 0.30991 0.04300
C 	C 	0.49786 0.95156 0.42017 -0.01300
C 	C 	0.47621 0.94993 0.38395 0.00800
C 	C 	0.48773 0.93242 0.34587 -0.05700
C 	C 	0.51830 0.92060 0.35263 0.00700
S 	S 	0.53073 0.93294 0.40367 -0.00900
H 	H 	0.47600 0.93151 0.31309 0.04400
C 	C 	0.53706 0.02915 0.58929 0.00800
C 	C 	0.54028 0.00642 0.55472 -0.01300
S 	S 	0.56335 0.97761 0.57482 -0.01100
C 	C 	0.57154 0.99351 0.62572 0.00800
C 	C 	0.55472 0.02186 0.62938 -0.05700
C 	C 	0.49008 0.04893 0.55146 -0.01300
C 	C 	0.51171 0.05052 0.58770 0.00800
C 	C 	0.50001 0.06761 0.62607 -0.05700
C 	C 	0.46936 0.07927 0.61943 0.00700
S 	S 	0.45706 0.06714 0.56821 -0.01000
H 	H 	0.51164 0.06824 0.65895 0.04500
H 	H 	0.55271 0.03477 0.66112 0.04400
Zn	Zn	0.64294 0.84340 0.98107 1.22200
C 	C 	0.63832 0.85116 0.07887 0.32500
O 	O 	0.68324 0.86459 0.99450 -0.45200
O 	O 	0.66652 0.83823 0.08165 -0.45300
O 	O 	0.70966 0.81843 0.00429 -0.51800
C 	C 	0.62155 0.77983 0.99874 0.33200
O 	O 	0.62702 0.80114 0.96710 -0.46800
O 	O 	0.63576 0.78158 0.03839 -0.50200
C 	C 	0.70993 0.84891 0.99667 0.33600
O 	O 	0.65303 0.84853 0.90189 -0.33600
Zn	Zn	0.67786 0.79902 0.04322 1.17100
O 	O 	0.62216 0.84932 0.04055 -0.44400
C 	C 	0.63172 0.87058 0.90320 0.28600
O 	O 	0.61933 0.87592 0.94290 -0.38800
Zn	Zn	0.15399 0.66535 0.00008 1.21700
C 	C 	0.14968 0.65200 0.09688 0.32500
O 	O 	0.12467 0.69862 0.01970 -0.46100
O 	O 	0.15784 0.68147 0.10459 -0.46000
O 	O 	0.16425 0.73337 0.03498 -0.51500
C 	C 	0.22013 0.65389 0.01423 0.32200
O 	O 	0.19848 0.66018 0.98349 -0.47300
O 	O 	0.21834 0.66673 0.05488 -0.49800
C 	C 	0.13413 0.72744 0.02851 0.33400
O 	O 	0.14533 0.67932 0.92272 -0.32900
Zn	Zn	0.19200 0.70348 0.06589 1.16900
O 	O 	0.15370 0.63962 0.05605 -0.45200
C 	C 	0.12850 0.65371 0.92123 0.28600
O 	O 	0.12668 0.63796 0.95903 -0.39600
C 	C 	0.00750 0.52942 0.53457 0.01000
C 	C 	0.98425 0.50519 0.53299 0.01000
C 	C 	0.03250 0.52944 0.50282 -0.05500
C 	C 	0.03473 0.50528 0.46997 0.01000
C 	C 	0.98721 0.48045 0.50137 -0.05500
C 	C 	0.01233 0.48023 0.46996 0.01100
H 	H 	0.96995 0.46157 0.50101 0.05000
H 	H 	0.04994 0.54816 0.50349 0.05000
C 	C 	0.01555 0.45572 0.43754 -0.01300
C 	C 	0.03768 0.45775 0.40191 0.00700
C 	C 	0.02873 0.44025 0.36230 -0.05600
C 	C 	0.99982 0.42447 0.36747 0.00600
S 	S 	0.98588 0.43313 0.41931 -0.01200
H 	H 	0.04042 0.44247 0.32958 0.04400
C 	C 	0.05915 0.50499 0.43700 -0.01300
C 	C 	0.05996 0.48233 0.40204 0.00800
C 	C 	0.07783 0.49209 0.36327 -0.05700
C 	C 	0.09071 0.52231 0.36828 0.00700
S 	S 	0.07878 0.53674 0.41855 -0.01100
H 	H 	0.07870 0.47920 0.33141 0.04400
C 	C 	0.98019 0.55287 0.60048 0.00700
C 	C 	0.00427 0.55368 0.56741 -0.01200
S 	S 	0.03396 0.57522 0.58844 -0.01200
C 	C 	0.01688 0.58570 0.63774 0.00800
C 	C 	0.98730 0.57095 0.64017 -0.05700
C 	C 	0.95828 0.50672 0.56328 -0.01300
C 	C 	0.95707 0.52913 0.59845 0.00800
C 	C 	0.93772 0.51963 0.63593 -0.05700
C 	C 	0.92387 0.48989 0.62956 0.00800
S 	S 	0.93654 0.47586 0.57951 -0.01200
H 	H 	0.93704 0.53184 0.66836 0.04400
H 	H 	0.97312 0.57072 0.67093 0.04300
Zn	Zn	0.85364 0.36038 0.00465 1.21900
C 	C 	0.79909 0.40117 0.00231 0.31600
O 	O 	0.85401 0.37447 0.94064 -0.45300
O 	O 	0.81768 0.42253 0.98388 -0.44800
O 	O 	0.88613 0.41604 0.95670 -0.51100
C 	C 	0.86994 0.39358 0.08802 0.32600
O 	O 	0.87639 0.36945 0.06143 -0.47100
O 	O 	0.85466 0.41792 0.07147 -0.50100
C 	C 	0.87390 0.39631 0.92705 0.33600
O 	O 	0.89556 0.32564 0.98729 -0.32700
Zn	Zn	0.86226 0.43095 0.00919 1.16900
O 	O 	0.81122 0.37583 0.02159 -0.44100
C 	C 	0.87462 0.30338 0.99084 0.28700
O 	O 	0.84635 0.31280 0.00115 -0.40200
C 	C 	0.98459 0.93859 0.06621 0.09800
N 	N 	0.96781 0.96212 0.04699 -0.17200
C 	C 	0.93740 0.95724 0.05865 0.09700
C 	C 	0.91075 0.97220 0.03391 -0.07400
C 	C 	0.91227 0.00604 0.02196 0.08100
C 	C 	0.88135 0.95432 0.02515 0.03400
C 	C 	0.88225 0.92628 0.99968 -0.05400
C 	C 	0.85464 0.90873 0.99314 -0.03100
C 	C 	0.82603 0.91900 0.01230 -0.00400
C 	C 	0.85243 0.96528 0.04256 -0.05600
N 	N 	0.93090 0.02682 0.04404 -0.12800
C 	C 	0.90003 0.01889 0.98230 -0.05800
C 	C 	0.92992 0.05332 0.01859 0.08100
C 	C 	0.95141 0.08027 0.02583 -0.07400
C 	C 	0.93941 0.11265 0.01870 0.03400
C 	C 	0.90396 0.15513 0.04030 -0.03500
C 	C 	0.95267 0.13195 0.98477 -0.05300
C 	C 	0.94178 0.16287 0.97890 -0.03000
C 	C 	0.91786 0.17475 0.00733 -0.00300
N 	N 	0.00081 0.04950 0.03763 -0.17200
C 	C 	0.03042 0.05656 0.05113 0.09800
C 	C 	0.03158 0.08688 0.06891 -0.06600
C 	C 	0.00121 0.09871 0.06616 -0.06300
C 	C 	0.05849 0.03845 0.03572 -0.07700
C 	C 	0.08918 0.05446 0.02977 0.03700
C 	C 	0.13792 0.07461 0.06210 -0.03300
C 	C 	0.14800 0.08388 0.01844 -0.00700
C 	C 	0.12896 0.07760 0.98031 -0.02900
C 	C 	0.09939 0.06341 0.98605 -0.05500
N 	N 	0.03638 0.98622 0.05751 -0.12900
C 	C 	0.06229 0.95516 0.00731 -0.06800
C 	C 	0.03987 0.95654 0.04168 0.08800
C 	C 	0.01737 0.93087 0.05218 -0.07600
C 	C 	0.02864 0.89782 0.05224 0.03800
C 	C 	0.05464 0.88927 0.07931 -0.05600
C 	C 	0.06829 0.85944 0.07465 -0.03600
C 	C 	0.05623 0.83799 0.04264 0.00300
C 	C 	0.02887 0.84565 0.01789 -0.04400
C 	C 	0.01535 0.87565 0.02224 -0.05600
C 	C 	0.96490 0.91852 0.09050 -0.06500
C 	C 	0.93467 0.93046 0.08567 -0.06400
C 	C 	0.82481 0.94787 0.03567 -0.03500
C 	C 	0.91139 0.04932 0.98015 -0.05700
C 	C 	0.98295 0.07511 0.04668 0.09600
C 	C 	0.07348 0.98547 0.00208 -0.06800
C 	C 	0.05720 0.00366 0.03346 0.08900
C 	C 	0.10868 0.05980 0.06770 -0.05800
H 	H 	0.97507 0.97486 0.01823 0.09000
H 	H 	0.99533 0.03259 0.01286 0.09100
H 	H 	0.08891 0.85336 0.09476 0.03400
H 	H 	0.01890 0.82886 0.99399 0.04100
H 	H 	0.06477 0.90607 0.10305 0.04400
H 	H 	0.99512 0.88195 0.00144 0.03900
H 	H 	0.85557 0.88692 0.97388 0.03300
H 	H 	0.85146 0.98705 0.06194 0.04500
H 	H 	0.80264 0.95630 0.04966 0.03700
H 	H 	0.90437 0.91794 0.98541 0.04200
H 	H 	0.95218 0.17769 0.95271 0.03500
H 	H 	0.97150 0.12307 0.96318 0.04200
C 	C 	0.91478 0.12423 0.04610 -0.05600
H 	H 	0.88518 0.16402 0.06196 0.03600
H 	H 	0.15268 0.07906 0.09164 0.03500
H 	H 	0.10105 0.05266 0.10152 0.04500
H 	H 	0.08457 0.05905 0.95654 0.04100
H 	H 	0.13700 0.08384 0.94634 0.03300
H 	H 	0.97032 0.89428 0.09920 0.04500
H 	H 	0.91325 0.91680 0.09016 0.04400
H 	H 	0.89195 0.00538 0.95317 0.04500
H 	H 	0.91351 0.06304 0.94906 0.04500
H 	H 	0.05263 0.10135 0.07090 0.04400
H 	H 	0.99542 0.12361 0.06607 0.04300
H 	H 	0.06346 0.93702 0.98130 0.04700
H 	H 	0.08477 0.99440 0.97149 0.04800
H 	H 	0.90430 0.10939 0.07221 0.04500
C 	C 	0.88424 0.27008 0.99612 -0.08800
C 	C 	0.87085 0.24578 0.96896 0.07100
C 	C 	0.88337 0.21511 0.97159 -0.07600
C 	C 	0.90739 0.20784 0.00277 -0.00000
C 	C 	0.92003 0.23183 0.03098 0.00800
C 	C 	0.90868 0.26282 0.02678 -0.01900
H 	H 	0.87376 0.19661 0.95008 0.04900
H 	H 	0.91898 0.28142 0.04745 0.04100
C 	C 	0.84243 0.25164 0.93842 -0.12200
C 	C 	0.94681 0.22506 0.06401 -0.09600
C 	C 	0.81253 0.23500 0.95628 -0.00300
H 	H 	0.81623 0.20903 0.95699 0.02500
H 	H 	0.79283 0.23971 0.93212 0.02100
C 	C 	0.97902 0.22931 0.04063 -0.02500
H 	H 	0.98200 0.25439 0.03020 0.03100
H 	H 	0.98040 0.21442 0.00946 0.03100
H 	H 	0.83733 0.27703 0.93297 0.06400
H 	H 	0.94481 0.20092 0.07855 0.05000
C 	C 	0.80268 0.24612 0.00394 -0.17100
C 	C 	0.00611 0.22018 0.07245 -0.15600
H 	H 	0.79944 0.27210 0.00452 0.07400
H 	H 	0.77990 0.23485 0.01346 0.05600
H 	H 	0.82068 0.23931 0.02974 0.07000
H 	H 	0.84784 0.24208 0.90390 0.05100
H 	H 	0.00566 0.23496 0.10379 0.05500
H 	H 	0.02903 0.22392 0.05472 0.05200
H 	H 	0.00426 0.19487 0.08216 0.05600
H 	H 	0.94525 0.24147 0.09362 0.04600
C 	C 	0.89445 0.41873 0.78953 0.06600
N 	N 	0.86431 0.41170 0.80257 -0.12100
C 	C 	0.85756 0.40189 0.84582 0.07300
C 	C 	0.88170 0.39963 0.87845 -0.12600
C 	C 	0.91294 0.40534 0.86515 0.04200
C 	C 	0.91941 0.41492 0.82061 -0.08800
H 	H 	0.83323 0.39747 0.85547 0.02400
H 	H 	0.93200 0.40358 0.88974 0.02300
H 	H 	0.94342 0.42085 0.81093 0.05000
C 	C 	0.91480 0.46935 0.66796 -0.01200
C 	C 	0.93264 0.44248 0.67863 -0.02000
C 	C 	0.92507 0.42473 0.71719 -0.05800
C 	C 	0.90004 0.43437 0.74539 0.04900
N 	N 	0.88228 0.45994 0.73358 -0.11000
C 	C 	0.88912 0.47747 0.69585 0.02000
H 	H 	0.95278 0.43585 0.65786 0.03700
H 	H 	0.93903 0.40412 0.72579 0.04300
H 	H 	0.87490 0.49802 0.68791 0.03100
C 	C 	0.92024 0.40141 0.21312 0.06600
N 	N 	0.90811 0.42750 0.19231 -0.12300
C 	C 	0.89073 0.42533 0.15336 0.06900
C 	C 	0.88484 0.39574 0.13351 -0.12800
C 	C 	0.89584 0.36852 0.15563 0.04200
C 	C 	0.91346 0.37130 0.19568 -0.08800
H 	H 	0.88227 0.44670 0.13714 0.00900
H 	H 	0.89109 0.34534 0.14160 0.02800
H 	H 	0.92187 0.35028 0.21292 0.05000
C 	C 	0.97901 0.41729 0.32850 -0.01200
C 	C 	0.98798 0.39465 0.29623 -0.02300
C 	C 	0.96846 0.38861 0.25886 -0.05800
C 	C 	0.93987 0.40520 0.25427 0.04800
N 	N 	0.93170 0.42731 0.28593 -0.10900
C 	C 	0.95044 0.43363 0.32252 0.02100
H 	H 	0.01010 0.38200 0.29987 0.03400
H 	H 	0.97582 0.37176 0.23313 0.04000
H 	H 	0.94344 0.45183 0.34643 0.03400
C 	C 	0.11113 0.75353 0.02909 -0.12400
C 	C 	0.08806 0.75612 0.06413 0.08000
C 	C 	0.06894 0.78321 0.06616 -0.08700
C 	C 	0.07273 0.80776 0.03454 0.00200
C 	C 	0.09475 0.80450 0.99835 0.00600
C 	C 	0.11379 0.77740 0.99613 0.00400
H 	H 	0.05190 0.78573 0.09365 0.04900
H 	H 	0.13135 0.77527 0.96925 0.03200
C 	C 	0.08444 0.73108 0.10101 -0.12700
C 	C 	0.09948 0.83049 0.96333 -0.09700
C 	C 	0.05379 0.71193 0.09566 -0.00600
H 	H 	0.03316 0.72800 0.09195 0.02400
H 	H 	0.05003 0.69784 0.12727 0.02500
C 	C 	0.12514 0.85376 0.97881 -0.01700
H 	H 	0.14823 0.84131 0.98110 0.02800
H 	H 	0.11937 0.86334 0.01312 0.02700
H 	H 	0.10490 0.71483 0.10310 0.06500
H 	H 	0.07702 0.84320 0.95653 0.05100
C 	C 	0.05486 0.68928 0.05510 -0.16400
C 	C 	0.12832 0.88133 0.94548 -0.16000
H 	H 	0.07429 0.67190 0.05954 0.07200
H 	H 	0.03218 0.67617 0.05301 0.05800
H 	H 	0.05823 0.70245 0.02263 0.07500
H 	H 	0.08367 0.74314 0.13474 0.04900
H 	H 	0.13460 0.87259 0.91085 0.05700
H 	H 	0.14727 0.89749 0.95738 0.05700
H 	H 	0.10580 0.89478 0.94367 0.05800
H 	H 	0.10663 0.81988 0.93011 0.04700
C 	C 	0.08179 0.62497 0.79956 0.06400
N 	N 	0.10952 0.64130 0.79753 -0.11900
C 	C 	0.12481 0.65068 0.83615 0.06300
C 	C 	0.11233 0.64329 0.87930 -0.10400
C 	C 	0.08429 0.62584 0.88201 0.03000
C 	C 	0.06890 0.61671 0.84207 -0.08200
H 	H 	0.14677 0.66368 0.83330 0.03000
H 	H 	0.07423 0.61973 0.91491 0.03100
H 	H 	0.04707 0.60338 0.84405 0.04900
C 	C 	0.03417 0.59745 0.67816 -0.01300
C 	C 	0.01909 0.61769 0.70907 -0.02000
C 	C 	0.03469 0.62707 0.74870 -0.05900
C 	C 	0.06544 0.61623 0.75713 0.05000
N 	N 	0.08013 0.59720 0.72616 -0.11000
C 	C 	0.06523 0.58753 0.68736 0.02100
H 	H 	0.99526 0.62593 0.70254 0.03300
H 	H 	0.02296 0.64256 0.77281 0.04300
H 	H 	0.07729 0.57162 0.66426 0.03300
C 	C 	0.12200 0.59566 0.21046 0.06500
N 	N 	0.11772 0.62754 0.21101 -0.12100
C 	C 	0.12559 0.64586 0.17447 0.06800
C 	C 	0.13847 0.63207 0.13498 -0.12200
C 	C 	0.14178 0.59919 0.13312 0.03800
C 	C 	0.13336 0.58089 0.17079 -0.08700
H 	H 	0.12199 0.67114 0.17621 0.02100
H 	H 	0.15139 0.58787 0.10296 0.02800
H 	H 	0.13583 0.55545 0.16932 0.04800
C 	C 	0.09984 0.54218 0.32926 -0.01200
C 	C 	0.12817 0.53634 0.30617 -0.02200
C 	C 	0.13576 0.55392 0.26743 -0.05800
C 	C 	0.11456 0.57694 0.25155 0.04800
N 	N 	0.08729 0.58267 0.27500 -0.10900
C 	C 	0.07951 0.56583 0.31305 0.02100
H 	H 	0.14420 0.51818 0.31813 0.03400
H 	H 	0.15796 0.54977 0.24996 0.04100
H 	H 	0.05732 0.57047 0.33024 0.03400
C 	C 	0.79728 0.89950 0.00799 0.00300
C 	C 	0.78522 0.88222 0.04566 0.00500
C 	C 	0.75632 0.86629 0.04124 -0.00800
C 	C 	0.73998 0.86620 0.99962 -0.11100
C 	C 	0.75290 0.88198 0.96128 0.07700
C 	C 	0.78114 0.89907 0.96618 -0.08000
H 	H 	0.74662 0.85365 0.07031 0.02200
H 	H 	0.79058 0.91211 0.93731 0.04900
C 	C 	0.80335 0.87949 0.09033 -0.09700
C 	C 	0.73704 0.88082 0.91487 -0.12100
C 	C 	0.81904 0.84698 0.09591 -0.02100
H 	H 	0.80130 0.82788 0.09127 0.02200
H 	H 	0.82832 0.84504 0.13132 0.02400
C 	C 	0.71574 0.90972 0.90744 -0.01200
H 	H 	0.72888 0.93174 0.91570 0.03100
H 	H 	0.69484 0.90828 0.93036 0.04300
H 	H 	0.82139 0.89821 0.09481 0.05100
H 	H 	0.72306 0.85881 0.91051 0.06000
C 	C 	0.84644 0.84196 0.06265 -0.15700
C 	C 	0.70441 0.91177 0.85799 -0.16400
H 	H 	0.86429 0.86102 0.06647 0.05800
H 	H 	0.85803 0.81900 0.07006 0.05200
H 	H 	0.83770 0.84143 0.02690 0.05800
H 	H 	0.78642 0.88281 0.11904 0.04500
H 	H 	0.72468 0.91660 0.83485 0.06000
H 	H 	0.68702 0.93127 0.85455 0.06400
H 	H 	0.69295 0.88935 0.84749 0.07300
H 	H 	0.75561 0.88021 0.88792 0.05100
C 	C 	0.59990 0.94192 0.74352 0.05100
N 	N 	0.57991 0.92878 0.71238 -0.10800
C 	C 	0.57085 0.94472 0.67413 0.02200
C 	C 	0.58242 0.97524 0.66565 -0.01200
C 	C 	0.60346 0.98884 0.69681 -0.02000
C 	C 	0.61236 0.97215 0.73578 -0.05900
H 	H 	0.55420 0.93389 0.65085 0.03400
H 	H 	0.61281 0.01232 0.69090 0.03400
H 	H 	0.62880 0.98258 0.75980 0.04200
C 	C 	0.62318 0.88923 0.86254 -0.10400
C 	C 	0.61266 0.92041 0.86710 0.03000
C 	C 	0.60525 0.93793 0.82824 -0.08200
C 	C 	0.60846 0.92412 0.78492 0.06400
N 	N 	0.61836 0.89362 0.78117 -0.11900
C 	C 	0.62591 0.87614 0.81867 0.06200
H 	H 	0.61052 0.93112 0.90056 0.03300
H 	H 	0.59682 0.96197 0.83173 0.05000
H 	H 	0.63385 0.85202 0.81440 0.03000
C 	C 	0.57644 0.89824 0.23897 0.04900
N 	N 	0.57017 0.87624 0.27177 -0.10900
C 	C 	0.55238 0.88334 0.30919 0.02000
C 	C 	0.54004 0.91377 0.31473 -0.01200
C 	C 	0.54732 0.93707 0.28246 -0.02100
C 	C 	0.56575 0.92938 0.24456 -0.05800
H 	H 	0.54729 0.86515 0.33415 0.03200
H 	H 	0.53842 0.96090 0.28648 0.03600
H 	H 	0.57145 0.94737 0.21954 0.04300
C 	C 	0.62377 0.86570 0.11968 -0.11700
C 	C 	0.59775 0.88595 0.11519 0.03900
C 	C 	0.58263 0.89743 0.15411 -0.08500
C 	C 	0.59387 0.88889 0.19750 0.06600
N 	N 	0.61950 0.86956 0.20123 -0.12100
C 	C 	0.63466 0.85811 0.16367 0.07000
H 	H 	0.58898 0.89241 0.08170 0.03100
H 	H 	0.56184 0.91216 0.15059 0.05000
H 	H 	0.65467 0.84247 0.16805 0.01800
C 	C 	0.17863 0.10004 0.01279 0.01100
C 	C 	0.18133 0.13315 0.01851 -0.00100
C 	C 	0.21140 0.14713 0.01795 -0.00100
C 	C 	0.23861 0.12879 0.01153 -0.11900
C 	C 	0.23589 0.09581 0.00494 0.08500
C 	C 	0.20581 0.08179 0.00541 -0.09100
H 	H 	0.21366 0.17237 0.02324 0.01500
H 	H 	0.20363 0.05641 0.00160 0.04900
C 	C 	0.15249 0.15396 0.02601 -0.09900
C 	C 	0.26494 0.07496 0.00130 -0.13800
C 	C 	0.14554 0.17523 0.98465 -0.01700
H 	H 	0.16684 0.18922 0.97538 0.02600
H 	H 	0.12666 0.19224 0.99428 0.02400
C 	C 	0.27800 0.06688 0.04883 -0.01000
H 	H 	0.25969 0.05410 0.06891 0.02800
H 	H 	0.28421 0.08885 0.06752 0.04100
H 	H 	0.13088 0.14042 0.03490 0.04800
H 	H 	0.28348 0.08649 0.98023 0.06800
C 	C 	0.13440 0.15660 0.94300 -0.15900
C 	C 	0.30749 0.04620 0.04554 -0.16400
H 	H 	0.11291 0.14270 0.95148 0.06000
H 	H 	0.12847 0.17323 0.91494 0.05500
H 	H 	0.15335 0.14054 0.93077 0.06300
H 	H 	0.15712 0.16938 0.05600 0.04000
H 	H 	0.30174 0.02340 0.02877 0.05800
H 	H 	0.31664 0.04129 0.08039 0.06200
H 	H 	0.32625 0.05842 0.02567 0.06900
H 	H 	0.25881 0.05268 0.98321 0.06000
C 	C 	0.40956 0.09911 0.73241 0.04900
N 	N 	0.41986 0.12269 0.70431 -0.11400
C 	C 	0.43838 0.11658 0.66729 0.02100
C 	C 	0.44755 0.08559 0.65738 -0.01200
C 	C 	0.43681 0.06095 0.68520 -0.02100
C 	C 	0.41768 0.06765 0.72281 -0.05300
H 	H 	0.44640 0.13591 0.64598 0.03100
H 	H 	0.44350 0.03677 0.67797 0.03800
H 	H 	0.40939 0.04861 0.74444 0.05000
C 	C 	0.36086 0.12391 0.85469 -0.10200
C 	C 	0.35644 0.14213 0.81522 0.02900
C 	C 	0.37160 0.13365 0.77473 -0.07800
C 	C 	0.39124 0.10696 0.77392 0.06400
N 	N 	0.39460 0.08905 0.81235 -0.12300
C 	C 	0.37985 0.09678 0.85218 0.06500
H 	H 	0.34157 0.16295 0.81597 0.02900
H 	H 	0.36827 0.14784 0.74429 0.05400
H 	H 	0.38341 0.08215 0.88209 0.03300
C 	C 	0.39097 0.06260 0.22865 0.04900
N 	N 	0.37175 0.06032 0.26592 -0.11000
C 	C 	0.38017 0.04303 0.30322 0.02100
C 	C 	0.40922 0.02715 0.30414 -0.01200
C 	C 	0.42965 0.02979 0.26662 -0.02100
C 	C 	0.42056 0.04760 0.22876 -0.05800
H 	H 	0.36418 0.04148 0.33206 0.03200
H 	H 	0.45258 0.01840 0.26697 0.03400
H 	H 	0.43650 0.05004 0.19999 0.04300
C 	C 	0.36023 0.11871 0.11649 -0.12000
C 	C 	0.37322 0.08882 0.10817 0.03800
C 	C 	0.38350 0.07033 0.14468 -0.08700
C 	C 	0.38107 0.08202 0.18941 0.06600
N 	N 	0.36823 0.11106 0.19687 -0.12100
C 	C 	0.35801 0.12950 0.16174 0.07100
H 	H 	0.37532 0.07992 0.07361 0.02700
H 	H 	0.39294 0.04696 0.13835 0.04800
H 	H 	0.34771 0.15235 0.16909 0.01700
C 	C 	0.41930 0.29085 0.98807 0.01400
C 	C 	0.42003 0.27156 0.02761 -0.00400
C 	C 	0.40197 0.24377 0.02865 -0.00700
C 	C 	0.38417 0.23462 0.99058 -0.11400
C 	C 	0.38710 0.25154 0.94916 0.08400
C 	C 	0.40414 0.27996 0.94854 -0.09000
H 	H 	0.40106 0.22974 0.05965 0.03000
H 	H 	0.40464 0.29417 0.91770 0.05000
C 	C 	0.44103 0.27946 0.06808 -0.09300
C 	C 	0.37193 0.23977 0.90556 -0.13100
C 	C 	0.47180 0.26019 0.06771 -0.02200
H 	H 	0.46644 0.23458 0.06453 0.03200
H 	H 	0.48407 0.26372 0.10089 0.02700
C 	C 	0.33892 0.25410 0.89904 -0.00700
H 	H 	0.34064 0.28030 0.89826 0.02500
H 	H 	0.32332 0.24728 0.92796 0.03100
H 	H 	0.44676 0.30498 0.07030 0.04800
H 	H 	0.37056 0.21360 0.90561 0.07100
C 	C 	0.49421 0.27011 0.02930 -0.16300
C 	C 	0.32381 0.24288 0.85455 -0.16800
H 	H 	0.49934 0.29579 0.03134 0.05900
H 	H 	0.51682 0.25699 0.03259 0.05600
H 	H 	0.48379 0.26453 0.99545 0.06700
H 	H 	0.42799 0.27391 0.10011 0.04100
H 	H 	0.33859 0.24990 0.82483 0.06000
H 	H 	0.30009 0.25380 0.85077 0.05700
H 	H 	0.32100 0.21682 0.85479 0.07100
H 	H 	0.38712 0.24628 0.87594 0.05600
C 	C 	0.30251 0.59722 0.99075 0.01700
C 	C 	0.30544 0.62875 0.00650 -0.00800
C 	C 	0.27824 0.64751 0.01071 0.00300
C 	C 	0.24816 0.63501 0.00190 -0.12400
C 	C 	0.24528 0.60363 0.98553 0.08800
C 	C 	0.27264 0.58536 0.97910 -0.09200
H 	H 	0.28042 0.67172 0.02233 0.01700
H 	H 	0.27057 0.56144 0.96624 0.05100
C 	C 	0.33724 0.64275 0.01980 -0.09100
C 	C 	0.21335 0.58927 0.97432 -0.12300
C 	C 	0.34052 0.64723 0.07171 -0.02300
H 	H 	0.32041 0.66132 0.08524 0.02400
H 	H 	0.36251 0.66082 0.07850 0.02300
C 	C 	0.20512 0.59417 0.92370 -0.01400
H 	H 	0.22464 0.58511 0.90184 0.03000
H 	H 	0.20214 0.61973 0.91640 0.04300
H 	H 	0.35767 0.62898 0.00698 0.04600
H 	H 	0.19433 0.59901 0.99639 0.05800
C 	C 	0.34248 0.61594 0.09751 -0.15700
C 	C 	0.17470 0.57692 0.91077 -0.16700
H 	H 	0.36226 0.60136 0.08417 0.05900
H 	H 	0.34681 0.62064 0.13430 0.05400
H 	H 	0.31991 0.60274 0.09439 0.06100
H 	H 	0.33942 0.66632 0.00332 0.03900
H 	H 	0.17808 0.55099 0.91369 0.06000
H 	H 	0.16831 0.58266 0.87491 0.06600
H 	H 	0.15493 0.58421 0.93339 0.07300
H 	H 	0.21403 0.56351 0.98180 0.05300
C 	C 	0.70009 0.42257 0.00932 0.00500
C 	C 	0.72267 0.44268 0.03024 0.00200
C 	C 	0.75468 0.43392 0.03002 -0.00200
C 	C 	0.76493 0.40742 0.00549 -0.11600
C 	C 	0.74272 0.38899 0.98110 0.08500
C 	C 	0.71035 0.39588 0.98515 -0.08300
H 	H 	0.77189 0.44867 0.04729 0.02300
H 	H 	0.69315 0.38094 0.96820 0.04900
C 	C 	0.71366 0.47486 0.04921 -0.09400
C 	C 	0.75305 0.36277 0.94917 -0.12500
C 	C 	0.72238 0.50177 0.01627 -0.02700
H 	H 	0.74773 0.50015 0.00645 0.02400
H 	H 	0.71902 0.52462 0.03429 0.02300
C 	C 	0.74926 0.33035 0.97189 -0.00800
H 	H 	0.72471 0.32754 0.98493 0.02800
H 	H 	0.76580 0.32833 0.00125 0.03400
H 	H 	0.68834 0.47682 0.05845 0.04900
H 	H 	0.77783 0.36588 0.93737 0.06200
C 	C 	0.70198 0.50194 0.97321 -0.15100
C 	C 	0.75599 0.30373 0.93812 -0.16400
H 	H 	0.67650 0.50285 0.98234 0.05900
H 	H 	0.70775 0.52309 0.95237 0.05300
H 	H 	0.70672 0.48062 0.95223 0.06200
H 	H 	0.72672 0.47861 0.08172 0.04200
H 	H 	0.74050 0.30582 0.90762 0.05800
H 	H 	0.75109 0.28067 0.95470 0.05700
H 	H 	0.78113 0.30437 0.92717 0.06200
H 	H 	0.73819 0.36374 0.91783 0.05300
C 	C 	0.56679 0.69586 0.98856 0.01300
C 	C 	0.55445 0.72248 0.01176 -0.00400
C 	C 	0.57176 0.75075 0.01199 -0.00400
C 	C 	0.60076 0.75291 0.98902 -0.11300
C 	C 	0.61145 0.72729 0.96210 0.08200
C 	C 	0.59436 0.69890 0.96234 -0.08900
H 	H 	0.56308 0.77084 0.03125 0.03500
H 	H 	0.60340 0.67863 0.94385 0.05000
C 	C 	0.52245 0.72147 0.03531 -0.08900
C 	C 	0.64215 0.72914 0.93548 -0.13600
C 	C 	0.49663 0.73765 0.00675 -0.03600
H 	H 	0.50411 0.76195 0.99725 0.03800
H 	H 	0.47493 0.73974 0.02798 0.02700
C 	C 	0.67030 0.71907 0.96518 -0.00200
H 	H 	0.66718 0.69412 0.97616 0.02100
H 	H 	0.67165 0.73406 0.99627 -0.01400
H 	H 	0.51482 0.69714 0.04408 0.04700
H 	H 	0.64593 0.75332 0.92184 0.06400
C 	C 	0.48843 0.71917 0.96352 -0.14800
C 	C 	0.70145 0.72199 0.93913 -0.17200
H 	H 	0.48132 0.69465 0.97227 0.05800
H 	H 	0.46837 0.73084 0.94581 0.05500
H 	H 	0.50891 0.71863 0.93977 0.06100
H 	H 	0.52432 0.73407 0.06853 0.04300
H 	H 	0.70111 0.70682 0.90818 0.05900
H 	H 	0.72125 0.71430 0.96141 0.04800
H 	H 	0.70559 0.74692 0.92886 0.05100
H 	H 	0.64077 0.71339 0.90512 0.05500
