data_crystal

_cell_length_a 46.50437
_cell_length_b 45.15674
_cell_length_c 26.17219
_cell_angle_alpha 91.55574
_cell_angle_beta  88.66700
_cell_angle_gamma 89.91237

_symmetry_space_group_name_	'P 1'
_symmetry_space_group_name_H-M	'P 1'

loop_
_symmetry_equiv_pos_as_xyz
  x,y,z

loop_
_atom_site_label
_atom_site_type_symbol
_atom_site_fract_x
_atom_site_fract_y
_atom_site_fract_z
_atom_site_charge
Cd	Cd	0.02212 0.87786 0.23427 1.24100
Cd	Cd	0.00041 0.90904 0.35500 1.18300
O 	O 	0.05851 0.83840 0.23355 -0.32100
O 	O 	0.03602 0.84972 0.16384 -0.34500
C 	C 	0.05494 0.83302 0.18517 0.27300
O 	O 	0.98491 0.90759 0.21719 -0.37000
O 	O 	0.98970 0.93743 0.28897 -0.42400
C 	C 	0.97520 0.92921 0.24831 0.27600
C 	C 	0.98278 0.84623 0.29787 0.30000
O 	O 	0.04476 0.90644 0.31244 -0.44500
O 	O 	0.98329 0.83552 0.25103 -0.29500
O 	O 	0.00199 0.86632 0.30739 -0.53700
C 	C 	0.05509 0.92538 0.28005 0.29100
O 	O 	0.05262 0.91810 0.23178 -0.34900
Cd	Cd	0.01562 0.89487 0.95246 1.24100
Cd	Cd	0.01440 0.92882 0.83177 1.17900
O 	O 	0.05382 0.85858 0.96759 -0.32000
O 	O 	0.02204 0.87116 0.02732 -0.34700
C 	C 	0.04326 0.85372 0.01299 0.27500
O 	O 	0.98227 0.93055 0.96280 -0.37100
O 	O 	0.97308 0.93394 0.87740 -0.43100
C 	C 	0.97079 0.94473 0.92461 0.27900
C 	C 	0.05473 0.94129 0.93061 0.29600
O 	O 	0.01059 0.87965 0.85481 -0.44000
O 	O 	0.05394 0.93639 0.97966 -0.28600
O 	O 	0.04118 0.92229 0.90226 -0.54200
C 	C 	0.98715 0.86568 0.86804 0.29300
O 	O 	0.98187 0.86402 0.91701 -0.36100
C 	C 	0.04328 0.64427 0.93816 0.11900
N 	N 	0.03085 0.62114 0.96247 -0.14100
C 	C 	0.02480 0.59563 0.93603 0.11900
N 	N 	0.03164 0.59322 0.88529 -0.14100
C 	C 	0.04427 0.61613 0.86090 0.12000
N 	N 	0.04994 0.64165 0.88737 -0.14100
C 	C 	0.08991 0.62946 0.24066 0.11900
N 	N 	0.09143 0.62807 0.29239 -0.14100
C 	C 	0.08363 0.60297 0.31658 0.12000
N 	N 	0.07408 0.57924 0.28885 -0.14100
C 	C 	0.07240 0.58049 0.23718 0.12000
N 	N 	0.08096 0.60538 0.21320 -0.14100
Cd	Cd	0.84326 0.89687 0.71458 1.24100
Cd	Cd	0.86838 0.91268 0.83988 1.18400
O 	O 	0.80353 0.86151 0.70508 -0.31700
O 	O 	0.81907 0.88770 0.64084 -0.34500
C 	C 	0.80011 0.86896 0.65802 0.27400
O 	O 	0.87424 0.93469 0.70505 -0.37400
O 	O 	0.89943 0.92506 0.77723 -0.42800
C 	C 	0.89388 0.94233 0.73888 0.27700
C 	C 	0.81052 0.93592 0.78106 0.30200
O 	O 	0.86573 0.86904 0.79094 -0.43900
O 	O 	0.80222 0.93705 0.73387 -0.30100
O 	O 	0.82931 0.91541 0.78945 -0.52800
C 	C 	0.88542 0.85873 0.75884 0.29500
O 	O 	0.88127 0.86391 0.71074 -0.35300
Cd	Cd	0.83554 0.89190 0.43503 1.24100
Cd	Cd	0.87636 0.89569 0.31956 1.17700
O 	O 	0.79668 0.85503 0.44148 -0.31800
O 	O 	0.80758 0.88431 0.50613 -0.34700
C 	C 	0.78994 0.86464 0.48746 0.27300
O 	O 	0.87136 0.92289 0.45457 -0.37600
O 	O 	0.88209 0.93555 0.37203 -0.43800
C 	C 	0.88897 0.93491 0.42061 0.28000
C 	C 	0.87935 0.84932 0.41281 0.29800
O 	O 	0.82743 0.90186 0.33736 -0.44000
O 	O 	0.87132 0.84848 0.46100 -0.28600
O 	O 	0.86367 0.86559 0.38455 -0.54200
C 	C 	0.81433 0.92630 0.35203 0.28100
O 	O 	0.81029 0.93025 0.40122 -0.37000
C 	C 	0.59676 0.87374 0.72937 0.11900
N 	N 	0.59348 0.86890 0.78019 -0.14000
C 	C 	0.56756 0.87337 0.80413 0.11900
N 	N 	0.54488 0.88275 0.77704 -0.14100
C 	C 	0.54805 0.88778 0.72623 0.11900
N 	N 	0.57399 0.88303 0.70240 -0.14000
C 	C 	0.58598 0.87801 0.42792 0.11900
N 	N 	0.58407 0.87288 0.37666 -0.14000
C 	C 	0.56099 0.88278 0.35114 0.11900
N 	N 	0.53982 0.89802 0.37706 -0.14000
C 	C 	0.54159 0.90323 0.42824 0.11900
N 	N 	0.56454 0.89301 0.45369 -0.14000
Cd	Cd	0.84512 0.06777 0.21723 1.24000
Cd	Cd	0.84866 0.03155 0.33668 1.18100
O 	O 	0.81796 0.11448 0.21706 -0.32200
O 	O 	0.84335 0.09891 0.14983 -0.34700
C 	C 	0.82685 0.11945 0.17071 0.27600
O 	O 	0.87688 0.03120 0.20138 -0.37400
O 	O 	0.86195 0.00273 0.26834 -0.41700
C 	C 	0.88159 0.00964 0.23347 0.28500
C 	C 	0.88509 0.08835 0.29126 0.29800
O 	O 	0.81094 0.04458 0.28585 -0.45400
O 	O 	0.89001 0.10011 0.24688 -0.30000
O 	O 	0.86115 0.07371 0.29546 -0.52700
C 	C 	0.80005 0.02789 0.24986 0.29700
O 	O 	0.80781 0.03462 0.20331 -0.35200
Cd	Cd	0.84086 0.08695 0.94378 1.24200
Cd	Cd	0.85477 0.05355 0.82104 1.18200
O 	O 	0.79984 0.12125 0.95330 -0.31700
O 	O 	0.82620 0.11027 0.01837 -0.34700
C 	C 	0.80576 0.12670 0.00088 0.27200
O 	O 	0.87419 0.05265 0.95818 -0.37500
O 	O 	0.89113 0.04919 0.87528 -0.42900
C 	C 	0.88887 0.03825 0.92140 0.27800
C 	C 	0.80640 0.03904 0.90897 0.30100
O 	O 	0.85438 0.10258 0.84986 -0.43700
O 	O 	0.80246 0.04342 0.95826 -0.29200
O 	O 	0.82166 0.05873 0.88592 -0.53900
C 	C 	0.87581 0.11742 0.86896 0.29200
O 	O 	0.87629 0.11939 0.91875 -0.36000
C 	C 	0.80482 0.33159 0.93107 0.11900
N 	N 	0.80136 0.33350 0.87980 -0.14100
C 	C 	0.81125 0.35744 0.85458 0.12000
N 	N 	0.82472 0.37955 0.88064 -0.14000
C 	C 	0.82847 0.37778 0.93180 0.11900
N 	N 	0.81835 0.35385 0.95699 -0.14100
C 	C 	0.84027 0.33089 0.23467 0.11800
N 	N 	0.83263 0.33557 0.28472 -0.14000
C 	C 	0.84218 0.35987 0.31079 0.11900
N 	N 	0.85944 0.37959 0.28676 -0.14000
C 	C 	0.86667 0.37538 0.23652 0.11900
N 	N 	0.85697 0.35112 0.21049 -0.14100
Cd	Cd	0.02921 0.07861 0.73551 1.24000
Cd	Cd	0.99610 0.06567 0.85658 1.18000
O 	O 	0.07135 0.11132 0.73267 -0.32000
O 	O 	0.05809 0.08557 0.66506 -0.34500
C 	C 	0.07686 0.10350 0.68535 0.27300
O 	O 	0.99708 0.04274 0.71966 -0.37600
O 	O 	0.96817 0.05345 0.79016 -0.42600
C 	C 	0.97539 0.03590 0.75083 0.27700
C 	C 	0.05561 0.03850 0.80273 0.29700
O 	O 	0.00360 0.10852 0.81101 -0.44600
O 	O 	0.06592 0.03542 0.75609 -0.29700
O 	O 	0.03802 0.06059 0.81055 -0.53400
C 	C 	0.98641 0.11946 0.77763 0.29700
O 	O 	0.99342 0.11378 0.72976 -0.35400
Cd	Cd	0.02065 0.07253 0.45883 1.24100
Cd	Cd	0.99020 0.05959 0.33804 1.17500
O 	O 	0.05501 0.11350 0.47025 -0.31900
O 	O 	0.04217 0.08538 0.53348 -0.34700
C 	C 	0.05968 0.10563 0.51674 0.27400
O 	O 	0.98693 0.03804 0.47305 -0.37800
O 	O 	0.98687 0.02064 0.38978 -0.42100
C 	C 	0.97605 0.02069 0.43685 0.28600
C 	C 	0.97434 0.10875 0.42807 0.29900
O 	O 	0.03757 0.05964 0.36380 -0.45100
O 	O 	0.97876 0.11245 0.47705 -0.28900
O 	O 	0.99423 0.09393 0.40303 -0.53800
C 	C 	0.05162 0.03723 0.38157 0.29700
O 	O 	0.05202 0.03580 0.43121 -0.35600
C 	C 	0.27821 0.09596 0.75941 0.11900
N 	N 	0.30068 0.08254 0.73409 -0.13900
C 	C 	0.32484 0.07564 0.75943 0.11900
N 	N 	0.32662 0.08254 0.81013 -0.14000
C 	C 	0.30435 0.09636 0.83547 0.11900
N 	N 	0.28027 0.10319 0.80989 -0.14000
C 	C 	0.26636 0.10577 0.45862 0.11800
N 	N 	0.26923 0.11049 0.40768 -0.14100
C 	C 	0.29429 0.10384 0.38225 0.11900
N 	N 	0.31665 0.09265 0.40804 -0.14100
C 	C 	0.31402 0.08793 0.45899 0.11900
N 	N 	0.28882 0.09446 0.48425 -0.14100
C 	C 	0.29649 0.10664 0.32614 -0.02200
C 	C 	0.27222 0.10179 0.29601 -0.01900
C 	C 	0.27470 0.10249 0.24273 -0.04800
C 	C 	0.30144 0.10801 0.21896 0.01500
C 	C 	0.32556 0.11357 0.24895 -0.04900
C 	C 	0.32311 0.11291 0.30230 -0.01900
C 	C 	0.30436 0.10681 0.16266 0.00500
C 	C 	0.29912 0.08021 0.13551 -0.03900
C 	C 	0.30036 0.07937 0.08209 -0.03900
C 	C 	0.30687 0.10511 0.05531 0.00500
C 	C 	0.31279 0.13156 0.08244 -0.03900
C 	C 	0.31153 0.13241 0.13594 -0.03900
C 	C 	0.30605 0.10466 0.99898 0.01500
C 	C 	0.28000 0.09938 0.97439 -0.04800
C 	C 	0.27936 0.09725 0.92108 -0.01800
C 	C 	0.30481 0.10043 0.89169 -0.02100
C 	C 	0.33080 0.10634 0.91634 -0.01900
C 	C 	0.33139 0.10845 0.96977 -0.04800
H 	H 	0.25158 0.09682 0.31377 0.04300
H 	H 	0.25593 0.09837 0.21987 0.04400
H 	H 	0.34627 0.11795 0.23093 0.04300
H 	H 	0.34192 0.11709 0.32503 0.04000
H 	H 	0.29382 0.06028 0.15582 0.04100
H 	H 	0.29595 0.05881 0.06147 0.04100
H 	H 	0.31784 0.15154 0.06209 0.04100
H 	H 	0.31566 0.15303 0.15657 0.04100
H 	H 	0.26031 0.09657 0.99665 0.04400
H 	H 	0.25919 0.09249 0.90269 0.04200
H 	H 	0.35052 0.10916 0.89418 0.04100
H 	H 	0.35159 0.11262 0.98845 0.04300
C 	C 	0.13610 0.08279 0.52932 -0.05700
C 	C 	0.14964 0.11049 0.53359 0.02500
C 	C 	0.13278 0.13603 0.54302 -0.05800
C 	C 	0.10272 0.13419 0.54295 0.01200
C 	C 	0.08928 0.10671 0.53493 -0.06800
C 	C 	0.10612 0.08089 0.53103 0.01300
C 	C 	0.18089 0.11308 0.52177 0.00800
H 	H 	0.14294 0.15743 0.54828 0.04600
H 	H 	0.08995 0.15425 0.54665 0.03600
H 	H 	0.09599 0.05952 0.52515 0.04400
H 	H 	0.14873 0.06286 0.52237 0.05100
C 	C 	0.20047 0.09310 0.54224 -0.04600
C 	C 	0.22896 0.09192 0.52394 -0.02100
C 	C 	0.23818 0.11067 0.48486 -0.02000
C 	C 	0.21918 0.13210 0.46714 -0.02000
C 	C 	0.19067 0.13315 0.48517 -0.04500
H 	H 	0.19337 0.07776 0.57097 0.04300
H 	H 	0.24346 0.07556 0.53859 0.04200
H 	H 	0.22620 0.14726 0.43801 0.04200
H 	H 	0.17587 0.14868 0.46897 0.04400
C 	C 	0.15245 0.12947 0.67346 -0.05800
C 	C 	0.16673 0.10208 0.67021 0.02300
C 	C 	0.15120 0.07642 0.65743 -0.05900
C 	C 	0.12124 0.07750 0.65526 0.01400
C 	C 	0.10663 0.10427 0.66572 -0.07000
C 	C 	0.12246 0.13055 0.67127 0.01200
C 	C 	0.19577 0.09937 0.69103 0.00900
H 	H 	0.16216 0.05528 0.65296 0.04900
H 	H 	0.10930 0.05713 0.64959 0.04600
H 	H 	0.11143 0.15150 0.67790 0.03600
H 	H 	0.16432 0.14958 0.68178 0.04800
C 	C 	0.21925 0.11396 0.66838 -0.04700
C 	C 	0.24642 0.11248 0.69019 -0.01900
C 	C 	0.25003 0.09703 0.73542 -0.02100
C 	C 	0.22655 0.08247 0.75792 -0.01800
C 	C 	0.19960 0.08356 0.73580 -0.04500
H 	H 	0.21640 0.12670 0.63438 0.04400
H 	H 	0.26447 0.12375 0.67249 0.04100
H 	H 	0.22921 0.07030 0.79262 0.04100
H 	H 	0.18154 0.07253 0.75392 0.04900
C 	C 	0.80974 0.35816 0.79852 -0.02200
C 	C 	0.81983 0.33401 0.76830 -0.01800
C 	C 	0.82055 0.33557 0.71500 -0.04800
C 	C 	0.81076 0.36114 0.69136 0.01500
C 	C 	0.79991 0.38498 0.72161 -0.04800
C 	C 	0.79963 0.38359 0.77496 -0.01800
C 	C 	0.81283 0.36333 0.63505 0.00500
C 	C 	0.82738 0.38719 0.61291 -0.03800
C 	C 	0.83072 0.38842 0.55977 -0.03800
C 	C 	0.82001 0.36553 0.52823 0.00500
C 	C 	0.80507 0.34189 0.55032 -0.03800
C 	C 	0.80128 0.34094 0.60342 -0.03800
C 	C 	0.82548 0.36567 0.47228 0.01500
C 	C 	0.85370 0.36833 0.45265 -0.04800
C 	C 	0.85904 0.36731 0.39984 -0.01700
C 	C 	0.83627 0.36319 0.36613 -0.02100
C 	C 	0.80803 0.36079 0.38564 -0.01800
C 	C 	0.80262 0.36227 0.43845 -0.04800
H 	H 	0.82783 0.31435 0.78611 0.04200
H 	H 	0.82917 0.31713 0.69213 0.04500
H 	H 	0.79195 0.40467 0.70382 0.04300
H 	H 	0.79164 0.40228 0.79795 0.03900
H 	H 	0.83647 0.40455 0.63689 0.04100
H 	H 	0.84197 0.40695 0.54315 0.04100
H 	H 	0.79679 0.32405 0.52642 0.04100
H 	H 	0.78971 0.32260 0.62001 0.04100
H 	H 	0.87155 0.37070 0.47833 0.04400
H 	H 	0.88094 0.36899 0.38518 0.04100
H 	H 	0.79029 0.35773 0.35991 0.04000
H 	H 	0.78072 0.36056 0.45310 0.04300
C 	C 	0.95661 0.12731 0.79266 -0.08600
C 	C 	0.93384 0.11465 0.76549 -0.01000
C 	C 	0.90606 0.11427 0.78720 -0.00200
C 	C 	0.90121 0.12602 0.83742 -0.08200
C 	C 	0.92302 0.14276 0.86062 -0.00800
C 	C 	0.95067 0.14339 0.83855 -0.00600
H 	H 	0.93800 0.10379 0.72856 0.05000
H 	H 	0.91882 0.15407 0.89714 0.04900
C 	C 	0.97289 0.16038 0.86343 0.06900
C 	C 	0.88273 0.10309 0.75680 0.02000
N 	N 	0.99069 0.17399 0.88336 -0.11500
N 	N 	0.86411 0.09413 0.73223 -0.15300
C 	C 	0.82013 0.20656 0.02634 -0.05800
C 	C 	0.79245 0.21819 0.02055 0.02300
C 	C 	0.76864 0.19914 0.02239 -0.06000
C 	C 	0.77279 0.16846 0.02320 0.01100
C 	C 	0.80075 0.15668 0.02229 -0.07200
C 	C 	0.82425 0.17593 0.02745 0.01200
C 	C 	0.78912 0.24861 0.00228 0.00900
H 	H 	0.74708 0.20796 0.01940 0.04800
H 	H 	0.75442 0.15383 0.02036 0.03700
H 	H 	0.84593 0.16714 0.02797 0.03900
H 	H 	0.83863 0.22111 0.02648 0.04700
C 	C 	0.79919 0.27277 0.03147 -0.04700
C 	C 	0.80299 0.30036 0.00921 -0.02000
C 	C 	0.79636 0.30410 0.95752 -0.02000
C 	C 	0.78354 0.28056 0.93008 -0.02000
C 	C 	0.78014 0.25297 0.95225 -0.04400
H 	H 	0.80501 0.26991 0.07078 0.04500
H 	H 	0.81185 0.31848 0.03172 0.04300
H 	H 	0.77719 0.28326 0.89093 0.04400
H 	H 	0.77188 0.23456 0.92963 0.04600
C 	C 	0.90306 0.09577 0.33565 -0.10900
C 	C 	0.91405 0.12468 0.34136 -0.01000
C 	C 	0.93567 0.13080 0.37663 -0.00900
C 	C 	0.94496 0.10840 0.40875 -0.10000
C 	C 	0.93007 0.08158 0.40930 -0.05000
C 	C 	0.91194 0.07378 0.36932 -0.01600
H 	H 	0.90690 0.14193 0.31651 0.04500
H 	H 	0.93604 0.06511 0.43620 0.02900
C 	C 	0.90778 0.04273 0.35741 -0.05500
C 	C 	0.94871 0.15979 0.37868 0.07100
N 	N 	0.90507 0.01768 0.34840 -0.16800
N 	N 	0.95916 0.18303 0.38034 -0.11300
C 	C 	0.80121 0.19649 0.15161 -0.05800
C 	C 	0.82730 0.21196 0.15531 0.02300
C 	C 	0.85336 0.19616 0.15152 -0.05900
C 	C 	0.85321 0.16519 0.14926 0.01200
C 	C 	0.82708 0.14978 0.15219 -0.06800
C 	C 	0.80111 0.16553 0.15077 0.01400
C 	C 	0.82726 0.24387 0.17012 0.00700
H 	H 	0.87369 0.20775 0.15350 0.04800
H 	H 	0.87342 0.15323 0.14968 0.04200
H 	H 	0.78079 0.15382 0.15170 0.03700
H 	H 	0.78099 0.20843 0.15179 0.04700
C 	C 	0.84623 0.26347 0.14583 -0.04700
C 	C 	0.84935 0.29247 0.16502 -0.02200
C 	C 	0.83345 0.30223 0.20874 -0.02000
C 	C 	0.81288 0.28326 0.23049 -0.02000
C 	C 	0.81009 0.25419 0.21177 -0.04400
H 	H 	0.85892 0.25608 0.11264 0.04000
H 	H 	0.86480 0.30696 0.14687 0.04300
H 	H 	0.79970 0.29070 0.26303 0.04300
H 	H 	0.79532 0.23936 0.23086 0.04400
C 	C 	0.52054 0.92291 0.45467 -0.02200
C 	C 	0.51590 0.95146 0.43669 -0.01800
C 	C 	0.49441 0.96948 0.45910 -0.04900
C 	C 	0.47714 0.95903 0.49939 0.01400
C 	C 	0.48226 0.93076 0.51835 -0.04900
C 	C 	0.50413 0.91288 0.49641 -0.01900
C 	C 	0.45197 0.97649 0.51780 0.00600
C 	C 	0.45580 0.00494 0.53946 -0.03800
C 	C 	0.43250 0.02449 0.54468 -0.03800
C 	C 	0.40523 0.01578 0.52798 0.00400
C 	C 	0.40091 0.98637 0.51107 -0.03800
C 	C 	0.42418 0.96681 0.50608 -0.03900
C 	C 	0.38280 0.03833 0.51989 0.01300
C 	C 	0.38874 0.06206 0.48775 -0.04900
C 	C 	0.36640 0.07979 0.47100 -0.01900
C 	C 	0.33782 0.07382 0.48576 -0.02200
C 	C 	0.33213 0.05170 0.52138 -0.01900
C 	C 	0.35457 0.03408 0.53849 -0.04900
H 	H 	0.52868 0.95951 0.40484 0.04000
H 	H 	0.49055 0.99122 0.44406 0.04300
H 	H 	0.46895 0.92243 0.54925 0.04300
H 	H 	0.50772 0.89094 0.51082 0.04000
H 	H 	0.47706 0.01234 0.55004 0.03900
H 	H 	0.43592 0.04684 0.55938 0.03800
H 	H 	0.37988 0.97921 0.49879 0.04000
H 	H 	0.42091 0.94470 0.49016 0.04000
H 	H 	0.41048 0.06581 0.47362 0.04200
H 	H 	0.37118 0.09735 0.44473 0.04000
H 	H 	0.31023 0.04718 0.53383 0.04100
H 	H 	0.34985 0.01634 0.56444 0.04300
C 	C 	0.52442 0.90177 0.69875 -0.02100
C 	C 	0.49574 0.89671 0.71403 -0.01900
C 	C 	0.47377 0.91464 0.69649 -0.04800
C 	C 	0.48018 0.93765 0.66307 0.01300
C 	C 	0.50841 0.94077 0.64376 -0.04900
C 	C 	0.53047 0.92296 0.66160 -0.01900
C 	C 	0.45854 0.96095 0.65497 0.00500
C 	C 	0.43079 0.95317 0.63943 -0.03900
C 	C 	0.40820 0.97352 0.64555 -0.03700
C 	C 	0.41326 0.00183 0.66687 0.00500
C 	C 	0.44151 0.01064 0.67688 -0.03900
C 	C 	0.46407 0.99027 0.67107 -0.03800
C 	C 	0.38902 0.01971 0.68774 0.01400
C 	C 	0.37450 0.01087 0.73233 -0.04900
C 	C 	0.35359 0.02920 0.75570 -0.01800
C 	C 	0.34676 0.05642 0.73441 -0.02200
C 	C 	0.36068 0.06494 0.68897 -0.01900
C 	C 	0.38202 0.04679 0.66603 -0.04900
H 	H 	0.49063 0.87976 0.74130 0.04100
H 	H 	0.45200 0.91172 0.71110 0.04200
H 	H 	0.51347 0.95793 0.61685 0.04400
H 	H 	0.55240 0.92671 0.64855 0.04200
H 	H 	0.42645 0.93091 0.62520 0.03800
H 	H 	0.38654 0.96681 0.63628 0.04000
H 	H 	0.44571 0.03266 0.69238 0.04000
H 	H 	0.48550 0.99674 0.68227 0.04000
H 	H 	0.37991 0.99008 0.74951 0.04400
H 	H 	0.34268 0.02225 0.79038 0.04000
H 	H 	0.35537 0.08582 0.67201 0.04000
H 	H 	0.39338 0.05397 0.63199 0.04400
C 	C 	0.56473 0.87067 0.86019 -0.02100
C 	C 	0.58024 0.84882 0.88514 -0.01900
C 	C 	0.57882 0.84737 0.93848 -0.04800
C 	C 	0.56194 0.86777 0.96742 0.01500
C 	C 	0.54607 0.88929 0.94248 -0.04800
C 	C 	0.54741 0.89071 0.88917 -0.01900
C 	C 	0.56158 0.86722 0.02390 0.00500
C 	C 	0.53552 0.86349 0.05116 -0.03900
C 	C 	0.53496 0.86463 0.10465 -0.03900
C 	C 	0.56044 0.86940 0.13134 0.00500
C 	C 	0.58656 0.87258 0.10412 -0.03800
C 	C 	0.58713 0.87154 0.05064 -0.03800
C 	C 	0.55963 0.87216 0.18770 0.01500
C 	C 	0.57344 0.85104 0.21694 -0.04800
C 	C 	0.57351 0.85422 0.27027 -0.01800
C 	C 	0.55986 0.87867 0.29489 -0.02100
C 	C 	0.54577 0.89963 0.26549 -0.01800
C 	C 	0.54564 0.89634 0.21220 -0.04800
H 	H 	0.59344 0.83302 0.86326 0.04200
H 	H 	0.59096 0.83050 0.95733 0.04400
H 	H 	0.53308 0.90523 0.96446 0.04300
H 	H 	0.53549 0.90781 0.87051 0.04200
H 	H 	0.51571 0.85994 0.03091 0.04000
H 	H 	0.51471 0.86201 0.12534 0.04100
H 	H 	0.60634 0.87633 0.12439 0.04300
H 	H 	0.60733 0.87456 0.02999 0.04300
H 	H 	0.58417 0.83221 0.19834 0.04400
H 	H 	0.58417 0.83769 0.29238 0.04100
H 	H 	0.53535 0.91873 0.28378 0.04100
H 	H 	0.53500 0.91281 0.18991 0.04400
C 	C 	0.80032 0.94585 0.31536 -0.08400
C 	C 	0.78001 0.96679 0.33396 -0.02100
C 	C 	0.77512 0.99252 0.30687 -0.01100
C 	C 	0.79108 0.99753 0.26159 -0.09000
C 	C 	0.80570 0.97360 0.23739 -0.00900
C 	C 	0.81056 0.94768 0.26422 -0.00300
H 	H 	0.76948 0.96399 0.37093 0.04600
H 	H 	0.81574 0.97625 0.19996 0.05300
C 	C 	0.82532 0.92311 0.23871 0.04500
C 	C 	0.75509 0.01452 0.32726 0.06600
N 	N 	0.83712 0.90343 0.21815 -0.14700
N 	N 	0.73905 0.03216 0.34361 -0.11600
C 	C 	0.91222 0.95454 0.43868 -0.07000
C 	C 	0.94100 0.94654 0.42829 -0.02000
C 	C 	0.96309 0.96711 0.43653 -0.00300
C 	C 	0.95625 0.99655 0.45106 -0.06000
C 	C 	0.92810 0.00340 0.46792 -0.02100
C 	C 	0.90592 0.98271 0.46103 0.00800
H 	H 	0.94611 0.92468 0.41240 -0.03200
H 	H 	0.92315 0.02527 0.48378 0.03900
C 	C 	0.87664 0.99117 0.47403 0.05600
C 	C 	0.99278 0.95786 0.43153 0.00300
N 	N 	0.85317 0.99795 0.48439 -0.13400
N 	N 	0.01667 0.95071 0.42790 -0.17000
C 	C 	0.64882 0.88280 0.51684 -0.04600
C 	C 	0.66821 0.86286 0.49239 0.00700
C 	C 	0.65884 0.84479 0.45159 -0.04400
C 	C 	0.63117 0.84823 0.43290 -0.02000
C 	C 	0.61267 0.87013 0.45427 -0.02000
C 	C 	0.62121 0.88649 0.49784 -0.02000
C 	C 	0.69917 0.86401 0.50428 0.02400
H 	H 	0.67347 0.82909 0.43268 0.04400
H 	H 	0.62453 0.83465 0.40053 0.04200
H 	H 	0.60702 0.90301 0.51558 0.04300
H 	H 	0.65558 0.89641 0.54909 0.04300
C 	C 	0.71396 0.89104 0.50211 -0.05900
C 	C 	0.74397 0.89151 0.50231 0.01200
C 	C 	0.75958 0.86494 0.50399 -0.07200
C 	C 	0.74482 0.83815 0.50998 0.01300
C 	C 	0.71471 0.83772 0.51084 -0.06000
H 	H 	0.70227 0.91154 0.49756 0.04800
H 	H 	0.75514 0.91236 0.49790 0.03600
H 	H 	0.75665 0.81753 0.51185 0.03500
H 	H 	0.70352 0.81682 0.51422 0.04600
C 	C 	0.91438 0.96632 0.72732 -0.06800
C 	C 	0.94397 0.95986 0.72511 -0.01700
C 	C 	0.96433 0.98261 0.72974 -0.00600
C 	C 	0.95511 0.01233 0.73518 -0.07000
C 	C 	0.92564 0.01896 0.73264 -0.02000
C 	C 	0.90527 0.99615 0.72897 -0.00800
H 	H 	0.95108 0.93695 0.72297 0.03500
H 	H 	0.91850 0.04184 0.73580 0.02300
C 	C 	0.87501 0.00350 0.72968 0.01300
C 	C 	0.99447 0.97509 0.73239 0.02800
N 	N 	0.85077 0.00937 0.73024 -0.16700
N 	N 	0.01861 0.96911 0.73459 -0.16400
C 	C 	0.80343 0.96018 0.81863 -0.10500
C 	C 	0.79060 0.98611 0.80124 -0.01300
C 	C 	0.78802 0.01122 0.83328 -0.02000
C 	C 	0.79913 0.01094 0.88283 -0.10400
C 	C 	0.80870 0.98411 0.90239 -0.02200
C 	C 	0.81002 0.95842 0.87097 -0.01600
H 	H 	0.78340 0.98705 0.76220 0.04800
H 	H 	0.81591 0.98342 0.94147 0.04000
C 	C 	0.81532 0.93024 0.89378 -0.00800
C 	C 	0.77457 0.03756 0.81457 0.05200
N 	N 	0.81949 0.90768 0.91224 -0.14700
N 	N 	0.76382 0.05865 0.79959 -0.11600
C 	C 	0.72564 0.84148 0.64280 -0.05700
C 	C 	0.71104 0.86862 0.64096 0.02400
C 	C 	0.72651 0.89432 0.62935 -0.05800
C 	C 	0.75656 0.89363 0.62689 0.01400
C 	C 	0.77130 0.86726 0.63641 -0.06600
C 	C 	0.75570 0.84079 0.64020 0.01200
C 	C 	0.68130 0.87116 0.66150 0.00900
H 	H 	0.71536 0.91521 0.62572 0.04800
H 	H 	0.76833 0.91408 0.62208 0.04600
H 	H 	0.76686 0.82009 0.64582 0.03800
H 	H 	0.71386 0.82130 0.65013 0.04800
C 	C 	0.65892 0.85524 0.63851 -0.04600
C 	C 	0.63108 0.85651 0.66008 -0.02000
C 	C 	0.62568 0.87307 0.70549 -0.02100
C 	C 	0.64807 0.88898 0.72831 -0.01900
C 	C 	0.67569 0.88810 0.70639 -0.04500
H 	H 	0.66312 0.84175 0.60429 0.04300
H 	H 	0.61390 0.84422 0.64206 0.04100
H 	H 	0.64405 0.90205 0.76310 0.04300
H 	H 	0.69290 0.90016 0.72480 0.04800
C 	C 	0.05732 0.55682 0.20832 -0.02200
C 	C 	0.04205 0.56359 0.16431 -0.01800
C 	C 	0.02350 0.54273 0.14255 -0.04900
C 	C 	0.01993 0.51497 0.16452 0.01300
C 	C 	0.03690 0.50735 0.20588 -0.04700
C 	C 	0.05559 0.52812 0.22754 -0.01900
C 	C 	0.99571 0.49578 0.14959 0.00800
C 	C 	0.96735 0.50558 0.15892 -0.03900
C 	C 	0.94484 0.48514 0.16054 -0.03600
C 	C 	0.95055 0.45481 0.15261 0.00400
C 	C 	0.97821 0.44567 0.13616 -0.03700
C 	C 	0.00076 0.46609 0.13489 -0.04300
C 	C 	0.92954 0.43273 0.17074 0.01500
C 	C 	0.90128 0.43263 0.15290 -0.05100
C 	C 	0.88085 0.41326 0.17340 -0.01900
C 	C 	0.88836 0.39445 0.21275 -0.02200
C 	C 	0.91658 0.39442 0.23035 -0.01800
C 	C 	0.93709 0.41338 0.20937 -0.04900
H 	H 	0.04349 0.58544 0.14838 0.04100
H 	H 	0.01095 0.54862 0.11011 0.04400
H 	H 	0.03457 0.48583 0.22280 0.04300
H 	H 	0.06791 0.52223 0.26040 0.04100
H 	H 	0.96306 0.52866 0.16865 0.04100
H 	H 	0.92339 0.49261 0.17161 0.04100
H 	H 	0.98260 0.42246 0.12774 0.03900
H 	H 	0.02243 0.45849 0.12572 0.04000
H 	H 	0.89505 0.44786 0.12388 0.04400
H 	H 	0.85909 0.41334 0.15948 0.03900
H 	H 	0.92255 0.37988 0.26063 0.03900
H 	H 	0.95869 0.41360 0.22406 0.04300
C 	C 	0.00922 0.57122 0.96145 -0.02200
C 	C 	0.99299 0.57671 0.00679 -0.01900
C 	C 	0.97541 0.55452 0.02693 -0.05000
C 	C 	0.97366 0.52671 0.00181 0.01400
C 	C 	0.99097 0.52082 0.95797 -0.04700
C 	C 	0.00887 0.54276 0.93835 -0.02000
C 	C 	0.95148 0.50497 0.01771 0.00600
C 	C 	0.95805 0.47456 0.01704 -0.03700
C 	C 	0.93594 0.45361 0.01556 -0.03800
C 	C 	0.90707 0.46292 0.01680 0.00300
C 	C 	0.90070 0.49304 0.02594 -0.04000
C 	C 	0.92274 0.51404 0.02534 -0.03800
C 	C 	0.88412 0.44223 0.00029 0.01400
C 	C 	0.88230 0.41365 0.02007 -0.05000
C 	C 	0.86308 0.39296 0.99950 -0.01800
C 	C 	0.84546 0.40066 0.95895 -0.02200
C 	C 	0.84617 0.42972 0.94124 -0.01800
C 	C 	0.86554 0.45027 0.96138 -0.04800
H 	H 	0.99335 0.59833 0.02571 0.04000
H 	H 	0.96278 0.55913 0.06154 0.04100
H 	H 	0.98977 0.49956 0.93793 0.04300
H 	H 	0.02187 0.53784 0.90429 0.04200
H 	H 	0.98023 0.46720 0.01434 0.04000
H 	H 	0.94126 0.43035 0.01045 0.04000
H 	H 	0.87854 0.50037 0.02980 0.03900
H 	H 	0.91731 0.53738 0.02746 0.04000
H 	H 	0.89641 0.40714 0.05012 0.04300
H 	H 	0.86269 0.37067 0.01380 0.04100
H 	H 	0.83227 0.43617 0.91078 0.04100
H 	H 	0.86679 0.47215 0.94550 0.04300
C 	C 	0.08285 0.60250 0.37311 -0.02100
C 	C 	0.10262 0.61930 0.40148 -0.01900
C 	C 	0.10087 0.62009 0.45496 -0.04800
C 	C 	0.07937 0.60408 0.48060 0.01500
C 	C 	0.05990 0.58692 0.45236 -0.04800
C 	C 	0.06162 0.58611 0.39893 -0.01900
C 	C 	0.07670 0.60593 0.53697 0.00500
C 	C 	0.07948 0.58030 0.56567 -0.03900
C 	C 	0.07534 0.58175 0.61879 -0.03900
C 	C 	0.06840 0.60884 0.64369 0.00500
C 	C 	0.06610 0.63455 0.61509 -0.03800
C 	C 	0.07023 0.63311 0.56197 -0.03800
C 	C 	0.06269 0.61012 0.69947 0.01500
C 	C 	0.08025 0.62726 0.73154 -0.04800
C 	C 	0.07441 0.62904 0.78422 -0.01800
C 	C 	0.05090 0.61369 0.80537 -0.02200
C 	C 	0.03348 0.59635 0.77319 -0.01800
C 	C 	0.03936 0.59459 0.72055 -0.04800
H 	H 	0.11931 0.63178 0.38216 0.04100
H 	H 	0.11613 0.63323 0.47645 0.04300
H 	H 	0.04316 0.57458 0.47180 0.04300
H 	H 	0.04607 0.57324 0.37765 0.04200
H 	H 	0.08463 0.55925 0.54677 0.04000
H 	H 	0.07735 0.56181 0.64056 0.04000
H 	H 	0.06069 0.65555 0.63394 0.04200
H 	H 	0.06793 0.65299 0.54016 0.04200
H 	H 	0.09841 0.63920 0.71565 0.04400
H 	H 	0.08823 0.64223 0.80858 0.04100
H 	H 	0.01513 0.58459 0.78881 0.04200
H 	H 	0.02559 0.58141 0.69606 0.04400
C 	C 	0.94956 0.96841 0.93597 -0.06800
C 	C 	0.95880 0.99795 0.93782 -0.03100
C 	C 	0.93879 0.02118 0.93843 0.00000
C 	C 	0.90920 0.01492 0.93510 -0.06900
C 	C 	0.89981 0.98543 0.93621 -0.03100
C 	C 	0.91982 0.96215 0.93683 0.00100
H 	H 	0.98156 0.00285 0.93606 0.00300
H 	H 	0.87701 0.98056 0.93423 0.00900
C 	C 	0.90973 0.93190 0.93666 0.02400
C 	C 	0.94877 0.05145 0.94155 0.01500
N 	N 	0.90170 0.90766 0.93653 -0.16300
N 	N 	0.95667 0.07573 0.94413 -0.16800
C 	C 	0.96577 0.85543 0.83044 -0.08300
C 	C 	0.94362 0.83657 0.84690 -0.00800
C 	C 	0.91786 0.83493 0.82049 -0.00600
C 	C 	0.91436 0.85191 0.77675 -0.08400
C 	C 	0.93821 0.86649 0.75542 -0.01100
C 	C 	0.96404 0.86812 0.78173 0.00000
H 	H 	0.94578 0.82460 0.88199 0.04900
H 	H 	0.93618 0.87794 0.71976 0.05100
C 	C 	0.98876 0.88157 0.75741 0.02300
C 	C 	0.89496 0.81616 0.83895 0.07400
N 	N 	0.00852 0.89230 0.73763 -0.16200
N 	N 	0.87662 0.80113 0.85374 -0.11200
C 	C 	0.06390 0.96982 0.91014 -0.09800
C 	C 	0.08192 0.96961 0.86655 -0.04100
C 	C 	0.08195 0.99353 0.83372 0.00300
C 	C 	0.06248 0.01733 0.84328 -0.11400
C 	C 	0.04792 0.01947 0.89094 -0.01500
C 	C 	0.04925 0.99610 0.92500 -0.02100
H 	H 	0.09487 0.95015 0.85687 0.03400
H 	H 	0.03528 0.03900 0.90121 -0.05500
C 	C 	0.03582 0.99934 0.97514 0.06700
C 	C 	0.10295 0.99408 0.79219 0.07900
N 	N 	0.02507 0.00194 0.01534 -0.10900
N 	N 	0.11981 0.99447 0.75899 -0.11100
C 	C 	0.06844 0.72235 0.96718 -0.04500
C 	C 	0.05121 0.73024 0.01024 0.00800
C 	C 	0.03364 0.70871 0.03287 -0.04700
C 	C 	0.03194 0.68020 0.01077 -0.02100
C 	C 	0.04801 0.67284 0.96598 -0.02000
C 	C 	0.06711 0.69379 0.94559 -0.02000
C 	C 	0.04927 0.76170 0.02790 0.02400
H 	H 	0.02081 0.71424 0.06687 0.04100
H 	H 	0.01749 0.66420 0.02761 0.04100
H 	H 	0.08034 0.68823 0.91208 0.04200
H 	H 	0.08207 0.73869 0.94923 0.04400
C 	C 	0.07432 0.77892 0.03175 -0.05700
C 	C 	0.07237 0.80985 0.03388 0.01300
C 	C 	0.04539 0.82377 0.03326 -0.06600
C 	C 	0.02041 0.80648 0.03745 0.01200
C 	C 	0.02229 0.77559 0.03369 -0.05800
H 	H 	0.09529 0.76842 0.03026 0.04700
H 	H 	0.09185 0.82297 0.03254 0.03700
H 	H 	0.99943 0.81695 0.03848 0.04400
H 	H 	0.00274 0.76262 0.03204 0.04900
C 	C 	0.90624 0.98936 0.22392 -0.06300
C 	C 	0.90134 0.95870 0.21976 -0.02600
C 	C 	0.92417 0.93856 0.22362 -0.00800
C 	C 	0.95233 0.94915 0.23106 -0.06700
C 	C 	0.95748 0.97980 0.23084 -0.01200
C 	C 	0.93468 0.99989 0.22723 -0.00300
H 	H 	0.87961 0.95053 0.21571 0.03000
H 	H 	0.97904 0.98809 0.23659 0.03200
C 	C 	0.94055 0.03130 0.23016 0.04300
C 	C 	0.91827 0.90715 0.22283 0.00200
N 	N 	0.94535 0.05643 0.23256 -0.15400
N 	N 	0.91357 0.88198 0.22225 -0.15600
C 	C 	0.90814 0.83979 0.39490 -0.10100
C 	C 	0.91050 0.82145 0.35100 -0.03600
C 	C 	0.93598 0.82073 0.32145 0.00400
C 	C 	0.95905 0.83963 0.33494 -0.11300
C 	C 	0.95811 0.85434 0.38300 -0.02100
C 	C 	0.93281 0.85433 0.41315 -0.02000
H 	H 	0.89200 0.80880 0.33851 0.03600
H 	H 	0.97676 0.86633 0.39641 -0.05200
C 	C 	0.93216 0.86982 0.46218 0.06200
C 	C 	0.93858 0.79962 0.27911 0.08200
N 	N 	0.93166 0.88224 0.50146 -0.10900
N 	N 	0.94060 0.78267 0.24525 -0.10900
C 	C 	0.06191 0.95596 0.29687 -0.07800
C 	C 	0.07714 0.96047 0.34197 -0.02100
C 	C 	0.07694 0.98826 0.36696 0.01300
C 	C 	0.05975 0.01130 0.34842 -0.08700
C 	C 	0.04765 0.00784 0.29996 -0.01000
C 	C 	0.04943 0.98055 0.27338 -0.00200
H 	H 	0.08846 0.94212 0.35838 0.04100
H 	H 	0.03617 0.02608 0.28354 -0.01400
C 	C 	0.03915 0.97825 0.22179 0.08000
C 	C 	0.09519 0.99321 0.41030 0.08500
N 	N 	0.03097 0.97644 0.18039 -0.10700
N 	N 	0.10982 0.99717 0.44499 -0.11200
C 	C 	0.08264 0.69021 0.14508 -0.04700
C 	C 	0.09015 0.71512 0.17494 0.00900
C 	C 	0.10216 0.71127 0.22303 -0.04400
C 	C 	0.10419 0.68298 0.24299 -0.01900
C 	C 	0.09381 0.65825 0.21534 -0.02000
C 	C 	0.08438 0.66190 0.16512 -0.01900
C 	C 	0.08144 0.74498 0.15975 0.02300
H 	H 	0.10855 0.73034 0.24604 0.04600
H 	H 	0.11275 0.68049 0.28077 0.04300
H 	H 	0.07727 0.64303 0.14236 0.04200
H 	H 	0.07434 0.69288 0.10720 0.04500
C 	C 	0.10192 0.76769 0.15694 -0.06100
C 	C 	0.09305 0.79730 0.15846 0.01100
C 	C 	0.06367 0.80436 0.16242 -0.07000
C 	C 	0.04326 0.78163 0.15853 0.01400
C 	C 	0.05210 0.75203 0.15741 -0.05800
H 	H 	0.12466 0.76247 0.15720 0.04700
H 	H 	0.10901 0.81473 0.16035 0.03400
H 	H 	0.02051 0.78684 0.16059 0.04400
H 	H 	0.03608 0.73464 0.15841 0.04800
