data_crystal

_cell_length_a 22.03578
_cell_length_b 21.64415
_cell_length_c 50.47600
_cell_angle_alpha 89.89107
_cell_angle_beta  89.89279
_cell_angle_gamma 119.77894

_symmetry_space_group_name_	'P 1'
_symmetry_space_group_name_H-M	'P 1'

loop_
_symmetry_equiv_pos_as_xyz
  x,y,z

loop_
_atom_site_label
_atom_site_type_symbol
_atom_site_fract_x
_atom_site_fract_y
_atom_site_fract_z
_atom_site_charge
C 	C 	0.67075 0.48723 0.93504 0.37300
C 	C 	0.51360 0.18233 0.94098 0.41800
C 	C 	0.74263 0.37032 0.95308 0.41300
C 	C 	0.45434 0.30284 0.91958 0.29900
C 	C 	0.67007 0.25352 0.87647 0.31700
C 	C 	0.62854 0.39675 0.85426 0.31500
Ni	Ni	0.59151 0.33413 0.94978 1.14200
Ni	Ni	0.54911 0.26685 0.89053 1.12300
Ni	Ni	0.70376 0.39223 0.90121 1.14500
O 	O 	0.62151 0.44032 0.95088 -0.32700
O 	O 	0.72136 0.47654 0.92539 -0.31100
O 	O 	0.60998 0.22283 0.88890 -0.37500
O 	O 	0.57443 0.23202 0.94884 -0.34900
O 	O 	0.48945 0.18972 0.91804 -0.36400
O 	O 	0.67631 0.43485 0.87208 -0.35100
O 	O 	0.69091 0.36942 0.96637 -0.30700
O 	O 	0.73134 0.34507 0.92919 -0.36200
O 	O 	0.58858 0.32578 0.85627 -0.38400
O 	O 	0.48440 0.30076 0.94245 -0.30800
O 	O 	0.48125 0.30216 0.89610 -0.37100
O 	O 	0.70748 0.32361 0.87458 -0.36200
O 	O 	0.60948 0.34359 0.91297 -0.71900
H 	H 	0.59519 0.37861 0.90817 0.18100
C 	C 	0.86304 0.50506 0.57295 0.39600
C 	C 	0.63049 0.21975 0.56771 0.41500
C 	C 	0.66872 0.44853 0.56731 0.40200
C 	C 	0.81509 0.27890 0.57769 0.29200
C 	C 	0.62526 0.32819 0.64191 0.32400
C 	C 	0.81213 0.40416 0.65479 0.31500
Ni	Ni	0.74248 0.36359 0.55912 1.14200
Ni	Ni	0.71654 0.28481 0.61645 1.12300
Ni	Ni	0.74709 0.44514 0.61350 1.12600
O 	O 	0.84061 0.45174 0.55597 -0.33200
O 	O 	0.81841 0.51697 0.58692 -0.34700
O 	O 	0.62714 0.28242 0.62547 -0.37000
O 	O 	0.64087 0.28335 0.56328 -0.34200
O 	O 	0.66205 0.20941 0.58796 -0.35400
O 	O 	0.82304 0.45303 0.63686 -0.35900
O 	O 	0.70705 0.43521 0.55082 -0.30200
O 	O 	0.66385 0.43006 0.59217 -0.35800
O 	O 	0.76574 0.33499 0.65114 -0.38000
O 	O 	0.78009 0.29042 0.55843 -0.31100
O 	O 	0.80053 0.28006 0.60323 -0.36400
O 	O 	0.67818 0.39398 0.64348 -0.37700
O 	O 	0.75265 0.37043 0.59615 -0.71700
H 	H 	0.80305 0.38755 0.59773 0.17600
C 	C 	0.96178 0.06700 0.69349 0.29400
C 	C 	0.89544 0.85607 0.77753 0.31400
C 	C 	0.89155 0.04967 0.76665 0.31600
C 	C 	0.97544 0.85141 0.72628 0.32300
C 	C 	0.08370 0.08795 0.80011 0.31500
C 	C 	0.15921 0.09145 0.73268 0.29800
Ni	Ni	0.90669 0.94615 0.73264 1.11800
Ni	Ni	0.04534 0.96717 0.76473 1.11900
Ni	Ni	0.03584 0.10373 0.74679 1.11200
O 	O 	0.93166 0.99706 0.69610 -0.34900
O 	O 	0.98236 0.10950 0.71453 -0.36400
O 	O 	0.04698 0.01832 0.79816 -0.40300
O 	O 	0.87657 0.90096 0.76954 -0.38200
O 	O 	0.96228 0.87703 0.78100 -0.36200
O 	O 	0.11889 0.11837 0.72553 -0.38600
O 	O 	0.87144 0.01493 0.74415 -0.38700
O 	O 	0.95830 0.09283 0.77136 -0.37600
O 	O 	0.14291 0.04588 0.75307 -0.38400
O 	O 	0.92394 0.86359 0.71913 -0.36700
O 	O 	0.03705 0.90390 0.73392 -0.39600
O 	O 	0.09807 0.12834 0.77894 -0.39600
O 	O 	0.99977 0.00358 0.74294 -0.69700
H 	H 	0.02098 0.00330 0.72576 0.13200
C 	C 	0.24353 0.74305 0.41323 0.29500
C 	C 	0.40743 0.65802 0.48373 0.42900
C 	C 	0.43260 0.84237 0.43467 0.42800
C 	C 	0.22433 0.56337 0.47336 0.39400
C 	C 	0.46995 0.68305 0.40163 0.32300
C 	C 	0.27987 0.56389 0.38078 0.29600
Ni	Ni	0.31924 0.71419 0.45936 1.13100
Ni	Ni	0.34354 0.59142 0.43370 1.13200
Ni	Ni	0.36017 0.72002 0.39761 1.12300
O 	O 	0.27467 0.76406 0.43682 -0.31200
O 	O 	0.26851 0.71891 0.39439 -0.37900
O 	O 	0.42060 0.61699 0.40648 -0.36900
O 	O 	0.35976 0.67608 0.48871 -0.31100
O 	O 	0.42097 0.64906 0.45939 -0.38400
O 	O 	0.32755 0.63107 0.37445 -0.37800
O 	O 	0.41955 0.79617 0.45339 -0.35600
O 	O 	0.39916 0.82146 0.41198 -0.37600
O 	O 	0.27419 0.53827 0.40516 -0.36600
O 	O 	0.22588 0.62256 0.46593 -0.36000
O 	O 	0.26979 0.54441 0.46388 -0.31100
O 	O 	0.45628 0.73525 0.40255 -0.37700
O 	O 	0.32274 0.66591 0.42915 -0.72000
H 	H 	0.27300 0.63795 0.42426 0.17000
C 	C 	0.49593 0.79288 0.07596 0.30300
C 	C 	0.22894 0.63387 0.01781 0.42500
C 	C 	0.33940 0.82370 0.06907 0.40800
C 	C 	0.38404 0.60770 0.01803 0.39900
C 	C 	0.20366 0.62092 0.10236 0.32800
C 	C 	0.33645 0.56707 0.11154 0.30100
Ni	Ni	0.37509 0.73429 0.03615 1.12900
Ni	Ni	0.27536 0.57988 0.06202 1.12800
Ni	Ni	0.35473 0.71500 0.09978 1.12400
O 	O 	0.46661 0.80889 0.05594 -0.33800
O 	O 	0.45940 0.75811 0.09731 -0.36700
O 	O 	0.21345 0.56911 0.09364 -0.37900
O 	O 	0.29381 0.67370 0.00978 -0.31500
O 	O 	0.21531 0.61010 0.04208 -0.38500
O 	O 	0.34218 0.62792 0.12074 -0.37700
O 	O 	0.31741 0.77942 0.04930 -0.34100
O 	O 	0.37277 0.81372 0.08870 -0.35300
O 	O 	0.32938 0.55130 0.08594 -0.37000
O 	O 	0.42013 0.67697 0.02250 -0.35400
O 	O 	0.31891 0.56649 0.02747 -0.33300
O 	O 	0.25389 0.68723 0.10127 -0.37900
O 	O 	0.34988 0.67431 0.06584 -0.71900
H 	H 	0.38953 0.66545 0.06716 0.16900
C 	C 	0.06526 0.11688 0.27374 0.28100
C 	C 	0.04069 0.87324 0.20734 0.30500
C 	C 	0.07960 0.10329 0.20394 0.32100
C 	C 	0.03216 0.88120 0.28085 0.27400
C 	C 	0.86691 0.91862 0.19783 0.31900
C 	C 	0.84996 0.90990 0.27494 0.29800
Ni	Ni	0.08601 0.00329 0.24232 1.09900
Ni	Ni	0.92819 0.86820 0.23899 1.12100
Ni	Ni	0.95042 0.02504 0.23781 1.11400
O 	O 	0.10922 0.09875 0.26236 -0.37200
O 	O 	0.99638 0.07725 0.27155 -0.37400
O 	O 	0.85415 0.86932 0.21576 -0.38600
O 	O 	0.09001 0.91933 0.22307 -0.36400
O 	O 	0.98068 0.87147 0.20577 -0.36800
O 	O 	0.85825 0.95849 0.25677 -0.37600
O 	O 	0.08899 0.04835 0.20581 -0.39000
O 	O 	0.03345 0.10818 0.21908 -0.39600
O 	O 	0.87005 0.86238 0.27037 -0.38300
O 	O 	0.08104 0.94854 0.27680 -0.36300
O 	O 	0.98943 0.84178 0.26152 -0.36300
O 	O 	0.91498 0.98514 0.20172 -0.37600
O 	O 	0.98920 0.96626 0.24597 -0.70100
H 	H 	0.98572 0.96571 0.26544 0.16000
C 	C 	0.32221 0.50952 0.13061 -0.10600
C 	C 	0.34467 0.45985 0.12529 0.14400
C 	C 	0.30957 0.39218 0.13717 -0.09700
C 	C 	0.25539 0.37517 0.15540 0.00600
C 	C 	0.24005 0.42848 0.16360 0.06100
C 	C 	0.27362 0.49526 0.15104 -0.01900
N 	N 	0.40043 0.47730 0.10917 -0.20100
H 	H 	0.32392 0.35249 0.13201 0.07600
C 	C 	0.21364 0.30092 0.16513 0.00400
N 	N 	0.19264 0.41561 0.18318 -0.19100
H 	H 	0.25886 0.53465 0.15612 0.04800
C 	C 	0.23976 0.27831 0.18598 -0.09500
C 	C 	0.19892 0.21091 0.19755 0.13300
C 	C 	0.12958 0.16611 0.18848 -0.11100
C 	C 	0.10483 0.18739 0.16673 -0.01800
C 	C 	0.14661 0.25404 0.15465 0.06600
H 	H 	0.29181 0.31372 0.19350 0.06200
N 	N 	0.22641 0.18990 0.21739 -0.19900
H 	H 	0.05226 0.15268 0.15953 0.04300
N 	N 	0.12197 0.27278 0.13320 -0.19100
H 	H 	0.27562 0.22526 0.22513 0.09100
H 	H 	0.20146 0.13761 0.22429 0.07800
H 	H 	0.07173 0.23860 0.12604 0.09600
H 	H 	0.15284 0.32044 0.12304 0.10300
H 	H 	0.18004 0.45456 0.18850 0.08400
H 	H 	0.16921 0.36777 0.19376 0.09000
H 	H 	0.43183 0.52941 0.10237 0.12300
H 	H 	0.41499 0.43948 0.10438 0.12500
C 	C 	0.82193 0.90062 0.17427 -0.10600
C 	C 	0.74844 0.87003 0.17664 0.13600
C 	C 	0.70757 0.85283 0.15366 -0.09300
C 	C 	0.73891 0.87044 0.12852 0.00500
C 	C 	0.81239 0.90227 0.12611 0.07300
C 	C 	0.85317 0.91654 0.14906 -0.01700
N 	N 	0.71716 0.86000 0.20077 -0.20400
H 	H 	0.65123 0.82864 0.15538 0.06600
C 	C 	0.69421 0.85940 0.10516 0.00700
N 	N 	0.84400 0.91870 0.10193 -0.19200
H 	H 	0.90946 0.94035 0.14730 0.06400
C 	C 	0.67670 0.91165 0.09872 -0.09300
C 	C 	0.61645 0.89384 0.08384 0.15400
C 	C 	0.57209 0.82223 0.07645 -0.09500
C 	C 	0.59707 0.77410 0.07838 -0.01500
C 	C 	0.65780 0.79193 0.09295 0.07800
H 	H 	0.70756 0.96499 0.10659 0.07700
N 	N 	0.60092 0.94517 0.07710 -0.20300
H 	H 	0.56550 0.72040 0.07092 0.06400
N 	N 	0.67970 0.74361 0.09578 -0.19200
H 	H 	0.63138 0.99715 0.08407 0.13900
H 	H 	0.56143 0.93500 0.06352 0.16800
H 	H 	0.65114 0.69289 0.08748 0.12000
H 	H 	0.72637 0.75670 0.10547 0.10900
H 	H 	0.89837 0.94277 0.10036 0.11600
H 	H 	0.81508 0.90712 0.08447 0.11600
H 	H 	0.74621 0.88128 0.21799 0.10800
H 	H 	0.66267 0.83406 0.20232 0.09300
C 	C 	0.05086 0.81892 0.19330 -0.13800
C 	C 	0.99775 0.74607 0.19287 0.18700
C 	C 	0.00667 0.69788 0.17704 -0.15700
C 	C 	0.06976 0.71918 0.16369 0.02800
C 	C 	0.12390 0.79125 0.16484 0.05900
C 	C 	0.11364 0.84043 0.17954 -0.00300
N 	N 	0.93984 0.72142 0.20846 -0.20800
H 	H 	0.96558 0.64263 0.17619 0.09500
C 	C 	0.07933 0.66524 0.14907 -0.00000
N 	N 	0.18548 0.81366 0.15177 -0.18800
H 	H 	0.15442 0.89585 0.18000 0.05400
C 	C 	0.06404 0.65556 0.12194 -0.09200
C 	C 	0.09306 0.62372 0.10594 0.16100
C 	C 	0.14016 0.60478 0.11719 -0.11500
C 	C 	0.14204 0.59962 0.14484 -0.01600
C 	C 	0.11310 0.63124 0.16103 0.06200
H 	H 	0.03350 0.67684 0.11302 0.08500
N 	N 	0.07882 0.61507 0.07961 -0.20100
H 	H 	0.17337 0.57917 0.15366 0.04000
N 	N 	0.11990 0.63087 0.18779 -0.19100
H 	H 	0.04685 0.63250 0.07099 0.15800
H 	H 	0.09728 0.58842 0.06773 0.14400
H 	H 	0.14695 0.60771 0.19640 0.08400
H 	H 	0.09677 0.65169 0.20031 0.08800
H 	H 	0.22511 0.86685 0.15282 0.10900
H 	H 	0.19468 0.77894 0.14038 0.11200
H 	H 	0.93709 0.75154 0.22399 0.07700
H 	H 	0.89889 0.66909 0.20648 0.09700
C 	C 	0.53877 0.69841 0.39163 -0.10900
C 	C 	0.59910 0.75967 0.40086 0.16500
C 	C 	0.65486 0.79874 0.38337 -0.09500
C 	C 	0.65366 0.77357 0.35770 0.01100
C 	C 	0.60067 0.70389 0.35088 0.06400
C 	C 	0.54236 0.66750 0.36770 -0.01300
N 	N 	0.60220 0.78264 0.42612 -0.20000
H 	H 	0.69794 0.84978 0.38943 0.08700
C 	C 	0.70550 0.82200 0.33782 0.00700
N 	N 	0.60525 0.67223 0.32832 -0.19000
H 	H 	0.49788 0.61790 0.36127 0.05100
C 	C 	0.77697 0.84964 0.34270 -0.09200
C 	C 	0.82676 0.89103 0.32346 0.14000
C 	C 	0.80442 0.89802 0.29798 -0.10300
C 	C 	0.73372 0.87642 0.29389 -0.01700
C 	C 	0.68426 0.84113 0.31411 0.06700
H 	H 	0.79388 0.83892 0.36146 0.07300
N 	N 	0.89586 0.92451 0.32954 -0.20300
H 	H 	0.71675 0.88473 0.27472 0.04900
N 	N 	0.61722 0.82664 0.31082 -0.19100
H 	H 	0.91225 0.91855 0.34832 0.10200
H 	H 	0.93352 0.95957 0.31615 0.10200
H 	H 	0.60127 0.83765 0.29278 0.09200
H 	H 	0.58149 0.80814 0.32649 0.09800
H 	H 	0.56445 0.62221 0.32282 0.09100
H 	H 	0.65055 0.69542 0.31672 0.09600
H 	H 	0.56274 0.75243 0.43981 0.15300
H 	H 	0.64551 0.82975 0.43258 0.15600
C 	C 	0.24532 0.51200 0.35928 -0.10200
C 	C 	0.17317 0.46160 0.36094 0.13700
C 	C 	0.14594 0.39846 0.34619 -0.09500
C 	C 	0.18888 0.38640 0.32893 0.00500
C 	C 	0.25932 0.44036 0.32506 0.06200
C 	C 	0.28693 0.50269 0.34038 -0.02000
N 	N 	0.12986 0.47379 0.37656 -0.20100
H 	H 	0.09122 0.35847 0.34823 0.06800
C 	C 	0.15895 0.31748 0.31468 0.00000
N 	N 	0.30088 0.43225 0.30707 -0.19100
H 	H 	0.34191 0.54214 0.33864 0.05000
C 	C 	0.11964 0.30819 0.29178 -0.09400
C 	C 	0.08601 0.24234 0.27873 0.12400
C 	C 	0.09472 0.18528 0.28817 -0.09800
C 	C 	0.13540 0.19514 0.31080 -0.02700
C 	C 	0.16686 0.26040 0.32442 0.06800
H 	H 	0.11367 0.35199 0.28443 0.05700
N 	N 	0.04557 0.23447 0.25726 -0.20000
H 	H 	0.14232 0.15176 0.31796 0.04500
N 	N 	0.20449 0.26781 0.34671 -0.19200
H 	H 	0.04488 0.27854 0.24910 0.08600
H 	H 	0.01082 0.18458 0.24966 0.08600
H 	H 	0.21023 0.22550 0.35368 0.09800
H 	H 	0.22818 0.31528 0.35739 0.10400
H 	H 	0.35313 0.47180 0.30471 0.08800
H 	H 	0.28170 0.38732 0.29501 0.09200
H 	H 	0.14750 0.52265 0.38601 0.10900
H 	H 	0.07711 0.43527 0.37851 0.11100
C 	C 	0.19177 0.76359 0.40539 -0.08200
C 	C 	0.21349 0.83165 0.39425 0.15000
C 	C 	0.16510 0.84346 0.38045 -0.08900
C 	C 	0.09737 0.78740 0.37579 0.00300
C 	C 	0.07357 0.72191 0.38916 0.07900
C 	C 	0.12117 0.71063 0.40399 -0.02200
N 	N 	0.28132 0.88456 0.39550 -0.20100
H 	H 	0.18222 0.89469 0.37109 0.07100
C 	C 	0.05818 0.79354 0.35313 0.00100
N 	N 	0.00551 0.66978 0.38771 -0.21500
H 	H 	0.10408 0.65923 0.41319 0.06600
C 	C 	0.05994 0.76258 0.32897 -0.09500
C 	C 	0.05158 0.79016 0.30491 0.12900
C 	C 	0.03537 0.84594 0.30535 -0.10000
C 	C 	0.02658 0.87162 0.32969 -0.02600
C 	C 	0.03574 0.84429 0.35362 0.06700
H 	H 	0.07508 0.72194 0.32873 0.06000
N 	N 	0.06340 0.76592 0.28168 -0.20400
H 	H 	0.01509 0.91476 0.33001 0.04000
N 	N 	0.02419 0.86781 0.37701 -0.19200
H 	H 	0.07169 0.72238 0.28160 0.08800
H 	H 	0.06858 0.79216 0.26376 0.10500
H 	H 	0.01017 0.90739 0.37733 0.09600
H 	H 	0.02649 0.84510 0.39499 0.10900
H 	H 	0.98865 0.62059 0.39692 0.13500
H 	H 	0.96837 0.67848 0.37817 0.12300
H 	H 	0.32002 0.87586 0.40341 0.15500
H 	H 	0.29638 0.93498 0.38774 0.12100
C 	C 	0.53904 0.04994 0.52775 0.21200
C 	C 	0.56059 0.07624 0.50189 -0.00300
C 	C 	0.60741 0.14879 0.49789 0.22800
C 	C 	0.63147 0.19518 0.51942 0.31600
C 	C 	0.60792 0.16957 0.54528 -0.22400
C 	C 	0.56256 0.09652 0.54938 0.32000
C 	C 	0.53158 0.02829 0.47893 0.00800
F 	F 	0.62890 0.17453 0.47301 -0.34500
F 	F 	0.54009 0.07090 0.57419 -0.38600
C 	C 	0.46160 0.00174 0.47172 0.20000
C 	C 	0.43035 0.94654 0.45334 0.33300
C 	C 	0.46919 0.91785 0.44187 -0.23900
C 	C 	0.54165 0.95177 0.44622 0.34200
C 	C 	0.57259 0.00598 0.46509 0.20200
F 	F 	0.42260 0.02617 0.48386 -0.35000
F 	F 	0.58051 0.92680 0.43435 -0.39500
F 	F 	0.36037 0.91470 0.44941 -0.40100
F 	F 	0.64135 0.03387 0.47100 -0.34800
F 	F 	0.49467 0.97943 0.53185 -0.32700
F 	F 	0.67803 0.26510 0.51519 -0.41400
C 	C 	0.03847 0.53799 0.57830 0.18400
C 	C 	0.05837 0.56316 0.55230 0.00500
C 	C 	0.02878 0.60069 0.54029 0.19800
C 	C 	0.96934 0.59796 0.55153 0.34600
C 	C 	0.93825 0.55507 0.57392 -0.22300
C 	C 	0.97916 0.53578 0.58944 0.32200
C 	C 	0.09794 0.53825 0.53600 -0.02000
F 	F 	0.05320 0.63343 0.51655 -0.35000
F 	F 	0.95513 0.50384 0.61329 -0.41600
C 	C 	0.06669 0.49580 0.51355 0.20400
C 	C 	0.10862 0.49002 0.49391 0.30900
C 	C 	0.18159 0.52677 0.49672 -0.19200
C 	C 	0.20974 0.55354 0.52187 0.30600
C 	C 	0.16888 0.56285 0.54099 0.22900
F 	F 	0.99656 0.46471 0.50988 -0.34400
F 	F 	0.27857 0.57866 0.52657 -0.35800
F 	F 	0.07935 0.45696 0.47075 -0.38900
F 	F 	0.19923 0.59994 0.56338 -0.33800
F 	F 	0.07315 0.51106 0.59194 -0.36700
F 	F 	0.93523 0.62600 0.53816 -0.35800
C 	C 	0.53480 0.50922 0.56454 0.22900
C 	C 	0.55681 0.55353 0.54214 -0.00600
C 	C 	0.61588 0.56351 0.52787 0.22900
C 	C 	0.65223 0.52890 0.53584 0.31200
C 	C 	0.62855 0.48226 0.55773 -0.20400
C 	C 	0.56895 0.47212 0.57183 0.30700
C 	C 	0.51253 0.58125 0.53156 -0.00300
F 	F 	0.63718 0.60565 0.50597 -0.34600
F 	F 	0.54328 0.42517 0.59232 -0.38900
C 	C 	0.53776 0.65491 0.53016 0.23300
C 	C 	0.49910 0.68081 0.51689 0.31700
C 	C 	0.43486 0.63317 0.50517 -0.19900
C 	C 	0.40700 0.55958 0.50882 0.32200
C 	C 	0.44597 0.53378 0.52162 0.22700
F 	F 	0.60077 0.70130 0.54078 -0.34200
F 	F 	0.34446 0.51284 0.49805 -0.37600
F 	F 	0.52610 0.75208 0.51390 -0.36300
F 	F 	0.42066 0.46245 0.52310 -0.34500
F 	F 	0.47851 0.50019 0.57873 -0.34900
F 	F 	0.71085 0.54144 0.52250 -0.35500
C 	C 	0.95145 0.09531 0.66834 -0.10300
C 	C 	0.90005 0.11624 0.66610 0.14000
C 	C 	0.89198 0.14341 0.64197 -0.09300
C 	C 	0.93146 0.14679 0.61966 0.01200
C 	C 	0.98189 0.12462 0.62164 0.08200
C 	C 	0.99171 0.09945 0.64610 0.00500
N 	N 	0.85728 0.10897 0.68680 -0.20400
H 	H 	0.85365 0.16079 0.64038 0.07000
C 	C 	0.91945 0.17472 0.59457 -0.00200
N 	N 	0.02039 0.12663 0.60022 -0.20100
H 	H 	0.03048 0.08270 0.64777 0.03100
C 	C 	0.96017 0.24782 0.58926 -0.05500
C 	C 	0.92972 0.28385 0.57675 0.14300
C 	C 	0.85776 0.24641 0.57088 -0.07500
C 	C 	0.82414 0.17196 0.56944 -0.02000
C 	C 	0.85490 0.13544 0.58134 0.08700
H 	H 	0.01267 0.27761 0.59717 0.06100
N 	N 	0.96865 0.35452 0.57149 -0.18800
H 	H 	0.77082 0.14249 0.56227 0.08000
N 	N 	0.82067 0.06316 0.58147 -0.19300
H 	H 	0.02216 0.38200 0.57558 0.13800
H 	H 	0.94658 0.38171 0.56209 0.14700
H 	H 	0.77152 0.03415 0.57266 0.12700
H 	H 	0.84375 0.03538 0.58959 0.11400
H 	H 	0.05778 0.11054 0.60191 0.10500
H 	H 	0.01325 0.14348 0.58168 0.10600
H 	H 	0.85712 0.08310 0.70424 0.11300
H 	H 	0.82134 0.12699 0.68518 0.09600
C 	C 	0.23068 0.12512 0.72175 -0.10200
C 	C 	0.28892 0.17523 0.73668 0.13300
C 	C 	0.35510 0.21159 0.72463 -0.09600
C 	C 	0.36394 0.20022 0.69794 0.00400
C 	C 	0.30595 0.14993 0.68306 0.07200
C 	C 	0.23987 0.11276 0.69519 -0.02200
N 	N 	0.28160 0.18958 0.76237 -0.20500
H 	H 	0.39982 0.24959 0.73601 0.06100
C 	C 	0.43496 0.23881 0.68618 0.00100
N 	N 	0.31320 0.13742 0.65715 -0.19200
H 	H 	0.19517 0.07489 0.68376 0.04800
C 	C 	0.47834 0.20889 0.68827 -0.09100
C 	C 	0.54398 0.24097 0.67583 0.13300
C 	C 	0.56586 0.30349 0.66046 -0.09900
C 	C 	0.52460 0.33617 0.65992 -0.01800
C 	C 	0.45907 0.30434 0.67262 0.07900
H 	H 	0.46059 0.15994 0.69940 0.06400
N 	N 	0.58592 0.21189 0.67888 -0.20100
H 	H 	0.54207 0.38482 0.64863 0.08700
N 	N 	0.41932 0.33630 0.67138 -0.19200
H 	H 	0.56842 0.16460 0.68957 0.09500
H 	H 	0.63694 0.23697 0.67154 0.08600
H 	H 	0.43713 0.38408 0.66099 0.12400
H 	H 	0.37086 0.31460 0.68087 0.10500
H 	H 	0.27009 0.10013 0.64636 0.10700
H 	H 	0.36134 0.16454 0.64742 0.11600
H 	H 	0.23297 0.16611 0.77170 0.11000
H 	H 	0.32513 0.22577 0.77325 0.09200
C 	C 	0.96762 0.78052 0.72076 -0.10700
C 	C 	0.97372 0.73884 0.74127 0.15400
C 	C 	0.94995 0.66627 0.73693 -0.10400
C 	C 	0.92583 0.63594 0.71198 0.01400
C 	C 	0.92320 0.67834 0.69103 0.07100
C 	C 	0.94401 0.75016 0.69571 -0.01300
N 	N 	0.00332 0.76816 0.76492 -0.22500
H 	H 	0.95235 0.63382 0.75284 0.07000
C 	C 	0.90236 0.55939 0.70806 -0.00700
N 	N 	0.89974 0.65027 0.66658 -0.19100
H 	H 	0.94014 0.78208 0.67992 0.06300
C 	C 	0.83201 0.50883 0.71259 -0.08900
C 	C 	0.80228 0.44242 0.69989 0.12500
C 	C 	0.84241 0.42970 0.68113 -0.09800
C 	C 	0.91547 0.47141 0.68255 -0.02300
C 	C 	0.94608 0.53786 0.69532 0.10200
H 	H 	0.79950 0.52278 0.72443 0.05700
N 	N 	0.73433 0.39321 0.70435 -0.20200
H 	H 	0.94766 0.45754 0.67047 0.08700
N 	N 	0.01651 0.58154 0.69441 -0.20400
H 	H 	0.70337 0.40445 0.71694 0.09100
H 	H 	0.71286 0.34224 0.69635 0.10100
H 	H 	0.04820 0.56647 0.68407 0.11600
H 	H 	0.04054 0.62980 0.70462 0.10100
H 	H 	0.89839 0.68212 0.65125 0.11300
H 	H 	0.88224 0.59680 0.66250 0.11100
H 	H 	0.03636 0.82279 0.76689 0.09100
H 	H 	0.99936 0.73564 0.78092 0.11700
C 	C 	0.90735 0.45913 0.99446 0.22200
C 	C 	0.95667 0.50395 0.97555 0.02600
C 	C 	0.93499 0.50730 0.94980 0.22600
C 	C 	0.86503 0.46478 0.94265 0.32200
C 	C 	0.81556 0.41850 0.96134 -0.21600
C 	C 	0.83692 0.41668 0.98739 0.32500
C 	C 	0.03142 0.54569 0.98246 -0.03100
F 	F 	0.98208 0.55139 0.93156 -0.33700
F 	F 	0.79000 0.37238 0.00562 -0.36700
C 	C 	0.07793 0.52271 0.97430 0.23300
C 	C 	0.14746 0.55878 0.98285 0.30800
C 	C 	0.17049 0.61715 0.99998 -0.20500
C 	C 	0.12588 0.64440 0.00579 0.30500
C 	C 	0.05638 0.60841 0.99726 0.23400
F 	F 	0.05493 0.46367 0.95906 -0.36200
F 	F 	0.14841 0.70247 0.02153 -0.35600
F 	F 	0.19079 0.53331 0.97639 -0.36800
F 	F 	0.01262 0.63298 0.00419 -0.35200
F 	F 	0.92793 0.45584 0.01951 -0.35100
F 	F 	0.84528 0.46830 0.91748 -0.42800
C 	C 	0.42749 0.00846 0.04660 0.20300
C 	C 	0.37553 0.00332 0.02916 -0.02500
C 	C 	0.30583 0.95034 0.03333 0.25000
C 	C 	0.29032 0.89632 0.05186 0.31000
C 	C 	0.34495 0.89352 0.06514 -0.21900
C 	C 	0.41151 0.95448 0.06517 0.32200
C 	C 	0.39556 0.04708 0.00488 0.00200
F 	F 	0.25411 0.94833 0.01814 -0.34200
F 	F 	0.46255 0.95777 0.08110 -0.39900
C 	C 	0.39769 0.01709 0.98042 0.20100
C 	C 	0.43144 0.06118 0.95861 0.31900
C 	C 	0.46417 0.13534 0.96130 -0.23300
C 	C 	0.45774 0.16472 0.98533 0.30900
C 	C 	0.42232 0.12060 0.00676 0.22100
F 	F 	0.37065 0.94565 0.97825 -0.33600
F 	F 	0.48942 0.23637 0.98837 -0.42100
F 	F 	0.43623 0.03209 0.93545 -0.39100
F 	F 	0.41803 0.14974 0.03000 -0.34900
F 	F 	0.49433 0.06266 0.04413 -0.35700
F 	F 	0.22368 0.84169 0.05426 -0.35800
C 	C 	0.64110 0.62010 0.96054 0.23200
C 	C 	0.57545 0.59269 0.94823 -0.00800
C 	C 	0.56635 0.56241 0.92290 0.22300
C 	C 	0.61699 0.54753 0.91283 0.28600
C 	C 	0.67012 0.55326 0.92970 -0.19600
C 	C 	0.68977 0.60205 0.95061 0.31000
C 	C 	0.51402 0.58291 0.96373 -0.01100
F 	F 	0.50584 0.54078 0.90944 -0.36900
F 	F 	0.74870 0.61953 0.96456 -0.35800
C 	C 	0.47593 0.61570 0.95559 0.23000
C 	C 	0.42258 0.61218 0.97173 0.31000
C 	C 	0.41029 0.58031 0.99696 -0.19900
C 	C 	0.44307 0.54115 0.00381 0.30500
C 	C 	0.49425 0.54174 0.98711 0.22300
F 	F 	0.49300 0.65408 0.93276 -0.34300
F 	F 	0.42945 0.50731 0.02758 -0.39200
F 	F 	0.38783 0.64637 0.96413 -0.36200
F 	F 	0.52653 0.50460 0.99410 -0.35200
F 	F 	0.65463 0.65761 0.98339 -0.35100
F 	F 	0.60533 0.51252 0.88949 -0.42100
C 	C 	0.83900 0.04557 0.78585 -0.11400
C 	C 	0.85511 0.05710 0.81310 0.14400
C 	C 	0.81984 0.08218 0.82899 -0.09900
C 	C 	0.75980 0.08170 0.81945 0.01000
C 	C 	0.73379 0.05256 0.79408 0.06200
C 	C 	0.77603 0.03927 0.77680 -0.01600
N 	N 	0.90054 0.03955 0.82430 -0.20500
H 	H 	0.83870 0.10138 0.84878 0.07300
C 	C 	0.73140 0.12156 0.83405 0.00300
N 	N 	0.66838 0.03640 0.78652 -0.19200
H 	H 	0.76028 0.02497 0.75637 0.04800
C 	C 	0.72441 0.17468 0.82073 -0.09000
C 	C 	0.69558 0.21117 0.83373 0.13300
C 	C 	0.69124 0.20856 0.86168 -0.09800
C 	C 	0.70038 0.15731 0.87538 -0.01400
C 	C 	0.71498 0.10994 0.86146 0.07600
H 	H 	0.73620 0.18361 0.79974 0.06300
N 	N 	0.66421 0.24037 0.81930 -0.20500
H 	H 	0.69250 0.15179 0.89665 0.07300
N 	N 	0.70953 0.05182 0.87407 -0.19200
H 	H 	0.67081 0.24556 0.79875 0.09000
H 	H 	0.62794 0.25184 0.82796 0.09800
H 	H 	0.70076 0.04553 0.89451 0.11600
H 	H 	0.70938 0.01029 0.86353 0.10600
H 	H 	0.65068 0.01790 0.76739 0.09200
H 	H 	0.63335 0.03837 0.79999 0.09700
H 	H 	0.92007 0.01191 0.81361 0.11500
H 	H 	0.91311 0.04927 0.84439 0.10700
C 	C 	0.12445 0.11971 0.82441 -0.11400
C 	C 	0.10850 0.16139 0.84163 0.13500
C 	C 	0.15086 0.19336 0.86389 -0.09700
C 	C 	0.21337 0.19203 0.86733 0.00900
C 	C 	0.23055 0.15231 0.84955 0.06400
C 	C 	0.18417 0.11399 0.82901 -0.01700
N 	N 	0.05422 0.17271 0.83652 -0.20800
H 	H 	0.13739 0.22310 0.87767 0.07400
C 	C 	0.26090 0.23278 0.88942 0.00300
N 	N 	0.29201 0.15205 0.85168 -0.19100
H 	H 	0.19664 0.08260 0.81566 0.04100
C 	C 	0.26565 0.19557 0.91139 -0.08900
C 	C 	0.32628 0.22607 0.92709 0.14500
C 	C 	0.38316 0.29304 0.91984 -0.08000
C 	C 	0.37023 0.33637 0.90276 -0.02200
C 	C 	0.31072 0.30601 0.88646 0.08400
H 	H 	0.22463 0.14131 0.91512 0.07700
N 	N 	0.33023 0.19046 0.94857 -0.20500
H 	H 	0.41118 0.39079 0.89923 0.09500
N 	N 	0.30341 0.34636 0.86742 -0.19300
H 	H 	0.29061 0.13845 0.95257 0.12500
H 	H 	0.36987 0.21603 0.96250 0.15400
H 	H 	0.34158 0.39975 0.86491 0.11900
H 	H 	0.25939 0.32574 0.85530 0.10300
H 	H 	0.30332 0.12123 0.83884 0.09300
H 	H 	0.33007 0.18392 0.86540 0.09800
H 	H 	0.02671 0.15660 0.81874 0.09900
H 	H 	0.04103 0.20092 0.84992 0.09800
C 	C 	0.63288 0.43224 0.82892 -0.09900
C 	C 	0.69193 0.45221 0.81234 0.13300
C 	C 	0.72078 0.51662 0.79831 -0.09300
C 	C 	0.69494 0.56320 0.80221 0.00100
C 	C 	0.62918 0.53784 0.81465 0.08100
C 	C 	0.59710 0.47058 0.82700 -0.01400
N 	N 	0.72538 0.41381 0.81212 -0.20600
H 	H 	0.76833 0.53411 0.78688 0.06100
C 	C 	0.74181 0.64008 0.79708 0.00500
N 	N 	0.59786 0.57835 0.81550 -0.19100
H 	H 	0.54898 0.45273 0.83808 0.07400
C 	C 	0.74173 0.66712 0.77194 -0.09500
C 	C 	0.78892 0.73828 0.76550 0.12800
C 	C 	0.84113 0.78213 0.78415 -0.10400
C 	C 	0.84197 0.75446 0.80920 -0.01900
C 	C 	0.79183 0.68429 0.81610 0.07700
H 	H 	0.70382 0.63285 0.75739 0.06200
N 	N 	0.78392 0.76368 0.74143 -0.19600
H 	H 	0.88120 0.78786 0.82353 0.06500
N 	N 	0.79206 0.65980 0.84093 -0.19200
H 	H 	0.75303 0.72854 0.72659 0.09600
H 	H 	0.80358 0.81771 0.73806 0.06600
H 	H 	0.82997 0.69231 0.85465 0.12200
H 	H 	0.75401 0.60902 0.84708 0.12700
H 	H 	0.55046 0.56026 0.82555 0.12000
H 	H 	0.61936 0.62726 0.80568 0.10600
H 	H 	0.71246 0.37278 0.82561 0.11200
H 	H 	0.76744 0.42739 0.79926 0.09700
