data_crystal

_cell_length_a 34.64203
_cell_length_b 34.81503
_cell_length_c 27.65472
_cell_angle_alpha 90.02852
_cell_angle_beta  90.10091
_cell_angle_gamma 119.91344

_symmetry_space_group_name_	'P 1'
_symmetry_space_group_name_H-M	'P 1'

loop_
_symmetry_equiv_pos_as_xyz
  x,y,z

loop_
_atom_site_label
_atom_site_type_symbol
_atom_site_fract_x
_atom_site_fract_y
_atom_site_fract_z
_atom_site_charge
C 	C 	0.00600 0.56997 0.68800 0.03200
C 	C 	0.02967 0.52842 0.39266 0.10000
C 	C 	0.01086 0.43439 0.18157 0.03000
C 	C 	0.48559 0.73638 0.42524 0.28300
C 	C 	0.53167 0.61192 0.32452 0.30300
C 	C 	0.41429 0.61214 0.41708 0.30400
C 	C 	0.59115 0.73355 0.34462 0.28300
C 	C 	0.51145 0.59048 0.48261 0.30100
C 	C 	0.59567 0.71188 0.50413 0.29700
Ni	Ni	0.49366 0.67009 0.35789 1.11600
Ni	Ni	0.57152 0.66037 0.41407 1.12300
Ni	Ni	0.49695 0.66686 0.47595 1.12500
O 	O 	0.46781 0.70765 0.38888 -0.35500
O 	O 	0.50158 0.72683 0.46462 -0.35300
O 	O 	0.55327 0.61825 0.47066 -0.37400
O 	O 	0.51076 0.63322 0.31166 -0.35200
O 	O 	0.53833 0.60737 0.37028 -0.37700
O 	O 	0.55313 0.69246 0.51816 -0.36100
O 	O 	0.43762 0.61251 0.37960 -0.36200
O 	O 	0.43318 0.64135 0.45217 -0.36300
O 	O 	0.60699 0.71151 0.45858 -0.37900
O 	O 	0.55069 0.72528 0.33236 -0.35000
O 	O 	0.59902 0.70088 0.35547 -0.36500
O 	O 	0.48279 0.60454 0.48825 -0.37200
O 	O 	0.52499 0.67377 0.41509 -0.71700
H 	H 	0.54356 0.70609 0.41729 0.15000
C 	C 	0.72719 0.49102 0.07885 0.28600
C 	C 	0.61350 0.54939 0.18515 0.30800
C 	C 	0.60406 0.43084 0.09374 0.30300
C 	C 	0.73754 0.60504 0.16610 0.28100
C 	C 	0.58943 0.53236 0.03366 0.30700
C 	C 	0.71282 0.60882 0.00542 0.28100
Ni	Ni	0.66933 0.50921 0.15148 1.11800
Ni	Ni	0.66407 0.58927 0.09715 1.12600
Ni	Ni	0.66121 0.51092 0.03387 1.12400
O 	O 	0.70240 0.47903 0.11895 -0.35200
O 	O 	0.71950 0.51106 0.04209 -0.36200
O 	O 	0.62100 0.57345 0.04176 -0.37600
O 	O 	0.63838 0.53263 0.19917 -0.35000
O 	O 	0.60990 0.55586 0.13929 -0.37900
O 	O 	0.68873 0.56651 0.99142 -0.35200
O 	O 	0.60828 0.45481 0.13234 -0.35500
O 	O 	0.63301 0.44757 0.05835 -0.36500
O 	O 	0.71500 0.62096 0.05114 -0.37600
O 	O 	0.72837 0.56377 0.17453 -0.35300
O 	O 	0.70511 0.61385 0.15637 -0.35800
O 	O 	0.59935 0.50102 0.02619 -0.37300
O 	O 	0.67416 0.54075 0.09446 -0.71800
H 	H 	0.70677 0.55736 0.09128 0.15700
C 	C 	0.84287 0.90447 0.74683 0.28700
C 	C 	0.77068 0.73522 0.85072 0.30500
C 	C 	0.89548 0.84717 0.76019 0.29500
C 	C 	0.71200 0.80136 0.81367 0.28200
C 	C 	0.79341 0.72152 0.70448 0.30600
C 	C 	0.72535 0.77519 0.65831 0.28900
Ni	Ni	0.81016 0.82742 0.81371 1.11700
Ni	Ni	0.73286 0.74225 0.75697 1.12600
Ni	Ni	0.81698 0.81504 0.69747 1.12500
O 	O 	0.81647 0.88434 0.78385 -0.36600
O 	O 	0.84480 0.88252 0.70785 -0.35600
O 	O 	0.76860 0.71275 0.74335 -0.37500
O 	O 	0.80857 0.77160 0.84283 -0.35900
O 	O 	0.73452 0.72856 0.82814 -0.36400
O 	O 	0.76544 0.81138 0.65937 -0.36100
O 	O 	0.87845 0.85532 0.79882 -0.35400
O 	O 	0.86970 0.81585 0.72994 -0.37400
O 	O 	0.71545 0.74055 0.68645 -0.36600
O 	O 	0.74671 0.80913 0.84131 -0.34700
O 	O 	0.69706 0.77041 0.77939 -0.35700
O 	O 	0.79880 0.75328 0.67466 -0.36900
O 	O 	0.78308 0.80078 0.75477 -0.71900
H 	H 	0.76792 0.81746 0.74657 0.16100
C 	C 	0.25560 0.38630 0.85702 0.28400
C 	C 	0.38406 0.56905 0.91862 0.30400
C 	C 	0.38356 0.45071 0.83270 0.30300
C 	C 	0.27180 0.51414 0.92326 0.29000
C 	C 	0.40771 0.47129 0.98063 0.30900
C 	C 	0.28057 0.39634 0.01314 0.27600
Ni	Ni	0.32288 0.48454 0.86215 1.11700
Ni	Ni	0.33377 0.48985 0.97982 1.12600
Ni	Ni	0.33202 0.40894 0.92165 1.12600
O 	O 	0.28309 0.42171 0.83126 -0.35200
O 	O 	0.27058 0.37157 0.89262 -0.35500
O 	O 	0.37770 0.47379 0.00754 -0.37800
O 	O 	0.35907 0.55208 0.87978 -0.35800
O 	O 	0.38736 0.54348 0.95124 -0.37500
O 	O 	0.31054 0.38978 0.99042 -0.35700
O 	O 	0.38120 0.48690 0.83883 -0.35400
O 	O 	0.35380 0.41342 0.85261 -0.36300
O 	O 	0.28388 0.43625 0.01368 -0.35700
O 	O 	0.26818 0.48713 0.88775 -0.36500
O 	O 	0.29376 0.51682 0.96429 -0.35300
O 	O 	0.39565 0.44503 0.94269 -0.37000
O 	O 	0.32051 0.45730 0.92149 -0.71600
H 	H 	0.28815 0.44065 0.92668 0.15800
C 	C 	0.37119 0.25629 0.65503 0.27900
C 	C 	0.55631 0.38194 0.59587 0.30400
C 	C 	0.44122 0.38362 0.68261 0.30100
C 	C 	0.49572 0.26819 0.58472 0.29000
C 	C 	0.46136 0.41178 0.53684 0.30600
C 	C 	0.38449 0.28949 0.49639 0.28600
Ni	Ni	0.47081 0.32063 0.65009 1.11800
Ni	Ni	0.47721 0.33645 0.53350 1.12500
Ni	Ni	0.39714 0.33489 0.59304 1.12500
O 	O 	0.40725 0.28275 0.68094 -0.34600
O 	O 	0.35772 0.27258 0.61926 -0.35500
O 	O 	0.46350 0.38266 0.50827 -0.36900
O 	O 	0.53856 0.35375 0.63185 -0.35700
O 	O 	0.53079 0.38768 0.56528 -0.37600
O 	O 	0.37819 0.31777 0.52298 -0.36400
O 	O 	0.47655 0.37964 0.67554 -0.35500
O 	O 	0.40297 0.35491 0.66307 -0.36200
O 	O 	0.42302 0.28959 0.49767 -0.36300
O 	O 	0.47038 0.26556 0.62164 -0.36500
O 	O 	0.50209 0.29432 0.54636 -0.35900
O 	O 	0.43654 0.39883 0.57590 -0.37300
O 	O 	0.44372 0.32075 0.59125 -0.71800
H 	H 	0.42597 0.28881 0.58438 0.16000
C 	C 	0.25078 0.18693 0.17943 0.28200
C 	C 	0.07628 0.14639 0.24852 0.30800
C 	C 	0.19813 0.25677 0.15496 0.30300
C 	C 	0.13996 0.08473 0.25967 0.28900
C 	C 	0.17484 0.26008 0.30662 0.30300
C 	C 	0.25450 0.21886 0.34022 0.29400
Ni	Ni	0.15465 0.16044 0.19068 1.11800
Ni	Ni	0.15608 0.16788 0.30844 1.12600
Ni	Ni	0.23524 0.24540 0.24617 1.12300
O 	O 	0.20963 0.15709 0.16672 -0.34900
O 	O 	0.26164 0.22848 0.18949 -0.36500
O 	O 	0.14577 0.21925 0.31939 -0.36600
O 	O 	0.10066 0.16701 0.21065 -0.35900
O 	O 	0.09254 0.13294 0.28325 -0.36400
O 	O 	0.26804 0.22967 0.29488 -0.37600
O 	O 	0.17600 0.21436 0.14325 -0.35000
O 	O 	0.20627 0.26879 0.20042 -0.37900
O 	O 	0.21147 0.19313 0.35165 -0.35800
O 	O 	0.12456 0.09705 0.22213 -0.35200
O 	O 	0.15660 0.11034 0.29872 -0.35400
O 	O 	0.21672 0.27150 0.29962 -0.38000
O 	O 	0.18621 0.18697 0.24807 -0.71800
H 	H 	0.20325 0.17152 0.25153 0.15200
C 	C 	0.50774 0.23905 0.08301 0.28000
C 	C 	0.42804 0.05825 0.17295 0.29700
C 	C 	0.55688 0.18392 0.08791 0.29200
C 	C 	0.37661 0.12693 0.15431 0.28700
C 	C 	0.44968 0.06049 0.01467 0.29800
C 	C 	0.37982 0.11002 0.99269 0.29200
Ni	Ni	0.47286 0.15594 0.14561 1.11600
Ni	Ni	0.39296 0.07366 0.08269 1.12400
Ni	Ni	0.47595 0.15417 0.02486 1.11900
O 	O 	0.48954 0.21967 0.12447 -0.36000
O 	O 	0.49225 0.21800 0.04102 -0.35800
O 	O 	0.40848 0.04561 0.02845 -0.37200
O 	O 	0.45945 0.09881 0.18416 -0.34500
O 	O 	0.41866 0.04637 0.12756 -0.36600
O 	O 	0.42115 0.14375 0.98612 -0.35000
O 	O 	0.53650 0.16880 0.12948 -0.35600
O 	O 	0.53656 0.16541 0.04711 -0.36800
O 	O 	0.36426 0.09648 0.03671 -0.37700
O 	O 	0.41553 0.15035 0.17538 -0.35400
O 	O 	0.36368 0.08648 0.13909 -0.36300
O 	O 	0.47189 0.09979 0.99504 -0.36100
O 	O 	0.44532 0.13127 0.08508 -0.70400
H 	H 	0.42983 0.14842 0.08279 0.13400
C 	C 	0.14701 0.05098 0.73597 0.29100
C 	C 	0.21130 0.93690 0.65377 0.30000
C 	C 	0.08782 0.93587 0.72821 0.30700
C 	C 	0.27403 0.06618 0.67586 0.27900
C 	C 	0.18424 0.91228 0.79518 0.30600
C 	C 	0.25412 0.03738 0.83495 0.29100
Ni	Ni	0.17508 0.99700 0.67611 1.10900
Ni	Ni	0.24952 0.99033 0.74145 1.11800
Ni	Ni	0.16368 0.98410 0.79288 1.11800
O 	O 	0.17150 0.05147 0.69913 -0.36100
O 	O 	0.13679 0.02324 0.77360 -0.35200
O 	O 	0.21396 0.92642 0.76053 -0.37500
O 	O 	0.17455 0.93917 0.65491 -0.35600
O 	O 	0.24790 0.96890 0.67288 -0.37200
O 	O 	0.21397 0.03337 0.83068 -0.35700
O 	O 	0.10612 0.96131 0.69013 -0.35800
O 	O 	0.11296 0.93112 0.76007 -0.38100
O 	O 	0.26488 0.01082 0.81116 -0.35700
O 	O 	0.23977 0.03782 0.64858 -0.33900
O 	O 	0.28703 0.05210 0.71401 -0.35400
O 	O 	0.17910 0.94054 0.82212 -0.37300
O 	O 	0.20005 0.00006 0.73742 -0.70500
H 	H 	0.21580 0.03220 0.74343 0.15700
C 	C 	0.27904 0.75803 0.42493 0.28600
C 	C 	0.36005 0.93374 0.33184 0.30200
C 	C 	0.39717 0.83623 0.40710 0.30700
C 	C 	0.23900 0.85597 0.36465 0.28400
C 	C 	0.39888 0.94248 0.48119 0.30800
C 	C 	0.27438 0.86550 0.52038 0.28700
Ni	Ni	0.31876 0.83929 0.36145 1.11700
Ni	Ni	0.31554 0.91408 0.42817 1.12500
Ni	Ni	0.34018 0.84618 0.47670 1.12700
O 	O 	0.27335 0.77637 0.38549 -0.35900
O 	O 	0.31271 0.78075 0.45582 -0.35900
O 	O 	0.38076 0.95075 0.44368 -0.37700
O 	O 	0.36788 0.90081 0.33713 -0.36300
O 	O 	0.32991 0.93592 0.35865 -0.36500
O 	O 	0.28716 0.83537 0.51681 -0.36200
O 	O 	0.36702 0.82017 0.37239 -0.35000
O 	O 	0.39614 0.86319 0.43905 -0.37900
O 	O 	0.29709 0.90469 0.49880 -0.36800
O 	O 	0.26828 0.85188 0.33671 -0.34800
O 	O 	0.25169 0.87992 0.40517 -0.36400
O 	O 	0.37477 0.90670 0.50715 -0.36900
O 	O 	0.31464 0.85913 0.42315 -0.72000
H 	H 	0.28318 0.83815 0.43047 0.16200
C 	C 	0.59048 0.86475 0.84844 0.28100
C 	C 	0.41446 0.82488 0.90959 0.30200
C 	C 	0.53567 0.93262 0.82289 0.31100
C 	C 	0.47348 0.75976 0.92607 0.28500
C 	C 	0.50970 0.93593 0.97474 0.29600
C 	C 	0.58878 0.88555 0.00340 0.28100
Ni	Ni	0.49394 0.83679 0.85587 1.11800
Ni	Ni	0.49102 0.84376 0.97363 1.12700
Ni	Ni	0.57082 0.92150 0.91433 1.12500
O 	O 	0.54976 0.83280 0.83706 -0.34900
O 	O 	0.59887 0.90577 0.85785 -0.35900
O 	O 	0.47970 0.89445 0.98314 -0.36600
O 	O 	0.44120 0.84635 0.87351 -0.35700
O 	O 	0.42841 0.81025 0.94561 -0.36200
O 	O 	0.60484 0.90641 0.96178 -0.36800
O 	O 	0.52027 0.89142 0.80875 -0.35000
O 	O 	0.53931 0.94214 0.86890 -0.38400
O 	O 	0.54672 0.87183 0.01677 -0.36300
O 	O 	0.46076 0.77327 0.88716 -0.35200
O 	O 	0.49095 0.78572 0.96483 -0.35400
O 	O 	0.55172 0.94737 0.96813 -0.37000
O 	O 	0.52319 0.86242 0.91471 -0.71800
H 	H 	0.54035 0.84720 0.91939 0.15600
C 	C 	0.70244 0.91721 0.30760 0.28600
C 	C 	0.88512 0.05368 0.25703 0.30300
C 	C 	0.76348 0.04094 0.34432 0.30800
C 	C 	0.83073 0.93828 0.24121 0.29100
C 	C 	0.78666 0.07670 0.19722 0.30400
C 	C 	0.71716 0.95223 0.15427 0.28700
Ni	Ni	0.80071 0.98595 0.30780 1.11300
Ni	Ni	0.80891 0.00562 0.19218 1.13300
Ni	Ni	0.72500 0.99663 0.25018 1.12100
O 	O 	0.73702 0.94339 0.33546 -0.35500
O 	O 	0.68767 0.93378 0.27385 -0.35900
O 	O 	0.79096 0.04931 0.16770 -0.36000
O 	O 	0.86859 0.02438 0.29208 -0.35000
O 	O 	0.85901 0.05809 0.22623 -0.37500
O 	O 	0.70790 0.97913 0.17969 -0.36900
O 	O 	0.80083 0.04146 0.33532 -0.35600
O 	O 	0.72689 0.01319 0.32114 -0.35200
O 	O 	0.75780 0.95705 0.15471 -0.36400
O 	O 	0.80543 0.93387 0.27889 -0.36900
O 	O 	0.83831 0.96726 0.20534 -0.36200
O 	O 	0.76238 0.06133 0.23639 -0.37000
O 	O 	0.77403 0.98603 0.24881 -0.72700
H 	H 	0.75839 0.95428 0.24078 0.16400
C 	C 	0.73414 0.14204 0.65814 0.28100
C 	C 	0.59627 0.17689 0.58625 0.30400
C 	C 	0.61034 0.07462 0.68183 0.30500
C 	C 	0.72074 0.24188 0.56957 0.28500
C 	C 	0.58467 0.06100 0.52492 0.29900
C 	C 	0.70740 0.10950 0.50007 0.29300
Ni	Ni	0.66465 0.16876 0.64344 1.11800
Ni	Ni	0.65431 0.15521 0.52665 1.12600
Ni	Ni	0.65926 0.08216 0.59222 1.12500
O 	O 	0.72501 0.17446 0.66522 -0.34600
O 	O 	0.70177 0.10063 0.65014 -0.36000
O 	O 	0.59296 0.10218 0.52268 -0.37100
O 	O 	0.60182 0.15737 0.62411 -0.35900
O 	O 	0.62463 0.18957 0.55019 -0.36300
O 	O 	0.70983 0.10017 0.54601 -0.37600
O 	O 	0.63582 0.11672 0.69302 -0.35500
O 	O 	0.60613 0.06141 0.63672 -0.37000
O 	O 	0.68234 0.12665 0.48539 -0.36000
O 	O 	0.69433 0.23031 0.60814 -0.35400
O 	O 	0.71185 0.21432 0.53226 -0.35300
O 	O 	0.61616 0.05201 0.53694 -0.36600
O 	O 	0.66895 0.14053 0.58747 -0.71900
H 	H 	0.70144 0.15659 0.58329 0.16000
C 	C 	0.22324 0.51053 0.41934 0.28500
C 	C 	0.05467 0.44966 0.30947 0.30100
C 	C 	0.17415 0.56677 0.40933 0.29400
C 	C 	0.11547 0.38471 0.34048 0.28100
C 	C 	0.04486 0.47045 0.45719 0.31100
C 	C 	0.08552 0.38951 0.49765 0.29500
Ni	Ni	0.14673 0.48359 0.34870 1.11700
Ni	Ni	0.05803 0.40672 0.40029 1.12600
Ni	Ni	0.13417 0.48301 0.46630 1.12700
O 	O 	0.20527 0.49014 0.37780 -0.35900
O 	O 	0.19958 0.50164 0.45967 -0.36600
O 	O 	0.03181 0.44493 0.41838 -0.36700
O 	O 	0.09282 0.48564 0.31784 -0.35200
O 	O 	0.04602 0.41231 0.32964 -0.36400
O 	O 	0.12398 0.42720 0.49916 -0.36600
O 	O 	0.17144 0.55003 0.36596 -0.35700
O 	O 	0.14544 0.54302 0.44318 -0.37300
O 	O 	0.05264 0.38421 0.46877 -0.36700
O 	O 	0.12695 0.42190 0.31621 -0.34800
O 	O 	0.08416 0.36998 0.37465 -0.35600
O 	O 	0.07361 0.46941 0.48720 -0.37800
O 	O 	0.11829 0.45424 0.40562 -0.72000
H 	H 	0.13382 0.43742 0.41119 0.15500
C 	C 	0.74741 0.26945 0.07524 0.29600
C 	C 	0.92946 0.38850 0.15773 0.31300
C 	C 	0.81721 0.39175 0.07578 0.30100
C 	C 	0.85935 0.26127 0.15326 0.28200
C 	C 	0.92046 0.39446 0.00334 0.28300
C 	C 	0.87574 0.27486 0.98751 0.29900
Ni	Ni	0.83196 0.32938 0.13500 1.11800
Ni	Ni	0.91109 0.32828 0.07518 1.12200
Ni	Ni	0.82790 0.32427 0.01708 1.12500
O 	O 	0.76582 0.29872 0.11089 -0.35900
O 	O 	0.77002 0.27056 0.03627 -0.36700
O 	O 	0.93358 0.36629 0.01585 -0.38100
O 	O 	0.89050 0.35997 0.17568 -0.36300
O 	O 	0.93780 0.38636 0.11204 -0.38400
O 	O 	0.84405 0.28482 0.97770 -0.35600
O 	O 	0.84229 0.38987 0.11024 -0.36800
O 	O 	0.80093 0.36126 0.04141 -0.36100
O 	O 	0.88965 0.27508 0.03221 -0.38100
O 	O 	0.82719 0.27107 0.15951 -0.35500
O 	O 	0.89961 0.29166 0.13743 -0.36100
O 	O 	0.87889 0.37974 0.99065 -0.36000
O 	O 	0.85237 0.31858 0.07654 -0.72100
H 	H 	0.83630 0.28596 0.07661 0.15800
C 	C 	0.05842 0.15197 0.73240 0.28700
C 	C 	0.94860 0.21138 0.84089 0.31300
C 	C 	0.93417 0.09374 0.75055 0.31000
C 	C 	0.07163 0.26704 0.81517 0.28100
C 	C 	0.91791 0.19003 0.68978 0.30300
C 	C 	0.03943 0.26705 0.65615 0.29800
Ni	Ni	0.00297 0.17128 0.80508 1.12500
Ni	Ni	0.99474 0.24922 0.75014 1.11800
Ni	Ni	0.99101 0.17004 0.68769 1.11900
O 	O 	0.03262 0.13854 0.77144 -0.34800
O 	O 	0.04931 0.16997 0.69467 -0.35000
O 	O 	0.94893 0.23151 0.69711 -0.37800
O 	O 	0.97569 0.19709 0.85376 -0.36100
O 	O 	0.94271 0.21654 0.79527 -0.38200
O 	O 	0.01805 0.22427 0.64361 -0.35400
O 	O 	0.94017 0.11952 0.78782 -0.36200
O 	O 	0.96279 0.10787 0.71482 -0.37400
O 	O 	0.04342 0.28036 0.70162 -0.37300
O 	O 	0.06315 0.22614 0.82420 -0.34700
O 	O 	0.03886 0.27572 0.80671 -0.35000
O 	O 	0.92886 0.15973 0.68014 -0.37300
O 	O 	0.00574 0.20140 0.74739 -0.70700
H 	H 	0.03813 0.21817 0.74257 0.15900
C 	C 	0.10498 0.72754 0.84527 0.28400
C 	C 	0.17486 0.60928 0.89680 0.30300
C 	C 	0.05152 0.60266 0.81490 0.29600
C 	C 	0.22373 0.72432 0.90808 0.29100
C 	C 	0.05035 0.57512 0.96565 0.30900
C 	C 	0.09628 0.69868 0.00053 0.26900
Ni	Ni	0.14467 0.66709 0.84535 1.11800
Ni	Ni	0.14121 0.65195 0.96201 1.12600
Ni	Ni	0.05800 0.64879 0.90779 1.12600
O 	O 	0.11575 0.70304 0.81765 -0.35100
O 	O 	0.07637 0.70979 0.88155 -0.35400
O 	O 	0.08364 0.60510 0.99164 -0.36500
O 	O 	0.18219 0.63631 0.86029 -0.35600
O 	O 	0.14386 0.60179 0.92842 -0.37300
O 	O 	0.06021 0.66751 0.97802 -0.35400
O 	O 	0.09136 0.60748 0.82086 -0.35400
O 	O 	0.04038 0.62860 0.83812 -0.35600
O 	O 	0.13454 0.69832 0.99926 -0.34900
O 	O 	0.19936 0.72404 0.87100 -0.36500
O 	O 	0.20687 0.69535 0.94470 -0.35800
O 	O 	0.03844 0.58598 0.92509 -0.37000
O 	O 	0.11948 0.66582 0.90578 -0.71800
H 	H 	0.13283 0.69767 0.91248 0.16100
C 	C 	0.92410 0.73066 0.15347 0.28200
C 	C 	0.04912 0.89820 0.24541 0.29500
C 	C 	0.04610 0.78633 0.14464 0.30900
C 	C 	0.92278 0.83857 0.24059 0.28600
C 	C 	0.05717 0.79617 0.30434 0.30100
C 	C 	0.93271 0.71605 0.31512 0.29300
Ni	Ni	0.98947 0.82660 0.17654 1.11100
Ni	Ni	0.98353 0.81571 0.29371 1.12000
Ni	Ni	0.99090 0.74307 0.22947 1.11900
O 	O 	0.93388 0.77233 0.14548 -0.35000
O 	O 	0.95566 0.72158 0.16624 -0.36800
O 	O 	0.04483 0.82622 0.30906 -0.36900
O 	O 	0.04807 0.87995 0.20339 -0.35000
O 	O 	0.01366 0.88000 0.27292 -0.35900
O 	O 	0.93607 0.70678 0.26940 -0.38000
O 	O 	0.02787 0.81021 0.13221 -0.34700
O 	O 	0.04732 0.77626 0.19017 -0.36900
O 	O 	0.95177 0.75761 0.33179 -0.36700
O 	O 	0.95265 0.85430 0.20508 -0.36000
O 	O 	0.92605 0.81544 0.27731 -0.36200
O 	O 	0.02851 0.75578 0.28965 -0.36500
O 	O 	0.97946 0.79083 0.23162 -0.72400
H 	H 	0.94676 0.77336 0.23073 0.15400
C 	C 	0.86241 0.60874 0.65477 0.28800
C 	C 	0.81324 0.43100 0.57653 0.30800
C 	C 	0.92782 0.54621 0.66188 0.30600
C 	C 	0.74977 0.48421 0.57767 0.28700
C 	C 	0.92962 0.53592 0.51353 0.30400
C 	C 	0.87708 0.60184 0.48146 0.29000
Ni	Ni	0.83210 0.51148 0.63684 1.11800
Ni	Ni	0.83591 0.51104 0.51955 1.12400
Ni	Ni	0.91341 0.59299 0.57923 1.12600
O 	O 	0.85534 0.57117 0.67483 -0.35300
O 	O 	0.88828 0.62545 0.61619 -0.36100
O 	O 	0.89513 0.53075 0.48871 -0.38200
O 	O 	0.80126 0.44536 0.61437 -0.36100
O 	O 	0.84041 0.45866 0.54420 -0.38000
O 	O 	0.90772 0.62020 0.51629 -0.36100
O 	O 	0.88965 0.50975 0.65435 -0.35700
O 	O 	0.93419 0.58428 0.64527 -0.36600
O 	O 	0.83848 0.56461 0.48832 -0.36500
O 	O 	0.77324 0.50829 0.61522 -0.36100
O 	O 	0.76910 0.48103 0.53699 -0.35800
O 	O 	0.94607 0.56496 0.54901 -0.37300
O 	O 	0.85479 0.54252 0.57863 -0.72000
H 	H 	0.83789 0.55831 0.57584 0.16200
C 	C 	0.91267 0.67909 0.35041 -0.05600
C 	C 	0.87226 0.66806 0.37383 0.00800
C 	C 	0.85849 0.63961 0.41466 0.00500
C 	C 	0.88679 0.62485 0.43384 -0.05100
C 	C 	0.92733 0.63655 0.40996 0.00500
C 	C 	0.93698 0.65876 0.36542 0.00700
C 	C 	0.84457 0.68515 0.35548 0.09700
C 	C 	0.96154 0.63099 0.43380 0.10200
C 	C 	0.97115 0.65961 0.33460 0.09500
C 	C 	0.81650 0.62740 0.43802 0.10500
N 	N 	0.99829 0.65989 0.31004 -0.10500
N 	N 	0.78297 0.61765 0.45667 -0.09500
N 	N 	0.98925 0.62719 0.45277 -0.10400
N 	N 	0.82248 0.69881 0.34075 -0.09900
C 	C 	0.09104 0.72958 0.03409 -0.03800
C 	C 	0.11323 0.74212 0.07954 -0.00000
C 	C 	0.10187 0.76549 0.11332 0.01200
C 	C 	0.06313 0.76866 0.10597 -0.06700
C 	C 	0.04102 0.75562 0.06078 0.03300
C 	C 	0.05881 0.74190 0.02348 -0.01100
C 	C 	0.14686 0.73067 0.09216 0.11100
C 	C 	0.99936 0.75502 0.05270 0.07900
C 	C 	0.04563 0.74305 0.97401 0.11000
C 	C 	0.13247 0.79013 0.15213 0.10400
N 	N 	0.03448 0.74451 0.93493 -0.09600
N 	N 	0.15711 0.81005 0.18289 -0.09700
N 	N 	0.96617 0.75451 0.04571 -0.09300
N 	N 	0.17373 0.72159 0.10239 -0.09700
C 	C 	0.02253 0.57490 0.77458 -0.03000
C 	C 	0.03731 0.58512 0.72626 -0.00300
C 	C 	0.95989 0.54655 0.69815 -0.07600
C 	C 	0.94567 0.53110 0.74575 0.02100
C 	C 	0.97725 0.54436 0.78364 -0.01800
C 	C 	0.08439 0.61267 0.71599 0.10300
C 	C 	0.89867 0.50329 0.75621 0.09700
C 	C 	0.96314 0.52704 0.83204 0.09900
C 	C 	0.02121 0.57911 0.63832 0.09600
N 	N 	0.95181 0.51314 0.87062 -0.10200
N 	N 	0.03361 0.58655 0.59877 -0.09100
N 	N 	0.86115 0.48111 0.76461 -0.10000
N 	N 	0.12197 0.63467 0.70779 -0.10500
C 	C 	0.92896 0.22698 0.87805 -0.06600
C 	C 	0.90302 0.19847 0.91577 0.01300
C 	C 	0.88439 0.21363 0.95110 0.00400
C 	C 	0.89115 0.25706 0.94826 -0.05400
C 	C 	0.91424 0.28422 0.90858 0.00400
C 	C 	0.93503 0.27017 0.87500 0.01300
C 	C 	0.89461 0.15328 0.91754 0.10300
C 	C 	0.91552 0.32612 0.90137 0.10200
C 	C 	0.96364 0.30064 0.83805 0.08400
C 	C 	0.85655 0.18393 0.98895 0.11600
N 	N 	0.98637 0.32505 0.80864 -0.11800
N 	N 	0.83430 0.16020 0.01910 -0.10600
N 	N 	0.91654 0.35948 0.89514 -0.09800
N 	N 	0.88791 0.11723 0.91892 -0.09200
C 	C 	0.02037 0.53147 0.98658 -0.05200
C 	C 	0.03250 0.49850 0.98574 0.03100
C 	C 	0.99939 0.45354 0.98452 -0.02900
C 	C 	0.95427 0.44131 0.99226 -0.03400
C 	C 	0.94242 0.47491 0.99384 -0.00000
C 	C 	0.97591 0.51963 0.99549 0.01000
C 	C 	0.07897 0.51065 0.98770 0.09900
C 	C 	0.89669 0.46420 0.98622 0.11200
C 	C 	0.96446 0.55382 0.00440 0.08400
C 	C 	0.01116 0.42078 0.96940 0.13800
N 	N 	0.95534 0.58110 0.01149 -0.10300
N 	N 	0.02065 0.39473 0.95729 -0.09800
N 	N 	0.86034 0.45595 0.97964 -0.09900
N 	N 	0.11595 0.51982 0.98956 -0.09600
C 	C 	0.02000 0.49258 0.47242 -0.06900
C 	C 	0.00552 0.51221 0.43767 0.03900
C 	C 	0.97051 0.52017 0.44886 -0.01300
C 	C 	0.95463 0.51447 0.49689 -0.04700
C 	C 	0.96930 0.49475 0.53115 -0.01500
C 	C 	0.00574 0.48939 0.52073 0.03800
C 	C 	0.94434 0.47596 0.57503 0.10000
C 	C 	0.03170 0.48644 0.56022 0.11000
C 	C 	0.94811 0.52962 0.41031 0.11000
N 	N 	0.05242 0.48427 0.59189 -0.09600
N 	N 	0.93019 0.53693 0.37934 -0.10200
N 	N 	0.92466 0.46033 0.61012 -0.09800
N 	N 	0.04901 0.54153 0.35679 -0.09100
C 	C 	0.05415 0.30069 0.61765 -0.05400
C 	C 	0.08575 0.30431 0.58304 0.00900
C 	C 	0.09683 0.33419 0.54408 0.00500
C 	C 	0.07438 0.35834 0.53827 -0.05200
C 	C 	0.04113 0.35274 0.57161 0.00300
C 	C 	0.03398 0.32709 0.61323 0.00700
C 	C 	0.10690 0.27753 0.58755 0.10300
C 	C 	0.01184 0.37031 0.56124 0.13000
C 	C 	0.00587 0.32801 0.65154 0.11600
C 	C 	0.12999 0.33880 0.50902 0.09900
N 	N 	0.98352 0.32900 0.68202 -0.12000
N 	N 	0.15640 0.34251 0.48099 -0.09600
N 	N 	0.98801 0.38376 0.55292 -0.11500
N 	N 	0.12376 0.25612 0.59103 -0.09100
C 	C 	0.02690 0.44833 0.26806 -0.03100
C 	C 	0.04162 0.44874 0.22034 -0.00400
C 	C 	0.96547 0.42029 0.19081 -0.08500
C 	C 	0.95393 0.42989 0.23623 0.02300
C 	C 	0.98285 0.43937 0.27584 -0.01900
C 	C 	0.08777 0.46158 0.21148 0.10200
C 	C 	0.91309 0.43135 0.24179 0.09500
C 	C 	0.96572 0.43512 0.32447 0.09700
C 	C 	0.02642 0.43625 0.13254 0.09700
N 	N 	0.95137 0.43119 0.36305 -0.10500
N 	N 	0.03901 0.43781 0.09345 -0.10000
N 	N 	0.88049 0.43255 0.24621 -0.10000
N 	N 	0.12459 0.47181 0.20444 -0.10300
C 	C 	0.87110 0.17897 0.68242 -0.05600
C 	C 	0.83732 0.14782 0.71296 0.01000
C 	C 	0.79216 0.13201 0.70173 0.00700
C 	C 	0.78070 0.15153 0.66382 -0.05100
C 	C 	0.81423 0.18167 0.63233 0.00700
C 	C 	0.85941 0.19566 0.64187 0.01000
C 	C 	0.84885 0.13303 0.75681 0.09900
C 	C 	0.80216 0.19564 0.58823 0.08900
C 	C 	0.89371 0.22622 0.60915 0.10200
C 	C 	0.75787 0.09338 0.72655 0.10800
N 	N 	0.92102 0.25055 0.58300 -0.10400
N 	N 	0.73077 0.06228 0.74625 -0.09300
N 	N 	0.79297 0.20690 0.55282 -0.10300
N 	N 	0.85745 0.12099 0.79205 -0.09200
C 	C 	0.75405 0.28951 0.56366 -0.04800
C 	C 	0.74941 0.31406 0.52565 0.00400
C 	C 	0.77028 0.36068 0.52897 0.00900
C 	C 	0.79575 0.38281 0.57032 -0.06300
C 	C 	0.80318 0.35855 0.60639 0.01200
C 	C 	0.78392 0.31223 0.60190 0.00300
C 	C 	0.72179 0.29138 0.48404 0.10400
C 	C 	0.82927 0.38093 0.64900 0.10300
C 	C 	0.79417 0.28784 0.63723 0.09500
C 	C 	0.76370 0.38559 0.49096 0.08800
N 	N 	0.80257 0.26871 0.66565 -0.09900
N 	N 	0.75843 0.40543 0.46065 -0.10800
N 	N 	0.84993 0.39866 0.68311 -0.09300
N 	N 	0.69976 0.27330 0.45084 -0.10100
C 	C 	0.80841 0.12536 0.18626 -0.05400
C 	C 	0.84579 0.14651 0.15470 0.00900
C 	C 	0.86652 0.19284 0.14671 0.00300
C 	C 	0.85214 0.21839 0.17267 -0.05200
C 	C 	0.82159 0.19828 0.21051 0.00900
C 	C 	0.79502 0.15210 0.21194 0.01000
C 	C 	0.86339 0.12135 0.13099 0.10300
C 	C 	0.81743 0.22521 0.24790 0.10900
C 	C 	0.75213 0.13261 0.23588 0.11100
C 	C 	0.90396 0.21421 0.11389 0.09900
N 	N 	0.71794 0.11721 0.25504 -0.09800
N 	N 	0.93393 0.23113 0.08778 -0.10700
N 	N 	0.81410 0.24667 0.27776 -0.09800
N 	N 	0.87759 0.10146 0.11190 -0.10400
C 	C 	0.72738 0.09382 0.46316 -0.04700
C 	C 	0.71854 0.04950 0.46427 -0.00600
C 	C 	0.73745 0.03467 0.42923 0.03400
C 	C 	0.75954 0.06156 0.38924 -0.06600
C 	C 	0.77180 0.10666 0.38997 0.01100
C 	C 	0.75555 0.12291 0.42690 0.00300
C 	C 	0.68804 0.01850 0.49965 0.12300
C 	C 	0.80332 0.13670 0.35480 0.10100
C 	C 	0.76806 0.16934 0.42782 0.10300
C 	C 	0.73670 0.99302 0.43592 0.07400
N 	N 	0.77803 0.20639 0.42855 -0.09500
N 	N 	0.73627 0.95988 0.44164 -0.09600
N 	N 	0.82876 0.16067 0.32689 -0.10000
N 	N 	0.66372 0.99369 0.52781 -0.12300
C 	C 	0.89256 0.85712 0.24516 -0.05300
C 	C 	0.89818 0.88577 0.28405 0.00500
C 	C 	0.88005 0.91408 0.28143 0.00500
C 	C 	0.85418 0.91237 0.24094 -0.05600
C 	C 	0.84713 0.88258 0.20289 0.00600
C 	C 	0.86569 0.85456 0.20535 0.00300
C 	C 	0.92398 0.88731 0.32616 0.09600
C 	C 	0.82113 0.88097 0.16094 0.10200
C 	C 	0.85797 0.82378 0.16634 0.09400
C 	C 	0.88930 0.94601 0.31980 0.08800
N 	N 	0.85181 0.79940 0.13499 -0.10200
N 	N 	0.89682 0.97132 0.35060 -0.11000
N 	N 	0.80046 0.87972 0.12744 -0.09500
N 	N 	0.94452 0.88858 0.35979 -0.10700
C 	C 	0.62171 0.88801 0.04056 -0.04600
C 	C 	0.66774 0.91014 0.02955 -0.00500
C 	C 	0.69927 0.93180 0.06653 0.01000
C 	C 	0.68557 0.92489 0.11539 -0.05100
C 	C 	0.64066 0.89393 0.12653 0.00600
C 	C 	0.60871 0.87510 0.08897 0.00500
C 	C 	0.68279 0.90758 0.98140 0.11400
C 	C 	0.62753 0.88023 0.17608 0.09400
C 	C 	0.56426 0.83922 0.09961 0.10500
C 	C 	0.74519 0.96281 0.05404 0.09900
N 	N 	0.52880 0.81054 0.10814 -0.10000
N 	N 	0.78181 0.98757 0.04404 -0.10300
N 	N 	0.61645 0.86877 0.21541 -0.09400
N 	N 	0.69513 0.90578 0.94306 -0.10400
C 	C 	0.55422 0.96933 0.78693 -0.07500
C 	C 	0.52756 0.96975 0.74835 -0.00400
C 	C 	0.54465 0.00609 0.71605 0.02400
C 	C 	0.58895 0.04121 0.72115 -0.05900
C 	C 	0.61374 0.04277 0.76249 0.00400
C 	C 	0.59764 0.00585 0.79346 0.02800
C 	C 	0.48232 0.93344 0.74252 0.10300
C 	C 	0.65414 0.08333 0.77525 0.11200
C 	C 	0.62619 0.00530 0.83160 0.09000
C 	C 	0.51545 0.00945 0.68079 0.10600
N 	N 	0.64913 0.00515 0.86199 -0.11000
N 	N 	0.49212 0.01227 0.65279 -0.09400
N 	N 	0.68623 0.11576 0.78566 -0.09700
N 	N 	0.44621 0.90447 0.73787 -0.09500
C 	C 	0.36610 0.80674 0.90362 -0.05700
C 	C 	0.34165 0.81282 0.94060 0.00700
C 	C 	0.29498 0.78545 0.94256 0.00400
C 	C 	0.27246 0.75407 0.90562 -0.05400
C 	C 	0.29666 0.75130 0.86592 0.00500
C 	C 	0.34340 0.77726 0.86520 0.00900
C 	C 	0.36450 0.84757 0.97626 0.10400
C 	C 	0.27364 0.72103 0.82627 0.09500
C 	C 	0.36824 0.77233 0.82579 0.09500
C 	C 	0.27029 0.78925 0.98282 0.10900
N 	N 	0.38802 0.76837 0.79437 -0.10900
N 	N 	0.25069 0.79227 0.01504 -0.10000
N 	N 	0.25554 0.69707 0.79443 -0.10300
N 	N 	0.38263 0.87530 0.00473 -0.10600
C 	C 	0.10162 0.80630 0.32375 -0.05400
C 	C 	0.12466 0.78529 0.30513 0.00900
C 	C 	0.16948 0.80071 0.31910 0.00500
C 	C 	0.19300 0.84060 0.34605 -0.04600
C 	C 	0.17027 0.86300 0.36024 0.00800
C 	C 	0.12385 0.84145 0.35680 0.00900
C 	C 	0.10260 0.74769 0.27268 0.10700
C 	C 	0.19455 0.90905 0.37506 0.10600
C 	C 	0.09889 0.85036 0.39261 0.10700
C 	C 	0.19053 0.77497 0.30682 0.10100
N 	N 	0.07904 0.85724 0.42160 -0.09300
N 	N 	0.20719 0.75431 0.29692 -0.10200
N 	N 	0.21390 0.94585 0.38687 -0.10600
N 	N 	0.08521 0.71768 0.24671 -0.10000
C 	C 	0.54078 0.02499 0.50783 -0.03200
C 	C 	0.52076 0.03231 0.46736 -0.00000
C 	C 	0.47410 0.01026 0.46324 0.03300
C 	C 	0.44743 0.97304 0.49316 -0.07700
C 	C 	0.46856 0.96293 0.53155 0.01800
C 	C 	0.51535 0.98764 0.53704 -0.01700
C 	C 	0.54829 0.06213 0.42947 0.11100
C 	C 	0.44249 0.93017 0.56789 0.09900
C 	C 	0.53731 0.97355 0.57162 0.10200
C 	C 	0.45395 0.02921 0.43248 0.11100
N 	N 	0.55475 0.96216 0.59915 -0.10700
N 	N 	0.43806 0.04452 0.40791 -0.09400
N 	N 	0.42196 0.90414 0.59711 -0.09300
N 	N 	0.57026 0.08593 0.39922 -0.09800
C 	C 	0.25545 0.70912 0.42685 -0.05000
C 	C 	0.21459 0.68596 0.45144 0.00400
C 	C 	0.18689 0.63984 0.44438 0.00900
C 	C 	0.20178 0.61608 0.41529 -0.05300
C 	C 	0.24335 0.63973 0.39117 0.00300
C 	C 	0.27018 0.68583 0.39761 0.00700
C 	C 	0.20046 0.70984 0.48315 0.09600
C 	C 	0.25826 0.61696 0.35872 0.09300
C 	C 	0.31257 0.70957 0.37272 0.10000
C 	C 	0.14206 0.61794 0.46384 0.10800
N 	N 	0.34628 0.72813 0.35266 -0.09700
N 	N 	0.10634 0.60066 0.47947 -0.09600
N 	N 	0.27026 0.59903 0.33270 -0.10400
N 	N 	0.18926 0.72896 0.50840 -0.09700
C 	C 	0.21306 0.90072 0.62659 -0.05600
C 	C 	0.19145 0.88605 0.58122 0.00800
C 	C 	0.20598 0.86468 0.54859 0.00200
C 	C 	0.24381 0.86137 0.55966 -0.05100
C 	C 	0.25871 0.86713 0.60781 0.00700
C 	C 	0.24279 0.88614 0.64171 0.00700
C 	C 	0.15511 0.89326 0.56779 0.10300
C 	C 	0.29153 0.85501 0.62204 0.10400
C 	C 	0.25680 0.89032 0.69174 0.09300
C 	C 	0.18131 0.84475 0.50463 0.09700
N 	N 	0.26855 0.89325 0.73146 -0.10200
N 	N 	0.16143 0.82848 0.46967 -0.10100
N 	N 	0.31769 0.84530 0.63342 -0.09400
N 	N 	0.12606 0.89895 0.55695 -0.09400
C 	C 	0.16229 0.86518 0.80909 -0.05900
C 	C 	0.17531 0.85260 0.85177 0.01100
C 	C 	0.15420 0.80770 0.86525 0.00500
C 	C 	0.12313 0.77480 0.83376 -0.05400
C 	C 	0.11102 0.78720 0.79034 0.00800
C 	C 	0.13034 0.83235 0.77809 0.00800
C 	C 	0.21279 0.88539 0.87978 0.10400
C 	C 	0.07843 0.75345 0.75842 0.10600
C 	C 	0.11780 0.84483 0.73325 0.09900
C 	C 	0.16471 0.79546 0.91142 0.09000
N 	N 	0.10744 0.85425 0.69734 -0.09200
N 	N 	0.17338 0.78620 0.94842 -0.10200
N 	N 	0.05247 0.72647 0.73300 -0.09000
N 	N 	0.24283 0.91140 0.90204 -0.09700
C 	C 	0.12688 0.07951 0.73278 -0.05400
C 	C 	0.09740 0.07355 0.69438 0.00900
C 	C 	0.07847 0.10097 0.69078 0.00800
C 	C 	0.08895 0.13450 0.72547 -0.04900
C 	C 	0.12218 0.14361 0.76044 0.00600
C 	C 	0.14064 0.11568 0.76462 0.00800
C 	C 	0.08661 0.03931 0.65836 0.10100
C 	C 	0.13700 0.18150 0.79235 0.09600
C 	C 	0.17436 0.12462 0.80097 0.09800
C 	C 	0.04657 0.09332 0.65262 0.10700
N 	N 	0.20130 0.13172 0.82992 -0.09500
N 	N 	0.02112 0.08718 0.62221 -0.09800
N 	N 	0.14891 0.21169 0.81788 -0.09700
N 	N 	0.07790 0.01226 0.62930 -0.09300
C 	C 	0.46467 0.02829 0.00480 -0.07600
C 	C 	0.44967 0.00156 0.96305 0.04700
C 	C 	0.46701 0.97372 0.95127 -0.02300
C 	C 	0.49751 0.97057 0.98278 -0.03500
C 	C 	0.51236 0.99722 0.02472 -0.02600
C 	C 	0.49642 0.02649 0.03534 0.03400
C 	C 	0.41644 0.00281 0.93207 0.10300
C 	C 	0.54328 0.99383 0.05750 0.10500
C 	C 	0.51252 0.05456 0.07783 0.08900
C 	C 	0.45445 0.94947 0.90600 0.10200
N 	N 	0.52548 0.07690 0.11178 -0.09100
N 	N 	0.44416 0.93051 0.86963 -0.09800
N 	N 	0.56793 0.99108 0.08362 -0.10200
N 	N 	0.38992 0.00384 0.90745 -0.09200
C 	C 	0.34722 0.09306 0.95142 -0.04300
C 	C 	0.30974 0.04970 0.95400 -0.00800
C 	C 	0.27470 0.03630 0.92067 0.03500
C 	C 	0.28119 0.06048 0.87795 -0.05700
C 	C 	0.31893 0.10304 0.87358 0.00800
C 	C 	0.35085 0.12041 0.91142 0.00400
C 	C 	0.30855 0.01780 0.98857 0.13200
C 	C 	0.32466 0.12911 0.83052 0.09600
C 	C 	0.38621 0.16622 0.90941 0.11100
C 	C 	0.23171 0.99774 0.93052 0.08100
N 	N 	0.41438 0.20283 0.90751 -0.09000
N 	N 	0.19733 0.96708 0.93845 -0.09200
N 	N 	0.32916 0.14987 0.79615 -0.10100
N 	N 	0.30738 0.99218 0.01605 -0.12900
C 	C 	0.37771 0.96275 0.28874 -0.05800
C 	C 	0.42409 0.98882 0.28152 -0.01000
C 	C 	0.44080 0.01864 0.24223 0.02300
C 	C 	0.41107 0.02317 0.21074 -0.04100
C 	C 	0.36479 0.99389 0.21527 -0.01100
C 	C 	0.34809 0.96447 0.25470 0.00900
C 	C 	0.45465 0.98466 0.31417 0.10300
C 	C 	0.33432 0.99249 0.17831 0.09000
C 	C 	0.30040 0.93526 0.25941 0.10200
C 	C 	0.48811 0.04179 0.23214 0.10900
N 	N 	0.26229 0.91222 0.26271 -0.09500
N 	N 	0.52592 0.05997 0.22432 -0.08600
N 	N 	0.30973 0.99088 0.14892 -0.11100
N 	N 	0.47901 0.98125 0.34013 -0.10300
C 	C 	0.60636 0.20829 0.08729 -0.05300
C 	C 	0.63092 0.19649 0.11921 0.01100
C 	C 	0.67622 0.21171 0.11033 0.00700
C 	C 	0.69862 0.24290 0.07370 -0.05700
C 	C 	0.67461 0.25523 0.04219 0.01200
C 	C 	0.62894 0.23907 0.04984 0.00700
C 	C 	0.61097 0.17194 0.16315 0.11500
C 	C 	0.69738 0.28615 0.00308 0.08800
C 	C 	0.60548 0.25521 0.02009 0.07900
C 	C 	0.70015 0.19571 0.13942 0.09600
N 	N 	0.58706 0.26821 0.99611 -0.09300
N 	N 	0.71932 0.18300 0.16256 -0.10000
N 	N 	0.71548 0.31082 0.97192 -0.09500
N 	N 	0.59542 0.15266 0.19850 -0.08900
C 	C 	0.34349 0.14120 0.15972 -0.05600
C 	C 	0.34376 0.17299 0.12779 0.00600
C 	C 	0.31502 0.18999 0.13581 0.01000
C 	C 	0.28595 0.17520 0.17562 -0.05400
C 	C 	0.28722 0.14494 0.20874 0.00800
C 	C 	0.31444 0.12646 0.19949 0.01300
C 	C 	0.37283 0.18756 0.08611 0.08600
C 	C 	0.26327 0.13531 0.25401 0.08700
C 	C 	0.31272 0.09235 0.23108 0.10800
C 	C 	0.31538 0.22275 0.10309 0.10500
N 	N 	0.31136 0.06513 0.25622 -0.09400
N 	N 	0.31573 0.24893 0.07703 -0.09800
N 	N 	0.24489 0.12739 0.29067 -0.10100
N 	N 	0.39576 0.19948 0.05260 -0.09900
C 	C 	0.16176 0.29472 0.30818 -0.05600
C 	C 	0.11889 0.28477 0.29255 0.01300
C 	C 	0.10219 0.31225 0.30733 0.00900
C 	C 	0.13204 0.35546 0.32359 -0.05000
C 	C 	0.17794 0.36998 0.32486 0.00400
C 	C 	0.19180 0.33831 0.32438 0.01300
C 	C 	0.09877 0.25641 0.25111 0.09800
C 	C 	0.20993 0.41579 0.31458 0.10100
C 	C 	0.23647 0.35075 0.34007 0.10900
C 	C 	0.05526 0.29759 0.30141 0.10600
N 	N 	0.27216 0.36063 0.35252 -0.09500
N 	N 	0.01779 0.28585 0.29667 -0.09500
N 	N 	0.23565 0.45221 0.30548 -0.10000
N 	N 	0.08231 0.23490 0.21721 -0.09400
C 	C 	0.12809 0.03752 0.26287 -0.06100
C 	C 	0.13798 0.01731 0.22410 0.02800
C 	C 	0.11720 0.97062 0.22144 -0.01700
C 	C 	0.08545 0.94440 0.25671 -0.04500
C 	C 	0.08406 0.96490 0.30033 -0.01500
C 	C 	0.10261 0.01119 0.30219 0.03100
C 	C 	0.16954 0.04435 0.18721 0.09000
C 	C 	0.06525 0.93879 0.34366 0.10500
C 	C 	0.09310 0.03119 0.34315 0.10500
C 	C 	0.13180 0.95014 0.18570 0.10800
N 	N 	0.08544 0.04707 0.37583 -0.09500
N 	N 	0.14353 0.93384 0.15719 -0.09800
N 	N 	0.05010 0.91815 0.37834 -0.09900
N 	N 	0.19467 0.06555 0.15753 -0.09500
C 	C 	0.93382 0.08173 0.25201 -0.05000
C 	C 	0.95539 0.07788 0.21055 -0.01500
C 	C 	0.00222 0.10066 0.20829 0.03400
C 	C 	0.02763 0.12873 0.24672 -0.06700
C 	C 	0.00585 0.13539 0.28631 0.03200
C 	C 	0.95897 0.11183 0.28894 -0.01400
C 	C 	0.92948 0.05011 0.17037 0.09400
C 	C 	0.03163 0.16617 0.32453 0.09300
C 	C 	0.93656 0.11911 0.32921 0.10300
C 	C 	0.02420 0.09346 0.16753 0.09600
N 	N 	0.91865 0.12490 0.36129 -0.09900
N 	N 	0.04171 0.08767 0.13503 -0.10300
N 	N 	0.05195 0.19064 0.35519 -0.09400
N 	N 	0.90908 0.02810 0.13811 -0.10500
C 	C 	0.30000 0.11396 0.66228 -0.05100
C 	C 	0.27774 0.13741 0.65026 0.00100
C 	C 	0.29925 0.18365 0.65719 0.00800
C 	C 	0.34554 0.20781 0.66590 -0.05200
C 	C 	0.36804 0.18441 0.67750 0.00300
C 	C 	0.34624 0.13804 0.67151 0.00800
C 	C 	0.23515 0.11521 0.62567 0.10000
C 	C 	0.41095 0.20673 0.70149 0.10000
C 	C 	0.37178 0.11539 0.67269 0.10500
C 	C 	0.27297 0.20535 0.66133 0.10800
N 	N 	0.39221 0.09734 0.67361 -0.09700
N 	N 	0.25191 0.22258 0.66488 -0.09400
N 	N 	0.44510 0.22430 0.72098 -0.10500
N 	N 	0.20125 0.09776 0.60567 -0.10200
C 	C 	0.28837 0.23480 0.38025 -0.05100
C 	C 	0.33168 0.24082 0.37307 0.00500
C 	C 	0.36359 0.25802 0.41098 0.00500
C 	C 	0.35065 0.26367 0.45798 -0.05000
C 	C 	0.30566 0.25129 0.46596 0.00600
C 	C 	0.27696 0.24328 0.42652 0.00700
C 	C 	0.34369 0.22942 0.32725 0.10600
C 	C 	0.28860 0.24617 0.51472 0.09600
C 	C 	0.23797 0.24803 0.43279 0.10600
C 	C 	0.40943 0.27034 0.40105 0.10600
N 	N 	0.20692 0.25192 0.43781 -0.09500
N 	N 	0.44598 0.28013 0.39296 -0.09900
N 	N 	0.27471 0.24206 0.55353 -0.09800
N 	N 	0.35368 0.22059 0.29076 -0.10100
C 	C 	0.70017 0.45808 0.58192 -0.05100
C 	C 	0.68009 0.43816 0.62645 0.00500
C 	C 	0.63376 0.41921 0.63230 0.00900
C 	C 	0.60598 0.40911 0.59112 -0.05800
C 	C 	0.62606 0.42442 0.54514 0.00800
C 	C 	0.67262 0.45264 0.54168 0.00400
C 	C 	0.70621 0.43369 0.66473 0.10000
C 	C 	0.59955 0.40932 0.50130 0.09100
C 	C 	0.69168 0.47726 0.49749 0.10400
C 	C 	0.61546 0.41359 0.68056 0.10900
N 	N 	0.70685 0.49691 0.46222 -0.09600
N 	N 	0.60093 0.40921 0.71913 -0.09400
N 	N 	0.57846 0.39728 0.46627 -0.11000
N 	N 	0.72698 0.42998 0.69531 -0.10400
C 	C 	0.51896 0.24223 0.58685 -0.05500
C 	C 	0.54710 0.24749 0.62650 0.00500
C 	C 	0.57152 0.22510 0.62706 0.00900
C 	C 	0.56589 0.19518 0.58959 -0.05800
C 	C 	0.53517 0.18732 0.55194 0.00800
C 	C 	0.51216 0.21124 0.55024 0.00600
C 	C 	0.55077 0.27563 0.66700 0.09600
C 	C 	0.52721 0.15463 0.51500 0.09900
C 	C 	0.48072 0.20316 0.51145 0.10000
C 	C 	0.60398 0.23446 0.66512 0.09300
N 	N 	0.45565 0.19675 0.48053 -0.09600
N 	N 	0.62987 0.24196 0.69545 -0.11100
N 	N 	0.52078 0.12860 0.48540 -0.10000
N 	N 	0.55380 0.29782 0.69963 -0.10300
C 	C 	0.44205 0.41467 0.72002 -0.05500
C 	C 	0.42495 0.44296 0.70906 0.00600
C 	C 	0.40920 0.45907 0.74655 0.00900
C 	C 	0.41340 0.44928 0.79517 -0.05400
C 	C 	0.43927 0.42937 0.80600 0.00700
C 	C 	0.45224 0.41059 0.76858 0.00800
C 	C 	0.42447 0.45632 0.65955 0.09600
C 	C 	0.45261 0.42836 0.85548 0.09600
C 	C 	0.47445 0.38579 0.78020 0.10000
C 	C 	0.38733 0.48420 0.73496 0.10000
N 	N 	0.49217 0.36599 0.78949 -0.09900
N 	N 	0.36986 0.50424 0.72569 -0.10300
N 	N 	0.46347 0.42752 0.89488 -0.09400
N 	N 	0.42402 0.46743 0.62022 -0.09900
C 	C 	0.24857 0.36061 0.04631 -0.04400
C 	C 	0.24271 0.37007 0.09466 0.00300
C 	C 	0.21977 0.33495 0.12792 0.00500
C 	C 	0.21099 0.29156 0.11618 -0.05700
C 	C 	0.21691 0.28247 0.06756 0.01000
C 	C 	0.23002 0.31583 0.03222 -0.00500
C 	C 	0.26045 0.41547 0.11065 0.10600
C 	C 	0.21199 0.24001 0.05399 0.10600
C 	C 	0.22151 0.30355 0.98168 0.10300
C 	C 	0.20162 0.34280 0.17150 0.10400
N 	N 	0.21407 0.29288 0.94156 -0.09600
N 	N 	0.18715 0.34947 0.20608 -0.10300
N 	N 	0.20813 0.20618 0.04299 -0.09600
N 	N 	0.27460 0.45169 0.12353 -0.09800
C 	C 	0.20828 0.36044 0.84306 -0.05400
C 	C 	0.19602 0.33678 0.79912 0.01000
C 	C 	0.15069 0.30874 0.78799 0.00700
C 	C 	0.11758 0.30387 0.82113 -0.05200
C 	C 	0.12971 0.33013 0.86325 0.00900
C 	C 	0.17506 0.35812 0.87451 0.00700
C 	C 	0.23008 0.34009 0.76612 0.10600
C 	C 	0.09551 0.32759 0.89550 0.10700
C 	C 	0.18747 0.38418 0.91861 0.09000
C 	C 	0.13815 0.28428 0.74285 0.09000
N 	N 	0.19703 0.40482 0.95390 -0.10000
N 	N 	0.12846 0.26482 0.70678 -0.10000
N 	N 	0.06819 0.32553 0.92117 -0.09100
N 	N 	0.25727 0.34276 0.73984 -0.09500
C 	C 	0.41145 0.61799 0.92385 -0.06200
C 	C 	0.44246 0.64360 0.88773 0.01100
C 	C 	0.46737 0.69018 0.89220 0.00300
C 	C 	0.45831 0.71169 0.93014 -0.04900
C 	C 	0.42847 0.68604 0.96723 0.01000
C 	C 	0.40591 0.63928 0.96461 0.01300
C 	C 	0.44797 0.62224 0.84535 0.10400
C 	C 	0.41956 0.70760 0.00708 0.09400
C 	C 	0.37604 0.61320 0.00325 0.07700
C 	C 	0.50242 0.71597 0.85780 0.09400
N 	N 	0.35231 0.59253 0.03420 -0.10600
N 	N 	0.53036 0.73635 0.83024 -0.09800
N 	N 	0.41242 0.72478 0.03888 -0.10200
N 	N 	0.45232 0.60529 0.81142 -0.09300
C 	C 	0.20315 0.58843 0.90344 -0.05800
C 	C 	0.21750 0.57388 0.86316 0.00800
C 	C 	0.24532 0.55554 0.87018 0.00500
C 	C 	0.25041 0.54212 0.91710 -0.05500
C 	C 	0.23420 0.55496 0.95738 0.01400
C 	C 	0.21563 0.58256 0.95044 0.00600
C 	C 	0.20242 0.57601 0.81481 0.10500
C 	C 	0.23381 0.53778 0.00522 0.10100
C 	C 	0.21203 0.60694 0.99107 0.10000
C 	C 	0.27101 0.55355 0.82988 0.09300
N 	N 	0.20917 0.62637 0.02353 -0.11900
N 	N 	0.29149 0.55202 0.79767 -0.11100
N 	N 	0.23341 0.52406 0.04345 -0.09200
N 	N 	0.19039 0.57767 0.77619 -0.09500
C 	C 	0.62750 0.85532 0.84587 -0.05300
C 	C 	0.65969 0.87446 0.80910 0.01100
C 	C 	0.68851 0.85771 0.79949 0.00600
C 	C 	0.68504 0.82177 0.82668 -0.05100
C 	C 	0.65430 0.80414 0.86489 0.01000
C 	C 	0.62706 0.82228 0.87587 0.01000
C 	C 	0.66241 0.91060 0.78037 0.10500
C 	C 	0.64895 0.76574 0.89122 0.10700
C 	C 	0.60012 0.80829 0.91924 0.08700
C 	C 	0.71973 0.87564 0.75977 0.09500
N 	N 	0.57908 0.79681 0.95418 -0.10500
N 	N 	0.74425 0.88990 0.72769 -0.10200
N 	N 	0.64451 0.73501 0.91214 -0.09500
N 	N 	0.66455 0.93942 0.75749 -0.09900
C 	C 	0.81066 0.69182 0.69126 -0.05800
C 	C 	0.85597 0.70975 0.67915 0.00700
C 	C 	0.87500 0.68250 0.67977 0.01000
C 	C 	0.84737 0.63622 0.67993 -0.05400
C 	C 	0.80226 0.61787 0.69301 0.00300
C 	C 	0.78345 0.64546 0.69689 0.01300
C 	C 	0.88104 0.75385 0.65909 0.10200
C 	C 	0.77587 0.57127 0.70492 0.09800
C 	C 	0.73575 0.62595 0.70332 0.10000
C 	C 	0.92302 0.70199 0.68026 0.10300
N 	N 	0.69769 0.61039 0.70842 -0.10100
N 	N 	0.96135 0.71757 0.68064 -0.10000
N 	N 	0.75469 0.53414 0.71476 -0.10200
N 	N 	0.90129 0.78882 0.64240 -0.10500
C 	C 	0.86746 0.95330 0.74682 -0.04300
C 	C 	0.85841 0.97676 0.71116 -0.01800
C 	C 	0.87479 0.02251 0.71678 0.03400
C 	C 	0.90412 0.04577 0.75511 -0.07300
C 	C 	0.91221 0.02228 0.79143 0.03500
C 	C 	0.89449 0.97631 0.78703 -0.02100
C 	C 	0.83274 0.95401 0.66847 0.10900
C 	C 	0.94004 0.04567 0.83274 0.09100
C 	C 	0.90458 0.95285 0.82377 0.09100
C 	C 	0.86121 0.04571 0.68340 0.09300
N 	N 	0.91292 0.93476 0.85353 -0.10700
N 	N 	0.85026 0.06411 0.65674 -0.09600
N 	N 	0.96221 0.06429 0.86566 -0.10800
N 	N 	0.81230 0.93590 0.63438 -0.09900
C 	C 	0.94489 0.87157 0.75255 -0.04800
C 	C 	0.97449 0.88070 0.79178 -0.01600
C 	C 	0.02099 0.90589 0.78428 0.02900
C 	C 	0.03839 0.91397 0.73652 -0.07100
C 	C 	0.00834 0.90137 0.69709 0.03100
C 	C 	0.96267 0.88556 0.70563 -0.01700
C 	C 	0.95750 0.86297 0.83940 0.10800
C 	C 	0.02345 0.90148 0.64823 0.10800
C 	C 	0.93510 0.88720 0.66714 0.09100
C 	C 	0.05035 0.92568 0.82548 0.08300
N 	N 	0.91328 0.88862 0.63623 -0.11200
N 	N 	0.07373 0.94146 0.85840 -0.11600
N 	N 	0.03542 0.90147 0.60919 -0.08800
N 	N 	0.94397 0.84882 0.87741 -0.09900
C 	C 	0.87695 0.69411 0.14991 -0.05600
C 	C 	0.84594 0.70023 0.12281 0.00900
C 	C 	0.80060 0.67743 0.13578 0.00100
C 	C 	0.78470 0.64165 0.16868 -0.05500
C 	C 	0.81589 0.63538 0.19537 0.00700
C 	C 	0.86092 0.65759 0.18170 0.00300
C 	C 	0.85973 0.72611 0.07877 0.11000
C 	C 	0.80223 0.60848 0.23872 0.10500
C 	C 	0.88855 0.63869 0.19427 0.10100
C 	C 	0.77220 0.69464 0.12045 0.10300
N 	N 	0.91048 0.62340 0.20428 -0.10400
N 	N 	0.74979 0.70879 0.10830 -0.09900
N 	N 	0.79141 0.58707 0.27341 -0.09900
N 	N 	0.87053 0.74670 0.04350 -0.09700
C 	C 	0.73254 0.64398 0.96795 -0.04600
C 	C 	0.72514 0.68042 0.96976 0.01500
C 	C 	0.74571 0.71476 0.93578 0.01000
C 	C 	0.76577 0.70884 0.89444 -0.05800
C 	C 	0.77360 0.67281 0.89227 0.00800
C 	C 	0.75862 0.64135 0.93014 0.00500
C 	C 	0.69320 0.68061 0.00347 0.09500
C 	C 	0.79670 0.66797 0.85110 0.09900
C 	C 	0.77067 0.60701 0.93064 0.10100
C 	C 	0.74717 0.75660 0.94388 0.10500
N 	N 	0.78031 0.57960 0.93107 -0.09600
N 	N 	0.74845 0.79004 0.95055 -0.09700
N 	N 	0.81514 0.66413 0.81823 -0.09900
N 	N 	0.66764 0.68079 0.03023 -0.10100
C 	C 	0.54351 0.52267 0.02443 -0.06800
C 	C 	0.50858 0.49296 0.05482 0.01400
C 	C 	0.46397 0.47764 0.04156 -0.00100
C 	C 	0.45417 0.49177 0.99779 -0.04800
C 	C 	0.48912 0.52297 0.96851 0.00400
C 	C 	0.53374 0.53904 0.98233 0.02000
C 	C 	0.51842 0.47717 0.09910 0.09700
C 	C 	0.47921 0.53731 0.92330 0.10100
C 	C 	0.56965 0.57142 0.95244 0.10300
C 	C 	0.42812 0.44575 0.07188 0.10500
N 	N 	0.59831 0.59725 0.92866 -0.09500
N 	N 	0.39951 0.42032 0.09602 -0.09800
N 	N 	0.47152 0.54873 0.88709 -0.09600
N 	N 	0.52579 0.46425 0.13447 -0.09500
C 	C 	0.79578 0.41884 0.08345 -0.06100
C 	C 	0.74925 0.39828 0.08051 0.01200
C 	C 	0.73002 0.42259 0.06392 0.00600
C 	C 	0.75316 0.46887 0.06937 -0.05100
C 	C 	0.79935 0.49077 0.07953 0.00300
C 	C 	0.82111 0.46562 0.08519 0.00900
C 	C 	0.72185 0.35741 0.10615 0.09600
C 	C 	0.82417 0.53861 0.08412 0.09700
C 	C 	0.86823 0.48745 0.09633 0.09900
C 	C 	0.68717 0.40009 0.03999 0.10100
N 	N 	0.90584 0.50481 0.10541 -0.10100
N 	N 	0.65306 0.38166 0.02053 -0.09900
N 	N 	0.84393 0.57681 0.08776 -0.10200
N 	N 	0.69950 0.32519 0.12737 -0.09900
C 	C 	0.57541 0.38195 0.09584 -0.05500
C 	C 	0.58867 0.35696 0.12442 0.01100
C 	C 	0.56840 0.31064 0.11799 0.00200
C 	C 	0.53406 0.28866 0.08330 -0.04800
C 	C 	0.52076 0.31391 0.05468 0.01000
C 	C 	0.54080 0.36020 0.06175 0.00700
C 	C 	0.62420 0.37907 0.15964 0.09400
C 	C 	0.48692 0.29275 0.01763 0.10300
C 	C 	0.52600 0.38556 0.03345 0.09700
C 	C 	0.58266 0.28560 0.14762 0.09000
N 	N 	0.51408 0.40561 0.01073 -0.09800
N 	N 	0.59413 0.26592 0.17163 -0.10200
N 	N 	0.46005 0.27625 0.98783 -0.08100
N 	N 	0.65253 0.39662 0.18775 -0.10600
C 	C 	0.59269 0.56510 0.22153 -0.06100
C 	C 	0.59713 0.60757 0.21651 0.00900
C 	C 	0.57302 0.62058 0.24680 0.00500
C 	C 	0.54898 0.59389 0.28658 -0.06000
C 	C 	0.54431 0.55130 0.29175 0.00500
C 	C 	0.56564 0.53671 0.25885 0.00800
C 	C 	0.62718 0.63837 0.18069 0.08600
C 	C 	0.51592 0.52172 0.32939 0.10400
C 	C 	0.55863 0.49213 0.26260 0.10200
C 	C 	0.57163 0.66061 0.23572 0.10700
N 	N 	0.55302 0.45654 0.26556 -0.09600
N 	N 	0.57040 0.69243 0.22661 -0.09700
N 	N 	0.49329 0.49815 0.35944 -0.09700
N 	N 	0.65101 0.66305 0.15214 -0.11100
C 	C 	0.69698 0.76730 0.61520 -0.05000
C 	C 	0.65911 0.77241 0.61801 0.00300
C 	C 	0.62817 0.75797 0.57949 0.00900
C 	C 	0.63166 0.73290 0.54120 -0.05400
C 	C 	0.66936 0.72717 0.53898 0.00800
C 	C 	0.70330 0.74716 0.57405 0.00700
C 	C 	0.65053 0.79015 0.66149 0.09700
C 	C 	0.67199 0.69846 0.50265 0.09900
C 	C 	0.74421 0.74572 0.56859 0.10200
C 	C 	0.59370 0.77003 0.57868 0.10400
N 	N 	0.77682 0.74455 0.56414 -0.09700
N 	N 	0.56623 0.77972 0.57810 -0.09300
N 	N 	0.67412 0.67555 0.47373 -0.10900
N 	N 	0.64318 0.80401 0.69612 -0.10000
C 	C 	0.67630 0.86995 0.31899 -0.05500
C 	C 	0.68082 0.83865 0.29071 0.00600
C 	C 	0.65820 0.79366 0.30414 0.01000
C 	C 	0.62813 0.77958 0.34307 -0.05700
C 	C 	0.62703 0.81151 0.37360 0.00600
C 	C 	0.64834 0.85608 0.35957 0.01100
C 	C 	0.70593 0.85213 0.24604 0.09100
C 	C 	0.60723 0.79939 0.42105 0.08400
C 	C 	0.63927 0.88714 0.38512 0.10500
C 	C 	0.66728 0.76234 0.27936 0.10400
N 	N 	0.63186 0.91182 0.40542 -0.10000
N 	N 	0.67480 0.73748 0.25964 -0.09800
N 	N 	0.59214 0.79106 0.45944 -0.10100
N 	N 	0.72569 0.86267 0.21019 -0.10300
C 	C 	0.47725 0.45708 0.51909 -0.05700
C 	C 	0.51677 0.49295 0.53808 0.00700
C 	C 	0.52845 0.53690 0.52622 0.00700
C 	C 	0.49861 0.54493 0.49892 -0.05500
C 	C 	0.45609 0.50899 0.48743 0.00600
C 	C 	0.44858 0.46564 0.49086 0.01200
C 	C 	0.54364 0.48499 0.57247 0.09900
C 	C 	0.41811 0.51558 0.48482 0.10900
C 	C 	0.40961 0.42946 0.46816 0.10300
C 	C 	0.56854 0.57363 0.54658 0.10400
N 	N 	0.37852 0.40057 0.45004 -0.09400
N 	N 	0.60048 0.60288 0.56293 -0.09900
N 	N 	0.38750 0.52053 0.48388 -0.10300
N 	N 	0.56527 0.47923 0.60022 -0.09600
C 	C 	0.42774 0.81826 0.41487 -0.06100
C 	C 	0.45504 0.81847 0.37693 0.01300
C 	C 	0.48077 0.79761 0.38326 0.00400
C 	C 	0.47732 0.77448 0.42648 -0.04600
C 	C 	0.45627 0.78095 0.46687 0.00700
C 	C 	0.43049 0.80173 0.46085 0.01300
C 	C 	0.45732 0.84078 0.33187 0.10100
C 	C 	0.45985 0.76516 0.51425 0.11000
C 	C 	0.40586 0.80480 0.50164 0.08300
C 	C 	0.51136 0.80062 0.34580 0.09200
N 	N 	0.38632 0.80723 0.53430 -0.12000
N 	N 	0.53576 0.80322 0.31576 -0.09700
N 	N 	0.46258 0.75255 0.55212 -0.09700
N 	N 	0.45913 0.85861 0.29592 -0.09800
C 	C 	0.36495 0.58642 0.41457 -0.05800
C 	C 	0.33975 0.60475 0.43372 0.00900
C 	C 	0.29441 0.57725 0.44334 0.00100
C 	C 	0.27207 0.53421 0.42418 -0.05300
C 	C 	0.29678 0.51463 0.40834 0.01100
C 	C 	0.34268 0.54155 0.39939 0.00900
C 	C 	0.35940 0.65213 0.43991 0.10300
C 	C 	0.27761 0.46714 0.41213 0.10700
C 	C 	0.36673 0.52302 0.37501 0.10800
C 	C 	0.27209 0.59165 0.47695 0.09100
N 	N 	0.38589 0.50816 0.35559 -0.09500
N 	N 	0.25448 0.60316 0.50405 -0.10400
N 	N 	0.26229 0.42921 0.41591 -0.09700
N 	N 	0.37465 0.68991 0.44505 -0.10100
