data_crystal

_cell_length_a 43.01325
_cell_length_b 41.29221
_cell_length_c 19.18204
_cell_angle_alpha 93.19552
_cell_angle_beta  92.46559
_cell_angle_gamma 90.06231

_symmetry_space_group_name_	'P 1'
_symmetry_space_group_name_H-M	'P 1'

loop_
_symmetry_equiv_pos_as_xyz
  x,y,z

loop_
_atom_site_label
_atom_site_type_symbol
_atom_site_fract_x
_atom_site_fract_y
_atom_site_fract_z
_atom_site_charge
Cd	Cd	0.96244 0.81621 0.24819 1.24000
Cd	Cd	0.93164 0.84174 0.41086 1.17600
O 	O 	0.95000 0.76172 0.19492 -0.31600
O 	O 	0.97761 0.79671 0.14200 -0.35200
C 	C 	0.96680 0.76727 0.14203 0.26900
O 	O 	0.97462 0.86875 0.25925 -0.37800
O 	O 	0.96951 0.87429 0.37737 -0.45500
C 	C 	0.96997 0.88732 0.31613 0.28100
C 	C 	0.89984 0.83768 0.25409 0.32000
O 	O 	0.96464 0.79928 0.37955 -0.44100
O 	O 	0.90871 0.83607 0.18957 -0.29100
O 	O 	0.91860 0.82449 0.29868 -0.53900
C 	C 	0.99489 0.80017 0.37681 0.30900
O 	O 	0.00591 0.80421 0.31563 -0.38400
Cd	Cd	0.96430 0.92902 0.95997 1.24000
Cd	Cd	0.93749 0.98143 0.82796 1.17700
O 	O 	0.00275 0.88799 0.92453 -0.31600
O 	O 	0.98764 0.89310 0.03231 -0.32600
C 	C 	0.00451 0.87733 0.98694 0.25400
O 	O 	0.93743 0.96774 0.01902 -0.36200
O 	O 	0.90818 0.98122 0.92208 -0.42700
C 	C 	0.91855 0.98803 0.98693 0.28100
C 	C 	0.00283 0.98070 0.92312 0.32000
O 	O 	0.93443 0.92600 0.83711 -0.45400
O 	O 	0.01360 0.96881 0.98107 -0.29800
O 	O 	0.98014 0.96481 0.89062 -0.53800
C 	C 	0.91212 0.91070 0.86564 0.31200
O 	O 	0.91872 0.90140 0.92849 -0.35100
C 	C 	0.07387 0.70756 0.88703 0.11100
N 	N 	0.06285 0.67977 0.91195 -0.14300
C 	C 	0.06582 0.65107 0.87467 0.12800
N 	N 	0.07859 0.65041 0.81120 -0.14500
C 	C 	0.08887 0.67815 0.78527 0.12800
N 	N 	0.08735 0.70661 0.82407 -0.14100
C 	C 	0.07273 0.62575 0.18278 0.11200
N 	N 	0.08632 0.63193 0.24736 -0.14000
C 	C 	0.09202 0.60741 0.29045 0.12700
N 	N 	0.08343 0.57662 0.26911 -0.14400
C 	C 	0.06977 0.57028 0.20454 0.12600
N 	N 	0.06476 0.59487 0.16137 -0.14600
Cd	Cd	0.75800 0.01774 0.75383 1.24000
Cd	Cd	0.80594 0.02102 0.90842 1.18100
O 	O 	0.70519 0.99472 0.75693 -0.31900
O 	O 	0.72106 0.01843 0.66478 -0.35400
C 	C 	0.69890 0.00333 0.69385 0.27300
O 	O 	0.80041 0.04636 0.72837 -0.38500
O 	O 	0.83285 0.02386 0.81084 -0.44400
C 	C 	0.82812 0.04426 0.76100 0.29200
C 	C 	0.74674 0.06671 0.86058 0.31000
O 	O 	0.78194 0.97805 0.84397 -0.44900
O 	O 	0.73267 0.07325 0.80136 -0.30900
O 	O 	0.76011 0.03859 0.86112 -0.53400
C 	C 	0.79361 0.96142 0.79158 0.30700
O 	O 	0.78470 0.97012 0.72947 -0.34400
Cd	Cd	0.83829 0.99844 0.49715 1.24000
Cd	Cd	0.89692 0.99531 0.37156 1.18800
O 	O 	0.78518 0.01001 0.45348 -0.31700
O 	O 	0.79470 0.99617 0.56134 -0.35000
C 	C 	0.77416 0.00407 0.51333 0.27000
O 	O 	0.88057 0.97996 0.55516 -0.38300
O 	O 	0.91485 0.00231 0.48292 -0.41600
C 	C 	0.90907 0.98260 0.53247 0.30200
C 	C 	0.84298 0.94179 0.40622 0.32100
O 	O 	0.86275 0.03593 0.40751 -0.44000
O 	O 	0.82530 0.93679 0.45823 -0.30100
O 	O 	0.85184 0.97163 0.40142 -0.52300
C 	C 	0.86757 0.05757 0.45899 0.31500
O 	O 	0.85625 0.05108 0.51866 -0.35900
C 	C 	0.53140 0.95894 0.71732 0.11200
N 	N 	0.50311 0.96982 0.69482 -0.14500
C 	C 	0.47938 0.97210 0.73943 0.12500
N 	N 	0.48417 0.96399 0.80679 -0.14300
C 	C 	0.51259 0.95365 0.82955 0.12700
N 	N 	0.53597 0.95071 0.78453 -0.14100
C 	C 	0.59415 0.99227 0.42657 0.11200
N 	N 	0.59065 0.97173 0.36883 -0.14100
C 	C 	0.56248 0.96839 0.33421 0.12700
N 	N 	0.53773 0.98523 0.35841 -0.14400
C 	C 	0.54105 0.00568 0.41613 0.12900
N 	N 	0.56925 0.00913 0.45031 -0.14100
Cd	Cd	0.00775 0.09100 0.25414 1.24000
Cd	Cd	0.01583 0.07041 0.43218 1.19600
O 	O 	0.03544 0.13922 0.21985 -0.31700
O 	O 	0.00733 0.10912 0.14404 -0.35500
C 	C 	0.02217 0.13644 0.15765 0.26700
O 	O 	0.98672 0.04124 0.25350 -0.38600
O 	O 	0.97706 0.04499 0.36975 -0.42100
C 	C 	0.98177 0.02714 0.31231 0.28100
C 	C 	0.06292 0.06028 0.30290 0.32500
O 	O 	0.99489 0.11533 0.38029 -0.42600
O 	O 	0.06120 0.05969 0.23458 -0.29700
O 	O 	0.04254 0.07838 0.33395 -0.53000
C 	C 	0.96630 0.11886 0.35615 0.31500
O 	O 	0.96196 0.11401 0.28868 -0.37300
Cd	Cd	0.86289 0.18909 0.04536 1.24400
Cd	Cd	0.83763 0.14530 0.88933 1.17300
O 	O 	0.84420 0.24503 0.06615 -0.31100
O 	O 	0.87469 0.22185 0.14239 -0.35700
C 	C 	0.86186 0.24862 0.12272 0.26900
O 	O 	0.87979 0.13876 0.06202 -0.38700
O 	O 	0.87803 0.12191 0.94607 -0.45400
C 	C 	0.87894 0.11514 0.01257 0.31400
C 	C 	0.80194 0.16261 0.03306 0.33900
O 	O 	0.86483 0.19395 0.90881 -0.45000
O 	O 	0.80933 0.17019 0.09886 -0.29900
O 	O 	0.82148 0.17146 0.98859 -0.55800
C 	C 	0.89481 0.19807 0.91744 0.29900
O 	O 	0.90580 0.19958 0.98205 -0.36900
C 	C 	0.94201 0.39362 0.98996 0.09100
N 	N 	0.95666 0.42254 0.00473 -0.12900
C 	C 	0.96433 0.44121 0.95177 0.11600
N 	N 	0.95903 0.43008 0.88442 -0.14300
C 	C 	0.94501 0.40096 0.86972 0.12600
N 	N 	0.93520 0.38354 0.92245 -0.13900
C 	C 	0.96791 0.30405 0.26155 0.11500
N 	N 	0.97215 0.33112 0.22583 -0.14100
C 	C 	0.97034 0.36094 0.25905 0.12900
N 	N 	0.96502 0.36352 0.32835 -0.14400
C 	C 	0.96038 0.33662 0.36393 0.12900
N 	N 	0.96229 0.30685 0.33078 -0.14100
Cd	Cd	0.00800 0.13378 0.67143 1.23800
Cd	Cd	0.98660 0.14247 0.84930 1.17600
O 	O 	0.06073 0.15168 0.64795 -0.32500
O 	O 	0.03264 0.12304 0.56950 -0.40500
C 	C 	0.06019 0.13419 0.58952 0.27900
O 	O 	0.96212 0.10740 0.67242 -0.38100
O 	O 	0.94551 0.13366 0.77310 -0.43100
C 	C 	0.94221 0.11028 0.72338 0.29800
C 	C 	0.03018 0.08820 0.76799 0.33700
O 	O 	0.00198 0.17904 0.77000 -0.46300
O 	O 	0.03445 0.07786 0.70371 -0.30600
O 	O 	0.02028 0.11777 0.77568 -0.54500
C 	C 	0.98331 0.19445 0.72828 0.31100
O 	O 	0.98194 0.18301 0.66318 -0.35500
Cd	Cd	0.09714 0.91720 0.59688 1.23900
Cd	Cd	0.05415 0.89919 0.43634 1.18600
O 	O 	0.15402 0.91587 0.59118 -0.32000
O 	O 	0.13172 0.93586 0.68426 -0.35000
C 	C 	0.15745 0.93186 0.65119 0.26700
O 	O 	0.04813 0.92942 0.62291 -0.38000
O 	O 	0.02551 0.89855 0.53150 -0.43000
C 	C 	0.02401 0.92256 0.57946 0.30200
C 	C 	0.09073 0.96633 0.49758 0.31100
O 	O 	0.08989 0.87005 0.50132 -0.46000
O 	O 	0.09978 0.97779 0.55988 -0.31100
O 	O 	0.08975 0.93481 0.48993 -0.51200
C 	C 	0.08356 0.85062 0.55001 0.31500
O 	O 	0.08781 0.86272 0.61413 -0.35600
C 	C 	0.21742 0.07656 0.73309 0.11200
N 	N 	0.24328 0.06538 0.70145 -0.14100
C 	C 	0.26894 0.05753 0.74058 0.12900
N 	N 	0.26860 0.06085 0.81127 -0.14400
C 	C 	0.24237 0.07043 0.84330 0.12300
N 	N 	0.21652 0.07780 0.80402 -0.14000
C 	C 	0.26961 0.04115 0.47406 0.11200
N 	N 	0.26019 0.04730 0.40747 -0.14200
C 	C 	0.28156 0.05127 0.35843 0.12700
N 	N 	0.31236 0.05131 0.37734 -0.14400
C 	C 	0.32176 0.04688 0.44458 0.12700
N 	N 	0.30043 0.04140 0.49266 -0.14200
C 	C 	0.27148 0.05585 0.28462 -0.05000
C 	C 	0.24682 0.03736 0.25061 0.10100
C 	C 	0.23689 0.04410 0.18219 -0.08800
C 	C 	0.25441 0.06466 0.14309 -0.00100
C 	C 	0.27980 0.08229 0.17608 0.06900
C 	C 	0.28718 0.07868 0.24729 -0.05200
N 	N 	0.23431 0.01162 0.28088 -0.19900
H 	H 	0.21739 0.03076 0.15692 0.05900
C 	C 	0.24816 0.06465 0.06623 -0.01500
N 	N 	0.29752 0.10219 0.13965 -0.19400
H 	H 	0.30584 0.09308 0.27320 0.05000
C 	C 	0.23403 0.09179 0.03743 -0.06600
C 	C 	0.23195 0.09457 0.96456 0.08100
C 	C 	0.24085 0.06793 0.91980 -0.03900
C 	C 	0.25185 0.03948 0.94907 -0.07100
C 	C 	0.25715 0.03816 0.02150 0.08900
H 	H 	0.22665 0.11179 0.07184 0.05300
N 	N 	0.22273 0.12317 0.93849 -0.19700
H 	H 	0.25806 0.01888 0.91494 0.05200
N 	N 	0.27163 0.01182 0.04746 -0.19600
H 	H 	0.21491 0.14204 0.97183 0.08100
H 	H 	0.22478 0.12770 0.88595 0.09200
H 	H 	0.27728 0.99201 0.01411 0.08700
H 	H 	0.27847 0.01112 0.10019 0.09100
H 	H 	0.31589 0.11541 0.16482 0.08500
H 	H 	0.29376 0.10432 0.08602 0.09000
H 	H 	0.24592 0.00076 0.32233 0.09500
H 	H 	0.21437 0.00010 0.25840 0.08900
C 	C 	0.18208 0.95656 0.65956 -0.05900
C 	C 	0.21301 0.94666 0.67089 0.00400
C 	C 	0.23743 0.96430 0.64497 -0.05800
C 	C 	0.23093 0.99149 0.60596 0.02700
C 	C 	0.20009 0.00298 0.59984 0.01300
C 	C 	0.17625 0.98671 0.63138 -0.02200
C 	C 	0.19300 0.02850 0.55661 -0.04000
C 	C 	0.21627 0.04258 0.51975 -0.02300
C 	C 	0.24672 0.03047 0.52323 -0.00800
C 	C 	0.25424 0.00551 0.56810 -0.04500
H 	H 	0.21794 0.92387 0.69443 0.03200
H 	H 	0.26107 0.95554 0.65118 0.04400
H 	H 	0.15251 0.99526 0.62591 0.05100
H 	H 	0.16924 0.03659 0.54929 0.04500
H 	H 	0.21035 0.06214 0.48628 0.04400
H 	H 	0.27771 0.99593 0.57066 0.04800
C 	C 	0.19170 0.09001 0.69107 -0.00500
C 	C 	0.19559 0.11967 0.66012 -0.03100
C 	C 	0.17115 0.13281 0.62042 -0.03700
C 	C 	0.14287 0.11591 0.60971 -0.00200
C 	C 	0.13970 0.08498 0.63667 0.03600
C 	C 	0.16361 0.07284 0.68000 -0.05600
C 	C 	0.11233 0.06706 0.62103 -0.06600
C 	C 	0.08701 0.08145 0.58669 0.02200
C 	C 	0.08790 0.11468 0.57432 -0.08900
C 	C 	0.11694 0.13043 0.57713 -0.00100
H 	H 	0.21738 0.13283 0.66786 0.03800
H 	H 	0.17409 0.15627 0.59887 0.03900
H 	H 	0.16062 0.04993 0.70395 0.05400
H 	H 	0.11027 0.04248 0.63738 0.06500
H 	H 	0.06542 0.06800 0.57820 0.01100
H 	H 	0.11835 0.15538 0.56255 0.03800
C 	C 	0.94294 0.38710 0.79716 -0.05000
C 	C 	0.95596 0.35638 0.77875 0.10100
C 	C 	0.95356 0.34425 0.70895 -0.08600
C 	C 	0.94172 0.36365 0.65643 -0.00400
C 	C 	0.92814 0.39399 0.67478 0.07000
C 	C 	0.92863 0.40525 0.74520 -0.05300
N 	N 	0.97228 0.33934 0.82674 -0.19900
H 	H 	0.96347 0.32080 0.69463 0.05900
C 	C 	0.94775 0.35415 0.58278 -0.00400
N 	N 	0.91492 0.41252 0.62511 -0.19400
H 	H 	0.91829 0.42850 0.75948 0.04900
C 	C 	0.92466 0.33740 0.54137 -0.08600
C 	C 	0.92837 0.33087 0.46956 0.10200
C 	C 	0.95653 0.33981 0.43981 -0.05000
C 	C 	0.98033 0.35474 0.48229 -0.04800
C 	C 	0.97610 0.36249 0.55329 0.07100
H 	H 	0.90318 0.33064 0.56449 0.05700
N 	N 	0.90457 0.31693 0.42943 -0.20000
H 	H 	0.00196 0.36125 0.45945 0.04800
N 	N 	0.99915 0.37827 0.59255 -0.19300
H 	H 	0.88412 0.31002 0.45223 0.08800
H 	H 	0.90574 0.31342 0.37533 0.09400
H 	H 	0.01997 0.38429 0.57016 0.08300
H 	H 	0.99671 0.38485 0.64534 0.08900
H 	H 	0.90553 0.43518 0.63905 0.08300
H 	H 	0.91336 0.40449 0.57252 0.08800
H 	H 	0.98003 0.35011 0.87484 0.08900
H 	H 	0.97952 0.31566 0.81400 0.08500
C 	C 	0.91325 0.20964 0.86044 -0.13000
C 	C 	0.90469 0.20056 0.79058 -0.06200
C 	C 	0.92649 0.20287 0.73879 0.16800
C 	C 	0.95717 0.21264 0.75810 -0.12600
C 	C 	0.96259 0.22956 0.82299 -0.08100
C 	C 	0.94099 0.22746 0.87506 0.15400
H 	H 	0.88188 0.19034 0.77703 0.03400
O 	O 	0.91795 0.19530 0.67006 -0.28200
H 	H 	0.98516 0.24051 0.83605 0.04900
O 	O 	0.94756 0.24162 0.94045 -0.29900
H 	H 	0.93867 0.26375 0.93936 0.14900
H 	H 	0.92082 0.17155 0.66302 0.15400
C 	C 	0.87872 0.27940 0.13615 -0.06500
C 	C 	0.86228 0.30778 0.15421 0.00800
C 	C 	0.87469 0.33822 0.14185 -0.06100
C 	C 	0.90347 0.34041 0.11047 0.03300
C 	C 	0.92135 0.31210 0.09885 0.00900
C 	C 	0.90891 0.28180 0.11196 -0.01700
C 	C 	0.95017 0.31415 0.06794 -0.03600
C 	C 	0.95959 0.34329 0.04201 -0.02900
C 	C 	0.93976 0.37023 0.04414 0.00900
C 	C 	0.91300 0.36963 0.08350 -0.05500
H 	H 	0.83904 0.30617 0.17344 0.03500
H 	H 	0.86112 0.35986 0.15293 0.04600
H 	H 	0.92140 0.25989 0.09665 0.05000
H 	H 	0.96452 0.29278 0.06063 0.04700
H 	H 	0.98097 0.34407 0.01428 0.04000
H 	H 	0.89820 0.39086 0.08727 0.04900
C 	C 	0.09085 0.98740 0.43756 -0.13800
C 	C 	0.10397 0.01861 0.44757 -0.06200
C 	C 	0.09751 0.04206 0.39941 0.14700
C 	C 	0.07835 0.03429 0.33981 -0.14700
C 	C 	0.06888 0.00205 0.32475 -0.06800
C 	C 	0.07501 0.97855 0.37343 0.16900
H 	H 	0.11799 0.02516 0.49442 0.06100
O 	O 	0.10806 0.07323 0.41324 -0.30600
H 	H 	0.05496 0.99566 0.27753 0.06400
O 	O 	0.06601 0.94711 0.35758 -0.36200
H 	H 	0.04383 0.94630 0.36919 0.07100
H 	H 	0.12868 0.07394 0.39213 0.15300
C 	C 	0.00991 0.16600 0.12807 -0.07700
C 	C 	0.03094 0.18944 0.10820 0.00200
C 	C 	0.02439 0.22248 0.11988 -0.06400
C 	C 	0.99724 0.23202 0.15357 0.03200
C 	C 	0.97450 0.20846 0.16559 0.00500
C 	C 	0.97997 0.17581 0.14624 -0.01500
C 	C 	0.94885 0.21711 0.20528 -0.03800
C 	C 	0.94683 0.24830 0.23673 -0.02200
C 	C 	0.96944 0.27176 0.22552 -0.00800
C 	C 	0.99410 0.26388 0.18204 -0.05000
H 	H 	0.05362 0.18215 0.09060 0.02700
H 	H 	0.04155 0.24039 0.10814 0.04400
H 	H 	0.96293 0.15760 0.15731 0.04400
H 	H 	0.93128 0.19923 0.21472 0.05000
H 	H 	0.92742 0.25440 0.26914 0.04800
H 	H 	0.01160 0.28200 0.17343 0.04600
C 	C 	0.51440 0.02527 0.43928 -0.05200
C 	C 	0.49558 0.04176 0.39050 0.10200
C 	C 	0.46518 0.05047 0.40712 -0.08600
C 	C 	0.45424 0.04494 0.47319 -0.00600
C 	C 	0.47513 0.03429 0.52592 0.07100
C 	C 	0.50488 0.02354 0.50801 -0.05400
N 	N 	0.50672 0.04958 0.32831 -0.19900
H 	H 	0.44968 0.06057 0.36790 0.05600
C 	C 	0.42029 0.04498 0.48250 -0.00500
N 	N 	0.46707 0.03511 0.59367 -0.19400
H 	H 	0.52003 0.01265 0.54676 0.05200
C 	C 	0.40384 0.01574 0.47044 -0.08300
C 	C 	0.37136 0.01569 0.46000 0.10100
C 	C 	0.35510 0.04546 0.46391 -0.05200
C 	C 	0.37131 0.07441 0.48175 -0.05400
C 	C 	0.40384 0.07442 0.49180 0.06700
H 	H 	0.41652 0.99309 0.46546 0.05400
N 	N 	0.35608 0.98715 0.44442 -0.20000
H 	H 	0.35864 0.09706 0.48674 0.04400
N 	N 	0.41910 0.10265 0.51043 -0.19500
H 	H 	0.36845 0.96543 0.43918 0.08200
H 	H 	0.33186 0.98606 0.43871 0.09000
H 	H 	0.40689 0.12447 0.51537 0.08100
H 	H 	0.44303 0.10305 0.52232 0.08600
H 	H 	0.48311 0.02851 0.63275 0.09000
H 	H 	0.44545 0.04395 0.60852 0.08900
H 	H 	0.53022 0.04665 0.31790 0.09400
H 	H 	0.49223 0.06036 0.29115 0.08600
C 	C 	0.44931 0.98599 0.71671 -0.05400
C 	C 	0.43744 0.01397 0.75206 0.10000
C 	C 	0.40617 0.02237 0.74045 -0.08800
C 	C 	0.38730 0.00488 0.69018 -0.00400
C 	C 	0.40033 0.97936 0.64849 0.06700
C 	C 	0.43120 0.96981 0.66299 -0.05200
N 	N 	0.45627 0.03357 0.79470 -0.19900
H 	H 	0.39653 0.04280 0.77018 0.05400
C 	C 	0.35379 0.01308 0.68352 -0.00400
N 	N 	0.38311 0.96335 0.59631 -0.19400
H 	H 	0.44080 0.94920 0.63380 0.04800
C 	C 	0.34519 0.04233 0.65429 -0.08500
C 	C 	0.31602 0.05631 0.66669 0.10400
C 	C 	0.29496 0.04018 0.70785 -0.05100
C 	C 	0.30198 0.00890 0.72852 -0.05000
C 	C 	0.33138 0.99534 0.71790 0.06600
H 	H 	0.36207 0.05538 0.62611 0.05600
N 	N 	0.30875 0.08537 0.64022 -0.19900
H 	H 	0.28521 0.99596 0.75733 0.04600
N 	N 	0.33825 0.96584 0.74277 -0.19400
H 	H 	0.32468 0.09724 0.61074 0.08600
H 	H 	0.28706 0.09608 0.64692 0.09400
H 	H 	0.32162 0.95315 0.76871 0.08100
H 	H 	0.35991 0.95503 0.73621 0.08800
H 	H 	0.39287 0.94446 0.56607 0.08100
H 	H 	0.36004 0.96965 0.58479 0.08900
H 	H 	0.48041 0.03100 0.79535 0.08600
H 	H 	0.44702 0.05312 0.82385 0.08200
C 	C 	0.51929 0.94997 0.90467 -0.05000
C 	C 	0.52233 0.97743 0.95218 0.09000
C 	C 	0.52938 0.97304 0.02308 -0.07600
C 	C 	0.53592 0.94212 0.04644 0.00800
C 	C 	0.53338 0.91465 0.99884 0.04800
C 	C 	0.52459 0.91886 0.92848 -0.04700
N 	N 	0.51971 0.00803 0.92973 -0.19700
H 	H 	0.53123 0.99399 0.05977 0.05600
C 	C 	0.54664 0.93919 0.12030 -0.00900
N 	N 	0.53978 0.88435 0.01994 -0.18100
H 	H 	0.52252 0.89791 0.89186 0.04600
C 	C 	0.52521 0.93021 0.16883 -0.08400
C 	C 	0.53224 0.93490 0.24087 0.10100
C 	C 	0.55999 0.95136 0.26421 -0.04900
C 	C 	0.58285 0.95677 0.21604 -0.05500
C 	C 	0.57661 0.95019 0.14417 0.07500
H 	H 	0.50282 0.92017 0.15055 0.05500
N 	N 	0.51266 0.92317 0.28725 -0.19800
H 	H 	0.60490 0.96771 0.23399 0.05400
N 	N 	0.59923 0.95489 0.09836 -0.19500
H 	H 	0.49151 0.91240 0.26992 0.08500
H 	H 	0.51907 0.92298 0.34038 0.09300
H 	H 	0.62095 0.96418 0.11606 0.09000
H 	H 	0.59589 0.94823 0.04524 0.09500
H 	H 	0.53770 0.86425 0.98444 0.07600
H 	H 	0.54711 0.88043 0.07134 0.08900
H 	H 	0.51869 0.01239 0.87666 0.08900
H 	H 	0.52044 0.02804 0.96562 0.08100
C 	C 	0.93956 0.11705 0.40170 -0.12900
C 	C 	0.90953 0.12186 0.37255 -0.05200
C 	C 	0.88421 0.10540 0.39736 0.16100
C 	C 	0.88889 0.08481 0.45271 -0.11800
C 	C 	0.91738 0.08584 0.49116 -0.07200
C 	C 	0.94268 0.10251 0.46643 0.17700
H 	H 	0.90633 0.13560 0.32626 0.06500
O 	O 	0.85561 0.10698 0.36327 -0.28600
H 	H 	0.92055 0.07187 0.53714 0.07400
O 	O 	0.97051 0.10348 0.50400 -0.38100
H 	H 	0.96979 0.12367 0.53439 0.15000
H 	H 	0.84474 0.12519 0.38770 0.15100
C 	C 	0.93554 0.96770 0.57003 -0.11700
C 	C 	0.96210 0.98658 0.58893 -0.06800
C 	C 	0.99104 0.97174 0.60025 0.15800
C 	C 	0.99353 0.93776 0.59235 -0.11400
C 	C 	0.96626 0.91890 0.58333 -0.07200
C 	C 	0.93732 0.93376 0.57201 0.14900
H 	H 	0.96081 0.01280 0.58906 0.07000
O 	O 	0.01723 0.99060 0.61194 -0.29900
H 	H 	0.96774 0.89268 0.58075 0.04600
O 	O 	0.91143 0.91493 0.55582 -0.33200
H 	H 	0.90189 0.91186 0.60115 0.15100
H 	H 	0.01955 0.99425 0.66346 0.15200
C 	C 	0.74086 0.99793 0.51906 -0.06000
C 	C 	0.73011 0.96601 0.52308 0.01100
C 	C 	0.69867 0.95853 0.50869 -0.05900
C 	C 	0.67760 0.98307 0.49144 0.03200
C 	C 	0.68796 0.01559 0.49260 0.00900
C 	C 	0.71961 0.02280 0.50569 -0.00600
C 	C 	0.66665 0.04036 0.47886 -0.03800
C 	C 	0.63558 0.03277 0.46093 -0.02800
C 	C 	0.62554 0.00034 0.45570 -0.00300
C 	C 	0.64641 0.97555 0.47247 -0.05200
H 	H 	0.74640 0.94671 0.53365 0.04500
H 	H 	0.69084 0.93362 0.50990 0.04800
H 	H 	0.72791 0.04752 0.50317 0.04300
H 	H 	0.67422 0.06545 0.48107 0.04200
H 	H 	0.61952 0.05205 0.44868 0.04300
H 	H 	0.63846 0.95055 0.47003 0.05000
C 	C 	0.85547 0.06020 0.73307 -0.12500
C 	C 	0.88312 0.04250 0.72425 -0.05900
C 	C 	0.91141 0.05861 0.71617 0.13700
C 	C 	0.91215 0.09265 0.71549 -0.09900
C 	C 	0.88410 0.11005 0.71822 -0.08300
C 	C 	0.85586 0.09399 0.72691 0.15800
H 	H 	0.88301 0.01638 0.72749 0.01500
O 	O 	0.93838 0.04109 0.71121 -0.30000
H 	H 	0.88432 0.13618 0.71648 0.04600
O 	O 	0.82916 0.11170 0.73491 -0.38500
H 	H 	0.81977 0.11299 0.68702 0.16700
H 	H 	0.94639 0.03913 0.76004 0.06800
C 	C 	0.75162 0.09188 0.91795 -0.13100
C 	C 	0.74588 0.12450 0.90500 -0.08200
C 	C 	0.75726 0.14907 0.95226 0.14400
C 	C 	0.77597 0.14108 0.01062 -0.14800
C 	C 	0.77647 0.10888 0.03028 -0.04100
C 	C 	0.76391 0.08413 0.98432 0.09200
H 	H 	0.73405 0.13090 0.85669 0.06200
O 	O 	0.75350 0.18089 0.93675 -0.30800
H 	H 	0.78869 0.10273 0.07831 0.05000
O 	O 	0.76117 0.05329 0.00654 -0.26000
H 	H 	0.78253 0.04434 0.00763 0.03600
H 	H 	0.73422 0.18800 0.95960 0.15300
C 	C 	0.66748 0.99972 0.66162 -0.06500
C 	C 	0.64890 0.02723 0.65304 0.01000
C 	C 	0.61652 0.02409 0.64545 -0.05900
C 	C 	0.60259 0.99340 0.64725 0.03100
C 	C 	0.62150 0.96541 0.64671 0.00400
C 	C 	0.65395 0.96876 0.65349 -0.01400
C 	C 	0.60762 0.93473 0.64809 -0.04000
C 	C 	0.57605 0.93217 0.66128 -0.02600
C 	C 	0.55818 0.96023 0.67266 -0.00800
C 	C 	0.57066 0.99052 0.65864 -0.05200
H 	H 	0.65936 0.05118 0.65680 0.03800
H 	H 	0.60227 0.04564 0.64260 0.04700
H 	H 	0.66849 0.94745 0.65777 0.04100
H 	H 	0.62167 0.91299 0.64416 0.04100
H 	H 	0.56616 0.90855 0.66893 0.04000
H 	H 	0.55648 0.01213 0.66462 0.04500
C 	C 	0.97675 0.39046 0.22169 -0.04700
C 	C 	0.96368 0.42050 0.24363 0.10200
C 	C 	0.97916 0.44928 0.23088 -0.08400
C 	C 	0.00382 0.44889 0.18522 -0.00600
C 	C 	0.01270 0.41907 0.15160 0.07400
C 	C 	0.00014 0.38993 0.17274 -0.05400
N 	N 	0.93584 0.42179 0.27457 -0.19800
H 	H 	0.97156 0.47209 0.25521 0.05500
C 	C 	0.02194 0.47917 0.17825 -0.00400
N 	N 	0.03295 0.41831 0.09902 -0.19400
H 	H 	0.00918 0.36695 0.15252 0.05000
C 	C 	0.05360 0.48007 0.19969 -0.08600
C 	C 	0.07060 0.50917 0.20121 0.10100
C 	C 	0.05501 0.53836 0.18686 -0.05200
C 	C 	0.02381 0.53726 0.16222 -0.05200
C 	C 	0.00715 0.50794 0.15735 0.07100
H 	H 	0.06505 0.45803 0.21505 0.05500
N 	N 	0.10192 0.50875 0.21431 -0.19900
H 	H 	0.01212 0.55947 0.14885 0.05000
N 	N 	0.97681 0.50772 0.13431 -0.19300
H 	H 	0.11304 0.48741 0.22818 0.08400
H 	H 	0.11571 0.52898 0.20679 0.09100
H 	H 	0.96527 0.52947 0.12542 0.08700
H 	H 	0.96486 0.48604 0.12159 0.09500
H 	H 	0.03967 0.39618 0.07520 0.08300
H 	H 	0.04122 0.43961 0.07946 0.09000
H 	H 	0.92173 0.40120 0.27507 0.09200
H 	H 	0.92704 0.44394 0.29391 0.08500
C 	C 	0.98095 0.47205 0.96674 -0.04700
C 	C 	0.96441 0.50153 0.97425 0.09300
C 	C 	0.98033 0.53106 0.97090 -0.08200
C 	C 	0.01192 0.53151 0.95561 -0.01300
C 	C 	0.02886 0.50205 0.95231 0.07100
C 	C 	0.01321 0.47267 0.95963 -0.05800
N 	N 	0.93336 0.50165 0.98513 -0.20000
H 	H 	0.96769 0.55371 0.97616 0.05000
C 	C 	0.02579 0.56221 0.93466 0.00200
N 	N 	0.05974 0.50163 0.93955 -0.19500
H 	H 	0.02582 0.45000 0.95439 0.04300
C 	C 	0.04784 0.57862 0.97975 -0.10700
C 	C 	0.06219 0.60709 0.96002 0.10700
C 	C 	0.05137 0.62147 0.89818 -0.05500
C 	C 	0.02820 0.60587 0.85491 -0.05000
C 	C 	0.01649 0.57557 0.87062 0.06500
H 	H 	0.05517 0.56815 0.02832 0.07200
N 	N 	0.08738 0.61928 0.99819 -0.20700
H 	H 	0.02027 0.61669 0.80708 0.04800
N 	N 	0.99706 0.55906 0.82326 -0.19300
H 	H 	0.09643 0.60721 0.04094 0.09700
H 	H 	0.09886 0.64014 0.98468 0.09200
H 	H 	0.98930 0.56973 0.77755 0.08300
H 	H 	0.99067 0.53504 0.82950 0.08900
H 	H 	0.07204 0.47980 0.93853 0.07900
H 	H 	0.07179 0.52266 0.92939 0.08600
H 	H 	0.92123 0.48021 0.99187 0.08700
H 	H 	0.92118 0.52351 0.98912 0.08000
C 	C 	0.09911 0.67757 0.71288 -0.05000
C 	C 	0.07894 0.68785 0.65802 0.10400
C 	C 	0.08478 0.67792 0.58862 -0.08400
C 	C 	0.10972 0.65729 0.57339 -0.00300
C 	C 	0.13168 0.64996 0.62724 0.07000
C 	C 	0.12623 0.66042 0.69660 -0.05200
N 	N 	0.05350 0.70634 0.67161 -0.20000
H 	H 	0.06873 0.68462 0.54672 0.06000
C 	C 	0.11001 0.64005 0.50354 -0.00500
N 	N 	0.15753 0.63226 0.61305 -0.19400
H 	H 	0.14218 0.65348 0.73846 0.04700
C 	C 	0.12719 0.65305 0.45117 -0.08600
C 	C 	0.12465 0.63973 0.38214 0.10200
C 	C 	0.10239 0.61501 0.36420 -0.05000
C 	C 	0.08686 0.60056 0.41746 -0.05300
C 	C 	0.09089 0.61249 0.48723 0.07100
H 	H 	0.14271 0.67340 0.46425 0.05700
N 	N 	0.14426 0.64993 0.33406 -0.19900
H 	H 	0.07065 0.58080 0.40433 0.05200
N 	N 	0.07609 0.59764 0.53810 -0.19400
H 	H 	0.15950 0.66932 0.34661 0.08600
H 	H 	0.14596 0.63743 0.28553 0.09100
H 	H 	0.06128 0.57792 0.52530 0.08400
H 	H 	0.07981 0.60485 0.59083 0.08900
H 	H 	0.17320 0.62623 0.65340 0.08300
H 	H 	0.16268 0.62488 0.56191 0.08700
H 	H 	0.04854 0.71447 0.72234 0.09800
H 	H 	0.03851 0.71323 0.63077 0.09100
C 	C 	0.90588 0.01670 0.02562 -0.08100
C 	C 	0.92633 0.04112 0.05332 -0.07500
C 	C 	0.91700 0.07378 0.05467 0.18000
C 	C 	0.88663 0.08173 0.03103 -0.12500
C 	C 	0.86476 0.05681 0.01599 -0.06300
C 	C 	0.87417 0.02428 0.01537 0.13100
H 	H 	0.95029 0.03523 0.06702 0.07700
O 	O 	0.93824 0.09781 0.07364 -0.29100
H 	H 	0.84081 0.06265 0.00212 -0.03000
O 	O 	0.85247 0.99993 0.00453 -0.31800
H 	H 	0.85152 0.99457 0.95347 0.05700
H 	H 	0.93651 0.10174 0.12481 0.15100
C 	C 	0.87945 0.91493 0.84045 -0.12400
C 	C 	0.87332 0.92471 0.77225 -0.07900
C 	C 	0.84439 0.93785 0.75342 0.16300
C 	C 	0.82092 0.94042 0.80260 -0.11800
C 	C 	0.82568 0.92649 0.86720 -0.07400
C 	C 	0.85483 0.91419 0.88680 0.17400
H 	H 	0.89156 0.92380 0.73494 0.03600
O 	O 	0.83918 0.94811 0.68711 -0.27600
H 	H 	0.80721 0.92680 0.90394 0.05500
O 	O 	0.85921 0.90173 0.95131 -0.27600
H 	H 	0.86438 0.92068 0.98389 0.15200
H 	H 	0.84646 0.97096 0.68921 0.14200
C 	C 	0.01363 0.01170 0.89958 -0.12800
C 	C 	0.04218 0.01324 0.86742 -0.06500
C 	C 	0.04920 0.03995 0.82902 0.18100
C 	C 	0.02754 0.06529 0.82300 -0.16800
C 	C 	0.00058 0.06518 0.86127 -0.04500
C 	C 	0.99335 0.03834 0.89853 0.12000
H 	H 	0.05812 0.99295 0.86880 0.06300
O 	O 	0.07624 0.04024 0.79362 -0.28600
H 	H 	0.98377 0.08451 0.85699 -0.05200
O 	O 	0.96612 0.03791 0.93279 -0.28400
H 	H 	0.94971 0.03241 0.89619 0.04500
H 	H 	0.09175 0.05138 0.82645 0.14600
C 	C 	0.06721 0.73904 0.92296 -0.00800
C 	C 	0.09085 0.76241 0.93459 -0.02800
C 	C 	0.08378 0.79385 0.95992 -0.04200
C 	C 	0.05286 0.80239 0.97264 0.00500
C 	C 	0.02918 0.77860 0.96338 0.02600
C 	C 	0.03657 0.74687 0.93970 -0.05100
C 	C 	0.99821 0.78724 0.97473 -0.05300
C 	C 	0.99061 0.81949 0.99205 0.01200
C 	C 	0.01370 0.84362 0.99625 -0.05800
C 	C 	0.04500 0.83480 0.98980 -0.01800
H 	H 	0.11462 0.75640 0.92266 0.04100
H 	H 	0.10220 0.81179 0.96755 0.04100
H 	H 	0.01835 0.72869 0.93149 0.04900
H 	H 	0.97986 0.76918 0.96806 0.04900
H 	H 	0.96641 0.82609 0.99728 0.04300
H 	H 	0.06289 0.85345 0.99318 0.04100
C 	C 	0.97313 0.92316 0.31407 -0.12800
C 	C 	0.97851 0.94199 0.37673 -0.10200
C 	C 	0.98227 0.97559 0.37615 0.13600
C 	C 	0.97874 0.99132 0.31277 -0.14600
C 	C 	0.97292 0.97267 0.25005 -0.07200
C 	C 	0.97010 0.93880 0.25033 0.15400
H 	H 	0.98088 0.93048 0.42605 0.03700
O 	O 	0.98979 0.99298 0.43761 -0.31300
H 	H 	0.97037 0.98437 0.20095 0.06700
O 	O 	0.96508 0.92112 0.18818 -0.27100
H 	H 	0.94220 0.92094 0.17935 0.14200
H 	H 	0.01286 0.99307 0.44177 0.10500
C 	C 	0.87794 0.86263 0.27871 -0.13000
C 	C 	0.88055 0.89438 0.25693 -0.07700
C 	C 	0.86801 0.92045 0.29626 0.16900
C 	C 	0.85303 0.91476 0.35849 -0.15300
C 	C 	0.84746 0.88266 0.37546 -0.05500
C 	C 	0.85972 0.85672 0.33575 0.11600
H 	H 	0.89343 0.89902 0.21124 0.06200
O 	O 	0.87067 0.95129 0.27408 -0.40500
H 	H 	0.83442 0.87779 0.42084 0.05900
O 	O 	0.85418 0.82552 0.35327 -0.26500
H 	H 	0.87046 0.82093 0.38958 0.07200
H 	H 	0.85182 0.95451 0.24366 0.16600
C 	C 	0.01574 0.79868 0.43967 -0.13300
C 	C 	0.04654 0.78836 0.43189 -0.06100
C 	C 	0.07013 0.80066 0.47853 0.15800
C 	C 	0.06266 0.82296 0.53324 -0.12400
C 	C 	0.03150 0.82568 0.55138 -0.06600
C 	C 	0.00782 0.81453 0.50345 0.16000
H 	H 	0.05259 0.77352 0.38610 0.06200
O 	O 	0.10061 0.79294 0.46737 -0.28400
H 	H 	0.02555 0.84015 0.59774 0.06900
O 	O 	0.97730 0.82022 0.51783 -0.31700
H 	H 	0.97324 0.84274 0.50458 0.06800
H 	H 	0.10767 0.80859 0.43390 0.14100
C 	C 	0.98353 0.74028 0.10745 -0.06100
C 	C 	0.96757 0.71134 0.08766 0.00500
C 	C 	0.98375 0.68202 0.08231 -0.05500
C 	C 	0.01590 0.68149 0.09804 0.02800
C 	C 	0.03253 0.71104 0.10806 0.01000
C 	C 	0.01623 0.74044 0.11083 -0.02000
C 	C 	0.06460 0.71056 0.12475 -0.03900
C 	C 	0.07889 0.68163 0.14268 -0.02400
C 	C 	0.06135 0.65291 0.14216 -0.00800
C 	C 	0.03075 0.65233 0.11327 -0.04600
H 	H 	0.94240 0.71122 0.08189 0.04000
H 	H 	0.97095 0.65956 0.07130 0.04700
H 	H 	0.02873 0.76302 0.12304 0.04900
H 	H 	0.07795 0.73291 0.12884 0.04300
H 	H 	0.10307 0.68190 0.16106 0.04100
H 	H 	0.01762 0.62980 0.10941 0.04900
