data_crystal

_cell_length_a 16.73801
_cell_length_b 14.96023
_cell_length_c 76.70415
_cell_angle_alpha 90.07207
_cell_angle_beta  89.95271
_cell_angle_gamma 120.18277

_symmetry_space_group_name_	'P 1'
_symmetry_space_group_name_H-M	'P 1'

loop_
_symmetry_equiv_pos_as_xyz
  x,y,z

loop_
_atom_site_label
_atom_site_type_symbol
_atom_site_fract_x
_atom_site_fract_y
_atom_site_fract_z
_atom_site_charge
C 	C 	0.81457 0.44183 0.54123 0.30800
C 	C 	0.61157 0.48027 0.60098 0.32700
C 	C 	0.82965 0.42905 0.58958 0.34900
C 	C 	0.58019 0.51827 0.55030 0.31000
C 	C 	0.53503 0.16059 0.58982 0.34300
C 	C 	0.51365 0.20415 0.54219 0.30500
Ni	Ni	0.73297 0.51823 0.57038 1.12400
Ni	Ni	0.51874 0.32885 0.57226 1.12700
Ni	Ni	0.68133 0.28012 0.56526 1.13300
O 	O 	0.82991 0.51421 0.55313 -0.34500
O 	O 	0.74716 0.34445 0.54280 -0.36600
O 	O 	0.47968 0.18619 0.58181 -0.35000
O 	O 	0.65602 0.54663 0.58845 -0.33800
O 	O 	0.54880 0.38431 0.59710 -0.34800
O 	O 	0.56538 0.17811 0.55178 -0.34100
O 	O 	0.78417 0.47789 0.59146 -0.35500
O 	O 	0.80867 0.36090 0.57694 -0.35000
O 	O 	0.47984 0.26046 0.54885 -0.38000
O 	O 	0.67133 0.56316 0.55159 -0.35800
O 	O 	0.52543 0.46153 0.56329 -0.35600
O 	O 	0.62494 0.21858 0.58832 -0.35200
O 	O 	0.64457 0.38079 0.56555 -0.71600
H 	H 	0.63913 0.38785 0.55292 0.15000
C 	C 	0.38368 0.57821 0.43031 0.31100
C 	C 	0.11142 0.50324 0.37649 0.34500
C 	C 	0.40426 0.60374 0.37874 0.34500
C 	C 	0.09710 0.51272 0.42564 0.30300
C 	C 	0.34654 0.85036 0.38091 0.34800
C 	C 	0.31472 0.82135 0.43036 0.30000
Ni	Ni	0.24017 0.50103 0.40256 1.12200
Ni	Ni	0.19204 0.68831 0.40093 1.12700
Ni	Ni	0.40120 0.74261 0.40609 1.12800
O 	O 	0.30337 0.49866 0.42563 -0.36300
O 	O 	0.43772 0.64830 0.41872 -0.35300
O 	O 	0.26096 0.77219 0.37978 -0.35200
O 	O 	0.18748 0.50075 0.37838 -0.35100
O 	O 	0.09783 0.57110 0.38510 -0.34100
O 	O 	0.38196 0.79927 0.42842 -0.37400
O 	O 	0.36040 0.52734 0.38988 -0.34100
O 	O 	0.41607 0.69581 0.38207 -0.35100
O 	O 	0.25963 0.81341 0.41712 -0.35500
O 	O 	0.11252 0.45362 0.41477 -0.34000
O 	O 	0.10818 0.60334 0.42070 -0.35300
O 	O 	0.39784 0.86084 0.39452 -0.37500
O 	O 	0.27395 0.63910 0.40683 -0.71200
H 	H 	0.26583 0.63418 0.41956 0.14600
C 	C 	0.25334 0.36957 0.66390 0.33200
C 	C 	0.40339 0.77747 0.62721 0.34900
C 	C 	0.48750 0.57718 0.65468 0.33400
C 	C 	0.15601 0.57125 0.63164 0.31700
C 	C 	0.45373 0.79575 0.68352 0.34800
C 	C 	0.19065 0.61726 0.69000 0.32000
Ni	Ni	0.32310 0.55325 0.63719 1.12100
Ni	Ni	0.29693 0.72301 0.65866 1.13700
Ni	Ni	0.34529 0.57380 0.67919 1.13300
O 	O 	0.29009 0.40690 0.64811 -0.33100
O 	O 	0.24439 0.42777 0.67567 -0.35600
O 	O 	0.38130 0.80347 0.67902 -0.34400
O 	O 	0.35860 0.68238 0.62107 -0.33400
O 	O 	0.41116 0.79145 0.64391 -0.35500
O 	O 	0.26341 0.60799 0.69499 -0.33500
O 	O 	0.46024 0.62015 0.64329 -0.35800
O 	O 	0.43574 0.53165 0.66852 -0.33100
O 	O 	0.19125 0.66264 0.67514 -0.35200
O 	O 	0.19012 0.50864 0.63029 -0.33900
O 	O 	0.20790 0.66947 0.63730 -0.32100
O 	O 	0.45698 0.71281 0.68001 -0.37500
O 	O 	0.29711 0.59690 0.65846 -0.72200
H 	H 	0.23046 0.54801 0.65988 0.18300
C 	C 	0.77645 0.88198 0.71188 0.31900
C 	C 	0.97641 0.85264 0.77339 0.31200
C 	C 	0.81520 0.97031 0.75620 0.29700
C 	C 	0.98851 0.74350 0.72954 0.28400
C 	C 	0.09598 0.16491 0.75197 0.33900
C 	C 	0.10200 0.05066 0.70595 0.33700
Ni	Ni	0.85160 0.80613 0.74182 1.11900
Ni	Ni	0.07554 0.96430 0.74157 1.12500
Ni	Ni	0.94645 0.04593 0.72700 1.12600
O 	O 	0.76519 0.80070 0.72108 -0.32300
O 	O 	0.86026 0.95771 0.70800 -0.35600
O 	O 	0.13779 0.11908 0.74500 -0.36700
O 	O 	0.91123 0.77953 0.76367 -0.35900
O 	O 	0.03340 0.94439 0.76677 -0.37500
O 	O 	0.06105 0.10250 0.71160 -0.34900
O 	O 	0.80073 0.87613 0.75842 -0.35400
O 	O 	0.83051 0.01087 0.74057 -0.35700
O 	O 	0.11630 0.98939 0.71649 -0.36100
O 	O 	0.90094 0.72138 0.72843 -0.32700
O 	O 	0.04640 0.81473 0.74059 -0.33900
O 	O 	0.01309 0.14137 0.74687 -0.36500
O 	O 	0.95514 0.92900 0.73378 -0.72700
H 	H 	0.95608 0.90255 0.72205 0.15900
C 	C 	0.30528 0.73361 0.93110 0.31700
C 	C 	0.52366 0.83840 0.86566 0.32800
C 	C 	0.24700 0.75809 0.88171 0.32900
C 	C 	0.58831 0.80707 0.91071 0.33100
C 	C 	0.28306 0.53943 0.86434 0.32900
C 	C 	0.33785 0.45170 0.90434 0.32200
Ni	Ni	0.42786 0.83072 0.89919 1.12200
Ni	Ni	0.45334 0.64271 0.88491 1.12400
Ni	Ni	0.25589 0.59214 0.90031 1.12800
O 	O 	0.33708 0.81049 0.91965 -0.34200
O 	O 	0.26648 0.63570 0.92581 -0.33600
O 	O 	0.35255 0.53185 0.87043 -0.37900
O 	O 	0.53036 0.88792 0.88016 -0.34800
O 	O 	0.47087 0.73793 0.86476 -0.39600
O 	O 	0.26660 0.46668 0.90717 -0.34300
O 	O 	0.33530 0.82650 0.88086 -0.36800
O 	O 	0.21392 0.69519 0.89509 -0.36600
O 	O 	0.42362 0.53058 0.90247 -0.35300
O 	O 	0.53102 0.84023 0.91515 -0.34200
O 	O 	0.57617 0.75037 0.89635 -0.35200
O 	O 	0.22577 0.54780 0.87511 -0.36700
O 	O 	0.38523 0.68737 0.89831 -0.72300
H 	H 	0.40346 0.67625 0.90997 0.16900
C 	C 	0.69551 0.14766 0.08819 0.30100
C 	C 	0.51552 0.27701 0.03552 0.34400
C 	C 	0.77342 0.22445 0.04048 0.34600
C 	C 	0.46292 0.18958 0.08147 0.30700
C 	C 	0.78946 0.51190 0.04799 0.34700
C 	C 	0.73011 0.45568 0.09834 0.30700
Ni	Ni	0.59006 0.16334 0.05689 1.12300
Ni	Ni	0.61496 0.38936 0.06668 1.12800
Ni	Ni	0.78614 0.35314 0.07105 1.12700
O 	O 	0.65808 0.10772 0.07276 -0.32700
O 	O 	0.75744 0.24769 0.09009 -0.37100
O 	O 	0.73265 0.51656 0.05933 -0.36200
O 	O 	0.50307 0.18566 0.03985 -0.33000
O 	O 	0.58749 0.36110 0.04113 -0.36300
O 	O 	0.79792 0.46349 0.08819 -0.36700
O 	O 	0.68709 0.19778 0.03706 -0.33200
O 	O 	0.80691 0.25402 0.05623 -0.36000
O 	O 	0.64763 0.42881 0.09181 -0.36900
O 	O 	0.48507 0.12230 0.07507 -0.33900
O 	O 	0.48386 0.27616 0.07299 -0.35500
O 	O 	0.81818 0.44528 0.05011 -0.35800
O 	O 	0.65611 0.29264 0.06822 -0.71400
H 	H 	0.63708 0.27147 0.08035 0.14700
C 	C 	0.14325 0.03673 0.19596 0.34000
C 	C 	0.95171 0.18214 0.24357 0.32400
C 	C 	0.21033 0.14551 0.24356 0.34400
C 	C 	0.89808 0.06614 0.19954 0.30000
C 	C 	0.96912 0.90536 0.26363 0.33500
C 	C 	0.88459 0.79046 0.21639 0.31200
Ni	Ni	0.08027 0.15834 0.21835 1.12300
Ni	Ni	0.88940 0.96655 0.23423 1.11500
Ni	Ni	0.06859 0.94286 0.23045 1.12200
O 	O 	0.16870 0.12720 0.20348 -0.35200
O 	O 	0.10714 0.94994 0.20520 -0.38300
O 	O 	0.89342 0.88347 0.25484 -0.35800
O 	O 	0.00758 0.22210 0.23014 -0.32800
O 	O 	0.93272 0.09195 0.24992 -0.33300
O 	O 	0.95257 0.80310 0.22688 -0.36400
O 	O 	0.16632 0.19550 0.24003 -0.33500
O 	O 	0.19627 0.06616 0.23402 -0.34300
O 	O 	0.83659 0.83705 0.21966 -0.37400
O 	O 	0.98892 0.12752 0.19783 -0.35700
O 	O 	0.85844 0.04033 0.21517 -0.34000
O 	O 	0.05010 0.95169 0.25603 -0.36400
O 	O 	0.00823 0.01697 0.22413 -0.66000
H 	H 	0.98875 0.98785 0.21238 0.10300
C 	C 	0.82856 0.33187 0.33389 0.31500
C 	C 	0.60008 0.51695 0.32771 0.34600
C 	C 	0.57210 0.21833 0.34252 0.34800
C 	C 	0.84015 0.63930 0.31415 0.32200
C 	C 	0.52338 0.27405 0.28793 0.34900
C 	C 	0.76923 0.35445 0.27776 0.32600
Ni	Ni	0.72214 0.44047 0.33718 1.12600
Ni	Ni	0.68309 0.46801 0.29679 1.13100
Ni	Ni	0.66390 0.25612 0.30923 1.13500
O 	O 	0.83240 0.41789 0.33921 -0.35300
O 	O 	0.74936 0.25099 0.32826 -0.32600
O 	O 	0.55012 0.36195 0.29566 -0.36600
O 	O 	0.60070 0.44056 0.33535 -0.35600
O 	O 	0.64373 0.55189 0.31266 -0.33800
O 	O 	0.76206 0.29740 0.29144 -0.35900
O 	O 	0.64586 0.29613 0.34973 -0.33300
O 	O 	0.55904 0.21862 0.32583 -0.35400
O 	O 	0.72281 0.40619 0.27661 -0.33300
O 	O 	0.80552 0.59950 0.32989 -0.32100
O 	O 	0.81235 0.58363 0.29979 -0.36500
O 	O 	0.57144 0.22645 0.28958 -0.33900
O 	O 	0.71380 0.39899 0.31386 -0.72100
H 	H 	0.77954 0.42602 0.31114 0.17900
C 	C 	0.98306 0.81410 0.99533 0.30700
C 	C 	0.18389 0.10118 0.93625 0.34000
C 	C 	0.20951 0.91678 0.97755 0.34100
C 	C 	0.92778 0.98727 0.94719 0.28200
C 	C 	0.26836 0.23593 0.98727 0.34200
C 	C 	0.01521 0.13883 0.99926 0.34000
Ni	Ni	0.05869 0.91812 0.95866 1.11600
Ni	Ni	0.10114 0.15317 0.96531 1.13000
Ni	Ni	0.12801 0.03017 0.99608 1.13900
O 	O 	0.00019 0.80235 0.97856 -0.31400
O 	O 	0.00824 0.90519 0.00210 -0.34700
O 	O 	0.20498 0.25517 0.98118 -0.34200
O 	O 	0.11284 0.00616 0.93589 -0.32300
O 	O 	0.20165 0.15776 0.95025 -0.36100
O 	O 	0.08310 0.12604 0.00594 -0.33300
O 	O 	0.19018 0.94663 0.96312 -0.37400
O 	O 	0.17770 0.93003 0.99243 -0.34600
O 	O 	0.01047 0.15293 0.98230 -0.34500
O 	O 	0.93518 0.90556 0.95124 -0.34500
O 	O 	0.00219 0.08192 0.94623 -0.31100
O 	O 	0.25088 0.14112 0.98799 -0.36900
O 	O 	0.07124 0.02104 0.97428 -0.69200
H 	H 	0.00617 0.99339 0.97766 0.16100
C 	C 	0.45663 0.27673 0.25899 0.11200
C 	C 	0.44428 0.23445 0.27595 -0.09400
C 	C 	0.35428 0.17645 0.28278 0.11300
C 	C 	0.27856 0.16466 0.27302 0.11200
C 	C 	0.29019 0.19195 0.25529 -0.09600
C 	C 	0.37957 0.24801 0.24827 0.11400
Br	Br	0.39647 0.28732 0.22400 -0.17000
Br	Br	0.57567 0.38617 0.25145 -0.17500
Br	Br	0.16418 0.12882 0.28452 -0.10800
Br	Br	0.33519 0.11632 0.30570 -0.11300
C 	C 	0.99081 0.77826 0.30479 0.08000
C 	C 	0.90474 0.75046 0.31208 -0.08000
C 	C 	0.86734 0.81410 0.30838 0.09600
C 	C 	0.89574 0.87571 0.29324 0.11500
C 	C 	0.96227 0.87355 0.28221 -0.11300
C 	C 	0.01645 0.83240 0.28886 0.14000
Br	Br	0.12147 0.84472 0.27625 -0.15300
Br	Br	0.06259 0.72333 0.31466 -0.10800
Br	Br	0.85026 0.96871 0.28848 -0.15900
Br	Br	0.77289 0.81020 0.32306 -0.13200
C 	C 	0.76103 0.24123 0.25381 0.10400
C 	C 	0.81060 0.33787 0.26208 -0.08600
C 	C 	0.90734 0.39232 0.26069 0.10600
C 	C 	0.95418 0.34025 0.25543 0.10000
C 	C 	0.90308 0.23510 0.25033 -0.08800
C 	C 	0.80557 0.18561 0.24955 0.10800
Br	Br	0.73206 0.03979 0.24455 -0.17500
Br	Br	0.63003 0.17995 0.25035 -0.13300
Br	Br	0.08718 0.40970 0.25679 -0.11800
Br	Br	0.97510 0.53591 0.26726 -0.14500
C 	C 	0.98429 0.72540 0.02277 0.09900
C 	C 	0.93839 0.72425 0.00711 -0.07300
C 	C 	0.84241 0.65716 0.00583 0.10600
C 	C 	0.79161 0.60387 0.02067 0.12000
C 	C 	0.83815 0.59623 0.03537 -0.10100
C 	C 	0.93438 0.65919 0.03657 0.12200
Br	Br	0.99697 0.66123 0.05787 -0.18100
Br	Br	0.11383 0.82290 0.02610 -0.15700
Br	Br	0.66463 0.56857 0.02252 -0.14700
Br	Br	0.77966 0.64261 0.98407 -0.11700
C 	C 	0.37465 0.28607 0.02774 0.10100
C 	C 	0.45543 0.28578 0.02240 -0.09600
C 	C 	0.48745 0.31481 0.00512 0.11600
C 	C 	0.43396 0.33432 0.99317 0.11200
C 	C 	0.34498 0.31227 0.99792 -0.09400
C 	C 	0.32727 0.31313 0.01570 0.10000
Br	Br	0.23510 0.34480 0.02331 -0.13400
Br	Br	0.32037 0.23332 0.05017 -0.17100
Br	Br	0.47883 0.38461 0.97017 -0.10400
Br	Br	0.60042 0.32164 0.99764 -0.11000
C 	C 	0.82215 0.10150 0.02982 0.12700
C 	C 	0.82553 0.19711 0.02811 -0.09800
C 	C 	0.89270 0.27399 0.01727 0.10900
C 	C 	0.96110 0.25893 0.00935 0.10100
C 	C 	0.95820 0.16320 0.01107 -0.09500
C 	C 	0.88883 0.08489 0.02151 0.11900
Br	Br	0.88467 0.95499 0.02456 -0.17900
Br	Br	0.72514 0.99260 0.04342 -0.18100
Br	Br	0.06039 0.37076 0.99657 -0.11000
Br	Br	0.88888 0.39854 0.01276 -0.13800
C 	C 	0.75467 0.00802 0.12124 -0.06000
C 	C 	0.70475 0.01320 0.13552 -0.01000
C 	C 	0.63306 0.03467 0.13267 0.13500
C 	C 	0.62254 0.06779 0.11623 -0.03700
C 	C 	0.68238 0.07796 0.10261 -0.09500
C 	C 	0.74421 0.04121 0.10480 0.18300
C 	C 	0.74242 0.02257 0.15320 0.04900
O 	O 	0.57950 0.03333 0.14633 -0.24300
H 	H 	0.57262 0.09298 0.11444 0.06400
O 	O 	0.79742 0.04218 0.09110 -0.24900
H 	H 	0.80747 0.98732 0.12320 0.04300
C 	C 	0.74037 0.93725 0.16135 0.09200
C 	C 	0.78822 0.95108 0.17701 -0.06300
C 	C 	0.83960 0.05000 0.18435 -0.08100
C 	C 	0.83783 0.13414 0.17667 0.20100
C 	C 	0.78978 0.12036 0.16110 -0.11400
O 	O 	0.69056 0.84033 0.15419 -0.26100
H 	H 	0.78709 0.88543 0.18321 0.06200
O 	O 	0.88583 0.23069 0.18403 -0.27600
H 	H 	0.79156 0.18635 0.15487 0.09100
H 	H 	0.85506 0.11040 0.09170 0.16400
H 	H 	0.73468 0.83277 0.14656 0.13600
H 	H 	0.84170 0.23478 0.19218 0.17300
H 	H 	0.52549 0.96214 0.14649 0.13400
C 	C 	0.27615 0.02946 0.11420 -0.07500
C 	C 	0.29916 0.10086 0.12781 -0.00100
C 	C 	0.37109 0.20347 0.12560 0.13500
C 	C 	0.42239 0.23281 0.11015 -0.03800
C 	C 	0.40199 0.16047 0.09678 -0.10700
C 	C 	0.32656 0.05915 0.09862 0.21600
C 	C 	0.25048 0.06742 0.14461 0.02000
O 	O 	0.39372 0.27407 0.13882 -0.26600
H 	H 	0.47962 0.31116 0.10877 0.07500
O 	O 	0.30289 0.98881 0.08533 -0.28900
H 	H 	0.21971 0.95076 0.11576 0.06000
C 	C 	0.16814 0.06904 0.14736 0.12600
C 	C 	0.13072 0.05405 0.16414 -0.02200
C 	C 	0.17451 0.03627 0.17817 -0.11400
C 	C 	0.25398 0.02899 0.17525 0.21200
C 	C 	0.29123 0.04369 0.15846 -0.10600
O 	O 	0.12701 0.09077 0.13384 -0.26400
H 	H 	0.06895 0.05881 0.16632 0.06700
O 	O 	0.29599 0.00889 0.18882 -0.26400
H 	H 	0.35390 0.04072 0.15633 0.09400
H 	H 	0.25794 0.99718 0.07811 0.17400
H 	H 	0.08245 0.02263 0.12873 0.16600
H 	H 	0.34193 0.07765 0.19353 0.18000
H 	H 	0.35563 0.30672 0.13675 0.16500
C 	C 	0.73869 0.59978 0.13971 -0.10900
C 	C 	0.79996 0.58428 0.14996 0.00800
C 	C 	0.83670 0.52451 0.14342 0.12500
C 	C 	0.81238 0.48129 0.12667 -0.03300
C 	C 	0.75281 0.49893 0.11621 -0.10900
C 	C 	0.71643 0.55933 0.12280 0.19600
C 	C 	0.82927 0.63560 0.16716 0.01000
O 	O 	0.89532 0.50706 0.15345 -0.26500
H 	H 	0.84009 0.43432 0.12180 0.06400
O 	O 	0.65975 0.57961 0.11271 -0.27500
H 	H 	0.70995 0.64542 0.14472 0.07900
C 	C 	0.88772 0.74350 0.16819 0.11600
C 	C 	0.90758 0.79305 0.18441 -0.03000
C 	C 	0.87035 0.73577 0.19972 -0.12000
C 	C 	0.81388 0.62762 0.19878 0.20300
C 	C 	0.79376 0.57781 0.18252 -0.10500
O 	O 	0.92679 0.80037 0.15339 -0.27900
H 	H 	0.94979 0.87650 0.18502 0.03800
O 	O 	0.77872 0.57044 0.21370 -0.26600
H 	H 	0.74909 0.49464 0.18182 0.09400
H 	H 	0.70168 0.64478 0.10648 0.16100
H 	H 	0.88424 0.82457 0.14958 0.13700
H 	H 	0.71802 0.56571 0.21552 0.17500
H 	H 	0.95826 0.56452 0.15066 0.15700
C 	C 	0.75647 0.93639 0.91222 0.11200
C 	C 	0.67733 0.85304 0.91987 -0.09700
C 	C 	0.67849 0.83071 0.93766 0.11200
C 	C 	0.75716 0.89312 0.94778 0.10400
C 	C 	0.83929 0.96756 0.93970 -0.08300
C 	C 	0.83583 0.99678 0.92238 0.08900
Br	Br	0.93328 0.12629 0.91339 -0.13100
Br	Br	0.75661 0.96759 0.88782 -0.17600
Br	Br	0.75296 0.87846 0.97277 -0.14200
Br	Br	0.57454 0.71059 0.94780 -0.12900
C 	C 	0.37516 0.31891 0.91603 0.10400
C 	C 	0.32075 0.34400 0.90523 -0.09300
C 	C 	0.23745 0.26198 0.89835 0.10300
C 	C 	0.19820 0.16303 0.90595 0.10600
C 	C 	0.24045 0.14905 0.92060 -0.09800
C 	C 	0.33525 0.21824 0.92301 0.10700
Br	Br	0.40666 0.17655 0.93683 -0.12000
Br	Br	0.50302 0.41815 0.92059 -0.13200
Br	Br	0.09205 0.04629 0.89577 -0.12400
Br	Br	0.17927 0.28445 0.87859 -0.15100
C 	C 	0.21225 0.69909 0.95883 0.10500
C 	C 	0.29677 0.75676 0.94971 -0.08900
C 	C 	0.36646 0.84986 0.95732 0.10900
C 	C 	0.34314 0.89711 0.97074 0.09300
C 	C 	0.25140 0.85093 0.97645 -0.09400
C 	C 	0.19314 0.74503 0.97305 0.09800
Br	Br	0.09291 0.66236 0.98853 -0.12000
Br	Br	0.12344 0.55881 0.95232 -0.14200
Br	Br	0.43278 0.03091 0.97964 -0.09700
Br	Br	0.49298 0.90885 0.95021 -0.15800
C 	C 	0.05827 0.75745 0.85471 -0.09000
C 	C 	0.08745 0.75123 0.83782 -0.00100
C 	C 	0.16331 0.73617 0.83556 0.12700
C 	C 	0.21329 0.73504 0.85006 -0.03300
C 	C 	0.18692 0.74632 0.86690 -0.11800
C 	C 	0.10735 0.75425 0.86926 0.19500
C 	C 	0.04670 0.77408 0.82262 0.03200
O 	O 	0.19227 0.72933 0.81913 -0.26400
H 	H 	0.27414 0.72809 0.84817 0.06100
O 	O 	0.08117 0.76605 0.88566 -0.26600
H 	H 	0.99954 0.76842 0.85653 0.07300
C 	C 	0.99274 0.69609 0.81054 0.10600
C 	C 	0.96769 0.72184 0.79473 -0.01800
C 	C 	0.99529 0.82542 0.79090 -0.12700
C 	C 	0.04464 0.90251 0.80356 0.20100
C 	C 	0.06929 0.87626 0.81936 -0.11400
O 	O 	0.96797 0.59527 0.81383 -0.27100
H 	H 	0.92906 0.66154 0.78524 0.07700
O 	O 	0.06814 0.00315 0.80061 -0.26700
H 	H 	0.10922 0.93627 0.82882 0.08900
H 	H 	0.03693 0.69493 0.88969 0.17100
H 	H 	0.90777 0.56520 0.81997 0.15200
H 	H 	0.13282 0.03748 0.79637 0.16700
H 	H 	0.16125 0.65422 0.81655 0.16100
C 	C 	0.15114 0.38851 0.78221 -0.10700
C 	C 	0.19955 0.37126 0.79540 0.01600
C 	C 	0.22612 0.29648 0.79299 0.13100
C 	C 	0.19933 0.23549 0.77787 -0.02200
C 	C 	0.14340 0.24604 0.76538 -0.10400
C 	C 	0.12257 0.32613 0.76727 0.21300
C 	C 	0.21806 0.42756 0.81212 0.01000
O 	O 	0.27369 0.27891 0.80580 -0.26100
H 	H 	0.21872 0.17696 0.77624 0.06500
O 	O 	0.07598 0.34479 0.75439 -0.26100
H 	H 	0.13338 0.44849 0.78373 0.09300
C 	C 	0.30804 0.50604 0.81636 0.12700
C 	C 	0.32753 0.54806 0.83318 -0.03200
C 	C 	0.25733 0.51333 0.84581 -0.11200
C 	C 	0.16530 0.44294 0.84094 0.20000
C 	C 	0.14631 0.39920 0.82421 -0.10400
O 	O 	0.37794 0.53819 0.80435 -0.26900
H 	H 	0.39797 0.60494 0.83660 0.06600
O 	O 	0.09466 0.41269 0.85272 -0.25400
H 	H 	0.07621 0.34111 0.82080 0.09100
H 	H 	0.01035 0.30844 0.75814 0.17500
H 	H 	0.37836 0.59637 0.79808 0.16300
H 	H 	0.07181 0.46180 0.85110 0.16000
H 	H 	0.33992 0.32400 0.80284 0.16600
C 	C 	0.62918 0.02956 0.82871 -0.04000
C 	C 	0.67589 0.98790 0.81969 -0.04400
C 	C 	0.67694 0.90103 0.82643 0.14800
C 	C 	0.63052 0.85572 0.84192 -0.04100
C 	C 	0.58080 0.89464 0.85060 -0.09300
C 	C 	0.58080 0.98257 0.84405 0.14700
C 	C 	0.71683 0.02872 0.80247 0.04700
O 	O 	0.72314 0.86012 0.81781 -0.27600
H 	H 	0.63150 0.78869 0.84700 0.06800
O 	O 	0.53279 0.02182 0.85250 -0.23400
H 	H 	0.62814 0.09640 0.82356 0.06900
C 	C 	0.65967 0.99754 0.78764 0.10300
C 	C 	0.69588 0.99251 0.77146 -0.03800
C 	C 	0.78811 0.01652 0.77019 -0.08800
C 	C 	0.84812 0.06456 0.78433 0.19700
C 	C 	0.81254 0.07310 0.80034 -0.11600
O 	O 	0.56671 0.96107 0.78929 -0.27000
H 	H 	0.65071 0.96287 0.76024 0.08700
O 	O 	0.94053 0.09821 0.78279 -0.29500
H 	H 	0.85787 0.10317 0.81156 0.09300
H 	H 	0.46989 0.98525 0.84735 0.14200
H 	H 	0.55949 0.02235 0.78760 0.17000
H 	H 	0.94679 0.03788 0.78598 0.17700
H 	H 	0.67728 0.80823 0.80965 0.16000
C 	C 	0.61339 0.85032 0.71670 0.10000
C 	C 	0.69362 0.88842 0.70597 -0.08600
C 	C 	0.69562 0.93943 0.69007 0.09400
C 	C 	0.61416 0.93615 0.68413 0.11200
C 	C 	0.53132 0.87772 0.69325 -0.09900
C 	C 	0.53743 0.85827 0.71084 0.10300
Br	Br	0.43554 0.82741 0.72604 -0.15600
Br	Br	0.60149 0.77774 0.73818 -0.18700
Br	Br	0.61215 0.99799 0.66227 -0.12200
Br	Br	0.80650 0.01153 0.67615 -0.10300
C 	C 	0.28431 0.26252 0.68495 0.11600
C 	C 	0.23856 0.26837 0.66969 -0.08900
C 	C 	0.16083 0.17694 0.66350 0.10900
C 	C 	0.11919 0.08857 0.67433 0.11600
C 	C 	0.16034 0.09070 0.69039 -0.09300
C 	C 	0.25226 0.16670 0.69288 0.11400
Br	Br	0.32717 0.14707 0.70971 -0.14000
Br	Br	0.36492 0.38393 0.69849 -0.18200
Br	Br	0.00629 0.96689 0.66761 -0.12100
Br	Br	0.10779 0.17571 0.64119 -0.11200
C 	C 	0.03269 0.58825 0.69564 0.13800
C 	C 	0.11427 0.59620 0.70249 -0.09600
C 	C 	0.13116 0.61590 0.72050 0.11400
C 	C 	0.07893 0.64978 0.73016 0.09400
C 	C 	0.01664 0.67275 0.72139 -0.05100
C 	C 	0.99112 0.63790 0.70410 0.06300
Br	Br	0.90879 0.66839 0.69117 -0.13700
Br	Br	0.97904 0.51069 0.67470 -0.15400
Br	Br	0.08369 0.65174 0.75530 -0.16700
Br	Br	0.21119 0.57845 0.73248 -0.14100
C 	C 	0.41428 0.53934 0.34904 0.11500
C 	C 	0.45796 0.59333 0.36445 -0.09500
C 	C 	0.55445 0.64238 0.36581 0.11600
C 	C 	0.60488 0.62279 0.35330 0.11400
C 	C 	0.56198 0.57222 0.33742 -0.09200
C 	C 	0.46838 0.54096 0.33484 0.11200
Br	Br	0.41193 0.48779 0.31247 -0.12200
Br	Br	0.28294 0.44736 0.34851 -0.12900
Br	Br	0.72414 0.64423 0.35989 -0.18500
Br	Br	0.61722 0.72919 0.38566 -0.16700
C 	C 	0.96623 0.33876 0.36863 0.09800
C 	C 	0.04319 0.43422 0.36349 -0.08900
C 	C 	0.05903 0.45782 0.34557 0.12700
C 	C 	0.99259 0.39159 0.33340 0.08400
C 	C 	0.90477 0.31746 0.33937 -0.07900
C 	C 	0.89887 0.27767 0.35614 0.10600
Br	Br	0.79127 0.14943 0.36263 -0.12200
Br	Br	0.95203 0.29270 0.39241 -0.18000
Br	Br	0.01320 0.41638 0.30880 -0.10500
Br	Br	0.16437 0.58545 0.33800 -0.10800
C 	C 	0.50032 0.02744 0.34649 0.13700
C 	C 	0.51225 0.12301 0.35244 -0.09900
C 	C 	0.45392 0.12373 0.36563 0.10900
C 	C 	0.38835 0.03019 0.37356 0.13200
C 	C 	0.38125 0.93600 0.36837 -0.11600
C 	C 	0.43199 0.93430 0.35394 0.08800
Br	Br	0.40993 0.80378 0.34477 -0.12800
Br	Br	0.57922 0.02368 0.32849 -0.16100
Br	Br	0.30951 0.03072 0.39184 -0.15400
Br	Br	0.46158 0.25212 0.37240 -0.14800
C 	C 	0.66512 0.61955 0.62418 0.11100
C 	C 	0.62658 0.51435 0.61958 -0.09600
C 	C 	0.58698 0.44019 0.63292 0.10800
C 	C 	0.55436 0.46470 0.64811 0.10400
C 	C 	0.56724 0.56482 0.64998 -0.09200
C 	C 	0.63782 0.64440 0.64000 0.10800
Br	Br	0.68406 0.78612 0.64651 -0.11300
Br	Br	0.76647 0.72618 0.61107 -0.13700
Br	Br	0.50641 0.36858 0.66703 -0.11900
Br	Br	0.59804 0.31829 0.63208 -0.11900
C 	C 	0.91487 0.40256 0.61368 0.11300
C 	C 	0.91432 0.46367 0.59985 -0.10400
C 	C 	0.99071 0.56366 0.59725 0.10000
C 	C 	0.06961 0.59998 0.60778 0.11600
C 	C 	0.06932 0.54052 0.62210 -0.07000
C 	C 	0.99210 0.44042 0.62477 0.09200
Br	Br	0.99512 0.35125 0.64266 -0.13200
Br	Br	0.80865 0.26738 0.61767 -0.11800
Br	Br	0.18174 0.72363 0.60091 -0.14000
Br	Br	0.98755 0.65188 0.57927 -0.19200
C 	C 	0.39379 0.93577 0.62019 0.11300
C 	C 	0.42613 0.86714 0.61583 -0.09600
C 	C 	0.49101 0.89330 0.60229 0.11600
C 	C 	0.52474 0.98793 0.59336 0.09700
C 	C 	0.49517 0.05798 0.59827 -0.08300
C 	C 	0.42591 0.02882 0.61101 0.12200
Br	Br	0.37397 0.11608 0.61597 -0.12700
Br	Br	0.30847 0.90575 0.63927 -0.20500
Br	Br	0.60706 0.01820 0.57380 -0.16900
Br	Br	0.53913 0.80322 0.59683 -0.14100
C 	C 	0.48422 0.51905 0.46956 -0.10800
C 	C 	0.46272 0.56840 0.48279 0.00600
C 	C 	0.42068 0.62662 0.47851 0.13000
C 	C 	0.39878 0.63333 0.46114 -0.03800
C 	C 	0.41789 0.58159 0.44799 -0.11200
C 	C 	0.46105 0.52457 0.45222 0.20000
C 	C 	0.48469 0.55924 0.50109 0.00900
O 	O 	0.40250 0.67846 0.49124 -0.26800
H 	H 	0.36512 0.67693 0.45795 0.06800
O 	O 	0.48179 0.47543 0.43940 -0.26900
H 	H 	0.51792 0.47543 0.47276 0.07700
C 	C 	0.43530 0.46441 0.50995 0.12100
C 	C 	0.46198 0.45410 0.52678 -0.03500
C 	C 	0.53963 0.53697 0.53465 -0.10900
C 	C 	0.58529 0.63375 0.52620 0.19700
C 	C 	0.55759 0.64442 0.50949 -0.10500
O 	O 	0.36039 0.38213 0.50226 -0.26200
H 	H 	0.42458 0.38034 0.53339 0.06700
O 	O 	0.65512 0.71851 0.53445 -0.26200
H 	H 	0.59417 0.71841 0.50291 0.08800
H 	H 	0.42714 0.40481 0.43868 0.17000
H 	H 	0.38523 0.34202 0.49641 0.14600
H 	H 	0.71320 0.72350 0.53018 0.16200
H 	H 	0.33999 0.62825 0.49565 0.16300
C 	C 	0.30639 0.88696 0.47721 -0.08100
C 	C 	0.36670 0.99422 0.47693 -0.04300
C 	C 	0.39699 0.04592 0.46088 0.18100
C 	C 	0.37211 0.98926 0.44533 -0.08800
C 	C 	0.31802 0.88113 0.44573 -0.08500
C 	C 	0.28120 0.83052 0.46164 0.17900
C 	C 	0.40495 0.05040 0.49340 0.03800
O 	O 	0.45121 0.15163 0.46039 -0.28100
H 	H 	0.39897 0.02888 0.43304 0.10700
O 	O 	0.22447 0.72530 0.46208 -0.30000
H 	H 	0.28152 0.84697 0.48953 0.08200
C 	C 	0.35247 0.07841 0.50397 0.11500
C 	C 	0.38796 0.12776 0.51994 -0.02700
C 	C 	0.47680 0.15145 0.52534 -0.10900
C 	C 	0.53052 0.12646 0.51440 0.19800
C 	C 	0.49379 0.07457 0.49866 -0.11900
O 	O 	0.26558 0.05538 0.49890 -0.25100
H 	H 	0.34613 0.14708 0.52817 0.07600
O 	O 	0.61872 0.15244 0.51907 -0.26900
H 	H 	0.53469 0.05371 0.49046 0.08700
H 	H 	0.16090 0.71360 0.46088 0.16700
H 	H 	0.27475 0.11648 0.49219 0.15800
H 	H 	0.65924 0.22121 0.51375 0.15600
H 	H 	0.51583 0.16585 0.46070 0.15600
C 	C 	0.93267 0.44149 0.46295 -0.09500
C 	C 	0.99392 0.46557 0.47699 -0.01600
C 	C 	0.08374 0.48350 0.47392 0.15000
C 	C 	0.11344 0.48430 0.45682 -0.04500
C 	C 	0.05554 0.47205 0.44271 -0.08800
C 	C 	0.96333 0.44516 0.44584 0.17900
C 	C 	0.96398 0.47283 0.49482 0.01400
O 	O 	0.14318 0.50261 0.48757 -0.27200
H 	H 	0.18408 0.50304 0.45449 0.06600
O 	O 	0.90495 0.42936 0.43216 -0.26900
H 	H 	0.86216 0.42322 0.46527 0.07300
C 	C 	0.93907 0.54755 0.49891 0.11500
C 	C 	0.89791 0.54387 0.51503 -0.03100
C 	C 	0.88179 0.46626 0.52709 -0.11000
C 	C 	0.91624 0.39921 0.52373 0.19900
C 	C 	0.95513 0.40111 0.50750 -0.11100
O 	O 	0.95576 0.62458 0.48726 -0.26900
H 	H 	0.87420 0.59785 0.51774 0.06200
O 	O 	0.90686 0.32763 0.53595 -0.27400
H 	H 	0.97613 0.34495 0.50462 0.09200
H 	H 	0.87414 0.35420 0.42965 0.17300
H 	H 	0.89783 0.59837 0.48046 0.15100
H 	H 	0.96370 0.36293 0.54315 0.16900
H 	H 	0.17482 0.57843 0.48946 0.16100
