data_crystal

_cell_length_a 44.83174
_cell_length_b 43.74980
_cell_length_c 34.75102
_cell_angle_alpha 91.30227
_cell_angle_beta  89.04361
_cell_angle_gamma 90.00338

_symmetry_space_group_name_	'P 1'
_symmetry_space_group_name_H-M	'P 1'

loop_
_symmetry_equiv_pos_as_xyz
  x,y,z

loop_
_atom_site_label
_atom_site_type_symbol
_atom_site_fract_x
_atom_site_fract_y
_atom_site_fract_z
_atom_site_charge
Cd	Cd	0.94279 0.88636 0.32588 1.25400
Cd	Cd	0.94026 0.96137 0.36504 1.25000
O 	O 	0.91757 0.84453 0.36009 -0.25400
O 	O 	0.93790 0.83747 0.30244 -0.29400
C 	C 	0.92361 0.82578 0.33148 0.30700
O 	O 	0.96276 0.91470 0.27972 -0.31600
O 	O 	0.97666 0.95423 0.32022 -0.30800
C 	C 	0.97484 0.94194 0.28532 0.30300
C 	C 	0.89009 0.92183 0.31879 0.32600
O 	O 	0.95919 0.91628 0.38930 -0.34900
O 	O 	0.88971 0.89845 0.29475 -0.22100
O 	O 	0.91175 0.92228 0.34294 -0.47500
C 	C 	0.98591 0.90515 0.38312 0.29600
O 	O 	0.98843 0.88477 0.35525 -0.28700
Cd	Cd	0.99639 0.86025 0.92500 1.25700
Cd	Cd	0.02394 0.90651 0.85021 1.23800
O 	O 	0.99029 0.80493 0.91341 -0.25500
O 	O 	0.98146 0.82620 0.97029 -0.27900
C 	C 	0.98149 0.80142 0.94885 0.30800
O 	O 	0.00474 0.90556 0.95349 -0.28600
O 	O 	0.00031 0.93298 0.89831 -0.35300
C 	C 	0.00654 0.93169 0.93523 0.32400
C 	C 	0.05850 0.85993 0.90732 0.31800
O 	O 	0.98268 0.87466 0.85423 -0.36700
O 	O 	0.05337 0.84664 0.94009 -0.21300
O 	O 	0.03510 0.86628 0.88776 -0.48300
C 	C 	0.95631 0.88228 0.86738 0.30100
O 	O 	0.95072 0.87705 0.90358 -0.27000
C 	C 	0.89591 0.62368 0.83628 0.17800
N 	N 	0.91125 0.59701 0.83816 -0.13100
C 	C 	0.91032 0.57629 0.80854 0.14600
N 	N 	0.89254 0.58141 0.77816 -0.14200
C 	C 	0.87607 0.60738 0.77693 0.14500
N 	N 	0.87788 0.62859 0.80596 -0.12600
C 	C 	0.88773 0.62172 0.44106 0.17700
N 	N 	0.89862 0.59418 0.42857 -0.12900
C 	C 	0.89439 0.56901 0.45019 0.14400
N 	N 	0.88034 0.57175 0.48500 -0.14000
C 	C 	0.87100 0.59951 0.49861 0.14500
N 	N 	0.87395 0.62432 0.47610 -0.12800
Cd	Cd	0.88257 0.09782 0.72330 1.25200
Cd	Cd	0.91578 0.05117 0.79303 1.27000
O 	O 	0.83113 0.11520 0.73507 -0.25400
O 	O 	0.85817 0.13284 0.68729 -0.29800
C 	C 	0.83307 0.13391 0.70666 0.30900
O 	O 	0.93036 0.09507 0.70447 -0.32200
O 	O 	0.93997 0.05082 0.73600 -0.34900
C 	C 	0.94952 0.07523 0.71804 0.30300
C 	C 	0.90323 0.12495 0.79339 0.33000
O 	O 	0.87355 0.04499 0.75576 -0.34100
O 	O 	0.89828 0.14576 0.76788 -0.22900
O 	O 	0.89504 0.09753 0.78364 -0.45900
C 	C 	0.87248 0.03239 0.72153 0.30400
O 	O 	0.87338 0.05097 0.69264 -0.28800
Cd	Cd	0.92396 0.14385 0.44999 1.24900
Cd	Cd	0.97584 0.11824 0.37475 1.29000
O 	O 	0.88760 0.18044 0.42606 -0.26300
O 	O 	0.88220 0.16006 0.48310 -0.30400
C 	C 	0.87124 0.17768 0.45703 0.30400
O 	O 	0.94923 0.10528 0.47664 -0.30900
O 	O 	0.96824 0.08261 0.42021 -0.27500
C 	C 	0.96886 0.08698 0.45817 0.29400
C 	C 	0.90576 0.10411 0.38784 0.29100
O 	O 	0.97848 0.14951 0.42750 -0.40000
O 	O 	0.89035 0.10091 0.41979 -0.23800
O 	O 	0.92653 0.12516 0.38917 -0.42100
C 	C 	0.97736 0.17801 0.43778 0.32500
O 	O 	0.95659 0.18471 0.46327 -0.30000
C 	C 	0.70230 0.19961 0.88956 0.17800
N 	N 	0.67749 0.18397 0.87910 -0.12900
C 	C 	0.65597 0.17777 0.90564 0.14600
N 	N 	0.65891 0.18797 0.94256 -0.14100
C 	C 	0.68404 0.20297 0.95343 0.14500
N 	N 	0.70589 0.20855 0.92690 -0.12800
C 	C 	0.69765 0.20175 0.29959 0.17700
N 	N 	0.70452 0.21368 0.26473 -0.12700
C 	C 	0.68463 0.21175 0.23572 0.14500
N 	N 	0.65782 0.19812 0.24173 -0.14100
C 	C 	0.65053 0.18698 0.27674 0.14500
N 	N 	0.67043 0.18888 0.30574 -0.12800
Cd	Cd	0.15252 0.15878 0.22507 1.25400
Cd	Cd	0.18335 0.09916 0.27738 1.21900
O 	O 	0.17972 0.20731 0.21944 -0.24000
O 	O 	0.13730 0.19961 0.19075 -0.29900
C 	C 	0.15821 0.21904 0.19992 0.30800
O 	O 	0.12283 0.11878 0.21364 -0.34200
O 	O 	0.13382 0.09291 0.26874 -0.31400
C 	C 	0.11793 0.09600 0.23733 0.30600
C 	C 	0.19931 0.12312 0.19109 0.32300
O 	O 	0.16990 0.14880 0.29648 -0.35500
O 	O 	0.18571 0.13851 0.16477 -0.23400
O 	O 	0.19138 0.12971 0.22630 -0.48800
C 	C 	0.14344 0.15827 0.30759 0.30000
O 	O 	0.12655 0.16893 0.28093 -0.27600
Cd	Cd	0.13425 0.16052 0.99371 1.24900
Cd	Cd	0.12725 0.08914 0.94302 1.26100
O 	O 	0.14530 0.20508 0.95436 -0.25800
O 	O 	0.13600 0.21017 0.01656 -0.29800
C 	C 	0.14247 0.22328 0.98417 0.30400
O 	O 	0.11583 0.12835 0.03782 -0.32800
O 	O 	0.13628 0.08748 0.00559 -0.29600
C 	C 	0.11702 0.09854 0.03097 0.29700
C 	C 	0.08042 0.14812 0.95380 0.31600
O 	O 	0.16605 0.12420 0.94739 -0.37600
O 	O 	0.07774 0.17179 0.97716 -0.23600
O 	O 	0.10724 0.13713 0.94976 -0.44800
C 	C 	0.18701 0.12496 0.97305 0.30300
O 	O 	0.18238 0.14346 0.00253 -0.29200
C 	C 	0.08472 0.36286 0.79534 0.17600
N 	N 	0.09119 0.35350 0.75853 -0.12500
C 	C 	0.07734 0.36675 0.72867 0.14600
N 	N 	0.05643 0.38867 0.73579 -0.14100
C 	C 	0.04969 0.39786 0.77245 0.14800
N 	N 	0.06435 0.38540 0.80216 -0.12900
C 	C 	0.06482 0.35746 0.38059 0.17800
N 	N 	0.04170 0.37696 0.37550 -0.12600
C 	C 	0.02788 0.39050 0.40645 0.14600
N 	N 	0.03637 0.38361 0.44249 -0.14000
C 	C 	0.05942 0.36412 0.44782 0.14700
N 	N 	0.07420 0.35167 0.41675 -0.12600
Cd	Cd	0.22183 0.98283 0.70593 1.25500
Cd	Cd	0.17834 0.97328 0.79032 1.21400
O 	O 	0.27380 0.96507 0.70506 -0.25200
O 	O 	0.25418 0.98585 0.65486 -0.28400
C 	C 	0.27843 0.97726 0.67174 0.30700
O 	O 	0.17596 0.99614 0.68878 -0.30700
O 	O 	0.15976 0.00805 0.75030 -0.32800
C 	C 	0.15430 0.00384 0.71340 0.30700
C 	C 	0.19838 0.92423 0.72229 0.31800
O 	O 	0.22287 0.99923 0.77951 -0.39700
O 	O 	0.20763 0.92477 0.68642 -0.18900
O 	O 	0.20471 0.94802 0.74328 -0.48800
C 	C 	0.22610 0.02743 0.76867 0.30000
O 	O 	0.22905 0.03110 0.73173 -0.27800
Cd	Cd	0.21467 0.95591 0.41864 1.25300
Cd	Cd	0.15655 0.93102 0.35769 1.23000
O 	O 	0.26568 0.93717 0.40570 -0.27500
O 	O 	0.25639 0.97325 0.44898 -0.29100
C 	C 	0.27641 0.95659 0.43077 0.30900
O 	O 	0.17573 0.98484 0.43703 -0.29400
O 	O 	0.13921 0.95304 0.41317 -0.36300
C 	C 	0.14729 0.97906 0.43008 0.33400
C 	C 	0.20973 0.98117 0.34392 0.32700
O 	O 	0.18795 0.90488 0.39817 -0.41100
O 	O 	0.22694 0.99779 0.36591 -0.23000
O 	O 	0.20128 0.95542 0.35829 -0.48800
C 	C 	0.18298 0.89981 0.43459 0.29500
O 	O 	0.19702 0.91804 0.45837 -0.26100
C 	C 	0.42055 0.04627 0.84736 0.17900
N 	N 	0.40750 0.04542 0.88298 -0.10800
C 	C 	0.42379 0.05222 0.91468 0.14600
N 	N 	0.45226 0.06223 0.91062 -0.14100
C 	C 	0.46480 0.06470 0.87505 0.14600
N 	N 	0.44944 0.05531 0.84363 -0.12800
C 	C 	0.41803 0.05282 0.26187 0.17800
N 	N 	0.41200 0.04553 0.22457 -0.12200
C 	C 	0.42520 0.06132 0.19575 0.14900
N 	N 	0.44467 0.08415 0.20426 -0.13900
C 	C 	0.45235 0.09010 0.24132 0.14800
N 	N 	0.43873 0.07458 0.27014 -0.12900
C 	C 	0.41048 0.04980 0.95346 -0.02700
C 	C 	0.41064 0.02166 0.97282 0.12500
C 	C 	0.40574 0.02154 0.01283 -0.07300
C 	C 	0.40226 0.04904 0.03391 0.00400
C 	C 	0.39938 0.07681 0.01415 0.09400
C 	C 	0.40305 0.07679 0.97394 -0.04000
N 	N 	0.41661 0.99491 0.95349 -0.19600
H 	H 	0.40689 0.00017 0.02796 0.08300
C 	C 	0.40744 0.04910 0.07592 -0.00200
N 	N 	0.39383 0.10360 0.03361 -0.19300
H 	H 	0.40208 0.09819 0.95885 0.08000
C 	C 	0.43685 0.04774 0.08884 -0.07600
C 	C 	0.44286 0.04843 0.12830 0.11400
C 	C 	0.41916 0.05314 0.15521 -0.03300
C 	C 	0.38961 0.05296 0.14247 -0.04600
C 	C 	0.38346 0.05032 0.10298 0.10300
H 	H 	0.45510 0.04561 0.06807 0.06600
N 	N 	0.47118 0.04356 0.14022 -0.19800
H 	H 	0.37139 0.05566 0.16319 0.10000
N 	N 	0.35466 0.04946 0.09131 -0.19500
H 	H 	0.48880 0.04179 0.12023 0.10500
H 	H 	0.47570 0.03964 0.16907 0.11200
H 	H 	0.33712 0.05095 0.11147 0.15200
H 	H 	0.34936 0.04683 0.06228 0.13800
H 	H 	0.39243 0.12408 0.01884 0.12200
H 	H 	0.39033 0.10434 0.06338 0.11500
H 	H 	0.42132 0.99430 0.92400 0.13300
H 	H 	0.41675 0.97427 0.96806 0.12800
C 	C 	0.40155 0.03774 0.29334 -0.05400
C 	C 	0.41721 0.02296 0.32253 0.10400
C 	C 	0.40147 0.01055 0.35386 0.07800
C 	C 	0.37008 0.00936 0.35362 0.01000
C 	C 	0.35443 0.02274 0.32347 0.08300
C 	C 	0.37007 0.03852 0.29470 0.10200
C 	C 	0.35347 0.99355 0.38455 0.02500
C 	C 	0.34965 0.96158 0.38245 0.06900
C 	C 	0.32824 0.94777 0.40634 0.12400
C 	C 	0.30813 0.96620 0.42800 -0.08700
C 	C 	0.31624 0.99676 0.43637 0.12500
C 	C 	0.33866 0.01069 0.41393 0.06700
Br	Br	0.31159 0.01881 0.32114 -0.10200
Br	Br	0.45986 0.01758 0.31816 -0.14300
Br	Br	0.32693 0.90399 0.41056 -0.09300
Br	Br	0.34814 0.05329 0.42204 -0.10600
Br	Br	0.34841 0.06303 0.25908 -0.07800
Br	Br	0.42279 0.99571 0.39741 -0.10800
Br	Br	0.37157 0.93729 0.34464 -0.09700
Br	Br	0.30015 0.01774 0.48141 -0.08600
C 	C 	0.40296 0.03897 0.81256 -0.04300
C 	C 	0.40455 0.05819 0.78040 0.11100
C 	C 	0.39106 0.04903 0.74579 0.08100
C 	C 	0.37082 0.02444 0.74548 0.01700
C 	C 	0.36699 0.00687 0.77871 0.08600
C 	C 	0.38510 0.01236 0.81075 0.12500
C 	C 	0.35235 0.01808 0.71117 0.02000
C 	C 	0.32723 0.03640 0.70407 0.07000
C 	C 	0.30586 0.02575 0.67795 0.10800
C 	C 	0.30612 0.99477 0.66624 -0.08100
C 	C 	0.33341 0.97900 0.66690 0.12300
C 	C 	0.35698 0.99104 0.68895 0.07500
Br	Br	0.33579 0.97655 0.78124 -0.07600
Br	Br	0.42148 0.09863 0.78508 -0.12800
Br	Br	0.27572 0.05285 0.65969 -0.08400
Br	Br	0.39458 0.96990 0.69073 -0.10500
Br	Br	0.38747 0.98198 0.84991 -0.11200
Br	Br	0.40075 0.06966 0.69880 -0.10700
Br	Br	0.31979 0.07333 0.73403 -0.07500
Br	Br	0.33698 0.93960 0.64163 -0.08000
C 	C 	0.08166 0.35459 0.68902 -0.03600
C 	C 	0.10882 0.35899 0.66836 0.12200
C 	C 	0.10943 0.35478 0.62810 -0.07500
C 	C 	0.08308 0.34856 0.60816 0.00400
C 	C 	0.05660 0.34172 0.62908 0.09100
C 	C 	0.05658 0.34369 0.66942 -0.04000
N 	N 	0.13402 0.36811 0.68663 -0.19800
H 	H 	0.12997 0.35875 0.61204 0.08200
C 	C 	0.08257 0.35294 0.56594 0.00900
N 	N 	0.03095 0.33422 0.61069 -0.19200
H 	H 	0.03618 0.33905 0.68548 0.07500
C 	C 	0.08205 0.32719 0.54115 -0.08300
C 	C 	0.07394 0.33001 0.50247 0.13600
C 	C 	0.07045 0.35961 0.48720 -0.04500
C 	C 	0.07481 0.38547 0.51108 -0.04000
C 	C 	0.07959 0.38249 0.55060 0.08000
H 	H 	0.08507 0.30464 0.55284 0.10400
N 	N 	0.06786 0.30439 0.48112 -0.20200
H 	H 	0.07293 0.40809 0.49920 0.06300
N 	N 	0.08060 0.40803 0.57369 -0.19200
H 	H 	0.07207 0.28277 0.49199 0.16500
H 	H 	0.05690 0.30551 0.45500 0.13800
H 	H 	0.07857 0.42970 0.56195 0.10300
H 	H 	0.08299 0.40675 0.60341 0.10100
H 	H 	0.01156 0.32930 0.62649 0.11700
H 	H 	0.02982 0.33334 0.58074 0.11100
H 	H 	0.13439 0.37174 0.71637 0.12700
H 	H 	0.15379 0.37161 0.67098 0.12300
C 	C 	0.24307 0.07441 0.92794 0.02800
C 	C 	0.25407 0.09541 0.90124 0.10100
C 	C 	0.25413 0.12685 0.91181 -0.11800
C 	C 	0.23512 0.13700 0.94199 0.08000
C 	C 	0.21742 0.11590 0.96176 0.00200
C 	C 	0.22488 0.08462 0.95888 -0.08500
C 	C 	0.25419 0.08606 0.86006 0.09800
C 	C 	0.27044 0.15007 0.88764 0.79200
H 	H 	0.23132 0.16129 0.94670 0.09300
C 	C 	0.21026 0.06165 0.98502 0.78300
H 	H 	0.24501 0.05012 0.92160 0.12000
C 	C 	0.27366 0.06283 0.84578 -0.11600
C 	C 	0.26481 0.04461 0.81422 0.08100
C 	C 	0.23798 0.05056 0.79558 -0.00700
C 	C 	0.22163 0.07732 0.80531 -0.06800
C 	C 	0.22975 0.09468 0.83795 0.02700
C 	C 	0.30240 0.05531 0.86595 0.79300
H 	H 	0.27817 0.02498 0.80515 0.08900
C 	C 	0.19395 0.08577 0.78330 0.77500
H 	H 	0.21536 0.11305 0.84849 0.12300
F 	F 	0.22901 0.03699 0.99007 -0.38000
F 	F 	0.18412 0.05130 0.96869 -0.44300
F 	F 	0.20389 0.07472 0.02087 -0.38300
F 	F 	0.25105 0.16225 0.86154 -0.40700
F 	F 	0.29439 0.13698 0.86781 -0.38600
F 	F 	0.28119 0.17348 0.91099 -0.40500
F 	F 	0.17149 0.06500 0.79088 -0.43500
F 	F 	0.20014 0.08555 0.74418 -0.39500
F 	F 	0.18376 0.11472 0.79375 -0.38000
F 	F 	0.32390 0.04582 0.83926 -0.42600
F 	F 	0.29726 0.03200 0.89141 -0.42300
F 	F 	0.31358 0.08040 0.88586 -0.39900
C 	C 	0.14144 0.25660 0.97959 -0.08500
C 	C 	0.16477 0.27037 0.95873 0.12200
C 	C 	0.15826 0.29337 0.93253 0.07400
C 	C 	0.12884 0.30438 0.93024 0.02000
C 	C 	0.10760 0.29609 0.95847 0.07300
C 	C 	0.11384 0.27187 0.98312 0.12100
C 	C 	0.11891 0.31921 0.89471 0.01600
C 	C 	0.12298 0.35084 0.89004 0.07700
C 	C 	0.11422 0.36452 0.85575 0.10400
C 	C 	0.09834 0.34736 0.82800 -0.05800
C 	C 	0.09340 0.31587 0.83332 0.10500
C 	C 	0.10510 0.30157 0.86560 0.07200
Br	Br	0.06943 0.31632 0.96116 -0.10500
Br	Br	0.20487 0.25527 0.96321 -0.09900
Br	Br	0.12525 0.40628 0.84590 -0.14200
Br	Br	0.10248 0.25772 0.86985 -0.05300
Br	Br	0.08405 0.25820 0.01938 -0.08600
Br	Br	0.18866 0.30744 0.89728 -0.09400
Br	Br	0.13961 0.37549 0.93107 -0.11100
Br	Br	0.06864 0.29284 0.79818 -0.09200
C 	C 	0.24598 0.05718 0.21313 0.00500
C 	C 	0.22601 0.03436 0.20089 0.09400
C 	C 	0.20713 0.04067 0.16981 -0.11800
C 	C 	0.20130 0.07132 0.16127 0.06900
C 	C 	0.21583 0.09483 0.18161 -0.02900
C 	C 	0.24149 0.08760 0.20257 -0.09600
C 	C 	0.21696 0.01102 0.22902 0.08300
C 	C 	0.18994 0.01552 0.14950 0.79500
H 	H 	0.18333 0.07679 0.14212 0.12000
C 	C 	0.26192 0.11244 0.21771 0.77800
H 	H 	0.26221 0.05213 0.23485 0.11600
C 	C 	0.23765 0.98934 0.24220 -0.10900
C 	C 	0.23368 0.97760 0.27928 0.07900
C 	C 	0.20886 0.98617 0.30219 -0.02500
C 	C 	0.18578 0.00362 0.28616 -0.10100
C 	C 	0.18999 0.01554 0.24935 0.02400
C 	C 	0.26516 0.98048 0.21854 0.79000
H 	H 	0.25085 0.96336 0.29125 0.08600
C 	C 	0.15958 0.01467 0.31059 0.78800
H 	H 	0.17383 0.03150 0.23852 0.07000
F 	F 	0.26206 0.13730 0.19376 -0.40900
F 	F 	0.29084 0.10162 0.21967 -0.41100
F 	F 	0.25240 0.12178 0.25416 -0.46000
F 	F 	0.16082 0.01537 0.16326 -0.38000
F 	F 	0.20250 0.98711 0.15500 -0.36100
F 	F 	0.18996 0.02064 0.11038 -0.33800
F 	F 	0.13614 0.02358 0.28794 -0.39100
F 	F 	0.16872 0.03956 0.33256 -0.44000
F 	F 	0.14923 0.99189 0.33430 -0.47000
F 	F 	0.27314 0.95057 0.22554 -0.40100
F 	F 	0.28861 0.99942 0.22846 -0.42300
F 	F 	0.26016 0.98265 0.17953 -0.37800
C 	C 	0.15137 0.25219 0.20450 -0.08300
C 	C 	0.12309 0.26325 0.19447 0.12400
C 	C 	0.10902 0.28573 0.21815 0.07200
C 	C 	0.12375 0.29721 0.25102 0.02400
C 	C 	0.15430 0.29081 0.25550 0.08000
C 	C 	0.16861 0.27019 0.22978 0.13500
C 	C 	0.10661 0.31302 0.28245 0.01800
C 	C 	0.10869 0.34498 0.28746 0.07600
C 	C 	0.09639 0.35931 0.32072 0.10800
C 	C 	0.07927 0.34218 0.34694 -0.05600
C 	C 	0.07491 0.31066 0.34001 0.10800
C 	C 	0.08960 0.29586 0.30875 0.08100
Br	Br	0.17562 0.30771 0.29874 -0.06300
Br	Br	0.10530 0.24990 0.14694 -0.09600
Br	Br	0.10433 0.40195 0.33141 -0.15300
Br	Br	0.08662 0.25206 0.30209 -0.09100
Br	Br	0.21149 0.26846 0.22671 -0.07300
Br	Br	0.06947 0.29975 0.20684 -0.09500
Br	Br	0.12800 0.36904 0.24848 -0.11100
Br	Br	0.04730 0.28822 0.37176 -0.13600
C 	C 	0.62005 0.17564 0.28401 -0.04300
C 	C 	0.61446 0.14442 0.29154 0.12100
C 	C 	0.58501 0.13346 0.29081 -0.08000
C 	C 	0.56153 0.15253 0.28021 0.00200
C 	C 	0.56684 0.18412 0.27532 0.08100
C 	C 	0.59603 0.19543 0.27805 -0.04400
N 	N 	0.63718 0.12466 0.29808 -0.19900
H 	H 	0.58067 0.10946 0.29569 0.07800
C 	C 	0.53285 0.13844 0.26880 0.00300
N 	N 	0.54423 0.20352 0.26701 -0.19300
H 	H 	0.60029 0.21949 0.27344 0.06300
C 	C 	0.50843 0.13963 0.29457 -0.08200
C 	C 	0.48079 0.12711 0.28409 0.12400
C 	C 	0.47875 0.10948 0.24950 -0.04300
C 	C 	0.50324 0.10834 0.22373 -0.04300
C 	C 	0.52992 0.12350 0.23248 0.08100
H 	H 	0.51052 0.15171 0.32199 0.07600
N 	N 	0.45610 0.13364 0.30601 -0.19800
H 	H 	0.50168 0.09533 0.19691 0.06000
N 	N 	0.55257 0.12366 0.20590 -0.19200
H 	H 	0.45807 0.14487 0.33271 0.12100
H 	H 	0.43471 0.13000 0.29541 0.12600
H 	H 	0.55049 0.11180 0.17963 0.10000
H 	H 	0.57202 0.13626 0.21041 0.10100
H 	H 	0.54851 0.22671 0.26282 0.10600
H 	H 	0.52224 0.19597 0.26492 0.10600
H 	H 	0.65943 0.13159 0.29719 0.13000
H 	H 	0.63270 0.10174 0.30374 0.12500
C 	C 	0.63011 0.15887 0.89471 -0.04100
C 	C 	0.62259 0.13212 0.91495 0.11600
C 	C 	0.59580 0.11692 0.90682 -0.08100
C 	C 	0.57778 0.12638 0.87672 -0.00100
C 	C 	0.58676 0.15140 0.85413 0.08700
C 	C 	0.61249 0.16789 0.86400 -0.04500
N 	N 	0.64143 0.12033 0.94110 -0.19900
H 	H 	0.58915 0.09737 0.92357 0.06800
C 	C 	0.54841 0.11156 0.87125 -0.00000
N 	N 	0.57101 0.15946 0.82281 -0.19400
H 	H 	0.61877 0.18784 0.84776 0.07400
C 	C 	0.52258 0.12722 0.88360 -0.08200
C 	C 	0.49460 0.11300 0.88193 0.11900
C 	C 	0.49277 0.08185 0.87028 -0.04100
C 	C 	0.51837 0.06654 0.85645 -0.04500
C 	C 	0.54618 0.08133 0.85608 0.08700
H 	H 	0.52427 0.15062 0.89432 0.06900
N 	N 	0.46958 0.12950 0.89077 -0.19900
H 	H 	0.51673 0.04295 0.84641 0.07100
N 	N 	0.57050 0.06655 0.84090 -0.19400
H 	H 	0.47123 0.15209 0.90096 0.11400
H 	H 	0.44832 0.12065 0.88582 0.12500
H 	H 	0.56882 0.04394 0.83080 0.11800
H 	H 	0.59101 0.07761 0.83778 0.11500
H 	H 	0.57727 0.17855 0.80702 0.11600
H 	H 	0.55311 0.14633 0.81303 0.11300
H 	H 	0.66328 0.12825 0.94371 0.11600
H 	H 	0.63492 0.10163 0.95745 0.10900
C 	C 	0.68948 0.20868 0.99476 -0.04600
C 	C 	0.69674 0.23822 0.00944 0.12500
C 	C 	0.70165 0.24240 0.04906 -0.08300
C 	C 	0.69733 0.21828 0.07447 0.00400
C 	C 	0.68927 0.18896 0.05986 0.08300
C 	C 	0.68649 0.18429 0.02003 -0.03800
N 	N 	0.69786 0.26277 0.98611 -0.20000
H 	H 	0.70759 0.26486 0.06037 0.07400
C 	C 	0.69888 0.22457 0.11650 -0.00300
N 	N 	0.68357 0.16542 0.08387 -0.19200
H 	H 	0.68112 0.16167 0.00872 0.06400
C 	C 	0.67481 0.23934 0.13527 -0.07900
C 	C 	0.67204 0.23920 0.17553 0.11200
C 	C 	0.69275 0.22247 0.19698 -0.03900
C 	C 	0.71877 0.21118 0.17868 -0.04900
C 	C 	0.72232 0.21268 0.13850 0.09400
H 	H 	0.65772 0.25007 0.11846 0.06600
N 	N 	0.64963 0.25523 0.19347 -0.19800
H 	H 	0.73549 0.19976 0.19536 0.08600
N 	N 	0.74778 0.20199 0.12117 -0.19400
H 	H 	0.63359 0.26639 0.17743 0.10400
H 	H 	0.64881 0.25799 0.22341 0.11000
H 	H 	0.76451 0.19216 0.13744 0.13300
H 	H 	0.75162 0.20427 0.09165 0.12400
H 	H 	0.67848 0.14370 0.07266 0.11100
H 	H 	0.68317 0.16852 0.11372 0.10700
H 	H 	0.69090 0.26131 0.95763 0.12100
H 	H 	0.70441 0.28417 0.99697 0.11400
C 	C 	0.04217 0.20643 0.38415 0.03900
C 	C 	0.06368 0.20136 0.41210 0.08700
C 	C 	0.05511 0.20318 0.45137 -0.10500
C 	C 	0.02471 0.19985 0.46121 0.08800
C 	C 	0.00343 0.19774 0.43206 -0.00200
C 	C 	0.01177 0.20590 0.39432 -0.07600
C 	C 	0.09247 0.18744 0.39982 0.09700
C 	C 	0.07819 0.20653 0.48249 0.78800
H 	H 	0.01804 0.19588 0.49080 0.09900
C 	C 	0.98854 0.20958 0.36369 0.77900
H 	H 	0.04891 0.20740 0.35411 0.11500
C 	C 	0.09448 0.15546 0.39177 -0.08100
C 	C 	0.11768 0.14449 0.36743 0.08100
C 	C 	0.13624 0.16498 0.34825 0.01800
C 	C 	0.13823 0.19533 0.36254 -0.06700
C 	C 	0.11561 0.20669 0.38747 0.04200
C 	C 	0.06962 0.13384 0.40395 0.79300
H 	H 	0.11884 0.12048 0.35948 0.14300
C 	C 	0.16262 0.21637 0.34821 0.78100
H 	H 	0.11452 0.23094 0.39450 0.11800
F 	F 	0.98212 0.18134 0.34719 -0.45700
F 	F 	0.99888 0.22876 0.33527 -0.40200
F 	F 	0.96265 0.22214 0.37951 -0.42500
F 	F 	0.10014 0.22691 0.47142 -0.43000
F 	F 	0.09117 0.17851 0.48906 -0.35500
F 	F 	0.06534 0.21753 0.51655 -0.41700
F 	F 	0.16654 0.24094 0.37343 -0.40400
F 	F 	0.15526 0.22730 0.31258 -0.43300
F 	F 	0.18937 0.20069 0.34491 -0.40100
F 	F 	0.07784 0.10361 0.39825 -0.37500
F 	F 	0.04450 0.13901 0.38253 -0.45500
F 	F 	0.06261 0.13800 0.44255 -0.39600
C 	C 	0.01602 0.01936 0.47686 0.04800
C 	C 	0.04079 0.03417 0.49299 0.11300
C 	C 	0.03701 0.06381 0.50992 -0.08900
C 	C 	0.01094 0.08038 0.50237 0.08900
C 	C 	0.98816 0.06699 0.48061 0.01700
C 	C 	0.98903 0.03515 0.47265 -0.04800
C 	C 	0.07114 0.02230 0.48320 0.11200
C 	C 	0.06177 0.07934 0.53221 0.79400
H 	H 	0.00955 0.10442 0.51052 0.10200
C 	C 	0.96206 0.01838 0.45711 0.77900
H 	H 	0.01837 0.99634 0.46508 0.14800
C 	C 	0.08153 0.99400 0.49699 -0.10000
C 	C 	0.10766 0.98104 0.48062 0.08900
C 	C 	0.12426 0.99641 0.45241 0.01100
C 	C 	0.11591 0.02654 0.44268 -0.03900
C 	C 	0.08872 0.03841 0.45688 0.04300
C 	C 	0.06397 0.97624 0.52679 0.78900
H 	H 	0.11449 0.95835 0.48869 0.09100
C 	C 	0.13305 0.04474 0.41308 0.78100
H 	H 	0.08049 0.05980 0.44611 0.15900
F 	F 	0.93592 0.03161 0.47120 -0.40800
F 	F 	0.96232 0.98815 0.46807 -0.40100
F 	F 	0.96241 0.01920 0.41736 -0.44600
F 	F 	0.07799 0.09793 0.50796 -0.36400
F 	F 	0.08083 0.05835 0.54802 -0.35300
F 	F 	0.04973 0.09718 0.56198 -0.35100
F 	F 	0.12085 0.03891 0.37747 -0.34300
F 	F 	0.16312 0.03795 0.41194 -0.39700
F 	F 	0.13052 0.07571 0.42154 -0.37300
F 	F 	0.08286 0.95812 0.54765 -0.36900
F 	F 	0.04347 0.95757 0.50854 -0.41000
F 	F 	0.04917 0.99556 0.55264 -0.34400
C 	C 	0.83939 0.18614 0.45683 -0.08800
C 	C 	0.81741 0.16302 0.45538 0.11900
C 	C 	0.79030 0.16851 0.43685 0.07100
C 	C 	0.78575 0.19655 0.41873 0.02100
C 	C 	0.80558 0.22097 0.42560 0.07100
C 	C 	0.83177 0.21596 0.44629 0.12300
C 	C 	0.76331 0.19864 0.38801 0.01400
C 	C 	0.76976 0.18621 0.35103 0.07900
C 	C 	0.74767 0.18572 0.32280 0.10600
C 	C 	0.72035 0.20102 0.32987 -0.05800
C 	C 	0.71456 0.21501 0.36622 0.10500
C 	C 	0.73537 0.21235 0.39585 0.07700
Br	Br	0.79818 0.26036 0.40387 -0.12300
Br	Br	0.82504 0.12342 0.47637 -0.09200
Br	Br	0.75390 0.16196 0.27587 -0.11100
Br	Br	0.72537 0.22670 0.44733 -0.11800
Br	Br	0.85833 0.24937 0.45802 -0.12300
Br	Br	0.76024 0.13707 0.43387 -0.08000
Br	Br	0.80906 0.17034 0.33893 -0.08400
Br	Br	0.67897 0.23919 0.37475 -0.14900
C 	C 	0.03278 0.07712 0.72213 0.03700
C 	C 	0.04033 0.05827 0.69025 0.10400
C 	C 	0.01829 0.05089 0.66268 -0.09800
C 	C 	0.98838 0.05874 0.67074 0.08800
C 	C 	0.98065 0.07568 0.70412 0.00700
C 	C 	0.00333 0.08742 0.72797 -0.06000
C 	C 	0.07001 0.04313 0.68891 0.10000
C 	C 	0.02581 0.03213 0.62662 0.79700
H 	H 	0.97091 0.05019 0.65217 0.10100
C 	C 	0.99585 0.10914 0.76127 0.77100
H 	H 	0.04960 0.08269 0.74320 0.14000
C 	C 	0.09649 0.05984 0.68118 -0.08500
C 	C 	0.12430 0.04613 0.68780 0.09000
C 	C 	0.12602 0.01551 0.69858 0.02200
C 	C 	0.09978 0.99778 0.70105 -0.05800
C 	C 	0.07190 0.01217 0.69828 0.04100
C 	C 	0.09533 0.09286 0.66872 0.79000
H 	H 	0.14456 0.05960 0.68597 0.12700
C 	C 	0.10156 0.96365 0.70717 0.78100
H 	H 	0.05161 0.99952 0.70413 0.13700
F 	F 	0.02103 0.12439 0.77390 -0.37200
F 	F 	0.98375 0.09288 0.79140 -0.48400
F 	F 	0.97552 0.13081 0.74994 -0.43000
F 	F 	0.02378 0.00138 0.63460 -0.36300
F 	F 	0.05427 0.03846 0.61319 -0.34600
F 	F 	0.00616 0.03859 0.59757 -0.38200
F 	F 	0.11130 0.95828 0.74396 -0.46600
F 	F 	0.12141 0.95067 0.68065 -0.40200
F 	F 	0.07416 0.94957 0.70249 -0.35800
F 	F 	0.12185 0.10124 0.65090 -0.36300
F 	F 	0.09058 0.11181 0.70060 -0.37800
F 	F 	0.07270 0.09716 0.64281 -0.35200
C 	C 	0.02576 0.12053 0.87860 0.04600
C 	C 	0.99904 0.12737 0.89846 0.10200
C 	C 	0.99956 0.13416 0.93847 -0.08200
C 	C 	0.02712 0.13474 0.95707 0.10600
C 	C 	0.05400 0.13409 0.93574 -0.01300
C 	C 	0.05340 0.12675 0.89571 -0.04300
C 	C 	0.97133 0.13058 0.87625 0.10800
C 	C 	0.97098 0.14081 0.96144 0.79300
H 	H 	0.02781 0.13879 0.98789 0.10800
C 	C 	0.08165 0.12666 0.87091 0.78800
H 	H 	0.02492 0.11282 0.84883 0.15400
C 	C 	0.96741 0.15543 0.85123 -0.09000
C 	C 	0.94388 0.15433 0.82500 0.10500
C 	C 	0.92248 0.13097 0.82681 -0.00400
C 	C 	0.92278 0.11087 0.85808 -0.09800
C 	C 	0.94899 0.10827 0.87915 0.04800
C 	C 	0.98893 0.18226 0.85093 0.79000
H 	H 	0.94290 0.17087 0.80232 0.11900
C 	C 	0.89468 0.09500 0.87205 0.77900
H 	H 	0.95149 0.08960 0.89882 0.13500
F 	F 	0.07545 0.12256 0.83223 -0.36300
F 	F 	0.09999 0.10305 0.88145 -0.50000
F 	F 	0.09656 0.15419 0.87509 -0.39700
F 	F 	0.95502 0.11408 0.96590 -0.36200
F 	F 	0.95355 0.16185 0.94295 -0.38400
F 	F 	0.97696 0.15287 0.99767 -0.36800
F 	F 	0.89518 0.06464 0.86032 -0.48200
F 	F 	0.86923 0.10871 0.85841 -0.40400
F 	F 	0.89310 0.09642 0.91187 -0.35900
F 	F 	0.97620 0.20740 0.83412 -0.39400
F 	F 	0.01442 0.17430 0.83015 -0.37000
F 	F 	0.99663 0.19089 0.88799 -0.39300
C 	C 	0.81358 0.16090 0.70638 -0.08600
C 	C 	0.82412 0.18858 0.72254 0.11900
C 	C 	0.80561 0.20547 0.74829 0.07300
C 	C 	0.77646 0.19506 0.75602 0.01900
C 	C 	0.76394 0.17264 0.73142 0.07300
C 	C 	0.78264 0.15601 0.70566 0.12100
C 	C 	0.76235 0.20155 0.79416 0.01500
C 	C 	0.76859 0.18253 0.82527 0.07100
C 	C 	0.75047 0.18392 0.85866 0.10600
C 	C 	0.72629 0.20440 0.86102 -0.06000
C 	C 	0.72245 0.22597 0.83204 0.10400
C 	C 	0.74043 0.22448 0.79846 0.07600
Br	Br	0.72219 0.16273 0.73598 -0.12300
Br	Br	0.86423 0.20188 0.71168 -0.11000
Br	Br	0.75765 0.15657 0.90029 -0.11100
Br	Br	0.73438 0.25293 0.75777 -0.12200
Br	Br	0.76681 0.12385 0.67335 -0.09300
Br	Br	0.82084 0.24067 0.77582 -0.11100
Br	Br	0.80117 0.15371 0.82139 -0.07200
Br	Br	0.69207 0.25695 0.83814 -0.16000
C 	C 	0.90982 0.54016 0.43946 -0.04500
C 	C 	0.90731 0.52666 0.40221 0.12100
C 	C 	0.92543 0.50152 0.39171 -0.08300
C 	C 	0.94413 0.48825 0.41864 0.00200
C 	C 	0.94510 0.50051 0.45667 0.08000
C 	C 	0.92832 0.52666 0.46647 -0.04300
N 	N 	0.88684 0.53687 0.37708 -0.19900
H 	H 	0.92443 0.49178 0.36278 0.07500
C 	C 	0.96376 0.46252 0.40631 0.00100
N 	N 	0.96217 0.48739 0.48382 -0.19200
H 	H 	0.92995 0.53678 0.49514 0.06000
C 	C 	0.99349 0.46875 0.39621 -0.08200
C 	C 	0.01481 0.44527 0.39448 0.12000
C 	C 	0.00576 0.41477 0.40107 -0.04100
C 	C 	0.97548 0.40821 0.40731 -0.04600
C 	C 	0.95431 0.43184 0.41007 0.08500
H 	H 	0.00044 0.49223 0.39229 0.07600
N 	N 	0.04399 0.45229 0.38782 -0.19900
H 	H 	0.96853 0.38475 0.41152 0.07300
N 	N 	0.92514 0.42500 0.41706 -0.19300
H 	H 	0.05038 0.47484 0.38278 0.11900
H 	H 	0.06063 0.43565 0.38801 0.12600
H 	H 	0.91849 0.40235 0.42083 0.11300
H 	H 	0.90872 0.44193 0.41800 0.10600
H 	H 	0.96316 0.49698 0.51159 0.09800
H 	H 	0.97414 0.46731 0.47799 0.09900
H 	H 	0.87022 0.55235 0.38581 0.12500
H 	H 	0.88622 0.52786 0.34899 0.11900
C 	C 	0.92989 0.54912 0.80809 -0.04500
C 	C 	0.96089 0.55160 0.81523 0.12100
C 	C 	0.97841 0.52504 0.81516 -0.08300
C 	C 	0.96671 0.49695 0.80239 0.00300
C 	C 	0.93591 0.49453 0.79424 0.08000
C 	C 	0.91765 0.52048 0.79854 -0.04500
N 	N 	0.97427 0.57936 0.81950 -0.19900
H 	H 	0.00195 0.52673 0.82161 0.07800
C 	C 	0.98745 0.47121 0.79391 0.00100
N 	N 	0.92388 0.46764 0.78158 -0.19300
H 	H 	0.89395 0.51855 0.79320 0.06200
C 	C 	0.98821 0.44658 0.81900 -0.08200
C 	C 	0.00642 0.42110 0.81055 0.12300
C 	C 	0.02745 0.42240 0.77967 -0.04400
C 	C 	0.02736 0.44758 0.75535 -0.04400
C 	C 	0.00668 0.47135 0.76116 0.08200
H 	H 	0.97321 0.44638 0.84380 0.07600
N 	N 	0.00223 0.39498 0.83044 -0.19800
H 	H 	0.04318 0.44849 0.73145 0.06300
N 	N 	0.00512 0.49393 0.73495 -0.19300
H 	H 	0.98839 0.39497 0.85494 0.12100
H 	H 	0.01036 0.37401 0.81990 0.12600
H 	H 	0.02011 0.49435 0.71160 0.10300
H 	H 	0.98843 0.51055 0.73657 0.10000
H 	H 	0.90108 0.46609 0.77603 0.10400
H 	H 	0.93694 0.44819 0.77649 0.10300
H 	H 	0.96379 0.59940 0.81120 0.12600
H 	H 	0.99652 0.58084 0.82787 0.12200
C 	C 	0.86051 0.61472 0.74126 -0.03800
C 	C 	0.84250 0.59252 0.72270 0.11300
C 	C 	0.83816 0.59409 0.68289 -0.07900
C 	C 	0.85091 0.61790 0.66190 -0.00300
C 	C 	0.86391 0.64298 0.68178 0.09500
C 	C 	0.86882 0.64107 0.72146 -0.04900
N 	N 	0.82963 0.56962 0.74290 -0.19800
H 	H 	0.82651 0.57578 0.66789 0.06800
C 	C 	0.85615 0.61326 0.62001 0.00400
N 	N 	0.87265 0.66834 0.66271 -0.19400
H 	H 	0.88104 0.65908 0.73624 0.08700
C 	C 	0.83352 0.62067 0.59442 -0.08200
C 	C 	0.83757 0.61577 0.55453 0.12100
C 	C 	0.86506 0.60386 0.54019 -0.04200
C 	C 	0.88763 0.59654 0.56583 -0.04200
C 	C 	0.88337 0.60073 0.60563 0.08300
H 	H 	0.81261 0.62996 0.60559 0.07600
N 	N 	0.81481 0.62187 0.53044 -0.19800
H 	H 	0.90869 0.58752 0.55472 0.06400
N 	N 	0.90541 0.59249 0.62984 -0.19200
H 	H 	0.79485 0.63127 0.54125 0.11700
H 	H 	0.81634 0.61663 0.50102 0.11900
H 	H 	0.92556 0.58370 0.61882 0.10400
H 	H 	0.90270 0.59420 0.65968 0.10300
H 	H 	0.88334 0.68629 0.67727 0.13200
H 	H 	0.86802 0.67088 0.63360 0.12200
H 	H 	0.83066 0.56931 0.77290 0.11300
H 	H 	0.81735 0.55255 0.72882 0.10700
C 	C 	0.01605 0.98969 0.01708 0.04500
C 	C 	0.03640 0.01003 0.00034 0.10500
C 	C 	0.04419 0.00660 0.96072 -0.10100
C 	C 	0.03279 0.98159 0.93947 0.09300
C 	C 	0.01365 0.96037 0.95679 0.01700
C 	C 	0.00289 0.96618 0.99489 -0.04900
C 	C 	0.05216 0.03244 0.02541 0.10100
C 	C 	0.06650 0.02804 0.94179 0.78200
H 	H 	0.03955 0.97802 0.90966 0.11000
C 	C 	0.97746 0.94778 0.01210 0.78100
H 	H 	0.01058 0.99211 0.04750 0.15500
C 	C 	0.04216 0.06303 0.02956 -0.09400
C 	C 	0.06324 0.08615 0.03764 0.08400
C 	C 	0.09300 0.07830 0.04475 0.00400
C 	C 	0.09978 0.04742 0.05210 -0.03800
C 	C 	0.07984 0.02450 0.04027 0.05700
C 	C 	0.00970 0.07105 0.02385 0.79300
H 	H 	0.05722 0.10998 0.03502 0.08000
C 	C 	0.12900 0.03867 0.06990 0.78900
H 	H 	0.08656 0.00069 0.04040 0.13600
F 	F 	0.96295 0.96436 0.04121 -0.36000
F 	F 	0.98857 0.92128 0.02740 -0.39100
F 	F 	0.95656 0.94039 0.98453 -0.39800
F 	F 	0.09456 0.02335 0.95650 -0.45800
F 	F 	0.05831 0.05817 0.94842 -0.46600
F 	F 	0.06817 0.02317 0.90231 -0.41900
F 	F 	0.12505 0.01345 0.09277 -0.33800
F 	F 	0.13981 0.06240 0.09270 -0.39600
F 	F 	0.14970 0.03151 0.04117 -0.34600
F 	F 	0.00330 0.10025 0.03776 -0.38100
F 	F 	0.99154 0.05090 0.04345 -0.37200
F 	F 	0.00318 0.06934 0.98513 -0.39300
C 	C 	0.86410 0.95322 0.75055 0.04400
C 	C 	0.89460 0.94649 0.75224 0.09100
C 	C 	0.91462 0.96110 0.72672 -0.10300
C 	C 	0.90536 0.98808 0.70915 0.07500
C 	C 	0.87643 0.99928 0.71617 0.00900
C 	C 	0.85467 0.97938 0.73144 -0.05400
C 	C 	0.90580 0.92940 0.78535 0.09300
C 	C 	0.94605 0.94909 0.72011 0.79100
H 	H 	0.92138 0.00193 0.69368 0.09400
C 	C 	0.82205 0.98813 0.73232 0.78100
H 	H 	0.84826 0.94019 0.76744 0.11800
C 	C 	0.91474 0.94489 0.81964 -0.09800
C 	C 	0.92960 0.92844 0.84778 0.07000
C 	C 	0.93446 0.89702 0.84294 0.00100
C 	C 	0.92163 0.88093 0.81156 -0.05700
C 	C 	0.90803 0.89748 0.78241 0.03700
C 	C 	0.91071 0.97923 0.82497 0.77600
H 	H 	0.93885 0.94031 0.87256 0.10400
C 	C 	0.92388 0.84638 0.80800 0.77700
H 	H 	0.90008 0.88570 0.75679 0.12800
F 	F 	0.81576 0.00531 0.76535 -0.38900
F 	F 	0.80426 0.96227 0.73206 -0.39600
F 	F 	0.81518 0.00504 0.70046 -0.40000
F 	F 	0.94549 0.91770 0.71450 -0.39700
F 	F 	0.96332 0.95615 0.75166 -0.41100
F 	F 	0.95922 0.96173 0.68785 -0.38200
F 	F 	0.90311 0.83462 0.78261 -0.39900
F 	F 	0.91865 0.83329 0.84338 -0.40900
F 	F 	0.95209 0.83829 0.79472 -0.39500
F 	F 	0.91664 0.98885 0.86230 -0.40900
F 	F 	0.88172 0.98762 0.81733 -0.44000
F 	F 	0.93006 0.99413 0.80044 -0.51200
C 	C 	0.12442 0.89034 0.85350 0.04800
C 	C 	0.13249 0.86424 0.83164 0.07500
C 	C 	0.12216 0.83518 0.84297 -0.09000
C 	C 	0.09936 0.83363 0.87124 0.08100
C 	C 	0.08837 0.86041 0.88937 -0.00500
C 	C 	0.10317 0.88847 0.88344 -0.09800
C 	C 	0.15014 0.86805 0.79570 0.09600
C 	C 	0.13566 0.80609 0.82554 0.78900
H 	H 	0.08895 0.81192 0.87756 0.10400
C 	C 	0.09442 0.91709 0.90625 0.78400
H 	H 	0.13362 0.91236 0.84589 0.06800
C 	C 	0.13627 0.87813 0.76182 -0.10400
C 	C 	0.15376 0.89260 0.73361 0.06800
C 	C 	0.18427 0.89722 0.73910 -0.01200
C 	C 	0.19869 0.88154 0.76861 -0.07300
C 	C 	0.18136 0.86811 0.79767 0.02300
C 	C 	0.10257 0.87729 0.75798 0.79300
H 	H 	0.14321 0.90277 0.70922 0.14200
C 	C 	0.23236 0.88185 0.77149 0.77700
H 	H 	0.19198 0.85984 0.82323 0.13000
F 	F 	0.11809 0.93737 0.90811 -0.41200
F 	F 	0.08602 0.91022 0.94357 -0.42000
F 	F 	0.07096 0.93107 0.88841 -0.52900
F 	F 	0.16595 0.80556 0.83239 -0.40200
F 	F 	0.13127 0.80480 0.78626 -0.37300
F 	F 	0.12310 0.78020 0.84129 -0.39600
F 	F 	0.24224 0.85660 0.79093 -0.38600
F 	F 	0.24123 0.90803 0.79119 -0.43500
F 	F 	0.24560 0.88116 0.73521 -0.39400
F 	F 	0.09440 0.88032 0.72001 -0.35600
F 	F 	0.08994 0.90101 0.77958 -0.44100
F 	F 	0.09111 0.84989 0.77061 -0.39500
C 	C 	0.90379 0.64938 0.86216 -0.06100
C 	C 	0.92263 0.67272 0.84865 0.10700
C 	C 	0.93131 0.69663 0.87366 0.07000
C 	C 	0.92252 0.69641 0.91279 0.01600
C 	C 	0.90401 0.67286 0.92648 0.07600
C 	C 	0.89423 0.64962 0.90099 0.10600
C 	C 	0.93296 0.72098 0.93929 0.02000
C 	C 	0.96190 0.71942 0.95426 0.07400
C 	C 	0.97705 0.74658 0.96410 0.12100
C 	C 	0.96310 0.77494 0.95898 -0.08000
C 	C 	0.93222 0.77582 0.95227 0.12400
C 	C 	0.91710 0.74872 0.94215 0.07600
Br	Br	0.89245 0.67233 0.98015 -0.10700
Br	Br	0.93786 0.67104 0.79633 -0.15300
Br	Br	0.01752 0.74530 0.98167 -0.09200
Br	Br	0.87564 0.74990 0.92849 -0.08700
Br	Br	0.86747 0.61833 0.91900 -0.14100
Br	Br	0.95522 0.72984 0.85437 -0.07900
Br	Br	0.98149 0.68043 0.95785 -0.11400
Br	Br	0.91148 0.81442 0.95328 -0.06900
C 	C 	0.00115 0.00138 0.21930 0.04700
C 	C 	0.03190 0.00012 0.22626 0.10300
C 	C 	0.04410 0.97340 0.24236 -0.09300
C 	C 	0.02461 0.95095 0.25659 0.09000
C 	C 	0.99367 0.95483 0.25472 0.02100
C 	C 	0.98218 0.97778 0.23143 -0.06700
C 	C 	0.04922 0.02902 0.22601 0.09800
C 	C 	0.07719 0.97096 0.25034 0.78800
H 	H 	0.03338 0.93214 0.27274 0.12400
C 	C 	0.94923 0.97883 0.22301 0.78900
H 	H 	0.99177 0.02176 0.20710 0.14800
C 	C 	0.06476 0.03875 0.19267 -0.08400
C 	C 	0.08720 0.06113 0.19663 0.08800
C 	C 	0.09118 0.07660 0.23201 0.02200
C 	C 	0.07086 0.07124 0.26290 -0.04600
C 	C 	0.05133 0.04623 0.26031 0.04900
C 	C 	0.05843 0.02482 0.15332 0.79400
H 	H 	0.10205 0.06591 0.17257 0.11700
C 	C 	0.07093 0.09068 0.29952 0.78200
H 	H 	0.03828 0.03962 0.28532 0.13200
F 	F 	0.93920 0.94993 0.21264 -0.40000
F 	F 	0.94336 0.99828 0.19319 -0.35100
F 	F 	0.93384 0.98888 0.25561 -0.45200
F 	F 	0.08332 0.98640 0.28444 -0.37700
F 	F 	0.09419 0.98317 0.22093 -0.37000
F 	F 	0.08560 0.94070 0.25371 -0.39800
F 	F 	0.04308 0.09052 0.31735 -0.40300
F 	F 	0.07802 0.12077 0.29202 -0.42900
F 	F 	0.09142 0.07879 0.32436 -0.36600
F 	F 	0.06848 0.04386 0.12476 -0.41500
F 	F 	0.02817 0.02080 0.14827 -0.40300
F 	F 	0.07266 0.99691 0.14905 -0.35600
C 	C 	0.85321 0.99554 0.34581 0.02600
C 	C 	0.85709 0.01087 0.31104 0.09100
C 	C 	0.86068 0.99341 0.27647 -0.09800
C 	C 	0.86906 0.96251 0.27859 0.08400
C 	C 	0.87054 0.94856 0.31448 -0.02300
C 	C 	0.85851 0.96400 0.34737 -0.08900
C 	C 	0.86678 0.04327 0.31285 0.10400
C 	C 	0.85805 0.00805 0.23758 0.79100
H 	H 	0.87642 0.95008 0.25281 0.12300
C 	C 	0.85371 0.94770 0.38496 0.77900
H 	H 	0.84905 0.00859 0.37225 0.12300
C 	C 	0.84822 0.06622 0.32994 -0.11200
C 	C 	0.86163 0.09133 0.34887 0.08800
C 	C 	0.89288 0.09328 0.35089 0.00500
C 	C 	0.91006 0.07562 0.32420 -0.07000
C 	C 	0.89721 0.04955 0.30719 0.02400
C 	C 	0.81462 0.06258 0.33227 0.79200
H 	H 	0.84793 0.10711 0.36598 0.09500
C 	C 	0.94154 0.08436 0.31314 0.75800
H 	H 	0.91132 0.03295 0.29227 0.13600
F 	F 	0.83067 0.96125 0.40619 -0.38300
F 	F 	0.87946 0.94928 0.40625 -0.45500
F 	F 	0.84627 0.91734 0.37834 -0.39900
F 	F 	0.88534 0.01968 0.22613 -0.36200
F 	F 	0.83739 0.03152 0.23909 -0.36800
F 	F 	0.84887 0.98673 0.21022 -0.37200
F 	F 	0.94828 0.07433 0.27592 -0.38400
F 	F 	0.96118 0.07078 0.33774 -0.50500
F 	F 	0.94493 0.11579 0.31441 -0.47900
F 	F 	0.80093 0.09080 0.32982 -0.40100
F 	F 	0.80665 0.04995 0.36706 -0.40800
F 	F 	0.80416 0.04409 0.30266 -0.37800
C 	C 	0.10983 0.89149 0.48424 0.01700
C 	C 	0.09317 0.88199 0.45234 0.11100
C 	C 	0.10790 0.86702 0.42071 -0.12800
C 	C 	0.13921 0.86776 0.41850 0.05900
C 	C 	0.15546 0.88353 0.44679 -0.01100
C 	C 	0.14112 0.89045 0.48257 -0.05900
C 	C 	0.06286 0.89459 0.44795 0.08400
C 	C 	0.09054 0.85441 0.38671 0.78700
H 	H 	0.15067 0.85927 0.39271 0.07400
C 	C 	0.15863 0.89605 0.51893 0.77900
H 	H 	0.09856 0.90143 0.50936 0.16100
C 	C 	0.03728 0.87768 0.45848 -0.07300
C 	C 	0.01038 0.88324 0.43952 0.09200
C 	C 	0.00858 0.90702 0.41321 0.03100
C 	C 	0.03214 0.92845 0.41080 -0.07100
C 	C 	0.05955 0.92149 0.42738 0.06000
C 	C 	0.03883 0.85353 0.48899 0.79000
H 	H 	0.99159 0.86793 0.44316 0.10800
C 	C 	0.02922 0.95710 0.38760 0.78700
H 	H 	0.07891 0.93562 0.42168 0.08400
F 	F 	0.18548 0.88041 0.51726 -0.39000
F 	F 	0.14265 0.88593 0.55061 -0.36300
F 	F 	0.16393 0.92701 0.52390 -0.40500
F 	F 	0.08240 0.87812 0.36343 -0.44300
F 	F 	0.06521 0.83922 0.39894 -0.38900
F 	F 	0.10763 0.83381 0.36501 -0.40800
F 	F 	0.04955 0.97909 0.39934 -0.42000
F 	F 	0.00095 0.96939 0.39231 -0.46500
F 	F 	0.03456 0.95003 0.34916 -0.41900
F 	F 	0.01070 0.84313 0.49929 -0.38200
F 	F 	0.05192 0.86569 0.52166 -0.37300
F 	F 	0.05557 0.82890 0.47546 -0.37200
C 	C 	0.91658 0.79290 0.33341 -0.08200
C 	C 	0.88766 0.78383 0.34477 0.12200
C 	C 	0.88285 0.75433 0.35881 0.07500
C 	C 	0.90630 0.73289 0.35777 0.02000
C 	C 	0.93389 0.74051 0.34056 0.07500
C 	C 	0.93954 0.77085 0.32992 0.12100
C 	C 	0.90298 0.70365 0.37816 0.01600
C 	C 	0.91432 0.70089 0.41549 0.07200
C 	C 	0.91120 0.67319 0.43485 0.10700
C 	C 	0.89394 0.64935 0.41874 -0.06000
C 	C 	0.88216 0.65229 0.38162 0.10600
C 	C 	0.88797 0.67884 0.36064 0.07500
Br	Br	0.96413 0.70954 0.33274 -0.10000
Br	Br	0.85464 0.81172 0.34039 -0.07700
Br	Br	0.93209 0.66722 0.48223 -0.13800
Br	Br	0.87569 0.68121 0.30787 -0.11100
Br	Br	0.97921 0.78253 0.31365 -0.07900
Br	Br	0.84478 0.74390 0.38162 -0.10600
Br	Br	0.93337 0.73537 0.44049 -0.08700
Br	Br	0.85655 0.62093 0.36053 -0.16000
