data_crystal

_cell_length_a 15.52200
_cell_length_b 26.65744
_cell_length_c 36.89567
_cell_angle_alpha 89.99898
_cell_angle_beta  90.00003
_cell_angle_gamma 90.03686

_symmetry_space_group_name_	'P 1'
_symmetry_space_group_name_H-M	'P 1'

loop_
_symmetry_equiv_pos_as_xyz
  x,y,z

loop_
_atom_site_label
_atom_site_type_symbol
_atom_site_fract_x
_atom_site_fract_y
_atom_site_fract_z
_atom_site_charge
C 	C 	0.78500 0.90222 0.05428 0.28900
Co	Co	0.73472 0.98287 0.00139 1.15500
Co	Co	0.31897 0.98071 0.00139 1.15600
O 	O 	0.18360 0.98142 0.00934 -0.78900
O 	O 	0.02686 0.98182 0.02001 -0.56700
C 	C 	0.26462 0.90026 0.05398 0.29500
C 	C 	0.78876 0.06494 0.05288 0.29100
O 	O 	0.33038 0.92713 0.04226 -0.39000
O 	O 	0.20718 0.88279 0.03100 -0.39900
O 	O 	0.72366 0.03661 0.04211 -0.38700
O 	O 	0.84500 0.08174 0.02915 -0.39900
O 	O 	0.86996 0.98228 0.00907 -0.79800
C 	C 	0.26875 0.06307 0.05355 0.29300
O 	O 	0.33306 0.03524 0.04159 -0.38700
O 	O 	0.20977 0.08018 0.03111 -0.39600
O 	O 	0.71984 0.92810 0.04101 -0.39300
O 	O 	0.84484 0.88461 0.03234 -0.40600
C 	C 	0.27391 0.08473 0.09016 -0.08100
C 	C 	0.33009 0.12514 0.09815 0.04500
C 	C 	0.32947 0.14619 0.13303 -0.02900
C 	C 	0.21920 0.06589 0.11714 -0.02900
H 	H 	0.17707 0.03456 0.11102 0.03100
C 	C 	0.38778 0.14802 0.06939 -0.06900
C 	C 	0.34218 0.19077 0.04969 -0.13800
H 	H 	0.40971 0.11970 0.04939 0.05000
H 	H 	0.44730 0.16309 0.08219 0.03500
H 	H 	0.28382 0.17676 0.03551 0.06700
H 	H 	0.38646 0.20723 0.02928 0.04600
H 	H 	0.32343 0.22066 0.06915 0.05900
C 	C 	0.26894 0.87805 0.09040 -0.08500
C 	C 	0.20124 0.88493 0.11568 0.04100
C 	C 	0.34687 0.82708 0.13428 0.03300
C 	C 	0.34113 0.84948 0.09998 -0.02000
H 	H 	0.39280 0.84423 0.08055 0.03900
C 	C 	0.12206 0.91564 0.10646 -0.08300
C 	C 	0.04737 0.88197 0.09477 -0.08800
H 	H 	0.13536 0.94367 0.08493 0.02800
H 	H 	0.10182 0.93752 0.13068 0.04300
H 	H 	0.06592 0.85875 0.07105 0.05300
H 	H 	0.99120 0.90545 0.08711 0.00200
H 	H 	0.02776 0.85689 0.11737 0.06200
H 	H 	0.44627 0.77446 0.11929 0.03400
H 	H 	0.52040 0.85508 0.13251 0.06000
C 	C 	0.69312 0.12254 0.13720 0.03700
C 	C 	0.70432 0.10702 0.10115 -0.02900
C 	C 	0.78406 0.08904 0.08896 -0.08000
C 	C 	0.85598 0.08964 0.11275 0.02700
H 	H 	0.64988 0.10768 0.08272 0.04200
C 	C 	0.94507 0.07371 0.10042 -0.05500
H 	H 	0.55420 0.12099 0.13192 0.04000
H 	H 	0.60714 0.20917 0.11975 0.05200
C 	C 	0.95624 0.01698 0.10237 -0.19000
H 	H 	0.99489 0.09124 0.11803 0.02200
H 	H 	0.95980 0.08733 0.07276 0.02000
H 	H 	0.94217 0.00303 0.13013 0.05700
H 	H 	0.02378 0.00753 0.09552 0.08100
H 	H 	0.91348 0.99790 0.08265 0.03900
C 	C 	0.77569 0.87885 0.09043 -0.08500
C 	C 	0.75751 0.90786 0.12177 0.03100
C 	C 	0.79164 0.80429 0.12815 0.03400
C 	C 	0.79197 0.82739 0.09403 -0.03000
H 	H 	0.80601 0.80514 0.07014 0.04400
C 	C 	0.73443 0.96286 0.11937 -0.06200
C 	C 	0.81473 0.74930 0.13054 -0.06900
C 	C 	0.63690 0.96998 0.11753 -0.14700
H 	H 	0.76557 0.98083 0.09589 0.04300
H 	H 	0.60951 0.95024 0.09368 0.06600
H 	H 	0.62164 0.01051 0.11521 0.06800
C 	C 	0.91227 0.74218 0.13239 -0.13100
H 	H 	0.78984 0.72907 0.10633 0.04200
H 	H 	0.94318 0.75690 0.10739 0.04600
H 	H 	0.92754 0.70165 0.13472 0.05400
C 	C 	0.78500 0.40222 0.05428 0.29000
Co	Co	0.73472 0.48287 0.00139 1.15900
Co	Co	0.31897 0.48071 0.00139 1.15900
O 	O 	0.18360 0.48142 0.00934 -0.78500
O 	O 	0.02686 0.48181 0.02001 -0.56400
C 	C 	0.26462 0.40026 0.05398 0.29500
C 	C 	0.78876 0.56494 0.05288 0.29000
O 	O 	0.33038 0.42713 0.04226 -0.38800
O 	O 	0.20718 0.38279 0.03100 -0.39900
O 	O 	0.72366 0.53661 0.04211 -0.39000
O 	O 	0.84500 0.58174 0.02915 -0.40000
O 	O 	0.86996 0.48228 0.00907 -0.79400
C 	C 	0.26875 0.56307 0.05355 0.29300
O 	O 	0.33306 0.53524 0.04159 -0.39000
O 	O 	0.20977 0.58018 0.03111 -0.39700
O 	O 	0.71984 0.42810 0.04101 -0.39200
O 	O 	0.84484 0.38461 0.03234 -0.40600
C 	C 	0.27391 0.58473 0.09016 -0.08200
C 	C 	0.33009 0.62514 0.09815 0.04500
C 	C 	0.32947 0.64619 0.13303 -0.02900
C 	C 	0.21920 0.56589 0.11714 -0.02900
H 	H 	0.17707 0.53456 0.11102 0.02900
C 	C 	0.38778 0.64802 0.06939 -0.06900
C 	C 	0.34218 0.69077 0.04969 -0.13800
H 	H 	0.40971 0.61970 0.04939 0.05000
H 	H 	0.44730 0.66309 0.08219 0.03500
H 	H 	0.28382 0.67676 0.03551 0.06700
H 	H 	0.38646 0.70723 0.02928 0.04600
H 	H 	0.32343 0.72066 0.06915 0.05900
C 	C 	0.26894 0.37805 0.09040 -0.08500
C 	C 	0.20124 0.38493 0.11568 0.04200
C 	C 	0.34687 0.32708 0.13428 0.03300
C 	C 	0.34113 0.34948 0.09998 -0.02000
H 	H 	0.39280 0.34423 0.08055 0.03900
C 	C 	0.12206 0.41564 0.10646 -0.08400
C 	C 	0.04737 0.38197 0.09477 -0.08800
H 	H 	0.13536 0.44367 0.08493 0.02900
H 	H 	0.10182 0.43752 0.13068 0.04500
H 	H 	0.06592 0.35875 0.07105 0.05300
H 	H 	0.99120 0.40545 0.08711 0.00300
H 	H 	0.02776 0.35689 0.11737 0.06200
H 	H 	0.44627 0.27446 0.11929 0.03400
H 	H 	0.52040 0.35508 0.13251 0.06000
C 	C 	0.69311 0.62254 0.13720 0.03700
C 	C 	0.70432 0.60702 0.10115 -0.02900
C 	C 	0.78406 0.58904 0.08896 -0.08000
C 	C 	0.85598 0.58964 0.11275 0.02500
H 	H 	0.64988 0.60768 0.08272 0.04100
C 	C 	0.94507 0.57371 0.10042 -0.05200
H 	H 	0.55420 0.62099 0.13192 0.03900
H 	H 	0.60714 0.70917 0.11975 0.05200
C 	C 	0.95624 0.51698 0.10237 -0.20100
H 	H 	0.99489 0.59124 0.11803 0.02100
H 	H 	0.95980 0.58733 0.07276 0.01800
H 	H 	0.94217 0.50303 0.13013 0.05600
H 	H 	0.02378 0.50753 0.09552 0.08200
H 	H 	0.91348 0.49790 0.08265 0.04600
C 	C 	0.77569 0.37885 0.09043 -0.08500
C 	C 	0.75751 0.40786 0.12177 0.03300
C 	C 	0.79164 0.30429 0.12815 0.03300
C 	C 	0.79197 0.32739 0.09403 -0.02900
H 	H 	0.80601 0.30514 0.07014 0.04400
C 	C 	0.73443 0.46286 0.11937 -0.06600
C 	C 	0.81473 0.24929 0.13054 -0.06900
C 	C 	0.63690 0.46998 0.11753 -0.13600
H 	H 	0.76558 0.48083 0.09589 0.04600
H 	H 	0.60951 0.45024 0.09368 0.06500
H 	H 	0.62164 0.51051 0.11521 0.06100
C 	C 	0.91227 0.24218 0.13239 -0.13100
H 	H 	0.78984 0.22907 0.10633 0.04200
H 	H 	0.94318 0.25690 0.10739 0.04600
H 	H 	0.92754 0.20165 0.13472 0.05400
Co	Co	0.92147 0.92946 0.00041 1.17000
Co	Co	0.92147 0.42946 0.00041 1.17100
Co	Co	0.13194 0.03404 0.00014 1.18700
Co	Co	0.13194 0.53404 0.00014 1.18400
H 	H 	0.37163 0.17751 0.13916 0.02700
H 	H 	0.37163 0.67751 0.13916 0.02700
H 	H 	0.60599 0.95525 0.14253 0.05900
H 	H 	0.60599 0.45525 0.14253 0.05800
C 	C 	0.42607 0.79637 0.14350 -0.06400
H 	H 	0.75935 0.98309 0.14358 0.03800
C 	C 	0.42607 0.29637 0.14350 -0.06400
H 	H 	0.75935 0.48309 0.14358 0.04100
C 	C 	0.59295 0.19526 0.14750 -0.13900
C 	C 	0.59295 0.69526 0.14750 -0.13900
C 	C 	0.84477 0.10515 0.14880 -0.02300
C 	C 	0.84477 0.60515 0.14880 -0.02300
C 	C 	0.20698 0.86252 0.14998 -0.02500
C 	C 	0.60404 0.13853 0.14951 -0.07500
C 	C 	0.20698 0.36252 0.14998 -0.02500
C 	C 	0.60404 0.63853 0.14951 -0.07500
C 	C 	0.21856 0.08695 0.15202 0.05100
C 	C 	0.21856 0.58695 0.15202 0.05000
H 	H 	0.52539 0.20476 0.15430 0.04300
H 	H 	0.78358 0.73131 0.15402 0.04800
H 	H 	0.52539 0.70476 0.15430 0.04300
H 	H 	0.78358 0.23131 0.15402 0.04800
C 	C 	0.50078 0.83007 0.15514 -0.14500
C 	C 	0.75718 0.88477 0.15588 -0.02900
C 	C 	0.50078 0.33007 0.15514 -0.14500
C 	C 	0.75718 0.38477 0.15588 -0.02900
H 	H 	0.93965 0.76194 0.15624 0.05500
H 	H 	0.93965 0.26194 0.15624 0.05500
C 	C 	0.27475 0.12736 0.16001 -0.08400
C 	C 	0.27920 0.83398 0.15957 -0.07800
C 	C 	0.77346 0.83330 0.15948 -0.08600
C 	C 	0.27475 0.62736 0.16001 -0.08300
C 	C 	0.27920 0.33398 0.15957 -0.07800
C 	C 	0.77346 0.33330 0.15948 -0.08500
H 	H 	0.55694 0.80660 0.16284 0.04300
C 	C 	0.76502 0.12311 0.16100 -0.08500
H 	H 	0.55694 0.30660 0.16284 0.04300
C 	C 	0.76502 0.62311 0.16100 -0.08600
H 	H 	0.41281 0.76837 0.16505 0.02200
H 	H 	0.41281 0.26837 0.16505 0.02200
H 	H 	0.89922 0.10450 0.16723 0.03500
H 	H 	0.63566 0.21436 0.16724 0.03900
H 	H 	0.89922 0.60450 0.16723 0.03400
H 	H 	0.63566 0.71436 0.16724 0.03900
H 	H 	0.10135 0.04901 0.16797 0.04800
H 	H 	0.10135 0.54901 0.16797 0.04600
H 	H 	0.15530 0.86776 0.16941 0.04600
H 	H 	0.15530 0.36776 0.16941 0.04600
H 	H 	0.58928 0.12497 0.17719 0.03500
H 	H 	0.58928 0.62497 0.17719 0.03400
H 	H 	0.48224 0.85336 0.17883 0.05800
H 	H 	0.48224 0.35336 0.17883 0.05800
H 	H 	0.74313 0.90701 0.17978 0.04400
H 	H 	0.74313 0.40701 0.17978 0.04500
C 	C 	0.16087 0.06407 0.18078 -0.07500
H 	H 	0.22523 0.99144 0.18102 0.05200
C 	C 	0.16087 0.56407 0.18078 -0.07200
H 	H 	0.22523 0.49144 0.18102 0.05800
C 	C 	0.28363 0.31187 0.19602 0.29200
C 	C 	0.76414 0.30993 0.19564 0.28900
C 	C 	0.28363 0.81187 0.19602 0.29200
C 	C 	0.76414 0.80993 0.19564 0.28900
C 	C 	0.76028 0.14715 0.19709 0.29100
C 	C 	0.27995 0.14900 0.19662 0.29300
C 	C 	0.76028 0.64715 0.19709 0.29100
C 	C 	0.27995 0.64900 0.19662 0.29300
C 	C 	0.20645 0.02132 0.20048 -0.12800
H 	H 	0.13892 0.09239 0.20077 0.05800
C 	C 	0.20645 0.52132 0.20048 -0.13700
H 	H 	0.13892 0.59239 0.20077 0.05800
O 	O 	0.21796 0.28496 0.20780 -0.38100
O 	O 	0.82526 0.17555 0.20787 -0.39300
O 	O 	0.21796 0.78496 0.20780 -0.38100
O 	O 	0.82526 0.67555 0.20787 -0.39300
O 	O 	0.82917 0.28394 0.20888 -0.39300
O 	O 	0.21560 0.17674 0.20864 -0.38500
O 	O 	0.82917 0.78394 0.20888 -0.39400
O 	O 	0.21560 0.67674 0.20864 -0.38500
H 	H 	0.26478 0.03533 0.21467 0.06600
H 	H 	0.26478 0.53533 0.21467 0.06600
O 	O 	0.34118 0.32937 0.21893 -0.39600
O 	O 	0.70430 0.32754 0.21758 -0.39500
O 	O 	0.34118 0.82937 0.21893 -0.39600
O 	O 	0.70430 0.82753 0.21758 -0.39600
O 	O 	0.33902 0.13191 0.21904 -0.39900
O 	O 	0.70406 0.13030 0.22081 -0.39300
O 	O 	0.33902 0.63191 0.21904 -0.40000
O 	O 	0.70406 0.63030 0.22081 -0.39400
H 	H 	0.16215 0.00485 0.22087 0.05200
H 	H 	0.16215 0.50485 0.22087 0.05200
O 	O 	0.52202 0.23021 0.22984 -0.58200
O 	O 	0.52202 0.73021 0.22984 -0.58200
O 	O 	0.36525 0.23061 0.24059 -0.78200
O 	O 	0.67896 0.22976 0.24083 -0.78400
O 	O 	0.36525 0.73061 0.24059 -0.78200
O 	O 	0.67896 0.72976 0.24083 -0.78400
Co	Co	0.62732 0.28249 0.24965 1.18600
Co	Co	0.41692 0.17793 0.24962 1.18600
Co	Co	0.41844 0.28335 0.24985 1.18400
Co	Co	0.62566 0.17723 0.25028 1.18500
Co	Co	0.81412 0.22923 0.24879 1.15900
Co	Co	0.22988 0.23136 0.24849 1.16400
Co	Co	0.62732 0.78249 0.24965 1.18600
Co	Co	0.41692 0.67793 0.24962 1.18600
Co	Co	0.41844 0.78334 0.24985 1.18300
Co	Co	0.62566 0.67723 0.25028 1.18500
Co	Co	0.81412 0.72923 0.24879 1.15900
Co	Co	0.22988 0.73136 0.24849 1.16400
O 	O 	0.52363 0.32719 0.25485 -0.48100
O 	O 	0.52363 0.82719 0.25485 -0.48200
O 	O 	0.52057 0.13347 0.25598 -0.48000
H 	H 	0.20177 0.93693 0.26420 0.05400
O 	O 	0.52057 0.63347 0.25598 -0.48100
H 	H 	0.20177 0.43693 0.26420 0.05600
H 	H 	0.09593 0.05562 0.27482 0.05800
H 	H 	0.09593 0.55562 0.27482 0.05700
H 	H 	0.16434 0.87994 0.28513 0.07400
H 	H 	0.16434 0.37994 0.28513 0.07400
H 	H 	0.24861 0.07929 0.28274 0.04900
C 	C 	0.19736 0.91619 0.29021 -0.14000
H 	H 	0.24861 0.57929 0.28274 0.04900
C 	C 	0.19736 0.41619 0.29021 -0.14000
C 	C 	0.29630 0.29667 0.31052 0.30200
C 	C 	0.74792 0.16550 0.31093 0.30000
O 	O 	0.23242 0.28880 0.28753 -0.39900
O 	O 	0.37568 0.28382 0.30238 -0.41300
O 	O 	0.81072 0.17159 0.28725 -0.40800
O 	O 	0.66839 0.17804 0.30276 -0.41400
C 	C 	0.29560 0.16515 0.31039 0.30200
O 	O 	0.22985 0.17561 0.28887 -0.40100
O 	O 	0.37419 0.17903 0.30208 -0.41400
O 	O 	0.81270 0.28547 0.28874 -0.40800
O 	O 	0.66841 0.28319 0.30237 -0.41400
C 	C 	0.21265 0.06443 0.30642 -0.06700
C 	C 	0.11616 0.07250 0.30098 -0.13800
H 	H 	0.22560 0.02349 0.30662 0.03800
H 	H 	0.10074 0.11312 0.30040 0.06800
C 	C 	0.28781 0.90761 0.30524 -0.06500
H 	H 	0.32700 0.88672 0.28510 0.04400
H 	H 	0.32001 0.94458 0.30865 0.03700
H 	H 	0.15826 0.93862 0.30954 0.05600
C 	C 	0.29630 0.79667 0.31052 0.30100
C 	C 	0.74792 0.66550 0.31093 0.30000
O 	O 	0.23242 0.78880 0.28753 -0.39900
O 	O 	0.37568 0.78382 0.30238 -0.41300
O 	O 	0.81072 0.67159 0.28725 -0.40800
O 	O 	0.66839 0.67804 0.30276 -0.41400
C 	C 	0.29560 0.66515 0.31039 0.30200
O 	O 	0.22985 0.67561 0.28887 -0.40100
O 	O 	0.37419 0.67903 0.30208 -0.41400
O 	O 	0.81270 0.78547 0.28874 -0.40800
O 	O 	0.66841 0.78319 0.30237 -0.41500
C 	C 	0.21265 0.56443 0.30642 -0.06700
C 	C 	0.11616 0.57250 0.30098 -0.13800
H 	H 	0.22560 0.52349 0.30662 0.03600
H 	H 	0.10074 0.61312 0.30040 0.06800
C 	C 	0.28781 0.40761 0.30524 -0.06500
H 	H 	0.32700 0.38672 0.28510 0.04500
H 	H 	0.32001 0.44458 0.30865 0.03900
H 	H 	0.15826 0.43862 0.30954 0.05800
C 	C 	0.74815 0.29411 0.31140 0.29900
C 	C 	0.28182 0.13522 0.34338 -0.08700
C 	C 	0.24301 0.08715 0.34189 0.04100
H 	H 	0.07911 0.05432 0.32316 0.06200
C 	C 	0.81461 0.86757 0.34200 -0.02700
C 	C 	0.76387 0.82416 0.34459 -0.08900
H 	H 	0.84465 0.87706 0.31636 0.03800
H 	H 	0.85942 0.96477 0.33986 0.03100
H 	H 	0.99214 0.91354 0.34522 0.05200
C 	C 	0.71025 0.09346 0.34989 -0.02800
C 	C 	0.76320 0.13517 0.34355 -0.08300
H 	H 	0.66059 0.08375 0.33042 0.04100
C 	C 	0.97230 0.17650 0.34649 -0.25500
H 	H 	0.85678 0.22204 0.34619 0.03300
H 	H 	0.01374 0.20990 0.34203 0.10300
H 	H 	0.96138 0.15778 0.32001 0.07000
C 	C 	0.28113 0.82738 0.34301 -0.08300
C 	C 	0.28421 0.88040 0.34127 0.04000
C 	C 	0.74815 0.79411 0.31140 0.29900
C 	C 	0.28182 0.63521 0.34338 -0.08700
C 	C 	0.24301 0.58714 0.34189 0.04000
H 	H 	0.07911 0.55432 0.32316 0.06000
C 	C 	0.81461 0.36757 0.34200 -0.02700
C 	C 	0.76387 0.32416 0.34459 -0.08900
H 	H 	0.84465 0.37706 0.31636 0.03900
H 	H 	0.85942 0.46477 0.33986 0.03200
H 	H 	0.99214 0.41354 0.34522 0.05300
C 	C 	0.71025 0.59345 0.34989 -0.03000
C 	C 	0.76320 0.63518 0.34355 -0.08200
H 	H 	0.66059 0.58375 0.33042 0.04100
C 	C 	0.97230 0.67650 0.34649 -0.25700
H 	H 	0.85678 0.72204 0.34619 0.03300
H 	H 	0.01374 0.70990 0.34203 0.10400
H 	H 	0.96138 0.65778 0.32001 0.07000
C 	C 	0.28113 0.32738 0.34301 -0.08300
C 	C 	0.28421 0.38040 0.34127 0.04000
C 	C 	0.23380 0.05927 0.37389 -0.02600
H 	H 	0.19985 0.02373 0.37318 0.04400
C 	C 	0.82436 0.90005 0.37172 0.03400
C 	C 	0.87543 0.94805 0.36663 -0.05400
C 	C 	0.97238 0.93822 0.36802 -0.18900
H 	H 	0.00772 0.97431 0.36560 0.09200
H 	H 	0.69007 0.73522 0.36298 0.05800
H 	H 	0.55746 0.79198 0.35578 0.06800
C 	C 	0.82769 0.14819 0.36902 0.02400
C 	C 	0.88685 0.19277 0.36329 -0.03200
H 	H 	0.64814 0.00110 0.36026 0.04300
H 	H 	0.00671 0.15022 0.36484 0.11000
C 	C 	0.27860 0.90849 0.37338 -0.02400
C 	C 	0.27141 0.80355 0.37657 -0.02600
H 	H 	0.28122 0.94904 0.37217 0.03400
C 	C 	0.23380 0.55927 0.37389 -0.02600
H 	H 	0.19985 0.52373 0.37318 0.04200
C 	C 	0.82436 0.40005 0.37172 0.03500
C 	C 	0.87543 0.44805 0.36663 -0.05400
C 	C 	0.97238 0.43822 0.36802 -0.18900
H 	H 	0.00772 0.47431 0.36560 0.09400
H 	H 	0.69007 0.23522 0.36298 0.05800
H 	H 	0.55746 0.29198 0.35578 0.06800
C 	C 	0.82769 0.64819 0.36902 0.02300
C 	C 	0.88685 0.69277 0.36329 -0.03100
H 	H 	0.64814 0.50110 0.36026 0.04200
H 	H 	0.00671 0.65022 0.36484 0.11100
C 	C 	0.27860 0.40849 0.37338 -0.02400
C 	C 	0.27141 0.30355 0.37657 -0.02500
H 	H 	0.28122 0.44904 0.37217 0.03600
C 	C 	0.31567 0.15280 0.37625 -0.02700
H 	H 	0.34972 0.18831 0.37694 0.04000
C 	C 	0.72388 0.81207 0.37812 0.04300
C 	C 	0.67275 0.76409 0.38321 -0.07200
H 	H 	0.85815 0.97689 0.38689 0.04800
H 	H 	0.99082 0.92015 0.39399 0.06600
C 	C 	0.72085 0.06397 0.38099 0.04100
C 	C 	0.66163 0.01942 0.38674 -0.06100
H 	H 	0.54186 0.06206 0.38530 0.05900
H 	H 	0.26872 0.76301 0.37778 0.03700
C 	C 	0.31567 0.65280 0.37625 -0.02700
H 	H 	0.34972 0.68831 0.37694 0.04000
C 	C 	0.72388 0.31207 0.37812 0.04300
C 	C 	0.67275 0.26409 0.38321 -0.07200
H 	H 	0.85815 0.47689 0.38689 0.05000
H 	H 	0.99082 0.42015 0.39399 0.06700
C 	C 	0.72085 0.56397 0.38099 0.04300
C 	C 	0.66163 0.51942 0.38674 -0.07100
H 	H 	0.54186 0.56206 0.38530 0.05800
H 	H 	0.26872 0.26301 0.37778 0.03700
C 	C 	0.57581 0.77395 0.38177 -0.13300
C 	C 	0.57581 0.27395 0.38177 -0.13300
H 	H 	0.54043 0.73788 0.38420 0.05500
C 	C 	0.83828 0.11871 0.40012 -0.02100
H 	H 	0.90021 0.21112 0.38978 0.02500
H 	H 	0.54043 0.23788 0.38420 0.05500
C 	C 	0.83828 0.61871 0.40012 -0.02000
H 	H 	0.90021 0.71112 0.38978 0.02500
C 	C 	0.26752 0.07689 0.40676 -0.08600
C 	C 	0.30638 0.12495 0.40825 0.04100
C 	C 	0.78441 0.88795 0.40526 -0.08500
C 	C 	0.73362 0.84455 0.40785 -0.03100
C 	C 	0.78538 0.07696 0.40645 -0.09200
C 	C 	0.57629 0.03572 0.40361 -0.14000
H 	H 	0.69172 0.99012 0.40381 0.03900
H 	H 	0.53478 0.00234 0.40806 0.05400
C 	C 	0.26883 0.88466 0.40694 -0.08500
C 	C 	0.26582 0.83164 0.40868 0.04300
C 	C 	0.26752 0.57689 0.40676 -0.08700
C 	C 	0.30638 0.62495 0.40825 0.04100
C 	C 	0.78441 0.38795 0.40526 -0.08500
C 	C 	0.73362 0.34455 0.40785 -0.03100
C 	C 	0.78538 0.57696 0.40645 -0.09400
C 	C 	0.57629 0.53572 0.40361 -0.13600
H 	H 	0.69172 0.49012 0.40381 0.04600
H 	H 	0.53478 0.50234 0.40806 0.05000
C 	C 	0.26883 0.38466 0.40694 -0.08400
C 	C 	0.26582 0.33164 0.40868 0.04300
H 	H 	0.55601 0.79867 0.40453 0.05400
H 	H 	0.55601 0.29867 0.40453 0.05400
C 	C 	0.80081 0.04657 0.43903 0.30500
O 	O 	0.31691 0.92327 0.46251 -0.40500
C 	C 	0.25328 0.91536 0.43941 0.30100
C 	C 	0.25352 0.04702 0.43977 0.30300
C 	C 	0.80027 0.91794 0.43846 0.29800
O 	O 	0.17379 0.92815 0.44740 -0.40800
O 	O 	0.73575 0.92671 0.46112 -0.40300
O 	O 	0.88005 0.92878 0.44748 -0.42200
O 	O 	0.31912 0.03657 0.46137 -0.40300
O 	O 	0.17489 0.03308 0.44797 -0.41000
O 	O 	0.73814 0.04051 0.46277 -0.40200
O 	O 	0.88037 0.03400 0.44710 -0.42300
C 	C 	0.33668 0.14769 0.44372 -0.06900
C 	C 	0.43312 0.13954 0.44923 -0.13400
H 	H 	0.30058 0.13289 0.46739 0.05000
H 	H 	0.32385 0.18864 0.44349 0.03700
H 	H 	0.44841 0.09890 0.44990 0.06100
H 	H 	0.45332 0.15649 0.47537 0.05000
H 	H 	0.47030 0.15759 0.42704 0.05200
H 	H 	0.70357 0.83507 0.43349 0.04300
H 	H 	0.68866 0.74739 0.41001 0.04100
H 	H 	0.88793 0.12842 0.41960 0.03000
H 	H 	0.58735 0.05438 0.43010 0.05900
C 	C 	0.26231 0.80444 0.44471 -0.06800
C 	C 	0.35280 0.79590 0.45972 -0.13700
H 	H 	0.23015 0.76745 0.44132 0.04300
H 	H 	0.22314 0.82530 0.46487 0.04800
H 	H 	0.39185 0.77343 0.44039 0.05100
H 	H 	0.38582 0.83217 0.46474 0.06700
C 	C 	0.80081 0.54657 0.43903 0.30500
O 	O 	0.31691 0.42327 0.46251 -0.40300
C 	C 	0.25328 0.41536 0.43941 0.30200
C 	C 	0.25352 0.54702 0.43977 0.30300
C 	C 	0.80027 0.41794 0.43846 0.29800
O 	O 	0.17379 0.42815 0.44740 -0.40700
O 	O 	0.73575 0.42671 0.46112 -0.40200
O 	O 	0.88005 0.42879 0.44748 -0.42100
O 	O 	0.31912 0.53657 0.46137 -0.40600
O 	O 	0.17489 0.53308 0.44797 -0.41300
O 	O 	0.73814 0.54051 0.46277 -0.40400
O 	O 	0.88037 0.53400 0.44710 -0.42700
C 	C 	0.33668 0.64769 0.44372 -0.07000
C 	C 	0.43312 0.63954 0.44923 -0.13400
H 	H 	0.30058 0.63289 0.46739 0.05000
H 	H 	0.32385 0.68864 0.44349 0.03700
H 	H 	0.44841 0.59890 0.44990 0.06000
H 	H 	0.45332 0.65649 0.47537 0.05000
H 	H 	0.47030 0.65759 0.42704 0.05200
H 	H 	0.70357 0.33507 0.43349 0.04300
H 	H 	0.68866 0.24739 0.41001 0.04100
H 	H 	0.88793 0.62842 0.41960 0.03000
H 	H 	0.58734 0.55438 0.43010 0.05700
C 	C 	0.26231 0.30444 0.44471 -0.06700
C 	C 	0.35280 0.29590 0.45972 -0.13700
H 	H 	0.23015 0.26745 0.44132 0.04300
H 	H 	0.22314 0.32530 0.46487 0.04800
H 	H 	0.39185 0.27343 0.44039 0.05100
H 	H 	0.38582 0.33217 0.46474 0.06700
Co	Co	0.92147 0.92946 0.50041 1.17300
Co	Co	0.13194 0.03404 0.50014 1.19000
Co	Co	0.13045 0.92873 0.49993 1.18500
Co	Co	0.92330 0.03469 0.49935 1.17500
O 	O 	0.02525 0.88490 0.49485 -0.45800
O 	O 	0.02834 0.07858 0.49398 -0.45700
H 	H 	0.34848 0.77522 0.48575 0.05300
Co	Co	0.92147 0.42946 0.50041 1.17300
Co	Co	0.13194 0.53404 0.50014 1.18700
Co	Co	0.13045 0.42873 0.49993 1.18500
Co	Co	0.92330 0.53469 0.49935 1.17200
O 	O 	0.02525 0.38490 0.49485 -0.45800
O 	O 	0.02834 0.57858 0.49398 -0.45700
H 	H 	0.34848 0.27522 0.48575 0.05300
Co	Co	0.73472 0.98287 0.50140 1.15900
Co	Co	0.31897 0.98071 0.50139 1.15900
O 	O 	0.18360 0.98142 0.50934 -0.78500
O 	O 	0.02686 0.98181 0.52001 -0.56400
O 	O 	0.33038 0.92713 0.54226 -0.38800
O 	O 	0.20718 0.88279 0.53100 -0.39500
O 	O 	0.72366 0.03661 0.54211 -0.38500
O 	O 	0.84500 0.08174 0.52915 -0.39500
O 	O 	0.86996 0.98228 0.50906 -0.79400
O 	O 	0.33306 0.03524 0.54159 -0.38600
O 	O 	0.20977 0.08018 0.53111 -0.39300
O 	O 	0.71984 0.92810 0.54101 -0.39100
O 	O 	0.84484 0.88461 0.53234 -0.40400
C 	C 	0.34218 0.19077 0.54969 -0.13900
H 	H 	0.40971 0.11970 0.54939 0.05100
H 	H 	0.28382 0.17676 0.53551 0.06900
H 	H 	0.38646 0.20723 0.52928 0.04900
Co	Co	0.73472 0.48287 0.50140 1.16200
Co	Co	0.31897 0.48071 0.50139 1.16200
O 	O 	0.18360 0.48142 0.50934 -0.78100
O 	O 	0.02686 0.48181 0.52001 -0.56100
O 	O 	0.33038 0.42713 0.54226 -0.38600
O 	O 	0.20718 0.38279 0.53100 -0.39500
O 	O 	0.72366 0.53661 0.54211 -0.38900
O 	O 	0.84500 0.58174 0.52915 -0.39600
O 	O 	0.86996 0.48228 0.50906 -0.79100
O 	O 	0.33306 0.53524 0.54159 -0.38900
O 	O 	0.20977 0.58018 0.53111 -0.39400
O 	O 	0.71984 0.42810 0.54101 -0.39000
O 	O 	0.84484 0.38461 0.53234 -0.40300
C 	C 	0.34218 0.69077 0.54969 -0.13900
H 	H 	0.40971 0.61970 0.54939 0.05100
H 	H 	0.28382 0.67676 0.53551 0.06900
H 	H 	0.38646 0.70723 0.52928 0.04900
C 	C 	0.78500 0.90222 0.55428 0.29000
C 	C 	0.26462 0.90026 0.55397 0.29400
C 	C 	0.78876 0.06494 0.55288 0.29000
C 	C 	0.26875 0.06307 0.55355 0.29200
C 	C 	0.38778 0.14802 0.56939 -0.06900
H 	H 	0.44730 0.16309 0.58219 0.03600
H 	H 	0.32343 0.22066 0.56915 0.06000
H 	H 	0.39280 0.84423 0.58055 0.04000
H 	H 	0.06592 0.85875 0.57105 0.05400
H 	H 	0.64988 0.10768 0.58273 0.04200
H 	H 	0.95980 0.08733 0.57276 0.02000
H 	H 	0.80601 0.80514 0.57014 0.04500
C 	C 	0.78500 0.40222 0.55428 0.29000
C 	C 	0.26462 0.40026 0.55397 0.29400
C 	C 	0.78876 0.56494 0.55288 0.28900
C 	C 	0.26875 0.56307 0.55355 0.29200
C 	C 	0.38778 0.64802 0.56939 -0.06900
H 	H 	0.44730 0.66309 0.58219 0.03600
H 	H 	0.32343 0.72066 0.56915 0.06000
H 	H 	0.39280 0.34423 0.58055 0.04000
H 	H 	0.06592 0.35875 0.57105 0.05400
H 	H 	0.64988 0.60768 0.58273 0.04200
H 	H 	0.95980 0.58733 0.57276 0.01900
H 	H 	0.80601 0.30514 0.57014 0.04400
C 	C 	0.27391 0.08473 0.59016 -0.08100
C 	C 	0.33009 0.12514 0.59815 0.04500
C 	C 	0.26894 0.87805 0.59040 -0.08400
C 	C 	0.34113 0.84948 0.59998 -0.02000
H 	H 	0.13536 0.94367 0.58493 0.02800
H 	H 	0.99120 0.90545 0.58711 0.00200
C 	C 	0.70432 0.10702 0.60115 -0.02900
C 	C 	0.78406 0.08904 0.58896 -0.07900
H 	H 	0.91348 0.99790 0.58265 0.04000
C 	C 	0.77569 0.87885 0.59043 -0.08400
C 	C 	0.79197 0.82739 0.59403 -0.03000
H 	H 	0.76558 0.98083 0.59589 0.04300
H 	H 	0.60951 0.95024 0.59368 0.06700
H 	H 	0.78984 0.72907 0.60633 0.04300
H 	H 	0.94318 0.75690 0.60739 0.04700
C 	C 	0.27391 0.58473 0.59016 -0.08200
C 	C 	0.33009 0.62514 0.59815 0.04500
C 	C 	0.26894 0.37805 0.59040 -0.08400
C 	C 	0.34113 0.34948 0.59998 -0.02000
H 	H 	0.13536 0.44367 0.58493 0.02900
H 	H 	0.99120 0.40545 0.58711 0.00300
C 	C 	0.70432 0.60702 0.60115 -0.02900
C 	C 	0.78406 0.58904 0.58896 -0.07900
H 	H 	0.91348 0.49790 0.58265 0.04700
C 	C 	0.77569 0.37885 0.59043 -0.08500
C 	C 	0.79197 0.32739 0.59403 -0.03000
H 	H 	0.76557 0.48083 0.59589 0.04600
H 	H 	0.60951 0.45024 0.59368 0.06600
H 	H 	0.78984 0.22907 0.60633 0.04300
H 	H 	0.94318 0.25690 0.60739 0.04700
C 	C 	0.21920 0.06589 0.61714 -0.03000
H 	H 	0.17707 0.03456 0.61102 0.03100
C 	C 	0.20124 0.88493 0.61568 0.04100
C 	C 	0.12206 0.91564 0.60646 -0.08300
C 	C 	0.04737 0.88197 0.59477 -0.08800
H 	H 	0.44627 0.77446 0.61929 0.03400
H 	H 	0.52040 0.85508 0.63251 0.06000
C 	C 	0.85597 0.08964 0.61275 0.02700
C 	C 	0.94507 0.07371 0.60042 -0.05500
H 	H 	0.55420 0.12099 0.63192 0.04000
H 	H 	0.60714 0.20917 0.61975 0.05200
C 	C 	0.95624 0.01698 0.60237 -0.19000
H 	H 	0.99489 0.09124 0.61803 0.02200
H 	H 	0.02378 0.00753 0.59552 0.08100
C 	C 	0.75751 0.90786 0.62177 0.03100
C 	C 	0.79164 0.80429 0.62815 0.03400
C 	C 	0.73443 0.96286 0.61937 -0.06200
C 	C 	0.81473 0.74930 0.63054 -0.07000
C 	C 	0.63690 0.96998 0.61753 -0.14700
H 	H 	0.62164 0.01051 0.61521 0.06800
C 	C 	0.91227 0.74218 0.63238 -0.13100
H 	H 	0.92754 0.70165 0.63472 0.05400
C 	C 	0.21920 0.56589 0.61714 -0.02900
H 	H 	0.17707 0.53456 0.61102 0.02900
C 	C 	0.20124 0.38493 0.61568 0.04200
C 	C 	0.12206 0.41564 0.60646 -0.08300
C 	C 	0.04737 0.38197 0.59477 -0.08800
H 	H 	0.44627 0.27446 0.61929 0.03400
H 	H 	0.52040 0.35508 0.63251 0.06000
C 	C 	0.85597 0.58964 0.61275 0.02500
C 	C 	0.94507 0.57371 0.60042 -0.05200
H 	H 	0.55420 0.62099 0.63192 0.03900
H 	H 	0.60714 0.70917 0.61975 0.05200
C 	C 	0.95624 0.51698 0.60237 -0.20100
H 	H 	0.99489 0.59124 0.61803 0.02100
H 	H 	0.02378 0.50753 0.59552 0.08200
C 	C 	0.75751 0.40786 0.62177 0.03300
C 	C 	0.79164 0.30429 0.62815 0.03400
C 	C 	0.73443 0.46286 0.61937 -0.06600
C 	C 	0.81473 0.24929 0.63054 -0.06900
C 	C 	0.63690 0.46999 0.61753 -0.13600
H 	H 	0.62164 0.51051 0.61521 0.06100
C 	C 	0.91227 0.24218 0.63238 -0.13100
H 	H 	0.92754 0.20165 0.63472 0.05400
C 	C 	0.32947 0.14619 0.63303 -0.02900
H 	H 	0.37163 0.17751 0.63916 0.02700
C 	C 	0.34687 0.82708 0.63428 0.03300
C 	C 	0.42607 0.79637 0.64350 -0.06500
H 	H 	0.02776 0.85689 0.61737 0.06200
C 	C 	0.69311 0.12254 0.63720 0.03700
H 	H 	0.94217 0.00303 0.63013 0.05700
C 	C 	0.32947 0.64619 0.63303 -0.02900
H 	H 	0.37164 0.67751 0.63916 0.02700
C 	C 	0.34687 0.32708 0.63428 0.03300
C 	C 	0.42607 0.29637 0.64350 -0.06400
H 	H 	0.02776 0.35689 0.61737 0.06200
C 	C 	0.69312 0.62254 0.63720 0.03700
H 	H 	0.94217 0.50303 0.63013 0.05600
C 	C 	0.50078 0.83007 0.65514 -0.14500
H 	H 	0.55694 0.80660 0.66284 0.04300
C 	C 	0.59295 0.19526 0.64750 -0.13900
C 	C 	0.50078 0.33007 0.65514 -0.14500
H 	H 	0.55694 0.30660 0.66284 0.04300
C 	C 	0.59295 0.69526 0.64750 -0.13900
H 	H 	0.09593 0.05562 0.77482 0.05800
H 	H 	0.16434 0.87994 0.78513 0.07300
H 	H 	0.20177 0.93693 0.76420 0.05400
Co	Co	0.62732 0.28249 0.74965 1.18600
Co	Co	0.41692 0.17793 0.74962 1.18600
Co	Co	0.41844 0.28335 0.74985 1.18400
Co	Co	0.62566 0.17723 0.75028 1.18500
Co	Co	0.81412 0.22923 0.74879 1.15900
Co	Co	0.22988 0.23136 0.74849 1.16400
C 	C 	0.76028 0.14715 0.69709 0.29100
O 	O 	0.21796 0.28496 0.70780 -0.38100
O 	O 	0.36525 0.23061 0.74059 -0.78200
C 	C 	0.28363 0.31187 0.69602 0.29200
O 	O 	0.52363 0.32719 0.75485 -0.48100
O 	O 	0.52057 0.13347 0.75597 -0.48000
C 	C 	0.27995 0.14900 0.69662 0.29300
O 	O 	0.52202 0.23021 0.72984 -0.58200
C 	C 	0.76414 0.30993 0.69564 0.28900
O 	O 	0.34118 0.32937 0.71893 -0.39600
O 	O 	0.82917 0.28394 0.70888 -0.39400
O 	O 	0.70430 0.32754 0.71758 -0.39500
O 	O 	0.21560 0.17674 0.70864 -0.38500
O 	O 	0.33902 0.13191 0.71904 -0.39900
O 	O 	0.67896 0.22976 0.74083 -0.78400
O 	O 	0.82526 0.17555 0.70787 -0.39300
O 	O 	0.70406 0.13030 0.72081 -0.39300
C 	C 	0.27475 0.12736 0.66001 -0.08400
C 	C 	0.21856 0.08695 0.65202 0.05100
C 	C 	0.16087 0.06407 0.68078 -0.07500
C 	C 	0.20645 0.02132 0.70048 -0.12800
H 	H 	0.10135 0.04901 0.66797 0.04800
H 	H 	0.13892 0.09239 0.70077 0.05800
H 	H 	0.22523 0.99144 0.68102 0.05200
H 	H 	0.16215 0.00485 0.72087 0.05200
H 	H 	0.26478 0.03533 0.71467 0.06600
C 	C 	0.20698 0.86252 0.64998 -0.02500
C 	C 	0.27920 0.83398 0.65957 -0.07800
H 	H 	0.15530 0.86776 0.66941 0.04600
H 	H 	0.10182 0.93752 0.63068 0.04300
H 	H 	0.41281 0.76837 0.66505 0.02200
H 	H 	0.48224 0.85336 0.67883 0.05800
C 	C 	0.76502 0.12311 0.66100 -0.08500
C 	C 	0.84477 0.10515 0.64880 -0.02300
H 	H 	0.89922 0.10450 0.66722 0.03400
C 	C 	0.60404 0.13853 0.64951 -0.07500
H 	H 	0.58928 0.12497 0.67719 0.03500
H 	H 	0.63566 0.21436 0.66724 0.03900
H 	H 	0.52539 0.20477 0.65430 0.04300
C 	C 	0.75718 0.88477 0.65588 -0.02800
C 	C 	0.77346 0.83330 0.65948 -0.08600
H 	H 	0.74313 0.90701 0.67978 0.04400
H 	H 	0.75935 0.98309 0.64358 0.03800
H 	H 	0.60599 0.95525 0.64253 0.05900
H 	H 	0.78358 0.73131 0.65402 0.04800
H 	H 	0.93965 0.76194 0.65624 0.05500
H 	H 	0.09593 0.55562 0.77482 0.05700
H 	H 	0.16434 0.37994 0.78513 0.07400
H 	H 	0.20177 0.43693 0.76420 0.05600
Co	Co	0.62732 0.78249 0.74965 1.18600
Co	Co	0.41692 0.67793 0.74962 1.18600
Co	Co	0.41844 0.78334 0.74985 1.18300
Co	Co	0.62566 0.67723 0.75028 1.18500
Co	Co	0.81412 0.72923 0.74879 1.15900
Co	Co	0.22988 0.73136 0.74849 1.16400
C 	C 	0.76028 0.64715 0.69709 0.29100
O 	O 	0.21796 0.78496 0.70780 -0.38100
O 	O 	0.36525 0.73061 0.74059 -0.78200
C 	C 	0.28363 0.81187 0.69602 0.29200
O 	O 	0.52363 0.82719 0.75485 -0.48200
O 	O 	0.52057 0.63347 0.75597 -0.48100
C 	C 	0.27995 0.64900 0.69662 0.29300
O 	O 	0.52202 0.73021 0.72984 -0.58200
C 	C 	0.76413 0.80993 0.69564 0.28900
O 	O 	0.34118 0.82937 0.71893 -0.39600
O 	O 	0.82917 0.78394 0.70888 -0.39400
O 	O 	0.70430 0.82753 0.71758 -0.39600
O 	O 	0.21560 0.67674 0.70864 -0.38500
O 	O 	0.33902 0.63191 0.71904 -0.40000
O 	O 	0.67896 0.72976 0.74083 -0.78400
O 	O 	0.82526 0.67555 0.70787 -0.39300
O 	O 	0.70406 0.63030 0.72081 -0.39400
C 	C 	0.27475 0.62736 0.66001 -0.08300
C 	C 	0.21856 0.58695 0.65202 0.05000
C 	C 	0.16087 0.56407 0.68078 -0.07200
C 	C 	0.20645 0.52132 0.70048 -0.13700
H 	H 	0.10135 0.54901 0.66797 0.04600
H 	H 	0.13892 0.59239 0.70077 0.05800
H 	H 	0.22523 0.49144 0.68102 0.05800
H 	H 	0.16215 0.50485 0.72087 0.05200
H 	H 	0.26478 0.53533 0.71467 0.06600
C 	C 	0.20698 0.36252 0.64998 -0.02500
C 	C 	0.27920 0.33398 0.65957 -0.07800
H 	H 	0.15530 0.36776 0.66941 0.04600
H 	H 	0.10182 0.43752 0.63068 0.04500
H 	H 	0.41281 0.26837 0.66505 0.02200
H 	H 	0.48224 0.35336 0.67883 0.05800
C 	C 	0.76502 0.62311 0.66100 -0.08600
C 	C 	0.84477 0.60515 0.64880 -0.02300
H 	H 	0.89922 0.60450 0.66722 0.03400
C 	C 	0.60404 0.63853 0.64951 -0.07500
H 	H 	0.58928 0.62497 0.67719 0.03400
H 	H 	0.63566 0.71436 0.66724 0.03900
H 	H 	0.52539 0.70477 0.65430 0.04300
C 	C 	0.75718 0.38477 0.65588 -0.02900
C 	C 	0.77346 0.33331 0.65948 -0.08600
H 	H 	0.74313 0.40701 0.67978 0.04500
H 	H 	0.75935 0.48309 0.64358 0.04100
H 	H 	0.60599 0.45525 0.64253 0.05800
H 	H 	0.78358 0.23131 0.65402 0.04800
H 	H 	0.93965 0.26194 0.65624 0.05500
H 	H 	0.34848 0.77522 0.98575 0.05600
H 	H 	0.34848 0.27522 0.98575 0.05600
H 	H 	0.22560 0.02349 0.80662 0.03800
H 	H 	0.24861 0.07929 0.78274 0.04900
C 	C 	0.19736 0.91619 0.79021 -0.14000
H 	H 	0.32700 0.88672 0.78511 0.04400
H 	H 	0.15826 0.93862 0.80954 0.05600
O 	O 	0.23242 0.28880 0.78753 -0.39900
O 	O 	0.81071 0.17159 0.78725 -0.40800
O 	O 	0.22985 0.17561 0.78887 -0.40100
O 	O 	0.81270 0.28547 0.78874 -0.40800
H 	H 	0.22560 0.52349 0.80662 0.03600
H 	H 	0.24861 0.57929 0.78274 0.04900
C 	C 	0.19736 0.41619 0.79021 -0.14000
H 	H 	0.32700 0.38672 0.78511 0.04500
H 	H 	0.15826 0.43862 0.80954 0.05800
O 	O 	0.23242 0.78880 0.78753 -0.39900
O 	O 	0.81071 0.67159 0.78725 -0.40800
O 	O 	0.22985 0.67561 0.78887 -0.40100
O 	O 	0.81270 0.78547 0.78874 -0.40800
C 	C 	0.11616 0.07250 0.80098 -0.13800
C 	C 	0.11616 0.57250 0.80098 -0.13800
Co	Co	0.13045 0.92873 0.99993 1.18900
Co	Co	0.92330 0.03469 0.99935 1.17900
C 	C 	0.80081 0.04657 0.93903 0.30500
O 	O 	0.31691 0.92327 0.96251 -0.40100
C 	C 	0.25328 0.91536 0.93941 0.30100
O 	O 	0.02525 0.88490 0.99485 -0.45300
O 	O 	0.02834 0.07858 0.99398 -0.45200
C 	C 	0.25352 0.04702 0.93977 0.30200
C 	C 	0.80027 0.91794 0.93846 0.29700
O 	O 	0.17379 0.92815 0.94740 -0.40700
O 	O 	0.73575 0.92671 0.96112 -0.39900
O 	O 	0.88005 0.92878 0.94748 -0.41900
O 	O 	0.31912 0.03657 0.96137 -0.40000
O 	O 	0.17489 0.03308 0.94797 -0.40800
O 	O 	0.73814 0.04051 0.96277 -0.39800
O 	O 	0.88037 0.03400 0.94710 -0.42200
C 	C 	0.26752 0.07689 0.90677 -0.08600
C 	C 	0.30638 0.12495 0.90825 0.04100
C 	C 	0.31567 0.15280 0.87625 -0.02700
C 	C 	0.28182 0.13522 0.84338 -0.08700
C 	C 	0.24301 0.08715 0.84189 0.04100
C 	C 	0.23380 0.05927 0.87389 -0.02700
H 	H 	0.34972 0.18831 0.87694 0.04000
H 	H 	0.19985 0.02373 0.87318 0.04400
C 	C 	0.33668 0.14769 0.94372 -0.06900
C 	C 	0.21265 0.06443 0.80642 -0.06700
C 	C 	0.43312 0.13954 0.94923 -0.13400
H 	H 	0.30058 0.13289 0.96739 0.05200
H 	H 	0.32385 0.18864 0.94349 0.03800
H 	H 	0.44841 0.09890 0.94990 0.06200
H 	H 	0.45332 0.15649 0.97537 0.05200
H 	H 	0.47030 0.15759 0.92704 0.05300
H 	H 	0.07911 0.05432 0.82316 0.06200
H 	H 	0.10074 0.11312 0.80040 0.06800
C 	C 	0.78441 0.88795 0.90526 -0.08400
C 	C 	0.82436 0.90005 0.87172 0.03400
C 	C 	0.81461 0.86757 0.84200 -0.02600
C 	C 	0.76387 0.82416 0.84459 -0.08900
C 	C 	0.72388 0.81207 0.87812 0.04300
C 	C 	0.73362 0.84455 0.90785 -0.03100
H 	H 	0.84465 0.87706 0.81636 0.03800
H 	H 	0.70357 0.83507 0.93349 0.04400
C 	C 	0.87543 0.94805 0.86664 -0.05400
C 	C 	0.67275 0.76409 0.88321 -0.07200
C 	C 	0.97238 0.93822 0.86802 -0.18900
H 	H 	0.85815 0.97689 0.88689 0.04800
H 	H 	0.85942 0.96477 0.83986 0.03000
H 	H 	0.99082 0.92015 0.89399 0.06700
H 	H 	0.00772 0.97431 0.86560 0.09200
H 	H 	0.99214 0.91354 0.84522 0.05200
C 	C 	0.57581 0.77395 0.88177 -0.13300
H 	H 	0.68866 0.74739 0.91001 0.04200
H 	H 	0.69007 0.73522 0.86298 0.05900
H 	H 	0.55601 0.79867 0.90453 0.05400
H 	H 	0.54043 0.73788 0.88420 0.05500
H 	H 	0.55746 0.79198 0.85578 0.06800
C 	C 	0.78538 0.07696 0.90645 -0.09100
C 	C 	0.72085 0.06397 0.88099 0.04100
C 	C 	0.71025 0.09346 0.84989 -0.02800
C 	C 	0.76320 0.13517 0.84355 -0.08300
C 	C 	0.82769 0.14819 0.86902 0.02400
C 	C 	0.83828 0.11871 0.90012 -0.02100
H 	H 	0.66059 0.08375 0.83042 0.04100
H 	H 	0.88793 0.12842 0.91960 0.03100
C 	C 	0.66163 0.01942 0.88674 -0.06100
C 	C 	0.88685 0.19277 0.86329 -0.03200
C 	C 	0.57628 0.03572 0.90361 -0.14000
H 	H 	0.69172 0.99012 0.90381 0.03900
H 	H 	0.64814 0.00110 0.86026 0.04300
H 	H 	0.58734 0.05438 0.93010 0.06000
H 	H 	0.53478 0.00234 0.90806 0.05400
H 	H 	0.54186 0.06206 0.88530 0.05900
C 	C 	0.97230 0.17650 0.84649 -0.25500
H 	H 	0.90021 0.21112 0.88978 0.02600
H 	H 	0.85678 0.22204 0.84619 0.03400
H 	H 	0.00671 0.15022 0.86484 0.11000
H 	H 	0.01374 0.20990 0.84203 0.10300
H 	H 	0.96138 0.15778 0.82001 0.07000
C 	C 	0.28113 0.82738 0.84301 -0.08300
C 	C 	0.28421 0.88040 0.84127 0.04000
C 	C 	0.27860 0.90849 0.87338 -0.02400
C 	C 	0.26883 0.88466 0.90694 -0.08400
C 	C 	0.26582 0.83164 0.90868 0.04300
C 	C 	0.27140 0.80355 0.87657 -0.02500
H 	H 	0.28122 0.94904 0.87217 0.03400
H 	H 	0.26872 0.76301 0.87778 0.03700
C 	C 	0.28781 0.90761 0.80524 -0.06500
C 	C 	0.26231 0.80444 0.94471 -0.06700
H 	H 	0.32001 0.94458 0.80865 0.03700
C 	C 	0.35280 0.79590 0.95972 -0.13700
H 	H 	0.23015 0.76745 0.94132 0.04300
H 	H 	0.22314 0.82530 0.96487 0.04900
H 	H 	0.39185 0.77343 0.94039 0.05200
H 	H 	0.38582 0.83217 0.96474 0.06900
C 	C 	0.74815 0.29411 0.81140 0.29900
C 	C 	0.29630 0.29667 0.81052 0.30200
C 	C 	0.74792 0.16550 0.81093 0.30000
O 	O 	0.37568 0.28382 0.80238 -0.41300
O 	O 	0.66839 0.17804 0.80276 -0.41400
C 	C 	0.29560 0.16515 0.81039 0.30200
O 	O 	0.37419 0.17903 0.80208 -0.41400
O 	O 	0.66841 0.28319 0.80237 -0.41400
Co	Co	0.13045 0.42873 0.99993 1.18900
Co	Co	0.92330 0.53469 0.99935 1.17700
C 	C 	0.80081 0.54657 0.93903 0.30400
O 	O 	0.31691 0.42327 0.96251 -0.40000
C 	C 	0.25328 0.41536 0.93941 0.30100
O 	O 	0.02525 0.38490 0.99485 -0.45300
O 	O 	0.02834 0.57858 0.99398 -0.45200
C 	C 	0.25352 0.54702 0.93977 0.30200
C 	C 	0.80027 0.41794 0.93846 0.29700
O 	O 	0.17379 0.42815 0.94740 -0.40500
O 	O 	0.73575 0.42671 0.96112 -0.39800
O 	O 	0.88005 0.42879 0.94748 -0.41800
O 	O 	0.31912 0.53657 0.96137 -0.40200
O 	O 	0.17489 0.53308 0.94797 -0.41000
O 	O 	0.73814 0.54051 0.96277 -0.40100
O 	O 	0.88037 0.53400 0.94710 -0.42500
C 	C 	0.26752 0.57689 0.90677 -0.08700
C 	C 	0.30638 0.62495 0.90825 0.04200
C 	C 	0.31567 0.65280 0.87625 -0.02700
C 	C 	0.28182 0.63521 0.84338 -0.08700
C 	C 	0.24301 0.58714 0.84189 0.04000
C 	C 	0.23380 0.55927 0.87389 -0.02600
H 	H 	0.34972 0.68831 0.87694 0.04000
H 	H 	0.19985 0.52373 0.87318 0.04200
C 	C 	0.33668 0.64769 0.94372 -0.07000
C 	C 	0.21265 0.56443 0.80642 -0.06700
C 	C 	0.43312 0.63954 0.94923 -0.13400
H 	H 	0.30058 0.63289 0.96739 0.05200
H 	H 	0.32385 0.68864 0.94349 0.03800
H 	H 	0.44841 0.59890 0.94990 0.06200
H 	H 	0.45332 0.65649 0.97537 0.05200
H 	H 	0.47030 0.65759 0.92704 0.05300
H 	H 	0.07911 0.55432 0.82316 0.06000
H 	H 	0.10074 0.61312 0.80040 0.06800
C 	C 	0.78441 0.38795 0.90526 -0.08400
C 	C 	0.82436 0.40005 0.87172 0.03500
C 	C 	0.81461 0.36757 0.84200 -0.02600
C 	C 	0.76387 0.32416 0.84459 -0.08900
C 	C 	0.72388 0.31207 0.87812 0.04300
C 	C 	0.73362 0.34455 0.90785 -0.03100
H 	H 	0.84465 0.37706 0.81636 0.03900
H 	H 	0.70357 0.33507 0.93349 0.04400
C 	C 	0.87543 0.44805 0.86664 -0.05400
C 	C 	0.67275 0.26409 0.88321 -0.07200
C 	C 	0.97238 0.43822 0.86802 -0.18900
H 	H 	0.85815 0.47689 0.88689 0.05000
H 	H 	0.85942 0.46477 0.83986 0.03200
H 	H 	0.99082 0.42015 0.89399 0.06700
H 	H 	0.00772 0.47431 0.86560 0.09400
H 	H 	0.99214 0.41354 0.84522 0.05300
C 	C 	0.57581 0.27395 0.88177 -0.13300
H 	H 	0.68866 0.24739 0.91001 0.04200
H 	H 	0.69007 0.23522 0.86298 0.05800
H 	H 	0.55601 0.29867 0.90453 0.05500
H 	H 	0.54043 0.23788 0.88420 0.05500
H 	H 	0.55746 0.29198 0.85578 0.06800
C 	C 	0.78538 0.57696 0.90645 -0.09400
C 	C 	0.72085 0.56397 0.88099 0.04300
C 	C 	0.71025 0.59345 0.84989 -0.03000
C 	C 	0.76320 0.63517 0.84355 -0.08200
C 	C 	0.82769 0.64819 0.86902 0.02300
C 	C 	0.83828 0.61871 0.90012 -0.02000
H 	H 	0.66059 0.58375 0.83042 0.04000
H 	H 	0.88793 0.62842 0.91960 0.03000
C 	C 	0.66163 0.51942 0.88674 -0.07100
C 	C 	0.88685 0.69277 0.86329 -0.03100
C 	C 	0.57628 0.53572 0.90361 -0.13700
H 	H 	0.69172 0.49012 0.90381 0.04600
H 	H 	0.64814 0.50110 0.86026 0.04200
H 	H 	0.58734 0.55438 0.93010 0.05800
H 	H 	0.53478 0.50234 0.90806 0.05100
H 	H 	0.54186 0.56206 0.88530 0.05800
C 	C 	0.97230 0.67650 0.84649 -0.25700
H 	H 	0.90021 0.71112 0.88978 0.02600
H 	H 	0.85678 0.72204 0.84619 0.03300
H 	H 	0.00671 0.65022 0.86484 0.11100
H 	H 	0.01374 0.70990 0.84203 0.10400
H 	H 	0.96138 0.65778 0.82001 0.07000
C 	C 	0.28113 0.32738 0.84301 -0.08300
C 	C 	0.28421 0.38040 0.84127 0.04000
C 	C 	0.27860 0.40849 0.87338 -0.02500
C 	C 	0.26883 0.38466 0.90694 -0.08400
C 	C 	0.26582 0.33164 0.90868 0.04300
C 	C 	0.27140 0.30355 0.87657 -0.02500
H 	H 	0.28122 0.44904 0.87217 0.03600
H 	H 	0.26872 0.26301 0.87778 0.03700
C 	C 	0.28781 0.40761 0.80524 -0.06500
C 	C 	0.26231 0.30444 0.94471 -0.06700
H 	H 	0.32001 0.44458 0.80865 0.03900
C 	C 	0.35280 0.29590 0.95972 -0.13700
H 	H 	0.23015 0.26745 0.94132 0.04300
H 	H 	0.22314 0.32530 0.96487 0.04900
H 	H 	0.39185 0.27343 0.94039 0.05200
H 	H 	0.38582 0.33217 0.96474 0.06900
C 	C 	0.74815 0.79411 0.81140 0.29900
C 	C 	0.29630 0.79667 0.81052 0.30100
C 	C 	0.74792 0.66550 0.81093 0.30000
O 	O 	0.37568 0.78382 0.80238 -0.41300
O 	O 	0.66839 0.67804 0.80276 -0.41400
C 	C 	0.29560 0.66515 0.81039 0.30200
O 	O 	0.37419 0.67903 0.80208 -0.41500
O 	O 	0.66841 0.78319 0.80237 -0.41500
