data_crystal

_cell_length_a 35.61831
_cell_length_b 32.34771
_cell_length_c 35.52277
_cell_angle_alpha 89.29060
_cell_angle_beta  92.55563
_cell_angle_gamma 100.84370

_symmetry_space_group_name_	'P 1'
_symmetry_space_group_name_H-M	'P 1'

loop_
_symmetry_equiv_pos_as_xyz
  x,y,z

loop_
_atom_site_label
_atom_site_type_symbol
_atom_site_fract_x
_atom_site_fract_y
_atom_site_fract_z
_atom_site_charge
O 	O 	0.02692 0.00914 0.02881 -0.70300
Ni	Ni	0.03323 0.99831 0.97359 1.09900
O 	O 	0.00831 0.95617 0.09865 -0.40800
Ni	Ni	0.04795 0.96531 0.05694 1.06600
O 	O 	0.01031 0.91826 0.03084 -0.41700
O 	O 	0.09151 0.00864 0.97580 -0.37100
O 	O 	0.03274 0.99354 0.91578 -0.35700
H 	H 	0.03969 0.03786 0.03645 0.15900
C 	C 	0.01494 0.90683 0.99658 0.29400
C 	C 	0.10980 0.99007 0.00205 0.28500
C 	C 	0.01307 0.01444 0.89278 0.28100
O 	O 	0.03250 0.93415 0.97243 -0.36200
O 	O 	0.09091 0.95919 0.02231 -0.40200
O 	O 	0.03954 0.02197 0.52552 -0.70000
Ni	Ni	0.04051 0.00166 0.47182 1.09900
O 	O 	0.02632 0.98239 0.60252 -0.39700
Ni	Ni	0.06205 0.98258 0.55800 1.07200
O 	O 	0.02207 0.93265 0.53991 -0.41500
O 	O 	0.09847 0.00979 0.46914 -0.37000
O 	O 	0.03439 0.98676 0.41530 -0.35400
H 	H 	0.05342 0.05133 0.52868 0.16400
C 	C 	0.02408 0.91513 0.50742 0.29500
C 	C 	0.11864 0.99734 0.49757 0.28900
C 	C 	0.01040 0.00185 0.39215 0.28200
O 	O 	0.03878 0.93774 0.47879 -0.36200
O 	O 	0.10168 0.96993 0.52216 -0.39500
O 	O 	0.01859 0.51112 0.02990 -0.70200
Ni	Ni	0.02432 0.49291 0.97636 1.09900
Ni	Ni	0.03756 0.46999 0.06329 1.07100
O 	O 	0.08245 0.50089 0.97883 -0.36900
O 	O 	0.02354 0.48078 0.91945 -0.35500
H 	H 	0.03241 0.54021 0.03479 0.16000
C 	C 	0.00544 0.40459 0.00840 0.29100
C 	C 	0.09997 0.48752 0.00869 0.28500
C 	C 	0.00150 0.49672 0.89482 0.28300
O 	O 	0.02189 0.42858 0.98135 -0.36000
O 	O 	0.08077 0.45912 0.03112 -0.39600
O 	O 	0.02874 0.51599 0.52773 -0.70100
Ni	Ni	0.02976 0.50415 0.47195 1.10000
O 	O 	0.01274 0.46345 0.59850 -0.40700
Ni	Ni	0.04945 0.47099 0.55421 1.06700
O 	O 	0.00849 0.42544 0.53039 -0.41400
O 	O 	0.08767 0.51140 0.46935 -0.36800
O 	O 	0.02428 0.49833 0.41413 -0.36000
H 	H 	0.04342 0.54426 0.53441 0.16200
C 	C 	0.01040 0.41310 0.49589 0.29700
C 	C 	0.10709 0.49314 0.49487 0.28300
O 	O 	0.02658 0.43969 0.47051 -0.36800
O 	O 	0.08898 0.46289 0.51635 -0.40800
O 	O 	0.41309 0.03189 0.98264 -0.40900
C 	C 	0.39383 0.00166 0.00339 0.28000
O 	O 	0.42285 0.04837 0.47038 -0.39700
C 	C 	0.40402 0.02235 0.49502 0.28300
O 	O 	0.38629 0.46984 0.97895 -0.40900
C 	C 	0.37991 0.48703 0.01111 0.29500
O 	O 	0.41162 0.54877 0.48128 -0.39800
C 	C 	0.39248 0.51723 0.50058 0.28500
N 	N 	0.40604 0.00976 0.63068 -0.09900
C 	C 	0.20371 0.46239 0.48934 -0.04000
C 	C 	0.22844 0.50179 0.49258 0.02200
C 	C 	0.21315 0.53863 0.49414 -0.05700
C 	C 	0.17345 0.53636 0.49377 0.02200
C 	C 	0.14870 0.49681 0.49148 -0.08000
C 	C 	0.16407 0.46012 0.48860 0.01300
C 	C 	0.27046 0.50471 0.49499 0.02300
C 	C 	0.29015 0.50346 0.46187 -0.05700
C 	C 	0.32982 0.50573 0.46350 0.02500
C 	C 	0.35030 0.51015 0.49865 -0.08100
C 	C 	0.33044 0.51057 0.53186 0.01700
C 	C 	0.29068 0.50779 0.53021 -0.04000
C 	C 	0.34920 0.50242 0.42909 0.04900
C 	C 	0.27080 0.50812 0.56474 0.09400
C 	C 	0.21884 0.42409 0.48739 0.09300
C 	C 	0.15843 0.57460 0.49699 0.06700
N 	N 	0.36474 0.49978 0.40154 -0.13200
N 	N 	0.25484 0.50838 0.59238 -0.11400
N 	N 	0.14640 0.60522 0.49957 -0.11200
N 	N 	0.23100 0.39343 0.48583 -0.11100
H 	H 	0.14510 0.42971 0.48631 0.04700
H 	H 	0.23221 0.56898 0.49632 0.05700
H 	H 	0.27448 0.50038 0.43483 0.05800
H 	H 	0.34604 0.51390 0.55893 0.05200
C 	C 	0.27366 0.45343 0.01902 -0.03800
C 	C 	0.26218 0.49276 0.02065 0.02200
C 	C 	0.28986 0.52962 0.02466 -0.05800
C 	C 	0.32883 0.52785 0.02451 0.02500
C 	C 	0.34026 0.48879 0.01980 -0.07800
C 	C 	0.31258 0.45169 0.01828 0.01200
C 	C 	0.22126 0.49575 0.01671 0.02200
C 	C 	0.20169 0.50224 0.04880 -0.05700
C 	C 	0.16235 0.50211 0.04611 0.02500
C 	C 	0.14211 0.49455 0.01101 -0.07900
C 	C 	0.16211 0.49024 0.97857 0.01900
C 	C 	0.20159 0.49114 0.98120 -0.03700
C 	C 	0.14306 0.51049 0.07933 0.04900
C 	C 	0.22168 0.48692 0.94744 0.09800
C 	C 	0.24563 0.41483 0.01752 0.09600
C 	C 	0.35682 0.56633 0.02834 0.08300
N 	N 	0.12761 0.51720 0.10593 -0.13300
N 	N 	0.23781 0.48354 0.92041 -0.11200
N 	N 	0.37918 0.59719 0.03150 -0.10200
N 	N 	0.22314 0.38394 0.01631 -0.10800
H 	H 	0.32134 0.42154 0.01549 0.04400
H 	H 	0.28102 0.55977 0.02699 0.05600
H 	H 	0.21705 0.50694 0.07595 0.05700
H 	H 	0.14677 0.48498 0.95145 0.05800
C 	C 	0.00411 0.52734 0.71568 -0.05800
C 	C 	0.00341 0.52980 0.67622 0.02100
C 	C 	0.03333 0.49193 0.79541 -0.06100
C 	C 	0.03516 0.49196 0.83490 0.03100
C 	C 	0.07210 0.49995 0.85471 0.08600
C 	C 	0.01266 0.57047 0.65812 0.07500
N 	N 	0.10170 0.50635 0.87057 -0.10200
N 	N 	0.02005 0.60305 0.64361 -0.10700
H 	H 	0.01085 0.55591 0.73228 0.05700
H 	H 	0.05951 0.49727 0.78011 0.05600
C 	C 	0.02412 0.50279 0.33154 0.01600
C 	C 	0.01982 0.50176 0.29215 -0.04000
C 	C 	0.05231 0.49868 0.27013 0.09600
C 	C 	0.01243 0.57941 0.23102 0.09300
N 	N 	0.07832 0.49623 0.25246 -0.11200
N 	N 	0.02684 0.61012 0.24624 -0.10900
H 	H 	0.00624 0.56684 0.15660 0.03600
H 	H 	0.05212 0.50340 0.34508 0.05200
C 	C 	0.03803 0.80270 0.49780 -0.05600
C 	C 	0.04416 0.84656 0.49402 0.02800
C 	C 	0.01592 0.86884 0.50506 -0.08300
C 	C 	0.01189 0.66891 0.54135 0.01500
C 	C 	0.01648 0.71292 0.54238 -0.04100
C 	C 	0.04063 0.73599 0.57178 0.09700
C 	C 	0.08006 0.86851 0.48011 0.08900
N 	N 	0.05998 0.75450 0.59534 -0.11000
N 	N 	0.10881 0.88606 0.46897 -0.09600
H 	H 	0.05955 0.78556 0.48902 0.05800
H 	H 	0.02722 0.65260 0.56199 0.04300
C 	C 	0.01853 0.21762 0.52106 -0.05900
C 	C 	0.01786 0.17420 0.52359 0.02800
C 	C 	0.00309 0.36754 0.48814 -0.08600
C 	C 	0.03058 0.35028 0.46968 0.01400
C 	C 	0.02927 0.30675 0.47013 -0.04200
C 	C 	0.05842 0.28974 0.45185 0.09400
C 	C 	0.03895 0.15786 0.55419 0.07300
N 	N 	0.08176 0.27607 0.43721 -0.11100
N 	N 	0.05582 0.14473 0.57869 -0.11300
H 	H 	0.03448 0.23856 0.54224 0.05600
H 	H 	0.05409 0.37090 0.45663 0.05000
C 	C 	0.21776 0.00261 0.46183 -0.04100
C 	C 	0.24055 0.01128 0.49534 0.02500
C 	C 	0.22344 0.01812 0.52890 -0.05800
C 	C 	0.18379 0.01538 0.52958 0.02600
C 	C 	0.16073 0.00490 0.49643 -0.08100
C 	C 	0.17800 0.99920 0.46259 0.02100
C 	C 	0.28252 0.01383 0.49553 0.02100
C 	C 	0.30668 0.05340 0.49642 -0.05700
C 	C 	0.34646 0.05663 0.49753 0.02900
C 	C 	0.36238 0.01979 0.49674 -0.07600
C 	C 	0.33821 0.98020 0.49667 0.00800
C 	C 	0.29842 0.97702 0.49624 -0.03600
C 	C 	0.37071 0.09771 0.50098 0.09000
C 	C 	0.27408 0.93591 0.49667 0.09500
C 	C 	0.23497 0.99706 0.42664 0.10000
C 	C 	0.16707 0.02439 0.56417 0.04900
N 	N 	0.39012 0.13060 0.50377 -0.09900
N 	N 	0.25456 0.90300 0.49700 -0.10800
N 	N 	0.15366 0.03160 0.59186 -0.13400
N 	N 	0.24878 0.99260 0.39846 -0.11100
H 	H 	0.16042 0.99133 0.43701 0.05700
H 	H 	0.24107 0.02561 0.55450 0.05800
H 	H 	0.29445 0.08169 0.49666 0.05700
H 	H 	0.35040 0.95188 0.49658 0.03500
C 	C 	0.00411 0.70746 0.02523 -0.04600
C 	C 	0.02915 0.79603 0.97971 -0.06000
C 	C 	0.03562 0.84011 0.97834 0.02900
C 	C 	0.00619 0.86163 0.98744 -0.08500
C 	C 	0.07300 0.86299 0.96919 0.08600
C 	C 	0.02506 0.73266 0.05533 0.09400
N 	N 	0.10296 0.88129 0.96188 -0.09900
N 	N 	0.04183 0.75289 0.07943 -0.11400
H 	H 	0.01240 0.64873 0.05077 0.03500
H 	H 	0.05192 0.77953 0.97325 0.05700
C 	C 	0.00235 0.20288 0.04178 -0.04400
C 	C 	0.02396 0.29369 0.99869 -0.05700
C 	C 	0.02895 0.33762 0.99580 0.02600
C 	C 	0.06538 0.36124 0.98470 0.09000
C 	C 	0.02356 0.22647 0.07265 0.09700
N 	N 	0.09458 0.38011 0.97581 -0.09600
N 	N 	0.04056 0.24540 0.09737 -0.11100
H 	H 	0.01426 0.14335 0.06234 0.04100
H 	H 	0.04689 0.27783 0.99137 0.05800
C 	C 	0.29940 0.03739 0.00990 -0.03900
C 	C 	0.27321 0.99895 0.00662 0.02200
C 	C 	0.28679 0.96117 0.00372 -0.05700
C 	C 	0.32619 0.96149 0.00338 0.02000
C 	C 	0.35241 0.99998 0.00661 -0.07500
C 	C 	0.33875 0.03766 0.01034 0.01100
C 	C 	0.23141 0.99804 0.00539 0.02300
C 	C 	0.21074 0.99290 0.97070 -0.05800
C 	C 	0.17110 0.99125 0.96892 0.03300
C 	C 	0.15191 0.99573 0.00222 -0.07900
C 	C 	0.17278 0.00142 0.03681 0.00900
C 	C 	0.21225 0.00216 0.03863 -0.03900
C 	C 	0.15023 0.98322 0.93312 0.09200
C 	C 	0.23281 0.00653 0.07478 0.09200
C 	C 	0.28608 0.07676 0.01228 0.09400
C 	C 	0.33934 0.92246 0.99802 0.06900
N 	N 	0.13351 0.97678 0.90445 -0.09600
N 	N 	0.24931 0.01004 0.10372 -0.11100
N 	N 	0.34982 0.89117 0.99365 -0.10900
N 	N 	0.27538 0.10827 0.01420 -0.11100
H 	H 	0.35883 0.06729 0.01303 0.04800
H 	H 	0.26662 0.93160 0.00113 0.05700
H 	H 	0.22549 0.98962 0.94514 0.05600
H 	H 	0.15810 0.00447 0.06246 0.01900
C 	C 	0.02173 0.02133 0.77335 0.02200
C 	C 	0.03496 0.05724 0.79528 -0.05600
C 	C 	0.03548 0.05456 0.83462 0.02700
C 	C 	0.02087 0.01591 0.85237 -0.07300
C 	C 	0.01946 0.02534 0.73174 0.02100
C 	C 	0.04995 0.03343 0.67154 0.01000
C 	C 	0.05288 0.03239 0.71094 -0.03800
C 	C 	0.09022 0.03692 0.72976 0.09300
C 	C 	0.05174 0.09139 0.85662 0.08600
N 	N 	0.12012 0.04055 0.74486 -0.11000
N 	N 	0.06477 0.12088 0.87424 -0.10400
H 	H 	0.04484 0.08729 0.78166 0.05800
H 	H 	0.07569 0.03768 0.65557 0.02800
C 	C 	0.03319 0.99151 0.29034 -0.06100
C 	C 	0.03843 0.99360 0.32966 0.03200
C 	C 	0.00628 0.98900 0.35234 -0.08000
C 	C 	0.07683 0.00194 0.34635 0.08500
C 	C 	0.00460 0.06444 0.15292 0.07100
N 	N 	0.10759 0.00861 0.35971 -0.10100
N 	N 	0.01140 0.09632 0.13716 -0.10900
H 	H 	0.00604 0.05327 0.22758 0.05500
H 	H 	0.05786 0.99551 0.27288 0.05600
O 	O 	0.41215 0.98214 0.02898 -0.36300
Ni	Ni	0.45333 0.02379 0.94546 1.06600
H 	H 	0.45600 0.94919 0.96375 0.16100
O 	O 	0.42252 0.00837 0.52394 -0.36800
Ni	Ni	0.46482 0.03490 0.43762 1.07100
H 	H 	0.46952 0.96533 0.46776 0.16000
O 	O 	0.40815 0.50213 0.03586 -0.36300
Ni	Ni	0.42967 0.49513 0.94589 1.07300
O 	O 	0.42926 0.55243 0.96897 -0.39600
O 	O 	0.41019 0.49926 0.52768 -0.37400
Ni	Ni	0.45423 0.54266 0.44632 1.07300
H 	H 	0.46099 0.46943 0.46609 0.16200
C 	C 	0.42100 0.50051 0.77142 0.09200
N 	N 	0.39215 0.50044 0.75507 -0.11100
H 	H 	0.43183 0.49703 0.84605 0.01800
C 	C 	0.43767 0.51441 0.22971 0.09500
N 	N 	0.41046 0.51544 0.24602 -0.11200
H 	H 	0.44153 0.50861 0.15510 0.04900
C 	C 	0.44523 0.72875 0.54058 0.09600
N 	N 	0.45724 0.74985 0.42751 -0.11100
N 	N 	0.42108 0.74504 0.55034 -0.11000
H 	H 	0.44348 0.64596 0.53804 0.05200
C 	C 	0.43675 0.27287 0.50706 0.09500
C 	C 	0.45689 0.14064 0.42986 0.07100
N 	N 	0.40879 0.25175 0.51650 -0.10700
N 	N 	0.43886 0.12027 0.40654 -0.12900
H 	H 	0.46760 0.22406 0.43473 0.05900
H 	H 	0.45105 0.35676 0.50370 0.03700
C 	C 	0.41224 0.70202 0.93753 0.09400
C 	C 	0.43698 0.83796 0.01893 0.07500
N 	N 	0.38835 0.71630 0.92207 -0.11100
N 	N 	0.41666 0.85272 0.03693 -0.10500
H 	H 	0.43546 0.75599 0.01008 0.05900
H 	H 	0.41051 0.62087 0.95186 0.04900
C 	C 	0.43527 0.33872 0.03003 0.07200
C 	C 	0.44054 0.20268 0.95645 0.09300
N 	N 	0.41033 0.35362 0.03995 -0.11300
N 	N 	0.42166 0.21692 0.93438 -0.11300
H 	H 	0.44400 0.12154 0.96461 0.02400
H 	H 	0.44013 0.25749 0.03455 0.05800
C 	C 	0.43567 0.01407 0.64640 0.08700
H 	H 	0.44850 0.01396 0.72093 0.05600
C 	C 	0.44410 0.98436 0.22903 0.09500
N 	N 	0.41748 0.98475 0.24645 -0.11200
H 	H 	0.44511 0.97875 0.15422 0.05300
C 	C 	0.01397 0.02598 0.65247 -0.07700
N 	N 	0.46462 0.39131 0.75012 -0.11100
N 	N 	0.47425 0.90921 0.74109 -0.10900
Ni	Ni	0.46994 0.98696 0.02749 1.10000
O 	O 	0.47425 0.98924 0.08555 -0.35400
O 	O 	0.47534 0.05177 0.03176 -0.36100
O 	O 	0.47142 0.97678 0.97138 -0.70000
Ni	Ni	0.48049 0.01490 0.52479 1.09900
O 	O 	0.48341 0.02893 0.58146 -0.35500
O 	O 	0.48379 0.07931 0.51866 -0.36200
O 	O 	0.48399 0.99436 0.47152 -0.69900
Ni	Ni	0.46501 0.49846 0.03110 1.10200
O 	O 	0.46343 0.47074 0.98060 -0.70100
H 	H 	0.45251 0.44049 0.98358 0.16400
C 	C 	0.45934 0.57575 0.98564 0.29900
Ni	Ni	0.46838 0.50793 0.52967 1.09900
O 	O 	0.46940 0.51246 0.58761 -0.35600
O 	O 	0.47027 0.57222 0.53075 -0.36400
O 	O 	0.47423 0.49785 0.47411 -0.69900
C 	C 	0.45703 0.50058 0.79179 -0.04000
C 	C 	0.45808 0.49880 0.83123 0.01200
C 	C 	0.47158 0.42236 0.73313 0.09400
H 	H 	0.47210 0.42960 0.65836 0.04700
C 	C 	0.47166 0.51313 0.20939 -0.03900
C 	C 	0.46912 0.51070 0.16993 0.01500
C 	C 	0.52283 0.55538 0.32888 0.01200
C 	C 	0.52136 0.55429 0.28946 -0.03800
C 	C 	0.47538 0.70845 0.52839 -0.03800
C 	C 	0.47045 0.66445 0.52953 0.01500
C 	C 	0.47487 0.77081 0.45069 0.09700
H 	H 	0.48698 0.85481 0.45362 0.04300
C 	C 	0.48149 0.20979 0.45794 -0.05700
C 	C 	0.47938 0.16617 0.45893 0.03400
C 	C 	0.47476 0.34300 0.49491 0.01200
C 	C 	0.47168 0.29918 0.49526 -0.03900
C 	C 	0.45706 0.77563 0.99378 -0.05500
C 	C 	0.46241 0.81950 0.99656 0.02700
C 	C 	0.43722 0.64053 0.96153 0.01500
C 	C 	0.44209 0.68422 0.95685 -0.03900
C 	C 	0.46412 0.18494 0.98401 -0.04100
C 	C 	0.46282 0.14148 0.98464 0.02100
C 	C 	0.46436 0.27662 0.02130 -0.05700
C 	C 	0.46643 0.32014 0.01762 0.02600
C 	C 	0.47460 0.01825 0.70554 -0.05700
C 	C 	0.47265 0.01944 0.66605 0.03000
C 	C 	0.48487 0.93846 0.75981 0.09200
C 	C 	0.47330 0.98157 0.16795 0.01700
C 	C 	0.47736 0.98388 0.20733 -0.03900
N 	N 	0.48714 0.89094 0.37013 -0.10900
C 	C 	0.00955 0.97954 0.83053 0.00700
O 	O 	0.50548 0.90066 0.02296 -0.40800
O 	O 	0.49121 0.03220 0.90204 -0.40200
C 	C 	0.50513 0.88998 0.98756 0.29100
O 	O 	0.49462 0.06576 0.97243 -0.41900
C 	C 	0.49999 0.97301 0.10547 0.28500
C 	C 	0.48902 0.07898 0.00573 0.30400
C 	C 	0.50547 0.00242 0.88635 0.28300
O 	O 	0.50390 0.03579 0.39592 -0.40000
O 	O 	0.50400 0.08332 0.45893 -0.41600
C 	C 	0.50552 0.01280 0.60589 0.28200
C 	C 	0.49756 0.10183 0.48964 0.30100
C 	C 	0.51851 0.00340 0.38632 0.28000
O 	O 	0.47634 0.51720 0.08631 -0.35700
O 	O 	0.50694 0.46218 0.09907 -0.39700
O 	O 	0.47719 0.56038 0.01421 -0.37500
O 	O 	0.50271 0.40872 0.03628 -0.40800
O 	O 	0.47327 0.52180 0.91115 -0.41100
C 	C 	0.50491 0.39149 0.00354 0.29100
C 	C 	0.49739 0.49765 0.10938 0.27800
C 	C 	0.49295 0.49807 0.89341 0.27600
O 	O 	0.50894 0.42600 0.52776 -0.41700
O 	O 	0.49284 0.55060 0.40359 -0.39800
O 	O 	0.49278 0.58850 0.47249 -0.41200
C 	C 	0.49168 0.49402 0.61009 0.28100
C 	C 	0.48934 0.59922 0.50728 0.29300
C 	C 	0.50942 0.52089 0.39103 0.28300
C 	C 	0.49092 0.50220 0.77236 0.02300
C 	C 	0.49276 0.49905 0.85173 -0.08100
C 	C 	0.48982 0.50018 0.73059 0.02100
C 	C 	0.48852 0.49691 0.65131 -0.07700
C 	C 	0.47941 0.45973 0.67256 0.01100
C 	C 	0.48027 0.46115 0.71196 -0.03800
C 	C 	0.50720 0.51392 0.22887 0.02300
C 	C 	0.50173 0.50897 0.14968 -0.07600
C 	C 	0.51042 0.51552 0.27062 0.02200
C 	C 	0.51309 0.51814 0.34992 -0.07200
C 	C 	0.50936 0.73240 0.51475 0.02300
C 	C 	0.49916 0.64413 0.51720 -0.08000
C 	C 	0.51415 0.77868 0.51058 0.02400
C 	C 	0.50101 0.84083 0.47690 0.01500
C 	C 	0.49687 0.79692 0.47965 -0.03900
C 	C 	0.50094 0.23513 0.48697 0.02500
C 	C 	0.49797 0.14757 0.48889 -0.08000
C 	C 	0.50290 0.28126 0.48510 0.02200
C 	C 	0.50898 0.36930 0.48511 -0.07900
C 	C 	0.47972 0.75686 0.97039 0.02200
C 	C 	0.49218 0.84511 0.97729 -0.08000
C 	C 	0.47597 0.71033 0.97067 0.02400
C 	C 	0.46637 0.62213 0.97903 -0.07400
C 	C 	0.48906 0.21105 0.00947 0.02400
C 	C 	0.48666 0.12364 0.01001 -0.08400
C 	C 	0.49299 0.25745 0.00722 0.02100
C 	C 	0.49823 0.34517 0.00088 -0.08200
C 	C 	0.50997 0.02064 0.72524 0.02300
C 	C 	0.50662 0.02421 0.64601 -0.07900
C 	C 	0.49822 0.97068 0.82246 0.00800
C 	C 	0.49814 0.97501 0.78313 -0.03800
H 	H 	0.48685 0.94044 0.83505 0.03900
C 	C 	0.50805 0.95373 0.28964 -0.05500
C 	C 	0.50991 0.95730 0.32903 0.02100
C 	C 	0.51376 0.98583 0.22538 0.02300
C 	C 	0.50532 0.98160 0.14627 -0.07600
C 	C 	0.49726 0.92045 0.35184 0.07400
H 	H 	0.49730 0.92341 0.27661 0.05700
C 	C 	0.01014 0.98199 0.79112 -0.03800
C 	C 	0.01188 0.01484 0.61222 0.28300
C 	C 	0.49739 0.53608 0.66992 0.02100
O 	O 	0.51755 0.93144 0.53398 -0.41500
O 	O 	0.51286 0.94097 0.09229 -0.39300
O 	O 	0.51925 0.97967 0.59700 -0.39700
O 	O 	0.50760 0.46394 0.59718 -0.40500
C 	C 	0.51456 0.41464 0.49367 0.29400
C 	C 	0.49799 0.53749 0.70944 -0.05600
C 	C 	0.51844 0.21653 0.51752 -0.04000
C 	C 	0.51691 0.17290 0.51828 0.01700
C 	C 	0.50565 0.69214 0.98691 -0.05500
C 	C 	0.50158 0.64828 0.99012 0.02800
C 	C 	0.51143 0.19304 0.03627 -0.05700
C 	C 	0.51044 0.14944 0.03658 0.03100
C 	C 	0.51112 0.01486 0.76674 0.02100
C 	C 	0.51179 0.00557 0.84559 -0.07700
C 	C 	0.51890 0.98945 0.26693 0.02200
C 	C 	0.52308 0.99694 0.34589 -0.07300
C 	C 	0.52354 0.91252 0.50336 0.29900
C 	C 	0.52251 0.86672 0.50458 -0.08100
C 	C 	0.50676 0.57482 0.64879 0.07300
H 	H 	0.50502 0.56756 0.72376 0.05700
C 	C 	0.50677 0.78249 0.94815 -0.03900
C 	C 	0.00437 0.78075 0.51310 0.01900
C 	C 	0.50226 0.47806 0.29157 -0.05400
C 	C 	0.50353 0.47916 0.33110 0.02200
C 	C 	0.51309 0.82639 0.95191 0.01100
O 	O 	0.51156 0.47260 0.91264 -0.36600
C 	C 	0.49416 0.44030 0.35207 0.07600
H 	H 	0.49437 0.44816 0.27708 0.05700
N 	N 	0.48668 0.40919 0.36890 -0.10700
N 	N 	0.51424 0.60584 0.63182 -0.10800
O 	O 	0.52318 0.97746 0.90712 -0.36100
O 	O 	0.52306 0.91646 0.96290 -0.36700
O 	O 	0.51827 0.41476 0.97462 -0.36500
Ni	Ni	0.52020 0.47900 0.97016 1.10200
O 	O 	0.52176 0.49848 0.02360 -0.70200
C 	C 	0.00103 0.48559 0.85476 -0.08100
C 	C 	0.52595 0.04934 0.78990 -0.05700
C 	C 	0.52380 0.28214 0.98882 -0.03800
O 	O 	0.52759 0.99162 0.02110 -0.69700
Ni	Ni	0.52880 0.98128 0.96501 1.10000
O 	O 	0.52664 0.51655 0.52721 -0.70200
H 	H 	0.53072 0.15868 0.54157 0.03900
C 	C 	0.52751 0.04463 0.82908 0.02700
C 	C 	0.52631 0.32580 0.98584 0.01300
O 	O 	0.53096 0.44254 0.46931 -0.35800
C 	C 	0.52574 0.50316 0.79274 -0.05800
C 	C 	0.53045 0.59317 0.26848 0.09500
H 	H 	0.53086 0.58535 0.34326 0.05000
O 	O 	0.53203 0.50311 0.41373 -0.35000
C 	C 	0.53381 0.02861 0.28387 -0.03900
C 	C 	0.52693 0.50187 0.83227 0.03000
H 	H 	0.53022 0.21306 0.05624 0.05800
C 	C 	0.52820 0.76400 0.92152 0.09400
Ni	Ni	0.53251 0.50677 0.47173 1.10000
H 	H 	0.53205 0.71219 0.99691 0.05800
C 	C 	0.53453 0.13165 0.06359 0.07700
C 	C 	0.53626 0.03201 0.32314 0.01100
C 	C 	0.53458 0.66837 0.50727 0.02800
C 	C 	0.53670 0.80458 0.53747 -0.05900
O 	O 	0.53789 0.93466 0.47433 -0.36100
C 	C 	0.53625 0.30731 0.47308 -0.05700
C 	C 	0.53425 0.63061 0.00299 0.07900
H 	H 	0.53528 0.84585 0.93618 0.05300
O 	O 	0.53846 0.01990 0.52122 -0.70000
O 	O 	0.53885 0.98552 0.41122 -0.35500
H 	H 	0.53677 0.07975 0.77732 0.05800
C 	C 	0.53777 0.24198 0.54826 0.09400
O 	O 	0.00129 0.08308 0.46526 -0.42400
C 	C 	0.53759 0.51206 0.16913 0.02500
N 	N 	0.53773 0.62430 0.25166 -0.10900
C 	C 	0.53932 0.71229 0.50562 -0.05700
H 	H 	0.53775 0.52690 0.02630 0.17000
C 	C 	0.53963 0.35116 0.47324 0.02700
C 	C 	0.54006 0.51414 0.20855 -0.05600
H 	H 	0.53996 0.54493 0.53524 0.16200
C 	C 	0.54140 0.84837 0.53447 0.03200
Ni	Ni	0.54187 0.99921 0.46796 1.10000
C 	C 	0.54211 0.03079 0.66599 0.01000
C 	C 	0.54194 0.98545 0.16434 0.02600
H 	H 	0.54274 0.01950 0.02833 0.16700
Ni	Ni	0.54291 0.45829 0.05513 1.07300
C 	C 	0.54397 0.02805 0.70533 -0.03900
O 	O 	0.99962 0.42092 0.04046 -0.41100
C 	C 	0.99942 0.66344 0.02724 0.01900
C 	C 	0.99957 0.15903 0.04069 0.02000
C 	C 	0.99877 0.51449 0.39391 0.28700
C 	C 	0.99896 0.35829 0.00505 -0.07800
O 	O 	0.99701 0.46690 0.10385 -0.39800
C 	C 	0.99445 0.54105 0.21207 -0.03500
C 	C 	0.99258 0.53980 0.17260 0.00900
C 	C 	0.99833 0.02398 0.21210 -0.05600
C 	C 	0.99997 0.28006 0.48886 0.02400
C 	C 	0.99611 0.02464 0.17258 0.02100
C 	C 	0.99266 0.50474 0.35344 -0.07900
C 	C 	0.99382 0.77313 0.99058 0.02400
C 	C 	0.98970 0.27006 0.01138 0.02300
C 	C 	0.97901 0.50481 0.23285 0.02200
C 	C 	0.98392 0.50374 0.27442 0.02600
H 	H 	0.99918 0.94961 0.84413 0.04200
Ni	Ni	0.96853 0.99926 0.03100 1.09900
O 	O 	0.96894 0.00341 0.08891 -0.35600
O 	O 	0.96815 0.06338 0.03278 -0.35900
O 	O 	0.90973 0.03507 0.98013 -0.39000
O 	O 	0.97496 0.98826 0.97568 -0.69800
O 	O 	0.91028 0.98833 0.02864 -0.37000
O 	O 	0.99501 0.04261 0.90589 -0.39400
Ni	Ni	0.95417 0.03143 0.94654 1.07500
H 	H 	0.96226 0.95947 0.96814 0.16000
O 	O 	0.99025 0.07788 0.97433 -0.41600
C 	C 	0.99136 0.98535 0.11153 0.28500
C 	C 	0.98151 0.09080 0.00672 0.30000
C 	C 	0.89192 0.00333 0.00017 0.27900
Ni	Ni	0.98189 0.01511 0.53242 1.10000
O 	O 	0.98803 0.02992 0.58889 -0.35300
O 	O 	0.98350 0.07913 0.52579 -0.36000
O 	O 	0.92104 0.04701 0.48174 -0.40100
O 	O 	0.98284 0.99476 0.47866 -0.69600
O 	O 	0.92392 0.00715 0.53482 -0.36900
O 	O 	0.99662 0.03473 0.40171 -0.39900
Ni	Ni	0.96091 0.03460 0.44610 1.07100
H 	H 	0.96885 0.96546 0.47537 0.16100
C 	C 	0.99718 0.10160 0.49670 0.30200
C 	C 	0.90401 0.01931 0.50603 0.28500
Ni	Ni	0.96047 0.50476 0.03172 1.09900
O 	O 	0.96144 0.51667 0.08858 -0.36000
O 	O 	0.96307 0.56927 0.02661 -0.36300
O 	O 	0.90378 0.53827 0.97681 -0.39300
O 	O 	0.96606 0.48616 0.97816 -0.69800
O 	O 	0.90240 0.49689 0.02932 -0.37300
O 	O 	0.98682 0.52918 0.90376 -0.39600
Ni	Ni	0.94693 0.52715 0.94463 1.07500
H 	H 	0.95230 0.45702 0.97342 0.16100
O 	O 	0.98542 0.57501 0.96769 -0.41800
C 	C 	0.98120 0.49836 0.11363 0.28500
C 	C 	0.97811 0.59263 0.99853 0.30100
C 	C 	0.88477 0.50998 0.99942 0.28500
Ni	Ni	0.97124 0.50976 0.53485 1.10100
O 	O 	0.97713 0.51485 0.59266 -0.35500
O 	O 	0.97516 0.57460 0.53623 -0.35900
O 	O 	0.91194 0.55086 0.49021 -0.39700
O 	O 	0.97202 0.49725 0.47903 -0.69600
O 	O 	0.91334 0.50289 0.53756 -0.36400
O 	O 	0.98585 0.54656 0.40676 -0.39300
Ni	Ni	0.95087 0.54178 0.45211 1.07700
H 	H 	0.95751 0.46883 0.47263 0.16500
O 	O 	0.99243 0.58609 0.47582 -0.41800
C 	C 	0.99836 0.49351 0.61351 0.28500
C 	C 	0.98813 0.60064 0.50900 0.29900
C 	C 	0.89388 0.52096 0.51194 0.28500
Ni	Ni	0.54755 0.94534 0.04658 1.07300
O 	O 	0.58658 0.98643 0.96253 -0.36600
C 	C 	0.60521 0.96702 0.98781 0.28600
O 	O 	0.58632 0.93641 0.00832 -0.40400
Ni	Ni	0.55775 0.97940 0.55509 1.07100
O 	O 	0.59993 0.00539 0.46862 -0.36800
H 	H 	0.55290 0.04896 0.52490 0.16000
C 	C 	0.61814 0.99166 0.49786 0.28300
O 	O 	0.59898 0.96524 0.52192 -0.40100
O 	O 	0.57766 0.48616 0.96517 -0.36200
C 	C 	0.59857 0.47279 0.99276 0.28000
O 	O 	0.58209 0.44582 0.01829 -0.40200
Ni	Ni	0.54684 0.47203 0.55495 1.06700
O 	O 	0.59075 0.51605 0.47382 -0.36500
C 	C 	0.60869 0.49769 0.50052 0.28700
O 	O 	0.58970 0.46628 0.52013 -0.40200
C 	C 	0.56341 0.50487 0.85255 0.08300
N 	N 	0.59263 0.50728 0.86880 -0.09900
H 	H 	0.55187 0.50467 0.77778 0.05600
C 	C 	0.57204 0.51344 0.14877 0.05200
N 	N 	0.59961 0.51455 0.13245 -0.12900
H 	H 	0.56756 0.51587 0.22347 0.05800
C 	C 	0.56642 0.87423 0.56164 0.06600
C 	C 	0.56611 0.64829 0.49861 0.06700
N 	N 	0.58646 0.89482 0.58348 -0.12900
N 	N 	0.59134 0.63216 0.49169 -0.11400
H 	H 	0.56611 0.73084 0.49673 0.05800
H 	H 	0.55069 0.79055 0.56076 0.05800
C 	C 	0.57520 0.37719 0.46270 0.09000
N 	N 	0.60373 0.39795 0.45424 -0.09700
N 	N 	0.55325 0.26241 0.57287 -0.11300
H 	H 	0.55997 0.29342 0.46449 0.05700
N 	N 	0.56051 0.61660 0.01333 -0.11400
N 	N 	0.54537 0.74915 0.90020 -0.11000
C 	C 	0.55292 0.26289 0.97292 0.09500
N 	N 	0.57622 0.24743 0.96018 -0.10700
N 	N 	0.55381 0.11735 0.08522 -0.10700
H 	H 	0.55074 0.34487 0.97285 0.05000
C 	C 	0.54638 0.07960 0.85211 0.08500
C 	C 	0.58079 0.03096 0.72493 0.09100
N 	N 	0.56150 0.10760 0.87055 -0.10100
N 	N 	0.61028 0.03328 0.74065 -0.11000
H 	H 	0.56828 0.03522 0.65068 0.02000
C 	C 	0.54583 0.98672 0.20371 -0.05500
C 	C 	0.57576 0.98917 0.14259 0.05400
C 	C 	0.54555 0.06572 0.26111 0.09400
N 	N 	0.60284 0.99215 0.12516 -0.13100
N 	N 	0.55496 0.09543 0.24285 -0.10900
H 	H 	0.54719 0.06236 0.33608 0.04900
H 	H 	0.57394 0.98913 0.21754 0.05900
C 	C 	0.70947 0.51241 0.54219 -0.03900
C 	C 	0.73083 0.51181 0.50980 0.02400
C 	C 	0.71216 0.50832 0.47407 -0.05800
C 	C 	0.67234 0.50461 0.47037 0.03200
C 	C 	0.65090 0.50533 0.50285 -0.07900
C 	C 	0.66980 0.50965 0.53851 0.01100
C 	C 	0.77275 0.51390 0.51305 0.02200
C 	C 	0.78751 0.47709 0.50860 -0.05600
C 	C 	0.82712 0.47873 0.50933 0.02300
C 	C 	0.85234 0.51749 0.51536 -0.07500
C 	C 	0.83750 0.55408 0.52097 0.01500
C 	C 	0.79793 0.55258 0.51940 -0.03700
C 	C 	0.84158 0.44098 0.50179 0.06900
C 	C 	0.78340 0.59099 0.52359 0.09800
C 	C 	0.72800 0.51516 0.57932 0.09300
C 	C 	0.65369 0.49829 0.43337 0.09300
N 	N 	0.85309 0.41071 0.49563 -0.10700
N 	N 	0.77172 0.62173 0.52696 -0.10800
N 	N 	0.63876 0.49322 0.40374 -0.09600
N 	N 	0.74287 0.51738 0.60906 -0.11000
H 	H 	0.65342 0.51004 0.56350 0.01800
H 	H 	0.72863 0.50777 0.44916 0.05800
H 	H 	0.76811 0.44733 0.50374 0.05700
H 	H 	0.85684 0.58392 0.52566 0.05300
C 	C 	0.78244 0.50163 0.02686 -0.04000
C 	C 	0.76244 0.49226 0.99194 0.02500
C 	C 	0.78257 0.48740 0.95979 -0.05600
C 	C 	0.82247 0.49198 0.96212 0.02600
C 	C 	0.84262 0.50215 0.99693 -0.07800
C 	C 	0.82236 0.50654 0.02919 0.01700
C 	C 	0.72025 0.48662 0.98895 0.02200
C 	C 	0.70302 0.52191 0.98347 -0.05500
C 	C 	0.66316 0.51768 0.98345 0.02400
C 	C 	0.64020 0.47761 0.98879 -0.07500
C 	C 	0.65747 0.44210 0.99268 0.01300
C 	C 	0.69730 0.44642 0.99291 -0.03900
C 	C 	0.64618 0.55472 0.97896 0.07500
C 	C 	0.71448 0.40955 0.99780 0.09600
C 	C 	0.76215 0.50623 0.06042 0.09600
C 	C 	0.84244 0.48512 0.92889 0.05300
N 	N 	0.63261 0.58442 0.97532 -0.10500
N 	N 	0.72827 0.38004 0.00173 -0.11000
N 	N 	0.85845 0.47964 0.90229 -0.13300
N 	N 	0.74586 0.50990 0.08728 -0.11100
H 	H 	0.83774 0.51443 0.05597 0.05300
H 	H 	0.76709 0.47968 0.93303 0.05900
H 	H 	0.72074 0.55278 0.98003 0.05900
H 	H 	0.63987 0.41113 0.99600 0.04800
C 	C 	0.98746 0.45096 0.71235 -0.03800
C 	C 	0.99656 0.48806 0.73387 0.02200
C 	C 	0.99465 0.49258 0.65471 -0.07400
C 	C 	0.98575 0.45346 0.67305 0.01100
C 	C 	0.99784 0.48606 0.77553 0.02600
C 	C 	0.96561 0.47692 0.83473 0.01300
C 	C 	0.96380 0.47797 0.79535 -0.03900
C 	C 	0.92691 0.47201 0.77548 0.09600
C 	C 	0.98044 0.41014 0.73044 0.09500
N 	N 	0.89737 0.46722 0.75954 -0.10800
N 	N 	0.97481 0.37746 0.74496 -0.11000
H 	H 	0.97838 0.42480 0.65661 0.04900
H 	H 	0.93936 0.47169 0.84994 0.02500
C 	C 	0.95862 0.46926 0.21396 -0.05800
C 	C 	0.95581 0.46847 0.17460 0.02900
C 	C 	0.97474 0.50303 0.15377 -0.07700
C 	C 	0.95211 0.50317 0.29633 -0.05800
C 	C 	0.95612 0.50281 0.33565 0.02700
C 	C 	0.92252 0.49988 0.35763 0.05000
C 	C 	0.93345 0.43210 0.15571 0.08400
N 	N 	0.89564 0.49753 0.37525 -0.13300
N 	N 	0.91553 0.40298 0.14056 -0.10400
H 	H 	0.94537 0.44202 0.22996 0.05700
H 	H 	0.92421 0.50304 0.28271 0.05800
C 	C 	0.97611 0.80290 0.52393 -0.03700
C 	C 	0.98185 0.84665 0.51948 0.01400
C 	C 	0.99757 0.73422 0.51471 0.02900
C 	C 	0.97293 0.71119 0.48748 -0.05800
C 	C 	0.96789 0.66734 0.48671 0.03300
C 	C 	0.98856 0.64602 0.51298 -0.07900
C 	C 	0.94117 0.64446 0.45904 0.06600
C 	C 	0.94147 0.78101 0.54031 0.09500
N 	N 	0.91978 0.62631 0.43679 -0.12800
N 	N 	0.91374 0.76344 0.55342 -0.10700
H 	H 	0.96023 0.86367 0.52824 0.03700
H 	H 	0.95785 0.72756 0.46666 0.05900
C 	C 	0.97802 0.20708 0.46371 -0.04200
C 	C 	0.99890 0.23421 0.49110 0.02500
C 	C 	0.99727 0.14712 0.49589 -0.08200
C 	C 	0.97721 0.16380 0.46628 0.02000
C 	C 	0.97108 0.29694 0.50508 -0.05900
C 	C 	0.97228 0.34041 0.50457 0.03000
C 	C 	0.94205 0.35700 0.52140 0.07400
C 	C 	0.95751 0.22351 0.43272 0.09500
N 	N 	0.91791 0.37026 0.53501 -0.10500
N 	N 	0.94109 0.23671 0.40792 -0.11100
H 	H 	0.96096 0.14295 0.44520 0.03000
H 	H 	0.94786 0.27620 0.51843 0.05900
C 	C 	0.80332 0.01383 0.53745 -0.03900
C 	C 	0.78185 0.00302 0.50349 0.02100
C 	C 	0.80037 0.99465 0.47125 -0.05500
C 	C 	0.84013 0.99781 0.47233 0.02600
C 	C 	0.86186 0.01027 0.50588 -0.08200
C 	C 	0.84318 0.01742 0.53848 0.01700
C 	C 	0.73980 0.99988 0.50149 0.02400
C 	C 	0.72437 0.03639 0.49567 -0.05700
C 	C 	0.68464 0.03408 0.49367 0.02100
C 	C 	0.65997 0.99471 0.49715 -0.07700
C 	C 	0.67552 0.95813 0.50232 0.01300
C 	C 	0.71520 0.96055 0.50469 -0.03900
C 	C 	0.66948 0.07233 0.48918 0.06800
C 	C 	0.73048 0.92258 0.51083 0.09500
C 	C 	0.78465 0.02138 0.57129 0.09600
C 	C 	0.85839 0.98745 0.43909 0.04700
N 	N 	0.65734 0.10298 0.48559 -0.11300
N 	N 	0.74276 0.89218 0.51575 -0.11000
N 	N 	0.87303 0.97917 0.41249 -0.13600
N 	N 	0.76966 0.02743 0.59838 -0.11200
H 	H 	0.85976 0.02677 0.56437 0.05500
H 	H 	0.78375 0.98555 0.44533 0.05800
H 	H 	0.74334 0.06664 0.49305 0.05700
H 	H 	0.65667 0.92778 0.50478 0.05100
C 	C 	0.98831 0.72667 0.99398 0.02700
C 	C 	0.96684 0.70162 0.96584 -0.05900
C 	C 	0.96139 0.65773 0.96823 0.03400
C 	C 	0.97887 0.63841 0.99847 -0.08300
C 	C 	0.97001 0.83846 0.99554 0.01600
C 	C 	0.96382 0.79447 0.99767 -0.04000
C 	C 	0.92700 0.77154 0.00841 0.09300
C 	C 	0.93699 0.63274 0.94005 0.06800
N 	N 	0.89752 0.75314 0.01701 -0.10900
N 	N 	0.91745 0.61280 0.91743 -0.12500
H 	H 	0.95409 0.71637 0.94219 0.05900
H 	H 	0.94722 0.85487 0.00216 0.03200
C 	C 	0.98456 0.22350 0.01275 0.02600
C 	C 	0.96267 0.19983 0.98402 -0.05700
C 	C 	0.95944 0.15610 0.98314 0.03400
C 	C 	0.97912 0.13558 0.01092 -0.08200
C 	C 	0.96431 0.33442 0.01674 0.01100
C 	C 	0.95966 0.29059 0.02030 -0.03800
C 	C 	0.92428 0.26698 0.03386 0.09500
C 	C 	0.93567 0.13250 0.95373 0.06800
N 	N 	0.89595 0.24803 0.04472 -0.10800
N 	N 	0.91664 0.11376 0.93009 -0.12500
H 	H 	0.94838 0.21560 0.96211 0.05900
H 	H 	0.94131 0.35015 0.02410 0.04000
C 	C 	0.70331 0.93879 0.98627 -0.03900
C 	C 	0.72720 0.97872 0.98951 0.02400
C 	C 	0.71095 0.01495 0.99028 -0.05600
C 	C 	0.67112 0.01163 0.98890 0.02400
C 	C 	0.64715 0.97160 0.98626 -0.07800
C 	C 	0.66350 0.93545 0.98451 0.01400
C 	C 	0.76936 0.98287 0.99268 0.02400
C 	C 	0.78985 0.98259 0.95994 -0.05500
C 	C 	0.82979 0.98746 0.96220 0.02400
C 	C 	0.84968 0.99342 0.99761 -0.07400
C 	C 	0.82903 0.99257 0.03046 0.01400
C 	C 	0.78903 0.98726 0.02817 -0.03900
C 	C 	0.85010 0.98541 0.92816 0.05400
C 	C 	0.76837 0.98644 0.06233 0.09600
C 	C 	0.71945 0.90108 0.98528 0.09400
C 	C 	0.65512 0.04930 0.99159 0.07200
N 	N 	0.86638 0.98377 0.90090 -0.13300
N 	N 	0.75179 0.98579 0.08968 -0.11000
N 	N 	0.64230 0.07947 0.99375 -0.10700
N 	N 	0.73241 0.87089 0.98449 -0.11000
H 	H 	0.64518 0.90466 0.98215 0.04800
H 	H 	0.72937 0.04568 0.99260 0.06000
H 	H 	0.77464 0.97853 0.93269 0.05900
H 	H 	0.84414 0.99697 0.05774 0.05400
C 	C 	0.98355 0.02149 0.71283 -0.05500
C 	C 	0.98053 0.02123 0.67337 0.03100
C 	C 	0.94302 0.01437 0.65470 0.08800
C 	C 	0.99879 0.94408 0.76913 0.09600
N 	N 	0.91295 0.00887 0.63976 -0.10100
N 	N 	0.98969 0.91374 0.75147 -0.10900
H 	H 	0.95789 0.01727 0.72889 0.05700
C 	C 	0.98070 0.94758 0.21167 -0.03800
C 	C 	0.99147 0.98556 0.23174 0.02100
C 	C 	0.98669 0.98649 0.15250 -0.07600
C 	C 	0.97763 0.94832 0.17231 0.01200
C 	C 	0.99626 0.98535 0.27336 0.02600
C 	C 	0.96937 0.98008 0.33529 0.01200
C 	C 	0.96418 0.97905 0.29603 -0.03900
C 	C 	0.92587 0.97277 0.27919 0.09500
C 	C 	0.97369 0.90763 0.23125 0.09500
N 	N 	0.89519 0.96774 0.26568 -0.10900
N 	N 	0.96808 0.87565 0.24696 -0.10900
H 	H 	0.96957 0.91898 0.15695 0.04900
H 	H 	0.94463 0.97620 0.35266 0.02500
