data_crystal

_cell_length_a 23.39079
_cell_length_b 26.47712
_cell_length_c 27.40969
_cell_angle_alpha 80.75904
_cell_angle_beta  97.87313
_cell_angle_gamma 81.85564

_symmetry_space_group_name_	'P 1'
_symmetry_space_group_name_H-M	'P 1'

loop_
_symmetry_equiv_pos_as_xyz
  x,y,z

loop_
_atom_site_label
_atom_site_type_symbol
_atom_site_fract_x
_atom_site_fract_y
_atom_site_fract_z
_atom_site_charge
Zn	Zn	0.99674 0.97633 0.95681 1.21500
Zn	Zn	0.97423 0.93721 0.07200 1.18800
C 	C 	0.97016 0.15876 0.98510 0.33200
Zn	Zn	0.94585 0.05125 0.02419 1.21800
Zn	Zn	0.98027 0.08910 0.91059 1.19100
H 	H 	0.04564 0.99608 0.04733 0.17700
C 	C 	0.85032 0.99208 0.01610 0.29200
O 	O 	0.01591 0.05454 0.86106 -0.45000
O 	O 	0.98283 0.97763 0.87783 -0.40800
O 	O 	0.00706 0.99069 0.03113 -0.77500
O 	O 	0.00237 0.87428 0.04598 -0.45000
O 	O 	0.07955 0.98271 0.95437 -0.43600
O 	O 	0.97392 0.90662 0.96189 -0.44600
O 	O 	0.06350 0.06812 0.96203 -0.42200
O 	O 	0.93467 0.96896 0.12122 -0.47900
H 	H 	0.90211 0.03743 0.93086 0.17600
O 	O 	0.95901 0.04928 0.10357 -0.41000
O 	O 	0.94048 0.04031 0.94927 -0.80200
O 	O 	0.96101 0.15282 0.93810 -0.48300
O 	O 	0.86548 0.03607 0.02585 -0.43600
O 	O 	0.95802 0.12469 0.02148 -0.44700
O 	O 	0.89035 0.95017 0.02123 -0.42400
C 	C 	0.99715 0.01443 0.84584 0.28500
C 	C 	0.99101 0.86721 0.99955 0.30800
C 	C 	0.09979 0.02470 0.96376 0.30300
C 	C 	0.94938 0.01060 0.13622 0.30800
Zn	Zn	0.01621 0.96668 0.46054 1.22600
Zn	Zn	0.97880 0.92947 0.57272 1.19000
C 	C 	0.96299 0.15099 0.47971 0.33300
Zn	Zn	0.96106 0.04146 0.52578 1.21800
Zn	Zn	0.97339 0.08041 0.40877 1.19200
H 	H 	0.05809 0.97969 0.55354 0.17400
C 	C 	0.85903 0.99295 0.51903 0.29900
O 	O 	0.01737 0.05078 0.36105 -0.46900
O 	O 	0.00407 0.96688 0.38153 -0.39900
O 	O 	0.01943 0.97836 0.53460 -0.78400
O 	O 	0.99515 0.86455 0.54626 -0.50000
O 	O 	0.09217 0.99085 0.45742 -0.43600
O 	O 	0.01720 0.89039 0.46706 -0.43700
O 	O 	0.05642 0.07610 0.45762 -0.41200
O 	O 	0.94345 0.96540 0.62195 -0.47900
H 	H 	0.91371 0.01287 0.43826 0.18200
O 	O 	0.97617 0.04232 0.60380 -0.41400
O 	O 	0.95013 0.02349 0.45275 -0.80500
O 	O 	0.94087 0.14159 0.43609 -0.48300
O 	O 	0.87916 0.03440 0.53000 -0.44100
O 	O 	0.98142 0.11284 0.51840 -0.44500
O 	O 	0.89532 0.94934 0.52173 -0.43300
C 	C 	0.00948 0.00655 0.34780 0.33900
C 	C 	0.00144 0.85578 0.50111 0.34900
C 	C 	0.10049 0.03726 0.46556 0.30100
C 	C 	0.96221 0.00593 0.63637 0.31300
Zn	Zn	0.03104 0.46571 0.96200 1.22700
Zn	Zn	0.00076 0.44105 0.07701 1.20300
C 	C 	0.01967 0.65364 0.97787 0.30900
Zn	Zn	0.99698 0.55106 0.02535 1.21200
Zn	Zn	0.03572 0.57463 0.91181 1.20000
H 	H 	0.08617 0.48178 0.05245 0.17600
C 	C 	0.88811 0.51135 0.01658 0.30100
O 	O 	0.06612 0.53116 0.86605 -0.46600
O 	O 	0.01550 0.46480 0.88338 -0.39000
O 	O 	0.04578 0.48248 0.03555 -0.78000
O 	O 	0.01557 0.37445 0.05402 -0.46100
O 	O 	0.11558 0.46039 0.95925 -0.44000
O 	O 	0.99618 0.40096 0.96853 -0.44600
O 	O 	0.11530 0.54528 0.96612 -0.41900
O 	O 	0.96539 0.48328 0.12145 -0.46700
H 	H 	0.94684 0.53990 0.93302 0.17400
O 	O 	0.01073 0.55282 0.10419 -0.36500
O 	O 	0.98680 0.53624 0.95167 -0.81200
O 	O 	0.02886 0.64269 0.93409 -0.46100
O 	O 	0.91224 0.55181 0.02552 -0.44700
O 	O 	0.02843 0.61708 0.01818 -0.42700
O 	O 	0.92058 0.46512 0.02257 -0.43900
C 	C 	0.03928 0.49457 0.85152 0.29800
C 	C 	0.99755 0.36589 0.00908 0.30500
C 	C 	0.14395 0.49769 0.97024 0.29500
C 	C 	0.99089 0.52021 0.13654 0.24000
Zn	Zn	0.05169 0.45463 0.46016 1.22100
Zn	Zn	0.02776 0.41597 0.57574 1.20200
C 	C 	0.02227 0.64045 0.48685 0.31300
Zn	Zn	0.00916 0.53112 0.52888 1.22600
Zn	Zn	0.04565 0.56727 0.41560 1.19800
H 	H 	0.10376 0.46834 0.55186 0.17500
C 	C 	0.90764 0.48008 0.51945 0.30000
O 	O 	0.07945 0.53018 0.36698 -0.46800
O 	O 	0.03712 0.45817 0.38063 -0.39800
O 	O 	0.06405 0.46664 0.53521 -0.79200
O 	O 	0.04786 0.35310 0.54608 -0.46700
O 	O 	0.13599 0.45609 0.45943 -0.44200
O 	O 	0.02058 0.38838 0.46247 -0.43400
O 	O 	0.12812 0.54171 0.46698 -0.42100
O 	O 	0.99083 0.44992 0.62543 -0.49200
H 	H 	0.96148 0.52207 0.43598 0.15100
O 	O 	0.02205 0.52774 0.60844 -0.40500
O 	O 	0.00131 0.52172 0.45371 -0.77400
O 	O 	0.03366 0.63249 0.44264 -0.46200
O 	O 	0.92708 0.52234 0.52964 -0.45500
O 	O 	0.03035 0.60194 0.52569 -0.43700
O 	O 	0.94375 0.43552 0.52595 -0.43200
C 	C 	0.05542 0.49343 0.34985 0.30000
C 	C 	0.02933 0.34847 0.49978 0.31600
C 	C 	0.15997 0.49515 0.47263 0.29500
C 	C 	0.00739 0.49102 0.64039 0.32800
Zn	Zn	0.49457 0.94351 0.96994 1.22000
Zn	Zn	0.45944 0.91879 0.08597 1.19600
C 	C 	0.48622 0.13029 0.98725 0.32800
Zn	Zn	0.46040 0.02801 0.03415 1.22200
Zn	Zn	0.48723 0.05483 0.91830 1.19800
H 	H 	0.54580 0.95636 0.06045 0.17700
C 	C 	0.34767 0.99513 0.03205 0.29600
O 	O 	0.51923 0.01373 0.87154 -0.45900
O 	O 	0.47841 0.94161 0.89104 -0.39600
O 	O 	0.50547 0.95825 0.04349 -0.80000
O 	O 	0.46393 0.85154 0.06252 -0.46900
O 	O 	0.57945 0.94486 0.96807 -0.43400
O 	O 	0.46626 0.87612 0.97858 -0.44000
O 	O 	0.57040 0.03194 0.96990 -0.41800
O 	O 	0.43322 0.96153 0.13406 -0.47100
H 	H 	0.40384 0.01196 0.94532 0.17900
O 	O 	0.47993 0.02955 0.11248 -0.40500
O 	O 	0.44466 0.01174 0.96081 -0.79000
O 	O 	0.47286 0.12219 0.94132 -0.47400
O 	O 	0.37613 0.03379 0.03831 -0.44100
O 	O 	0.49607 0.09204 0.02617 -0.44700
O 	O 	0.37643 0.94772 0.03579 -0.42000
C 	C 	0.49323 0.97654 0.85742 0.29700
C 	C 	0.47582 0.84018 0.01954 0.31500
C 	C 	0.60324 0.98573 0.97642 0.29100
C 	C 	0.46114 0.99826 0.14671 0.30200
Zn	Zn	0.50378 0.95199 0.46707 1.22100
Zn	Zn	0.44133 0.92184 0.56990 1.19300
C 	C 	0.49535 0.13269 0.50133 0.32000
Zn	Zn	0.46492 0.02971 0.53687 1.22100
Zn	Zn	0.49579 0.06710 0.42449 1.19700
H 	H 	0.54066 0.94806 0.56578 0.17400
C 	C 	0.34549 0.01565 0.51695 0.30900
O 	O 	0.53478 0.03233 0.37662 -0.46900
O 	O 	0.49471 0.95868 0.38748 -0.40700
O 	O 	0.50286 0.95722 0.54285 -0.79300
O 	O 	0.43382 0.86576 0.53021 -0.45600
O 	O 	0.58850 0.95635 0.47255 -0.44500
O 	O 	0.48447 0.88181 0.46533 -0.43200
O 	O 	0.57559 0.04214 0.47931 -0.42000
O 	O 	0.41639 0.96013 0.62203 -0.46100
H 	H 	0.41397 0.01840 0.44293 0.18400
O 	O 	0.47460 0.02261 0.61678 -0.39200
O 	O 	0.45312 0.01910 0.46106 -0.79500
O 	O 	0.47745 0.12961 0.45451 -0.47600
O 	O 	0.37984 0.04650 0.53328 -0.44400
O 	O 	0.50676 0.09086 0.53693 -0.43200
O 	O 	0.36684 0.96714 0.51616 -0.42000
C 	C 	0.51490 0.99413 0.35845 0.30400
C 	C 	0.47225 0.84948 0.50288 0.29700
C 	C 	0.61005 0.99719 0.48381 0.30000
C 	C 	0.45005 0.98859 0.64388 0.29400
Zn	Zn	0.54828 0.44183 0.97563 1.22200
Zn	Zn	0.50889 0.40404 0.08683 1.19400
C 	C 	0.50515 0.62563 0.00171 0.32700
Zn	Zn	0.49834 0.51641 0.04372 1.22100
Zn	Zn	0.51995 0.55638 0.92910 1.19800
H 	H 	0.59208 0.45248 0.06965 0.17700
C 	C 	0.39350 0.47358 0.03090 0.30100
O 	O 	0.56344 0.52592 0.88214 -0.47700
O 	O 	0.53807 0.44583 0.89612 -0.40400
O 	O 	0.55314 0.45157 0.05086 -0.79600
O 	O 	0.52542 0.34064 0.05820 -0.47600
O 	O 	0.62841 0.45738 0.97562 -0.43800
O 	O 	0.53727 0.36863 0.97691 -0.43800
O 	O 	0.60208 0.54278 0.98133 -0.42500
O 	O 	0.47263 0.43944 0.13593 -0.46800
H 	H 	0.44955 0.49680 0.95161 0.17300
O 	O 	0.51154 0.51372 0.12269 -0.40300
O 	O 	0.48739 0.50258 0.96892 -0.79400
O 	O 	0.49062 0.61835 0.95576 -0.47900
O 	O 	0.41593 0.51194 0.04657 -0.44500
O 	O 	0.52224 0.58622 0.03940 -0.44000
O 	O 	0.42725 0.42856 0.03345 -0.43100
C 	C 	0.55113 0.48452 0.86552 0.30800
C 	C 	0.51884 0.33604 0.01077 0.32200
C 	C 	0.64277 0.50162 0.98521 0.29800
C 	C 	0.49345 0.47783 0.15300 0.30400
Zn	Zn	0.54939 0.44463 0.47611 1.22100
Zn	Zn	0.52695 0.41236 0.59216 1.19600
C 	C 	0.52165 0.63190 0.49581 0.30700
Zn	Zn	0.51191 0.52520 0.54248 1.22300
Zn	Zn	0.54195 0.55772 0.42570 1.19700
H 	H 	0.60644 0.45994 0.56490 0.17900
C 	C 	0.40896 0.47712 0.53288 0.29200
O 	O 	0.56587 0.51819 0.37498 -0.47300
O 	O 	0.52851 0.44448 0.39803 -0.40400
O 	O 	0.56568 0.45969 0.54983 -0.79700
O 	O 	0.54692 0.34656 0.56773 -0.47600
O 	O 	0.63338 0.44395 0.47023 -0.44100
O 	O 	0.51785 0.37804 0.48367 -0.43900
O 	O 	0.62797 0.53095 0.47134 -0.41700
O 	O 	0.48958 0.44960 0.63915 -0.47100
H 	H 	0.46059 0.51435 0.45224 0.17100
O 	O 	0.52492 0.52498 0.62097 -0.40700
O 	O 	0.50124 0.51325 0.46843 -0.79900
O 	O 	0.53812 0.62335 0.45330 -0.45800
O 	O 	0.42975 0.51831 0.54428 -0.44500
O 	O 	0.53425 0.59521 0.53618 -0.43700
O 	O 	0.44331 0.43139 0.54109 -0.41700
C 	C 	0.54000 0.47996 0.36310 0.30300
C 	C 	0.53172 0.33888 0.52193 0.32500
C 	C 	0.65913 0.48414 0.47697 0.29800
C 	C 	0.50675 0.49086 0.65309 0.30600
C 	C 	0.54107 0.48566 0.81117 -0.10300
C 	C 	0.57933 0.50575 0.77988 0.05600
C 	C 	0.56459 0.51079 0.72784 -0.03700
C 	C 	0.51377 0.49498 0.70646 -0.09800
C 	C 	0.47402 0.47771 0.73748 0.05200
C 	C 	0.48879 0.47219 0.78957 -0.03500
H 	H 	0.59441 0.52483 0.70399 0.04000
H 	H 	0.45849 0.45877 0.81337 0.03200
C 	C 	0.63877 0.51726 0.80103 -0.11400
C 	C 	0.41514 0.46594 0.71581 -0.11100
C 	C 	0.64359 0.57516 0.78710 -0.01400
H 	H 	0.62450 0.59095 0.74725 0.02500
H 	H 	0.69054 0.57905 0.79106 0.01900
C 	C 	0.41611 0.40705 0.72225 -0.01400
H 	H 	0.42099 0.39019 0.76276 0.02400
H 	H 	0.45391 0.38819 0.70744 0.02700
H 	H 	0.65123 0.50358 0.84202 0.06400
H 	H 	0.40150 0.48481 0.67585 0.06300
C 	C 	0.61429 0.60855 0.82017 -0.15500
C 	C 	0.35998 0.39435 0.69515 -0.16100
H 	H 	0.63367 0.59432 0.86021 0.05700
H 	H 	0.62132 0.64922 0.80970 0.04700
H 	H 	0.56643 0.60827 0.81478 0.05000
H 	H 	0.67248 0.49461 0.78451 0.04300
H 	H 	0.32137 0.41205 0.70974 0.05100
H 	H 	0.36177 0.35163 0.70145 0.05000
H 	H 	0.35518 0.40891 0.65420 0.05900
H 	H 	0.38105 0.48289 0.73589 0.04200
C 	C 	0.52647 0.47547 0.31046 -0.09800
C 	C 	0.56704 0.44646 0.28755 0.05800
C 	C 	0.55492 0.44738 0.23589 -0.03400
C 	C 	0.50340 0.47683 0.20703 -0.09800
C 	C 	0.46115 0.50316 0.23044 0.05400
C 	C 	0.47341 0.50252 0.28210 -0.03400
H 	H 	0.58589 0.42529 0.21801 0.01600
H 	H 	0.44148 0.52306 0.30031 0.01900
C 	C 	0.62446 0.41579 0.31731 -0.11600
C 	C 	0.40085 0.52773 0.20190 -0.11200
C 	C 	0.67726 0.44059 0.30443 -0.01100
H 	H 	0.68024 0.44173 0.26433 0.01900
H 	H 	0.71760 0.41548 0.32635 0.01800
C 	C 	0.35888 0.48808 0.20446 -0.01900
H 	H 	0.35528 0.47398 0.24423 0.02500
H 	H 	0.37609 0.45423 0.18829 0.03800
H 	H 	0.62523 0.41008 0.35842 0.06100
H 	H 	0.40279 0.54368 0.16221 0.06000
C 	C 	0.67503 0.49547 0.31578 -0.16300
C 	C 	0.29785 0.51166 0.17572 -0.15800
H 	H 	0.67623 0.49475 0.35651 0.07000
H 	H 	0.71341 0.51160 0.30424 0.05100
H 	H 	0.63509 0.52167 0.29445 0.06800
H 	H 	0.62992 0.37613 0.30822 0.04200
H 	H 	0.27911 0.54536 0.19134 0.05300
H 	H 	0.26863 0.48211 0.17902 0.05100
H 	H 	0.29974 0.52432 0.13544 0.06000
H 	H 	0.38338 0.56125 0.21846 0.04300
C 	C 	0.48528 0.79340 0.50289 -0.08900
C 	C 	0.54285 0.76523 0.51870 0.04000
C 	C 	0.55308 0.71150 0.51923 -0.02100
C 	C 	0.50763 0.68615 0.50217 -0.09000
C 	C 	0.45015 0.71418 0.48678 0.04300
C 	C 	0.43939 0.76747 0.48804 -0.02500
H 	H 	0.59689 0.68959 0.53185 0.04000
H 	H 	0.39517 0.78893 0.47701 0.04300
C 	C 	0.59383 0.79157 0.53586 -0.10400
C 	C 	0.39940 0.68721 0.47113 -0.10700
C 	C 	0.63927 0.79181 0.50024 -0.02000
H 	H 	0.65692 0.75146 0.49701 0.02600
H 	H 	0.67654 0.80894 0.51656 0.02300
C 	C 	0.37584 0.66204 0.51704 -0.02400
H 	H 	0.36196 0.69209 0.53904 0.02900
H 	H 	0.41079 0.63228 0.54148 0.03000
H 	H 	0.57983 0.83189 0.54118 0.02800
H 	H 	0.41280 0.65746 0.44868 0.02900
C 	C 	0.61465 0.82335 0.44798 -0.15700
C 	C 	0.32352 0.63615 0.50173 -0.15700
H 	H 	0.59732 0.86391 0.45030 0.06100
H 	H 	0.65003 0.82393 0.42480 0.05300
H 	H 	0.57926 0.80587 0.42918 0.06700
H 	H 	0.61600 0.76995 0.57341 0.03900
H 	H 	0.28743 0.66511 0.47780 0.05300
H 	H 	0.30719 0.61900 0.53576 0.05800
H 	H 	0.33650 0.60479 0.48094 0.05700
H 	H 	0.36357 0.71580 0.44624 0.04400
C 	C 	0.50886 0.18266 0.51263 -0.09300
C 	C 	0.47181 0.21322 0.53741 0.05300
C 	C 	0.47914 0.26475 0.53885 -0.02700
C 	C 	0.52140 0.28674 0.51480 -0.09500
C 	C 	0.55761 0.25660 0.48917 0.05300
C 	C 	0.55253 0.20419 0.49012 -0.02900
H 	H 	0.45166 0.28790 0.55872 0.03400
H 	H 	0.58077 0.18075 0.47106 0.03300
C 	C 	0.42376 0.19181 0.56215 -0.11500
C 	C 	0.60050 0.28022 0.45933 -0.11700
C 	C 	0.36245 0.21308 0.53163 -0.01500
H 	H 	0.35501 0.25623 0.52378 0.02600
H 	H 	0.32937 0.20084 0.55451 0.02400
C 	C 	0.65814 0.28190 0.49293 -0.01700
H 	H 	0.67986 0.24171 0.51042 0.02400
H 	H 	0.64956 0.30362 0.52336 0.02500
H 	H 	0.43068 0.14877 0.57003 0.05900
H 	H 	0.58047 0.31983 0.43887 0.06000
C 	C 	0.35244 0.19324 0.48230 -0.16000
C 	C 	0.69967 0.30828 0.46289 -0.16300
H 	H 	0.36113 0.15016 0.48912 0.06100
H 	H 	0.30620 0.20662 0.46395 0.05300
H 	H 	0.38114 0.20866 0.45650 0.06400
H 	H 	0.42499 0.20338 0.59948 0.04700
H 	H 	0.71280 0.28526 0.43455 0.05300
H 	H 	0.73956 0.31148 0.48845 0.05400
H 	H 	0.67839 0.34802 0.44368 0.06200
H 	H 	0.61026 0.25721 0.42998 0.04600
C 	C 	0.48239 0.78549 0.01424 -0.09400
C 	C 	0.43524 0.75745 0.01723 0.06000
C 	C 	0.44432 0.70462 0.01439 -0.02800
C 	C 	0.49974 0.67881 0.01117 -0.10000
C 	C 	0.54714 0.70642 0.00937 0.05800
C 	C 	0.53769 0.75983 0.01010 -0.03500
H 	H 	0.40768 0.68380 0.01346 0.03200
H 	H 	0.57370 0.78136 0.00796 0.02900
C 	C 	0.37442 0.78340 0.02208 -0.11400
C 	C 	0.60736 0.68004 0.00417 -0.12000
C 	C 	0.35462 0.76045 0.07101 -0.01500
H 	H 	0.35161 0.71886 0.07194 0.02200
H 	H 	0.30997 0.78096 0.07178 0.02100
C 	C 	0.61449 0.68514 0.94882 -0.00900
H 	H 	0.60673 0.72685 0.93100 0.02500
H 	H 	0.58196 0.66574 0.92866 0.01800
H 	H 	0.37004 0.82611 0.01890 0.06600
H 	H 	0.61556 0.63845 0.02230 0.06400
C 	C 	0.39514 0.76551 0.11807 -0.15400
C 	C 	0.67578 0.66071 0.94304 -0.16800
H 	H 	0.39845 0.80677 0.11855 0.05000
H 	H 	0.37709 0.75003 0.15174 0.04700
H 	H 	0.43950 0.74300 0.12013 0.06200
H 	H 	0.34295 0.77725 0.99018 0.04700
H 	H 	0.70950 0.67912 0.96295 0.05600
H 	H 	0.67987 0.66637 0.90272 0.05100
H 	H 	0.68373 0.61846 0.95824 0.06700
H 	H 	0.64128 0.69822 0.02426 0.04700
C 	C 	0.49506 0.18246 0.99470 -0.10100
C 	C 	0.55189 0.19371 0.00846 0.05800
C 	C 	0.55904 0.24536 0.00881 -0.02900
C 	C 	0.51045 0.28514 0.99935 -0.09000
C 	C 	0.45366 0.27389 0.98629 0.04700
C 	C 	0.44671 0.22271 0.98298 -0.02600
H 	H 	0.60251 0.25430 0.01870 0.03800
H 	H 	0.40346 0.21411 0.97135 0.03000
C 	C 	0.60537 0.15120 0.02405 -0.11900
C 	C 	0.40033 0.31639 0.97430 -0.11200
C 	C 	0.62932 0.14296 0.08040 -0.00900
H 	H 	0.63938 0.18000 0.09080 0.02200
H 	H 	0.67114 0.11507 0.08840 0.02200
C 	C 	0.39346 0.34611 0.92036 -0.02000
H 	H 	0.38809 0.31888 0.89375 0.02700
H 	H 	0.43319 0.36348 0.91484 0.03500
H 	H 	0.59775 0.11361 0.01379 0.06900
H 	H 	0.40328 0.34351 0.00115 0.05500
C 	C 	0.58732 0.12161 0.11337 -0.16300
C 	C 	0.34036 0.38951 0.90816 -0.16000
H 	H 	0.57872 0.08341 0.10534 0.07400
H 	H 	0.60734 0.11623 0.15338 0.05500
H 	H 	0.54530 0.14895 0.10734 0.07100
H 	H 	0.64031 0.16291 0.00310 0.04900
H 	H 	0.29963 0.37345 0.91267 0.05500
H 	H 	0.33635 0.40965 0.86875 0.04900
H 	H 	0.34551 0.41829 0.93307 0.06000
H 	H 	0.36022 0.29926 0.97909 0.04500
C 	C 	0.47617 0.97682 0.80357 -0.09000
C 	C 	0.43784 0.01953 0.77220 0.04000
C 	C 	0.43208 0.02379 0.71994 -0.01900
C 	C 	0.45849 0.98358 0.69883 -0.09100
C 	C 	0.49073 0.93786 0.73050 0.04300
C 	C 	0.50149 0.93599 0.78255 -0.02600
H 	H 	0.40478 0.05750 0.69574 0.03700
H 	H 	0.52952 0.90266 0.80669 0.03900
C 	C 	0.39824 0.05786 0.79370 -0.08800
C 	C 	0.51258 0.89042 0.70945 -0.10200
C 	C 	0.33559 0.04574 0.79056 -0.03000
H 	H 	0.31780 0.04322 0.75143 0.02900
H 	H 	0.30725 0.07824 0.80115 0.01800
C 	C 	0.56917 0.89574 0.68808 -0.04100
H 	H 	0.60520 0.89576 0.71907 0.03100
H 	H 	0.56359 0.93286 0.66118 0.01600
H 	H 	0.41533 0.06011 0.83293 -0.01300
H 	H 	0.47819 0.88339 0.68036 0.01600
C 	C 	0.33200 0.99552 0.82550 -0.15400
C 	C 	0.58634 0.85115 0.66099 -0.14600
H 	H 	0.34995 0.99710 0.86477 0.04100
H 	H 	0.28554 0.99032 0.82367 0.04900
H 	H 	0.35648 0.96153 0.81398 0.06500
H 	H 	0.39620 0.09745 0.77183 0.03300
H 	H 	0.59252 0.81327 0.68694 0.04700
H 	H 	0.62802 0.85522 0.64689 0.04300
H 	H 	0.55193 0.85170 0.62855 0.00800
H 	H 	0.52105 0.85518 0.73933 0.04300
C 	C 	0.50561 0.99632 0.30394 -0.10200
C 	C 	0.52982 0.95467 0.28249 0.05800
C 	C 	0.51571 0.95683 0.23067 -0.03300
C 	C 	0.47826 0.99964 0.20009 -0.10000
C 	C 	0.45533 0.04184 0.22132 0.05500
C 	C 	0.46970 0.03989 0.27307 -0.02900
H 	H 	0.53336 0.92466 0.21417 0.01300
H 	H 	0.45091 0.07155 0.28970 0.01400
C 	C 	0.57216 0.90831 0.31386 -0.11800
C 	C 	0.41037 0.08633 0.19034 -0.11500
C 	C 	0.63642 0.91435 0.31311 -0.01200
H 	H 	0.64368 0.92642 0.27399 0.02000
H 	H 	0.66440 0.87595 0.32823 0.01700
C 	C 	0.34837 0.07342 0.18980 -0.01700
H 	H 	0.33588 0.07377 0.22742 0.02100
H 	H 	0.34706 0.03399 0.18121 0.03400
H 	H 	0.56423 0.89979 0.35302 0.06400
H 	H 	0.41970 0.09574 0.15158 0.06300
C 	C 	0.65612 0.95310 0.34487 -0.16500
C 	C 	0.30356 0.11238 0.15102 -0.16100
H 	H 	0.64756 0.94268 0.38380 0.07000
H 	H 	0.70384 0.95235 0.34621 0.05200
H 	H 	0.63327 0.99306 0.32816 0.06800
H 	H 	0.56472 0.87300 0.29839 0.04400
H 	H 	0.30428 0.15241 0.15824 0.05100
H 	H 	0.25907 0.10304 0.15323 0.05000
H 	H 	0.31303 0.11041 0.11267 0.06100
H 	H 	0.41299 0.12210 0.20642 0.04300
C 	C 	0.84409 0.48114 0.50718 -0.09100
C 	C 	0.81970 0.45777 0.46784 0.04900
C 	C 	0.75978 0.45380 0.46231 -0.03200
C 	C 	0.72329 0.47683 0.49215 -0.09200
C 	C 	0.74823 0.49905 0.53201 0.05200
C 	C 	0.80788 0.50252 0.53785 -0.03100
H 	H 	0.74110 0.43454 0.43345 0.03800
H 	H 	0.82692 0.51930 0.56850 0.04200
C 	C 	0.85665 0.43735 0.43117 -0.10900
C 	C 	0.71422 0.51255 0.57278 -0.11300
C 	C 	0.83383 0.46294 0.37627 -0.02700
H 	H 	0.78974 0.45425 0.36475 0.02500
H 	H 	0.86292 0.44555 0.35233 0.02400
C 	C 	0.72770 0.46796 0.61819 -0.02500
H 	H 	0.77518 0.46109 0.63380 0.02700
H 	H 	0.71656 0.43178 0.60642 0.01500
H 	H 	0.90302 0.44223 0.43890 0.05000
H 	H 	0.66645 0.52219 0.55976 0.04900
C 	C 	0.83208 0.52167 0.36648 -0.14900
C 	C 	0.69302 0.48004 0.65938 -0.15800
H 	H 	0.87624 0.53105 0.37727 0.03100
H 	H 	0.81745 0.53727 0.32589 0.04400
H 	H 	0.80087 0.54091 0.38760 0.05400
H 	H 	0.85675 0.39491 0.43491 0.04900
H 	H 	0.70299 0.51619 0.67186 0.05300
H 	H 	0.70482 0.44760 0.69202 0.04500
H 	H 	0.64542 0.48458 0.64548 0.03900
H 	H 	0.72697 0.54820 0.58446 0.04900
C 	C 	0.34556 0.48113 0.51667 -0.09000
C 	C 	0.32254 0.46209 0.47383 0.04700
C 	C 	0.26182 0.46291 0.46313 -0.03000
C 	C 	0.22358 0.48752 0.49062 -0.09200
C 	C 	0.24681 0.50686 0.53320 0.05000
C 	C 	0.30748 0.50419 0.54501 -0.03400
H 	H 	0.24406 0.44552 0.43247 0.04100
H 	H 	0.32535 0.51848 0.57782 0.04100
C 	C 	0.36211 0.43920 0.44015 -0.10700
C 	C 	0.20894 0.52481 0.56999 -0.11700
C 	C 	0.34321 0.46236 0.38399 -0.02900
H 	H 	0.29968 0.45343 0.37004 0.02600
H 	H 	0.37480 0.44345 0.36289 0.03000
C 	C 	0.21560 0.48250 0.61674 -0.02000
H 	H 	0.26236 0.47177 0.63418 0.02400
H 	H 	0.20032 0.44730 0.60604 0.00800
H 	H 	0.40828 0.44382 0.45000 0.04900
H 	H 	0.16208 0.53640 0.55381 0.04900
C 	C 	0.34205 0.52094 0.37211 -0.14600
C 	C 	0.18091 0.50086 0.65570 -0.16800
H 	H 	0.38547 0.53061 0.38511 0.02700
H 	H 	0.33132 0.53456 0.33094 0.04400
H 	H 	0.30836 0.54179 0.38993 0.05100
H 	H 	0.36181 0.39674 0.44548 0.05600
H 	H 	0.19740 0.53454 0.66876 0.05500
H 	H 	0.18582 0.46892 0.68834 0.04900
H 	H 	0.13383 0.51218 0.63967 0.05600
H 	H 	0.22329 0.56012 0.58137 0.04800
C 	C 	0.82406 0.51664 0.00429 -0.09400
C 	C 	0.79744 0.50068 0.96100 0.05200
C 	C 	0.73836 0.49522 0.95617 -0.03200
C 	C 	0.70485 0.50717 0.99258 -0.09000
C 	C 	0.73092 0.52430 0.03531 0.04700
C 	C 	0.79003 0.53027 0.03995 -0.03200
H 	H 	0.71814 0.48228 0.92341 0.04200
H 	H 	0.81070 0.54175 0.07339 0.04000
C 	C 	0.82981 0.49352 0.91760 -0.10900
C 	C 	0.69969 0.52761 0.07985 -0.11700
C 	C 	0.80834 0.53749 0.87206 -0.02700
H 	H 	0.76223 0.53615 0.85695 0.02600
H 	H 	0.83489 0.53078 0.84232 0.01800
C 	C 	0.71159 0.47478 0.11519 -0.02000
H 	H 	0.75904 0.46449 0.13091 0.02400
H 	H 	0.69954 0.44425 0.09411 0.01600
H 	H 	0.87782 0.48922 0.92790 0.04000
H 	H 	0.65192 0.54076 0.06809 0.05700
C 	C 	0.81255 0.59151 0.88387 -0.15000
C 	C 	0.67682 0.47513 0.15831 -0.16300
H 	H 	0.85773 0.59352 0.90101 0.03200
H 	H 	0.80042 0.62069 0.84865 0.04200
H 	H 	0.78190 0.60164 0.90968 0.05600
H 	H 	0.82182 0.45657 0.90575 0.04500
H 	H 	0.69185 0.50162 0.18303 0.05500
H 	H 	0.68342 0.43524 0.18048 0.04300
H 	H 	0.62939 0.48770 0.14397 0.05000
H 	H 	0.71538 0.55731 0.10026 0.04700
C 	C 	0.32997 0.47961 0.01348 -0.09400
C 	C 	0.29868 0.52369 0.97848 0.04300
C 	C 	0.23882 0.52612 0.96189 -0.03000
C 	C 	0.20853 0.48795 0.98203 -0.09100
C 	C 	0.23997 0.44320 0.01579 0.04200
C 	C 	0.30041 0.43955 0.03086 -0.03100
H 	H 	0.21519 0.55896 0.93413 0.03400
H 	H 	0.32465 0.40518 0.05628 0.03400
C 	C 	0.32733 0.56937 0.95910 -0.10200
C 	C 	0.21121 0.39697 0.03241 -0.09900
C 	C 	0.30596 0.61834 0.97955 -0.01900
H 	H 	0.25761 0.62891 0.96964 0.02500
H 	H 	0.32494 0.65118 0.96124 0.02100
C 	C 	0.21243 0.36039 0.99418 -0.02300
H 	H 	0.25812 0.34056 0.99624 0.02400
H 	H 	0.19734 0.38258 0.95542 0.03900
H 	H 	0.37565 0.56118 0.96564 0.03100
H 	H 	0.16607 0.40940 0.03911 0.03700
C 	C 	0.32303 0.61219 0.03628 -0.15600
C 	C 	0.17359 0.31948 0.00419 -0.15500
H 	H 	0.37131 0.60623 0.04704 0.06300
H 	H 	0.30402 0.64795 0.04854 0.05200
H 	H 	0.30569 0.57914 0.05596 0.06800
H 	H 	0.31501 0.57854 0.91762 0.03100
H 	H 	0.18719 0.29658 0.04277 0.05000
H 	H 	0.17732 0.29268 0.97708 0.05200
H 	H 	0.12720 0.33846 0.99937 0.05800
H 	H 	0.23520 0.37504 0.06931 0.03700
C 	C 	0.02979 0.49136 0.79817 -0.07000
C 	C 	0.06492 0.45363 0.77907 0.05300
C 	C 	0.05768 0.45503 0.72710 -0.03100
C 	C 	0.01576 0.49299 0.69421 -0.07900
C 	C 	0.98059 0.53060 0.71347 0.03500
C 	C 	0.98818 0.52937 0.76534 -0.05800
H 	H 	0.08452 0.42621 0.71223 0.01700
H 	H 	0.96117 0.55802 0.78028 0.01500
C 	C 	0.10986 0.41120 0.81354 -0.11600
C 	C 	0.93165 0.56971 0.67995 -0.10800
C 	C 	0.17298 0.42100 0.81270 -0.01100
H 	H 	0.18198 0.42702 0.77363 0.01800
H 	H 	0.20347 0.38587 0.83386 0.01800
C 	C 	0.87333 0.54932 0.67857 -0.02200
H 	H 	0.86471 0.53780 0.71738 0.02500
H 	H 	0.87552 0.51457 0.66044 0.03400
H 	H 	0.10137 0.40505 0.85275 0.06400
H 	H 	0.94104 0.57982 0.64132 0.05500
C 	C 	0.18602 0.46734 0.83651 -0.16700
C 	C 	0.82244 0.59053 0.64975 -0.15800
H 	H 	0.17714 0.46201 0.87560 0.07500
H 	H 	0.23290 0.47069 0.83727 0.05200
H 	H 	0.15919 0.50388 0.81441 0.07000
H 	H 	0.10613 0.37377 0.80087 0.04700
H 	H 	0.82041 0.62635 0.66617 0.05000
H 	H 	0.78074 0.57564 0.65219 0.05100
H 	H 	0.82732 0.60009 0.60973 0.05500
H 	H 	0.92777 0.60658 0.69477 0.03900
C 	C 	0.03884 0.49791 0.29558 -0.07900
C 	C 	0.07841 0.47735 0.26624 0.05900
C 	C 	0.06259 0.48675 0.21387 -0.05300
C 	C 	0.00899 0.51741 0.19047 -0.03400
C 	C 	0.97041 0.53933 0.21976 0.01700
C 	C 	0.98522 0.52839 0.27215 -0.05200
H 	H 	0.09180 0.46951 0.19129 0.02000
H 	H 	0.95535 0.54465 0.29478 0.01300
C 	C 	0.13779 0.44547 0.28998 -0.11600
C 	C 	0.91301 0.57409 0.19592 -0.09800
C 	C 	0.18835 0.47468 0.27924 -0.01200
H 	H 	0.18579 0.48734 0.23821 0.02100
H 	H 	0.23042 0.44764 0.29299 0.01900
C 	C 	0.86193 0.54362 0.19704 -0.02600
H 	H 	0.86285 0.52235 0.23567 0.02500
H 	H 	0.86587 0.51480 0.17180 0.03600
H 	H 	0.14143 0.43229 0.33101 0.05700
H 	H 	0.91413 0.59259 0.15675 0.05100
C 	C 	0.18908 0.52184 0.30479 -0.16300
C 	C 	0.80315 0.57972 0.18040 -0.15600
H 	H 	0.19352 0.50984 0.34605 0.06900
H 	H 	0.22686 0.54077 0.29629 0.05200
H 	H 	0.14851 0.55067 0.29066 0.07000
H 	H 	0.14338 0.40939 0.27400 0.04100
H 	H 	0.79822 0.60908 0.20495 0.04800
H 	H 	0.76727 0.55673 0.18322 0.04900
H 	H 	0.79945 0.59979 0.14098 0.05300
H 	H 	0.90575 0.60641 0.21699 0.03700
C 	C 	0.01764 0.69393 0.49605 -0.06700
C 	C 	0.06798 0.71790 0.50154 0.05500
C 	C 	0.06127 0.77191 0.49838 -0.02700
C 	C 	0.00563 0.80180 0.49342 -0.07400
C 	C 	0.95539 0.77760 0.49000 0.03400
C 	C 	0.96189 0.72391 0.49042 -0.05900
H 	H 	0.09977 0.79037 0.50239 0.03700
H 	H 	0.92339 0.70559 0.48542 0.02800
C 	C 	0.12930 0.68613 0.51368 -0.11400
C 	C 	0.89451 0.80889 0.48476 -0.11200
C 	C 	0.15607 0.68080 0.56906 -0.01200
H 	H 	0.15642 0.71982 0.57909 0.02300
H 	H 	0.20233 0.66112 0.57454 0.01900
C 	C 	0.87360 0.83955 0.43125 -0.01800
H 	H 	0.87150 0.81215 0.40451 0.02300
H 	H 	0.90481 0.86580 0.42081 0.02700
H 	H 	0.13114 0.64694 0.50383 0.06300
H 	H 	0.89397 0.83576 0.51201 0.05200
C 	C 	0.12371 0.64924 0.60456 -0.16300
C 	C 	0.81311 0.87231 0.42631 -0.16300
H 	H 	0.12153 0.61057 0.59446 0.07000
H 	H 	0.14745 0.64351 0.64350 0.05300
H 	H 	0.07865 0.66995 0.60329 0.07300
H 	H 	0.15781 0.70597 0.49039 0.04700
H 	H 	0.78028 0.84716 0.43505 0.05500
H 	H 	0.79954 0.89403 0.38730 0.05100
H 	H 	0.81415 0.90070 0.45205 0.06500
H 	H 	0.86288 0.78266 0.49428 0.04400
C 	C 	0.01162 0.29937 0.49046 -0.05500
C 	C 	0.05168 0.25950 0.47882 0.03100
C 	C 	0.03431 0.21155 0.47443 0.01100
C 	C 	0.97844 0.20250 0.48255 -0.13800
C 	C 	0.93791 0.24280 0.49275 0.07400
C 	C 	0.95505 0.29090 0.49676 -0.07500
H 	H 	0.06484 0.18086 0.46554 0.03300
H 	H 	0.92468 0.32145 0.50606 0.04400
C 	C 	0.11330 0.26709 0.47136 -0.10300
C 	C 	0.87751 0.23416 0.50250 -0.12200
C 	C 	0.12018 0.27529 0.41580 -0.01800
H 	H 	0.10288 0.24471 0.39757 0.02500
H 	H 	0.16761 0.27155 0.41342 0.02100
C 	C 	0.87896 0.21157 0.55792 -0.01800
H 	H 	0.89899 0.23664 0.58194 0.02400
H 	H 	0.90592 0.17217 0.56761 0.03400
H 	H 	0.12788 0.29928 0.48858 0.04700
H 	H 	0.85981 0.20804 0.47849 0.05400
C 	C 	0.08979 0.32872 0.38695 -0.16100
C 	C 	0.81755 0.20778 0.56948 -0.16000
H 	H 	0.10703 0.35973 0.40444 0.06400
H 	H 	0.09838 0.33338 0.34776 0.05600
H 	H 	0.04174 0.33297 0.38608 0.07900
H 	H 	0.14426 0.23168 0.49122 0.04300
H 	H 	0.79070 0.24704 0.56313 0.05200
H 	H 	0.82048 0.18972 0.60937 0.05000
H 	H 	0.79582 0.18366 0.54549 0.05500
H 	H 	0.84676 0.27173 0.49203 0.04700
C 	C 	0.67382 0.99510 0.49314 -0.09200
C 	C 	0.70953 0.96302 0.53594 0.04900
C 	C 	0.77032 0.96157 0.54240 -0.02900
C 	C 	0.79556 0.99365 0.50875 -0.09500
C 	C 	0.75965 0.02669 0.46654 0.05000
C 	C 	0.69918 0.02646 0.45896 -0.02700
H 	H 	0.79787 0.93682 0.57498 0.03400
H 	H 	0.67172 0.05061 0.42598 0.03500
C 	C 	0.68349 0.93396 0.57747 -0.10800
C 	C 	0.78517 0.05967 0.42723 -0.10900
C 	C 	0.68257 0.96217 0.62229 -0.02700
H 	H 	0.72696 0.97035 0.63499 0.02600
H 	H 	0.67099 0.93615 0.65404 0.02100
C 	C 	0.79394 0.03169 0.38324 -0.03300
H 	H 	0.75105 0.02419 0.36562 0.02700
H 	H 	0.82338 0.99375 0.39689 0.01700
H 	H 	0.63926 0.92614 0.56445 0.03900
H 	H 	0.82676 0.07083 0.44295 0.03900
C 	C 	0.63858 0.01279 0.61066 -0.15200
C 	C 	0.81997 0.06413 0.34336 -0.13600
H 	H 	0.59369 0.00536 0.59935 0.04900
H 	H 	0.63918 0.03063 0.64468 0.05900
H 	H 	0.64989 0.04080 0.58027 0.07000
H 	H 	0.71091 0.89499 0.59080 0.04100
H 	H 	0.79123 0.10230 0.32912 0.04100
H 	H 	0.82374 0.04349 0.31146 0.04100
H 	H 	0.86422 0.07050 0.35891 -0.00800
H 	H 	0.75443 0.09686 0.41297 0.04400
C 	C 	0.16012 0.04679 0.47965 -0.08900
C 	C 	0.18668 0.03819 0.53048 0.04800
C 	C 	0.24797 0.02798 0.54226 -0.02700
C 	C 	0.28217 0.03375 0.50425 -0.08900
C 	C 	0.25468 0.05277 0.45404 0.04800
C 	C 	0.19379 0.05715 0.44198 -0.02600
H 	H 	0.26904 0.01492 0.58091 0.04000
H 	H 	0.17286 0.06701 0.40308 0.03500
C 	C 	0.15034 0.03997 0.57229 -0.11000
C 	C 	0.28929 0.06868 0.41304 -0.10600
C 	C 	0.16520 0.07977 0.60519 -0.01400
H 	H 	0.21256 0.07236 0.62105 0.02600
H 	H 	0.14092 0.07530 0.63734 0.02500
C 	C 	0.30090 0.02525 0.38287 -0.03300
H 	H 	0.25863 0.01534 0.36651 0.03300
H 	H 	0.32681 0.98982 0.40783 0.03000
H 	H 	0.10278 0.04973 0.55761 0.04700
H 	H 	0.33089 0.08010 0.42865 0.03100
C 	C 	0.14780 0.13559 0.57661 -0.16300
C 	C 	0.33398 0.04168 0.34022 -0.14600
H 	H 	0.09989 0.14430 0.56308 0.07700
H 	H 	0.15911 0.16278 0.60188 0.05600
H 	H 	0.17146 0.14184 0.54426 0.06400
H 	H 	0.15826 0.00082 0.59631 0.03600
H 	H 	0.30739 0.07552 0.31344 0.04500
H 	H 	0.34277 0.00912 0.31984 0.05400
H 	H 	0.37646 0.05221 0.35496 0.01800
H 	H 	0.26385 0.10397 0.38738 0.04100
C 	C 	0.99536 0.81409 0.98996 -0.12500
C 	C 	0.95292 0.78325 0.00244 0.06500
C 	C 	0.96230 0.73050 0.99903 -0.06600
C 	C 	0.01343 0.70812 0.98406 -0.05900
C 	C 	0.05650 0.73883 0.97264 0.04000
C 	C 	0.04612 0.79191 0.97442 0.00700
H 	H 	0.92928 0.70695 0.00738 0.03200
H 	H 	0.07879 0.81564 0.96545 0.02900
C 	C 	0.89682 0.80641 0.01849 -0.11100
C 	C 	0.11402 0.71561 0.95904 -0.10300
C 	C 	0.85184 0.83772 0.97395 -0.02100
H 	H 	0.87184 0.86731 0.95172 0.04400
H 	H 	0.81529 0.85870 0.98871 0.03300
C 	C 	0.11256 0.72723 0.90210 -0.02200
H 	H 	0.10879 0.76977 0.88921 0.02900
H 	H 	0.07397 0.71437 0.88243 0.03300
H 	H 	0.87679 0.77541 0.03885 0.04400
H 	H 	0.12513 0.67314 0.97349 0.06100
C 	C 	0.82661 0.80339 0.93961 -0.15400
C 	C 	0.16784 0.69992 0.88736 -0.15700
H 	H 	0.80725 0.77283 0.96123 0.05200
H 	H 	0.79172 0.82754 0.91013 0.05100
H 	H 	0.86116 0.78488 0.92103 0.05500
H 	H 	0.90657 0.83198 0.04586 0.04500
H 	H 	0.20728 0.71231 0.90617 0.05200
H 	H 	0.16590 0.71013 0.84620 0.04800
H 	H 	0.17138 0.65715 0.89784 0.04900
H 	H 	0.15006 0.73271 0.97757 0.04500
C 	C 	0.98869 0.31313 0.00374 -0.12500
C 	C 	0.93546 0.30326 0.97865 0.06200
C 	C 	0.93036 0.25224 0.97314 -0.02500
C 	C 	0.97578 0.21088 0.99476 -0.11900
C 	C 	0.02711 0.22044 0.02295 0.07200
C 	C 	0.03314 0.27157 0.02679 -0.00500
H 	H 	0.89056 0.24461 0.95235 0.03600
H 	H 	0.07287 0.27905 0.04775 0.03100
C 	C 	0.88262 0.34592 0.95978 -0.12100
C 	C 	0.07748 0.17711 0.04680 -0.11900
C 	C 	0.83357 0.34088 0.99141 -0.01100
H 	H 	0.82147 0.30155 0.99389 0.02600
H 	H 	0.79412 0.36933 0.97235 0.02700
C 	C 	0.12296 0.17096 0.01181 -0.01700
H 	H 	0.13164 0.20955 0.99467 0.02500
H 	H 	0.10574 0.15181 0.98108 0.03800
H 	H 	0.89360 0.38541 0.95776 0.06800
H 	H 	0.06222 0.13960 0.05725 0.06400
C 	C 	0.85017 0.35161 0.04420 -0.16300
C 	C 	0.18081 0.13875 0.04001 -0.15900
H 	H 	0.85995 0.39155 0.04250 0.06500
H 	H 	0.81293 0.34804 0.06494 0.05300
H 	H 	0.88878 0.32330 0.06504 0.05600
H 	H 	0.86499 0.34327 0.92066 0.04800
H 	H 	0.20337 0.16160 0.06487 0.05100
H 	H 	0.20963 0.12818 0.01297 0.06000
H 	H 	0.17318 0.10270 0.06317 0.05800
H 	H 	0.09846 0.18636 0.08253 0.04800
C 	C 	0.78761 0.98799 0.00596 -0.08600
C 	C 	0.76158 0.97674 0.95990 0.04900
C 	C 	0.70227 0.97099 0.95314 -0.03200
C 	C 	0.66751 0.98066 0.98949 -0.08600
C 	C 	0.69371 0.99131 0.03565 0.05000
C 	C 	0.75347 0.99500 0.04325 -0.03500
H 	H 	0.68228 0.96227 0.91804 0.04200
H 	H 	0.77367 0.00272 0.07874 0.04100
C 	C 	0.79426 0.97616 0.91575 -0.11300
C 	C 	0.66048 0.99293 0.07913 -0.11800
C 	C 	0.77031 0.02277 0.87293 -0.02100
H 	H 	0.72650 0.01833 0.85424 0.02900
H 	H 	0.79992 0.02268 0.84448 0.01800
C 	C 	0.66335 0.93803 0.10878 -0.02400
H 	H 	0.70951 0.91842 0.11974 0.02500
H 	H 	0.64047 0.91435 0.08503 0.01300
H 	H 	0.84199 0.97433 0.92643 0.04400
H 	H 	0.61436 0.01196 0.06611 0.04700
C 	C 	0.76535 0.07526 0.89006 -0.15500
C 	C 	0.63586 0.93937 0.15605 -0.16000
H 	H 	0.80677 0.07916 0.91303 0.04100
H 	H 	0.75542 0.10696 0.85675 0.04500
H 	H 	0.72928 0.07991 0.91229 0.06300
H 	H 	0.78939 0.94010 0.90082 0.04700
H 	H 	0.66053 0.96019 0.18168 0.05200
H 	H 	0.63692 0.89914 0.17584 0.04000
H 	H 	0.58968 0.95927 0.14630 0.03700
H 	H 	0.67993 0.01711 0.10447 0.04900
C 	C 	0.28398 0.00592 0.01553 -0.08800
C 	C 	0.24471 0.99968 0.05021 0.04800
C 	C 	0.18437 0.00681 0.03246 -0.02800
C 	C 	0.16268 0.02151 0.98117 -0.09400
C 	C 	0.20170 0.02995 0.94676 0.05500
C 	C 	0.26214 0.02156 0.96430 -0.03200
H 	H 	0.15416 0.00164 0.05881 0.02100
H 	H 	0.29225 0.02745 0.93796 0.02300
C 	C 	0.26606 0.98725 0.10632 -0.11700
C 	C 	0.17935 0.04939 0.89143 -0.11600
C 	C 	0.25902 0.93223 0.12982 -0.01400
H 	H 	0.21295 0.92639 0.12048 0.01900
H 	H 	0.26941 0.92780 0.17125 0.02100
C 	C 	0.16015 0.10859 0.87909 -0.01700
H 	H 	0.12837 0.12103 0.90319 0.02800
H 	H 	0.13742 0.11960 0.83964 0.02200
H 	H 	0.31212 0.99243 0.11625 0.06300
H 	H 	0.14185 0.03050 0.87917 0.06200
C 	C 	0.29963 0.89018 0.11324 -0.15300
C 	C 	0.21174 0.13792 0.88495 -0.15700
H 	H 	0.34595 0.89511 0.12281 0.04100
H 	H 	0.29440 0.85149 0.13297 0.04900
H 	H 	0.28868 0.89151 0.07228 0.06500
H 	H 	0.23981 0.01538 0.12404 0.04400
H 	H 	0.23250 0.13167 0.92482 0.05500
H 	H 	0.19586 0.18014 0.87194 0.05000
H 	H 	0.24487 0.12501 0.86216 0.04900
H 	H 	0.21338 0.03788 0.86884 0.04600
C 	C 	0.98924 0.01224 0.79233 -0.11200
C 	C 	0.03109 0.98151 0.77193 0.07300
C 	C 	0.01898 0.97718 0.72139 -0.00900
C 	C 	0.97085 0.00888 0.68961 -0.12300
C 	C 	0.93132 0.04257 0.70917 0.05900
C 	C 	0.93974 0.04245 0.76084 -0.03400
H 	H 	0.04867 0.95089 0.70619 0.01600
H 	H 	0.90813 0.06645 0.77652 0.01600
C 	C 	0.08978 0.95490 0.80292 -0.12100
C 	C 	0.87943 0.07799 0.67544 -0.11500
C 	C 	0.14270 0.96999 0.77946 -0.01400
H 	H 	0.14787 0.95030 0.74706 0.01900
H 	H 	0.18291 0.95556 0.80778 0.02100
C 	C 	0.82806 0.04893 0.66496 -0.01700
H 	H 	0.81048 0.03805 0.70017 0.02500
H 	H 	0.84275 0.01276 0.65123 0.04300
H 	H 	0.09518 0.96283 0.84165 0.06600
H 	H 	0.89253 0.09500 0.63973 0.06100
C 	C 	0.13854 0.02858 0.76233 -0.16100
C 	C 	0.77914 0.08242 0.62556 -0.16200
H 	H 	0.12123 0.05037 0.78994 0.06500
H 	H 	0.18261 0.03775 0.75780 0.05200
H 	H 	0.10925 0.04177 0.72565 0.06400
H 	H 	0.09175 0.91225 0.80659 0.05200
H 	H 	0.76302 0.11897 0.63803 0.05300
H 	H 	0.74218 0.06104 0.61973 0.05900
H 	H 	0.79500 0.09162 0.58929 0.06700
H 	H 	0.86472 0.11142 0.69324 0.04100
C 	C 	0.99673 0.00421 0.29428 -0.14900
C 	C 	0.03634 0.01686 0.26128 0.08300
C 	C 	0.01901 0.02035 0.20951 -0.01400
C 	C 	0.96360 0.01072 0.19036 -0.12000
C 	C 	0.92459 0.99719 0.22363 0.05000
C 	C 	0.94185 0.99379 0.27524 -0.02700
H 	H 	0.04978 0.02833 0.18422 0.03000
H 	H 	0.91211 0.98324 0.30076 0.02400
C 	C 	0.09925 0.02117 0.28090 -0.12200
C 	C 	0.86585 0.98316 0.20525 -0.11500
C 	C 	0.11417 0.07534 0.26386 -0.00900
H 	H 	0.10428 0.08658 0.22238 0.02300
H 	H 	0.16201 0.07372 0.27503 0.01900
C 	C 	0.86995 0.92392 0.21293 -0.01200
H 	H 	0.87632 0.90768 0.25368 0.02100
H 	H 	0.90802 0.90624 0.19761 0.02500
H 	H 	0.11059 0.01037 0.32232 0.06700
H 	H 	0.84930 0.00129 0.16544 0.06500
C 	C 	0.08186 0.11720 0.28721 -0.16100
C 	C 	0.81474 0.90857 0.18727 -0.16200
H 	H 	0.09388 0.10819 0.32865 0.06400
H 	H 	0.09449 0.15519 0.27354 0.05200
H 	H 	0.03376 0.12058 0.27648 0.06600
H 	H 	0.12870 0.99256 0.26621 0.04500
H 	H 	0.77554 0.92684 0.20070 0.05200
H 	H 	0.81771 0.86576 0.19589 0.04800
H 	H 	0.81024 0.92088 0.14605 0.05800
H 	H 	0.83280 0.99907 0.22684 0.04200
