data_crystal

_cell_length_a 10.72181
_cell_length_b 11.72387
_cell_length_c 128.54374
_cell_angle_alpha 90.00510
_cell_angle_beta  90.02830
_cell_angle_gamma 119.79836

_symmetry_space_group_name_	'P 1'
_symmetry_space_group_name_H-M	'P 1'

loop_
_symmetry_equiv_pos_as_xyz
  x,y,z

loop_
_atom_site_label
_atom_site_type_symbol
_atom_site_fract_x
_atom_site_fract_y
_atom_site_fract_z
_atom_site_charge
C 	C 	0.62351 0.95505 0.00818 0.24000
C 	C 	0.07398 0.27494 0.00868 0.00200
H 	H 	0.09489 0.25359 0.01648 0.04800
C 	C 	0.18014 0.88155 0.00210 0.00400
O 	O 	0.55297 0.02049 0.00731 -0.34900
C 	C 	0.26504 0.72801 0.00537 0.01700
H 	H 	0.14984 0.95170 0.00487 0.02200
O 	O 	0.59291 0.86905 0.01581 -0.36600
O 	O 	0.74183 0.28713 0.01317 -0.38800
C 	C 	0.95869 0.29746 0.00678 -0.07500
C 	C 	0.23627 0.82569 0.00903 -0.08400
H 	H 	0.30146 0.67889 0.01067 0.03700
C 	C 	0.86033 0.28509 0.01532 0.30000
Ni	Ni	0.54952 0.14554 0.01811 1.11800
C 	C 	0.29403 0.88914 0.01921 0.26700
O 	O 	0.90590 0.30014 0.02497 -0.37000
O 	O 	0.34022 0.01500 0.02029 -0.35700
O 	O 	0.32658 0.82755 0.02632 -0.37200
O 	O 	0.52207 0.27341 0.02708 -0.37400
Ni	Ni	0.53801 0.88931 0.03096 1.10000
O 	O 	0.60665 0.07438 0.02951 -0.68700
O 	O 	0.71769 0.88330 0.03669 -0.37700
O 	O 	0.88031 0.09921 0.03625 -0.36600
H 	H 	0.53528 0.07477 0.03429 0.13700
Ni	Ni	0.77574 0.20150 0.03690 1.11700
C 	C 	0.82982 0.98542 0.04070 0.28600
H 	H 	0.32942 0.09437 0.04155 0.04300
C 	C 	0.58206 0.31009 0.03638 0.29100
C 	C 	0.49228 0.29239 0.04552 -0.09000
O 	O 	0.71614 0.33918 0.03785 -0.38100
O 	O 	0.49549 0.91154 0.04639 -0.38100
C 	C 	0.37566 0.16726 0.04766 0.01500
C 	C 	0.89294 0.97473 0.05066 -0.13100
H 	H 	0.02808 0.18521 0.05253 0.00500
H 	H 	0.77288 0.76207 0.05130 0.03200
C 	C 	0.84485 0.85178 0.05541 0.03200
C 	C 	0.98756 0.08966 0.05612 0.07800
O 	O 	0.68157 0.11939 0.05094 -0.36300
C 	C 	0.54621 0.38735 0.05343 0.01700
H 	H 	0.63344 0.48559 0.05181 0.03200
C 	C 	0.59680 0.99127 0.05299 0.26400
C 	C 	0.33023 0.13071 0.05792 -0.05700
H 	H 	0.24901 0.03022 0.05959 0.05800
C 	C 	0.88337 0.84466 0.06571 -0.07400
C 	C 	0.02454 0.08258 0.06640 -0.08300
C 	C 	0.39611 0.22142 0.06605 0.02400
C 	C 	0.49886 0.35205 0.06367 -0.06400
H 	H 	0.47604 0.73728 0.05925 0.02500
H 	H 	0.84003 0.74961 0.06944 0.04700
C 	C 	0.97135 0.96036 0.07133 0.02700
H 	H 	0.09417 0.17251 0.07057 0.05000
H 	H 	0.54937 0.42388 0.06982 0.04200
C 	C 	0.59544 0.94272 0.06363 -0.12600
H 	H 	0.71342 0.13602 0.07060 0.02100
C 	C 	0.52936 0.80682 0.06550 0.03300
C 	C 	0.66482 0.03110 0.07183 0.08900
C 	C 	0.37361 0.17606 0.07702 0.00900
H 	H 	0.38524 0.00023 0.07392 0.05500
C 	C 	0.99808 0.95437 0.08260 -0.01300
H 	H 	0.06004 0.80564 0.08100 0.03400
H 	H 	0.34126 0.33245 0.08288 0.03500
C 	C 	0.38633 0.06650 0.07982 -0.04700
C 	C 	0.66857 0.98404 0.08175 -0.14300
H 	H 	0.95906 0.11235 0.08683 0.03600
C 	C 	0.98007 0.03656 0.08963 -0.01600
C 	C 	0.03919 0.86549 0.08636 -0.04400
C 	C 	0.36054 0.25275 0.08487 -0.04400
H 	H 	0.48656 0.65512 0.07662 0.04800
C 	C 	0.53657 0.76011 0.07534 -0.08900
C 	C 	0.61028 0.84852 0.08345 0.05600
H 	H 	0.71707 0.05303 0.08809 0.07500
C 	C 	0.40780 0.04601 0.09022 -0.00700
H 	H 	0.69644 0.66864 0.08685 0.03500
C 	C 	0.05891 0.85732 0.09705 -0.03400
C 	C 	0.38110 0.23160 0.09529 -0.03200
H 	H 	0.42217 0.96377 0.09224 0.01900
C 	C 	0.98580 0.01949 0.10031 -0.01700
H 	H 	0.09978 0.79470 0.09975 0.03300
H 	H 	0.37602 0.29409 0.10124 0.03400
C 	C 	0.41589 0.13442 0.09790 -0.00600
C 	C 	0.62985 0.79911 0.09361 -0.01500
C 	C 	0.66992 0.70175 0.09395 -0.03000
C 	C 	0.02999 0.93291 0.10415 -0.01800
H 	H 	0.95604 0.07389 0.10559 0.03800
H 	H 	0.58047 0.92530 0.10289 0.03200
H 	H 	0.63997 0.34257 0.10730 0.04400
C 	C 	0.60504 0.84652 0.10297 -0.03400
C 	C 	0.67337 0.64526 0.10344 -0.04200
H 	H 	0.70047 0.56781 0.10358 0.03700
H 	H 	0.12600 0.13414 0.11830 0.04300
H 	H 	0.34158 0.92914 0.11113 0.03600
C 	C 	0.47933 0.13671 0.10820 0.02600
C 	C 	0.05506 0.92802 0.11553 0.02000
C 	C 	0.43018 0.02057 0.11397 -0.05000
C 	C 	0.59744 0.25335 0.11186 -0.06700
C 	C 	0.60884 0.79000 0.11245 -0.04200
C 	C 	0.63638 0.68509 0.11267 0.00200
H 	H 	0.98410 0.71954 0.11590 0.04800
C 	C 	0.10710 0.04234 0.12167 -0.05400
H 	H 	0.43238 0.43123 0.11512 0.04400
C 	C 	0.03464 0.81121 0.12019 -0.07200
H 	H 	0.58460 0.82399 0.11958 0.04000
C 	C 	0.14234 0.04015 0.13209 0.02300
C 	C 	0.49897 0.02106 0.12324 0.02500
C 	C 	0.49553 0.47320 0.12207 -0.06700
C 	C 	0.66120 0.25526 0.12139 0.01600
C 	C 	0.60539 0.60483 0.12217 0.02600
H 	H 	0.74887 0.34718 0.12426 0.03800
C 	C 	0.08473 0.81390 0.13029 0.02100
H 	H 	0.17712 0.12692 0.13684 0.03600
H 	H 	0.46505 0.92941 0.12727 0.02900
C 	C 	0.46709 0.39533 0.13092 0.01700
C 	C 	0.61007 0.13964 0.12729 -0.08900
C 	C 	0.68131 0.66038 0.13140 -0.06800
H 	H 	0.76424 0.76289 0.13163 0.05300
C 	C 	0.14514 0.93070 0.13609 -0.10100
H 	H 	0.39067 0.29163 0.13044 0.03500
H 	H 	0.08062 0.72658 0.13348 0.03000
C 	C 	0.54269 0.44996 0.14017 -0.08900
C 	C 	0.64988 0.58338 0.14039 0.01600
C 	C 	0.23840 0.94776 0.14500 0.31000
O 	O 	0.34711 0.92714 0.14371 -0.39200
O 	O 	0.39256 0.25931 0.15079 -0.37800
O 	O 	0.64191 0.04076 0.14300 -0.38000
C 	C 	0.51844 0.36533 0.14933 0.30200
C 	C 	0.65841 0.14687 0.13821 0.29900
O 	O 	0.71731 0.26021 0.14313 -0.38500
H 	H 	0.70944 0.62710 0.14747 0.03700
O 	O 	0.20695 0.97476 0.15418 -0.37700
Ni	Ni	0.35501 0.13083 0.16315 1.11400
Ni	Ni	0.49789 0.95751 0.15457 1.11700
O 	O 	0.51856 0.11569 0.16046 -0.70900
Ni	Ni	0.70051 0.27185 0.15860 1.12100
O 	O 	0.62347 0.39546 0.15592 -0.38200
H 	H 	0.94580 0.68920 0.17799 0.04300
O 	O 	0.33622 0.84535 0.16472 -0.37100
H 	H 	0.76823 0.79060 0.16357 0.04600
O 	O 	0.81517 0.18019 0.16142 -0.37800
S 	S 	0.90169 0.89071 0.16623 -0.03300
S 	S 	0.02703 0.62954 0.17897 -0.03300
C 	C 	0.32007 0.88764 0.17392 0.28300
O 	O 	0.29900 0.98993 0.17479 -0.36700
H 	H 	0.53667 0.09891 0.16764 0.13700
O 	O 	0.64909 0.96096 0.16418 -0.38800
O 	O 	0.46900 0.29006 0.17329 -0.36500
H 	H 	0.46347 0.56154 0.17960 0.04500
C 	C 	0.76553 0.07158 0.16706 0.28800
O 	O 	0.69701 0.31312 0.17389 -0.38100
S 	S 	0.60221 0.58555 0.17927 -0.03000
C 	C 	0.17351 0.72197 0.18730 0.04000
C 	C 	0.30944 0.81204 0.18326 -0.07300
C 	C 	0.58729 0.31548 0.17851 0.28700
C 	C 	0.84833 0.07050 0.17619 -0.07100
C 	C 	0.63263 0.50656 0.18981 0.03900
C 	C 	0.89119 0.97527 0.17722 0.03200
C 	C 	0.61187 0.37840 0.18878 -0.07100
C 	C 	0.93747 0.95550 0.18692 -0.02800
H 	H 	0.96276 0.87737 0.18788 0.04400
H 	H 	0.04759 0.64991 0.20129 0.04400
C 	C 	0.15478 0.70727 0.19808 -0.02900
H 	H 	0.70145 0.67345 0.19990 0.05100
C 	C 	0.87233 0.15746 0.18443 -0.03300
C 	C 	0.67912 0.57292 0.19929 -0.03100
C 	C 	0.42990 0.85865 0.18976 -0.02800
H 	H 	0.53678 0.91885 0.18658 0.04300
H 	H 	0.84701 0.23539 0.18350 0.05100
H 	H 	0.60318 0.21343 0.19692 0.04300
C 	C 	0.62485 0.31391 0.19756 -0.02500
C 	C 	0.92329 0.14103 0.19400 0.03800
C 	C 	0.94952 0.03545 0.19544 -0.06400
C 	C 	0.27138 0.78262 0.20469 -0.07600
C 	C 	0.41100 0.84251 0.20053 0.04500
C 	C 	0.70158 0.51169 0.20787 -0.07300
O 	O 	0.07770 0.07808 0.21174 -0.37300
O 	O 	0.26037 0.95826 0.21339 -0.37200
C 	C 	0.24479 0.83878 0.21401 0.28500
C 	C 	0.66440 0.37849 0.20720 0.03900
O 	O 	0.85073 0.89190 0.21012 -0.38500
C 	C 	0.77934 0.59151 0.21698 0.28500
C 	C 	0.96491 0.99486 0.20598 0.28400
O 	O 	0.89633 0.59098 0.22025 -0.37300
H 	H 	0.00567 0.82782 0.21812 0.13500
O 	O 	0.21759 0.77501 0.22298 -0.36700
S 	S 	0.56163 0.90686 0.20876 -0.04400
H 	H 	0.61394 0.03858 0.21009 0.04600
S 	S 	0.65274 0.28872 0.21849 -0.03400
O 	O 	0.72279 0.65084 0.22242 -0.37000
S 	S 	0.94939 0.25089 0.20421 -0.02700
H 	H 	0.08606 0.35618 0.20371 0.04300
O 	O 	0.00998 0.85684 0.22535 -0.71000
Ni	Ni	0.17052 0.02915 0.22351 1.12100
Ni	Ni	0.82776 0.84823 0.22538 1.12000
H 	H 	0.78496 0.30526 0.22097 0.04800
Ni	Ni	0.03053 0.72064 0.23156 1.11100
O 	O 	0.88884 0.03733 0.22836 -0.38900
O 	O 	0.29363 0.01341 0.23477 -0.37700
O 	O 	0.12016 0.12558 0.23406 -0.39300
O 	O 	0.85051 0.65004 0.24102 -0.37200
O 	O 	0.79425 0.81406 0.24091 -0.38400
C 	C 	0.98957 0.10687 0.23519 0.30800
O 	O 	0.15372 0.82831 0.24412 -0.38100
C 	C 	0.23721 0.95600 0.24367 0.30600
C 	C 	0.82070 0.73114 0.24604 0.30000
H 	H 	0.73138 0.01817 0.24465 0.03600
C 	C 	0.95682 0.16534 0.24418 -0.08900
H 	H 	0.17464 0.32639 0.24593 0.03900
H 	H 	0.49268 0.07171 0.25379 0.03100
C 	C 	0.81919 0.10032 0.24862 0.01700
H 	H 	0.97567 0.66660 0.25911 0.03500
H 	H 	0.06183 0.00829 0.25523 0.03300
C 	C 	0.27391 0.03277 0.25332 -0.09300
C 	C 	0.40753 0.07499 0.25805 0.02200
C 	C 	0.81943 0.73141 0.25753 -0.08800
C 	C 	0.06859 0.27331 0.24937 0.01500
C 	C 	0.91235 0.70158 0.26312 0.01600
C 	C 	0.16532 0.04032 0.25883 0.02000
H 	H 	0.66264 0.79595 0.25875 0.03500
C 	C 	0.79711 0.13416 0.25859 -0.06600
C 	C 	0.73633 0.77443 0.26292 0.01600
C 	C 	0.04631 0.30760 0.25932 -0.06900
H 	H 	0.69329 0.07674 0.26225 0.04400
C 	C 	0.42741 0.11157 0.26856 -0.06800
C 	C 	0.91153 0.23552 0.26411 0.02900
H 	H 	0.13553 0.38600 0.26350 0.04700
C 	C 	0.92798 0.72176 0.27387 -0.06300
C 	C 	0.18589 0.07908 0.26925 -0.06500
H 	H 	0.52793 0.13614 0.27236 0.04800
H 	H 	0.97981 0.46584 0.27380 0.03800
H 	H 	0.00341 0.70259 0.27805 0.04300
C 	C 	0.74854 0.79022 0.27372 -0.06800
C 	C 	0.31413 0.10792 0.27431 0.02900
H 	H 	0.09905 0.07909 0.27354 0.04800
C 	C 	0.89422 0.25605 0.27523 -0.00100
C 	C 	0.84748 0.76776 0.27919 0.02500
C 	C 	0.93650 0.38241 0.27903 -0.03800
H 	H 	0.68058 0.81913 0.27784 0.04400
H 	H 	0.38495 0.31726 0.28690 0.03900
H 	H 	0.80422 0.05133 0.27923 0.03600
C 	C 	0.83678 0.14884 0.28208 -0.04000
C 	C 	0.32013 0.11129 0.28575 -0.00300
C 	C 	0.92146 0.40089 0.28961 -0.03900
H 	H 	0.95361 0.49853 0.29248 0.03700
C 	C 	0.86398 0.78877 0.29053 -0.00100
H 	H 	0.25289 0.90511 0.28718 0.03900
H 	H 	0.77176 0.58259 0.29412 0.03700
H 	H 	0.96271 0.00006 0.28955 0.03800
C 	C 	0.35520 0.22744 0.29114 -0.03900
C 	C 	0.92583 0.91632 0.29466 -0.03700
C 	C 	0.28205 0.99563 0.29130 -0.03500
C 	C 	0.82191 0.68149 0.29722 -0.03900
C 	C 	0.82049 0.16707 0.29260 -0.03900
C 	C 	0.86224 0.29292 0.29641 -0.00100
C 	C 	0.27696 0.99532 0.30215 -0.03400
C 	C 	0.35097 0.22760 0.30202 -0.03900
H 	H 	0.38014 0.31826 0.30611 0.03600
H 	H 	0.67272 0.36563 0.30277 0.04600
H 	H 	0.77247 0.08292 0.29776 0.03800
C 	C 	0.84678 0.70186 0.30790 -0.04000
C 	C 	0.94618 0.93626 0.30540 -0.03500
H 	H 	0.24318 0.90429 0.30631 0.03700
C 	C 	0.31018 0.11104 0.30760 -0.00300
C 	C 	0.72300 0.34340 0.30916 -0.06800
C 	C 	0.82834 0.30893 0.30720 0.02600
H 	H 	0.81706 0.61874 0.31299 0.04200
C 	C 	0.91244 0.82965 0.31201 -0.00100
H 	H 	0.99348 0.03490 0.30852 0.03600
C 	C 	0.89084 0.27760 0.31552 -0.06700
H 	H 	0.97211 0.25034 0.31406 0.04200
C 	C 	0.30235 0.10986 0.31914 0.02700
H 	H 	0.41599 0.00203 0.32113 0.04500
H 	H 	0.59711 0.37225 0.32065 0.03600
C 	C 	0.67908 0.34561 0.31932 0.01600
H 	H 	0.18200 0.21300 0.31991 0.04100
C 	C 	0.36217 0.04777 0.32498 -0.06000
H 	H 	0.82038 0.93691 0.32693 0.04600
C 	C 	0.95265 0.85118 0.32312 0.02900
C 	C 	0.04054 0.80493 0.32723 -0.06200
H 	H 	0.10053 0.77653 0.32210 0.04600
C 	C 	0.23291 0.16853 0.32431 -0.06200
C 	C 	0.73715 0.30946 0.32766 -0.08400
C 	C 	0.84566 0.27807 0.32572 0.01300
C 	C 	0.88254 0.89436 0.32995 -0.06500
H 	H 	0.89347 0.25227 0.33207 0.03700
C 	C 	0.23144 0.17206 0.33520 0.01200
C 	C 	0.35472 0.04614 0.33583 0.01700
H 	H 	0.40258 0.99856 0.34019 0.03600
O 	O 	0.57776 0.32910 0.33957 -0.38800
C 	C 	0.67904 0.29866 0.33827 0.30600
C 	C 	0.87989 0.86888 0.34063 0.01600
H 	H 	0.09951 0.73819 0.34092 0.03500
H 	H 	0.18345 0.22288 0.33908 0.03400
C 	C 	0.30030 0.11785 0.34103 -0.08100
O 	O 	0.69280 0.22097 0.34501 -0.37600
O 	O 	0.76004 0.57293 0.34580 -0.40600
H 	H 	0.81185 0.88820 0.34570 0.02600
C 	C 	0.94011 0.79391 0.34427 -0.09100
C 	C 	0.04079 0.78428 0.33793 0.02700
C 	C 	0.35018 0.16540 0.35176 0.29300
O 	O 	0.37544 0.28408 0.35439 -0.37900
O 	O 	0.41205 0.11032 0.35709 -0.36700
Ni	Ni	0.57157 0.43929 0.35141 1.11900
O 	O 	0.54230 0.56595 0.36076 -0.38400
C 	C 	0.84944 0.67983 0.35070 0.31200
Ni	Ni	0.63308 0.20526 0.36060 1.11100
O 	O 	0.64882 0.37543 0.36174 -0.70100
O 	O 	0.88578 0.67576 0.36044 -0.39000
O 	O 	0.94408 0.46500 0.36341 -0.38800
H 	H 	0.37473 0.56880 0.38164 0.03800
H 	H 	0.56999 0.35133 0.36675 0.14600
C 	C 	0.60461 0.61461 0.36995 0.29200
Ni	Ni	0.80322 0.51206 0.36955 1.11700
O 	O 	0.84056 0.24442 0.36458 -0.36700
C 	C 	0.94631 0.36181 0.36701 0.30300
C 	C 	0.46674 0.66631 0.38247 0.01500
C 	C 	0.57873 0.71171 0.37520 -0.08200
O 	O 	0.66343 0.55921 0.37552 -0.39900
H 	H 	0.01199 0.18331 0.37530 0.03800
C 	C 	0.69394 0.84073 0.37617 0.00600
O 	O 	0.58788 0.17649 0.37642 -0.36800
H 	H 	0.77749 0.88053 0.37030 0.03100
C 	C 	0.03190 0.37592 0.37648 -0.08700
C 	C 	0.04104 0.26764 0.38025 0.02300
C 	C 	0.07713 0.48688 0.38290 0.02000
H 	H 	0.07619 0.57331 0.38003 0.01300
H 	H 	0.40579 0.69272 0.39782 0.04400
C 	C 	0.48611 0.73528 0.39177 -0.06200
C 	C 	0.63906 0.27564 0.38311 0.28900
O 	O 	0.76410 0.38303 0.38144 -0.38500
C 	C 	0.11070 0.48210 0.39333 -0.06600
C 	C 	0.61789 0.84911 0.39379 0.02400
C 	C 	0.71415 0.90933 0.38551 -0.05400
C 	C 	0.07921 0.26467 0.39064 -0.06500
C 	C 	0.10959 0.37024 0.39728 0.03100
H 	H 	0.13583 0.56478 0.39838 0.04600
H 	H 	0.66326 0.46564 0.39628 0.03500
H 	H 	0.81199 0.00188 0.38671 0.04300
C 	C 	0.57022 0.25724 0.39334 -0.08400
H 	H 	0.08179 0.17920 0.39357 0.04800
C 	C 	0.59370 0.36721 0.39920 0.01300
H 	H 	0.46140 0.04466 0.39284 0.03700
C 	C 	0.14222 0.36514 0.40835 -0.00000
H 	H 	0.36961 0.49785 0.40655 0.04000
H 	H 	0.48725 0.89534 0.41015 0.03800
C 	C 	0.66984 0.88140 0.40467 0.00200
C 	C 	0.79367 0.87722 0.40769 -0.04000
H 	H 	0.86256 0.87010 0.40187 0.03700
C 	C 	0.47877 0.13045 0.39720 0.01400
C 	C 	0.28271 0.44402 0.41199 -0.03900
C 	C 	0.58235 0.89113 0.41235 -0.03900
H 	H 	0.55121 0.43658 0.41344 0.04300
C 	C 	0.52808 0.35076 0.40887 -0.06500
C 	C 	0.41142 0.11394 0.40681 -0.06600
H 	H 	0.92153 0.23252 0.41270 0.03600
H 	H 	0.15878 0.05783 0.41896 0.03800
C 	C 	0.82220 0.87082 0.41822 -0.04000
C 	C 	0.43525 0.22404 0.41270 0.02700
H 	H 	0.34363 0.01557 0.40980 0.04200
C 	C 	0.03069 0.29376 0.41545 -0.03100
C 	C 	0.31161 0.45477 0.42264 -0.03500
H 	H 	0.42128 0.51509 0.42530 0.03600
C 	C 	0.61139 0.88515 0.42289 -0.03900
H 	H 	0.91290 0.85941 0.42042 0.03400
C 	C 	0.23383 0.10408 0.42531 -0.03300
C 	C 	0.19960 0.38789 0.42984 -0.00200
H 	H 	0.53880 0.88534 0.42873 0.03600
C 	C 	0.72870 0.87046 0.42584 -0.00200
C 	C 	0.37441 0.20598 0.42331 -0.00100
C 	C 	0.05879 0.30612 0.42616 -0.02400
H 	H 	0.09448 0.96331 0.43663 0.04800
C 	C 	0.19612 0.05231 0.43534 -0.04700
H 	H 	0.97065 0.25538 0.43157 0.02700
H 	H 	0.37381 0.61908 0.43972 0.04700
H 	H 	0.68189 0.63769 0.43358 0.04300
C 	C 	0.74441 0.84025 0.43675 0.02100
C 	C 	0.46415 0.27446 0.43173 -0.03600
H 	H 	0.57020 0.35782 0.43041 0.03500
C 	C 	0.22941 0.40938 0.44120 0.03200
C 	C 	0.71319 0.71293 0.43950 -0.06700
H 	H 	0.41138 0.94893 0.44137 0.04500
H 	H 	0.81223 0.03613 0.44237 0.03700
C 	C 	0.32653 0.53561 0.44495 -0.06600
C 	C 	0.78644 0.93722 0.44444 -0.06300
C 	C 	0.29748 0.10558 0.44339 0.00500
H 	H 	0.08763 0.20624 0.44557 0.05000
C 	C 	0.42285 0.22666 0.44181 -0.03900
C 	C 	0.16385 0.30398 0.44827 -0.06600
C 	C 	0.30044 0.01743 0.45133 0.02300
C 	C 	0.37650 0.95161 0.44922 -0.06000
H 	H 	0.49748 0.27365 0.44818 0.04200
C 	C 	0.36192 0.55504 0.45548 0.02100
H 	H 	0.43754 0.65227 0.45826 0.03400
H 	H 	0.68889 0.58138 0.45196 0.03600
C 	C 	0.71742 0.68112 0.44993 0.01400
H 	H 	0.49166 0.86307 0.45566 0.03400
C 	C 	0.42108 0.90185 0.45733 0.01600
C 	C 	0.79157 0.90581 0.45488 0.01200
H 	H 	0.14116 0.24475 0.46435 0.03100
C 	C 	0.19684 0.32494 0.45890 0.02000
C 	C 	0.29678 0.45060 0.46252 -0.08900
C 	C 	0.75192 0.77624 0.45773 -0.09000
C 	C 	0.38239 0.90989 0.46760 -0.08800
H 	H 	0.19210 0.06687 0.46315 0.05300
C 	C 	0.25410 0.01915 0.46150 -0.06500
H 	H 	0.82028 0.98082 0.46078 0.03100
C 	C 	0.72950 0.73698 0.46883 0.30400
C 	C 	0.29395 0.96436 0.46963 0.02400
O 	O 	0.37996 0.43269 0.47960 -0.37600
C 	C 	0.31480 0.47906 0.47370 0.30100
O 	O 	0.27179 0.55701 0.47761 -0.37200
O 	O 	0.64602 0.61279 0.47135 -0.39100
C 	C 	0.44251 0.86946 0.47618 0.30500
H 	H 	0.26171 0.96967 0.47752 0.04600
O 	O 	0.57035 0.88119 0.47509 -0.39200
O 	O 	0.79454 0.82585 0.47609 -0.39000
O 	O 	0.36832 0.82152 0.48476 -0.36700
Ni	Ni	0.57670 0.55266 0.48598 1.11900
Ni	Ni	0.34619 0.65231 0.49171 1.11500
O 	O 	0.53709 0.68744 0.49014 -0.71300
Ni	Ni	0.68338 0.86168 0.48691 1.12000
H 	H 	0.94891 0.50795 0.49523 0.02500
O 	O 	0.77977 0.64955 0.49210 -0.37300
S 	S 	0.04120 0.63761 0.49747 -0.03300
H 	H 	0.99250 0.28598 0.50453 0.02400
S 	S 	0.05555 0.21551 0.50786 -0.00100
O 	O 	0.28609 0.47158 0.49880 -0.36700
O 	O 	0.49492 0.45873 0.49970 -0.37600
H 	H 	0.55878 0.68754 0.49758 0.14000
C 	C 	0.82520 0.74557 0.49921 0.27700
O 	O 	0.81412 0.85239 0.49764 -0.38100
O 	O 	0.59926 0.93775 0.49723 -0.37600
C 	C 	0.37500 0.44419 0.50400 0.28500
O 	O 	0.40877 0.76201 0.50537 -0.36700
C 	C 	0.52883 0.87767 0.50586 0.28200
H 	H 	0.63586 0.13828 0.50729 0.05200
C 	C 	0.89771 0.73860 0.50883 -0.05700
C 	C 	0.98572 0.68001 0.50903 0.00300
C 	C 	0.18755 0.30709 0.51726 0.03600
C 	C 	0.33367 0.38547 0.51447 -0.06800
H 	H 	0.81964 0.84572 0.51788 0.05100
C 	C 	0.87902 0.79313 0.51803 -0.03700
C 	C 	0.56327 0.95585 0.51555 -0.06300
C 	C 	0.62591 0.09273 0.51481 -0.02900
C 	C 	0.68628 0.17218 0.52354 0.03700
H 	H 	0.71498 0.40088 0.52151 0.05100
C 	C 	0.03552 0.66052 0.51860 0.02400
S 	S 	0.79706 0.34146 0.52170 -0.05700
H 	H 	0.09413 0.60728 0.51885 0.03500
H 	H 	0.03481 0.24836 0.52980 0.05200
C 	C 	0.14764 0.29764 0.52772 -0.02200
C 	C 	0.43883 0.42772 0.52230 -0.03000
H 	H 	0.55169 0.48271 0.52025 0.04900
C 	C 	0.54781 0.89777 0.52546 0.03200
C 	C 	0.93331 0.77727 0.52747 0.04900
C 	C 	0.99914 0.69932 0.52791 -0.09700
H 	H 	0.33312 0.66483 0.52702 0.05400
S 	S 	0.48016 0.72804 0.52682 -0.04000
C 	C 	0.59575 0.97733 0.53435 -0.01300
C 	C 	0.66913 0.11469 0.53345 -0.07500
C 	C 	0.25266 0.36185 0.53538 -0.07700
C 	C 	0.39824 0.41345 0.53278 0.05200
O 	O 	0.86301 0.52284 0.53968 -0.38600
C 	C 	0.98930 0.62753 0.53753 0.27700
C 	C 	0.21349 0.40694 0.54481 0.28700
H 	H 	0.79127 0.77599 0.54363 0.04100
S 	S 	0.91858 0.85564 0.53870 -0.03200
H 	H 	0.58397 0.93247 0.54193 0.04500
C 	C 	0.74676 0.19514 0.54256 0.28300
O 	O 	0.09194 0.68590 0.54473 -0.35700
O 	O 	0.84827 0.17624 0.54673 -0.37800
H 	H 	0.98012 0.41489 0.54737 0.13500
O 	O 	0.23724 0.52952 0.54513 -0.37600
S 	S 	0.53050 0.46819 0.54255 -0.06800
H 	H 	0.55641 0.58799 0.54613 0.04500
O 	O 	0.68958 0.25584 0.54784 -0.36300
O 	O 	0.16304 0.32782 0.55298 -0.35800
Ni	Ni	0.80332 0.44264 0.55384 1.12100
O 	O 	0.97329 0.43007 0.55483 -0.72100
Ni	Ni	0.14734 0.59388 0.55583 1.12300
O 	O 	0.87673 0.62556 0.55947 -0.38900
Ni	Ni	0.96467 0.27529 0.55985 1.10700
H 	H 	0.70324 0.63891 0.57280 0.03400
O 	O 	0.72681 0.37480 0.56830 -0.38100
C 	C 	0.96524 0.67188 0.56744 0.29500
O 	O 	0.76980 0.20367 0.56747 -0.37700
O 	O 	0.08683 0.66962 0.56747 -0.38200
O 	O 	0.06438 0.35157 0.57397 -0.36800
C 	C 	0.17694 0.46903 0.57498 0.30300
O 	O 	0.24477 0.53848 0.56673 -0.37600
C 	C 	0.78666 0.69405 0.57847 0.02900
C 	C 	0.93044 0.73072 0.57635 -0.11600
C 	C 	0.74335 0.28351 0.57296 0.30200
H 	H 	0.63702 0.68704 0.58994 0.05400
H 	H 	0.13699 0.62077 0.58882 0.03500
C 	C 	0.24291 0.50991 0.58529 -0.08500
H 	H 	0.35971 0.40403 0.58431 0.03600
C 	C 	0.74877 0.71983 0.58824 -0.08000
H 	H 	0.65990 0.07490 0.58599 0.03400
C 	C 	0.03723 0.80545 0.58370 0.06000
C 	C 	0.75555 0.28555 0.58439 -0.09200
H 	H 	0.85952 0.49684 0.58544 0.03300
H 	H 	0.14924 0.83919 0.58203 0.02800
C 	C 	0.19770 0.57730 0.59191 0.01400
C 	C 	0.32268 0.45497 0.58938 0.01700
C 	C 	0.85404 0.78175 0.59597 0.04500
C 	C 	0.70936 0.16865 0.58999 0.01800
C 	C 	0.81966 0.40614 0.58969 0.01800
H 	H 	0.95909 0.99551 0.60861 0.03400
C 	C 	0.99900 0.82841 0.59353 -0.11300
C 	C 	0.21910 0.57845 0.60264 -0.06300
C 	C 	0.34616 0.45764 0.60011 -0.06600
C 	C 	0.81175 0.78711 0.60682 -0.00900
C 	C 	0.72573 0.17256 0.60081 -0.06700
H 	H 	0.08148 0.87760 0.59939 0.06300
C 	C 	0.83752 0.41038 0.60045 -0.06700
H 	H 	0.88918 0.50455 0.60440 0.04400
H 	H 	0.17520 0.62348 0.60772 0.04600
C 	C 	0.28930 0.51475 0.60684 0.02800
H 	H 	0.40367 0.41101 0.60322 0.04500
H 	H 	0.66111 0.57851 0.60775 0.03600
C 	C 	0.71187 0.67122 0.61189 -0.03500
C 	C 	0.88104 0.90559 0.61241 -0.03700
H 	H 	0.68728 0.08154 0.60509 0.04700
C 	C 	0.79048 0.29379 0.60609 0.02800
C 	C 	0.85384 0.90728 0.62302 -0.04200
H 	H 	0.37904 0.70724 0.62146 0.03900
C 	C 	0.29461 0.50055 0.61827 0.00000
C 	C 	0.68130 0.67399 0.62242 -0.04100
C 	C 	0.75124 0.79237 0.62800 0.00100
H 	H 	0.91577 0.99661 0.62742 0.03400
H 	H 	0.71979 0.42865 0.61989 0.03700
C 	C 	0.80577 0.29817 0.61755 -0.00100
H 	H 	0.90516 0.17700 0.61794 0.03700
H 	H 	0.20894 0.28993 0.61780 0.03900
C 	C 	0.33857 0.61019 0.62477 -0.03800
H 	H 	0.60488 0.58385 0.62628 0.04100
C 	C 	0.75940 0.36991 0.62359 -0.03900
C 	C 	0.86052 0.22576 0.62250 -0.03800
C 	C 	0.24550 0.37577 0.62272 -0.03700
H 	H 	0.63256 0.92511 0.63703 0.04500
C 	C 	0.32763 0.59454 0.63556 -0.03700
H 	H 	0.35426 0.67859 0.64047 0.04300
H 	H 	0.40995 0.39309 0.65413 0.04600
H 	H 	0.55281 0.90820 0.65523 0.03400
C 	C 	0.60869 0.85699 0.65284 0.00900
C 	C 	0.65418 0.86682 0.64251 -0.06500
C 	C 	0.71937 0.79509 0.63912 0.02400
C 	C 	0.70266 0.71089 0.65659 0.01200
C 	C 	0.74667 0.71993 0.64626 -0.06500
H 	H 	0.79915 0.66601 0.64375 0.04400
H 	H 	0.72294 0.41776 0.63900 0.03500
C 	C 	0.75843 0.36153 0.63443 -0.03900
C 	C 	0.79465 0.27453 0.63932 -0.00000
C 	C 	0.85251 0.21184 0.63330 -0.03900
H 	H 	0.88618 0.14851 0.63694 0.03700
H 	H 	0.19630 0.26377 0.63689 0.03700
C 	C 	0.23785 0.36079 0.63354 -0.03900
C 	C 	0.27698 0.46988 0.64000 0.00100
C 	C 	0.25129 0.45223 0.65131 0.02900
C 	C 	0.33356 0.41670 0.65762 -0.06300
C 	C 	0.62897 0.77595 0.65989 -0.07800
H 	H 	0.55344 0.23686 0.64939 0.04400
C 	C 	0.75505 0.23644 0.65038 0.02500
H 	H 	0.08410 0.50398 0.65110 0.04800
C 	C 	0.15120 0.48034 0.65591 -0.06500
H 	H 	0.72103 0.64915 0.66191 0.04000
C 	C 	0.62367 0.21807 0.65427 -0.06700
C 	C 	0.84199 0.20730 0.65680 -0.06400
H 	H 	0.94276 0.21944 0.65395 0.04900
C 	C 	0.13822 0.47935 0.66671 0.01700
C 	C 	0.32343 0.41939 0.66848 0.02300
H 	H 	0.39307 0.39879 0.67327 0.03400
O 	O 	0.43806 0.75042 0.67113 -0.38300
C 	C 	0.55997 0.74752 0.67027 0.28500
C 	C 	0.57871 0.16868 0.66427 0.01700
C 	C 	0.23290 0.46023 0.67308 -0.09200
O 	O 	0.58859 0.67436 0.67663 -0.37200
O 	O 	0.46034 0.98339 0.68075 -0.40300
H 	H 	0.47617 0.15320 0.66708 0.03900
C 	C 	0.66203 0.13305 0.67043 -0.08900
C 	C 	0.79614 0.15692 0.66679 0.01600
H 	H 	0.06136 0.50279 0.67013 0.03200
H 	H 	0.86155 0.13001 0.67148 0.04400
C 	C 	0.25939 0.51239 0.68386 0.30300
O 	O 	0.22206 0.59937 0.68631 -0.38700
O 	O 	0.35021 0.49922 0.68992 -0.37500
Ni	Ni	0.36117 0.79199 0.68426 1.11800
C 	C 	0.60026 0.05431 0.67989 0.31100
O 	O 	0.25641 0.82449 0.69589 -0.37500
Ni	Ni	0.55678 0.65646 0.69262 1.10900
O 	O 	0.50199 0.78847 0.69335 -0.70200
O 	O 	0.77756 0.76457 0.69495 -0.37400
O 	O 	0.68340 0.07294 0.68799 -0.37000
O 	O 	0.81472 0.96519 0.69867 -0.38700
C 	C 	0.32477 0.89422 0.70418 0.29000
H 	H 	0.42984 0.74394 0.69883 0.12600
Ni	Ni	0.62137 0.95239 0.70042 1.11500
C 	C 	0.83357 0.86708 0.70103 0.31300
C 	C 	0.25418 0.86017 0.71434 -0.08800
H 	H 	0.30400 0.05822 0.71801 0.04900
O 	O 	0.54109 0.64020 0.70888 -0.36900
O 	O 	0.45987 0.98859 0.70357 -0.39100
H 	H 	0.84862 0.66122 0.70988 0.03800
C 	C 	0.88125 0.85787 0.71168 -0.09000
H 	H 	0.18837 0.65402 0.71312 0.02900
C 	C 	0.20184 0.73273 0.71825 0.01200
C 	C 	0.26826 0.96044 0.72102 0.00500
C 	C 	0.52921 0.72188 0.71560 0.27200
O 	O 	0.59517 0.85247 0.71409 -0.38100
C 	C 	0.86744 0.73892 0.71529 0.03100
H 	H 	0.93409 0.05498 0.71614 0.04600
C 	C 	0.91580 0.96030 0.71881 0.01300
H 	H 	0.35081 0.46856 0.72132 0.03700
H 	H 	0.24738 0.25690 0.00199 0.05000
H 	H 	0.80030 0.85105 0.00664 0.04600
C 	C 	0.01681 0.32172 0.98836 -0.13100
C 	C 	0.93147 0.32180 0.99655 0.06100
H 	H 	0.84270 0.33842 0.99491 0.03000
C 	C 	0.24596 0.93718 0.73168 -0.09100
H 	H 	0.26114 0.01640 0.73681 0.06600
C 	C 	0.18111 0.70958 0.72894 -0.06900
C 	C 	0.21003 0.81342 0.73576 0.03400
C 	C 	0.47649 0.67158 0.72619 -0.07500
C 	C 	0.86976 0.71718 0.72598 -0.06400
H 	H 	0.85728 0.62452 0.72867 0.05300
C 	C 	0.91284 0.93718 0.72949 -0.08600
H 	H 	0.14953 0.61269 0.73194 0.04600
C 	C 	0.21224 0.79534 0.74713 -0.00600
C 	C 	0.38435 0.53648 0.72781 0.00600
C 	C 	0.51893 0.75787 0.73473 0.01100
H 	H 	0.59173 0.86206 0.73367 0.03600
C 	C 	0.88608 0.81421 0.73317 0.04600
H 	H 	0.92608 0.01339 0.73488 0.07000
H 	H 	0.26585 0.38361 0.73893 0.04300
C 	C 	0.33412 0.48842 0.73779 -0.06400
C 	C 	0.32709 0.88899 0.75313 -0.04000
H 	H 	0.41807 0.97109 0.74942 0.03200
C 	C 	0.87118 0.78616 0.74454 -0.00900
H 	H 	0.04941 0.97597 0.74896 0.00500
H 	H 	0.01145 0.61122 0.74746 0.03000
C 	C 	0.32683 0.87499 0.76391 -0.04200
C 	C 	0.37237 0.57516 0.74628 0.02400
H 	H 	0.51147 0.65626 0.76499 0.04000
C 	C 	0.46795 0.70991 0.74470 -0.06200
H 	H 	0.50262 0.77777 0.75117 0.04500
H 	H 	0.69260 0.58751 0.74296 0.04200
C 	C 	0.76362 0.66365 0.74831 -0.03200
C 	C 	0.96099 0.88372 0.75168 -0.01000
C 	C 	0.20844 0.77080 0.76887 0.00000
H 	H 	0.09796 0.39113 0.75174 0.03300
C 	C 	0.17307 0.42176 0.75817 -0.03800
C 	C 	0.36324 0.50358 0.77506 -0.03800
C 	C 	0.31561 0.52384 0.75687 0.00200
H 	H 	0.43819 0.53533 0.78150 0.04500
C 	C 	0.40656 0.57017 0.76558 -0.03700
H 	H 	0.41771 0.94624 0.76842 0.03400
H 	H 	0.66112 0.54609 0.76182 0.04100
C 	C 	0.74416 0.64078 0.75902 -0.03500
C 	C 	0.82392 0.74304 0.76606 -0.00800
C 	C 	0.93644 0.86260 0.76236 -0.00100
H 	H 	0.00355 0.93974 0.76777 0.00100
H 	H 	0.00406 0.59315 0.76652 0.03000
C 	C 	0.19765 0.76731 0.78037 0.02000
C 	C 	0.12767 0.35794 0.76777 -0.04200
C 	C 	0.22437 0.39524 0.77616 0.00100
H 	H 	0.11563 0.55809 0.78153 0.04500
H 	H 	0.71874 0.88317 0.77557 0.04500
C 	C 	0.77703 0.73192 0.77700 0.03200
H 	H 	0.81721 0.57345 0.78081 0.05700
C 	C 	0.23334 0.88260 0.78598 -0.06300
H 	H 	0.01788 0.27891 0.76866 0.03300
C 	C 	0.14387 0.64763 0.78572 -0.06700
C 	C 	0.72642 0.81390 0.78074 -0.06800
C 	C 	0.78110 0.63907 0.78368 -0.06100
C 	C 	0.21259 0.87726 0.79673 -0.00500
C 	C 	0.07238 0.11235 0.79530 0.00400
C 	C 	0.11072 0.18263 0.78597 -0.05900
C 	C 	0.14870 0.75606 0.80190 -0.07300
C 	C 	0.11806 0.64187 0.79639 0.00400
C 	C 	0.18032 0.32063 0.78607 0.02200
H 	H 	0.06750 0.54751 0.80029 0.03000
C 	C 	0.21129 0.38728 0.79565 -0.06200
H 	H 	0.26779 0.49361 0.79588 0.05000
C 	C 	0.68665 0.80759 0.79116 0.01400
H 	H 	0.65032 0.87333 0.79396 0.03600
C 	C 	0.74127 0.63272 0.79413 0.01500
C 	C 	0.08449 0.74435 0.81216 0.23400
C 	C 	0.10414 0.17918 0.80483 -0.06800
C 	C 	0.17222 0.31669 0.80498 0.00800
C 	C 	0.70000 0.72117 0.79805 -0.08600
H 	H 	0.74665 0.56181 0.79923 0.04300
H 	H 	0.02001 0.00599 0.79513 0.03400
C 	C 	0.07831 0.10580 0.81456 0.23500
O 	O 	0.16693 0.81366 0.82011 -0.38200
O 	O 	0.16305 0.05710 0.81695 -0.35400
H 	H 	0.19835 0.36905 0.81232 0.04000
C 	C 	0.69563 0.73991 0.80941 0.28300
O 	O 	0.67429 0.64397 0.81597 -0.37000
O 	O 	0.72093 0.85586 0.81295 -0.37500
Ni	Ni	0.12459 0.93341 0.82908 1.09500
H 	H 	0.32075 0.36223 0.84625 0.04600
S 	S 	0.45793 0.41042 0.84991 -0.02700
Ni	Ni	0.81566 0.92666 0.82738 1.10500
Ni	Ni	0.83171 0.65475 0.82565 1.12200
C 	C 	0.02532 0.70828 0.84325 0.26000
O 	O 	0.11101 0.83567 0.84224 -0.40300
O 	O 	0.12409 0.07603 0.83805 -0.37900
S 	S 	0.19788 0.56542 0.84626 -0.04100
H 	H 	0.31951 0.68315 0.84440 0.04800
O 	O 	0.63249 0.76788 0.83349 -0.37700
O 	O 	0.71052 0.62745 0.83853 -0.37600
C 	C 	0.02398 0.05113 0.84502 0.32300
C 	C 	0.01288 0.64764 0.85345 -0.12100
C 	C 	0.09498 0.58761 0.85588 0.04100
H 	H 	0.16493 0.50583 0.86802 0.04100
H 	H 	0.43145 0.46555 0.87108 0.05100
C 	C 	0.51306 0.56038 0.85641 0.04100
C 	C 	0.57903 0.68089 0.85097 -0.08100
C 	C 	0.64126 0.69116 0.84052 0.30400
H 	H 	0.75119 0.13003 0.85336 0.05200
C 	C 	0.92876 0.66122 0.86116 0.02500
C 	C 	0.99878 0.17588 0.85996 0.18500
C 	C 	0.06503 0.10954 0.85548 -0.16800
C 	C 	0.09727 0.54730 0.86608 -0.02400
C 	C 	0.48092 0.55802 0.86697 -0.03200
H 	H 	0.96867 0.25998 0.87385 0.12500
C 	C 	0.92907 0.61889 0.87133 0.07300
C 	C 	0.02516 0.21504 0.87036 -0.18800
C 	C 	0.16355 0.09054 0.86135 0.02300
H 	H 	0.21346 0.03821 0.85800 0.04700
C 	C 	0.01645 0.56441 0.87387 -0.11900
C 	C 	0.60072 0.79548 0.85603 -0.02500
C 	C 	0.50787 0.67344 0.87213 -0.07700
H 	H 	0.64501 0.88711 0.85179 0.03900
S 	S 	0.81799 0.63258 0.88074 -0.00700
C 	C 	0.12865 0.20214 0.87609 -0.01400
C 	C 	0.19657 0.13726 0.87159 0.00100
O 	O 	0.99827 0.41537 0.88745 -0.33900
C 	C 	0.03419 0.53596 0.88473 0.26100
O 	O 	0.36315 0.70198 0.88504 -0.38200
C 	C 	0.56836 0.79297 0.86660 0.04300
C 	C 	0.17825 0.27186 0.88613 0.27400
S 	S 	0.31770 0.10836 0.87882 -0.00700
O 	O 	0.31543 0.35632 0.88743 -0.37500
O 	O 	0.08652 0.63140 0.89159 -0.39400
H 	H 	0.45444 0.21108 0.87740 0.04100
C 	C 	0.45814 0.66529 0.88294 0.29800
O 	O 	0.08824 0.23889 0.89397 -0.37600
O 	O 	0.51828 0.63320 0.89044 -0.37000
S 	S 	0.61113 0.94121 0.87294 -0.06100
Ni	Ni	0.04867 0.37100 0.90136 1.10400
Ni	Ni	0.27022 0.68203 0.89919 1.11700
H 	H 	0.74439 0.99238 0.87739 0.04200
O 	O 	0.97011 0.47342 0.90910 -0.32100
O 	O 	0.24289 0.51083 0.90192 -0.71200
Ni	Ni	0.39679 0.47691 0.90038 1.11200
H 	H 	0.89462 0.69956 0.91669 0.05100
C 	C 	0.90834 0.66393 0.92414 0.00600
O 	O 	0.07870 0.29834 0.91491 -0.38500
C 	C 	0.20023 0.29992 0.91735 0.27600
C 	C 	0.04666 0.57379 0.91549 0.20700
O 	O 	0.29395 0.31227 0.91008 -0.36300
H 	H 	0.24770 0.51908 0.90953 0.13300
O 	O 	0.16913 0.67724 0.91247 -0.38000
O 	O 	0.50478 0.60454 0.91265 -0.37200
C 	C 	0.49273 0.71026 0.91428 0.28600
O 	O 	0.46556 0.76743 0.90639 -0.37900
C 	C 	0.97640 0.58848 0.92472 -0.03500
H 	H 	0.55944 0.62742 0.93214 0.03500
H 	H 	0.81961 0.76398 0.93271 0.04800
C 	C 	0.86490 0.69967 0.93321 -0.05800
C 	C 	0.22442 0.27529 0.92822 -0.06000
C 	C 	0.99487 0.54373 0.93440 0.04700
H 	H 	0.45663 0.38011 0.92703 0.03900
H 	H 	0.04911 0.48674 0.93492 0.00000
C 	C 	0.48265 0.74878 0.92510 -0.09200
C 	C 	0.51277 0.68941 0.93349 0.01300
H 	H 	0.99823 0.16597 0.93207 0.08700
C 	C 	0.10721 0.21008 0.93500 -0.04400
C 	C 	0.36504 0.32961 0.93216 0.00000
H 	H 	0.40636 0.88239 0.92081 0.02800
C 	C 	0.42467 0.83114 0.92711 0.01400
C 	C 	0.85349 0.70663 0.95257 0.00200
C 	C 	0.88621 0.65775 0.94295 0.02800
C 	C 	0.12994 0.20625 0.94564 -0.04100
C 	C 	0.94864 0.57718 0.94348 -0.06900
H 	H 	0.98016 0.91134 0.94823 0.04100
C 	C 	0.38778 0.32473 0.94285 -0.05300
H 	H 	0.96523 0.54392 0.95094 0.05800
C 	C 	0.38233 0.84151 0.93719 -0.06700
C 	C 	0.47774 0.70589 0.94363 -0.06700
H 	H 	0.50484 0.66251 0.95004 0.04600
C 	C 	0.91048 0.84220 0.95405 -0.03700
H 	H 	0.03851 0.16272 0.95084 0.03500
C 	C 	0.27016 0.26454 0.94965 0.01300
H 	H 	0.49650 0.37114 0.94586 0.04500
C 	C 	0.40532 0.77595 0.94546 0.02300
C 	C 	0.76443 0.61821 0.96023 -0.03800
C 	C 	0.87745 0.88879 0.96302 -0.04200
H 	H 	0.32890 0.89801 0.93854 0.03900
H 	H 	0.46690 0.98761 0.95753 0.03000
C 	C 	0.73463 0.66535 0.96934 -0.04000
C 	C 	0.79201 0.80104 0.97080 0.00500
H 	H 	0.19026 0.06666 0.96380 0.04900
C 	C 	0.22367 0.16212 0.96719 -0.04300
H 	H 	0.91829 0.99315 0.96395 0.03400
C 	C 	0.29215 0.27567 0.96102 0.00700
C 	C 	0.34685 0.39902 0.96579 -0.04400
H 	H 	0.40765 0.48776 0.96131 0.03900
H 	H 	0.21418 0.56472 0.95666 0.03500
C 	C 	0.25215 0.65690 0.96076 -0.04400
C 	C 	0.34864 0.77612 0.95593 -0.00100
C 	C 	0.39347 0.89499 0.96121 -0.04400
C 	C 	0.76070 0.85133 0.98037 0.01200
C 	C 	0.20548 0.65632 0.97092 -0.04100
C 	C 	0.34783 0.89434 0.97141 -0.04200
C 	C 	0.18112 0.17023 0.97732 -0.03200
H 	H 	0.86055 0.77370 0.99060 0.05000
C 	C 	0.30910 0.40765 0.97605 -0.03400
H 	H 	0.34296 0.50319 0.97943 0.03700
H 	H 	0.13191 0.56389 0.97459 0.03100
C 	C 	0.25665 0.77468 0.97642 -0.00200
H 	H 	0.38703 0.98653 0.97553 0.02700
C 	C 	0.68800 0.93600 0.99864 -0.05200
H 	H 	0.11006 0.08113 0.98150 0.04400
C 	C 	0.76861 0.87138 0.99917 -0.00300
C 	C 	0.80308 0.82772 0.99008 -0.05400
C 	C 	0.21601 0.29291 0.98152 -0.01200
C 	C 	0.13192 0.29980 0.99029 0.04800
H 	H 	0.13664 0.90286 0.98610 0.03200
C 	C 	0.22447 0.77334 0.98763 0.02200
C 	C 	0.26220 0.70402 0.99469 -0.06100
H 	H 	0.29760 0.63773 0.99188 0.04800
H 	H 	0.99147 0.33568 0.98047 0.08200
C 	C 	0.16019 0.27624 0.00047 -0.06800
C 	C 	0.17383 0.85494 0.99144 -0.06800
H 	H 	0.59636 0.02072 0.98826 0.07900
H 	H 	0.66062 0.94652 0.97229 0.03500
O 	O 	0.94837 0.65294 0.81355 -0.34400
H 	H 	0.93843 0.85438 0.81799 0.14000
O 	O 	0.92493 0.84251 0.82555 -0.69800
O 	O 	0.88748 0.98527 0.84247 -0.39400
H 	H 	0.23778 0.96620 0.80092 0.02800
H 	H 	0.86514 0.70705 0.85928 0.04600
H 	H 	0.66596 0.59656 0.97522 0.04200
H 	H 	0.27207 0.97540 0.78197 0.03600
H 	H 	0.08877 0.13008 0.77867 0.04700
S 	S 	0.89370 0.22179 0.85239 -0.02700
H 	H 	0.68881 0.51785 0.88104 0.03600
C 	C 	0.65447 0.96739 0.98885 -0.04900
O 	O 	0.96834 0.63321 0.83504 -0.33300
O 	O 	0.98247 0.10230 0.82127 -0.30500
C 	C 	0.69009 0.92465 0.97978 -0.04100
C 	C 	0.09958 0.68529 0.75201 -0.03700
C 	C 	0.09623 0.67425 0.76283 -0.03900
H 	H 	0.71788 0.51326 0.95909 0.04000
