data_crystal

_cell_length_a 46.89948
_cell_length_b 45.98427
_cell_length_c 39.36481
_cell_angle_alpha 89.96246
_cell_angle_beta  89.95682
_cell_angle_gamma 90.47377

_symmetry_space_group_name_	'P 1'
_symmetry_space_group_name_H-M	'P 1'

loop_
_symmetry_equiv_pos_as_xyz
  x,y,z

loop_
_atom_site_label
_atom_site_type_symbol
_atom_site_fract_x
_atom_site_fract_y
_atom_site_fract_z
_atom_site_charge
Zn	Zn	0.48832 0.50374 0.99888 1.22100
C 	C 	0.51783 0.55902 0.99975 0.31900
O 	O 	0.50761 0.48112 0.03410 -0.47600
O 	O 	0.49988 0.56611 0.02400 -0.45400
O 	O 	0.52679 0.51874 0.06347 -0.49500
C 	C 	0.43987 0.53464 0.02169 0.34400
O 	O 	0.45637 0.53006 0.99541 -0.45400
O 	O 	0.44976 0.53132 0.05262 -0.50900
C 	C 	0.52898 0.49242 0.05108 0.31900
O 	O 	0.45455 0.46602 0.99298 -0.32600
Zn	Zn	0.49000 0.53814 0.06330 1.16900
O 	O 	0.51881 0.53209 0.98846 -0.43600
C 	C 	0.46817 0.45940 0.96539 0.27900
O 	O 	0.48972 0.47615 0.95821 -0.38300
Zn	Zn	0.37222 0.15757 0.01916 1.22100
C 	C 	0.38685 0.15900 0.09008 0.31400
O 	O 	0.33726 0.14191 0.04027 -0.45300
O 	O 	0.36355 0.17366 0.09633 -0.44700
O 	O 	0.31668 0.18632 0.04601 -0.51100
C 	C 	0.39501 0.21579 0.01555 0.33400
O 	O 	0.38518 0.19372 0.99786 -0.46500
O 	O 	0.38771 0.21890 0.04747 -0.49700
C 	C 	0.31450 0.15791 0.04449 0.34600
O 	O 	0.35517 0.14380 0.96471 -0.32000
Zn	Zn	0.35054 0.20591 0.06348 1.17100
O 	O 	0.39725 0.15804 0.05914 -0.43900
C 	C 	0.37367 0.12304 0.96706 0.27500
O 	O 	0.38866 0.12277 0.99460 -0.38200
C 	C 	0.51778 0.97425 0.33994 0.13800
C 	C 	0.49999 0.99227 0.32073 -0.10200
H 	H 	0.48549 0.00688 0.33351 0.06900
C 	C 	0.50155 0.99199 0.28513 0.04600
C 	C 	0.52066 0.97322 0.26883 -0.08300
C 	C 	0.53874 0.95549 0.28803 0.04600
C 	C 	0.53715 0.95592 0.32358 -0.10300
H 	H 	0.55120 0.94238 0.33853 0.06900
N 	N 	0.51691 0.97535 0.37641 -0.18200
C 	C 	0.50220 0.95425 0.39398 0.19700
C 	C 	0.50224 0.95417 0.42975 -0.08200
C 	C 	0.51708 0.97620 0.44724 0.06100
C 	C 	0.53156 0.99798 0.42887 -0.08200
C 	C 	0.53131 0.99713 0.39313 0.19700
C 	C 	0.48818 0.93211 0.44816 0.01000
C 	C 	0.48810 0.93251 0.48364 -0.05800
C 	C 	0.50122 0.95567 0.50148 0.01600
C 	C 	0.51752 0.97639 0.48313 -0.02900
C 	C 	0.53433 0.99726 0.50052 0.01500
C 	C 	0.54588 0.02036 0.44641 0.01000
C 	C 	0.54684 0.02032 0.48188 -0.05800
C 	C 	0.49952 0.95790 0.53740 0.01600
C 	C 	0.51867 0.97660 0.55474 -0.02900
C 	C 	0.53721 0.99522 0.53634 0.01500
O 	O 	0.54529 0.01713 0.37563 -0.20400
O 	O 	0.48797 0.93397 0.37727 -0.20500
H 	H 	0.55600 0.03806 0.43267 0.04200
H 	H 	0.55616 0.03890 0.49466 0.04500
H 	H 	0.47768 0.91429 0.43507 0.04200
H 	H 	0.47905 0.91408 0.49702 0.04500
C 	C 	0.55896 0.01032 0.55399 -0.05800
C 	C 	0.55981 0.00990 0.58946 0.01000
C 	C 	0.53964 0.99359 0.60799 -0.08200
C 	C 	0.51926 0.97669 0.59063 0.06100
C 	C 	0.47839 0.94287 0.55623 -0.05800
C 	C 	0.47872 0.94347 0.59171 0.01000
C 	C 	0.49945 0.95993 0.60911 -0.08100
C 	C 	0.53970 0.99366 0.64376 0.19700
N 	N 	0.52018 0.97721 0.66145 -0.18100
C 	C 	0.50039 0.96029 0.64486 0.19700
C 	C 	0.52022 0.97800 0.69795 0.13800
C 	C 	0.53980 0.96126 0.71625 -0.10200
C 	C 	0.53991 0.96207 0.75187 0.04600
C 	C 	0.52032 0.97963 0.76910 -0.08300
C 	C 	0.50043 0.99604 0.75087 0.04600
C 	C 	0.50057 0.99539 0.71527 -0.10300
O 	O 	0.55840 0.00984 0.66034 -0.20500
O 	O 	0.48225 0.94423 0.66248 -0.20400
H 	H 	0.55478 0.94762 0.70278 0.06900
H 	H 	0.48533 0.00813 0.70105 0.07000
H 	H 	0.57601 0.02126 0.54044 0.04500
H 	H 	0.57648 0.02198 0.60242 0.04200
H 	H 	0.46090 0.93188 0.54363 0.04500
H 	H 	0.46250 0.93146 0.60557 0.04300
H 	H 	0.52052 0.98049 0.79664 0.05400
H 	H 	0.52197 0.97297 0.24133 0.05300
Zn	Zn	0.70278 0.82642 0.02428 1.22000
C 	C 	0.69021 0.82144 0.09585 0.31600
O 	O 	0.74349 0.83647 0.02004 -0.46600
O 	O 	0.69929 0.79447 0.09506 -0.44700
O 	O 	0.75521 0.81909 0.07226 -0.49600
C 	C 	0.68838 0.76585 0.02221 0.34700
O 	O 	0.67815 0.79211 0.02564 -0.46000
O 	O 	0.71480 0.76044 0.03078 -0.51300
C 	C 	0.76008 0.83702 0.04691 0.31500
O 	O 	0.69797 0.82510 0.96439 -0.32200
Zn	Zn	0.73411 0.78295 0.06592 1.16900
O 	O 	0.69668 0.83950 0.07110 -0.44000
C 	C 	0.68411 0.84923 0.96814 0.27500
O 	O 	0.68227 0.85852 0.99907 -0.38300
Zn	Zn	0.15275 0.68162 0.96647 1.22100
C 	C 	0.14805 0.67741 0.03942 0.31600
O 	O 	0.14889 0.72289 0.95379 -0.46300
O 	O 	0.17518 0.68448 0.04193 -0.45000
O 	O 	0.16034 0.73979 0.00633 -0.49700
C 	C 	0.20975 0.66241 0.97821 0.32700
O 	O 	0.18289 0.65416 0.97762 -0.45300
O 	O 	0.21634 0.68999 0.98190 -0.51300
C 	C 	0.14802 0.74356 0.97677 0.31700
O 	O 	0.16047 0.66941 0.90871 -0.32400
Zn	Zn	0.19358 0.71529 0.01039 1.17000
O 	O 	0.13406 0.68249 0.01114 -0.44000
C 	C 	0.13464 0.65904 0.90992 0.27400
O 	O 	0.12184 0.66139 0.93890 -0.38500
C 	C 	0.00893 0.49931 0.29369 0.13700
C 	C 	0.99096 0.48087 0.27487 -0.10200
H 	H 	0.97575 0.46694 0.28792 0.06900
C 	C 	0.99210 0.48107 0.23926 0.04600
C 	C 	0.01159 0.49946 0.22257 -0.08300
C 	C 	0.02901 0.51853 0.24124 0.04600
C 	C 	0.02793 0.51814 0.27686 -0.10200
H 	H 	0.04125 0.53291 0.29144 0.06900
N 	N 	0.00691 0.49988 0.33013 -0.18100
C 	C 	0.02112 0.47945 0.34891 0.19700
C 	C 	0.01866 0.47910 0.38458 -0.08100
C 	C 	0.00178 0.50007 0.40073 0.06100
C 	C 	0.98765 0.52106 0.38118 -0.08100
C 	C 	0.99045 0.52058 0.34556 0.19700
C 	C 	0.03242 0.45783 0.40415 0.00900
C 	C 	0.03018 0.45804 0.43955 -0.05800
C 	C 	0.01491 0.48023 0.45622 0.01500
C 	C 	0.99895 0.50000 0.43650 -0.02900
C 	C 	0.98012 0.51967 0.45236 0.01500
C 	C 	0.97119 0.54236 0.39743 0.01000
C 	C 	0.96784 0.54201 0.43270 -0.05800
C 	C 	0.01417 0.48238 0.49221 0.01500
C 	C 	0.99314 0.49976 0.50781 -0.02900
C 	C 	0.97502 0.51725 0.48782 0.01600
O 	O 	0.97697 0.53993 0.32692 -0.20500
O 	O 	0.03716 0.46009 0.33348 -0.20500
H 	H 	0.96123 0.55950 0.38287 0.04200
H 	H 	0.95686 0.55987 0.44464 0.04500
H 	H 	0.04453 0.44077 0.39201 0.04200
H 	H 	0.03915 0.44014 0.45367 0.04500
C 	C 	0.95153 0.53084 0.50349 -0.05800
C 	C 	0.94840 0.53019 0.53878 0.01000
C 	C 	0.96804 0.51512 0.55906 -0.08100
C 	C 	0.99025 0.49967 0.54356 0.06100
C 	C 	0.03468 0.46863 0.51287 -0.05800
C 	C 	0.03207 0.46911 0.54823 0.01000
C 	C 	0.00959 0.48418 0.56376 -0.08100
C 	C 	0.96564 0.51500 0.59473 0.19700
N 	N 	0.98475 0.49983 0.61412 -0.18100
C 	C 	0.00638 0.48440 0.59935 0.19700
C 	C 	0.98224 0.50038 0.65053 0.13800
C 	C 	0.99847 0.52029 0.66953 -0.10200
C 	C 	0.99554 0.52135 0.70493 0.04600
C 	C 	0.97659 0.50228 0.72137 -0.08300
C 	C 	0.96006 0.48254 0.70246 0.04600
C 	C 	0.96302 0.48154 0.66699 -0.10200
O 	O 	0.94511 0.52973 0.60958 -0.20400
O 	O 	0.02421 0.46967 0.61855 -0.20500
H 	H 	0.01303 0.53508 0.65672 0.06900
H 	H 	0.95018 0.46650 0.65218 0.06900
H 	H 	0.93494 0.54074 0.48846 0.04500
H 	H 	0.93041 0.54111 0.55022 0.04300
H 	H 	0.05337 0.45878 0.50185 0.04500
H 	H 	0.04789 0.45811 0.56350 0.04200
H 	H 	0.97448 0.50301 0.74880 0.05400
H 	H 	0.01259 0.49955 0.19504 0.05400
Zn	Zn	0.81164 0.34857 0.97585 1.22100
C 	C 	0.80823 0.35533 0.90312 0.31600
O 	O 	0.77313 0.35294 0.99481 -0.46700
O 	O 	0.79975 0.32814 0.90042 -0.44800
O 	O 	0.75013 0.34378 0.94512 -0.49400
C 	C 	0.82730 0.29020 0.95983 0.32500
O 	O 	0.83610 0.31738 0.95973 -0.45600
O 	O 	0.79990 0.28417 0.95881 -0.51000
C 	C 	0.75083 0.35608 0.97514 0.33600
O 	O 	0.82964 0.33913 0.03105 -0.32200
Zn	Zn	0.77283 0.30941 0.93593 1.17000
O 	O 	0.80648 0.36889 0.93239 -0.43800
C 	C 	0.84015 0.36528 0.02897 0.27500
O 	O 	0.83480 0.37907 0.00110 -0.38500
Zn	Zn	0.01450 0.03332 0.03332 1.22000
C 	C 	0.04271 0.97924 0.01879 0.33600
O 	O 	0.98249 0.02132 0.06276 -0.46800
O 	O 	0.05733 0.98426 0.04670 -0.45300
O 	O 	0.00229 0.97988 0.08296 -0.49900
C 	C 	0.06702 0.04963 0.06522 0.33000
O 	O 	0.05426 0.04555 0.03596 -0.45400
O 	O 	0.05657 0.03747 0.09275 -0.51000
C 	C 	0.97978 0.99451 0.07369 0.34000
O 	O 	0.00296 0.08241 0.04288 -0.32800
Zn	Zn	0.03857 0.99922 0.09069 1.17000
O 	O 	0.02117 0.99595 0.01040 -0.43500
C 	C 	0.99289 0.08189 0.01224 0.29200
O 	O 	0.99459 0.05719 0.99661 -0.37800
C 	C 	0.84812 0.26639 0.96194 -0.10200
C 	C 	0.87562 0.26992 0.94826 0.02200
C 	C 	0.89516 0.24713 0.94986 -0.07000
C 	C 	0.88742 0.22067 0.96524 0.02900
C 	C 	0.85997 0.21715 0.97891 -0.07000
C 	C 	0.84041 0.23986 0.97723 0.02100
C 	C 	0.90834 0.19698 0.96816 0.00100
C 	C 	0.93346 0.20122 0.98695 -0.03900
C 	C 	0.95181 0.17794 0.99279 -0.03100
C 	C 	0.94519 0.15028 0.97995 -0.00300
C 	C 	0.92066 0.14623 0.96014 -0.03300
C 	C 	0.90232 0.16952 0.95417 -0.03900
C 	C 	0.96209 0.12567 0.98979 0.04300
C 	C 	0.97617 0.10541 0.99928 -0.09000
H 	H 	0.88176 0.29017 0.93610 0.03500
H 	H 	0.91629 0.25004 0.93917 0.04800
H 	H 	0.85390 0.19692 0.99116 0.04700
H 	H 	0.81937 0.23691 0.98813 0.02900
H 	H 	0.93832 0.22231 0.99784 0.04100
H 	H 	0.97076 0.18124 0.00809 0.04000
H 	H 	0.91543 0.12492 0.95006 0.04200
H 	H 	0.88313 0.16608 0.93935 0.03900
C 	C 	0.87983 0.47016 0.78180 -0.05400
C 	C 	0.90069 0.45783 0.76100 0.03200
C 	C 	0.90453 0.42734 0.76076 -0.01200
C 	C 	0.88906 0.40976 0.78433 0.01000
C 	C 	0.86263 0.45265 0.80236 -0.02800
C 	C 	0.86616 0.42217 0.80286 -0.00600
C 	C 	0.91816 0.47575 0.74077 -0.06400
C 	C 	0.93911 0.46352 0.71988 0.00800
C 	C 	0.92329 0.41518 0.73661 -0.02900
C 	C 	0.89802 0.38134 0.79252 -0.04000
C 	C 	0.85905 0.37590 0.83269 0.00400
C 	C 	0.84939 0.40413 0.82458 0.01300
C 	C 	0.82307 0.41348 0.83803 -0.05700
C 	C 	0.80931 0.39714 0.86318 0.01300
C 	C 	0.82049 0.37046 0.87363 -0.08300
C 	C 	0.84466 0.35931 0.85744 -0.01100
C 	C 	0.94099 0.43321 0.71707 -0.04300
H 	H 	0.95630 0.42360 0.69988 0.04400
H 	H 	0.92357 0.39200 0.73203 0.03700
H 	H 	0.91588 0.49919 0.74177 0.04800
H 	H 	0.87708 0.49354 0.78235 0.04300
H 	H 	0.84799 0.46314 0.81957 0.03700
H 	H 	0.91753 0.37268 0.78216 0.04000
H 	H 	0.81277 0.43274 0.82839 0.04400
H 	H 	0.78984 0.40521 0.87448 0.03400
H 	H 	0.85279 0.33821 0.86488 0.03900
C 	C 	0.88324 0.36479 0.81658 -0.03900
H 	H 	0.89088 0.34328 0.82298 0.03800
C 	C 	0.91729 0.47496 0.15215 -0.05400
C 	C 	0.93578 0.46099 0.17463 0.03200
C 	C 	0.93714 0.43026 0.17519 -0.01100
C 	C 	0.92152 0.41393 0.15061 0.00800
C 	C 	0.89981 0.45886 0.13047 -0.02900
C 	C 	0.90068 0.42817 0.13054 -0.00500
C 	C 	0.95320 0.47747 0.19640 -0.06400
C 	C 	0.97155 0.46365 0.21926 0.00700
C 	C 	0.95341 0.41664 0.20080 -0.03000
C 	C 	0.92843 0.38476 0.14315 -0.03900
C 	C 	0.89086 0.38241 0.10081 0.01000
C 	C 	0.88334 0.41148 0.10811 0.00900
C 	C 	0.85842 0.42296 0.09335 -0.05200
C 	C 	0.84413 0.40760 0.06788 0.00500
C 	C 	0.85334 0.37991 0.05823 -0.06300
C 	C 	0.87597 0.36685 0.07559 -0.01900
C 	C 	0.97101 0.43326 0.22205 -0.04300
H 	H 	0.98428 0.42249 0.24065 0.04400
H 	H 	0.95171 0.39348 0.20524 0.03700
H 	H 	0.95279 0.50105 0.19528 0.04700
H 	H 	0.91656 0.49851 0.15126 0.04200
H 	H 	0.88706 0.47044 0.11211 0.03600
H 	H 	0.94666 0.37452 0.15474 0.03900
H 	H 	0.84950 0.44318 0.10226 0.04300
H 	H 	0.82568 0.41716 0.05579 0.03900
H 	H 	0.88244 0.34499 0.06889 0.04400
C 	C 	0.91337 0.36936 0.11833 -0.04100
H 	H 	0.91943 0.34721 0.11254 0.04000
C 	C 	0.13424 0.77146 0.96898 -0.10400
C 	C 	0.14461 0.79727 0.98366 0.02100
C 	C 	0.13048 0.82346 0.97828 -0.07200
C 	C 	0.10582 0.82419 0.95815 0.02900
C 	C 	0.09590 0.79859 0.94257 -0.07000
C 	C 	0.11010 0.77232 0.94789 0.02400
C 	C 	0.08911 0.85118 0.95604 0.00100
C 	C 	0.06207 0.85240 0.97123 -0.04000
C 	C 	0.04940 0.87929 0.97746 -0.03200
C 	C 	0.06370 0.90508 0.96859 -0.00900
C 	C 	0.08935 0.90376 0.95039 -0.03200
C 	C 	0.10199 0.87687 0.94402 -0.04000
C 	C 	0.05531 0.93205 0.98405 0.05100
C 	C 	0.04911 0.95402 0.99889 -0.11300
H 	H 	0.16347 0.79698 0.99953 0.01500
H 	H 	0.13825 0.84309 0.99050 0.04500
H 	H 	0.07691 0.79895 0.92692 0.04800
H 	H 	0.10191 0.75257 0.93635 0.03400
H 	H 	0.05173 0.83267 0.98019 0.04000
H 	H 	0.02936 0.88011 0.99115 0.03900
H 	H 	0.10036 0.92359 0.94302 0.04000
H 	H 	0.12260 0.87613 0.93161 0.03900
C 	C 	0.04855 0.62675 0.84884 -0.04100
C 	C 	0.07829 0.62717 0.85189 0.01000
C 	C 	0.09524 0.61189 0.82824 0.00800
C 	C 	0.08172 0.59375 0.80370 -0.00400
C 	C 	0.03542 0.61173 0.82229 -0.03900
C 	C 	0.05186 0.59609 0.79855 0.00800
C 	C 	0.09131 0.64276 0.87839 -0.01900
C 	C 	0.12113 0.64441 0.88065 -0.06200
C 	C 	0.12513 0.61594 0.82891 -0.05100
C 	C 	0.09668 0.57125 0.78720 -0.02900
C 	C 	0.05398 0.55713 0.75631 0.03200
C 	C 	0.03873 0.57989 0.77201 -0.01100
C 	C 	0.01102 0.58629 0.76033 -0.03000
C 	C 	0.99731 0.56763 0.73749 -0.04300
C 	C 	0.01142 0.54319 0.72483 0.00700
C 	C 	0.04005 0.53852 0.73326 -0.06400
C 	C 	0.13792 0.63165 0.85530 0.00100
H 	H 	0.16093 0.63379 0.85605 0.04300
H 	H 	0.13840 0.60804 0.80848 0.04300
H 	H 	0.07827 0.65370 0.89715 0.04800
H 	H 	0.03547 0.63812 0.86717 0.04000
H 	H 	0.01238 0.61072 0.82172 0.03900
H 	H 	0.11851 0.56649 0.79388 0.03700
H 	H 	0.00041 0.60604 0.76795 0.03700
H 	H 	0.97559 0.57204 0.72982 0.04300
H 	H 	0.05121 0.52012 0.72250 0.05100
C 	C 	0.08279 0.55298 0.76412 -0.05300
H 	H 	0.09450 0.53541 0.75240 0.04400
C 	C 	0.14138 0.60052 0.12605 -0.03900
C 	C 	0.12939 0.62439 0.10941 0.00300
C 	C 	0.10117 0.63285 0.11704 0.01200
C 	C 	0.08417 0.61508 0.13878 -0.00700
C 	C 	0.12574 0.58497 0.15027 -0.04100
C 	C 	0.09736 0.59272 0.15797 0.00900
C 	C 	0.14516 0.63971 0.08472 -0.01100
C 	C 	0.13322 0.66376 0.06827 -0.08500
C 	C 	0.09080 0.65907 0.10323 -0.05800
C 	C 	0.05413 0.61700 0.13874 -0.02900
C 	C 	0.05067 0.57871 0.18097 0.03200
C 	C 	0.08074 0.57645 0.18170 -0.01200
C 	C 	0.09342 0.55851 0.20655 -0.03000
C 	C 	0.07648 0.54007 0.22655 -0.04400
C 	C 	0.04673 0.54033 0.22329 0.00800
C 	C 	0.03386 0.56042 0.20149 -0.06500
C 	C 	0.10640 0.67385 0.07829 0.01200
H 	H 	0.09770 0.69331 0.06691 0.03500
H 	H 	0.07129 0.66862 0.11249 0.04300
H 	H 	0.16631 0.63245 0.07767 0.03800
H 	H 	0.16289 0.59377 0.12003 0.03600
H 	H 	0.13515 0.56572 0.16116 0.03800
H 	H 	0.04327 0.63106 0.12103 0.03600
H 	H 	0.11611 0.55949 0.21133 0.03600
H 	H 	0.08651 0.52547 0.24445 0.04300
H 	H 	0.01078 0.56141 0.20007 0.04800
C 	C 	0.03769 0.59888 0.15944 -0.05400
H 	H 	0.01464 0.60038 0.15849 0.04200
C 	C 	0.78290 0.85907 0.04977 -0.10000
C 	C 	0.78932 0.87139 0.08152 0.02000
C 	C 	0.81215 0.89088 0.08482 -0.07000
C 	C 	0.82888 0.89816 0.05646 0.02700
C 	C 	0.82194 0.88658 0.02449 -0.06800
C 	C 	0.79897 0.86718 0.02114 0.01600
C 	C 	0.85466 0.91639 0.06068 0.00200
C 	C 	0.87686 0.90703 0.08183 -0.04100
C 	C 	0.90142 0.92411 0.08566 -0.03100
C 	C 	0.90403 0.95062 0.06833 -0.01200
C 	C 	0.88182 0.96016 0.04739 -0.03000
C 	C 	0.85717 0.94311 0.04359 -0.04100
C 	C 	0.93020 0.96710 0.07049 0.05500
C 	C 	0.95258 0.98010 0.07215 -0.12200
H 	H 	0.77672 0.86575 0.10368 0.03200
H 	H 	0.81713 0.89998 0.10951 0.04600
H 	H 	0.83473 0.89208 0.00244 0.04700
H 	H 	0.79416 0.85789 0.99649 0.03400
H 	H 	0.87518 0.88641 0.09503 0.03700
H 	H 	0.91857 0.91655 0.10176 0.03600
H 	H 	0.88373 0.98059 0.03383 0.04100
H 	H 	0.84009 0.95060 0.02736 0.04100
C 	C 	0.66562 0.88469 0.85223 -0.04000
C 	C 	0.65533 0.87579 0.88407 0.01000
C 	C 	0.62589 0.87799 0.89154 0.00900
C 	C 	0.60688 0.88719 0.86573 -0.00400
C 	C 	0.64730 0.89729 0.82853 -0.03900
C 	C 	0.61803 0.90040 0.83600 0.00900
C 	C 	0.67425 0.86551 0.90896 -0.01900
C 	C 	0.66437 0.85952 0.94187 -0.06200
C 	C 	0.61650 0.87316 0.92515 -0.05200
C 	C 	0.57736 0.88142 0.86779 -0.02900
C 	C 	0.56934 0.90992 0.81687 0.03200
C 	C 	0.59910 0.91456 0.81326 -0.01100
C 	C 	0.60899 0.93516 0.78923 -0.02900
C 	C 	0.58970 0.94964 0.76824 -0.04300
C 	C 	0.56034 0.94434 0.77127 0.00800
C 	C 	0.55028 0.92400 0.79502 -0.06400
C 	C 	0.63558 0.86372 0.94991 0.00400
H 	H 	0.62796 0.85976 0.97551 0.04100
H 	H 	0.59486 0.87803 0.93263 0.04400
H 	H 	0.69668 0.86295 0.90302 0.04300
H 	H 	0.68799 0.88231 0.84598 0.04000
H 	H 	0.65565 0.90303 0.80378 0.04000
H 	H 	0.56878 0.86729 0.88734 0.03700
H 	H 	0.63124 0.94143 0.78817 0.03700
H 	H 	0.59753 0.96585 0.75046 0.04500
H 	H 	0.52752 0.92007 0.79745 0.04800
C 	C 	0.55889 0.89239 0.84329 -0.05300
H 	H 	0.53624 0.88785 0.84538 0.04200
C 	C 	0.66578 0.89883 0.17636 -0.03900
C 	C 	0.66002 0.87145 0.16232 0.00400
C 	C 	0.63514 0.85594 0.17197 0.01200
C 	C 	0.61445 0.86987 0.19262 -0.00700
C 	C 	0.64716 0.91102 0.19989 -0.04100
C 	C 	0.62180 0.89629 0.20927 0.00900
C 	C 	0.67867 0.85954 0.13828 -0.01000
C 	C 	0.67337 0.83180 0.12486 -0.08400
C 	C 	0.63186 0.82676 0.16132 -0.05800
C 	C 	0.58585 0.86000 0.19356 -0.02900
C 	C 	0.57324 0.89933 0.23168 0.03200
C 	C 	0.60191 0.90911 0.23189 -0.01200
C 	C 	0.61012 0.93096 0.25518 -0.03000
C 	C 	0.58949 0.94565 0.27396 -0.04400
C 	C 	0.56063 0.93798 0.27092 0.00700
C 	C 	0.55261 0.91428 0.25059 -0.06500
C 	C 	0.65062 0.81502 0.13745 0.00900
H 	H 	0.64712 0.79308 0.12827 0.03400
H 	H 	0.61548 0.81289 0.17215 0.04200
H 	H 	0.69705 0.87199 0.12963 0.04200
H 	H 	0.68473 0.91087 0.16885 0.03900
H 	H 	0.65156 0.93282 0.20884 0.03900
H 	H 	0.57882 0.84207 0.17782 0.03500
H 	H 	0.63238 0.93592 0.25970 0.03600
H 	H 	0.59593 0.96314 0.29079 0.04400
H 	H 	0.53037 0.90769 0.24929 0.04800
C 	C 	0.56547 0.87490 0.21248 -0.05400
H 	H 	0.54349 0.86741 0.21208 0.04200
C 	C 	0.09482 0.06483 0.06639 -0.10300
C 	C 	0.10190 0.08548 0.04139 0.02600
C 	C 	0.12939 0.09740 0.04006 -0.07000
C 	C 	0.15004 0.08884 0.06372 0.03000
C 	C 	0.14272 0.06903 0.08946 -0.07200
C 	C 	0.11523 0.05711 0.09084 0.02300
C 	C 	0.17957 0.09983 0.06082 0.00100
C 	C 	0.19593 0.09326 0.03199 -0.04100
C 	C 	0.22381 0.10398 0.02904 -0.03000
C 	C 	0.23551 0.12126 0.05488 -0.01300
C 	C 	0.21931 0.12760 0.08385 -0.03100
C 	C 	0.19143 0.11692 0.08683 -0.04100
C 	C 	0.26366 0.13354 0.05106 0.05500
C 	C 	0.28703 0.14432 0.04795 -0.12400
H 	H 	0.08625 0.09199 0.02271 0.03700
H 	H 	0.13476 0.11300 0.02038 0.04900
H 	H 	0.15851 0.06239 0.10792 0.04500
H 	H 	0.11010 0.04120 0.11026 0.01700
H 	H 	0.18703 0.07991 0.01190 0.04100
H 	H 	0.23621 0.09902 0.00656 0.04000
H 	H 	0.22822 0.14101 0.10390 0.03600
H 	H 	0.17896 0.12210 0.10917 0.03900
C 	C 	0.40403 0.10998 0.84896 -0.04000
C 	C 	0.39571 0.09755 0.88001 0.01000
C 	C 	0.40002 0.06750 0.88590 0.00900
C 	C 	0.41198 0.05023 0.85969 -0.00400
C 	C 	0.41886 0.09358 0.82501 -0.03900
C 	C 	0.42497 0.06410 0.83147 0.00900
C 	C 	0.38469 0.11515 0.90597 -0.01900
C 	C 	0.38007 0.10362 0.93850 -0.06200
C 	C 	0.39509 0.05615 0.91875 -0.05100
C 	C 	0.40986 0.01963 0.86012 -0.03000
C 	C 	0.44178 0.01679 0.81171 0.03100
C 	C 	0.44246 0.04755 0.80933 -0.01100
C 	C 	0.46248 0.06096 0.78737 -0.02900
C 	C 	0.48044 0.04405 0.76724 -0.04300
C 	C 	0.47927 0.01365 0.76920 0.00800
C 	C 	0.45953 0.00007 0.79085 -0.06300
C 	C 	0.38500 0.07409 0.94463 0.00400
H 	H 	0.38192 0.06519 0.96988 0.04000
H 	H 	0.40079 0.03405 0.92502 0.04300
H 	H 	0.38136 0.13816 0.90144 0.04600
H 	H 	0.39971 0.13266 0.84371 0.04000
H 	H 	0.42427 0.10348 0.80091 0.03900
H 	H 	0.39595 0.00859 0.87796 0.03600
H 	H 	0.46553 0.08429 0.78735 0.03700
H 	H 	0.49608 0.05463 0.75104 0.04400
H 	H 	0.45883 0.97651 0.79247 0.04800
C 	C 	0.42444 0.00315 0.83609 -0.05300
H 	H 	0.42283 0.97963 0.83702 0.04200
C 	C 	0.49546 0.07097 0.20111 -0.05400
C 	C 	0.48177 0.05090 0.22248 0.03200
C 	C 	0.45162 0.04960 0.22372 -0.01200
C 	C 	0.43552 0.06720 0.20110 0.00900
C 	C 	0.47965 0.09027 0.18155 -0.02800
C 	C 	0.44956 0.08967 0.18262 -0.00600
C 	C 	0.49794 0.03209 0.24273 -0.06400
C 	C 	0.48441 0.01252 0.26491 0.00800
C 	C 	0.43835 0.03162 0.24832 -0.03000
C 	C 	0.40660 0.06090 0.19397 -0.04100
C 	C 	0.40417 0.10235 0.15591 0.00500
C 	C 	0.43311 0.10911 0.16265 0.01200
C 	C 	0.44470 0.13538 0.14988 -0.05700
C 	C 	0.42925 0.15203 0.12673 0.01200
C 	C 	0.40150 0.14377 0.11764 -0.08300
C 	C 	0.38860 0.11959 0.13315 -0.01100
C 	C 	0.45464 0.01271 0.26805 -0.04300
H 	H 	0.44410 0.99838 0.28605 0.04300
H 	H 	0.41574 0.03308 0.25333 0.03600
H 	H 	0.52105 0.03272 0.24132 0.04900
H 	H 	0.51853 0.07161 0.19957 0.04300
H 	H 	0.49092 0.10433 0.16397 0.03700
H 	H 	0.39642 0.04151 0.20393 0.03900
H 	H 	0.46513 0.14349 0.15859 0.04300
H 	H 	0.43886 0.17144 0.11589 0.03200
H 	H 	0.36679 0.11374 0.12676 0.04000
C 	C 	0.39125 0.07823 0.17149 -0.03900
H 	H 	0.36923 0.07269 0.16597 0.03800
C 	C 	0.46484 0.43044 0.95008 -0.07700
C 	C 	0.48885 0.41291 0.94496 0.01200
C 	C 	0.48553 0.38283 0.94101 -0.06300
C 	C 	0.45820 0.37014 0.94216 0.02400
C 	C 	0.43417 0.38812 0.94328 -0.06200
C 	C 	0.43749 0.41813 0.94716 0.01300
C 	C 	0.45487 0.33862 0.94839 0.00400
C 	C 	0.46657 0.32629 0.97787 -0.04200
C 	C 	0.45768 0.29871 0.98866 -0.02800
C 	C 	0.43708 0.28328 0.97011 -0.01400
C 	C 	0.42719 0.29445 0.93919 -0.03000
C 	C 	0.43618 0.32199 0.92824 -0.04300
C 	C 	0.42301 0.25855 0.98529 0.05300
C 	C 	0.41056 0.23863 0.99880 -0.12400
H 	H 	0.51010 0.42223 0.94653 0.03800
H 	H 	0.50423 0.36924 0.93923 0.04600
H 	H 	0.41294 0.37864 0.94356 0.04600
H 	H 	0.41880 0.43158 0.95021 0.03500
H 	H 	0.48118 0.33879 0.99351 0.04100
H 	H 	0.46567 0.29006 0.01240 0.03600
H 	H 	0.41152 0.28246 0.92447 0.03800
H 	H 	0.42742 0.33105 0.90511 0.04000
C 	C 	0.23254 0.64065 0.97728 -0.10400
C 	C 	0.22985 0.61476 0.99600 0.02300
C 	C 	0.25329 0.59642 0.99979 -0.06800
C 	C 	0.27952 0.60375 0.98474 0.02700
C 	C 	0.28173 0.62879 0.96450 -0.07000
C 	C 	0.25836 0.64715 0.96079 0.02100
C 	C 	0.30523 0.58676 0.99252 0.00500
C 	C 	0.32053 0.57341 0.96623 -0.04300
C 	C 	0.34700 0.56085 0.97286 -0.02700
C 	C 	0.35831 0.56152 0.00580 -0.01600
C 	C 	0.34254 0.57378 0.03234 -0.03000
C 	C 	0.31608 0.58635 0.02575 -0.04500
C 	C 	0.38688 0.55158 0.01184 0.05500
C 	C 	0.41100 0.54369 0.01658 -0.12300
H 	H 	0.21001 0.60948 0.00880 0.03200
H 	H 	0.25130 0.57698 0.01521 0.04500
H 	H 	0.30185 0.63455 0.95262 0.04600
H 	H 	0.26056 0.66686 0.94588 0.02800
H 	H 	0.31226 0.57346 0.94053 0.04100
H 	H 	0.35902 0.55126 0.95224 0.04000
H 	H 	0.35111 0.57426 0.05790 0.03400
H 	H 	0.30445 0.59662 0.04622 0.03700
C 	C 	0.55657 0.47729 0.05175 -0.10400
C 	C 	0.58219 0.49326 0.04987 0.02100
C 	C 	0.60799 0.47898 0.04430 -0.07100
C 	C 	0.60842 0.44863 0.04066 0.02800
C 	C 	0.58306 0.43255 0.04438 -0.07000
C 	C 	0.55727 0.44679 0.04994 0.02000
C 	C 	0.63490 0.43391 0.03038 -0.00000
C 	C 	0.64685 0.41250 0.05130 -0.04200
C 	C 	0.67075 0.39708 0.04036 -0.03000
C 	C 	0.68284 0.40298 0.00849 -0.01600
C 	C 	0.67123 0.42469 0.98783 -0.02800
C 	C 	0.64734 0.44011 0.99870 -0.04000
C 	C 	0.70683 0.38642 0.99673 0.05600
C 	C 	0.72690 0.37255 0.98682 -0.12400
H 	H 	0.58199 0.51679 0.05125 0.03000
H 	H 	0.62752 0.49156 0.04184 0.04600
H 	H 	0.58319 0.40909 0.04182 0.04600
H 	H 	0.53771 0.43418 0.05180 0.03200
H 	H 	0.63745 0.40761 0.07581 0.03900
H 	H 	0.67969 0.38039 0.05653 0.03700
H 	H 	0.68052 0.42941 0.96319 0.03900
H 	H 	0.63818 0.45648 0.98230 0.04100
C 	C 	0.53841 0.58079 0.98743 -0.09800
C 	C 	0.52891 0.60854 0.97822 0.02100
C 	C 	0.54834 0.63160 0.97523 -0.06900
C 	C 	0.57738 0.62716 0.98182 0.02700
C 	C 	0.58718 0.59890 0.98811 -0.06900
C 	C 	0.56775 0.57575 0.99073 0.01900
C 	C 	0.59656 0.65237 0.98701 0.00300
C 	C 	0.62112 0.65592 0.96696 -0.04100
C 	C 	0.63979 0.67927 0.97299 -0.03200
C 	C 	0.63398 0.69914 0.99905 -0.00800
C 	C 	0.60935 0.69575 0.01884 -0.03400
C 	C 	0.59074 0.67245 0.01291 -0.04300
C 	C 	0.65361 0.72258 0.00621 0.05200
C 	C 	0.66966 0.74231 0.01310 -0.12300
H 	H 	0.50634 0.61255 0.97505 0.03100
H 	H 	0.54064 0.65323 0.96958 0.04700
H 	H 	0.60961 0.59515 0.99283 0.04600
H 	H 	0.57533 0.55432 0.99753 0.03100
H 	H 	0.62579 0.64057 0.94689 0.04000
H 	H 	0.65881 0.68176 0.95758 0.03900
H 	H 	0.60477 0.71101 0.03905 0.03800
H 	H 	0.57198 0.66977 0.02871 0.03700
