data_crystal

_cell_length_a 17.58705
_cell_length_b 16.50299
_cell_length_c 65.40391
_cell_angle_alpha 90.05489
_cell_angle_beta  89.97883
_cell_angle_gamma 120.01374

_symmetry_space_group_name_	'P 1'
_symmetry_space_group_name_H-M	'P 1'

loop_
_symmetry_equiv_pos_as_xyz
  x,y,z

loop_
_atom_site_label
_atom_site_type_symbol
_atom_site_fract_x
_atom_site_fract_y
_atom_site_fract_z
_atom_site_charge
O 	O 	0.52194 0.19095 0.54468 -0.37200
O 	O 	0.53736 0.37309 0.54144 -0.38200
C 	C 	0.34275 0.52946 0.44628 0.28100
C 	C 	0.18606 0.60789 0.37615 0.30600
C 	C 	0.35748 0.49204 0.38875 0.30800
C 	C 	0.15675 0.62967 0.43522 0.28700
C 	C 	0.46814 0.82498 0.38536 0.30900
C 	C 	0.44254 0.81558 0.44019 0.28000
Ni	Ni	0.22640 0.52210 0.41204 1.11100
Ni	Ni	0.30433 0.74708 0.40734 1.11800
Ni	Ni	0.43759 0.66750 0.41307 1.12000
O 	O 	0.25927 0.49875 0.44135 -0.37100
O 	O 	0.40358 0.55599 0.43187 -0.37600
O 	O 	0.38278 0.78527 0.38290 -0.40000
O 	O 	0.20602 0.54410 0.38171 -0.37800
O 	O 	0.19667 0.67417 0.38911 -0.37900
O 	O 	0.47213 0.75613 0.43711 -0.38400
O 	O 	0.29309 0.45544 0.40205 -0.37700
O 	O 	0.41163 0.58331 0.38817 -0.38000
O 	O 	0.40622 0.83898 0.42512 -0.38800
O 	O 	0.13638 0.56087 0.42206 -0.37500
O 	O 	0.21952 0.71638 0.43103 -0.38200
O 	O 	0.50270 0.77993 0.39455 -0.38200
O 	O 	0.32045 0.64567 0.41468 -0.71100
H 	H 	0.31705 0.65275 0.42951 0.14300
C 	C 	0.48382 0.65877 0.63029 0.29200
C 	C 	0.12279 0.54456 0.64457 0.31300
C 	C 	0.36643 0.79467 0.61922 0.31900
C 	C 	0.23582 0.41805 0.65792 0.29800
C 	C 	0.28964 0.77705 0.68335 0.31500
C 	C 	0.44134 0.68531 0.69687 0.29800
Ni	Ni	0.29325 0.59075 0.62890 1.11400
Ni	Ni	0.25618 0.58761 0.67758 1.12000
Ni	Ni	0.42353 0.76242 0.65826 1.12000
O 	O 	0.40811 0.59203 0.62307 -0.37200
O 	O 	0.49502 0.74256 0.63561 -0.37500
O 	O 	0.23119 0.69250 0.67783 -0.39200
O 	O 	0.18769 0.60857 0.63418 -0.38100
O 	O 	0.13901 0.51439 0.66181 -0.37100
O 	O 	0.47919 0.72249 0.67927 -0.39600
O 	O 	0.35113 0.71434 0.61159 -0.36900
O 	O 	0.36042 0.80267 0.63879 -0.39800
O 	O 	0.35391 0.64480 0.69964 -0.38000
O 	O 	0.22788 0.45042 0.63974 -0.36600
O 	O 	0.26676 0.47271 0.67421 -0.38500
O 	O 	0.37442 0.80782 0.68098 -0.38700
O 	O 	0.33635 0.63496 0.65536 -0.71500
H 	H 	0.37111 0.60440 0.65807 0.16300
C 	C 	0.06674 0.91754 0.77814 0.31600
C 	C 	0.07724 0.89610 0.72387 0.29600
C 	C 	0.06665 0.18565 0.77159 0.30000
C 	C 	0.05745 0.14992 0.71178 0.29400
Ni	Ni	0.09950 0.06122 0.74599 1.11300
O 	O 	0.09630 0.12670 0.77148 -0.39600
O 	O 	0.11986 0.97183 0.76373 -0.38500
O 	O 	0.11287 0.16455 0.72698 -0.38500
O 	O 	0.00090 0.83565 0.73290 -0.37200
O 	O 	0.10428 0.98635 0.72235 -0.38400
O 	O 	0.01644 0.18564 0.75657 -0.38000
C 	C 	0.23863 0.71441 0.93073 0.28800
C 	C 	0.54169 0.83960 0.87478 0.31100
C 	C 	0.26625 0.78974 0.87313 0.30500
C 	C 	0.53913 0.80749 0.92668 0.29600
C 	C 	0.31588 0.56521 0.85870 0.30400
C 	C 	0.29592 0.49009 0.91403 0.29200
Ni	Ni	0.40267 0.82449 0.90422 1.11300
Ni	Ni	0.44043 0.65440 0.89365 1.11900
Ni	Ni	0.24416 0.61762 0.89298 1.12000
O 	O 	0.28909 0.79416 0.92077 -0.36800
O 	O 	0.20689 0.63210 0.92139 -0.38300
O 	O 	0.37102 0.55927 0.87150 -0.38100
O 	O 	0.52347 0.88289 0.88918 -0.38000
O 	O 	0.48931 0.75054 0.87116 -0.39000
O 	O 	0.24312 0.49743 0.90051 -0.38200
O 	O 	0.35038 0.83654 0.87691 -0.37800
O 	O 	0.21371 0.71671 0.88429 -0.38000
O 	O 	0.38245 0.54808 0.91378 -0.38300
O 	O 	0.47034 0.81814 0.92921 -0.39000
O 	O 	0.53743 0.74215 0.91410 -0.37600
O 	O 	0.27578 0.61119 0.86386 -0.39100
O 	O 	0.36194 0.69578 0.90185 -0.71500
H 	H 	0.35657 0.67780 0.91637 0.15500
C 	C 	0.47236 0.22522 0.05298 0.30900
C 	C 	0.50187 0.26968 0.10934 0.28300
O 	O 	0.47699 0.16879 0.06656 -0.36900
O 	O 	0.52982 0.20859 0.10811 -0.37200
O 	O 	0.49665 0.31346 0.09283 -0.38200
C 	C 	0.16603 0.10521 0.19961 0.27900
C 	C 	0.19596 0.10788 0.25531 0.30800
Ni	Ni	0.06180 0.13406 0.23354 1.11100
Ni	Ni	0.07445 0.94417 0.22825 1.11100
O 	O 	0.16856 0.16048 0.21474 -0.37200
O 	O 	0.13624 0.01424 0.20245 -0.37100
O 	O 	0.13124 0.12493 0.25812 -0.38100
O 	O 	0.18677 0.04126 0.24264 -0.37000
O 	O 	0.02639 0.88509 0.25569 -0.39700
C 	C 	0.52934 0.29078 0.29054 0.29300
O 	O 	0.50281 0.23911 0.30735 -0.38800
O 	O 	0.52360 0.23912 0.35108 -0.37900
C 	C 	0.11645 0.13136 0.95313 0.31600
C 	C 	0.08125 0.85849 0.98030 0.31400
C 	C 	0.13462 0.09513 0.01777 0.31400
Ni	Ni	0.00828 0.10074 0.98881 1.11900
O 	O 	0.08363 0.13098 0.01421 -0.38800
O 	O 	0.05857 0.05436 0.94382 -0.37100
O 	O 	0.11810 0.13432 0.97297 -0.39700
O 	O 	0.08917 0.92554 0.96848 -0.38500
O 	O 	0.02682 0.83183 0.99600 -0.38000
O 	O 	0.10564 0.00560 0.01520 -0.38800
C 	C 	0.35878 0.19364 0.25041 -0.04300
C 	C 	0.28618 0.17609 0.26271 -0.09300
C 	C 	0.30140 0.22462 0.28155 0.10900
C 	C 	0.38835 0.28829 0.28749 -0.04500
C 	C 	0.45931 0.28875 0.27743 -0.09000
C 	C 	0.44527 0.25109 0.25748 0.11000
N 	N 	0.51391 0.27282 0.24477 -0.19900
H 	H 	0.34806 0.16307 0.23527 0.05600
H 	H 	0.39994 0.32476 0.30195 0.04600
N 	N 	0.23455 0.20488 0.29475 -0.20000
H 	H 	0.50366 0.23910 0.23066 0.08600
H 	H 	0.17460 0.14267 0.29367 0.10500
H 	H 	0.24532 0.24698 0.30760 0.08600
H 	H 	0.03378 0.74604 0.26353 0.09200
H 	H 	0.05239 0.70269 0.28690 0.08600
C 	C 	0.29570 0.18574 0.01428 -0.04300
C 	C 	0.22184 0.15293 0.02698 -0.09500
C 	C 	0.23231 0.15258 0.04841 0.11000
C 	C 	0.31438 0.17471 0.05655 -0.04300
C 	C 	0.38668 0.19968 0.04369 -0.09700
C 	C 	0.37769 0.20655 0.02232 0.11000
N 	N 	0.44592 0.22859 0.00937 -0.20100
H 	H 	0.28777 0.18738 0.99786 0.05400
H 	H 	0.32208 0.17303 0.07296 0.05400
N 	N 	0.16364 0.13031 0.06120 -0.20200
H 	H 	0.43948 0.23677 0.99373 0.08800
H 	H 	0.50448 0.23397 0.01448 0.10100
H 	H 	0.10341 0.11900 0.05566 0.09900
H 	H 	0.17091 0.12716 0.07700 0.08400
C 	C 	0.45373 0.26826 0.12765 -0.07000
C 	C 	0.49701 0.29404 0.14655 0.00700
C 	C 	0.44895 0.27661 0.16461 -0.05600
C 	C 	0.35696 0.23107 0.16391 0.01500
C 	C 	0.31344 0.20864 0.14480 0.01400
C 	C 	0.36242 0.22936 0.12672 -0.01500
C 	C 	0.22136 0.16028 0.14410 -0.05500
C 	C 	0.17292 0.12959 0.16217 0.00500
C 	C 	0.21602 0.14864 0.18108 -0.06800
C 	C 	0.30776 0.20232 0.18199 -0.01700
H 	H 	0.56771 0.32496 0.14728 0.03000
H 	H 	0.48303 0.29517 0.17916 0.04300
H 	H 	0.32926 0.21003 0.11204 0.04100
H 	H 	0.18733 0.14369 0.12954 0.04200
H 	H 	0.10188 0.08948 0.16148 0.02900
H 	H 	0.34075 0.21746 0.19669 0.04200
H 	H 	0.51524 0.78705 0.96550 0.09300
C 	C 	0.14390 0.29201 0.94816 -0.03500
C 	C 	0.16020 0.22071 0.94190 -0.10300
C 	C 	0.22783 0.24109 0.92755 0.11200
C 	C 	0.27658 0.33226 0.91955 -0.04400
C 	C 	0.26021 0.40330 0.92601 -0.08700
C 	C 	0.19631 0.38392 0.94118 0.10100
N 	N 	0.18684 0.45386 0.94953 -0.19900
H 	H 	0.09323 0.27687 0.95943 0.03100
H 	H 	0.32563 0.34722 0.90786 0.05000
N 	N 	0.24640 0.17408 0.92141 -0.20200
H 	H 	0.13616 0.43866 0.95989 0.08600
H 	H 	0.23292 0.52400 0.94682 0.09200
H 	H 	0.21152 0.10579 0.92700 0.09700
H 	H 	0.29658 0.19000 0.91085 0.08400
C 	C 	0.10335 0.67941 0.94883 -0.04500
C 	C 	0.19431 0.71846 0.94944 -0.09000
C 	C 	0.24219 0.78301 0.96511 0.10300
C 	C 	0.20064 0.82071 0.97702 -0.04000
C 	C 	0.11385 0.79743 0.97268 -0.09900
C 	C 	0.06554 0.72751 0.95782 0.10600
H 	H 	0.06541 0.62442 0.93786 0.05200
H 	H 	0.23752 0.87263 0.98865 0.04600
N 	N 	0.32730 0.80853 0.96876 -0.20000
H 	H 	0.99171 0.78019 0.94478 0.06700
H 	H 	0.35681 0.77564 0.96118 0.09000
H 	H 	0.36360 0.85888 0.97985 0.08500
C 	C 	0.09990 0.87992 0.79388 -0.09000
C 	C 	0.06386 0.78269 0.79562 0.01600
C 	C 	0.08765 0.74510 0.81186 -0.06400
C 	C 	0.14625 0.80421 0.82682 0.02300
C 	C 	0.18212 0.90219 0.82523 -0.00000
C 	C 	0.15962 0.93965 0.80857 0.01000
C 	C 	0.23935 0.96116 0.84040 -0.03600
C 	C 	0.26284 0.92358 0.85670 0.00300
C 	C 	0.22974 0.82661 0.85798 -0.07000
C 	C 	0.17007 0.76687 0.84326 -0.02000
H 	H 	0.01642 0.73611 0.78450 0.02200
H 	H 	0.05963 0.66993 0.81292 0.04400
H 	H 	0.18637 0.01466 0.80737 0.02600
H 	H 	0.26635 0.03622 0.83950 0.03200
H 	H 	0.30830 0.97005 0.86815 0.03600
H 	H 	0.14469 0.69201 0.84422 0.04100
C 	C 	0.10249 0.26270 0.78667 -0.07300
C 	C 	0.04870 0.29481 0.79496 0.01000
C 	C 	0.08129 0.36435 0.81006 -0.05800
C 	C 	0.16814 0.40258 0.81703 0.01400
C 	C 	0.22318 0.37213 0.80839 0.01400
C 	C 	0.19015 0.30244 0.79321 -0.01600
C 	C 	0.31005 0.41047 0.81529 -0.05700
C 	C 	0.34123 0.47617 0.83116 0.00900
C 	C 	0.28606 0.50453 0.84033 -0.07200
C 	C 	0.19998 0.46913 0.83289 -0.01700
H 	H 	0.03861 0.38758 0.81650 0.04200
H 	H 	0.23229 0.27882 0.78660 0.03900
H 	H 	0.35316 0.38845 0.80858 0.04200
H 	H 	0.40805 0.50414 0.83650 0.03600
H 	H 	0.15711 0.49099 0.83984 0.03900
C 	C 	0.50024 0.70829 0.71462 -0.09300
N 	N 	0.47715 0.83135 0.72716 -0.20100
H 	H 	0.41004 0.79084 0.72421 0.10200
C 	C 	0.09513 0.27157 0.66157 -0.04700
C 	C 	0.18719 0.31693 0.66152 -0.09100
C 	C 	0.22875 0.27545 0.67213 0.10700
C 	C 	0.18153 0.20754 0.68705 -0.04200
C 	C 	0.09310 0.17976 0.69078 -0.09500
C 	C 	0.04705 0.20020 0.67580 0.11300
H 	H 	0.06157 0.29645 0.65170 0.05700
H 	H 	0.21501 0.18180 0.69669 0.04600
N 	N 	0.31482 0.30433 0.66880 -0.20000
H 	H 	0.34970 0.35221 0.65720 0.09000
H 	H 	0.34672 0.27658 0.67732 0.08200
C 	C 	0.24147 0.81481 0.71544 -0.04000
C 	C 	0.25903 0.83264 0.69450 -0.10100
C 	C 	0.21832 0.87427 0.68354 0.11600
C 	C 	0.15184 0.88483 0.69287 -0.04500
C 	C 	0.12976 0.86103 0.71349 -0.08700
C 	C 	0.17545 0.82578 0.72493 0.10500
N 	N 	0.15528 0.80064 0.74484 -0.20000
H 	H 	0.27272 0.78301 0.72390 0.04200
H 	H 	0.11968 0.91543 0.68428 0.05400
N 	N 	0.24228 0.90335 0.66395 -0.20100
H 	H 	0.19277 0.78014 0.75348 0.08800
H 	H 	0.09988 0.79640 0.75163 0.10000
H 	H 	0.29603 0.90304 0.65725 0.10600
H 	H 	0.20950 0.93034 0.65552 0.09000
C 	C 	0.37288 0.35053 0.38711 -0.04400
C 	C 	0.37878 0.42898 0.37721 -0.09500
C 	C 	0.40912 0.44823 0.35679 0.11000
C 	C 	0.44821 0.39987 0.34818 -0.04600
C 	C 	0.45507 0.33158 0.35952 -0.09400
C 	C 	0.40760 0.29919 0.37793 0.11000
N 	N 	0.39566 0.21944 0.38688 -0.20200
H 	H 	0.34344 0.33088 0.40217 0.05600
H 	H 	0.47978 0.42078 0.33335 0.04200
N 	N 	0.39920 0.51096 0.34530 -0.20000
H 	H 	0.36577 0.19909 0.40122 0.08300
H 	H 	0.41016 0.17377 0.37903 0.10000
H 	H 	0.36105 0.53918 0.35040 0.10000
H 	H 	0.42545 0.52786 0.33055 0.08400
C 	C 	0.03836 0.47466 0.33188 0.10100
C 	C 	0.11311 0.51450 0.34461 -0.04400
C 	C 	0.13062 0.59027 0.35753 -0.09400
C 	C 	0.08079 0.63522 0.35489 0.10700
N 	N 	0.11309 0.72574 0.36061 -0.19600
H 	H 	0.15578 0.48467 0.34491 0.05100
H 	H 	0.07319 0.75598 0.36012 0.08300
H 	H 	0.18016 0.76947 0.36327 0.09100
H 	H 	0.06787 0.37882 0.31827 0.08300
C 	C 	0.49994 0.98921 0.38850 -0.05500
C 	C 	0.52479 0.92600 0.38098 -0.09300
H 	H 	0.43677 0.96301 0.39590 0.03700
N 	N 	0.53843 0.14574 0.39735 -0.20200
H 	H 	0.47964 0.12000 0.40547 0.08600
C 	C 	0.55035 0.56273 0.63849 0.10500
N 	N 	0.51900 0.54049 0.65786 -0.20200
H 	H 	0.55144 0.43376 0.63349 0.04400
H 	H 	0.51010 0.47923 0.66476 0.08300
H 	H 	0.50661 0.58593 0.66647 0.09300
C 	C 	0.03823 0.48838 0.63395 -0.09200
C 	C 	0.03280 0.43737 0.61591 0.10200
N 	N 	0.10164 0.42854 0.60948 -0.18700
H 	H 	0.16545 0.48469 0.61051 0.04300
H 	H 	0.09089 0.37337 0.59980 0.08300
C 	C 	0.43137 0.03293 0.59874 -0.05900
C 	C 	0.52261 0.07123 0.59710 -0.08900
C 	C 	0.50476 0.91829 0.60464 -0.03100
C 	C 	0.41417 0.88068 0.60716 -0.10900
C 	C 	0.37676 0.93807 0.60376 0.12500
N 	N 	0.28846 0.90221 0.60508 -0.20400
H 	H 	0.40232 0.07582 0.59527 0.04600
H 	H 	0.26132 0.94544 0.60322 0.08800
H 	H 	0.24586 0.83077 0.60741 0.09900
C 	C 	0.36731 0.52380 0.46758 -0.06900
C 	C 	0.30765 0.45345 0.48072 0.00600
C 	C 	0.33640 0.43727 0.49941 -0.05600
C 	C 	0.42539 0.49026 0.50494 0.01400
C 	C 	0.48429 0.56511 0.49242 0.01500
C 	C 	0.45437 0.58300 0.47404 -0.02000
C 	C 	0.45738 0.46496 0.52196 -0.01700
H 	H 	0.23995 0.40878 0.47611 0.03800
H 	H 	0.29029 0.38087 0.50914 0.04300
H 	H 	0.41242 0.40668 0.53147 0.04400
C 	C 	0.46747 0.11612 0.50102 0.00200
C 	C 	0.43410 0.05407 0.48447 -0.05500
C 	C 	0.46473 0.99153 0.48056 0.01400
C 	C 	0.46861 0.87252 0.45914 -0.06600
C 	C 	0.43520 0.93257 0.46336 -0.02000
H 	H 	0.44491 0.16550 0.50364 0.03500
H 	H 	0.38555 0.05569 0.47455 0.04200
H 	H 	0.38726 0.93416 0.45319 0.04200
C 	C 	0.04264 0.66608 0.48041 -0.06300
C 	C 	0.09581 0.68426 0.46317 0.01000
C 	C 	0.10147 0.61131 0.45353 -0.07400
C 	C 	0.05406 0.52004 0.46140 -0.01400
H 	H 	0.13198 0.75490 0.45723 0.03700
H 	H 	0.05951 0.46386 0.45422 0.03800
N 	N 	0.02502 0.40544 0.31859 -0.20500
H 	H 	0.49985 0.63949 0.46421 0.04200
H 	H 	0.03877 0.72298 0.48767 0.04500
H 	H 	0.59736 0.00860 0.85699 0.02000
C 	C 	0.55781 0.08622 0.38732 0.12100
H 	H 	0.58413 0.21701 0.39841 0.10700
C 	C 	0.55856 0.64340 0.62888 -0.09100
C 	C 	0.61403 0.45838 0.59503 0.31600
C 	C 	0.58315 0.46563 0.53957 0.28600
C 	C 	0.57486 0.16061 0.58619 0.31100
C 	C 	0.57316 0.18705 0.52992 0.28400
Ni	Ni	0.55163 0.30034 0.56431 1.11900
O 	O 	0.55667 0.22834 0.58853 -0.39200
O 	O 	0.69122 0.46817 0.59279 -0.39600
O 	O 	0.54788 0.39767 0.58362 -0.37400
O 	O 	0.66006 0.22859 0.53184 -0.38600
O 	O 	0.65197 0.51971 0.55156 -0.37000
O 	O 	0.62526 0.16318 0.57108 -0.39000
O 	O 	0.67262 0.36116 0.55747 -0.71900
H 	H 	0.66923 0.36791 0.54259 0.15900
Ni	Ni	0.59136 0.19576 0.08225 1.11300
Ni	Ni	0.60011 0.39545 0.07410 1.12000
O 	O 	0.69209 0.19350 0.09910 -0.37200
O 	O 	0.68620 0.48951 0.05408 -0.38600
O 	O 	0.53876 0.30982 0.05024 -0.39200
O 	O 	0.64508 0.17793 0.05570 -0.38300
O 	O 	0.66577 0.48747 0.09654 -0.38100
O 	O 	0.65678 0.32670 0.08129 -0.71300
H 	H 	0.66301 0.33946 0.09607 0.14800
C 	C 	0.66398 0.20073 0.36237 0.32000
C 	C 	0.53273 0.32204 0.35610 0.29000
C 	C 	0.70374 0.20141 0.29808 0.31200
Ni	Ni	0.58043 0.21660 0.32579 1.12100
O 	O 	0.61994 0.16939 0.30189 -0.38600
O 	O 	0.68550 0.28426 0.36938 -0.37300
O 	O 	0.65648 0.18503 0.34284 -0.40400
O 	O 	0.61165 0.32692 0.28341 -0.37800
O 	O 	0.61097 0.39542 0.36001 -0.37100
O 	O 	0.66657 0.34511 0.32564 -0.71400
H 	H 	0.62740 0.37144 0.32456 0.15300
H 	H 	0.57619 0.32930 0.24787 0.10100
H 	H 	0.69460 0.74862 0.30674 0.08500
H 	H 	0.69255 0.66945 0.32585 0.09200
C 	C 	0.70180 0.07448 0.27758 -0.04400
H 	H 	0.63819 0.05701 0.27139 0.05700
H 	H 	0.65407 0.95931 0.24678 0.08100
H 	H 	0.62290 0.50200 0.01664 0.04900
N 	N 	0.65787 0.62623 0.98757 -0.20000
H 	H 	0.59295 0.59304 0.99275 0.08700
N 	N 	0.65270 0.07114 0.02027 -0.20000
H 	H 	0.64415 0.12923 0.02070 0.10400
H 	H 	0.62104 0.02206 0.00863 0.08400
H 	H 	0.72929 0.43509 0.13574 0.02700
C 	C 	0.68981 0.94087 0.92126 -0.04200
C 	C 	0.62423 0.88066 0.93495 -0.09100
C 	C 	0.63678 0.90002 0.95623 0.10600
H 	H 	0.67888 0.93085 0.90496 0.05600
N 	N 	0.57319 0.84664 0.96999 -0.20000
H 	H 	0.58254 0.86292 0.98556 0.08000
C 	C 	0.61883 0.89201 0.86176 -0.09500
C 	C 	0.63367 0.97473 0.85223 0.04600
C 	C 	0.69011 0.00966 0.83543 -0.09300
C 	C 	0.66834 0.85052 0.85599 -0.00400
H 	H 	0.69826 0.07138 0.82760 0.04900
H 	H 	0.65925 0.78861 0.86395 0.03000
C 	C 	0.62049 0.84936 0.72969 -0.04500
C 	C 	0.67671 0.81233 0.72739 -0.08300
C 	C 	0.63853 0.71511 0.72326 0.10600
C 	C 	0.55161 0.66516 0.71588 -0.04200
C 	C 	0.53137 0.79601 0.72422 0.11100
H 	H 	0.64615 0.92014 0.73531 0.05600
H 	H 	0.52563 0.59444 0.71017 0.04300
H 	H 	0.50114 0.89836 0.73326 0.08900
H 	H 	0.65716 0.59964 0.72295 0.08200
C 	C 	0.66714 0.05845 0.37161 -0.02500
C 	C 	0.63677 0.12046 0.37622 -0.11100
C 	C 	0.60971 0.96119 0.37245 0.09800
N 	N 	0.63417 0.90271 0.36379 -0.19800
H 	H 	0.69821 0.92878 0.35841 0.08400
H 	H 	0.58869 0.83235 0.36110 0.09900
C 	C 	0.56766 0.50133 0.62720 -0.03800
C 	C 	0.60504 0.52711 0.60773 -0.09700
C 	C 	0.63740 0.62066 0.60104 0.10900
C 	C 	0.61180 0.67755 0.61152 -0.04000
H 	H 	0.62646 0.74443 0.60511 0.04900
N 	N 	0.69520 0.65709 0.58529 -0.19200
H 	H 	0.71078 0.72189 0.57906 0.08500
C 	C 	0.55982 0.01440 0.60139 0.09500
H 	H 	0.53348 0.87439 0.60723 0.05200
N 	N 	0.64829 0.05246 0.60309 -0.19800
H 	H 	0.69003 0.12492 0.60348 0.09400
H 	H 	0.67574 0.00970 0.60528 0.08000
C 	C 	0.57368 0.61663 0.49769 -0.05600
C 	C 	0.60567 0.58847 0.51418 0.00400
C 	C 	0.54827 0.50992 0.52579 -0.06600
H 	H 	0.61908 0.67566 0.48844 0.04300
H 	H 	0.67556 0.62484 0.51727 0.03400
C 	C 	0.53174 0.11630 0.51374 -0.06300
C 	C 	0.52713 0.98937 0.49379 0.01800
C 	C 	0.55998 0.05147 0.51037 -0.02000
C 	C 	0.55729 0.92653 0.49003 -0.05700
C 	C 	0.52824 0.86846 0.47285 0.00500
H 	H 	0.60840 0.05041 0.52048 0.04300
H 	H 	0.60425 0.92347 0.50027 0.04500
H 	H 	0.55327 0.82138 0.47006 0.03900
C 	C 	0.71832 0.97285 0.96322 -0.04800
C 	C 	0.73102 0.96120 0.82794 0.03300
C 	C 	0.72244 0.88291 0.83873 0.00500
Ni	Ni	0.74465 0.48717 0.56415 1.11100
Ni	Ni	0.72136 0.28118 0.55844 1.12000
O 	O 	0.76974 0.32334 0.58699 -0.38900
C 	C 	0.75392 0.26489 0.10982 0.27900
C 	C 	0.72734 0.19833 0.05515 0.31000
C 	C 	0.72926 0.46919 0.04046 0.31100
C 	C 	0.75089 0.52014 0.09937 0.28300
C 	C 	0.76830 0.56554 0.31966 0.29700
Ni	Ni	0.72558 0.40161 0.35031 1.11200
Ni	Ni	0.72612 0.38920 0.30027 1.12000
O 	O 	0.71669 0.50343 0.30603 -0.39000
O 	O 	0.75575 0.28995 0.29386 -0.39000
N 	N 	0.72164 0.71011 0.31285 -0.20000
C 	C 	0.73618 0.13618 0.29416 -0.09200
C 	C 	0.75189 0.04053 0.26801 0.12200
N 	N 	0.71581 0.97704 0.25262 -0.20300
H 	H 	0.74513 0.93946 0.24742 0.06500
C 	C 	0.71643 0.60432 0.99567 0.10800
C 	C 	0.69004 0.53643 0.01112 -0.04000
H 	H 	0.67603 0.67477 0.97569 0.09400
C 	C 	0.71080 0.06399 0.03280 0.10600
H 	H 	0.71095 0.95419 0.01490 0.03600
C 	C 	0.78339 0.24545 0.12938 -0.06800
C 	C 	0.76452 0.15417 0.13414 -0.01900
H 	H 	0.74071 0.98860 0.14664 0.03100
H 	H 	0.72597 0.09704 0.12368 0.04700
C 	C 	0.80003 0.55290 0.15577 -0.05700
C 	C 	0.77002 0.51051 0.13669 0.00500
C 	C 	0.79098 0.56508 0.11892 -0.07100
H 	H 	0.78300 0.50968 0.16935 0.04300
C 	C 	0.78897 0.01756 0.94963 -0.09300
C 	C 	0.77016 0.01340 0.92863 0.11000
H 	H 	0.73052 0.98386 0.97949 0.04400
C 	C 	0.76192 0.83335 0.83109 -0.05200
C 	C 	0.77436 0.98530 0.80905 -0.00600
H 	H 	0.75753 0.77461 0.83951 0.04200
H 	H 	0.77867 0.04363 0.80045 0.03600
N 	N 	0.68074 0.66789 0.72824 -0.19400
H 	H 	0.72877 0.69289 0.73962 0.07900
H 	H 	0.73082 0.08536 0.36438 0.04700
H 	H 	0.73245 0.62718 0.58072 0.06000
H 	H 	0.76589 0.44514 0.62392 0.10600
O 	O 	0.75636 0.41013 0.04487 -0.39000
N 	N 	0.01869 0.72999 0.27894 -0.20300
C 	C 	0.75190 0.51845 0.02058 -0.09400
C 	C 	0.73950 0.00057 0.02788 -0.03500
O 	O 	0.81135 0.50323 0.53698 -0.37600
C 	C 	0.77438 0.87727 0.72797 0.29600
O 	O 	0.80550 0.96934 0.72923 -0.36600
Ni	Ni	0.77751 0.38625 0.07387 1.11900
O 	O 	0.80094 0.34999 0.10173 -0.37900
O 	O 	0.79995 0.51220 0.08488 -0.38100
O 	O 	0.78936 0.27617 0.06357 -0.37600
O 	O 	0.78138 0.53964 0.33816 -0.37100
C 	C 	0.79494 0.71584 0.30452 0.10600
H 	H 	0.80767 0.81476 0.28130 0.05000
C 	C 	0.81628 0.15326 0.30306 0.10900
H 	H 	0.80439 0.21768 0.32956 0.11000
C 	C 	0.74862 0.12433 0.04988 -0.09300
C 	C 	0.81673 0.03089 0.17432 0.01500
C 	C 	0.78085 0.04663 0.15675 -0.04200
C 	C 	0.79771 0.13718 0.15212 0.01100
C 	C 	0.83370 0.31911 0.14299 0.00300
H 	H 	0.80444 0.96099 0.17760 0.02400
H 	H 	0.84852 0.38965 0.13952 0.03900
N 	N 	0.83239 0.07290 0.91534 -0.20000
H 	H 	0.82014 0.06709 0.89961 0.08700
C 	C 	0.80325 0.85638 0.81205 0.00900
C 	C 	0.80658 0.92998 0.80061 -0.07600
C 	C 	0.84981 0.21207 0.16550 0.01500
C 	C 	0.84304 0.66280 0.12025 -0.01700
C 	C 	0.84934 0.65075 0.15735 0.01500
C 	C 	0.83919 0.44486 0.53176 0.28600
C 	C 	0.82987 0.40959 0.59131 0.31300
O 	O 	0.83464 0.38115 0.54489 -0.37900
O 	O 	0.84579 0.47799 0.57857 -0.37100
O 	O 	0.82848 0.84378 0.72631 -0.37600
O 	O 	0.82146 0.87318 0.76798 -0.38600
O 	O 	0.83140 0.38950 0.34115 -0.38500
C 	C 	0.83574 0.77497 0.28770 -0.03900
C 	C 	0.82919 0.66084 0.31220 -0.09000
C 	C 	0.83935 0.07316 0.27463 -0.10300
N 	N 	0.84324 0.19788 0.32134 -0.20200
C 	C 	0.80484 0.65221 0.98938 -0.09200
C 	C 	0.81045 0.11561 0.06195 -0.04400
C 	C 	0.81669 0.01107 0.03668 -0.09500
H 	H 	0.83095 0.81564 0.80598 0.03700
N 	N 	0.82522 0.47906 0.63186 -0.20300
H 	H 	0.82838 0.51606 0.64511 0.08800
C 	C 	0.86648 0.30248 0.16095 -0.05600
H 	H 	0.85546 0.65194 0.19041 0.04400
H 	H 	0.85867 0.70495 0.10651 0.04100
C 	C 	0.83940 0.94593 0.77948 0.31700
O 	O 	0.87429 0.86570 0.20385 -0.38900
O 	O 	0.85979 0.02490 0.21874 -0.37400
O 	O 	0.85378 0.46565 0.31080 -0.37800
C 	C 	0.84806 0.75326 0.98563 0.30100
C 	C 	0.87013 0.01944 0.95538 0.29200
C 	C 	0.86883 0.12467 0.29276 -0.03600
C 	C 	0.83726 0.55698 0.01194 0.11100
C 	C 	0.84419 0.05848 0.05555 0.11300
H 	H 	0.83368 0.15479 0.07611 0.05800
C 	C 	0.87000 0.10546 0.18739 -0.07100
C 	C 	0.87137 0.70616 0.13946 0.01300
H 	H 	0.86136 0.32068 0.50920 0.03400
C 	C 	0.88571 0.19577 0.18308 -0.01600
C 	C 	0.87358 0.69413 0.17663 -0.01800
O 	O 	0.86599 0.02849 0.77119 -0.39900
Ni	Ni	0.88526 0.92709 0.23106 1.11500
O 	O 	0.88454 0.81746 0.24459 -0.39200
O 	O 	0.89374 0.98004 0.25922 -0.41100
C 	C 	0.88500 0.44567 0.32728 0.30500
O 	O 	0.86023 0.80760 0.00158 -0.38800
O 	O 	0.87850 0.94775 0.94945 -0.37200
C 	C 	0.85850 0.61540 0.99480 -0.04800
H 	H 	0.89261 0.12694 0.92065 0.10000
C 	C 	0.89335 0.46444 0.51324 -0.06500
C 	C 	0.90254 0.06272 0.26170 0.33300
C 	C 	0.88282 0.01218 0.02258 0.30500
O 	O 	0.89174 0.78706 0.96807 -0.36900
C 	C 	0.91006 0.77932 0.27852 -0.09900
H 	H 	0.90242 0.21037 0.32784 0.09000
H 	H 	0.90578 0.36023 0.17119 0.04400
C 	C 	0.89345 0.42522 0.60753 -0.09800
C 	C 	0.89447 0.46914 0.62620 0.11100
C 	C 	0.89870 0.39165 0.50348 0.00200
O 	O 	0.90552 0.06972 0.00674 -0.39000
C 	C 	0.91089 0.08938 0.20526 0.28500
N 	N 	0.90279 0.04972 0.06751 -0.19500
H 	H 	0.90383 0.94758 0.98579 0.15800
C 	C 	0.91277 0.68054 0.30572 -0.05400
N 	N 	0.90100 0.54568 0.02097 -0.19700
H 	H 	0.89939 0.53192 0.03656 0.08600
H 	H 	0.92596 0.25313 0.19336 0.04600
C 	C 	0.91711 0.79203 0.17817 -0.06900
C 	C 	0.91816 0.80412 0.14112 -0.05600
C 	C 	0.92931 0.83686 0.19826 0.28200
H 	H 	0.93361 0.14462 0.29859 0.04800
H 	H 	0.93563 0.84735 0.12753 0.04100
H 	H 	0.91910 0.99811 0.06460 0.09200
Ni	Ni	0.91538 0.86663 0.74992 1.10800
Ni	Ni	0.92035 0.06799 0.74304 1.11500
C 	C 	0.94177 0.82884 0.25880 0.31800
O 	O 	0.93015 0.97280 0.02821 -0.39000
O 	O 	0.93804 0.09721 0.96310 -0.37600
H 	H 	0.94223 0.64341 0.31246 0.06000
C 	C 	0.93997 0.84671 0.16038 0.00400
H 	H 	0.92447 0.16698 0.66392 0.08600
C 	C 	0.94105 0.55602 0.50549 -0.02200
H 	H 	0.93754 0.61257 0.51306 0.04700
O 	O 	0.00787 0.00651 0.22677 -0.70600
H 	H 	0.92777 0.09022 0.08073 0.08700
C 	C 	0.94982 0.73227 0.28784 0.11900
H 	H 	0.92368 0.64568 0.98830 0.05900
H 	H 	0.92416 0.08130 0.68080 0.09900
C 	C 	0.95196 0.40998 0.48629 -0.04900
H 	H 	0.95562 0.35307 0.47897 0.04300
O 	O 	0.96798 0.13697 0.25298 -0.36900
H 	H 	0.97302 0.92228 0.16151 0.02500
H 	H 	0.94503 0.65629 0.94293 0.08700
H 	H 	0.95385 0.61282 0.34609 0.04900
H 	H 	0.95389 0.36289 0.58991 0.04400
H 	H 	0.95892 0.56340 0.01306 0.08700
O 	O 	0.96753 0.97154 0.98539 -0.71600
N 	N 	0.95847 0.14719 0.67397 -0.19900
C 	C 	0.95767 0.40126 0.60372 -0.03800
H 	H 	0.00567 0.01192 0.21183 0.14500
H 	H 	0.97417 0.38034 0.30788 0.10100
C 	C 	0.96721 0.50026 0.63934 -0.04500
H 	H 	0.97012 0.53726 0.65329 0.04900
H 	H 	0.98110 0.26461 0.79001 0.03100
O 	O 	0.98229 0.88478 0.77702 -0.39500
Ni	Ni	0.98028 0.91240 0.00906 1.12000
C 	C 	0.00020 0.50130 0.47858 0.00500
O 	O 	0.97442 0.12415 0.71579 -0.38400
O 	O 	0.97523 0.99237 0.74233 -0.70900
H 	H 	0.97139 0.98188 0.72744 0.15500
O 	O 	0.98380 0.83226 0.21172 -0.38000
O 	O 	0.99350 0.15200 0.20972 -0.37000
Ni	Ni	0.97864 0.92849 0.95949 1.11300
C 	C 	0.97773 0.50704 0.33319 -0.09200
C 	C 	0.99449 0.57478 0.48819 0.02400
N 	N 	0.99209 0.71987 0.94934 -0.19300
C 	C 	0.99994 0.58773 0.34472 -0.04700
