data_crystal

_cell_length_a 27.60884
_cell_length_b 40.97049
_cell_length_c 36.48637
_cell_angle_alpha 90.00280
_cell_angle_beta  89.99920
_cell_angle_gamma 89.99743

_symmetry_space_group_name_	'P 1'
_symmetry_space_group_name_H-M	'P 1'

loop_
_symmetry_equiv_pos_as_xyz
  x,y,z

loop_
_atom_site_label
_atom_site_type_symbol
_atom_site_fract_x
_atom_site_fract_y
_atom_site_fract_z
_atom_site_charge
Cu	Cu	0.08843 0.85137 0.09056 0.92900
Cu	Cu	0.03964 0.84911 0.17201 0.86900
Cu	Cu	0.98227 0.83562 0.10456 0.89100
Cu	Cu	0.02103 0.82372 0.02841 0.89400
C 	C 	0.12939 0.81987 0.02730 0.30300
O 	O 	0.07756 0.88913 0.05579 -0.37000
C 	C 	0.93816 0.86260 0.17194 0.29500
O 	O 	0.03561 0.81605 0.07826 -0.63600
O 	O 	0.03451 0.86533 0.12218 -0.64200
O 	O 	0.13836 0.84755 0.12949 -0.37700
O 	O 	0.08935 0.81741 0.16616 -0.44300
O 	O 	0.08890 0.82604 0.00926 -0.39500
O 	O 	0.93406 0.80492 0.08710 -0.38900
C 	C 	0.92505 0.79883 0.05222 0.29800
C 	C 	0.03418 0.89631 0.04325 0.29400
O 	O 	0.00053 0.87367 0.04133 -0.39900
O 	O 	0.96055 0.79719 0.02798 -0.39900
O 	O 	0.13600 0.83006 0.06120 -0.37300
C 	C 	0.13298 0.82647 0.15624 0.30200
O 	O 	0.93198 0.85223 0.13786 -0.38700
O 	O 	0.98107 0.87133 0.18434 -0.42800
H 	H 	0.04229 0.79302 0.08478 0.16300
H 	H 	0.02586 0.88874 0.12055 0.17100
Cu	Cu	0.46578 0.85300 0.38146 0.92800
Cu	Cu	0.52609 0.84701 0.30469 0.86500
Cu	Cu	0.57277 0.83574 0.37768 0.89400
Cu	Cu	0.52250 0.82437 0.44920 0.89300
C 	C 	0.41597 0.82201 0.44084 0.30100
O 	O 	0.47491 0.89051 0.41704 -0.36800
C 	C 	0.62797 0.85731 0.31376 0.29300
O 	O 	0.51490 0.81665 0.39843 -0.63900
O 	O 	0.52440 0.86517 0.35400 -0.64300
O 	O 	0.42078 0.85159 0.33906 -0.37400
O 	O 	0.47116 0.81905 0.30615 -0.44400
O 	O 	0.45278 0.82993 0.46199 -0.39200
O 	O 	0.61846 0.80526 0.39965 -0.38700
C 	C 	0.61911 0.79608 0.43440 0.30200
C 	C 	0.51708 0.89679 0.43241 0.29200
O 	O 	0.54869 0.87320 0.43733 -0.40300
O 	O 	0.57918 0.79507 0.45426 -0.40000
O 	O 	0.41304 0.83290 0.40693 -0.36800
C 	C 	0.42796 0.83131 0.31180 0.30500
O 	O 	0.62756 0.85288 0.34965 -0.38300
O 	O 	0.58844 0.86606 0.29603 -0.42000
H 	H 	0.50891 0.79369 0.39130 0.16000
H 	H 	0.53320 0.88857 0.35511 0.16900
Cu	Cu	0.01027 0.17168 0.88233 0.92600
Cu	Cu	0.95312 0.14566 0.80878 0.86700
Cu	Cu	0.90016 0.17555 0.88368 0.90000
Cu	Cu	0.95501 0.19080 0.95475 0.89200
C 	C 	0.06109 0.20396 0.94073 0.30000
O 	O 	0.02601 0.13385 0.91602 -0.36800
C 	C 	0.85039 0.15004 0.82021 0.28500
O 	O 	0.95335 0.19896 0.90411 -0.64800
O 	O 	0.95345 0.14778 0.86213 -0.64000
O 	O 	0.04141 0.18698 0.83611 -0.38400
O 	O 	0.02117 0.14267 0.80177 -0.42300
O 	O 	0.02288 0.20692 0.96257 -0.38600
O 	O 	0.85280 0.20423 0.90574 -0.38200
C 	C 	0.85412 0.21376 0.94034 0.29500
C 	C 	0.99324 0.12136 0.93809 0.28400
O 	O 	0.95424 0.13812 0.94651 -0.38900
O 	O 	0.88497 0.20059 0.96385 -0.39800
O 	O 	0.05626 0.20002 0.90497 -0.37000
C 	C 	0.04988 0.16747 0.80834 0.29900
O 	O 	0.84731 0.15694 0.85536 -0.38100
O 	O 	0.88640 0.13210 0.80800 -0.41900
H 	H 	0.95337 0.22245 0.89774 0.15600
H 	H 	0.95152 0.12522 0.87153 0.16100
Cu	Cu	0.39841 0.15040 0.58436 0.92700
Cu	Cu	0.44741 0.15519 0.66588 0.86500
Cu	Cu	0.49699 0.18126 0.59919 0.89400
Cu	Cu	0.45330 0.19133 0.52353 0.89200
C 	C 	0.34733 0.18304 0.52684 0.29700
O 	O 	0.42050 0.11722 0.54680 -0.36700
C 	C 	0.55069 0.15936 0.66422 0.29400
O 	O 	0.43812 0.19355 0.57420 -0.63600
O 	O 	0.45649 0.14338 0.61469 -0.64300
O 	O 	0.34985 0.14398 0.62373 -0.37800
O 	O 	0.38789 0.17850 0.66300 -0.44500
O 	O 	0.38645 0.18142 0.50622 -0.39400
O 	O 	0.53351 0.21898 0.58324 -0.38700
C 	C 	0.54085 0.22610 0.54846 0.29800
C 	C 	0.46442 0.11775 0.53277 0.29200
O 	O 	0.48963 0.14494 0.53249 -0.40000
O 	O 	0.50479 0.22527 0.52473 -0.39600
O 	O 	0.34373 0.16530 0.55685 -0.36300
C 	C 	0.34827 0.16387 0.65184 0.30200
O 	O 	0.55265 0.17024 0.63013 -0.38800
O 	O 	0.51288 0.14285 0.67620 -0.42000
H 	H 	0.42402 0.21451 0.58251 0.15700
H 	H 	0.47279 0.12208 0.61113 0.17000
Cu	Cu	0.96775 0.65447 0.59635 0.92500
Cu	Cu	0.03111 0.65396 0.67234 0.86800
Cu	Cu	0.07502 0.67123 0.59929 0.89500
Cu	Cu	0.02210 0.68724 0.52948 0.89400
C 	C 	0.91654 0.69127 0.54187 0.29800
O 	O 	0.97407 0.61928 0.55763 -0.37200
C 	C 	0.13243 0.64670 0.66035 0.29100
O 	O 	0.01674 0.69151 0.58103 -0.63500
O 	O 	0.02753 0.64009 0.62124 -0.63900
O 	O 	0.92477 0.65368 0.63996 -0.37600
O 	O 	0.97777 0.68312 0.67411 -0.44900
O 	O 	0.95147 0.68420 0.51857 -0.39000
O 	O 	0.11886 0.70356 0.57941 -0.39000
C 	C 	0.12058 0.71226 0.54462 0.30000
C 	C 	0.01506 0.61374 0.54025 0.29800
O 	O 	0.04699 0.63728 0.53630 -0.40200
O 	O 	0.08054 0.71535 0.52511 -0.39500
O 	O 	0.91419 0.67651 0.57394 -0.36600
C 	C 	0.93385 0.67214 0.66848 0.30600
O 	O 	0.13114 0.65307 0.62489 -0.38200
O 	O 	0.09412 0.63495 0.67732 -0.42100
H 	H 	0.01106 0.71397 0.59010 0.16200
H 	H 	0.03613 0.61688 0.61747 0.16900
Cu	Cu	0.58564 0.66212 0.88950 0.92700
Cu	Cu	0.54460 0.66529 0.80514 0.87000
Cu	Cu	0.48729 0.69048 0.86824 0.89500
Cu	Cu	0.51876 0.69597 0.94794 0.89300
C 	C 	0.62602 0.69145 0.95393 0.29900
O 	O 	0.56314 0.62603 0.92371 -0.36600
C 	C 	0.44181 0.65965 0.80342 0.29700
O 	O 	0.54057 0.70259 0.89950 -0.63700
O 	O 	0.53156 0.65371 0.85547 -0.64400
O 	O 	0.63877 0.66145 0.85268 -0.38000
O 	O 	0.59762 0.69387 0.81298 -0.44400
O 	O 	0.58379 0.68726 0.97027 -0.38900
O 	O 	0.44657 0.72636 0.88362 -0.38500
C 	C 	0.43355 0.73183 0.91788 0.29800
C 	C 	0.51704 0.62306 0.93243 0.28900
O 	O 	0.48891 0.64895 0.93225 -0.39900
O 	O 	0.46426 0.72782 0.94536 -0.39700
O 	O 	0.63471 0.67871 0.92137 -0.37200
C 	C 	0.63880 0.68226 0.82529 0.30000
O 	O 	0.44057 0.68347 0.82797 -0.39200
O 	O 	0.48328 0.64706 0.79243 -0.42300
H 	H 	0.55406 0.72454 0.89453 0.16100
H 	H 	0.51597 0.63208 0.85800 0.16600
Cu	Cu	0.89533 0.35436 0.38837 0.92700
Cu	Cu	0.94735 0.34383 0.30851 0.86500
Cu	Cu	0.99543 0.32471 0.37744 0.89000
Cu	Cu	0.95210 0.32093 0.45383 0.89100
C 	C 	0.84562 0.32591 0.44936 0.29700
O 	O 	0.91456 0.39158 0.42192 -0.36800
C 	C 	0.05048 0.35205 0.31511 0.29700
O 	O 	0.93732 0.31359 0.40382 -0.63800
O 	O 	0.95368 0.36037 0.35806 -0.64600
O 	O 	0.84739 0.35496 0.34782 -0.37600
O 	O 	0.88984 0.31860 0.31345 -0.44600
O 	O 	0.88449 0.33052 0.46971 -0.39500
O 	O 	0.03263 0.28888 0.39723 -0.38400
C 	C 	0.04099 0.28499 0.43252 0.29800
C 	C 	0.95814 0.39352 0.43643 0.29500
O 	O 	0.98523 0.36730 0.43947 -0.40400
O 	O 	0.00587 0.28854 0.45680 -0.39200
O 	O 	0.84128 0.34046 0.41728 -0.36300
C 	C 	0.84871 0.33280 0.32188 0.30200
O 	O 	0.04933 0.33160 0.34320 -0.39300
O 	O 	0.01065 0.36006 0.29715 -0.41800
H 	H 	0.92436 0.29164 0.39812 0.15700
H 	H 	0.96892 0.38220 0.35965 0.16500
Cu	Cu	0.51414 0.36145 0.10077 0.92800
Cu	Cu	0.45157 0.35078 0.17562 0.86200
Cu	Cu	0.40783 0.34300 0.10438 0.89300
Cu	Cu	0.45609 0.33693 0.03190 0.89100
C 	C 	0.56247 0.33069 0.04070 0.29700
O 	O 	0.50710 0.40076 0.06765 -0.36400
C 	C 	0.35029 0.36759 0.16620 0.29600
O 	O 	0.46496 0.32590 0.08170 -0.64400
O 	O 	0.45517 0.37264 0.12841 -0.64600
O 	O 	0.55844 0.35765 0.14330 -0.37500
O 	O 	0.50726 0.32339 0.17329 -0.44100
O 	O 	0.52650 0.33998 0.01925 -0.38500
O 	O 	0.36433 0.31127 0.08310 -0.39400
C 	C 	0.36120 0.30345 0.04804 0.30400
C 	C 	0.46511 0.40861 0.05310 0.29200
O 	O 	0.43257 0.38581 0.04711 -0.39700
O 	O 	0.39535 0.31120 0.02400 -0.39800
O 	O 	0.56654 0.34237 0.07425 -0.36600
C 	C 	0.55048 0.33625 0.16930 0.30400
O 	O 	0.35219 0.36063 0.13079 -0.38800
O 	O 	0.38992 0.37042 0.18633 -0.42400
H 	H 	0.47145 0.30256 0.08675 0.15900
H 	H 	0.44512 0.39583 0.12863 0.17100
C 	C 	0.59033 0.32658 0.19379 -0.11600
C 	C 	0.59088 0.33613 0.23114 0.11700
C 	C 	0.63318 0.33160 0.25188 -0.09600
C 	C 	0.67511 0.31879 0.23573 -0.00100
C 	C 	0.67346 0.30704 0.19928 0.05600
C 	C 	0.63100 0.31115 0.17861 -0.02100
N 	N 	0.55167 0.35056 0.24693 -0.20000
H 	H 	0.63428 0.33976 0.28015 0.05500
C 	C 	0.72164 0.32156 0.25565 0.00200
N 	N 	0.71266 0.29237 0.18381 -0.19200
H 	H 	0.63014 0.30326 0.15023 0.04200
C 	C 	0.73635 0.29599 0.27863 -0.10100
C 	C 	0.77868 0.29871 0.29978 0.12800
C 	C 	0.80607 0.32791 0.29835 -0.12200
C 	C 	0.79170 0.35326 0.27499 -0.02200
C 	C 	0.74995 0.35033 0.25335 0.05500
H 	H 	0.71468 0.27395 0.28016 0.05400
N 	N 	0.79249 0.27338 0.32153 -0.20500
H 	H 	0.81308 0.37545 0.27371 0.02600
N 	N 	0.73721 0.37518 0.23054 -0.19200
H 	H 	0.77150 0.25219 0.32291 0.07800
H 	H 	0.82431 0.27426 0.33693 0.08400
H 	H 	0.75805 0.39646 0.22941 0.07800
H 	H 	0.70702 0.37358 0.21343 0.08800
H 	H 	0.71154 0.28457 0.15654 0.08000
H 	H 	0.74416 0.28793 0.19882 0.08300
H 	H 	0.52002 0.35515 0.23221 0.04800
H 	H 	0.55263 0.35755 0.27447 0.07600
C 	C 	0.30267 0.37411 0.18321 -0.11300
C 	C 	0.29724 0.39822 0.21072 0.12500
C 	C 	0.25667 0.39720 0.23389 -0.10000
C 	C 	0.21951 0.37454 0.22773 -0.00000
C 	C 	0.22146 0.35401 0.19653 0.05800
C 	C 	0.26368 0.35335 0.17511 -0.02800
N 	N 	0.32949 0.42314 0.21385 -0.20300
H 	H 	0.25394 0.41413 0.25664 0.05300
C 	C 	0.18038 0.37108 0.25526 -0.00100
N 	N 	0.18315 0.33486 0.18716 -0.19200
H 	H 	0.26676 0.33594 0.15285 0.04300
C 	C 	0.14477 0.39536 0.25783 -0.10000
C 	C 	0.10469 0.39123 0.28106 0.12400
C 	C 	0.09795 0.36100 0.29919 -0.11300
C 	C 	0.13537 0.33777 0.29875 -0.02700
C 	C 	0.17727 0.34301 0.27779 0.05700
H 	H 	0.14844 0.41760 0.24197 0.05400
N 	N 	0.07411 0.41669 0.28707 -0.20300
H 	H 	0.13144 0.31523 0.31403 0.04700
N 	N 	0.21424 0.32110 0.27938 -0.19200
H 	H 	0.07774 0.43831 0.27211 0.07900
H 	H 	0.04880 0.41611 0.30833 0.08400
H 	H 	0.21086 0.29983 0.29500 0.07900
H 	H 	0.24728 0.32552 0.26639 0.08300
H 	H 	0.18559 0.31888 0.16491 0.08000
H 	H 	0.15007 0.33657 0.20090 0.08500
H 	H 	0.35524 0.42758 0.19348 0.08800
H 	H 	0.32677 0.43980 0.23545 0.07900
C 	C 	0.49811 0.59160 0.94643 -0.11300
C 	C 	0.51572 0.56132 0.93313 0.12400
C 	C 	0.50429 0.53251 0.95206 -0.09700
C 	C 	0.47136 0.53293 0.98133 0.00000
C 	C 	0.44941 0.56270 0.99188 0.05500
C 	C 	0.46410 0.59188 0.97507 -0.02500
N 	N 	0.54132 0.55956 0.90135 -0.20100
H 	H 	0.52003 0.50953 0.94334 0.05600
C 	C 	0.46235 0.50240 0.00204 0.00100
N 	N 	0.41401 0.56339 0.01782 -0.19200
H 	H 	0.44937 0.61490 0.98461 0.03600
C 	C 	0.48216 0.49897 0.03721 -0.09800
C 	C 	0.47770 0.46945 0.05640 0.12500
C 	C 	0.45752 0.44193 0.03856 -0.11200
C 	C 	0.43529 0.44586 0.00422 -0.02300
C 	C 	0.43646 0.47613 0.98616 0.05600
H 	H 	0.50041 0.51950 0.04990 0.05600
N 	N 	0.49110 0.46802 0.09222 -0.20100
H 	H 	0.41818 0.42513 0.99103 0.03700
N 	N 	0.41254 0.47984 0.95383 -0.19200
H 	H 	0.50847 0.48784 0.10460 0.08000
H 	H 	0.48144 0.44826 0.10872 0.07800
H 	H 	0.39489 0.46002 0.94171 0.07800
H 	H 	0.40968 0.50259 0.94113 0.08400
H 	H 	0.39916 0.58561 0.02633 0.07800
H 	H 	0.39959 0.54194 0.02875 0.08400
H 	H 	0.54246 0.57914 0.88310 0.07700
H 	H 	0.55700 0.53751 0.89314 0.08000
C 	C 	0.02078 0.58327 0.51945 -0.10600
C 	C 	0.04926 0.55728 0.53315 0.12000
C 	C 	0.04514 0.52621 0.51718 -0.09700
C 	C 	0.01404 0.52100 0.48735 0.00300
C 	C 	0.98920 0.54773 0.47153 0.05300
C 	C 	0.99258 0.57861 0.48795 -0.02900
N 	N 	0.08027 0.56192 0.56165 -0.20500
H 	H 	0.06517 0.50584 0.52861 0.05400
C 	C 	0.00292 0.48712 0.47608 0.01200
N 	N 	0.96167 0.54383 0.44090 -0.19200
H 	H 	0.97193 0.59885 0.47687 0.03900
C 	C 	0.96407 0.47095 0.49284 -0.11100
C 	C 	0.95034 0.43959 0.48148 0.13300
C 	C 	0.97503 0.42465 0.45188 -0.12900
C 	C 	0.01505 0.44028 0.43600 -0.01100
C 	C 	0.02948 0.47140 0.44795 0.04900
H 	H 	0.94443 0.48286 0.51485 0.05800
N 	N 	0.91421 0.42372 0.49956 -0.20600
H 	H 	0.03444 0.42848 0.41380 0.02900
N 	N 	0.06833 0.48613 0.43205 -0.19100
H 	H 	0.89510 0.43540 0.52052 0.08300
H 	H 	0.90600 0.39934 0.49406 0.09300
H 	H 	0.08730 0.47449 0.41098 0.07800
H 	H 	0.08037 0.50906 0.44058 0.08500
H 	H 	0.94244 0.56353 0.42997 0.08000
H 	H 	0.95999 0.52152 0.42715 0.08400
H 	H 	0.08655 0.58512 0.57248 0.08000
H 	H 	0.09986 0.54232 0.57245 0.08100
C 	C 	0.39735 0.65173 0.78266 -0.11400
C 	C 	0.35196 0.64838 0.80041 0.12500
C 	C 	0.30962 0.64610 0.77922 -0.09900
C 	C 	0.31216 0.64474 0.74086 0.00000
C 	C 	0.35781 0.64537 0.72325 0.05500
C 	C 	0.39990 0.64940 0.74430 -0.02300
N 	N 	0.34895 0.64615 0.83755 -0.20200
H 	H 	0.27461 0.64489 0.79264 0.05400
C 	C 	0.26669 0.64466 0.71934 -0.00100
N 	N 	0.36148 0.64213 0.68623 -0.19200
H 	H 	0.43471 0.65132 0.73070 0.03400
C 	C 	0.24921 0.67426 0.70537 -0.09600
C 	C 	0.20582 0.67540 0.68540 0.11800
C 	C 	0.17953 0.64619 0.67925 -0.11200
C 	C 	0.19730 0.61651 0.69289 -0.02200
C 	C 	0.24086 0.61538 0.71273 0.05500
H 	H 	0.26932 0.69657 0.71033 0.05400
N 	N 	0.18924 0.70463 0.67283 -0.20300
H 	H 	0.17719 0.59418 0.68801 0.04000
N 	N 	0.25780 0.58617 0.72503 -0.19200
H 	H 	0.20934 0.72592 0.67707 0.08000
H 	H 	0.15614 0.70670 0.65924 0.07500
H 	H 	0.23822 0.56475 0.72030 0.07900
H 	H 	0.29070 0.58432 0.73897 0.08400
H 	H 	0.39527 0.64338 0.67340 0.07700
H 	H 	0.33116 0.63754 0.66993 0.08600
H 	H 	0.37977 0.64276 0.85368 0.08300
H 	H 	0.31519 0.64572 0.85050 0.08000
C 	C 	0.89629 0.67714 0.69644 -0.12300
C 	C 	0.87885 0.65073 0.71769 0.12100
C 	C 	0.83849 0.65537 0.74043 -0.09800
C 	C 	0.81618 0.68600 0.74296 -0.00000
C 	C 	0.83602 0.71301 0.72396 0.05400
C 	C 	0.87583 0.70822 0.70062 -0.02000
N 	N 	0.90100 0.62107 0.71674 -0.20200
H 	H 	0.82388 0.63494 0.75577 0.05400
C 	C 	0.76991 0.68879 0.76312 0.00200
N 	N 	0.81671 0.74339 0.72763 -0.19200
H 	H 	0.89017 0.72858 0.68502 0.03500
C 	C 	0.77089 0.69491 0.80093 -0.10300
C 	C 	0.72785 0.69527 0.82143 0.13100
C 	C 	0.68347 0.68755 0.80399 -0.12400
C 	C 	0.68234 0.68268 0.76595 -0.02100
C 	C 	0.72511 0.68336 0.74526 0.05300
H 	H 	0.80520 0.69970 0.81436 0.05400
N 	N 	0.72917 0.70404 0.85738 -0.20400
H 	H 	0.64817 0.67741 0.75252 0.01800
N 	N 	0.72296 0.67847 0.70839 -0.19200
H 	H 	0.76230 0.70803 0.87050 0.08500
H 	H 	0.69747 0.70881 0.87202 0.09900
H 	H 	0.68974 0.67409 0.69556 0.07600
H 	H 	0.75394 0.67931 0.69202 0.08800
H 	H 	0.83096 0.76304 0.71288 0.07800
H 	H 	0.78805 0.74796 0.74558 0.08400
H 	H 	0.93325 0.61746 0.70236 0.06100
H 	H 	0.88691 0.60145 0.73163 0.07700
C 	C 	0.30301 0.19761 0.51140 -0.11200
C 	C 	0.27523 0.22031 0.53180 0.12200
C 	C 	0.23145 0.23195 0.51730 -0.09700
C 	C 	0.21588 0.22230 0.48239 0.00000
C 	C 	0.24403 0.20006 0.46168 0.05600
C 	C 	0.28738 0.18791 0.47647 -0.02200
N 	N 	0.29100 0.23172 0.56474 -0.20200
H 	H 	0.20991 0.24918 0.53291 0.05500
C 	C 	0.17097 0.23671 0.46730 -0.00000
N 	N 	0.22946 0.19004 0.42787 -0.19200
H 	H 	0.30865 0.17046 0.46094 0.04300
C 	C 	0.17402 0.26588 0.44739 -0.09800
C 	C 	0.13197 0.28229 0.43610 0.12200
C 	C 	0.08600 0.26855 0.44392 -0.11100
C 	C 	0.08303 0.23888 0.46300 -0.02200
C 	C 	0.12511 0.22276 0.47476 0.05700
H 	H 	0.20927 0.27640 0.44167 0.05400
N 	N 	0.13600 0.31161 0.41879 -0.20200
H 	H 	0.04784 0.22822 0.46859 0.04100
N 	N 	0.12125 0.19388 0.49297 -0.19200
H 	H 	0.17008 0.32090 0.41195 0.08300
H 	H 	0.10574 0.32600 0.41310 0.08500
H 	H 	0.08720 0.18400 0.49877 0.08000
H 	H 	0.15180 0.18072 0.50106 0.08800
H 	H 	0.25064 0.17375 0.41273 0.07900
H 	H 	0.19694 0.19804 0.41637 0.08600
H 	H 	0.32555 0.22627 0.57459 0.07600
H 	H 	0.26929 0.24739 0.58027 0.08100
C 	C 	0.80205 0.31173 0.46644 -0.11200
C 	C 	0.77469 0.28738 0.44825 0.12200
C 	C 	0.73111 0.27651 0.46378 -0.09700
C 	C 	0.71583 0.28807 0.49803 0.00000
C 	C 	0.74407 0.31150 0.51693 0.05500
C 	C 	0.78673 0.32335 0.50073 -0.02200
N 	N 	0.79086 0.27355 0.41662 -0.20200
H 	H 	0.70965 0.25825 0.44964 0.05400
C 	C 	0.67123 0.27433 0.51440 -0.00000
N 	N 	0.73029 0.32290 0.55038 -0.19200
H 	H 	0.80778 0.34192 0.51468 0.04200
C 	C 	0.67403 0.24447 0.53300 -0.09800
C 	C 	0.63185 0.22805 0.54399 0.12300
C 	C 	0.58608 0.24282 0.53801 -0.11200
C 	C 	0.58347 0.27344 0.52088 -0.02200
C 	C 	0.62560 0.28926 0.50872 0.05700
H 	H 	0.70911 0.23322 0.53742 0.05300
N 	N 	0.63551 0.19769 0.55891 -0.20200
H 	H 	0.54848 0.28489 0.51674 0.04100
N 	N 	0.62199 0.31871 0.49168 -0.19200
H 	H 	0.66949 0.18769 0.56469 0.08200
H 	H 	0.60507 0.18313 0.56337 0.08600
H 	H 	0.58808 0.32937 0.48727 0.07900
H 	H 	0.65261 0.33148 0.48299 0.08800
H 	H 	0.75135 0.34024 0.56407 0.07900
H 	H 	0.69871 0.31473 0.56315 0.08500
H 	H 	0.82559 0.27818 0.40660 0.07700
H 	H 	0.76945 0.25662 0.40259 0.08000
C 	C 	0.10869 0.21431 0.95497 -0.10800
C 	C 	0.12905 0.19952 0.98649 0.12200
C 	C 	0.17101 0.21294 0.00222 -0.09800
C 	C 	0.19387 0.23997 0.98622 -0.00100
C 	C 	0.17544 0.25330 0.95323 0.05800
C 	C 	0.13268 0.24053 0.93815 -0.02300
N 	N 	0.10926 0.17208 0.00123 -0.20400
H 	H 	0.18591 0.20231 0.02700 0.05400
C 	C 	0.23614 0.25478 0.00492 0.00000
N 	N 	0.19841 0.27840 0.93606 -0.19200
H 	H 	0.11752 0.25146 0.91363 0.04600
C 	C 	0.28226 0.24141 0.99914 -0.09900
C 	C 	0.32345 0.25571 0.01504 0.12400
C 	C 	0.31849 0.28498 0.03539 -0.11300
C 	C 	0.27217 0.29760 0.04235 -0.02400
C 	C 	0.23079 0.28256 0.02767 0.05700
H 	H 	0.28606 0.21963 0.98249 0.05400
N 	N 	0.36716 0.24064 0.01179 -0.20300
H 	H 	0.26833 0.31953 0.05876 0.04200
N 	N 	0.18621 0.29496 0.03539 -0.19200
H 	H 	0.37087 0.21991 0.99533 0.07900
H 	H 	0.39710 0.24819 0.02706 0.08300
H 	H 	0.18272 0.31581 0.05169 0.08000
H 	H 	0.15462 0.28378 0.02595 0.08600
H 	H 	0.18398 0.28850 0.91212 0.08000
H 	H 	0.23115 0.28774 0.94579 0.08600
H 	H 	0.08073 0.15985 0.98841 0.08700
H 	H 	0.12367 0.16190 0.02514 0.08000
C 	C 	0.81325 0.23314 0.95485 -0.11100
C 	C 	0.79609 0.26123 0.93626 0.12200
C 	C 	0.75368 0.27666 0.94858 -0.09800
C 	C 	0.73077 0.26639 0.98087 0.00000
C 	C 	0.74945 0.23942 0.00061 0.05700
C 	C 	0.78994 0.22268 0.98697 -0.02400
N 	N 	0.82115 0.27429 0.90770 -0.20200
H 	H 	0.73962 0.29760 0.93383 0.05400
C 	C 	0.68769 0.28441 0.99411 -0.00100
N 	N 	0.72890 0.22959 0.03268 -0.19200
H 	H 	0.80320 0.20130 0.00134 0.04300
C 	C 	0.64151 0.27154 0.98727 -0.09600
C 	C 	0.60019 0.28561 0.00321 0.11700
C 	C 	0.60498 0.31466 0.02403 -0.10700
C 	C 	0.65104 0.32832 0.02948 -0.02200
C 	C 	0.69259 0.31319 0.01527 0.05700
H 	H 	0.63798 0.24950 0.97102 0.05400
N 	N 	0.55660 0.27042 0.99967 -0.20100
H 	H 	0.65465 0.35067 0.04518 0.04900
N 	N 	0.73696 0.32623 0.02236 -0.19200
H 	H 	0.55316 0.24979 0.98301 0.07800
H 	H 	0.52638 0.27781 0.01472 0.06600
H 	H 	0.74012 0.34751 0.03798 0.08000
H 	H 	0.76872 0.31539 0.01274 0.08400
H 	H 	0.74258 0.20936 0.04674 0.07800
H 	H 	0.69984 0.24214 0.04434 0.08500
H 	H 	0.85610 0.26645 0.90125 0.07800
H 	H 	0.80693 0.29398 0.89300 0.07800
C 	C 	0.09299 0.17269 0.78530 -0.11400
C 	C 	0.08917 0.17474 0.74666 0.12100
C 	C 	0.13141 0.17448 0.72527 -0.09700
C 	C 	0.17719 0.17375 0.74184 -0.00100
C 	C 	0.18105 0.17442 0.78053 0.05700
C 	C 	0.13878 0.17362 0.80191 -0.02200
N 	N 	0.04529 0.17790 0.73005 -0.20100
H 	H 	0.12866 0.17487 0.69562 0.05500
C 	C 	0.22069 0.17089 0.71836 0.00100
N 	N 	0.22506 0.17552 0.79728 -0.19200
H 	H 	0.14158 0.17294 0.83156 0.04400
C 	C 	0.24104 0.19925 0.70335 -0.10100
C 	C 	0.28179 0.19746 0.68041 0.12700
C 	C 	0.30342 0.16672 0.67345 -0.12000
C 	C 	0.28262 0.13833 0.68804 -0.02300
C 	C 	0.24126 0.14005 0.71030 0.05600
H 	H 	0.22470 0.22276 0.70917 0.05400
N 	N 	0.29902 0.22513 0.66441 -0.20400
H 	H 	0.29900 0.11480 0.68238 0.03400
N 	N 	0.22161 0.11207 0.72387 -0.19200
H 	H 	0.28340 0.24777 0.67035 0.07800
H 	H 	0.32683 0.22442 0.64507 0.08500
H 	H 	0.23731 0.08946 0.71795 0.07900
H 	H 	0.19054 0.11237 0.74015 0.08700
H 	H 	0.22753 0.17540 0.82586 0.08100
H 	H 	0.25713 0.17705 0.78223 0.08300
H 	H 	0.01378 0.18195 0.74519 0.06000
H 	H 	0.04268 0.17799 0.70147 0.07700
C 	C 	0.80600 0.15167 0.79806 -0.11600
C 	C 	0.77235 0.12557 0.79755 0.13100
C 	C 	0.73158 0.12751 0.77467 -0.10100
C 	C 	0.72389 0.15493 0.75246 0.00100
C 	C 	0.75734 0.18114 0.75320 0.05500
C 	C 	0.79806 0.17922 0.77612 -0.02900
N 	N 	0.77883 0.09871 0.81896 -0.20400
H 	H 	0.70569 0.10760 0.77416 0.05500
C 	C 	0.67996 0.15628 0.72928 -0.00100
N 	N 	0.75076 0.20803 0.73187 -0.19200
H 	H 	0.82393 0.19914 0.77662 0.01800
C 	C 	0.63764 0.17007 0.74374 -0.09600
C 	C 	0.59552 0.17251 0.72241 0.11700
C 	C 	0.59525 0.15948 0.68643 -0.11000
C 	C 	0.63766 0.14577 0.67190 -0.02100
C 	C 	0.68017 0.14409 0.69295 0.05600
H 	H 	0.63782 0.17961 0.77147 0.05400
N 	N 	0.55606 0.18817 0.73622 -0.20200
H 	H 	0.63747 0.13604 0.64425 0.04000
N 	N 	0.72091 0.13082 0.67814 -0.19200
H 	H 	0.55610 0.19671 0.76321 0.07600
H 	H 	0.52582 0.19321 0.72001 0.06100
H 	H 	0.72065 0.12190 0.65131 0.07700
H 	H 	0.75318 0.12928 0.69294 0.08300
H 	H 	0.77561 0.22726 0.73271 0.07500
H 	H 	0.72123 0.21012 0.71416 0.08500
H 	H 	0.80825 0.09665 0.83677 0.09600
H 	H 	0.75394 0.07950 0.81814 0.08100
C 	C 	0.66343 0.78120 0.44951 -0.11300
C 	C 	0.68541 0.75363 0.43293 0.12800
C 	C 	0.72842 0.74100 0.44782 -0.10000
C 	C 	0.74752 0.75366 0.48047 0.00100
C 	C 	0.72475 0.78060 0.49764 0.05600
C 	C 	0.68332 0.79438 0.48162 -0.02400
N 	N 	0.66447 0.73835 0.40385 -0.20300
H 	H 	0.74587 0.72027 0.43487 0.05500
C 	C 	0.79045 0.73778 0.49706 -0.00100
N 	N 	0.74211 0.79311 0.52961 -0.19200
H 	H 	0.66618 0.81530 0.49442 0.03300
C 	C 	0.83632 0.75157 0.49142 -0.09600
C 	C 	0.87756 0.73805 0.50803 0.11700
C 	C 	0.87326 0.70861 0.52818 -0.10800
C 	C 	0.82732 0.69477 0.53373 -0.02300
C 	C 	0.78572 0.70937 0.51889 0.05800
H 	H 	0.83967 0.77360 0.47513 0.05300
N 	N 	0.92064 0.75406 0.50574 -0.20200
H 	H 	0.82394 0.67238 0.54937 0.04900
N 	N 	0.74146 0.69610 0.52584 -0.19200
H 	H 	0.92397 0.77489 0.48940 0.07700
H 	H 	0.95034 0.74717 0.52166 0.06600
H 	H 	0.73845 0.67489 0.54160 0.08100
H 	H 	0.70963 0.70686 0.51626 0.08600
H 	H 	0.72519 0.81314 0.54190 0.07800
H 	H 	0.77208 0.78298 0.54281 0.08500
H 	H 	0.62944 0.74410 0.39527 0.08800
H 	H 	0.68219 0.71904 0.39076 0.08000
C 	C 	0.37320 0.80668 0.45769 -0.11500
C 	C 	0.32774 0.82272 0.45859 0.13200
C 	C 	0.28715 0.80609 0.47229 -0.10100
C 	C 	0.29191 0.77487 0.48758 0.00200
C 	C 	0.33783 0.75948 0.48834 0.05500
C 	C 	0.37792 0.77544 0.47292 -0.02400
N 	N 	0.32321 0.85437 0.44780 -0.20400
H 	H 	0.25201 0.81793 0.47219 0.05600
C 	C 	0.24852 0.75859 0.50283 -0.00000
N 	N 	0.34374 0.72960 0.50401 -0.19200
H 	H 	0.41295 0.76345 0.47275 0.02700
C 	C 	0.22377 0.73574 0.48124 -0.09700
C 	C 	0.18348 0.71895 0.49518 0.12200
C 	C 	0.16560 0.72698 0.53046 -0.11000
C 	C 	0.19031 0.74996 0.55201 -0.02100
C 	C 	0.23207 0.76552 0.53876 0.05700
H 	H 	0.23688 0.73024 0.45391 0.05500
N 	N 	0.16333 0.69442 0.47517 -0.20300
H 	H 	0.17687 0.75589 0.57914 0.04200
N 	N 	0.25626 0.78689 0.56070 -0.19200
H 	H 	0.17541 0.68966 0.44856 0.08000
H 	H 	0.13742 0.67879 0.48640 0.08100
H 	H 	0.24350 0.79207 0.58704 0.07900
H 	H 	0.28819 0.79820 0.55216 0.08600
H 	H 	0.37769 0.71831 0.50403 0.07800
H 	H 	0.31508 0.71747 0.51676 0.08600
H 	H 	0.35347 0.86881 0.44223 0.10200
H 	H 	0.28912 0.86545 0.44692 0.08500
C 	C 	0.52428 0.92827 0.45090 -0.11200
C 	C 	0.55280 0.95315 0.43485 0.12000
C 	C 	0.55059 0.98495 0.44916 -0.09700
C 	C 	0.52132 0.99198 0.47957 -0.00100
C 	C 	0.49621 0.96643 0.49750 0.05900
C 	C 	0.49780 0.93481 0.48282 -0.02300
N 	N 	0.58200 0.94676 0.40569 -0.20500
H 	H 	0.57072 0.00444 0.43603 0.05300
C 	C 	0.51231 0.02647 0.48946 0.00200
N 	N 	0.47003 0.97217 0.52844 -0.19200
H 	H 	0.47707 0.91542 0.49563 0.03900
C 	C 	0.47375 0.04294 0.47268 -0.09900
C 	C 	0.45974 0.07403 0.48473 0.12800
C 	C 	0.48386 0.08835 0.51495 -0.11700
C 	C 	0.52453 0.07292 0.53007 -0.02400
C 	C 	0.53934 0.04212 0.51738 0.05400
H 	H 	0.45409 0.03127 0.45053 0.05600
N 	N 	0.42372 0.09020 0.46688 -0.20400
H 	H 	0.54382 0.08442 0.55252 0.03200
N 	N 	0.57889 0.02754 0.53244 -0.19200
H 	H 	0.40489 0.07894 0.44548 0.08300
H 	H 	0.41544 0.11446 0.47297 0.09200
H 	H 	0.59795 0.03895 0.55361 0.07800
H 	H 	0.59165 0.00511 0.52287 0.08400
H 	H 	0.45072 0.95329 0.54099 0.08000
H 	H 	0.46933 0.99515 0.54078 0.08700
H 	H 	0.58671 0.92305 0.39586 0.08000
H 	H 	0.60169 0.96553 0.39325 0.08000
C 	C 	0.66672 0.70518 0.97520 -0.11500
C 	C 	0.71216 0.68916 0.97689 0.13100
C 	C 	0.75245 0.70588 0.99097 -0.10200
C 	C 	0.74721 0.73699 0.00651 0.00100
C 	C 	0.70083 0.75172 0.00799 0.05400
C 	C 	0.66118 0.73589 0.99167 -0.02500
N 	N 	0.71681 0.65738 0.96668 -0.20300
H 	H 	0.78777 0.69430 0.99074 0.05500
C 	C 	0.79086 0.75434 0.01998 -0.00100
N 	N 	0.69408 0.78086 0.02514 -0.19200
H 	H 	0.62607 0.74777 0.99127 0.02800
C 	C 	0.81133 0.77896 0.99825 -0.09700
C 	C 	0.85331 0.79543 0.00966 0.12100
C 	C 	0.87723 0.78533 0.04209 -0.11000
C 	C 	0.85636 0.76099 0.06410 -0.02200
C 	C 	0.81281 0.74584 0.05374 0.05600
H 	H 	0.79393 0.78581 0.97273 0.05300
N 	N 	0.86947 0.82150 0.99006 -0.20300
H 	H 	0.87424 0.75358 0.08922 0.04200
N 	N 	0.79217 0.72342 0.07639 -0.19200
H 	H 	0.85291 0.82784 0.96530 0.07900
H 	H 	0.89673 0.83674 0.00007 0.07900
H 	H 	0.80924 0.71675 0.10084 0.07800
H 	H 	0.75853 0.71304 0.07054 0.08500
H 	H 	0.65996 0.79192 0.02530 0.07700
H 	H 	0.72212 0.79238 0.03932 0.08500
H 	H 	0.68649 0.64273 0.96203 0.10100
H 	H 	0.75094 0.64637 0.96589 0.08300
C 	C 	0.17164 0.80760 0.00690 -0.11400
C 	C 	0.19037 0.82460 0.97615 0.13000
C 	C 	0.22995 0.81152 0.95700 -0.10100
C 	C 	0.25355 0.78343 0.96972 0.00100
C 	C 	0.23593 0.76711 0.00126 0.05600
C 	C 	0.19457 0.77909 0.01912 -0.02300
N 	N 	0.17210 0.85409 0.96595 -0.20500
H 	H 	0.24390 0.82413 0.93309 0.05500
C 	C 	0.29883 0.77290 0.95149 0.00000
N 	N 	0.25872 0.74020 0.01472 -0.19200
H 	H 	0.18054 0.76640 0.04295 0.03200
C 	C 	0.34209 0.78921 0.95978 -0.10000
C 	C 	0.38636 0.77815 0.94561 0.12800
C 	C 	0.38757 0.74897 0.92487 -0.11200
C 	C 	0.34403 0.73407 0.91431 -0.02600
C 	C 	0.29943 0.74607 0.92701 0.05700
H 	H 	0.34126 0.81061 0.97728 0.05500
N 	N 	0.42717 0.79612 0.95094 -0.20300
H 	H 	0.34492 0.71242 0.89720 0.03900
N 	N 	0.25756 0.73155 0.91603 -0.19200
H 	H 	0.42645 0.81679 0.96773 0.08000
H 	H 	0.45915 0.79090 0.93682 0.09000
H 	H 	0.25845 0.71125 0.89869 0.07900
H 	H 	0.22379 0.74067 0.92383 0.08500
H 	H 	0.24528 0.72830 0.03793 0.07800
H 	H 	0.29011 0.73096 0.00262 0.08500
H 	H 	0.14800 0.86690 0.98263 0.10000
H 	H 	0.18436 0.86551 0.94207 0.08200
C 	C 	0.99944 0.08786 0.95234 -0.12400
C 	C 	0.96119 0.06471 0.95102 0.12600
C 	C 	0.96689 0.03444 0.96847 -0.11100
C 	C 	0.01062 0.02619 0.98556 0.01200
C 	C 	0.04927 0.04890 0.98611 0.05100
C 	C 	0.04330 0.07949 0.96934 -0.01400
N 	N 	0.91977 0.07083 0.93200 -0.20300
H 	H 	0.93761 0.01680 0.96779 0.05500
C 	C 	0.01638 0.99293 0.00080 -0.00200
N 	N 	0.09187 0.04168 0.00304 -0.19100
H 	H 	0.07259 0.09712 0.97021 0.03700
C 	C 	0.03507 0.96827 0.97826 -0.09700
C 	C 	0.03937 0.93614 0.99116 0.12600
C 	C 	0.02518 0.92874 0.02751 -0.11700
C 	C 	0.00585 0.95328 0.04991 -0.01500
C 	C 	0.00143 0.98543 0.03697 0.06000
H 	H 	0.04598 0.97407 0.95046 0.05500
N 	N 	0.05676 0.91252 0.96846 -0.20400
H 	H 	0.99507 0.94748 0.07775 0.02100
N 	N 	0.98340 0.00896 0.05949 -0.19600
H 	H 	0.06834 0.91839 0.94199 0.08100
H 	H 	0.05800 0.88808 0.97647 0.08300
H 	H 	0.97217 0.00312 0.08606 0.07600
H 	H 	0.98072 0.03325 0.05109 0.08200
H 	H 	0.12033 0.05850 0.00303 0.08000
H 	H 	0.09704 0.01957 0.01671 0.08600
H 	H 	0.91667 0.09087 0.91460 0.07800
H 	H 	0.89094 0.05431 0.93287 0.07900
C 	C 	0.17504 0.81729 0.17889 -0.12400
C 	C 	0.21860 0.80624 0.16263 0.13200
C 	C 	0.26104 0.80489 0.18380 -0.10200
C 	C 	0.26001 0.81277 0.22119 0.00200
C 	C 	0.21542 0.82064 0.23819 0.05400
C 	C 	0.17333 0.82296 0.21678 -0.02100
N 	N 	0.21962 0.79614 0.12713 -0.20400
H 	H 	0.29500 0.79790 0.17109 0.05500
C 	C 	0.30632 0.81602 0.24129 0.00000
N 	N 	0.21287 0.82637 0.27488 -0.19200
H 	H 	0.13956 0.83044 0.22942 0.01900
C 	C 	0.32968 0.84637 0.24160 -0.09700
C 	C 	0.37141 0.85131 0.26281 0.12200
C 	C 	0.38910 0.82558 0.28499 -0.12100
C 	C 	0.36723 0.79474 0.28328 -0.01900
C 	C 	0.32603 0.78960 0.26142 0.05400
H 	H 	0.31511 0.86631 0.22545 0.05500
N 	N 	0.39470 0.88055 0.26132 -0.20200
H 	H 	0.38156 0.77489 0.29969 0.03600
N 	N 	0.30529 0.75949 0.26027 -0.19200
H 	H 	0.38046 0.89974 0.24583 0.07800
H 	H 	0.42797 0.88416 0.27430 0.06400
H 	H 	0.31966 0.74029 0.27567 0.07900
H 	H 	0.27520 0.75470 0.24381 0.08400
H 	H 	0.17997 0.83286 0.28704 0.07700
H 	H 	0.24312 0.82383 0.29180 0.08800
H 	H 	0.18775 0.79311 0.11210 0.09700
H 	H 	0.25233 0.78946 0.11480 0.08500
C 	C 	0.67481 0.85972 0.29475 -0.10900
C 	C 	0.68667 0.83809 0.26582 0.11700
C 	C 	0.73042 0.84220 0.24685 -0.09500
C 	C 	0.76295 0.86691 0.25679 -0.00100
C 	C 	0.75117 0.88855 0.28573 0.05600
C 	C 	0.70719 0.88459 0.30456 -0.02100
N 	N 	0.65675 0.81297 0.25664 -0.20200
H 	H 	0.73969 0.82566 0.22472 0.05400
C 	C 	0.81005 0.86895 0.23758 0.00200
N 	N 	0.78183 0.91303 0.29558 -0.19200
H 	H 	0.69789 0.90119 0.32664 0.04100
C 	C 	0.81325 0.88709 0.20508 -0.10100
C 	C 	0.85609 0.88715 0.18432 0.13000
C 	C 	0.89550 0.86742 0.19554 -0.11700
C 	C 	0.89305 0.85049 0.22887 -0.02400
C 	C 	0.85071 0.85109 0.25012 0.05500
H 	H 	0.78235 0.90128 0.19598 0.05500
N 	N 	0.85962 0.90685 0.15443 -0.20300
H 	H 	0.92379 0.83607 0.23785 0.02300
N 	N 	0.84924 0.83434 0.28232 -0.19200
H 	H 	0.82969 0.92031 0.14551 0.08100
H 	H 	0.89254 0.91027 0.14089 0.09000
H 	H 	0.87924 0.82087 0.29106 0.07600
H 	H 	0.81876 0.83485 0.29922 0.08700
H 	H 	0.77298 0.92869 0.31718 0.07900
H 	H 	0.81449 0.91693 0.28185 0.08400
H 	H 	0.62536 0.80796 0.27155 0.06000
H 	H 	0.66540 0.79756 0.23477 0.07600
