data_crystal

_cell_length_a 32.48142
_cell_length_b 32.89850
_cell_length_c 27.04631
_cell_angle_alpha 90.00043
_cell_angle_beta  89.99958
_cell_angle_gamma 90.00402

_symmetry_space_group_name_	'P 1'
_symmetry_space_group_name_H-M	'P 1'

loop_
_symmetry_equiv_pos_as_xyz
  x,y,z

loop_
_atom_site_label
_atom_site_type_symbol
_atom_site_fract_x
_atom_site_fract_y
_atom_site_fract_z
_atom_site_charge
Zn	Zn	0.60754 0.07473 0.73955 1.21000
Zn	Zn	0.55061 0.02367 0.66961 1.22100
Zn	Zn	0.56784 0.14993 0.68758 1.22400
P 	P 	0.51965 0.08667 0.73942 0.31400
P 	P 	0.60728 0.08520 0.63169 0.31400
C 	C 	0.54626 0.21488 0.62554 0.29000
C 	C 	0.62778 0.15501 0.76718 0.30500
C 	C 	0.61344 0.98885 0.73600 0.31300
O 	O 	0.55417 0.06228 0.76823 -0.42300
O 	O 	0.63421 0.09281 0.67958 -0.43500
O 	O 	0.51504 0.06980 0.68432 -0.41900
O 	O 	0.56668 0.11235 0.63303 -0.42700
O 	O 	0.53066 0.13405 0.73944 -0.41500
O 	O 	0.59623 0.03807 0.62679 -0.40000
O 	O 	0.55134 0.20447 0.67195 -0.40300
O 	O 	0.46029 0.00119 0.66049 -0.22300
O 	O 	0.56731 0.19634 0.59088 -0.23300
O 	O 	0.62212 0.16195 0.71961 -0.42400
O 	O 	0.57354 0.99087 0.72651 -0.41500
O 	O 	0.62508 0.11780 0.78470 -0.41300
O 	O 	0.63449 0.02242 0.74370 -0.42800
C 	C 	0.48311 0.98349 0.62670 0.28400
O 	O 	0.52313 0.98106 0.63315 -0.39200
Zn	Zn	0.34718 0.88343 0.26320 1.20300
Zn	Zn	0.40744 0.92181 0.33920 1.21700
Zn	Zn	0.41566 0.90089 0.18520 1.22200
P 	P 	0.43004 0.85174 0.27477 0.31200
P 	P 	0.38459 0.96524 0.24948 0.31100
C 	C 	0.46498 0.93741 0.11207 0.28700
C 	C 	0.33564 0.86544 0.16112 0.30800
C 	C 	0.32250 0.89206 0.36282 0.31300
O 	O 	0.38482 0.84434 0.29469 -0.41900
O 	O 	0.34537 0.93869 0.23559 -0.43200
O 	O 	0.44598 0.89468 0.29475 -0.43100
O 	O 	0.42581 0.94411 0.23072 -0.43100
O 	O 	0.42954 0.84943 0.21553 -0.40800
O 	O 	0.38574 0.97127 0.30826 -0.39100
O 	O 	0.44762 0.90296 0.12504 -0.40000
O 	O 	0.36987 0.96105 0.43003 -0.23200
O 	O 	0.45108 0.97177 0.13017 -0.23600
O 	O 	0.35900 0.89793 0.15547 -0.42700
O 	O 	0.36238 0.88726 0.37072 -0.41400
O 	O 	0.32916 0.85087 0.20581 -0.41500
O 	O 	0.30808 0.89204 0.31740 -0.41900
C 	C 	0.40893 0.95284 0.43746 0.29700
O 	O 	0.43187 0.93968 0.40082 -0.40500
Zn	Zn	0.69141 0.90646 0.97438 1.20300
Zn	Zn	0.74312 0.83535 0.93356 1.22000
Zn	Zn	0.61489 0.85851 0.93816 1.22100
P 	P 	0.67624 0.82330 0.00528 0.30800
P 	P 	0.68333 0.87869 0.87184 0.31400
C 	C 	0.54078 0.84726 0.88618 0.29000
C 	C 	0.61063 0.93424 0.99198 0.30700
C 	C 	0.77772 0.90939 0.98162 0.31200
O 	O 	0.70124 0.86224 0.02240 -0.43100
O 	O 	0.67529 0.91702 0.90596 -0.42600
O 	O 	0.69436 0.80654 0.95445 -0.42500
O 	O 	0.65380 0.84214 0.88774 -0.43000
O 	O 	0.62861 0.83504 0.00120 -0.41300
O 	O 	0.73088 0.86640 0.87497 -0.40400
O 	O 	0.55892 0.84222 0.92896 -0.40700
O 	O 	0.74239 0.75704 0.88019 -0.22400
O 	O 	0.55051 0.87845 0.85834 -0.22700
O 	O 	0.60494 0.91797 0.94804 -0.41800
O 	O 	0.77424 0.86935 0.98398 -0.42000
O 	O 	0.64802 0.93560 0.01048 -0.41900
O 	O 	0.74540 0.93141 0.97031 -0.43400
C 	C 	0.78024 0.77096 0.88269 0.28500
O 	O 	0.78828 0.80198 0.91160 -0.39800
Zn	Zn	0.88462 0.63311 0.53101 1.20400
Zn	Zn	0.85200 0.69435 0.60991 1.21800
Zn	Zn	0.87291 0.70483 0.45707 1.22200
P 	P 	0.92501 0.71110 0.54622 0.31300
P 	P 	0.80564 0.67785 0.51997 0.31200
C 	C 	0.84062 0.74616 0.37415 0.29000
C 	C 	0.89959 0.62317 0.42794 0.30900
C 	C 	0.87132 0.60779 0.62960 0.30600
O 	O 	0.92778 0.66519 0.56370 -0.41900
O 	O 	0.82928 0.63787 0.50359 -0.42800
O 	O 	0.88389 0.73119 0.56793 -0.42700
O 	O 	0.83005 0.71751 0.50305 -0.44100
O 	O 	0.92640 0.71230 0.48701 -0.41100
O 	O 	0.80022 0.67773 0.57873 -0.39300
O 	O 	0.87454 0.73816 0.39860 -0.40500
O 	O 	0.90204 0.72454 0.69502 -0.23100
O 	O 	0.80746 0.72430 0.38186 -0.23400
O 	O 	0.86974 0.65016 0.42409 -0.42100
O 	O 	0.88187 0.64579 0.63873 -0.42000
O 	O 	0.91459 0.61390 0.47185 -0.41400
O 	O 	0.87114 0.59436 0.58378 -0.41300
C 	C 	0.86268 0.72702 0.70566 0.29100
O 	O 	0.83505 0.71653 0.67263 -0.40300
Zn	Zn	0.14559 0.17859 0.76265 1.20300
Zn	Zn	0.07869 0.14383 0.82954 1.21600
Zn	Zn	0.08441 0.17189 0.67683 1.22000
P 	P 	0.06496 0.21680 0.76802 0.31000
P 	P 	0.10468 0.10162 0.73938 0.31000
C 	C 	0.03633 0.14370 0.59715 0.28400
C 	C 	0.17066 0.20163 0.66707 0.31500
C 	C 	0.16335 0.16592 0.86268 0.31800
O 	O 	0.10932 0.22025 0.79209 -0.42000
O 	O 	0.14630 0.12546 0.72950 -0.43200
O 	O 	0.04512 0.17415 0.78294 -0.43500
O 	O 	0.06706 0.12652 0.71685 -0.42500
O 	O 	0.06925 0.22217 0.70930 -0.40200
O 	O 	0.09949 0.09470 0.79777 -0.39600
O 	O 	0.05812 0.17478 0.61283 -0.39100
O 	O 	0.10804 0.09576 0.91722 -0.23300
O 	O 	0.04258 0.10751 0.61621 -0.23200
O 	O 	0.14351 0.17405 0.65283 -0.41700
O 	O 	0.12368 0.17377 0.86758 -0.41700
O 	O 	0.17285 0.21225 0.71374 -0.42900
O 	O 	0.17978 0.16384 0.81858 -0.42500
C 	C 	0.07010 0.10830 0.92416 0.29600
O 	O 	0.04977 0.12530 0.88767 -0.40800
Zn	Zn	0.88575 0.97257 0.23901 1.20500
Zn	Zn	0.94171 0.02838 0.17344 1.22100
Zn	Zn	0.94155 0.90290 0.19632 1.22500
P 	P 	0.97647 0.97397 0.24596 0.31500
P 	P 	0.89451 0.95759 0.13426 0.31100
C 	C 	0.00423 0.85672 0.15211 0.28500
C 	C 	0.87595 0.88919 0.26821 0.30900
C 	C 	0.87242 0.05887 0.23583 0.31300
O 	O 	0.93618 0.96217 0.27581 -0.43300
O 	O 	0.86547 0.98063 0.17200 -0.42800
O 	O 	0.97459 0.02110 0.23198 -0.39900
O 	O 	0.89837 0.91104 0.15055 -0.42600
O 	O 	0.98049 0.94768 0.19682 -0.41900
O 	O 	0.93835 0.97934 0.13151 -0.40600
O 	O 	0.97582 0.85604 0.18661 -0.40200
O 	O 	0.02407 0.03412 0.13075 -0.22400
O 	O 	0.00647 0.88757 0.12145 -0.22300
O 	O 	0.91606 0.88764 0.26092 -0.42100
O 	O 	0.88818 0.05631 0.19086 -0.41300
O 	O 	0.85581 0.92365 0.26202 -0.41700
O 	O 	0.86912 0.02622 0.26388 -0.42300
C 	C 	0.00004 0.06075 0.10897 0.28300
O 	O 	0.96286 0.06718 0.12636 -0.38900
Zn	Zn	0.09654 0.91331 0.51558 1.20300
Zn	Zn	0.13959 0.86946 0.60288 1.21800
Zn	Zn	0.12335 0.83811 0.45351 1.22200
P 	P 	0.07229 0.83149 0.54352 0.31100
P 	P 	0.18334 0.88491 0.51026 0.31300
C 	C 	0.16270 0.77366 0.40335 0.28700
C 	C 	0.07935 0.90924 0.41229 0.31000
C 	C 	0.10419 0.95184 0.60823 0.30700
O 	O 	0.05929 0.87731 0.55284 -0.41900
O 	O 	0.15185 0.91667 0.48748 -0.43300
O 	O 	0.11664 0.82322 0.56710 -0.42400
O 	O 	0.16752 0.83986 0.50057 -0.43200
O 	O 	0.07216 0.82349 0.48511 -0.41400
O 	O 	0.18768 0.89233 0.56857 -0.38900
O 	O 	0.13019 0.79741 0.40280 -0.39900
O 	O 	0.17288 0.79225 0.64635 -0.22300
O 	O 	0.19450 0.78325 0.43089 -0.23000
O 	O 	0.11369 0.88761 0.41050 -0.41500
O 	O 	0.10052 0.91405 0.62384 -0.42600
O 	O 	0.06382 0.92036 0.45523 -0.42500
O 	O 	0.10142 0.95981 0.56077 -0.41600
C 	C 	0.16586 0.81913 0.68125 0.28400
O 	O 	0.15749 0.85687 0.66913 -0.40200
Zn	Zn	0.30306 0.65204 0.99995 1.20600
Zn	Zn	0.25113 0.70960 0.93546 1.21600
Zn	Zn	0.37813 0.69262 0.95057 1.22200
P 	P 	0.31641 0.73873 0.00581 0.31300
P 	P 	0.31287 0.65648 0.89322 0.31300
C 	C 	0.43945 0.71202 0.88201 0.28900
C 	C 	0.38389 0.62680 0.02339 0.31100
C 	C 	0.21675 0.65092 0.01047 0.31400
O 	O 	0.29216 0.70354 0.03269 -0.43400
O 	O 	0.31963 0.62707 0.93871 -0.43700
O 	O 	0.29784 0.74511 0.95171 -0.41100
O 	O 	0.33770 0.69760 0.89991 -0.43600
O 	O 	0.36454 0.72796 0.00496 -0.41000
O 	O 	0.26479 0.66565 0.88907 -0.39000
O 	O 	0.43235 0.70784 0.92954 -0.40200
O 	O 	0.26448 0.77033 0.86200 -0.22400
O 	O 	0.41565 0.69350 0.84994 -0.23100
O 	O 	0.39066 0.63687 0.97688 -0.42700
O 	O 	0.21677 0.68881 0.99363 -0.41700
O 	O 	0.34712 0.63193 0.04292 -0.42000
O 	O 	0.24891 0.62739 0.00371 -0.43100
C 	C 	0.22452 0.76500 0.86559 0.28100
O 	O 	0.21008 0.73902 0.89823 -0.39900
Zn	Zn	0.19564 0.39066 0.47263 1.20300
Zn	Zn	0.24290 0.32423 0.41706 1.22100
Zn	Zn	0.12179 0.33058 0.47325 1.22300
P 	P 	0.20265 0.30805 0.51110 0.31000
P 	P 	0.16339 0.35548 0.38135 0.31100
C 	C 	0.06364 0.27298 0.50933 0.29300
C 	C 	0.12144 0.41036 0.52007 0.30600
C 	C 	0.27887 0.40286 0.45177 0.31400
O 	O 	0.22373 0.35127 0.51568 -0.42500
O 	O 	0.15956 0.39458 0.41516 -0.42800
O 	O 	0.20766 0.29034 0.45659 -0.43300
O 	O 	0.14558 0.31644 0.40946 -0.41600
O 	O 	0.15561 0.31251 0.52690 -0.40200
O 	O 	0.21074 0.35029 0.36571 -0.40800
O 	O 	0.06859 0.30918 0.48979 -0.39800
O 	O 	0.23802 0.25222 0.35225 -0.22800
O 	O 	0.09515 0.25419 0.52939 -0.22300
O 	O 	0.10644 0.38902 0.48311 -0.42500
O 	O 	0.28128 0.36279 0.45299 -0.41500
O 	O 	0.16124 0.41717 0.52284 -0.41500
O 	O 	0.24271 0.42001 0.44594 -0.43700
C 	C 	0.27612 0.26556 0.35333 0.28900
O 	O 	0.28555 0.29650 0.38160 -0.40400
Zn	Zn	0.39194 0.13183 0.00256 1.20100
Zn	Zn	0.35591 0.18556 0.08690 1.22000
Zn	Zn	0.37052 0.20630 0.93511 1.22100
P 	P 	0.42393 0.21391 0.02242 0.31400
P 	P 	0.30845 0.16752 0.99824 0.31400
C 	C 	0.32839 0.25905 0.87002 0.29000
C 	C 	0.40667 0.12928 0.89805 0.30400
C 	C 	0.38530 0.10199 0.10093 0.30400
O 	O 	0.43230 0.16756 0.03525 -0.42100
O 	O 	0.33580 0.13188 0.97632 -0.42800
O 	O 	0.38119 0.22772 0.04652 -0.43200
O 	O 	0.32752 0.21053 0.98375 -0.43800
O 	O 	0.42368 0.21919 0.96356 -0.40900
O 	O 	0.30621 0.16316 0.05699 -0.39700
O 	O 	0.36486 0.24416 0.88073 -0.40000
O 	O 	0.40442 0.21376 0.17370 -0.22800
O 	O 	0.29560 0.24440 0.89199 -0.23500
O 	O 	0.37417 0.15342 0.89677 -0.41300
O 	O 	0.39259 0.14044 0.11125 -0.41900
O 	O 	0.42241 0.11851 0.94120 -0.42000
O 	O 	0.38442 0.08990 0.05448 -0.41200
C 	C 	0.36498 0.21387 0.18432 0.29200
O 	O 	0.33794 0.20281 0.15096 -0.40700
Zn	Zn	0.64722 0.68058 0.27021 1.20200
Zn	Zn	0.58564 0.64450 0.34541 1.21700
Zn	Zn	0.58088 0.66364 0.19215 1.22200
P 	P 	0.56404 0.71361 0.27958 0.31100
P 	P 	0.60986 0.59920 0.25717 0.31300
C 	C 	0.53872 0.62302 0.11744 0.28600
C 	C 	0.66076 0.70018 0.16991 0.30900
C 	C 	0.66943 0.67389 0.37037 0.31000
O 	O 	0.60928 0.72067 0.29974 -0.41900
O 	O 	0.64917 0.62508 0.24192 -0.42100
O 	O 	0.54713 0.67131 0.30062 -0.42500
O 	O 	0.56928 0.62135 0.23851 -0.44200
O 	O 	0.56494 0.71511 0.22033 -0.40700
O 	O 	0.60895 0.59497 0.31611 -0.39200
O 	O 	0.55062 0.65930 0.13156 -0.40200
O 	O 	0.53510 0.57099 0.37319 -0.22600
O 	O 	0.56272 0.59161 0.12530 -0.23400
O 	O 	0.63804 0.66734 0.16365 -0.42500
O 	O 	0.62962 0.67974 0.37661 -0.42300
O 	O 	0.66731 0.71373 0.21488 -0.41700
O 	O 	0.68487 0.67191 0.32557 -0.41800
C 	C 	0.54283 0.59321 0.41243 0.29200
O 	O 	0.56315 0.62743 0.40796 -0.40700
Zn	Zn	0.36454 0.47201 0.71688 1.20700
Zn	Zn	0.44353 0.50795 0.66778 1.22300
Zn	Zn	0.39699 0.38853 0.67743 1.22100
P 	P 	0.44814 0.44080 0.74079 0.31600
P 	P 	0.38182 0.45966 0.61424 0.31300
C 	C 	0.40932 0.32051 0.61655 0.28700
C 	C 	0.32768 0.39917 0.74500 0.29900
C 	C 	0.38410 0.55495 0.72915 0.31400
O 	O 	0.41311 0.47075 0.75930 -0.43400
O 	O 	0.34476 0.45652 0.65190 -0.42500
O 	O 	0.46658 0.45605 0.68919 -0.40800
O 	O 	0.41493 0.42524 0.62582 -0.43300
O 	O 	0.43014 0.39570 0.73560 -0.41500
O 	O 	0.40153 0.50390 0.61764 -0.41300
O 	O 	0.40243 0.33170 0.66234 -0.40300
O 	O 	0.51790 0.48896 0.60843 -0.21800
O 	O 	0.39179 0.34032 0.58010 -0.22900
O 	O 	0.33782 0.38869 0.69946 -0.42200
O 	O 	0.42319 0.54566 0.72104 -0.41200
O 	O 	0.32946 0.43758 0.75791 -0.40700
O 	O 	0.35466 0.53039 0.71426 -0.43000
C 	C 	0.50820 0.52753 0.60411 0.28400
O 	O 	0.48187 0.54365 0.63529 -0.39400
Zn	Zn	0.80964 0.17475 0.46333 1.20700
Zn	Zn	0.74300 0.23049 0.42014 1.21600
Zn	Zn	0.87168 0.22657 0.40140 1.21700
P 	P 	0.81589 0.26315 0.47496 0.31400
P 	P 	0.80126 0.18456 0.35856 0.31300
C 	C 	0.95576 0.23979 0.36883 0.29500
C 	C 	0.89512 0.16142 0.47157 0.31000
C 	C 	0.72574 0.16251 0.48836 0.31200
O 	O 	0.80090 0.22346 0.50309 -0.43800
O 	O 	0.82072 0.15478 0.39787 -0.43400
O 	O 	0.78731 0.27060 0.42762 -0.41200
O 	O 	0.82265 0.22778 0.36214 -0.45100
O 	O 	0.86354 0.25915 0.46003 -0.41800
O 	O 	0.75318 0.18928 0.36918 -0.40100
O 	O 	0.91676 0.24858 0.36249 -0.40200
O 	O 	0.71497 0.31825 0.40534 -0.21900
O 	O 	0.98152 0.24606 0.33217 -0.17900
O 	O 	0.89563 0.17274 0.42451 -0.42400
O 	O 	0.72288 0.20233 0.48232 -0.41900
O 	O 	0.86000 0.15735 0.49521 -0.42400
O 	O 	0.75977 0.14357 0.47576 -0.43100
C 	C 	0.69064 0.29177 0.38377 0.28300
O 	O 	0.69159 0.25362 0.39800 -0.39600
Zn	Zn	0.58970 0.42734 0.01868 1.20200
Zn	Zn	0.63458 0.37422 0.09800 1.21700
Zn	Zn	0.60965 0.35596 0.94648 1.22300
P 	P 	0.56329 0.34329 0.03872 0.31600
P 	P 	0.67422 0.39462 0.00409 0.31200
C 	C 	0.64647 0.29949 0.88263 0.28800
C 	C 	0.56367 0.42891 0.91832 0.30600
C 	C 	0.60283 0.45716 0.11575 0.30400
O 	O 	0.55281 0.38884 0.05372 -0.41200
O 	O 	0.64415 0.42986 0.98646 -0.42700
O 	O 	0.60787 0.33149 0.05945 -0.42300
O 	O 	0.65458 0.35168 0.99165 -0.44100
O 	O 	0.56053 0.33899 0.97981 -0.41500
O 	O 	0.68156 0.39812 0.06254 -0.39900
O 	O 	0.61328 0.32155 0.88935 -0.40600
O 	O 	0.59083 0.33727 0.18227 -0.23000
O 	O 	0.67942 0.30670 0.90926 -0.23300
O 	O 	0.59854 0.40905 0.91170 -0.42300
O 	O 	0.59835 0.41835 0.12674 -0.41800
O 	O 	0.55332 0.44147 0.96284 -0.41200
O 	O 	0.59925 0.46916 0.06959 -0.41400
C 	C 	0.63015 0.33990 0.19306 0.28800
O 	O 	0.65584 0.35592 0.16095 -0.40000
Zn	Zn	0.10212 0.55233 0.26791 1.20800
Zn	Zn	0.03710 0.52142 0.19103 1.21800
Zn	Zn	0.07857 0.63871 0.22733 1.22600
P 	P 	0.01893 0.58186 0.27132 0.30800
P 	P 	0.10275 0.57474 0.16089 0.31300
C 	C 	0.09451 0.71337 0.18133 0.29200
C 	C 	0.13973 0.62449 0.30211 0.30400
C 	C 	0.09008 0.46802 0.25362 0.31300
O 	O 	0.04706 0.54806 0.29580 -0.43100
O 	O 	0.13075 0.56843 0.20834 -0.43900
O 	O 	0.01057 0.57127 0.21444 -0.41100
O 	O 	0.06751 0.60750 0.16973 -0.43200
O 	O 	0.03982 0.62560 0.27853 -0.41100
O 	O 	0.08315 0.53199 0.14633 -0.39000
O 	O 	0.07649 0.69650 0.21955 -0.40300
O 	O 	0.97367 0.54639 0.12058 -0.22000
O 	O 	0.12182 0.69275 0.15585 -0.23600
O 	O 	0.13495 0.63459 0.25545 -0.43100
O 	O 	0.05198 0.47914 0.24270 -0.42900
O 	O 	0.12893 0.58795 0.31709 -0.41000
O 	O 	0.11777 0.49559 0.26512 -0.42500
C 	C 	0.97894 0.50691 0.11724 0.28600
O 	O 	0.00237 0.48834 0.14972 -0.40300
Zn	Zn	0.84397 0.37673 0.75743 1.20100
Zn	Zn	0.89331 0.41265 0.84693 1.22000
Zn	Zn	0.91696 0.40756 0.69357 1.22200
P 	P 	0.92893 0.35179 0.77730 0.31100
P 	P 	0.87316 0.46197 0.76087 0.31100
C 	C 	0.99029 0.43815 0.65467 0.28400
C 	C 	0.84259 0.36786 0.65200 0.30700
C 	C 	0.81074 0.37705 0.85412 0.30600
O 	O 	0.88302 0.33796 0.78829 -0.41400
O 	O 	0.83895 0.43383 0.73656 -0.43500
O 	O 	0.93834 0.39361 0.80532 -0.41800
O 	O 	0.91771 0.44655 0.74584 -0.42900
O 	O 	0.93396 0.35547 0.71856 -0.41200
O 	O 	0.86798 0.46167 0.81972 -0.39800
O 	O 	0.95637 0.41890 0.64219 -0.39900
O 	O 	0.96275 0.46238 0.88714 -0.22300
O 	O 	0.99424 0.45254 0.69967 -0.22700
O 	O 	0.86496 0.40152 0.65258 -0.42100
O 	O 	0.84981 0.37189 0.86560 -0.42400
O 	O 	0.83437 0.34876 0.69376 -0.41700
O 	O 	0.79958 0.37799 0.80739 -0.41300
C 	C 	0.94043 0.44797 0.92363 0.28900
O 	O 	0.90734 0.42659 0.91399 -0.40600
C 	C 	0.96720 0.48593 0.07142 -0.06000
C 	C 	0.92703 0.48965 0.05236 0.06700
C 	C 	0.91859 0.47684 0.00413 -0.01800
C 	C 	0.94968 0.45957 0.97491 -0.06200
C 	C 	0.98907 0.45304 0.99529 0.06800
C 	C 	0.99770 0.46657 0.04322 -0.01900
H 	H 	0.88786 0.48062 0.98918 0.06500
H 	H 	0.02849 0.46303 0.05805 0.06600
I 	I 	0.87804 0.51254 0.09637 -0.05300
I 	I 	0.03537 0.42076 0.95598 -0.05800
C 	C 	0.77989 0.38264 0.89372 -0.07900
C 	C 	0.77289 0.35200 0.92911 0.08500
C 	C 	0.74516 0.35879 0.96793 -0.03900
C 	C 	0.72267 0.39515 0.97070 -0.02500
C 	C 	0.73300 0.42738 0.93851 0.05100
C 	C 	0.76035 0.42044 0.89914 -0.01400
H 	H 	0.73875 0.33448 0.99382 0.07700
H 	H 	0.76778 0.44506 0.87404 0.05700
I 	I 	0.80068 0.29383 0.92267 -0.04500
I 	I 	0.71636 0.48836 0.95483 -0.05200
C 	C 	0.81234 0.30527 0.51791 -0.02000
C 	C 	0.84197 0.33661 0.51719 0.05700
C 	C 	0.85120 0.35769 0.56088 -0.01500
C 	C 	0.82804 0.35090 0.60400 -0.07400
C 	C 	0.79270 0.32587 0.60115 0.08200
C 	C 	0.78603 0.30203 0.55885 -0.04200
H 	H 	0.87633 0.37935 0.56117 0.06600
H 	H 	0.76072 0.28060 0.55816 0.07200
I 	I 	0.86812 0.35732 0.44975 -0.05900
I 	I 	0.74527 0.32884 0.65509 -0.06500
C 	C 	0.67192 0.30206 0.33587 -0.06200
C 	C 	0.64546 0.33577 0.33112 0.06900
C 	C 	0.63222 0.34803 0.28416 -0.02000
C 	C 	0.64490 0.32682 0.24184 -0.06100
C 	C 	0.67015 0.29227 0.24672 0.07000
C 	C 	0.68353 0.28010 0.29360 -0.02200
H 	H 	0.61200 0.37407 0.28058 0.06700
H 	H 	0.70371 0.25401 0.29710 0.06100
I 	I 	0.62312 0.36727 0.39423 -0.05000
I 	I 	0.68754 0.25709 0.18422 -0.06900
C 	C 	0.48489 0.43735 0.79127 -0.01600
C 	C 	0.52027 0.46248 0.79491 0.05200
C 	C 	0.54580 0.45950 0.83680 -0.00500
C 	C 	0.53497 0.43421 0.87653 -0.07800
C 	C 	0.49839 0.41142 0.87404 0.07600
C 	C 	0.47516 0.41134 0.83069 -0.03900
H 	H 	0.57375 0.47743 0.83874 0.06500
H 	H 	0.44834 0.39194 0.82839 0.07500
I 	I 	0.53626 0.50609 0.74032 -0.08000
I 	I 	0.47540 0.37882 0.93596 -0.07400
C 	C 	0.60470 0.48763 0.15581 -0.07300
C 	C 	0.56844 0.50338 0.17683 0.08700
C 	C 	0.57088 0.53318 0.21371 -0.04100
C 	C 	0.60910 0.54965 0.22757 -0.01900
C 	C 	0.64551 0.53118 0.21000 0.05400
C 	C 	0.64309 0.50075 0.17359 -0.01200
H 	H 	0.54277 0.54571 0.22894 0.08000
H 	H 	0.67108 0.48712 0.15943 0.05500
I 	I 	0.50952 0.48561 0.15055 -0.05400
I 	I 	0.70356 0.54309 0.24315 -0.04900
C 	C 	0.51710 0.54854 0.55755 -0.06000
C 	C 	0.55799 0.55541 0.54253 0.06700
C 	C 	0.56602 0.56982 0.49485 -0.01700
C 	C 	0.53356 0.57746 0.46191 -0.06400
C 	C 	0.49260 0.57186 0.47748 0.06900
C 	C 	0.48459 0.55746 0.52516 -0.02300
H 	H 	0.59754 0.57502 0.48333 0.06100
H 	H 	0.45306 0.55219 0.53665 0.06500
I 	I 	0.60810 0.54575 0.59164 -0.04800
I 	I 	0.44217 0.58600 0.43047 -0.06100
C 	C 	0.46488 0.24636 0.04574 -0.02400
C 	C 	0.50684 0.23559 0.04055 0.06400
C 	C 	0.53750 0.26428 0.05109 -0.03400
C 	C 	0.52727 0.30501 0.06027 -0.02100
C 	C 	0.48580 0.31474 0.07057 0.06300
C 	C 	0.45495 0.28540 0.06317 -0.03300
H 	H 	0.56949 0.25604 0.04576 0.07000
H 	H 	0.42309 0.29344 0.06977 0.07200
I 	I 	0.52602 0.17844 0.01161 -0.05500
I 	I 	0.46907 0.37011 0.10534 -0.03300
C 	C 	0.32500 0.29603 0.83984 -0.06300
C 	C 	0.30080 0.29660 0.79669 0.06900
C 	C 	0.29856 0.33206 0.76820 -0.02000
C 	C 	0.32001 0.36723 0.78245 -0.07500
C 	C 	0.34036 0.36780 0.82880 0.06500
C 	C 	0.34416 0.33179 0.85596 -0.02200
H 	H 	0.28103 0.33193 0.73421 0.06900
H 	H 	0.36094 0.33196 0.89061 0.06200
I 	I 	0.26849 0.24405 0.77253 -0.06500
I 	I 	0.36068 0.42268 0.86273 -0.06700
C 	C 	0.97216 0.23449 0.41891 -0.09700
C 	C 	0.00560 0.20804 0.42720 0.07400
C 	C 	0.03190 0.21502 0.46717 -0.02800
C 	C 	0.02682 0.24996 0.49607 -0.06500
C 	C 	0.98880 0.27030 0.49461 0.07400
C 	C 	0.96201 0.26327 0.45520 -0.03200
H 	H 	0.05940 0.19668 0.47128 0.06800
H 	H 	0.93633 0.28359 0.44949 0.05900
I 	I 	0.02054 0.16132 0.37626 -0.05400
I 	I 	0.97463 0.31670 0.54650 -0.06600
C 	C 	0.31230 0.42702 0.47445 -0.07900
C 	C 	0.35161 0.40988 0.48222 0.08800
C 	C 	0.37552 0.42319 0.52213 -0.04600
C 	C 	0.36090 0.45410 0.55313 -0.02100
C 	C 	0.32617 0.47683 0.53851 0.05600
C 	C 	0.30228 0.46337 0.49888 -0.01400
H 	H 	0.40501 0.40909 0.52942 0.08400
H 	H 	0.27430 0.47955 0.48952 0.06500
I 	I 	0.37733 0.36757 0.43154 -0.05400
I 	I 	0.30886 0.53162 0.57482 -0.05500
C 	C 	0.30557 0.25191 0.31575 -0.06200
C 	C 	0.31236 0.21022 0.30725 0.06800
C 	C 	0.33470 0.19794 0.26568 -0.01800
C 	C 	0.35087 0.22692 0.23303 -0.06400
C 	C 	0.34729 0.26853 0.24407 0.06900
C 	C 	0.32476 0.28084 0.28541 -0.02000
H 	H 	0.33840 0.16583 0.25788 0.06300
H 	H 	0.32058 0.31298 0.29267 0.06600
I 	I 	0.29107 0.16531 0.35760 -0.05800
I 	I 	0.37330 0.31353 0.19713 -0.06500
C 	C 	0.02649 0.43590 0.62261 -0.06100
C 	C 	0.02761 0.45669 0.57725 0.06700
C 	C 	0.06092 0.45094 0.54520 -0.01300
C 	C 	0.09358 0.42526 0.55863 -0.07400
C 	C 	0.09404 0.40751 0.60605 0.06800
C 	C 	0.06035 0.41260 0.63753 -0.02100
H 	H 	0.06081 0.46536 0.50917 0.06500
H 	H 	0.06008 0.39763 0.67324 0.06500
I 	I 	0.98051 0.49836 0.55746 -0.06300
I 	I 	0.14431 0.37159 0.63070 -0.06500
C 	C 	0.09871 0.42550 0.26627 -0.08000
C 	C 	0.13692 0.40827 0.25351 0.08100
C 	C 	0.15418 0.37835 0.28387 -0.04000
C 	C 	0.13340 0.36587 0.32672 -0.01800
C 	C 	0.09121 0.37531 0.33119 0.05200
C 	C 	0.07432 0.40609 0.30184 -0.00600
H 	H 	0.18516 0.36775 0.27669 0.07700
H 	H 	0.04320 0.41651 0.30873 0.06600
I 	I 	0.16983 0.42855 0.19037 -0.07000
I 	I 	0.05137 0.34057 0.37641 -0.09300
C 	C 	0.13627 0.59514 0.11409 -0.01900
C 	C 	0.12259 0.60200 0.06517 0.05400
C 	C 	0.14800 0.62319 0.03193 -0.00500
C 	C 	0.18620 0.63855 0.04746 -0.07800
C 	C 	0.19822 0.63385 0.09710 0.08700
C 	C 	0.17432 0.61085 0.12914 -0.04500
H 	H 	0.13856 0.62665 0.99374 0.05800
H 	H 	0.18461 0.60696 0.16689 0.08300
I 	I 	0.06488 0.57996 0.03938 -0.04800
I 	I 	0.25131 0.66272 0.12627 -0.08400
C 	C 	0.41878 0.61559 0.05499 -0.07700
C 	C 	0.45046 0.59055 0.03665 0.07500
C 	C 	0.48958 0.59222 0.05810 -0.02200
C 	C 	0.49650 0.61676 0.09962 -0.06600
C 	C 	0.46282 0.63580 0.12309 0.07000
C 	C 	0.42440 0.63602 0.09993 -0.02000
H 	H 	0.51461 0.57479 0.04223 0.06900
H 	H 	0.39933 0.65330 0.11597 0.06800
I 	I 	0.43879 0.54701 0.98056 -0.05400
I 	I 	0.46758 0.66033 0.19558 -0.09600
C 	C 	0.37378 0.58678 0.76509 -0.07900
C 	C 	0.39012 0.58542 0.81334 0.08600
C 	C 	0.37074 0.60663 0.85114 -0.04400
C 	C 	0.33602 0.63063 0.84174 -0.02000
C 	C 	0.32267 0.63620 0.79254 0.05700
C 	C 	0.34107 0.61344 0.75466 -0.00700
H 	H 	0.38305 0.60468 0.88822 0.07500
H 	H 	0.32932 0.61575 0.71725 0.06400
I 	I 	0.44388 0.55162 0.83161 -0.04800
I 	I 	0.27782 0.68046 0.77286 -0.05000
C 	C 	0.16013 0.73294 0.38158 -0.06200
C 	C 	0.18869 0.72009 0.34575 0.06600
C 	C 	0.18530 0.68120 0.32532 -0.01600
C 	C 	0.15202 0.65594 0.33771 -0.07700
C 	C 	0.12485 0.66798 0.37578 0.06700
C 	C 	0.12921 0.70629 0.39753 -0.02100
H 	H 	0.20650 0.67198 0.29646 0.06700
H 	H 	0.10799 0.71569 0.42628 0.06100
I 	I 	0.23382 0.76043 0.31694 -0.05500
I 	I 	0.07558 0.63027 0.39993 -0.06500
C 	C 	0.19750 0.78260 0.82768 -0.05800
C 	C 	0.20312 0.82329 0.81298 0.06800
C 	C 	0.19109 0.83561 0.76568 -0.02100
C 	C 	0.17166 0.80809 0.73367 -0.06000
C 	C 	0.15974 0.76956 0.75171 0.06800
C 	C 	0.17348 0.75671 0.79826 -0.02100
H 	H 	0.19802 0.86618 0.75331 0.07100
H 	H 	0.16713 0.72597 0.81048 0.06800
I 	I 	0.22981 0.86664 0.86158 -0.05400
I 	I 	0.11790 0.73194 0.71215 -0.05700
C 	C 	0.07730 0.75072 0.16089 -0.06500
C 	C 	0.03960 0.74961 0.13532 0.06900
C 	C 	0.01700 0.78533 0.12901 -0.02100
C 	C 	0.03232 0.82231 0.14684 -0.06000
C 	C 	0.07239 0.82412 0.16661 0.06600
C 	C 	0.09451 0.78818 0.17416 -0.01800
H 	H 	0.98675 0.78409 0.11216 0.06600
H 	H 	0.12425 0.78923 0.19231 0.06500
I 	I 	0.01560 0.69413 0.10726 -0.06200
I 	I 	0.09998 0.88044 0.18588 -0.05500
C 	C 	0.85122 0.09637 0.25084 -0.07500
C 	C 	0.87350 0.13227 0.26006 0.07800
C 	C 	0.85390 0.16524 0.28284 -0.04200
C 	C 	0.81326 0.16146 0.29993 -0.02600
C 	C 	0.78933 0.12865 0.28253 0.05600
C 	C 	0.80867 0.09566 0.25946 -0.00600
H 	H 	0.87187 0.19169 0.29299 0.05500
H 	H 	0.79071 0.06933 0.24874 0.06100
I 	I 	0.93770 0.13599 0.24555 -0.07600
I 	I 	0.72405 0.13010 0.28471 -0.05300
C 	C 	0.01882 0.95918 0.28544 -0.02100
C 	C 	0.03391 0.98510 0.32302 0.05500
C 	C 	0.05529 0.96850 0.36328 -0.00700
C 	C 	0.06206 0.92647 0.36650 -0.07500
C 	C 	0.04947 0.90111 0.32741 0.08000
C 	C 	0.02924 0.91780 0.28664 -0.03900
H 	H 	0.06627 0.98833 0.39244 0.06100
H 	H 	0.01803 0.89773 0.25795 0.05500
I 	I 	0.02963 0.04931 0.31844 -0.04100
I 	I 	0.05491 0.83683 0.33150 -0.07900
C 	C 	0.03101 0.25675 0.78943 -0.02900
C 	C 	0.04082 0.29803 0.78175 0.06500
C 	C 	0.00997 0.32759 0.78566 -0.03600
C 	C 	0.96905 0.31656 0.79569 -0.02500
C 	C 	0.96042 0.27609 0.80972 0.05800
C 	C 	0.99133 0.24646 0.80596 -0.03400
H 	H 	0.01728 0.35898 0.77725 0.07200
H 	H 	0.98416 0.21523 0.81514 0.06800
I 	I 	0.10141 0.31724 0.76310 -0.05200
I 	I 	0.90472 0.25954 0.84544 -0.05000
C 	C 	0.93356 0.15900 0.49974 -0.08200
C 	C 	0.96111 0.12648 0.49287 0.07300
C 	C 	0.99590 0.12315 0.52323 -0.02400
C 	C 	0.00172 0.15015 0.56288 -0.06400
C 	C 	0.97242 0.18099 0.57170 0.06900
C 	C 	0.93969 0.18626 0.53885 -0.02100
H 	H 	0.01761 0.09865 0.51713 0.06500
H 	H 	0.91769 0.21050 0.54518 0.05900
I 	I 	0.94828 0.07932 0.44139 -0.05800
I 	I 	0.97258 0.21585 0.63809 -0.07500
C 	C 	0.10568 0.05299 0.70821 -0.02000
C 	C 	0.06918 0.03024 0.70123 0.05700
C 	C 	0.06904 0.99723 0.66842 -0.00500
C 	C 	0.10528 0.98543 0.64425 -0.07400
C 	C 	0.14242 0.00575 0.65488 0.07300
C 	C 	0.14231 0.03974 0.68602 -0.04100
H 	H 	0.04074 0.98061 0.66194 0.06500
H 	H 	0.17078 0.05597 0.69270 0.07900
I 	I 	0.01458 0.04265 0.74200 -0.05800
I 	I 	0.19950 0.98435 0.62726 -0.07100
C 	C 	0.04937 0.10051 0.97140 -0.06500
C 	C 	0.06553 0.11565 0.01612 0.07000
C 	C 	0.04730 0.10465 0.06105 -0.02100
C 	C 	0.01289 0.07892 0.06184 -0.05900
C 	C 	0.99544 0.06572 0.01684 0.07200
C 	C 	0.01356 0.07687 0.97201 -0.02000
H 	H 	0.06055 0.11526 0.09549 0.06700
H 	H 	0.00059 0.06590 0.93757 0.06600
I 	I 	0.11633 0.15637 0.01700 -0.06000
I 	I 	0.94356 0.02667 0.01498 -0.06900
C 	C 	0.22360 0.27198 0.55383 -0.02300
C 	C 	0.23009 0.28403 0.60291 0.05700
C 	C 	0.21484 0.25984 0.64121 -0.01000
C 	C 	0.19817 0.22132 0.63060 -0.07500
C 	C 	0.20393 0.20494 0.58281 0.08400
C 	C 	0.21648 0.23066 0.54440 -0.04200
H 	H 	0.21454 0.27155 0.67860 0.07100
H 	H 	0.21687 0.21944 0.50675 0.07500
I 	I 	0.26692 0.33537 0.61979 -0.05000
I 	I 	0.20030 0.14139 0.56900 -0.05400
C 	C 	0.25707 0.16476 0.97244 -0.02000
C 	C 	0.24083 0.12773 0.95443 0.05700
C 	C 	0.20811 0.12835 0.92077 -0.00600
C 	C 	0.19034 0.16524 0.90622 -0.07300
C 	C 	0.20332 0.20166 0.92865 0.08700
C 	C 	0.23588 0.20105 0.96262 -0.03900
H 	H 	0.19707 0.10009 0.90501 0.06700
H 	H 	0.24646 0.22930 0.97879 0.07900
I 	I 	0.26121 0.07034 0.98077 -0.04200
I 	I 	0.17667 0.25838 0.90897 -0.04800
C 	C 	0.96990 0.73935 0.56670 -0.02100
C 	C 	0.01003 0.72599 0.55463 0.06200
C 	C 	0.04298 0.75342 0.55619 -0.03000
C 	C 	0.03647 0.79434 0.56827 -0.02900
C 	C 	0.99805 0.80587 0.58829 0.06300
C 	C 	0.96474 0.77862 0.58624 -0.03500
H 	H 	0.07316 0.74362 0.54396 0.06800
H 	H 	0.93477 0.78825 0.59927 0.07400
I 	I 	0.02252 0.66518 0.53253 -0.05300
I 	I 	0.99154 0.85913 0.63193 -0.05300
C 	C 	0.75626 0.67806 0.48901 -0.02000
C 	C 	0.73627 0.64121 0.47677 0.05600
C 	C 	0.70733 0.64046 0.43846 -0.01000
C 	C 	0.69715 0.67612 0.41312 -0.07700
C 	C 	0.71367 0.71350 0.42877 0.08900
C 	C 	0.74238 0.71438 0.46740 -0.04400
H 	H 	0.69291 0.61197 0.42817 0.05300
H 	H 	0.75588 0.74309 0.47835 0.07700
I 	I 	0.74589 0.58692 0.51750 -0.04500
I 	I 	0.69768 0.76875 0.39293 -0.05300
C 	C 	0.85521 0.85409 0.29051 -0.07300
C 	C 	0.85612 0.81602 0.26660 0.07200
C 	C 	0.84773 0.78064 0.29342 -0.01900
C 	C 	0.83832 0.78294 0.34384 -0.06200
C 	C 	0.83308 0.82120 0.36633 0.06700
C 	C 	0.84135 0.85662 0.33947 -0.01300
H 	H 	0.85048 0.75124 0.27563 0.06600
H 	H 	0.83953 0.88593 0.35764 0.06400
I 	I 	0.87095 0.81106 0.19034 -0.09600
I 	I 	0.81507 0.82620 0.44160 -0.08000
C 	C 	0.97092 0.58502 0.30425 -0.01900
C 	C 	0.94706 0.62069 0.30105 0.05600
C 	C 	0.92237 0.63225 0.34093 -0.01200
C 	C 	0.91895 0.60704 0.38259 -0.07700
C 	C 	0.93605 0.56766 0.38100 0.08400
C 	C 	0.96287 0.55724 0.34243 -0.04400
H 	H 	0.90675 0.66134 0.34006 0.06000
H 	H 	0.97828 0.52805 0.34293 0.07400
I 	I 	0.94707 0.65745 0.23639 -0.05800
I 	I 	0.91690 0.52163 0.43095 -0.06000
C 	C 	0.86897 0.57854 0.67069 -0.07600
C 	C 	0.83184 0.55844 0.68175 0.07400
C 	C 	0.83209 0.52489 0.71364 -0.04100
C 	C 	0.86861 0.51307 0.73722 -0.02600
C 	C 	0.90369 0.53822 0.73326 0.04900
C 	C 	0.90433 0.56959 0.69826 -0.01000
H 	H 	0.80406 0.50772 0.71949 0.07600
H 	H 	0.93221 0.58710 0.69273 0.06800
I 	I 	0.77468 0.58161 0.65692 -0.06900
I 	I 	0.95353 0.53350 0.78382 -0.03000
C 	C 	0.51640 0.81388 0.86585 -0.06900
C 	C 	0.47373 0.81835 0.85908 0.07100
C 	C 	0.44858 0.78387 0.85863 -0.02200
C 	C 	0.46582 0.74519 0.86538 -0.06300
C 	C 	0.50875 0.74050 0.86498 0.06900
C 	C 	0.53393 0.77490 0.86443 -0.02000
H 	H 	0.41544 0.78733 0.85657 0.06700
H 	H 	0.56705 0.77140 0.86703 0.05800
I 	I 	0.44623 0.87671 0.85314 -0.04600
I 	I 	0.53613 0.68195 0.86802 -0.05500
C 	C 	0.67884 0.78237 0.04936 -0.02400
C 	C 	0.65394 0.74754 0.04342 0.05900
C 	C 	0.65031 0.71966 0.08202 -0.01700
C 	C 	0.67209 0.72522 0.12635 -0.07800
C 	C 	0.70136 0.75705 0.12950 0.08300
C 	C 	0.70343 0.78621 0.09171 -0.04600
H 	H 	0.62948 0.69415 0.07797 0.06700
H 	H 	0.72456 0.81152 0.09511 0.07500
I 	I 	0.62130 0.73542 0.97664 -0.06600
I 	I 	0.74738 0.75841 0.18554 -0.05900
C 	C 	0.81319 0.92961 0.00525 -0.07700
C 	C 	0.85213 0.91079 0.00743 0.08200
C 	C 	0.88093 0.92416 0.04230 -0.03700
C 	C 	0.87142 0.95665 0.07389 -0.01900
C 	C 	0.83682 0.98088 0.06331 0.05500
C 	C 	0.80713 0.96653 0.03035 -0.01100
H 	H 	0.90963 0.90780 0.04683 0.07500
H 	H 	0.77905 0.98374 0.02496 0.06600
I 	I 	0.87010 0.86594 0.95520 -0.06900
I 	I 	0.83205 0.04171 0.08876 -0.06000
C 	C 	0.80998 0.75938 0.84422 -0.05900
C 	C 	0.81654 0.71817 0.83246 0.06700
C 	C 	0.83591 0.70780 0.78802 -0.01800
C 	C 	0.84955 0.73821 0.75564 -0.06300
C 	C 	0.84648 0.77931 0.76954 0.06900
C 	C 	0.82689 0.78970 0.81384 -0.02100
H 	H 	0.83945 0.67608 0.77806 0.06300
H 	H 	0.82273 0.82147 0.82323 0.06800
I 	I 	0.79878 0.67107 0.88178 -0.05400
I 	I 	0.86905 0.82636 0.72306 -0.06300
C 	C 	0.52842 0.75313 0.29812 -0.02600
C 	C 	0.53931 0.79470 0.29566 0.06300
C 	C 	0.50845 0.82443 0.29653 -0.03600
C 	C 	0.46668 0.81356 0.29478 -0.02800
C 	C 	0.45581 0.77204 0.29913 0.06300
C 	C 	0.48679 0.74266 0.30387 -0.03700
H 	H 	0.51711 0.85616 0.29423 0.07300
H 	H 	0.47818 0.71100 0.30736 0.07500
I 	I 	0.60131 0.81464 0.28785 -0.04700
I 	I 	0.39390 0.75106 0.29505 -0.04400
C 	C 	0.38174 0.01347 0.21750 -0.02500
C 	C 	0.41771 0.03664 0.20916 0.05900
C 	C 	0.41886 0.06472 0.17014 -0.00700
C 	C 	0.38365 0.07195 0.14145 -0.07400
C 	C 	0.34624 0.05317 0.15462 0.07300
C 	C 	0.34564 0.02351 0.19181 -0.04100
H 	H 	0.44701 0.08125 0.16254 0.06800
H 	H 	0.31718 0.00774 0.20003 0.07700
I 	I 	0.46951 0.03251 0.25693 -0.05700
I 	I 	0.28966 0.07172 0.12286 -0.07000
C 	C 	0.57513 0.93890 0.02518 -0.08000
C 	C 	0.54101 0.96269 0.01127 0.07600
C 	C 	0.50488 0.96140 0.03948 -0.02400
C 	C 	0.50277 0.93724 0.08215 -0.06200
C 	C 	0.53779 0.91529 0.09763 0.07000
C 	C 	0.57348 0.91583 0.06874 -0.02100
H 	H 	0.47854 0.97947 0.02844 0.06500
H 	H 	0.59983 0.89777 0.07983 0.06400
I 	I 	0.54432 0.00331 0.95039 -0.05400
I 	I 	0.53899 0.88333 0.16606 -0.08300
C 	C 	0.32239 0.84221 0.11693 -0.07800
C 	C 	0.28862 0.81514 0.11863 0.08400
C 	C 	0.28388 0.78599 0.08126 -0.04500
C 	C 	0.31122 0.78490 0.04111 -0.02200
C 	C 	0.33982 0.81670 0.03512 0.05800
C 	C 	0.34608 0.84445 0.07353 -0.01500
H 	H 	0.25935 0.76380 0.08392 0.07800
H 	H 	0.37018 0.86706 0.07014 0.06300
I 	I 	0.24115 0.82112 0.17231 -0.06200
I 	I 	0.37267 0.82494 0.96787 -0.06500
C 	C 	0.29358 0.89173 0.40493 -0.07200
C 	C 	0.28634 0.85598 0.43232 0.08500
C 	C 	0.25612 0.85571 0.46940 -0.04300
C 	C 	0.23249 0.89059 0.47898 -0.02100
C 	C 	0.24331 0.92751 0.45557 0.05500
C 	C 	0.27267 0.92749 0.41756 -0.00700
H 	H 	0.24983 0.82784 0.48930 0.08500
H 	H 	0.27974 0.95557 0.39838 0.06500
I 	I 	0.31966 0.80171 0.41787 -0.04300
I 	I 	0.22099 0.98452 0.48095 -0.04100
C 	C 	0.44339 0.29271 0.60622 -0.06600
C 	C 	0.48359 0.30790 0.59922 0.06300
C 	C 	0.51726 0.28163 0.60255 -0.01700
C 	C 	0.51116 0.24029 0.61198 -0.06600
C 	C 	0.47091 0.22445 0.61360 0.06800
C 	C 	0.43721 0.25081 0.61139 -0.01900
H 	H 	0.54825 0.29362 0.59961 0.06500
H 	H 	0.40628 0.23887 0.61540 0.06400
I 	I 	0.49462 0.37043 0.58502 -0.06500
I 	I 	0.46028 0.16089 0.61889 -0.08600
C 	C 	0.47149 0.08376 0.77245 -0.01700
C 	C 	0.46791 0.05929 0.81483 0.05300
C 	C 	0.44455 0.07308 0.85515 -0.00900
C 	C 	0.42204 0.10960 0.85177 -0.07000
C 	C 	0.41859 0.12868 0.80476 0.07600
C 	C 	0.44316 0.11521 0.76554 -0.03700
H 	H 	0.44386 0.05541 0.88894 0.06600
H 	H 	0.44280 0.13166 0.73090 0.07500
I 	I 	0.48924 0.99837 0.81445 -0.03500
I 	I 	0.37555 0.17556 0.78887 -0.06500
C 	C 	0.67059 0.89372 0.80967 -0.02100
C 	C 	0.69529 0.92211 0.78421 0.05600
C 	C 	0.67678 0.94912 0.75123 -0.00900
C 	C 	0.63382 0.94937 0.74562 -0.07900
C 	C 	0.61144 0.91483 0.76104 0.08800
C 	C 	0.63042 0.88675 0.79267 -0.04600
H 	H 	0.69531 0.97227 0.73340 0.06900
H 	H 	0.61349 0.86044 0.80541 0.07000
I 	I 	0.76043 0.92371 0.79145 -0.05400
I 	I 	0.55354 0.89943 0.72951 -0.04800
C 	C 	0.46536 0.97485 0.57783 -0.05900
C 	C 	0.47413 0.00015 0.53703 0.06400
C 	C 	0.45577 0.99235 0.49126 -0.01300
C 	C 	0.42757 0.96047 0.48600 -0.06600
C 	C 	0.41812 0.93565 0.52692 0.06900
C 	C 	0.43717 0.94288 0.57255 -0.02100
H 	H 	0.46285 0.01163 0.45990 0.06300
H 	H 	0.42988 0.92375 0.60398 0.06700
I 	I 	0.51223 0.05227 0.54401 -0.08600
I 	I 	0.37577 0.88671 0.52081 -0.06100
C 	C 	0.64350 0.26154 0.85465 -0.06400
C 	C 	0.67177 0.25238 0.81680 0.06600
C 	C 	0.66756 0.21629 0.78999 -0.01500
C 	C 	0.63545 0.18916 0.80067 -0.07600
C 	C 	0.60800 0.19779 0.83974 0.06800
C 	C 	0.61225 0.23384 0.86640 -0.02100
H 	H 	0.68869 0.20976 0.76001 0.06600
H 	H 	0.59099 0.24050 0.89623 0.06200
I 	I 	0.71975 0.29334 0.79750 -0.05600
I 	I 	0.55846 0.15823 0.85824 -0.06600
C 	C 	0.63974 0.09930 0.58068 -0.02000
C 	C 	0.68180 0.08894 0.58115 0.05700
C 	C 	0.70950 0.11094 0.55227 -0.01100
C 	C 	0.69540 0.14070 0.51916 -0.07700
C 	C 	0.65259 0.14684 0.51353 0.08200
C 	C 	0.62507 0.12644 0.54483 -0.04500
H 	H 	0.74212 0.10443 0.55507 0.06300
H 	H 	0.59231 0.13164 0.54114 0.08600
I 	I 	0.70423 0.03803 0.62164 -0.06300
I 	I 	0.62812 0.18290 0.45539 -0.06000
