data_crystal

_cell_length_a 16.06011
_cell_length_b 16.80553
_cell_length_c 61.10621
_cell_angle_alpha 90.03206
_cell_angle_beta  90.02366
_cell_angle_gamma 119.85033

_symmetry_space_group_name_	'P 1'
_symmetry_space_group_name_H-M	'P 1'

loop_
_symmetry_equiv_pos_as_xyz
  x,y,z

loop_
_atom_site_label
_atom_site_type_symbol
_atom_site_fract_x
_atom_site_fract_y
_atom_site_fract_z
_atom_site_charge
O 	O 	0.04154 0.16551 0.74607 -0.26900
O 	O 	0.01932 0.87040 0.79698 -0.34200
O 	O 	0.05171 0.19334 0.79402 -0.33300
O 	O 	0.07217 0.89967 0.75179 -0.32500
F 	F 	0.30653 0.82388 0.00929 -0.35600
F 	F 	0.16654 0.82408 0.01122 -0.43500
C 	C 	0.05608 0.51795 0.34302 -0.05500
C 	C 	0.12676 0.59234 0.46480 0.30000
C 	C 	0.14841 0.60070 0.40046 0.29800
O 	O 	0.17005 0.68239 0.46172 -0.32300
O 	O 	0.12597 0.53692 0.44915 -0.33400
O 	O 	0.13510 0.64446 0.41652 -0.28100
O 	O 	0.19951 0.56009 0.40390 -0.30900
C 	C 	0.20725 0.78584 0.67753 0.27800
C 	C 	0.07739 0.53515 0.66126 0.33100
O 	O 	0.17511 0.74036 0.65856 -0.29100
O 	O 	0.14268 0.54870 0.64708 -0.32300
O 	O 	0.10452 0.57820 0.68026 -0.29300
C 	C 	0.13574 0.20838 0.74687 0.30900
C 	C 	0.10515 0.18680 0.80982 0.30000
C 	C 	0.13144 0.96917 0.73935 0.30000
C 	C 	0.11220 0.91459 0.80218 0.29800
Ni	Ni	0.15901 0.08752 0.77746 1.14200
O 	O 	0.17363 0.05395 0.74673 -0.27200
O 	O 	0.17822 0.20632 0.76494 -0.34400
O 	O 	0.17627 0.98571 0.79058 -0.33400
O 	O 	0.15104 0.13967 0.80694 -0.33200
O 	O 	0.02254 0.02275 0.77740 -0.70200
C 	C 	0.22608 0.47938 0.92531 0.29100
Ni	Ni	0.21651 0.62320 0.89894 1.13900
O 	O 	0.22297 0.68290 0.87018 -0.35000
O 	O 	0.18005 0.50697 0.88105 -0.29300
O 	O 	0.21748 0.72703 0.91741 -0.30700
O 	O 	0.19949 0.54294 0.92535 -0.29600
C 	C 	0.19104 0.03820 0.24859 0.30900
C 	C 	0.15370 0.05658 0.19217 0.30700
Ni	Ni	0.02277 0.89546 0.22380 1.14100
Ni	Ni	0.06580 0.10407 0.22837 1.13800
O 	O 	0.03516 0.09589 0.26028 -0.30700
O 	O 	0.11652 0.95515 0.24999 -0.26000
O 	O 	0.18647 0.10061 0.23656 -0.34700
O 	O 	0.13441 0.97761 0.20186 -0.31600
O 	O 	0.10813 0.10162 0.19753 -0.34500
C 	C 	0.18555 0.98602 0.98257 0.27900
C 	C 	0.08808 0.14507 0.97270 0.32600
C 	C 	0.13215 0.99786 0.05424 0.26900
Ni	Ni	0.13579 0.09607 0.01437 1.15400
O 	O 	0.09697 0.92323 0.97735 -0.30900
O 	O 	0.20646 0.06922 0.98973 -0.26300
O 	O 	0.18365 0.04395 0.03703 -0.30300
O 	O 	0.05918 0.06350 0.96414 -0.30100
O 	O 	0.08436 0.15398 0.99371 -0.28800
O 	O 	0.04235 0.98233 0.05738 -0.27800
O 	O 	0.09105 0.14836 0.03853 -0.32500
H 	H 	0.05680 0.93925 0.01366 0.19200
F 	F 	0.18241 0.86996 0.27375 -0.37400
F 	F 	0.15581 0.96505 0.29514 -0.34400
C 	C 	0.25397 0.96094 0.06687 0.04000
C 	C 	0.18569 0.98649 0.07251 0.05200
C 	C 	0.20455 0.04136 0.09127 -0.10300
C 	C 	0.12423 0.04304 0.10370 0.79800
H 	H 	0.23423 0.90548 0.05534 0.15000
F 	F 	0.14775 0.06111 0.12561 -0.43300
F 	F 	0.04059 0.95910 0.10218 -0.41200
F 	F 	0.10847 0.11058 0.09523 -0.42000
C 	C 	0.06302 0.23780 0.94472 0.11500
C 	C 	0.12589 0.22765 0.95882 0.01600
C 	C 	0.21758 0.30417 0.96319 -0.07000
C 	C 	0.23885 0.39135 0.95580 0.06200
C 	C 	0.17994 0.40082 0.94041 0.03700
C 	C 	0.08882 0.32389 0.93542 -0.08900
C 	C 	0.02191 0.33146 0.91909 0.81000
C 	C 	0.29515 0.29189 0.97421 0.78300
F 	F 	0.05521 0.33350 0.89816 -0.43000
F 	F 	0.01690 0.41011 0.92282 -0.40300
F 	F 	0.30001 0.22007 0.96448 -0.41900
C 	C 	0.26544 0.83356 0.96514 0.06600
C 	C 	0.26157 0.97248 0.97355 0.02900
C 	C 	0.26682 0.89562 0.98072 -0.07800
C 	C 	0.26153 0.87406 0.00481 0.78600
H 	H 	0.25970 0.76937 0.97038 0.10500
F 	F 	0.30683 0.95475 0.01672 -0.40300
C 	C 	0.09703 0.83630 0.83796 -0.01900
C 	C 	0.14790 0.87278 0.81843 -0.04700
C 	C 	0.23536 0.87323 0.81499 0.12300
C 	C 	0.22373 0.80863 0.85127 -0.04000
C 	C 	0.13317 0.80213 0.85415 0.13700
N 	N 	0.07745 0.76063 0.87340 -0.01700
H 	H 	0.02920 0.83414 0.84060 0.09700
O 	O 	0.04872 0.80623 0.88543 0.00300
O 	O 	0.04318 0.67352 0.87695 -0.03800
O 	O 	0.23721 0.85033 0.77680 -0.00500
C 	C 	0.06846 0.28380 0.83422 0.01400
C 	C 	0.13090 0.25085 0.82864 -0.05800
C 	C 	0.22418 0.29397 0.83775 0.12300
C 	C 	0.19765 0.41291 0.85350 -0.04600
C 	C 	0.10232 0.36645 0.84572 0.13300
N 	N 	0.04141 0.40548 0.84831 -0.00600
O 	O 	0.06577 0.48491 0.83970 -0.04200
C 	C 	0.28226 0.35097 0.73529 0.07400
C 	C 	0.19412 0.27418 0.72947 0.02200
C 	C 	0.16563 0.26090 0.70714 -0.06300
H 	H 	0.30793 0.35891 0.75199 0.10300
C 	C 	0.08283 0.17093 0.69890 0.79900
F 	F 	0.08283 0.09702 0.70884 -0.40600
F 	F 	0.08987 0.16199 0.67655 -0.35800
C 	C 	0.19566 0.86601 0.68239 0.03300
C 	C 	0.10284 0.85442 0.68493 -0.07300
C 	C 	0.08324 0.89193 0.70339 0.07400
C 	C 	0.15730 0.95012 0.71753 0.04500
C 	C 	0.25413 0.98053 0.71151 -0.08200
C 	C 	0.02409 0.80065 0.66862 0.80900
F 	F 	0.06178 0.80855 0.64789 -0.38100
C 	C 	0.10858 0.53603 0.36256 0.05900
C 	C 	0.10720 0.59702 0.37816 0.04800
C 	C 	0.06399 0.65085 0.37214 -0.07000
C 	C 	0.00762 0.62730 0.35295 0.11600
C 	C 	0.07089 0.46472 0.32505 0.78300
H 	H 	0.14942 0.50176 0.36568 0.14200
C 	C 	0.07437 0.73071 0.38591 0.79300
F 	F 	0.16688 0.48956 0.32380 -0.35900
F 	F 	0.16840 0.78642 0.39231 -0.42700
F 	F 	0.01554 0.69796 0.40408 -0.38800
F 	F 	0.04798 0.78514 0.37416 -0.34800
F 	F 	0.17444 0.35923 0.61618 -0.38300
H 	H 	0.01374 0.64248 0.64446 0.15000
F 	F 	0.01230 0.70634 0.60984 -0.37000
C 	C 	0.05594 0.55207 0.48246 -0.03900
C 	C 	0.06090 0.49129 0.49756 0.12500
N 	N 	0.14311 0.47953 0.49821 -0.02400
O 	O 	0.22448 0.54539 0.50551 -0.05400
O 	O 	0.13393 0.39974 0.49392 -0.04600
H 	H 	0.01288 0.01341 0.79330 0.15800
C 	C 	0.23511 0.49926 0.86612 0.31800
O 	O 	0.02777 0.97777 0.01066 -0.71200
C 	C 	0.22406 0.94421 0.28783 0.78800
F 	F 	0.04399 0.48218 0.30493 -0.36200
H 	H 	0.19471 0.19625 0.16447 0.12100
N 	N 	0.28185 0.89747 0.79410 -0.01900
C 	C 	0.27513 0.85585 0.94281 0.02800
C 	C 	0.29153 0.00411 0.95229 0.09500
C 	C 	0.27424 0.84450 0.83174 -0.01400
Ni	Ni	0.25208 0.74252 0.43399 1.13700
Ni	Ni	0.24537 0.54756 0.43428 1.13600
O 	O 	0.32214 0.78199 0.40441 -0.29100
O 	O 	0.30057 0.53199 0.46246 -0.33800
O 	O 	0.31438 0.67580 0.43998 -0.72000
C 	C 	0.30727 0.50306 0.68975 0.30800
Ni	Ni	0.24239 0.68170 0.63970 1.12900
Ni	Ni	0.24472 0.63809 0.69157 1.13600
O 	O 	0.23675 0.75341 0.69381 -0.31800
O 	O 	0.23287 0.51483 0.68839 -0.33300
C 	C 	0.26261 0.77187 0.86787 0.32400
C 	C 	0.29219 0.79797 0.92753 0.29700
O 	O 	0.32765 0.55632 0.86616 -0.35800
O 	O 	0.28790 0.47960 0.91077 -0.32300
O 	O 	0.33708 0.82884 0.87989 -0.30000
C 	C 	0.28784 0.05706 0.25575 0.01800
C 	C 	0.30336 0.02698 0.27627 -0.07600
F 	F 	0.25854 0.91886 0.30572 -0.37100
C 	C 	0.30069 0.09981 0.09742 0.07800
H 	H 	0.31768 0.15203 0.10974 0.07600
C 	C 	0.25183 0.17979 0.16558 -0.00400
C 	C 	0.23825 0.10305 0.17765 -0.03800
C 	C 	0.31307 0.08175 0.17852 0.11400
N 	N 	0.29628 0.99534 0.18678 -0.02100
O 	O 	0.24184 0.92061 0.17585 -0.03100
H 	H 	0.30663 0.45107 0.96017 0.10900
F 	F 	0.27512 0.27391 0.99623 -0.44500
F 	F 	0.38467 0.36958 0.97222 -0.38000
C 	C 	0.29371 0.94463 0.93637 -0.09700
H 	H 	0.29934 0.06949 0.94749 0.13400
F 	F 	0.24439 0.91179 0.89935 -0.43400
H 	H 	0.34197 0.84637 0.82912 0.09900
C 	C 	0.25684 0.37448 0.85004 -0.01500
N 	N 	0.28570 0.25604 0.83478 -0.02300
O 	O 	0.36219 0.29874 0.82271 -0.04200
C 	C 	0.21436 0.33445 0.69244 0.06800
C 	C 	0.29384 0.41709 0.69943 0.03400
C 	C 	0.33616 0.41880 0.71981 -0.08200
H 	H 	0.18541 0.33055 0.67619 0.14000
C 	C 	0.27205 0.94004 0.69319 0.07200
C 	C 	0.33760 0.05427 0.72451 0.80000
H 	H 	0.34483 0.95694 0.68928 0.11400
F 	F 	0.33188 0.02743 0.74611 -0.40100
F 	F 	0.33549 0.13547 0.72349 -0.39100
F 	F 	0.26522 0.35890 0.39595 -0.39800
F 	F 	0.31570 0.78051 0.35763 -0.37900
C 	C 	0.21338 0.39459 0.59590 0.78100
F 	F 	0.17938 0.45141 0.58882 -0.40800
F 	F 	0.18320 0.32300 0.58111 -0.40300
O 	O 	0.30581 0.36236 0.45109 -0.02300
H 	H 	0.31339 0.67629 0.45610 0.16900
C 	C 	0.35126 0.01814 0.07285 -0.04200
O 	O 	0.30227 0.30213 0.12506 -0.01900
O 	O 	0.27055 0.18398 0.84586 -0.02600
C 	C 	0.31545 0.97571 0.91274 0.77800
O 	O 	0.36102 0.85891 0.44995 -0.33900
O 	O 	0.34060 0.52040 0.41960 -0.31300
C 	C 	0.32230 0.56858 0.62123 0.32600
O 	O 	0.29740 0.62955 0.61594 -0.28300
O 	O 	0.33320 0.55631 0.64170 -0.34200
O 	O 	0.31284 0.68709 0.66483 -0.71800
H 	H 	0.34661 0.75333 0.66804 0.17800
O 	O 	0.35001 0.66926 0.90190 -0.72200
H 	H 	0.35231 0.66938 0.91801 0.16600
C 	C 	0.36808 0.12337 0.24405 0.07000
H 	H 	0.35898 0.14000 0.22740 0.08800
C 	C 	0.37536 0.09554 0.08633 0.00100
F 	F 	0.38658 0.91144 0.05479 -0.34900
C 	C 	0.33893 0.23615 0.15507 0.12900
O 	O 	0.34642 0.99291 0.20321 -0.04100
F 	F 	0.31932 0.05900 0.90945 -0.39400
O 	O 	0.37157 0.96099 0.79273 0.00700
H 	H 	0.32849 0.40702 0.85696 0.08300
C 	C 	0.32938 0.40989 0.37965 0.78300
F 	F 	0.30769 0.47492 0.37195 -0.39800
F 	F 	0.31840 0.35202 0.36239 -0.39200
C 	C 	0.32181 0.44760 0.59765 -0.08000
N 	N 	0.35074 0.31397 0.14300 -0.02700
O 	O 	0.38214 0.81996 0.92409 -0.33400
O 	O 	0.36882 0.69146 0.71059 -0.27100
O 	O 	0.35541 0.80719 0.63127 -0.31800
F 	F 	0.37910 0.17949 0.39713 -0.39900
H 	H 	0.33931 0.33348 0.58720 0.10000
F 	F 	0.00774 0.54396 0.03572 -0.35800
F 	F 	0.40179 0.12144 0.42801 -0.41900
O 	O 	0.34354 0.75341 0.50657 -0.06300
C 	C 	0.42711 0.99595 0.06511 0.77100
N 	N 	0.39743 0.40359 0.45516 -0.02400
C 	C 	0.39354 0.07858 0.28646 0.06300
F 	F 	0.42524 0.07087 0.71636 -0.36300
C 	C 	0.36980 0.53932 0.60527 0.02800
C 	C 	0.39458 0.56938 0.46619 0.30300
O 	O 	0.39341 0.56925 0.68406 -0.30400
Ni	Ni	0.40180 0.59343 0.89537 1.12700
H 	H 	0.40439 0.06156 0.30292 0.09700
C 	C 	0.40194 0.14164 0.16920 0.00100
C 	C 	0.37524 0.40333 0.59330 0.06600
O 	O 	0.45505 0.39646 0.44137 -0.02400
C 	C 	0.41135 0.84597 0.40355 0.32600
C 	C 	0.41359 0.21514 0.15620 -0.06600
F 	F 	0.40545 0.75261 0.75332 -0.40500
C 	C 	0.43858 0.15340 0.40734 0.78500
H 	H 	0.00999 0.87339 0.70717 0.15400
F 	F 	0.43057 0.57076 0.73258 -0.43000
C 	C 	0.42185 0.85936 0.46486 0.30000
C 	C 	0.41528 0.57777 0.40792 0.31900
Ni	Ni	0.42715 0.79625 0.89594 1.13900
O 	O 	0.40107 0.39584 0.15124 -0.04000
F 	F 	0.40316 0.98557 0.90682 -0.43000
C 	C 	0.43570 0.49510 0.72568 0.78500
H 	H 	0.44317 0.00214 0.42196 0.07900
C 	C 	0.40969 0.85014 0.35518 0.78200
C 	C 	0.43298 0.44663 0.47593 0.12200
Ni	Ni	0.41615 0.66448 0.66083 1.13400
C 	C 	0.44215 0.00506 0.40429 0.06800
C 	C 	0.43428 0.93120 0.39199 0.01200
C 	C 	0.42640 0.93227 0.36888 -0.05800
C 	C 	0.44353 0.08018 0.39392 -0.08600
C 	C 	0.42691 0.52462 0.48202 -0.05100
C 	C 	0.43265 0.01029 0.35868 0.05900
N 	N 	0.43190 0.81639 0.51037 -0.02300
F 	F 	0.47926 0.99301 0.08280 -0.41100
F 	F 	0.42630 0.87215 0.33319 -0.38300
C 	C 	0.43109 0.45478 0.38857 -0.07100
H 	H 	0.43169 0.01409 0.34099 0.10400
O 	O 	0.44462 0.66615 0.40780 -0.32800
C 	C 	0.45754 0.17442 0.25443 -0.08200
Ni	Ni	0.44902 0.73226 0.43551 1.13000
O 	O 	0.47014 0.77558 0.86658 -0.35600
H 	H 	0.45929 0.12540 0.17017 0.10000
C 	C 	0.45402 0.08856 0.37100 0.03900
F 	F 	0.48812 0.06211 0.05047 -0.36600
C 	C 	0.46425 0.16096 0.27704 0.03500
H 	H 	0.47928 0.35133 0.48555 0.10100
C 	C 	0.45770 0.93095 0.48197 -0.05800
O 	O 	0.46132 0.63673 0.45382 -0.35000
C 	C 	0.44526 0.82528 0.63248 0.27700
C 	C 	0.46059 0.74469 0.70397 0.30500
C 	C 	0.47235 0.17938 0.08587 0.30400
F 	F 	0.47486 0.46852 0.74239 -0.39700
H 	H 	0.44689 0.33810 0.38128 0.12400
O 	O 	0.46607 0.81079 0.46221 -0.34300
C 	C 	0.47573 0.41184 0.49015 -0.01500
C 	C 	0.46490 0.90934 0.50395 0.12100
F 	F 	0.45237 0.87909 0.73265 -0.40400
O 	O 	0.47359 0.84506 0.41745 -0.33200
O 	O 	0.47695 0.26077 0.08695 -0.32200
O 	O 	0.46643 0.75840 0.63545 -0.29700
C 	C 	0.47523 0.54326 0.39809 0.01800
F 	F 	0.47102 0.16494 0.63306 -0.39500
C 	C 	0.46336 0.56655 0.50227 -0.01500
F 	F 	0.47084 0.81891 0.36179 -0.40000
O 	O 	0.47959 0.24163 0.31066 -0.32700
C 	C 	0.47011 0.58809 0.60525 0.05500
F 	F 	0.46317 0.78274 0.58526 -0.42700
H 	H 	0.01882 0.26237 0.26526 0.11900
C 	C 	0.49053 0.25152 0.13983 0.32500
H 	H 	0.45981 0.62707 0.50689 0.09900
H 	H 	0.48525 0.03960 0.45924 0.10300
O 	O 	0.48263 0.76208 0.68312 -0.34500
O 	O 	0.48724 0.79656 0.52190 -0.02600
C 	C 	0.47549 0.45025 0.59604 0.02300
C 	C 	0.48810 0.02219 0.47616 -0.01100
C 	C 	0.48250 0.83669 0.74755 0.78500
C 	C 	0.48246 0.40775 0.38734 0.05500
F 	F 	0.01808 0.37226 0.32966 -0.41600
F 	F 	0.47369 0.51491 0.28850 -0.38000
O 	O 	0.48744 0.34480 0.53866 -0.34500
O 	O 	0.50675 0.19291 0.12914 -0.36700
F 	F 	0.49627 0.51794 0.70783 -0.39800
O 	O 	0.48360 0.64710 0.92354 -0.28500
O 	O 	0.50010 0.24232 0.35856 -0.30100
O 	O 	0.49472 0.15368 0.57835 -0.32600
C 	C 	0.50158 0.97898 0.51982 -0.02000
O 	O 	0.50542 0.20480 0.47327 -0.02600
O 	O 	0.50120 0.17887 0.53339 -0.34000
H 	H 	0.50435 0.96161 0.53677 0.10500
C 	C 	0.53169 0.74657 0.86514 0.32600
O 	O 	0.52686 0.68362 0.87858 -0.31100
O 	O 	0.50625 0.32807 0.58563 -0.32400
Ni	Ni	0.51026 0.26009 0.55887 1.13100
F 	F 	0.52939 0.22881 0.40953 -0.42900
H 	H 	0.50710 0.65987 0.60968 0.13000
C 	C 	0.51311 0.45445 0.51031 -0.05000
O 	O 	0.48807 0.58100 0.55139 -0.02900
O 	O 	0.52810 0.33698 0.13335 -0.34800
C 	C 	0.52083 0.23941 0.29202 0.27800
C 	C 	0.50697 0.53241 0.51638 0.12100
C 	C 	0.52434 0.17748 0.36179 0.27900
F 	F 	0.51403 0.89062 0.76619 -0.41600
H 	H 	0.49675 0.79519 0.96530 0.09900
F 	F 	0.53235 0.21451 0.21929 -0.42700
C 	C 	0.52480 0.09174 0.49202 0.11500
F 	F 	0.51121 0.58384 0.25574 -0.39800
C 	C 	0.51918 0.91596 0.62490 0.04900
H 	H 	0.07607 0.22984 0.07674 0.11900
C 	C 	0.00344 0.13626 0.03908 0.38600
F 	F 	0.50112 0.84312 0.00237 -0.36600
C 	C 	0.52170 0.54136 0.60402 -0.07400
F 	F 	0.52171 0.12184 0.66250 -0.37600
C 	C 	0.52978 0.06980 0.51407 -0.05000
F 	F 	0.08115 0.29256 0.11191 -0.38400
H 	H 	0.52547 0.98463 0.65501 0.10900
C 	C 	0.01550 0.23392 0.07033 0.15000
F 	F 	0.53259 0.46326 0.26205 -0.38700
C 	C 	0.53277 0.99159 0.63738 0.03400
C 	C 	0.53266 0.41588 0.58481 0.31900
C 	C 	0.53126 0.73688 0.92731 0.27800
C 	C 	0.54461 0.23967 0.24115 0.78300
C 	C 	0.54124 0.76514 0.71912 0.05500
O 	O 	0.55068 0.17219 0.08806 -0.29100
O 	O 	0.54026 0.79622 0.91171 -0.30600
C 	C 	0.53784 0.54072 0.27126 0.78500
C 	C 	0.53919 0.06947 0.62705 -0.04700
C 	C 	0.54031 0.14571 0.64063 0.77600
C 	C 	0.54224 0.07432 0.60390 -0.01000
C 	C 	0.54080 0.92868 0.60239 -0.10500
Ni	Ni	0.54841 0.33778 0.33340 1.13600
C 	C 	0.54537 0.00488 0.59180 0.08700
F 	F 	0.00240 0.37104 0.11191 -0.39000
C 	C 	0.55051 0.41278 0.52580 0.30300
H 	H 	0.55248 0.66850 0.82899 0.09100
N 	N 	0.54505 0.57719 0.53684 -0.02400
C 	C 	0.55502 0.13935 0.53136 0.29900
C 	C 	0.55235 0.85803 0.58942 0.78700
H 	H 	0.55271 0.01092 0.57421 0.07500
F 	F 	0.55889 0.32759 0.24276 -0.38500
C 	C 	0.55915 0.15811 0.59245 0.33400
N 	N 	0.55855 0.18489 0.48561 -0.02300
C 	C 	0.56078 0.82293 0.73746 -0.08000
C 	C 	0.56705 0.80102 0.96507 0.05400
O 	O 	0.56911 0.43275 0.31040 -0.29000
C 	C 	0.57392 0.58763 0.40296 0.06700
F 	F 	0.99690 0.16824 0.70314 -0.38400
F 	F 	0.98514 0.24966 0.00427 -0.41500
H 	H 	0.99188 0.67340 0.02255 0.12000
C 	C 	0.98075 0.50620 0.65250 0.02700
F 	F 	0.97438 0.70973 0.67496 -0.41100
C 	C 	0.97036 0.57137 0.64030 0.04200
O 	O 	0.99277 0.44933 0.18825 -0.02000
C 	C 	0.97705 0.56630 0.48278 -0.02400
F 	F 	0.97641 0.74355 0.29502 -0.37900
H 	H 	0.99540 0.24905 0.82808 0.06800
H 	H 	0.97195 0.61150 0.47087 0.11400
O 	O 	0.95751 0.35778 0.85739 -0.02200
F 	F 	0.98941 0.32157 0.65530 -0.38300
O 	O 	0.97695 0.97830 0.22293 -0.73000
H 	H 	0.96468 0.97826 0.20713 0.17000
H 	H 	0.94348 0.27929 0.20897 0.12600
H 	H 	0.99325 0.17889 0.94130 0.08400
C 	C 	0.91752 0.41224 0.64821 -0.06400
C 	C 	0.81004 0.42501 0.59393 0.31700
C 	C 	0.83587 0.41744 0.53042 0.29800
Ni	Ni	0.71736 0.26935 0.56245 1.12400
Ni	Ni	0.70308 0.45366 0.55812 1.14500
O 	O 	0.61726 0.14695 0.54681 -0.34600
O 	O 	0.59781 0.47080 0.57080 -0.31300
O 	O 	0.82755 0.37615 0.57987 -0.32100
O 	O 	0.74795 0.45187 0.58919 -0.26900
O 	O 	0.64638 0.22675 0.59184 -0.33300
O 	O 	0.64502 0.45441 0.52906 -0.33600
O 	O 	0.79991 0.32898 0.53476 -0.33500
O 	O 	0.82875 0.47299 0.54484 -0.30700
O 	O 	0.64538 0.32482 0.55461 -0.72100
H 	H 	0.64740 0.32049 0.53856 0.16900
C 	C 	0.82805 0.91944 0.80021 0.26600
C 	C 	0.83082 0.92763 0.74330 0.29400
Ni	Ni	0.95828 0.08917 0.77262 1.11800
Ni	Ni	0.96555 0.89754 0.76984 1.12000
O 	O 	0.86210 0.00927 0.79716 -0.33100
O 	O 	0.84180 0.86805 0.78568 -0.34700
O 	O 	0.85003 0.00855 0.75053 -0.29100
O 	O 	0.89914 0.90583 0.74239 -0.29800
C 	C 	0.74276 0.48992 0.07040 0.28900
C 	C 	0.71858 0.53049 0.13265 0.31900
C 	C 	0.78273 0.30007 0.14760 0.32900
C 	C 	0.81922 0.28043 0.08950 0.29300
Ni	Ni	0.58339 0.38149 0.10221 1.12500
Ni	Ni	0.63297 0.22136 0.11519 1.13200
Ni	Ni	0.80237 0.42852 0.11141 1.14100
O 	O 	0.64817 0.43995 0.07265 -0.32000
O 	O 	0.79984 0.51617 0.08802 -0.29500
O 	O 	0.69051 0.26280 0.14475 -0.37100
O 	O 	0.84473 0.36860 0.08940 -0.27600
O 	O 	0.66491 0.51348 0.11515 -0.33300
O 	O 	0.76647 0.48713 0.13595 -0.34900
O 	O 	0.74979 0.21822 0.10245 -0.31600
O 	O 	0.84262 0.36755 0.13479 -0.30600
O 	O 	0.67264 0.34020 0.10441 -0.72400
H 	H 	0.67877 0.32851 0.08884 0.18100
C 	C 	0.83637 0.80075 0.19846 0.29900
C 	C 	0.86840 0.80441 0.25857 0.32500
C 	C 	0.95195 0.08246 0.26707 0.30800
C 	C 	0.89856 0.10109 0.20552 0.30700
Ni	Ni	0.85130 0.94077 0.23306 1.13200
O 	O 	0.92885 0.82570 0.19848 -0.34000
O 	O 	0.79522 0.81981 0.21524 -0.34200
O 	O 	0.83501 0.01296 0.20880 -0.34100
O 	O 	0.92123 0.79131 0.24414 -0.30300
O 	O 	0.87063 0.88245 0.25966 -0.31200
O 	O 	0.97200 0.14630 0.21917 -0.35800
O 	O 	0.87679 0.04400 0.25390 -0.32800
C 	C 	0.88948 0.48519 0.33512 0.30000
C 	C 	0.63555 0.43125 0.37359 0.32100
C 	C 	0.79746 0.25314 0.31630 0.29800
C 	C 	0.65470 0.50197 0.30573 0.30900
Ni	Ni	0.72654 0.32649 0.35537 1.12600
Ni	Ni	0.72635 0.37375 0.30396 1.15500
O 	O 	0.61515 0.19756 0.36221 -0.32800
O 	O 	0.73082 0.49314 0.30674 -0.33900
O 	O 	0.82596 0.46177 0.35051 -0.33500
O 	O 	0.86526 0.44214 0.31614 -0.25400
O 	O 	0.66341 0.37217 0.37884 -0.27900
O 	O 	0.62669 0.44512 0.35311 -0.35100
O 	O 	0.60343 0.31162 0.28547 -0.26000
O 	O 	0.80779 0.27882 0.33747 -0.30500
O 	O 	0.73674 0.26066 0.30339 -0.30300
O 	O 	0.65685 0.32213 0.33014 -0.71900
H 	H 	0.62429 0.25611 0.32677 0.17100
C 	C 	0.80096 0.91483 0.99708 0.34400
C 	C 	0.90060 0.76903 0.01306 0.29100
Ni	Ni	0.98133 0.94129 0.98219 1.10700
Ni	Ni	0.93636 0.94117 0.03383 1.12600
O 	O 	0.92924 0.05612 0.03461 -0.33800
O 	O 	0.87890 0.97729 0.98811 -0.34700
O 	O 	0.80851 0.88340 0.01635 -0.27400
O 	O 	0.89400 0.80407 0.99380 -0.29700
O 	O 	0.92676 0.81825 0.03127 -0.34400
F 	F 	0.62529 0.23847 0.24855 -0.38800
C 	C 	0.74907 0.66711 0.30923 0.06300
C 	C 	0.66832 0.59216 0.30003 0.03400
C 	C 	0.63887 0.60396 0.27922 -0.08000
C 	C 	0.70725 0.67159 0.26532 0.07100
C 	C 	0.80142 0.72963 0.27281 0.01400
C 	C 	0.82231 0.72935 0.29534 -0.05400
C 	C 	0.92487 0.78205 0.30361 0.78300
H 	H 	0.76390 0.66475 0.32645 0.12400
H 	H 	0.68702 0.68066 0.24901 0.09100
F 	F 	0.92925 0.78021 0.32622 -0.36900
F 	F 	0.96739 0.87255 0.29724 -0.34200
C 	C 	0.97167 0.22872 0.27903 0.05100
C 	C 	0.95176 0.14111 0.28469 0.03300
C 	C 	0.90530 0.10351 0.30473 -0.07700
C 	C 	0.86176 0.14634 0.31600 0.07600
C 	C 	0.85999 0.22174 0.30661 0.03900
C 	C 	0.91154 0.26031 0.28667 -0.05200
C 	C 	0.88126 0.30999 0.27043 0.78500
H 	H 	0.82378 0.11757 0.33119 0.10600
C 	C 	0.90392 0.01983 0.31417 0.78700
F 	F 	0.94254 0.34214 0.25261 -0.41100
F 	F 	0.88181 0.38469 0.27970 -0.42500
F 	F 	0.79041 0.24962 0.26268 -0.40100
F 	F 	0.99456 0.02991 0.31252 -0.35200
F 	F 	0.83889 0.94270 0.30273 -0.39900
F 	F 	0.87813 0.00787 0.33604 -0.38300
C 	C 	0.72008 0.55617 0.03577 0.07000
C 	C 	0.78052 0.53883 0.04917 0.02700
C 	C 	0.87604 0.56988 0.04206 -0.07600
C 	C 	0.91538 0.63821 0.02574 0.05800
C 	C 	0.85832 0.66922 0.01560 0.03600
C 	C 	0.75784 0.61460 0.01763 -0.08300
C 	C 	0.69098 0.62290 0.00164 0.78400
H 	H 	0.64441 0.52565 0.03959 0.11100
C 	C 	0.93049 0.52255 0.04934 0.76800
F 	F 	0.60624 0.54007 0.99976 -0.37600
F 	F 	0.73233 0.64665 0.98110 -0.39900
F 	F 	0.66990 0.68852 0.00901 -0.40900
F 	F 	0.87039 0.42866 0.04853 -0.42200
F 	F 	0.96497 0.54925 0.07036 -0.42400
C 	C 	0.85406 0.23605 0.05373 0.06000
C 	C 	0.87583 0.25239 0.07603 0.05700
C 	C 	0.96168 0.25832 0.08415 -0.11600
C 	C 	0.98578 0.20630 0.04878 -0.05400
C 	C 	0.91417 0.22155 0.03969 -0.03600
C 	C 	0.89893 0.21824 0.01519 0.77500
H 	H 	0.79196 0.23741 0.04721 0.13600
C 	C 	0.99340 0.28631 0.10763 0.76600
F 	F 	0.86107 0.27327 0.00923 -0.37000
F 	F 	0.83605 0.12917 0.00876 -0.37800
F 	F 	0.92623 0.22172 0.12155 -0.43700
C 	C 	0.79067 0.16057 0.15732 0.01200
C 	C 	0.81867 0.25252 0.16175 -0.04800
C 	C 	0.87531 0.29584 0.18032 0.14300
C 	C 	0.90272 0.24651 0.19431 -0.01300
C 	C 	0.87508 0.15439 0.18978 -0.04300
C 	C 	0.82250 0.11295 0.17056 0.12600
N 	N 	0.80652 0.02496 0.16370 -0.01600
H 	H 	0.74737 0.12712 0.14300 0.09300
N 	N 	0.90267 0.38886 0.18544 -0.02000
O 	O 	0.71979 0.95903 0.15965 -0.05100
O 	O 	0.87920 0.01304 0.15980 -0.05100
O 	O 	0.83720 0.41126 0.18914 -0.02500
C 	C 	0.70407 0.57099 0.17100 -0.01300
C 	C 	0.72432 0.59772 0.14905 -0.06000
C 	C 	0.76063 0.69062 0.14344 0.12400
C 	C 	0.78416 0.75647 0.16003 -0.02000
C 	C 	0.77488 0.73099 0.18218 -0.05000
C 	C 	0.72967 0.63687 0.18757 0.12200
N 	N 	0.71546 0.60814 0.20991 -0.02800
H 	H 	0.67324 0.49923 0.17535 0.10200
H 	H 	0.81742 0.82836 0.15568 0.10000
N 	N 	0.77902 0.71929 0.12107 -0.02200
O 	O 	0.62863 0.55714 0.21724 -0.00100
O 	O 	0.78780 0.61713 0.22141 -0.03900
O 	O 	0.73493 0.75829 0.11213 -0.02900
O 	O 	0.84659 0.71486 0.11036 -0.03800
C 	C 	0.59545 0.77121 0.94647 0.03900
C 	C 	0.68644 0.77774 0.94597 -0.08000
C 	C 	0.75082 0.82183 0.96320 0.10200
C 	C 	0.72378 0.85293 0.98182 0.01600
C 	C 	0.62983 0.83998 0.98311 -0.04500
C 	C 	0.59818 0.87175 0.00307 0.77800
H 	H 	0.82431 0.83703 0.96159 0.04200
C 	C 	0.71583 0.73899 0.92686 0.79000
F 	F 	0.64872 0.96648 0.00413 -0.36800
F 	F 	0.61541 0.83629 0.02184 -0.36700
F 	F 	0.71389 0.78123 0.90761 -0.42800
F 	F 	0.65330 0.64564 0.92516 -0.39300
F 	F 	0.80756 0.75232 0.92948 -0.41300
F 	F 	0.92961 0.25752 0.92065 -0.41200
C 	C 	0.75702 0.92095 0.83634 -0.02500
C 	C 	0.75467 0.87225 0.81745 -0.05000
C 	C 	0.68034 0.77965 0.81499 0.11400
C 	C 	0.60948 0.73896 0.83103 -0.00800
C 	C 	0.61025 0.78899 0.84935 -0.05700
C 	C 	0.68473 0.88019 0.85214 0.12800
N 	N 	0.68758 0.93150 0.87110 -0.02300
H 	H 	0.81449 0.99097 0.83868 0.08100
N 	N 	0.67559 0.72711 0.79614 -0.02100
O 	O 	0.75660 0.95627 0.88527 -0.02100
O 	O 	0.62824 0.96270 0.87282 -0.06100
O 	O 	0.71816 0.67849 0.79641 -0.04100
O 	O 	0.61607 0.71569 0.78042 -0.02800
C 	C 	0.61235 0.74601 0.71171 0.07000
C 	C 	0.65454 0.86823 0.74631 0.06800
C 	C 	0.73015 0.86179 0.73623 0.02200
C 	C 	0.70861 0.79998 0.71846 -0.06600
C 	C 	0.78713 0.79481 0.70578 0.78300
H 	H 	0.59443 0.69600 0.69877 0.13000
H 	H 	0.66990 0.91144 0.76062 0.09100
F 	F 	0.75182 0.74194 0.68705 -0.35700
F 	F 	0.82774 0.75560 0.71872 -0.41100
F 	F 	0.85660 0.88177 0.69932 -0.37800
F 	F 	0.96062 0.83373 0.66774 -0.34800
C 	C 	0.58256 0.45536 0.38932 0.03200
C 	C 	0.62807 0.54388 0.39883 -0.08500
C 	C 	0.73543 0.59485 0.40279 0.78600
H 	H 	0.60802 0.65521 0.41036 0.09100
F 	F 	0.76051 0.66162 0.41871 -0.40100
F 	F 	0.78248 0.63626 0.38357 -0.39400
F 	F 	0.76546 0.53484 0.40976 -0.40600
C 	C 	0.99067 0.55030 0.34069 0.00900
H 	H 	0.96504 0.65956 0.34954 0.13300
C 	C 	0.62636 0.58996 0.61086 0.78700
F 	F 	0.64271 0.65229 0.62744 -0.37300
F 	F 	0.68329 0.63676 0.59316 -0.37200
F 	F 	0.65249 0.52811 0.61862 -0.37800
C 	C 	0.86083 0.38661 0.62904 0.08100
C 	C 	0.86390 0.45368 0.61477 0.02900
C 	C 	0.92122 0.54751 0.62022 -0.05300
C 	C 	0.93404 0.62251 0.60433 0.76500
H 	H 	0.81709 0.31469 0.62483 0.12000
C 	C 	0.91861 0.33927 0.66250 0.78300
F 	F 	0.85305 0.63134 0.60463 -0.35000
F 	F 	0.94923 0.60197 0.58329 -0.42200
F 	F 	0.93671 0.36819 0.68407 -0.39100
F 	F 	0.83094 0.25885 0.66170 -0.36500
F 	F 	0.59806 0.89354 0.56967 -0.42000
F 	F 	0.60735 0.83063 0.60117 -0.39400
F 	F 	0.62943 0.22382 0.63908 -0.39000
O 	O 	0.63750 0.62473 0.53968 -0.01800
O 	O 	0.64524 0.24849 0.49063 -0.07100
C 	C 	0.98649 0.44452 0.51261 -0.02200
C 	C 	0.90755 0.45873 0.51293 -0.04600
C 	C 	0.90244 0.51923 0.49776 0.12200
H 	H 	0.99158 0.39929 0.52451 0.10500
N 	N 	0.81939 0.52950 0.49681 -0.02400
O 	O 	0.82488 0.60587 0.50313 -0.03700
O 	O 	0.74169 0.46683 0.48735 -0.04700
