data_crystal

_cell_length_a 46.29471
_cell_length_b 46.60707
_cell_length_c 35.05582
_cell_angle_alpha 89.99909
_cell_angle_beta  89.99948
_cell_angle_gamma 84.11213

_symmetry_space_group_name_	'P 1'
_symmetry_space_group_name_H-M	'P 1'

loop_
_symmetry_equiv_pos_as_xyz
  x,y,z

loop_
_atom_site_label
_atom_site_type_symbol
_atom_site_fract_x
_atom_site_fract_y
_atom_site_fract_z
_atom_site_charge
Ni	Ni	0.73438 0.86327 0.32938 1.09900
O 	O 	0.77918 0.85717 0.33067 -0.69700
Ni	Ni	0.78500 0.84859 0.38683 1.09700
O 	O 	0.73050 0.88386 0.27763 -0.37200
O 	O 	0.77423 0.90117 0.26991 -0.40900
O 	O 	0.73397 0.82442 0.30180 -0.37100
Ni	Ni	0.79812 0.89192 0.31932 1.06500
O 	O 	0.69234 0.81884 0.35151 -0.40800
O 	O 	0.76857 0.91455 0.35372 -0.43400
O 	O 	0.82919 0.84488 0.38727 -0.38700
O 	O 	0.74084 0.85151 0.38368 -0.71000
O 	O 	0.69024 0.86601 0.33187 -0.38500
O 	O 	0.78488 0.83502 0.44258 -0.36800
O 	O 	0.75740 0.79838 0.42919 -0.41400
Ni	Ni	0.72647 0.81353 0.38892 1.06200
H 	H 	0.78776 0.84087 0.31493 0.15200
H 	H 	0.73109 0.86588 0.40150 0.15400
C 	C 	0.77231 0.91413 0.39090 0.28400
O 	O 	0.75326 0.79403 0.34826 -0.41600
C 	C 	0.74575 0.90525 0.26918 0.29000
C 	C 	0.84333 0.86508 0.37215 0.28700
C 	C 	0.75051 0.80113 0.31210 0.28700
C 	C 	0.76858 0.81518 0.45420 0.27600
C 	C 	0.67703 0.84360 0.34294 0.28200
O 	O 	0.78342 0.89021 0.40825 -0.37000
O 	O 	0.82905 0.88953 0.36097 -0.41700
Ni	Ni	0.82674 0.62302 0.83142 1.09700
O 	O 	0.78218 0.62913 0.83642 -0.69800
Ni	Ni	0.77893 0.64045 0.89195 1.09700
O 	O 	0.82726 0.60100 0.78093 -0.37500
O 	O 	0.78456 0.58095 0.78022 -0.40700
O 	O 	0.82542 0.66107 0.80142 -0.37200
Ni	Ni	0.76237 0.59417 0.82991 1.06500
O 	O 	0.86998 0.66813 0.84587 -0.40900
O 	O 	0.79215 0.57228 0.86485 -0.43000
O 	O 	0.73482 0.64549 0.89533 -0.38500
O 	O 	0.82302 0.63636 0.88549 -0.71000
O 	O 	0.87096 0.62037 0.82938 -0.38800
O 	O 	0.78129 0.65619 0.94637 -0.36700
O 	O 	0.81070 0.69056 0.93017 -0.41300
Ni	Ni	0.83843 0.67412 0.88693 1.06200
H 	H 	0.77298 0.64477 0.82004 0.15200
H 	H 	0.83327 0.62233 0.90331 0.15300
C 	C 	0.78977 0.57503 0.90210 0.28300
O 	O 	0.80924 0.69267 0.84838 -0.41800
C 	C 	0.81301 0.57825 0.77684 0.28600
C 	C 	0.71947 0.62537 0.88255 0.28600
C 	C 	0.81017 0.68505 0.81227 0.28500
C 	C 	0.80000 0.67427 0.95619 0.27800
C 	C 	0.88470 0.64333 0.83621 0.28400
O 	O 	0.78000 0.60016 0.91744 -0.37000
O 	O 	0.73252 0.59994 0.87288 -0.41600
Ni	Ni	0.18044 0.75085 0.63261 1.09700
O 	O 	0.17437 0.79466 0.62646 -0.70900
Ni	Ni	0.16309 0.79797 0.57152 1.09700
O 	O 	0.19428 0.75354 0.68797 -0.36600
O 	O 	0.22731 0.78513 0.67463 -0.41300
O 	O 	0.13933 0.74986 0.65594 -0.37000
Ni	Ni	0.21099 0.81234 0.63096 1.06200
O 	O 	0.14321 0.70256 0.60918 -0.41700
O 	O 	0.23317 0.78443 0.59353 -0.41500
O 	O 	0.15784 0.84196 0.56985 -0.39000
O 	O 	0.17118 0.75387 0.57632 -0.69700
O 	O 	0.18747 0.70709 0.63554 -0.38400
O 	O 	0.14400 0.79717 0.51911 -0.37500
O 	O 	0.12369 0.75482 0.51718 -0.40800
Ni	Ni	0.13733 0.73263 0.56672 1.06500
H 	H 	0.15900 0.80401 0.64328 0.15300
H 	H 	0.18789 0.74551 0.56097 0.15100
C 	C 	0.22651 0.78439 0.55714 0.28500
O 	O 	0.11313 0.76032 0.60138 -0.43300
C 	C 	0.21073 0.77328 0.69932 0.27800
C 	C 	0.17957 0.85698 0.57876 0.28400
C 	C 	0.11411 0.75620 0.63844 0.28800
C 	C 	0.12128 0.78308 0.51341 0.28600
C 	C 	0.16890 0.69085 0.62048 0.28500
O 	O 	0.20249 0.79886 0.54477 -0.37100
O 	O 	0.20484 0.84364 0.58984 -0.40900
Ni	Ni	0.37677 0.76413 0.13043 1.09700
O 	O 	0.38294 0.72006 0.12996 -0.70900
Ni	Ni	0.39680 0.71298 0.07652 1.09700
O 	O 	0.36033 0.76572 0.18482 -0.36600
O 	O 	0.32890 0.73195 0.17503 -0.41200
O 	O 	0.41684 0.76598 0.15589 -0.37100
Ni	Ni	0.34621 0.70263 0.13430 1.06200
O 	O 	0.41777 0.80890 0.10744 -0.41300
O 	O 	0.32598 0.72858 0.09317 -0.41600
O 	O 	0.40154 0.66912 0.08019 -0.39100
O 	O 	0.38926 0.75721 0.07580 -0.69900
O 	O 	0.37109 0.80792 0.12764 -0.38600
O 	O 	0.41850 0.70987 0.02568 -0.37400
O 	O 	0.43947 0.75178 0.02109 -0.40800
Ni	Ni	0.42454 0.77662 0.06794 1.06500
H 	H 	0.39748 0.71195 0.14881 0.15100
H 	H 	0.37385 0.76483 0.05787 0.15300
C 	C 	0.33411 0.72654 0.05728 0.28300
O 	O 	0.44608 0.74957 0.10619 -0.43200
C 	C 	0.34509 0.74566 0.19823 0.27700
C 	C 	0.37913 0.65494 0.08860 0.28600
C 	C 	0.44195 0.75362 0.14302 0.28200
C 	C 	0.44162 0.72339 0.01988 0.28500
C 	C 	0.39205 0.82250 0.11533 0.28600
O 	O 	0.35837 0.71102 0.04766 -0.37000
O 	O 	0.35360 0.66916 0.09653 -0.40900
Ni	Ni	0.30637 0.14224 0.31638 1.09700
O 	O 	0.26260 0.15228 0.30671 -0.69900
Ni	Ni	0.24987 0.16455 0.35974 1.09700
O 	O 	0.31474 0.11989 0.26664 -0.37200
O 	O 	0.27123 0.10460 0.25073 -0.40900
O 	O 	0.31423 0.17947 0.28859 -0.37100
Ni	Ni	0.24176 0.11919 0.29303 1.06500
O 	O 	0.34977 0.18322 0.34647 -0.40800
O 	O 	0.26314 0.09540 0.33515 -0.42900
O 	O 	0.20670 0.17291 0.34859 -0.38700
O 	O 	0.29365 0.15669 0.36790 -0.71000
O 	O 	0.34953 0.13570 0.32908 -0.38900
O 	O 	0.24307 0.18056 0.41383 -0.36800
O 	O 	0.27776 0.21176 0.40925 -0.41300
Ni	Ni	0.31164 0.19262 0.37584 1.06200
H 	H 	0.25798 0.16818 0.28832 0.15300
H 	H 	0.29903 0.14226 0.38808 0.15200
C 	C 	0.25552 0.09942 0.37110 0.28000
O 	O 	0.29240 0.21308 0.32949 -0.41700
C 	C 	0.29942 0.09907 0.25594 0.28600
C 	C 	0.19233 0.15348 0.33202 0.28500
C 	C 	0.29900 0.20443 0.29460 0.28500
C 	C 	0.26100 0.19689 0.43026 0.27700
C 	C 	0.36371 0.15727 0.34086 0.28400
O 	O 	0.24315 0.12480 0.38271 -0.37000
O 	O 	0.20529 0.12735 0.32574 -0.41400
Ni	Ni	0.26714 0.37226 0.80643 1.09600
O 	O 	0.31171 0.36539 0.80377 -0.69600
Ni	Ni	0.32117 0.35396 0.85803 1.09700
O 	O 	0.26345 0.39122 0.75395 -0.37600
O 	O 	0.30422 0.41424 0.74714 -0.40600
O 	O 	0.26739 0.33278 0.78108 -0.38900
Ni	Ni	0.33139 0.39973 0.79226 1.06500
O 	O 	0.21628 0.34877 0.86293 -0.42400
O 	O 	0.30678 0.42286 0.83222 -0.42500
O 	O 	0.36501 0.34720 0.85176 -0.38700
O 	O 	0.27694 0.36167 0.86067 -0.70400
O 	O 	0.22261 0.37534 0.80907 -0.38900
O 	O 	0.32500 0.33801 0.91265 -0.37300
O 	O 	0.29252 0.30587 0.89999 -0.41900
Ni	Ni	0.25605 0.32911 0.87696 1.06600
H 	H 	0.31851 0.34941 0.78632 0.15600
H 	H 	0.27107 0.37843 0.87727 0.14900
C 	C 	0.31197 0.41880 0.86888 0.28000
O 	O 	0.25937 0.30260 0.83022 -0.40800
C 	C 	0.27568 0.41484 0.74683 0.28400
C 	C 	0.37939 0.36717 0.83635 0.28400
C 	C 	0.25445 0.31126 0.79486 0.29200
C 	C 	0.30910 0.31797 0.92434 0.27700
C 	C 	0.20894 0.35607 0.82764 0.29200
O 	O 	0.32532 0.39410 0.88126 -0.36900
O 	O 	0.36582 0.39284 0.82879 -0.41200
Ni	Ni	0.90149 0.24194 0.65048 1.10100
O 	O 	0.90557 0.19971 0.63353 -0.70000
Ni	Ni	0.90906 0.20388 0.57676 1.09800
O 	O 	0.88491 0.23415 0.70341 -0.37600
O 	O 	0.85033 0.20863 0.67756 -0.41600
O 	O 	0.94179 0.23681 0.67634 -0.37500
Ni	Ni	0.87329 0.17683 0.64489 1.06700
O 	O 	0.94146 0.29118 0.62986 -0.41200
O 	O 	0.84281 0.18384 0.60189 -0.39900
O 	O 	0.90571 0.16234 0.55803 -0.38600
O 	O 	0.90938 0.24551 0.59460 -0.70100
O 	O 	0.89950 0.28469 0.66275 -0.38100
O 	O 	0.91828 0.21566 0.52216 -0.37900
O 	O 	0.95993 0.23378 0.54159 -0.41200
Ni	Ni	0.94623 0.26125 0.58668 1.06400
H 	H 	0.92387 0.18957 0.64346 0.15500
H 	H 	0.89360 0.25837 0.58260 0.15300
C 	C 	0.84625 0.19766 0.56971 0.30500
O 	O 	0.96812 0.23206 0.62161 -0.42100
C 	C 	0.86220 0.21966 0.70756 0.27300
C 	C 	0.89334 0.14262 0.57775 0.29200
C 	C 	0.96686 0.23584 0.65849 0.30000
C 	C 	0.94296 0.22599 0.51396 0.27500
C 	C 	0.91640 0.30181 0.64527 0.27500
O 	O 	0.86615 0.21550 0.56663 -0.40400
O 	O 	0.89311 0.14307 0.61541 -0.42500
Ni	Ni	0.67031 0.23127 0.14594 1.09800
O 	O 	0.68401 0.27153 0.14240 -0.70800
Ni	Ni	0.67316 0.28190 0.08895 1.10100
O 	O 	0.68388 0.22764 0.20147 -0.37600
O 	O 	0.72984 0.23742 0.18515 -0.41000
O 	O 	0.63114 0.25128 0.16323 -0.40100
Ni	Ni	0.72580 0.27191 0.14650 1.06200
O 	O 	0.64124 0.18649 0.08506 -0.41500
O 	O 	0.73578 0.24245 0.10384 -0.41300
O 	O 	0.68472 0.32279 0.09068 -0.38400
O 	O 	0.66503 0.23963 0.09064 -0.70600
O 	O 	0.65333 0.19233 0.14874 -0.38700
O 	O 	0.65158 0.29032 0.03838 -0.37700
O 	O 	0.61170 0.27085 0.06138 -0.41400
Ni	Ni	0.62721 0.22873 0.07532 1.07000
H 	H 	0.67373 0.28533 0.16049 0.15600
H 	H 	0.67988 0.22714 0.07649 0.15100
C 	C 	0.72953 0.24845 0.06799 0.28900
O 	O 	0.60146 0.22903 0.12299 -0.39700
C 	C 	0.71030 0.23296 0.21152 0.27200
C 	C 	0.71149 0.32759 0.10038 0.27700
C 	C 	0.60662 0.24041 0.15635 0.31000
C 	C 	0.62430 0.28508 0.03464 0.27100
C 	C 	0.64954 0.17561 0.11889 0.28700
O 	O 	0.71073 0.27043 0.05895 -0.37400
O 	O 	0.73112 0.30577 0.11003 -0.40800
C 	C 	0.82215 0.19411 0.88480 -0.04000
C 	C 	0.81030 0.21296 0.85629 -0.00100
C 	C 	0.78594 0.23242 0.86447 -0.03900
H 	H 	0.77677 0.24718 0.84274 0.03900
C 	C 	0.77371 0.23328 0.90091 -0.03800
C 	C 	0.78571 0.21467 0.92955 -0.00100
C 	C 	0.80992 0.19499 0.92134 -0.03900
H 	H 	0.81929 0.18051 0.94324 0.03600
C 	C 	0.77335 0.21650 0.96834 0.02900
C 	C 	0.78929 0.22689 0.99852 -0.06900
C 	C 	0.77552 0.23476 0.03304 0.02100
C 	C 	0.74572 0.23248 0.03745 -0.09400
C 	C 	0.73048 0.21973 0.00849 0.01900
C 	C 	0.74427 0.21166 0.97413 -0.07000
C 	C 	0.82406 0.21317 0.81835 0.02400
C 	C 	0.80823 0.20741 0.78558 -0.06700
C 	C 	0.82061 0.20951 0.74942 0.00700
C 	C 	0.84901 0.21733 0.74571 -0.09100
C 	C 	0.86496 0.22265 0.77865 0.01000
C 	C 	0.85251 0.22063 0.81473 -0.06600
H 	H 	0.80801 0.20532 0.72437 0.03100
H 	H 	0.88700 0.22833 0.77633 0.03700
H 	H 	0.86486 0.22522 0.83987 0.04500
H 	H 	0.78625 0.20158 0.78812 0.04300
H 	H 	0.81187 0.23036 0.99450 0.04500
H 	H 	0.78753 0.24439 0.05536 0.02500
H 	H 	0.73194 0.20310 0.95126 0.04400
H 	H 	0.70753 0.21756 0.01181 0.01000
H 	H 	0.75514 0.24867 0.90707 0.04000
H 	H 	0.84092 0.17895 0.87872 0.03600
C 	C 	0.74637 0.21352 0.43264 -0.03900
C 	C 	0.77345 0.19751 0.43795 -0.00200
C 	C 	0.78810 0.18428 0.40651 -0.03900
H 	H 	0.80899 0.17183 0.41032 0.03800
C 	C 	0.77658 0.18837 0.36982 -0.03900
C 	C 	0.75027 0.20566 0.36430 -0.00100
C 	C 	0.73484 0.21760 0.39594 -0.04000
H 	H 	0.71439 0.23078 0.39198 0.03700
C 	C 	0.73987 0.21280 0.32534 0.02500
C 	C 	0.75574 0.22956 0.30146 -0.06800
C 	C 	0.74592 0.23643 0.26455 0.00900
C 	C 	0.72015 0.22648 0.25104 -0.08700
C 	C 	0.70412 0.20994 0.27522 0.01300
C 	C 	0.71396 0.20315 0.31217 -0.06700
C 	C 	0.78826 0.19807 0.47515 0.02700
C 	C 	0.79583 0.17238 0.49534 -0.06700
C 	C 	0.81311 0.17256 0.52810 0.01500
C 	C 	0.82350 0.19830 0.54029 -0.09100
C 	C 	0.81456 0.22420 0.52125 0.01900
C 	C 	0.79702 0.22408 0.48888 -0.06900
H 	H 	0.81929 0.15256 0.54312 0.03100
H 	H 	0.82187 0.24433 0.53090 0.02900
H 	H 	0.79111 0.24405 0.47364 0.04500
H 	H 	0.78894 0.15221 0.48516 0.04400
H 	H 	0.77563 0.23735 0.31158 0.04300
H 	H 	0.75830 0.24954 0.24651 0.01500
H 	H 	0.70154 0.19025 0.33046 0.04500
H 	H 	0.68423 0.20205 0.26532 0.03800
H 	H 	0.78846 0.17877 0.34559 0.03800
H 	H 	0.73480 0.22367 0.45676 0.03700
C 	C 	0.52212 0.33435 0.85875 -0.04000
C 	C 	0.49979 0.35348 0.87429 -0.00100
C 	C 	0.50369 0.36594 0.91016 -0.03800
H 	H 	0.48673 0.38094 0.92232 0.03900
C 	C 	0.52845 0.35736 0.93167 -0.03800
C 	C 	0.54942 0.33615 0.91763 -0.00100
C 	C 	0.54680 0.32559 0.88045 -0.03900
H 	H 	0.56315 0.30954 0.86913 0.03600
C 	C 	0.57117 0.32180 0.94381 0.02700
C 	C 	0.56818 0.29374 0.95657 -0.06800
C 	C 	0.58600 0.28152 0.98565 0.01300
C 	C 	0.60710 0.29719 0.00212 -0.09000
C 	C 	0.61093 0.32483 0.98826 0.01600
C 	C 	0.59292 0.33714 0.95930 -0.06700
C 	C 	0.47087 0.35689 0.85614 0.02600
C 	C 	0.45586 0.33259 0.85021 -0.06600
C 	C 	0.42635 0.33597 0.84110 0.01400
C 	C 	0.41143 0.36368 0.83835 -0.09100
C 	C 	0.42702 0.38796 0.84110 0.01300
C 	C 	0.45664 0.38455 0.84984 -0.06800
H 	H 	0.41484 0.31703 0.83770 0.03000
H 	H 	0.41601 0.40950 0.83811 0.03100
H 	H 	0.46820 0.40343 0.85350 0.04400
H 	H 	0.46670 0.31112 0.85454 0.04500
H 	H 	0.55141 0.28176 0.94477 0.04400
H 	H 	0.58315 0.26001 0.99573 0.00900
H 	H 	0.59538 0.35882 0.94961 0.04600
H 	H 	0.62723 0.33709 0.00067 0.03600
H 	H 	0.53047 0.36588 0.96020 0.03900
H 	H 	0.51964 0.32510 0.83073 0.03500
C 	C 	0.06912 0.28253 0.76670 -0.03900
C 	C 	0.06613 0.28024 0.72700 -0.00100
C 	C 	0.08677 0.29094 0.70287 -0.03900
H 	H 	0.08456 0.28950 0.67218 0.03600
C 	C 	0.11019 0.30375 0.71835 -0.03900
C 	C 	0.11298 0.30626 0.75806 -0.00100
C 	C 	0.09226 0.29570 0.78212 -0.03900
H 	H 	0.09416 0.29759 0.81280 0.03700
C 	C 	0.13819 0.31886 0.77460 0.02700
C 	C 	0.15630 0.30286 0.80067 -0.06900
C 	C 	0.17891 0.31531 0.81846 0.01600
C 	C 	0.18414 0.34374 0.80981 -0.09700
C 	C 	0.16650 0.35958 0.78298 0.01800
C 	C 	0.14349 0.34724 0.76559 -0.06900
C 	C 	0.04071 0.26777 0.71074 0.02600
C 	C 	0.04457 0.24468 0.68486 -0.06800
C 	C 	0.02043 0.23348 0.66875 0.01200
C 	C 	0.99224 0.24505 0.67872 -0.09500
C 	C 	0.98845 0.26763 0.70538 0.01800
C 	C 	0.01253 0.27905 0.72107 -0.06700
H 	H 	0.02364 0.21603 0.64828 0.02900
H 	H 	0.96682 0.27704 0.71292 0.04100
H 	H 	0.00928 0.29697 0.74082 0.04600
H 	H 	0.06623 0.23555 0.67705 0.04400
H 	H 	0.15273 0.28080 0.80731 0.04500
H 	H 	0.19277 0.30263 0.83844 0.01800
H 	H 	0.12962 0.35980 0.74551 0.04600
H 	H 	0.17039 0.38148 0.77587 0.03400
H 	H 	0.12621 0.31157 0.69952 0.03700
H 	H 	0.05343 0.27423 0.78559 0.03700
C 	C 	0.49907 0.22482 0.27823 -0.03900
C 	C 	0.52196 0.20719 0.26135 -0.00100
C 	C 	0.52247 0.17705 0.26389 -0.03800
H 	H 	0.54002 0.16323 0.25095 0.03800
C 	C 	0.49972 0.16470 0.28183 -0.03900
C 	C 	0.47620 0.18236 0.29728 -0.00000
C 	C 	0.47627 0.21249 0.29599 -0.03800
H 	H 	0.45823 0.22635 0.30777 0.03800
C 	C 	0.45049 0.16950 0.31217 0.02600
C 	C 	0.43438 0.15312 0.28802 -0.06500
C 	C 	0.40700 0.14599 0.29931 0.01700
C 	C 	0.39533 0.15551 0.33466 -0.08500
C 	C 	0.41265 0.16944 0.36020 0.01100
C 	C 	0.44012 0.17638 0.34903 -0.06700
C 	C 	0.54378 0.22017 0.23784 0.02700
C 	C 	0.57348 0.21500 0.24652 -0.06700
C 	C 	0.59425 0.22412 0.22143 0.01700
C 	C 	0.58548 0.23827 0.18734 -0.09000
C 	C 	0.55576 0.24509 0.18000 0.01800
C 	C 	0.53502 0.23606 0.20509 -0.06700
H 	H 	0.61713 0.21872 0.22742 0.03600
H 	H 	0.54873 0.25618 0.15392 0.02900
H 	H 	0.51216 0.24041 0.19827 0.04600
H 	H 	0.58048 0.20312 0.27202 0.04500
H 	H 	0.44233 0.14730 0.25970 0.04700
H 	H 	0.39402 0.13495 0.27944 0.04000
H 	H 	0.45269 0.18835 0.36831 0.04200
H 	H 	0.40412 0.17645 0.38782 0.01400
H 	H 	0.50003 0.14143 0.28294 0.03700
H 	H 	0.49855 0.24809 0.27666 0.03700
C 	C 	0.04962 0.19332 0.33819 -0.04000
C 	C 	0.06964 0.17229 0.35489 -0.00100
C 	C 	0.06200 0.15830 0.38833 -0.03800
H 	H 	0.07718 0.14198 0.40143 0.03900
C 	C 	0.03561 0.16672 0.40638 -0.03800
C 	C 	0.01666 0.18934 0.39137 -0.00100
C 	C 	0.02330 0.20195 0.35652 -0.04000
H 	H 	0.00863 0.21918 0.34444 0.03600
C 	C 	0.99229 0.20233 0.41477 0.02500
C 	C 	0.99372 0.22965 0.43108 -0.06700
C 	C 	0.97550 0.23871 0.46148 0.01200
C 	C 	0.95571 0.22052 0.47582 -0.08600
C 	C 	0.95210 0.19461 0.45672 0.01300
C 	C 	0.97038 0.18554 0.42634 -0.06600
C 	C 	0.09984 0.16786 0.34070 0.02600
C 	C 	0.11648 0.19135 0.33849 -0.06600
C 	C 	0.14647 0.18670 0.33304 0.01400
C 	C 	0.16028 0.15848 0.33042 -0.09100
C 	C 	0.14333 0.13511 0.32955 0.01200
C 	C 	0.11322 0.13982 0.33449 -0.06800
H 	H 	0.15911 0.20501 0.33234 0.03200
H 	H 	0.15350 0.11325 0.32655 0.03000
H 	H 	0.10048 0.12159 0.33519 0.04300
H 	H 	0.10638 0.21312 0.34283 0.04500
H 	H 	0.01024 0.24301 0.42189 0.04300
H 	H 	0.97793 0.25912 0.47530 0.01600
H 	H 	0.96870 0.16466 0.41339 0.04500
H 	H 	0.93651 0.18059 0.46698 0.03800
H 	H 	0.03060 0.15674 0.43317 0.03900
H 	H 	0.05501 0.20386 0.31197 0.03500
C 	C 	0.32325 0.28576 0.10755 -0.03900
C 	C 	0.29900 0.29102 0.08363 -0.00100
C 	C 	0.27112 0.28839 0.09806 -0.04000
H 	H 	0.25224 0.29281 0.07993 0.03400
C 	C 	0.26767 0.27906 0.13552 -0.04000
C 	C 	0.29207 0.27222 0.15879 -0.00100
C 	C 	0.31980 0.27640 0.14500 -0.03800
H 	H 	0.33877 0.27120 0.16276 0.04000
C 	C 	0.28908 0.25690 0.19514 0.02700
C 	C 	0.28003 0.22910 0.19494 -0.06800
C 	C 	0.28150 0.21261 0.22823 0.01500
C 	C 	0.29192 0.22379 0.26214 -0.09300
C 	C 	0.29925 0.25227 0.26297 0.01900
C 	C 	0.29795 0.26875 0.22951 -0.06900
C 	C 	0.30294 0.29736 0.04289 0.02400
C 	C 	0.29618 0.27745 0.01510 -0.06800
C 	C 	0.29912 0.28373 0.97640 0.00700
C 	C 	0.30878 0.31005 0.96511 -0.09600
C 	C 	0.31624 0.32965 0.99305 0.01000
C 	C 	0.31333 0.32330 0.03176 -0.06800
H 	H 	0.29364 0.26824 0.95523 0.02900
H 	H 	0.32361 0.35009 0.98482 0.03500
H 	H 	0.31872 0.33873 0.05306 0.04400
H 	H 	0.28852 0.25718 0.02350 0.04300
H 	H 	0.27302 0.21982 0.16859 0.04400
H 	H 	0.27563 0.19071 0.22733 0.01800
H 	H 	0.30473 0.29032 0.23002 0.04500
H 	H 	0.30727 0.26114 0.28901 0.02800
H 	H 	0.24615 0.27613 0.14601 0.03500
H 	H 	0.34483 0.28796 0.09673 0.03900
C 	C 	0.21531 0.23707 0.64422 -0.03900
C 	C 	0.23982 0.24199 0.66590 -0.00000
C 	C 	0.26764 0.23615 0.64999 -0.03900
H 	H 	0.28671 0.23992 0.66642 0.03700
C 	C 	0.27085 0.22685 0.61223 -0.04000
C 	C 	0.24629 0.22336 0.58997 -0.00100
C 	C 	0.21854 0.22782 0.60636 -0.03900
H 	H 	0.19946 0.22494 0.58945 0.03900
C 	C 	0.24958 0.21678 0.54900 0.02500
C 	C 	0.26017 0.23690 0.52423 -0.06800
C 	C 	0.26393 0.23049 0.48548 0.00900
C 	C 	0.25708 0.20386 0.47114 -0.09000
C 	C 	0.24644 0.18375 0.49603 0.01000
C 	C 	0.24266 0.19023 0.53476 -0.06700
C 	C 	0.23636 0.25673 0.70314 0.02600
C 	C 	0.22237 0.28487 0.70503 -0.06400
C 	C 	0.22603 0.30199 0.73700 0.01500
C 	C 	0.24359 0.29110 0.76738 -0.08800
C 	C 	0.25479 0.26194 0.76735 0.01400
C 	C 	0.25116 0.24479 0.73530 -0.06700
H 	H 	0.21676 0.32431 0.73709 0.03500
H 	H 	0.26792 0.25310 0.79097 0.03200
H 	H 	0.26137 0.22282 0.73454 0.04400
H 	H 	0.21036 0.29412 0.68069 0.04600
H 	H 	0.26546 0.25751 0.53500 0.04400
H 	H 	0.27193 0.24631 0.46665 0.03000
H 	H 	0.23460 0.17452 0.55374 0.04400
H 	H 	0.24135 0.16302 0.48545 0.03400
H 	H 	0.29238 0.22312 0.59992 0.03500
H 	H 	0.19375 0.24133 0.65630 0.03700
C 	C 	0.37401 0.94567 0.19741 -0.03800
C 	C 	0.37567 0.94164 0.15778 -0.00100
C 	C 	0.36928 0.96526 0.13332 -0.03900
H 	H 	0.37074 0.96239 0.10269 0.03600
C 	C 	0.36000 0.99243 0.14835 -0.03900
C 	C 	0.35688 0.99613 0.18794 -0.00100
C 	C 	0.36461 0.97278 0.21243 -0.03900
H 	H 	0.36232 0.97542 0.24303 0.03800
C 	C 	0.34293 0.02352 0.20347 0.02600
C 	C 	0.31434 0.03322 0.19308 -0.06700
C 	C 	0.30027 0.05806 0.20971 0.01300
C 	C 	0.31465 0.07347 0.23709 -0.08700
C 	C 	0.34344 0.06392 0.24711 0.01100
C 	C 	0.35752 0.03910 0.23030 -0.06600
C 	C 	0.38132 0.91233 0.14201 0.02600
C 	C 	0.35890 0.89946 0.12392 -0.06700
C 	C 	0.36288 0.87038 0.11360 0.01300
C 	C 	0.38936 0.85392 0.12119 -0.09100
C 	C 	0.41229 0.86718 0.13759 0.01500
C 	C 	0.40825 0.89626 0.14804 -0.06800
H 	H 	0.34516 0.86045 0.10055 0.02500
H 	H 	0.43285 0.85472 0.14360 0.03500
H 	H 	0.42573 0.90609 0.16180 0.04500
H 	H 	0.33807 0.91175 0.11902 0.04500
H 	H 	0.30284 0.02123 0.17256 0.04400
H 	H 	0.27818 0.06521 0.20138 0.02900
H 	H 	0.37963 0.03179 0.23845 0.04500
H 	H 	0.35476 0.07546 0.26830 0.03300
H 	H 	0.35441 0.01041 0.12922 0.03700
H 	H 	0.37897 0.92755 0.21650 0.04000
C 	C 	0.36036 0.50446 0.98678 -0.03900
C 	C 	0.33240 0.50949 0.97109 -0.00100
C 	C 	0.31522 0.53532 0.97914 -0.04000
H 	H 	0.29362 0.53937 0.96714 0.03700
C 	C 	0.32602 0.55612 0.00240 -0.03800
C 	C 	0.35415 0.55128 0.01765 -0.00100
C 	C 	0.37123 0.52532 0.00991 -0.03900
H 	H 	0.39296 0.52142 0.02154 0.03700
C 	C 	0.36604 0.57394 0.04033 0.02700
C 	C 	0.38683 0.59023 0.02432 -0.06600
C 	C 	0.39367 0.61544 0.04233 0.01700
C 	C 	0.37958 0.62464 0.07638 -0.08700
C 	C 	0.36109 0.60668 0.09426 0.01300
C 	C 	0.35419 0.58153 0.07618 -0.06800
C 	C 	0.32161 0.48816 0.94512 0.02600
C 	C 	0.32079 0.49325 0.90569 -0.06700
C 	C 	0.31499 0.47127 0.88053 0.01400
C 	C 	0.31011 0.44395 0.89466 -0.08800
C 	C 	0.30848 0.43976 0.93428 0.01400
C 	C 	0.31443 0.46170 0.95938 -0.06700
H 	H 	0.31593 0.47501 0.85007 0.02700
H 	H 	0.30399 0.41904 0.94560 0.02700
H 	H 	0.31445 0.45780 0.98985 0.04500
H 	H 	0.32587 0.51380 0.89448 0.04500
H 	H 	0.39649 0.58422 0.99694 0.04700
H 	H 	0.40838 0.62880 0.02847 0.03900
H 	H 	0.33861 0.56870 0.08917 0.04300
H 	H 	0.35066 0.61313 0.12103 0.01500
H 	H 	0.31273 0.57616 0.00814 0.03900
H 	H 	0.37379 0.48457 0.98063 0.04000
C 	C 	0.18626 0.98552 0.49600 -0.03900
C 	C 	0.20450 0.96067 0.50568 -0.00100
C 	C 	0.23375 0.95813 0.49439 -0.03900
H 	H 	0.24797 0.93898 0.50165 0.03900
C 	C 	0.24466 0.98020 0.47346 -0.03900
C 	C 	0.22644 0.00505 0.46379 -0.00100
C 	C 	0.19720 0.00766 0.47521 -0.03900
H 	H 	0.18295 0.02674 0.46775 0.03900
C 	C 	0.23778 0.02813 0.44109 0.02500
C 	C 	0.24427 0.02372 0.40232 -0.06700
C 	C 	0.25216 0.04648 0.37984 0.01100
C 	C 	0.25351 0.07397 0.39596 -0.08600
C 	C 	0.24890 0.07775 0.43539 0.01200
C 	C 	0.24086 0.05500 0.45775 -0.06600
C 	C 	0.19301 0.93717 0.52739 0.02600
C 	C 	0.17484 0.91895 0.50949 -0.06600
C 	C 	0.16793 0.89386 0.52787 0.01700
C 	C 	0.17928 0.88675 0.56426 -0.08600
C 	C 	0.19540 0.90631 0.58333 0.01200
C 	C 	0.20235 0.93132 0.56490 -0.06700
H 	H 	0.15526 0.87913 0.51289 0.03900
H 	H 	0.20386 0.90135 0.61165 0.01400
H 	H 	0.21593 0.94556 0.57923 0.04300
H 	H 	0.16718 0.92351 0.48070 0.04700
H 	H 	0.24234 0.00291 0.38933 0.04400
H 	H 	0.25601 0.04301 0.34964 0.02800
H 	H 	0.23643 0.05844 0.48784 0.04500
H 	H 	0.25057 0.09858 0.44848 0.03200
H 	H 	0.26723 0.97798 0.46476 0.03700
H 	H 	0.16366 0.98767 0.50458 0.03700
C 	C 	0.23575 0.74771 0.87790 -0.03800
C 	C 	0.23622 0.77444 0.85962 -0.00100
C 	C 	0.24698 0.79742 0.87905 -0.04000
H 	H 	0.24701 0.81827 0.86540 0.03500
C 	C 	0.25911 0.79309 0.91536 -0.04000
C 	C 	0.26053 0.76577 0.93248 -0.00100
C 	C 	0.24782 0.74340 0.91421 -0.03800
H 	H 	0.24866 0.72228 0.92731 0.03900
C 	C 	0.27882 0.75943 0.96640 0.02600
C 	C 	0.26665 0.74994 0.00022 -0.06800
C 	C 	0.28462 0.74016 0.03060 0.01600
C 	C 	0.31490 0.73966 0.02724 -0.09100
C 	C 	0.32692 0.75026 0.99399 0.01100
C 	C 	0.30897 0.76013 0.96376 -0.06700
C 	C 	0.22873 0.77727 0.81884 0.02500
C 	C 	0.20090 0.77237 0.80623 -0.06700
C 	C 	0.19485 0.77173 0.76719 0.01100
C 	C 	0.21660 0.77595 0.74043 -0.09000
C 	C 	0.24415 0.78186 0.75316 0.01000
C 	C 	0.25018 0.78246 0.79216 -0.06700
H 	H 	0.17336 0.76766 0.75776 0.03300
H 	H 	0.26114 0.78521 0.73288 0.03000
H 	H 	0.27177 0.78614 0.80165 0.04400
H 	H 	0.18414 0.76856 0.82664 0.04400
H 	H 	0.24337 0.74945 0.00256 0.04400
H 	H 	0.27508 0.73212 0.05617 0.03000
H 	H 	0.31855 0.76744 0.93776 0.04400
H 	H 	0.35023 0.75037 0.99130 0.02400
H 	H 	0.26853 0.81060 0.92948 0.03500
H 	H 	0.22729 0.72989 0.86324 0.04000
C 	C 	0.30765 0.72202 0.41726 -0.04000
C 	C 	0.30302 0.74927 0.43454 -0.00100
C 	C 	0.31166 0.77350 0.41557 -0.03800
H 	H 	0.30835 0.79461 0.42874 0.03900
C 	C 	0.32264 0.77088 0.37848 -0.03800
C 	C 	0.32510 0.74401 0.36010 -0.00100
C 	C 	0.31860 0.71940 0.38013 -0.04000
H 	H 	0.32091 0.69848 0.36637 0.03400
C 	C 	0.33112 0.74226 0.31885 0.02500
C 	C 	0.30956 0.73496 0.29356 -0.06700
C 	C 	0.31414 0.73580 0.25422 0.01000
C 	C 	0.34038 0.74402 0.23975 -0.09100
C 	C 	0.36221 0.75070 0.26514 0.01100
C 	C 	0.35757 0.74987 0.30451 -0.06700
C 	C 	0.28498 0.75319 0.46916 0.02700
C 	C 	0.25583 0.74750 0.46787 -0.06800
C 	C 	0.23708 0.75622 0.49780 0.01400
C 	C 	0.24731 0.77065 0.52938 -0.09200
C 	C 	0.27691 0.77460 0.53192 0.01800
C 	C 	0.29568 0.76596 0.50183 -0.06900
H 	H 	0.21435 0.75270 0.49581 0.02000
H 	H 	0.28508 0.78555 0.55630 0.02900
H 	H 	0.31824 0.77018 0.50326 0.04500
H 	H 	0.24739 0.73753 0.44287 0.04400
H 	H 	0.28899 0.72924 0.30440 0.04400
H 	H 	0.29710 0.73060 0.23503 0.03000
H 	H 	0.37439 0.75543 0.32384 0.04400
H 	H 	0.38275 0.75657 0.25438 0.03300
H 	H 	0.32787 0.78995 0.36337 0.04000
H 	H 	0.30145 0.70312 0.43190 0.03500
C 	C 	0.19117 0.56393 0.69498 -0.03800
C 	C 	0.19079 0.57038 0.65589 -0.00100
C 	C 	0.19939 0.54862 0.62937 -0.03900
H 	H 	0.19891 0.55336 0.59911 0.03600
C 	C 	0.20970 0.52100 0.64197 -0.03900
C 	C 	0.21166 0.51499 0.68118 -0.00100
C 	C 	0.20161 0.53636 0.70759 -0.03900
H 	H 	0.20297 0.53194 0.73792 0.03800
C 	C 	0.22711 0.48760 0.69466 0.02500
C 	C 	0.25646 0.48063 0.68533 -0.06700
C 	C 	0.27208 0.45633 0.70127 0.01400
C 	C 	0.25854 0.43878 0.72692 -0.08700
C 	C 	0.22888 0.44520 0.73520 0.01000
C 	C 	0.21324 0.46950 0.71910 -0.06500
C 	C 	0.18435 0.60046 0.64311 0.02600
C 	C 	0.15635 0.61469 0.64751 -0.06800
C 	C 	0.15099 0.64405 0.63890 0.01500
C 	C 	0.17368 0.65943 0.62604 -0.09300
C 	C 	0.20147 0.64495 0.62063 0.01300
C 	C 	0.20677 0.61559 0.62906 -0.06700
H 	H 	0.12945 0.65500 0.64330 0.03400
H 	H 	0.21906 0.65655 0.61042 0.02500
H 	H 	0.22846 0.60476 0.62558 0.04500
H 	H 	0.13891 0.60314 0.65830 0.04500
H 	H 	0.26736 0.49446 0.66647 0.04400
H 	H 	0.29479 0.45139 0.69403 0.03000
H 	H 	0.19052 0.47460 0.72626 0.04500
H 	H 	0.21814 0.43184 0.75486 0.03200
H 	H 	0.21707 0.50455 0.62133 0.03700
H 	H 	0.18446 0.58058 0.71564 0.03900
C 	C 	0.59375 0.64421 0.96204 -0.03800
C 	C 	0.59892 0.64410 0.92259 -0.00100
C 	C 	0.57609 0.65277 0.89744 -0.03900
H 	H 	0.57981 0.65251 0.86692 0.03600
C 	C 	0.54872 0.66286 0.91170 -0.03900
C 	C 	0.54398 0.66439 0.95123 -0.00100
C 	C 	0.56639 0.65433 0.97630 -0.03900
H 	H 	0.56293 0.65534 0.00686 0.03800
C 	C 	0.51655 0.67890 0.96640 0.02600
C 	C 	0.50897 0.70830 0.95905 -0.06700
C 	C 	0.48421 0.72271 0.97578 0.01300
C 	C 	0.46675 0.70786 0.00015 -0.08700
C 	C 	0.47402 0.67826 0.00680 0.01100
C 	C 	0.49881 0.66386 0.98999 -0.06600
C 	C 	0.62880 0.63805 0.90802 0.02600
C 	C 	0.64264 0.66019 0.89099 -0.06700
C 	C 	0.67201 0.65561 0.88126 0.01300
C 	C 	0.68782 0.62883 0.88839 -0.09300
C 	C 	0.67367 0.60627 0.90395 0.01500
C 	C 	0.64427 0.61090 0.91381 -0.06800
H 	H 	0.68263 0.67307 0.86890 0.02400
H 	H 	0.68564 0.58549 0.90962 0.03400
H 	H 	0.63371 0.59362 0.92675 0.04500
H 	H 	0.63086 0.68121 0.88636 0.04500
H 	H 	0.52258 0.72009 0.94092 0.04400
H 	H 	0.47872 0.74544 0.96994 0.03000
H 	H 	0.50444 0.64113 0.99573 0.04500
H 	H 	0.46081 0.66654 0.02557 0.03200
H 	H 	0.53144 0.67027 0.89211 0.03700
H 	H 	0.61122 0.63752 0.98168 0.03900
C 	C 	0.97247 0.70194 0.73482 -0.03900
C 	C 	0.98240 0.67970 0.76007 -0.00000
C 	C 	0.01234 0.67301 0.76574 -0.04000
H 	H 	0.02022 0.65595 0.78524 0.03700
C 	C 	0.03219 0.68836 0.74618 -0.03900
C 	C 	0.02225 0.71066 0.72096 -0.00100
C 	C 	0.99229 0.71738 0.71541 -0.03900
H 	H 	0.98437 0.73457 0.69612 0.03700
C 	C 	0.04326 0.72632 0.69946 0.02700
C 	C 	0.06398 0.74075 0.71893 -0.06700
C 	C 	0.08584 0.75280 0.69868 0.01700
C 	C 	0.08727 0.75044 0.65873 -0.08900
C 	C 	0.06527 0.73778 0.63915 0.01500
C 	C 	0.04350 0.72566 0.65943 -0.06800
C 	C 	0.96135 0.66432 0.78175 0.02600
C 	C 	0.95774 0.66918 0.82103 -0.06600
C 	C 	0.93419 0.65924 0.84019 0.01100
C 	C 	0.91399 0.64445 0.82021 -0.08500
C 	C 	0.91927 0.63715 0.78176 0.01700
C 	C 	0.94276 0.64721 0.76254 -0.06600
H 	H 	0.93059 0.66467 0.86999 0.01300
H 	H 	0.90402 0.62553 0.76604 0.03900
H 	H 	0.94571 0.64285 0.73236 0.04600
H 	H 	0.97227 0.68195 0.83627 0.04300
H 	H 	0.06361 0.74198 0.74979 0.04500
H 	H 	0.10232 0.76296 0.71414 0.03100
H 	H 	0.02744 0.71484 0.64407 0.04400
H 	H 	0.06591 0.73592 0.60835 0.01900
H 	H 	0.05527 0.68280 0.75043 0.03900
H 	H 	0.94939 0.70744 0.73052 0.04000
C 	C 	0.86672 0.43623 0.66053 -0.03900
C 	C 	0.89211 0.42268 0.67717 -0.00100
C 	C 	0.90697 0.43743 0.70464 -0.03900
H 	H 	0.92676 0.42726 0.71736 0.03800
C 	C 	0.89549 0.46471 0.71718 -0.03900
C 	C 	0.86909 0.47743 0.70230 -0.00100
C 	C 	0.85525 0.46351 0.67305 -0.03900
H 	H 	0.83503 0.47334 0.66109 0.03700
C 	C 	0.85438 0.50353 0.72023 0.02600
C 	C 	0.86645 0.52986 0.71779 -0.06700
C 	C 	0.85293 0.55436 0.73598 0.01400
C 	C 	0.82716 0.55270 0.75680 -0.08900
C 	C 	0.81520 0.52625 0.75921 0.01300
C 	C 	0.82870 0.50184 0.74094 -0.06800
C 	C 	0.90086 0.39192 0.66966 0.02600
C 	C 	0.89858 0.37157 0.69869 -0.06700
C 	C 	0.90424 0.34216 0.69090 0.01700
C 	C 	0.91219 0.33281 0.65396 -0.08800
C 	C 	0.91541 0.35317 0.62519 0.00900
C 	C 	0.90963 0.38265 0.63297 -0.06800
H 	H 	0.90225 0.32665 0.71352 0.03800
H 	H 	0.92174 0.34617 0.59665 0.00900
H 	H 	0.91154 0.39823 0.61041 0.04200
H 	H 	0.89184 0.37854 0.72711 0.04600
H 	H 	0.88632 0.53131 0.70190 0.04500
H 	H 	0.86244 0.57459 0.73377 0.04000
H 	H 	0.81941 0.48150 0.74329 0.04400
H 	H 	0.79563 0.52451 0.77565 0.02100
H 	H 	0.90644 0.47541 0.73957 0.03800
H 	H 	0.85519 0.42508 0.63914 0.03600
C 	C 	0.78392 0.46619 0.02518 -0.03900
C 	C 	0.76900 0.47630 0.99215 -0.00100
C 	C 	0.74417 0.46364 0.98057 -0.03900
H 	H 	0.73228 0.47147 0.95540 0.03700
C 	C 	0.73462 0.44081 0.00144 -0.03800
C 	C 	0.74964 0.43056 0.03433 -0.00000
C 	C 	0.77421 0.44352 0.04626 -0.04000
H 	H 	0.78592 0.43588 0.07165 0.03600
C 	C 	0.74061 0.40519 0.05499 0.02500
C 	C 	0.76018 0.38036 0.05937 -0.06500
C 	C 	0.75107 0.35552 0.07595 0.01100
C 	C 	0.72214 0.35509 0.08808 -0.08100
C 	C 	0.70284 0.38032 0.08502 0.01000
C 	C 	0.71205 0.40525 0.06859 -0.06500
C 	C 	0.77898 0.50055 0.97005 0.02500
C 	C 	0.78478 0.49744 0.93086 -0.06700
C 	C 	0.79057 0.52133 0.90898 0.00900
C 	C 	0.79055 0.54866 0.92608 -0.08600
C 	C 	0.78711 0.55115 0.96588 0.01300
C 	C 	0.78107 0.52731 0.98764 -0.06600
H 	H 	0.79394 0.51875 0.87854 0.02800
H 	H 	0.78797 0.57181 0.97978 0.03600
H 	H 	0.77708 0.52988 0.01796 0.04500
H 	H 	0.78400 0.47670 0.91715 0.04300
H 	H 	0.78225 0.38003 0.04899 0.04400
H 	H 	0.76627 0.33631 0.07805 0.03500
H 	H 	0.69686 0.42443 0.06589 0.04400
H 	H 	0.68061 0.38050 0.09473 0.03100
H 	H 	0.71577 0.43087 0.99179 0.03900
H 	H 	0.80308 0.47579 0.03442 0.03600
C 	C 	0.57887 0.78032 0.27264 -0.03900
C 	C 	0.57284 0.80940 0.28309 -0.00100
C 	C 	0.54607 0.82443 0.27331 -0.03900
H 	H 	0.54124 0.84687 0.28127 0.03700
C 	C 	0.52566 0.81061 0.25269 -0.03900
C 	C 	0.53196 0.78171 0.24154 -0.00100
C 	C 	0.55852 0.76655 0.25186 -0.03900
H 	H 	0.56355 0.74425 0.24334 0.03700
C 	C 	0.51141 0.76795 0.21724 0.02600
C 	C 	0.48517 0.76059 0.23250 -0.06700
C 	C 	0.46338 0.75260 0.20828 0.01500
C 	C 	0.46744 0.75253 0.16853 -0.08800
C 	C 	0.49483 0.75710 0.15371 0.01300
C 	C 	0.51667 0.76489 0.17799 -0.06700
C 	C 	0.59520 0.82440 0.30245 0.02600
C 	C 	0.60377 0.81656 0.33969 -0.06700
C 	C 	0.62910 0.82583 0.35498 0.01200
C 	C 	0.64624 0.84271 0.33296 -0.08600
C 	C 	0.63593 0.85307 0.29731 0.01700
C 	C 	0.61053 0.84385 0.28207 -0.06600
H 	H 	0.63645 0.81828 0.38292 0.01300
H 	H 	0.64867 0.86649 0.28022 0.04000
H 	H 	0.60374 0.85046 0.25355 0.04600
H 	H 	0.59166 0.80208 0.35599 0.04300
H 	H 	0.48121 0.76223 0.26292 0.04500
H 	H 	0.44273 0.74813 0.22026 0.02900
H 	H 	0.53714 0.76996 0.16609 0.04500
H 	H 	0.49862 0.75642 0.12322 0.02700
H 	H 	0.50519 0.82248 0.24475 0.03900
H 	H 	0.59954 0.76858 0.28000 0.03900
C 	C 	0.98741 0.84405 0.38303 -0.03900
C 	C 	0.96472 0.85422 0.40763 -0.00100
C 	C 	0.97032 0.85754 0.44662 -0.03800
H 	H 	0.95296 0.86547 0.46581 0.03900
C 	C 	0.99793 0.84909 0.46128 -0.03900
C 	C 	0.02018 0.83729 0.43705 -0.00100
C 	C 	0.01505 0.83563 0.39769 -0.03900
H 	H 	0.03221 0.82691 0.37869 0.03700
C 	C 	0.04766 0.82393 0.45336 0.02600
C 	C 	0.05510 0.79411 0.44982 -0.06700
C 	C 	0.07950 0.78083 0.46860 0.01400
C 	C 	0.09672 0.79726 0.49124 -0.08700
C 	C 	0.08968 0.82725 0.49388 0.01100
C 	C 	0.06529 0.84052 0.47498 -0.06600
C 	C 	0.93460 0.85798 0.39355 0.02600
C 	C 	0.92139 0.83396 0.38081 -0.06800
C 	C 	0.89176 0.83657 0.37246 0.01300
C 	C 	0.87504 0.86323 0.37672 -0.09400
C 	C 	0.88852 0.88758 0.38782 0.01500
C 	C 	0.91819 0.88494 0.39626 -0.06900
H 	H 	0.88165 0.81773 0.36341 0.02500
H 	H 	0.87587 0.90831 0.39116 0.03400
H 	H 	0.92826 0.90364 0.40588 0.04500
H 	H 	0.93390 0.81307 0.37859 0.04500
H 	H 	0.04157 0.78113 0.43324 0.04400
H 	H 	0.08484 0.75775 0.46581 0.03000
H 	H 	0.05976 0.86358 0.47774 0.04500
H 	H 	0.10273 0.84020 0.51124 0.03300
H 	H 	0.00171 0.85057 0.49169 0.03700
H 	H 	0.98335 0.84172 0.35281 0.03600
C 	C 	0.82392 0.71660 0.13352 -0.04000
C 	C 	0.80116 0.70456 0.11498 -0.00100
C 	C 	0.77467 0.70310 0.13398 -0.03900
H 	H 	0.75703 0.69368 0.11998 0.04000
C 	C 	0.77035 0.71521 0.17023 -0.03800
C 	C 	0.79247 0.72893 0.18776 -0.00100
C 	C 	0.81960 0.72871 0.16981 -0.03900
H 	H 	0.83692 0.73895 0.18332 0.03500
C 	C 	0.78588 0.74692 0.22185 0.02700
C 	C 	0.78600 0.77694 0.21934 -0.06700
C 	C 	0.77556 0.79454 0.24955 0.01200
C 	C 	0.76492 0.78232 0.28262 -0.09300
C 	C 	0.76619 0.75219 0.28598 0.01700
C 	C 	0.77657 0.73455 0.25563 -0.06900
C 	C 	0.80401 0.69610 0.07454 0.02500
C 	C 	0.80755 0.71703 0.04661 -0.06700
C 	C 	0.80699 0.70980 0.00795 0.01100
C 	C 	0.80279 0.68156 0.99687 -0.09100
C 	C 	0.80027 0.66041 0.02489 0.01200
C 	C 	0.80086 0.66766 0.06354 -0.06700
H 	H 	0.80902 0.72634 0.98669 0.03000
H 	H 	0.79754 0.63843 0.01672 0.03200
H 	H 	0.79834 0.65132 0.08492 0.04400
H 	H 	0.80992 0.73907 0.05485 0.04400
H 	H 	0.79319 0.78669 0.19342 0.04400
H 	H 	0.77511 0.81775 0.24689 0.02300
H 	H 	0.77659 0.71137 0.25792 0.04500
H 	H 	0.75817 0.74250 0.31145 0.02900
H 	H 	0.74937 0.71518 0.18389 0.03900
H 	H 	0.84459 0.71744 0.11929 0.03500
C 	C 	0.74969 0.76303 0.66854 -0.03900
C 	C 	0.77702 0.75899 0.68621 -0.00100
C 	C 	0.80118 0.76888 0.66813 -0.03800
H 	H 	0.82236 0.76592 0.68156 0.03900
C 	C 	0.79837 0.78115 0.63177 -0.03900
C 	C 	0.77140 0.78361 0.61318 -0.00100
C 	C 	0.74690 0.77526 0.63214 -0.04000
H 	H 	0.72591 0.77741 0.61819 0.03500
C 	C 	0.76941 0.79217 0.57270 0.02400
C 	C 	0.77515 0.81994 0.56160 -0.06600
C 	C 	0.77474 0.82750 0.52298 0.01000
C 	C 	0.76873 0.80728 0.49506 -0.08900
C 	C 	0.76268 0.77956 0.50635 0.00800
C 	C 	0.76304 0.77209 0.54495 -0.06700
C 	C 	0.78106 0.74124 0.72101 0.02700
C 	C 	0.79246 0.75263 0.75420 -0.06900
C 	C 	0.80040 0.73458 0.78518 0.01700
C 	C 	0.79710 0.70500 0.78308 -0.09100
C 	C 	0.78416 0.69402 0.75074 0.01400
C 	C 	0.77619 0.71204 0.71987 -0.06700
H 	H 	0.81025 0.74334 0.81006 0.02900
H 	H 	0.78114 0.67130 0.74905 0.02200
H 	H 	0.76727 0.70307 0.69446 0.04400
H 	H 	0.79604 0.77522 0.75550 0.04500
H 	H 	0.78002 0.83561 0.58287 0.04400
H 	H 	0.77902 0.84908 0.51479 0.03500
H 	H 	0.75877 0.75053 0.55326 0.04300
H 	H 	0.75805 0.76369 0.48525 0.02900
H 	H 	0.81737 0.78767 0.61743 0.03900
H 	H 	0.73085 0.75575 0.68243 0.03500
C 	C 	0.84864 0.02559 0.50003 -0.03900
C 	C 	0.83623 0.05429 0.50243 -0.00100
C 	C 	0.80821 0.06186 0.48787 -0.03900
H 	H 	0.79838 0.08394 0.48975 0.03600
C 	C 	0.79275 0.04086 0.47112 -0.04000
C 	C 	0.80515 0.01214 0.46894 -0.00100
C 	C 	0.83318 0.00462 0.48340 -0.03900
H 	H 	0.84306 0.98257 0.48143 0.03900
C 	C 	0.78942 0.99009 0.45009 0.02600
C 	C 	0.78227 0.96601 0.47073 -0.06600
C 	C 	0.77351 0.94206 0.45155 0.01500
C 	C 	0.77221 0.94185 0.41149 -0.08800
C 	C 	0.77623 0.96724 0.39129 0.01200
C 	C 	0.78498 0.99117 0.41053 -0.06700
C 	C 	0.85226 0.07620 0.52113 0.02600
C 	C 	0.86032 0.07300 0.55958 -0.06800
C 	C 	0.87503 0.09395 0.57760 0.01200
C 	C 	0.88168 0.11850 0.55739 -0.09100
C 	C 	0.87437 0.12121 0.51851 0.01300
C 	C 	0.85961 0.10023 0.50056 -0.06700
H 	H 	0.88081 0.09130 0.60742 0.02700
H 	H 	0.87914 0.14006 0.50256 0.03700
H 	H 	0.85364 0.10279 0.47078 0.04500
H 	H 	0.85487 0.05444 0.57564 0.04300
H 	H 	0.78487 0.96530 0.50145 0.04500
H 	H 	0.76934 0.92309 0.46768 0.03200
H 	H 	0.78984 0.00993 0.39442 0.04300
H 	H 	0.77442 0.96784 0.36049 0.02500
H 	H 	0.77117 0.04688 0.45989 0.03700
H 	H 	0.87030 0.01956 0.51100 0.03800
C 	C 	0.66534 0.01068 0.18285 -0.03900
C 	C 	0.69521 0.00178 0.18108 -0.00100
C 	C 	0.71358 0.01834 0.16059 -0.03900
H 	H 	0.73657 0.01137 0.15841 0.03700
C 	C 	0.70260 0.04470 0.14465 -0.03900
C 	C 	0.67308 0.05458 0.14868 -0.00100
C 	C 	0.65429 0.03689 0.16649 -0.03900
H 	H 	0.63136 0.04406 0.16914 0.03700
C 	C 	0.66279 0.08477 0.13911 0.02600
C 	C 	0.66760 0.09571 0.10257 -0.06700
C 	C 	0.66209 0.12530 0.09538 0.01100
C 	C 	0.65159 0.14415 0.12463 -0.08700
C 	C 	0.64513 0.13292 0.16045 0.01500
C 	C 	0.65084 0.10344 0.16770 -0.06600
C 	C 	0.70768 0.97697 0.20398 0.02700
C 	C 	0.72828 0.98096 0.23236 -0.06800
C 	C 	0.74042 0.95754 0.25383 0.01300
C 	C 	0.73192 0.92992 0.24742 -0.09100
C 	C 	0.71092 0.92595 0.21950 0.01800
C 	C 	0.69890 0.94940 0.19778 -0.06800
H 	H 	0.75640 0.96086 0.27555 0.01800
H 	H 	0.70428 0.90469 0.21417 0.03800
H 	H 	0.68299 0.94611 0.17598 0.04600
H 	H 	0.73486 0.00224 0.23775 0.04400
H 	H 	0.67646 0.08142 0.08013 0.04300
H 	H 	0.66696 0.13365 0.06752 0.02700
H 	H 	0.64694 0.09526 0.19596 0.04500
H 	H 	0.63634 0.14715 0.18300 0.03700
H 	H 	0.71728 0.05806 0.13074 0.03700
H 	H 	0.65092 0.99789 0.19823 0.03800
