data_crystal

_cell_length_a 37.98910
_cell_length_b 37.99814
_cell_length_c 20.10062
_cell_angle_alpha 91.54934
_cell_angle_beta  90.17266
_cell_angle_gamma 90.07900

_symmetry_space_group_name_	'P 1'
_symmetry_space_group_name_H-M	'P 1'

loop_
_symmetry_equiv_pos_as_xyz
  x,y,z

loop_
_atom_site_label
_atom_site_type_symbol
_atom_site_fract_x
_atom_site_fract_y
_atom_site_fract_z
_atom_site_charge
Cd	Cd	0.86248 0.90324 0.27468 1.24700
Cd	Cd	0.87662 0.97773 0.37960 1.21000
O 	O 	0.83790 0.85180 0.32926 -0.26500
O 	O 	0.85066 0.85006 0.22333 -0.33400
C 	C 	0.84253 0.83236 0.27597 0.28400
O 	O 	0.87630 0.94559 0.20315 -0.32600
O 	O 	0.90497 0.97971 0.28178 -0.35100
C 	C 	0.89080 0.97597 0.22202 0.27600
C 	C 	0.80446 0.94544 0.31365 0.32700
O 	O 	0.89848 0.92046 0.38336 -0.34600
O 	O 	0.79530 0.92452 0.26378 -0.25800
O 	O 	0.83520 0.94006 0.33877 -0.50800
C 	C 	0.92634 0.90743 0.35408 0.29200
O 	O 	0.92106 0.89420 0.29435 -0.34000
Cd	Cd	0.16024 0.88927 0.01974 1.25000
Cd	Cd	0.17010 0.90978 0.85213 1.18900
O 	O 	0.17017 0.82761 0.04718 -0.28000
O 	O 	0.15523 0.86657 0.12383 -0.30600
C 	C 	0.15959 0.83332 0.10785 0.28800
O 	O 	0.15844 0.94817 0.02126 -0.33700
O 	O 	0.14161 0.95184 0.91183 -0.38200
C 	C 	0.15173 0.96717 0.96849 0.28700
C 	C 	0.22874 0.89714 0.96761 0.32500
O 	O 	0.13193 0.87047 0.90296 -0.40200
O 	O 	0.22992 0.89708 0.03267 -0.27700
O 	O 	0.19878 0.88819 0.94142 -0.51100
C 	C 	0.10135 0.87732 0.93009 0.28300
O 	O 	0.10220 0.88807 0.99205 -0.26500
C 	C 	0.05509 0.74231 0.06608 0.16500
N 	N 	0.04077 0.71190 0.08751 -0.13300
C 	C 	0.02014 0.69183 0.04614 0.14300
N 	N 	0.01313 0.70280 0.98374 -0.14100
C 	C 	0.02689 0.73334 0.96218 0.14700
N 	N 	0.04841 0.75286 0.00296 -0.10000
C 	C 	0.92079 0.72398 0.38934 0.14400
N 	N 	0.93036 0.73281 0.45298 -0.12900
C 	C 	0.95403 0.71262 0.48567 0.14300
N 	N 	0.96772 0.68349 0.45486 -0.13800
C 	C 	0.95790 0.67449 0.39158 0.14100
N 	N 	0.93406 0.69450 0.35939 -0.13500
Cd	Cd	0.94895 0.95610 0.75465 1.25500
Cd	Cd	0.01949 0.97015 0.87069 1.25400
O 	O 	0.89259 0.95496 0.81229 -0.26900
O 	O 	0.89455 0.95297 0.70284 -0.27300
C 	C 	0.87539 0.95272 0.75672 0.27500
O 	O 	0.99702 0.96521 0.68975 -0.29400
O 	O 	0.03652 0.94947 0.77031 -0.32800
C 	C 	0.02960 0.96523 0.71420 0.28100
C 	C 	0.96283 0.02521 0.80529 0.31500
O 	O 	0.97666 0.92706 0.85921 -0.39100
O 	O 	0.94107 0.02599 0.75497 -0.22000
O 	O 	0.97029 0.99426 0.82664 -0.47500
C 	C 	0.97863 0.89767 0.82451 0.27900
O 	O 	0.96384 0.89749 0.76590 -0.26200
Cd	Cd	0.82932 0.11407 0.55171 1.24800
Cd	Cd	0.85256 0.11797 0.38162 1.22600
O 	O 	0.76827 0.12904 0.58021 -0.27800
O 	O 	0.80364 0.10548 0.65219 -0.29900
C 	C 	0.77131 0.11351 0.63666 0.28100
O 	O 	0.88294 0.08899 0.54737 -0.32100
O 	O 	0.89895 0.11611 0.45152 -0.40200
C 	C 	0.90433 0.09184 0.49598 0.29400
C 	C 	0.80533 0.05910 0.46170 0.25300
O 	O 	0.83195 0.15991 0.45753 -0.37100
O 	O 	0.80518 0.05004 0.52385 -0.27400
O 	O 	0.81427 0.09168 0.45271 -0.45400
C 	C 	0.85143 0.17993 0.49623 0.30200
O 	O 	0.85419 0.16987 0.55770 -0.29800
C 	C 	0.74152 0.94187 0.86345 0.14500
N 	N 	0.74342 0.95218 0.92880 -0.12200
C 	C 	0.71745 0.94318 0.97151 0.14300
N 	N 	0.68979 0.92368 0.94873 -0.14200
C 	C 	0.68686 0.91482 0.88309 0.13800
N 	N 	0.71276 0.92402 0.84043 -0.13700
C 	C 	0.66941 0.02562 0.55617 0.15200
N 	N 	0.63736 0.01215 0.57133 -0.12800
C 	C 	0.61758 0.99600 0.52304 0.14400
N 	N 	0.62946 0.99424 0.45942 -0.14200
C 	C 	0.66166 0.00717 0.44419 0.15900
N 	N 	0.68195 0.02221 0.49299 -0.12600
Cd	Cd	0.98943 0.17129 0.18888 1.25100
Cd	Cd	0.98982 0.10819 0.31678 1.24400
O 	O 	0.03073 0.22059 0.20493 -0.26500
O 	O 	0.99717 0.21600 0.11632 -0.31700
C 	C 	0.02003 0.23477 0.15047 0.28700
O 	O 	0.95532 0.12712 0.14755 -0.30300
O 	O 	0.94218 0.10648 0.25054 -0.37400
C 	C 	0.94417 0.10149 0.18563 0.29900
C 	C 	0.04491 0.12110 0.19306 0.34000
O 	O 	0.97970 0.16851 0.31867 -0.34800
O 	O 	0.04590 0.13781 0.13703 -0.20000
O 	O 	0.02208 0.13312 0.23557 -0.49300
C 	C 	0.94994 0.18485 0.31028 0.26700
O 	O 	0.94301 0.19404 0.24950 -0.33000
Cd	Cd	0.10509 0.18543 0.92496 1.25500
Cd	Cd	0.11084 0.11824 0.79729 1.22800
O 	O 	0.06488 0.23411 0.90208 -0.24800
O 	O 	0.09137 0.23003 0.99918 -0.30200
C 	C 	0.06952 0.24705 0.96181 0.27900
O 	O 	0.13563 0.14219 0.97257 -0.28900
O 	O 	0.15417 0.11859 0.87312 -0.43100
C 	C 	0.14763 0.11510 0.93676 0.31500
C 	C 	0.04941 0.13551 0.90974 0.30500
O 	O 	0.12211 0.17827 0.79870 -0.36900
O 	O 	0.04694 0.15279 0.96663 -0.22600
O 	O 	0.07400 0.14622 0.87065 -0.46900
C 	C 	0.15203 0.19355 0.81305 0.27500
O 	O 	0.15533 0.20609 0.87388 -0.25400
C 	C 	0.01743 0.37968 0.94177 0.14500
N 	N 	0.01481 0.37792 0.87443 -0.13100
C 	C 	0.00886 0.40742 0.83974 0.13800
N 	N 	0.00519 0.43888 0.87272 -0.14100
C 	C 	0.00884 0.44089 0.94006 0.13800
N 	N 	0.01444 0.41119 0.97465 -0.12500
C 	C 	0.00687 0.37400 0.23106 0.14500
N 	N 	0.00411 0.40713 0.20757 -0.12700
C 	C 	0.00030 0.43492 0.25094 0.14100
N 	N 	0.99989 0.42964 0.31733 -0.14400
C 	C 	0.00244 0.39672 0.34088 0.14300
N 	N 	0.00519 0.36878 0.29768 -0.13000
Cd	Cd	0.24472 0.02999 0.65501 1.24700
Cd	Cd	0.20039 0.05174 0.80414 1.21400
O 	O 	0.30959 0.02956 0.65129 -0.26800
O 	O 	0.27760 0.00817 0.56934 -0.33400
C 	C 	0.30874 0.01087 0.59616 0.29400
O 	O 	0.18854 0.01507 0.63487 -0.34600
O 	O 	0.16505 0.05245 0.71415 -0.40800
C 	C 	0.16141 0.02632 0.67035 0.30300
C 	C 	0.24646 0.98053 0.76048 0.24600
O 	O 	0.23924 0.08344 0.73950 -0.38600
O 	O 	0.25135 0.96594 0.70172 -0.29100
O 	O 	0.24247 0.01452 0.76022 -0.45000
C 	C 	0.23133 0.10312 0.68959 0.27100
O 	O 	0.23433 0.08841 0.63042 -0.25200
Cd	Cd	0.10387 0.97175 0.45316 1.25200
Cd	Cd	0.04109 0.96559 0.31991 1.23900
O 	O 	0.16015 0.94542 0.42118 -0.28100
O 	O 	0.15447 0.97481 0.51617 -0.29900
C 	C 	0.17497 0.95714 0.47543 0.29000
O 	O 	0.05699 0.00531 0.48896 -0.28800
O 	O 	0.01919 0.97391 0.42185 -0.34300
C 	C 	0.02597 0.00211 0.45842 0.29400
C 	C 	0.10729 0.02158 0.35084 0.30900
O 	O 	0.07186 0.92357 0.37790 -0.38900
O 	O 	0.12913 0.02943 0.39902 -0.18500
O 	O 	0.09324 0.99040 0.35299 -0.48900
C 	C 	0.06178 0.90885 0.43276 0.31400
O 	O 	0.07645 0.92136 0.48712 -0.27600
C 	C 	0.39267 0.90951 0.69803 0.14700
N 	N 	0.42629 0.89818 0.69026 -0.14300
C 	C 	0.44379 0.88402 0.74210 0.13800
N 	N 	0.42772 0.88196 0.80226 -0.14400
C 	C 	0.39374 0.89237 0.80980 0.15000
N 	N 	0.37627 0.90606 0.75747 -0.11700
C 	C 	0.31539 0.94542 0.39280 0.14700
N 	N 	0.31666 0.93982 0.32580 -0.12800
C 	C 	0.34803 0.93373 0.29533 0.14200
N 	N 	0.37801 0.93288 0.33222 -0.14000
C 	C 	0.37696 0.93983 0.39882 0.14000
N 	N 	0.34559 0.94600 0.42909 -0.13300
C 	C 	0.37794 0.89446 0.87708 -0.02200
C 	C 	0.38145 0.86653 0.92190 0.13100
C 	C 	0.37353 0.87246 0.98959 -0.06800
C 	C 	0.35961 0.90483 0.01208 0.00100
C 	C 	0.35265 0.93140 0.96580 0.09900
C 	C 	0.36220 0.92608 0.89890 -0.04300
N 	N 	0.39119 0.83381 0.89999 -0.19400
H 	H 	0.37805 0.85178 0.02475 0.06800
C 	C 	0.35602 0.91208 0.08485 -0.00100
N 	N 	0.33759 0.96234 0.98555 -0.19700
H 	H 	0.35822 0.94703 0.86409 0.08000
C 	C 	0.37936 0.93590 0.11631 -0.08000
C 	C 	0.37500 0.94583 0.18356 0.11400
C 	C 	0.34957 0.92830 0.22217 -0.03900
C 	C 	0.32656 0.90401 0.19104 -0.04800
C 	C 	0.32889 0.89642 0.12233 0.09200
H 	H 	0.39981 0.94821 0.08740 0.06600
N 	N 	0.39394 0.97332 0.20970 -0.19700
H 	H 	0.30678 0.89093 0.22034 0.07300
N 	N 	0.30489 0.87444 0.09278 -0.19700
H 	H 	0.41420 0.98457 0.18232 0.10400
H 	H 	0.38704 0.98549 0.25497 0.11000
H 	H 	0.28542 0.86249 0.12110 0.12200
H 	H 	0.30466 0.86970 0.04147 0.14800
H 	H 	0.33648 0.98331 0.95307 0.15700
H 	H 	0.32593 0.96551 0.03230 0.13300
H 	H 	0.39257 0.82738 0.84923 0.12200
H 	H 	0.39541 0.81380 0.93375 0.11000
C 	C 	0.23187 0.92749 0.48796 -0.01700
C 	C 	0.21345 0.95906 0.47963 -0.06600
C 	C 	0.23090 0.98778 0.45117 0.11500
C 	C 	0.26473 0.98326 0.42450 -0.04600
C 	C 	0.28132 0.95042 0.42602 -0.01300
C 	C 	0.26483 0.92230 0.45801 0.08000
N 	N 	0.28029 0.88788 0.45638 -0.02100
H 	H 	0.21874 0.90547 0.51054 0.08500
H 	H 	0.27780 0.00518 0.40147 0.09500
N 	N 	0.21334 0.02088 0.44503 -0.02500
O 	O 	0.28154 0.86978 0.51031 -0.07100
O 	O 	0.28871 0.87290 0.39969 -0.08400
O 	O 	0.20080 0.03713 0.49754 -0.02100
O 	O 	0.21203 0.03590 0.38768 -0.02700
C 	C 	0.32091 0.94704 0.59421 -0.01700
C 	C 	0.33374 0.98151 0.58822 -0.06800
C 	C 	0.36994 0.98785 0.59789 0.10800
C 	C 	0.39076 0.96239 0.62838 -0.05000
C 	C 	0.37588 0.93013 0.64594 -0.02100
C 	C 	0.34187 0.92127 0.62324 0.08300
N 	N 	0.32800 0.88665 0.63253 -0.01500
H 	H 	0.29351 0.94136 0.58360 0.07500
H 	H 	0.41783 0.96840 0.64160 0.06500
N 	N 	0.38503 0.02095 0.58075 -0.02200
O 	O 	0.29625 0.88264 0.65518 -0.05700
O 	O 	0.34669 0.85910 0.61621 -0.07600
O 	O 	0.40537 0.03790 0.62281 -0.08000
O 	O 	0.37855 0.03408 0.52288 -0.07900
C 	C 	0.00546 0.40492 0.76646 -0.03900
C 	C 	0.02587 0.42631 0.72453 0.11000
C 	C 	0.02120 0.42341 0.65528 -0.07900
C 	C 	0.99931 0.39728 0.62693 -0.00400
C 	C 	0.98029 0.37466 0.66865 0.09200
C 	C 	0.98274 0.37946 0.73803 -0.04900
N 	N 	0.05116 0.44824 0.74998 -0.19800
H 	H 	0.03600 0.44045 0.62313 0.06300
C 	C 	0.99772 0.39309 0.55340 0.00300
N 	N 	0.95974 0.34832 0.64258 -0.19300
H 	H 	0.96739 0.36284 0.77007 0.07200
C 	C 	0.02629 0.37755 0.51979 -0.07900
C 	C 	0.02817 0.37750 0.44999 0.12400
C 	C 	0.99972 0.39137 0.41311 -0.04500
C 	C 	0.97005 0.40461 0.44680 -0.04200
C 	C 	0.96915 0.40658 0.51660 0.07800
H 	H 	0.04793 0.36691 0.54820 0.08100
N 	N 	0.05774 0.36524 0.41915 -0.19800
H 	H 	0.94819 0.41492 0.41849 0.06300
N 	N 	0.94108 0.42186 0.54778 -0.19300
H 	H 	0.07813 0.35435 0.44687 0.12400
H 	H 	0.06137 0.36727 0.36800 0.11600
H 	H 	0.92007 0.43156 0.52008 0.10200
H 	H 	0.93988 0.42456 0.59952 0.10000
H 	H 	0.94544 0.33208 0.67382 0.12500
H 	H 	0.95811 0.34333 0.59135 0.12300
H 	H 	0.05993 0.44638 0.79895 0.10400
H 	H 	0.06430 0.46564 0.71919 0.09900
C 	C 	0.17533 0.18146 0.70016 0.04300
C 	C 	0.18233 0.18976 0.76744 0.00800
C 	C 	0.21648 0.18292 0.79225 -0.09100
C 	C 	0.23711 0.15741 0.75899 0.05000
C 	C 	0.22461 0.14110 0.69999 0.01000
C 	C 	0.19723 0.15772 0.66505 -0.09200
C 	C 	0.19081 0.14977 0.59186 0.78500
H 	H 	0.15107 0.19040 0.67770 0.11200
H 	H 	0.26093 0.14782 0.78212 0.10800
C 	C 	0.23085 0.20202 0.85357 0.78400
F 	F 	0.17154 0.17634 0.56322 -0.38500
F 	F 	0.17235 0.11858 0.58421 -0.37000
F 	F 	0.22251 0.14695 0.55843 -0.39700
F 	F 	0.22110 0.18430 0.90983 -0.39600
F 	F 	0.21831 0.23620 0.85756 -0.40800
F 	F 	0.26724 0.20365 0.85135 -0.40400
C 	C 	0.07091 0.30771 0.01014 -0.02100
C 	C 	0.05120 0.27911 0.98479 -0.05500
C 	C 	0.01560 0.28424 0.96705 0.11300
C 	C 	0.00202 0.31844 0.96583 -0.05000
C 	C 	0.02412 0.34740 0.97822 -0.01000
C 	C 	0.05734 0.34195 0.00747 0.08000
N 	N 	0.07826 0.37123 0.03027 -0.01900
H 	H 	0.09763 0.30371 0.02738 0.09100
H 	H 	0.97537 0.32261 0.94836 0.08400
N 	N 	0.99413 0.25509 0.94479 -0.02100
O 	O 	0.06673 0.39211 0.07768 -0.09400
O 	O 	0.10978 0.37566 0.00679 -0.07900
O 	O 	0.99416 0.22593 0.97721 -0.04700
O 	O 	0.97430 0.25782 0.89229 -0.04000
C 	C 	0.08831 0.11040 0.27955 0.05300
C 	C 	0.07522 0.10087 0.21668 0.00100
C 	C 	0.08091 0.06609 0.19248 -0.05700
C 	C 	0.08911 0.03989 0.23833 0.06500
C 	C 	0.09438 0.04875 0.30590 -0.00300
C 	C 	0.09235 0.08467 0.32741 -0.09000
C 	C 	0.09211 0.09568 0.40073 0.77600
H 	H 	0.08894 0.13802 0.29454 0.10200
H 	H 	0.09355 0.01303 0.22077 0.06900
C 	C 	0.08831 0.05880 0.11959 0.78600
F 	F 	0.07541 0.12779 0.41035 -0.39900
F 	F 	0.12630 0.09893 0.42391 -0.35800
F 	F 	0.07415 0.07144 0.43788 -0.41800
F 	F 	0.07005 0.08103 0.07874 -0.40300
F 	F 	0.07916 0.02454 0.10199 -0.38800
F 	F 	0.12392 0.06321 0.10902 -0.42200
C 	C 	0.99155 0.29217 0.12785 -0.02200
C 	C 	0.02208 0.27337 0.14422 -0.06000
C 	C 	0.05130 0.29194 0.17123 0.11400
C 	C 	0.04752 0.32730 0.19158 -0.04800
C 	C 	0.01497 0.34416 0.18557 -0.00900
C 	C 	0.98797 0.32761 0.14814 0.08100
N 	N 	0.95632 0.34622 0.13315 -0.02000
H 	H 	0.96975 0.27875 0.10318 0.08500
H 	H 	0.06916 0.34085 0.21657 0.08200
N 	N 	0.08399 0.27422 0.18268 -0.02200
O 	O 	0.95778 0.37499 0.09963 -0.09000
O 	O 	0.92590 0.33306 0.14868 -0.07100
O 	O 	0.09756 0.25393 0.13640 -0.05200
O 	O 	0.10061 0.27901 0.23890 -0.04900
C 	C 	0.58299 0.98085 0.53901 -0.05300
C 	C 	0.57365 0.94687 0.51442 0.10900
C 	C 	0.53798 0.93825 0.50591 -0.08800
C 	C 	0.51180 0.96237 0.52510 -0.00500
C 	C 	0.52129 0.99305 0.56244 0.07100
C 	C 	0.55696 0.00264 0.56742 -0.04700
N 	N 	0.59878 0.92257 0.49908 -0.20100
H 	H 	0.53064 0.91351 0.48151 0.06200
C 	C 	0.47605 0.95837 0.49607 -0.00200
N 	N 	0.49630 0.01374 0.59174 -0.19200
H 	H 	0.56425 0.02782 0.59018 0.07100
C 	C 	0.45446 0.93075 0.51672 -0.08600
C 	C 	0.42187 0.92403 0.48554 0.11200
C 	C 	0.40996 0.94668 0.43539 -0.04600
C 	C 	0.43083 0.97521 0.41703 -0.04300
C 	C 	0.46443 0.98036 0.44452 0.08100
H 	H 	0.46346 0.91385 0.55591 0.06100
N 	N 	0.40264 0.89550 0.50300 -0.20100
H 	H 	0.42153 0.99255 0.37877 0.06100
N 	N 	0.48580 0.00557 0.41962 -0.19100
H 	H 	0.41183 0.87885 0.53977 0.11000
H 	H 	0.37851 0.88949 0.48047 0.11900
H 	H 	0.47630 0.02276 0.38406 0.10600
H 	H 	0.51240 0.00724 0.43235 0.10400
H 	H 	0.50331 0.03710 0.61704 0.11300
H 	H 	0.46988 0.00610 0.59175 0.11100
H 	H 	0.62525 0.92725 0.51053 0.11700
H 	H 	0.59181 0.89801 0.47835 0.10100
C 	C 	0.48174 0.87631 0.73620 -0.05100
C 	C 	0.49684 0.84756 0.76926 0.11000
C 	C 	0.53300 0.84800 0.78391 -0.08500
C 	C 	0.55419 0.87587 0.76328 -0.00200
C 	C 	0.54023 0.90065 0.71916 0.07700
C 	C 	0.50388 0.90102 0.70673 -0.05100
N 	N 	0.47691 0.81946 0.78616 -0.19900
H 	H 	0.54424 0.82771 0.81434 0.06300
C 	C 	0.58759 0.88326 0.79892 -0.00200
N 	N 	0.56136 0.92497 0.69105 -0.19400
H 	H 	0.49264 0.92184 0.67754 0.05300
C 	C 	0.61826 0.86540 0.77916 -0.08400
C 	C 	0.65080 0.87365 0.80922 0.11100
C 	C 	0.65280 0.90179 0.85685 -0.04700
C 	C 	0.62188 0.91881 0.87791 -0.04800
C 	C 	0.58917 0.90915 0.85081 0.07800
H 	H 	0.61677 0.84487 0.74070 0.06500
N 	N 	0.67956 0.85374 0.79401 -0.19800
H 	H 	0.62331 0.93993 0.91524 0.05700
N 	N 	0.55941 0.92475 0.87489 -0.19300
H 	H 	0.67822 0.83418 0.75650 0.10400
H 	H 	0.70279 0.85603 0.82166 0.10600
H 	H 	0.56100 0.94474 0.91153 0.09600
H 	H 	0.53443 0.91645 0.85940 0.09800
H 	H 	0.55055 0.94487 0.66264 0.09500
H 	H 	0.58872 0.92372 0.69565 0.10000
H 	H 	0.45100 0.81667 0.76928 0.10500
H 	H 	0.48783 0.79912 0.81343 0.09900
C 	C 	0.71571 0.95981 0.03884 -0.04200
C 	C 	0.74254 0.95488 0.08694 0.14000
C 	C 	0.73786 0.96849 0.15211 -0.06700
C 	C 	0.70563 0.98340 0.17171 0.01400
C 	C 	0.67942 0.98954 0.12320 0.08000
C 	C 	0.68515 0.97844 0.05694 -0.03700
N 	N 	0.77191 0.93579 0.07208 -0.19400
H 	H 	0.75841 0.96525 0.18874 0.10200
C 	C 	0.69803 0.98849 0.24381 0.00300
N 	N 	0.64855 0.00557 0.13995 -0.19000
H 	H 	0.66507 0.98311 0.01973 0.05900
C 	C 	0.70144 0.02219 0.27335 -0.07800
C 	C 	0.68966 0.02914 0.33869 0.12600
C 	C 	0.67589 0.00120 0.37628 -0.03700
C 	C 	0.67393 0.96719 0.34746 -0.02900
C 	C 	0.68472 0.96053 0.28161 0.09800
H 	H 	0.71104 0.04361 0.24387 0.11700
N 	N 	0.69035 0.06277 0.36369 -0.20100
H 	H 	0.66377 0.94576 0.37640 0.08500
N 	N 	0.68193 0.92734 0.25491 -0.18800
H 	H 	0.70269 0.08264 0.33733 0.15200
H 	H 	0.67706 0.06999 0.40727 0.12400
H 	H 	0.67208 0.90691 0.28330 0.12100
H 	H 	0.68953 0.92135 0.20607 0.10600
H 	H 	0.62919 0.00955 0.10386 0.10200
H 	H 	0.64348 0.01446 0.18853 0.10300
H 	H 	0.77511 0.92301 0.02594 0.12200
H 	H 	0.79143 0.93234 0.10807 0.14400
C 	C 	0.91420 0.19491 0.48366 0.05100
C 	C 	0.87908 0.20150 0.46655 -0.00400
C 	C 	0.87211 0.21829 0.40620 -0.11100
C 	C 	0.89714 0.21584 0.35522 0.04100
C 	C 	0.93006 0.20044 0.36734 -0.00600
C 	C 	0.94041 0.19535 0.43448 -0.09900
C 	C 	0.97872 0.19188 0.45457 0.79200
H 	H 	0.92053 0.18621 0.53315 0.13000
H 	H 	0.89020 0.22380 0.30549 0.08800
C 	C 	0.83679 0.23509 0.39317 0.78300
F 	F 	0.98360 0.20293 0.52018 -0.38200
F 	F 	0.99996 0.21254 0.41561 -0.41300
F 	F 	0.98898 0.15704 0.44827 -0.44000
F 	F 	0.82079 0.24561 0.45220 -0.41900
F 	F 	0.81521 0.21127 0.35946 -0.43600
F 	F 	0.84105 0.26448 0.35479 -0.42300
C 	C 	0.94009 0.04952 0.43017 0.04700
C 	C 	0.93584 0.06907 0.48939 -0.02100
C 	C 	0.96378 0.07028 0.53652 -0.06800
C 	C 	0.99302 0.04756 0.52708 0.06300
C 	C 	0.99791 0.02946 0.46597 0.04500
C 	C 	0.97244 0.03363 0.41476 -0.14900
C 	C 	0.98002 0.02277 0.34325 0.76300
H 	H 	0.91891 0.04875 0.39383 -0.01100
H 	H 	0.01148 0.04376 0.56721 0.11400
C 	C 	0.96286 0.09547 0.59611 0.78500
F 	F 	0.95925 0.04155 0.30034 -0.52500
F 	F 	0.97269 0.98742 0.33281 -0.52900
F 	F 	0.01483 0.02949 0.32819 -0.55800
F 	F 	0.94043 0.08253 0.64365 -0.42600
F 	F 	0.95146 0.12839 0.57787 -0.39200
F 	F 	0.99609 0.09958 0.62345 -0.37400
C 	C 	0.70750 0.10374 0.64846 -0.01300
C 	C 	0.74182 0.09109 0.65795 -0.05600
C 	C 	0.74674 0.05428 0.65950 0.11400
C 	C 	0.72107 0.03179 0.63128 -0.05000
C 	C 	0.68964 0.04577 0.60678 -0.01400
C 	C 	0.68155 0.08138 0.62084 0.08400
N 	N 	0.64817 0.09550 0.60215 -0.02000
H 	H 	0.70236 0.13173 0.65360 0.08600
H 	H 	0.72628 0.00383 0.62546 0.09300
N 	N 	0.77842 0.03991 0.68632 -0.02300
O 	O 	0.61948 0.08398 0.62925 -0.08500
O 	O 	0.64662 0.12125 0.56090 -0.07400
O 	O 	0.79199 0.05350 0.74069 -0.05400
O 	O 	0.79370 0.01325 0.65652 -0.07300
C 	C 	0.12286 0.97357 0.66041 0.03800
C 	C 	0.12623 0.01019 0.65910 -0.01100
C 	C 	0.09550 0.03100 0.65346 -0.11800
C 	C 	0.06244 0.01578 0.66743 0.03700
C 	C 	0.05946 0.97922 0.67508 0.01300
C 	C 	0.08937 0.95790 0.66189 -0.12300
C 	C 	0.08594 0.91865 0.65106 0.79400
H 	H 	0.14626 0.95727 0.66100 0.05000
H 	H 	0.03958 0.03242 0.67505 0.07000
C 	C 	0.09760 0.06784 0.62678 0.80100
F 	F 	0.11361 0.90543 0.61334 -0.44800
F 	F 	0.05505 0.91079 0.61746 -0.40400
F 	F 	0.08613 0.90262 0.71176 -0.45500
F 	F 	0.12071 0.06833 0.57376 -0.36900
F 	F 	0.10912 0.09114 0.67601 -0.51700
F 	F 	0.06520 0.07908 0.60439 -0.38300
C 	C 	0.00469 0.08905 0.92839 0.06800
C 	C 	0.02075 0.11247 0.88500 -0.01000
C 	C 	0.01036 0.11206 0.81730 -0.10500
C 	C 	0.99281 0.08230 0.79120 0.05700
C 	C 	0.97887 0.05738 0.83386 -0.02000
C 	C 	0.98100 0.06344 0.90345 -0.08200
C 	C 	0.95744 0.04404 0.95098 0.78700
H 	H 	0.01056 0.09074 0.98113 0.14400
H 	H 	0.98968 0.07872 0.73803 0.12200
C 	C 	0.01555 0.14375 0.77402 0.78700
F 	F 	0.94939 0.06558 0.00527 -0.40600
F 	F 	0.97454 0.01434 0.97254 -0.43500
F 	F 	0.92588 0.03423 0.92123 -0.41800
F 	F 	0.04687 0.14042 0.73963 -0.45600
F 	F 	0.01587 0.17480 0.81169 -0.41800
F 	F 	0.98826 0.14609 0.72861 -0.36200
C 	C 	0.82231 0.98470 0.79253 -0.01500
C 	C 	0.83690 0.95626 0.75622 -0.04200
C 	C 	0.81582 0.92647 0.74181 0.11200
C 	C 	0.78312 0.92290 0.77351 -0.04300
C 	C 	0.77101 0.94934 0.81799 -0.01800
C 	C 	0.78952 0.98144 0.82353 0.09900
N 	N 	0.77541 0.01057 0.86152 -0.01800
H 	H 	0.83783 0.00834 0.80143 0.11100
H 	H 	0.76805 0.89886 0.76601 0.07700
N 	N 	0.82861 0.89870 0.69879 -0.02400
O 	O 	0.79470 0.02671 0.90642 -0.01900
O 	O 	0.74383 0.02195 0.84916 -0.06800
O 	O 	0.82714 0.86620 0.71737 -0.07300
O 	O 	0.84019 0.90573 0.63978 -0.02200
C 	C 	0.97111 0.64166 0.35958 -0.04700
C 	C 	0.98112 0.64053 0.29170 0.11400
C 	C 	0.98487 0.60783 0.25834 -0.08700
C 	C 	0.98235 0.57649 0.29315 -0.00200
C 	C 	0.97656 0.57781 0.36281 0.07700
C 	C 	0.97003 0.61037 0.39499 -0.04800
N 	N 	0.98853 0.67059 0.25929 -0.20000
H 	H 	0.99015 0.60679 0.20541 0.05900
C 	C 	0.98536 0.54240 0.25626 -0.00600
N 	N 	0.97729 0.54804 0.39894 -0.19300
H 	H 	0.96337 0.61126 0.44744 0.05600
C 	C 	0.01885 0.52952 0.23977 -0.08500
C 	C 	0.02349 0.49376 0.22283 0.10800
C 	C 	0.99462 0.47053 0.22682 -0.04700
C 	C 	0.96055 0.48450 0.23127 -0.05200
C 	C 	0.95561 0.52044 0.24638 0.07500
H 	H 	0.04153 0.54679 0.24414 0.06100
N 	N 	0.05589 0.48156 0.20556 -0.20100
H 	H 	0.93805 0.46690 0.22937 0.06200
N 	N 	0.92246 0.53359 0.25214 -0.19500
H 	H 	0.07752 0.49858 0.20501 0.09900
H 	H 	0.05953 0.45537 0.19000 0.11300
H 	H 	0.90062 0.51699 0.24688 0.09700
H 	H 	0.91807 0.56055 0.25928 0.09600
H 	H 	0.97174 0.54916 0.44986 0.09300
H 	H 	0.98456 0.52378 0.37762 0.09700
H 	H 	0.99167 0.69457 0.28522 0.12800
H 	H 	0.99364 0.66978 0.20823 0.10600
C 	C 	0.01109 0.65544 0.06383 -0.04900
C 	C 	0.97988 0.63949 0.03918 0.10600
C 	C 	0.97847 0.60279 0.03037 -0.08700
C 	C 	0.00612 0.58170 0.05293 -0.00400
C 	C 	0.03432 0.59756 0.08906 0.07600
C 	C 	0.03688 0.63441 0.09317 -0.05400
N 	N 	0.95122 0.65926 0.02460 -0.19900
H 	H 	0.95614 0.59066 0.00499 0.06100
C 	C 	0.00811 0.54436 0.02954 -0.00200
N 	N 	0.05911 0.57759 0.11904 -0.19500
H 	H 	0.05991 0.64660 0.11599 0.07000
C 	C 	0.03567 0.53405 0.98696 -0.08300
C 	C 	0.03791 0.49936 0.96194 0.11000
C 	C 	0.01033 0.47547 0.97455 -0.04100
C 	C 	0.98303 0.48543 0.01781 -0.05000
C 	C 	0.98181 0.51960 0.04617 0.07600
H 	H 	0.05583 0.55296 0.97438 0.06500
N 	N 	0.06706 0.48887 0.92765 -0.19900
H 	H 	0.96245 0.46668 0.02890 0.06500
N 	N 	0.95529 0.52851 0.08863 -0.19400
H 	H 	0.08645 0.50712 0.91545 0.10100
H 	H 	0.07176 0.46232 0.91636 0.10700
H 	H 	0.93484 0.51079 0.09726 0.09600
H 	H 	0.95529 0.55246 0.11526 0.09200
H 	H 	0.08023 0.58947 0.14442 0.09900
H 	H 	0.05702 0.55020 0.11938 0.09400
H 	H 	0.95031 0.68606 0.03752 0.10500
H 	H 	0.92877 0.64753 0.00352 0.09600
C 	C 	0.02179 0.74282 0.89192 -0.03200
C 	C 	0.98977 0.75803 0.87089 0.12100
C 	C 	0.98031 0.75605 0.80313 -0.06300
C 	C 	0.00236 0.73936 0.75612 0.01700
C 	C 	0.03587 0.72711 0.77632 0.09200
C 	C 	0.04540 0.72943 0.84406 -0.04300
N 	N 	0.96786 0.77417 0.91548 -0.20000
H 	H 	0.95520 0.76654 0.78730 0.09100
C 	C 	0.98906 0.73278 0.68695 0.01900
N 	N 	0.05859 0.71229 0.73152 -0.19100
H 	H 	0.07034 0.71862 0.86005 0.07200
C 	C 	0.99930 0.75541 0.63643 -0.08300
C 	C 	0.98707 0.75020 0.57073 0.14100
C 	C 	0.96418 0.72161 0.55529 -0.04900
C 	C 	0.95361 0.69922 0.60594 -0.03900
C 	C 	0.96605 0.70428 0.67154 0.07200
H 	H 	0.01766 0.77654 0.64778 0.14000
N 	N 	0.99780 0.77243 0.52283 -0.20100
H 	H 	0.93627 0.67724 0.59398 0.05400
N 	N 	0.95632 0.68132 0.71897 -0.19200
H 	H 	0.01452 0.79354 0.53484 0.16900
H 	H 	0.98973 0.76909 0.47341 0.15500
H 	H 	0.93899 0.66067 0.70730 0.09400
H 	H 	0.96623 0.68330 0.76741 0.09400
H 	H 	0.08311 0.70309 0.74702 0.11100
H 	H 	0.05230 0.70982 0.68104 0.11000
H 	H 	0.97447 0.77660 0.96584 0.14200
H 	H 	0.94415 0.78517 0.89976 0.11500
C 	C 	0.17597 0.02651 0.99823 0.05300
C 	C 	0.14717 0.00578 0.97722 0.00500
C 	C 	0.11562 0.02252 0.95730 -0.07400
C 	C 	0.11571 0.05899 0.94773 0.05800
C 	C 	0.14551 0.07935 0.96305 -0.02600
C 	C 	0.17514 0.06348 0.99257 -0.06500
C 	C 	0.20581 0.08586 0.01738 0.78500
H 	H 	0.19951 0.01374 0.01609 0.09400
H 	H 	0.09300 0.07138 0.92554 0.03100
C 	C 	0.08271 0.00156 0.94034 0.75600
F 	F 	0.22999 0.06630 0.05236 -0.38900
F 	F 	0.19356 0.11256 0.05932 -0.38100
F 	F 	0.22276 0.10057 0.96402 -0.40100
F 	F 	0.07914 0.97296 0.98100 -0.44200
F 	F 	0.08446 0.99006 0.87459 -0.57600
F 	F 	0.05302 0.02226 0.94867 -0.47600
C 	C 	0.06464 0.85872 0.83200 0.04900
C 	C 	0.06847 0.86223 0.90130 0.00500
C 	C 	0.03817 0.85775 0.94137 -0.10300
C 	C 	0.00497 0.86314 0.91302 0.04900
C 	C 	0.00229 0.86949 0.84505 -0.00600
C 	C 	0.03067 0.85952 0.80386 -0.09100
C 	C 	0.02409 0.84625 0.73348 0.79300
H 	H 	0.08765 0.85612 0.80061 0.09500
H 	H 	0.98197 0.86582 0.94454 0.07800
C 	C 	0.04090 0.84647 0.01256 0.78700
F 	F 	0.05269 0.82757 0.70876 -0.43200
F 	F 	0.01752 0.87412 0.69289 -0.38900
F 	F 	0.99500 0.82435 0.73206 -0.45700
F 	F 	0.04061 0.87582 0.05469 -0.42800
F 	F 	0.07152 0.82764 0.02178 -0.46400
F 	F 	0.01278 0.82512 0.02842 -0.46200
C 	C 	0.25213 0.95522 0.93964 0.04400
C 	C 	0.25315 0.91856 0.92970 -0.05700
C 	C 	0.26691 0.90468 0.86950 -0.11900
C 	C 	0.26783 0.92621 0.81406 0.01500
C 	C 	0.25878 0.96198 0.82069 -0.01500
C 	C 	0.25742 0.97744 0.88572 -0.16300
C 	C 	0.26692 0.01567 0.89926 0.80500
H 	H 	0.24530 0.96633 0.98812 0.06300
H 	H 	0.27344 0.91472 0.76541 0.08500
C 	C 	0.27577 0.86602 0.86152 0.77800
F 	F 	0.23706 0.03595 0.89705 -0.56400
F 	F 	0.29111 0.02728 0.85338 -0.44500
F 	F 	0.28165 0.02026 0.96197 -0.42700
F 	F 	0.24621 0.84761 0.84028 -0.46600
F 	F 	0.28725 0.85272 0.92115 -0.45800
F 	F 	0.30227 0.86107 0.81509 -0.44500
C 	C 	0.14558 0.77057 0.12144 -0.00500
C 	C 	0.13816 0.80579 0.13931 -0.05900
C 	C 	0.10365 0.81393 0.16053 0.15100
C 	C 	0.07583 0.79108 0.14218 -0.01900
C 	C 	0.08304 0.75986 0.10584 0.00600
C 	C 	0.11808 0.74800 0.10131 0.08500
N 	N 	0.12591 0.71400 0.07289 -0.01900
H 	H 	0.17258 0.76257 0.11274 0.07900
H 	H 	0.04884 0.79863 0.15236 0.13300
N 	N 	0.09672 0.84564 0.19843 -0.01500
O 	O 	0.12191 0.70801 0.00930 -0.08500
O 	O 	0.13960 0.68992 0.10970 -0.08900
O 	O 	0.06956 0.86492 0.18445 -0.00800
O 	O 	0.11746 0.85511 0.24734 -0.02500
C 	C 	0.89345 0.06355 0.15262 0.07400
C 	C 	0.93005 0.06840 0.15555 0.03800
C 	C 	0.95202 0.03848 0.14858 -0.06500
C 	C 	0.93757 0.00488 0.15845 0.09000
C 	C 	0.90149 0.00116 0.17098 0.02600
C 	C 	0.87901 0.02943 0.15572 -0.09900
C 	C 	0.84256 0.02267 0.12788 0.78500
H 	H 	0.87626 0.08619 0.14939 0.09700
H 	H 	0.95486 0.98249 0.16436 0.08900
C 	C 	0.99122 0.04234 0.13911 0.79400
F 	F 	0.81948 0.04805 0.15187 -0.40900
F 	F 	0.82983 0.98996 0.14429 -0.47000
F 	F 	0.84374 0.02432 0.05929 -0.40400
F 	F 	0.00492 0.01278 0.10691 -0.38300
F 	F 	0.00720 0.04649 0.20040 -0.46600
F 	F 	0.99877 0.07121 0.10139 -0.40800
C 	C 	0.79255 0.00856 0.30459 0.03000
C 	C 	0.78403 0.97654 0.33354 -0.04600
C 	C 	0.76638 0.97713 0.39526 -0.10900
C 	C 	0.76639 0.00848 0.43388 0.04200
C 	C 	0.78458 0.03817 0.41163 -0.01100
C 	C 	0.79138 0.04006 0.34265 -0.14900
C 	C 	0.79240 0.07469 0.30737 0.77500
H 	H 	0.80222 0.00870 0.25411 0.09700
H 	H 	0.75640 0.00839 0.48433 0.08200
C 	C 	0.75341 0.94335 0.42518 0.77600
F 	F 	0.77199 0.07234 0.25035 -0.41800
F 	F 	0.82661 0.08181 0.28891 -0.56400
F 	F 	0.77933 0.10220 0.34631 -0.48500
F 	F 	0.78083 0.92750 0.45835 -0.43800
F 	F 	0.74084 0.92037 0.37606 -0.44900
F 	F 	0.72642 0.95011 0.46983 -0.45900
C 	C 	0.00157 0.90782 0.47792 0.06000
C 	C 	0.02688 0.89222 0.43594 0.00500
C 	C 	0.01554 0.86923 0.38409 -0.11200
C 	C 	0.98038 0.87096 0.36302 0.04900
C 	C 	0.95713 0.89536 0.39322 0.00400
C 	C 	0.96647 0.91066 0.45628 -0.09200
C 	C 	0.93980 0.92959 0.50054 0.78900
H 	H 	0.01013 0.92215 0.52237 0.12400
H 	H 	0.97141 0.85419 0.32190 0.08700
C 	C 	0.03847 0.83902 0.35950 0.78800
F 	F 	0.95323 0.93648 0.56370 -0.44100
F 	F 	0.91009 0.90894 0.50763 -0.43400
F 	F 	0.93078 0.96140 0.47336 -0.51700
F 	F 	0.03200 0.83171 0.29278 -0.44300
F 	F 	0.03059 0.80947 0.39516 -0.44300
F 	F 	0.07395 0.84627 0.36713 -0.42900
C 	C 	0.86262 0.75144 0.36741 -0.04800
C 	C 	0.89827 0.74770 0.35100 -0.01500
C 	C 	0.91181 0.76526 0.29564 0.08200
C 	C 	0.89035 0.78868 0.26120 -0.02200
C 	C 	0.85622 0.79637 0.28399 -0.06400
C 	C 	0.84126 0.77506 0.33300 0.11400
N 	N 	0.80484 0.77879 0.35033 -0.02000
H 	H 	0.85151 0.73616 0.40701 0.07900
H 	H 	0.90162 0.80374 0.22147 0.07900
N 	N 	0.94784 0.76086 0.27643 -0.02300
O 	O 	0.78114 0.78159 0.30392 -0.07500
O 	O 	0.79528 0.77875 0.41243 -0.06500
O 	O 	0.95553 0.75154 0.21546 -0.08700
O 	O 	0.97292 0.76942 0.31801 -0.05100
