data_crystal

_cell_length_a 22.49631
_cell_length_b 22.88124
_cell_length_c 118.48354
_cell_angle_alpha 89.97047
_cell_angle_beta  90.04139
_cell_angle_gamma 119.86394

_symmetry_space_group_name_	'P 1'
_symmetry_space_group_name_H-M	'P 1'

loop_
_symmetry_equiv_pos_as_xyz
  x,y,z

loop_
_atom_site_label
_atom_site_type_symbol
_atom_site_fract_x
_atom_site_fract_y
_atom_site_fract_z
_atom_site_charge
H 	H 	0.01228 0.10645 0.07197 0.04600
O 	O 	0.00286 0.00091 0.22022 -0.72000
H 	H 	0.00526 0.00398 0.21192 0.16300
H 	H 	0.00398 0.42135 0.52543 0.08100
O 	O 	0.01420 0.97976 0.03717 -0.38700
O 	O 	0.00919 0.90518 0.20754 -0.36400
H 	H 	0.01744 0.18847 0.83167 0.06400
O 	O 	0.01696 0.30454 0.84036 -0.09000
O 	O 	0.01823 0.72224 0.18143 -0.09300
H 	H 	0.01905 0.42103 0.63461 0.03700
H 	H 	0.06053 0.73411 0.77824 0.05600
C 	C 	0.01678 0.03501 0.98964 0.28900
O 	O 	0.01533 0.88634 0.99596 -0.38700
Ni	Ni	0.02298 0.92588 0.02421 1.11800
C 	C 	0.02325 0.48185 0.38849 -0.00800
C 	C 	0.01826 0.49224 0.49787 -0.07600
C 	C 	0.01873 0.48111 0.65691 -0.07300
C 	C 	0.02632 0.53871 0.39358 -0.03400
C 	C 	0.04590 0.81515 0.78401 0.02000
C 	C 	0.02084 0.51957 0.64753 0.02600
C 	C 	0.02339 0.10917 0.96104 -0.07700
H 	H 	0.02644 0.10426 0.74717 0.04500
O 	O 	0.03734 0.14294 0.81096 -0.36100
N 	N 	0.02554 0.72278 0.83993 -0.01900
H 	H 	0.03684 0.85417 0.24815 0.03100
H 	H 	0.03895 0.54189 0.36807 0.04000
C 	C 	0.03039 0.51337 0.50916 0.02400
H 	H 	0.03939 0.81735 0.26763 0.04200
H 	H 	0.03425 0.53966 0.42870 0.05300
C 	C 	0.03341 0.82568 0.83219 -0.00900
O 	O 	0.03947 0.07360 0.99879 -0.37300
C 	C 	0.04030 0.09920 0.76502 0.00900
H 	H 	0.04231 0.98273 0.00757 0.15400
O 	O 	0.04190 0.86523 0.01392 -0.38500
H 	H 	0.04631 0.06584 0.05524 0.03600
Ni	Ni	0.04438 0.09377 0.22356 1.12100
O 	O 	0.03699 0.43818 0.47536 -0.09400
C 	C 	0.03700 0.91512 0.79016 0.30500
C 	C 	0.04336 0.06728 0.97864 -0.08800
H 	H 	0.05387 0.40627 0.38978 0.03800
C 	C 	0.04486 0.92611 0.82208 0.30100
Ni	Ni	0.05250 0.95604 0.22247 1.11300
C 	C 	0.06831 0.78378 0.77635 -0.06100
C 	C 	0.05579 0.45007 0.39366 -0.03400
C 	C 	0.05503 0.87508 0.00288 0.28900
H 	H 	0.05502 0.75689 0.00496 0.03400
H 	H 	0.05410 0.00282 0.26062 0.03800
C 	C 	0.05724 0.10593 0.78586 0.30000
N 	N 	0.05901 0.29157 0.84589 -0.01600
O 	O 	0.05849 0.29151 0.85687 -0.08200
O 	O 	0.05304 0.68784 0.83637 -0.08000
C 	C 	0.06053 0.56280 0.40384 -0.04000
N 	N 	0.05765 0.49998 0.47840 -0.02200
O 	O 	0.05917 0.54295 0.47105 -0.09200
C 	C 	0.06105 0.12670 0.75425 -0.06100
H 	H 	0.06233 0.60652 0.40772 0.04200
C 	C 	0.06171 0.79460 0.83874 0.06200
H 	H 	0.06360 0.70665 0.96896 0.04200
C 	C 	0.05603 0.87980 0.78171 -0.08200
H 	H 	0.06773 0.47930 0.67238 0.03300
C 	C 	0.07269 0.21709 0.83262 -0.00500
H 	H 	0.06899 0.25751 0.95836 0.04100
O 	O 	0.06910 0.98132 0.79016 -0.38900
C 	C 	0.06952 0.58848 0.64714 -0.06700
C 	C 	0.06815 0.51015 0.66541 0.01800
C 	C 	0.06882 0.89590 0.83071 -0.07800
C 	C 	0.07196 0.51877 0.49002 0.12400
H 	H 	0.07118 0.61875 0.63998 0.04800
C 	C 	0.08205 0.14273 0.81832 0.30300
O 	O 	0.07396 0.67003 0.88143 -0.08300
C 	C 	0.08321 0.12972 0.77437 -0.07900
O 	O 	0.08213 0.61273 0.52871 -0.08100
O 	O 	0.08757 0.08832 0.02353 -0.37000
Ni	Ni	0.08383 0.03532 0.80428 1.12500
H 	H 	0.08104 0.67155 0.95016 0.04500
H 	H 	0.00099 0.56335 0.38969 0.03700
C 	C 	0.08965 0.47393 0.40396 -0.03900
O 	O 	0.08946 0.99462 0.23837 -0.39100
C 	C 	0.08805 0.55511 0.42957 -0.06000
H 	H 	0.08575 0.78299 0.86486 0.08400
C 	C 	0.09162 0.53004 0.40915 0.00300
C 	C 	0.09068 0.79071 0.99871 0.01700
H 	H 	0.08978 0.57421 0.44737 0.05500
H 	H 	0.09127 0.32686 0.70930 0.04800
O 	O 	0.08954 0.96509 0.81417 -0.35700
C 	C 	0.09407 0.15371 0.95994 0.03400
C 	C 	0.09760 0.55965 0.51272 0.06400
O 	O 	0.09990 0.11314 0.79403 -0.36700
C 	C 	0.10212 0.27258 0.83992 0.06200
O 	O 	0.10483 0.11146 0.20982 -0.37100
O 	O 	0.10651 0.10055 0.81732 -0.34500
C 	C 	0.10265 0.25803 0.95178 -0.03500
C 	C 	0.10314 0.85704 0.99780 -0.08400
C 	C 	0.10569 0.04488 0.26162 0.02200
H 	H 	0.10671 0.03059 0.27954 0.04800
H 	H 	0.10521 0.71339 0.99109 0.04700
H 	H 	0.11358 0.44833 0.40799 0.04300
N 	N 	0.11113 0.58130 0.52424 -0.01700
C 	C 	0.11415 0.19852 0.82652 -0.07900
C 	C 	0.11556 0.05854 0.24080 0.32200
C 	C 	0.11430 0.10847 0.97712 0.01900
O 	O 	0.11839 0.00507 0.02231 -0.38300
O 	O 	0.11555 0.96666 0.18987 -0.09700
C 	C 	0.10123 0.81670 0.76634 0.02900
H 	H 	0.11587 0.34948 0.94433 0.04200
C 	C 	0.11510 0.72769 0.96565 -0.03600
C 	C 	0.11981 0.20691 0.95126 -0.00100
C 	C 	0.11868 0.76589 0.99078 -0.06600
H 	H 	0.11572 0.61684 0.73013 0.04900
C 	C 	0.11954 0.57477 0.44014 0.01900
C 	C 	0.12024 0.57783 0.66456 -0.09400
C 	C 	0.11884 0.61756 0.65563 0.01900
O 	O 	0.12419 0.10209 0.23286 -0.38100
C 	C 	0.12559 0.55397 0.42018 0.02700
C 	C 	0.12506 0.18475 0.75269 0.02600
C 	C 	0.12490 0.70812 0.95496 -0.03700
C 	C 	0.12587 0.83407 0.84399 0.02600
C 	C 	0.12958 0.31036 0.94388 -0.03700
C 	C 	0.13367 0.06785 0.02459 0.29300
C 	C 	0.12844 0.77794 0.86183 -0.07100
N 	N 	0.12992 0.72727 0.87990 -0.02200
C 	C 	0.13552 0.06049 0.27234 -0.06600
H 	H 	0.13448 0.41556 0.69471 0.03200
C 	C 	0.08739 0.91189 0.77153 0.01700
C 	C 	0.13158 0.93562 0.83638 0.12000
O 	O 	0.13412 0.03960 0.83876 -0.08300
O 	O 	0.14047 0.03539 0.21495 -0.34200
C 	C 	0.13905 0.56587 0.49353 -0.08000
H 	H 	0.13935 0.13679 0.73249 0.04000
C 	C 	0.12705 0.78459 0.75844 0.00300
C 	C 	0.13955 0.15151 0.96780 -0.06800
C 	C 	0.14184 0.08162 0.20791 0.30500
C 	C 	0.14097 0.34341 0.70551 -0.06600
C 	C 	0.14307 0.08204 0.25218 -0.09000
C 	C 	0.14231 0.21980 0.74170 0.00200
C 	C 	0.14632 0.18709 0.73194 -0.03800
H 	H 	0.14582 0.29998 0.91304 0.05800
C 	C 	0.14878 0.18565 0.77273 0.01500
H 	H 	0.14781 0.31034 0.74834 0.04400
H 	H 	0.06579 0.78484 0.74439 0.04000
H 	H 	0.14970 0.10922 0.98340 0.03200
H 	H 	0.15339 0.15725 0.04124 0.03600
C 	C 	0.15153 0.58533 0.50490 -0.00500
C 	C 	0.15135 0.28490 0.74088 -0.03700
C 	C 	0.10401 0.77246 0.74722 -0.03700
C 	C 	0.15068 0.90063 0.98984 0.01600
C 	C 	0.11017 0.88064 0.76392 -0.06300
O 	O 	0.15630 0.57402 0.52999 -0.08500
C 	C 	0.13090 0.74515 0.73959 -0.03600
H 	H 	0.11386 0.73740 0.73089 0.04000
H 	H 	0.09462 0.96126 0.76955 0.04000
H 	H 	0.02185 0.78968 0.79181 0.04700
H 	H 	0.13540 0.90639 0.75620 0.04900
C 	C 	0.15904 0.21926 0.72144 -0.03700
C 	C 	0.15590 0.80214 0.85111 0.02800
C 	C 	0.15632 0.74806 0.86875 0.12400
O 	O 	0.15726 0.76877 0.88831 -0.09600
C 	C 	0.15920 0.80733 0.98191 0.02800
H 	H 	0.16186 0.95240 0.98923 0.02900
C 	C 	0.16416 0.31701 0.73041 -0.03600
H 	H 	0.16208 0.19371 0.71395 0.03900
H 	H 	0.16433 0.58780 0.71384 0.03600
H 	H 	0.15838 0.66994 0.65490 0.03900
C 	C 	0.16006 0.90443 0.84289 -0.06900
C 	C 	0.16400 0.20847 0.94276 -0.03400
C 	C 	0.16525 0.39332 0.69719 0.02000
C 	C 	0.16771 0.28425 0.72064 0.00000
N 	N 	0.16582 0.00765 0.83573 -0.02500
O 	O 	0.16681 0.25076 0.86452 -0.08100
C 	C 	0.16961 0.21304 0.76192 -0.06100
H 	H 	0.17164 0.36752 0.72990 0.04300
C 	C 	0.17007 0.64675 0.72836 -0.06600
C 	C 	0.17121 0.77715 0.97176 0.00100
C 	C 	0.17388 0.30978 0.84123 0.02700
C 	C 	0.17385 0.31201 0.93540 0.00400
C 	C 	0.17612 0.76770 0.76203 -0.03500
N 	N 	0.17717 0.99866 0.19405 -0.03100
H 	H 	0.17767 0.16933 0.94232 0.04400
C 	C 	0.17842 0.87586 0.98189 -0.06400
C 	C 	0.18064 0.72907 0.74313 0.00100
C 	C 	0.18073 0.35143 0.91560 -0.06000
C 	C 	0.18159 0.60338 0.67178 0.30900
C 	C 	0.18339 0.31950 0.70967 0.02900
H 	H 	0.18263 0.20935 0.77985 0.05100
H 	H 	0.18390 0.62442 0.94201 0.04800
C 	C 	0.18612 0.23609 0.82780 0.12600
C 	C 	0.18866 0.59294 0.44143 -0.08200
H 	H 	0.18997 0.39067 0.89882 0.04900
C 	C 	0.19087 0.26080 0.93485 -0.03600
C 	C 	0.19075 0.73796 0.95026 0.00200
H 	H 	0.19431 0.77697 0.77067 0.05000
C 	C 	0.19519 0.57411 0.42141 -0.06400
C 	C 	0.19442 0.60063 0.48521 0.30300
H 	H 	0.19456 0.43390 0.83659 0.08400
C 	C 	0.19367 0.66167 0.93555 -0.06200
H 	H 	0.19425 0.18519 0.96696 0.05000
C 	C 	0.19760 0.11111 0.03079 -0.08300
C 	C 	0.19712 0.15037 0.03987 0.01600
C 	C 	0.19678 0.11126 0.19931 -0.08300
C 	C 	0.19766 0.63012 0.71917 0.02000
O 	O 	0.19827 0.61931 0.90050 -0.37000
H 	H 	0.19737 0.60006 0.92220 0.03800
O 	O 	0.20127 0.55501 0.84376 -0.08200
O 	O 	0.20137 0.65532 0.87787 -0.35600
C 	C 	0.20087 0.36633 0.92691 0.02800
C 	C 	0.20063 0.64766 0.92430 0.01300
C 	C 	0.19977 0.72380 0.93846 0.02700
C 	C 	0.20319 0.11314 0.27370 0.03000
O 	O 	0.20453 0.63981 0.46016 -0.36300
H 	H 	0.20291 0.62178 0.50762 0.07400
O 	O 	0.20433 0.56270 0.67453 -0.39100
C 	C 	0.20264 0.73986 0.75441 -0.03400
O 	O 	0.20359 0.79660 0.82734 -0.08200
O 	O 	0.20539 0.96495 0.19788 -0.09700
O 	O 	0.20726 0.56356 0.47795 -0.35300
C 	C 	0.20598 0.36953 0.84866 0.02800
C 	C 	0.20537 0.40292 0.90756 0.01900
C 	C 	0.20938 0.13701 0.25361 0.02200
H 	H 	0.20842 0.93502 0.84720 0.08500
C 	C 	0.21185 0.70399 0.73488 0.03000
C 	C 	0.21212 0.79641 0.84727 0.06200
C 	C 	0.21254 0.43066 0.84493 -0.07200
C 	C 	0.21203 0.74141 0.86488 -0.08800
C 	C 	0.21218 0.77162 0.93003 -0.06000
H 	H 	0.21082 0.90875 0.97523 0.04800
C 	C 	0.21538 0.29083 0.83526 -0.07000
C 	C 	0.21335 0.69559 0.91583 -0.07500
C 	C 	0.21650 0.07050 0.19326 0.12900
H 	H 	0.21711 0.21301 0.20207 0.06700
O 	O 	0.21822 0.66604 0.48355 -0.35400
H 	H 	0.21632 0.81950 0.93220 0.05200
O 	O 	0.99543 0.88062 0.79847 -0.37900
C 	C 	0.99811 0.06597 0.97035 0.02900
H 	H 	0.99967 0.17497 0.25068 0.04100
Ni	Ni	0.93838 0.89912 0.00144 1.12100
C 	C 	0.85171 0.95806 0.00476 0.30300
O 	O 	0.90195 0.81115 0.00999 -0.38400
O 	O 	0.90332 0.01962 0.00609 -0.36500
O 	O 	0.85897 0.90675 0.00756 -0.39000
O 	O 	0.99948 0.96369 0.01195 -0.71400
H 	H 	0.88421 0.68519 0.01821 0.03500
H 	H 	0.72186 0.85152 0.00490 0.03500
C 	C 	0.88915 0.80539 0.02090 0.31100
Ni	Ni	0.99407 0.04196 0.01451 1.11600
O 	O 	0.93763 0.00501 0.02919 -0.36900
O 	O 	0.92690 0.85481 0.02782 -0.39100
C 	C 	0.82085 0.63218 0.03245 -0.06600
C 	C 	0.84939 0.68473 0.02457 0.01800
C 	C 	0.83902 0.74005 0.02570 -0.09000
C 	C 	0.79224 0.73774 0.03376 0.02000
H 	H 	0.83303 0.59201 0.03200 0.04800
C 	C 	0.25531 0.10374 0.02907 0.01500
H 	H 	0.25722 0.07514 0.02193 0.03600
C 	C 	0.96279 0.99141 0.03813 0.29700
C 	C 	0.78191 0.63489 0.04150 0.02900
C 	C 	0.76405 0.68557 0.04167 -0.06500
H 	H 	0.78240 0.77938 0.03451 0.03400
C 	C 	0.30858 0.12936 0.03696 -0.06500
H 	H 	0.35127 0.12053 0.03585 0.04800
C 	C 	0.77106 0.59338 0.05169 0.00100
H 	H 	0.66124 0.55247 0.05212 0.04000
H 	H 	0.73268 0.68740 0.04844 0.04900
C 	C 	0.30472 0.16286 0.04661 0.02800
H 	H 	0.83378 0.94284 0.04596 0.04200
C 	C 	0.82781 0.59777 0.05743 -0.03600
C 	C 	0.70551 0.55682 0.05652 -0.03700
H 	H 	0.87869 0.62605 0.05383 0.04200
C 	C 	0.35246 0.17679 0.05609 0.00100
C 	C 	0.25031 0.17586 0.04777 -0.06500
H 	H 	0.39194 0.28439 0.05590 0.04000
H 	H 	0.32292 0.07215 0.05861 0.04200
H 	H 	0.24733 0.20248 0.05511 0.04900
C 	C 	0.94242 0.00253 0.04933 -0.06800
C 	C 	0.87282 0.97771 0.05171 -0.00800
C 	C 	0.81964 0.56894 0.06812 -0.03700
C 	C 	0.69746 0.52837 0.06726 -0.03800
H 	H 	0.64702 0.50200 0.07107 0.04100
C 	C 	0.42999 0.25455 0.07014 -0.03700
C 	C 	0.39205 0.24268 0.06022 -0.03700
C 	C 	0.35342 0.12323 0.06172 -0.03600
C 	C 	0.39156 0.13514 0.07162 -0.03700
C 	C 	0.99242 0.04666 0.05696 0.01300
C 	C 	0.85360 0.00076 0.06118 -0.03900
H 	H 	0.79987 0.98364 0.06266 0.03800
C 	C 	0.97319 0.06996 0.06641 -0.05300
C 	C 	0.90383 0.04890 0.06832 0.02000
H 	H 	0.93425 0.17914 0.06841 0.04200
C 	C 	0.75478 0.53569 0.07320 0.00200
H 	H 	0.86408 0.57441 0.07262 0.04500
H 	H 	0.76734 0.43118 0.08104 0.04800
C 	C 	0.42890 0.20064 0.07600 0.00200
H 	H 	0.56467 0.27930 0.08029 0.04700
H 	H 	0.45882 0.30535 0.07344 0.04200
H 	H 	0.39094 0.09331 0.07602 0.04400
C 	C 	0.88445 0.08276 0.07693 0.00300
C 	C 	0.90293 0.15065 0.07552 -0.03500
H 	H 	0.89384 0.23372 0.08194 0.04300
C 	C 	0.75785 0.45816 0.08766 -0.06400
C 	C 	0.74771 0.51222 0.08496 0.02800
C 	C 	0.73527 0.54671 0.09360 -0.06100
H 	H 	0.72786 0.58885 0.09159 0.05200
C 	C 	0.53444 0.25714 0.08783 -0.06500
C 	C 	0.46370 0.21240 0.08700 0.02900
C 	C 	0.84343 0.04619 0.08611 -0.02400
C 	C 	0.82034 0.07706 0.09375 -0.03900
C 	C 	0.83792 0.14461 0.09223 0.00500
C 	C 	0.87970 0.18142 0.08314 -0.03700
H 	H 	0.82883 0.99374 0.08725 0.03700
H 	H 	0.74455 0.18387 0.08805 0.04900
C 	C 	0.74447 0.47395 0.10760 -0.07900
C 	C 	0.75626 0.43908 0.09891 0.01600
C 	C 	0.73370 0.52774 0.10486 0.01900
H 	H 	0.76337 0.39668 0.10086 0.03900
C 	C 	0.52678 0.24884 0.10826 -0.08300
C 	C 	0.56581 0.27530 0.09841 0.01900
C 	C 	0.42537 0.18293 0.09682 -0.06100
C 	C 	0.45688 0.20094 0.10741 0.02100
H 	H 	0.62008 0.31146 0.09898 0.03400
H 	H 	0.37077 0.14801 0.09627 0.05500
C 	C 	0.81266 0.17682 0.10016 0.02900
C 	C 	0.73967 0.22444 0.10418 0.01800
C 	C 	0.76388 0.19415 0.09662 -0.06300
H 	H 	0.78826 0.04836 0.10078 0.05100
H 	H 	0.70199 0.23765 0.10138 0.03500
H 	H 	0.72474 0.55524 0.11146 0.05000
C 	C 	0.74088 0.45241 0.11946 0.30700
C 	C 	0.55715 0.27774 0.11926 0.31000
O 	O 	0.58809 0.34319 0.12057 -0.37300
H 	H 	0.42636 0.17998 0.11496 0.05400
C 	C 	0.83749 0.19046 0.11126 -0.05900
C 	C 	0.81353 0.22093 0.11880 0.02100
C 	C 	0.76432 0.23786 0.11531 -0.08200
H 	H 	0.87528 0.17737 0.11404 0.06000
C 	C 	0.73743 0.26781 0.12337 0.30700
O 	O 	0.77815 0.30845 0.13126 -0.37100
O 	O 	0.70635 0.46614 0.12689 -0.36100
O 	O 	0.76978 0.41688 0.12238 -0.37500
O 	O 	0.54584 0.23820 0.12798 -0.37000
O 	O 	0.67117 0.24538 0.12371 -0.39000
H 	H 	0.83238 0.23037 0.12740 0.05900
O 	O 	0.39284 0.20924 0.13788 -0.09300
O 	O 	0.80231 0.60928 0.13675 -0.09100
Ni	Ni	0.62653 0.38975 0.13596 1.11700
Ni	Ni	0.76696 0.38268 0.13830 1.12700
Ni	Ni	0.62332 0.24654 0.13793 1.12300
O 	O 	0.53572 0.31944 0.14417 -0.34500
O 	O 	0.78146 0.47147 0.14505 -0.34800
O 	O 	0.67031 0.34116 0.13979 -0.72300
N 	N 	0.39306 0.24882 0.14578 -0.02100
O 	O 	0.37359 0.29234 0.14347 -0.09200
N 	N 	0.84392 0.61264 0.14468 -0.02100
O 	O 	0.90754 0.63233 0.14226 -0.08700
C 	C 	0.52895 0.27367 0.15184 0.30200
C 	C 	0.73930 0.47971 0.15195 0.30400
O 	O 	0.56384 0.24080 0.15119 -0.37000
O 	O 	0.68897 0.23222 0.14796 -0.36800
O 	O 	0.76796 0.34256 0.15335 -0.36100
O 	O 	0.67206 0.44833 0.15017 -0.36300
H 	H 	0.66732 0.34301 0.14807 0.15700
N 	N 	0.88162 0.32689 0.15770 -0.02400
O 	O 	0.89075 0.31546 0.14727 -0.09600
O 	O 	0.92118 0.11785 0.16380 -0.08900
C 	C 	0.40764 0.23967 0.15719 0.12100
C 	C 	0.82166 0.60149 0.15618 0.12300
H 	H 	0.89086 0.70424 0.16103 0.08500
C 	C 	0.73592 0.27625 0.15513 0.30300
C 	C 	0.76286 0.24970 0.16388 -0.08100
C 	C 	0.83381 0.27274 0.16464 0.12400
O 	O 	0.92061 0.38607 0.16209 -0.08600
O 	O 	0.80663 0.07336 0.16363 -0.08000
C 	C 	0.47317 0.25061 0.16025 -0.08100
C 	C 	0.35516 0.21600 0.16526 -0.07100
H 	H 	0.30491 0.20747 0.16287 0.08400
C 	C 	0.85022 0.65538 0.16380 -0.07100
C 	C 	0.76908 0.53756 0.15977 -0.08000
C 	C 	0.85754 0.24051 0.17190 -0.07000
C 	C 	0.81124 0.18434 0.17822 0.02700
C 	C 	0.71681 0.19521 0.17057 -0.00400
H 	H 	0.66228 0.17723 0.17001 0.06600
H 	H 	0.91203 0.25830 0.17243 0.08500
N 	N 	0.86450 0.10214 0.16909 -0.01600
C 	C 	0.36632 0.20049 0.17622 0.02700
C 	C 	0.48447 0.23594 0.17128 -0.00500
H 	H 	0.53453 0.24401 0.17368 0.06700
C 	C 	0.82545 0.64703 0.17487 0.02700
C 	C 	0.74369 0.52945 0.17082 -0.00400
H 	H 	0.70275 0.48073 0.17358 0.06700
H 	H 	0.77368 0.72687 0.18053 0.08400
C 	C 	0.74049 0.16200 0.17764 0.06200
C 	C 	0.83738 0.15018 0.18564 0.02800
N 	N 	0.69244 0.10489 0.18407 -0.01700
C 	C 	0.86528 0.11216 0.18103 0.06300
C 	C 	0.89410 0.08405 0.18819 0.00100
H 	H 	0.91629 0.05559 0.18464 0.07500
O 	O 	0.68748 0.04636 0.18248 -0.07600
C 	C 	0.27301 0.10037 0.18597 -0.07200
C 	C 	0.30862 0.17033 0.18431 0.02900
C 	C 	0.28730 0.21086 0.18998 0.06000
N 	N 	0.32143 0.28208 0.18805 -0.01700
H 	H 	0.28823 0.06892 0.18139 0.08700
C 	C 	0.43134 0.21048 0.17925 0.06300
O 	O 	0.28668 0.31027 0.18464 -0.09100
C 	C 	0.77146 0.58386 0.17838 0.06200
C 	C 	0.85585 0.70499 0.18270 0.02700
N 	N 	0.74437 0.57491 0.18957 -0.01700
C 	C 	0.92029 0.72604 0.18768 0.06200
C 	C 	0.85199 0.79888 0.19160 0.12000
C 	C 	0.82225 0.74176 0.18464 -0.06900
N 	N 	0.95634 0.69037 0.18550 -0.01300
N 	N 	0.81964 0.83883 0.19275 -0.02500
O 	O 	0.84998 0.90037 0.18897 -0.09200
O 	O 	0.92926 0.62724 0.18832 -0.07900
C 	C 	0.89459 0.09288 0.19990 -0.08100
C 	C 	0.83681 0.15786 0.19736 -0.07000
O 	O 	0.65026 0.11035 0.19091 -0.08500
C 	C 	0.23191 0.18127 0.19749 -0.00100
N 	N 	0.44324 0.19350 0.19034 -0.01700
O 	O 	0.38617 0.31931 0.19046 -0.08000
O 	O 	0.46639 0.15192 0.19159 -0.08600
C 	C 	0.94944 0.78232 0.19481 0.00000
C 	C 	0.91501 0.81818 0.19702 -0.07800
H 	H 	0.99798 0.79684 0.19889 0.07600
O 	O 	0.67938 0.55303 0.19108 -0.08700
O 	O 	0.75737 0.81178 0.19661 -0.09000
C 	C 	0.94191 0.87132 0.20578 0.31200
C 	C 	0.86430 0.12866 0.20451 0.12500
H 	H 	0.81467 0.18632 0.20094 0.08500
O 	O 	0.43532 0.22297 0.19913 -0.08100
O 	O 	0.78364 0.58410 0.19824 -0.08100
C 	C 	0.92768 0.06584 0.20731 0.31600
O 	O 	0.89817 0.87091 0.21344 -0.35300
O 	O 	0.90023 0.99919 0.20797 -0.37000
O 	O 	0.97481 0.10801 0.21465 -0.36000
N 	N 	0.85891 0.13306 0.21646 -0.02200
Ni	Ni	0.90607 0.95267 0.22198 1.12400
O 	O 	0.97644 0.87164 0.23068 -0.36500
O 	O 	0.88781 0.01794 0.23072 -0.36500
O 	O 	0.90160 0.18787 0.22177 -0.09600
O 	O 	0.80746 0.08494 0.22184 -0.08900
C 	C 	0.94023 0.87779 0.23879 0.30700
O 	O 	0.90791 0.91162 0.23708 -0.38100
C 	C 	0.92855 0.05910 0.23859 0.31200
O 	O 	0.99491 0.08226 0.23818 -0.38700
H 	H 	0.23864 0.16606 0.24638 0.04400
C 	C 	0.88578 0.83710 0.25766 0.01900
C 	C 	0.93936 0.85057 0.25013 -0.08600
C 	C 	0.99467 0.84309 0.25380 0.02700
H 	H 	0.84266 0.84233 0.25495 0.04000
C 	C 	0.90095 0.08826 0.24677 -0.07600
C 	C 	0.82997 0.05680 0.24871 0.02700
C 	C 	0.94484 0.15008 0.25205 0.02200
H 	H 	0.79554 0.00867 0.24484 0.04900
H 	H 	0.86010 0.27395 0.25746 0.05100
C 	C 	0.80307 0.08798 0.25550 -0.05900
C 	C 	0.84685 0.15044 0.26054 0.03200
C 	C 	0.91788 0.18091 0.25891 -0.06000
H 	H 	0.74816 0.06387 0.25676 0.05700
H 	H 	0.95218 0.22865 0.26291 0.05200
C 	C 	0.23947 0.15233 0.26433 -0.06400
H 	H 	0.29172 0.19318 0.26529 0.05300
C 	C 	0.94317 0.80999 0.27239 0.02600
C 	C 	0.88778 0.81704 0.26873 -0.06400
C 	C 	0.99651 0.82287 0.26488 -0.05700
H 	H 	0.92650 0.68854 0.27831 0.04600
H 	H 	0.84600 0.80643 0.27444 0.04900
C 	C 	0.81844 0.18359 0.26765 0.00500
C 	C 	0.83143 0.24874 0.26499 -0.03400
C 	C 	0.80853 0.28193 0.27216 -0.03400
H 	H 	0.82017 0.33279 0.27019 0.04600
C 	C 	0.26814 0.18777 0.28986 -0.03700
C 	C 	0.23773 0.12408 0.28473 0.00100
C 	C 	0.24374 0.07181 0.28982 -0.03600
H 	H 	0.26300 0.22817 0.28608 0.04100
H 	H 	0.22024 0.02236 0.28596 0.04300
C 	C 	0.93067 0.71957 0.28550 -0.03700
C 	C 	0.94321 0.78544 0.28389 0.00300
C 	C 	0.77207 0.25006 0.28199 0.00100
C 	C 	0.75713 0.18411 0.28445 -0.03500
C 	C 	0.78035 0.15108 0.27733 -0.03600
C 	C 	0.75517 0.28764 0.29025 0.03000
C 	C 	0.68645 0.26652 0.29276 -0.06600
H 	H 	0.77006 0.10083 0.27946 0.04300
H 	H 	0.64567 0.22750 0.28776 0.05100
C 	C 	0.91977 0.69231 0.29636 -0.03500
C 	C 	0.94898 0.82534 0.29328 -0.03900
H 	H 	0.90675 0.64024 0.29745 0.04300
H 	H 	0.95948 0.87659 0.29211 0.03900
C 	C 	0.67019 0.29291 0.30215 0.01900
C 	C 	0.80753 0.33908 0.29665 -0.06600
H 	H 	0.72923 0.15924 0.29206 0.04200
H 	H 	0.61692 0.27371 0.30436 0.03600
H 	H 	0.86076 0.35632 0.29468 0.05000
C 	C 	0.70611 0.35363 0.32048 0.30800
O 	O 	0.65290 0.36209 0.32192 -0.38100
C 	C 	0.47708 0.18419 0.31973 0.01600
C 	C 	0.42268 0.15638 0.31207 -0.06500
C 	C 	0.36540 0.16442 0.31373 0.02800
C 	C 	0.31560 0.14857 0.30449 0.00100
C 	C 	0.30714 0.20006 0.29967 -0.03600
C 	C 	0.28219 0.08392 0.29969 -0.03700
H 	H 	0.52262 0.18094 0.31800 0.03700
H 	H 	0.42675 0.13191 0.30452 0.04900
H 	H 	0.33272 0.25017 0.30330 0.04100
H 	H 	0.28783 0.04368 0.30341 0.04100
C 	C 	0.89709 0.69793 0.31683 0.02900
C 	C 	0.92402 0.65955 0.32149 -0.06500
C 	C 	0.92164 0.73085 0.30573 0.00100
C 	C 	0.93849 0.79823 0.30417 -0.03700
H 	H 	0.81818 0.72520 0.31837 0.04700
H 	H 	0.97042 0.66325 0.31807 0.04800
H 	H 	0.94097 0.82873 0.31134 0.03900
C 	C 	0.72257 0.34005 0.30913 -0.09000
C 	C 	0.79130 0.36513 0.30606 0.02000
H 	H 	0.83213 0.40239 0.31129 0.03700
C 	C 	0.83867 0.69475 0.32171 -0.06600
C 	C 	0.53913 0.26734 0.33500 0.29200
Ni	Ni	0.64231 0.41211 0.33535 1.12100
O 	O 	0.73462 0.48892 0.33120 -0.39000
O 	O 	0.73619 0.34409 0.32918 -0.37800
O 	O 	0.58890 0.25148 0.33551 -0.37000
O 	O 	0.55028 0.32849 0.33754 -0.38600
C 	C 	0.47513 0.22117 0.32905 -0.08300
C 	C 	0.36032 0.19516 0.32365 -0.06500
C 	C 	0.41498 0.22343 0.33128 0.01400
H 	H 	0.31546 0.19996 0.32517 0.04700
C 	C 	0.82438 0.60243 0.33364 -0.08900
C 	C 	0.80271 0.64739 0.33015 0.01900
C 	C 	0.88756 0.61171 0.32985 0.01900
H 	H 	0.75466 0.64156 0.33321 0.03100
H 	H 	0.90555 0.57818 0.33269 0.03300
C 	C 	0.77384 0.53692 0.33826 0.31100
Ni	Ni	0.68384 0.30261 0.34406 1.11400
O 	O 	0.61964 0.46751 0.34623 -0.38200
H 	H 	0.41199 0.25009 0.33862 0.03500
O 	O 	0.76183 0.53007 0.34919 -0.38600
O 	O 	0.67272 0.37719 0.34713 -0.71600
C 	C 	0.82635 0.39301 0.35335 0.31000
C 	C 	0.60867 0.45537 0.35726 0.28800
Ni	Ni	0.73269 0.44295 0.35759 1.12000
O 	O 	0.64228 0.26754 0.35992 -0.37000
O 	O 	0.65335 0.44942 0.36380 -0.38300
O 	O 	0.77762 0.33021 0.35188 -0.37000
O 	O 	0.81458 0.44202 0.35092 -0.39200
H 	H 	0.63073 0.35529 0.35173 0.15700
C 	C 	0.55540 0.46427 0.36281 -0.08300
C 	C 	0.55551 0.52537 0.36165 0.01700
H 	H 	0.58591 0.56085 0.35511 0.03600
C 	C 	0.94592 0.46983 0.35978 0.01400
C 	C 	0.88518 0.40744 0.36063 -0.09300
H 	H 	0.95424 0.50242 0.35261 0.03500
C 	C 	0.52168 0.54358 0.36961 -0.06500
H 	H 	0.52556 0.59263 0.36907 0.04700
C 	C 	0.99381 0.49232 0.36856 -0.05900
C 	C 	0.66310 0.30627 0.36907 0.28500
O 	O 	0.71760 0.36820 0.36882 -0.37700
C 	C 	0.48777 0.50082 0.37877 0.02800
C 	C 	0.51455 0.41824 0.37115 0.01600
H 	H 	0.51290 0.37026 0.37196 0.03000
C 	C 	0.87631 0.36490 0.36981 0.02100
H 	H 	0.83023 0.31617 0.37051 0.03900
H 	H 	0.53115 0.24033 0.37596 0.03000
C 	C 	0.48103 0.43649 0.37913 -0.06400
C 	C 	0.47029 0.52733 0.38883 0.00100
H 	H 	0.45388 0.40250 0.38603 0.04900
H 	H 	0.57352 0.61019 0.39117 0.04300
H 	H 	0.36355 0.44950 0.38904 0.04000
C 	C 	0.98133 0.45259 0.37825 0.03500
C 	C 	0.92394 0.38759 0.37862 -0.06800
C 	C 	0.56603 0.23690 0.38189 0.01600
C 	C 	0.63698 0.27380 0.38004 -0.08100
H 	H 	0.91429 0.35612 0.38600 0.05200
C 	C 	0.68168 0.26992 0.38788 0.01800
H 	H 	0.73660 0.29858 0.38657 0.03600
C 	C 	0.40404 0.49233 0.39345 -0.03700
C 	C 	0.52212 0.58308 0.39460 -0.03600
C 	C 	0.50861 0.60196 0.40507 -0.03700
C 	C 	0.39062 0.51113 0.40396 -0.03800
C 	C 	0.51863 0.06177 0.40276 -0.03900
C 	C 	0.58423 0.18450 0.39833 0.02900
C 	C 	0.53974 0.19259 0.39102 -0.06400
C 	C 	0.65538 0.22520 0.39698 -0.06400
H 	H 	0.50948 0.05100 0.39382 0.04300
H 	H 	0.48476 0.16241 0.39214 0.04900
C 	C 	0.44323 0.56528 0.40990 0.00200
H 	H 	0.54944 0.64400 0.40958 0.04400
H 	H 	0.33975 0.48301 0.40757 0.04100
H 	H 	0.22482 0.57422 0.41420 0.04700
C 	C 	0.49290 0.00865 0.41049 -0.02800
C 	C 	0.55649 0.12867 0.40655 0.00300
H 	H 	0.46375 0.95720 0.40749 0.03400
H 	H 	0.69018 0.21988 0.40265 0.05100
H 	H 	0.44483 0.67928 0.41650 0.04700
C 	C 	0.43078 0.58215 0.42134 0.02800
C 	C 	0.43610 0.64489 0.42341 -0.06500
C 	C 	0.41884 0.53774 0.43034 -0.06100
H 	H 	0.41493 0.48926 0.42882 0.05400
C 	C 	0.22653 0.59337 0.43198 0.01800
C 	C 	0.47705 0.96582 0.43022 0.02200
C 	C 	0.50500 0.02189 0.42207 0.00800
C 	C 	0.56875 0.14195 0.41813 -0.03400
C 	C 	0.54311 0.08873 0.42587 -0.03600
H 	H 	0.37140 0.93664 0.42689 0.04800
H 	H 	0.59791 0.19340 0.42113 0.04700
C 	C 	0.43120 0.66385 0.43442 0.01700
H 	H 	0.43501 0.71234 0.43589 0.03900
H 	H 	0.28013 0.60813 0.43284 0.03800
C 	C 	0.40598 0.92624 0.43173 -0.06200
C 	C 	0.52137 0.95172 0.43647 -0.06100
H 	H 	0.57630 0.98153 0.43526 0.05100
C 	C 	0.42070 0.62009 0.44349 -0.08000
C 	C 	0.41376 0.55657 0.44137 0.02000
C 	C 	0.42377 0.86055 0.44607 -0.08400
C 	C 	0.37940 0.87381 0.43960 0.01700
C 	C 	0.49489 0.89919 0.44434 0.01800
H 	H 	0.32446 0.84451 0.44083 0.03800
H 	H 	0.55251 0.09939 0.43480 0.05200
C 	C 	0.39627 0.80904 0.45507 0.30500
C 	C 	0.22055 0.60765 0.45269 0.31100
C 	C 	0.41546 0.64047 0.45510 0.31000
O 	O 	0.44488 0.70482 0.45764 -0.38200
O 	O 	0.33100 0.76326 0.45503 -0.38100
O 	O 	0.26419 0.58730 0.45516 -0.38200
H 	H 	0.40548 0.52222 0.44827 0.05300
H 	H 	0.52967 0.88885 0.44912 0.04000
O 	O 	0.43426 0.81641 0.46397 -0.37700
O 	O 	0.38206 0.59449 0.46286 -0.37200
Ni	Ni	0.27854 0.71840 0.46981 1.11600
Ni	Ni	0.43074 0.73763 0.47254 1.12500
Ni	Ni	0.30062 0.58901 0.47088 1.12400
O 	O 	0.34116 0.80692 0.47900 -0.36000
O 	O 	0.33403 0.68179 0.47349 -0.72400
N 	N 	0.50800 0.58340 0.48003 -0.02200
O 	O 	0.56868 0.63054 0.47699 -0.09000
O 	O 	0.46743 0.53951 0.47266 -0.08900
N 	N 	0.47217 0.05819 0.49224 -0.01500
H 	H 	0.42084 0.94208 0.48113 0.06600
O 	O 	0.51528 0.08202 0.48389 -0.09300
C 	C 	0.38713 0.81578 0.48694 0.30900
C 	C 	0.40971 0.62065 0.48769 0.30900
O 	O 	0.34270 0.58503 0.48564 -0.37300
O 	O 	0.45236 0.67394 0.48144 -0.35600
O 	O 	0.42352 0.78437 0.48655 -0.36200
H 	H 	0.32928 0.68016 0.48177 0.16200
N 	N 	0.45864 0.39653 0.50922 -0.01700
C 	C 	0.43973 0.59228 0.49552 -0.08100
C 	C 	0.48876 0.57559 0.49166 0.12400
C 	C 	0.51709 0.54887 0.49917 -0.07000
H 	H 	0.55491 0.53634 0.49617 0.08500
O 	O 	0.47457 0.36373 0.50200 -0.08600
O 	O 	0.39642 0.38646 0.50950 -0.08000
H 	H 	0.59699 0.08604 0.50931 0.08600
C 	C 	0.45434 0.99401 0.49701 0.05700
C 	C 	0.42741 0.93699 0.49008 -0.00200
C 	C 	0.41020 0.87375 0.49458 -0.08400
O 	O 	0.44194 0.09071 0.49574 -0.07800
H 	H 	0.96675 0.45631 0.49513 0.09100
O 	O 	0.87891 0.54364 0.50226 -0.08700
C 	C 	0.49589 0.53696 0.51047 0.02800
C 	C 	0.41877 0.58082 0.50684 -0.00200
C 	C 	0.46453 0.98801 0.50859 0.02300
C 	C 	0.41915 0.86744 0.50621 0.12100
N 	N 	0.92965 0.55702 0.50904 -0.01700
C 	C 	0.57466 0.54948 0.52625 -0.07000
C 	C 	0.52607 0.50800 0.51822 0.02800
C 	C 	0.50800 0.43962 0.51738 0.06200
C 	C 	0.53815 0.41340 0.52466 -0.00400
C 	C 	0.58569 0.45452 0.53284 -0.08000
H 	H 	0.52349 0.36061 0.52409 0.06700
C 	C 	0.44642 0.55306 0.51433 0.06200
H 	H 	0.38080 0.59318 0.50982 0.07200
C 	C 	0.56546 0.09413 0.51531 -0.07100
C 	C 	0.49496 0.04808 0.51594 0.03200
C 	C 	0.45378 0.05947 0.52357 0.05900
C 	C 	0.48378 0.11587 0.53067 0.00000
C 	C 	0.55457 0.16106 0.53024 -0.08400
C 	C 	0.59540 0.15086 0.52235 0.12200
N 	N 	0.38165 0.01317 0.52428 -0.01400
N 	N 	0.66714 0.19836 0.52140 -0.02500
C 	C 	0.44676 0.92473 0.51314 -0.06900
N 	N 	0.39937 0.80289 0.51104 -0.02300
H 	H 	0.45397 0.91997 0.52207 0.08400
O 	O 	0.68774 0.26150 0.51937 -0.08800
O 	O 	0.71157 0.17779 0.52186 -0.08700
O 	O 	0.34262 0.00278 0.51554 -0.07700
O 	O 	0.44285 0.79463 0.51711 -0.08800
O 	O 	0.33669 0.75360 0.50997 -0.09200
C 	C 	0.96636 0.43779 0.52521 -0.06300
C 	C 	0.97269 0.48599 0.51727 0.03100
C 	C 	0.92390 0.50767 0.51706 0.06400
C 	C 	0.86932 0.48069 0.52478 -0.00400
H 	H 	0.83181 0.49728 0.52458 0.06800
O 	O 	0.98358 0.61685 0.50903 -0.07600
C 	C 	0.58647 0.21332 0.53896 0.30800
C 	C 	0.80534 0.40436 0.54074 0.30300
C 	C 	0.61070 0.42415 0.54120 0.30500
O 	O 	0.62988 0.20911 0.54616 -0.35200
O 	O 	0.55971 0.25282 0.54093 -0.37100
O 	O 	0.56520 0.37884 0.54834 -0.36500
O 	O 	0.67800 0.45318 0.54300 -0.36300
O 	O 	0.76762 0.33766 0.54153 -0.34100
O 	O 	0.80317 0.44526 0.54858 -0.35800
H 	H 	0.66823 0.34456 0.54524 0.16100
C 	C 	0.60389 0.52299 0.53365 0.12500
N 	N 	0.65007 0.56514 0.54224 -0.02400
H 	H 	0.58885 0.60212 0.52688 0.08600
N 	N 	0.42409 0.54122 0.52584 -0.01700
O 	O 	0.70798 0.61764 0.53945 -0.09100
O 	O 	0.42849 0.59038 0.53196 -0.08600
O 	O 	0.39499 0.48046 0.52995 -0.08000
H 	H 	0.45225 0.12352 0.53674 0.06400
O 	O 	0.35439 0.98481 0.53387 -0.09700
C 	C 	0.86319 0.43263 0.53274 -0.07500
C 	C 	0.91255 0.41172 0.53303 0.12500
N 	N 	0.90940 0.36561 0.54148 -0.02300
O 	O 	0.90109 0.30723 0.53855 -0.08600
Ni	Ni	0.70784 0.28851 0.55550 1.11900
Ni	Ni	0.71800 0.43480 0.55686 1.12500
Ni	Ni	0.57072 0.30120 0.55576 1.12300
O 	O 	0.55195 0.21295 0.56302 -0.37700
O 	O 	0.66687 0.34143 0.55354 -0.72400
O 	O 	0.63148 0.55466 0.55277 -0.09000
O 	O 	0.92095 0.38431 0.55200 -0.08800
C 	C 	0.78692 0.38988 0.57329 0.30800
C 	C 	0.59028 0.20909 0.57104 0.30700
C 	C 	0.61218 0.40034 0.57400 0.30600
O 	O 	0.64872 0.44463 0.56619 -0.37000
O 	O 	0.79244 0.35511 0.56498 -0.35800
O 	O 	0.75493 0.42412 0.57187 -0.38000
O 	O 	0.65724 0.24595 0.57051 -0.37900
O 	O 	0.57377 0.33631 0.57141 -0.38400
C 	C 	0.49780 0.09466 0.57693 0.02000
H 	H 	0.47152 0.08950 0.56901 0.04800
H 	H 	0.91987 0.43152 0.57810 0.05200
C 	C 	0.55905 0.15434 0.57944 -0.08500
H 	H 	0.42477 0.99445 0.58241 0.05500
C 	C 	0.62404 0.48770 0.58790 0.01800
C 	C 	0.61276 0.42264 0.58570 -0.08000
H 	H 	0.63227 0.52209 0.58101 0.05300
C 	C 	0.88738 0.41746 0.58550 0.02100
C 	C 	0.81648 0.39070 0.58435 -0.08300
C 	C 	0.59243 0.15993 0.58975 0.01800
C 	C 	0.47145 0.04060 0.58449 -0.06000
C 	C 	0.60240 0.37880 0.59474 0.01700
H 	H 	0.59479 0.32887 0.59318 0.03700
C 	C 	0.91693 0.42973 0.59625 -0.06100
C 	C 	0.77482 0.37224 0.59398 0.02000
H 	H 	0.97208 0.45308 0.59708 0.05500
H 	H 	0.71985 0.35035 0.59315 0.03300
C 	C 	0.51461 0.95140 0.60349 -0.03500
C 	C 	0.50601 0.04561 0.59461 0.03100
C 	C 	0.56613 0.10569 0.59727 -0.06500
H 	H 	0.55981 0.96470 0.59847 0.04600
H 	H 	0.63904 0.20602 0.59188 0.03600
C 	C 	0.62282 0.50790 0.59900 -0.06000
H 	H 	0.62951 0.55746 0.60058 0.05300
C 	C 	0.47980 0.98767 0.60235 0.00100
C 	C 	0.61076 0.46340 0.60800 0.02800
C 	C 	0.60180 0.39923 0.60583 -0.06400
H 	H 	0.59308 0.36475 0.61272 0.04700
C 	C 	0.90738 0.43641 0.61714 0.00300
C 	C 	0.87559 0.41480 0.60590 0.02900
C 	C 	0.80422 0.38413 0.60472 -0.06400
H 	H 	0.86516 0.50170 0.62019 0.04200
H 	H 	0.77177 0.37138 0.61211 0.04700
C 	C 	0.43401 0.88173 0.61797 0.00200
C 	C 	0.39816 0.91694 0.61660 -0.03600
C 	C 	0.42091 0.96960 0.60880 -0.03600
C 	C 	0.49170 0.89849 0.61125 -0.03500
H 	H 	0.31239 0.76614 0.62077 0.05100
H 	H 	0.39359 0.99721 0.60793 0.04300
H 	H 	0.51948 0.87138 0.61220 0.04400
H 	H 	0.59268 0.11018 0.60514 0.04900
C 	C 	0.52558 0.46510 0.63531 -0.03600
C 	C 	0.53730 0.44432 0.62488 -0.03700
C 	C 	0.60103 0.48154 0.61953 0.00200
C 	C 	0.65402 0.53811 0.62495 -0.03800
H 	H 	0.49613 0.40051 0.62078 0.04300
H 	H 	0.70369 0.56669 0.62095 0.04200
C 	C 	0.93253 0.50813 0.63360 -0.03600
C 	C 	0.89795 0.48330 0.62339 -0.03700
C 	C 	0.94984 0.41286 0.62138 -0.03900
C 	C 	0.98466 0.43791 0.63158 -0.03000
H 	H 	0.95691 0.37618 0.61667 0.04500
C 	C 	0.32685 0.73422 0.63713 0.01600
C 	C 	0.34822 0.77584 0.62760 -0.06400
C 	C 	0.41477 0.83166 0.62711 0.02900
C 	C 	0.46106 0.84293 0.63591 -0.06400
H 	H 	0.27438 0.69325 0.63765 0.03700
H 	H 	0.51269 0.88557 0.63559 0.04800
H 	H 	0.35379 0.90464 0.62178 0.04200
C 	C 	0.97710 0.48657 0.63763 0.00200
H 	H 	0.92607 0.54538 0.63824 0.04200
C 	C 	0.46076 0.77326 0.69240 0.29200
C 	C 	0.29246 0.66276 0.70546 0.30900
C 	C 	0.34601 0.71422 0.65713 0.28500
C 	C 	0.26703 0.48747 0.68820 0.31100
C 	C 	0.43214 0.59178 0.67074 0.28900
Ni	Ni	0.31446 0.71281 0.68181 1.11400
Ni	Ni	0.29593 0.57961 0.66879 1.12000
Ni	Ni	0.37931 0.62481 0.69184 1.12100
O 	O 	0.40387 0.77744 0.69105 -0.37000
O 	O 	0.46232 0.71723 0.69011 -0.38600
O 	O 	0.28028 0.49631 0.67731 -0.38500
O 	O 	0.22119 0.66876 0.67310 -0.37100
O 	O 	0.41934 0.58033 0.68177 -0.38200
O 	O 	0.26108 0.66582 0.69636 -0.37800
O 	O 	0.35258 0.66647 0.70471 -0.38200
O 	O 	0.38613 0.59150 0.66367 -0.38500
O 	O 	0.35733 0.75250 0.66621 -0.37100
O 	O 	0.29982 0.64855 0.65723 -0.37700
O 	O 	0.29295 0.53872 0.69517 -0.39200
O 	O 	0.34351 0.64971 0.67944 -0.71700
H 	H 	0.38608 0.67770 0.67519 0.15900
C 	C 	0.86285 0.94371 0.78909 0.30900
Ni	Ni	0.95199 0.05757 0.80420 1.11700
Ni	Ni	0.93405 0.90808 0.80653 1.12300
O 	O 	0.99253 0.08441 0.78808 -0.37300
O 	O 	0.86215 0.98499 0.79668 -0.35800
O 	O 	0.89421 0.90930 0.79116 -0.37800
O 	O 	0.99023 0.00311 0.80745 -0.72200
O 	O 	0.23348 0.23044 0.81028 -0.09500
N 	N 	0.71751 0.89862 0.81451 -0.02100
O 	O 	0.68422 0.83828 0.81025 -0.09200
O 	O 	0.73025 0.95042 0.80829 -0.08500
C 	C 	0.51819 0.82633 0.69890 -0.08300
C 	C 	0.50504 0.86131 0.70739 0.01600
C 	C 	0.55243 0.89301 0.71608 -0.06500
C 	C 	0.61320 0.88997 0.71635 0.02800
C 	C 	0.63033 0.86310 0.70709 -0.06400
C 	C 	0.58321 0.83189 0.69834 0.01400
C 	C 	0.65178 0.90312 0.72700 0.00100
C 	C 	0.72207 0.95049 0.72737 -0.03700
C 	C 	0.75960 0.95840 0.73723 -0.03700
C 	C 	0.72706 0.91900 0.74678 0.00300
C 	C 	0.65661 0.87250 0.74645 -0.03600
C 	C 	0.61920 0.86445 0.73661 -0.03500
C 	C 	0.76638 0.92686 0.75717 0.02900
C 	C 	0.79567 0.98777 0.76315 -0.06200
C 	C 	0.82767 0.99339 0.77352 0.02300
C 	C 	0.83064 0.93805 0.77801 -0.08100
C 	C 	0.80296 0.87765 0.77187 0.02200
C 	C 	0.77094 0.87209 0.76150 -0.06300
H 	H 	0.45604 0.85950 0.70775 0.03700
H 	H 	0.53978 0.91573 0.72301 0.04900
H 	H 	0.67803 0.86221 0.70704 0.04800
H 	H 	0.59529 0.80777 0.69156 0.03600
H 	H 	0.74769 0.98053 0.72000 0.04000
H 	H 	0.81397 0.99464 0.73743 0.04100
H 	H 	0.63095 0.84236 0.75382 0.04700
H 	H 	0.56511 0.82730 0.73638 0.04300
H 	H 	0.79254 0.03036 0.75987 0.05100
H 	H 	0.85012 0.04074 0.77806 0.03800
H 	H 	0.80520 0.83471 0.77521 0.04200
H 	H 	0.74879 0.82496 0.75689 0.05100
C 	C 	0.23185 0.41932 0.69293 -0.09000
C 	C 	0.27044 0.38894 0.69599 0.01800
C 	C 	0.24646 0.33939 0.70439 -0.06600
H 	H 	0.32150 0.40784 0.69259 0.03100
H 	H 	0.27901 0.32015 0.70735 0.04800
H 	H 	0.21948 0.25744 0.76078 0.05200
H 	H 	0.99016 0.05511 0.76615 0.04200
C 	C 	0.26738 0.67009 0.71650 -0.09000
C 	C 	0.28253 0.74113 0.73270 -0.06600
C 	C 	0.31026 0.72400 0.72358 0.01900
H 	H 	0.31539 0.78508 0.73774 0.05000
H 	H 	0.36426 0.75500 0.72163 0.03500
H 	H 	0.24076 0.72734 0.75724 0.04500
C 	C 	0.48954 0.58713 0.66583 -0.08200
C 	C 	0.49447 0.52907 0.66765 0.01600
C 	C 	0.53015 0.51148 0.65996 -0.06500
C 	C 	0.56091 0.55185 0.65042 0.02800
C 	C 	0.56377 0.61435 0.64950 -0.06300
C 	C 	0.52841 0.63202 0.65721 0.01600
C 	C 	0.57750 0.52341 0.64052 0.00100
C 	C 	0.64233 0.55891 0.63542 -0.03700
H 	H 	0.46596 0.49473 0.67444 0.03600
H 	H 	0.52956 0.46413 0.66097 0.04700
H 	H 	0.58881 0.64679 0.64233 0.04900
H 	H 	0.52651 0.67796 0.65592 0.03100
H 	H 	0.47525 0.43750 0.63913 0.04200
H 	H 	0.68291 0.60370 0.63939 0.04000
H 	H 	0.98043 0.42817 0.65739 0.05200
C 	C 	0.37194 0.74815 0.64624 -0.08100
C 	C 	0.43977 0.80127 0.64541 0.01500
H 	H 	0.47522 0.81188 0.65234 0.03200
C 	C 	0.85861 0.95853 0.82156 0.30600
O 	O 	0.89909 0.02365 0.81934 -0.36100
O 	O 	0.85458 0.91076 0.81460 -0.35500
O 	O 	0.97752 0.90159 0.82098 -0.37200
H 	H 	0.99334 0.00813 0.81572 0.16100
H 	H 	0.98523 0.79482 0.82785 0.06900
N 	N 	0.24104 0.82112 0.83635 -0.01600
O 	O 	0.30598 0.86473 0.83537 -0.08600
N 	N 	0.22976 0.22092 0.82114 -0.02300
O 	O 	0.27025 0.20340 0.82605 -0.07500
C 	C 	0.80312 0.93959 0.82983 -0.08200
C 	C 	0.73417 0.90746 0.82626 0.12400
C 	C 	0.68154 0.88518 0.83425 -0.07100
H 	H 	0.62857 0.85892 0.83148 0.08700
O 	O 	0.55452 0.94444 0.84275 -0.08600
C 	C 	0.24000 0.76628 0.85418 0.00100
H 	H 	0.28290 0.76152 0.85117 0.07500
O 	O 	0.23005 0.04148 0.83282 -0.07800
O 	O 	0.96321 0.69199 0.84381 -0.08600
H 	H 	0.27062 0.31970 0.83619 0.08500
C 	C 	0.24336 0.48801 0.85184 0.12500
N 	N 	0.25320 0.55089 0.84763 -0.02300
O 	O 	0.31465 0.60277 0.84694 -0.08000
C 	C 	0.64043 0.86572 0.85412 0.02900
C 	C 	0.59293 0.88873 0.85511 0.05900
C 	C 	0.53487 0.85368 0.86198 0.00100
C 	C 	0.69687 0.89615 0.84579 0.02800
N 	N 	0.60322 0.94728 0.84907 -0.01700
H 	H 	0.49782 0.87072 0.86256 0.06700
C 	C 	0.76596 0.93112 0.84934 0.06100
C 	C 	0.81871 0.95236 0.84133 -0.00400
H 	H 	0.87173 0.97832 0.84408 0.06700
O 	O 	0.65969 0.00438 0.85039 -0.07800
C 	C 	0.29175 0.54093 0.87070 0.32300
C 	C 	0.46088 0.75774 0.87466 0.32300
C 	C 	0.24227 0.71027 0.87210 0.32500
O 	O 	0.33787 0.54863 0.87829 -0.35900
O 	O 	0.26064 0.57654 0.87129 -0.36200
O 	O 	0.42811 0.69181 0.87418 -0.35300
O 	O 	0.44369 0.78924 0.88215 -0.36600
O 	O 	0.30881 0.74230 0.87378 -0.38200
C 	C 	0.23122 0.36588 0.85937 0.05900
C 	C 	0.26101 0.42277 0.86635 -0.00100
C 	C 	0.26626 0.48369 0.86275 -0.08900
N 	N 	0.22651 0.30434 0.86319 -0.01700
H 	H 	0.27833 0.41898 0.87471 0.06800
O 	O 	0.28166 0.30321 0.86611 -0.09000
C 	C 	0.63066 0.80961 0.86038 -0.07100
C 	C 	0.52414 0.79635 0.86798 -0.08700
C 	C 	0.57347 0.77543 0.86740 0.12600
N 	N 	0.56645 0.72047 0.87414 -0.02700
H 	H 	0.66740 0.79221 0.85973 0.08600
N 	N 	0.78267 0.94472 0.86107 -0.01600
O 	O 	0.55804 0.66583 0.86931 -0.09500
O 	O 	0.82411 0.92773 0.86578 -0.09000
O 	O 	0.75969 0.97757 0.86687 -0.07900
Ni	Ni	0.38992 0.63345 0.88856 1.12000
Ni	Ni	0.23090 0.59669 0.88622 1.12400
Ni	Ni	0.34850 0.75069 0.88923 1.12300
O 	O 	0.45826 0.71364 0.89894 -0.35100
O 	O 	0.26114 0.73419 0.89714 -0.36700
O 	O 	0.23626 0.51860 0.89367 -0.37200
O 	O 	0.32295 0.65830 0.89053 -0.71400
H 	H 	0.31814 0.65337 0.89878 0.14900
O 	O 	0.57499 0.72751 0.88501 -0.10200
C 	C 	0.44007 0.74414 0.90665 0.28500
C 	C 	0.27687 0.52392 0.90227 0.28500
C 	C 	0.22549 0.68256 0.90410 0.28900
O 	O 	0.39739 0.76672 0.90419 -0.37600
O 	O 	0.34402 0.56645 0.90187 -0.36700
C 	C 	0.47855 0.76578 0.91734 -0.07400
C 	C 	0.49179 0.82660 0.92243 0.01700
C 	C 	0.52616 0.84619 0.93275 -0.06100
C 	C 	0.50034 0.72492 0.92270 0.01400
H 	H 	0.47588 0.85896 0.91834 0.04300
H 	H 	0.48986 0.67760 0.91892 0.04000
C 	C 	0.25047 0.46988 0.91077 -0.07700
C 	C 	0.27083 0.48479 0.92209 0.01400
H 	H 	0.30545 0.53629 0.92467 0.03300
H 	H 	0.22497 0.26165 0.92832 0.04800
C 	C 	0.21882 0.75759 0.91877 0.01700
H 	H 	0.22825 0.79491 0.91234 0.05100
C 	C 	0.54771 0.80530 0.93811 0.02700
C 	C 	0.53480 0.74463 0.93304 -0.06100
H 	H 	0.53658 0.89345 0.93654 0.05000
H 	H 	0.55130 0.71274 0.93713 0.05100
H 	H 	0.67885 0.83627 0.94192 0.04700
C 	C 	0.24599 0.43320 0.93014 -0.06200
H 	H 	0.26179 0.44514 0.93887 0.04800
C 	C 	0.58575 0.82722 0.94883 0.00300
C 	C 	0.65443 0.84292 0.94930 -0.03700
C 	C 	0.69211 0.86846 0.95923 -0.03500
C 	C 	0.55472 0.83634 0.95844 -0.03800
H 	H 	0.74518 0.88053 0.95951 0.04200
H 	H 	0.50164 0.82421 0.95816 0.04000
H 	H 	0.98794 0.10985 0.95492 0.05600
C 	C 	0.24730 0.78478 0.95657 -0.03800
H 	H 	0.29846 0.80747 0.95305 0.04000
C 	C 	0.66148 0.87867 0.96878 -0.00100
C 	C 	0.59248 0.86197 0.96838 -0.03700
H 	H 	0.77156 0.00293 0.97192 0.05300
H 	H 	0.94325 0.03421 0.97141 0.03400
C 	C 	0.23762 0.80405 0.96731 -0.03700
C 	C 	0.70163 0.90593 0.97921 0.02900
C 	C 	0.76014 0.97019 0.97917 -0.07000
C 	C 	0.80635 0.99056 0.98817 0.01400
H 	H 	0.56832 0.86932 0.97573 0.03900
H 	H 	0.85345 0.03858 0.98771 0.04300
H 	H 	0.28137 0.84168 0.97200 0.03900
O 	O 	0.96017 0.97442 0.98989 -0.37800
C 	C 	0.68634 0.86480 0.98878 -0.06700
H 	H 	0.64054 0.81561 0.98897 0.04800
C 	C 	0.79460 0.94652 0.99725 -0.09100
C 	C 	0.73249 0.88515 0.99779 0.01500
