data_crystal

_cell_length_a 25.18832
_cell_length_b 21.46468
_cell_length_c 53.69189
_cell_angle_alpha 90.58622
_cell_angle_beta  91.34508
_cell_angle_gamma 110.73737

_symmetry_space_group_name_	'P 1'
_symmetry_space_group_name_H-M	'P 1'

loop_
_symmetry_equiv_pos_as_xyz
  x,y,z

loop_
_atom_site_label
_atom_site_type_symbol
_atom_site_fract_x
_atom_site_fract_y
_atom_site_fract_z
_atom_site_charge
Ni	Ni	0.70088 0.30797 0.88491 1.09900
O 	O 	0.63356 0.26882 0.86023 -0.70200
Ni	Ni	0.57008 0.27923 0.88023 1.09700
O 	O 	0.75724 0.28048 0.86443 -0.36300
O 	O 	0.69776 0.17441 0.85557 -0.40700
O 	O 	0.73165 0.39537 0.86519 -0.36700
Ni	Ni	0.61458 0.17251 0.85505 1.06400
O 	O 	0.74309 0.44484 0.91225 -0.40500
O 	O 	0.61643 0.15697 0.89239 -0.42100
O 	O 	0.50636 0.23654 0.85454 -0.37900
O 	O 	0.63773 0.31984 0.90453 -0.70400
O 	O 	0.76335 0.34906 0.91120 -0.38700
O 	O 	0.51465 0.30607 0.90174 -0.36500
O 	O 	0.57352 0.41380 0.90707 -0.40800
Ni	Ni	0.65657 0.41623 0.90921 1.06700
H 	H 	0.63826 0.29282 0.84431 0.15600
H 	H 	0.63343 0.29690 0.92064 0.15000
C 	C 	0.57438 0.15658 0.90628 0.29900
O 	O 	0.65854 0.43162 0.87201 -0.41700
C 	C 	0.74292 0.22611 0.85039 0.28200
C 	C 	0.49696 0.17613 0.84563 0.28600
C 	C 	0.70317 0.43442 0.85951 0.29500
C 	C 	0.53001 0.36300 0.91424 0.28400
C 	C 	0.77078 0.40778 0.92135 0.29100
O 	O 	0.54295 0.19203 0.90014 -0.37000
O 	O 	0.52760 0.14140 0.85394 -0.40800
Ni	Ni	0.63425 0.33044 0.57329 1.10000
O 	O 	0.69788 0.35841 0.54796 -0.69900
Ni	Ni	0.75407 0.32169 0.56314 1.09700
O 	O 	0.59441 0.39331 0.56073 -0.37000
O 	O 	0.67788 0.48069 0.56139 -0.41700
O 	O 	0.58273 0.26046 0.54817 -0.37500
Ni	Ni	0.73541 0.45319 0.54129 1.07000
O 	O 	0.56564 0.18657 0.58929 -0.40100
O 	O 	0.79643 0.49154 0.56912 -0.39500
O 	O 	0.82296 0.36161 0.54069 -0.38600
O 	O 	0.68710 0.28709 0.58660 -0.70300
O 	O 	0.57295 0.29423 0.59883 -0.37900
O 	O 	0.79592 0.26714 0.58070 -0.36200
O 	O 	0.71979 0.17072 0.57511 -0.41000
Ni	Ni	0.64712 0.19112 0.58310 1.06800
H 	H 	0.68426 0.33527 0.53176 0.14700
H 	H 	0.69811 0.30041 0.60422 0.16300
C 	C 	0.81961 0.45718 0.58293 0.30000
O 	O 	0.63575 0.19408 0.54561 -0.41900
C 	C 	0.62359 0.45541 0.55535 0.28800
C 	C 	0.83265 0.41533 0.52695 0.29900
C 	C 	0.59863 0.21727 0.53572 0.29800
C 	C 	0.77025 0.20343 0.58526 0.27700
C 	C 	0.54998 0.22944 0.60255 0.28100
O 	O 	0.78994 0.39600 0.58901 -0.38600
O 	O 	0.79070 0.43341 0.51859 -0.42700
Ni	Ni	0.00405 0.94453 0.73628 1.09300
O 	O 	0.03039 0.87953 0.71680 -0.71300
Ni	Ni	0.07364 0.93745 0.68974 1.09700
O 	O 	0.96131 0.87151 0.76063 -0.36100
O 	O 	0.90959 0.80406 0.72888 -0.40300
O 	O 	0.07446 0.96959 0.76038 -0.37100
Ni	Ni	0.96593 0.80925 0.70055 1.06800
O 	O 	0.06384 0.08970 0.75438 -0.40600
O 	O 	0.93327 0.87299 0.68334 -0.40600
O 	O 	0.09899 0.86650 0.67340 -0.36400
O 	O 	0.04069 0.00170 0.70713 -0.68800
O 	O 	0.97556 0.01011 0.75404 -0.36400
O 	O 	0.13116 0.00709 0.66840 -0.35000
O 	O 	0.14246 0.10554 0.68793 -0.39300
Ni	Ni	0.09788 0.08404 0.72067 1.07200
H 	H 	0.05462 0.86116 0.72689 0.15900
H 	H 	0.01202 0.01259 0.69697 0.16100
C 	C 	0.96011 0.91298 0.66573 0.28900
O 	O 	0.14290 0.02882 0.73353 -0.41700
C 	C 	0.92513 0.81350 0.75258 0.27800
C 	C 	0.06052 0.80696 0.66847 0.27900
C 	C 	0.12807 0.99265 0.75351 0.27700
C 	C 	0.16462 0.06501 0.67761 0.28900
C 	C 	0.00874 0.07249 0.75719 0.28000
O 	O 	0.01347 0.92196 0.66156 -0.36800
O 	O 	0.00591 0.79802 0.66915 -0.40300
Ni	Ni	0.26359 0.67950 0.39621 1.09900
O 	O 	0.32859 0.72737 0.37327 -0.70500
Ni	Ni	0.39549 0.72889 0.39417 1.10300
O 	O 	0.20528 0.68692 0.37028 -0.36900
O 	O 	0.24968 0.80024 0.36919 -0.40400
O 	O 	0.26414 0.59434 0.37893 -0.39000
Ni	Ni	0.33663 0.81872 0.36664 1.06700
O 	O 	0.25444 0.62551 0.45418 -0.41800
O 	O 	0.34348 0.84579 0.40347 -0.41600
O 	O 	0.45499 0.76860 0.36825 -0.37200
O 	O 	0.33111 0.69431 0.41878 -0.70100
O 	O 	0.19944 0.62433 0.41881 -0.38100
O 	O 	0.45322 0.70388 0.41574 -0.37600
O 	O 	0.38831 0.59958 0.41930 -0.41500
Ni	Ni	0.31918 0.61123 0.43612 1.07300
H 	H 	0.32665 0.70227 0.35749 0.16500
H 	H 	0.33260 0.72917 0.43124 0.15400
C 	C 	0.39043 0.85583 0.41653 0.29900
O 	O 	0.26147 0.53702 0.41477 -0.39800
C 	C 	0.20922 0.74502 0.36105 0.27500
C 	C 	0.45609 0.82263 0.35622 0.27900
C 	C 	0.25425 0.53792 0.39047 0.30900
C 	C 	0.43933 0.64318 0.42433 0.28800
C 	C 	0.20490 0.61911 0.44329 0.29600
O 	O 	0.42306 0.82127 0.41170 -0.37400
O 	O 	0.42349 0.85652 0.36321 -0.40500
Ni	Ni	0.34189 0.68411 0.05832 1.10100
O 	O 	0.27090 0.66633 0.03613 -0.70300
Ni	Ni	0.22128 0.69416 0.05886 1.10000
O 	O 	0.37079 0.62064 0.03864 -0.38400
O 	O 	0.28508 0.53729 0.04183 -0.41700
O 	O 	0.38753 0.76020 0.03557 -0.37600
Ni	Ni	0.22932 0.57566 0.02423 1.07000
O 	O 	0.41751 0.82013 0.08116 -0.40200
O 	O 	0.16728 0.53360 0.04965 -0.39900
O 	O 	0.14393 0.65762 0.03978 -0.37100
O 	O 	0.29668 0.72426 0.07875 -0.70300
O 	O 	0.41137 0.71051 0.08154 -0.38100
O 	O 	0.18801 0.74146 0.08411 -0.36200
O 	O 	0.26073 0.84079 0.07883 -0.40800
Ni	Ni	0.33586 0.82018 0.07966 1.06900
H 	H 	0.27923 0.69596 0.02163 0.15300
H 	H 	0.29257 0.70639 0.09581 0.16300
C 	C 	0.16862 0.55182 0.07316 0.31100
O 	O 	0.33650 0.82783 0.04195 -0.42100
C 	C 	0.33866 0.55752 0.03555 0.28200
C 	C 	0.13430 0.62455 0.01811 0.30000
C 	C 	0.37160 0.80968 0.02853 0.29700
C 	C 	0.21440 0.80477 0.09032 0.27700
C 	C 	0.43342 0.77221 0.09057 0.28100
O 	O 	0.19921 0.61228 0.08101 -0.39300
O 	O 	0.17495 0.61160 0.00642 -0.42400
Ni	Ni	0.94214 0.03182 0.25771 1.10300
O 	O 	0.94857 0.11047 0.23525 -0.70300
Ni	Ni	0.90969 0.06221 0.20412 1.10300
O 	O 	0.98447 0.09471 0.28659 -0.35000
O 	O 	0.05867 0.14862 0.26171 -0.40300
O 	O 	0.86647 0.03777 0.26884 -0.37000
Ni	Ni	0.02614 0.16307 0.22706 1.06900
O 	O 	0.89630 0.86345 0.24924 -0.39700
O 	O 	0.04388 0.08323 0.21376 -0.40700
O 	O 	0.91231 0.14439 0.18483 -0.36700
O 	O 	0.91515 0.98533 0.22489 -0.70600
O 	O 	0.93001 0.94901 0.27874 -0.36800
O 	O 	0.85158 0.00089 0.17877 -0.36000
O 	O 	0.79557 0.94549 0.21027 -0.41300
Ni	Ni	0.84809 0.90630 0.22997 1.07300
H 	H 	0.92854 0.13907 0.24185 0.16900
H 	H 	0.94504 0.96966 0.21877 0.15400
C 	C 	0.02297 0.05444 0.19224 0.28300
O 	O 	0.81929 0.92650 0.26311 -0.38600
C 	C 	0.03111 0.14593 0.28247 0.27000
C 	C 	0.96082 0.19569 0.18444 0.28400
C 	C 	0.81936 0.98555 0.26939 0.29000
C 	C 	0.80282 0.95873 0.18642 0.26300
C 	C 	0.92978 0.89220 0.26877 0.28400
O 	O 	0.97529 0.05758 0.18281 -0.36000
O 	O 	0.00902 0.18871 0.19189 -0.39800
C 	C 	0.98485 0.29370 0.12632 -0.03200
C 	C 	0.01574 0.35777 0.13625 0.01500
C 	C 	0.01447 0.37027 0.16185 -0.06000
C 	C 	0.98897 0.31771 0.17792 0.02600
C 	C 	0.96485 0.25200 0.16830 -0.07300
C 	C 	0.95917 0.24118 0.14240 0.01700
C 	C 	0.05571 0.40897 0.12068 0.02600
C 	C 	0.03773 0.45619 0.10881 -0.06900
C 	C 	0.07476 0.50425 0.09369 0.03200
C 	C 	0.13057 0.50535 0.09049 -0.08700
C 	C 	0.14877 0.45872 0.10265 0.01400
C 	C 	0.11171 0.41059 0.11771 -0.04300
C 	C 	0.05500 0.55187 0.08139 0.07200
C 	C 	0.13121 0.36257 0.12988 0.09200
C 	C 	0.98174 0.28086 0.09977 0.09400
C 	C 	0.99012 0.33098 0.20439 0.05300
N 	N 	0.03896 0.58991 0.07159 -0.10000
N 	N 	0.14674 0.32405 0.13963 -0.11300
N 	N 	0.99104 0.34156 0.22561 -0.11900
N 	N 	0.97929 0.27063 0.07849 -0.11600
H 	H 	0.93888 0.19097 0.13487 0.05400
H 	H 	0.03615 0.42018 0.16941 0.05400
H 	H 	0.99478 0.45516 0.11120 0.06000
H 	H 	0.19158 0.45939 0.10012 0.03400
C 	C 	0.67305 0.83100 0.15609 -0.03900
C 	C 	0.65270 0.87100 0.14074 0.02000
C 	C 	0.68487 0.93890 0.13851 -0.05600
C 	C 	0.73574 0.96788 0.15238 0.01600
C 	C 	0.75499 0.92829 0.16853 -0.07800
C 	C 	0.72417 0.85969 0.16972 0.00700
C 	C 	0.59602 0.84314 0.12817 0.02200
C 	C 	0.54943 0.85276 0.13912 -0.06000
C 	C 	0.49553 0.82751 0.12747 0.02200
C 	C 	0.48793 0.79198 0.10463 -0.08000
C 	C 	0.53429 0.78093 0.09399 0.01400
C 	C 	0.58830 0.80676 0.10553 -0.04200
C 	C 	0.44810 0.83770 0.13917 0.05000
C 	C 	0.63574 0.79652 0.09386 0.08800
C 	C 	0.64102 0.76074 0.15839 0.08800
C 	C 	0.76659 0.03861 0.15065 0.08700
N 	N 	0.41009 0.84586 0.14853 -0.12800
N 	N 	0.67377 0.78832 0.08454 -0.11900
N 	N 	0.79128 0.09526 0.14925 -0.10600
N 	N 	0.61534 0.70446 0.16021 -0.11600
H 	H 	0.73922 0.82899 0.18187 0.01700
H 	H 	0.66947 0.96951 0.12647 0.05000
H 	H 	0.55527 0.88010 0.15669 0.05400
H 	H 	0.52859 0.75388 0.07635 0.04100
C 	C 	0.19250 0.91726 0.14039 -0.04200
C 	C 	0.13483 0.90879 0.13633 0.02500
C 	C 	0.10302 0.86541 0.11733 -0.06300
C 	C 	0.12830 0.83104 0.10213 0.02800
C 	C 	0.18598 0.83891 0.10635 -0.08100
C 	C 	0.21761 0.88201 0.12551 0.00900
C 	C 	0.10790 0.94733 0.15121 0.00800
C 	C 	0.10074 0.00374 0.14094 -0.04500
C 	C 	0.07370 0.03971 0.15432 0.02100
C 	C 	0.05361 0.01916 0.17828 -0.07100
C 	C 	0.06173 0.96351 0.18875 -0.00500
C 	C 	0.08831 0.92717 0.17528 -0.03300
C 	C 	0.06763 0.09834 0.14352 0.08300
C 	C 	0.09489 0.86897 0.18616 0.08700
C 	C 	0.22631 0.96255 0.15960 0.08900
C 	C 	0.09548 0.79036 0.08159 0.07800
N 	N 	0.06273 0.14528 0.13490 -0.10300
N 	N 	0.10019 0.82236 0.19488 -0.11200
N 	N 	0.06914 0.75781 0.06514 -0.10800
N 	N 	0.25335 0.99883 0.17500 -0.11600
H 	H 	0.26194 0.88840 0.12873 0.02100
H 	H 	0.05877 0.85938 0.11410 0.05300
H 	H 	0.11612 0.01945 0.12249 0.05300
H 	H 	0.04644 0.94784 0.20722 0.02800
C 	C 	0.66982 0.97179 0.28075 -0.03400
C 	C 	0.66520 0.95336 0.30596 0.01700
C 	C 	0.71436 0.95950 0.32013 -0.05500
C 	C 	0.76714 0.97805 0.30881 0.02600
C 	C 	0.77078 0.98982 0.28300 -0.07300
C 	C 	0.72258 0.98992 0.26941 -0.00500
C 	C 	0.60878 0.92200 0.31709 0.02500
C 	C 	0.57701 0.85485 0.31154 -0.05900
C 	C 	0.52577 0.82255 0.32339 0.02300
C 	C 	0.50638 0.85740 0.34134 -0.07900
C 	C 	0.53724 0.92531 0.34619 0.01300
C 	C 	0.58808 0.95771 0.33410 -0.05200
C 	C 	0.49283 0.75415 0.31664 0.06800
C 	C 	0.61888 0.02757 0.33931 0.10100
C 	C 	0.62043 0.97074 0.26629 0.08600
C 	C 	0.81698 0.98196 0.32355 0.08500
N 	N 	0.46645 0.69936 0.31124 -0.11100
N 	N 	0.64359 0.08355 0.34348 -0.11700
N 	N 	0.85694 0.98508 0.33534 -0.10100
N 	N 	0.58083 0.96987 0.25471 -0.11600
H 	H 	0.72552 0.00036 0.24965 0.04600
H 	H 	0.71114 0.94736 0.33973 0.05400
H 	H 	0.59252 0.82761 0.29815 0.05600
H 	H 	0.52237 0.95252 0.35984 0.04100
C 	C 	0.13943 0.24424 0.33102 -0.03900
C 	C 	0.12249 0.29949 0.33490 0.01900
C 	C 	0.07189 0.30015 0.32363 -0.05400
C 	C 	0.03949 0.24769 0.30769 0.01300
C 	C 	0.05804 0.19417 0.30276 -0.07500
C 	C 	0.10728 0.19205 0.31490 0.01200
C 	C 	0.15859 0.35816 0.34995 0.02300
C 	C 	0.20665 0.40454 0.33939 -0.05900
C 	C 	0.23959 0.46225 0.35277 0.02800
C 	C 	0.22367 0.47457 0.37686 -0.08300
C 	C 	0.17645 0.42712 0.38766 0.01400
C 	C 	0.14409 0.36901 0.37439 -0.04200
C 	C 	0.29043 0.50752 0.34194 0.07200
C 	C 	0.09603 0.32074 0.38598 0.09100
C 	C 	0.18993 0.24101 0.34337 0.09100
C 	C 	0.98819 0.25015 0.29584 0.06800
N 	N 	0.33116 0.54379 0.33326 -0.11400
N 	N 	0.05752 0.28204 0.39525 -0.11500
N 	N 	0.94711 0.25208 0.28633 -0.11400
N 	N 	0.23040 0.23847 0.35327 -0.11500
H 	H 	0.12133 0.15059 0.31129 0.04400
H 	H 	0.05835 0.34215 0.32691 0.05400
H 	H 	0.21830 0.39569 0.32071 0.05400
H 	H 	0.16422 0.43611 0.40621 0.04300
C 	C 	0.10513 0.74001 0.30891 -0.04000
C 	C 	0.07489 0.77723 0.31958 0.02300
C 	C 	0.08433 0.79671 0.34476 -0.06200
C 	C 	0.12648 0.78375 0.35888 0.02600
C 	C 	0.15956 0.75066 0.34771 -0.08000
C 	C 	0.14730 0.72685 0.32305 0.00600
C 	C 	0.03794 0.80233 0.30399 0.01500
C 	C 	0.97883 0.77020 0.30434 -0.05100
C 	C 	0.94285 0.79838 0.29246 0.02500
C 	C 	0.96627 0.85928 0.28006 -0.07400
C 	C 	0.02534 0.89015 0.27902 0.00200
C 	C 	0.06125 0.86204 0.29087 -0.03500
C 	C 	0.88207 0.76571 0.29378 0.08000
C 	C 	0.12204 0.89532 0.28987 0.08900
C 	C 	0.09405 0.71662 0.28333 0.09000
C 	C 	0.13599 0.80525 0.38471 0.07000
N 	N 	0.83337 0.73956 0.29485 -0.11000
N 	N 	0.17073 0.92192 0.28909 -0.11800
N 	N 	0.14364 0.82263 0.40539 -0.11900
N 	N 	0.08515 0.69793 0.26282 -0.11300
H 	H 	0.17182 0.70001 0.31464 0.03300
H 	H 	0.06018 0.82413 0.35310 0.05400
H 	H 	0.96091 0.72421 0.31440 0.05400
H 	H 	0.04331 0.93654 0.26918 0.02500
C 	C 	0.55948 0.11506 0.47625 -0.09000
C 	C 	0.50021 0.08915 0.47783 0.00100
C 	C 	0.47325 0.11635 0.49542 0.03200
C 	C 	0.50642 0.16404 0.51293 -0.01400
C 	C 	0.56585 0.18415 0.51316 -0.10800
C 	C 	0.59254 0.16402 0.49336 0.09700
C 	C 	0.46727 0.02967 0.46261 0.01400
C 	C 	0.40940 0.09128 0.49672 -0.17700
H 	H 	0.48590 0.18265 0.52724 0.05500
C 	C 	0.65608 0.19287 0.49078 -0.20000
H 	H 	0.57994 0.09585 0.46208 0.05600
C 	C 	0.45079 0.03578 0.43772 0.03300
C 	C 	0.42366 0.97815 0.42312 -0.01800
C 	C 	0.41247 0.91480 0.43312 -0.10800
C 	C 	0.42639 0.90876 0.45839 0.10200
C 	C 	0.45434 0.96638 0.47287 -0.10200
C 	C 	0.46409 0.10345 0.42639 -0.17600
H 	H 	0.41273 0.98255 0.40372 0.03400
C 	C 	0.41164 0.84117 0.46996 -0.20500
H 	H 	0.46653 0.96208 0.49210 0.05500
H 	H 	0.67304 0.24633 0.49651 0.05700
H 	H 	0.66780 0.18968 0.47111 0.06900
H 	H 	0.67651 0.16484 0.50246 0.07800
H 	H 	0.39412 0.04081 0.50482 0.07500
H 	H 	0.38979 0.08889 0.47783 0.06900
H 	H 	0.39487 0.12468 0.50849 0.07000
H 	H 	0.44303 0.09995 0.40775 0.06800
H 	H 	0.51065 0.12729 0.42427 0.06900
H 	H 	0.44898 0.13567 0.43848 0.06600
H 	H 	0.43771 0.81419 0.46188 0.07500
H 	H 	0.36592 0.81167 0.46651 0.05900
H 	H 	0.41963 0.84525 0.49046 0.06700
C 	C 	0.95901 0.44652 0.48572 -0.09500
C 	C 	0.99581 0.50797 0.49541 0.01000
C 	C 	0.97924 0.53839 0.51577 0.03300
C 	C 	0.92499 0.50817 0.52538 -0.01900
C 	C 	0.88879 0.44598 0.51614 -0.11000
C 	C 	0.90567 0.41492 0.49606 0.10800
C 	C 	0.05135 0.54057 0.48383 -0.00100
C 	C 	0.01892 0.60327 0.52707 -0.18000
H 	H 	0.91096 0.53296 0.54016 0.03500
C 	C 	0.86695 0.34847 0.48556 -0.20800
H 	H 	0.97203 0.42328 0.47014 0.05900
C 	C 	0.09735 0.51933 0.48910 0.02900
C 	C 	0.14751 0.54604 0.47586 -0.01400
C 	C 	0.15329 0.59587 0.45828 -0.10600
C 	C 	0.10889 0.62115 0.45463 0.10100
C 	C 	0.05750 0.59150 0.46677 -0.09000
C 	C 	0.09249 0.46672 0.50822 -0.17700
H 	H 	0.18173 0.52716 0.47890 0.03600
C 	C 	0.11567 0.67908 0.43776 -0.20600
H 	H 	0.02228 0.60828 0.46305 0.05300
H 	H 	0.88494 0.33297 0.46891 0.07500
H 	H 	0.82521 0.35132 0.47987 0.07600
H 	H 	0.86056 0.30961 0.49983 0.08300
H 	H 	0.02422 0.64417 0.51377 0.06800
H 	H 	0.06101 0.59970 0.53152 0.07200
H 	H 	0.00243 0.61612 0.54466 0.06700
H 	H 	0.13440 0.46272 0.51278 0.06700
H 	H 	0.06346 0.41756 0.50095 0.07000
H 	H 	0.07574 0.47920 0.52580 0.07300
H 	H 	0.08443 0.70327 0.44196 0.07600
H 	H 	0.10884 0.66140 0.41803 0.08900
H 	H 	0.15865 0.71772 0.44031 0.07500
C 	C 	0.55737 0.61127 0.46080 -0.10000
C 	C 	0.53041 0.58887 0.48327 0.00900
C 	C 	0.47629 0.59209 0.48737 0.01700
C 	C 	0.44807 0.61273 0.46816 -0.00600
C 	C 	0.47318 0.63030 0.44500 -0.12700
C 	C 	0.52892 0.63149 0.44146 0.11100
C 	C 	0.55613 0.55520 0.50122 0.00100
C 	C 	0.44753 0.57081 0.51180 -0.17000
H 	H 	0.40585 0.61363 0.47101 -0.01800
C 	C 	0.55744 0.65222 0.41696 -0.21400
H 	H 	0.59948 0.61005 0.45797 0.05300
C 	C 	0.54633 0.48651 0.49845 0.02400
C 	C 	0.56833 0.45470 0.51645 -0.02000
C 	C 	0.59914 0.49016 0.53739 -0.12500
C 	C 	0.60784 0.55869 0.54045 0.09900
C 	C 	0.58768 0.59106 0.52190 -0.09600
C 	C 	0.51254 0.44704 0.47629 -0.17400
H 	H 	0.56201 0.40230 0.51403 0.03600
C 	C 	0.63846 0.59752 0.56332 -0.20800
H 	H 	0.59510 0.64383 0.52390 0.05300
H 	H 	0.60034 0.64856 0.41699 0.07400
H 	H 	0.56231 0.70473 0.41326 0.09100
H 	H 	0.53159 0.61955 0.40162 0.08200
H 	H 	0.47529 0.59959 0.52745 0.06600
H 	H 	0.43858 0.51683 0.51443 0.06500
H 	H 	0.40667 0.57955 0.51251 0.05600
H 	H 	0.50733 0.39351 0.47724 0.06300
H 	H 	0.53456 0.46694 0.45885 0.06500
H 	H 	0.46950 0.45026 0.47558 0.06700
H 	H 	0.68485 0.60909 0.56186 0.07900
H 	H 	0.62322 0.56858 0.58040 0.08500
H 	H 	0.63090 0.64524 0.56541 0.07300
C 	C 	0.86640 0.01393 0.65320 -0.02400
C 	C 	0.88472 0.04035 0.62967 0.01400
C 	C 	0.92584 0.02232 0.61744 -0.04000
C 	C 	0.94797 0.97722 0.62819 0.00900
C 	C 	0.93194 0.95346 0.65239 -0.07800
C 	C 	0.89076 0.97176 0.66460 -0.01100
C 	C 	0.85866 0.08398 0.61705 0.02000
C 	C 	0.87044 0.14913 0.62617 -0.05600
C 	C 	0.84261 0.18927 0.61577 0.02100
C 	C 	0.80394 0.16481 0.59538 -0.07900
C 	C 	0.79452 0.10075 0.58552 0.00300
C 	C 	0.82072 0.05993 0.59651 -0.03100
C 	C 	0.85245 0.25432 0.62673 0.07600
C 	C 	0.80722 0.99268 0.58701 0.07300
C 	C 	0.82202 0.02910 0.66561 0.09100
C 	C 	0.98404 0.95247 0.61361 0.09600
N 	N 	0.86036 0.30644 0.63550 -0.10500
N 	N 	0.79644 0.93882 0.57942 -0.11700
N 	N 	0.01287 0.93270 0.60187 -0.10500
N 	N 	0.78649 0.04129 0.67553 -0.11500
H 	H 	0.87808 0.95370 0.68313 0.04200
H 	H 	0.93914 0.04170 0.59912 0.05500
H 	H 	0.90004 0.16781 0.64185 0.05700
H 	H 	0.76582 0.08216 0.56955 0.04400
C 	C 	0.43819 0.21708 0.65017 -0.03900
C 	C 	0.39136 0.16345 0.64041 0.02200
C 	C 	0.39716 0.12972 0.61880 -0.06000
C 	C 	0.44853 0.14987 0.60636 0.02300
C 	C 	0.49575 0.20417 0.61598 -0.07700
C 	C 	0.49011 0.23691 0.63801 0.00600
C 	C 	0.33504 0.14394 0.65195 0.02200
C 	C 	0.29299 0.16471 0.64114 -0.05800
C 	C 	0.23710 0.13925 0.64933 0.02900
C 	C 	0.22310 0.09304 0.66879 -0.07600
C 	C 	0.26544 0.07368 0.68007 0.00800
C 	C 	0.32127 0.09883 0.67177 -0.03600
C 	C 	0.19408 0.15927 0.63717 0.08300
C 	C 	0.36409 0.07778 0.68355 0.09500
C 	C 	0.43321 0.25222 0.67257 0.09100
C 	C 	0.45157 0.11546 0.58347 0.07900
N 	N 	0.15960 0.17527 0.62743 -0.10800
N 	N 	0.39842 0.06096 0.69299 -0.11500
N 	N 	0.45371 0.08747 0.56520 -0.11600
N 	N 	0.42917 0.28032 0.69052 -0.11400
H 	H 	0.52604 0.27822 0.64558 0.03800
H 	H 	0.36108 0.08836 0.61136 0.05500
H 	H 	0.30352 0.19929 0.62586 0.05400
H 	H 	0.25485 0.03881 0.69526 0.04100
C 	C 	0.97459 0.53639 0.60122 -0.03600
C 	C 	0.97282 0.58247 0.61980 0.02500
C 	C 	0.92016 0.58135 0.62824 -0.05800
C 	C 	0.86952 0.53758 0.61733 0.02800
C 	C 	0.87128 0.49401 0.59783 -0.07800
C 	C 	0.92373 0.49142 0.59071 0.00600
C 	C 	0.02530 0.63553 0.62936 0.01500
C 	C 	0.04690 0.69466 0.61600 -0.05600
C 	C 	0.07384 0.75538 0.62885 0.02600
C 	C 	0.07649 0.75654 0.65509 -0.07600
C 	C 	0.06925 0.69670 0.66726 -0.00200
C 	C 	0.04284 0.63574 0.65450 -0.03900
C 	C 	0.09339 0.81666 0.61528 0.08500
C 	C 	0.02956 0.57411 0.66772 0.08400
C 	C 	0.02820 0.53579 0.59251 0.08000
C 	C 	0.81588 0.53807 0.62611 0.07500
N 	N 	0.10919 0.86582 0.60441 -0.10200
N 	N 	0.01887 0.52467 0.67831 -0.11600
N 	N 	0.77290 0.53845 0.63313 -0.11400
N 	N 	0.07115 0.53534 0.58549 -0.12100
H 	H 	0.92503 0.45617 0.57633 0.04100
H 	H 	0.91875 0.61607 0.64282 0.05000
H 	H 	0.03781 0.69424 0.59613 0.04900
H 	H 	0.07671 0.69736 0.68726 0.02400
C 	C 	0.92462 0.48696 0.94284 -0.09800
C 	C 	0.91860 0.50667 0.96725 0.00900
C 	C 	0.86395 0.49521 0.97642 0.02400
C 	C 	0.81590 0.46135 0.96131 -0.01500
C 	C 	0.82189 0.44045 0.93705 -0.11200
C 	C 	0.87670 0.45522 0.92743 0.11500
C 	C 	0.96994 0.53778 0.98326 -0.00100
C 	C 	0.85678 0.51924 0.00218 -0.17400
H 	H 	0.77377 0.45156 0.96836 0.01900
C 	C 	0.88434 0.43718 0.90083 -0.21600
H 	H 	0.96676 0.49641 0.93586 0.05700
C 	C 	0.99368 0.49800 0.99711 0.03800
C 	C 	0.04667 0.52781 0.00927 -0.02300
C 	C 	0.07602 0.59656 0.00785 -0.10000
C 	C 	0.05096 0.63689 0.99515 0.09700
C 	C 	0.99799 0.60703 0.98286 -0.08200
C 	C 	0.96422 0.42340 0.99777 -0.18000
H 	H 	0.06581 0.49724 0.01937 0.04200
C 	C 	0.08161 0.71112 0.99373 -0.20500
H 	H 	0.97927 0.63739 0.97238 0.05400
H 	H 	0.87271 0.38240 0.89880 0.09700
H 	H 	0.92904 0.46124 0.89516 0.08100
H 	H 	0.85737 0.45408 0.88788 0.10200
H 	H 	0.87869 0.57407 0.00382 0.07100
H 	H 	0.87512 0.49480 0.01637 0.06900
H 	H 	0.81133 0.50778 0.00633 0.06200
H 	H 	0.98499 0.40047 0.01154 0.07100
H 	H 	0.96533 0.40117 0.97911 0.07000
H 	H 	0.91937 0.41071 0.00312 0.07000
H 	H 	0.05506 0.73596 0.98422 0.07100
H 	H 	0.12115 0.72153 0.98319 0.07000
H 	H 	0.09258 0.73330 0.01277 0.08700
C 	C 	0.40429 0.92824 0.97440 -0.09400
C 	C 	0.46353 0.94709 0.97376 0.00500
C 	C 	0.49197 0.91648 0.98970 0.02400
C 	C 	0.46108 0.87064 0.00720 -0.01500
C 	C 	0.40192 0.85293 0.00831 -0.11000
C 	C 	0.37295 0.87947 0.99091 0.09600
C 	C 	0.49560 0.99975 0.95657 -0.00300
C 	C 	0.55540 0.93409 0.98864 -0.17300
H 	H 	0.48327 0.84977 0.02034 0.04800
C 	C 	0.30897 0.85666 0.98996 -0.20000
H 	H 	0.38254 0.95117 0.96186 0.05400
C 	C 	0.49823 0.98523 0.93102 0.01800
C 	C 	0.52616 0.03691 0.91491 0.00500
C 	C 	0.55216 0.10242 0.92406 -0.10500
C 	C 	0.55305 0.11602 0.94987 0.09600
C 	C 	0.52368 0.06474 0.96589 -0.07900
C 	C 	0.46987 0.91527 0.92073 -0.16900
H 	H 	0.52632 0.02652 0.89511 0.03700
C 	C 	0.58868 0.18343 0.96056 -0.20100
H 	H 	0.52307 0.07520 0.98566 0.05200
H 	H 	0.29302 0.86844 0.97180 0.06600
H 	H 	0.29439 0.88211 0.00499 0.07700
H 	H 	0.28990 0.80185 0.99213 0.06100
H 	H 	0.57738 0.98540 0.99619 0.06400
H 	H 	0.56805 0.93113 0.96911 0.06500
H 	H 	0.56992 0.89939 0.99973 0.06500
H 	H 	0.48187 0.91065 0.90120 0.06000
H 	H 	0.42303 0.90128 0.92106 0.06600
H 	H 	0.48273 0.87964 0.93202 0.06300
H 	H 	0.58167 0.18773 0.98076 0.06500
H 	H 	0.57781 0.22287 0.95097 0.05700
H 	H 	0.63434 0.19201 0.95803 0.06300
C 	C 	0.43901 0.48561 0.00528 -0.09700
C 	C 	0.40290 0.44392 0.98691 0.00600
C 	C 	0.34391 0.43043 0.98744 0.02200
C 	C 	0.32292 0.46612 0.00417 -0.01600
C 	C 	0.35977 0.51207 0.02133 -0.11700
C 	C 	0.41748 0.51777 0.02316 0.10700
C 	C 	0.42772 0.41747 0.96649 0.00200
C 	C 	0.30356 0.37982 0.96967 -0.17300
H 	H 	0.27823 0.45966 0.00332 0.01200
C 	C 	0.45641 0.55827 0.04385 -0.20900
H 	H 	0.48402 0.49368 0.00545 0.05300
C 	C 	0.44289 0.45269 0.94413 0.02600
C 	C 	0.47247 0.43082 0.92627 -0.01500
C 	C 	0.48905 0.37599 0.93085 -0.10500
C 	C 	0.47187 0.33920 0.95281 0.09400
C 	C 	0.44081 0.36002 0.97034 -0.09100
C 	C 	0.43081 0.51588 0.93995 -0.17300
H 	H 	0.48482 0.45826 0.90922 0.04500
C 	C 	0.49129 0.28212 0.95881 -0.20600
H 	H 	0.42884 0.33308 0.98752 0.05300
H 	H 	0.47367 0.61152 0.03870 0.08800
H 	H 	0.49262 0.54103 0.04728 0.07300
H 	H 	0.43352 0.55314 0.06158 0.08400
H 	H 	0.31229 0.33261 0.96997 0.07000
H 	H 	0.30858 0.39928 0.95046 0.06300
H 	H 	0.25865 0.36805 0.97485 0.06100
H 	H 	0.44293 0.53573 0.92106 0.06300
H 	H 	0.45527 0.55463 0.95387 0.06500
H 	H 	0.38483 0.50641 0.94175 0.06200
H 	H 	0.47087 0.25561 0.97569 0.07100
H 	H 	0.53792 0.30176 0.96236 0.05400
H 	H 	0.48025 0.24510 0.94319 0.09000
C 	C 	0.96615 0.16800 0.80697 -0.04200
C 	C 	0.91901 0.17715 0.79501 0.02300
C 	C 	0.90970 0.16469 0.76931 -0.05800
C 	C 	0.94299 0.13630 0.75608 0.02500
C 	C 	0.98571 0.11963 0.76870 -0.08300
C 	C 	0.99909 0.13889 0.79378 0.02200
C 	C 	0.87484 0.19016 0.80973 0.02100
C 	C 	0.87082 0.25364 0.80969 -0.05900
C 	C 	0.82742 0.26591 0.82244 0.02100
C 	C 	0.78784 0.21415 0.83577 -0.08000
C 	C 	0.79210 0.15056 0.83568 0.00700
C 	C 	0.83484 0.13824 0.82259 -0.03900
C 	C 	0.82321 0.33121 0.82125 0.07300
C 	C 	0.83705 0.07187 0.82223 0.09200
C 	C 	0.97962 0.18613 0.83295 0.09400
C 	C 	0.93252 0.12334 0.72962 0.05600
N 	N 	0.82007 0.38363 0.82029 -0.10700
N 	N 	0.83888 0.01876 0.82192 -0.10900
N 	N 	0.92424 0.11300 0.70842 -0.12000
N 	N 	0.99036 0.20064 0.85377 -0.11500
H 	H 	0.03312 0.12800 0.80335 0.04000
H 	H 	0.87478 0.17407 0.75987 0.05400
H 	H 	0.90114 0.29332 0.79949 0.05400
H 	H 	0.76233 0.11065 0.84599 0.04300
C 	C 	0.37652 0.12439 0.79765 -0.03700
C 	C 	0.33513 0.07197 0.80982 0.01600
C 	C 	0.34751 0.05323 0.83356 -0.05600
C 	C 	0.39967 0.08788 0.84567 0.02600
C 	C 	0.44136 0.13979 0.83340 -0.07900
C 	C 	0.42944 0.15772 0.80946 0.00500
C 	C 	0.27749 0.03914 0.79845 0.03700
C 	C 	0.26997 0.99622 0.77773 -0.07700
C 	C 	0.21824 0.97400 0.76416 0.03100
C 	C 	0.17324 0.99397 0.77161 -0.09600
C 	C 	0.17865 0.03008 0.79403 0.02700
C 	C 	0.23079 0.05386 0.80724 -0.05000
C 	C 	0.21222 0.93259 0.74213 0.05200
C 	C 	0.23683 0.09612 0.82903 0.09300
C 	C 	0.36474 0.14475 0.77320 0.08900
C 	C 	0.40861 0.07262 0.87123 0.08200
N 	N 	0.20736 0.89948 0.72446 -0.12100
N 	N 	0.24172 0.12998 0.84648 -0.11600
N 	N 	0.41549 0.06039 0.89172 -0.10800
N 	N 	0.35526 0.16096 0.75360 -0.11400
H 	H 	0.46125 0.19785 0.80007 0.03000
H 	H 	0.31565 0.01318 0.84296 0.05300
H 	H 	0.30520 0.98271 0.77151 0.05400
H 	H 	0.14367 0.04429 0.80011 0.04400
C 	C 	0.88657 0.67504 0.79896 -0.03900
C 	C 	0.82711 0.65760 0.79963 0.02000
C 	C 	0.80080 0.69563 0.78665 -0.05900
C 	C 	0.83294 0.74933 0.77232 0.02600
C 	C 	0.89212 0.76492 0.77072 -0.07900
C 	C 	0.91874 0.72864 0.78456 0.00400
C 	C 	0.79212 0.60034 0.81435 0.02300
C 	C 	0.77884 0.61140 0.83879 -0.06000
C 	C 	0.74798 0.55784 0.85346 0.02900
C 	C 	0.72972 0.49210 0.84353 -0.08300
C 	C 	0.74149 0.48130 0.81879 0.01600
C 	C 	0.77265 0.53499 0.80417 -0.04100
C 	C 	0.73648 0.57071 0.87887 0.06500
C 	C 	0.78502 0.52260 0.77886 0.09100
C 	C 	0.91474 0.63763 0.81274 0.09000
C 	C 	0.80508 0.78884 0.75962 0.07900
N 	N 	0.72729 0.58117 0.89920 -0.13200
N 	N 	0.79497 0.51272 0.75858 -0.11800
N 	N 	0.78276 0.82049 0.74946 -0.10900
N 	N 	0.93724 0.60759 0.82378 -0.11600
H 	H 	0.96427 0.74089 0.78352 0.03100
H 	H 	0.75524 0.68318 0.78763 0.05300
H 	H 	0.79337 0.66173 0.84653 0.05400
H 	H 	0.72695 0.43102 0.81102 0.03400
