data_crystal

_cell_length_a 41.98266
_cell_length_b 41.94873
_cell_length_c 18.64218
_cell_angle_alpha 89.99781
_cell_angle_beta  89.99905
_cell_angle_gamma 89.99837

_symmetry_space_group_name_	'P 1'
_symmetry_space_group_name_H-M	'P 1'

loop_
_symmetry_equiv_pos_as_xyz
  x,y,z

loop_
_atom_site_label
_atom_site_type_symbol
_atom_site_fract_x
_atom_site_fract_y
_atom_site_fract_z
_atom_site_charge
Zn	Zn	0.58949 0.06694 0.68159 1.22500
Zn	Zn	0.58374 0.13727 0.59999 1.20300
C 	C 	0.49384 0.09442 0.82446 0.32900
Zn	Zn	0.54026 0.11972 0.72382 1.22900
Zn	Zn	0.54212 0.04513 0.79500 1.21100
H 	H 	0.54146 0.09423 0.60264 0.19200
C 	C 	0.59649 0.15588 0.75987 0.33000
O 	O 	0.56811 0.00658 0.77809 -0.41600
O 	O 	0.61405 0.03062 0.74079 -0.36500
O 	O 	0.55806 0.10148 0.63663 -0.78900
O 	O 	0.62034 0.11340 0.55854 -0.43200
O 	O 	0.56778 0.03318 0.62574 -0.41500
O 	O 	0.63307 0.08087 0.65324 -0.40600
O 	O 	0.52141 0.03965 0.68871 -0.38900
O 	O 	0.56207 0.17890 0.61615 -0.41900
H 	H 	0.58353 0.08885 0.80559 0.20900
O 	O 	0.51750 0.15818 0.66859 -0.38400
O 	O 	0.56805 0.08267 0.76802 -0.78300
O 	O 	0.50082 0.06386 0.82746 -0.41600
O 	O 	0.56612 0.15119 0.77349 -0.41100
O 	O 	0.49799 0.11043 0.76449 -0.40500
O 	O 	0.60974 0.14425 0.70108 -0.39000
C 	C 	0.59934 0.00693 0.77315 0.32900
C 	C 	0.64143 0.09716 0.59566 0.35200
C 	C 	0.53713 0.02745 0.63400 0.32700
C 	C 	0.53331 0.18277 0.64275 0.32800
Zn	Zn	0.46303 0.87069 0.32454 1.22600
Zn	Zn	0.45898 0.94538 0.25558 1.21000
C 	C 	0.36182 0.88929 0.45542 0.35400
Zn	Zn	0.41311 0.92226 0.37099 1.22500
Zn	Zn	0.42048 0.85113 0.44804 1.20600
H 	H 	0.41790 0.90100 0.24601 0.19200
C 	C 	0.46584 0.96151 0.41688 0.32500
O 	O 	0.44288 0.81062 0.42728 -0.43300
O 	O 	0.48742 0.83251 0.37724 -0.36000
O 	O 	0.43368 0.90723 0.28289 -0.78500
O 	O 	0.49976 0.92745 0.21795 -0.40000
O 	O 	0.43748 0.83873 0.27336 -0.43000
O 	O 	0.50485 0.88234 0.28578 -0.40600
O 	O 	0.39425 0.84548 0.34713 -0.39600
O 	O 	0.43300 0.98357 0.27666 -0.41700
H 	H 	0.46164 0.89474 0.44733 0.19600
O 	O 	0.38761 0.95875 0.31453 -0.37100
O 	O 	0.44505 0.88762 0.41315 -0.79100
O 	O 	0.38360 0.87366 0.49176 -0.43200
O 	O 	0.43525 0.95569 0.42636 -0.41700
O 	O 	0.36960 0.90776 0.40083 -0.41000
O 	O 	0.48103 0.94994 0.36068 -0.38100
C 	C 	0.47272 0.80799 0.40642 0.32700
C 	C 	0.50872 0.89753 0.22469 0.32700
C 	C 	0.40718 0.83386 0.28801 0.32900
C 	C 	0.40184 0.98286 0.28275 0.33100
Zn	Zn	0.67687 0.83216 0.93304 1.22400
Zn	Zn	0.60622 0.82495 0.85491 1.20500
C 	C 	0.65424 0.73418 0.07437 0.32500
Zn	Zn	0.62587 0.78120 0.97730 1.22800
Zn	Zn	0.70113 0.78507 0.04353 1.20700
H 	H 	0.64982 0.78391 0.85438 0.21400
C 	C 	0.58688 0.83560 0.01442 0.33200
O 	O 	0.73886 0.81180 0.02384 -0.43500
O 	O 	0.71325 0.85741 0.99023 -0.37700
O 	O 	0.64272 0.80008 0.88953 -0.79200
O 	O 	0.62821 0.86288 0.81398 -0.43400
O 	O 	0.71040 0.81116 0.87491 -0.41700
O 	O 	0.66166 0.87558 0.90701 -0.41700
O 	O 	0.70552 0.76435 0.93710 -0.38300
O 	O 	0.56603 0.80154 0.87279 -0.44100
H 	H 	0.65634 0.82523 0.05808 0.19300
O 	O 	0.58794 0.75696 0.92271 -0.34500
O 	O 	0.66253 0.81004 0.01990 -0.78300
O 	O 	0.68424 0.74325 0.07704 -0.41600
O 	O 	0.59385 0.80575 0.02965 -0.41400
O 	O 	0.63718 0.73885 0.01596 -0.37600
O 	O 	0.59910 0.84970 0.95727 -0.41300
C 	C 	0.73781 0.84304 0.01973 0.33500
C 	C 	0.64438 0.88404 0.85105 0.35400
C 	C 	0.71569 0.78028 0.88063 0.32100
C 	C 	0.56364 0.77145 0.89205 0.33200
Zn	Zn	0.87469 0.70492 0.57214 1.23000
Zn	Zn	0.79972 0.70046 0.50707 1.21100
C 	C 	0.85901 0.60398 0.70265 0.35100
Zn	Zn	0.82343 0.65555 0.62371 1.22600
Zn	Zn	0.89666 0.66285 0.69407 1.20600
H 	H 	0.84371 0.65880 0.49750 0.20300
C 	C 	0.78638 0.70998 0.66925 0.32300
O 	O 	0.93671 0.68566 0.66989 -0.42300
O 	O 	0.91312 0.73000 0.62235 -0.36500
O 	O 	0.83788 0.67500 0.53382 -0.78000
O 	O 	0.81760 0.74040 0.46527 -0.40300
O 	O 	0.90611 0.67970 0.51837 -0.40500
O 	O 	0.86222 0.74648 0.53375 -0.40700
O 	O 	0.90100 0.63661 0.59310 -0.38200
O 	O 	0.76140 0.67546 0.53214 -0.42900
H 	H 	0.85296 0.70380 0.69687 0.20500
O 	O 	0.78596 0.63004 0.57035 -0.36700
O 	O 	0.85930 0.68707 0.66229 -0.79100
O 	O 	0.87502 0.62567 0.73848 -0.44700
O 	O 	0.79100 0.67916 0.67891 -0.42300
O 	O 	0.83665 0.61205 0.65624 -0.39600
O 	O 	0.79666 0.72424 0.61059 -0.38300
C 	C 	0.93844 0.71539 0.64783 0.33100
C 	C 	0.84722 0.75018 0.47241 0.33500
C 	C 	0.91182 0.64958 0.53336 0.33000
C 	C 	0.76178 0.64433 0.53914 0.33100
Zn	Zn	0.03869 0.11596 0.82420 1.23200
Zn	Zn	0.04357 0.04236 0.75107 1.20900
C 	C 	0.14220 0.09904 0.94591 0.35100
Zn	Zn	0.08962 0.06476 0.86706 1.22500
Zn	Zn	0.08258 0.13650 0.94456 1.20600
H 	H 	0.08428 0.08738 0.74341 0.20600
C 	C 	0.03610 0.02662 0.91284 0.32100
O 	O 	0.05824 0.17635 0.93248 -0.42400
O 	O 	0.01469 0.15420 0.87817 -0.37100
O 	O 	0.06869 0.08045 0.78009 -0.77800
O 	O 	0.00298 0.06059 0.71336 -0.41300
O 	O 	0.06169 0.14805 0.76933 -0.39500
O 	O 	0.99682 0.10333 0.78791 -0.40100
O 	O 	0.10603 0.14549 0.84091 -0.39700
O 	O 	0.06923 0.00386 0.77144 -0.43200
H 	H 	0.04246 0.09236 0.94671 0.20600
O 	O 	0.11470 0.02854 0.80885 -0.36800
O 	O 	0.05842 0.09955 0.91116 -0.79400
O 	O 	0.12105 0.11511 0.98311 -0.45400
O 	O 	0.06700 0.03115 0.92074 -0.42500
O 	O 	0.13346 0.07776 0.89757 -0.39700
O 	O 	0.02110 0.03732 0.85552 -0.38300
C 	C 	0.02976 0.17932 0.90393 0.33700
C 	C 	0.99313 0.08992 0.72476 0.33500
C 	C 	0.09097 0.15699 0.78405 0.32800
C 	C 	0.10037 0.00439 0.77761 0.33200
Zn	Zn	0.91291 0.91953 0.17776 1.22700
Zn	Zn	0.91826 0.84691 0.10796 1.20300
C 	C 	0.00944 0.89611 0.32297 0.33500
Zn	Zn	0.96237 0.86823 0.22685 1.23100
Zn	Zn	0.95999 0.94412 0.28883 1.20800
H 	H 	0.96044 0.88982 0.10158 0.21200
C 	C 	0.90594 0.83426 0.27006 0.33000
O 	O 	0.93427 0.98217 0.26572 -0.44200
O 	O 	0.88832 0.95704 0.23249 -0.36100
O 	O 	0.94411 0.88381 0.13737 -0.78900
O 	O 	0.88152 0.86916 0.06251 -0.43500
O 	O 	0.93513 0.95186 0.11889 -0.40500
O 	O 	0.86931 0.90529 0.15086 -0.40900
O 	O 	0.98144 0.94655 0.18281 -0.38600
O 	O 	0.93988 0.80633 0.13434 -0.43900
H 	H 	0.91853 0.90103 0.30396 0.21300
O 	O 	0.98579 0.82893 0.17602 -0.37100
O 	O 	0.93423 0.90603 0.26603 -0.78500
O 	O 	0.00088 0.92629 0.32614 -0.40400
O 	O 	0.93667 0.83791 0.28163 -0.39600
O 	O 	0.00476 0.87957 0.26391 -0.40400
O 	O 	0.89274 0.84461 0.21010 -0.41100
C 	C 	0.90306 0.98166 0.26085 0.33200
C 	C 	0.86074 0.88715 0.09634 0.35600
C 	C 	0.96604 0.95659 0.12545 0.32300
C 	C 	0.97010 0.80398 0.15202 0.33500
Zn	Zn	0.12679 0.78062 0.56906 1.22800
Zn	Zn	0.20250 0.78292 0.50581 1.21200
C 	C 	0.14607 0.88190 0.70031 0.35300
Zn	Zn	0.17860 0.82983 0.61787 1.22800
Zn	Zn	0.10611 0.82426 0.68912 1.20800
H 	H 	0.15945 0.82493 0.49206 0.21800
C 	C 	0.21564 0.77661 0.66907 0.32300
O 	O 	0.06553 0.80253 0.66458 -0.43100
O 	O 	0.08787 0.75690 0.62064 -0.37800
O 	O 	0.16449 0.80901 0.52950 -0.78200
O 	O 	0.18435 0.74211 0.46862 -0.40200
O 	O 	0.09594 0.80662 0.51541 -0.41300
O 	O 	0.13786 0.73851 0.53153 -0.41900
O 	O 	0.10293 0.85035 0.58754 -0.40900
O 	O 	0.24079 0.80869 0.52824 -0.42500
H 	H 	0.14885 0.78207 0.69331 0.21400
O 	O 	0.21603 0.85463 0.56295 -0.36900
O 	O 	0.14279 0.79874 0.65832 -0.78600
O 	O 	0.12864 0.86080 0.73459 -0.42300
O 	O 	0.21103 0.80757 0.67574 -0.39900
O 	O 	0.16436 0.87357 0.64587 -0.40700
O 	O 	0.20533 0.76129 0.61183 -0.39900
C 	C 	0.06316 0.77231 0.64669 0.33900
C 	C 	0.15410 0.73392 0.47206 0.33300
C 	C 	0.09251 0.83738 0.52736 0.32700
C 	C 	0.24027 0.83995 0.53275 0.33200
Zn	Zn	0.32398 0.65573 0.93628 1.22800
Zn	Zn	0.39370 0.66205 0.85438 1.20600
C 	C 	0.34962 0.75316 0.07752 0.32400
Zn	Zn	0.37630 0.70549 0.97901 1.22600
Zn	Zn	0.30138 0.70332 0.04708 1.20300
H 	H 	0.35101 0.70448 0.85780 0.21600
C 	C 	0.41264 0.64905 0.01320 0.33500
O 	O 	0.26300 0.67698 0.02976 -0.44000
O 	O 	0.28794 0.63103 0.99543 -0.36000
O 	O 	0.35808 0.68769 0.89150 -0.78600
O 	O 	0.36999 0.62535 0.81268 -0.42300
O 	O 	0.29005 0.67672 0.87974 -0.38500
O 	O 	0.33835 0.61222 0.90842 -0.39800
O 	O 	0.29632 0.72372 0.94026 -0.39800
O 	O 	0.43497 0.68358 0.87326 -0.44700
H 	H 	0.34530 0.66224 0.06073 0.20100
O 	O 	0.41435 0.72880 0.92330 -0.35700
O 	O 	0.33929 0.67754 0.02262 -0.78700
O 	O 	0.31932 0.74504 0.07886 -0.42000
O 	O 	0.40810 0.67940 0.02803 -0.43000
O 	O 	0.36704 0.74793 0.01987 -0.38800
O 	O 	0.40009 0.63603 0.95520 -0.40400
C 	C 	0.26339 0.64574 0.02419 0.33200
C 	C 	0.35428 0.60403 0.85028 0.35400
C 	C 	0.28510 0.70763 0.88506 0.32200
C 	C 	0.43830 0.71343 0.89349 0.33100
Zn	Zn	0.17744 0.33103 0.42824 1.22700
Zn	Zn	0.10581 0.32316 0.35354 1.20900
C 	C 	0.15452 0.23434 0.57318 0.33500
Zn	Zn	0.12714 0.28014 0.47414 1.22700
Zn	Zn	0.20099 0.28607 0.54495 1.20400
H 	H 	0.15017 0.28268 0.35061 0.21400
C 	C 	0.08951 0.33471 0.51403 0.32800
O 	O 	0.23897 0.31211 0.52318 -0.44200
O 	O 	0.21342 0.35702 0.48490 -0.36600
O 	O 	0.14315 0.29889 0.38580 -0.79000
O 	O 	0.12720 0.36073 0.30952 -0.42500
O 	O 	0.21121 0.30842 0.37438 -0.40300
O 	O 	0.16301 0.37412 0.39784 -0.41100
O 	O 	0.20588 0.26277 0.44113 -0.37600
O 	O 	0.06588 0.29980 0.37653 -0.41100
H 	H 	0.15602 0.32612 0.55279 0.18600
O 	O 	0.08952 0.25496 0.42128 -0.37300
O 	O 	0.16269 0.31038 0.51619 -0.78800
O 	O 	0.18314 0.24583 0.58622 -0.41000
O 	O 	0.09478 0.30428 0.52687 -0.43400
O 	O 	0.14101 0.23832 0.51020 -0.40400
O 	O 	0.10084 0.34846 0.45556 -0.39700
C 	C 	0.23803 0.34321 0.51546 0.33000
C 	C 	0.14438 0.38209 0.34369 0.35600
C 	C 	0.21608 0.27757 0.38297 0.31800
C 	C 	0.06431 0.26964 0.39540 0.33500
Zn	Zn	0.37374 0.20775 0.07152 1.22900
Zn	Zn	0.29903 0.20175 0.00362 1.20400
C 	C 	0.35750 0.10526 0.20159 0.35400
Zn	Zn	0.32411 0.15621 0.11750 1.22900
Zn	Zn	0.39575 0.16447 0.19141 1.20400
H 	H 	0.34455 0.16211 0.99243 0.19800
C 	C 	0.28484 0.20824 0.16663 0.32000
O 	O 	0.43554 0.18797 0.16814 -0.44300
O 	O 	0.41150 0.23281 0.12423 -0.36300
O 	O 	0.33802 0.17756 0.02978 -0.78300
O 	O 	0.31583 0.24295 0.96531 -0.40900
O 	O 	0.40603 0.18344 0.01816 -0.41600
O 	O 	0.36013 0.24940 0.03519 -0.39600
O 	O 	0.40049 0.13920 0.08938 -0.39700
O 	O 	0.26171 0.17460 0.02535 -0.43800
H 	H 	0.35115 0.20445 0.19555 0.21100
O 	O 	0.28835 0.12989 0.06098 -0.35700
O 	O 	0.35822 0.18847 0.15990 -0.79100
O 	O 	0.37478 0.12661 0.23560 -0.43200
O 	O 	0.29039 0.17743 0.17359 -0.40600
O 	O 	0.33977 0.11312 0.14590 -0.40100
O 	O 	0.29431 0.22376 0.10885 -0.37600
C 	C 	0.43700 0.21804 0.14839 0.33000
C 	C 	0.34530 0.25304 0.97361 0.32700
C 	C 	0.41157 0.15304 0.03084 0.33100
C 	C 	0.26342 0.14345 0.03120 0.32800
Zn	Zn	0.53969 0.61948 0.32172 1.23100
Zn	Zn	0.54240 0.54355 0.25777 1.20300
C 	C 	0.63975 0.59889 0.45734 0.35500
Zn	Zn	0.58855 0.56737 0.37094 1.22600
Zn	Zn	0.58207 0.63865 0.44620 1.20700
H 	H 	0.58404 0.58733 0.24491 0.19100
C 	C 	0.53560 0.52968 0.42061 0.32200
O 	O 	0.56060 0.67948 0.42339 -0.43100
O 	O 	0.51576 0.65826 0.37318 -0.35100
O 	O 	0.56818 0.58182 0.28221 -0.78200
O 	O 	0.50146 0.56149 0.22186 -0.42400
O 	O 	0.56646 0.65063 0.27146 -0.40700
O 	O 	0.49813 0.60944 0.27918 -0.39200
O 	O 	0.60918 0.64314 0.34624 -0.39400
O 	O 	0.56817 0.50529 0.28014 -0.44400
H 	H 	0.53995 0.59605 0.44553 0.21400
O 	O 	0.61377 0.53036 0.31587 -0.36400
O 	O 	0.55678 0.60256 0.41140 -0.79100
O 	O 	0.61827 0.61567 0.49202 -0.42900
O 	O 	0.56644 0.53457 0.42799 -0.40700
O 	O 	0.63198 0.58177 0.40060 -0.40900
O 	O 	0.52045 0.53995 0.36317 -0.38400
C 	C 	0.53073 0.68246 0.40304 0.32700
C 	C 	0.49462 0.59209 0.22089 0.33000
C 	C 	0.59685 0.65450 0.28626 0.32600
C 	C 	0.59932 0.50577 0.28660 0.33000
Zn	Zn	0.41166 0.42164 0.68022 1.22500
Zn	Zn	0.41909 0.35023 0.60240 1.20500
C 	C 	0.50765 0.39714 0.82623 0.33200
Zn	Zn	0.46199 0.36999 0.72586 1.23000
Zn	Zn	0.45756 0.44465 0.79506 1.21100
H 	H 	0.45996 0.39393 0.60319 0.20700
C 	C 	0.40859 0.32985 0.76236 0.33100
O 	O 	0.43177 0.48290 0.77443 -0.43200
O 	O 	0.38632 0.45811 0.73734 -0.36700
O 	O 	0.44353 0.38684 0.63774 -0.79200
O 	O 	0.38123 0.37218 0.56233 -0.45300
O 	O 	0.43421 0.45515 0.62520 -0.42200
O 	O 	0.36812 0.40836 0.64972 -0.39800
O 	O 	0.48005 0.44929 0.69050 -0.38300
O 	O 	0.44277 0.30994 0.61600 -0.42200
H 	H 	0.41688 0.40001 0.80483 0.20400
O 	O 	0.48605 0.33125 0.67297 -0.37300
O 	O 	0.43257 0.40643 0.76790 -0.78000
O 	O 	0.49837 0.42698 0.83223 -0.40500
O 	O 	0.43781 0.33835 0.77913 -0.41000
O 	O 	0.50398 0.38176 0.76517 -0.40400
O 	O 	0.39440 0.34157 0.70467 -0.39700
C 	C 	0.40061 0.48219 0.76900 0.33200
C 	C 	0.35975 0.38772 0.59969 0.34900
C 	C 	0.46508 0.45982 0.63304 0.32300
C 	C 	0.47114 0.30651 0.64479 0.33700
Zn	Zn	0.82433 0.15482 0.42896 1.22700
Zn	Zn	0.89703 0.16196 0.35929 1.20200
C 	C 	0.84644 0.25046 0.57683 0.33600
Zn	Zn	0.87496 0.20511 0.47895 1.23200
Zn	Zn	0.79922 0.20083 0.54212 1.21100
H 	H 	0.85325 0.20323 0.35386 0.20900
C 	C 	0.91072 0.14955 0.52074 0.33000
O 	O 	0.76164 0.17452 0.51880 -0.43300
O 	O 	0.78731 0.12922 0.48333 -0.36200
O 	O 	0.85960 0.18684 0.38925 -0.79000
O 	O 	0.87543 0.12503 0.31388 -0.45300
O 	O 	0.79153 0.17704 0.37137 -0.42200
O 	O 	0.83857 0.11141 0.39955 -0.39200
O 	O 	0.79610 0.22300 0.43693 -0.38400
O 	O 	0.93717 0.18427 0.38527 -0.44600
H 	H 	0.84337 0.16032 0.55561 0.22400
O 	O 	0.91390 0.22954 0.42882 -0.36500
O 	O 	0.83778 0.17590 0.51782 -0.78100
O 	O 	0.81636 0.24183 0.58038 -0.41400
O 	O 	0.90587 0.18002 0.53344 -0.39400
O 	O 	0.86256 0.24702 0.51690 -0.39800
O 	O 	0.90021 0.13619 0.46114 -0.39100
C 	C 	0.76281 0.14331 0.51378 0.33300
C 	C 	0.85889 0.10340 0.34858 0.35000
C 	C 	0.78627 0.20784 0.37908 0.32400
C 	C 	0.93908 0.21437 0.40429 0.33100
Zn	Zn	0.62573 0.28295 0.06972 1.23100
Zn	Zn	0.70162 0.28618 0.00661 1.20500
C 	C 	0.64371 0.38335 0.20362 0.34900
Zn	Zn	0.67750 0.33176 0.12151 1.22700
Zn	Zn	0.60494 0.32540 0.19213 1.20500
H 	H 	0.65842 0.32821 0.99564 0.21400
C 	C 	0.71489 0.27814 0.16922 0.32300
O 	O 	0.56451 0.30385 0.16637 -0.43500
O 	O 	0.58680 0.25865 0.11998 -0.36700
O 	O 	0.66344 0.31184 0.03204 -0.78000
O 	O 	0.68372 0.24565 0.96754 -0.42300
O 	O 	0.59487 0.30958 0.01793 -0.39700
O 	O 	0.63656 0.24141 0.02775 -0.39100
O 	O 	0.60154 0.35260 0.09204 -0.39400
O 	O 	0.73979 0.31172 0.03072 -0.44100
H 	H 	0.64788 0.28337 0.19465 0.21200
O 	O 	0.71467 0.35713 0.06749 -0.35500
O 	O 	0.64170 0.30020 0.16015 -0.78900
O 	O 	0.62733 0.36165 0.23851 -0.44800
O 	O 	0.70997 0.30893 0.17788 -0.41200
O 	O 	0.66401 0.37536 0.15263 -0.38800
O 	O 	0.70467 0.26339 0.11116 -0.38400
C 	C 	0.56216 0.27379 0.14727 0.33800
C 	C 	0.65330 0.23812 0.96849 0.33000
C 	C 	0.59146 0.34019 0.03104 0.33400
C 	C 	0.73922 0.34287 0.03775 0.32900
Zn	Zn	0.08811 0.56541 0.17675 1.22600
Zn	Zn	0.08105 0.63807 0.10501 1.20500
C 	C 	0.99211 0.58930 0.32535 0.33100
Zn	Zn	0.03808 0.61666 0.22550 1.22800
Zn	Zn	0.04265 0.54206 0.29288 1.21200
H 	H 	0.03986 0.59401 0.10129 0.19600
C 	C 	0.09359 0.65247 0.26654 0.32900
O 	O 	0.06807 0.50384 0.27023 -0.41500
O 	O 	0.11346 0.52847 0.23202 -0.36500
O 	O 	0.05634 0.60065 0.13623 -0.78700
O 	O 	0.11839 0.61641 0.06145 -0.44700
O 	O 	0.06510 0.53237 0.12138 -0.41800
O 	O 	0.13160 0.57867 0.14556 -0.39500
O 	O 	0.01977 0.53829 0.18859 -0.38200
O 	O 	0.05816 0.67810 0.12976 -0.42400
H 	H 	0.08394 0.58580 0.30190 0.21800
O 	O 	0.01308 0.65442 0.17267 -0.37600
O 	O 	0.06777 0.58006 0.26557 -0.78500
O 	O 	0.00230 0.55982 0.33308 -0.40900
O 	O 	0.06289 0.64860 0.27804 -0.41500
O 	O 	0.99615 0.60454 0.26433 -0.39800
O 	O 	0.10683 0.64219 0.20660 -0.39600
C 	C 	0.09920 0.50437 0.26365 0.33100
C 	C 	0.13989 0.60045 0.09793 0.35100
C 	C 	0.03451 0.52683 0.13170 0.32700
C 	C 	0.02776 0.67956 0.14641 0.33100
Zn	Zn	0.96176 0.36656 0.82268 1.22700
Zn	Zn	0.96065 0.44173 0.75520 1.20500
C 	C 	0.86017 0.38786 0.94918 0.35000
Zn	Zn	0.91265 0.41940 0.86648 1.22700
Zn	Zn	0.91790 0.34858 0.94537 1.20400
H 	H 	0.91891 0.39851 0.74154 0.21000
C 	C 	0.96443 0.45868 0.91650 0.33000
O 	O 	0.93893 0.30706 0.92734 -0.42300
O 	O 	0.98402 0.32764 0.87727 -0.38400
O 	O 	0.93421 0.40412 0.77986 -0.78900
O 	O 	0.00223 0.42322 0.72438 -0.41600
O 	O 	0.93545 0.33550 0.77102 -0.42600
O 	O 	0.00427 0.37559 0.78384 -0.39900
O 	O 	0.89203 0.34309 0.84375 -0.38600
O 	O 	0.93470 0.48044 0.77252 -0.42300
H 	H 	0.96023 0.39127 0.94499 0.19300
O 	O 	0.88860 0.45607 0.80785 -0.35200
O 	O 	0.94371 0.38432 0.91048 -0.79000
O 	O 	0.88154 0.37246 0.98711 -0.45100
O 	O 	0.93383 0.45261 0.92397 -0.40800
O 	O 	0.86859 0.40599 0.89450 -0.38400
O 	O 	0.98056 0.44663 0.86230 -0.38700
C 	C 	0.96802 0.30312 0.90288 0.32800
C 	C 	0.00972 0.39275 0.72595 0.32600
C 	C 	0.90496 0.33153 0.78460 0.33300
C 	C 	0.90351 0.48040 0.77861 0.32900
C 	C 	0.98124 0.47691 0.97188 -0.08800
C 	C 	0.99797 0.50491 0.95399 0.18200
C 	C 	0.01553 0.52093 0.00652 -0.02700
C 	C 	0.01626 0.50949 0.07713 -0.08700
C 	C 	0.99925 0.48167 0.09520 0.18400
C 	C 	0.98168 0.46565 0.04265 -0.03300
H 	H 	0.02831 0.54252 0.99262 0.06700
H 	H 	0.96895 0.44403 0.05649 0.07300
Cl	Cl	0.99615 0.52082 0.86660 -0.29800
Cl	Cl	0.00097 0.46578 0.18263 -0.29500
C 	C 	0.76666 0.36165 0.01350 -0.08300
C 	C 	0.78764 0.37549 0.06341 0.18600
C 	C 	0.81720 0.38711 0.04051 -0.03200
C 	C 	0.82628 0.38450 0.96823 -0.09500
C 	C 	0.80414 0.37301 0.91755 0.18700
C 	C 	0.77446 0.36182 0.94043 -0.04600
H 	H 	0.83384 0.39654 0.07959 0.09000
H 	H 	0.75806 0.35172 0.90167 0.07300
Cl	Cl	0.77816 0.37639 0.15546 -0.28100
Cl	Cl	0.81403 0.37021 0.82599 -0.26900
C 	C 	0.85932 0.27108 0.63297 -0.09400
C 	C 	0.87734 0.25798 0.68920 0.18600
C 	C 	0.89061 0.27793 0.74110 -0.03800
C 	C 	0.88621 0.31099 0.73733 -0.08200
C 	C 	0.86789 0.32412 0.68138 0.18900
C 	C 	0.85425 0.30407 0.62985 -0.03000
H 	H 	0.90554 0.26788 0.78262 0.10600
H 	H 	0.84035 0.31421 0.58648 0.09600
Cl	Cl	0.88436 0.21660 0.69387 -0.30100
Cl	Cl	0.86339 0.36568 0.67282 -0.30000
C 	C 	0.76870 0.22531 0.32349 -0.09300
C 	C 	0.78087 0.25388 0.29462 0.18600
C 	C 	0.76278 0.27128 0.24533 -0.04300
C 	C 	0.73275 0.26027 0.22370 -0.08800
C 	C 	0.72061 0.23166 0.25241 0.18200
C 	C 	0.73873 0.21424 0.30165 -0.04000
H 	H 	0.77234 0.29309 0.22275 0.10000
H 	H 	0.72915 0.19245 0.32430 0.08900
Cl	Cl	0.81932 0.26746 0.31721 -0.31400
Cl	Cl	0.68212 0.21815 0.23003 -0.30900
C 	C 	0.53002 0.38454 0.87969 -0.08400
C 	C 	0.52148 0.38330 0.95273 0.17700
C 	C 	0.54299 0.37122 0.00312 -0.02200
C 	C 	0.57274 0.35967 0.98117 -0.09100
C 	C 	0.58177 0.36217 0.90857 0.20200
C 	C 	0.56035 0.37440 0.85822 -0.03600
H 	H 	0.53590 0.36926 0.05887 0.08200
H 	H 	0.56735 0.37613 0.80238 0.10300
Cl	Cl	0.48315 0.39487 0.98120 -0.32200
Cl	Cl	0.62007 0.35072 0.88016 -0.30600
C 	C 	0.61777 0.47773 0.26452 -0.09100
C 	C 	0.62980 0.45641 0.31611 0.18700
C 	C 	0.64074 0.42633 0.29490 -0.03800
C 	C 	0.63943 0.41715 0.22253 -0.09200
C 	C 	0.62942 0.43936 0.17042 0.18500
C 	C 	0.61886 0.46955 0.19167 -0.04200
H 	H 	0.64891 0.40954 0.33510 0.09000
H 	H 	0.60992 0.48607 0.15173 0.07000
Cl	Cl	0.62933 0.46626 0.40799 -0.28000
Cl	Cl	0.62753 0.42893 0.07890 -0.28600
C 	C 	0.48292 0.47723 0.57765 -0.09300
C 	C 	0.51147 0.46479 0.54924 0.18600
C 	C 	0.52892 0.48254 0.49936 -0.04400
C 	C 	0.51798 0.51244 0.47658 -0.08600
C 	C 	0.48948 0.52492 0.50514 0.18100
C 	C 	0.47203 0.50717 0.55501 -0.04000
H 	H 	0.55066 0.47273 0.47703 0.10200
H 	H 	0.45029 0.51698 0.57734 0.08900
Cl	Cl	0.52490 0.42639 0.57290 -0.31500
Cl	Cl	0.47608 0.56334 0.48158 -0.30800
C 	C 	0.46810 0.23435 0.14812 -0.08800
C 	C 	0.48269 0.24330 0.08299 0.18800
C 	C 	0.51389 0.25513 0.08306 -0.03700
C 	C 	0.53069 0.25843 0.14761 -0.08500
C 	C 	0.51608 0.24974 0.21270 0.18400
C 	C 	0.48499 0.23760 0.21265 -0.04000
H 	H 	0.52492 0.26216 0.03290 0.10000
H 	H 	0.47408 0.23039 0.26279 0.07400
Cl	Cl	0.46248 0.23925 0.00077 -0.28500
Cl	Cl	0.53667 0.25339 0.29461 -0.32200
C 	C 	0.36034 0.27212 0.91700 -0.09400
C 	C 	0.34517 0.29915 0.88775 0.19400
C 	C 	0.36045 0.31693 0.83429 -0.04700
C 	C 	0.39111 0.30852 0.81112 -0.08200
C 	C 	0.40615 0.28140 0.84060 0.19400
C 	C 	0.39048 0.26318 0.89223 -0.04200
H 	H 	0.34911 0.33813 0.81327 0.10500
H 	H 	0.40187 0.24201 0.91353 0.08600
Cl	Cl	0.30810 0.31231 0.92072 -0.26800
Cl	Cl	0.44492 0.27014 0.81453 -0.26200
C 	C 	0.03306 0.25377 0.39712 -0.08500
C 	C 	0.01560 0.24920 0.33345 0.19000
C 	C 	0.98442 0.23741 0.33657 -0.04500
C 	C 	0.97028 0.23034 0.40283 -0.08600
C 	C 	0.98773 0.23493 0.46659 0.18200
C 	C 	0.01904 0.24643 0.46343 -0.03000
H 	H 	0.97131 0.23338 0.28730 0.07400
H 	H 	0.03224 0.25027 0.51266 0.09100
Cl	Cl	0.03280 0.25736 0.24923 -0.31500
Cl	Cl	0.97079 0.22613 0.55077 -0.27400
C 	C 	0.26581 0.36227 0.53632 -0.09000
C 	C 	0.28806 0.37212 0.48448 0.18700
C 	C 	0.31789 0.38352 0.50603 -0.03800
C 	C 	0.32595 0.38470 0.57913 -0.09400
C 	C 	0.30252 0.37767 0.63101 0.18700
C 	C 	0.27265 0.36642 0.60931 -0.04300
H 	H 	0.33541 0.38989 0.46580 0.08800
H 	H 	0.25525 0.35951 0.64938 0.07300
Cl	Cl	0.27964 0.36838 0.39226 -0.28100
Cl	Cl	0.31063 0.38125 0.72335 -0.29200
C 	C 	0.23352 0.25962 0.32779 -0.08300
C 	C 	0.22123 0.23091 0.29979 0.18500
C 	C 	0.23861 0.21391 0.24846 -0.04000
C 	C 	0.26796 0.22548 0.22379 -0.08500
C 	C 	0.28032 0.25410 0.25210 0.18600
C 	C 	0.26298 0.27106 0.30352 -0.04100
H 	H 	0.22891 0.19204 0.22646 0.10500
H 	H 	0.27268 0.29294 0.32546 0.10500
Cl	Cl	0.18339 0.21676 0.32563 -0.29900
Cl	Cl	0.31809 0.26833 0.22603 -0.30500
C 	C 	0.07115 0.35345 0.56592 -0.09400
C 	C 	0.04159 0.36675 0.54661 0.18800
C 	C 	0.02210 0.38027 0.59923 -0.04200
C 	C 	0.03169 0.38044 0.67125 -0.09200
C 	C 	0.06196 0.36852 0.69007 0.18900
C 	C 	0.08139 0.35489 0.63744 -0.03900
H 	H 	0.99905 0.38990 0.58440 0.06800
H 	H 	0.10432 0.34500 0.65231 0.06900
Cl	Cl	0.02787 0.36510 0.45734 -0.30000
Cl	Cl	0.07633 0.37151 0.77863 -0.27700
C 	C 	0.14023 0.41595 0.32566 -0.09100
C 	C 	0.14299 0.42648 0.25414 0.19000
C 	C 	0.13173 0.45672 0.23494 -0.03500
C 	C 	0.11777 0.47655 0.28663 -0.08300
C 	C 	0.11777 0.46718 0.35914 0.18700
C 	C 	0.12908 0.43701 0.37837 -0.03400
H 	H 	0.13255 0.46419 0.17930 0.09300
H 	H 	0.12762 0.42932 0.43380 0.09100
Cl	Cl	0.16046 0.40202 0.18817 -0.27500
Cl	Cl	0.10292 0.49277 0.42620 -0.31600
C 	C 	0.23487 0.62757 0.04444 -0.07800
C 	C 	0.21465 0.61487 0.99143 0.17400
C 	C 	0.18430 0.60383 0.01026 -0.02200
C 	C 	0.17383 0.60552 0.08167 -0.09900
C 	C 	0.19489 0.61629 0.13533 0.19000
C 	C 	0.22527 0.62716 0.11647 -0.04500
H 	H 	0.16838 0.59513 0.96889 0.08300
H 	H 	0.24091 0.63665 0.15753 0.07500
Cl	Cl	0.22622 0.61449 0.90058 -0.27200
Cl	Cl	0.18280 0.61848 0.22575 -0.29100
C 	C 	0.43466 0.63066 0.05776 -0.09600
C 	C 	0.42350 0.60574 0.10158 0.18500
C 	C 	0.44350 0.59267 0.15397 -0.03300
C 	C 	0.47455 0.60438 0.16290 -0.09200
C 	C 	0.48618 0.62811 0.11653 0.17900
C 	C 	0.46623 0.64113 0.06433 -0.03400
H 	H 	0.43466 0.57397 0.18881 0.09600
H 	H 	0.47496 0.66015 0.03023 0.08500
Cl	Cl	0.38413 0.59164 0.09351 -0.30700
Cl	Cl	0.52581 0.64163 0.12302 -0.32200
C 	C 	0.38196 0.50983 0.79331 -0.08900
C 	C 	0.38338 0.51970 0.86544 0.18800
C 	C 	0.37162 0.54966 0.88509 -0.04200
C 	C 	0.35857 0.57003 0.83317 -0.08600
C 	C 	0.35440 0.55890 0.76245 0.18500
C 	C 	0.36614 0.52888 0.74282 -0.03400
H 	H 	0.37419 0.55777 0.93998 0.10600
H 	H 	0.36419 0.52099 0.68762 0.09000
Cl	Cl	0.40045 0.49499 0.93150 -0.31600
Cl	Cl	0.33457 0.58233 0.69801 -0.26500
C 	C 	0.11269 0.67059 0.31840 -0.08400
C 	C 	0.11149 0.66330 0.39216 0.19300
C 	C 	0.12608 0.68355 0.44176 -0.03700
C 	C 	0.14161 0.71132 0.41872 -0.08800
C 	C 	0.14367 0.71808 0.34479 0.18300
C 	C 	0.12967 0.69744 0.29506 -0.03200
H 	H 	0.12500 0.67787 0.49844 0.09900
H 	H 	0.13067 0.70312 0.23837 0.08700
Cl	Cl	0.09207 0.62874 0.42333 -0.32000
Cl	Cl	0.16167 0.75348 0.31393 -0.30100
C 	C 	0.23320 0.75904 0.72475 -0.08600
C 	C 	0.22505 0.76201 0.79781 0.18800
C 	C 	0.24202 0.74486 0.84956 -0.03700
C 	C 	0.26691 0.72445 0.82926 -0.08300
C 	C 	0.27488 0.72128 0.75615 0.18800
C 	C 	0.25795 0.73848 0.70443 -0.03800
H 	H 	0.23567 0.74721 0.90568 0.08700
H 	H 	0.26433 0.73615 0.64832 0.08700
Cl	Cl	0.19280 0.78600 0.82525 -0.31100
Cl	Cl	0.30682 0.69690 0.72856 -0.31100
C 	C 	0.01150 0.71072 0.14607 -0.08100
C 	C 	0.01300 0.73079 0.08544 0.18300
C 	C 	0.00018 0.76158 0.08862 -0.03500
C 	C 	0.98547 0.77250 0.15147 -0.09200
C 	C 	0.98336 0.75225 0.21156 0.18800
C 	C 	0.99637 0.72154 0.20864 -0.04100
H 	H 	0.00122 0.77685 0.04176 0.08100
H 	H 	0.99521 0.70629 0.25552 0.09500
Cl	Cl	0.02949 0.71716 0.00409 -0.30100
Cl	Cl	0.96444 0.76500 0.29089 -0.27600
C 	C 	0.88477 0.00956 0.28438 -0.09100
C 	C 	0.87206 0.03098 0.23387 0.18700
C 	C 	0.86094 0.06082 0.25634 -0.03900
C 	C 	0.86278 0.06965 0.32887 -0.09400
C 	C 	0.87338 0.04727 0.37996 0.18400
C 	C 	0.88415 0.01734 0.35748 -0.04100
H 	H 	0.85231 0.07773 0.21691 0.08700
H 	H 	0.89355 0.00069 0.39662 0.07400
Cl	Cl	0.87187 0.02160 0.14175 -0.27900
Cl	Cl	0.87566 0.05719 0.47166 -0.27200
C 	C 	0.03237 0.88410 0.37611 -0.08800
C 	C 	0.02552 0.88570 0.45004 0.18600
C 	C 	0.04670 0.87245 0.49967 -0.03700
C 	C 	0.07424 0.85670 0.47619 -0.09100
C 	C 	0.08163 0.85609 0.40245 0.18800
C 	C 	0.06078 0.86986 0.35293 -0.03500
H 	H 	0.04088 0.87293 0.55632 0.08300
H 	H 	0.06651 0.86918 0.29626 0.10200
Cl	Cl	0.98939 0.90212 0.48098 -0.31400
Cl	Cl	0.11705 0.83833 0.37127 -0.30400
C 	C 	0.01405 0.21101 0.90368 -0.07600
C 	C 	0.03201 0.23946 0.89763 0.19300
C 	C 	0.01670 0.26904 0.89965 -0.04000
C 	C 	0.98342 0.27108 0.90579 -0.08500
C 	C 	0.96539 0.24248 0.91155 0.18700
C 	C 	0.98086 0.21290 0.91048 -0.04300
H 	H 	0.03083 0.29058 0.89557 0.10100
H 	H 	0.96692 0.19126 0.91557 0.09800
Cl	Cl	0.07362 0.23879 0.88407 -0.28300
Cl	Cl	0.92355 0.24267 0.92013 -0.29800
C 	C 	0.93154 0.13156 0.56880 -0.07700
C 	C 	0.91872 0.11351 0.62553 0.19200
C 	C 	0.93902 0.10010 0.67682 -0.02700
C 	C 	0.97200 0.10483 0.67222 -0.09100
C 	C 	0.98478 0.12274 0.61534 0.18500
C 	C 	0.96455 0.13579 0.56366 -0.03200
H 	H 	0.92915 0.08610 0.72036 0.09900
H 	H 	0.97444 0.14997 0.52041 0.09500
Cl	Cl	0.87730 0.10806 0.63375 -0.27900
Cl	Cl	0.02611 0.12959 0.60915 -0.31000
C 	C 	0.11890 0.97644 0.75507 -0.08700
C 	C 	0.11873 0.96667 0.68283 0.18600
C 	C 	0.13034 0.93653 0.66421 -0.03900
C 	C 	0.14192 0.91588 0.71729 -0.09200
C 	C 	0.14476 0.92681 0.78848 0.18600
C 	C 	0.13325 0.95703 0.80705 -0.03600
H 	H 	0.12875 0.92851 0.60904 0.09100
H 	H 	0.13419 0.96481 0.86247 0.09000
Cl	Cl	0.10332 0.99170 0.61534 -0.32000
Cl	Cl	0.16254 0.90281 0.85489 -0.27100
C 	C 	0.01827 0.00906 0.96790 -0.08800
C 	C 	0.98992 0.02160 0.99705 0.17700
C 	C 	0.97255 0.00381 0.04698 -0.03600
C 	C 	0.98341 0.97378 0.06907 -0.09200
C 	C 	0.01167 0.96118 0.03967 0.19100
C 	C 	0.02902 0.97895 0.98972 -0.04700
H 	H 	0.95098 0.01370 0.06996 0.10000
H 	H 	0.05060 0.96907 0.96677 0.09000
Cl	Cl	0.97666 0.06017 0.97429 -0.31600
Cl	Cl	0.02488 0.92259 0.06241 -0.31200
C 	C 	0.10777 0.17802 0.73318 -0.07300
C 	C 	0.09125 0.20249 0.69643 0.19100
C 	C 	0.10682 0.22031 0.64389 -0.03700
C 	C 	0.13871 0.21422 0.62700 -0.09800
C 	C 	0.15521 0.18966 0.66295 0.19600
C 	C 	0.13981 0.17205 0.71647 -0.05100
H 	H 	0.09410 0.23922 0.61645 0.07200
H 	H 	0.15241 0.15290 0.74308 0.10700
Cl	Cl	0.05113 0.21159 0.71592 -0.25900
Cl	Cl	0.19428 0.17901 0.63798 -0.27200
C 	C 	0.17601 0.10154 0.96642 -0.10000
C 	C 	0.19941 0.10886 0.91474 0.19000
C 	C 	0.22922 0.12016 0.93671 -0.04900
C 	C 	0.23600 0.12400 0.00983 -0.08100
C 	C 	0.21387 0.11363 0.06139 0.18400
C 	C 	0.18411 0.10222 0.03953 -0.03000
H 	H 	0.24656 0.12740 0.89683 0.07600
H 	H 	0.16661 0.09554 0.07957 0.08700
Cl	Cl	0.19125 0.10562 0.82236 -0.29200
Cl	Cl	0.22232 0.11682 0.15369 -0.28000
C 	C 	0.96958 0.73156 0.64712 -0.08000
C 	C 	0.98518 0.73813 0.58180 0.18500
C 	C 	0.01612 0.75066 0.58223 -0.03100
C 	C 	0.03165 0.75692 0.64733 -0.08900
C 	C 	0.01605 0.75043 0.71258 0.18900
C 	C 	0.98521 0.73765 0.71219 -0.04200
H 	H 	0.02795 0.75586 0.53187 0.09000
H 	H 	0.97351 0.73222 0.76256 0.07900
Cl	Cl	0.96659 0.73010 0.49900 -0.27300
Cl	Cl	0.03515 0.75744 0.79523 -0.30400
C 	C 	0.73401 0.62574 0.51573 -0.08700
C 	C 	0.72478 0.62584 0.44311 0.18600
C 	C 	0.69471 0.61446 0.42344 -0.03500
C 	C 	0.67358 0.60310 0.47579 -0.09100
C 	C 	0.68396 0.60028 0.54743 0.18800
C 	C 	0.71410 0.61165 0.56709 -0.03600
H 	H 	0.68714 0.61603 0.36795 0.09200
H 	H 	0.72144 0.61077 0.62280 0.09100
Cl	Cl	0.75044 0.64091 0.37644 -0.31800
Cl	Cl	0.65947 0.58255 0.61297 -0.27800
C 	C 	0.85995 0.77291 0.41978 -0.08500
C 	C 	0.85969 0.76562 0.34598 0.18700
C 	C 	0.87274 0.78708 0.29678 -0.03000
C 	C 	0.88708 0.81532 0.32060 -0.08400
C 	C 	0.88682 0.82289 0.39422 0.19300
C 	C 	0.87315 0.80178 0.44331 -0.03200
H 	H 	0.87321 0.78102 0.24026 0.08500
H 	H 	0.87296 0.80775 0.49988 0.10300
Cl	Cl	0.84530 0.72864 0.31486 -0.31200
Cl	Cl	0.90337 0.85885 0.42574 -0.30700
C 	C 	0.93058 0.63042 0.48300 -0.07800
C 	C 	0.96101 0.61926 0.50227 0.19500
C 	C 	0.98062 0.60527 0.45050 -0.04500
C 	C 	0.97022 0.60240 0.37934 -0.08700
C 	C 	0.93919 0.61224 0.36073 0.19200
C 	C 	0.91966 0.62643 0.41248 -0.03300
H 	H 	0.00431 0.59733 0.46524 0.08700
H 	H 	0.89610 0.63471 0.39766 0.08400
Cl	Cl	0.97555 0.62410 0.59027 -0.29200
Cl	Cl	0.92400 0.60588 0.27379 -0.26400
C 	C 	0.88562 0.50904 0.75814 -0.08100
C 	C 	0.87359 0.52976 0.81099 0.18800
C 	C 	0.86275 0.56012 0.79163 -0.03500
C 	C 	0.86404 0.57013 0.71984 -0.09400
C 	C 	0.87425 0.54865 0.66647 0.19000
C 	C 	0.88485 0.51823 0.68585 -0.04100
H 	H 	0.85450 0.57639 0.83280 0.08700
H 	H 	0.89388 0.50223 0.64496 0.07700
Cl	Cl	0.87387 0.51878 0.90222 -0.27600
Cl	Cl	0.87610 0.56027 0.57569 -0.28900
C 	C 	0.53185 0.75558 0.88803 -0.07300
C 	C 	0.52805 0.72237 0.89897 0.18000
C 	C 	0.49740 0.70923 0.90232 -0.03600
C 	C 	0.47031 0.72827 0.89093 -0.08900
C 	C 	0.47418 0.76089 0.87512 0.18800
C 	C 	0.50465 0.77437 0.87474 -0.03800
H 	H 	0.49471 0.68393 0.91244 0.08500
H 	H 	0.50711 0.79965 0.86429 0.09700
Cl	Cl	0.56095 0.69625 0.90186 -0.25500
Cl	Cl	0.44139 0.78496 0.85144 -0.27700
C 	C 	0.64263 0.71190 0.12928 -0.08500
C 	C 	0.63113 0.68143 0.11071 0.19100
C 	C 	0.61820 0.66171 0.16372 -0.03200
C 	C 	0.61696 0.67191 0.23533 -0.08900
C 	C 	0.63039 0.70145 0.25448 0.19000
C 	C 	0.64318 0.72124 0.20148 -0.04500
H 	H 	0.60832 0.63875 0.14895 0.08200
H 	H 	0.65275 0.74433 0.21621 0.07400
Cl	Cl	0.63374 0.66715 0.02198 -0.24000
Cl	Cl	0.62977 0.71478 0.34411 -0.30900
C 	C 	0.76572 0.86166 0.04193 -0.08200
C 	C 	0.77542 0.86175 0.11422 0.18200
C 	C 	0.80577 0.87283 0.13262 -0.03500
C 	C 	0.82671 0.88358 0.07927 -0.09600
C 	C 	0.81590 0.88625 0.00795 0.19800
C 	C 	0.78547 0.87528 0.98960 -0.04900
H 	H 	0.81368 0.87141 0.18788 0.09000
H 	H 	0.77778 0.87599 0.93411 0.09300
Cl	Cl	0.75008 0.84714 0.18198 -0.32300
Cl	Cl	0.84029 0.90314 0.94113 -0.28500
C 	C 	0.73270 0.76330 0.82322 -0.08900
C 	C 	0.72043 0.73475 0.79438 0.18200
C 	C 	0.73838 0.71735 0.74482 -0.04000
C 	C 	0.76837 0.72830 0.72283 -0.09100
C 	C 	0.78048 0.75706 0.75088 0.18300
C 	C 	0.76250 0.77450 0.80043 -0.04200
H 	H 	0.72877 0.69549 0.72254 0.09000
H 	H 	0.77214 0.79632 0.82282 0.08900
Cl	Cl	0.68208 0.72108 0.81759 -0.30000
Cl	Cl	0.81881 0.77069 0.72747 -0.31500
C 	C 	0.48804 0.77599 0.40685 -0.08200
C 	C 	0.52153 0.77236 0.40704 0.18300
C 	C 	0.53493 0.74183 0.40349 -0.04500
C 	C 	0.51556 0.71447 0.40502 -0.08000
C 	C 	0.48216 0.71809 0.40961 0.18300
C 	C 	0.46867 0.74860 0.40787 -0.04500
H 	H 	0.56061 0.73941 0.40102 0.10600
H 	H 	0.44298 0.75097 0.40876 0.10600
Cl	Cl	0.54718 0.80530 0.41772 -0.28100
Cl	Cl	0.45687 0.68509 0.42346 -0.27400
C 	C 	0.38321 0.01062 0.25959 -0.08700
C 	C 	0.38311 0.01980 0.18695 0.18800
C 	C 	0.37213 0.05006 0.16749 -0.03900
C 	C 	0.36142 0.07141 0.22009 -0.08800
C 	C 	0.35870 0.06109 0.29177 0.18700
C 	C 	0.36963 0.03075 0.31121 -0.03500
H 	H 	0.37352 0.05757 0.11193 0.10600
H 	H 	0.36889 0.02344 0.36696 0.09200
Cl	Cl	0.39751 0.99388 0.12004 -0.31500
Cl	Cl	0.34166 0.08590 0.35763 -0.28200
C 	C 	0.52834 0.88290 0.16851 -0.09000
C 	C 	0.55701 0.89711 0.14534 0.18900
C 	C 	0.57521 0.88237 0.09181 -0.04100
C 	C 	0.56534 0.85328 0.06214 -0.09300
C 	C 	0.53621 0.83965 0.08407 0.19000
C 	C 	0.51809 0.85436 0.13732 -0.04600
H 	H 	0.59760 0.89293 0.07524 0.08400
H 	H 	0.49583 0.84364 0.15432 0.07300
Cl	Cl	0.57139 0.93226 0.18572 -0.26200
Cl	Cl	0.52171 0.80445 0.04423 -0.29200
C 	C 	0.38761 0.81587 0.23690 -0.09400
C 	C 	0.37377 0.78662 0.25689 0.19000
C 	C 	0.36064 0.76673 0.20445 -0.04600
C 	C 	0.36127 0.77569 0.13199 -0.08700
C 	C 	0.37328 0.80586 0.11257 0.18800
C 	C 	0.38657 0.82566 0.16499 -0.03600
H 	H 	0.35074 0.74386 0.21982 0.07100
H 	H 	0.39671 0.84842 0.14959 0.07300
Cl	Cl	0.37423 0.77377 0.34688 -0.30900
Cl	Cl	0.37088 0.81968 0.02345 -0.25600
C 	C 	0.32801 0.88337 0.47137 -0.09300
C 	C 	0.31607 0.88773 0.54134 0.18900
C 	C 	0.28625 0.87521 0.55999 -0.03700
C 	C 	0.26826 0.85830 0.50933 -0.08600
C 	C 	0.27908 0.85620 0.43796 0.18500
C 	C 	0.30881 0.86882 0.41928 -0.03500
H 	H 	0.27767 0.87757 0.61457 0.09500
H 	H 	0.31764 0.86591 0.36501 0.09100
Cl	Cl	0.33826 0.90871 0.60615 -0.27900
Cl	Cl	0.25577 0.83750 0.37159 -0.31100
C 	C 	0.51786 0.21472 0.64049 -0.08300
C 	C 	0.53586 0.24330 0.64429 0.18700
C 	C 	0.52031 0.27287 0.64513 -0.04000
C 	C 	0.48693 0.27469 0.64306 -0.07700
C 	C 	0.46896 0.24604 0.63960 0.19200
C 	C 	0.48453 0.21657 0.63742 -0.04100
H 	H 	0.53434 0.29453 0.64742 0.09900
H 	H 	0.47051 0.19493 0.63419 0.09300
Cl	Cl	0.57780 0.24292 0.64948 -0.29300
Cl	Cl	0.42691 0.24609 0.64173 -0.28700
C 	C 	0.47337 0.10810 0.88026 -0.09500
C 	C 	0.48442 0.13343 0.92299 0.18500
C 	C 	0.46441 0.14700 0.97438 -0.04000
C 	C 	0.43331 0.13562 0.98358 -0.09100
C 	C 	0.42258 0.10951 0.94279 0.18200
C 	C 	0.44266 0.09583 0.89132 -0.03300
H 	H 	0.47297 0.16663 0.00692 0.10300
H 	H 	0.43422 0.07604 0.85915 0.09400
Cl	Cl	0.52356 0.14797 0.91380 -0.31900
Cl	Cl	0.38376 0.09434 0.95405 -0.31300
C 	C 	0.61750 0.97887 0.79689 -0.08100
C 	C 	0.61543 0.96837 0.86851 0.18400
C 	C 	0.62675 0.93811 0.88722 -0.03500
C 	C 	0.63999 0.91809 0.83490 -0.09600
C 	C 	0.64463 0.92973 0.76475 0.19000
C 	C 	0.63338 0.96005 0.74607 -0.03700
H 	H 	0.62376 0.92956 0.94169 0.08700
H 	H 	0.63575 0.96836 0.69127 0.09500
Cl	Cl	0.59822 0.99269 0.93508 -0.31300
Cl	Cl	0.66439 0.90653 0.69978 -0.28300
C 	C 	0.51967 0.00993 0.57831 -0.09100
C 	C 	0.50159 0.98275 0.59597 0.18900
C 	C 	0.48361 0.96741 0.54307 -0.04100
C 	C 	0.48377 0.97872 0.47232 -0.08600
C 	C 	0.50193 0.00586 0.45462 0.18600
C 	C 	0.51993 0.02118 0.50752 -0.03900
H 	H 	0.46993 0.94634 0.55674 0.07500
H 	H 	0.53359 0.04225 0.49388 0.07400
Cl	Cl	0.50229 0.96687 0.68349 -0.30200
Cl	Cl	0.50118 0.02180 0.36716 -0.29700
C 	C 	0.61418 0.17826 0.80523 -0.08000
C 	C 	0.64157 0.16852 0.84293 0.18300
C 	C 	0.65475 0.18855 0.89529 -0.03100
C 	C 	0.64054 0.21807 0.91073 -0.09200
C 	C 	0.61385 0.22812 0.87123 0.18600
C 	C 	0.60065 0.20812 0.81952 -0.03000
H 	H 	0.67547 0.18079 0.92526 0.09400
H 	H 	0.57902 0.21528 0.79224 0.10800
Cl	Cl	0.65831 0.13054 0.82873 -0.30000
Cl	Cl	0.59684 0.26593 0.88527 -0.30200
C 	C 	0.67541 0.10076 0.57794 -0.08800
C 	C 	0.68598 0.09758 0.50652 0.18600
C 	C 	0.71588 0.10946 0.48665 -0.03500
C 	C 	0.73539 0.12434 0.53763 -0.08800
C 	C 	0.72618 0.12454 0.61024 0.18900
C 	C 	0.69635 0.11260 0.63012 -0.04100
H 	H 	0.72332 0.10836 0.43102 0.09000
H 	H 	0.68875 0.11421 0.68553 0.11000
Cl	Cl	0.66199 0.07882 0.44150 -0.28000
Cl	Cl	0.75151 0.14041 0.67658 -0.31000
