data_crystal

_cell_length_a 25.85373
_cell_length_b 21.28538
_cell_length_c 69.95396
_cell_angle_alpha 89.64671
_cell_angle_beta  89.65875
_cell_angle_gamma 119.46839

_symmetry_space_group_name_	'P 1'
_symmetry_space_group_name_H-M	'P 1'

loop_
_symmetry_equiv_pos_as_xyz
  x,y,z

loop_
_atom_site_label
_atom_site_type_symbol
_atom_site_fract_x
_atom_site_fract_y
_atom_site_fract_z
_atom_site_charge
C 	C 	0.38152 0.57036 0.02069 0.29900
C 	C 	0.20052 0.64209 0.05238 0.33600
C 	C 	0.22383 0.48389 0.01657 0.32900
C 	C 	0.36689 0.74374 0.06033 0.30800
Ni	Ni	0.29103 0.59501 0.04478 1.11600
Ni	Ni	0.29507 0.73498 0.02513 1.12200
O 	O 	0.34196 0.54832 0.03506 -0.36800
O 	O 	0.25844 0.72676 0.99917 -0.38000
O 	O 	0.23748 0.62453 0.06030 -0.37500
O 	O 	0.21145 0.67193 0.03534 -0.38400
O 	O 	0.21775 0.52275 0.02973 -0.38100
O 	O 	0.26751 0.51488 0.00397 -0.37500
O 	O 	0.37442 0.80292 0.01346 -0.37600
O 	O 	0.36009 0.67782 0.05935 -0.36600
O 	O 	0.32795 0.76005 0.05245 -0.37000
O 	O 	0.31356 0.65919 0.02403 -0.71800
H 	H 	0.35670 0.68714 0.02611 0.16200
C 	C 	0.86969 0.02876 0.25129 0.30700
C 	C 	0.02343 0.08934 0.18180 0.32700
C 	C 	0.83927 0.96227 0.20196 0.33000
C 	C 	0.06738 0.16944 0.23338 0.30700
C 	C 	0.96056 0.87954 0.20450 0.31800
C 	C 	0.01103 0.96127 0.25620 0.31800
Ni	Ni	0.94909 0.09198 0.21473 1.11100
Ni	Ni	0.03949 0.02674 0.21772 1.12300
Ni	Ni	0.90489 0.93110 0.23236 1.12200
O 	O 	0.88113 0.06789 0.23521 -0.37000
O 	O 	0.88837 0.98145 0.25396 -0.38300
O 	O 	0.01043 0.92126 0.21335 -0.37600
O 	O 	0.01124 0.13131 0.19238 -0.36700
O 	O 	0.02734 0.03538 0.18942 -0.38300
O 	O 	0.95959 0.91060 0.24911 -0.38300
O 	O 	0.88912 0.01732 0.19600 -0.38700
O 	O 	0.83551 0.93281 0.21889 -0.37800
O 	O 	0.05344 0.01042 0.24500 -0.38500
O 	O 	0.01673 0.17000 0.23118 -0.36300
O 	O 	0.08420 0.13629 0.22085 -0.37300
O 	O 	0.91048 0.87598 0.20996 -0.38500
O 	O 	0.96737 0.02386 0.22512 -0.71900
H 	H 	0.97867 0.04421 0.23798 0.14900
C 	C 	0.14424 0.27430 0.03375 -0.00700
C 	C 	0.17821 0.24498 0.04110 -0.02800
C 	C 	0.15759 0.19893 0.05708 -0.04100
C 	C 	0.10258 0.18149 0.06549 0.01000
C 	C 	0.06422 0.19937 0.05574 -0.04000
C 	C 	0.08489 0.24508 0.03972 -0.02700
C 	C 	0.09150 0.16072 0.08593 0.01300
C 	C 	0.13048 0.20731 0.09977 -0.04300
C 	C 	0.11654 0.19300 0.11920 -0.02600
C 	C 	0.06356 0.13214 0.12500 -0.01100
C 	C 	0.02508 0.08468 0.11127 -0.01600
C 	C 	0.03897 0.09890 0.09179 -0.04700
C 	C 	0.04921 0.11776 0.14506 0.05500
C 	C 	0.03717 0.10568 0.16185 -0.10300
C 	C 	0.17446 0.34697 0.02633 0.05400
C 	C 	0.19726 0.40796 0.02025 -0.11000
H 	H 	0.22325 0.26450 0.03596 0.04500
H 	H 	0.18653 0.18245 0.06395 0.04500
H 	H 	0.02060 0.18369 0.06161 0.04500
H 	H 	0.05713 0.26465 0.03348 0.04600
H 	H 	0.17077 0.25566 0.09543 0.04400
H 	H 	0.14669 0.22965 0.12974 0.04200
H 	H 	0.98424 0.03714 0.11567 0.03300
H 	H 	0.00851 0.06267 0.08126 0.04600
C 	C 	0.69343 0.92811 0.17196 -0.00900
C 	C 	0.64768 0.85947 0.16707 -0.02800
C 	C 	0.60313 0.85255 0.15461 -0.04200
C 	C 	0.60419 0.91434 0.14695 0.01000
C 	C 	0.64875 0.98297 0.15245 -0.04100
C 	C 	0.69320 0.98981 0.16493 -0.02600
C 	C 	0.56190 0.90700 0.13193 0.01000
C 	C 	0.50070 0.87080 0.13590 -0.04100
C 	C 	0.46013 0.85042 0.12095 -0.02900
C 	C 	0.48053 0.86573 0.10196 -0.00300
C 	C 	0.54152 0.90793 0.09814 -0.02900
C 	C 	0.58216 0.92843 0.11308 -0.04000
C 	C 	0.44103 0.82548 0.08679 0.05000
C 	C 	0.40700 0.79105 0.07436 -0.08900
C 	C 	0.74318 0.93564 0.18284 0.05400
C 	C 	0.78601 0.94535 0.19185 -0.10700
H 	H 	0.64747 0.81155 0.17250 0.04200
H 	H 	0.56888 0.79929 0.15044 0.04500
H 	H 	0.64975 0.03094 0.14669 0.04100
H 	H 	0.72833 0.04308 0.16873 0.03800
H 	H 	0.48463 0.85534 0.15046 0.04400
H 	H 	0.41297 0.81864 0.12405 0.04400
H 	H 	0.55765 0.92073 0.08351 0.04700
H 	H 	0.62937 0.95740 0.10990 0.04500
C 	C 	0.96225 0.74649 0.16321 -0.01400
C 	C 	0.92975 0.73520 0.14640 -0.03000
C 	C 	0.94002 0.70190 0.13079 -0.03800
C 	C 	0.98320 0.68023 0.13191 -0.00800
C 	C 	0.01245 0.68688 0.14926 -0.03000
C 	C 	0.00192 0.71983 0.16485 -0.02200
C 	C 	0.00420 0.66112 0.11440 0.02100
C 	C 	0.02957 0.71191 0.09946 -0.04400
C 	C 	0.06238 0.70194 0.08505 -0.02600
C 	C 	0.07018 0.64134 0.08550 -0.00600
C 	C 	0.04057 0.58750 0.09944 -0.02900
C 	C 	0.00744 0.59720 0.11383 -0.03500
C 	C 	0.11535 0.64009 0.07370 0.05600
C 	C 	0.15336 0.63993 0.06371 -0.10300
C 	C 	0.96057 0.79290 0.17775 0.05200
C 	C 	0.95972 0.83165 0.19007 -0.10300
H 	H 	0.89842 0.75490 0.14512 0.04300
H 	H 	0.91649 0.69598 0.11757 0.04100
H 	H 	0.04564 0.67002 0.15033 0.04200
H 	H 	0.02670 0.72768 0.17790 0.04400
H 	H 	0.02688 0.76112 0.09964 0.04700
H 	H 	0.08449 0.74331 0.07415 0.04400
H 	H 	0.04568 0.53994 0.09971 0.04500
H 	H 	0.98699 0.55695 0.12507 0.03500
C 	C 	0.74196 0.01068 0.28895 -0.00700
C 	C 	0.68302 0.97915 0.28274 -0.02700
C 	C 	0.63645 0.95488 0.29608 -0.04200
C 	C 	0.64857 0.96208 0.31572 0.01000
C 	C 	0.70776 0.99787 0.32186 -0.03600
C 	C 	0.75429 0.02215 0.30850 -0.03300
C 	C 	0.59959 0.92698 0.32982 0.01000
C 	C 	0.56399 0.85150 0.33021 -0.04000
C 	C 	0.51967 0.81784 0.34421 -0.03000
C 	C 	0.51067 0.85933 0.35791 -0.00200
C 	C 	0.54560 0.93474 0.35739 -0.03000
C 	C 	0.58994 0.96850 0.34339 -0.03700
C 	C 	0.46669 0.82459 0.37282 0.04900
C 	C 	0.43018 0.79683 0.38544 -0.09000
C 	C 	0.78809 0.01965 0.27572 0.04700
C 	C 	0.82622 0.02685 0.26449 -0.09900
H 	H 	0.67312 0.97044 0.26764 0.04300
H 	H 	0.59094 0.92833 0.29119 0.04300
H 	H 	0.71761 0.00426 0.33698 0.04200
H 	H 	0.79974 0.04676 0.31341 0.04200
H 	H 	0.57128 0.81895 0.31985 0.04400
H 	H 	0.49282 0.75953 0.34452 0.04300
H 	H 	0.53879 0.96717 0.36792 0.04700
H 	H 	0.61706 0.02676 0.34318 0.04200
C 	C 	0.14274 0.21836 0.28604 -0.00700
C 	C 	0.19233 0.28499 0.29019 -0.02900
C 	C 	0.21159 0.30180 0.30905 -0.04200
C 	C 	0.18155 0.25173 0.32388 0.01000
C 	C 	0.13380 0.18357 0.31950 -0.04400
C 	C 	0.11407 0.16732 0.30067 -0.02900
C 	C 	0.19476 0.27435 0.34403 0.01000
C 	C 	0.25364 0.30846 0.35049 -0.04100
C 	C 	0.26835 0.34736 0.36752 -0.03000
C 	C 	0.22425 0.35192 0.37819 -0.00400
C 	C 	0.16457 0.30996 0.37305 -0.02900
C 	C 	0.14983 0.27173 0.35595 -0.04000
C 	C 	0.11853 0.20418 0.26708 0.05300
C 	C 	0.09663 0.18991 0.25145 -0.10600
H 	H 	0.21479 0.32465 0.27893 0.04200
H 	H 	0.24827 0.35477 0.31224 0.04300
H 	H 	0.11076 0.14413 0.33076 0.04400
H 	H 	0.07576 0.11557 0.29753 0.04400
H 	H 	0.28845 0.30867 0.34174 0.04200
H 	H 	0.31453 0.37831 0.37163 0.04300
H 	H 	0.10402 0.24435 0.35134 0.04500
C 	C 	0.06882 0.95405 0.30972 -0.00800
C 	C 	0.04003 0.89599 0.32256 -0.01500
C 	C 	0.06757 0.89532 0.33966 -0.04700
C 	C 	0.12383 0.95327 0.34411 0.01600
C 	C 	0.15084 0.01315 0.33169 -0.04700
C 	C 	0.12408 0.01274 0.31438 -0.03100
C 	C 	0.15760 0.94697 0.36029 0.00900
C 	C 	0.21350 0.95298 0.35698 -0.04000
C 	C 	0.24113 0.93511 0.37144 -0.02800
C 	C 	0.21281 0.91009 0.38921 -0.00600
C 	C 	0.15938 0.90974 0.39305 -0.02700
C 	C 	0.13187 0.92833 0.37864 -0.04000
C 	C 	0.23156 0.87104 0.40159 0.05700
C 	C 	0.04414 0.95153 0.29116 0.05200
C 	C 	0.02658 0.95353 0.27537 -0.09800
H 	H 	0.99730 0.85040 0.31904 0.03300
H 	H 	0.04630 0.84865 0.34908 0.04900
H 	H 	0.19380 0.05860 0.33507 0.04300
H 	H 	0.14723 0.05701 0.30432 0.04200
H 	H 	0.23412 0.96794 0.34294 0.04400
H 	H 	0.28274 0.93621 0.36842 0.04400
H 	H 	0.13748 0.89121 0.40683 0.04800
H 	H 	0.08946 0.92528 0.38151 0.04600
C 	C 	0.10393 0.56951 0.00686 0.08200
N 	N 	0.09726 0.54192 0.02167 -0.10100
N 	N 	0.50478 0.81198 0.03564 -0.10600
C 	C 	0.47270 0.56118 0.01382 0.02600
C 	C 	0.41057 0.52754 0.01629 -0.07800
C 	C 	0.51056 0.63428 0.02007 0.07700
N 	N 	0.47057 0.31772 0.02844 -0.11400
N 	N 	0.54102 0.69283 0.02506 -0.10400
C 	C 	0.38766 0.76611 0.40080 0.30800
O 	O 	0.33034 0.74052 0.39686 -0.38100
H 	H 	0.13003 0.31185 0.38146 0.04600
C 	C 	0.24871 0.83870 0.41151 -0.10600
C 	C 	0.24074 0.41159 0.39087 0.04900
C 	C 	0.11163 0.60320 0.98829 0.02500
O 	O 	0.28062 0.58415 0.40283 -0.38000
O 	O 	0.40770 0.78015 0.41858 -0.37700
C 	C 	0.26645 0.79420 0.42183 0.33400
Ni	Ni	0.26001 0.65952 0.41136 1.12200
C 	C 	0.25244 0.46088 0.40154 -0.09400
O 	O 	0.32234 0.82119 0.42685 -0.37900
C 	C 	0.26450 0.52325 0.41246 0.30800
O 	O 	0.23134 0.72447 0.42155 -0.39400
O 	O 	0.18024 0.57495 0.41964 -0.37800
O 	O 	0.30565 0.66798 0.43325 -0.71600
H 	H 	0.33619 0.65858 0.42763 0.16400
Ni	Ni	0.35450 0.76471 0.44121 1.12200
O 	O 	0.24565 0.51410 0.43064 -0.36100
C 	C 	0.15640 0.57045 0.43657 0.31100
N 	N 	0.11020 0.41818 0.46941 -0.11200
C 	C 	0.08737 0.44556 0.46141 0.07600
H 	H 	0.87138 0.36138 0.43252 0.05400
C 	C 	0.05887 0.47973 0.45142 0.03800
C 	C 	0.09125 0.53759 0.43852 -0.07800
O 	O 	0.40138 0.73260 0.45871 -0.37200
C 	C 	0.06126 0.56516 0.42766 0.01000
H 	H 	0.08579 0.60860 0.41745 0.04400
N 	N 	0.72525 0.22901 0.44207 -0.10000
O 	O 	0.29678 0.75008 0.46249 -0.38200
Ni	Ni	0.27198 0.59407 0.45189 1.11600
O 	O 	0.18923 0.58769 0.45192 -0.36300
C 	C 	0.99794 0.45346 0.45421 -0.06600
C 	C 	0.40468 0.67195 0.45755 0.28800
O 	O 	0.35686 0.60815 0.45458 -0.36800
C 	C 	0.00001 0.53796 0.43025 -0.01900
H 	H 	0.97344 0.41033 0.46451 0.05600
N 	N 	0.51850 0.74756 0.42020 -0.10500
C 	C 	0.76078 0.28643 0.44655 0.08300
C 	C 	0.96849 0.48321 0.44399 0.01200
C 	C 	0.86113 0.39089 0.44307 -0.05900
C 	C 	0.51367 0.72197 0.43521 0.07200
C 	C 	0.96995 0.56676 0.41885 0.07800
C 	C 	0.45730 0.67194 0.46547 -0.07400
C 	C 	0.50767 0.68999 0.45393 0.02300
C 	C 	0.80514 0.35810 0.45206 0.02700
H 	H 	0.53230 0.51894 0.46218 0.05500
N 	N 	0.63130 0.08788 0.46433 -0.10000
N 	N 	0.94583 0.58982 0.40973 -0.11400
C 	C 	0.90548 0.45948 0.44874 0.02500
C 	C 	0.29783 0.71767 0.47825 0.31200
O 	O 	0.29083 0.65229 0.47738 -0.36400
N 	N 	0.55475 0.37173 0.46364 -0.12100
H 	H 	0.41524 0.63052 0.49289 0.04000
C 	C 	0.45370 0.64383 0.48392 0.01300
H 	H 	0.50884 0.94008 0.48486 0.05500
C 	C 	0.55137 0.67413 0.46035 -0.05700
H 	H 	0.58870 0.68481 0.45109 0.05500
C 	C 	0.57057 0.42723 0.47068 0.07400
C 	C 	0.59997 0.07126 0.47752 0.08100
C 	C 	0.56556 0.53875 0.47331 -0.05800
H 	H 	0.37872 0.71113 0.50182 0.04600
C 	C 	0.54490 0.63984 0.47812 0.02300
C 	C 	0.32692 0.76258 0.49507 -0.08900
C 	C 	0.49709 0.62771 0.49030 -0.03800
C 	C 	0.89095 0.49919 0.46166 -0.03900
C 	C 	0.79359 0.39414 0.46692 -0.07400
C 	C 	0.37519 0.75955 0.50320 0.01500
N 	N 	0.22099 0.82084 0.49047 -0.10200
C 	C 	0.59022 0.49658 0.47943 0.02800
C 	C 	0.51524 0.97867 0.49593 -0.05500
C 	C 	0.31943 0.82249 0.49902 0.02700
C 	C 	0.26479 0.82158 0.49428 0.08100
O 	O 	0.69144 0.32220 0.47793 -0.36400
C 	C 	0.58075 0.60429 0.48218 0.02200
C 	C 	0.56081 0.05032 0.49398 0.02600
C 	C 	0.83482 0.46658 0.47048 0.01000
C 	C 	0.49050 0.59497 0.50896 0.09500
C 	C 	0.74927 0.35273 0.48186 0.28600
C 	C 	0.36657 0.88491 0.50668 -0.05900
C 	C 	0.42249 0.82185 0.51088 -0.04200
C 	C 	0.47435 0.81987 0.51762 0.09300
N 	N 	0.51592 0.81824 0.52300 -0.11100
C 	C 	0.93456 0.57181 0.46679 0.09300
C 	C 	0.42021 0.88670 0.51102 0.02100
H 	H 	0.36318 0.93353 0.50792 0.05700
N 	N 	0.48526 0.56873 0.52390 -0.11400
O 	O 	0.66569 0.43387 0.49168 -0.37900
C 	C 	0.47566 0.95739 0.51157 0.02600
Ni	Ni	0.62959 0.32636 0.49545 1.12400
O 	O 	0.58188 0.21890 0.49913 -0.37900
N 	N 	0.96953 0.62999 0.47089 -0.11300
O 	O 	0.76833 0.33771 0.49793 -0.37600
C 	C 	0.63165 0.52071 0.49454 -0.07500
H 	H 	0.82508 0.49551 0.48136 0.03800
C 	C 	0.62488 0.63078 0.49636 -0.03800
C 	C 	0.56671 0.10157 0.50770 -0.08100
C 	C 	0.60563 0.17920 0.50408 0.31100
C 	C 	0.65178 0.47268 0.50313 0.29500
O 	O 	0.66353 0.20683 0.50425 -0.38000
C 	C 	0.64977 0.58868 0.50256 0.01200
C 	C 	0.64411 0.70048 0.50480 0.09400
O 	O 	0.55910 0.33025 0.50778 -0.37300
H 	H 	0.71492 0.39392 0.51192 0.15700
C 	C 	0.48488 0.00726 0.52612 -0.04700
O 	O 	0.68011 0.35038 0.51705 -0.71700
C 	C 	0.52996 0.07920 0.52403 0.01500
N 	N 	0.65947 0.75632 0.51156 -0.11100
Ni	Ni	0.71537 0.29143 0.52075 1.12200
H 	H 	0.68241 0.60819 0.51387 0.04200
O 	O 	0.64803 0.46301 0.52212 -0.36400
C 	C 	0.44790 0.98519 0.54311 0.09600
H 	H 	0.53537 0.11831 0.53483 0.04600
C 	C 	0.53942 0.30757 0.52528 0.32400
O 	O 	0.75584 0.45846 0.53972 -0.37100
O 	O 	0.77660 0.36373 0.53938 -0.37400
C 	C 	0.48014 0.28998 0.53063 -0.10100
C 	C 	0.79403 0.43384 0.54095 0.30500
Ni	Ni	0.66453 0.39082 0.53856 1.11400
O 	O 	0.57585 0.31273 0.53885 -0.38000
N 	N 	0.41823 0.96746 0.55672 -0.11600
O 	O 	0.65938 0.23704 0.54261 -0.39300
C 	C 	0.43236 0.27583 0.53719 0.05400
C 	C 	0.84933 0.47862 0.55025 -0.09300
H 	H 	0.32559 0.15521 0.53467 0.04500
C 	C 	0.66547 0.26637 0.55937 0.33000
O 	O 	0.67791 0.33389 0.56073 -0.37100
C 	C 	0.37712 0.26308 0.54570 -0.00500
C 	C 	0.32717 0.19403 0.54494 -0.02700
C 	C 	0.89345 0.51522 0.55931 0.04700
H 	H 	0.41531 0.36764 0.55896 0.04600
H 	H 	0.98854 0.64497 0.55120 0.04700
C 	C 	0.37762 0.31348 0.55861 -0.02700
C 	C 	0.67365 0.23103 0.57564 -0.10900
C 	C 	0.28195 0.17253 0.55871 -0.04000
C 	C 	0.98775 0.62561 0.56562 -0.04000
C 	C 	0.94453 0.55566 0.57110 -0.00200
H 	H 	0.24546 0.11752 0.55882 0.04500
H 	H 	0.64908 0.05928 0.58975 0.04500
C 	C 	0.68311 0.20051 0.58857 0.05400
C 	C 	0.33289 0.29189 0.57252 -0.04000
C 	C 	0.28694 0.21987 0.57342 0.01100
C 	C 	0.02702 0.67269 0.57920 -0.03100
H 	H 	0.05816 0.72792 0.57511 0.04500
C 	C 	0.67705 0.08958 0.60154 -0.02800
H 	H 	0.33653 0.32956 0.58348 0.04500
C 	C 	0.94510 0.53053 0.58961 -0.02800
H 	H 	0.91269 0.47591 0.59382 0.04200
C 	C 	0.69374 0.16253 0.60377 -0.00800
H 	H 	0.21945 0.26696 0.59193 0.04500
H 	H 	0.68903 0.00162 0.61133 0.04600
C 	C 	0.25230 0.19105 0.59136 0.01100
C 	C 	0.69973 0.05694 0.61374 -0.04200
C 	C 	0.02225 0.65032 0.59839 0.01900
C 	C 	0.98361 0.57769 0.60325 -0.05100
C 	C 	0.22244 0.22451 0.59960 -0.04200
H 	H 	0.27849 0.10972 0.59532 0.04500
H 	H 	0.01179 0.77021 0.60262 0.04600
C 	C 	0.72935 0.20098 0.61921 -0.02800
H 	H 	0.74208 0.25723 0.62112 0.04200
C 	C 	0.25525 0.13561 0.60143 -0.04100
H 	H 	0.98019 0.55920 0.61790 0.04200
C 	C 	0.03383 0.76062 0.61449 -0.03900
C 	C 	0.04768 0.70458 0.61370 0.01000
C 	C 	0.73899 0.09703 0.62829 0.01000
C 	C 	0.19824 0.20492 0.61808 -0.02800
C 	C 	0.75194 0.16831 0.63145 -0.04300
H 	H 	0.84048 0.10207 0.61633 0.04400
C 	C 	0.23076 0.11587 0.61979 -0.02800
H 	H 	0.17658 0.23220 0.62452 0.04300
C 	C 	0.07677 0.69349 0.62920 -0.04000
C 	C 	0.20339 0.15148 0.62833 -0.00600
H 	H 	0.08906 0.65166 0.62861 0.04500
H 	H 	0.03052 0.84131 0.63191 0.04700
C 	C 	0.04400 0.80055 0.63116 -0.02700
C 	C 	0.77276 0.06820 0.63835 0.00900
C 	C 	0.82577 0.07700 0.63030 -0.04200
H 	H 	0.78181 0.19945 0.64277 0.04300
H 	H 	0.23443 0.07407 0.62758 0.04400
H 	H 	0.71285 0.02802 0.66266 0.04300
C 	C 	0.75393 0.03540 0.65640 -0.04100
C 	C 	0.86084 0.05561 0.64053 -0.03000
C 	C 	0.06767 0.78462 0.64722 -0.00500
C 	C 	0.08620 0.73298 0.64599 -0.02800
H 	H 	0.90263 0.06463 0.63444 0.04100
C 	C 	0.18276 0.13472 0.64786 0.05200
C 	C 	0.78904 0.01387 0.66663 -0.03300
C 	C 	0.84315 0.02525 0.65886 -0.00700
H 	H 	0.10554 0.72128 0.65826 0.04400
H 	H 	0.77503 0.99033 0.68079 0.04600
C 	C 	0.06601 0.81490 0.66539 0.05400
C 	C 	0.16654 0.11801 0.66422 -0.10100
C 	C 	0.88354 0.01359 0.67045 0.05100
C 	C 	0.91785 0.00413 0.67998 -0.11000
C 	C 	0.06320 0.84217 0.68012 -0.10000
C 	C 	0.14813 0.09449 0.68357 0.32500
C 	C 	0.96024 0.99704 0.69159 0.32500
O 	O 	0.15132 0.03862 0.69009 -0.37600
O 	O 	0.01645 0.04590 0.68992 -0.39000
C 	C 	0.05710 0.87574 0.69702 0.32400
O 	O 	0.01058 0.88478 0.69891 -0.37400
O 	O 	0.13822 0.13554 0.69528 -0.37700
O 	O 	0.94110 0.95082 0.70603 -0.38100
O 	O 	0.09961 0.90123 0.70970 -0.36900
Ni	Ni	0.06554 0.09556 0.71276 1.12300
Ni	Ni	0.13834 0.00761 0.71869 1.11300
Ni	Ni	0.99334 0.92670 0.72250 1.11800
O 	O 	0.06828 0.01328 0.72181 -0.71300
O 	O 	0.18989 0.11525 0.72709 -0.36700
O 	O 	0.99269 0.07420 0.72903 -0.38500
O 	O 	0.12228 0.15405 0.73384 -0.37300
O 	O 	0.02776 0.87989 0.74022 -0.36800
H 	H 	0.07172 0.02479 0.73549 0.14700
C 	C 	0.16994 0.14888 0.73833 0.30300
O 	O 	0.12491 0.96554 0.74635 -0.36600
O 	O 	0.96929 0.96635 0.74468 -0.38500
C 	C 	0.97316 0.03097 0.74440 0.30300
C 	C 	0.07114 0.91703 0.75246 0.30400
C 	C 	0.20551 0.18931 0.75413 -0.09800
H 	H 	0.31951 0.36146 0.76947 0.04400
C 	C 	0.94121 0.04565 0.75884 -0.09800
C 	C 	0.31510 0.33083 0.78240 -0.02900
C 	C 	0.23574 0.22150 0.76755 0.04800
C 	C 	0.06023 0.90243 0.77260 -0.09700
H 	H 	0.39025 0.41888 0.79582 0.04400
C 	C 	0.27107 0.25814 0.78389 -0.00500
C 	C 	0.35519 0.36332 0.79731 -0.04200
C 	C 	0.91262 0.05509 0.77098 0.04500
H 	H 	0.89726 0.17003 0.77549 0.04100
C 	C 	0.05007 0.89119 0.78950 0.04900
C 	C 	0.26525 0.21921 0.80073 -0.02900
C 	C 	0.87807 0.06464 0.78566 -0.00600
C 	C 	0.87371 0.12762 0.78603 -0.03000
C 	C 	0.35164 0.32305 0.81374 0.01100
H 	H 	0.46878 0.37258 0.80689 0.04300
H 	H 	0.23100 0.16314 0.80203 0.04200
C 	C 	0.30540 0.25144 0.81560 -0.04100
C 	C 	0.03801 0.87869 0.80973 -0.00300
H 	H 	0.02723 0.77145 0.80926 0.04700
H 	H 	0.04564 0.98295 0.81486 0.04400
C 	C 	0.84729 0.00989 0.79929 -0.03300
H 	H 	0.85033 0.96090 0.79902 0.04400
C 	C 	0.40016 0.35234 0.82778 0.01000
C 	C 	0.45818 0.37156 0.82194 -0.04100
C 	C 	0.83891 0.13605 0.80002 -0.04200
H 	H 	0.83634 0.18533 0.80037 0.04300
C 	C 	0.02482 0.81210 0.81787 -0.03200
C 	C 	0.03513 0.93112 0.82103 -0.02900
C 	C 	0.50160 0.38469 0.83555 -0.02900
H 	H 	0.30217 0.21983 0.82821 0.04400
C 	C 	0.38728 0.35187 0.84734 -0.04100
H 	H 	0.34293 0.33836 0.85200 0.04500
H 	H 	0.54547 0.39610 0.83090 0.04300
H 	H 	0.71088 0.09742 0.81010 0.04300
C 	C 	0.80815 0.08138 0.81373 0.01100
C 	C 	0.81241 0.01821 0.81329 -0.04500
C 	C 	0.43074 0.36465 0.86094 -0.02800
C 	C 	0.00620 0.79666 0.83696 -0.02900
C 	C 	0.48732 0.37845 0.85507 -0.00300
C 	C 	0.48469 0.34002 0.01303 0.09400
H 	H 	0.78895 0.97582 0.82383 0.04600
C 	C 	0.01665 0.91585 0.84016 -0.04100
C 	C 	0.72695 0.10407 0.82462 -0.04200
H 	H 	0.99383 0.74392 0.84289 0.03600
H 	H 	0.41958 0.36056 0.87603 0.04600
C 	C 	0.77433 0.09225 0.82911 0.00900
H 	H 	0.01300 0.95595 0.84864 0.04700
C 	C 	0.00074 0.84788 0.84810 0.01600
H 	H 	0.66847 0.14174 0.83480 0.04300
C 	C 	0.52748 0.37565 0.86875 0.05000
C 	C 	0.70272 0.12877 0.83863 -0.02800
H 	H 	0.90061 0.84852 0.85985 0.04100
C 	C 	0.79368 0.09916 0.84807 -0.04100
H 	H 	0.82969 0.08919 0.85173 0.04300
C 	C 	0.97161 0.82695 0.86713 0.00600
C 	C 	0.56207 0.37354 0.87985 -0.09100
C 	C 	0.91685 0.82437 0.87017 -0.04100
C 	C 	0.72575 0.14178 0.85717 -0.00600
C 	C 	0.76934 0.12374 0.86206 -0.02800
H 	H 	0.03596 0.80148 0.87921 0.05700
C 	C 	0.99283 0.79759 0.88102 -0.05200
O 	O 	0.38572 0.61868 0.00782 -0.37900
C 	C 	0.88030 0.78431 0.88552 -0.02800
H 	H 	0.83603 0.77751 0.88680 0.04400
C 	C 	0.71346 0.18582 0.86981 0.05600
C 	C 	0.60297 0.36763 0.89247 0.31200
O 	O 	0.65605 0.38335 0.88545 -0.38000
H 	H 	0.78689 0.13288 0.87643 0.04600
C 	C 	0.95603 0.75725 0.89631 -0.02400
C 	C 	0.89785 0.74575 0.89768 -0.00700
C 	C 	0.70367 0.22270 0.88058 -0.10200
O 	O 	0.58137 0.32869 0.90838 -0.37900
H 	H 	0.97073 0.72937 0.90599 0.04400
O 	O 	0.73306 0.51358 0.90763 -0.38300
C 	C 	0.85282 0.68089 0.90685 0.05000
Ni	Ni	0.73268 0.42177 0.90062 1.12200
O 	O 	0.64270 0.25523 0.89875 -0.38100
C 	C 	0.69627 0.27111 0.89291 0.33100
C 	C 	0.81487 0.62666 0.91449 -0.10200
C 	C 	0.76955 0.55663 0.92077 0.31300
O 	O 	0.74191 0.33525 0.89576 -0.38600
N 	N 	0.57376 0.47638 0.92234 -0.10800
H 	H 	0.66903 0.41377 0.92474 0.16300
Ni	Ni	0.62710 0.29203 0.92347 1.12200
N 	N 	0.89786 0.32888 0.92163 -0.10600
O 	O 	0.81949 0.47389 0.90914 -0.37900
O 	O 	0.69178 0.38788 0.92438 -0.71400
C 	C 	0.55850 0.45281 0.93759 0.07200
C 	C 	0.91610 0.38865 0.92574 0.07100
O 	O 	0.77540 0.53123 0.93773 -0.36600
O 	O 	0.59560 0.30600 0.94921 -0.37200
C 	C 	0.84068 0.45465 0.92373 0.31400
N 	N 	0.14028 0.70880 0.91612 -0.11400
N 	N 	0.50623 0.00434 0.93669 -0.11900
O 	O 	0.67577 0.25397 0.93633 -0.38300
C 	C 	0.93881 0.46323 0.93088 0.04100
N 	N 	0.66243 0.97144 0.94867 -0.11100
C 	C 	0.60593 0.36949 0.95594 0.28900
Ni	Ni	0.73464 0.42188 0.94718 1.11400
O 	O 	0.66088 0.42275 0.95866 -0.36200
O 	O 	0.80481 0.41075 0.93689 -0.37600
C 	C 	0.90451 0.49729 0.92799 -0.09600
H 	H 	0.71278 0.15628 0.94698 0.04800
C 	C 	0.53949 0.42351 0.95664 0.02400
C 	C 	0.13374 0.68697 0.93165 0.09200
H 	H 	0.02082 0.47477 0.94184 0.06900
C 	C 	0.50644 0.97635 0.95090 0.09800
C 	C 	0.99523 0.50168 0.93904 -0.09300
C 	C 	0.65516 0.01561 0.95570 0.08800
H 	H 	0.49321 0.48304 0.96154 0.05500
C 	C 	0.68627 0.26171 0.95464 0.30700
C 	C 	0.55676 0.37572 0.96459 -0.07400
C 	C 	0.68099 0.14282 0.95861 0.01100
C 	C 	0.50511 0.44470 0.96748 -0.05700
O 	O 	0.70454 0.32495 0.96267 -0.36000
C 	C 	0.92907 0.57103 0.93193 0.02300
H 	H 	0.42040 0.84929 0.96390 0.04600
C 	C 	0.64602 0.07067 0.96447 -0.03700
H 	H 	0.90332 0.59776 0.92935 0.03900
C 	C 	0.50679 0.94149 0.96864 -0.04100
C 	C 	0.01723 0.57346 0.94476 0.05500
C 	C 	0.12551 0.65971 0.95103 -0.03500
C 	C 	0.67110 0.19677 0.96643 -0.08100
C 	C 	0.45809 0.87407 0.97342 0.01300
N 	N 	0.33209 0.28591 0.99113 -0.11400
C 	C 	0.98474 0.60897 0.94055 -0.07200
H 	H 	0.21849 0.72391 0.95779 0.04400
C 	C 	0.53510 0.34496 0.98270 0.01300
C 	C 	0.55430 0.97603 0.98154 0.02700
C 	C 	0.60102 0.05229 0.97836 0.01600
C 	C 	0.06899 0.60656 0.95770 0.01100
C 	C 	0.36247 0.34455 0.99608 0.09200
C 	C 	0.17476 0.68456 0.96310 0.01200
C 	C 	0.48867 0.41968 0.98634 0.02200
H 	H 	0.54648 0.30614 0.98854 0.05000
C 	C 	0.45549 0.84163 0.99118 -0.07400
C 	C 	0.63329 0.17967 0.98257 0.02300
C 	C 	0.00702 0.68339 0.94578 0.10800
O 	O 	0.36445 0.72701 0.98827 -0.37200
C 	C 	0.59737 0.10733 0.98816 -0.05800
C 	C 	0.50229 0.36787 0.99379 -0.03800
C 	C 	0.55429 0.94028 0.99842 -0.05800
C 	C 	0.50520 0.87343 0.00333 0.02600
C 	C 	0.40041 0.41774 0.00227 -0.04000
C 	C 	0.46211 0.45305 0.99862 0.02200
C 	C 	0.39744 0.78557 0.99873 0.28800
C 	C 	0.63232 0.23580 0.99377 0.08200
H 	H 	0.59146 0.96586 0.00811 0.05500
C 	C 	0.16862 0.65449 0.98146 -0.07800
N 	N 	0.02488 0.74302 0.94996 -0.11700
C 	C 	0.06215 0.58100 0.97656 -0.05300
H 	H 	0.56536 0.09365 0.99973 0.05300
O 	O 	0.23704 0.61395 0.98974 -0.38100
C 	C 	0.37516 0.45475 0.01140 0.01100
H 	H 	0.32743 0.42827 0.01364 0.04600
C 	C 	0.22198 0.66420 0.99144 0.30900
H 	H 	0.01850 0.54105 0.98179 0.05500
H 	H 	0.54585 0.55016 0.00277 0.05600
C 	C 	0.49816 0.52362 0.00513 -0.05900
Ni	Ni	0.31399 0.62441 0.99902 1.12200
C 	C 	0.50499 0.83924 0.02126 0.07500
N 	N 	0.63181 0.28078 0.00284 -0.10900
