data_crystal

_cell_length_a 39.03432
_cell_length_b 36.98855
_cell_length_c 42.01552
_cell_angle_alpha 104.40499
_cell_angle_beta  116.12087
_cell_angle_gamma 110.62659

_symmetry_space_group_name_	'P 1'
_symmetry_space_group_name_H-M	'P 1'

loop_
_symmetry_equiv_pos_as_xyz
  x,y,z

loop_
_atom_site_label
_atom_site_type_symbol
_atom_site_fract_x
_atom_site_fract_y
_atom_site_fract_z
_atom_site_charge
H 	H 	0.05826 0.58375 0.77142 0.05400
H 	H 	0.05826 0.08375 0.77142 0.05300
Zn	Zn	0.98466 0.49618 0.44912 1.21700
Zn	Zn	0.98466 0.99618 0.44912 1.21500
O 	O 	0.02654 0.46963 0.06591 -0.42600
O 	O 	0.02654 0.96963 0.06591 -0.43400
H 	H 	0.05243 0.57661 0.71318 0.04800
H 	H 	0.05243 0.07660 0.71318 0.04900
Zn	Zn	0.02983 0.47199 0.89826 1.19100
Zn	Zn	0.02983 0.97199 0.89826 1.18900
Zn	Zn	0.02783 0.51282 0.97059 1.21800
O 	O 	0.98968 0.52712 0.35163 -0.42900
Zn	Zn	0.02783 0.01282 0.97059 1.21900
O 	O 	0.98968 0.02712 0.35163 -0.42300
O 	O 	0.99032 0.46025 0.54955 -0.41800
O 	O 	0.99032 0.96025 0.54955 -0.41700
O 	O 	0.02860 0.54972 0.87444 -0.42500
C 	C 	0.03423 0.52153 0.85433 0.32800
C 	C 	0.99704 0.49865 0.33442 0.32200
C 	C 	0.02993 0.51970 0.81820 -0.09500
C 	C 	0.00740 0.50017 0.27672 0.03300
C 	C 	0.00247 0.49995 0.30306 -0.10500
O 	O 	0.02860 0.04972 0.87444 -0.42400
C 	C 	0.03423 0.02153 0.85433 0.33700
C 	C 	0.99704 0.99865 0.33442 0.32100
C 	C 	0.02993 0.01970 0.81820 -0.09600
C 	C 	0.00740 0.00017 0.27672 0.05800
C 	C 	0.00247 0.99995 0.30306 -0.12400
C 	C 	0.03227 0.50297 0.09316 0.33200
C 	C 	0.03227 0.00297 0.09316 0.35000
C 	C 	0.02302 0.51252 0.75030 0.02700
H 	H 	0.97455 0.44094 0.71580 0.04500
C 	C 	0.02673 0.51694 0.78770 0.03400
C 	C 	0.01335 0.49973 0.24436 0.02400
C 	C 	0.02302 0.01252 0.75030 0.02900
H 	H 	0.97455 0.94094 0.71580 0.04400
C 	C 	0.02673 0.01694 0.78770 0.03700
C 	C 	0.01335 0.99973 0.24436 -0.00000
O 	O 	0.03457 0.53752 0.08876 -0.46400
C 	C 	0.02368 0.49876 0.18618 0.02700
C 	C 	0.02886 0.49859 0.15346 0.03500
C 	C 	0.03146 0.49971 0.12614 -0.10000
O 	O 	0.03457 0.03752 0.08876 -0.46600
C 	C 	0.02368 0.99876 0.18618 0.01400
C 	C 	0.02886 0.99859 0.15346 0.04100
C 	C 	0.03146 0.99971 0.12614 -0.11500
O 	O 	0.04174 0.51756 0.02204 -0.89100
O 	O 	0.00468 0.47238 0.34866 -0.47200
O 	O 	0.99647 0.41619 0.39998 -0.48700
O 	O 	0.00154 0.50313 0.50164 -0.89500
H 	H 	0.02335 0.43807 0.18128 0.05500
H 	H 	0.01436 0.43886 0.23181 0.05000
O 	O 	0.04174 0.01756 0.02204 -0.88800
O 	O 	0.00468 0.97238 0.34866 -0.47400
O 	O 	0.99647 0.91619 0.39998 -0.48800
O 	O 	0.00154 0.00313 0.50164 -0.89100
H 	H 	0.02335 0.93807 0.18128 0.05400
H 	H 	0.01436 0.93886 0.23181 0.04700
C 	C 	0.00125 0.49638 0.57817 0.33600
C 	C 	0.01631 0.50423 0.68320 0.02800
C 	C 	0.01225 0.49992 0.64569 0.03600
H 	H 	0.96877 0.43376 0.65756 0.05500
C 	C 	0.00791 0.49751 0.61487 -0.09300
C 	C 	0.00125 0.99638 0.57817 0.32600
C 	C 	0.01631 0.00423 0.68320 0.04100
C 	C 	0.01225 0.99992 0.64569 0.02400
H 	H 	0.96877 0.93375 0.65756 0.05600
C 	C 	0.00791 0.99751 0.61487 -0.08700
Cl	Cl	0.03891 0.36524 0.94198 -0.35700
Cl	Cl	0.03891 0.86524 0.94198 -0.35700
O 	O 	0.00298 0.53030 0.57265 -0.46200
O 	O 	0.00298 0.03030 0.57265 -0.45500
O 	O 	0.04899 0.49874 0.86937 -0.45900
O 	O 	0.04899 0.99874 0.86937 -0.46700
O 	O 	0.05383 0.44284 0.92369 -0.47500
Zn	Zn	0.00973 0.54821 0.40998 1.20000
O 	O 	0.05383 0.94284 0.92369 -0.47600
Zn	Zn	0.00973 0.04821 0.40998 1.20100
Zn	Zn	0.05116 0.56839 0.93341 1.19900
Zn	Zn	0.05116 0.06839 0.93341 1.19900
O 	O 	0.02491 0.55610 0.46559 -0.76400
Cl	Cl	0.01833 0.16136 0.40166 -0.34000
O 	O 	0.02491 0.05610 0.46559 -0.76200
Cl	Cl	0.01833 0.66136 0.40166 -0.34000
O 	O 	0.06686 0.57377 0.98858 -0.76100
O 	O 	0.06686 0.07377 0.98858 -0.76100
H 	H 	0.07423 0.53325 0.04396 0.17200
H 	H 	0.03425 0.51742 0.52212 0.16600
H 	H 	0.07423 0.03325 0.04396 0.17300
H 	H 	0.03425 0.01742 0.52212 0.16700
C 	C 	0.08286 0.46316 0.96311 0.36100
C 	C 	0.03210 0.43971 0.43759 0.29900
C 	C 	0.08286 0.96316 0.96311 0.36000
C 	C 	0.03210 0.93971 0.43759 0.30000
O 	O 	0.08751 0.49892 0.98576 -0.45600
O 	O 	0.04092 0.47778 0.46097 -0.43900
C 	C 	0.05774 0.50343 0.71193 -0.07700
C 	C 	0.06170 0.50832 0.75140 -0.07700
C 	C 	0.06384 0.52936 0.26234 -0.07500
C 	C 	0.06991 0.52877 0.22811 -0.07800
O 	O 	0.08751 0.99892 0.98576 -0.46000
O 	O 	0.04092 0.97778 0.46097 -0.44200
C 	C 	0.05774 0.00343 0.71193 -0.07400
C 	C 	0.06170 0.00832 0.75140 -0.07000
C 	C 	0.06384 0.02935 0.26234 -0.06600
C 	C 	0.06991 0.02877 0.22811 -0.07200
O 	O 	0.09433 0.63061 0.95016 -0.43000
H 	H 	0.08905 0.53069 0.71953 0.04600
H 	H 	0.09491 0.53790 0.77785 0.05400
H 	H 	0.07740 0.56381 0.28343 0.05300
H 	H 	0.08637 0.56295 0.23288 0.05500
H 	H 	0.08814 0.20255 0.95070 0.03300
O 	O 	0.09433 0.13061 0.95016 -0.43000
H 	H 	0.08905 0.03069 0.71953 0.04700
H 	H 	0.09491 0.03790 0.77785 0.05300
H 	H 	0.07740 0.06381 0.28343 0.05100
H 	H 	0.08637 0.06295 0.23288 0.05400
H 	H 	0.08814 0.70255 0.95070 0.03200
C 	C 	0.09694 0.40350 0.96860 0.23000
C 	C 	0.09694 0.90350 0.96860 0.22800
O 	O 	0.05760 0.60802 0.42635 -0.43200
O 	O 	0.05760 0.10802 0.42635 -0.43200
H 	H 	0.06054 0.47920 0.75505 0.04900
H 	H 	0.08377 0.51762 0.28013 0.05000
H 	H 	0.06054 0.97920 0.75505 0.04300
H 	H 	0.08377 0.01762 0.28013 0.04900
H 	H 	0.05463 0.47197 0.69672 0.04800
H 	H 	0.09270 0.51671 0.22952 0.05300
H 	H 	0.05463 0.97197 0.69672 0.04400
H 	H 	0.09270 0.01671 0.22952 0.05400
H 	H 	0.05707 0.40698 0.39282 0.07000
H 	H 	0.05707 0.90698 0.39282 0.06900
C 	C 	0.00188 0.45160 0.18079 -0.08000
C 	C 	0.00188 0.95160 0.18079 -0.07800
C 	C 	0.07467 0.41034 0.42281 -0.05800
C 	C 	0.07467 0.91034 0.42281 -0.05800
Zn	Zn	0.97711 0.44680 0.37352 1.18800
Zn	Zn	0.97711 0.94680 0.37352 1.18700
O 	O 	0.01229 0.50731 0.91865 -0.87400
O 	O 	0.96670 0.48888 0.39595 -0.86800
O 	O 	0.01229 0.00731 0.91865 -0.86600
O 	O 	0.96670 0.98888 0.39595 -0.87100
C 	C 	0.30205 0.13678 0.95025 0.02000
C 	C 	0.31458 0.17602 0.94791 -0.06400
C 	C 	0.34764 0.19200 0.94122 0.07300
C 	C 	0.36732 0.16814 0.93567 -0.06800
C 	C 	0.35698 0.13032 0.94035 0.01700
C 	C 	0.32342 0.11403 0.94660 -0.05400
H 	H 	0.29976 0.19486 0.95266 0.07100
H 	H 	0.39298 0.18069 0.93055 0.06100
H 	H 	0.31498 0.08458 0.94988 0.05000
C 	C 	0.25993 0.12067 0.42984 0.08800
C 	C 	0.27090 0.15959 0.42706 -0.09100
C 	C 	0.30504 0.17760 0.42197 0.09200
C 	C 	0.32703 0.15574 0.41812 -0.07600
C 	C 	0.31724 0.11756 0.42226 0.03200
C 	C 	0.28304 0.09967 0.42742 -0.07400
H 	H 	0.25411 0.17667 0.43036 0.07500
H 	H 	0.35345 0.16976 0.41417 0.07000
H 	H 	0.27582 0.07066 0.43139 0.06600
C 	C 	0.26125 0.39643 0.00292 0.00100
C 	C 	0.24791 0.35698 0.00503 -0.04800
C 	C 	0.21361 0.34079 0.01042 0.00400
C 	C 	0.19534 0.36602 0.01686 -0.05000
C 	C 	0.20443 0.40242 0.00994 0.00200
C 	C 	0.23852 0.41839 0.00417 -0.04900
H 	H 	0.26303 0.33822 0.00102 0.05400
H 	H 	0.17087 0.35496 0.02354 0.05000
H 	H 	0.24594 0.44649 0.99883 0.04700
C 	C 	0.21996 0.38098 0.48502 0.01900
C 	C 	0.19878 0.40397 0.48873 -0.06300
C 	C 	0.15725 0.38260 0.48287 0.06800
C 	C 	0.14010 0.34045 0.47933 -0.06700
C 	C 	0.16186 0.31766 0.47723 0.01800
C 	C 	0.20133 0.33767 0.47925 -0.05300
H 	H 	0.21281 0.43728 0.49309 0.06100
H 	H 	0.10876 0.32462 0.47628 0.06100
H 	H 	0.21675 0.31925 0.47528 0.05400
Zn	Zn	0.12797 0.60186 0.01839 1.18900
C 	C 	0.16837 0.57969 0.98161 0.34400
C 	C 	0.12791 0.66422 0.98681 0.36600
O 	O 	0.17774 0.60342 0.01657 -0.44500
O 	O 	0.12680 0.54743 0.95218 -0.35500
O 	O 	0.14020 0.65926 0.01929 -0.43200
Zn	Zn	0.93102 0.43354 0.93220 1.18100
Zn	Zn	0.00882 0.45614 0.00783 1.19000
C 	C 	0.93041 0.36479 0.95828 0.31200
C 	C 	0.90268 0.45724 0.98031 0.35000
O 	O 	0.96831 0.52848 0.95581 -0.47000
Zn	Zn	0.00931 0.53522 0.03648 1.20300
O 	O 	0.97338 0.39270 0.98858 -0.43600
O 	O 	0.90877 0.37445 0.93060 -0.42700
O 	O 	0.89370 0.44872 0.94439 -0.46000
O 	O 	0.94337 0.47030 0.01036 -0.46600
O 	O 	0.98917 0.45215 0.95239 -0.78800
C 	C 	0.96619 0.55726 0.97954 0.36800
O 	O 	0.98157 0.56429 0.01654 -0.48000
H 	H 	0.97994 0.49586 0.89951 0.15100
Zn	Zn	0.08606 0.58504 0.49677 1.18700
C 	C 	0.12693 0.56110 0.46150 0.28600
C 	C 	0.08357 0.64404 0.46180 0.35700
O 	O 	0.13615 0.58623 0.49595 -0.45400
O 	O 	0.08514 0.52922 0.43208 -0.34700
O 	O 	0.09736 0.64150 0.49553 -0.45100
Zn	Zn	0.88779 0.42156 0.41688 1.17700
Zn	Zn	0.96656 0.44296 0.48957 1.18800
C 	C 	0.88584 0.35213 0.44179 0.31600
C 	C 	0.86736 0.44995 0.47079 0.35200
O 	O 	0.92813 0.51573 0.43740 -0.46800
Zn	Zn	0.97395 0.52563 0.51941 1.20300
O 	O 	0.92859 0.38029 0.47273 -0.44100
O 	O 	0.86400 0.36254 0.41497 -0.45100
O 	O 	0.85503 0.43993 0.43373 -0.48600
O 	O 	0.90915 0.46393 0.49916 -0.44600
O 	O 	0.94424 0.43663 0.43291 -0.79600
C 	C 	0.92835 0.54620 0.46197 0.36600
O 	O 	0.94621 0.55492 0.49968 -0.47600
H 	H 	0.93499 0.48034 0.37847 0.15300
C 	C 	0.97746 0.47084 0.71294 -0.07600
H 	H 	0.94898 0.47296 0.71118 0.04500
C 	C 	0.02577 0.55328 0.74508 -0.07700
H 	H 	0.99828 0.55706 0.74400 0.04900
C 	C 	0.02183 0.54841 0.70566 -0.07700
H 	H 	0.99246 0.54992 0.68579 0.05100
C 	C 	0.97353 0.46596 0.67351 -0.07800
H 	H 	0.94315 0.46573 0.65294 0.05700
C 	C 	0.99289 0.51648 0.18564 -0.07600
H 	H 	0.95930 0.49550 0.15591 0.04900
H 	H 	0.00773 0.55043 0.18956 0.05000
H 	H 	0.96851 0.42929 0.15094 0.05500
C 	C 	0.99580 0.45218 0.21500 -0.07400
H 	H 	0.95953 0.43010 0.20146 0.04800
C 	C 	0.98684 0.51707 0.21980 -0.07600
H 	H 	0.95039 0.49633 0.20638 0.04800
H 	H 	0.99886 0.55128 0.24004 0.05300
C 	C 	0.10356 0.18768 0.46421 -0.15300
C 	C 	0.07689 0.19852 0.43749 0.23000
C 	C 	0.09656 0.24029 0.44070 -0.13500
C 	C 	0.14230 0.27216 0.47143 0.06300
C 	C 	0.16877 0.26128 0.49787 -0.09100
C 	C 	0.14962 0.21923 0.49407 0.06000
H 	H 	0.07601 0.24828 0.41987 0.09900
H 	H 	0.17058 0.21125 0.51456 0.02800
H 	H 	0.20405 0.28559 0.52174 0.05700
C 	C 	0.33212 0.43563 0.47798 -0.15800
C 	C 	0.33285 0.41446 0.50198 0.22500
C 	C 	0.29707 0.39844 0.50549 -0.13800
C 	C 	0.25925 0.40082 0.48354 0.06500
C 	C 	0.25841 0.42131 0.45942 -0.09100
C 	C 	0.29495 0.43942 0.45743 0.06100
H 	H 	0.29824 0.38316 0.52456 0.08700
H 	H 	0.29383 0.45543 0.43891 0.02800
Cl	Cl	0.37622 0.40463 0.52538 -0.34700
H 	H 	0.22915 0.42273 0.44176 0.07400
C 	C 	0.12785 0.40038 0.47239 -0.05200
C 	C 	0.10476 0.39608 0.43346 0.16000
C 	C 	0.06668 0.42830 0.45045 -0.06100
C 	C 	0.09051 0.43366 0.48958 -0.01200
C 	C 	0.12092 0.41963 0.50048 -0.02400
H 	H 	0.13855 0.42309 0.53049 0.03700
Cl	Cl	0.11207 0.37144 0.39720 -0.33400
H 	H 	0.08474 0.44771 0.51121 0.02100
C 	C 	0.15052 0.20858 0.99148 -0.14600
C 	C 	0.19796 0.23625 0.01690 0.22900
C 	C 	0.21849 0.27958 0.02347 -0.13500
C 	C 	0.19219 0.29492 0.00343 0.06400
C 	C 	0.14519 0.26637 0.97634 -0.08800
C 	C 	0.12451 0.22372 0.97080 0.06400
H 	H 	0.25482 0.30113 0.04389 0.09000
Cl	Cl	0.23210 0.21621 0.03829 -0.33000
H 	H 	0.12462 0.27738 0.95978 0.06100
C 	C 	0.36524 0.44198 0.98467 -0.15800
C 	C 	0.32527 0.39988 0.95628 0.23000
C 	C 	0.29105 0.38589 0.96190 -0.14100
C 	C 	0.29650 0.41272 0.99605 0.06700
C 	C 	0.33604 0.45444 0.02420 -0.09600
C 	C 	0.37019 0.46898 0.01853 0.05800
H 	H 	0.26048 0.35371 0.94000 0.09300
H 	H 	0.40065 0.50118 0.04061 0.02000
Cl	Cl	0.31835 0.36308 0.91485 -0.35600
H 	H 	0.34057 0.47539 0.05072 0.05600
C 	C 	0.11365 0.44865 0.98133 -0.17400
C 	C 	0.12659 0.38864 0.97774 -0.14000
C 	C 	0.17338 0.41880 0.00212 0.06400
C 	C 	0.19013 0.46418 0.01781 -0.09600
C 	C 	0.16039 0.47899 0.00704 0.05900
H 	H 	0.11317 0.35357 0.96548 0.08900
H 	H 	0.17368 0.51390 0.01749 0.01600
H 	H 	0.22610 0.48789 0.03758 0.05500
C 	C 	0.40176 0.06497 0.44555 -0.17100
C 	C 	0.42114 0.11088 0.46417 0.23500
C 	C 	0.39360 0.12814 0.45529 -0.13400
C 	C 	0.34676 0.09992 0.42679 0.06300
C 	C 	0.32802 0.05446 0.40548 -0.09200
C 	C 	0.35538 0.03703 0.41504 0.06300
H 	H 	0.40846 0.16334 0.47147 0.09600
H 	H 	0.34023 0.00167 0.40012 0.01500
Cl	Cl	0.47997 0.14712 0.49874 -0.34800
H 	H 	0.29205 0.03248 0.38267 0.05900
C 	C 	0.32220 0.22226 0.42650 -0.05800
C 	C 	0.30967 0.22864 0.39238 0.16600
C 	C 	0.32982 0.27125 0.39743 -0.06400
C 	C 	0.36257 0.30760 0.43641 -0.04300
C 	C 	0.37389 0.30116 0.47030 -0.00900
C 	C 	0.35377 0.25875 0.46535 -0.01200
H 	H 	0.32070 0.27596 0.37109 0.07400
H 	H 	0.36339 0.25409 0.49174 0.05100
Cl	Cl	0.26905 0.18352 0.34323 -0.33500
H 	H 	0.39856 0.32901 0.50052 0.06600
C 	C 	0.22640 0.10359 0.43817 -0.06100
C 	C 	0.23977 0.11607 0.47819 0.16700
C 	C 	0.20730 0.10085 0.48567 -0.06800
C 	C 	0.16140 0.07341 0.45345 -0.04000
C 	C 	0.14836 0.06017 0.41352 -0.01900
C 	C 	0.18071 0.07526 0.40599 -0.01100
H 	H 	0.21775 0.11077 0.51653 0.08100
H 	H 	0.17020 0.06539 0.37512 0.04100
Cl	Cl	0.29704 0.15136 0.51921 -0.33200
H 	H 	0.11309 0.03909 0.38833 0.05400
C 	C 	0.44007 0.07616 0.96270 -0.17700
C 	C 	0.45992 0.12211 0.98114 0.23400
C 	C 	0.43278 0.13979 0.97273 -0.14100
C 	C 	0.38582 0.11192 0.94485 0.06500
C 	C 	0.36649 0.06632 0.92369 -0.09700
C 	C 	0.39352 0.04849 0.93276 0.06300
H 	H 	0.44806 0.17509 0.98882 0.10300
H 	H 	0.37801 0.01307 0.91800 0.02100
Cl	Cl	0.51885 0.15786 0.01531 -0.35900
H 	H 	0.33042 0.04461 0.90133 0.05700
C 	C 	0.36630 0.23662 0.94589 -0.05300
C 	C 	0.40041 0.27343 0.98454 0.16800
C 	C 	0.42044 0.31535 0.98843 -0.06100
C 	C 	0.40705 0.32091 0.95397 -0.03600
C 	C 	0.37217 0.28432 0.91554 -0.00600
C 	C 	0.35194 0.24235 0.91155 -0.01500
H 	H 	0.44667 0.34358 0.01826 0.08600
H 	H 	0.32565 0.21417 0.88173 0.04000
Cl	Cl	0.41911 0.26725 0.02827 -0.32300
H 	H 	0.36141 0.28820 0.88872 0.05200
C 	C 	0.20226 0.09389 0.97326 -0.14800
C 	C 	0.19376 0.10381 0.94126 0.23300
C 	C 	0.22552 0.11553 0.93267 -0.13500
C 	C 	0.26699 0.12002 0.95713 0.06500
C 	C 	0.27590 0.11117 0.98959 -0.08600
C 	C 	0.24351 0.09781 0.99739 0.06500
H 	H 	0.21850 0.12243 0.90765 0.09000
H 	H 	0.25051 0.09060 0.02224 0.02500
Cl	Cl	0.14528 0.10530 0.91381 -0.34100
H 	H 	0.30808 0.11513 0.00903 0.06300
C 	C 	0.30205 0.63678 0.95025 0.01900
C 	C 	0.31458 0.67602 0.94791 -0.06400
C 	C 	0.34764 0.69200 0.94122 0.07300
C 	C 	0.36732 0.66814 0.93567 -0.06800
C 	C 	0.35698 0.63032 0.94035 0.01600
C 	C 	0.32342 0.61403 0.94660 -0.05400
H 	H 	0.29976 0.69486 0.95266 0.07100
H 	H 	0.39298 0.68069 0.93055 0.06100
H 	H 	0.31498 0.58458 0.94988 0.04900
C 	C 	0.25993 0.62067 0.42984 0.08800
C 	C 	0.27090 0.65959 0.42706 -0.09100
C 	C 	0.30504 0.67760 0.42197 0.09100
C 	C 	0.32703 0.65573 0.41812 -0.07600
C 	C 	0.31724 0.61756 0.42226 0.03200
C 	C 	0.28304 0.59967 0.42742 -0.07500
H 	H 	0.25411 0.67667 0.43036 0.07500
H 	H 	0.35345 0.66976 0.41417 0.06900
H 	H 	0.27582 0.57066 0.43139 0.06500
C 	C 	0.26124 0.89643 0.00292 0.00100
C 	C 	0.24791 0.85698 0.00503 -0.04900
C 	C 	0.21361 0.84079 0.01042 0.00400
C 	C 	0.19534 0.86602 0.01686 -0.05100
C 	C 	0.20442 0.90241 0.00994 0.00300
C 	C 	0.23852 0.91839 0.00417 -0.05000
H 	H 	0.26303 0.83822 0.00102 0.05400
H 	H 	0.17087 0.85496 0.02354 0.05000
H 	H 	0.24594 0.94649 0.99883 0.04600
C 	C 	0.21996 0.88098 0.48502 0.01800
C 	C 	0.19878 0.90397 0.48873 -0.06300
C 	C 	0.15725 0.88260 0.48287 0.06800
C 	C 	0.14010 0.84045 0.47933 -0.06700
C 	C 	0.16186 0.81766 0.47723 0.01800
C 	C 	0.20133 0.83767 0.47925 -0.05300
H 	H 	0.21281 0.93728 0.49309 0.06000
H 	H 	0.10876 0.82461 0.47628 0.06100
H 	H 	0.21675 0.81925 0.47528 0.05400
Zn	Zn	0.12797 0.10186 0.01839 1.19000
C 	C 	0.16837 0.07969 0.98161 0.34300
C 	C 	0.12791 0.16423 0.98681 0.36500
O 	O 	0.17774 0.10342 0.01657 -0.44400
O 	O 	0.12680 0.04743 0.95218 -0.35200
O 	O 	0.14020 0.15926 0.01929 -0.43200
Zn	Zn	0.93102 0.93354 0.93220 1.18000
Zn	Zn	0.00882 0.95614 0.00783 1.18900
C 	C 	0.93041 0.86479 0.95828 0.31200
C 	C 	0.90268 0.95724 0.98031 0.34800
O 	O 	0.96831 0.02848 0.95581 -0.46700
Zn	Zn	0.00931 0.03522 0.03648 1.20400
O 	O 	0.97338 0.89270 0.98858 -0.43600
O 	O 	0.90877 0.87445 0.93060 -0.42700
O 	O 	0.89370 0.94872 0.94439 -0.46200
O 	O 	0.94337 0.97030 0.01036 -0.46900
O 	O 	0.98917 0.95215 0.95239 -0.79100
C 	C 	0.96619 0.05726 0.97954 0.36700
O 	O 	0.98157 0.06429 0.01654 -0.47800
H 	H 	0.97994 0.99586 0.89951 0.14400
Zn	Zn	0.08606 0.08504 0.49677 1.18700
C 	C 	0.12693 0.06110 0.46150 0.28600
C 	C 	0.08357 0.14404 0.46180 0.35700
O 	O 	0.13615 0.08623 0.49595 -0.45300
O 	O 	0.08514 0.02921 0.43208 -0.34400
O 	O 	0.09736 0.14150 0.49553 -0.45100
Zn	Zn	0.88779 0.92156 0.41688 1.17600
Zn	Zn	0.96656 0.94296 0.48957 1.18700
C 	C 	0.88584 0.85213 0.44179 0.31600
C 	C 	0.86736 0.94995 0.47079 0.35100
O 	O 	0.92813 0.01573 0.43740 -0.46400
Zn	Zn	0.97395 0.02563 0.51941 1.20400
O 	O 	0.92859 0.88030 0.47273 -0.44200
O 	O 	0.86400 0.86254 0.41497 -0.45100
O 	O 	0.85503 0.93993 0.43373 -0.48800
O 	O 	0.90915 0.96393 0.49916 -0.44900
O 	O 	0.94424 0.93663 0.43291 -0.79700
C 	C 	0.92835 0.04620 0.46197 0.36500
O 	O 	0.94621 0.05493 0.49968 -0.47400
H 	H 	0.93499 0.98034 0.37847 0.15200
C 	C 	0.97746 0.97084 0.71294 -0.07900
H 	H 	0.94898 0.97296 0.71118 0.04300
C 	C 	0.02577 0.05328 0.74508 -0.07600
H 	H 	0.99828 0.05706 0.74400 0.05100
C 	C 	0.02183 0.04841 0.70566 -0.08000
H 	H 	0.99246 0.04993 0.68579 0.05400
C 	C 	0.97353 0.96596 0.67351 -0.08600
H 	H 	0.94315 0.96573 0.65294 0.05700
C 	C 	0.99289 0.01648 0.18564 -0.06300
H 	H 	0.95930 0.99550 0.15591 0.04200
H 	H 	0.00773 0.05043 0.18956 0.04900
H 	H 	0.96851 0.92929 0.15094 0.05500
C 	C 	0.99580 0.95218 0.21500 -0.06900
H 	H 	0.95953 0.93010 0.20146 0.04600
C 	C 	0.98684 0.01707 0.21980 -0.06000
H 	H 	0.95039 0.99633 0.20638 0.04000
H 	H 	0.99886 0.05128 0.24004 0.05100
C 	C 	0.10356 0.68768 0.46421 -0.15300
C 	C 	0.07689 0.69852 0.43749 0.23000
C 	C 	0.09656 0.74029 0.44070 -0.13500
C 	C 	0.14230 0.77216 0.47143 0.06300
C 	C 	0.16877 0.76128 0.49787 -0.09100
C 	C 	0.14962 0.71923 0.49407 0.06000
H 	H 	0.07601 0.74828 0.41987 0.09800
H 	H 	0.17058 0.71125 0.51456 0.02700
H 	H 	0.20405 0.78559 0.52174 0.05700
C 	C 	0.33212 0.93563 0.47798 -0.15900
C 	C 	0.33285 0.91446 0.50198 0.22500
C 	C 	0.29707 0.89844 0.50549 -0.13800
C 	C 	0.25925 0.90082 0.48354 0.06500
C 	C 	0.25841 0.92131 0.45942 -0.09200
C 	C 	0.29495 0.93942 0.45743 0.06100
H 	H 	0.29824 0.88316 0.52456 0.08700
H 	H 	0.29383 0.95543 0.43891 0.02600
Cl	Cl	0.37621 0.90463 0.52538 -0.34700
H 	H 	0.22915 0.92273 0.44176 0.07300
C 	C 	0.12785 0.90038 0.47239 -0.05200
C 	C 	0.10476 0.89608 0.43346 0.16000
C 	C 	0.06668 0.92830 0.45045 -0.06300
C 	C 	0.09051 0.93366 0.48958 -0.01200
C 	C 	0.12092 0.91963 0.50048 -0.02500
H 	H 	0.13855 0.92309 0.53049 0.03600
Cl	Cl	0.11207 0.87144 0.39720 -0.33500
H 	H 	0.08474 0.94771 0.51121 0.02000
C 	C 	0.15052 0.70858 0.99148 -0.14500
C 	C 	0.19796 0.73625 0.01690 0.22800
C 	C 	0.21849 0.77958 0.02347 -0.13500
C 	C 	0.19219 0.79492 0.00343 0.06400
C 	C 	0.14519 0.76636 0.97634 -0.08700
C 	C 	0.12451 0.72372 0.97080 0.06400
H 	H 	0.25482 0.80113 0.04389 0.09000
Cl	Cl	0.23210 0.71622 0.03829 -0.33100
H 	H 	0.12462 0.77738 0.95978 0.06100
C 	C 	0.36524 0.94198 0.98467 -0.15500
C 	C 	0.32527 0.89988 0.95628 0.22800
C 	C 	0.29105 0.88589 0.96190 -0.13900
C 	C 	0.29650 0.91272 0.99605 0.06600
C 	C 	0.33604 0.95444 0.02420 -0.09200
C 	C 	0.37019 0.96898 0.01853 0.04600
H 	H 	0.26048 0.85371 0.94000 0.09300
H 	H 	0.40065 0.00119 0.04061 0.02900
Cl	Cl	0.31835 0.86308 0.91485 -0.35600
H 	H 	0.34057 0.97539 0.05072 0.05400
C 	C 	0.11365 0.94865 0.98133 -0.17100
C 	C 	0.12659 0.88864 0.97774 -0.13800
C 	C 	0.17338 0.91880 0.00212 0.06100
C 	C 	0.19013 0.96418 0.01781 -0.09200
C 	C 	0.16039 0.97900 0.00704 0.04700
H 	H 	0.11317 0.85357 0.96548 0.08900
H 	H 	0.17368 0.01390 0.01749 0.02400
H 	H 	0.22610 0.98789 0.03758 0.05200
C 	C 	0.40176 0.56497 0.44555 -0.17200
C 	C 	0.42114 0.61088 0.46417 0.23500
C 	C 	0.39360 0.62814 0.45529 -0.13400
C 	C 	0.34676 0.59992 0.42679 0.06200
C 	C 	0.32802 0.55446 0.40548 -0.09300
C 	C 	0.35538 0.53703 0.41504 0.06300
H 	H 	0.40846 0.66334 0.47147 0.09500
H 	H 	0.34023 0.50167 0.40012 0.01300
Cl	Cl	0.47997 0.64712 0.49874 -0.34900
H 	H 	0.29205 0.53248 0.38267 0.05800
C 	C 	0.32220 0.72226 0.42650 -0.05800
C 	C 	0.30967 0.72864 0.39238 0.16600
C 	C 	0.32982 0.77125 0.39743 -0.06400
C 	C 	0.36257 0.80760 0.43641 -0.04300
C 	C 	0.37389 0.80116 0.47030 -0.00900
C 	C 	0.35377 0.75875 0.46535 -0.01200
H 	H 	0.32070 0.77596 0.37109 0.07400
H 	H 	0.36339 0.75409 0.49174 0.05100
Cl	Cl	0.26905 0.68352 0.34323 -0.33600
H 	H 	0.39856 0.82901 0.50052 0.06600
C 	C 	0.22640 0.60359 0.43817 -0.06100
C 	C 	0.23977 0.61607 0.47819 0.16600
C 	C 	0.20730 0.60085 0.48567 -0.06800
C 	C 	0.16140 0.57341 0.45345 -0.04100
C 	C 	0.14836 0.56017 0.41352 -0.01900
C 	C 	0.18071 0.57525 0.40599 -0.01200
H 	H 	0.21775 0.61077 0.51653 0.08000
H 	H 	0.17020 0.56539 0.37512 0.04000
Cl	Cl	0.29703 0.65136 0.51921 -0.33300
H 	H 	0.11309 0.53909 0.38833 0.05300
C 	C 	0.44007 0.57616 0.96270 -0.17800
C 	C 	0.45992 0.62211 0.98114 0.23400
C 	C 	0.43278 0.63979 0.97273 -0.14200
C 	C 	0.38582 0.61191 0.94485 0.06500
C 	C 	0.36649 0.56632 0.92369 -0.09800
C 	C 	0.39352 0.54849 0.93276 0.06200
H 	H 	0.44806 0.67509 0.98882 0.10300
H 	H 	0.37801 0.51307 0.91800 0.01900
Cl	Cl	0.51885 0.65786 0.01531 -0.36000
H 	H 	0.33042 0.54461 0.90133 0.05600
C 	C 	0.36630 0.73662 0.94589 -0.05400
C 	C 	0.40041 0.77343 0.98454 0.16800
C 	C 	0.42044 0.81536 0.98843 -0.06100
C 	C 	0.40705 0.82091 0.95397 -0.03600
C 	C 	0.37217 0.78431 0.91554 -0.00600
C 	C 	0.35194 0.74235 0.91155 -0.01500
H 	H 	0.44667 0.84358 0.01826 0.08600
H 	H 	0.32565 0.71417 0.88173 0.04000
Cl	Cl	0.41911 0.76725 0.02827 -0.32400
H 	H 	0.36141 0.78820 0.88872 0.05200
C 	C 	0.20225 0.59389 0.97326 -0.14900
C 	C 	0.19376 0.60381 0.94126 0.23300
C 	C 	0.22552 0.61553 0.93267 -0.13500
C 	C 	0.26699 0.62002 0.95713 0.06500
C 	C 	0.27590 0.61117 0.98959 -0.08600
C 	C 	0.24351 0.59781 0.99739 0.06500
H 	H 	0.21850 0.62243 0.90765 0.09000
H 	H 	0.25051 0.59060 0.02224 0.02400
Cl	Cl	0.14528 0.60530 0.91381 -0.34200
H 	H 	0.30808 0.61512 0.00903 0.06200
C 	C 	0.80205 0.13678 0.95025 0.01900
C 	C 	0.81458 0.17602 0.94791 -0.06400
C 	C 	0.84764 0.19200 0.94122 0.07300
C 	C 	0.86732 0.16814 0.93567 -0.06800
C 	C 	0.85698 0.13032 0.94035 0.01700
C 	C 	0.82342 0.11403 0.94660 -0.05400
H 	H 	0.79976 0.19486 0.95266 0.07100
H 	H 	0.89298 0.18069 0.93055 0.06100
H 	H 	0.81498 0.08458 0.94988 0.05000
C 	C 	0.75993 0.12067 0.42984 0.08800
C 	C 	0.77090 0.15959 0.42706 -0.09100
C 	C 	0.80504 0.17760 0.42197 0.09200
C 	C 	0.82703 0.15574 0.41812 -0.07600
C 	C 	0.81725 0.11756 0.42226 0.03200
C 	C 	0.78304 0.09967 0.42742 -0.07400
H 	H 	0.75411 0.17667 0.43036 0.07500
H 	H 	0.85345 0.16976 0.41417 0.07000
H 	H 	0.77582 0.07066 0.43139 0.06600
C 	C 	0.76125 0.39643 0.00292 0.00100
C 	C 	0.74791 0.35698 0.00503 -0.04800
C 	C 	0.71361 0.34079 0.01042 0.00400
C 	C 	0.69534 0.36602 0.01686 -0.05000
C 	C 	0.70442 0.40242 0.00994 0.00200
C 	C 	0.73852 0.41839 0.00417 -0.04800
H 	H 	0.76303 0.33822 0.00102 0.05400
H 	H 	0.67087 0.35496 0.02354 0.05000
H 	H 	0.74594 0.44649 0.99883 0.04600
C 	C 	0.71996 0.38098 0.48502 0.01900
C 	C 	0.69878 0.40397 0.48873 -0.06300
C 	C 	0.65725 0.38260 0.48287 0.06800
C 	C 	0.64010 0.34045 0.47933 -0.06700
C 	C 	0.66186 0.31766 0.47723 0.01800
C 	C 	0.70133 0.33767 0.47925 -0.05300
H 	H 	0.71281 0.43728 0.49309 0.06100
H 	H 	0.60876 0.32462 0.47628 0.06100
H 	H 	0.71675 0.31925 0.47528 0.05400
Zn	Zn	0.62797 0.60186 0.01839 1.18900
Zn	Zn	0.55116 0.56839 0.93341 1.19800
O 	O 	0.54899 0.49874 0.86937 -0.45900
O 	O 	0.52860 0.54972 0.87444 -0.42400
O 	O 	0.55383 0.44284 0.92369 -0.47500
C 	C 	0.66837 0.57969 0.98161 0.34300
O 	O 	0.51229 0.50731 0.91865 -0.87400
C 	C 	0.62791 0.66422 0.98681 0.36500
O 	O 	0.67774 0.60342 0.01657 -0.44500
O 	O 	0.62680 0.54743 0.95218 -0.35500
O 	O 	0.56686 0.57377 0.98858 -0.76100
O 	O 	0.58751 0.49892 0.98576 -0.45600
O 	O 	0.59433 0.63061 0.95016 -0.43000
O 	O 	0.64020 0.65926 0.01929 -0.43200
Zn	Zn	0.43102 0.43354 0.93220 1.18100
Zn	Zn	0.50882 0.45614 0.00783 1.19000
Zn	Zn	0.52783 0.51282 0.97059 1.21900
C 	C 	0.43041 0.36479 0.95828 0.31200
C 	C 	0.40268 0.45724 0.98031 0.35100
O 	O 	0.46831 0.52848 0.95581 -0.47000
Zn	Zn	0.50931 0.53522 0.03648 1.20300
O 	O 	0.47338 0.39270 0.98858 -0.43600
O 	O 	0.40877 0.37445 0.93060 -0.42700
O 	O 	0.39370 0.44872 0.94439 -0.46000
O 	O 	0.44337 0.47030 0.01036 -0.46700
C 	C 	0.53227 0.50297 0.09316 0.33200
O 	O 	0.48917 0.45215 0.95239 -0.78800
C 	C 	0.46619 0.55726 0.97954 0.36900
O 	O 	0.52654 0.46963 0.06591 -0.42500
O 	O 	0.53457 0.53752 0.08876 -0.46400
O 	O 	0.48157 0.56429 0.01654 -0.48100
O 	O 	0.54174 0.51756 0.02204 -0.89100
Zn	Zn	0.52983 0.47199 0.89826 1.19200
C 	C 	0.53423 0.52153 0.85433 0.32900
C 	C 	0.58286 0.46316 0.96311 0.36200
H 	H 	0.57423 0.53325 0.04396 0.17200
H 	H 	0.47994 0.49586 0.89951 0.15200
Zn	Zn	0.58606 0.58504 0.49677 1.18700
Zn	Zn	0.50973 0.54821 0.40998 1.20000
O 	O 	0.50468 0.47238 0.34866 -0.47200
O 	O 	0.48968 0.52712 0.35163 -0.42800
O 	O 	0.49647 0.41619 0.39998 -0.48800
C 	C 	0.62693 0.56110 0.46150 0.28600
O 	O 	0.46670 0.48888 0.39595 -0.86800
C 	C 	0.58357 0.64404 0.46180 0.35700
O 	O 	0.63615 0.58623 0.49595 -0.45400
O 	O 	0.58514 0.52922 0.43208 -0.34700
O 	O 	0.52491 0.55610 0.46559 -0.76400
O 	O 	0.54092 0.47778 0.46097 -0.43900
O 	O 	0.55760 0.60802 0.42635 -0.43200
O 	O 	0.59736 0.64150 0.49553 -0.45100
Zn	Zn	0.38779 0.42156 0.41688 1.17700
Zn	Zn	0.46656 0.44296 0.48957 1.18800
Zn	Zn	0.48466 0.49618 0.44912 1.21800
C 	C 	0.38584 0.35213 0.44179 0.31600
C 	C 	0.36736 0.44995 0.47079 0.35200
O 	O 	0.42813 0.51573 0.43740 -0.46800
Zn	Zn	0.47395 0.52563 0.51941 1.20300
O 	O 	0.42859 0.38029 0.47273 -0.44100
O 	O 	0.36400 0.36254 0.41497 -0.45100
O 	O 	0.35503 0.43993 0.43373 -0.48600
O 	O 	0.40915 0.46393 0.49916 -0.44600
C 	C 	0.50125 0.49638 0.57817 0.33600
O 	O 	0.44424 0.43663 0.43291 -0.79600
C 	C 	0.42835 0.54620 0.46197 0.36500
O 	O 	0.49032 0.46025 0.54955 -0.41700
O 	O 	0.50298 0.53030 0.57265 -0.46200
O 	O 	0.44621 0.55492 0.49968 -0.47600
O 	O 	0.50154 0.50313 0.50164 -0.89500
Zn	Zn	0.47711 0.44680 0.37352 1.18800
C 	C 	0.49704 0.49865 0.33442 0.32100
C 	C 	0.53210 0.43971 0.43759 0.30000
H 	H 	0.53425 0.51742 0.52212 0.16600
H 	H 	0.43499 0.48034 0.37847 0.15300
C 	C 	0.55774 0.50343 0.71193 -0.07700
C 	C 	0.51631 0.50423 0.68320 0.02800
C 	C 	0.47746 0.47084 0.71294 -0.07600
C 	C 	0.52302 0.51252 0.75030 0.02700
C 	C 	0.56170 0.50832 0.75140 -0.07700
H 	H 	0.55463 0.47197 0.69672 0.04800
H 	H 	0.58905 0.53069 0.71953 0.04600
C 	C 	0.51225 0.49992 0.64569 0.03600
H 	H 	0.44898 0.47296 0.71118 0.04500
H 	H 	0.47455 0.44094 0.71580 0.04500
C 	C 	0.52673 0.51694 0.78770 0.03400
H 	H 	0.56054 0.47920 0.75505 0.04900
H 	H 	0.59491 0.53790 0.77785 0.05400
C 	C 	0.52577 0.55328 0.74508 -0.07700
H 	H 	0.55827 0.58375 0.77142 0.05500
H 	H 	0.49828 0.55706 0.74400 0.04900
C 	C 	0.52183 0.54841 0.70566 -0.07700
H 	H 	0.49247 0.54992 0.68579 0.05100
H 	H 	0.55243 0.57661 0.71318 0.04900
C 	C 	0.47353 0.46596 0.67351 -0.07800
H 	H 	0.44315 0.46573 0.65294 0.05700
H 	H 	0.46877 0.43376 0.65756 0.05500
C 	C 	0.50791 0.49751 0.61487 -0.09300
C 	C 	0.52993 0.51970 0.81820 -0.09500
C 	C 	0.56384 0.52936 0.26234 -0.07600
C 	C 	0.51335 0.49973 0.24436 0.02600
C 	C 	0.49289 0.51648 0.18564 -0.07700
C 	C 	0.52368 0.49876 0.18618 0.02700
C 	C 	0.56991 0.52877 0.22811 -0.07800
H 	H 	0.57740 0.56381 0.28343 0.05300
H 	H 	0.58377 0.51762 0.28013 0.05000
C 	C 	0.50740 0.50017 0.27672 0.03200
H 	H 	0.45930 0.49550 0.15591 0.04900
H 	H 	0.50772 0.55043 0.18956 0.05000
C 	C 	0.52886 0.49859 0.15346 0.03500
H 	H 	0.58637 0.56295 0.23288 0.05500
H 	H 	0.59270 0.51671 0.22952 0.05300
C 	C 	0.50187 0.45160 0.18079 -0.07800
H 	H 	0.52335 0.43807 0.18128 0.05500
H 	H 	0.46851 0.42929 0.15094 0.05500
C 	C 	0.49580 0.45218 0.21500 -0.07600
H 	H 	0.45953 0.43010 0.20146 0.04800
H 	H 	0.51436 0.43886 0.23181 0.05000
C 	C 	0.48684 0.51707 0.21980 -0.07700
H 	H 	0.45039 0.49633 0.20638 0.04800
H 	H 	0.49886 0.55128 0.24004 0.05300
C 	C 	0.50247 0.49995 0.30306 -0.10400
C 	C 	0.53146 0.49971 0.12614 -0.10000
C 	C 	0.60356 0.18768 0.46421 -0.15300
C 	C 	0.57689 0.19852 0.43749 0.23000
C 	C 	0.59656 0.24029 0.44070 -0.13400
C 	C 	0.64230 0.27216 0.47143 0.06300
C 	C 	0.66877 0.26128 0.49787 -0.09100
C 	C 	0.64962 0.21923 0.49407 0.06000
H 	H 	0.57601 0.24828 0.41987 0.09900
H 	H 	0.67058 0.21125 0.51456 0.02800
Cl	Cl	0.51833 0.16136 0.40166 -0.33900
H 	H 	0.70405 0.28559 0.52174 0.05700
C 	C 	0.83212 0.43563 0.47798 -0.15800
C 	C 	0.83285 0.41446 0.50198 0.22500
C 	C 	0.79707 0.39844 0.50549 -0.13800
C 	C 	0.75925 0.40082 0.48354 0.06500
C 	C 	0.75841 0.42131 0.45942 -0.09100
C 	C 	0.79495 0.43942 0.45743 0.06100
H 	H 	0.79824 0.38316 0.52456 0.08700
H 	H 	0.79383 0.45543 0.43891 0.02800
Cl	Cl	0.87621 0.40463 0.52538 -0.34700
H 	H 	0.72915 0.42273 0.44176 0.07400
C 	C 	0.62785 0.40038 0.47239 -0.05200
C 	C 	0.60476 0.39608 0.43346 0.16000
C 	C 	0.57467 0.41034 0.42281 -0.05800
C 	C 	0.56668 0.42830 0.45045 -0.06200
C 	C 	0.59051 0.43366 0.48958 -0.01200
C 	C 	0.62092 0.41963 0.50048 -0.02400
H 	H 	0.55707 0.40698 0.39282 0.07000
H 	H 	0.63855 0.42309 0.53049 0.03700
Cl	Cl	0.61207 0.37144 0.39720 -0.33400
H 	H 	0.58474 0.44771 0.51121 0.02100
C 	C 	0.65052 0.20858 0.99148 -0.14600
C 	C 	0.69796 0.23625 0.01690 0.22900
C 	C 	0.71849 0.27958 0.02347 -0.13500
C 	C 	0.69219 0.29492 0.00343 0.06500
C 	C 	0.64519 0.26637 0.97634 -0.08900
C 	C 	0.62451 0.22372 0.97080 0.06500
H 	H 	0.75482 0.30113 0.04389 0.09100
H 	H 	0.58814 0.20255 0.95070 0.03200
Cl	Cl	0.73210 0.21621 0.03829 -0.33000
H 	H 	0.62462 0.27738 0.95978 0.06100
C 	C 	0.86524 0.44198 0.98467 -0.15900
C 	C 	0.82527 0.39988 0.95628 0.23000
C 	C 	0.79105 0.38589 0.96190 -0.14000
C 	C 	0.79649 0.41272 0.99605 0.06600
C 	C 	0.83604 0.45444 0.02420 -0.09500
C 	C 	0.87019 0.46898 0.01853 0.05800
H 	H 	0.76048 0.35371 0.94000 0.09300
H 	H 	0.90065 0.50118 0.04061 0.02000
Cl	Cl	0.81835 0.36308 0.91485 -0.35600
H 	H 	0.84057 0.47539 0.05072 0.05600
C 	C 	0.61365 0.44865 0.98133 -0.17500
C 	C 	0.59694 0.40350 0.96860 0.23000
C 	C 	0.62659 0.38864 0.97774 -0.14100
C 	C 	0.67338 0.41880 0.00212 0.06500
C 	C 	0.69013 0.46418 0.01781 -0.09700
C 	C 	0.66039 0.47899 0.00704 0.06000
H 	H 	0.61317 0.35357 0.96548 0.09000
H 	H 	0.67368 0.51390 0.01749 0.01600
Cl	Cl	0.53891 0.36524 0.94198 -0.35700
H 	H 	0.72610 0.48789 0.03758 0.05500
C 	C 	0.90176 0.06497 0.44555 -0.17100
C 	C 	0.92114 0.11088 0.46417 0.23500
C 	C 	0.89360 0.12814 0.45529 -0.13400
C 	C 	0.84676 0.09992 0.42679 0.06300
C 	C 	0.82802 0.05446 0.40548 -0.09200
C 	C 	0.85538 0.03703 0.41504 0.06300
H 	H 	0.90846 0.16334 0.47147 0.09600
H 	H 	0.84023 0.00167 0.40012 0.01500
Cl	Cl	0.97997 0.14712 0.49874 -0.34800
H 	H 	0.79205 0.03248 0.38267 0.05900
C 	C 	0.82220 0.22226 0.42650 -0.05800
C 	C 	0.80967 0.22864 0.39238 0.16600
C 	C 	0.82982 0.27125 0.39743 -0.06400
C 	C 	0.86257 0.30760 0.43641 -0.04300
C 	C 	0.87389 0.30116 0.47030 -0.00900
C 	C 	0.85377 0.25875 0.46535 -0.01200
H 	H 	0.82069 0.27596 0.37109 0.07400
H 	H 	0.86339 0.25409 0.49174 0.05100
Cl	Cl	0.76905 0.18352 0.34323 -0.33500
H 	H 	0.89856 0.32901 0.50052 0.06600
C 	C 	0.72640 0.10359 0.43817 -0.06100
C 	C 	0.73977 0.11607 0.47819 0.16700
C 	C 	0.70730 0.10085 0.48567 -0.06800
C 	C 	0.66140 0.07341 0.45345 -0.04000
C 	C 	0.64836 0.06017 0.41352 -0.01900
C 	C 	0.68071 0.07526 0.40599 -0.01100
H 	H 	0.71775 0.11077 0.51653 0.08100
H 	H 	0.67020 0.06539 0.37512 0.04100
Cl	Cl	0.79704 0.15136 0.51921 -0.33200
H 	H 	0.61309 0.03909 0.38833 0.05500
C 	C 	0.94007 0.07616 0.96270 -0.17700
C 	C 	0.95992 0.12211 0.98114 0.23400
C 	C 	0.93278 0.13979 0.97273 -0.14100
C 	C 	0.88582 0.11192 0.94485 0.06500
C 	C 	0.86650 0.06632 0.92369 -0.09700
C 	C 	0.89352 0.04849 0.93276 0.06200
H 	H 	0.94806 0.17509 0.98882 0.10300
H 	H 	0.87801 0.01307 0.91800 0.02100
Cl	Cl	0.01885 0.15786 0.01531 -0.35900
H 	H 	0.83042 0.04461 0.90133 0.05700
C 	C 	0.86630 0.23662 0.94589 -0.05300
C 	C 	0.90041 0.27343 0.98454 0.16700
C 	C 	0.92044 0.31535 0.98843 -0.06200
C 	C 	0.90705 0.32091 0.95397 -0.03600
C 	C 	0.87217 0.28432 0.91554 -0.00600
C 	C 	0.85194 0.24235 0.91155 -0.01500
H 	H 	0.94667 0.34358 0.01826 0.08700
H 	H 	0.82565 0.21417 0.88173 0.04000
Cl	Cl	0.91911 0.26725 0.02827 -0.32200
H 	H 	0.86141 0.28820 0.88872 0.05200
C 	C 	0.70225 0.09389 0.97326 -0.14800
C 	C 	0.69376 0.10381 0.94126 0.23300
C 	C 	0.72552 0.11553 0.93267 -0.13500
C 	C 	0.76699 0.12002 0.95713 0.06500
C 	C 	0.77590 0.11117 0.98959 -0.08600
C 	C 	0.74351 0.09781 0.99739 0.06400
H 	H 	0.71850 0.12243 0.90765 0.09000
H 	H 	0.75051 0.09060 0.02224 0.02600
Cl	Cl	0.64528 0.10530 0.91381 -0.34100
H 	H 	0.80808 0.11513 0.00903 0.06300
C 	C 	0.80205 0.63678 0.95025 0.01900
C 	C 	0.81458 0.67602 0.94791 -0.06400
C 	C 	0.84764 0.69200 0.94122 0.07200
C 	C 	0.86732 0.66814 0.93567 -0.06800
C 	C 	0.85698 0.63032 0.94035 0.01600
C 	C 	0.82342 0.61403 0.94660 -0.05400
H 	H 	0.79976 0.69486 0.95266 0.07100
H 	H 	0.89298 0.68069 0.93055 0.06100
H 	H 	0.81498 0.58458 0.94988 0.04900
C 	C 	0.75993 0.62067 0.42984 0.08800
C 	C 	0.77090 0.65959 0.42706 -0.09100
C 	C 	0.80504 0.67760 0.42197 0.09100
C 	C 	0.82703 0.65573 0.41812 -0.07600
C 	C 	0.81725 0.61756 0.42226 0.03200
C 	C 	0.78304 0.59967 0.42742 -0.07500
H 	H 	0.75411 0.67667 0.43036 0.07500
H 	H 	0.85345 0.66976 0.41417 0.06900
H 	H 	0.77582 0.57066 0.43139 0.06500
C 	C 	0.76125 0.89643 0.00292 0.00200
C 	C 	0.74791 0.85698 0.00503 -0.04900
C 	C 	0.71361 0.84079 0.01042 0.00400
C 	C 	0.69534 0.86602 0.01686 -0.05000
C 	C 	0.70442 0.90241 0.00994 0.00200
C 	C 	0.73852 0.91839 0.00417 -0.05000
H 	H 	0.76303 0.83822 0.00102 0.05400
H 	H 	0.67087 0.85496 0.02354 0.05000
H 	H 	0.74594 0.94649 0.99883 0.04600
C 	C 	0.71996 0.88098 0.48502 0.01800
C 	C 	0.69878 0.90397 0.48873 -0.06300
C 	C 	0.65725 0.88260 0.48287 0.06800
C 	C 	0.64010 0.84045 0.47933 -0.06700
C 	C 	0.66186 0.81766 0.47723 0.01800
C 	C 	0.70133 0.83767 0.47925 -0.05300
H 	H 	0.71281 0.93728 0.49309 0.06000
H 	H 	0.60876 0.82461 0.47628 0.06100
H 	H 	0.71675 0.81925 0.47528 0.05400
Zn	Zn	0.62797 0.10186 0.01839 1.19000
Zn	Zn	0.55116 0.06839 0.93341 1.19900
O 	O 	0.54899 0.99874 0.86937 -0.46700
O 	O 	0.52860 0.04972 0.87444 -0.42400
O 	O 	0.55383 0.94284 0.92369 -0.47600
C 	C 	0.66837 0.07969 0.98161 0.34300
O 	O 	0.51229 0.00731 0.91865 -0.86500
C 	C 	0.62791 0.16423 0.98681 0.36500
O 	O 	0.67774 0.10342 0.01657 -0.44400
O 	O 	0.62680 0.04743 0.95218 -0.35200
O 	O 	0.56686 0.07377 0.98858 -0.76100
O 	O 	0.58751 0.99892 0.98576 -0.46000
O 	O 	0.59433 0.13061 0.95016 -0.43000
O 	O 	0.64020 0.15926 0.01929 -0.43100
Zn	Zn	0.43102 0.93354 0.93220 1.18000
Zn	Zn	0.50883 0.95614 0.00783 1.18900
Zn	Zn	0.52783 0.01282 0.97059 1.22000
C 	C 	0.43041 0.86479 0.95828 0.31200
C 	C 	0.40268 0.95724 0.98031 0.34900
O 	O 	0.46831 0.02848 0.95581 -0.46700
Zn	Zn	0.50931 0.03522 0.03648 1.20400
O 	O 	0.47338 0.89270 0.98858 -0.43600
O 	O 	0.40877 0.87445 0.93060 -0.42700
O 	O 	0.39370 0.94872 0.94439 -0.46200
O 	O 	0.44337 0.97030 0.01036 -0.47000
C 	C 	0.53227 0.00297 0.09316 0.35100
O 	O 	0.48917 0.95215 0.95239 -0.79100
C 	C 	0.46619 0.05726 0.97954 0.36800
O 	O 	0.52654 0.96963 0.06591 -0.43400
O 	O 	0.53457 0.03752 0.08876 -0.46600
O 	O 	0.48157 0.06429 0.01654 -0.47900
O 	O 	0.54174 0.01756 0.02204 -0.88800
Zn	Zn	0.52983 0.97199 0.89826 1.19000
C 	C 	0.53423 0.02153 0.85433 0.33800
C 	C 	0.58286 0.96316 0.96311 0.36000
H 	H 	0.57423 0.03325 0.04396 0.17300
H 	H 	0.47994 0.99586 0.89951 0.14400
Zn	Zn	0.58606 0.08504 0.49677 1.18800
Zn	Zn	0.50973 0.04821 0.40998 1.20100
O 	O 	0.50468 0.97238 0.34866 -0.47400
O 	O 	0.48968 0.02712 0.35163 -0.42200
O 	O 	0.49647 0.91619 0.39998 -0.48800
C 	C 	0.62693 0.06110 0.46150 0.28600
O 	O 	0.46670 0.98888 0.39595 -0.87100
C 	C 	0.58357 0.14404 0.46180 0.35700
O 	O 	0.63615 0.08623 0.49595 -0.45300
O 	O 	0.58514 0.02921 0.43208 -0.34300
O 	O 	0.52491 0.05610 0.46559 -0.76100
O 	O 	0.54092 0.97778 0.46097 -0.44200
O 	O 	0.55760 0.10802 0.42635 -0.43200
O 	O 	0.59736 0.14150 0.49553 -0.45000
Zn	Zn	0.38779 0.92156 0.41688 1.17600
Zn	Zn	0.46656 0.94296 0.48957 1.18700
Zn	Zn	0.48466 0.99618 0.44912 1.21600
C 	C 	0.38584 0.85213 0.44179 0.31600
C 	C 	0.36736 0.94995 0.47079 0.35100
O 	O 	0.42813 0.01573 0.43740 -0.46500
Zn	Zn	0.47394 0.02563 0.51941 1.20400
O 	O 	0.42859 0.88030 0.47273 -0.44200
O 	O 	0.36400 0.86254 0.41497 -0.45100
O 	O 	0.35503 0.93993 0.43373 -0.48800
O 	O 	0.40915 0.96393 0.49916 -0.44900
C 	C 	0.50125 0.99638 0.57817 0.32500
O 	O 	0.44424 0.93663 0.43291 -0.79700
C 	C 	0.42835 0.04620 0.46197 0.36500
O 	O 	0.49032 0.96025 0.54955 -0.41600
O 	O 	0.50298 0.03030 0.57265 -0.45400
O 	O 	0.44621 0.05493 0.49968 -0.47400
O 	O 	0.50154 0.00313 0.50164 -0.89000
Zn	Zn	0.47711 0.94680 0.37352 1.18700
C 	C 	0.49704 0.99865 0.33442 0.32100
C 	C 	0.53210 0.93971 0.43759 0.30000
H 	H 	0.53425 0.01742 0.52212 0.16700
H 	H 	0.43499 0.98034 0.37847 0.15200
C 	C 	0.55774 0.00343 0.71193 -0.07400
C 	C 	0.51631 0.00423 0.68320 0.04100
C 	C 	0.47746 0.97084 0.71294 -0.07900
C 	C 	0.52302 0.01252 0.75030 0.02900
C 	C 	0.56170 0.00832 0.75140 -0.07000
H 	H 	0.55463 0.97197 0.69672 0.04400
H 	H 	0.58905 0.03069 0.71953 0.04700
C 	C 	0.51225 0.99992 0.64569 0.02300
H 	H 	0.44898 0.97296 0.71118 0.04300
H 	H 	0.47455 0.94094 0.71580 0.04400
C 	C 	0.52673 0.01694 0.78770 0.03700
H 	H 	0.56054 0.97920 0.75505 0.04300
H 	H 	0.59491 0.03790 0.77785 0.05300
C 	C 	0.52577 0.05328 0.74508 -0.07600
H 	H 	0.55827 0.08375 0.77142 0.05400
H 	H 	0.49828 0.05706 0.74400 0.05100
C 	C 	0.52183 0.04841 0.70566 -0.08000
H 	H 	0.49247 0.04993 0.68579 0.05400
H 	H 	0.55243 0.07660 0.71318 0.05000
C 	C 	0.47353 0.96596 0.67351 -0.08600
H 	H 	0.44315 0.96573 0.65294 0.05700
H 	H 	0.46877 0.93375 0.65756 0.05700
C 	C 	0.50791 0.99751 0.61487 -0.08700
C 	C 	0.52993 0.01970 0.81820 -0.09600
C 	C 	0.56384 0.02935 0.26234 -0.06500
C 	C 	0.51335 0.99973 0.24436 -0.00000
C 	C 	0.49289 0.01648 0.18564 -0.06500
C 	C 	0.52368 0.99876 0.18618 0.01400
C 	C 	0.56991 0.02877 0.22811 -0.07200
H 	H 	0.57740 0.06381 0.28343 0.05100
H 	H 	0.58377 0.01762 0.28013 0.04900
C 	C 	0.50740 0.00017 0.27672 0.06000
H 	H 	0.45930 0.99550 0.15591 0.04200
H 	H 	0.50772 0.05043 0.18956 0.05000
C 	C 	0.52886 0.99859 0.15346 0.04200
H 	H 	0.58637 0.06295 0.23288 0.05400
H 	H 	0.59270 0.01671 0.22952 0.05400
C 	C 	0.50187 0.95160 0.18079 -0.07700
H 	H 	0.52335 0.93807 0.18128 0.05300
H 	H 	0.46851 0.92929 0.15094 0.05400
C 	C 	0.49580 0.95218 0.21500 -0.07000
H 	H 	0.45953 0.93010 0.20146 0.04600
H 	H 	0.51436 0.93886 0.23181 0.04700
C 	C 	0.48684 0.01707 0.21980 -0.06000
H 	H 	0.45039 0.99633 0.20638 0.04000
H 	H 	0.49886 0.05128 0.24004 0.05000
C 	C 	0.50247 0.99995 0.30306 -0.12500
C 	C 	0.53146 0.99971 0.12614 -0.11500
C 	C 	0.60356 0.68768 0.46421 -0.15300
C 	C 	0.57689 0.69852 0.43749 0.23000
C 	C 	0.59656 0.74029 0.44070 -0.13500
C 	C 	0.64230 0.77216 0.47143 0.06300
C 	C 	0.66877 0.76128 0.49787 -0.09100
C 	C 	0.64962 0.71923 0.49407 0.06000
H 	H 	0.57601 0.74828 0.41987 0.09800
H 	H 	0.67058 0.71125 0.51456 0.02700
Cl	Cl	0.51833 0.66136 0.40166 -0.34000
H 	H 	0.70405 0.78559 0.52174 0.05700
C 	C 	0.83212 0.93563 0.47798 -0.15900
C 	C 	0.83285 0.91446 0.50198 0.22500
C 	C 	0.79707 0.89844 0.50549 -0.13800
C 	C 	0.75925 0.90082 0.48354 0.06500
C 	C 	0.75841 0.92131 0.45942 -0.09200
C 	C 	0.79495 0.93942 0.45743 0.06100
H 	H 	0.79824 0.88316 0.52456 0.08700
H 	H 	0.79383 0.95543 0.43891 0.02600
Cl	Cl	0.87621 0.90463 0.52538 -0.34700
H 	H 	0.72915 0.92273 0.44176 0.07300
C 	C 	0.62785 0.90038 0.47239 -0.05200
C 	C 	0.60476 0.89608 0.43346 0.16000
C 	C 	0.57467 0.91034 0.42281 -0.05800
C 	C 	0.56668 0.92830 0.45045 -0.06300
C 	C 	0.59051 0.93366 0.48958 -0.01200
C 	C 	0.62092 0.91963 0.50048 -0.02500
H 	H 	0.55707 0.90698 0.39282 0.06900
H 	H 	0.63855 0.92309 0.53049 0.03600
Cl	Cl	0.61207 0.87144 0.39720 -0.33500
H 	H 	0.58474 0.94771 0.51121 0.02000
C 	C 	0.65052 0.70858 0.99148 -0.14600
C 	C 	0.69796 0.73625 0.01690 0.22900
C 	C 	0.71849 0.77958 0.02347 -0.13500
C 	C 	0.69219 0.79492 0.00343 0.06500
C 	C 	0.64519 0.76636 0.97634 -0.08800
C 	C 	0.62451 0.72372 0.97080 0.06500
H 	H 	0.75482 0.80113 0.04389 0.09000
H 	H 	0.58814 0.70255 0.95070 0.03200
Cl	Cl	0.73210 0.71622 0.03829 -0.33100
H 	H 	0.62462 0.77738 0.95978 0.06100
C 	C 	0.86524 0.94198 0.98467 -0.15500
C 	C 	0.82527 0.89988 0.95628 0.22800
C 	C 	0.79105 0.88589 0.96190 -0.13900
C 	C 	0.79649 0.91272 0.99605 0.06400
C 	C 	0.83604 0.95444 0.02420 -0.09100
C 	C 	0.87019 0.96898 0.01853 0.04600
H 	H 	0.76048 0.85371 0.94000 0.09300
H 	H 	0.90065 0.00119 0.04061 0.02900
Cl	Cl	0.81835 0.86308 0.91485 -0.35600
H 	H 	0.84057 0.97539 0.05072 0.05400
C 	C 	0.61365 0.94865 0.98133 -0.17200
C 	C 	0.59694 0.90350 0.96860 0.22800
C 	C 	0.62659 0.88864 0.97774 -0.13900
C 	C 	0.67338 0.91880 0.00212 0.06200
C 	C 	0.69013 0.96418 0.01781 -0.09300
C 	C 	0.66039 0.97900 0.00704 0.04700
H 	H 	0.61317 0.85357 0.96548 0.08900
H 	H 	0.67368 0.01390 0.01749 0.02500
Cl	Cl	0.53891 0.86524 0.94198 -0.35700
H 	H 	0.72610 0.98789 0.03758 0.05200
C 	C 	0.90176 0.56497 0.44555 -0.17200
C 	C 	0.92114 0.61088 0.46417 0.23500
C 	C 	0.89360 0.62814 0.45529 -0.13400
C 	C 	0.84676 0.59992 0.42679 0.06200
C 	C 	0.82802 0.55446 0.40548 -0.09300
C 	C 	0.85538 0.53703 0.41504 0.06300
H 	H 	0.90846 0.66334 0.47147 0.09500
H 	H 	0.84023 0.50167 0.40012 0.01300
Cl	Cl	0.97997 0.64712 0.49874 -0.34900
H 	H 	0.79205 0.53248 0.38267 0.05800
C 	C 	0.82220 0.72226 0.42650 -0.05800
C 	C 	0.80967 0.72864 0.39238 0.16600
C 	C 	0.82982 0.77125 0.39743 -0.06400
C 	C 	0.86257 0.80760 0.43641 -0.04300
C 	C 	0.87389 0.80116 0.47030 -0.00900
C 	C 	0.85377 0.75875 0.46535 -0.01200
H 	H 	0.82069 0.77596 0.37109 0.07400
H 	H 	0.86339 0.75409 0.49174 0.05100
Cl	Cl	0.76905 0.68352 0.34323 -0.33600
H 	H 	0.89856 0.82901 0.50052 0.06600
C 	C 	0.72640 0.60359 0.43817 -0.06100
C 	C 	0.73977 0.61607 0.47819 0.16600
C 	C 	0.70730 0.60085 0.48567 -0.06800
C 	C 	0.66140 0.57341 0.45345 -0.04100
C 	C 	0.64836 0.56017 0.41352 -0.01900
C 	C 	0.68071 0.57525 0.40599 -0.01200
H 	H 	0.71775 0.61077 0.51653 0.08000
H 	H 	0.67020 0.56539 0.37512 0.04000
Cl	Cl	0.79704 0.65136 0.51921 -0.33300
H 	H 	0.61309 0.53909 0.38833 0.05300
C 	C 	0.94007 0.57616 0.96270 -0.17800
C 	C 	0.95992 0.62211 0.98114 0.23400
C 	C 	0.93278 0.63979 0.97273 -0.14200
C 	C 	0.88582 0.61191 0.94485 0.06500
C 	C 	0.86649 0.56632 0.92369 -0.09800
C 	C 	0.89352 0.54849 0.93276 0.06200
H 	H 	0.94806 0.67509 0.98882 0.10300
H 	H 	0.87801 0.51307 0.91800 0.01900
Cl	Cl	0.01885 0.65786 0.01531 -0.36000
H 	H 	0.83042 0.54461 0.90133 0.05600
C 	C 	0.86630 0.73662 0.94589 -0.05400
C 	C 	0.90041 0.77343 0.98454 0.16700
C 	C 	0.92044 0.81536 0.98843 -0.06200
C 	C 	0.90705 0.82091 0.95397 -0.03600
C 	C 	0.87217 0.78431 0.91554 -0.00600
C 	C 	0.85194 0.74235 0.91155 -0.01500
H 	H 	0.94667 0.84358 0.01826 0.08600
H 	H 	0.82565 0.71417 0.88173 0.04000
Cl	Cl	0.91911 0.76725 0.02827 -0.32300
H 	H 	0.86141 0.78820 0.88872 0.05200
C 	C 	0.70225 0.59389 0.97326 -0.14900
C 	C 	0.69376 0.60381 0.94126 0.23300
C 	C 	0.72552 0.61553 0.93267 -0.13500
C 	C 	0.76699 0.62002 0.95713 0.06500
C 	C 	0.77590 0.61117 0.98959 -0.08700
C 	C 	0.74351 0.59781 0.99739 0.06400
H 	H 	0.71850 0.62243 0.90765 0.09000
H 	H 	0.75051 0.59060 0.02224 0.02400
Cl	Cl	0.64528 0.60530 0.91381 -0.34200
H 	H 	0.80808 0.61512 0.00903 0.06300
