data_crystal

_cell_length_a 16.47708
_cell_length_b 16.37438
_cell_length_c 43.56742
_cell_angle_alpha 89.53116
_cell_angle_beta  82.24582
_cell_angle_gamma 105.73457

_symmetry_space_group_name_	'P 1'
_symmetry_space_group_name_H-M	'P 1'

loop_
_symmetry_equiv_pos_as_xyz
  x,y,z

loop_
_atom_site_label
_atom_site_type_symbol
_atom_site_fract_x
_atom_site_fract_y
_atom_site_fract_z
_atom_site_charge
C 	C 	0.45507 0.19084 0.87252 0.27600
O 	O 	0.45908 0.17997 0.90218 -0.41500
O 	O 	0.51746 0.24614 0.85514 -0.25500
O 	O 	0.39019 0.21410 0.59220 -0.24500
C 	C 	0.35408 0.13326 0.59962 0.27600
O 	O 	0.38911 0.07604 0.58705 -0.42100
Zn	Zn	0.03849 0.04063 0.77551 1.20700
P 	P 	0.06228 0.04912 0.70671 0.29000
O 	O 	0.03986 0.94799 0.71052 -0.42800
O 	O 	0.09733 0.09686 0.73632 -0.43000
O 	O 	0.14690 0.94631 0.80541 -0.23100
C 	C 	0.16620 0.02641 0.81253 0.25600
O 	O 	0.12351 0.07676 0.80321 -0.41700
Zn	Zn	0.48676 0.46858 0.36011 1.20400
Zn	Zn	0.31701 0.39168 0.40634 1.22200
P 	P 	0.47782 0.48359 0.42771 0.30500
P 	P 	0.33895 0.53301 0.36264 0.31100
C 	C 	0.39207 0.29091 0.36226 0.29300
O 	O 	0.42410 0.53389 0.34087 -0.44300
O 	O 	0.37822 0.47487 0.43208 -0.43300
O 	O 	0.35835 0.57916 0.39403 -0.42900
O 	O 	0.28433 0.43704 0.37007 -0.41400
O 	O 	0.19322 0.46329 0.43412 -0.24600
O 	O 	0.36609 0.69680 0.44224 -0.23800
O 	O 	0.37436 0.30276 0.39212 -0.44000
O 	O 	0.44004 0.35473 0.34328 -0.42600
C 	C 	0.16155 0.38073 0.43863 0.26100
O 	O 	0.20783 0.33040 0.42802 -0.41600
Zn	Zn	0.36619 0.55260 0.12170 1.20400
Zn	Zn	0.21156 0.54331 0.08611 1.21800
Zn	Zn	0.44405 0.72252 0.08351 1.22700
P 	P 	0.27959 0.68951 0.12096 0.31100
P 	P 	0.38835 0.55795 0.05658 0.30500
C 	C 	0.49264 0.83428 0.03332 0.26900
C 	C 	0.21314 0.41439 0.13458 0.29800
O 	O 	0.34147 0.65259 0.13809 -0.46500
O 	O 	0.36414 0.48900 0.08419 -0.44500
O 	O 	0.19355 0.61697 0.11897 -0.42500
O 	O 	0.46978 0.62954 0.06362 -0.44900
O 	O 	0.32540 0.72522 0.08715 -0.42300
O 	O 	0.30936 0.59476 0.05347 -0.41200
O 	O 	0.15829 0.63826 0.03772 -0.24000
O 	O 	0.44969 0.76733 0.02029 -0.24900
O 	O 	0.20437 0.42807 0.10539 -0.42600
O 	O 	0.27706 0.46387 0.14690 -0.43800
C 	C 	0.11040 0.55944 0.04052 0.27400
O 	O 	0.11973 0.50710 0.06192 -0.41700
Zn	Zn	0.05844 0.02220 0.25813 1.19200
Zn	Zn	0.11780 0.87164 0.27306 1.21800
P 	P 	0.13548 0.92133 0.20726 0.31300
C 	C 	0.02486 0.12083 0.21356 0.28900
C 	C 	0.18720 0.03731 0.29621 0.28900
O 	O 	0.15551 0.00577 0.22657 -0.45900
O 	O 	0.06887 0.92569 0.18408 -0.41700
O 	O 	0.10223 0.83962 0.23066 -0.40700
O 	O 	0.15609 0.70509 0.25520 -0.25600
O 	O 	0.20790 0.97895 0.27890 -0.41800
O 	O 	0.04122 0.12271 0.24187 -0.44900
O 	O 	0.11441 0.05358 0.29483 -0.44600
C 	C 	0.19179 0.73517 0.27933 0.28900
O 	O 	0.17851 0.80392 0.29133 -0.42500
C 	C 	0.16436 0.33307 0.15113 -0.07600
C 	C 	0.07459 0.30265 0.15293 0.02300
C 	C 	0.03037 0.22873 0.17148 -0.02900
C 	C 	0.07318 0.19205 0.19118 -0.07600
C 	C 	0.16207 0.22832 0.19098 0.01800
C 	C 	0.20721 0.29041 0.16823 -0.01600
H 	H 	0.27603 0.31295 0.16660 0.04300
C 	C 	0.20514 0.21669 0.21766 0.01300
C 	C 	0.27396 0.18083 0.21314 -0.04800
C 	C 	0.33494 0.19744 0.23332 -0.01500
C 	C 	0.32685 0.24887 0.25831 -0.03800
C 	C 	0.25441 0.27744 0.26474 -0.01800
C 	C 	0.19433 0.26307 0.24422 -0.04500
C 	C 	0.02586 0.35106 0.13775 0.00700
C 	C 	0.02232 0.43138 0.14798 -0.05700
H 	H 	0.05574 0.45856 0.16685 0.04200
H 	H 	0.28283 0.14452 0.19301 0.05000
H 	H 	0.38980 0.17266 0.22903 0.03100
H 	H 	0.14205 0.29186 0.24796 0.05000
H 	H 	0.24652 0.31326 0.28506 0.03900
H 	H 	0.37687 0.26724 0.27258 0.04500
C 	C 	0.22603 0.90184 0.18321 -0.03100
C 	C 	0.23242 0.91219 0.15062 0.01700
C 	C 	0.24759 0.84683 0.13172 -0.03100
H 	H 	0.25020 0.85334 0.10680 0.05500
C 	C 	0.25895 0.77323 0.14519 -0.03200
C 	C 	0.26399 0.76975 0.17738 0.02000
C 	C 	0.26050 0.84073 0.19475 -0.02600
H 	H 	0.26756 0.83931 0.21911 0.04300
C 	C 	0.26125 0.68926 0.19377 0.04000
C 	C 	0.33333 0.68024 0.20578 -0.04400
C 	C 	0.33033 0.60463 0.22164 -0.01600
C 	C 	0.25586 0.53736 0.22517 -0.03200
C 	C 	0.18439 0.54539 0.21270 -0.01100
C 	C 	0.18699 0.62099 0.19690 -0.03600
C 	C 	0.22586 0.99166 0.13620 0.04000
C 	C 	0.29019 0.06747 0.13728 -0.06900
C 	C 	0.28323 0.14308 0.12415 -0.01500
C 	C 	0.21244 0.14317 0.10971 -0.03500
C 	C 	0.14924 0.06737 0.10788 -0.03700
C 	C 	0.15647 0.99143 0.12065 -0.02800
H 	H 	0.33234 0.20174 0.12540 0.03200
H 	H 	0.20661 0.20194 0.09993 0.04500
H 	H 	0.09470 0.06744 0.09656 0.03400
H 	H 	0.10752 0.93282 0.11898 0.05500
H 	H 	0.34513 0.06790 0.14849 0.04500
H 	H 	0.39205 0.73102 0.20218 0.04800
H 	H 	0.38585 0.59808 0.23108 0.03500
H 	H 	0.13122 0.62701 0.18747 0.05800
H 	H 	0.12682 0.49327 0.21547 0.03200
H 	H 	0.25360 0.47895 0.23751 0.03900
C 	C 	0.34482 0.21148 0.34950 -0.07700
C 	C 	0.38407 0.17118 0.32561 0.02100
C 	C 	0.33244 0.10893 0.30906 -0.02200
H 	H 	0.36083 0.08346 0.28878 0.04400
C 	C 	0.24372 0.08260 0.31798 -0.07900
C 	C 	0.20855 0.10933 0.34621 0.03100
C 	C 	0.25846 0.17633 0.36102 -0.02600
H 	H 	0.22988 0.20162 0.38133 0.03800
C 	C 	0.12042 0.06591 0.36079 -0.00500
C 	C 	0.09438 0.97710 0.36582 -0.01300
C 	C 	0.06194 0.11309 0.36912 -0.03800
C 	C 	0.47796 0.18588 0.32051 0.01500
C 	C 	0.52069 0.17450 0.34538 -0.04700
C 	C 	0.60862 0.18515 0.34045 -0.02100
C 	C 	0.52428 0.20681 0.29064 -0.04800
H 	H 	0.64125 0.17621 0.35964 0.03300
H 	H 	0.48555 0.15616 0.36838 0.04600
H 	H 	0.13910 0.93998 0.35983 0.04000
H 	H 	0.08156 0.18149 0.36578 0.04300
C 	C 	0.28731 0.59345 0.34110 -0.02600
C 	C 	0.21369 0.55431 0.32755 0.00300
C 	C 	0.18936 0.59894 0.30446 -0.01100
H 	H 	0.13236 0.56929 0.29440 0.04000
C 	C 	0.23261 0.68394 0.29655 -0.07900
C 	C 	0.30555 0.72323 0.31026 0.03200
C 	C 	0.33119 0.67815 0.33276 -0.03600
H 	H 	0.38836 0.70790 0.34271 0.03800
C 	C 	0.35829 0.81007 0.30008 0.01800
C 	C 	0.37242 0.87388 0.32164 -0.04600
C 	C 	0.43129 0.95243 0.31309 -0.00400
C 	C 	0.47366 0.96891 0.28271 -0.02200
C 	C 	0.45817 0.90634 0.26096 -0.02300
C 	C 	0.40199 0.82651 0.26976 -0.04400
C 	C 	0.15547 0.47186 0.33969 0.03400
C 	C 	0.13867 0.40391 0.31993 -0.04900
C 	C 	0.07320 0.33027 0.32932 -0.01700
C 	C 	0.02190 0.32554 0.35793 -0.04500
C 	C 	0.03707 0.39376 0.37739 -0.01900
C 	C 	0.10435 0.46636 0.36856 -0.04400
H 	H 	0.99493 0.39164 0.39877 0.03900
H 	H 	0.11453 0.51967 0.38351 0.05800
H 	H 	0.17289 0.41046 0.29663 0.04300
H 	H 	0.33958 0.86173 0.34519 0.05000
H 	H 	0.44434 0.00027 0.33006 0.02400
H 	H 	0.39456 0.77674 0.25345 0.04400
H 	H 	0.51927 0.02971 0.27613 0.02600
C 	C 	0.47960 0.95647 0.46685 0.00600
H 	H 	0.47269 0.01807 0.45840 0.02300
C 	C 	0.40602 0.87416 0.47460 -0.01900
H 	H 	0.33838 0.86691 0.47196 0.04500
C 	C 	0.01357 0.39983 0.46344 -0.01900
H 	H 	0.02186 0.46361 0.45249 0.04400
C 	C 	0.06664 0.32615 0.49356 -0.02100
H 	H 	0.11905 0.32882 0.50742 0.03900
C 	C 	0.07807 0.34673 0.45851 -0.04800
C 	C 	0.45862 0.34352 0.47149 -0.01700
H 	H 	0.40246 0.30339 0.46207 0.03400
C 	C 	0.46119 0.36714 0.50573 -0.01700
H 	H 	0.40786 0.34571 0.52505 0.05200
C 	C 	0.14517 0.08256 0.67356 -0.03000
C 	C 	0.13305 0.05240 0.64359 0.00300
C 	C 	0.20327 0.06470 0.62020 -0.01400
H 	H 	0.19363 0.04292 0.59717 0.03900
C 	C 	0.28467 0.10895 0.62575 -0.07400
C 	C 	0.29714 0.13900 0.65543 0.02800
C 	C 	0.22731 0.12742 0.67886 -0.04200
H 	H 	0.23787 0.15004 0.70168 0.05500
C 	C 	0.38383 0.17746 0.66284 0.01200
C 	C 	0.41335 0.26564 0.66527 -0.03600
C 	C 	0.54323 0.24888 0.68140 -0.03100
C 	C 	0.51374 0.16093 0.67915 -0.02000
C 	C 	0.43539 0.12547 0.66900 -0.04400
C 	C 	0.04756 0.01566 0.63512 -0.00800
C 	C 	0.02159 0.92869 0.62968 -0.04300
C 	C 	0.00403 0.06994 0.62403 -0.03800
H 	H 	0.05755 0.88682 0.63650 0.04500
H 	H 	0.37425 0.30636 0.66034 0.05100
H 	H 	0.41383 0.05752 0.66661 0.03600
H 	H 	0.55112 0.12016 0.68559 0.03400
C 	C 	0.04844 0.64079 0.68865 -0.02800
H 	H 	0.04953 0.61330 0.73701 0.03900
H 	H 	0.11715 0.66067 0.68310 0.03700
H 	H 	0.02751 0.66453 0.64209 0.03900
C 	C 	0.05478 0.54157 0.98489 -0.01100
H 	H 	0.11569 0.57274 0.96994 0.03900
C 	C 	0.04267 0.53058 0.02047 -0.06600
C 	C 	0.46755 0.98525 0.02172 -0.00900
H 	H 	0.40883 0.97827 0.03854 0.04500
H 	H 	0.56494 0.10593 0.03846 0.03600
C 	C 	0.38958 0.47029 0.99343 -0.02200
H 	H 	0.32328 0.46272 0.98894 0.03800
C 	C 	0.43199 0.39701 0.99727 -0.02100
H 	H 	0.40131 0.32828 0.99543 0.03900
C 	C 	0.42742 0.51145 0.02187 -0.02000
C 	C 	0.05946 0.38707 0.90122 -0.03100
H 	H 	0.10544 0.36630 0.91256 0.03500
C 	C 	0.38007 0.14270 0.85881 -0.06500
C 	C 	0.29689 0.14392 0.87157 0.02000
C 	C 	0.22733 0.10318 0.85672 -0.02300
H 	H 	0.16372 0.10506 0.86638 0.04000
C 	C 	0.23959 0.06173 0.82913 -0.06200
C 	C 	0.32280 0.06009 0.81641 0.01700
C 	C 	0.39231 0.10041 0.83139 -0.02200
H 	H 	0.45618 0.09979 0.82147 0.04400
C 	C 	0.33779 0.01625 0.78746 0.01100
C 	C 	0.36790 0.94392 0.78813 -0.03000
C 	C 	0.37629 0.89895 0.76128 -0.01500
C 	C 	0.35398 0.92544 0.73379 -0.04900
C 	C 	0.32393 0.99736 0.73304 0.03000
C 	C 	0.31862 0.04447 0.75947 -0.07300
C 	C 	0.28231 0.19060 0.89973 0.01800
C 	C 	0.29558 0.27897 0.89762 -0.04800
C 	C 	0.28267 0.32310 0.92438 -0.02000
C 	C 	0.25601 0.27918 0.95323 -0.04000
C 	C 	0.24282 0.19118 0.95542 -0.02100
C 	C 	0.25566 0.14679 0.92873 -0.04500
H 	H 	0.29317 0.39127 0.92275 0.03500
H 	H 	0.24541 0.31329 0.97389 0.03600
H 	H 	0.22257 0.15737 0.97780 0.03300
H 	H 	0.24549 0.07863 0.93059 0.04500
H 	H 	0.31618 0.31332 0.87532 0.05000
H 	H 	0.38376 0.92208 0.80950 0.04800
H 	H 	0.39960 0.84327 0.76183 0.03600
H 	H 	0.29665 0.10098 0.75852 0.05400
H 	H 	0.30321 0.01561 0.71217 0.01600
H 	H 	0.35930 0.88985 0.71315 0.04500
H 	H 	0.02892 0.13809 0.62503 0.04400
H 	H 	0.10848 0.51848 0.91113 0.03700
C 	C 	0.43787 0.75661 0.43517 0.26400
O 	O 	0.50217 0.82870 0.06256 -0.42000
O 	O 	0.49690 0.73020 0.12232 -0.42500
H 	H 	0.49169 0.91881 0.23754 0.03900
H 	H 	0.39976 0.84283 0.52823 0.04000
C 	C 	0.06130 0.47290 0.90036 -0.02500
O 	O 	0.48717 0.58821 0.13035 -0.42500
H 	H 	0.00616 0.08167 0.86941 0.03000
H 	H 	0.01812 0.58006 0.25851 0.03900
H 	H 	0.42370 0.00572 0.97314 0.02300
C 	C 	0.47209 0.52186 0.97215 -0.01600
H 	H 	0.47408 0.55544 0.94971 0.04800
C 	C 	0.49341 0.30126 0.67419 -0.01600
C 	C 	0.46829 0.43889 0.02599 -0.01600
H 	H 	0.46763 0.40476 0.04820 0.04800
C 	C 	0.65435 0.20666 0.31075 -0.03900
H 	H 	0.49217 0.21293 0.27105 0.03900
C 	C 	0.61224 0.21746 0.28588 -0.02200
H 	H 	0.49038 0.51780 0.50478 0.04100
H 	H 	0.60443 0.27643 0.68885 0.03600
C 	C 	0.55308 0.05411 0.02196 -0.01700
C 	C 	0.50497 0.43607 0.46112 -0.02800
C 	C 	0.50723 0.46124 0.49498 -0.01600
Zn	Zn	0.55424 0.25114 0.91996 1.21800
O 	O 	0.55899 0.37169 0.92035 -0.41900
O 	O 	0.53493 0.18845 0.96145 -0.43500
Zn	Zn	0.50471 0.11826 0.56686 1.21800
C 	C 	0.55101 0.01354 0.51594 0.28200
O 	O 	0.49708 0.19435 0.53422 -0.41600
O 	O 	0.52413 0.01331 0.54603 -0.43400
Zn	Zn	0.47703 0.63636 0.39508 1.22000
O 	O 	0.50550 0.43071 0.39989 -0.44900
O 	O 	0.53126 0.58053 0.42235 -0.41500
O 	O 	0.49402 0.74721 0.41191 -0.41300
O 	O 	0.55104 0.66205 0.35363 -0.43700
C 	C 	0.52849 0.66972 0.13168 0.29800
H 	H 	0.54704 0.72107 0.18904 0.03900
C 	C 	0.53620 0.90523 0.44963 -0.01500
H 	H 	0.57434 0.92418 0.42642 0.04400
C 	C 	0.51306 0.94152 0.49713 -0.05700
C 	C 	0.46339 0.82378 0.45758 -0.05000
C 	C 	0.43978 0.86031 0.50529 -0.00700
C 	C 	0.49634 0.80850 0.48794 -0.01700
C 	C 	0.54562 0.32488 0.46995 -0.01400
H 	H 	0.56136 0.26847 0.45947 0.04800
C 	C 	0.59200 0.41777 0.45953 -0.01300
C 	C 	0.54833 0.34885 0.50393 -0.01900
H 	H 	0.51640 0.36935 0.67587 0.04200
H 	H 	0.52093 0.63042 0.55317 0.03400
C 	C 	0.47539 0.99915 0.98608 0.03000
C 	C 	0.56040 0.06664 0.98662 -0.09800
C 	C 	0.51711 0.91824 0.01663 -0.05100
C 	C 	0.60207 0.98578 0.01712 -0.01000
H 	H 	0.65384 0.97921 0.03002 0.04300
C 	C 	0.52444 0.93079 0.98127 -0.03100
H 	H 	0.51275 0.87918 0.96468 0.05100
C 	C 	0.51288 0.44942 0.97666 -0.02200
C 	C 	0.50817 0.56321 0.00103 -0.01300
H 	H 	0.54018 0.63180 0.00249 0.05300
C 	C 	0.54889 0.49073 0.00532 -0.01200
H 	H 	0.01006 0.22122 0.43558 0.03700
C 	C 	0.59044 0.15028 0.96965 0.30600
H 	H 	0.50321 0.74692 0.49639 0.03500
C 	C 	0.00685 0.26685 0.45411 -0.02900
H 	H 	0.70081 0.00444 0.24536 0.02200
H 	H 	0.40151 0.85439 0.60917 0.03500
H 	H 	0.61001 0.66422 0.50162 0.03900
H 	H 	0.57602 0.14366 0.74724 0.02500
C 	C 	0.58904 0.63961 0.55113 -0.01800
H 	H 	0.64765 0.23325 0.26283 0.03300
P 	P 	0.59099 0.41266 0.95127 0.30600
O 	O 	0.61045 0.34338 0.97244 -0.45500
P 	P 	0.57804 0.27549 0.52856 0.30700
O 	O 	0.57786 0.17659 0.59568 -0.44100
O 	O 	0.60591 0.31403 0.56022 -0.41600
O 	O 	0.61840 0.07218 0.50280 -0.44500
C 	C 	0.61472 0.62848 0.34512 0.29800
O 	O 	0.60215 0.54494 0.34649 -0.43300
C 	C 	0.60858 0.69419 0.14496 -0.07500
C 	C 	0.60756 0.72537 0.17483 -0.01300
C 	C 	0.68588 0.93595 0.24479 0.00100
C 	C 	0.56973 0.89069 0.48011 -0.00700
H 	H 	0.64561 0.43875 0.44027 0.04500
C 	C 	0.59509 0.44158 0.49376 -0.02200
H 	H 	0.49438 0.96408 0.63740 0.05100
C 	C 	0.60977 0.99939 0.98157 0.02500
H 	H 	0.61447 0.49802 0.01054 0.04600
H 	H 	0.55869 0.98864 0.75050 0.06700
C 	C 	0.46997 0.87068 0.60286 -0.00400
H 	H 	0.02668 0.27997 0.68677 0.03400
C 	C 	0.65390 0.88595 0.27219 -0.04100
C 	C 	0.69609 0.89748 0.21652 -0.05200
H 	H 	0.64439 0.91573 0.29396 0.04600
H 	H 	0.72237 0.21455 0.30696 0.03800
C 	C 	0.63929 0.65901 0.52207 -0.04200
O 	O 	0.65304 0.22570 0.89682 -0.42400
O 	O 	0.67212 0.18979 0.96610 -0.44400
O 	O 	0.65547 0.25280 0.50841 -0.45300
C 	C 	0.73163 0.59723 0.05124 -0.01900
C 	C 	0.71850 0.61131 0.08292 -0.04500
H 	H 	0.63706 0.89835 0.48324 0.03600
H 	H 	0.65147 0.48087 0.50326 0.04000
C 	C 	0.52249 0.93293 0.61868 -0.06900
C 	C 	0.62687 0.63298 0.57759 -0.04200
H 	H 	0.58769 0.61814 0.60004 0.05200
C 	C 	0.61685 0.11857 0.75989 0.00900
C 	C 	0.60631 0.03115 0.76206 -0.09200
C 	C 	0.63135 0.79748 0.27131 -0.01500
H 	H 	0.60201 0.75892 0.29222 0.04700
H 	H 	0.01843 0.40097 0.96727 0.03800
C 	C 	0.67911 0.80869 0.21580 0.02200
C 	C 	0.64518 0.75876 0.24332 -0.05200
C 	C 	0.00126 0.37889 0.49867 -0.01500
O 	O 	0.99754 0.92051 0.76861 -0.42600
H 	H 	0.62753 0.69010 0.24287 0.04300
C 	C 	0.71666 0.65296 0.02957 -0.03700
H 	H 	0.72742 0.64229 0.00505 0.04200
C 	C 	0.68726 0.70286 0.12598 0.02200
C 	C 	0.69062 0.68163 0.09300 0.01600
C 	C 	0.68376 0.76761 0.18568 0.01300
O 	O 	0.67180 0.49427 0.94439 -0.41900
Zn	Zn	0.68185 0.15781 0.52709 1.20800
P 	P 	0.66595 0.15289 0.59273 0.30100
O 	O 	0.67231 0.09268 0.56494 -0.45100
O 	O 	0.65580 0.45198 0.59581 -0.24400
C 	C 	0.67487 0.73692 0.07115 -0.05400
C 	C 	0.68711 0.72200 0.03954 -0.01400
H 	H 	0.67459 0.76450 0.02276 0.03700
C 	C 	0.69646 0.68381 0.32954 -0.08500
C 	C 	0.50589 0.82921 0.57898 -0.03600
H 	H 	0.46531 0.78024 0.56705 0.03900
H 	H 	0.66848 0.00600 0.96479 0.02200
H 	H 	0.68388 0.23591 0.83438 0.06300
C 	C 	0.68030 0.17385 0.77400 -0.06400
C 	C 	0.65665 0.99857 0.77944 0.05100
H 	H 	0.68677 0.24143 0.77274 0.04700
H 	H 	0.65464 0.79212 0.07864 0.04700
H 	H 	0.64683 0.93061 0.78188 0.03100
H 	H 	0.71697 0.93650 0.19521 0.06000
Zn	Zn	0.71041 0.31048 0.95569 1.20800
O 	O 	0.71182 0.39074 0.88698 -0.44300
O 	O 	0.69148 0.57608 0.87665 -0.24600
H 	H 	0.70292 0.60255 0.29126 0.04000
C 	C 	0.72450 0.76731 0.37701 0.00600
C 	C 	0.72887 0.70126 0.39708 -0.04800
C 	C 	0.72482 0.71209 0.42895 -0.01600
C 	C 	0.72115 0.79011 0.44085 -0.03700
C 	C 	0.71880 0.85661 0.42098 -0.02000
H 	H 	0.72641 0.66051 0.44434 0.03600
H 	H 	0.72147 0.79950 0.46538 0.03600
C 	C 	0.67585 0.10030 0.62791 -0.01300
C 	C 	0.66707 0.01200 0.62961 -0.04800
C 	C 	0.61131 0.95327 0.61080 0.05900
H 	H 	0.71438 0.22937 0.71135 0.03900
C 	C 	0.71708 0.84435 0.38934 -0.04300
H 	H 	0.71364 0.89584 0.37424 0.04400
H 	H 	0.72028 0.91829 0.42996 0.03500
H 	H 	0.73700 0.64224 0.38791 0.04900
H 	H 	0.71753 0.21810 0.64988 0.05600
H 	H 	0.73161 0.56871 0.09955 0.04400
H 	H 	0.75379 0.54339 0.04348 0.03400
P 	P 	0.73658 0.30431 0.89077 0.30400
Zn	Zn	0.72619 0.32546 0.56184 1.21700
C 	C 	0.73178 0.66285 0.30075 -0.00600
C 	C 	0.73822 0.75921 0.34293 0.03200
C 	C 	0.71398 0.15097 0.65044 -0.05500
C 	C 	0.70769 0.97856 0.65094 0.04700
H 	H 	0.70255 0.91108 0.65179 0.03500
C 	C 	0.71508 0.64401 0.57489 0.01800
C 	C 	0.72730 0.67113 0.51940 -0.02000
C 	C 	0.73384 0.14174 0.79037 0.03700
C 	C 	0.71913 0.05360 0.79397 -0.09900
H 	H 	0.72661 0.51954 0.81427 0.06000
H 	H 	0.75153 0.38749 0.79304 0.03600
Zn	Zn	0.76150 0.47400 0.91512 1.21700
C 	C 	0.73926 0.47875 0.59263 0.27000
O 	O 	0.74451 0.23682 0.58759 -0.42700
C 	C 	0.76362 0.73921 0.13761 -0.02300
C 	C 	0.76288 0.77310 0.16708 -0.06300
H 	H 	0.77495 0.66889 0.22761 0.04800
C 	C 	0.75805 0.11935 0.67083 0.05200
C 	C 	0.59419 0.85138 0.57038 -0.00500
C 	C 	0.64698 0.91208 0.58659 -0.05200
C 	C 	0.75145 0.24164 0.83278 -0.03900
H 	H 	0.71877 0.90749 0.85370 0.04500
C 	C 	0.01033 0.61400 0.71903 -0.04000
C 	C 	0.99775 0.64261 0.66551 -0.02900
O 	O 	0.78920 0.30864 0.91870 -0.44300
C 	C 	0.75509 0.03169 0.67104 -0.13000
C 	C 	0.78217 0.23637 0.70771 -0.04100
C 	C 	0.75485 0.63231 0.60240 0.01900
C 	C 	0.76521 0.66352 0.54570 -0.04900
H 	H 	0.76613 0.68590 0.49693 0.03200
C 	C 	0.77305 0.61328 0.87599 0.27800
H 	H 	0.75377 0.02792 0.80891 0.06900
H 	H 	0.73567 0.04433 0.87928 0.04500
H 	H 	0.81076 0.34735 0.73477 0.03200
H 	H 	0.75056 0.75398 0.62012 0.04300
C 	C 	0.79684 0.28433 0.85540 -0.02700
O 	O 	0.78521 0.37950 0.98139 -0.44500
O 	O 	0.78512 0.43201 0.57845 -0.41200
O 	O 	0.76460 0.78190 0.68315 -0.24800
C 	C 	0.80779 0.71627 0.28513 -0.00300
C 	C 	0.80471 0.81993 0.32464 -0.04000
C 	C 	0.78956 0.19872 0.81001 0.02400
C 	C 	0.80477 0.43833 0.79809 -0.01200
C 	C 	0.79075 0.51282 0.81027 -0.05000
H 	H 	0.02074 0.49009 0.79275 0.02700
H 	H 	0.62172 0.82184 0.55109 0.03400
O 	O 	0.79088 0.00922 0.72150 -0.46600
C 	C 	0.81537 0.18120 0.68848 0.00400
O 	O 	0.80421 0.33106 0.52126 -0.43000
O 	O 	0.80503 0.19196 0.51739 -0.44100
H 	H 	0.82392 0.74431 0.12313 0.04900
C 	C 	0.78039 0.55798 0.60690 -0.06200
C 	C 	0.77287 0.69819 0.62296 -0.02100
H 	H 	0.79364 0.77993 0.88285 0.04300
H 	H 	0.99812 0.42481 0.51710 0.04500
H 	H 	0.80204 0.57031 0.70898 0.04800
C 	C 	0.80078 0.99505 0.69198 0.35000
C 	C 	0.83017 0.65278 0.23392 -0.04400
C 	C 	0.83681 0.30465 0.72025 -0.01600
H 	H 	0.71534 0.92815 0.58005 0.05400
O 	O 	0.81700 0.58290 0.89393 -0.41600
H 	H 	0.83447 0.87965 0.33428 0.05400
C 	C 	0.81606 0.68232 0.85278 -0.06900
C 	C 	0.78191 0.94621 0.85638 -0.02400
C 	C 	0.83976 0.79957 0.29556 -0.02300
C 	C 	0.81509 0.76551 0.85939 -0.00900
C 	C 	0.79119 0.02293 0.87124 -0.03800
H 	H 	0.84789 0.58462 0.19259 0.04000
C 	C 	0.84500 0.80973 0.17857 0.27600
H 	H 	0.89209 0.56944 0.74966 0.03800
C 	C 	0.87078 0.58965 0.70316 -0.04400
H 	H 	0.88728 0.95170 0.39602 0.03500
H 	H 	0.83336 0.67221 0.54341 0.04700
H 	H 	0.89183 0.46145 0.86236 0.03500
C 	C 	0.84859 0.44217 0.96839 0.29400
O 	O 	0.85748 0.46058 0.93826 -0.42900
C 	C 	0.84535 0.27317 0.51382 0.29600
C 	C 	0.83108 0.75856 0.67030 0.28200
O 	O 	0.85814 0.96700 0.77802 -0.42900
O 	O 	0.85948 0.84185 0.74336 -0.41400
O 	O 	0.86288 0.96256 0.68012 -0.42200
O 	O 	0.86268 0.88638 0.18917 -0.41200
O 	O 	0.90465 0.76993 0.17460 -0.24700
H 	H 	0.89789 0.33348 0.08150 0.03400
C 	C 	0.85955 0.67843 0.26206 0.03600
C 	C 	0.87059 0.60403 0.21431 -0.00500
C 	C 	0.90374 0.19972 0.68003 -0.05200
H 	H 	0.85225 0.92487 0.59237 0.03600
C 	C 	0.82067 0.69288 0.64686 -0.06900
C 	C 	0.85507 0.62307 0.64887 0.02300
C 	C 	0.83395 0.55563 0.62909 -0.02400
H 	H 	0.85561 0.49952 0.63209 0.04700
H 	H 	0.84845 0.43516 0.03696 0.03900
C 	C 	0.87792 0.20503 0.80828 -0.08000
C 	C 	0.88593 0.29597 0.85249 0.00300
C 	C 	0.86513 0.81038 0.80500 -0.02400
C 	C 	0.84249 0.83067 0.83603 0.00400
C 	C 	0.84727 0.66428 0.82263 0.02800
C 	C 	0.86932 0.72769 0.79887 -0.03300
H 	H 	0.89136 0.71287 0.77555 0.05400
C 	C 	0.85999 0.58020 0.81573 0.01500
C 	C 	0.88769 0.43051 0.79152 -0.04700
C 	C 	0.85388 0.91908 0.84525 0.02100
H 	H 	0.89856 0.37370 0.78142 0.04700
H 	H 	0.93608 0.83066 0.60780 0.04300
Zn	Zn	0.89409 0.04271 0.74000 1.19600
H 	H 	0.89590 0.47715 0.09850 0.03800
C 	C 	0.87192 0.07147 0.87604 -0.02400
P 	P 	0.89599 0.88860 0.77290 0.30400
C 	C 	0.92158 0.58863 0.72621 -0.01700
H 	H 	0.93315 0.10839 0.38824 0.03400
C 	C 	0.90649 0.95019 0.60430 -0.01100
C 	C 	0.95212 0.98342 0.38621 -0.00900
H 	H 	0.98980 0.86759 0.38155 0.04600
C 	C 	0.90867 0.61748 0.67279 0.01500
O 	O 	0.93668 0.96815 0.27316 -0.42500
C 	C 	0.91994 0.15432 0.78701 0.30500
O 	O 	0.90729 0.79726 0.67698 -0.41200
O 	O 	0.90895 0.15237 0.75788 -0.44500
P 	P 	0.93686 0.87208 0.27579 0.30300
C 	C 	0.93934 0.57925 0.22292 -0.03500
C 	C 	0.92880 0.65331 0.27059 -0.04900
C 	C 	0.93000 0.29915 0.49432 -0.06500
C 	C 	0.92491 0.31950 0.71314 -0.03400
C 	C 	0.92058 0.47709 0.98611 -0.05800
C 	C 	0.90888 0.46634 0.02173 -0.01800
C 	C 	0.92557 0.25612 0.82884 -0.01100
H 	H 	0.87877 0.13008 0.88798 0.04400
H 	H 	0.88882 0.31682 0.44554 0.03300
H 	H 	0.89728 0.07866 0.60183 0.04400
Zn	Zn	0.92336 0.89304 0.70399 1.21500
H 	H 	0.92970 0.16374 0.66273 0.06100
C 	C 	0.93176 0.44187 0.10955 -0.03200
C 	C 	0.93349 0.36115 0.09978 -0.02000
H 	H 	0.95032 0.67022 0.29270 0.04800
H 	H 	0.98509 0.18191 0.50058 0.03800
C 	C 	0.93968 0.35498 0.87208 0.02500
C 	C 	0.93988 0.44075 0.87236 -0.04400
C 	C 	0.93190 0.03680 0.60964 -0.02800
O 	O 	0.95250 0.84334 0.24130 -0.42700
H 	H 	0.94440 0.60588 0.03970 0.03700
C 	C 	0.94304 0.57133 0.80973 -0.05500
C 	C 	0.93484 0.96803 0.85027 -0.04100
C 	C 	0.97805 0.07183 0.38181 -0.03500
H 	H 	0.06065 0.27786 0.31405 0.03500
C 	C 	0.95667 0.49650 0.79767 -0.00900
C 	C 	0.95269 0.89667 0.61355 -0.02000
O 	O 	0.95435 0.09900 0.79867 -0.43300
C 	C 	0.96765 0.60285 0.25121 -0.00100
C 	C 	0.96104 0.55986 0.02311 -0.00900
C 	C 	0.94370 0.04406 0.86561 -0.01700
C 	C 	0.94142 0.31957 0.45931 0.00000
H 	H 	0.96970 0.54045 0.20793 0.04100
C 	C 	0.01012 0.93608 0.37817 -0.03600
H 	H 	0.96322 0.62454 0.97384 0.03900
Zn	Zn	0.96619 0.92936 0.20723 1.21700
C 	C 	0.95841 0.26723 0.69294 -0.00200
H 	H 	0.96205 0.20380 0.17222 0.05100
C 	C 	0.97187 0.57032 0.98725 -0.00900
O 	O 	0.96606 0.05558 0.20518 -0.42800
H 	H 	0.96718 0.37254 0.72277 0.04200
H 	H 	0.96959 0.26952 0.36481 0.04100
H 	H 	0.98292 0.25397 0.10566 0.04300
C 	C 	0.98109 0.31606 0.11360 -0.03600
C 	C 	0.97613 0.47694 0.13363 -0.01900
H 	H 	0.97443 0.53927 0.14128 0.04100
O 	O 	0.97923 0.07540 0.70214 -0.43800
C 	C 	0.99409 0.24566 0.48951 0.00400
C 	C 	0.99123 0.43747 0.01923 0.00700
O 	O 	0.01021 0.86840 0.29617 -0.45400
H 	H 	0.00004 0.38272 0.03226 0.03200
H 	H 	0.99373 0.26440 0.82657 0.04000
H 	H 	0.99035 0.94574 0.84320 0.04800
H 	H 	0.00218 0.56598 0.88573 0.04300
C 	C 	0.99873 0.32808 0.88724 -0.03200
C 	C 	0.00221 0.44787 0.98349 -0.02300
C 	C 	0.00162 0.49973 0.88592 -0.02400
H 	H 	0.99697 0.62315 0.81366 0.05200
H 	H 	0.99903 0.26202 0.88743 0.04300
