data_crystal

_cell_length_a 26.83744
_cell_length_b 26.42610
_cell_length_c 69.20599
_cell_angle_alpha 89.74443
_cell_angle_beta  89.77764
_cell_angle_gamma 119.44130

_symmetry_space_group_name_	'P 1'
_symmetry_space_group_name_H-M	'P 1'

loop_
_symmetry_equiv_pos_as_xyz
  x,y,z

loop_
_atom_site_label
_atom_site_type_symbol
_atom_site_fract_x
_atom_site_fract_y
_atom_site_fract_z
_atom_site_charge
H 	H 	0.00381 0.00326 0.76528 0.15300
O 	O 	0.01840 0.09922 0.76741 -0.39600
C 	C 	0.01356 0.60325 0.48809 -0.03600
C 	C 	0.02113 0.52392 0.00044 -0.03600
O 	O 	0.02751 0.13603 0.22509 -0.37900
H 	H 	0.02524 0.56145 0.45415 0.04800
H 	H 	0.02159 0.15788 0.33319 0.04300
H 	H 	0.02924 0.50362 0.03804 0.04900
C 	C 	0.03344 0.13881 0.30395 0.00300
Ni	Ni	0.03031 0.94778 0.74783 1.11100
C 	C 	0.01253 0.86136 0.19769 0.01200
H 	H 	0.00983 0.79566 0.30718 0.04400
C 	C 	0.01824 0.86897 0.29083 0.00300
Ni	Ni	0.04674 0.07706 0.74374 1.11800
C 	C 	0.04863 0.12859 0.26905 0.27800
C 	C 	0.03604 0.95384 0.26992 0.28200
C 	C 	0.05150 0.16940 0.32123 -0.06100
C 	C 	0.03571 0.95180 0.21572 0.30200
H 	H 	0.08811 0.75589 0.19821 0.03800
C 	C 	0.03048 0.82713 0.18777 -0.07300
C 	C 	0.06531 0.62450 0.47681 0.04600
H 	H 	0.14125 0.33143 0.32270 0.03900
C 	C 	0.05772 0.12567 0.21238 0.30600
H 	H 	0.04177 0.08138 0.17630 0.03500
C 	C 	0.03866 0.83990 0.30254 -0.06100
C 	C 	0.06518 0.59545 0.45990 -0.07400
C 	C 	0.07062 0.15543 0.28794 -0.07900
C 	C 	0.05228 0.91891 0.20254 -0.08700
C 	C 	0.06392 0.54460 0.03277 -0.07400
C 	C 	0.06354 0.56285 0.01378 0.04600
C 	C 	0.05544 0.92599 0.28440 -0.07600
O 	O 	0.06972 0.05665 0.71832 -0.39300
O 	O 	0.06716 0.01110 0.26730 -0.38900
Ni	Ni	0.06862 0.05094 0.24234 1.11800
C 	C 	0.06300 0.12843 0.17642 0.01700
H 	H 	0.07722 0.30090 0.14680 0.03800
O 	O 	0.07259 0.08593 0.21577 -0.38600
C 	C 	0.07443 0.15823 0.19401 -0.09000
O 	O 	0.08293 0.99042 0.77086 -0.37700
O 	O 	0.07267 0.98561 0.22874 -0.38700
O 	O 	0.08409 0.12579 0.25612 -0.37600
H 	H 	0.12628 0.69673 0.18351 0.03900
C 	C 	0.10587 0.76596 0.18371 -0.03800
H 	H 	0.06810 0.13578 0.14541 0.04500
C 	C 	0.07799 0.15926 0.15891 -0.06700
C 	C 	0.13820 0.31377 0.33709 -0.03900
H 	H 	0.16131 0.39483 0.35092 0.03900
H 	H 	0.10484 0.77363 0.29720 0.03900
C 	C 	0.08819 0.85015 0.18255 0.03000
C 	C 	0.10710 0.21659 0.32275 0.02400
H 	H 	0.08565 0.04830 0.67964 0.03300
H 	H 	0.09074 0.38795 0.38224 0.04600
C 	C 	0.10136 0.21909 0.19398 0.01600
H 	H 	0.09892 0.65406 0.13285 0.04700
H 	H 	0.11056 0.24248 0.20749 0.03300
C 	C 	0.12762 0.73259 0.17542 -0.03900
O 	O 	0.10249 0.99846 0.73071 -0.37500
C 	C 	0.10476 0.29491 0.13668 -0.03800
C 	C 	0.10373 0.03433 0.71726 0.30500
H 	H 	0.11761 0.69157 0.49707 0.04900
C 	C 	0.11716 0.66876 0.48404 -0.07400
C 	C 	0.14880 0.34948 0.35308 -0.03800
C 	C 	0.10532 0.22025 0.15886 0.02700
C 	C 	0.12270 0.25515 0.33964 0.00100
O 	O 	0.11752 0.08278 0.75735 -0.37700
C 	C 	0.11680 0.60796 0.45096 0.02200
H 	H 	0.11440 0.36464 0.11816 0.04000
C 	C 	0.10800 0.81291 0.17341 -0.00200
H 	H 	0.11635 0.58381 0.43828 0.03400
C 	C 	0.10775 0.61669 0.00729 -0.07400
H 	H 	0.10715 0.63170 0.99274 0.04900
C 	C 	0.11092 0.57733 0.04462 0.02400
C 	C 	0.11889 0.04724 0.77092 0.28700
C 	C 	0.10949 0.94265 0.19648 0.01900
C 	C 	0.09632 0.86766 0.30805 0.02400
H 	H 	0.11265 0.56089 0.05883 0.03100
C 	C 	0.11724 0.25000 0.17651 -0.06700
H 	H 	0.11345 0.36160 0.08000 0.04600
C 	C 	0.12737 0.20034 0.28983 0.01100
C 	C 	0.12081 0.78833 0.31162 -0.03900
C 	C 	0.12522 0.33055 0.12028 -0.03800
C 	C 	0.12141 0.25308 0.14036 -0.00000
C 	C 	0.11272 0.95437 0.29054 0.01100
H 	H 	0.11718 0.70776 0.37169 0.04700
C 	C 	0.12737 0.90838 0.18658 -0.06800
H 	H 	0.13890 0.29706 0.17668 0.04600
C 	C 	0.14558 0.23070 0.30720 -0.06400
C 	C 	0.12966 0.06024 0.68267 0.01700
H 	H 	0.14574 0.72315 0.31599 0.03900
H 	H 	0.13131 0.47358 0.40346 0.03200
C 	C 	0.11869 0.83607 0.31955 0.00100
C 	C 	0.12800 0.39779 0.39087 -0.06800
C 	C 	0.14402 0.66867 0.13476 -0.06800
H 	H 	0.14037 0.98724 0.19986 0.03300
C 	C 	0.11818 0.23262 0.35839 -0.03900
H 	H 	0.14695 0.61635 0.11159 0.03400
C 	C 	0.14342 0.32684 0.37184 -0.00100
C 	C 	0.14422 0.75992 0.32222 -0.03800
C 	C 	0.13299 0.92529 0.30226 -0.06300
H 	H 	0.15958 0.13453 0.79709 0.02800
H 	H 	0.15671 0.21315 0.27767 0.03600
C 	C 	0.14530 0.05189 0.70125 -0.09200
C 	C 	0.15150 0.74592 0.15680 -0.00100
H 	H 	0.14202 0.99829 0.28574 0.03600
H 	H 	0.10629 0.18741 0.36051 0.03800
C 	C 	0.12837 0.26832 0.37444 -0.03800
C 	C 	0.13127 0.82569 0.15469 -0.03800
C 	C 	0.15476 0.64955 0.01917 0.02100
C 	C 	0.15582 0.24475 0.12682 -0.03800
C 	C 	0.15081 0.44613 0.40295 0.01800
C 	C 	0.15803 0.62820 0.03745 -0.09500
C 	C 	0.16889 0.68162 0.47502 0.02100
C 	C 	0.15977 0.38614 0.08003 -0.06600
C 	C 	0.16896 0.64985 0.45881 -0.09200
C 	C 	0.16171 0.32402 0.10714 0.00000
H 	H 	0.16336 0.45510 0.06237 0.03100
C 	C 	0.17126 0.64734 0.12272 0.01800
H 	H 	0.15863 0.09260 0.65389 0.04600
C 	C 	0.17051 0.06815 0.78271 -0.08200
H 	H 	0.16246 0.66776 0.39325 0.03600
C 	C 	0.15621 0.36534 0.38863 0.02700
C 	C 	0.15967 0.71502 0.36831 -0.06700
C 	C 	0.17589 0.71212 0.14819 0.02700
H 	H 	0.17193 0.92666 0.18243 0.04700
C 	C 	0.13989 0.85496 0.33819 -0.03900
H 	H 	0.12448 0.25055 0.38885 0.03800
H 	H 	0.16867 0.21235 0.12942 0.03800
H 	H 	0.18892 0.26651 0.30834 0.04500
C 	C 	0.15294 0.79233 0.14642 -0.03800
C 	C 	0.17102 0.08554 0.66810 -0.06800
C 	C 	0.18487 0.11288 0.79607 0.01200
H 	H 	0.13296 0.86175 0.14662 0.03900
C 	C 	0.17538 0.27965 0.11019 -0.03900
H 	H 	0.13849 0.89178 0.34442 0.03900
C 	C 	0.16550 0.77893 0.34084 -0.00100
C 	C 	0.18811 0.43879 0.06981 0.01800
H 	H 	0.17751 0.94715 0.30652 0.04600
C 	C 	0.19102 0.36806 0.09168 0.02700
C 	C 	0.18537 0.69240 0.38053 0.01700
C 	C 	0.16316 0.82649 0.34879 -0.03800
H 	H 	0.19061 0.68912 0.01356 0.03200
H 	H 	0.19332 0.00646 0.77102 0.03000
H 	H 	0.02999 0.16213 0.79717 0.03000
H 	H 	0.20889 0.71424 0.48117 0.03400
C 	C 	0.18952 0.74867 0.35216 0.02700
C 	C 	0.20230 0.06675 0.70489 0.01600
C 	C 	0.20366 0.04053 0.78149 0.01600
H 	H 	0.20269 0.27349 0.10002 0.03800
H 	H 	0.17128 0.80279 0.13200 0.03900
C 	C 	0.20147 0.46179 0.41307 -0.09300
H 	H 	0.21490 0.06062 0.71918 0.03400
C 	C 	0.21412 0.64846 0.04627 0.31300
C 	C 	0.20289 0.37697 0.40048 -0.06800
C 	C 	0.22299 0.65555 0.45147 0.31000
H 	H 	0.17951 0.84145 0.36316 0.03900
C 	C 	0.23097 0.12850 0.80859 -0.06600
C 	C 	0.23063 0.66968 0.12395 -0.09400
C 	C 	0.23388 0.72965 0.15090 -0.06800
O 	O 	0.22706 0.60845 0.44902 -0.38900
H 	H 	0.24125 0.16238 0.81913 0.04500
C 	C 	0.22847 0.10296 0.67198 0.02700
O 	O 	0.23574 0.61360 0.04632 -0.39400
H 	H 	0.22428 0.35144 0.39918 0.04600
C 	C 	0.22519 0.42484 0.41278 0.01700
C 	C 	0.23593 0.52151 0.41996 0.30900
O 	O 	0.24799 0.67021 0.09003 -0.39000
C 	C 	0.24378 0.09238 0.69032 -0.06800
O 	O 	0.24498 0.70300 0.05162 -0.38600
C 	C 	0.24778 0.47317 0.07097 -0.09000
C 	C 	0.24131 0.70340 0.37675 -0.09100
C 	C 	0.24964 0.05614 0.79393 -0.06700
C 	C 	0.25107 0.39868 0.09068 -0.06600
H 	H 	0.25858 0.76251 0.16149 0.04700
C 	C 	0.26118 0.70833 0.13885 0.01800
C 	C 	0.26171 0.66300 0.10752 0.30900
O 	O 	0.25081 0.56411 0.40758 -0.38200
C 	C 	0.24416 0.75702 0.34775 -0.06700
H 	H 	0.25568 0.20597 0.65485 0.03800
C 	C 	0.26301 0.09956 0.80772 0.02600
O 	O 	0.26397 0.69550 0.40979 -0.38900
O 	O 	0.26837 0.70741 0.44973 -0.38800
H 	H 	0.26927 0.03022 0.83547 0.03800
O 	O 	0.26301 0.53078 0.43647 -0.37900
C 	C 	0.27407 0.53622 0.06839 0.30800
H 	H 	0.26370 0.43590 0.42085 0.03600
C 	C 	0.27197 0.68902 0.39149 0.30800
C 	C 	0.27283 0.13429 0.65708 -0.00100
H 	H 	0.27587 0.38464 0.09922 0.04600
H 	H 	0.27467 0.03421 0.79296 0.04600
O 	O 	0.27940 0.56766 0.08357 -0.37900
C 	C 	0.27927 0.45068 0.08018 0.01700
C 	C 	0.26998 0.73443 0.35999 0.01600
H 	H 	0.26737 0.78267 0.33523 0.04700
C 	C 	0.28132 0.18748 0.64961 -0.03800
O 	O 	0.00097 0.99844 0.75115 -0.72000
H 	H 	0.28799 0.10541 0.69343 0.04600
O 	O 	0.30174 0.56100 0.05226 -0.38000
H 	H 	0.30024 0.06991 0.65591 0.03800
Ni	Ni	0.30219 0.60933 0.44997 1.12100
H 	H 	0.30688 0.72528 0.14015 0.03600
C 	C 	0.30731 0.07257 0.83459 -0.03800
Ni	Ni	0.30695 0.72971 0.07190 1.12000
O 	O 	0.30936 0.66162 0.11049 -0.37200
C 	C 	0.30657 0.11099 0.65028 -0.03800
C 	C 	0.31028 0.11430 0.82130 -0.00100
O 	O 	0.30961 0.67342 0.38625 -0.37400
H 	H 	0.00799 0.23048 0.81435 0.03900
H 	H 	0.31313 0.74325 0.35690 0.03500
Ni	Ni	0.31954 0.64239 0.04343 1.12000
C 	C 	0.32308 0.21701 0.63541 -0.03900
H 	H 	0.32547 0.47638 0.08085 0.02700
H 	H 	0.99979 0.78242 0.18446 0.05200
O 	O 	0.99551 0.91972 0.25742 -0.37600
H 	H 	0.96823 0.84249 0.20222 0.03500
H 	H 	0.97377 0.84685 0.28652 0.04000
H 	H 	0.98999 0.10316 0.30281 0.04000
O 	O 	0.98203 0.93977 0.21645 -0.38800
C 	C 	0.59375 0.26224 0.89260 0.28600
C 	C 	0.74125 0.49361 0.92370 0.30800
C 	C 	0.74931 0.36913 0.88262 0.31000
C 	C 	0.59176 0.39724 0.93768 0.29400
C 	C 	0.79355 0.37198 0.94340 0.31200
C 	C 	0.63722 0.25413 0.95391 0.28800
Ni	Ni	0.66007 0.38885 0.90228 1.11300
Ni	Ni	0.69171 0.38408 0.94713 1.12000
Ni	Ni	0.69940 0.29733 0.91710 1.12000
O 	O 	0.59046 0.31048 0.89456 -0.37300
O 	O 	0.64348 0.26259 0.89437 -0.37600
O 	O 	0.77467 0.40912 0.94401 -0.39300
O 	O 	0.73598 0.46309 0.90831 -0.38000
O 	O 	0.71341 0.46773 0.93969 -0.37800
O 	O 	0.64313 0.23994 0.93599 -0.38500
O 	O 	0.70261 0.37248 0.87986 -0.37300
O 	O 	0.76108 0.35732 0.89980 -0.38900
O 	O 	0.67147 0.30730 0.96089 -0.38000
O 	O 	0.61229 0.41540 0.91979 -0.37200
O 	O 	0.61082 0.36960 0.94885 -0.38700
O 	O 	0.76041 0.31842 0.93747 -0.38500
O 	O 	0.66956 0.34760 0.92273 -0.71700
H 	H 	0.62938 0.31872 0.92549 0.16100
C 	C 	0.76468 0.42757 0.53417 0.28600
C 	C 	0.60715 0.18339 0.55316 0.31000
C 	C 	0.61398 0.33138 0.51802 0.30700
C 	C 	0.75581 0.27528 0.57163 0.28900
C 	C 	0.55101 0.29579 0.57862 0.31000
C 	C 	0.70169 0.40377 0.59518 0.28900
Ni	Ni	0.69480 0.29739 0.53698 1.11300
Ni	Ni	0.65064 0.28006 0.58135 1.12100
Ni	Ni	0.65230 0.38184 0.55617 1.12000
O 	O 	0.76668 0.37835 0.53335 -0.37100
O 	O 	0.71501 0.42743 0.53582 -0.37700
O 	O 	0.56913 0.25828 0.57651 -0.39400
O 	O 	0.61833 0.21969 0.53871 -0.37900
O 	O 	0.63267 0.20217 0.56984 -0.38400
O 	O 	0.70271 0.42762 0.57811 -0.38600
O 	O 	0.65933 0.32536 0.51532 -0.37000
O 	O 	0.59649 0.33305 0.53555 -0.38800
O 	O 	0.66535 0.34780 0.59890 -0.38500
O 	O 	0.73740 0.26261 0.55340 -0.36900
O 	O 	0.73080 0.29296 0.58449 -0.38400
O 	O 	0.58516 0.35140 0.57485 -0.38400
O 	O 	0.67961 0.32825 0.55916 -0.71800
H 	H 	0.71887 0.35490 0.56346 0.15900
C 	C 	0.92836 0.88159 0.72311 0.30700
C 	C 	0.93543 0.89776 0.77862 0.28500
C 	C 	0.95467 0.05240 0.71600 0.30500
C 	C 	0.96314 0.08112 0.77062 0.29700
Ni	Ni	0.92103 0.96882 0.74812 1.12200
O 	O 	0.92426 0.99718 0.72088 -0.38600
O 	O 	0.98432 0.91165 0.72290 -0.37900
O 	O 	0.89911 0.88948 0.73691 -0.38000
O 	O 	0.92215 0.04014 0.75977 -0.38300
O 	O 	0.96413 0.88550 0.76540 -0.36700
O 	O 	0.91087 0.92954 0.77423 -0.37400
O 	O 	0.99056 0.09046 0.72835 -0.38600
C 	C 	0.42945 0.75194 0.40283 0.28700
C 	C 	0.38866 0.58045 0.43453 0.28700
C 	C 	0.38109 0.72848 0.46645 0.29000
Ni	Ni	0.33560 0.62740 0.40445 1.11200
Ni	Ni	0.32870 0.72760 0.42903 1.12000
O 	O 	0.41723 0.69718 0.40044 -0.37400
O 	O 	0.38888 0.76530 0.40735 -0.37700
O 	O 	0.38742 0.75748 0.45002 -0.38700
O 	O 	0.33656 0.67542 0.46948 -0.38200
O 	O 	0.36378 0.57328 0.41729 -0.37200
O 	O 	0.37234 0.59948 0.44978 -0.38000
O 	O 	0.33610 0.65992 0.42845 -0.71900
H 	H 	0.37683 0.67691 0.43178 0.15900
C 	C 	0.42242 0.63562 0.05365 0.29500
C 	C 	0.41457 0.77351 0.09575 0.28600
C 	C 	0.36890 0.77069 0.03497 0.28800
Ni	Ni	0.35319 0.64526 0.08852 1.11300
O 	O 	0.40336 0.61989 0.07180 -0.37200
O 	O 	0.40173 0.66078 0.04205 -0.38800
O 	O 	0.33633 0.71650 0.02855 -0.38000
O 	O 	0.36091 0.78650 0.05238 -0.38500
O 	O 	0.42040 0.72644 0.09528 -0.37200
O 	O 	0.36335 0.76981 0.09413 -0.37600
O 	O 	0.34031 0.68191 0.06733 -0.71600
H 	H 	0.37986 0.71194 0.06429 0.15900
C 	C 	0.87581 0.97342 0.26713 0.28400
C 	C 	0.88745 0.97618 0.21147 0.30800
Ni	Ni	0.95766 0.06922 0.23940 1.11400
Ni	Ni	0.94379 0.94006 0.24137 1.12000
O 	O 	0.88058 0.01084 0.25330 -0.37200
O 	O 	0.89656 0.93722 0.26475 -0.37800
O 	O 	0.92736 0.03061 0.21289 -0.38200
O 	O 	0.87936 0.93904 0.22551 -0.38000
O 	O 	0.99572 0.11513 0.26427 -0.36600
O 	O 	0.98868 0.02111 0.24542 -0.71500
H 	H 	0.98645 0.02112 0.25962 0.15400
C 	C 	0.84421 0.95994 0.19620 -0.09000
C 	C 	0.78673 0.91892 0.20002 0.01700
C 	C 	0.74444 0.91005 0.18661 -0.06700
C 	C 	0.75920 0.94191 0.16928 0.02800
C 	C 	0.81673 0.98110 0.16507 -0.06600
C 	C 	0.85912 0.98999 0.17844 0.01700
C 	C 	0.71430 0.93464 0.15567 -0.00100
C 	C 	0.69599 0.89162 0.14149 -0.03700
C 	C 	0.64943 0.88060 0.12983 -0.03800
C 	C 	0.62081 0.91263 0.13224 0.00100
C 	C 	0.64063 0.95730 0.14592 -0.03900
C 	C 	0.68721 0.96822 0.15762 -0.03700
C 	C 	0.56665 0.89489 0.12199 0.02700
C 	C 	0.56492 0.89026 0.10178 -0.06400
C 	C 	0.51277 0.85610 0.09253 0.01400
C 	C 	0.46217 0.82672 0.10343 -0.08200
C 	C 	0.46300 0.83849 0.12321 0.01700
C 	C 	0.51518 0.87223 0.13250 -0.06500
H 	H 	0.77454 0.89542 0.21364 0.03800
H 	H 	0.70008 0.87921 0.18985 0.04700
H 	H 	0.82848 0.00527 0.15157 0.04700
H 	H 	0.90338 0.02113 0.17519 0.03600
H 	H 	0.71687 0.86569 0.13986 0.04000
H 	H 	0.63430 0.84579 0.11939 0.04100
H 	H 	0.61903 0.98245 0.14784 0.03900
H 	H 	0.70138 0.00178 0.16849 0.03900
H 	H 	0.60430 0.90934 0.09343 0.04600
H 	H 	0.51233 0.84853 0.07714 0.02700
H 	H 	0.42390 0.81706 0.13168 0.03300
H 	H 	0.51586 0.87680 0.14806 0.04600
C 	C 	0.83789 0.96436 0.28382 -0.08200
C 	C 	0.84937 0.94759 0.30180 0.01200
C 	C 	0.81162 0.93551 0.31734 -0.06500
C 	C 	0.76200 0.94001 0.31504 0.02600
C 	C 	0.75141 0.95854 0.29726 -0.06500
C 	C 	0.78920 0.97074 0.28172 0.01300
C 	C 	0.71894 0.92086 0.33072 0.00000
C 	C 	0.69090 0.86261 0.33683 -0.03800
C 	C 	0.64796 0.84353 0.35094 -0.03800
C 	C 	0.63267 0.88254 0.35913 0.00100
C 	C 	0.66133 0.94107 0.35325 -0.03900
C 	C 	0.70430 0.96016 0.33909 -0.03700
C 	C 	0.58455 0.86116 0.37305 0.02600
C 	C 	0.58540 0.83191 0.38992 -0.06400
C 	C 	0.53536 0.80013 0.40081 0.01400
C 	C 	0.48423 0.79779 0.39503 -0.08200
C 	C 	0.48475 0.83161 0.37925 0.01500
C 	C 	0.53468 0.86301 0.36824 -0.06500
H 	H 	0.88729 0.94349 0.30369 0.03400
H 	H 	0.82040 0.92171 0.33106 0.04700
H 	H 	0.71316 0.96202 0.29533 0.04600
H 	H 	0.77980 0.98361 0.26793 0.03600
H 	H 	0.70168 0.83190 0.33039 0.04000
H 	H 	0.62578 0.79817 0.35525 0.04000
H 	H 	0.64995 0.97156 0.35951 0.03900
H 	H 	0.72587 0.00528 0.33451 0.03800
H 	H 	0.62403 0.83131 0.39401 0.04600
H 	H 	0.53562 0.77486 0.41315 0.03000
H 	H 	0.44559 0.83046 0.37473 0.03500
H 	H 	0.53371 0.88603 0.35538 0.04600
C 	C 	0.57571 0.12063 0.54944 -0.09300
C 	C 	0.59609 0.08452 0.55674 0.02100
C 	C 	0.57164 0.02680 0.55072 -0.07400
C 	C 	0.52661 0.00483 0.53748 0.03900
C 	C 	0.50403 0.03977 0.53109 -0.07100
C 	C 	0.52853 0.09751 0.53702 0.02100
C 	C 	0.50784 0.94914 0.52877 -0.02000
C 	C 	0.49061 0.90287 0.52100 -0.02100
C 	C 	0.46933 0.84931 0.51061 0.04000
C 	C 	0.41346 0.80433 0.51409 -0.07000
C 	C 	0.38605 0.76042 0.50046 0.01800
C 	C 	0.41436 0.76168 0.48319 -0.08400
C 	C 	0.47239 0.80300 0.48082 0.01700
C 	C 	0.49979 0.84671 0.49451 -0.06900
H 	H 	0.63245 0.10184 0.56637 0.03400
H 	H 	0.58909 0.99990 0.55580 0.05000
H 	H 	0.46882 0.02283 0.52098 0.04900
H 	H 	0.51190 0.12471 0.53155 0.03500
H 	H 	0.38994 0.80548 0.52669 0.04900
H 	H 	0.34153 0.72813 0.50264 0.03600
H 	H 	0.49514 0.80346 0.46779 0.03100
H 	H 	0.54344 0.88074 0.49192 0.04900
C 	C 	0.81562 0.48107 0.52779 -0.08200
C 	C 	0.81492 0.50704 0.51012 0.01700
C 	C 	0.86641 0.54515 0.50080 -0.06600
C 	C 	0.91871 0.55775 0.50918 0.03400
C 	C 	0.91936 0.53689 0.52777 -0.06500
C 	C 	0.86796 0.49858 0.53704 0.01600
C 	C 	0.97003 0.58258 0.49754 -0.00700
H 	H 	0.77471 0.49441 0.50295 0.03400
H 	H 	0.86553 0.56188 0.48656 0.04900
H 	H 	0.95964 0.54730 0.53451 0.04900
H 	H 	0.86894 0.47959 0.55085 0.02900
C 	C 	0.42573 0.55466 0.43794 -0.08300
C 	C 	0.47035 0.57997 0.45138 0.01600
C 	C 	0.49841 0.55007 0.45752 -0.06800
C 	C 	0.48215 0.49468 0.45029 0.03900
C 	C 	0.44012 0.47085 0.43598 -0.06900
C 	C 	0.41207 0.50078 0.42978 0.01600
C 	C 	0.50398 0.45994 0.45906 -0.02100
C 	C 	0.52289 0.43176 0.46665 -0.02200
C 	C 	0.54452 0.39848 0.47657 0.04000
C 	C 	0.60328 0.41714 0.47628 -0.07100
C 	C 	0.62571 0.39153 0.48873 0.01900
C 	C 	0.58949 0.34747 0.50168 -0.09300
C 	C 	0.53021 0.32621 0.50096 0.02000
C 	C 	0.50784 0.35161 0.48844 -0.07100
H 	H 	0.48193 0.62190 0.45757 0.03300
H 	H 	0.53129 0.56905 0.46844 0.04900
H 	H 	0.42761 0.42824 0.43020 0.04800
H 	H 	0.37793 0.48081 0.41933 0.03400
H 	H 	0.63190 0.45307 0.46704 0.04900
H 	H 	0.67152 0.40826 0.48910 0.03600
H 	H 	0.50175 0.29178 0.51071 0.03400
H 	H 	0.46228 0.33651 0.48860 0.04900
C 	C 	0.79601 0.25691 0.57889 -0.08200
C 	C 	0.83538 0.28954 0.59327 0.01400
C 	C 	0.86223 0.26514 0.60411 -0.06400
C 	C 	0.85019 0.20797 0.60059 0.02600
C 	C 	0.81489 0.17730 0.58505 -0.06500
C 	C 	0.78793 0.20169 0.57423 0.01400
C 	C 	0.86834 0.17796 0.61461 0.00000
C 	C 	0.92654 0.20073 0.61890 -0.03800
C 	C 	0.94305 0.17741 0.63417 -0.03800
C 	C 	0.90149 0.13109 0.64524 0.00000
C 	C 	0.84354 0.10656 0.64035 -0.03800
C 	C 	0.82703 0.12991 0.62512 -0.03800
C 	C 	0.91807 0.11174 0.66292 0.02600
C 	C 	0.94168 0.14986 0.67851 -0.06500
C 	C 	0.95394 0.13066 0.69576 0.01500
C 	C 	0.94269 0.07298 0.69762 -0.08500
C 	C 	0.91990 0.03507 0.68188 0.01200
C 	C 	0.90755 0.05436 0.66463 -0.06500
H 	H 	0.84278 0.33262 0.59676 0.03300
H 	H 	0.89000 0.28952 0.61590 0.04600
H 	H 	0.80617 0.13354 0.58197 0.04600
H 	H 	0.75799 0.17616 0.56307 0.03600
H 	H 	0.95881 0.23745 0.61077 0.03900
H 	H 	0.98795 0.19628 0.63771 0.04000
H 	H 	0.81116 0.07075 0.64878 0.03900
H 	H 	0.78199 0.11204 0.62196 0.03900
H 	H 	0.94959 0.19412 0.67737 0.04700
H 	H 	0.97130 0.16037 0.70776 0.03800
H 	H 	0.91182 0.99075 0.68299 0.04000
H 	H 	0.88951 0.02466 0.65264 0.04600
C 	C 	0.49652 0.27715 0.58881 -0.09100
C 	C 	0.49525 0.30627 0.60556 0.01700
C 	C 	0.44819 0.28037 0.61813 -0.06700
C 	C 	0.40186 0.22540 0.61395 0.02700
C 	C 	0.40116 0.19856 0.59642 -0.06700
C 	C 	0.44835 0.22426 0.58393 0.01800
C 	C 	0.35685 0.19372 0.62862 -0.00000
C 	C 	0.34848 0.14064 0.63615 -0.03800
H 	H 	0.53213 0.34720 0.60945 0.03500
H 	H 	0.44888 0.30176 0.63153 0.04600
H 	H 	0.36503 0.15672 0.59285 0.04700
H 	H 	0.44857 0.20177 0.57090 0.03400
H 	H 	0.37467 0.12254 0.63111 0.03900
H 	H 	0.32921 0.25794 0.62970 0.03800
C 	C 	0.73054 0.44283 0.61144 -0.08300
C 	C 	0.70260 0.43327 0.62939 0.01500
C 	C 	0.72494 0.47600 0.64362 -0.06600
C 	C 	0.77532 0.52857 0.64001 0.02700
C 	C 	0.80524 0.53647 0.62258 -0.06500
C 	C 	0.78302 0.49372 0.60838 0.01500
C 	C 	0.79359 0.57730 0.65354 0.00000
C 	C 	0.75822 0.60164 0.65696 -0.03800
C 	C 	0.77749 0.65108 0.66842 -0.03800
C 	C 	0.83230 0.67664 0.67649 -0.00000
C 	C 	0.86719 0.65158 0.67344 -0.03800
C 	C 	0.84789 0.60206 0.66201 -0.03800
C 	C 	0.85373 0.73040 0.68773 0.02800
C 	C 	0.82895 0.72970 0.70568 -0.06700
C 	C 	0.85161 0.77990 0.71690 0.01700
C 	C 	0.89937 0.83123 0.71025 -0.09000
C 	C 	0.92259 0.83243 0.69192 0.01700
C 	C 	0.89993 0.78219 0.68074 -0.06700
H 	H 	0.66224 0.39403 0.63200 0.03500
H 	H 	0.70203 0.46917 0.65716 0.04600
H 	H 	0.84450 0.57669 0.61975 0.04700
H 	H 	0.80552 0.50107 0.59472 0.03300
H 	H 	0.71634 0.58299 0.65040 0.04000
H 	H 	0.75026 0.67012 0.67073 0.03900
H 	H 	0.90941 0.67080 0.67977 0.04000
H 	H 	0.87538 0.58342 0.65952 0.03900
H 	H 	0.79299 0.68993 0.71112 0.04700
H 	H 	0.83330 0.77832 0.73101 0.03700
H 	H 	0.95886 0.87199 0.68651 0.03700
H 	H 	0.91874 0.78329 0.66675 0.04800
C 	C 	0.84879 0.38828 0.95226 -0.09200
C 	C 	0.84993 0.36792 0.97092 0.01900
C 	C 	0.89710 0.39980 0.98283 -0.06800
C 	C 	0.94358 0.45157 0.97599 0.03600
C 	C 	0.94538 0.46796 0.95662 -0.06800
C 	C 	0.89818 0.43620 0.94475 0.02200
C 	C 	0.98580 0.49096 0.98929 -0.00800
H 	H 	0.81236 0.33039 0.97678 0.03200
H 	H 	0.89604 0.38604 0.99767 0.04900
H 	H 	0.98186 0.50713 0.95108 0.04900
H 	H 	0.89816 0.45166 0.93022 0.03300
C 	C 	0.40482 0.81707 0.02124 -0.08300
C 	C 	0.37898 0.83269 0.00652 0.01800
C 	C 	0.40875 0.88767 0.99777 -0.06800
C 	C 	0.46463 0.92703 0.00358 0.03800
C 	C 	0.49213 0.90954 0.01702 -0.06700
C 	C 	0.46240 0.85471 0.02579 0.01700
C 	C 	0.49199 0.98664 0.99696 -0.01700
C 	C 	0.51515 0.03659 0.99149 -0.02500
C 	C 	0.54275 0.09612 0.98479 0.04100
C 	C 	0.59904 0.13511 0.99030 -0.07000
C 	C 	0.62854 0.19029 0.98168 0.01900
C 	C 	0.60202 0.20649 0.96736 -0.08300
C 	C 	0.54427 0.16901 0.96300 0.01700
C 	C 	0.51479 0.11399 0.97166 -0.06900
H 	H 	0.33463 0.80395 0.00283 0.03400
H 	H 	0.38750 0.90048 0.98712 0.04900
H 	H 	0.53568 0.93931 0.02133 0.04900
H 	H 	0.48292 0.84295 0.03703 0.02700
H 	H 	0.62070 0.12194 0.00068 0.04900
H 	H 	0.67307 0.21885 0.98519 0.03400
H 	H 	0.52325 0.18118 0.95206 0.02800
H 	H 	0.47097 0.08447 0.96757 0.04800
C 	C 	0.45754 0.61312 0.04487 -0.08700
C 	C 	0.44166 0.55432 0.04744 0.01900
C 	C 	0.45952 0.52680 0.03410 -0.07000
C 	C 	0.49400 0.55813 0.01835 0.04000
C 	C 	0.51520 0.61817 0.01704 -0.07000
C 	C 	0.49732 0.64571 0.03034 0.01800
C 	C 	0.50269 0.52795 0.00258 -0.02100
C 	C 	0.51013 0.50293 0.98933 -0.02100
C 	C 	0.51962 0.47327 0.97358 0.04000
C 	C 	0.55390 0.50505 0.95784 -0.07000
C 	C 	0.57207 0.47811 0.94440 0.01900
C 	C 	0.55679 0.41941 0.94682 -0.08600
C 	C 	0.51740 0.38638 0.96140 0.01800
C 	C 	0.49923 0.41336 0.97483 -0.07000
H 	H 	0.41187 0.52887 0.05881 0.03500
H 	H 	0.44411 0.48057 0.03547 0.04900
H 	H 	0.54315 0.64298 0.00517 0.04900
H 	H 	0.51114 0.69149 0.02852 0.03300
H 	H 	0.56873 0.55119 0.95654 0.04900
H 	H 	0.60140 0.50387 0.93297 0.03400
H 	H 	0.50397 0.34065 0.96312 0.03300
H 	H 	0.47152 0.38820 0.98670 0.04900
C 	C 	0.94767 0.11684 0.78305 -0.08400
C 	C 	0.89338 0.11234 0.78141 0.01500
C 	C 	0.88109 0.15102 0.79119 -0.06500
C 	C 	0.92262 0.19445 0.80279 0.02500
C 	C 	0.97598 0.19761 0.80515 -0.05900
C 	C 	0.98843 0.15886 0.79538 0.01900
C 	C 	0.90978 0.23610 0.81263 0.00200
C 	C 	0.89642 0.27280 0.80176 -0.03900
C 	C 	0.87660 0.30653 0.81099 -0.03800
C 	C 	0.87028 0.30402 0.83115 -0.00100
C 	C 	0.88607 0.26929 0.84207 -0.03700
C 	C 	0.90574 0.23548 0.83284 -0.03800
C 	C 	0.84258 0.33352 0.84074 0.02800
C 	C 	0.78415 0.31374 0.83784 -0.06800
C 	C 	0.75424 0.33078 0.85039 0.01700
C 	C 	0.78253 0.36735 0.86598 -0.09300
C 	C 	0.84213 0.39210 0.86753 0.01900
C 	C 	0.87204 0.37518 0.85497 -0.06800
H 	H 	0.86111 0.07982 0.77220 0.03700
H 	H 	0.83937 0.14755 0.78960 0.04600
H 	H 	0.89993 0.27395 0.78614 0.04000
H 	H 	0.86489 0.33352 0.80246 0.03900
H 	H 	0.88127 0.26704 0.85765 0.04000
H 	H 	0.91596 0.20731 0.84135 0.04000
H 	H 	0.76120 0.28230 0.82666 0.04600
H 	H 	0.70835 0.31201 0.84887 0.03500
H 	H 	0.86465 0.42149 0.87925 0.03400
H 	H 	0.91746 0.39180 0.85701 0.04800
C 	C 	0.35973 0.16893 0.82026 -0.03800
C 	C 	0.40595 0.18170 0.83235 -0.03800
C 	C 	0.40312 0.13991 0.84558 0.00000
C 	C 	0.35356 0.08535 0.84669 -0.03900
C 	C 	0.45064 0.15486 0.85908 0.02600
C 	C 	0.50553 0.17113 0.85192 -0.06600
C 	C 	0.55317 0.19998 0.86387 0.01600
C 	C 	0.54613 0.21315 0.88296 -0.08200
C 	C 	0.49078 0.19026 0.89072 0.01400
C 	C 	0.44315 0.16137 0.87880 -0.06400
H 	H 	0.36252 0.20128 0.80998 0.03900
H 	H 	0.44377 0.22423 0.83158 0.04000
H 	H 	0.35083 0.05298 0.85695 0.03800
H 	H 	0.51159 0.16479 0.83682 0.04600
H 	H 	0.59572 0.21649 0.85782 0.03400
H 	H 	0.48485 0.19899 0.90559 0.02900
H 	H 	0.40079 0.14768 0.88458 0.04600
C 	C 	0.76622 0.55665 0.92141 -0.09000
C 	C 	0.82585 0.59203 0.92215 0.01900
C 	C 	0.85263 0.64487 0.91199 -0.06600
C 	C 	0.81987 0.66211 0.90079 0.02800
C 	C 	0.75992 0.63044 0.90225 -0.06600
C 	C 	0.73328 0.57828 0.91271 0.01600
C 	C 	0.84745 0.70633 0.88524 0.00000
C 	C 	0.88400 0.70102 0.87180 -0.03700
C 	C 	0.90223 0.73617 0.85525 -0.03800
C 	C 	0.88315 0.77618 0.85169 0.00100
C 	C 	0.84892 0.78357 0.86556 -0.03800
C 	C 	0.83172 0.74929 0.88236 -0.03800
C 	C 	0.89603 0.80753 0.83293 0.02600
C 	C 	0.88373 0.77652 0.81553 -0.06500
C 	C 	0.89688 0.80604 0.79780 0.01500
C 	C 	0.92144 0.86672 0.79727 -0.08000
C 	C 	0.93286 0.89771 0.81460 0.01300
C 	C 	0.92067 0.86832 0.83237 -0.06300
H 	H 	0.85173 0.57640 0.92921 0.03200
H 	H 	0.89891 0.67023 0.91170 0.04700
H 	H 	0.73395 0.64376 0.89406 0.04500
H 	H 	0.68715 0.55172 0.91229 0.02700
H 	H 	0.89647 0.66810 0.87379 0.04000
H 	H 	0.92975 0.73103 0.84489 0.04000
H 	H 	0.83426 0.81460 0.86307 0.03900
H 	H 	0.80446 0.75465 0.89278 0.03900
H 	H 	0.86392 0.72957 0.81575 0.04600
H 	H 	0.88741 0.78168 0.78449 0.03500
H 	H 	0.95190 0.94460 0.81432 0.03300
H 	H 	0.93069 0.89278 0.84567 0.04700
