data_crystal

_cell_length_a 37.44102
_cell_length_b 37.18236
_cell_length_c 31.27098
_cell_angle_alpha 88.17333
_cell_angle_beta  91.95636
_cell_angle_gamma 90.06702

_symmetry_space_group_name_	'P 1'
_symmetry_space_group_name_H-M	'P 1'

loop_
_symmetry_equiv_pos_as_xyz
  x,y,z

loop_
_atom_site_label
_atom_site_type_symbol
_atom_site_fract_x
_atom_site_fract_y
_atom_site_fract_z
_atom_site_charge
Zn	Zn	0.03147 0.02073 0.28605 1.20600
Zn	Zn	0.96320 0.96907 0.29701 1.21700
Zn	Zn	0.02034 0.01074 0.18868 1.21800
P 	P 	0.96364 0.03627 0.24341 0.30200
P 	P 	0.02714 0.94930 0.24993 0.30500
C 	C 	0.05038 0.00439 0.10711 0.27200
C 	C 	0.07721 0.05633 0.22659 0.28700
C 	C 	0.00702 0.99976 0.36857 0.30400
O 	O 	0.98567 0.04526 0.28581 -0.44100
O 	O 	0.05513 0.97892 0.26441 -0.42300
O 	O 	0.95236 0.99485 0.24333 -0.43200
O 	O 	0.00456 0.96341 0.20854 -0.42100
O 	O 	0.98660 0.04749 0.20287 -0.40900
O 	O 	0.00268 0.93691 0.28898 -0.40500
O 	O 	0.02351 0.01741 0.12760 -0.39100
O 	O 	0.95362 0.91924 0.37881 -0.21600
O 	O 	0.07479 0.98470 0.12794 -0.22200
O 	O 	0.07077 0.02723 0.20438 -0.40000
O 	O 	0.97494 0.99871 0.34924 -0.42100
O 	O 	0.06185 0.06011 0.26355 -0.41800
O 	O 	0.03572 0.00641 0.34640 -0.41800
C 	C 	0.92564 0.91747 0.35249 0.27500
O 	O 	0.92346 0.93888 0.31799 -0.39800
Zn	Zn	0.05435 0.06294 0.78033 1.20700
Zn	Zn	0.99716 0.00029 0.79251 1.22100
Zn	Zn	0.05029 0.04306 0.68426 1.21900
P 	P 	0.98669 0.05994 0.73060 0.30000
P 	P 	0.06730 0.99004 0.75472 0.30900
C 	C 	0.07089 0.01464 0.60640 0.27200
C 	C 	0.09479 0.10252 0.71926 0.29100
C 	C 	0.02676 0.04427 0.86157 0.29600
O 	O 	0.00484 0.07747 0.77143 -0.43300
O 	O 	0.08800 0.02586 0.76611 -0.43800
O 	O 	0.98474 0.01720 0.73544 -0.43200
O 	O 	0.04445 0.99552 0.71094 -0.41300
O 	O 	0.00782 0.07232 0.68910 -0.39300
O 	O 	0.04323 0.97700 0.79374 -0.40200
O 	O 	0.05607 0.04253 0.62334 -0.38900
O 	O 	0.91792 0.00310 0.79779 -0.24200
O 	O 	0.08874 0.99119 0.63107 -0.22800
O 	O 	0.09505 0.07141 0.69982 -0.41000
O 	O 	0.99760 0.03692 0.83849 -0.43000
O 	O 	0.07711 0.10561 0.75471 -0.42400
O 	O 	0.05590 0.05544 0.84277 -0.41200
C 	C 	0.92948 0.97190 0.81356 0.27500
O 	O 	0.96406 0.96579 0.81728 -0.38900
Zn	Zn	0.31855 0.17752 0.15413 1.20400
Zn	Zn	0.27200 0.24578 0.16628 1.22200
Zn	Zn	0.28613 0.18133 0.05884 1.21800
P 	P 	0.32371 0.24209 0.09901 0.31200
P 	P 	0.24063 0.17767 0.13641 0.30600
C 	C 	0.27656 0.20536 0.97276 0.26800
C 	C 	0.33846 0.12721 0.09177 0.29400
C 	C 	0.31540 0.20973 0.23463 0.29000
O 	O 	0.34185 0.22351 0.14056 -0.42900
O 	O 	0.27351 0.15153 0.14661 -0.43200
O 	O 	0.28327 0.25244 0.10702 -0.42700
O 	O 	0.24376 0.19616 0.08946 -0.41500
O 	O 	0.32576 0.21513 0.06061 -0.39500
O 	O 	0.23827 0.20690 0.17287 -0.40300
O 	O 	0.28107 0.17595 0.99699 -0.40100
O 	O 	0.28368 0.32311 0.14848 -0.22600
O 	O 	0.26711 0.23529 0.99050 -0.21600
O 	O 	0.30542 0.13235 0.07642 -0.43000
O 	O 	0.31235 0.23908 0.20997 -0.41600
O 	O 	0.35070 0.14550 0.12464 -0.41100
O 	O 	0.32005 0.17836 0.21720 -0.41800
C 	C 	0.25930 0.31916 0.17744 0.27500
O 	O 	0.25061 0.28676 0.19137 -0.39900
Zn	Zn	0.33444 0.22217 0.65317 1.20400
Zn	Zn	0.29237 0.29240 0.67342 1.22000
Zn	Zn	0.29772 0.23209 0.56088 1.22000
P 	P 	0.34216 0.28798 0.60244 0.30700
P 	P 	0.25526 0.22999 0.63907 0.30700
C 	C 	0.28717 0.25465 0.47406 0.27300
C 	C 	0.34324 0.17085 0.58844 0.29700
C 	C 	0.33280 0.24709 0.73700 0.28800
O 	O 	0.36088 0.26723 0.64224 -0.41400
O 	O 	0.28654 0.20160 0.64760 -0.43500
O 	O 	0.30300 0.30050 0.61382 -0.43200
O 	O 	0.25875 0.25049 0.59347 -0.42000
O 	O 	0.34061 0.26183 0.56283 -0.40200
O 	O 	0.25442 0.25743 0.67748 -0.39700
O 	O 	0.28909 0.22609 0.49988 -0.39000
O 	O 	0.28922 0.37009 0.64575 -0.22000
O 	O 	0.28678 0.28682 0.49026 -0.23600
O 	O 	0.31070 0.18100 0.57605 -0.42700
O 	O 	0.33213 0.27857 0.71611 -0.42600
O 	O 	0.36089 0.18829 0.61856 -0.41400
O 	O 	0.33810 0.21765 0.71594 -0.40400
C 	C 	0.27257 0.36497 0.68171 0.27200
O 	O 	0.27476 0.33358 0.70212 -0.40400
Zn	Zn	0.17222 0.75595 0.39146 1.20700
Zn	Zn	0.21799 0.69275 0.43495 1.22100
Zn	Zn	0.21868 0.74414 0.31209 1.22100
P 	P 	0.17739 0.68658 0.35369 0.30800
P 	P 	0.25097 0.75692 0.39719 0.30400
C 	C 	0.23633 0.71819 0.23222 0.27500
C 	C 	0.16264 0.79846 0.31523 0.29600
C 	C 	0.16426 0.73523 0.47816 0.29300
O 	O 	0.15278 0.70809 0.38406 -0.43100
O 	O 	0.21717 0.78259 0.39213 -0.43400
O 	O 	0.21551 0.67867 0.37612 -0.42500
O 	O 	0.25467 0.73259 0.35628 -0.42400
O 	O 	0.18072 0.70862 0.30934 -0.39400
O 	O 	0.24928 0.73341 0.44082 -0.40100
O 	O 	0.23369 0.74758 0.25398 -0.39500
O 	O 	0.22648 0.61200 0.42901 -0.21500
O 	O 	0.23817 0.68678 0.25263 -0.22400
O 	O 	0.19736 0.79348 0.31301 -0.43000
O 	O 	0.17209 0.70298 0.46445 -0.41400
O 	O 	0.14490 0.78233 0.34597 -0.41200
O 	O 	0.16055 0.76272 0.45081 -0.42100
C 	C 	0.24653 0.62539 0.45989 0.26800
O 	O 	0.23852 0.65700 0.47449 -0.39700
Zn	Zn	0.19519 0.77720 0.90150 1.20600
Zn	Zn	0.24731 0.71522 0.93476 1.22300
Zn	Zn	0.21544 0.75006 0.81017 1.22200
P 	P 	0.18619 0.70228 0.87791 0.30200
P 	P 	0.26947 0.77079 0.87276 0.30300
C 	C 	0.20516 0.75927 0.72060 0.27700
C 	C 	0.16660 0.81045 0.82465 0.29900
C 	C 	0.21106 0.76351 0.99014 0.29100
O 	O 	0.16492 0.73908 0.87875 -0.42900
O 	O 	0.24554 0.79026 0.90600 -0.42600
O 	O 	0.20220 0.69237 0.92491 -0.41700
O 	O 	0.25497 0.78071 0.82511 -0.40400
O 	O 	0.21654 0.70430 0.84322 -0.41600
O 	O 	0.27035 0.72828 0.88153 -0.42900
O 	O 	0.21157 0.73534 0.75165 -0.40300
O 	O 	0.24088 0.65457 0.00045 -0.22200
O 	O 	0.20358 0.79356 0.72919 -0.22200
O 	O 	0.16924 0.77776 0.80997 -0.41500
O 	O 	0.24227 0.75465 0.97571 -0.41700
O 	O 	0.17546 0.81659 0.86484 -0.41300
O 	O 	0.18568 0.77596 0.96348 -0.41600
C 	C 	0.27377 0.65831 0.98760 0.27100
O 	O 	0.28290 0.68795 0.96696 -0.39400
Zn	Zn	0.47286 0.89259 0.05277 1.20600
Zn	Zn	0.54189 0.93285 0.08843 1.22200
Zn	Zn	0.48942 0.93513 0.96668 1.22000
P 	P 	0.54227 0.88932 0.01225 0.31000
P 	P 	0.48093 0.97154 0.04836 0.30600
C 	C 	0.51537 0.95537 0.88577 0.27400
C 	C 	0.42945 0.88471 0.97752 0.28800
C 	C 	0.49693 0.88490 0.13934 0.29100
O 	O 	0.51779 0.86779 0.04463 -0.43200
O 	O 	0.45182 0.94050 0.04752 -0.42100
O 	O 	0.55389 0.92745 0.02991 -0.42900
O 	O 	0.50479 0.97122 0.00686 -0.42100
O 	O 	0.52156 0.89394 0.96691 -0.39200
O 	O 	0.50467 0.96845 0.09192 -0.40900
O 	O 	0.48617 0.95024 0.90721 -0.39400
O 	O 	0.62217 0.92568 0.08372 -0.21800
O 	O 	0.54654 0.95586 0.90638 -0.22800
O 	O 	0.43847 0.91872 0.97106 -0.42600
O 	O 	0.52841 0.88817 0.12189 -0.43000
O 	O 	0.44214 0.86667 0.01165 -0.40400
O 	O 	0.46768 0.88452 0.11475 -0.40600
C 	C 	0.61292 0.95002 0.11079 0.26900
O 	O 	0.58034 0.94966 0.12510 -0.40400
Zn	Zn	0.44601 0.91991 0.55930 1.20600
Zn	Zn	0.51154 0.97121 0.56819 1.22400
Zn	Zn	0.45024 0.93735 0.46016 1.22000
P 	P 	0.51114 0.91026 0.51241 0.30500
P 	P 	0.44399 0.99338 0.52513 0.30700
C 	C 	0.47042 0.93677 0.37473 0.27100
C 	C 	0.40086 0.88558 0.49887 0.29200
C 	C 	0.47714 0.93447 0.64078 0.29300
O 	O 	0.49233 0.89688 0.55463 -0.43600
O 	O 	0.41814 0.96163 0.53888 -0.42100
O 	O 	0.51963 0.95213 0.51319 -0.42400
O 	O 	0.46403 0.98405 0.48242 -0.41700
O 	O 	0.48662 0.90077 0.47158 -0.39900
O 	O 	0.47083 0.00245 0.56429 -0.40900
O 	O 	0.44242 0.93522 0.39888 -0.40000
O 	O 	0.54275 0.03560 0.52944 -0.22000
O 	O 	0.50189 0.94433 0.39201 -0.21600
O 	O 	0.40304 0.91689 0.47797 -0.41500
O 	O 	0.50681 0.93710 0.61916 -0.41200
O 	O 	0.41655 0.88105 0.53696 -0.42400
O 	O 	0.44640 0.92828 0.62064 -0.42500
C 	C 	0.56113 0.02701 0.56481 0.27200
O 	O 	0.55012 0.00043 0.58967 -0.40300
Zn	Zn	0.78210 0.69336 0.48564 1.20500
Zn	Zn	0.73632 0.76030 0.50403 1.21900
Zn	Zn	0.74955 0.70205 0.39112 1.21800
P 	P 	0.78832 0.76112 0.43511 0.30900
P 	P 	0.70418 0.69479 0.46732 0.30800
C 	C 	0.76826 0.69131 0.30460 0.27600
C 	C 	0.80177 0.64680 0.42088 0.30000
C 	C 	0.77822 0.71913 0.56927 0.29100
O 	O 	0.80612 0.73947 0.47493 -0.43100
O 	O 	0.73688 0.66815 0.47582 -0.42600
O 	O 	0.74846 0.77238 0.44548 -0.42800
O 	O 	0.70821 0.71671 0.42272 -0.42600
O 	O 	0.78858 0.73702 0.39358 -0.38900
O 	O 	0.70181 0.72142 0.50639 -0.41300
O 	O 	0.74122 0.69445 0.33008 -0.39900
O 	O 	0.73834 0.84190 0.49235 -0.23000
O 	O 	0.80111 0.69364 0.32034 -0.21000
O 	O 	0.76861 0.65262 0.40675 -0.41500
O 	O 	0.77581 0.75038 0.54815 -0.41700
O 	O 	0.81420 0.66251 0.45541 -0.42300
O 	O 	0.78371 0.68969 0.54827 -0.42300
C 	C 	0.71252 0.83073 0.51689 0.27300
O 	O 	0.71346 0.79792 0.53354 -0.39200
Zn	Zn	0.70187 0.69048 0.88188 1.20800
Zn	Zn	0.75592 0.75808 0.87310 1.22300
Zn	Zn	0.73386 0.68494 0.97779 1.21800
P 	P 	0.70248 0.75144 0.93940 0.30600
P 	P 	0.77866 0.68460 0.90116 0.31000
C 	C 	0.77174 0.66907 0.05691 0.26900
C 	C 	0.67626 0.63868 0.94286 0.28700
C 	C 	0.71189 0.72985 0.80302 0.29000
O 	O 	0.68333 0.73685 0.89738 -0.43400
O 	O 	0.74453 0.66085 0.89026 -0.43100
O 	O 	0.74342 0.76106 0.93206 -0.43200
O 	O 	0.77671 0.70021 0.94820 -0.41000
O 	O 	0.69839 0.72291 0.97827 -0.39900
O 	O 	0.78325 0.71545 0.86493 -0.40000
O 	O 	0.73977 0.67092 0.03822 -0.38700
O 	O 	0.83164 0.77301 0.89155 -0.22600
O 	O 	0.80017 0.67166 0.03352 -0.23000
O 	O 	0.70991 0.63966 0.95716 -0.42800
O 	O 	0.71597 0.75743 0.82844 -0.42600
O 	O 	0.66606 0.65870 0.90901 -0.40300
O 	O 	0.70320 0.69788 0.81914 -0.40300
C 	C 	0.81937 0.79779 0.86400 0.26900
O 	O 	0.78567 0.79682 0.85067 -0.39100
Zn	Zn	0.81250 0.25076 0.09931 1.20600
Zn	Zn	0.76362 0.18293 0.08343 1.22100
Zn	Zn	0.77746 0.25077 0.18910 1.22100
P 	P 	0.81375 0.18801 0.15680 0.30700
P 	P 	0.73453 0.25163 0.10836 0.30500
C 	C 	0.76372 0.23566 0.27510 0.27400
C 	C 	0.83206 0.30154 0.16150 0.29300
C 	C 	0.80925 0.21746 0.01913 0.29600
O 	O 	0.83367 0.20457 0.11687 -0.43000
O 	O 	0.76756 0.27746 0.10039 -0.42900
O 	O 	0.77356 0.17811 0.14401 -0.43200
O 	O 	0.73675 0.23369 0.15555 -0.41600
O 	O 	0.81571 0.21555 0.19496 -0.39400
O 	O 	0.73149 0.22252 0.07177 -0.39300
O 	O 	0.76938 0.26217 0.24750 -0.40700
O 	O 	0.69115 0.15771 0.09706 -0.21300
O 	O 	0.75559 0.20365 0.26104 -0.21600
O 	O 	0.79808 0.29830 0.17072 -0.43200
O 	O 	0.80446 0.18794 0.04305 -0.42700
O 	O 	0.84514 0.28270 0.13074 -0.40800
O 	O 	0.81553 0.24839 0.03730 -0.40800
C 	C 	0.70826 0.13342 0.07607 0.27000
O 	O 	0.73957 0.14149 0.06065 -0.40500
Zn	Zn	0.83582 0.25835 0.59434 1.20700
Zn	Zn	0.77617 0.19933 0.58069 1.22300
Zn	Zn	0.80560 0.26249 0.68678 1.22000
P 	P 	0.82856 0.19513 0.65135 0.30800
P 	P 	0.76057 0.27234 0.60762 0.30300
C 	C 	0.78714 0.24696 0.77128 0.27000
C 	C 	0.86664 0.30558 0.65511 0.29400
C 	C 	0.82518 0.22417 0.51548 0.29300
O 	O 	0.84979 0.20959 0.61137 -0.43400
O 	O 	0.79704 0.29241 0.59877 -0.42500
O 	O 	0.78681 0.19183 0.64065 -0.42400
O 	O 	0.76124 0.25378 0.65453 -0.42400
O 	O 	0.83650 0.22069 0.69055 -0.39300
O 	O 	0.75175 0.24449 0.57068 -0.40700
O 	O 	0.80072 0.27234 0.74652 -0.40100
O 	O 	0.76176 0.12319 0.60669 -0.22300
O 	O 	0.77235 0.21866 0.75384 -0.21600
O 	O 	0.83372 0.30659 0.66912 -0.41400
O 	O 	0.81704 0.19673 0.54107 -0.43000
O 	O 	0.87440 0.28427 0.62383 -0.42500
O 	O 	0.83511 0.25498 0.53174 -0.40800
C 	C 	0.74086 0.13279 0.57373 0.27200
O 	O 	0.74547 0.16421 0.55435 -0.40600
Zn	Zn	0.52652 0.41257 0.95997 1.20200
Zn	Zn	0.46701 0.46852 0.94273 1.22100
Zn	Zn	0.51411 0.42677 0.05605 1.22100
P 	P 	0.45704 0.40313 0.99460 0.30000
P 	P 	0.53109 0.48437 0.99576 0.30500
C 	C 	0.48851 0.45043 0.13337 0.27100
C 	C 	0.56682 0.37377 0.02592 0.30500
C 	C 	0.50993 0.43863 0.87412 0.29900
O 	O 	0.49178 0.38059 0.98664 -0.43200
O 	O 	0.54322 0.46200 0.95662 -0.43500
O 	O 	0.44493 0.42265 0.95027 -0.42200
O 	O 	0.54556 0.46485 0.03912 -0.40500
O 	O 	0.46502 0.43141 0.03113 -0.40500
O 	O 	0.48860 0.48830 0.99501 -0.42100
O 	O 	0.50643 0.42416 0.11686 -0.38400
O 	O 	0.38813 0.47195 0.94191 -0.21700
O 	O 	0.47439 0.47580 0.10792 -0.22700
O 	O 	0.53894 0.37911 0.04984 -0.40900
O 	O 	0.49866 0.46783 0.89251 -0.41300
O 	O 	0.56810 0.38822 0.98693 -0.42900
O 	O 	0.51760 0.40916 0.89741 -0.42500
C 	C 	0.40128 0.50348 0.93070 0.27100
O 	O 	0.43533 0.50633 0.92257 -0.40400
Zn	Zn	0.55355 0.44060 0.46325 1.20300
Zn	Zn	0.49382 0.49786 0.45334 1.21900
Zn	Zn	0.56169 0.46561 0.55649 1.21900
P 	P 	0.49355 0.43995 0.51894 0.30600
P 	P 	0.56775 0.51609 0.48314 0.30800
C 	C 	0.55551 0.49214 0.63922 0.27400
C 	C 	0.60613 0.40945 0.52055 0.29600
C 	C 	0.51790 0.45386 0.38159 0.29800
O 	O 	0.52461 0.41461 0.50477 -0.43100
O 	O 	0.56949 0.48846 0.44569 -0.44800
O 	O 	0.47248 0.45517 0.47699 -0.41400
O 	O 	0.58909 0.50030 0.52490 -0.41500
O 	O 	0.50990 0.47189 0.54635 -0.41600
O 	O 	0.52683 0.52368 0.49293 -0.39700
O 	O 	0.56696 0.46490 0.61792 -0.39200
O 	O 	0.45280 0.54574 0.50647 -0.20900
O 	O 	0.54505 0.52174 0.61839 -0.22600
O 	O 	0.58248 0.41640 0.54943 -0.41300
O 	O 	0.51219 0.48672 0.39506 -0.40800
O 	O 	0.59890 0.41706 0.47980 -0.42500
O 	O 	0.53097 0.42852 0.40811 -0.42800
C 	C 	0.44069 0.54884 0.46660 0.26900
O 	O 	0.45839 0.53371 0.43633 -0.39800
Zn	Zn	0.97093 0.52111 0.21114 1.20700
Zn	Zn	0.04301 0.47913 0.20083 1.22200
Zn	Zn	0.97725 0.49123 0.30741 1.22100
P 	P 	0.03396 0.53241 0.26604 0.30800
P 	P 	0.97934 0.44358 0.23325 0.30100
C 	C 	0.99588 0.48821 0.39530 0.26600
C 	C 	0.91960 0.53743 0.27182 0.29500
C 	C 	0.00302 0.51805 0.13151 0.29700
O 	O 	0.01399 0.54859 0.22428 -0.42800
O 	O 	0.95051 0.47363 0.22050 -0.42500
O 	O 	0.04789 0.49262 0.25937 -0.42600
O 	O 	0.99738 0.45008 0.27963 -0.41800
O 	O 	0.00778 0.53350 0.30516 -0.38900
O 	O 	0.00810 0.44116 0.19659 -0.40700
O 	O 	0.96846 0.48675 0.36801 -0.39800
O 	O 	0.11903 0.49048 0.22588 -0.22400
O 	O 	0.02830 0.48373 0.38160 -0.20800
O 	O 	0.92764 0.50482 0.28687 -0.41800
O 	O 	0.03242 0.51804 0.15600 -0.43200
O 	O 	0.93558 0.55095 0.23809 -0.42100
O 	O 	0.97171 0.52098 0.14881 -0.41400
C 	C 	0.11686 0.46808 0.19430 0.27200
O 	O 	0.08556 0.46069 0.17653 -0.40500
Zn	Zn	0.96764 0.56370 0.70498 1.20500
Zn	Zn	0.03940 0.51913 0.69750 1.22200
Zn	Zn	0.96885 0.52884 0.79938 1.22200
P 	P 	0.02860 0.57038 0.76550 0.30600
P 	P 	0.97282 0.48511 0.72269 0.30200
C 	C 	0.98215 0.50433 0.88353 0.26700
C 	C 	0.91657 0.58053 0.76628 0.29100
C 	C 	0.00392 0.56053 0.62740 0.29500
O 	O 	0.01131 0.58873 0.72319 -0.42900
O 	O 	0.94511 0.51638 0.71034 -0.43000
O 	O 	0.04219 0.53077 0.75702 -0.42100
O 	O 	0.98970 0.48949 0.76986 -0.41600
O 	O 	0.00049 0.57003 0.80280 -0.39400
O 	O 	0.00292 0.48335 0.68765 -0.39200
O 	O 	0.95740 0.51908 0.85799 -0.40400
O 	O 	0.08676 0.46771 0.74110 -0.21300
O 	O 	0.01164 0.49243 0.86735 -0.21000
O 	O 	0.92107 0.54633 0.77737 -0.42200
O 	O 	0.03216 0.55958 0.65391 -0.43300
O 	O 	0.93250 0.59408 0.73243 -0.41900
O 	O 	0.97194 0.56543 0.64247 -0.41100
C 	C 	0.10026 0.47641 0.70395 0.26900
O 	O 	0.08270 0.49864 0.67741 -0.40500
C 	C 	0.98219 0.52780 0.51883 0.09300
C 	C 	0.01622 0.52627 0.50148 0.10700
N 	N 	0.02004 0.51279 0.46207 -0.08300
C 	C 	0.99114 0.50095 0.43890 -0.00900
C 	C 	0.95701 0.50265 0.45624 0.04400
N 	N 	0.95326 0.51596 0.49592 -0.10200
N 	N 	0.97854 0.54036 0.55880 -0.08600
N 	N 	0.04516 0.53802 0.52435 -0.10200
H 	H 	0.93367 0.49345 0.43833 0.05600
C 	C 	0.00765 0.55146 0.58224 -0.02300
C 	C 	0.04158 0.55066 0.56430 0.04600
H 	H 	0.06501 0.55956 0.58227 0.05100
C 	C 	0.00883 0.50792 0.99816 0.09900
C 	C 	0.97607 0.51490 0.01679 0.10300
N 	N 	0.97489 0.51895 0.05968 -0.08600
C 	C 	0.00526 0.51643 0.08483 -0.01900
C 	C 	0.03810 0.50974 0.06601 0.04700
N 	N 	0.03919 0.50561 0.02306 -0.09900
N 	N 	0.01000 0.50373 0.95534 -0.08300
N 	N 	0.94573 0.51736 0.99181 -0.10500
H 	H 	0.06250 0.50729 0.08549 0.04900
C 	C 	0.97974 0.50656 0.93010 -0.01100
C 	C 	0.94689 0.51338 0.94880 0.04400
H 	H 	0.92251 0.51555 0.92926 0.05500
C 	C 	0.53998 0.44971 0.74568 0.10000
C 	C 	0.53518 0.47998 0.77053 0.10000
N 	N 	0.52604 0.47559 0.81189 -0.08400
C 	C 	0.52150 0.44212 0.82980 -0.02000
C 	C 	0.52670 0.41175 0.80510 0.04700
N 	N 	0.53582 0.41618 0.76345 -0.10300
N 	N 	0.54752 0.45418 0.70367 -0.08600
N 	N 	0.53864 0.51349 0.75268 -0.10200
H 	H 	0.52299 0.38492 0.81867 0.05100
C 	C 	0.55026 0.48782 0.68542 -0.00900
C 	C 	0.54613 0.51805 0.71064 0.04500
H 	H 	0.54865 0.54497 0.69683 0.05600
C 	C 	0.49012 0.46338 0.26695 0.10000
C 	C 	0.50901 0.43513 0.24927 0.10100
N 	N 	0.50733 0.43075 0.20630 -0.08600
C 	C 	0.48740 0.45346 0.18014 -0.00600
C 	C 	0.46770 0.48110 0.19810 0.04400
N 	N 	0.46960 0.48556 0.24110 -0.10200
N 	N 	0.49312 0.46880 0.30966 -0.08700
N 	N 	0.52967 0.41305 0.27510 -0.10300
H 	H 	0.45136 0.49918 0.17793 0.05800
C 	C 	0.51405 0.44688 0.33562 -0.02000
C 	C 	0.53249 0.41825 0.31793 0.04900
H 	H 	0.54942 0.40064 0.33800 0.05100
C 	C 	0.90540 0.38519 0.70779 0.09800
C 	C 	0.93881 0.38794 0.68885 0.10300
N 	N 	0.95976 0.41708 0.69599 -0.09100
C 	C 	0.94872 0.44363 0.72139 0.02200
C 	C 	0.91600 0.44016 0.74172 0.03200
N 	N 	0.89489 0.41104 0.73439 -0.10000
N 	N 	0.88296 0.35788 0.69739 -0.08500
N 	N 	0.94894 0.36265 0.66136 -0.10400
H 	H 	0.90692 0.46106 0.76209 0.04500
C 	C 	0.89256 0.33308 0.66877 -0.02000
C 	C 	0.92660 0.33515 0.65111 0.04800
H 	H 	0.93501 0.31537 0.62888 0.05300
C 	C 	0.69873 0.35085 0.55778 0.10300
C 	C 	0.66782 0.34796 0.58184 0.09800
N 	N 	0.63823 0.36707 0.56932 -0.08300
C 	C 	0.63810 0.38858 0.53324 -0.02300
C 	C 	0.66915 0.39163 0.50942 0.04800
N 	N 	0.69886 0.37273 0.52222 -0.10400
N 	N 	0.72744 0.32996 0.56857 -0.09100
N 	N 	0.66716 0.32463 0.61616 -0.09900
H 	H 	0.66972 0.40918 0.48115 0.04900
C 	C 	0.72647 0.30573 0.60198 0.02100
C 	C 	0.69587 0.30332 0.62661 0.02800
H 	H 	0.69450 0.28387 0.65299 0.05500
C 	C 	0.80635 0.24733 0.90502 0.09900
C 	C 	0.79579 0.21571 0.88480 0.10100
N 	N 	0.78930 0.21633 0.84182 -0.08600
C 	C 	0.79316 0.24732 0.81800 -0.00700
C 	C 	0.80381 0.27898 0.83832 0.04300
N 	N 	0.81014 0.27834 0.88145 -0.10200
N 	N 	0.81186 0.24694 0.94816 -0.08300
N 	N 	0.79169 0.18478 0.90841 -0.10300
H 	H 	0.80690 0.30392 0.81999 0.05500
C 	C 	0.80721 0.21613 0.97211 -0.02600
C 	C 	0.79722 0.18431 0.95166 0.04600
H 	H 	0.79321 0.15958 0.97007 0.04700
C 	C 	0.79794 0.24773 0.40353 0.09900
C 	C 	0.79751 0.21373 0.38520 0.10100
N 	N 	0.78534 0.21033 0.34420 -0.08600
C 	C 	0.77389 0.23961 0.32041 -0.01000
C 	C 	0.77437 0.27366 0.33874 0.04400
N 	N 	0.78630 0.27701 0.38001 -0.10300
N 	N 	0.80896 0.25092 0.44505 -0.08500
N 	N 	0.80895 0.18443 0.40872 -0.10400
H 	H 	0.76536 0.29726 0.32028 0.05200
C 	C 	0.81945 0.22139 0.46911 -0.02600
C 	C 	0.82001 0.18757 0.45026 0.04800
H 	H 	0.82848 0.16384 0.46885 0.05100
C 	C 	0.91269 0.34698 0.20548 0.09800
C 	C 	0.89762 0.37646 0.22532 0.10200
N 	N 	0.91909 0.40320 0.23970 -0.09500
C 	C 	0.95496 0.40220 0.23421 0.01900
C 	C 	0.97025 0.37118 0.21802 0.03500
N 	N 	0.94877 0.34432 0.20354 -0.10000
N 	N 	0.89112 0.32303 0.18529 -0.08400
N 	N 	0.86156 0.37998 0.22570 -0.10400
H 	H 	0.99884 0.36952 0.21438 0.05500
C 	C 	0.85496 0.32715 0.18446 -0.02200
C 	C 	0.83991 0.35583 0.20590 0.04800
H 	H 	0.81120 0.35931 0.20602 0.05100
C 	C 	0.64431 0.29553 0.05992 0.10500
C 	C 	0.63899 0.32481 0.08629 0.10000
N 	N 	0.61303 0.34925 0.07555 -0.08800
C 	C 	0.59255 0.34580 0.03910 -0.02100
C 	C 	0.59752 0.31621 0.01322 0.05900
N 	N 	0.62325 0.29160 0.02421 -0.10300
N 	N 	0.67197 0.27276 0.06869 -0.08800
N 	N 	0.66132 0.32971 0.12080 -0.10100
H 	H 	0.58118 0.31301 0.98434 0.04200
C 	C 	0.69492 0.27814 0.10248 0.02400
C 	C 	0.68927 0.30692 0.12939 0.03400
H 	H 	0.70745 0.31161 0.15630 0.04000
C 	C 	0.85990 0.61126 0.85298 0.09700
C 	C 	0.86551 0.64860 0.85075 0.10400
N 	N 	0.84491 0.67042 0.87359 -0.08800
C 	C 	0.81725 0.65685 0.89618 0.02500
C 	C 	0.81410 0.61938 0.90189 0.03200
N 	N 	0.83532 0.59728 0.87986 -0.10000
N 	N 	0.87645 0.58983 0.82535 -0.08600
N 	N 	0.88804 0.66293 0.82166 -0.10400
H 	H 	0.79295 0.60798 0.92081 0.05200
C 	C 	0.89807 0.60430 0.79508 -0.02800
C 	C 	0.90440 0.64158 0.79376 0.04900
H 	H 	0.92238 0.65347 0.77090 0.05100
C 	C 	0.60655 0.56013 0.99479 0.09600
C 	C 	0.59482 0.58330 0.96086 0.10000
N 	N 	0.61748 0.60858 0.94467 -0.08500
C 	C 	0.65151 0.61166 0.96124 -0.01500
C 	C 	0.66275 0.58901 0.99607 0.03700
N 	N 	0.64011 0.56365 0.01193 -0.09700
N 	N 	0.58516 0.53276 0.00826 -0.08600
N 	N 	0.56154 0.57906 0.94298 -0.10000
H 	H 	0.68939 0.59140 0.01024 0.05600
C 	C 	0.55243 0.52743 0.98917 0.01900
C 	C 	0.54006 0.55168 0.95660 0.03500
H 	H 	0.51433 0.54760 0.94063 0.04300
C 	C 	0.74458 0.74177 0.67541 0.09900
C 	C 	0.74928 0.70897 0.69842 0.10000
N 	N 	0.73766 0.70540 0.73903 -0.08600
C 	C 	0.72193 0.73352 0.75796 -0.02400
C 	C 	0.71753 0.76646 0.73502 0.04800
N 	N 	0.72877 0.76985 0.69412 -0.10300
N 	N 	0.75538 0.74502 0.63437 -0.08800
N 	N 	0.76542 0.68102 0.67995 -0.10400
H 	H 	0.70520 0.78914 0.74960 0.05100
C 	C 	0.77090 0.71675 0.61538 -0.02400
C 	C 	0.77647 0.68427 0.63902 0.04900
H 	H 	0.78903 0.66159 0.62470 0.05300
C 	C 	0.75153 0.67805 0.17159 0.10000
C 	C 	0.78500 0.67084 0.19162 0.10100
N 	N 	0.78960 0.67461 0.23454 -0.08500
C 	C 	0.76198 0.68517 0.25852 -0.00700
C 	C 	0.72827 0.69168 0.23850 0.04400
N 	N 	0.72377 0.68809 0.19543 -0.10200
N 	N 	0.74746 0.67623 0.12831 -0.08600
N 	N 	0.81289 0.66129 0.16776 -0.10200
H 	H 	0.70599 0.70019 0.25691 0.05300
C 	C 	0.77563 0.66751 0.10413 -0.00800
C 	C 	0.80888 0.65936 0.12448 0.04300
H 	H 	0.83147 0.65190 0.10595 0.05500
C 	C 	0.86951 0.57732 0.35800 0.10000
C 	C 	0.84506 0.59955 0.33463 0.10400
N 	N 	0.82253 0.62072 0.35565 -0.08400
C 	C 	0.82413 0.62145 0.39912 -0.02000
C 	C 	0.84847 0.59910 0.42249 0.05200
N 	N 	0.87056 0.57731 0.40143 -0.10500
N 	N 	0.89290 0.55710 0.33702 -0.09100
N 	N 	0.84526 0.60094 0.29119 -0.10100
H 	H 	0.84982 0.59912 0.45714 0.05000
C 	C 	0.89349 0.55879 0.29354 -0.02300
C 	C 	0.86916 0.58113 0.27015 0.05400
H 	H 	0.86911 0.58252 0.23551 0.05100
C 	C 	0.61360 0.61438 0.48071 0.10000
C 	C 	0.63692 0.61233 0.44661 0.10000
N 	N 	0.66203 0.63843 0.44058 -0.09900
C 	C 	0.66437 0.66698 0.46684 0.02200
C 	C 	0.63951 0.67000 0.49935 0.03200
N 	N 	0.61492 0.64349 0.50588 -0.09900
N 	N 	0.59129 0.58629 0.48979 -0.09200
N 	N 	0.63575 0.58318 0.42157 -0.10100
H 	H 	0.64065 0.69254 0.52037 0.06000
C 	C 	0.59080 0.55652 0.46534 0.02300
C 	C 	0.61301 0.55544 0.42997 0.02900
H 	H 	0.61315 0.53209 0.41020 0.05900
C 	C 	0.61534 0.88763 0.51114 0.10200
C 	C 	0.61591 0.84996 0.51599 0.09900
N 	N 	0.64757 0.83237 0.51906 -0.08900
C 	C 	0.67891 0.85077 0.51677 -0.01300
C 	C 	0.67839 0.88846 0.51182 0.04700
N 	N 	0.64657 0.90618 0.50930 -0.10200
N 	N 	0.58360 0.90524 0.50858 -0.09600
N 	N 	0.58474 0.83134 0.51722 -0.10200
H 	H 	0.70310 0.90351 0.51001 0.05400
C 	C 	0.55235 0.88660 0.51029 0.01900
C 	C 	0.55295 0.84895 0.51433 0.03800
H 	H 	0.52826 0.83385 0.51595 0.05500
C 	C 	0.66234 0.07382 0.58761 0.10000
C 	C 	0.64411 0.07882 0.54788 0.10100
N 	N 	0.61143 0.06380 0.54145 -0.08500
C 	C 	0.59614 0.04374 0.57308 -0.00800
C 	C 	0.61448 0.03862 0.61280 0.04500
N 	N 	0.64721 0.05381 0.61926 -0.10200
N 	N 	0.69435 0.09012 0.59463 -0.08600
N 	N 	0.65893 0.09931 0.51647 -0.10100
H 	H 	0.60273 0.02283 0.63840 0.05600
C 	C 	0.70883 0.11153 0.56360 -0.01100
C 	C 	0.69096 0.11573 0.52348 0.04600
H 	H 	0.70225 0.13235 0.49829 0.05400
C 	C 	0.51103 0.95066 0.75116 0.09900
C 	C 	0.48101 0.94197 0.77515 0.10100
N 	N 	0.48275 0.94461 0.81831 -0.08700
C 	C 	0.51341 0.95540 0.83875 -0.00900
C 	C 	0.54334 0.96455 0.81464 0.04400
N 	N 	0.54152 0.96198 0.77132 -0.10200
N 	N 	0.50942 0.94757 0.70800 -0.08700
N 	N 	0.45060 0.93043 0.75509 -0.10400
H 	H 	0.56788 0.97347 0.83026 0.05600
C 	C 	0.47889 0.93613 0.68772 -0.02000
C 	C 	0.44890 0.92733 0.71189 0.04900
H 	H 	0.42442 0.91810 0.69642 0.05400
C 	C 	0.46466 0.90615 0.24605 0.09800
C 	C 	0.49523 0.89870 0.27207 0.10100
N 	N 	0.49628 0.90837 0.31355 -0.08600
C 	C 	0.46780 0.92483 0.33044 -0.00800
C 	C 	0.43678 0.93130 0.30478 0.04400
N 	N 	0.43592 0.92202 0.26298 -0.10200
N 	N 	0.46484 0.89939 0.20360 -0.08500
N 	N 	0.52419 0.88341 0.25509 -0.10300
H 	H 	0.41387 0.94436 0.31771 0.05300
C 	C 	0.49444 0.88544 0.18610 -0.02400
C 	C 	0.52434 0.87643 0.21271 0.04700
H 	H 	0.54793 0.86487 0.19948 0.05200
C 	C 	0.62759 0.84231 0.96398 0.10400
C 	C 	0.63974 0.81928 0.99792 0.09900
N 	N 	0.66514 0.79431 0.99109 -0.09000
C 	C 	0.67910 0.79149 0.95176 0.01800
C 	C 	0.66882 0.81623 0.91876 0.03400
N 	N 	0.64299 0.84094 0.92539 -0.09900
N 	N 	0.59887 0.86385 0.96911 -0.09100
N 	N 	0.62387 0.82006 0.03625 -0.09500
H 	H 	0.67992 0.81450 0.88737 0.04400
C 	C 	0.58208 0.86354 0.00702 0.02900
C 	C 	0.59550 0.84203 0.04160 0.03400
H 	H 	0.58304 0.84233 0.07231 0.05500
C 	C 	0.66477 0.04999 0.11532 0.10100
C 	C 	0.67200 0.02610 0.08285 0.09800
N 	N 	0.65707 0.99280 0.08363 -0.08500
C 	C 	0.63495 0.98245 0.11549 -0.00800
C 	C 	0.62927 0.00579 0.14909 0.03700
N 	N 	0.64416 0.03915 0.14821 -0.10100
N 	N 	0.67690 0.08432 0.11253 -0.08600
N 	N 	0.69194 0.03728 0.04943 -0.10100
H 	H 	0.61217 0.99785 0.17499 0.05800
C 	C 	0.69639 0.09582 0.07877 -0.01000
C 	C 	0.70448 0.07165 0.04686 0.04400
H 	H 	0.72003 0.08031 0.01984 0.05300
C 	C 	0.12336 0.63815 0.80773 0.10000
C 	C 	0.09983 0.62374 0.83786 0.10200
N 	N 	0.07186 0.60317 0.82463 -0.08900
C 	C 	0.06643 0.59637 0.78242 0.02100
C 	C 	0.09035 0.61012 0.75243 0.03000
N 	N 	0.11829 0.63090 0.76565 -0.10100
N 	N 	0.15017 0.66034 0.82066 -0.09900
N 	N 	0.10451 0.63149 0.87981 -0.09900
H 	H 	0.08658 0.60454 0.71881 0.04600
C 	C 	0.15457 0.66855 0.86262 0.02100
C 	C 	0.13143 0.65363 0.89278 0.03600
H 	H 	0.13432 0.66030 0.92617 0.05900
C 	C 	0.34457 0.59811 0.95324 0.09900
C 	C 	0.33462 0.56514 0.97243 0.10200
N 	N 	0.35246 0.53473 0.96354 -0.08600
C 	C 	0.38014 0.53593 0.93642 -0.01000
C 	C 	0.38996 0.56895 0.91707 0.04500
N 	N 	0.37193 0.59938 0.92586 -0.10300
N 	N 	0.32591 0.62826 0.96087 -0.08700
N 	N 	0.30693 0.56383 0.99937 -0.10400
H 	H 	0.41188 0.57039 0.89538 0.05400
C 	C 	0.29726 0.62689 0.98650 -0.01800
C 	C 	0.28808 0.59408 0.00691 0.05400
H 	H 	0.26565 0.59251 0.02784 0.05500
C 	C 	0.37248 0.81758 0.92252 0.09800
C 	C 	0.34699 0.83978 0.90084 0.10400
N 	N 	0.31819 0.82478 0.88075 -0.09000
C 	C 	0.31352 0.78847 0.88177 0.02300
C 	C 	0.34040 0.76627 0.90077 0.02600
N 	N 	0.36921 0.78128 0.92104 -0.09900
N 	N 	0.39887 0.83252 0.94704 -0.08500
N 	N 	0.34956 0.87605 0.90340 -0.10200
H 	H 	0.33742 0.73731 0.90153 0.05400
C 	C 	0.40105 0.86889 0.95039 -0.01800
C 	C 	0.37617 0.89108 0.92750 0.04900
H 	H 	0.37759 0.92006 0.92956 0.05600
C 	C 	0.18472 0.72674 0.59428 0.09900
C 	C 	0.17029 0.75891 0.60856 0.10200
N 	N 	0.17706 0.76879 0.64942 -0.08600
C 	C 	0.19740 0.74762 0.67689 -0.01000
C 	C 	0.21108 0.71499 0.66289 0.04500
N 	N 	0.20460 0.70530 0.62178 -0.10400
N 	N 	0.18050 0.71838 0.55249 -0.09000
N 	N 	0.15099 0.78069 0.58089 -0.10300
H 	H 	0.22731 0.69781 0.68433 0.05300
C 	C 	0.16250 0.74097 0.52424 -0.02300
C 	C 	0.14661 0.77228 0.53907 0.05200
H 	H 	0.13169 0.79026 0.51721 0.05400
C 	C 	0.22033 0.72289 0.09820 0.10400
C 	C 	0.20891 0.75113 0.12313 0.10100
N 	N 	0.21467 0.74927 0.16623 -0.08600
C 	C 	0.23121 0.72010 0.18550 -0.00900
C 	C 	0.24207 0.69162 0.16051 0.04600
N 	N 	0.23649 0.69364 0.11734 -0.10100
N 	N 	0.21761 0.72620 0.05497 -0.08800
N 	N 	0.19388 0.78094 0.10376 -0.10300
H 	H 	0.25518 0.66820 0.17528 0.05600
C 	C 	0.20425 0.75673 0.03535 -0.02000
C 	C 	0.19117 0.78423 0.06028 0.05200
H 	H 	0.18071 0.80882 0.04520 0.05100
C 	C 	0.10876 0.58983 0.32742 0.10600
C 	C 	0.12578 0.60814 0.29376 0.10500
N 	N 	0.14884 0.63528 0.30252 -0.08700
C 	C 	0.15573 0.64481 0.34359 0.02600
C 	C 	0.14051 0.62502 0.37731 0.03900
N 	N 	0.11708 0.59806 0.36855 -0.09600
N 	N 	0.08213 0.56617 0.31850 -0.08600
N 	N 	0.11670 0.60070 0.25259 -0.09700
H 	H 	0.14602 0.63214 0.41019 0.05100
C 	C 	0.07201 0.55988 0.27724 0.02700
C 	C 	0.09034 0.57666 0.24368 0.03600
H 	H 	0.08313 0.57118 0.21070 0.05400
C 	C 	0.33488 0.58487 0.44321 0.10100
C 	C 	0.35223 0.58949 0.48314 0.10200
N 	N 	0.38676 0.57898 0.48945 -0.08500
C 	C 	0.40486 0.56406 0.45735 -0.00700
C 	C 	0.38762 0.56019 0.41705 0.04400
N 	N 	0.35295 0.57060 0.41087 -0.10100
N 	N 	0.30027 0.59515 0.43699 -0.08600
N 	N 	0.33430 0.60423 0.51530 -0.10100
H 	H 	0.40145 0.54834 0.39112 0.05600
C 	C 	0.28234 0.61042 0.46897 -0.01100
C 	C 	0.29973 0.61494 0.50897 0.04600
H 	H 	0.28592 0.62715 0.53469 0.05400
C 	C 	0.33788 0.80208 0.44801 0.10300
C 	C 	0.33753 0.83652 0.42819 0.09800
N 	N 	0.35824 0.86300 0.44481 -0.08500
C 	C 	0.37920 0.85647 0.48068 -0.02300
C 	C 	0.38035 0.82164 0.49958 0.04900
N 	N 	0.35961 0.79521 0.48291 -0.10400
N 	N 	0.31416 0.77693 0.43464 -0.09100
N 	N 	0.31456 0.84378 0.39447 -0.10000
H 	H 	0.39755 0.81567 0.52743 0.05200
C 	C 	0.28957 0.78486 0.40277 0.02000
C 	C 	0.29067 0.81852 0.38120 0.03100
H 	H 	0.27147 0.82515 0.35549 0.04900
C 	C 	0.19849 0.43038 0.67327 0.10100
C 	C 	0.18762 0.43046 0.71580 0.10200
N 	N 	0.15646 0.44653 0.72504 -0.08500
C 	C 	0.13551 0.46257 0.69354 -0.00800
C 	C 	0.14697 0.46350 0.65116 0.04500
N 	N 	0.17821 0.44729 0.64188 -0.10100
N 	N 	0.22759 0.41099 0.66334 -0.08600
N 	N 	0.20699 0.41225 0.74691 -0.10100
H 	H 	0.13072 0.47619 0.62566 0.05500
C 	C 	0.24605 0.39128 0.69418 -0.01000
C 	C 	0.23606 0.39273 0.73698 0.04700
H 	H 	0.25072 0.37759 0.76197 0.05300
C 	C 	0.40758 0.38334 0.55448 0.10300
C 	C 	0.42164 0.35998 0.58701 0.10100
N 	N 	0.40135 0.33224 0.60225 -0.09200
C 	C 	0.36730 0.32731 0.58656 0.02400
C 	C 	0.35305 0.35136 0.55493 0.03700
N 	N 	0.37349 0.37878 0.53941 -0.09800
N 	N 	0.42883 0.40902 0.53658 -0.09000
N 	N 	0.45598 0.36421 0.60152 -0.09800
H 	H 	0.32613 0.34773 0.54204 0.06500
C 	C 	0.46359 0.41261 0.55015 0.02400
C 	C 	0.47716 0.39021 0.58392 0.03300
H 	H 	0.50476 0.39258 0.59497 0.05100
C 	C 	0.39272 0.10034 0.53472 0.10000
C 	C 	0.37482 0.06915 0.54879 0.10300
N 	N 	0.38747 0.03637 0.53906 -0.09200
C 	C 	0.41794 0.03329 0.51701 0.01900
C 	C 	0.43403 0.06447 0.49994 0.03300
N 	N 	0.42126 0.09742 0.50941 -0.09900
N 	N 	0.38289 0.13293 0.54886 -0.08800
N 	N 	0.34731 0.07184 0.57564 -0.10400
H 	H 	0.45823 0.06253 0.48216 0.06000
C 	C 	0.35576 0.13553 0.57647 -0.01900
C 	C 	0.33731 0.10444 0.58960 0.05100
H 	H 	0.31510 0.10626 0.61072 0.04800
C 	C 	0.30956 0.20983 0.84443 0.09800
C 	C 	0.30563 0.24134 0.86733 0.10200
N 	N 	0.29482 0.23920 0.90838 -0.08500
C 	C 	0.28799 0.20671 0.92788 -0.00600
C 	C 	0.29220 0.17510 0.90500 0.04200
N 	N 	0.30281 0.17732 0.86369 -0.10200
N 	N 	0.31943 0.21209 0.80289 -0.08400
N 	N 	0.31228 0.27384 0.84818 -0.10200
H 	H 	0.28683 0.14902 0.91980 0.05200
C 	C 	0.32562 0.24477 0.78332 -0.02100
C 	C 	0.32225 0.27622 0.80674 0.04500
H 	H 	0.32708 0.30240 0.79192 0.05100
C 	C 	0.30454 0.21670 0.36827 0.10000
C 	C 	0.29575 0.24594 0.34040 0.09900
N 	N 	0.29999 0.24322 0.29768 -0.08900
C 	C 	0.31252 0.21231 0.28138 -0.02200
C 	C 	0.32128 0.18299 0.30934 0.04900
N 	N 	0.31717 0.18582 0.35223 -0.10300
N 	N 	0.30077 0.21964 0.41115 -0.08600
N 	N 	0.28310 0.27680 0.35633 -0.10400
H 	H 	0.33133 0.15819 0.29708 0.05300
C 	C 	0.28857 0.25081 0.42731 -0.00900
C 	C 	0.27928 0.27982 0.39915 0.04400
H 	H 	0.26922 0.30467 0.41129 0.05500
C 	C 	0.19108 0.40334 0.20836 0.10200
C 	C 	0.20018 0.39834 0.16573 0.10300
N 	N 	0.22362 0.37209 0.15669 -0.08600
C 	C 	0.23771 0.35000 0.18842 -0.00800
C 	C 	0.22894 0.35527 0.23105 0.04700
N 	N 	0.20595 0.38201 0.24021 -0.10100
N 	N 	0.16544 0.42752 0.21706 -0.08600
N 	N 	0.18340 0.41788 0.13359 -0.10100
H 	H 	0.24005 0.33794 0.25663 0.05300
C 	C 	0.14783 0.44629 0.18480 -0.00900
C 	C 	0.15722 0.44161 0.14227 0.04700
H 	H 	0.14339 0.45635 0.11628 0.05000
C 	C 	0.39330 0.33795 0.06336 0.10300
C 	C 	0.37447 0.31903 0.03159 0.10800
N 	N 	0.35251 0.29145 0.04298 -0.08700
C 	C 	0.34844 0.28203 0.08496 0.02800
C 	C 	0.36647 0.30163 0.11675 0.03600
N 	N 	0.38865 0.32913 0.10532 -0.09700
N 	N 	0.41707 0.36399 0.05187 -0.09700
N 	N 	0.37955 0.32735 0.98966 -0.09900
H 	H 	0.36334 0.29463 0.15028 0.05800
C 	C 	0.42247 0.37203 0.00974 0.03300
C 	C 	0.40311 0.35347 0.97812 0.03100
H 	H 	0.40739 0.35927 0.94454 0.06100
C 	C 	0.40108 0.04240 0.04847 0.10100
C 	C 	0.41723 0.07221 0.06769 0.09800
N 	N 	0.39662 0.09947 0.08088 -0.08500
C 	C 	0.36041 0.09837 0.07521 -0.02100
C 	C 	0.34439 0.06904 0.05468 0.04800
N 	N 	0.36505 0.04156 0.04194 -0.10400
N 	N 	0.42127 0.01351 0.03938 -0.09400
N 	N 	0.45317 0.07261 0.07520 -0.10000
H 	H 	0.31566 0.06771 0.04981 0.05100
C 	C 	0.45704 0.01317 0.04871 0.01600
C 	C 	0.47344 0.04374 0.06580 0.03600
H 	H 	0.50189 0.04394 0.07321 0.05300
C 	C 	0.89462 0.09754 0.68014 0.10300
C 	C 	0.88120 0.11690 0.71407 0.10400
N 	N 	0.85696 0.14343 0.70554 -0.08800
C 	C 	0.84559 0.15137 0.66462 0.02500
C 	C 	0.85545 0.12896 0.63175 0.03700
N 	N 	0.88026 0.10281 0.64002 -0.09900
N 	N 	0.92492 0.07788 0.68657 -0.09100
N 	N 	0.89645 0.11270 0.75389 -0.09800
H 	H 	0.84557 0.13419 0.59920 0.05000
C 	C 	0.94200 0.07639 0.72562 0.02300
C 	C 	0.92632 0.09234 0.76046 0.03500
H 	H 	0.93872 0.08990 0.79219 0.05800
C 	C 	0.89142 0.88065 0.83162 0.10000
C 	C 	0.85526 0.88847 0.83766 0.10000
N 	N 	0.83190 0.86125 0.84595 -0.08800
C 	C 	0.84336 0.82645 0.84865 -0.00700
C 	C 	0.87941 0.81871 0.84166 0.04400
N 	N 	0.90268 0.84594 0.83331 -0.10200
N 	N 	0.91498 0.90788 0.82468 -0.08700
N 	N 	0.84409 0.92324 0.83644 -0.10200
H 	H 	0.88894 0.79119 0.84357 0.05400
C 	C 	0.90386 0.94279 0.82324 -0.00900
C 	C 	0.86762 0.95055 0.82929 0.04400
H 	H 	0.85828 0.97812 0.82845 0.05600
C 	C 	0.10837 0.89230 0.75836 0.10600
C 	C 	0.14328 0.89872 0.77428 0.10300
N 	N 	0.16207 0.87166 0.79456 -0.08500
C 	C 	0.14768 0.83819 0.79875 -0.01400
C 	C 	0.11382 0.83120 0.78020 0.05400
N 	N 	0.09467 0.85850 0.76071 -0.10200
N 	N 	0.08712 0.92051 0.74589 -0.09100
N 	N 	0.15648 0.93273 0.77337 -0.09800
H 	H 	0.10226 0.80454 0.78275 0.05400
C 	C 	0.09913 0.95489 0.74921 0.02700
C 	C 	0.13523 0.96092 0.76047 0.03300
H 	H 	0.14567 0.98802 0.76177 0.06200
C 	C 	0.16284 0.15393 0.65841 0.09800
C 	C 	0.16552 0.18565 0.68150 0.10200
N 	N 	0.19120 0.21023 0.67206 -0.09000
C 	C 	0.21451 0.20445 0.64050 0.02100
C 	C 	0.21060 0.17358 0.61599 0.03200
N 	N 	0.18495 0.14885 0.62555 -0.10000
N 	N 	0.13958 0.12768 0.67062 -0.08500
N 	N 	0.14420 0.19035 0.71512 -0.10300
H 	H 	0.22903 0.16842 0.59096 0.04400
C 	C 	0.11874 0.13194 0.70506 -0.01800
C 	C 	0.12075 0.16429 0.72723 0.04700
H 	H 	0.10406 0.16852 0.75421 0.05400
C 	C 	0.04849 0.99225 0.47702 0.10600
C 	C 	0.02325 0.00985 0.50110 0.10100
N 	N 	0.03113 0.01715 0.54262 -0.08600
C 	C 	0.06312 0.00705 0.56130 -0.01200
C 	C 	0.08804 0.98879 0.53738 0.05000
N 	N 	0.08030 0.98194 0.49563 -0.10200
N 	N 	0.04167 0.98726 0.43477 -0.08400
N 	N 	0.99159 0.02049 0.48231 -0.10400
H 	H 	0.11357 0.98053 0.55177 0.05400
C 	C 	0.01051 0.99897 0.41542 -0.00800
C 	C 	0.98460 0.01522 0.43996 0.04100
H 	H 	0.95977 0.02494 0.42509 0.05300
C 	C 	0.02356 0.02966 0.99534 0.10000
C 	C 	0.05564 0.02509 0.97416 0.09900
N 	N 	0.05644 0.03119 0.93118 -0.08700
C 	C 	0.02628 0.04126 0.90837 -0.01900
C 	C 	0.99430 0.04618 0.92971 0.04200
N 	N 	0.99362 0.04036 0.97279 -0.10600
N 	N 	0.02251 0.02269 0.03808 -0.08400
N 	N 	0.08540 0.01363 0.99664 -0.10500
H 	H 	0.97012 0.05440 0.91208 0.05200
C 	C 	0.05217 0.01097 0.06071 -0.00800
C 	C 	0.08432 0.00645 0.03951 0.04300
H 	H 	0.10833 0.99766 0.05707 0.05900
C 	C 	0.87392 0.11613 0.22383 0.10100
C 	C 	0.87860 0.08893 0.19432 0.10100
N 	N 	0.90347 0.06297 0.20280 -0.09400
C 	C 	0.92405 0.06309 0.23948 0.01600
C 	C 	0.91779 0.08896 0.27012 0.03000
N 	N 	0.89295 0.11508 0.26158 -0.10000
N 	N 	0.85289 0.14486 0.21281 -0.08800
N 	N 	0.86080 0.09082 0.15576 -0.10100
H 	H 	0.93353 0.08915 0.29978 0.05600
C 	C 	0.83620 0.14743 0.17353 0.02000
C 	C 	0.83953 0.11948 0.14487 0.03500
H 	H 	0.82613 0.12110 0.11363 0.03600
C 	C 	0.86407 0.85503 0.41004 0.10000
C 	C 	0.84620 0.83831 0.37582 0.10300
N 	N 	0.82233 0.81138 0.38385 -0.09000
C 	C 	0.81516 0.80087 0.42489 0.02600
C 	C 	0.83217 0.81857 0.45904 0.03300
N 	N 	0.85644 0.84510 0.45095 -0.09800
N 	N 	0.88936 0.88061 0.40202 -0.08600
N 	N 	0.85357 0.84846 0.33492 -0.10200
H 	H 	0.82673 0.81069 0.49180 0.05500
C 	C 	0.89696 0.89073 0.36094 -0.00800
C 	C 	0.87835 0.87447 0.32678 0.04400
H 	H 	0.88412 0.88192 0.29398 0.04900
C 	C 	0.09135 0.84955 0.25617 0.10000
C 	C 	0.10843 0.88276 0.24872 0.10500
N 	N 	0.08846 0.91245 0.23882 -0.08900
C 	C 	0.05217 0.91053 0.23717 0.02100
C 	C 	0.03562 0.87667 0.23890 0.03700
N 	N 	0.05550 0.84685 0.24907 -0.09900
N 	N 	0.10984 0.82198 0.27582 -0.08400
N 	N 	0.14396 0.88600 0.25791 -0.10200
H 	H 	0.00680 0.87453 0.23618 0.05300
C 	C 	0.14487 0.82602 0.28770 -0.02000
C 	C 	0.16262 0.85817 0.27691 0.05100
H 	H 	0.19065 0.86161 0.28552 0.05300
C 	C 	0.15119 0.13495 0.18331 0.10200
C 	C 	0.14911 0.10131 0.16431 0.09700
N 	N 	0.12514 0.07630 0.17847 -0.08400
C 	C 	0.10332 0.08363 0.21130 -0.01600
C 	C 	0.10532 0.11762 0.22982 0.04600
N 	N 	0.12918 0.14249 0.21548 -0.10300
N 	N 	0.17664 0.15899 0.17119 -0.09100
N 	N 	0.17209 0.09340 0.13314 -0.10000
H 	H 	0.08790 0.12426 0.25534 0.05400
C 	C 	0.20059 0.15075 0.14109 0.02300
C 	C 	0.19779 0.11745 0.12116 0.03100
H 	H 	0.21681 0.11016 0.09761 0.04500
