data_crystal

_cell_length_a 41.58649
_cell_length_b 41.55307
_cell_length_c 19.48895
_cell_angle_alpha 94.31266
_cell_angle_beta  93.17362
_cell_angle_gamma 90.17793

_symmetry_space_group_name_	'P 1'
_symmetry_space_group_name_H-M	'P 1'

loop_
_symmetry_equiv_pos_as_xyz
  x,y,z

loop_
_atom_site_label
_atom_site_type_symbol
_atom_site_fract_x
_atom_site_fract_y
_atom_site_fract_z
_atom_site_charge
Cd	Cd	0.80854 0.91952 0.77327 1.17100
C 	C 	0.79490 0.93308 0.61119 0.29500
O 	O 	0.78836 0.91648 0.55236 -0.28900
O 	O 	0.78529 0.92046 0.66517 -0.54600
O 	O 	0.86040 0.08038 0.27803 -0.44800
C 	C 	0.84472 0.10718 0.28958 0.29200
O 	O 	0.83385 0.11197 0.35114 -0.34600
Cd	Cd	0.96970 0.21628 0.11140 1.24100
Cd	Cd	0.94854 0.21865 0.28366 1.18000
O 	O 	0.96070 0.26176 0.03805 -0.31800
O 	O 	0.98773 0.21866 0.00432 -0.34900
C 	C 	0.97737 0.24707 0.99065 0.26600
O 	O 	0.99232 0.17322 0.15394 -0.39900
O 	O 	0.95624 0.16759 0.23749 -0.43100
C 	C 	0.98061 0.15654 0.20198 0.27600
C 	C 	0.00878 0.25329 0.21379 0.29200
O 	O 	0.91786 0.22350 0.18187 -0.45000
O 	O 	0.02385 0.24748 0.15717 -0.30600
O 	O 	0.97875 0.24438 0.21011 -0.53700
C 	C 	0.90457 0.19953 0.14335 0.29000
O 	O 	0.92102 0.18882 0.09122 -0.35300
Cd	Cd	0.91089 0.04765 0.82410 1.23900
Cd	Cd	0.91273 0.97740 0.70283 1.17800
O 	O 	0.93699 0.09717 0.79160 -0.31900
O 	O 	0.90831 0.09714 0.88325 -0.34700
C 	C 	0.92551 0.11353 0.84408 0.27600
O 	O 	0.88118 0.01127 0.87178 -0.38500
O 	O 	0.87869 0.97015 0.78654 -0.46800
C 	C 	0.88267 0.98012 0.85230 0.27600
C 	C 	0.86851 0.04130 0.70259 0.29400
O 	O 	0.95201 0.00692 0.77118 -0.45300
O 	O 	0.85940 0.06414 0.74708 -0.29000
O 	O 	0.89684 0.02970 0.71652 -0.51600
C 	C 	0.96350 0.00337 0.83364 0.28400
O 	O 	0.95440 0.02473 0.88092 -0.35200
C 	C 	0.97247 0.32321 0.70260 0.12200
C 	C 	0.99763 0.35876 0.63349 0.12900
N 	N 	0.98816 0.32847 0.64519 -0.13600
C 	C 	0.06847 0.42059 0.07779 0.11700
N 	N 	0.05665 0.45065 0.09188 -0.14200
C 	C 	0.07287 0.41331 0.19660 0.12900
N 	N 	0.07741 0.40226 0.13053 -0.14200
Cd	Cd	0.04243 0.82297 0.80520 1.24000
Cd	Cd	0.98523 0.85142 0.92196 1.17200
O 	O 	0.09692 0.81014 0.85033 -0.32000
O 	O 	0.08263 0.80215 0.74050 -0.35400
C 	C 	0.10564 0.80176 0.78856 0.27300
O 	O 	0.99608 0.82249 0.74035 -0.38400
O 	O 	0.97198 0.86056 0.81140 -0.41300
C 	C 	0.97041 0.83925 0.75764 0.28600
C 	C 	0.01159 0.77882 0.88565 0.30000
O 	O 	0.03479 0.87184 0.89690 -0.45000
O 	O 	0.02594 0.76343 0.83504 -0.30000
O 	O 	0.01820 0.80933 0.89471 -0.54100
C 	C 	0.04000 0.89124 0.84906 0.29500
O 	O 	0.04884 0.87733 0.79085 -0.35100
Cd	Cd	0.10590 0.20809 0.54316 1.24100
O 	O 	0.15449 0.23814 0.58976 -0.32200
O 	O 	0.11754 0.22299 0.65651 -0.35600
C 	C 	0.14607 0.23546 0.65241 0.27200
O 	O 	0.05609 0.18813 0.53286 -0.38100
C 	C 	0.04268 0.17360 0.47578 0.28300
C 	C 	0.08210 0.25758 0.46125 0.29500
O 	O 	0.07846 0.26557 0.52657 -0.29800
O 	O 	0.09896 0.23200 0.44819 -0.54600
C 	C 	0.24388 0.96389 0.92170 0.12000
N 	N 	0.27046 0.97240 0.88989 -0.14100
C 	C 	0.28980 0.99675 0.91829 0.12500
N 	N 	0.28194 0.01335 0.97771 -0.14600
C 	C 	0.25599 0.00411 0.01109 0.13400
N 	N 	0.23691 0.97938 0.98289 -0.14300
C 	C 	0.29273 0.10020 0.60804 0.12000
N 	N 	0.27453 0.10008 0.54780 -0.13900
C 	C 	0.28452 0.08338 0.49032 0.12800
N 	N 	0.31257 0.06688 0.49316 -0.14300
C 	C 	0.33019 0.06602 0.55368 0.12700
N 	N 	0.32044 0.08303 0.61098 -0.14400
C 	C 	0.26477 0.08226 0.42523 -0.04900
C 	C 	0.27364 0.10095 0.37155 0.10200
C 	C 	0.26477 0.09047 0.30288 -0.08600
C 	C 	0.24667 0.06205 0.28757 -0.00500
C 	C 	0.23370 0.04629 0.34184 0.07400
C 	C 	0.24277 0.05673 0.41045 -0.05200
N 	N 	0.29132 0.12846 0.38557 -0.19900
H 	H 	0.27345 0.10344 0.26125 0.05500
C 	C 	0.24668 0.04588 0.21702 -0.00400
N 	N 	0.21348 0.02056 0.32832 -0.19300
H 	H 	0.23460 0.04342 0.45209 0.04800
C 	C 	0.26688 0.01931 0.20512 -0.08500
C 	C 	0.26918 0.00444 0.13853 0.10300
C 	C 	0.25173 0.01716 0.08237 -0.05000
C 	C 	0.23107 0.04336 0.09427 -0.05000
C 	C 	0.22804 0.05766 0.16135 0.07300
H 	H 	0.28091 0.01017 0.24796 0.05600
N 	N 	0.28800 0.97792 0.12897 -0.20100
H 	H 	0.21739 0.05274 0.05125 0.05200
N 	N 	0.20709 0.08239 0.17191 -0.19300
H 	H 	0.30149 0.96927 0.17047 0.08400
H 	H 	0.28881 0.96511 0.08093 0.09100
H 	H 	0.19383 0.09127 0.13037 0.08800
H 	H 	0.20319 0.09254 0.22136 0.09000
H 	H 	0.20564 0.00773 0.36845 0.09000
H 	H 	0.20452 0.01376 0.27819 0.10200
H 	H 	0.29676 0.13764 0.43628 0.09300
H 	H 	0.29886 0.14159 0.34559 0.08500
C 	C 	0.22848 0.21396 0.73463 -0.00000
C 	C 	0.25826 0.20281 0.71277 -0.05600
C 	C 	0.26569 0.17013 0.71739 0.02300
C 	C 	0.24356 0.14922 0.74363 0.00200
C 	C 	0.21265 0.15964 0.75897 -0.05200
C 	C 	0.20513 0.19234 0.75424 0.01800
S 	S 	0.20888 0.24384 0.69935 0.02600
C 	C 	0.17103 0.23158 0.70742 -0.06600
C 	C 	0.17303 0.20273 0.74072 -0.02300
S 	S 	0.25153 0.11195 0.71230 0.01200
C 	C 	0.28355 0.12027 0.66865 -0.02100
C 	C 	0.28821 0.15379 0.67525 -0.04500
H 	H 	0.27371 0.21830 0.68640 0.04700
H 	H 	0.19401 0.14228 0.76722 0.05200
H 	H 	0.15256 0.18663 0.74204 0.05000
H 	H 	0.30339 0.16619 0.64210 0.04500
C 	C 	0.19310 0.83174 0.81385 -0.00000
C 	C 	0.21258 0.84960 0.86414 -0.05600
C 	C 	0.21965 0.88180 0.85371 0.02400
C 	C 	0.20740 0.89560 0.79422 0.00200
C 	C 	0.18488 0.87908 0.74844 -0.05400
C 	C 	0.17787 0.84673 0.75839 0.01900
S 	S 	0.16908 0.80202 0.83214 0.02700
C 	C 	0.13929 0.80613 0.77226 -0.06500
C 	C 	0.14812 0.83187 0.73421 -0.02300
S 	S 	0.20804 0.93542 0.81075 0.00700
C 	C 	0.22378 0.93688 0.89178 -0.01800
C 	C 	0.22939 0.90502 0.90811 -0.04600
H 	H 	0.21938 0.83971 0.91271 0.04800
H 	H 	0.17111 0.89176 0.71020 0.05000
H 	H 	0.13095 0.84353 0.70048 0.04900
H 	H 	0.24030 0.89880 0.95708 0.04600
C 	C 	0.01608 0.36420 0.57295 -0.05000
C 	C 	0.04533 0.34785 0.56121 0.11100
C 	C 	0.05966 0.35004 0.49813 -0.08500
C 	C 	0.04756 0.37136 0.45072 -0.00300
C 	C 	0.02024 0.39036 0.46602 0.07100
C 	C 	0.00413 0.38573 0.52592 -0.05100
N 	N 	0.06069 0.33172 0.61155 -0.19700
H 	H 	0.08096 0.33603 0.48701 0.06300
C 	C 	0.06220 0.37217 0.38328 -0.00400
N 	N 	0.00958 0.41319 0.42380 -0.19400
H 	H 	0.98231 0.39906 0.53609 0.04900
C 	C 	0.04524 0.35815 0.32437 -0.08500
C 	C 	0.05148 0.36776 0.25886 0.10400
C 	C 	0.07565 0.39138 0.25264 -0.05100
H 	H 	0.02548 0.34163 0.33001 0.06000
N 	N 	0.03358 0.35502 0.20275 -0.20000
H 	H 	0.01466 0.33900 0.20854 0.09200
H 	H 	0.03936 0.35924 0.15286 0.10300
H 	H 	0.98875 0.42626 0.43425 0.08300
H 	H 	0.02241 0.41907 0.38188 0.09000
H 	H 	0.05210 0.33193 0.66090 0.09800
H 	H 	0.08278 0.32063 0.60311 0.10200
C 	C 	0.98982 0.98052 0.84744 -0.07500
C 	C 	0.01131 0.97250 0.79591 -0.01800
C 	C 	0.03089 0.94526 0.79959 0.01100
C 	C 	0.02785 0.92489 0.85390 -0.08100
C 	C 	0.00988 0.93558 0.91016 -0.01500
C 	C 	0.99102 0.96336 0.90744 0.00100
H 	H 	0.01224 0.98704 0.75208 0.03700
H 	H 	0.00921 0.92136 0.95452 -0.00200
C 	C 	0.97117 0.97255 0.96416 0.06800
C 	C 	0.05502 0.93946 0.74966 0.08500
N 	N 	0.95525 0.97985 0.00957 -0.11000
N 	N 	0.07435 0.93486 0.70963 -0.11600
C 	C 	0.93400 0.20691 0.85281 -0.00100
C 	C 	0.92391 0.23602 0.82655 -0.05400
C 	C 	0.94637 0.25307 0.79202 0.02600
C 	C 	0.97658 0.24014 0.78004 0.00300
C 	C 	0.98522 0.20934 0.79795 -0.05100
C 	C 	0.96384 0.19309 0.83697 0.02700
S 	S 	0.90953 0.17733 0.87062 0.04300
C 	C 	0.93574 0.14686 0.86372 -0.06000
C 	C 	0.96485 0.15941 0.84352 -0.01900
S 	S 	0.99486 0.26249 0.72679 0.02100
C 	C 	0.96566 0.29004 0.71858 -0.01800
C 	C 	0.94013 0.28163 0.75847 -0.04600
H 	H 	0.89950 0.24455 0.83135 0.05000
H 	H 	0.00716 0.19811 0.78094 0.05400
H 	H 	0.98400 0.14428 0.82402 0.05300
H 	H 	0.91902 0.29639 0.76605 0.04800
C 	C 	0.06186 0.27103 0.40619 -0.10400
C 	C 	0.07632 0.27795 0.34570 -0.04600
C 	C 	0.05845 0.27563 0.28247 -0.00600
C 	C 	0.02577 0.26570 0.27981 -0.12200
C 	C 	0.01016 0.26501 0.34191 -0.01700
C 	C 	0.02807 0.26818 0.40522 -0.02100
H 	H 	0.10197 0.28302 0.34722 0.02700
H 	H 	0.98436 0.26124 0.34103 -0.05900
C 	C 	0.01170 0.26812 0.46864 0.06600
C 	C 	0.07340 0.28497 0.22174 0.06800
N 	N 	0.99858 0.26808 0.51947 -0.11000
N 	N 	0.08542 0.29252 0.17319 -0.11300
C 	C 	0.02912 0.36957 0.92212 0.00200
C 	C 	0.00197 0.34981 0.90769 -0.05300
C 	C 	0.00596 0.31631 0.90398 0.02000
C 	C 	0.03701 0.30302 0.91030 -0.00000
C 	C 	0.06370 0.32270 0.93100 -0.05700
C 	C 	0.05938 0.35619 0.93879 0.02500
S 	S 	0.02749 0.40498 0.96669 -0.00500
C 	C 	0.06370 0.40535 0.00767 -0.01200
C 	C 	0.07882 0.37641 0.98656 -0.05800
S 	S 	0.03284 0.26621 0.93632 0.03200
C 	C 	0.99291 0.26531 0.94016 -0.06400
C 	C 	0.98129 0.29512 0.92096 -0.02200
H 	H 	0.97806 0.36010 0.90812 0.05000
H 	H 	0.08615 0.31209 0.94874 0.05000
H 	H 	0.10014 0.36772 0.01368 0.05500
H 	H 	0.95698 0.30313 0.92972 0.04700
C 	C 	0.36056 0.04768 0.55625 -0.05300
C 	C 	0.36296 0.01735 0.51876 0.10100
C 	C 	0.39345 0.00530 0.50392 -0.08500
C 	C 	0.42141 0.02105 0.53290 -0.00600
C 	C 	0.41870 0.04831 0.58029 0.07000
C 	C 	0.38832 0.06212 0.58966 -0.05500
N 	N 	0.33624 0.99928 0.49922 -0.20000
N 	N 	0.44507 0.06121 0.61678 -0.19400
H 	H 	0.38641 0.08444 0.62172 0.05000
H 	H 	0.45812 0.05563 0.45645 0.05600
H 	H 	0.50306 0.06742 0.39173 0.08500
H 	H 	0.44313 0.08216 0.64944 0.08200
H 	H 	0.46735 0.04971 0.61566 0.08800
H 	H 	0.31388 0.00531 0.51827 0.09200
H 	H 	0.33803 0.97773 0.46843 0.08400
C 	C 	0.31983 0.00418 0.88560 -0.04600
C 	C 	0.35045 0.99802 0.91777 0.09900
C 	C 	0.37782 0.99773 0.87872 -0.08700
C 	C 	0.37488 0.00091 0.80759 -0.00100
C 	C 	0.34494 0.00965 0.77678 0.07100
C 	C 	0.31778 0.01190 0.81658 -0.05200
N 	N 	0.35363 0.99099 0.98493 -0.20300
C 	C 	0.40138 0.98907 0.76498 -0.01100
N 	N 	0.34200 0.01529 0.70892 -0.19400
H 	H 	0.29457 0.01771 0.79260 0.05100
C 	C 	0.40151 0.95639 0.74131 -0.08400
H 	H 	0.37954 0.94224 0.74103 0.05400
H 	H 	0.40880 0.89570 0.70277 0.08400
H 	H 	0.31968 0.02120 0.68606 0.09000
H 	H 	0.36190 0.01424 0.67852 0.09200
H 	H 	0.33379 0.98869 0.01454 0.09600
H 	H 	0.37642 0.98700 0.00802 0.08800
C 	C 	0.84826 0.13398 0.24433 -0.08200
C 	C 	0.85484 0.12643 0.17507 -0.03300
C 	C 	0.86975 0.14917 0.13754 0.00300
C 	C 	0.87914 0.17949 0.17044 -0.08400
C 	C 	0.86723 0.18884 0.23499 -0.02600
C 	C 	0.85146 0.16640 0.27175 0.00500
H 	H 	0.84964 0.10237 0.15138 0.03300
H 	H 	0.87125 0.21326 0.25772 0.01800
C 	C 	0.83782 0.17716 0.33599 0.09000
C 	C 	0.87345 0.14186 0.06482 0.08000
N 	N 	0.82690 0.18587 0.38745 -0.10600
N 	N 	0.87634 0.13596 0.00652 -0.10000
C 	C 	0.98476 0.18104 0.44375 -0.02900
C 	C 	0.95301 0.16946 0.43611 -0.00200
H 	H 	0.99078 0.20388 0.42408 -0.01100
C 	C 	0.92767 0.19025 0.41248 0.00600
N 	N 	0.90737 0.20706 0.39398 -0.16400
C 	C 	0.87699 0.85279 0.67709 -0.07400
C 	C 	0.90060 0.87586 0.66678 -0.01300
C 	C 	0.93329 0.86900 0.67998 0.00000
C 	C 	0.94212 0.83987 0.70830 -0.06300
C 	C 	0.91923 0.81487 0.70574 -0.02100
H 	H 	0.89350 0.89953 0.65166 -0.01400
C 	C 	0.95759 0.89205 0.66545 0.05600
N 	N 	0.97707 0.91054 0.65388 -0.13300
C 	C 	0.80951 0.96548 0.61579 -0.10600
C 	C 	0.79546 0.99036 0.65626 -0.03100
C 	C 	0.81254 0.01899 0.67528 -0.00100
C 	C 	0.84481 0.02188 0.65726 -0.08300
C 	C 	0.85645 0.99952 0.60703 -0.06100
C 	C 	0.83936 0.97090 0.58754 -0.00800
H 	H 	0.77141 0.98721 0.67379 0.02800
H 	H 	0.88026 0.00287 0.58855 0.01500
C 	C 	0.85354 0.94652 0.54209 0.04400
C 	C 	0.79634 0.04560 0.71028 0.08100
N 	N 	0.86494 0.92699 0.50570 -0.11000
N 	N 	0.78326 0.06690 0.73825 -0.11000
C 	C 	0.86547 0.90295 0.97901 -0.08100
C 	C 	0.89203 0.90181 0.93793 -0.02500
C 	C 	0.89865 0.92751 0.89833 -0.01100
C 	C 	0.88010 0.95587 0.90374 -0.09700
C 	C 	0.85618 0.95866 0.95193 -0.03200
C 	C 	0.84887 0.93233 0.98986 -0.01400
H 	H 	0.90666 0.88029 0.93425 -0.00400
H 	H 	0.84249 0.98077 0.95809 0.03400
C 	C 	0.82576 0.93626 0.04229 0.07800
C 	C 	0.92302 0.92385 0.84871 0.02200
N 	N 	0.80741 0.93968 0.08467 -0.10800
N 	N 	0.94236 0.92130 0.80839 -0.14400
C 	C 	0.99400 0.12418 0.21456 -0.08700
H 	H 	0.97703 0.12513 0.31739 0.02300
C 	C 	0.00902 0.11332 0.09288 0.07900
N 	N 	0.00725 0.11917 0.03567 -0.11100
Cd	Cd	0.09033 0.98062 0.27967 1.24000
Cd	Cd	0.06533 0.02822 0.42859 1.17700
O 	O 	0.11523 0.92795 0.29663 -0.32300
O 	O 	0.10287 0.94344 0.19324 -0.35400
C 	C 	0.11466 0.92107 0.23041 0.27300
O 	O 	0.06234 0.02144 0.23594 -0.37000
O 	O 	0.06934 0.05499 0.33433 -0.41900
C 	C 	0.05333 0.04677 0.27554 0.28400
C 	C 	0.03074 0.96664 0.33640 0.29900
O 	O 	0.11490 0.00897 0.39611 -0.45400
O 	O 	0.03424 0.94938 0.27847 -0.29400
O 	O 	0.05688 0.98073 0.36321 -0.53400
C 	C 	0.13491 0.02382 0.35971 0.28900
O 	O 	0.13569 0.01293 0.29525 -0.35600
Cd	Cd	0.84521 0.81546 0.09655 1.24000
Cd	Cd	0.83898 0.80366 0.91323 1.18100
O 	O 	0.84358 0.76669 0.15963 -0.32100
O 	O 	0.85603 0.81370 0.21267 -0.34900
C 	C 	0.85375 0.78260 0.21662 0.27400
O 	O 	0.85561 0.86467 0.06343 -0.37700
O 	O 	0.83208 0.85553 0.95423 -0.42400
C 	C 	0.85190 0.87229 0.99880 0.27800
C 	C 	0.90079 0.79533 0.02476 0.29400
O 	O 	0.80560 0.79103 0.99800 -0.46400
O 	O 	0.90816 0.80506 0.08899 -0.31600
O 	O 	0.87012 0.79246 0.00854 -0.52400
C 	C 	0.78298 0.80953 0.02171 0.30000
O 	O 	0.79003 0.82487 0.08180 -0.34600
C 	C 	0.97107 0.63881 0.05573 0.11900
N 	N 	0.96274 0.60715 0.04270 -0.14200
C 	C 	0.96497 0.59258 0.97833 0.12500
N 	N 	0.97626 0.60946 0.92768 -0.14300
C 	C 	0.98386 0.64120 0.93995 0.12400
N 	N 	0.98099 0.65596 0.00388 -0.13700
C 	C 	0.03891 0.73673 0.38158 0.12000
N 	N 	0.03191 0.70919 0.34160 -0.14000
C 	C 	0.02528 0.68156 0.37104 0.13000
N 	N 	0.02440 0.68176 0.44047 -0.14400
C 	C 	0.03141 0.70923 0.48079 0.12800
N 	N 	0.03891 0.73672 0.45132 -0.14000
Cd	Cd	0.77045 0.87122 0.63409 1.24100
O 	O 	0.71510 0.88420 0.59442 -0.32000
O 	O 	0.74227 0.84537 0.54208 -0.34900
C 	C 	0.71539 0.86119 0.54548 0.27400
O 	O 	0.82155 0.85493 0.63462 -0.38000
O 	O 	0.83452 0.87308 0.74667 -0.44000
C 	C 	0.84340 0.86315 0.68469 0.28000
O 	O 	0.76193 0.88790 0.76538 -0.45100
C 	C 	0.75966 0.85724 0.77470 0.27800
O 	O 	0.75998 0.83760 0.71925 -0.36000
Cd	Cd	0.85910 0.07185 0.41017 1.24200
Cd	Cd	0.91586 0.07543 0.27950 1.17500
O 	O 	0.81718 0.02950 0.39460 -0.31500
O 	O 	0.82293 0.06138 0.48994 -0.34800
C 	C 	0.80718 0.03776 0.45536 0.27500
O 	O 	0.89636 0.10738 0.45630 -0.37300
O 	O 	0.91414 0.11991 0.35215 -0.42200
C 	C 	0.91842 0.11995 0.41966 0.28300
C 	C 	0.91072 0.02706 0.40418 0.29900
O 	O 	0.89649 0.02589 0.46210 -0.29600
O 	O 	0.89635 0.04423 0.35912 -0.53500
C 	C 	0.53011 0.90846 0.69355 0.11800
N 	N 	0.50421 0.92780 0.68395 -0.14500
C 	C 	0.49067 0.94314 0.73906 0.12800
N 	N 	0.50429 0.94081 0.80331 -0.14300
C 	C 	0.53076 0.92238 0.81301 0.12800
N 	N 	0.54317 0.90546 0.75833 -0.14300
C 	C 	0.59680 0.97415 0.42580 0.11900
N 	N 	0.59675 0.96539 0.35718 -0.14200
C 	C 	0.56883 0.96539 0.31757 0.12700
N 	N 	0.54078 0.97328 0.34707 -0.14400
C 	C 	0.54086 0.98231 0.41551 0.12800
N 	N 	0.56886 0.98276 0.45477 -0.14100
N 	N 	0.96647 0.34837 0.74876 -0.14300
C 	C 	0.97601 0.37873 0.73723 0.12800
N 	N 	0.99082 0.38395 0.67861 -0.14400
C 	C 	0.05328 0.46221 0.15804 0.12900
N 	N 	0.06229 0.44381 0.21032 -0.14400
Cd	Cd	0.09190 0.19162 0.36309 1.16500
O 	O 	0.06061 0.16202 0.42599 -0.43300
O 	O 	0.13397 0.17812 0.43888 -0.45600
C 	C 	0.13578 0.15267 0.47403 0.29500
O 	O 	0.12643 0.15631 0.53695 -0.35800
C 	C 	0.09652 0.40037 0.30992 -0.05200
C 	C 	0.08960 0.39164 0.37578 0.07000
H 	H 	0.11629 0.41690 0.30440 0.04900
N 	N 	0.10854 0.40299 0.43156 -0.19400
H 	H 	0.12821 0.41805 0.42562 0.08500
H 	H 	0.10435 0.39658 0.48104 0.08800
H 	H 	0.39545 0.98358 0.46995 0.05400
C 	C 	0.45303 0.01150 0.50648 -0.00300
C 	C 	0.46865 0.03238 0.46556 -0.08600
C 	C 	0.49783 0.02362 0.43669 0.10300
C 	C 	0.51086 0.99279 0.44665 -0.05100
C 	C 	0.49521 0.97183 0.48720 -0.05100
C 	C 	0.46665 0.98105 0.51824 0.07000
N 	N 	0.51333 0.04505 0.40032 -0.19900
H 	H 	0.50527 0.94824 0.49467 0.05100
N 	N 	0.45254 0.96069 0.55927 -0.19400
H 	H 	0.53605 0.04019 0.38195 0.09100
H 	H 	0.46200 0.93773 0.56526 0.09100
H 	H 	0.43257 0.96763 0.58683 0.09100
H 	H 	0.40113 0.99219 0.90259 0.05500
C 	C 	0.43040 0.94116 0.72459 0.09700
C 	C 	0.45945 0.95931 0.73050 -0.05000
C 	C 	0.45824 0.99296 0.74329 -0.05800
C 	C 	0.42929 0.00808 0.76045 0.07500
N 	N 	0.43022 0.90905 0.70482 -0.20000
H 	H 	0.48021 0.00714 0.74395 0.05000
N 	N 	0.42851 0.04065 0.77352 -0.19500
H 	H 	0.45099 0.89720 0.68944 0.09300
H 	H 	0.44952 0.05447 0.77295 0.08300
H 	H 	0.40685 0.05261 0.78173 0.08800
C 	C 	0.54431 0.91893 0.88350 -0.05100
C 	C 	0.57250 0.93605 0.90913 0.10400
C 	C 	0.57986 0.93955 0.98056 -0.09500
C 	C 	0.55943 0.92661 0.02651 0.00000
C 	C 	0.53279 0.90722 0.00049 0.07300
C 	C 	0.52573 0.90329 0.92904 -0.05500
N 	N 	0.59216 0.94974 0.86579 -0.20000
H 	H 	0.60079 0.95361 0.00060 0.06100
C 	C 	0.56377 0.93697 0.10096 -0.00600
N 	N 	0.51358 0.89283 0.04371 -0.19400
H 	H 	0.50464 0.88946 0.90907 0.04800
C 	C 	0.55163 0.96695 0.12472 -0.08400
C 	C 	0.55523 0.97774 0.19472 0.10000
C 	C 	0.56901 0.95699 0.24257 -0.04900
C 	C 	0.58190 0.92732 0.21865 -0.05300
C 	C 	0.57995 0.91732 0.14799 0.07200
H 	H 	0.54000 0.98230 0.08829 0.05500
N 	N 	0.54666 0.00840 0.21513 -0.19700
H 	H 	0.59311 0.91175 0.25517 0.05100
N 	N 	0.59330 0.88881 0.12589 -0.19400
H 	H 	0.53485 0.02290 0.18026 0.08600
H 	H 	0.55345 0.01883 0.26420 0.09200
H 	H 	0.60478 0.87427 0.16112 0.08800
H 	H 	0.59280 0.88097 0.07368 0.09200
H 	H 	0.49365 0.87901 0.02402 0.08500
H 	H 	0.51841 0.89479 0.09698 0.09000
H 	H 	0.58788 0.94692 0.81241 0.09600
H 	H 	0.61248 0.96298 0.88537 0.08600
C 	C 	0.94582 0.13823 0.45475 -0.06800
C 	C 	0.96897 0.12182 0.49363 -0.01800
C 	C 	0.00060 0.13389 0.50367 0.00800
C 	C 	0.00888 0.16287 0.47535 -0.07100
H 	H 	0.96303 0.09856 0.51160 0.04300
C 	C 	0.02465 0.11573 0.54030 0.06800
N 	N 	0.04395 0.10117 0.56956 -0.14100
C 	C 	0.67795 0.99407 0.53257 -0.00100
C 	C 	0.70322 0.01607 0.55011 -0.05300
C 	C 	0.73425 0.00720 0.53136 0.01900
C 	C 	0.73911 0.97772 0.49305 0.00200
C 	C 	0.71313 0.95828 0.46672 -0.05200
C 	C 	0.68238 0.96638 0.48802 0.02700
S 	S 	0.63931 0.00420 0.52477 0.01000
C 	C 	0.62679 0.97360 0.46897 -0.02200
C 	C 	0.65361 0.95508 0.45156 -0.04800
S 	S 	0.77347 0.98056 0.45453 0.05700
C 	C 	0.78447 0.01747 0.48773 -0.06200
C 	C 	0.75981 0.02972 0.52815 -0.02100
H 	H 	0.69859 0.03993 0.57370 0.04900
H 	H 	0.71643 0.93872 0.42778 0.05500
H 	H 	0.65330 0.93742 0.40771 0.04800
H 	H 	0.75816 0.05495 0.54603 0.05100
C 	C 	0.88654 0.82130 0.69109 0.01000
H 	H 	0.92637 0.79116 0.71999 0.03200
C 	C 	0.86287 0.79607 0.69479 0.05900
N 	N 	0.84389 0.77588 0.69783 -0.13300
C 	C 	0.62788 0.83192 0.54021 0.00100
C 	C 	0.60316 0.82988 0.58573 -0.05500
C 	C 	0.57801 0.85219 0.58280 0.02300
C 	C 	0.57799 0.87613 0.53546 0.00300
C 	C 	0.60458 0.88055 0.49615 -0.05400
C 	C 	0.62971 0.85811 0.49874 0.01900
S 	S 	0.66532 0.82048 0.55878 0.03100
C 	C 	0.68512 0.84690 0.51589 -0.06300
C 	C 	0.66177 0.86607 0.48431 -0.02100
S 	S 	0.55475 0.90607 0.56458 0.00500
C 	C 	0.54271 0.88955 0.63440 -0.02200
C 	C 	0.55824 0.85984 0.63880 -0.04600
H 	H 	0.60497 0.81339 0.62627 0.05000
H 	H 	0.60688 0.90216 0.46901 0.05100
H 	H 	0.66788 0.88850 0.46324 0.04200
H 	H 	0.55887 0.84658 0.68465 0.04900
C 	C 	0.03853 0.49415 0.17297 -0.05400
C 	C 	0.01956 0.50019 0.23064 0.10000
C 	C 	0.01414 0.53214 0.25527 -0.08700
C 	C 	0.02287 0.55782 0.21721 -0.00500
C 	C 	0.03614 0.55122 0.15238 0.06900
C 	C 	0.04536 0.51958 0.13237 -0.05600
N 	N 	0.00509 0.47563 0.25982 -0.19900
H 	H 	0.00275 0.53702 0.30366 0.05500
C 	C 	0.02263 0.59115 0.25007 -0.00400
N 	N 	0.03961 0.57501 0.10903 -0.19500
H 	H 	0.05803 0.51485 0.08556 0.05200
C 	C 	0.05210 0.60726 0.26579 -0.08500
C 	C 	0.05351 0.63681 0.30551 0.10200
C 	C 	0.02472 0.65068 0.32925 -0.04900
C 	C 	0.99527 0.63460 0.31377 -0.05100
C 	C 	0.99379 0.60535 0.27270 0.07100
H 	H 	0.07419 0.59617 0.24898 0.05600
N 	N 	0.08263 0.65121 0.32241 -0.19900
H 	H 	0.97335 0.64515 0.33279 0.05000
N 	N 	0.96469 0.59125 0.25450 -0.19400
H 	H 	0.10363 0.64107 0.30337 0.08600
H 	H 	0.08491 0.67203 0.35580 0.09200
H 	H 	0.94375 0.60064 0.27533 0.08400
H 	H 	0.96234 0.57205 0.21678 0.08800
H 	H 	0.05012 0.57013 0.06191 0.08700
H 	H 	0.03038 0.59805 0.12004 0.09300
H 	H 	0.00308 0.45260 0.23447 0.09100
H 	H 	0.99318 0.48006 0.30540 0.08300
C 	C 	0.95454 0.55866 0.96261 -0.05700
C 	C 	0.93601 0.54945 0.90109 0.10400
C 	C 	0.93622 0.51719 0.87408 -0.08900
C 	C 	0.95246 0.49371 0.91038 -0.00300
C 	C 	0.96592 0.50204 0.97768 0.06100
C 	C 	0.96754 0.53468 0.00268 -0.04300
N 	N 	0.91773 0.57136 0.86848 -0.19900
H 	H 	0.92432 0.51047 0.82410 0.05500
C 	C 	0.95927 0.46206 0.87385 -0.00600
N 	N 	0.97685 0.47886 0.01858 -0.19100
H 	H 	0.97986 0.54145 0.05213 0.04900
C 	C 	0.98993 0.45672 0.84896 -0.08500
C 	C 	0.99666 0.42816 0.80944 0.10200
C 	C 	0.97144 0.40582 0.78943 -0.05100
C 	C 	0.94103 0.41061 0.81623 -0.05400
C 	C 	0.93487 0.43828 0.85946 0.06900
H 	H 	0.00883 0.47457 0.86165 0.05600
N 	N 	0.02758 0.42154 0.79408 -0.19800
H 	H 	0.92197 0.39303 0.80265 0.04900
N 	N 	0.90565 0.44174 0.88719 -0.19400
H 	H 	0.04570 0.43892 0.80548 0.08700
H 	H 	0.03440 0.39836 0.77634 0.09500
H 	H 	0.88751 0.42447 0.87491 0.08300
H 	H 	0.90097 0.46102 0.92265 0.08700
H 	H 	0.98679 0.48515 0.06816 0.09000
H 	H 	0.97389 0.45439 0.00302 0.09200
H 	H 	0.91419 0.59451 0.89149 0.09000
H 	H 	0.90538 0.56481 0.82131 0.08400
C 	C 	0.99106 0.66029 0.88175 -0.04800
C 	C 	0.02179 0.67456 0.87701 0.10600
C 	C 	0.02914 0.68824 0.81591 -0.07900
C 	C 	0.00716 0.68633 0.75841 0.00100
C 	C 	0.97646 0.67198 0.76326 0.06900
C 	C 	0.96827 0.66057 0.82600 -0.05000
N 	N 	0.04465 0.67430 0.92970 -0.19800
H 	H 	0.05261 0.69920 0.81209 0.06500
C 	C 	0.01777 0.69657 0.69174 -0.00300
N 	N 	0.95519 0.66818 0.70756 -0.19400
H 	H 	0.94465 0.64994 0.83004 0.04600
C 	C 	0.04087 0.67808 0.65712 -0.08500
C 	C 	0.04873 0.68463 0.59047 0.10300
C 	C 	0.03174 0.70880 0.55642 -0.04800
C 	C 	0.01103 0.72931 0.59329 -0.05300
C 	C 	0.00406 0.72363 0.66112 0.07700
H 	H 	0.05248 0.65831 0.68183 0.05500
N 	N 	0.07289 0.66804 0.55985 -0.19800
H 	H 	0.99899 0.74868 0.56802 0.05500
N 	N 	0.98346 0.74348 0.69547 -0.19500
H 	H 	0.08439 0.64924 0.58396 0.08600
H 	H 	0.08156 0.67472 0.51363 0.09200
H 	H 	0.97316 0.76307 0.67201 0.09300
H 	H 	0.97757 0.73980 0.74561 0.09800
H 	H 	0.93225 0.65853 0.71240 0.08300
H 	H 	0.96144 0.67357 0.65859 0.09000
H 	H 	0.04069 0.66302 0.97453 0.09700
H 	H 	0.06707 0.68527 0.92584 0.09200
C 	C 	0.75878 0.82210 0.97259 -0.09300
C 	C 	0.74797 0.80144 0.91573 -0.03100
C 	C 	0.74447 0.81316 0.85022 -0.01300
C 	C 	0.75162 0.84600 0.84237 -0.08900
C 	C 	0.75454 0.86755 0.90168 -0.02000
C 	C 	0.75641 0.85557 0.96712 -0.00000
H 	H 	0.74573 0.77575 0.92121 0.03400
H 	H 	0.75619 0.89333 0.89696 0.01700
C 	C 	0.75344 0.87725 0.02768 0.09100
C 	C 	0.73204 0.79190 0.79277 0.07800
N 	N 	0.75076 0.89451 0.07641 -0.10600
N 	N 	0.72205 0.77481 0.74682 -0.11300
C 	C 	0.92537 0.78067 0.98028 -0.12800
C 	C 	0.95080 0.76331 0.01048 0.00200
C 	C 	0.97900 0.75744 0.97534 -0.02200
C 	C 	0.98087 0.76709 0.90802 -0.10000
C 	C 	0.95282 0.77710 0.87331 -0.05300
C 	C 	0.92649 0.78751 0.91048 -0.01700
H 	H 	0.94959 0.75658 0.06303 0.04000
H 	H 	0.95379 0.78253 0.82018 0.02600
C 	C 	0.90460 0.81010 0.88063 -0.06000
C 	C 	0.00674 0.74414 0.01064 0.07900
N 	N 	0.88759 0.82844 0.85567 -0.18300
N 	N 	0.02903 0.73359 0.03900 -0.11600
C 	C 	0.96204 0.70105 0.21438 0.00300
C 	C 	0.95411 0.73299 0.23399 -0.05200
C 	C 	0.92493 0.73899 0.26548 0.02000
C 	C 	0.90443 0.71317 0.27716 0.00000
C 	C 	0.91068 0.68174 0.24995 -0.05600
C 	C 	0.93960 0.67593 0.21766 0.02100
S 	S 	0.98535 0.69077 0.14981 0.01800
C 	C 	0.96929 0.65448 0.12570 -0.02300
C 	C 	0.94353 0.64983 0.16740 -0.04500
S 	S 	0.86747 0.72786 0.27948 0.03000
C 	C 	0.87499 0.76626 0.26519 -0.06100
C 	C 	0.90855 0.76883 0.26112 -0.02200
H 	H 	0.96813 0.75273 0.21755 0.05000
H 	H 	0.89216 0.66323 0.24759 0.04600
H 	H 	0.92551 0.63106 0.15537 0.04600
H 	H 	0.91964 0.78947 0.24073 0.05200
C 	C 	0.02849 0.06899 0.25001 -0.08300
C 	C 	0.02912 0.07904 0.18299 -0.01500
C 	C 	0.01120 0.10595 0.16426 -0.01000
C 	C 	0.99110 0.11215 0.27933 -0.06900
C 	C 	0.00737 0.08420 0.29632 -0.01400
H 	H 	0.04411 0.06647 0.14597 0.05200
C 	C 	0.00298 0.07165 0.36223 0.00100
N 	N 	0.99969 0.06149 0.41503 -0.17200
C 	C 	0.99883 0.97950 0.35334 -0.10500
C 	C 	0.99060 0.98282 0.42232 -0.03200
C 	C 	0.96150 0.99739 0.44024 0.00100
C 	C 	0.93988 0.00808 0.38797 -0.09400
C 	C 	0.94754 0.00306 0.31878 -0.02300
C 	C 	0.97717 0.99012 0.30137 0.00100
H 	H 	0.00725 0.97485 0.46232 0.00800
H 	H 	0.93088 0.01060 0.27834 -0.02000
C 	C 	0.98594 0.98991 0.23058 0.05800
C 	C 	0.95499 0.00253 0.51228 0.06900
N 	N 	0.99289 0.98981 0.17387 -0.11100
N 	N 	0.94991 0.00662 0.57007 -0.15800
C 	C 	0.14582 0.05700 0.38240 -0.08500
C 	C 	0.15619 0.06396 0.45167 -0.03300
C 	C 	0.15586 0.09574 0.48123 0.00600
C 	C 	0.14410 0.12069 0.44147 -0.09500
C 	C 	0.13831 0.11437 0.37013 -0.00600
C 	C 	0.13978 0.08281 0.34010 -0.00400
H 	H 	0.16318 0.04445 0.48326 0.03200
H 	H 	0.13135 0.13382 0.33836 -0.02300
C 	C 	0.13400 0.07717 0.26639 0.07700
C 	C 	0.16872 0.10265 0.55118 0.07700
N 	N 	0.12931 0.07272 0.20734 -0.11700
N 	N 	0.17903 0.10820 0.60722 -0.11300
C 	C 	0.06096 0.79400 0.24379 0.00300
C 	C 	0.05942 0.82043 0.20341 -0.05200
C 	C 	0.08789 0.83776 0.19598 0.01600
C 	C 	0.11699 0.82870 0.22950 0.00300
C 	C 	0.11747 0.80476 0.27649 -0.05700
C 	C 	0.08908 0.78734 0.28318 0.02600
S 	S 	0.02994 0.78025 0.28334 0.00500
C 	C 	0.05027 0.76513 0.34989 -0.01700
C 	C 	0.08310 0.77070 0.34221 -0.04700
S 	S 	0.14039 0.86125 0.24002 0.02500
C 	C 	0.11600 0.88745 0.20253 -0.06300
C 	C 	0.08765 0.87053 0.17976 -0.02100
H 	H 	0.03641 0.82896 0.18340 0.04100
H 	H 	0.13835 0.80191 0.31125 0.04900
H 	H 	0.10203 0.76248 0.37701 0.04700
H 	H 	0.06561 0.88276 0.16514 0.04400
