data_crystal

_cell_length_a 39.33877
_cell_length_b 37.32426
_cell_length_c 22.77066
_cell_angle_alpha 89.96190
_cell_angle_beta  89.94545
_cell_angle_gamma 87.40270

_symmetry_space_group_name_	'P 1'
_symmetry_space_group_name_H-M	'P 1'

loop_
_symmetry_equiv_pos_as_xyz
  x,y,z

loop_
_atom_site_label
_atom_site_type_symbol
_atom_site_fract_x
_atom_site_fract_y
_atom_site_fract_z
_atom_site_charge
C 	C 	0.45083 0.54661 0.08551 -0.04200
C 	C 	0.48216 0.56266 0.08514 -0.04100
C 	C 	0.44886 0.50960 0.07453 0.00700
C 	C 	0.47923 0.48811 0.06855 -0.00700
C 	C 	0.51106 0.50433 0.06885 -0.00700
C 	C 	0.51243 0.54200 0.07504 0.00700
C 	C 	0.47782 0.45046 0.06197 0.00700
C 	C 	0.50839 0.42935 0.05884 -0.04100
C 	C 	0.54144 0.48294 0.06212 0.00700
C 	C 	0.54422 0.55822 0.07181 -0.00900
C 	C 	0.57412 0.53681 0.06600 -0.04700
C 	C 	0.57302 0.49961 0.05969 -0.01000
C 	C 	0.41704 0.49355 0.06987 -0.00900
C 	C 	0.41586 0.45636 0.06297 -0.04700
C 	C 	0.44575 0.43469 0.05896 -0.00900
C 	C 	0.54646 0.59757 0.06787 0.01100
C 	C 	0.54174 0.61480 0.01353 -0.04100
C 	C 	0.54943 0.65078 0.00712 -0.04000
C 	C 	0.56170 0.66986 0.05509 0.01400
C 	C 	0.56523 0.65304 0.10998 -0.04100
C 	C 	0.55769 0.61698 0.11634 -0.04400
C 	C 	0.60484 0.47912 0.04524 0.01400
C 	C 	0.62630 0.46633 0.09048 -0.04500
C 	C 	0.65998 0.45539 0.07808 -0.04300
C 	C 	0.61642 0.47801 0.98695 -0.04700
C 	C 	0.65019 0.46747 0.97469 -0.04600
C 	C 	0.67254 0.45818 0.02070 0.01200
C 	C 	0.38480 0.51547 0.06753 0.01100
C 	C 	0.35989 0.51127 0.11080 -0.04400
C 	C 	0.32737 0.52729 0.10371 -0.03900
C 	C 	0.31978 0.54847 0.05410 0.01400
C 	C 	0.34522 0.55418 0.01235 -0.04000
C 	C 	0.37745 0.53734 0.01859 -0.04100
C 	C 	0.44284 0.39576 0.04891 0.01400
C 	C 	0.44922 0.38120 0.99295 -0.04600
C 	C 	0.44227 0.34549 0.98133 -0.04400
C 	C 	0.42827 0.32424 0.02523 0.01600
C 	C 	0.42209 0.33871 0.08128 -0.03900
C 	C 	0.42969 0.37420 0.09325 -0.04400
C 	C 	0.53974 0.44538 0.05831 -0.04100
H 	H 	0.53319 0.59997 0.97584 0.03600
H 	H 	0.54655 0.66363 0.96462 0.03400
H 	H 	0.57455 0.66766 0.14730 0.03900
H 	H 	0.56150 0.60384 0.15841 0.03800
H 	H 	0.33956 0.57043 0.97384 0.03600
H 	H 	0.39645 0.54054 0.98474 0.03700
H 	H 	0.30768 0.52192 0.13535 0.03800
H 	H 	0.36530 0.49434 0.14861 0.03800
H 	H 	0.45899 0.39775 0.95825 0.03900
H 	H 	0.44705 0.33455 0.93788 0.03800
H 	H 	0.42433 0.38532 0.13638 0.03800
H 	H 	0.41061 0.32279 0.11507 0.03700
H 	H 	0.61738 0.46658 0.13551 0.03800
H 	H 	0.67684 0.44692 0.11354 0.03700
H 	H 	0.59982 0.48734 0.95165 0.03800
H 	H 	0.65950 0.46864 0.92997 0.03700
H 	H 	0.42814 0.56310 0.09499 0.04100
H 	H 	0.48276 0.59116 0.09358 0.04100
H 	H 	0.59841 0.54941 0.06340 0.04200
H 	H 	0.56270 0.42836 0.05550 0.04000
H 	H 	0.50809 0.40039 0.05708 0.04100
H 	H 	0.39140 0.44425 0.05906 0.04300
Zn	Zn	0.36991 0.11637 0.98742 1.22000
C 	C 	0.31193 0.07127 0.99105 0.32800
O 	O 	0.39797 0.10711 0.05786 -0.47600
O 	O 	0.33160 0.04380 0.97424 -0.45100
O 	O 	0.37345 0.05550 0.08064 -0.49500
C 	C 	0.38864 0.07146 0.89044 0.33100
O 	O 	0.36835 0.09838 0.90728 -0.46000
O 	O 	0.40381 0.05043 0.92957 -0.51800
C 	C 	0.39014 0.08332 0.09726 0.31900
O 	O 	0.41116 0.15597 0.95496 -0.34100
Zn	Zn	0.38111 0.03688 0.00190 1.17000
O 	O 	0.32540 0.09982 0.01373 -0.44200
C 	C 	0.38907 0.18130 0.96957 0.28700
O 	O 	0.36066 0.17039 0.99016 -0.40100
C 	C 	0.50331 0.96981 0.53563 0.00800
C 	C 	0.47413 0.99376 0.53510 0.00600
C 	C 	0.52900 0.97340 0.49337 -0.05800
C 	C 	0.52583 0.00042 0.45043 0.00900
C 	C 	0.47054 0.02013 0.49117 -0.05500
C 	C 	0.49611 0.02349 0.44863 0.00700
H 	H 	0.44810 0.03804 0.49025 0.04700
H 	H 	0.55140 0.95544 0.49412 0.04800
C 	C 	0.49312 0.04995 0.40434 -0.01400
C 	C 	0.51806 0.05259 0.36041 0.00400
C 	C 	0.50504 0.06839 0.30746 -0.05600
C 	C 	0.47011 0.07714 0.30991 -0.00200
S 	S 	0.45616 0.06538 0.37602 -0.01700
H 	H 	0.51948 0.06977 0.26718 0.03700
C 	C 	0.55199 0.00554 0.40922 -0.01400
C 	C 	0.54793 0.03048 0.36340 0.00400
C 	C 	0.56947 0.02227 0.31442 -0.05600
C 	C 	0.58948 0.99053 0.32143 -0.00400
S 	S 	0.58000 0.97357 0.38685 -0.01800
H 	H 	0.56769 0.03640 0.27301 0.03500
C 	C 	0.48271 0.94258 0.62631 0.00400
C 	C 	0.50604 0.94301 0.57953 -0.01400
S 	S 	0.54285 0.92436 0.60371 -0.01900
C 	C 	0.53078 0.91522 0.67213 -0.00100
C 	C 	0.49674 0.92682 0.67841 -0.05500
C 	C 	0.44895 0.99010 0.57867 -0.01400
C 	C 	0.45364 0.96581 0.62520 0.00500
C 	C 	0.43352 0.97509 0.67540 -0.05700
C 	C 	0.41356 0.00678 0.66812 -0.00200
S 	S 	0.42200 0.02298 0.60160 -0.01700
H 	H 	0.43637 0.96185 0.71747 0.03800
H 	H 	0.48408 0.92778 0.72058 0.03900
Zn	Zn	0.62565 0.87774 0.00075 1.22000
C 	C 	0.68241 0.92132 0.97484 0.33000
O 	O 	0.60753 0.89685 0.07576 -0.46700
O 	O 	0.66028 0.94278 0.94729 -0.45300
O 	O 	0.62762 0.95256 0.06391 -0.49900
C 	C 	0.59541 0.90640 0.89600 0.33200
O 	O 	0.61974 0.88462 0.91610 -0.46400
O 	O 	0.58356 0.93281 0.92909 -0.52000
C 	C 	0.61582 0.92773 0.09797 0.32100
O 	O 	0.57988 0.83903 0.99712 -0.34700
Zn	Zn	0.61324 0.95672 0.98317 1.16800
O 	O 	0.67206 0.89448 0.00662 -0.43600
C 	C 	0.60237 0.81394 0.01093 0.29000
O 	O 	0.63307 0.82432 0.01823 -0.38400
Zn	Zn	0.11552 0.61007 0.00700 1.22100
C 	C 	0.06786 0.66829 0.97590 0.33200
O 	O 	0.10295 0.59579 0.08713 -0.46600
O 	O 	0.04754 0.64372 0.95728 -0.45400
O 	O 	0.04852 0.61842 0.08083 -0.50000
C 	C 	0.08511 0.57115 0.91363 0.33200
O 	O 	0.10559 0.59695 0.92575 -0.45900
O 	O 	0.06197 0.56234 0.95180 -0.52100
C 	C 	0.07458 0.60722 0.11265 0.32300
O 	O 	0.15766 0.56306 0.00702 -0.33800
Zn	Zn	0.04074 0.59754 0.00465 1.17000
O 	O 	0.09525 0.65908 0.00633 -0.44100
C 	C 	0.17903 0.58832 0.01195 0.29200
O 	O 	0.16574 0.62061 0.01458 -0.39100
C 	C 	0.02789 0.48673 0.54786 0.00600
C 	C 	0.00030 0.46362 0.54248 0.00900
C 	C 	0.03087 0.51536 0.50821 -0.05700
C 	C 	0.00563 0.52237 0.46555 0.00700
C 	C 	0.97643 0.46922 0.49711 -0.05700
C 	C 	0.97831 0.49909 0.45988 0.00700
H 	H 	0.95583 0.45117 0.49208 0.04700
H 	H 	0.05204 0.53281 0.51178 0.04600
C 	C 	0.95224 0.50765 0.41917 -0.01400
C 	C 	0.95271 0.53860 0.38397 0.00300
C 	C 	0.93287 0.53577 0.33187 -0.05600
C 	C 	0.91971 0.50191 0.32444 -0.00200
S 	S 	0.93086 0.47717 0.38272 -0.01700
H 	H 	0.93201 0.55564 0.29730 0.03700
C 	C 	0.00596 0.55338 0.43016 -0.01500
C 	C 	0.98018 0.56134 0.38886 0.00300
C 	C 	0.99122 0.58335 0.34195 -0.05800
C 	C 	0.02564 0.59113 0.34519 -0.00200
S 	S 	0.04133 0.57126 0.40553 -0.01900
H 	H 	0.97638 0.58879 0.30278 0.03700
C 	C 	0.04454 0.45694 0.64024 0.00400
C 	C 	0.05092 0.48146 0.59504 -0.01300
S 	S 	0.07361 0.51380 0.62410 -0.02100
C 	C 	0.07654 0.49818 0.69253 -0.00100
C 	C 	0.05929 0.46634 0.69496 -0.05600
C 	C 	0.99658 0.43628 0.58471 -0.01500
C 	C 	0.01726 0.43411 0.63490 0.00500
C 	C 	0.00142 0.41748 0.68358 -0.05400
C 	C 	0.96828 0.40736 0.67190 -0.00200
S 	S 	0.95952 0.41915 0.60262 -0.01800
H 	H 	0.01142 0.41792 0.72770 0.04000
H 	H 	0.05421 0.45305 0.73601 0.04100
Zn	Zn	0.88068 0.40510 0.99957 1.21900
C 	C 	0.81721 0.44450 0.98431 0.32300
O 	O 	0.87703 0.40753 0.91380 -0.46000
O 	O 	0.83332 0.46670 0.95043 -0.46100
O 	O 	0.90646 0.45834 0.90899 -0.51900
C 	C 	0.89229 0.45761 0.08839 0.32600
O 	O 	0.90436 0.42783 0.06396 -0.47400
O 	O 	0.87647 0.48231 0.05640 -0.50700
C 	C 	0.89503 0.42975 0.88360 0.33300
O 	O 	0.92916 0.36596 0.98961 -0.33800
Zn	Zn	0.88122 0.48307 0.97169 1.16600
O 	O 	0.83445 0.42237 0.01921 -0.45200
C 	C 	0.90901 0.34109 0.00538 0.29400
O 	O 	0.87782 0.35177 0.01568 -0.39000
C 	C 	0.93341 0.02387 0.99651 -0.05100
C 	C 	0.95096 0.05539 0.00097 -0.03000
C 	C 	0.95062 0.99134 0.98088 0.01000
C 	C 	0.98638 0.99045 0.97304 -0.01300
C 	C 	0.00418 0.02247 0.97752 -0.00100
C 	C 	0.98617 0.05534 0.98948 -0.00200
C 	C 	0.00438 0.95757 0.96109 0.00900
C 	C 	0.03970 0.95740 0.95063 -0.04300
C 	C 	0.03996 0.02156 0.97002 0.00400
C 	C 	0.00393 0.08751 0.99076 -0.00400
C 	C 	0.03943 0.08616 0.98586 -0.05000
C 	C 	0.05767 0.05357 0.97672 -0.00700
C 	C 	0.93288 0.95938 0.97409 -0.01100
C 	C 	0.95102 0.92690 0.96355 -0.04600
C 	C 	0.98653 0.92550 0.95891 -0.01100
C 	C 	0.98568 0.12296 0.99442 0.00600
C 	C 	0.96572 0.13571 0.94712 -0.04200
C 	C 	0.95068 0.17034 0.94860 -0.03900
C 	C 	0.95646 0.19293 0.99647 0.01300
C 	C 	0.97611 0.18004 0.04403 -0.04200
C 	C 	0.99047 0.14513 0.04318 -0.04000
C 	C 	0.09532 0.05341 0.97574 0.00900
C 	C 	0.11421 0.03818 0.02247 -0.04100
C 	C 	0.14953 0.04096 0.02426 -0.03600
C 	C 	0.11203 0.07158 0.93097 -0.04300
C 	C 	0.14723 0.07507 0.93344 -0.04300
C 	C 	0.16612 0.05996 0.98027 0.01100
C 	C 	0.89531 0.95936 0.97759 0.00900
C 	C 	0.87969 0.94231 0.02476 -0.04100
C 	C 	0.84457 0.93814 0.02456 -0.04100
C 	C 	0.82470 0.95126 0.97741 0.01100
C 	C 	0.84013 0.96956 0.93132 -0.03800
C 	C 	0.87536 0.97319 0.93106 -0.04400
C 	C 	0.00471 0.89000 0.95652 0.01000
C 	C 	0.00246 0.86862 0.90615 -0.04400
C 	C 	0.01497 0.83296 0.90704 -0.03800
C 	C 	0.02994 0.81852 0.95823 0.01000
C 	C 	0.03354 0.84038 0.00773 -0.04000
C 	C 	0.02085 0.87594 0.00696 -0.04200
C 	C 	0.05723 0.98896 0.95487 -0.04100
H 	H 	0.96207 0.11886 0.90912 0.03900
H 	H 	0.93511 0.17988 0.91209 0.04000
H 	H 	0.98066 0.19726 0.08122 0.03800
H 	H 	0.00589 0.13552 0.07982 0.03800
H 	H 	0.82494 0.98020 0.89511 0.03900
H 	H 	0.88721 0.98628 0.89436 0.03900
H 	H 	0.83289 0.92406 0.06038 0.03700
H 	H 	0.89492 0.93149 0.06080 0.03800
H 	H 	0.99007 0.87929 0.86701 0.03800
H 	H 	0.01220 0.81630 0.86856 0.03900
H 	H 	0.02268 0.89228 0.04605 0.03900
H 	H 	0.04534 0.82950 0.04726 0.03700
H 	H 	0.10149 0.02440 0.05752 0.04000
H 	H 	0.16394 0.02872 0.06011 0.04000
H 	H 	0.09764 0.08362 0.89492 0.03800
H 	H 	0.15979 0.08974 0.89924 0.03700
H 	H 	0.90645 0.02485 0.00623 0.04400
H 	H 	0.93709 0.07973 0.01441 0.03800
H 	H 	0.05300 0.11077 0.98886 0.04200
H 	H 	0.08421 0.98798 0.94533 0.03900
H 	H 	0.05368 0.93292 0.93817 0.04000
H 	H 	0.93742 0.90233 0.96013 0.04100
C 	C 	0.94265 0.23040 0.99630 -0.00300
C 	C 	0.95358 0.25496 0.95405 0.03900
C 	C 	0.94171 0.29096 0.95659 -0.02500
C 	C 	0.91943 0.30276 0.00142 -0.09400
C 	C 	0.90788 0.27802 0.04289 0.09700
C 	C 	0.91968 0.24197 0.04020 -0.08600
H 	H 	0.94999 0.30973 0.92376 0.04100
H 	H 	0.91128 0.22309 0.07275 0.04900
N 	N 	0.97680 0.24320 0.90836 -0.13700
N 	N 	0.88516 0.28987 0.08926 -0.13800
C 	C 	0.01139 0.25354 0.92156 -0.09000
H 	H 	0.01285 0.28323 0.92217 0.04400
H 	H 	0.02895 0.24266 0.88709 0.04300
H 	H 	0.01996 0.24219 0.96452 0.05000
C 	C 	0.85053 0.27893 0.07776 -0.08800
H 	H 	0.84145 0.28908 0.03434 0.06100
H 	H 	0.83319 0.29053 0.11197 0.04900
H 	H 	0.84931 0.24923 0.07916 0.04300
H 	H 	0.96883 0.25374 0.86781 0.07000
H 	H 	0.89377 0.27974 0.12974 0.07400
C 	C 	0.90604 0.42037 0.82359 -0.11700
C 	C 	0.90258 0.44559 0.77735 0.07700
C 	C 	0.92131 0.43975 0.72554 -0.08700
C 	C 	0.94201 0.40842 0.71826 0.01200
C 	C 	0.94108 0.38084 0.76082 -0.00100
C 	C 	0.92336 0.38728 0.81360 -0.00200
H 	H 	0.92056 0.46016 0.69160 0.05000
H 	H 	0.92415 0.36699 0.84776 0.03700
C 	C 	0.87694 0.47719 0.78051 -0.11600
C 	C 	0.95852 0.34436 0.75032 -0.09300
C 	C 	0.84313 0.46881 0.75089 -0.01400
H 	H 	0.84786 0.45779 0.70611 0.02700
H 	H 	0.82759 0.49425 0.74597 0.02000
C 	C 	0.99118 0.33945 0.78690 -0.02700
H 	H 	0.98470 0.33966 0.83445 0.03000
H 	H 	0.00822 0.36178 0.77827 0.03100
H 	H 	0.87202 0.48651 0.82609 0.03400
H 	H 	0.96437 0.34015 0.70299 0.04800
C 	C 	0.82261 0.44258 0.78651 -0.16500
C 	C 	0.01039 0.30410 0.77247 -0.15500
H 	H 	0.81813 0.45289 0.83172 0.06700
H 	H 	0.79756 0.43940 0.76518 0.05600
H 	H 	0.83609 0.41584 0.78858 0.06900
H 	H 	0.88761 0.50044 0.75747 0.04000
H 	H 	0.99384 0.28117 0.77957 0.05300
H 	H 	0.03300 0.30065 0.80142 0.05300
H 	H 	0.01912 0.30408 0.72605 0.05600
H 	H 	0.94076 0.32327 0.76284 0.04500
C 	C 	0.89944 0.46484 0.15051 -0.12200
C 	C 	0.87287 0.46864 0.19245 0.08400
C 	C 	0.88060 0.47871 0.25016 -0.09100
C 	C 	0.91391 0.48619 0.26606 0.01300
C 	C 	0.94078 0.48052 0.22481 -0.00500
C 	C 	0.93313 0.46951 0.16760 -0.00300
H 	H 	0.86044 0.48139 0.28259 0.05000
H 	H 	0.95349 0.46524 0.13585 0.02200
C 	C 	0.83638 0.46046 0.17729 -0.12800
C 	C 	0.97785 0.48407 0.24167 -0.09000
C 	C 	0.81200 0.49382 0.18041 -0.00800
H 	H 	0.81306 0.50636 0.22458 0.02300
H 	H 	0.78556 0.48525 0.17390 0.02400
C 	C 	0.99330 0.44884 0.26676 -0.02700
H 	H 	0.99532 0.42836 0.23134 0.03100
H 	H 	0.97678 0.43851 0.30190 0.03700
H 	H 	0.83397 0.44756 0.13371 0.06900
H 	H 	0.98129 0.50629 0.27285 0.04900
C 	C 	0.81947 0.52179 0.13373 -0.15900
C 	C 	0.02864 0.45395 0.29231 -0.15700
H 	H 	0.81655 0.51031 0.08919 0.06000
H 	H 	0.80117 0.54514 0.13836 0.04900
H 	H 	0.84559 0.53141 0.13897 0.06100
H 	H 	0.82756 0.44051 0.20953 0.05300
H 	H 	0.04600 0.46376 0.25794 0.05300
H 	H 	0.03933 0.42793 0.30932 0.05600
H 	H 	0.02710 0.47349 0.32914 0.06100
H 	H 	0.99269 0.49132 0.20213 0.03500
C 	C 	0.03946 0.77991 0.96157 0.00500
C 	C 	0.06781 0.76551 0.93037 0.03300
C 	C 	0.07663 0.72868 0.93454 -0.01000
C 	C 	0.05749 0.70635 0.96987 -0.11800
C 	C 	0.02951 0.72086 0.00187 0.10900
C 	C 	0.02036 0.75752 0.99692 -0.10000
H 	H 	0.09849 0.71758 0.91061 0.03500
H 	H 	0.99862 0.76864 0.02118 0.05200
N 	N 	0.08790 0.78851 0.89494 -0.13600
N 	N 	0.01085 0.69836 0.04054 -0.15100
C 	C 	0.11808 0.79891 0.92710 -0.09100
H 	H 	0.11063 0.81303 0.96846 0.05000
H 	H 	0.13249 0.81761 0.89970 0.04400
H 	H 	0.13502 0.77505 0.93731 0.04600
C 	C 	0.02178 0.70274 0.10145 -0.09100
H 	H 	0.04961 0.69670 0.10571 0.06000
H 	H 	0.00846 0.68364 0.12983 0.04500
H 	H 	0.01545 0.73044 0.11724 0.04200
H 	H 	0.09498 0.77581 0.85553 0.07200
H 	H 	0.98467 0.70419 0.03674 0.06400
C 	C 	0.08016 0.52144 0.74426 0.01300
C 	C 	0.05277 0.54429 0.76491 -0.00100
C 	C 	0.05598 0.56182 0.81907 0.00100
C 	C 	0.08479 0.55548 0.85428 -0.12100
C 	C 	0.11142 0.53170 0.83468 0.08500
C 	C 	0.10952 0.51640 0.77857 -0.09000
H 	H 	0.03512 0.57906 0.83532 0.01800
H 	H 	0.12996 0.49820 0.76343 0.04900
C 	C 	0.01887 0.54811 0.73270 -0.09400
C 	C 	0.13950 0.51857 0.87583 -0.13300
C 	C 	0.01112 0.58645 0.70994 -0.02200
H 	H 	0.01401 0.60633 0.74567 0.02600
H 	H 	0.98413 0.58867 0.69547 0.02200
C 	C 	0.12747 0.48814 0.91511 -0.00500
H 	H 	0.11792 0.46628 0.88728 0.02400
H 	H 	0.10630 0.49826 0.94385 0.02800
H 	H 	0.01629 0.52887 0.69621 0.05300
H 	H 	0.14816 0.54101 0.90291 0.07600
C 	C 	0.03357 0.59617 0.65811 -0.15800
C 	C 	0.15614 0.47252 0.95383 -0.16900
H 	H 	0.02828 0.57896 0.61972 0.06100
H 	H 	0.02782 0.62452 0.64543 0.05500
H 	H 	0.06092 0.59315 0.67000 0.06400
H 	H 	0.99848 0.54158 0.76428 0.03700
H 	H 	0.17755 0.46165 0.92635 0.05800
H 	H 	0.14651 0.45039 0.98089 0.05500
H 	H 	0.16550 0.49333 0.98378 0.07500
H 	H 	0.16200 0.50864 0.84996 0.05400
C 	C 	0.04621 0.59431 0.29157 0.00900
C 	C 	0.05551 0.62824 0.27081 0.00200
C 	C 	0.06768 0.63141 0.21313 -0.00300
C 	C 	0.06989 0.60157 0.17585 -0.11500
C 	C 	0.06305 0.56722 0.19805 0.06500
C 	C 	0.05210 0.56384 0.25632 -0.08400
H 	H 	0.07426 0.65745 0.19657 0.03000
H 	H 	0.04617 0.53766 0.27319 0.04700
C 	C 	0.05275 0.66129 0.30964 -0.09400
C 	C 	0.06755 0.53393 0.16012 -0.10500
C 	C 	0.02461 0.68844 0.28938 -0.02300
H 	H 	0.02921 0.69682 0.24331 0.02600
H 	H 	0.02559 0.71280 0.31728 0.02500
C 	C 	0.10438 0.51857 0.16267 -0.02600
H 	H 	0.10994 0.50829 0.20766 0.03000
H 	H 	0.12244 0.53981 0.15274 0.04700
H 	H 	0.04880 0.65451 0.35659 0.04800
H 	H 	0.06001 0.53982 0.11397 0.01800
C 	C 	0.98904 0.67389 0.29420 -0.15600
C 	C 	0.11036 0.48801 0.11876 -0.15400
H 	H 	0.98419 0.66457 0.33965 0.05800
H 	H 	0.96976 0.69549 0.28315 0.05100
H 	H 	0.98615 0.65145 0.26289 0.05700
H 	H 	0.07742 0.67465 0.30797 0.04400
H 	H 	0.09294 0.46608 0.12793 0.05100
H 	H 	0.13702 0.47713 0.12242 0.05600
H 	H 	0.10615 0.49791 0.07318 0.05400
H 	H 	0.05028 0.51312 0.17558 0.03700
C 	C 	0.71852 0.92954 0.97492 -0.11500
C 	C 	0.73157 0.95116 0.01940 0.10600
C 	C 	0.76621 0.95882 0.01908 -0.09000
C 	C 	0.78796 0.94455 0.97527 0.00000
C 	C 	0.77491 0.92248 0.93121 0.03400
C 	C 	0.74011 0.91545 0.93092 -0.01300
H 	H 	0.77624 0.97552 0.05332 0.04900
H 	H 	0.73005 0.89860 0.89692 0.03400
N 	N 	0.70967 0.96459 0.06587 -0.14400
N 	N 	0.79727 0.90659 0.88741 -0.13600
C 	C 	0.69883 0.00204 0.05520 -0.08400
H 	H 	0.72094 0.01956 0.05656 0.03900
H 	H 	0.68048 0.01102 0.08981 0.03900
H 	H 	0.68579 0.00491 0.01204 0.03000
C 	C 	0.80764 0.86977 0.90358 -0.09000
H 	H 	0.82078 0.86918 0.94681 0.05000
H 	H 	0.82577 0.85857 0.87022 0.04300
H 	H 	0.78529 0.85258 0.90524 0.04400
H 	H 	0.72191 0.96200 0.10655 0.07500
H 	H 	0.78551 0.90714 0.84618 0.07200
C 	C 	0.58614 0.90599 0.83314 -0.12200
C 	C 	0.57346 0.87512 0.80590 0.08400
C 	C 	0.55827 0.87835 0.75020 -0.09100
C 	C 	0.55446 0.91173 0.72226 0.01300
C 	C 	0.56920 0.94208 0.74775 -0.00300
C 	C 	0.58564 0.93850 0.80219 0.00100
H 	H 	0.54772 0.85503 0.72993 0.05000
H 	H 	0.59647 0.96178 0.82215 0.01500
C 	C 	0.57538 0.83856 0.83531 -0.12900
C 	C 	0.56652 0.97885 0.71918 -0.09500
C 	C 	0.60299 0.81338 0.80779 -0.00500
H 	H 	0.60038 0.81311 0.75918 0.02400
H 	H 	0.59923 0.78565 0.82349 0.02100
C 	C 	0.53674 0.00194 0.74455 -0.02200
H 	H 	0.54151 0.00726 0.79181 0.02100
H 	H 	0.51264 0.98774 0.74105 0.03100
H 	H 	0.57892 0.83993 0.88338 0.07000
H 	H 	0.56442 0.97734 0.67091 0.05200
C 	C 	0.63898 0.82355 0.82396 -0.16400
C 	C 	0.53245 0.03771 0.71221 -0.15900
H 	H 	0.64262 0.82232 0.87228 0.06900
H 	H 	0.65771 0.80431 0.80327 0.05500
H 	H 	0.64397 0.85091 0.80789 0.07300
H 	H 	0.55044 0.82612 0.82948 0.05100
H 	H 	0.55681 0.05164 0.71151 0.05300
H 	H 	0.51316 0.05525 0.73503 0.05100
H 	H 	0.52384 0.03329 0.66642 0.06100
H 	H 	0.59054 0.99269 0.72729 0.04100
C 	C 	0.59862 0.96733 0.27108 0.01000
C 	C 	0.63177 0.96643 0.24697 0.00100
C 	C 	0.63771 0.94991 0.19232 -0.00400
C 	C 	0.61102 0.93513 0.16107 -0.11500
C 	C 	0.57868 0.93290 0.18808 0.06800
C 	C 	0.57307 0.94852 0.24346 -0.08700
H 	H 	0.66291 0.94986 0.17296 0.03800
H 	H 	0.54823 0.94744 0.26396 0.04900
C 	C 	0.66120 0.98250 0.27923 -0.09400
C 	C 	0.55023 0.91317 0.15936 -0.11200
C 	C 	0.67357 0.01636 0.24897 -0.02300
H 	H 	0.68131 0.01025 0.20298 0.02600
H 	H 	0.69650 0.02512 0.27251 0.02500
C 	C 	0.55340 0.87292 0.17340 -0.01700
H 	H 	0.55106 0.86890 0.22161 0.02900
H 	H 	0.57866 0.86145 0.15937 0.04700
H 	H 	0.65509 0.98854 0.32592 0.04900
H 	H 	0.54961 0.91782 0.11120 0.04300
C 	C 	0.64682 0.04733 0.24919 -0.15500
C 	C 	0.52575 0.85254 0.14263 -0.15900
H 	H 	0.63818 0.05335 0.29472 0.05900
H 	H 	0.65802 0.07166 0.23066 0.05100
H 	H 	0.62469 0.04069 0.22166 0.05600
H 	H 	0.68275 0.96218 0.28036 0.04400
H 	H 	0.50014 0.86264 0.15732 0.05200
H 	H 	0.52879 0.82357 0.15356 0.05600
H 	H 	0.52777 0.85570 0.09425 0.06300
H 	H 	0.52523 0.92399 0.17588 0.04200
C 	C 	0.20339 0.06362 0.98272 -0.00000
C 	C 	0.21834 0.08156 0.02989 0.03700
C 	C 	0.25387 0.08407 0.03208 -0.01400
C 	C 	0.27454 0.06934 0.98712 -0.11400
C 	C 	0.25941 0.05246 0.93886 0.10400
C 	C 	0.22392 0.04972 0.93705 -0.09300
H 	H 	0.26532 0.09735 0.06895 0.04200
H 	H 	0.21234 0.03689 0.89986 0.05000
N 	N 	0.19727 0.09778 0.07520 -0.13600
N 	N 	0.27998 0.03991 0.89008 -0.14100
C 	C 	0.19106 0.13609 0.06379 -0.09100
H 	H 	0.21526 0.15038 0.06482 0.04600
H 	H 	0.17387 0.14772 0.09819 0.04600
H 	H 	0.17841 0.14035 0.02052 0.05200
C 	C 	0.28256 0.00068 0.88833 -0.08200
H 	H 	0.29226 0.98961 0.93077 0.04400
H 	H 	0.30072 0.99197 0.85334 0.03700
H 	H 	0.25748 0.98955 0.87825 0.03700
H 	H 	0.20850 0.09381 0.11649 0.07300
H 	H 	0.26993 0.05010 0.85060 0.07300
C 	C 	0.39230 0.06291 0.82778 -0.11900
C 	C 	0.42339 0.06756 0.79807 0.08000
C 	C 	0.42910 0.05087 0.74354 -0.08900
C 	C 	0.40419 0.03015 0.71812 0.01200
C 	C 	0.37189 0.02865 0.74497 -0.00100
C 	C 	0.36628 0.04504 0.79980 -0.00600
H 	H 	0.45327 0.05333 0.72145 0.04900
H 	H 	0.34215 0.04235 0.82202 0.03400
C 	C 	0.44993 0.09187 0.82228 -0.12400
C 	C 	0.34374 0.00817 0.71710 -0.09300
C 	C 	0.45108 0.12718 0.78774 -0.00800
H 	H 	0.45746 0.12161 0.74096 0.02300
H 	H 	0.47168 0.14319 0.80621 0.02300
C 	C 	0.34506 0.96898 0.73781 -0.02600
H 	H 	0.34506 0.96784 0.78658 0.02300
H 	H 	0.36878 0.95495 0.72186 0.03000
H 	H 	0.44612 0.09809 0.86955 0.05800
H 	H 	0.34544 0.00928 0.66839 0.04800
C 	C 	0.41760 0.14955 0.79111 -0.16600
C 	C 	0.31468 0.94912 0.71499 -0.15700
H 	H 	0.40956 0.15330 0.83747 0.07500
H 	H 	0.42102 0.17631 0.77122 0.05700
H 	H 	0.39728 0.13629 0.76656 0.06800
H 	H 	0.47531 0.07766 0.81923 0.04400
H 	H 	0.29053 0.96179 0.73199 0.05200
H 	H 	0.31663 0.92082 0.73011 0.05100
H 	H 	0.31426 0.94942 0.66620 0.05500
H 	H 	0.31868 0.02121 0.72909 0.04400
C 	C 	0.44820 0.07832 0.25734 0.01100
C 	C 	0.43780 0.04658 0.22966 0.00100
C 	C 	0.41574 0.04936 0.18136 -0.00700
C 	C 	0.40728 0.08275 0.15548 -0.11900
C 	C 	0.41724 0.11465 0.18383 0.08000
C 	C 	0.43729 0.11184 0.23492 -0.08900
H 	H 	0.40654 0.02513 0.16198 0.02100
H 	H 	0.44474 0.13597 0.25710 0.04800
C 	C 	0.45020 0.00940 0.25020 -0.09600
C 	C 	0.40607 0.15184 0.16170 -0.12400
C 	C 	0.47075 0.98851 0.20277 -0.02200
H 	H 	0.45508 0.98503 0.16281 0.01300
H 	H 	0.47755 0.96126 0.22000 0.02100
C 	C 	0.36761 0.15958 0.16873 -0.01000
H 	H 	0.36032 0.15621 0.21554 0.02800
H 	H 	0.35317 0.14062 0.14198 0.03400
H 	H 	0.46566 0.00957 0.29075 0.05400
H 	H 	0.41423 0.15581 0.11567 0.06800
C 	C 	0.50349 0.00647 0.18591 -0.15600
C 	C 	0.35738 0.19776 0.14940 -0.16700
H 	H 	0.52037 0.00787 0.22464 0.05900
H 	H 	0.51704 0.99048 0.15133 0.04200
H 	H 	0.49792 0.03390 0.16848 0.05300
H 	H 	0.42754 0.99399 0.26130 0.04300
H 	H 	0.37028 0.21757 0.17701 0.05800
H 	H 	0.32944 0.20241 0.15420 0.06100
H 	H 	0.36431 0.20191 0.10268 0.07300
H 	H 	0.41937 0.17256 0.18689 0.04800
C 	C 	0.41814 0.28757 0.01137 0.00300
C 	C 	0.43691 0.25749 0.03338 0.03500
C 	C 	0.42800 0.22286 0.01709 -0.01700
C 	C 	0.39968 0.21797 0.98109 -0.10800
C 	C 	0.38079 0.24826 0.95907 0.10000
C 	C 	0.39013 0.28276 0.97461 -0.09100
H 	H 	0.44272 0.19975 0.03355 0.03800
H 	H 	0.37576 0.30593 0.95747 0.05500
N 	N 	0.46570 0.26225 0.07108 -0.13600
N 	N 	0.35279 0.24441 0.91919 -0.14900
C 	C 	0.45850 0.25095 0.13124 -0.09000
H 	H 	0.43439 0.26409 0.14761 0.04500
H 	H 	0.47943 0.25893 0.16041 0.04400
H 	H 	0.45682 0.22133 0.13379 0.04000
C 	C 	0.36489 0.23830 0.85910 -0.08800
H 	H 	0.38048 0.26075 0.84439 0.04600
H 	H 	0.34271 0.23700 0.82921 0.04400
H 	H 	0.38012 0.21260 0.85578 0.04600
H 	H 	0.48712 0.24786 0.05470 0.07300
H 	H 	0.33661 0.22451 0.93260 0.08900
C 	C 	0.28426 0.56036 0.04169 0.00300
C 	C 	0.26777 0.58763 0.07532 0.03700
C 	C 	0.23358 0.59776 0.06358 -0.02000
C 	C 	0.21577 0.58046 0.01930 -0.09600
C 	C 	0.23291 0.55470 0.98358 0.09600
C 	C 	0.26686 0.54427 0.99575 -0.09200
H 	H 	0.22082 0.61870 0.08948 0.04400
H 	H 	0.27982 0.52388 0.96896 0.05000
N 	N 	0.28637 0.60630 0.11930 -0.13600
N 	N 	0.21625 0.54041 0.93309 -0.14300
C 	C 	0.27451 0.59790 0.17849 -0.09100
H 	H 	0.24857 0.61004 0.18632 0.04500
H 	H 	0.29206 0.60911 0.21114 0.04600
H 	H 	0.27435 0.56845 0.18548 0.04800
C 	C 	0.22502 0.56020 0.88012 -0.09100
H 	H 	0.21681 0.58898 0.88447 0.05200
H 	H 	0.21156 0.54911 0.84186 0.04400
H 	H 	0.25286 0.55769 0.87143 0.04300
H 	H 	0.28414 0.63397 0.11183 0.07500
H 	H 	0.22288 0.51311 0.92799 0.07100
C 	C 	0.70946 0.45500 0.00972 -0.00000
C 	C 	0.72944 0.48563 0.01067 0.03700
C 	C 	0.76438 0.48181 0.99961 -0.01600
C 	C 	0.77992 0.44792 0.98902 -0.11900
C 	C 	0.75969 0.41752 0.98537 0.10600
C 	C 	0.72472 0.42131 0.99658 -0.09200
H 	H 	0.77962 0.50528 0.00065 0.03000
H 	H 	0.70930 0.39800 0.99437 0.05500
N 	N 	0.71451 0.52086 0.02273 -0.14000
N 	N 	0.77409 0.38288 0.96837 -0.14900
C 	C 	0.71572 0.52912 0.08546 -0.09000
H 	H 	0.70083 0.51014 0.11143 0.04600
H 	H 	0.70475 0.55666 0.09294 0.04200
H 	H 	0.74247 0.52813 0.10121 0.04300
C 	C 	0.78110 0.38112 0.90529 -0.09000
H 	H 	0.75812 0.38974 0.87962 0.04700
H 	H 	0.78824 0.35299 0.89308 0.04700
H 	H 	0.80256 0.39805 0.89351 0.05200
H 	H 	0.68986 0.52467 0.00609 0.07700
H 	H 	0.79548 0.37508 0.99320 0.08800
C 	C 	0.57256 0.70682 0.04697 0.00000
C 	C 	0.54945 0.73616 0.05572 0.03700
C 	C 	0.55961 0.77110 0.04448 -0.02300
C 	C 	0.59267 0.77698 0.02436 -0.09800
C 	C 	0.61587 0.74746 0.01587 0.10100
C 	C 	0.60576 0.71258 0.02796 -0.09000
H 	H 	0.54167 0.79360 0.05111 0.04000
H 	H 	0.62357 0.68991 0.02139 0.05000
N 	N 	0.51562 0.73042 0.07678 -0.13600
N 	N 	0.64948 0.75287 0.99345 -0.14000
C 	C 	0.49095 0.73337 0.02877 -0.08700
H 	H 	0.48934 0.76108 0.01068 0.04200
H 	H 	0.46546 0.72690 0.04561 0.04400
H 	H 	0.49792 0.71401 0.99320 0.04600
C 	C 	0.65166 0.74359 0.93111 -0.08900
H 	H 	0.64985 0.71419 0.92477 0.04000
H 	H 	0.67648 0.75168 0.91346 0.04300
H 	H 	0.63114 0.75806 0.90590 0.04700
H 	H 	0.50897 0.74878 0.11005 0.07100
H 	H 	0.66767 0.73769 0.01747 0.07800
