data_crystal

_cell_length_a 22.50592
_cell_length_b 19.47129
_cell_length_c 45.64243
_cell_angle_alpha 89.86364
_cell_angle_beta  89.86649
_cell_angle_gamma 119.41862

_symmetry_space_group_name_	'P 1'
_symmetry_space_group_name_H-M	'P 1'

loop_
_symmetry_equiv_pos_as_xyz
  x,y,z

loop_
_atom_site_label
_atom_site_type_symbol
_atom_site_fract_x
_atom_site_fract_y
_atom_site_fract_z
_atom_site_charge
C 	C 	0.58288 0.26143 0.83208 0.27600
C 	C 	0.75738 0.51994 0.90988 0.30100
C 	C 	0.74926 0.42611 0.81818 0.31000
C 	C 	0.59119 0.34119 0.93013 0.30000
C 	C 	0.85074 0.38319 0.89002 0.32000
C 	C 	0.68446 0.18560 0.90590 0.29600
Ni	Ni	0.65681 0.40519 0.86909 1.12500
Ni	Ni	0.72664 0.35511 0.92075 1.13000
Ni	Ni	0.72386 0.29486 0.85574 1.13200
O 	O 	0.57559 0.30495 0.85249 -0.32000
O 	O 	0.64245 0.26276 0.82725 -0.35200
O 	O 	0.82334 0.41439 0.90693 -0.35400
O 	O 	0.74603 0.50238 0.88216 -0.34400
O 	O 	0.73644 0.46335 0.92960 -0.33400
O 	O 	0.67735 0.19155 0.87726 -0.31600
O 	O 	0.69306 0.42654 0.82560 -0.35600
O 	O 	0.77784 0.40210 0.83725 -0.32500
O 	O 	0.72404 0.24855 0.92224 -0.33100
O 	O 	0.60956 0.39818 0.90996 -0.29700
O 	O 	0.63070 0.31000 0.93623 -0.35200
O 	O 	0.81225 0.31749 0.87560 -0.30500
O 	O 	0.68576 0.33553 0.88300 -0.71900
H 	H 	0.64202 0.28747 0.88698 0.17700
C 	C 	0.84145 0.49827 0.57330 0.29400
C 	C 	0.58511 0.26899 0.52116 0.31600
C 	C 	0.70443 0.52753 0.53717 0.31900
C 	C 	0.72236 0.23448 0.55717 0.28100
C 	C 	0.55232 0.35659 0.60276 0.30300
C 	C 	0.69583 0.35051 0.64075 0.28000
Ni	Ni	0.72882 0.38833 0.53420 1.12800
Ni	Ni	0.62245 0.27396 0.58390 1.13300
Ni	Ni	0.70184 0.45889 0.59429 1.12600
O 	O 	0.82653 0.44825 0.55123 -0.30600
O 	O 	0.80072 0.52717 0.58045 -0.32400
O 	O 	0.55544 0.31279 0.58190 -0.33600
O 	O 	0.63171 0.34261 0.51692 -0.31800
O 	O 	0.59142 0.22883 0.54300 -0.30500
O 	O 	0.73248 0.42120 0.62864 -0.37500
O 	O 	0.74351 0.50156 0.52591 -0.28400
O 	O 	0.66568 0.49206 0.55984 -0.35100
O 	O 	0.63916 0.29389 0.62816 -0.36200
O 	O 	0.72443 0.27713 0.53374 -0.31400
O 	O 	0.68616 0.22912 0.58099 -0.35300
O 	O 	0.60880 0.41457 0.61372 -0.36300
O 	O 	0.69751 0.37231 0.57326 -0.71700
H 	H 	0.73397 0.36665 0.58288 0.16100
C 	C 	0.12266 0.09988 0.76226 0.28700
C 	C 	0.88891 0.80648 0.72317 0.30300
C 	C 	0.10467 0.02347 0.69674 0.29900
C 	C 	0.89998 0.91785 0.79252 0.27800
C 	C 	0.91442 0.01024 0.67114 0.29800
C 	C 	0.91560 0.12509 0.73803 0.29000
Ni	Ni	0.01122 0.94080 0.74846 1.11000
Ni	Ni	0.87642 0.95180 0.73145 1.12500
Ni	Ni	0.02371 0.09579 0.71477 1.11900
O 	O 	0.07316 0.03567 0.77437 -0.37400
O 	O 	0.10997 0.13851 0.74098 -0.36000
O 	O 	0.88220 0.94623 0.68750 -0.35700
O 	O 	0.95442 0.85209 0.71899 -0.35600
O 	O 	0.85218 0.83605 0.73409 -0.36300
O 	O 	0.98246 0.15040 0.73786 -0.35500
O 	O 	0.09606 0.98093 0.72046 -0.36100
O 	O 	0.05707 0.03898 0.68837 -0.38400
O 	O 	0.87042 0.05277 0.72905 -0.36700
O 	O 	0.93512 0.88639 0.78056 -0.35500
O 	O 	0.86662 0.94422 0.77589 -0.34900
O 	O 	0.95531 0.07892 0.68324 -0.36600
O 	O 	0.97266 0.00373 0.73774 -0.71200
H 	H 	0.97519 0.03057 0.75634 0.16900
C 	C 	0.21083 0.70959 0.46238 0.30100
C 	C 	0.46754 0.74935 0.51843 0.31200
C 	C 	0.39350 0.82339 0.44034 0.29700
C 	C 	0.28111 0.62665 0.54467 0.29600
C 	C 	0.42235 0.63291 0.43864 0.29600
C 	C 	0.23125 0.48620 0.46480 0.27800
Ni	Ni	0.34163 0.75589 0.49977 1.12500
Ni	Ni	0.35640 0.59775 0.49607 1.12900
Ni	Ni	0.30066 0.65051 0.44053 1.12800
O 	O 	0.26212 0.76439 0.47834 -0.33100
O 	O 	0.21265 0.64724 0.45178 -0.36700
O 	O 	0.39176 0.57709 0.45845 -0.35800
O 	O 	0.42281 0.77082 0.52621 -0.29100
O 	O 	0.45134 0.69115 0.50013 -0.36500
O 	O 	0.25864 0.53156 0.44132 -0.36500
O 	O 	0.41153 0.82178 0.46753 -0.36000
O 	O 	0.33586 0.76601 0.43025 -0.31500
O 	O 	0.26649 0.49901 0.48946 -0.35900
O 	O 	0.28175 0.69135 0.53498 -0.31000
O 	O 	0.33085 0.61098 0.53804 -0.29600
O 	O 	0.38996 0.66537 0.42591 -0.36700
O 	O 	0.31939 0.66011 0.48143 -0.72000
H 	H 	0.27246 0.62791 0.48881 0.15500
C 	C 	0.33411 0.48383 0.05271 0.29500
C 	C 	0.26879 0.72077 0.10092 0.29800
C 	C 	0.16544 0.47734 0.06772 0.30900
C 	C 	0.44186 0.72913 0.09063 0.29000
C 	C 	0.22656 0.67543 0.00607 0.32100
C 	C 	0.39970 0.69763 0.99461 0.30000
Ni	Ni	0.30079 0.59041 0.09052 1.11700
Ni	Ni	0.34506 0.73798 0.04640 1.13600
Ni	Ni	0.26959 0.56287 0.02101 1.13800
O 	O 	0.30233 0.48819 0.07671 -0.32000
O 	O 	0.32417 0.50707 0.02666 -0.31100
O 	O 	0.28760 0.73506 0.01162 -0.32400
O 	O 	0.29769 0.68251 0.11229 -0.36400
O 	O 	0.26969 0.73147 0.07253 -0.33900
O 	O 	0.33631 0.63816 0.98993 -0.33200
O 	O 	0.19747 0.54121 0.08329 -0.36200
O 	O 	0.19417 0.46955 0.04371 -0.30800
O 	O 	0.41474 0.74504 0.01759 -0.30700
O 	O 	0.40465 0.65354 0.09777 -0.35700
O 	O 	0.41273 0.77022 0.08075 -0.33500
O 	O 	0.20662 0.60725 0.01860 -0.33000
O 	O 	0.32068 0.63041 0.05223 -0.72000
H 	H 	0.36501 0.63303 0.04889 0.17900
C 	C 	0.80961 0.86203 0.30502 0.28000
C 	C 	0.00685 0.12991 0.23450 0.29400
C 	C 	0.83481 0.90161 0.22299 0.30200
C 	C 	0.98246 0.10651 0.32065 0.28800
C 	C 	0.04438 0.93445 0.23195 0.28800
C 	C 	0.01907 0.90814 0.31545 0.26400
Ni	Ni	0.88997 0.01734 0.27121 1.11100
Ni	Ni	0.04323 0.04210 0.27754 1.11900
Ni	Ni	0.91840 0.86915 0.26614 1.12300
O 	O 	0.80565 0.91344 0.28691 -0.36100
O 	O 	0.84947 0.83116 0.29917 -0.36700
O 	O 	0.07660 0.97913 0.25456 -0.36900
O 	O 	0.96244 0.12545 0.25417 -0.36000
O 	O 	0.04419 0.09612 0.23928 -0.37300
O 	O 	0.98936 0.86253 0.29217 -0.35900
O 	O 	0.87298 0.97640 0.22872 -0.37300
O 	O 	0.83759 0.84797 0.23971 -0.36400
O 	O 	0.04980 0.98642 0.31341 -0.37100
O 	O 	0.91795 0.07072 0.31202 -0.36600
O 	O 	0.03278 0.12404 0.30162 -0.37400
O 	O 	0.97758 0.89965 0.23025 -0.37300
O 	O 	0.94685 0.97418 0.27824 -0.70800
H 	H 	0.93967 0.96534 0.29950 0.15600
C 	C 	0.01221 0.38291 0.15065 -0.06600
C 	C 	0.99543 0.33693 0.17615 0.01200
C 	C 	0.00755 0.27280 0.17787 -0.02300
C 	C 	0.03280 0.25187 0.15312 0.02800
C 	C 	0.04965 0.29814 0.12745 -0.02700
C 	C 	0.04163 0.36553 0.12662 0.05400
C 	C 	0.07944 0.28058 0.10344 0.06700
C 	C 	0.08720 0.21330 0.10439 -0.03400
C 	C 	0.07013 0.16706 0.12984 -0.00900
C 	C 	0.04493 0.18746 0.15458 0.00700
C 	C 	0.03436 0.14629 0.18107 -0.00300
C 	C 	0.01279 0.16977 0.20622 -0.07500
C 	C 	0.99749 0.23150 0.20433 0.01900
C 	C 	0.06911 0.41855 0.10306 -0.03200
C 	C 	0.10855 0.40740 0.08163 -0.01000
C 	C 	0.10675 0.33436 0.08006 -0.02700
H 	H 	0.00461 0.43371 0.15000 0.06500
H 	H 	0.97469 0.35250 0.19483 0.04500
H 	H 	0.10869 0.19833 0.08583 0.11500
H 	H 	0.07829 0.11665 0.13055 0.06300
H 	H 	0.04387 0.09685 0.18228 0.05500
H 	H 	0.97982 0.24882 0.22359 0.04800
H 	H 	0.06651 0.47275 0.10314 0.08000
H 	H 	0.13214 0.32275 0.06216 0.13500
C 	C 	0.64592 0.71870 0.11953 -0.03300
C 	C 	0.69763 0.73811 0.14020 -0.01900
C 	C 	0.71324 0.79887 0.16043 0.02200
C 	C 	0.67779 0.84184 0.15930 0.00800
C 	C 	0.62586 0.82237 0.13847 -0.00800
C 	C 	0.60901 0.75963 0.11889 0.05100
C 	C 	0.58874 0.86344 0.13808 0.04100
C 	C 	0.60576 0.92579 0.15769 -0.03500
C 	C 	0.65757 0.94539 0.17825 -0.02600
C 	C 	0.69309 0.90296 0.17946 0.02100
C 	C 	0.74329 0.92056 0.20070 -0.01300
C 	C 	0.77882 0.87808 0.20190 -0.05500
C 	C 	0.76358 0.81705 0.18186 -0.01300
C 	C 	0.55292 0.73557 0.10017 -0.01200
C 	C 	0.51210 0.77169 0.10173 -0.01000
C 	C 	0.53252 0.83852 0.11937 -0.02200
H 	H 	0.63373 0.67082 0.10438 0.10200
H 	H 	0.72499 0.70529 0.14066 0.06700
H 	H 	0.57802 0.95819 0.15738 0.06700
H 	H 	0.66952 0.99304 0.19348 0.05600
H 	H 	0.75482 0.96729 0.21636 0.04400
H 	H 	0.79145 0.78477 0.18268 0.05600
H 	H 	0.53810 0.68530 0.08589 0.10200
H 	H 	0.50169 0.86726 0.12018 0.07500
C 	C 	0.09415 0.79931 0.11791 -0.03300
C 	C 	0.06388 0.83157 0.13598 -0.02300
C 	C 	0.08918 0.85758 0.16428 0.02500
C 	C 	0.14591 0.85204 0.17435 0.00300
C 	C 	0.17629 0.81947 0.15619 -0.00600
C 	C 	0.15015 0.79276 0.12791 0.04600
C 	C 	0.23251 0.81306 0.16640 0.03200
C 	C 	0.25831 0.83991 0.19457 -0.03300
C 	C 	0.22809 0.87221 0.21262 -0.03200
C 	C 	0.17166 0.87803 0.20273 0.02700
C 	C 	0.13983 0.90795 0.22109 -0.02100
C 	C 	0.08207 0.91142 0.21143 -0.04800
C 	C 	0.05771 0.88767 0.18283 -0.02100
C 	C 	0.18018 0.75967 0.11003 -0.02500
C 	C 	0.23625 0.75333 0.12015 -0.03400
C 	C 	0.26221 0.77992 0.14834 -0.02400
H 	H 	0.07385 0.77920 0.09617 0.09300
H 	H 	0.02047 0.83583 0.12800 0.06300
H 	H 	0.30163 0.83552 0.20257 0.05800
H 	H 	0.24835 0.89226 0.23437 0.06400
H 	H 	0.15861 0.92619 0.24318 0.06600
H 	H 	0.01382 0.89160 0.17523 0.05600
H 	H 	0.15985 0.73850 0.08834 0.11000
H 	H 	0.30591 0.77572 0.15600 0.06000
C 	C 	0.68886 0.89129 0.38989 -0.00900
C 	C 	0.63723 0.85783 0.41104 -0.00800
C 	C 	0.59667 0.77554 0.41327 0.05600
C 	C 	0.61043 0.72644 0.39516 0.01000
C 	C 	0.66251 0.76008 0.37392 0.01100
C 	C 	0.70067 0.84283 0.37078 0.03400
C 	C 	0.67427 0.71100 0.35491 0.03000
C 	C 	0.63561 0.62866 0.35801 -0.02100
C 	C 	0.58322 0.59521 0.37889 -0.01800
C 	C 	0.56903 0.64371 0.39695 0.05000
C 	C 	0.51085 0.61107 0.41502 0.00100
C 	C 	0.49354 0.66073 0.43065 -0.04000
C 	C 	0.53953 0.74200 0.43174 -0.00500
C 	C 	0.74877 0.87592 0.34809 -0.01900
C 	C 	0.75933 0.82705 0.32874 -0.04300
C 	C 	0.72301 0.74477 0.33249 -0.01600
H 	H 	0.71881 0.95490 0.38804 0.08400
H 	H 	0.62799 0.89596 0.42532 0.11000
H 	H 	0.64504 0.59048 0.34381 0.06800
H 	H 	0.55258 0.53161 0.38046 0.08700
H 	H 	0.47612 0.54797 0.41491 0.07700
H 	H 	0.52691 0.77978 0.44468 0.06000
H 	H 	0.77791 0.93948 0.34544 0.05800
H 	H 	0.73169 0.70724 0.31758 0.06100
C 	C 	0.12284 0.16986 0.40905 -0.02500
C 	C 	0.15574 0.22189 0.43214 -0.03700
C 	C 	0.13919 0.28078 0.43901 0.04100
C 	C 	0.08479 0.28263 0.42438 -0.01200
C 	C 	0.05121 0.22971 0.40133 0.01700
C 	C 	0.07245 0.17551 0.39284 0.02100
C 	C 	0.00057 0.23570 0.38513 -0.00600
C 	C 	0.98075 0.29101 0.39338 0.01000
C 	C 	0.01480 0.34430 0.41603 -0.05400
C 	C 	0.06883 0.34261 0.43074 0.05100
C 	C 	0.11170 0.40469 0.44926 -0.01900
C 	C 	0.17155 0.40863 0.46020 -0.02400
C 	C 	0.18100 0.34282 0.45774 -0.02100
C 	C 	0.04660 0.13178 0.36711 -0.02800
C 	C 	0.99948 0.14134 0.35000 -0.04400
C 	C 	0.97408 0.19038 0.35971 0.00400
H 	H 	0.13841 0.12720 0.40308 0.05100
H 	H 	0.19632 0.21877 0.44373 0.06700
H 	H 	0.94079 0.29483 0.38154 0.05800
H 	H 	0.00101 0.38894 0.42129 0.07300
H 	H 	0.10284 0.45416 0.45244 0.07400
H 	H 	0.22572 0.34454 0.46740 0.06900
H 	H 	0.06547 0.09325 0.35964 0.04700
H 	H 	0.93689 0.19673 0.34661 0.05600
C 	C 	0.12648 0.93960 0.41226 -0.00900
C 	C 	0.15077 0.91015 0.43441 -0.02100
C 	C 	0.13540 0.83100 0.43404 0.05700
C 	C 	0.09197 0.78001 0.41219 0.01500
C 	C 	0.06772 0.80976 0.38981 0.00500
C 	C 	0.08650 0.89025 0.38947 0.03500
C 	C 	0.02758 0.75983 0.36701 0.04400
C 	C 	0.00887 0.67956 0.36763 -0.04600
C 	C 	0.03296 0.65002 0.38987 -0.01800
C 	C 	0.07628 0.70048 0.41168 0.03900
C 	C 	0.10813 0.67398 0.43158 -0.00600
C 	C 	0.15856 0.72760 0.45071 -0.01200
C 	C 	0.16718 0.80388 0.45374 0.00700
C 	C 	0.06768 0.92123 0.36575 -0.02000
C 	C 	0.03123 0.87274 0.34202 -0.03100
C 	C 	0.00905 0.79140 0.34328 -0.03900
H 	H 	0.14026 0.00130 0.41244 0.05000
H 	H 	0.18327 0.94956 0.45133 0.07900
H 	H 	0.97699 0.64035 0.35052 0.07000
H 	H 	0.01961 0.58843 0.38959 0.05600
H 	H 	0.09756 0.61334 0.43067 0.06700
H 	H 	0.20280 0.84403 0.46973 0.08700
H 	H 	0.08334 0.98344 0.36532 0.05900
H 	H 	0.97910 0.75324 0.32554 0.07000
C 	C 	0.42225 0.01327 0.41529 0.01000
C 	C 	0.48236 0.05700 0.43138 0.11100
C 	C 	0.52669 0.02524 0.43558 -0.13600
C 	C 	0.50137 0.94450 0.43040 0.08700
C 	C 	0.43258 0.89669 0.42320 -0.01200
C 	C 	0.39854 0.93302 0.40983 -0.07000
C 	C 	0.48587 0.11814 0.45147 0.07300
C 	C 	0.59505 0.07240 0.45067 0.79300
H 	H 	0.53089 0.91692 0.43707 0.06400
C 	C 	0.33724 0.88715 0.39044 0.78000
H 	H 	0.39076 0.03926 0.40972 0.11400
C 	C 	0.52652 0.19898 0.44485 -0.09200
C 	C 	0.55500 0.25250 0.46814 0.07800
C 	C 	0.53672 0.22612 0.49725 0.02400
C 	C 	0.47950 0.15084 0.50225 -0.07500
C 	C 	0.45735 0.09549 0.47956 0.04400
C 	C 	0.53830 0.22785 0.41338 0.78800
H 	H 	0.59395 0.31282 0.46380 0.11700
C 	C 	0.44235 0.12895 0.53141 0.77900
H 	H 	0.42089 0.03418 0.48406 0.08300
F 	F 	0.33272 0.93626 0.36965 -0.43000
F 	F 	0.27855 0.85423 0.40725 -0.45700
F 	F 	0.34236 0.82805 0.37583 -0.43900
F 	F 	0.58511 0.07221 0.48059 -0.43800
F 	F 	0.62867 0.14929 0.44064 -0.40700
F 	F 	0.63680 0.04014 0.44528 -0.42700
F 	F 	0.37351 0.07763 0.52723 -0.43500
F 	F 	0.44869 0.19501 0.54553 -0.44600
F 	F 	0.46855 0.09231 0.54897 -0.43300
F 	F 	0.56681 0.30902 0.41188 -0.41400
F 	F 	0.47681 0.19454 0.39864 -0.43300
F 	F 	0.58154 0.20684 0.39943 -0.39700
C 	C 	0.02963 0.60025 0.57820 0.02200
C 	C 	0.03634 0.54140 0.59310 0.07900
C 	C 	0.98167 0.48566 0.61045 -0.10500
C 	C 	0.91701 0.47933 0.60722 0.07100
C 	C 	0.90786 0.52881 0.58755 0.00100
C 	C 	0.96553 0.59540 0.57582 -0.05400
C 	C 	0.09648 0.53221 0.58683 0.10000
C 	C 	0.99150 0.43074 0.63106 0.80100
H 	H 	0.87278 0.43151 0.61777 0.06000
C 	C 	0.95783 0.65685 0.55834 0.78300
H 	H 	0.07313 0.64586 0.56646 0.10500
C 	C 	0.10055 0.49646 0.56036 -0.12100
C 	C 	0.16512 0.51563 0.54924 0.06600
C 	C 	0.22416 0.57209 0.56324 0.00000
C 	C 	0.21956 0.59308 0.59237 -0.06700
C 	C 	0.15538 0.57484 0.60371 0.02500
C 	C 	0.03817 0.44986 0.54130 0.78200
H 	H 	0.16938 0.49568 0.52759 0.06600
C 	C 	0.28326 0.64249 0.61007 0.77800
H 	H 	0.15186 0.59976 0.62442 0.11800
F 	F 	0.93189 0.62728 0.53095 -0.40900
F 	F 	0.01986 0.72515 0.55486 -0.42600
F 	F 	0.91400 0.67644 0.57266 -0.41600
F 	F 	0.04347 0.47466 0.65050 -0.45300
F 	F 	0.00828 0.38202 0.61533 -0.43600
F 	F 	0.93307 0.38367 0.64712 -0.46600
F 	F 	0.31021 0.72105 0.60251 -0.39600
F 	F 	0.33126 0.61925 0.60466 -0.37700
F 	F 	0.26889 0.63393 0.63980 -0.40700
F 	F 	0.04787 0.40003 0.52274 -0.45600
F 	F 	0.02677 0.50142 0.52450 -0.44300
F 	F 	0.98083 0.40391 0.55802 -0.43500
C 	C 	0.66113 0.67459 0.50577 0.03400
C 	C 	0.69047 0.73393 0.52711 0.09100
C 	C 	0.74089 0.73527 0.54603 -0.10900
C 	C 	0.75104 0.66954 0.54683 0.07400
C 	C 	0.71404 0.60503 0.52829 0.00900
C 	C 	0.67427 0.61110 0.50564 -0.07300
C 	C 	0.65635 0.78081 0.53375 0.10100
C 	C 	0.77858 0.80180 0.56768 0.78600
H 	H 	0.78366 0.66584 0.56348 0.10400
C 	C 	0.64014 0.54609 0.48316 0.77800
H 	H 	0.62343 0.67435 0.49096 0.10400
C 	C 	0.65148 0.82951 0.51191 -0.13000
C 	C 	0.59073 0.83322 0.50982 0.07200
C 	C 	0.53751 0.79136 0.52987 -0.00300
C 	C 	0.55259 0.76568 0.55636 -0.08400
C 	C 	0.61121 0.75760 0.55768 0.01500
C 	C 	0.70650 0.86909 0.48880 0.78900
H 	H 	0.58170 0.86012 0.49076 0.07700
C 	C 	0.50167 0.73521 0.58129 0.78000
H 	H 	0.61708 0.72464 0.57552 0.11200
F 	F 	0.68542 0.52253 0.47320 -0.41700
F 	F 	0.61832 0.57137 0.45918 -0.43200
F 	F 	0.58435 0.48227 0.49577 -0.43200
F 	F 	0.74279 0.78366 0.59381 -0.45700
F 	F 	0.78662 0.87249 0.55713 -0.41500
F 	F 	0.84293 0.81200 0.57304 -0.40600
F 	F 	0.53434 0.74225 0.60768 -0.41800
F 	F 	0.45526 0.65664 0.57661 -0.40700
F 	F 	0.46741 0.77771 0.58329 -0.39000
F 	F 	0.70667 0.93551 0.47782 -0.42000
F 	F 	0.69493 0.81730 0.46609 -0.45000
F 	F 	0.77023 0.89228 0.50043 -0.39500
C 	C 	0.69600 0.98279 0.58693 -0.01400
C 	C 	0.72447 0.94867 0.60518 -0.00700
C 	C 	0.79503 0.98826 0.61052 0.06000
C 	C 	0.83792 0.05780 0.59473 0.02200
C 	C 	0.80914 0.09322 0.57703 0.00300
C 	C 	0.73768 0.05751 0.57438 0.05000
C 	C 	0.85131 0.16868 0.56481 0.06900
C 	C 	0.92249 0.20291 0.56695 -0.03100
C 	C 	0.95122 0.16693 0.58402 0.01500
C 	C 	0.90899 0.09668 0.59929 0.03200
C 	C 	0.93586 0.06995 0.62143 0.00400
C 	C 	0.89177 0.00993 0.64074 -0.03600
C 	C 	0.82230 0.96421 0.63351 0.00700
C 	C 	0.70881 0.10079 0.56235 -0.01400
C 	C 	0.75065 0.18076 0.55496 -0.00400
C 	C 	0.82166 0.21213 0.55357 -0.02700
H 	H 	0.64121 0.95310 0.58390 0.09000
H 	H 	0.69134 0.89316 0.61606 0.10100
H 	H 	0.95554 0.25872 0.55632 0.13300
H 	H 	0.00611 0.19589 0.58660 0.06500
H 	H 	0.99021 0.10168 0.62583 0.06400
H 	H 	0.78864 0.91487 0.64736 0.08100
H 	H 	0.65377 0.07534 0.56185 0.09200
H 	H 	0.85384 0.27277 0.54661 0.10900
C 	C 	0.30361 0.22734 0.59945 -0.01900
C 	C 	0.24073 0.17219 0.61149 -0.02400
C 	C 	0.23737 0.14187 0.63979 0.03200
C 	C 	0.29765 0.16714 0.65608 0.00300
C 	C 	0.36077 0.22391 0.64421 0.00300
C 	C 	0.36387 0.25325 0.61562 0.04300
C 	C 	0.42102 0.24982 0.66061 0.02900
C 	C 	0.41790 0.21769 0.68855 -0.03300
C 	C 	0.35541 0.15961 0.69998 -0.03400
C 	C 	0.29486 0.13541 0.68420 0.02700
C 	C 	0.23144 0.08148 0.69645 -0.01800
C 	C 	0.17084 0.06112 0.68115 -0.05100
C 	C 	0.17432 0.08825 0.65226 -0.01700
C 	C 	0.42744 0.30516 0.60307 -0.00300
C 	C 	0.48774 0.32756 0.61881 -0.03500
C 	C 	0.48401 0.30395 0.64816 -0.01900
H 	H 	0.30544 0.24954 0.57747 0.07800
H 	H 	0.19465 0.15309 0.59879 0.06700
H 	H 	0.46402 0.23657 0.70121 0.04600
H 	H 	0.35418 0.13351 0.72111 0.05200
H 	H 	0.22908 0.05827 0.71830 0.05600
H 	H 	0.12773 0.07017 0.64000 0.06600
H 	H 	0.43038 0.32429 0.58050 0.09300
H 	H 	0.53050 0.32290 0.66045 0.05300
C 	C 	0.91186 0.57082 0.70294 -0.02300
C 	C 	0.88101 0.49128 0.69488 -0.04700
C 	C 	0.80969 0.44444 0.69554 0.04300
C 	C 	0.76984 0.47495 0.70784 -0.01000
C 	C 	0.80070 0.55501 0.71571 0.00000
C 	C 	0.87159 0.60403 0.71183 0.02600
C 	C 	0.75975 0.58761 0.72451 0.02700
C 	C 	0.68903 0.53814 0.72818 -0.03300
C 	C 	0.65828 0.45870 0.71998 -0.03700
C 	C 	0.69798 0.42830 0.70795 0.02600
C 	C 	0.66759 0.35795 0.69175 -0.03100
C 	C 	0.70830 0.34431 0.67192 -0.03600
C 	C 	0.77682 0.37344 0.67978 -0.03700
C 	C 	0.90055 0.68606 0.71488 -0.01700
C 	C 	0.85903 0.71946 0.72159 -0.04200
C 	C 	0.78907 0.66966 0.72749 -0.01800
H 	H 	0.96672 0.60728 0.70104 0.07200
H 	H 	0.91234 0.46739 0.68680 0.10100
H 	H 	0.65745 0.56200 0.73607 0.05900
H 	H 	0.60329 0.42236 0.72130 0.04600
H 	H 	0.61262 0.32336 0.69031 0.04800
H 	H 	0.80696 0.35253 0.66822 0.08500
H 	H 	0.95482 0.72384 0.71126 0.06900
H 	H 	0.75716 0.69482 0.73348 0.06500
C 	C 	0.02565 0.54601 0.89095 0.01700
C 	C 	0.04834 0.52680 0.91662 0.10700
C 	C 	0.01525 0.44733 0.92655 -0.12600
C 	C 	0.95249 0.39301 0.91394 0.09400
C 	C 	0.92511 0.41637 0.89096 0.00300
C 	C 	0.96720 0.48873 0.87666 -0.06100
C 	C 	0.09845 0.59119 0.93537 0.07900
C 	C 	0.04234 0.42228 0.95248 0.79300
H 	H 	0.92173 0.33559 0.92398 0.10400
C 	C 	0.94677 0.50754 0.84758 0.78100
H 	H 	0.05135 0.60627 0.88296 0.11700
C 	C 	0.16953 0.62580 0.93020 -0.09800
C 	C 	0.21487 0.67130 0.95250 0.07500
C 	C 	0.18972 0.67754 0.97990 0.01100
C 	C 	0.12070 0.65802 0.98240 -0.06500
C 	C 	0.07499 0.61323 0.96020 0.03900
C 	C 	0.19680 0.61334 0.90139 0.78800
H 	H 	0.26909 0.69419 0.94981 0.09400
C 	C 	0.09420 0.67640 0.01010 0.77700
H 	H 	0.02072 0.59077 0.96317 0.09800
F 	F 	0.00354 0.56186 0.83208 -0.44200
F 	F 	0.90381 0.53843 0.85217 -0.45400
F 	F 	0.91385 0.43981 0.83096 -0.45300
F 	F 	0.02259 0.44266 0.97825 -0.42900
F 	F 	0.11274 0.45819 0.95150 -0.41100
F 	F 	0.01709 0.34154 0.95245 -0.40800
F 	F 	0.03770 0.68457 0.00414 -0.42800
F 	F 	0.14365 0.74616 0.02233 -0.43100
F 	F 	0.07597 0.61579 0.03010 -0.42200
F 	F 	0.26719 0.64795 0.90148 -0.39500
F 	F 	0.17857 0.64650 0.87877 -0.41400
F 	F 	0.17037 0.53369 0.89613 -0.39200
C 	C 	0.64186 0.97303 0.91506 0.04000
C 	C 	0.58901 0.94672 0.93576 0.09700
C 	C 	0.57640 0.00224 0.95063 -0.11000
C 	C 	0.60937 0.08111 0.94089 0.07700
C 	C 	0.65883 0.10629 0.91870 0.01100
C 	C 	0.67944 0.05335 0.90744 -0.06900
C 	C 	0.54674 0.86092 0.94158 0.08400
C 	C 	0.52859 0.97787 0.97692 0.79200
H 	H 	0.59552 0.12263 0.95007 0.08900
C 	C 	0.73993 0.08141 0.88675 0.77900
H 	H 	0.65296 0.93067 0.90458 0.10500
C 	C 	0.48108 0.81683 0.92917 -0.09500
C 	C 	0.43184 0.74944 0.94419 0.08000
C 	C 	0.44929 0.72545 0.97027 0.02600
C 	C 	0.51916 0.75515 0.97655 -0.06900
C 	C 	0.56757 0.82553 0.96298 0.04600
C 	C 	0.46240 0.84393 0.90125 0.78600
H 	H 	0.37913 0.72096 0.93736 0.11500
C 	C 	0.54135 0.71814 0.00021 0.78300
H 	H 	0.61981 0.85576 0.97068 0.10500
F 	F 	0.71989 0.08667 0.85860 -0.43200
F 	F 	0.76538 0.02951 0.88665 -0.42900
F 	F 	0.79222 0.15438 0.89521 -0.42300
F 	F 	0.54743 0.93976 0.99740 -0.42600
F 	F 	0.46230 0.92786 0.96821 -0.40800
F 	F 	0.53042 0.04243 0.99047 -0.40900
F 	F 	0.60359 0.72447 0.99295 -0.39900
F 	F 	0.49429 0.63896 0.00355 -0.42700
F 	F 	0.54776 0.75636 0.02647 -0.43000
F 	F 	0.40421 0.78349 0.88879 -0.38600
F 	F 	0.51475 0.86835 0.88097 -0.42600
F 	F 	0.45078 0.90589 0.90726 -0.40000
C 	C 	0.46189 0.37455 0.97037 0.04200
C 	C 	0.47025 0.35349 0.99885 0.09200
C 	C 	0.50294 0.30808 0.00314 -0.09800
C 	C 	0.53705 0.29684 0.97936 0.07900
C 	C 	0.53662 0.32798 0.95152 0.01600
C 	C 	0.49056 0.35650 0.94631 -0.06800
C 	C 	0.44341 0.37836 0.02381 0.10100
C 	C 	0.49860 0.26855 0.03245 0.78900
H 	H 	0.56599 0.26657 0.98269 0.10500
C 	C 	0.46924 0.36452 0.91556 0.77900
H 	H 	0.43270 0.40462 0.96698 0.11600
C 	C 	0.48006 0.45630 0.03480 -0.10400
C 	C 	0.44437 0.48729 0.05016 0.07900
C 	C 	0.37359 0.44235 0.05387 0.00300
C 	C 	0.34097 0.36034 0.04870 -0.06600
C 	C 	0.37562 0.32949 0.03259 0.03300
C 	C 	0.55449 0.50981 0.02678 0.79500
H 	H 	0.46994 0.54922 0.05595 0.09000
C 	C 	0.26673 0.30764 0.05666 0.77400
H 	H 	0.34824 0.26930 0.02475 0.12800
F 	F 	0.51134 0.44011 0.90521 -0.43100
F 	F 	0.40269 0.35058 0.91559 -0.41100
F 	F 	0.47231 0.31059 0.89679 -0.43800
F 	F 	0.43153 0.21287 0.03816 -0.41600
F 	F 	0.52208 0.32360 0.05471 -0.39800
F 	F 	0.53717 0.23088 0.03260 -0.40200
F 	F 	0.22626 0.31340 0.03515 -0.43500
F 	F 	0.25204 0.32953 0.08334 -0.45100
F 	F 	0.25145 0.22974 0.05897 -0.42300
F 	F 	0.58462 0.57419 0.04529 -0.41200
F 	F 	0.55909 0.53679 0.99837 -0.39700
F 	F 	0.59085 0.46984 0.02896 -0.40200
C 	C 	0.95827 0.39698 0.75705 0.00300
C 	C 	0.93294 0.44789 0.76415 -0.01500
C 	C 	0.86222 0.41935 0.76528 0.04900
C 	C 	0.81718 0.34202 0.75583 -0.00500
C 	C 	0.84252 0.29081 0.74866 0.00800
C 	C 	0.91311 0.31739 0.75054 0.03800
C 	C 	0.79675 0.21152 0.74189 0.03300
C 	C 	0.72653 0.18573 0.73985 -0.03000
C 	C 	0.70138 0.23651 0.74718 -0.03300
C 	C 	0.74613 0.31333 0.75676 0.02600
C 	C 	0.72106 0.35800 0.77088 -0.03000
C 	C 	0.76601 0.42437 0.78715 -0.04600
C 	C 	0.83552 0.46256 0.77938 -0.01000
C 	C 	0.93727 0.26339 0.74714 -0.00900
C 	C 	0.89114 0.18310 0.74182 -0.02900
C 	C 	0.82105 0.15806 0.73863 -0.01500
H 	H 	0.01279 0.41883 0.75758 0.07500
H 	H 	0.96817 0.50821 0.77028 0.10200
H 	H 	0.69114 0.12551 0.73365 0.06400
H 	H 	0.64687 0.21477 0.74683 0.05500
H 	H 	0.66657 0.33429 0.77333 0.05300
H 	H 	0.86990 0.51947 0.78888 0.09700
H 	H 	0.99137 0.28354 0.74903 0.08100
H 	H 	0.78529 0.09670 0.73407 0.06700
C 	C 	0.28682 0.03196 0.80665 -0.02600
C 	C 	0.35359 0.05092 0.81376 -0.02700
C 	C 	0.40862 0.12431 0.80563 0.04300
C 	C 	0.39657 0.17752 0.78903 -0.00200
C 	C 	0.32915 0.15878 0.78218 0.00000
C 	C 	0.27418 0.08620 0.79136 0.02900
C 	C 	0.31679 0.21331 0.76664 0.02800
C 	C 	0.37220 0.28516 0.75727 -0.03200
C 	C 	0.43919 0.30380 0.76414 -0.03300
C 	C 	0.45158 0.25106 0.78065 0.03100
C 	C 	0.51751 0.27344 0.79085 -0.02600
C 	C 	0.52796 0.22441 0.81044 -0.02800
C 	C 	0.47474 0.14760 0.81579 -0.02100
C 	C 	0.20719 0.06872 0.78542 -0.02000
C 	C 	0.19414 0.12276 0.77001 -0.04400
C 	C 	0.24920 0.19501 0.76051 -0.02100
H 	H 	0.24482 0.97549 0.81346 0.07200
H 	H 	0.36231 0.00918 0.82616 0.08800
H 	H 	0.36352 0.32680 0.74478 0.06400
H 	H 	0.48128 0.35992 0.75710 0.05300
H 	H 	0.55908 0.33225 0.78619 0.05200
H 	H 	0.48326 0.10900 0.83025 0.08200
H 	H 	0.16513 0.01245 0.79240 0.05200
H 	H 	0.23963 0.23648 0.74835 0.06700
C 	C 	0.96331 0.84503 0.88286 -0.00600
C 	C 	0.94132 0.78122 0.90224 -0.02800
C 	C 	0.87132 0.73107 0.90713 0.04900
C 	C 	0.82380 0.75136 0.89557 -0.00100
C 	C 	0.84569 0.81405 0.87536 0.01100
C 	C 	0.91539 0.85829 0.86785 0.03200
C 	C 	0.79699 0.82500 0.85962 0.03900
C 	C 	0.72779 0.78144 0.86752 -0.01900
C 	C 	0.70616 0.72035 0.88815 -0.02900
C 	C 	0.75342 0.70152 0.90063 0.05100
C 	C 	0.73116 0.62786 0.91403 -0.01800
C 	C 	0.77784 0.60074 0.91871 -0.02000
C 	C 	0.84772 0.65580 0.91942 -0.01100
C 	C 	0.93489 0.90689 0.84293 -0.01100
C 	C 	0.88487 0.90529 0.82412 -0.03100
C 	C 	0.81702 0.87132 0.83400 -0.00800
H 	H 	0.01726 0.88072 0.87804 0.06000
H 	H 	0.97849 0.76812 0.91202 0.08400
H 	H 	0.69028 0.79187 0.85654 0.08000
H 	H 	0.65218 0.68430 0.89283 0.09100
H 	H 	0.67692 0.58673 0.91596 0.09400
H 	H 	0.88385 0.63638 0.92527 0.08100
H 	H 	0.98801 0.93780 0.83615 0.06400
H 	H 	0.77884 0.87382 0.82027 0.07600
