data_crystal

_cell_length_a 43.16596
_cell_length_b 42.13640
_cell_length_c 23.00934
_cell_angle_alpha 89.93482
_cell_angle_beta  89.96019
_cell_angle_gamma 89.86009

_symmetry_space_group_name_	'P 1'
_symmetry_space_group_name_H-M	'P 1'

loop_
_symmetry_equiv_pos_as_xyz
  x,y,z

loop_
_atom_site_label
_atom_site_type_symbol
_atom_site_fract_x
_atom_site_fract_y
_atom_site_fract_z
_atom_site_charge
C 	C 	0.51074 0.54242 0.93983 0.00800
C 	C 	0.52713 0.51367 0.95087 0.00800
C 	C 	0.47878 0.54159 0.92824 -0.05600
C 	C 	0.46317 0.51236 0.92612 0.00800
C 	C 	0.51159 0.48445 0.94808 -0.05600
C 	C 	0.47981 0.48356 0.93503 0.00900
H 	H 	0.52447 0.46251 0.95301 0.04800
H 	H 	0.46647 0.56332 0.91802 0.04800
C 	C 	0.46429 0.45448 0.92646 -0.01300
C 	C 	0.43253 0.45334 0.91434 0.00600
C 	C 	0.41893 0.42341 0.92713 -0.05500
C 	C 	0.44006 0.40173 0.95116 -0.00100
S 	S 	0.47466 0.41956 0.95483 -0.01600
H 	H 	0.39535 0.41728 0.91595 0.04000
C 	C 	0.43149 0.51082 0.91096 -0.01300
C 	C 	0.41588 0.48167 0.90706 0.00600
C 	C 	0.38330 0.48449 0.91524 -0.05400
C 	C 	0.37377 0.51576 0.92600 -0.00200
S 	S 	0.40528 0.53864 0.92698 -0.01500
H 	H 	0.36786 0.46438 0.91853 0.04000
C 	C 	0.55917 0.57225 0.95103 0.00500
C 	C 	0.52763 0.57111 0.93705 -0.01300
S 	S 	0.51302 0.60750 0.94584 -0.01500
C 	C 	0.54564 0.62576 0.96627 -0.00300
C 	C 	0.56948 0.60306 0.96694 -0.05400
C 	C 	0.55945 0.51505 0.95998 -0.01300
C 	C 	0.57519 0.54404 0.96260 0.00700
C 	C 	0.60391 0.54215 0.99261 -0.05800
C 	C 	0.60995 0.51175 0.01474 0.00400
S 	S 	0.58034 0.48823 0.99623 -0.01800
H 	H 	0.62019 0.56157 0.99546 0.04000
H 	H 	0.59331 0.60872 0.97709 0.03900
C 	C 	0.42504 0.30105 0.94742 0.00400
C 	C 	0.40060 0.32172 0.96097 -0.04200
C 	C 	0.40575 0.35442 0.96391 -0.04300
C 	C 	0.43531 0.36686 0.95207 0.01000
C 	C 	0.46000 0.34591 0.94039 -0.04300
C 	C 	0.45493 0.31316 0.93914 -0.04100
H 	H 	0.37756 0.31246 0.96865 0.03500
H 	H 	0.38674 0.37008 0.97514 0.03600
H 	H 	0.48298 0.35490 0.93149 0.03900
H 	H 	0.47415 0.29723 0.93082 0.03500
C 	C 	0.28791 0.54063 0.00798 0.00500
C 	C 	0.30193 0.51133 0.02017 -0.03800
C 	C 	0.33037 0.50349 0.99486 -0.04900
C 	C 	0.34448 0.52444 0.95527 0.01200
C 	C 	0.33038 0.55375 0.94316 -0.04300
C 	C 	0.30223 0.56180 0.96939 -0.04300
H 	H 	0.29087 0.49473 0.04954 0.03500
H 	H 	0.34141 0.48123 0.00616 0.04000
H 	H 	0.34099 0.57010 0.91276 0.03800
H 	H 	0.29137 0.58434 0.95926 0.03600
C 	C 	0.70242 0.48015 0.05041 0.00800
C 	C 	0.69155 0.50875 0.07393 -0.04300
C 	C 	0.66117 0.51868 0.06326 -0.04100
C 	C 	0.64141 0.50013 0.02877 0.00700
C 	C 	0.65218 0.47104 0.00647 -0.03700
C 	C 	0.68239 0.46093 0.01802 -0.04400
H 	H 	0.70673 0.52342 0.09998 0.03600
H 	H 	0.65302 0.54087 0.08155 0.03600
H 	H 	0.63743 0.45655 0.97932 0.03700
H 	H 	0.69052 0.43855 0.00052 0.03800
C 	C 	0.55909 0.72553 0.94018 0.00300
C 	C 	0.58004 0.70371 0.91616 -0.04100
C 	C 	0.57592 0.67117 0.92505 -0.04400
C 	C 	0.55079 0.66014 0.95831 0.01100
C 	C 	0.52995 0.68205 0.98259 -0.04600
C 	C 	0.53397 0.71459 0.97323 -0.04100
H 	H 	0.59922 0.71195 0.88982 0.03600
H 	H 	0.59185 0.65456 0.90503 0.03700
H 	H 	0.51052 0.67387 0.00836 0.04100
H 	H 	0.51748 0.73129 0.99138 0.03500
Zn	Zn	0.37680 0.10791 0.90798 1.21900
C 	C 	0.41107 0.16591 0.92388 0.32300
O 	O 	0.38904 0.08949 0.83253 -0.47000
O 	O 	0.43446 0.14886 0.94321 -0.45700
O 	O 	0.43479 0.11586 0.82848 -0.50100
C 	C 	0.41040 0.08599 0.00684 0.33900
O 	O 	0.38853 0.10538 0.98951 -0.47000
O 	O 	0.43261 0.07768 0.97106 -0.51800
C 	C 	0.41240 0.10061 0.80225 0.32100
O 	O 	0.34554 0.06301 0.92582 -0.33600
Zn	Zn	0.44581 0.10538 0.90797 1.16800
O 	O 	0.38846 0.15240 0.89478 -0.45000
C 	C 	0.32247 0.08185 0.91479 0.28400
O 	O 	0.32982 0.11089 0.90291 -0.40000
C 	C 	0.46911 0.00373 0.35274 0.00900
C 	C 	0.49716 0.98600 0.35045 0.00700
C 	C 	0.46391 0.02509 0.39861 -0.05700
C 	C 	0.48655 0.02932 0.44177 0.00700
C 	C 	0.51994 0.99044 0.39331 -0.05600
C 	C 	0.51484 0.01202 0.43895 0.00800
H 	H 	0.54144 0.97720 0.39122 0.04700
H 	H 	0.44241 0.03836 0.40065 0.04700
C 	C 	0.53758 0.01720 0.48210 -0.01300
C 	C 	0.53179 0.03722 0.52973 0.00400
C 	C 	0.54942 0.02903 0.57996 -0.05600
C 	C 	0.56894 0.00286 0.57143 -0.00200
S 	S 	0.56334 0.99004 0.50358 -0.02200
H 	H 	0.54506 0.03878 0.62264 0.03700
C 	C 	0.48227 0.05142 0.48717 -0.01300
C 	C 	0.50434 0.05516 0.53136 0.00400
C 	C 	0.49186 0.06905 0.58271 -0.05600
C 	C 	0.46000 0.07484 0.57890 -0.00100
S 	S 	0.44796 0.06280 0.51372 -0.02200
H 	H 	0.50461 0.07155 0.62288 0.03800
C 	C 	0.45213 0.97854 0.26198 0.00500
C 	C 	0.44659 0.99908 0.30898 -0.01500
S 	S 	0.42243 0.02728 0.28564 -0.01800
C 	C 	0.41722 0.01445 0.21771 -0.00200
C 	C 	0.43549 0.98722 0.21082 -0.05600
C 	C 	0.50101 0.96332 0.30589 -0.01300
C 	C 	0.47904 0.95973 0.26161 0.00400
C 	C 	0.49123 0.94455 0.21126 -0.05500
C 	C 	0.52273 0.93714 0.21603 -0.00200
S 	S 	0.53496 0.95016 0.28058 -0.02200
H 	H 	0.47857 0.94197 0.17101 0.04000
H 	H 	0.44016 0.97716 0.16849 0.03900
Zn	Zn	0.60982 0.91137 0.89083 1.21900
C 	C 	0.56821 0.85847 0.88450 0.32500
O 	O 	0.60550 0.93630 0.81885 -0.47000
O 	O 	0.54599 0.87743 0.90252 -0.45500
O 	O 	0.55710 0.91872 0.79851 -0.50500
C 	C 	0.57247 0.92947 0.98778 0.33200
O 	O 	0.59301 0.90895 0.96908 -0.46800
O 	O 	0.55452 0.94423 0.95056 -0.51800
C 	C 	0.58314 0.93155 0.78119 0.32100
O 	O 	0.64375 0.95025 0.92755 -0.33900
Zn	Zn	0.54265 0.92437 0.87764 1.16700
O 	O 	0.59417 0.87028 0.86389 -0.44500
C 	C 	0.66536 0.92950 0.91772 0.28600
O 	O 	0.65623 0.90288 0.89564 -0.39200
Zn	Zn	0.11137 0.59790 0.09408 1.22200
C 	C 	0.07596 0.65600 0.09977 0.32500
O 	O 	0.10353 0.59993 0.17819 -0.45300
O 	O 	0.05490 0.64055 0.12954 -0.45700
O 	O 	0.05829 0.57253 0.16995 -0.51300
C 	C 	0.07141 0.58175 0.99844 0.31900
O 	O 	0.09576 0.57336 0.02876 -0.47700
O 	O 	0.05034 0.60016 0.02167 -0.49700
C 	C 	0.08133 0.58300 0.20179 0.32800
O 	O 	0.14597 0.55515 0.10814 -0.34300
Zn	Zn	0.04155 0.59595 0.10397 1.17100
O 	O 	0.09729 0.64043 0.07073 -0.44700
C 	C 	0.16740 0.57534 0.09457 0.28700
O 	O 	0.15779 0.60391 0.08467 -0.39400
C 	C 	0.01219 0.45086 0.54953 0.00800
C 	C 	0.03421 0.47599 0.54836 0.00800
C 	C 	0.00467 0.43614 0.60242 -0.05500
C 	C 	0.01991 0.44512 0.65370 0.00800
C 	C 	0.04790 0.48633 0.60031 -0.05600
C 	C 	0.04142 0.47060 0.65277 0.00800
H 	H 	0.06534 0.50478 0.59922 0.04700
H 	H 	0.98897 0.41612 0.60287 0.04600
C 	C 	0.05842 0.47738 0.70348 -0.01300
C 	C 	0.05455 0.45973 0.75472 0.00500
C 	C 	0.06431 0.47647 0.80520 -0.05500
C 	C 	0.07405 0.50756 0.79359 -0.00200
S 	S 	0.07061 0.51344 0.72217 -0.01900
H 	H 	0.06093 0.46780 0.84900 0.03800
C 	C 	0.01653 0.42724 0.70511 -0.01300
C 	C 	0.03309 0.43467 0.75574 0.00400
C 	C 	0.01844 0.42332 0.80724 -0.05500
C 	C 	0.99035 0.40786 0.79660 -0.00300
S 	S 	0.98396 0.40908 0.72522 -0.02100
H 	H 	0.02569 0.42976 0.85061 0.03700
C 	C 	0.01100 0.45098 0.44291 0.00400
C 	C 	0.00145 0.43852 0.49634 -0.01300
S 	S 	0.96813 0.41919 0.48614 -0.02200
C 	C 	0.96659 0.42328 0.41393 -0.00100
C 	C 	0.99133 0.44235 0.39617 -0.05800
C 	C 	0.04437 0.48763 0.49398 -0.01400
C 	C 	0.03181 0.47637 0.44179 0.00400
C 	C 	0.03447 0.49826 0.39516 -0.05600
C 	C 	0.04824 0.52690 0.41156 -0.00200
S 	S 	0.05776 0.52419 0.48175 -0.01900
H 	H 	0.02816 0.49289 0.35075 0.03600
H 	H 	0.99358 0.45153 0.35244 0.03500
Zn	Zn	0.87813 0.40281 0.09624 1.22000
C 	C 	0.91019 0.34264 0.08790 0.32700
O 	O 	0.88907 0.41923 0.17389 -0.47400
O 	O 	0.93449 0.35863 0.06964 -0.45900
O 	O 	0.93427 0.39180 0.18159 -0.51000
C 	C 	0.91684 0.41809 0.99937 0.32900
O 	O 	0.89147 0.40347 0.01521 -0.45100
O 	O 	0.93565 0.42888 0.03923 -0.52100
C 	C 	0.91106 0.40671 0.20604 0.32300
O 	O 	0.85096 0.45047 0.07727 -0.33800
Zn	Zn	0.94732 0.40181 0.10378 1.16900
O 	O 	0.88602 0.35758 0.10975 -0.44600
C 	C 	0.82638 0.43368 0.08749 0.28500
O 	O 	0.83114 0.40396 0.09842 -0.39700
C 	C 	0.00870 0.97323 0.08346 0.01000
C 	C 	0.02363 0.00201 0.06740 0.00900
C 	C 	0.97647 0.97279 0.09268 -0.05600
C 	C 	0.95906 0.00082 0.08665 0.01000
C 	C 	0.00619 0.02995 0.06097 -0.05500
C 	C 	0.97409 0.02961 0.07087 0.00900
H 	H 	0.01776 0.05213 0.05138 0.04800
H 	H 	0.96532 0.95123 0.10746 0.04800
C 	C 	0.95660 0.05786 0.07048 -0.01300
C 	C 	0.92478 0.05807 0.08073 0.00600
C 	C 	0.90997 0.08657 0.06254 -0.05400
C 	C 	0.93057 0.10822 0.03671 -0.00100
S 	S 	0.96589 0.09147 0.03690 -0.01600
H 	H 	0.88613 0.09234 0.07271 0.04000
C 	C 	0.92711 0.00168 0.10058 -0.01300
C 	C 	0.90969 0.02976 0.09510 0.00600
C 	C 	0.87743 0.02433 0.08741 -0.05400
C 	C 	0.86988 0.99200 0.08757 -0.00100
S 	S 	0.90276 0.97116 0.09417 -0.01500
H 	H 	0.86119 0.04268 0.07471 0.04000
C 	C 	0.05915 0.94609 0.08344 0.00600
C 	C 	0.02705 0.94598 0.09346 -0.01300
S 	S 	0.01472 0.90864 0.08755 -0.01400
C 	C 	0.04893 0.89166 0.07356 -0.00100
C 	C 	0.07161 0.91532 0.07320 -0.05400
C 	C 	0.05623 0.00229 0.06227 -0.01300
C 	C 	0.07382 0.97447 0.06790 0.00600
C 	C 	0.10344 0.97645 0.04096 -0.05600
C 	C 	0.10829 0.00556 0.01287 0.00300
S 	S 	0.07669 0.02802 0.02272 -0.01600
H 	H 	0.12093 0.95807 0.04393 0.04000
H 	H 	0.09603 0.91049 0.06708 0.04000
C 	C 	0.91482 0.20854 0.04617 0.00400
C 	C 	0.89178 0.18853 0.02403 -0.04100
C 	C 	0.89728 0.15589 0.01937 -0.04400
C 	C 	0.92558 0.14295 0.03822 0.01000
C 	C 	0.94856 0.16318 0.06056 -0.04200
C 	C 	0.94324 0.19577 0.06402 -0.04100
H 	H 	0.86957 0.19818 0.01099 0.03600
H 	H 	0.87943 0.14064 0.00179 0.03600
H 	H 	0.97025 0.15366 0.07651 0.03900
H 	H 	0.96103 0.21111 0.08163 0.03600
C 	C 	0.78419 0.95770 0.01764 0.00900
C 	C 	0.81178 0.94109 0.00670 -0.04100
C 	C 	0.83981 0.95207 0.02952 -0.04300
C 	C 	0.84026 0.97912 0.06535 0.01000
C 	C 	0.81224 0.99433 0.07939 -0.04300
C 	C 	0.78437 0.98365 0.05568 -0.04300
H 	H 	0.81168 0.92043 0.97871 0.03500
H 	H 	0.86112 0.93993 0.01832 0.04000
H 	H 	0.81208 0.01455 0.10841 0.03600
H 	H 	0.76298 0.99589 0.06608 0.03600
C 	C 	0.19865 0.04082 0.97013 0.01100
C 	C 	0.19059 0.00948 0.95668 -0.04500
C 	C 	0.16101 0.99814 0.97004 -0.04000
C 	C 	0.13923 0.01805 0.99719 0.00200
C 	C 	0.14719 0.04971 0.00946 -0.03300
C 	C 	0.17660 0.06113 0.99512 -0.05200
H 	H 	0.20731 0.99384 0.93627 0.03600
H 	H 	0.15502 0.97392 0.95916 0.03500
H 	H 	0.13085 0.06536 0.03081 0.03700
H 	H 	0.18252 0.08553 0.00477 0.04000
C 	C 	0.06620 0.79203 0.09011 0.00500
C 	C 	0.08200 0.80986 0.04807 -0.04200
C 	C 	0.07674 0.84249 0.04339 -0.04300
C 	C 	0.05553 0.85753 0.08061 0.01000
C 	C 	0.04016 0.83969 0.12343 -0.04200
C 	C 	0.04522 0.80703 0.12764 -0.04100
H 	H 	0.09804 0.79835 0.01857 0.03700
H 	H 	0.08868 0.85597 0.01014 0.03700
H 	H 	0.02425 0.85107 0.15331 0.03900
H 	H 	0.03262 0.79331 0.15969 0.03600
C 	C 	0.90852 0.30831 0.07699 -0.11600
C 	C 	0.90324 0.28636 0.12265 0.08300
C 	C 	0.90167 0.25386 0.10976 -0.08800
C 	C 	0.90875 0.24271 0.05394 0.00800
C 	C 	0.91468 0.26460 0.00862 0.00100
C 	C 	0.91336 0.29722 0.02027 -0.00000
H 	H 	0.89733 0.23697 0.14443 0.05000
H 	H 	0.91675 0.31403 0.98518 0.03100
C 	C 	0.90278 0.29659 0.18599 -0.12900
C 	C 	0.92170 0.25364 0.94724 -0.09500
C 	C 	0.93321 0.28837 0.21730 -0.01000
H 	H 	0.93819 0.26256 0.21349 0.02400
H 	H 	0.93040 0.29376 0.26428 0.02100
C 	C 	0.89216 0.25340 0.91021 -0.02500
H 	H 	0.88220 0.27774 0.90812 0.03000
H 	H 	0.87468 0.23744 0.93019 0.03000
H 	H 	0.89765 0.32214 0.19198 0.06800
H 	H 	0.93275 0.22981 0.94669 0.04800
C 	C 	0.96080 0.30717 0.19403 -0.16300
C 	C 	0.89878 0.24207 0.84843 -0.15700
H 	H 	0.95623 0.33303 0.19712 0.05700
H 	H 	0.98168 0.30155 0.22031 0.05000
H 	H 	0.96569 0.30076 0.14813 0.05800
H 	H 	0.88362 0.28389 0.20836 0.05200
H 	H 	0.91572 0.25800 0.82685 0.05300
H 	H 	0.87697 0.24227 0.82286 0.05300
H 	H 	0.90811 0.21747 0.84904 0.05500
H 	H 	0.93882 0.27005 0.92722 0.04200
C 	C 	0.96505 0.40786 0.83941 0.01100
C 	C 	0.95964 0.38102 0.87490 -0.00100
C 	C 	0.94131 0.38423 0.92485 -0.01000
C 	C 	0.92859 0.41369 0.94002 -0.12100
C 	C 	0.93105 0.43953 0.90118 0.08000
C 	C 	0.94944 0.43641 0.85115 -0.09000
H 	H 	0.93819 0.36407 0.95344 0.03400
H 	H 	0.95289 0.45674 0.82291 0.05100
C 	C 	0.97299 0.34866 0.85993 -0.09300
C 	C 	0.91503 0.47082 0.91340 -0.12400
C 	C 	0.94828 0.32627 0.83511 -0.02300
H 	H 	0.92816 0.32472 0.86519 0.02900
H 	H 	0.95845 0.30210 0.83152 0.02200
C 	C 	0.93720 0.49411 0.94310 -0.01600
H 	H 	0.95738 0.49874 0.91425 0.02400
H 	H 	0.94592 0.48373 0.98435 0.03000
H 	H 	0.99286 0.35002 0.82939 0.04700
H 	H 	0.89407 0.46720 0.94074 0.06000
C 	C 	0.93707 0.33657 0.77499 -0.15600
C 	C 	0.92119 0.52558 0.95665 -0.15900
H 	H 	0.95689 0.33822 0.74432 0.05800
H 	H 	0.92045 0.31877 0.75804 0.05300
H 	H 	0.92509 0.35989 0.77734 0.06300
H 	H 	0.98242 0.33777 0.90028 0.03800
H 	H 	0.91315 0.53712 0.91591 0.05300
H 	H 	0.93774 0.54170 0.97870 0.04400
H 	H 	0.90107 0.52169 0.98591 0.05500
H 	H 	0.90680 0.48129 0.87175 0.05100
C 	C 	0.93903 0.41718 0.37795 0.00900
C 	C 	0.93330 0.38632 0.35634 0.00100
C 	C 	0.91794 0.38287 0.30301 -0.00300
C 	C 	0.91026 0.40965 0.26982 -0.11900
C 	C 	0.91037 0.43985 0.29673 0.06900
C 	C 	0.92410 0.44313 0.35175 -0.08700
H 	H 	0.91489 0.35939 0.28464 0.03100
H 	H 	0.92601 0.46646 0.37129 0.04700
C 	C 	0.94397 0.35690 0.38878 -0.09400
C 	C 	0.89574 0.46849 0.26768 -0.11500
C 	C 	0.97124 0.34005 0.35869 -0.02500
H 	H 	0.96518 0.33438 0.31302 0.02600
H 	H 	0.97561 0.31718 0.38142 0.02400
C 	C 	0.86024 0.46693 0.27131 -0.01400
H 	H 	0.85289 0.46943 0.31741 0.02600
H 	H 	0.85178 0.44367 0.25521 0.03900
H 	H 	0.94994 0.36198 0.43465 0.04900
H 	H 	0.90356 0.47037 0.22183 0.04800
C 	C 	0.00108 0.35945 0.35947 -0.15400
C 	C 	0.84508 0.49321 0.23544 -0.16200
H 	H 	0.00712 0.36639 0.40461 0.06000
H 	H 	0.02034 0.34493 0.34157 0.04900
H 	H 	0.99856 0.38097 0.33199 0.05600
H 	H 	0.92426 0.34000 0.39078 0.04200
H 	H 	0.85305 0.51687 0.25043 0.05300
H 	H 	0.81953 0.49200 0.24048 0.05500
H 	H 	0.85084 0.49027 0.18868 0.06500
H 	H 	0.90361 0.49071 0.28911 0.04200
C 	C 	0.07414 0.69068 0.09501 -0.11200
C 	C 	0.05233 0.70549 0.05781 0.07500
C 	C 	0.04990 0.73868 0.05754 -0.08500
C 	C 	0.06969 0.75724 0.09158 0.00600
C 	C 	0.09259 0.74249 0.12640 0.00200
C 	C 	0.09422 0.70924 0.12847 -0.00300
H 	H 	0.03278 0.75014 0.03008 0.04900
H 	H 	0.11108 0.69779 0.15652 0.03200
C 	C 	0.03254 0.68645 0.01593 -0.11600
C 	C 	0.11468 0.76182 0.16324 -0.09400
C 	C 	0.04407 0.68919 0.95288 -0.01100
H 	H 	0.04526 0.71455 0.93967 0.02400
H 	H 	0.02703 0.67738 0.92393 0.02300
C 	C 	0.10178 0.76643 0.22482 -0.02500
H 	H 	0.09880 0.74293 0.24613 0.03000
H 	H 	0.07879 0.77827 0.22289 0.03100
H 	H 	0.03067 0.66108 0.02819 0.04400
H 	H 	0.11955 0.78522 0.14294 0.04900
C 	C 	0.07572 0.67366 0.94355 -0.16600
C 	C 	0.12343 0.78661 0.26186 -0.15700
H 	H 	0.07495 0.64820 0.95576 0.07700
H 	H 	0.08218 0.67535 0.89694 0.05700
H 	H 	0.09378 0.68586 0.96950 0.07200
H 	H 	0.00845 0.69581 0.01772 0.04300
H 	H 	0.14652 0.77507 0.26555 0.05500
H 	H 	0.11353 0.78930 0.30615 0.05400
H 	H 	0.12617 0.81057 0.24236 0.05600
H 	H 	0.13737 0.74932 0.16591 0.04500
C 	C 	0.06779 0.56974 0.93878 -0.11600
C 	C 	0.04210 0.55066 0.92266 0.07200
C 	C 	0.04286 0.53449 0.86947 -0.08600
C 	C 	0.07013 0.53336 0.83635 0.01100
C 	C 	0.09500 0.55368 0.85061 -0.00100
C 	C 	0.09294 0.57270 0.90049 -0.00300
H 	H 	0.02312 0.52024 0.85661 0.04900
H 	H 	0.11194 0.58838 0.91153 0.02800
C 	C 	0.01503 0.54468 0.96347 -0.11100
C 	C 	0.12344 0.55613 0.81225 -0.09200
C 	C 	0.01721 0.51215 0.99360 -0.03800
H 	H 	0.01880 0.49295 0.96060 0.02700
H 	H 	0.99560 0.50828 0.01884 0.01400
C 	C 	0.11937 0.58257 0.76698 -0.02600
H 	H 	0.11681 0.60580 0.78940 0.02900
H 	H 	0.09812 0.57837 0.74090 0.03300
H 	H 	0.01163 0.56348 0.99628 0.02100
H 	H 	0.12865 0.53321 0.79050 0.04700
C 	C 	0.04464 0.50960 0.03529 -0.13700
C 	C 	0.14712 0.58427 0.72595 -0.15600
H 	H 	0.04395 0.52911 0.06770 0.00800
H 	H 	0.04352 0.48663 0.05887 0.03600
H 	H 	0.06686 0.51039 0.01100 0.05700
H 	H 	0.99338 0.54509 0.93736 0.04100
H 	H 	0.16869 0.58899 0.75077 0.05400
H 	H 	0.14358 0.60381 0.69420 0.05400
H 	H 	0.14968 0.56163 0.70167 0.05600
H 	H 	0.14404 0.56152 0.83952 0.04200
C 	C 	0.06438 0.54760 0.36994 0.01100
C 	C 	0.05125 0.57695 0.35297 0.00100
C 	C 	0.06077 0.59105 0.30061 -0.00400
C 	C 	0.08195 0.57556 0.26414 -0.11600
C 	C 	0.09784 0.54838 0.28476 0.07800
C 	C 	0.08946 0.53521 0.33856 -0.08800
H 	H 	0.04988 0.61290 0.28616 0.02600
H 	H 	0.10090 0.51383 0.35384 0.04900
C 	C 	0.02677 0.59328 0.38974 -0.09400
C 	C 	0.12407 0.53349 0.25045 -0.12200
C 	C 	0.99438 0.59199 0.36206 -0.02300
H 	H 	0.99494 0.60234 0.31761 0.02000
H 	H 	0.97839 0.60681 0.38853 0.02300
C 	C 	0.15469 0.55087 0.26180 -0.01200
H 	H 	0.15788 0.55463 0.30927 0.02800
H 	H 	0.15416 0.57448 0.24021 0.04000
H 	H 	0.02581 0.58359 0.43460 0.04900
H 	H 	0.11882 0.53347 0.20324 0.06000
C 	C 	0.98128 0.55837 0.35912 -0.15600
C 	C 	0.18242 0.53203 0.23901 -0.16400
H 	H 	0.98142 0.54715 0.40283 0.06000
H 	H 	0.95700 0.55932 0.34333 0.04800
H 	H 	0.99495 0.54368 0.32832 0.05600
H 	H 	0.03335 0.61864 0.39466 0.04300
H 	H 	0.18475 0.50930 0.26313 0.05600
H 	H 	0.20393 0.54599 0.24534 0.05600
H 	H 	0.17973 0.52685 0.19201 0.07000
H 	H 	0.12655 0.50809 0.26301 0.04900
C 	C 	0.75491 0.94775 0.98979 -0.00100
C 	C 	0.74862 0.95477 0.93060 0.00800
C 	C 	0.71979 0.94646 0.90695 -0.01100
C 	C 	0.69659 0.93330 0.94191 -0.09800
C 	C 	0.70273 0.92643 0.00101 0.07500
C 	C 	0.73222 0.93282 0.02386 -0.08000
H 	H 	0.71497 0.95151 0.86160 0.03400
H 	H 	0.73722 0.92707 0.06885 0.04700
C 	C 	0.77183 0.97213 0.89239 -0.09700
C 	C 	0.67805 0.91214 0.04010 -0.12200
C 	C 	0.76203 0.00659 0.88014 -0.02200
H 	H 	0.73825 0.00734 0.86168 0.02900
H 	H 	0.77795 0.01667 0.84695 0.02500
C 	C 	0.67700 0.87588 0.03407 -0.01200
H 	H 	0.69915 0.86552 0.04996 0.02700
H 	H 	0.67413 0.86910 0.98776 0.03900
H 	H 	0.79569 0.97187 0.91004 0.05000
H 	H 	0.65496 0.92256 0.03032 0.06600
C 	C 	0.76335 0.02751 0.93424 -0.15700
C 	C 	0.65023 0.86171 0.06890 -0.16400
H 	H 	0.78687 0.02680 0.95375 0.05900
H 	H 	0.75796 0.05242 0.92207 0.05300
H 	H 	0.74597 0.01961 0.96675 0.06100
H 	H 	0.77337 0.95945 0.85013 0.04400
H 	H 	0.65261 0.86765 0.11572 0.05600
H 	H 	0.65034 0.83548 0.06420 0.05500
H 	H 	0.62771 0.87092 0.05262 0.06800
H 	H 	0.68291 0.91826 0.08623 0.05100
C 	C 	0.57823 0.98170 0.61975 0.01000
C 	C 	0.59796 0.99272 0.66444 -0.00200
C 	C 	0.60061 0.97516 0.71610 -0.00800
C 	C 	0.58510 0.94611 0.72268 -0.12100
C 	C 	0.56946 0.93285 0.67436 0.08000
C 	C 	0.56500 0.95140 0.62432 -0.09100
H 	H 	0.61437 0.98446 0.75158 0.03600
H 	H 	0.55114 0.94215 0.58895 0.05100
C 	C 	0.61805 0.02191 0.65614 -0.09200
C 	C 	0.56010 0.89820 0.67300 -0.12300
C 	C 	0.65071 0.01321 0.63476 -0.02400
H 	H 	0.66120 0.99498 0.66373 0.03100
H 	H 	0.66548 0.03474 0.63708 0.02500
C 	C 	0.52479 0.89428 0.67816 -0.01100
H 	H 	0.51257 0.91178 0.65011 0.02200
H 	H 	0.51741 0.89845 0.72375 0.02300
H 	H 	0.60750 0.03956 0.62628 0.04600
H 	H 	0.57183 0.88419 0.70755 0.06400
C 	C 	0.65090 0.00112 0.57213 -0.15500
C 	C 	0.51466 0.86106 0.65992 -0.16300
H 	H 	0.63924 0.01838 0.54283 0.05900
H 	H 	0.67521 0.99803 0.55732 0.05400
H 	H 	0.63911 0.97780 0.56915 0.06200
H 	H 	0.62030 0.03439 0.69849 0.03900
H 	H 	0.51830 0.85779 0.61250 0.05500
H 	H 	0.48966 0.85788 0.66962 0.05100
H 	H 	0.52809 0.84271 0.68371 0.05600
H 	H 	0.56816 0.88794 0.63106 0.05100
C 	C 	0.54301 0.93483 0.16478 0.01100
C 	C 	0.54937 0.90502 0.13918 -0.00000
C 	C 	0.56056 0.90376 0.08198 -0.00400
C 	C 	0.56593 0.93171 0.05050 -0.12000
C 	C 	0.56317 0.96146 0.07861 0.08000
C 	C 	0.55141 0.96273 0.13547 -0.08900
H 	H 	0.56422 0.88091 0.06137 0.03500
H 	H 	0.54747 0.98557 0.15593 0.05100
C 	C 	0.54553 0.87434 0.17303 -0.09400
C 	C 	0.57243 0.99201 0.04852 -0.12300
C 	C 	0.57680 0.86110 0.19389 -0.02300
H 	H 	0.59290 0.85827 0.15650 0.02600
H 	H 	0.57295 0.83715 0.21281 0.02300
C 	C 	0.54393 0.00956 0.02453 -0.01000
H 	H 	0.52992 0.01903 0.06123 0.02200
H 	H 	0.52904 0.99311 0.99933 0.02300
H 	H 	0.52962 0.87687 0.21069 0.04800
H 	H 	0.58949 0.98738 0.01330 0.06100
C 	C 	0.59191 0.88204 0.24003 -0.15700
C 	C 	0.55334 0.03706 0.98510 -0.16100
H 	H 	0.57599 0.88546 0.27746 0.05900
H 	H 	0.61341 0.87042 0.25593 0.05200
H 	H 	0.59818 0.90550 0.22149 0.06200
H 	H 	0.53460 0.85641 0.14420 0.04200
H 	H 	0.56731 0.05460 0.00971 0.05200
H 	H 	0.53227 0.04906 0.96815 0.03300
H 	H 	0.56704 0.02820 0.94756 0.04700
H 	H 	0.58443 0.00765 0.08022 0.05100
C 	C 	0.29041 0.07279 0.92861 -0.09500
C 	C 	0.26719 0.07185 0.88513 0.07000
C 	C 	0.23729 0.06147 0.89982 -0.08000
C 	C 	0.23011 0.05258 0.95695 -0.00200
C 	C 	0.25312 0.05427 0.00065 0.01100
C 	C 	0.28318 0.06392 0.98577 -0.01800
H 	H 	0.21961 0.06002 0.86646 0.04700
H 	H 	0.30108 0.06442 0.01884 0.03900
C 	C 	0.27400 0.08089 0.82244 -0.12000
C 	C 	0.24638 0.04434 0.06272 -0.09700
C 	C 	0.25824 0.11222 0.80483 -0.01000
H 	H 	0.23309 0.11142 0.81507 0.02500
H 	H 	0.26047 0.11518 0.75700 0.02200
C 	C 	0.25232 0.00873 0.07132 -0.02300
H 	H 	0.27752 0.00379 0.06684 0.02800
H 	H 	0.23984 0.99479 0.03778 0.03200
H 	H 	0.29916 0.08217 0.81269 0.06000
H 	H 	0.22224 0.05045 0.07516 0.05000
C 	C 	0.27268 0.14110 0.83425 -0.16300
C 	C 	0.24150 0.99771 0.13119 -0.15800
H 	H 	0.29749 0.14321 0.82206 0.07000
H 	H 	0.26045 0.16292 0.81971 0.05500
H 	H 	0.27050 0.13934 0.88223 0.07200
H 	H 	0.26493 0.06179 0.79386 0.04900
H 	H 	0.25305 0.01167 0.16584 0.05300
H 	H 	0.24738 0.97225 0.13716 0.05200
H 	H 	0.21599 0.00057 0.13523 0.05700
H 	H 	0.26148 0.05787 0.09300 0.04400
C 	C 	0.43958 0.07707 0.63012 0.01100
C 	C 	0.43974 0.05327 0.67371 -0.00300
C 	C 	0.42906 0.06081 0.72969 -0.00600
C 	C 	0.41649 0.09081 0.74145 -0.12100
C 	C 	0.41145 0.11238 0.69535 0.08100
C 	C 	0.42364 0.10555 0.64012 -0.09000
H 	H 	0.43107 0.04347 0.76437 0.01400
H 	H 	0.42189 0.12305 0.60566 0.04900
C 	C 	0.44911 0.01927 0.66037 -0.09300
C 	C 	0.39310 0.14265 0.70425 -0.12200
C 	C 	0.42083 0.99742 0.65465 -0.02300
H 	H 	0.40542 0.99999 0.69310 0.02700
H 	H 	0.42904 0.97240 0.65361 0.02100
C 	C 	0.41464 0.17111 0.71355 -0.01600
H 	H 	0.43194 0.17242 0.67779 0.02600
H 	H 	0.42731 0.16831 0.75527 0.03700
H 	H 	0.46349 0.01704 0.62068 0.05000
H 	H 	0.37693 0.14041 0.74165 0.05700
C 	C 	0.40231 0.00387 0.59929 -0.15600
C 	C 	0.39644 0.20221 0.71486 -0.16100
H 	H 	0.41722 0.00072 0.56035 0.06000
H 	H 	0.38276 0.98686 0.59650 0.05300
H 	H 	0.39263 0.02831 0.59965 0.06300
H 	H 	0.46382 0.01032 0.69653 0.03300
H 	H 	0.38423 0.20601 0.67293 0.05400
H 	H 	0.41263 0.22225 0.72177 0.05300
H 	H 	0.37921 0.20196 0.75075 0.05900
H 	H 	0.37843 0.14689 0.66523 0.05000
C 	C 	0.40854 0.07135 0.06470 -0.11900
C 	C 	0.42796 0.08144 0.11060 0.08100
C 	C 	0.42891 0.06372 0.16227 -0.08800
C 	C 	0.41092 0.03622 0.16868 0.01300
C 	C 	0.38960 0.02779 0.12464 -0.00200
C 	C 	0.38847 0.04567 0.07314 -0.00200
H 	H 	0.44432 0.07093 0.19698 0.05200
H 	H 	0.37252 0.03903 0.03888 0.03600
C 	C 	0.44648 0.11198 0.10653 -0.12300
C 	C 	0.36731 0.00041 0.13291 -0.09100
C 	C 	0.48165 0.10617 0.10670 -0.01900
H 	H 	0.48857 0.09196 0.14530 0.02700
H 	H 	0.49352 0.12948 0.11004 0.02300
C 	C 	0.34035 0.00985 0.17287 -0.02600
H 	H 	0.32620 0.02860 0.15148 0.03000
H 	H 	0.34935 0.01946 0.21454 0.03300
H 	H 	0.44024 0.12647 0.06798 0.05500
H 	H 	0.37966 0.97943 0.15084 0.04600
C 	C 	0.49300 0.08959 0.05169 -0.14500
C 	C 	0.31968 0.98144 0.18637 -0.15600
H 	H 	0.48670 0.10367 0.01258 0.01600
H 	H 	0.51860 0.08737 0.05336 0.04400
H 	H 	0.48296 0.06542 0.04836 0.05600
H 	H 	0.44060 0.12692 0.14480 0.05000
H 	H 	0.30976 0.97161 0.14569 0.05300
H 	H 	0.30043 0.98899 0.21526 0.05100
H 	H 	0.33317 0.96262 0.20894 0.05500
H 	H 	0.35777 0.99276 0.09025 0.04300
C 	C 	0.41159 0.20063 0.93047 -0.11500
C 	C 	0.41122 0.21500 0.98608 0.07900
C 	C 	0.41593 0.24788 0.99071 -0.09000
C 	C 	0.41917 0.26671 0.94082 0.00800
C 	C 	0.41655 0.25267 0.88516 -0.00000
C 	C 	0.41365 0.21961 0.88063 -0.00500
H 	H 	0.41653 0.25890 0.03327 0.05100
H 	H 	0.41336 0.20859 0.83815 0.03100
C 	C 	0.40311 0.19621 0.04032 -0.12500
C 	C 	0.41666 0.27254 0.83017 -0.09400
C 	C 	0.36889 0.20022 0.05734 -0.01000
H 	H 	0.36295 0.22583 0.06090 0.02500
H 	H 	0.36534 0.18937 0.10089 0.02400
C 	C 	0.44850 0.27155 0.80049 -0.02500
H 	H 	0.45445 0.24669 0.78867 0.02600
H 	H 	0.46659 0.28044 0.83058 0.03000
H 	H 	0.40861 0.17062 0.03613 0.06600
H 	H 	0.40983 0.29752 0.83887 0.04900
C 	C 	0.34683 0.18428 0.01444 -0.16100
C 	C 	0.44889 0.29182 0.74547 -0.15700
H 	H 	0.35278 0.15879 0.00930 0.06700
H 	H 	0.32274 0.18603 0.03109 0.05800
H 	H 	0.34778 0.19622 0.97145 0.06700
H 	H 	0.41763 0.20481 0.07693 0.05000
H 	H 	0.43135 0.28316 0.71398 0.05200
H 	H 	0.47211 0.29037 0.72483 0.05300
H 	H 	0.44396 0.31703 0.75622 0.05600
H 	H 	0.39890 0.26307 0.79983 0.04200
C 	C 	0.19769 0.56463 0.07304 -0.10200
C 	C 	0.20144 0.55375 0.01514 0.08100
C 	C 	0.23109 0.54531 0.99539 -0.09100
C 	C 	0.25696 0.54807 0.03175 0.01000
C 	C 	0.25318 0.55886 0.08959 0.00100
C 	C 	0.22351 0.56715 0.10953 -0.01000
H 	H 	0.23414 0.53722 0.95101 0.04900
H 	H 	0.22063 0.57634 0.15321 0.02900
C 	C 	0.17439 0.55228 0.97287 -0.12400
C 	C 	0.28080 0.56384 0.12917 -0.09300
C 	C 	0.16465 0.51804 0.95910 -0.01100
H 	H 	0.18506 0.50378 0.94529 0.02400
H 	H 	0.14813 0.51850 0.92208 0.02500
C 	C 	0.29450 0.59710 0.12069 -0.02600
H 	H 	0.27673 0.61532 0.13142 0.03100
H 	H 	0.30158 0.60047 0.07467 0.03400
H 	H 	0.15395 0.56607 0.98761 0.06300
H 	H 	0.29885 0.54549 0.12167 0.04800
C 	C 	0.14884 0.50170 0.01039 -0.15900
C 	C 	0.32274 0.60219 0.15944 -0.15700
H 	H 	0.12763 0.51490 0.02318 0.07400
H 	H 	0.14199 0.47730 0.99759 0.05100
H 	H 	0.16484 0.49999 0.04803 0.07000
H 	H 	0.18165 0.56375 0.93152 0.04900
H 	H 	0.31628 0.59959 0.20595 0.05400
H 	H 	0.33196 0.62647 0.15248 0.05500
H 	H 	0.34121 0.58476 0.14859 0.05700
H 	H 	0.27347 0.56103 0.17527 0.04200
C 	C 	0.79502 0.44673 0.07979 -0.09900
C 	C 	0.77265 0.44529 0.12490 0.07200
C 	C 	0.74266 0.45698 0.11462 -0.08300
C 	C 	0.73471 0.46999 0.06059 0.00400
C 	C 	0.75742 0.47268 0.01648 0.00500
C 	C 	0.78739 0.46103 0.02665 -0.00800
H 	H 	0.72548 0.45615 0.14899 0.04800
H 	H 	0.80487 0.46305 0.99296 0.03500
C 	C 	0.78084 0.43345 0.18545 -0.12000
C 	C 	0.75070 0.49007 0.96013 -0.09600
C 	C 	0.76374 0.40267 0.20155 -0.00900
H 	H 	0.73837 0.40557 0.19518 0.02500
H 	H 	0.76759 0.39776 0.24847 0.02200
C 	C 	0.75601 0.52585 0.96717 -0.02700
H 	H 	0.78062 0.53028 0.97886 0.02900
H 	H 	0.74113 0.53531 0.00259 0.03300
H 	H 	0.80609 0.43010 0.19195 0.05900
H 	H 	0.72670 0.48554 0.94507 0.04900
C 	C 	0.77503 0.37403 0.16682 -0.16400
C 	C 	0.74852 0.54379 0.91122 -0.15600
H 	H 	0.79993 0.36946 0.17575 0.07300
H 	H 	0.76168 0.35271 0.17998 0.05700
H 	H 	0.77153 0.37790 0.11953 0.07500
H 	H 	0.77393 0.45205 0.21719 0.04600
H 	H 	0.76346 0.53528 0.87509 0.05400
H 	H 	0.75278 0.56952 0.91769 0.05200
H 	H 	0.72380 0.54045 0.89935 0.05600
H 	H 	0.76614 0.48092 0.92518 0.04400
C 	C 	0.56632 0.82440 0.89739 -0.11200
C 	C 	0.55198 0.80303 0.85844 0.08000
C 	C 	0.55024 0.77073 0.87310 -0.08700
C 	C 	0.56186 0.75963 0.92625 0.00800
C 	C 	0.57587 0.78111 0.96548 -0.00200
C 	C 	0.57826 0.81327 0.95024 -0.00200
H 	H 	0.53957 0.75418 0.84312 0.04900
H 	H 	0.58941 0.82974 0.97976 0.03000
C 	C 	0.53822 0.81417 0.80122 -0.12400
C 	C 	0.58998 0.76986 0.02218 -0.09200
C 	C 	0.50260 0.81445 0.80261 -0.01500
H 	H 	0.49364 0.79148 0.81935 0.02600
H 	H 	0.49383 0.81718 0.75752 0.02000
C 	C 	0.62422 0.76114 0.01385 -0.02100
H 	H 	0.63712 0.78202 0.99688 0.02700
H 	H 	0.62638 0.74154 0.98182 0.03000
H 	H 	0.54700 0.83780 0.78763 0.05700
H 	H 	0.57711 0.74933 0.04032 0.04800
C 	C 	0.48954 0.84153 0.83932 -0.15400
C 	C 	0.63901 0.75064 0.07098 -0.15800
H 	H 	0.49835 0.86472 0.82343 0.03600
H 	H 	0.46388 0.84167 0.83603 0.04500
H 	H 	0.49591 0.83828 0.88569 0.06200
H 	H 	0.54578 0.79752 0.76650 0.04900
H 	H 	0.63787 0.77010 0.10345 0.05200
H 	H 	0.66371 0.74448 0.06342 0.05400
H 	H 	0.62697 0.72940 0.08846 0.05600
H 	H 	0.58808 0.78908 0.05516 0.04200
