data_crystal

_cell_length_a 45.03055
_cell_length_b 44.70453
_cell_length_c 25.74543
_cell_angle_alpha 94.38721
_cell_angle_beta  93.69887
_cell_angle_gamma 90.13358

_symmetry_space_group_name_	'P 1'
_symmetry_space_group_name_H-M	'P 1'

loop_
_symmetry_equiv_pos_as_xyz
  x,y,z

loop_
_atom_site_label
_atom_site_type_symbol
_atom_site_fract_x
_atom_site_fract_y
_atom_site_fract_z
_atom_site_charge
C 	C 	0.05146 0.65641 0.87790 0.13800
N 	N 	0.04508 0.62887 0.89361 -0.14000
C 	C 	0.03170 0.60763 0.85934 0.13300
N 	N 	0.02547 0.61361 0.80892 -0.14300
C 	C 	0.03166 0.64107 0.79307 0.13300
N 	N 	0.04443 0.66251 0.82764 -0.13100
C 	C 	0.96951 0.65709 0.32739 0.14300
N 	N 	0.94966 0.63482 0.31144 -0.13800
C 	C 	0.94025 0.61609 0.34620 0.13300
N 	N 	0.95098 0.61950 0.39685 -0.14400
C 	C 	0.97048 0.64200 0.41306 0.13400
N 	N 	0.98015 0.66047 0.37811 -0.13500
Cd	Cd	0.86608 0.94764 0.88567 1.17100
C 	C 	0.81328 0.98745 0.82869 0.30100
O 	O 	0.80447 0.99219 0.78073 -0.30100
O 	O 	0.82605 0.96178 0.83445 -0.53100
O 	O 	0.83207 0.95265 0.35165 -0.44700
C 	C 	0.82242 0.97904 0.36736 0.29600
O 	O 	0.82677 0.98673 0.41722 -0.36400
Cd	Cd	0.88315 0.10423 0.21503 1.24100
Cd	Cd	0.89387 0.06236 0.32762 1.18100
O 	O 	0.86768 0.15638 0.23302 -0.31400
O 	O 	0.87814 0.13900 0.15399 -0.33800
C 	C 	0.86946 0.16147 0.18444 0.29600
O 	O 	0.90359 0.06134 0.18371 -0.37600
O 	O 	0.89176 0.03384 0.25131 -0.42700
C 	C 	0.90823 0.03793 0.21175 0.28300
C 	C 	0.93691 0.11226 0.27963 0.30200
O 	O 	0.85337 0.08664 0.29108 -0.45500
O 	O 	0.93883 0.12472 0.23569 -0.30100
O 	O 	0.91056 0.10279 0.28844 -0.52600
C 	C 	0.83349 0.07491 0.25648 0.29800
O 	O 	0.83675 0.08088 0.20834 -0.34200
Cd	Cd	0.89307 0.13228 0.98663 1.24000
Cd	Cd	0.89979 0.08118 0.87615 1.17200
O 	O 	0.85709 0.17343 0.98019 -0.30600
O 	O 	0.88399 0.16742 0.05236 -0.33900
C 	C 	0.86587 0.18459 0.02677 0.30800
O 	O 	0.92285 0.09659 0.01653 -0.36600
O 	O 	0.93870 0.08163 0.93574 -0.42300
C 	C 	0.93712 0.07739 0.98564 0.26800
C 	C 	0.85004 0.08591 0.96360 0.28000
O 	O 	0.90561 0.13286 0.88819 -0.44800
O 	O 	0.84709 0.09843 0.01061 -0.26300
O 	O 	0.86791 0.09939 0.93560 -0.54000
C 	C 	0.93007 0.14736 0.90421 0.29900
O 	O 	0.93341 0.15487 0.95417 -0.35300
C 	C 	0.91260 0.36690 0.87621 0.14500
N 	N 	0.93206 0.38968 0.89128 -0.13300
C 	C 	0.93887 0.40982 0.85684 0.13400
N 	N 	0.92600 0.40725 0.80748 -0.14300
C 	C 	0.90669 0.38441 0.79230 0.13400
N 	N 	0.90014 0.36419 0.82663 -0.13900
C 	C 	0.85086 0.36079 0.31997 0.14200
N 	N 	0.85491 0.35591 0.37144 -0.12900
C 	C 	0.86099 0.37921 0.40748 0.13600
N 	N 	0.86351 0.40737 0.39208 -0.14200
C 	C 	0.86064 0.41228 0.34066 0.13400
N 	N 	0.85428 0.38897 0.30459 -0.14100
Cd	Cd	0.05909 0.07439 0.74437 1.24100
Cd	Cd	0.03853 0.07959 0.87561 1.18000
O 	O 	0.10607 0.09796 0.72616 -0.30400
O 	O 	0.08065 0.06934 0.66602 -0.33300
C 	C 	0.10476 0.08506 0.67913 0.28900
O 	O 	0.01875 0.04415 0.74465 -0.38900
O 	O 	0.00065 0.07067 0.81542 -0.43500
C 	C 	0.99875 0.04768 0.78023 0.27300
C 	C 	0.08764 0.03603 0.81582 0.30500
O 	O 	0.04850 0.11569 0.81900 -0.44400
O 	O 	0.09249 0.02758 0.76748 -0.28400
O 	O 	0.07384 0.06141 0.82227 -0.52700
C 	C 	0.02896 0.12704 0.78653 0.29800
O 	O 	0.02891 0.11580 0.73823 -0.35400
Cd	Cd	0.08454 0.06877 0.43959 1.24300
O 	O 	0.12565 0.10521 0.45819 -0.29800
O 	O 	0.11104 0.07713 0.51783 -0.33900
C 	C 	0.13059 0.09625 0.50481 0.29200
O 	O 	0.04617 0.03823 0.44933 -0.37700
C 	C 	0.02878 0.02665 0.40954 0.27900
C 	C 	0.04082 0.11240 0.41487 0.30300
O 	O 	0.04777 0.11379 0.46517 -0.28600
O 	O 	0.05796 0.09556 0.38679 -0.53600
C 	C 	0.29205 0.04788 0.82107 0.14200
N 	N 	0.31655 0.03327 0.80448 -0.13000
C 	C 	0.33903 0.02674 0.83937 0.13400
N 	N 	0.33678 0.03423 0.89102 -0.14200
C 	C 	0.31194 0.04783 0.90801 0.13000
N 	N 	0.28976 0.05507 0.87300 -0.14000
C 	C 	0.31921 0.06883 0.38191 0.14500
N 	N 	0.34398 0.05369 0.39718 -0.13000
C 	C 	0.36461 0.04596 0.36241 0.13400
N 	N 	0.36018 0.05296 0.31204 -0.14300
C 	C 	0.33542 0.06808 0.29659 0.13400
N 	N 	0.31515 0.07623 0.33176 -0.14000
C 	C 	0.30838 0.05303 0.96449 -0.03900
C 	C 	0.30977 0.02888 0.99705 0.08800
C 	C 	0.31280 0.03488 0.05142 -0.06600
C 	C 	0.31236 0.06444 0.07387 -0.01300
C 	C 	0.30839 0.08850 0.04138 0.09200
C 	C 	0.30687 0.08255 0.98684 -0.07000
N 	N 	0.30748 0.99997 0.97639 -0.20200
H 	H 	0.31506 0.01645 0.07643 0.05600
C 	C 	0.31658 0.06983 0.13144 -0.00000
N 	N 	0.30587 0.11723 0.06216 -0.19700
H 	H 	0.30514 0.10098 0.96180 0.05900
C 	C 	0.34450 0.07952 0.15393 -0.08700
C 	C 	0.35023 0.08178 0.20840 0.10600
C 	C 	0.32841 0.07178 0.24051 -0.04900
C 	C 	0.30009 0.06327 0.21810 -0.05000
C 	C 	0.29374 0.06292 0.16395 0.07300
H 	H 	0.36171 0.08560 0.12901 0.06000
N 	N 	0.37612 0.09454 0.22959 -0.19900
H 	H 	0.28307 0.05640 0.24276 0.05600
N 	N 	0.26572 0.05607 0.14349 -0.19400
H 	H 	0.39274 0.10039 0.20561 0.09200
H 	H 	0.37923 0.10053 0.26957 0.10100
H 	H 	0.24923 0.05006 0.16759 0.09300
H 	H 	0.25975 0.05762 0.10393 0.09500
H 	H 	0.30361 0.13489 0.03788 0.09700
H 	H 	0.30538 0.12226 0.10236 0.09600
H 	H 	0.30165 0.99485 0.93680 0.09400
H 	H 	0.30999 0.98223 0.00048 0.09800
C 	C 	0.21025 0.11758 0.51968 -0.06600
C 	C 	0.22231 0.08867 0.51601 0.02900
C 	C 	0.20541 0.06453 0.53076 0.06200
C 	C 	0.17475 0.06809 0.53538 -0.00900
C 	C 	0.16139 0.09589 0.52767 -0.07700
C 	C 	0.17973 0.12137 0.52613 0.12300
C 	C 	0.24743 0.08263 0.48259 0.02000
N 	N 	0.21876 0.03573 0.53601 -0.01600
H 	H 	0.16101 0.04866 0.53996 0.07200
N 	N 	0.16707 0.15079 0.52734 -0.02200
H 	H 	0.22390 0.13671 0.51285 0.08400
C 	C 	0.24205 0.07016 0.43083 0.07000
C 	C 	0.26576 0.06526 0.39886 -0.03200
C 	C 	0.29484 0.07345 0.41727 -0.03100
C 	C 	0.30029 0.08614 0.46899 0.09700
C 	C 	0.27655 0.09041 0.50152 -0.06000
N 	N 	0.21240 0.06278 0.41042 -0.01800
H 	H 	0.26147 0.05533 0.35932 0.06500
N 	N 	0.32967 0.09550 0.48811 -0.02100
H 	H 	0.28070 0.10025 0.54114 0.08400
O 	O 	0.17585 0.17019 0.49629 -0.08700
O 	O 	0.14710 0.15837 0.56015 -0.09100
O 	O 	0.20465 0.01144 0.51731 -0.09200
O 	O 	0.34339 0.11623 0.46590 -0.09800
O 	O 	0.34179 0.08490 0.53006 -0.09100
O 	O 	0.19319 0.08397 0.40305 -0.09600
O 	O 	0.20535 0.03511 0.39524 -0.09400
C 	C 	0.24752 0.06424 0.69600 -0.05800
C 	C 	0.21836 0.06189 0.71130 0.02000
C 	C 	0.21344 0.05540 0.76282 0.06700
C 	C 	0.23761 0.05076 0.79809 -0.03300
C 	C 	0.26688 0.05370 0.78334 -0.03100
C 	C 	0.27181 0.06121 0.73214 0.09700
C 	C 	0.19285 0.06720 0.67412 0.02700
N 	N 	0.18381 0.05372 0.77954 -0.01800
H 	H 	0.23357 0.04492 0.83713 0.06600
N 	N 	0.30125 0.06720 0.71750 -0.02000
H 	H 	0.25137 0.06936 0.65651 0.09000
C 	C 	0.18365 0.09677 0.66688 0.06200
C 	C 	0.15346 0.10245 0.65525 -0.00600
C 	C 	0.13256 0.07900 0.65334 -0.06900
C 	C 	0.14287 0.04924 0.64730 0.11800
C 	C 	0.17315 0.04342 0.65812 -0.06900
N 	N 	0.20421 0.12127 0.67693 -0.01500
H 	H 	0.14588 0.12543 0.65483 0.07400
N 	N 	0.12246 0.02487 0.63379 -0.02100
H 	H 	0.18075 0.02047 0.65888 0.08500
O 	O 	0.31147 0.05241 0.67704 -0.09000
O 	O 	0.31681 0.08916 0.74179 -0.09400
O 	O 	0.17347 0.02840 0.79277 -0.09700
O 	O 	0.16794 0.07790 0.78490 -0.08900
O 	O 	0.10489 0.02485 0.59165 -0.09200
O 	O 	0.12272 0.00184 0.66180 -0.09300
O 	O 	0.22578 0.12418 0.64643 -0.09700
O 	O 	0.20019 0.14176 0.71442 -0.08600
C 	C 	0.89523 0.37983 0.73734 -0.04800
C 	C 	0.87915 0.40254 0.71256 0.10600
C 	C 	0.87246 0.39912 0.65841 -0.08500
C 	C 	0.88031 0.37290 0.62919 -0.00400
C 	C 	0.89436 0.34925 0.65463 0.07400
C 	C 	0.90197 0.35309 0.70847 -0.05100
N 	N 	0.86949 0.42725 0.74060 -0.19900
H 	H 	0.86112 0.41693 0.63892 0.05900
C 	C 	0.87579 0.37147 0.57159 -0.00500
N 	N 	0.90056 0.32287 0.62769 -0.19400
H 	H 	0.91369 0.33544 0.72777 0.05500
C 	C 	0.89943 0.37941 0.54247 -0.08400
C 	C 	0.89560 0.37996 0.48805 0.10500
C 	C 	0.86718 0.37369 0.46272 -0.04400
C 	C 	0.84385 0.36453 0.49150 -0.05000
C 	C 	0.84791 0.36317 0.54583 0.07700
H 	H 	0.92093 0.38508 0.56224 0.05800
N 	N 	0.91934 0.38596 0.46031 -0.19900
H 	H 	0.82229 0.35908 0.47176 0.06500
N 	N 	0.82506 0.35388 0.57289 -0.19400
H 	H 	0.93996 0.39172 0.47951 0.09100
H 	H 	0.91795 0.38377 0.41956 0.09900
H 	H 	0.80443 0.34825 0.55362 0.09700
H 	H 	0.82763 0.35163 0.61298 0.09600
H 	H 	0.91154 0.30578 0.64660 0.09300
H 	H 	0.89396 0.31875 0.58817 0.09600
H 	H 	0.87138 0.42904 0.78135 0.10200
H 	H 	0.85866 0.44444 0.72173 0.09200
C 	C 	0.00280 0.14300 0.80659 -0.09000
C 	C 	0.00631 0.15943 0.85527 -0.04200
C 	C 	0.98205 0.16419 0.88613 0.03700
C 	C 	0.95390 0.15182 0.86825 -0.08700
C 	C 	0.94952 0.14040 0.81597 -0.03300
C 	C 	0.97365 0.13636 0.78475 0.04000
S 	S 	0.98694 0.18763 0.94430 -0.01500
S 	S 	0.96666 0.12449 0.71824 -0.02700
H 	H 	0.96636 0.09378 0.71249 0.03500
H 	H 	0.98418 0.21700 0.93323 0.06300
H 	H 	0.02829 0.16708 0.87037 0.04000
H 	H 	0.92743 0.13369 0.80002 0.02100
C 	C 	0.85250 0.26422 0.00100 -0.05200
C 	C 	0.88190 0.27484 0.00808 0.03900
C 	C 	0.90308 0.25894 0.03761 0.07100
C 	C 	0.89567 0.23060 0.05298 -0.00500
C 	C 	0.86784 0.21751 0.03695 -0.07900
C 	C 	0.84528 0.23563 0.01549 0.12400
C 	C 	0.89152 0.29865 0.97601 0.01700
N 	N 	0.93287 0.27025 0.04782 -0.01300
H 	H 	0.91262 0.21755 0.07256 0.07000
N 	N 	0.81573 0.22398 0.00394 -0.01700
H 	H 	0.83573 0.27723 0.98087 0.07400
C 	C 	0.90477 0.29111 0.92865 0.06700
C 	C 	0.91248 0.31374 0.89727 -0.03100
C 	C 	0.90670 0.34387 0.91214 -0.03400
C 	C 	0.89384 0.35151 0.95988 0.09900
C 	C 	0.88639 0.32884 0.99162 -0.07400
N 	N 	0.91015 0.26040 0.91206 -0.01700
H 	H 	0.92246 0.30781 0.86070 0.06400
N 	N 	0.88761 0.38214 0.97559 -0.02700
H 	H 	0.87612 0.33469 0.02791 0.10200
O 	O 	0.80247 0.22626 0.95802 -0.09200
O 	O 	0.80162 0.21220 0.03995 -0.07400
O 	O 	0.93751 0.29771 0.06724 -0.07200
O 	O 	0.95539 0.25288 0.03873 -0.08800
O 	O 	0.86879 0.39718 0.94747 -0.10300
O 	O 	0.89898 0.39425 0.02001 -0.08500
O 	O 	0.88793 0.24183 0.90138 -0.09900
O 	O 	0.93697 0.25179 0.90263 -0.10300
C 	C 	0.01013 0.11744 0.39489 -0.11100
C 	C 	0.99028 0.09318 0.39134 -0.06000
C 	C 	0.96869 0.08966 0.34997 0.01700
C 	C 	0.96155 0.11420 0.32042 -0.11900
C 	C 	0.97858 0.14073 0.32943 -0.02000
C 	C 	0.00341 0.14208 0.36540 0.02100
S 	S 	0.95647 0.05321 0.32825 -0.24100
S 	S 	0.02603 0.17445 0.37277 -0.03600
H 	H 	0.01576 0.19397 0.41108 0.05000
H 	H 	0.97768 0.03898 0.29976 0.02700
H 	H 	0.99431 0.07510 0.41616 0.03300
H 	H 	0.97308 0.15991 0.30739 0.05200
C 	C 	0.83175 0.23386 0.16564 -0.07400
C 	C 	0.85484 0.25339 0.18577 0.03100
C 	C 	0.88432 0.24273 0.18863 0.05800
C 	C 	0.88972 0.21210 0.17804 -0.00700
C 	C 	0.86592 0.19186 0.16739 -0.07600
C 	C 	0.83705 0.20299 0.15713 0.12000
C 	C 	0.84743 0.28235 0.21371 0.01600
N 	N 	0.90855 0.26247 0.20632 -0.01600
H 	H 	0.91217 0.20370 0.18373 0.06300
N 	N 	0.81265 0.18272 0.14252 -0.02400
H 	H 	0.80929 0.24229 0.16042 0.08700
C 	C 	0.85755 0.30970 0.19726 0.07700
C 	C 	0.85753 0.33573 0.23134 -0.03400
C 	C 	0.84571 0.33506 0.28048 -0.02700
C 	C 	0.83139 0.30866 0.29318 0.09400
C 	C 	0.83322 0.28226 0.26059 -0.06000
N 	N 	0.86703 0.31127 0.14558 -0.01700
H 	H 	0.86706 0.35630 0.21981 0.07400
N 	N 	0.81432 0.30881 0.33826 -0.02000
H 	H 	0.82399 0.26154 0.27215 0.07800
O 	O 	0.81568 0.16039 0.10780 -0.07600
O 	O 	0.78724 0.18689 0.16321 -0.08700
O 	O 	0.91140 0.27293 0.25495 -0.09600
O 	O 	0.92962 0.26700 0.17552 -0.07900
O 	O 	0.79269 0.32777 0.34402 -0.09800
O 	O 	0.81925 0.28885 0.37194 -0.09800
O 	O 	0.84924 0.30229 0.10563 -0.10100
O 	O 	0.89196 0.32461 0.13834 -0.08100
H 	H 	0.49508 0.04334 0.37697 0.06000
C 	C 	0.44988 0.00895 0.40143 -0.00400
C 	C 	0.43124 0.99462 0.36127 -0.08500
C 	C 	0.40205 0.00461 0.35127 0.10600
C 	C 	0.39215 0.03070 0.37957 -0.04400
C 	C 	0.41004 0.04378 0.42198 -0.05100
C 	C 	0.43863 0.03269 0.43391 0.07800
H 	H 	0.43956 0.97579 0.33750 0.05900
N 	N 	0.38346 0.98866 0.31561 -0.19900
H 	H 	0.40199 0.06306 0.44499 0.06800
N 	N 	0.45509 0.04480 0.47657 -0.19500
H 	H 	0.39135 0.97029 0.29307 0.09200
H 	H 	0.36072 0.99322 0.31208 0.10000
H 	H 	0.44705 0.06298 0.49937 0.09800
H 	H 	0.54489 0.05439 0.35743 0.09500
C 	C 	0.45867 0.99301 0.81761 -0.00300
C 	C 	0.47626 0.01172 0.85452 0.07400
C 	C 	0.42604 0.99670 0.81146 -0.00600
N 	N 	0.46417 0.03548 0.88172 -0.19400
C 	C 	0.40789 0.97962 0.84024 -0.08300
C 	C 	0.37782 0.98684 0.84432 0.10300
C 	C 	0.36628 0.01244 0.82129 -0.04300
C 	C 	0.38342 0.02724 0.78741 -0.05300
C 	C 	0.41325 0.01927 0.78167 0.07900
H 	H 	0.41740 0.96124 0.86077 0.05700
N 	N 	0.36008 0.96907 0.86993 -0.19800
H 	H 	0.37406 0.04597 0.76767 0.07000
N 	N 	0.42961 0.03378 0.74864 -0.19500
H 	H 	0.36904 0.95100 0.88900 0.08900
H 	H 	0.33707 0.97212 0.86890 0.09400
H 	H 	0.42028 0.05112 0.72811 0.09900
H 	H 	0.45141 0.02742 0.74187 0.09700
H 	H 	0.47740 0.04914 0.90879 0.09000
H 	H 	0.44163 0.04063 0.87663 0.09400
C 	C 	0.81249 0.00093 0.32976 -0.10100
C 	C 	0.81999 0.99654 0.27757 -0.03200
C 	C 	0.81977 0.02084 0.24640 0.02800
C 	C 	0.81482 0.04988 0.26914 -0.09100
C 	C 	0.80081 0.05282 0.31631 -0.03300
C 	C 	0.79927 0.02827 0.34664 0.03200
S 	S 	0.82301 0.01445 0.17873 -0.02700
S 	S 	0.77880 0.03134 0.40275 -0.00800
H 	H 	0.74966 0.02406 0.38873 0.05900
H 	H 	0.85211 0.01557 0.16674 0.04300
H 	H 	0.82687 0.97465 0.26185 -0.00300
H 	H 	0.79368 0.07472 0.33158 0.04900
C 	C 	0.95302 0.00925 0.45822 -0.02600
C 	C 	0.98281 0.01904 0.46024 0.02500
S 	S 	0.99714 0.04092 0.51612 -0.02500
H 	H 	0.99147 0.07065 0.51070 0.03900
H 	H 	0.93907 0.01656 0.48949 0.03900
H 	H 	0.78856 0.98111 0.54263 0.06200
O 	O 	0.73429 0.01620 0.55977 -0.08700
C 	C 	0.91993 0.99316 0.78381 -0.11200
C 	C 	0.93226 0.99642 0.73575 -0.03100
C 	C 	0.95811 0.01390 0.73329 0.02000
C 	C 	0.97291 0.02680 0.78006 -0.10000
C 	C 	0.96060 0.02292 0.82797 -0.08200
C 	C 	0.93351 0.00787 0.82967 0.02400
S 	S 	0.97060 0.02024 0.67159 -0.03700
H 	H 	0.95671 0.04491 0.65321 0.03400
H 	H 	0.92181 0.98535 0.70025 0.04600
H 	H 	0.97150 0.03291 0.86398 0.01100
C 	C 	0.81333 0.01153 0.87180 -0.12200
C 	C 	0.82799 0.00686 0.92027 -0.01600
C 	C 	0.83689 0.03135 0.95495 -0.00600
C 	C 	0.83124 0.06073 0.94089 -0.08900
C 	C 	0.81210 0.06501 0.89701 -0.04400
C 	C 	0.80217 0.04046 0.86335 0.03900
S 	S 	0.85558 0.02491 0.01500 -0.03600
S 	S 	0.77333 0.04574 0.81545 -0.00900
H 	H 	0.74640 0.04140 0.83578 0.05500
H 	H 	0.88101 0.00959 0.00448 0.00700
H 	H 	0.83343 0.98434 0.93023 -0.06200
H 	H 	0.80570 0.08753 0.88820 0.05000
N 	N 	0.70302 0.99895 0.66322 -0.01600
H 	H 	0.75724 0.97577 0.65405 0.07000
O 	O 	0.72098 0.02047 0.68227 -0.09200
O 	O 	0.64095 0.02155 0.85770 -0.09700
C 	C 	0.87001 0.44140 0.32393 -0.04800
C 	C 	0.84916 0.46147 0.30239 0.10800
C 	C 	0.85812 0.49098 0.29561 -0.08500
C 	C 	0.88712 0.50091 0.31134 -0.00300
C 	C 	0.90817 0.48050 0.33138 0.07400
C 	C 	0.89956 0.45071 0.33582 -0.04800
N 	N 	0.82051 0.45281 0.28910 -0.20000
H 	H 	0.84218 0.50656 0.27970 0.06100
C 	C 	0.89444 0.53319 0.31086 -0.00400
N 	N 	0.93634 0.48954 0.34783 -0.19400
H 	H 	0.91557 0.43509 0.35143 0.05200
C 	C 	0.88505 0.55319 0.35102 -0.08500
C 	C 	0.89704 0.58229 0.35884 0.10700
C 	C 	0.92028 0.59061 0.32827 -0.04800
C 	C 	0.92705 0.57193 0.28432 -0.05200
C 	C 	0.91368 0.54347 0.27457 0.07500
H 	H 	0.86893 0.54586 0.37699 0.05900
N 	N 	0.88579 0.60231 0.39477 -0.19900
H 	H 	0.94371 0.57893 0.25909 0.05800
N 	N 	0.91996 0.52585 0.23129 -0.19400
H 	H 	0.86963 0.59562 0.41896 0.09300
H 	H 	0.89168 0.62500 0.39687 0.10200
H 	H 	0.93507 0.53313 0.20569 0.09500
H 	H 	0.90918 0.50527 0.22175 0.09800
H 	H 	0.95180 0.47412 0.36155 0.09000
H 	H 	0.94304 0.51192 0.34848 0.09400
H 	H 	0.81306 0.43112 0.29373 0.10500
H 	H 	0.80527 0.46791 0.27364 0.09600
C 	C 	0.02070 0.57961 0.87807 -0.04900
C 	C 	0.98984 0.57331 0.87626 0.10700
C 	C 	0.98014 0.54405 0.88246 -0.08300
C 	C 	0.00064 0.52158 0.89413 -0.00600
C 	C 	0.03131 0.52886 0.90219 0.07400
C 	C 	0.04114 0.55772 0.89287 -0.05000
N 	N 	0.96949 0.59535 0.86953 -0.19900
H 	H 	0.95657 0.53868 0.87784 0.05800
C 	C 	0.99006 0.49004 0.89223 -0.00300
N 	N 	0.05128 0.50842 0.91917 -0.19400
H 	H 	0.06475 0.56294 0.89614 0.05600
C 	C 	0.99697 0.47013 0.85003 -0.08300
C 	C 	0.98284 0.44202 0.84143 0.10400
C 	C 	0.95973 0.43479 0.87318 -0.04500
C 	C 	0.95450 0.45362 0.91775 -0.05200
C 	C 	0.97007 0.48090 0.92832 0.07500
H 	H 	0.01314 0.47667 0.82348 0.05700
N 	N 	0.99200 0.42184 0.80364 -0.19800
H 	H 	0.93770 0.44747 0.94343 0.06500
N 	N 	0.96583 0.49814 0.97304 -0.19400
H 	H 	0.00805 0.42785 0.77868 0.09000
H 	H 	0.98462 0.39957 0.80069 0.09800
H 	H 	0.95024 0.49180 0.99859 0.09300
H 	H 	0.97876 0.51730 0.98387 0.09400
H 	H 	0.07400 0.51362 0.92331 0.09200
H 	H 	0.04439 0.48766 0.93030 0.09300
H 	H 	0.97593 0.61787 0.87120 0.09500
H 	H 	0.94676 0.59025 0.86549 0.09000
C 	C 	0.02328 0.64798 0.73901 -0.04600
C 	C 	0.99356 0.64428 0.71796 0.10600
C 	C 	0.98735 0.64491 0.66397 -0.08200
C 	C 	0.00991 0.65110 0.63123 -0.00600
C 	C 	0.03908 0.65781 0.65303 0.07700
C 	C 	0.04557 0.65576 0.70678 -0.05100
N 	N 	0.97086 0.64104 0.74951 -0.19800
H 	H 	0.96483 0.64078 0.64738 0.05800
C 	C 	0.00276 0.64971 0.57410 -0.00300
N 	N 	0.06094 0.66585 0.62262 -0.19400
H 	H 	0.06817 0.65950 0.72327 0.06600
C 	C 	0.98816 0.67400 0.55261 -0.08500
C 	C 	0.97697 0.67186 0.50025 0.11000
C 	C 	0.98210 0.64545 0.46806 -0.04900
C 	C 	0.99775 0.62162 0.48907 -0.04600
C 	C 	0.00785 0.62330 0.54196 0.07100
H 	H 	0.98430 0.69417 0.57738 0.06200
N 	N 	0.96043 0.69468 0.48183 -0.19900
H 	H 	0.00175 0.60149 0.46430 0.05100
N 	N 	0.02220 0.59946 0.56162 -0.19300
H 	H 	0.95781 0.71453 0.50526 0.10200
H 	H 	0.94896 0.69255 0.44521 0.11600
H 	H 	0.02574 0.58005 0.53758 0.08900
H 	H 	0.03001 0.59988 0.60072 0.09300
H 	H 	0.08253 0.67016 0.63888 0.09700
H 	H 	0.05664 0.66844 0.58289 0.09700
H 	H 	0.97414 0.64458 0.79002 0.09600
H 	H 	0.94922 0.63670 0.73350 0.09000
C 	C 	0.98038 0.99636 0.00657 -0.05400
C 	C 	0.99708 0.02058 0.99223 -0.06700
C 	C 	0.98488 0.04938 0.99361 0.05500
C 	C 	0.95556 0.05382 0.00836 -0.06400
C 	C 	0.94168 0.03113 0.03285 -0.03000
C 	C 	0.95340 0.00203 0.03034 0.03000
S 	S 	0.00642 0.07971 0.97714 -0.22300
S 	S 	0.93304 0.97258 0.05298 -0.02700
H 	H 	0.02192 0.09221 0.02104 0.05900
H 	H 	0.01860 0.01664 0.97650 0.00700
H 	H 	0.92081 0.03556 0.05050 0.04900
H 	H 	0.10485 0.97816 0.80419 0.05800
C 	C 	0.05163 0.68235 0.96722 -0.05700
C 	C 	0.06213 0.68081 0.91688 -0.02000
H 	H 	0.03906 0.66379 0.97973 0.07600
O 	O 	0.09260 0.72240 0.82244 -0.10000
O 	O 	0.01759 0.70484 0.05829 -0.07900
C 	C 	0.92696 0.01284 0.19199 -0.07800
C 	C 	0.95709 0.01772 0.18276 0.02700
S 	S 	0.97037 0.05379 0.17283 -0.04500
H 	H 	0.98117 0.06794 0.21929 0.00000
C 	C 	0.00334 0.71591 0.22132 0.01600
C 	C 	0.00637 0.68461 0.21234 0.07200
C 	C 	0.99436 0.66549 0.24633 -0.03200
C 	C 	0.97972 0.67733 0.28969 -0.03100
C 	C 	0.97601 0.70858 0.29790 0.09400
N 	N 	0.02162 0.67215 0.16884 -0.01500
H 	H 	0.99706 0.64143 0.23969 0.06600
N 	N 	0.95958 0.72096 0.34015 -0.02100
O 	O 	0.97173 0.74128 0.37381 -0.10300
O 	O 	0.05055 0.67183 0.17145 -0.08400
O 	O 	0.00677 0.65709 0.13039 -0.08000
Cd	Cd	0.02438 0.88118 0.20800 1.24200
Cd	Cd	0.01506 0.92829 0.32340 1.17900
O 	O 	0.05119 0.83392 0.21761 -0.30500
O 	O 	0.02795 0.84353 0.14348 -0.33300
C 	C 	0.04261 0.82409 0.17021 0.28900
O 	O 	0.99284 0.91687 0.18168 -0.37100
O 	O 	0.00735 0.95146 0.24906 -0.42000
C 	C 	0.98860 0.94254 0.20939 0.28600
C 	C 	0.98021 0.86632 0.27655 0.30300
O 	O 	0.05711 0.91044 0.28377 -0.44800
O 	O 	0.97656 0.85070 0.23170 -0.28900
O 	O 	0.00448 0.88221 0.28326 -0.53600
C 	C 	0.07092 0.92309 0.24816 0.29400
O 	O 	0.06456 0.91272 0.19991 -0.34400
Cd	Cd	0.02442 0.90665 0.98208 1.24100
Cd	Cd	0.00708 0.94813 0.87125 1.16400
O 	O 	0.05818 0.86397 0.96930 -0.32100
O 	O 	0.04114 0.87657 0.04561 -0.33800
C 	C 	0.05625 0.85744 0.01724 0.30300
O 	O 	0.00065 0.94678 0.01546 -0.36300
O 	O 	0.97737 0.95716 0.93723 -0.43500
C 	C 	0.98743 0.96597 0.98513 0.25500
C 	C 	0.06620 0.94861 0.95215 0.29800
O 	O 	0.99984 0.89820 0.88638 -0.44900
O 	O 	0.07423 0.94037 0.99866 -0.29400
O 	O 	0.04441 0.93365 0.92734 -0.54700
C 	C 	0.97679 0.88674 0.90598 0.29100
O 	O 	0.97934 0.88343 0.95597 -0.34300
Cd	Cd	0.83230 0.94101 0.75581 1.24100
O 	O 	0.78268 0.91785 0.74319 -0.30800
O 	O 	0.80265 0.93929 0.67990 -0.34500
C 	C 	0.77958 0.92573 0.69565 0.29800
O 	O 	0.87325 0.96927 0.75007 -0.38700
O 	O 	0.89768 0.95200 0.82259 -0.43200
C 	C 	0.89511 0.97175 0.78719 0.28200
O 	O 	0.84982 0.90685 0.83026 -0.45100
C 	C 	0.86580 0.89200 0.79666 0.29800
O 	O 	0.86047 0.89798 0.74811 -0.34600
Cd	Cd	0.85451 0.94759 0.44782 1.24200
Cd	Cd	0.87775 0.94206 0.31800 1.17400
O 	O 	0.81404 0.91457 0.46926 -0.29800
O 	O 	0.83615 0.94640 0.52812 -0.35300
C 	C 	0.81412 0.92766 0.51612 0.29700
O 	O 	0.89580 0.97585 0.45386 -0.38900
O 	O 	0.89315 0.98372 0.36710 -0.45400
C 	C 	0.90892 0.98252 0.41179 0.27800
C 	C 	0.89229 0.89994 0.41553 0.30100
O 	O 	0.89085 0.90147 0.46631 -0.28300
O 	O 	0.87356 0.91642 0.39055 -0.53600
C 	C 	0.59995 0.96747 0.82806 0.14300
N 	N 	0.60827 0.96014 0.87719 -0.13200
C 	C 	0.58787 0.96001 0.91382 0.13100
N 	N 	0.55912 0.96694 0.90108 -0.14300
C 	C 	0.55061 0.97339 0.85170 0.13400
N 	N 	0.57113 0.97424 0.81550 -0.13900
C 	C 	0.61920 0.95914 0.38749 0.14100
N 	N 	0.62285 0.95775 0.33530 -0.14100
C 	C 	0.59915 0.96135 0.30102 0.13300
N 	N 	0.57220 0.96835 0.31910 -0.14300
C 	C 	0.56869 0.97099 0.37118 0.13500
N 	N 	0.59193 0.96543 0.40530 -0.12800
Cd	Cd	0.04608 0.06398 0.31466 1.17100
O 	O 	0.03842 0.02484 0.36208 -0.43500
O 	O 	0.09555 0.05642 0.34089 -0.44600
C 	C 	0.10730 0.03124 0.35426 0.30300
O 	O 	0.11038 0.02841 0.40440 -0.35200
O 	O 	0.24481 0.03376 0.56042 -0.09600
C 	C 	0.54082 0.98321 0.39053 -0.04400
C 	C 	0.53199 0.01276 0.38106 0.11000
C 	C 	0.50239 0.02131 0.38711 -0.08500
C 	C 	0.48194 0.00136 0.40488 -0.00200
C 	C 	0.49175 0.97310 0.42033 0.07500
C 	C 	0.52108 0.96408 0.41217 -0.04800
N 	N 	0.55183 0.03297 0.36634 -0.19900
N 	N 	0.47323 0.95468 0.44305 -0.19400
H 	H 	0.52824 0.94181 0.42118 0.05700
H 	H 	0.47545 0.03560 0.48860 0.09800
H 	H 	0.48032 0.93346 0.45278 0.09300
H 	H 	0.45207 0.96163 0.45296 0.09500
H 	H 	0.57448 0.02808 0.36570 0.10700
C 	C 	0.51932 0.98034 0.83798 -0.04900
C 	C 	0.50177 0.96168 0.80090 0.10500
C 	C 	0.47175 0.96872 0.79018 -0.08600
C 	C 	0.50654 0.00538 0.86372 -0.04900
N 	N 	0.51324 0.93651 0.77688 -0.19900
H 	H 	0.45818 0.95447 0.76198 0.05900
H 	H 	0.52010 0.01970 0.89183 0.05500
H 	H 	0.53459 0.92905 0.78723 0.09800
H 	H 	0.50031 0.92342 0.74851 0.09300
C 	C 	0.60300 0.95981 0.24432 -0.04800
C 	C 	0.61461 0.93391 0.21764 0.10700
C 	C 	0.61742 0.93339 0.16353 -0.08700
C 	C 	0.60670 0.95708 0.13508 0.00100
C 	C 	0.59453 0.98270 0.16159 0.07300
C 	C 	0.59364 0.98411 0.21613 -0.05000
N 	N 	0.62184 0.90908 0.24309 -0.19900
H 	H 	0.62662 0.91378 0.14308 0.06100
C 	C 	0.60592 0.95361 0.07721 -0.01500
N 	N 	0.58325 0.00574 0.13499 -0.19300
H 	H 	0.58485 0.00394 0.23659 0.05400
C 	C 	0.58398 0.93516 0.05002 -0.06400
C 	C 	0.58014 0.93422 0.99540 0.08600
C 	C 	0.59711 0.95375 0.96800 -0.03500
C 	C 	0.62069 0.97029 0.99467 -0.07300
C 	C 	0.62571 0.96985 0.04908 0.09500
H 	H 	0.56976 0.92161 0.07146 0.05600
N 	N 	0.56077 0.91406 0.96941 -0.19600
H 	H 	0.63450 0.98434 0.97340 0.07100
N 	N 	0.64916 0.98536 0.07404 -0.19700
H 	H 	0.54728 0.90072 0.98996 0.08700
H 	H 	0.56016 0.91023 0.92883 0.09600
H 	H 	0.66310 0.99806 0.05319 0.10100
H 	H 	0.65430 0.98428 0.11398 0.09700
H 	H 	0.57477 0.02472 0.15507 0.09200
H 	H 	0.58221 0.00490 0.09431 0.09700
H 	H 	0.61624 0.90699 0.28134 0.10000
H 	H 	0.63175 0.89073 0.22357 0.09500
C 	C 	0.94098 0.99075 0.41542 -0.10600
C 	C 	0.00090 0.01020 0.41857 -0.08500
C 	C 	0.98957 0.98904 0.37915 -0.05000
C 	C 	0.95971 0.98023 0.37617 0.03000
S 	S 	0.94579 0.95760 0.32121 -0.21600
H 	H 	0.95640 0.92920 0.32297 -0.02700
H 	H 	0.00344 0.98123 0.34816 -0.03700
C 	C 	0.73506 0.91268 0.53483 -0.06900
C 	C 	0.72404 0.94075 0.52212 0.02800
C 	C 	0.74317 0.96597 0.52948 0.05600
C 	C 	0.77368 0.96190 0.54061 -0.00800
C 	C 	0.78544 0.93283 0.53949 -0.07700
C 	C 	0.76591 0.90837 0.54222 0.12600
C 	C 	0.69541 0.94230 0.49051 0.02000
N 	N 	0.73216 0.99538 0.52156 -0.01800
N 	N 	0.77745 0.87877 0.54734 -0.02100
H 	H 	0.72000 0.89367 0.53383 0.08900
C 	C 	0.69223 0.92793 0.43968 0.06700
C 	C 	0.66649 0.93227 0.40782 -0.03100
C 	C 	0.64465 0.95259 0.42437 -0.03100
C 	C 	0.64792 0.96717 0.47523 0.10300
C 	C 	0.67255 0.96078 0.50870 -0.05600
N 	N 	0.71576 0.91004 0.41937 -0.01800
H 	H 	0.66402 0.92061 0.36928 0.06500
N 	N 	0.62771 0.99015 0.49148 -0.02000
H 	H 	0.67494 0.97194 0.54759 0.09700
O 	O 	0.76426 0.85570 0.52175 -0.07700
O 	O 	0.80122 0.87488 0.57751 -0.08000
O 	O 	0.72337 0.00226 0.47488 -0.09700
O 	O 	0.61172 0.98674 0.53093 -0.07900
O 	O 	0.62722 0.01551 0.46981 -0.08900
O 	O 	0.71149 0.88153 0.40701 -0.09400
O 	O 	0.74059 0.92268 0.40931 -0.09300
S 	S 	0.91561 0.00967 0.88879 -0.24200
H 	H 	0.92334 0.98549 0.91621 0.02100
C 	C 	0.69796 0.91702 0.68186 -0.07500
C 	C 	0.69059 0.94752 0.68379 0.03100
C 	C 	0.71121 0.96824 0.66792 0.05300
C 	C 	0.74068 0.95926 0.66145 -0.00900
C 	C 	0.74952 0.93009 0.67171 -0.08200
C 	C 	0.72745 0.90813 0.67609 0.11800
C 	C 	0.66568 0.95814 0.71512 0.01900
N 	N 	0.73556 0.87744 0.68127 -0.02400
H 	H 	0.68154 0.90061 0.69030 0.08700
C 	C 	0.63646 0.94732 0.70223 0.06700
C 	C 	0.61478 0.95144 0.73881 -0.03200
C 	C 	0.62183 0.96668 0.78778 -0.03200
C 	C 	0.65025 0.97982 0.79873 0.09400
C 	C 	0.67209 0.97513 0.76273 -0.05900
N 	N 	0.62897 0.93143 0.65262 -0.01800
H 	H 	0.59265 0.94213 0.72958 0.06600
N 	N 	0.65696 0.99806 0.84626 -0.02000
H 	H 	0.69438 0.98393 0.77251 0.08000
O 	O 	0.72427 0.86250 0.71680 -0.09100
O 	O 	0.75401 0.86434 0.65019 -0.07700
O 	O 	0.67752 0.00542 0.64026 -0.08100
O 	O 	0.68017 0.99226 0.87649 -0.10700
O 	O 	0.61437 0.90617 0.65013 -0.10100
O 	O 	0.63564 0.94283 0.60983 -0.08700
H 	H 	0.91459 0.95984 0.01288 0.00300
C 	C 	0.94939 0.87826 0.87273 -0.08900
C 	C 	0.94816 0.88427 0.81986 -0.03300
C 	C 	0.92095 0.88411 0.79053 0.03700
C 	C 	0.89433 0.87873 0.81477 -0.09000
C 	C 	0.89624 0.86739 0.86419 -0.04400
C 	C 	0.92351 0.86708 0.89346 0.02800
S 	S 	0.92094 0.88925 0.72336 -0.01800
S 	S 	0.92495 0.85056 0.95352 -0.02000
H 	H 	0.92823 0.82017 0.94479 0.05800
H 	H 	0.91959 0.91928 0.71614 0.03800
H 	H 	0.96831 0.89004 0.80189 0.01800
H 	H 	0.87613 0.86061 0.88128 0.03700
C 	C 	0.08296 0.97078 0.92657 -0.10800
C 	C 	0.08144 0.00121 0.94402 -0.04300
C 	C 	0.08690 0.02344 0.91009 0.02200
C 	C 	0.09166 0.01487 0.85732 -0.11100
C 	C 	0.09806 0.98472 0.84304 -0.02600
C 	C 	0.09415 0.96277 0.87774 0.01500
S 	S 	0.09303 0.06064 0.93610 -0.20000
S 	S 	0.10239 0.92514 0.85907 -0.02400
H 	H 	0.07756 0.91133 0.83451 0.01800
H 	H 	0.12258 0.06463 0.95140 0.07200
H 	H 	0.07527 0.00758 0.98333 0.03500
C 	C 	0.03709 0.77595 0.00815 -0.06500
C 	C 	0.06573 0.76375 0.00954 0.04400
C 	C 	0.09027 0.78211 0.02794 0.05900
C 	C 	0.08627 0.81313 0.03798 -0.00100
C 	C 	0.05812 0.82587 0.02919 -0.07800
C 	C 	0.03314 0.80691 0.01692 0.11800
C 	C 	0.07014 0.73356 0.98330 -0.01100
N 	N 	0.11937 0.76952 0.03474 -0.01400
H 	H 	0.10539 0.82751 0.04921 0.06800
N 	N 	0.00437 0.81938 0.00592 -0.02100
H 	H 	0.01801 0.76170 0.99583 0.07400
C 	C 	0.05607 0.70838 0.00072 0.10100
C 	C 	0.08001 0.70445 0.90247 0.08600
C 	C 	0.08334 0.73096 0.93526 -0.04800
N 	N 	0.04559 0.70951 0.05201 -0.02300
N 	N 	0.09500 0.70151 0.85495 -0.01800
H 	H 	0.09528 0.74987 0.92253 0.07700
O 	O 	0.99131 0.83516 0.04228 -0.09200
O 	O 	0.99051 0.81349 0.96038 -0.11000
O 	O 	0.14206 0.78229 0.01641 -0.08800
O 	O 	0.12340 0.74600 0.06108 -0.07100
O 	O 	0.11225 0.67871 0.84543 -0.09600
O 	O 	0.06412 0.71494 0.09248 -0.07300
C 	C 	0.91636 0.98318 0.19166 -0.02900
C 	C 	0.93617 0.95898 0.18908 0.02000
C 	C 	0.96701 0.96450 0.18926 -0.06800
C 	C 	0.97697 0.99362 0.18210 -0.02300
S 	S 	0.92215 0.92205 0.18651 -0.06400
H 	H 	0.91952 0.91335 0.23587 -0.01800
H 	H 	0.89293 0.97902 0.19571 0.01400
H 	H 	0.00043 0.99781 0.17891 0.03600
C 	C 	0.95833 0.86599 0.31734 -0.10400
C 	C 	0.96709 0.87721 0.36857 -0.03500
C 	C 	0.94571 0.88639 0.40354 0.02600
C 	C 	0.91517 0.88261 0.38821 -0.10100
C 	C 	0.90675 0.86679 0.34044 -0.04700
C 	C 	0.92795 0.85854 0.30476 0.03300
S 	S 	0.95756 0.90419 0.46477 -0.04100
S 	S 	0.91595 0.83836 0.24561 -0.02900
H 	H 	0.91780 0.80822 0.25162 0.06100
H 	H 	0.96055 0.93438 0.46064 0.02600
H 	H 	0.99048 0.88104 0.37988 -0.00600
H 	H 	0.88337 0.86239 0.32975 0.03200
C 	C 	0.08941 0.95013 0.26160 -0.08600
C 	C 	0.11052 0.95021 0.30410 -0.03000
C 	C 	0.12024 0.97733 0.33057 0.03800
C 	C 	0.10721 0.00450 0.31644 -0.09400
C 	C 	0.09006 0.00462 0.26886 -0.02400
C 	C 	0.08173 0.97754 0.24072 0.02500
S 	S 	0.15008 0.97712 0.37826 0.00600
S 	S 	0.06259 0.97830 0.17907 -0.04400
H 	H 	0.08268 0.97778 0.14126 0.05100
H 	H 	0.13936 0.97314 0.42589 0.05100
H 	H 	0.11844 0.92915 0.31786 0.04900
H 	H 	0.08221 0.02562 0.25478 -0.02100
C 	C 	0.98802 0.72769 0.26395 -0.05800
C 	C 	0.01691 0.73672 0.18752 0.03300
H 	H 	0.98538 0.75175 0.27063 0.07800
C 	C 	0.99863 0.75393 0.15488 0.06800
C 	C 	0.00942 0.78117 0.13960 -0.01300
C 	C 	0.03791 0.79158 0.15799 -0.07400
C 	C 	0.05792 0.77140 0.18086 0.12300
C 	C 	0.04707 0.74441 0.19704 -0.06400
N 	N 	0.96838 0.74506 0.14087 -0.01600
H 	H 	0.99456 0.79558 0.11830 0.08200
N 	N 	0.08869 0.77945 0.19165 -0.02000
H 	H 	0.06166 0.73034 0.21964 0.09000
O 	O 	0.93184 0.71342 0.34293 -0.10200
O 	O 	0.10261 0.77293 0.23516 -0.08700
O 	O 	0.10287 0.79310 0.15777 -0.08100
O 	O 	0.94708 0.76449 0.14570 -0.09600
O 	O 	0.96217 0.71770 0.12244 -0.07700
