data_crystal

_cell_length_a 29.61640
_cell_length_b 29.99874
_cell_length_c 31.45817
_cell_angle_alpha 91.44970
_cell_angle_beta  89.99902
_cell_angle_gamma 89.71687

_symmetry_space_group_name_	'P 1'
_symmetry_space_group_name_H-M	'P 1'

loop_
_symmetry_equiv_pos_as_xyz
  x,y,z

loop_
_atom_site_label
_atom_site_type_symbol
_atom_site_fract_x
_atom_site_fract_y
_atom_site_fract_z
_atom_site_charge
C 	C 	0.96910 0.19670 0.27776 0.29900
C 	C 	0.95768 0.18628 0.08818 0.31000
C 	C 	0.03190 0.12316 0.19840 0.30100
C 	C 	0.89031 0.25529 0.16483 0.28800
C 	C 	0.08572 0.23919 0.13606 0.31100
C 	C 	0.01889 0.31840 0.21129 0.28500
Ni	Ni	0.94773 0.17493 0.18299 1.11600
Ni	Ni	0.98863 0.26280 0.13870 1.12700
Ni	Ni	0.04061 0.22065 0.21620 1.12200
O 	O 	0.95491 0.16628 0.24901 -0.35600
O 	O 	0.00216 0.22506 0.26923 -0.38200
O 	O 	0.05575 0.27127 0.13139 -0.37400
O 	O 	0.93089 0.17213 0.11829 -0.36300
O 	O 	0.99328 0.21003 0.09793 -0.37500
O 	O 	0.05095 0.28768 0.21627 -0.37300
O 	O 	0.99997 0.13018 0.17047 -0.36400
O 	O 	0.04228 0.15414 0.22695 -0.37400
O 	O 	0.98928 0.31529 0.17962 -0.36600
O 	O 	0.89414 0.21967 0.18891 -0.35900
O 	O 	0.91960 0.26284 0.13371 -0.36600
O 	O 	0.07942 0.20881 0.16480 -0.38700
O 	O 	0.98557 0.22487 0.18583 -0.71600
H 	H 	0.96804 0.24423 0.20553 0.16200
C 	C 	0.95924 0.18268 0.77595 0.29200
C 	C 	0.93735 0.18325 0.58716 0.31000
C 	C 	0.01804 0.11657 0.68921 0.30100
C 	C 	0.87285 0.24833 0.67103 0.29000
C 	C 	0.06862 0.24032 0.63469 0.31200
C 	C 	0.00505 0.31283 0.71177 0.28400
Ni	Ni	0.93265 0.16804 0.68144 1.11700
Ni	Ni	0.96965 0.25860 0.63983 1.12400
Ni	Ni	0.02631 0.21327 0.71295 1.12300
O 	O 	0.94374 0.15441 0.74598 -0.35700
O 	O 	0.99103 0.21253 0.76792 -0.36300
O 	O 	0.03605 0.26951 0.62832 -0.38100
O 	O 	0.91150 0.16973 0.61813 -0.36300
O 	O 	0.97210 0.20898 0.59514 -0.37600
O 	O 	0.03600 0.28081 0.71712 -0.36800
O 	O 	0.98516 0.12586 0.66297 -0.36200
O 	O 	0.03020 0.14577 0.71888 -0.37200
O 	O 	0.97221 0.30872 0.68312 -0.37000
O 	O 	0.87908 0.21155 0.69303 -0.35900
O 	O 	0.90025 0.25858 0.63905 -0.36300
O 	O 	0.06193 0.20627 0.65914 -0.38500
O 	O 	0.96980 0.21840 0.68536 -0.71800
H 	H 	0.95331 0.23644 0.70693 0.16400
C 	C 	0.15607 0.68232 0.21389 0.28900
C 	C 	0.16323 0.69414 0.40287 0.30900
C 	C 	0.08658 0.62389 0.30045 0.30800
C 	C 	0.23563 0.75057 0.32426 0.29200
C 	C 	0.03822 0.74848 0.34936 0.30700
C 	C 	0.10903 0.81414 0.27006 0.29000
Ni	Ni	0.17463 0.67173 0.30950 1.11700
Ni	Ni	0.13654 0.76650 0.34702 1.12200
Ni	Ni	0.08399 0.71693 0.27186 1.12300
O 	O 	0.16751 0.65449 0.24456 -0.36000
O 	O 	0.12230 0.71150 0.21873 -0.37100
O 	O 	0.06974 0.77912 0.35304 -0.37800
O 	O 	0.19121 0.67785 0.37393 -0.35900
O 	O 	0.12941 0.71969 0.39170 -0.37900
O 	O 	0.07630 0.78390 0.26632 -0.38000
O 	O 	0.12159 0.63013 0.32549 -0.36400
O 	O 	0.08077 0.64954 0.26771 -0.38100
O 	O 	0.13790 0.81375 0.30260 -0.37400
O 	O 	0.22900 0.71390 0.30046 -0.36100
O 	O 	0.20558 0.76450 0.35340 -0.37100
O 	O 	0.04319 0.71447 0.32264 -0.38800
O 	O 	0.13856 0.72264 0.30270 -0.72100
H 	H 	0.15675 0.73868 0.28186 0.16200
C 	C 	0.16573 0.68681 0.71652 0.29100
C 	C 	0.17217 0.68515 0.90548 0.31000
C 	C 	0.10304 0.62048 0.79833 0.31300
C 	C 	0.24544 0.75290 0.83162 0.28800
C 	C 	0.04867 0.74175 0.85718 0.31300
C 	C 	0.11458 0.81603 0.78313 0.28900
Ni	Ni	0.18742 0.67288 0.81166 1.11500
Ni	Ni	0.14603 0.76315 0.85520 1.12500
Ni	Ni	0.09446 0.71673 0.77770 1.12300
O 	O 	0.18086 0.65909 0.74593 -0.36300
O 	O 	0.13278 0.71620 0.72445 -0.37300
O 	O 	0.07897 0.77342 0.86167 -0.37500
O 	O 	0.20257 0.67544 0.87628 -0.36900
O 	O 	0.14006 0.71435 0.89822 -0.37300
O 	O 	0.08398 0.78410 0.77586 -0.37200
O 	O 	0.13579 0.62900 0.82527 -0.37400
O 	O 	0.09277 0.64917 0.76887 -0.36900
O 	O 	0.14572 0.81275 0.81346 -0.37400
O 	O 	0.24067 0.71726 0.80598 -0.36700
O 	O 	0.21493 0.76330 0.86153 -0.36600
O 	O 	0.05420 0.70963 0.82845 -0.38200
O 	O 	0.14925 0.72246 0.80828 -0.72300
H 	H 	0.16671 0.74043 0.78836 0.16000
C 	C 	0.65321 0.93313 0.54165 0.29000
C 	C 	0.66343 0.92385 0.35181 0.31200
C 	C 	0.58492 0.99242 0.45741 0.30900
C 	C 	0.73583 0.86676 0.43180 0.28800
C 	C 	0.53908 0.86603 0.40439 0.31400
C 	C 	0.61008 0.79938 0.48048 0.29100
Ni	Ni	0.67316 0.94507 0.44588 1.11500
Ni	Ni	0.63810 0.85046 0.40618 1.12400
Ni	Ni	0.58370 0.89721 0.48197 1.12500
O 	O 	0.66556 0.96090 0.51124 -0.35900
O 	O 	0.62202 0.90190 0.53504 -0.36800
O 	O 	0.57177 0.83656 0.39887 -0.37800
O 	O 	0.68992 0.94153 0.38118 -0.36400
O 	O 	0.63011 0.89787 0.36235 -0.37900
O 	O 	0.57731 0.82970 0.48615 -0.36700
O 	O 	0.61859 0.98542 0.43092 -0.36900
O 	O 	0.57781 0.96462 0.48833 -0.37600
O 	O 	0.64043 0.80258 0.44954 -0.37300
O 	O 	0.72943 0.90457 0.45401 -0.36100
O 	O 	0.70715 0.85381 0.40126 -0.36300
O 	O 	0.54419 0.90042 0.43048 -0.38200
O 	O 	0.63867 0.89326 0.45147 -0.72100
H 	H 	0.65730 0.87715 0.47206 0.16200
C 	C 	0.65326 0.92187 0.03688 0.29000
C 	C 	0.68422 0.92660 0.84933 0.31200
C 	C 	0.59337 0.98560 0.95133 0.30900
C 	C 	0.74972 0.86552 0.93252 0.28800
C 	C 	0.55738 0.86002 0.88505 0.31000
C 	C 	0.62314 0.79180 0.96455 0.29200
Ni	Ni	0.68344 0.94106 0.94477 1.11400
Ni	Ni	0.65642 0.84825 0.89612 1.12500
Ni	Ni	0.59207 0.88798 0.96840 1.12200
O 	O 	0.66805 0.95203 0.00967 -0.36000
O 	O 	0.62383 0.89036 0.02537 -0.37400
O 	O 	0.59196 0.83236 0.88145 -0.37600
O 	O 	0.70704 0.94267 0.88209 -0.36400
O 	O 	0.65125 0.89841 0.85479 -0.37600
O 	O 	0.58835 0.82009 0.96789 -0.37800
O 	O 	0.62904 0.98021 0.92699 -0.37000
O 	O 	0.58235 0.95469 0.97836 -0.37800
O 	O 	0.65605 0.79741 0.93642 -0.37000
O 	O 	0.74020 0.90193 0.95584 -0.36000
O 	O 	0.72531 0.85445 0.89833 -0.36300
O 	O 	0.55778 0.89267 0.91371 -0.38200
O 	O 	0.65031 0.88794 0.94362 -0.72000
H 	H 	0.66712 0.87108 0.96500 0.16000
C 	C 	0.46865 0.42651 0.97513 0.28800
C 	C 	0.45461 0.42595 0.16442 0.31000
C 	C 	0.52864 0.49533 0.06053 0.31000
C 	C 	0.38956 0.35958 0.08402 0.28800
C 	C 	0.58461 0.37673 0.11546 0.31200
C 	C 	0.52232 0.29995 0.03674 0.28900
Ni	Ni	0.44528 0.44157 0.07041 1.11700
Ni	Ni	0.48802 0.35217 0.11050 1.12600
Ni	Ni	0.53984 0.39952 0.03610 1.12300
O 	O 	0.45318 0.45477 0.00531 -0.35400
O 	O 	0.50271 0.39848 0.98216 -0.37400
O 	O 	0.55523 0.34414 0.11821 -0.37300
O 	O 	0.42723 0.43980 0.13459 -0.36300
O 	O 	0.49061 0.40241 0.15443 -0.37600
O 	O 	0.55241 0.33252 0.03195 -0.37000
O 	O 	0.49605 0.48611 0.08701 -0.36700
O 	O 	0.53964 0.46688 0.02981 -0.37600
O 	O 	0.49079 0.30219 0.06685 -0.37200
O 	O 	0.39334 0.39606 0.06119 -0.35700
O 	O 	0.41894 0.35043 0.11476 -0.36600
O 	O 	0.57792 0.40870 0.08837 -0.38700
O 	O 	0.48449 0.39247 0.06526 -0.72100
H 	H 	0.46795 0.37393 0.04424 0.16300
C 	C 	0.45562 0.44002 0.47547 0.29100
C 	C 	0.43991 0.42266 0.66348 0.31000
C 	C 	0.51624 0.49966 0.56705 0.31200
C 	C 	0.37343 0.36512 0.57821 0.28700
C 	C 	0.56978 0.37474 0.61087 0.31300
C 	C 	0.50762 0.30634 0.52743 0.29100
Ni	Ni	0.43156 0.44666 0.57122 1.11600
Ni	Ni	0.47220 0.35304 0.60407 1.12500
Ni	Ni	0.52559 0.40614 0.53431 1.12300
O 	O 	0.44030 0.46572 0.50768 -0.35900
O 	O 	0.48905 0.41079 0.48036 -0.37300
O 	O 	0.53925 0.34300 0.61216 -0.37300
O 	O 	0.41283 0.43925 0.63474 -0.36200
O 	O 	0.47528 0.39895 0.65201 -0.37600
O 	O 	0.53738 0.33952 0.52429 -0.37200
O 	O 	0.48250 0.48927 0.59181 -0.37200
O 	O 	0.52657 0.47398 0.53398 -0.37300
O 	O 	0.47499 0.30718 0.55654 -0.37800
O 	O 	0.37921 0.40283 0.55760 -0.35900
O 	O 	0.40281 0.35168 0.60752 -0.36400
O 	O 	0.56341 0.40953 0.58711 -0.38300
O 	O 	0.46997 0.39743 0.56242 -0.72200
H 	H 	0.45337 0.38106 0.53987 0.16200
C 	C 	0.47954 0.44755 0.85812 -0.03700
C 	C 	0.43483 0.44106 0.84393 0.02300
C 	C 	0.40054 0.43304 0.87352 -0.05600
C 	C 	0.41086 0.42948 0.91682 0.02500
C 	C 	0.45592 0.43428 0.93069 -0.07100
C 	C 	0.48974 0.44448 0.90134 0.01400
C 	C 	0.42489 0.43696 0.79788 0.02500
C 	C 	0.42340 0.39440 0.77857 -0.05700
C 	C 	0.42505 0.38937 0.73428 0.03300
C 	C 	0.42843 0.42735 0.70890 -0.07900
C 	C 	0.42535 0.47000 0.72802 0.01800
C 	C 	0.42341 0.47500 0.77242 -0.03800
C 	C 	0.42349 0.34512 0.71509 0.07400
C 	C 	0.42131 0.51917 0.79168 0.09700
C 	C 	0.51544 0.45587 0.82827 0.09800
C 	C 	0.37534 0.41930 0.94647 0.07800
N 	N 	0.42226 0.30967 0.69976 -0.11100
N 	N 	0.41965 0.55455 0.80714 -0.10800
N 	N 	0.34685 0.41116 0.97017 -0.10200
N 	N 	0.54415 0.46251 0.80433 -0.10700
H 	H 	0.52425 0.44906 0.91211 0.04500
H 	H 	0.36612 0.42815 0.86263 0.05800
H 	H 	0.42306 0.36513 0.79814 0.06000
H 	H 	0.42645 0.49927 0.70848 0.04500
C 	C 	0.42358 0.48344 0.26861 -0.03800
C 	C 	0.42886 0.44824 0.29714 0.02400
C 	C 	0.43698 0.40486 0.28129 -0.05800
C 	C 	0.44311 0.39681 0.23769 0.03200
C 	C 	0.44224 0.43274 0.20953 -0.08100
C 	C 	0.43079 0.47562 0.22499 0.01800
C 	C 	0.43078 0.45697 0.34366 0.02300
C 	C 	0.39614 0.44092 0.36954 -0.05600
C 	C 	0.40250 0.43813 0.41357 0.02500
C 	C 	0.44366 0.45203 0.43191 -0.07200
C 	C 	0.47635 0.47214 0.40662 0.01500
C 	C 	0.47038 0.47430 0.36262 -0.03700
C 	C 	0.36742 0.41932 0.43940 0.07500
C 	C 	0.50605 0.49220 0.33688 0.09900
C 	C 	0.41128 0.52764 0.28391 0.09900
C 	C 	0.44907 0.35147 0.22199 0.07300
N 	N 	0.33933 0.40424 0.46009 -0.10100
N 	N 	0.53460 0.50653 0.31624 -0.10700
N 	N 	0.45382 0.31515 0.20944 -0.11200
N 	N 	0.40143 0.56306 0.29620 -0.10600
H 	H 	0.42853 0.50303 0.20323 0.04700
H 	H 	0.43965 0.37753 0.30311 0.05900
H 	H 	0.36527 0.42843 0.35512 0.05800
H 	H 	0.50753 0.48399 0.42097 0.04800
C 	C 	0.50495 0.19234 0.97428 -0.03400
C 	C 	0.54482 0.16875 0.98389 0.01900
C 	C 	0.57872 0.18975 0.00808 -0.05100
C 	C 	0.57198 0.23280 0.02517 0.02500
C 	C 	0.53168 0.25615 0.01630 -0.06500
C 	C 	0.49870 0.23597 0.99035 0.00600
C 	C 	0.54930 0.12053 0.97315 0.02100
C 	C 	0.56354 0.10679 0.93236 -0.05500
C 	C 	0.57438 0.06190 0.92358 0.02600
C 	C 	0.57292 0.03072 0.95659 -0.07500
C 	C 	0.55524 0.04409 0.99644 0.00600
C 	C 	0.54311 0.08859 0.00467 -0.03200
C 	C 	0.58505 0.04791 0.88044 0.09100
C 	C 	0.52502 0.10144 0.04587 0.09500
C 	C 	0.46985 0.17163 0.94890 0.09600
C 	C 	0.60508 0.25147 0.05421 0.09000
N 	N 	0.59356 0.03674 0.84587 -0.09900
N 	N 	0.51054 0.11178 0.07885 -0.10600
N 	N 	0.63149 0.26638 0.07758 -0.10000
N 	N 	0.44174 0.15501 0.92856 -0.10700
H 	H 	0.46779 0.25390 0.98341 0.04900
H 	H 	0.60942 0.17161 0.01544 0.05700
H 	H 	0.56668 0.13112 0.90760 0.05900
H 	H 	0.55241 0.02017 0.02157 0.05300
C 	C 	0.61106 0.58931 0.04890 -0.03900
C 	C 	0.58169 0.62521 0.04079 0.02400
C 	C 	0.53498 0.61971 0.04523 -0.05700
C 	C 	0.51711 0.57786 0.05413 0.03100
C 	C 	0.54641 0.54109 0.05950 -0.08000
C 	C 	0.59330 0.54748 0.05826 0.01600
C 	C 	0.59886 0.66656 0.02204 0.02700
C 	C 	0.60308 0.66858 0.97776 -0.06000
C 	C 	0.61251 0.70907 0.95861 0.03100
C 	C 	0.61878 0.74798 0.98407 -0.07300
C 	C 	0.61667 0.74551 0.02850 0.01600
C 	C 	0.60674 0.70500 0.04760 -0.03800
C 	C 	0.61329 0.71087 0.91275 0.08300
C 	C 	0.60418 0.70324 0.09337 0.09700
C 	C 	0.65940 0.59494 0.04678 0.09800
C 	C 	0.46867 0.57242 0.05520 0.07800
N 	N 	0.61388 0.71232 0.87602 -0.10500
N 	N 	0.60212 0.70178 0.13004 -0.10800
N 	N 	0.42988 0.56809 0.05604 -0.11000
N 	N 	0.69813 0.59950 0.04508 -0.10600
H 	H 	0.61590 0.51950 0.06315 0.04200
H 	H 	0.51243 0.64757 0.03963 0.06000
H 	H 	0.59727 0.63890 0.95814 0.06000
H 	H 	0.62182 0.77532 0.04812 0.04300
C 	C 	0.64279 0.95439 0.65975 -0.03600
C 	C 	0.68847 0.95506 0.67253 0.02300
C 	C 	0.72264 0.95246 0.64163 -0.05600
C 	C 	0.71166 0.94665 0.59846 0.02500
C 	C 	0.66595 0.94411 0.58598 -0.07000
C 	C 	0.63186 0.94946 0.61666 0.01600
C 	C 	0.70048 0.95148 0.71806 0.02500
C 	C 	0.71247 0.90967 0.73354 -0.05700
C 	C 	0.71165 0.90219 0.77724 0.03200
C 	C 	0.69837 0.93682 0.80583 -0.08000
C 	C 	0.69191 0.97999 0.79077 0.01800
C 	C 	0.69324 0.98757 0.74696 -0.03800
C 	C 	0.72381 0.85871 0.79246 0.07100
C 	C 	0.68558 0.03201 0.73182 0.10000
C 	C 	0.60691 0.95687 0.69088 0.10000
C 	C 	0.74746 0.94136 0.56753 0.07600
N 	N 	0.73359 0.82384 0.80451 -0.10500
N 	N 	0.67942 0.06762 0.71966 -0.10700
N 	N 	0.77617 0.93710 0.54278 -0.10400
N 	N 	0.57821 0.95886 0.71583 -0.10400
H 	H 	0.59668 0.94853 0.60702 0.04800
H 	H 	0.75778 0.95310 0.65138 0.05800
H 	H 	0.71999 0.88232 0.71140 0.05900
H 	H 	0.68362 0.00714 0.81288 0.04900
C 	C 	0.62922 0.94167 0.15354 -0.03800
C 	C 	0.67299 0.94009 0.17115 0.02300
C 	C 	0.71056 0.93529 0.14420 -0.05600
C 	C 	0.70469 0.93018 0.10009 0.02500
C 	C 	0.66078 0.93024 0.08269 -0.07300
C 	C 	0.62341 0.93702 0.10951 0.01400
C 	C 	0.67922 0.93750 0.21779 0.02500
C 	C 	0.68483 0.89562 0.23581 -0.05800
C 	C 	0.68249 0.89110 0.27991 0.03200
C 	C 	0.67430 0.92894 0.30647 -0.08100
C 	C 	0.67229 0.97132 0.28870 0.01800
C 	C 	0.67481 0.97581 0.24447 -0.03900
C 	C 	0.68843 0.84749 0.29762 0.07100
C 	C 	0.67189 0.01963 0.22667 0.09900
C 	C 	0.59002 0.94681 0.18059 0.09800
C 	C 	0.74374 0.92308 0.07319 0.07500
N 	N 	0.69318 0.81249 0.31167 -0.11100
N 	N 	0.66953 0.05473 0.21237 -0.10800
N 	N 	0.77504 0.91737 0.05168 -0.10100
N 	N 	0.55865 0.95093 0.20230 -0.10600
H 	H 	0.58967 0.93797 0.09609 0.04400
H 	H 	0.74423 0.93407 0.15771 0.05800
H 	H 	0.68941 0.86629 0.21534 0.06000
H 	H 	0.66713 0.00059 0.30913 0.04800
C 	C 	0.53415 0.09882 0.50339 -0.03800
C 	C 	0.53535 0.12667 0.46803 0.02400
C 	C 	0.54645 0.10859 0.42782 -0.05700
C 	C 	0.55927 0.06363 0.42317 0.02700
C 	C 	0.56282 0.03694 0.45952 -0.07700
C 	C 	0.54813 0.05436 0.49909 0.01400
C 	C 	0.53016 0.17554 0.47396 0.02200
C 	C 	0.56684 0.20031 0.48953 -0.05500
C 	C 	0.56047 0.24372 0.50581 0.02600
C 	C 	0.51706 0.26362 0.50461 -0.07100
C 	C 	0.48118 0.24005 0.48559 0.01100
C 	C 	0.48746 0.19607 0.47051 -0.03600
C 	C 	0.59796 0.26620 0.52629 0.09000
C 	C 	0.44963 0.17177 0.45278 0.09600
C 	C 	0.51967 0.11603 0.54451 0.09800
C 	C 	0.56701 0.04488 0.38103 0.08800
N 	N 	0.62809 0.28403 0.54267 -0.10400
N 	N 	0.41934 0.15226 0.43858 -0.10600
N 	N 	0.57321 0.02987 0.34726 -0.10100
N 	N 	0.50807 0.12987 0.57742 -0.10600
H 	H 	0.54914 0.03375 0.52692 0.05200
H 	H 	0.54582 0.12967 0.40031 0.05900
H 	H 	0.59985 0.18464 0.49158 0.05800
H 	H 	0.44800 0.25541 0.48394 0.04400
C 	C 	0.52028 0.62445 0.55994 -0.03900
C 	C 	0.56690 0.63131 0.55403 0.02500
C 	C 	0.59726 0.59596 0.55989 -0.05700
C 	C 	0.58119 0.55300 0.56740 0.03100
C 	C 	0.53427 0.54537 0.56938 -0.08000
C 	C 	0.50423 0.58161 0.56779 0.01800
C 	C 	0.58339 0.67328 0.53580 0.02300
C 	C 	0.58916 0.71117 0.56225 -0.05300
C 	C 	0.59968 0.75239 0.54477 0.02600
C 	C 	0.60466 0.75573 0.50033 -0.06700
C 	C 	0.60115 0.71730 0.47420 0.01600
C 	C 	0.59034 0.67626 0.49161 -0.03700
C 	C 	0.60606 0.79084 0.57267 0.08000
C 	C 	0.58504 0.63757 0.46379 0.09700
C 	C 	0.48854 0.66085 0.55614 0.09600
C 	C 	0.61302 0.51697 0.57297 0.08000
N 	N 	0.61118 0.82156 0.59511 -0.10200
N 	N 	0.58077 0.60656 0.44155 -0.10800
N 	N 	0.63856 0.48815 0.57745 -0.10500
N 	N 	0.46315 0.69004 0.55307 -0.10700
H 	H 	0.46817 0.57604 0.57031 0.04000
H 	H 	0.63325 0.60150 0.55661 0.05900
H 	H 	0.58450 0.70873 0.59632 0.05900
H 	H 	0.60531 0.71968 0.44006 0.04900
C 	C 	0.35679 0.80203 0.79745 -0.03600
C 	C 	0.37832 0.80973 0.83690 0.02200
C 	C 	0.35522 0.80130 0.87466 -0.05500
C 	C 	0.31182 0.78313 0.87359 0.02500
C 	C 	0.29030 0.77452 0.83399 -0.07000
C 	C 	0.31289 0.78464 0.79618 0.01000
C 	C 	0.42648 0.82264 0.83920 0.02400
C 	C 	0.43792 0.86792 0.84219 -0.05700
C 	C 	0.48177 0.88079 0.85387 0.02800
C 	C 	0.51422 0.84794 0.86391 -0.07800
C 	C 	0.50369 0.80267 0.85714 0.01300
C 	C 	0.46018 0.78996 0.84462 -0.03800
C 	C 	0.49339 0.92751 0.85444 0.08900
C 	C 	0.44993 0.74319 0.83866 0.09700
C 	C 	0.37974 0.81124 0.75816 0.09600
C 	C 	0.29063 0.77176 0.91322 0.08700
N 	N 	0.50268 0.96495 0.85491 -0.09700
N 	N 	0.44168 0.70573 0.83388 -0.10700
N 	N 	0.27377 0.76283 0.94507 -0.10700
N 	N 	0.39817 0.81862 0.72670 -0.10600
H 	H 	0.29650 0.77846 0.76577 0.04400
H 	H 	0.37184 0.80736 0.90499 0.05700
H 	H 	0.41234 0.89312 0.83662 0.06000
H 	H 	0.52880 0.77721 0.86338 0.05400
C 	C 	0.87413 0.84971 0.91463 -0.03600
C 	C 	0.87925 0.80393 0.92273 0.02300
C 	C 	0.84335 0.78048 0.94051 -0.05300
C 	C 	0.80146 0.80144 0.94726 0.02500
C 	C 	0.79530 0.84621 0.93578 -0.06700
C 	C 	0.83225 0.87059 0.92125 0.01600
C 	C 	0.92047 0.77953 0.90880 0.02400
C 	C 	0.95846 0.77931 0.93537 -0.04900
C 	C 	0.00012 0.76359 0.91988 0.02600
C 	C 	0.00393 0.74824 0.87719 -0.08100
C 	C 	0.96498 0.74483 0.85191 0.02600
C 	C 	0.92337 0.76047 0.86745 -0.03900
C 	C 	0.03870 0.76319 0.94798 0.08400
C 	C 	0.88411 0.75840 0.84023 0.09900
C 	C 	0.91131 0.87505 0.89813 0.09900
C 	C 	0.76530 0.77706 0.96667 0.07800
N 	N 	0.06960 0.76289 0.97051 -0.10600
N 	N 	0.85262 0.75679 0.81847 -0.10600
N 	N 	0.73650 0.75739 0.98237 -0.10100
N 	N 	0.94112 0.89528 0.88491 -0.10500
H 	H 	0.82780 0.90529 0.91316 0.04900
H 	H 	0.84766 0.74558 0.94790 0.05900
H 	H 	0.95592 0.79277 0.96762 0.05900
H 	H 	0.96751 0.73218 0.81938 0.04600
C 	C 	0.16993 0.72186 0.52044 -0.03800
C 	C 	0.18734 0.68192 0.53674 0.02500
C 	C 	0.19920 0.64665 0.50875 -0.05700
C 	C 	0.19232 0.65023 0.46486 0.03100
C 	C 	0.17394 0.68998 0.44860 -0.07700
C 	C 	0.16441 0.72602 0.47658 0.01900
C 	C 	0.18880 0.67516 0.58323 0.02300
C 	C 	0.15550 0.64904 0.60195 -0.05600
C 	C 	0.15005 0.64973 0.64614 0.02800
C 	C 	0.17771 0.67739 0.67190 -0.07300
C 	C 	0.21361 0.70032 0.65353 0.01100
C 	C 	0.21974 0.69876 0.60934 -0.03600
C 	C 	0.11549 0.62256 0.66478 0.08300
C 	C 	0.25715 0.72220 0.59092 0.09600
C 	C 	0.15632 0.75827 0.54863 0.09900
C 	C 	0.20330 0.61266 0.43706 0.08900
N 	N 	0.08783 0.60074 0.67966 -0.09800
N 	N 	0.28710 0.74098 0.57614 -0.10700
N 	N 	0.21219 0.58255 0.41484 -0.10300
N 	N 	0.14542 0.78740 0.57124 -0.10800
H 	H 	0.15202 0.75720 0.46419 0.04200
H 	H 	0.21265 0.61595 0.52129 0.05900
H 	H 	0.13266 0.62962 0.58197 0.05900
H 	H 	0.23581 0.72050 0.67348 0.04000
C 	C 	0.22413 0.65892 0.01109 -0.03400
C 	C 	0.18512 0.65366 0.03610 0.02200
C 	C 	0.14281 0.65002 0.01631 -0.05100
C 	C 	0.13865 0.65606 0.97252 0.02700
C 	C 	0.17703 0.66712 0.94844 -0.07700
C 	C 	0.21992 0.66552 0.96735 0.01200
C 	C 	0.18728 0.65883 0.08296 0.02500
C 	C 	0.19318 0.70151 0.10121 -0.05500
C 	C 	0.18660 0.70898 0.14483 0.02700
C 	C 	0.17349 0.67348 0.17059 -0.07300
C 	C 	0.17145 0.63005 0.15296 0.01300
C 	C 	0.17833 0.62257 0.10928 -0.03900
C 	C 	0.19304 0.75321 0.16286 0.08100
C 	C 	0.17547 0.57778 0.09159 0.09500
C 	C 	0.26844 0.65850 0.03024 0.09800
C 	C 	0.09517 0.65001 0.95239 0.08800
N 	N 	0.19820 0.78870 0.17720 -0.10300
N 	N 	0.17318 0.54190 0.07739 -0.10900
N 	N 	0.06037 0.64518 0.93623 -0.10200
N 	N 	0.30393 0.65816 0.04561 -0.10700
H 	H 	0.24982 0.67132 0.94842 0.05400
H 	H 	0.11293 0.64418 0.03530 0.05800
H 	H 	0.20127 0.72924 0.08111 0.06100
H 	H 	0.16244 0.60245 0.17286 0.04900
C 	C 	0.44556 0.83598 0.32764 -0.03900
C 	C 	0.40949 0.82825 0.35571 0.02600
C 	C 	0.41540 0.83550 0.39953 -0.05700
C 	C 	0.45730 0.84886 0.41575 0.03300
C 	C 	0.49379 0.85563 0.38778 -0.08000
C 	C 	0.48754 0.84952 0.34382 0.01800
C 	C 	0.36639 0.80932 0.34001 0.02300
C 	C 	0.36275 0.76304 0.33408 -0.05400
C 	C 	0.32051 0.74328 0.32759 0.02800
C 	C 	0.28126 0.77037 0.32570 -0.06900
C 	C 	0.28536 0.81687 0.33002 0.01300
C 	C 	0.32768 0.83644 0.33661 -0.03600
C 	C 	0.31753 0.69519 0.32612 0.08800
C 	C 	0.33101 0.88438 0.34068 0.09900
C 	C 	0.43977 0.82998 0.28228 0.10000
C 	C 	0.46309 0.85358 0.46126 0.07600
N 	N 	0.31522 0.65667 0.32500 -0.10400
N 	N 	0.33372 0.92278 0.34394 -0.10600
N 	N 	0.46773 0.85735 0.49770 -0.11000
N 	N 	0.43510 0.82516 0.24593 -0.10700
H 	H 	0.51550 0.85488 0.32227 0.04700
H 	H 	0.38759 0.82956 0.42109 0.06100
H 	H 	0.39264 0.74221 0.33666 0.06000
H 	H 	0.25534 0.83771 0.32983 0.04900
C 	C 	0.91370 0.77382 0.35589 -0.04000
C 	C 	0.90918 0.78791 0.39878 0.02600
C 	C 	0.94612 0.78462 0.42640 -0.05900
C 	C 	0.98810 0.76961 0.41110 0.03800
C 	C 	0.99324 0.75782 0.36763 -0.07600
C 	C 	0.95558 0.75874 0.34060 0.01700
C 	C 	0.86677 0.80900 0.41420 0.02200
C 	C 	0.83080 0.78207 0.42658 -0.05300
C 	C 	0.78828 0.80091 0.43516 0.02600
C 	C 	0.78159 0.84724 0.43111 -0.06800
C 	C 	0.81845 0.87448 0.42164 0.01500
C 	C 	0.86090 0.85562 0.41308 -0.03700
C 	C 	0.75214 0.77263 0.44908 0.07800
C 	C 	0.89797 0.88416 0.40187 0.09700
C 	C 	0.87577 0.77592 0.32712 0.09700
C 	C 	0.02543 0.76565 0.44032 0.07300
N 	N 	0.72345 0.74968 0.46031 -0.10100
N 	N 	0.92768 0.90699 0.39288 -0.10700
N 	N 	0.05524 0.76248 0.46384 -0.10500
N 	N 	0.84535 0.77763 0.30412 -0.10800
H 	H 	0.95931 0.74926 0.30726 0.04000
H 	H 	0.94239 0.79465 0.45960 0.06100
H 	H 	0.83564 0.74630 0.42848 0.05800
H 	H 	0.81361 0.91020 0.41915 0.04900
C 	C 	0.16519 0.27785 0.56589 -0.03900
C 	C 	0.20075 0.28058 0.59564 0.02600
C 	C 	0.19382 0.26638 0.63721 -0.05800
C 	C 	0.15120 0.25193 0.65011 0.03200
C 	C 	0.11502 0.25061 0.62073 -0.08100
C 	C 	0.12257 0.26286 0.57855 0.01700
C 	C 	0.24372 0.30291 0.58511 0.02300
C 	C 	0.24759 0.34896 0.59271 -0.05400
C 	C 	0.28954 0.36991 0.58953 0.02800
C 	C 	0.32817 0.34472 0.57754 -0.06700
C 	C 	0.32392 0.29893 0.56823 0.01000
C 	C 	0.28193 0.27792 0.57196 -0.03500
C 	C 	0.29306 0.41674 0.60091 0.08600
C 	C 	0.27841 0.23067 0.56271 0.09800
C 	C 	0.17204 0.29085 0.52248 0.09900
C 	C 	0.14439 0.24088 0.69409 0.07200
N 	N 	0.29587 0.45424 0.61005 -0.10800
N 	N 	0.27554 0.19281 0.55530 -0.10600
N 	N 	0.13896 0.23203 0.72932 -0.11800
N 	N 	0.17757 0.30127 0.48771 -0.10800
H 	H 	0.09505 0.26148 0.55579 0.04700
H 	H 	0.22127 0.26831 0.66003 0.06100
H 	H 	0.21816 0.36818 0.60274 0.05900
H 	H 	0.35345 0.27954 0.55881 0.04400
C 	C 	0.74836 0.26535 0.65292 -0.03600
C 	C 	0.74319 0.31107 0.66343 0.02300
C 	C 	0.77987 0.33510 0.68026 -0.05300
C 	C 	0.82215 0.31445 0.68468 0.02500
C 	C 	0.82776 0.26923 0.67233 -0.06600
C 	C 	0.79047 0.24467 0.65763 0.01700
C 	C 	0.70066 0.33481 0.65328 0.02500
C 	C 	0.66373 0.33239 0.68104 -0.05600
C 	C 	0.62113 0.34810 0.66870 0.03200
C 	C 	0.61534 0.36616 0.62804 -0.07600
C 	C 	0.65312 0.37186 0.60181 0.02300
C 	C 	0.69559 0.35603 0.61407 -0.03700
C 	C 	0.58381 0.34638 0.69820 0.08400
C 	C 	0.73346 0.36006 0.58550 0.10100
C 	C 	0.71092 0.23980 0.63601 0.10000
C 	C 	0.85934 0.33970 0.70244 0.07800
N 	N 	0.55390 0.34505 0.72181 -0.10200
N 	N 	0.76382 0.36324 0.56264 -0.10700
N 	N 	0.88902 0.36004 0.71676 -0.10100
N 	N 	0.68091 0.21939 0.62246 -0.10600
H 	H 	0.79468 0.20980 0.64838 0.04900
H 	H 	0.77576 0.37013 0.68889 0.05800
H 	H 	0.66788 0.31712 0.71170 0.05900
H 	H 	0.64899 0.38646 0.57084 0.04500
C 	C 	0.09794 0.01994 0.70408 -0.03800
C 	C 	0.06756 0.98489 0.71133 0.02600
C 	C 	0.02111 0.99199 0.70610 -0.06400
C 	C 	0.00444 0.03442 0.69679 0.02400
C 	C 	0.03473 0.07019 0.69162 -0.07600
C 	C 	0.08140 0.06230 0.69414 0.01500
C 	C 	0.08345 0.94251 0.72957 0.02100
C 	C 	0.08182 0.93756 0.77373 -0.05500
C 	C 	0.09254 0.89659 0.79164 0.02800
C 	C 	0.10614 0.86022 0.76519 -0.07000
C 	C 	0.10865 0.86541 0.72105 0.00900
C 	C 	0.09733 0.90633 0.70310 -0.03600
C 	C 	0.08734 0.89155 0.83694 0.08500
C 	C 	0.09963 0.91081 0.65756 0.09700
C 	C 	0.14605 0.01294 0.70773 0.09800
C 	C 	0.95617 0.04144 0.69508 0.08200
N 	N 	0.08313 0.88749 0.87321 -0.10300
N 	N 	0.10148 0.91443 0.62106 -0.10600
N 	N 	0.91751 0.04704 0.69373 -0.11700
N 	N 	0.18459 0.00728 0.71066 -0.10700
H 	H 	0.10479 0.08952 0.68970 0.04600
H 	H 	0.99777 0.96487 0.71124 0.06500
H 	H 	0.07100 0.96536 0.79406 0.05900
H 	H 	0.11891 0.83746 0.70065 0.04500
C 	C 	0.10128 0.49563 0.78072 -0.04200
C 	C 	0.05465 0.48754 0.77616 0.02900
C 	C 	0.02372 0.52262 0.78280 -0.06700
C 	C 	0.03903 0.56603 0.79171 0.03800
C 	C 	0.08581 0.57449 0.79420 -0.08000
C 	C 	0.11657 0.53893 0.78980 0.02100
C 	C 	0.03831 0.44357 0.76014 0.02000
C 	C 	0.03325 0.40846 0.78840 -0.05300
C 	C 	0.02151 0.36568 0.77316 0.02400
C 	C 	0.01468 0.35793 0.72919 -0.06600
C 	C 	0.01843 0.39343 0.70120 0.01300
C 	C 	0.03027 0.43603 0.71638 -0.03600
C 	C 	0.01567 0.33024 0.80290 0.08000
C 	C 	0.03501 0.47170 0.68672 0.09500
C 	C 	0.13371 0.45987 0.77491 0.09600
C 	C 	0.00655 0.60154 0.79876 0.07300
N 	N 	0.01097 0.30186 0.82673 -0.10400
N 	N 	0.03882 0.50028 0.66297 -0.10700
N 	N 	0.98051 0.62996 0.80442 -0.09700
N 	N 	0.15965 0.43119 0.77024 -0.11100
H 	H 	0.15255 0.54526 0.79204 0.03900
H 	H 	0.98780 0.51630 0.77986 0.06700
H 	H 	0.03906 0.41432 0.82212 0.05700
H 	H 	0.01309 0.38760 0.66739 0.04500
C 	C 	0.97855 0.15312 0.88997 -0.03100
C 	C 	0.93632 0.16390 0.90838 0.02100
C 	C 	0.90025 0.17644 0.88224 -0.05500
C 	C 	0.90685 0.18127 0.83847 0.02600
C 	C 	0.94984 0.17305 0.82062 -0.07100
C 	C 	0.98498 0.15760 0.84626 0.02200
C 	C 	0.93209 0.16985 0.95506 0.02800
C 	C 	0.93618 0.21278 0.97311 -0.06200
C 	C 	0.94211 0.21880 0.01694 0.03800
C 	C 	0.94404 0.18134 0.04326 -0.08400
C 	C 	0.93595 0.13868 0.02566 0.02300
C 	C 	0.92983 0.13277 0.98167 -0.04300
C 	C 	0.94635 0.26353 0.03457 0.06900
C 	C 	0.92226 0.08855 0.96396 0.09800
C 	C 	0.01595 0.13918 0.91604 0.09000
C 	C 	0.86989 0.19639 0.81245 0.07700
N 	N 	0.94979 0.29942 0.04852 -0.11400
N 	N 	0.91622 0.05313 0.94973 -0.10900
N 	N 	0.84030 0.20852 0.79162 -0.10200
N 	N 	0.04589 0.12802 0.93695 -0.10700
H 	H 	0.01777 0.15022 0.83230 0.04200
H 	H 	0.86766 0.18440 0.89631 0.05700
H 	H 	0.93665 0.24142 0.95271 0.06300
H 	H 	0.93603 0.10997 0.04596 0.04500
C 	C 	0.97886 0.19128 0.39717 -0.03100
C 	C 	0.93584 0.17545 0.40847 0.02300
C 	C 	0.90268 0.16934 0.37703 -0.05500
C 	C 	0.91233 0.17819 0.33442 0.02800
C 	C 	0.95629 0.19145 0.32281 -0.07100
C 	C 	0.98909 0.19828 0.35454 0.02400
C 	C 	0.92440 0.16842 0.45365 0.02500
C 	C 	0.89771 0.20022 0.47543 -0.05800
C 	C 	0.89750 0.20222 0.51992 0.02800
C 	C 	0.92510 0.17278 0.54280 -0.08000
C 	C 	0.94713 0.13754 0.52114 0.01800
C 	C 	0.94611 0.13468 0.47663 -0.03800
C 	C 	0.86924 0.23478 0.54178 0.07600
C 	C 	0.96896 0.09822 0.45468 0.10100
C 	C 	0.01243 0.20129 0.42933 0.08900
C 	C 	0.87637 0.17612 0.30341 0.08000
N 	N 	0.84637 0.26090 0.55900 -0.09800
N 	N 	0.98729 0.06904 0.43706 -0.10400
N 	N 	0.84754 0.17451 0.27859 -0.10500
N 	N 	0.03928 0.20930 0.45511 -0.10900
H 	H 	0.02283 0.20872 0.34595 0.04300
H 	H 	0.86913 0.15859 0.38590 0.05700
H 	H 	0.87910 0.22487 0.45775 0.05800
H 	H 	0.96679 0.11365 0.53879 0.04700
C 	C 	0.27570 0.32425 0.12359 -0.03600
C 	C 	0.26166 0.29448 0.09078 0.02300
C 	C 	0.28904 0.28762 0.05477 -0.05300
C 	C 	0.33068 0.30941 0.05174 0.02400
C 	C 	0.34529 0.33784 0.08530 -0.06800
C 	C 	0.31755 0.34527 0.12087 0.01500
C 	C 	0.21821 0.27053 0.09404 0.02500
C 	C 	0.18096 0.28489 0.07046 -0.05600
C 	C 	0.13744 0.27035 0.08046 0.03300
C 	C 	0.13089 0.24322 0.11607 -0.07600
C 	C 	0.16877 0.22441 0.13590 0.01500
C 	C 	0.21236 0.23742 0.12453 -0.03800
C 	C 	0.10022 0.28164 0.05301 0.08600
C 	C 	0.25088 0.21779 0.14526 0.09700
C 	C 	0.24730 0.33336 0.16017 0.09900
C 	C 	0.35822 0.30230 0.01426 0.08400
N 	N 	0.07041 0.29067 0.03099 -0.10400
N 	N 	0.28177 0.20209 0.16186 -0.10700
N 	N 	0.38026 0.29668 0.98421 -0.11000
N 	N 	0.22463 0.34061 0.18952 -0.10700
H 	H 	0.32860 0.36762 0.14644 0.05000
H 	H 	0.27802 0.26521 0.02927 0.05800
H 	H 	0.18572 0.30836 0.04518 0.06000
H 	H 	0.16433 0.20118 0.16141 0.04700
C 	C 	0.71109 0.38058 0.12861 -0.03700
C 	C 	0.71784 0.34458 0.15590 0.02500
C 	C 	0.68090 0.32699 0.17756 -0.05600
C 	C 	0.63699 0.34157 0.16859 0.03300
C 	C 	0.62975 0.37195 0.13554 -0.07600
C 	C 	0.66714 0.39360 0.11795 0.01500
C 	C 	0.76234 0.32186 0.15812 0.02400
C 	C 	0.78751 0.32436 0.19593 -0.05500
C 	C 	0.82923 0.30229 0.19876 0.02500
C 	C 	0.84622 0.27792 0.16326 -0.06900
C 	C 	0.82094 0.27525 0.12563 0.01500
C 	C 	0.77901 0.29658 0.12299 -0.03600
C 	C 	0.85453 0.30508 0.23800 0.08000
C 	C 	0.75321 0.29225 0.08413 0.09900
C 	C 	0.74908 0.40350 0.11062 0.09700
C 	C 	0.60006 0.32701 0.19474 0.08600
N 	N 	0.87481 0.30725 0.26942 -0.10800
N 	N 	0.73267 0.28883 0.05294 -0.10800
N 	N 	0.57050 0.31536 0.21574 -0.10300
N 	N 	0.77954 0.42183 0.09621 -0.10600
H 	H 	0.66211 0.41927 0.09474 0.04600
H 	H 	0.68625 0.30120 0.20063 0.05900
H 	H 	0.77456 0.34342 0.22309 0.05800
H 	H 	0.83382 0.25614 0.09845 0.05000
C 	C 	0.05492 0.91043 0.21404 -0.03500
C 	C 	0.09053 0.94133 0.21415 0.02300
C 	C 	0.13417 0.92748 0.22508 -0.05400
C 	C 	0.14168 0.88435 0.23977 0.02600
C 	C 	0.10469 0.85539 0.24527 -0.06900
C 	C 	0.06200 0.86783 0.22982 0.01000
C 	C 	0.08081 0.98940 0.21044 0.02200
C 	C 	0.06613 0.01355 0.24654 -0.05600
C 	C 	0.04978 0.05705 0.24308 0.02700
C 	C 	0.04984 0.07761 0.20310 -0.07900
C 	C 	0.06610 0.05392 0.16716 0.01300
C 	C 	0.08148 0.00989 0.17062 -0.03700
C 	C 	0.03065 0.07925 0.28025 0.08600
C 	C 	0.09728 0.98577 0.13315 0.09600
C 	C 	0.01053 0.92286 0.19929 0.08800
C 	C 	0.18743 0.86942 0.24662 0.08900
N 	N 	0.01538 0.09678 0.31016 -0.10200
N 	N 	0.10994 0.96641 0.10315 -0.10700
N 	N 	0.22422 0.85762 0.25180 -0.10500
N 	N 	0.97498 0.93286 0.18746 -0.10300
H 	H 	0.03378 0.84506 0.23174 0.04900
H 	H 	0.16204 0.95070 0.22329 0.05900
H 	H 	0.06557 0.99762 0.27713 0.05900
H 	H 	0.06644 0.06966 0.13648 0.04800
C 	C 	0.99525 0.41872 0.28244 -0.02900
C 	C 	0.03214 0.44626 0.27292 0.01300
C 	C 	0.06568 0.43073 0.24474 -0.05300
C 	C 	0.06164 0.38902 0.22434 0.02800
C 	C 	0.02430 0.36178 0.23320 -0.07600
C 	C 	0.99152 0.37660 0.26252 0.01600
C 	C 	0.03331 0.49327 0.28795 0.02900
C 	C 	0.05773 0.50480 0.32475 -0.06100
C 	C 	0.07001 0.54926 0.33294 0.02900
C 	C 	0.06042 0.58179 0.30236 -0.08000
C 	C 	0.02987 0.57121 0.26943 0.01800
C 	C 	0.01645 0.52711 0.26204 -0.04900
C 	C 	0.08807 0.56174 0.37415 0.08800
C 	C 	0.98694 0.51647 0.22670 0.10700
C 	C 	0.96078 0.43376 0.31202 0.09700
C 	C 	0.09464 0.37537 0.19268 0.08900
N 	N 	0.10236 0.57171 0.40726 -0.10100
N 	N 	0.96330 0.50790 0.19839 -0.10800
N 	N 	0.12095 0.36441 0.16725 -0.09800
N 	N 	0.93317 0.44584 0.33571 -0.10700
H 	H 	0.96296 0.35550 0.26952 0.04700
H 	H 	0.09398 0.45203 0.23734 0.05800
H 	H 	0.06801 0.47907 0.34641 0.05900
H 	H 	0.01848 0.59686 0.24818 0.04400
