data_crystal

_cell_length_a 21.34282
_cell_length_b 18.29090
_cell_length_c 54.08103
_cell_angle_alpha 90.70373
_cell_angle_beta  91.48730
_cell_angle_gamma 111.04645

_symmetry_space_group_name_	'P 1'
_symmetry_space_group_name_H-M	'P 1'

loop_
_symmetry_equiv_pos_as_xyz
  x,y,z

loop_
_atom_site_label
_atom_site_type_symbol
_atom_site_fract_x
_atom_site_fract_y
_atom_site_fract_z
_atom_site_charge
O 	O 	0.02047 0.87922 0.70666 -0.70900
Ni	Ni	0.04936 0.91854 0.67305 1.09800
O 	O 	0.08513 0.02046 0.73797 -0.37200
O 	O 	0.06422 0.14642 0.72158 -0.42700
O 	O 	0.07612 0.82683 0.66255 -0.39600
O 	O 	0.01598 0.00446 0.68549 -0.69700
O 	O 	0.09493 0.97692 0.64257 -0.36800
O 	O 	0.12137 0.10552 0.65289 -0.40900
Ni	Ni	0.08606 0.10919 0.68821 1.06600
H 	H 	0.05747 0.87191 0.71650 0.15300
O 	O 	0.14966 0.06197 0.70404 -0.43700
C 	C 	0.03166 0.75468 0.66182 0.30400
C 	C 	0.14400 0.04217 0.72739 0.29300
C 	C 	0.13923 0.04856 0.64428 0.29300
C 	C 	0.00296 0.12897 0.72971 0.32000
O 	O 	0.19109 0.60691 0.37250 -0.37600
O 	O 	0.20201 0.53597 0.46023 -0.41800
O 	O 	0.15985 0.53222 0.41997 -0.38100
C 	C 	0.15074 0.52102 0.44402 0.29300
O 	O 	0.11700 0.64315 0.98775 -0.38300
O 	O 	0.17411 0.76066 0.02632 -0.37500
C 	C 	0.09895 0.58146 0.97233 0.29000
O 	O 	0.14397 0.56667 0.95889 -0.42100
O 	O 	0.06389 0.05329 0.26649 -0.37100
O 	O 	0.13339 0.12857 0.23809 -0.41200
Ni	Ni	0.07946 0.18131 0.21715 1.07100
O 	O 	0.10757 0.13781 0.18570 -0.40500
C 	C 	0.06640 0.09656 0.16788 0.30900
C 	C 	0.11880 0.11155 0.26121 0.29300
C 	C 	0.09075 0.29863 0.14429 0.12000
C 	C 	0.10113 0.33265 0.12099 -0.09700
C 	C 	0.05430 0.36123 0.11030 0.00600
N 	N 	0.14246 0.28626 0.15644 -0.20100
H 	H 	0.14851 0.34319 0.11213 0.05600
C 	C 	0.07453 0.41330 0.08889 0.00100
C 	C 	0.05046 0.38365 0.06506 -0.09900
C 	C 	0.07412 0.42940 0.04423 0.12900
C 	C 	0.12979 0.50069 0.04703 -0.11300
C 	C 	0.15295 0.53081 0.07097 -0.02100
C 	C 	0.12364 0.48938 0.09189 0.05600
H 	H 	0.01136 0.32623 0.06281 0.05600
N 	N 	0.03998 0.40813 0.02221 -0.20400
N 	N 	0.14273 0.52294 0.11479 -0.19200
H 	H 	0.00254 0.35276 0.01968 0.08400
H 	H 	0.04510 0.44919 0.00850 0.09500
H 	H 	0.18094 0.57791 0.11691 0.07700
H 	H 	0.11803 0.49649 0.13057 0.08600
H 	H 	0.14365 0.28204 0.17561 0.07200
H 	H 	0.18558 0.28957 0.14706 0.08300
C 	C 	0.17256 0.87842 0.04652 -0.11700
C 	C 	0.15554 0.99823 0.05874 -0.09400
C 	C 	0.14470 0.97216 0.08307 0.00500
C 	C 	0.14278 0.89597 0.08878 0.05700
C 	C 	0.15859 0.85070 0.07057 -0.02900
H 	H 	0.15387 0.05507 0.05415 0.04900
C 	C 	0.13244 0.02373 0.10212 -0.00600
N 	N 	0.12545 0.86590 0.11157 -0.19200
H 	H 	0.16139 0.79446 0.07527 0.03900
C 	C 	0.07042 0.03370 0.10182 -0.09900
C 	C 	0.05186 0.06903 0.12206 0.13300
C 	C 	0.09424 0.08960 0.14359 -0.11400
C 	C 	0.15974 0.08892 0.14258 -0.02400
C 	C 	0.17970 0.05733 0.12173 0.05500
H 	H 	0.03587 0.01224 0.08605 0.05600
H 	H 	0.19405 0.10920 0.15845 0.04400
H 	H 	0.12653 0.81077 0.11584 0.07900
H 	H 	0.10840 0.89531 0.12494 0.09000
C 	C 	0.16434 0.15714 0.28140 -0.11000
C 	C 	0.17948 0.23899 0.28438 0.11100
C 	C 	0.21568 0.27823 0.30561 -0.09200
C 	C 	0.23157 0.23650 0.32480 -0.00200
C 	C 	0.22081 0.15623 0.32114 0.05700
C 	C 	0.18730 0.11721 0.29939 -0.02100
H 	H 	0.22600 0.34042 0.30823 0.05400
C 	C 	0.24647 0.27338 0.34981 0.00400
H 	H 	0.17735 0.05510 0.29680 0.04200
C 	C 	0.31592 0.38413 0.37561 -0.01800
C 	C 	0.30982 0.33118 0.35586 0.05400
H 	H 	0.36336 0.43180 0.37931 0.03300
N 	N 	0.36451 0.33679 0.34258 -0.19200
H 	H 	0.41077 0.38133 0.34659 0.07800
H 	H 	0.36212 0.29544 0.32874 0.08300
C 	C 	0.14344 0.67271 0.34333 -0.10500
C 	C 	0.15636 0.73310 0.32590 0.11800
C 	C 	0.10286 0.73938 0.31159 -0.09400
C 	C 	0.03855 0.68140 0.31225 0.00400
C 	C 	0.02769 0.61538 0.32722 0.06100
C 	C 	0.07964 0.61292 0.34325 -0.02700
H 	H 	0.11172 0.78826 0.29930 0.06000
H 	H 	0.07004 0.56493 0.35593 0.05200
H 	H 	0.01240 0.64905 0.26342 0.05700
C 	C 	0.04239 0.40902 0.44024 -0.03600
C 	C 	0.08159 0.47978 0.45227 -0.09700
C 	C 	0.05273 0.51244 0.47071 0.11100
N 	N 	0.08834 0.58251 0.48204 -0.20100
H 	H 	0.06422 0.38449 0.42598 0.04900
H 	H 	0.06716 0.60472 0.49614 0.08300
H 	H 	0.13620 0.61686 0.47649 0.08500
H 	H 	0.20633 0.96975 0.66272 0.07300
N 	N 	0.12408 0.78283 0.61879 -0.20200
H 	H 	0.15517 0.81037 0.63397 0.10100
C 	C 	0.02607 0.53891 0.96641 -0.08400
C 	C 	0.00060 0.45872 0.95858 0.10200
H 	H 	0.00024 0.64004 0.97486 0.06000
N 	N 	0.04047 0.41500 0.95853 -0.19700
H 	H 	0.08604 0.43256 0.96851 0.07100
H 	H 	0.02292 0.35881 0.95042 0.08000
C 	C 	0.01240 0.21777 0.76641 0.15200
N 	N 	0.07318 0.21644 0.77409 -0.21000
H 	H 	0.09124 0.23348 0.79221 0.08700
H 	H 	0.10434 0.20193 0.76201 0.10900
H 	H 	0.19564 0.94347 0.74825 0.02900
Ni	Ni	0.24540 0.60644 0.40417 1.09900
O 	O 	0.33242 0.67182 0.38789 -0.70400
Ni	Ni	0.39942 0.68217 0.41533 1.10000
O 	O 	0.23366 0.74086 0.37287 -0.41000
O 	O 	0.26531 0.51289 0.39021 -0.39800
Ni	Ni	0.33818 0.77363 0.37615 1.06600
O 	O 	0.33814 0.82188 0.41032 -0.41600
O 	O 	0.31083 0.63337 0.43296 -0.70500
O 	O 	0.38772 0.53110 0.44373 -0.41400
Ni	Ni	0.29477 0.53763 0.45143 1.06800
H 	H 	0.34198 0.64208 0.37399 0.15000
H 	H 	0.30215 0.67299 0.44356 0.15400
C 	C 	0.39198 0.84179 0.42490 0.30200
O 	O 	0.24930 0.44766 0.42658 -0.40600
C 	C 	0.19463 0.67346 0.36246 0.28000
C 	C 	0.26084 0.45058 0.40284 0.31700
Ni	Ni	0.36077 0.70364 0.99872 1.10000
O 	O 	0.26990 0.66495 0.97982 -0.70200
Ni	Ni	0.21298 0.70082 0.00249 1.09800
O 	O 	0.39922 0.63206 0.97981 -0.37300
O 	O 	0.30719 0.52378 0.98715 -0.41700
O 	O 	0.40523 0.78711 0.97263 -0.37200
Ni	Ni	0.22561 0.55135 0.97449 1.06500
O 	O 	0.17321 0.50475 0.00589 -0.40300
O 	O 	0.30660 0.75047 0.01901 -0.69700
O 	O 	0.25275 0.87791 0.01597 -0.41700
Ni	Ni	0.34526 0.86424 0.01835 1.06600
H 	H 	0.27320 0.69179 0.96385 0.15400
H 	H 	0.30707 0.73391 0.03635 0.15000
C 	C 	0.16484 0.54425 0.02534 0.31500
O 	O 	0.34477 0.86368 0.98099 -0.42200
C 	C 	0.36667 0.55609 0.97760 0.28000
C 	C 	0.39353 0.85239 0.96950 0.30400
C 	C 	0.20192 0.83725 0.02939 0.28500
O 	O 	0.20107 0.61847 0.02859 -0.41000
H 	H 	0.19383 0.58676 0.07339 0.04200
C 	C 	0.16602 0.95023 0.04012 0.12400
N 	N 	0.16652 0.97143 0.01609 -0.19900
N 	N 	0.24358 0.05821 0.12081 -0.19200
H 	H 	0.27745 0.08051 0.13576 0.07600
H 	H 	0.26087 0.03934 0.10496 0.07700
H 	H 	0.16319 0.93169 0.00164 0.09700
H 	H 	0.16542 0.02641 0.01162 0.07800
N 	N 	0.24241 0.11645 0.33840 -0.19200
C 	C 	0.19314 0.26204 0.36569 -0.10000
C 	C 	0.19918 0.31444 0.38556 0.13400
C 	C 	0.25982 0.37966 0.38934 -0.11700
H 	H 	0.14546 0.21506 0.36169 0.05900
N 	N 	0.14636 0.30264 0.40052 -0.20600
H 	H 	0.10031 0.25784 0.39642 0.08400
H 	H 	0.15147 0.33412 0.41709 0.10300
H 	H 	0.23254 0.05652 0.33595 0.07900
H 	H 	0.27099 0.14510 0.35400 0.08400
N 	N 	0.22014 0.78222 0.32186 -0.19800
H 	H 	0.26160 0.76993 0.32848 0.04700
H 	H 	0.22880 0.82988 0.31024 0.07700
N 	N 	0.34509 0.95746 0.44754 -0.20300
H 	H 	0.32825 0.99747 0.45658 0.08400
H 	H 	0.31058 0.90105 0.44391 0.09400
N 	N 	0.44303 0.52396 0.49906 -0.19800
H 	H 	0.43640 0.49177 0.51525 0.07700
H 	H 	0.41236 0.55650 0.49577 0.05600
C 	C 	0.19783 0.06908 0.62840 -0.10800
C 	C 	0.24350 0.02897 0.63004 0.11600
C 	C 	0.29492 0.04477 0.61300 -0.09600
C 	C 	0.30362 0.10263 0.59530 -0.00200
C 	C 	0.25971 0.14506 0.59432 0.05800
C 	C 	0.20680 0.12725 0.61074 -0.02300
N 	N 	0.23940 0.97699 0.64828 -0.19900
H 	H 	0.32911 0.01297 0.61381 0.05000
C 	C 	0.35789 0.11699 0.57750 0.00100
N 	N 	0.26798 0.20274 0.57766 -0.19200
H 	H 	0.17194 0.15810 0.60955 0.04300
C 	C 	0.34307 0.07782 0.55446 -0.10300
C 	C 	0.39048 0.09723 0.53585 0.12800
H 	H 	0.29323 0.03489 0.55057 0.05500
N 	N 	0.37215 0.06507 0.51277 -0.20500
H 	H 	0.32528 0.02092 0.50941 0.07900
H 	H 	0.23485 0.23315 0.57694 0.07900
H 	H 	0.30755 0.21864 0.56547 0.08700
H 	H 	0.27159 0.94535 0.64872 0.07900
C 	C 	0.36048 0.13346 0.85005 0.13400
C 	C 	0.31853 0.11142 0.82869 -0.10300
C 	C 	0.34583 0.11846 0.80514 0.00200
C 	C 	0.41635 0.14881 0.80275 0.05100
N 	N 	0.33274 0.12329 0.87272 -0.20600
H 	H 	0.26443 0.08843 0.83041 0.05800
C 	C 	0.29999 0.09887 0.78306 0.00000
C 	C 	0.28579 0.15911 0.77129 -0.09800
C 	C 	0.23948 0.14262 0.75124 0.12500
C 	C 	0.20495 0.06364 0.74341 -0.11000
C 	C 	0.22151 0.00374 0.75445 -0.02600
C 	C 	0.26926 0.02062 0.77411 0.05500
H 	H 	0.31072 0.21918 0.77784 0.05400
N 	N 	0.22805 0.20268 0.73979 -0.20100
N 	N 	0.28515 0.96161 0.78431 -0.19000
H 	H 	0.25117 0.26020 0.74656 0.07800
H 	H 	0.19847 0.19369 0.72360 0.07200
H 	H 	0.26130 0.90385 0.77787 0.07800
H 	H 	0.32206 0.97251 0.79835 0.08500
H 	H 	0.41471 0.13353 0.76407 0.08300
H 	H 	0.36236 0.13705 0.88899 0.10500
H 	H 	0.28058 0.10046 0.87427 0.08500
O 	O 	0.04059 0.25027 0.19786 -0.42500
C 	C 	0.00858 0.22771 0.17635 0.30500
C 	C 	0.02754 0.28105 0.15526 -0.11100
N 	N 	0.15640 0.27933 0.26772 -0.19300
C 	C 	0.06936 0.71687 0.62158 0.13400
C 	C 	0.04216 0.69539 0.64516 -0.12100
C 	C 	0.00405 0.61621 0.64896 -0.00800
C 	C 	0.99240 0.34784 0.12185 0.04900
H 	H 	0.14005 0.80216 0.60112 0.08800
H 	H 	0.39580 0.43992 0.99900 0.04500
C 	C 	0.04123 0.66687 0.60108 -0.09500
H 	H 	0.05677 0.68604 0.58259 0.05600
H 	H 	0.40057 0.80237 0.92552 0.09000
H 	H 	0.45946 0.99106 0.99189 0.02600
H 	H 	0.36660 0.58910 0.93150 0.06800
Ni	Ni	0.56649 0.28670 0.90694 1.10000
Ni	Ni	0.61142 0.16758 0.87412 1.06500
O 	O 	0.61747 0.13878 0.91016 -0.42100
O 	O 	0.48331 0.24309 0.88411 -0.38200
O 	O 	0.51366 0.32544 0.93192 -0.37800
O 	O 	0.59422 0.44801 0.93301 -0.41600
C 	C 	0.56749 0.13039 0.92482 0.29700
C 	C 	0.47727 0.18271 0.86931 0.29000
C 	C 	0.53408 0.39984 0.93876 0.27400
O 	O 	0.53549 0.18018 0.92438 -0.37200
O 	O 	0.50927 0.13473 0.87472 -0.41500
Ni	Ni	0.61703 0.27865 0.49431 1.09900
O 	O 	0.58648 0.35855 0.47629 -0.37900
O 	O 	0.56378 0.19817 0.46699 -0.37200
O 	O 	0.52302 0.11435 0.51208 -0.41600
O 	O 	0.53192 0.24342 0.51400 -0.38200
C 	C 	0.62269 0.43368 0.47759 0.28100
C 	C 	0.57382 0.13328 0.46114 0.29800
C 	C 	0.50858 0.17185 0.52275 0.28600
O 	O 	0.48298 0.73505 0.39546 -0.38200
O 	O 	0.45693 0.65958 0.44311 -0.37800
C 	C 	0.48257 0.78173 0.37691 0.28100
C 	C 	0.44466 0.58746 0.45036 0.27700
O 	O 	0.41486 0.78823 0.43293 -0.37600
O 	O 	0.44110 0.82135 0.37657 -0.41300
O 	O 	0.44352 0.87228 0.02132 -0.41700
O 	O 	0.44748 0.74847 0.01938 -0.37900
C 	C 	0.46308 0.81718 0.03081 0.28700
C 	C 	0.51495 0.83848 0.05073 -0.11900
C 	C 	0.58233 0.88618 0.04637 0.13200
C 	C 	0.54480 0.82734 0.09395 0.05400
C 	C 	0.49694 0.80930 0.07437 -0.02800
N 	N 	0.60157 0.91363 0.02343 -0.20600
N 	N 	0.52578 0.79872 0.11679 -0.19200
H 	H 	0.44532 0.77252 0.07757 0.02100
H 	H 	0.47596 0.76328 0.11973 0.07600
H 	H 	0.55990 0.81137 0.13183 0.08400
H 	H 	0.56803 0.89853 0.00819 0.10700
C 	C 	0.59585 0.83729 0.32223 -0.09600
C 	C 	0.53977 0.79798 0.33630 0.11200
C 	C 	0.54309 0.81189 0.36218 -0.10500
C 	C 	0.60283 0.86285 0.37359 -0.02300
H 	H 	0.59382 0.82610 0.30243 0.05200
N 	N 	0.48338 0.74622 0.32492 -0.20300
H 	H 	0.60567 0.87216 0.39348 0.04300
H 	H 	0.48090 0.73746 0.30573 0.07500
H 	H 	0.44214 0.71298 0.33500 0.05800
C 	C 	0.45612 0.05405 0.44807 -0.05600
C 	C 	0.52514 0.07425 0.44439 -0.09400
C 	C 	0.54680 0.02550 0.42914 0.09500
C 	C 	0.50173 0.95061 0.42217 -0.03300
C 	C 	0.43424 0.92548 0.42889 -0.10400
C 	C 	0.41047 0.97877 0.44127 0.11400
H 	H 	0.43851 0.09485 0.45770 0.05400
H 	H 	0.51979 0.91087 0.41223 0.05700
N 	N 	0.61074 0.05044 0.42109 -0.19700
C 	C 	0.53696 0.48784 0.48968 -0.03900
C 	C 	0.58906 0.49042 0.47404 -0.09100
C 	C 	0.60105 0.53833 0.45302 0.09800
C 	C 	0.55623 0.57613 0.44669 -0.04100
C 	C 	0.49993 0.56641 0.46093 -0.09000
C 	C 	0.49252 0.52606 0.48342 0.09900
H 	H 	0.52945 0.45353 0.50631 0.04600
H 	H 	0.56319 0.60960 0.42990 0.04700
C 	C 	0.45568 0.15293 0.54112 -0.11800
C 	C 	0.47106 0.19048 0.56443 -0.02800
C 	C 	0.42274 0.17325 0.58272 0.05400
H 	H 	0.52098 0.23315 0.56840 0.02700
N 	N 	0.43881 0.21105 0.60513 -0.19200
H 	H 	0.40217 0.08680 0.49771 0.09900
H 	H 	0.48664 0.25307 0.60869 0.07600
H 	H 	0.40442 0.19889 0.61928 0.08300
C 	C 	0.51251 0.98569 0.92394 -0.03500
C 	C 	0.53728 0.05617 0.93785 -0.10000
C 	C 	0.52103 0.05673 0.96298 0.09800
C 	C 	0.47409 0.98941 0.97291 -0.03000
C 	C 	0.44539 0.92030 0.95852 -0.10000
C 	C 	0.46575 0.91781 0.93389 0.10800
N 	N 	0.43879 0.85196 0.91938 -0.19900
H 	H 	0.52602 0.98501 0.90476 0.03500
N 	N 	0.55069 0.12153 0.97768 -0.19700
H 	H 	0.45503 0.85049 0.90138 0.08000
H 	H 	0.58978 0.17007 0.97138 0.07400
H 	H 	0.53669 0.12262 0.99602 0.07300
C 	C 	0.46669 0.48425 0.93309 -0.04200
C 	C 	0.48492 0.43240 0.94796 -0.09100
C 	C 	0.45768 0.41437 0.97172 0.09700
C 	C 	0.41491 0.45147 0.98050 -0.04200
C 	C 	0.39970 0.50653 0.96610 -0.09800
C 	C 	0.42327 0.52038 0.94175 0.10100
N 	N 	0.40352 0.56719 0.92647 -0.19700
H 	H 	0.48622 0.49638 0.91467 0.04500
N 	N 	0.47362 0.36331 0.98643 -0.20000
H 	H 	0.42312 0.57951 0.90884 0.08000
H 	H 	0.50651 0.33619 0.98080 0.07700
H 	H 	0.45320 0.35045 0.00391 0.07700
C 	C 	0.43103 0.16491 0.84760 -0.12400
C 	C 	0.45818 0.17269 0.82403 -0.02500
N 	N 	0.44419 0.15416 0.78017 -0.19200
H 	H 	0.51228 0.19596 0.82227 0.00800
H 	H 	0.49631 0.17791 0.77858 0.07300
H 	H 	0.12112 0.25088 0.25379 0.00600
H 	H 	0.17087 0.34020 0.26950 0.07200
N 	N 	0.65427 0.54673 0.43853 -0.19600
O 	O 	0.63219 0.27754 0.88259 -0.69900
H 	H 	0.62894 0.30607 0.86746 0.15100
Ni	Ni	0.61796 0.11111 0.51090 1.06700
O 	O 	0.61855 0.11377 0.47351 -0.42200
C 	C 	0.63022 0.90448 0.06599 -0.10300
C 	C 	0.61217 0.87506 0.08963 0.00300
H 	H 	0.64999 0.00389 0.11868 0.04400
H 	H 	0.65121 0.94981 0.02053 0.08500
C 	C 	0.65478 0.89037 0.33354 0.00400
H 	H 	0.64342 0.10816 0.42429 0.08300
H 	H 	0.62732 0.01321 0.41049 0.07900
H 	H 	0.68951 0.52122 0.44307 0.05300
H 	H 	0.66168 0.58064 0.42270 0.07700
O 	O 	0.00919 0.04277 0.17333 -0.39800
O 	O 	0.65423 0.32537 0.92772 -0.70300
H 	H 	0.65538 0.28598 0.93993 0.15300
O 	O 	0.68510 0.45783 0.48634 -0.41400
O 	O 	0.66627 0.22375 0.51437 -0.69900
H 	H 	0.66922 0.24042 0.53198 0.15400
H 	H 	0.68186 0.94115 0.06280 0.05700
C 	C 	0.66407 0.89582 0.10982 -0.00300
C 	C 	0.67698 0.96559 0.12347 -0.09000
H 	H 	0.71002 0.09136 0.15137 0.07900
H 	H 	0.67215 0.00970 0.30282 0.03900
C 	C 	0.65788 0.90468 0.35942 0.05600
H 	H 	0.62553 0.96072 0.59147 0.07400
H 	H 	0.67195 0.54649 0.86174 0.03500
H 	H 	0.65769 0.61065 0.82511 0.07800
Ni	Ni	0.68091 0.42848 0.94414 1.06600
O 	O 	0.70494 0.30589 0.47605 -0.70300
H 	H 	0.69720 0.27774 0.45986 0.15300
H 	H 	0.65525 0.76222 0.08737 0.08600
H 	H 	0.66821 0.04533 0.55791 -0.00200
O 	O 	0.71216 0.18473 0.86964 -0.41800
O 	O 	0.71700 0.43026 0.88568 -0.41000
O 	O 	0.70535 0.08602 0.50965 -0.41700
C 	C 	0.72397 0.98603 0.14336 0.13400
N 	N 	0.73574 0.05435 0.15624 -0.20700
C 	C 	0.71355 0.98857 0.30249 -0.06600
C 	C 	0.71373 0.92809 0.31818 -0.01400
N 	N 	0.71323 0.95859 0.37072 -0.19200
H 	H 	0.71601 0.96662 0.38994 0.08100
H 	H 	0.72642 0.10234 0.27214 0.07700
N 	N 	0.67233 0.95602 0.59494 -0.19200
H 	H 	0.67623 0.91901 0.60896 0.08400
N 	N 	0.70910 0.64358 0.82505 -0.19200
H 	H 	0.72651 0.68433 0.81113 0.08600
Ni	Ni	0.72134 0.33209 0.90186 1.09800
Ni	Ni	0.75616 0.41740 0.47148 1.06700
C 	C 	0.69932 0.84565 0.11590 0.05700
N 	N 	0.68864 0.77829 0.10264 -0.19200
H 	H 	0.72998 0.81300 0.34415 0.08600
C 	C 	0.71697 0.04083 0.56142 -0.02300
H 	H 	0.74437 0.36503 0.83330 0.08600
C 	C 	0.72529 0.58087 0.86186 -0.01700
O 	O 	0.73634 0.51098 0.91993 -0.40800
C 	C 	0.75362 0.24909 0.85985 0.28400
C 	C 	0.74119 0.50015 0.89605 0.32300
Ni	Ni	0.75849 0.26222 0.49854 1.09700
H 	H 	0.77034 0.07156 0.17113 0.08700
C 	C 	0.76620 0.02155 0.28627 0.09000
N 	N 	0.76676 0.08269 0.27211 -0.19700
H 	H 	0.75320 0.99436 0.36057 0.08800
C 	C 	0.72569 0.99572 0.58105 0.05300
C 	C 	0.75132 0.63430 0.84300 0.05400
O 	O 	0.77480 0.31532 0.87281 -0.37000
C 	C 	0.75701 0.12144 0.52470 0.29200
O 	O 	0.78379 0.34935 0.52506 -0.40400
C 	C 	0.75847 0.93526 0.14969 -0.11500
C 	C 	0.74598 0.86580 0.13593 -0.02600
H 	H 	0.71444 0.74131 0.10744 0.07700
C 	C 	0.76912 0.90269 0.31856 0.06700
H 	H 	0.77880 0.12478 0.84194 0.04000
C 	C 	0.76794 0.56848 0.88016 -0.11900
C 	C 	0.78566 0.24402 0.83632 -0.11800
O 	O 	0.76703 0.41652 0.95691 -0.42400
O 	O 	0.81777 0.46076 0.50245 -0.40200
N 	N 	0.77072 0.84399 0.33351 -0.19400
H 	H 	0.80851 0.11353 0.26188 0.08200
C 	C 	0.77013 0.07899 0.54595 -0.12600
H 	H 	0.76834 0.85499 0.56628 0.08800
H 	H 	0.80557 0.53098 0.54981 0.04100
C 	C 	0.79751 0.17539 0.83028 -0.02800
N 	N 	0.78579 0.36961 0.82273 -0.20100
O 	O 	0.79227 0.19641 0.52225 -0.37900
O 	O 	0.78921 0.94303 0.19287 -0.41700
N 	N 	0.79214 0.83488 0.58031 -0.19200
C 	C 	0.80788 0.30881 0.82041 0.12300
H 	H 	0.80012 0.25098 0.75451 0.08000
H 	H 	0.80633 0.41971 0.81221 0.08200
H 	H 	0.81815 0.81276 0.85152 0.08600
H 	H 	0.80033 0.78258 0.57713 0.08100
C 	C 	0.82552 0.42081 0.52163 0.31300
O 	O 	0.83526 0.99382 0.24173 -0.41300
C 	C 	0.80935 0.95563 0.16995 0.29900
H 	H 	0.77299 0.82750 0.14071 0.02500
C 	C 	0.81893 0.99201 0.28539 -0.08400
C 	C 	0.78966 0.99125 0.58585 0.01000
C 	C 	0.80151 0.94596 0.60673 -0.00600
H 	H 	0.82783 0.62705 0.58222 0.08000
H 	H 	0.82185 0.05403 0.81408 0.07800
C 	C 	0.82128 0.67694 0.84276 0.00300
O 	O 	0.81119 0.39573 0.91995 -0.38400
O 	O 	0.83088 0.39071 0.45599 -0.42300
C 	C 	0.82245 0.93739 0.30284 -0.03700
C 	C 	0.81164 0.97941 0.63063 -0.08900
C 	C 	0.80947 0.87333 0.60257 0.06100
H 	H 	0.80231 0.03311 0.63403 0.04500
C 	C 	0.83412 0.17185 0.80944 0.05800
H 	H 	0.81194 0.21695 0.72442 0.07500
N 	N 	0.83753 0.83864 0.83493 -0.19200
H 	H 	0.84119 0.89648 0.83216 0.08100
C 	C 	0.81898 0.42646 0.94271 0.29500
Ni	Ni	0.83805 0.90302 0.22061 1.06400
H 	H 	0.81281 0.82751 0.33422 0.07900
C 	C 	0.85080 0.52074 0.55546 -0.02000
H 	H 	0.82043 0.55990 0.95943 0.07900
N 	N 	0.84134 0.10314 0.80306 -0.19300
N 	N 	0.82901 0.23119 0.74278 -0.19100
C 	C 	0.83734 0.61496 0.88080 0.13200
O 	O 	0.85279 0.30745 0.48382 -0.39200
C 	C 	0.83382 0.07310 0.55042 0.13400
C 	C 	0.83559 0.94521 0.64999 0.11000
C 	C 	0.83619 0.84105 0.62167 -0.02100
H 	H 	0.84690 0.78828 0.61810 0.04400
H 	H 	0.83141 0.02696 0.67672 0.07100
C 	C 	0.86859 0.46420 0.54273 -0.11500
N 	N 	0.87155 0.61763 0.58776 -0.19200
C 	C 	0.85037 0.30806 0.80115 -0.09900
C 	C 	0.85253 0.72041 0.82068 -0.00200
C 	C 	0.85837 0.79924 0.81740 0.05800
O 	O 	0.86415 0.85079 0.25066 -0.41400
C 	C 	0.86279 0.00608 0.26396 0.28100
C 	C 	0.84333 0.03097 0.57079 -0.10900
N 	N 	0.84178 0.97614 0.67332 -0.20500
C 	C 	0.86310 0.23994 0.79536 -0.00300
H 	H 	0.86416 0.09685 0.78674 0.09200
C 	C 	0.86299 0.66982 0.86228 -0.10100
C 	C 	0.87375 0.36888 0.46926 0.29500
C 	C 	0.85347 0.87930 0.64485 -0.10900
H 	H 	0.85436 0.94856 0.68841 0.07300
H 	H 	0.87137 0.35953 0.78999 0.05100
H 	H 	0.86310 0.56342 0.91209 0.10300
O 	O 	0.87028 0.00397 0.16542 -0.38900
H 	H 	0.86469 0.91775 0.30301 0.05700
C 	C 	0.89051 0.56374 0.57557 0.05700
H 	H 	0.89979 0.65077 0.60276 0.09200
C 	C 	0.87717 0.68233 0.80285 -0.09300
H 	H 	0.87423 0.62263 0.80578 0.05200
C 	C 	0.88521 0.83685 0.79553 -0.02300
H 	H 	0.87687 0.79222 0.29940 0.04100
H 	H 	0.87826 0.13033 0.51829 0.09700
N 	N 	0.87129 0.58401 0.96444 -0.20000
H 	H 	0.88703 0.89605 0.79246 0.04900
N 	N 	0.87987 0.60550 0.89859 -0.20600
H 	H 	0.01406 0.48573 0.57525 0.05900
O 	O 	0.88504 0.82946 0.68229 -0.41300
O 	O 	0.89500 0.79684 0.73303 -0.41100
H 	H 	0.88780 0.27200 0.43766 0.08800
N 	N 	0.88523 0.10540 0.53489 -0.20600
C 	C 	0.88822 0.22599 0.75074 0.04800
H 	H 	0.89227 0.02734 0.57457 0.05800
H 	H 	0.91478 0.35790 0.52477 0.10100
C 	C 	0.88809 0.46371 0.95334 -0.09600
H 	H 	0.89020 0.64206 0.97103 0.08100
C 	C 	0.90276 0.86182 0.66083 0.29400
C 	C 	0.91059 0.24190 0.77575 0.00800
C 	C 	0.90773 0.79770 0.77728 -0.10600
C 	C 	0.90669 0.72106 0.78153 0.11300
H 	H 	0.91635 0.70406 0.86232 0.05600
H 	H 	0.90299 0.75708 0.33965 0.07900
C 	C 	0.90666 0.76119 0.29159 -0.01900
C 	C 	0.92778 0.45079 0.55004 0.12700
H 	H 	0.90762 0.18427 0.71535 0.02100
C 	C 	0.92096 0.83721 0.25360 0.29000
H 	H 	0.90050 0.36493 0.12065 0.07700
C 	C 	0.91910 0.76602 0.26625 -0.11200
H 	H 	0.92709 0.73527 0.21894 0.06400
C 	C 	0.91267 0.54251 0.96234 0.10400
H 	H 	0.91339 0.36246 0.94496 0.04500
C 	C 	0.92689 0.83454 0.75317 0.28800
O 	O 	0.92533 0.01072 0.26749 -0.37400
O 	O 	0.92869 0.96197 0.21019 -0.69700
H 	H 	0.91757 0.44942 0.61782 0.08400
C 	C 	0.92661 0.20151 0.73415 -0.01500
H 	H 	0.93091 0.64030 0.89892 0.08600
H 	H 	0.92853 0.55394 0.31431 0.08200
H 	H 	0.93261 0.10293 0.53888 0.08200
N 	N 	0.94572 0.39531 0.53838 -0.20700
N 	N 	0.93563 0.68537 0.76562 -0.20000
H 	H 	0.93203 0.62753 0.76832 0.07100
N 	N 	0.93336 0.72900 0.33223 -0.19200
Ni	Ni	0.94347 0.78082 0.70162 1.06200
Ni	Ni	0.93716 0.06387 0.19307 1.09300
H 	H 	0.93063 0.29277 0.15229 0.04100
C 	C 	0.94582 0.40368 0.46414 -0.09200
H 	H 	0.96305 0.49792 0.49081 0.04700
C 	C 	0.94973 0.55041 0.58283 0.00400
H 	H 	0.92420 0.47011 0.65046 0.07400
C 	C 	0.93235 0.42293 0.95159 -0.04600
C 	C 	0.94040 0.72612 0.30736 0.05900
H 	H 	0.94537 0.92790 0.19999 0.15500
N 	N 	0.95300 0.71043 0.23079 -0.20400
N 	N 	0.93805 0.30243 0.43380 -0.19900
N 	N 	0.93633 0.48963 0.63250 -0.19100
C 	C 	0.95097 0.71811 0.25575 0.12000
O 	O 	0.96159 0.91020 0.75265 -0.37100
O 	O 	0.96187 0.87051 0.65220 -0.37600
O 	O 	0.95169 0.16655 0.17478 -0.39900
N 	N 	0.94602 0.37528 0.11200 -0.19200
C 	C 	0.96848 0.49536 0.56971 -0.10800
H 	H 	0.95672 0.70220 0.34440 0.08600
O 	O 	0.96349 0.05556 0.73179 -0.40300
H 	H 	0.96107 0.06464 0.10526 0.08600
H 	H 	0.95947 0.50721 0.33809 0.07900
C 	C 	0.97516 0.24495 0.78272 -0.11500
H 	H 	0.96477 0.71574 0.75121 0.04200
O 	O 	0.96985 0.74026 0.66947 -0.41600
H 	H 	0.95461 0.40738 0.09580 0.08300
N 	N 	0.96747 0.55494 0.32656 -0.19600
H 	H 	0.96655 0.13009 0.23513 0.15200
C 	C 	0.98536 0.47306 0.47676 -0.05700
H 	H 	0.97881 0.67729 0.22303 0.07700
H 	H 	0.97662 0.00699 0.67604 0.15100
C 	C 	0.97479 0.37059 0.44596 0.09900
H 	H 	0.95988 0.27875 0.42029 0.07800
C 	C 	0.97731 0.56475 0.62865 0.04800
C 	C 	0.98313 0.68072 0.27132 -0.10100
C 	C 	0.98481 0.18948 0.74250 -0.14300
O 	O 	0.97963 0.89528 0.25329 -0.38100
C 	C 	0.97895 0.30587 0.14391 -0.02500
C 	C 	0.98341 0.69099 0.29708 -0.00300
C 	C 	0.98137 0.57919 0.96866 -0.05900
H 	H 	0.99401 0.26217 0.80153 0.05900
C 	C 	0.99182 0.59290 0.60440 -0.00400
H 	H 	0.99062 0.38777 0.54337 0.08400
Ni	Ni	0.99240 0.96701 0.72018 1.09600
H 	H 	0.98259 0.11776 0.13417 0.10000
Ni	Ni	0.98875 0.00187 0.24029 1.09500
H 	H 	0.98878 0.59700 0.66748 0.01900
O 	O 	0.99075 0.10442 0.22484 -0.70400
N 	N 	0.99380 0.08363 0.12068 -0.20700
