data_crystal

_cell_length_a 36.20632
_cell_length_b 36.21275
_cell_length_c 27.62675
_cell_angle_alpha 89.98494
_cell_angle_beta  89.98626
_cell_angle_gamma 90.18566

_symmetry_space_group_name_	'P 1'
_symmetry_space_group_name_H-M	'P 1'

loop_
_symmetry_equiv_pos_as_xyz
  x,y,z

loop_
_atom_site_label
_atom_site_type_symbol
_atom_site_fract_x
_atom_site_fract_y
_atom_site_fract_z
_atom_site_charge
C 	C 	0.72484 0.93724 0.31170 0.29100
C 	C 	0.73425 0.83688 0.48515 0.30800
C 	C 	0.77708 0.94625 0.42211 0.30500
C 	C 	0.67604 0.82562 0.37299 0.28400
C 	C 	0.83503 0.84364 0.40086 0.30800
C 	C 	0.77736 0.82179 0.28414 0.28800
Ni	Ni	0.71489 0.89367 0.40877 1.11200
Ni	Ni	0.75838 0.81708 0.38761 1.11900
Ni	Ni	0.78848 0.89198 0.34155 1.12100
O 	O 	0.71077 0.93596 0.35652 -0.37100
O 	O 	0.75028 0.91355 0.29647 -0.38500
O 	O 	0.81423 0.81614 0.38535 -0.38700
O 	O 	0.70833 0.85887 0.46865 -0.37300
O 	O 	0.76315 0.82933 0.45859 -0.39300
O 	O 	0.80053 0.84897 0.29633 -0.38100
O 	O 	0.75643 0.92196 0.44472 -0.38000
O 	O 	0.78530 0.94172 0.37605 -0.38200
O 	O 	0.75786 0.80361 0.31721 -0.38600
O 	O 	0.67321 0.86193 0.37835 -0.37000
O 	O 	0.70278 0.80657 0.39477 -0.37600
O 	O 	0.82652 0.87801 0.39079 -0.39000
O 	O 	0.74821 0.86676 0.37068 -0.71800
H 	H 	0.73286 0.86251 0.34178 0.15600
C 	C 	0.77371 0.57366 0.80608 0.29100
C 	C 	0.76716 0.66773 0.98554 0.30600
C 	C 	0.72537 0.56042 0.91973 0.30600
C 	C 	0.82127 0.68477 0.87072 0.28600
C 	C 	0.66381 0.66150 0.90591 0.31000
C 	C 	0.71721 0.68837 0.78824 0.28800
Ni	Ni	0.78588 0.61450 0.90480 1.11300
Ni	Ni	0.73943 0.69025 0.89074 1.12000
Ni	Ni	0.70995 0.61607 0.84233 1.12100
O 	O 	0.78906 0.57371 0.85024 -0.37100
O 	O 	0.74700 0.59698 0.79387 -0.38700
O 	O 	0.68362 0.68991 0.89109 -0.38800
O 	O 	0.79355 0.64793 0.96584 -0.37200
O 	O 	0.73721 0.67528 0.96110 -0.39100
O 	O 	0.69538 0.65994 0.79991 -0.38000
O 	O 	0.74624 0.58460 0.94202 -0.38100
O 	O 	0.71579 0.56560 0.87428 -0.38200
O 	O 	0.73718 0.70606 0.82131 -0.38700
O 	O 	0.82535 0.64841 0.87345 -0.37100
O 	O 	0.79488 0.70213 0.89544 -0.37800
O 	O 	0.67322 0.62765 0.89434 -0.39100
O 	O 	0.75051 0.64157 0.87020 -0.71800
H 	H 	0.76465 0.64719 0.84063 0.15700
C 	C 	0.16163 0.68402 0.66057 0.28600
C 	C 	0.06544 0.80330 0.59494 0.30700
C 	C 	0.17101 0.74296 0.55023 0.31100
C 	C 	0.05635 0.74989 0.70731 0.29000
C 	C 	0.17329 0.84444 0.63450 0.31100
C 	C 	0.17490 0.78587 0.75203 0.29000
Ni	Ni	0.10484 0.73395 0.61614 1.11300
Ni	Ni	0.11251 0.80667 0.68397 1.12000
Ni	Ni	0.18497 0.76445 0.65014 1.12000
O 	O 	0.12587 0.68818 0.65132 -0.37500
O 	O 	0.18683 0.70781 0.64365 -0.37700
O 	O 	0.13729 0.84097 0.63741 -0.39000
O 	O 	0.08885 0.77965 0.57674 -0.38100
O 	O 	0.06642 0.81118 0.64149 -0.37900
O 	O 	0.19124 0.76234 0.72208 -0.38900
O 	O 	0.14334 0.72116 0.56204 -0.37200
O 	O 	0.17987 0.77077 0.57800 -0.39200
O 	O 	0.15254 0.81248 0.73586 -0.38100
O 	O 	0.05791 0.73822 0.66134 -0.37000
O 	O 	0.08109 0.77326 0.72560 -0.38500
O 	O 	0.19534 0.81936 0.65330 -0.38700
O 	O 	0.13315 0.76243 0.65911 -0.71800
H 	H 	0.13206 0.74684 0.68830 0.16000
C 	C 	0.33507 0.82375 0.16027 0.28500
C 	C 	0.43289 0.70497 0.09707 0.30700
C 	C 	0.32747 0.76577 0.04915 0.31000
C 	C 	0.43990 0.76002 0.20942 0.28900
C 	C 	0.32665 0.66471 0.13001 0.30900
C 	C 	0.32145 0.72256 0.25100 0.28900
Ni	Ni	0.39296 0.77457 0.11654 1.11200
Ni	Ni	0.38503 0.70208 0.18518 1.12100
Ni	Ni	0.31253 0.74334 0.14853 1.11900
O 	O 	0.37091 0.82028 0.15095 -0.37400
O 	O 	0.31024 0.79996 0.14250 -0.37700
O 	O 	0.36217 0.66573 0.13948 -0.38900
O 	O 	0.41020 0.72891 0.07781 -0.38200
O 	O 	0.43167 0.69820 0.14390 -0.38000
O 	O 	0.30465 0.74515 0.22025 -0.38900
O 	O 	0.35536 0.78721 0.06122 -0.37100
O 	O 	0.31847 0.73769 0.07639 -0.39300
O 	O 	0.34421 0.69603 0.23576 -0.38000
O 	O 	0.43915 0.77087 0.16307 -0.37000
O 	O 	0.41531 0.73626 0.22732 -0.38400
O 	O 	0.30386 0.68824 0.15056 -0.38800
O 	O 	0.36416 0.74575 0.15869 -0.71800
H 	H 	0.36455 0.76146 0.18778 0.15700
C 	C 	0.23131 0.06960 0.44096 0.29100
C 	C 	0.22704 0.16944 0.26722 0.30800
C 	C 	0.27755 0.06364 0.32341 0.30900
C 	C 	0.17478 0.17767 0.38607 0.28600
C 	C 	0.33265 0.16930 0.34355 0.31100
C 	C 	0.28066 0.18661 0.46355 0.28800
Ni	Ni	0.21399 0.11211 0.34506 1.11300
Ni	Ni	0.25514 0.19083 0.36254 1.12000
Ni	Ni	0.29134 0.11733 0.40388 1.12000
O 	O 	0.21581 0.06913 0.39690 -0.37000
O 	O 	0.25748 0.09371 0.45300 -0.38700
O 	O 	0.31079 0.19553 0.35986 -0.38700
O 	O 	0.20238 0.14733 0.28689 -0.37000
O 	O 	0.25673 0.17893 0.29114 -0.38900
O 	O 	0.30410 0.16057 0.44863 -0.38000
O 	O 	0.25459 0.08720 0.30397 -0.38100
O 	O 	0.28830 0.06774 0.36864 -0.38100
O 	O 	0.25815 0.20372 0.43297 -0.38500
O 	O 	0.17302 0.14130 0.38048 -0.37200
O 	O 	0.19886 0.19811 0.36109 -0.37800
O 	O 	0.32459 0.13437 0.35054 -0.39300
O 	O 	0.24821 0.14057 0.38000 -0.71700
H 	H 	0.23461 0.14381 0.41057 0.15700
C 	C 	0.26538 0.44081 0.93408 0.29200
C 	C 	0.26247 0.33444 0.76668 0.30900
C 	C 	0.21284 0.44200 0.82250 0.30700
C 	C 	0.32221 0.33121 0.87803 0.28500
C 	C 	0.16139 0.33638 0.85159 0.30900
C 	C 	0.21955 0.32286 0.96852 0.28600
Ni	Ni	0.27804 0.39489 0.83961 1.11300
Ni	Ni	0.23994 0.31632 0.86564 1.12000
Ni	Ni	0.20465 0.39039 0.90669 1.12000
O 	O 	0.27853 0.43955 0.88878 -0.37100
O 	O 	0.24094 0.41641 0.95062 -0.38500
O 	O 	0.18425 0.31102 0.86802 -0.38600
O 	O 	0.28723 0.35824 0.78229 -0.37400
O 	O 	0.23430 0.32539 0.79389 -0.39200
O 	O 	0.19509 0.34831 0.95465 -0.38100
O 	O 	0.23442 0.41770 0.80193 -0.38200
O 	O 	0.20448 0.43889 0.86875 -0.38100
O 	O 	0.24116 0.30573 0.93686 -0.38700
O 	O 	0.32145 0.36765 0.87251 -0.37300
O 	O 	0.29618 0.30944 0.85880 -0.37600
O 	O 	0.16825 0.37162 0.85805 -0.39000
O 	O 	0.24674 0.36711 0.87963 -0.71900
H 	H 	0.26225 0.36507 0.90879 0.15900
C 	C 	0.83047 0.18811 0.58347 0.28500
C 	C 	0.92922 0.30110 0.66044 0.30600
C 	C 	0.81822 0.24563 0.69605 0.31000
C 	C 	0.94080 0.24891 0.54928 0.29100
C 	C 	0.82465 0.34801 0.61209 0.31000
C 	C 	0.82667 0.28906 0.49459 0.28900
Ni	Ni	0.88684 0.23414 0.63536 1.11300
Ni	Ni	0.88606 0.30768 0.56801 1.12000
Ni	Ni	0.80999 0.26844 0.59532 1.12000
O 	O 	0.86542 0.18939 0.59793 -0.37100
O 	O 	0.80553 0.21191 0.60037 -0.37700
O 	O 	0.86050 0.34283 0.61258 -0.38900
O 	O 	0.90337 0.27890 0.67637 -0.38100
O 	O 	0.93019 0.31035 0.61427 -0.37900
O 	O 	0.80700 0.26691 0.52301 -0.38700
O 	O 	0.84517 0.22271 0.68576 -0.37200
O 	O 	0.81152 0.27386 0.66793 -0.39200
O 	O 	0.84905 0.31500 0.51277 -0.38100
O 	O 	0.93606 0.23663 0.59456 -0.37200
O 	O 	0.91801 0.27309 0.52894 -0.38400
O 	O 	0.80227 0.32374 0.59182 -0.38600
O 	O 	0.86209 0.26434 0.59078 -0.71700
H 	H 	0.86393 0.24898 0.56147 0.15600
C 	C 	0.67258 0.32127 0.08243 0.28800
C 	C 	0.56401 0.21569 0.15473 0.30600
C 	C 	0.67634 0.26623 0.19741 0.31000
C 	C 	0.55987 0.26845 0.04142 0.28800
C 	C 	0.66493 0.16337 0.11854 0.30900
C 	C 	0.67261 0.22076 0.99678 0.28200
Ni	Ni	0.61084 0.28055 0.13153 1.11300
Ni	Ni	0.60953 0.20633 0.06527 1.12100
Ni	Ni	0.68696 0.24030 0.09847 1.12000
O 	O 	0.63720 0.32307 0.09488 -0.37100
O 	O 	0.69511 0.29640 0.10210 -0.37800
O 	O 	0.62949 0.16859 0.11114 -0.39000
O 	O 	0.58929 0.23781 0.17249 -0.38100
O 	O 	0.56368 0.20783 0.10818 -0.38100
O 	O 	0.69390 0.24020 0.02654 -0.38300
O 	O 	0.65073 0.29014 0.18512 -0.37000
O 	O 	0.68200 0.23684 0.17102 -0.39200
O 	O 	0.64835 0.19604 0.01340 -0.37800
O 	O 	0.56350 0.28110 0.08675 -0.37000
O 	O 	0.58222 0.24285 0.02333 -0.38500
O 	O 	0.68978 0.18461 0.09744 -0.38800
O 	O 	0.63557 0.24786 0.08993 -0.71600
H 	H 	0.63624 0.26291 0.06028 0.15400
C 	C 	0.78161 0.21479 0.81763 -0.06500
C 	C 	0.74418 0.22439 0.81365 0.02200
C 	C 	0.73087 0.23922 0.77017 -0.06600
C 	C 	0.75498 0.24569 0.73161 0.01900
C 	C 	0.79267 0.23721 0.73606 -0.09200
C 	C 	0.80575 0.22108 0.77892 0.02000
C 	C 	0.71989 0.22240 0.85641 0.01800
H 	H 	0.70198 0.24644 0.76663 0.04600
H 	H 	0.74439 0.25745 0.69834 0.02300
H 	H 	0.83472 0.21427 0.78272 0.03300
H 	H 	0.79218 0.20343 0.85114 0.04700
C 	C 	0.71329 0.18845 0.87941 -0.06200
C 	C 	0.69457 0.18738 0.92370 0.01300
C 	C 	0.68256 0.22029 0.94535 -0.08100
C 	C 	0.68685 0.25386 0.92060 0.01200
C 	C 	0.70547 0.25493 0.87637 -0.06100
H 	H 	0.72378 0.16310 0.86384 0.04600
H 	H 	0.69129 0.16129 0.94243 0.03600
H 	H 	0.67741 0.27938 0.93686 0.02900
H 	H 	0.71008 0.28123 0.85862 0.04600
C 	C 	0.79368 0.25752 0.37301 -0.06000
C 	C 	0.77666 0.28972 0.35581 0.01900
C 	C 	0.78175 0.32313 0.38074 -0.06100
C 	C 	0.80155 0.32377 0.42427 0.01400
C 	C 	0.81619 0.29096 0.44328 -0.08100
C 	C 	0.81343 0.25817 0.41644 0.01300
C 	C 	0.75165 0.28780 0.31361 0.02200
H 	H 	0.76933 0.34830 0.36728 0.04600
H 	H 	0.80359 0.34929 0.44458 0.03700
H 	H 	0.82486 0.23274 0.43061 0.03100
H 	H 	0.79029 0.23165 0.35378 0.04600
C 	C 	0.76470 0.27443 0.26916 -0.06500
C 	C 	0.74016 0.26798 0.23104 0.02000
C 	C 	0.70230 0.27508 0.23684 -0.09100
C 	C 	0.68941 0.28991 0.28060 0.01900
C 	C 	0.71396 0.29609 0.31893 -0.06400
H 	H 	0.79376 0.26831 0.26449 0.04600
H 	H 	0.75054 0.25726 0.19707 0.02200
H 	H 	0.66030 0.29571 0.28539 0.03200
H 	H 	0.70356 0.30635 0.35314 0.04700
C 	C 	0.39045 0.28026 0.95581 -0.06100
C 	C 	0.42398 0.29460 0.93817 0.02100
C 	C 	0.42391 0.31720 0.89692 -0.06300
C 	C 	0.39058 0.32693 0.87504 0.01500
C 	C 	0.35692 0.31453 0.89448 -0.07900
C 	C 	0.35701 0.29025 0.93403 0.00900
C 	C 	0.45885 0.28798 0.96458 0.01400
H 	H 	0.44960 0.32822 0.88279 0.04600
H 	H 	0.39081 0.34527 0.84404 0.03400
H 	H 	0.33119 0.28042 0.94920 0.03100
H 	H 	0.39023 0.26226 0.98713 0.04400
C 	C 	0.46208 0.29829 0.01336 -0.05600
C 	C 	0.49539 0.29320 0.03800 0.00800
C 	C 	0.52602 0.27788 0.01402 -0.07500
C 	C 	0.52299 0.26851 0.96476 0.00400
C 	C 	0.48951 0.27322 0.94035 -0.05800
H 	H 	0.43878 0.31034 0.03217 0.04500
H 	H 	0.49712 0.30055 0.07592 0.03800
H 	H 	0.54641 0.25714 0.94551 0.03800
H 	H 	0.48739 0.26540 0.90260 0.04400
C 	C 	0.06088 0.33940 0.81771 -0.06400
C 	C 	0.05990 0.31498 0.77834 0.02100
C 	C 	0.09153 0.29441 0.76663 -0.06300
C 	C 	0.12433 0.29962 0.79266 0.01700
C 	C 	0.12570 0.32538 0.83056 -0.08800
C 	C 	0.09353 0.34444 0.84381 0.01900
C 	C 	0.02626 0.31216 0.74823 0.01900
H 	H 	0.09092 0.27505 0.73675 0.04500
H 	H 	0.14899 0.28479 0.78207 0.03200
H 	H 	0.09417 0.36408 0.87338 0.03000
H 	H 	0.03661 0.35524 0.82726 0.04700
C 	C 	0.99226 0.30295 0.76952 -0.06200
C 	C 	0.96023 0.30131 0.74135 0.01200
C 	C 	0.96191 0.30826 0.69130 -0.08800
C 	C 	0.99586 0.31838 0.67026 0.01400
C 	C 	0.02782 0.32030 0.69859 -0.06300
H 	H 	0.99069 0.29693 0.80788 0.04500
H 	H 	0.93423 0.29401 0.75830 0.03700
H 	H 	0.99772 0.32397 0.63183 0.03700
H 	H 	0.05380 0.32810 0.68196 0.04600
C 	C 	0.46502 0.19760 0.19064 -0.06300
C 	C 	0.46762 0.19806 0.24128 0.01900
C 	C 	0.50227 0.20217 0.26341 -0.06300
C 	C 	0.53400 0.20635 0.23512 0.01300
C 	C 	0.53132 0.20682 0.18439 -0.08900
C 	C 	0.49666 0.20202 0.16232 0.01500
C 	C 	0.43426 0.19283 0.27106 0.02200
H 	H 	0.50457 0.20229 0.30251 0.04600
H 	H 	0.56058 0.20967 0.25262 0.03700
H 	H 	0.49409 0.20259 0.12326 0.03900
H 	H 	0.43844 0.19390 0.17325 0.04700
C 	C 	0.40437 0.21723 0.26665 -0.06400
C 	C 	0.37150 0.21034 0.29172 0.01800
C 	C 	0.36834 0.17904 0.32143 -0.08900
C 	C 	0.39881 0.15555 0.32732 0.01900
C 	C 	0.43153 0.16234 0.30212 -0.06400
H 	H 	0.40639 0.24109 0.24313 0.04600
H 	H 	0.34822 0.22870 0.28693 0.03300
H 	H 	0.39693 0.13167 0.35083 0.03100
H 	H 	0.45449 0.14345 0.30590 0.04600
C 	C 	0.04339 0.24278 0.52880 -0.06300
C 	C 	0.04489 0.23088 0.48052 0.02000
C 	C 	0.01196 0.22555 0.45452 -0.06200
C 	C 	0.97785 0.23140 0.47697 0.01200
C 	C 	0.97643 0.24211 0.52571 -0.08200
C 	C 	0.00934 0.24808 0.55139 0.01400
C 	C 	0.08063 0.22057 0.45884 0.02000
H 	H 	0.01279 0.21614 0.41731 0.04600
H 	H 	0.95257 0.22710 0.45672 0.03200
H 	H 	0.00853 0.25708 0.58878 0.03500
H 	H 	0.06863 0.24731 0.54904 0.04500
C 	C 	0.09232 0.23667 0.41515 -0.06200
C 	C 	0.12460 0.22431 0.39256 0.01400
C 	C 	0.14533 0.19582 0.41357 -0.08300
C 	C 	0.13466 0.18121 0.45848 0.01400
C 	C 	0.10240 0.19336 0.48087 -0.06100
H 	H 	0.07598 0.25809 0.39821 0.04600
H 	H 	0.13261 0.23580 0.35789 0.03500
H 	H 	0.15073 0.15946 0.47520 0.03100
H 	H 	0.09372 0.18088 0.51468 0.04600
C 	C 	0.18191 0.26618 0.07145 -0.06000
C 	C 	0.21383 0.26124 0.09957 0.01900
C 	C 	0.24619 0.28075 0.08772 -0.06000
C 	C 	0.24734 0.30301 0.04638 0.01100
C 	C 	0.21598 0.30654 0.01699 -0.07700
C 	C 	0.18294 0.28894 0.03050 0.01300
C 	C 	0.21400 0.23428 0.13990 0.02100
H 	H 	0.27075 0.27785 0.10978 0.04500
H 	H 	0.27296 0.31653 0.03631 0.03100
H 	H 	0.15859 0.29137 0.00794 0.03800
H 	H 	0.15672 0.25147 0.08037 0.04600
C 	C 	0.18836 0.23731 0.17784 -0.06300
C 	C 	0.19078 0.21388 0.21804 0.01400
C 	C 	0.21912 0.18762 0.22089 -0.09000
C 	C 	0.24366 0.18347 0.18201 0.01700
C 	C 	0.24091 0.20644 0.14150 -0.06300
H 	H 	0.16734 0.25851 0.17692 0.04600
H 	H 	0.17179 0.21739 0.24800 0.03400
H 	H 	0.26559 0.16323 0.18385 0.03500
H 	H 	0.26030 0.20326 0.11193 0.04700
C 	C 	0.26726 0.21038 0.59464 -0.06000
C 	C 	0.28455 0.24514 0.59683 0.01900
C 	C 	0.30473 0.25801 0.55684 -0.06100
C 	C 	0.30582 0.23732 0.51414 0.01500
C 	C 	0.28668 0.20365 0.51103 -0.07900
C 	C 	0.26825 0.18977 0.55181 0.01000
C 	C 	0.27910 0.26921 0.63941 0.02100
H 	H 	0.31837 0.28466 0.55821 0.04600
H 	H 	0.32017 0.24822 0.48280 0.03400
H 	H 	0.25341 0.16378 0.54973 0.03000
H 	H 	0.25209 0.19991 0.62557 0.04500
C 	C 	0.24336 0.28009 0.65283 -0.06400
C 	C 	0.23806 0.30262 0.69330 0.01500
C 	C 	0.26847 0.31466 0.72070 -0.09100
C 	C 	0.30432 0.30460 0.70649 0.01600
C 	C 	0.30960 0.28191 0.66609 -0.06400
H 	H 	0.21968 0.27098 0.63198 0.04600
H 	H 	0.21028 0.31037 0.70368 0.03600
H 	H 	0.32800 0.31343 0.72753 0.03700
H 	H 	0.33731 0.27382 0.65590 0.04600
C 	C 	0.28761 0.89257 0.24143 -0.06000
C 	C 	0.30506 0.92552 0.22726 0.01900
C 	C 	0.33007 0.92531 0.18857 -0.06100
C 	C 	0.33853 0.89224 0.16516 0.01500
C 	C 	0.32216 0.85899 0.18039 -0.07900
C 	C 	0.29613 0.85937 0.21804 0.00900
C 	C 	0.29752 0.96020 0.25318 0.02100
H 	H 	0.34327 0.95072 0.17699 0.04700
H 	H 	0.35827 0.89234 0.13569 0.03600
H 	H 	0.28342 0.83387 0.23017 0.03300
H 	H 	0.26801 0.89257 0.27108 0.04600
C 	C 	0.26428 0.97896 0.24533 -0.06300
C 	C 	0.25800 0.01298 0.26767 0.01700
C 	C 	0.28491 0.02850 0.29828 -0.08800
C 	C 	0.31811 0.00955 0.30633 0.01800
C 	C 	0.32442 0.97558 0.28376 -0.06300
H 	H 	0.24345 0.96733 0.22162 0.04700
H 	H 	0.23203 0.02703 0.26166 0.02800
H 	H 	0.33909 0.02121 0.32980 0.03300
H 	H 	0.35027 0.96130 0.28982 0.04700
C 	C 	0.27113 0.58325 0.08518 -0.06100
C 	C 	0.29187 0.57285 0.04444 0.01800
C 	C 	0.32211 0.59448 0.02998 -0.05700
C 	C 	0.33218 0.62563 0.05665 0.01600
C 	C 	0.31233 0.63537 0.09834 -0.08600
C 	C 	0.28130 0.61448 0.11203 0.01500
C 	C 	0.28237 0.53909 0.01717 0.02500
H 	H 	0.33820 0.58677 0.99852 0.04400
H 	H 	0.35597 0.64178 0.04554 0.04000
H 	H 	0.26581 0.62170 0.14419 0.03500
H 	H 	0.24747 0.56695 0.09632 0.04600
C 	C 	0.28433 0.50436 0.03965 -0.06400
C 	C 	0.27899 0.47215 0.01251 0.01800
C 	C 	0.27204 0.47445 0.96263 -0.08700
C 	C 	0.26946 0.50921 0.94039 0.01600
C 	C 	0.27441 0.54134 0.96757 -0.06800
H 	H 	0.29064 0.50231 0.07789 0.04700
H 	H 	0.28068 0.44547 0.03011 0.03300
H 	H 	0.26321 0.51133 0.90214 0.03500
H 	H 	0.27255 0.56801 0.94996 0.04600
C 	C 	0.18371 0.98970 0.50339 -0.06000
C 	C 	0.21252 0.97571 0.53196 0.01900
C 	C 	0.24702 0.99330 0.53182 -0.06200
C 	C 	0.25286 0.02448 0.50301 0.01400
C 	C 	0.22420 0.03834 0.47392 -0.08100
C 	C 	0.18954 0.02087 0.47443 0.01200
C 	C 	0.20636 0.94287 0.56240 0.02200
H 	H 	0.26934 0.98276 0.55392 0.04600
H 	H 	0.27988 0.03741 0.50257 0.03200
H 	H 	0.16717 0.03134 0.45236 0.03400
H 	H 	0.15691 0.97630 0.50343 0.04700
C 	C 	0.18207 0.94468 0.60181 -0.06400
C 	C 	0.17337 0.91277 0.62783 0.02000
C 	C 	0.18879 0.87871 0.61455 -0.08900
C 	C 	0.21480 0.87729 0.57697 0.01800
C 	C 	0.22353 0.90929 0.55088 -0.06300
H 	H 	0.16923 0.97063 0.61149 0.04700
H 	H 	0.15362 0.91424 0.65724 0.02900
H 	H 	0.22689 0.85115 0.56647 0.03300
H 	H 	0.24267 0.90775 0.52081 0.04700
C 	C 	0.22559 0.82153 0.86140 -0.06100
C 	C 	0.23118 0.78864 0.88721 0.01800
C 	C 	0.21418 0.75591 0.87145 -0.06100
C 	C 	0.19327 0.75567 0.82895 0.01200
C 	C 	0.18908 0.78814 0.80181 -0.08100
C 	C 	0.20447 0.82132 0.81895 0.01300
C 	C 	0.25554 0.78809 0.93003 0.02300
H 	H 	0.21806 0.73045 0.89139 0.04600
H 	H 	0.18149 0.72993 0.81611 0.03100
H 	H 	0.20158 0.84654 0.79820 0.03700
H 	H 	0.23822 0.84703 0.87365 0.04600
C 	C 	0.29387 0.79266 0.92461 -0.06400
C 	C 	0.31747 0.78688 0.96407 0.01600
C 	C 	0.30286 0.77633 0.00906 -0.09000
C 	C 	0.26441 0.77353 0.01491 0.02400
C 	C 	0.24090 0.77940 0.97561 -0.06900
H 	H 	0.30544 0.79947 0.88954 0.04700
H 	H 	0.34707 0.78936 0.95920 0.03200
H 	H 	0.25279 0.76614 0.04975 0.02100
H 	H 	0.21134 0.77621 0.98026 0.04700
C 	C 	0.25719 0.73199 0.47510 -0.06600
C 	C 	0.24240 0.72159 0.43024 0.02200
C 	C 	0.20424 0.71527 0.42584 -0.06500
C 	C 	0.18090 0.72091 0.46557 0.02000
C 	C 	0.19557 0.73307 0.50981 -0.09200
C 	C 	0.23392 0.73772 0.51467 0.02100
C 	C 	0.26624 0.72101 0.38699 0.01900
H 	H 	0.19258 0.70715 0.39133 0.04700
H 	H 	0.15138 0.71700 0.46148 0.03200
H 	H 	0.24565 0.74635 0.54895 0.02100
H 	H 	0.28664 0.73657 0.47894 0.04700
C 	C 	0.28148 0.75403 0.36934 -0.06100
C 	C 	0.30195 0.75406 0.32649 0.01300
C 	C 	0.30741 0.72108 0.30087 -0.08100
C 	C 	0.29374 0.68772 0.31983 0.01300
C 	C 	0.27309 0.68772 0.36267 -0.06100
H 	H 	0.27660 0.77981 0.38814 0.04600
H 	H 	0.31243 0.77994 0.31223 0.03100
H 	H 	0.29764 0.66210 0.30028 0.03700
H 	H 	0.26180 0.66203 0.37638 0.04600
C 	C 	0.20912 0.61234 0.73742 -0.06000
C 	C 	0.19007 0.58019 0.72343 0.01900
C 	C 	0.16398 0.58193 0.68601 -0.06100
C 	C 	0.15615 0.61560 0.66377 0.01500
C 	C 	0.17399 0.64805 0.67910 -0.07900
C 	C 	0.20106 0.64618 0.71534 0.00900
C 	C 	0.19643 0.54494 0.74899 0.02000
H 	H 	0.14920 0.55730 0.67484 0.04600
H 	H 	0.13562 0.61662 0.63528 0.03600
H 	H 	0.21500 0.67104 0.72743 0.03200
H 	H 	0.22967 0.61121 0.76587 0.04500
C 	C 	0.20628 0.51325 0.72284 -0.06300
C 	C 	0.21011 0.47937 0.74649 0.01300
C 	C 	0.20479 0.47690 0.79680 -0.08800
C 	C 	0.19468 0.50866 0.82290 0.01400
C 	C 	0.19046 0.54245 0.79907 -0.06300
H 	H 	0.21082 0.51486 0.68412 0.04600
H 	H 	0.21757 0.45514 0.72575 0.03800
H 	H 	0.19064 0.50736 0.86171 0.03700
H 	H 	0.18235 0.56664 0.81949 0.04600
C 	C 	0.59181 0.70293 0.98852 -0.06600
C 	C 	0.56319 0.67683 0.98469 0.01700
C 	C 	0.56714 0.64656 0.95354 -0.06200
C 	C 	0.59962 0.64207 0.92693 0.01700
C 	C 	0.62861 0.66776 0.93140 -0.08800
C 	C 	0.62441 0.69839 0.96203 0.01800
C 	C 	0.52926 0.68101 0.01368 0.02900
H 	H 	0.54517 0.62632 0.95028 0.04600
H 	H 	0.60230 0.61853 0.90301 0.03400
H 	H 	0.64660 0.71829 0.96603 0.03200
H 	H 	0.58888 0.72657 0.01223 0.04800
C 	C 	0.53118 0.68127 0.06438 -0.06700
C 	C 	0.49932 0.68713 0.09184 0.01900
C 	C 	0.46518 0.69278 0.06880 -0.09300
C 	C 	0.46306 0.69080 0.01809 0.02400
C 	C 	0.49498 0.68510 0.99067 -0.07400
H 	H 	0.55745 0.67752 0.08248 0.04800
H 	H 	0.50143 0.68857 0.13091 0.03800
H 	H 	0.43683 0.69453 0.99988 0.03100
H 	H 	0.49318 0.68455 0.95152 0.04800
C 	C 	0.88603 0.72157 0.77712 -0.06000
C 	C 	0.91788 0.72716 0.80512 0.02000
C 	C 	0.91564 0.72513 0.85576 -0.06200
C 	C 	0.88247 0.71484 0.87795 0.01600
C 	C 	0.85143 0.70634 0.84965 -0.08100
C 	C 	0.85292 0.71116 0.79934 0.01100
C 	C 	0.95398 0.73247 0.78137 0.02000
H 	H 	0.93996 0.72991 0.87774 0.04600
H 	H 	0.88150 0.71134 0.91689 0.03200
H 	H 	0.82898 0.70486 0.77724 0.03000
H 	H 	0.88730 0.72389 0.73805 0.04500
C 	C 	0.96840 0.70476 0.75133 -0.06200
C 	C 	0.00239 0.70994 0.72826 0.01300
C 	C 	0.02233 0.74283 0.73516 -0.08100
C 	C 	0.00818 0.77020 0.76607 0.01400
C 	C 	0.97417 0.76503 0.78900 -0.06300
H 	H 	0.95321 0.67929 0.74577 0.04700
H 	H 	0.01310 0.68851 0.70483 0.03300
H 	H 	0.02306 0.79589 0.77135 0.03300
H 	H 	0.96328 0.78652 0.81220 0.04500
C 	C 	0.77789 0.51484 0.69315 -0.06200
C 	C 	0.78850 0.48063 0.71246 0.01900
C 	C 	0.79657 0.47769 0.76196 -0.06200
C 	C 	0.79330 0.50845 0.79214 0.01200
C 	C 	0.78186 0.54258 0.77315 -0.08100
C 	C 	0.77467 0.54570 0.72331 0.01100
C 	C 	0.79292 0.44826 0.68054 0.02100
H 	H 	0.80535 0.45154 0.77706 0.04700
H 	H 	0.79874 0.50547 0.83049 0.03600
H 	H 	0.76618 0.57189 0.70803 0.03500
H 	H 	0.77198 0.51748 0.65486 0.04500
C 	C 	0.77284 0.41570 0.68958 -0.06300
C 	C 	0.78131 0.38326 0.66445 0.01800
C 	C 	0.80995 0.38316 0.63024 -0.08800
C 	C 	0.82817 0.41633 0.61884 0.01900
C 	C 	0.81974 0.44870 0.64393 -0.06400
H 	H 	0.75164 0.41523 0.71726 0.04600
H 	H 	0.76692 0.35786 0.67332 0.03200
H 	H 	0.84992 0.41667 0.59189 0.02900
H 	H 	0.83513 0.47375 0.63632 0.04700
C 	C 	0.67952 0.39401 0.98634 -0.07400
C 	C 	0.70725 0.41690 0.00542 0.03200
C 	C 	0.72687 0.40561 0.04667 -0.06800
C 	C 	0.71727 0.37278 0.07029 0.01900
C 	C 	0.68800 0.35110 0.05276 -0.08800
C 	C 	0.67005 0.36122 0.00982 0.02500
C 	C 	0.71387 0.45367 0.98413 0.00800
H 	H 	0.74877 0.42279 0.06120 0.04800
H 	H 	0.73143 0.36509 0.10332 0.03500
H 	H 	0.64775 0.34434 0.99568 0.02500
H 	H 	0.66442 0.40231 0.95430 0.04900
C 	C 	0.72273 0.45700 0.93488 -0.05800
C 	C 	0.72564 0.49187 0.91361 0.01100
C 	C 	0.72015 0.52378 0.94154 -0.08500
C 	C 	0.71190 0.52049 0.99097 0.00500
C 	C 	0.70858 0.48557 0.01213 -0.05000
H 	H 	0.72703 0.43255 0.91302 0.04300
H 	H 	0.73266 0.49410 0.87560 0.03700
H 	H 	0.70777 0.54494 0.01288 0.04100
H 	H 	0.70136 0.48329 0.05008 0.04500
C 	C 	0.60945 0.78905 0.28095 -0.06000
C 	C 	0.57722 0.78595 0.30895 0.01900
C 	C 	0.57923 0.79046 0.35933 -0.06200
C 	C 	0.61270 0.80027 0.38112 0.01600
C 	C 	0.64438 0.80571 0.35271 -0.08000
C 	C 	0.64291 0.79890 0.30279 0.01000
C 	C 	0.54113 0.78015 0.28526 0.02000
H 	H 	0.55459 0.78773 0.38133 0.04600
H 	H 	0.61360 0.80546 0.41973 0.03300
H 	H 	0.66726 0.80299 0.28057 0.02900
H 	H 	0.60832 0.78496 0.24213 0.04500
C 	C 	0.52735 0.80660 0.25286 -0.06200
C 	C 	0.49356 0.80075 0.22952 0.01200
C 	C 	0.47321 0.76835 0.23834 -0.08000
C 	C 	0.48659 0.74238 0.27186 0.01300
C 	C 	0.52038 0.74826 0.29513 -0.06200
H 	H 	0.54292 0.83160 0.24558 0.04700
H 	H 	0.48342 0.82119 0.20421 0.03300
H 	H 	0.47137 0.71713 0.27884 0.03400
H 	H 	0.53071 0.72777 0.32026 0.04600
C 	C 	0.93270 0.85535 0.44587 -0.06300
C 	C 	0.93513 0.82680 0.48001 0.02100
C 	C 	0.90535 0.80222 0.48589 -0.06300
C 	C 	0.87305 0.80681 0.45871 0.01700
C 	C 	0.87035 0.83591 0.42533 -0.08700
C 	C 	0.90060 0.85977 0.41851 0.01800
C 	C 	0.96886 0.82275 0.50964 0.01900
H 	H 	0.90711 0.77982 0.51179 0.04600
H 	H 	0.84985 0.78836 0.46453 0.03200
H 	H 	0.89903 0.88209 0.39248 0.03300
H 	H 	0.95554 0.87439 0.44095 0.04700
C 	C 	0.00331 0.81827 0.48716 -0.06300
C 	C 	0.03521 0.81419 0.51510 0.01400
C 	C 	0.03296 0.81401 0.56588 -0.08800
C 	C 	0.99859 0.81966 0.58835 0.01500
C 	C 	0.96672 0.82406 0.56034 -0.06300
H 	H 	0.00531 0.81751 0.44804 0.04600
H 	H 	0.06157 0.81031 0.49727 0.03800
H 	H 	0.99633 0.81948 0.62746 0.03900
H 	H 	0.94034 0.82815 0.57803 0.04700
C 	C 	0.75036 0.78256 0.16341 -0.06100
C 	C 	0.78091 0.76001 0.15327 0.01900
C 	C 	0.81214 0.76164 0.18336 -0.06100
C 	C 	0.81210 0.78431 0.22437 0.01500
C 	C 	0.78070 0.80511 0.23599 -0.08100
C 	C 	0.75013 0.80471 0.20486 0.01200
C 	C 	0.77945 0.73347 0.11255 0.02000
H 	H 	0.83593 0.74450 0.17586 0.04600
H 	H 	0.83578 0.78432 0.24836 0.03600
H 	H 	0.72575 0.82067 0.21357 0.02700
H 	H 	0.72643 0.78217 0.13988 0.04500
C 	C 	0.74973 0.70862 0.10855 -0.06300
C 	C 	0.74672 0.68561 0.06810 0.01500
C 	C 	0.77375 0.68668 0.03175 -0.08800
C 	C 	0.80448 0.71009 0.03695 0.01400
C 	C 	0.80718 0.73360 0.07700 -0.06300
H 	H 	0.72859 0.70766 0.13629 0.04600
H 	H 	0.72294 0.66758 0.06447 0.03500
H 	H 	0.82539 0.71128 0.00892 0.03800
H 	H 	0.83030 0.75255 0.07973 0.04600
C 	C 	0.69621 0.76222 0.69702 -0.06200
C 	C 	0.71352 0.74799 0.65565 0.01900
C 	C 	0.72821 0.71214 0.65662 -0.06100
C 	C 	0.72727 0.69148 0.69942 0.00900
C 	C 	0.71173 0.70657 0.74144 -0.08000
C 	C 	0.69535 0.74160 0.73974 0.01600
C 	C 	0.71869 0.77159 0.61266 0.02100
H 	H 	0.74124 0.70075 0.62466 0.04500
H 	H 	0.73992 0.66441 0.70040 0.02900
H 	H 	0.68311 0.75337 0.77202 0.03400
H 	H 	0.68459 0.78976 0.69654 0.04600
C 	C 	0.68797 0.78458 0.58688 -0.06400
C 	C 	0.69294 0.80719 0.54633 0.01600
C 	C 	0.72871 0.81697 0.53117 -0.09100
C 	C 	0.75937 0.80464 0.55773 0.01500
C 	C 	0.75437 0.78205 0.59823 -0.06400
H 	H 	0.66030 0.77683 0.59796 0.04600
H 	H 	0.66904 0.81622 0.52597 0.03700
H 	H 	0.78710 0.81221 0.54668 0.03600
H 	H 	0.77822 0.77265 0.61840 0.04600
C 	C 	0.79209 0.02015 0.51688 -0.06300
C 	C 	0.79327 0.05213 0.48815 0.02000
C 	C 	0.78945 0.04917 0.43778 -0.06400
C 	C 	0.78509 0.01457 0.41620 0.01400
C 	C 	0.78385 0.98251 0.44485 -0.08800
C 	C 	0.78728 0.98550 0.49534 0.01500
C 	C 	0.80109 0.08841 0.51036 0.01900
H 	H 	0.79019 0.07369 0.41531 0.04500
H 	H 	0.78228 0.01275 0.37725 0.03600
H 	H 	0.78648 0.96100 0.51785 0.03800
H 	H 	0.79541 0.02211 0.55577 0.04700
C 	C 	0.77768 0.10268 0.54629 -0.06200
C 	C 	0.78619 0.13630 0.56875 0.01300
C 	C 	0.81818 0.15584 0.55539 -0.08100
C 	C 	0.84072 0.14221 0.51819 0.01200
C 	C 	0.83234 0.10860 0.49598 -0.06100
H 	H 	0.75322 0.08751 0.55722 0.04500
H 	H 	0.76861 0.14652 0.59748 0.03700
H 	H 	0.86525 0.15727 0.50726 0.03200
H 	H 	0.85051 0.09792 0.46817 0.04600
C 	C 	0.66247 0.08529 0.20861 -0.06300
C 	C 	0.69553 0.06689 0.19825 0.02100
C 	C 	0.71928 0.08082 0.16239 -0.06300
C 	C 	0.70985 0.11287 0.13692 0.01500
C 	C 	0.67661 0.13119 0.14727 -0.08700
C 	C 	0.65322 0.11739 0.18361 0.01700
C 	C 	0.70586 0.03401 0.22656 0.01800
H 	H 	0.74502 0.06692 0.15439 0.04600
H 	H 	0.72806 0.12307 0.10878 0.03600
H 	H 	0.62771 0.13148 0.19234 0.04000
H 	H 	0.64399 0.07475 0.23624 0.04700
C 	C 	0.70899 0.03656 0.27703 -0.06200
C 	C 	0.71440 0.00485 0.30472 0.01300
C 	C 	0.71749 0.97024 0.28221 -0.08200
C 	C 	0.71540 0.96774 0.23157 0.01100
C 	C 	0.70940 0.99952 0.20383 -0.06100
H 	H 	0.70659 0.06310 0.29485 0.04600
H 	H 	0.71648 0.00723 0.34371 0.03600
H 	H 	0.71794 0.94121 0.21378 0.03400
H 	H 	0.70684 0.99726 0.16488 0.04600
