data_crystal

_cell_length_a 16.57817
_cell_length_b 16.19398
_cell_length_c 41.93699
_cell_angle_alpha 89.53027
_cell_angle_beta  82.26545
_cell_angle_gamma 105.72796

_symmetry_space_group_name_	'P 1'
_symmetry_space_group_name_H-M	'P 1'

loop_
_symmetry_equiv_pos_as_xyz
  x,y,z

loop_
_atom_site_label
_atom_site_type_symbol
_atom_site_fract_x
_atom_site_fract_y
_atom_site_fract_z
_atom_site_charge
Zn	Zn	0.59579 0.21223 0.92131 1.21800
C 	C 	0.43677 0.11463 0.90765 0.26600
O 	O 	0.57461 0.32396 0.91841 -0.43600
O 	O 	0.51848 0.12328 0.90123 -0.41100
O 	O 	0.40694 0.14834 0.93343 -0.24000
O 	O 	0.57846 0.15547 0.96532 -0.42900
Zn	Zn	0.54018 0.13949 0.58150 1.21800
C 	C 	0.55708 0.01296 0.53216 0.28400
O 	O 	0.51326 0.20526 0.54795 -0.41300
O 	O 	0.45493 0.23136 0.62917 -0.23900
O 	O 	0.54957 0.02602 0.56341 -0.43500
C 	C 	0.41035 0.15054 0.63017 0.27400
O 	O 	0.43434 0.09870 0.60935 -0.42100
Zn	Zn	0.04586 0.01050 0.79530 1.21000
P 	P 	0.08735 0.02588 0.72446 0.26200
O 	O 	0.08856 0.96565 0.75454 -0.38300
O 	O 	0.22747 0.99013 0.78589 -0.21200
C 	C 	0.20567 0.01027 0.81542 0.26200
O 	O 	0.12896 0.01760 0.82454 -0.42200
Zn	Zn	0.49055 0.49310 0.35508 1.19800
Zn	Zn	0.31715 0.39568 0.39745 1.24400
Zn	Zn	0.47156 0.64531 0.40039 1.22800
P 	P 	0.47210 0.47765 0.42573 0.31500
P 	P 	0.34062 0.55737 0.36248 0.31900
C 	C 	0.43647 0.74136 0.45235 0.25900
C 	C 	0.39919 0.31978 0.34413 0.28000
O 	O 	0.50326 0.43366 0.39455 -0.41300
O 	O 	0.42706 0.56658 0.33973 -0.44900
O 	O 	0.37311 0.46886 0.42880 -0.33100
O 	O 	0.35523 0.58954 0.39756 -0.39800
O 	O 	0.52538 0.57613 0.42292 -0.37400
O 	O 	0.28599 0.45978 0.36428 -0.37300
O 	O 	0.48789 0.74632 0.42521 -0.36300
O 	O 	0.14275 0.33347 0.37287 -0.20800
O 	O 	0.36832 0.67632 0.45839 -0.16700
O 	O 	0.38162 0.31805 0.37578 -0.38500
O 	O 	0.44915 0.39079 0.32863 -0.41700
C 	C 	0.14126 0.31618 0.40358 0.26500
O 	O 	0.21117 0.31394 0.41462 -0.31700
Zn	Zn	0.33656 0.51320 0.12101 1.19700
Zn	Zn	0.18664 0.53497 0.08524 1.23000
Zn	Zn	0.44569 0.65714 0.06995 1.23200
P 	P 	0.30189 0.68082 0.11256 0.30800
P 	P 	0.33635 0.49565 0.05078 0.31400
C 	C 	0.50356 0.79886 0.02887 0.27700
C 	C 	0.51606 0.59111 0.12094 0.29300
C 	C 	0.16345 0.41063 0.13862 0.29800
O 	O 	0.28340 0.60183 0.13768 -0.43900
O 	O 	0.37877 0.47065 0.07992 -0.43900
O 	O 	0.25734 0.65231 0.08138 -0.38100
O 	O 	0.36084 0.59706 0.04534 -0.36200
O 	O 	0.40155 0.71988 0.10337 -0.36300
O 	O 	0.23612 0.45795 0.05901 -0.37200
O 	O 	0.53053 0.74512 0.04521 -0.36600
O 	O 	0.07344 0.65315 0.08388 -0.22900
O 	O 	0.42269 0.78194 0.02632 -0.13300
O 	O 	0.51633 0.59385 0.08949 -0.42700
O 	O 	0.14686 0.48192 0.12987 -0.43000
O 	O 	0.44471 0.55322 0.14001 -0.42500
O 	O 	0.24304 0.40829 0.13760 -0.42300
C 	C 	0.04764 0.58405 0.06789 0.31600
O 	O 	0.07798 0.51832 0.07141 -0.38300
Zn	Zn	0.05801 0.02915 0.23710 1.19500
Zn	Zn	0.10040 0.87957 0.26217 1.21700
P 	P 	0.09926 0.90567 0.19343 0.31100
C 	C 	0.19080 0.05972 0.27468 0.27600
O 	O 	0.14535 0.99002 0.20965 -0.42900
O 	O 	0.02665 0.92429 0.17511 -0.41900
O 	O 	0.06405 0.83301 0.22143 -0.41200
O 	O 	0.08999 0.80367 0.32782 -0.24500
O 	O 	0.20073 0.98580 0.26412 -0.39700
O 	O 	0.04693 0.11175 0.20718 -0.44200
O 	O 	0.12518 0.08459 0.26904 -0.44500
C 	C 	0.14523 0.77828 0.30770 0.28400
O 	O 	0.15480 0.79878 0.27687 -0.41800
C 	C 	0.09267 0.33649 0.15261 -0.08700
C 	C 	0.05753 0.26801 0.13351 0.05600
C 	C 	0.99387 0.19607 0.14798 -0.05600
C 	C 	0.98958 0.26636 0.19835 -0.02000
C 	C 	0.05413 0.33792 0.18436 0.02700
H 	H 	0.07481 0.39390 0.19833 0.04200
C 	C 	0.08442 0.27230 0.09845 0.00200
C 	C 	0.04858 0.31660 0.07795 -0.04300
C 	C 	0.07416 0.32101 0.04470 -0.00500
C 	C 	0.13346 0.27884 0.03171 -0.01700
C 	C 	0.16791 0.23293 0.05204 -0.02000
C 	C 	0.14427 0.23044 0.08541 -0.03600
H 	H 	0.15294 0.28202 0.00593 0.06200
H 	H 	0.21311 0.19954 0.04195 0.04500
H 	H 	0.17168 0.19538 0.10106 0.05000
H 	H 	0.00134 0.34794 0.08781 0.06100
H 	H 	0.03626 0.21618 0.25346 0.06900
C 	C 	0.26192 0.76428 0.13138 0.00500
C 	C 	0.28591 0.79661 0.16085 0.01500
C 	C 	0.24156 0.84853 0.17794 -0.01800
H 	H 	0.25737 0.87024 0.20130 0.04600
C 	C 	0.17446 0.86933 0.16576 -0.02800
C 	C 	0.15881 0.84643 0.13408 0.03700
C 	C 	0.20475 0.79621 0.11690 -0.02900
H 	H 	0.19550 0.78176 0.09228 0.10300
C 	C 	0.09445 0.87321 0.11864 0.03000
C 	C 	0.36356 0.78618 0.17181 0.04400
C 	C 	0.44151 0.84631 0.16142 -0.03500
C 	C 	0.51537 0.83674 0.17166 0.00800
C 	C 	0.51133 0.76880 0.19308 -0.04100
C 	C 	0.43369 0.70882 0.20362 -0.00600
C 	C 	0.35967 0.71778 0.19324 -0.05100
H 	H 	0.57567 0.88227 0.16311 0.06100
H 	H 	0.43083 0.65552 0.21984 0.03100
H 	H 	0.29959 0.67159 0.20169 0.05800
H 	H 	0.44467 0.90040 0.14550 0.11900
C 	C 	0.24972 0.11253 0.29478 -0.06700
C 	C 	0.21773 0.13571 0.32526 0.00500
C 	C 	0.26753 0.20294 0.34081 -0.01600
H 	H 	0.24222 0.21994 0.36419 0.05300
C 	C 	0.34943 0.24840 0.32645 -0.06900
C 	C 	0.38341 0.22188 0.29672 0.02100
C 	C 	0.33297 0.15439 0.28105 -0.02600
H 	H 	0.35800 0.13608 0.25776 0.04500
C 	C 	0.47235 0.26017 0.28254 0.02200
C 	C 	0.53734 0.23649 0.29529 -0.04600
C 	C 	0.49108 0.31004 0.25357 -0.04400
C 	C 	0.13001 0.09250 0.34037 0.06800
C 	C 	0.06859 0.13798 0.34383 -0.06100
C 	C 	0.10654 0.00466 0.34939 -0.15900
H 	H 	0.15249 0.96823 0.34562 0.10200
H 	H 	0.08569 0.20530 0.33644 0.06500
H 	H 	0.52337 0.19706 0.31741 0.04800
H 	H 	0.44105 0.32649 0.24305 0.04400
C 	C 	0.19656 0.72737 0.31968 -0.06200
C 	C 	0.24573 0.75709 0.34437 0.02600
C 	C 	0.28783 0.70386 0.35741 -0.02100
H 	H 	0.32473 0.72640 0.37666 0.05200
C 	C 	0.28589 0.62366 0.34483 -0.00500
C 	C 	0.24388 0.59775 0.31791 0.01700
C 	C 	0.19726 0.64863 0.30617 -0.00600
H 	H 	0.16263 0.62762 0.28617 0.04900
C 	C 	0.25411 0.52186 0.30023 0.03700
C 	C 	0.18866 0.44498 0.30390 -0.03900
C 	C 	0.19946 0.37278 0.28765 -0.00600
C 	C 	0.27472 0.37759 0.26724 -0.03600
C 	C 	0.33929 0.45469 0.26295 -0.01100
C 	C 	0.32907 0.52676 0.27934 -0.04900
C 	C 	0.26080 0.84667 0.35440 0.05000
C 	C 	0.31644 0.91382 0.33435 -0.09300
C 	C 	0.34015 0.99680 0.34558 0.09000
C 	C 	0.30762 0.01338 0.37664 -0.13900
C 	C 	0.25134 0.94697 0.39655 0.06000
C 	C 	0.22800 0.86369 0.38553 -0.07900
H 	H 	0.38414 0.04812 0.33029 0.00000
H 	H 	0.32569 0.07775 0.38522 0.08700
H 	H 	0.22599 0.95998 0.42054 0.04700
H 	H 	0.18551 0.81226 0.40127 0.08500
H 	H 	0.34271 0.90125 0.31039 0.06700
H 	H 	0.13007 0.44096 0.31960 0.07900
H 	H 	0.14948 0.31321 0.29081 0.04300
H 	H 	0.37959 0.58608 0.27611 0.05100
H 	H 	0.39713 0.45876 0.24684 0.03300
H 	H 	0.28281 0.32170 0.25463 0.04500
C 	C 	0.51237 0.93098 0.52043 -0.07600
C 	C 	0.43991 0.92622 0.50606 0.02700
C 	C 	0.41413 0.86258 0.48449 -0.04600
C 	C 	0.45981 0.80222 0.47747 0.05300
H 	H 	0.36054 0.86223 0.47221 0.06800
H 	H 	0.40704 0.97553 0.50987 0.05100
C 	C 	0.06383 0.30940 0.42605 0.03400
C 	C 	0.05078 0.38136 0.44294 -0.09200
H 	H 	0.01100 0.17599 0.41728 0.05300
C 	C 	0.11416 0.46920 0.43647 0.77700
F 	F 	0.12674 0.49217 0.40396 -0.45400
F 	F 	0.08636 0.53202 0.45317 -0.43800
F 	F 	0.19038 0.46697 0.44584 -0.43400
C 	C 	0.55077 0.35841 0.51309 -0.05000
C 	C 	0.49890 0.43059 0.46088 0.09200
C 	C 	0.43994 0.36352 0.48111 -0.13400
C 	C 	0.46550 0.33444 0.50878 0.08900
H 	H 	0.42031 0.28778 0.52560 0.07800
C 	C 	0.35235 0.31959 0.47301 0.79200
F 	F 	0.31569 0.24391 0.49136 -0.45200
F 	F 	0.29995 0.37271 0.47925 -0.42500
F 	F 	0.35709 0.29822 0.44118 -0.50200
C 	C 	0.59381 0.27322 0.68851 -0.01000
C 	C 	0.51470 0.22028 0.70187 -0.03100
C 	C 	0.49557 0.13161 0.69840 -0.01700
C 	C 	0.55510 0.09578 0.68124 -0.05400
C 	C 	0.12289 0.08570 0.62130 -0.01200
H 	H 	0.08429 0.97392 0.59367 0.07600
H 	H 	0.18979 0.09222 0.61485 0.04400
H 	H 	0.60860 0.34187 0.69126 0.04600
H 	H 	0.54054 0.02689 0.67923 0.03300
H 	H 	0.43461 0.09059 0.70906 0.03500
H 	H 	0.46819 0.24796 0.71490 0.04300
C 	C 	0.19394 0.06173 0.70368 -0.01300
C 	C 	0.23895 0.14929 0.70034 -0.00300
C 	C 	0.30757 0.17738 0.67561 -0.01800
H 	H 	0.34082 0.24515 0.67266 0.05400
C 	C 	0.33552 0.11820 0.65553 -0.06500
C 	C 	0.29464 0.02907 0.66129 0.00400
C 	C 	0.22561 0.00208 0.68567 -0.06700
H 	H 	0.19309 0.93418 0.68937 0.08300
C 	C 	0.32305 0.96322 0.64219 0.06000
C 	C 	0.38197 0.92539 0.65286 -0.05400
C 	C 	0.41547 0.86983 0.63322 -0.00300
C 	C 	0.38812 0.84962 0.60340 -0.03200
C 	C 	0.32626 0.88387 0.59339 -0.00200
C 	C 	0.29299 0.93989 0.61288 -0.04400
C 	C 	0.22298 0.20949 0.72510 0.03300
C 	C 	0.19209 0.27855 0.71727 -0.04300
C 	C 	0.17987 0.33697 0.74055 -0.01200
C 	C 	0.19719 0.32603 0.77179 -0.03200
C 	C 	0.22936 0.25821 0.77953 -0.00600
C 	C 	0.24313 0.20057 0.75617 -0.05700
H 	H 	0.15715 0.39083 0.73435 0.03700
H 	H 	0.18630 0.37049 0.78992 0.04800
H 	H 	0.24385 0.25044 0.80360 0.04000
H 	H 	0.27048 0.14983 0.76199 0.05000
H 	H 	0.17824 0.28736 0.69319 0.04900
H 	H 	0.40187 0.93927 0.67624 0.05700
H 	H 	0.46263 0.84247 0.64111 0.04000
H 	H 	0.24591 0.96701 0.60481 0.06600
H 	H 	0.30462 0.86760 0.57043 0.04900
H 	H 	0.41463 0.80721 0.58809 0.06300
C 	C 	0.99404 0.58441 0.04292 -0.02900
C 	C 	0.02573 0.58093 0.00994 -0.07400
C 	C 	0.11927 0.59407 0.99896 0.77600
F 	F 	0.13978 0.61684 0.96638 -0.42200
F 	F 	0.16763 0.65867 0.01536 -0.42100
F 	F 	0.13889 0.51803 0.00452 -0.43700
C 	C 	0.62509 0.05194 0.99338 -0.14000
C 	C 	0.60373 0.89939 0.98823 -0.06500
C 	C 	0.55884 0.88434 0.01943 0.05500
C 	C 	0.55606 0.95424 0.03924 -0.12100
C 	C 	0.51277 0.93946 0.07388 0.80300
F 	F 	0.42592 0.91370 0.07446 -0.44800
F 	F 	0.53756 0.87678 0.08936 -0.48200
C 	C 	0.47520 0.38292 0.96832 -0.05200
C 	C 	0.42743 0.32934 0.99448 0.01700
C 	C 	0.37759 0.36133 0.01809 -0.05300
C 	C 	0.37141 0.44554 0.01483 0.07400
C 	C 	0.40355 0.49187 0.98461 -0.14300
H 	H 	0.34948 0.32313 0.04012 0.06400
H 	H 	0.43593 0.26620 0.99835 0.05700
F 	F 	0.30212 0.57329 0.99016 -0.38800
C 	C 	0.26885 0.03048 0.83785 -0.12000
C 	C 	0.25250 0.98772 0.86852 0.11800
C 	C 	0.30989 0.01352 0.89064 -0.11600
H 	H 	0.29740 0.98053 0.91415 0.10900
C 	C 	0.38188 0.08335 0.88294 -0.02400
C 	C 	0.39716 0.12741 0.85256 -0.00500
C 	C 	0.34234 0.09850 0.82979 0.00600
H 	H 	0.35413 0.13249 0.80651 0.03300
C 	C 	0.46356 0.20987 0.84599 0.02300
C 	C 	0.54076 0.21326 0.82686 -0.05400
C 	C 	0.51248 0.36318 0.85305 -0.00900
C 	C 	0.44949 0.28527 0.85895 -0.04900
C 	C 	0.17406 0.91790 0.87804 0.00100
C 	C 	0.10608 0.93417 0.89834 -0.02700
C 	C 	0.03067 0.86898 0.90637 0.00800
C 	C 	0.16621 0.83584 0.86606 -0.01800
H 	H 	0.21823 0.82276 0.85029 0.05900
H 	H 	0.11137 0.99747 0.90753 0.06300
H 	H 	0.55216 0.15549 0.81667 0.04400
H 	H 	0.39007 0.28328 0.87374 0.06000
H 	H 	0.50173 0.42108 0.86327 0.06400
H 	H 	0.02201 0.53997 0.84331 0.06300
C 	C 	0.09609 0.14464 0.64123 -0.03100
H 	H 	0.14226 0.19688 0.64999 0.04800
O 	O 	0.03556 0.97574 0.69747 -0.39600
O 	O 	0.54492 0.69068 0.35847 -0.42700
O 	O 	0.04719 0.09992 0.73727 -0.43100
C 	C 	0.06340 0.01934 0.60922 -0.02000
H 	H 	0.06206 0.57059 0.58213 0.05800
H 	H 	0.12571 0.44939 0.57330 0.07900
H 	H 	0.03188 0.37791 0.96895 0.09200
C 	C 	0.09074 0.77075 0.87424 -0.01600
H 	H 	0.08473 0.70753 0.86496 0.05500
H 	H 	0.04843 0.35758 0.02905 0.07600
C 	C 	0.57377 0.33483 0.23730 -0.01800
C 	C 	0.58804 0.03809 0.02563 0.08500
F 	F 	0.53351 0.01344 0.09086 -0.48900
C 	C 	0.02274 0.96315 0.36216 0.13800
C 	C 	0.06860 0.44132 0.59030 -0.04000
C 	C 	0.45770 0.46071 0.96204 0.08200
H 	H 	0.58024 0.09227 0.03952 0.06100
O 	O 	0.04202 0.13544 0.79861 -0.41000
H 	H 	0.58798 0.37293 0.21489 0.03700
C 	C 	0.38203 0.57350 0.97587 0.79700
F 	F 	0.44133 0.64348 0.98513 -0.45600
H 	H 	0.55551 0.54452 0.17764 0.04700
H 	H 	0.05705 0.30864 0.60236 0.04500
H 	H 	0.60846 0.84597 0.97338 0.07900
C 	C 	0.63679 0.98303 0.97524 0.07300
H 	H 	0.66734 0.99404 0.95045 0.02700
P 	P 	0.59097 0.28542 0.53434 0.31500
C 	C 	0.61981 0.26062 0.27874 -0.02100
O 	O 	0.63022 0.20680 0.60345 -0.42700
C 	C 	0.58139 0.46266 0.46842 -0.04000
P 	P 	0.57648 0.36967 0.95199 0.31600
C 	C 	0.64056 0.13587 0.97760 0.31900
O 	O 	0.60133 0.31352 0.97801 -0.43900
O 	O 	0.63947 0.33136 0.56245 -0.42200
O 	O 	0.61237 0.06901 0.51166 -0.43200
C 	C 	0.61030 0.66283 0.34659 0.30400
O 	O 	0.60393 0.57923 0.34648 -0.43200
C 	C 	0.59587 0.62952 0.13510 -0.06900
C 	C 	0.60231 0.60097 0.16618 -0.01800
C 	C 	0.60732 0.56868 0.27013 -0.01000
H 	H 	0.56388 0.64630 0.23830 0.04200
H 	H 	0.55605 0.56605 0.28932 0.02400
H 	H 	0.56823 0.76310 0.20168 0.04400
H 	H 	0.61828 0.78584 0.30162 0.04400
C 	C 	0.63777 0.30891 0.24957 -0.03800
C 	C 	0.52642 0.79973 0.49510 -0.13000
C 	C 	0.55339 0.86592 0.51606 0.08900
C 	C 	0.60746 0.42599 0.49400 0.03200
H 	H 	0.62650 0.51415 0.45362 0.08500
C 	C 	0.63527 0.14832 0.66828 0.02300
C 	C 	0.65442 0.23745 0.67209 -0.03700
H 	H 	0.49084 0.49996 0.94070 0.07400
F 	F 	0.38342 0.58178 0.94289 -0.43300
C 	C 	0.60346 0.29150 0.82094 -0.02000
C 	C 	0.58955 0.36622 0.83419 -0.03100
C 	C 	0.61118 0.61313 0.24104 -0.05200
C 	C 	0.02304 0.78733 0.89437 0.00100
H 	H 	0.66549 0.49178 0.29670 0.04000
H 	H 	0.61673 0.00167 0.80521 0.00200
H 	H 	0.66937 0.24047 0.28820 0.03300
O 	O 	0.70774 0.21117 0.90123 -0.43000
O 	O 	0.64132 0.46339 0.94817 -0.41200
O 	O 	0.70960 0.19598 0.98110 -0.44000
Zn	Zn	0.69105 0.16551 0.52777 1.20700
P 	P 	0.71655 0.18175 0.59368 0.30300
O 	O 	0.65453 0.25539 0.50857 -0.44400
O 	O 	0.72623 0.43464 0.61079 -0.24200
C 	C 	0.66100 0.70105 0.11982 0.02500
C 	C 	0.66834 0.64505 0.18281 0.01300
C 	C 	0.67344 0.61095 0.21507 0.02000
C 	C 	0.66830 0.52586 0.27409 -0.03700
C 	C 	0.67563 0.71868 0.08435 0.02400
C 	C 	0.69406 0.80387 0.07194 -0.03300
H 	H 	0.74029 0.88992 0.03004 0.04700
H 	H 	0.70112 0.32595 0.23640 0.03600
H 	H 	0.60915 0.86980 0.52746 0.06300
C 	C 	0.57098 0.72922 0.49059 0.78700
F 	F 	0.62133 0.74176 0.46091 -0.46600
F 	F 	0.51222 0.64962 0.49222 -0.44600
H 	H 	0.67318 0.44683 0.49777 0.03800
C 	C 	0.70335 0.10867 0.65613 -0.01100
H 	H 	0.69002 0.03610 0.70080 0.03300
H 	H 	0.71641 0.27870 0.66264 0.05400
C 	C 	0.68645 0.83088 0.65835 -0.00800
H 	H 	0.64482 0.83442 0.68020 0.04400
H 	H 	0.71686 0.19203 0.73545 0.03400
H 	H 	0.66247 0.29447 0.80588 0.03300
H 	H 	0.63841 0.42650 0.82975 0.05200
H 	H 	0.68764 0.85479 0.08783 0.08200
C 	C 	0.68766 0.88108 0.63092 -0.02700
H 	H 	0.64665 0.92307 0.63148 0.05300
H 	H 	0.64952 0.86136 0.80143 0.06600
H 	H 	0.01972 0.38830 0.91091 0.08200
Zn	Zn	0.71760 0.31258 0.96694 1.20900
O 	O 	0.64493 0.54647 0.88226 -0.24200
O 	O 	0.70433 0.11248 0.56723 -0.45200
C 	C 	0.72424 0.82400 0.03927 -0.00500
C 	C 	0.73216 0.75901 0.01841 -0.02700
C 	C 	0.71351 0.67425 0.03042 -0.01000
C 	C 	0.68912 0.65463 0.06348 -0.04000
H 	H 	0.68035 0.58979 0.07285 0.05600
C 	C 	0.68757 0.72536 0.33010 -0.08200
C 	C 	0.68016 0.78689 0.30763 0.00500
H 	H 	0.67150 0.95397 0.20233 0.03500
C 	C 	0.75274 0.13324 0.62562 -0.02600
C 	C 	0.72800 0.05592 0.67745 -0.00800
H 	H 	0.74711 0.62546 0.59779 0.06000
C 	C 	0.73827 0.77539 0.65750 -0.04100
H 	H 	0.73491 0.73463 0.67852 0.05700
H 	H 	0.74782 0.19972 0.79155 0.04400
C 	C 	0.67812 0.90726 0.81811 -0.06000
C 	C 	0.65977 0.98663 0.82013 0.06600
C 	C 	0.73214 0.56444 0.21871 -0.04100
C 	C 	0.73142 0.52485 0.24853 -0.01500
H 	H 	0.77811 0.49100 0.25149 0.03300
C 	C 	0.74231 0.87764 0.60284 -0.00700
H 	H 	0.68853 0.83645 0.23666 0.05800
F 	F 	0.62173 0.72880 0.51422 -0.45900
H 	H 	0.75286 0.77435 0.99293 0.04600
H 	H 	0.68298 0.10806 0.84283 0.05500
P 	P 	0.77417 0.30409 0.89880 0.30700
O 	O 	0.73117 0.37618 0.88937 -0.44300
Zn	Zn	0.76015 0.34346 0.55414 1.21900
C 	C 	0.79642 0.48133 0.59381 0.27700
O 	O 	0.79307 0.26341 0.58042 -0.42200
C 	C 	0.72074 0.75025 0.13801 -0.02200
C 	C 	0.72663 0.72211 0.16896 -0.06400
H 	H 	0.71900 0.62393 0.01416 0.04400
C 	C 	0.75212 0.85089 0.29333 -0.01500
C 	C 	0.74131 0.92071 0.27284 0.06700
C 	C 	0.71883 0.05295 0.23444 -0.08200
C 	C 	0.69657 0.96826 0.22479 0.04000
C 	C 	0.70697 0.90206 0.24406 -0.08700
H 	H 	0.76899 0.64697 0.44543 0.07500
H 	H 	0.75212 0.74817 0.40388 0.07800
H 	H 	0.71096 0.10415 0.21946 0.05500
C 	C 	0.79715 0.22995 0.77210 -0.05200
C 	C 	0.77992 0.22428 0.74035 -0.01300
H 	H 	0.68797 0.75060 0.87918 0.05500
C 	C 	0.69730 0.04673 0.84126 -0.07400
H 	H 	0.77757 0.55824 0.19838 0.05500
C 	C 	0.76188 0.00563 0.28279 -0.09000
C 	C 	0.75115 0.07154 0.26347 0.01700
C 	C 	0.79217 0.77047 0.62915 0.02300
H 	H 	0.74397 0.91741 0.58175 0.05900
C 	C 	0.72195 0.59749 0.88070 0.28300
H 	H 	0.76765 0.13693 0.27104 0.02900
H 	H 	0.86850 0.12461 0.91694 0.03900
Zn	Zn	0.74419 0.46742 0.91975 1.21900
O 	O 	0.80892 0.32537 0.93193 -0.44900
C 	C 	0.77664 0.63220 0.42026 -0.00600
C 	C 	0.76703 0.68923 0.39678 -0.03300
C 	C 	0.80697 0.03897 0.67089 -0.09000
C 	C 	0.82987 0.11293 0.61861 -0.04500
C 	C 	0.80395 0.63026 0.60865 -0.01000
H 	H 	0.80249 0.33374 0.82971 0.04900
C 	C 	0.75872 0.80665 0.83344 0.00900
C 	C 	0.72878 0.74132 0.85782 -0.01000
C 	C 	0.73477 0.88806 0.83715 0.03700
O 	O 	0.76673 0.40595 0.99298 -0.43900
H 	H 	0.76717 0.80748 0.12701 0.04600
C 	C 	0.76732 0.73047 0.33933 0.04000
C 	C 	0.77666 0.67001 0.36417 0.01400
H 	H 	0.78689 0.02053 0.30528 0.05700
C 	C 	0.79409 0.82211 0.60182 -0.04400
C 	C 	0.75350 0.66507 0.85503 -0.07200
H 	H 	0.77620 0.52146 0.78540 0.04500
H 	H 	0.80785 0.36111 0.27385 0.02800
C 	C 	0.79526 0.55566 0.41130 -0.02700
H 	H 	0.80194 0.51124 0.42954 0.05500
H 	H 	0.88056 0.11536 0.97488 0.03400
C 	C 	0.84404 0.01454 0.69781 0.28400
C 	C 	0.84452 0.25824 0.71490 -0.03900
H 	H 	0.83141 0.25216 0.69035 0.04300
C 	C 	0.75331 0.02769 0.86040 -0.02700
C 	C 	0.77164 0.94830 0.85859 -0.01900
O 	O 	0.77413 0.57988 0.89894 -0.41800
O 	O 	0.82568 0.45359 0.56645 -0.40100
O 	O 	0.81591 0.33944 0.50801 -0.42300
O 	O 	0.80854 0.19594 0.50849 -0.44200
O 	O 	0.83720 0.93292 0.70483 -0.40700
C 	C 	0.79598 0.59349 0.35522 -0.03500
C 	C 	0.80484 0.53629 0.37881 -0.01300
H 	H 	0.80349 0.57817 0.33008 0.04700
C 	C 	0.83587 0.70185 0.62640 0.01300
C 	C 	0.84229 0.56302 0.60605 -0.06800
H 	H 	0.83476 0.81823 0.57972 0.06000
H 	H 	0.86462 0.31009 0.31955 0.04300
H 	H 	0.78283 0.07462 0.87648 0.04200
O 	O 	0.87757 0.07437 0.71651 -0.45200
C 	C 	0.85151 0.30660 0.83606 -0.03700
C 	C 	0.86093 0.29813 0.86843 -0.03300
O 	O 	0.84016 0.93846 0.76564 -0.43300
C 	C 	0.79882 0.76955 0.18519 0.26800
C 	C 	0.83293 0.85100 0.30052 -0.01200
H 	H 	0.81918 0.47701 0.37190 0.04200
C 	C 	0.85954 0.07071 0.64165 0.03300
H 	H 	0.86894 0.13368 0.59554 0.05900
C 	C 	0.80274 0.65145 0.82642 0.03000
C 	C 	0.81211 0.79416 0.80577 -0.02700
C 	C 	0.82917 0.52500 0.79840 -0.04900
C 	C 	0.02998 0.36199 0.60672 0.02000
C 	C 	0.90446 0.17996 0.92810 -0.04400
C 	C 	0.85518 0.32643 0.26932 -0.01300
H 	H 	0.86365 0.41134 0.65132 0.04000
H 	H 	0.81574 0.93433 0.87328 0.04800
C 	C 	0.82325 0.47435 0.97903 0.30600
C 	C 	0.84654 0.27521 0.49759 0.30800
O 	O 	0.81972 0.85433 0.18513 -0.40800
C 	C 	0.83889 0.79406 0.32502 -0.04800
H 	H 	0.78361 0.52446 0.03882 0.03900
C 	C 	0.91127 0.17462 0.96085 -0.02000
C 	C 	0.87907 0.27126 0.77858 0.02700
C 	C 	0.82455 0.71320 0.80100 -0.04100
C 	C 	0.03286 0.50989 0.59547 0.01300
H 	H 	0.88397 0.44832 0.76515 0.03300
C 	C 	0.88793 0.29852 0.29509 -0.05000
O 	O 	0.83809 0.48453 0.94721 -0.43300
O 	O 	0.85099 0.72886 0.19429 -0.24800
C 	C 	0.89874 0.27210 0.81211 0.02100
C 	C 	0.84213 0.57972 0.82414 0.01000
H 	H 	0.85950 0.33351 0.21783 0.04600
C 	C 	0.89015 0.48357 0.78687 -0.01600
P 	P 	0.88714 0.88439 0.78392 0.30000
O 	O 	0.90640 0.78453 0.69046 -0.41000
O 	O 	0.90613 0.10951 0.78885 -0.45600
H 	H 	0.06492 0.04590 0.07968 0.01300
H 	H 	0.88124 0.15989 0.45536 0.04500
C 	C 	0.90828 0.70686 0.64147 -0.04300
C 	C 	0.88466 0.31094 0.23771 -0.06300
H 	H 	0.90017 0.79584 0.33174 0.06200
H 	H 	0.89651 0.97592 0.37454 0.09200
H 	H 	0.93145 0.96230 0.60665 0.07200
C 	C 	0.92768 0.26571 0.87638 0.01100
H 	H 	0.86133 0.70195 0.77889 0.05300
C 	C 	0.85094 0.54319 0.03038 0.01200
Zn	Zn	0.92581 0.04536 0.75214 1.19700
H 	H 	0.92828 0.93989 0.07472 0.05200
C 	C 	0.91595 0.56890 0.62032 0.04700
C 	C 	0.94197 0.25757 0.91008 0.02700
C 	C 	0.92651 0.29794 0.72113 -0.00700
Zn	Zn	0.93666 0.88930 0.71392 1.21300
C 	C 	0.91762 0.29015 0.47106 -0.08200
C 	C 	0.94973 0.07131 0.63684 -0.02100
C 	C 	0.92106 0.42017 0.63437 -0.01400
C 	C 	0.88109 0.52905 0.99860 -0.09200
C 	C 	0.94232 0.78061 0.66078 0.24400
P 	P 	0.92746 0.89963 0.27241 0.28400
O 	O 	0.91999 0.84501 0.24113 -0.42400
H 	H 	0.93718 0.13096 0.35847 0.02200
C 	C 	0.92865 0.22144 0.45236 -0.00400
C 	C 	0.94392 0.30432 0.75287 -0.08500
H 	H 	0.92544 0.28950 0.64078 0.04700
C 	C 	0.91054 0.58250 0.84101 -0.04100
O 	O 	0.93500 0.94077 0.81059 -0.44000
C 	C 	0.05169 0.98114 0.08976 0.04700
C 	C 	0.94899 0.64122 0.63769 -0.06400
H 	H 	0.88304 0.57873 0.07715 0.04100
C 	C 	0.95638 0.22829 0.82085 -0.07200
C 	C 	0.99665 0.32267 0.95749 -0.04000
C 	C 	0.95176 0.25703 0.28930 -0.00400
O 	O 	0.90978 0.04045 0.20256 -0.42800
O 	O 	0.94130 0.99645 0.26099 -0.43000
O 	O 	0.94850 0.85147 0.75760 -0.43700
Zn	Zn	0.92333 0.91631 0.20204 1.21200
C 	C 	0.90735 0.57273 0.05221 -0.02900
C 	C 	0.95841 0.49934 0.61730 -0.03100
C 	C 	0.95611 0.35135 0.62862 -0.06400
H 	H 	0.02394 0.20409 0.85866 0.06400
C 	C 	0.97458 0.92133 0.08697 -0.06700
C 	C 	0.96163 0.00851 0.36519 -0.16100
C 	C 	0.97694 0.01228 0.61683 -0.07600
C 	C 	0.96940 0.15577 0.80181 0.28300
H 	H 	0.92216 0.62516 0.86062 0.04700
H 	H 	0.97671 0.32325 0.70137 0.02500
H 	H 	0.00768 0.45796 0.79384 0.06000
C 	C 	0.94914 0.26968 0.23173 0.03900
C 	C 	0.96025 0.48983 0.80282 -0.05400
H 	H 	0.96954 0.42312 0.48058 0.07100
H 	H 	0.98955 0.18362 0.66451 0.02100
C 	C 	0.00182 0.23069 0.43049 -0.01300
C 	C 	0.95749 0.83739 0.09977 -0.02800
H 	H 	0.89861 0.79067 0.09699 0.04000
C 	C 	0.97677 0.23387 0.85219 -0.04500
H 	H 	0.00490 0.89552 0.36926 0.02900
O 	O 	0.00615 0.89500 0.29011 -0.41700
O 	O 	0.00949 0.84159 0.64855 -0.21800
H 	H 	0.17193 0.00344 0.10710 0.04100
H 	H 	0.97829 0.23730 0.30923 0.02600
C 	C 	0.96825 0.55274 0.98798 0.04600
C 	C 	0.96857 0.53646 0.83062 -0.04300
C 	C 	0.97813 0.37030 0.46607 0.05500
C 	C 	0.95656 0.24610 0.97560 -0.02600
C 	C 	0.11202 0.95705 0.10528 -0.01500
H 	H 	0.96474 0.73690 0.90073 0.03100
H 	H 	0.97812 0.88177 0.92185 0.02400
C 	C 	0.98452 0.09583 0.35602 0.01600
C 	C 	0.01676 0.81351 0.11590 -0.01200
C 	C 	0.97031 0.18957 0.18154 -0.05100
C 	C 	0.97475 0.11104 0.19814 0.28100
H 	H 	0.00744 0.33501 0.75753 0.06700
H 	H 	0.97220 0.14054 0.13390 0.03900
H 	H 	0.96012 0.24216 0.00108 0.03400
C 	C 	0.99008 0.32832 0.92468 -0.04900
H 	H 	0.00224 0.74896 0.12643 0.06500
H 	H 	0.99132 0.54209 0.96335 0.06400
C 	C 	0.98339 0.24375 0.25773 -0.08600
C 	C 	0.00975 0.13725 0.64923 0.01500
H 	H 	0.00539 0.64558 0.64877 0.07400
