data_crystal

_cell_length_a 37.44521
_cell_length_b 43.83586
_cell_length_c 20.58059
_cell_angle_alpha 92.26910
_cell_angle_beta  88.33665
_cell_angle_gamma 89.96819

_symmetry_space_group_name_	'P 1'
_symmetry_space_group_name_H-M	'P 1'

loop_
_symmetry_equiv_pos_as_xyz
  x,y,z

loop_
_atom_site_label
_atom_site_type_symbol
_atom_site_fract_x
_atom_site_fract_y
_atom_site_fract_z
_atom_site_charge
Cd	Cd	0.25104 0.85052 0.45536 1.24300
Cd	Cd	0.19073 0.88738 0.56943 1.19100
O 	O 	0.27320 0.79929 0.47833 -0.30400
O 	O 	0.28540 0.82044 0.38504 -0.32700
C 	C 	0.28946 0.79729 0.42172 0.24000
O 	O 	0.23320 0.89171 0.40515 -0.37300
O 	O 	0.21604 0.91936 0.49808 -0.40500
C 	C 	0.21729 0.91575 0.43402 0.30200
C 	C 	0.17762 0.83358 0.45851 0.32200
O 	O 	0.24839 0.86892 0.57774 -0.44100
O 	O 	0.19372 0.82258 0.40537 -0.28700
O 	O 	0.19845 0.84586 0.50113 -0.52400
C 	C 	0.27751 0.88448 0.56771 0.30900
O 	O 	0.29286 0.87999 0.51030 -0.32800
Cd	Cd	0.76753 0.89725 0.97038 1.24100
Cd	Cd	0.79902 0.90817 0.80791 1.19900
O 	O 	0.78953 0.85194 0.02334 -0.29700
O 	O 	0.75636 0.88650 0.07722 -0.33100
C 	C 	0.77378 0.86081 0.07777 0.23800
O 	O 	0.74782 0.94413 0.94733 -0.36100
O 	O 	0.74960 0.93489 0.83671 -0.41600
C 	C 	0.74624 0.95406 0.88742 0.30200
C 	C 	0.83803 0.91979 0.94809 0.31700
O 	O 	0.76674 0.86916 0.85491 -0.43300
O 	O 	0.82809 0.92368 0.00922 -0.27700
O 	O 	0.81602 0.90436 0.91225 -0.51800
C 	C 	0.73209 0.86766 0.86238 0.30400
O 	O 	0.71905 0.87572 0.91987 -0.34500
C 	C 	0.86825 0.69642 0.08978 0.09900
N 	N 	0.90237 0.69957 0.06643 -0.12100
C 	C 	0.91787 0.67680 0.02866 0.12800
N 	N 	0.89929 0.65094 0.01460 -0.13800
C 	C 	0.86514 0.64788 0.03698 0.12300
N 	N 	0.84957 0.67064 0.07445 -0.13400
C 	C 	0.22590 0.62269 0.46763 0.09800
N 	N 	0.21384 0.59716 0.43609 -0.13400
C 	C 	0.18592 0.58136 0.46142 0.12200
N 	N 	0.16950 0.59164 0.51785 -0.13900
C 	C 	0.18110 0.61752 0.54905 0.12100
N 	N 	0.20962 0.63284 0.52423 -0.12500
Cd	Cd	0.68863 0.91003 0.49843 1.24400
Cd	Cd	0.65967 0.95014 0.64413 1.18000
O 	O 	0.64341 0.88831 0.42585 -0.31000
O 	O 	0.70047 0.88528 0.40048 -0.33300
C 	C 	0.66808 0.87772 0.38525 0.24200
O 	O 	0.73838 0.93199 0.53488 -0.36400
O 	O 	0.71818 0.93804 0.64091 -0.41800
C 	C 	0.74115 0.94472 0.59383 0.30000
C 	C 	0.66167 0.97035 0.49265 0.31200
O 	O 	0.65221 0.89993 0.60655 -0.44900
O 	O 	0.67753 0.96177 0.43766 -0.27700
O 	O 	0.65692 0.94916 0.53393 -0.54200
C 	C 	0.67377 0.87723 0.61572 0.31100
O 	O 	0.69615 0.87046 0.56754 -0.33000
Cd	Cd	0.99779 0.94351 0.48472 1.24300
Cd	Cd	0.07191 0.93800 0.37239 1.20100
O 	O 	0.94333 0.91446 0.45971 -0.28600
O 	O 	0.94812 0.94112 0.55157 -0.33400
C 	C 	0.92839 0.92360 0.51480 0.24400
O 	O 	0.04265 0.96679 0.53694 -0.36400
O 	O 	0.07488 0.97778 0.44420 -0.41600
C 	C 	0.07253 0.97608 0.50793 0.30100
C 	C 	0.04080 0.88971 0.47850 0.32300
O 	O 	0.01396 0.95563 0.36319 -0.41500
O 	O 	0.02066 0.89100 0.53152 -0.28000
O 	O 	0.03498 0.91086 0.43792 -0.51400
C 	C 	0.00258 0.98340 0.37602 0.31600
O 	O 	0.98633 0.98795 0.43252 -0.35200
C 	C 	0.55299 0.77096 0.55876 0.09800
N 	N 	0.51966 0.78306 0.56736 -0.12300
C 	C 	0.50619 0.78970 0.62829 0.12200
N 	N 	0.52607 0.78405 0.68054 -0.13900
C 	C 	0.55975 0.77290 0.67234 0.12300
N 	N 	0.57313 0.76617 0.61141 -0.13300
C 	C 	0.73056 0.94348 0.29753 0.10800
N 	N 	0.72021 0.92153 0.25357 -0.12700
C 	C 	0.68830 0.92400 0.22436 0.12600
N 	N 	0.66617 0.94781 0.24127 -0.13800
C 	C 	0.67671 0.96985 0.28472 0.13200
N 	N 	0.70934 0.96809 0.31114 -0.10700
Cd	Cd	0.16694 0.08192 0.22650 1.24300
Cd	Cd	0.13818 0.08117 0.39338 1.19900
O 	O 	0.16321 0.13067 0.17204 -0.29800
O 	O 	0.18588 0.08979 0.12185 -0.33000
C 	C 	0.17684 0.11836 0.11852 0.23600
O 	O 	0.18447 0.03618 0.25874 -0.37000
O 	O 	0.14453 0.03456 0.34525 -0.41100
C 	C 	0.17367 0.02434 0.31414 0.29700
C 	C 	0.21143 0.10741 0.32436 0.32000
O 	O 	0.10872 0.09128 0.29923 -0.41500
O 	O 	0.22952 0.10298 0.26952 -0.30500
O 	O 	0.17746 0.10235 0.32182 -0.52200
C 	C 	0.09258 0.07167 0.26093 0.30800
O 	O 	0.11061 0.06293 0.20826 -0.34200
Cd	Cd	0.67574 0.12654 0.72776 1.24300
Cd	Cd	0.73893 0.08251 0.63153 1.19100
O 	O 	0.64669 0.16997 0.67815 -0.29900
O 	O 	0.63129 0.15586 0.77643 -0.33600
C 	C 	0.62631 0.17444 0.72974 0.24200
O 	O 	0.68621 0.08580 0.78713 -0.35600
O 	O 	0.74064 0.07376 0.73845 -0.41100
C 	C 	0.71314 0.06648 0.77620 0.30200
C 	C 	0.65163 0.08461 0.62925 0.31600
O 	O 	0.73801 0.13324 0.66755 -0.44500
O 	O 	0.62538 0.09275 0.66940 -0.26800
O 	O 	0.68137 0.09900 0.63802 -0.53600
C 	C 	0.75014 0.14417 0.72238 0.30600
O 	O 	0.72604 0.15029 0.76806 -0.33400
C 	C 	0.68638 0.34831 0.67526 0.09800
N 	N 	0.70520 0.33811 0.62125 -0.13400
C 	C 	0.73613 0.35212 0.60327 0.12100
N 	N 	0.74779 0.37673 0.63892 -0.13900
C 	C 	0.72892 0.38702 0.69277 0.12100
N 	N 	0.69849 0.37252 0.71127 -0.12700
C 	C 	0.05474 0.26650 0.07793 0.10100
N 	N 	0.02070 0.26070 0.09915 -0.13200
C 	C 	0.00215 0.28236 0.13531 0.12400
N 	N 	0.01768 0.30956 0.15041 -0.13800
C 	C 	0.05179 0.31515 0.13056 0.12300
N 	N 	0.07026 0.29363 0.09424 -0.12400
Cd	Cd	0.93409 0.04216 0.71981 1.24400
Cd	Cd	0.86555 0.04264 0.84282 1.19000
O 	O 	0.99244 0.06432 0.74680 -0.29200
O 	O 	0.98410 0.03972 0.65336 -0.33400
C 	C 	0.00591 0.05473 0.69087 0.24700
O 	O 	0.89109 0.01347 0.67622 -0.37100
O 	O 	0.84554 0.03362 0.74162 -0.41200
C 	C 	0.85766 0.01269 0.69860 0.30000
C 	C 	0.93487 0.99813 0.81762 0.32500
O 	O 	0.89801 0.08142 0.79547 -0.43700
O 	O 	0.95731 0.99052 0.76985 -0.28800
O 	O 	0.92123 0.02515 0.81534 -0.52500
C 	C 	0.88937 0.09566 0.74380 0.31200
O 	O 	0.90500 0.08579 0.68939 -0.32500
Cd	Cd	0.25725 0.06478 0.69187 1.24300
Cd	Cd	0.27669 0.03005 0.53592 1.19600
O 	O 	0.30411 0.09253 0.75122 -0.30700
O 	O 	0.24824 0.09333 0.78601 -0.33500
C 	C 	0.28077 0.10260 0.79495 0.24100
O 	O 	0.20415 0.04903 0.65596 -0.36300
O 	O 	0.22698 0.01187 0.58463 -0.40900
C 	C 	0.19966 0.02802 0.60893 0.30200
C 	C 	0.26157 0.10167 0.58074 0.32100
O 	O 	0.30027 0.02305 0.63723 -0.43800
O 	O 	0.24671 0.11660 0.63067 -0.28700
O 	O 	0.27488 0.07535 0.59341 -0.52000
C 	C 	0.28819 0.00438 0.68042 0.30100
O 	O 	0.26824 0.01665 0.72737 -0.33600
C 	C 	0.21502 0.04235 0.88162 0.10300
N 	N 	0.22428 0.06331 0.92849 -0.12500
C 	C 	0.25611 0.06092 0.95790 0.11900
N 	N 	0.27916 0.03809 0.93883 -0.13900
C 	C 	0.26992 0.01724 0.89182 0.12600
N 	N 	0.23757 0.01905 0.86431 -0.11200
C 	C 	0.39313 0.21286 0.62949 0.09900
N 	N 	0.42654 0.20113 0.61948 -0.12300
C 	C 	0.43880 0.19348 0.55823 0.12400
N 	N 	0.41762 0.19774 0.50702 -0.13700
C 	C 	0.38390 0.20863 0.51674 0.12500
N 	N 	0.37175 0.21638 0.57796 -0.13400
C 	C 	0.26390 0.08083 0.01482 -0.00800
C 	C 	0.27218 0.06796 0.07385 -0.01300
C 	C 	0.27994 0.08676 0.12794 -0.04300
C 	C 	0.28002 0.11860 0.12328 0.02200
C 	C 	0.27125 0.13152 0.06450 -0.04800
C 	C 	0.26282 0.11269 0.01064 -0.00800
C 	C 	0.29175 0.13818 0.17853 0.01100
C 	C 	0.26778 0.15866 0.21089 -0.02700
C 	C 	0.27815 0.17515 0.26687 -0.03300
C 	C 	0.31276 0.17170 0.28993 0.01000
C 	C 	0.33688 0.15171 0.25671 -0.03400
C 	C 	0.32645 0.13509 0.20126 -0.03400
C 	C 	0.32379 0.18842 0.34955 0.01900
C 	C 	0.31083 0.17941 0.41047 -0.04100
C 	C 	0.32842 0.18869 0.46693 -0.01000
C 	C 	0.35907 0.20706 0.46269 -0.01900
C 	C 	0.36952 0.21874 0.40259 -0.01500
C 	C 	0.35190 0.20950 0.34624 -0.04700
H 	H 	0.27247 0.04340 0.07786 0.05000
H 	H 	0.28638 0.07658 0.17327 0.05400
H 	H 	0.27144 0.15607 0.06031 0.04700
H 	H 	0.25587 0.12284 0.96558 0.04400
H 	H 	0.24088 0.16114 0.19378 0.05200
H 	H 	0.25928 0.19041 0.29243 0.05300
H 	H 	0.36359 0.14880 0.27437 0.04800
H 	H 	0.34520 0.11948 0.17639 0.04600
H 	H 	0.28861 0.16370 0.41369 0.06200
H 	H 	0.31979 0.17984 0.51320 0.05400
H 	H 	0.39268 0.23344 0.39895 0.04200
H 	H 	0.36157 0.21715 0.29953 0.04700
C 	C 	0.36507 0.20097 0.78981 0.11500
C 	C 	0.36219 0.17685 0.83227 -0.08500
C 	C 	0.32809 0.16596 0.84951 0.01200
C 	C 	0.29768 0.17833 0.82438 0.11800
C 	C 	0.30053 0.20326 0.78395 -0.08900
C 	C 	0.33459 0.21452 0.76785 0.02200
O 	O 	0.39455 0.20330 0.74773 -0.19900
C 	C 	0.37853 0.21744 0.69647 0.10200
C 	C 	0.34321 0.22519 0.70908 -0.08600
O 	O 	0.27005 0.15748 0.81715 -0.18700
C 	C 	0.28772 0.13086 0.83271 0.05400
C 	C 	0.32133 0.13611 0.85635 -0.06300
H 	H 	0.38582 0.16408 0.84375 0.07000
H 	H 	0.27740 0.21071 0.75839 0.07400
H 	H 	0.32398 0.22890 0.67181 0.06800
H 	H 	0.34204 0.11879 0.85606 0.06000
C 	C 	0.13462 0.03128 0.79846 0.12200
C 	C 	0.11431 0.01638 0.75087 -0.07800
C 	C 	0.09496 0.03434 0.70905 0.02100
C 	C 	0.09574 0.06588 0.71449 0.13200
C 	C 	0.11748 0.08058 0.76050 -0.08200
C 	C 	0.13470 0.06257 0.80473 0.02900
O 	O 	0.16290 0.01739 0.82796 -0.18400
C 	C 	0.17979 0.04365 0.85269 0.10500
C 	C 	0.16339 0.07071 0.83867 -0.08400
O 	O 	0.06496 0.07961 0.69366 -0.17900
C 	C 	0.04460 0.05361 0.67950 0.06200
C 	C 	0.06280 0.02659 0.68639 -0.05500
H 	H 	0.11346 0.99169 0.74662 0.08300
H 	H 	0.11837 0.10526 0.76516 0.08000
H 	H 	0.17648 0.09272 0.83741 0.07700
H 	H 	0.04985 0.00495 0.69513 0.07400
C 	C 	0.96649 0.27570 0.16290 -0.02000
C 	C 	0.96279 0.25422 0.21142 -0.01400
C 	C 	0.93273 0.25501 0.25354 -0.04500
C 	C 	0.90610 0.27717 0.24708 0.01800
C 	C 	0.90805 0.29641 0.19423 -0.04600
C 	C 	0.93810 0.29564 0.15227 -0.01500
C 	C 	0.87946 0.28335 0.30042 0.00800
C 	C 	0.84277 0.28230 0.28816 -0.03700
C 	C 	0.81778 0.29207 0.33650 -0.03600
C 	C 	0.82931 0.30301 0.39736 0.00700
C 	C 	0.86587 0.30308 0.41031 -0.03600
C 	C 	0.89083 0.29330 0.36211 -0.03600
C 	C 	0.80336 0.31578 0.44646 0.01600
C 	C 	0.78068 0.29636 0.48102 -0.04600
C 	C 	0.75808 0.30826 0.53117 -0.01700
C 	C 	0.75794 0.33976 0.54710 -0.01900
C 	C 	0.77993 0.35926 0.51101 -0.01700
C 	C 	0.80256 0.34730 0.46109 -0.04700
H 	H 	0.98434 0.23845 0.21958 0.04900
H 	H 	0.93111 0.23957 0.29331 0.05300
H 	H 	0.88739 0.31328 0.18810 0.04600
H 	H 	0.94043 0.31199 0.11428 0.04200
H 	H 	0.83369 0.27459 0.24080 0.04600
H 	H 	0.78958 0.29179 0.32620 0.04500
H 	H 	0.87499 0.31129 0.45730 0.04600
H 	H 	0.91906 0.29434 0.37204 0.04600
H 	H 	0.78109 0.27199 0.46999 0.04900
H 	H 	0.74138 0.29290 0.55858 0.04700
H 	H 	0.77970 0.38363 0.52192 0.04200
H 	H 	0.81981 0.36249 0.43428 0.04500
C 	C 	0.83233 0.11353 0.79747 -0.03400
C 	C 	0.85667 0.11470 0.74441 -0.10100
C 	C 	0.84838 0.13271 0.69150 0.13200
C 	C 	0.81399 0.14489 0.68757 -0.05000
C 	C 	0.78821 0.14049 0.73720 -0.09700
C 	C 	0.79862 0.12694 0.79492 0.11800
Br	Br	0.76839 0.12754 0.87208 -0.23300
H 	H 	0.83935 0.10171 0.84054 0.00400
H 	H 	0.80695 0.15704 0.64491 0.06300
Br	Br	0.88414 0.14354 0.62770 -0.20800
C 	C 	0.59264 0.24689 0.70912 0.12100
C 	C 	0.59758 0.27092 0.66683 -0.09000
C 	C 	0.61184 0.29845 0.69138 0.02300
C 	C 	0.62399 0.30125 0.75405 0.11500
C 	C 	0.62036 0.27679 0.79560 -0.08500
C 	C 	0.60293 0.25024 0.77294 0.01200
O 	O 	0.59211 0.21680 0.68571 -0.18700
C 	C 	0.60522 0.20246 0.73948 0.05900
C 	C 	0.61071 0.22209 0.79227 -0.05800
O 	O 	0.65082 0.32287 0.76188 -0.20200
C 	C 	0.65457 0.33180 0.69774 0.10100
C 	C 	0.63138 0.31762 0.65554 -0.08800
H 	H 	0.59387 0.26719 0.61513 0.07100
H 	H 	0.63379 0.27729 0.84153 0.07000
H 	H 	0.62929 0.21762 0.83022 0.06300
H 	H 	0.63600 0.31497 0.60339 0.06400
C 	C 	0.26182 0.09841 0.39740 -0.04200
C 	C 	0.22906 0.11266 0.38679 -0.12700
C 	C 	0.21159 0.12924 0.43845 0.09600
C 	C 	0.22376 0.12724 0.50162 -0.03600
C 	C 	0.25412 0.10975 0.51346 -0.11600
C 	C 	0.27500 0.09776 0.46028 0.07900
Br	Br	0.32305 0.08399 0.47129 -0.34000
H 	H 	0.27683 0.08752 0.35708 0.05700
H 	H 	0.20896 0.13855 0.54166 0.07800
Br	Br	0.17231 0.15600 0.42335 -0.28300
C 	C 	0.12839 0.15415 0.00470 0.11600
C 	C 	0.09399 0.16679 0.00260 -0.07000
C 	C 	0.09064 0.19853 0.99849 -0.00400
C 	C 	0.11999 0.21746 0.00264 0.13200
C 	C 	0.15417 0.20496 0.00819 -0.09000
C 	C 	0.15790 0.17304 0.00634 0.02200
O 	O 	0.13391 0.12625 0.03242 -0.18100
C 	C 	0.16805 0.13107 0.05637 0.06200
C 	C 	0.18298 0.15841 0.03881 -0.06300
O 	O 	0.11191 0.24684 0.02638 -0.20200
C 	C 	0.07528 0.24345 0.03843 0.09800
C 	C 	0.06226 0.21484 0.02177 -0.06700
H 	H 	0.07064 0.15266 0.01028 0.07600
H 	H 	0.17655 0.21958 0.02013 0.07200
H 	H 	0.20366 0.17007 0.06595 0.05400
H 	H 	0.03810 0.20507 0.04238 0.06700
C 	C 	0.47226 0.17607 0.54801 -0.01600
C 	C 	0.49561 0.18276 0.49593 -0.01400
C 	C 	0.52201 0.16178 0.47477 -0.04500
C 	C 	0.52522 0.13397 0.50546 0.02200
C 	C 	0.50395 0.12843 0.56094 -0.04300
C 	C 	0.47766 0.14948 0.58236 -0.01100
C 	C 	0.54675 0.10912 0.47406 0.01300
C 	C 	0.53023 0.08678 0.43468 -0.03300
C 	C 	0.55071 0.06426 0.40126 -0.03300
C 	C 	0.58796 0.06366 0.40741 0.01100
C 	C 	0.60446 0.08604 0.44706 -0.03000
C 	C 	0.58391 0.10862 0.48037 -0.02900
C 	C 	0.60963 0.03963 0.37224 0.02100
C 	C 	0.64027 0.04747 0.33561 -0.04000
C 	C 	0.66137 0.02468 0.30435 -0.00800
C 	C 	0.65164 0.99390 0.30818 -0.00700
C 	C 	0.62023 0.98613 0.34238 -0.01000
C 	C 	0.59964 0.00881 0.37515 -0.04200
H 	H 	0.49210 0.20345 0.46974 0.04300
H 	H 	0.53866 0.16642 0.43240 0.04800
H 	H 	0.50658 0.10716 0.58545 0.06500
H 	H 	0.46002 0.14418 0.62299 0.05300
H 	H 	0.50154 0.08717 0.42920 0.04800
H 	H 	0.53769 0.04749 0.37001 0.04500
H 	H 	0.63316 0.08601 0.45187 0.04900
H 	H 	0.59687 0.12579 0.51073 0.05400
H 	H 	0.64794 0.07118 0.33191 0.05000
H 	H 	0.68563 0.03090 0.27818 0.05600
H 	H 	0.61277 0.96238 0.34636 0.04900
H 	H 	0.57639 0.00237 0.40399 0.04900
C 	C 	0.47294 0.80749 0.63769 -0.01800
C 	C 	0.46863 0.83457 0.60451 -0.01400
C 	C 	0.44262 0.85587 0.62596 -0.04400
C 	C 	0.42058 0.85014 0.68038 0.02100
C 	C 	0.42267 0.82189 0.70968 -0.04700
C 	C 	0.44874 0.80063 0.68841 -0.01600
C 	C 	0.39914 0.87504 0.71198 0.01100
C 	C 	0.41616 0.89901 0.74591 -0.03400
C 	C 	0.39598 0.92198 0.77853 -0.03500
C 	C 	0.35852 0.92144 0.77681 0.00900
C 	C 	0.34149 0.89736 0.74287 -0.03200
C 	C 	0.36173 0.87421 0.71081 -0.02900
C 	C 	0.33716 0.94617 0.81031 0.01900
C 	C 	0.34594 0.97691 0.80119 -0.04200
C 	C 	0.32529 0.00022 0.83161 -0.01200
C 	C 	0.29505 0.99306 0.86970 -0.00800
C 	C 	0.28666 0.96243 0.88001 -0.00800
C 	C 	0.30782 0.93908 0.85102 -0.04100
H 	H 	0.48689 0.84001 0.56487 0.05000
H 	H 	0.44079 0.87745 0.60235 0.06000
H 	H 	0.40539 0.81707 0.75113 0.04700
H 	H 	0.45137 0.77955 0.71363 0.04300
H 	H 	0.44504 0.89961 0.74771 0.04400
H 	H 	0.40945 0.94006 0.80553 0.04400
H 	H 	0.31264 0.89667 0.74105 0.04900
H 	H 	0.34837 0.85576 0.68477 0.05200
H 	H 	0.36817 0.98273 0.76922 0.04800
H 	H 	0.33176 0.02383 0.82295 0.04600
H 	H 	0.26335 0.95670 0.90943 0.05400
H 	H 	0.30116 0.91551 0.85958 0.04900
C 	C 	0.58345 0.77349 0.72810 -0.01900
C 	C 	0.57162 0.76113 0.78678 -0.01500
C 	C 	0.58817 0.76949 0.84485 -0.04900
C 	C 	0.61648 0.79046 0.84472 0.02100
C 	C 	0.63055 0.80033 0.78525 -0.04400
C 	C 	0.61422 0.79177 0.72710 -0.01300
C 	C 	0.62731 0.80575 0.90632 0.00200
C 	C 	0.60209 0.82257 0.94471 -0.02100
C 	C 	0.61276 0.83970 0.99936 -0.05700
C 	C 	0.64881 0.84037 0.01608 0.03600
C 	C 	0.67385 0.82256 0.97936 -0.04300
C 	C 	0.66320 0.80551 0.92431 -0.02300
C 	C 	0.66065 0.86174 0.06832 0.01600
C 	C 	0.67572 0.85070 0.12447 -0.03900
C 	C 	0.68507 0.87102 0.17536 -0.01000
C 	C 	0.67905 0.90249 0.17066 -0.01400
C 	C 	0.66445 0.91347 0.11408 -0.01300
C 	C 	0.65537 0.89323 0.06320 -0.04400
H 	H 	0.54832 0.74651 0.78796 0.04100
H 	H 	0.57765 0.76109 0.89034 0.04600
H 	H 	0.65265 0.81614 0.78449 0.05800
H 	H 	0.62387 0.80119 0.68200 0.05400
H 	H 	0.57437 0.82306 0.93109 0.04100
H 	H 	0.59318 0.85313 0.02776 0.05600
H 	H 	0.70172 0.82275 0.99215 0.05400
H 	H 	0.68291 0.79266 0.89499 0.04500
H 	H 	0.67982 0.82643 0.12897 0.05600
H 	H 	0.69672 0.86230 0.21846 0.05600
H 	H 	0.66027 0.93773 0.10941 0.05200
H 	H 	0.64380 0.90197 0.02008 0.06900
C 	C 	0.02491 0.03684 0.37533 -0.02800
C 	C 	0.01795 0.00926 0.34101 -0.09800
C 	C 	0.02882 0.00582 0.27504 0.11600
C 	C 	0.05105 0.02768 0.24742 -0.02700
C 	C 	0.06173 0.05355 0.28442 -0.08800
C 	C 	0.04560 0.05945 0.34660 0.10200
Br	Br	0.04724 0.09915 0.38955 -0.27800
H 	H 	0.01458 0.04064 0.42470 0.07500
H 	H 	0.06073 0.02414 0.19759 0.08600
Br	Br	0.01194 0.97254 0.22071 -0.21400
C 	C 	0.10782 0.02206 0.53887 -0.04200
C 	C 	0.10030 0.99103 0.54701 -0.08900
C 	C 	0.12333 0.97347 0.58339 0.11800
C 	C 	0.15481 0.98636 0.60705 -0.04500
C 	C 	0.16336 0.01691 0.59581 -0.08200
C 	C 	0.13906 0.03510 0.56353 0.10700
Br	Br	0.14852 0.07750 0.55099 -0.36400
H 	H 	0.08995 0.03582 0.51161 0.04700
H 	H 	0.17331 0.97226 0.63202 0.06200
Br	Br	0.11353 0.93127 0.59755 -0.36200
C 	C 	0.80578 0.95070 0.39608 0.12200
C 	C 	0.82234 0.96318 0.45109 -0.07800
C 	C 	0.83979 0.94325 0.49171 0.02400
C 	C 	0.84035 0.91205 0.47828 0.13300
C 	C 	0.82161 0.89964 0.42535 -0.08400
C 	C 	0.80674 0.91983 0.38256 0.02900
O 	O 	0.77956 0.96597 0.36387 -0.18100
C 	C 	0.76478 0.94098 0.32986 0.10500
C 	C 	0.78063 0.91329 0.34110 -0.08500
O 	O 	0.87052 0.89774 0.50015 -0.17500
C 	C 	0.88944 0.92324 0.52303 0.06400
C 	C 	0.87051 0.95021 0.52097 -0.05600
H 	H 	0.82221 0.98760 0.46141 0.08600
H 	H 	0.82167 0.87527 0.41455 0.08200
H 	H 	0.76791 0.89121 0.33492 0.07900
H 	H 	0.88292 0.97254 0.51986 0.07100
C 	C 	0.77808 0.99162 0.59833 -0.06200
C 	C 	0.77436 0.96058 0.61089 -0.08400
C 	C 	0.80073 0.94584 0.64569 0.10600
C 	C 	0.82888 0.96281 0.67227 -0.05900
C 	C 	0.83159 0.99421 0.66230 -0.09000
C 	C 	0.80704 0.00827 0.62242 0.12400
Br	Br	0.81327 0.04992 0.59896 -0.35900
H 	H 	0.75806 0.00298 0.57110 0.03900
H 	H 	0.84833 0.95167 0.70134 0.02700
Br	Br	0.79955 0.90243 0.65466 -0.34300
C 	C 	0.62320 0.01031 0.54634 -0.06900
C 	C 	0.65474 0.00262 0.51108 -0.12000
C 	C 	0.68140 0.02496 0.50308 0.10100
C 	C 	0.67842 0.05290 0.53773 -0.05700
C 	C 	0.64908 0.05897 0.58039 -0.12300
C 	C 	0.61975 0.03863 0.57969 0.12400
Br	Br	0.57351 0.05015 0.61555 -0.23300
H 	H 	0.60149 0.99401 0.54867 0.04400
H 	H 	0.69947 0.06964 0.53271 -0.01400
Br	Br	0.72244 0.01798 0.44628 -0.24600
C 	C 	0.65065 0.80219 0.36105 0.12100
C 	C 	0.64724 0.77850 0.40464 -0.09000
C 	C 	0.61295 0.76805 0.42163 0.02500
C 	C 	0.58277 0.78137 0.39803 0.11500
C 	C 	0.58616 0.80441 0.35300 -0.08400
C 	C 	0.62052 0.81429 0.33433 0.01200
O 	O 	0.67874 0.82274 0.36576 -0.18500
C 	C 	0.66154 0.84921 0.34789 0.05200
C 	C 	0.62798 0.84378 0.32405 -0.06100
O 	O 	0.55308 0.78013 0.43999 -0.20000
C 	C 	0.56861 0.76652 0.49243 0.10200
C 	C 	0.60397 0.75850 0.48122 -0.08700
H 	H 	0.67016 0.77147 0.43132 0.07800
H 	H 	0.56281 0.81719 0.34010 0.07000
H 	H 	0.60760 0.86129 0.32205 0.06100
H 	H 	0.62294 0.75538 0.51920 0.07100
C 	C 	0.06949 0.34352 0.15275 -0.01700
C 	C 	0.05072 0.37129 0.15456 -0.01700
C 	C 	0.06549 0.39743 0.18403 -0.04700
C 	C 	0.09910 0.39602 0.21206 0.01600
C 	C 	0.11853 0.36861 0.20791 -0.04600
C 	C 	0.10384 0.34247 0.17818 -0.01600
C 	C 	0.11288 0.42264 0.24924 0.00600
C 	C 	0.12377 0.44882 0.21704 -0.03800
C 	C 	0.13572 0.47445 0.25264 -0.03700
C 	C 	0.13671 0.47411 0.32069 0.00600
C 	C 	0.12588 0.44792 0.35286 -0.03700
C 	C 	0.11407 0.42226 0.31726 -0.03800
C 	C 	0.14939 0.50108 0.35816 0.01600
C 	C 	0.12521 0.51910 0.39620 -0.04700
C 	C 	0.13714 0.54508 0.43067 -0.01800
C 	C 	0.17343 0.55320 0.42749 -0.02000
C 	C 	0.19767 0.53478 0.39014 -0.01700
C 	C 	0.18566 0.50892 0.35552 -0.04700
H 	H 	0.02437 0.37245 0.13441 0.04300
H 	H 	0.05042 0.41857 0.18664 0.04500
H 	H 	0.14463 0.36740 0.22901 0.04800
H 	H 	0.11859 0.32118 0.17711 0.04900
H 	H 	0.12289 0.44931 0.16454 0.04400
H 	H 	0.14407 0.49459 0.22744 0.04400
H 	H 	0.12668 0.44746 0.40537 0.04300
H 	H 	0.10555 0.40218 0.34250 0.04400
H 	H 	0.09713 0.51316 0.39850 0.04600
H 	H 	0.11809 0.55914 0.45889 0.04400
H 	H 	0.22581 0.54049 0.38797 0.04600
H 	H 	0.20453 0.49496 0.32664 0.04700
C 	C 	0.84466 0.62056 0.01782 -0.01700
C 	C 	0.85896 0.59149 0.02676 -0.00600
C 	C 	0.84345 0.56567 0.99735 -0.06600
C 	C 	0.81372 0.56872 0.95815 0.02100
C 	C 	0.79815 0.59759 0.95234 -0.04900
C 	C 	0.81348 0.62341 0.98235 -0.02300
C 	C 	0.80087 0.54220 0.91895 0.00300
C 	C 	0.82418 0.52680 0.87415 -0.03700
C 	C 	0.81221 0.50164 0.83714 -0.03900
C 	C 	0.77671 0.49179 0.84409 0.00600
C 	C 	0.75329 0.50731 0.88853 -0.03900
C 	C 	0.76535 0.53237 0.92593 -0.03700
C 	C 	0.76418 0.46503 0.80525 0.01500
C 	C 	0.75057 0.43942 0.83638 -0.04600
C 	C 	0.73924 0.41391 0.79967 -0.01700
C 	C 	0.74159 0.41369 0.73144 -0.01900
C 	C 	0.75538 0.43925 0.70031 -0.01800
C 	C 	0.76649 0.46484 0.73704 -0.04700
H 	H 	0.88281 0.58902 0.05467 0.03900
H 	H 	0.85525 0.54341 0.00322 0.05400
H 	H 	0.77504 0.60018 0.92258 0.04600
H 	H 	0.80216 0.64575 0.97533 0.04200
H 	H 	0.85157 0.53437 0.86799 0.04100
H 	H 	0.83054 0.48974 0.80324 0.04200
H 	H 	0.72579 0.49998 0.89403 0.04300
H 	H 	0.74716 0.54407 0.96040 0.04100
H 	H 	0.74900 0.43921 0.88899 0.04500
H 	H 	0.72891 0.39423 0.82427 0.04800
H 	H 	0.75705 0.43946 0.64770 0.04200
H 	H 	0.77680 0.48455 0.71254 0.04500
C 	C 	0.95401 0.68058 0.99991 -0.02100
C 	C 	0.97830 0.65616 0.99931 -0.02500
C 	C 	0.00874 0.65616 0.95843 -0.04200
C 	C 	0.01538 0.68070 0.91805 0.01700
C 	C 	0.99270 0.70629 0.92270 -0.04600
C 	C 	0.96210 0.70622 0.96349 -0.01400
C 	C 	0.04341 0.67798 0.86594 0.00800
C 	C 	0.07873 0.67091 0.88111 -0.03700
C 	C 	0.10392 0.66354 0.83139 -0.03700
C 	C 	0.09409 0.66346 0.76613 0.00700
C 	C 	0.05931 0.67198 0.75086 -0.03600
C 	C 	0.03406 0.67913 0.80050 -0.03500
C 	C 	0.11927 0.65223 0.71410 0.01700
C 	C 	0.12753 0.62101 0.70760 -0.04700
C 	C 	0.14856 0.60980 0.65468 -0.01700
C 	C 	0.16166 0.62973 0.60787 -0.01800
C 	C 	0.15433 0.66113 0.61557 -0.01500
C 	C 	0.13312 0.67230 0.66836 -0.04500
H 	H 	0.97265 0.63647 0.02809 0.04900
H 	H 	0.02622 0.63642 0.95579 0.04300
H 	H 	0.99794 0.72564 0.89272 0.05200
H 	H 	0.94374 0.72533 0.96396 0.05000
H 	H 	0.08637 0.67026 0.93139 0.04400
H 	H 	0.13081 0.65724 0.84362 0.04400
H 	H 	0.05152 0.67206 0.70060 0.04700
H 	H 	0.00689 0.68445 0.78815 0.04700
H 	H 	0.11698 0.60535 0.74274 0.04500
H 	H 	0.15433 0.58559 0.64970 0.04300
H 	H 	0.16420 0.67674 0.57975 0.05100
H 	H 	0.12693 0.69644 0.67305 0.05400
C 	C 	0.70071 0.98814 0.84340 -0.04400
C 	C 	0.73256 0.98500 0.87699 -0.08400
C 	C 	0.75494 0.01052 0.88588 0.11500
C 	C 	0.74696 0.03793 0.85657 -0.04200
C 	C 	0.71669 0.04022 0.81831 -0.08300
C 	C 	0.69294 0.01541 0.81332 0.11400
Br	Br	0.65184 0.01708 0.75986 -0.34200
H 	H 	0.68325 0.96866 0.83657 0.06100
H 	H 	0.76532 0.05694 0.86080 0.05700
Br	Br	0.79810 0.00767 0.93330 -0.36100
C 	C 	0.72081 0.84314 0.75453 -0.05100
C 	C 	0.70915 0.86305 0.80586 -0.10000
C 	C 	0.67900 0.88178 0.79748 0.11600
C 	C 	0.66519 0.88413 0.73562 -0.04800
C 	C 	0.68047 0.86745 0.68222 -0.10600
C 	C 	0.70569 0.84447 0.69340 0.13200
Br	Br	0.71627 0.81244 0.62937 -0.22000
H 	H 	0.74194 0.82685 0.76197 0.06700
H 	H 	0.64340 0.89983 0.72873 0.01100
Br	Br	0.65533 0.90361 0.86914 -0.26000
C 	C 	0.87972 0.96391 0.95128 -0.03300
C 	C 	0.86844 0.93672 0.91994 -0.11200
C 	C 	0.88545 0.92681 0.86070 0.09100
C 	C 	0.90913 0.94633 0.82894 -0.03600
C 	C 	0.91755 0.97494 0.85744 -0.12100
C 	C 	0.90456 0.98274 0.92079 0.09400
Br	Br	0.92108 0.01867 0.96712 -0.28100
H 	H 	0.86851 0.97083 0.99869 0.07900
H 	H 	0.92034 0.93950 0.78146 0.06900
Br	Br	0.88004 0.88579 0.82604 -0.31500
C 	C 	0.84283 0.76418 0.17871 0.11800
C 	C 	0.84523 0.79608 0.18397 -0.08100
C 	C 	0.81349 0.81331 0.18581 0.01700
C 	C 	0.78087 0.79955 0.17538 0.12300
C 	C 	0.77864 0.76764 0.16820 -0.08900
C 	C 	0.80985 0.75033 0.17396 0.02400
O 	O 	0.87106 0.74626 0.15360 -0.19500
C 	C 	0.85183 0.72063 0.13252 0.10200
C 	C 	0.81547 0.72278 0.14450 -0.08500
O 	O 	0.75641 0.81831 0.14683 -0.19800
C 	C 	0.77790 0.84382 0.13678 0.06100
C 	C 	0.81136 0.84145 0.16253 -0.05800
H 	H 	0.87101 0.80718 0.18018 0.07900
H 	H 	0.75414 0.75693 0.15241 0.07000
H 	H 	0.79560 0.71001 0.11755 0.06500
H 	H 	0.83441 0.85419 0.14562 0.06900
C 	C 	0.22017 0.99497 0.36802 -0.05500
C 	C 	0.18871 0.99506 0.33268 -0.08400
C 	C 	0.16888 0.96793 0.32485 0.11800
C 	C 	0.17910 0.94172 0.35642 -0.05400
C 	C 	0.20938 0.94218 0.39494 -0.08700
C 	C 	0.23073 0.96861 0.39871 0.12800
Br	Br	0.27465 0.96893 0.44467 -0.35000
H 	H 	0.23577 0.01569 0.37355 0.02600
H 	H 	0.16303 0.92121 0.35220 0.02600
Br	Br	0.12786 0.96633 0.27099 -0.33800
C 	C 	0.08724 0.85750 0.52639 -0.03400
C 	C 	0.07197 0.86903 0.47093 -0.10900
C 	C 	0.08804 0.86209 0.40917 0.08800
C 	C 	0.12198 0.84866 0.40482 -0.03500
C 	C 	0.13902 0.84023 0.46124 -0.12000
C 	C 	0.12025 0.84257 0.52156 0.09200
Br	Br	0.13853 0.82448 0.59732 -0.30200
H 	H 	0.07393 0.86078 0.57358 0.07900
H 	H 	0.13533 0.84531 0.35768 0.06700
Br	Br	0.06261 0.86714 0.33057 -0.30900
C 	C 	0.25800 0.92298 0.65313 -0.03900
C 	C 	0.28461 0.91227 0.60847 -0.10500
C 	C 	0.31631 0.92932 0.60080 0.13500
C 	C 	0.31846 0.95866 0.62982 -0.05400
C 	C 	0.28964 0.97099 0.66741 -0.09300
C 	C 	0.26032 0.95199 0.68289 0.11300
Br	Br	0.22329 0.96424 0.74517 -0.23200
H 	H 	0.23484 0.90902 0.66360 0.00000
H 	H 	0.34227 0.97220 0.62181 0.06100
Br	Br	0.35815 0.91216 0.55712 -0.22900
C 	C 	0.29842 0.67139 0.43493 0.11600
C 	C 	0.31805 0.69683 0.45634 -0.08400
C 	C 	0.32086 0.72189 0.41612 0.01500
C 	C 	0.30151 0.72311 0.36011 0.12000
C 	C 	0.28128 0.69782 0.33933 -0.08800
C 	C 	0.28202 0.67141 0.37566 0.02300
O 	O 	0.28309 0.65140 0.47842 -0.20100
C 	C 	0.25599 0.63958 0.43982 0.10200
C 	C 	0.25514 0.65121 0.37875 -0.08600
O 	O 	0.29233 0.75257 0.34424 -0.18300
C 	C 	0.30630 0.76878 0.39741 0.06100
C 	C 	0.32426 0.75077 0.43914 -0.06000
H 	H 	0.32766 0.69831 0.50551 0.07100
H 	H 	0.26293 0.69973 0.29997 0.07400
H 	H 	0.23150 0.65181 0.34964 0.06500
H 	H 	0.32841 0.75700 0.48987 0.06400
