data_crystal

_cell_length_a 39.07948
_cell_length_b 39.48669
_cell_length_c 30.67165
_cell_angle_alpha 90.00663
_cell_angle_beta  89.99923
_cell_angle_gamma 90.00716

_symmetry_space_group_name_	'P 1'
_symmetry_space_group_name_H-M	'P 1'

loop_
_symmetry_equiv_pos_as_xyz
  x,y,z

loop_
_atom_site_label
_atom_site_type_symbol
_atom_site_fract_x
_atom_site_fract_y
_atom_site_fract_z
_atom_site_charge
Zn	Zn	0.59660 0.05921 0.73184 1.20500
Zn	Zn	0.54553 0.01512 0.67843 1.21900
Zn	Zn	0.54981 0.11945 0.70520 1.22500
P 	P 	0.52482 0.05972 0.75182 0.30700
P 	P 	0.57876 0.07399 0.64082 0.30600
C 	C 	0.49446 0.16378 0.70265 0.27200
C 	C 	0.61083 0.12676 0.75914 0.29200
C 	C 	0.60758 0.98860 0.72381 0.29500
O 	O 	0.55873 0.04119 0.76676 -0.43000
O 	O 	0.60769 0.08010 0.67611 -0.43000
O 	O 	0.51461 0.04864 0.70345 -0.41000
O 	O 	0.54363 0.09094 0.65530 -0.43700
O 	O 	0.53023 0.09964 0.75634 -0.40600
O 	O 	0.57441 0.03425 0.63300 -0.39400
O 	O 	0.52799 0.16267 0.70102 -0.39400
O 	O 	0.47138 0.00308 0.65859 -0.21100
O 	O 	0.47700 0.13600 0.71042 -0.22200
O 	O 	0.59737 0.13432 0.72086 -0.41300
O 	O 	0.57379 0.98742 0.72069 -0.42600
O 	O 	0.61303 0.09486 0.77166 -0.41900
O 	O 	0.62342 0.01802 0.72420 -0.41500
C 	C 	0.49086 0.98183 0.63699 0.26700
O 	O 	0.52309 0.97834 0.64825 -0.39900
Zn	Zn	0.36398 0.87200 0.26113 1.20200
Zn	Zn	0.40544 0.90303 0.33521 1.21600
Zn	Zn	0.42513 0.88680 0.20076 1.21900
P 	P 	0.43131 0.84617 0.28149 0.30700
P 	P 	0.39196 0.93981 0.25356 0.30500
C 	C 	0.49012 0.89735 0.16562 0.26700
C 	C 	0.35910 0.85599 0.17138 0.29700
C 	C 	0.33439 0.87616 0.34481 0.29500
O 	O 	0.39238 0.83914 0.29246 -0.43500
O 	O 	0.36240 0.91686 0.23433 -0.43400
O 	O 	0.44227 0.88187 0.30170 -0.41500
O 	O 	0.42828 0.92409 0.24150 -0.42100
O 	O 	0.43644 0.84469 0.22968 -0.40100
O 	O 	0.38715 0.94283 0.30528 -0.39700
O 	O 	0.45861 0.88980 0.15410 -0.38200
O 	O 	0.43650 0.96938 0.36422 -0.22200
O 	O 	0.49753 0.90060 0.20720 -0.22600
O 	O 	0.38135 0.88091 0.16512 -0.40400
O 	O 	0.36658 0.87333 0.35758 -0.41300
O 	O 	0.35353 0.84417 0.21080 -0.43600
O 	O 	0.32717 0.87854 0.30312 -0.42700
C 	C 	0.43185 0.94935 0.39788 0.27500
O 	O 	0.41899 0.91897 0.39226 -0.39100
Zn	Zn	0.70054 0.86443 0.97671 1.20500
Zn	Zn	0.75206 0.81787 0.92578 1.21900
Zn	Zn	0.64455 0.83138 0.91762 1.22200
P 	P 	0.69085 0.79096 0.97167 0.30200
P 	P 	0.70499 0.86424 0.88184 0.30300
C 	C 	0.59967 0.80205 0.85643 0.27500
C 	C 	0.63062 0.87977 0.98803 0.28300
C 	C 	0.77174 0.86690 0.99391 0.29100
O 	O 	0.70650 0.81953 0.00210 -0.42100
O 	O 	0.69259 0.88705 0.92129 -0.43200
O 	O 	0.71260 0.78754 0.92768 -0.41100
O 	O 	0.68303 0.83042 0.87880 -0.42500
O 	O 	0.65111 0.79827 0.96273 -0.41500
O 	O 	0.74486 0.85621 0.88688 -0.40600
O 	O 	0.60125 0.82091 0.89158 -0.39900
O 	O 	0.77272 0.74531 0.91068 -0.21700
O 	O 	0.62778 0.78931 0.83965 -0.22700
O 	O 	0.63014 0.87544 0.94535 -0.41900
O 	O 	0.77043 0.83445 0.98348 -0.42400
O 	O 	0.65976 0.87810 0.00931 -0.40300
O 	O 	0.74408 0.88574 0.99134 -0.41500
C 	C 	0.79570 0.76603 0.89442 0.27100
O 	O 	0.79405 0.79847 0.90365 -0.40300
Zn	Zn	0.90004 0.63740 0.51124 1.20200
Zn	Zn	0.86929 0.67715 0.58896 1.21800
Zn	Zn	0.88247 0.70019 0.45511 1.22000
P 	P 	0.92550 0.70462 0.53390 0.30700
P 	P 	0.83093 0.66571 0.50814 0.30300
C 	C 	0.85978 0.75926 0.41192 0.27100
C 	C 	0.91450 0.63729 0.42079 0.29400
C 	C 	0.89770 0.60739 0.59502 0.29400
O 	O 	0.93355 0.66576 0.54187 -0.43200
O 	O 	0.85370 0.63686 0.48700 -0.42300
O 	O 	0.89011 0.71467 0.55688 -0.41200
O 	O 	0.84631 0.70214 0.49761 -0.43300
O 	O 	0.92537 0.71191 0.48248 -0.40800
O 	O 	0.82873 0.65957 0.55957 -0.40100
O 	O 	0.87824 0.73169 0.40713 -0.40500
O 	O 	0.90283 0.71008 0.66711 -0.21800
O 	O 	0.84394 0.76484 0.44899 -0.21700
O 	O 	0.88743 0.65737 0.41907 -0.42300
O 	O 	0.90064 0.63909 0.60828 -0.41300
O 	O 	0.92661 0.62744 0.45873 -0.41500
O 	O 	0.89449 0.60065 0.55325 -0.42400
C 	C 	0.87158 0.70041 0.67674 0.27900
O 	O 	0.85187 0.68744 0.64635 -0.40200
Zn	Zn	0.12300 0.16387 0.76843 1.20200
Zn	Zn	0.08744 0.12802 0.84678 1.21800
Zn	Zn	0.05812 0.14322 0.71559 1.22200
P 	P 	0.05381 0.18112 0.79693 0.30200
P 	P 	0.10024 0.09392 0.76145 0.30400
C 	C 	0.99225 0.12427 0.68625 0.27200
C 	C 	0.11602 0.18205 0.67860 0.29400
C 	C 	0.15624 0.16010 0.85173 0.29900
O 	O 	0.08464 0.19611 0.76948 -0.42400
O 	O 	0.13323 0.11525 0.77380 -0.42200
O 	O 	0.06744 0.17242 0.84468 -0.40300
O 	O 	0.08714 0.10530 0.71419 -0.42700
O 	O 	0.03866 0.14840 0.77364 -0.43000
O 	O 	0.07191 0.09774 0.79891 -0.41200
O 	O 	0.01926 0.14264 0.67688 -0.39600
O 	O 	0.07750 0.15443 0.93563 -0.21900
O 	O 	0.99190 0.10570 0.72178 -0.23100
O 	O 	0.08304 0.18252 0.68811 -0.41800
O 	O 	0.13856 0.13178 0.85614 -0.40700
O 	O 	0.13864 0.17455 0.70895 -0.40800
O 	O 	0.15189 0.17932 0.81703 -0.42300
C 	C 	0.07273 0.12151 0.93611 0.27200
O 	O 	0.07715 0.10393 0.90013 -0.40000
Zn	Zn	0.87500 0.98673 0.24081 1.20500
Zn	Zn	0.92888 0.02993 0.19028 1.21800
Zn	Zn	0.91783 0.92487 0.21028 1.22500
P 	P 	0.94657 0.98130 0.26087 0.30600
P 	P 	0.89207 0.97465 0.14866 0.30400
C 	C 	0.96946 0.87710 0.20073 0.27200
C 	C 	0.85690 0.91936 0.26390 0.29200
C 	C 	0.86712 0.05790 0.23505 0.29400
O 	O 	0.91374 0.00130 0.27671 -0.43100
O 	O 	0.86284 0.96904 0.18369 -0.43200
O 	O 	0.95724 0.99336 0.21311 -0.41100
O 	O 	0.92580 0.95432 0.16148 -0.42200
O 	O 	0.93890 0.94159 0.26268 -0.40600
O 	O 	0.89950 0.01422 0.14342 -0.40700
O 	O 	0.93619 0.88021 0.20443 -0.38900
O 	O 	0.00327 0.03558 0.17010 -0.21000
O 	O 	0.98884 0.90430 0.20073 -0.22700
O 	O 	0.86935 0.91289 0.22481 -0.41100
O 	O 	0.90102 0.05783 0.23328 -0.41300
O 	O 	0.85638 0.95076 0.27847 -0.42000
O 	O 	0.85019 0.02910 0.23555 -0.43000
C 	C 	0.98656 0.06074 0.15198 0.26500
O 	O 	0.95442 0.06610 0.16263 -0.39700
Zn	Zn	0.10580 0.91706 0.52006 1.20300
Zn	Zn	0.13603 0.86823 0.59035 1.21800
Zn	Zn	0.11555 0.85691 0.45519 1.22000
P 	P 	0.07542 0.85048 0.53622 0.30600
P 	P 	0.17189 0.88264 0.50856 0.30500
C 	C 	0.14023 0.80743 0.39641 0.26900
C 	C 	0.08730 0.92398 0.43113 0.29200
C 	C 	0.11787 0.93935 0.60626 0.29000
O 	O 	0.07122 0.88907 0.54972 -0.42500
O 	O 	0.15111 0.91487 0.49277 -0.43200
O 	O 	0.11050 0.83558 0.55524 -0.41300
O 	O 	0.15273 0.84869 0.49486 -0.42300
O 	O 	0.07283 0.84726 0.48419 -0.41000
O 	O 	0.17689 0.88442 0.56025 -0.40600
O 	O 	0.11511 0.82891 0.40333 -0.40200
O 	O 	0.10086 0.83554 0.66711 -0.21800
O 	O 	0.16637 0.80667 0.42325 -0.21200
O 	O 	0.11296 0.90260 0.42535 -0.42400
O 	O 	0.10977 0.90775 0.61548 -0.41300
O 	O 	0.07818 0.93289 0.47080 -0.41200
O 	O 	0.11715 0.94991 0.56564 -0.42000
C 	C 	0.13322 0.84124 0.67594 0.27900
O 	O 	0.15379 0.85240 0.64531 -0.40400
Zn	Zn	0.31621 0.67880 0.96019 1.20600
Zn	Zn	0.26022 0.72127 0.91254 1.21900
Zn	Zn	0.36869 0.72027 0.90593 1.22300
P 	P 	0.31735 0.75232 0.96235 0.30600
P 	P 	0.31281 0.68352 0.86527 0.30300
C 	C 	0.40984 0.76636 0.86014 0.27600
C 	C 	0.38731 0.66928 0.97164 0.29200
C 	C 	0.24610 0.66528 0.97379 0.29300
O 	O 	0.30408 0.72092 0.98978 -0.42200
O 	O 	0.32721 0.66032 0.90319 -0.43300
O 	O 	0.29599 0.75564 0.91809 -0.41100
O 	O 	0.33116 0.71944 0.86558 -0.42700
O 	O 	0.35771 0.74910 0.95424 -0.41500
O 	O 	0.27221 0.68710 0.86958 -0.41000
O 	O 	0.41038 0.73808 0.88255 -0.39800
O 	O 	0.23029 0.79134 0.91017 -0.21700
O 	O 	0.38091 0.78277 0.85482 -0.23200
O 	O 	0.38826 0.67663 0.92962 -0.41700
O 	O 	0.24316 0.69826 0.96732 -0.41100
O 	O 	0.35788 0.66818 0.99230 -0.41200
O 	O 	0.27634 0.65086 0.97186 -0.42600
C 	C 	0.21046 0.77001 0.88916 0.27300
O 	O 	0.21644 0.73737 0.89194 -0.40100
Zn	Zn	0.19685 0.37376 0.47295 1.20500
Zn	Zn	0.23351 0.31559 0.42183 1.21800
Zn	Zn	0.12966 0.34248 0.43672 1.22300
P 	P 	0.17890 0.30295 0.48761 0.30400
P 	P 	0.18562 0.36218 0.37995 0.30400
C 	C 	0.07304 0.31463 0.39320 0.27200
C 	C 	0.13238 0.40029 0.49610 0.29200
C 	C 	0.26904 0.36808 0.47437 0.29800
O 	O 	0.20223 0.33222 0.50685 -0.43400
O 	O 	0.18270 0.39067 0.41610 -0.42700
O 	O 	0.19227 0.29169 0.44046 -0.41000
O 	O 	0.16055 0.33151 0.39030 -0.43400
O 	O 	0.13975 0.31496 0.48676 -0.40200
O 	O 	0.22439 0.34958 0.37709 -0.39300
O 	O 	0.08227 0.33505 0.42478 -0.39200
O 	O 	0.23312 0.24222 0.39610 -0.22700
O 	O 	0.09642 0.29932 0.36959 -0.23200
O 	O 	0.12505 0.39095 0.45590 -0.41500
O 	O 	0.26281 0.33533 0.46980 -0.42800
O 	O 	0.16376 0.39672 0.51091 -0.41800
O 	O 	0.24386 0.39005 0.47164 -0.41700
C 	C 	0.26111 0.25697 0.38185 0.26900
O 	O 	0.26837 0.28791 0.39461 -0.38900
Zn	Zn	0.39167 0.13614 0.01617 1.20300
Zn	Zn	0.36006 0.17664 0.09095 1.21600
Zn	Zn	0.37280 0.19634 0.95547 1.22000
P 	P 	0.41581 0.20347 0.03444 0.30800
P 	P 	0.32174 0.16333 0.01107 0.30600
C 	C 	0.35789 0.25752 0.91076 0.27100
C 	C 	0.40335 0.13141 0.92539 0.29600
C 	C 	0.38940 0.10668 0.09990 0.29500
O 	O 	0.42503 0.16544 0.04582 -0.41700
O 	O 	0.34518 0.13389 0.99266 -0.43600
O 	O 	0.37984 0.21305 0.05597 -0.42400
O 	O 	0.33648 0.19956 0.99776 -0.42300
O 	O 	0.41598 0.20786 0.98246 -0.41000
O 	O 	0.31882 0.15928 0.06289 -0.39800
O 	O 	0.36965 0.22656 0.90559 -0.40200
O 	O 	0.39116 0.22415 0.15530 -0.23700
O 	O 	0.34703 0.26725 0.94930 -0.21700
O 	O 	0.37690 0.15219 0.92212 -0.42200
O 	O 	0.39123 0.13864 0.11267 -0.41000
O 	O 	0.41765 0.12588 0.96352 -0.41800
O 	O 	0.38713 0.09949 0.05823 -0.42300
C 	C 	0.36228 0.21221 0.17096 0.27600
O 	O 	0.34443 0.19036 0.14805 -0.38900
Zn	Zn	0.64089 0.66269 0.26460 1.20200
Zn	Zn	0.59369 0.63531 0.33683 1.21600
Zn	Zn	0.57960 0.65614 0.20192 1.22000
P 	P 	0.57647 0.69602 0.28340 0.30600
P 	P 	0.60388 0.59903 0.25423 0.30300
C 	C 	0.51691 0.64755 0.15932 0.26800
C 	C 	0.64896 0.67977 0.17557 0.29700
C 	C 	0.66732 0.65097 0.34885 0.29300
O 	O 	0.61576 0.69838 0.29590 -0.42700
O 	O 	0.63684 0.61813 0.23695 -0.42600
O 	O 	0.56066 0.66186 0.30298 -0.40700
O 	O 	0.57040 0.61986 0.24207 -0.43800
O 	O 	0.57261 0.69874 0.23141 -0.40600
O 	O 	0.60693 0.59409 0.30586 -0.40000
O 	O 	0.54873 0.65688 0.15249 -0.38700
O 	O 	0.54420 0.66495 0.40160 -0.23000
O 	O 	0.50655 0.64154 0.19934 -0.23100
O 	O 	0.62481 0.65681 0.16896 -0.40800
O 	O 	0.63589 0.65913 0.36079 -0.41100
O 	O 	0.65656 0.68952 0.21539 -0.43200
O 	O 	0.67553 0.65038 0.30738 -0.42400
C 	C 	0.55558 0.63565 0.41582 0.27500
O 	O 	0.57766 0.61840 0.39239 -0.39000
Zn	Zn	0.39127 0.47362 0.72296 1.20600
Zn	Zn	0.45071 0.50659 0.66814 1.21900
Zn	Zn	0.41989 0.40472 0.68900 1.22300
P 	P 	0.46249 0.45396 0.73556 0.30300
P 	P 	0.40111 0.45958 0.63034 0.30400
C 	C 	0.43765 0.34507 0.64385 0.27300
C 	C 	0.36367 0.41136 0.75097 0.29100
C 	C 	0.39917 0.54485 0.71911 0.29600
O 	O 	0.43427 0.47866 0.75473 -0.42300
O 	O 	0.37282 0.45845 0.66730 -0.42900
O 	O 	0.47351 0.46536 0.68753 -0.41700
O 	O 	0.43100 0.43333 0.64033 -0.42100
O 	O 	0.44919 0.41562 0.73730 -0.41000
O 	O 	0.41533 0.49732 0.62530 -0.40700
O 	O 	0.42543 0.35702 0.68057 -0.39100
O 	O 	0.52165 0.50060 0.63244 -0.23200
O 	O 	0.44401 0.36567 0.61122 -0.22500
O 	O 	0.37136 0.40275 0.71061 -0.41200
O 	O 	0.43203 0.53741 0.71503 -0.42500
O 	O 	0.36805 0.44288 0.76365 -0.41700
O 	O 	0.37622 0.52051 0.71957 -0.41700
C 	C 	0.50877 0.53025 0.62208 0.27000
O 	O 	0.47919 0.53953 0.63856 -0.39000
Zn	Zn	0.78487 0.17100 0.48929 1.20400
Zn	Zn	0.73587 0.22069 0.44178 1.21700
Zn	Zn	0.84227 0.21920 0.45882 1.22400
P 	P 	0.78429 0.24155 0.51218 0.30500
P 	P 	0.79418 0.19110 0.39757 0.30500
C 	C 	0.88577 0.27385 0.44453 0.27400
C 	C 	0.85451 0.15746 0.50868 0.29300
C 	C 	0.71407 0.15667 0.48509 0.29500
O 	O 	0.76747 0.20701 0.52729 -0.42900
O 	O 	0.80272 0.16188 0.43121 -0.43300
O 	O 	0.76959 0.25242 0.46556 -0.40700
O 	O 	0.81067 0.22607 0.41225 -0.43800
O 	O 	0.82500 0.23748 0.51224 -0.40800
O 	O 	0.75368 0.19442 0.39296 -0.39400
O 	O 	0.88528 0.24100 0.45064 -0.40100
O 	O 	0.72065 0.29377 0.41725 -0.20600
O 	O 	0.85751 0.29152 0.44899 -0.22500
O 	O 	0.85930 0.17211 0.47048 -0.42600
O 	O 	0.71122 0.19007 0.48454 -0.41400
O 	O 	0.82340 0.15496 0.52491 -0.41000
O 	O 	0.74452 0.14252 0.48448 -0.42800
C 	C 	0.69961 0.27212 0.39885 0.26700
O 	O 	0.69635 0.24168 0.41557 -0.39800
Zn	Zn	0.60267 0.40125 0.02834 1.20200
Zn	Zn	0.64824 0.35752 0.08774 1.21800
Zn	Zn	0.61313 0.34460 0.95867 1.22100
P 	P 	0.58614 0.33145 0.04659 0.30400
P 	P 	0.67069 0.37864 0.99964 0.30100
C 	C 	0.62684 0.28494 0.91073 0.27100
C 	C 	0.57282 0.40755 0.94400 0.29600
C 	C 	0.62292 0.42640 0.11192 0.29700
O 	O 	0.56847 0.36469 0.02853 -0.42100
O 	O 	0.65202 0.40964 0.02236 -0.43600
O 	O 	0.60254 0.34014 0.09299 -0.41100
O 	O 	0.65313 0.37118 0.95344 -0.42000
O 	O 	0.61438 0.31860 0.01300 -0.42400
O 	O 	0.67048 0.34651 0.03146 -0.39800
O 	O 	0.60584 0.31083 0.91391 -0.40100
O 	O 	0.64920 0.29153 0.13500 -0.21600
O 	O 	0.65232 0.28198 0.93838 -0.21500
O 	O 	0.57208 0.37409 0.94529 -0.41200
O 	O 	0.64992 0.40662 0.10670 -0.42100
O 	O 	0.58473 0.42492 0.97730 -0.42500
O 	O 	0.59675 0.42400 0.08504 -0.41500
C 	C 	0.67119 0.31264 0.15259 0.27100
O 	O 	0.67891 0.34084 0.13209 -0.40100
Zn	Zn	0.11851 0.58003 0.22358 1.20500
Zn	Zn	0.06872 0.53432 0.17051 1.21700
Zn	Zn	0.07379 0.63990 0.19050 1.22400
P 	P 	0.04573 0.58230 0.23952 0.30600
P 	P 	0.10384 0.59160 0.13081 0.30400
C 	C 	0.02188 0.68758 0.17748 0.27400
C 	C 	0.13309 0.64784 0.24736 0.29400
C 	C 	0.12930 0.50927 0.22064 0.29600
O 	O 	0.07913 0.56431 0.25737 -0.43200
O 	O 	0.13167 0.59849 0.16727 -0.43100
O 	O 	0.03691 0.56888 0.19160 -0.40900
O 	O 	0.06856 0.60976 0.14205 -0.43600
O 	O 	0.05098 0.62246 0.24108 -0.40500
O 	O 	0.09897 0.55168 0.12523 -0.39200
O 	O 	0.05494 0.68420 0.18326 -0.39300
O 	O 	0.99452 0.51411 0.15957 -0.22600
O 	O 	0.00251 0.66052 0.17388 -0.22800
O 	O 	0.12123 0.65393 0.20788 -0.41400
O 	O 	0.09562 0.50820 0.21609 -0.41200
O 	O 	0.13435 0.61654 0.26210 -0.42100
O 	O 	0.14528 0.53859 0.22030 -0.42900
C 	C 	0.01455 0.49505 0.13545 0.27000
O 	O 	0.04781 0.49596 0.14159 -0.38600
Zn	Zn	0.86348 0.38514 0.77503 1.20300
Zn	Zn	0.91498 0.41271 0.84341 1.21700
Zn	Zn	0.92180 0.39563 0.70670 1.22000
P 	P 	0.93068 0.35424 0.78561 0.30400
P 	P 	0.89809 0.45033 0.76414 0.30400
C 	C 	0.97391 0.41796 0.64898 0.26800
C 	C 	0.85215 0.36989 0.68574 0.29300
C 	C 	0.84373 0.39095 0.86344 0.29500
O 	O 	0.89223 0.34958 0.80091 -0.42100
O 	O 	0.86469 0.43057 0.74965 -0.42900
O 	O 	0.94606 0.38878 0.80454 -0.42200
O 	O 	0.93159 0.43127 0.74764 -0.42000
O 	O 	0.93209 0.35250 0.73341 -0.40400
O 	O 	0.89809 0.45429 0.81613 -0.39900
O 	O 	0.94876 0.39606 0.65341 -0.40000
O 	O 	0.98808 0.41889 0.87168 -0.23400
O 	O 	0.97858 0.44134 0.67883 -0.21000
O 	O 	0.87452 0.39459 0.67939 -0.42300
O 	O 	0.87656 0.38507 0.87028 -0.42200
O 	O 	0.84524 0.35950 0.72555 -0.41200
O 	O 	0.83231 0.39474 0.82346 -0.41800
C 	C 	0.96784 0.42759 0.90399 0.27100
O 	O 	0.93453 0.42763 0.89822 -0.38900
C 	C 	0.00935 0.45710 0.02534 0.10300
C 	C 	0.97384 0.45362 0.01993 0.10100
N 	N 	0.96103 0.44380 0.98075 -0.08700
C 	C 	0.98231 0.43722 0.94660 -0.01000
C 	C 	0.01792 0.44019 0.95235 0.04400
N 	N 	0.03067 0.45013 0.99158 -0.10300
N 	N 	0.02204 0.46891 0.06364 -0.08600
N 	N 	0.95248 0.46126 0.05344 -0.10100
H 	H 	0.03530 0.43496 0.92571 0.05700
C 	C 	0.00065 0.47766 0.09685 -0.00800
C 	C 	0.96515 0.47311 0.09185 0.04400
H 	H 	0.94775 0.47950 0.11805 0.05600
C 	C 	0.76617 0.37222 0.95539 0.10300
C 	C 	0.77202 0.40520 0.93991 0.09900
N 	N 	0.79809 0.41107 0.91155 -0.08900
C 	C 	0.81912 0.38542 0.89885 -0.01700
C 	C 	0.81435 0.35284 0.91617 0.05000
N 	N 	0.78779 0.34682 0.94381 -0.10200
N 	N 	0.73720 0.36535 0.97831 -0.09300
N 	N 	0.74991 0.43039 0.95052 -0.10100
H 	H 	0.83086 0.33218 0.90634 0.05100
C 	C 	0.71390 0.39018 0.98667 0.02100
C 	C 	0.72118 0.42361 0.97400 0.03200
H 	H 	0.70297 0.44367 0.98031 0.05600
C 	C 	0.79490 0.31424 0.62121 0.09800
C 	C 	0.80225 0.32472 0.57847 0.10500
N 	N 	0.79244 0.30506 0.54436 -0.08800
C 	C 	0.77709 0.27455 0.55117 0.02600
C 	C 	0.76658 0.26598 0.59354 0.03100
N 	N 	0.77596 0.28585 0.62779 -0.09900
N 	N 	0.81003 0.33018 0.65543 -0.08300
N 	N 	0.82309 0.35175 0.57180 -0.10200
H 	H 	0.75348 0.24229 0.59959 0.06000
C 	C 	0.83240 0.35615 0.64872 -0.01900
C 	C 	0.83826 0.36774 0.60600 0.04700
H 	H 	0.85545 0.38871 0.59994 0.05200
C 	C 	0.69740 0.30354 0.28540 0.10100
C 	C 	0.67095 0.28394 0.26745 0.10100
N 	N 	0.66368 0.28642 0.22430 -0.08600
C 	C 	0.68170 0.30791 0.19822 -0.01000
C 	C 	0.70842 0.32727 0.21619 0.04500
N 	N 	0.71572 0.32468 0.25943 -0.10200
N 	N 	0.70504 0.30063 0.32839 -0.08600
N 	N 	0.65285 0.26256 0.29335 -0.10100
H 	H 	0.72313 0.34439 0.19597 0.05500
C 	C 	0.68752 0.27861 0.35427 -0.01000
C 	C 	0.66059 0.25949 0.33642 0.04500
H 	H 	0.64627 0.24196 0.35652 0.05500
C 	C 	0.54339 0.43316 0.83432 0.09900
C 	C 	0.51630 0.45513 0.84464 0.10300
N 	N 	0.49464 0.46550 0.81275 -0.09200
C 	C 	0.49878 0.45468 0.77095 0.02100
C 	C 	0.52772 0.43537 0.76011 0.03400
N 	N 	0.54924 0.42463 0.79210 -0.10200
N 	N 	0.56166 0.41839 0.86683 -0.09200
N 	N 	0.50976 0.46286 0.88696 -0.10400
H 	H 	0.53153 0.42675 0.72696 0.05600
C 	C 	0.55443 0.42532 0.90930 -0.02000
C 	C 	0.52851 0.44864 0.91950 0.05200
H 	H 	0.52265 0.45460 0.95315 0.04900
C 	C 	0.62872 0.51202 0.19434 0.10200
C 	C 	0.59691 0.49978 0.17995 0.09700
N 	N 	0.59551 0.47180 0.15417 -0.08500
C 	C 	0.62469 0.45521 0.14254 -0.01900
C 	C 	0.65646 0.46703 0.15797 0.04800
N 	N 	0.65781 0.49528 0.18335 -0.10300
N 	N 	0.63026 0.54113 0.21795 -0.09200
N 	N 	0.56782 0.51656 0.19086 -0.10000
H 	H 	0.67996 0.45430 0.14902 0.05400
C 	C 	0.60116 0.55836 0.22816 0.01800
C 	C 	0.56929 0.54549 0.21490 0.02600
H 	H 	0.54589 0.55872 0.22303 0.05600
C 	C 	0.55135 0.58335 0.51587 0.10100
C 	C 	0.51952 0.59290 0.53320 0.10000
N 	N 	0.50688 0.57647 0.56863 -0.08700
C 	C 	0.52483 0.55078 0.58756 -0.00900
C 	C 	0.55731 0.54219 0.57112 0.04400
N 	N 	0.56980 0.55854 0.53549 -0.10200
N 	N 	0.56281 0.59797 0.47858 -0.08600
N 	N 	0.50084 0.61737 0.51316 -0.10200
H 	H 	0.57222 0.52223 0.58608 0.05600
C 	C 	0.54389 0.62210 0.45795 -0.00800
C 	C 	0.51244 0.63229 0.47600 0.04400
H 	H 	0.49697 0.65133 0.46000 0.05600
C 	C 	0.50660 0.24763 0.05342 0.10200
C 	C 	0.49748 0.28128 0.06275 0.10200
N 	N 	0.52179 0.30598 0.06204 -0.09100
C 	C 	0.55499 0.29824 0.05289 0.02400
C 	C 	0.56427 0.26435 0.04545 0.03100
N 	N 	0.53986 0.23977 0.04553 -0.09800
N 	N 	0.48183 0.22364 0.04927 -0.09000
N 	N 	0.46413 0.28921 0.06976 -0.09800
H 	H 	0.59062 0.25771 0.03879 0.06400
C 	C 	0.44821 0.23183 0.05445 0.02700
C 	C 	0.43935 0.26513 0.06610 0.03300
H 	H 	0.41277 0.27219 0.07005 0.06200
C 	C 	0.34766 0.33720 0.84788 0.10100
C 	C 	0.36204 0.32839 0.80750 0.10000
N 	N 	0.36556 0.35232 0.77594 -0.08800
C 	C 	0.35545 0.38488 0.78321 -0.02300
C 	C 	0.34026 0.39340 0.82331 0.05100
N 	N 	0.33671 0.36940 0.85482 -0.10300
N 	N 	0.34598 0.31382 0.88031 -0.08600
N 	N 	0.37370 0.29638 0.80092 -0.10100
H 	H 	0.33178 0.41904 0.82957 0.05300
C 	C 	0.35814 0.28183 0.87413 -0.00800
C 	C 	0.37199 0.27289 0.83334 0.04400
H 	H 	0.38168 0.24759 0.82764 0.05300
C 	C 	0.97047 0.28467 0.39410 0.10100
C 	C 	0.98001 0.31669 0.40995 0.10100
N 	N 	0.01290 0.32706 0.40610 -0.08400
C 	C 	0.03680 0.30670 0.38732 -0.00900
C 	C 	0.02669 0.27574 0.36877 0.04500
N 	N 	0.99373 0.26526 0.37277 -0.10300
N 	N 	0.93924 0.27199 0.40400 -0.08800
N 	N 	0.95724 0.33541 0.43312 -0.10200
H 	H 	0.04526 0.25935 0.35324 0.05600
C 	C 	0.91697 0.29004 0.42890 -0.01100
C 	C 	0.92578 0.32279 0.44269 0.04500
H 	H 	0.90826 0.33753 0.46240 0.05300
C 	C 	0.35629 0.40173 0.54108 0.10400
C 	C 	0.33496 0.42485 0.51931 0.09900
N 	N 	0.30848 0.41324 0.49500 -0.08400
C 	C 	0.30208 0.37945 0.49184 -0.02000
C 	C 	0.32489 0.35631 0.51109 0.04900
N 	N 	0.35143 0.36795 0.53551 -0.10300
N 	N 	0.37876 0.41314 0.57138 -0.09700
N 	N 	0.33842 0.45854 0.52697 -0.10000
H 	H 	0.32066 0.32931 0.50828 0.05300
C 	C 	0.38069 0.44670 0.58107 0.02100
C 	C 	0.36095 0.46994 0.55737 0.03600
H 	H 	0.36221 0.49673 0.56467 0.05800
C 	C 	0.32222 0.24701 0.29052 0.10000
C 	C 	0.31260 0.21534 0.27368 0.10100
N 	N 	0.32634 0.20428 0.23560 -0.08500
C 	C 	0.34968 0.22347 0.21376 -0.00800
C 	C 	0.36001 0.25475 0.23132 0.04400
N 	N 	0.34594 0.26594 0.26925 -0.10200
N 	N 	0.30644 0.25928 0.32667 -0.08600
N 	N 	0.28851 0.19663 0.29458 -0.10100
H 	H 	0.37844 0.27042 0.21436 0.05500
C 	C 	0.28138 0.24113 0.34685 -0.00800
C 	C 	0.27285 0.20876 0.33097 0.04400
H 	H 	0.25336 0.19370 0.34687 0.05700
C 	C 	0.05477 0.42434 0.58638 0.10100
C 	C 	0.04765 0.40404 0.54991 0.10100
N 	N 	0.07264 0.39777 0.52019 -0.08900
C 	C 	0.10471 0.41065 0.52574 -0.02300
C 	C 	0.11160 0.43143 0.56190 0.05200
N 	N 	0.08647 0.43790 0.59144 -0.10300
N 	N 	0.03039 0.42910 0.61731 -0.08600
N 	N 	0.01629 0.38954 0.54564 -0.10100
H 	H 	0.13686 0.44207 0.56667 0.05200
C 	C 	0.99914 0.41406 0.61363 -0.00800
C 	C 	0.99188 0.39413 0.57675 0.04400
H 	H 	0.96706 0.38231 0.57293 0.05300
C 	C 	0.17906 0.42819 0.28264 0.10400
C 	C 	0.14445 0.42549 0.27062 0.09900
N 	N 	0.12938 0.45097 0.24794 -0.08400
C 	C 	0.14747 0.47910 0.23671 -0.01900
C 	C 	0.18277 0.48043 0.24569 0.04800
N 	N 	0.19775 0.45510 0.26885 -0.10300
N 	N 	0.19242 0.40607 0.31195 -0.09000
N 	N 	0.12540 0.39936 0.28593 -0.09900
H 	H 	0.19790 0.50205 0.23573 0.05400
C 	C 	0.17261 0.38136 0.32979 0.02200
C 	C 	0.13886 0.37707 0.31499 0.02800
H 	H 	0.12279 0.35742 0.32854 0.05000
C 	C 	0.16382 0.64467 0.02728 0.09900
C 	C 	0.16671 0.60938 0.03218 0.10400
N 	N 	0.14509 0.59275 0.05940 -0.09000
C 	C 	0.12079 0.60992 0.08215 0.02000
C 	C 	0.11613 0.64468 0.07437 0.03300
N 	N 	0.13791 0.66141 0.04734 -0.09900
N 	N 	0.18890 0.66216 0.00648 -0.08200
N 	N 	0.19345 0.59280 0.01375 -0.10100
H 	H 	0.09685 0.65873 0.09211 0.03700
C 	C 	0.21678 0.64577 0.99028 -0.02200
C 	C 	0.21838 0.61022 0.99255 0.04700
H 	H 	0.23977 0.59663 0.97852 0.05300
C 	C 	0.44399 0.63840 0.05886 0.10100
C 	C 	0.47260 0.65956 0.05354 0.10100
N 	N 	0.49673 0.66120 0.08547 -0.08600
C 	C 	0.49330 0.64245 0.12253 -0.00700
C 	C 	0.46549 0.62009 0.12668 0.04400
N 	N 	0.44135 0.61865 0.09488 -0.10200
N 	N 	0.41782 0.63998 0.02988 -0.08200
N 	N 	0.47459 0.68017 0.01814 -0.10000
H 	H 	0.46280 0.60439 0.15542 0.05400
C 	C 	0.41895 0.66176 0.99553 -0.01900
C 	C 	0.44844 0.68150 0.98883 0.04300
H 	H 	0.44972 0.69913 0.96183 0.04600
C 	C 	0.36798 0.63635 0.77559 0.10300
C 	C 	0.34389 0.61440 0.75665 0.09900
N 	N 	0.35476 0.58642 0.73515 -0.08400
C 	C 	0.38870 0.57904 0.73234 -0.02000
C 	C 	0.41280 0.60239 0.74828 0.05000
N 	N 	0.40192 0.63052 0.76975 -0.10400
N 	N 	0.35738 0.66024 0.80433 -0.10200
N 	N 	0.31007 0.61878 0.76505 -0.10000
H 	H 	0.43995 0.59743 0.74544 0.05400
C 	C 	0.32381 0.66271 0.81561 0.01900
C 	C 	0.29953 0.64259 0.79409 0.03500
H 	H 	0.27266 0.64452 0.80224 0.05700
C 	C 	0.15238 0.72764 0.33507 0.10100
C 	C 	0.12970 0.73200 0.30002 0.10000
N 	N 	0.12484 0.70637 0.27118 -0.08800
C 	C 	0.14138 0.67628 0.27629 -0.02300
C 	C 	0.16445 0.67214 0.31103 0.05100
N 	N 	0.16953 0.69794 0.33967 -0.10300
N 	N 	0.15593 0.75258 0.36515 -0.08600
N 	N 	0.11164 0.76124 0.29629 -0.10200
H 	H 	0.17804 0.64848 0.31536 0.05100
C 	C 	0.13737 0.78166 0.36203 -0.00900
C 	C 	0.11499 0.78617 0.32661 0.04400
H 	H 	0.10035 0.80931 0.32327 0.05200
C 	C 	0.15075 0.80075 0.78236 0.10100
C 	C 	0.17649 0.82197 0.79909 0.10100
N 	N 	0.19377 0.81270 0.83554 -0.08700
C 	C 	0.18689 0.78276 0.85568 -0.01000
C 	C 	0.16015 0.76227 0.84000 0.04600
N 	N 	0.14265 0.77167 0.80362 -0.10200
N 	N 	0.13605 0.80812 0.74336 -0.08600
N 	N 	0.18587 0.85012 0.77670 -0.10200
H 	H 	0.15398 0.73858 0.85597 0.05400
C 	C 	0.14639 0.83565 0.72011 -0.00900
C 	C 	0.17134 0.85740 0.73756 0.04800
H 	H 	0.17939 0.87972 0.71980 0.05000
C 	C 	0.97793 0.78474 0.18465 0.10000
C 	C 	0.01349 0.78033 0.18791 0.10100
N 	N 	0.02706 0.74889 0.18465 -0.08500
C 	C 	0.00658 0.72146 0.17833 -0.00900
C 	C 	0.97099 0.72593 0.17460 0.04300
N 	N 	0.95739 0.75752 0.17787 -0.10200
N 	N 	0.96429 0.81614 0.18880 -0.08500
N 	N 	0.03401 0.80748 0.19506 -0.10200
H 	H 	0.95426 0.70444 0.16950 0.05700
C 	C 	0.98479 0.84344 0.19597 -0.00800
C 	C 	0.02041 0.83897 0.19915 0.04400
H 	H 	0.03710 0.86034 0.20519 0.05700
C 	C 	0.84896 0.13935 0.28888 0.09900
C 	C 	0.81298 0.13849 0.29038 0.10300
N 	N 	0.79607 0.15808 0.31969 -0.09000
C 	C 	0.81361 0.17863 0.34738 0.01800
C 	C 	0.84916 0.18212 0.34249 0.03400
N 	N 	0.86619 0.16211 0.31370 -0.10000
N 	N 	0.86622 0.11461 0.26736 -0.08500
N 	N 	0.79578 0.11488 0.26689 -0.10300
H 	H 	0.86346 0.19868 0.36394 0.03300
C 	C 	0.84898 0.08913 0.24711 -0.02000
C 	C 	0.81305 0.09049 0.24471 0.04900
H 	H 	0.79893 0.07121 0.22720 0.05200
C 	C 	0.02582 0.97406 0.36543 0.09800
C 	C 	0.03326 0.96280 0.32305 0.10400
N 	N 	0.01130 0.96997 0.29000 -0.08800
C 	C 	0.98169 0.98714 0.29766 0.02400
C 	C 	0.97574 0.00068 0.33933 0.03100
N 	N 	0.99783 0.99371 0.37244 -0.10000
N 	N 	0.04457 0.96243 0.39961 -0.08400
N 	N 	0.06006 0.94154 0.31634 -0.10200
H 	H 	0.95259 0.01480 0.34599 0.05900
C 	C 	0.07051 0.93990 0.39322 -0.01900
C 	C 	0.07890 0.92993 0.35050 0.04600
H 	H 	0.09964 0.91234 0.34460 0.05100
C 	C 	0.97094 0.26172 0.79655 0.10100
C 	C 	0.00269 0.26802 0.81647 0.10200
N 	N 	0.02682 0.24321 0.81772 -0.09000
C 	C 	0.02034 0.21223 0.80004 0.02200
C 	C 	0.98818 0.20571 0.78132 0.02600
N 	N 	0.96419 0.23060 0.77987 -0.10000
N 	N 	0.94826 0.28743 0.79117 -0.09100
N 	N 	0.00984 0.29949 0.83184 -0.09800
H 	H 	0.98251 0.18122 0.76725 0.05300
C 	C 	0.95596 0.31933 0.80481 0.02300
C 	C 	0.98705 0.32524 0.82659 0.02600
H 	H 	0.99361 0.35039 0.83780 0.06100
C 	C 	0.90681 0.13047 0.60298 0.09900
C 	C 	0.94011 0.13476 0.58664 0.10000
N 	N 	0.96732 0.13182 0.61382 -0.08700
C 	C 	0.96271 0.12437 0.65674 -0.01100
C 	C 	0.92944 0.11908 0.67279 0.04400
N 	N 	0.90214 0.12240 0.64560 -0.10200
N 	N 	0.87949 0.13631 0.57669 -0.08400
N 	N 	0.94479 0.14343 0.54426 -0.10300
H 	H 	0.92528 0.11332 0.70689 0.05300
C 	C 	0.88408 0.14621 0.53455 -0.02100
C 	C 	0.91749 0.14905 0.51779 0.04700
H 	H 	0.92170 0.15648 0.48425 0.05400
C 	C 	0.10998 0.99088 0.70669 0.09700
C 	C 	0.13664 0.01435 0.70082 0.10300
N 	N 	0.13726 0.04308 0.72515 -0.09200
C 	C 	0.11138 0.05036 0.75334 0.02300
C 	C 	0.08697 0.02522 0.76253 0.03000
N 	N 	0.08656 0.99610 0.73873 -0.09900
N 	N 	0.10536 0.96564 0.67704 -0.08400
N 	N 	0.15852 0.01068 0.66677 -0.10300
H 	H 	0.06664 0.03009 0.78566 0.05700
C 	C 	0.12608 0.96327 0.64143 -0.02200
C 	C 	0.15375 0.98565 0.63695 0.04700
H 	H 	0.17089 0.98361 0.60933 0.04600
C 	C 	0.03528 0.07491 0.05020 0.10200
C 	C 	0.02684 0.10861 0.04038 0.10100
N 	N 	0.03926 0.12316 0.00354 -0.08500
C 	C 	0.05936 0.10517 0.97558 -0.01000
C 	C 	0.06754 0.07136 0.98529 0.04400
N 	N 	0.05545 0.05695 0.02252 -0.10000
N 	N 	0.02265 0.06027 0.08685 -0.08600
N 	N 	0.00584 0.12624 0.06742 -0.10100
H 	H 	0.08375 0.05679 0.96365 0.05400
C 	C 	0.00132 0.07775 0.11382 -0.00700
C 	C 	0.99275 0.11142 0.10385 0.04400
H 	H 	0.97591 0.12571 0.12500 0.05400
C 	C 	0.14564 0.22622 0.55937 0.10400
C 	C 	0.16760 0.22733 0.59562 0.09800
N 	N 	0.15828 0.21176 0.63334 -0.08300
C 	C 	0.12769 0.19535 0.63636 -0.01800
C 	C 	0.10655 0.19298 0.59943 0.04800
N 	N 	0.11593 0.20851 0.56173 -0.10200
N 	N 	0.15233 0.24591 0.52414 -0.09100
N 	N 	0.19634 0.24665 0.59402 -0.09900
H 	H 	0.08253 0.17935 0.60096 0.04700
C 	C 	0.17955 0.26739 0.52391 0.02400
C 	C 	0.20289 0.26653 0.55872 0.03000
H 	H 	0.22511 0.28289 0.55874 0.05600
C 	C 	0.22229 0.14869 0.93756 0.09800
C 	C 	0.24022 0.17944 0.93492 0.10200
N 	N 	0.26886 0.18410 0.95925 -0.09900
C 	C 	0.28039 0.15925 0.98627 0.01700
C 	C 	0.26200 0.12883 0.98971 0.03400
N 	N 	0.23330 0.12413 0.96525 -0.10000
N 	N 	0.19495 0.14316 0.91107 -0.08400
N 	N 	0.22976 0.20370 0.90653 -0.10400
H 	H 	0.27101 0.10872 0.01077 0.05900
C 	C 	0.18484 0.16718 0.88184 -0.01700
C 	C 	0.20238 0.19827 0.88007 0.04900
H 	H 	0.19440 0.21791 0.85764 0.05500
C 	C 	0.01607 0.77129 0.56486 0.10400
C 	C 	0.98309 0.78527 0.56240 0.10300
N 	N 	0.95552 0.76451 0.55780 -0.09100
C 	C 	0.95954 0.73026 0.55570 0.02600
C 	C 	0.99236 0.71633 0.56102 0.03300
N 	N 	0.01996 0.73711 0.56527 -0.09800
N 	N 	0.04391 0.79188 0.56201 -0.09200
N 	N 	0.97929 0.81941 0.55988 -0.09800
H 	H 	0.99611 0.68920 0.55947 0.06000
C 	C 	0.04016 0.82597 0.55687 0.02600
C 	C 	0.00715 0.84004 0.55739 0.03500
H 	H 	0.00363 0.86703 0.55320 0.06000
C 	C 	0.75113 0.63916 0.43357 0.10200
C 	C 	0.72831 0.66635 0.43911 0.09800
N 	N 	0.70015 0.66880 0.41316 -0.08400
C 	C 	0.69400 0.64513 0.38176 -0.01900
C 	C 	0.71627 0.61741 0.37737 0.04800
N 	N 	0.74437 0.61500 0.40331 -0.10300
N 	N 	0.78089 0.63843 0.45645 -0.09200
N 	N 	0.73577 0.69117 0.46829 -0.09900
H 	H 	0.71168 0.59836 0.35264 0.04900
C 	C 	0.78884 0.66374 0.48481 0.01800
C 	C 	0.76555 0.69034 0.49135 0.03300
H 	H 	0.77156 0.71071 0.51370 0.05800
C 	C 	0.84368 0.84012 0.35422 0.10100
C 	C 	0.85954 0.83421 0.31386 0.10000
N 	N 	0.86197 0.85969 0.28434 -0.08700
C 	C 	0.84947 0.89107 0.29359 -0.02300
C 	C 	0.83265 0.89665 0.33350 0.05100
N 	N 	0.83015 0.87105 0.36302 -0.10300
N 	N 	0.84339 0.81538 0.38494 -0.08600
N 	N 	0.87396 0.80360 0.30553 -0.10200
H 	H 	0.82217 0.92130 0.34125 0.05300
C 	C 	0.85848 0.78488 0.37709 -0.00900
C 	C 	0.87369 0.77878 0.33626 0.04400
H 	H 	0.88547 0.75458 0.32916 0.05300
C 	C 	0.96152 0.60137 0.30594 0.10400
C 	C 	0.96892 0.58651 0.34644 0.09800
N 	N 	0.95242 0.59745 0.38281 -0.08400
C 	C 	0.92869 0.62267 0.38040 -0.01800
C 	C 	0.92011 0.63629 0.33946 0.04700
N 	N 	0.93676 0.62541 0.30312 -0.10300
N 	N 	0.98202 0.59486 0.27119 -0.08900
N 	N 	0.99504 0.56395 0.34968 -0.09900
H 	H 	0.90114 0.65616 0.33675 0.05000
C 	C 	0.01036 0.57507 0.27553 0.02600
C 	C 	0.01569 0.55765 0.31487 0.03000
H 	H 	0.03752 0.54106 0.31867 0.06000
C 	C 	0.91557 0.52430 0.67803 0.10400
C 	C 	0.89121 0.54898 0.68918 0.09800
N 	N 	0.88662 0.57633 0.66283 -0.09000
C 	C 	0.90518 0.57969 0.62544 -0.01700
C 	C 	0.92989 0.55522 0.61481 0.05200
N 	N 	0.93463 0.52807 0.64136 -0.10300
N 	N 	0.91848 0.49587 0.70253 -0.09600
N 	N 	0.87106 0.54434 0.72483 -0.10100
H 	H 	0.94499 0.55767 0.58538 0.04800
C 	C 	0.89789 0.49079 0.73769 0.02000
C 	C 	0.87388 0.51565 0.74928 0.03600
H 	H 	0.85706 0.51183 0.77689 0.05600
C 	C 	0.50018 0.77116 0.82804 0.10000
C 	C 	0.50723 0.80545 0.83640 0.10000
N 	N 	0.54010 0.81567 0.84145 -0.08700
C 	C 	0.56628 0.79309 0.83840 -0.01100
C 	C 	0.55935 0.75953 0.82612 0.04400
N 	N 	0.52639 0.74916 0.82156 -0.10300
N 	N 	0.46773 0.75950 0.83220 -0.08700
N 	N 	0.48113 0.82712 0.84507 -0.10300
H 	H 	0.57992 0.74131 0.82310 0.05300
C 	C 	0.44193 0.78070 0.84413 -0.01100
C 	C 	0.44853 0.81547 0.84868 0.04500
H 	H 	0.42823 0.83275 0.85777 0.05300
C 	C 	0.67197 0.70591 0.06342 0.09900
C 	C 	0.69889 0.72865 0.07170 0.10400
N 	N 	0.70844 0.75105 0.04043 -0.09300
C 	C 	0.69198 0.75197 0.00139 0.02900
C 	C 	0.66810 0.72654 0.99140 0.03100
N 	N 	0.65811 0.70435 0.02287 -0.09700
N 	N 	0.65737 0.68872 0.09703 -0.08500
N 	N 	0.71194 0.73117 0.11254 -0.10300
H 	H 	0.65543 0.72629 0.96001 0.05700
C 	C 	0.66889 0.69309 0.13857 -0.01900
C 	C 	0.69777 0.71359 0.14605 0.05000
H 	H 	0.70812 0.71645 0.17858 0.05300
C 	C 	0.85389 0.90888 0.06389 0.10300
C 	C 	0.83272 0.92947 0.03809 0.09900
N 	N 	0.80754 0.91517 0.01385 -0.08500
C 	C 	0.80261 0.88105 0.01417 -0.01800
C 	C 	0.82510 0.86032 0.03798 0.04800
N 	N 	0.85018 0.87469 0.06255 -0.10400
N 	N 	0.87505 0.92335 0.09361 -0.10200
N 	N 	0.83514 0.96368 0.04120 -0.10000
H 	H 	0.82175 0.83310 0.03840 0.05500
C 	C 	0.87571 0.95756 0.09894 0.02000
C 	C 	0.85636 0.97814 0.07098 0.03500
H 	H 	0.85664 0.00540 0.07467 0.05800
C 	C 	0.82793 0.71689 0.80050 0.10100
C 	C 	0.85433 0.73793 0.78518 0.10100
N 	N 	0.86907 0.73145 0.74593 -0.08600
C 	C 	0.85824 0.70491 0.72115 -0.00900
C 	C 	0.83266 0.68324 0.73726 0.04700
N 	N 	0.81800 0.68971 0.77657 -0.10200
N 	N 	0.81081 0.72530 0.83744 -0.08600
N 	N 	0.86329 0.76590 0.80828 -0.10200
H 	H 	0.82421 0.66164 0.71836 0.05400
C 	C 	0.81864 0.75416 0.85958 -0.01000
C 	C 	0.84607 0.77439 0.84526 0.04500
H 	H 	0.85307 0.79714 0.86283 0.05400
C 	C 	0.51317 0.78909 0.30849 0.10200
C 	C 	0.49873 0.75682 0.31413 0.10300
N 	N 	0.51905 0.72888 0.31197 -0.09000
C 	C 	0.55329 0.73184 0.30443 0.02700
C 	C 	0.56796 0.76427 0.30202 0.03400
N 	N 	0.54759 0.79222 0.30377 -0.09800
N 	N 	0.49240 0.81646 0.30316 -0.09100
N 	N 	0.46420 0.75351 0.31685 -0.09900
H 	H 	0.59508 0.76715 0.29594 0.05900
C 	C 	0.45770 0.81292 0.30353 0.02200
C 	C 	0.44342 0.78092 0.31196 0.03200
H 	H 	0.41594 0.77756 0.31236 0.05900
C 	C 	0.38000 0.04162 0.18607 0.10000
C 	C 	0.40901 0.02143 0.17848 0.10300
N 	N 	0.41273 0.99160 0.20011 -0.09900
C 	C 	0.38864 0.98112 0.22922 0.02100
C 	C 	0.35998 0.00160 0.23738 0.03700
N 	N 	0.35620 0.03144 0.21560 -0.10000
N 	N 	0.37500 0.07021 0.16207 -0.08900
N 	N 	0.43227 0.03103 0.14801 -0.10400
H 	H 	0.34054 0.99354 0.26028 0.05600
C 	C 	0.39790 0.07939 0.13068 -0.01400
C 	C 	0.42731 0.05959 0.12400 0.05200
H 	H 	0.44566 0.06645 0.09905 0.04900
C 	C 	0.54159 0.88830 0.06455 0.10000
C 	C 	0.57166 0.90561 0.07621 0.10200
N 	N 	0.59957 0.90399 0.04993 -0.08400
C 	C 	0.59864 0.88613 0.01199 -0.01100
C 	C 	0.56806 0.87005 0.99940 0.03800
N 	N 	0.54022 0.87128 0.02609 -0.09900
N 	N 	0.51485 0.88703 0.09298 -0.08600
N 	N 	0.57330 0.92219 0.11488 -0.10100
H 	H 	0.56692 0.85550 0.96951 0.04800
C 	C 	0.51699 0.90262 0.13256 -0.00500
C 	C 	0.54654 0.92127 0.14311 0.04400
H 	H 	0.54842 0.93442 0.17400 0.05800
C 	C 	0.30772 0.80873 0.06730 0.10500
C 	C 	0.33209 0.83414 0.05899 0.09900
N 	N 	0.34727 0.85053 0.09289 -0.08400
C 	C 	0.33853 0.84292 0.13475 -0.01900
C 	C 	0.31181 0.81977 0.14260 0.05000
N 	N 	0.29727 0.80290 0.10877 -0.10300
N 	N 	0.29843 0.78723 0.03486 -0.09000
N 	N 	0.34321 0.83923 0.01757 -0.09700
H 	H 	0.30352 0.81435 0.17554 0.05200
C 	C 	0.31274 0.78980 0.99460 0.02400
C 	C 	0.33329 0.81803 0.98496 0.03400
H 	H 	0.34403 0.82109 0.95266 0.05900
C 	C 	0.27286 0.88764 0.43549 0.09800
C 	C 	0.24901 0.86194 0.42655 0.10400
N 	N 	0.21956 0.86014 0.44993 -0.09300
C 	C 	0.21284 0.88302 0.48198 0.01900
C 	C 	0.23688 0.90842 0.49137 0.03600
N 	N 	0.26645 0.91023 0.46793 -0.10100
N 	N 	0.30124 0.89086 0.41009 -0.09000
N 	N 	0.25474 0.84010 0.39315 -0.10100
H 	H 	0.23180 0.92693 0.51658 0.05400
C 	C 	0.30657 0.86946 0.37587 -0.01700
C 	C 	0.28301 0.84336 0.36764 0.05100
H 	H 	0.28688 0.82617 0.34056 0.04600
C 	C 	0.47464 0.24596 0.65153 0.10100
C 	C 	0.44474 0.25536 0.67390 0.10100
N 	N 	0.43161 0.28678 0.66825 -0.08500
C 	C 	0.44706 0.30933 0.64113 -0.00900
C 	C 	0.47574 0.29920 0.61676 0.04400
N 	N 	0.48910 0.26775 0.62269 -0.10200
N 	N 	0.49010 0.21615 0.66100 -0.08700
N 	N 	0.43081 0.23398 0.70366 -0.10300
H 	H 	0.48837 0.31680 0.59500 0.05500
C 	C 	0.47660 0.19503 0.69152 -0.00900
C 	C 	0.44603 0.20386 0.71271 0.04500
H 	H 	0.43494 0.18724 0.73698 0.05200
C 	C 	0.45101 0.06934 0.85859 0.09800
C 	C 	0.44125 0.07879 0.81621 0.10600
N 	N 	0.46035 0.06845 0.78177 -0.08700
C 	C 	0.49012 0.05127 0.78808 0.02500
C 	C 	0.49723 0.03816 0.82963 0.03100
N 	N 	0.47770 0.04775 0.86421 -0.09900
N 	N 	0.43709 0.08546 0.89341 -0.08400
N 	N 	0.41649 0.10254 0.81057 -0.10100
H 	H 	0.51997 0.02310 0.83507 0.05800
C 	C 	0.41394 0.11086 0.88773 -0.01900
C 	C 	0.40261 0.11876 0.84545 0.04800
H 	H 	0.38380 0.13848 0.84025 0.05100
C 	C 	0.67392 0.93598 0.77597 0.09800
C 	C 	0.65638 0.90521 0.78144 0.10200
N 	N 	0.66859 0.88183 0.80983 -0.10000
C 	C 	0.69740 0.88803 0.83339 0.01800
C 	C 	0.71625 0.91762 0.82545 0.03700
N 	N 	0.70407 0.94109 0.79698 -0.10100
N 	N 	0.65867 0.96181 0.75425 -0.08400
N 	N 	0.62524 0.90087 0.76262 -0.10400
H 	H 	0.73932 0.92285 0.84380 0.05600
C 	C 	0.62639 0.95836 0.73816 -0.02000
C 	C 	0.60997 0.92674 0.74079 0.04900
H 	H 	0.58475 0.92313 0.72696 0.05100
C 	C 	0.45603 0.98151 0.52511 0.10200
C 	C 	0.46271 0.94811 0.51189 0.10100
N 	N 	0.45482 0.93825 0.47069 -0.08600
C 	C 	0.44123 0.96070 0.44178 -0.00800
C 	C 	0.43502 0.99422 0.45490 0.04500
N 	N 	0.44237 0.00390 0.49640 -0.10100
N 	N 	0.46419 0.99146 0.56614 -0.08700
N 	N 	0.47768 0.92610 0.54010 -0.10200
H 	H 	0.42387 0.01227 0.43244 0.05400
C 	C 	0.47953 0.96959 0.59433 -0.00900
C 	C 	0.48648 0.93628 0.58099 0.04600
H 	H 	0.49885 0.91866 0.60297 0.05000
C 	C 	0.63270 0.20390 0.85009 0.10100
C 	C 	0.61084 0.21001 0.81462 0.10000
N 	N 	0.60507 0.18515 0.78494 -0.08800
C 	C 	0.61996 0.15417 0.78946 -0.02100
C 	C 	0.64215 0.14822 0.82473 0.05100
N 	N 	0.64811 0.17324 0.85430 -0.10200
N 	N 	0.63767 0.22843 0.88050 -0.08600
N 	N 	0.59484 0.24039 0.81091 -0.10300
H 	H 	0.65443 0.12384 0.82870 0.05300
C 	C 	0.62141 0.25884 0.87713 -0.00800
C 	C 	0.59965 0.26493 0.84143 0.04400
H 	H 	0.58678 0.28905 0.83790 0.05500
C 	C 	0.63613 0.09677 0.53844 0.10300
C 	C 	0.63235 0.13215 0.53615 0.09900
N 	N 	0.65648 0.15101 0.51558 -0.08400
C 	C 	0.68432 0.13598 0.49726 -0.01900
C 	C 	0.68631 0.10042 0.49604 0.04900
N 	N 	0.66235 0.08156 0.51704 -0.10300
N 	N 	0.61641 0.07869 0.56644 -0.09000
N 	N 	0.60713 0.14751 0.55923 -0.09900
H 	H 	0.70758 0.08794 0.48011 0.05300
C 	C 	0.59307 0.09449 0.59227 0.01900
C 	C 	0.58720 0.12933 0.58695 0.03300
H 	H 	0.56854 0.14226 0.60704 0.03700
