data_crystal

_cell_length_a 31.01898
_cell_length_b 29.24928
_cell_length_c 29.07273
_cell_angle_alpha 90.02568
_cell_angle_beta  89.09956
_cell_angle_gamma 90.54768

_symmetry_space_group_name_	'P 1'
_symmetry_space_group_name_H-M	'P 1'

loop_
_symmetry_equiv_pos_as_xyz
  x,y,z

loop_
_atom_site_label
_atom_site_type_symbol
_atom_site_fract_x
_atom_site_fract_y
_atom_site_fract_z
_atom_site_charge
C 	C 	0.10357 0.04372 0.09794 0.31000
C 	C 	0.97332 0.12610 0.98353 0.33700
C 	C 	0.02372 0.99187 0.02793 0.33900
C 	C 	0.05701 0.19419 0.02739 0.30400
C 	C 	0.06433 0.04249 0.90059 0.32700
C 	C 	0.16080 0.10755 0.95458 0.31000
Ni	Ni	0.03321 0.09213 0.05194 1.12700
Ni	Ni	0.06566 0.12829 0.95175 1.12800
Ni	Ni	0.10361 0.03526 0.99181 1.12500
O 	O 	0.08469 0.08383 0.09514 -0.34300
O 	O 	0.11530 0.02028 0.06020 -0.36100
O 	O 	0.04182 0.07880 0.91143 -0.36900
O 	O 	0.98363 0.08964 0.00602 -0.34800
O 	O 	0.00352 0.15042 0.96238 -0.37100
O 	O 	0.15809 0.07208 0.98321 -0.36200
O 	O 	0.02238 0.02196 0.06154 -0.35100
O 	O 	0.04834 0.99838 0.99160 -0.38100
O 	O 	0.12763 0.11968 0.92875 -0.35100
O 	O 	0.03412 0.16493 0.05397 -0.32500
O 	O 	0.08262 0.17985 0.99358 -0.36600
O 	O 	0.09991 0.03312 0.92257 -0.36600
O 	O 	0.07445 0.09089 0.00463 -0.71900
H 	H 	0.09802 0.10766 0.01972 0.17700
C 	C 	0.12735 0.83851 0.54654 0.30700
C 	C 	0.97780 0.93436 0.47580 0.33500
C 	C 	0.02606 0.88566 0.60384 0.32700
C 	C 	0.07456 0.89386 0.40424 0.30200
C 	C 	0.94317 0.80144 0.51803 0.32800
C 	C 	0.03862 0.74423 0.46335 0.30600
Ni	Ni	0.06333 0.90517 0.51014 1.12000
Ni	Ni	0.00230 0.84037 0.44772 1.12500
Ni	Ni	0.03462 0.80430 0.54460 1.12700
O 	O 	0.12248 0.87385 0.51840 -0.34900
O 	O 	0.09409 0.82058 0.57014 -0.34300
O 	O 	0.94855 0.83337 0.48663 -0.36200
O 	O 	0.00286 0.93431 0.51158 -0.37800
O 	O 	0.98587 0.90740 0.44055 -0.35900
O 	O 	0.05872 0.75764 0.50118 -0.36200
O 	O 	0.05947 0.90282 0.58148 -0.35200
O 	O 	0.00574 0.84943 0.58810 -0.36500
O 	O 	0.01077 0.77114 0.44131 -0.35700
O 	O 	0.07269 0.92217 0.44031 -0.35900
O 	O 	0.05173 0.85501 0.40336 -0.34900
O 	O 	0.97583 0.77731 0.53231 -0.36200
O 	O 	0.04198 0.84698 0.49602 -0.72700
H 	H 	0.06753 0.83434 0.48020 0.16800
C 	C 	0.89889 0.68144 0.97361 0.31200
C 	C 	0.88021 0.51366 0.08050 0.32900
C 	C 	0.97800 0.61368 0.00793 0.34100
C 	C 	0.78893 0.58529 0.02892 0.30600
C 	C 	0.93289 0.48647 0.95235 0.32200
C 	C 	0.84302 0.54892 0.88580 0.31200
Ni	Ni	0.88478 0.60709 0.04094 1.11700
Ni	Ni	0.84864 0.51894 0.98537 1.12900
Ni	Ni	0.91825 0.58485 0.93626 1.13000
O 	O 	0.87036 0.66430 0.00308 -0.36100
O 	O 	0.91783 0.65557 0.94111 -0.33300
O 	O 	0.90233 0.48147 0.98383 -0.36500
O 	O 	0.90567 0.54916 0.07465 -0.35700
O 	O 	0.84656 0.50809 0.05431 -0.36600
O 	O 	0.87009 0.58414 0.89053 -0.35900
O 	O 	0.94897 0.63023 0.03668 -0.36400
O 	O 	0.96800 0.58069 0.97969 -0.36000
O 	O 	0.84170 0.51467 0.91603 -0.35400
O 	O 	0.82018 0.59301 0.05890 -0.35800
O 	O 	0.79300 0.55361 0.99615 -0.34500
O 	O 	0.93048 0.51865 0.92075 -0.35600
O 	O 	0.87716 0.57692 0.98442 -0.71900
H 	H 	0.85406 0.59512 0.97082 0.17200
C 	C 	0.85163 0.39567 0.59268 0.30600
C 	C 	0.97340 0.29902 0.47061 0.33500
C 	C 	0.94271 0.43556 0.51417 0.32200
C 	C 	0.88568 0.24131 0.53691 0.30800
C 	C 	0.88632 0.37874 0.39385 0.33200
C 	C 	0.78779 0.33587 0.46484 0.30200
Ni	Ni	0.92238 0.34057 0.54821 1.12000
Ni	Ni	0.87886 0.30040 0.45567 1.12800
Ni	Ni	0.85699 0.40146 0.48786 1.13100
O 	O 	0.87464 0.35770 0.59585 -0.35700
O 	O 	0.85416 0.42220 0.55535 -0.34100
O 	O 	0.90490 0.34106 0.40716 -0.36700
O 	O 	0.97255 0.33198 0.50115 -0.36600
O 	O 	0.93888 0.27376 0.46339 -0.36000
O 	O 	0.79764 0.37314 0.48904 -0.35500
O 	O 	0.94044 0.40949 0.55096 -0.34700
O 	O 	0.91669 0.42877 0.47973 -0.35900
O 	O 	0.81704 0.31494 0.43819 -0.35100
O 	O 	0.91450 0.26910 0.55677 -0.33800
O 	O 	0.85943 0.25595 0.50471 -0.37400
O 	O 	0.85526 0.39701 0.41877 -0.35800
O 	O 	0.87931 0.34371 0.50402 -0.72300
H 	H 	0.85477 0.33232 0.52275 0.16500
C 	C 	0.58623 0.00971 0.10906 0.29700
C 	C 	0.46956 0.10317 0.98409 0.32500
C 	C 	0.52607 0.96863 0.00389 0.32800
C 	C 	0.52534 0.16083 0.07432 0.30500
C 	C 	0.58575 0.06253 0.91401 0.32900
C 	C 	0.65958 0.10975 0.00436 0.32000
Ni	Ni	0.51503 0.05538 0.05786 1.12400
Ni	Ni	0.56348 0.12632 0.98801 1.12800
Ni	Ni	0.60381 0.02802 0.00642 1.12500
O 	O 	0.55454 0.03982 0.11239 -0.34300
O 	O 	0.60029 0.99391 0.06836 -0.35000
O 	O 	0.55831 0.09379 0.92764 -0.37400
O 	O 	0.47943 0.06271 0.99906 -0.36200
O 	O 	0.49828 0.13651 0.98530 -0.36500
O 	O 	0.65138 0.07034 0.02573 -0.36900
O 	O 	0.51562 0.98542 0.04440 -0.34300
O 	O 	0.55744 0.98730 0.97938 -0.37700
O 	O 	0.62914 0.13304 0.98236 -0.34700
O 	O 	0.50163 0.12271 0.08056 -0.33000
O 	O 	0.56028 0.16169 0.04742 -0.35800
O 	O 	0.61618 0.04849 0.94139 -0.37300
O 	O 	0.56521 0.07379 0.02669 -0.72400
H 	H 	0.58162 0.08629 0.05266 0.17600
C 	C 	0.48747 0.74588 0.50530 0.30700
C 	C 	0.56036 0.89293 0.61685 0.32900
C 	C 	0.43650 0.83031 0.57350 0.32200
C 	C 	0.62700 0.81832 0.53743 0.30300
C 	C 	0.48913 0.94708 0.50758 0.32500
C 	C 	0.54756 0.87459 0.41567 0.30300
Ni	Ni	0.53135 0.80733 0.57103 1.12500
Ni	Ni	0.56881 0.89508 0.51528 1.12800
Ni	Ni	0.48021 0.84928 0.48431 1.12700
O 	O 	0.52441 0.75311 0.52620 -0.34800
O 	O 	0.46587 0.77992 0.48541 -0.35400
O 	O 	0.52413 0.94171 0.53176 -0.36700
O 	O 	0.52934 0.86240 0.61572 -0.35000
O 	O 	0.58748 0.89726 0.58203 -0.36300
O 	O 	0.51566 0.84524 0.42580 -0.35200
O 	O 	0.46503 0.79898 0.58335 -0.34200
O 	O 	0.44508 0.86137 0.54214 -0.38300
O 	O 	0.56196 0.90490 0.44632 -0.35500
O 	O 	0.59944 0.80593 0.57123 -0.32900
O 	O 	0.61748 0.85033 0.50671 -0.36600
O 	O 	0.47906 0.91774 0.47504 -0.36100
O 	O 	0.53185 0.84293 0.51757 -0.72300
H 	H 	0.54749 0.82258 0.49620 0.16900
C 	C 	0.48374 0.60946 0.03428 0.30700
C 	C 	0.37598 0.51433 0.89914 0.32100
C 	C 	0.42778 0.65717 0.93532 0.32400
C 	C 	0.42598 0.46737 0.00907 0.30600
C 	C 	0.29795 0.60834 0.98876 0.32600
C 	C 	0.35501 0.56557 0.09432 0.30600
Ni	Ni	0.44329 0.55723 0.95656 1.11900
Ni	Ni	0.34989 0.52699 0.99824 1.12500
Ni	Ni	0.38744 0.62641 0.02089 1.12700
O 	O 	0.48544 0.57158 0.00918 -0.35500
O 	O 	0.45222 0.63988 0.02948 -0.36600
O 	O 	0.31307 0.57273 0.96650 -0.37900
O 	O 	0.40117 0.55017 0.90253 -0.35900
O 	O 	0.35965 0.49469 0.93637 -0.35100
O 	O 	0.37943 0.60216 0.08499 -0.36300
O 	O 	0.45644 0.62422 0.93459 -0.35600
O 	O 	0.39046 0.65053 0.95595 -0.36400
O 	O 	0.32980 0.54678 0.06246 -0.35000
O 	O 	0.44181 0.48643 0.97053 -0.34700
O 	O 	0.38642 0.47673 0.02442 -0.34700
O 	O 	0.32231 0.63017 0.01852 -0.34900
O 	O 	0.39922 0.56594 0.00043 -0.71700
H 	H 	0.41313 0.55391 0.02808 0.16700
C 	C 	0.39254 0.38340 0.37883 0.30700
C 	C 	0.40059 0.37945 0.58198 0.32100
C 	C 	0.46945 0.31445 0.45417 0.32800
C 	C 	0.34272 0.44976 0.51323 0.31100
C 	C 	0.36094 0.24833 0.51931 0.32500
C 	C 	0.27985 0.31472 0.44624 0.30600
Ni	Ni	0.41611 0.39409 0.47959 1.11800
Ni	Ni	0.33137 0.34477 0.52547 1.13100
Ni	Ni	0.37606 0.30140 0.43563 1.12700
O 	O 	0.42417 0.39315 0.40770 -0.34900
O 	O 	0.37099 0.34398 0.38121 -0.35400
O 	O 	0.32829 0.27543 0.52924 -0.34800
O 	O 	0.41805 0.40667 0.55066 -0.36200
O 	O 	0.38087 0.34202 0.56938 -0.36300
O 	O 	0.31174 0.28571 0.43665 -0.35900
O 	O 	0.45942 0.34165 0.48824 -0.35800
O 	O 	0.44091 0.30505 0.42251 -0.35300
O 	O 	0.28123 0.34227 0.48265 -0.34800
O 	O 	0.36907 0.44332 0.47786 -0.36400
O 	O 	0.32450 0.41469 0.53650 -0.33900
O 	O 	0.38957 0.25961 0.48763 -0.37000
O 	O 	0.36898 0.35369 0.47411 -0.71600
H 	H 	0.34938 0.37145 0.45487 0.16700
C 	C 	0.35304 0.41115 0.69867 -0.06900
C 	C 	0.38705 0.43623 0.71763 0.02900
C 	C 	0.42669 0.44000 0.69336 0.06600
C 	C 	0.43146 0.41942 0.64996 0.00100
C 	C 	0.39708 0.39498 0.63046 -0.09100
C 	C 	0.35786 0.39008 0.65568 0.12500
C 	C 	0.38207 0.45536 0.76456 0.03000
N 	N 	0.46226 0.46448 0.71278 -0.01600
H 	H 	0.46161 0.42336 0.63097 0.07900
N 	N 	0.32282 0.36377 0.63783 -0.03500
H 	H 	0.32287 0.40741 0.71770 0.09200
C 	C 	0.35780 0.49521 0.77255 0.06500
C 	C 	0.35351 0.51262 0.81742 0.00200
C 	C 	0.37332 0.49072 0.85436 -0.08500
C 	C 	0.39644 0.45006 0.84634 0.12700
C 	C 	0.40050 0.43263 0.80163 -0.06900
N 	N 	0.33785 0.51838 0.73518 -0.01700
H 	H 	0.33598 0.54403 0.82326 0.07600
N 	N 	0.41813 0.42791 0.88300 -0.02600
H 	H 	0.41858 0.40158 0.79568 0.09300
O 	O 	0.28803 0.38427 0.62490 -0.09200
O 	O 	0.32273 0.31949 0.64206 -0.08500
O 	O 	0.49969 0.44509 0.71562 -0.07200
O 	O 	0.45797 0.50701 0.72496 -0.06500
O 	O 	0.45979 0.42352 0.88085 -0.08500
O 	O 	0.39590 0.40571 0.91420 -0.07300
O 	O 	0.29675 0.52672 0.73691 -0.07600
O 	O 	0.36123 0.53384 0.70094 -0.07200
C 	C 	0.32252 0.49551 0.19914 -0.06300
C 	C 	0.35893 0.50196 0.22641 0.03200
C 	C 	0.39009 0.53509 0.21389 0.07300
C 	C 	0.38662 0.55849 0.17222 0.00200
C 	C 	0.35246 0.54875 0.14244 -0.06900
C 	C 	0.31851 0.51957 0.15775 0.13000
C 	C 	0.36655 0.47101 0.26539 0.03000
N 	N 	0.42619 0.54382 0.24275 -0.01800
H 	H 	0.41150 0.58290 0.16220 0.08600
N 	N 	0.27917 0.51622 0.13282 -0.02200
H 	H 	0.29747 0.47153 0.20988 0.09300
C 	C 	0.34486 0.47719 0.30786 0.07100
C 	C 	0.35429 0.44880 0.34507 -0.00100
C 	C 	0.38489 0.41413 0.34017 -0.08100
C 	C 	0.40634 0.40770 0.29765 0.13100
C 	C 	0.39694 0.43607 0.26045 -0.06800
N 	N 	0.31297 0.51194 0.31320 -0.01800
H 	H 	0.33778 0.45373 0.37783 0.07900
N 	N 	0.43757 0.37231 0.29209 -0.02400
H 	H 	0.41381 0.43143 0.22787 0.09700
O 	O 	0.25613 0.55250 0.12620 -0.06200
O 	O 	0.26467 0.47640 0.12003 -0.07400
O 	O 	0.46484 0.53321 0.22876 -0.06100
O 	O 	0.42036 0.56177 0.28328 -0.06100
O 	O 	0.43331 0.34218 0.25952 -0.07800
O 	O 	0.47214 0.37260 0.31686 -0.06900
O 	O 	0.27400 0.50097 0.32650 -0.06100
O 	O 	0.32375 0.55479 0.30851 -0.05900
C 	C 	0.43252 0.64432 0.56102 -0.06400
C 	C 	0.41287 0.62270 0.52351 0.03100
C 	C 	0.42084 0.64012 0.47862 0.06300
C 	C 	0.44497 0.68074 0.47280 0.00200
C 	C 	0.46621 0.70053 0.51026 -0.07900
C 	C 	0.46310 0.67911 0.55370 0.13300
C 	C 	0.38599 0.58051 0.53123 0.02900
N 	N 	0.40662 0.61554 0.43895 -0.01800
H 	H 	0.44859 0.69574 0.43886 0.07700
N 	N 	0.49465 0.68800 0.58808 -0.02900
H 	H 	0.42636 0.63201 0.59565 0.10400
C 	C 	0.40019 0.54493 0.56019 0.06200
C 	C 	0.37469 0.50556 0.56565 -0.00400
C 	C 	0.34260 0.49570 0.53379 -0.07600
C 	C 	0.32529 0.53225 0.50867 0.12800
C 	C 	0.34608 0.57527 0.50924 -0.06500
N 	N 	0.44250 0.54606 0.57916 -0.02000
H 	H 	0.38478 0.47934 0.58912 0.07200
N 	N 	0.28861 0.52493 0.48009 -0.02600
H 	H 	0.33247 0.60366 0.49067 0.09700
O 	O 	0.53438 0.67570 0.58084 -0.06900
O 	O 	0.48241 0.70037 0.62915 -0.06600
O 	O 	0.38330 0.63587 0.40846 -0.06800
O 	O 	0.42006 0.57418 0.43135 -0.07400
O 	O 	0.25626 0.50010 0.49487 -0.05800
O 	O 	0.28758 0.54301 0.43924 -0.05800
O 	O 	0.44733 0.54084 0.62320 -0.07000
O 	O 	0.47621 0.54691 0.55197 -0.07700
C 	C 	0.46086 0.07215 0.51886 -0.07000
C 	C 	0.41750 0.06921 0.53325 0.03300
C 	C 	0.39722 0.02595 0.53698 0.05600
C 	C 	0.42027 0.98639 0.52564 0.00800
C 	C 	0.46403 0.98928 0.51306 -0.08100
C 	C 	0.48427 0.03249 0.50902 0.12700
C 	C 	0.39273 0.11180 0.54090 0.03100
N 	N 	0.35340 0.02206 0.55269 -0.01800
H 	H 	0.40438 0.95331 0.52779 0.06600
N 	N 	0.52831 0.03631 0.49386 -0.02600
H 	H 	0.47626 0.10534 0.51465 0.09900
C 	C 	0.40701 0.14496 0.57265 0.06700
C 	C 	0.39143 0.18977 0.57011 0.00500
C 	C 	0.36109 0.20135 0.53694 -0.08000
C 	C 	0.34155 0.16638 0.51102 0.12700
C 	C 	0.35841 0.12210 0.51190 -0.06700
N 	N 	0.43850 0.13367 0.60625 -0.01700
H 	H 	0.40512 0.21620 0.59174 0.08000
N 	N 	0.30616 0.17640 0.48178 -0.02600
H 	H 	0.34601 0.09631 0.48870 0.09500
O 	O 	0.55587 0.05937 0.51815 -0.07400
O 	O 	0.54015 0.01950 0.45425 -0.07900
O 	O 	0.32472 0.00271 0.52676 -0.07200
O 	O 	0.34236 0.03686 0.59336 -0.06300
O 	O 	0.30724 0.16390 0.43883 -0.08500
O 	O 	0.27183 0.19575 0.49874 -0.06500
O 	O 	0.47223 0.15980 0.61158 -0.06600
O 	O 	0.43277 0.09806 0.63252 -0.06400
C 	C 	0.46263 0.85681 0.99690 -0.07400
C 	C 	0.46955 0.84523 0.95060 0.03000
C 	C 	0.49011 0.87671 0.92076 0.06700
C 	C 	0.50623 0.91804 0.93817 0.00500
C 	C 	0.50292 0.92796 0.98548 -0.08700
C 	C 	0.47971 0.89750 0.01474 0.13700
C 	C 	0.46156 0.79766 0.93565 0.03000
N 	N 	0.49643 0.86592 0.87311 -0.01400
H 	H 	0.52223 0.94198 0.91496 0.07300
N 	N 	0.47488 0.90672 0.06279 -0.02300
H 	H 	0.44622 0.83285 0.01977 0.08900
C 	C 	0.49412 0.76476 0.93935 0.06100
C 	C 	0.48413 0.71837 0.93349 0.00000
C 	C 	0.44164 0.70451 0.92424 -0.08900
C 	C 	0.41080 0.73799 0.91357 0.12800
C 	C 	0.42052 0.78440 0.92090 -0.07100
N 	N 	0.53721 0.77833 0.95000 -0.01700
H 	H 	0.50879 0.69306 0.93909 0.07200
N 	N 	0.37017 0.72503 0.89425 -0.02200
H 	H 	0.39618 0.81006 0.91528 0.09400
O 	O 	0.50389 0.89278 0.09125 -0.07200
O 	O 	0.43962 0.92512 0.07853 -0.06700
O 	O 	0.46345 0.85705 0.84739 -0.06800
O 	O 	0.53502 0.86696 0.85497 -0.07500
O 	O 	0.33534 0.74691 0.90584 -0.06900
O 	O 	0.36862 0.69395 0.86227 -0.06500
O 	O 	0.54632 0.79252 0.99115 -0.07600
O 	O 	0.56731 0.77679 0.91841 -0.06100
C 	C 	0.45473 0.26277 0.07622 -0.06800
C 	C 	0.48630 0.29701 0.08030 0.02600
C 	C 	0.52716 0.28579 0.09721 0.07200
C 	C 	0.53814 0.23973 0.10262 -0.00200
C 	C 	0.50855 0.20497 0.09127 -0.07200
C 	C 	0.46523 0.21686 0.08340 0.12400
C 	C 	0.47734 0.34355 0.06356 0.02900
N 	N 	0.55750 0.32092 0.10893 -0.01700
H 	H 	0.57071 0.23098 0.11205 0.08400
N 	N 	0.43180 0.18276 0.08405 -0.02100
H 	H 	0.42220 0.27173 0.06682 0.08900
C 	C 	0.48373 0.35462 0.01675 0.07100
C 	C 	0.47045 0.39710 0.00018 -0.00100
C 	C 	0.44833 0.42763 0.02913 -0.07000
C 	C 	0.44339 0.41712 0.07644 0.12500
C 	C 	0.45820 0.37532 0.09333 -0.06700
N 	N 	0.50113 0.32163 0.98533 -0.01800
H 	H 	0.47584 0.40543 0.96435 0.09000
N 	N 	0.42303 0.44860 0.10733 -0.02200
H 	H 	0.45377 0.36709 0.12946 0.09100
O 	O 	0.40312 0.18225 0.05189 -0.08500
O 	O 	0.42590 0.15742 0.12042 -0.06700
O 	O 	0.57148 0.32393 0.15077 -0.06700
O 	O 	0.57381 0.34743 0.07710 -0.06400
O 	O 	0.43791 0.49009 0.11100 -0.08500
O 	O 	0.39094 0.43513 0.13344 -0.09300
O 	O 	0.47827 0.30735 0.95096 -0.07300
O 	O 	0.54066 0.30798 0.98942 -0.07300
C 	C 	0.61680 0.01617 0.79686 -0.07000
C 	C 	0.57675 0.00020 0.78155 0.02700
C 	C 	0.53931 0.00746 0.80857 0.05900
C 	C 	0.54257 0.02895 0.85136 0.00200
C 	C 	0.58277 0.04373 0.86733 -0.09100
C 	C 	0.61996 0.03841 0.83936 0.13100
C 	C 	0.57464 0.97260 0.73919 0.03600
N 	N 	0.49801 0.99232 0.79292 -0.01200
H 	H 	0.51387 0.03339 0.87262 0.07000
N 	N 	0.66082 0.05617 0.85367 -0.02400
H 	H 	0.64553 0.01113 0.77582 0.09300
C 	C 	0.58021 0.99312 0.69563 0.06900
C 	C 	0.57698 0.96638 0.65585 0.00500
C 	C 	0.56736 0.91951 0.65910 -0.08400
C 	C 	0.56269 0.89887 0.70284 0.13800
C 	C 	0.56655 0.92553 0.74250 -0.07100
N 	N 	0.58839 0.04122 0.69166 -0.01900
H 	H 	0.58049 0.98240 0.62235 0.07700
N 	N 	0.55412 0.85086 0.70712 -0.02600
H 	H 	0.56309 0.90962 0.77602 0.10100
O 	O 	0.69410 0.02952 0.85508 -0.07500
O 	O 	0.66535 0.09953 0.86258 -0.06900
O 	O 	0.47376 0.96634 0.81905 -0.07100
O 	O 	0.48350 0.00685 0.75387 -0.06800
O 	O 	0.52008 0.83657 0.72973 -0.05900
O 	O 	0.58212 0.82150 0.69183 -0.06600
O 	O 	0.62249 0.05596 0.66945 -0.07200
O 	O 	0.56016 0.07025 0.70717 -0.06400
C 	C 	0.60260 0.98301 0.23438 -0.04900
C 	C 	0.59549 0.93555 0.23448 0.02200
C 	C 	0.59326 0.91181 0.19237 0.07300
C 	C 	0.59442 0.93621 0.15084 -0.00800
C 	C 	0.59747 0.98416 0.15093 -0.05800
C 	C 	0.60396 0.00740 0.19282 0.10800
C 	C 	0.58467 0.91208 0.27837 0.03400
N 	N 	0.58828 0.86306 0.19173 -0.01800
H 	H 	0.59077 0.91799 0.11864 0.08600
N 	N 	0.61139 0.05584 0.19330 -0.02100
H 	H 	0.60573 0.00117 0.26669 0.08500
C 	C 	0.61630 0.90559 0.31197 0.06500
C 	C 	0.60410 0.88986 0.35593 -0.00100
C 	C 	0.56054 0.88118 0.36695 -0.07500
C 	C 	0.52922 0.88571 0.33253 0.13000
C 	C 	0.54158 0.90043 0.28837 -0.06900
N 	N 	0.66065 0.91623 0.30205 -0.01700
H 	H 	0.62840 0.88579 0.38198 0.07100
N 	N 	0.48452 0.87833 0.34303 -0.02400
H 	H 	0.51722 0.90510 0.26249 0.09300
O 	O 	0.58992 0.08159 0.22188 -0.07400
O 	O 	0.64096 0.07395 0.16661 -0.07500
O 	O 	0.55741 0.84424 0.16836 -0.06700
O 	O 	0.61570 0.83743 0.21285 -0.06300
O 	O 	0.46288 0.90925 0.36549 -0.07700
O 	O 	0.46454 0.84293 0.32626 -0.07000
O 	O 	0.68207 0.94313 0.32926 -0.07100
O 	O 	0.68025 0.89712 0.26726 -0.06400
C 	C 	0.68060 0.30178 0.41306 -0.06700
C 	C 	0.65294 0.30562 0.45145 0.02800
C 	C 	0.67014 0.31639 0.49480 0.06700
C 	C 	0.71452 0.32426 0.49902 -0.00200
C 	C 	0.74183 0.32328 0.46011 -0.07500
C 	C 	0.72458 0.31217 0.41672 0.12900
C 	C 	0.60570 0.30335 0.44517 0.03000
N 	N 	0.64244 0.32083 0.53434 -0.01700
H 	H 	0.72756 0.33247 0.53244 0.07700
N 	N 	0.75092 0.31446 0.37591 -0.02200
H 	H 	0.66746 0.29352 0.37970 0.09400
C 	C 	0.58449 0.33834 0.42130 0.06500
C 	C 	0.53943 0.33877 0.42035 0.00300
C 	C 	0.51518 0.30580 0.44461 -0.08500
C 	C 	0.53625 0.26937 0.46625 0.13100
C 	C 	0.58144 0.26788 0.46572 -0.06700
N 	N 	0.60858 0.37472 0.39990 -0.01800
H 	H 	0.52324 0.36663 0.40337 0.07600
N 	N 	0.51191 0.23433 0.48956 -0.02600
H 	H 	0.59764 0.24033 0.48315 0.09300
O 	O 	0.76571 0.35374 0.36139 -0.06100
O 	O 	0.75661 0.27804 0.35096 -0.07200
O 	O 	0.64751 0.29434 0.56972 -0.07500
O 	O 	0.61452 0.35370 0.53646 -0.07100
O 	O 	0.51453 0.19214 0.47573 -0.08100
O 	O 	0.49020 0.24392 0.52692 -0.07100
O 	O 	0.60572 0.38155 0.35586 -0.06700
O 	O 	0.63040 0.40332 0.42495 -0.06800
C 	C 	0.07146 0.29409 0.39337 -0.07000
C 	C 	0.10297 0.28290 0.42547 0.03200
C 	C 	0.09024 0.26890 0.47012 0.06500
C 	C 	0.04659 0.26921 0.48301 0.00500
C 	C 	0.01547 0.28433 0.45222 -0.09200
C 	C 	0.02772 0.29454 0.40645 0.12200
C 	C 	0.14907 0.29112 0.41417 0.02600
N 	N 	0.12178 0.25669 0.50324 -0.01600
H 	H 	0.03729 0.26106 0.51816 0.07400
N 	N 	0.99603 0.30688 0.37360 -0.02100
H 	H 	0.08100 0.30376 0.35866 0.08900
C 	C 	0.17812 0.25437 0.41181 0.07400
C 	C 	0.22241 0.26277 0.41691 -0.00300
C 	C 	0.23773 0.30750 0.42420 -0.07100
C 	C 	0.20946 0.34451 0.41861 0.12600
C 	C 	0.16514 0.33610 0.41412 -0.06700
N 	N 	0.16256 0.20841 0.40635 -0.01600
H 	H 	0.24448 0.23433 0.41758 0.09100
N 	N 	0.22557 0.39063 0.41842 -0.02200
H 	H 	0.14300 0.36452 0.41313 0.08900
O 	O 	0.96721 0.27703 0.36095 -0.07300
O 	O 	0.99824 0.34655 0.35345 -0.07600
O 	O 	0.14822 0.28757 0.51888 -0.07600
O 	O 	0.12125 0.21590 0.52104 -0.06200
O 	O 	0.25911 0.40158 0.39320 -0.08300
O 	O 	0.20556 0.42209 0.44185 -0.06000
O 	O 	0.13490 0.19879 0.37450 -0.07000
O 	O 	0.17744 0.17583 0.43190 -0.05900
C 	C 	0.67597 0.62856 0.01158 -0.06600
C 	C 	0.66026 0.62986 0.05714 0.02900
C 	C 	0.68871 0.62233 0.09365 0.06300
C 	C 	0.73105 0.60855 0.08412 -0.00100
C 	C 	0.74603 0.60476 0.03843 -0.07900
C 	C 	0.71921 0.61812 0.00217 0.12800
C 	C 	0.61320 0.63267 0.06586 0.03200
N 	N 	0.67456 0.62826 0.14041 -0.01800
H 	H 	0.75211 0.60031 0.11227 0.07600
N 	N 	0.73624 0.62327 0.95624 -0.02200
H 	H 	0.65444 0.63522 0.98343 0.09300
C 	C 	0.58932 0.66907 0.04778 0.06300
C 	C 	0.54457 0.66433 0.04302 0.00000
C 	C 	0.52358 0.62387 0.05724 -0.08200
C 	C 	0.54646 0.59169 0.08301 0.12800
C 	C 	0.59132 0.59538 0.08595 -0.06900
N 	N 	0.61071 0.70982 0.03216 -0.01600
H 	H 	0.52677 0.69066 0.02553 0.07100
N 	N 	0.52418 0.55478 0.10546 -0.02400
H 	H 	0.60928 0.56832 0.10213 0.09600
O 	O 	0.71295 0.61138 0.92130 -0.06900
O 	O 	0.77244 0.64521 0.94920 -0.08000
O 	O 	0.68202 0.59679 0.17079 -0.07300
O 	O 	0.65609 0.66608 0.15309 -0.06400
O 	O 	0.53635 0.51286 0.09856 -0.07100
O 	O 	0.49379 0.56335 0.13543 -0.07200
O 	O 	0.61276 0.71912 0.98846 -0.07200
O 	O 	0.63098 0.73574 0.06123 -0.06100
C 	C 	0.18886 0.66110 0.01553 -0.07100
C 	C 	0.16101 0.62597 0.00157 0.03400
C 	C 	0.17787 0.58719 0.97923 0.06400
C 	C 	0.22246 0.58300 0.97271 0.00200
C 	C 	0.25080 0.61726 0.98838 -0.08300
C 	C 	0.23350 0.65755 0.00817 0.13500
C 	C 	0.11389 0.63147 0.00697 0.03200
N 	N 	0.14970 0.55184 0.96317 -0.01700
H 	H 	0.23504 0.55236 0.95665 0.07100
N 	N 	0.26086 0.69559 0.01902 -0.02300
H 	H 	0.17576 0.69176 0.03111 0.09300
C 	C 	0.09236 0.61861 0.04813 0.06800
C 	C 	0.04710 0.61726 0.04991 0.01300
C 	C 	0.02335 0.62837 0.01087 -0.09200
C 	C 	0.04497 0.64546 0.97143 0.13100
C 	C 	0.09004 0.64675 0.96959 -0.06800
N 	N 	0.11625 0.60645 0.08795 -0.01700
H 	H 	0.03061 0.60491 0.08069 0.07500
N 	N 	0.02117 0.66103 0.93292 -0.02800
H 	H 	0.10652 0.65820 0.93845 0.09100
O 	O 	0.26066 0.71229 0.06050 -0.07000
O 	O 	0.28306 0.71599 0.98660 -0.07100
O 	O 	0.14601 0.54463 0.91927 -0.07200
O 	O 	0.13017 0.52481 0.99243 -0.06200
O 	O 	0.01404 0.70446 0.92789 -0.07600
O 	O 	0.01132 0.63268 0.90017 -0.09700
O 	O 	0.11101 0.62923 0.12602 -0.06900
O 	O 	0.14052 0.57042 0.08727 -0.06100
C 	C 	0.79489 0.47780 0.67326 -0.06500
C 	C 	0.81631 0.46886 0.71432 0.02900
C 	C 	0.84380 0.43096 0.71711 0.06700
C 	C 	0.85215 0.40445 0.67800 -0.00000
C 	C 	0.83365 0.41565 0.63568 -0.07100
C 	C 	0.80263 0.45073 0.63417 0.12800
C 	C 	0.81121 0.49999 0.75398 0.02700
N 	N 	0.86420 0.41997 0.75946 -0.01800
H 	H 	0.87485 0.37663 0.68009 0.07800
N 	N 	0.77818 0.45812 0.59351 -0.02300
H 	H 	0.77229 0.50576 0.67165 0.09200
C 	C 	0.83768 0.53916 0.75764 0.07000
C 	C 	0.84335 0.55982 0.80063 -0.00200
C 	C 	0.82346 0.54097 0.84018 -0.07000
C 	C 	0.79124 0.50686 0.83480 0.12800
C 	C 	0.78569 0.48624 0.79173 -0.06600
N 	N 	0.86092 0.55630 0.71834 -0.01800
H 	H 	0.86594 0.58810 0.80369 0.08300
N 	N 	0.76526 0.49201 0.87328 -0.02400
H 	H 	0.76329 0.45782 0.78826 0.09100
O 	O 	0.77572 0.49894 0.57606 -0.06900
O 	O 	0.75625 0.42462 0.57559 -0.08100
O 	O 	0.85517 0.38153 0.78006 -0.07300
O 	O 	0.89408 0.44676 0.77559 -0.07400
O 	O 	0.74601 0.52186 0.89939 -0.07000
O 	O 	0.75956 0.44858 0.88118 -0.07600
O 	O 	0.85053 0.59535 0.70050 -0.07000
O 	O 	0.89447 0.53463 0.70259 -0.06400
C 	C 	0.92420 0.44484 0.17844 -0.07100
C 	C 	0.88929 0.44581 0.20957 0.03100
C 	C 	0.85039 0.46647 0.19695 0.06300
C 	C 	0.84731 0.48728 0.15391 0.00300
C 	C 	0.88263 0.48750 0.12326 -0.09100
C 	C 	0.92092 0.46524 0.13516 0.13100
C 	C 	0.89438 0.42770 0.25626 0.03000
N 	N 	0.81431 0.46731 0.22828 -0.01700
H 	H 	0.81769 0.50415 0.14466 0.07400
N 	N 	0.95597 0.46203 0.10281 -0.02500
H 	H 	0.95389 0.42827 0.18790 0.09400
C 	C 	0.89138 0.38037 0.26471 0.06900
C 	C 	0.89119 0.36429 0.30998 0.01200
C 	C 	0.89398 0.39510 0.34681 -0.08100
C 	C 	0.90038 0.44201 0.33808 0.13500
C 	C 	0.90012 0.45815 0.29290 -0.06700
N 	N 	0.88780 0.34865 0.22742 -0.01700
H 	H 	0.88710 0.32801 0.31657 0.08000
N 	N 	0.90900 0.47297 0.37491 -0.02600
H 	H 	0.90398 0.49445 0.28627 0.09300
O 	O 	0.95119 0.43888 0.06502 -0.08100
O 	O 	0.99380 0.47809 0.11332 -0.06800
O 	O 	0.79696 0.50608 0.23973 -0.07200
O 	O 	0.79714 0.42922 0.24309 -0.06200
O 	O 	0.94639 0.47270 0.39447 -0.06700
O 	O 	0.88116 0.50429 0.38579 -0.06700
O 	O 	0.91663 0.31706 0.22174 -0.06600
O 	O 	0.85405 0.34905 0.20145 -0.06600
C 	C 	0.06443 0.62060 0.47667 -0.06200
C 	C 	0.02527 0.60134 0.46263 0.01700
C 	C 	0.99744 0.62728 0.43538 0.09500
C 	C 	0.00499 0.67427 0.42986 -0.02900
C 	C 	0.04065 0.69519 0.45074 -0.06300
C 	C 	0.07304 0.66719 0.46915 0.12000
C 	C 	0.01007 0.55769 0.48297 0.02000
N 	N 	0.96085 0.60619 0.41448 -0.02000
H 	H 	0.98169 0.69478 0.41194 0.10000
N 	N 	0.11440 0.68605 0.48041 -0.02000
H 	H 	0.08748 0.59984 0.49469 0.09300
C 	C 	0.02685 0.51563 0.46774 0.07200
C 	C 	0.00786 0.47462 0.48320 -0.00800
C 	C 	0.97177 0.47534 0.51289 -0.07000
C 	C 	0.95792 0.51719 0.53164 0.12500
C 	C 	0.97704 0.55816 0.51649 -0.05500
N 	N 	0.06217 0.51439 0.43550 -0.01800
H 	H 	0.01911 0.44236 0.46934 0.07300
N 	N 	0.92273 0.51835 0.56412 -0.02500
H 	H 	0.96526 0.59047 0.52967 0.09200
O 	O 	0.13459 0.71295 0.45149 -0.07000
O 	O 	0.13240 0.67535 0.51902 -0.07800
O 	O 	0.92217 0.62005 0.42474 -0.06000
O 	O 	0.96627 0.57386 0.38429 -0.05700
O 	O 	0.92493 0.49584 0.60257 -0.06400
O 	O 	0.88941 0.54370 0.55626 -0.06800
O 	O 	0.09728 0.49303 0.44590 -0.07300
O 	O 	0.05786 0.53108 0.39438 -0.06700
C 	C 	0.89515 0.01700 0.51438 -0.07700
C 	C 	0.91241 0.05698 0.49477 0.03400
C 	C 	0.94308 0.05384 0.45859 0.06100
C 	C 	0.96036 0.01116 0.44699 -0.00200
C 	C 	0.94721 0.97188 0.47123 -0.08600
C 	C 	0.91171 0.97437 0.50189 0.13700
C 	C 	0.90233 0.10162 0.51582 0.02700
N 	N 	0.95800 0.09411 0.43496 -0.01600
H 	H 	0.98635 0.00911 0.42172 0.07300
N 	N 	0.89344 0.93370 0.52161 -0.02700
H 	H 	0.86996 0.01912 0.54053 0.09700
C 	C 	0.86061 0.11992 0.51338 0.06500
C 	C 	0.85295 0.16406 0.52998 -0.00200
C 	C 	0.88738 0.19144 0.54526 -0.07800
C 	C 	0.92696 0.17030 0.55494 0.12800
C 	C 	0.93456 0.12579 0.53917 -0.06700
N 	N 	0.82654 0.09477 0.49202 -0.01800
H 	H 	0.82124 0.17878 0.52626 0.07600
N 	N 	0.95857 0.19299 0.58238 -0.02200
H 	H 	0.96557 0.11012 0.54477 0.09100
O 	O 	0.87892 0.90152 0.49496 -0.06900
O 	O 	0.88637 0.93136 0.56577 -0.07800
O 	O 	0.99913 0.10187 0.42959 -0.07300
O 	O 	0.93046 0.12219 0.41738 -0.07100
O 	O 	0.94811 0.20777 0.62323 -0.06900
O 	O 	0.99874 0.19400 0.56888 -0.07700
O 	O 	0.79105 0.08597 0.51489 -0.07600
O 	O 	0.82953 0.08405 0.44866 -0.07000
C 	C 	0.73650 0.78100 0.57988 -0.06700
C 	C 	0.76126 0.78474 0.53926 0.02900
C 	C 	0.74069 0.79365 0.49732 0.06500
C 	C 	0.69601 0.80009 0.49679 -0.00200
C 	C 	0.67191 0.80130 0.53809 -0.07500
C 	C 	0.69250 0.79133 0.58000 0.12900
C 	C 	0.80898 0.78335 0.54142 0.03000
N 	N 	0.76532 0.79842 0.45553 -0.01800
H 	H 	0.68045 0.80679 0.46438 0.07400
N 	N 	0.66999 0.79577 0.62298 -0.02200
H 	H 	0.75206 0.77331 0.61207 0.09400
C 	C 	0.83202 0.81701 0.56607 0.06900
C 	C 	0.87713 0.81828 0.56334 0.00700
C 	C 	0.89921 0.78912 0.53320 -0.08200
C 	C 	0.87670 0.75333 0.51146 0.13100
C 	C 	0.83173 0.75015 0.51628 -0.06600
N 	N 	0.80967 0.85157 0.59155 -0.01600
H 	H 	0.89479 0.84408 0.58225 0.08300
N 	N 	0.89926 0.72094 0.48349 -0.02600
H 	H 	0.81436 0.72305 0.49887 0.09400
O 	O 	0.66656 0.83576 0.64220 -0.06200
O 	O 	0.65743 0.75939 0.64533 -0.06300
O 	O 	0.75800 0.77118 0.42111 -0.07300
O 	O 	0.79246 0.83231 0.45057 -0.06600
O 	O 	0.92651 0.69322 0.50206 -0.07700
O 	O 	0.89067 0.71732 0.43999 -0.07200
O 	O 	0.81586 0.85592 0.63548 -0.06900
O 	O 	0.78636 0.88130 0.57017 -0.06500
C 	C 	0.22686 0.83347 0.61931 -0.06800
C 	C 	0.25743 0.81855 0.58685 0.02800
C 	C 	0.24408 0.80492 0.54274 0.06800
C 	C 	0.20089 0.80968 0.53049 0.00000
C 	C 	0.17100 0.82812 0.56180 -0.07500
C 	C 	0.18389 0.83915 0.60684 0.13100
C 	C 	0.30363 0.82379 0.59669 0.02800
N 	N 	0.27459 0.78759 0.50985 -0.01700
H 	H 	0.19089 0.80033 0.49615 0.07800
N 	N 	0.15402 0.85864 0.63912 -0.02200
H 	H 	0.23701 0.84351 0.65340 0.09200
C 	C 	0.32386 0.86698 0.59332 0.06500
C 	C 	0.36879 0.87020 0.59443 0.00200
C 	C 	0.39363 0.83042 0.59665 -0.08200
C 	C 	0.37318 0.78910 0.60998 0.12700
C 	C 	0.32812 0.78536 0.60743 -0.06900
N 	N 	0.29893 0.90735 0.58709 -0.01800
H 	H 	0.38442 0.90320 0.58992 0.07300
N 	N 	0.39682 0.75426 0.63282 -0.02100
H 	H 	0.31218 0.75295 0.61458 0.09000
O 	O 	0.14537 0.83759 0.67761 -0.07000
O 	O 	0.14052 0.90014 0.63312 -0.07000
O 	O 	0.27078 0.74587 0.49488 -0.07400
O 	O 	0.30401 0.81457 0.49215 -0.07900
O 	O 	0.42285 0.76547 0.66572 -0.05700
O 	O 	0.38636 0.71152 0.62692 -0.08300
O 	O 	0.29926 0.93935 0.61815 -0.06200
O 	O 	0.27781 0.91324 0.54928 -0.06800
C 	C 	0.94084 0.90116 0.00496 -0.07700
C 	C 	0.96532 0.86182 0.01189 0.04400
C 	C 	0.00678 0.86572 0.03085 0.05100
C 	C 	0.02328 0.90893 0.04221 0.01100
C 	C 	0.00008 0.94848 0.03216 -0.10400
C 	C 	0.95813 0.94444 0.01459 0.14700
C 	C 	0.94639 0.81645 0.00189 0.03000
N 	N 	0.03273 0.82602 0.03724 -0.01400
H 	H 	0.05565 0.91193 0.05553 0.06300
N 	N 	0.93366 0.98431 0.00468 -0.02400
H 	H 	0.90860 0.89821 0.99132 0.09300
C 	C 	0.93530 0.78636 0.03800 0.06800
C 	C 	0.92104 0.74210 0.02804 0.00600
C 	C 	0.91535 0.72804 0.98231 -0.08300
C 	C 	0.92428 0.75894 0.94608 0.13700
C 	C 	0.94061 0.80272 0.95606 -0.07000
N 	N 	0.93830 0.80079 0.08496 -0.01600
H 	H 	0.91372 0.71872 0.05607 0.06000
N 	N 	0.91535 0.74675 0.89944 -0.02300
H 	H 	0.94833 0.82621 0.92824 0.09300
O 	O 	0.89905 0.99303 0.02879 -0.05500
O 	O 	0.94208 0.00764 0.96749 -0.07700
O 	O 	0.04167 0.79946 0.00254 -0.08300
O 	O 	0.05032 0.81856 0.07683 -0.07400
O 	O 	0.87642 0.73497 0.88797 -0.06500
O 	O 	0.94506 0.75174 0.86773 -0.05900
O 	O 	0.91704 0.83632 0.09929 -0.07300
O 	O 	0.95945 0.77629 0.11418 -0.06800
C 	C 	0.02494 0.41445 0.98595 -0.06100
C 	C 	0.00809 0.37109 0.97544 0.02600
C 	C 	0.97281 0.36741 0.94556 0.07400
C 	C 	0.95116 0.40696 0.93203 -0.00100
C 	C 	0.96495 0.45006 0.94736 -0.06600
C 	C 	0.00443 0.45391 0.97039 0.12100
C 	C 	0.02461 0.33009 0.99912 0.01200
N 	N 	0.95797 0.32350 0.93028 -0.01700
H 	H 	0.92195 0.40391 0.91222 0.07900
N 	N 	0.02340 0.49781 0.97863 -0.02300
H 	H 	0.05328 0.41758 0.00710 0.10000
C 	C 	0.06737 0.31559 0.99196 0.07000
C 	C 	0.08055 0.27384 0.01038 -0.01000
C 	C 	0.05035 0.24427 0.03182 -0.06300
C 	C 	0.00964 0.26186 0.04485 0.10200
C 	C 	0.99694 0.30456 0.02808 -0.03800
N 	N 	0.09676 0.34178 0.96387 -0.01900
H 	H 	0.11309 0.26223 0.00355 0.09000
N 	N 	0.98215 0.23781 0.07674 -0.01500
H 	H 	0.96522 0.31750 0.03687 0.08900
O 	O 	0.03542 0.52341 0.94408 -0.06700
O 	O 	0.03321 0.50987 0.02026 -0.06700
O 	O 	0.91748 0.31218 0.93490 -0.07500
O 	O 	0.98469 0.29537 0.91049 -0.07200
O 	O 	0.99638 0.22724 0.11719 -0.05200
O 	O 	0.94127 0.23322 0.06829 -0.07200
O 	O 	0.13304 0.35616 0.98071 -0.07300
O 	O 	0.08905 0.34768 0.92043 -0.07200
C 	C 	0.76299 0.17945 0.99508 -0.07600
C 	C 	0.79220 0.14583 0.98066 0.03600
C 	C 	0.77709 0.10123 0.97126 0.06400
C 	C 	0.73367 0.09008 0.97893 0.00800
C 	C 	0.70496 0.12284 0.99614 -0.08400
C 	C 	0.71947 0.16811 0.00334 0.13600
C 	C 	0.83886 0.15409 0.98570 0.02600
N 	N 	0.80648 0.06635 0.95691 -0.01600
H 	H 	0.72228 0.05568 0.97174 0.07100
N 	N 	0.69064 0.20213 0.02084 -0.02400
H 	H 	0.77454 0.21371 0.00253 0.09600
C 	C 	0.86461 0.16925 0.94822 0.07100
C 	C 	0.90953 0.16386 0.94933 0.00700
C 	C 	0.92867 0.14312 0.98739 -0.08500
C 	C 	0.90304 0.13320 0.02704 0.13900
C 	C 	0.85851 0.13945 0.02596 -0.06500
N 	N 	0.84537 0.19010 0.90910 -0.01800
H 	H 	0.92910 0.17338 0.91957 0.08100
N 	N 	0.92181 0.11445 0.06757 -0.02700
H 	H 	0.83876 0.12987 0.05559 0.09200
O 	O 	0.68653 0.24062 0.99902 -0.06900
O 	O 	0.67115 0.19614 0.06036 -0.07400
O 	O 	0.80988 0.02919 0.98110 -0.07200
O 	O 	0.82808 0.07061 0.91843 -0.06300
O 	O 	0.95133 0.13726 0.08930 -0.08900
O 	O 	0.90624 0.07685 0.08533 -0.06400
O 	O 	0.85708 0.23115 0.89670 -0.06400
O 	O 	0.81895 0.16676 0.88369 -0.06300
C 	C 	0.34799 0.09296 0.97595 -0.06800
C 	C 	0.33870 0.12938 0.94668 0.02900
C 	C 	0.37212 0.15886 0.93127 0.06800
C 	C 	0.41487 0.14994 0.94341 0.00400
C 	C 	0.42426 0.11297 0.97238 -0.08200
C 	C 	0.39007 0.08545 0.99011 0.13000
C 	C 	0.29341 0.13728 0.93446 0.03100
N 	N 	0.36270 0.19866 0.90470 -0.01700
H 	H 	0.44066 0.17183 0.93037 0.07800
N 	N 	0.39760 0.05163 0.02454 -0.02300
H 	H 	0.32206 0.07125 0.98908 0.08800
C 	C 	0.27255 0.10639 0.90469 0.06500
C 	C 	0.22780 0.10018 0.90829 -0.00000
C 	C 	0.20392 0.12426 0.94146 -0.07700
C 	C 	0.22389 0.15951 0.96658 0.12200
C 	C 	0.26854 0.16646 0.96225 -0.06800
N 	N 	0.29723 0.07812 0.87400 -0.01600
H 	H 	0.21204 0.07450 0.88736 0.08400
N 	N 	0.19925 0.18730 0.99762 -0.02700
H 	H 	0.28433 0.19150 0.98390 0.09200
O 	O 	0.39106 0.00861 0.01540 -0.07700
O 	O 	0.40721 0.06411 0.06611 -0.09200
O 	O 	0.37616 0.23867 0.91816 -0.07300
O 	O 	0.34325 0.19461 0.86558 -0.06500
O 	O 	0.18104 0.16913 0.03394 -0.08500
O 	O 	0.19882 0.23143 0.99216 -0.07800
O 	O 	0.29006 0.03425 0.87265 -0.07500
O 	O 	0.32606 0.09637 0.84653 -0.06300
C 	C 	0.01721 0.89895 0.73228 -0.06900
C 	C 	0.01668 0.94677 0.73581 0.03100
C 	C 	0.01002 0.97337 0.69618 0.06600
C 	C 	0.00886 0.95226 0.65297 0.00400
C 	C 	0.01414 0.90486 0.64895 -0.08600
C 	C 	0.01579 0.87783 0.68904 0.13200
C 	C 	0.02947 0.96893 0.77926 0.02900
N 	N 	0.00636 0.02206 0.69953 -0.02300
H 	H 	0.00581 0.97298 0.62230 0.06800
N 	N 	0.01722 0.82907 0.68593 -0.03000
H 	H 	0.02094 0.87828 0.76288 0.09100
C 	C 	0.00066 0.97091 0.81718 0.06100
C 	C 	0.01265 0.99459 0.85699 -0.00300
C 	C 	0.05313 0.01617 0.85934 -0.08900
C 	C 	0.08230 0.01323 0.82181 0.12400
C 	C 	0.07047 0.98927 0.78221 -0.06300
N 	N 	0.95931 0.94887 0.81545 -0.01200
H 	H 	0.99034 0.99645 0.88597 0.08800
N 	N 	0.12346 0.03569 0.82327 -0.02300
H 	H 	0.09280 0.98746 0.75321 0.09300
O 	O 	0.05212 0.80913 0.67129 -0.07900
O 	O 	0.98501 0.80454 0.70153 -0.06300
O 	O 	0.03019 0.04843 0.67336 -0.08200
O 	O 	0.97784 0.03999 0.72723 -0.06200
O 	O 	0.15856 0.01206 0.81861 -0.07700
O 	O 	0.12577 0.08006 0.82557 -0.07600
O 	O 	0.94823 0.91891 0.84661 -0.07700
O 	O 	0.93150 0.96134 0.78498 -0.06000
C 	C 	0.07586 0.00325 0.21933 -0.07600
C 	C 	0.11091 0.97512 0.22879 0.03800
C 	C 	0.14407 0.96983 0.19546 0.06200
C 	C 	0.14166 0.99278 0.15305 0.00800
C 	C 	0.10675 0.02149 0.14378 -0.08600
C 	C 	0.07362 0.02660 0.17746 0.13100
C 	C 	0.11270 0.95188 0.27414 0.02700
N 	N 	0.18024 0.94134 0.20449 -0.01700
H 	H 	0.16721 0.98858 0.12758 0.07500
N 	N 	0.03712 0.05468 0.16895 -0.03100
H 	H 	0.05020 0.00716 0.24474 0.09100
C 	C 	0.11667 0.97782 0.31474 0.07000
C 	C 	0.10741 0.95761 0.35754 -0.00700
C 	C 	0.09462 0.91137 0.36049 -0.07300
C 	C 	0.09666 0.88402 0.32029 0.12300
C 	C 	0.10430 0.90474 0.27725 -0.06600
N 	N 	0.12872 0.02520 0.31250 -0.02000
H 	H 	0.10901 0.97838 0.38834 0.07900
N 	N 	0.09327 0.83526 0.32319 -0.02100
H 	H 	0.10324 0.88421 0.24623 0.09300
O 	O 	0.03841 0.09779 0.17986 -0.07300
O 	O 	0.00057 0.03575 0.15806 -0.08300
O 	O 	0.19016 0.90846 0.17623 -0.07500
O 	O 	0.20500 0.95026 0.23913 -0.06500
O 	O 	0.12021 0.81256 0.34808 -0.06800
O 	O 	0.06555 0.81332 0.29809 -0.07500
O 	O 	0.10563 0.05559 0.33404 -0.07400
O 	O 	0.16377 0.03772 0.29062 -0.06800
