data_crystal

_cell_length_a 27.34731
_cell_length_b 42.53398
_cell_length_c 36.25501
_cell_angle_alpha 90.00286
_cell_angle_beta  89.99909
_cell_angle_gamma 89.99728

_symmetry_space_group_name_	'P 1'
_symmetry_space_group_name_H-M	'P 1'

loop_
_symmetry_equiv_pos_as_xyz
  x,y,z

loop_
_atom_site_label
_atom_site_type_symbol
_atom_site_fract_x
_atom_site_fract_y
_atom_site_fract_z
_atom_site_charge
Cu	Cu	0.04214 0.86768 0.09236 0.93100
Cu	Cu	0.98957 0.86180 0.17283 0.86100
Cu	Cu	0.93501 0.85292 0.10373 0.89400
Cu	Cu	0.97607 0.83870 0.02954 0.89100
C 	C 	0.08456 0.83561 0.03052 0.29400
O 	O 	0.02910 0.90324 0.05649 -0.35100
C 	C 	0.88627 0.87635 0.16957 0.28700
O 	O 	0.98995 0.83277 0.08003 -0.64400
O 	O 	0.98714 0.88052 0.12381 -0.64800
O 	O 	0.09204 0.86571 0.13208 -0.36700
O 	O 	0.04403 0.83428 0.16742 -0.43400
O 	O 	0.04481 0.84223 0.01144 -0.38200
O 	O 	0.88482 0.82410 0.08658 -0.38500
C 	C 	0.87983 0.81316 0.05268 0.29700
C 	C 	0.98495 0.90906 0.04364 0.27400
O 	O 	0.95238 0.88640 0.04141 -0.39800
O 	O 	0.91734 0.81122 0.02982 -0.39700
O 	O 	0.09169 0.84767 0.06356 -0.36100
C 	C 	0.08736 0.84554 0.15923 0.29500
O 	O 	0.88438 0.87268 0.13341 -0.38100
O 	O 	0.92830 0.88071 0.18684 -0.41500
H 	H 	0.99595 0.81080 0.08788 0.16100
H 	H 	0.97877 0.90317 0.12345 0.17300
Cu	Cu	0.42480 0.85188 0.39647 0.93000
Cu	Cu	0.47791 0.84680 0.31578 0.86400
Cu	Cu	0.52833 0.82978 0.38187 0.89300
Cu	Cu	0.48845 0.81750 0.45696 0.89400
C 	C 	0.38034 0.81785 0.45560 0.29100
O 	O 	0.44192 0.88532 0.43396 -0.36200
C 	C 	0.58270 0.85926 0.32171 0.29200
O 	O 	0.47181 0.81351 0.40662 -0.64200
O 	O 	0.48175 0.86279 0.36582 -0.64600
O 	O 	0.37464 0.85461 0.35700 -0.36600
O 	O 	0.41889 0.82320 0.31877 -0.43900
O 	O 	0.42014 0.82247 0.47546 -0.38500
O 	O 	0.57128 0.79560 0.39544 -0.39000
C 	C 	0.57946 0.78592 0.42949 0.29800
C 	C 	0.48669 0.88857 0.44665 0.28800
O 	O 	0.51679 0.86451 0.44696 -0.39300
O 	O 	0.54609 0.78868 0.45577 -0.39000
O 	O 	0.37313 0.83369 0.42480 -0.35600
C 	C 	0.37761 0.83717 0.32724 0.30000
O 	O 	0.58312 0.84877 0.35607 -0.38700
O 	O 	0.54145 0.86348 0.30320 -0.41500
H 	H 	0.46166 0.79223 0.39860 0.16300
H 	H 	0.49461 0.88447 0.36806 0.17700
Cu	Cu	0.06229 0.16424 0.88852 0.92900
Cu	Cu	0.00883 0.16946 0.80836 0.86700
Cu	Cu	0.95555 0.18074 0.87774 0.89200
Cu	Cu	0.99855 0.19508 0.95166 0.89200
C 	C 	0.10669 0.19724 0.94869 0.29400
O 	O 	0.04893 0.12948 0.92526 -0.36700
C 	C 	0.90499 0.15767 0.81258 0.28400
O 	O 	0.01162 0.20008 0.90081 -0.63500
O 	O 	0.00621 0.15183 0.85795 -0.63400
O 	O 	0.11149 0.16468 0.84832 -0.36900
O 	O 	0.06435 0.19626 0.81251 -0.43700
O 	O 	0.06756 0.19120 0.96870 -0.38100
O 	O 	0.90754 0.21098 0.89484 -0.38700
C 	C 	0.90231 0.22046 0.92930 0.29700
C 	C 	0.00486 0.12429 0.93861 0.30700
O 	O 	0.97319 0.14747 0.94124 -0.40400
O 	O 	0.94039 0.22304 0.95149 -0.39200
O 	O 	0.11311 0.18386 0.91629 -0.36200
C 	C 	0.10735 0.18453 0.82082 0.29700
O 	O 	0.90351 0.16164 0.84871 -0.37700
O 	O 	0.94665 0.15128 0.79567 -0.42300
H 	H 	0.01851 0.22182 0.89256 0.16400
H 	H 	0.99689 0.12935 0.85900 0.16500
Cu	Cu	0.43994 0.15058 0.58594 0.92900
Cu	Cu	0.49602 0.15831 0.66504 0.86700
Cu	Cu	0.54688 0.16868 0.59361 0.89600
Cu	Cu	0.50159 0.17732 0.51917 0.89500
C 	C 	0.39412 0.18122 0.52489 0.29300
O 	O 	0.45145 0.11387 0.55152 -0.36300
C 	C 	0.59975 0.14922 0.65962 0.28400
O 	O 	0.48994 0.18576 0.56971 -0.63900
O 	O 	0.49763 0.13981 0.61588 -0.64200
O 	O 	0.39179 0.15236 0.62686 -0.37000
O 	O 	0.44008 0.18461 0.66092 -0.44000
O 	O 	0.43169 0.17302 0.50425 -0.38100
O 	O 	0.59233 0.19915 0.57357 -0.38200
C 	C 	0.59813 0.20528 0.53814 0.29500
C 	C 	0.49496 0.10763 0.53784 0.28600
O 	O 	0.52693 0.13036 0.53316 -0.39300
O 	O 	0.56075 0.20441 0.51502 -0.39200
O 	O 	0.38812 0.16888 0.55792 -0.36300
C 	C 	0.39712 0.17221 0.65422 0.30000
O 	O 	0.60095 0.15277 0.62341 -0.37500
O 	O 	0.55897 0.14104 0.67655 -0.41800
H 	H 	0.48276 0.20796 0.57588 0.16300
H 	H 	0.50747 0.11741 0.61548 0.17400
Cu	Cu	0.92358 0.64905 0.58748 0.92800
Cu	Cu	0.97209 0.65037 0.67054 0.86400
Cu	Cu	0.02790 0.67023 0.60338 0.89900
Cu	Cu	0.98941 0.68085 0.52689 0.89000
C 	C 	0.88098 0.68127 0.52597 0.29300
O 	O 	0.94054 0.61512 0.55059 -0.35600
C 	C 	0.07673 0.64627 0.66979 0.28800
O 	O 	0.97218 0.68640 0.57709 -0.64200
O 	O 	0.97963 0.63773 0.61936 -0.64500
O 	O 	0.87118 0.64698 0.62530 -0.36600
O 	O 	0.91493 0.67543 0.66676 -0.44200
O 	O 	0.92156 0.67601 0.50727 -0.38400
O 	O 	0.07158 0.70363 0.58817 -0.38000
C 	C 	0.08108 0.71097 0.55353 0.29400
C 	C 	0.98611 0.61007 0.54065 0.26300
O 	O 	0.01690 0.63376 0.53863 -0.38200
O 	O 	0.04674 0.70965 0.52791 -0.38900
O 	O 	0.87333 0.66775 0.55817 -0.36000
C 	C 	0.87337 0.66283 0.65630 0.29200
O 	O 	0.08105 0.65520 0.63501 -0.37800
O 	O 	0.03563 0.63414 0.68241 -0.41200
H 	H 	0.96229 0.70798 0.58413 0.16200
H 	H 	0.99214 0.61603 0.61662 0.17100
Cu	Cu	0.53927 0.66710 0.89929 0.92800
Cu	Cu	0.48708 0.65859 0.81757 0.86800
Cu	Cu	0.43197 0.68213 0.88455 0.89700
Cu	Cu	0.47125 0.69716 0.95895 0.89400
C 	C 	0.57959 0.70450 0.95769 0.29300
O 	O 	0.53042 0.63415 0.93892 -0.36400
C 	C 	0.38331 0.65260 0.82156 0.28900
O 	O 	0.48614 0.70206 0.90835 -0.64200
O 	O 	0.48320 0.65056 0.87038 -0.63900
O 	O 	0.59094 0.66527 0.86080 -0.36400
O 	O 	0.54178 0.68583 0.81647 -0.44000
O 	O 	0.54026 0.69805 0.97749 -0.37900
O 	O 	0.38622 0.71524 0.89695 -0.38500
C 	C 	0.37968 0.72751 0.93010 0.29800
C 	C 	0.48675 0.62691 0.95130 0.28700
O 	O 	0.45190 0.64808 0.95053 -0.38900
O 	O 	0.40700 0.71936 0.95870 -0.38900
O 	O 	0.58733 0.69053 0.92572 -0.36100
C 	C 	0.58480 0.67565 0.82705 0.29400
O 	O 	0.37912 0.66298 0.85576 -0.37800
O 	O 	0.42429 0.63970 0.80993 -0.41500
H 	H 	0.49286 0.72388 0.90026 0.16400
H 	H 	0.47364 0.62865 0.87606 0.17100
Cu	Cu	0.93942 0.35256 0.38864 0.92900
Cu	Cu	0.99405 0.34464 0.30922 0.86200
Cu	Cu	0.04672 0.33654 0.37933 0.89900
Cu	Cu	0.00358 0.32504 0.45353 0.89800
C 	C 	0.89655 0.31930 0.44876 0.29500
O 	O 	0.95167 0.38860 0.42393 -0.35600
C 	C 	0.09768 0.35737 0.31323 0.28400
O 	O 	0.99093 0.31764 0.40302 -0.64400
O 	O 	0.99573 0.36433 0.35780 -0.65300
O 	O 	0.89084 0.35047 0.34822 -0.37300
O 	O 	0.93884 0.31773 0.31464 -0.43800
O 	O 	0.93391 0.32755 0.46955 -0.38900
O 	O 	0.09496 0.30711 0.39779 -0.38200
C 	C 	0.09932 0.29698 0.43208 0.29900
C 	C 	0.99607 0.39521 0.43565 0.26200
O 	O 	0.02812 0.37246 0.44027 -0.38700
O 	O 	0.06238 0.29767 0.45559 -0.39300
O 	O 	0.88867 0.33337 0.41698 -0.36000
C 	C 	0.89560 0.32963 0.32182 0.29900
O 	O 	0.09881 0.35481 0.34954 -0.37500
O 	O 	0.05611 0.36271 0.29572 -0.41300
H 	H 	0.98469 0.29549 0.39604 0.16300
H 	H 	0.00477 0.38686 0.35757 0.18500
Cu	Cu	0.56307 0.36495 0.08526 0.92900
Cu	Cu	0.51024 0.35712 0.16601 0.86500
Cu	Cu	0.45844 0.34342 0.09682 0.89600
Cu	Cu	0.49933 0.33615 0.02146 0.89400
C 	C 	0.60767 0.33561 0.02271 0.29300
O 	O 	0.54780 0.40102 0.05064 -0.36200
C 	C 	0.40543 0.36366 0.16226 0.28500
O 	O 	0.51503 0.32807 0.07130 -0.64100
O 	O 	0.50590 0.37471 0.11650 -0.64200
O 	O 	0.61295 0.36443 0.12497 -0.36700
O 	O 	0.56708 0.33186 0.16061 -0.44100
O 	O 	0.56787 0.34208 0.00361 -0.38400
O 	O 	0.41533 0.31062 0.07965 -0.38800
C 	C 	0.40772 0.30312 0.04480 0.30100
C 	C 	0.50311 0.40589 0.03846 0.28700
O 	O 	0.47212 0.38236 0.03669 -0.39300
O 	O 	0.44106 0.30808 0.01898 -0.39300
O 	O 	0.61439 0.34750 0.05593 -0.35900
C 	C 	0.60924 0.34498 0.15289 0.29800
O 	O 	0.40403 0.35920 0.12621 -0.37700
O 	O 	0.44625 0.37259 0.17871 -0.41800
H 	H 	0.52423 0.30612 0.07718 0.16500
H 	H 	0.49391 0.39666 0.11565 0.17500
C 	C 	0.71401 0.35911 0.21887 -0.07500
C 	C 	0.73234 0.32857 0.22314 0.01300
C 	C 	0.70983 0.30332 0.20456 -0.00700
C 	C 	0.66958 0.30896 0.18163 0.00000
C 	C 	0.65152 0.33958 0.17710 -0.10300
C 	C 	0.67363 0.36475 0.19619 0.05700
C 	C 	0.77488 0.32336 0.24742 0.01400
S 	S 	0.73194 0.26469 0.20957 -0.04200
H 	H 	0.65246 0.28955 0.16717 0.03500
S 	S 	0.64975 0.40314 0.19331 -0.06300
H 	H 	0.73107 0.37849 0.23345 0.05200
C 	C 	0.82284 0.32649 0.23374 -0.00900
C 	C 	0.86241 0.32663 0.25819 -0.00300
C 	C 	0.85460 0.32384 0.29631 -0.10300
C 	C 	0.80683 0.31844 0.30970 0.06000
C 	C 	0.76730 0.31843 0.28520 -0.07500
S 	S 	0.83365 0.33108 0.18616 -0.04600
H 	H 	0.89911 0.33019 0.24768 0.01600
S 	S 	0.79613 0.31075 0.35673 -0.03700
H 	H 	0.73046 0.31527 0.29563 0.05200
H 	H 	0.61464 0.40706 0.21988 0.02200
H 	H 	0.83097 0.36233 0.17724 0.03500
H 	H 	0.78790 0.33844 0.37502 0.05000
H 	H 	0.76781 0.25937 0.18394 0.03700
C 	C 	0.22746 0.34537 0.27869 -0.07200
C 	C 	0.22965 0.36751 0.25013 0.01200
C 	C 	0.18915 0.38715 0.24325 -0.00500
C 	C 	0.14717 0.38459 0.26514 -0.00600
C 	C 	0.14422 0.36166 0.29298 -0.08800
C 	C 	0.18481 0.34181 0.29959 0.04900
C 	C 	0.27312 0.36820 0.22585 0.01200
S 	S 	0.19002 0.41439 0.20667 -0.03900
H 	H 	0.11640 0.40006 0.26004 0.04200
S 	S 	0.18168 0.31096 0.33193 -0.03600
H 	H 	0.25850 0.33011 0.28380 0.05000
C 	C 	0.31025 0.39076 0.23095 -0.00600
C 	C 	0.35237 0.38977 0.20903 -0.00600
C 	C 	0.35886 0.36569 0.18292 -0.09000
C 	C 	0.32184 0.34279 0.17830 0.05100
C 	C 	0.27889 0.34467 0.19916 -0.07200
S 	S 	0.30515 0.41973 0.26544 -0.04300
H 	H 	0.38049 0.40746 0.21271 0.04100
S 	S 	0.33013 0.31038 0.14869 -0.04300
H 	H 	0.25055 0.32711 0.19553 0.05100
H 	H 	0.16350 0.28459 0.31512 0.03200
H 	H 	0.32318 0.40810 0.29796 0.03500
H 	H 	0.35291 0.28660 0.16751 0.02900
H 	H 	0.20772 0.44259 0.21912 0.03700
C 	C 	0.44256 0.55588 0.00533 -0.07000
C 	C 	0.46896 0.53185 0.98786 0.01000
C 	C 	0.49673 0.53874 0.95611 -0.00400
C 	C 	0.49903 0.56958 0.94297 -0.00500
C 	C 	0.47608 0.59413 0.96220 -0.09400
C 	C 	0.44725 0.58711 0.99356 0.05500
C 	C 	0.47072 0.50017 0.00470 0.01600
S 	S 	0.53093 0.50928 0.93371 -0.04500
H 	H 	0.52036 0.57469 0.91847 0.03300
S 	S 	0.42013 0.61712 0.02008 -0.05200
H 	H 	0.42069 0.55053 0.02947 0.05100
C 	C 	0.49983 0.49442 0.03608 -0.00800
C 	C 	0.50689 0.46360 0.04836 -0.00300
C 	C 	0.48753 0.43812 0.02854 -0.09300
C 	C 	0.45720 0.44398 0.99760 0.05800
C 	C 	0.44746 0.47500 0.98695 -0.07500
S 	S 	0.52953 0.52544 0.05919 -0.03900
H 	H 	0.52918 0.45935 0.07259 0.03500
S 	S 	0.43485 0.41308 0.96997 -0.05700
H 	H 	0.42449 0.47946 0.96314 0.05400
H 	H 	0.45266 0.62710 0.04633 0.03400
H 	H 	0.49896 0.53749 0.08558 0.03300
H 	H 	0.46865 0.40602 0.94333 0.03300
H 	H 	0.57576 0.50669 0.95032 0.03900
C 	C 	0.98926 0.52168 0.52909 -0.08000
C 	C 	0.01741 0.51878 0.49696 0.02000
C 	C 	0.04037 0.54556 0.48195 -0.00400
C 	C 	0.03178 0.57521 0.49748 -0.01000
C 	C 	0.00130 0.57835 0.52846 -0.07100
C 	C 	0.98234 0.55107 0.54555 0.04700
C 	C 	0.01945 0.48807 0.47780 0.02000
S 	S 	0.08041 0.54220 0.44413 -0.04000
H 	H 	0.04775 0.59591 0.48486 0.04000
S 	S 	0.95272 0.55304 0.58864 -0.06400
H 	H 	0.97268 0.50098 0.54127 0.05200
C 	C 	0.04361 0.46220 0.49388 -0.00500
C 	C 	0.03725 0.43207 0.47908 -0.01000
C 	C 	0.00816 0.42757 0.44758 -0.07000
C 	C 	0.98840 0.45403 0.42926 0.04700
C 	C 	0.99290 0.48389 0.44508 -0.07900
S 	S 	0.08217 0.46730 0.53230 -0.04200
H 	H 	0.05399 0.41205 0.49261 0.04000
S 	S 	0.96105 0.45052 0.38547 -0.06000
H 	H 	0.97551 0.50392 0.43203 0.05400
H 	H 	0.98677 0.55063 0.61621 0.02600
H 	H 	0.05521 0.46465 0.56401 0.03500
H 	H 	0.99628 0.45316 0.35878 0.02700
H 	H 	0.12672 0.53626 0.45675 0.03600
C 	C 	0.20130 0.62278 0.70626 -0.07500
C 	C 	0.20633 0.64359 0.73603 0.01400
C 	C 	0.16812 0.66464 0.74451 -0.00500
C 	C 	0.12554 0.66475 0.72311 -0.00600
C 	C 	0.12088 0.64443 0.69288 -0.09300
C 	C 	0.15879 0.62303 0.68468 0.06100
C 	C 	0.25263 0.64420 0.75713 0.01400
S 	S 	0.17343 0.69120 0.78156 -0.03900
H 	H 	0.09628 0.68105 0.72960 0.02400
S 	S 	0.15303 0.59601 0.64814 -0.04900
H 	H 	0.23057 0.60649 0.69980 0.05200
C 	C 	0.25731 0.62761 0.79063 -0.00700
C 	C 	0.30027 0.63038 0.81144 0.00100
C 	C 	0.33894 0.64923 0.79890 -0.09400
C 	C 	0.33464 0.66521 0.76496 0.05800
C 	C 	0.29163 0.66254 0.74428 -0.07400
S 	S 	0.20976 0.60331 0.80670 -0.04100
H 	H 	0.30364 0.61783 0.83735 0.04100
S 	S 	0.38216 0.68946 0.74867 -0.08800
H 	H 	0.28814 0.67521 0.71846 0.05400
H 	H 	0.17078 0.60924 0.61639 0.04200
H 	H 	0.21521 0.57379 0.79215 0.03500
H 	H 	0.41371 0.67191 0.72775 0.02900
H 	H 	0.15705 0.67710 0.81322 0.03700
C 	C 	0.74815 0.65095 0.70003 -0.07500
C 	C 	0.74594 0.67673 0.72402 0.01200
C 	C 	0.78498 0.69835 0.72504 -0.00600
C 	C 	0.82512 0.69430 0.70154 -0.00700
C 	C 	0.82863 0.66758 0.67884 -0.09900
C 	C 	0.79012 0.64524 0.67905 0.05500
C 	C 	0.70605 0.67811 0.75157 0.01300
S 	S 	0.78520 0.72971 0.75677 -0.04400
H 	H 	0.85428 0.71156 0.70165 0.03700
S 	S 	0.79602 0.60843 0.65713 -0.04200
H 	H 	0.71846 0.63406 0.69969 0.05000
C 	C 	0.66700 0.69952 0.74777 -0.00700
C 	C 	0.62842 0.69907 0.77319 -0.00600
C 	C 	0.62656 0.67602 0.80095 -0.10200
C 	C 	0.66428 0.65323 0.80302 0.05600
C 	C 	0.70476 0.65555 0.77968 -0.07500
S 	S 	0.66488 0.72601 0.71047 -0.04600
H 	H 	0.59939 0.71633 0.77094 0.03800
S 	S 	0.65875 0.61963 0.83120 -0.04800
H 	H 	0.73415 0.63854 0.78198 0.05100
H 	H 	0.81785 0.58761 0.68081 0.02700
H 	H 	0.64270 0.71175 0.68100 0.03400
H 	H 	0.63464 0.59652 0.81217 0.02600
H 	H 	0.76534 0.75588 0.74061 0.03600
C 	C 	0.31833 0.24112 0.47277 -0.07400
C 	C 	0.27103 0.22939 0.47852 0.01300
C 	C 	0.26446 0.20107 0.49806 -0.00600
C 	C 	0.30507 0.18504 0.51203 0.00000
C 	C 	0.35234 0.19729 0.50742 -0.09100
C 	C 	0.35891 0.22559 0.48765 0.05700
C 	C 	0.22846 0.24776 0.46568 0.01400
S 	S 	0.20547 0.18599 0.50625 -0.03800
H 	H 	0.29984 0.16320 0.52696 0.04800
S 	S 	0.41717 0.24289 0.48337 -0.07800
H 	H 	0.32336 0.26294 0.45779 0.05200
C 	C 	0.21097 0.27348 0.48634 -0.00700
C 	C 	0.16928 0.28968 0.47462 -0.00300
C 	C 	0.14413 0.28015 0.44284 -0.09300
C 	C 	0.16123 0.25407 0.42244 0.06100
C 	C 	0.20392 0.23856 0.43349 -0.07400
S 	S 	0.24030 0.28513 0.52737 -0.04200
H 	H 	0.15608 0.30957 0.49047 0.03400
S 	S 	0.12766 0.23907 0.38489 -0.05500
H 	H 	0.21712 0.21860 0.41777 0.05400
H 	H 	0.42571 0.26189 0.51319 0.03100
H 	H 	0.27674 0.30609 0.51914 0.03400
H 	H 	0.09428 0.21759 0.39751 0.03600
H 	H 	0.18711 0.19905 0.53790 0.03800
C 	C 	0.73237 0.22354 0.52317 -0.07300
C 	C 	0.72946 0.25208 0.50394 0.01200
C 	C 	0.68330 0.26479 0.49510 -0.00500
C 	C 	0.64072 0.24949 0.50676 -0.00400
C 	C 	0.64355 0.22099 0.52618 -0.09000
C 	C 	0.68976 0.20765 0.53375 0.05300
C 	C 	0.77495 0.26788 0.49191 0.01300
S 	S 	0.67835 0.29949 0.46886 -0.03900
H 	H 	0.60533 0.25973 0.50064 0.04000
S 	S 	0.69476 0.17018 0.55411 -0.04000
H 	H 	0.76784 0.21342 0.52932 0.05000
C 	C 	0.79334 0.29415 0.51116 -0.00700
C 	C 	0.83393 0.31042 0.49736 -0.00100
C 	C 	0.85709 0.30026 0.46495 -0.09500
C 	C 	0.84080 0.27267 0.44724 0.05600
C 	C 	0.79943 0.25693 0.46045 -0.07300
S 	S 	0.76608 0.30675 0.55260 -0.04300
H 	H 	0.84702 0.33124 0.51150 0.04100
S 	S 	0.87329 0.25680 0.40964 -0.06100
H 	H 	0.78615 0.23620 0.44621 0.05300
H 	H 	0.69353 0.14764 0.52713 0.03500
H 	H 	0.78661 0.29084 0.58158 0.03400
H 	H 	0.90921 0.23720 0.42251 0.02800
H 	H 	0.67827 0.32496 0.49199 0.03700
C 	C 	0.21219 0.21505 0.01296 -0.07100
C 	C 	0.23198 0.24184 0.99611 0.01000
C 	C 	0.21012 0.25409 0.96396 -0.00400
C 	C 	0.16818 0.23988 0.94954 -0.00600
C 	C 	0.14863 0.21290 0.96612 -0.09100
C 	C 	0.17112 0.20023 0.99788 0.05600
C 	C 	0.27676 0.25614 0.01145 0.01500
S 	S 	0.23558 0.28672 0.94105 -0.04200
H 	H 	0.15109 0.24955 0.92506 0.03200
S 	S 	0.15004 0.16495 0.01778 -0.03900
H 	H 	0.22937 0.20541 0.03742 0.05200
C 	C 	0.27431 0.28341 0.03344 -0.00600
C 	C 	0.31743 0.29822 0.04476 -0.00300
C 	C 	0.36309 0.28561 0.03520 -0.09400
C 	C 	0.36543 0.25698 0.01557 0.06000
C 	C 	0.32231 0.24274 0.00327 -0.07400
S 	S 	0.21755 0.29908 0.04712 -0.04000
H 	H 	0.31547 0.31985 0.06052 0.04300
S 	S 	0.42165 0.23778 0.00811 -0.05500
H 	H 	0.32413 0.22122 0.98729 0.05300
H 	H 	0.17221 0.13996 0.00078 0.04100
H 	H 	0.20344 0.28540 0.07963 0.03600
H 	H 	0.44092 0.24736 0.97508 0.03700
H 	H 	0.21614 0.31380 0.95530 0.03600
C 	C 	0.79257 0.24648 0.98522 -0.07500
C 	C 	0.77150 0.26870 0.96150 0.01400
C 	C 	0.79209 0.27393 0.92640 -0.00700
C 	C 	0.83449 0.25779 0.91596 -0.00100
C 	C 	0.85622 0.23600 0.94001 -0.09200
C 	C 	0.83422 0.22973 0.97446 0.05700
C 	C 	0.72850 0.28686 0.97406 0.01300
S 	S 	0.76464 0.30017 0.89507 -0.04400
H 	H 	0.85088 0.26243 0.88928 0.03800
S 	S 	0.85690 0.19989 0.00349 -0.06200
H 	H 	0.77621 0.24203 0.01196 0.05300
C 	C 	0.68144 0.27336 0.97391 -0.00600
C 	C 	0.64199 0.28990 0.98904 -0.00800
C 	C 	0.64887 0.31998 0.00401 -0.09100
C 	C 	0.69544 0.33425 0.00208 0.05900
C 	C 	0.73507 0.31740 0.98773 -0.07400
S 	S 	0.67148 0.23585 0.95478 -0.04400
H 	H 	0.60606 0.27913 0.98974 0.02600
S 	S 	0.70403 0.37367 0.01547 -0.03100
H 	H 	0.77106 0.32808 0.98709 0.05300
H 	H 	0.83549 0.17185 0.99428 0.03800
H 	H 	0.67927 0.21344 0.98127 0.03400
H 	H 	0.69509 0.39296 0.98596 0.03700
H 	H 	0.73039 0.28436 0.87466 0.03600
C 	C 	0.29822 0.15757 0.72500 -0.07700
C 	C 	0.27549 0.18707 0.72638 0.01400
C 	C 	0.29429 0.21216 0.70530 -0.00800
C 	C 	0.33470 0.20720 0.68227 0.00200
C 	C 	0.35654 0.17743 0.68010 -0.10500
C 	C 	0.33867 0.15263 0.70213 0.06200
C 	C 	0.23120 0.19110 0.74925 0.01300
S 	S 	0.26714 0.24965 0.70710 -0.04200
H 	H 	0.34870 0.22638 0.66563 0.03500
S 	S 	0.36735 0.11555 0.70203 -0.08700
H 	H 	0.28411 0.13836 0.74154 0.05300
C 	C 	0.18456 0.18431 0.73477 -0.00800
C 	C 	0.14385 0.18379 0.75814 -0.00300
C 	C 	0.14919 0.18984 0.79597 -0.10100
C 	C 	0.19538 0.19858 0.81000 0.05800
C 	C 	0.23613 0.19895 0.78661 -0.07400
S 	S 	0.17690 0.17571 0.68761 -0.04400
H 	H 	0.10827 0.17760 0.74712 0.01700
S 	S 	0.20242 0.21009 0.85635 -0.03200
H 	H 	0.27185 0.20483 0.79761 0.05200
H 	H 	0.34664 0.09707 0.67531 0.04500
H 	H 	0.18419 0.14420 0.68201 0.03500
H 	H 	0.19510 0.24186 0.85930 0.03500
H 	H 	0.23033 0.25125 0.68154 0.03700
C 	C 	0.72513 0.16917 0.69749 -0.07300
C 	C 	0.73123 0.14537 0.72383 0.01200
C 	C 	0.69485 0.12218 0.72809 -0.00500
C 	C 	0.65328 0.12276 0.70560 -0.00500
C 	C 	0.64632 0.14719 0.68005 -0.09000
C 	C 	0.68245 0.17073 0.67632 0.05000
C 	C 	0.77415 0.14638 0.74857 0.01200
S 	S 	0.70009 0.09298 0.76231 -0.04000
H 	H 	0.62575 0.10460 0.70859 0.04100
S 	S 	0.67302 0.20365 0.64768 -0.04300
H 	H 	0.75288 0.18719 0.69449 0.04900
C 	C 	0.81495 0.12687 0.74230 -0.00600
C 	C 	0.85635 0.12964 0.76472 -0.00700
C 	C 	0.85865 0.15285 0.79228 -0.09000
C 	C 	0.81779 0.17264 0.79822 0.05000
C 	C 	0.77556 0.16871 0.77695 -0.07200
S 	S 	0.81539 0.09977 0.70556 -0.04500
H 	H 	0.88731 0.11421 0.76012 0.04000
S 	S 	0.82000 0.20380 0.83022 -0.03900
H 	H 	0.74428 0.18388 0.78158 0.05000
H 	H 	0.64904 0.22656 0.66713 0.02700
H 	H 	0.83175 0.11446 0.67427 0.03400
H 	H 	0.83849 0.23011 0.81347 0.02700
H 	H 	0.72312 0.06716 0.74787 0.03700
C 	C 	0.66696 0.72491 0.46736 -0.07500
C 	C 	0.71206 0.73911 0.45966 0.01300
C 	C 	0.71358 0.76686 0.43843 -0.00500
C 	C 	0.66994 0.78138 0.42764 -0.00500
C 	C 	0.62466 0.76819 0.43727 -0.09400
C 	C 	0.62332 0.73896 0.45575 0.05900
C 	C 	0.75722 0.72557 0.47548 0.01300
S 	S 	0.76982 0.78369 0.42544 -0.04100
H 	H 	0.67118 0.80333 0.41244 0.04100
S 	S 	0.56778 0.71875 0.46234 -0.05400
H 	H 	0.66584 0.70299 0.48261 0.05300
C 	C 	0.77665 0.73723 0.50880 -0.00500
C 	C 	0.81784 0.72300 0.52443 -0.00500
C 	C 	0.83962 0.69688 0.50750 -0.09200
C 	C 	0.81986 0.68497 0.47430 0.05800
C 	C 	0.77920 0.69964 0.45830 -0.07400
S 	S 	0.74896 0.76914 0.53167 -0.04400
H 	H 	0.83263 0.73200 0.55010 0.03300
S 	S 	0.84361 0.65070 0.45374 -0.04200
H 	H 	0.76393 0.69042 0.43291 0.05200
H 	H 	0.55860 0.70020 0.43223 0.03400
H 	H 	0.71283 0.75812 0.55443 0.03700
H 	H 	0.82086 0.62489 0.46847 0.04200
H 	H 	0.78492 0.80415 0.45231 0.03600
C 	C 	0.21503 0.72975 0.53934 -0.07300
C 	C 	0.21184 0.75861 0.52082 0.01300
C 	C 	0.16586 0.77290 0.51566 -0.00600
C 	C 	0.12352 0.75772 0.52794 -0.00200
C 	C 	0.12643 0.72823 0.54515 -0.09000
C 	C 	0.17265 0.71448 0.55155 0.05300
C 	C 	0.25648 0.77280 0.50502 0.01300
S 	S 	0.16086 0.80962 0.49356 -0.03500
H 	H 	0.08815 0.76862 0.52355 0.04000
S 	S 	0.17788 0.67769 0.57351 -0.04500
H 	H 	0.25045 0.71890 0.54361 0.05100
C 	C 	0.28404 0.79488 0.52520 -0.00600
C 	C 	0.32477 0.80921 0.50896 -0.00300
C 	C 	0.33842 0.80167 0.47268 -0.09100
C 	C 	0.31146 0.77898 0.45284 0.05500
C 	C 	0.27069 0.76475 0.46910 -0.07200
S 	S 	0.26772 0.80490 0.57068 -0.04000
H 	H 	0.34542 0.82657 0.52434 0.04300
S 	S 	0.32921 0.76747 0.40810 -0.05200
H 	H 	0.24976 0.74752 0.45372 0.05300
H 	H 	0.17448 0.65423 0.54775 0.03300
H 	H 	0.28962 0.78439 0.59469 0.03500
H 	H 	0.36238 0.74341 0.41049 0.02800
H 	H 	0.16560 0.83308 0.51921 0.03800
C 	C 	0.48876 0.95915 0.50943 -0.07500
C 	C 	0.51652 0.98023 0.48835 0.01400
C 	C 	0.54021 0.96958 0.45615 -0.00600
C 	C 	0.53254 0.93877 0.44378 -0.00400
C 	C 	0.50155 0.91851 0.46335 -0.09500
C 	C 	0.48107 0.92840 0.49708 0.05900
C 	C 	0.51499 0.01407 0.49747 0.01200
S 	S 	0.57807 0.99490 0.43048 -0.04100
H 	H 	0.54916 0.93097 0.41822 0.03100
S 	S 	0.44537 0.90257 0.52386 -0.05600
H 	H 	0.47140 0.96712 0.53464 0.05300
C 	C 	0.47801 0.03346 0.48279 -0.00600
C 	C 	0.47305 0.06439 0.49526 -0.00400
C 	C 	0.50464 0.07632 0.52230 -0.09300
C 	C 	0.54295 0.05737 0.53592 0.05300
C 	C 	0.54786 0.02634 0.52346 -0.07200
S 	S 	0.43693 0.01900 0.44943 -0.04000
H 	H 	0.44399 0.07906 0.48438 0.04200
S 	S 	0.58378 0.07178 0.56948 -0.05500
H 	H 	0.57649 0.01149 0.53463 0.05300
H 	H 	0.39759 0.90425 0.51264 0.04700
H 	H 	0.39844 0.00465 0.46680 0.03800
H 	H 	0.56513 0.06615 0.60393 0.03100
H 	H 	0.55021 0.01102 0.40540 0.03600
C 	C 	0.76569 0.76230 0.05317 -0.07600
C 	C 	0.74562 0.76972 0.01867 0.01600
C 	C 	0.76887 0.79210 0.99601 -0.00900
C 	C 	0.81219 0.80642 0.00778 -0.00000
C 	C 	0.83312 0.79841 0.04184 -0.09500
C 	C 	0.80977 0.77593 0.06458 0.06100
C 	C 	0.70258 0.75206 0.00522 0.01300
S 	S 	0.74484 0.80171 0.95238 -0.04200
H 	H 	0.82993 0.82365 0.99026 0.03200
S 	S 	0.83698 0.76283 0.10586 -0.05500
H 	H 	0.74801 0.74489 0.07049 0.05200
C 	C 	0.70818 0.72209 0.98918 -0.00600
C 	C 	0.66745 0.70639 0.97491 -0.00100
C 	C 	0.62106 0.72051 0.97570 -0.08900
C 	C 	0.61537 0.75043 0.99204 0.05400
C 	C 	0.65602 0.76580 0.00714 -0.07100
S 	S 	0.76620 0.70432 0.98604 -0.04100
H 	H 	0.67195 0.68329 0.96270 0.04800
S 	S 	0.55826 0.76959 0.99205 -0.07000
H 	H 	0.65170 0.78886 0.01946 0.05300
H 	H 	0.86730 0.73801 0.09835 0.03300
H 	H 	0.77526 0.68769 0.01768 0.03500
H 	H 	0.55313 0.78641 0.96005 0.03300
H 	H 	0.76252 0.78098 0.92671 0.03700
C 	C 	0.29819 0.79043 0.97031 -0.07500
C 	C 	0.25193 0.77867 0.96102 0.01400
C 	C 	0.24807 0.75275 0.93696 -0.00500
C 	C 	0.29038 0.73725 0.92508 -0.00300
C 	C 	0.33664 0.74760 0.93663 -0.09200
C 	C 	0.34053 0.77529 0.95790 0.05800
C 	C 	0.20796 0.79260 0.97816 0.01200
S 	S 	0.19051 0.73920 0.92212 -0.03900
H 	H 	0.28722 0.71643 0.90798 0.04500
S 	S 	0.39804 0.79186 0.96796 -0.06100
H 	H 	0.30119 0.81105 0.98774 0.05300
C 	C 	0.18697 0.77906 0.00993 -0.00400
C 	C 	0.14591 0.79295 0.02617 -0.00600
C 	C 	0.12617 0.82072 0.01164 -0.08900
C 	C 	0.14794 0.83472 0.98034 0.05600
C 	C 	0.18821 0.82032 0.96352 -0.07200
S 	S 	0.21255 0.74521 0.03019 -0.04200
H 	H 	0.12958 0.78233 0.05041 0.03300
S 	S 	0.12693 0.87101 0.96315 -0.03400
H 	H 	0.20476 0.83099 0.93940 0.05300
H 	H 	0.41115 0.81201 0.94019 0.03400
H 	H 	0.24764 0.75404 0.05509 0.03600
H 	H 	0.09232 0.86567 0.93656 0.04000
H 	H 	0.17301 0.71764 0.94690 0.03700
C 	C 	0.98428 0.97618 0.97580 -0.07000
C 	C 	0.96954 0.00107 0.99857 0.01000
C 	C 	0.95340 0.99479 0.03477 -0.00300
C 	C 	0.95651 0.96420 0.04886 -0.00800
C 	C 	0.97457 0.93972 0.02685 -0.08600
C 	C 	0.98674 0.94556 0.98972 0.04500
C 	C 	0.97657 0.03373 0.98571 0.00700
S 	S 	0.93019 0.02509 0.06282 -0.04200
H 	H 	0.94605 0.95959 0.07720 0.03000
S 	S 	0.00571 0.91480 0.96056 -0.03600
H 	H 	0.99556 0.98086 0.94766 0.04800
C 	C 	0.01935 0.05046 0.99497 -0.00200
C 	C 	0.02741 0.08034 0.98015 0.01100
C 	C 	0.99371 0.09362 0.95549 -0.11500
C 	C 	0.95082 0.07691 0.94621 0.05800
C 	C 	0.94234 0.04720 0.96163 -0.07500
S 	S 	0.06380 0.03383 0.02423 -0.03400
H 	H 	0.06029 0.09317 0.98746 0.04000
S 	S 	0.90894 0.09203 0.91381 -0.05400
H 	H 	0.90968 0.03421 0.95420 0.05300
H 	H 	0.96560 0.90140 0.94427 0.02300
H 	H 	0.09549 0.01608 0.00366 0.03900
H 	H 	0.92334 0.08367 0.87897 0.03200
H 	H 	0.96786 0.03887 0.08177 0.03400
C 	C 	0.21517 0.82674 0.19298 -0.07400
C 	C 	0.21055 0.83331 0.23072 0.01300
C 	C 	0.16455 0.84160 0.24528 -0.00800
C 	C 	0.12415 0.84436 0.22182 -0.00300
C 	C 	0.12917 0.83915 0.18379 -0.10000
C 	C 	0.17473 0.82940 0.16948 0.05800
C 	C 	0.25467 0.83360 0.25429 0.01500
S 	S 	0.15722 0.84888 0.29277 -0.03900
H 	H 	0.08905 0.85141 0.23301 0.01900
S 	S 	0.18123 0.81932 0.12261 -0.03200
H 	H 	0.25037 0.81982 0.18187 0.05100
C 	C 	0.26948 0.80646 0.27362 -0.00900
C 	C 	0.31018 0.80775 0.29705 0.00200
C 	C 	0.33619 0.83591 0.30143 -0.10400
C 	C 	0.32203 0.86284 0.28139 0.06100
C 	C 	0.28137 0.86154 0.25803 -0.07600
S 	S 	0.23721 0.77087 0.26892 -0.04200
H 	H 	0.32124 0.78696 0.31221 0.03600
S 	S 	0.35553 0.89809 0.28468 -0.08500
H 	H 	0.27026 0.88234 0.24292 0.05500
H 	H 	0.17123 0.78800 0.11802 0.03300
H 	H 	0.25567 0.75440 0.23958 0.03300
H 	H 	0.33704 0.91596 0.31287 0.04600
H 	H 	0.14720 0.82116 0.31048 0.03700
C 	C 	0.67646 0.89678 0.25864 -0.07500
C 	C 	0.71491 0.87513 0.26151 0.01300
C 	C 	0.71243 0.85087 0.28792 -0.00500
C 	C 	0.66961 0.84657 0.30841 -0.00600
C 	C 	0.62971 0.86696 0.30378 -0.09300
C 	C 	0.63444 0.89334 0.28032 0.05800
C 	C 	0.75671 0.87729 0.23576 0.01200
S 	S 	0.76268 0.82583 0.29565 -0.04200
H 	H 	0.66694 0.82693 0.32738 0.04200
S 	S 	0.59027 0.92349 0.28017 -0.05400
H 	H 	0.67926 0.91629 0.23951 0.05200
C 	C 	0.76085 0.85644 0.20570 -0.00500
C 	C 	0.80272 0.85706 0.18358 -0.00900
C 	C 	0.84004 0.87894 0.19039 -0.09300
C 	C 	0.83368 0.90175 0.21836 0.05800
C 	C 	0.79265 0.90028 0.24141 -0.07500
S 	S 	0.71366 0.82970 0.19528 -0.04400
H 	H 	0.80671 0.84008 0.16146 0.04300
S 	S 	0.87419 0.93374 0.22274 -0.05300
H 	H 	0.78849 0.91718 0.26358 0.05200
H 	H 	0.60134 0.94495 0.30709 0.03600
H 	H 	0.68036 0.84395 0.17253 0.03600
H 	H 	0.85887 0.95778 0.20040 0.03700
H 	H 	0.75955 0.80035 0.27265 0.03500
