data_crystal

_cell_length_a 51.91175
_cell_length_b 38.15575
_cell_length_c 18.20174
_cell_angle_alpha 89.99954
_cell_angle_beta  89.99966
_cell_angle_gamma 90.00081

_symmetry_space_group_name_	'P 1'
_symmetry_space_group_name_H-M	'P 1'

loop_
_symmetry_equiv_pos_as_xyz
  x,y,z

loop_
_atom_site_label
_atom_site_type_symbol
_atom_site_fract_x
_atom_site_fract_y
_atom_site_fract_z
_atom_site_charge
Cu	Cu	0.38848 0.68745 0.16242 0.92500
Cu	Cu	0.33838 0.66582 0.27056 0.87400
Cu	Cu	0.34636 0.63496 0.11655 0.89400
Cu	Cu	0.38762 0.65366 0.00277 0.88700
C 	C 	0.43516 0.67099 0.08409 0.27800
O 	O 	0.38227 0.72974 0.09798 -0.37100
C 	C 	0.29561 0.64195 0.18948 0.29100
O 	O 	0.38248 0.64103 0.10203 -0.64100
O 	O 	0.35059 0.67968 0.17458 -0.63600
O 	O 	0.39995 0.69162 0.26702 -0.37000
O 	O 	0.37041 0.65321 0.30980 -0.44500
O 	O 	0.42313 0.67149 0.02005 -0.39600
O 	O 	0.34562 0.59198 0.05970 -0.40000
C 	C 	0.35618 0.58910 0.99393 0.30500
C 	C 	0.36973 0.72780 0.03562 0.27200
O 	O 	0.36124 0.69739 0.01257 -0.39400
O 	O 	0.36519 0.61676 0.95892 -0.39700
O 	O 	0.42484 0.68622 0.14243 -0.36200
C 	C 	0.38720 0.67801 0.32232 0.29700
O 	O 	0.31144 0.62217 0.15054 -0.39900
O 	O 	0.30436 0.66684 0.23263 -0.42600
H 	H 	0.39270 0.62045 0.11781 0.15200
H 	H 	0.34006 0.69882 0.15348 0.16500
Cu	Cu	0.59706 0.64282 0.07212 0.92500
Cu	Cu	0.65260 0.60498 0.10672 0.86000
Cu	Cu	0.63653 0.66982 0.18252 0.89200
Cu	Cu	0.58336 0.70139 0.18737 0.89300
C 	C 	0.54422 0.65833 0.10784 0.29400
O 	O 	0.59384 0.68765 0.01310 -0.37200
C 	C 	0.69091 0.65310 0.16206 0.28300
O 	O 	0.60035 0.65756 0.18311 -0.63800
O 	O 	0.63482 0.64852 0.08259 -0.64200
O 	O 	0.59727 0.59465 0.02990 -0.37900
O 	O 	0.62379 0.57495 0.11976 -0.44300
O 	O 	0.55192 0.68950 0.13010 -0.39600
O 	O 	0.63728 0.68997 0.28048 -0.38900
C 	C 	0.62167 0.71518 0.30196 0.29200
C 	C 	0.60331 0.71777 0.03574 0.27200
O 	O 	0.60946 0.72206 0.10520 -0.40100
O 	O 	0.59701 0.71442 0.28507 -0.39800
O 	O 	0.56066 0.63511 0.08148 -0.37500
C 	C 	0.60840 0.56849 0.06423 0.29100
O 	O 	0.67371 0.67717 0.17975 -0.38600
O 	O 	0.68550 0.62817 0.11411 -0.42700
H 	H 	0.59532 0.64047 0.22145 0.15900
H 	H 	0.64337 0.66282 0.04428 0.16600
Cu	Cu	0.39017 0.33944 0.74504 0.92600
Cu	Cu	0.34552 0.35731 0.61637 0.87200
Cu	Cu	0.34823 0.39614 0.75950 0.89300
Cu	Cu	0.38535 0.38682 0.88597 0.89300
C 	C 	0.43467 0.35727 0.83161 0.28700
O 	O 	0.38065 0.30589 0.82717 -0.36500
C 	C 	0.29959 0.38103 0.68340 0.29100
O 	O 	0.38406 0.39106 0.78259 -0.63900
O 	O 	0.35317 0.34748 0.71878 -0.63500
O 	O 	0.40405 0.32356 0.64781 -0.36000
O 	O 	0.37956 0.36171 0.58435 -0.44800
O 	O 	0.41956 0.36298 0.88879 -0.38900
O 	O 	0.34645 0.44348 0.79835 -0.38300
C 	C 	0.35726 0.45310 0.86088 0.29000
C 	C 	0.36310 0.31388 0.87633 0.27800
O 	O 	0.35591 0.34659 0.88355 -0.39100
O 	O 	0.36522 0.42973 0.90911 -0.39800
O 	O 	0.42585 0.34158 0.77193 -0.36100
C 	C 	0.39383 0.33357 0.58537 0.29800
O 	O 	0.31410 0.40492 0.71574 -0.39800
O 	O 	0.30981 0.35766 0.63902 -0.42400
H 	H 	0.39520 0.40971 0.76203 0.15600
H 	H 	0.34107 0.33035 0.74065 0.16500
Cu	Cu	0.59780 0.36527 0.87075 0.92700
Cu	Cu	0.65342 0.40483 0.84709 0.86700
Cu	Cu	0.63447 0.35057 0.74278 0.89300
Cu	Cu	0.58182 0.31809 0.73652 0.89200
C 	C 	0.54458 0.35394 0.83464 0.29000
O 	O 	0.59573 0.31565 0.91003 -0.36100
C 	C 	0.68998 0.36483 0.76453 0.28600
O 	O 	0.59843 0.36131 0.75536 -0.63800
O 	O 	0.63519 0.36046 0.85073 -0.64100
O 	O 	0.59911 0.40888 0.93122 -0.36800
O 	O 	0.62502 0.43606 0.84858 -0.44100
O 	O 	0.55176 0.32448 0.80299 -0.39200
O 	O 	0.63202 0.34269 0.63772 -0.38800
C 	C 	0.61636 0.31984 0.60663 0.29300
C 	C 	0.60564 0.28876 0.87466 0.28100
O 	O 	0.60987 0.29078 0.80363 -0.39800
O 	O 	0.59296 0.31420 0.63255 -0.40000
O 	O 	0.56125 0.37324 0.87160 -0.36300
C 	C 	0.61023 0.43749 0.90686 0.29600
O 	O 	0.67200 0.34661 0.72985 -0.38800
O 	O 	0.68509 0.38100 0.82699 -0.42000
H 	H 	0.59215 0.38141 0.72596 0.15900
H 	H 	0.64419 0.34214 0.87948 0.17000
Cu	Cu	0.39020 0.86586 0.52987 0.92700
Cu	Cu	0.33511 0.90563 0.56041 0.85900
Cu	Cu	0.35435 0.84998 0.65807 0.89200
Cu	Cu	0.40691 0.81802 0.66261 0.89400
C 	C 	0.44346 0.85443 0.56433 0.29000
O 	O 	0.39186 0.81636 0.48943 -0.36300
C 	C 	0.29894 0.86161 0.63953 0.28400
O 	O 	0.39026 0.86126 0.64510 -0.63900
O 	O 	0.35307 0.86117 0.55120 -0.64400
O 	O 	0.38838 0.91019 0.47247 -0.37500
O 	O 	0.36357 0.93718 0.55858 -0.44600
O 	O 	0.43638 0.82458 0.59440 -0.38900
O 	O 	0.35663 0.84106 0.76292 -0.39200
C 	C 	0.37292 0.81880 0.79333 0.29200
C 	C 	0.38249 0.78921 0.52531 0.28200
O 	O 	0.37835 0.79139 0.59637 -0.40000
O 	O 	0.39643 0.81466 0.76699 -0.39800
O 	O 	0.42679 0.87375 0.52749 -0.36400
C 	C 	0.37888 0.93901 0.50118 0.28900
O 	O 	0.31739 0.84143 0.66635 -0.39000
O 	O 	0.30300 0.88236 0.58244 -0.42700
H 	H 	0.39647 0.88126 0.67491 0.15900
H 	H 	0.34370 0.84341 0.52187 0.16800
Cu	Cu	0.59742 0.83805 0.66240 0.92600
Cu	Cu	0.64249 0.85277 0.79231 0.87500
Cu	Cu	0.63849 0.89622 0.65355 0.89400
Cu	Cu	0.60252 0.88719 0.52430 0.89200
C 	C 	0.55320 0.85640 0.57510 0.28700
O 	O 	0.60735 0.80569 0.57898 -0.36800
C 	C 	0.68734 0.88338 0.73269 0.29300
O 	O 	0.60305 0.89018 0.62793 -0.64000
O 	O 	0.63437 0.84647 0.68929 -0.63400
O 	O 	0.58341 0.82036 0.75813 -0.35900
O 	O 	0.60865 0.85574 0.82660 -0.44300
O 	O 	0.56856 0.86290 0.51883 -0.39100
O 	O 	0.63924 0.94417 0.61805 -0.38400
C 	C 	0.62994 0.95378 0.55357 0.29000
C 	C 	0.62514 0.81429 0.53110 0.28600
O 	O 	0.63213 0.84715 0.52518 -0.39300
O 	O 	0.62274 0.93043 0.50429 -0.40200
O 	O 	0.56180 0.84003 0.63432 -0.35900
C 	C 	0.59421 0.82785 0.82131 0.29700
O 	O 	0.67216 0.90627 0.69960 -0.39700
O 	O 	0.67783 0.85594 0.76680 -0.42400
H 	H 	0.59143 0.90820 0.64876 0.15800
H 	H 	0.64664 0.83034 0.66497 0.16700
Cu	Cu	0.39337 0.14884 0.34391 0.92600
Cu	Cu	0.33834 0.10783 0.31333 0.85800
Cu	Cu	0.35367 0.17009 0.22876 0.89100
Cu	Cu	0.40542 0.20665 0.22555 0.89400
C 	C 	0.44559 0.16787 0.30930 0.29200
O 	O 	0.39436 0.19500 0.39889 -0.36400
C 	C 	0.29948 0.15518 0.25483 0.28200
O 	O 	0.39041 0.16155 0.23182 -0.63800
O 	O 	0.35561 0.15216 0.33135 -0.64500
O 	O 	0.39465 0.10129 0.38938 -0.37200
O 	O 	0.36757 0.07821 0.30392 -0.44900
O 	O 	0.43655 0.19828 0.28663 -0.39100
O 	O 	0.35244 0.19018 0.13039 -0.39200
C 	C 	0.36763 0.21576 0.10813 0.30000
C 	C 	0.38291 0.22347 0.37428 0.28400
O 	O 	0.37762 0.22654 0.30393 -0.39700
O 	O 	0.39222 0.21614 0.12576 -0.40300
O 	O 	0.43014 0.14378 0.33713 -0.36600
C 	C 	0.38354 0.07389 0.35917 0.28900
O 	O 	0.31682 0.17865 0.23472 -0.38700
O 	O 	0.30508 0.13019 0.30270 -0.42700
H 	H 	0.39670 0.14430 0.19535 0.15500
H 	H 	0.34655 0.16730 0.36717 0.16800
Cu	Cu	0.60305 0.18637 0.24574 0.92600
Cu	Cu	0.65165 0.15286 0.14544 0.87000
Cu	Cu	0.64495 0.13618 0.30203 0.88900
Cu	Cu	0.60242 0.15583 0.40707 0.89200
C 	C 	0.55561 0.17573 0.32442 0.28700
O 	O 	0.60949 0.22853 0.31079 -0.36700
C 	C 	0.69596 0.14585 0.23435 0.29100
O 	O 	0.60824 0.14059 0.30935 -0.64100
O 	O 	0.64060 0.17730 0.23391 -0.63900
O 	O 	0.59292 0.19219 0.14063 -0.36500
O 	O 	0.62031 0.15168 0.09371 -0.44200
O 	O 	0.56826 0.17740 0.38723 -0.39300
O 	O 	0.64637 0.09476 0.36402 -0.38500
C 	C 	0.63216 0.09058 0.42354 0.29000
C 	C 	0.62426 0.22708 0.36926 0.28500
O 	O 	0.63121 0.19646 0.39509 -0.39700
O 	O 	0.62167 0.11765 0.45698 -0.39800
O 	O 	0.56654 0.18567 0.26222 -0.36200
C 	C 	0.60691 0.18046 0.08597 0.30800
O 	O 	0.68146 0.12701 0.27907 -0.39800
O 	O 	0.68633 0.15996 0.17450 -0.42300
H 	H 	0.59856 0.11933 0.29483 0.15200
H 	H 	0.65182 0.19726 0.24755 0.16900
Cu	Cu	0.10160 0.87415 0.84273 0.92600
Cu	Cu	0.15771 0.91040 0.80883 0.86200
Cu	Cu	0.14007 0.84755 0.72866 0.89100
Cu	Cu	0.08592 0.81784 0.72469 0.89300
C 	C 	0.04823 0.86158 0.80798 0.29600
O 	O 	0.09772 0.82859 0.89904 -0.36700
C 	C 	0.19494 0.86177 0.74962 0.28200
O 	O 	0.10401 0.86084 0.73070 -0.63700
O 	O 	0.13915 0.86716 0.83023 -0.64200
O 	O 	0.10308 0.92163 0.88810 -0.37500
O 	O 	0.12958 0.94189 0.79867 -0.44400
O 	O 	0.05505 0.83035 0.78392 -0.39400
O 	O 	0.13997 0.82723 0.63053 -0.38700
C 	C 	0.12335 0.80326 0.60885 0.29200
C 	C 	0.10653 0.79849 0.87424 0.28700
O 	O 	0.11201 0.79483 0.80416 -0.40000
O 	O 	0.09877 0.80589 0.62567 -0.39800
O 	O 	0.06533 0.88355 0.83560 -0.37200
C 	C 	0.11436 0.94796 0.85477 0.29700
O 	O 	0.17716 0.83884 0.72984 -0.38400
O 	O 	0.19008 0.88611 0.79934 -0.42500
H 	H 	0.09905 0.87870 0.69386 0.15800
H 	H 	0.14756 0.85191 0.86715 0.17000
Cu	Cu	0.89107 0.84063 0.75903 0.92600
Cu	Cu	0.84226 0.86852 0.65366 0.86300
Cu	Cu	0.84898 0.89311 0.80192 0.88800
Cu	Cu	0.89221 0.88180 0.90944 0.89200
C 	C 	0.93865 0.85773 0.83094 0.28400
O 	O 	0.88533 0.80385 0.83710 -0.36500
C 	C 	0.79738 0.88530 0.73673 0.28400
O 	O 	0.88575 0.89008 0.80838 -0.64300
O 	O 	0.85331 0.84818 0.74652 -0.64100
O 	O 	0.90041 0.82780 0.65614 -0.36000
O 	O 	0.87375 0.86722 0.60286 -0.44400
O 	O 	0.92638 0.85927 0.89434 -0.38700
O 	O 	0.84707 0.93819 0.85045 -0.38900
C 	C 	0.86187 0.94745 0.90612 0.29200
C 	C 	0.86936 0.80844 0.89223 0.28300
O 	O 	0.86341 0.84040 0.91291 -0.38900
O 	O 	0.87357 0.92375 0.94703 -0.39600
O 	O 	0.92769 0.84304 0.77307 -0.35900
C 	C 	0.88664 0.83784 0.59962 0.30000
O 	O 	0.81132 0.89481 0.79427 -0.38800
O 	O 	0.80721 0.86573 0.68410 -0.42300
H 	H 	0.89504 0.91035 0.78711 0.15000
H 	H 	0.84196 0.82934 0.76525 0.17500
Cu	Cu	0.10358 0.15230 0.04166 0.92100
Cu	Cu	0.15764 0.11168 0.07908 0.86100
Cu	Cu	0.13905 0.16932 0.17025 0.89100
Cu	Cu	0.08687 0.20150 0.17213 0.89200
C 	C 	0.05025 0.16578 0.07213 0.28900
O 	O 	0.10259 0.20131 0.99876 -0.33800
C 	C 	0.19453 0.15585 0.15381 0.28500
O 	O 	0.10319 0.15788 0.15682 -0.64200
O 	O 	0.14071 0.15651 0.06413 -0.64500
O 	O 	0.10503 0.10784 0.98416 -0.34400
O 	O 	0.12891 0.08103 0.07233 -0.43600
O 	O 	0.05768 0.19533 0.10287 -0.39500
O 	O 	0.13658 0.17896 0.27490 -0.39200
C 	C 	0.11982 0.20045 0.30576 0.29400
C 	C 	0.11123 0.22901 0.03422 0.24700
O 	O 	0.11568 0.22707 0.10514 -0.39600
O 	O 	0.09685 0.20606 0.27680 -0.40300
O 	O 	0.06695 0.14522 0.03844 -0.37200
C 	C 	0.11557 0.07938 0.01122 0.25100
O 	O 	0.17622 0.17643 0.18022 -0.38800
O 	O 	0.19011 0.13396 0.09898 -0.42800
H 	H 	0.09683 0.13829 0.18754 0.15700
H 	H 	0.15056 0.17345 0.03394 0.16600
Cu	Cu	0.89842 0.18715 0.17248 0.92700
Cu	Cu	0.85608 0.15223 0.29081 0.86300
Cu	Cu	0.85377 0.13700 0.13973 0.88400
Cu	Cu	0.89041 0.15319 0.01569 0.88700
C 	C 	0.94109 0.17342 0.07615 0.28500
O 	O 	0.88879 0.22814 0.10752 -0.37000
C 	C 	0.80615 0.14563 0.22585 0.28800
O 	O 	0.88968 0.14035 0.11614 -0.64400
O 	O 	0.86184 0.17897 0.20121 -0.63900
O 	O 	0.91383 0.19347 0.27200 -0.36300
O 	O 	0.89022 0.15070 0.32446 -0.44400
O 	O 	0.92548 0.17417 0.01891 -0.39800
O 	O 	0.84849 0.09432 0.08392 -0.39000
C 	C 	0.85979 0.08801 0.02029 0.25300
C 	C 	0.87109 0.22588 0.05616 0.30000
O 	O 	0.86285 0.19491 0.03551 -0.40200
O 	O 	0.86881 0.11372 0.97931 -0.37500
O 	O 	0.93361 0.18557 0.14071 -0.36200
C 	C 	0.90298 0.18008 0.33057 0.30300
O 	O 	0.81687 0.13644 0.16268 -0.39500
O 	O 	0.81984 0.15841 0.28063 -0.42500
H 	H 	0.89984 0.11921 0.12861 0.15000
H 	H 	0.84971 0.19861 0.19293 0.17500
Cu	Cu	0.09612 0.68014 0.24807 0.92600
Cu	Cu	0.13925 0.65404 0.12290 0.86700
Cu	Cu	0.13633 0.62159 0.26774 0.88900
Cu	Cu	0.09793 0.63230 0.38873 0.89200
C 	C 	0.05051 0.66501 0.33104 0.28700
O 	O 	0.10647 0.71232 0.33167 -0.36800
C 	C 	0.18576 0.63222 0.18906 0.29000
O 	O 	0.10018 0.62790 0.28526 -0.64100
O 	O 	0.13269 0.66950 0.22299 -0.63800
O 	O 	0.08421 0.69922 0.15152 -0.36200
O 	O 	0.10592 0.65908 0.08448 -0.44800
O 	O 	0.06499 0.65902 0.38925 -0.39200
O 	O 	0.13692 0.57434 0.30772 -0.38600
C 	C 	0.12471 0.56458 0.36801 0.29200
C 	C 	0.12370 0.70302 0.38067 0.28600
O 	O 	0.12927 0.66977 0.38859 -0.39700
O 	O 	0.11543 0.58778 0.41465 -0.40000
O 	O 	0.06015 0.68041 0.27214 -0.36200
C 	C 	0.09457 0.68954 0.08910 0.30200
O 	O 	0.17175 0.61221 0.23303 -0.39500
O 	O 	0.17498 0.65465 0.14362 -0.42700
H 	H 	0.08898 0.60963 0.26348 0.15300
H 	H 	0.14551 0.68639 0.24217 0.17100
Cu	Cu	0.88763 0.65083 0.37237 0.92600
Cu	Cu	0.83307 0.61021 0.33948 0.86000
Cu	Cu	0.84990 0.67200 0.25173 0.89200
Cu	Cu	0.90234 0.70456 0.24786 0.89300
C 	C 	0.94039 0.66554 0.33687 0.29100
O 	O 	0.88898 0.69862 0.42113 -0.36200
C 	C 	0.79527 0.65490 0.26990 0.28200
O 	O 	0.88611 0.66045 0.25837 -0.63800
O 	O 	0.85015 0.65498 0.35550 -0.64300
O 	O 	0.88729 0.60491 0.42472 -0.37100
O 	O 	0.86194 0.57945 0.33799 -0.44700
O 	O 	0.93247 0.69620 0.31272 -0.39200
O 	O 	0.85037 0.68781 0.14976 -0.39000
C 	C 	0.86703 0.71034 0.12187 0.29500
C 	C 	0.87865 0.72676 0.39129 0.28500
O 	O 	0.87400 0.72766 0.32036 -0.40200
O 	O 	0.89103 0.71165 0.14542 -0.40500
O 	O 	0.92431 0.64391 0.37000 -0.36400
C 	C 	0.87712 0.57665 0.39542 0.28900
O 	O 	0.81255 0.67816 0.24828 -0.38400
O 	O 	0.80025 0.63260 0.32361 -0.42600
H 	H 	0.89197 0.64197 0.22402 0.15500
H 	H 	0.84089 0.67071 0.38977 0.16800
Cu	Cu	0.09728 0.32921 0.67091 0.92600
Cu	Cu	0.14584 0.35619 0.77909 0.87600
Cu	Cu	0.13839 0.38288 0.62412 0.89400
Cu	Cu	0.09799 0.36224 0.51201 0.89200
C 	C 	0.05044 0.34029 0.58935 0.28600
O 	O 	0.10455 0.28806 0.60368 -0.36600
C 	C 	0.18923 0.37565 0.69454 0.29100
O 	O 	0.10221 0.37598 0.61098 -0.64000
O 	O 	0.13490 0.33874 0.68417 -0.63500
O 	O 	0.08617 0.32341 0.77567 -0.36400
O 	O 	0.11310 0.36537 0.81742 -0.44100
O 	O 	0.06367 0.34004 0.52733 -0.39200
O 	O 	0.13860 0.42567 0.56650 -0.38600
C 	C 	0.12722 0.42875 0.50186 0.29000
C 	C 	0.12016 0.29068 0.54719 0.28500
O 	O 	0.12696 0.32179 0.52375 -0.39500
O 	O 	0.11801 0.40120 0.46687 -0.40200
O 	O 	0.06090 0.32941 0.65158 -0.36100
C 	C 	0.09802 0.33870 0.83068 0.29900
O 	O 	0.17340 0.39582 0.65655 -0.39900
O 	O 	0.18051 0.35471 0.74622 -0.42200
H 	H 	0.09157 0.39630 0.62591 0.15700
H 	H 	0.14625 0.31982 0.66583 0.16600
Cu	Cu	0.88809 0.36722 0.55975 0.92600
Cu	Cu	0.83224 0.40761 0.58152 0.86300
Cu	Cu	0.84872 0.34719 0.67803 0.89400
Cu	Cu	0.89885 0.30920 0.67778 0.89300
C 	C 	0.94031 0.34818 0.59776 0.29000
O 	O 	0.88966 0.32216 0.50127 -0.36600
C 	C 	0.79445 0.36583 0.65486 0.28100
O 	O 	0.88513 0.35491 0.67227 -0.64300
O 	O 	0.85020 0.36306 0.57281 -0.63900
O 	O 	0.88971 0.41473 0.51370 -0.37200
O 	O 	0.86088 0.43799 0.59402 -0.44700
O 	O 	0.93137 0.31805 0.62288 -0.39200
O 	O 	0.84931 0.33462 0.78153 -0.38600
C 	C 	0.86573 0.31233 0.81150 0.28900
C 	C 	0.88021 0.29258 0.52630 0.28600
O 	O 	0.87249 0.29078 0.59464 -0.39600
O 	O 	0.88241 0.29453 0.77146 -0.39800
O 	O 	0.92491 0.37177 0.56741 -0.36500
C 	C 	0.87779 0.44214 0.54112 0.28900
O 	O 	0.81107 0.34337 0.68336 -0.38200
O 	O 	0.80009 0.38357 0.59480 -0.42100
H 	H 	0.89206 0.37172 0.70870 0.15700
H 	H 	0.84164 0.34648 0.53880 0.16900
C 	C 	0.01032 0.37075 0.62685 -0.04000
C 	C 	0.02223 0.34417 0.58580 -0.09100
C 	C 	0.00704 0.32129 0.54262 0.07800
C 	C 	0.98023 0.32566 0.54092 -0.03900
C 	C 	0.96822 0.35092 0.58521 -0.08600
C 	C 	0.98338 0.37439 0.62672 0.07000
C 	C 	0.97089 0.40233 0.67327 -0.19100
H 	H 	0.02203 0.38835 0.65960 0.03400
H 	H 	0.96851 0.30812 0.50803 0.04400
C 	C 	0.01920 0.29187 0.49930 -0.19200
H 	H 	0.98538 0.42027 0.69779 0.06100
H 	H 	0.95985 0.38993 0.71862 0.05800
H 	H 	0.95763 0.41838 0.63919 0.07300
H 	H 	0.03309 0.27713 0.53394 0.07800
H 	H 	0.02931 0.30270 0.45060 0.07300
H 	H 	0.00452 0.27284 0.47967 0.06100
C 	C 	0.87944 0.54069 0.50958 -0.04400
C 	C 	0.88033 0.54228 0.43250 -0.10100
C 	C 	0.88359 0.51099 0.39177 0.07000
C 	C 	0.88275 0.47851 0.42816 -0.04400
C 	C 	0.88070 0.47685 0.50507 -0.10300
C 	C 	0.88063 0.50832 0.54632 0.07100
C 	C 	0.88168 0.50773 0.62914 -0.18900
H 	H 	0.87763 0.56468 0.54111 0.04000
H 	H 	0.88348 0.45448 0.39642 0.03900
C 	C 	0.88783 0.51187 0.30979 -0.18700
H 	H 	0.88840 0.53329 0.65129 0.06100
H 	H 	0.89539 0.48743 0.64874 0.06900
H 	H 	0.86220 0.50236 0.65161 0.06100
H 	H 	0.90117 0.53345 0.29455 0.06600
H 	H 	0.86912 0.51547 0.28127 0.05900
H 	H 	0.89663 0.48705 0.29002 0.05800
C 	C 	0.14947 0.51298 0.41113 -0.03900
C 	C 	0.12575 0.52773 0.39104 -0.09000
C 	C 	0.10276 0.50883 0.40305 0.06600
C 	C 	0.10363 0.47689 0.44090 -0.03700
C 	C 	0.12720 0.46282 0.46405 -0.09600
C 	C 	0.15044 0.48028 0.44653 0.07900
C 	C 	0.17619 0.46448 0.46605 -0.19400
H 	H 	0.16713 0.52742 0.40110 0.04500
H 	H 	0.08589 0.46295 0.45264 0.02900
C 	C 	0.07716 0.52331 0.37821 -0.18600
H 	H 	0.19228 0.47863 0.43886 0.06300
H 	H 	0.17707 0.43673 0.44784 0.06900
H 	H 	0.17919 0.46583 0.52637 0.08000
H 	H 	0.07872 0.53423 0.32180 0.05200
H 	H 	0.07083 0.54429 0.41643 0.05700
H 	H 	0.06211 0.50260 0.37700 0.05800
C 	C 	0.00870 0.63828 0.29668 -0.03800
C 	C 	0.02234 0.66284 0.33875 -0.09400
C 	C 	0.00893 0.68538 0.38706 0.08100
C 	C 	0.98198 0.68338 0.39128 -0.04000
C 	C 	0.96824 0.66025 0.34602 -0.08600
C 	C 	0.98169 0.63657 0.30047 0.06700
C 	C 	0.96730 0.61068 0.25319 -0.18900
H 	H 	0.01909 0.62076 0.26031 0.03000
H 	H 	0.97156 0.70107 0.42723 0.04800
C 	C 	0.02316 0.71188 0.43337 -0.19500
H 	H 	0.98055 0.59154 0.22695 0.05700
H 	H 	0.95674 0.62483 0.20919 0.05300
H 	H 	0.95335 0.59566 0.28711 0.06900
H 	H 	0.03650 0.72752 0.39871 0.08100
H 	H 	0.03429 0.69820 0.47684 0.07700
H 	H 	0.00973 0.73048 0.46050 0.06600
C 	C 	0.91168 0.25145 0.47147 -0.04900
C 	C 	0.88592 0.26003 0.48632 -0.08900
C 	C 	0.86596 0.23844 0.45962 0.06300
C 	C 	0.87202 0.21010 0.41355 -0.02800
C 	C 	0.89771 0.20333 0.39356 -0.12500
C 	C 	0.91776 0.22281 0.42642 0.09000
C 	C 	0.94561 0.21418 0.41122 -0.20000
H 	H 	0.92700 0.26751 0.49398 0.04700
H 	H 	0.85665 0.19447 0.39021 -0.01600
C 	C 	0.83819 0.24640 0.47737 -0.18800
H 	H 	0.95839 0.22500 0.45462 0.06300
H 	H 	0.95142 0.22556 0.35760 0.08000
H 	H 	0.94857 0.18536 0.41001 0.07200
H 	H 	0.83293 0.27265 0.45567 0.06100
H 	H 	0.83526 0.24602 0.53779 0.07000
H 	H 	0.82490 0.22683 0.45271 0.05900
C 	C 	0.88494 0.28170 0.99754 0.01700
C 	C 	0.86537 0.25699 0.01023 -0.14500
C 	C 	0.84206 0.25966 0.97031 0.10300
C 	C 	0.84100 0.28155 0.90826 -0.05300
C 	C 	0.86236 0.30203 0.88872 -0.07600
C 	C 	0.88325 0.30485 0.93792 0.05000
C 	C 	0.90498 0.33007 0.92308 -0.17900
H 	H 	0.90222 0.28142 0.03099 0.02400
H 	H 	0.82423 0.28089 0.87271 0.04900
C 	C 	0.81863 0.23872 0.99190 -0.18200
H 	H 	0.91526 0.33688 0.97469 0.06300
H 	H 	0.89752 0.35483 0.89903 0.05600
H 	H 	0.91891 0.31799 0.88432 0.05800
H 	H 	0.81778 0.23501 0.05240 0.05700
H 	H 	0.81912 0.21275 0.96442 0.07600
H 	H 	0.80071 0.25251 0.97521 0.06500
C 	C 	0.10631 0.23332 0.49560 -0.04300
C 	C 	0.12522 0.25953 0.50086 -0.09400
C 	C 	0.14678 0.25822 0.45326 0.07100
C 	C 	0.14604 0.23613 0.39155 -0.04200
C 	C 	0.12498 0.21377 0.38026 -0.09400
C 	C 	0.10655 0.20964 0.43670 0.07600
C 	C 	0.08627 0.18144 0.43247 -0.19000
H 	H 	0.09063 0.23251 0.53492 0.04900
H 	H 	0.16118 0.23766 0.35060 0.04100
C 	C 	0.17021 0.28068 0.46671 -0.18800
H 	H 	0.07998 0.17347 0.48839 0.06200
H 	H 	0.09389 0.15768 0.40466 0.06500
H 	H 	0.06927 0.19136 0.40186 0.06800
H 	H 	0.17332 0.28491 0.52645 0.06300
H 	H 	0.16783 0.30637 0.43892 0.06800
H 	H 	0.18779 0.26779 0.44472 0.06000
C 	C 	0.12644 0.30884 0.92090 -0.02200
C 	C 	0.10146 0.31880 0.89950 -0.12300
C 	C 	0.08000 0.30436 0.93628 0.08900
C 	C 	0.08366 0.27638 0.98520 -0.03500
C 	C 	0.10848 0.26357 0.99957 -0.06400
C 	C 	0.13010 0.28131 0.97107 0.05100
C 	C 	0.15701 0.26925 0.98935 -0.16100
H 	H 	0.14300 0.32088 0.89492 -0.01900
H 	H 	0.06709 0.26344 0.00934 0.02900
C 	C 	0.05310 0.31712 0.92024 -0.19900
H 	H 	0.17165 0.28884 0.97216 0.05400
H 	H 	0.16109 0.24413 0.96080 0.05700
H 	H 	0.15903 0.26539 0.04956 0.05200
H 	H 	0.04570 0.30417 0.86986 0.08300
H 	H 	0.05293 0.34599 0.91233 0.07300
H 	H 	0.03987 0.31105 0.96650 0.06800
C 	C 	0.01006 0.18693 0.01493 -0.05500
C 	C 	0.02266 0.16134 0.05695 -0.08500
C 	C 	0.00806 0.13649 0.09642 0.06500
C 	C 	0.98118 0.14015 0.10017 -0.04100
C 	C 	0.96877 0.16777 0.06368 -0.09000
C 	C 	0.98324 0.19095 0.01929 0.06200
C 	C 	0.97036 0.22056 0.97832 -0.15300
H 	H 	0.02135 0.20529 0.98277 0.06100
H 	H 	0.96995 0.12204 0.13311 0.03000
C 	C 	0.02117 0.10752 0.13855 -0.18900
H 	H 	0.98469 0.23858 0.95319 0.05900
H 	H 	0.95826 0.23632 0.01629 0.05900
H 	H 	0.95818 0.20981 0.93356 0.07100
H 	H 	0.03102 0.11858 0.18749 0.05500
H 	H 	0.03555 0.09415 0.10314 0.06700
H 	H 	0.00715 0.08742 0.15734 0.05700
C 	C 	0.89453 0.81490 0.47422 -0.03200
C 	C 	0.88107 0.81257 0.54069 -0.11000
C 	C 	0.86377 0.78450 0.55254 0.06400
C 	C 	0.86148 0.75805 0.49945 -0.03500
C 	C 	0.87642 0.75892 0.43547 -0.09200
C 	C 	0.89248 0.78817 0.42142 0.07200
C 	C 	0.90820 0.79034 0.35185 -0.19100
H 	H 	0.90735 0.83688 0.46473 0.03600
H 	H 	0.84886 0.73589 0.50942 0.03200
C 	C 	0.84798 0.78240 0.62195 -0.18300
H 	H 	0.91980 0.81479 0.34956 0.06000
H 	H 	0.89527 0.79015 0.30328 0.06000
H 	H 	0.92170 0.76782 0.34868 0.06300
H 	H 	0.83541 0.80579 0.62635 0.02100
H 	H 	0.86082 0.78087 0.67063 0.05800
H 	H 	0.83536 0.75888 0.62253 0.06000
C 	C 	0.84349 0.75631 0.05296 -0.05400
C 	C 	0.86076 0.72806 0.05233 -0.10500
C 	C 	0.87541 0.72137 0.98857 0.08600
C 	C 	0.87661 0.74680 0.93311 -0.04200
C 	C 	0.86220 0.77790 0.93888 -0.08900
C 	C 	0.84325 0.78052 0.99472 0.07900
C 	C 	0.82254 0.80819 0.99213 -0.14900
H 	H 	0.83094 0.76020 0.09988 0.04000
H 	H 	0.88962 0.74303 0.88719 0.05300
C 	C 	0.89110 0.68829 0.98145 -0.15100
H 	H 	0.80495 0.79920 0.02139 0.04400
H 	H 	0.81684 0.81392 0.93453 0.06300
H 	H 	0.82952 0.83251 0.01906 0.05100
H 	H 	0.88100 0.66580 0.00738 0.04800
H 	H 	0.91013 0.69198 0.00821 0.05100
H 	H 	0.89425 0.68155 0.92275 0.05700
C 	C 	0.83755 0.99940 0.95011 -0.03200
C 	C 	0.86122 0.98397 0.93190 -0.09400
C 	C 	0.88427 0.00321 0.94042 0.07100
C 	C 	0.88339 0.03693 0.97086 -0.04800
C 	C 	0.85980 0.05219 0.99032 -0.07000
C 	C 	0.83658 0.03369 0.97808 0.06500
C 	C 	0.81085 0.04997 0.99590 -0.16600
H 	H 	0.81988 0.98460 0.94311 0.04600
H 	H 	0.90112 0.05141 0.97937 0.03300
C 	C 	0.90987 0.98776 0.91812 -0.18700
H 	H 	0.79473 0.03490 0.97111 0.06000
H 	H 	0.80976 0.07710 0.97401 0.07400
H 	H 	0.80808 0.05042 0.05633 0.05800
H 	H 	0.90854 0.97589 0.86252 0.05000
H 	H 	0.91573 0.96737 0.95831 0.05900
H 	H 	0.92520 0.00806 0.91613 0.05900
C 	C 	0.13412 0.78877 0.47956 -0.03600
C 	C 	0.13105 0.77777 0.55253 -0.09100
C 	C 	0.13157 0.74168 0.56932 0.06900
C 	C 	0.13131 0.71708 0.51213 -0.03800
C 	C 	0.13132 0.72814 0.43856 -0.09400
C 	C 	0.13507 0.76407 0.42236 0.07400
C 	C 	0.13919 0.77635 0.34450 -0.18900
H 	H 	0.13476 0.81654 0.46699 0.03900
H 	H 	0.12957 0.68943 0.52491 0.03500
C 	C 	0.13032 0.72930 0.64793 -0.19100
H 	H 	0.15011 0.80140 0.34347 0.05800
H 	H 	0.12029 0.78059 0.31739 0.07200
H 	H 	0.15050 0.75686 0.31264 0.06100
H 	H 	0.11023 0.73147 0.66838 0.05800
H 	H 	0.14319 0.74535 0.68324 0.06700
H 	H 	0.13661 0.70157 0.65294 0.06200
C 	C 	0.12071 0.76879 0.98804 -0.01500
C 	C 	0.10628 0.76769 0.92304 -0.09600
C 	C 	0.08884 0.73973 0.91097 0.06900
C 	C 	0.08566 0.71391 0.96531 -0.01500
C 	C 	0.09923 0.71598 0.03166 -0.12600
C 	C 	0.11734 0.74320 0.04260 0.04500
C 	C 	0.13327 0.74492 0.11188 -0.17700
H 	H 	0.13411 0.79017 0.99698 0.03200
H 	H 	0.07220 0.69259 0.95657 0.03700
C 	C 	0.07310 0.73781 0.84142 -0.19000
H 	H 	0.14675 0.76753 0.11131 0.05200
H 	H 	0.14495 0.72073 0.11737 0.02100
H 	H 	0.12058 0.74785 0.16059 0.05800
H 	H 	0.08603 0.73514 0.79320 0.05800
H 	H 	0.06120 0.76182 0.83548 0.06300
H 	H 	0.05985 0.71495 0.84161 0.06200
C 	C 	0.13760 0.00026 0.90182 -0.02400
C 	C 	0.11413 0.98308 0.88914 -0.11200
C 	C 	0.09085 0.99876 0.91281 0.09000
C 	C 	0.09167 0.03011 0.95341 -0.05400
C 	C 	0.11525 0.04664 0.96807 -0.06100
C 	C 	0.13833 0.03226 0.93982 0.04300
C 	C 	0.16380 0.05054 0.95107 -0.14900
H 	H 	0.15542 0.98840 0.88314 0.01000
H 	H 	0.07395 0.04160 0.97378 0.05100
C 	C 	0.06517 0.98206 0.89601 -0.20000
H 	H 	0.17904 0.03936 0.91517 0.04600
H 	H 	0.17003 0.04757 0.00908 0.01000
H 	H 	0.16213 0.07883 0.93747 0.02900
H 	H 	0.06181 0.95970 0.93384 0.08500
H 	H 	0.06459 0.97262 0.83831 0.07700
H 	H 	0.04913 0.00107 0.90285 0.06700
C 	C 	0.98193 0.84764 0.88527 -0.04200
C 	C 	0.96679 0.86319 0.83038 -0.08500
C 	C 	0.97869 0.88367 0.77519 0.06900
C 	C 	0.00571 0.88511 0.77144 -0.03800
C 	C 	0.02082 0.86752 0.82346 -0.09400
C 	C 	0.00886 0.85029 0.88308 0.08300
C 	C 	0.02479 0.83268 0.94180 -0.19800
H 	H 	0.97277 0.83268 0.92867 0.05000
H 	H 	0.01496 0.89883 0.72642 0.03200
C 	C 	0.96279 0.90312 0.71907 -0.18900
H 	H 	0.01305 0.82680 0.99134 0.07000
H 	H 	0.04086 0.85000 0.95925 0.08300
H 	H 	0.03280 0.80771 0.92034 0.08200
H 	H 	0.94657 0.91705 0.74611 0.05300
H 	H 	0.95505 0.88438 0.67795 0.07500
H 	H 	0.97447 0.92310 0.68972 0.05900
C 	C 	0.76480 0.17657 0.24483 -0.03800
C 	C 	0.77798 0.14506 0.23260 -0.09200
C 	C 	0.76423 0.11313 0.22995 0.06900
C 	C 	0.73726 0.11357 0.23472 -0.03700
C 	C 	0.72402 0.14530 0.24340 -0.09400
C 	C 	0.73790 0.17687 0.25158 0.07200
C 	C 	0.72407 0.21105 0.26503 -0.18900
H 	H 	0.77549 0.20094 0.24849 0.03800
H 	H 	0.72652 0.08934 0.22927 0.03700
C 	C 	0.77813 0.07872 0.22035 -0.18800
H 	H 	0.73748 0.23157 0.28539 0.05900
H 	H 	0.70882 0.20759 0.30719 0.05900
H 	H 	0.71520 0.22039 0.21311 0.06500
H 	H 	0.79406 0.07645 0.26082 0.05400
H 	H 	0.78610 0.07705 0.16390 0.06800
H 	H 	0.76504 0.05605 0.22890 0.05700
C 	C 	0.22637 0.15854 0.25552 -0.04500
C 	C 	0.22124 0.16071 0.17998 -0.09300
C 	C 	0.24181 0.16591 0.13017 0.07200
C 	C 	0.26730 0.16433 0.15581 -0.04500
C 	C 	0.27248 0.15993 0.23089 -0.09300
C 	C 	0.25183 0.15926 0.28168 0.07300
C 	C 	0.25668 0.15907 0.36339 -0.18800
H 	H 	0.21053 0.15580 0.29398 0.03900
H 	H 	0.28313 0.16612 0.11711 0.03800
C 	C 	0.23683 0.17273 0.04976 -0.18700
H 	H 	0.23940 0.16802 0.39416 0.05900
H 	H 	0.27271 0.17710 0.37779 0.06700
H 	H 	0.26146 0.13209 0.38168 0.06300
H 	H 	0.22009 0.19053 0.04250 0.06400
H 	H 	0.23308 0.14757 0.02107 0.06100
H 	H 	0.25368 0.18554 0.02337 0.05700
C 	C 	0.48509 0.19106 0.36728 -0.04000
C 	C 	0.47341 0.16532 0.32351 -0.08600
C 	C 	0.48887 0.14127 0.28438 0.06900
C 	C 	0.51581 0.14477 0.28613 -0.03900
C 	C 	0.52740 0.17188 0.32638 -0.09300
C 	C 	0.51190 0.19538 0.36706 0.08000
C 	C 	0.52373 0.22541 0.40932 -0.19300
H 	H 	0.47314 0.20900 0.39851 0.04900
H 	H 	0.52778 0.12665 0.25543 0.03200
C 	C 	0.47673 0.11273 0.23870 -0.19000
H 	H 	0.50893 0.24480 0.42646 0.06400
H 	H 	0.53800 0.23956 0.37484 0.07800
H 	H 	0.53332 0.21530 0.45953 0.07500
H 	H 	0.46554 0.12452 0.19295 0.05700
H 	H 	0.46369 0.09662 0.27333 0.07300
H 	H 	0.49144 0.09496 0.21467 0.05900
C 	C 	0.72875 0.89885 0.67309 -0.03600
C 	C 	0.71520 0.89040 0.73724 -0.09500
C 	C 	0.72871 0.88651 0.80430 0.07600
C 	C 	0.75569 0.88547 0.80365 -0.04000
C 	C 	0.76931 0.89110 0.73817 -0.08700
C 	C 	0.75574 0.90048 0.67362 0.06800
C 	C 	0.76983 0.91152 0.60492 -0.18400
H 	H 	0.71833 0.90341 0.62232 0.03800
H 	H 	0.76607 0.87964 0.85389 0.04700
C 	C 	0.71459 0.88299 0.87638 -0.18800
H 	H 	0.75714 0.92720 0.56835 0.05700
H 	H 	0.77634 0.88797 0.57432 0.05900
H 	H 	0.78672 0.92815 0.61866 0.04800
H 	H 	0.70874 0.85530 0.88480 0.06400
H 	H 	0.69728 0.90011 0.87748 0.05700
H 	H 	0.72705 0.89101 0.92309 0.06300
C 	C 	0.60802 0.00843 0.51761 -0.03900
C 	C 	0.63115 0.99075 0.53150 -0.09400
C 	C 	0.65486 0.00648 0.51228 0.07800
C 	C 	0.65492 0.03923 0.47694 -0.03900
C 	C 	0.63167 0.05623 0.46038 -0.09000
C 	C 	0.60800 0.04063 0.48054 0.06700
C 	C 	0.58267 0.05797 0.46208 -0.18500
H 	H 	0.58989 0.99631 0.53283 0.02900
H 	H 	0.67305 0.05146 0.46219 0.04600
C 	C 	0.68003 0.98818 0.52797 -0.19400
H 	H 	0.56620 0.03973 0.46968 0.05800
H 	H 	0.58247 0.06661 0.40380 0.04800
H 	H 	0.57962 0.08097 0.49842 0.05900
H 	H 	0.68077 0.96278 0.49827 0.07000
H 	H 	0.68197 0.98339 0.58788 0.08000
H 	H 	0.69682 0.00411 0.51013 0.06300
C 	C 	0.22609 0.85297 0.64755 -0.04500
C 	C 	0.22168 0.85689 0.72319 -0.09200
C 	C 	0.24290 0.85755 0.77207 0.07400
C 	C 	0.26804 0.85900 0.74367 -0.04500
C 	C 	0.27239 0.85717 0.66767 -0.09400
C 	C 	0.25131 0.85185 0.61960 0.07400
C 	C 	0.25544 0.84516 0.53876 -0.18800
H 	H 	0.20985 0.85122 0.61023 0.04000
H 	H 	0.28425 0.86187 0.78079 0.03700
C 	C 	0.23899 0.85682 0.85418 -0.18900
H 	H 	0.23831 0.83246 0.51367 0.06000
H 	H 	0.27206 0.82731 0.52997 0.06700
H 	H 	0.25894 0.87036 0.50995 0.06300
H 	H 	0.22310 0.83868 0.86921 0.07100
H 	H 	0.23449 0.88360 0.87426 0.06600
H 	H 	0.25660 0.84745 0.88279 0.06100
C 	C 	0.38780 0.03676 0.47122 -0.04400
C 	C 	0.38614 0.03895 0.39430 -0.10200
C 	C 	0.38582 0.00771 0.35224 0.06800
C 	C 	0.38350 0.97523 0.38804 -0.04300
C 	C 	0.38370 0.97322 0.46508 -0.10000
C 	C 	0.38772 0.00407 0.50673 0.07000
C 	C 	0.39182 0.00249 0.58872 -0.18800
H 	H 	0.38889 0.06055 0.50366 0.04100
H 	H 	0.38132 0.95151 0.35580 0.03900
C 	C 	0.38791 0.00866 0.26959 -0.18700
H 	H 	0.40159 0.02653 0.60901 0.06000
H 	H 	0.40426 0.97989 0.60364 0.06700
H 	H 	0.37296 0.00015 0.61703 0.06100
H 	H 	0.40194 0.02892 0.25174 0.06700
H 	H 	0.36873 0.01427 0.24527 0.05700
H 	H 	0.39478 0.98313 0.24771 0.05800
C 	C 	0.48530 0.83740 0.51039 -0.03800
C 	C 	0.47115 0.86073 0.55411 -0.08600
C 	C 	0.48418 0.88536 0.59841 0.06900
C 	C 	0.51116 0.88396 0.60381 -0.03800
C 	C 	0.52519 0.85896 0.56403 -0.09100
C 	C 	0.51225 0.83591 0.51575 0.08000
C 	C 	0.52697 0.80925 0.47113 -0.19400
H 	H 	0.47520 0.81904 0.47516 0.04600
H 	H 	0.52121 0.90195 0.63997 0.03200
C 	C 	0.46935 0.91172 0.64335 -0.19000
H 	H 	0.51383 0.79101 0.44178 0.06400
H 	H 	0.53951 0.79327 0.50748 0.08100
H 	H 	0.53901 0.82280 0.42949 0.07500
H 	H 	0.45950 0.89824 0.68955 0.05700
H 	H 	0.45474 0.92506 0.60860 0.06900
H 	H 	0.48222 0.93223 0.66640 0.06100
C 	C 	0.75465 0.33364 0.69081 -0.04100
C 	C 	0.76756 0.36568 0.68165 -0.08600
C 	C 	0.75511 0.39729 0.70130 0.06100
C 	C 	0.72966 0.39640 0.72729 -0.03600
C 	C 	0.71672 0.36443 0.73651 -0.09500
C 	C 	0.72952 0.33265 0.71964 0.07900
C 	C 	0.71657 0.29772 0.73177 -0.19300
H 	H 	0.76424 0.30940 0.67597 0.04500
H 	H 	0.71986 0.42071 0.74053 0.02500
C 	C 	0.76879 0.43205 0.69445 -0.18000
H 	H 	0.73071 0.27586 0.73016 0.06300
H 	H 	0.70202 0.29313 0.68812 0.07500
H 	H 	0.70709 0.29694 0.78646 0.07200
H 	H 	0.77084 0.43909 0.63557 0.04900
H 	H 	0.78815 0.43068 0.72032 0.04100
H 	H 	0.75797 0.45338 0.72229 0.05200
C 	C 	0.64500 0.28420 0.52729 -0.04200
C 	C 	0.62310 0.30546 0.53405 -0.09300
C 	C 	0.60568 0.30790 0.47465 0.07700
C 	C 	0.60740 0.28374 0.41685 -0.04300
C 	C 	0.62725 0.25870 0.41569 -0.09400
C 	C 	0.64769 0.26164 0.46679 0.07200
C 	C 	0.67204 0.24050 0.45817 -0.18900
H 	H 	0.65933 0.28398 0.57067 0.04000
H 	H 	0.59254 0.28328 0.37501 0.04900
C 	C 	0.58449 0.33492 0.47424 -0.19100
H 	H 	0.68869 0.25447 0.48299 0.06100
H 	H 	0.67659 0.23624 0.39922 0.06300
H 	H 	0.66982 0.21481 0.48606 0.07000
H 	H 	0.59084 0.35945 0.50164 0.06800
H 	H 	0.56728 0.32437 0.50292 0.06900
H 	H 	0.57897 0.34179 0.41704 0.06200
C 	C 	0.63072 0.24459 0.94358 -0.05300
C 	C 	0.60732 0.25471 0.91198 -0.08000
C 	C 	0.58481 0.23507 0.92638 0.06100
C 	C 	0.58543 0.20845 0.97959 0.00100
C 	C 	0.60831 0.20073 0.01710 -0.14700
C 	C 	0.63147 0.21765 0.99613 0.10800
C 	C 	0.65672 0.20846 0.03223 -0.21200
H 	H 	0.64812 0.25901 0.93043 0.03900
H 	H 	0.56780 0.19493 0.99442 0.04000
C 	C 	0.55970 0.24408 0.88921 -0.18400
H 	H 	0.67299 0.22364 0.00858 0.05900
H 	H 	0.66100 0.18025 0.02375 0.02700
H 	H 	0.65580 0.21440 0.09188 0.03300
H 	H 	0.56283 0.24889 0.82970 0.05900
H 	H 	0.55134 0.26791 0.91483 0.08000
H 	H 	0.54556 0.22235 0.89425 0.06400
C 	C 	0.23120 0.38701 0.75468 -0.03700
C 	C 	0.21718 0.38171 0.68972 -0.09400
C 	C 	0.23024 0.37939 0.62183 0.07100
C 	C 	0.25721 0.38159 0.62043 -0.03700
C 	C 	0.27133 0.38445 0.68597 -0.09400
C 	C 	0.25821 0.38757 0.75371 0.07300
C 	C 	0.27281 0.39101 0.82511 -0.19200
H 	H 	0.22105 0.38965 0.80647 0.03600
H 	H 	0.26731 0.38005 0.56837 0.03600
C 	C 	0.21562 0.37407 0.55100 -0.18900
H 	H 	0.25980 0.38884 0.87338 0.06400
H 	H 	0.28244 0.41696 0.82759 0.07600
H 	H 	0.28744 0.36990 0.82998 0.06200
H 	H 	0.20409 0.39781 0.53841 0.07000
H 	H 	0.20263 0.35104 0.55556 0.05800
H 	H 	0.22881 0.36926 0.50399 0.05800
C 	C 	0.37350 0.27833 0.54394 -0.04300
C 	C 	0.38956 0.30692 0.52827 -0.12200
C 	C 	0.40045 0.31045 0.45762 0.07800
C 	C 	0.39632 0.28408 0.40497 -0.04300
C 	C 	0.38148 0.25444 0.42224 -0.09000
C 	C 	0.36887 0.25248 0.49082 0.06800
C 	C 	0.35102 0.22242 0.50830 -0.18800
H 	H 	0.36452 0.27629 0.59759 0.01500
H 	H 	0.40563 0.28582 0.35176 0.03300
C 	C 	0.41705 0.34163 0.43891 -0.19600
H 	H 	0.33855 0.22852 0.55624 0.05500
H 	H 	0.36246 0.19862 0.52122 0.06600
H 	H 	0.33817 0.21696 0.46088 0.05500
H 	H 	0.43388 0.34272 0.47653 0.07000
H 	H 	0.40568 0.36613 0.44449 0.06600
H 	H 	0.42441 0.34026 0.38166 0.06000
C 	C 	0.35518 0.29990 0.00779 -0.06900
C 	C 	0.35661 0.28834 0.93465 -0.06700
C 	C 	0.35515 0.25199 0.91954 0.06000
C 	C 	0.35701 0.22790 0.97771 -0.00600
C 	C 	0.35864 0.23975 0.05047 -0.11900
C 	C 	0.35571 0.27576 0.06584 0.08300
C 	C 	0.35515 0.28877 0.14407 -0.19800
H 	H 	0.35509 0.32774 0.01971 0.03500
H 	H 	0.35821 0.20007 0.96613 0.03700
C 	C 	0.35233 0.23869 0.84196 -0.18200
H 	H 	0.34720 0.31576 0.14737 0.06000
H 	H 	0.37498 0.28891 0.16690 0.05900
H 	H 	0.34275 0.27161 0.17845 0.06800
H 	H 	0.37161 0.23629 0.81610 0.07200
H 	H 	0.34014 0.25664 0.80877 0.06000
H 	H 	0.34292 0.21253 0.84128 0.05900
C 	C 	0.47661 0.38565 0.80518 -0.03800
C 	C 	0.46273 0.35945 0.84195 -0.09200
C 	C 	0.47594 0.33434 0.88478 0.08200
C 	C 	0.50295 0.33493 0.88733 -0.03800
C 	C 	0.51689 0.35967 0.84651 -0.08600
C 	C 	0.50366 0.38618 0.80776 0.06900
C 	C 	0.51829 0.41390 0.76599 -0.19000
H 	H 	0.46636 0.40517 0.77320 0.03100
H 	H 	0.51321 0.31510 0.91839 0.04600
C 	C 	0.46138 0.30640 0.92628 -0.19700
H 	H 	0.50528 0.43478 0.74514 0.06000
H 	H 	0.52829 0.40182 0.71837 0.05600
H 	H 	0.53274 0.42652 0.80240 0.07100
H 	H 	0.44889 0.29134 0.88809 0.08300
H 	H 	0.44929 0.31869 0.96949 0.08000
H 	H 	0.47462 0.28753 0.95345 0.06800
C 	C 	0.72227 0.66066 0.26385 -0.04500
C 	C 	0.71771 0.65731 0.18819 -0.09300
C 	C 	0.73878 0.65722 0.13881 0.07200
C 	C 	0.76404 0.65662 0.16662 -0.04500
C 	C 	0.76856 0.65815 0.24254 -0.09300
C 	C 	0.74753 0.66213 0.29133 0.07500
C 	C 	0.75179 0.66756 0.37253 -0.18900
H 	H 	0.70610 0.66178 0.30153 0.03900
H 	H 	0.78020 0.65467 0.12908 0.03600
C 	C 	0.73459 0.65749 0.05680 -0.18700
H 	H 	0.73440 0.67880 0.39921 0.06100
H 	H 	0.76790 0.68615 0.38223 0.07000
H 	H 	0.75619 0.64207 0.39914 0.06500
H 	H 	0.71880 0.67579 0.04181 0.06600
H 	H 	0.72976 0.63067 0.03763 0.06200
H 	H 	0.75216 0.66636 0.02730 0.05700
C 	C 	0.61561 0.74456 0.91712 -0.03800
C 	C 	0.60328 0.74795 0.98520 -0.08200
C 	C 	0.58796 0.77790 0.99962 0.08300
C 	C 	0.58537 0.80393 0.94547 -0.03700
C 	C 	0.59705 0.79993 0.87663 -0.11000
C 	C 	0.61252 0.77013 0.86242 0.05800
C 	C 	0.62574 0.76541 0.78919 -0.18000
H 	H 	0.62718 0.72148 0.90607 0.03700
H 	H 	0.57393 0.82712 0.95657 0.04100
C 	C 	0.57398 0.78198 0.07181 -0.20500
H 	H 	0.63764 0.74121 0.78787 0.05700
H 	H 	0.63874 0.78786 0.77827 0.01300
H 	H 	0.61123 0.76333 0.74461 0.06300
H 	H 	0.58813 0.78482 0.11712 0.05900
H 	H 	0.56154 0.75883 0.08215 0.05900
H 	H 	0.56140 0.80553 0.07212 0.05900
C 	C 	0.63334 0.72859 0.43104 -0.03600
C 	C 	0.63037 0.74001 0.35834 -0.09100
C 	C 	0.63196 0.77609 0.34203 0.06800
C 	C 	0.63256 0.80048 0.39958 -0.03700
C 	C 	0.63232 0.78916 0.47294 -0.09500
C 	C 	0.63509 0.75302 0.48856 0.07500
C 	C 	0.63887 0.74026 0.56623 -0.19000
H 	H 	0.63320 0.70076 0.44320 0.04000
H 	H 	0.63159 0.82826 0.38727 0.03300
C 	C 	0.63089 0.78880 0.26363 -0.18900
H 	H 	0.64917 0.71474 0.56687 0.06000
H 	H 	0.61986 0.73678 0.59321 0.07200
H 	H 	0.65062 0.75912 0.59847 0.06200
H 	H 	0.61067 0.78811 0.24381 0.05600
H 	H 	0.64300 0.77201 0.22769 0.06300
H 	H 	0.63820 0.81608 0.25885 0.05900
C 	C 	0.63149 0.51519 0.02164 -0.05500
C 	C 	0.60811 0.53313 0.03090 -0.10000
C 	C 	0.58500 0.51803 0.00437 0.06200
C 	C 	0.58603 0.48679 0.96347 -0.01800
C 	C 	0.60958 0.46968 0.95172 -0.10200
C 	C 	0.63233 0.48318 0.98376 0.07800
C 	C 	0.65763 0.46401 0.97652 -0.16500
H 	H 	0.64916 0.52650 0.04274 0.01200
H 	H 	0.56850 0.47589 0.94046 0.04100
C 	C 	0.55929 0.53524 0.01838 -0.20900
H 	H 	0.67217 0.47420 0.01590 0.03700
H 	H 	0.66530 0.46737 0.92003 0.02600
H 	H 	0.65507 0.43567 0.98835 0.03000
H 	H 	0.55653 0.55735 0.97952 0.09500
H 	H 	0.55816 0.54513 0.07569 0.07700
H 	H 	0.54320 0.51640 0.01077 0.06200
C 	C 	0.22726 0.62913 0.25591 -0.03900
C 	C 	0.21397 0.62836 0.18895 -0.09200
C 	C 	0.22794 0.62615 0.12230 0.07000
C 	C 	0.25480 0.63006 0.12338 -0.03800
C 	C 	0.26792 0.63367 0.19020 -0.09600
C 	C 	0.25424 0.63051 0.25715 0.07300
C 	C 	0.26814 0.62914 0.32990 -0.18600
H 	H 	0.21658 0.62939 0.30713 0.04100
H 	H 	0.26544 0.63085 0.07211 0.03500
C 	C 	0.21441 0.62019 0.05003 -0.18400
H 	H 	0.25589 0.61693 0.37294 0.06000
H 	H 	0.27314 0.65610 0.34784 0.05900
H 	H 	0.28595 0.61312 0.32561 0.05100
H 	H 	0.20694 0.64547 0.02863 0.05900
H 	H 	0.19825 0.60138 0.05657 0.05200
H 	H 	0.22779 0.60895 0.00860 0.05400
C 	C 	0.34532 0.76119 0.94121 -0.04400
C 	C 	0.36668 0.75925 0.98848 -0.08300
C 	C 	0.38677 0.78431 0.98117 0.08700
C 	C 	0.38653 0.80746 0.92132 -0.04100
C 	C 	0.36737 0.80505 0.86736 -0.09200
C 	C 	0.34559 0.78372 0.88015 0.07300
C 	C 	0.32315 0.78379 0.82749 -0.19400
H 	H 	0.32915 0.74363 0.94947 0.04600
H 	H 	0.40236 0.82568 0.91377 0.04600
C 	C 	0.40902 0.78565 0.03454 -0.20900
H 	H 	0.30730 0.76650 0.84674 0.06600
H 	H 	0.32945 0.77435 0.77264 0.07000
H 	H 	0.31525 0.81071 0.82240 0.08100
H 	H 	0.42012 0.76079 0.03237 0.08100
H 	H 	0.40179 0.79040 0.09107 0.08000
H 	H 	0.42257 0.80730 0.02132 0.06200
C 	C 	0.36158 0.71076 0.41477 -0.02800
C 	C 	0.38565 0.69809 0.39141 -0.12300
C 	C 	0.40827 0.71045 0.42579 0.09000
C 	C 	0.40681 0.73920 0.47365 -0.04800
C 	C 	0.38296 0.75462 0.48992 -0.08500
C 	C 	0.36007 0.73896 0.46418 0.05900
C 	C 	0.33414 0.75390 0.48457 -0.18600
H 	H 	0.34409 0.70031 0.39067 -0.01800
H 	H 	0.42434 0.75051 0.49583 0.04400
C 	C 	0.43415 0.69460 0.40815 -0.19900
H 	H 	0.31823 0.73591 0.46890 0.05400
H 	H 	0.33121 0.77931 0.45599 0.05400
H 	H 	0.33297 0.75810 0.54486 0.06700
H 	H 	0.44199 0.70670 0.35739 0.08000
H 	H 	0.43248 0.66583 0.40014 0.06900
H 	H 	0.44802 0.69905 0.45370 0.06400
C 	C 	0.37878 0.54168 0.92749 -0.03500
C 	C 	0.35566 0.55517 0.95545 -0.09600
C 	C 	0.33229 0.53700 0.94308 0.07700
C 	C 	0.33286 0.50417 0.90810 -0.03600
C 	C 	0.35622 0.49001 0.88332 -0.08900
C 	C 	0.37917 0.50953 0.89033 0.06700
C 	C 	0.40432 0.49541 0.86118 -0.18600
H 	H 	0.39657 0.55612 0.93537 0.03000
H 	H 	0.31523 0.48919 0.90204 0.04300
C 	C 	0.30688 0.55199 0.96820 -0.17300
H 	H 	0.41931 0.51616 0.85862 0.05900
H 	H 	0.40171 0.48502 0.80465 0.05400
H 	H 	0.41135 0.47407 0.89748 0.05500
H 	H 	0.30529 0.58001 0.95231 0.07200
H 	H 	0.30520 0.54956 0.02880 0.06600
H 	H 	0.29037 0.53797 0.94277 0.06200
C 	C 	0.47873 0.67478 0.02791 -0.06100
C 	C 	0.46295 0.66273 0.08520 -0.08300
C 	C 	0.47394 0.64318 0.14343 0.06600
C 	C 	0.50083 0.63940 0.14728 -0.03800
C 	C 	0.51667 0.65369 0.09265 -0.09400
C 	C 	0.50547 0.66974 0.03048 0.07200
C 	C 	0.52213 0.68385 0.96931 -0.18400
H 	H 	0.47029 0.68903 0.98235 0.06100
H 	H 	0.50948 0.62660 0.19442 0.03100
C 	C 	0.45731 0.62746 0.20290 -0.18700
H 	H 	0.51062 0.68931 0.91915 0.06600
H 	H 	0.53719 0.66446 0.95420 0.08300
H 	H 	0.53152 0.70857 0.98722 0.08400
H 	H 	0.43989 0.61505 0.17889 0.05400
H 	H 	0.45143 0.64817 0.24233 0.07600
H 	H 	0.46784 0.60679 0.23368 0.05800
