data_crystal

_cell_length_a 42.58894
_cell_length_b 45.92716
_cell_length_c 34.15648
_cell_angle_alpha 91.62223
_cell_angle_beta  88.45359
_cell_angle_gamma 89.89775

_symmetry_space_group_name_	'P 1'
_symmetry_space_group_name_H-M	'P 1'

loop_
_symmetry_equiv_pos_as_xyz
  x,y,z

loop_
_atom_site_label
_atom_site_type_symbol
_atom_site_fract_x
_atom_site_fract_y
_atom_site_fract_z
_atom_site_charge
Cd	Cd	0.02760 0.93577 0.17260 1.23500
Cd	Cd	0.00623 0.97540 0.26089 1.17200
O 	O 	0.05295 0.88810 0.17889 -0.32200
O 	O 	0.03868 0.90348 0.12168 -0.36800
C 	C 	0.05128 0.88284 0.14147 0.27900
O 	O 	0.99896 0.97321 0.15231 -0.43900
O 	O 	0.00738 0.00232 0.20675 -0.42900
C 	C 	0.99151 0.99619 0.17494 0.29000
C 	C 	0.97261 0.91974 0.21626 0.29800
O 	O 	0.05373 0.95765 0.23537 -0.45300
O 	O 	0.97332 0.90686 0.18163 -0.30300
O 	O 	0.99794 0.93361 0.22538 -0.53600
C 	C 	0.07329 0.97157 0.21277 0.29200
O 	O 	0.07186 0.96527 0.17529 -0.35300
Cd	Cd	0.96992 0.91147 0.97386 1.24100
Cd	Cd	0.96304 0.95734 0.05835 1.17700
O 	O 	0.00537 0.86832 0.96769 -0.31400
O 	O 	0.97092 0.87845 0.92323 -0.35000
C 	C 	0.99300 0.86121 0.93423 0.28200
O 	O 	0.92974 0.94212 0.96453 -0.38000
O 	O 	0.94475 0.98006 0.00574 -0.41400
C 	C 	0.92814 0.96987 0.97625 0.29100
C 	C 	0.93231 0.89261 0.03773 0.31800
O 	O 	0.00651 0.94631 0.01677 -0.43900
O 	O 	0.93026 0.87503 0.00730 -0.28800
O 	O 	0.95563 0.91082 0.03569 -0.53300
C 	C 	0.01357 0.95872 0.98364 0.28600
O 	O 	0.00306 0.94596 0.95223 -0.35600
C 	C 	0.03807 0.68057 0.76963 0.12400
N 	N 	0.02760 0.65349 0.77821 -0.13700
C 	C 	0.02806 0.63189 0.75021 0.12300
N 	N 	0.04073 0.63705 0.71416 -0.14100
C 	C 	0.05172 0.66392 0.70550 0.12100
N 	N 	0.05027 0.68571 0.73328 -0.13900
C 	C 	0.04538 0.69105 0.23186 0.12500
N 	N 	0.05744 0.69210 0.26831 -0.13700
C 	C 	0.05211 0.66997 0.29319 0.12200
N 	N 	0.03544 0.64636 0.28104 -0.14000
C 	C 	0.02381 0.64496 0.24438 0.12200
N 	N 	0.02883 0.66736 0.21983 -0.13900
Cd	Cd	0.80412 0.89479 0.91405 1.24100
Cd	Cd	0.82055 0.96605 0.94978 1.18500
O 	O 	0.75364 0.87147 0.93142 -0.31100
O 	O 	0.78790 0.85051 0.89029 -0.34500
C 	C 	0.76087 0.84910 0.90880 0.27400
O 	O 	0.84820 0.90701 0.88073 -0.37100
O 	O 	0.86346 0.94187 0.92550 -0.40500
C 	C 	0.86608 0.92946 0.89028 0.28300
C 	C 	0.77446 0.94318 0.87985 0.30100
O 	O 	0.80896 0.92333 0.98216 -0.43400
O 	O 	0.77210 0.91995 0.85710 -0.29000
O 	O 	0.78670 0.93908 0.91352 -0.53400
C 	C 	0.82867 0.90329 0.99206 0.28500
O 	O 	0.83265 0.88129 0.96732 -0.34600
Cd	Cd	0.81758 0.96021 0.36012 1.24100
Cd	Cd	0.83670 0.96868 0.25792 1.17800
O 	O 	0.78502 0.91829 0.37878 -0.31500
O 	O 	0.80535 0.94783 0.42308 -0.35100
C 	C 	0.78850 0.92479 0.41570 0.27600
O 	O 	0.85401 0.99551 0.35976 -0.37500
O 	O 	0.84724 0.00787 0.29600 -0.42600
C 	C 	0.86498 0.00684 0.32691 0.27800
C 	C 	0.86550 0.92519 0.32277 0.29800
O 	O 	0.78980 0.96900 0.29380 -0.44600
O 	O 	0.86584 0.92291 0.36084 -0.28400
O 	O 	0.84140 0.93865 0.30958 -0.53200
C 	C 	0.77627 0.99184 0.31041 0.29300
O 	O 	0.77882 0.99397 0.34843 -0.35600
C 	C 	0.60899 0.70901 0.01303 0.13000
N 	N 	0.60811 0.70207 0.05146 -0.14000
C 	C 	0.58040 0.69528 0.06962 0.12200
N 	N 	0.55360 0.69486 0.04888 -0.14100
C 	C 	0.55424 0.70218 0.01062 0.12800
N 	N 	0.58201 0.70902 0.99274 -0.13900
C 	C 	0.59224 0.83785 0.48611 0.12400
N 	N 	0.59242 0.81309 0.46344 -0.13900
C 	C 	0.56500 0.80104 0.45170 0.12200
N 	N 	0.53729 0.81357 0.46359 -0.14000
C 	C 	0.53694 0.83865 0.48568 0.12300
N 	N 	0.56448 0.85045 0.49745 -0.13600
Cd	Cd	0.84217 0.12834 0.17588 1.24100
Cd	Cd	0.87380 0.10570 0.26857 1.17500
O 	O 	0.80321 0.16773 0.18388 -0.31400
O 	O 	0.82302 0.15444 0.12591 -0.35100
C 	C 	0.80429 0.17190 0.14632 0.27600
O 	O 	0.88145 0.09721 0.15826 -0.36400
O 	O 	0.90754 0.09612 0.21728 -0.41900
C 	C 	0.90087 0.08419 0.18250 0.28700
C 	C 	0.88645 0.16211 0.21859 0.29700
O 	O 	0.83926 0.08677 0.22511 -0.47200
O 	O 	0.88567 0.16925 0.18180 -0.28700
O 	O 	0.86505 0.14374 0.22993 -0.52800
C 	C 	0.80959 0.08503 0.21879 0.29700
O 	O 	0.80122 0.09498 0.18525 -0.34600
Cd	Cd	0.83086 0.09896 0.83534 1.24100
Cd	Cd	0.83788 0.03007 0.78671 1.19000
O 	O 	0.80304 0.13924 0.80452 -0.31200
O 	O 	0.82056 0.14334 0.86447 -0.34700
C 	C 	0.80616 0.15545 0.83599 0.27500
O 	O 	0.85039 0.06971 0.88021 -0.37700
O 	O 	0.87166 0.03670 0.83528 -0.42100
C 	C 	0.86493 0.04470 0.87194 0.27500
C 	C 	0.77883 0.06012 0.83593 0.30200
O 	O 	0.85596 0.07590 0.76968 -0.43100
O 	O 	0.77419 0.08197 0.86080 -0.29100
O 	O 	0.80266 0.06320 0.81193 -0.52900
C 	C 	0.88239 0.08801 0.77983 0.29000
O 	O 	0.88077 0.10594 0.81011 -0.36100
C 	C 	0.78694 0.35728 0.74466 0.12500
N 	N 	0.80515 0.37898 0.75944 -0.13700
C 	C 	0.80989 0.40367 0.73909 0.12300
N 	N 	0.79663 0.40641 0.70364 -0.14000
C 	C 	0.77856 0.38471 0.68860 0.12200
N 	N 	0.77347 0.36032 0.70942 -0.13900
C 	C 	0.77948 0.37243 0.21554 0.12500
N 	N 	0.79549 0.39608 0.20289 -0.13600
C 	C 	0.79765 0.42029 0.22647 0.12200
N 	N 	0.78397 0.42066 0.26287 -0.14000
C 	C 	0.76830 0.39693 0.27589 0.12200
N 	N 	0.76569 0.37303 0.25187 -0.13900
Cd	Cd	0.04315 0.99450 0.78584 1.24000
Cd	Cd	0.00170 0.03987 0.85496 1.17600
O 	O 	0.09613 0.00755 0.76121 -0.31600
O 	O 	0.07526 0.96500 0.74791 -0.34500
C 	C 	0.09992 0.98164 0.74529 0.27200
O 	O 	0.00098 0.96834 0.80389 -0.37500
O 	O 	0.97077 0.00825 0.82178 -0.41600
C 	C 	0.97448 0.97976 0.81850 0.29400
C 	C 	0.06207 0.99509 0.86587 0.30300
O 	O 	0.02062 0.04788 0.79180 -0.44800
O 	O 	0.07277 0.97230 0.84606 -0.28600
O 	O 	0.04740 0.01404 0.84533 -0.52400
C 	C 	0.00548 0.04253 0.75967 0.29400
O 	O 	0.01294 0.01813 0.74109 -0.35100
Cd	Cd	0.03550 0.11346 0.34668 1.24200
Cd	Cd	0.01499 0.10498 0.24686 1.17000
O 	O 	0.07536 0.14974 0.36545 -0.31400
O 	O 	0.05021 0.12401 0.40918 -0.34300
C 	C 	0.07245 0.14272 0.40202 0.27500
O 	O 	0.99412 0.08368 0.34876 -0.37700
O 	O 	0.99840 0.06841 0.28449 -0.44400
C 	C 	0.98157 0.07137 0.31741 0.26900
C 	C 	0.99412 0.15428 0.31376 0.29600
O 	O 	0.06244 0.09928 0.27805 -0.44900
O 	O 	0.99401 0.15735 0.35196 -0.28500
O 	O 	0.01577 0.13716 0.29878 -0.53900
C 	C 	0.07283 0.07582 0.29417 0.29200
O 	O 	0.06756 0.07413 0.33182 -0.35500
C 	C 	0.28144 0.91206 0.87350 0.12500
N 	N 	0.30269 0.89002 0.86906 -0.13900
C 	C 	0.32470 0.88626 0.89656 0.12200
N 	N 	0.32532 0.90453 0.92852 -0.14000
C 	C 	0.30422 0.92663 0.93298 0.12300
N 	N 	0.28247 0.93051 0.90524 -0.13600
C 	C 	0.27432 0.07279 0.37444 0.12500
N 	N 	0.27840 0.07051 0.33487 -0.13900
C 	C 	0.30107 0.05285 0.31856 0.12200
N 	N 	0.32068 0.03845 0.34203 -0.14000
C 	C 	0.31725 0.04112 0.38164 0.12300
N 	N 	0.29364 0.05784 0.39779 -0.13600
C 	C 	0.30388 0.94534 0.96890 -0.01600
C 	C 	0.27527 0.95565 0.98549 -0.02000
C 	C 	0.27475 0.97114 0.02135 -0.04200
C 	C 	0.30278 0.97643 0.04101 0.01500
C 	C 	0.33146 0.96700 0.02385 -0.04300
C 	C 	0.33203 0.95159 0.98794 -0.02100
C 	C 	0.30190 0.99021 0.08061 0.00500
C 	C 	0.31781 0.01649 0.08782 -0.03500
C 	C 	0.31783 0.02896 0.12568 -0.03800
C 	C 	0.30191 0.01526 0.15658 0.00800
C 	C 	0.28587 0.98908 0.14930 -0.03900
C 	C 	0.28588 0.97661 0.11151 -0.03600
C 	C 	0.30229 0.02807 0.19667 0.01600
C 	C 	0.27412 0.03705 0.21557 -0.04700
C 	C 	0.27389 0.04623 0.25495 -0.01600
C 	C 	0.30189 0.04655 0.27585 -0.02000
C 	C 	0.33030 0.03874 0.25638 -0.01700
C 	C 	0.33047 0.02950 0.21699 -0.04700
H 	H 	0.25337 0.95099 0.97118 0.05200
H 	H 	0.25251 0.97854 0.03422 0.04800
H 	H 	0.35323 0.97105 0.03874 0.04500
H 	H 	0.35431 0.94418 0.97519 0.04300
H 	H 	0.33018 0.02720 0.06414 0.04400
H 	H 	0.33020 0.04922 0.13100 0.04400
H 	H 	0.27365 0.97828 0.17301 0.04400
H 	H 	0.27374 0.95621 0.10630 0.04400
H 	H 	0.25229 0.03626 0.20001 0.04800
H 	H 	0.25180 0.05218 0.26950 0.04400
H 	H 	0.35214 0.03934 0.27191 0.04300
H 	H 	0.35236 0.02277 0.20255 0.04600
C 	C 	0.15489 0.15880 0.42191 -0.03700
C 	C 	0.16298 0.13156 0.43675 0.02300
C 	C 	0.13971 0.11545 0.45626 -0.05600
C 	C 	0.10798 0.12269 0.45237 0.02200
C 	C 	0.09982 0.14563 0.42782 -0.06700
C 	C 	0.12314 0.16599 0.41806 0.00900
C 	C 	0.19155 0.11624 0.42140 0.01300
C 	C 	0.21997 0.11940 0.44084 -0.04400
C 	C 	0.24735 0.10564 0.42573 -0.00300
C 	C 	0.24602 0.08768 0.39143 -0.01900
C 	C 	0.21738 0.08437 0.37240 -0.01900
C 	C 	0.19046 0.09898 0.38666 -0.02600
C 	C 	0.27680 0.11105 0.44462 0.08600
C 	C 	0.16194 0.09696 0.36474 0.09100
C 	C 	0.17891 0.17812 0.40729 0.09200
C 	C 	0.08421 0.10675 0.47365 0.08900
N 	N 	0.30038 0.11540 0.45977 -0.10900
N 	N 	0.13911 0.09547 0.34719 -0.10800
N 	N 	0.06517 0.09395 0.49076 -0.10200
N 	N 	0.19818 0.19359 0.39557 -0.11300
H 	H 	0.11682 0.18558 0.40308 0.04800
H 	H 	0.14609 0.09585 0.47116 0.05600
H 	H 	0.22091 0.13303 0.46725 0.05300
H 	H 	0.21615 0.07058 0.34617 0.04800
C 	C 	0.18570 0.97410 0.76183 -0.03500
C 	C 	0.18792 0.94360 0.76461 0.02500
C 	C 	0.16429 0.92595 0.74885 -0.05600
C 	C 	0.13658 0.93854 0.73575 0.02300
C 	C 	0.13199 0.96897 0.74025 -0.06500
C 	C 	0.15799 0.98662 0.74889 0.00500
C 	C 	0.21128 0.93060 0.79035 0.01400
C 	C 	0.20232 0.92453 0.82906 -0.04400
C 	C 	0.22486 0.91696 0.85605 -0.00100
C 	C 	0.25689 0.91565 0.84435 -0.01900
C 	C 	0.26559 0.91966 0.80493 -0.01900
C 	C 	0.24291 0.92700 0.77784 -0.02600
C 	C 	0.21492 0.91034 0.89558 0.08800
C 	C 	0.25232 0.93128 0.73748 0.08800
C 	C 	0.21102 0.99273 0.77440 0.09300
C 	C 	0.11382 0.92034 0.71635 0.09000
N 	N 	0.20696 0.90505 0.92725 -0.10900
N 	N 	0.25985 0.93472 0.70514 -0.11300
N 	N 	0.09560 0.90572 0.70078 -0.10300
N 	N 	0.23132 0.00763 0.78448 -0.11100
H 	H 	0.15576 0.01014 0.74866 0.05300
H 	H 	0.16687 0.90244 0.74844 0.05700
H 	H 	0.17784 0.92655 0.83842 0.06100
H 	H 	0.29009 0.91794 0.79563 0.04800
C 	C 	0.76794 0.38601 0.64780 -0.02000
C 	C 	0.76268 0.41306 0.63081 -0.01700
C 	C 	0.75680 0.41446 0.59081 -0.04700
C 	C 	0.75598 0.38885 0.56748 0.01600
C 	C 	0.75948 0.36175 0.58481 -0.04700
C 	C 	0.76547 0.36031 0.62473 -0.01700
C 	C 	0.75454 0.39049 0.52451 0.00600
C 	C 	0.72738 0.40085 0.50709 -0.03800
C 	C 	0.72602 0.40193 0.46624 -0.03800
C 	C 	0.75182 0.39265 0.44262 0.00600
C 	C 	0.77906 0.38259 0.46014 -0.03700
C 	C 	0.78041 0.38150 0.50087 -0.03700
C 	C 	0.75046 0.39343 0.39955 0.01600
C 	C 	0.74919 0.42021 0.38090 -0.04700
C 	C 	0.75306 0.42125 0.34016 -0.01700
C 	C 	0.75853 0.39550 0.31773 -0.02000
C 	C 	0.75773 0.36855 0.33631 -0.01700
C 	C 	0.75367 0.36756 0.37698 -0.04700
H 	H 	0.76384 0.43303 0.64838 0.04300
H 	H 	0.75387 0.43547 0.57772 0.04500
H 	H 	0.75855 0.34185 0.56708 0.04700
H 	H 	0.76932 0.33927 0.63736 0.04500
H 	H 	0.70730 0.40786 0.52513 0.04300
H 	H 	0.70490 0.40977 0.45298 0.04300
H 	H 	0.79920 0.37566 0.44215 0.04400
H 	H 	0.80157 0.37370 0.51409 0.04400
H 	H 	0.74634 0.44029 0.39807 0.04500
H 	H 	0.75272 0.44214 0.32621 0.04300
H 	H 	0.76157 0.34844 0.31950 0.04500
H 	H 	0.75419 0.34674 0.39110 0.04700
C 	C 	0.97475 0.05662 0.75362 -0.08200
C 	C 	0.94904 0.03951 0.74231 -0.00800
C 	C 	0.91842 0.05074 0.74564 0.00300
C 	C 	0.91331 0.07904 0.76210 -0.07800
C 	C 	0.93930 0.09731 0.76799 -0.01000
C 	C 	0.96992 0.08629 0.76375 -0.01100
H 	H 	0.95274 0.01714 0.73216 0.05300
H 	H 	0.93564 0.11980 0.77768 0.04900
C 	C 	0.99622 0.10559 0.76969 0.06700
C 	C 	0.89301 0.03389 0.72954 0.02400
N 	N 	0.01728 0.12106 0.77445 -0.11600
N 	N 	0.87283 0.02028 0.71633 -0.16600
C 	C 	0.76531 0.22587 0.81619 -0.03700
C 	C 	0.79058 0.24561 0.81753 0.02400
C 	C 	0.81950 0.23657 0.83169 -0.05700
C 	C 	0.82435 0.20736 0.84070 0.02400
C 	C 	0.79982 0.18700 0.83598 -0.06700
C 	C 	0.77007 0.19668 0.82532 0.01100
C 	C 	0.78849 0.27411 0.79859 0.01200
C 	C 	0.77977 0.29901 0.82102 -0.04400
C 	C 	0.77843 0.32626 0.80361 -0.00300
C 	C 	0.78624 0.32869 0.76337 -0.01900
C 	C 	0.79446 0.30364 0.74091 -0.01900
C 	C 	0.79563 0.27646 0.75825 -0.02600
C 	C 	0.76825 0.35142 0.82697 0.08500
C 	C 	0.80439 0.25103 0.73453 0.08900
C 	C 	0.73476 0.23518 0.80403 0.09500
C 	C 	0.85505 0.19821 0.85259 0.08100
N 	N 	0.76009 0.37157 0.84568 -0.11000
N 	N 	0.81140 0.23065 0.71558 -0.10900
N 	N 	0.87965 0.19089 0.86210 -0.10800
N 	N 	0.71029 0.24267 0.79428 -0.11100
H 	H 	0.75097 0.18122 0.82256 0.04700
H 	H 	0.83876 0.25194 0.83356 0.05500
H 	H 	0.77397 0.29714 0.85196 0.05200
H 	H 	0.80046 0.30542 0.70999 0.04700
C 	C 	0.91479 0.16701 0.24196 -0.09600
C 	C 	0.91122 0.17109 0.28270 -0.05000
C 	C 	0.93724 0.16956 0.30683 -0.00100
C 	C 	0.96746 0.16379 0.28995 -0.10300
C 	C 	0.97137 0.16318 0.24899 -0.04000
C 	C 	0.94532 0.16389 0.22495 -0.00300
H 	H 	0.88794 0.17449 0.29576 0.02000
H 	H 	0.99469 0.16046 0.23578 -0.02200
C 	C 	0.95015 0.15971 0.18313 0.06100
C 	C 	0.93258 0.17452 0.34852 0.07500
N 	N 	0.95410 0.15633 0.14965 -0.11300
N 	N 	0.92872 0.17854 0.38191 -0.10200
C 	C 	0.81251 0.24876 0.11689 -0.03700
C 	C 	0.78511 0.26042 0.13541 0.02400
C 	C 	0.76008 0.24176 0.14439 -0.05600
C 	C 	0.76451 0.21152 0.14219 0.02400
C 	C 	0.79424 0.20000 0.13105 -0.06600
C 	C 	0.81697 0.21850 0.11475 0.01000
C 	C 	0.78570 0.28976 0.15446 0.01300
C 	C 	0.77116 0.31326 0.13676 -0.04400
C 	C 	0.76949 0.34063 0.15605 -0.00300
C 	C 	0.78240 0.34448 0.19348 -0.02000
C 	C 	0.79750 0.32112 0.21068 -0.01900
C 	C 	0.79918 0.29386 0.19149 -0.02600
C 	C 	0.75383 0.36439 0.13772 0.08500
C 	C 	0.81437 0.26999 0.21023 0.09000
C 	C 	0.83704 0.26773 0.10275 0.09500
C 	C 	0.73904 0.19251 0.15335 0.08200
N 	N 	0.74129 0.38344 0.12304 -0.10900
N 	N 	0.82652 0.25085 0.22517 -0.10900
N 	N 	0.71862 0.17727 0.16230 -0.10400
N 	N 	0.85670 0.28296 0.09145 -0.11200
H 	H 	0.83926 0.20960 0.10387 0.05100
H 	H 	0.73817 0.25074 0.15636 0.05600
H 	H 	0.76081 0.31012 0.10828 0.05300
H 	H 	0.80771 0.32414 0.23928 0.04600
C 	C 	0.50767 0.85586 0.49020 -0.01900
C 	C 	0.48632 0.85612 0.45955 -0.01600
C 	C 	0.46158 0.87614 0.46055 -0.04700
C 	C 	0.45772 0.89601 0.49231 0.01700
C 	C 	0.47781 0.89454 0.52413 -0.04600
C 	C 	0.50271 0.87458 0.52306 -0.01600
C 	C 	0.43485 0.92013 0.49021 0.00600
C 	C 	0.40335 0.91416 0.48191 -0.03700
C 	C 	0.38339 0.93659 0.47112 -0.03700
C 	C 	0.39464 0.96524 0.46904 0.00700
C 	C 	0.42527 0.97157 0.48081 -0.03700
C 	C 	0.44536 0.94910 0.49110 -0.03600
C 	C 	0.37604 0.98758 0.44963 0.01400
C 	C 	0.34531 0.99421 0.46299 -0.04700
C 	C 	0.32643 0.01267 0.44168 -0.01500
C 	C 	0.33817 0.02470 0.40685 -0.01800
C 	C 	0.36942 0.01917 0.39464 -0.01700
C 	C 	0.38817 0.00061 0.41578 -0.04300
H 	H 	0.48976 0.84179 0.43405 0.04200
H 	H 	0.44621 0.87705 0.43585 0.04500
H 	H 	0.47471 0.90943 0.54910 0.04700
H 	H 	0.51863 0.87423 0.54725 0.04500
H 	H 	0.39480 0.89196 0.48195 0.04200
H 	H 	0.35968 0.93147 0.46252 0.04300
H 	H 	0.43398 0.99371 0.48013 0.04400
H 	H 	0.46952 0.95403 0.49783 0.04500
H 	H 	0.33583 0.98451 0.48931 0.04700
H 	H 	0.30242 0.01683 0.45156 0.04700
H 	H 	0.37897 0.02877 0.36828 0.04400
H 	H 	0.41186 0.99568 0.40522 0.04400
C 	C 	0.52460 0.70811 0.99092 -0.02700
C 	C 	0.52244 0.70298 0.95033 -0.01300
C 	C 	0.49691 0.71390 0.93032 -0.04900
C 	C 	0.47348 0.73024 0.95067 0.02000
C 	C 	0.47455 0.73355 0.99161 -0.05500
C 	C 	0.49988 0.72242 0.01164 -0.00800
C 	C 	0.45017 0.74687 0.92897 0.00500
C 	C 	0.46038 0.76721 0.90146 -0.03600
C 	C 	0.43933 0.78762 0.88755 -0.03800
C 	C 	0.40801 0.78819 0.90149 0.00600
C 	C 	0.39721 0.76627 0.92632 -0.03800
C 	C 	0.41816 0.74556 0.93975 -0.03700
C 	C 	0.38810 0.81390 0.89504 0.01600
C 	C 	0.35802 0.81049 0.87972 -0.04700
C 	C 	0.33769 0.83442 0.87849 -0.01700
C 	C 	0.34734 0.86195 0.89251 -0.02000
C 	C 	0.37801 0.86558 0.90587 -0.01700
C 	C 	0.39820 0.84168 0.90732 -0.04700
H 	H 	0.54104 0.69143 0.93411 0.04700
H 	H 	0.49598 0.71066 0.89883 0.04700
H 	H 	0.45656 0.74600 0.00769 0.04800
H 	H 	0.50111 0.72636 0.04298 0.04000
H 	H 	0.48494 0.76824 0.89252 0.04400
H 	H 	0.44774 0.80400 0.86763 0.04400
H 	H 	0.37299 0.76623 0.93687 0.04300
H 	H 	0.40986 0.72948 0.96017 0.04200
H 	H 	0.35010 0.78921 0.86976 0.04600
H 	H 	0.31413 0.83133 0.86796 0.04600
H 	H 	0.38594 0.88680 0.91608 0.04200
H 	H 	0.42137 0.84459 0.91915 0.04600
C 	C 	0.56548 0.77777 0.42074 -0.02000
C 	C 	0.54092 0.77567 0.39407 -0.01700
C 	C 	0.54387 0.75735 0.36081 -0.04700
C 	C 	0.57131 0.74087 0.35382 0.01600
C 	C 	0.59493 0.74141 0.38169 -0.04700
C 	C 	0.59198 0.75967 0.41509 -0.01700
C 	C 	0.57675 0.72584 0.31544 0.00600
C 	C 	0.55593 0.70416 0.30256 -0.03800
C 	C 	0.55773 0.69361 0.26373 -0.03800
C 	C 	0.58032 0.70472 0.23746 0.00600
C 	C 	0.60233 0.72509 0.25102 -0.03700
C 	C 	0.60057 0.73558 0.28982 -0.03700
C 	C 	0.57857 0.69783 0.19506 0.01600
C 	C 	0.55177 0.70565 0.17475 -0.04700
C 	C 	0.55175 0.70336 0.13388 -0.01700
C 	C 	0.57862 0.69328 0.11279 -0.02000
C 	C 	0.60479 0.68388 0.13328 -0.01700
C 	C 	0.60477 0.68618 0.17423 -0.04700
H 	H 	0.52016 0.78920 0.39810 0.04200
H 	H 	0.52541 0.75694 0.33959 0.04500
H 	H 	0.61599 0.72839 0.37686 0.04600
H 	H 	0.61072 0.76038 0.43592 0.04500
H 	H 	0.53769 0.69625 0.32224 0.04200
H 	H 	0.54088 0.67760 0.25371 0.04200
H 	H 	0.61992 0.73376 0.23104 0.04400
H 	H 	0.61682 0.75225 0.29950 0.04400
H 	H 	0.53140 0.71462 0.19055 0.04500
H 	H 	0.53132 0.71061 0.11859 0.04200
H 	H 	0.62542 0.67546 0.11749 0.04500
H 	H 	0.62542 0.67969 0.18968 0.04600
C 	C 	0.77172 0.01837 0.28758 -0.08100
C 	C 	0.77738 0.04574 0.30536 -0.00900
C 	C 	0.78665 0.06915 0.28248 -0.00100
C 	C 	0.78947 0.06539 0.24146 -0.08500
C 	C 	0.77820 0.03979 0.22353 -0.00800
C 	C 	0.76882 0.01637 0.24648 -0.01900
H 	H 	0.77709 0.04821 0.33704 0.05000
H 	H 	0.77857 0.03745 0.19182 0.04600
C 	C 	0.75636 0.99044 0.22775 0.04900
C 	C 	0.79473 0.09657 0.30137 0.02500
N 	N 	0.74639 0.96967 0.21273 -0.11800
N 	N 	0.80124 0.11853 0.31647 -0.14300
C 	C 	0.89555 0.02208 0.32625 -0.08500
C 	C 	0.90137 0.04439 0.35397 -0.03000
C 	C 	0.92893 0.06108 0.35119 -0.01500
C 	C 	0.95213 0.05404 0.32181 -0.09000
C 	C 	0.94644 0.03111 0.29477 -0.03500
C 	C 	0.91802 0.01590 0.29603 -0.01800
H 	H 	0.88379 0.04967 0.37667 0.04100
H 	H 	0.96384 0.02554 0.27200 -0.01400
C 	C 	0.91152 0.99487 0.26512 0.00500
C 	C 	0.93215 0.08631 0.37700 0.05900
N 	N 	0.90616 0.97816 0.24025 -0.18000
N 	N 	0.93467 0.10650 0.39770 -0.10700
C 	C 	0.72347 0.91817 0.49087 -0.04000
C 	C 	0.71464 0.88895 0.48368 0.02600
C 	C 	0.73534 0.87019 0.46256 -0.05600
C 	C 	0.76238 0.88122 0.44418 0.02400
C 	C 	0.76837 0.91142 0.44601 -0.06900
C 	C 	0.75021 0.92935 0.47178 0.00900
C 	C 	0.68172 0.87953 0.49086 0.01200
C 	C 	0.65793 0.89134 0.46847 -0.04300
C 	C 	0.62799 0.87889 0.46848 -0.00300
C 	C 	0.62165 0.85418 0.49097 -0.01900
C 	C 	0.64480 0.84344 0.51522 -0.02000
C 	C 	0.67470 0.85620 0.51562 -0.02700
C 	C 	0.60428 0.89082 0.44401 0.08500
C 	C 	0.69805 0.84520 0.54132 0.08700
C 	C 	0.70464 0.93700 0.51669 0.09300
C 	C 	0.78351 0.86155 0.42273 0.08400
N 	N 	0.58526 0.90036 0.42443 -0.11100
N 	N 	0.71677 0.83639 0.56190 -0.11100
N 	N 	0.80044 0.84580 0.40554 -0.10400
N 	N 	0.68952 0.95207 0.53738 -0.11200
H 	H 	0.75565 0.95235 0.47493 0.04700
H 	H 	0.72938 0.84737 0.45845 0.05600
H 	H 	0.66318 0.90947 0.44969 0.05300
H 	H 	0.63976 0.82479 0.53313 0.04600
C 	C 	0.89349 0.93679 0.86466 -0.05900
C 	C 	0.92350 0.92645 0.87327 -0.00100
C 	C 	0.95041 0.93780 0.85434 0.00600
C 	C 	0.94735 0.96068 0.82796 -0.06400
C 	C 	0.91723 0.96896 0.81673 -0.00900
C 	C 	0.89039 0.95675 0.83441 -0.00400
H 	H 	0.92594 0.91014 0.89528 0.05000
H 	H 	0.91466 0.98569 0.79522 0.03100
C 	C 	0.85987 0.96420 0.82053 0.03500
C 	C 	0.98109 0.92674 0.86325 0.09400
N 	N 	0.83546 0.97011 0.80905 -0.18600
N 	N 	0.00582 0.91804 0.87006 -0.10200
C 	C 	0.76511 0.97251 0.86742 -0.09600
C 	C 	0.76620 0.97903 0.82750 -0.01300
C 	C 	0.76724 0.00812 0.81610 -0.02000
C 	C 	0.76688 0.03076 0.84495 -0.10100
C 	C 	0.75959 0.02411 0.88401 -0.00800
C 	C 	0.75857 0.99511 0.89539 -0.01800
H 	H 	0.76816 0.96159 0.80548 0.05000
H 	H 	0.75622 0.04149 0.90589 0.05400
C 	C 	0.74986 0.98872 0.93540 0.03000
C 	C 	0.76833 0.01453 0.77493 0.01200
N 	N 	0.74291 0.98364 0.96747 -0.12300
N 	N 	0.76922 0.01965 0.74194 -0.12400
C 	C 	0.69196 0.79867 0.91594 -0.03800
C 	C 	0.70499 0.77548 0.93632 0.02300
C 	C 	0.73758 0.77405 0.94070 -0.05600
C 	C 	0.75680 0.79707 0.92873 0.02400
C 	C 	0.74329 0.82162 0.91164 -0.06700
C 	C 	0.71117 0.82158 0.90370 0.01000
C 	C 	0.68436 0.75532 0.95821 0.01400
C 	C 	0.67140 0.73111 0.93869 -0.04600
C 	C 	0.64817 0.71441 0.95729 -0.00000
C 	C 	0.63763 0.72213 0.99578 -0.02600
C 	C 	0.65237 0.74502 0.01621 -0.01200
C 	C 	0.67554 0.76166 0.99763 -0.03300
C 	C 	0.63552 0.68928 0.93687 0.08200
C 	C 	0.68942 0.78588 0.01877 0.09200
C 	C 	0.65866 0.79975 0.90907 0.09300
C 	C 	0.79001 0.79607 0.93615 0.08100
N 	N 	0.62536 0.66914 0.92051 -0.11200
N 	N 	0.70055 0.80530 0.03565 -0.11100
N 	N 	0.81662 0.79527 0.94212 -0.10300
N 	N 	0.63198 0.80059 0.90360 -0.11400
H 	H 	0.70085 0.84011 0.88974 0.04600
H 	H 	0.74772 0.75583 0.95552 0.05500
H 	H 	0.67876 0.72578 0.90868 0.05200
H 	H 	0.64474 0.75074 0.04601 0.04700
C 	C 	0.00314 0.62064 0.23278 -0.02100
C 	C 	0.00873 0.59251 0.24618 -0.01900
C 	C 	0.98720 0.57018 0.23897 -0.04600
C 	C 	0.95987 0.57576 0.21835 0.01600
C 	C 	0.95495 0.60350 0.20346 -0.04700
C 	C 	0.97648 0.62584 0.21060 -0.01500
C 	C 	0.93523 0.55335 0.21530 0.00600
C 	C 	0.92651 0.54223 0.17847 -0.03800
C 	C 	0.90267 0.52140 0.17572 -0.03700
C 	C 	0.88736 0.51162 0.20978 0.00600
C 	C 	0.89614 0.52273 0.24657 -0.03800
C 	C 	0.91991 0.54353 0.24931 -0.03800
C 	C 	0.86260 0.48930 0.20716 0.01600
C 	C 	0.87018 0.46087 0.19401 -0.04700
C 	C 	0.84814 0.43852 0.19781 -0.01700
C 	C 	0.81837 0.44443 0.21497 -0.01900
C 	C 	0.81013 0.47325 0.22562 -0.01700
C 	C 	0.83214 0.49558 0.22170 -0.04700
H 	H 	0.02946 0.58807 0.26272 0.04200
H 	H 	0.99138 0.54872 0.25018 0.04500
H 	H 	0.93394 0.60800 0.18746 0.04700
H 	H 	0.97186 0.64742 0.20008 0.04600
H 	H 	0.93821 0.54969 0.15205 0.04400
H 	H 	0.89608 0.51291 0.14719 0.04400
H 	H 	0.88460 0.51515 0.27303 0.04300
H 	H 	0.92634 0.55213 0.27785 0.04300
H 	H 	0.89356 0.45585 0.18245 0.04700
H 	H 	0.85476 0.41641 0.18927 0.04600
H 	H 	0.78703 0.47818 0.23819 0.04200
H 	H 	0.82590 0.51758 0.23129 0.04600
C 	C 	0.01097 0.60438 0.75712 -0.02000
C 	C 	0.99884 0.58823 0.72537 -0.01400
C 	C 	0.97990 0.56399 0.73199 -0.04800
C 	C 	0.97289 0.55549 0.77035 0.01600
C 	C 	0.98579 0.57092 0.80208 -0.04500
C 	C 	0.00482 0.59521 0.79552 -0.01700
C 	C 	0.95060 0.53148 0.77717 0.00600
C 	C 	0.92151 0.53717 0.79619 -0.03700
C 	C 	0.89820 0.51576 0.79668 -0.03700
C 	C 	0.90374 0.48856 0.77794 0.00600
C 	C 	0.93345 0.48234 0.76091 -0.03700
C 	C 	0.95681 0.50367 0.76067 -0.03800
C 	C 	0.87767 0.46776 0.77272 0.01600
C 	C 	0.85109 0.47592 0.75219 -0.04700
C 	C 	0.82821 0.45529 0.74283 -0.01700
C 	C 	0.83180 0.42619 0.75358 -0.01900
C 	C 	0.85770 0.41836 0.77574 -0.01700
C 	C 	0.88048 0.43908 0.78531 -0.04700
H 	H 	0.00326 0.59495 0.69559 0.04300
H 	H 	0.96999 0.55224 0.70732 0.04600
H 	H 	0.98074 0.56434 0.83179 0.04700
H 	H 	0.01441 0.60708 0.82029 0.04700
H 	H 	0.91653 0.55852 0.80921 0.04500
H 	H 	0.87550 0.52064 0.81041 0.04400
H 	H 	0.93804 0.46137 0.74655 0.04300
H 	H 	0.97933 0.49896 0.74633 0.04300
H 	H 	0.84863 0.49804 0.74247 0.04600
H 	H 	0.80803 0.46180 0.72648 0.04300
H 	H 	0.86075 0.39606 0.78443 0.04600
H 	H 	0.90073 0.43265 0.80157 0.04600
C 	C 	0.06205 0.67003 0.66489 -0.02000
C 	C 	0.07584 0.64780 0.64103 -0.01800
C 	C 	0.08048 0.65170 0.60085 -0.04700
C 	C 	0.07172 0.67796 0.58412 0.01600
C 	C 	0.05993 0.70089 0.60834 -0.04700
C 	C 	0.05505 0.69694 0.64852 -0.01700
C 	C 	0.07210 0.68041 0.54103 0.00600
C 	C 	0.09997 0.67532 0.51893 -0.03800
C 	C 	0.09961 0.67500 0.47795 -0.03800
C 	C 	0.07145 0.67996 0.45878 0.00600
C 	C 	0.04378 0.68578 0.48086 -0.03700
C 	C 	0.04407 0.68593 0.52177 -0.03700
C 	C 	0.07057 0.67798 0.41565 0.01500
C 	C 	0.07343 0.65080 0.39608 -0.04700
C 	C 	0.06872 0.64834 0.35574 -0.01800
C 	C 	0.06111 0.67308 0.33460 -0.01800
C 	C 	0.05973 0.70049 0.35398 -0.01700
C 	C 	0.06435 0.70289 0.39432 -0.04600
H 	H 	0.08203 0.62717 0.65339 0.04300
H 	H 	0.08983 0.63392 0.58250 0.04400
H 	H 	0.05358 0.72143 0.59583 0.04700
H 	H 	0.04462 0.71437 0.66655 0.04600
H 	H 	0.12176 0.67121 0.53348 0.04200
H 	H 	0.12112 0.67063 0.46113 0.04300
H 	H 	0.02193 0.68961 0.46629 0.04400
H 	H 	0.02239 0.68968 0.53849 0.04300
H 	H 	0.07841 0.63146 0.41229 0.04500
H 	H 	0.07040 0.62714 0.34109 0.04200
H 	H 	0.05405 0.71980 0.33809 0.05100
H 	H 	0.06232 0.72400 0.40916 0.04800
C 	C 	0.91248 0.99102 0.95135 -0.06000
C 	C 	0.88187 0.00056 0.96095 -0.04400
C 	C 	0.86649 0.02003 0.93680 -0.03000
C 	C 	0.88216 0.03032 0.90302 -0.06500
C 	C 	0.91384 0.02319 0.89606 -0.02100
C 	C 	0.92894 0.00359 0.91986 0.00300
H 	H 	0.86996 0.99267 0.98681 -0.00900
H 	H 	0.92647 0.03223 0.87125 0.01400
C 	C 	0.96114 0.99617 0.91124 0.02800
C 	C 	0.83513 0.02985 0.94750 -0.01200
N 	N 	0.98694 0.99017 0.90365 -0.15300
N 	N 	0.81003 0.03776 0.95624 -0.12700
C 	C 	0.90341 0.89962 0.06059 -0.11700
C 	C 	0.89053 0.92754 0.05680 0.00900
C 	C 	0.86033 0.93005 0.04164 -0.01600
C 	C 	0.84443 0.90453 0.03003 -0.06300
C 	C 	0.85286 0.87838 0.04737 -0.01300
C 	C 	0.88190 0.87667 0.06559 0.02800
H 	H 	0.90488 0.94672 0.06127 -0.05500
H 	H 	0.83869 0.85901 0.04318 0.05600
C 	C 	0.89197 0.84950 0.08137 0.08800
C 	C 	0.84421 0.95767 0.04353 0.03300
N 	N 	0.90006 0.82770 0.09403 -0.10200
N 	N 	0.83105 0.97976 0.04536 -0.14400
C 	C 	0.03976 0.97927 0.97977 -0.07100
C 	C 	0.06846 0.96742 0.96597 -0.01000
C 	C 	0.08078 0.97618 0.92963 0.02000
C 	C 	0.06480 0.99785 0.90923 -0.09400
C 	C 	0.04445 0.01656 0.93117 0.00400
C 	C 	0.03252 0.00751 0.96771 -0.00500
H 	H 	0.07791 0.94835 0.97953 0.04900
H 	H 	0.03527 0.03600 0.91826 -0.04500
C 	C 	0.00883 0.02468 0.98868 0.04700
C 	C 	0.10942 0.96317 0.91373 0.09000
N 	N 	0.98980 0.03844 0.00550 -0.12200
N 	N 	0.13239 0.95274 0.90100 -0.10600
C 	C 	0.02888 0.78690 0.90969 -0.03800
C 	C 	0.01941 0.78187 0.87088 0.02600
C 	C 	0.00162 0.80291 0.85257 -0.06000
C 	C 	0.99229 0.82855 0.87273 0.02700
C 	C 	0.00196 0.83395 0.91180 -0.06700
C 	C 	0.02047 0.81296 0.92974 0.00900
C 	C 	0.02608 0.75377 0.84982 0.01200
C 	C 	0.00169 0.73359 0.84538 -0.04600
C 	C 	0.00526 0.70956 0.81949 -0.00500
C 	C 	0.03416 0.70487 0.79881 -0.01900
C 	C 	0.05908 0.72434 0.80478 -0.02000
C 	C 	0.05511 0.74885 0.82985 -0.02500
C 	C 	0.97857 0.69088 0.81265 0.08700
C 	C 	0.08069 0.76918 0.83429 0.09000
C 	C 	0.04696 0.76533 0.92930 0.09600
C 	C 	0.97191 0.84840 0.85335 0.09200
N 	N 	0.95719 0.67593 0.80720 -0.11100
N 	N 	0.10118 0.78547 0.83788 -0.10900
N 	N 	0.95546 0.86398 0.83744 -0.10300
N 	N 	0.06145 0.74803 0.94500 -0.11000
H 	H 	0.02793 0.81669 0.95958 0.05300
H 	H 	0.99428 0.79890 0.82271 0.05900
H 	H 	0.97936 0.73740 0.86073 0.05400
H 	H 	0.08142 0.72067 0.78937 0.04900
C 	C 	0.92228 0.06148 0.16628 -0.06800
C 	C 	0.95380 0.06863 0.15901 -0.03100
C 	C 	0.97684 0.04684 0.15680 -0.00100
C 	C 	0.96829 0.01749 0.16184 -0.10300
C 	C 	0.93635 0.01004 0.16291 -0.02700
C 	C 	0.91326 0.03195 0.16590 -0.01000
H 	H 	0.96063 0.09133 0.15750 0.02400
H 	H 	0.92956 0.98734 0.16435 0.00900
C 	C 	0.88063 0.02398 0.17088 0.05500
C 	C 	0.00907 0.05486 0.14910 0.03200
N 	N 	0.85449 0.01761 0.17495 -0.15000
N 	N 	0.03476 0.06174 0.14274 -0.12800
C 	C 	0.94565 0.91721 0.24452 -0.09900
C 	C 	0.94964 0.92617 0.28376 -0.01500
C 	C 	0.92386 0.92852 0.30992 -0.00100
C 	C 	0.89380 0.91971 0.29772 -0.09500
C 	C 	0.89017 0.90859 0.25947 -0.03700
C 	C 	0.91557 0.90790 0.23252 0.00900
H 	H 	0.97269 0.93264 0.29354 -0.03200
H 	H 	0.86713 0.90171 0.25010 0.01400
C 	C 	0.90998 0.89910 0.19239 0.06500
C 	C 	0.92811 0.94228 0.34798 0.06400
N 	N 	0.90537 0.89207 0.16027 -0.11400
N 	N 	0.93156 0.95337 0.37840 -0.11000
C 	C 	0.08911 0.99799 0.22772 -0.08600
C 	C 	0.09778 0.99905 0.26702 -0.03000
C 	C 	0.09675 0.02549 0.28838 0.00000
C 	C 	0.08586 0.05085 0.27038 -0.08700
C 	C 	0.08379 0.05061 0.22932 -0.02200
C 	C 	0.08698 0.02427 0.20775 0.00200
H 	H 	0.10295 0.97901 0.28168 0.03800
H 	H 	0.07912 0.07061 0.21436 0.01200
C 	C 	0.09116 0.02456 0.16572 0.09000
C 	C 	0.10794 0.02653 0.32794 0.08400
N 	N 	0.09468 0.02470 0.13201 -0.10800
N 	N 	0.11693 0.02729 0.35963 -0.10800
C 	C 	0.08314 0.80820 0.13640 -0.03800
C 	C 	0.05467 0.79258 0.13657 0.02700
C 	C 	0.02748 0.80612 0.12352 -0.05700
C 	C 	0.02705 0.83628 0.11840 0.02400
C 	C 	0.05429 0.85281 0.12566 -0.07200
C 	C 	0.08286 0.83823 0.13025 0.01100
C 	C 	0.05133 0.76603 0.15997 0.01200
C 	C 	0.03853 0.76860 0.19816 -0.04400
C 	C 	0.03588 0.74421 0.22157 -0.00300
C 	C 	0.04712 0.71690 0.20720 -0.01900
C 	C 	0.05938 0.71416 0.16867 -0.01900
C 	C 	0.06127 0.73854 0.14488 -0.02500
C 	C 	0.02035 0.74714 0.25963 0.08300
C 	C 	0.07325 0.73515 0.10504 0.09000
C 	C 	0.11224 0.79405 0.14551 0.09500
C 	C 	0.99784 0.85041 0.10970 0.08600
N 	N 	0.00787 0.74951 0.29008 -0.11300
N 	N 	0.08284 0.73246 0.07313 -0.10800
N 	N 	0.97440 0.86170 0.10283 -0.10600
N 	N 	0.13555 0.78268 0.15282 -0.11300
H 	H 	0.10431 0.85070 0.13337 0.04100
H 	H 	0.00590 0.79373 0.12131 0.05900
H 	H 	0.03047 0.78969 0.20957 0.05400
H 	H 	0.06748 0.69309 0.15728 0.04900
