data_crystal

_cell_length_a 16.56197
_cell_length_b 16.78430
_cell_length_c 76.00629
_cell_angle_alpha 90.05566
_cell_angle_beta  89.95900
_cell_angle_gamma 119.80087

_symmetry_space_group_name_	'P 1'
_symmetry_space_group_name_H-M	'P 1'

loop_
_symmetry_equiv_pos_as_xyz
  x,y,z

loop_
_atom_site_label
_atom_site_type_symbol
_atom_site_fract_x
_atom_site_fract_y
_atom_site_fract_z
_atom_site_charge
C 	C 	0.99895 0.14875 0.00423 0.38500
C 	C 	0.13297 0.02133 0.00887 0.32800
Ni	Ni	0.92617 0.95331 0.00221 1.13200
O 	O 	0.92354 0.07013 0.00199 -0.36600
O 	O 	0.05093 0.00573 0.01538 -0.33700
C 	C 	0.68430 0.59065 0.01983 -0.07900
C 	C 	0.72790 0.53856 0.02237 -0.11400
C 	C 	0.79644 0.54675 0.01045 0.34800
C 	C 	0.71780 0.65996 0.00722 0.34200
F 	F 	0.68826 0.72202 0.00776 -0.43800
F 	F 	0.83628 0.49342 0.01225 -0.42700
C 	C 	0.28729 0.03341 0.01424 -0.09400
C 	C 	0.20695 0.03089 0.02112 -0.10300
F 	F 	0.45021 0.08768 0.01593 -0.41100
H 	H 	0.28635 0.00799 0.00110 0.14300
C 	C 	0.99347 0.21660 0.01545 -0.12800
C 	C 	0.96123 0.27194 0.00791 0.36300
C 	C 	0.90034 0.29126 0.01734 -0.08200
H 	H 	0.87051 0.32852 0.01102 0.14300
C 	C 	0.70800 0.48317 0.03841 0.33600
H 	H 	0.63018 0.58356 0.02879 0.10400
C 	C 	0.37134 0.07709 0.02356 0.35200
C 	C 	0.98057 0.19818 0.03358 -0.06200
C 	C 	0.87416 0.25807 0.03456 -0.10300
C 	C 	0.46462 0.18182 0.04824 0.33600
C 	C 	0.80571 0.27346 0.04408 0.33800
O 	O 	0.61955 0.43216 0.04325 -0.36100
O 	O 	0.77698 0.50535 0.04989 -0.34900
O 	O 	0.81562 0.35650 0.04361 -0.35700
O 	O 	0.72947 0.20110 0.05077 -0.33200
O 	O 	0.53628 0.16670 0.04747 -0.33600
H 	H 	0.66060 0.32091 0.05019 0.16800
C 	C 	0.20790 0.05800 0.03866 0.33400
C 	C 	0.29128 0.09966 0.04811 -0.08700
C 	C 	0.37469 0.11511 0.04018 -0.12400
F 	F 	0.12972 0.04956 0.04621 -0.43900
C 	C 	0.91870 0.21616 0.04300 0.33600
H 	H 	0.00925 0.15963 0.03981 0.09500
Ni	Ni	0.58159 0.36764 0.06755 1.11500
Ni	Ni	0.63085 0.20149 0.06723 1.12600
Ni	Ni	0.79476 0.41347 0.06488 1.12600
O 	O 	0.46619 0.24767 0.05824 -0.37500
O 	O 	0.66604 0.32645 0.06309 -0.72300
H 	H 	0.29211 0.12526 0.06124 0.09000
F 	F 	0.90042 0.19090 0.06015 -0.43600
O 	O 	0.70500 0.21484 0.08900 -0.37500
O 	O 	0.52060 0.16659 0.08376 -0.38000
O 	O 	0.67123 0.49643 0.07808 -0.37600
O 	O 	0.78877 0.47435 0.08755 -0.38700
O 	O 	0.83790 0.34275 0.07998 -0.36900
H 	H 	0.34545 0.06257 0.08408 0.09300
C 	C 	0.51363 0.22285 0.09499 0.31000
C 	C 	0.73305 0.50791 0.08999 0.31500
C 	C 	0.78628 0.28674 0.09260 0.31000
O 	O 	0.55975 0.31165 0.09239 -0.39800
H 	H 	0.93752 0.26975 0.09894 0.08100
C 	C 	0.35010 0.03001 0.09643 -0.20200
H 	H 	0.28104 0.96780 0.09844 0.07200
H 	H 	0.40227 0.00721 0.09505 0.09000
H 	H 	0.88754 0.65725 0.10198 0.04900
H 	H 	0.54856 0.44514 0.10154 0.07300
C 	C 	0.90133 0.26973 0.11084 -0.02600
C 	C 	0.82857 0.28968 0.10985 -0.08900
H 	H 	0.04892 0.25146 0.11644 0.08100
H 	H 	0.64145 0.25495 0.12290 0.08700
H 	H 	0.72131 0.36888 0.11474 0.09000
C 	C 	0.45311 0.18685 0.11080 -0.11100
C 	C 	0.37582 0.09607 0.11165 0.10300
C 	C 	0.83082 0.62964 0.11139 -0.01000
C 	C 	0.74209 0.56035 0.10618 -0.10800
C 	C 	0.66793 0.52823 0.11832 0.09800
C 	C 	0.57020 0.49672 0.11212 -0.20300
H 	H 	0.97569 0.78515 0.12162 0.07400
H 	H 	0.56604 0.55669 0.10711 0.07900
C 	C 	0.92291 0.24317 0.12692 0.07300
C 	C 	0.78383 0.29258 0.12551 0.10000
C 	C 	0.00025 0.22057 0.12770 -0.24000
C 	C 	0.70886 0.31811 0.12517 -0.21300
H 	H 	0.97047 0.14497 0.12726 0.10000
H 	H 	0.04135 0.24803 0.13997 0.07100
H 	H 	0.70563 0.34909 0.13790 0.07500
C 	C 	0.32140 0.06708 0.12699 -0.08800
C 	C 	0.47019 0.24721 0.12497 -0.02000
H 	H 	0.52919 0.31618 0.12451 0.04000
H 	H 	0.26452 0.99698 0.12803 0.04700
H 	H 	0.14661 0.07232 0.13165 0.06500
C 	C 	0.84679 0.66261 0.12878 0.03000
C 	C 	0.68842 0.54656 0.13626 -0.09300
C 	C 	0.93899 0.74506 0.13353 -0.17700
H 	H 	0.51925 0.46528 0.12302 0.06700
C 	C 	0.86840 0.23336 0.14197 -0.00900
H 	H 	0.81018 0.05371 0.14602 0.06000
C 	C 	0.80178 0.26130 0.14128 -0.08300
H 	H 	0.76130 0.25554 0.15292 0.05500
C 	C 	0.33874 0.12828 0.14090 0.00100
C 	C 	0.41249 0.21940 0.13976 0.02700
C 	C 	0.28179 0.09553 0.15700 0.00900
C 	C 	0.43167 0.28664 0.15454 -0.17500
C 	C 	0.15718 0.11987 0.14269 -0.17100
H 	H 	0.48427 0.35772 0.15073 0.06000
H 	H 	0.08881 0.11388 0.14579 0.05500
H 	H 	0.20536 0.19153 0.13846 0.06400
C 	C 	0.77641 0.61672 0.14159 0.00300
H 	H 	0.63382 0.51177 0.14593 0.04900
H 	H 	0.69396 0.72185 0.14485 0.06800
H 	H 	0.98407 0.72237 0.14005 0.07200
H 	H 	0.92891 0.79198 0.14242 0.07200
C 	C 	0.83812 0.09205 0.15811 -0.09600
C 	C 	0.87542 0.18761 0.15811 0.01900
C 	C 	0.91037 0.23753 0.17391 0.02200
C 	C 	0.83741 0.04588 0.17358 0.10900
C 	C 	0.95361 0.34065 0.17420 -0.13800
C 	C 	0.80446 0.94449 0.17293 -0.21300
H 	H 	0.76903 0.91343 0.16030 0.07200
H 	H 	0.86478 0.93318 0.17432 0.08800
H 	H 	0.89820 0.35950 0.17380 0.06600
H 	H 	0.00078 0.37178 0.16275 0.03900
C 	C 	0.19715 0.09635 0.15837 0.02000
C 	C 	0.31730 0.07242 0.17164 -0.09900
H 	H 	0.38218 0.07165 0.17047 0.05800
H 	H 	0.45837 0.26702 0.16618 0.07100
H 	H 	0.36709 0.28732 0.15820 0.06700
C 	C 	0.86089 0.64078 0.17012 -0.08800
C 	C 	0.79189 0.64638 0.16034 0.00300
C 	C 	0.73953 0.68213 0.16837 0.02800
C 	C 	0.66774 0.69368 0.15817 -0.17400
H 	H 	0.89750 0.60868 0.16433 0.05400
H 	H 	0.60249 0.62675 0.15705 0.06500
H 	H 	0.65069 0.74232 0.16487 0.06300
C 	C 	0.90462 0.19058 0.18954 -0.00000
C 	C 	0.87226 0.09589 0.18936 -0.10000
H 	H 	0.75412 0.90841 0.18373 0.08600
H 	H 	0.99569 0.37068 0.18628 0.07200
C 	C 	0.15078 0.07665 0.17458 -0.01200
C 	C 	0.18789 0.05635 0.18933 -0.11700
C 	C 	0.27210 0.05487 0.18793 0.11200
H 	H 	0.08540 0.07648 0.17571 0.03500
C 	C 	0.75624 0.70964 0.18600 -0.01300
C 	C 	0.88666 0.68138 0.18691 0.09800
C 	C 	0.87463 0.78816 0.20914 0.31600
C 	C 	0.13453 0.02929 0.20570 0.31800
C 	C 	0.89720 0.05609 0.20415 0.32000
O 	O 	0.85613 0.85538 0.20932 -0.39100
O 	O 	0.08906 0.94218 0.20992 -0.39600
O 	O 	0.98487 0.08162 0.20646 -0.38300
H 	H 	0.93108 0.22875 0.20170 0.06200
C 	C 	0.31457 0.03610 0.20383 -0.21400
H 	H 	0.38374 0.04379 0.20081 0.08500
H 	H 	0.26841 0.96495 0.20855 0.08300
H 	H 	0.32420 0.08531 0.21449 0.09400
C 	C 	0.83586 0.72001 0.19464 -0.10100
H 	H 	0.71282 0.73252 0.19242 0.04300
C 	C 	0.96825 0.68385 0.19621 -0.17200
H 	H 	0.02496 0.75598 0.19783 0.05400
H 	H 	0.99693 0.64679 0.18866 0.07200
H 	H 	0.94621 0.65007 0.20926 0.08900
Ni	Ni	0.84402 0.91320 0.23168 1.12800
Ni	Ni	0.04077 0.09402 0.23024 1.11200
O 	O 	0.83454 0.00653 0.21612 -0.36300
O 	O 	0.92411 0.78044 0.22187 -0.35900
O 	O 	0.14746 0.09251 0.21731 -0.38900
Ni	Ni	0.03099 0.89570 0.23451 1.10100
O 	O 	0.15422 0.99489 0.24717 -0.36700
O 	O 	0.94923 0.12458 0.24265 -0.33500
O 	O 	0.82111 0.80344 0.24710 -0.33100
O 	O 	0.97363 0.96843 0.23616 -0.70600
H 	H 	0.97382 0.97468 0.24904 0.17000
H 	H 	0.33024 0.06393 0.24759 0.09500
F 	F 	0.79613 0.16679 0.23959 -0.43400
O 	O 	0.07941 0.16252 0.99807 -0.36700
C 	C 	0.17569 0.07882 0.25287 0.32600
C 	C 	0.87574 0.80949 0.26053 0.31700
C 	C 	0.88075 0.07097 0.25380 0.33700
O 	O 	0.11523 0.10871 0.25215 -0.35000
O 	O 	0.83484 0.98032 0.25251 -0.36400
O 	O 	0.96389 0.83292 0.25772 -0.35000
C 	C 	0.34387 0.12359 0.25532 -0.09100
C 	C 	0.27175 0.14228 0.25908 -0.11900
C 	C 	0.29274 0.22333 0.26829 0.34000
C 	C 	0.43321 0.17996 0.26209 0.34000
F 	F 	0.50004 0.15675 0.25953 -0.43600
C 	C 	0.83972 0.11246 0.26497 -0.10900
C 	C 	0.79064 0.15149 0.25721 0.34900
C 	C 	0.73369 0.17237 0.26750 -0.08200
H 	H 	0.69846 0.20523 0.26148 0.12000
C 	C 	0.52070 0.28123 0.28693 0.33600
O 	O 	0.61049 0.31666 0.28253 -0.35200
C 	C 	0.38244 0.27991 0.27482 -0.08600
C 	C 	0.45078 0.25439 0.27302 -0.12000
H 	H 	0.39615 0.33873 0.28285 0.10200
F 	F 	0.22543 0.24487 0.27175 -0.42700
C 	C 	0.83469 0.77310 0.27811 -0.10900
C 	C 	0.73766 0.72382 0.28067 0.34400
F 	F 	0.67911 0.72696 0.26857 -0.43000
C 	C 	0.83022 0.09352 0.28306 -0.07500
C 	C 	0.72726 0.15699 0.28571 -0.11400
C 	C 	0.69814 0.20905 0.29682 0.37000
Ni	Ni	0.72378 0.39187 0.29851 1.12700
O 	O 	0.70116 0.49840 0.29930 -0.37700
O 	O 	0.60939 0.17598 0.30063 -0.35000
O 	O 	0.48962 0.24891 0.30287 -0.37900
O 	O 	0.75866 0.29463 0.30010 -0.36300
C 	C 	0.89292 0.77894 0.29212 -0.08800
C 	C 	0.70096 0.66749 0.29551 -0.08100
H 	H 	0.96749 0.82409 0.29125 0.11900
H 	H 	0.62631 0.62329 0.29662 0.10700
C 	C 	0.77416 0.11551 0.29339 0.35600
H 	H 	0.86528 0.06046 0.28907 0.11600
C 	C 	0.73310 0.56042 0.31206 0.32700
C 	C 	0.88532 0.46522 0.32313 0.36400
Ni	Ni	0.56553 0.22694 0.32041 1.12700
O 	O 	0.85361 0.48108 0.30845 -0.34600
O 	O 	0.65151 0.35468 0.31949 -0.71500
H 	H 	0.60881 0.37870 0.31749 0.16600
C 	C 	0.76055 0.65509 0.30695 -0.11400
C 	C 	0.85557 0.72088 0.30667 0.35300
F 	F 	0.91323 0.72126 0.31933 -0.42400
F 	F 	0.76877 0.10043 0.31101 -0.39900
F 	F 	0.04816 0.44987 0.31901 -0.41700
C 	C 	0.46992 0.85713 0.37513 0.32700
O 	O 	0.37893 0.82084 0.37426 -0.33000
C 	C 	0.65818 0.22326 0.35244 0.35900
C 	C 	0.50510 0.33139 0.34484 0.32400
Ni	Ni	0.70990 0.41458 0.34051 1.11800
O 	O 	0.75983 0.54406 0.32775 -0.33400
O 	O 	0.66963 0.30282 0.35783 -0.35000
O 	O 	0.65153 0.20532 0.33574 -0.35100
O 	O 	0.82668 0.40698 0.33435 -0.35700
O 	O 	0.58630 0.40594 0.34767 -0.36100
O 	O 	0.49924 0.25041 0.34126 -0.34400
C 	C 	0.36450 0.44482 0.36795 -0.12100
C 	C 	0.37835 0.45442 0.34969 0.34900
C 	C 	0.40356 0.39738 0.34059 -0.08600
C 	C 	0.42206 0.33584 0.34991 -0.11200
C 	C 	0.39088 0.31461 0.36736 0.34300
H 	H 	0.42148 0.41009 0.32676 0.09900
F 	F 	0.37168 0.52134 0.34093 -0.42600
C 	C 	0.11365 0.54630 0.34409 -0.08200
C 	C 	0.10803 0.60280 0.35714 -0.10700
C 	C 	0.04595 0.63615 0.35482 0.32100
C 	C 	0.98112 0.60212 0.34116 -0.05900
C 	C 	0.97673 0.53380 0.32986 -0.09300
C 	C 	0.04826 0.51209 0.33044 0.32800
H 	H 	0.16484 0.52423 0.34515 0.12200
H 	H 	0.92635 0.61927 0.34093 0.12900
C 	C 	0.62103 0.99674 0.36695 -0.07700
C 	C 	0.52975 0.95841 0.37334 -0.11100
C 	C 	0.54582 0.11098 0.37357 -0.09500
C 	C 	0.63121 0.14649 0.36479 -0.12000
C 	C 	0.67203 0.09063 0.36288 0.33800
F 	F 	0.75735 0.12531 0.35537 -0.39900
H 	H 	0.65091 0.95334 0.36431 0.11600
C 	C 	0.15698 0.61560 0.37405 0.31700
C 	C 	0.35713 0.51529 0.37837 0.33900
O 	O 	0.50788 0.80517 0.37893 -0.35300
O 	O 	0.42479 0.60252 0.37702 -0.35100
O 	O 	0.29785 0.48691 0.39179 -0.38500
O 	O 	0.17511 0.68774 0.38412 -0.31900
O 	O 	0.16708 0.54668 0.38017 -0.36500
H 	H 	0.32448 0.66579 0.38260 0.15700
C 	C 	0.36374 0.37011 0.37647 -0.08200
F 	F 	0.40008 0.24938 0.37622 -0.43200
H 	H 	0.34839 0.35889 0.39041 0.09500
F 	F 	0.04245 0.69487 0.36669 -0.42600
C 	C 	0.49438 0.01724 0.37757 0.32500
H 	H 	0.51496 0.15396 0.37572 0.12600
F 	F 	0.40915 0.98333 0.38507 -0.44300
Ni	Ni	0.30238 0.77009 0.39700 1.12800
Ni	Ni	0.23692 0.55466 0.40260 1.12200
Ni	Ni	0.45479 0.69611 0.39638 1.12300
O 	O 	0.42311 0.86266 0.41000 -0.35000
O 	O 	0.33023 0.67459 0.39544 -0.71700
C 	C 	0.17844 0.65564 0.42618 0.31200
C 	C 	0.46389 0.83658 0.42159 0.30700
C 	C 	0.38044 0.57669 0.42778 0.30900
O 	O 	0.29514 0.56230 0.42610 -0.39900
O 	O 	0.23943 0.73928 0.42157 -0.36900
O 	O 	0.14895 0.58873 0.41470 -0.38300
O 	O 	0.49979 0.78531 0.41689 -0.38000
O 	O 	0.43612 0.59828 0.41404 -0.38000
C 	C 	0.40650 0.54924 0.44422 -0.10800
C 	C 	0.28824 0.38211 0.43802 -0.21100
H 	H 	0.27029 0.31251 0.44269 0.07800
H 	H 	0.31416 0.38914 0.42431 0.09200
H 	H 	0.22390 0.38713 0.43813 0.07800
C 	C 	0.49193 0.88440 0.43852 -0.11900
C 	C 	0.55398 0.98005 0.43941 0.15100
C 	C 	0.59405 0.03623 0.42292 -0.24100
H 	H 	0.65479 0.10460 0.42595 0.08900
H 	H 	0.54030 0.04687 0.41637 0.11400
H 	H 	0.61843 0.00119 0.41371 0.10000
C 	C 	0.13534 0.63893 0.44371 -0.10800
C 	C 	0.04896 0.63502 0.44622 0.09500
C 	C 	0.99782 0.64641 0.43088 -0.17500
H 	H 	0.04323 0.71246 0.42408 0.08400
H 	H 	0.93389 0.64680 0.43518 0.08000
H 	H 	0.97721 0.58893 0.42145 0.10100
C 	C 	0.38397 0.43270 0.46574 -0.09400
C 	C 	0.49913 0.59295 0.47104 0.02700
C 	C 	0.47641 0.61652 0.45481 -0.01700
C 	C 	0.36108 0.45627 0.44954 0.10800
H 	H 	0.51295 0.68732 0.45043 0.04300
H 	H 	0.34882 0.36159 0.46995 0.05500
C 	C 	0.54101 0.97275 0.47132 0.04500
C 	C 	0.48485 0.87629 0.47047 0.01100
C 	C 	0.45861 0.83324 0.45403 -0.00000
C 	C 	0.57616 0.02378 0.45584 -0.13700
H 	H 	0.41175 0.75978 0.45327 0.03300
H 	H 	0.62000 0.09777 0.45659 0.06700
C 	C 	0.00945 0.61839 0.46312 -0.11600
C 	C 	0.18290 0.63037 0.45817 -0.01100
H 	H 	0.24958 0.63424 0.45620 0.04000
H 	H 	0.94139 0.61159 0.46500 0.07000
C 	C 	0.45290 0.50013 0.47645 0.00500
C 	C 	0.47959 0.47201 0.49288 0.00400
C 	C 	0.57348 0.66660 0.48240 -0.17700
C 	C 	0.55083 0.45002 0.49240 -0.09200
H 	H 	0.58795 0.45758 0.48020 0.05600
H 	H 	0.63418 0.65565 0.48330 0.07200
H 	H 	0.54597 0.66468 0.49581 0.06900
H 	H 	0.59778 0.73630 0.47694 0.06600
H 	H 	0.29485 0.43554 0.50094 0.06500
H 	H 	0.66113 0.37673 0.49338 0.07300
C 	C 	0.49241 0.04691 0.49390 -0.08400
C 	C 	0.55695 0.02167 0.48820 -0.02000
C 	C 	0.63824 0.04714 0.49809 0.03700
C 	C 	0.70950 0.02225 0.49191 -0.19400
H 	H 	0.43039 0.02742 0.48614 0.05100
C 	C 	0.44884 0.81952 0.48698 -0.16800
H 	H 	0.74125 0.05843 0.47940 0.07100
H 	H 	0.67617 0.94701 0.48976 0.07900
H 	H 	0.42832 0.74672 0.48440 0.05900
H 	H 	0.38732 0.82256 0.49192 0.06900
H 	H 	0.50315 0.84471 0.49735 0.07000
C 	C 	0.05564 0.60682 0.47752 0.02200
C 	C 	0.14423 0.61531 0.47511 0.01800
C 	C 	0.00447 0.57093 0.49428 -0.04000
C 	C 	0.19587 0.60451 0.49043 -0.17000
C 	C 	0.96348 0.47705 0.49775 -0.06200
H 	H 	0.97069 0.43274 0.48824 0.05000
H 	H 	0.15974 0.53200 0.49491 0.06400
H 	H 	0.26811 0.62333 0.48679 0.05900
H 	H 	0.00498 0.74358 0.49177 0.07100
H 	H 	0.11451 0.75949 0.50008 0.07500
C 	C 	0.43143 0.46309 0.50875 0.02900
C 	C 	0.57457 0.41839 0.50753 0.10000
C 	C 	0.35309 0.48448 0.50942 -0.17400
C 	C 	0.65505 0.40032 0.50673 -0.21400
H 	H 	0.37766 0.55553 0.50474 0.06500
H 	H 	0.64644 0.34605 0.51607 0.08200
H 	H 	0.72048 0.46470 0.50971 0.08800
C 	C 	0.65374 0.09786 0.51361 -0.01700
C 	C 	0.59003 0.12477 0.51920 -0.10900
C 	C 	0.50871 0.09945 0.50919 0.10000
C 	C 	0.44241 0.13305 0.51405 -0.21000
H 	H 	0.38266 0.10702 0.50481 0.07300
H 	H 	0.47913 0.20904 0.51349 0.08500
H 	H 	0.76610 0.04189 0.50170 0.06900
C 	C 	0.99426 0.62903 0.50643 0.07000
C 	C 	0.91252 0.43937 0.51321 0.08700
C 	C 	0.03945 0.73079 0.50308 -0.20100
C 	C 	0.86585 0.33699 0.51570 -0.20100
H 	H 	0.19957 0.64959 0.50147 0.06700
H 	H 	0.03410 0.76804 0.51471 0.07500
H 	H 	0.90002 0.30698 0.50760 0.07000
H 	H 	0.79264 0.30557 0.51124 0.08200
C 	C 	0.61045 0.18072 0.53525 0.31000
C 	C 	0.83796 0.45845 0.54090 0.30800
C 	C 	0.55279 0.38152 0.53984 0.30700
O 	O 	0.50839 0.29310 0.54367 -0.39200
O 	O 	0.69560 0.24806 0.53784 -0.39600
O 	O 	0.54994 0.15126 0.54820 -0.37800
O 	O 	0.85635 0.41255 0.55252 -0.37400
O 	O 	0.77344 0.48040 0.54414 -0.38000
O 	O 	0.59519 0.44336 0.55220 -0.38700
C 	C 	0.45590 0.43263 0.52397 -0.00900
C 	C 	0.52735 0.41075 0.52351 -0.10500
H 	H 	0.41942 0.42602 0.53622 0.05000
H 	H 	0.32598 0.47900 0.52300 0.07200
H 	H 	0.71585 0.11706 0.52132 0.03900
H 	H 	0.41349 0.10905 0.52741 0.08600
C 	C 	0.93992 0.59115 0.52164 -0.02900
C 	C 	0.89838 0.49666 0.52514 -0.09300
H 	H 	0.92999 0.63525 0.53077 0.05800
H 	H 	0.87039 0.31830 0.52948 0.07300
C 	C 	0.82254 0.42342 0.59295 0.31800
C 	C 	0.60774 0.13352 0.58490 0.33900
C 	C 	0.52546 0.38413 0.58655 0.33100
Ni	Ni	0.75190 0.28988 0.56272 1.11400
Ni	Ni	0.53361 0.23683 0.56494 1.12400
Ni	Ni	0.69885 0.45017 0.56703 1.12400
O 	O 	0.81214 0.34442 0.58690 -0.35900
O 	O 	0.81380 0.48198 0.58225 -0.32500
O 	O 	0.61739 0.43429 0.58785 -0.36100
O 	O 	0.48385 0.29566 0.58209 -0.32800
O 	O 	0.66950 0.15677 0.57210 -0.37600
O 	O 	0.54372 0.15960 0.58463 -0.33200
O 	O 	0.66221 0.32367 0.56829 -0.72100
H 	H 	0.66035 0.31759 0.58119 0.16300
C 	C 	0.49417 0.51524 0.58764 -0.08500
C 	C 	0.46751 0.42422 0.59211 -0.11400
C 	C 	0.38350 0.37081 0.60122 0.34400
C 	C 	0.36199 0.50365 0.60384 -0.12500
C 	C 	0.44120 0.55455 0.59333 0.34000
F 	F 	0.47037 0.64385 0.58963 -0.40200
H 	H 	0.55658 0.55595 0.57995 0.10100
F 	F 	0.90313 0.61068 0.60524 -0.42400
C 	C 	0.60730 0.98692 0.59049 -0.06500
C 	C 	0.59486 0.05888 0.59682 -0.13200
C 	C 	0.57962 0.90832 0.60070 0.34400
F 	F 	0.58426 0.83602 0.59386 -0.39600
H 	H 	0.63316 0.98951 0.57728 0.10400
C 	C 	0.33127 0.55191 0.61596 0.35300
C 	C 	0.08721 0.54798 0.64498 0.36200
C 	C 	0.45886 0.81064 0.62208 0.33300
Ni	Ni	0.25688 0.67724 0.62664 1.11900
O 	O 	0.19276 0.74838 0.63792 -0.35000
O 	O 	0.30770 0.61126 0.61006 -0.33300
O 	O 	0.34027 0.54460 0.63276 -0.38300
O 	O 	0.14807 0.55128 0.63376 -0.37200
O 	O 	0.37395 0.79585 0.61891 -0.34600
O 	O 	0.47393 0.74165 0.62621 -0.31900
C 	C 	0.33055 0.41013 0.60680 -0.08400
H 	H 	0.26881 0.36976 0.61468 0.11000
F 	F 	0.35558 0.28234 0.60550 -0.41200
C 	C 	0.97567 0.57894 0.62911 -0.08500
C 	C 	0.99267 0.51661 0.63849 -0.13000
C 	C 	0.93245 0.42226 0.63611 0.35600
C 	C 	0.86822 0.39130 0.62228 -0.08700
C 	C 	0.86481 0.45467 0.61062 -0.10500
C 	C 	0.91297 0.54849 0.61504 0.34200
H 	H 	0.01805 0.65183 0.63146 0.10100
H 	H 	0.82585 0.31821 0.61991 0.12100
C 	C 	0.56760 0.05712 0.61435 0.34700
C 	C 	0.54100 0.97864 0.62458 -0.07100
C 	C 	0.53655 0.90010 0.61701 -0.10100
H 	H 	0.51298 0.97484 0.63764 0.13100
F 	F 	0.56349 0.12965 0.62126 -0.41000
C 	C 	0.20739 0.78802 0.65386 0.34300
C 	C 	0.29402 0.50591 0.67174 0.35600
Ni	Ni	0.41585 0.65640 0.64766 1.12800
Ni	Ni	0.24942 0.65285 0.66917 1.12800
O 	O 	0.25557 0.77462 0.66622 -0.36400
O 	O 	0.38091 0.56787 0.66815 -0.35800
O 	O 	0.11596 0.59713 0.65952 -0.36400
O 	O 	0.48528 0.76039 0.66426 -0.35800
O 	O 	0.31896 0.68541 0.64787 -0.71800
H 	H 	0.35601 0.75247 0.64929 0.17500
C 	C 	0.21924 0.33737 0.67087 -0.07800
F 	F 	0.10415 0.17860 0.67061 -0.41600
H 	H 	0.21823 0.33825 0.65662 0.11400
C 	C 	0.06031 0.76895 0.66572 -0.08900
C 	C 	0.15059 0.82824 0.65945 -0.11100
C 	C 	0.19566 0.92075 0.66461 0.34700
C 	C 	0.15907 0.94881 0.67834 -0.06000
H 	H 	0.02332 0.69809 0.66145 0.10800
F 	F 	0.28022 0.98082 0.65779 -0.40600
F 	F 	0.94316 0.36066 0.64594 -0.41900
C 	C 	0.45421 0.76288 0.68017 0.34200
O 	O 	0.36580 0.70580 0.68497 -0.35600
O 	O 	0.22683 0.52473 0.66987 -0.37000
C 	C 	0.05503 0.90565 0.70452 0.35200
O 	O 	0.09877 0.10246 0.70750 -0.37400
C 	C 	0.68506 0.93328 0.69791 -0.08600
C 	C 	0.52469 0.81243 0.69379 -0.11100
C 	C 	0.59792 0.90121 0.69005 0.34500
F 	F 	0.58704 0.95290 0.67757 -0.42000
H 	H 	0.74235 0.99948 0.69405 0.11800
C 	C 	0.27230 0.41945 0.68024 -0.11800
C 	C 	0.27518 0.41669 0.69867 0.34200
C 	C 	0.15339 0.25685 0.69824 -0.13400
C 	C 	0.15939 0.25631 0.67983 0.35600
C 	C 	0.07685 0.88464 0.68685 -0.11800
C 	C 	0.02395 0.79637 0.67958 0.35300
F 	F 	0.94140 0.73464 0.68688 -0.42300
H 	H 	0.19782 0.01878 0.68314 0.10300
C 	C 	0.08693 0.17368 0.70773 0.36500
C 	C 	0.79416 0.90798 0.71685 0.34100
Ni	Ni	0.94000 0.06984 0.73569 1.11000
Ni	Ni	0.12828 0.05744 0.72980 1.12200
Ni	Ni	0.93456 0.87236 0.73524 1.12700
O 	O 	0.12352 0.95442 0.71548 -0.37800
O 	O 	0.02771 0.17737 0.71883 -0.36400
O 	O 	0.86040 0.99318 0.71462 -0.36200
O 	O 	0.80829 0.85169 0.72678 -0.32600
O 	O 	0.96812 0.86617 0.70997 -0.33700
C 	C 	0.69907 0.87826 0.71006 -0.11800
C 	C 	0.62182 0.79486 0.71563 0.34500
C 	C 	0.53514 0.76253 0.70752 -0.09200
H 	H 	0.47823 0.69522 0.71095 0.12900
F 	F 	0.63083 0.74418 0.72858 -0.43400
C 	C 	0.21506 0.33588 0.70764 -0.08300
H 	H 	0.21542 0.33512 0.72187 0.09200
F 	F 	0.32956 0.49459 0.70791 -0.43900
O 	O 	0.04132 0.85812 0.74542 -0.36800
O 	O 	0.15841 0.00681 0.75112 -0.39000
O 	O 	0.16076 0.17762 0.74240 -0.37900
O 	O 	0.00290 0.00295 0.73746 -0.71500
H 	H 	0.01432 0.00792 0.75022 0.14600
H 	H 	0.14445 0.35556 0.74754 0.09800
C 	C 	0.85259 0.92527 0.76474 0.29700
C 	C 	0.11538 0.18441 0.75623 0.29400
C 	C 	0.10818 0.91933 0.75589 0.29700
O 	O 	0.83896 0.97803 0.75342 -0.36700
O 	O 	0.88191 0.86837 0.75945 -0.37600
O 	O 	0.02459 0.15388 0.75567 -0.37700
H 	H 	0.28756 0.98029 0.76393 0.05300
H 	H 	0.96424 0.73249 0.76675 0.09300
C 	C 	0.12666 0.36398 0.76123 -0.21300
H 	H 	0.15369 0.43850 0.76338 0.08400
H 	H 	0.04985 0.32733 0.76275 0.08800
C 	C 	0.65755 0.87033 0.77321 -0.22100
H 	H 	0.65895 0.82318 0.76311 0.12100
H 	H 	0.67296 0.93605 0.76691 0.09500
C 	C 	0.29699 0.50579 0.87112 0.29700
C 	C 	0.48463 0.74246 0.93160 0.34400
C 	C 	0.22409 0.46261 0.91657 0.33900
C 	C 	0.55353 0.77253 0.88149 0.28900
C 	C 	0.24042 0.75169 0.91885 0.35400
C 	C 	0.28633 0.76060 0.87001 0.29800
Ni	Ni	0.41585 0.60332 0.90276 1.12000
Ni	Ni	0.41040 0.79357 0.90103 1.12400
Ni	Ni	0.22229 0.60343 0.89420 1.12200
O 	O 	0.38006 0.53772 0.87857 -0.36900
O 	O 	0.22456 0.50049 0.87991 -0.37800
O 	O 	0.32625 0.77153 0.92134 -0.39500
O 	O 	0.43749 0.65420 0.92826 -0.32900
O 	O 	0.50608 0.80200 0.91876 -0.37500
O 	O 	0.22766 0.67143 0.87208 -0.37600
O 	O 	0.30757 0.47862 0.91206 -0.31900
O 	O 	0.20401 0.52919 0.91631 -0.37700
O 	O 	0.32906 0.81479 0.88371 -0.36200
O 	O 	0.54429 0.71240 0.89388 -0.36000
O 	O 	0.50662 0.81759 0.88238 -0.38000
O 	O 	0.18620 0.68654 0.90763 -0.35000
O 	O 	0.35450 0.66667 0.89551 -0.71400
H 	H 	0.36844 0.67217 0.88283 0.14400
C 	C 	0.09643 0.95903 0.95051 0.33000
C 	C 	0.75711 0.91406 0.98127 0.35700
C 	C 	0.99313 0.11584 0.94755 0.37400
C 	C 	0.85268 0.76665 0.98907 0.33600
Ni	Ni	0.90566 0.91966 0.96015 1.11800
Ni	Ni	0.08895 0.09153 0.97715 1.12700
O 	O 	0.00724 0.89570 0.95034 -0.36700
O 	O 	0.12446 0.04682 0.95454 -0.35300
O 	O 	0.81596 0.96189 0.96906 -0.35400
O 	O 	0.78759 0.89150 0.99535 -0.32400
O 	O 	0.15821 0.04950 0.99246 -0.35800
O 	O 	0.95967 0.03034 0.94233 -0.36000
O 	O 	0.01401 0.13653 0.96402 -0.35600
O 	O 	0.83318 0.79023 0.97336 -0.35000
O 	O 	0.91246 0.82833 0.00015 -0.36200
O 	O 	0.98344 0.97279 0.97976 -0.70900
H 	H 	0.01378 0.93518 0.98063 0.17000
C 	C 	0.82668 0.61292 0.99707 -0.08000
C 	C 	0.79201 0.67409 0.99611 -0.11700
H 	H 	0.88334 0.62245 0.98857 0.10900
F 	F 	0.97886 0.29648 0.99072 -0.39600
C 	C 	0.62459 0.76530 0.97202 -0.09500
C 	C 	0.65901 0.85838 0.97605 -0.10200
C 	C 	0.61412 0.90317 0.96883 0.34400
C 	C 	0.55005 0.86188 0.95512 -0.07700
C 	C 	0.52833 0.77445 0.94902 -0.12400
C 	C 	0.55981 0.72346 0.95854 0.35000
F 	F 	0.53497 0.63643 0.95364 -0.42800
H 	H 	0.65717 0.72916 0.97750 0.13800
H 	H 	0.52172 0.89993 0.94858 0.10400
F 	F 	0.64135 0.99102 0.97352 -0.40400
C 	C 	0.09987 0.20414 0.92326 -0.08800
C 	C 	0.02805 0.19137 0.93470 -0.13400
C 	C 	0.01119 0.26466 0.93764 0.34700
C 	C 	0.07311 0.35249 0.93117 -0.08700
C 	C 	0.15175 0.36770 0.92148 -0.12100
C 	C 	0.16230 0.29182 0.91685 0.33300
F 	F 	0.23476 0.30335 0.90669 -0.44100
H 	H 	0.11235 0.14775 0.92056 0.09800
H 	H 	0.06194 0.40921 0.93435 0.11300
F 	F 	0.93911 0.25237 0.94801 -0.39300
C 	C 	0.22649 0.83464 0.94474 -0.08100
C 	C 	0.20886 0.81136 0.92686 -0.13000
C 	C 	0.17491 0.85665 0.91624 0.34200
C 	C 	0.15287 0.91969 0.92373 -0.08600
C 	C 	0.16090 0.93527 0.94198 -0.11700
C 	C 	0.20316 0.89672 0.95225 0.34000
F 	F 	0.21386 0.91299 0.96982 -0.44000
H 	H 	0.25685 0.80342 0.95290 0.10800
H 	H 	0.12200 0.95050 0.91560 0.09500
F 	F 	0.16327 0.83970 0.89869 -0.44500
C 	C 	0.11976 0.80920 0.79883 -0.09500
C 	C 	0.21502 0.86141 0.80249 0.00700
C 	C 	0.27618 0.92277 0.78975 0.02400
C 	C 	0.24044 0.93312 0.77372 -0.01100
C 	C 	0.14393 0.88700 0.77059 -0.09900
C 	C 	0.08333 0.82081 0.78296 0.10400
C 	C 	0.25015 0.85028 0.81970 0.00100
C 	C 	0.37926 0.97849 0.79332 -0.16100
C 	C 	0.97996 0.76551 0.77989 -0.21900
H 	H 	0.07348 0.76065 0.80854 0.05700
C 	C 	0.23844 0.89092 0.83508 0.03500
C 	C 	0.25624 0.86542 0.85161 -0.01600
C 	C 	0.28831 0.80242 0.85286 -0.09200
C 	C 	0.31054 0.77071 0.83737 0.09600
C 	C 	0.28861 0.79268 0.82092 -0.08800
C 	C 	0.20185 0.95703 0.83400 -0.17300
H 	H 	0.24135 0.89155 0.86350 0.07800
C 	C 	0.35168 0.70845 0.83833 -0.20500
H 	H 	0.29939 0.76315 0.80906 0.05300
H 	H 	0.94557 0.70924 0.78967 0.07800
H 	H 	0.94935 0.81051 0.78137 0.08900
H 	H 	0.40891 0.93221 0.79453 0.06600
H 	H 	0.39197 0.01819 0.80570 0.06000
H 	H 	0.41675 0.02816 0.78256 0.06200
H 	H 	0.21326 0.99547 0.84651 0.07400
H 	H 	0.12606 0.91863 0.83121 0.06700
H 	H 	0.23804 0.00821 0.82341 0.06100
H 	H 	0.29533 0.63739 0.84103 0.08000
H 	H 	0.40503 0.73106 0.84887 0.07100
H 	H 	0.38612 0.70866 0.82576 0.06900
C 	C 	0.20140 0.37137 0.79038 -0.09300
C 	C 	0.23796 0.33667 0.80288 0.00500
C 	C 	0.24732 0.25954 0.79877 0.02800
C 	C 	0.21194 0.21336 0.78279 -0.01700
C 	C 	0.16904 0.24423 0.77086 -0.10500
C 	C 	0.16830 0.32669 0.77424 0.11200
C 	C 	0.25734 0.37589 0.82078 0.00600
C 	C 	0.28942 0.22290 0.81181 -0.17500
H 	H 	0.21388 0.15093 0.78000 0.03900
H 	H 	0.19591 0.43160 0.79349 0.05600
C 	C 	0.33908 0.45946 0.82439 0.02600
C 	C 	0.34994 0.50115 0.84085 -0.01700
C 	C 	0.28135 0.45964 0.85389 -0.10600
C 	C 	0.20234 0.37243 0.85064 0.11500
C 	C 	0.18991 0.33283 0.83390 -0.09600
C 	C 	0.41327 0.50610 0.81054 -0.17600
H 	H 	0.41139 0.56684 0.84347 0.03300
C 	C 	0.13139 0.32100 0.86480 -0.22100
H 	H 	0.12747 0.26828 0.83104 0.05400
H 	H 	0.23899 0.18632 0.82256 0.06600
H 	H 	0.35429 0.27991 0.81748 0.07000
H 	H 	0.30768 0.17423 0.80547 0.06300
H 	H 	0.47854 0.56259 0.81622 0.06500
H 	H 	0.38829 0.53549 0.80023 0.07100
H 	H 	0.43036 0.45618 0.80442 0.07200
H 	H 	0.08613 0.24759 0.86124 0.08100
H 	H 	0.08626 0.35185 0.86672 0.09100
H 	H 	0.16630 0.32258 0.87734 0.12400
C 	C 	0.69526 0.77114 0.84275 -0.09100
C 	C 	0.73007 0.86132 0.83677 0.00100
C 	C 	0.72493 0.92659 0.84770 0.03300
C 	C 	0.67670 0.89828 0.86372 -0.01500
C 	C 	0.63120 0.80530 0.86867 -0.09700
C 	C 	0.64780 0.74298 0.85888 0.09900
C 	C 	0.76361 0.88443 0.81842 0.00700
C 	C 	0.76411 0.02468 0.84174 -0.17800
H 	H 	0.66930 0.94758 0.87179 0.05200
C 	C 	0.61577 0.64721 0.86544 -0.21400
H 	H 	0.70289 0.72218 0.83461 0.05300
C 	C 	0.85779 0.91637 0.81418 0.02500
C 	C 	0.88675 0.93527 0.79658 -0.01500
C 	C 	0.82254 0.91974 0.78314 -0.10900
C 	C 	0.72831 0.88825 0.78740 0.11300
C 	C 	0.70003 0.87234 0.80508 -0.09700
C 	C 	0.92644 0.92577 0.82820 -0.17400
H 	H 	0.95897 0.95938 0.79324 0.03200
H 	H 	0.62798 0.84867 0.80846 0.05300
H 	H 	0.64027 0.64939 0.87912 0.09400
H 	H 	0.64401 0.61173 0.85727 0.07900
H 	H 	0.53901 0.60614 0.86490 0.08500
H 	H 	0.72028 0.02777 0.83101 0.06800
H 	H 	0.83642 0.05266 0.83688 0.06600
H 	H 	0.76605 0.06961 0.85267 0.07000
H 	H 	0.99870 0.95934 0.82302 0.06100
H 	H 	0.90845 0.85676 0.83320 0.06900
H 	H 	0.92522 0.96829 0.83928 0.06800
H 	H 	0.58575 0.83785 0.77861 0.08100
