data_crystal

_cell_length_a 47.81773
_cell_length_b 47.85641
_cell_length_c 32.90830
_cell_angle_alpha 92.21016
_cell_angle_beta  88.45007
_cell_angle_gamma 90.10009

_symmetry_space_group_name_	'P 1'
_symmetry_space_group_name_H-M	'P 1'

loop_
_symmetry_equiv_pos_as_xyz
  x,y,z

loop_
_atom_site_label
_atom_site_type_symbol
_atom_site_fract_x
_atom_site_fract_y
_atom_site_fract_z
_atom_site_charge
Cd	Cd	0.02189 0.85269 0.30577 1.24200
Cd	Cd	0.02656 0.92080 0.35262 1.19000
O 	O 	0.00312 0.81463 0.34683 -0.30900
O 	O 	0.01367 0.80808 0.28162 -0.34600
C 	C 	0.00406 0.79760 0.31513 0.27000
O 	O 	0.03273 0.87985 0.25384 -0.37000
O 	O 	0.05034 0.91603 0.29295 -0.40400
C 	C 	0.03947 0.90657 0.25865 0.28700
C 	C 	0.97224 0.88536 0.31940 0.30400
O 	O 	0.04665 0.87815 0.36745 -0.43800
O 	O 	0.96758 0.86390 0.29467 -0.28100
O 	O 	0.99681 0.88583 0.33498 -0.53000
C 	C 	0.07032 0.86769 0.35346 0.29400
O 	O 	0.06866 0.85020 0.32216 -0.34500
Cd	Cd	0.91364 0.85337 0.96007 1.24200
Cd	Cd	0.90630 0.89299 0.87146 1.17600
O 	O 	0.89206 0.80671 0.96102 -0.31300
O 	O 	0.92024 0.82139 0.00882 -0.34200
C 	C 	0.90529 0.80092 0.99363 0.26600
O 	O 	0.94213 0.89028 0.96955 -0.37000
O 	O 	0.91926 0.91857 0.92646 -0.41400
C 	C 	0.94097 0.91345 0.94883 0.29300
C 	C 	0.94752 0.84003 0.88958 0.31300
O 	O 	0.87389 0.87526 0.91769 -0.44100
O 	O 	0.95674 0.82773 0.92126 -0.29000
O 	O 	0.92362 0.85258 0.89488 -0.53700
C 	C 	0.86447 0.88777 0.95128 0.29600
O 	O 	0.87618 0.88008 0.98447 -0.34600
C 	C 	0.95186 0.62222 0.87357 0.11300
N 	N 	0.96407 0.59772 0.88280 -0.14000
C 	C 	0.97000 0.57813 0.85285 0.12800
N 	N 	0.96360 0.58302 0.81386 -0.14400
C 	C 	0.95145 0.60745 0.80454 0.12800
N 	N 	0.94571 0.62714 0.83439 -0.13900
C 	C 	0.00186 0.61719 0.44530 0.11400
N 	N 	0.99078 0.62016 0.48369 -0.14000
C 	C 	0.99187 0.59867 0.50935 0.12800
N 	N 	0.00476 0.57446 0.49692 -0.14300
C 	C 	0.01673 0.57177 0.45909 0.12900
N 	N 	0.01502 0.59303 0.43313 -0.14100
Cd	Cd	0.83759 0.12313 0.81786 1.24300
Cd	Cd	0.89597 0.12015 0.88137 1.18400
O 	O 	0.79596 0.15050 0.84068 -0.31300
O 	O 	0.79957 0.13065 0.77946 -0.34600
C 	C 	0.78445 0.14543 0.80578 0.27000
O 	O 	0.87014 0.10218 0.77805 -0.37600
O 	O 	0.89662 0.08760 0.83022 -0.40400
C 	C 	0.89356 0.09152 0.79112 0.29400
C 	C 	0.87523 0.16912 0.82415 0.30700
O 	O 	0.85002 0.10515 0.89048 -0.44000
O 	O 	0.85936 0.17157 0.79274 -0.28300
O 	O 	0.86831 0.14933 0.84812 -0.54100
C 	C 	0.83967 0.08105 0.87851 0.29800
O 	O 	0.82653 0.08050 0.84426 -0.34900
Cd	Cd	0.83251 0.10512 0.41513 1.24300
Cd	Cd	0.89480 0.08806 0.35785 1.19100
O 	O 	0.78725 0.09279 0.38511 -0.30800
O 	O 	0.78984 0.11066 0.44757 -0.34400
C 	C 	0.77417 0.10089 0.41859 0.26900
O 	O 	0.86652 0.11362 0.45945 -0.36900
O 	O 	0.90168 0.11761 0.41137 -0.40300
C 	C 	0.89345 0.11291 0.44909 0.28700
C 	C 	0.85133 0.04838 0.40878 0.30500
O 	O 	0.85669 0.11633 0.34471 -0.43800
O 	O 	0.83196 0.05155 0.43742 -0.28200
O 	O 	0.85589 0.07025 0.38765 -0.53200
C 	C 	0.85341 0.14284 0.35410 0.29300
O 	O 	0.83922 0.14872 0.38783 -0.34500
C 	C 	0.59010 0.11283 0.87808 0.11300
N 	N 	0.56692 0.10364 0.85865 -0.14100
C 	C 	0.54512 0.09281 0.88026 0.12800
N 	N 	0.54671 0.09089 0.92122 -0.14400
C 	C 	0.57016 0.09936 0.94048 0.12900
N 	N 	0.59156 0.11092 0.91902 -0.14000
C 	C 	0.58795 0.11116 0.31111 0.11200
N 	N 	0.56130 0.11782 0.32323 -0.14200
C 	C 	0.54083 0.11808 0.29539 0.12900
N 	N 	0.54729 0.11311 0.25539 -0.14400
C 	C 	0.57398 0.10727 0.24314 0.12900
N 	N 	0.59421 0.10567 0.27107 -0.14000
Cd	Cd	0.98948 0.14140 0.17520 1.24200
Cd	Cd	0.93332 0.09520 0.20448 1.19000
O 	O 	0.99481 0.18464 0.21705 -0.30300
O 	O 	0.02587 0.17245 0.16918 -0.34200
C 	C 	0.01799 0.19050 0.19784 0.26700
O 	O 	0.99797 0.10177 0.13818 -0.36400
O 	O 	0.95374 0.08440 0.14395 -0.39900
C 	C 	0.98089 0.08010 0.14108 0.28600
C 	C 	0.99590 0.10629 0.24215 0.31400
O 	O 	0.93541 0.14091 0.18513 -0.44600
O 	O 	0.01960 0.11811 0.23188 -0.28800
O 	O 	0.97411 0.11570 0.22470 -0.51800
C 	C 	0.93265 0.15036 0.14901 0.29300
O 	O 	0.95607 0.15706 0.13022 -0.34000
Cd	Cd	0.09261 0.14050 0.98631 1.24100
Cd	Cd	0.09795 0.10174 0.89217 1.18600
O 	O 	0.10781 0.18943 0.98692 -0.31200
O 	O 	0.08469 0.17257 0.03870 -0.34300
C 	C 	0.09488 0.19464 0.02156 0.26900
O 	O 	0.07017 0.10051 0.99889 -0.36700
O 	O 	0.09074 0.07487 0.94603 -0.41600
C 	C 	0.07022 0.07851 0.97329 0.29100
C 	C 	0.05198 0.14857 0.92583 0.30800
O 	O 	0.13118 0.12505 0.93182 -0.43400
O 	O 	0.04366 0.15882 0.96137 -0.29100
O 	O 	0.07767 0.13994 0.92365 -0.53000
C 	C 	0.14556 0.11520 0.96116 0.29600
O 	O 	0.13555 0.12001 0.99808 -0.34700
C 	C 	0.04176 0.33572 0.85073 0.11500
N 	N 	0.03264 0.36228 0.85830 -0.14000
C 	C 	0.03080 0.38013 0.82742 0.12800
N 	N 	0.03700 0.37102 0.78866 -0.14300
C 	C 	0.04623 0.34446 0.78091 0.12800
N 	N 	0.04867 0.32682 0.81203 -0.13700
C 	C 	0.06898 0.32592 0.41183 0.11300
N 	N 	0.06938 0.35398 0.40680 -0.14200
C 	C 	0.06830 0.37203 0.43956 0.13000
N 	N 	0.06818 0.36207 0.47757 -0.14300
C 	C 	0.06789 0.33411 0.48300 0.12800
N 	N 	0.06776 0.31600 0.45010 -0.14100
Cd	Cd	0.11515 0.96622 0.69502 1.24300
Cd	Cd	0.06737 0.96842 0.77840 1.18100
O 	O 	0.15426 0.93285 0.69431 -0.30700
O 	O 	0.14827 0.96095 0.64461 -0.33900
C 	C 	0.16531 0.94449 0.66263 0.26600
O 	O 	0.08183 0.99517 0.67590 -0.37200
O 	O 	0.06777 0.00708 0.74142 -0.40800
C 	C 	0.06400 0.00771 0.70192 0.29900
C 	C 	0.07267 0.92488 0.69886 0.31000
O 	O 	0.11566 0.97444 0.77506 -0.44400
O 	O 	0.08477 0.92430 0.66273 -0.28200
O 	O 	0.08474 0.94041 0.72630 -0.53600
C 	C 	0.12902 0.99772 0.76859 0.30000
O 	O 	0.13560 0.00241 0.73085 -0.35400
Cd	Cd	0.11301 0.01002 0.51370 1.24300
Cd	Cd	0.05195 0.96728 0.49697 1.18900
O 	O 	0.15398 0.00329 0.46737 -0.30200
O 	O 	0.15195 0.03773 0.51344 -0.34700
C 	C 	0.16610 0.02503 0.48389 0.26800
O 	O 	0.08016 0.03022 0.55452 -0.36700
O 	O 	0.05127 0.99252 0.55565 -0.39700
C 	C 	0.05459 0.01980 0.55588 0.28700
C 	C 	0.07616 0.02234 0.45026 0.31300
O 	O 	0.09813 0.95773 0.50984 -0.44400
O 	O 	0.09407 0.04267 0.45643 -0.28800
O 	O 	0.08095 0.99984 0.46937 -0.52000
C 	C 	0.10956 0.95381 0.54451 0.29100
O 	O 	0.12288 0.97551 0.56001 -0.33800
C 	C 	0.30709 0.02514 0.83169 0.11500
N 	N 	0.33122 0.03787 0.81996 -0.14100
C 	C 	0.34735 0.05112 0.84803 0.12900
N 	N 	0.33895 0.05210 0.88779 -0.14300
C 	C 	0.31454 0.03992 0.89960 0.12900
N 	N 	0.29904 0.02564 0.87165 -0.13500
C 	C 	0.29853 0.08250 0.26694 0.11300
N 	N 	0.29157 0.07762 0.22752 -0.13900
C 	C 	0.31075 0.08195 0.19715 0.12800
N 	N 	0.33604 0.09324 0.20614 -0.14400
C 	C 	0.34269 0.09897 0.24545 0.12800
N 	N 	0.32425 0.09265 0.27581 -0.14100
C 	C 	0.30689 0.03944 0.94337 -0.04600
C 	C 	0.28212 0.05246 0.95956 0.10300
C 	C 	0.27858 0.05649 0.00195 -0.08300
C 	C 	0.30004 0.04961 0.02802 -0.00400
C 	C 	0.32401 0.03521 0.01205 0.07400
C 	C 	0.32671 0.02954 0.96998 -0.05300
N 	N 	0.26212 0.06186 0.93481 -0.19900
H 	H 	0.25985 0.06669 0.01447 0.06200
C 	C 	0.29827 0.05956 0.07129 -0.00300
N 	N 	0.34477 0.02737 0.03671 -0.19400
H 	H 	0.34520 0.01880 0.95766 0.05200
C 	C 	0.29077 0.04057 0.10111 -0.08500
C 	C 	0.29544 0.04701 0.14240 0.10300
C 	C 	0.30436 0.07436 0.15439 -0.04900
C 	C 	0.30915 0.09423 0.12471 -0.05200
C 	C 	0.30693 0.08693 0.08320 0.07300
H 	H 	0.28371 0.01979 0.09187 0.06000
N 	N 	0.29296 0.02648 0.16976 -0.19900
H 	H 	0.31556 0.11523 0.13390 0.05100
N 	N 	0.31356 0.10613 0.05502 -0.19400
H 	H 	0.28455 0.00704 0.16110 0.09200
H 	H 	0.30125 0.02873 0.19869 0.09700
H 	H 	0.32005 0.12621 0.06417 0.08700
H 	H 	0.31240 0.10142 0.02389 0.09200
H 	H 	0.36236 0.01676 0.02454 0.08700
H 	H 	0.34385 0.03178 0.06800 0.09000
H 	H 	0.26453 0.06057 0.90322 0.10300
H 	H 	0.24387 0.07109 0.94725 0.09500
C 	C 	0.27924 0.07463 0.30002 -0.00500
C 	C 	0.25268 0.08684 0.30410 -0.02800
C 	C 	0.23503 0.08085 0.33720 -0.03300
C 	C 	0.24407 0.06282 0.36726 -0.00400
C 	C 	0.27002 0.04879 0.36113 0.02700
C 	C 	0.28780 0.05550 0.32833 -0.04900
C 	C 	0.27737 0.02739 0.38678 -0.04500
C 	C 	0.25879 0.01899 0.41734 -0.03500
C 	C 	0.23339 0.03312 0.42461 0.01300
C 	C 	0.22683 0.05654 0.40165 0.01200
C 	C 	0.20372 0.07335 0.41428 -0.04700
C 	C 	0.18492 0.06420 0.44422 0.00400
C 	C 	0.18936 0.03872 0.46265 -0.05400
C 	C 	0.21425 0.02394 0.45431 -0.01700
H 	H 	0.24569 0.10104 0.28162 0.04700
H 	H 	0.21400 0.08914 0.33813 0.04500
H 	H 	0.30809 0.04548 0.32439 0.04900
H 	H 	0.29714 0.01654 0.38209 0.04500
H 	H 	0.26427 0.00155 0.43562 0.04500
H 	H 	0.20062 0.09371 0.40199 0.04800
H 	H 	0.16629 0.07636 0.45188 0.04900
H 	H 	0.21816 0.00477 0.46979 0.04900
C 	C 	0.19536 0.95156 0.66336 -0.05100
C 	C 	0.21358 0.93350 0.68217 0.00500
C 	C 	0.23551 0.94433 0.70532 -0.04300
C 	C 	0.24009 0.97362 0.70859 0.01200
C 	C 	0.22400 0.99120 0.68444 0.01400
C 	C 	0.20334 0.97955 0.65945 -0.02000
C 	C 	0.22635 0.02033 0.68904 -0.03300
C 	C 	0.24215 0.03236 0.72001 -0.04400
C 	C 	0.25745 0.01556 0.74529 0.02900
C 	C 	0.25810 0.98612 0.73821 -0.00200
C 	C 	0.27665 0.97016 0.76081 -0.03000
C 	C 	0.29156 0.98282 0.79255 -0.02600
C 	C 	0.28941 0.01162 0.80098 0.00000
C 	C 	0.27262 0.02798 0.77716 -0.04900
H 	H 	0.20875 0.91140 0.68303 0.04900
H 	H 	0.24710 0.93003 0.72292 0.04900
H 	H 	0.19077 0.99314 0.64165 0.05700
H 	H 	0.21451 0.03375 0.67005 0.04800
H 	H 	0.24241 0.05493 0.72448 0.05000
H 	H 	0.28107 0.94857 0.75253 0.04200
H 	H 	0.30560 0.97032 0.80969 0.04600
H 	H 	0.27170 0.05043 0.78304 0.05500
C 	C 	0.06331 0.32383 0.52432 -0.04800
C 	C 	0.08552 0.31227 0.54573 0.10300
C 	C 	0.08292 0.31015 0.58818 -0.08500
C 	C 	0.05875 0.31972 0.60947 -0.00400
C 	C 	0.03571 0.32923 0.58758 0.07300
C 	C 	0.03808 0.33058 0.54508 -0.05000
N 	N 	0.10953 0.30367 0.52597 -0.20000
H 	H 	0.10024 0.30216 0.60488 0.05700
C 	C 	0.05922 0.32305 0.65449 -0.00500
N 	N 	0.01162 0.33781 0.60718 -0.19400
H 	H 	0.02080 0.33869 0.52840 0.05000
C 	C 	0.07325 0.34608 0.67200 -0.08400
C 	C 	0.07176 0.35161 0.71420 0.10200
C 	C 	0.05415 0.33505 0.73884 -0.04700
C 	C 	0.04175 0.31087 0.72181 -0.05300
C 	C 	0.04470 0.30432 0.67987 0.07400
H 	H 	0.08539 0.35971 0.65272 0.05600
N 	N 	0.08787 0.37223 0.73098 -0.19800
H 	H 	0.02913 0.29755 0.74095 0.05800
N 	N 	0.03319 0.28038 0.66414 -0.19400
H 	H 	0.09972 0.38528 0.71245 0.08700
H 	H 	0.09010 0.37439 0.76242 0.09300
H 	H 	0.02183 0.26708 0.68289 0.09600
H 	H 	0.03598 0.27440 0.63345 0.09700
H 	H 	0.99483 0.34493 0.59071 0.08800
H 	H 	0.00921 0.33753 0.63876 0.09300
H 	H 	0.11180 0.30412 0.49437 0.09500
H 	H 	0.12610 0.29582 0.54218 0.08900
C 	C 	0.15209 0.05604 0.83922 -0.05400
C 	C 	0.17626 0.04483 0.85605 0.02200
C 	C 	0.18632 0.01860 0.84125 -0.04300
C 	C 	0.17049 0.00257 0.81315 0.02600
C 	C 	0.14408 0.01237 0.80148 -0.09200
C 	C 	0.13438 0.03856 0.81652 0.01900
C 	C 	0.18753 0.05819 0.89380 0.01300
C 	C 	0.21302 0.00843 0.85431 0.09800
C 	C 	0.10566 0.04681 0.81081 0.01600
C 	C 	0.17720 0.04940 0.93182 -0.04600
C 	C 	0.16989 0.06981 0.96224 0.01200
C 	C 	0.17074 0.09805 0.95251 -0.09100
C 	C 	0.18956 0.10585 0.92125 0.01700
C 	C 	0.19889 0.08528 0.89216 -0.04400
C 	C 	0.17214 0.02007 0.93822 0.09800
C 	C 	0.19733 0.13488 0.91743 0.08300
C 	C 	0.16332 0.06221 0.00348 0.09500
C 	C 	0.21749 0.09237 0.85869 0.09500
C 	C 	0.14765 0.08597 0.84032 0.01800
C 	C 	0.18117 0.97607 0.79653 0.08100
N 	N 	0.15823 0.05627 0.03663 -0.09700
N 	N 	0.16812 0.99659 0.94328 -0.10800
N 	N 	0.20353 0.15811 0.91437 -0.10700
N 	N 	0.23237 0.09798 0.83191 -0.11800
N 	N 	0.23432 0.00031 0.86484 -0.11200
N 	N 	0.18968 0.95490 0.78330 -0.10600
N 	N 	0.08268 0.05342 0.80662 -0.13300
N 	N 	0.14430 0.10993 0.84072 -0.16200
C 	C 	0.08097 0.22177 0.02789 -0.05300
C 	C 	0.09754 0.24595 0.02763 0.00300
C 	C 	0.08887 0.26908 0.00651 -0.04400
C 	C 	0.06381 0.26761 0.98479 0.01200
C 	C 	0.04443 0.24621 0.99384 0.01800
C 	C 	0.05290 0.22376 0.01690 -0.01800
C 	C 	0.01795 0.24608 0.97661 -0.03300
C 	C 	0.01145 0.26549 0.94775 -0.04000
C 	C 	0.03174 0.28454 0.93435 0.03000
C 	C 	0.05838 0.28559 0.95244 -0.00000
C 	C 	0.07968 0.30213 0.93483 -0.03200
C 	C 	0.07409 0.31831 0.90159 -0.02700
C 	C 	0.04753 0.31795 0.88481 -0.00300
C 	C 	0.02631 0.30133 0.90136 -0.04600
H 	H 	0.11833 0.24573 0.03991 0.03900
H 	H 	0.10154 0.28782 0.00721 0.04500
H 	H 	0.03905 0.20603 0.02077 0.06000
H 	H 	0.00266 0.23036 0.98464 0.05700
H 	H 	0.99102 0.26477 0.93425 0.05300
H 	H 	0.10089 0.30150 0.94521 0.04300
H 	H 	0.09060 0.33096 0.88852 0.04100
H 	H 	0.00581 0.30098 0.88800 0.05500
C 	C 	0.01630 0.00895 0.37859 -0.04800
C 	C 	0.00993 0.03665 0.36975 0.02800
C 	C 	0.01840 0.05856 0.39655 -0.04400
C 	C 	0.03809 0.05328 0.42631 0.03200
C 	C 	0.04993 0.02632 0.42807 -0.11900
C 	C 	0.03763 0.00367 0.40591 0.01900
C 	C 	0.00122 0.04321 0.32820 0.02800
C 	C 	0.00782 0.08663 0.39220 0.09800
C 	C 	0.04819 0.97546 0.40884 -0.04200
C 	C 	0.97499 0.05549 0.32281 -0.04800
C 	C 	0.97212 0.07537 0.29276 0.02200
C 	C 	0.99492 0.08051 0.26569 -0.12100
C 	C 	0.01827 0.06239 0.26480 0.03400
C 	C 	0.02157 0.04390 0.29649 -0.04500
C 	C 	0.95154 0.04860 0.34925 0.05100
C 	C 	0.03882 0.06296 0.23163 0.08100
C 	C 	0.94661 0.09157 0.29142 -0.04300
C 	C 	0.04622 0.02636 0.29733 0.09900
C 	C 	0.00208 0.98607 0.35778 0.05100
C 	C 	0.04632 0.07548 0.45475 0.08200
N 	N 	0.92626 0.10453 0.29025 -0.22100
N 	N 	0.93277 0.04308 0.37035 -0.17300
N 	N 	0.05522 0.06360 0.20518 -0.09600
N 	N 	0.06587 0.01232 0.29806 -0.11200
N 	N 	0.99932 0.10900 0.38859 -0.11200
N 	N 	0.05316 0.09309 0.47746 -0.09700
N 	N 	0.05662 0.95295 0.41120 -0.21500
N 	N 	0.99072 0.96780 0.34113 -0.17400
C 	C 	0.03708 0.21164 0.21475 -0.05100
C 	C 	0.05730 0.20364 0.24209 0.00400
C 	C 	0.06745 0.22305 0.27101 -0.04600
C 	C 	0.05655 0.25049 0.27371 0.01200
C 	C 	0.04000 0.25953 0.24167 0.01400
C 	C 	0.03017 0.23995 0.21253 -0.01800
C 	C 	0.03251 0.28773 0.24006 -0.03500
C 	C 	0.03967 0.30669 0.27127 -0.04400
C 	C 	0.05302 0.29749 0.30578 0.02700
C 	C 	0.06134 0.26915 0.30770 -0.00400
C 	C 	0.07159 0.25967 0.34470 -0.03200
C 	C 	0.07477 0.27831 0.37809 -0.02800
C 	C 	0.06703 0.30647 0.37579 -0.00400
C 	C 	0.05655 0.31602 0.33936 -0.05000
H 	H 	0.06395 0.18202 0.24249 0.04900
H 	H 	0.08405 0.21680 0.29036 0.04800
H 	H 	0.01550 0.24636 0.19009 0.04800
H 	H 	0.02080 0.29496 0.21475 0.04500
H 	H 	0.03366 0.32843 0.26947 0.04400
H 	H 	0.07568 0.23778 0.34867 0.04500
H 	H 	0.08280 0.27065 0.40604 0.04800
H 	H 	0.05006 0.33764 0.33761 0.05200
C 	C 	0.51165 0.12394 0.30809 -0.05100
C 	C 	0.49460 0.10257 0.32410 0.10100
C 	C 	0.46551 0.10372 0.31962 -0.08500
C 	C 	0.45347 0.12551 0.29885 -0.00500
C 	C 	0.47003 0.14886 0.28851 0.07100
C 	C 	0.49902 0.14801 0.29396 -0.05200
N 	N 	0.50605 0.08051 0.34249 -0.20000
H 	H 	0.45249 0.08658 0.32961 0.05600
C 	C 	0.42531 0.12134 0.28198 -0.00400
N 	N 	0.45842 0.17163 0.27211 -0.19400
H 	H 	0.51205 0.16508 0.28372 0.04900
C 	C 	0.40204 0.13340 0.30262 -0.08700
C 	C 	0.37500 0.12902 0.28803 0.10200
C 	C 	0.37094 0.10944 0.25529 -0.05000
C 	C 	0.39428 0.09789 0.23407 -0.05300
C 	C 	0.42149 0.10427 0.24642 0.07200
H 	H 	0.40507 0.14706 0.32921 0.05500
N 	N 	0.35336 0.14460 0.30412 -0.19900
H 	H 	0.39129 0.08346 0.20832 0.05100
N 	N 	0.44379 0.09391 0.22411 -0.19400
H 	H 	0.35617 0.15772 0.32982 0.08700
H 	H 	0.33428 0.14546 0.28954 0.09500
H 	H 	0.44073 0.08067 0.19861 0.08500
H 	H 	0.46428 0.09951 0.23101 0.09100
H 	H 	0.47095 0.18842 0.26347 0.08500
H 	H 	0.43686 0.17318 0.26855 0.08900
H 	H 	0.52741 0.07969 0.34799 0.09600
H 	H 	0.49338 0.06426 0.35274 0.08700
C 	C 	0.51915 0.08455 0.85971 -0.05000
C 	C 	0.50550 0.05912 0.86840 0.10200
C 	C 	0.47751 0.05530 0.85778 -0.08600
C 	C 	0.46377 0.07536 0.83560 -0.00500
C 	C 	0.47873 0.09895 0.82206 0.07000
C 	C 	0.50612 0.10369 0.83512 -0.05200
N 	N 	0.51936 0.03812 0.88593 -0.19900
H 	H 	0.46635 0.03671 0.86688 0.05600
C 	C 	0.43316 0.07278 0.83032 -0.00500
N 	N 	0.46701 0.11695 0.79643 -0.19400
H 	H 	0.51698 0.12269 0.82706 0.05100
C 	C 	0.41518 0.09129 0.85236 -0.08600
C 	C 	0.38623 0.08645 0.85391 0.10300
C 	C 	0.37548 0.06138 0.83622 -0.05000
C 	C 	0.39311 0.04414 0.81138 -0.05200
C 	C 	0.42179 0.05009 0.80738 0.07100
H 	H 	0.42377 0.10936 0.86856 0.05600
N 	N 	0.36884 0.10621 0.87132 -0.19900
H 	H 	0.38470 0.02556 0.79624 0.05200
N 	N 	0.43826 0.03404 0.78152 -0.19400
H 	H 	0.37698 0.12401 0.88614 0.08700
H 	H 	0.34720 0.10493 0.86811 0.09600
H 	H 	0.42994 0.01667 0.76584 0.08600
H 	H 	0.45912 0.03930 0.77548 0.08900
H 	H 	0.47781 0.13486 0.78773 0.08600
H 	H 	0.44762 0.11278 0.78364 0.08900
H 	H 	0.54099 0.03891 0.88939 0.09400
H 	H 	0.50878 0.01995 0.89409 0.08700
C 	C 	0.57216 0.09651 0.98475 -0.05400
C 	C 	0.59503 0.08256 0.00149 0.10600
C 	C 	0.59810 0.08348 0.04382 -0.08800
C 	C 	0.57767 0.09613 0.06971 -0.00300
C 	C 	0.55393 0.10863 0.05307 0.07000
C 	C 	0.55160 0.10895 0.01067 -0.04800
N 	N 	0.61343 0.06744 0.97731 -0.20000
H 	H 	0.61601 0.07356 0.05673 0.05900
C 	C 	0.58146 0.09640 0.11421 -0.00500
N 	N 	0.53339 0.12036 0.07754 -0.19400
H 	H 	0.53389 0.11924 0.99780 0.04900
C 	C 	0.59344 0.12000 0.13340 -0.08500
C 	C 	0.59299 0.12321 0.17600 0.10300
C 	C 	0.58071 0.10209 0.19965 -0.05000
C 	C 	0.57096 0.07743 0.18047 -0.05200
C 	C 	0.57111 0.07437 0.13788 0.07200
H 	H 	0.60206 0.13647 0.11510 0.05800
N 	N 	0.60381 0.14681 0.19387 -0.20000
H 	H 	0.56211 0.06104 0.19874 0.04900
N 	N 	0.56084 0.05053 0.11998 -0.19400
H 	H 	0.61235 0.16249 0.17607 0.08900
H 	H 	0.60422 0.14972 0.22543 0.09700
H 	H 	0.55277 0.03460 0.13775 0.08600
H 	H 	0.56108 0.04735 0.08842 0.09000
H 	H 	0.51611 0.12978 0.06491 0.08500
H 	H 	0.53411 0.11999 0.10918 0.09000
H 	H 	0.60971 0.06318 0.94658 0.09600
H 	H 	0.63097 0.05836 0.98972 0.09100
C 	C 	0.83603 0.18249 0.26142 -0.04000
C 	C 	0.86299 0.18381 0.24326 0.01900
C 	C 	0.88651 0.18110 0.26799 -0.04400
C 	C 	0.88309 0.17063 0.30723 0.01400
C 	C 	0.85623 0.16351 0.32201 -0.08400
C 	C 	0.83251 0.17159 0.30055 0.02500
C 	C 	0.86666 0.18151 0.19790 0.02100
C 	C 	0.91403 0.18932 0.25336 0.09700
C 	C 	0.80466 0.16738 0.31775 0.08800
C 	C 	0.88292 0.20163 0.17771 -0.03900
C 	C 	0.90306 0.19234 0.14793 0.02400
C 	C 	0.90588 0.16339 0.13949 -0.08200
C 	C 	0.88189 0.14701 0.14579 0.00800
C 	C 	0.86293 0.15520 0.17765 -0.04500
C 	C 	0.88068 0.23089 0.19007 0.10100
C 	C 	0.87978 0.11977 0.12547 0.04700
C 	C 	0.92279 0.21167 0.13031 0.09100
C 	C 	0.84171 0.13601 0.19180 0.08100
C 	C 	0.81205 0.19168 0.23953 0.10200
C 	C 	0.90730 0.16607 0.33169 0.05900
N 	N 	0.93860 0.22713 0.11622 -0.10500
N 	N 	0.87888 0.25429 0.20001 -0.11000
N 	N 	0.87813 0.09797 0.10923 -0.11100
N 	N 	0.82475 0.12065 0.20314 -0.11300
N 	N 	0.93601 0.19601 0.24184 -0.10400
N 	N 	0.92672 0.16241 0.35101 -0.10400
N 	N 	0.78244 0.16399 0.33151 -0.10600
N 	N 	0.79290 0.19901 0.22200 -0.11000
C 	C 	0.96455 0.11686 0.49519 -0.03900
C 	C 	0.96265 0.09452 0.52201 0.02300
C 	C 	0.93586 0.08504 0.53440 -0.03600
C 	C 	0.91212 0.09234 0.51248 0.01800
C 	C 	0.91483 0.11171 0.48124 -0.07700
C 	C 	0.94019 0.12661 0.47699 0.02100
C 	C 	0.98776 0.07661 0.52893 0.02400
C 	C 	0.93303 0.06642 0.56792 0.10700
C 	C 	0.94067 0.15297 0.45676 0.09600
C 	C 	0.00829 0.08516 0.55699 -0.03700
C 	C 	0.02964 0.06632 0.56716 0.02800
C 	C 	0.02985 0.03851 0.55054 -0.09000
C 	C 	0.00766 0.02966 0.52534 0.01600
C 	C 	0.98911 0.04949 0.51087 -0.04000
C 	C 	0.00839 0.11360 0.57378 0.11000
C 	C 	0.00158 0.00023 0.51845 0.01700
C 	C 	0.05098 0.07548 0.59515 0.09400
C 	C 	0.97099 0.04186 0.47768 0.09400
C 	C 	0.99125 0.12993 0.48648 0.10600
C 	C 	0.88532 0.07945 0.52145 0.08800
N 	N 	0.06809 0.08290 0.61733 -0.10000
N 	N 	0.00860 0.13633 0.58710 -0.10300
N 	N 	0.99628 0.97680 0.51300 -0.16700
N 	N 	0.95644 0.03590 0.45124 -0.11300
N 	N 	0.93068 0.05154 0.59466 -0.10400
N 	N 	0.86393 0.06916 0.52868 -0.09600
N 	N 	0.94109 0.17411 0.44084 -0.09700
N 	N 	0.01244 0.14068 0.47947 -0.10300
C 	C 	0.74356 0.10237 0.42111 -0.05400
C 	C 	0.73029 0.12836 0.42017 0.00500
C 	C 	0.70217 0.13005 0.40993 -0.04700
C 	C 	0.68659 0.10542 0.40140 0.01200
C 	C 	0.69992 0.07909 0.40424 0.01300
C 	C 	0.72799 0.07783 0.41543 -0.01600
C 	C 	0.68598 0.05446 0.39213 -0.03400
C 	C 	0.66032 0.05573 0.37327 -0.04400
C 	C 	0.64733 0.08154 0.36842 0.02700
C 	C 	0.65909 0.10633 0.38565 -0.00400
C 	C 	0.64327 0.13127 0.38593 -0.03300
C 	C 	0.61912 0.13253 0.36300 -0.02900
C 	C 	0.60977 0.10873 0.34126 -0.00500
C 	C 	0.62302 0.08300 0.34566 -0.04900
H 	H 	0.74232 0.14742 0.42440 0.04500
H 	H 	0.69346 0.15049 0.40575 0.04800
H 	H 	0.73836 0.05772 0.41646 0.05000
H 	H 	0.69584 0.03430 0.39521 0.04600
H 	H 	0.65070 0.03657 0.36183 0.04600
H 	H 	0.64881 0.14926 0.40488 0.04100
H 	H 	0.60797 0.15214 0.36155 0.04400
H 	H 	0.61491 0.06432 0.33036 0.04900
C 	C 	0.95425 0.04711 0.75410 -0.03900
C 	C 	0.96353 0.06139 0.71950 0.02400
C 	C 	0.94678 0.08272 0.70440 -0.03600
C 	C 	0.92176 0.09086 0.72533 0.02000
C 	C 	0.91354 0.07761 0.76141 -0.07300
C 	C 	0.92800 0.05345 0.77230 0.02500
C 	C 	0.99073 0.05350 0.69878 0.02200
C 	C 	0.95557 0.09679 0.66809 0.10600
C 	C 	0.91522 0.03442 0.80060 0.09200
C 	C 	0.99271 0.02858 0.67447 -0.03600
C 	C 	0.01898 0.01560 0.66766 0.01900
C 	C 	0.04263 0.02682 0.68702 -0.07400
C 	C 	0.04155 0.05458 0.70276 0.02400
C 	C 	0.01543 0.06780 0.70960 -0.03900
C 	C 	0.96756 0.01490 0.66019 0.10500
C 	C 	0.06723 0.06918 0.71246 0.09600
C 	C 	0.02112 0.98939 0.64428 0.09300
C 	C 	0.01383 0.09516 0.72992 0.10100
C 	C 	0.97262 0.02766 0.77293 0.10200
C 	C 	0.90384 0.11163 0.70851 0.09200
N 	N 	0.02266 0.96835 0.62585 -0.10200
N 	N 	0.94751 0.00384 0.64896 -0.10200
N 	N 	0.08775 0.08088 0.72006 -0.10500
N 	N 	0.01261 0.11701 0.74618 -0.11000
N 	N 	0.96237 0.10821 0.63913 -0.10700
N 	N 	0.88947 0.12808 0.69486 -0.09600
N 	N 	0.90502 0.01920 0.82315 -0.10900
N 	N 	0.98727 0.01226 0.78827 -0.12500
C 	C 	0.94249 0.18708 0.87211 -0.06100
C 	C 	0.96086 0.18074 0.83877 0.01200
C 	C 	0.95068 0.18071 0.79892 -0.04600
C 	C 	0.92160 0.18245 0.79306 0.01900
C 	C 	0.90297 0.18279 0.82708 -0.11300
C 	C 	0.91355 0.18898 0.86594 -0.01000
C 	C 	0.99000 0.17147 0.84607 0.02200
C 	C 	0.97001 0.17878 0.76426 0.10200
C 	C 	0.89451 0.19640 0.89964 0.04600
C 	C 	0.99564 0.14277 0.85017 -0.04400
C 	C 	0.01956 0.13459 0.87083 0.02600
C 	C 	0.03673 0.15509 0.88909 -0.11700
C 	C 	0.03397 0.18320 0.87845 0.03500
C 	C 	0.01059 0.19139 0.85658 -0.04400
C 	C 	0.97607 0.12189 0.83530 0.07400
C 	C 	0.05468 0.20367 0.89110 0.07500
C 	C 	0.02625 0.10523 0.87393 0.02400
C 	C 	0.00696 0.22039 0.84667 0.09900
C 	C 	0.95324 0.19033 0.91281 0.07500
C 	C 	0.91111 0.18599 0.75274 0.09100
N 	N 	0.03162 0.08179 0.87634 -0.13900
N 	N 	0.96045 0.10521 0.82345 -0.13700
N 	N 	0.07125 0.21999 0.90117 -0.10400
N 	N 	0.00405 0.24353 0.83875 -0.11700
N 	N 	0.98543 0.17730 0.73655 -0.10500
N 	N 	0.90278 0.18903 0.72051 -0.09500
N 	N 	0.87931 0.20232 0.92655 -0.11100
N 	N 	0.96186 0.19290 0.94526 -0.11500
C 	C 	0.75402 0.14865 0.80140 -0.05500
C 	C 	0.73930 0.13023 0.77552 0.00300
C 	C 	0.71018 0.12824 0.77931 -0.04700
C 	C 	0.69563 0.14370 0.81060 0.01100
C 	C 	0.70997 0.16544 0.83178 0.01200
C 	C 	0.73914 0.16771 0.82717 -0.01800
C 	C 	0.69521 0.18390 0.85851 -0.03500
C 	C 	0.66691 0.17952 0.86724 -0.04500
C 	C 	0.65326 0.15578 0.85111 0.02700
C 	C 	0.66740 0.13761 0.82227 -0.00400
C 	C 	0.65413 0.11242 0.80951 -0.03300
C 	C 	0.62769 0.10557 0.82530 -0.02900
C 	C 	0.61434 0.12313 0.85473 -0.00600
C 	C 	0.62654 0.14874 0.86619 -0.04900
H 	H 	0.75044 0.11688 0.75324 0.05100
H 	H 	0.69916 0.11545 0.75720 0.04700
H 	H 	0.75037 0.18330 0.84516 0.05300
H 	H 	0.70584 0.20138 0.87328 0.04400
H 	H 	0.65594 0.19381 0.88846 0.04500
H 	H 	0.66481 0.09716 0.78972 0.04300
H 	H 	0.61836 0.08567 0.81649 0.04400
H 	H 	0.61599 0.16239 0.88880 0.05000
C 	C 	0.06253 0.40179 0.43401 -0.05100
C 	C 	0.03605 0.41344 0.44497 0.10300
C 	C 	0.03212 0.44238 0.44320 -0.08600
C 	C 	0.05364 0.45965 0.42892 -0.00400
C 	C 	0.07953 0.44776 0.41545 0.07000
C 	C 	0.08383 0.41890 0.41865 -0.05200
N 	N 	0.01426 0.39694 0.45655 -0.20000
H 	H 	0.01218 0.45152 0.45289 0.05700
C 	C 	0.04927 0.49028 0.43058 -0.00500
N 	N 	0.10014 0.46381 0.39912 -0.19400
H 	H 	0.10386 0.40978 0.40938 0.04900
C 	C 	0.06031 0.50630 0.46292 -0.08600
C 	C 	0.05204 0.53419 0.47023 0.10200
C 	C 	0.03118 0.54563 0.44610 -0.05000
C 	C 	0.02193 0.53041 0.41175 -0.05200
C 	C 	0.03119 0.50292 0.40334 0.07100
H 	H 	0.07498 0.49687 0.48288 0.05600
N 	N 	0.06448 0.54999 0.49988 -0.19900
H 	H 	0.00679 0.53962 0.39229 0.05100
N 	N 	0.02262 0.48876 0.36926 -0.19400
H 	H 	0.07893 0.54104 0.51879 0.08600
H 	H 	0.06106 0.57151 0.50305 0.09300
H 	H 	0.00853 0.49789 0.34999 0.08600
H 	H 	0.03060 0.46902 0.36082 0.09000
H 	H 	0.11940 0.45496 0.39010 0.08600
H 	H 	0.09705 0.48499 0.39422 0.08900
H 	H 	0.01568 0.37516 0.45479 0.09500
H 	H 	0.99512 0.40586 0.46602 0.08800
C 	C 	0.98386 0.55182 0.86225 -0.05000
C 	C 	0.00904 0.54368 0.84159 0.10200
C 	C 	0.01708 0.51549 0.84032 -0.08600
C 	C 	0.00113 0.49568 0.86099 -0.00500
C 	C 	0.97815 0.50456 0.88629 0.07100
C 	C 	0.96948 0.53260 0.88623 -0.05300
N 	N 	0.02557 0.56286 0.82316 -0.19900
H 	H 	0.03549 0.50886 0.82254 0.05500
C 	C 	0.00761 0.46562 0.85371 -0.00500
N 	N 	0.96413 0.48625 0.91003 -0.19400
H 	H 	0.95075 0.53913 0.90333 0.05000
C 	C 	0.03088 0.45437 0.87223 -0.08600
C 	C 	0.03965 0.42689 0.86253 0.10200
C 	C 	0.02347 0.40968 0.83615 -0.05000
C 	C 	0.99992 0.42078 0.81813 -0.05200
C 	C 	0.99211 0.44877 0.82597 0.07200
H 	H 	0.04293 0.46746 0.89296 0.05500
N 	N 	0.06416 0.41761 0.87721 -0.19900
H 	H 	0.98772 0.40763 0.79766 0.05200
N 	N 	0.96995 0.45937 0.80651 -0.19400
H 	H 	0.07522 0.42997 0.89817 0.08600
H 	H 	0.07327 0.39888 0.86635 0.09200
H 	H 	0.95847 0.44664 0.78653 0.08600
H 	H 	0.96411 0.48032 0.81046 0.09100
H 	H 	0.94666 0.49279 0.92765 0.08700
H 	H 	0.97084 0.46562 0.91211 0.09100
H 	H 	0.02143 0.58425 0.82670 0.09400
H 	H 	0.04355 0.55656 0.80650 0.08600
C 	C 	0.94675 0.61337 0.76163 -0.05000
C 	C 	0.93321 0.59349 0.73600 0.10300
C 	C 	0.93766 0.59415 0.69373 -0.08600
C 	C 	0.95429 0.61510 0.67681 -0.00500
C 	C 	0.96390 0.63754 0.70205 0.07300
C 	C 	0.96039 0.63625 0.74447 -0.05300
N 	N 	0.91592 0.57386 0.75182 -0.19900
H 	H 	0.92899 0.57780 0.67410 0.05600
C 	C 	0.96434 0.61145 0.63395 -0.00400
N 	N 	0.97702 0.65992 0.68584 -0.19400
H 	H 	0.96964 0.65225 0.76412 0.05300
C 	C 	0.94604 0.61703 0.60269 -0.08600
C 	C 	0.95411 0.61176 0.56174 0.10300
C 	C 	0.98174 0.60257 0.55195 -0.04900
C 	C 	0.00013 0.59733 0.58325 -0.05200
C 	C 	0.99151 0.60099 0.62419 0.07300
H 	H 	0.92511 0.62459 0.61030 0.05700
N 	N 	0.93497 0.61447 0.53228 -0.19900
H 	H 	0.02121 0.59014 0.57572 0.05000
N 	N 	0.00927 0.59412 0.65387 -0.19400
H 	H 	0.91510 0.62255 0.53962 0.08800
H 	H 	0.93899 0.60720 0.50240 0.09400
H 	H 	0.02947 0.58702 0.64631 0.08600
H 	H 	0.00310 0.59507 0.68455 0.09100
H 	H 	0.98497 0.67592 0.70474 0.09200
H 	H 	0.97865 0.66209 0.65441 0.09400
H 	H 	0.91029 0.57446 0.78273 0.09400
H 	H 	0.90689 0.55851 0.73288 0.08700
C 	C 	0.97678 0.97453 0.00363 -0.03400
C 	C 	0.99419 0.98465 0.97211 0.02300
C 	C 	0.99435 0.97113 0.93324 -0.04000
C 	C 	0.97775 0.94714 0.92615 0.02200
C 	C 	0.96075 0.93662 0.95785 -0.07400
C 	C 	0.95994 0.95064 0.99645 0.02700
C 	C 	0.01302 0.00922 0.98001 0.02000
C 	C 	0.01133 0.98220 0.90036 0.09100
C 	C 	0.94056 0.94150 0.02793 0.09800
C 	C 	0.04175 0.00494 0.98588 -0.03900
C 	C 	0.06038 0.02784 0.98629 0.02200
C 	C 	0.05031 0.05513 0.98043 -0.07500
C 	C 	0.02117 0.05965 0.97861 0.02000
C 	C 	0.00256 0.03669 0.97839 -0.03800
C 	C 	0.05220 0.97686 0.99071 0.10000
C 	C 	0.01029 0.08784 0.97692 0.07900
C 	C 	0.08970 0.02332 0.99365 0.09300
C 	C 	0.97267 0.04130 0.97695 0.10100
C 	C 	0.97520 0.98949 0.04276 0.10700
C 	C 	0.97744 0.93382 0.88583 0.04700
N 	N 	0.11306 0.01937 0.99955 -0.09800
N 	N 	0.06050 0.95444 0.99455 -0.10700
N 	N 	0.00149 0.11029 0.97563 -0.10800
N 	N 	0.94878 0.04492 0.97602 -0.10800
N 	N 	0.02489 0.99105 0.87417 -0.15300
N 	N 	0.97715 0.92329 0.85359 -0.14400
N 	N 	0.92503 0.93419 0.05294 -0.09400
N 	N 	0.97384 0.00158 0.07387 -0.10600
C 	C 	0.84157 0.96166 0.97977 -0.04000
C 	C 	0.83706 0.97143 0.94061 0.02100
C 	C 	0.83384 0.95209 0.90762 -0.04300
C 	C 	0.83804 0.92337 0.91308 0.00100
C 	C 	0.84824 0.91440 0.95032 -0.08800
C 	C 	0.84653 0.93298 0.98487 0.02600
C 	C 	0.83765 0.00202 0.93350 0.02200
C 	C 	0.82707 0.96185 0.86790 0.08500
C 	C 	0.84756 0.92242 0.02550 0.10000
C 	C 	0.86349 0.01576 0.92780 -0.03800
C 	C 	0.86407 0.04354 0.91511 0.02600
C 	C 	0.83894 0.05679 0.90513 -0.08900
C 	C 	0.81308 0.04424 0.91535 0.03000
C 	C 	0.81246 0.01688 0.92986 -0.03900
C 	C 	0.88946 0.00104 0.93390 0.10100
C 	C 	0.78724 0.05956 0.91124 0.08600
C 	C 	0.89037 0.05852 0.91321 0.05100
C 	C 	0.78599 0.00383 0.94030 0.10100
C 	C 	0.84165 0.98120 0.01456 0.10500
C 	C 	0.83015 0.90307 0.88161 0.04800
N 	N 	0.91157 0.07020 0.91199 -0.17000
N 	N 	0.91015 0.98927 0.93876 -0.11000
N 	N 	0.76662 0.07180 0.90794 -0.10500
N 	N 	0.76487 0.99337 0.94864 -0.11000
N 	N 	0.82168 0.96969 0.83622 -0.11100
N 	N 	0.82383 0.88688 0.85647 -0.11800
N 	N 	0.84835 0.91406 0.05798 -0.09500
N 	N 	0.84171 0.99681 0.04229 -0.10600
C 	C 	0.00931 0.86125 0.82296 -0.04700
C 	C 	0.99887 0.85557 0.78383 0.02000
C 	C 	0.97326 0.84131 0.77954 -0.04700
C 	C 	0.95646 0.83594 0.81426 0.01500
C 	C 	0.96567 0.84426 0.85330 -0.12600
C 	C 	0.99252 0.85618 0.85768 0.03000
C 	C 	0.01191 0.86958 0.74848 0.02200
C 	C 	0.96397 0.83280 0.73936 0.09600
C 	C 	0.00216 0.86482 0.89769 0.07200
C 	C 	0.03623 0.85834 0.72914 -0.04400
C 	C 	0.05511 0.87616 0.70891 0.03200
C 	C 	0.04996 0.90527 0.70964 -0.10900
C 	C 	0.02397 0.91565 0.72505 0.02100
C 	C 	0.00414 0.89717 0.74124 -0.05000
C 	C 	0.04225 0.82879 0.73140 0.10300
C 	C 	0.01868 0.94538 0.72813 -0.00000
C 	C 	0.08025 0.86481 0.68900 0.08800
C 	C 	0.97618 0.90687 0.75249 0.09500
C 	C 	0.03682 0.87366 0.82734 0.09100
C 	C 	0.92977 0.82186 0.80985 0.05000
N 	N 	0.10032 0.85576 0.67308 -0.09900
N 	N 	0.04703 0.80518 0.73324 -0.11000
N 	N 	0.01408 0.96906 0.73132 -0.13900
N 	N 	0.95384 0.91458 0.76143 -0.13800
N 	N 	0.95657 0.82602 0.70727 -0.11000
N 	N 	0.90846 0.81063 0.80635 -0.11100
N 	N 	0.00985 0.87176 0.92957 -0.10000
N 	N 	0.05876 0.88358 0.83075 -0.13100
C 	C 	0.91170 0.77161 0.00169 -0.05100
C 	C 	0.93968 0.76317 0.00417 0.00400
C 	C 	0.94732 0.73558 0.99361 -0.04700
C 	C 	0.92705 0.71653 0.97881 0.01100
C 	C 	0.89844 0.72366 0.98424 0.01300
C 	C 	0.89092 0.75123 0.99589 -0.01900
C 	C 	0.87776 0.70374 0.97545 -0.03500
C 	C 	0.88505 0.67779 0.95758 -0.04400
C 	C 	0.91299 0.67190 0.94626 0.02700
C 	C 	0.93445 0.69115 0.95701 -0.00400
C 	C 	0.96200 0.68609 0.94166 -0.03300
C 	C 	0.96787 0.66253 0.91649 -0.02800
C 	C 	0.94653 0.64395 0.90549 -0.00500
C 	C 	0.91936 0.64811 0.92140 -0.04900
H 	H 	0.95574 0.77834 0.01176 0.05200
H 	H 	0.96867 0.72913 0.99772 0.04800
H 	H 	0.86908 0.75739 0.99671 0.04900
H 	H 	0.85587 0.70863 0.98146 0.04400
H 	H 	0.86871 0.66282 0.95038 0.04400
H 	H 	0.97855 0.70108 0.94679 0.04400
H 	H 	0.98888 0.65944 0.90394 0.04400
H 	H 	0.90288 0.63365 0.91266 0.04800
C 	C 	0.05454 0.96989 0.19721 -0.03900
C 	C 	0.02907 0.97212 0.17683 0.02200
C 	C 	0.01158 0.94838 0.17317 -0.03700
C 	C 	0.01594 0.92528 0.19767 0.01800
C 	C 	0.03927 0.92503 0.22315 -0.07800
C 	C 	0.06022 0.94559 0.21856 0.02100
C 	C 	0.01770 0.00037 0.16772 0.02400
C 	C 	0.98806 0.94854 0.14635 0.10600
C 	C 	0.08798 0.94096 0.23356 0.09600
C 	C 	0.02814 0.01526 0.13429 -0.03400
C 	C 	0.01689 0.04184 0.12636 0.03100
C 	C 	0.99242 0.05151 0.14782 -0.08500
C 	C 	0.98007 0.03437 0.17768 0.01900
C 	C 	0.99489 0.01131 0.19107 -0.03800
C 	C 	0.05001 0.00321 0.10782 0.10500
C 	C 	0.95101 0.03769 0.19038 0.01700
C 	C 	0.03065 0.05915 0.09675 0.09500
C 	C 	0.98635 0.99848 0.22857 0.09500
C 	C 	0.07470 0.99249 0.19658 0.10600
C 	C 	0.99615 0.90230 0.19730 0.08700
N 	N 	0.04175 0.07313 0.07338 -0.09500
N 	N 	0.06753 0.99358 0.08679 -0.10400
N 	N 	0.92773 0.03968 0.20062 -0.17500
N 	N 	0.97960 0.98815 0.25847 -0.11200
N 	N 	0.96918 0.94854 0.12510 -0.10000
N 	N 	0.98035 0.88395 0.19692 -0.09600
N 	N 	0.11019 0.93726 0.24537 -0.09600
N 	N 	0.09096 0.01042 0.19606 -0.10100
C 	C 	0.88921 0.99195 0.34434 -0.03800
C 	C 	0.89111 0.97018 0.37188 0.02400
C 	C 	0.87625 0.97245 0.40951 -0.03900
C 	C 	0.86427 0.99830 0.42272 0.02900
C 	C 	0.86246 0.02024 0.39512 -0.09900
C 	C 	0.87242 0.01546 0.35446 0.01200
C 	C 	0.90966 0.94543 0.36196 0.02400
C 	C 	0.87302 0.94820 0.43431 0.10400
C 	C 	0.86393 0.03347 0.32256 0.02600
C 	C 	0.93362 0.94086 0.38492 -0.03900
C 	C 	0.95162 0.91837 0.37412 0.01300
C 	C 	0.94917 0.90410 0.33578 -0.09800
C 	C 	0.92493 0.90858 0.31292 0.02800
C 	C 	0.90409 0.92730 0.32832 -0.03900
C 	C 	0.93990 0.95926 0.41949 0.09000
C 	C 	0.92176 0.89495 0.27321 0.09300
C 	C 	0.97110 0.90877 0.40359 0.02300
C 	C 	0.87693 0.92776 0.30981 0.10400
C 	C 	0.90462 0.99035 0.30578 0.09100
C 	C 	0.85493 0.00244 0.46478 0.09200
N 	N 	0.98662 0.90118 0.42719 -0.13800
N 	N 	0.94489 0.97383 0.44722 -0.11000
N 	N 	0.91910 0.88413 0.24148 -0.09200
N 	N 	0.85524 0.92817 0.29505 -0.10600
N 	N 	0.87046 0.92883 0.45408 -0.10700
N 	N 	0.84749 0.00562 0.49840 -0.09300
N 	N 	0.85719 0.04781 0.29704 -0.13200
N 	N 	0.91679 0.98909 0.27490 -0.10800
C 	C 	0.14850 0.89332 0.51404 -0.03700
C 	C 	0.12447 0.88029 0.49822 0.02200
C 	C 	0.09931 0.88273 0.52154 -0.04300
C 	C 	0.09653 0.90469 0.55121 0.01300
C 	C 	0.11775 0.92507 0.55353 -0.07500
C 	C 	0.14513 0.91636 0.54196 0.02400
C 	C 	0.12306 0.87396 0.45344 0.02000
C 	C 	0.07585 0.86454 0.51259 0.08700
C 	C 	0.16892 0.93341 0.55321 0.09600
C 	C 	0.11544 0.84700 0.43902 -0.04000
C 	C 	0.10035 0.84382 0.40280 0.02500
C 	C 	0.09473 0.86753 0.38000 -0.08300
C 	C 	0.10840 0.89289 0.38955 0.01500
C 	C 	0.12258 0.89621 0.42637 -0.04300
C 	C 	0.12218 0.82289 0.46216 0.10300
C 	C 	0.10686 0.91590 0.36231 0.05800
C 	C 	0.08937 0.81668 0.39028 0.08900
C 	C 	0.13641 0.92241 0.43647 0.09700
C 	C 	0.17599 0.88486 0.49879 0.10100
C 	C 	0.07010 0.90947 0.57277 0.05900
N 	N 	0.08058 0.79501 0.38028 -0.10500
N 	N 	0.12756 0.80364 0.48068 -0.10900
N 	N 	0.10564 0.93434 0.34070 -0.10500
N 	N 	0.14753 0.94332 0.44438 -0.10500
N 	N 	0.05710 0.85002 0.50542 -0.11100
N 	N 	0.04887 0.91315 0.58982 -0.10500
N 	N 	0.18798 0.94705 0.56199 -0.10600
N 	N 	0.19796 0.87809 0.48656 -0.11000
C 	C 	0.00004 0.64031 0.41728 -0.00600
C 	C 	0.02373 0.64843 0.39470 -0.02800
C 	C 	0.02299 0.67217 0.37133 -0.03300
C 	C 	0.99802 0.68782 0.36921 -0.00300
C 	C 	0.97416 0.67960 0.39245 0.02600
C 	C 	0.97513 0.65549 0.41532 -0.04800
C 	C 	0.95024 0.69657 0.39486 -0.04400
C 	C 	0.95048 0.72262 0.37737 -0.03400
C 	C 	0.97404 0.73144 0.35510 0.01300
C 	C 	0.99701 0.71313 0.34786 0.01200
C 	C 	0.01838 0.72084 0.31994 -0.04700
C 	C 	0.01958 0.74815 0.30633 0.00400
C 	C 	0.99890 0.76758 0.31884 -0.05400
C 	C 	0.97531 0.75871 0.34099 -0.01600
H 	H 	0.04319 0.63705 0.39666 0.04600
H 	H 	0.04228 0.67916 0.35726 0.04300
H 	H 	0.95679 0.64911 0.43278 0.04900
H 	H 	0.93183 0.69015 0.41207 0.04500
H 	H 	0.93237 0.73614 0.38154 0.04600
H 	H 	0.03351 0.70574 0.30782 0.04700
H 	H 	0.03713 0.75447 0.28727 0.04700
H 	H 	0.95861 0.77343 0.34891 0.05200
