data_crystal

_cell_length_a 16.84481
_cell_length_b 17.54192
_cell_length_c 65.19782
_cell_angle_alpha 89.50374
_cell_angle_beta  89.50822
_cell_angle_gamma 119.49426

_symmetry_space_group_name_	'P 1'
_symmetry_space_group_name_H-M	'P 1'

loop_
_symmetry_equiv_pos_as_xyz
  x,y,z

loop_
_atom_site_label
_atom_site_type_symbol
_atom_site_fract_x
_atom_site_fract_y
_atom_site_fract_z
_atom_site_charge
C 	C 	0.04733 0.65763 0.31795 -0.03600
C 	C 	0.02599 0.79638 0.25666 0.01800
H 	H 	0.01989 0.78682 0.24023 0.03600
C 	C 	0.03756 0.81648 0.29927 -0.06400
C 	C 	0.08610 0.62763 0.33258 -0.03800
C 	C 	0.02373 0.10934 0.28923 0.01800
H 	H 	0.04237 0.82495 0.31574 0.04900
H 	H 	0.12509 0.67545 0.40529 0.08700
H 	H 	0.03681 0.71502 0.61186 0.04900
O 	O 	0.02821 0.09724 0.24373 -0.38500
C 	C 	0.03163 0.17251 0.27476 -0.09300
H 	H 	0.02660 0.83043 0.63093 0.04400
C 	C 	0.06664 0.76272 0.28980 0.02900
C 	C 	0.12273 0.66265 0.43728 0.10800
C 	C 	0.06233 0.75413 0.26841 -0.06500
H 	H 	0.00752 0.53655 0.08270 0.04500
H 	H 	0.01211 0.16238 0.13086 0.04200
C 	C 	0.01067 0.71593 0.14852 0.00200
H 	H 	0.04038 0.06293 0.55150 0.03200
H 	H 	0.04062 0.18853 0.58196 0.04600
C 	C 	0.05896 0.50660 0.59918 -0.03700
H 	H 	0.05910 0.08577 0.31933 0.04000
C 	C 	0.02732 0.32724 0.11147 -0.03700
C 	C 	0.06366 0.13492 0.30846 -0.06900
C 	C 	0.01734 0.51662 0.06767 -0.06300
C 	C 	0.00092 0.89192 0.82872 -0.03400
C 	C 	0.04866 0.14863 0.61279 0.02100
C 	C 	0.06515 0.56074 0.61542 -0.03700
H 	H 	0.08111 0.29479 0.34725 0.03600
C 	C 	0.10210 0.71611 0.30235 0.00100
C 	C 	0.13156 0.66727 0.47434 -0.04200
H 	H 	0.08540 0.71341 0.26095 0.04800
O 	O 	0.03112 0.90590 0.66570 -0.36600
H 	H 	0.00267 0.78283 0.75130 0.03300
N 	N 	0.16354 0.69309 0.41867 -0.19800
C 	C 	0.04356 0.38112 0.09427 -0.03900
C 	C 	0.00163 0.90821 0.79069 0.02300
C 	C 	0.00095 0.85835 0.28754 0.01700
C 	C 	0.07526 0.26112 0.28009 0.01800
H 	H 	0.03581 0.66733 0.09935 0.03800
C 	C 	0.07403 0.16407 0.59207 -0.07200
H 	H 	0.09032 0.08518 0.51510 0.03200
C 	C 	0.01301 0.84088 0.75928 0.02300
H 	H 	0.08086 0.31028 0.26910 0.03300
C 	C 	0.05678 0.09095 0.64734 0.30900
O 	O 	0.04090 0.17284 0.68815 -0.37700
C 	C 	0.02847 0.91578 0.74812 -0.08900
C 	C 	0.05258 0.68470 0.11524 -0.03600
H 	H 	0.12032 0.51845 0.59098 0.03900
H 	H 	0.02752 0.17278 0.74216 0.02300
C 	C 	0.04820 0.46631 0.02925 0.01800
C 	C 	0.03006 0.98721 0.77993 -0.02900
C 	C 	0.17562 0.68143 0.45518 -0.08700
C 	C 	0.10867 0.11386 0.54733 -0.04000
H 	H 	0.03419 0.04334 0.78771 0.01500
H 	H 	0.08291 0.34019 0.12166 0.03800
C 	C 	0.11216 0.22396 0.31336 0.02700
O 	O 	0.05647 0.92289 0.71150 -0.35300
C 	C 	0.09119 0.11663 0.62609 -0.09600
H 	H 	0.17154 0.68823 0.48818 0.05400
C 	C 	0.11565 0.28685 0.29933 -0.06700
C 	C 	0.06857 0.58029 0.05275 0.00900
H 	H 	0.06219 0.44636 0.01459 0.03000
Ni	Ni	0.07255 0.00651 0.68653 1.09400
C 	C 	0.04461 0.99123 0.75871 0.04800
C 	C 	0.17969 0.65568 0.33165 -0.00000
H 	H 	0.26269 0.77785 0.36046 0.05100
C 	C 	0.13680 0.12670 0.52670 -0.04100
H 	H 	0.05918 0.05024 0.75027 -0.00100
C 	C 	0.14245 0.28957 0.34820 -0.04000
H 	H 	0.13122 0.61403 0.61964 0.04100
H 	H 	0.07043 0.90397 0.82788 0.04400
C 	C 	0.09187 0.55542 0.03428 -0.08100
H 	H 	0.09851 0.64901 0.05645 0.03100
C 	C 	0.09823 0.73995 0.15569 -0.03700
C 	C 	0.14235 0.14806 0.58441 0.02700
O 	O 	0.11243 0.09570 0.66197 -0.38200
C 	C 	0.09016 0.17197 0.70394 0.28500
H 	H 	0.11203 0.43393 0.09101 0.03700
C 	C 	0.16675 0.25190 0.33218 -0.00200
H 	H 	0.15231 0.35575 0.30306 0.04700
C 	C 	0.22554 0.64815 0.34999 0.02800
H 	H 	0.23337 0.73750 0.41749 0.08700
C 	C 	0.26738 0.71922 0.36326 -0.06600
H 	H 	0.11710 0.76368 0.17116 0.04200
H 	H 	0.17954 0.35216 0.37749 0.03800
C 	C 	0.09291 0.22955 0.73853 0.01000
C 	C 	0.16962 0.16508 0.56257 -0.00300
C 	C 	0.19375 0.73750 0.30035 -0.03600
O 	O 	0.12174 0.11614 0.70483 -0.38100
C 	C 	0.19817 0.32192 0.36535 -0.04000
C 	C 	0.16076 0.10207 0.61848 0.01700
C 	C 	0.12697 0.24492 0.71832 -0.08400
C 	C 	0.14133 0.71267 0.12211 -0.00100
H 	H 	0.19895 0.51687 0.34366 0.04600
H 	H 	0.12346 0.26422 0.77016 0.04300
C 	C 	0.23122 0.57214 0.35384 -0.06600
C 	C 	0.23232 0.70707 0.31491 -0.03600
C 	C 	0.18621 0.11772 0.59773 -0.07200
C 	C 	0.26496 0.68458 0.45403 0.29300
C 	C 	0.22589 0.19100 0.52121 -0.00200
O 	O 	0.26667 0.61866 0.44465 -0.38700
C 	C 	0.16324 0.73814 0.14253 -0.03700
H 	H 	0.25594 0.29514 0.40780 0.04300
H 	H 	0.24410 0.06432 0.50135 0.03800
H 	H 	0.19348 0.07658 0.62850 0.02400
C 	C 	0.14749 0.28138 0.75443 -0.06500
C 	C 	0.31765 0.71596 0.37976 0.01500
H 	H 	0.17131 0.59023 0.10397 0.04500
C 	C 	0.17935 0.61511 0.02429 0.28500
O 	O 	0.18290 0.67500 0.01108 -0.38100
C 	C 	0.24547 0.24405 0.33375 -0.03900
H 	H 	0.23625 0.78148 0.28817 0.04500
C 	C 	0.26140 0.19477 0.50024 0.02300
C 	C 	0.28110 0.56861 0.37054 0.01700
C 	C 	0.25751 0.23120 0.55699 -0.03900
H 	H 	0.23932 0.10545 0.59195 0.04100
H 	H 	0.26428 0.21428 0.32153 0.03700
C 	C 	0.27872 0.12812 0.49387 -0.06900
C 	C 	0.21373 0.72744 0.10720 0.02800
H 	H 	0.04471 0.58712 0.34532 0.03900
C 	C 	0.21458 0.65592 0.09796 -0.06700
C 	C 	0.27974 0.31860 0.36640 -0.00100
H 	H 	0.28212 0.32337 0.49252 0.04700
C 	C 	0.21070 0.31999 0.71376 0.01700
H 	H 	0.23166 0.76005 0.14794 0.04100
H 	H 	0.28856 0.51138 0.37298 0.03500
C 	C 	0.28565 0.24385 0.53645 -0.04100
H 	H 	0.35244 0.77250 0.38949 0.02700
C 	C 	0.32518 0.64097 0.38342 -0.08400
O 	O 	0.33068 0.73647 0.46679 -0.38000
O 	O 	0.24318 0.59132 0.02465 -0.38100
C 	C 	0.30142 0.27435 0.48918 -0.06900
H 	H 	0.23695 0.33352 0.69814 0.03400
C 	C 	0.23608 0.35003 0.75015 0.02600
H 	H 	0.22378 0.43177 0.78438 0.03900
H 	H 	0.02917 0.79785 0.92817 0.09100
H 	H 	0.30449 0.72818 0.31395 0.04500
H 	H 	0.26046 0.61209 0.07206 0.02600
C 	C 	0.30173 0.27726 0.35078 -0.04000
C 	C 	0.03274 0.68593 0.93813 0.11500
C 	C 	0.12634 0.73159 0.94239 -0.04600
H 	H 	0.16422 0.80219 0.94030 0.05800
C 	C 	0.26547 0.66842 0.07993 0.01200
C 	C 	0.27185 0.81237 0.09962 -0.06700
H 	H 	0.27335 0.86824 0.10696 0.05100
C 	C 	0.32151 0.34996 0.40332 -0.06500
H 	H 	0.30471 0.27153 0.56862 0.03800
C 	C 	0.02802 0.54936 0.94784 -0.03400
C 	C 	0.16879 0.68888 0.95161 -0.08300
H 	H 	0.34088 0.52434 0.51217 0.10000
C 	C 	0.26507 0.37257 0.72963 -0.06500
C 	C 	0.11960 0.59616 0.95393 0.10200
N 	N 	0.15888 0.55192 0.96234 -0.19800
C 	C 	0.25488 0.74254 0.96267 0.28600
H 	H 	0.34486 0.42779 0.51964 0.08400
C 	C 	0.34965 0.14749 0.47986 0.00900
Ni	Ni	0.29406 0.79543 0.00622 1.11900
H 	H 	0.12159 0.48390 0.96429 0.08400
H 	H 	0.22650 0.58406 0.96687 0.08800
C 	C 	0.28332 0.42335 0.78414 -0.03900
O 	O 	0.35834 0.57836 0.41308 -0.37700
O 	O 	0.31071 0.80517 0.03720 -0.37800
C 	C 	0.31408 0.75218 0.07089 -0.09000
C 	C 	0.34674 0.36712 0.38250 0.02800
O 	O 	0.25736 0.79805 0.97672 -0.37500
N 	N 	0.26376 0.41310 0.97746 -0.19800
H 	H 	0.35662 0.39461 0.43423 0.02400
Ni	Ni	0.37209 0.59604 0.44423 1.11900
O 	O 	0.37572 0.59322 0.47510 -0.38800
C 	C 	0.32156 0.82469 0.08147 0.01900
H 	H 	0.36803 0.09781 0.47639 0.02600
H 	H 	0.35515 0.29227 0.53245 0.03600
C 	C 	0.30272 0.38745 0.76691 0.00000
H 	H 	0.23174 0.44601 0.98357 0.09500
H 	H 	0.23788 0.34720 0.98150 0.08100
H 	H 	0.31311 0.68970 0.99180 0.13100
C 	C 	0.33758 0.76099 0.04897 0.29800
H 	H 	0.38627 0.93625 0.41984 0.09800
N 	N 	0.37519 0.48839 0.51200 -0.20100
C 	C 	0.37426 0.29464 0.47563 0.01300
O 	O 	0.33069 0.74187 0.95699 -0.37800
C 	C 	0.01423 0.70336 0.62776 -0.06200
C 	C 	0.00793 0.76858 0.63854 0.01800
C 	C 	0.03575 0.61758 0.47580 0.10800
H 	H 	0.04114 0.53615 0.55684 0.04700
C 	C 	0.38754 0.64308 0.39917 0.28200
H 	H 	0.36374 0.27315 0.35156 0.03700
H 	H 	0.38564 0.02924 0.43092 0.06000
H 	H 	0.33216 0.42714 0.72607 0.04700
H 	H 	0.32158 0.47013 0.81488 0.03900
C 	C 	0.33001 0.45138 0.96279 0.11000
C 	C 	0.37894 0.40629 0.41832 0.01700
C 	C 	0.33878 0.44515 0.80141 -0.03900
H 	H 	0.34572 0.34164 0.83730 0.04400
H 	H 	0.03058 0.63553 0.50737 0.08500
H 	H 	0.33320 0.33300 0.95552 0.04600
H 	H 	0.36097 0.88999 0.07490 0.03800
O 	O 	0.36256 0.73984 0.99875 -0.70700
C 	C 	0.40540 0.23428 0.47292 -0.09200
O 	O 	0.36659 0.57999 0.99393 -0.37300
C 	C 	0.35414 0.39974 0.95076 -0.04200
H 	H 	0.42206 0.73122 0.43078 0.14200
Ni	Ni	0.38150 0.66705 0.01704 1.11100
N 	N 	0.42247 0.99961 0.42560 -0.15900
H 	H 	0.41187 0.35995 0.46899 0.04200
C 	C 	0.37122 0.54215 0.95834 -0.09500
C 	C 	0.38093 0.37814 0.76672 -0.03800
O 	O 	0.40029 0.74284 0.04257 -0.38400
H 	H 	0.39654 0.35032 0.75355 0.03800
C 	C 	0.39529 0.60700 0.97494 0.29300
O 	O 	0.39644 0.92127 0.00491 -0.38400
C 	C 	0.43345 0.43611 0.37700 -0.06600
C 	C 	0.45118 0.64388 0.48507 0.30700
O 	O 	0.45881 0.71636 0.43990 -0.70900
C 	C 	0.41426 0.43152 0.80157 0.00000
C 	C 	0.40879 0.57183 0.93861 -0.04100
Ni	Ni	0.46855 0.79348 0.46168 1.12100
O 	O 	0.46960 0.87534 0.43953 -0.38700
H 	H 	0.45450 0.44890 0.36101 0.04800
C 	C 	0.46079 0.52284 0.50390 0.11100
C 	C 	0.41870 0.38563 0.83767 -0.06500
C 	C 	0.41463 0.43778 0.93406 -0.09500
C 	C 	0.02746 0.60863 0.43875 -0.04000
H 	H 	0.42874 0.63812 0.93367 0.05000
O 	O 	0.46358 0.55403 0.44393 -0.39200
C 	C 	0.46124 0.48144 0.41256 -0.09500
H 	H 	0.39184 0.07179 0.99639 0.03600
C 	C 	0.43643 0.40019 0.78394 -0.03900
H 	H 	0.43226 0.34046 0.86748 0.03000
O 	O 	0.47463 0.70491 0.39776 -0.37000
C 	C 	0.42934 0.51877 0.92618 0.10700
Ni	Ni	0.44168 0.79288 0.97521 1.11900
H 	H 	0.47488 0.41043 0.51166 0.05100
O 	O 	0.44491 0.90890 0.97293 -0.38400
O 	O 	0.48357 0.72875 0.48536 -0.38500
H 	H 	0.46947 0.85868 0.51162 0.05100
H 	H 	0.39116 0.20718 0.99197 0.08100
C 	C 	0.45123 0.95676 0.98886 0.34300
O 	O 	0.46049 0.68829 0.97145 -0.37800
C 	C 	0.49096 0.49216 0.39197 0.02300
H 	H 	0.49750 0.98176 0.48851 0.02500
C 	C 	0.46401 0.44077 0.82079 0.02500
C 	C 	0.50344 0.26628 0.46909 0.30000
C 	C 	0.50419 0.60671 0.49455 -0.09600
C 	C 	0.46796 0.38432 0.85469 0.01000
C 	C 	0.50494 0.55648 0.42674 0.31000
C 	C 	0.51500 0.04576 0.42430 0.08300
C 	C 	0.50969 0.47763 0.50612 -0.04500
N 	N 	0.46835 0.54790 0.90736 -0.20100
H 	H 	0.48070 0.50762 0.89768 0.09100
H 	H 	0.48359 0.60999 0.90197 0.08800
C 	C 	0.45899 0.10221 0.98920 -0.03200
H 	H 	0.49452 0.38948 0.78388 0.03800
O 	O 	0.48518 0.36844 0.91520 -0.38400
H 	H 	0.52382 0.16742 0.43349 0.05300
C 	C 	0.48650 0.41491 0.93135 0.29600
N 	N 	0.45445 0.23537 0.98440 -0.19900
C 	C 	0.53531 0.91251 0.42528 0.32700
H 	H 	0.51461 0.91043 0.54866 0.04600
O 	O 	0.54013 0.22356 0.47763 -0.39200
H 	H 	0.51455 0.93106 0.12958 0.03900
H 	H 	0.51378 0.92022 0.09190 0.04800
C 	C 	0.53873 0.90540 0.50695 -0.08200
O 	O 	0.52048 0.72892 0.01157 -0.37200
C 	C 	0.50404 0.05363 0.98665 -0.13300
C 	C 	0.49776 0.18827 0.98134 0.10200
H 	H 	0.48495 0.30135 0.98003 0.09900
O 	O 	0.55603 0.34702 0.46212 -0.37500
Ni	Ni	0.56145 0.74795 0.42266 1.11200
H 	H 	0.55602 0.54729 0.38734 0.03500
C 	C 	0.56079 0.13657 0.42731 -0.03300
C 	C 	0.55455 0.97482 0.49372 0.05200
H 	H 	0.54149 0.89051 0.58478 0.04300
C 	C 	0.56587 0.00447 0.41879 -0.12200
O 	O 	0.56793 0.63250 0.41952 -0.37300
C 	C 	0.55559 0.88028 0.55231 -0.03600
O 	O 	0.54212 0.42858 0.94689 -0.37300
O 	O 	0.54357 0.28163 0.94049 -0.38100
C 	C 	0.55849 0.49805 0.82156 -0.06600
O 	O 	0.55543 0.85157 0.99282 -0.37300
C 	C 	0.56321 0.43774 0.85497 -0.08400
C 	C 	0.56584 0.81427 0.00946 0.29600
C 	C 	0.00042 0.14588 0.25371 0.28300
H 	H 	0.55634 0.95553 0.02317 0.05100
C 	C 	0.57140 0.86965 0.57283 -0.03300
O 	O 	0.58828 0.87846 0.42014 -0.37200
C 	C 	0.57713 0.94259 0.09998 -0.04400
C 	C 	0.57761 0.94883 0.12136 -0.01600
Ni	Ni	0.57801 0.32747 0.91125 1.11900
C 	C 	0.58094 0.22446 0.97005 -0.09200
O 	O 	0.58616 0.34980 0.88046 -0.38600
H 	H 	0.00721 0.12096 0.39729 0.04000
C 	C 	0.59246 0.93470 0.03336 -0.00100
H 	H 	0.59549 0.01824 0.05765 0.00800
C 	C 	0.59968 0.65205 0.49240 -0.04100
C 	C 	0.59437 0.09607 0.97856 0.11300
C 	C 	0.60240 0.51785 0.50028 -0.09200
H 	H 	0.59396 0.54174 0.80873 0.04600
O 	O 	0.60630 0.38255 0.50392 -0.37900
O 	O 	0.60707 0.87470 0.46210 -0.36000
C 	C 	0.60066 0.86113 0.53662 0.00700
C 	C 	0.60327 0.29443 0.95474 0.30700
C 	C 	0.60790 0.49675 0.83860 0.01200
C 	C 	0.61081 0.86786 0.02755 -0.07900
C 	C 	0.61352 0.96941 0.05308 -0.00700
C 	C 	0.61267 0.90292 0.51611 0.03400
H 	H 	0.61198 0.72053 0.60711 0.05000
C 	C 	0.61588 0.42842 0.87187 0.28400
H 	H 	0.62339 0.03753 0.19953 -0.02200
H 	H 	0.62276 0.98244 0.80363 0.08500
H 	H 	0.62247 0.02977 0.83904 0.02500
H 	H 	0.62993 0.06375 0.16207 0.07000
H 	H 	0.63114 0.12369 0.90018 0.03000
C 	C 	0.63080 0.18014 0.96975 -0.04900
H 	H 	0.63158 0.00768 0.99049 0.08600
C 	C 	0.63347 0.99474 0.18926 0.15400
H 	H 	0.63495 0.72053 0.48786 0.05800
C 	C 	0.63283 0.84055 0.57788 -0.00400
H 	H 	0.63487 0.61610 0.88334 0.02800
C 	C 	0.63743 0.00981 0.16802 -0.20000
C 	C 	0.99939 0.83701 0.78055 -0.06600
C 	C 	0.99755 0.40264 0.04420 -0.06600
C 	C 	0.99757 0.90623 0.72694 0.29200
H 	H 	0.99063 0.47856 0.94947 0.04800
N 	N 	0.99067 0.73167 0.93234 -0.20400
H 	H 	0.99409 0.10126 0.16595 0.02200
C 	C 	0.98723 0.68530 0.12846 -0.03900
H 	H 	0.99534 0.16079 0.61848 0.02500
C 	C 	0.98876 0.42816 0.06402 0.02400
C 	C 	0.99341 0.84722 0.26625 -0.08200
H 	H 	0.98802 0.86452 0.86112 0.04200
C 	C 	0.98314 0.59339 0.94068 -0.10000
H 	H 	0.97972 0.77634 0.78883 0.04800
H 	H 	0.97258 0.33414 0.04095 0.04400
C 	C 	0.97144 0.36800 0.08150 -0.00100
C 	C 	0.95648 0.89432 0.81088 0.00500
C 	C 	0.95449 0.87071 0.84762 -0.03700
H 	H 	0.96214 0.00906 0.70544 0.10500
C 	C 	0.98886 0.62232 0.63723 0.02600
C 	C 	0.97312 0.82402 0.67051 0.30300
C 	C 	0.97662 0.75371 0.65900 -0.08600
O 	O 	0.97057 0.06453 0.65137 -0.40800
O 	O 	0.95434 0.98803 0.69128 -0.66500
C 	C 	0.98553 0.55061 0.62501 -0.00100
C 	C 	0.95197 0.67275 0.66856 0.01600
C 	C 	0.95801 0.60734 0.65770 -0.06600
H 	H 	0.92875 0.66066 0.68441 0.03800
C 	C 	0.93885 0.25919 0.11599 -0.00400
C 	C 	0.88367 0.29763 0.08543 -0.04100
C 	C 	0.91926 0.21252 0.13593 0.02700
C 	C 	0.85128 0.18670 0.16999 0.01800
C 	C 	0.87981 0.72841 0.19432 0.01700
C 	C 	0.92013 0.79182 0.15385 -0.06500
H 	H 	0.93713 0.81796 0.13833 0.04900
H 	H 	0.91966 0.66589 0.12283 0.03900
C 	C 	0.86001 0.21949 0.15004 -0.07000
H 	H 	0.80694 0.19471 0.18083 0.03200
C 	C 	0.92405 0.69864 0.18108 -0.06700
C 	C 	0.94805 0.73319 0.16107 0.02700
O 	O 	0.97016 0.91291 0.23598 -0.37800
C 	C 	0.86739 0.24322 0.10262 -0.03900
H 	H 	0.82793 0.28605 0.07543 0.03600
H 	H 	0.86677 0.70531 0.21011 0.03700
C 	C 	0.82534 0.33109 0.51558 0.28700
C 	C 	0.66194 0.13047 0.48599 0.31700
C 	C 	0.64325 0.46222 0.49530 0.29900
C 	C 	0.70651 0.27605 0.43137 0.31000
C 	C 	0.90059 0.49290 0.45959 0.28700
Ni	Ni	0.64023 0.28342 0.49925 1.11200
Ni	Ni	0.69443 0.40424 0.45752 1.12100
Ni	Ni	0.80360 0.30232 0.46969 1.11900
O 	O 	0.75010 0.33614 0.51893 -0.37400
O 	O 	0.83377 0.28896 0.49951 -0.37600
O 	O 	0.66611 0.32290 0.43387 -0.38600
O 	O 	0.90748 0.42623 0.46757 -0.38100
O 	O 	0.65240 0.17165 0.50164 -0.38800
O 	O 	0.70643 0.17379 0.46941 -0.39000
O 	O 	0.82828 0.47999 0.44864 -0.37500
O 	O 	0.70384 0.48677 0.48000 -0.38700
O 	O 	0.78741 0.30243 0.43921 -0.39100
O 	O 	0.72410 0.34435 0.47811 -0.71600
H 	H 	0.76776 0.39592 0.48580 0.15000
C 	C 	0.78381 0.90918 0.65888 0.31700
C 	C 	0.66802 0.85116 0.45739 0.29100
O 	O 	0.64201 0.77695 0.44820 -0.38100
C 	C 	0.75265 0.96196 0.27856 0.31300
C 	C 	0.89208 0.11185 0.19728 0.30600
C 	C 	0.65242 0.91551 0.21954 0.31900
C 	C 	0.83749 0.84209 0.20275 0.30000
C 	C 	0.94034 0.87806 0.25457 0.29500
Ni	Ni	0.80542 0.06668 0.23933 1.09900
Ni	Ni	0.95088 0.00776 0.22254 1.10000
Ni	Ni	0.76246 0.85951 0.24321 1.12100
O 	O 	0.76985 0.03750 0.27011 -0.40600
O 	O 	0.70835 0.88785 0.26828 -0.37200
O 	O 	0.87515 0.92742 0.20044 -0.38600
O 	O 	0.82340 0.10283 0.20863 -0.39300
O 	O 	0.96198 0.11113 0.20586 -0.39000
O 	O 	0.85533 0.85125 0.26074 -0.39200
O 	O 	0.67108 0.98065 0.23197 -0.35500
O 	O 	0.65635 0.84702 0.22640 -0.37800
O 	O 	0.93931 0.16415 0.24567 -0.37200
O 	O 	0.79515 0.80271 0.22009 -0.38200
O 	O 	0.84430 0.98211 0.23812 -0.68700
H 	H 	0.87249 0.99251 0.25166 0.14100
C 	C 	0.90085 0.14531 0.17604 -0.09300
C 	C 	0.95738 0.13508 0.16167 0.01600
C 	C 	0.96696 0.16902 0.14173 -0.07300
H 	H 	0.79894 0.19036 0.10588 0.03300
H 	H 	0.82299 0.25299 0.14574 0.04500
C 	C 	0.67701 0.87514 0.06095 -0.05200
C 	C 	0.65245 0.93720 0.06725 0.01400
C 	C 	0.65704 0.95996 0.08920 0.01000
C 	C 	0.65771 0.97170 0.13217 -0.03600
C 	C 	0.73898 0.99482 0.12131 0.01300
C 	C 	0.73883 0.98971 0.09990 -0.01700
C 	C 	0.65300 0.95636 0.15455 0.12100
C 	C 	0.66122 0.88601 0.16237 -0.10900
C 	C 	0.65584 0.87002 0.18347 0.06100
C 	C 	0.64485 0.92585 0.19715 -0.14000
H 	H 	0.70769 0.85014 0.07169 0.04700
H 	H 	0.80107 0.01216 0.12951 0.00500
H 	H 	0.80138 0.00525 0.09172 0.00800
H 	H 	0.67153 0.84343 0.15206 0.06100
H 	H 	0.66177 0.81494 0.18917 0.02900
C 	C 	0.85922 0.79303 0.18763 -0.08900
C 	C 	0.87533 0.82111 0.16704 0.01500
H 	H 	0.94341 0.65181 0.18666 0.04600
H 	H 	0.85757 0.86921 0.16155 0.03700
C 	C 	0.76440 0.91930 0.45513 -0.05000
C 	C 	0.78482 0.00027 0.44622 -0.02700
C 	C 	0.85304 0.03752 0.43106 -0.09400
C 	C 	0.89945 0.99309 0.42505 0.05400
C 	C 	0.89946 0.93086 0.43877 -0.06300
C 	C 	0.83098 0.89332 0.45391 0.00700
C 	C 	0.91103 0.98391 0.40289 0.03200
C 	C 	0.85447 0.90303 0.39366 -0.03900
C 	C 	0.84059 0.89869 0.37256 -0.04100
C 	C 	0.88477 0.97477 0.36030 0.03100
C 	C 	0.94952 0.05376 0.36916 -0.07100
C 	C 	0.96201 0.05849 0.39042 -0.07200
C 	C 	0.85474 0.97377 0.33898 0.05600
C 	C 	0.84226 0.90594 0.32579 -0.06400
C 	C 	0.80167 0.89773 0.30672 0.00700
C 	C 	0.77790 0.96012 0.30010 -0.05400
C 	C 	0.79081 0.02821 0.31327 -0.01600
C 	C 	0.82840 0.03464 0.33261 -0.09600
H 	H 	0.73971 0.02700 0.44870 0.04900
H 	H 	0.85978 0.09246 0.42201 0.04700
H 	H 	0.94192 0.90177 0.43560 0.05100
H 	H 	0.82145 0.83579 0.46230 0.03300
H 	H 	0.81517 0.84478 0.40306 0.03500
H 	H 	0.79109 0.83718 0.36595 0.04000
H 	H 	0.98658 0.11229 0.35974 0.04100
H 	H 	0.86278 0.85880 0.33044 0.04600
H 	H 	0.79040 0.84382 0.29698 0.03900
H 	H 	0.77209 0.07646 0.30847 0.03900
H 	H 	0.83570 0.08615 0.34278 0.04700
H 	H 	0.98819 0.04057 0.28541 0.01000
H 	H 	0.97589 0.63905 0.31933 0.03800
H 	H 	0.97671 0.89795 0.29506 0.03400
C 	C 	0.65501 0.05648 0.41087 -0.04000
C 	C 	0.65454 0.18721 0.42277 -0.09900
C 	C 	0.69909 0.14811 0.41239 0.10700
N 	N 	0.78188 0.19803 0.40315 -0.20100
H 	H 	0.69133 0.02577 0.40425 0.04100
H 	H 	0.81512 0.16863 0.39581 0.07900
H 	H 	0.81097 0.26602 0.40198 0.09700
C 	C 	0.98504 0.57870 0.45801 -0.08800
H 	H 	0.98774 0.58479 0.42493 0.05200
N 	N 	0.99297 0.60688 0.49421 -0.20100
H 	H 	0.92182 0.57289 0.49544 0.08600
C 	C 	0.64963 0.60869 0.49586 0.11100
N 	N 	0.74228 0.65491 0.49583 -0.19800
H 	H 	0.77682 0.72141 0.49180 0.08700
H 	H 	0.78041 0.62668 0.50113 0.09600
C 	C 	0.74373 0.89103 0.63827 -0.10500
C 	C 	0.68970 0.80426 0.63176 0.03100
C 	C 	0.65425 0.78753 0.61194 -0.07500
C 	C 	0.67270 0.85730 0.59849 0.04200
C 	C 	0.72748 0.94384 0.60491 -0.08800
C 	C 	0.76252 0.96064 0.62470 0.08000
C 	C 	0.66797 0.81013 0.56235 -0.03400
C 	C 	0.65070 0.81912 0.54175 -0.03700
C 	C 	0.64419 0.04093 0.48939 -0.11900
C 	C 	0.71685 0.02815 0.49513 -0.01300
C 	C 	0.70127 0.95936 0.50851 -0.02200
H 	H 	0.74273 0.99811 0.59454 0.06400
H 	H 	0.80525 0.02777 0.62938 -0.00900
H 	H 	0.71329 0.78490 0.56614 0.04100
H 	H 	0.68207 0.79984 0.52980 0.04200
H 	H 	0.78629 0.07690 0.49111 0.03100
H 	H 	0.75897 0.95574 0.51459 0.04500
C 	C 	0.88869 0.35205 0.53254 -0.08200
C 	C 	0.95723 0.43882 0.53519 0.01200
C 	C 	0.99442 0.46717 0.55454 -0.06500
C 	C 	0.96339 0.40840 0.57134 0.02700
C 	C 	0.90578 0.31876 0.56787 -0.06700
C 	C 	0.86781 0.29075 0.54853 0.01500
C 	C 	0.97305 0.44280 0.59231 -0.00200
C 	C 	0.89452 0.42576 0.60365 -0.03700
C 	C 	0.90082 0.47950 0.61993 -0.03900
H 	H 	0.97648 0.48572 0.52268 0.02800
H 	H 	0.88434 0.27209 0.58053 0.04000
H 	H 	0.81685 0.22278 0.54642 0.02800
H 	H 	0.82789 0.37553 0.59879 0.03700
H 	H 	0.83911 0.46993 0.62757 0.03800
H 	H 	0.93782 0.54477 0.66511 0.04600
C 	C 	0.65671 0.84101 0.04117 0.01100
O 	O 	0.80136 0.85198 0.66797 -0.38900
H 	H 	0.67465 0.74989 0.64207 0.03300
O 	O 	0.79731 0.98027 0.66846 -0.36800
Ni	Ni	0.92015 0.06702 0.67947 1.10700
O 	O 	0.92103 0.80438 0.68706 -0.37900
Ni	Ni	0.85662 0.87137 0.69595 1.12100
O 	O 	0.77486 0.91519 0.70806 -0.37800
O 	O 	0.85660 0.06649 0.70572 -0.41500
C 	C 	0.80754 0.99341 0.71665 0.30900
O 	O 	0.90887 0.87254 0.72376 -0.37600
H 	H 	0.71005 0.85941 0.74397 0.04600
C 	C 	0.78772 0.99969 0.73852 -0.02500
H 	H 	0.67219 0.79022 0.03683 0.03600
H 	H 	0.86059 0.14166 0.73850 0.04900
C 	C 	0.82448 0.08229 0.74769 -0.05700
C 	C 	0.73940 0.92362 0.75075 -0.02300
C 	C 	0.81715 0.08870 0.76885 -0.02200
C 	C 	0.73039 0.93036 0.77192 0.00800
H 	H 	0.69308 0.87149 0.78123 0.03200
C 	C 	0.77127 0.01287 0.78107 -0.05400
H 	H 	0.84754 0.15272 0.77578 0.03300
C 	C 	0.76569 0.02042 0.80342 0.03800
C 	C 	0.68434 0.00748 0.81256 -0.11000
H 	H 	0.83114 0.87815 0.79833 0.04600
C 	C 	0.84480 0.05206 0.81517 -0.06600
H 	H 	0.90795 0.06199 0.80825 0.03800
C 	C 	0.86627 0.87781 0.81211 -0.03500
C 	C 	0.68398 0.03345 0.83274 -0.01100
C 	C 	0.82078 0.85963 0.83105 -0.03400
H 	H 	0.75138 0.84796 0.83179 0.04600
C 	C 	0.84339 0.07397 0.83566 -0.02700
C 	C 	0.76486 0.07101 0.84410 -0.01900
H 	H 	0.68110 0.53963 0.83875 0.03600
C 	C 	0.86338 0.85291 0.84885 0.00400
H 	H 	0.69339 0.70997 0.85258 0.04700
H 	H 	0.90509 0.09894 0.84454 0.02900
H 	H 	0.89956 0.23536 0.85312 0.04600
C 	C 	0.72644 0.73455 0.86711 -0.06200
C 	C 	0.80894 0.81416 0.86792 0.02900
C 	C 	0.77198 0.12240 0.86260 0.03100
C 	C 	0.84216 0.20990 0.86375 -0.06900
O 	O 	0.69867 0.49419 0.87577 -0.38500
H 	H 	0.64837 0.02166 0.87723 0.03900
C 	C 	0.70027 0.09016 0.87714 -0.07200
C 	C 	0.83402 0.26698 0.87726 0.01900
C 	C 	0.69275 0.68134 0.88465 0.01400
H 	H 	0.88627 0.33537 0.87721 0.03200
O 	O 	0.76192 0.37822 0.88701 -0.38700
C 	C 	0.84735 0.84649 0.88714 -0.06300
H 	H 	0.90741 0.91049 0.88826 0.05200
C 	C 	0.75434 0.23804 0.88921 -0.09000
C 	C 	0.69084 0.14799 0.89026 0.01500
C 	C 	0.72960 0.30256 0.89690 0.30700
Ni	Ni	0.77385 0.48875 0.89906 1.12000
C 	C 	0.74399 0.70509 0.90263 -0.08600
C 	C 	0.81478 0.79175 0.90452 0.01900
O 	O 	0.80936 0.61258 0.90764 -0.38700
H 	H 	0.64091 0.47379 0.91093 0.14300
O 	O 	0.66265 0.27738 0.91048 -0.39300
C 	C 	0.75003 0.63627 0.91408 0.28400
O 	O 	0.67093 0.44329 0.91701 -0.71200
O 	O 	0.85678 0.48597 0.92101 -0.38800
H 	H 	0.85184 0.81283 0.91874 0.03200
O 	O 	0.70094 0.60227 0.93117 -0.36700
C 	C 	0.88463 0.54227 0.93608 0.31000
H 	H 	0.92052 0.70526 0.93405 0.11100
Ni	Ni	0.68384 0.48513 0.94399 1.11200
O 	O 	0.82567 0.55239 0.94753 -0.37100
H 	H 	0.69669 0.20966 0.96198 0.05100
H 	H 	0.71014 0.08515 0.97218 0.08100
O 	O 	0.67521 0.37235 0.95715 -0.37300
N 	N 	0.64731 0.05798 0.97994 -0.20600
