data_crystal

_cell_length_a 22.50075
_cell_length_b 21.56921
_cell_length_c 50.40715
_cell_angle_alpha 89.89275
_cell_angle_beta  89.89501
_cell_angle_gamma 119.41107

_symmetry_space_group_name_	'P 1'
_symmetry_space_group_name_H-M	'P 1'

loop_
_symmetry_equiv_pos_as_xyz
  x,y,z

loop_
_atom_site_label
_atom_site_type_symbol
_atom_site_fract_x
_atom_site_fract_y
_atom_site_fract_z
_atom_site_charge
C 	C 	0.59868 0.26410 0.89979 0.29300
C 	C 	0.80980 0.52299 0.94582 0.31700
C 	C 	0.78489 0.32080 0.90817 0.31200
C 	C 	0.63594 0.47705 0.94049 0.32500
C 	C 	0.75292 0.33359 0.99869 0.34700
C 	C 	0.57246 0.25394 0.98578 0.32600
Ni	Ni	0.71355 0.40842 0.91165 1.11300
Ni	Ni	0.68898 0.40708 0.97541 1.13200
Ni	Ni	0.67889 0.26934 0.94820 1.12300
O 	O 	0.62543 0.33235 0.89348 -0.36600
O 	O 	0.63649 0.23934 0.91107 -0.37100
O 	O 	0.76502 0.39436 0.98874 -0.37700
O 	O 	0.80505 0.47341 0.92988 -0.38100
O 	O 	0.76239 0.50777 0.96404 -0.34200
O 	O 	0.58619 0.22867 0.96413 -0.38200
O 	O 	0.75813 0.35266 0.89428 -0.36800
O 	O 	0.77466 0.31327 0.93373 -0.37900
O 	O 	0.61457 0.31932 0.99527 -0.34100
O 	O 	0.67585 0.47958 0.92021 -0.35900
O 	O 	0.62031 0.43126 0.96023 -0.36100
O 	O 	0.71688 0.27413 0.98535 -0.35400
O 	O 	0.67835 0.35677 0.94355 -0.71200
H 	H 	0.62938 0.33904 0.94095 0.15800
C 	C 	0.61286 0.43251 0.56684 0.33100
C 	C 	0.70466 0.23974 0.61445 0.31900
C 	C 	0.78037 0.46799 0.59238 0.32400
C 	C 	0.52643 0.19706 0.59459 0.30100
C 	C 	0.78747 0.31627 0.53660 0.35000
C 	C 	0.60897 0.26465 0.51006 0.32800
Ni	Ni	0.65037 0.33990 0.60293 1.11300
Ni	Ni	0.65083 0.22832 0.56056 1.12400
Ni	Ni	0.70863 0.39010 0.54330 1.12900
O 	O 	0.63354 0.42397 0.59078 -0.35700
O 	O 	0.63478 0.41744 0.54452 -0.35600
O 	O 	0.72871 0.25694 0.53467 -0.36200
O 	O 	0.66417 0.26313 0.62313 -0.38100
O 	O 	0.71909 0.24258 0.58919 -0.37700
O 	O 	0.66746 0.32633 0.51095 -0.34700
O 	O 	0.75453 0.40543 0.60337 -0.37800
O 	O 	0.76035 0.47402 0.56850 -0.36000
O 	O 	0.59106 0.21640 0.52936 -0.36100
O 	O 	0.54827 0.26376 0.60203 -0.36700
O 	O 	0.56952 0.17520 0.58618 -0.37600
O 	O 	0.78993 0.37571 0.54417 -0.37100
O 	O 	0.65363 0.31597 0.56754 -0.72100
H 	H 	0.60774 0.30460 0.56151 0.17200
C 	C 	0.97090 0.85748 0.72661 0.27200
C 	C 	0.17376 0.07054 0.79701 0.31800
C 	C 	0.97948 0.87193 0.80329 0.28800
C 	C 	0.16505 0.06664 0.72135 0.28800
C 	C 	0.98033 0.07178 0.80065 0.30000
C 	C 	0.95977 0.06294 0.72635 0.25800
Ni	Ni	0.08751 0.94930 0.76224 1.11700
Ni	Ni	0.08465 0.09843 0.76048 1.11900
Ni	Ni	0.94499 0.95164 0.76405 1.11600
O 	O 	0.03790 0.88771 0.72966 -0.35900
O 	O 	0.93104 0.86052 0.74561 -0.38100
O 	O 	0.04606 0.09711 0.79664 -0.37600
O 	O 	0.12814 0.00309 0.79711 -0.39000
O 	O 	0.17163 0.11376 0.77900 -0.38500
O 	O 	0.93169 0.99320 0.73044 -0.38400
O 	O 	0.01590 0.86398 0.78464 -0.35400
O 	O 	0.95585 0.91631 0.80014 -0.38800
O 	O 	0.01069 0.11056 0.74140 -0.35900
O 	O 	0.17015 0.02599 0.74009 -0.38200
O 	O 	0.13511 0.10564 0.72612 -0.38500
O 	O 	0.93584 0.02856 0.78325 -0.40200
O 	O 	0.03933 0.99810 0.75600 -0.70700
H 	H 	0.03679 0.99590 0.73650 0.16100
C 	C 	0.22657 0.74158 0.40609 0.31300
C 	C 	0.41946 0.68761 0.47291 0.34600
C 	C 	0.41137 0.85581 0.41652 0.34400
C 	C 	0.23598 0.57244 0.46171 0.32300
C 	C 	0.45977 0.70430 0.38466 0.32000
C 	C 	0.27834 0.56324 0.37435 0.30500
Ni	Ni	0.31892 0.72969 0.45008 1.12100
Ni	Ni	0.35439 0.61190 0.42431 1.12500
Ni	Ni	0.33930 0.72132 0.38659 1.12300
O 	O 	0.25247 0.75803 0.43061 -0.35600
O 	O 	0.24337 0.70540 0.38922 -0.37700
O 	O 	0.42360 0.63929 0.39438 -0.37800
O 	O 	0.37946 0.71456 0.47798 -0.33500
O 	O 	0.43107 0.67662 0.44839 -0.36800
O 	O 	0.31172 0.63030 0.36559 -0.39100
O 	O 	0.40408 0.82552 0.43981 -0.35300
O 	O 	0.36731 0.82223 0.39769 -0.37700
O 	O 	0.28140 0.54634 0.39939 -0.38100
O 	O 	0.24002 0.63547 0.46527 -0.33800
O 	O 	0.29130 0.56704 0.45642 -0.35200
O 	O 	0.43833 0.75057 0.38668 -0.38400
O 	O 	0.32245 0.67807 0.42052 -0.71800
H 	H 	0.27347 0.64401 0.41863 0.16500
C 	C 	0.35832 0.63353 0.02524 0.33200
C 	C 	0.27151 0.66203 0.13469 0.32100
C 	C 	0.21686 0.50534 0.06827 0.32100
C 	C 	0.42399 0.78722 0.10160 0.30300
C 	C 	0.13056 0.64519 0.07346 0.35800
C 	C 	0.27220 0.79401 0.03521 0.33300
Ni	Ni	0.33493 0.63705 0.08621 1.11200
Ni	Ni	0.27343 0.74385 0.08904 1.12400
Ni	Ni	0.23259 0.63592 0.04073 1.12900
O 	O 	0.35759 0.60655 0.04929 -0.36000
O 	O 	0.31460 0.65553 0.01851 -0.35100
O 	O 	0.17598 0.71208 0.07800 -0.36600
O 	O 	0.32401 0.65640 0.12639 -0.38000
O 	O 	0.23250 0.66919 0.11746 -0.38400
O 	O 	0.23154 0.72623 0.02761 -0.34000
O 	O 	0.24233 0.54528 0.08905 -0.38000
O 	O 	0.21938 0.53489 0.04506 -0.34600
O 	O 	0.30485 0.81049 0.05820 -0.36800
O 	O 	0.42073 0.73582 0.08647 -0.37400
O 	O 	0.36862 0.79337 0.10710 -0.36900
O 	O 	0.14868 0.60169 0.06289 -0.37400
O 	O 	0.29567 0.68458 0.06849 -0.71900
H 	H 	0.33461 0.72039 0.05808 0.18000
C 	C 	0.87442 0.93195 0.26882 0.30600
C 	C 	0.04877 0.09718 0.17732 0.31500
C 	C 	0.85429 0.91469 0.19869 0.31400
C 	C 	0.08772 0.14600 0.25185 0.29600
C 	C 	0.04956 0.88754 0.19599 0.34000
C 	C 	0.08063 0.94400 0.26544 0.31000
Ni	Ni	0.95759 0.04448 0.22493 1.09500
Ni	Ni	0.09579 0.03308 0.21866 1.11700
Ni	Ni	0.95365 0.89303 0.23252 1.11300
O 	O 	0.87915 0.98290 0.25239 -0.38200
O 	O 	0.91579 0.90493 0.26713 -0.40100
O 	O 	0.10155 0.94928 0.20311 -0.37900
O 	O 	0.02405 0.11691 0.19716 -0.37700
O 	O 	0.07397 0.05430 0.18163 -0.37700
O 	O 	0.03117 0.89005 0.25222 -0.38500
O 	O 	0.90412 0.97863 0.19401 -0.38900
O 	O 	0.86244 0.87211 0.21539 -0.38000
O 	O 	0.11955 0.00693 0.25394 -0.39700
O 	O 	0.02042 0.11657 0.25304 -0.37300
O 	O 	0.11825 0.13236 0.23180 -0.37800
O 	O 	0.98671 0.87582 0.19797 -0.40900
O 	O 	0.00371 0.99369 0.23074 -0.68600
H 	H 	0.01222 0.00383 0.24979 0.14100
C 	C 	0.04636 0.21817 0.12332 -0.09900
C 	C 	0.09986 0.22495 0.10704 0.01000
C 	C 	0.12490 0.17676 0.11029 0.03400
C 	C 	0.10610 0.13282 0.13290 -0.01100
C 	C 	0.05738 0.13134 0.15079 -0.10900
C 	C 	0.02157 0.16794 0.14398 0.13100
C 	C 	0.13760 0.29011 0.09051 0.00700
C 	C 	0.17416 0.17447 0.09054 -0.18500
H 	H 	0.13054 0.10119 0.13679 0.05100
C 	C 	0.95658 0.15296 0.15803 -0.23200
H 	H 	0.02508 0.25316 0.12035 0.07100
C 	C 	0.10478 0.30682 0.06999 0.04100
C 	C 	0.13485 0.37712 0.06029 -0.00500
C 	C 	0.19796 0.42934 0.07011 -0.09100
C 	C 	0.23635 0.40822 0.08625 0.11400
C 	C 	0.20447 0.34011 0.09757 -0.08800
C 	C 	0.03683 0.25131 0.05928 -0.15800
H 	H 	0.10824 0.39150 0.04582 0.07700
C 	C 	0.31045 0.45849 0.09216 -0.21400
H 	H 	0.23092 0.32681 0.11256 0.05700
H 	H 	0.92597 0.09578 0.16341 0.07900
H 	H 	0.92415 0.16560 0.14499 0.07800
H 	H 	0.96878 0.18626 0.17612 0.07400
H 	H 	0.22725 0.21356 0.09618 0.08200
H 	H 	0.16385 0.18674 0.07021 0.08900
H 	H 	0.16918 0.12062 0.09001 0.09000
H 	H 	0.02960 0.26439 0.03862 0.09500
H 	H 	0.99508 0.24881 0.07181 0.06700
H 	H 	0.03338 0.19815 0.05890 0.08000
H 	H 	0.33770 0.42855 0.09671 0.08600
H 	H 	0.31492 0.49201 0.10954 0.06600
H 	H 	0.33629 0.49285 0.07476 0.09100
C 	C 	0.60858 0.88514 0.12043 -0.09400
C 	C 	0.60542 0.85353 0.14511 0.00900
C 	C 	0.54164 0.81137 0.15753 0.02700
C 	C 	0.48170 0.79703 0.14414 -0.01500
C 	C 	0.48446 0.82424 0.11858 -0.10500
C 	C 	0.54844 0.87175 0.10726 0.11800
C 	C 	0.66938 0.86841 0.15867 0.00100
C 	C 	0.53718 0.77965 0.18466 -0.17400
H 	H 	0.43285 0.75947 0.15262 0.04500
C 	C 	0.55280 0.90429 0.08034 -0.22700
H 	H 	0.65779 0.91938 0.11132 0.06500
C 	C 	0.69895 0.82447 0.15477 0.03400
C 	C 	0.75735 0.83749 0.16927 -0.01500
C 	C 	0.78627 0.89357 0.18754 -0.10200
C 	C 	0.75478 0.93577 0.19203 0.08700
C 	C 	0.69790 0.92393 0.17698 -0.08300
C 	C 	0.66895 0.76444 0.13500 -0.18100
H 	H 	0.78139 0.80527 0.16578 0.04700
C 	C 	0.77744 0.98887 0.21436 -0.15800
H 	H 	0.67409 0.95649 0.18023 0.05700
H 	H 	0.54562 0.86515 0.06465 0.11200
H 	H 	0.60310 0.95280 0.07732 0.10200
H 	H 	0.51290 0.92009 0.07831 0.11400
H 	H 	0.56420 0.82272 0.19938 0.06800
H 	H 	0.56070 0.74487 0.18428 0.06600
H 	H 	0.48346 0.74697 0.19141 0.06400
H 	H 	0.69820 0.73535 0.13415 0.07900
H 	H 	0.66953 0.78582 0.11489 0.08200
H 	H 	0.61555 0.72579 0.14062 0.07300
H 	H 	0.83231 0.02867 0.21250 0.02600
H 	H 	0.76691 0.96023 0.23359 0.07600
H 	H 	0.74916 0.01903 0.21440 0.05100
C 	C 	0.16454 0.65750 0.18710 -0.08700
C 	C 	0.18967 0.73132 0.18740 0.00700
C 	C 	0.26014 0.77674 0.18314 0.02700
C 	C 	0.29774 0.74964 0.17007 -0.02100
C 	C 	0.26519 0.67764 0.16257 -0.11900
C 	C 	0.20463 0.63051 0.17604 0.11800
C 	C 	0.14113 0.75956 0.18666 0.01300
C 	C 	0.29429 0.85386 0.19109 -0.17700
H 	H 	0.34802 0.78611 0.16245 0.04300
C 	C 	0.17731 0.55147 0.17455 -0.21700
H 	H 	0.11260 0.62145 0.19336 0.07200
C 	C 	0.13727 0.79754 0.16430 0.04400
C 	C 	0.10133 0.83531 0.16643 -0.00400
C 	C 	0.06263 0.82856 0.18918 -0.11500
C 	C 	0.05392 0.77688 0.20852 0.13600
C 	C 	0.09721 0.74720 0.20818 -0.10100
C 	C 	0.17091 0.79841 0.13827 -0.19100
H 	H 	0.10526 0.87162 0.15074 0.05500
C 	C 	0.99638 0.74922 0.22837 -0.25700
H 	H 	0.09553 0.71327 0.22440 0.05900
H 	H 	0.14845 0.53035 0.15584 0.10800
H 	H 	0.14302 0.52401 0.19163 0.08200
H 	H 	0.21991 0.53933 0.17508 0.08000
H 	H 	0.26597 0.86246 0.20745 0.07000
H 	H 	0.29732 0.88729 0.17385 0.07200
H 	H 	0.34684 0.87137 0.19824 0.07000
H 	H 	0.13901 0.79832 0.12146 0.10400
H 	H 	0.17718 0.75088 0.13587 0.08800
H 	H 	0.22153 0.84706 0.13681 0.07400
H 	H 	0.95903 0.76739 0.22428 0.06500
H 	H 	0.01733 0.76551 0.24865 0.10000
H 	H 	0.96794 0.69014 0.22773 0.08100
C 	C 	0.74147 0.90035 0.32157 -0.09900
C 	C 	0.70407 0.82571 0.32188 0.01000
C 	C 	0.72328 0.78632 0.30506 0.02200
C 	C 	0.77759 0.82220 0.28725 -0.00900
C 	C 	0.81521 0.89684 0.28686 -0.11600
C 	C 	0.79797 0.93638 0.30457 0.11700
C 	C 	0.64095 0.78932 0.33798 0.00200
C 	C 	0.68444 0.70603 0.30535 -0.17300
H 	H 	0.79079 0.79195 0.27363 0.03500
C 	C 	0.83863 0.01656 0.30519 -0.22200
H 	H 	0.72631 0.93038 0.33446 0.06700
C 	C 	0.64318 0.77425 0.36514 0.04200
C 	C 	0.58229 0.74100 0.37994 -0.01100
C 	C 	0.51964 0.72231 0.36788 -0.10000
C 	C 	0.51724 0.73320 0.34032 0.10300
C 	C 	0.57808 0.76808 0.32575 -0.08700
C 	C 	0.71031 0.79554 0.37855 -0.18300
H 	H 	0.58397 0.73223 0.40104 0.06700
C 	C 	0.45013 0.70969 0.32655 -0.20700
H 	H 	0.57659 0.77868 0.30479 0.05400
H 	H 	0.82584 0.03829 0.32293 0.07700
H 	H 	0.82736 0.03878 0.28723 0.07800
H 	H 	0.89413 0.03478 0.30599 0.07600
H 	H 	0.63358 0.68671 0.29615 0.06700
H 	H 	0.67773 0.68577 0.32603 0.07000
H 	H 	0.71188 0.68337 0.29416 0.06500
H 	H 	0.70295 0.77522 0.39925 0.08900
H 	H 	0.74153 0.85446 0.37910 0.08300
H 	H 	0.73861 0.77355 0.36757 0.07300
H 	H 	0.42898 0.74461 0.33238 0.07300
H 	H 	0.41343 0.65383 0.33192 0.08300
H 	H 	0.45600 0.71208 0.30462 0.07100
C 	C 	0.17336 0.33648 0.27505 -0.09200
C 	C 	0.18282 0.32783 0.30198 0.00300
C 	C 	0.16743 0.26017 0.31181 0.03300
C 	C 	0.13986 0.20143 0.29468 -0.01600
C 	C 	0.12818 0.20965 0.26794 -0.10300
C 	C 	0.14654 0.27795 0.25786 0.10500
C 	C 	0.20763 0.38977 0.31988 0.00700
C 	C 	0.17784 0.24994 0.34070 -0.18000
H 	H 	0.12554 0.14887 0.30232 0.03900
C 	C 	0.13509 0.28812 0.22905 -0.20800
H 	H 	0.18610 0.38875 0.26757 0.05300
C 	C 	0.27816 0.43695 0.32284 0.02700
C 	C 	0.30032 0.49438 0.34040 -0.01100
C 	C 	0.25309 0.50589 0.35466 -0.10700
C 	C 	0.18253 0.45967 0.35128 0.11100
C 	C 	0.16030 0.40163 0.33395 -0.09400
C 	C 	0.32981 0.42586 0.30750 -0.17500
H 	H 	0.35446 0.52912 0.34352 0.04100
C 	C 	0.13099 0.47045 0.36680 -0.22000
H 	H 	0.10617 0.36524 0.33156 0.06200
H 	H 	0.16208 0.26821 0.21614 0.08900
H 	H 	0.15465 0.34512 0.22411 0.07200
H 	H 	0.07968 0.25871 0.22454 0.08600
H 	H 	0.14186 0.25884 0.35308 0.08000
H 	H 	0.23098 0.28802 0.34669 0.07700
H 	H 	0.16887 0.19535 0.34475 0.07400
H 	H 	0.38295 0.46663 0.31246 0.06700
H 	H 	0.32250 0.42938 0.28589 0.06700
H 	H 	0.32376 0.37274 0.31219 0.07100
H 	H 	0.14235 0.52658 0.36510 0.09500
H 	H 	0.13266 0.45731 0.38800 0.10800
H 	H 	0.07833 0.43597 0.35937 0.09200
C 	C 	0.16435 0.87784 0.31389 -0.09100
C 	C 	0.12681 0.87133 0.33696 0.00700
C 	C 	0.07988 0.89693 0.33726 0.03400
C 	C 	0.06868 0.92536 0.31395 -0.01400
C 	C 	0.10341 0.92809 0.29048 -0.10700
C 	C 	0.15273 0.90565 0.29054 0.10900
C 	C 	0.13535 0.83509 0.36036 0.00900
C 	C 	0.04041 0.89216 0.36211 -0.18100
H 	H 	0.03110 0.94303 0.31380 0.04500
C 	C 	0.19062 0.90810 0.26547 -0.21000
H 	H 	0.20115 0.85914 0.31392 0.06200
C 	C 	0.10474 0.76018 0.36114 0.03400
C 	C 	0.12922 0.72816 0.37905 -0.00800
C 	C 	0.18275 0.77005 0.39639 -0.09800
C 	C 	0.20357 0.84337 0.39893 0.12400
C 	C 	0.18160 0.87580 0.38016 -0.09000
C 	C 	0.05024 0.71477 0.34149 -0.17800
H 	H 	0.11012 0.67123 0.37816 0.05900
C 	C 	0.24869 0.88706 0.42145 -0.22200
H 	H 	0.20233 0.93303 0.38036 0.07200
H 	H 	0.23050 0.89299 0.26920 0.07600
H 	H 	0.21618 0.96278 0.25705 0.09000
H 	H 	0.15443 0.87063 0.25065 0.08200
H 	H 	0.07621 0.92276 0.37830 0.08100
H 	H 	0.00915 0.83569 0.36834 0.07800
H 	H 	0.00551 0.91424 0.35903 0.07800
H 	H 	0.02170 0.65839 0.34815 0.07900
H 	H 	0.07399 0.71699 0.32193 0.07000
H 	H 	0.01278 0.73384 0.33924 0.07400
H 	H 	0.30033 0.89328 0.41931 0.11600
H 	H 	0.22610 0.86098 0.44071 0.10800
H 	H 	0.25428 0.94118 0.42192 0.10700
C 	C 	0.57254 0.24090 0.48444 -0.10300
C 	C 	0.60989 0.25552 0.46051 0.12800
C 	C 	0.58788 0.20278 0.44080 0.07300
C 	C 	0.52678 0.13825 0.44454 0.01100
C 	C 	0.48202 0.13248 0.46517 0.06900
C 	C 	0.50429 0.18569 0.48462 0.12300
C 	C 	0.51504 0.07392 0.42992 0.02600
C 	C 	0.46883 0.04886 0.40860 0.04700
C 	C 	0.44259 0.97825 0.39993 0.13600
C 	C 	0.46075 0.93269 0.41360 -0.12900
C 	C 	0.51873 0.96320 0.42989 0.14200
C 	C 	0.54355 0.03268 0.43935 0.04500
Br	Br	0.39312 0.04912 0.46799 -0.19000
Br	Br	0.68457 0.34944 0.45325 -0.15500
Br	Br	0.39084 0.94816 0.36747 -0.20900
Br	Br	0.61110 0.06849 0.46704 -0.15100
Br	Br	0.44293 0.18190 0.51202 -0.17400
Br	Br	0.64293 0.21662 0.40969 -0.15200
Br	Br	0.43895 0.10987 0.39245 -0.17500
Br	Br	0.56480 0.91044 0.43835 -0.15400
C 	C 	0.85131 0.31799 0.52840 -0.11800
C 	C 	0.91036 0.35663 0.54383 0.12600
C 	C 	0.97501 0.38535 0.53189 0.05000
C 	C 	0.98074 0.36594 0.50571 -0.00100
C 	C 	0.92238 0.31322 0.49280 0.07200
C 	C 	0.85723 0.29342 0.50306 0.12200
C 	C 	0.04429 0.40919 0.49033 0.03400
C 	C 	0.04771 0.46005 0.47191 0.07600
C 	C 	0.10940 0.50453 0.45888 0.12100
C 	C 	0.17027 0.50769 0.46763 -0.11100
C 	C 	0.16655 0.45449 0.48520 0.12400
C 	C 	0.10256 0.40249 0.49507 0.06600
Br	Br	0.93199 0.27178 0.46036 -0.17200
Br	Br	0.90229 0.36968 0.58125 -0.20300
Br	Br	0.11035 0.55966 0.42857 -0.21300
Br	Br	0.09445 0.32236 0.51505 -0.13800
Br	Br	0.77797 0.24053 0.48111 -0.13800
Br	Br	0.05435 0.45625 0.55033 -0.13700
Br	Br	0.96961 0.47281 0.46609 -0.18200
Br	Br	0.24794 0.45401 0.49689 -0.13900
C 	C 	0.45349 0.67137 0.49497 -0.11300
C 	C 	0.51845 0.67831 0.49072 0.12300
C 	C 	0.53946 0.63807 0.50601 0.06500
C 	C 	0.50076 0.59991 0.52828 0.01600
C 	C 	0.44247 0.60419 0.53557 0.07000
C 	C 	0.41725 0.63777 0.51855 0.12500
C 	C 	0.52045 0.55402 0.54359 0.01800
C 	C 	0.48652 0.47994 0.53932 0.06400
C 	C 	0.51093 0.43808 0.55142 0.12400
C 	C 	0.57400 0.47090 0.56462 -0.11600
C 	C 	0.60549 0.54432 0.57039 0.12500
C 	C 	0.57634 0.58488 0.56104 0.06600
Br	Br	0.39699 0.56333 0.56876 -0.14800
Br	Br	0.58083 0.74747 0.46569 -0.16400
Br	Br	0.45790 0.33591 0.55040 -0.18600
Br	Br	0.61362 0.68292 0.57153 -0.16300
Br	Br	0.33399 0.63779 0.52797 -0.15000
Br	Br	0.61893 0.63196 0.49556 -0.16200
Br	Br	0.41004 0.43673 0.51543 -0.14000
Br	Br	0.69096 0.59050 0.58908 -0.19600
C 	C 	0.91622 0.15940 0.67349 -0.08200
C 	C 	0.84939 0.14103 0.68090 -0.00100
C 	C 	0.81853 0.09592 0.70295 0.02900
C 	C 	0.85496 0.06962 0.71721 -0.02200
C 	C 	0.92189 0.08825 0.70993 -0.09000
C 	C 	0.95267 0.13289 0.68776 0.07200
C 	C 	0.81059 0.16605 0.66458 0.01000
C 	C 	0.74645 0.07483 0.71106 -0.17500
H 	H 	0.83155 0.03530 0.73425 0.03800
C 	C 	0.02414 0.15248 0.67929 -0.18100
H 	H 	0.93962 0.19389 0.65650 0.05700
C 	C 	0.81471 0.23254 0.66947 0.02700
C 	C 	0.77684 0.25449 0.65374 -0.00500
C 	C 	0.73521 0.21101 0.63325 -0.10900
C 	C 	0.72893 0.14315 0.62917 0.11000
C 	C 	0.76793 0.12203 0.64448 -0.09300
C 	C 	0.86057 0.28080 0.69095 -0.17200
H 	H 	0.78147 0.30641 0.65687 0.04200
C 	C 	0.68277 0.09410 0.60791 -0.21300
H 	H 	0.76468 0.07089 0.64090 0.05900
H 	H 	0.03745 0.17994 0.65974 0.08200
H 	H 	0.02905 0.10387 0.67749 0.07800
H 	H 	0.06127 0.18862 0.69417 0.08100
H 	H 	0.71040 0.04137 0.69539 0.06700
H 	H 	0.74136 0.12298 0.71411 0.06400
H 	H 	0.73167 0.04395 0.72990 0.06200
H 	H 	0.85598 0.32956 0.69298 0.06400
H 	H 	0.91455 0.29735 0.68620 0.07100
H 	H 	0.84684 0.25261 0.71034 0.06300
H 	H 	0.66954 0.03806 0.61185 0.08100
H 	H 	0.70877 0.11033 0.58835 0.08900
H 	H 	0.63421 0.09556 0.60712 0.07600
C 	C 	0.38716 0.07709 0.64053 -0.08700
C 	C 	0.33671 0.09353 0.63278 -0.00200
C 	C 	0.34158 0.12519 0.60775 0.04600
C 	C 	0.40199 0.15033 0.59291 -0.01800
C 	C 	0.45688 0.14361 0.60271 -0.09100
C 	C 	0.44685 0.10072 0.62535 0.10200
C 	C 	0.28556 0.08805 0.65258 0.00700
C 	C 	0.28521 0.13781 0.59788 -0.18700
H 	H 	0.40842 0.18038 0.57486 0.07400
C 	C 	0.50109 0.08354 0.63422 -0.20700
H 	H 	0.38172 0.04949 0.65915 0.05200
C 	C 	0.22872 0.02160 0.65903 0.02500
C 	C 	0.18786 0.01615 0.68098 -0.03000
C 	C 	0.20213 0.07637 0.69615 -0.10200
C 	C 	0.25634 0.14377 0.68856 0.10200
C 	C 	0.29747 0.14896 0.66675 -0.09300
C 	C 	0.21330 0.95593 0.64336 -0.17000
H 	H 	0.14578 0.96466 0.68664 0.05200
C 	C 	0.27085 0.21009 0.70363 -0.20600
H 	H 	0.34024 0.20017 0.66129 0.05900
H 	H 	0.48297 0.04462 0.65086 0.07200
H 	H 	0.54698 0.13264 0.64098 0.08600
H 	H 	0.51501 0.05954 0.61756 0.08600
H 	H 	0.28852 0.18531 0.60780 0.08600
H 	H 	0.23458 0.09088 0.60209 0.07800
H 	H 	0.28898 0.14686 0.57608 0.09500
H 	H 	0.16127 0.91149 0.64776 0.07400
H 	H 	0.25083 0.93844 0.64838 0.07600
H 	H 	0.21593 0.96714 0.62175 0.07800
H 	H 	0.27683 0.20308 0.72509 0.07800
H 	H 	0.22837 0.22169 0.70075 0.08400
H 	H 	0.31866 0.25713 0.69669 0.07500
C 	C 	0.89963 0.64844 0.62195 -0.09300
C 	C 	0.86214 0.64719 0.64442 0.01200
C 	C 	0.79648 0.58890 0.64888 0.03200
C 	C 	0.77164 0.52999 0.63206 0.00500
C 	C 	0.80943 0.53036 0.60984 -0.10900
C 	C 	0.87380 0.59010 0.60460 0.12200
C 	C 	0.89436 0.70359 0.66455 0.00400
C 	C 	0.75339 0.58876 0.67188 -0.17400
H 	H 	0.72200 0.48417 0.63591 0.02700
C 	C 	0.91542 0.59135 0.58091 -0.22200
H 	H 	0.94973 0.69387 0.61846 0.05800
C 	C 	0.92750 0.69401 0.68663 0.02500
C 	C 	0.94837 0.74279 0.70754 -0.01600
C 	C 	0.93970 0.80274 0.70612 -0.10100
C 	C 	0.90877 0.81377 0.68361 0.09600
C 	C 	0.88595 0.76372 0.66299 -0.09100
C 	C 	0.93952 0.63114 0.68816 -0.17400
H 	H 	0.97275 0.73495 0.72479 0.03700
C 	C 	0.89958 0.87833 0.68159 -0.20800
H 	H 	0.86041 0.77074 0.64597 0.06500
H 	H 	0.92180 0.54345 0.58100 0.10400
H 	H 	0.96711 0.63897 0.58098 0.08700
H 	H 	0.88936 0.59234 0.56236 0.10400
H 	H 	0.74956 0.63816 0.67166 0.07900
H 	H 	0.77654 0.58539 0.69088 0.06500
H 	H 	0.70070 0.54294 0.67092 0.07100
H 	H 	0.97215 0.63526 0.70533 0.06200
H 	H 	0.96571 0.62823 0.66990 0.06900
H 	H 	0.89009 0.58118 0.69032 0.06400
H 	H 	0.87715 0.88067 0.66225 0.08000
H 	H 	0.94967 0.92763 0.68348 0.07600
H 	H 	0.86483 0.87665 0.69758 0.08500
C 	C 	0.78001 0.33284 0.02511 -0.11000
C 	C 	0.75805 0.35830 0.04663 0.11600
C 	C 	0.80669 0.41104 0.06315 0.07100
C 	C 	0.87592 0.43179 0.05973 0.00900
C 	C 	0.89409 0.39045 0.04353 0.06800
C 	C 	0.84507 0.33932 0.02652 0.12400
C 	C 	0.92885 0.50323 0.06824 0.03200
C 	C 	0.95498 0.56009 0.04994 0.03500
C 	C 	0.02018 0.61888 0.05402 0.15300
C 	C 	0.05758 0.62066 0.07660 -0.13500
C 	C 	0.02292 0.57433 0.09773 0.15800
C 	C 	0.96038 0.51258 0.09309 0.03800
Br	Br	0.98678 0.40893 0.04289 -0.21100
Br	Br	0.66271 0.32435 0.05250 -0.16500
Br	Br	0.06180 0.69172 0.02730 -0.16100
Br	Br	0.92160 0.43838 0.11952 -0.18500
Br	Br	0.86891 0.28504 0.00290 -0.20700
Br	Br	0.77977 0.46009 0.08823 -0.16000
Br	Br	0.90317 0.55530 0.01884 -0.17600
Br	Br	0.06237 0.59438 0.13239 -0.21400
C 	C 	0.51363 0.20349 0.00181 -0.09900
C 	C 	0.51696 0.14742 0.01500 0.12100
C 	C 	0.45692 0.08274 0.01969 0.07000
C 	C 	0.39511 0.07082 0.00832 0.00100
C 	C 	0.39083 0.12845 0.99712 0.07400
C 	C 	0.44930 0.19633 0.99640 0.11000
C 	C 	0.33677 0.99725 0.00693 0.03000
C 	C 	0.33998 0.94835 0.98926 0.06600
C 	C 	0.30844 0.87563 0.99619 0.12200
C 	C 	0.27156 0.85239 0.02011 -0.10100
C 	C 	0.25364 0.89828 0.03347 0.12400
C 	C 	0.28833 0.97148 0.02758 0.07500
Br	Br	0.30763 0.11334 0.98062 -0.17800
Br	Br	0.60388 0.15505 0.02314 -0.17000
Br	Br	0.31961 0.80928 0.97415 -0.16000
Br	Br	0.27589 0.03710 0.04969 -0.18200
Br	Br	0.44153 0.27953 0.98906 -0.17600
Br	Br	0.45960 0.00954 0.04088 -0.19000
Br	Br	0.39215 0.98220 0.95696 -0.16600
Br	Br	0.18585 0.86170 0.06115 -0.18100
C 	C 	0.39748 0.62344 0.00384 -0.11100
C 	C 	0.38199 0.55418 0.99627 0.12400
C 	C 	0.42400 0.54481 0.97795 0.06300
C 	C 	0.47945 0.60455 0.96618 0.01700
C 	C 	0.48733 0.67272 0.97033 0.07000
C 	C 	0.44870 0.68277 0.99015 0.12300
C 	C 	0.53704 0.59748 0.95536 0.01500
C 	C 	0.58877 0.60438 0.97264 0.06300
C 	C 	0.62692 0.57075 0.96666 0.11900
C 	C 	0.61490 0.53205 0.94272 -0.11700
C 	C 	0.57186 0.53662 0.92339 0.12000
C 	C 	0.53305 0.56981 0.92974 0.06600
Br	Br	0.55395 0.75245 0.94999 -0.15900
Br	Br	0.30193 0.47229 0.01010 -0.18200
Br	Br	0.69205 0.57422 0.99222 -0.19500
Br	Br	0.47164 0.57384 0.90411 -0.16400
Br	Br	0.46942 0.77770 0.99996 -0.16700
Br	Br	0.40870 0.45040 0.97036 -0.15200
Br	Br	0.60302 0.65456 0.00579 -0.16700
Br	Br	0.56307 0.49427 0.88896 -0.21200
C 	C 	0.85631 0.19682 0.89264 -0.08900
C 	C 	0.88214 0.21917 0.86703 -0.00400
C 	C 	0.87474 0.27378 0.85461 0.02800
C 	C 	0.84687 0.30925 0.86900 -0.01300
C 	C 	0.81841 0.28508 0.89432 -0.10600
C 	C 	0.81953 0.22498 0.90549 0.10800
C 	C 	0.90929 0.17904 0.85227 0.02600
C 	C 	0.89323 0.29201 0.82576 -0.17400
H 	H 	0.84527 0.35420 0.86009 0.04300
C 	C 	0.77819 0.18737 0.92985 -0.20900
H 	H 	0.86089 0.15390 0.90188 0.05800
C 	C 	0.98014 0.20716 0.84845 -0.03100
C 	C 	0.00341 0.17093 0.83199 0.05100
C 	C 	0.95732 0.10353 0.82170 -0.14300
C 	C 	0.88808 0.07021 0.82990 0.11100
C 	C 	0.86389 0.11020 0.84340 -0.10900
C 	C 	0.03093 0.27472 0.86213 -0.14000
H 	H 	0.05718 0.19543 0.82710 0.03400
C 	C 	0.84040 0.99200 0.82526 -0.20300
H 	H 	0.80987 0.08690 0.84773 0.05800
H 	H 	0.77334 0.13385 0.93227 0.08500
H 	H 	0.72554 0.17904 0.92825 0.06300
H 	H 	0.80352 0.21861 0.94785 0.10500
H 	H 	0.86712 0.24322 0.81346 0.06600
H 	H 	0.94913 0.31641 0.82294 0.06100
H 	H 	0.87741 0.33025 0.81834 0.06200
H 	H 	0.08326 0.28183 0.86124 0.07000
H 	H 	0.01728 0.27310 0.88340 0.07900
H 	H 	0.03185 0.32148 0.85255 0.07000
H 	H 	0.86788 0.96120 0.82691 0.08500
H 	H 	0.81677 0.98408 0.80535 0.08100
H 	H 	0.79892 0.97003 0.84034 0.07900
C 	C 	0.41335 0.19708 0.88537 -0.09100
C 	C 	0.40099 0.14428 0.86670 0.01100
C 	C 	0.44892 0.12055 0.86322 0.03100
C 	C 	0.51268 0.15715 0.87577 -0.00600
C 	C 	0.52746 0.21481 0.89248 -0.10500
C 	C 	0.47546 0.23115 0.89889 0.12300
C 	C 	0.34275 0.12168 0.84844 0.00500
C 	C 	0.43401 0.05934 0.84499 -0.17500
H 	H 	0.55177 0.14299 0.87151 0.04600
C 	C 	0.48678 0.28663 0.91937 -0.22900
H 	H 	0.37555 0.21368 0.88859 0.06800
C 	C 	0.27515 0.07932 0.85755 0.03200
C 	C 	0.22073 0.06895 0.84119 -0.01100
C 	C 	0.23255 0.09547 0.81511 -0.11300
C 	C 	0.30055 0.13588 0.80567 0.10600
C 	C 	0.35491 0.14992 0.82270 -0.09200
C 	C 	0.26079 0.04628 0.88487 -0.18200
H 	H 	0.16878 0.03797 0.84844 0.04400
C 	C 	0.31573 0.16408 0.77761 -0.21000
H 	H 	0.40701 0.18326 0.81596 0.05600
H 	H 	0.43785 0.28306 0.92567 0.11400
H 	H 	0.51997 0.34064 0.91116 0.11100
H 	H 	0.51069 0.27860 0.93726 0.10200
H 	H 	0.44231 0.07806 0.82408 0.06600
H 	H 	0.38043 0.01611 0.84753 0.07200
H 	H 	0.46769 0.03644 0.84935 0.07200
H 	H 	0.20703 0.00294 0.88677 0.07300
H 	H 	0.27016 0.08740 0.89999 0.08700
H 	H 	0.29403 0.02272 0.88897 0.08300
H 	H 	0.29986 0.20492 0.77484 0.08600
H 	H 	0.28886 0.12008 0.76326 0.08800
H 	H 	0.37108 0.18948 0.77297 0.07100
C 	C 	0.94831 0.67612 0.90900 -0.09800
C 	C 	0.91209 0.71007 0.90060 0.00200
C 	C 	0.85097 0.69525 0.91372 0.03800
C 	C 	0.82183 0.63901 0.93208 -0.01100
C 	C 	0.85308 0.59779 0.93744 -0.10300
C 	C 	0.92003 0.62135 0.92801 0.12200
C 	C 	0.93226 0.75166 0.87556 0.00900
C 	C 	0.81325 0.73433 0.90631 -0.18200
H 	H 	0.77181 0.62320 0.94019 0.06800
C 	C 	0.95916 0.58458 0.93641 -0.24900
H 	H 	0.99683 0.68977 0.89980 0.05500
C 	C 	0.98110 0.82483 0.87541 0.01100
C 	C 	0.99618 0.86348 0.85153 -0.03500
C 	C 	0.96387 0.82975 0.82786 -0.10000
C 	C 	0.91605 0.75630 0.82793 0.09800
C 	C 	0.90091 0.71774 0.85179 -0.09200
C 	C 	0.01716 0.86172 0.90058 -0.13200
H 	H 	0.03317 0.91983 0.85133 0.06500
C 	C 	0.88082 0.71902 0.80267 -0.20500
H 	H 	0.86395 0.66139 0.85197 0.05400
H 	H 	0.01497 0.62211 0.93576 0.11600
H 	H 	0.94729 0.53947 0.92285 0.09800
H 	H 	0.94588 0.56426 0.95705 0.11800
H 	H 	0.78610 0.71341 0.88725 0.07900
H 	H 	0.84927 0.79223 0.90423 0.07600
H 	H 	0.77521 0.72757 0.92177 0.08600
H 	H 	0.05373 0.91903 0.89715 0.07000
H 	H 	0.04618 0.83646 0.90852 0.07700
H 	H 	0.97939 0.85782 0.91564 0.05700
H 	H 	0.84188 0.66259 0.80635 0.07100
H 	H 	0.91884 0.71984 0.78840 0.08100
H 	H 	0.85460 0.74605 0.79363 0.07900
