data_crystal

_cell_length_a 38.93451
_cell_length_b 41.68575
_cell_length_c 30.83138
_cell_angle_alpha 91.09787
_cell_angle_beta  88.52609
_cell_angle_gamma 90.09271

_symmetry_space_group_name_	'P 1'
_symmetry_space_group_name_H-M	'P 1'

loop_
_symmetry_equiv_pos_as_xyz
  x,y,z

loop_
_atom_site_label
_atom_site_type_symbol
_atom_site_fract_x
_atom_site_fract_y
_atom_site_fract_z
_atom_site_charge
Cd	Cd	0.99169 0.98510 0.24976 1.23800
Cd	Cd	0.91702 0.02952 0.22551 1.17300
O 	O 	0.99267 0.92550 0.24716 -0.31500
O 	O 	0.03896 0.95445 0.25847 -0.34600
C 	C 	0.02535 0.92605 0.25514 0.29200
O 	O 	0.01075 0.03498 0.24824 -0.38500
O 	O 	0.95847 0.05963 0.25558 -0.40700
C 	C 	0.99076 0.05975 0.24163 0.25100
C 	C 	0.97398 0.99440 0.16179 0.27000
O 	O 	0.92765 0.99222 0.27884 -0.44600
O 	O 	0.00550 0.98388 0.16427 -0.27600
O 	O 	0.95586 0.99335 0.19754 -0.52000
C 	C 	0.93987 0.99794 0.31719 0.26700
O 	O 	0.97287 0.99349 0.32058 -0.43600
Cd	Cd	0.92413 0.92771 0.98752 1.24200
Cd	Cd	0.87770 0.97808 0.91743 1.17200
O 	O 	0.91047 0.86994 0.99331 -0.31700
O 	O 	0.95601 0.89133 0.02249 -0.33400
C 	C 	0.93928 0.86519 0.01286 0.29300
O 	O 	0.95461 0.97285 0.98576 -0.36500
O 	O 	0.91197 0.00606 0.96238 -0.40600
C 	C 	0.94454 0.00080 0.97104 0.26300
C 	C 	0.93704 0.92443 0.89611 0.28200
O 	O 	0.86186 0.94986 0.97913 -0.44500
O 	O 	0.96070 0.90947 0.91708 -0.27800
O 	O 	0.91058 0.93338 0.91952 -0.53300
C 	C 	0.86303 0.96103 0.01887 0.26600
O 	O 	0.88862 0.95050 0.04121 -0.32700
C 	C 	0.10564 0.72618 0.85652 0.15200
N 	N 	0.12846 0.70485 0.87198 -0.12800
C 	C 	0.14946 0.68806 0.84404 0.14300
N 	N 	0.14696 0.69197 0.80066 -0.14300
C 	C 	0.12488 0.71383 0.78511 0.14300
N 	N 	0.10472 0.73146 0.81317 -0.13400
C 	C 	0.14680 0.74580 0.39144 0.14600
N 	N 	0.13795 0.74704 0.43438 -0.13200
C 	C 	0.15648 0.73050 0.46322 0.13700
N 	N 	0.18306 0.71179 0.44886 -0.14200
C 	C 	0.19167 0.71010 0.40593 0.13600
N 	N 	0.17359 0.72720 0.37723 -0.13800
Cd	Cd	0.90724 0.08043 0.76864 1.24100
Cd	Cd	0.94979 0.13932 0.83339 1.16600
O 	O 	0.85545 0.09454 0.72836 -0.31600
O 	O 	0.87912 0.04695 0.72250 -0.34200
C 	C 	0.85379 0.06546 0.71229 0.29100
O 	O 	0.95517 0.05579 0.78621 -0.36600
O 	O 	0.96896 0.08922 0.84272 -0.42900
C 	C 	0.97843 0.07003 0.81014 0.25600
C 	C 	0.95128 0.12647 0.72843 0.27100
O 	O 	0.89447 0.11783 0.83752 -0.44400
O 	O 	0.94434 0.10285 0.70153 -0.26500
O 	O 	0.93341 0.12686 0.76451 -0.52800
C 	C 	0.88423 0.09218 0.85773 0.25400
O 	O 	0.88196 0.06616 0.83382 -0.37000
Cd	Cd	0.86383 0.21171 0.25725 1.24200
Cd	Cd	0.94482 0.22322 0.20578 1.17500
O 	O 	0.81020 0.22317 0.21927 -0.31300
O 	O 	0.80992 0.20077 0.28331 -0.33100
C 	C 	0.79226 0.21098 0.25109 0.28800
O 	O 	0.90118 0.18956 0.30106 -0.36500
O 	O 	0.94885 0.21821 0.27851 -0.41900
C 	C 	0.93408 0.19688 0.30419 0.26800
C 	C 	0.88758 0.16550 0.19395 0.25900
O 	O 	0.90080 0.25885 0.22436 -0.44700
O 	O 	0.86192 0.15464 0.21748 -0.28400
O 	O 	0.89430 0.19581 0.19974 -0.51700
C 	C 	0.89620 0.27404 0.26149 0.26700
O 	O 	0.87449 0.26104 0.28877 -0.33300
C 	C 	0.64262 0.95848 0.78935 0.14200
N 	N 	0.62855 0.98107 0.81671 -0.13300
C 	C 	0.60120 0.97362 0.84277 0.13600
N 	N 	0.58737 0.94381 0.84067 -0.14300
C 	C 	0.60118 0.92117 0.81324 0.13400
N 	N 	0.62907 0.92842 0.78783 -0.13600
C 	C 	0.56413 0.12822 0.16079 0.14400
N 	N 	0.56045 0.11817 0.11899 -0.14000
C 	C 	0.53426 0.09825 0.10823 0.13500
N 	N 	0.51200 0.08797 0.13963 -0.14300
C 	C 	0.51541 0.09798 0.18150 0.13600
N 	N 	0.54151 0.11814 0.19194 -0.13100
Cd	Cd	0.15518 0.26203 0.28089 1.24300
Cd	Cd	0.07520 0.23181 0.32331 1.17600
O 	O 	0.20419 0.27113 0.32906 -0.29900
O 	O 	0.20855 0.27812 0.25876 -0.34300
C 	C 	0.22331 0.27995 0.29613 0.29500
O 	O 	0.12498 0.25096 0.22195 -0.35100
O 	O 	0.07323 0.25418 0.25820 -0.41700
C 	C 	0.09213 0.24340 0.22515 0.26200
C 	C 	0.14798 0.19507 0.29572 0.26500
O 	O 	0.10649 0.27801 0.33847 -0.44000
O 	O 	0.17633 0.20139 0.27382 -0.27100
O 	O 	0.13227 0.21993 0.31269 -0.50900
C 	C 	0.10414 0.30533 0.31869 0.26900
O 	O 	0.12781 0.31075 0.28907 -0.32700
Cd	Cd	0.17806 0.18365 0.93899 1.24200
Cd	Cd	0.15628 0.11373 0.87761 1.18000
O 	O 	0.22869 0.21628 0.91797 -0.30200
O 	O 	0.19258 0.23141 0.97047 -0.34600
C 	C 	0.22040 0.23754 0.94784 0.29400
O 	O 	0.12656 0.16963 0.96567 -0.36400
O 	O 	0.12962 0.11698 0.94298 -0.40500
C 	C 	0.11157 0.14172 0.95788 0.25700
C 	C 	0.14334 0.19031 0.85940 0.26900
O 	O 	0.20474 0.12745 0.91655 -0.43800
O 	O 	0.14402 0.21731 0.88152 -0.26900
O 	O 	0.16304 0.16794 0.87369 -0.52300
C 	C 	0.20953 0.12291 0.95773 0.26600
O 	O 	0.20323 0.14734 0.98364 -0.33300
C 	C 	0.31577 0.44711 0.85741 0.14400
N 	N 	0.33686 0.44683 0.82163 -0.13400
C 	C 	0.34161 0.47391 0.79842 0.13600
N 	N 	0.32557 0.50145 0.81159 -0.14200
C 	C 	0.30487 0.50198 0.84769 0.13600
N 	N 	0.30009 0.47480 0.87061 -0.13500
C 	C 	0.34489 0.46413 0.42031 0.14500
N 	N 	0.33368 0.49113 0.40121 -0.13100
C 	C 	0.33491 0.51984 0.42268 0.13600
N 	N 	0.34831 0.52161 0.46285 -0.14200
C 	C 	0.35937 0.49469 0.48226 0.13300
N 	N 	0.35752 0.46595 0.46093 -0.13900
Cd	Cd	0.18727 0.90750 0.82453 1.24300
Cd	Cd	0.12364 0.94967 0.88899 1.17800
O 	O 	0.18867 0.84853 0.82690 -0.29300
O 	O 	0.22313 0.87534 0.78352 -0.34700
C 	C 	0.21417 0.84752 0.79879 0.28900
O 	O 	0.19128 0.95817 0.80219 -0.36200
O 	O 	0.16801 0.97913 0.86531 -0.40800
C 	C 	0.17534 0.98171 0.82374 0.25200
C 	C 	0.11900 0.91140 0.79449 0.26500
O 	O 	0.16774 0.91535 0.90672 -0.43000
O 	O 	0.13988 0.90016 0.76403 -0.27800
O 	O 	0.13171 0.91347 0.83292 -0.51000
C 	C 	0.19937 0.92361 0.91461 0.27400
O 	O 	0.22149 0.91948 0.88253 -0.32500
Cd	Cd	0.08531 0.00021 0.47321 1.24300
Cd	Cd	0.01512 0.99906 0.40081 1.19400
O 	O 	0.12332 0.95296 0.47357 -0.30000
O 	O 	0.13506 0.99703 0.51057 -0.33000
C 	C 	0.14438 0.96808 0.49883 0.28500
O 	O 	0.06569 0.05056 0.47638 -0.35700
O 	O 	0.01211 0.03859 0.45129 -0.41300
C 	C 	0.03645 0.05971 0.45956 0.25800
C 	C 	0.09748 0.01239 0.38342 0.28500
O 	O 	0.02963 0.96683 0.45843 -0.41500
O 	O 	0.12446 0.01942 0.40606 -0.25300
O 	O 	0.07327 0.99731 0.40423 -0.50400
C 	C 	0.02047 0.97111 0.49911 0.26200
O 	O 	0.04316 0.98502 0.52364 -0.33500
C 	C 	0.39934 0.76001 0.95180 0.14300
N 	N 	0.43081 0.76401 0.93264 -0.13000
C 	C 	0.45896 0.76862 0.95714 0.13200
N 	N 	0.45542 0.76955 0.00112 -0.14100
C 	C 	0.42377 0.76721 0.02041 0.13600
N 	N 	0.39596 0.76150 0.99576 -0.14200
C 	C 	0.35770 0.89342 0.37117 0.14400
N 	N 	0.37772 0.91991 0.36645 -0.13200
C 	C 	0.39958 0.92243 0.33169 0.13600
N 	N 	0.40108 0.89850 0.30123 -0.14200
C 	C 	0.38187 0.87159 0.30633 0.13400
N 	N 	0.36037 0.86892 0.34151 -0.14000
C 	C 	0.41871 0.77731 0.06622 -0.04800
C 	C 	0.42478 0.80946 0.07982 0.10600
C 	C 	0.41971 0.81821 0.12366 -0.08400
C 	C 	0.40629 0.79623 0.15346 -0.00300
C 	C 	0.39977 0.76420 0.13988 0.07400
C 	C 	0.40629 0.75500 0.09632 -0.05000
N 	N 	0.43409 0.83230 0.05078 -0.19900
H 	H 	0.42463 0.84272 0.13424 0.05900
C 	C 	0.39672 0.80790 0.19783 -0.00300
N 	N 	0.38751 0.74219 0.16840 -0.19400
H 	H 	0.40146 0.73047 0.08579 0.05600
C 	C 	0.36459 0.82248 0.20492 -0.08500
C 	C 	0.35802 0.84170 0.24212 0.10800
C 	C 	0.38398 0.84571 0.27316 -0.04900
C 	C 	0.41471 0.82836 0.26816 -0.05000
C 	C 	0.42135 0.80942 0.23073 0.07300
H 	H 	0.34535 0.82041 0.18019 0.06300
N 	N 	0.32722 0.85691 0.24712 -0.19900
H 	H 	0.43417 0.83074 0.29257 0.05300
N 	N 	0.45149 0.79308 0.22636 -0.19400
H 	H 	0.30848 0.85415 0.22365 0.10000
H 	H 	0.32136 0.87130 0.27434 0.10400
H 	H 	0.47000 0.79506 0.25023 0.09000
H 	H 	0.45644 0.77759 0.19993 0.09300
H 	H 	0.38243 0.71869 0.15798 0.09200
H 	H 	0.38332 0.74800 0.20119 0.09400
H 	H 	0.43353 0.82789 0.01738 0.09900
H 	H 	0.44024 0.85550 0.06148 0.09000
C 	C 	0.30600 0.91606 0.47192 -0.06200
C 	C 	0.27259 0.91270 0.45656 0.01900
C 	C 	0.26738 0.89720 0.41618 0.07100
C 	C 	0.29569 0.88752 0.39025 -0.03400
C 	C 	0.32922 0.89388 0.40370 -0.03100
C 	C 	0.33436 0.90637 0.44593 0.09400
C 	C 	0.24363 0.92851 0.48036 0.02800
N 	N 	0.23340 0.89252 0.40057 -0.01700
H 	H 	0.29153 0.87719 0.35827 0.06700
N 	N 	0.36834 0.90955 0.46228 -0.02000
H 	H 	0.31000 0.92686 0.50366 0.07900
C 	C 	0.21756 0.91012 0.50046 0.06300
C 	C 	0.18581 0.92438 0.51137 -0.00500
C 	C 	0.18003 0.95685 0.50271 -0.07400
C 	C 	0.20776 0.97605 0.48821 0.12200
C 	C 	0.23936 0.96175 0.47699 -0.07200
N 	N 	0.22269 0.87667 0.50795 -0.01400
H 	H 	0.16502 0.90979 0.52433 0.06500
N 	N 	0.20330 0.00969 0.48220 -0.02300
H 	H 	0.25988 0.97620 0.46312 0.07900
O 	O 	0.38936 0.88531 0.46010 -0.09400
O 	O 	0.37780 0.93628 0.48094 -0.09600
O 	O 	0.21500 0.91710 0.39020 -0.08200
O 	O 	0.22210 0.86362 0.39300 -0.08300
O 	O 	0.20212 0.02918 0.51565 -0.08300
O 	O 	0.20356 0.02111 0.44323 -0.08000
O 	O 	0.24979 0.86718 0.52790 -0.09700
O 	O 	0.19964 0.85582 0.49629 -0.09900
C 	C 	0.25627 0.77405 0.83927 -0.07400
C 	C 	0.29065 0.78383 0.83516 0.02400
C 	C 	0.29952 0.80838 0.80615 0.06000
C 	C 	0.27359 0.82639 0.78752 -0.00900
C 	C 	0.23897 0.82060 0.79878 -0.07400
C 	C 	0.23032 0.79195 0.82033 0.11400
C 	C 	0.31551 0.77341 0.86740 0.01500
N 	N 	0.33473 0.81669 0.79823 -0.01700
H 	H 	0.28054 0.84670 0.76770 0.07300
N 	N 	0.19520 0.78179 0.82454 -0.02300
H 	H 	0.24953 0.75399 0.85964 0.07400
C 	C 	0.31430 0.78670 0.90978 0.07000
C 	C 	0.34050 0.78006 0.93843 -0.03400
C 	C 	0.36837 0.76062 0.92507 -0.02900
C 	C 	0.36816 0.74525 0.88380 0.09200
C 	C 	0.34187 0.75200 0.85504 -0.05900
N 	N 	0.28710 0.80798 0.92328 -0.01900
H 	H 	0.34013 0.79155 0.97028 0.06900
N 	N 	0.39441 0.72265 0.87117 -0.02000
H 	H 	0.34226 0.74098 0.82291 0.07500
O 	O 	0.18298 0.77207 0.86171 -0.09600
O 	O 	0.17545 0.78217 0.79116 -0.10200
O 	O 	0.34902 0.81092 0.76030 -0.09700
O 	O 	0.35167 0.83232 0.82770 -0.09100
O 	O 	0.40051 0.69826 0.89550 -0.10600
O 	O 	0.41105 0.72560 0.83433 -0.10100
O 	O 	0.26584 0.79988 0.95441 -0.09300
O 	O 	0.28517 0.83638 0.90676 -0.08700
C 	C 	0.35772 0.47179 0.75461 -0.04400
C 	C 	0.38098 0.49563 0.74004 0.10400
C 	C 	0.38737 0.49900 0.69530 -0.08300
C 	C 	0.37171 0.47832 0.66532 -0.00600
C 	C 	0.35251 0.45171 0.68032 0.08100
C 	C 	0.34549 0.44882 0.72493 -0.05300
N 	N 	0.39745 0.51501 0.76876 -0.19800
H 	H 	0.40344 0.51849 0.68376 0.05900
C 	C 	0.37121 0.48735 0.61914 -0.00200
N 	N 	0.34016 0.42934 0.65204 -0.19400
H 	H 	0.32886 0.42967 0.73628 0.07300
C 	C 	0.39782 0.47691 0.59081 -0.08600
C 	C 	0.39576 0.48132 0.54587 0.10800
C 	C 	0.36601 0.49560 0.52914 -0.04900
C 	C 	0.34058 0.50800 0.55779 -0.05000
C 	C 	0.34300 0.50427 0.60271 0.07500
H 	H 	0.41991 0.46485 0.60367 0.06100
N 	N 	0.42259 0.47246 0.51919 -0.19900
H 	H 	0.31819 0.51962 0.54499 0.05300
N 	N 	0.31804 0.51667 0.62980 -0.19300
H 	H 	0.44389 0.46085 0.53158 0.09700
H 	H 	0.42326 0.47825 0.48638 0.10600
H 	H 	0.29687 0.52839 0.61725 0.09000
H 	H 	0.31970 0.51550 0.66346 0.09500
H 	H 	0.32499 0.41036 0.66326 0.10200
H 	H 	0.34631 0.42999 0.61891 0.09900
H 	H 	0.39570 0.51105 0.80210 0.09900
H 	H 	0.41353 0.53341 0.75778 0.09400
C 	C 	0.23106 0.98661 0.97828 0.12400
C 	C 	0.24975 0.01526 0.97476 -0.08900
C 	C 	0.23365 0.04403 0.98783 0.01400
C 	C 	0.19907 0.04500 0.99908 0.11000
C 	C 	0.17986 0.01656 0.00013 -0.08000
C 	C 	0.19699 0.98735 0.99206 -0.00500
O 	O 	0.23969 0.95971 0.95315 -0.17300
C 	C 	0.20742 0.94520 0.95110 0.02500
C 	C 	0.18200 0.96115 0.97488 -0.03800
O 	O 	0.18379 0.07453 0.99232 -0.19700
C 	C 	0.21221 0.09064 0.97488 0.02600
C 	C 	0.24193 0.07292 0.97211 -0.05300
H 	H 	0.27489 0.01538 0.95885 0.07300
H 	H 	0.15209 0.01740 0.00335 0.05300
H 	H 	0.15482 0.95937 0.96842 -0.01700
H 	H 	0.26345 0.07769 0.95016 0.05500
C 	C 	0.28640 0.30309 0.93369 -0.07200
C 	C 	0.26509 0.33005 0.93150 0.03100
C 	C 	0.22971 0.32719 0.94157 0.05900
C 	C 	0.21560 0.29697 0.95014 -0.00400
C 	C 	0.23647 0.26955 0.94867 -0.07800
C 	C 	0.27234 0.27288 0.94258 0.12100
C 	C 	0.27888 0.35985 0.91263 0.01700
N 	N 	0.20779 0.35476 0.94127 -0.01600
H 	H 	0.18815 0.29466 0.95603 0.07100
N 	N 	0.29449 0.24562 0.94529 -0.02200
H 	H 	0.31378 0.30543 0.92723 0.08600
C 	C 	0.29998 0.38065 0.93686 0.07200
C 	C 	0.31242 0.40897 0.91827 -0.03200
C 	C 	0.30407 0.41662 0.87573 -0.03100
C 	C 	0.28328 0.39562 0.85140 0.09600
C 	C 	0.27109 0.36727 0.86984 -0.05900
N 	N 	0.30889 0.37305 0.98025 -0.02000
H 	H 	0.32830 0.42515 0.93707 0.06800
N 	N 	0.27400 0.40332 0.80818 -0.02100
H 	H 	0.25504 0.35120 0.85110 0.08100
O 	O 	0.29323 0.22789 0.97956 -0.08700
O 	O 	0.31733 0.23966 0.91466 -0.09000
O 	O 	0.18006 0.35420 0.91862 -0.09400
O 	O 	0.21472 0.37988 0.96518 -0.08200
O 	O 	0.28108 0.38339 0.77624 -0.10300
O 	O 	0.25599 0.42891 0.80132 -0.09900
O 	O 	0.34102 0.37165 0.99062 -0.09200
O 	O 	0.28496 0.36977 0.01006 -0.07600
C 	C 	0.10709 0.06097 0.29364 0.10900
C 	C 	0.13093 0.08170 0.27401 -0.07500
C 	C 	0.12253 0.11428 0.27151 -0.00300
C 	C 	0.09355 0.12670 0.29238 0.13600
C 	C 	0.07004 0.10607 0.31295 -0.10300
C 	C 	0.07645 0.07287 0.31085 0.03000
O 	O 	0.11739 0.03252 0.31202 -0.16400
C 	C 	0.09096 0.02896 0.34300 0.01800
C 	C 	0.06604 0.05241 0.34170 -0.08000
O 	O 	0.09657 0.15893 0.30464 -0.26200
C 	C 	0.13025 0.16421 0.28972 0.02600
C 	C 	0.14575 0.13802 0.26977 -0.03900
H 	H 	0.15644 0.07324 0.26478 0.07500
H 	H 	0.04874 0.11562 0.33232 0.07000
H 	H 	0.04922 0.05903 0.36890 0.01900
H 	H 	0.17327 0.13468 0.26586 0.06600
C 	C 	0.33766 0.39543 0.33922 -0.05800
C 	C 	0.31175 0.37703 0.35924 0.01800
C 	C 	0.29947 0.38567 0.40128 0.06900
C 	C 	0.31240 0.41302 0.42221 -0.03200
C 	C 	0.33664 0.43257 0.40110 -0.03100
C 	C 	0.34998 0.42333 0.35978 0.09700
C 	C 	0.29569 0.35022 0.33496 0.02800
N 	N 	0.27284 0.36741 0.42210 -0.01800
H 	H 	0.30220 0.42002 0.45404 0.06600
N 	N 	0.37588 0.44227 0.33854 -0.02100
H 	H 	0.34765 0.38849 0.30727 0.08400
C 	C 	0.27368 0.35645 0.30053 0.06200
C 	C 	0.25291 0.33188 0.28405 -0.00400
C 	C 	0.25287 0.30145 0.30276 -0.07500
C 	C 	0.27742 0.29435 0.33402 0.12300
C 	C 	0.29890 0.31876 0.34973 -0.06800
N 	N 	0.27083 0.38814 0.28400 -0.01700
H 	H 	0.23476 0.33726 0.25911 0.07200
N 	N 	0.28008 0.26257 0.35052 -0.02300
H 	H 	0.31692 0.31360 0.37489 0.08500
O 	O 	0.37199 0.45100 0.29868 -0.08700
O 	O 	0.40421 0.44921 0.35815 -0.09500
O 	O 	0.27846 0.35376 0.45882 -0.09400
O 	O 	0.24223 0.36656 0.40615 -0.08700
O 	O 	0.28261 0.23805 0.32388 -0.08400
O 	O 	0.28157 0.25826 0.39211 -0.08200
O 	O 	0.27977 0.39367 0.24390 -0.08600
O 	O 	0.25661 0.41079 0.30784 -0.08600
C 	C 	0.49455 0.08280 0.21633 -0.04500
C 	C 	0.46017 0.07334 0.20931 0.10800
C 	C 	0.44504 0.04986 0.23565 -0.08500
C 	C 	0.46227 0.03842 0.27165 -0.00300
C 	C 	0.49418 0.05210 0.28290 0.07600
C 	C 	0.51054 0.07349 0.25444 -0.04900
N 	N 	0.44132 0.08749 0.17850 -0.19800
H 	H 	0.41984 0.04049 0.22816 0.06100
C 	C 	0.44860 0.00982 0.29422 -0.00400
N 	N 	0.50911 0.04487 0.32089 -0.19400
H 	H 	0.53620 0.08201 0.26126 0.06200
C 	C 	0.46651 0.98070 0.28986 -0.08400
C 	C 	0.45255 0.95242 0.30689 0.10600
C 	C 	0.41858 0.95267 0.32440 -0.04500
C 	C 	0.40144 0.98206 0.33089 -0.05000
C 	C 	0.41666 0.01082 0.31719 0.07700
H 	H 	0.49154 0.98014 0.27360 0.05900
N 	N 	0.47224 0.92554 0.30785 -0.19800
H 	H 	0.37592 0.98252 0.34584 0.06200
N 	N 	0.40072 0.03923 0.32650 -0.19400
H 	H 	0.49656 0.92501 0.29269 0.09100
H 	H 	0.46463 0.90578 0.32608 0.10100
H 	H 	0.37654 0.03968 0.34204 0.09900
H 	H 	0.41273 0.06111 0.32011 0.09900
H 	H 	0.53330 0.05408 0.32821 0.09600
H 	H 	0.49624 0.03122 0.34427 0.09800
H 	H 	0.45008 0.10812 0.16300 0.10500
H 	H 	0.41660 0.07922 0.17191 0.09600
C 	C 	0.58824 0.88804 0.81493 -0.04800
C 	C 	0.55311 0.88166 0.80815 0.10800
C 	C 	0.53766 0.85488 0.82746 -0.08400
C 	C 	0.55708 0.83413 0.85232 -0.00300
C 	C 	0.59327 0.83730 0.85214 0.07400
C 	C 	0.60860 0.86452 0.83361 -0.05100
N 	N 	0.53407 0.90150 0.78389 -0.19900
H 	H 	0.51016 0.85125 0.82533 0.06500
C 	C 	0.53899 0.81340 0.88400 -0.00200
N 	N 	0.61315 0.81499 0.87098 -0.19400
H 	H 	0.63596 0.86857 0.83669 0.06100
C 	C 	0.52656 0.78344 0.87009 -0.08600
C 	C 	0.50342 0.76611 0.89642 0.11200
C 	C 	0.49128 0.77987 0.93624 -0.04800
C 	C 	0.50657 0.80810 0.95210 -0.05100
C 	C 	0.53024 0.82513 0.92629 0.07400
H 	H 	0.53436 0.77389 0.83840 0.06200
N 	N 	0.49341 0.73618 0.88372 -0.19700
H 	H 	0.49841 0.81798 0.98348 0.05100
N 	N 	0.54368 0.85311 0.94182 -0.19400
H 	H 	0.50115 0.72675 0.85338 0.10200
H 	H 	0.47935 0.72145 0.90469 0.11100
H 	H 	0.53648 0.86186 0.97271 0.08700
H 	H 	0.56170 0.86621 0.92383 0.09400
H 	H 	0.63976 0.81809 0.87220 0.09400
H 	H 	0.60252 0.79393 0.88335 0.09400
H 	H 	0.54547 0.92041 0.76703 0.10000
H 	H 	0.50779 0.89742 0.78035 0.09700
C 	C 	0.58932 0.99639 0.87697 -0.04800
C 	C 	0.60930 0.00283 0.91392 0.11000
C 	C 	0.59633 0.02340 0.94691 -0.08400
C 	C 	0.56301 0.03588 0.94507 -0.00200
C 	C 	0.54326 0.02999 0.90782 0.07400
C 	C 	0.55676 0.01038 0.87397 -0.04900
N 	N 	0.64030 0.98844 0.91871 -0.19900
H 	H 	0.61148 0.02828 0.97532 0.06200
C 	C 	0.54806 0.05234 0.98411 -0.00500
N 	N 	0.51126 0.04267 0.90458 -0.19400
H 	H 	0.54159 0.00551 0.84556 0.05400
C 	C 	0.54999 0.08587 0.98759 -0.08800
C 	C 	0.54135 0.10178 0.02692 0.11200
C 	C 	0.53350 0.08356 0.06420 -0.05000
C 	C 	0.52902 0.05024 0.05980 -0.05000
C 	C 	0.53561 0.03452 0.01983 0.07600
H 	H 	0.55825 0.09960 0.95966 0.06300
N 	N 	0.53951 0.13436 0.02837 -0.19900
H 	H 	0.52163 0.03633 0.08791 0.05400
N 	N 	0.53028 0.00233 0.01606 -0.19200
H 	H 	0.54702 0.14770 0.00137 0.10000
H 	H 	0.52862 0.14657 0.05521 0.10700
H 	H 	0.52215 0.98918 0.04297 0.08800
H 	H 	0.53308 0.99023 0.98622 0.09000
H 	H 	0.49671 0.03782 0.87720 0.09300
H 	H 	0.50063 0.05765 0.92888 0.09500
H 	H 	0.64916 0.97049 0.89723 0.11700
H 	H 	0.65536 0.99426 0.94532 0.10000
C 	C 	0.95824 0.32005 0.31583 0.11600
C 	C 	0.98449 0.31917 0.34606 -0.09500
C 	C 	0.01726 0.33009 0.33337 0.00800
C 	C 	0.02488 0.33800 0.29089 0.11800
C 	C 	0.99923 0.33635 0.25981 -0.09400
C 	C 	0.96555 0.32915 0.27372 0.00700
O 	O 	0.92911 0.30101 0.32003 -0.18000
C 	C 	0.92048 0.29849 0.27644 0.02300
C 	C 	0.94191 0.31514 0.24860 -0.05900
O 	O 	0.05938 0.33467 0.27929 -0.17700
C 	C 	0.07144 0.32264 0.31801 0.02500
C 	C 	0.04665 0.31999 0.35048 -0.06200
H 	H 	0.98018 0.30795 0.37714 0.06500
H 	H 	0.00583 0.33809 0.22558 0.06800
H 	H 	0.94562 0.30952 0.21432 0.02600
H 	H 	0.04803 0.30367 0.37733 0.02900
C 	C 	0.96250 0.16855 0.40486 0.12600
C 	C 	0.96101 0.14583 0.43776 -0.09200
C 	C 	0.99201 0.13344 0.45257 0.01500
C 	C 	0.02294 0.13976 0.43148 0.11200
C 	C 	0.02422 0.16132 0.39700 -0.09000
C 	C 	0.99378 0.17700 0.38620 -0.02000
O 	O 	0.93455 0.17456 0.37906 -0.18200
C 	C 	0.95210 0.18691 0.34301 0.04100
C 	C 	0.98728 0.18852 0.34681 -0.06800
O 	O 	0.04728 0.11564 0.43539 -0.19200
C 	C 	0.02779 0.09398 0.45987 0.04600
C 	C 	0.99502 0.10455 0.47049 -0.05700
H 	H 	0.93652 0.13630 0.44899 0.07500
H 	H 	0.04762 0.16434 0.37776 0.03100
H 	H 	0.00561 0.18935 0.31978 0.00200
H 	H 	0.97354 0.08893 0.47834 0.05900
C 	C 	0.70923 0.16385 0.24676 -0.07000
C 	C 	0.68898 0.18459 0.22293 0.02700
C 	C 	0.70110 0.21563 0.21361 0.06100
C 	C 	0.73416 0.22482 0.22580 -0.00500
C 	C 	0.75556 0.20309 0.24641 -0.07700
C 	C 	0.74263 0.17263 0.25784 0.12000
C 	C 	0.65681 0.17249 0.20412 0.01900
N 	N 	0.68035 0.23752 0.19056 -0.01700
H 	H 	0.74371 0.24845 0.21762 0.06800
N 	N 	0.76402 0.14981 0.27814 -0.02100
H 	H 	0.69972 0.14013 0.25456 0.08000
C 	C 	0.65792 0.14964 0.16984 0.06800
C 	C 	0.62740 0.13611 0.15495 -0.03300
C 	C 	0.59555 0.14563 0.17328 -0.03100
C 	C 	0.59435 0.17001 0.20575 0.09600
C 	C 	0.62502 0.18285 0.22154 -0.06000
N 	N 	0.69012 0.13979 0.15045 -0.01800
H 	H 	0.62853 0.11770 0.12964 0.06900
N 	N 	0.56209 0.18230 0.22200 -0.02000
H 	H 	0.62411 0.20101 0.24718 0.08300
O 	O 	0.78660 0.13355 0.25503 -0.09600
O 	O 	0.75860 0.14303 0.31874 -0.09000
O 	O 	0.67142 0.26483 0.20854 -0.09100
O 	O 	0.67275 0.23133 0.15042 -0.08400
O 	O 	0.55547 0.18342 0.26357 -0.09300
O 	O 	0.54030 0.19432 0.19548 -0.08800
O 	O 	0.69846 0.10958 0.14901 -0.10200
O 	O 	0.71017 0.16077 0.13198 -0.08700
C 	C 	0.06122 0.04893 0.76994 0.12200
C 	C 	0.08580 0.02789 0.75144 -0.09500
C 	C 	0.11968 0.02987 0.76609 0.02800
C 	C 	0.12774 0.04895 0.80157 0.07300
C 	C 	0.10234 0.06815 0.82209 -0.09700
C 	C 	0.06991 0.06928 0.80361 -0.00300
O 	O 	0.02611 0.04325 0.76738 -0.18000
C 	C 	0.01479 0.06162 0.80339 0.03300
C 	C 	0.04066 0.07725 0.82497 -0.06900
O 	O 	0.15564 0.03797 0.82404 -0.24600
C 	C 	0.16228 0.00942 0.80085 0.04400
C 	C 	0.14168 0.00500 0.76540 -0.06900
H 	H 	0.07825 0.00902 0.72896 0.07900
H 	H 	0.10685 0.07958 0.85325 -0.03500
H 	H 	0.03863 0.08739 0.85757 0.04100
H 	H 	0.13612 0.98175 0.75083 0.06400
C 	C 	0.03706 0.14919 0.73731 0.11200
C 	C 	0.06814 0.13907 0.75480 -0.09200
C 	C 	0.07940 0.15485 0.79241 0.00800
C 	C 	0.06343 0.18201 0.80867 0.10400
C 	C 	0.03367 0.19342 0.78978 -0.11000
C 	C 	0.02105 0.17668 0.75354 0.00100
O 	O 	0.01478 0.12768 0.71749 -0.18100
C 	C 	0.98382 0.14411 0.72496 0.00800
C 	C 	0.98753 0.17356 0.74547 -0.07200
O 	O 	0.08393 0.20108 0.83477 -0.18100
C 	C 	0.11396 0.18270 0.83218 0.01700
C 	C 	0.11156 0.15502 0.80710 -0.09500
H 	H 	0.08171 0.11841 0.74124 0.06800
H 	H 	0.02058 0.21446 0.80303 0.05500
H 	H 	0.96724 0.18555 0.76427 -0.00300
H 	H 	0.13301 0.14133 0.79346 0.01300
C 	C 	0.73347 0.98580 0.76920 -0.05700
C 	C 	0.73213 0.99473 0.72569 0.01200
C 	C 	0.70348 0.98595 0.70103 0.07400
C 	C 	0.67496 0.97147 0.72145 -0.03400
C 	C 	0.67509 0.96543 0.76606 -0.02700
C 	C 	0.70523 0.97096 0.78942 0.09000
C 	C 	0.75918 0.01595 0.70785 0.03100
N 	N 	0.70332 0.99148 0.65535 -0.01900
H 	H 	0.65218 0.96631 0.70306 0.06900
N 	N 	0.70694 0.96210 0.83400 -0.02200
H 	H 	0.75612 0.99129 0.78770 0.06600
C 	C 	0.75946 0.04875 0.71983 0.05700
C 	C 	0.78986 0.06648 0.71524 -0.00900
C 	C 	0.82029 0.05148 0.70017 -0.08100
C 	C 	0.81850 0.02023 0.68180 0.11700
C 	C 	0.78800 0.00244 0.68635 -0.07600
N 	N 	0.72974 0.06336 0.74016 -0.01600
H 	H 	0.79035 0.09124 0.72656 0.07200
N 	N 	0.84757 0.00650 0.65888 -0.02000
H 	H 	0.78724 0.97769 0.67495 0.08300
O 	O 	0.71820 0.98253 0.86274 -0.11700
O 	O 	0.69928 0.93301 0.84537 -0.11300
O 	O 	0.69907 0.96757 0.62830 -0.09500
O 	O 	0.70465 0.02062 0.64102 -0.08100
O 	O 	0.86370 0.02273 0.62902 -0.08500
O 	O 	0.85695 0.97724 0.66647 -0.09500
O 	O 	0.73216 0.07791 0.77766 -0.09700
O 	O 	0.70061 0.06320 0.72046 -0.08300
C 	C 	0.21889 0.68784 0.39035 -0.04700
C 	C 	0.25139 0.68790 0.40984 0.10600
C 	C 	0.27253 0.66075 0.40517 -0.08400
C 	C 	0.26238 0.63434 0.37970 -0.00500
C 	C 	0.23243 0.63649 0.35490 0.07600
C 	C 	0.21061 0.66310 0.36094 -0.05100
N 	N 	0.26245 0.71397 0.43273 -0.19900
H 	H 	0.29633 0.65969 0.42262 0.05900
C 	C 	0.27958 0.60307 0.38530 -0.00300
N 	N 	0.22438 0.61301 0.32567 -0.19400
H 	H 	0.18641 0.66378 0.34435 0.06100
C 	C 	0.26338 0.58016 0.41152 -0.08300
C 	C 	0.28051 0.55199 0.42241 0.10700
C 	C 	0.31475 0.54693 0.40723 -0.04500
C 	C 	0.33046 0.56913 0.37947 -0.04900
C 	C 	0.31301 0.59707 0.36786 0.07500
H 	H 	0.23756 0.58461 0.42425 0.06000
N 	N 	0.26403 0.53002 0.44762 -0.19900
H 	H 	0.35645 0.56486 0.36724 0.05800
N 	N 	0.32830 0.61779 0.33979 -0.19400
H 	H 	0.23902 0.53433 0.45942 0.09400
H 	H 	0.27549 0.50825 0.45507 0.10000
H 	H 	0.35332 0.61360 0.32793 0.09300
H 	H 	0.31523 0.63769 0.32849 0.09400
H 	H 	0.20159 0.61415 0.30856 0.09700
H 	H 	0.24123 0.59405 0.31851 0.09800
H 	H 	0.24875 0.73550 0.43327 0.10300
H 	H 	0.28586 0.71338 0.44856 0.09500
C 	C 	0.17486 0.66547 0.86056 -0.04500
C 	C 	0.20968 0.66674 0.84622 0.10800
C 	C 	0.23105 0.64026 0.85234 -0.08400
C 	C 	0.21841 0.61297 0.87322 -0.00400
C 	C 	0.18508 0.61348 0.89267 0.07900
C 	C 	0.16343 0.63975 0.88584 -0.05100
N 	N 	0.22267 0.69326 0.82666 -0.20100
H 	H 	0.25716 0.64035 0.83920 0.06100
C 	C 	0.23826 0.58278 0.86899 -0.00300
N 	N 	0.17352 0.58862 0.91698 -0.19400
H 	H 	0.13715 0.63940 0.89838 0.06900
C 	C 	0.26448 0.57705 0.89821 -0.08400
C 	C 	0.28657 0.55063 0.89206 0.10700
C 	C 	0.28201 0.52955 0.85612 -0.04500
C 	C 	0.25521 0.53481 0.82764 -0.04900
C 	C 	0.23328 0.56124 0.83361 0.07700
H 	H 	0.26819 0.59360 0.92527 0.06200
N 	N 	0.31235 0.54603 0.92027 -0.19900
H 	H 	0.25155 0.51833 0.80049 0.06000
N 	N 	0.20771 0.56593 0.80510 -0.19400
H 	H 	0.31540 0.56168 0.94679 0.09600
H 	H 	0.32972 0.52711 0.91608 0.10000
H 	H 	0.20445 0.55000 0.77893 0.09400
H 	H 	0.19071 0.58518 0.80862 0.09600
H 	H 	0.14849 0.58871 0.93007 0.10000
H 	H 	0.18953 0.56947 0.92414 0.09900
H 	H 	0.20817 0.71416 0.82451 0.11000
H 	H 	0.24808 0.69361 0.81488 0.09200
C 	C 	0.12564 0.72067 0.73824 -0.04400
C 	C 	0.09537 0.71998 0.71357 0.10900
C 	C 	0.09771 0.72588 0.66884 -0.08400
C 	C 	0.12983 0.72934 0.64778 -0.00200
C 	C 	0.16004 0.73006 0.67239 0.07700
C 	C 	0.15753 0.72624 0.71745 -0.04500
N 	N 	0.06441 0.71212 0.73195 -0.19900
H 	H 	0.07463 0.72560 0.64988 0.06300
C 	C 	0.13176 0.72961 0.59970 -0.00200
N 	N 	0.19153 0.73400 0.65297 -0.19300
H 	H 	0.18066 0.72684 0.73634 0.06100
C 	C 	0.13538 0.75904 0.57876 -0.08400
C 	C 	0.14426 0.76002 0.53433 0.11100
C 	C 	0.14635 0.73094 0.50972 -0.04500
C 	C 	0.14012 0.70165 0.53017 -0.04800
C 	C 	0.13342 0.70060 0.57506 0.07500
H 	H 	0.13372 0.78119 0.59771 0.06600
N 	N 	0.15228 0.78866 0.51618 -0.19800
H 	H 	0.14123 0.67947 0.51120 0.05700
N 	N 	0.12905 0.67171 0.59430 -0.19400
H 	H 	0.14898 0.81003 0.53408 0.10900
H 	H 	0.16362 0.78999 0.48524 0.11400
H 	H 	0.13061 0.65044 0.57583 0.09200
H 	H 	0.12395 0.66997 0.62756 0.09400
H 	H 	0.21364 0.73445 0.67149 0.09500
H 	H 	0.19448 0.73662 0.61950 0.09700
H 	H 	0.06238 0.70292 0.76314 0.11000
H 	H 	0.04207 0.71332 0.71397 0.10000
C 	C 	0.99811 0.06337 0.00790 0.12000
C 	C 	0.02811 0.07626 0.02539 -0.09400
C 	C 	0.03978 0.10601 0.01024 0.01400
C 	C 	0.02558 0.11987 0.97452 0.10300
C 	C 	0.99705 0.10559 0.95495 -0.08600
C 	C 	0.98220 0.07868 0.97467 -0.00400
O 	O 	0.98950 0.03111 0.01131 -0.18100
C 	C 	0.96729 0.02855 0.97653 0.03500
C 	C 	0.96286 0.05663 0.95456 -0.06000
O 	O 	0.04812 0.13963 0.95173 -0.21400
C 	C 	0.07730 0.13589 0.97660 0.04400
C 	C 	0.07254 0.11597 0.01147 -0.05600
H 	H 	0.04288 0.06274 0.04806 0.06800
H 	H 	0.98811 0.11400 0.92420 0.02200
H 	H 	0.95326 0.05829 0.92201 0.04200
H 	H 	0.09299 0.10287 0.02645 0.06200
C 	C 	0.83194 0.07472 0.94735 0.11400
C 	C 	0.81244 0.04938 0.96423 -0.11200
C 	C 	0.82354 0.03437 0.00175 0.00900
C 	C 	0.85413 0.04304 0.02055 0.10600
C 	C 	0.87338 0.06878 0.00397 -0.08300
C 	C 	0.86101 0.08516 0.96819 0.00400
O 	O 	0.83238 0.08101 0.90327 -0.19500
C 	C 	0.86489 0.09488 0.89901 0.02400
C 	C 	0.88162 0.09832 0.93762 -0.06800
O 	O 	0.87010 0.01790 0.04102 -0.17800
C 	C 	0.84831 0.99275 0.02928 0.02100
C 	C 	0.81950 0.00277 0.00824 -0.07000
H 	H 	0.79190 0.03896 0.94551 0.06300
H 	H 	0.89922 0.07311 0.01494 0.07200
H 	H 	0.90919 0.10085 0.94012 0.02800
H 	H 	0.80439 0.98721 0.98752 0.03300
C 	C 	0.97697 0.93865 0.79787 0.11400
C 	C 	0.00084 0.92276 0.77032 -0.07300
C 	C 	0.03460 0.93446 0.76777 0.00400
C 	C 	0.04505 0.95950 0.79437 0.13100
C 	C 	0.02099 0.97610 0.82071 -0.09600
C 	C 	0.98657 0.96596 0.82078 0.02300
O 	O 	0.95005 0.92200 0.81748 -0.17900
C 	C 	0.94585 0.94033 0.85553 -0.01400
C 	C 	0.96614 0.96743 0.85653 -0.07200
O 	O 	0.07933 0.95779 0.80553 -0.26600
C 	C 	0.08827 0.92933 0.78364 0.02100
C 	C 	0.06213 0.91550 0.76070 -0.04400
H 	H 	0.99444 0.89971 0.75580 0.07400
H 	H 	0.02956 0.99364 0.84448 0.05300
H 	H 	0.97328 0.97970 0.88630 0.03400
H 	H 	0.06078 0.89017 0.75224 0.06100
C 	C 	0.03548 0.74143 0.94187 -0.05800
C 	C 	0.03312 0.77497 0.94134 0.01900
C 	C 	0.05547 0.79255 0.91396 0.07100
C 	C 	0.07947 0.77638 0.88691 -0.03000
C 	C 	0.08117 0.74278 0.88649 -0.02700
C 	C 	0.05904 0.72520 0.91421 0.09600
C 	C 	0.00586 0.79153 0.96747 0.02500
N 	N 	0.05357 0.82683 0.91316 -0.01700
H 	H 	0.09654 0.78997 0.86584 0.07900
N 	N 	0.05958 0.69086 0.91324 -0.02000
H 	H 	0.01824 0.72786 0.96274 0.08200
C 	C 	0.97185 0.79213 0.95301 0.06200
C 	C 	0.94797 0.81319 0.97285 -0.01000
C 	C 	0.95814 0.83454 0.00598 -0.07200
C 	C 	0.99045 0.83012 0.02486 0.11800
C 	C 	0.01444 0.80912 0.00487 -0.06500
N 	N 	0.96189 0.77250 0.91688 -0.01700
H 	H 	0.92237 0.81471 0.96005 0.07300
N 	N 	0.99894 0.84697 0.06412 -0.02000
H 	H 	0.03998 0.80713 0.01774 0.08500
O 	O 	0.05193 0.67514 0.87791 -0.09800
O 	O 	0.06526 0.67531 0.94851 -0.09600
O 	O 	0.08038 0.84404 0.92244 -0.11200
O 	O 	0.02602 0.84072 0.89969 -0.09300
O 	O 	0.97739 0.84740 0.09708 -0.08400
O 	O 	0.02882 0.86066 0.06759 -0.08600
O 	O 	0.93841 0.75059 0.92210 -0.09400
O 	O 	0.97416 0.77830 0.87818 -0.08800
C 	C 	0.00989 0.13502 0.19686 0.09500
C 	C 	0.00753 0.16832 0.19411 -0.05800
C 	C 	0.03691 0.18542 0.18078 -0.04500
C 	C 	0.06867 0.17067 0.17721 0.13500
C 	C 	0.07128 0.13736 0.18238 -0.10100
C 	C 	0.04085 0.11984 0.18886 0.01800
O 	O 	0.98612 0.11702 0.22038 -0.20100
C 	C 	0.00608 0.08977 0.22644 0.03900
C 	C 	0.03860 0.09120 0.20769 -0.06700
O 	O 	0.09604 0.19118 0.18529 -0.19100
C 	C 	0.07777 0.21927 0.19557 0.02300
C 	C 	0.04267 0.21615 0.19186 -0.05100
H 	H 	0.98461 0.18062 0.20566 -0.05300
H 	H 	0.09617 0.12595 0.18406 0.07400
H 	H 	0.05995 0.07572 0.21485 0.06200
H 	H 	0.02394 0.23141 0.20875 -0.01100
C 	C 	0.92971 0.05169 0.10572 0.11200
C 	C 	0.90011 0.07058 0.11104 -0.11200
C 	C 	0.90384 0.10397 0.11524 0.00100
C 	C 	0.93580 0.11788 0.11950 0.11700
C 	C 	0.96547 0.09896 0.11452 -0.09900
C 	C 	0.96174 0.06590 0.10610 0.00500
O 	O 	0.92977 0.01974 0.11760 -0.22100
C 	C 	0.96432 0.01645 0.12772 0.01600
C 	C 	0.98370 0.04358 0.11975 -0.05300
O 	O 	0.93540 0.14616 0.14440 -0.23000
C 	C 	0.90037 0.14746 0.15535 0.02000
C 	C 	0.88145 0.12278 0.13749 -0.05500
H 	H 	0.87526 0.05936 0.11620 0.05800
H 	H 	0.99058 0.10930 0.11939 0.06600
H 	H 	0.00749 0.04921 0.13578 0.05100
H 	H 	0.85687 0.11460 0.15048 0.05600
C 	C 	0.91136 0.00446 0.42398 0.11300
C 	C 	0.92423 0.01567 0.46351 -0.10400
C 	C 	0.93668 0.99335 0.49285 0.01900
C 	C 	0.93602 0.96080 0.48295 0.11100
C 	C 	0.91895 0.94959 0.44620 -0.09100
C 	C 	0.90690 0.97189 0.41672 0.00300
O 	O 	0.91694 0.02159 0.38620 -0.21500
C 	C 	0.91736 0.99635 0.35586 0.00600
C 	C 	0.90973 0.96704 0.37352 -0.05300
O 	O 	0.96433 0.94438 0.49753 -0.18700
C 	C 	0.98403 0.97015 0.51211 0.03900
C 	C 	0.96601 0.99855 0.51411 -0.06600
H 	H 	0.93006 0.04096 0.46776 0.07000
H 	H 	0.92062 0.92441 0.43695 0.07300
H 	H 	0.91744 0.94434 0.35848 0.05100
H 	H 	0.97802 0.02190 0.51731 0.06800
C 	C 	0.08132 0.87175 0.32055 -0.07000
C 	C 	0.07829 0.84258 0.29765 0.02900
C 	C 	0.05743 0.84066 0.26095 0.06200
C 	C 	0.03997 0.86804 0.24753 -0.00500
C 	C 	0.04325 0.89732 0.27030 -0.07800
C 	C 	0.06363 0.89896 0.30752 0.11900
C 	C 	0.09564 0.81381 0.31383 0.02000
N 	N 	0.05390 0.81100 0.23727 -0.01600
H 	H 	0.02426 0.86660 0.21903 0.07500
N 	N 	0.06535 0.92785 0.33319 -0.01500
H 	H 	0.09682 0.87310 0.34925 0.08700
C 	C 	0.13180 0.81164 0.31205 0.07200
C 	C 	0.14831 0.78807 0.33570 -0.03200
C 	C 	0.12909 0.76651 0.36093 -0.03000
C 	C 	0.09289 0.76706 0.35989 0.09600
C 	C 	0.07638 0.79087 0.33661 -0.06000
N 	N 	0.15185 0.83406 0.28744 -0.01900
H 	H 	0.17614 0.78725 0.33562 0.07200
N 	N 	0.07283 0.74355 0.38250 -0.02000
H 	H 	0.04856 0.79205 0.33722 0.08200
O 	O 	0.09493 0.94131 0.33999 -0.09000
O 	O 	0.03790 0.93880 0.35331 -0.17900
O 	O 	0.02349 0.79943 0.23003 -0.08700
O 	O 	0.08090 0.79671 0.22042 -0.07900
O 	O 	0.04788 0.75253 0.40883 -0.09300
O 	O 	0.07830 0.71314 0.37496 -0.09200
O 	O 	0.17684 0.84966 0.30552 -0.08300
O 	O 	0.14612 0.83782 0.24647 -0.08000
