data_crystal

_cell_length_a 44.68694
_cell_length_b 46.15853
_cell_length_c 34.94862
_cell_angle_alpha 89.97348
_cell_angle_beta  89.97427
_cell_angle_gamma 90.29100

_symmetry_space_group_name_	'P 1'
_symmetry_space_group_name_H-M	'P 1'

loop_
_symmetry_equiv_pos_as_xyz
  x,y,z

loop_
_atom_site_label
_atom_site_type_symbol
_atom_site_fract_x
_atom_site_fract_y
_atom_site_fract_z
_atom_site_charge
C 	C 	0.74160 0.92389 0.30601 0.28700
C 	C 	0.75463 0.84924 0.44554 0.30800
C 	C 	0.79561 0.92912 0.38673 0.30500
C 	C 	0.69879 0.84539 0.36439 0.28400
C 	C 	0.82877 0.84386 0.36776 0.30800
C 	C 	0.77207 0.83124 0.28273 0.28700
Ni	Ni	0.73952 0.89461 0.38603 1.11100
Ni	Ni	0.76436 0.83033 0.36651 1.11900
Ni	Ni	0.79267 0.88522 0.32388 1.12000
O 	O 	0.73764 0.92708 0.34369 -0.37200
O 	O 	0.76119 0.90510 0.29172 -0.38400
O 	O 	0.80855 0.82441 0.35789 -0.38900
O 	O 	0.73501 0.86882 0.43497 -0.37400
O 	O 	0.77475 0.83990 0.42135 -0.39400
O 	O 	0.79442 0.85001 0.28862 -0.38200
O 	O 	0.77863 0.91226 0.40783 -0.38100
O 	O 	0.79771 0.92462 0.34961 -0.38100
O 	O 	0.75730 0.81918 0.31172 -0.38600
O 	O 	0.70062 0.87399 0.36814 -0.37300
O 	O 	0.71954 0.82804 0.37926 -0.37900
O 	O 	0.82588 0.87111 0.35755 -0.38900
O 	O 	0.76030 0.86987 0.35291 -0.71700
H 	H 	0.74545 0.86785 0.33227 0.15400
C 	C 	0.75487 0.58302 0.80835 0.28700
C 	C 	0.74055 0.65958 0.94545 0.30900
C 	C 	0.69879 0.58002 0.88848 0.30600
C 	C 	0.79768 0.66170 0.86605 0.28500
C 	C 	0.66751 0.66458 0.86597 0.30900
C 	C 	0.72515 0.67568 0.78172 0.28800
Ni	Ni	0.75579 0.61322 0.88752 1.11200
Ni	Ni	0.73205 0.67737 0.86570 1.12000
Ni	Ni	0.70369 0.62221 0.82388 1.12100
O 	O 	0.75757 0.58005 0.84622 -0.37100
O 	O 	0.73529 0.60133 0.79294 -0.38200
O 	O 	0.68808 0.68367 0.85603 -0.38800
O 	O 	0.76013 0.63975 0.93569 -0.37400
O 	O 	0.72088 0.66885 0.92063 -0.39400
O 	O 	0.70280 0.65684 0.78748 -0.38100
O 	O 	0.71615 0.59668 0.90932 -0.38000
O 	O 	0.69781 0.58345 0.85107 -0.37900
O 	O 	0.73998 0.68758 0.81076 -0.38800
O 	O 	0.79514 0.63311 0.86972 -0.37400
O 	O 	0.77670 0.67948 0.87945 -0.37800
O 	O 	0.66996 0.63724 0.85601 -0.38900
O 	O 	0.73582 0.63766 0.85322 -0.71800
H 	H 	0.75098 0.63922 0.83286 0.15500
C 	C 	0.16287 0.70308 0.67737 0.28600
C 	C 	0.08368 0.78533 0.60175 0.30900
C 	C 	0.17202 0.74137 0.58142 0.30800
C 	C 	0.07446 0.74962 0.69796 0.28800
C 	C 	0.16654 0.82628 0.63754 0.31000
C 	C 	0.16393 0.78782 0.73535 0.28800
Ni	Ni	0.11702 0.73459 0.63095 1.11200
Ni	Ni	0.11653 0.79648 0.67475 1.12000
Ni	Ni	0.17874 0.76521 0.65887 1.12000
O 	O 	0.13447 0.70277 0.66619 -0.37400
O 	O 	0.18283 0.72090 0.66130 -0.37700
O 	O 	0.13777 0.82066 0.63563 -0.39200
O 	O 	0.10376 0.76602 0.59242 -0.38000
O 	O 	0.08142 0.79426 0.63742 -0.37900
O 	O 	0.18049 0.76899 0.71598 -0.38600
O 	O 	0.15145 0.72306 0.59352 -0.37300
O 	O 	0.17818 0.76484 0.60103 -0.38800
O 	O 	0.14601 0.80657 0.71755 -0.38300
O 	O 	0.07710 0.73913 0.66249 -0.37100
O 	O 	0.09044 0.77233 0.70985 -0.38300
O 	O 	0.18483 0.80865 0.65568 -0.38600
O 	O 	0.13651 0.76154 0.66252 -0.71700
H 	H 	0.13490 0.75163 0.68740 0.15500
C 	C 	0.33724 0.81212 0.16991 0.28500
C 	C 	0.41522 0.72455 0.10273 0.30600
C 	C 	0.33078 0.77289 0.07427 0.30700
C 	C 	0.42155 0.76194 0.19893 0.28600
C 	C 	0.32950 0.68957 0.13033 0.30900
C 	C 	0.32901 0.72856 0.22969 0.28800
Ni	Ni	0.38357 0.77771 0.12790 1.11200
Ni	Ni	0.37860 0.71656 0.17336 1.12100
Ni	Ni	0.31902 0.75058 0.15162 1.12000
O 	O 	0.36608 0.81093 0.16084 -0.37300
O 	O 	0.31713 0.79507 0.15276 -0.37700
O 	O 	0.35869 0.69200 0.13345 -0.39100
O 	O 	0.39745 0.74527 0.09111 -0.38100
O 	O 	0.41554 0.71684 0.13901 -0.38000
O 	O 	0.31415 0.74763 0.20856 -0.38600
O 	O 	0.35171 0.79034 0.08746 -0.37300
O 	O 	0.32238 0.75010 0.09393 -0.39100
O 	O 	0.34654 0.70856 0.21376 -0.38200
O 	O 	0.42142 0.77174 0.16294 -0.37000
O 	O 	0.40395 0.74011 0.21001 -0.38300
O 	O 	0.31158 0.70740 0.14866 -0.38700
O 	O 	0.36110 0.75217 0.15836 -0.71800
H 	H 	0.36196 0.76241 0.18304 0.15400
C 	C 	0.24245 0.08682 0.44108 0.28900
C 	C 	0.24644 0.16198 0.30097 0.30800
C 	C 	0.28974 0.08302 0.35428 0.30700
C 	C 	0.19540 0.16629 0.38782 0.28500
C 	C 	0.32544 0.16878 0.37204 0.31000
C 	C 	0.27399 0.18031 0.46135 0.28800
Ni	Ni	0.23413 0.11712 0.36214 1.11300
Ni	Ni	0.26087 0.18137 0.37874 1.12000
Ni	Ni	0.29153 0.12655 0.41770 1.12000
O 	O 	0.23485 0.08429 0.40419 -0.37100
O 	O 	0.26230 0.10640 0.45306 -0.38500
O 	O 	0.30549 0.18803 0.38285 -0.38600
O 	O 	0.22672 0.14324 0.31416 -0.37300
O 	O 	0.26787 0.17175 0.32305 -0.39200
O 	O 	0.29576 0.16163 0.45301 -0.38200
O 	O 	0.27137 0.09987 0.33555 -0.38100
O 	O 	0.29461 0.08728 0.39104 -0.38000
O 	O 	0.25743 0.19235 0.43411 -0.38500
O 	O 	0.19689 0.13767 0.38455 -0.37300
O 	O 	0.21535 0.18357 0.37072 -0.37800
O 	O 	0.32196 0.14119 0.38018 -0.39000
O 	O 	0.25733 0.14183 0.39282 -0.71800
H 	H 	0.24398 0.14376 0.41507 0.15500
C 	C 	0.25790 0.42603 0.93996 0.28900
C 	C 	0.25010 0.35108 0.79977 0.30900
C 	C 	0.20779 0.43023 0.85611 0.30700
C 	C 	0.30385 0.34715 0.88275 0.28500
C 	C 	0.17320 0.34420 0.87450 0.31000
C 	C 	0.22684 0.33203 0.96128 0.28900
Ni	Ni	0.26357 0.39620 0.86029 1.11300
Ni	Ni	0.23792 0.33178 0.87813 1.12000
Ni	Ni	0.20823 0.38622 0.91898 1.12100
O 	O 	0.26414 0.42879 0.90266 -0.37100
O 	O 	0.23853 0.40631 0.95291 -0.38400
O 	O 	0.19348 0.32500 0.88445 -0.38700
O 	O 	0.26963 0.37049 0.81163 -0.37400
O 	O 	0.22923 0.34147 0.82287 -0.39200
O 	O 	0.20501 0.35095 0.95413 -0.38200
O 	O 	0.22530 0.41334 0.83615 -0.38100
O 	O 	0.20411 0.42566 0.89302 -0.38100
O 	O 	0.24312 0.32067 0.93324 -0.38800
O 	O 	0.30172 0.37580 0.88018 -0.37400
O 	O 	0.28314 0.32967 0.86757 -0.37700
O 	O 	0.17677 0.37176 0.88282 -0.39000
O 	O 	0.24174 0.37124 0.89223 -0.71800
H 	H 	0.25588 0.36927 0.91366 0.15700
C 	C 	0.82482 0.20197 0.57074 0.28500
C 	C 	0.91429 0.27247 0.65518 0.30700
C 	C 	0.81908 0.24062 0.66930 0.30500
C 	C 	0.91883 0.23423 0.56042 0.28500
C 	C 	0.83659 0.32168 0.61847 0.30700
C 	C 	0.84376 0.28572 0.51705 0.28800
Ni	Ni	0.87342 0.22583 0.62340 1.11200
Ni	Ni	0.88514 0.28823 0.58250 1.12000
Ni	Ni	0.81813 0.26418 0.59059 1.12100
O 	O 	0.83837 0.19914 0.60439 -0.37200
O 	O 	0.81276 0.22704 0.56004 -0.37700
O 	O 	0.85658 0.32128 0.59079 -0.38900
O 	O 	0.91139 0.24472 0.64748 -0.37500
O 	O 	0.89718 0.29173 0.63833 -0.38800
O 	O 	0.82200 0.28876 0.54263 -0.38200
O 	O 	0.84840 0.23866 0.67066 -0.37600
O 	O 	0.80509 0.24007 0.63627 -0.38100
O 	O 	0.87241 0.28775 0.52709 -0.38400
O 	O 	0.90219 0.21468 0.57885 -0.37300
O 	O 	0.92068 0.26150 0.57259 -0.38000
O 	O 	0.81976 0.29879 0.62555 -0.39000
O 	O 	0.85979 0.25597 0.59198 -0.71600
H 	H 	0.86168 0.24641 0.56695 0.14900
C 	C 	0.66576 0.30991 0.07960 0.28600
C 	C 	0.58861 0.22435 0.15860 0.30800
C 	C 	0.67636 0.26527 0.17472 0.30600
C 	C 	0.57516 0.26679 0.06741 0.28800
C 	C 	0.66913 0.18784 0.11665 0.30800
C 	C 	0.65793 0.22870 0.01803 0.28500
Ni	Ni	0.62083 0.27754 0.12959 1.11200
Ni	Ni	0.61730 0.21673 0.08267 1.11900
Ni	Ni	0.68089 0.24815 0.09384 1.12000
O 	O 	0.65192 0.30942 0.11328 -0.37000
O 	O 	0.68153 0.28733 0.06732 -0.37900
O 	O 	0.65025 0.18752 0.08784 -0.38900
O 	O 	0.58617 0.25212 0.15106 -0.37600
O 	O 	0.60587 0.20755 0.13773 -0.38800
O 	O 	0.68002 0.22656 0.04331 -0.38000
O 	O 	0.64698 0.26611 0.17652 -0.37800
O 	O 	0.69015 0.27052 0.14228 -0.38200
O 	O 	0.62981 0.22216 0.02751 -0.38200
O 	O 	0.59085 0.28709 0.08572 -0.37400
O 	O 	0.57809 0.23880 0.07586 -0.38000
O 	O 	0.68471 0.21140 0.12454 -0.39100
O 	O 	0.63842 0.25102 0.09593 -0.71600
H 	H 	0.63522 0.26167 0.07190 0.14700
C 	C 	0.66569 0.23388 0.97774 -0.08200
C 	C 	0.68656 0.25562 0.96859 0.01000
C 	C 	0.69880 0.25715 0.93190 -0.06300
C 	C 	0.69039 0.23689 0.90398 0.02600
C 	C 	0.66816 0.21621 0.91238 -0.06500
C 	C 	0.65579 0.21475 0.94916 0.01600
C 	C 	0.70695 0.23559 0.86749 0.00000
C 	C 	0.70803 0.25990 0.84336 -0.03900
C 	C 	0.72688 0.26008 0.81141 -0.03800
C 	C 	0.74467 0.23591 0.80324 -0.00100
C 	C 	0.74300 0.21131 0.82674 -0.03800
C 	C 	0.72425 0.21116 0.85876 -0.03800
C 	C 	0.76466 0.23615 0.76970 0.02700
C 	C 	0.78968 0.25467 0.76874 -0.06700
C 	C 	0.80812 0.25546 0.73637 0.01700
C 	C 	0.80155 0.23787 0.70471 -0.08900
C 	C 	0.77685 0.21896 0.70605 0.01700
C 	C 	0.75853 0.21809 0.73841 -0.06700
H 	H 	0.69428 0.27054 0.99040 0.03300
H 	H 	0.71580 0.27330 0.92566 0.04600
H 	H 	0.66123 0.20069 0.89085 0.04600
H 	H 	0.63962 0.19793 0.95587 0.03500
H 	H 	0.69472 0.27884 0.84980 0.03800
H 	H 	0.72776 0.27903 0.79313 0.03900
H 	H 	0.75653 0.19248 0.82048 0.03900
H 	H 	0.72375 0.19237 0.87735 0.04000
H 	H 	0.79467 0.26857 0.79290 0.04600
H 	H 	0.82705 0.27022 0.73556 0.03400
H 	H 	0.77173 0.20511 0.68188 0.03600
H 	H 	0.73934 0.20365 0.73900 0.04700
C 	C 	0.69412 0.26254 0.21003 -0.08800
C 	C 	0.72250 0.24963 0.20867 0.01900
C 	C 	0.74103 0.25007 0.24084 -0.06700
C 	C 	0.73131 0.26322 0.27474 0.02800
C 	C 	0.70246 0.27499 0.27671 -0.06700
C 	C 	0.68390 0.27464 0.24448 0.01900
C 	C 	0.75188 0.26600 0.30745 -0.00100
C 	C 	0.74717 0.24948 0.34061 -0.03800
C 	C 	0.76631 0.25267 0.37198 -0.03800
C 	C 	0.79020 0.27249 0.37045 -0.00000
C 	C 	0.79519 0.28866 0.33704 -0.03900
C 	C 	0.77613 0.28538 0.30562 -0.03800
C 	C 	0.80835 0.27803 0.40487 0.02700
C 	C 	0.82744 0.25653 0.41913 -0.06600
C 	C 	0.84132 0.26019 0.45470 0.01300
C 	C 	0.83584 0.28516 0.47639 -0.08500
C 	C 	0.81824 0.30739 0.46103 0.01700
C 	C 	0.80462 0.30388 0.42535 -0.06600
H 	H 	0.73040 0.23971 0.18248 0.03100
H 	H 	0.76314 0.24062 0.23924 0.04700
H 	H 	0.69472 0.28504 0.30290 0.04700
H 	H 	0.66202 0.28458 0.24598 0.03200
H 	H 	0.72859 0.23436 0.34217 0.03900
H 	H 	0.76221 0.24020 0.39775 0.04000
H 	H 	0.81355 0.30405 0.33565 0.03900
H 	H 	0.77996 0.29815 0.28004 0.04000
H 	H 	0.83070 0.23662 0.40330 0.04600
H 	H 	0.85502 0.24298 0.46625 0.02700
H 	H 	0.81408 0.32686 0.47746 0.03400
H 	H 	0.79015 0.32071 0.41437 0.04700
C 	C 	0.54836 0.27566 0.04598 -0.08100
C 	C 	0.52143 0.26018 0.05053 0.01400
C 	C 	0.49595 0.26829 0.03023 -0.06500
C 	C 	0.49702 0.29198 0.00520 0.02600
C 	C 	0.52386 0.30754 0.00053 -0.06500
C 	C 	0.54945 0.29946 0.02097 0.01200
C 	C 	0.46987 0.30065 0.98438 0.00100
C 	C 	0.46712 0.29471 0.94517 -0.03900
C 	C 	0.44011 0.30005 0.92630 -0.03800
C 	C 	0.41569 0.31142 0.94651 -0.00000
C 	C 	0.41865 0.31782 0.98558 -0.03700
C 	C 	0.44561 0.31243 0.00443 -0.04000
C 	C 	0.38740 0.31772 0.92651 0.02600
C 	C 	0.36066 0.30421 0.93814 -0.06400
C 	C 	0.33335 0.31270 0.92223 0.01000
C 	C 	0.33260 0.33481 0.89472 -0.08200
C 	C 	0.35949 0.34724 0.88171 0.01600
C 	C 	0.38675 0.33875 0.89757 -0.06600
H 	H 	0.52017 0.24201 0.07012 0.03700
H 	H 	0.47531 0.25620 0.03400 0.04600
H 	H 	0.52484 0.32592 0.98126 0.04600
H 	H 	0.57010 0.31152 0.01716 0.03300
H 	H 	0.48568 0.28543 0.92953 0.03900
H 	H 	0.43809 0.29519 0.89608 0.03900
H 	H 	0.40006 0.32698 0.00130 0.03900
H 	H 	0.44755 0.31704 0.03473 0.04000
H 	H 	0.36098 0.28770 0.96019 0.04500
H 	H 	0.31273 0.30291 0.93237 0.03100
H 	H 	0.35918 0.36402 0.86003 0.03400
H 	H 	0.40728 0.34915 0.88821 0.04600
C 	C 	0.14474 0.33446 0.85754 -0.08900
C 	C 	0.11792 0.34830 0.86754 0.02000
C 	C 	0.09138 0.34148 0.84838 -0.06800
C 	C 	0.09137 0.32076 0.81908 0.02800
C 	C 	0.11793 0.30618 0.80992 -0.06700
C 	C 	0.14452 0.31299 0.82911 0.01900
C 	C 	0.06387 0.31520 0.79696 -0.00100
C 	C 	0.04967 0.28808 0.79897 -0.03800
C 	C 	0.02410 0.28255 0.77709 -0.03800
C 	C 	0.01259 0.30408 0.75289 -0.00000
C 	C 	0.02639 0.33143 0.75156 -0.03800
C 	C 	0.05193 0.33697 0.77352 -0.03800
C 	C 	0.98772 0.29717 0.72667 0.02800
C 	C 	0.96023 0.31159 0.72996 -0.06700
C 	C 	0.93636 0.30414 0.70586 0.01700
C 	C 	0.93984 0.28215 0.67851 -0.09100
C 	C 	0.96760 0.26834 0.67465 0.01800
C 	C 	0.99139 0.27583 0.69857 -0.06700
H 	H 	0.11772 0.36462 0.88980 0.03100
H 	H 	0.07091 0.35259 0.85592 0.04700
H 	H 	0.11810 0.29008 0.78737 0.04600
H 	H 	0.16509 0.30227 0.82103 0.03100
H 	H 	0.05857 0.27124 0.81726 0.03900
H 	H 	0.01350 0.26141 0.77844 0.03900
H 	H 	0.01774 0.34814 0.73287 0.03900
H 	H 	0.06271 0.35801 0.77188 0.04000
H 	H 	0.95724 0.32822 0.75147 0.04600
H 	H 	0.91505 0.31498 0.70905 0.03400
H 	H 	0.97068 0.25169 0.65317 0.03700
H 	H 	0.01266 0.26492 0.69543 0.04700
C 	C 	0.35388 0.17853 0.35536 -0.08900
C 	C 	0.35422 0.19243 0.31967 0.01800
C 	C 	0.38138 0.19716 0.30065 -0.06700
C 	C 	0.40838 0.18821 0.31739 0.02800
C 	C 	0.40808 0.17565 0.35395 -0.06800
C 	C 	0.38095 0.17072 0.37277 0.02100
C 	C 	0.43677 0.19085 0.29602 -0.00000
C 	C 	0.45372 0.16605 0.28792 -0.03800
C 	C 	0.48077 0.16854 0.26803 -0.03800
C 	C 	0.49101 0.19581 0.25587 -0.00100
C 	C 	0.47397 0.22059 0.26382 -0.03800
C 	C 	0.44704 0.21812 0.28392 -0.03800
C 	C 	0.51920 0.19846 0.23407 0.02800
C 	C 	0.52214 0.18477 0.19840 -0.06800
C 	C 	0.54668 0.19109 0.17493 0.02000
C 	C 	0.56825 0.21137 0.18679 -0.09000
C 	C 	0.56649 0.22330 0.22363 0.01900
C 	C 	0.54212 0.21679 0.24724 -0.06700
H 	H 	0.33342 0.19848 0.30598 0.03100
H 	H 	0.38137 0.20701 0.27251 0.04600
H 	H 	0.42883 0.16914 0.36741 0.04700
H 	H 	0.38090 0.16016 0.40047 0.02800
H 	H 	0.44590 0.14487 0.29695 0.03900
H 	H 	0.49375 0.14930 0.26205 0.03800
H 	H 	0.48155 0.24172 0.25425 0.03900
H 	H 	0.43418 0.23739 0.29015 0.03900
H 	H 	0.50474 0.17031 0.18814 0.04600
H 	H 	0.54792 0.18165 0.14660 0.02600
H 	H 	0.58324 0.23872 0.23323 0.03000
H 	H 	0.54043 0.22692 0.27511 0.04700
C 	C 	0.16809 0.17886 0.40412 -0.08300
C 	C 	0.15704 0.16831 0.43905 0.01400
C 	C 	0.12854 0.17615 0.45160 -0.06500
C 	C 	0.11085 0.19465 0.42937 0.02600
C 	C 	0.12244 0.20641 0.39539 -0.06600
C 	C 	0.15102 0.19856 0.38280 0.01500
C 	C 	0.07972 0.20043 0.44075 -0.00000
C 	C 	0.05798 0.17852 0.43757 -0.03800
C 	C 	0.02925 0.18277 0.45230 -0.03900
C 	C 	0.02206 0.20896 0.47040 0.00000
C 	C 	0.04353 0.23124 0.47241 -0.03800
C 	C 	0.07224 0.22699 0.45758 -0.03800
C 	C 	0.99281 0.21239 0.48949 0.02600
C 	C 	0.98497 0.19434 0.52029 -0.06500
C 	C 	0.95936 0.20014 0.54191 0.01500
C 	C 	0.94148 0.22414 0.53303 -0.08200
C 	C 	0.94829 0.24104 0.50074 0.01100
C 	C 	0.97383 0.23518 0.47905 -0.06400
H 	H 	0.17020 0.15333 0.45590 0.03000
H 	H 	0.11991 0.16730 0.47815 0.04600
H 	H 	0.10900 0.22094 0.37823 0.04600
H 	H 	0.15933 0.20684 0.35577 0.03400
H 	H 	0.06356 0.15798 0.42443 0.04000
H 	H 	0.01276 0.16555 0.45031 0.03900
H 	H 	0.03821 0.25152 0.48636 0.03900
H 	H 	0.08889 0.24402 0.46011 0.03900
H 	H 	0.99937 0.17655 0.52842 0.04600
H 	H 	0.95431 0.18690 0.56671 0.03400
H 	H 	0.93438 0.25937 0.49331 0.03200
H 	H 	0.97940 0.24892 0.45490 0.04600
C 	C 	0.24273 0.17445 0.26245 -0.09200
C 	C 	0.21403 0.18100 0.24864 0.01700
C 	C 	0.21073 0.19704 0.21493 -0.06800
C 	C 	0.23608 0.20651 0.19467 0.02700
C 	C 	0.26470 0.19884 0.20752 -0.06800
C 	C 	0.26802 0.18289 0.24124 0.01700
C 	C 	0.23278 0.22572 0.16120 -0.00100
C 	C 	0.24203 0.21641 0.12489 -0.03800
C 	C 	0.24072 0.23528 0.09364 -0.03800
C 	C 	0.23024 0.26368 0.09847 0.00000
C 	C 	0.22056 0.27285 0.13467 -0.03900
C 	C 	0.22180 0.25395 0.16591 -0.03800
C 	C 	0.22968 0.28384 0.06565 0.02600
C 	C 	0.20239 0.29496 0.05247 -0.06500
C 	C 	0.20158 0.31208 0.01945 0.01400
C 	C 	0.22808 0.31811 0.99922 -0.08100
C 	C 	0.25552 0.30802 0.01341 0.01300
C 	C 	0.25631 0.29098 0.04648 -0.06500
H 	H 	0.19433 0.17469 0.26476 0.03600
H 	H 	0.18853 0.20264 0.20502 0.04700
H 	H 	0.28439 0.20590 0.19192 0.04600
H 	H 	0.29027 0.17772 0.25139 0.03400
H 	H 	0.25045 0.19464 0.12097 0.03900
H 	H 	0.24797 0.22791 0.06572 0.03900
H 	H 	0.21243 0.29472 0.13869 0.03900
H 	H 	0.21472 0.26137 0.19388 0.03900
H 	H 	0.18172 0.28969 0.06719 0.04600
H 	H 	0.18026 0.31968 0.00881 0.03700
H 	H 	0.27615 0.31283 0.99835 0.03200
H 	H 	0.27754 0.28288 0.05679 0.04500
C 	C 	0.25368 0.33755 0.76182 -0.09200
C 	C 	0.22857 0.32644 0.74249 0.01600
C 	C 	0.23222 0.30999 0.70925 -0.06700
C 	C 	0.26099 0.30448 0.69500 0.02700
C 	C 	0.28603 0.31646 0.71345 -0.06700
C 	C 	0.28241 0.33299 0.74667 0.01700
C 	C 	0.26491 0.28523 0.66170 -0.00100
C 	C 	0.27871 0.25818 0.66616 -0.03800
C 	C 	0.28084 0.23920 0.63510 -0.03900
C 	C 	0.26920 0.24713 0.59932 0.00000
C 	C 	0.25588 0.27440 0.59472 -0.03800
C 	C 	0.25370 0.29334 0.62579 -0.03800
C 	C 	0.27051 0.22676 0.56679 0.02600
C 	C 	0.24399 0.21715 0.54934 -0.06500
C 	C 	0.24517 0.20045 0.51603 0.01400
C 	C 	0.27290 0.19312 0.49990 -0.08200
C 	C 	0.29944 0.20139 0.51854 0.01500
C 	C 	0.29824 0.21821 0.55181 -0.06500
H 	H 	0.20627 0.33003 0.75365 0.03500
H 	H 	0.21274 0.30097 0.69506 0.04600
H 	H 	0.30832 0.31254 0.70245 0.04700
H 	H 	0.30198 0.34135 0.76133 0.03700
H 	H 	0.28735 0.25170 0.69382 0.03900
H 	H 	0.29116 0.21821 0.63894 0.03900
H 	H 	0.24709 0.28083 0.56712 0.04000
H 	H 	0.24313 0.31422 0.62203 0.03900
H 	H 	0.22246 0.22321 0.56107 0.04600
H 	H 	0.22455 0.19389 0.50214 0.03200
H 	H 	0.32098 0.19589 0.50638 0.03700
H 	H 	0.31885 0.22536 0.56523 0.04600
C 	C 	0.32696 0.83656 0.19327 -0.08300
C 	C 	0.34178 0.84310 0.22760 0.01400
C 	C 	0.33631 0.86927 0.24634 -0.06500
C 	C 	0.31599 0.88914 0.23090 0.02600
C 	C 	0.29985 0.88190 0.19778 -0.06600
C 	C 	0.30528 0.85565 0.17903 0.01500
C 	C 	0.31330 0.91826 0.24779 -0.00000
C 	C 	0.28686 0.92641 0.26645 -0.03900
C 	C 	0.28482 0.95364 0.28377 -0.03800
C 	C 	0.30920 0.97293 0.28246 -0.00100
C 	C 	0.33550 0.96490 0.26338 -0.03800
C 	C 	0.33755 0.93767 0.24612 -0.03800
C 	C 	0.30722 0.00144 0.30127 0.02700
C 	C 	0.30732 0.02687 0.27927 -0.06700
C 	C 	0.30324 0.05377 0.29686 0.01600
C 	C 	0.29899 0.05546 0.33663 -0.09000
C 	C 	0.30024 0.03007 0.35879 0.01600
C 	C 	0.30429 0.00320 0.34115 -0.06700
H 	H 	0.35829 0.82833 0.23906 0.02900
H 	H 	0.34853 0.87449 0.27223 0.04600
H 	H 	0.28390 0.89702 0.18584 0.04600
H 	H 	0.29368 0.85080 0.15257 0.03500
H 	H 	0.26804 0.91156 0.26787 0.03900
H 	H 	0.26436 0.95973 0.29825 0.03900
H 	H 	0.35441 0.97966 0.26218 0.03900
H 	H 	0.35801 0.93158 0.23163 0.03900
H 	H 	0.30986 0.02573 0.24848 0.04700
H 	H 	0.30267 0.07320 0.27949 0.03600
H 	H 	0.29693 0.03100 0.38947 0.03800
H 	H 	0.30456 0.98369 0.35840 0.04700
C 	C 	0.31697 0.66453 0.10974 -0.09000
C 	C 	0.29423 0.64763 0.12643 0.01700
C 	C 	0.28610 0.62106 0.11005 -0.06700
C 	C 	0.30058 0.61132 0.07685 0.02700
C 	C 	0.32211 0.62895 0.05907 -0.06700
C 	C 	0.33025 0.65544 0.07541 0.01800
C 	C 	0.29450 0.58204 0.06190 -0.00100
C 	C 	0.31674 0.56073 0.06365 -0.03800
C 	C 	0.31185 0.53357 0.04705 -0.03900
C 	C 	0.28468 0.52752 0.02854 -0.00000
C 	C 	0.26218 0.54864 0.02753 -0.03800
C 	C 	0.26706 0.57578 0.04421 -0.03800
C 	C 	0.28021 0.49955 0.00888 0.02600
C 	C 	0.25666 0.48114 0.01982 -0.06600
C 	C 	0.25040 0.45616 0.99863 0.01400
C 	C 	0.26763 0.44938 0.96617 -0.08200
C 	C 	0.29228 0.46698 0.95663 0.01300
C 	C 	0.29845 0.49201 0.97779 -0.06500
H 	H 	0.28378 0.65444 0.15289 0.03500
H 	H 	0.26924 0.60769 0.12377 0.04600
H 	H 	0.33305 0.62179 0.03309 0.04700
H 	H 	0.34751 0.66853 0.06199 0.03600
H 	H 	0.33794 0.56534 0.07747 0.03900
H 	H 	0.32926 0.51735 0.04823 0.03900
H 	H 	0.24115 0.54419 0.01323 0.03800
H 	H 	0.24977 0.59212 0.04273 0.03800
H 	H 	0.24276 0.48655 0.04416 0.04600
H 	H 	0.23146 0.44273 0.00663 0.03400
H 	H 	0.30618 0.46171 0.93223 0.03300
H 	H 	0.31689 0.50595 0.96937 0.04600
C 	C 	0.23366 0.06338 0.46758 -0.08200
C 	C 	0.25354 0.05430 0.49632 0.01500
C 	C 	0.24719 0.02953 0.51789 -0.06600
C 	C 	0.22090 0.01365 0.51111 0.02600
C 	C 	0.20040 0.02338 0.48360 -0.06600
C 	C 	0.20675 0.04814 0.46193 0.01400
C 	C 	0.21550 0.98616 0.53158 -0.00000
C 	C 	0.21333 0.96007 0.51112 -0.03800
C 	C 	0.20807 0.93403 0.53045 -0.03800
C 	C 	0.20503 0.93383 0.57041 -0.00100
C 	C 	0.20784 0.95984 0.59095 -0.03800
C 	C 	0.21298 0.98590 0.57160 -0.03900
C 	C 	0.19645 0.90688 0.59035 0.02900
C 	C 	0.21506 0.88248 0.58879 -0.06800
C 	C 	0.20574 0.85629 0.60525 0.02000
C 	C 	0.17772 0.85432 0.62326 -0.09000
C 	C 	0.15958 0.87901 0.62580 0.02000
C 	C 	0.16887 0.90511 0.60938 -0.06800
H 	H 	0.27442 0.06578 0.50099 0.03300
H 	H 	0.26310 0.02224 0.53917 0.04600
H 	H 	0.17981 0.01149 0.47858 0.04600
H 	H 	0.19101 0.05515 0.44028 0.03200
H 	H 	0.21560 0.96001 0.48025 0.03900
H 	H 	0.20579 0.91410 0.51433 0.04000
H 	H 	0.20558 0.95989 0.62182 0.03800
H 	H 	0.21476 0.00591 0.58765 0.03900
H 	H 	0.23649 0.88369 0.57436 0.04700
H 	H 	0.21994 0.83739 0.60312 0.03100
H 	H 	0.13809 0.87787 0.64013 0.02800
H 	H 	0.15438 0.92382 0.61077 0.04700
C 	C 	0.31526 0.77981 0.03822 -0.09100
C 	C 	0.30408 0.75732 0.01515 0.01600
C 	C 	0.28562 0.76357 0.98401 -0.06700
C 	C 	0.27823 0.79234 0.97552 0.02700
C 	C 	0.29039 0.81494 0.99747 -0.06700
C 	C 	0.30886 0.80871 0.02873 0.01600
C 	C 	0.25697 0.79862 0.94443 -0.00100
C 	C 	0.26743 0.80910 0.90920 -0.03800
C 	C 	0.24800 0.81101 0.87795 -0.03800
C 	C 	0.21793 0.80248 0.88175 0.00000
C 	C 	0.20712 0.79351 0.91758 -0.03900
C 	C 	0.22658 0.79154 0.94878 -0.03800
C 	C 	0.19886 0.79968 0.84744 0.02600
C 	C 	0.19315 0.82392 0.82434 -0.06600
C 	C 	0.17931 0.82041 0.78870 0.01500
C 	C 	0.17124 0.79262 0.77587 -0.08200
C 	C 	0.17505 0.76872 0.80017 0.01400
C 	C 	0.18881 0.77222 0.83578 -0.06500
H 	H 	0.30919 0.73496 0.02183 0.03600
H 	H 	0.27665 0.74602 0.96685 0.04700
H 	H 	0.28497 0.83725 0.99089 0.04600
H 	H 	0.31730 0.82627 0.04631 0.03600
H 	H 	0.29083 0.81476 0.90565 0.03900
H 	H 	0.25657 0.81800 0.85043 0.04000
H 	H 	0.18389 0.78714 0.92091 0.03800
H 	H 	0.21826 0.78366 0.97601 0.03900
H 	H 	0.20043 0.84528 0.83334 0.04600
H 	H 	0.17638 0.83906 0.77026 0.03600
H 	H 	0.16860 0.74722 0.79073 0.03100
H 	H 	0.19287 0.75340 0.85354 0.04600
C 	C 	0.18956 0.73473 0.54672 -0.09000
C 	C 	0.17722 0.71753 0.51749 0.01900
C 	C 	0.19362 0.71212 0.48414 -0.06800
C 	C 	0.22248 0.72382 0.47976 0.02800
C 	C 	0.23501 0.74052 0.50924 -0.06800
C 	C 	0.21868 0.74593 0.54255 0.01900
C 	C 	0.23886 0.72016 0.44343 -0.00100
C 	C 	0.22748 0.73216 0.40957 -0.03800
C 	C 	0.24448 0.73160 0.37601 -0.03800
C 	C 	0.27303 0.71908 0.37602 0.00000
C 	C 	0.28401 0.70618 0.40950 -0.03900
C 	C 	0.26699 0.70671 0.44310 -0.03800
C 	C 	0.29188 0.72078 0.34147 0.02600
C 	C 	0.30195 0.74781 0.32821 -0.06500
C 	C 	0.31607 0.75006 0.29266 0.01400
C 	C 	0.32028 0.72529 0.27005 -0.08200
C 	C 	0.31199 0.69799 0.28445 0.01500
C 	C 	0.29778 0.69576 0.32003 -0.06600
H 	H 	0.15479 0.70877 0.52028 0.03300
H 	H 	0.18377 0.69916 0.46154 0.04700
H 	H 	0.25723 0.74972 0.50608 0.04600
H 	H 	0.22866 0.75889 0.56506 0.02800
H 	H 	0.20582 0.74261 0.40952 0.03900
H 	H 	0.23571 0.74138 0.35018 0.04000
H 	H 	0.30596 0.69632 0.40970 0.03900
H 	H 	0.27589 0.69722 0.46904 0.03800
H 	H 	0.29792 0.76719 0.34488 0.04600
H 	H 	0.32275 0.77119 0.28204 0.03100
H 	H 	0.31518 0.67870 0.26731 0.03600
H 	H 	0.29034 0.67475 0.33024 0.04600
C 	C 	0.19859 0.45821 0.83957 -0.09000
C 	C 	0.19423 0.46082 0.79991 0.01500
C 	C 	0.19038 0.48814 0.78338 -0.06700
C 	C 	0.19076 0.51305 0.80634 0.02700
C 	C 	0.19368 0.51037 0.84613 -0.06700
C 	C 	0.19754 0.48309 0.86270 0.01700
C 	C 	0.18922 0.54199 0.78864 -0.00100
C 	C 	0.21379 0.56099 0.79095 -0.03800
C 	C 	0.21218 0.58859 0.77462 -0.03900
C 	C 	0.18600 0.59740 0.75593 -0.00000
C 	C 	0.16154 0.57830 0.75333 -0.03800
C 	C 	0.16315 0.55070 0.76962 -0.03800
C 	C 	0.18393 0.62673 0.73954 0.02700
C 	C 	0.20084 0.63420 0.70712 -0.06600
C 	C 	0.19561 0.66042 0.68822 0.01600
C 	C 	0.17336 0.67924 0.70158 -0.08300
C 	C 	0.15791 0.67260 0.73545 0.01400
C 	C 	0.16318 0.64647 0.75436 -0.06500
H 	H 	0.19457 0.44178 0.78180 0.03600
H 	H 	0.18781 0.49000 0.75265 0.04700
H 	H 	0.19360 0.52948 0.86411 0.04700
H 	H 	0.20089 0.48146 0.89332 0.03800
H 	H 	0.23407 0.55436 0.80541 0.03900
H 	H 	0.23117 0.60319 0.77673 0.03900
H 	H 	0.14128 0.58489 0.73876 0.04000
H 	H 	0.14409 0.53617 0.76769 0.03900
H 	H 	0.21713 0.61920 0.69570 0.04600
H 	H 	0.20774 0.66538 0.66217 0.03600
H 	H 	0.14096 0.68719 0.74624 0.02900
H 	H 	0.15040 0.64110 0.77977 0.04600
C 	C 	0.64007 0.67429 0.88529 -0.08900
C 	C 	0.64179 0.69423 0.91555 0.01800
C 	C 	0.61637 0.70027 0.93747 -0.06700
C 	C 	0.58904 0.68653 0.92918 0.02800
C 	C 	0.58704 0.66761 0.89790 -0.06700
C 	C 	0.61242 0.66150 0.87606 0.02000
C 	C 	0.56299 0.69066 0.95445 -0.00000
C 	C 	0.55170 0.66729 0.97585 -0.03900
C 	C 	0.52681 0.67106 0.99952 -0.03700
C 	C 	0.51301 0.69822 0.00200 -0.00100
C 	C 	0.52428 0.72159 0.98059 -0.03700
C 	C 	0.54920 0.71783 0.95692 -0.03900
C 	C 	0.48721 0.70238 0.02769 0.02700
C 	C 	0.49087 0.70001 0.06742 -0.06700
C 	C 	0.46697 0.70595 0.09196 0.01600
C 	C 	0.43916 0.71440 0.07695 -0.08900
C 	C 	0.43521 0.71556 0.03709 0.01500
C 	C 	0.45916 0.70966 0.01259 -0.06700
H 	H 	0.66301 0.70419 0.92299 0.03100
H 	H 	0.61810 0.71500 0.96151 0.04600
H 	H 	0.56593 0.65720 0.89098 0.04700
H 	H 	0.61072 0.64640 0.85243 0.03300
H 	H 	0.56226 0.64625 0.97418 0.04000
H 	H 	0.51826 0.65290 0.01595 0.03800
H 	H 	0.51385 0.74268 0.98249 0.03900
H 	H 	0.55772 0.73596 0.94043 0.03900
H 	H 	0.51242 0.69425 0.07931 0.04700
H 	H 	0.47039 0.70494 0.12261 0.03800
H 	H 	0.41375 0.72154 0.02511 0.03600
H 	H 	0.45603 0.71113 0.98191 0.04700
C 	C 	0.82674 0.67389 0.85425 -0.08200
C 	C 	0.85339 0.65992 0.86463 0.01500
C 	C 	0.88081 0.66980 0.85044 -0.06600
C 	C 	0.88191 0.69380 0.82584 0.02600
C 	C 	0.85540 0.70834 0.81638 -0.06500
C 	C 	0.82791 0.69843 0.83056 0.01100
C 	C 	0.91063 0.70279 0.80861 0.00000
C 	C 	0.93464 0.71123 0.83205 -0.03800
C 	C 	0.96242 0.71799 0.81585 -0.03900
C 	C 	0.96638 0.71648 0.77607 -0.00000
C 	C 	0.94229 0.70833 0.75260 -0.03800
C 	C 	0.91456 0.70146 0.76880 -0.03800
C 	C 	0.99551 0.72417 0.75886 0.02600
C 	C 	0.00710 0.75227 0.76311 -0.06600
C 	C 	0.03354 0.76026 0.74448 0.01500
C 	C 	0.04863 0.74022 0.72123 -0.08200
C 	C 	0.03757 0.71179 0.71809 0.01300
C 	C 	0.01113 0.70380 0.73684 -0.06500
H 	H 	0.85281 0.64120 0.88333 0.03500
H 	H 	0.90116 0.65847 0.85796 0.04600
H 	H 	0.85605 0.72701 0.79760 0.04500
H 	H 	0.80749 0.70933 0.82228 0.03200
H 	H 	0.93181 0.71235 0.86281 0.03900
H 	H 	0.98087 0.72430 0.83419 0.03800
H 	H 	0.94506 0.70737 0.72183 0.03900
H 	H 	0.89622 0.69479 0.75050 0.03900
H 	H 	0.99522 0.76813 0.78010 0.04600
H 	H 	0.04175 0.78229 0.74712 0.03500
H 	H 	0.04922 0.69600 0.70074 0.03100
H 	H 	0.00255 0.68192 0.73381 0.04600
C 	C 	0.76854 0.56077 0.78357 -0.08100
C 	C 	0.79356 0.54523 0.79645 0.01300
C 	C 	0.80312 0.52063 0.77669 -0.06500
C 	C 	0.78800 0.51152 0.74361 0.02600
C 	C 	0.76435 0.52816 0.72922 -0.06600
C 	C 	0.75464 0.55266 0.74908 0.01400
C 	C 	0.79551 0.48354 0.72564 0.00000
C 	C 	0.82441 0.47867 0.71139 -0.03900
C 	C 	0.83156 0.45199 0.69490 -0.03800
C 	C 	0.80982 0.43001 0.69235 -0.00000
C 	C 	0.78094 0.43486 0.70670 -0.03800
C 	C 	0.77385 0.46147 0.72338 -0.03800
C 	C 	0.81701 0.40224 0.67362 0.02700
C 	C 	0.81429 0.37609 0.69391 -0.06700
C 	C 	0.82054 0.34975 0.67587 0.01700
C 	C 	0.82969 0.34936 0.63743 -0.08800
C 	C 	0.83246 0.37555 0.61721 0.01700
C 	C 	0.82609 0.40183 0.63520 -0.06700
H 	H 	0.80500 0.55165 0.82244 0.03200
H 	H 	0.82165 0.50812 0.78777 0.04600
H 	H 	0.75292 0.52162 0.70326 0.04600
H 	H 	0.73556 0.56459 0.73843 0.03500
H 	H 	0.84129 0.49556 0.71303 0.03800
H 	H 	0.85395 0.44842 0.68401 0.03800
H 	H 	0.76396 0.41809 0.70469 0.03900
H 	H 	0.75155 0.46492 0.73461 0.03900
H 	H 	0.80742 0.37619 0.72364 0.04600
H 	H 	0.81854 0.32971 0.69186 0.03500
H 	H 	0.83922 0.37554 0.58744 0.03600
H 	H 	0.82799 0.42187 0.61920 0.04600
C 	C 	0.68622 0.55334 0.90566 -0.08800
C 	C 	0.68215 0.55148 0.94547 0.01500
C 	C 	0.67569 0.52479 0.96259 -0.06600
C 	C 	0.67297 0.49977 0.94005 0.02700
C 	C 	0.67490 0.50196 0.90010 -0.06700
C 	C 	0.68147 0.52860 0.88295 0.01600
C 	C 	0.67085 0.47105 0.95840 -0.00100
C 	C 	0.69400 0.45092 0.95367 -0.03800
C 	C 	0.69281 0.42425 0.97254 -0.03900
C 	C 	0.66848 0.41747 0.99634 0.00100
C 	C 	0.64511 0.43742 0.00067 -0.04000
C 	C 	0.64629 0.46411 0.98177 -0.03800
C 	C 	0.66795 0.38989 0.01765 0.02500
C 	C 	0.66883 0.39000 0.05777 -0.06500
C 	C 	0.66858 0.36389 0.07801 0.01400
C 	C 	0.66748 0.33739 0.05829 -0.08300
C 	C 	0.66676 0.33730 0.01813 0.01200
C 	C 	0.66702 0.36344 0.99790 -0.06400
H 	H 	0.68498 0.57051 0.96328 0.03700
H 	H 	0.67387 0.52337 0.99345 0.04600
H 	H 	0.67232 0.48283 0.88243 0.04600
H 	H 	0.68413 0.52970 0.85218 0.03800
H 	H 	0.71313 0.45615 0.93584 0.03900
H 	H 	0.71100 0.40903 0.96913 0.03900
H 	H 	0.62615 0.43230 0.01883 0.03900
H 	H 	0.62826 0.47946 0.98547 0.03800
H 	H 	0.66983 0.41032 0.07324 0.04600
H 	H 	0.66936 0.36425 0.10899 0.03700
H 	H 	0.66541 0.31703 0.00262 0.03000
H 	H 	0.66626 0.36316 0.96691 0.04500
C 	C 	0.44633 0.77091 0.22433 -0.08100
C 	C 	0.46101 0.79753 0.21835 0.01300
C 	C 	0.48696 0.80431 0.23886 -0.06500
C 	C 	0.49836 0.78467 0.26577 0.02600
C 	C 	0.48289 0.75877 0.27320 -0.06600
C 	C 	0.45701 0.75190 0.25263 0.01400
C 	C 	0.52743 0.79041 0.28432 -0.00000
C 	C 	0.55169 0.77182 0.27782 -0.03800
C 	C 	0.57992 0.77858 0.29264 -0.03800
C 	C 	0.58413 0.80400 0.31395 -0.00000
C 	C 	0.55968 0.82207 0.32157 -0.03800
C 	C 	0.53143 0.81529 0.30685 -0.03900
C 	C 	0.61448 0.81308 0.32524 0.02600
C 	C 	0.62847 0.83623 0.30630 -0.06600
C 	C 	0.65655 0.84602 0.31825 0.01300
C 	C 	0.67089 0.83280 0.34935 -0.08400
C 	C 	0.65736 0.80895 0.36752 0.01500
C 	C 	0.62921 0.79913 0.35549 -0.06600
H 	H 	0.45269 0.81268 0.19726 0.03200
H 	H 	0.49865 0.82447 0.23312 0.04600
H 	H 	0.49131 0.74366 0.29430 0.04600
H 	H 	0.44586 0.73139 0.25783 0.03500
H 	H 	0.54882 0.75256 0.26048 0.03900
H 	H 	0.59868 0.76451 0.28664 0.03900
H 	H 	0.56274 0.84168 0.33816 0.03900
H 	H 	0.51279 0.82961 0.31235 0.03800
H 	H 	0.61739 0.84687 0.28260 0.04600
H 	H 	0.66699 0.86418 0.30368 0.03100
H 	H 	0.66819 0.79858 0.39160 0.03500
H 	H 	0.61862 0.78108 0.37010 0.04600
C 	C 	0.85632 0.83467 0.38739 -0.08800
C 	C 	0.88320 0.84992 0.38133 0.02000
C 	C 	0.90852 0.84349 0.40307 -0.06700
C 	C 	0.90735 0.82160 0.43089 0.02800
C 	C 	0.88080 0.80568 0.43612 -0.06700
C 	C 	0.85536 0.81223 0.41451 0.01900
C 	C 	0.93364 0.81605 0.45535 -0.00000
C 	C 	0.96131 0.80920 0.43873 -0.03800
C 	C 	0.98656 0.80544 0.46175 -0.03800
C 	C 	0.98431 0.80818 0.50165 -0.00000
C 	C 	0.95659 0.81484 0.51830 -0.03800
C 	C 	0.93140 0.81888 0.49525 -0.03800
C 	C 	0.01069 0.80294 0.52607 0.02900
C 	C 	0.02551 0.77626 0.52434 -0.06800
C 	C 	0.04986 0.77085 0.54827 0.02000
C 	C 	0.05954 0.79200 0.57445 -0.09000
C 	C 	0.04498 0.81887 0.57582 0.02000
C 	C 	0.02072 0.82435 0.55163 -0.06800
H 	H 	0.88436 0.86704 0.36017 0.03400
H 	H 	0.92891 0.85589 0.39878 0.04700
H 	H 	0.87975 0.78855 0.45728 0.04600
H 	H 	0.83473 0.80042 0.41963 0.03100
H 	H 	0.96327 0.80691 0.40798 0.03900
H 	H 	0.00786 0.80036 0.44861 0.03900
H 	H 	0.95455 0.81674 0.54909 0.03900
H 	H 	0.91020 0.82441 0.50834 0.03900
H 	H 	0.01785 0.75954 0.50487 0.04600
H 	H 	0.06072 0.74994 0.54712 0.02700
H 	H 	0.05238 0.83544 0.59567 0.03200
H 	H 	0.00962 0.84514 0.55290 0.04700
C 	C 	0.76854 0.81827 0.24450 -0.08200
C 	C 	0.79384 0.81114 0.22264 0.01400
C 	C 	0.79068 0.79479 0.18919 -0.06500
C 	C 	0.76222 0.78560 0.17721 0.02600
C 	C 	0.73683 0.79385 0.19805 -0.06500
C 	C 	0.73997 0.81009 0.23158 0.01400
C 	C 	0.75914 0.76596 0.14420 0.00000
C 	C 	0.74624 0.77587 0.11008 -0.03900
C 	C 	0.74278 0.75704 0.07904 -0.03800
C 	C 	0.75203 0.72809 0.08198 -0.00100
C 	C 	0.76487 0.71818 0.11619 -0.03800
C 	C 	0.76847 0.73706 0.14714 -0.03800
C 	C 	0.74873 0.70831 0.04902 0.02700
C 	C 	0.77407 0.69542 0.03264 -0.06800
C 	C 	0.77122 0.67830 0.99984 0.01800
C 	C 	0.74302 0.67405 0.98294 -0.09200
C 	C 	0.71754 0.68611 0.00016 0.01500
C 	C 	0.72039 0.70312 0.03306 -0.06700
H 	H 	0.81601 0.81728 0.23231 0.03700
H 	H 	0.81039 0.78870 0.17307 0.04600
H 	H 	0.71475 0.78703 0.18883 0.04600
H 	H 	0.72027 0.81571 0.24801 0.03200
H 	H 	0.73897 0.79814 0.10759 0.03900
H 	H 	0.73305 0.76496 0.05266 0.03800
H 	H 	0.77199 0.69587 0.11881 0.03900
H 	H 	0.77830 0.72920 0.17348 0.04000
H 	H 	0.79604 0.69925 0.04478 0.04700
H 	H 	0.79108 0.66923 0.98680 0.03700
H 	H 	0.69561 0.68272 0.98769 0.03400
H 	H 	0.70064 0.71262 0.04583 0.04600
C 	C 	0.72854 0.68899 0.74360 -0.08200
C 	C 	0.70318 0.69514 0.72132 0.01400
C 	C 	0.70596 0.71185 0.68809 -0.06500
C 	C 	0.73410 0.72239 0.67674 0.02600
C 	C 	0.75960 0.71514 0.69799 -0.06500
C 	C 	0.75685 0.69854 0.73129 0.01300
C 	C 	0.73666 0.74225 0.64383 0.00000
C 	C 	0.75079 0.73315 0.61010 -0.03900
C 	C 	0.75382 0.75223 0.57923 -0.03800
C 	C 	0.74290 0.78064 0.58193 -0.00100
C 	C 	0.72873 0.78971 0.61568 -0.03800
C 	C 	0.72557 0.77058 0.64648 -0.03800
C 	C 	0.74609 0.80077 0.54926 0.02700
C 	C 	0.72059 0.81250 0.53178 -0.06700
C 	C 	0.72347 0.82971 0.49902 0.01700
C 	C 	0.75188 0.83519 0.48328 -0.09200
C 	C 	0.77745 0.82439 0.50169 0.01600
C 	C 	0.77456 0.80732 0.53455 -0.06700
H 	H 	0.68120 0.68796 0.73049 0.03700
H 	H 	0.68618 0.71714 0.67164 0.04600
H 	H 	0.78145 0.72301 0.68926 0.04600
H 	H 	0.77661 0.69371 0.74804 0.03200
H 	H 	0.75938 0.71131 0.60781 0.03900
H 	H 	0.76457 0.74493 0.55319 0.03800
H 	H 	0.72031 0.81160 0.61811 0.03900
H 	H 	0.71475 0.77782 0.67249 0.04000
H 	H 	0.69851 0.80764 0.54297 0.04600
H 	H 	0.70356 0.83780 0.48504 0.03700
H 	H 	0.79951 0.82871 0.49007 0.03400
H 	H 	0.79441 0.79875 0.54819 0.04600
C 	C 	0.80619 0.95700 0.40272 -0.08800
C 	C 	0.80798 0.96085 0.44254 0.01400
C 	C 	0.81290 0.98845 0.45783 -0.06600
C 	C 	0.81635 0.01241 0.43346 0.02700
C 	C 	0.81646 0.00833 0.39372 -0.06700
C 	C 	0.81146 0.98078 0.37838 0.01700
C 	C 	0.81776 0.04193 0.44951 -0.00000
C 	C 	0.79491 0.06182 0.44155 -0.03800
C 	C 	0.79505 0.08908 0.45894 -0.03800
C 	C 	0.81798 0.09664 0.48448 -0.00000
C 	C 	0.84129 0.07708 0.49158 -0.03800
C 	C 	0.84118 0.04984 0.47416 -0.03800
C 	C 	0.81652 0.12407 0.50588 0.02600
C 	C 	0.81173 0.12365 0.54552 -0.06600
C 	C 	0.81284 0.14937 0.56647 0.01400
C 	C 	0.81882 0.17579 0.54798 -0.08300
C 	C 	0.82212 0.17641 0.50803 0.01300
C 	C 	0.82104 0.15060 0.48705 -0.06500
H 	H 	0.80470 0.94264 0.46167 0.03700
H 	H 	0.81311 0.99136 0.48859 0.04600
H 	H 	0.81960 0.02664 0.37470 0.04600
H 	H 	0.81052 0.97818 0.34760 0.03800
H 	H 	0.77672 0.05590 0.42256 0.03900
H 	H 	0.77697 0.10405 0.45331 0.03900
H 	H 	0.85919 0.08283 0.51110 0.03900
H 	H 	0.85904 0.03473 0.48022 0.03900
H 	H 	0.80771 0.10331 0.56017 0.04600
H 	H 	0.80968 0.14869 0.59720 0.03600
H 	H 	0.82661 0.19668 0.49344 0.03100
H 	H 	0.82446 0.15114 0.45636 0.04500
C 	C 	0.72945 0.94638 0.28043 -0.08200
C 	C 	0.70271 0.96051 0.29003 0.01300
C 	C 	0.69414 0.98549 0.27032 -0.06600
C 	C 	0.71214 0.99647 0.24072 0.02600
C 	C 	0.73782 0.98135 0.22950 -0.06600
C 	C 	0.74643 0.95638 0.24919 0.01500
C 	C 	0.70531 0.02480 0.22340 -0.00000
C 	C 	0.69857 0.02678 0.18429 -0.03900
C 	C 	0.69305 0.05378 0.16766 -0.03800
C 	C 	0.69423 0.07901 0.19003 -0.00100
C 	C 	0.70099 0.07704 0.22913 -0.03800
C 	C 	0.70652 0.05004 0.24575 -0.03800
C 	C 	0.68756 0.10738 0.17271 0.02900
C 	C 	0.65900 0.11283 0.15787 -0.06700
C 	C 	0.65287 0.13932 0.14032 0.02000
C 	C 	0.67529 0.16065 0.13730 -0.08900
C 	C 	0.70371 0.15546 0.15301 0.01900
C 	C 	0.70982 0.12889 0.17058 -0.06700
H 	H 	0.68907 0.95268 0.31353 0.03100
H 	H 	0.67396 0.99675 0.27872 0.04600
H 	H 	0.75171 0.98953 0.20644 0.04600
H 	H 	0.76702 0.94565 0.24129 0.03400
H 	H 	0.69764 0.00742 0.16680 0.03900
H 	H 	0.68787 0.05511 0.13743 0.03900
H 	H 	0.70182 0.09639 0.24665 0.03900
H 	H 	0.71194 0.04874 0.27592 0.03900
H 	H 	0.64158 0.09648 0.15984 0.04700
H 	H 	0.63070 0.14325 0.12898 0.03100
H 	H 	0.72121 0.17172 0.15097 0.03300
H 	H 	0.73193 0.12489 0.18209 0.04700
