data_crystal

_cell_length_a 19.29555
_cell_length_b 19.48248
_cell_length_c 85.24599
_cell_angle_alpha 90.00103
_cell_angle_beta  90.00074
_cell_angle_gamma 119.83724

_symmetry_space_group_name_	'P 1'
_symmetry_space_group_name_H-M	'P 1'

loop_
_symmetry_equiv_pos_as_xyz
  x,y,z

loop_
_atom_site_label
_atom_site_type_symbol
_atom_site_fract_x
_atom_site_fract_y
_atom_site_fract_z
_atom_site_charge
Cu	Cu	0.79135 0.05612 0.63300 0.92700
Cu	Cu	0.78098 0.13556 0.60002 0.86900
Cu	Cu	0.83517 0.22994 0.63039 0.89500
Cu	Cu	0.86937 0.17435 0.66127 0.89200
C 	C 	0.88858 0.03480 0.65555 0.27700
O 	O 	0.70436 0.01936 0.64939 -0.36200
C 	C 	0.76768 0.27190 0.60334 0.27600
O 	O 	0.88133 0.17121 0.63932 -0.63800
O 	O 	0.75522 0.12250 0.62228 -0.64000
O 	O 	0.79129 0.99464 0.61453 -0.38300
O 	O 	0.85895 0.10320 0.59925 -0.44200
O 	O 	0.87232 0.07529 0.66590 -0.38600
O 	O 	0.91701 0.33074 0.63870 -0.38500
C 	C 	0.93451 0.34598 0.65375 0.28600
C 	C 	0.68885 0.06904 0.65690 0.27500
O 	O 	0.74462 0.14351 0.65852 -0.39000
O 	O 	0.93245 0.29189 0.66344 -0.39400
O 	O 	0.84578 0.00809 0.64264 -0.36200
C 	C 	0.83892 0.03006 0.60265 0.29400
O 	O 	0.79960 0.29114 0.61753 -0.37800
O 	O 	0.73109 0.19815 0.59849 -0.41900
H 	H 	0.93647 0.18865 0.63575 0.16000
H 	H 	0.69925 0.10811 0.62453 0.16900
Cu	Cu	0.07098 0.77779 0.69822 0.92800
Cu	Cu	0.14693 0.76859 0.73169 0.87000
Cu	Cu	0.24309 0.81199 0.70172 0.89600
Cu	Cu	0.19316 0.84521 0.67024 0.89200
C 	C 	0.05748 0.87538 0.67466 0.28400
O 	O 	0.02896 0.68805 0.68264 -0.36100
C 	C 	0.27721 0.74282 0.72962 0.27600
O 	O 	0.18937 0.86114 0.69196 -0.64200
O 	O 	0.13273 0.73814 0.70969 -0.64000
O 	O 	0.01148 0.78684 0.71626 -0.37600
O 	O 	0.12266 0.85163 0.73114 -0.44000
O 	O 	0.09909 0.85788 0.66472 -0.38500
O 	O 	0.34769 0.89067 0.69420 -0.38400
C 	C 	0.36675 0.91588 0.67957 0.28400
C 	C 	0.07623 0.66770 0.67547 0.27400
O 	O 	0.15242 0.71957 0.67364 -0.38600
O 	O 	0.31222 0.89562 0.66837 -0.39200
O 	O 	0.02793 0.83400 0.68762 -0.36200
C 	C 	0.04992 0.83558 0.72777 0.28500
O 	O 	0.29928 0.77275 0.71532 -0.37800
O 	O 	0.20278 0.71247 0.73427 -0.41900
H 	H 	0.20967 0.91683 0.69512 0.16100
H 	H 	0.11530 0.68160 0.70792 0.17200
Cu	Cu	0.32907 0.09576 0.86376 0.92800
Cu	Cu	0.42118 0.16075 0.89709 0.86900
Cu	Cu	0.46786 0.26456 0.86807 0.89500
Cu	Cu	0.37572 0.22539 0.83762 0.89200
C 	C 	0.21244 0.08920 0.84223 0.28200
O 	O 	0.37449 0.06119 0.84607 -0.36300
C 	C 	0.57601 0.29138 0.89472 0.27500
O 	O 	0.36159 0.21484 0.85956 -0.64000
O 	O 	0.43296 0.15310 0.87456 -0.64000
O 	O 	0.26556 0.02988 0.88165 -0.37900
O 	O 	0.31251 0.13437 0.89817 -0.44000
O 	O 	0.26992 0.13194 0.83212 -0.38600
O 	O 	0.49353 0.37063 0.86196 -0.38400
C 	C 	0.48690 0.39352 0.84769 0.28400
C 	C 	0.44125 0.11102 0.83896 0.27400
O 	O 	0.46443 0.18692 0.83859 -0.39100
O 	O 	0.43629 0.34352 0.83720 -0.39300
O 	O 	0.22671 0.05668 0.85444 -0.36300
C 	C 	0.25646 0.06318 0.89422 0.28700
O 	O 	0.56699 0.31507 0.88068 -0.37900
O 	O 	0.53399 0.21670 0.89887 -0.41900
H 	H 	0.32713 0.23434 0.86399 0.16200
H 	H 	0.47172 0.13585 0.87174 0.17000
Cu	Cu	0.76955 0.81669 0.80239 0.92800
Cu	Cu	0.67607 0.78686 0.76908 0.86900
Cu	Cu	0.62703 0.84306 0.79788 0.89500
Cu	Cu	0.71602 0.89338 0.82863 0.89200
C 	C 	0.88313 0.92689 0.82423 0.28200
O 	O 	0.72756 0.73564 0.81979 -0.36500
C 	C 	0.51875 0.75816 0.77138 0.27600
O 	O 	0.73207 0.89985 0.80675 -0.64200
O 	O 	0.66518 0.76815 0.79160 -0.64000
O 	O 	0.83528 0.81732 0.78450 -0.37800
O 	O 	0.78322 0.87068 0.76800 -0.44200
O 	O 	0.82468 0.91131 0.83423 -0.38700
O 	O 	0.59924 0.92270 0.80371 -0.38400
C 	C 	0.60949 0.95622 0.81767 0.28700
C 	C 	0.66009 0.71618 0.82695 0.27600
O 	O 	0.63307 0.76615 0.82733 -0.38900
O 	O 	0.64508 0.94100 0.82937 -0.39400
O 	O 	0.87079 0.88141 0.81189 -0.36600
C 	C 	0.84119 0.85725 0.77174 0.28600
O 	O 	0.52831 0.79396 0.78509 -0.37900
O 	O 	0.56340 0.72751 0.76741 -0.41900
H 	H 	0.76551 0.95412 0.80259 0.16000
H 	H 	0.62768 0.71245 0.79449 0.17100
Cu	Cu	0.10576 0.30819 0.46740 0.92800
Cu	Cu	0.17446 0.40027 0.43412 0.86900
Cu	Cu	0.27868 0.44051 0.46317 0.89500
Cu	Cu	0.23499 0.35110 0.49379 0.89200
C 	C 	0.09381 0.19119 0.48921 0.28100
O 	O 	0.07209 0.35498 0.48493 -0.36300
C 	C 	0.31119 0.55039 0.43677 0.27700
O 	O 	0.22446 0.33598 0.47186 -0.64100
O 	O 	0.16737 0.41118 0.45668 -0.64000
O 	O 	0.03859 0.24683 0.44940 -0.37600
O 	O 	0.14383 0.29148 0.43280 -0.43900
O 	O 	0.13818 0.24791 0.49928 -0.38500
O 	O 	0.38366 0.46005 0.46924 -0.38500
C 	C 	0.40628 0.45579 0.48368 0.28400
C 	C 	0.12337 0.42068 0.49202 0.27700
O 	O 	0.19949 0.44157 0.49256 -0.38900
O 	O 	0.35474 0.40944 0.49449 -0.39200
O 	O 	0.06294 0.20646 0.47680 -0.36200
C 	C 	0.07132 0.23723 0.43675 0.28400
O 	O 	0.33439 0.53837 0.45061 -0.37900
O 	O 	0.23561 0.51224 0.43262 -0.41900
H 	H 	0.24225 0.29996 0.46763 0.16200
H 	H 	0.15249 0.45134 0.45961 0.17000
Cu	Cu	0.82499 0.74626 0.52897 0.92800
Cu	Cu	0.79832 0.65330 0.56221 0.86900
Cu	Cu	0.86484 0.61389 0.53344 0.89500
Cu	Cu	0.91313 0.70437 0.50287 0.89100
C 	C 	0.93120 0.86381 0.50733 0.28300
O 	O 	0.74592 0.69956 0.51118 -0.36400
C 	C 	0.78366 0.50282 0.55963 0.27700
O 	O 	0.91621 0.71877 0.52481 -0.64000
O 	O 	0.78249 0.64310 0.53962 -0.64000
O 	O 	0.81729 0.80698 0.54684 -0.37700
O 	O 	0.87620 0.76217 0.56377 -0.44100
O 	O 	0.91923 0.80715 0.49730 -0.38700
O 	O 	0.95020 0.59400 0.52745 -0.38300
C 	C 	0.97769 0.59877 0.51304 0.27600
C 	C 	0.73150 0.63357 0.50425 0.27500
O 	O 	0.78696 0.61311 0.50381 -0.38900
O 	O 	0.97571 0.64761 0.50245 -0.39300
O 	O 	0.88493 0.84828 0.51972 -0.36500
C 	C 	0.85771 0.81599 0.55976 0.28500
O 	O 	0.82180 0.51607 0.54608 -0.37900
O 	O 	0.74647 0.54134 0.56354 -0.42000
H 	H 	0.96985 0.75480 0.52919 0.16100
H 	H 	0.72752 0.60299 0.53652 0.17000
Cu	Cu	0.78502 0.96935 0.36265 0.92200
Cu	Cu	0.68635 0.90486 0.39551 0.86700
Cu	Cu	0.64901 0.79899 0.36674 0.89500
Cu	Cu	0.74560 0.83931 0.33689 0.89100
C 	C 	0.90619 0.97857 0.34205 0.26300
O 	O 	0.74099 0.00079 0.34424 -0.35200
C 	C 	0.53507 0.76932 0.39234 0.27600
O 	O 	0.75654 0.85109 0.35890 -0.64100
O 	O 	0.67928 0.91004 0.37278 -0.64100
O 	O 	0.84379 0.03824 0.38061 -0.37700
O 	O 	0.79612 0.93635 0.39784 -0.45000
O 	O 	0.85022 0.93501 0.33175 -0.38600
O 	O 	0.62777 0.69386 0.36104 -0.38400
C 	C 	0.63547 0.67120 0.34683 0.28400
C 	C 	0.67502 0.94948 0.33709 0.26800
O 	O 	0.65388 0.87405 0.33686 -0.39000
O 	O 	0.68862 0.72113 0.33668 -0.39400
O 	O 	0.88946 0.01021 0.35410 -0.35200
C 	C 	0.85118 0.00785 0.39377 0.30000
O 	O 	0.54791 0.74605 0.37860 -0.37900
O 	O 	0.57303 0.84434 0.39636 -0.42100
H 	H 	0.79145 0.83313 0.36374 0.16000
H 	H 	0.63987 0.92540 0.36933 0.16700
Cu	Cu	0.34798 0.24662 0.30216 0.92800
Cu	Cu	0.43755 0.27333 0.26848 0.86900
Cu	Cu	0.48883 0.21828 0.29696 0.89500
Cu	Cu	0.40362 0.17064 0.32818 0.89200
C 	C 	0.23631 0.13805 0.32449 0.28000
O 	O 	0.39234 0.32876 0.31933 -0.36400
C 	C 	0.59533 0.30235 0.27009 0.27600
O 	O 	0.38497 0.16303 0.30637 -0.64200
O 	O 	0.45116 0.29382 0.29091 -0.64000
O 	O 	0.28030 0.24533 0.28458 -0.37600
O 	O 	0.33009 0.19025 0.26799 -0.44100
O 	O 	0.29556 0.15321 0.33426 -0.38400
O 	O 	0.51594 0.13797 0.30259 -0.38200
C 	C 	0.50669 0.10493 0.31658 0.27800
C 	C 	0.46035 0.34814 0.32626 0.27600
O 	O 	0.48693 0.29781 0.32655 -0.38800
O 	O 	0.47465 0.12291 0.32853 -0.39000
O 	O 	0.24783 0.18326 0.31215 -0.36200
C 	C 	0.27330 0.20533 0.27177 0.28800
O 	O 	0.58605 0.26580 0.28371 -0.38000
O 	O 	0.54993 0.33232 0.26623 -0.42000
H 	H 	0.35056 0.10858 0.30239 0.16200
H 	H 	0.48948 0.34957 0.29362 0.17100
Cu	Cu	0.27501 0.32685 0.02855 0.92800
Cu	Cu	0.30472 0.41851 0.06191 0.86900
Cu	Cu	0.24501 0.46554 0.03334 0.89500
Cu	Cu	0.19026 0.37487 0.00287 0.89300
C 	C 	0.16371 0.21223 0.00713 0.28200
O 	O 	0.35382 0.37100 0.01065 -0.36400
C 	C 	0.33065 0.57357 0.05974 0.27500
O 	O 	0.18791 0.36046 0.02478 -0.64000
O 	O 	0.32253 0.42987 0.03937 -0.64000
O 	O 	0.27918 0.26343 0.04626 -0.37800
O 	O 	0.22296 0.31114 0.06311 -0.44000
O 	O 	0.17761 0.26957 0.99714 -0.38500
O 	O 	0.16365 0.49201 0.02763 -0.38500
C 	C 	0.13262 0.48556 0.01348 0.29300
C 	C 	0.37068 0.43776 0.00373 0.27500
O 	O 	0.31779 0.46161 0.00357 -0.39000
O 	O 	0.13276 0.43636 0.00276 -0.39300
O 	O 	0.21088 0.22573 0.01928 -0.36300
C 	C 	0.23894 0.25559 0.05913 0.28800
O 	O 	0.29455 0.56373 0.04600 -0.37900
O 	O 	0.36256 0.53019 0.06370 -0.42000
H 	H 	0.13409 0.32670 0.02932 0.16300
H 	H 	0.37841 0.46786 0.03640 0.17000
Cu	Cu	0.99771 0.77125 0.96795 0.92100
Cu	Cu	0.93492 0.67911 0.93464 0.86700
Cu	Cu	0.82831 0.63229 0.96335 0.89500
Cu	Cu	0.86543 0.72271 0.99382 0.89100
C 	C 	0.00129 0.88581 0.98938 0.29600
O 	O 	0.03355 0.72776 0.98575 -0.34500
C 	C 	0.80462 0.52473 0.93689 0.27500
O 	O 	0.87683 0.73721 0.97191 -0.64200
O 	O 	0.94159 0.66805 0.95720 -0.64200
O 	O 	0.06453 0.83469 0.95013 -0.37700
O 	O 	0.95983 0.78618 0.93339 -0.45400
O 	O 	0.95802 0.82860 0.99943 -0.40000
O 	O 	0.72054 0.60615 0.96907 -0.38500
C 	C 	0.69605 0.61286 0.98320 0.28400
C 	C 	0.98391 0.66125 0.99281 0.23700
O 	O 	0.90695 0.63688 0.99302 -0.38400
O 	O 	0.74611 0.65930 0.99418 -0.39500
O 	O 	0.03509 0.87235 0.97724 -0.36200
C 	C 	0.03120 0.84253 0.93740 0.30200
O 	O 	0.77889 0.53408 0.95071 -0.38000
O 	O 	0.88024 0.56738 0.93296 -0.42100
H 	H 	0.85662 0.77086 0.96745 0.16000
H 	H 	0.95946 0.63019 0.96017 0.16800
Cu	Cu	0.33977 0.03748 0.13101 0.93000
Cu	Cu	0.33763 0.95277 0.09800 0.86900
Cu	Cu	0.30061 0.86497 0.12900 0.89500
Cu	Cu	0.27616 0.92481 0.16040 0.89100
C 	C 	0.24946 0.06035 0.15495 0.28200
O 	O 	0.43389 0.08027 0.14577 -0.36500
C 	C 	0.35964 0.82160 0.10069 0.27500
O 	O 	0.25542 0.92285 0.13872 -0.64000
O 	O 	0.37401 0.97140 0.11966 -0.64200
O 	O 	0.32815 0.09285 0.11264 -0.38000
O 	O 	0.25593 0.97988 0.09886 -0.44300
O 	O 	0.26965 0.02207 0.16511 -0.38300
O 	O 	0.22427 0.76486 0.13846 -0.38300
C 	C 	0.21139 0.75167 0.15369 0.28300
C 	C 	0.45428 0.03399 0.15324 0.28200
O 	O 	0.40085 0.95960 0.15597 -0.39500
O 	O 	0.21870 0.80761 0.16352 -0.39200
O 	O 	0.28795 0.08548 0.14155 -0.36300
C 	C 	0.27454 0.05295 0.10190 0.29000
O 	O 	0.33337 0.80361 0.11533 -0.37800
O 	O 	0.39121 0.89449 0.09548 -0.42100
H 	H 	0.19874 0.90328 0.13600 0.16100
H 	H 	0.43127 0.98804 0.12090 0.16800
Cu	Cu	0.06610 0.31628 0.19909 0.93000
Cu	Cu	0.97818 0.31343 0.23182 0.86800
Cu	Cu	0.89137 0.27687 0.20064 0.89500
Cu	Cu	0.95484 0.25674 0.16939 0.89000
C 	C 	0.08945 0.22721 0.17511 0.28100
O 	O 	0.11227 0.41156 0.18479 -0.36500
C 	C 	0.84649 0.33574 0.22883 0.27600
O 	O 	0.95086 0.23361 0.19093 -0.64300
O 	O 	0.99835 0.34976 0.21022 -0.64900
O 	O 	0.11922 0.30182 0.21762 -0.37900
O 	O 	0.00344 0.23109 0.23093 -0.43700
O 	O 	0.05187 0.24803 0.16484 -0.38200
O 	O 	0.79093 0.20017 0.19109 -0.38400
C 	C 	0.77804 0.18511 0.17589 0.28400
C 	C 	0.06685 0.43223 0.17698 0.28600
O 	O 	0.99155 0.38011 0.17428 -0.39800
O 	O 	0.83706 0.20463 0.16574 -0.39500
O 	O 	0.11506 0.26550 0.18849 -0.36200
C 	C 	0.07707 0.24826 0.22816 0.28600
O 	O 	0.82781 0.30750 0.21434 -0.37900
O 	O 	0.92014 0.36734 0.23402 -0.42200
H 	H 	0.93089 0.17715 0.19339 0.16000
H 	H 	0.01506 0.40645 0.20897 0.17800
C 	C 	0.11625 0.60667 0.15057 -0.01200
C 	C 	0.17423 0.66963 0.15954 -0.06600
C 	C 	0.19477 0.65448 0.17442 -0.01400
C 	C 	0.15842 0.57721 0.18023 -0.01000
C 	C 	0.10079 0.51417 0.17126 -0.07300
C 	C 	0.07942 0.52931 0.15645 -0.01000
H 	H 	0.09917 0.61765 0.13915 0.03900
H 	H 	0.23931 0.70255 0.18145 0.03300
H 	H 	0.17514 0.56635 0.19171 0.03200
H 	H 	0.03539 0.48111 0.14937 0.03300
C 	C 	0.60035 0.12049 0.14907 -0.01000
C 	C 	0.53742 0.06618 0.15854 -0.07200
C 	C 	0.55386 0.04900 0.17363 -0.01000
C 	C 	0.63236 0.08773 0.17935 -0.01300
C 	C 	0.69507 0.14349 0.16997 -0.06700
C 	C 	0.67861 0.15892 0.15474 -0.01400
H 	H 	0.58844 0.13383 0.13737 0.03000
H 	H 	0.50573 0.00736 0.18108 0.03300
H 	H 	0.64430 0.07437 0.19104 0.03900
H 	H 	0.72633 0.20171 0.14737 0.03500
C 	C 	0.12712 0.16278 0.15393 -0.01300
C 	C 	0.12203 0.17645 0.16995 -0.06700
C 	C 	0.15162 0.14433 0.18111 -0.01300
C 	C 	0.19068 0.10381 0.17628 -0.01200
C 	C 	0.19981 0.09413 0.16024 -0.06700
C 	C 	0.16540 0.12151 0.14911 -0.01300
H 	H 	0.10323 0.18567 0.14517 0.03900
H 	H 	0.14573 0.15207 0.19353 0.04000
H 	H 	0.21557 0.08187 0.18503 0.03900
H 	H 	0.16983 0.11230 0.13670 0.03900
C 	C 	0.12127 0.60752 0.01422 0.00600
C 	C 	0.08839 0.52755 0.01013 -0.09000
C 	C 	0.01621 0.48965 0.00171 0.03900
C 	C 	0.97941 0.53235 0.99680 -0.07200
C 	C 	0.01482 0.61340 0.00013 -0.02000
C 	C 	0.08493 0.65037 0.00917 -0.03600
H 	H 	0.17656 0.63726 0.02081 0.03400
H 	H 	0.98949 0.42757 0.99870 0.01300
H 	H 	0.92518 0.50315 0.98988 0.04300
H 	H 	0.11230 0.71276 0.01195 0.04600
C 	C 	0.49666 0.56633 0.00032 -0.01600
C 	C 	0.44951 0.48610 0.99640 -0.07100
C 	C 	0.48147 0.44994 0.98685 -0.01200
C 	C 	0.56098 0.49260 0.98186 -0.01300
C 	C 	0.60958 0.57154 0.98654 -0.06900
C 	C 	0.57650 0.60881 0.99548 -0.01300
H 	H 	0.47254 0.59489 0.00765 0.03100
H 	H 	0.44530 0.38820 0.98363 0.03800
H 	H 	0.58560 0.46335 0.97487 0.03900
H 	H 	0.61303 0.67015 0.99894 0.03300
C 	C 	0.09756 0.10777 0.98660 -0.01200
C 	C 	0.10987 0.12930 0.00250 -0.06700
C 	C 	0.07682 0.07015 0.01406 -0.01300
C 	C 	0.03739 0.99030 0.00981 -0.00900
C 	C 	0.03019 0.96878 0.99392 -0.07000
C 	C 	0.05771 0.02792 0.98234 -0.01100
H 	H 	0.12159 0.15266 0.97753 0.04000
H 	H 	0.08411 0.08604 0.02638 0.03900
H 	H 	0.01536 0.94544 0.01888 0.04100
H 	H 	0.05060 0.01204 0.97002 0.03900
C 	C 	0.22021 0.12261 0.06524 -0.01100
C 	C 	0.22701 0.19395 0.07052 -0.07900
C 	C 	0.23418 0.21058 0.08665 -0.01400
C 	C 	0.24343 0.16077 0.09717 -0.01200
C 	C 	0.24557 0.09400 0.09163 -0.07900
C 	C 	0.22956 0.07284 0.07575 -0.01400
H 	H 	0.21167 0.10769 0.05288 0.04200
H 	H 	0.23736 0.26441 0.09095 0.02200
H 	H 	0.25268 0.17608 0.10951 0.04100
H 	H 	0.22884 0.02027 0.07138 0.02600
C 	C 	0.35630 0.69302 0.09640 -0.01200
C 	C 	0.35701 0.76006 0.09021 -0.07300
C 	C 	0.35181 0.76694 0.07388 -0.01600
C 	C 	0.34449 0.70681 0.06389 -0.01200
C 	C 	0.34257 0.63923 0.07010 -0.07200
C 	C 	0.34926 0.63299 0.08640 -0.01500
H 	H 	0.36083 0.68713 0.10894 0.04100
H 	H 	0.35184 0.81819 0.06894 0.02300
H 	H 	0.34001 0.71274 0.05135 0.04000
H 	H 	0.34748 0.58094 0.09136 0.02500
C 	C 	0.09226 0.19968 0.25427 -0.01500
C 	C 	0.11627 0.21753 0.23854 -0.07700
C 	C 	0.18398 0.21507 0.23332 -0.01300
C 	C 	0.23202 0.20362 0.24403 -0.01400
C 	C 	0.21276 0.19472 0.26007 -0.08000
C 	C 	0.14030 0.18820 0.26498 -0.00900
H 	H 	0.03886 0.19912 0.25838 0.02700
H 	H 	0.20146 0.22576 0.22109 0.04100
H 	H 	0.28668 0.20658 0.24000 0.02000
H 	H 	0.12333 0.17842 0.27725 0.04200
C 	C 	0.79235 0.32886 0.25571 -0.01600
C 	C 	0.78421 0.33239 0.23938 -0.07400
C 	C 	0.71515 0.32910 0.23325 -0.01200
C 	C 	0.65433 0.32098 0.24333 -0.01500
C 	C 	0.66180 0.31575 0.25964 -0.07200
C 	C 	0.73144 0.32042 0.26577 -0.01200
H 	H 	0.84518 0.33094 0.26061 0.02300
H 	H 	0.70828 0.33236 0.22071 0.04100
H 	H 	0.60071 0.31716 0.23843 0.02500
H 	H 	0.73833 0.31717 0.27831 0.04000
C 	C 	0.46965 0.45983 0.34209 -0.01200
C 	C 	0.50772 0.42740 0.33322 -0.07100
C 	C 	0.58951 0.47357 0.32989 -0.01500
C 	C 	0.63200 0.55264 0.33474 -0.01300
C 	C 	0.59313 0.58595 0.34311 -0.06800
C 	C 	0.51228 0.53857 0.34710 -0.01400
H 	H 	0.40668 0.42444 0.34487 0.03900
H 	H 	0.61954 0.44913 0.32308 0.03200
H 	H 	0.69475 0.58823 0.33182 0.03500
H 	H 	0.48179 0.56342 0.35363 0.04000
C 	C 	0.01333 0.00641 0.32236 0.01300
C 	C 	0.99105 0.00930 0.33793 -0.07100
C 	C 	0.05061 0.04537 0.34947 -0.00700
C 	C 	0.13137 0.08325 0.34528 -0.01400
C 	C 	0.15337 0.08500 0.32953 -0.06200
C 	C 	0.09402 0.04395 0.31821 -0.02200
H 	H 	0.96832 0.97746 0.31336 0.02200
H 	H 	0.03438 0.04591 0.36162 0.04100
H 	H 	0.17654 0.11401 0.35417 0.04100
H 	H 	0.11040 0.04369 0.30606 0.04000
C 	C 	0.65940 0.03785 0.31818 0.00800
C 	C 	0.62522 0.97715 0.32939 -0.08700
C 	C 	0.54785 0.95226 0.33493 -0.00600
C 	C 	0.50719 0.99144 0.33012 -0.03400
C 	C 	0.54342 0.05540 0.31962 -0.04900
C 	C 	0.61854 0.07652 0.31325 -0.02300
H 	H 	0.71895 0.05716 0.31376 0.03400
H 	H 	0.52082 0.90528 0.34354 0.02500
H 	H 	0.44863 0.97362 0.33491 0.03300
H 	H 	0.64696 0.12532 0.30506 0.04500
C 	C 	0.95565 0.10277 0.43163 -0.02400
C 	C 	0.02308 0.17114 0.42600 -0.07000
C 	C 	0.03968 0.17911 0.40985 -0.01400
C 	C 	0.98593 0.12266 0.39935 -0.01100
C 	C 	0.91493 0.05792 0.40489 -0.08600
C 	C 	0.90172 0.04649 0.42112 0.00300
H 	H 	0.94363 0.09450 0.44411 0.04600
H 	H 	0.09239 0.23065 0.40535 0.02700
H 	H 	0.99812 0.13073 0.38688 0.04100
H 	H 	0.84800 0.99593 0.42558 0.01400
C 	C 	0.48426 0.64888 0.40880 -0.01600
C 	C 	0.47479 0.71103 0.40299 -0.07500
C 	C 	0.41278 0.72200 0.40871 -0.01200
C 	C 	0.36012 0.67054 0.42006 -0.01200
C 	C 	0.37041 0.60906 0.42602 -0.07500
C 	C 	0.43294 0.59875 0.42041 -0.01600
H 	H 	0.53251 0.64051 0.40458 0.02700
H 	H 	0.40540 0.77028 0.40439 0.03400
H 	H 	0.31151 0.67850 0.42421 0.03400
H 	H 	0.44076 0.55086 0.42482 0.02700
C 	C 	0.54296 0.57326 0.48139 -0.01500
C 	C 	0.49249 0.49719 0.48739 -0.06700
C 	C 	0.52388 0.46272 0.49758 -0.01300
C 	C 	0.60398 0.50545 0.50228 -0.01500
C 	C 	0.65308 0.58313 0.49695 -0.07100
C 	C 	0.62270 0.61616 0.48622 -0.01000
H 	H 	0.51972 0.60031 0.47343 0.04100
H 	H 	0.48601 0.40346 0.50206 0.03600
H 	H 	0.62686 0.47940 0.51057 0.02900
H 	H 	0.66026 0.67600 0.48198 0.03700
C 	C 	0.05312 0.08654 0.50979 -0.01700
C 	C 	0.06121 0.10773 0.49388 -0.06700
C 	C 	0.03314 0.04826 0.48235 -0.00200
C 	C 	0.99350 0.96850 0.48669 -0.02300
C 	C 	0.98173 0.94730 0.50262 -0.08000
C 	C 	0.01372 0.00679 0.51413 0.00600
H 	H 	0.07509 0.13164 0.51882 0.04200
H 	H 	0.04047 0.06383 0.47002 0.03800
H 	H 	0.96985 0.92339 0.47767 0.03900
H 	H 	0.00645 0.99121 0.52646 0.03100
C 	C 	0.12665 0.54955 0.49486 -0.01100
C 	C 	0.09485 0.47033 0.49942 -0.07500
C 	C 	0.02880 0.43578 0.50956 -0.00100
C 	C 	0.99270 0.47894 0.51455 -0.02900
C 	C 	0.02169 0.55679 0.50931 -0.05400
C 	C 	0.09003 0.59256 0.49972 -0.01800
H 	H 	0.17768 0.57682 0.48705 0.02900
H 	H 	0.00409 0.37477 0.51322 0.03700
H 	H 	0.94045 0.45087 0.52204 0.04400
H 	H 	0.11395 0.65312 0.49582 0.03700
C 	C 	0.12040 0.95002 0.89958 -0.01000
C 	C 	0.19029 0.01611 0.90511 -0.07900
C 	C 	0.20016 0.03159 0.92129 -0.01700
C 	C 	0.14461 0.97748 0.93187 -0.00800
C 	C 	0.07895 0.90728 0.92638 -0.08200
C 	C 	0.06503 0.89572 0.91017 -0.01100
H 	H 	0.11054 0.93904 0.88710 0.04400
H 	H 	0.25275 0.08348 0.92572 0.02600
H 	H 	0.15435 0.98856 0.94436 0.04200
H 	H 	0.01347 0.84283 0.90575 0.02800
C 	C 	0.70592 0.41493 0.89958 -0.01200
C 	C 	0.63809 0.34799 0.90547 -0.07300
C 	C 	0.62727 0.33720 0.92178 -0.01600
C 	C 	0.68244 0.39388 0.93208 -0.01200
C 	C 	0.74932 0.46171 0.92619 -0.07400
C 	C 	0.76136 0.47135 0.90988 -0.01600
H 	H 	0.71544 0.42367 0.88705 0.03900
H 	H 	0.57503 0.28587 0.92649 0.02300
H 	H 	0.67277 0.38528 0.94462 0.03900
H 	H 	0.81267 0.52356 0.90517 0.02200
C 	C 	0.48924 0.51196 0.83591 -0.01200
C 	C 	0.52882 0.47877 0.84406 -0.06800
C 	C 	0.61003 0.52613 0.84776 -0.01400
C 	C 	0.65229 0.60474 0.84266 -0.01200
C 	C 	0.61344 0.63702 0.83399 -0.07100
C 	C 	0.53132 0.59088 0.83097 -0.01500
H 	H 	0.42624 0.47631 0.83318 0.03500
H 	H 	0.64107 0.50134 0.85413 0.03700
H 	H 	0.71552 0.64013 0.84520 0.03800
H 	H 	0.50069 0.61521 0.82432 0.03300
C 	C 	0.10693 0.05481 0.82183 -0.01300
C 	C 	0.12843 0.05969 0.83770 -0.06900
C 	C 	0.06846 0.03018 0.84925 -0.00200
C 	C 	0.98792 0.99069 0.84493 -0.02200
C 	C 	0.96649 0.98076 0.82901 -0.07600
C 	C 	0.02638 0.01578 0.81752 -0.00300
H 	H 	0.15238 0.07851 0.81280 0.04000
H 	H 	0.08426 0.03561 0.86157 0.03800
H 	H 	0.94244 0.96509 0.85394 0.03900
H 	H 	0.01055 0.01027 0.80521 0.03800
C 	C 	0.56875 0.10944 0.83583 -0.01800
C 	C 	0.48923 0.08112 0.83128 -0.06700
C 	C 	0.45260 0.01719 0.82082 -0.01900
C 	C 	0.49369 0.97925 0.81559 -0.00500
C 	C 	0.57148 0.00429 0.82095 -0.07500
C 	C 	0.60962 0.07094 0.83075 -0.01000
H 	H 	0.59767 0.15895 0.84386 0.03000
H 	H 	0.39141 0.99531 0.81713 0.04100
H 	H 	0.46372 0.92823 0.80796 0.04000
H 	H 	0.67009 0.09157 0.83478 0.02900
C 	C 	0.40344 0.73959 0.73430 -0.01200
C 	C 	0.33587 0.73987 0.74029 -0.07200
C 	C 	0.32644 0.74175 0.75662 -0.01500
C 	C 	0.38506 0.74574 0.76681 -0.01100
C 	C 	0.45358 0.74748 0.76081 -0.07300
C 	C 	0.46186 0.74316 0.74450 -0.01500
H 	H 	0.41115 0.73736 0.72176 0.04100
H 	H 	0.27464 0.74216 0.76141 0.02500
H 	H 	0.37745 0.74819 0.77935 0.04100
H 	H 	0.51456 0.74459 0.73970 0.02400
C 	C 	0.93860 0.86205 0.73327 -0.02300
C 	C 	0.00677 0.86047 0.73851 -0.07100
C 	C 	0.02771 0.87349 0.75445 -0.00600
C 	C 	0.97650 0.87940 0.76525 -0.02200
C 	C 	0.90386 0.87204 0.76021 -0.07900
C 	C 	0.88726 0.86771 0.74408 -0.01400
H 	H 	0.92353 0.85537 0.72091 0.04200
H 	H 	0.08139 0.87478 0.75861 0.02500
H 	H 	0.99145 0.88587 0.77762 0.04100
H 	H 	0.83246 0.86421 0.73997 0.02100
C 	C 	0.06311 0.56913 0.65526 -0.01800
C 	C 	0.04420 0.58536 0.67021 -0.05800
C 	C 	0.99005 0.52281 0.67974 -0.02500
C 	C 	0.95439 0.44488 0.67432 -0.00700
C 	C 	0.97198 0.42857 0.65927 -0.07800
C 	C 	0.02679 0.49105 0.64977 0.00200
H 	H 	0.10458 0.61698 0.64778 0.03500
H 	H 	0.97533 0.53461 0.69132 0.03000
H 	H 	0.91240 0.39718 0.68177 0.03000
H 	H 	0.04166 0.47920 0.63821 0.03700
C 	C 	0.58626 0.98169 0.67619 -0.01100
C 	C 	0.61064 0.03952 0.66444 -0.07000
C 	C 	0.55646 0.06142 0.65860 -0.01400
C 	C 	0.47730 0.02294 0.66394 -0.01300
C 	C 	0.45200 0.96272 0.67525 -0.06800
C 	C 	0.50747 0.94380 0.68166 -0.01300
H 	H 	0.62778 0.96451 0.68079 0.03600
H 	H 	0.57476 0.10606 0.64953 0.02800
H 	H 	0.43539 0.03891 0.65907 0.03300
H 	H 	0.48888 0.89768 0.69042 0.04100
C 	C 	0.96560 0.96662 0.64892 -0.02800
C 	C 	0.93985 0.00167 0.66023 -0.05900
C 	C 	0.96133 0.00276 0.67602 -0.02800
C 	C 	0.00386 0.96530 0.68054 0.00100
C 	C 	0.02512 0.92594 0.66939 -0.07500
C 	C 	0.00771 0.92869 0.65349 0.00200
H 	H 	0.95172 0.96746 0.63663 0.04200
H 	H 	0.94345 0.03083 0.68485 0.04000
H 	H 	0.01837 0.96494 0.69282 0.03500
H 	H 	0.02436 0.89926 0.64472 0.03700
C 	C 	0.87004 0.00149 0.57587 -0.00300
C 	C 	0.86072 0.98440 0.59199 -0.08900
C 	C 	0.86367 0.91817 0.59761 -0.00800
C 	C 	0.86844 0.86565 0.58711 -0.01900
C 	C 	0.87039 0.87899 0.57088 -0.07500
C 	C 	0.87496 0.94904 0.56537 -0.02000
H 	H 	0.86961 0.05331 0.57139 0.02300
H 	H 	0.85919 0.90575 0.61007 0.04000
H 	H 	0.86661 0.81269 0.59155 0.02400
H 	H 	0.87919 0.96132 0.55290 0.04200
C 	C 	0.84525 0.39597 0.58820 -0.01600
C 	C 	0.77093 0.33352 0.59297 -0.07400
C 	C 	0.70061 0.32515 0.58632 -0.01200
C 	C 	0.70467 0.37937 0.57507 -0.01100
C 	C 	0.77915 0.44116 0.57015 -0.07400
C 	C 	0.84937 0.44898 0.57670 -0.01600
H 	H 	0.89990 0.40232 0.59313 0.02600
H 	H 	0.64295 0.27665 0.58982 0.03500
H 	H 	0.65006 0.37334 0.57020 0.03500
H 	H 	0.90710 0.49711 0.57311 0.02600
