data_crystal

_cell_length_a 35.48701
_cell_length_b 37.09116
_cell_length_c 21.10643
_cell_angle_alpha 91.31127
_cell_angle_beta  90.29889
_cell_angle_gamma 89.99188

_symmetry_space_group_name_	'P 1'
_symmetry_space_group_name_H-M	'P 1'

loop_
_symmetry_equiv_pos_as_xyz
  x,y,z

loop_
_atom_site_label
_atom_site_type_symbol
_atom_site_fract_x
_atom_site_fract_y
_atom_site_fract_z
_atom_site_charge
Cd	Cd	0.01390 0.88663 0.26456 1.24700
Cd	Cd	0.01297 0.93681 0.40962 1.20600
O 	O 	0.96221 0.84331 0.24926 -0.28600
O 	O 	0.00615 0.84931 0.17811 -0.28900
C 	C 	0.97840 0.82985 0.19905 0.38100
O 	O 	0.05928 0.92858 0.25211 -0.34100
O 	O 	0.06800 0.93436 0.35891 -0.43900
C 	C 	0.07249 0.94706 0.30178 0.27500
C 	C 	0.96554 0.94710 0.27748 0.30900
O 	O 	0.01501 0.87544 0.38768 -0.41300
O 	O 	0.96684 0.93636 0.21802 -0.25100
O 	O 	0.98060 0.92561 0.31786 -0.52000
C 	C 	0.04514 0.85589 0.37843 0.29800
O 	O 	0.05473 0.85051 0.31943 -0.33500
Cd	Cd	0.91823 0.89197 0.99878 1.23800
Cd	Cd	0.91871 0.93547 0.85059 1.20000
O 	O 	0.89013 0.83174 0.99690 -0.32800
O 	O 	0.92228 0.85167 0.07900 -0.30400
C 	C 	0.90651 0.82407 0.04991 0.40700
O 	O 	0.95404 0.94136 0.01700 -0.30700
O 	O 	0.93082 0.97313 0.93337 -0.43400
C 	C 	0.95704 0.96810 0.97670 0.27600
C 	C 	0.97349 0.87061 0.90703 0.29300
O 	O 	0.87070 0.91366 0.91319 -0.43500
O 	O 	0.98186 0.86068 0.96409 -0.24500
O 	O 	0.94029 0.88518 0.90080 -0.49400
C 	C 	0.85278 0.93160 0.95744 0.27300
O 	O 	0.86384 0.92554 0.01533 -0.29200
C 	C 	0.95902 0.69531 0.95184 0.25700
N 	N 	0.97741 0.66568 0.97232 -0.13900
C 	C 	0.99008 0.64052 0.92991 0.15200
N 	N 	0.98552 0.64568 0.86690 -0.14200
C 	C 	0.96855 0.67598 0.84609 0.14700
N 	N 	0.95497 0.70069 0.88862 -0.14100
C 	C 	0.99067 0.68781 0.27106 0.23800
N 	N 	0.97843 0.69037 0.33188 -0.13100
C 	C 	0.98788 0.66478 0.37413 0.15000
N 	N 	0.00951 0.63632 0.35518 -0.14700
C 	C 	0.02136 0.63330 0.29411 0.14500
N 	N 	0.01194 0.65909 0.25210 -0.12500
Cd	Cd	0.89831 0.07138 0.69559 1.24900
Cd	Cd	0.95738 0.05401 0.82781 1.18400
O 	O 	0.85793 0.12535 0.69984 -0.28300
O 	O 	0.85847 0.08875 0.61718 -0.27500
C 	C 	0.84211 0.11581 0.64639 0.37200
O 	O 	0.93462 0.02558 0.66118 -0.34300
O 	O 	0.94665 0.00700 0.76117 -0.45600
C 	C 	0.95620 0.00805 0.70114 0.30900
C 	C 	0.96653 0.11106 0.71112 0.31700
O 	O 	0.89254 0.06196 0.81898 -0.43000
O 	O 	0.95230 0.11565 0.65456 -0.28000
O 	O 	0.94501 0.09404 0.74973 -0.52100
C 	C 	0.86750 0.03711 0.80596 0.27700
O 	O 	0.85875 0.03240 0.74625 -0.31900
Cd	Cd	0.95725 0.13941 0.49371 1.24900
Cd	Cd	0.02419 0.11140 0.37713 1.18400
O 	O 	0.90319 0.17223 0.45124 -0.29600
O 	O 	0.90423 0.15511 0.54992 -0.31200
C 	C 	0.88542 0.17042 0.50452 0.38800
O 	O 	0.99786 0.10393 0.54651 -0.34400
O 	O 	0.04633 0.11225 0.47690 -0.40500
C 	C 	0.03111 0.09431 0.52332 0.28600
C 	C 	0.94167 0.07690 0.41688 0.31500
O 	O 	0.00101 0.16776 0.40821 -0.43000
O 	O 	0.91910 0.07943 0.46529 -0.22700
O 	O 	0.96331 0.10468 0.40887 -0.51500
C 	C 	0.01440 0.18908 0.45292 0.31000
O 	O 	0.99789 0.18760 0.50784 -0.32600
C 	C 	0.69879 0.12514 0.73919 0.22400
N 	N 	0.66932 0.10195 0.73196 -0.12100
C 	C 	0.64489 0.09703 0.78039 0.14100
N 	N 	0.65037 0.11496 0.83654 -0.14400
C 	C 	0.67939 0.13860 0.84389 0.14200
N 	N 	0.70352 0.14364 0.79509 -0.12500
C 	C 	0.73748 0.17512 0.41060 0.24200
N 	N 	0.73984 0.18152 0.34751 -0.13200
C 	C 	0.70975 0.17490 0.30882 0.14600
N 	N 	0.67732 0.16199 0.33345 -0.14100
C 	C 	0.67510 0.15504 0.39622 0.15000
N 	N 	0.70497 0.16220 0.43476 -0.12700
Cd	Cd	0.18999 0.15208 0.24769 1.24800
Cd	Cd	0.18752 0.11756 0.40236 1.20600
O 	O 	0.23668 0.19926 0.22714 -0.29500
O 	O 	0.19687 0.18079 0.15427 -0.31100
C 	C 	0.21967 0.20630 0.17421 0.37700
O 	O 	0.15040 0.10456 0.23840 -0.35300
O 	O 	0.13554 0.11038 0.34265 -0.41500
C 	C 	0.13594 0.09083 0.29006 0.27500
C 	C 	0.24414 0.09983 0.28265 0.30800
O 	O 	0.18153 0.17568 0.36635 -0.41300
O 	O 	0.24443 0.10394 0.22116 -0.25200
O 	O 	0.22452 0.12325 0.31473 -0.52300
C 	C 	0.15044 0.19095 0.34764 0.29300
O 	O 	0.14288 0.18833 0.28723 -0.31900
Cd	Cd	0.12344 0.14694 0.97920 1.24000
Cd	Cd	0.12660 0.08785 0.84442 1.21700
O 	O 	0.16488 0.19918 0.97167 -0.31900
O 	O 	0.12404 0.19526 0.04875 -0.28600
C 	C 	0.14941 0.21465 0.02066 0.41300
O 	O 	0.07683 0.10636 0.99599 -0.35100
O 	O 	0.10331 0.06261 0.93167 -0.39800
C 	C 	0.07460 0.07466 0.96543 0.29300
C 	C 	0.08190 0.16563 0.86853 0.31600
O 	O 	0.17245 0.10764 0.91570 -0.42200
O 	O 	0.07327 0.18624 0.91719 -0.26400
O 	O 	0.11049 0.14436 0.87755 -0.50700
C 	C 	0.18148 0.09251 0.96891 0.27700
O 	O 	0.16683 0.10720 0.01980 -0.29600
C 	C 	0.14220 0.35071 0.92408 0.23100
N 	N 	0.12559 0.38235 0.94103 -0.12800
C 	C 	0.12003 0.40812 0.89741 0.14600
N 	N 	0.13143 0.40231 0.83664 -0.14200
C 	C 	0.14722 0.37028 0.81911 0.14500
N 	N 	0.15292 0.34461 0.86301 -0.13000
C 	C 	0.18736 0.34650 0.24674 0.23900
N 	N 	0.19486 0.34315 0.30956 -0.13600
C 	C 	0.18328 0.36891 0.35188 0.14700
N 	N 	0.16420 0.39813 0.33122 -0.14200
C 	C 	0.15719 0.40196 0.26846 0.14700
N 	N 	0.16845 0.37596 0.22618 -0.12500
Cd	Cd	0.16527 0.90148 0.77501 1.24700
Cd	Cd	0.09458 0.92037 0.88724 1.19700
O 	O 	0.21525 0.85925 0.80645 -0.29300
O 	O 	0.21504 0.88387 0.71343 -0.32400
C 	C 	0.23405 0.86590 0.75543 0.38400
O 	O 	0.12254 0.93370 0.72039 -0.36700
O 	O 	0.09784 0.96068 0.80975 -0.40600
C 	C 	0.09597 0.95336 0.74836 0.30000
C 	C 	0.10557 0.85138 0.79015 0.32500
O 	O 	0.15948 0.92839 0.89226 -0.42900
O 	O 	0.12458 0.84369 0.73860 -0.26700
O 	O 	0.12103 0.87531 0.82768 -0.52700
C 	C 	0.17856 0.95609 0.87269 0.29800
O 	O 	0.19085 0.95393 0.81474 -0.30900
Cd	Cd	0.21806 0.94526 0.55629 1.24700
Cd	Cd	0.16909 0.94945 0.41042 1.18800
O 	O 	0.27795 0.91240 0.55510 -0.29600
O 	O 	0.26033 0.94466 0.63783 -0.27900
C 	C 	0.28645 0.92490 0.61122 0.37300
O 	O 	0.17020 0.98331 0.57715 -0.35000
O 	O 	0.13318 0.96057 0.49657 -0.41800
C 	C 	0.13970 0.98538 0.54104 0.30200
C 	C 	0.24319 0.99482 0.46399 0.30100
O 	O 	0.18957 0.90115 0.46989 -0.43100
O 	O 	0.25681 0.00263 0.52016 -0.23800
O 	O 	0.22417 0.96496 0.45972 -0.51700
C 	C 	0.17113 0.88552 0.51491 0.31800
O 	O 	0.17871 0.89670 0.57263 -0.34000
C 	C 	0.38239 0.89083 0.84848 0.23800
N 	N 	0.38209 0.88710 0.91248 -0.13100
C 	C 	0.41115 0.90006 0.94852 0.12000
N 	N 	0.44108 0.91564 0.92014 -0.14200
C 	C 	0.44109 0.92039 0.85655 0.14400
N 	N 	0.41162 0.90808 0.82084 -0.12500
C 	C 	0.42397 0.94790 0.52411 0.22800
N 	N 	0.45031 0.97422 0.53140 -0.12700
C 	C 	0.47133 0.98434 0.48135 0.14100
N 	N 	0.46510 0.96891 0.42327 -0.14100
C 	C 	0.43833 0.94307 0.41529 0.14400
N 	N 	0.41845 0.93188 0.46610 -0.13000
C 	C 	0.40732 0.90301 0.01822 -0.01000
C 	C 	0.40905 0.93705 0.04995 0.10700
C 	C 	0.41318 0.93873 0.11613 -0.07600
C 	C 	0.41242 0.90726 0.15166 -0.00500
C 	C 	0.40670 0.87341 0.12044 0.08900
C 	C 	0.40506 0.87156 0.05373 -0.05600
N 	N 	0.40557 0.96812 0.01739 -0.18300
H 	H 	0.41627 0.96471 0.14023 0.06400
C 	C 	0.41741 0.91037 0.22163 0.00100
N 	N 	0.40313 0.84271 0.15395 -0.19500
H 	H 	0.40265 0.84556 0.02951 0.08200
C 	C 	0.38785 0.92460 0.25833 -0.08200
C 	C 	0.39382 0.93538 0.32191 0.11600
C 	C 	0.42936 0.92898 0.35077 -0.04100
C 	C 	0.45805 0.91227 0.31525 -0.04600
C 	C 	0.45279 0.90364 0.25057 0.07900
H 	H 	0.36073 0.92945 0.23618 0.06900
N 	N 	0.36594 0.95321 0.35378 -0.19900
H 	H 	0.48512 0.90718 0.33741 0.06300
N 	N 	0.48194 0.88950 0.21652 -0.19400
H 	H 	0.33949 0.95664 0.33272 0.10600
H 	H 	0.37056 0.96524 0.39826 0.12100
H 	H 	0.50792 0.88472 0.23832 0.10300
H 	H 	0.47926 0.88316 0.16830 0.10300
H 	H 	0.39969 0.81780 0.13050 0.11200
H 	H 	0.40303 0.84330 0.20342 0.10800
H 	H 	0.39723 0.96785 0.96987 0.09900
H 	H 	0.40897 0.99313 0.04057 0.10500
C 	C 	0.35081 0.90053 0.61750 0.27900
C 	C 	0.32626 0.92971 0.62825 -0.17900
C 	C 	0.34127 0.96474 0.62909 0.29200
C 	C 	0.37626 0.97091 0.60114 0.25000
C 	C 	0.39679 0.94173 0.57518 -0.14500
C 	C 	0.38576 0.90645 0.58913 0.25600
F 	F 	0.40736 0.87794 0.57055 -0.38100
F 	F 	0.33848 0.86628 0.62530 -0.37600
F 	F 	0.38822 0.00528 0.59333 -0.37700
F 	F 	0.31971 0.99320 0.64802 -0.36000
C 	C 	0.32557 0.91269 0.79201 0.25900
C 	C 	0.34770 0.88371 0.81168 -0.14200
C 	C 	0.33458 0.84827 0.80192 0.26400
C 	C 	0.29855 0.84209 0.77609 0.29800
C 	C 	0.27510 0.87133 0.76140 -0.18800
C 	C 	0.28905 0.90666 0.76912 0.28500
F 	F 	0.26581 0.93521 0.76102 -0.38200
F 	F 	0.33840 0.94702 0.79958 -0.37700
F 	F 	0.28554 0.80780 0.76909 -0.37300
F 	F 	0.35619 0.81992 0.81929 -0.37800
C 	C 	0.15539 0.36236 0.75172 -0.04100
C 	C 	0.12611 0.36104 0.70590 0.11100
C 	C 	0.13521 0.35932 0.64126 -0.08200
C 	C 	0.17279 0.35590 0.62178 -0.00200
C 	C 	0.20188 0.35397 0.66787 0.08300
C 	C 	0.19291 0.35801 0.73247 -0.04700
N 	N 	0.08935 0.36022 0.72368 -0.19900
H 	H 	0.11292 0.36004 0.60596 0.06600
C 	C 	0.18142 0.35644 0.55301 -0.00200
N 	N 	0.23824 0.34788 0.65054 -0.19400
H 	H 	0.21523 0.35802 0.76777 0.07400
C 	C 	0.19667 0.38782 0.52759 -0.08300
C 	C 	0.20111 0.39091 0.46184 0.11200
C 	C 	0.18747 0.36314 0.42066 -0.04300
C 	C 	0.17400 0.33100 0.44616 -0.04600
C 	C 	0.17157 0.32708 0.51209 0.08300
H 	H 	0.20520 0.40988 0.55909 0.06400
N 	N 	0.21930 0.42004 0.43873 -0.19900
H 	H 	0.16451 0.30930 0.41466 0.06900
N 	N 	0.15987 0.29517 0.53570 -0.19400
H 	H 	0.22773 0.44121 0.46913 0.10100
H 	H 	0.22709 0.42105 0.39116 0.11100
H 	H 	0.15122 0.27414 0.50517 0.11100
H 	H 	0.16045 0.29048 0.58428 0.10800
H 	H 	0.25965 0.34751 0.68472 0.10700
H 	H 	0.24547 0.34231 0.60345 0.10400
H 	H 	0.08178 0.35623 0.77073 0.10800
H 	H 	0.06786 0.36130 0.68971 0.10200
C 	C 	0.22107 0.04413 0.92269 -0.04800
C 	C 	0.19488 0.05504 0.96853 -0.07400
C 	C 	0.17395 0.02844 0.99948 0.08100
C 	C 	0.17014 0.99411 0.97079 -0.02900
C 	C 	0.19124 0.98530 0.91654 -0.09200
C 	C 	0.22049 0.00871 0.89867 0.11600
N 	N 	0.25110 0.99567 0.86087 -0.02100
H 	H 	0.24061 0.06351 0.90365 0.07900
H 	H 	0.15052 0.97481 0.98981 0.04300
N 	N 	0.15851 0.03564 0.06102 -0.00800
O 	O 	0.26071 0.01256 0.81008 -0.02300
O 	O 	0.27209 0.96960 0.88128 -0.03700
O 	O 	0.12435 0.02571 0.07380 -0.07900
O 	O 	0.17939 0.05028 0.10542 -0.05900
C 	C 	0.11482 0.27285 0.02412 0.33000
C 	C 	0.14931 0.25422 0.02577 -0.20200
C 	C 	0.18261 0.27276 0.01108 0.31600
C 	C 	0.18061 0.30630 0.98249 0.22000
C 	C 	0.14542 0.32184 0.97017 -0.12900
C 	C 	0.11280 0.30646 0.99553 0.21900
F 	F 	0.07878 0.32257 0.98770 -0.38300
F 	F 	0.08272 0.25680 0.04389 -0.36100
F 	F 	0.21265 0.32249 0.96276 -0.37900
F 	F 	0.21652 0.25617 0.01686 -0.36800
C 	C 	0.28098 0.07017 0.36571 -0.05200
C 	C 	0.25758 0.06675 0.31232 -0.09400
C 	C 	0.23864 0.03383 0.30052 0.07200
C 	C 	0.23574 0.00880 0.34920 -0.01200
C 	C 	0.25414 0.01534 0.40743 -0.10400
C 	C 	0.28023 0.04409 0.41255 0.09700
N 	N 	0.30678 0.04617 0.46381 -0.01900
H 	H 	0.29819 0.09410 0.37257 0.06700
H 	H 	0.21872 0.98480 0.34210 -0.01800
N 	N 	0.22409 0.02504 0.23861 -0.02000
O 	O 	0.33099 0.02029 0.47160 -0.06000
O 	O 	0.30878 0.07521 0.49940 -0.07300
O 	O 	0.19240 0.00767 0.23256 -0.10700
O 	O 	0.24523 0.02925 0.18916 -0.06500
C 	C 	0.17199 0.25540 0.17310 0.27100
C 	C 	0.20958 0.24429 0.16335 -0.17700
C 	C 	0.23822 0.27050 0.16459 0.29900
C 	C 	0.23034 0.30584 0.18564 0.26100
C 	C 	0.19355 0.31541 0.20350 -0.14400
C 	C 	0.16407 0.29096 0.19207 0.25500
F 	F 	0.12805 0.30057 0.20581 -0.38300
F 	F 	0.14357 0.23092 0.17064 -0.38400
F 	F 	0.25888 0.32994 0.19317 -0.37300
F 	F 	0.27433 0.26082 0.15176 -0.36000
C 	C 	0.49604 0.01610 0.48743 -0.03500
C 	C 	0.52807 0.01648 0.52795 0.11600
C 	C 	0.55345 0.04545 0.52560 -0.08600
C 	C 	0.54835 0.07276 0.48153 -0.00200
C 	C 	0.51447 0.07426 0.44622 0.08100
C 	C 	0.48859 0.04585 0.44952 -0.04600
N 	N 	0.53535 0.98874 0.56734 -0.20100
H 	H 	0.57882 0.04522 0.55448 0.07000
C 	C 	0.58148 0.09389 0.46229 0.00100
N 	N 	0.50698 0.10257 0.40828 -0.19400
H 	H 	0.46308 0.04636 0.42101 0.06700
C 	C 	0.60593 0.07873 0.41715 -0.08100
C 	C 	0.63781 0.09757 0.39753 0.12100
C 	C 	0.64365 0.13344 0.41981 -0.04100
C 	C 	0.61956 0.14849 0.46578 -0.04400
C 	C 	0.58875 0.12877 0.48812 0.08000
H 	H 	0.60062 0.05171 0.39846 0.06800
N 	N 	0.66338 0.08068 0.35927 -0.19800
H 	H 	0.62472 0.17562 0.48406 0.06900
N 	N 	0.56619 0.14355 0.53371 -0.19400
H 	H 	0.65773 0.05501 0.34008 0.10800
H 	H 	0.68994 0.09173 0.35154 0.12100
H 	H 	0.57176 0.16936 0.55238 0.10200
H 	H 	0.54309 0.12960 0.55131 0.09700
H 	H 	0.48243 0.10292 0.38071 0.10300
H 	H 	0.52482 0.12491 0.40716 0.10100
H 	H 	0.51897 0.96540 0.56668 0.11100
H 	H 	0.55836 0.99000 0.59844 0.09900
C 	C 	0.61670 0.06775 0.77610 -0.03800
C 	C 	0.58698 0.06796 0.73083 0.11200
C 	C 	0.55917 0.04095 0.73222 -0.08700
C 	C 	0.55948 0.01516 0.77982 0.00500
C 	C 	0.59040 0.01363 0.82230 0.08000
C 	C 	0.61873 0.03992 0.81988 -0.04600
N 	N 	0.58416 0.09450 0.68759 -0.19800
H 	H 	0.53593 0.04141 0.69865 0.06800
C 	C 	0.52513 0.99340 0.79049 -0.01300
N 	N 	0.59286 0.98724 0.86588 -0.19500
H 	H 	0.64213 0.03912 0.85308 0.06300
C 	C 	0.52228 0.95883 0.76245 -0.07700
C 	C 	0.49453 0.93450 0.78229 0.11200
C 	C 	0.46834 0.94573 0.82928 -0.03700
C 	C 	0.46935 0.98131 0.85318 -0.05200
C 	C 	0.49750 0.00528 0.83438 0.09400
H 	H 	0.54295 0.95015 0.72764 0.06300
N 	N 	0.49393 0.90034 0.75739 -0.19800
H 	H 	0.44855 0.99018 0.88763 0.06100
N 	N 	0.49808 0.03949 0.85911 -0.19500
H 	H 	0.51314 0.89251 0.72231 0.11100
H 	H 	0.47486 0.88110 0.77295 0.12300
H 	H 	0.47812 0.04771 0.89270 0.09900
H 	H 	0.51774 0.05845 0.84447 0.09800
H 	H 	0.61529 0.98689 0.89817 0.09500
H 	H 	0.57313 0.96641 0.86732 0.09600
H 	H 	0.60247 0.11650 0.68820 0.11000
H 	H 	0.56263 0.09384 0.65361 0.09600
C 	C 	0.68785 0.15471 0.90742 -0.04000
C 	C 	0.65865 0.16760 0.94751 0.08700
C 	C 	0.66618 0.17406 0.01225 -0.06100
C 	C 	0.70300 0.17130 0.03623 0.02500
C 	C 	0.73298 0.16298 0.99435 0.03600
C 	C 	0.72500 0.15377 0.93070 -0.03500
N 	N 	0.62389 0.17510 0.92379 -0.19500
H 	H 	0.64338 0.18159 0.04391 0.06500
C 	C 	0.70928 0.17365 0.10596 -0.00800
N 	N 	0.76939 0.16397 0.01481 -0.16300
H 	H 	0.74767 0.14511 0.89966 0.06900
C 	C 	0.71765 0.14207 0.13854 -0.07800
C 	C 	0.72160 0.14278 0.20479 0.11300
C 	C 	0.71441 0.17517 0.23941 -0.04000
C 	C 	0.70716 0.20700 0.20690 -0.04700
C 	C 	0.70543 0.20676 0.14025 0.08700
H 	H 	0.72142 0.11690 0.11217 0.07000
N 	N 	0.73274 0.11247 0.23475 -0.20100
H 	H 	0.70242 0.23194 0.23347 0.07000
N 	N 	0.70048 0.23830 0.10964 -0.19500
H 	H 	0.73617 0.08820 0.20930 0.11000
H 	H 	0.73993 0.11311 0.28278 0.12100
H 	H 	0.69655 0.26242 0.13534 0.11000
H 	H 	0.70177 0.23944 0.06033 0.11100
H 	H 	0.79127 0.15652 0.98423 0.09300
H 	H 	0.77645 0.17346 0.06029 0.10900
H 	H 	0.61902 0.17583 0.87501 0.10600
H 	H 	0.60195 0.18270 0.95412 0.09300
C 	C 	0.08208 0.19131 0.47966 -0.02600
C 	C 	0.05149 0.20570 0.44647 -0.09600
C 	C 	0.05841 0.22814 0.39496 0.10400
C 	C 	0.09453 0.22897 0.36869 -0.03700
C 	C 	0.12291 0.20660 0.39247 -0.07700
C 	C 	0.11810 0.19175 0.45286 0.07200
N 	N 	0.14942 0.17716 0.48672 -0.03700
H 	H 	0.07741 0.17721 0.52335 0.07500
H 	H 	0.09945 0.24407 0.32613 0.10300
N 	N 	0.02829 0.24806 0.36673 -0.02500
O 	O 	0.17918 0.19686 0.49767 -0.11600
O 	O 	0.14660 0.14574 0.51240 -0.16300
O 	O 	0.00433 0.26550 0.40242 -0.07100
O 	O 	0.02526 0.24939 0.30537 -0.06300
C 	C 	0.07155 0.00213 0.54185 -0.01500
C 	C 	0.10891 0.01105 0.55836 -0.07100
C 	C 	0.11699 0.04650 0.58034 0.11200
C 	C 	0.08879 0.07315 0.57834 -0.02600
C 	C 	0.05308 0.06513 0.55250 -0.06600
C 	C 	0.04385 0.02899 0.53772 0.06900
N 	N 	0.00790 0.02019 0.51052 -0.02100
H 	H 	0.06459 0.97470 0.52762 0.03700
H 	H 	0.09594 0.10087 0.59049 0.08300
N 	N 	0.15460 0.05656 0.59780 -0.01400
O 	O 	0.00588 0.00547 0.45412 -0.24400
O 	O 	0.97716 0.02881 0.54049 -0.08200
O 	O 	0.17515 0.07481 0.55907 -0.10900
O 	O 	0.16776 0.04880 0.65345 -0.07100
C 	C 	0.78978 0.20570 0.46997 0.26400
C 	C 	0.77204 0.17380 0.44897 -0.14700
C 	C 	0.78866 0.14041 0.46155 0.25800
C 	C 	0.82473 0.13901 0.48815 0.28300
C 	C 	0.84413 0.17103 0.50396 -0.18200
C 	C 	0.82552 0.20427 0.49833 0.29800
F 	F 	0.84348 0.23539 0.51519 -0.36600
F 	F 	0.77310 0.23811 0.46067 -0.37300
F 	F 	0.84254 0.10675 0.49171 -0.36900
F 	F 	0.77099 0.10932 0.44360 -0.38200
C 	C 	0.02356 0.02299 0.70923 -0.04500
C 	C 	0.99565 0.00021 0.68423 -0.07000
C 	C 	0.00609 0.96599 0.65955 0.09500
C 	C 	0.04306 0.95328 0.66985 -0.03000
C 	C 	0.06788 0.97295 0.70962 -0.07400
C 	C 	0.05900 0.00922 0.72522 0.09600
N 	N 	0.08332 0.03030 0.76561 -0.01700
H 	H 	0.01605 0.04999 0.72489 0.01100
H 	H 	0.05139 0.92712 0.65092 0.07100
N 	N 	0.97902 0.94354 0.62678 -0.02000
O 	O 	0.06913 0.04936 0.81213 -0.25100
O 	O 	0.11957 0.02998 0.75679 -0.16500
O 	O 	0.95537 0.95757 0.58702 -0.08100
O 	O 	0.97984 0.90873 0.63311 -0.07100
C 	C 	0.03465 0.12554 0.72227 -0.02800
C 	C 	0.99699 0.13417 0.73590 -0.10000
C 	C 	0.98896 0.16052 0.78287 0.11000
C 	C 	0.01776 0.17318 0.82284 -0.02900
C 	C 	0.05464 0.15997 0.81591 -0.08600
C 	C 	0.06384 0.13932 0.76116 0.06200
N 	N 	0.10229 0.13554 0.74154 -0.04400
H 	H 	0.04118 0.10772 0.68247 0.06100
H 	H 	0.01104 0.19200 0.86116 0.09200
N 	N 	0.95115 0.17312 0.79205 -0.02500
O 	O 	0.11401 0.10516 0.71683 -0.16600
O 	O 	0.12446 0.16348 0.74234 -0.09900
O 	O 	0.93652 0.17381 0.84845 -0.08300
O 	O 	0.93175 0.18489 0.74432 -0.05500
C 	C 	0.78613 0.15554 0.65639 0.27800
C 	C 	0.80128 0.12185 0.63851 -0.18000
C 	C 	0.77700 0.09190 0.63378 0.28500
C 	C 	0.74115 0.09369 0.66100 0.25400
C 	C 	0.72889 0.12594 0.69079 -0.14200
C 	C 	0.75003 0.15759 0.68278 0.25500
F 	F 	0.73663 0.18989 0.70425 -0.37800
F 	F 	0.80785 0.18562 0.65451 -0.36700
F 	F 	0.71976 0.06340 0.66291 -0.37900
F 	F 	0.78956 0.06000 0.60916 -0.35900
C 	C 	0.04470 0.60219 0.27361 -0.03900
C 	C 	0.07790 0.59295 0.30707 0.11300
C 	C 	0.09546 0.55972 0.29394 -0.08200
C 	C 	0.08218 0.53685 0.24488 -0.00200
C 	C 	0.05123 0.54779 0.20724 0.07900
C 	C 	0.03235 0.58011 0.22276 -0.04600
N 	N 	0.09364 0.61627 0.35030 -0.19800
H 	H 	0.11973 0.55171 0.32171 0.06400
C 	C 	0.09906 0.50040 0.23681 -0.00200
N 	N 	0.03965 0.52757 0.15620 -0.19400
H 	H 	0.00761 0.58776 0.19582 0.06700
C 	C 	0.07908 0.47043 0.25814 -0.08300
C 	C 	0.09668 0.43665 0.26237 0.11700
C 	C 	0.13530 0.43319 0.24706 -0.04000
C 	C 	0.15438 0.46235 0.22085 -0.04800
C 	C 	0.13650 0.49595 0.21502 0.07700
H 	H 	0.05004 0.47362 0.27303 0.06600
N 	N 	0.07645 0.40771 0.28131 -0.19900
H 	H 	0.18367 0.45933 0.20732 0.06800
N 	N 	0.15541 0.52379 0.18893 -0.19600
H 	H 	0.04828 0.41070 0.29466 0.11100
H 	H 	0.08803 0.38182 0.28074 0.12900
H 	H 	0.18349 0.52069 0.17515 0.10300
H 	H 	0.14200 0.54816 0.17951 0.10100
H 	H 	0.01600 0.53520 0.13004 0.09700
H 	H 	0.05456 0.50475 0.14089 0.10000
H 	H 	0.08425 0.64285 0.35518 0.11500
H 	H 	0.11705 0.60853 0.37700 0.10300
C 	C 	0.01376 0.61067 0.95131 -0.05900
C 	C 	0.99797 0.58081 0.98226 0.11800
C 	C 	0.01911 0.54903 0.98713 -0.12600
C 	C 	0.05508 0.54643 0.96030 0.00500
C 	C 	0.07230 0.57750 0.93577 0.07100
C 	C 	0.05150 0.60950 0.93215 -0.03900
N 	N 	0.96232 0.58208 0.00567 -0.19200
H 	H 	0.00652 0.52544 0.00788 0.08700
C 	C 	0.07086 0.51024 0.94689 -0.00300
N 	N 	0.10836 0.57652 0.91421 -0.19300
H 	H 	0.06403 0.63300 0.91095 0.06200
C 	C 	0.05705 0.49038 0.89448 -0.08400
C 	C 	0.07066 0.45568 0.88061 0.11300
C 	C 	0.10134 0.44216 0.91599 -0.04500
C 	C 	0.11471 0.46171 0.96921 -0.04100
C 	C 	0.09907 0.49531 0.98601 0.05500
H 	H 	0.03467 0.50153 0.86571 0.06200
N 	N 	0.05295 0.43483 0.83575 -0.19800
H 	H 	0.13754 0.45087 0.99736 0.06000
N 	N 	0.11158 0.51323 0.03900 -0.18200
H 	H 	0.03210 0.44583 0.80686 0.09800
H 	H 	0.05749 0.40706 0.83259 0.10700
H 	H 	0.13293 0.50222 0.06680 0.10200
H 	H 	0.10003 0.53792 0.05357 0.10200
H 	H 	0.12048 0.59938 0.89463 0.10100
H 	H 	0.12497 0.55344 0.91780 0.09700
H 	H 	0.94582 0.60527 0.00304 0.13400
H 	H 	0.95084 0.55967 0.02772 0.11200
C 	C 	0.96869 0.68374 0.77785 -0.03900
C 	C 	0.00306 0.68660 0.74459 0.11000
C 	C 	0.00275 0.68542 0.67805 -0.09000
C 	C 	0.96862 0.68407 0.64429 0.00500
C 	C 	0.93406 0.68480 0.67770 0.08000
C 	C 	0.93448 0.68397 0.74430 -0.04800
N 	N 	0.03629 0.69115 0.77622 -0.19900
H 	H 	0.02916 0.68590 0.65244 0.06700
C 	C 	0.96953 0.68056 0.57403 -0.00400
N 	N 	0.90055 0.68655 0.64631 -0.19400
H 	H 	0.90812 0.68273 0.76995 0.06700
C 	C 	0.96147 0.64702 0.54496 -0.08100
C 	C 	0.96435 0.64212 0.47891 0.11300
C 	C 	0.97879 0.67041 0.44209 -0.04100
C 	C 	0.98616 0.70416 0.47108 -0.04500
C 	C 	0.98066 0.70980 0.53643 0.08500
H 	H 	0.95219 0.62486 0.57368 0.06400
N 	N 	0.95182 0.61089 0.45107 -0.19800
H 	H 	0.99645 0.72609 0.44279 0.07100
N 	N 	0.98579 0.74333 0.56256 -0.19400
H 	H 	0.94314 0.58946 0.47880 0.10300
H 	H 	0.94823 0.60842 0.40205 0.11400
H 	H 	0.99517 0.76449 0.53483 0.11400
H 	H 	0.97929 0.74905 0.60992 0.10900
H 	H 	0.87519 0.68608 0.67123 0.10500
H 	H 	0.89931 0.68952 0.59728 0.10600
H 	H 	0.03708 0.69584 0.82519 0.12000
H 	H 	0.06171 0.69179 0.75147 0.11100
C 	C 	0.97753 0.03271 0.98257 -0.05000
C 	C 	0.98679 0.99591 0.98630 -0.06900
C 	C 	0.02497 0.98575 0.99016 0.06500
C 	C 	0.05329 0.01197 0.98687 -0.02400
C 	C 	0.04421 0.04870 0.98114 -0.06600
C 	C 	0.00596 0.05908 0.97997 0.04700
N 	N 	0.99579 0.09591 0.97118 -0.03300
H 	H 	0.94830 0.04078 0.97844 0.03800
H 	H 	0.08238 0.00337 0.98421 0.05000
N 	N 	0.03526 0.94849 0.99089 -0.03800
O 	O 	0.99989 0.11023 0.91600 -0.17700
O 	O 	0.97873 0.11386 0.01623 -0.05400
O 	O 	0.02821 0.92781 0.94177 -0.23900
O 	O 	0.05569 0.93638 0.03709 -0.08700
C 	C 	0.81269 0.96551 0.88517 -0.04600
C 	C 	0.83360 0.96525 0.94165 -0.07900
C 	C 	0.84918 0.99806 0.96389 0.06500
C 	C 	0.85705 0.02492 0.92017 -0.03100
C 	C 	0.84572 0.01996 0.85663 -0.09200
C 	C 	0.81887 0.99290 0.84183 0.08400
N 	N 	0.79753 0.99361 0.78410 -0.02100
H 	H 	0.79567 0.94233 0.87147 0.07100
H 	H 	0.87349 0.04834 0.93462 0.05200
N 	N 	0.85827 0.00343 0.02972 -0.00300
O 	O 	0.79501 0.96477 0.74807 -0.08100
O 	O 	0.77861 0.02235 0.76967 -0.04700
O 	O 	0.88864 0.02085 0.04659 -0.07600
O 	O 	0.83509 0.99256 0.07285 -0.06800
C 	C 	0.04099 0.87369 0.77376 -0.03600
C 	C 	0.06467 0.84565 0.79246 -0.11700
C 	C 	0.04985 0.81842 0.83032 0.11000
C 	C 	0.01462 0.82362 0.85912 -0.04200
C 	C 	0.99543 0.85656 0.85268 -0.06700
C 	C 	0.00676 0.87983 0.80483 0.05500
N 	N 	0.98465 0.91060 0.78992 -0.03300
H 	H 	0.05080 0.89264 0.73977 0.04700
H 	H 	0.00406 0.80371 0.89139 0.09900
N 	N 	0.07121 0.78641 0.84206 -0.02900
O 	O 	0.99589 0.94268 0.80756 -0.20800
O 	O 	0.95411 0.90670 0.75618 -0.19800
O 	O 	0.07216 0.77310 0.89855 -0.05600
O 	O 	0.08859 0.76983 0.79576 -0.08300
C 	C 	0.89853 0.75795 0.04956 0.27800
C 	C 	0.92272 0.78785 0.05549 -0.16800
C 	C 	0.96132 0.78306 0.04268 0.25100
C 	C 	0.97396 0.75119 0.01344 0.32500
C 	C 	0.94824 0.72383 0.99737 -0.22300
C 	C 	0.91106 0.72621 0.01925 0.30300
F 	F 	0.88652 0.69874 0.00760 -0.37900
F 	F 	0.86177 0.76116 0.06626 -0.35500
F 	F 	0.01070 0.74794 0.99665 -0.40900
F 	F 	0.98595 0.81051 0.05330 -0.36000
C 	C 	0.10983 0.03510 0.23491 -0.02200
C 	C 	0.12266 0.05265 0.29084 -0.08900
C 	C 	0.12253 0.03363 0.34811 0.05700
C 	C 	0.10762 0.99895 0.34978 -0.08000
C 	C 	0.09373 0.98155 0.29476 -0.10200
C 	C 	0.09680 0.99911 0.23614 0.10300
N 	N 	0.08970 0.97993 0.17781 -0.01700
H 	H 	0.11034 0.04909 0.19049 0.09100
H 	H 	0.10560 0.98599 0.39497 0.00000
N 	N 	0.13632 0.04997 0.40556 -0.03800
O 	O 	0.06197 0.98955 0.14145 -0.06100
O 	O 	0.11303 0.95504 0.15834 -0.07400
O 	O 	0.11383 0.06935 0.44075 -0.16000
O 	O 	0.16960 0.04168 0.42662 -0.22400
C 	C 	0.96275 0.04593 0.31690 -0.02400
C 	C 	0.94077 0.04554 0.37196 -0.09700
C 	C 	0.91933 0.01438 0.38496 0.12100
C 	C 	0.92437 0.98291 0.34830 -0.05100
C 	C 	0.94978 0.98214 0.29782 -0.09300
C 	C 	0.96653 0.01466 0.27870 0.08500
N 	N 	0.98669 0.01631 0.22019 -0.01900
H 	H 	0.97690 0.07048 0.30359 -0.00100
H 	H 	0.90989 0.95843 0.36123 0.07200
N 	N 	0.89240 0.01456 0.43509 -0.02100
O 	O 	0.97089 0.00455 0.16793 -0.05200
O 	O 	0.01713 0.03571 0.21734 -0.12200
O 	O 	0.85943 0.02904 0.42664 -0.01800
O 	O 	0.89923 0.99674 0.48624 -0.06600
C 	C 	0.10580 0.83050 0.41572 -0.03300
C 	C 	0.07234 0.84906 0.43005 -0.07800
C 	C 	0.06965 0.86779 0.48875 0.06600
C 	C 	0.10251 0.87584 0.52318 -0.01900
C 	C 	0.13750 0.86404 0.50025 -0.09700
C 	C 	0.13861 0.83803 0.45066 0.10000
N 	N 	0.17344 0.82095 0.43339 -0.02400
H 	H 	0.10705 0.81249 0.37462 0.08700
H 	H 	0.10112 0.89349 0.56478 0.06700
N 	N 	0.03391 0.87899 0.51296 -0.02400
O 	O 	0.19567 0.80856 0.47701 -0.06600
O 	O 	0.18258 0.81708 0.37400 -0.08700
O 	O 	0.00764 0.85530 0.52250 -0.09500
O 	O 	0.02782 0.91283 0.52644 -0.20100
C 	C 	0.01651 0.73605 0.20335 0.25100
C 	C 	0.98512 0.71848 0.22873 -0.13900
C 	C 	0.94947 0.73472 0.22441 0.25600
C 	C 	0.94628 0.77044 0.20514 0.27500
C 	C 	0.97875 0.79016 0.19002 -0.16800
C 	C 	0.01330 0.77170 0.18351 0.28000
F 	F 	0.04436 0.78905 0.16259 -0.35900
F 	F 	0.05078 0.71977 0.20305 -0.37800
F 	F 	0.91210 0.78689 0.20641 -0.36400
F 	F 	0.91831 0.71678 0.24338 -0.37200
