data_crystal

_cell_length_a 22.60423
_cell_length_b 20.88596
_cell_length_c 49.80944
_cell_angle_alpha 89.89202
_cell_angle_beta  89.89396
_cell_angle_gamma 119.74795

_symmetry_space_group_name_	'P 1'
_symmetry_space_group_name_H-M	'P 1'

loop_
_symmetry_equiv_pos_as_xyz
  x,y,z

loop_
_atom_site_label
_atom_site_type_symbol
_atom_site_fract_x
_atom_site_fract_y
_atom_site_fract_z
_atom_site_charge
C 	C 	0.70474 0.47953 0.97380 0.29700
C 	C 	0.61592 0.18602 0.93064 0.32000
C 	C 	0.75371 0.34220 0.99443 0.31800
C 	C 	0.56098 0.31643 0.90670 0.30100
C 	C 	0.82601 0.33676 0.90935 0.32200
C 	C 	0.79771 0.49017 0.89185 0.29900
Ni	Ni	0.63526 0.31858 0.95976 1.11200
Ni	Ni	0.69498 0.32614 0.89992 1.12000
Ni	Ni	0.79443 0.42972 0.94561 1.11900
O 	O 	0.64476 0.41987 0.96915 -0.37700
O 	O 	0.76219 0.47616 0.97441 -0.38100
O 	O 	0.76048 0.29105 0.90799 -0.40400
O 	O 	0.63768 0.22227 0.95314 -0.38400
O 	O 	0.61915 0.22119 0.90828 -0.38800
O 	O 	0.80374 0.50394 0.91801 -0.39500
O 	O 	0.69237 0.33435 0.99459 -0.37700
O 	O 	0.78548 0.35127 0.97160 -0.39100
O 	O 	0.76752 0.42154 0.88195 -0.39000
O 	O 	0.55653 0.28928 0.93142 -0.37600
O 	O 	0.61914 0.34859 0.89302 -0.38800
O 	O 	0.85000 0.40097 0.92148 -0.39600
O 	O 	0.70322 0.37048 0.93383 -0.71600
H 	H 	0.69232 0.40899 0.92864 0.16000
C 	C 	0.76409 0.43046 0.47989 0.30200
C 	C 	0.60332 0.18286 0.55162 0.30400
C 	C 	0.57249 0.31858 0.49073 0.32300
C 	C 	0.78597 0.29005 0.55220 0.30200
C 	C 	0.58279 0.37587 0.57197 0.32300
C 	C 	0.77596 0.50529 0.56832 0.29800
Ni	Ni	0.68245 0.28825 0.50967 1.11200
Ni	Ni	0.69058 0.33734 0.57174 1.12000
Ni	Ni	0.67517 0.43388 0.52543 1.12000
O 	O 	0.76162 0.36840 0.48747 -0.38200
O 	O 	0.71698 0.44754 0.48758 -0.38300
O 	O 	0.59670 0.32281 0.57639 -0.39400
O 	O 	0.59643 0.21374 0.53013 -0.38600
O 	O 	0.64671 0.22413 0.57028 -0.37800
O 	O 	0.76243 0.50901 0.54257 -0.39400
O 	O 	0.61828 0.30137 0.48277 -0.38300
O 	O 	0.58216 0.35797 0.51231 -0.39500
O 	O 	0.73733 0.44565 0.58343 -0.38200
O 	O 	0.74592 0.25756 0.53097 -0.37600
O 	O 	0.77973 0.33869 0.56727 -0.38900
O 	O 	0.62602 0.43604 0.55898 -0.39900
O 	O 	0.69980 0.36209 0.53456 -0.71900
H 	H 	0.74974 0.39208 0.53290 0.16200
C 	C 	0.98827 0.13473 0.69455 0.29100
C 	C 	0.01218 0.92737 0.76880 0.31800
C 	C 	0.99060 0.12111 0.77333 0.31600
C 	C 	0.00701 0.92563 0.69285 0.30100
C 	C 	0.18972 0.14916 0.77053 0.31500
C 	C 	0.19206 0.15223 0.69289 0.29500
Ni	Ni	0.96646 0.00773 0.73159 1.09800
Ni	Ni	0.11877 0.02874 0.73106 1.10600
Ni	Ni	0.10119 0.17081 0.73299 1.12000
O 	O 	0.94659 0.08438 0.71215 -0.38200
O 	O 	0.05346 0.18049 0.70015 -0.38300
O 	O 	0.19702 0.10956 0.75167 -0.39900
O 	O 	0.96621 0.91949 0.75106 -0.37100
O 	O 	0.07545 0.98150 0.76678 -0.37000
O 	O 	0.18685 0.19526 0.71146 -0.38600
O 	O 	0.96461 0.05027 0.76903 -0.39800
O 	O 	0.02330 0.16902 0.75410 -0.38300
O 	O 	0.16839 0.08057 0.69724 -0.39800
O 	O 	0.96595 0.95343 0.69658 -0.35900
O 	O 	0.05343 0.93382 0.71106 -0.37100
O 	O 	0.14415 0.17044 0.76823 -0.40000
O 	O 	0.06024 0.06846 0.72594 -0.72700
H 	H 	0.06053 0.07024 0.70618 0.14500
C 	C 	0.18350 0.69722 0.44230 0.30000
C 	C 	0.26554 0.47094 0.46924 0.31700
C 	C 	0.33099 0.71215 0.47999 0.32000
C 	C 	0.11203 0.45148 0.43061 0.29600
C 	C 	0.39990 0.64690 0.40672 0.31700
C 	C 	0.24827 0.59998 0.36876 0.30700
Ni	Ni	0.20538 0.57226 0.46695 1.11200
Ni	Ni	0.25942 0.51962 0.41499 1.12100
Ni	Ni	0.30117 0.68825 0.42094 1.11900
O 	O 	0.18169 0.65867 0.46418 -0.37200
O 	O 	0.21816 0.70018 0.42038 -0.38800
O 	O 	0.35456 0.57997 0.39876 -0.38500
O 	O 	0.21636 0.48173 0.47819 -0.37200
O 	O 	0.30250 0.50814 0.44864 -0.39100
O 	O 	0.29234 0.66362 0.38054 -0.38700
O 	O 	0.29848 0.64107 0.48448 -0.38500
O 	O 	0.32109 0.73891 0.45753 -0.38900
O 	O 	0.22189 0.53581 0.38133 -0.39900
O 	O 	0.11364 0.49263 0.45110 -0.37300
O 	O 	0.16336 0.43867 0.42604 -0.38400
O 	O 	0.38400 0.67896 0.42554 -0.39700
O 	O 	0.24146 0.59017 0.43176 -0.71400
H 	H 	0.20108 0.58206 0.42160 0.15600
C 	C 	0.41938 0.58467 0.07252 0.29800
C 	C 	0.26380 0.67096 0.14539 0.31800
C 	C 	0.23346 0.47251 0.09845 0.31700
C 	C 	0.44471 0.77419 0.12568 0.29900
C 	C 	0.18691 0.62685 0.06601 0.31900
C 	C 	0.37262 0.74738 0.03694 0.29400
Ni	Ni	0.34820 0.61205 0.11962 1.11200
Ni	Ni	0.31638 0.73171 0.09174 1.12000
Ni	Ni	0.29622 0.59198 0.05784 1.12200
O 	O 	0.39053 0.56056 0.09650 -0.37700
O 	O 	0.38624 0.59512 0.05251 -0.38200
O 	O 	0.23567 0.69629 0.06693 -0.39000
O 	O 	0.31387 0.65708 0.14921 -0.38200
O 	O 	0.24681 0.67970 0.12114 -0.39500
O 	O 	0.32217 0.67888 0.03270 -0.38500
O 	O 	0.25158 0.52055 0.11795 -0.38900
O 	O 	0.26507 0.49180 0.07519 -0.38400
O 	O 	0.37741 0.78217 0.05995 -0.38400
O 	O 	0.44005 0.70887 0.12273 -0.38400
O 	O 	0.39321 0.78619 0.11959 -0.37700
O 	O 	0.20125 0.57354 0.06318 -0.39500
O 	O 	0.33573 0.65377 0.08835 -0.71800
H 	H 	0.38312 0.68293 0.08199 0.15300
C 	C 	0.03063 0.87575 0.25483 0.30000
C 	C 	0.07058 0.15580 0.30445 0.31500
C 	C 	0.01282 0.91846 0.32956 0.31400
C 	C 	0.07122 0.10252 0.23451 0.29100
C 	C 	0.84768 0.94786 0.31216 0.36400
C 	C 	0.84287 0.93197 0.24416 0.30500
Ni	Ni	0.07867 0.02335 0.28390 1.09400
Ni	Ni	0.95268 0.05389 0.27321 1.10400
Ni	Ni	0.92134 0.88825 0.28340 1.11900
O 	O 	0.07347 0.92372 0.27261 -0.36000
O 	O 	0.96461 0.85475 0.25504 -0.38300
O 	O 	0.86694 0.00572 0.29632 -0.44100
O 	O 	0.11112 0.13187 0.29587 -0.38300
O 	O 	0.00485 0.11057 0.30590 -0.40200
O 	O 	0.84587 0.87828 0.25784 -0.38600
O 	O 	0.05571 0.98784 0.32362 -0.35900
O 	O 	0.98017 0.87170 0.31016 -0.38800
O 	O 	0.89656 0.99850 0.24152 -0.37400
O 	O 	0.10207 0.06875 0.24551 -0.38700
O 	O 	0.03361 0.12238 0.24919 -0.38600
O 	O 	0.88484 0.91637 0.31488 -0.41400
O 	O 	0.98636 0.98695 0.27446 -0.69400
H 	H 	0.98800 0.97864 0.25509 0.15900
C 	C 	0.18893 0.39400 0.10474 -0.12000
C 	C 	0.12810 0.37103 0.11940 0.13000
C 	C 	0.10285 0.30803 0.13570 -0.10100
C 	C 	0.13645 0.26691 0.13666 0.00100
C 	C 	0.18842 0.28141 0.11776 0.05300
C 	C 	0.21484 0.34565 0.10202 -0.02200
N 	N 	0.09454 0.40983 0.11813 -0.20600
H 	H 	0.05981 0.29374 0.14889 0.05500
C 	C 	0.12654 0.22024 0.16045 -0.00100
N 	N 	0.21480 0.23565 0.11549 -0.19200
H 	H 	0.25896 0.36091 0.08934 0.04200
C 	C 	0.07039 0.14864 0.16134 -0.09700
C 	C 	0.05432 0.10642 0.18497 0.11600
C 	C 	0.09475 0.13713 0.20810 -0.10800
C 	C 	0.15364 0.20637 0.20662 -0.02400
C 	C 	0.16941 0.24908 0.18320 0.05800
H 	H 	0.03846 0.12623 0.14375 0.05000
N 	N 	0.00042 0.03652 0.18528 -0.19800
H 	H 	0.18561 0.22866 0.22421 0.03900
N 	N 	0.22454 0.31827 0.18291 -0.19200
H 	H 	0.96927 0.01515 0.16842 0.07100
H 	H 	0.99040 0.00190 0.20186 0.07200
H 	H 	0.25555 0.33890 0.19985 0.07700
H 	H 	0.23702 0.35253 0.16612 0.08700
H 	H 	0.25515 0.24829 0.10228 0.07700
H 	H 	0.19402 0.18601 0.12614 0.08100
H 	H 	0.10963 0.45352 0.10461 0.09800
H 	H 	0.05124 0.39464 0.12992 0.08100
C 	C 	0.50054 0.82794 0.14255 -0.10600
C 	C 	0.56761 0.86519 0.13226 0.12700
C 	C 	0.62288 0.88565 0.14970 -0.09500
C 	C 	0.61192 0.87178 0.17733 0.00000
C 	C 	0.54546 0.84400 0.18802 0.06000
C 	C 	0.49044 0.82361 0.17044 -0.02300
N 	N 	0.57900 0.88075 0.10564 -0.20500
H 	H 	0.67427 0.91087 0.14169 0.06000
C 	C 	0.67014 0.88559 0.19479 0.00700
N 	N 	0.53385 0.83481 0.21495 -0.19200
H 	H 	0.43899 0.79771 0.17839 0.04400
C 	C 	0.70605 0.95363 0.20775 -0.10800
C 	C 	0.75833 0.96719 0.22590 0.16000
C 	C 	0.78005 0.91430 0.22899 -0.11400
C 	C 	0.74419 0.84611 0.21586 -0.02000
C 	C 	0.68879 0.83080 0.19903 0.05600
H 	H 	0.69097 0.99498 0.20472 0.06800
N 	N 	0.78524 0.02935 0.24107 -0.22600
H 	H 	0.76006 0.80526 0.21834 0.04500
N 	N 	0.65410 0.76374 0.18698 -0.19200
H 	H 	0.77275 0.07041 0.23718 0.07100
H 	H 	0.81392 0.03489 0.25811 0.07400
H 	H 	0.66841 0.72381 0.19016 0.08100
H 	H 	0.61251 0.75030 0.17451 0.08800
H 	H 	0.48447 0.81346 0.22258 0.08300
H 	H 	0.57345 0.84910 0.22858 0.08600
H 	H 	0.53921 0.87221 0.09286 0.09200
H 	H 	0.62836 0.90491 0.09776 0.08600
C 	C 	0.05312 0.83120 0.23964 -0.10400
C 	C 	0.06039 0.77487 0.25246 0.12900
C 	C 	0.09394 0.74293 0.23900 -0.09800
C 	C 	0.11864 0.76482 0.21282 0.00000
C 	C 	0.10697 0.81731 0.19930 0.06300
C 	C 	0.07489 0.85060 0.21301 -0.02500
N 	N 	0.03504 0.75103 0.27756 -0.20400
H 	H 	0.10140 0.70135 0.24903 0.05600
C 	C 	0.15834 0.73394 0.20005 0.00200
N 	N 	0.12656 0.83612 0.17329 -0.19200
H 	H 	0.06825 0.89290 0.20311 0.04700
C 	C 	0.12354 0.66462 0.18774 -0.10000
C 	C 	0.15907 0.63819 0.17241 0.13000
C 	C 	0.23008 0.68331 0.16848 -0.11800
C 	C 	0.26565 0.74916 0.18294 -0.02100
C 	C 	0.23045 0.77476 0.19894 0.05900
H 	H 	0.06859 0.63184 0.18966 0.05600
N 	N 	0.12499 0.56946 0.16164 -0.20600
H 	H 	0.32040 0.78267 0.18055 0.04300
N 	N 	0.26597 0.83880 0.21281 -0.19200
H 	H 	0.07218 0.53719 0.16386 0.08000
H 	H 	0.15091 0.54651 0.15182 0.09700
H 	H 	0.31904 0.86958 0.21127 0.08600
H 	H 	0.24160 0.85768 0.22576 0.09200
H 	H 	0.11913 0.87611 0.16369 0.08900
H 	H 	0.14791 0.81029 0.16217 0.09100
H 	H 	0.00548 0.76955 0.28732 0.10400
H 	H 	0.04276 0.71133 0.28724 0.08500
C 	C 	0.78234 0.91658 0.32661 -0.13200
C 	C 	0.77897 0.90099 0.35442 0.14100
C 	C 	0.71602 0.85170 0.36618 -0.10400
C 	C 	0.65614 0.82024 0.35094 0.00500
C 	C 	0.65892 0.83931 0.32346 0.05400
C 	C 	0.72206 0.88825 0.31168 -0.01200
N 	N 	0.83577 0.93422 0.36996 -0.20600
H 	H 	0.71341 0.83898 0.38742 0.06000
C 	C 	0.59006 0.77454 0.36473 0.00100
N 	N 	0.60154 0.80978 0.30819 -0.19100
H 	H 	0.72468 0.90086 0.29042 0.04500
C 	C 	0.55537 0.80911 0.37482 -0.09700
C 	C 	0.49074 0.76789 0.38648 0.12600
C 	C 	0.46337 0.69085 0.39089 -0.11400
C 	C 	0.49866 0.65625 0.38100 -0.02100
C 	C 	0.56152 0.69727 0.36766 0.05600
H 	H 	0.57728 0.86821 0.37230 0.06100
N 	N 	0.45419 0.80189 0.39217 -0.19600
H 	H 	0.47764 0.59744 0.38395 0.04300
N 	N 	0.59404 0.66221 0.35780 -0.19200
H 	H 	0.47781 0.85943 0.39203 0.08500
H 	H 	0.40135 0.77240 0.39369 0.05300
H 	H 	0.57266 0.60521 0.36013 0.07900
H 	H 	0.64050 0.69089 0.34766 0.08400
H 	H 	0.60405 0.82479 0.28800 0.08200
H 	H 	0.55422 0.77094 0.31599 0.08600
H 	H 	0.88183 0.97649 0.36238 0.10800
H 	H 	0.83357 0.92011 0.39022 0.09000
C 	C 	0.24001 0.59703 0.33959 -0.11200
C 	C 	0.28161 0.57753 0.32464 0.12900
C 	C 	0.25046 0.51180 0.30974 -0.09700
C 	C 	0.17903 0.47132 0.30786 0.00100
C 	C 	0.14140 0.50626 0.31516 0.06000
C 	C 	0.17373 0.57187 0.33016 -0.02200
N 	N 	0.35034 0.61571 0.32752 -0.20400
H 	H 	0.28085 0.48899 0.30190 0.05500
C 	C 	0.14470 0.38960 0.30573 0.00200
N 	N 	0.07436 0.47561 0.30888 -0.19200
H 	H 	0.14392 0.59497 0.33832 0.03500
C 	C 	0.11237 0.34655 0.32858 -0.09900
C 	C 	0.08859 0.27023 0.32881 0.12600
C 	C 	0.09687 0.23631 0.30561 -0.11800
C 	C 	0.12879 0.27936 0.28275 -0.02200
C 	C 	0.15095 0.35521 0.28231 0.05600
H 	H 	0.10788 0.37302 0.34658 0.06300
N 	N 	0.06017 0.23068 0.35162 -0.20500
H 	H 	0.13527 0.25351 0.26503 0.05000
N 	N 	0.17688 0.39426 0.25922 -0.19200
H 	H 	0.05300 0.25596 0.36844 0.08300
H 	H 	0.04663 0.17522 0.35318 0.09100
H 	H 	0.18323 0.36895 0.24223 0.08100
H 	H 	0.18852 0.44915 0.25759 0.08500
H 	H 	0.04600 0.49976 0.31544 0.08000
H 	H 	0.05047 0.42874 0.29679 0.08400
H 	H 	0.37374 0.66403 0.33888 0.10000
H 	H 	0.38105 0.59849 0.31781 0.08400
C 	C 	0.01202 0.89048 0.35721 -0.10500
C 	C 	0.98098 0.81387 0.36260 0.12300
C 	C 	0.00521 0.78957 0.38396 -0.09100
C 	C 	0.04927 0.83990 0.40309 0.00000
C 	C 	0.06654 0.91490 0.40113 0.06000
C 	C 	0.05072 0.94033 0.37753 -0.02100
N 	N 	0.92434 0.76456 0.34917 -0.20000
H 	H 	0.98860 0.73136 0.38601 0.05400
C 	C 	0.08521 0.81606 0.42223 0.00300
N 	N 	0.09731 0.96211 0.42185 -0.17100
H 	H 	0.06908 0.99877 0.37493 0.05700
C 	C 	0.15661 0.85159 0.42158 -0.09800
C 	C 	0.19103 0.81878 0.43360 0.13200
C 	C 	0.15340 0.74575 0.44343 -0.10900
C 	C 	0.08305 0.71474 0.44749 -0.02300
C 	C 	0.04885 0.75097 0.43778 0.06000
H 	H 	0.18530 0.90354 0.41097 0.06300
N 	N 	0.26007 0.85703 0.43540 -0.20600
H 	H 	0.05462 0.66143 0.45716 0.03900
N 	N 	0.98180 0.72373 0.44357 -0.19400
H 	H 	0.28798 0.90952 0.42684 0.08900
H 	H 	0.28611 0.83680 0.44669 0.09800
H 	H 	0.95463 0.67448 0.45427 0.08600
H 	H 	0.95703 0.75309 0.43862 0.08700
H 	H 	0.11241 0.01800 0.41990 0.04900
H 	H 	0.10347 0.94307 0.44046 0.08900
H 	H 	0.89373 0.78148 0.33925 0.08800
H 	H 	0.90582 0.70797 0.35136 0.08000
C 	C 	0.36228 0.76230 0.50290 -0.11800
C 	C 	0.41667 0.76406 0.51764 0.13400
C 	C 	0.44888 0.81793 0.53760 -0.10500
C 	C 	0.43195 0.87359 0.54107 0.01400
C 	C 	0.37124 0.86447 0.52946 0.05700
C 	C 	0.33737 0.80940 0.51017 -0.01800
N 	N 	0.44032 0.71703 0.51194 -0.20600
H 	H 	0.49299 0.82229 0.54787 0.06000
C 	C 	0.48784 0.94887 0.54697 -0.03200
N 	N 	0.34710 0.91056 0.53586 -0.19100
H 	H 	0.29262 0.80451 0.50025 0.04600
C 	C 	0.53290 0.98842 0.52622 -0.02400
C 	C 	0.57662 0.06435 0.52829 0.06000
C 	C 	0.57487 0.10194 0.55184 -0.08000
C 	C 	0.53586 0.06067 0.57397 -0.09200
C 	C 	0.49254 0.98385 0.57182 0.12100
H 	H 	0.53164 0.96037 0.50773 0.05000
N 	N 	0.61962 0.10078 0.50756 -0.18900
H 	H 	0.53646 0.08865 0.59237 0.04900
N 	N 	0.45504 0.94455 0.59337 -0.20200
H 	H 	0.61837 0.07269 0.49003 0.06600
H 	H 	0.65597 0.15617 0.50878 0.05200
H 	H 	0.45738 0.97103 0.61145 0.09500
H 	H 	0.42451 0.88725 0.59256 0.09000
H 	H 	0.30404 0.90584 0.52626 0.08800
H 	H 	0.36936 0.94968 0.55105 0.09600
H 	H 	0.42120 0.68016 0.49595 0.10600
H 	H 	0.47975 0.71823 0.52326 0.08700
C 	C 	0.80843 0.46969 0.45711 -0.11200
C 	C 	0.87922 0.51138 0.46144 0.12500
C 	C 	0.92387 0.50968 0.44224 -0.09700
C 	C 	0.89814 0.46725 0.41892 0.00400
C 	C 	0.82901 0.43923 0.41219 0.05400
C 	C 	0.78466 0.44244 0.43127 -0.02000
N 	N 	0.90406 0.54800 0.48491 -0.20700
H 	H 	0.97770 0.53465 0.44674 0.06000
C 	C 	0.93923 0.43895 0.40578 0.00000
N 	N 	0.80482 0.40781 0.38787 -0.19200
H 	H 	0.73046 0.41544 0.42718 0.03800
C 	C 	0.93346 0.37289 0.41549 -0.09500
C 	C 	0.99226 0.36658 0.41820 0.12400
C 	C 	0.05599 0.42724 0.41132 -0.11200
C 	C 	0.05702 0.48099 0.39404 -0.02300
C 	C 	0.99870 0.48814 0.39158 0.05500
H 	H 	0.88556 0.33093 0.42400 0.05500
N 	N 	0.98811 0.30511 0.42934 -0.20700
H 	H 	0.10501 0.52388 0.38613 0.04200
N 	N 	0.00144 0.54514 0.37739 -0.18900
H 	H 	0.94114 0.26135 0.43552 0.07900
H 	H 	0.03144 0.29961 0.43116 0.09000
H 	H 	0.04671 0.58391 0.36808 0.08200
H 	H 	0.95803 0.55019 0.37495 0.08000
H 	H 	0.75313 0.38495 0.38332 0.07700
H 	H 	0.83754 0.40794 0.37300 0.08000
H 	H 	0.87174 0.55190 0.49903 0.09200
H 	H 	0.95632 0.57501 0.48885 0.08300
C 	C 	0.50813 0.29148 0.47621 -0.12200
C 	C 	0.50289 0.33744 0.45671 0.12700
C 	C 	0.44356 0.34310 0.45572 -0.09900
C 	C 	0.38947 0.30159 0.47346 0.00100
C 	C 	0.38887 0.24309 0.48800 0.05300
C 	C 	0.44848 0.23786 0.48894 -0.02000
N 	N 	0.55621 0.37964 0.44020 -0.20700
H 	H 	0.44180 0.38403 0.44284 0.05700
C 	C 	0.34308 0.32982 0.48084 0.00000
N 	N 	0.33236 0.19355 0.50163 -0.19300
H 	H 	0.45084 0.19800 0.50223 0.04000
C 	C 	0.28114 0.30341 0.46723 -0.10000
C 	C 	0.24556 0.34262 0.46821 0.12400
C 	C 	0.27585 0.41235 0.48074 -0.11600
C 	C 	0.33183 0.43276 0.49765 -0.01900
C 	C 	0.36544 0.39140 0.49810 0.06000
H 	H 	0.26165 0.25369 0.45529 0.04900
N 	N 	0.18297 0.31378 0.45684 -0.20800
H 	H 	0.35275 0.48411 0.50869 0.04100
N 	N 	0.41998 0.41207 0.51449 -0.19200
H 	H 	0.16241 0.26437 0.44613 0.07900
H 	H 	0.15254 0.33770 0.46009 0.10200
H 	H 	0.43724 0.45868 0.52664 0.08500
H 	H 	0.44437 0.38090 0.51597 0.09300
H 	H 	0.33285 0.15146 0.51284 0.07300
H 	H 	0.28698 0.19514 0.50063 0.07900
H 	H 	0.59995 0.37461 0.44018 0.09600
H 	H 	0.55342 0.41617 0.42658 0.08200
C 	C 	0.82731 0.25906 0.56275 -0.11000
C 	C 	0.89404 0.30602 0.57228 0.12700
C 	C 	0.92281 0.27877 0.59088 -0.09900
C 	C 	0.88662 0.20508 0.59942 0.00000
C 	C 	0.82389 0.15589 0.58710 0.05500
C 	C 	0.79492 0.18342 0.56871 -0.02300
N 	N 	0.93050 0.37710 0.56368 -0.20300
H 	H 	0.97235 0.31562 0.59944 0.05600
C 	C 	0.91015 0.18283 0.62360 0.00000
N 	N 	0.79080 0.08270 0.59316 -0.19200
H 	H 	0.74485 0.14675 0.56051 0.04600
C 	C 	0.88894 0.19291 0.64893 -0.09900
C 	C 	0.91424 0.17821 0.67246 0.12700
C 	C 	0.95920 0.14947 0.67048 -0.11100
C 	C 	0.97924 0.13785 0.64512 -0.03100
C 	C 	0.95558 0.15480 0.62160 0.05500
H 	H 	0.85417 0.21448 0.65034 0.05500
N 	N 	0.89682 0.19390 0.69675 -0.20500
H 	H 	0.01368 0.11586 0.64368 0.03300
N 	N 	0.97635 0.14368 0.59725 -0.19500
H 	H 	0.86207 0.21306 0.69797 0.08200
H 	H 	0.91911 0.18981 0.71452 0.10200
H 	H 	0.01029 0.12345 0.59600 0.07700
H 	H 	0.95879 0.15441 0.57937 0.08200
H 	H 	0.74350 0.04713 0.58457 0.07400
H 	H 	0.81238 0.06008 0.60586 0.08000
H 	H 	0.91243 0.39699 0.54835 0.09200
H 	H 	0.97875 0.41244 0.57158 0.08300
C 	C 	0.52057 0.36991 0.58352 -0.11900
C 	C 	0.52204 0.40103 0.60888 0.12900
C 	C 	0.46180 0.37295 0.62403 -0.10000
C 	C 	0.40086 0.31450 0.61418 0.00100
C 	C 	0.39759 0.29171 0.58725 0.05700
C 	C 	0.45783 0.31956 0.57215 -0.02000
N 	N 	0.58123 0.45622 0.61906 -0.20700
H 	H 	0.46331 0.39311 0.64421 0.05700
C 	C 	0.34544 0.26963 0.63333 0.00100
N 	N 	0.33729 0.24172 0.57610 -0.19200
H 	H 	0.45649 0.29822 0.55218 0.04400
C 	C 	0.29180 0.28438 0.63661 -0.09900
C 	C 	0.23745 0.24129 0.65403 0.12300
C 	C 	0.24066 0.18792 0.67058 -0.11000
C 	C 	0.29424 0.17299 0.66724 -0.02300
C 	C 	0.34611 0.21238 0.64842 0.05600
H 	H 	0.29082 0.32731 0.62466 0.05500
N 	N 	0.18093 0.24843 0.65369 -0.20600
H 	H 	0.29631 0.13148 0.67969 0.04000
N 	N 	0.39643 0.19524 0.64503 -0.19200
H 	H 	0.18039 0.29085 0.64272 0.08600
H 	H 	0.13548 0.20846 0.66236 0.09500
H 	H 	0.39687 0.15358 0.65654 0.07600
H 	H 	0.43495 0.22206 0.63076 0.08800
H 	H 	0.33565 0.22368 0.55643 0.08100
H 	H 	0.29136 0.22196 0.58651 0.08300
H 	H 	0.62620 0.48035 0.60781 0.10200
H 	H 	0.58229 0.47715 0.63821 0.08500
C 	C 	0.82295 0.57448 0.58207 -0.10700
C 	C 	0.80468 0.62936 0.58700 0.12800
C 	C 	0.84874 0.69218 0.60178 -0.09800
C 	C 	0.90978 0.70071 0.61213 0.00100
C 	C 	0.92982 0.64804 0.60599 0.05800
C 	C 	0.88565 0.58479 0.59127 -0.02500
N 	N 	0.74438 0.62133 0.57822 -0.20500
H 	H 	0.83401 0.73316 0.60627 0.06000
C 	C 	0.94664 0.75866 0.63250 0.00100
N 	N 	0.99142 0.65818 0.61393 -0.19400
H 	H 	0.90007 0.54342 0.58706 0.03900
C 	C 	0.93692 0.73858 0.65968 -0.09800
C 	C 	0.95573 0.79215 0.67976 0.13000
C 	C 	0.98780 0.86777 0.67243 -0.10600
C 	C 	0.00121 0.88811 0.64532 -0.02000
C 	C 	0.98170 0.83420 0.62524 0.06000
H 	H 	0.91080 0.68064 0.66516 0.05700
N 	N 	0.94071 0.77044 0.70584 -0.20600
H 	H 	0.02691 0.94602 0.63981 0.04700
N 	N 	0.99722 0.85519 0.59914 -0.19200
H 	H 	0.91957 0.71484 0.71107 0.08600
H 	H 	0.94738 0.80766 0.72103 0.11000
H 	H 	0.02122 0.91096 0.59381 0.09000
H 	H 	0.98770 0.81667 0.58404 0.08900
H 	H 	0.00508 0.61807 0.61000 0.08300
H 	H 	0.02712 0.70685 0.62327 0.08900
H 	H 	0.70965 0.57500 0.56755 0.09600
H 	H 	0.73146 0.66203 0.58214 0.08600
C 	C 	0.11518 0.60825 0.06584 -0.11200
C 	C 	0.08449 0.61315 0.04179 0.12800
C 	C 	0.01398 0.56782 0.03840 -0.08800
C 	C 	0.97435 0.51738 0.05846 -0.00700
C 	C 	0.00354 0.52001 0.08379 0.06400
C 	C 	0.07373 0.56710 0.08742 -0.02400
N 	N 	0.12257 0.65946 0.02165 -0.20600
H 	H 	0.99065 0.56833 0.01945 0.05200
C 	C 	0.90678 0.45525 0.05117 0.00400
N 	N 	0.96487 0.47668 0.10444 -0.19500
H 	H 	0.09699 0.56698 0.10641 0.04500
C 	C 	0.90336 0.39345 0.03863 -0.10200
C 	C 	0.84657 0.34663 0.02303 0.12900
C 	C 	0.79396 0.36370 0.01938 -0.12300
C 	C 	0.79182 0.41678 0.03599 -0.02000
C 	C 	0.84826 0.46318 0.05186 0.05300
H 	H 	0.94659 0.38442 0.03967 0.05700
N 	N 	0.84308 0.28611 0.01134 -0.20400
H 	H 	0.74876 0.42606 0.03491 0.04800
N 	N 	0.84620 0.51528 0.06750 -0.19200
H 	H 	0.88335 0.27529 0.01318 0.08100
H 	H 	0.79917 0.24777 0.00128 0.09400
H 	H 	0.80231 0.51994 0.06823 0.07800
H 	H 	0.88693 0.54939 0.07991 0.08500
H 	H 	0.98724 0.47735 0.12286 0.07500
H 	H 	0.91216 0.44333 0.10263 0.08200
H 	H 	0.17452 0.69625 0.02405 0.10400
H 	H 	0.09984 0.66068 0.00355 0.08600
C 	C 	0.57135 0.10581 0.93205 -0.12000
C 	C 	0.59897 0.05839 0.93005 0.09200
C 	C 	0.56407 0.98795 0.94183 -0.06600
C 	C 	0.50295 0.96520 0.95593 0.04700
C 	C 	0.47230 0.01030 0.95561 -0.01900
C 	C 	0.50546 0.07858 0.94233 -0.00300
N 	N 	0.65935 0.08063 0.91730 -0.20200
H 	H 	0.58618 0.95226 0.94117 0.05700
C 	C 	0.47648 0.89932 0.97356 -0.01100
N 	N 	0.41302 0.99018 0.96901 -0.14300
H 	H 	0.48310 0.11408 0.94264 0.03000
C 	C 	0.51144 0.90353 0.99731 -0.08900
C 	C 	0.48148 0.84786 0.01683 0.12600
C 	C 	0.41311 0.79143 0.01365 -0.10400
C 	C 	0.38116 0.78276 0.98868 -0.02700
C 	C 	0.41367 0.83501 0.96815 0.06600
H 	H 	0.56168 0.95047 0.00071 0.06200
N 	N 	0.51923 0.84703 0.03789 -0.20200
H 	H 	0.33018 0.73695 0.98552 0.04800
N 	N 	0.38366 0.82429 0.94369 -0.19300
H 	H 	0.56907 0.89013 0.04061 0.08500
H 	H 	0.50096 0.80146 0.05070 0.08700
H 	H 	0.33598 0.77810 0.94018 0.08500
H 	H 	0.40838 0.86028 0.92770 0.09300
H 	H 	0.39008 0.02296 0.96792 0.05200
H 	H 	0.39031 0.94365 0.98133 0.09100
H 	H 	0.68432 0.13101 0.90710 0.09400
H 	H 	0.68090 0.04645 0.91676 0.07200
C 	C 	0.48594 0.59138 0.06684 -0.11100
C 	C 	0.49243 0.52807 0.06273 0.12900
C 	C 	0.55123 0.53579 0.05019 -0.09800
C 	C 	0.60208 0.60485 0.04090 0.00200
C 	C 	0.59871 0.66875 0.04742 0.05800
C 	C 	0.54076 0.66139 0.06063 -0.02100
N 	N 	0.44174 0.45972 0.06994 -0.20600
H 	H 	0.55536 0.48719 0.04603 0.05700
C 	C 	0.65163 0.60745 0.02095 0.00100
N 	N 	0.65051 0.73701 0.04089 -0.19200
H 	H 	0.53681 0.71005 0.06486 0.03600
C 	C 	0.63358 0.59888 0.99375 -0.09600
C 	C 	0.66053 0.56765 0.97606 0.12800
C 	C 	0.70444 0.54335 0.98612 -0.10700
C 	C 	0.73319 0.56662 0.01168 -0.02300
C 	C 	0.70721 0.59931 0.02922 0.05800
H 	H 	0.59452 0.61073 0.98688 0.05900
N 	N 	0.64268 0.55905 0.94972 -0.20300
H 	H 	0.77166 0.55401 0.01868 0.04500
N 	N 	0.73489 0.62169 0.05398 -0.19300
H 	H 	0.60781 0.57408 0.94259 0.08500
H 	H 	0.66525 0.53990 0.93596 0.09000
H 	H 	0.77644 0.61624 0.05995 0.08000
H 	H 	0.71743 0.64794 0.06699 0.08600
H 	H 	0.64675 0.78389 0.04506 0.08300
H 	H 	0.69566 0.74431 0.03232 0.08800
H 	H 	0.39742 0.45182 0.07941 0.10100
H 	H 	0.44669 0.41331 0.06633 0.08100
C 	C 	0.87296 0.31535 0.89702 -0.12000
C 	C 	0.91356 0.35389 0.87440 0.12700
C 	C 	0.94124 0.32010 0.85833 -0.09900
C 	C 	0.92436 0.24682 0.86300 -0.00000
C 	C 	0.88886 0.21070 0.88674 0.05300
C 	C 	0.86547 0.24655 0.90397 -0.01900
N 	N 	0.92370 0.42155 0.86730 -0.20700
H 	H 	0.97115 0.34870 0.84074 0.05700
C 	C 	0.93585 0.20595 0.84126 0.00500
N 	N 	0.87519 0.14103 0.89266 -0.19200
H 	H 	0.83643 0.21817 0.92176 0.04100
C 	C 	0.99190 0.19461 0.84278 -0.11200
C 	C 	0.00692 0.16081 0.82157 0.13700
C 	C 	0.96955 0.14530 0.79741 -0.12400
C 	C 	0.91315 0.15591 0.79593 -0.01600
C 	C 	0.89444 0.18374 0.81799 0.05200
H 	H 	0.02292 0.21059 0.86076 0.05900
N 	N 	0.05580 0.14163 0.82476 -0.20700
H 	H 	0.88347 0.14208 0.77761 0.03600
N 	N 	0.83665 0.18860 0.81681 -0.19100
H 	H 	0.08553 0.15656 0.84213 0.08300
H 	H 	0.06173 0.10785 0.81089 0.09700
H 	H 	0.80773 0.17449 0.79923 0.07700
H 	H 	0.81850 0.20373 0.83352 0.08400
H 	H 	0.84766 0.11434 0.90996 0.07400
H 	H 	0.89198 0.11285 0.88036 0.07900
H 	H 	0.90068 0.44662 0.87763 0.10300
H 	H 	0.95423 0.44944 0.85075 0.08600
C 	C 	0.49753 0.29259 0.89169 -0.10800
C 	C 	0.47751 0.34377 0.88333 0.12400
C 	C 	0.42371 0.32156 0.86497 -0.09800
C 	C 	0.39018 0.24949 0.85477 -0.00100
C 	C 	0.40930 0.19784 0.86369 0.05700
C 	C 	0.46140 0.21949 0.88273 -0.02500
N 	N 	0.50911 0.41383 0.89302 -0.20400
H 	H 	0.40844 0.36072 0.85835 0.05600
C 	C 	0.33726 0.22976 0.83387 0.00200
N 	N 	0.37914 0.12817 0.85362 -0.19200
H 	H 	0.47646 0.18023 0.88947 0.04600
C 	C 	0.35763 0.25464 0.80750 -0.10100
C 	C 	0.30967 0.23171 0.78667 0.13100
C 	C 	0.24048 0.18005 0.79222 -0.11800
C 	C 	0.22004 0.15593 0.81865 -0.02100
C 	C 	0.26732 0.18274 0.83974 0.05400
H 	H 	0.41106 0.29182 0.80315 0.05600
N 	N 	0.33022 0.26010 0.76157 -0.20600
H 	H 	0.16753 0.11515 0.82279 0.03400
N 	N 	0.24542 0.16275 0.86546 -0.19200
H 	H 	0.38174 0.29618 0.75751 0.08500
H 	H 	0.29533 0.24901 0.74614 0.10400
H 	H 	0.19397 0.12634 0.86952 0.07500
H 	H 	0.27864 0.18487 0.88169 0.08400
H 	H 	0.39260 0.09010 0.86082 0.07600
H 	H 	0.34347 0.11151 0.83817 0.08400
H 	H 	0.54670 0.43077 0.90775 0.09000
H 	H 	0.49500 0.45179 0.88631 0.08400
C 	C 	0.83363 0.55278 0.87316 -0.10900
C 	C 	0.90295 0.60684 0.87721 0.12700
C 	C 	0.93269 0.67034 0.86110 -0.09800
C 	C 	0.89591 0.67935 0.84031 0.00100
C 	C 	0.82774 0.62389 0.83539 0.05900
C 	C 	0.79723 0.56111 0.85197 -0.02400
N 	N 	0.94169 0.59725 0.89594 -0.20400
H 	H 	0.98525 0.71242 0.86444 0.05800
C 	C 	0.93027 0.74609 0.82326 0.00200
N 	N 	0.79125 0.63080 0.81502 -0.19200
H 	H 	0.74452 0.51936 0.84871 0.04200
C 	C 	0.96861 0.74599 0.80115 -0.10000
C 	C 	0.00135 0.80789 0.78431 0.13200
C 	C 	0.99400 0.87024 0.78939 -0.11400
C 	C 	0.95851 0.87175 0.81225 -0.01900
C 	C 	0.92654 0.81022 0.82934 0.06100
H 	H 	0.97287 0.69747 0.79701 0.05600
N 	N 	0.03968 0.80713 0.76336 -0.20500
H 	H 	0.95367 0.92001 0.81623 0.05100
N 	N 	0.89172 0.81272 0.85126 -0.19200
H 	H 	0.04247 0.75972 0.75908 0.08600
H 	H 	0.06870 0.85405 0.75166 0.09300
H 	H 	0.88890 0.86015 0.85545 0.09000
H 	H 	0.86743 0.76803 0.86441 0.09100
H 	H 	0.74092 0.58964 0.81162 0.08300
H 	H 	0.81224 0.67678 0.80236 0.08900
H 	H 	0.92417 0.54743 0.90613 0.08900
H 	H 	0.99170 0.63897 0.89951 0.08400
