data_crystal

_cell_length_a 45.45168
_cell_length_b 45.22281
_cell_length_c 25.69824
_cell_angle_alpha 94.24388
_cell_angle_beta  93.79152
_cell_angle_gamma 90.07812

_symmetry_space_group_name_	'P 1'
_symmetry_space_group_name_H-M	'P 1'

loop_
_symmetry_equiv_pos_as_xyz
  x,y,z

loop_
_atom_site_label
_atom_site_type_symbol
_atom_site_fract_x
_atom_site_fract_y
_atom_site_fract_z
_atom_site_charge
C 	C 	0.89029 0.67013 0.88483 0.23500
N 	N 	0.88997 0.67495 0.83314 -0.11700
C 	C 	0.89512 0.65227 0.79736 0.14700
N 	N 	0.90219 0.62515 0.81349 -0.14300
C 	C 	0.90251 0.62018 0.86492 0.14600
N 	N 	0.89573 0.64246 0.90042 -0.12000
C 	C 	0.89398 0.64490 0.32200 0.23200
N 	N 	0.89280 0.65231 0.37409 -0.12000
C 	C 	0.89372 0.63092 0.40848 0.14600
N 	N 	0.89747 0.60223 0.39112 -0.14300
C 	C 	0.90082 0.59483 0.33968 0.14500
N 	N 	0.89900 0.61622 0.30505 -0.11900
Cd	Cd	0.87379 0.09116 0.86251 1.20300
O 	O 	0.88503 0.04904 0.81646 -0.38300
C 	C 	0.87277 0.13052 0.76107 0.34600
O 	O 	0.86578 0.12672 0.71080 -0.23800
O 	O 	0.85825 0.11424 0.78999 -0.53000
O 	O 	0.89037 0.10835 0.39713 -0.41300
C 	C 	0.90749 0.12317 0.43266 0.35300
O 	O 	0.90370 0.11778 0.48098 -0.33100
Cd	Cd	0.03930 0.10733 0.23692 1.25000
Cd	Cd	0.05096 0.07881 0.36111 1.20800
O 	O 	0.06787 0.15121 0.21867 -0.27900
O 	O 	0.03673 0.12926 0.15962 -0.30300
C 	C 	0.05347 0.15233 0.17346 0.37800
O 	O 	0.01402 0.06443 0.22871 -0.34600
O 	O 	0.00893 0.06314 0.31671 -0.38100
C 	C 	0.00639 0.05015 0.26892 0.32300
O 	O 	0.03487 0.12480 0.33683 -0.39400
C 	C 	0.00783 0.13236 0.32367 0.33500
O 	O 	0.00015 0.13063 0.27380 -0.32800
Cd	Cd	0.02343 0.13830 0.96202 1.24900
Cd	Cd	0.01486 0.09848 0.83737 1.18700
O 	O 	0.04470 0.18845 0.96693 -0.28600
O 	O 	0.02537 0.17098 0.03430 -0.29800
C 	C 	0.03721 0.19355 0.01463 0.39100
O 	O 	0.99732 0.09787 0.97591 -0.35400
O 	O 	0.01246 0.06957 0.90466 -0.38700
C 	C 	0.99522 0.07349 0.94392 0.32900
C 	C 	0.97546 0.15252 0.89110 0.33500
O 	O 	0.97192 0.16374 0.93848 -0.21900
O 	O 	0.00087 0.14029 0.88409 -0.52300
C 	C 	0.98069 0.36499 0.85986 0.23500
N 	N 	0.97218 0.39327 0.87234 -0.12200
C 	C 	0.95970 0.40975 0.83476 0.14500
N 	N 	0.95781 0.39872 0.78405 -0.14300
C 	C 	0.96709 0.37079 0.77109 0.14600
N 	N 	0.97804 0.35378 0.80916 -0.12000
C 	C 	0.99646 0.34390 0.30150 0.23800
N 	N 	0.99682 0.34012 0.35356 -0.11900
C 	C 	0.98701 0.36191 0.38714 0.14700
N 	N 	0.97601 0.38721 0.36851 -0.14300
C 	C 	0.97535 0.39108 0.31655 0.14600
N 	N 	0.98526 0.36926 0.28295 -0.11800
Cd	Cd	0.06163 0.95370 0.73951 1.25200
Cd	Cd	0.03416 0.96297 0.86651 1.19700
O 	O 	0.10132 0.91760 0.72585 -0.28200
O 	O 	0.08262 0.94270 0.66221 -0.29900
C 	C 	0.10350 0.92521 0.67848 0.38200
O 	O 	0.02197 0.98230 0.72756 -0.32500
O 	O 	0.02093 0.99879 0.81387 -0.40900
C 	C 	0.00741 0.99358 0.76716 0.32100
C 	C 	0.02171 0.91117 0.77148 0.34400
O 	O 	0.08058 0.96993 0.83669 -0.42800
O 	O 	0.02402 0.90777 0.72089 -0.23700
O 	O 	0.04012 0.92968 0.79694 -0.53000
C 	C 	0.09082 0.99405 0.81936 0.34000
O 	O 	0.08950 0.99488 0.76865 -0.28400
Cd	Cd	0.09633 0.94080 0.46633 1.25100
O 	O 	0.14602 0.91957 0.47297 -0.27500
O 	O 	0.12853 0.94615 0.53855 -0.29000
C 	C 	0.15099 0.93210 0.51985 0.37700
O 	O 	0.05625 0.96873 0.47801 -0.32500
C 	C 	0.03212 0.96768 0.44600 0.33400
C 	C 	0.11125 0.98123 0.39192 0.33700
O 	O 	0.12224 0.98962 0.43886 -0.21000
O 	O 	0.09886 0.95518 0.38689 -0.51900
C 	C 	0.30175 0.95520 0.80493 0.23400
N 	N 	0.32863 0.95979 0.78646 -0.12000
C 	C 	0.35156 0.96972 0.81983 0.14500
N 	N 	0.34824 0.97281 0.87204 -0.14200
C 	C 	0.32178 0.96717 0.89084 0.14300
N 	N 	0.29828 0.95953 0.85712 -0.12200
C 	C 	0.32611 0.97854 0.36913 0.23500
N 	N 	0.35403 0.98724 0.38559 -0.11900
C 	C 	0.37357 0.99371 0.35031 0.14400
N 	N 	0.36537 0.99110 0.29844 -0.14200
C 	C 	0.33778 0.98162 0.28166 0.14600
N 	N 	0.31798 0.97597 0.31704 -0.11800
C 	C 	0.31868 0.96946 0.94786 -0.03600
C 	C 	0.30887 0.94506 0.97391 0.11400
C 	C 	0.30679 0.94812 0.02833 -0.07100
C 	C 	0.31692 0.97394 0.05769 -0.00400
C 	C 	0.32703 0.99822 0.03176 0.09000
C 	C 	0.32712 0.99593 0.97696 -0.05800
N 	N 	0.30285 0.91829 0.94753 -0.19500
H 	H 	0.29905 0.92960 0.04832 0.07600
C 	C 	0.32016 0.97383 0.11551 0.00100
N 	N 	0.33700 0.02359 0.05913 -0.19500
H 	H 	0.33450 0.01462 0.95698 0.06500
C 	C 	0.34364 0.95820 0.13839 -0.08100
C 	C 	0.34791 0.95806 0.19292 0.11500
C 	C 	0.32990 0.97599 0.22512 -0.03400
C 	C 	0.30561 0.99058 0.20239 -0.04500
C 	C 	0.30013 0.98910 0.14775 0.08700
H 	H 	0.35831 0.94563 0.11362 0.06700
N 	N 	0.36853 0.93989 0.21408 -0.19700
H 	H 	0.29127 0.00358 0.22716 0.07800
N 	N 	0.27590 0.00258 0.12661 -0.19300
H 	H 	0.38290 0.92805 0.19029 0.10400
H 	H 	0.36918 0.93583 0.25360 0.11100
H 	H 	0.26162 0.01435 0.15067 0.11700
H 	H 	0.27067 0.00104 0.08633 0.11400
H 	H 	0.34435 0.04137 0.03956 0.10500
H 	H 	0.33773 0.02594 0.09988 0.10300
H 	H 	0.30856 0.91371 0.90912 0.13900
H 	H 	0.29402 0.90101 0.96656 0.12500
C 	C 	0.28531 0.97922 0.49345 0.24700
C 	C 	0.26289 0.95829 0.47872 -0.01100
C 	C 	0.26216 0.94301 0.42897 0.23600
C 	C 	0.28342 0.94877 0.39415 0.28600
C 	C 	0.30492 0.97095 0.40760 -0.15200
C 	C 	0.30586 0.98601 0.45777 0.28500
C 	C 	0.23856 0.95424 0.51313 0.01200
F 	F 	0.24033 0.92304 0.41391 -0.34500
F 	F 	0.32611 0.00779 0.47140 -0.37500
C 	C 	0.21823 0.97720 0.52164 0.24700
C 	C 	0.18987 0.97057 0.53564 0.32400
C 	C 	0.18128 0.94086 0.53790 -0.19700
C 	C 	0.20312 0.91893 0.53915 0.31600
C 	C 	0.23189 0.92574 0.52758 0.25200
F 	F 	0.22493 0.00533 0.51125 -0.32100
F 	F 	0.19561 0.89036 0.54499 -0.34900
F 	F 	0.16964 0.99253 0.53988 -0.34300
F 	F 	0.25240 0.90398 0.52490 -0.32900
F 	F 	0.28679 0.99346 0.54197 -0.31800
F 	F 	0.28320 0.93266 0.34738 -0.37500
C 	C 	0.24673 0.95030 0.68704 0.25000
C 	C 	0.22410 0.93341 0.70528 -0.01100
C 	C 	0.22851 0.92111 0.75386 0.23700
C 	C 	0.25470 0.92662 0.78471 0.28700
C 	C 	0.27631 0.94560 0.76853 -0.15300
C 	C 	0.27250 0.95681 0.71881 0.29000
C 	C 	0.19456 0.93165 0.67703 -0.00700
F 	F 	0.20684 0.90483 0.77218 -0.34500
F 	F 	0.29315 0.97501 0.70219 -0.36700
C 	C 	0.18115 0.90389 0.66321 0.24400
C 	C 	0.15044 0.90176 0.65453 0.31600
C 	C 	0.13312 0.92739 0.65919 -0.19800
C 	C 	0.14710 0.95531 0.66275 0.31200
C 	C 	0.17765 0.95747 0.67293 0.22700
F 	F 	0.19762 0.87886 0.66223 -0.31700
F 	F 	0.13075 0.98041 0.66275 -0.35600
F 	F 	0.13735 0.87466 0.64676 -0.35900
F 	F 	0.19043 0.98460 0.68344 -0.32500
F 	F 	0.24319 0.96152 0.63952 -0.33800
F 	F 	0.25889 0.91382 0.83077 -0.38400
C 	C 	0.96850 0.36031 0.71544 -0.03500
C 	C 	0.94439 0.36417 0.67882 0.11200
C 	C 	0.94876 0.36116 0.62510 -0.08000
C 	C 	0.97615 0.35225 0.60742 -0.00300
C 	C 	0.99922 0.34503 0.64397 0.09100
C 	C 	0.99533 0.34963 0.69773 -0.04700
N 	N 	0.91693 0.36991 0.69492 -0.19800
H 	H 	0.93079 0.36570 0.59696 0.06600
C 	C 	0.98113 0.35291 0.55105 -0.00200
N 	N 	0.02506 0.33368 0.62773 -0.19500
H 	H 	0.01354 0.34574 0.72579 0.09200
C 	C 	0.99698 0.37669 0.53437 -0.07600
C 	C 	0.00113 0.37876 0.48111 0.11000
C 	C 	0.98741 0.35772 0.44362 -0.03300
C 	C 	0.97225 0.33347 0.46036 -0.04500
C 	C 	0.96938 0.33057 0.51387 0.08800
H 	H 	0.00651 0.39341 0.56304 0.06400
N 	N 	0.01899 0.40039 0.46642 -0.19700
H 	H 	0.96229 0.31702 0.43166 0.07800
N 	N 	0.95557 0.30628 0.52920 -0.19400
H 	H 	0.02794 0.41663 0.49406 0.10400
H 	H 	0.02545 0.40041 0.42818 0.11400
H 	H 	0.94638 0.29026 0.50142 0.11800
H 	H 	0.95448 0.30263 0.56867 0.11200
H 	H 	0.04231 0.32925 0.65495 0.12100
H 	H 	0.02794 0.32823 0.58822 0.11400
H 	H 	0.91222 0.36858 0.73390 0.11300
H 	H 	0.89954 0.37412 0.66783 0.10600
C 	C 	0.08074 0.05091 0.93048 0.35100
C 	C 	0.08482 0.02323 0.90414 -0.08000
C 	C 	0.09540 0.02141 0.85390 -0.13400
C 	C 	0.10637 0.04715 0.83422 0.35000
F 	F 	0.12011 0.04549 0.78877 -0.39300
H 	H 	0.07801 0.00339 0.92137 0.07100
F 	F 	0.06856 0.05248 0.97742 -0.40400
C 	C 	0.99110 0.32895 0.98839 0.24100
C 	C 	0.01111 0.30638 0.97547 -0.01800
C 	C 	0.02328 0.30507 0.92644 0.23500
C 	C 	0.01469 0.32537 0.89004 0.28500
C 	C 	0.99281 0.34642 0.90120 -0.15400
C 	C 	0.98153 0.34855 0.95116 0.28700
C 	C 	0.01662 0.28201 0.01019 0.01200
F 	F 	0.04261 0.28333 0.91332 -0.34800
F 	F 	0.96051 0.36880 0.96295 -0.38300
C 	C 	0.99385 0.26180 0.01659 0.25100
C 	C 	0.00073 0.23307 0.02992 0.31700
C 	C 	0.03028 0.22398 0.03341 -0.20700
C 	C 	0.05266 0.24560 0.03665 0.32000
C 	C 	0.04572 0.27481 0.02624 0.24400
F 	F 	0.96532 0.26901 0.00484 -0.31600
F 	F 	0.08133 0.23759 0.04391 -0.34300
F 	F 	0.97870 0.21300 0.03227 -0.34500
F 	F 	0.06765 0.29517 0.02569 -0.32500
F 	F 	0.98014 0.33123 0.03640 -0.31100
F 	F 	0.02743 0.32437 0.84360 -0.38100
C 	C 	0.09278 0.99575 0.30344 -0.08000
C 	C 	0.11198 0.00079 0.34835 -0.16000
C 	C 	0.12986 0.02645 0.35379 0.34700
C 	C 	0.12512 0.04872 0.31937 -0.10700
C 	C 	0.10304 0.04533 0.27871 -0.14900
C 	C 	0.08866 0.01783 0.26830 0.31200
F 	F 	0.06919 0.01328 0.22616 -0.44600
H 	H 	0.08025 0.97534 0.29672 -0.01400
F 	F 	0.15107 0.03030 0.39349 -0.39500
C 	C 	0.00493 0.29028 0.18278 0.24400
C 	C 	0.02632 0.27092 0.20267 -0.01200
C 	C 	0.04025 0.27770 0.25263 0.23600
C 	C 	0.03197 0.30276 0.28320 0.28700
C 	C 	0.00855 0.32055 0.26543 -0.15600
C 	C 	0.99561 0.31463 0.21433 0.29500
C 	C 	0.03156 0.24182 0.17438 -0.01000
F 	F 	0.06100 0.25927 0.27245 -0.34400
F 	F 	0.97326 0.33170 0.19597 -0.35700
C 	C 	0.06038 0.23336 0.16339 0.23700
C 	C 	0.06716 0.20330 0.15417 0.31800
C 	C 	0.04514 0.18161 0.15578 -0.19700
C 	C 	0.01554 0.19058 0.15703 0.31000
C 	C 	0.00882 0.22052 0.16744 0.22700
F 	F 	0.08214 0.25408 0.16517 -0.31800
F 	F 	0.99356 0.17004 0.15392 -0.36900
F 	F 	0.09554 0.19510 0.14841 -0.35200
F 	F 	0.98057 0.22846 0.17533 -0.32900
F 	F 	0.99231 0.28480 0.13367 -0.32400
F 	F 	0.04647 0.30953 0.33050 -0.37600
H 	H 	0.47719 0.06932 0.32518 0.06600
C 	C 	0.46134 0.02626 0.38454 -0.00100
C 	C 	0.42818 0.98547 0.35325 0.11100
C 	C 	0.40385 0.00286 0.36808 -0.03500
C 	C 	0.40867 0.03065 0.39528 -0.04600
C 	C 	0.43733 0.04238 0.40440 0.08600
H 	H 	0.39002 0.04352 0.40816 0.08300
N 	N 	0.44165 0.06896 0.43231 -0.19400
H 	H 	0.40399 0.94624 0.33269 0.10900
H 	H 	0.42371 0.08112 0.44551 0.11400
H 	H 	0.46282 0.07734 0.44262 0.10900
C 	C 	0.50063 0.04766 0.83390 0.11000
C 	C 	0.47250 0.03469 0.82611 -0.08000
C 	C 	0.46691 0.01109 0.78822 -0.00300
N 	N 	0.50484 0.07250 0.86674 -0.19700
H 	H 	0.45488 0.04302 0.84953 0.06400
C 	C 	0.43776 0.99607 0.78488 0.00000
C 	C 	0.41322 0.01066 0.76315 -0.08200
C 	C 	0.38447 0.00152 0.77152 0.12600
C 	C 	0.38035 0.97628 0.79992 -0.04000
C 	C 	0.40488 0.95981 0.81647 -0.04500
C 	C 	0.43362 0.96976 0.81028 0.08100
H 	H 	0.41650 0.03036 0.74255 0.07400
N 	N 	0.36111 0.01765 0.75379 -0.19900
H 	H 	0.40164 0.94005 0.83696 0.06400
N 	N 	0.45703 0.95438 0.82991 -0.19400
H 	H 	0.36448 0.03617 0.73282 0.12700
H 	H 	0.33950 0.01227 0.76089 0.14800
H 	H 	0.45368 0.93517 0.84904 0.10300
H 	H 	0.47869 0.96114 0.82625 0.10300
H 	H 	0.52426 0.08494 0.86775 0.10600
H 	H 	0.48788 0.08066 0.88923 0.10000
C 	C 	0.96219 0.12411 0.43828 -0.08400
C 	C 	0.93541 0.13561 0.41837 -0.13900
C 	C 	0.93538 0.15329 0.37580 0.34200
C 	C 	0.96069 0.15531 0.34830 -0.08500
C 	C 	0.98599 0.13924 0.36264 -0.12600
C 	C 	0.98737 0.12543 0.41003 0.34600
F 	F 	0.01228 0.11146 0.42668 -0.50100
H 	H 	0.96281 0.11173 0.47285 0.10800
H 	H 	0.95994 0.16753 0.31352 0.13000
F 	F 	0.91014 0.16646 0.35848 -0.41600
C 	C 	0.98564 0.03508 0.47649 -0.08200
C 	C 	0.00656 0.98616 0.45966 -0.12000
F 	F 	0.03776 0.02872 0.48042 -0.44700
H 	H 	0.98879 0.05878 0.48438 0.11300
C 	C 	0.94099 0.03805 0.72441 -0.09900
C 	C 	0.92033 0.02871 0.75818 -0.12100
C 	C 	0.95521 0.99223 0.78904 -0.09600
C 	C 	0.96918 0.02536 0.72473 0.33600
F 	F 	0.98958 0.03578 0.69430 -0.43100
H 	H 	0.93566 0.05579 0.69943 0.13400
C 	C 	0.90107 0.16562 0.82330 -0.10900
C 	C 	0.90092 0.14396 0.78144 -0.15000
C 	C 	0.92741 0.12999 0.76915 0.31000
C 	C 	0.95261 0.13421 0.80323 -0.08000
C 	C 	0.95163 0.15303 0.84908 -0.16500
C 	C 	0.92637 0.17042 0.85674 0.34500
F 	F 	0.92600 0.19127 0.89752 -0.39800
H 	H 	0.88099 0.17735 0.83193 0.10800
H 	H 	0.97244 0.12208 0.79487 -0.01300
F 	F 	0.92817 0.11084 0.72610 -0.44800
F 	F 	0.68581 0.13223 0.66260 -0.32700
F 	F 	0.74453 0.14206 0.65091 -0.34500
C 	C 	0.91110 0.56471 0.32341 -0.03800
C 	C 	0.93326 0.55188 0.35496 -0.04400
H 	H 	0.90046 0.50737 0.22934 0.07400
C 	C 	0.93743 0.47461 0.28722 0.00200
N 	N 	0.96125 0.50976 0.37854 -0.19300
H 	H 	0.94327 0.56464 0.38899 0.06200
C 	C 	0.97763 0.43969 0.27464 0.12100
C 	C 	0.96110 0.41762 0.29651 -0.03500
C 	C 	0.93171 0.42325 0.30737 -0.04300
C 	C 	0.91983 0.45172 0.30393 0.08300
H 	H 	0.91865 0.40592 0.32188 0.07000
N 	N 	0.89193 0.45710 0.31820 -0.19300
H 	H 	0.01607 0.41431 0.26640 0.12700
H 	H 	0.87940 0.44021 0.33172 0.10700
H 	H 	0.88219 0.47784 0.31528 0.10200
H 	H 	0.97045 0.52218 0.41157 0.09900
C 	C 	0.95003 0.44034 0.84830 -0.04300
C 	C 	0.93176 0.44708 0.89020 0.12300
C 	C 	0.92484 0.47677 0.90385 -0.08300
C 	C 	0.93273 0.49927 0.87264 0.00100
C 	C 	0.95015 0.49244 0.82967 0.08000
C 	C 	0.95922 0.46314 0.81881 -0.04600
N 	N 	0.91944 0.42519 0.91532 -0.19600
H 	H 	0.91148 0.48212 0.93667 0.07300
C 	C 	0.92120 0.52954 0.88333 0.00100
H 	H 	0.97325 0.45799 0.78685 0.06200
C 	C 	0.93311 0.58145 0.90807 0.12400
C 	C 	0.89342 0.53783 0.86093 0.08000
N 	N 	0.95249 0.60219 0.93110 -0.20000
H 	H 	0.86549 0.57447 0.84169 0.06100
N 	N 	0.87392 0.51707 0.83835 -0.19300
H 	H 	0.97221 0.59572 0.95015 0.12400
H 	H 	0.94810 0.62481 0.93099 0.14800
H 	H 	0.85374 0.52349 0.82087 0.10200
H 	H 	0.87831 0.49444 0.83855 0.10100
H 	H 	0.91948 0.40313 0.90022 0.14000
H 	H 	0.90765 0.43041 0.94832 0.12500
C 	C 	0.89030 0.65624 0.74100 -0.03500
C 	C 	0.87048 0.63757 0.70883 0.11500
C 	C 	0.87141 0.63686 0.65432 -0.08000
C 	C 	0.89039 0.65581 0.63145 -0.00200
C 	C 	0.90757 0.67706 0.66352 0.08800
C 	C 	0.90778 0.67667 0.71821 -0.04500
H 	H 	0.85738 0.62144 0.62958 0.06600
C 	C 	0.89311 0.65208 0.57415 0.00300
N 	N 	0.92414 0.69749 0.64216 -0.19400
H 	H 	0.92219 0.69172 0.74296 0.07600
C 	C 	0.87031 0.66227 0.54070 -0.08300
C 	C 	0.86957 0.65494 0.48653 0.12600
C 	C 	0.89335 0.63902 0.46515 -0.04200
C 	C 	0.91681 0.63001 0.49845 -0.04400
C 	C 	0.91666 0.63578 0.55285 0.07900
H 	H 	0.85226 0.67462 0.55717 0.07700
N 	N 	0.84546 0.66208 0.45582 -0.19600
H 	H 	0.93505 0.61794 0.48201 0.06100
N 	N 	0.93894 0.62531 0.58431 -0.19300
H 	H 	0.84226 0.65360 0.41698 0.14000
H 	H 	0.95628 0.61348 0.56811 0.10100
H 	H 	0.93923 0.62849 0.62496 0.10000
H 	H 	0.93738 0.71254 0.66611 0.11600
H 	H 	0.92348 0.69915 0.60180 0.11300
C 	C 	0.96940 0.99476 0.95407 -0.10200
C 	C 	0.93991 0.99938 0.96509 -0.11200
C 	C 	0.92995 0.02842 0.97657 0.34200
C 	C 	0.94874 0.05265 0.97303 -0.09700
C 	C 	0.97759 0.04811 0.95794 -0.11800
C 	C 	0.98823 0.01895 0.95058 0.33600
F 	F 	0.01657 0.01406 0.93885 -0.49200
H 	H 	0.97734 0.97245 0.94544 0.04900
H 	H 	0.94041 0.07497 0.97953 0.08800
F 	F 	0.90171 0.03319 0.98895 -0.42900
H 	H 	0.01490 0.00243 0.20012 0.13700
C 	C 	0.87160 0.69298 0.29730 0.28500
C 	C 	0.88859 0.66784 0.28395 -0.15300
C 	C 	0.90104 0.66531 0.23495 0.28700
F 	F 	0.85717 0.69484 0.34202 -0.38500
C 	C 	0.08955 0.07190 0.25843 0.34500
O 	O 	0.08545 0.07468 0.20815 -0.23700
O 	O 	0.07336 0.08871 0.28766 -0.52800
O 	O 	0.05595 0.11816 0.88671 -0.43400
C 	C 	0.07205 0.10471 0.92151 0.33900
O 	O 	0.06653 0.11149 0.97014 -0.29600
C 	C 	0.10185 0.07483 0.86015 -0.09700
C 	C 	0.08690 0.07691 0.90625 -0.13500
H 	H 	0.10818 0.09476 0.84261 0.11100
H 	H 	0.13720 0.06946 0.32648 0.11000
C 	C 	0.01029 0.01664 0.47343 0.33700
C 	C 	0.97664 0.00305 0.75850 -0.12100
C 	C 	0.89852 0.54820 0.27822 0.12300
C 	C 	0.90944 0.51979 0.26456 -0.08100
C 	C 	0.92977 0.50619 0.29857 0.00200
C 	C 	0.94182 0.52242 0.34431 0.08100
N 	N 	0.87506 0.55867 0.24960 -0.19600
C 	C 	0.96509 0.46772 0.26849 -0.07900
H 	H 	0.97799 0.48501 0.25354 0.07600
N 	N 	0.00576 0.43458 0.26136 -0.19900
H 	H 	0.01776 0.45113 0.24568 0.11800
H 	H 	0.96689 0.48742 0.37365 0.09800
H 	H 	0.86301 0.57685 0.26355 0.12400
H 	H 	0.86725 0.54721 0.21458 0.11800
N 	N 	0.95805 0.51380 0.79853 -0.19300
C 	C 	0.93984 0.55122 0.90987 -0.08300
C 	C 	0.90665 0.58983 0.88090 -0.04100
C 	C 	0.88626 0.56796 0.86070 -0.04500
H 	H 	0.96058 0.54467 0.92884 0.07500
H 	H 	0.97107 0.50850 0.76716 0.09900
H 	H 	0.95118 0.53571 0.80461 0.09900
N 	N 	0.85014 0.62080 0.73001 -0.19800
H 	H 	0.84652 0.62345 0.76979 0.11500
H 	H 	0.83657 0.60599 0.70618 0.10400
C 	C 	0.99745 0.99919 0.22583 -0.09900
C 	C 	0.98833 0.02283 0.25948 -0.11900
F 	F 	0.91741 0.64129 0.22089 -0.37100
Cd	Cd	0.91357 0.87966 0.24728 1.25300
O 	O 	0.87676 0.83939 0.23618 -0.27600
O 	O 	0.90273 0.85079 0.17169 -0.28800
C 	C 	0.88413 0.83243 0.18886 0.38100
C 	C 	0.87165 0.92378 0.27453 0.34800
O 	O 	0.92824 0.87079 0.34594 -0.42800
O 	O 	0.86887 0.91615 0.22432 -0.23600
C 	C 	0.95233 0.85840 0.33021 0.34100
O 	O 	0.95365 0.85408 0.27968 -0.28500
Cd	Cd	0.88684 0.91468 0.97373 1.24800
Cd	Cd	0.88736 0.94395 0.84885 1.21500
O 	O 	0.89745 0.97737 0.91696 -0.36300
C 	C 	0.91850 0.97494 0.95411 0.32100
C 	C 	0.92805 0.89201 0.90173 0.34100
O 	O 	0.84954 0.93104 0.89917 -0.41200
O 	O 	0.93427 0.88353 0.94866 -0.21500
C 	C 	0.83736 0.94853 0.93412 0.35200
O 	O 	0.84666 0.94564 0.98264 -0.32700
Cd	Cd	0.83484 0.08061 0.73852 1.25100
O 	O 	0.79044 0.11045 0.72206 -0.27500
O 	O 	0.80656 0.07912 0.66160 -0.29200
C 	C 	0.78545 0.09675 0.67606 0.37800
O 	O 	0.87640 0.05462 0.72882 -0.34500
C 	C 	0.89397 0.04678 0.76853 0.32300
O 	O 	0.82577 0.07575 0.83829 -0.39400
C 	C 	0.81668 0.04872 0.82454 0.33800
O 	O 	0.81399 0.04131 0.77448 -0.32400
Cd	Cd	0.87254 0.07696 0.47103 1.24900
Cd	Cd	0.90333 0.06620 0.34706 1.21600
O 	O 	0.82510 0.10258 0.47283 -0.27900
O 	O 	0.84415 0.08171 0.54154 -0.30600
C 	C 	0.82194 0.09576 0.52032 0.38600
O 	O 	0.91131 0.04730 0.48574 -0.34300
O 	O 	0.93552 0.06142 0.41601 -0.37700
C 	C 	0.93256 0.04328 0.45311 0.32800
C 	C 	0.85049 0.02984 0.39866 0.34700
O 	O 	0.84136 0.02755 0.44531 -0.20600
O 	O 	0.86414 0.05450 0.39251 -0.51200
C 	C 	0.60311 0.05592 0.80661 0.23700
N 	N 	0.61190 0.05435 0.85797 -0.12000
C 	C 	0.59223 0.04716 0.89254 0.14500
N 	N 	0.56396 0.04045 0.87547 -0.14200
C 	C 	0.55501 0.04204 0.82428 0.14400
N 	N 	0.57457 0.04989 0.78988 -0.12100
C 	C 	0.62988 0.06450 0.36782 0.24000
N 	N 	0.63466 0.05759 0.31666 -0.12000
C 	C 	0.61154 0.05168 0.28114 0.14600
N 	N 	0.58363 0.05228 0.29699 -0.14300
C 	C 	0.57877 0.05884 0.34813 0.14600
N 	N 	0.60190 0.06516 0.38340 -0.11900
Cd	Cd	0.05735 0.93665 0.34138 1.18800
O 	O 	0.02830 0.94642 0.40808 -0.41300
O 	O 	0.07614 0.90052 0.39397 -0.43300
C 	C 	0.06240 0.88833 0.42998 0.33700
O 	O 	0.06916 0.89886 0.47795 -0.29300
C 	C 	0.54876 0.05641 0.36597 -0.03500
C 	C 	0.52451 0.06970 0.33949 0.11200
C 	C 	0.49578 0.06065 0.34784 -0.08000
C 	C 	0.49091 0.03998 0.38448 -0.00400
C 	C 	0.51497 0.02982 0.41597 0.09100
C 	C 	0.54378 0.03774 0.40579 -0.04900
N 	N 	0.52867 0.09152 0.30697 -0.19800
N 	N 	0.51053 0.01248 0.45582 -0.19500
H 	H 	0.56238 0.02851 0.42764 0.09500
C 	C 	0.45666 0.99767 0.36036 -0.08100
H 	H 	0.47523 0.98500 0.34662 0.06600
N 	N 	0.42436 0.95697 0.33303 -0.19800
H 	H 	0.44225 0.94472 0.31983 0.10400
H 	H 	0.52845 0.00423 0.47779 0.12200
H 	H 	0.48933 0.00793 0.46657 0.11000
H 	H 	0.54943 0.10107 0.30465 0.11400
H 	H 	0.51075 0.10028 0.28573 0.10400
C 	C 	0.52408 0.03519 0.80624 -0.03600
C 	C 	0.48937 0.00146 0.75534 0.08800
C 	C 	0.51802 0.01318 0.76548 -0.04900
N 	N 	0.48374 0.98069 0.71486 -0.19500
H 	H 	0.53578 0.00443 0.74283 0.08800
H 	H 	0.50064 0.97312 0.69170 0.11500
H 	H 	0.46247 0.97239 0.70519 0.11100
C 	C 	0.60091 0.04891 0.94899 -0.03000
C 	C 	0.58813 0.07009 0.98393 0.10500
C 	C 	0.59353 0.06841 0.03803 -0.06900
C 	C 	0.61293 0.04722 0.05771 -0.00600
C 	C 	0.62738 0.02738 0.02266 0.09800
C 	C 	0.62085 0.02816 0.96853 -0.05700
N 	N 	0.57135 0.09251 0.96582 -0.19600
H 	H 	0.58294 0.08393 0.06495 0.06600
C 	C 	0.61711 0.04547 0.11515 -0.00100
N 	N 	0.64763 0.00779 0.04060 -0.19500
H 	H 	0.63111 0.01236 0.94161 0.07600
C 	C 	0.60207 0.02343 0.13863 -0.08100
C 	C 	0.60254 0.02335 0.19332 0.11200
C 	C 	0.61654 0.04697 0.22488 -0.03500
C 	C 	0.63300 0.06803 0.20149 -0.04800
C 	C 	0.63389 0.06717 0.14686 0.09100
H 	H 	0.59001 0.00628 0.11426 0.06700
N 	N 	0.59031 0.00018 0.21521 -0.19700
H 	H 	0.64452 0.08559 0.22575 0.09300
N 	N 	0.65087 0.08713 0.12515 -0.19400
H 	H 	0.57880 0.98356 0.19176 0.10400
H 	H 	0.59354 0.99756 0.25521 0.11400
H 	H 	0.66247 0.10364 0.14874 0.12300
H 	H 	0.65350 0.08588 0.08500 0.11600
H 	H 	0.65770 0.99281 0.01449 0.11800
H 	H 	0.65413 0.00769 0.08031 0.11300
H 	H 	0.56986 0.09654 0.92626 0.11300
H 	H 	0.56083 0.10718 0.99179 0.10300
C 	C 	0.95709 0.02329 0.46561 -0.10600
H 	H 	0.97471 0.95051 0.44293 0.06800
F 	F 	0.92585 0.98085 0.44490 -0.50500
C 	C 	0.74895 0.06093 0.51980 0.22800
C 	C 	0.73159 0.08607 0.51167 -0.00700
C 	C 	0.74354 0.11433 0.52652 0.23600
C 	C 	0.77381 0.11758 0.53959 0.31900
C 	C 	0.79211 0.09260 0.53774 -0.19800
C 	C 	0.77911 0.06425 0.53379 0.31700
C 	C 	0.70427 0.08317 0.47711 -0.01000
F 	F 	0.72633 0.13875 0.52375 -0.32300
F 	F 	0.79626 0.03981 0.53691 -0.35100
C 	C 	0.67965 0.06812 0.49255 0.24600
C 	C 	0.65528 0.06207 0.45706 0.29300
C 	C 	0.65503 0.07179 0.40616 -0.15400
C 	C 	0.67916 0.08812 0.39175 0.28900
C 	C 	0.70380 0.09333 0.42667 0.23700
F 	F 	0.67962 0.05876 0.54154 -0.32000
F 	F 	0.67869 0.09903 0.34386 -0.38000
F 	F 	0.63234 0.04600 0.47158 -0.36600
F 	F 	0.72762 0.10764 0.41107 -0.34600
F 	F 	0.73723 0.03334 0.50922 -0.32300
F 	F 	0.78581 0.14515 0.54832 -0.35400
C 	C 	0.92706 0.00454 0.78809 0.33700
F 	F 	0.90651 0.99358 0.81742 -0.54000
C 	C 	0.64586 0.05846 0.68510 0.24500
C 	C 	0.66898 0.07797 0.70344 -0.00900
C 	C 	0.66874 0.09229 0.75389 0.23300
C 	C 	0.64625 0.08641 0.78624 0.28600
C 	C 	0.62438 0.06513 0.76954 -0.15500
C 	C 	0.62392 0.05165 0.71826 0.28800
C 	C 	0.69518 0.08081 0.67271 0.00700
F 	F 	0.69099 0.11110 0.77229 -0.34700
F 	F 	0.60291 0.03117 0.70121 -0.37600
C 	C 	0.70477 0.10905 0.66138 0.24400
C 	C 	0.73463 0.11400 0.65453 0.31200
C 	C 	0.75471 0.09045 0.65667 -0.20300
C 	C 	0.74374 0.06133 0.65648 0.30700
C 	C 	0.71416 0.05655 0.66561 0.24200
F 	F 	0.76241 0.03794 0.65373 -0.35800
F 	F 	0.70476 0.02874 0.67287 -0.32700
F 	F 	0.64517 0.04538 0.63575 -0.30900
F 	F 	0.64588 0.10121 0.83414 -0.37800
H 	H 	0.82872 0.67503 0.47157 0.12700
C 	C 	0.83488 0.00348 0.93922 -0.08400
C 	C 	0.82317 0.97598 0.91878 -0.13500
C 	C 	0.80282 0.97490 0.87521 0.34000
C 	C 	0.79797 0.00008 0.84759 -0.08000
C 	C 	0.81378 0.02634 0.86285 -0.13000
C 	C 	0.83061 0.02859 0.91099 0.35400
F 	F 	0.84426 0.05443 0.92878 -0.48600
H 	H 	0.84934 0.00486 0.97455 0.13900
H 	H 	0.78351 0.99859 0.81224 0.12900
F 	F 	0.78953 0.94888 0.85729 -0.41500
C 	C 	0.94489 0.90508 0.81518 -0.08000
C 	C 	0.95058 0.89170 0.86249 -0.16000
C 	C 	0.97866 0.87956 0.87359 0.34900
C 	C 	0.00142 0.88390 0.84100 -0.11300
C 	C 	0.99640 0.89973 0.79651 -0.14700
C 	C 	0.96774 0.90913 0.78235 0.31600
F 	F 	0.96236 0.92360 0.73830 -0.43600
H 	H 	0.02335 0.87595 0.85151 0.10300
F 	F 	0.98409 0.86410 0.91647 -0.40300
C 	C 	0.90482 0.79087 0.03166 0.22500
C 	C 	0.90339 0.82156 0.04293 0.32000
C 	C 	0.87815 0.74537 0.99286 -0.03100
F 	F 	0.82719 0.77042 0.03812 -0.31700
F 	F 	0.92838 0.83816 0.04450 -0.35100
C 	C 	0.89535 0.72146 0.00875 0.26600
C 	C 	0.89895 0.69656 0.97403 0.28000
C 	C 	0.88432 0.69485 0.92374 -0.14800
F 	F 	0.90937 0.72280 0.05719 -0.31700
F 	F 	0.91747 0.67466 0.98855 -0.36800
F 	F 	0.84605 0.76613 0.92747 -0.34600
F 	F 	0.93112 0.77815 0.02191 -0.32000
F 	F 	0.82415 0.83091 0.05575 -0.34800
C 	C 	0.95230 0.99043 0.29219 -0.09300
C 	C 	0.96443 0.01864 0.29016 0.33800
F 	F 	0.95356 0.04181 0.31922 -0.53300
H 	H 	0.93519 0.98715 0.31869 0.05900
F 	F 	0.99520 0.94777 0.19700 -0.42800
C 	C 	0.84229 0.95103 0.33970 -0.10100
C 	C 	0.85988 0.95165 0.29712 -0.14600
C 	C 	0.87034 0.97893 0.28279 0.31900
C 	C 	0.86573 0.00496 0.31414 -0.07200
C 	C 	0.85058 0.00386 0.35994 -0.14800
C 	C 	0.83724 0.97699 0.37056 0.35500
F 	F 	0.81991 0.97587 0.41143 -0.39400
H 	H 	0.83344 0.93016 0.35011 0.10900
H 	H 	0.87438 0.02574 0.30330 0.00100
F 	F 	0.88621 0.98000 0.24003 -0.43600
C 	C 	0.03242 0.85177 0.37272 -0.09800
C 	C 	0.03444 0.87249 0.41615 -0.13100
C 	C 	0.00851 0.88236 0.43877 0.33400
C 	C 	0.98106 0.87538 0.41309 -0.08400
C 	C 	0.97936 0.85812 0.36523 -0.13600
C 	C 	0.00495 0.84428 0.34764 0.35100
F 	F 	0.00336 0.82473 0.30483 -0.39400
H 	H 	0.05226 0.84287 0.35652 0.11400
H 	H 	0.96135 0.88491 0.42872 0.04300
F 	F 	0.00998 0.90067 0.48318 -0.42500
C 	C 	0.90981 0.75491 0.17967 0.24500
C 	C 	0.88293 0.74037 0.18504 0.00400
C 	C 	0.85643 0.75487 0.17189 0.24400
C 	C 	0.85662 0.78541 0.16616 0.31400
C 	C 	0.88349 0.80103 0.16939 -0.20400
C 	C 	0.90999 0.78500 0.17036 0.30900
C 	C 	0.88245 0.71415 0.21643 -0.01000
F 	F 	0.83033 0.74014 0.17081 -0.32400
F 	F 	0.93615 0.79936 0.16902 -0.34800
C 	C 	0.86945 0.71633 0.26469 0.23400
C 	C 	0.89731 0.68806 0.20089 0.24500
F 	F 	0.85542 0.74155 0.28074 -0.34500
F 	F 	0.93576 0.74077 0.18883 -0.31600
Cd	Cd	0.92173 0.92047 0.37183 1.19800
O 	O 	0.94296 0.91763 0.23318 -0.32300
O 	O 	0.95831 0.92725 0.31947 -0.42600
C 	C 	0.95390 0.93610 0.27194 0.32900
O 	O 	0.88941 0.90777 0.30195 -0.52600
O 	O 	0.86195 0.86682 0.97740 -0.28600
O 	O 	0.88785 0.88747 0.04556 -0.30200
C 	C 	0.87218 0.86480 0.02535 0.39500
O 	O 	0.91715 0.95407 0.98740 -0.35300
O 	O 	0.90290 0.90534 0.89538 -0.51700
C 	C 	0.95329 0.99256 0.45558 0.32100
C 	C 	0.97791 0.97407 0.45270 -0.08300
H 	H 	0.96067 0.97486 0.81488 0.04800
H 	H 	0.92301 0.91283 0.80427 0.00300
C 	C 	0.87872 0.77389 0.02512 0.00400
C 	C 	0.85209 0.78709 0.03885 0.23000
C 	C 	0.85062 0.81789 0.04865 0.32400
C 	C 	0.87583 0.83543 0.04538 -0.20000
C 	C 	0.86514 0.71776 0.90975 0.28300
C 	C 	0.86267 0.74315 0.94349 0.24300
F 	F 	0.84904 0.71553 0.86317 -0.37400
C 	C 	0.96299 0.96626 0.26189 -0.12600
C 	C 	0.98494 0.97088 0.22722 0.33800
F 	F 	0.90874 0.68503 0.15330 -0.30900
F 	F 	0.83072 0.80026 0.16218 -0.34200
