data_crystal

_cell_length_a 44.70401
_cell_length_b 44.67276
_cell_length_c 42.05828
_cell_angle_alpha 91.01010
_cell_angle_beta  88.91860
_cell_angle_gamma 90.01645

_symmetry_space_group_name_	'P 1'
_symmetry_space_group_name_H-M	'P 1'

loop_
_symmetry_equiv_pos_as_xyz
  x,y,z

loop_
_atom_site_label
_atom_site_type_symbol
_atom_site_fract_x
_atom_site_fract_y
_atom_site_fract_z
_atom_site_charge
Cd	Cd	0.03729 0.82542 0.40929 1.24400
Cd	Cd	0.04360 0.83897 0.32657 1.19000
O 	O 	0.04220 0.77419 0.43002 -0.29700
O 	O 	0.03805 0.81380 0.46176 -0.32000
C 	C 	0.04093 0.78492 0.45898 0.24100
O 	O 	0.03898 0.87513 0.40582 -0.37200
O 	O 	0.02260 0.87738 0.35443 -0.41100
C 	C 	0.03325 0.89061 0.38012 0.31300
C 	C 	0.09495 0.82586 0.37925 0.32500
O 	O 	0.01025 0.81039 0.35624 -0.43100
O 	O 	0.09711 0.82742 0.41018 -0.28100
O 	O 	0.06829 0.82065 0.36890 -0.52000
C 	C 	0.98529 0.81972 0.36958 0.31900
O 	O 	0.98657 0.82653 0.39983 -0.34900
Cd	Cd	0.86385 0.92106 0.89346 1.24300
Cd	Cd	0.86801 0.94546 0.81303 1.17700
O 	O 	0.84635 0.86995 0.90607 -0.30400
O 	O 	0.86446 0.90055 0.94256 -0.32000
C 	C 	0.85291 0.87458 0.93577 0.24200
O 	O 	0.88755 0.96473 0.89673 -0.36600
O 	O 	0.87200 0.98308 0.84918 -0.40500
C 	C 	0.89089 0.98339 0.87291 0.30900
C 	C 	0.91290 0.90248 0.85332 0.32800
O 	O 	0.82869 0.92916 0.84523 -0.45300
O 	O 	0.91790 0.89666 0.88310 -0.27300
O 	O 	0.88592 0.91117 0.84742 -0.53600
C 	C 	0.81174 0.94606 0.86363 0.30900
O 	O 	0.81839 0.94612 0.89376 -0.33200
C 	C 	0.90684 0.69733 0.95156 0.09700
N 	N 	0.90909 0.66891 0.96214 -0.13200
C 	C 	0.92247 0.64748 0.94353 0.13000
N 	N 	0.93268 0.65428 0.91395 -0.14200
C 	C 	0.93053 0.68270 0.90330 0.13100
N 	N 	0.91747 0.70420 0.92211 -0.13000
C 	C 	0.97929 0.66196 0.61873 0.09700
N 	N 	0.98169 0.63189 0.61416 -0.12600
C 	C 	0.97728 0.61316 0.63887 0.12900
N 	N 	0.97017 0.62455 0.66819 -0.14200
C 	C 	0.96732 0.65460 0.67279 0.13000
N 	N 	0.97202 0.67330 0.64807 -0.13600
Cd	Cd	0.85980 0.17440 0.71360 1.24400
Cd	Cd	0.88043 0.17572 0.79426 1.18800
O 	O 	0.81170 0.19609 0.69715 -0.30600
O 	O 	0.84457 0.17802 0.66246 -0.31900
C 	C 	0.81838 0.19005 0.66748 0.24200
O 	O 	0.90726 0.15908 0.71251 -0.36200
O 	O 	0.90747 0.14295 0.76406 -0.39100
C 	C 	0.92167 0.14819 0.73690 0.31700
C 	C 	0.88181 0.22839 0.74168 0.31900
O 	O 	0.83999 0.15414 0.76874 -0.45000
O 	O 	0.88226 0.23004 0.71064 -0.26700
O 	O 	0.86818 0.20519 0.75296 -0.53600
C 	C 	0.83940 0.12760 0.75543 0.31100
O 	O 	0.84427 0.12639 0.72478 -0.33700
Cd	Cd	0.84764 0.98067 0.19289 1.24400
Cd	Cd	0.86283 0.98189 0.27585 1.18000
O 	O 	0.79581 0.98582 0.17398 -0.29800
O 	O 	0.83476 0.98492 0.14111 -0.31500
C 	C 	0.80592 0.98703 0.14481 0.24200
O 	O 	0.89730 0.98286 0.19449 -0.35900
O 	O 	0.90158 0.96583 0.24529 -0.41400
C 	C 	0.91308 0.97978 0.22050 0.30100
C 	C 	0.84793 0.03620 0.22755 0.33000
O 	O 	0.83533 0.94953 0.24399 -0.43600
O 	O 	0.84866 0.04055 0.19690 -0.26800
O 	O 	0.84318 0.00880 0.23587 -0.53400
C 	C 	0.84562 0.92595 0.22867 0.31800
O 	O 	0.85032 0.92933 0.19820 -0.34600
C 	C 	0.65225 0.10696 0.65575 0.09600
N 	N 	0.66183 0.09636 0.68389 -0.13000
C 	C 	0.64235 0.08230 0.70382 0.13100
N 	N 	0.61367 0.07778 0.69500 -0.14300
C 	C 	0.60415 0.08786 0.66670 0.13100
N 	N 	0.62337 0.10270 0.64716 -0.13000
C 	C 	0.68036 0.00970 0.97885 0.09900
N 	N 	0.65376 0.99650 0.98595 -0.12700
C 	C 	0.63497 0.98832 0.96234 0.13000
N 	N 	0.64249 0.99440 0.93172 -0.14300
C 	C 	0.66780 0.00992 0.92478 0.13400
N 	N 	0.68715 0.01693 0.94829 -0.12900
Cd	Cd	0.00180 0.17719 0.42823 1.24300
Cd	Cd	0.01085 0.16331 0.34440 1.19700
O 	O 	0.98122 0.22555 0.44827 -0.28700
O 	O 	0.99005 0.18809 0.48008 -0.33200
C 	C 	0.98058 0.21541 0.47708 0.24100
O 	O 	0.01276 0.12851 0.42435 -0.36600
O 	O 	0.03451 0.13020 0.37464 -0.38600
C 	C 	0.02140 0.11492 0.39752 0.31000
C 	C 	0.95109 0.16225 0.39102 0.32000
O 	O 	0.03175 0.19805 0.37905 -0.42500
O 	O 	0.94472 0.16065 0.42140 -0.26800
O 	O 	0.97676 0.17416 0.38397 -0.52500
C 	C 	0.05624 0.19467 0.39500 0.30900
O 	O 	0.05226 0.18862 0.42508 -0.34800
Cd	Cd	0.07863 0.19972 0.93064 1.24500
Cd	Cd	0.08414 0.18582 0.84725 1.17600
O 	O 	0.10431 0.24279 0.95596 -0.28800
O 	O 	0.07266 0.21445 0.98227 -0.33100
C 	C 	0.08991 0.23792 0.98254 0.24200
O 	O 	0.04419 0.16489 0.92145 -0.36100
O 	O 	0.06439 0.14709 0.87420 -0.40500
C 	C 	0.04210 0.14838 0.89522 0.31400
C 	C 	0.04550 0.23582 0.88864 0.33400
O 	O 	0.11975 0.18674 0.88689 -0.45200
O 	O 	0.03585 0.23930 0.91796 -0.27700
O 	O 	0.06977 0.22021 0.88497 -0.54000
C 	C 	0.12759 0.16436 0.90435 0.30800
O 	O 	0.11524 0.16317 0.93265 -0.32900
C 	C 	0.98819 0.38710 0.97605 0.10000
N 	N 	0.97870 0.41572 0.98080 -0.13400
C 	C 	0.96309 0.42964 0.95794 0.13000
N 	N 	0.95785 0.41517 0.92996 -0.14300
C 	C 	0.96814 0.38692 0.92470 0.13300
N 	N 	0.98305 0.37276 0.94791 -0.12200
C 	C 	0.94437 0.34190 0.63950 0.10100
N 	N 	0.94770 0.37049 0.62943 -0.13700
C 	C 	0.95343 0.39287 0.65069 0.13200
N 	N 	0.95611 0.38665 0.68194 -0.14200
C 	C 	0.95253 0.35822 0.69216 0.13200
N 	N 	0.94645 0.33586 0.67093 -0.11600
Cd	Cd	0.15409 0.98121 0.71133 1.24400
Cd	Cd	0.12425 0.99143 0.78995 1.17900
O 	O 	0.18316 0.93590 0.69604 -0.30700
O 	O 	0.17135 0.96993 0.66138 -0.31800
C 	C 	0.18510 0.94495 0.66680 0.24300
O 	O 	0.12507 0.02140 0.70797 -0.36800
O 	O 	0.12410 0.03350 0.76121 -0.39700
C 	C 	0.11296 0.03609 0.73256 0.30800
C 	C 	0.10107 0.95029 0.73017 0.31700
O 	O 	0.17285 0.98619 0.77010 -0.45300
O 	O 	0.10502 0.94855 0.69929 -0.27000
O 	O 	0.12330 0.96129 0.74584 -0.53800
C 	C 	0.19032 0.00782 0.76072 0.31000
O 	O 	0.19224 0.01134 0.73001 -0.33100
Cd	Cd	0.20052 0.02647 0.21997 1.24400
Cd	Cd	0.17434 0.00737 0.29726 1.18400
O 	O 	0.25431 0.02314 0.20494 -0.30200
O 	O 	0.21966 0.03316 0.17013 -0.31900
C 	C 	0.24782 0.02890 0.17563 0.24300
O 	O 	0.15101 0.02588 0.21584 -0.37100
O 	O 	0.14044 0.03249 0.26910 -0.39500
C 	C 	0.13165 0.02613 0.23999 0.31500
C 	C 	0.19564 0.96517 0.23676 0.32100
O 	O 	0.20685 0.04444 0.27956 -0.44400
O 	O 	0.19858 0.96767 0.20597 -0.27500
O 	O 	0.19913 0.98959 0.25327 -0.53900
C 	C 	0.19966 0.07131 0.27067 0.32300
O 	O 	0.19787 0.07499 0.24004 -0.33500
C 	C 	0.36100 0.96996 0.67053 0.09700
N 	N 	0.35297 0.97274 0.70173 -0.12700
C 	C 	0.37052 0.98835 0.72216 0.13000
N 	N 	0.39654 0.00058 0.71135 -0.14100
C 	C 	0.40423 0.99852 0.68000 0.12800
N 	N 	0.38659 0.98294 0.65962 -0.13400
C 	C 	0.36842 0.96834 0.01059 0.09700
N 	N 	0.36147 0.97271 0.97965 -0.13600
C 	C 	0.38366 0.97622 0.95747 0.13000
N 	N 	0.41266 0.97434 0.96615 -0.14300
C 	C 	0.41961 0.96861 0.99668 0.13000
N 	N 	0.39747 0.96530 0.01884 -0.12600
C 	C 	0.36259 0.98990 0.75652 -0.04700
C 	C 	0.36933 0.01561 0.77525 0.10700
C 	C 	0.36977 0.01340 0.80849 -0.08300
C 	C 	0.36057 0.98698 0.82331 -0.00400
C 	C 	0.34875 0.96321 0.80472 0.07600
C 	C 	0.35090 0.96441 0.77141 -0.05200
N 	N 	0.37401 0.04261 0.76159 -0.19800
H 	H 	0.37727 0.03226 0.82283 0.05900
C 	C 	0.36598 0.98347 0.85776 -0.00400
N 	N 	0.33576 0.93912 0.81869 -0.19400
H 	H 	0.34421 0.94518 0.75714 0.05900
C 	C 	0.34945 0.00089 0.87992 -0.08300
C 	C 	0.35559 0.99984 0.91255 0.10500
C 	C 	0.37651 0.97861 0.92340 -0.04800
C 	C 	0.39209 0.96032 0.90124 -0.05100
C 	C 	0.38822 0.96366 0.86849 0.07300
H 	H 	0.33271 0.01634 0.87163 0.06400
N 	N 	0.34249 0.02013 0.93290 -0.19900
H 	H 	0.40814 0.94414 0.90949 0.05200
N 	N 	0.40637 0.94835 0.84755 -0.19400
H 	H 	0.32573 0.03435 0.92500 0.09900
H 	H 	0.35018 0.02353 0.95595 0.09900
H 	H 	0.42179 0.93281 0.85572 0.08800
H 	H 	0.40644 0.95268 0.82326 0.09200
H 	H 	0.32817 0.92111 0.80484 0.09200
H 	H 	0.33202 0.93855 0.84325 0.09600
H 	H 	0.36889 0.04607 0.73781 0.10100
H 	H 	0.38071 0.06106 0.77533 0.09300
C 	C 	0.28745 0.01929 0.10295 0.12100
C 	C 	0.28691 0.00951 0.07110 -0.08600
C 	C 	0.30627 0.98620 0.06142 0.02400
C 	C 	0.32653 0.97415 0.08197 0.11800
C 	C 	0.32699 0.98393 0.11382 -0.08400
C 	C 	0.30796 0.00752 0.12336 0.01600
O 	O 	0.26270 0.03221 0.11822 -0.17600
C 	C 	0.27019 0.02664 0.14970 0.06100
C 	C 	0.29709 0.01196 0.15300 -0.05700
O 	O 	0.35149 0.96157 0.06685 -0.19800
C 	C 	0.34478 0.96803 0.03537 0.10000
C 	C 	0.31778 0.98256 0.03188 -0.08300
H 	H 	0.27129 0.01905 0.05471 0.07900
H 	H 	0.34263 0.97443 0.13022 0.07400
H 	H 	0.30278 0.99848 0.17320 0.06800
H 	H 	0.31250 0.99670 0.01206 0.06600
C 	C 	0.30621 0.92282 0.63938 0.11800
C 	C 	0.28101 0.90617 0.64853 -0.08400
C 	C 	0.25302 0.91430 0.63683 0.01600
C 	C 	0.24966 0.93979 0.61909 0.12200
C 	C 	0.27481 0.95682 0.61051 -0.08600
C 	C 	0.30317 0.94697 0.61962 0.02400
O 	O 	0.33129 0.92440 0.65831 -0.20100
C 	C 	0.34250 0.95212 0.64897 0.10200
C 	C 	0.32620 0.96548 0.62564 -0.08500
O 	O 	0.22151 0.95279 0.62234 -0.17700
C 	C 	0.20885 0.93387 0.64500 0.06100
C 	C 	0.22716 0.91043 0.65304 -0.05900
H 	H 	0.28270 0.88955 0.66686 0.07200
H 	H 	0.27206 0.97860 0.60002 0.07800
H 	H 	0.32573 0.98942 0.62182 0.06500
H 	H 	0.22525 0.89844 0.67519 0.06700
C 	C 	0.96820 0.37421 0.89221 -0.04000
C 	C 	0.98869 0.38466 0.86887 0.11000
C 	C 	0.98439 0.37710 0.83679 -0.08200
C 	C 	0.96061 0.35856 0.82775 -0.00600
C 	C 	0.94188 0.34572 0.85141 0.07800
C 	C 	0.94554 0.35415 0.88347 -0.04500
N 	N 	0.01247 0.40196 0.87712 -0.19900
H 	H 	0.99932 0.38608 0.81870 0.05800
C 	C 	0.95495 0.35382 0.79338 -0.00300
N 	N 	0.92022 0.32569 0.84349 -0.19300
H 	H 	0.93037 0.34553 0.90153 0.06100
C 	C 	0.97564 0.33710 0.77490 -0.08600
C 	C 	0.97441 0.33675 0.74155 0.10900
C 	C 	0.95129 0.35256 0.72654 -0.04000
C 	C 	0.92906 0.36693 0.74513 -0.04800
C 	C 	0.93121 0.36874 0.77834 0.07400
H 	H 	0.99363 0.32550 0.78645 0.05800
N 	N 	0.99587 0.32187 0.72419 -0.19800
H 	H 	0.91103 0.37848 0.73354 0.05300
N 	N 	0.91106 0.38561 0.79544 -0.19400
H 	H 	0.01304 0.31061 0.73554 0.09200
H 	H 	0.99567 0.32104 0.69939 0.11100
H 	H 	0.89335 0.39601 0.78412 0.08900
H 	H 	0.91307 0.38922 0.81987 0.09200
H 	H 	0.90548 0.31754 0.86087 0.10300
H 	H 	0.91834 0.31738 0.82025 0.09900
H 	H 	0.01738 0.40647 0.90090 0.09900
H 	H 	0.02696 0.41036 0.85964 0.09100
C 	C 	0.15329 0.08955 0.87141 -0.07100
C 	C 	0.17941 0.09780 0.85475 0.02500
C 	C 	0.19089 0.12702 0.85867 0.05200
C 	C 	0.17451 0.14839 0.87656 -0.00800
C 	C 	0.14746 0.14054 0.89169 -0.10800
C 	C 	0.13773 0.11051 0.89049 0.11800
C 	C 	0.19243 0.07691 0.83050 0.02900
N 	N 	0.21900 0.13511 0.84433 -0.01600
H 	H 	0.18262 0.17122 0.87829 0.05800
N 	N 	0.11187 0.10125 0.90831 -0.02600
H 	H 	0.14466 0.06696 0.86896 0.07300
C 	C 	0.20061 0.04762 0.83883 0.04300
C 	C 	0.20317 0.02526 0.81513 -0.01800
C 	C 	0.19861 0.03214 0.78315 -0.11300
C 	C 	0.19600 0.06244 0.77457 0.12900
C 	C 	0.19192 0.08451 0.79829 -0.07600
N 	N 	0.20533 0.04036 0.87141 -0.01600
H 	H 	0.20733 0.00231 0.82173 0.04900
N 	N 	0.19811 0.07091 0.74198 -0.02300
H 	H 	0.18735 0.10737 0.79164 0.08800
O 	O 	0.08957 0.08883 0.89366 -0.08500
O 	O 	0.11282 0.10045 0.93917 -0.06500
O 	O 	0.22122 0.15937 0.82778 -0.10700
O 	O 	0.24271 0.11905 0.84913 -0.08800
O 	O 	0.22365 0.06911 0.72673 -0.08200
O 	O 	0.17505 0.08231 0.72820 -0.08100
O 	O 	0.19308 0.01654 0.88338 -0.11500
O 	O 	0.22269 0.05699 0.88882 -0.08800
C 	C 	0.07860 0.30841 0.01752 0.12200
C 	C 	0.07545 0.33850 0.00922 -0.08500
C 	C 	0.04797 0.35275 0.01568 0.02500
C 	C 	0.02339 0.33686 0.02637 0.11900
C 	C 	0.02631 0.30658 0.03388 -0.08100
C 	C 	0.05471 0.29324 0.03099 0.01800
O 	O 	0.09932 0.28985 0.00200 -0.17900
C 	C 	0.08506 0.26232 0.00597 0.06400
C 	C 	0.05895 0.26408 0.02397 -0.05600
O 	O 	0.99620 0.34873 0.01721 -0.19400
C 	C 	0.00678 0.37295 0.99976 0.10200
C 	C 	0.03747 0.37559 0.99878 -0.08300
H 	H 	0.09280 0.34949 0.99539 0.07500
H 	H 	0.00662 0.29314 0.03876 0.07800
H 	H 	0.04099 0.24781 0.02270 0.07500
H 	H 	0.04998 0.38662 0.98001 0.06500
C 	C 	0.11049 0.17244 0.32893 -0.06600
C 	C 	0.13173 0.15667 0.34611 0.02100
C 	C 	0.13198 0.15963 0.37954 0.06600
C 	C 	0.10834 0.17446 0.39555 0.00000
C 	C 	0.08495 0.18715 0.37839 -0.09400
C 	C 	0.08771 0.18856 0.34490 0.08900
C 	C 	0.15145 0.13472 0.32927 0.03800
N 	N 	0.15581 0.14702 0.39729 -0.01500
H 	H 	0.10776 0.17533 0.42132 0.07400
N 	N 	0.06821 0.20716 0.32720 -0.03200
H 	H 	0.11136 0.17178 0.30316 0.07800
C 	C 	0.14785 0.10371 0.33407 0.04900
C 	C 	0.16590 0.08325 0.31693 0.02900
C 	C 	0.18602 0.09319 0.29335 -0.11800
C 	C 	0.19035 0.12419 0.28932 0.13700
C 	C 	0.17306 0.14475 0.30731 -0.08200
N 	N 	0.12522 0.09288 0.35555 -0.01100
H 	H 	0.16310 0.05953 0.32083 -0.02200
N 	N 	0.21258 0.13488 0.26731 -0.02500
H 	H 	0.17632 0.16856 0.30407 0.08500
O 	O 	0.05472 0.19628 0.30241 -0.17700
O 	O 	0.06591 0.23554 0.33426 -0.09600
O 	O 	0.18351 0.15258 0.38937 -0.09100
O 	O 	0.14982 0.13136 0.42240 -0.08100
O 	O 	0.20555 0.15478 0.24652 -0.08500
O 	O 	0.24024 0.12621 0.26945 -0.08700
O 	O 	0.09729 0.09979 0.35149 -0.08200
O 	O 	0.13221 0.07397 0.37737 -0.09600
C 	C 	0.93571 0.27524 0.59363 0.12100
C 	C 	0.94732 0.24774 0.58246 -0.08000
C 	C 	0.94547 0.24103 0.54981 0.01900
C 	C 	0.93707 0.26243 0.52843 0.12100
C 	C 	0.92788 0.29084 0.53940 -0.08700
C 	C 	0.92519 0.29581 0.57237 0.02500
O 	O 	0.94360 0.28773 0.62282 -0.18200
C 	C 	0.93738 0.31770 0.61669 0.10400
C 	C 	0.92647 0.32276 0.58682 -0.08500
O 	O 	0.94831 0.25751 0.49775 -0.18000
C 	C 	0.96456 0.23141 0.50297 0.06200
C 	C 	0.96303 0.22137 0.53376 -0.05500
H 	H 	0.95889 0.23298 0.59828 0.08600
H 	H 	0.92471 0.30889 0.52292 0.07500
H 	H 	0.92745 0.34397 0.57472 0.06700
H 	H 	0.97910 0.20655 0.54433 0.07300
C 	C 	0.45096 0.96330 0.00489 -0.04700
C 	C 	0.46788 0.98572 0.02054 0.10400
C 	C 	0.49925 0.98436 0.01893 -0.08500
C 	C 	0.51372 0.96153 0.00126 -0.00300
C 	C 	0.49688 0.93705 0.98952 0.07300
C 	C 	0.46554 0.93814 0.99159 -0.05100
N 	N 	0.45423 0.00897 0.03628 -0.19900
H 	H 	0.51235 0.00235 0.02929 0.06100
C 	C 	0.54474 0.96661 0.98968 -0.00400
N 	N 	0.51060 0.91299 0.97535 -0.19400
H 	H 	0.45246 0.92027 0.98094 0.05300
C 	C 	0.56861 0.95391 0.00589 -0.08500
C 	C 	0.59826 0.95825 0.99527 0.10500
C 	C 	0.60419 0.97837 0.97024 -0.04700
C 	C 	0.58023 0.99093 0.95397 -0.05300
C 	C 	0.55057 0.98463 0.96289 0.07400
H 	H 	0.56404 0.93963 0.02599 0.05900
N 	N 	0.62062 0.94198 0.00804 -0.19800
H 	H 	0.58466 0.00606 0.93456 0.05400
N 	N 	0.52783 0.99602 0.94573 -0.19500
H 	H 	0.61634 0.92855 0.02771 0.09400
H 	H 	0.64181 0.94079 0.99723 0.10100
H 	H 	0.53241 0.00987 0.92646 0.08800
H 	H 	0.50552 0.99075 0.95074 0.09300
H 	H 	0.49794 0.89547 0.96577 0.08900
H 	H 	0.53386 0.91105 0.97445 0.09200
H 	H 	0.43099 0.01016 0.03876 0.10200
H 	H 	0.46694 0.02589 0.04695 0.09400
C 	C 	0.43266 0.01153 0.66865 -0.04600
C 	C 	0.43327 0.03808 0.65069 0.10300
C 	C 	0.46084 0.05195 0.64397 -0.08500
C 	C 	0.48756 0.04018 0.65542 -0.00500
C 	C 	0.48701 0.01303 0.67236 0.07500
C 	C 	0.45954 0.99884 0.67847 -0.05300
N 	N 	0.40756 0.05072 0.64046 -0.19900
H 	H 	0.46139 0.07257 0.63073 0.05900
C 	C 	0.51537 0.05808 0.65258 -0.00400
N 	N 	0.51264 0.00078 0.68332 -0.19400
H 	H 	0.45900 0.97831 0.69186 0.05300
C 	C 	0.52075 0.08068 0.67529 -0.08500
C 	C 	0.54919 0.09372 0.67761 0.10500
C 	C 	0.57283 0.08307 0.65765 -0.04800
C 	C 	0.56658 0.06308 0.63256 -0.05200
C 	C 	0.53782 0.05071 0.62957 0.07300
H 	H 	0.50304 0.08741 0.69189 0.05800
N 	N 	0.55374 0.11636 0.69902 -0.19900
H 	H 	0.58445 0.05588 0.61640 0.05400
N 	N 	0.53212 0.03133 0.60513 -0.19400
H 	H 	0.53651 0.12335 0.71457 0.09000
H 	H 	0.57398 0.12802 0.69951 0.09800
H 	H 	0.54908 0.02524 0.58883 0.09200
H 	H 	0.51067 0.02282 0.60154 0.09400
H 	H 	0.51193 0.98081 0.69590 0.08800
H 	H 	0.53345 0.01080 0.67953 0.09300
H 	H 	0.38665 0.04132 0.64541 0.09800
H 	H 	0.40829 0.07036 0.62732 0.09300
C 	C 	0.65210 0.07214 0.73515 -0.04600
C 	C 	0.66204 0.09271 0.75874 0.11100
C 	C 	0.66900 0.08228 0.78901 -0.07600
C 	C 	0.66431 0.05223 0.79686 0.00400
C 	C 	0.65321 0.03191 0.77363 0.07300
C 	C 	0.64851 0.04186 0.74265 -0.04700
N 	N 	0.66389 0.12255 0.75296 -0.19900
H 	H 	0.67702 0.09789 0.80696 0.07000
C 	C 	0.66778 0.04332 0.83044 -0.00100
N 	N 	0.64628 0.00317 0.78108 -0.19300
H 	H 	0.64068 0.02620 0.72464 0.05300
C 	C 	0.64793 0.05521 0.85355 -0.08300
C 	C 	0.64968 0.04676 0.88537 0.10600
C 	C 	0.67060 0.02468 0.89391 -0.04400
C 	C 	0.69156 0.01396 0.87129 -0.05100
C 	C 	0.69060 0.02330 0.83957 0.08800
H 	H 	0.63105 0.07118 0.84671 0.05700
N 	N 	0.63140 0.06005 0.90767 -0.19900
H 	H 	0.70808 0.99761 0.87810 0.06500
N 	N 	0.71104 0.01241 0.81797 -0.19300
H 	H 	0.61510 0.07536 0.90098 0.09000
H 	H 	0.63402 0.05634 0.93191 0.09900
H 	H 	0.72660 0.99633 0.82456 0.10200
H 	H 	0.71193 0.01995 0.79464 0.11800
H 	H 	0.63898 0.98817 0.76351 0.08900
H 	H 	0.64706 0.99564 0.80438 0.09200
H 	H 	0.65544 0.13170 0.73233 0.10200
H 	H 	0.67258 0.13726 0.77004 0.09600
C 	C 	0.85859 0.10083 0.28558 -0.07900
C 	C 	0.88883 0.09730 0.29307 0.02700
C 	C 	0.90572 0.07421 0.27823 0.04900
C 	C 	0.89203 0.05431 0.25702 -0.01900
C 	C 	0.86182 0.05769 0.24959 -0.13500
C 	C 	0.84503 0.08122 0.26376 0.12400
C 	C 	0.90186 0.11571 0.31884 0.02600
N 	N 	0.93682 0.07086 0.28477 -0.01400
H 	H 	0.90496 0.03626 0.24623 0.03400
N 	N 	0.81412 0.08502 0.25646 -0.02700
H 	H 	0.84546 0.11841 0.29717 0.08500
C 	C 	0.91592 0.14319 0.31218 0.05500
C 	C 	0.93149 0.15844 0.33612 -0.01600
C 	C 	0.93312 0.14659 0.36674 -0.12200
C 	C 	0.91862 0.11923 0.37345 0.13300
C 	C 	0.90270 0.10429 0.34962 -0.07500
N 	N 	0.91515 0.15525 0.28090 -0.01400
H 	H 	0.94248 0.17946 0.33083 0.02600
N 	N 	0.92174 0.10552 0.40367 -0.02400
H 	H 	0.89212 0.08302 0.35469 0.07400
O 	O 	0.80467 0.11061 0.24632 -0.08300
O 	O 	0.79503 0.06378 0.26248 -0.10700
O 	O 	0.94642 0.04630 0.29722 -0.10600
O 	O 	0.95589 0.09088 0.27509 -0.08300
O 	O 	0.89845 0.10233 0.42230 -0.08200
O 	O 	0.94708 0.09342 0.41106 -0.08300
O 	O 	0.88972 0.16260 0.26870 -0.08700
O 	O 	0.94001 0.16119 0.26571 -0.10300
C 	C 	0.04737 0.02516 0.25256 -0.07000
C 	C 	0.03855 0.00894 0.22554 0.03100
C 	C 	0.05978 0.00162 0.20149 0.06600
C 	C 	0.08986 0.00941 0.20539 0.00300
C 	C 	0.09916 0.02390 0.23346 -0.08200
C 	C 	0.07735 0.03328 0.25640 0.12100
C 	C 	0.00695 0.99992 0.22245 0.02400
N 	N 	0.05099 0.98573 0.17333 -0.01600
H 	H 	0.10618 0.00286 0.18720 0.08100
N 	N 	0.08529 0.05213 0.28276 -0.02100
H 	H 	0.03084 0.03168 0.27057 0.09200
C 	C 	0.99508 0.97648 0.24077 0.06700
C 	C 	0.96467 0.96930 0.23892 -0.00500
C 	C 	0.94572 0.98557 0.21926 -0.08800
C 	C 	0.95787 0.00873 0.20047 0.12300
C 	C 	0.98834 0.01572 0.20223 -0.06400
N 	N 	0.01376 0.96024 0.26172 -0.01700
H 	H 	0.95577 0.95114 0.25300 0.07800
N 	N 	0.93934 0.02547 0.17992 -0.02500
H 	H 	0.99746 0.03375 0.18810 0.08800
O 	O 	0.08108 0.04291 0.31167 -0.09700
O 	O 	0.09452 0.07932 0.27793 -0.08400
O 	O 	0.05615 0.99718 0.14554 -0.08200
O 	O 	0.03996 0.95886 0.17532 -0.07500
O 	O 	0.93563 0.01626 0.15075 -0.07200
O 	O 	0.92983 0.05187 0.18884 -0.08300
O 	O 	0.00692 0.95909 0.29187 -0.09600
O 	O 	0.03651 0.94508 0.25036 -0.08600
C 	C 	0.71745 0.01773 0.05134 0.11700
C 	C 	0.71919 0.00728 0.08248 -0.08100
C 	C 	0.74529 0.99235 0.09110 0.01500
C 	C 	0.76978 0.99016 0.07083 0.12200
C 	C 	0.76826 0.00093 0.03979 -0.08500
C 	C 	0.74189 0.01539 0.03085 0.03000
O 	O 	0.69033 0.02005 0.03606 -0.19900
C 	C 	0.70066 0.01803 0.00453 0.10500
C 	C 	0.73133 0.01540 0.00116 -0.08400
O 	O 	0.79674 0.98639 0.08620 -0.17400
C 	C 	0.78588 0.98690 0.11760 0.06200
C 	C 	0.75534 0.99047 0.12080 -0.05700
H 	H 	0.70025 0.00926 0.09882 0.07400
H 	H 	0.78718 0.99878 0.02345 0.08500
H 	H 	0.74269 0.00528 0.98066 0.08300
H 	H 	0.74383 0.99919 0.14191 0.07100
C 	C 	0.00326 0.13740 0.71289 -0.06700
C 	C 	0.00823 0.10812 0.72304 0.02500
C 	C 	0.98443 0.09156 0.73632 0.07200
C 	C 	0.95633 0.10490 0.74069 0.00000
C 	C 	0.95135 0.13439 0.73116 -0.07600
C 	C 	0.97485 0.15051 0.71651 0.12500
C 	C 	0.03857 0.09514 0.72079 0.02200
N 	N 	0.98850 0.06084 0.74448 -0.01300
H 	H 	0.93839 0.09228 0.75160 0.09500
N 	N 	0.97014 0.18034 0.70583 -0.02200
H 	H 	0.02151 0.15009 0.70244 0.08000
C 	C 	0.04555 0.07324 0.69733 0.06800
C 	C 	0.07086 0.05513 0.70055 -0.00600
C 	C 	0.08948 0.05879 0.72691 -0.08300
C 	C 	0.08399 0.08284 0.74865 0.11300
C 	C 	0.05862 0.10080 0.74538 -0.06800
N 	N 	0.02626 0.06849 0.67090 -0.01600
H 	H 	0.07550 0.03760 0.68301 0.08000
N 	N 	0.10427 0.08940 0.77370 -0.02200
H 	H 	0.05372 0.11827 0.76293 0.06300
O 	O 	0.97587 0.18694 0.67635 -0.08400
O 	O 	0.96249 0.20138 0.72611 -0.09100
O 	O 	0.97167 0.04024 0.73186 -0.06500
O 	O 	0.00790 0.05365 0.76570 -0.07800
O 	O 	0.12669 0.10734 0.76862 -0.11300
O 	O 	0.09770 0.08133 0.80256 -0.12700
O 	O 	0.01931 0.09073 0.65290 -0.08400
O 	O 	0.01668 0.04170 0.66401 -0.06800
C 	C 	0.99040 0.27501 0.83699 -0.08400
C 	C 	0.98028 0.25102 0.81818 0.02800
C 	C 	0.99483 0.22305 0.81937 0.03700
C 	C 	0.01771 0.21883 0.84113 0.00100
C 	C 	0.02615 0.24221 0.86175 -0.14300
C 	C 	0.01317 0.27075 0.85885 0.13300
C 	C 	0.95252 0.25432 0.80012 0.02400
N 	N 	0.98629 0.19880 0.79873 -0.00800
H 	H 	0.02776 0.19689 0.84314 -0.03500
N 	N 	0.02272 0.29531 0.87849 -0.02700
H 	H 	0.97980 0.29666 0.83554 0.07500
C 	C 	0.92467 0.24700 0.81416 0.03100
C 	C 	0.89960 0.24364 0.79501 -0.03300
C 	C 	0.90245 0.24600 0.76185 -0.12100
C 	C 	0.92876 0.25880 0.74888 0.13100
C 	C 	0.95410 0.26185 0.76790 -0.08100
N 	N 	0.92245 0.23997 0.84722 -0.01200
H 	H 	0.87856 0.23648 0.80561 -0.00400
N 	N 	0.92942 0.26988 0.71712 -0.02300
H 	H 	0.97513 0.26914 0.75745 0.07500
O 	O 	0.00342 0.30971 0.89651 -0.09200
O 	O 	0.05053 0.30388 0.87760 -0.10700
O 	O 	0.00633 0.18570 0.78049 -0.13000
O 	O 	0.95958 0.18741 0.80113 -0.13200
O 	O 	0.90897 0.28853 0.70826 -0.08600
O 	O 	0.95188 0.26356 0.69807 -0.07800
O 	O 	0.92938 0.25994 0.86872 -0.10400
O 	O 	0.91200 0.21412 0.85586 -0.16200
C 	C 	0.76238 0.16248 0.61779 0.12200
C 	C 	0.74559 0.13667 0.61098 -0.08700
C 	C 	0.71431 0.13826 0.61427 0.02600
C 	C 	0.70041 0.16310 0.62776 0.11700
C 	C 	0.71744 0.18813 0.63673 -0.08400
C 	C 	0.74826 0.18796 0.62957 0.01500
O 	O 	0.79248 0.16085 0.62527 -0.17900
C 	C 	0.79482 0.18699 0.64379 0.06000
C 	C 	0.76870 0.20340 0.64620 -0.05900
O 	O 	0.67290 0.15695 0.64215 -0.20300
C 	C 	0.67193 0.12604 0.63665 0.10400
C 	C 	0.69649 0.11469 0.62020 -0.08600
H 	H 	0.75666 0.11554 0.60573 0.07900
H 	H 	0.70744 0.20606 0.65099 0.07100
H 	H 	0.76330 0.21897 0.66553 0.06500
H 	H 	0.70419 0.09175 0.62155 0.06800
C 	C 	0.97762 0.58048 0.63331 -0.04700
C 	C 	0.99559 0.56154 0.65167 0.10400
C 	C 	0.99144 0.53042 0.64965 -0.08300
C 	C 	0.97088 0.51792 0.62844 -0.00500
C 	C 	0.95493 0.53673 0.60799 0.07400
C 	C 	0.95815 0.56791 0.61096 -0.05200
N 	N 	0.01727 0.57300 0.67061 -0.19900
H 	H 	0.00420 0.51587 0.66470 0.05700
C 	C 	0.96430 0.48548 0.62990 -0.00400
N 	N 	0.93660 0.52503 0.58550 -0.19400
H 	H 	0.94498 0.58245 0.59629 0.05600
C 	C 	0.93903 0.47602 0.64721 -0.08500
C 	C 	0.93369 0.44547 0.65194 0.10400
C 	C 	0.95477 0.42413 0.64029 -0.04900
C 	C 	0.97913 0.43344 0.62145 -0.05100
C 	C 	0.98397 0.46399 0.61584 0.07400
H 	H 	0.92356 0.49253 0.65719 0.05700
N 	N 	0.90817 0.43674 0.66730 -0.19900
H 	H 	0.99482 0.41695 0.61186 0.05400
N 	N 	0.00741 0.47249 0.59697 -0.19500
H 	H 	0.89330 0.45268 0.67692 0.08900
H 	H 	0.90223 0.41419 0.66870 0.09700
H 	H 	0.02222 0.45652 0.58731 0.09100
H 	H 	0.01072 0.49485 0.59101 0.09400
H 	H 	0.92428 0.53911 0.57108 0.09200
H 	H 	0.93505 0.50196 0.58146 0.09300
H 	H 	0.02316 0.59560 0.66998 0.09800
H 	H 	0.02957 0.55896 0.68509 0.09000
C 	C 	0.92389 0.61642 0.95433 -0.04800
C 	C 	0.94623 0.60717 0.97548 0.10400
C 	C 	0.95044 0.57648 0.98058 -0.08500
C 	C 	0.93319 0.55508 0.96445 -0.00400
C 	C 	0.90926 0.56444 0.94543 0.07400
C 	C 	0.90490 0.59510 0.94052 -0.05100
N 	N 	0.96407 0.62749 0.99038 -0.20000
H 	H 	0.96821 0.56920 0.99584 0.05900
C 	C 	0.94282 0.52339 0.96423 -0.00300
N 	N 	0.89075 0.54414 0.93145 -0.19400
H 	H 	0.88729 0.60234 0.92501 0.05300
C 	C 	0.93059 0.50401 0.98691 -0.08600
C 	C 	0.93662 0.47315 0.98520 0.10500
C 	C 	0.95644 0.46185 0.96117 -0.04900
C 	C 	0.96963 0.48147 0.93937 -0.05100
C 	C 	0.96294 0.51213 0.94052 0.07300
H 	H 	0.91536 0.51280 0.00516 0.06000
N 	N 	0.92265 0.45452 0.00599 -0.19900
H 	H 	0.98504 0.47278 0.92123 0.05100
N 	N 	0.97580 0.53058 0.91876 -0.19400
H 	H 	0.90860 0.46320 0.02404 0.09400
H 	H 	0.92483 0.43131 0.00398 0.10200
H 	H 	0.99037 0.52196 0.90115 0.08700
H 	H 	0.97174 0.55358 0.91917 0.09200
H 	H 	0.87364 0.55124 0.91676 0.08900
H 	H 	0.89270 0.52125 0.93553 0.09200
H 	H 	0.96137 0.65047 0.98741 0.09800
H 	H 	0.98081 0.62038 0.00554 0.09300
C 	C 	0.95968 0.66691 0.70472 -0.04900
C 	C 	0.93507 0.65569 0.72253 0.10400
C 	C 	0.93195 0.66347 0.75489 -0.08500
C 	C 	0.95147 0.68413 0.76903 -0.00400
C 	C 	0.97417 0.69776 0.75033 0.07400
C 	C 	0.97848 0.68849 0.71848 -0.05200
N 	N 	0.91391 0.63830 0.70851 -0.19900
H 	H 	0.91407 0.65367 0.76905 0.05700
C 	C 	0.94912 0.68973 0.80385 -0.00400
N 	N 	0.99163 0.71987 0.76267 -0.19400
H 	H 	0.99680 0.69777 0.70454 0.05400
C 	C 	0.97056 0.67723 0.82358 -0.08400
C 	C 	0.96657 0.67809 0.85677 0.10500
C 	C 	0.93948 0.68939 0.87017 -0.04600
C 	C 	0.91910 0.70387 0.85064 -0.05000
C 	C 	0.92405 0.70478 0.81760 0.07600
H 	H 	0.99036 0.66673 0.81308 0.05800
N 	N 	0.98902 0.66880 0.87561 -0.19800
H 	H 	0.89888 0.71362 0.86102 0.05900
N 	N 	0.90479 0.72013 0.79926 -0.19400
H 	H 	0.00836 0.65912 0.86556 0.08900
H 	H 	0.98827 0.67272 0.90016 0.09700
H 	H 	0.88577 0.73029 0.80944 0.09300
H 	H 	0.90910 0.72310 0.77504 0.09400
H 	H 	0.00894 0.72915 0.74900 0.09200
H 	H 	0.98757 0.72878 0.78546 0.09700
H 	H 	0.91332 0.63546 0.68383 0.09700
H 	H 	0.89665 0.62888 0.72214 0.08900
C 	C 	0.92217 0.06182 0.88208 -0.06800
C 	C 	0.95301 0.05604 0.88099 0.02700
C 	C 	0.96336 0.02633 0.87724 0.06700
C 	C 	0.94277 0.00276 0.87520 -0.00200
C 	C 	0.91194 0.00852 0.87618 -0.09100
C 	C 	0.90154 0.03823 0.87988 0.12400
C 	C 	0.97442 0.08101 0.88520 0.02900
N 	N 	0.99478 0.02002 0.87556 -0.01400
H 	H 	0.95079 0.97994 0.87244 0.06400
N 	N 	0.87015 0.04443 0.88278 -0.02400
H 	H 	0.91420 0.08461 0.88532 0.07800
C 	C 	0.98029 0.10114 0.86038 0.05900
C 	C 	0.00200 0.12353 0.86423 -0.00300
C 	C 	0.01771 0.12623 0.89272 -0.08900
C 	C 	0.01097 0.10674 0.91795 0.13300
C 	C 	0.98948 0.08425 0.91399 -0.07200
N 	N 	0.96422 0.09898 0.83128 -0.01600
H 	H 	0.00686 0.13863 0.84490 0.05000
N 	N 	0.02633 0.10927 0.94736 -0.02400
H 	H 	0.98472 0.06904 0.93324 0.08800
O 	O 	0.85849 0.06573 0.86635 -0.10700
O 	O 	0.85403 0.03129 0.90450 -0.08000
O 	O 	0.00614 0.00012 0.89404 -0.08300
O 	O 	0.01165 0.03262 0.85409 -0.07900
O 	O 	0.01659 0.12782 0.96938 -0.08000
O 	O 	0.04695 0.08994 0.95395 -0.06500
O 	O 	0.96409 0.07399 0.81494 -0.07200
O 	O 	0.95078 0.12240 0.82042 -0.10900
C 	C 	0.78712 0.02467 0.85273 -0.07900
C 	C 	0.79026 0.02577 0.81952 0.03100
C 	C 	0.78914 0.99894 0.80148 0.03000
C 	C 	0.79116 0.97148 0.81683 -0.02900
C 	C 	0.79446 0.97083 0.84993 -0.11200
C 	C 	0.78800 0.99703 0.86803 0.12600
C 	C 	0.80275 0.05292 0.80492 0.02300
N 	N 	0.78834 0.99963 0.76746 -0.01500
H 	H 	0.79268 0.95092 0.80283 0.03200
N 	N 	0.78061 0.99540 0.90128 -0.02200
H 	H 	0.78547 0.04526 0.86667 0.09200
C 	C 	0.78415 0.07684 0.79652 0.05700
C 	C 	0.79643 0.10142 0.78065 0.00100
C 	C 	0.82693 0.10191 0.77236 -0.10400
C 	C 	0.84541 0.07786 0.78054 0.11500
C 	C 	0.83336 0.05380 0.79724 -0.06500
N 	N 	0.75255 0.07524 0.80179 -0.01500
H 	H 	0.78210 0.11982 0.77418 0.05700
N 	N 	0.87635 0.07751 0.77140 -0.03100
H 	H 	0.84768 0.03528 0.80344 0.07000
O 	O 	0.76172 0.97535 0.91131 -0.10000
O 	O 	0.79059 0.01559 0.92107 -0.08600
O 	O 	0.80703 0.98350 0.75039 -0.13900
O 	O 	0.76841 0.01578 0.75354 -0.09500
O 	O 	0.89662 0.07592 0.79309 -0.09500
O 	O 	0.88399 0.07421 0.74156 -0.08700
O 	O 	0.74147 0.07710 0.83057 -0.11200
O 	O 	0.73478 0.07543 0.77768 -0.10500
C 	C 	0.98531 0.89180 0.80663 -0.07900
C 	C 	0.99008 0.92078 0.79523 0.03100
C 	C 	0.96806 0.94301 0.80067 0.04100
C 	C 	0.94179 0.93607 0.81768 -0.00600
C 	C 	0.93783 0.90760 0.83066 -0.14000
C 	C 	0.95945 0.88515 0.82453 0.13300
C 	C 	0.01856 0.92793 0.77842 0.02800
N 	N 	0.97269 0.97290 0.78983 -0.01600
H 	H 	0.92518 0.95332 0.82217 -0.02600
N 	N 	0.95515 0.85555 0.83634 -0.02600
H 	H 	0.00190 0.87450 0.80193 0.08300
C 	C 	0.04576 0.92824 0.79485 0.04400
C 	C 	0.07255 0.93470 0.77857 -0.01400
C 	C 	0.07247 0.94215 0.74626 -0.13000
C 	C 	0.04504 0.94265 0.73004 0.13100
C 	C 	0.01845 0.93473 0.74600 -0.07900
N 	N 	0.04618 0.92256 0.82823 -0.02000
H 	H 	0.09341 0.93445 0.79129 -0.00100
N 	N 	0.04381 0.95275 0.69803 -0.02300
H 	H 	0.99753 0.93479 0.73337 0.08400
O 	O 	0.93105 0.84063 0.82945 -0.10500
O 	O 	0.97621 0.84276 0.85215 -0.08700
O 	O 	0.95241 0.98576 0.77300 -0.10600
O 	O 	0.99564 0.98826 0.79944 -0.07700
O 	O 	0.04728 0.98103 0.69208 -0.08400
O 	O 	0.03602 0.93430 0.67540 -0.08100
O 	O 	0.06277 0.90118 0.83889 -0.10400
O 	O 	0.03165 0.94008 0.84815 -0.08900
C 	C 	0.86914 0.81535 0.98644 0.12300
C 	C 	0.89122 0.79463 0.99441 -0.08600
C 	C 	0.88442 0.76400 0.99204 0.02600
C 	C 	0.85822 0.75414 0.97847 0.11800
C 	C 	0.83693 0.77488 0.96866 -0.08400
C 	C 	0.84215 0.80541 0.97472 0.01600
O 	O 	0.87640 0.84439 0.97782 -0.17600
C 	C 	0.85186 0.85049 0.95894 0.06200
C 	C 	0.83132 0.82755 0.95709 -0.06000
O 	O 	0.86035 0.72572 0.96469 -0.20100
C 	C 	0.89037 0.71978 0.97054 0.10400
C 	C 	0.90488 0.74237 0.98680 -0.08600
H 	H 	0.91368 0.80208 0.99970 0.08000
H 	H 	0.81823 0.76765 0.95442 0.07100
H 	H 	0.81587 0.82432 0.93776 0.06500
H 	H 	0.92883 0.74613 0.98559 0.06700
C 	C 	0.01756 0.03528 0.36535 -0.06300
C 	C 	0.02546 0.01900 0.39211 0.03000
C 	C 	0.03189 0.03422 0.42082 0.06400
C 	C 	0.03032 0.06556 0.42247 0.00600
C 	C 	0.02218 0.08189 0.39575 -0.07900
C 	C 	0.01553 0.06655 0.36709 0.12400
C 	C 	0.02730 0.98598 0.38978 0.02800
N 	N 	0.04020 0.01794 0.44832 -0.01600
H 	H 	0.03560 0.07718 0.44450 0.07600
N 	N 	0.00601 0.08263 0.33994 -0.02700
H 	H 	0.01260 0.02361 0.34325 0.09000
C 	C 	0.00107 0.96847 0.38861 0.06300
C 	C 	0.00325 0.93727 0.38525 0.00400
C 	C 	0.03135 0.92339 0.38299 -0.08800
C 	C 	0.05752 0.94093 0.38335 0.11800
C 	C 	0.05538 0.97208 0.38722 -0.06600
N 	N 	0.97219 0.98231 0.39054 -0.01600
H 	H 	0.98307 0.92384 0.38464 0.06900
N 	N 	0.08616 0.92736 0.37786 -0.02600
H 	H 	0.07556 0.98555 0.38735 0.08200
O 	O 	0.02091 0.08022 0.31316 -0.10200
O 	O 	0.98159 0.09842 0.34151 -0.14600
O 	O 	0.06538 0.02379 0.46212 -0.08100
O 	O 	0.02174 0.99873 0.46078 -0.07500
O 	O 	0.10694 0.93041 0.39889 -0.08900
O 	O 	0.09226 0.91420 0.35068 -0.13100
O 	O 	0.96440 0.99814 0.41560 -0.07600
O 	O 	0.95301 0.97755 0.36813 -0.08900
C 	C 	0.86954 0.87600 0.29495 -0.07500
C 	C 	0.89936 0.87035 0.28582 0.02200
C 	C 	0.90996 0.87921 0.25566 0.05400
C 	C 	0.89108 0.89486 0.23562 0.00100
C 	C 	0.86201 0.90280 0.24587 -0.11200
C 	C 	0.85078 0.89214 0.27514 0.10200
C 	C 	0.91985 0.85666 0.30859 0.02600
N 	N 	0.94027 0.87343 0.24582 -0.01600
H 	H 	0.89977 0.90265 0.21300 0.07100
N 	N 	0.82037 0.89777 0.28483 -0.02700
H 	H 	0.86109 0.86837 0.31774 0.08100
C 	C 	0.93008 0.87331 0.33502 0.05200
C 	C 	0.94999 0.86026 0.35599 0.00200
C 	C 	0.96087 0.83118 0.35015 -0.11300
C 	C 	0.95020 0.81431 0.32406 0.11200
C 	C 	0.92967 0.82712 0.30350 -0.07500
N 	N 	0.92106 0.90381 0.34003 -0.01600
H 	H 	0.95808 0.87329 0.37604 0.06500
N 	N 	0.95988 0.78407 0.31860 -0.02700
H 	H 	0.92148 0.81415 0.28344 0.08300
O 	O 	0.81433 0.90863 0.31313 -0.12200
O 	O 	0.79865 0.89052 0.26603 -0.09200
O 	O 	0.94586 0.85776 0.22004 -0.09500
O 	O 	0.96217 0.88590 0.26109 -0.10200
O 	O 	0.95608 0.76430 0.34065 -0.08900
O 	O 	0.97061 0.77585 0.29083 -0.10600
O 	O 	0.90840 0.91207 0.36686 -0.10300
O 	O 	0.92788 0.92379 0.31896 -0.11300
C 	C 	0.13854 0.84345 0.30425 -0.07600
C 	C 	0.15377 0.86937 0.31402 0.02500
C 	C 	0.15397 0.87751 0.34659 0.06200
C 	C 	0.13685 0.86117 0.36847 0.00600
C 	C 	0.11883 0.83736 0.35804 -0.11700
C 	C 	0.12122 0.82727 0.32611 0.08200
C 	C 	0.16530 0.89019 0.28978 0.02200
N 	N 	0.17031 0.90323 0.35729 -0.00900
H 	H 	0.13593 0.86842 0.39320 0.07700
N 	N 	0.10617 0.80057 0.31586 -0.03400
H 	H 	0.13936 0.83644 0.27945 0.07700
C 	C 	0.19621 0.89583 0.28630 0.05500
C 	C 	0.20610 0.91968 0.26755 -0.00500
C 	C 	0.18547 0.93732 0.25153 -0.13000
C 	C 	0.15478 0.93008 0.25300 0.10300
C 	C 	0.14491 0.90664 0.27220 -0.07800
N 	N 	0.21755 0.87773 0.30219 -0.01400
H 	H 	0.22978 0.92480 0.26588 0.05500
N 	N 	0.13344 0.94707 0.23590 -0.03600
H 	H 	0.12118 0.90182 0.27424 0.07100
O 	O 	0.10996 0.77569 0.33088 -0.09200
O 	O 	0.09018 0.80071 0.29033 -0.17800
O 	O 	0.16272 0.92980 0.34817 -0.13100
O 	O 	0.19080 0.90035 0.37857 -0.08500
O 	O 	0.10905 0.95637 0.25024 -0.11600
O 	O 	0.13616 0.94926 0.20518 -0.08700
O 	O 	0.21678 0.84872 0.29896 -0.08800
O 	O 	0.23883 0.89031 0.31833 -0.09100
C 	C 	0.02805 0.74999 0.53248 0.12000
C 	C 	0.01035 0.74873 0.56032 -0.08800
C 	C 	0.99417 0.72240 0.56607 0.02500
C 	C 	0.99697 0.69755 0.54635 0.11800
C 	C 	0.01496 0.69866 0.51876 -0.08500
C 	C 	0.03113 0.72499 0.51292 0.01700
O 	O 	0.03407 0.77679 0.51733 -0.17800
C 	C 	0.04042 0.76547 0.48675 0.06200
C 	C 	0.03884 0.73469 0.48392 -0.05900
O 	O 	0.99000 0.67077 0.56103 -0.19900
C 	C 	0.98337 0.68196 0.59161 0.10000
C 	C 	0.98580 0.71268 0.59490 -0.08500
H 	H 	0.00819 0.76804 0.57613 0.07600
H 	H 	0.01704 0.67936 0.50292 0.07400
H 	H 	0.03476 0.72250 0.46191 0.07100
H 	H 	0.98970 0.72458 0.61712 0.06600
