data_crystal

_cell_length_a 22.28074
_cell_length_b 21.97977
_cell_length_c 49.78977
_cell_angle_alpha 89.89140
_cell_angle_beta  89.89339
_cell_angle_gamma 119.76624

_symmetry_space_group_name_	'P 1'
_symmetry_space_group_name_H-M	'P 1'

loop_
_symmetry_equiv_pos_as_xyz
  x,y,z

loop_
_atom_site_label
_atom_site_type_symbol
_atom_site_fract_x
_atom_site_fract_y
_atom_site_fract_z
_atom_site_charge
C 	C 	0.66061 0.44789 0.97503 0.31600
C 	C 	0.58633 0.17098 0.93420 0.32000
C 	C 	0.75815 0.35740 0.97583 0.33100
C 	C 	0.48543 0.26514 0.92403 0.29300
C 	C 	0.75977 0.33225 0.88971 0.31800
C 	C 	0.67685 0.44265 0.87919 0.29500
Ni	Ni	0.60764 0.29741 0.96207 1.11700
Ni	Ni	0.61459 0.28949 0.89734 1.12200
Ni	Ni	0.73462 0.41910 0.92838 1.12100
O 	O 	0.60404 0.38626 0.97227 -0.37500
O 	O 	0.72003 0.46395 0.96252 -0.37700
O 	O 	0.69828 0.27875 0.89441 -0.39000
O 	O 	0.62653 0.21810 0.95137 -0.37800
O 	O 	0.56418 0.19000 0.91306 -0.36600
O 	O 	0.70085 0.46705 0.90354 -0.38900
O 	O 	0.69680 0.33845 0.98591 -0.35200
O 	O 	0.76751 0.36387 0.94995 -0.39400
O 	O 	0.65380 0.37553 0.87247 -0.37900
O 	O 	0.50667 0.24532 0.94580 -0.35600
O 	O 	0.52353 0.28705 0.90177 -0.37800
O 	O 	0.77415 0.39626 0.89581 -0.38800
O 	O 	0.64235 0.34388 0.92929 -0.71800
H 	H 	0.61696 0.36972 0.92734 0.16700
C 	C 	0.76495 0.39993 0.50965 0.31400
C 	C 	0.56805 0.15810 0.57245 0.34000
C 	C 	0.57911 0.32008 0.51288 0.33500
C 	C 	0.76497 0.25006 0.57526 0.29200
C 	C 	0.56445 0.33629 0.59694 0.31500
C 	C 	0.76170 0.45167 0.60349 0.29500
Ni	Ni	0.66713 0.26194 0.53447 1.11700
Ni	Ni	0.66885 0.29242 0.59828 1.12300
Ni	Ni	0.67278 0.40332 0.55564 1.12300
O 	O 	0.75739 0.33928 0.51780 -0.37200
O 	O 	0.72708 0.42691 0.51962 -0.36100
O 	O 	0.57666 0.28541 0.60303 -0.38700
O 	O 	0.57211 0.19401 0.55101 -0.38300
O 	O 	0.61555 0.18672 0.59119 -0.37100
O 	O 	0.75753 0.46238 0.57747 -0.38800
O 	O 	0.61723 0.29225 0.50605 -0.35800
O 	O 	0.58203 0.34323 0.53714 -0.39200
O 	O 	0.72118 0.38971 0.61544 -0.37700
O 	O 	0.71761 0.21753 0.55615 -0.35300
O 	O 	0.75467 0.28421 0.59512 -0.37800
O 	O 	0.61430 0.39679 0.58785 -0.38500
O 	O 	0.68660 0.32661 0.56223 -0.71900
H 	H 	0.73753 0.35160 0.56241 0.16300
C 	C 	0.97384 0.10492 0.70656 0.25700
C 	C 	0.95172 0.88391 0.77807 0.28200
C 	C 	0.94258 0.08461 0.78103 0.28400
C 	C 	0.98713 0.89702 0.70604 0.26500
C 	C 	0.13459 0.08271 0.79498 0.31300
C 	C 	0.17430 0.11888 0.71788 0.29300
Ni	Ni	0.93227 0.97751 0.74074 1.09500
Ni	Ni	0.08111 0.98644 0.74908 1.10800
Ni	Ni	0.07089 0.12552 0.75249 1.12100
O 	O 	0.93577 0.03546 0.70723 -0.35900
O 	O 	0.00493 0.14153 0.72856 -0.35000
O 	O 	0.10198 0.01668 0.78762 -0.37000
O 	O 	0.93009 0.92930 0.77667 -0.39000
O 	O 	0.00444 0.89227 0.76333 -0.35800
O 	O 	0.14085 0.15341 0.72312 -0.38300
O 	O 	0.90518 0.04312 0.76148 -0.35800
O 	O 	0.00639 0.09891 0.78420 -0.36600
O 	O 	0.17057 0.06884 0.73433 -0.37000
O 	O 	0.93377 0.89628 0.71871 -0.37500
O 	O 	0.05248 0.94159 0.71245 -0.37200
O 	O 	0.14437 0.13261 0.77796 -0.38500
O 	O 	0.02920 0.03107 0.74085 -0.69700
H 	H 	0.03834 0.03828 0.72141 0.16500
C 	C 	0.19767 0.72003 0.41918 0.29300
C 	C 	0.32359 0.54419 0.45111 0.33200
C 	C 	0.36643 0.77168 0.44994 0.33000
C 	C 	0.14847 0.49263 0.42335 0.31900
C 	C 	0.42590 0.68644 0.38249 0.31400
C 	C 	0.25006 0.61437 0.34916 0.30000
Ni	Ni	0.25024 0.62879 0.44812 1.11900
Ni	Ni	0.28956 0.56402 0.39688 1.12600
Ni	Ni	0.31818 0.72074 0.39411 1.12100
O 	O 	0.21426 0.70124 0.44245 -0.36000
O 	O 	0.22820 0.72100 0.39615 -0.38200
O 	O 	0.37756 0.62291 0.37538 -0.38000
O 	O 	0.27645 0.55501 0.46253 -0.36100
O 	O 	0.35051 0.57367 0.42816 -0.38200
O 	O 	0.29830 0.67936 0.35605 -0.38000
O 	O 	0.34952 0.70732 0.45561 -0.37000
O 	O 	0.34721 0.78595 0.42686 -0.38100
O 	O 	0.23496 0.55939 0.36456 -0.38200
O 	O 	0.15572 0.54217 0.44032 -0.36500
O 	O 	0.20243 0.48611 0.41561 -0.36900
O 	O 	0.40997 0.72650 0.39666 -0.39400
O 	O 	0.26920 0.63168 0.41116 -0.71600
H 	H 	0.22283 0.61487 0.40358 0.16700
C 	C 	0.51702 0.75921 0.08781 0.28800
C 	C 	0.22179 0.55971 0.06269 0.32800
C 	C 	0.37567 0.79090 0.06806 0.33400
C 	C 	0.37987 0.53238 0.07707 0.31300
C 	C 	0.24936 0.66221 0.13709 0.31200
C 	C 	0.38842 0.62254 0.15923 0.30100
Ni	Ni	0.37548 0.66069 0.06126 1.12200
Ni	Ni	0.29436 0.56790 0.11350 1.12200
Ni	Ni	0.39414 0.73311 0.12002 1.12200
O 	O 	0.47779 0.74531 0.06583 -0.34600
O 	O 	0.49265 0.75844 0.11231 -0.37300
O 	O 	0.25529 0.60613 0.14128 -0.38300
O 	O 	0.27936 0.57849 0.04930 -0.35900
O 	O 	0.22241 0.56710 0.08877 -0.39200
O 	O 	0.39212 0.68483 0.15577 -0.37500
O 	O 	0.33402 0.72566 0.06241 -0.38100
O 	O 	0.40988 0.80625 0.09086 -0.37300
O 	O 	0.36220 0.57305 0.14070 -0.38700
O 	O 	0.40639 0.58657 0.06047 -0.36400
O 	O 	0.31768 0.50890 0.08810 -0.37600
O 	O 	0.29810 0.71699 0.12439 -0.38700
O 	O 	0.36785 0.65139 0.09872 -0.71600
H 	H 	0.40684 0.64362 0.10254 0.16600
C 	C 	0.07425 0.93846 0.22661 0.28700
C 	C 	0.07025 0.18158 0.28131 0.30600
C 	C 	0.04768 0.95586 0.29963 0.28500
C 	C 	0.11246 0.18142 0.22227 0.28700
C 	C 	0.86920 0.97657 0.28365 0.28400
C 	C 	0.88737 0.96630 0.20713 0.26900
Ni	Ni	0.10468 0.07245 0.25956 1.11500
Ni	Ni	0.96606 0.08393 0.24418 1.10800
Ni	Ni	0.95455 0.93469 0.25335 1.10300
O 	O 	0.11775 0.99123 0.24252 -0.37600
O 	O 	0.00850 0.92116 0.22383 -0.37900
O 	O 	0.87607 0.02047 0.26406 -0.36000
O 	O 	0.11741 0.16226 0.27944 -0.37200
O 	O 	0.00462 0.13561 0.27889 -0.37200
O 	O 	0.87865 0.92468 0.22794 -0.39000
O 	O 	0.08084 0.02401 0.29686 -0.35000
O 	O 	0.01480 0.91583 0.27904 -0.37500
O 	O 	0.92050 0.03541 0.20974 -0.36500
O 	O 	0.13249 0.13437 0.22539 -0.37100
O 	O 	0.04553 0.16333 0.22237 -0.36300
O 	O 	0.91146 0.95144 0.28546 -0.40200
O 	O 	0.01342 0.03200 0.24675 -0.69500
H 	H 	0.02238 0.03161 0.22736 0.16700
C 	C 	0.21084 0.36997 0.19756 -0.06800
C 	C 	0.26219 0.40081 0.21731 0.01100
C 	C 	0.26367 0.35955 0.23865 -0.00100
C 	C 	0.21809 0.28717 0.23877 -0.00700
C 	C 	0.16577 0.25622 0.21934 -0.08500
C 	C 	0.16236 0.29816 0.19855 0.05200
C 	C 	0.31868 0.47404 0.21359 0.01400
S 	S 	0.32099 0.39810 0.26570 -0.03900
H 	H 	0.22227 0.25524 0.25441 0.04100
S 	S 	0.10092 0.26090 0.17270 -0.02400
H 	H 	0.20960 0.40164 0.18108 0.05100
C 	C 	0.38051 0.48825 0.20034 -0.00500
C 	C 	0.42128 0.55383 0.18816 -0.00100
C 	C 	0.39573 0.60052 0.18637 -0.09200
C 	C 	0.34812 0.59483 0.20606 0.05900
C 	C 	0.30591 0.52965 0.21833 -0.07500
S 	S 	0.40309 0.42258 0.19637 -0.03900
H 	H 	0.46579 0.56319 0.17625 0.03700
S 	S 	0.34314 0.66881 0.21597 -0.03700
H 	H 	0.26125 0.52105 0.22996 0.05600
H 	H 	0.12741 0.23888 0.15250 0.04400
H 	H 	0.37174 0.38442 0.17381 0.04000
H 	H 	0.39357 0.70566 0.23452 0.03500
H 	H 	0.38139 0.39810 0.26051 0.03800
C 	C 	0.73088 0.87475 0.16189 -0.07400
C 	C 	0.76224 0.88177 0.13675 0.01300
C 	C 	0.83490 0.91577 0.13482 -0.00400
C 	C 	0.87532 0.94239 0.15802 -0.01100
C 	C 	0.84386 0.93560 0.18315 -0.08300
C 	C 	0.77108 0.90201 0.18499 0.05400
C 	C 	0.71799 0.85453 0.11261 0.01100
S 	S 	0.87577 0.92497 0.10360 -0.05000
H 	H 	0.93121 0.96854 0.15650 0.03200
S 	S 	0.72974 0.89682 0.21580 -0.04500
H 	H 	0.67498 0.84890 0.16337 0.05600
C 	C 	0.68508 0.78249 0.10652 0.00100
C 	C 	0.62294 0.75159 0.09210 -0.00900
C 	C 	0.59227 0.79162 0.08491 -0.07500
C 	C 	0.63280 0.86521 0.08570 0.05300
C 	C 	0.69533 0.89654 0.09989 -0.06800
S 	S 	0.71824 0.72981 0.11857 -0.03900
H 	H 	0.59461 0.69529 0.08937 0.05300
S 	S 	0.60188 0.91798 0.07170 -0.03000
H 	H 	0.72296 0.95274 0.10301 0.05100
H 	H 	0.71753 0.83735 0.22931 0.04200
H 	H 	0.69176 0.70529 0.14365 0.03800
H 	H 	0.62084 0.93086 0.04520 0.04500
H 	H 	0.88223 0.86706 0.09897 0.03600
C 	C 	0.15435 0.69588 0.19056 -0.07500
C 	C 	0.13834 0.74147 0.17655 0.02300
C 	C 	0.13875 0.74134 0.14824 -0.00700
C 	C 	0.16533 0.70433 0.13453 0.00300
C 	C 	0.19128 0.66737 0.14889 -0.09300
C 	C 	0.17647 0.65534 0.17654 0.06000
C 	C 	0.12468 0.79148 0.19155 -0.00100
S 	S 	0.10662 0.78747 0.12984 -0.02900
H 	H 	0.17100 0.70888 0.11287 0.04800
S 	S 	0.17533 0.58362 0.19272 -0.03500
H 	H 	0.14891 0.69147 0.21223 0.05500
C 	C 	0.06263 0.76812 0.20600 0.02700
C 	C 	0.04932 0.81668 0.21885 -0.01600
C 	C 	0.09538 0.88899 0.21623 -0.07300
C 	C 	0.15789 0.91246 0.20196 0.02800
C 	C 	0.17294 0.86350 0.19034 -0.05800
S 	S 	0.99967 0.67856 0.20709 -0.09700
H 	H 	0.00182 0.79829 0.23022 0.04800
S 	S 	0.21561 0.00250 0.19699 -0.00500
H 	H 	0.22099 0.88153 0.17940 0.04700
H 	H 	0.11142 0.52545 0.18984 0.04100
H 	H 	0.01227 0.64753 0.22858 0.05700
H 	H 	0.19737 0.02451 0.17424 0.04500
H 	H 	0.03704 0.74505 0.12594 0.04600
C 	C 	0.60911 0.82262 0.36804 -0.07500
C 	C 	0.61654 0.80609 0.34151 0.01300
C 	C 	0.56662 0.74105 0.33067 -0.00500
C 	C 	0.50613 0.69782 0.34526 -0.00300
C 	C 	0.49641 0.71756 0.37102 -0.09200
C 	C 	0.55173 0.77653 0.38332 0.05700
C 	C 	0.68126 0.85309 0.32678 0.01200
S 	S 	0.58029 0.71201 0.29951 -0.03700
H 	H 	0.46638 0.64962 0.33641 0.04800
S 	S 	0.55247 0.78972 0.41826 -0.03300
H 	H 	0.64948 0.87018 0.37712 0.05000
C 	C 	0.68144 0.89242 0.30425 -0.00500
C 	C 	0.74392 0.93684 0.29099 -0.00900
C 	C 	0.80675 0.94579 0.30102 -0.09100
C 	C 	0.80663 0.91419 0.32578 0.05600
C 	C 	0.74420 0.86469 0.33738 -0.07600
S 	S 	0.60474 0.88882 0.29318 -0.04600
H 	H 	0.74344 0.96362 0.27277 0.04300
S 	S 	0.88352 0.94132 0.34379 -0.05100
H 	H 	0.74460 0.83754 0.35553 0.05200
H 	H 	0.52662 0.83346 0.42365 0.04300
H 	H 	0.59523 0.93742 0.30686 0.03300
H 	H 	0.89568 0.99680 0.35986 0.03100
H 	H 	0.54885 0.72904 0.27958 0.03700
C 	C 	0.15982 0.36755 0.30785 -0.07100
C 	C 	0.14500 0.40233 0.28746 0.01400
C 	C 	0.10460 0.36405 0.26539 -0.00300
C 	C 	0.07515 0.29104 0.26497 -0.00200
C 	C 	0.09190 0.25645 0.28484 -0.09400
C 	C 	0.13434 0.29515 0.30648 0.05900
C 	C 	0.16890 0.47803 0.29042 0.01400
S 	S 	0.09373 0.40712 0.23756 -0.03500
H 	H 	0.04139 0.26153 0.24859 0.03900
S 	S 	0.15365 0.25333 0.33251 -0.02900
H 	H 	0.19088 0.39689 0.32489 0.05800
C 	C 	0.12537 0.49988 0.30249 -0.00400
C 	C 	0.15484 0.56259 0.31711 -0.00300
C 	C 	0.22650 0.59959 0.32124 -0.08800
C 	C 	0.26824 0.58912 0.30275 0.05700
C 	C 	0.23987 0.52636 0.28825 -0.07300
S 	S 	0.03485 0.44661 0.30145 -0.03200
H 	H 	0.12183 0.57593 0.32873 0.04600
S 	S 	0.35729 0.64892 0.30064 -0.04100
H 	H 	0.27362 0.51202 0.27775 0.05500
H 	H 	0.21265 0.25166 0.32609 0.04200
H 	H 	0.01389 0.39439 0.32028 0.04000
H 	H 	0.36837 0.70265 0.28368 0.03600
H 	H 	0.03390 0.40976 0.24039 0.04100
C 	C 	0.07357 0.91543 0.37172 -0.06100
C 	C 	0.08893 0.86147 0.36776 0.00900
C 	C 	0.09131 0.83915 0.34140 -0.00300
C 	C 	0.07592 0.86910 0.31954 -0.00900
C 	C 	0.06218 0.92431 0.32336 -0.07600
C 	C 	0.06394 0.94949 0.34971 0.02800
C 	C 	0.10626 0.83106 0.39114 0.01400
S 	S 	0.11679 0.77622 0.33537 -0.03200
H 	H 	0.07692 0.85094 0.29939 0.04800
S 	S 	0.05922 0.02609 0.35541 0.01900
H 	H 	0.07242 0.93320 0.39192 0.05100
C 	C 	0.17190 0.86780 0.40332 -0.00400
C 	C 	0.19632 0.83106 0.41860 -0.00400
C 	C 	0.15858 0.75761 0.41974 -0.08300
C 	C 	0.08896 0.72297 0.41151 0.05400
C 	C 	0.06249 0.76035 0.39786 -0.06800
S 	S 	0.22641 0.95808 0.39754 -0.04300
H 	H 	0.24855 0.85857 0.42645 0.04400
S 	S 	0.03737 0.63170 0.41515 -0.03900
H 	H 	0.01035 0.73278 0.38995 0.05800
H 	H 	0.12430 0.08334 0.35420 0.04300
H 	H 	0.26325 0.96731 0.37436 0.03300
H 	H 	0.04325 0.60050 0.39229 0.05300
H 	H 	0.18748 0.80890 0.33405 0.03600
C 	C 	0.52206 0.98028 0.55173 -0.15800
C 	C 	0.45911 0.96227 0.53920 0.01800
C 	C 	0.42294 0.99696 0.54661 0.08300
C 	C 	0.45432 0.05526 0.56353 0.01200
C 	C 	0.52325 0.08179 0.57145 -0.14900
C 	C 	0.55365 0.03934 0.56832 0.23400
C 	C 	0.43554 0.91366 0.51622 0.00900
O 	O 	0.35838 0.97590 0.53643 -0.29200
H 	H 	0.42831 0.08480 0.56767 0.05300
O 	O 	0.61775 0.05995 0.57878 -0.29400
H 	H 	0.54849 0.95129 0.54727 0.07600
C 	C 	0.46947 0.93501 0.49118 0.08200
C 	C 	0.44518 0.88935 0.46920 -0.01700
C 	C 	0.38740 0.82236 0.47209 -0.13700
C 	C 	0.35212 0.80213 0.49693 0.20500
C 	C 	0.37705 0.84727 0.51894 -0.11800
O 	O 	0.52497 0.00117 0.48797 -0.22900
H 	H 	0.47202 0.90561 0.45010 0.04500
O 	O 	0.29371 0.73785 0.49978 -0.31200
H 	H 	0.35026 0.83098 0.53805 0.08200
H 	H 	0.60886 0.03777 0.59680 0.15600
H 	H 	0.56622 0.99662 0.49185 0.11800
H 	H 	0.25466 0.74590 0.49565 0.15400
H 	H 	0.36644 0.00303 0.51957 0.17500
C 	C 	0.97440 0.44347 0.40878 -0.15900
C 	C 	0.94793 0.41106 0.43364 0.03000
C 	C 	0.97842 0.37601 0.44649 0.08700
C 	C 	0.04301 0.38750 0.43767 0.01300
C 	C 	0.07815 0.43733 0.41749 -0.14000
C 	C 	0.03901 0.45451 0.40017 0.22900
C 	C 	0.90080 0.42762 0.44877 -0.01000
O 	O 	0.94719 0.33403 0.46841 -0.26600
H 	H 	0.07017 0.36714 0.44937 0.05600
O 	O 	0.06902 0.49385 0.37760 -0.30800
H 	H 	0.94837 0.46575 0.39749 0.07200
C 	C 	0.92542 0.47350 0.47088 0.12600
C 	C 	0.87841 0.47591 0.48896 -0.04400
C 	C 	0.80727 0.43101 0.48558 -0.11000
C 	C 	0.78330 0.39532 0.46099 0.18400
C 	C 	0.83015 0.39265 0.44289 -0.10500
O 	O 	0.99486 0.51021 0.47636 -0.30400
H 	H 	0.89743 0.50603 0.50728 0.05400
O 	O 	0.71369 0.35462 0.45651 -0.28000
H 	H 	0.81108 0.35983 0.42521 0.07100
H 	H 	0.05925 0.45921 0.36318 0.15500
H 	H 	0.01191 0.55675 0.46786 0.17400
H 	H 	0.70145 0.38345 0.44487 0.14500
H 	H 	0.96681 0.36499 0.48425 0.15400
C 	C 	0.52043 0.42544 0.47482 -0.11400
C 	C 	0.44881 0.38188 0.47748 0.00400
C 	C 	0.42201 0.31105 0.48457 0.12000
C 	C 	0.46721 0.28634 0.49140 -0.03100
C 	C 	0.53867 0.33296 0.49276 -0.12300
C 	C 	0.56541 0.40127 0.48239 0.19100
C 	C 	0.40261 0.41166 0.47404 0.00900
O 	O 	0.35191 0.26643 0.48548 -0.27200
H 	H 	0.44627 0.23273 0.49826 0.05800
O 	O 	0.63524 0.44708 0.48275 -0.29300
H 	H 	0.54137 0.47928 0.46825 0.07000
C 	C 	0.40484 0.46154 0.49238 0.11300
C 	C 	0.37221 0.50034 0.48613 -0.02600
C 	C 	0.33782 0.48997 0.46158 -0.12800
C 	C 	0.32941 0.43487 0.44468 0.20100
C 	C 	0.36246 0.39659 0.45080 -0.11400
O 	O 	0.43919 0.47267 0.51631 -0.27200
H 	H 	0.37724 0.54125 0.49962 0.05800
O 	O 	0.29265 0.42150 0.42128 -0.31400
H 	H 	0.35923 0.35720 0.43689 0.08300
H 	H 	0.65148 0.44599 0.46431 0.15000
H 	H 	0.48672 0.51164 0.51278 0.14500
H 	H 	0.24471 0.38538 0.42605 0.16300
H 	H 	0.33782 0.26987 0.50408 0.15100
C 	C 	0.90517 0.19355 0.66112 -0.07200
C 	C 	0.93160 0.18791 0.63623 0.01600
C 	C 	0.97970 0.16405 0.63520 -0.02000
C 	C 	0.99624 0.14048 0.65870 -0.03400
C 	C 	0.96623 0.14182 0.68334 -0.07200
C 	C 	0.92195 0.17043 0.68463 0.04900
C 	C 	0.90330 0.20071 0.61138 0.00800
S 	S 	0.01849 0.16226 0.60461 0.01700
H 	H 	0.03073 0.11904 0.65769 0.06000
S 	S 	0.88441 0.17425 0.71532 -0.03100
H 	H 	0.86921 0.21325 0.66200 0.05400
C 	C 	0.84267 0.14625 0.59981 -0.00200
C 	C 	0.80211 0.16259 0.58311 -0.00600
C 	C 	0.82032 0.23273 0.57879 -0.07900
C 	C 	0.88698 0.28593 0.58612 0.05400
C 	C 	0.92795 0.26984 0.60269 -0.06900
S 	S 	0.81440 0.05801 0.60774 -0.02800
H 	H 	0.75332 0.12098 0.57565 0.06300
S 	S 	0.91769 0.37327 0.57596 -0.04600
H 	H 	0.97658 0.31155 0.61032 0.05000
H 	H 	0.92827 0.23519 0.72838 0.03600
H 	H 	0.77524 0.04011 0.63071 0.04200
H 	H 	0.89816 0.40644 0.59438 0.04200
H 	H 	0.97808 0.09924 0.59221 0.02300
C 	C 	0.34478 0.20771 0.68057 -0.07000
C 	C 	0.32481 0.22773 0.65694 0.01500
C 	C 	0.25427 0.20409 0.65229 -0.00500
C 	C 	0.20485 0.16069 0.67114 0.00000
C 	C 	0.22506 0.14517 0.69574 -0.08400
C 	C 	0.29582 0.16859 0.70034 0.05800
C 	C 	0.37772 0.26896 0.63635 0.01500
S 	S 	0.22753 0.23224 0.62389 -0.02800
H 	H 	0.15066 0.14279 0.66748 0.04200
S 	S 	0.32446 0.15274 0.73112 -0.03300
H 	H 	0.39882 0.22421 0.68387 0.05600
C 	C 	0.43290 0.33658 0.64215 -0.00600
C 	C 	0.49251 0.36572 0.62605 -0.00000
C 	C 	0.49687 0.32793 0.60419 -0.09000
C 	C 	0.43657 0.26756 0.59558 0.05900
C 	C 	0.37833 0.23673 0.61220 -0.07000
S 	S 	0.42816 0.38456 0.66953 -0.03600
H 	H 	0.53716 0.41491 0.63175 0.04400
S 	S 	0.43467 0.22857 0.56458 -0.02000
H 	H 	0.33471 0.18627 0.60691 0.06000
H 	H 	0.32332 0.08990 0.72993 0.04300
H 	H 	0.39785 0.42253 0.66137 0.03900
H 	H 	0.40738 0.25324 0.54571 0.04200
H 	H 	0.22808 0.29336 0.62981 0.04000
C 	C 	0.96183 0.72407 0.68058 -0.06500
C 	C 	0.92056 0.71410 0.65802 0.00800
C 	C 	0.90936 0.76868 0.64924 -0.00300
C 	C 	0.93518 0.83044 0.66424 -0.01300
C 	C 	0.97267 0.83860 0.68784 -0.07800
C 	C 	0.98793 0.78583 0.69555 0.03100
C 	C 	0.88253 0.64376 0.64575 0.01400
S 	S 	0.86250 0.75991 0.61969 -0.04200
H 	H 	0.92435 0.87129 0.65800 0.03400
S 	S 	0.03705 0.79497 0.72447 -0.01200
H 	H 	0.97148 0.68259 0.68707 0.04700
C 	C 	0.91297 0.62319 0.62550 -0.00500
C 	C 	0.87423 0.55791 0.61306 -0.00500
C 	C 	0.80494 0.51316 0.62037 -0.08700
C 	C 	0.77530 0.53311 0.64130 0.05500
C 	C 	0.81461 0.59768 0.65406 -0.07200
S 	S 	0.99859 0.67958 0.61494 -0.04800
H 	H 	0.89731 0.54283 0.59708 0.03900
S 	S 	0.68804 0.47995 0.65070 -0.03500
H 	H 	0.79154 0.61318 0.66991 0.05400
H 	H 	0.10576 0.82770 0.71775 0.03200
H 	H 	0.99871 0.72311 0.59518 0.03300
H 	H 	0.68320 0.43405 0.67038 0.04000
H 	H 	0.90677 0.78151 0.59816 0.03200
C 	C 	0.90250 0.37587 0.02034 -0.10800
C 	C 	0.95159 0.44660 0.01591 -0.02200
C 	C 	0.93344 0.48924 0.00088 0.13000
C 	C 	0.86727 0.46073 0.98992 -0.03700
C 	C 	0.81922 0.38929 0.99318 -0.12000
C 	C 	0.83664 0.34693 0.00877 0.19100
C 	C 	0.02155 0.47641 0.02744 0.02900
O 	O 	0.98163 0.55777 0.99556 -0.28400
H 	H 	0.85436 0.49350 0.97772 0.04700
O 	O 	0.78978 0.27720 0.01248 -0.28500
H 	H 	0.91580 0.34308 0.03233 0.06600
C 	C 	0.04178 0.52485 0.04857 0.13900
C 	C 	0.10935 0.55634 0.05829 -0.03500
C 	C 	0.15628 0.53672 0.04829 -0.12100
C 	C 	0.13592 0.48770 0.02724 0.19600
C 	C 	0.06897 0.45851 0.01664 -0.11700
O 	O 	0.99566 0.54205 0.05957 -0.30000
H 	H 	0.12466 0.59441 0.07435 0.06700
O 	O 	0.18105 0.46809 0.01707 -0.28100
H 	H 	0.05376 0.42154 0.00021 0.08400
H 	H 	0.79828 0.25265 0.99752 0.15000
H 	H 	0.97267 0.50797 0.07439 0.14300
H 	H 	0.17318 0.42681 0.02789 0.15400
H 	H 	0.97467 0.58551 0.00966 0.15300
C 	C 	0.44821 0.00596 0.96453 -0.02100
C 	C 	0.48913 0.98854 0.98058 -0.09600
C 	C 	0.56040 0.01970 0.97544 0.20700
C 	C 	0.59118 0.07264 0.95605 -0.07000
C 	C 	0.55177 0.09711 0.94270 -0.09800
C 	C 	0.47919 0.05916 0.94519 0.15600
C 	C 	0.45744 0.93776 0.00275 0.04800
O 	O 	0.60021 0.99931 0.98964 -0.33000
H 	H 	0.64678 0.09930 0.95328 0.07200
O 	O 	0.43896 0.07749 0.93025 -0.27600
H 	H 	0.39272 0.97968 0.96755 0.03200
C 	C 	0.44673 0.95946 0.02804 0.07000
C 	C 	0.42024 0.91144 0.04940 -0.00900
C 	C 	0.40347 0.84155 0.04556 -0.14300
C 	C 	0.41452 0.82020 0.02010 0.21700
C 	C 	0.44124 0.86830 0.99895 -0.13700
O 	O 	0.46435 0.02804 0.03215 -0.24600
H 	H 	0.41262 0.92853 0.06888 0.04800
O 	O 	0.40273 0.75333 0.01627 -0.33400
H 	H 	0.45037 0.85173 0.97962 0.08400
H 	H 	0.42720 0.04848 0.91380 0.15200
H 	H 	0.42209 0.03039 0.02786 0.14900
H 	H 	0.35529 0.72680 0.00884 0.15300
H 	H 	0.61616 0.03005 0.00566 0.18100
C 	C 	0.53879 0.52760 0.08115 -0.11100
C 	C 	0.52807 0.48540 0.05863 0.00600
C 	C 	0.45993 0.43634 0.05112 0.11800
C 	C 	0.40437 0.44031 0.06246 -0.03000
C 	C 	0.41737 0.49408 0.08061 -0.12200
C 	C 	0.48270 0.52967 0.09292 0.19000
C 	C 	0.58586 0.50214 0.04004 0.00500
O 	O 	0.44793 0.38679 0.03196 -0.27000
H 	H 	0.35279 0.40805 0.05449 0.06000
O 	O 	0.49392 0.57495 0.11367 -0.30200
H 	H 	0.59080 0.56258 0.08819 0.07200
C 	C 	0.59058 0.53633 0.01552 0.11700
C 	C 	0.62909 0.53111 0.99429 -0.03400
C 	C 	0.66187 0.49124 0.99750 -0.12000
C 	C 	0.66996 0.47170 0.02362 0.19000
C 	C 	0.62991 0.47489 0.04470 -0.11000
O 	O 	0.55591 0.57279 0.01204 -0.27100
H 	H 	0.62674 0.55097 0.97461 0.05100
O 	O 	0.70933 0.44049 0.02775 -0.27900
H 	H 	0.62972 0.45213 0.06405 0.07600
H 	H 	0.48700 0.54689 0.13016 0.15100
H 	H 	0.51067 0.53885 0.00414 0.14600
H 	H 	0.75626 0.47947 0.03197 0.15100
H 	H 	0.44569 0.40798 0.01465 0.14600
C 	C 	0.83811 0.14129 0.82348 -0.07100
C 	C 	0.88229 0.21414 0.82390 0.01700
C 	C 	0.94484 0.24430 0.80939 -0.02300
C 	C 	0.96260 0.20147 0.79468 -0.02700
C 	C 	0.91939 0.12840 0.79480 -0.08200
C 	C 	0.85649 0.09822 0.80917 0.05100
C 	C 	0.86316 0.25806 0.84010 0.01000
S 	S 	0.00167 0.33548 0.80974 0.01300
H 	H 	0.01058 0.22489 0.78335 0.04800
S 	S 	0.80191 0.00666 0.81042 -0.01000
H 	H 	0.78989 0.11812 0.83464 0.05600
C 	C 	0.82740 0.28930 0.82847 -0.00600
C 	C 	0.80071 0.32183 0.84488 -0.00000
C 	C 	0.80755 0.32157 0.87286 -0.09600
C 	C 	0.84825 0.29564 0.88423 0.05900
C 	C 	0.87592 0.26406 0.86780 -0.07300
S 	S 	0.81278 0.28495 0.79360 -0.04300
H 	H 	0.77046 0.34301 0.83606 0.03700
S 	S 	0.86289 0.30036 0.91910 -0.04100
H 	H 	0.90520 0.24184 0.87667 0.05200
H 	H 	0.82138 0.97968 0.83131 0.01800
H 	H 	0.75352 0.22378 0.78771 0.03900
H 	H 	0.80946 0.24332 0.93144 0.04800
H 	H 	0.98525 0.36601 0.78915 0.01600
C 	C 	0.26015 0.11339 0.85132 -0.07200
C 	C 	0.24155 0.14897 0.86998 0.01600
C 	C 	0.18408 0.15771 0.86480 -0.00500
C 	C 	0.14871 0.13476 0.84037 0.00100
C 	C 	0.16921 0.10177 0.82127 -0.08700
C 	C 	0.22428 0.08957 0.82711 0.06100
C 	C 	0.28798 0.18441 0.89298 0.01500
S 	S 	0.15515 0.19587 0.88890 -0.02500
H 	H 	0.10543 0.14286 0.83617 0.04800
S 	S 	0.25091 0.04740 0.80383 -0.04100
H 	H 	0.30421 0.10641 0.85527 0.05600
C 	C 	0.29916 0.14499 0.91270 -0.00400
C 	C 	0.36105 0.17600 0.92729 -0.00100
C 	C 	0.41199 0.24544 0.92183 -0.08100
C 	C 	0.39374 0.28805 0.90671 0.05700
C 	C 	0.33244 0.25716 0.89185 -0.06800
S 	S 	0.23765 0.05644 0.91838 -0.01600
H 	H 	0.37170 0.14462 0.94119 0.06200
S 	S 	0.44912 0.37935 0.90508 -0.04100
H 	H 	0.32195 0.28876 0.87796 0.05600
H 	H 	0.30489 0.09693 0.78896 0.04200
H 	H 	0.25157 0.01511 0.90188 0.04200
H 	H 	0.49351 0.39510 0.88378 0.04600
H 	H 	0.10915 0.14475 0.90588 0.04600
C 	C 	0.72258 0.61354 0.84605 -0.07300
C 	C 	0.76826 0.61582 0.82616 0.01400
C 	C 	0.77110 0.55474 0.82006 -0.00500
C 	C 	0.73346 0.49421 0.83563 -0.00300
C 	C 	0.69367 0.49441 0.85751 -0.08800
C 	C 	0.68451 0.55283 0.86146 0.05700
C 	C 	0.81596 0.68337 0.81307 0.00900
S 	S 	0.82266 0.55389 0.79339 -0.04100
H 	H 	0.73901 0.44867 0.83190 0.04400
S 	S 	0.62551 0.55044 0.88560 -0.04800
H 	H 	0.71796 0.65955 0.84995 0.05200
C 	C 	0.79389 0.70831 0.79131 -0.00500
C 	C 	0.83879 0.77395 0.78008 -0.00600
C 	C 	0.90593 0.81495 0.79020 -0.08400
C 	C 	0.92849 0.78951 0.81165 0.03100
C 	C 	0.88335 0.72399 0.82302 -0.06500
S 	S 	0.71045 0.65757 0.77782 -0.04100
H 	H 	0.82166 0.79305 0.76333 0.03300
S 	S 	0.01231 0.83983 0.82488 -0.01500
H 	H 	0.90043 0.70477 0.83974 0.04700
H 	H 	0.65837 0.57365 0.90976 0.04500
H 	H 	0.66520 0.67138 0.79154 0.03500
H 	H 	0.05712 0.82596 0.81086 0.03800
H 	H 	0.78504 0.53632 0.77013 0.03700
