data_crystal

_cell_length_a 17.13770
_cell_length_b 16.95068
_cell_length_c 72.59435
_cell_angle_alpha 90.06789
_cell_angle_beta  89.94615
_cell_angle_gamma 119.79845

_symmetry_space_group_name_	'P 1'
_symmetry_space_group_name_H-M	'P 1'

loop_
_symmetry_equiv_pos_as_xyz
  x,y,z

loop_
_atom_site_label
_atom_site_type_symbol
_atom_site_fract_x
_atom_site_fract_y
_atom_site_fract_z
_atom_site_charge
C 	C 	0.84917 0.45841 0.59195 0.31600
C 	C 	0.62388 0.15930 0.54029 0.31200
C 	C 	0.83083 0.44379 0.53732 0.29900
C 	C 	0.63257 0.14948 0.58936 0.30900
C 	C 	0.56895 0.38625 0.53832 0.30100
C 	C 	0.53843 0.38567 0.58659 0.30700
Ni	Ni	0.76606 0.29663 0.56549 1.11600
Ni	Ni	0.55828 0.24986 0.56561 1.12400
Ni	Ni	0.71579 0.45810 0.56581 1.12500
O 	O 	0.86515 0.41185 0.57919 -0.35900
O 	O 	0.79297 0.48941 0.58874 -0.35800
O 	O 	0.51858 0.32303 0.55030 -0.38300
O 	O 	0.68840 0.17350 0.55183 -0.37600
O 	O 	0.58181 0.20578 0.54150 -0.38900
O 	O 	0.61447 0.45735 0.58068 -0.36700
O 	O 	0.80696 0.35836 0.53997 -0.37100
O 	O 	0.82969 0.49365 0.55107 -0.36300
O 	O 	0.52818 0.30273 0.58737 -0.35700
O 	O 	0.71452 0.22067 0.58909 -0.36100
O 	O 	0.56315 0.14847 0.58057 -0.35600
O 	O 	0.65470 0.44278 0.54143 -0.38800
O 	O 	0.68103 0.33407 0.56979 -0.72300
H 	H 	0.67976 0.33427 0.58337 0.16800
C 	C 	0.46153 0.87088 0.37839 0.30200
C 	C 	0.14428 0.60143 0.41825 0.28800
C 	C 	0.39681 0.81695 0.42428 0.28300
C 	C 	0.16928 0.58812 0.36417 0.29500
C 	C 	0.37195 0.56902 0.42669 0.30200
C 	C 	0.40127 0.53866 0.37811 0.30200
Ni	Ni	0.27018 0.74043 0.39142 1.11600
Ni	Ni	0.24902 0.53962 0.39592 1.12500
Ni	Ni	0.44805 0.71457 0.39836 1.12200
O 	O 	0.37615 0.84955 0.37746 -0.34200
O 	O 	0.48364 0.80602 0.37757 -0.36700
O 	O 	0.32211 0.51250 0.41372 -0.38000
O 	O 	0.14854 0.65023 0.40389 -0.36100
O 	O 	0.18631 0.55444 0.41831 -0.37500
O 	O 	0.46535 0.62256 0.38297 -0.35100
O 	O 	0.31878 0.79953 0.41723 -0.35800
O 	O 	0.46006 0.81965 0.41367 -0.37800
O 	O 	0.31656 0.51821 0.37584 -0.36400
O 	O 	0.20843 0.67756 0.36662 -0.35300
O 	O 	0.15248 0.53363 0.37852 -0.35200
O 	O 	0.43648 0.65123 0.42245 -0.37800
O 	O 	0.32479 0.66699 0.39185 -0.71500
H 	H 	0.33415 0.66636 0.37845 0.15500
C 	C 	0.26332 0.82178 0.64604 0.29800
C 	C 	0.34796 0.54252 0.61493 0.32300
C 	C 	0.13507 0.57842 0.64299 0.32100
C 	C 	0.48883 0.80128 0.61415 0.30200
C 	C 	0.32535 0.53853 0.67302 0.32700
C 	C 	0.49744 0.79756 0.67556 0.30300
Ni	Ni	0.29386 0.68430 0.62178 1.11600
Ni	Ni	0.44449 0.66681 0.64506 1.12500
Ni	Ni	0.29556 0.69186 0.66661 1.12600
O 	O 	0.24134 0.76892 0.63095 -0.34200
O 	O 	0.30747 0.81220 0.66002 -0.37600
O 	O 	0.40983 0.59481 0.66871 -0.36500
O 	O 	0.33112 0.60192 0.60694 -0.33800
O 	O 	0.36282 0.54766 0.63259 -0.38700
O 	O 	0.41255 0.75154 0.68192 -0.34500
O 	O 	0.19363 0.56866 0.63365 -0.37300
O 	O 	0.16427 0.63469 0.65714 -0.34200
O 	O 	0.52126 0.77873 0.65951 -0.38200
O 	O 	0.40827 0.79000 0.61054 -0.35400
O 	O 	0.49915 0.73332 0.62063 -0.35500
O 	O 	0.26580 0.56552 0.67304 -0.36600
O 	O 	0.35780 0.70479 0.64392 -0.71600
H 	H 	0.39693 0.77131 0.64354 0.16400
C 	C 	0.85440 0.90050 0.75206 0.27100
C 	C 	0.11445 0.18912 0.70259 0.33000
C 	C 	0.83887 0.92046 0.70192 0.30100
C 	C 	0.10427 0.16535 0.75437 0.27600
C 	C 	0.10647 0.93738 0.69503 0.31600
C 	C 	0.11214 0.91768 0.75001 0.26000
Ni	Ni	0.95728 0.06536 0.72693 1.10100
Ni	Ni	0.14769 0.06702 0.72509 1.12900
Ni	Ni	0.96360 0.87593 0.72314 1.10100
O 	O 	0.84793 0.95874 0.74074 -0.38100
O 	O 	0.89164 0.85161 0.74669 -0.38200
O 	O 	0.16120 0.97835 0.70886 -0.37000
O 	O 	0.05139 0.18455 0.71361 -0.33900
O 	O 	0.13191 0.12264 0.70191 -0.35800
O 	O 	0.06027 0.86127 0.73676 -0.34900
O 	O 	0.90481 0.00427 0.70206 -0.35400
O 	O 	0.84847 0.85670 0.71032 -0.36600
O 	O 	0.16604 0.00538 0.74675 -0.35500
O 	O 	0.01758 0.13258 0.75107 -0.34600
O 	O 	0.16076 0.17320 0.74095 -0.37000
O 	O 	0.02137 0.00255 0.72922 -0.67300
H 	H 	0.02166 0.99813 0.74272 0.13800
C 	C 	0.51046 0.73131 0.92350 0.29800
C 	C 	0.24581 0.53702 0.86666 0.29200
C 	C 	0.51760 0.75167 0.87022 0.30000
C 	C 	0.22357 0.48150 0.91809 0.30800
C 	C 	0.28209 0.78100 0.87095 0.29300
C 	C 	0.28959 0.80826 0.92163 0.29900
Ni	Ni	0.39166 0.60039 0.89468 1.12000
Ni	Ni	0.21984 0.63391 0.89844 1.12300
Ni	Ni	0.42268 0.80356 0.89732 1.12400
O 	O 	0.46138 0.64363 0.91931 -0.33600
O 	O 	0.52280 0.79566 0.91133 -0.35600
O 	O 	0.21540 0.70250 0.87639 -0.37600
O 	O 	0.33294 0.57533 0.86901 -0.37500
O 	O 	0.19241 0.52984 0.88049 -0.36400
O 	O 	0.37347 0.82524 0.92046 -0.37400
O 	O 	0.51303 0.69265 0.88240 -0.35400
O 	O 	0.47167 0.79368 0.87258 -0.38300
O 	O 	0.21959 0.72765 0.91656 -0.35400
O 	O 	0.27986 0.48415 0.90523 -0.35400
O 	O 	0.19858 0.54420 0.91906 -0.36200
O 	O 	0.34263 0.83657 0.88279 -0.36800
O 	O 	0.34515 0.67720 0.90053 -0.72100
H 	H 	0.34525 0.67428 0.91408 0.15900
C 	C 	0.75149 0.48720 0.02914 0.30400
C 	C 	0.49664 0.28929 0.08805 0.29600
C 	C 	0.72824 0.53448 0.08128 0.29500
C 	C 	0.46694 0.20202 0.04228 0.31100
C 	C 	0.74521 0.29649 0.09680 0.30200
C 	C 	0.77081 0.24982 0.04661 0.30400
Ni	Ni	0.59284 0.40111 0.05456 1.11600
Ni	Ni	0.60587 0.22373 0.06842 1.12400
Ni	Ni	0.78481 0.41348 0.06389 1.12600
O 	O 	0.66303 0.45177 0.03007 -0.35500
O 	O 	0.79969 0.50754 0.04451 -0.35400
O 	O 	0.65887 0.25894 0.09367 -0.39100
O 	O 	0.52509 0.36734 0.07960 -0.37300
O 	O 	0.49529 0.22040 0.07947 -0.37900
O 	O 	0.80691 0.33942 0.04547 -0.35800
O 	O 	0.68279 0.52690 0.06615 -0.35900
O 	O 	0.76344 0.48230 0.08414 -0.38100
O 	O 	0.70427 0.19918 0.05851 -0.36500
O 	O 	0.48685 0.28862 0.04112 -0.35400
O 	O 	0.53027 0.18034 0.04536 -0.35300
O 	O 	0.80389 0.34082 0.08369 -0.38100
O 	O 	0.65986 0.34200 0.05842 -0.72100
H 	H 	0.66292 0.32589 0.04549 0.16500
C 	C 	0.88183 0.84161 0.20119 0.27500
C 	C 	0.17950 0.07959 0.25170 0.32800
C 	C 	0.91732 0.81920 0.25456 0.32200
C 	C 	0.13674 0.10250 0.20183 0.27000
C 	C 	0.90032 0.05428 0.26455 0.35300
C 	C 	0.89370 0.09868 0.21369 0.27800
Ni	Ni	0.04810 0.93558 0.22559 1.11100
Ni	Ni	0.04619 0.12179 0.23610 1.13100
Ni	Ni	0.86002 0.93175 0.23408 1.11900
O 	O 	0.83354 0.87455 0.20878 -0.37900
O 	O 	0.96441 0.12620 0.25602 -0.35800
O 	O 	0.17046 0.02664 0.23770 -0.35400
O 	O 	0.11618 0.09888 0.25584 -0.34700
O 	O 	0.83888 0.03393 0.22531 -0.37100
O 	O 	0.85703 0.81702 0.24308 -0.37100
O 	O 	0.10581 0.01340 0.20226 -0.35500
O 	O 	0.14636 0.14969 0.21723 -0.34800
O 	O 	0.88330 0.97301 0.26010 -0.39700
C 	C 	0.76082 0.51631 0.30413 0.30600
C 	C 	0.68948 0.22217 0.35845 0.32700
C 	C 	0.88855 0.41128 0.31802 0.31700
C 	C 	0.54772 0.33331 0.35016 0.30000
C 	C 	0.68221 0.14787 0.30221 0.32700
C 	C 	0.50953 0.22029 0.29185 0.30800
Ni	Ni	0.73833 0.39922 0.33955 1.11500
Ni	Ni	0.57878 0.19961 0.32718 1.12800
Ni	Ni	0.71416 0.33116 0.29702 1.13300
O 	O 	0.78699 0.51487 0.32159 -0.34500
O 	O 	0.70082 0.44164 0.29593 -0.36300
O 	O 	0.60095 0.12489 0.30817 -0.34900
O 	O 	0.70684 0.30601 0.36158 -0.35600
O 	O 	0.67380 0.19209 0.34175 -0.38000
O 	O 	0.59154 0.24948 0.28462 -0.35000
O 	O 	0.84144 0.37581 0.33284 -0.36900
O 	O 	0.84888 0.41724 0.30292 -0.33600
O 	O 	0.49408 0.20859 0.30976 -0.35500
O 	O 	0.62768 0.40648 0.34798 -0.36300
O 	O 	0.53656 0.24920 0.34893 -0.35400
O 	O 	0.74353 0.23289 0.30032 -0.37800
O 	O 	0.66401 0.32048 0.32081 -0.71700
H 	H 	0.62295 0.34443 0.31868 0.17700
C 	C 	0.12378 0.00559 0.01977 0.31900
Ni	Ni	0.93106 0.91647 0.00447 1.11600
O 	O 	0.90580 0.01802 0.00693 -0.35600
O 	O 	0.15964 0.04719 0.00408 -0.36500
O 	O 	0.03540 0.96814 0.02332 -0.35000
O 	O 	0.05274 0.13028 0.00908 -0.33700
C 	C 	0.41367 0.24120 0.26905 -0.03400
C 	C 	0.43084 0.18231 0.27961 -0.06000
C 	C 	0.36365 0.09015 0.28132 0.12500
C 	C 	0.28009 0.05876 0.27293 -0.00100
C 	C 	0.26223 0.11780 0.26268 -0.08300
C 	C 	0.32967 0.20953 0.26064 0.13700
Br	Br	0.30856 0.29254 0.24643 -0.22900
H 	H 	0.46440 0.31233 0.26790 0.07800
H 	H 	0.22916 0.98771 0.27416 0.06300
Br	Br	0.38415 0.00585 0.29524 -0.18000
C 	C 	0.83783 0.68394 0.29879 -0.02700
C 	C 	0.81409 0.59680 0.29234 -0.06800
C 	C 	0.83420 0.58610 0.27379 0.13900
C 	C 	0.86981 0.66007 0.26186 -0.02900
C 	C 	0.88907 0.74566 0.26805 -0.07700
C 	C 	0.87662 0.75869 0.28678 0.12700
Br	Br	0.91455 0.87768 0.29633 -0.19200
H 	H 	0.82504 0.69352 0.31300 0.07600
H 	H 	0.88230 0.65076 0.24759 0.07300
Br	Br	0.81901 0.47299 0.26443 -0.25600
C 	C 	0.74975 0.03851 0.26816 -0.02600
C 	C 	0.83401 0.06305 0.27580 -0.08900
C 	C 	0.84816 0.08202 0.29474 0.14000
C 	C 	0.78061 0.08336 0.30537 -0.03200
C 	C 	0.70543 0.07932 0.29671 -0.07200
C 	C 	0.68492 0.04534 0.27865 0.12400
Br	Br	0.57465 0.02172 0.26720 -0.18900
H 	H 	0.73535 0.01614 0.25397 0.06200
H 	H 	0.79370 0.10303 0.31974 0.09000
Br	Br	0.96195 0.11547 0.30591 -0.16500
C 	C 	0.79739 0.52717 0.01136 -0.07200
C 	C 	0.89208 0.57053 0.00958 0.14500
Br	Br	0.96361 0.53777 0.02466 -0.22400
C 	C 	0.30730 0.15111 0.04992 -0.02300
C 	C 	0.37068 0.13024 0.04251 -0.08900
C 	C 	0.33969 0.04411 0.03424 0.15700
C 	C 	0.24687 0.98614 0.03180 -0.08700
C 	C 	0.18705 0.01893 0.03475 -0.03500
C 	C 	0.21563 0.09526 0.04625 0.10900
Br	Br	0.13279 0.13165 0.05485 -0.19100
H 	H 	0.32964 0.21363 0.05758 0.06500
H 	H 	0.22309 0.92099 0.02517 0.09700
Br	Br	0.42109 0.00741 0.02452 -0.17300
C 	C 	0.83667 0.14841 0.04764 -0.03100
C 	C 	0.81983 0.20914 0.03770 -0.06800
C 	C 	0.86127 0.24077 0.02039 0.13200
C 	C 	0.92363 0.21668 0.01394 -0.03100
C 	C 	0.93607 0.15148 0.02330 -0.07000
C 	C 	0.89150 0.11692 0.04026 0.13000
Br	Br	0.89470 0.01781 0.05234 -0.21300
H 	H 	0.80588 0.12427 0.06102 0.07600
Br	Br	0.82330 0.30466 0.00414 -0.18700
C 	C 	0.70682 0.24790 0.16368 -0.03500
C 	C 	0.72180 0.21296 0.17993 -0.03800
C 	C 	0.77995 0.17686 0.17994 0.02400
C 	C 	0.82290 0.17537 0.16343 -0.00500
C 	C 	0.80851 0.21133 0.14713 -0.00400
C 	C 	0.75000 0.24739 0.14724 0.01900
C 	C 	0.85226 0.21072 0.13069 0.02200
C 	C 	0.90994 0.17407 0.13067 -0.03900
C 	C 	0.88117 0.13904 0.16330 0.02100
C 	C 	0.89787 0.10650 0.17970 -0.02200
C 	C 	0.85876 0.11209 0.19629 -0.05000
C 	C 	0.79787 0.14474 0.19633 -0.02000
C 	C 	0.73396 0.28076 0.13085 -0.02000
C 	C 	0.77543 0.27778 0.11435 -0.05800
C 	C 	0.83611 0.24478 0.11439 -0.02100
H 	H 	0.66157 0.27528 0.16389 0.04600
H 	H 	0.68840 0.21433 0.19251 0.05300
H 	H 	0.96897 0.11040 0.14663 0.04100
H 	H 	0.94406 0.08018 0.17976 0.03800
H 	H 	0.76771 0.14879 0.20919 0.05800
H 	H 	0.68746 0.30675 0.13078 0.04800
H 	H 	0.86756 0.24200 0.10161 0.05400
C 	C 	0.41234 0.31967 0.16963 -0.04100
C 	C 	0.46466 0.34258 0.15361 -0.03900
C 	C 	0.42615 0.29907 0.13685 0.01800
C 	C 	0.33365 0.23417 0.13609 -0.00400
C 	C 	0.28091 0.21168 0.15217 -0.00700
C 	C 	0.32088 0.25296 0.16910 0.02600
C 	C 	0.18921 0.14448 0.15151 0.02400
C 	C 	0.15001 0.10310 0.13465 -0.03800
C 	C 	0.20248 0.12512 0.11870 -0.03600
C 	C 	0.29465 0.18921 0.11939 0.02300
C 	C 	0.34864 0.20734 0.10371 -0.01900
C 	C 	0.44082 0.27096 0.10451 -0.05400
C 	C 	0.47927 0.31778 0.12097 -0.02400
C 	C 	0.27023 0.22319 0.18540 -0.02700
C 	C 	0.18085 0.15144 0.18487 -0.04100
C 	C 	0.13935 0.11561 0.16785 -0.02900
H 	H 	0.44344 0.35255 0.18252 0.05100
H 	H 	0.53548 0.39296 0.15431 0.04200
H 	H 	0.07930 0.05234 0.13397 0.04900
H 	H 	0.17165 0.09131 0.10586 0.06000
H 	H 	0.31927 0.17172 0.09094 0.05500
H 	H 	0.55056 0.36708 0.12148 0.04200
H 	H 	0.30185 0.25151 0.19855 0.06800
H 	H 	0.06995 0.06109 0.16749 0.04400
C 	C 	0.62916 0.59798 0.13936 -0.04000
C 	C 	0.65289 0.63584 0.15702 -0.04100
C 	C 	0.74227 0.70170 0.16096 0.02100
C 	C 	0.80777 0.73150 0.14692 -0.01100
C 	C 	0.78378 0.69371 0.12913 -0.00400
C 	C 	0.69453 0.62535 0.12545 0.01900
C 	C 	0.84996 0.72093 0.11528 0.01700
C 	C 	0.93876 0.78883 0.11906 -0.03300
C 	C 	0.89786 0.79706 0.15081 0.02500
C 	C 	0.92222 0.83128 0.16877 -0.03600
C 	C 	0.85713 0.80129 0.18275 -0.05100
C 	C 	0.76722 0.73718 0.17881 -0.02400
C 	C 	0.67324 0.58118 0.10831 -0.02400
C 	C 	0.74103 0.60232 0.09520 -0.05400
C 	C 	0.82786 0.67573 0.09826 -0.01900
H 	H 	0.56028 0.54604 0.13663 0.04500
H 	H 	0.60197 0.61295 0.16768 0.04600
H 	H 	0.03168 0.87776 0.13951 0.05100
H 	H 	0.71708 0.71473 0.18966 0.05200
H 	H 	0.60579 0.52555 0.10572 0.04900
H 	H 	0.87967 0.69284 0.08793 0.04800
C 	C 	0.57511 0.75626 0.93857 -0.06600
C 	C 	0.65501 0.75408 0.93586 0.13200
Br	Br	0.67901 0.71308 0.91296 -0.21400
C 	C 	0.08153 0.33827 0.92489 -0.03900
C 	C 	0.17313 0.39667 0.92868 -0.06700
C 	C 	0.21939 0.36606 0.93997 0.12000
C 	C 	0.03658 0.24968 0.93208 0.15700
Br	Br	0.91120 0.17234 0.92680 -0.23600
H 	H 	0.04582 0.36078 0.91595 0.08100
C 	C 	0.27333 0.01287 0.93755 0.02500
C 	C 	0.27256 0.87003 0.93307 -0.05500
C 	C 	0.29430 0.95739 0.92669 0.08200
Br	Br	0.34916 0.00117 0.90311 -0.19900
H 	H 	0.28224 0.07604 0.93193 0.06800
C 	C 	0.22343 0.75339 0.78734 -0.04000
C 	C 	0.25737 0.74316 0.80415 -0.03600
C 	C 	0.25203 0.78781 0.82002 0.02000
C 	C 	0.21143 0.84238 0.81904 -0.00300
C 	C 	0.17686 0.85238 0.80214 -0.00600
C 	C 	0.18352 0.80828 0.78619 0.02600
C 	C 	0.13718 0.90780 0.80111 0.02300
C 	C 	0.13049 0.95125 0.81705 -0.03700
C 	C 	0.16384 0.94040 0.83390 -0.03800
C 	C 	0.20457 0.88623 0.83500 0.02300
C 	C 	0.23602 0.87296 0.85196 -0.02000
C 	C 	0.27356 0.81589 0.85302 -0.04700
C 	C 	0.28410 0.77611 0.83697 -0.02400
C 	C 	0.15322 0.82237 0.76918 -0.02500
C 	C 	0.11847 0.88173 0.76798 -0.04000
C 	C 	0.10796 0.92200 0.78404 -0.02600
H 	H 	0.22864 0.71896 0.77521 0.05300
H 	H 	0.28731 0.70005 0.80485 0.03900
H 	H 	0.09985 0.99383 0.81639 0.04100
H 	H 	0.15792 0.97414 0.84607 0.05000
H 	H 	0.22726 0.90312 0.86442 0.06300
H 	H 	0.31279 0.73224 0.83790 0.04000
H 	H 	0.16146 0.79155 0.75676 0.05900
H 	H 	0.08199 0.96860 0.78301 0.03900
C 	C 	0.06027 0.18996 0.82007 -0.03600
C 	C 	0.07013 0.24507 0.83528 -0.03400
C 	C 	0.12937 0.33930 0.83446 0.02400
C 	C 	0.17873 0.37834 0.81818 -0.00100
C 	C 	0.16919 0.32289 0.80294 -0.00600
C 	C 	0.10921 0.22850 0.80383 0.02700
C 	C 	0.21882 0.36205 0.78669 0.02700
C 	C 	0.27894 0.45599 0.78595 -0.04000
C 	C 	0.28928 0.51086 0.80118 -0.03400
C 	C 	0.23925 0.47252 0.81731 0.01800
C 	C 	0.25271 0.52652 0.83286 -0.02000
C 	C 	0.20786 0.48729 0.84943 -0.05300
C 	C 	0.14318 0.39442 0.84997 -0.02000
C 	C 	0.09610 0.17454 0.78824 -0.02500
C 	C 	0.14030 0.21468 0.77164 -0.04500
C 	C 	0.20491 0.30738 0.77117 -0.02400
H 	H 	0.01416 0.11738 0.82090 0.05600
H 	H 	0.03212 0.21432 0.84772 0.05900
H 	H 	0.33685 0.58308 0.80049 0.04100
H 	H 	0.30421 0.59739 0.83260 0.04100
H 	H 	0.10862 0.36407 0.86278 0.06000
H 	H 	0.04736 0.10241 0.78861 0.05100
H 	H 	0.23965 0.33793 0.75839 0.05900
C 	C 	0.79385 0.82791 0.83564 -0.04400
C 	C 	0.84182 0.85146 0.81904 -0.04300
C 	C 	0.79921 0.85129 0.80249 0.01400
C 	C 	0.70761 0.82679 0.80262 -0.00800
C 	C 	0.65927 0.80269 0.81930 -0.00600
C 	C 	0.70269 0.80388 0.83590 0.02000
C 	C 	0.56790 0.77887 0.81942 0.01600
C 	C 	0.52514 0.77814 0.80287 -0.03600
C 	C 	0.57314 0.80214 0.78631 -0.04200
C 	C 	0.66449 0.82716 0.78608 0.02300
C 	C 	0.71331 0.85269 0.76957 -0.02400
C 	C 	0.80432 0.87665 0.76943 -0.05600
C 	C 	0.84703 0.87556 0.78584 -0.02900
C 	C 	0.65485 0.78307 0.85259 -0.02400
C 	C 	0.56467 0.76229 0.85272 -0.05600
C 	C 	0.52098 0.75818 0.83612 -0.02000
H 	H 	0.82779 0.82892 0.84831 0.04300
H 	H 	0.91220 0.87018 0.81907 0.03000
H 	H 	0.45493 0.75990 0.80285 0.04000
H 	H 	0.53931 0.80168 0.77366 0.05600
H 	H 	0.68046 0.85291 0.75681 0.05700
H 	H 	0.91733 0.89403 0.78563 0.02600
H 	H 	0.68825 0.78572 0.86545 0.06000
H 	H 	0.45104 0.74048 0.83628 0.04400
C 	C 	0.64499 0.93360 0.67968 -0.03100
C 	C 	0.57125 0.85876 0.68790 -0.07600
C 	C 	0.58646 0.82353 0.70415 0.12900
C 	C 	0.67397 0.84306 0.70856 -0.03700
C 	C 	0.74706 0.90263 0.69743 -0.07800
C 	C 	0.73239 0.95077 0.68322 0.10900
Br	Br	0.82726 0.03005 0.66682 -0.17500
H 	H 	0.63371 0.96838 0.66838 0.07000
H 	H 	0.68515 0.81309 0.72074 0.07600
Br	Br	0.49097 0.75770 0.72133 -0.20800
C 	C 	0.24587 0.34368 0.70497 -0.03000
C 	C 	0.17797 0.27592 0.69414 -0.07700
C 	C 	0.17616 0.28935 0.67509 0.13300
C 	C 	0.23550 0.37409 0.66744 -0.02500
C 	C 	0.29676 0.44540 0.67870 -0.07800
C 	C 	0.30667 0.42745 0.69719 0.13100
Br	Br	0.40185 0.51695 0.71205 -0.19900
H 	H 	0.25123 0.33139 0.71943 0.06900
H 	H 	0.22903 0.38674 0.65305 0.07900
Br	Br	0.09105 0.19411 0.65943 -0.15000
C 	C 	0.08964 0.86153 0.66451 -0.02800
C 	C 	0.14378 0.93106 0.67692 -0.07100
C 	C 	0.23548 0.98880 0.67245 0.12800
C 	C 	0.27506 0.96251 0.65860 -0.04700
C 	C 	0.22336 0.88051 0.64906 -0.06500
C 	C 	0.12926 0.84074 0.64980 0.12800
Br	Br	0.05723 0.77815 0.62895 -0.18300
H 	H 	0.01721 0.82469 0.66608 0.09100
H 	H 	0.34717 0.00105 0.65650 0.09600
Br	Br	0.30440 0.10750 0.68322 -0.19600
C 	C 	0.39954 0.43141 0.35439 -0.02800
C 	C 	0.42765 0.47221 0.37178 -0.07000
C 	C 	0.47290 0.44228 0.38363 0.12500
C 	C 	0.49359 0.37631 0.37754 -0.03100
C 	C 	0.47877 0.34729 0.35913 -0.07000
C 	C 	0.42431 0.36867 0.34811 0.12500
Br	Br	0.39010 0.31913 0.32378 -0.19600
H 	H 	0.36074 0.45040 0.34552 0.08900
H 	H 	0.53201 0.35680 0.38642 0.07100
Br	Br	0.51270 0.49450 0.40761 -0.23200
C 	C 	0.98736 0.46015 0.31975 -0.08300
C 	C 	0.09799 0.59913 0.33484 -0.03900
C 	C 	0.12205 0.54823 0.34642 -0.06700
C 	C 	0.09247 0.45646 0.34171 0.12500
Br	Br	0.14412 0.38990 0.35262 -0.20400
H 	H 	0.12770 0.67182 0.33678 0.08300
C 	C 	0.62236 0.99535 0.37468 -0.05400
C 	C 	0.53330 0.96905 0.37954 -0.08600
C 	C 	0.51338 0.03792 0.38495 0.13300
C 	C 	0.57677 0.12982 0.38184 -0.04100
C 	C 	0.65878 0.15373 0.37325 -0.09100
C 	C 	0.68604 0.08782 0.37242 0.13900
Br	Br	0.80628 0.12182 0.36513 -0.20300
H 	H 	0.64155 0.94440 0.37202 0.07600
H 	H 	0.55827 0.18145 0.38435 0.07500
Br	Br	0.40450 0.01035 0.39776 -0.22400
C 	C 	0.44497 0.45588 0.57959 -0.03200
C 	C 	0.46202 0.39936 0.59104 -0.07600
C 	C 	0.41431 0.36805 0.60771 0.12500
C 	C 	0.35939 0.40250 0.61365 -0.03000
C 	C 	0.35875 0.47435 0.60406 -0.08000
C 	C 	0.39331 0.49335 0.58596 0.13000
Br	Br	0.36437 0.56231 0.56912 -0.19700
H 	H 	0.47511 0.47383 0.56601 0.06900
H 	H 	0.32533 0.38070 0.62680 0.08000
Br	Br	0.42876 0.28496 0.62340 -0.18200
C 	C 	0.07129 0.60348 0.61467 -0.03800
C 	C 	0.05618 0.56639 0.63254 -0.03800
C 	C 	0.89890 0.46712 0.62450 -0.00900
C 	C 	0.91627 0.50252 0.60651 -0.11700
H 	H 	0.13884 0.65067 0.61015 0.03800
H 	H 	0.83248 0.41246 0.62811 0.07400
Br	Br	0.94425 0.44708 0.66178 -0.21100
C 	C 	0.60927 0.99500 0.58384 -0.06900
C 	C 	0.62133 0.06326 0.59634 -0.05800
C 	C 	0.62117 0.04743 0.61536 0.13700
C 	C 	0.59609 0.95983 0.62162 -0.04800
C 	C 	0.56703 0.88774 0.60903 -0.07700
C 	C 	0.58489 0.90798 0.59021 0.13700
Br	Br	0.56400 0.81422 0.57283 -0.21300
H 	H 	0.61537 0.00849 0.56917 0.08700
H 	H 	0.58759 0.94560 0.63624 0.06600
Br	Br	0.64830 0.14228 0.63295 -0.19300
C 	C 	0.37311 0.32775 0.46400 -0.03500
C 	C 	0.40418 0.30304 0.47957 -0.03600
C 	C 	0.44454 0.36488 0.49413 0.02200
C 	C 	0.45080 0.45104 0.49332 -0.00400
C 	C 	0.41948 0.47584 0.47767 -0.00300
C 	C 	0.38214 0.41463 0.46280 0.02500
C 	C 	0.42928 0.56339 0.47653 0.02200
C 	C 	0.46631 0.62391 0.49141 -0.03600
C 	C 	0.49722 0.59919 0.50698 -0.03600
C 	C 	0.49155 0.51372 0.50785 0.02400
C 	C 	0.52852 0.49119 0.52278 -0.01900
C 	C 	0.52494 0.40669 0.52329 -0.05600
C 	C 	0.48119 0.34284 0.50923 -0.02100
C 	C 	0.35867 0.44272 0.44657 -0.01600
C 	C 	0.37520 0.53244 0.44490 -0.04800
C 	C 	0.40634 0.59097 0.46020 -0.02200
H 	H 	0.34371 0.27992 0.45272 0.05500
H 	H 	0.39820 0.23636 0.48014 0.05000
H 	H 	0.47299 0.69088 0.49076 0.04600
H 	H 	0.52702 0.64720 0.51822 0.05700
H 	H 	0.56113 0.53963 0.53387 0.05000
H 	H 	0.47794 0.27730 0.50980 0.04900
H 	H 	0.33256 0.39670 0.43491 0.06600
H 	H 	0.41706 0.65942 0.45903 0.04700
C 	C 	0.65007 0.13611 0.47397 -0.01300
C 	C 	0.61069 0.09133 0.45750 -0.06700
C 	C 	0.53655 0.00280 0.45779 0.07900
C 	C 	0.50284 0.95825 0.47475 -0.06900
C 	C 	0.54155 0.00391 0.49134 0.05900
C 	C 	0.61458 0.09371 0.49094 -0.01500
C 	C 	0.50572 0.96084 0.50835 -0.04000
C 	C 	0.43438 0.87060 0.50862 -0.00800
C 	C 	0.39726 0.82433 0.49209 -0.06700
C 	C 	0.43027 0.86816 0.47511 0.05200
C 	C 	0.39251 0.82283 0.45847 -0.05100
C 	C 	0.42564 0.86768 0.44161 -0.02800
C 	C 	0.49689 0.95780 0.44134 -0.05700
C 	C 	0.64828 0.14139 0.50745 0.00400
C 	C 	0.60771 0.10127 0.52425 -0.08400
C 	C 	0.53914 0.00993 0.52479 0.03300
H 	H 	0.70769 0.20406 0.47354 0.03600
H 	H 	0.63794 0.12550 0.44450 0.05800
H 	H 	0.40718 0.83645 0.52161 0.04600
H 	H 	0.34253 0.75465 0.49252 0.05000
H 	H 	0.34029 0.75203 0.45861 0.04300
H 	H 	0.52367 0.99141 0.42826 0.06700
H 	H 	0.70227 0.21157 0.50719 0.04000
H 	H 	0.50889 0.97888 0.53788 0.02800
C 	C 	0.12484 0.68829 0.48182 -0.06000
C 	C 	0.99355 0.59067 0.50044 -0.01300
C 	C 	0.94871 0.54079 0.48453 0.01600
C 	C 	0.99348 0.56276 0.46741 -0.04000
C 	C 	0.08228 0.63598 0.46610 0.05600
C 	C 	0.95069 0.50919 0.45174 0.04100
C 	C 	0.86138 0.43790 0.45304 -0.05000
C 	C 	0.81620 0.41748 0.46996 -0.03000
C 	C 	0.86049 0.46658 0.48587 0.00700
C 	C 	0.81923 0.43981 0.50320 -0.01500
C 	C 	0.86625 0.48514 0.51921 -0.05900
C 	C 	0.95187 0.56272 0.51776 -0.01100
C 	C 	0.12866 0.65350 0.44930 -0.04300
C 	C 	0.08872 0.59569 0.43416 -0.02900
C 	C 	0.99890 0.52548 0.43518 -0.04700
H 	H 	0.19257 0.74558 0.48089 0.05000
H 	H 	0.82719 0.39759 0.44101 0.05100
H 	H 	0.74720 0.36262 0.47073 0.04100
H 	H 	0.75208 0.38150 0.50434 0.04600
H 	H 	0.98756 0.59836 0.53012 0.05500
H 	H 	0.19650 0.71014 0.44814 0.05200
H 	H 	0.96781 0.48184 0.42335 0.05600
O 	O 	0.94106 0.83041 0.21101 -0.36400
H 	H 	0.94366 0.17304 0.11811 0.05100
C 	C 	0.96258 0.82658 0.13673 -0.05800
C 	C 	0.02624 0.41351 0.32815 -0.01700
C 	C 	0.96857 0.49944 0.63760 0.08900
C 	C 	0.96638 0.09818 0.01266 0.30200
H 	H 	0.95466 0.24083 0.00058 0.07600
C 	C 	0.03372 0.55560 0.32095 0.13100
H 	H 	0.31754 0.48666 0.77356 0.05600
C 	C 	0.00158 0.57439 0.60203 0.17700
Br	Br	0.02580 0.63081 0.57817 -0.19400
Br	Br	0.01723 0.62726 0.30279 -0.19600
O 	O 	0.01908 0.88955 0.69795 -0.35400
H 	H 	0.98984 0.81104 0.10844 0.04200
O 	O 	0.97927 0.15474 0.21785 -0.36900
H 	H 	0.99133 0.88178 0.17184 0.03800
H 	H 	0.11563 0.70496 0.51098 0.04700
O 	O 	0.98385 0.99849 0.22782 -0.73400
H 	H 	0.97679 0.00829 0.21472 0.16200
H 	H 	0.99757 0.34117 0.32578 0.08300
O 	O 	0.00320 0.86867 0.25067 -0.35700
C 	C 	0.92414 0.13826 0.14686 -0.03500
C 	C 	0.08100 0.66538 0.49891 -0.00200
O 	O 	0.01173 0.05512 0.94556 -0.32700
H 	H 	0.78516 0.79283 0.94649 0.04900
C 	C 	0.08346 0.21882 0.94314 -0.09000
Br	Br	0.34298 0.44547 0.94649 -0.20600
O 	O 	0.07289 0.93395 0.95202 -0.35000
C 	C 	0.72054 0.78656 0.94951 -0.02000
C 	C 	0.17487 0.27743 0.94694 -0.02400
C 	C 	0.24319 0.84580 0.95123 -0.04100
C 	C 	0.15266 0.99577 0.95818 0.28900
C 	C 	0.03495 0.13327 0.95358 0.33600
C 	C 	0.55886 0.78520 0.95555 -0.03300
H 	H 	0.49634 0.78521 0.95781 0.07500
H 	H 	0.21079 0.25494 0.95582 0.05900
C 	C 	0.22782 0.98030 0.95430 -0.10500
H 	H 	0.23347 0.78226 0.95682 0.08200
Ni	Ni	0.95724 0.93151 0.96009 1.09900
O 	O 	0.16703 0.07593 0.96479 -0.34600
Br	Br	0.72684 0.59764 0.96136 -0.19400
C 	C 	0.70719 0.82015 0.96620 -0.08400
C 	C 	0.22454 0.90261 0.96211 0.14100
O 	O 	0.85172 0.94777 0.96839 -0.38200
O 	O 	0.03357 0.13761 0.97143 -0.36900
O 	O 	0.89496 0.79307 0.96870 -0.35000
C 	C 	0.62462 0.81690 0.96943 0.13400
C 	C 	0.78707 0.88047 0.97710 0.33000
C 	C 	0.91437 0.75951 0.98367 0.29400
O 	O 	0.00820 0.96781 0.98369 -0.71000
H 	H 	0.04426 0.93750 0.98466 0.17800
C 	C 	0.88376 0.66162 0.98473 -0.05900
C 	C 	0.79150 0.59932 0.98293 0.12400
Ni	Ni	0.09864 0.09056 0.98697 1.12700
O 	O 	0.80758 0.84758 0.99160 -0.35200
Br	Br	0.17882 0.86452 0.98647 -0.23500
C 	C 	0.74762 0.53404 0.99666 -0.02700
C 	C 	0.93462 0.63578 0.99573 -0.07100
H 	H 	0.67519 0.49124 0.99622 0.08500
H 	H 	0.00734 0.67505 0.99531 0.11400
Br	Br	0.60268 0.86011 0.99220 -0.19500
O 	O 	0.94183 0.80609 0.99929 -0.37600
