data_crystal

_cell_length_a 33.56429
_cell_length_b 32.62365
_cell_length_c 26.45757
_cell_angle_alpha 89.99792
_cell_angle_beta  90.00017
_cell_angle_gamma 90.00246

_symmetry_space_group_name_	'P 1'
_symmetry_space_group_name_H-M	'P 1'

loop_
_symmetry_equiv_pos_as_xyz
  x,y,z

loop_
_atom_site_label
_atom_site_type_symbol
_atom_site_fract_x
_atom_site_fract_y
_atom_site_fract_z
_atom_site_charge
Zn	Zn	0.61061 0.08467 0.72292 1.20700
Zn	Zn	0.55272 0.01666 0.68500 1.22100
Zn	Zn	0.55334 0.14462 0.66932 1.23000
P 	P 	0.52612 0.08740 0.74719 0.32300
P 	P 	0.58875 0.07624 0.61667 0.31800
C 	C 	0.49147 0.19060 0.62872 0.32000
C 	C 	0.62252 0.17026 0.72845 0.32900
C 	C 	0.62678 0.00099 0.74208 0.32300
O 	O 	0.56733 0.07242 0.76995 -0.42900
O 	O 	0.62181 0.09545 0.65218 -0.42600
O 	O 	0.51434 0.06007 0.69926 -0.39400
O 	O 	0.54702 0.09769 0.62642 -0.40400
O 	O 	0.52874 0.13511 0.73365 -0.40100
O 	O 	0.58609 0.02809 0.62657 -0.39700
O 	O 	0.52827 0.19285 0.64489 -0.37900
O 	O 	0.46555 0.98545 0.67402 -0.17600
O 	O 	0.47444 0.15465 0.62326 -0.18300
O 	O 	0.60767 0.16878 0.68227 -0.39900
O 	O 	0.58748 0.99801 0.74287 -0.39300
O 	O 	0.62872 0.13605 0.75354 -0.40900
O 	O 	0.64365 0.03600 0.72991 -0.42000
C 	C 	0.49272 0.96354 0.65065 0.30500
O 	O 	0.52969 0.96459 0.66675 -0.36300
Zn	Zn	0.36034 0.87898 0.27956 1.20400
Zn	Zn	0.41630 0.92038 0.35408 1.21800
Zn	Zn	0.42367 0.89438 0.19742 1.22200
P 	P 	0.43989 0.84764 0.29184 0.32300
P 	P 	0.39438 0.96164 0.26004 0.32500
C 	C 	0.47518 0.92483 0.12130 0.30800
C 	C 	0.34299 0.86018 0.17779 0.32500
C 	C 	0.33336 0.89180 0.37873 0.32700
O 	O 	0.39648 0.83988 0.31342 -0.40100
O 	O 	0.35706 0.93336 0.24821 -0.43300
O 	O 	0.45426 0.89189 0.31030 -0.39000
O 	O 	0.43431 0.94041 0.24070 -0.40500
O 	O 	0.43785 0.84397 0.23144 -0.39900
O 	O 	0.39638 0.96966 0.31981 -0.36900
O 	O 	0.45464 0.89256 0.13568 -0.37700
O 	O 	0.45461 0.87361 0.43609 -0.20800
O 	O 	0.46729 0.96077 0.14129 -0.19300
O 	O 	0.36836 0.88995 0.16671 -0.40900
O 	O 	0.37177 0.88778 0.38865 -0.40400
O 	O 	0.34234 0.84477 0.22362 -0.39700
O 	O 	0.32086 0.88918 0.33196 -0.40400
C 	C 	0.45375 0.91254 0.44866 0.31100
O 	O 	0.43915 0.93959 0.41685 -0.36800
Zn	Zn	0.70338 0.88659 0.99660 1.20900
Zn	Zn	0.75842 0.82710 0.93025 1.22300
Zn	Zn	0.63351 0.84689 0.93522 1.22500
P 	P 	0.69099 0.79882 0.99555 0.31100
P 	P 	0.70123 0.88214 0.88381 0.32200
C 	C 	0.55998 0.86332 0.88927 0.31500
C 	C 	0.62330 0.90808 0.01338 0.33800
C 	C 	0.78683 0.89297 0.99708 0.30400
O 	O 	0.71320 0.83332 0.02698 -0.38300
O 	O 	0.69267 0.91120 0.93080 -0.41100
O 	O 	0.71188 0.79243 0.94178 -0.40400
O 	O 	0.67383 0.84229 0.88470 -0.43200
O 	O 	0.64465 0.81003 0.99023 -0.39700
O 	O 	0.74728 0.87006 0.88181 -0.37700
O 	O 	0.58005 0.83557 0.91457 -0.39900
O 	O 	0.76669 0.74376 0.88529 -0.19600
O 	O 	0.57869 0.89465 0.86911 -0.20900
O 	O 	0.62197 0.90238 0.96422 -0.42900
O 	O 	0.78519 0.85281 0.99055 -0.40400
O 	O 	0.65748 0.90463 0.03717 -0.38300
O 	O 	0.75409 0.91322 0.00785 -0.37000
C 	C 	0.79936 0.76499 0.87755 0.30500
O 	O 	0.80425 0.80008 0.90111 -0.38700
Zn	Zn	0.90206 0.62790 0.51064 1.20600
Zn	Zn	0.86355 0.68308 0.59456 1.22300
Zn	Zn	0.88116 0.69874 0.43775 1.22500
P 	P 	0.93076 0.71100 0.52858 0.32400
P 	P 	0.82031 0.66328 0.50233 0.32300
C 	C 	0.84166 0.74034 0.35958 0.31100
C 	C 	0.91730 0.62109 0.40547 0.32800
C 	C 	0.89145 0.59824 0.60960 0.32600
O 	O 	0.94020 0.66500 0.54407 -0.41400
O 	O 	0.84736 0.62603 0.48437 -0.41800
O 	O 	0.88887 0.72447 0.55226 -0.38400
O 	O 	0.83913 0.70593 0.48558 -0.40500
O 	O 	0.93135 0.71421 0.46808 -0.39000
O 	O 	0.81536 0.66161 0.56247 -0.35800
O 	O 	0.87692 0.73218 0.37844 -0.38400
O 	O 	0.90786 0.72823 0.67448 -0.20100
O 	O 	0.81080 0.71804 0.37278 -0.22100
O 	O 	0.88518 0.64422 0.40231 -0.41800
O 	O 	0.89802 0.63701 0.62099 -0.41900
O 	O 	0.93286 0.61296 0.45002 -0.39200
O 	O 	0.89496 0.58587 0.56257 -0.38300
C 	C 	0.87135 0.72096 0.68988 0.31200
O 	O 	0.84617 0.70192 0.66004 -0.38000
Zn	Zn	0.14505 0.16726 0.77962 1.20400
Zn	Zn	0.08593 0.12784 0.85270 1.21900
Zn	Zn	0.07797 0.15797 0.69951 1.22800
P 	P 	0.06413 0.20045 0.79497 0.32500
P 	P 	0.11018 0.08845 0.75561 0.32100
C 	C 	0.01425 0.13036 0.64169 0.30000
C 	C 	0.15540 0.19771 0.67840 0.33400
C 	C 	0.16772 0.15431 0.88230 0.33600
O 	O 	0.10707 0.21302 0.77524 -0.39300
O 	O 	0.14798 0.10684 0.78342 -0.39900
O 	O 	0.06893 0.18422 0.85154 -0.39200
O 	O 	0.10718 0.10905 0.70096 -0.42100
O 	O 	0.04613 0.16520 0.76033 -0.41400
O 	O 	0.07178 0.09630 0.79039 -0.39900
O 	O 	0.03868 0.16156 0.64673 -0.37300
O 	O 	0.08084 0.15383 0.95639 -0.21900
O 	O 	0.02096 0.09642 0.66699 -0.21700
O 	O 	0.11622 0.20230 0.67848 -0.38700
O 	O 	0.14269 0.12328 0.87848 -0.41200
O 	O 	0.17367 0.17985 0.71661 -0.39300
O 	O 	0.17316 0.17886 0.84344 -0.39000
C 	C 	0.06574 0.11677 0.95322 0.31300
O 	O 	0.06378 0.09850 0.90904 -0.37800
Zn	Zn	0.88121 0.96181 0.22191 1.20900
Zn	Zn	0.95291 0.01006 0.18370 1.21900
Zn	Zn	0.92366 0.88395 0.18299 1.22600
P 	P 	0.96186 0.94072 0.25355 0.32200
P 	P 	0.90705 0.95501 0.11806 0.31900
C 	C 	0.93353 0.81216 0.12517 0.31000
C 	C 	0.84815 0.88391 0.23816 0.32400
C 	C 	0.88386 0.04591 0.23924 0.33500
O 	O 	0.92462 0.96658 0.27193 -0.40600
O 	O 	0.86937 0.94715 0.15251 -0.42000
O 	O 	0.97873 0.95922 0.20213 -0.39900
O 	O 	0.94138 0.92319 0.13237 -0.38200
O 	O 	0.94860 0.89396 0.24742 -0.38100
O 	O 	0.92048 0.00184 0.12402 -0.40300
O 	O 	0.93667 0.82764 0.17066 -0.37300
O 	O 	0.04052 0.00883 0.15667 -0.18100
O 	O 	0.90243 0.82083 0.09708 -0.18500
O 	O 	0.86475 0.87680 0.19381 -0.39700
O 	O 	0.92308 0.04204 0.23799 -0.40300
O 	O 	0.84887 0.92118 0.25698 -0.39400
O 	O 	0.86145 0.01747 0.21910 -0.41700
C 	C 	0.02249 0.04241 0.14167 0.30000
O 	O 	0.98843 0.05277 0.16235 -0.38400
Zn	Zn	0.10600 0.91730 0.52362 1.20400
Zn	Zn	0.14227 0.85808 0.60130 1.22100
Zn	Zn	0.12451 0.84880 0.44379 1.22400
P 	P 	0.07561 0.83332 0.53447 0.32700
P 	P 	0.18671 0.88157 0.51072 0.32100
C 	C 	0.15863 0.79603 0.37067 0.30700
C 	C 	0.08537 0.92698 0.42040 0.32800
C 	C 	0.11323 0.94153 0.62583 0.32700
O 	O 	0.06707 0.87872 0.55330 -0.41000
O 	O 	0.15998 0.91946 0.49408 -0.40100
O 	O 	0.11753 0.81853 0.55638 -0.39200
O 	O 	0.16735 0.83988 0.49099 -0.42000
O 	O 	0.07458 0.83251 0.47395 -0.38800
O 	O 	0.19043 0.88125 0.57111 -0.37900
O 	O 	0.12667 0.81748 0.38174 -0.37900
O 	O 	0.09410 0.81949 0.68032 -0.20700
O 	O 	0.19282 0.80527 0.39184 -0.21300
O 	O 	0.11830 0.90539 0.41393 -0.41800
O 	O 	0.10752 0.90199 0.63316 -0.40200
O 	O 	0.07339 0.93579 0.46644 -0.38900
O 	O 	0.11420 0.95615 0.57958 -0.39800
C 	C 	0.13148 0.82041 0.69492 0.31400
O 	O 	0.15885 0.83528 0.66464 -0.37900
Zn	Zn	0.30226 0.67683 0.98185 1.20300
Zn	Zn	0.23653 0.72971 0.93615 1.21900
Zn	Zn	0.36092 0.74281 0.94296 1.23000
P 	P 	0.29433 0.76135 0.01070 0.32800
P 	P 	0.30462 0.70262 0.87602 0.32000
C 	C 	0.40265 0.81272 0.91243 0.31300
C 	C 	0.38526 0.66873 0.99827 0.30500
C 	C 	0.22299 0.64966 0.98586 0.31500
O 	O 	0.28047 0.71746 0.02925 -0.41400
O 	O 	0.32150 0.66899 0.91339 -0.42300
O 	O 	0.27299 0.77241 0.95850 -0.40300
O 	O 	0.32077 0.74680 0.89117 -0.39900
O 	O 	0.34176 0.76169 0.00664 -0.39600
O 	O 	0.25701 0.70117 0.87693 -0.39900
O 	O 	0.40699 0.77623 0.93253 -0.37200
O 	O 	0.20137 0.81573 0.91992 -0.18000
O 	O 	0.36748 0.82484 0.89673 -0.18500
O 	O 	0.38811 0.68848 0.95478 -0.39400
O 	O 	0.21591 0.68945 0.98800 -0.40200
O 	O 	0.35021 0.66213 0.01900 -0.38800
O 	O 	0.25959 0.63669 0.97904 -0.41800
C 	C 	0.18165 0.78621 0.89730 0.30400
O 	O 	0.18535 0.74850 0.91365 -0.37400
Zn	Zn	0.19701 0.39351 0.49078 1.20900
Zn	Zn	0.25560 0.33498 0.43517 1.22000
Zn	Zn	0.13135 0.33497 0.45024 1.22700
P 	P 	0.19739 0.30697 0.51371 0.32200
P 	P 	0.18877 0.37136 0.38312 0.32200
C 	C 	0.07241 0.29775 0.39097 0.30400
C 	C 	0.11567 0.40766 0.51099 0.32800
C 	C 	0.27950 0.41076 0.49024 0.33000
O 	O 	0.21551 0.34880 0.53364 -0.41500
O 	O 	0.17822 0.40593 0.42301 -0.42200
O 	O 	0.21669 0.29524 0.46027 -0.39200
O 	O 	0.17044 0.32838 0.39885 -0.42700
O 	O 	0.14980 0.31022 0.51151 -0.38300
O 	O 	0.23600 0.36800 0.37885 -0.36500
O 	O 	0.08055 0.31112 0.43655 -0.38100
O 	O 	0.27859 0.24609 0.41030 -0.19000
O 	O 	0.10109 0.29295 0.35777 -0.21000
O 	O 	0.11175 0.39175 0.46552 -0.41100
O 	O 	0.28252 0.37035 0.48760 -0.42100
O 	O 	0.15128 0.41179 0.53106 -0.39100
O 	O 	0.24411 0.42796 0.48930 -0.39600
C 	C 	0.29977 0.27394 0.38659 0.30400
O 	O 	0.30255 0.31088 0.40583 -0.37300
Zn	Zn	0.39395 0.14069 0.01979 1.20600
Zn	Zn	0.35367 0.19541 0.09819 1.21900
Zn	Zn	0.37478 0.21075 0.94294 1.22800
P 	P 	0.41989 0.22514 0.03731 0.32600
P 	P 	0.31374 0.16986 0.00263 0.33400
C 	C 	0.33802 0.27412 0.88695 0.30200
C 	C 	0.41999 0.13503 0.91619 0.32800
C 	C 	0.38410 0.11050 0.12082 0.32700
O 	O 	0.43515 0.18351 0.01322 -0.39700
O 	O 	0.33607 0.13205 0.02710 -0.38500
O 	O 	0.40734 0.21603 0.09446 -0.40800
O 	O 	0.33042 0.17596 0.94666 -0.42600
O 	O 	0.38286 0.24192 0.00566 -0.39200
O 	O 	0.32029 0.20907 0.03809 -0.39700
O 	O 	0.37114 0.25277 0.89087 -0.34800
O 	O 	0.36077 0.27525 0.15230 -0.20800
O 	O 	0.30658 0.26337 0.91332 -0.21100
O 	O 	0.42014 0.17566 0.91675 -0.38200
O 	O 	0.35360 0.13620 0.12238 -0.38900
O 	O 	0.40558 0.11402 0.95469 -0.39100
O 	O 	0.40891 0.11109 0.08217 -0.39600
C 	C 	0.33546 0.25133 0.17603 0.30700
O 	O 	0.32421 0.21674 0.15501 -0.37200
Zn	Zn	0.64568 0.67566 0.26570 1.20400
Zn	Zn	0.59632 0.63745 0.35406 1.22100
Zn	Zn	0.57663 0.64777 0.19701 1.22600
P 	P 	0.56420 0.70227 0.28510 0.32200
P 	P 	0.61478 0.58924 0.26409 0.32300
C 	C 	0.50532 0.63530 0.14386 0.30300
C 	C 	0.64980 0.68688 0.15964 0.32800
C 	C 	0.67799 0.67024 0.36295 0.32900
O 	O 	0.60874 0.71478 0.29822 -0.41700
O 	O 	0.64925 0.61826 0.24353 -0.42400
O 	O 	0.55370 0.65963 0.31200 -0.38900
O 	O 	0.57218 0.60584 0.24718 -0.40500
O 	O 	0.56001 0.69995 0.22480 -0.38000
O 	O 	0.61747 0.58675 0.32451 -0.35800
O 	O 	0.54365 0.64126 0.13849 -0.35900
O 	O 	0.52945 0.58540 0.39656 -0.17200
O 	O 	0.49060 0.62708 0.18870 -0.18800
O 	O 	0.62891 0.65265 0.15964 -0.39600
O 	O 	0.64042 0.67600 0.37551 -0.42200
O 	O 	0.65783 0.70517 0.20276 -0.41400
O 	O 	0.68858 0.67248 0.31535 -0.40000
C 	C 	0.54956 0.60309 0.43314 0.30600
O 	O 	0.58193 0.62389 0.42260 -0.39000
Zn	Zn	0.36606 0.49931 0.74485 1.20700
Zn	Zn	0.43770 0.54273 0.68981 1.22100
Zn	Zn	0.40421 0.41947 0.70569 1.22800
P 	P 	0.44823 0.47798 0.76832 0.32100
P 	P 	0.38634 0.48576 0.63693 0.31900
C 	C 	0.44557 0.34992 0.67640 0.31600
C 	C 	0.33459 0.42151 0.76774 0.32800
C 	C 	0.37075 0.58607 0.74084 0.32700
O 	O 	0.41343 0.50718 0.78696 -0.40500
O 	O 	0.35035 0.48373 0.67585 -0.41400
O 	O 	0.46403 0.49321 0.71452 -0.40800
O 	O 	0.42116 0.45558 0.65330 -0.40900
O 	O 	0.43289 0.43146 0.76698 -0.39100
O 	O 	0.40202 0.53180 0.63394 -0.39200
O 	O 	0.41130 0.36279 0.69342 -0.37900
O 	O 	0.52282 0.53548 0.65664 -0.19300
O 	O 	0.47512 0.37593 0.67072 -0.20700
O 	O 	0.34635 0.41560 0.72103 -0.40800
O 	O 	0.40967 0.57908 0.74059 -0.41800
O 	O 	0.33772 0.45848 0.78704 -0.39600
O 	O 	0.34575 0.55502 0.74254 -0.39700
C 	C 	0.50614 0.56896 0.63898 0.30300
O 	O 	0.47319 0.58243 0.66002 -0.39000
Zn	Zn	0.78896 0.15710 0.50197 1.21100
Zn	Zn	0.73561 0.20721 0.42369 1.22300
Zn	Zn	0.85916 0.19849 0.44462 1.22900
P 	P 	0.79521 0.24455 0.49515 0.32000
P 	P 	0.79912 0.15423 0.38996 0.32400
C 	C 	0.91379 0.24284 0.38779 0.31000
C 	C 	0.86987 0.14053 0.52624 0.32800
C 	C 	0.70629 0.14425 0.49437 0.32500
O 	O 	0.77231 0.21052 0.52637 -0.42000
O 	O 	0.80559 0.12931 0.44085 -0.42600
O 	O 	0.77812 0.24692 0.43863 -0.38600
O 	O 	0.82199 0.19680 0.39080 -0.40700
O 	O 	0.84205 0.23535 0.49669 -0.40300
O 	O 	0.75280 0.16184 0.38117 -0.35800
O 	O 	0.91082 0.21675 0.42528 -0.38300
O 	O 	0.72597 0.28573 0.36666 -0.19600
O 	O 	0.88150 0.25754 0.36648 -0.18600
O 	O 	0.87440 0.14557 0.47717 -0.40200
O 	O 	0.70601 0.18377 0.48315 -0.42100
O 	O 	0.83452 0.14569 0.54698 -0.40500
O 	O 	0.73949 0.12704 0.51016 -0.39100
C 	C 	0.69588 0.26109 0.35764 0.30100
O 	O 	0.69081 0.22837 0.38582 -0.37100
Zn	Zn	0.60776 0.43209 0.01549 1.20800
Zn	Zn	0.63240 0.36214 0.08643 1.22100
Zn	Zn	0.61269 0.36750 0.92663 1.22700
P 	P 	0.56195 0.35539 0.01777 0.33500
P 	P 	0.67909 0.38285 0.99535 0.31600
C 	C 	0.63835 0.31879 0.84389 0.30500
C 	C 	0.58432 0.45220 0.91604 0.33300
C 	C 	0.61924 0.44806 0.11929 0.32600
O 	O 	0.56172 0.40001 0.04191 -0.40200
O 	O 	0.65982 0.42596 0.98233 -0.40100
O 	O 	0.59934 0.33027 0.03935 -0.38800
O 	O 	0.65229 0.34707 0.97267 -0.43200
O 	O 	0.56222 0.35965 0.95738 -0.41900
O 	O 	0.68291 0.37867 0.05544 -0.36400
O 	O 	0.60827 0.34018 0.86168 -0.36900
O 	O 	0.61501 0.27706 0.13135 -0.19500
O 	O 	0.67458 0.32643 0.85995 -0.21500
O 	O 	0.61320 0.42651 0.90340 -0.39600
O 	O 	0.60641 0.40993 0.12349 -0.39200
O 	O 	0.57969 0.46280 0.96360 -0.41500
O 	O 	0.62440 0.46408 0.07429 -0.39300
C 	C 	0.63487 0.30031 0.16305 0.31300
O 	O 	0.64970 0.33544 0.14785 -0.36900
Zn	Zn	0.11671 0.56844 0.23343 1.20900
Zn	Zn	0.05254 0.51881 0.17264 1.22400
Zn	Zn	0.08201 0.64455 0.17715 1.22600
P 	P 	0.03278 0.58926 0.23901 0.32100
P 	P 	0.11005 0.57206 0.12312 0.32200
C 	C 	0.06480 0.70818 0.10919 0.31100
C 	C 	0.14490 0.64868 0.25241 0.33000
C 	C 	0.11213 0.48209 0.24192 0.32900
O 	O 	0.06561 0.56320 0.26761 -0.42600
O 	O 	0.14031 0.57987 0.16806 -0.41100
O 	O 	0.02342 0.56950 0.18503 -0.39600
O 	O 	0.07369 0.60344 0.12582 -0.41100
O 	O 	0.04740 0.63581 0.23436 -0.39100
O 	O 	0.09512 0.52565 0.12420 -0.36600
O 	O 	0.07126 0.69992 0.15698 -0.38600
O 	O 	0.98293 0.52326 0.10476 -0.19700
O 	O 	0.08121 0.68538 0.07411 -0.20000
O 	O 	0.13733 0.65289 0.20377 -0.40400
O 	O 	0.07381 0.48826 0.23303 -0.39600
O 	O 	0.13974 0.61279 0.27416 -0.40600
O 	O 	0.13717 0.51311 0.24124 -0.40900
C 	C 	0.99450 0.48497 0.10903 0.30000
O 	O 	0.02158 0.47523 0.14276 -0.36600
Zn	Zn	0.84935 0.36897 0.75801 1.20400
Zn	Zn	0.90413 0.40760 0.83921 1.22100
Zn	Zn	0.91374 0.39413 0.68108 1.22200
P 	P 	0.92989 0.34027 0.76898 0.32300
P 	P 	0.88144 0.45407 0.75036 0.32200
C 	C 	0.96719 0.43162 0.61343 0.31400
C 	C 	0.83609 0.35901 0.65247 0.32600
C 	C 	0.82250 0.37561 0.85853 0.32700
O 	O 	0.88668 0.32879 0.78854 -0.37600
O 	O 	0.84499 0.42595 0.73418 -0.42700
O 	O 	0.94319 0.38310 0.79325 -0.41200
O 	O 	0.92240 0.43559 0.73067 -0.42100
O 	O 	0.92795 0.34148 0.70843 -0.40900
O 	O 	0.88188 0.45788 0.81059 -0.36700
O 	O 	0.94575 0.39855 0.62104 -0.39600
O 	O 	0.94967 0.36189 0.91916 -0.20100
O 	O 	0.95777 0.46584 0.63666 -0.20400
O 	O 	0.85954 0.39136 0.64815 -0.41400
O 	O 	0.86083 0.37100 0.86826 -0.39300
O 	O 	0.83328 0.33976 0.69613 -0.39300
O 	O 	0.80972 0.37382 0.81169 -0.39400
C 	C 	0.94222 0.39944 0.93427 0.31300
O 	O 	0.92457 0.42540 0.90369 -0.37700
C 	C 	0.98153 0.45473 0.07124 -0.05800
C 	C 	0.00936 0.43648 0.03819 0.18700
C 	C 	0.99604 0.41546 0.99528 -0.03700
C 	C 	0.95524 0.41314 0.98447 -0.08100
C 	C 	0.92741 0.42859 0.01940 0.20400
C 	C 	0.94065 0.44925 0.06258 -0.04200
H 	H 	0.01753 0.40293 0.96889 0.09600
H 	H 	0.91911 0.46248 0.08839 0.10600
Cl	Cl	0.06102 0.44245 0.04775 -0.25800
Cl	Cl	0.87584 0.42263 0.00921 -0.25700
C 	C 	0.72782 0.37854 0.96634 -0.02300
C 	C 	0.75255 0.41314 0.96005 0.17100
C 	C 	0.78495 0.41132 0.92656 -0.02300
C 	C 	0.79343 0.37501 0.90025 -0.08000
C 	C 	0.77128 0.33941 0.91069 0.20500
C 	C 	0.73905 0.34116 0.94424 -0.06400
H 	H 	0.80298 0.43841 0.92022 0.09300
H 	H 	0.72171 0.31376 0.95137 0.10800
Cl	Cl	0.74488 0.45806 0.99567 -0.23400
Cl	Cl	0.78305 0.29255 0.88115 -0.24900
C 	C 	0.81485 0.34313 0.60744 -0.08500
C 	C 	0.77992 0.31936 0.61231 0.20300
C 	C 	0.76777 0.29425 0.57217 -0.06500
C 	C 	0.79025 0.29283 0.52748 -0.02400
C 	C 	0.81890 0.32357 0.51899 0.16900
C 	C 	0.83202 0.34779 0.55936 -0.03000
H 	H 	0.74275 0.27368 0.57722 0.11300
H 	H 	0.85690 0.36851 0.55394 0.09600
Cl	Cl	0.75006 0.32232 0.66696 -0.26200
Cl	Cl	0.84086 0.32977 0.45901 -0.26200
C 	C 	0.64270 0.28611 0.21486 -0.06600
C 	C 	0.63507 0.31199 0.25640 0.19000
C 	C 	0.65023 0.30204 0.30412 -0.03800
C 	C 	0.67265 0.26623 0.31097 -0.06500
C 	C 	0.67758 0.23878 0.27026 0.18600
C 	C 	0.66233 0.24871 0.22256 -0.03600
H 	H 	0.64569 0.32287 0.33552 0.10100
H 	H 	0.66766 0.22835 0.19090 0.10200
Cl	Cl	0.60662 0.35703 0.24914 -0.25400
Cl	Cl	0.70532 0.19330 0.27747 -0.26000
C 	C 	0.48834 0.47846 0.81373 -0.02400
C 	C 	0.48079 0.46896 0.86482 0.16800
C 	C 	0.51234 0.45972 0.89721 -0.02700
C 	C 	0.55186 0.46123 0.88004 -0.09900
C 	C 	0.55970 0.47289 0.82972 0.20100
C 	C 	0.52794 0.48114 0.79675 -0.06900
H 	H 	0.50605 0.45109 0.93598 0.09000
H 	H 	0.53413 0.48877 0.75770 0.11300
Cl	Cl	0.43195 0.46841 0.88920 -0.26600
Cl	Cl	0.60894 0.47847 0.80770 -0.25500
C 	C 	0.62227 0.47467 0.16447 -0.07800
C 	C 	0.65651 0.49880 0.17245 0.19500
C 	C 	0.65577 0.53071 0.20793 -0.06100
C 	C 	0.62098 0.53906 0.23552 -0.02300
C 	C 	0.58858 0.51158 0.23218 0.16300
C 	C 	0.58918 0.47983 0.19629 -0.02400
H 	H 	0.68174 0.55008 0.21236 0.11500
H 	H 	0.56335 0.46020 0.19198 0.10700
Cl	Cl	0.70055 0.48951 0.13805 -0.24500
Cl	Cl	0.54741 0.51601 0.27310 -0.23800
C 	C 	0.53806 0.59670 0.48643 -0.06500
C 	C 	0.49786 0.59886 0.50177 0.18200
C 	C 	0.48782 0.59194 0.55240 -0.03800
C 	C 	0.51758 0.58392 0.58840 -0.07000
C 	C 	0.55792 0.58500 0.57371 0.18600
C 	C 	0.56790 0.59060 0.52287 -0.03900
H 	H 	0.45673 0.59186 0.56351 0.09500
H 	H 	0.59897 0.59028 0.51168 0.10200
Cl	Cl	0.45991 0.61222 0.45875 -0.24200
Cl	Cl	0.59632 0.58105 0.61886 -0.24900
C 	C 	0.45925 0.26342 0.03409 -0.02100
C 	C 	0.46773 0.28317 0.98810 0.18200
C 	C 	0.49183 0.31787 0.98759 -0.05900
C 	C 	0.51596 0.32733 0.02926 -0.01100
C 	C 	0.50841 0.30750 0.07569 0.17400
C 	C 	0.47932 0.27622 0.07819 -0.04400
H 	H 	0.49481 0.33494 0.95273 0.11800
H 	H 	0.47260 0.26196 0.11416 0.10500
Cl	Cl	0.45440 0.26121 0.93000 -0.29300
Cl	Cl	0.53150 0.32441 0.13160 -0.27500
C 	C 	0.33705 0.31203 0.85674 -0.05700
C 	C 	0.35670 0.34762 0.87369 0.19200
C 	C 	0.35338 0.38418 0.84625 -0.03900
C 	C 	0.33083 0.38565 0.80158 -0.08500
C 	C 	0.31009 0.35034 0.78562 0.19600
C 	C 	0.31330 0.31381 0.81320 -0.03500
H 	H 	0.36931 0.41112 0.85889 0.11100
H 	H 	0.29721 0.28681 0.80079 0.10500
Cl	Cl	0.38495 0.34712 0.92981 -0.26000
Cl	Cl	0.27923 0.35167 0.73177 -0.24800
C 	C 	0.95262 0.25981 0.37490 -0.07000
C 	C 	0.98354 0.23385 0.35876 0.19200
C 	C 	0.02286 0.24772 0.36000 -0.04300
C 	C 	0.03145 0.28720 0.37772 -0.06800
C 	C 	0.00012 0.31455 0.38854 0.18500
C 	C 	0.96081 0.30077 0.38676 -0.03400
H 	H 	0.04687 0.22705 0.34991 0.10300
H 	H 	0.93682 0.32119 0.39768 0.11000
Cl	Cl	0.97339 0.18351 0.33833 -0.26500
Cl	Cl	0.00978 0.36580 0.40578 -0.25900
C 	C 	0.36729 0.47139 0.57591 -0.02500
C 	C 	0.37658 0.43300 0.55432 0.15800
C 	C 	0.34932 0.41440 0.52171 -0.02500
C 	C 	0.31410 0.43486 0.50823 -0.08400
C 	C 	0.31045 0.47697 0.51983 0.20000
C 	C 	0.33629 0.49459 0.55507 -0.05700
H 	H 	0.35521 0.38379 0.50766 0.09900
H 	H 	0.33124 0.52573 0.56783 0.11100
Cl	Cl	0.42408 0.41083 0.56122 -0.27800
Cl	Cl	0.27682 0.50881 0.48703 -0.25000
C 	C 	0.32582 0.25932 0.22938 -0.06800
C 	C 	0.28630 0.25650 0.24692 0.19100
C 	C 	0.27826 0.26049 0.29854 -0.03800
C 	C 	0.30925 0.26788 0.33294 -0.07100
C 	C 	0.34859 0.27183 0.31530 0.18900
C 	C 	0.35672 0.26750 0.26371 -0.03900
H 	H 	0.24776 0.25866 0.31184 0.09900
H 	H 	0.38720 0.26964 0.25044 0.10000
Cl	Cl	0.24637 0.25000 0.20444 -0.24600
Cl	Cl	0.38814 0.28103 0.35758 -0.24800
C 	C 	0.08004 0.41727 0.54073 -0.08100
C 	C 	0.07062 0.39411 0.58404 0.18400
C 	C 	0.03381 0.39940 0.60777 -0.03500
C 	C 	0.00622 0.42782 0.58893 -0.07600
C 	C 	0.01610 0.45195 0.54666 0.18600
C 	C 	0.05278 0.44633 0.52249 -0.02700
H 	H 	0.02649 0.38114 0.64073 0.08600
H 	H 	0.05981 0.46403 0.48897 0.10300
Cl	Cl	0.10393 0.35699 0.60770 -0.26500
Cl	Cl	0.98230 0.48835 0.52263 -0.24000
C 	C 	0.16363 0.38649 0.32624 -0.03100
C 	C 	0.18465 0.40268 0.28482 0.17600
C 	C 	0.16569 0.43053 0.25257 -0.02800
C 	C 	0.12603 0.44231 0.26164 -0.08100
C 	C 	0.10335 0.42013 0.29733 0.19600
C 	C 	0.12227 0.39185 0.32871 -0.05300
H 	H 	0.18241 0.44476 0.22222 0.10700
H 	H 	0.10548 0.37748 0.35883 0.07800
Cl	Cl	0.23310 0.38587 0.27009 -0.24800
Cl	Cl	0.05191 0.42878 0.30557 -0.25100
C 	C 	0.19277 0.62064 0.00472 -0.05700
C 	C 	0.15173 0.62903 0.99980 0.17400
C 	C 	0.12441 0.60825 0.03045 -0.04700
C 	C 	0.13797 0.57984 0.06618 -0.02700
C 	C 	0.17742 0.56557 0.06311 0.17900
C 	C 	0.20490 0.58646 0.03308 -0.03700
H 	H 	0.09298 0.61541 0.02792 0.11700
H 	H 	0.23597 0.57745 0.03392 0.10700
Cl	Cl	0.13409 0.66398 0.95425 -0.26700
Cl	Cl	0.19304 0.52229 0.09768 -0.24800
C 	C 	0.42135 0.65765 0.02617 -0.06500
C 	C 	0.42576 0.61794 0.04622 0.19000
C 	C 	0.45407 0.61059 0.08387 -0.03800
C 	C 	0.47853 0.64244 0.10108 -0.06300
C 	C 	0.47612 0.68144 0.07837 0.19100
C 	C 	0.44788 0.68869 0.04062 -0.04100
H 	H 	0.45669 0.58024 0.10022 0.10100
H 	H 	0.44484 0.71921 0.02486 0.09300
Cl	Cl	0.39612 0.57710 0.02419 -0.25200
Cl	Cl	0.50613 0.72235 0.09952 -0.26200
C 	C 	0.35584 0.62753 0.75330 -0.08400
C 	C 	0.31478 0.63661 0.75033 0.19800
C 	C 	0.29862 0.66673 0.78194 -0.05800
C 	C 	0.32349 0.68860 0.81483 -0.02800
C 	C 	0.36499 0.68687 0.80705 0.17300
C 	C 	0.38113 0.65560 0.77738 -0.02800
H 	H 	0.26663 0.67098 0.78347 0.11000
H 	H 	0.41317 0.65186 0.77540 0.10000
Cl	Cl	0.28381 0.61189 0.70605 -0.25600
Cl	Cl	0.39703 0.72318 0.83442 -0.32300
C 	C 	0.15502 0.75835 0.34044 -0.06700
C 	C 	0.12870 0.72689 0.35524 0.18300
C 	C 	0.12635 0.69083 0.32686 -0.03500
C 	C 	0.15036 0.68545 0.28396 -0.09000
C 	C 	0.17741 0.71646 0.26985 0.19600
C 	C 	0.17959 0.75272 0.29810 -0.04200
H 	H 	0.10544 0.66712 0.33785 0.09100
H 	H 	0.20046 0.77647 0.28719 0.11100
Cl	Cl	0.09961 0.73145 0.41048 -0.27600
Cl	Cl	0.20980 0.70967 0.21811 -0.25300
C 	C 	0.14188 0.80937 0.74685 -0.07000
C 	C 	0.16931 0.77777 0.75652 0.18800
C 	C 	0.18124 0.76971 0.80605 -0.03900
C 	C 	0.16608 0.79303 0.84625 -0.07000
C 	C 	0.13768 0.82381 0.83676 0.18800
C 	C 	0.12564 0.83178 0.78713 -0.03800
H 	H 	0.20296 0.74582 0.81323 0.08700
H 	H 	0.10420 0.85591 0.77978 0.10100
Cl	Cl	0.18857 0.74763 0.70693 -0.25600
Cl	Cl	0.11638 0.85200 0.88670 -0.25000
C 	C 	0.96655 0.78813 0.10447 -0.06200
C 	C 	0.00548 0.80435 0.10464 0.18700
C 	C 	0.03813 0.77811 0.10041 -0.02900
C 	C 	0.03228 0.73584 0.09591 -0.07400
C 	C 	0.99347 0.72031 0.08930 0.19300
C 	C 	0.96072 0.74659 0.09343 -0.03400
H 	H 	0.06806 0.79030 0.10386 0.10200
H 	H 	0.93080 0.73417 0.09168 0.10800
Cl	Cl	0.01380 0.85725 0.11256 -0.25100
Cl	Cl	0.98542 0.66747 0.07999 -0.25100
C 	C 	0.86566 0.07310 0.27670 -0.09200
C 	C 	0.84805 0.05624 0.32026 0.20700
C 	C 	0.82380 0.08036 0.35078 -0.06400
C 	C 	0.81912 0.12222 0.34084 -0.01900
C 	C 	0.83586 0.13913 0.29656 0.16200
C 	C 	0.85942 0.11452 0.26499 -0.01700
H 	H 	0.80975 0.06675 0.38361 0.12100
H 	H 	0.87163 0.12725 0.23046 0.09200
Cl	Cl	0.85647 0.00479 0.33747 -0.29400
Cl	Cl	0.82458 0.18954 0.27747 -0.23700
C 	C 	0.05925 0.93579 0.37641 -0.08900
C 	C 	0.02928 0.96630 0.37850 0.20700
C 	C 	0.00020 0.96820 0.34050 -0.07000
C 	C 	0.00185 0.94146 0.29908 -0.02300
C 	C 	0.03425 0.91423 0.29431 0.16900
C 	C 	0.06225 0.91106 0.33315 -0.03000
H 	H 	0.97659 0.99074 0.34306 0.11900
H 	H 	0.08592 0.88861 0.33007 0.08900
Cl	Cl	0.02969 0.00457 0.42555 -0.25700
Cl	Cl	0.04061 0.88400 0.23969 -0.25300
C 	C 	0.02934 0.24340 0.79332 -0.02800
C 	C 	0.03406 0.27620 0.75879 0.17300
C 	C 	0.00433 0.30598 0.75434 -0.04800
C 	C 	0.96911 0.30349 0.78258 -0.02200
C 	C 	0.96487 0.27193 0.81870 0.17500
C 	C 	0.99485 0.24197 0.82357 -0.04000
H 	H 	0.00831 0.33089 0.72769 0.09200
H 	H 	0.99101 0.21725 0.85048 0.10500
Cl	Cl	0.07662 0.28111 0.72040 -0.24800
Cl	Cl	0.92367 0.27022 0.85982 -0.24000
C 	C 	0.90527 0.13570 0.55833 -0.08600
C 	C 	0.93408 0.10567 0.54705 0.19300
C 	C 	0.97019 0.10512 0.57339 -0.04200
C 	C 	0.97792 0.13419 0.61116 -0.06400
C 	C 	0.94882 0.16380 0.62312 0.18400
C 	C 	0.91271 0.16440 0.59669 -0.03700
H 	H 	0.99214 0.08174 0.56485 0.10500
H 	H 	0.89075 0.18776 0.60526 0.09100
Cl	Cl	0.92480 0.06769 0.50115 -0.24300
Cl	Cl	0.95663 0.19952 0.67218 -0.27900
C 	C 	0.11473 0.96986 0.66942 -0.09000
C 	C 	0.08012 0.97950 0.69706 0.20400
C 	C 	0.08095 0.01135 0.73282 -0.07100
C 	C 	0.11572 0.03469 0.73997 -0.01800
C 	C 	0.15153 0.02085 0.71763 0.16200
C 	C 	0.15069 0.98921 0.68174 -0.02300
H 	H 	0.05355 0.02046 0.75131 0.11000
H 	H 	0.17791 0.98041 0.66253 0.09000
Cl	Cl	0.03494 0.95385 0.68507 -0.25600
Cl	Cl	0.19758 0.04353 0.73288 -0.25900
C 	C 	0.05544 0.09453 0.99952 -0.09800
C 	C 	0.01652 0.07982 0.00730 0.21300
C 	C 	0.00600 0.06315 0.05407 -0.05300
C 	C 	0.03400 0.06108 0.09340 -0.06100
C 	C 	0.07309 0.07518 0.08537 0.18000
C 	C 	0.08365 0.09172 0.03852 -0.01500
H 	H 	0.97603 0.05169 0.05985 0.09800
H 	H 	0.11365 0.10313 0.03268 0.09700
Cl	Cl	0.98016 0.08352 0.95947 -0.27100
Cl	Cl	0.10868 0.07398 0.13431 -0.24400
C 	C 	0.20609 0.26721 0.55941 -0.01800
C 	C 	0.19182 0.22734 0.54968 0.16600
C 	C 	0.17767 0.20323 0.58952 -0.02400
C 	C 	0.17907 0.21801 0.63915 -0.08400
C 	C 	0.19934 0.25478 0.64955 0.20900
C 	C 	0.21373 0.27871 0.60962 -0.06100
H 	H 	0.16390 0.17386 0.58163 0.08500
H 	H 	0.22710 0.30822 0.61766 0.11900
Cl	Cl	0.18883 0.20829 0.48751 -0.25800
Cl	Cl	0.20380 0.27298 0.71198 -0.24500
C 	C 	0.26133 0.16047 0.99183 -0.02000
C 	C 	0.24886 0.12209 0.97281 0.16500
C 	C 	0.21679 0.11992 0.93896 -0.02500
C 	C 	0.19617 0.15555 0.92503 -0.08800
C 	C 	0.20446 0.19254 0.95039 0.20300
C 	C 	0.23646 0.19459 0.98444 -0.07600
H 	H 	0.20897 0.09075 0.92203 0.09900
H 	H 	0.24431 0.22381 0.00118 0.12400
Cl	Cl	0.27326 0.07649 0.99026 -0.24000
Cl	Cl	0.17527 0.23656 0.93968 -0.26000
C 	C 	0.97007 0.74498 0.55033 -0.02000
C 	C 	0.96404 0.78786 0.55305 0.17400
C 	C 	0.99686 0.81438 0.55612 -0.04300
C 	C 	0.03585 0.79905 0.55412 -0.02700
C 	C 	0.04176 0.75610 0.55575 0.18000
C 	C 	0.00890 0.72954 0.55466 -0.05400
H 	H 	0.99192 0.84719 0.55617 0.11300
H 	H 	0.01385 0.69674 0.55394 0.10800
Cl	Cl	0.91595 0.80937 0.55019 -0.22700
Cl	Cl	0.08987 0.73461 0.55781 -0.24300
C 	C 	0.77241 0.65998 0.47127 -0.01800
C 	C 	0.74506 0.69276 0.47426 0.16700
C 	C 	0.71342 0.69522 0.43977 -0.02000
C 	C 	0.70857 0.66509 0.40247 -0.09200
C 	C 	0.73387 0.63066 0.40222 0.19900
C 	C 	0.76547 0.62817 0.43663 -0.06600
H 	H 	0.69325 0.72114 0.44118 0.09600
H 	H 	0.78542 0.60212 0.43514 0.11500
Cl	Cl	0.75009 0.73114 0.52067 -0.24700
Cl	Cl	0.72607 0.59016 0.35926 -0.27900
C 	C 	0.83570 0.77838 0.33122 -0.07500
C 	C 	0.84597 0.81630 0.35291 0.18600
C 	C 	0.84716 0.85143 0.32290 -0.03900
C 	C 	0.83775 0.84923 0.27127 -0.08300
C 	C 	0.82314 0.81213 0.25104 0.18500
C 	C 	0.82262 0.77677 0.28098 -0.03900
H 	H 	0.85710 0.88012 0.33928 0.10800
H 	H 	0.81299 0.74789 0.26482 0.09400
Cl	Cl	0.85747 0.82018 0.41776 -0.25500
Cl	Cl	0.80384 0.80991 0.18919 -0.24700
C 	C 	0.93728 0.60695 0.35873 -0.08600
C 	C 	0.95875 0.56977 0.35744 0.19900
C 	C 	0.98457 0.56169 0.31705 -0.06200
C 	C 	0.98832 0.58986 0.27727 -0.02400
C 	C 	0.96174 0.62320 0.27455 0.16900
C 	C 	0.93712 0.63223 0.31576 -0.03100
H 	H 	0.00265 0.53418 0.31750 0.10900
H 	H 	0.91874 0.65954 0.31489 0.08700
Cl	Cl	0.95161 0.53192 0.40402 -0.23900
Cl	Cl	0.95830 0.65342 0.21951 -0.26200
C 	C 	0.88451 0.56802 0.65012 -0.08800
C 	C 	0.85151 0.54141 0.64806 0.19700
C 	C 	0.84792 0.50955 0.68323 -0.06800
C 	C 	0.87719 0.50366 0.72042 -0.02600
C 	C 	0.90806 0.53278 0.72543 0.17000
C 	C 	0.91164 0.56467 0.69019 -0.02400
H 	H 	0.82328 0.48827 0.68008 0.11100
H 	H 	0.93628 0.58601 0.69309 0.09800
Cl	Cl	0.81423 0.54783 0.60182 -0.27300
Cl	Cl	0.94308 0.52921 0.77483 -0.25900
C 	C 	0.51658 0.86348 0.89243 -0.07700
C 	C 	0.49336 0.85424 0.84970 0.18900
C 	C 	0.45381 0.84181 0.85593 -0.03700
C 	C 	0.43753 0.83857 0.90455 -0.06200
C 	C 	0.45909 0.85323 0.94634 0.17800
C 	C 	0.49856 0.86557 0.94015 -0.03100
H 	H 	0.43671 0.83188 0.82340 0.11000
H 	H 	0.51604 0.87414 0.97293 0.08000
Cl	Cl	0.51423 0.85534 0.78863 -0.24100
Cl	Cl	0.43754 0.85421 0.00707 -0.26000
C 	C 	0.69179 0.75153 0.03062 -0.01500
C 	C 	0.71690 0.74709 0.07280 0.17000
C 	C 	0.70438 0.72335 0.11398 -0.02100
C 	C 	0.66777 0.70240 0.11212 -0.08000
C 	C 	0.64684 0.70074 0.06572 0.19700
C 	C 	0.65965 0.72461 0.02496 -0.04100
H 	H 	0.72267 0.72187 0.14770 0.09800
H 	H 	0.64214 0.72524 0.99055 0.09500
Cl	Cl	0.76524 0.76799 0.07270 -0.24500
Cl	Cl	0.60374 0.67064 0.05817 -0.26300
C 	C 	0.82582 0.91353 0.00311 -0.07300
C 	C 	0.82812 0.95645 0.00980 0.20600
C 	C 	0.86032 0.97303 0.03632 -0.05300
C 	C 	0.89017 0.94706 0.05462 -0.01800
C 	C 	0.89382 0.90802 0.03294 0.15800
C 	C 	0.86057 0.89015 0.00988 -0.01000
H 	H 	0.85995 0.00505 0.04715 0.10600
H 	H 	0.86168 0.85845 0.99776 0.09100
Cl	Cl	0.79281 0.98970 0.98247 -0.25300
Cl	Cl	0.94093 0.88544 0.02567 -0.24000
C 	C 	0.82525 0.75453 0.83443 -0.06800
C 	C 	0.83519 0.71338 0.82417 0.18500
C 	C 	0.85146 0.70281 0.77725 -0.03600
C 	C 	0.85894 0.73308 0.74089 -0.06900
C 	C 	0.85208 0.77454 0.75265 0.18600
C 	C 	0.83536 0.78511 0.79931 -0.03900
H 	H 	0.85787 0.67095 0.76884 0.09400
H 	H 	0.82839 0.81691 0.80720 0.09800
Cl	Cl	0.82841 0.67497 0.87017 -0.25100
Cl	Cl	0.86236 0.81339 0.70825 -0.24200
C 	C 	0.47419 0.80731 0.31134 -0.02400
C 	C 	0.51570 0.81471 0.31498 0.17200
C 	C 	0.54274 0.78190 0.31220 -0.05200
C 	C 	0.52919 0.74161 0.30543 -0.02900
C 	C 	0.48772 0.73391 0.30615 0.17400
C 	C 	0.46070 0.76661 0.31029 -0.04900
H 	H 	0.57443 0.78812 0.31307 0.10500
H 	H 	0.42901 0.76042 0.30864 0.11200
Cl	Cl	0.53477 0.86450 0.32354 -0.25400
Cl	Cl	0.46872 0.68390 0.29905 -0.23800
C 	C 	0.38906 0.00937 0.22531 -0.02700
C 	C 	0.42089 0.03758 0.22222 0.16900
C 	C 	0.41907 0.07037 0.18785 -0.02600
C 	C 	0.38552 0.07579 0.15691 -0.08000
C 	C 	0.35331 0.04822 0.16094 0.19800
C 	C 	0.35506 0.01559 0.19533 -0.07000
H 	H 	0.44374 0.09172 0.18540 0.09300
H 	H 	0.33036 0.99431 0.19746 0.11200
Cl	Cl	0.46305 0.03272 0.26144 -0.24900
Cl	Cl	0.31147 0.05266 0.12107 -0.24000
C 	C 	0.51190 0.91925 0.09147 -0.05900
C 	C 	0.52127 0.94589 0.05127 0.17500
C 	C 	0.55827 0.94279 0.02705 -0.01700
C 	C 	0.58592 0.91288 0.04202 -0.09800
C 	C 	0.57581 0.88515 0.08090 0.19100
C 	C 	0.53909 0.88864 0.10551 -0.04300
H 	H 	0.56526 0.96323 0.99598 0.08700
H 	H 	0.53188 0.86777 0.13607 0.10000
Cl	Cl	0.48611 0.98162 0.02882 -0.23700
Cl	Cl	0.60802 0.84471 0.09780 -0.27500
C 	C 	0.28452 0.80026 0.05703 -0.02400
C 	C 	0.30000 0.83987 0.04915 0.17900
C 	C 	0.31607 0.86169 0.08980 -0.02800
C 	C 	0.31454 0.84519 0.13879 -0.08100
C 	C 	0.28965 0.81083 0.14761 0.20000
C 	C 	0.27535 0.78813 0.10647 -0.06300
H 	H 	0.33139 0.89038 0.08287 0.10900
H 	H 	0.25945 0.75974 0.11307 0.11500
Cl	Cl	0.30292 0.86082 0.98794 -0.25100
Cl	Cl	0.27260 0.79841 0.20872 -0.25900
C 	C 	0.30395 0.88914 0.42013 -0.08700
C 	C 	0.28863 0.85089 0.43518 0.20200
C 	C 	0.25518 0.84901 0.46682 -0.06500
C 	C 	0.23601 0.88506 0.48264 -0.02400
C 	C 	0.25368 0.92332 0.47165 0.16600
C 	C 	0.28718 0.92517 0.43985 -0.02900
H 	H 	0.24325 0.81941 0.47754 0.11400
H 	H 	0.29963 0.95470 0.42970 0.08500
Cl	Cl	0.31016 0.80501 0.41313 -0.25700
Cl	Cl	0.23602 0.96881 0.49962 -0.25700
C 	C 	0.46713 0.22739 0.62996 -0.06800
C 	C 	0.47625 0.26001 0.59732 0.18900
C 	C 	0.46762 0.30010 0.61186 -0.03800
C 	C 	0.44956 0.30772 0.65867 -0.07100
C 	C 	0.43594 0.27466 0.68834 0.18900
C 	C 	0.44382 0.23460 0.67293 -0.04300
H 	H 	0.47606 0.32539 0.58753 0.11200
H 	H 	0.43563 0.20925 0.69733 0.10400
Cl	Cl	0.50079 0.25107 0.53955 -0.23500
Cl	Cl	0.41267 0.28282 0.74731 -0.27100
C 	C 	0.48797 0.08463 0.79497 -0.02300
C 	C 	0.45023 0.10200 0.78548 0.16800
C 	C 	0.42729 0.11692 0.82563 -0.02600
C 	C 	0.44096 0.11325 0.87544 -0.08100
C 	C 	0.47616 0.09113 0.88532 0.20200
C 	C 	0.49914 0.07636 0.84507 -0.06500
H 	H 	0.39935 0.13238 0.81796 0.08700
H 	H 	0.52716 0.06117 0.85287 0.10600
Cl	Cl	0.43200 0.10685 0.72334 -0.26000
Cl	Cl	0.49344 0.08434 0.94766 -0.26700
C 	C 	0.68938 0.91198 0.82893 -0.02600
C 	C 	0.70505 0.95175 0.82367 0.16900
C 	C 	0.68557 0.98021 0.79308 -0.02300
C 	C 	0.65120 0.96894 0.76621 -0.08300
C 	C 	0.63948 0.92743 0.76528 0.20100
C 	C 	0.65839 0.89924 0.79704 -0.06500
H 	H 	0.69633 0.01151 0.79173 0.09400
H 	H 	0.64795 0.86785 0.79824 0.10400
Cl	Cl	0.74857 0.96671 0.85606 -0.24200
Cl	Cl	0.60274 0.90987 0.72293 -0.25700
C 	C 	0.46459 0.92497 0.50029 -0.06700
C 	C 	0.49513 0.95374 0.50876 0.18800
C 	C 	0.50493 0.96519 0.55818 -0.03800
C 	C 	0.48442 0.94826 0.59945 -0.06900
C 	C 	0.45436 0.91897 0.59103 0.18900
C 	C 	0.44465 0.90739 0.54159 -0.03900
H 	H 	0.52804 0.98783 0.56447 0.08700
H 	H 	0.42139 0.88492 0.53525 0.10000
Cl	Cl	0.52201 0.97497 0.45790 -0.24700
Cl	Cl	0.42925 0.89588 0.64209 -0.24500
C 	C 	0.63095 0.28272 0.81157 -0.06600
C 	C 	0.60496 0.25128 0.82759 0.18300
C 	C 	0.60179 0.21516 0.79937 -0.03500
C 	C 	0.62450 0.20971 0.75539 -0.09000
C 	C 	0.64963 0.24146 0.73855 0.19700
C 	C 	0.65287 0.27770 0.76676 -0.04200
H 	H 	0.58204 0.19097 0.81212 0.08900
H 	H 	0.67296 0.30168 0.75428 0.11100
Cl	Cl	0.57790 0.25558 0.88450 -0.28000
Cl	Cl	0.67839 0.23566 0.68329 -0.25700
C 	C 	0.60545 0.08616 0.55351 -0.02200
C 	C 	0.60088 0.12582 0.53348 0.15900
C 	C 	0.63302 0.14454 0.50920 -0.02200
C 	C 	0.66820 0.12229 0.50111 -0.08700
C 	C 	0.66743 0.07935 0.50752 0.20100
C 	C 	0.63591 0.06140 0.53411 -0.05800
H 	H 	0.63113 0.17653 0.49847 0.10000
H 	H 	0.63728 0.02922 0.54410 0.11000
Cl	Cl	0.55486 0.15132 0.53623 -0.26800
Cl	Cl	0.70442 0.04781 0.48070 -0.26000
