data_crystal

_cell_length_a 35.83389
_cell_length_b 35.49513
_cell_length_c 20.97032
_cell_angle_alpha 94.07860
_cell_angle_beta  93.78616
_cell_angle_gamma 90.03703

_symmetry_space_group_name_	'P 1'
_symmetry_space_group_name_H-M	'P 1'

loop_
_symmetry_equiv_pos_as_xyz
  x,y,z

loop_
_atom_site_label
_atom_site_type_symbol
_atom_site_fract_x
_atom_site_fract_y
_atom_site_fract_z
_atom_site_charge
C 	C 	0.01800 0.68677 0.89977 0.09700
N 	N 	0.02470 0.68602 0.83661 -0.13900
C 	C 	0.99912 0.67035 0.79168 0.14500
N 	N 	0.96754 0.65435 0.81018 -0.14100
C 	C 	0.96135 0.65403 0.87324 0.13400
N 	N 	0.98674 0.66999 0.91798 -0.13200
C 	C 	0.03975 0.61308 0.21766 0.10900
N 	N 	0.04280 0.62823 0.27929 -0.12800
C 	C 	0.01459 0.62361 0.31837 0.13500
N 	N 	0.98256 0.60595 0.29459 -0.13900
C 	C 	0.97872 0.59225 0.23251 0.14100
N 	N 	0.00750 0.59545 0.19415 -0.13700
Cd	Cd	0.84604 0.99304 0.77810 1.19600
C 	C 	0.76668 0.01735 0.70620 0.33800
O 	O 	0.74961 0.01411 0.64909 -0.26200
O 	O 	0.79129 0.99171 0.71765 -0.52300
O 	O 	0.91384 0.83276 0.36267 -0.41700
C 	C 	0.89888 0.86129 0.39439 0.32400
O 	O 	0.90236 0.86122 0.45644 -0.32400
Cd	Cd	0.93787 0.05662 0.23448 1.24800
Cd	Cd	0.98122 0.01340 0.36801 1.20700
O 	O 	0.89619 0.10994 0.26106 -0.28400
O 	O 	0.90906 0.09395 0.16155 -0.29600
C 	C 	0.89132 0.11632 0.20098 0.24100
O 	O 	0.97932 0.01507 0.19192 -0.32900
O 	O 	0.98013 0.97716 0.27629 -0.40800
C 	C 	0.99360 0.98626 0.22244 0.30800
O 	O 	0.91882 0.02105 0.33389 -0.40800
O 	O 	0.97646 0.06783 0.31796 -0.51500
C 	C 	0.89832 0.99881 0.29324 0.32200
O 	O 	0.89525 0.00836 0.23437 -0.32200
Cd	Cd	0.81224 0.19806 0.96905 1.24400
Cd	Cd	0.82926 0.17717 0.80416 1.20100
O 	O 	0.75423 0.23157 0.99273 -0.30700
O 	O 	0.79252 0.21201 0.06941 -0.34000
C 	C 	0.76151 0.22912 0.05376 0.25200
O 	O 	0.86053 0.15780 0.97206 -0.35600
O 	O 	0.87916 0.17050 0.87348 -0.43000
C 	C 	0.87892 0.14798 0.92080 0.31700
C 	C 	0.77282 0.13768 0.89836 0.34500
O 	O 	0.82088 0.23315 0.86510 -0.42700
O 	O 	0.76821 0.13665 0.95956 -0.27100
O 	O 	0.78946 0.16746 0.88187 -0.51900
C 	C 	0.71993 0.43278 0.97365 0.09400
N 	N 	0.71123 0.41831 0.91255 -0.13600
C 	C 	0.72327 0.43615 0.86227 0.12900
N 	N 	0.74449 0.46793 0.87336 -0.14100
C 	C 	0.75234 0.48292 0.93412 0.12900
N 	N 	0.74028 0.46515 0.98414 -0.13900
C 	C 	0.79283 0.34049 0.31959 0.10100
N 	N 	0.77708 0.34196 0.37698 -0.13300
C 	C 	0.77260 0.37575 0.41030 0.13000
N 	N 	0.78365 0.40810 0.38589 -0.14200
C 	C 	0.79888 0.40676 0.32814 0.12800
N 	N 	0.80337 0.37295 0.29517 -0.13800
Cd	Cd	0.02350 0.20357 0.69389 1.24600
Cd	Cd	0.97560 0.15962 0.81420 1.20100
O 	O 	0.07751 0.24397 0.73047 -0.29200
O 	O 	0.06486 0.22772 0.62881 -0.31400
C 	C 	0.08834 0.24384 0.67255 0.24000
O 	O 	0.98282 0.16321 0.63802 -0.33200
O 	O 	0.94307 0.16033 0.71902 -0.40300
C 	C 	0.95536 0.14624 0.66449 0.32600
C 	C 	0.05583 0.13942 0.75067 0.33800
O 	O 	0.98776 0.22226 0.79684 -0.41700
O 	O 	0.07275 0.14715 0.70003 -0.25700
O 	O 	0.03084 0.16375 0.76783 -0.51500
C 	C 	0.96720 0.24450 0.76241 0.31600
O 	O 	0.97745 0.24872 0.70470 -0.32300
Cd	Cd	0.18052 0.04626 0.53233 1.24700
O 	O 	0.22552 0.09805 0.56212 -0.29700
O 	O 	0.20187 0.06509 0.63467 -0.31800
C 	C 	0.22432 0.09208 0.62236 0.24000
O 	O 	0.13395 0.00460 0.53447 -0.34300
C 	C 	0.11989 0.98358 0.48394 0.32200
C 	C 	0.12691 0.09516 0.47559 0.33600
O 	O 	0.12852 0.10065 0.53802 -0.25400
O 	O 	0.15172 0.07236 0.45289 -0.52200
C 	C 	0.29610 0.18254 0.88513 0.09800
N 	N 	0.31659 0.15513 0.85559 -0.13800
C 	C 	0.34756 0.14138 0.88641 0.13000
N 	N 	0.35832 0.15532 0.94668 -0.14200
C 	C 	0.33833 0.18310 0.97629 0.12300
N 	N 	0.30713 0.19669 0.94543 -0.13400
C 	C 	0.42466 0.11740 0.52067 0.09900
N 	N 	0.41210 0.13708 0.47022 -0.13700
C 	C 	0.42624 0.12997 0.41203 0.13000
N 	N 	0.45306 0.10333 0.40461 -0.14200
C 	C 	0.46481 0.08278 0.45425 0.13100
N 	N 	0.45007 0.08945 0.51199 -0.13600
C 	C 	0.34739 0.19422 0.04488 -0.04100
C 	C 	0.38501 0.20011 0.06848 0.10200
C 	C 	0.39501 0.19575 0.13340 -0.08300
C 	C 	0.36769 0.18781 0.17546 -0.00600
C 	C 	0.32942 0.18893 0.15408 0.07900
C 	C 	0.31958 0.19143 0.08849 -0.05500
N 	N 	0.41145 0.21006 0.02912 -0.19500
H 	H 	0.42421 0.19718 0.15068 0.05700
C 	C 	0.37957 0.17319 0.23818 -0.00400
N 	N 	0.30220 0.18655 0.19583 -0.19400
H 	H 	0.29046 0.18896 0.07101 0.06300
C 	C 	0.39428 0.19841 0.28814 -0.08400
C 	C 	0.40927 0.18512 0.34602 0.10300
C 	C 	0.40803 0.14590 0.35476 -0.04600
C 	C 	0.39164 0.12098 0.30593 -0.05000
C 	C 	0.37843 0.13399 0.24702 0.07900
H 	H 	0.39510 0.22839 0.28124 0.05700
N 	N 	0.42556 0.20997 0.39198 -0.19900
H 	H 	0.39044 0.09102 0.31295 0.05800
N 	N 	0.36551 0.10863 0.19882 -0.19400
H 	H 	0.42584 0.23888 0.38531 0.08900
H 	H 	0.43872 0.20097 0.43405 0.09600
H 	H 	0.36391 0.07991 0.20648 0.09900
H 	H 	0.35795 0.11682 0.15296 0.09900
H 	H 	0.27402 0.18593 0.17939 0.10300
H 	H 	0.30872 0.18659 0.24512 0.10100
H 	H 	0.40413 0.21694 0.98234 0.09100
H 	H 	0.43948 0.21279 0.04609 0.09000
C 	C 	0.37673 0.11070 0.66173 0.07500
C 	C 	0.35011 0.08708 0.68506 -0.07700
C 	C 	0.31509 0.10221 0.69853 0.01700
C 	C 	0.30575 0.13884 0.68384 0.08400
C 	C 	0.33195 0.16202 0.65843 -0.08400
C 	C 	0.36790 0.14787 0.64978 0.02300
N 	N 	0.40257 0.09734 0.62224 -0.16300
C 	C 	0.40978 0.12524 0.58412 0.05800
C 	C 	0.38903 0.15715 0.60019 -0.07300
N 	N 	0.26898 0.14075 0.66682 -0.15600
C 	C 	0.25464 0.10566 0.66865 0.02000
C 	C 	0.28233 0.08125 0.68987 -0.04600
H 	H 	0.35510 0.05702 0.68619 0.05900
H 	H 	0.32325 0.18832 0.63887 0.06000
H 	H 	0.38124 0.17855 0.56746 0.06000
H 	H 	0.28162 0.05100 0.67809 0.06300
H 	H 	0.40640 0.06863 0.60958 0.09400
H 	H 	0.25726 0.16106 0.63784 0.09700
C 	C 	0.21715 0.22636 0.81036 0.07900
C 	C 	0.20489 0.25689 0.77582 -0.07700
C 	C 	0.18435 0.24905 0.71681 0.01600
C 	C 	0.17885 0.21194 0.69107 0.09100
C 	C 	0.19349 0.18164 0.72438 -0.08600
C 	C 	0.21053 0.18954 0.78587 0.03700
N 	N 	0.24683 0.22799 0.85344 -0.16200
C 	C 	0.25904 0.19208 0.85658 0.06300
C 	C 	0.23729 0.16742 0.81508 -0.07000
N 	N 	0.14582 0.20900 0.65660 -0.15400
C 	C 	0.12860 0.24280 0.66362 0.03300
C 	C 	0.15254 0.26875 0.69860 -0.04700
H 	H 	0.20946 0.28569 0.79553 0.06100
H 	H 	0.18843 0.15274 0.70564 0.07900
H 	H 	0.24623 0.14002 0.79594 0.06900
H 	H 	0.14284 0.29349 0.72593 0.06200
H 	H 	0.26353 0.25198 0.86512 0.09200
H 	H 	0.13133 0.18342 0.64673 0.12500
C 	C 	0.71548 0.41988 0.79575 -0.04700
C 	C 	0.70431 0.44341 0.74624 0.10200
C 	C 	0.70965 0.43124 0.68230 -0.08300
C 	C 	0.72320 0.39493 0.66678 -0.00700
C 	C 	0.72857 0.36934 0.71535 0.08200
C 	C 	0.72550 0.38233 0.77976 -0.05200
N 	N 	0.68800 0.47736 0.75979 -0.19800
H 	H 	0.70374 0.45024 0.64467 0.05600
C 	C 	0.73580 0.38562 0.60145 -0.00000
N 	N 	0.73624 0.33238 0.70046 -0.19300
H 	H 	0.73242 0.36364 0.81747 0.06200
C 	C 	0.77405 0.38790 0.59168 -0.08300
C 	C 	0.78683 0.38314 0.52972 0.11000
C 	C 	0.76062 0.37688 0.47640 -0.04800
C 	C 	0.72250 0.37325 0.48628 -0.04900
C 	C 	0.70980 0.37716 0.54847 0.07200
H 	H 	0.79395 0.39376 0.63244 0.06700
N 	N 	0.82420 0.38434 0.52188 -0.19900
H 	H 	0.70258 0.36769 0.44546 0.05100
N 	N 	0.67282 0.37245 0.55697 -0.19400
H 	H 	0.84325 0.38987 0.56138 0.10000
H 	H 	0.83482 0.37885 0.47700 0.10300
H 	H 	0.65372 0.36707 0.51751 0.08800
H 	H 	0.66281 0.37309 0.60267 0.09100
H 	H 	0.73976 0.31358 0.73652 0.11100
H 	H 	0.73718 0.32163 0.65293 0.10500
H 	H 	0.67972 0.48512 0.80570 0.09100
H 	H 	0.68155 0.49547 0.72349 0.08700
C 	C 	0.90228 0.27003 0.75903 0.08700
C 	C 	0.93794 0.26800 0.79111 -0.11300
C 	C 	0.94222 0.28007 0.85670 0.09100
C 	C 	0.91050 0.28288 0.89282 0.10400
Br	Br	0.82238 0.28384 0.75413 -0.23800
Br	Br	0.89673 0.26773 0.66687 -0.17600
Br	Br	0.91465 0.30465 0.97982 -0.18600
Br	Br	0.99105 0.29334 0.89579 -0.17700
C 	C 	0.72394 0.37638 0.10684 0.07500
C 	C 	0.74859 0.35141 0.13689 -0.08000
C 	C 	0.73746 0.31363 0.13898 0.01500
C 	C 	0.70359 0.30060 0.10880 0.08200
C 	C 	0.67967 0.32533 0.07642 -0.08300
C 	C 	0.68984 0.36349 0.07755 0.02200
N 	N 	0.73621 0.40599 0.07723 -0.16400
C 	C 	0.71073 0.41175 0.02860 0.06200
C 	C 	0.68151 0.38596 0.02712 -0.06700
N 	N 	0.70682 0.26419 0.08746 -0.15300
C 	C 	0.74277 0.25413 0.10013 0.01800
C 	C 	0.76224 0.28381 0.13416 -0.04600
H 	H 	0.77711 0.36002 0.15130 0.06100
H 	H 	0.65635 0.31432 0.04502 0.06000
H 	H 	0.66409 0.37707 0.98448 0.05400
H 	H 	0.79225 0.28755 0.13387 0.05700
H 	H 	0.76436 0.41391 0.07768 0.09100
H 	H 	0.68946 0.25121 0.05018 0.10100
C 	C 	0.02892 0.11213 0.41342 0.08000
C 	C 	0.03332 0.10415 0.34737 -0.13200
C 	C 	0.06927 0.10700 0.32401 0.08100
C 	C 	0.10082 0.11092 0.36753 0.06200
C 	C 	0.09643 0.11029 0.43359 -0.13200
C 	C 	0.06078 0.11715 0.45622 0.11900
Br	Br	0.05616 0.14163 0.54009 -0.15900
Br	Br	0.97968 0.11811 0.44482 -0.18200
Br	Br	0.14930 0.12123 0.33765 -0.25600
Br	Br	0.07556 0.10608 0.23333 -0.17100
C 	C 	0.82488 0.18835 0.20446 0.09600
C 	C 	0.80268 0.20608 0.25060 -0.08100
C 	C 	0.81300 0.24245 0.27595 0.03000
C 	C 	0.84211 0.26183 0.25237 0.08400
C 	C 	0.86313 0.24505 0.20406 -0.07900
C 	C 	0.85428 0.20777 0.18104 0.02500
N 	N 	0.83227 0.15114 0.20235 -0.15400
C 	C 	0.86651 0.14642 0.17939 0.04400
C 	C 	0.88080 0.18104 0.16495 -0.04400
N 	N 	0.83694 0.29930 0.26126 -0.16300
C 	C 	0.80427 0.30399 0.28950 0.05900
C 	C 	0.78880 0.26930 0.30055 -0.06600
H 	H 	0.77959 0.19124 0.26856 0.06900
H 	H 	0.88601 0.26014 0.18594 0.07200
H 	H 	0.91044 0.18723 0.16544 0.08000
H 	H 	0.75964 0.26451 0.30824 0.06200
H 	H 	0.82047 0.13248 0.23193 0.11000
H 	H 	0.84987 0.31975 0.23663 0.09600
C 	C 	0.59375 0.95674 0.38722 0.07400
C 	C 	0.53280 0.98450 0.42151 -0.00500
N 	N 	0.60733 0.99178 0.37905 -0.19500
C 	C 	0.53895 0.00764 0.47830 -0.08300
C 	C 	0.51917 0.04152 0.48757 0.10400
C 	C 	0.48948 0.04991 0.44279 -0.04800
C 	C 	0.48233 0.02585 0.38722 -0.04900
H 	H 	0.56092 0.00054 0.51343 0.05700
N 	N 	0.53020 0.06669 0.53721 -0.19900
H 	H 	0.45958 0.03216 0.35297 0.05500
H 	H 	0.55043 0.05924 0.57223 0.09500
H 	H 	0.52106 0.09463 0.53888 0.09900
H 	H 	0.63416 0.99504 0.36341 0.09700
H 	H 	0.59141 0.01603 0.38726 0.09700
C 	C 	0.42207 0.98330 0.76140 -0.08700
C 	C 	0.43184 0.01005 0.81217 -0.00300
C 	C 	0.46300 0.00349 0.85514 0.07500
H 	H 	0.39771 0.98801 0.72950 0.05900
C 	C 	0.40773 0.04352 0.82236 -0.00400
N 	N 	0.47209 0.02807 0.90666 -0.19400
C 	C 	0.37389 0.03930 0.85100 -0.08600
C 	C 	0.35255 0.07094 0.86893 0.10700
C 	C 	0.36582 0.10751 0.85894 -0.05100
C 	C 	0.39857 0.11161 0.82703 -0.05200
C 	C 	0.41922 0.07979 0.80707 0.07200
N 	N 	0.31964 0.06605 0.89628 -0.20000
H 	H 	0.40803 0.13960 0.81771 0.04900
N 	N 	0.44974 0.08419 0.77296 -0.19400
H 	H 	0.31039 0.03896 0.90427 0.10000
H 	H 	0.30262 0.08886 0.90893 0.10400
H 	H 	0.45831 0.11112 0.76267 0.09000
H 	H 	0.46441 0.06095 0.75440 0.09300
H 	H 	0.45576 0.05169 0.91755 0.09300
C 	C 	0.88039 0.89520 0.29554 0.09300
C 	C 	0.88077 0.89324 0.36250 -0.11500
C 	C 	0.86951 0.92527 0.39995 0.12200
C 	C 	0.87203 0.96105 0.37611 0.09300
C 	C 	0.88117 0.96378 0.31237 -0.10900
C 	C 	0.87897 0.93090 0.27003 0.10500
Br	Br	0.86576 0.93457 0.18000 -0.14100
Br	Br	0.87435 0.84991 0.23927 -0.20800
Br	Br	0.86005 0.00569 0.42862 -0.15900
Br	Br	0.84333 0.91926 0.47572 -0.18900
Br	Br	0.14985 0.90241 0.50967 -0.24600
Br	Br	0.08113 0.83829 0.49845 -0.26000
C 	C 	0.87310 0.08450 0.61186 0.10100
C 	C 	0.88968 0.04898 0.62004 -0.09300
C 	C 	0.92899 0.04580 0.62052 0.11600
C 	C 	0.95141 0.07861 0.62369 0.10300
C 	C 	0.93465 0.11440 0.62891 -0.09300
C 	C 	0.89573 0.11724 0.61588 0.10700
Br	Br	0.87359 0.16599 0.60538 -0.19200
Br	Br	0.81951 0.08872 0.60033 -0.18800
Br	Br	0.00502 0.07451 0.62825 -0.18100
C 	C 	0.76495 0.03825 0.82167 0.06400
C 	C 	0.75583 0.04535 0.75733 -0.12400
C 	C 	0.74340 0.08181 0.74302 0.10000
C 	C 	0.74610 0.11154 0.79136 0.08300
C 	C 	0.76353 0.10539 0.85208 -0.14200
C 	C 	0.77337 0.06843 0.86688 0.10100
Br	Br	0.80363 0.05947 0.94383 -0.22000
Br	Br	0.76195 0.98771 0.84908 -0.25200
Br	Br	0.72460 0.16012 0.77534 -0.24100
Br	Br	0.72000 0.09076 0.65994 -0.17100
N 	N 	0.67487 0.92240 0.52368 -0.15400
H 	H 	0.60383 0.94466 0.54085 0.05900
H 	H 	0.67468 0.95179 0.53232 0.10100
C 	C 	0.81671 0.44071 0.30702 -0.04900
C 	C 	0.80459 0.45591 0.24863 0.10200
C 	C 	0.82737 0.48225 0.22231 -0.08600
C 	C 	0.86101 0.49479 0.25488 -0.00500
C 	C 	0.87104 0.48254 0.31656 0.07500
C 	C 	0.84903 0.45513 0.34153 -0.05100
N 	N 	0.77074 0.44628 0.21878 -0.20000
H 	H 	0.81903 0.49275 0.17619 0.05400
C 	C 	0.88612 0.51987 0.22350 -0.00700
N 	N 	0.90166 0.49695 0.35190 -0.19400
H 	H 	0.85768 0.44422 0.38719 0.05200
C 	C 	0.87998 0.55892 0.22862 -0.08800
C 	C 	0.94527 0.56978 0.20974 -0.05200
C 	C 	0.94935 0.53109 0.19317 -0.05200
C 	C 	0.91977 0.50589 0.19939 0.07300
H 	H 	0.85321 0.56970 0.24275 0.05700
N 	N 	0.90302 0.62194 0.22516 -0.20100
H 	H 	0.97637 0.52023 0.18053 0.05700
N 	N 	0.92414 0.46837 0.18408 -0.19400
H 	H 	0.87677 0.63252 0.23584 0.09600
H 	H 	0.94956 0.45801 0.16863 0.09700
H 	H 	0.90196 0.44938 0.18521 0.09600
H 	H 	0.90949 0.48683 0.39641 0.09000
H 	H 	0.75261 0.42790 0.23842 0.09500
H 	H 	0.76150 0.45859 0.17680 0.09100
C 	C 	0.90235 0.64995 0.93165 0.10700
C 	C 	0.87301 0.62804 0.95090 -0.08600
C 	C 	0.86918 0.58981 0.92961 -0.00400
N 	N 	0.90353 0.68772 0.94833 -0.19900
H 	H 	0.85227 0.64115 0.98058 0.05900
C 	C 	0.83528 0.56901 0.94382 -0.00400
H 	H 	0.94701 0.58086 0.84406 0.05300
C 	C 	0.80246 0.57262 0.90459 -0.08500
C 	C 	0.77260 0.54731 0.90688 0.10300
C 	C 	0.77685 0.51647 0.94587 -0.04900
C 	C 	0.80779 0.51556 0.99050 -0.05800
C 	C 	0.83675 0.54226 0.99083 0.07000
H 	H 	0.80052 0.59460 0.87116 0.05800
N 	N 	0.73974 0.55317 0.87287 -0.19800
H 	H 	0.81013 0.49314 0.02307 0.05600
N 	N 	0.86607 0.54168 0.03539 -0.19100
H 	H 	0.73742 0.57477 0.84150 0.08800
H 	H 	0.71568 0.53787 0.88018 0.09100
H 	H 	0.86748 0.52115 0.06881 0.09000
H 	H 	0.88698 0.56237 0.03876 0.09600
H 	H 	0.91280 0.52326 0.83952 0.09200
H 	H 	0.92250 0.70553 0.92946 0.10600
H 	H 	0.88418 0.69996 0.97863 0.10000
C 	C 	0.00723 0.66707 0.72347 -0.06000
C 	C 	0.01275 0.69943 0.68917 0.11700
C 	C 	0.01826 0.69484 0.62337 -0.09000
C 	C 	0.01539 0.65903 0.59040 0.00800
C 	C 	0.00937 0.62678 0.62458 0.06700
C 	C 	0.00659 0.63109 0.69109 -0.04400
N 	N 	0.01130 0.73488 0.71826 -0.20100
H 	H 	0.02238 0.71950 0.59700 0.09000
C 	C 	0.01731 0.65577 0.51976 -0.00400
N 	N 	0.00535 0.59180 0.59376 -0.19300
H 	H 	0.00252 0.60637 0.71748 0.04900
C 	C 	0.04957 0.64069 0.49353 -0.07100
C 	C 	0.04948 0.62942 0.42790 0.10800
C 	C 	0.01811 0.63806 0.38653 -0.04400
C 	C 	0.98741 0.65678 0.41230 -0.04200
C 	C 	0.98602 0.66438 0.47864 0.09400
H 	H 	0.07370 0.63473 0.52512 0.06600
N 	N 	0.07834 0.60841 0.40605 -0.19700
H 	H 	0.96349 0.66351 0.38083 0.07000
H 	H 	0.10274 0.60542 0.43539 0.09700
H 	H 	0.07563 0.59196 0.36277 0.09700
H 	H 	0.93154 0.68569 0.47152 0.10200
H 	H 	0.00175 0.56812 0.61969 0.08700
H 	H 	0.00470 0.58776 0.54392 0.08900
H 	H 	0.00339 0.73964 0.76512 0.10700
H 	H 	0.01661 0.75841 0.69291 0.11400
C 	C 	0.93727 0.06411 0.97110 0.10700
C 	C 	0.94394 0.04562 0.91061 -0.12200
C 	C 	0.93245 0.06382 0.85516 0.07300
C 	C 	0.90559 0.09223 0.85897 0.06600
C 	C 	0.90162 0.11285 0.91802 -0.13500
C 	C 	0.92113 0.10048 0.97341 0.10100
Br	Br	0.93546 0.13618 0.04388 -0.17400
Br	Br	0.94646 0.03972 0.04962 -0.16100
Br	Br	0.87125 0.09836 0.78609 -0.40800
Br	Br	0.06008 0.16207 0.90388 -0.24400
C 	C 	0.08750 0.74787 0.98594 0.01200
C 	C 	0.05806 0.74875 0.02596 0.09800
C 	C 	0.04946 0.78221 0.06146 -0.07000
N 	N 	0.03176 0.72329 0.00335 -0.16000
C 	C 	0.04374 0.70667 0.94848 0.05400
C 	C 	0.07828 0.72132 0.93583 -0.07100
H 	H 	0.02294 0.78527 0.08327 0.08300
H 	H 	0.08867 0.72168 0.88851 0.06400
H 	H 	0.00366 0.72502 0.01390 0.10400
C 	C 	0.01849 0.95870 0.18983 -0.09500
Br	Br	0.05986 0.01783 0.13751 -0.15500
Br	Br	0.96175 0.90060 0.18653 -0.21100
C 	C 	0.10912 0.62845 0.10844 0.08300
C 	C 	0.12170 0.65595 0.06991 -0.07500
C 	C 	0.15895 0.66855 0.08022 0.01900
C 	C 	0.18163 0.65717 0.13179 0.08500
C 	C 	0.16797 0.63183 0.17334 -0.08100
C 	C 	0.13219 0.61626 0.15886 0.02700
N 	N 	0.07291 0.62503 0.12104 -0.16200
C 	C 	0.07272 0.61121 0.17936 0.06700
C 	C 	0.10891 0.60554 0.20456 -0.07100
N 	N 	0.20600 0.68490 0.15279 -0.15300
C 	C 	0.19822 0.71474 0.11745 0.02400
C 	C 	0.17002 0.70490 0.07037 -0.04500
H 	H 	0.10224 0.66967 0.03745 0.06600
H 	H 	0.18310 0.62743 0.21865 0.06400
H 	H 	0.11695 0.60549 0.25529 0.06200
H 	H 	0.15180 0.72518 0.04839 0.06500
H 	H 	0.05112 0.64074 0.10064 0.10800
C 	C 	0.00079 0.09232 0.30345 0.31800
O 	O 	0.99289 0.10823 0.25001 -0.24600
C 	C 	0.84695 0.25377 0.89667 0.32100
O 	O 	0.85176 0.24867 0.95777 -0.33900
C 	C 	0.87517 0.27352 0.86238 -0.12300
C 	C 	0.87070 0.27409 0.79519 0.07900
C 	C 	0.09840 0.91787 0.49720 0.08300
C 	C 	0.90927 0.58412 0.22072 0.10600
H 	H 	0.92378 0.64104 0.21558 0.11300
H 	H 	0.91726 0.51908 0.33672 0.09400
C 	C 	0.92944 0.63257 0.89312 -0.04900
C 	C 	0.89598 0.57261 0.89029 0.07500
C 	C 	0.92615 0.59409 0.87334 -0.05000
N 	N 	0.89269 0.53569 0.86807 -0.19400
H 	H 	0.87011 0.51903 0.87816 0.09600
N 	N 	0.95430 0.67911 0.50247 -0.19300
H 	H 	0.95168 0.68397 0.55161 0.10100
C 	C 	0.10404 0.81188 0.02291 0.08700
C 	C 	0.10965 0.77998 0.98104 -0.08400
C 	C 	0.07408 0.81294 0.06200 0.02800
C 	C 	0.06290 0.85016 0.06879 -0.03500
H 	H 	0.12847 0.78119 0.94285 0.06600
H 	H 	0.03437 0.85855 0.07639 0.07900
C 	C 	0.05408 0.97022 0.17397 0.07400
Cd	Cd	0.16650 0.81553 0.20818 1.24500
O 	O 	0.20581 0.75878 0.20929 -0.29500
O 	O 	0.18459 0.78131 0.11950 -0.33800
C 	C 	0.20135 0.75363 0.14727 0.24500
C 	C 	0.10673 0.77690 0.26014 0.33300
O 	O 	0.19207 0.84399 0.32220 -0.41600
O 	O 	0.10993 0.76619 0.20004 -0.27500
O 	O 	0.13237 0.80038 0.28509 -0.51500
C 	C 	0.21172 0.86757 0.29290 0.32000
O 	O 	0.21219 0.86117 0.23094 -0.32900
Cd	Cd	0.02562 0.94937 0.93362 1.24500
Cd	Cd	0.00322 0.98272 0.77983 1.20500
O 	O 	0.08046 0.90833 0.94473 -0.29700
O 	O 	0.04767 0.92526 0.02654 -0.32100
C 	C 	0.07486 0.90487 0.00455 0.25700
O 	O 	0.98214 0.99383 0.95123 -0.34100
O 	O 	0.95733 0.98750 0.84811 -0.41600
C 	C 	0.96155 0.00739 0.90358 0.31400
C 	C 	0.06720 0.01027 0.89376 0.34300
O 	O 	0.00923 0.92257 0.81497 -0.42600
O 	O 	0.07503 0.00624 0.95471 -0.25000
C 	C 	0.98289 0.90242 0.83603 0.32500
O 	O 	0.98069 0.90451 0.89804 -0.33400
Cd	Cd	0.79951 0.95867 0.62937 1.24900
O 	O 	0.74557 0.91572 0.63221 -0.29500
O 	O 	0.76120 0.93836 0.54257 -0.32000
C 	C 	0.73891 0.91697 0.57079 0.23600
O 	O 	0.83981 0.00228 0.60172 -0.33500
O 	O 	0.87908 0.00082 0.69257 -0.39500
C 	C 	0.86710 0.01759 0.64091 0.32800
O 	O 	0.83544 0.93252 0.73043 -0.42200
C 	C 	0.85646 0.91358 0.69126 0.31700
O 	O 	0.84630 0.91382 0.63042 -0.32000
Cd	Cd	0.94109 0.81157 0.47521 1.24700
Cd	Cd	0.97319 0.82926 0.32411 1.20200
O 	O 	0.89456 0.76108 0.47803 -0.30600
O 	O 	0.91535 0.79380 0.56527 -0.32200
C 	C 	0.89014 0.77025 0.53812 0.23700
O 	O 	0.98887 0.85209 0.49873 -0.33100
O 	O 	0.98625 0.87630 0.39975 -0.40400
C 	C 	0.00322 0.87342 0.45701 0.30400
C 	C 	0.99399 0.76206 0.41971 0.34300
O 	O 	0.99176 0.75604 0.48013 -0.27900
O 	O 	0.96944 0.78498 0.39644 -0.53100
C 	C 	0.53783 0.87770 0.70927 0.10000
N 	N 	0.54888 0.85509 0.75660 -0.13700
C 	C 	0.53642 0.86163 0.81621 0.13000
N 	N 	0.51253 0.89066 0.82807 -0.14200
C 	C 	0.50049 0.91249 0.78031 0.13000
N 	N 	0.51373 0.90642 0.72135 -0.13800
C 	C 	0.67603 0.81951 0.34472 0.09900
N 	N 	0.66686 0.80830 0.28228 -0.13400
C 	C 	0.63490 0.82091 0.25249 0.13000
N 	N 	0.61189 0.84413 0.28571 -0.14100
C 	C 	0.62143 0.85627 0.34736 0.13000
N 	N 	0.65363 0.84411 0.37673 -0.13600
Cd	Cd	0.14913 0.02817 0.36884 1.18900
O 	O 	0.13740 0.98060 0.43041 -0.42900
O 	O 	0.20820 0.02742 0.42147 -0.42000
C 	C 	0.22439 0.99885 0.44746 0.31900
O 	O 	0.22129 0.99749 0.50891 -0.32800
C 	C 	0.60146 0.88843 0.37678 -0.04900
C 	C 	0.56627 0.88352 0.40192 0.10300
C 	C 	0.54463 0.91536 0.41796 -0.08500
C 	C 	0.55768 0.95183 0.40943 -0.00500
C 	C 	0.61546 0.92491 0.37201 -0.05100
N 	N 	0.55364 0.84851 0.41251 -0.19900
H 	H 	0.51746 0.91176 0.43667 0.06000
H 	H 	0.64278 0.92850 0.35379 0.05700
C 	C 	0.50436 0.99380 0.37522 0.07400
N 	N 	0.49825 0.97234 0.31905 -0.19400
H 	H 	0.47687 0.97924 0.28560 0.09100
H 	H 	0.51489 0.94906 0.30743 0.09400
H 	H 	0.57020 0.82460 0.40528 0.09500
H 	H 	0.52742 0.84508 0.43050 0.09200
C 	C 	0.47503 0.94435 0.79355 -0.04900
C 	C 	0.44242 0.94972 0.75326 0.10600
C 	C 	0.48471 0.97103 0.84454 -0.05300
N 	N 	0.42967 0.92218 0.70868 -0.19900
H 	H 	0.50943 0.96668 0.87583 0.05400
H 	H 	0.36457 0.01133 0.86075 0.06200
H 	H 	0.49552 0.02327 0.93736 0.09000
H 	H 	0.44081 0.89500 0.70761 0.10000
H 	H 	0.40674 0.92713 0.67698 0.09800
C 	C 	0.55195 0.84000 0.86963 -0.05000
C 	C 	0.52945 0.83072 0.91935 0.10500
C 	C 	0.54665 0.82186 0.97848 -0.09100
C 	C 	0.58567 0.81905 0.98672 -0.00900
C 	C 	0.60751 0.82155 0.93333 0.07500
C 	C 	0.59058 0.83308 0.87560 -0.05300
N 	N 	0.49157 0.82914 0.90989 -0.19900
H 	H 	0.52969 0.81774 0.01840 0.06300
C 	C 	0.60346 0.81805 0.05250 0.00100
N 	N 	0.64472 0.81385 0.93772 -0.19400
H 	H 	0.60773 0.83815 0.83634 0.05600
C 	C 	0.60143 0.78474 0.08445 -0.08500
C 	C 	0.61420 0.78405 0.14925 0.10300
C 	C 	0.62975 0.81721 0.18207 -0.04600
C 	C 	0.63461 0.84946 0.14857 -0.04900
C 	C 	0.62040 0.85077 0.08484 0.07700
H 	H 	0.58903 0.75955 0.05930 0.05800
N 	N 	0.61115 0.75168 0.17961 -0.19900
H 	H 	0.64723 0.87458 0.17363 0.05800
N 	N 	0.62201 0.88380 0.05584 -0.19300
H 	H 	0.59889 0.72756 0.15538 0.08900
H 	H 	0.62155 0.74988 0.22698 0.09500
H 	H 	0.63548 0.90742 0.07962 0.09700
H 	H 	0.60900 0.88687 0.01054 0.09900
H 	H 	0.66096 0.81717 0.89887 0.09600
H 	H 	0.65758 0.80328 0.97884 0.09500
H 	H 	0.47838 0.83033 0.86416 0.09700
H 	H 	0.47504 0.82422 0.94774 0.09100
C 	C 	0.06946 0.89072 0.49186 0.06800
C 	C 	0.03206 0.90187 0.47999 -0.09700
C 	C 	0.02335 0.94061 0.48043 0.08600
C 	C 	0.08985 0.95630 0.49216 -0.11000
Br	Br	0.04062 0.02072 0.48692 -0.32700
Br	Br	0.97189 0.95612 0.46910 -0.28000
C 	C 	0.79433 0.76361 0.51893 0.07800
C 	C 	0.77071 0.75088 0.46527 -0.08100
C 	C 	0.75667 0.77775 0.42440 0.02200
C 	C 	0.76163 0.81595 0.44013 0.09100
C 	C 	0.78083 0.82901 0.49779 -0.08500
C 	C 	0.79829 0.80226 0.53614 0.02700
N 	N 	0.82637 0.74565 0.53470 -0.15300
C 	C 	0.85166 0.77226 0.55849 0.02600
C 	C 	0.83426 0.80734 0.56363 -0.04700
N 	N 	0.73502 0.83577 0.40927 -0.16300
C 	C 	0.71292 0.81017 0.37392 0.06400
C 	C 	0.72519 0.77357 0.38248 -0.06900
H 	H 	0.76675 0.72098 0.45247 0.05800
H 	H 	0.78447 0.85895 0.51015 0.07900
H 	H 	0.84933 0.83390 0.56435 0.08300
H 	H 	0.70752 0.74863 0.37627 0.05500
H 	H 	0.83388 0.71976 0.51219 0.09400
H 	H 	0.72744 0.86351 0.42243 0.10500
Br	Br	0.95225 0.99697 0.62306 -0.21400
C 	C 	0.64436 0.90036 0.52438 0.08400
C 	C 	0.60969 0.91476 0.54158 -0.08300
C 	C 	0.58430 0.89007 0.56536 0.02300
C 	C 	0.59525 0.85410 0.58110 0.07600
C 	C 	0.63141 0.84110 0.57020 -0.08100
C 	C 	0.65477 0.86384 0.53775 0.02000
C 	C 	0.70476 0.90065 0.53793 0.02300
C 	C 	0.69331 0.86406 0.54670 -0.05100
N 	N 	0.57611 0.84336 0.62996 -0.16300
C 	C 	0.55306 0.87221 0.64571 0.05800
C 	C 	0.55725 0.90163 0.60637 -0.07200
H 	H 	0.64201 0.81581 0.59099 0.05800
H 	H 	0.70906 0.84486 0.57601 0.05800
H 	H 	0.55126 0.93094 0.61986 0.05900
H 	H 	0.58556 0.82322 0.66124 0.09300
Br	Br	0.96215 0.06012 0.78246 -0.40900
C 	C 	0.95548 0.88596 0.72510 0.08500
C 	C 	0.95359 0.88373 0.79155 -0.12000
C 	C 	0.91958 0.87222 0.81437 0.10100
C 	C 	0.88634 0.87551 0.77563 0.09100
C 	C 	0.88778 0.89041 0.71531 -0.11700
C 	C 	0.92238 0.89081 0.68696 0.09400
Br	Br	0.92458 0.89695 0.59700 -0.16200
Br	Br	0.00236 0.87804 0.68614 -0.20500
Br	Br	0.83939 0.85843 0.80327 -0.19000
Br	Br	0.91936 0.84682 0.89252 -0.17600
C 	C 	0.08900 0.04464 0.80404 0.08200
C 	C 	0.07400 0.04583 0.86449 -0.13700
C 	C 	0.06144 0.08047 0.89245 0.09800
C 	C 	0.06240 0.11302 0.85840 0.07300
C 	C 	0.06946 0.10978 0.79286 -0.12300
C 	C 	0.08602 0.07624 0.76726 0.10100
Br	Br	0.10704 0.07380 0.68457 -0.15900
Br	Br	0.11398 0.99965 0.77206 -0.20500
Br	Br	0.04011 0.08314 0.97477 -0.17300
C 	C 	0.07893 0.90845 0.19883 -0.12900
C 	C 	0.04228 0.89538 0.20386 0.10200
C 	C 	0.01197 0.91991 0.19443 0.08200
Br	Br	0.13398 0.96130 0.16199 -0.20000
Br	Br	0.03378 0.84464 0.22707 -0.40400
C 	C 	0.06184 0.74881 0.40721 0.10500
C 	C 	0.02448 0.74689 0.38156 -0.15000
C 	C 	0.01749 0.73908 0.31513 0.06900
C 	C 	0.04656 0.74275 0.27424 0.09700
C 	C 	0.08165 0.75680 0.30021 -0.13200
C 	C 	0.09063 0.75487 0.36645 0.07400
Br	Br	0.14219 0.75468 0.39944 -0.22600
Br	Br	0.07399 0.73767 0.49463 -0.18400
Br	Br	0.04024 0.72203 0.18677 -0.20800
Br	Br	0.96828 0.72336 0.28058 -0.25200
C 	C 	0.24276 0.89812 0.39385 0.09100
C 	C 	0.23175 0.90001 0.32831 -0.11500
C 	C 	0.23462 0.93502 0.30058 0.09600
C 	C 	0.23930 0.96838 0.34074 0.07800
C 	C 	0.23903 0.96657 0.40762 -0.11700
C 	C 	0.24664 0.93165 0.43384 0.10800
Br	Br	0.26867 0.93010 0.52004 -0.16800
Br	Br	0.25563 0.85020 0.42713 -0.17900
Br	Br	0.25183 0.01511 0.30533 -0.21700
Br	Br	0.23586 0.93732 0.20908 -0.16700
H 	H 	0.21897 0.68729 0.19909 0.10700
Cd	Cd	0.13179 0.85228 0.35558 1.19500
O 	O 	0.12504 0.85968 0.17965 -0.36400
O 	O 	0.12729 0.89297 0.27786 -0.42400
C 	C 	0.11094 0.88526 0.22028 0.33300
O 	O 	0.04775 0.98330 0.86291 -0.51900
C 	C 	0.05226 0.96781 0.48714 0.07900
N 	N 	0.11231 0.84702 0.00797 -0.14900
C 	C 	0.08702 0.87048 0.03475 0.03400
H 	H 	0.12654 0.85288 0.96780 0.10800
C 	C 	0.08466 0.94524 0.17974 0.10100
