data_crystal

_cell_length_a 43.61355
_cell_length_b 25.81357
_cell_length_c 27.33372
_cell_angle_alpha 89.99722
_cell_angle_beta  90.00118
_cell_angle_gamma 89.99777

_symmetry_space_group_name_	'P 1'
_symmetry_space_group_name_H-M	'P 1'

loop_
_symmetry_equiv_pos_as_xyz
  x,y,z

loop_
_atom_site_label
_atom_site_type_symbol
_atom_site_fract_x
_atom_site_fract_y
_atom_site_fract_z
_atom_site_charge
Zn	Zn	0.63830 0.18609 0.44801 1.22100
Zn	Zn	0.61820 0.15351 0.55893 1.20100
C 	C 	0.64614 0.36880 0.50316 0.29700
Zn	Zn	0.62586 0.26599 0.53508 1.22200
Zn	Zn	0.65443 0.29899 0.42209 1.20100
H 	H 	0.66873 0.19875 0.53636 0.19000
C 	C 	0.56582 0.22285 0.51957 0.30500
O 	O 	0.66080 0.26391 0.35933 -0.45500
O 	O 	0.63059 0.19188 0.36983 -0.37100
O 	O 	0.64734 0.19956 0.52425 -0.78300
O 	O 	0.62409 0.08962 0.52166 -0.46700
O 	O 	0.68229 0.17351 0.43501 -0.42000
O 	O 	0.61259 0.12065 0.44532 -0.41100
O 	O 	0.69432 0.25771 0.44906 -0.40800
O 	O 	0.59888 0.18940 0.61385 -0.45000
H 	H 	0.60275 0.26166 0.44303 0.18400
O 	O 	0.62960 0.26020 0.61419 -0.38200
O 	O 	0.62333 0.25755 0.45780 -0.78000
O 	O 	0.66575 0.35319 0.46994 -0.44000
O 	O 	0.58129 0.26089 0.53978 -0.42000
O 	O 	0.64015 0.33925 0.54141 -0.40200
O 	O 	0.57870 0.17684 0.51416 -0.40600
C 	C 	0.64207 0.22880 0.34153 0.30600
C 	C 	0.61410 0.08201 0.47719 0.33000
C 	C 	0.70188 0.21186 0.43195 0.31100
C 	C 	0.61411 0.22442 0.63819 0.30800
Zn	Zn	0.63271 0.16806 0.95050 1.22200
Zn	Zn	0.60623 0.15603 0.06653 1.19800
C 	C 	0.63645 0.35897 0.97861 0.32800
Zn	Zn	0.62185 0.25973 0.02585 1.22400
Zn	Zn	0.62872 0.27635 0.90741 1.20300
H 	H 	0.65934 0.18704 0.03849 0.19100
C 	C 	0.55847 0.23956 0.03709 0.32500
O 	O 	0.64612 0.23552 0.85415 -0.46100
O 	O 	0.62364 0.15861 0.87312 -0.38600
O 	O 	0.63835 0.18905 0.02484 -0.78300
O 	O 	0.59237 0.09777 0.02610 -0.43800
O 	O 	0.67675 0.17966 0.93657 -0.42200
O 	O 	0.62177 0.09372 0.95712 -0.41000
O 	O 	0.67281 0.26756 0.94334 -0.41200
O 	O 	0.60041 0.20301 0.12261 -0.44900
H 	H 	0.58623 0.22539 0.94659 0.18600
O 	O 	0.63345 0.26845 0.10202 -0.36800
O 	O 	0.60795 0.23180 0.95496 -0.78800
O 	O 	0.62243 0.34365 0.93885 -0.46500
O 	O 	0.57964 0.27445 0.04378 -0.43300
O 	O 	0.64479 0.32552 0.01274 -0.40500
O 	O 	0.56612 0.19074 0.03308 -0.40300
C 	C 	0.63424 0.19148 0.84033 0.31500
C 	C 	0.61083 0.07214 0.99728 0.28800
C 	C 	0.68951 0.22595 0.93519 0.31500
C 	C 	0.62077 0.23804 0.13535 0.30000
Zn	Zn	0.87447 0.12912 0.31525 1.22400
Zn	Zn	0.88748 0.09664 0.19653 1.19900
C 	C 	0.86469 0.31158 0.25672 0.33200
Zn	Zn	0.87589 0.20566 0.22474 1.22300
Zn	Zn	0.88567 0.24527 0.33650 1.20600
H 	H 	0.83836 0.13368 0.23461 0.18900
C 	C 	0.93689 0.18453 0.19255 0.32200
O 	O 	0.87974 0.21771 0.40170 -0.45700
O 	O 	0.89220 0.13252 0.38897 -0.38400
O 	O 	0.86056 0.13721 0.24141 -0.78500
O 	O 	0.90989 0.05429 0.24385 -0.44900
O 	O 	0.83301 0.14596 0.34083 -0.42500
O 	O 	0.88342 0.05259 0.31555 -0.40200
O 	O 	0.83660 0.23289 0.32486 -0.39600
O 	O 	0.88347 0.12981 0.13172 -0.45300
H 	H 	0.92075 0.18396 0.29315 0.19500
O 	O 	0.85529 0.20132 0.15403 -0.37900
O 	O 	0.89837 0.18980 0.29268 -0.79200
O 	O 	0.88469 0.30557 0.29203 -0.45700
O 	O 	0.91510 0.21917 0.19265 -0.43500
O 	O 	0.85259 0.27114 0.23454 -0.41500
O 	O 	0.93086 0.13655 0.20414 -0.39600
C 	C 	0.88892 0.17280 0.41834 0.32100
C 	C 	0.89538 0.02837 0.27742 0.30400
C 	C 	0.82168 0.19324 0.34383 0.30900
C 	C 	0.86433 0.16755 0.12065 0.31100
Zn	Zn	0.85078 0.14637 0.80538 1.22300
Zn	Zn	0.88965 0.12197 0.70121 1.19800
C 	C 	0.85571 0.33535 0.75967 0.32700
Zn	Zn	0.87289 0.23011 0.72789 1.22300
Zn	Zn	0.85607 0.26049 0.84176 1.20200
H 	H 	0.83494 0.15902 0.70994 0.19400
C 	C 	0.93631 0.20426 0.73297 0.32200
O 	O 	0.83680 0.22466 0.89675 -0.46100
O 	O 	0.85406 0.14213 0.88398 -0.38200
O 	O 	0.85405 0.16105 0.72938 -0.78200
O 	O 	0.89567 0.06688 0.74892 -0.45300
O 	O 	0.80624 0.16290 0.80827 -0.41500
O 	O 	0.85737 0.06924 0.80505 -0.39600
O 	O 	0.81317 0.25007 0.80290 -0.40300
O 	O 	0.90359 0.16268 0.64518 -0.46300
H 	H 	0.89855 0.20144 0.81639 0.19000
O 	O 	0.87074 0.23172 0.64906 -0.36800
O 	O 	0.87792 0.20839 0.80287 -0.78400
O 	O 	0.86417 0.32544 0.80489 -0.45600
O 	O 	0.91695 0.24115 0.72235 -0.43300
O 	O 	0.85006 0.29729 0.72856 -0.41200
O 	O 	0.92616 0.15780 0.74320 -0.41000
C 	C 	0.84660 0.18023 0.91391 0.30600
C 	C 	0.87173 0.04538 0.76898 0.29400
C 	C 	0.79560 0.21027 0.81394 0.31200
C 	C 	0.88609 0.19686 0.62330 0.30200
Zn	Zn	0.12772 0.31423 0.25329 1.22100
Zn	Zn	0.10357 0.34258 0.13877 1.19700
C 	C 	0.13934 0.13000 0.19459 0.32700
Zn	Zn	0.12290 0.23505 0.16405 1.22200
Zn	Zn	0.12795 0.19853 0.27908 1.20400
H 	H 	0.15735 0.31321 0.16586 0.18500
C 	C 	0.05897 0.24903 0.14784 0.32800
O 	O 	0.13883 0.23239 0.34050 -0.45200
O 	O 	0.11518 0.31038 0.32977 -0.38100
O 	O 	0.13621 0.30629 0.17732 -0.78500
O 	O 	0.08483 0.38787 0.18810 -0.44600
O 	O 	0.17164 0.30550 0.27085 -0.42800
O 	O 	0.11569 0.38939 0.25517 -0.40900
O 	O 	0.17341 0.21910 0.25233 -0.39700
O 	O 	0.10251 0.30688 0.07501 -0.44700
H 	H 	0.08398 0.24983 0.24343 0.18800
O 	O 	0.13688 0.24122 0.08875 -0.36900
O 	O 	0.10627 0.24836 0.23686 -0.78300
O 	O 	0.12816 0.13488 0.23893 -0.45100
O 	O 	0.08194 0.21766 0.14058 -0.43800
O 	O 	0.14833 0.17091 0.16929 -0.41500
O 	O 	0.06416 0.29702 0.16060 -0.40500
C 	C 	0.12377 0.27186 0.35837 0.31100
C 	C 	0.10186 0.41364 0.21875 0.30800
C 	C 	0.18698 0.26158 0.26801 0.31000
C 	C 	0.12444 0.27606 0.05925 0.29500
Zn	Zn	0.14116 0.31797 0.74503 1.22200
Zn	Zn	0.10553 0.33356 0.63719 1.19700
C 	C 	0.13402 0.12450 0.71376 0.32100
Zn	Zn	0.12153 0.22716 0.67242 1.22300
Zn	Zn	0.14044 0.20761 0.78801 1.20200
H 	H 	0.15982 0.29760 0.65259 0.19400
C 	C 	0.05833 0.25432 0.67538 0.32300
O 	O 	0.16060 0.25025 0.83768 -0.46000
O 	O 	0.13770 0.32797 0.82337 -0.37400
O 	O 	0.14013 0.29669 0.67054 -0.78600
O 	O 	0.09744 0.39343 0.67964 -0.44700
O 	O 	0.18567 0.30442 0.75014 -0.42300
O 	O 	0.13390 0.39468 0.73942 -0.40300
O 	O 	0.18117 0.21653 0.74333 -0.41200
O 	O 	0.09313 0.28758 0.58318 -0.44900
H 	H 	0.09461 0.25946 0.75901 0.19200
O 	O 	0.12610 0.21959 0.59427 -0.36600
O 	O 	0.11549 0.25373 0.74598 -0.77800
O 	O 	0.13342 0.13749 0.76024 -0.44600
O 	O 	0.07759 0.21744 0.66443 -0.42700
O 	O 	0.14227 0.15835 0.67986 -0.41300
O 	O 	0.06810 0.30196 0.68015 -0.41000
C 	C 	0.14778 0.29254 0.85416 0.31200
C 	C 	0.11936 0.41761 0.70290 0.30200
C 	C 	0.19837 0.25820 0.74773 0.31500
C 	C 	0.11170 0.25243 0.56504 0.30100
Zn	Zn	0.36615 0.33546 0.36035 1.22400
Zn	Zn	0.40322 0.35156 0.46889 1.20400
C 	C 	0.36097 0.14685 0.39668 0.33200
Zn	Zn	0.38403 0.24644 0.43432 1.22300
Zn	Zn	0.36728 0.22366 0.31886 1.20600
H 	H 	0.34813 0.31981 0.45354 0.19600
C 	C 	0.44846 0.26850 0.43431 0.31600
O 	O 	0.34942 0.26295 0.26519 -0.45700
O 	O 	0.36914 0.34314 0.28167 -0.37500
O 	O 	0.36779 0.31728 0.43562 -0.78200
O 	O 	0.40994 0.41351 0.42877 -0.43000
O 	O 	0.32111 0.32516 0.35715 -0.41800
O 	O 	0.37759 0.40992 0.36360 -0.40800
O 	O 	0.32419 0.23695 0.35690 -0.40300
O 	O 	0.41463 0.30548 0.52272 -0.45500
H 	H 	0.41186 0.27636 0.34820 0.19500
O 	O 	0.37969 0.24051 0.51264 -0.37000
O 	O 	0.39076 0.27107 0.36052 -0.78600
O 	O 	0.37295 0.15738 0.35383 -0.45400
O 	O 	0.42806 0.23192 0.44108 -0.42400
O 	O 	0.35779 0.18323 0.43019 -0.41900
O 	O 	0.43923 0.31596 0.42516 -0.40800
C 	C 	0.36076 0.30705 0.25016 0.31300
C 	C 	0.38700 0.43306 0.40407 0.29500
C 	C 	0.30840 0.27975 0.34911 0.30800
C 	C 	0.39486 0.27276 0.54132 0.30400
Zn	Zn	0.37051 0.34700 0.84929 1.22400
Zn	Zn	0.39359 0.37734 0.96344 1.19900
C 	C 	0.36419 0.16398 0.90726 0.32900
Zn	Zn	0.37803 0.26906 0.93800 1.22500
Zn	Zn	0.37850 0.23114 0.82468 1.20400
H 	H 	0.34094 0.34260 0.93672 0.19600
C 	C 	0.44047 0.28750 0.96035 0.32900
O 	O 	0.36501 0.26182 0.76320 -0.46100
O 	O 	0.38318 0.34420 0.77294 -0.38000
O 	O 	0.36230 0.33829 0.92513 -0.78500
O 	O 	0.41217 0.41962 0.91224 -0.45200
O 	O 	0.32738 0.33061 0.83198 -0.42200
O 	O 	0.37935 0.42331 0.84784 -0.40300
O 	O 	0.33225 0.24475 0.85075 -0.41100
O 	O 	0.39477 0.34335 0.02788 -0.45100
H 	H 	0.41793 0.29064 0.86129 0.19800
O 	O 	0.36368 0.27323 0.01275 -0.36600
O 	O 	0.39568 0.28537 0.86630 -0.78400
O 	O 	0.38151 0.17056 0.86854 -0.45900
O 	O 	0.41865 0.25327 0.96235 -0.43900
O 	O 	0.35397 0.20401 0.93235 -0.41000
O 	O 	0.43461 0.33442 0.94530 -0.40400
C 	C 	0.37726 0.30380 0.74488 0.31100
C 	C 	0.39491 0.44652 0.88301 0.30600
C 	C 	0.31555 0.28372 0.83496 0.31500
C 	C 	0.37523 0.30798 0.04323 0.30600
Zn	Zn	0.63460 0.74949 0.03957 1.22500
Zn	Zn	0.64148 0.79770 0.92973 1.20300
C 	C 	0.63959 0.57698 0.96789 0.29500
Zn	Zn	0.62245 0.68426 0.94400 1.22200
Zn	Zn	0.63970 0.63616 0.05662 1.20100
H 	H 	0.67402 0.72471 0.96362 0.19200
C 	C 	0.57234 0.75949 0.93400 0.30800
O 	O 	0.63980 0.66230 0.12466 -0.45500
O 	O 	0.61726 0.74197 0.11227 -0.37600
O 	O 	0.65241 0.73580 0.96726 -0.79100
O 	O 	0.64810 0.85036 0.98075 -0.46700
O 	O 	0.67590 0.75354 0.06856 -0.42100
O 	O 	0.61493 0.81836 0.03756 -0.42100
O 	O 	0.68480 0.67031 0.04777 -0.40400
O 	O 	0.63020 0.78063 0.86235 -0.45400
H 	H 	0.59217 0.68572 0.03005 0.19000
O 	O 	0.63473 0.69235 0.86804 -0.39200
O 	O 	0.61399 0.68597 0.02006 -0.78700
O 	O 	0.65691 0.59615 0.00225 -0.44400
O 	O 	0.58099 0.71086 0.92860 -0.43000
O 	O 	0.62686 0.60750 0.93485 -0.40600
O 	O 	0.59212 0.79543 0.94786 -0.40300
C 	C 	0.62367 0.70204 0.14087 0.30900
C 	C 	0.62822 0.85790 0.01584 0.33900
C 	C 	0.69359 0.71286 0.06933 0.32200
C 	C 	0.63051 0.73471 0.84185 0.32300
Zn	Zn	0.59934 0.76598 0.53466 1.22300
Zn	Zn	0.58025 0.78960 0.41590 1.19800
C 	C 	0.60394 0.57962 0.49629 0.32800
Zn	Zn	0.58805 0.68135 0.45258 1.22100
Zn	Zn	0.58328 0.65357 0.56981 1.20700
H 	H 	0.62938 0.74869 0.44952 0.19000
C 	C 	0.52649 0.71239 0.42862 0.31400
O 	O 	0.58715 0.68555 0.63388 -0.45200
O 	O 	0.58797 0.77150 0.61138 -0.38500
O 	O 	0.60765 0.74923 0.45998 -0.78400
O 	O 	0.56763 0.84780 0.45771 -0.44700
O 	O 	0.64156 0.74757 0.55413 -0.43000
O 	O 	0.59324 0.84315 0.53047 -0.40300
O 	O 	0.63322 0.66018 0.55954 -0.39300
O 	O 	0.57610 0.74780 0.35569 -0.45700
H 	H 	0.55012 0.71691 0.52565 0.19400
O 	O 	0.60309 0.67549 0.37835 -0.37600
O 	O 	0.57184 0.70656 0.52238 -0.79200
O 	O 	0.58334 0.58924 0.53001 -0.45600
O 	O 	0.54538 0.67285 0.42870 -0.42200
O 	O 	0.61148 0.61547 0.46409 -0.41400
O 	O 	0.53647 0.75863 0.44026 -0.40800
C 	C 	0.59190 0.73456 0.64434 0.32300
C 	C 	0.58618 0.86852 0.48984 0.29800
C 	C 	0.65014 0.70134 0.56938 0.30700
C 	C 	0.59435 0.70893 0.34458 0.30600
Zn	Zn	0.86825 0.71289 0.19587 1.22300
Zn	Zn	0.88239 0.73854 0.31156 1.20500
C 	C 	0.86278 0.52917 0.24168 0.30900
Zn	Zn	0.88915 0.62880 0.27483 1.22200
Zn	Zn	0.86284 0.60150 0.16116 1.20400
H 	H 	0.83964 0.68012 0.27923 0.20000
C 	C 	0.94380 0.69350 0.27081 0.30500
O 	O 	0.86619 0.63086 0.09558 -0.44500
O 	O 	0.87148 0.71735 0.11597 -0.38000
O 	O 	0.86103 0.68828 0.26997 -0.78500
O 	O 	0.87041 0.80163 0.27720 -0.46400
O 	O 	0.82434 0.72011 0.18839 -0.44100
O 	O 	0.88825 0.78325 0.20029 -0.41200
O 	O 	0.81678 0.63604 0.16605 -0.38700
O 	O 	0.90252 0.70230 0.36542 -0.45000
H 	H 	0.91048 0.64953 0.18469 0.18100
O 	O 	0.88320 0.62186 0.35329 -0.37200
O 	O 	0.88979 0.64695 0.19936 -0.79300
O 	O 	0.84535 0.55599 0.21215 -0.44900
O 	O 	0.93315 0.64723 0.28223 -0.42000
O 	O 	0.88149 0.55252 0.27252 -0.41500
O 	O 	0.92537 0.73406 0.27005 -0.40200
C 	C 	0.86361 0.68036 0.08419 0.30700
C 	C 	0.88270 0.81674 0.23600 0.32900
C 	C 	0.80750 0.68446 0.16795 0.32600
C 	C 	0.88983 0.66045 0.38296 0.30500
Zn	Zn	0.83121 0.73536 0.68009 1.22000
Zn	Zn	0.83478 0.77501 0.79347 1.20000
C 	C 	0.83719 0.55439 0.74075 0.29200
Zn	Zn	0.85005 0.66319 0.77003 1.22000
Zn	Zn	0.82879 0.62048 0.65641 1.19900
H 	H 	0.79756 0.70617 0.76223 0.18800
C 	C 	0.90107 0.73562 0.76472 0.30400
O 	O 	0.82526 0.65100 0.59101 -0.45400
O 	O 	0.84528 0.73227 0.60389 -0.36400
O 	O 	0.81892 0.71664 0.75496 -0.78400
O 	O 	0.82123 0.83108 0.75018 -0.46800
O 	O 	0.78782 0.73579 0.65873 -0.42000
O 	O 	0.84802 0.80852 0.68190 -0.40500
O 	O 	0.78260 0.64942 0.67072 -0.40300
O 	O 	0.85450 0.75380 0.85472 -0.45100
H 	H 	0.87500 0.67313 0.68096 0.18200
O 	O 	0.84417 0.66747 0.84885 -0.39100
O 	O 	0.85371 0.67113 0.69334 -0.78900
O 	O 	0.81751 0.57088 0.70801 -0.45200
O 	O 	0.89239 0.68873 0.77784 -0.42300
O 	O 	0.84603 0.58563 0.77650 -0.40200
O 	O 	0.88061 0.77301 0.75881 -0.40300
C 	C 	0.84212 0.69028 0.57624 0.29900
C 	C 	0.83699 0.84451 0.71164 0.32400
C 	C 	0.77202 0.69312 0.65296 0.31500
C 	C 	0.85156 0.70842 0.87546 0.31300
Zn	Zn	0.13128 0.72355 0.11578 1.22200
Zn	Zn	0.13886 0.69833 0.23159 1.20000
C 	C 	0.13026 0.91370 0.15911 0.31300
Zn	Zn	0.11878 0.80612 0.19904 1.22200
Zn	Zn	0.12994 0.83386 0.08036 1.19900
H 	H 	0.17092 0.76416 0.18568 0.19300
C 	C 	0.07006 0.73077 0.21919 0.30600
O 	O 	0.13245 0.79327 0.01928 -0.45300
O 	O 	0.11200 0.71565 0.04427 -0.37200
O 	O 	0.14941 0.75214 0.18378 -0.78800
O 	O 	0.14875 0.63687 0.19227 -0.46500
O 	O 	0.17244 0.72329 0.08513 -0.42000
O 	O 	0.11571 0.65156 0.12931 -0.40600
O 	O 	0.17664 0.80993 0.09648 -0.40400
O 	O 	0.12379 0.72848 0.29232 -0.46400
H 	H 	0.08606 0.78408 0.11856 0.18800
O 	O 	0.13318 0.81331 0.27410 -0.38900
O 	O 	0.10811 0.78801 0.12633 -0.79300
O 	O 	0.14344 0.89406 0.12009 -0.44600
O 	O 	0.07846 0.77982 0.22171 -0.42000
O 	O 	0.12143 0.88385 0.19600 -0.41300
O 	O 	0.09038 0.69419 0.20944 -0.40600
C 	C 	0.11605 0.75147 0.01032 0.31100
C 	C 	0.12969 0.61924 0.15945 0.32800
C 	C 	0.18857 0.76591 0.08215 0.32000
C 	C 	0.12919 0.77602 0.30640 0.31500
Zn	Zn	0.11090 0.72952 0.61607 1.22300
Zn	Zn	0.08093 0.68708 0.72323 1.19700
C 	C 	0.10683 0.91000 0.67945 0.32800
Zn	Zn	0.08973 0.80107 0.70485 1.22000
Zn	Zn	0.09956 0.84533 0.59291 1.20300
H 	H 	0.13187 0.73466 0.70920 0.18200
C 	C 	0.02747 0.76375 0.71035 0.31500
O 	O 	0.11611 0.82063 0.53109 -0.45700
O 	O 	0.10517 0.73401 0.53780 -0.38200
O 	O 	0.11146 0.73546 0.69336 -0.78300
O 	O 	0.07378 0.63769 0.66971 -0.44500
O 	O 	0.15416 0.75025 0.60933 -0.42800
O 	O 	0.10829 0.65240 0.60914 -0.40200
O 	O 	0.14597 0.83654 0.62249 -0.39600
O 	O 	0.07028 0.71828 0.78700 -0.45500
H 	H 	0.06045 0.77876 0.61808 0.19100
O 	O 	0.09736 0.79440 0.78194 -0.37900
O 	O 	0.08157 0.78695 0.62880 -0.78800
O 	O 	0.09208 0.90383 0.63810 -0.46000
O 	O 	0.04506 0.80387 0.71918 -0.42000
O 	O 	0.11157 0.87020 0.70899 -0.41000
O 	O 	0.03951 0.72109 0.69311 -0.40700
C 	C 	0.11096 0.77544 0.51095 0.31700
C 	C 	0.09692 0.62184 0.64333 0.30500
C 	C 	0.16409 0.79832 0.60874 0.31400
C 	C 	0.08647 0.75524 0.80782 0.30600
Zn	Zn	0.36732 0.75910 0.96823 1.22100
Zn	Zn	0.38466 0.73564 0.85389 1.20300
C 	C 	0.36147 0.94648 0.92416 0.30700
Zn	Zn	0.38621 0.84545 0.88988 1.22000
Zn	Zn	0.35407 0.86899 0.00026 1.20000
H 	H 	0.33828 0.78860 0.88289 0.20400
C 	C 	0.44282 0.78672 0.90000 0.29900
O 	O 	0.34666 0.83117 0.06142 -0.46100
O 	O 	0.37363 0.75594 0.04667 -0.36600
O 	O 	0.35967 0.78324 0.89383 -0.78300
O 	O 	0.37358 0.67122 0.88613 -0.46600
O 	O 	0.32315 0.74761 0.98002 -0.41900
O 	O 	0.38944 0.69052 0.96379 -0.40500
O 	O 	0.31303 0.83286 0.97054 -0.40200
O 	O 	0.40570 0.77320 0.80181 -0.45500
H 	H 	0.40592 0.83022 0.98228 0.17900
O 	O 	0.38236 0.85084 0.81085 -0.37100
O 	O 	0.38582 0.82867 0.96554 -0.79100
O 	O 	0.34207 0.92227 0.95254 -0.45100
O 	O 	0.43087 0.83115 0.88572 -0.42700
O 	O 	0.37689 0.92115 0.89018 -0.41400
O 	O 	0.42610 0.74407 0.89922 -0.39800
C 	C 	0.36191 0.79050 0.07742 0.30500
C 	C 	0.38508 0.65672 0.92799 0.33000
C 	C 	0.30396 0.78634 0.98277 0.31000
C 	C 	0.39209 0.81315 0.78235 0.30400
Zn	Zn	0.33685 0.74637 0.48012 1.22000
Zn	Zn	0.33058 0.71230 0.36482 1.20400
C 	C 	0.34631 0.92884 0.42187 0.30700
Zn	Zn	0.35385 0.81967 0.39016 1.22100
Zn	Zn	0.34097 0.86058 0.50601 1.20300
H 	H 	0.30005 0.78456 0.40508 0.18700
C 	C 	0.40017 0.73929 0.38361 0.31200
O 	O 	0.33849 0.82887 0.57100 -0.45200
O 	O 	0.35414 0.74532 0.55481 -0.36700
O 	O 	0.32102 0.77032 0.40839 -0.78400
O 	O 	0.31900 0.65551 0.40937 -0.45200
O 	O 	0.29477 0.75069 0.50720 -0.41700
O 	O 	0.35139 0.67144 0.47269 -0.40100
O 	O 	0.29342 0.83746 0.49632 -0.40500
O 	O 	0.34907 0.73527 0.30281 -0.44200
H 	H 	0.38345 0.80279 0.47490 0.18300
O 	O 	0.34171 0.82176 0.31351 -0.38800
O 	O 	0.36173 0.80785 0.46549 -0.78800
O 	O 	0.32854 0.91313 0.45751 -0.44600
O 	O 	0.39386 0.78803 0.37355 -0.42200
O 	O 	0.35434 0.89684 0.38646 -0.41400
O 	O 	0.37797 0.70590 0.39171 -0.40300
C 	C 	0.35289 0.78630 0.58432 0.30100
C 	C 	0.33970 0.63887 0.43999 0.32000
C 	C 	0.28175 0.79545 0.51578 0.31300
C 	C 	0.34649 0.78182 0.28455 0.31500
C 	C 	0.38178 0.80964 0.73106 -0.08600
C 	C 	0.35045 0.80255 0.72005 0.06100
C 	C 	0.34153 0.78879 0.67265 -0.02100
C 	C 	0.36333 0.78250 0.63537 -0.07200
C 	C 	0.39467 0.78842 0.64654 0.06100
C 	C 	0.40371 0.80187 0.69415 -0.01800
H 	H 	0.31736 0.78639 0.66401 0.06500
H 	H 	0.42789 0.80564 0.70260 0.06100
I 	I 	0.31571 0.81194 0.77389 -0.13900
I 	I 	0.42873 0.78025 0.59155 -0.11700
C 	C 	0.36227 0.78091 0.13033 -0.07300
C 	C 	0.33981 0.74877 0.15136 0.07000
C 	C 	0.33272 0.75347 0.20107 -0.01800
C 	C 	0.34884 0.78827 0.23109 -0.07800
C 	C 	0.37188 0.81966 0.21029 0.07300
C 	C 	0.37868 0.81530 0.16032 -0.02400
H 	H 	0.31537 0.72850 0.21690 0.04700
H 	H 	0.39570 0.84071 0.14422 0.04500
I 	I 	0.31628 0.69243 0.10895 -0.07500
I 	I 	0.39633 0.87513 0.25258 -0.08000
C 	C 	0.19629 0.80827 0.59441 -0.07300
C 	C 	0.20327 0.84250 0.55564 0.07400
C 	C 	0.23078 0.83680 0.52965 -0.02400
C 	C 	0.25211 0.79833 0.54259 -0.07400
C 	C 	0.24610 0.76670 0.58389 0.06900
C 	C 	0.21878 0.77314 0.61015 -0.01700
H 	H 	0.23554 0.86241 0.49917 0.06300
H 	H 	0.21401 0.74789 0.64092 0.05700
I 	I 	0.17378 0.90474 0.53627 -0.10600
I 	I 	0.27653 0.70715 0.60736 -0.08400
C 	C 	0.10371 0.74396 0.96108 -0.08600
C 	C 	0.11824 0.70993 0.92822 0.07200
C 	C 	0.11267 0.71447 0.87804 -0.02400
C 	C 	0.09245 0.75233 0.86036 -0.08100
C 	C 	0.07617 0.78366 0.89342 0.07000
C 	C 	0.08187 0.77933 0.94358 -0.02300
H 	H 	0.12420 0.68873 0.85268 0.03700
H 	H 	0.07028 0.80506 0.96889 0.03700
I 	I 	0.14900 0.65185 0.95315 -0.08400
I 	I 	0.04261 0.83733 0.86872 -0.08800
C 	C 	0.11462 0.77093 0.45806 -0.07800
C 	C 	0.14287 0.75475 0.43845 0.07000
C 	C 	0.14952 0.76399 0.38921 -0.02200
C 	C 	0.12781 0.78756 0.35860 -0.08200
C 	C 	0.10034 0.80636 0.37885 0.07100
C 	C 	0.09349 0.79665 0.42794 -0.02200
H 	H 	0.17080 0.74962 0.37386 0.03800
H 	H 	0.07230 0.81132 0.44336 0.04600
I 	I 	0.17599 0.71615 0.48232 -0.08900
I 	I 	0.06893 0.85017 0.33624 -0.08400
C 	C 	0.27452 0.77955 0.00830 -0.05700
C 	C 	0.25104 0.74879 0.98818 0.05300
C 	C 	0.22353 0.74204 0.01393 0.00200
C 	C 	0.21937 0.76515 0.05999 -0.08700
C 	C 	0.24366 0.79320 0.08128 0.08000
C 	C 	0.27051 0.80192 0.05463 -0.03100
H 	H 	0.20499 0.72037 0.99737 0.05900
H 	H 	0.28864 0.82493 0.07063 0.06100
I 	I 	0.25571 0.71469 0.91785 -0.09000
I 	I 	0.24185 0.81820 0.15533 -0.12300
C 	C 	0.93355 0.74496 0.75167 -0.07200
C 	C 	0.95730 0.73654 0.78588 0.07000
C 	C 	0.98769 0.74784 0.77317 -0.02100
C 	C 	0.99511 0.76388 0.72562 -0.07700
C 	C 	0.97161 0.77024 0.69085 0.07500
C 	C 	0.94102 0.76047 0.70392 -0.02400
H 	H 	0.00583 0.74107 0.79951 0.06300
H 	H 	0.92317 0.76331 0.67653 0.06000
I 	I 	0.94895 0.70048 0.85443 -0.07000
I 	I 	0.98189 0.79341 0.61807 -0.10900
C 	C 	0.97653 0.69991 0.25833 -0.07400
C 	C 	0.99793 0.71507 0.29418 0.07400
C 	C 	0.02871 0.72274 0.28131 -0.02100
C 	C 	0.03840 0.71635 0.23273 -0.07100
C 	C 	0.01717 0.69995 0.19705 0.06500
C 	C 	0.98638 0.69178 0.21003 -0.01800
H 	H 	0.04510 0.73404 0.30910 0.06400
H 	H 	0.97005 0.67978 0.18238 0.04100
I 	I 	0.98443 0.72727 0.36793 -0.08400
I 	I 	0.03075 0.68820 0.12326 -0.11100
C 	C 	0.85371 0.70425 0.92974 -0.07200
C 	C 	0.87279 0.73772 0.95796 0.06000
C 	C 	0.87446 0.73150 0.00887 -0.01300
C 	C 	0.85682 0.69383 0.03262 -0.08000
C 	C 	0.83579 0.66395 0.00506 0.07700
C 	C 	0.83506 0.66828 0.95404 -0.03500
H 	H 	0.89019 0.75526 0.02981 0.06300
H 	H 	0.81923 0.64447 0.93334 0.06100
I 	I 	0.89948 0.79859 0.92680 -0.08200
I 	I 	0.80319 0.61434 0.03910 -0.10100
C 	C 	0.85482 0.68885 0.52637 -0.07500
C 	C 	0.88648 0.68109 0.51905 0.06100
C 	C 	0.89757 0.66832 0.47243 -0.01800
C 	C 	0.87733 0.66176 0.43301 -0.08600
C 	C 	0.84556 0.66822 0.44070 0.05900
C 	C 	0.83462 0.68229 0.48694 -0.02100
H 	H 	0.92204 0.66409 0.46673 0.06300
H 	H 	0.81015 0.68579 0.49276 0.06600
I 	I 	0.91787 0.68447 0.57830 -0.13000
I 	I 	0.81323 0.65677 0.38360 -0.14400
C 	C 	0.43213 0.72368 0.39273 -0.07500
C 	C 	0.45431 0.72634 0.35538 0.07000
C 	C 	0.48529 0.71815 0.36659 -0.02000
C 	C 	0.49422 0.70563 0.41447 -0.07900
C 	C 	0.47161 0.69702 0.45034 0.07500
C 	C 	0.44075 0.70686 0.43957 -0.02500
H 	H 	0.50252 0.72307 0.33840 0.05500
H 	H 	0.42354 0.70232 0.46787 0.05600
I 	I 	0.44151 0.73879 0.28137 -0.06800
I 	I 	0.48333 0.66774 0.52041 -0.13100
C 	C 	0.68176 0.69469 0.58843 -0.07200
C 	C 	0.68778 0.66494 0.63083 0.06700
C 	C 	0.71717 0.66537 0.65175 -0.02100
C 	C 	0.74085 0.69505 0.63106 -0.07600
C 	C 	0.73494 0.72391 0.58804 0.06900
C 	C 	0.70565 0.72319 0.56705 -0.02000
H 	H 	0.72151 0.64285 0.68449 0.06200
H 	H 	0.70136 0.74550 0.53416 0.06200
I 	I 	0.65335 0.61917 0.66494 -0.10400
I 	I 	0.76944 0.76839 0.55249 -0.08400
C 	C 	0.53949 0.77274 0.92886 -0.07700
C 	C 	0.52895 0.80205 0.88868 0.06800
C 	C 	0.49738 0.80612 0.87953 -0.02300
C 	C 	0.47601 0.78382 0.91170 -0.07100
C 	C 	0.48659 0.75932 0.95472 0.06200
C 	C 	0.51817 0.75207 0.96198 -0.01700
H 	H 	0.48948 0.82673 0.84738 0.06600
H 	H 	0.52614 0.73110 0.99390 0.05000
I 	I 	0.55984 0.84273 0.84258 -0.09500
I 	I 	0.45616 0.73948 0.01240 -0.09500
C 	C 	0.62142 0.73078 0.79047 -0.07800
C 	C 	0.64179 0.74665 0.75341 0.07500
C 	C 	0.63083 0.75598 0.70608 -0.02100
C 	C 	0.59985 0.74772 0.69478 -0.07700
C 	C 	0.57928 0.73481 0.73251 0.07500
C 	C 	0.59026 0.72457 0.77955 -0.01700
H 	H 	0.64687 0.76557 0.67716 0.05700
H 	H 	0.57426 0.71439 0.80836 0.06100
I 	I 	0.68950 0.75386 0.76728 -0.13000
I 	I 	0.53138 0.73064 0.71914 -0.09200
C 	C 	0.60248 0.70035 0.29324 -0.07900
C 	C 	0.63304 0.70617 0.27747 0.06400
C 	C 	0.63960 0.70799 0.22745 -0.01800
C 	C 	0.61596 0.70433 0.19289 -0.07800
C 	C 	0.58552 0.69730 0.20857 0.06500
C 	C 	0.57895 0.69525 0.25858 -0.01900
H 	H 	0.66313 0.71249 0.21538 0.05800
H 	H 	0.55539 0.69097 0.27059 0.06000
I 	I 	0.66962 0.71491 0.32823 -0.10900
I 	I 	0.54908 0.68880 0.15754 -0.10800
C 	C 	0.72174 0.71290 0.09852 -0.08000
C 	C 	0.74849 0.73722 0.08123 0.07600
C 	C 	0.77615 0.73051 0.10634 -0.02100
C 	C 	0.77750 0.69851 0.14778 -0.07900
C 	C 	0.75041 0.67683 0.16674 0.07300
C 	C 	0.72270 0.68397 0.14194 -0.02100
H 	H 	0.79695 0.74791 0.09213 0.05700
H 	H 	0.70199 0.66604 0.15584 0.05400
I 	I 	0.74828 0.78112 0.01551 -0.11700
I 	I 	0.75045 0.63497 0.23367 -0.08300
C 	C 	0.39132 0.50192 0.89276 -0.09100
C 	C 	0.36651 0.51923 0.92154 0.05400
C 	C 	0.36751 0.56834 0.94336 -0.02000
C 	C 	0.39217 0.60184 0.93429 -0.08100
C 	C 	0.41832 0.58206 0.91063 0.06200
C 	C 	0.41721 0.53361 0.88791 -0.01800
H 	H 	0.34764 0.58249 0.96307 0.05800
H 	H 	0.43723 0.51932 0.86865 0.06000
I 	I 	0.32732 0.47192 0.93306 -0.16700
I 	I 	0.45933 0.62582 0.90637 -0.08600
C 	C 	0.35633 0.11133 0.92196 -0.07900
C 	C 	0.37443 0.08590 0.95713 0.06300
C 	C 	0.37643 0.03187 0.95683 -0.02500
C 	C 	0.36006 0.00295 0.92222 -0.08700
C 	C 	0.33958 0.02809 0.89031 0.07400
C 	C 	0.33751 0.08211 0.89083 -0.02200
H 	H 	0.39089 0.01236 0.98329 0.02900
H 	H 	0.32297 0.10159 0.86445 0.05500
I 	I 	0.40017 0.12835 0.00953 -0.08600
I 	I 	0.31220 0.98561 0.84002 -0.07400
C 	C 	0.37720 0.48673 0.41432 -0.08000
C 	C 	0.37000 0.50331 0.46235 0.06900
C 	C 	0.35984 0.55426 0.47041 -0.01700
C 	C 	0.35446 0.58772 0.43086 -0.08000
C 	C 	0.36113 0.57003 0.38254 0.07800
C 	C 	0.37374 0.52101 0.37540 -0.01800
H 	H 	0.35450 0.56681 0.50727 0.06600
H 	H 	0.37969 0.50869 0.33869 0.07400
I 	I 	0.37080 0.45133 0.52272 -0.20200
I 	I 	0.35110 0.61240 0.31798 -0.18300
C 	C 	0.35048 0.98459 0.41511 -0.07800
C 	C 	0.36887 0.01302 0.44786 0.06500
C 	C 	0.37005 0.06704 0.44442 -0.01500
C 	C 	0.35327 0.09300 0.40821 -0.08300
C 	C 	0.33381 0.06463 0.37692 0.07200
C 	C 	0.33285 0.01063 0.38009 -0.01700
H 	H 	0.38514 0.08865 0.46843 0.06000
H 	H 	0.31783 0.98895 0.35603 0.06200
I 	I 	0.39615 0.97511 0.50144 -0.16900
I 	I 	0.30470 0.10249 0.32581 -0.10600
C 	C 	0.38347 0.30541 0.69242 -0.08200
C 	C 	0.41138 0.28557 0.67473 0.06300
C 	C 	0.41376 0.26945 0.62607 -0.01900
C 	C 	0.38885 0.27467 0.59399 -0.08000
C 	C 	0.36109 0.29569 0.61146 0.06300
C 	C 	0.35870 0.31144 0.66027 -0.01500
H 	H 	0.43549 0.25487 0.61255 0.06300
H 	H 	0.33703 0.32613 0.67384 0.05800
I 	I 	0.45016 0.27845 0.72128 -0.12600
I 	I 	0.32247 0.30517 0.56492 -0.11400
C 	C 	0.37055 0.30245 0.09592 -0.07400
C 	C 	0.34183 0.31352 0.11687 0.06300
C 	C 	0.33926 0.31929 0.16757 -0.01500
C 	C 	0.36517 0.31475 0.19770 -0.08200
C 	C 	0.39389 0.30401 0.17662 0.06400
C 	C 	0.39636 0.29720 0.12612 -0.01900
H 	H 	0.31688 0.32533 0.18371 0.06200
H 	H 	0.41860 0.28935 0.11006 0.06000
I 	I 	0.30201 0.32286 0.07288 -0.09100
I 	I 	0.43381 0.29541 0.22054 -0.13000
C 	C 	0.12548 0.47234 0.69029 -0.08300
C 	C 	0.12092 0.51220 0.72479 0.06600
C 	C 	0.11581 0.56302 0.70865 -0.01700
C 	C 	0.11327 0.57411 0.65838 -0.10300
C 	C 	0.12118 0.53549 0.62415 0.07500
C 	C 	0.12825 0.48539 0.64051 -0.02900
H 	H 	0.11149 0.59326 0.73529 -0.01100
H 	H 	0.13312 0.45531 0.61394 0.02300
I 	I 	0.11932 0.49697 0.80118 -0.08100
I 	I 	0.12037 0.54967 0.54753 -0.08000
C 	C 	0.12683 0.07044 0.70048 -0.07900
C 	C 	0.09664 0.05168 0.70597 0.06600
C 	C 	0.09072 0.99848 0.70288 -0.01700
C 	C 	0.11462 0.96311 0.69520 -0.07900
C 	C 	0.14502 0.98153 0.69198 0.06800
C 	C 	0.15087 0.03505 0.69349 -0.01800
H 	H 	0.06730 0.98467 0.70536 0.05700
H 	H 	0.17429 0.04891 0.69150 0.06100
I 	I 	0.05946 0.10257 0.72044 -0.11100
I 	I 	0.18271 0.92969 0.68858 -0.07400
C 	C 	0.23025 0.25275 0.76367 -0.07800
C 	C 	0.25356 0.28001 0.73922 0.07100
C 	C 	0.28129 0.29007 0.76299 -0.01900
C 	C 	0.28607 0.27299 0.81113 -0.07700
C 	C 	0.26343 0.24299 0.83457 0.06700
C 	C 	0.23609 0.23167 0.81007 -0.01900
H 	H 	0.29913 0.31136 0.74409 0.06100
H 	H 	0.21836 0.20990 0.82873 0.05200
I 	I 	0.24732 0.30656 0.66637 -0.09300
I 	I 	0.26808 0.21970 0.90885 -0.08200
C 	C 	0.10962 0.46757 0.20698 -0.09800
C 	C 	0.08689 0.50632 0.20942 0.07200
C 	C 	0.09189 0.55458 0.18728 -0.02900
C 	C 	0.11971 0.56516 0.16353 -0.08000
C 	C 	0.14158 0.52539 0.15863 0.06400
C 	C 	0.13683 0.47746 0.18134 -0.03400
H 	H 	0.07493 0.58498 0.19133 0.06600
H 	H 	0.15377 0.44703 0.17720 0.02600
I 	I 	0.04521 0.49363 0.24774 -0.07800
I 	I 	0.18210 0.53705 0.11701 -0.09200
C 	C 	0.13283 0.96988 0.16685 -0.07600
C 	C 	0.10935 0.00333 0.15107 0.06400
C 	C 	0.11348 0.05710 0.15363 -0.02000
C 	C 	0.14059 0.07800 0.17304 -0.08000
C 	C 	0.16485 0.04453 0.18550 0.07000
C 	C 	0.16081 0.99075 0.18275 -0.01600
H 	H 	0.09475 0.08263 0.14373 0.05400
H 	H 	0.17950 0.96518 0.19270 0.06000
I 	I 	0.06700 0.97372 0.12478 -0.13000
I 	I 	0.20757 0.07439 0.20977 -0.07100
C 	C 	0.11645 0.25090 0.51192 -0.07600
C 	C 	0.14317 0.27266 0.49149 0.05900
C 	C 	0.14416 0.28464 0.44157 -0.01500
C 	C 	0.11892 0.27434 0.41131 -0.08000
C 	C 	0.09222 0.25265 0.43171 0.06500
C 	C 	0.09120 0.24066 0.48162 -0.02000
H 	H 	0.16508 0.30003 0.42584 0.06100
H 	H 	0.07034 0.22499 0.49722 0.06700
I 	I 	0.18226 0.28887 0.53528 -0.12900
I 	I 	0.05328 0.23637 0.38756 -0.13000
C 	C 	0.13155 0.27580 0.00671 -0.05500
C 	C 	0.16049 0.29220 0.98978 0.04400
C 	C 	0.16493 0.30205 0.93985 -0.00900
C 	C 	0.14072 0.29609 0.90650 -0.09100
C 	C 	0.11169 0.28054 0.92364 0.06900
C 	C 	0.10739 0.26986 0.97330 -0.03700
H 	H 	0.18750 0.31287 0.92675 0.05800
H 	H 	0.08492 0.25823 0.98624 0.06700
I 	I 	0.19773 0.30374 0.03874 -0.09700
I 	I 	0.07402 0.27124 0.87508 -0.15600
C 	C 	0.27679 0.27647 0.32919 -0.07100
C 	C 	0.26615 0.31139 0.29280 0.06700
C 	C 	0.23840 0.30167 0.26884 -0.01900
C 	C 	0.21946 0.26061 0.28330 -0.07500
C 	C 	0.22986 0.22600 0.31984 0.07600
C 	C 	0.25833 0.23414 0.34232 -0.02500
H 	H 	0.23054 0.32836 0.24091 0.05500
H 	H 	0.26607 0.20747 0.37033 0.07000
I 	I 	0.28885 0.38230 0.27580 -0.08600
I 	I 	0.20348 0.16112 0.34277 -0.10000
C 	C 	0.85415 0.39007 0.74369 -0.08300
C 	C 	0.82742 0.41012 0.72190 0.07000
C 	C 	0.82112 0.46317 0.72519 -0.03000
C 	C 	0.84312 0.49784 0.74400 -0.07900
C 	C 	0.87189 0.47833 0.75905 0.06100
C 	C 	0.87682 0.42465 0.76019 -0.02000
H 	H 	0.79961 0.47775 0.71094 0.06200
H 	H 	0.89821 0.40969 0.77462 0.05800
I 	I 	0.79929 0.36401 0.67587 -0.06900
I 	I 	0.90946 0.52802 0.77554 -0.10700
C 	C 	0.84521 0.89966 0.70609 -0.08400
C 	C 	0.87608 0.91445 0.70881 0.06700
C 	C 	0.88429 0.95872 0.73527 -0.03100
C 	C 	0.86174 0.99382 0.75133 -0.08900
C 	C 	0.83070 0.98386 0.73957 0.05700
C 	C 	0.82267 0.93674 0.71735 -0.02100
H 	H 	0.90836 0.96796 0.73996 0.06100
H 	H 	0.79867 0.92736 0.71209 0.05800
I 	I 	0.90894 0.88027 0.66235 -0.08300
I 	I 	0.79558 0.03969 0.75126 -0.12600
C 	C 	0.02717 0.24098 0.69023 -0.08300
C 	C 	0.00850 0.21013 0.65995 0.07400
C 	C 	0.97970 0.19457 0.67639 -0.01900
C 	C 	0.96862 0.21161 0.72170 -0.08300
C 	C 	0.98723 0.24230 0.75205 0.07400
C 	C 	0.01649 0.25659 0.73633 -0.02200
H 	H 	0.96525 0.17125 0.65285 0.05600
H 	H 	0.03102 0.27960 0.76005 0.05500
I 	I 	0.02190 0.19031 0.58753 -0.07900
I 	I 	0.97177 0.26710 0.82191 -0.12300
C 	C 	0.85817 0.36401 0.23941 -0.08000
C 	C 	0.83469 0.39295 0.26176 0.06800
C 	C 	0.83644 0.44708 0.26262 -0.01500
C 	C 	0.86118 0.47254 0.24044 -0.08500
C 	C 	0.88274 0.44385 0.21340 0.06600
C 	C 	0.88090 0.38979 0.21251 -0.01700
H 	H 	0.81878 0.46929 0.28103 0.06000
H 	H 	0.89855 0.36764 0.19400 0.05900
I 	I 	0.79687 0.35561 0.29559 -0.07800
I 	I 	0.91872 0.48111 0.17449 -0.15700
C 	C 	0.89123 0.97256 0.27024 -0.08900
C 	C 	0.86385 0.95424 0.24905 0.05400
C 	C 	0.86295 0.90499 0.22757 -0.02000
C 	C 	0.88854 0.87213 0.22977 -0.08400
C 	C 	0.91658 0.89235 0.24649 0.06300
C 	C 	0.91752 0.94125 0.26859 -0.01900
H 	H 	0.84141 0.89031 0.21345 0.05600
H 	H 	0.93919 0.95621 0.28194 0.06100
I 	I 	0.82357 0.00057 0.24808 -0.17000
I 	I 	0.95784 0.84957 0.23906 -0.08200
C 	C 	0.96841 0.19973 0.18069 -0.08200
C 	C 	0.99337 0.18289 0.20960 0.06700
C 	C 	0.02319 0.19585 0.19590 -0.01700
C 	C 	0.02844 0.22752 0.15523 -0.08900
C 	C 	0.00373 0.24378 0.12603 0.07400
C 	C 	0.97387 0.22973 0.13880 -0.02100
H 	H 	0.04229 0.18344 0.21841 0.03400
H 	H 	0.95489 0.24172 0.11589 0.06600
I 	I 	0.98715 0.14262 0.27685 -0.11600
I 	I 	0.01102 0.28801 0.06151 -0.08900
C 	C 	0.89054 0.16640 0.47128 -0.07900
C 	C 	0.91607 0.18646 0.49628 0.06500
C 	C 	0.91315 0.20303 0.54473 -0.01900
C 	C 	0.88530 0.19710 0.56982 -0.07800
C 	C 	0.85999 0.17538 0.54529 0.06200
C 	C 	0.86296 0.15896 0.49673 -0.01700
H 	H 	0.93305 0.21806 0.56381 0.06100
H 	H 	0.84305 0.14417 0.47752 0.05900
I 	I 	0.95910 0.19421 0.46064 -0.10800
I 	I 	0.81701 0.16638 0.58086 -0.12800
C 	C 	0.85156 0.17530 0.96682 -0.08000
C 	C 	0.83969 0.13311 0.99358 0.06200
C 	C 	0.84156 0.13332 0.04467 -0.01100
C 	C 	0.85562 0.17464 0.06942 -0.08200
C 	C 	0.86682 0.21720 0.04271 0.08000
C 	C 	0.86505 0.21700 0.99178 -0.03200
H 	H 	0.83309 0.10035 0.06517 0.04500
H 	H 	0.87399 0.24970 0.97139 0.03600
I 	I 	0.81943 0.06789 0.95860 -0.08300
I 	I 	0.88731 0.28203 0.07795 -0.09000
C 	C 	0.64101 0.41439 0.98558 -0.09600
C 	C 	0.66425 0.43951 0.95893 0.07200
C 	C 	0.66150 0.49210 0.94761 -0.02300
C 	C 	0.63648 0.52085 0.96481 -0.07700
C 	C 	0.61373 0.49610 0.99286 0.04000
C 	C 	0.61645 0.44345 0.00400 0.00200
H 	H 	0.67969 0.51131 0.92758 0.06000
H 	H 	0.59832 0.42428 0.02422 0.05200
I 	I 	0.70355 0.39838 0.93458 -0.09900
I 	I 	0.57535 0.53796 0.01994 -0.15500
C 	C 	0.61375 0.01644 0.00441 -0.07200
C 	C 	0.59199 0.98219 0.98446 0.06900
C 	C 	0.59365 0.92942 0.99547 -0.03100
C 	C 	0.61753 0.91036 0.02472 -0.07900
C 	C 	0.63708 0.94531 0.04873 0.07100
C 	C 	0.63542 0.99807 0.03798 -0.03200
H 	H 	0.57804 0.90263 0.97779 0.06200
H 	H 	0.65101 0.02486 0.05571 0.03300
I 	I 	0.55721 0.00868 0.93611 -0.08400
I 	I 	0.67075 0.91855 0.09884 -0.09100
C 	C 	0.47074 0.27482 0.97935 -0.09600
C 	C 	0.49738 0.28791 0.95304 0.07300
C 	C 	0.52603 0.27995 0.97423 -0.03100
C 	C 	0.52846 0.25593 0.02001 -0.07700
C 	C 	0.50192 0.24266 0.04624 0.06800
C 	C 	0.47318 0.25216 0.02582 -0.00700
H 	H 	0.54653 0.29051 0.95419 0.03200
H 	H 	0.45268 0.24255 0.04631 0.06000
I 	I 	0.49534 0.31406 0.87928 -0.11700
I 	I 	0.50461 0.21059 0.11770 -0.08800
C 	C 	0.76914 0.21814 0.84689 -0.07300
C 	C 	0.74643 0.25548 0.83672 0.06800
C 	C 	0.72200 0.26236 0.86934 -0.01300
C 	C 	0.71954 0.23148 0.91146 -0.07600
C 	C 	0.74345 0.19737 0.92346 0.07700
C 	C 	0.76733 0.18919 0.89035 -0.02000
H 	H 	0.70367 0.28890 0.85995 0.05500
H 	H 	0.78457 0.16037 0.89849 0.06900
I 	I 	0.74534 0.29582 0.76924 -0.07500
I 	I 	0.74469 0.15965 0.99251 -0.10200
C 	C 	0.61590 0.52642 0.49133 -0.08100
C 	C 	0.64698 0.51508 0.50101 0.06800
C 	C 	0.65631 0.46348 0.50717 -0.01800
C 	C 	0.63522 0.42282 0.50192 -0.08400
C 	C 	0.60468 0.43410 0.48885 0.05900
C 	C 	0.59508 0.48564 0.48462 -0.01700
H 	H 	0.68014 0.45496 0.51506 0.06200
H 	H 	0.57129 0.49405 0.47636 0.05900
I 	I 	0.68069 0.57431 0.50422 -0.07700
I 	I 	0.57308 0.37445 0.47133 -0.15600
C 	C 	0.60466 0.02925 0.46369 -0.08300
C 	C 	0.57489 0.01242 0.47590 0.06500
C 	C 	0.56955 0.96029 0.48740 -0.01900
C 	C 	0.59344 0.92401 0.48520 -0.08100
C 	C 	0.62248 0.93981 0.46835 0.05700
C 	C 	0.62777 0.99204 0.45682 -0.01600
H 	H 	0.54666 0.94787 0.49749 0.06200
H 	H 	0.65062 0.00436 0.44647 0.05500
I 	I 	0.53778 0.06530 0.47929 -0.08700
I 	I 	0.65886 0.88571 0.46025 -0.14800
C 	C 	0.47976 0.26024 0.45221 -0.08000
C 	C 	0.49877 0.22191 0.43169 0.07700
C 	C 	0.52678 0.20976 0.45407 -0.02700
C 	C 	0.53525 0.23351 0.49837 -0.07200
C 	C 	0.51573 0.27160 0.51899 0.07100
C 	C 	0.48910 0.28625 0.49448 -0.01600
H 	H 	0.54222 0.18269 0.43649 0.06600
H 	H 	0.47467 0.31620 0.50997 0.05200
I 	I 	0.48638 0.18344 0.36592 -0.09400
I 	I 	0.52370 0.30533 0.58880 -0.05800
C 	C 	0.62825 0.18371 0.78818 -0.08500
C 	C 	0.65294 0.18473 0.75511 0.07000
C 	C 	0.64856 0.20299 0.70735 -0.03000
C 	C 	0.61910 0.21631 0.69094 -0.08500
C 	C 	0.59385 0.20953 0.72273 0.06600
C 	C 	0.59859 0.19299 0.77087 -0.02900
H 	H 	0.66781 0.20439 0.68231 0.04500
H 	H 	0.57934 0.19116 0.79591 0.04600
I 	I 	0.69652 0.15573 0.77589 -0.08300
I 	I 	0.54831 0.22515 0.70009 -0.07400
C 	C 	0.63608 0.22863 0.28865 -0.07800
C 	C 	0.60740 0.24468 0.27053 0.06400
C 	C 	0.60349 0.25299 0.22029 -0.02100
C 	C 	0.62782 0.24468 0.18754 -0.07600
C 	C 	0.65675 0.23011 0.20590 0.06100
C 	C 	0.66077 0.22266 0.25622 -0.01900
H 	H 	0.58114 0.26399 0.20641 0.06600
H 	H 	0.68329 0.21304 0.27022 0.06300
I 	I 	0.56982 0.25845 0.31835 -0.11800
I 	I 	0.69451 0.21660 0.15841 -0.11600
C 	C 	0.73294 0.20354 0.41113 -0.07600
C 	C 	0.73795 0.17020 0.37057 0.06800
C 	C 	0.76671 0.16918 0.34776 -0.02000
C 	C 	0.79070 0.20067 0.36442 -0.07400
C 	C 	0.78569 0.23400 0.40462 0.07100
C 	C 	0.75721 0.23440 0.42812 -0.02500
H 	H 	0.77051 0.14326 0.31715 0.05700
H 	H 	0.75374 0.25974 0.45924 0.06500
I 	I 	0.70347 0.12000 0.34215 -0.08900
I 	I 	0.82010 0.28512 0.43093 -0.10000
