data_crystal

_cell_length_a 45.49930
_cell_length_b 45.43567
_cell_length_c 34.42762
_cell_angle_alpha 90.00029
_cell_angle_beta  89.99470
_cell_angle_gamma 90.01058

_symmetry_space_group_name_	'P 1'
_symmetry_space_group_name_H-M	'P 1'

loop_
_symmetry_equiv_pos_as_xyz
  x,y,z

loop_
_atom_site_label
_atom_site_type_symbol
_atom_site_fract_x
_atom_site_fract_y
_atom_site_fract_z
_atom_site_charge
Zn	Zn	0.59588 0.07091 0.71967 1.20700
Zn	Zn	0.55134 0.03199 0.67335 1.22000
Zn	Zn	0.56221 0.12406 0.68425 1.22400
P 	P 	0.53266 0.07812 0.72918 0.30300
P 	P 	0.58695 0.07750 0.63614 0.30000
C 	C 	0.52712 0.16671 0.64851 0.26000
C 	C 	0.61110 0.12931 0.73931 0.27800
C 	C 	0.60011 0.00877 0.72155 0.28100
O 	O 	0.55990 0.06188 0.74830 -0.41600
O 	O 	0.61023 0.08396 0.66926 -0.42000
O 	O 	0.52598 0.06494 0.68707 -0.40500
O 	O 	0.55772 0.09597 0.64299 -0.42000
O 	O 	0.53835 0.11290 0.72802 -0.39300
O 	O 	0.58032 0.04297 0.63425 -0.38700
O 	O 	0.55013 0.16313 0.67094 -0.37800
O 	O 	0.48776 0.01438 0.67519 -0.20000
O 	O 	0.51092 0.14392 0.63890 -0.20000
O 	O 	0.60285 0.13432 0.70315 -0.40100
O 	O 	0.57124 0.01003 0.71729 -0.40000
O 	O 	0.61080 0.10233 0.75314 -0.39700
O 	O 	0.61583 0.03304 0.72103 -0.40200
C 	C 	0.50238 0.99751 0.65099 0.25900
O 	O 	0.53122 0.99894 0.64992 -0.37500
Zn	Zn	0.36931 0.87773 0.27296 1.20400
Zn	Zn	0.40870 0.89947 0.34016 1.21800
Zn	Zn	0.42405 0.88536 0.22007 1.22100
P 	P 	0.42440 0.84857 0.29026 0.30200
P 	P 	0.40124 0.93352 0.26872 0.30000
C 	C 	0.47879 0.89422 0.18455 0.25600
C 	C 	0.36559 0.86533 0.19226 0.28200
C 	C 	0.34549 0.88413 0.34832 0.28500
O 	O 	0.39039 0.84576 0.29938 -0.41300
O 	O 	0.37337 0.91731 0.25131 -0.41800
O 	O 	0.43718 0.87809 0.30893 -0.41500
O 	O 	0.43051 0.91624 0.25758 -0.41700
O 	O 	0.42926 0.84726 0.24420 -0.39300
O 	O 	0.39771 0.93641 0.31488 -0.38100
O 	O 	0.45173 0.88572 0.17728 -0.37300
O 	O 	0.38116 0.93335 0.40730 -0.20000
O 	O 	0.48632 0.90118 0.22021 -0.20100
O 	O 	0.38611 0.88585 0.18918 -0.39900
O 	O 	0.37253 0.87737 0.35914 -0.39900
O 	O 	0.35688 0.85627 0.22669 -0.40200
O 	O 	0.33911 0.88691 0.31130 -0.40100
C 	C 	0.40798 0.92501 0.41613 0.26700
O 	O 	0.42384 0.91054 0.39062 -0.37900
Zn	Zn	0.69403 0.86673 0.97354 1.20500
Zn	Zn	0.73462 0.82407 0.92649 1.21900
Zn	Zn	0.64228 0.83243 0.93584 1.22400
P 	P 	0.68833 0.80305 0.98070 0.30000
P 	P 	0.68866 0.85928 0.88962 0.30000
C 	C 	0.60110 0.79585 0.89971 0.26000
C 	C 	0.63513 0.88032 0.99235 0.27400
C 	C 	0.75591 0.87251 0.97660 0.28100
O 	O 	0.70361 0.83034 0.00110 -0.41300
O 	O 	0.68120 0.88178 0.92335 -0.42000
O 	O 	0.70227 0.79745 0.93871 -0.40300
O 	O 	0.67095 0.82939 0.89515 -0.42100
O 	O 	0.65349 0.80795 0.97894 -0.39400
O 	O 	0.72331 0.85361 0.88829 -0.38800
O 	O 	0.60380 0.81951 0.92122 -0.37800
O 	O 	0.75108 0.76041 0.91762 -0.19900
O 	O 	0.62427 0.77964 0.89200 -0.20000
O 	O 	0.63066 0.87248 0.95590 -0.40000
O 	O 	0.75532 0.84366 0.97162 -0.40200
O 	O 	0.66188 0.88020 0.00679 -0.39400
O 	O 	0.73131 0.88767 0.97651 -0.40200
C 	C 	0.76985 0.77714 0.89885 0.25800
O 	O 	0.76872 0.80585 0.90303 -0.37500
Zn	Zn	0.88743 0.64277 0.52095 1.20300
Zn	Zn	0.86137 0.67839 0.58870 1.21800
Zn	Zn	0.87759 0.69792 0.46994 1.22100
P 	P 	0.91232 0.69914 0.54209 0.30300
P 	P 	0.82997 0.67098 0.51519 0.30000
C 	C 	0.86686 0.75294 0.43534 0.25600
C 	C 	0.90201 0.64132 0.44093 0.28200
C 	C 	0.88158 0.61605 0.59468 0.28200
O 	O 	0.91712 0.66514 0.55000 -0.41200
O 	O 	0.84833 0.64466 0.49729 -0.41900
O 	O 	0.88177 0.70956 0.56045 -0.40600
O 	O 	0.84568 0.70158 0.50643 -0.41900
O 	O 	0.91434 0.70512 0.49628 -0.39600
O 	O 	0.82612 0.66577 0.56091 -0.38600
O 	O 	0.87685 0.72637 0.42802 -0.37300
O 	O 	0.88720 0.71869 0.64786 -0.20400
O 	O 	0.85799 0.75956 0.47058 -0.20000
O 	O 	0.88046 0.66071 0.43747 -0.39800
O 	O 	0.88533 0.64329 0.60726 -0.39900
O 	O 	0.91104 0.63301 0.47550 -0.40400
O 	O 	0.87957 0.61083 0.55725 -0.40300
C 	C 	0.86247 0.70770 0.66114 0.26100
O 	O 	0.84712 0.68951 0.63951 -0.37600
Zn	Zn	0.12562 0.16343 0.77067 1.20500
Zn	Zn	0.09125 0.13451 0.83831 1.21900
Zn	Zn	0.07174 0.14890 0.71895 1.22000
P 	P 	0.06754 0.18360 0.79130 0.30300
P 	P 	0.10200 0.10347 0.76500 0.30100
C 	C 	0.01740 0.13621 0.68362 0.25600
C 	C 	0.12663 0.17727 0.69036 0.28200
C 	C 	0.15221 0.15728 0.84417 0.28000
O 	O 	0.10093 0.19095 0.79988 -0.41200
O 	O 	0.12677 0.12420 0.74767 -0.42100
O 	O 	0.05925 0.15218 0.80895 -0.41000
O 	O 	0.07018 0.11588 0.75449 -0.41300
O 	O 	0.06192 0.18523 0.74542 -0.39500
O 	O 	0.10636 0.10021 0.81099 -0.38800
O 	O 	0.04370 0.14696 0.67662 -0.37400
O 	O 	0.05054 0.15965 0.89707 -0.20500
O 	O 	0.01095 0.12669 0.71862 -0.20100
O 	O 	0.10882 0.15438 0.68686 -0.39800
O 	O 	0.12489 0.16057 0.85645 -0.39900
O 	O 	0.13338 0.18755 0.72494 -0.40400
O 	O 	0.15802 0.15782 0.80683 -0.40000
C 	C 	0.06189 0.13513 0.91058 0.26100
O 	O 	0.08057 0.12014 0.88924 -0.37600
Zn	Zn	0.89981 0.96896 0.22441 1.20600
Zn	Zn	0.94315 0.00839 0.17645 1.21900
Zn	Zn	0.93322 0.91615 0.18772 1.22400
P 	P 	0.96333 0.96235 0.23158 0.30200
P 	P 	0.90712 0.96255 0.14060 0.30000
C 	C 	0.96725 0.87371 0.14970 0.26000
C 	C 	0.88535 0.91046 0.24444 0.27800
C 	C 	0.89512 0.03105 0.22603 0.28100
O 	O 	0.93630 0.97827 0.25167 -0.41600
O 	O 	0.88455 0.95582 0.17449 -0.42000
O 	O 	0.96911 0.97567 0.18929 -0.40300
O 	O 	0.93663 0.94432 0.14635 -0.41900
O 	O 	0.95797 0.92751 0.23054 -0.39300
O 	O 	0.91341 0.99713 0.13859 -0.38800
O 	O 	0.94526 0.87714 0.17389 -0.37800
O 	O 	0.00702 0.02312 0.16620 -0.19800
O 	O 	0.98281 0.89662 0.13879 -0.19900
O 	O 	0.89303 0.90552 0.20804 -0.40100
O 	O 	0.92393 0.02992 0.22115 -0.40100
O 	O 	0.88586 0.93740 0.25837 -0.39700
O 	O 	0.87958 0.00667 0.22655 -0.40200
C 	C 	0.99064 0.04229 0.14760 0.25700
O 	O 	0.96198 0.04193 0.15227 -0.37500
Zn	Zn	0.10508 0.89941 0.52431 1.20500
Zn	Zn	0.13307 0.86008 0.58807 1.21800
Zn	Zn	0.11921 0.84843 0.46685 1.22000
P 	P 	0.08380 0.84051 0.53797 0.30100
P 	P 	0.16471 0.87493 0.51672 0.30200
C 	C 	0.14178 0.80376 0.41769 0.25500
C 	C 	0.09190 0.90521 0.44411 0.28200
C 	C 	0.11129 0.92102 0.60062 0.28400
O 	O 	0.07687 0.87339 0.55017 -0.41300
O 	O 	0.14454 0.90120 0.50233 -0.41900
O 	O 	0.11500 0.83072 0.55471 -0.42100
O 	O 	0.15172 0.84410 0.50269 -0.41100
O 	O 	0.08238 0.83779 0.49161 -0.39500
O 	O 	0.16805 0.87610 0.56306 -0.38200
O 	O 	0.12085 0.82355 0.42102 -0.37400
O 	O 	0.16429 0.88838 0.65702 -0.20000
O 	O 	0.16293 0.80274 0.44358 -0.19900
O 	O 	0.11484 0.88767 0.43943 -0.39900
O 	O 	0.10753 0.89302 0.60984 -0.39900
O 	O 	0.08166 0.91063 0.47912 -0.40200
O 	O 	0.11101 0.92923 0.56409 -0.40000
C 	C 	0.15877 0.86051 0.66400 0.26700
O 	O 	0.14621 0.84416 0.63727 -0.38000
Zn	Zn	0.30491 0.67373 0.97189 1.20600
Zn	Zn	0.26626 0.71726 0.92312 1.22000
Zn	Zn	0.35812 0.70542 0.93405 1.22300
P 	P 	0.31282 0.73714 0.97752 0.30100
P 	P 	0.31104 0.67977 0.88775 0.30000
C 	C 	0.40113 0.73841 0.89554 0.26000
C 	C 	0.36312 0.65790 0.99152 0.27400
C 	C 	0.24281 0.67009 0.97378 0.28100
O 	O 	0.29631 0.71077 0.99833 -0.41600
O 	O 	0.31731 0.65750 0.92217 -0.42000
O 	O 	0.29962 0.74254 0.93511 -0.40600
O 	O 	0.33001 0.70894 0.89267 -0.41900
O 	O 	0.34746 0.73089 0.97653 -0.39400
O 	O 	0.27666 0.68688 0.88569 -0.38800
O 	O 	0.39727 0.71656 0.91989 -0.37800
O 	O 	0.24880 0.78100 0.92302 -0.20000
O 	O 	0.37854 0.75424 0.88428 -0.20000
O 	O 	0.36802 0.66516 0.95496 -0.40000
O 	O 	0.24434 0.69885 0.96820 -0.40000
O 	O 	0.33638 0.65955 0.00586 -0.39400
O 	O 	0.26692 0.65419 0.97482 -0.40200
C 	C 	0.23209 0.76601 0.89903 0.25800
O 	O 	0.23343 0.73711 0.89881 -0.37500
Zn	Zn	0.19249 0.36917 0.47230 1.20600
Zn	Zn	0.23087 0.32571 0.42335 1.22000
Zn	Zn	0.13900 0.33806 0.43400 1.22400
P 	P 	0.18400 0.30569 0.47720 0.30200
P 	P 	0.18636 0.36380 0.38824 0.30000
C 	C 	0.09581 0.30421 0.39727 0.26000
C 	C 	0.13442 0.38487 0.49247 0.27900
C 	C 	0.25454 0.37215 0.47485 0.28100
O 	O 	0.20060 0.33184 0.49838 -0.41600
O 	O 	0.18005 0.38584 0.42288 -0.42000
O 	O 	0.19737 0.30042 0.43483 -0.40400
O 	O 	0.16720 0.33470 0.39267 -0.41900
O 	O 	0.14941 0.31215 0.47604 -0.39300
O 	O 	0.22071 0.35652 0.38640 -0.38800
O 	O 	0.09981 0.32718 0.41971 -0.37800
O 	O 	0.24453 0.26156 0.41322 -0.19900
O 	O 	0.11833 0.28780 0.38727 -0.19900
O 	O 	0.12938 0.37812 0.45578 -0.40000
O 	O 	0.25268 0.34346 0.46891 -0.40100
O 	O 	0.16125 0.38336 0.50649 -0.39700
O 	O 	0.23064 0.38836 0.47548 -0.40200
C 	C 	0.26398 0.27761 0.39463 0.25800
O 	O 	0.26396 0.30634 0.39897 -0.37500
Zn	Zn	0.39190 0.13850 0.02447 1.20400
Zn	Zn	0.36058 0.17275 0.08985 1.21800
Zn	Zn	0.37547 0.19059 0.97036 1.22000
P 	P 	0.40919 0.19785 0.04296 0.30500
P 	P 	0.33108 0.15919 0.01662 0.30200
C 	C 	0.36063 0.24370 0.93315 0.25600
C 	C 	0.40620 0.13634 0.94427 0.28200
C 	C 	0.38772 0.11321 0.09916 0.28100
O 	O 	0.41799 0.16503 0.05305 -0.41200
O 	O 	0.35303 0.13484 0.00100 -0.42000
O 	O 	0.37731 0.20507 0.05989 -0.40900
O 	O 	0.34242 0.19133 0.00558 -0.41500
O 	O 	0.41104 0.20241 0.99689 -0.39800
O 	O 	0.32713 0.15563 0.06261 -0.38600
O 	O 	0.37274 0.21783 0.92715 -0.37400
O 	O 	0.38460 0.21409 0.14847 -0.20500
O 	O 	0.34973 0.24996 0.96749 -0.20200
O 	O 	0.38263 0.15308 0.93985 -0.39800
O 	O 	0.38812 0.14105 0.11038 -0.39800
O 	O 	0.41664 0.13096 0.97919 -0.40400
O 	O 	0.38795 0.10669 0.06199 -0.40100
C 	C 	0.35980 0.20298 0.16140 0.26100
O 	O 	0.34518 0.18405 0.13999 -0.37500
Zn	Zn	0.62463 0.66060 0.27192 1.20400
Zn	Zn	0.59057 0.62902 0.33719 1.21800
Zn	Zn	0.57348 0.64325 0.21726 1.22000
P 	P 	0.56506 0.67703 0.28971 0.30300
P 	P 	0.60510 0.59939 0.26424 0.30000
C 	C 	0.52075 0.62810 0.17944 0.25600
C 	C 	0.62748 0.67482 0.19181 0.28200
C 	C 	0.64963 0.65693 0.34673 0.28100
O 	O 	0.59761 0.68636 0.30021 -0.41200
O 	O 	0.62912 0.62170 0.24863 -0.42100
O 	O 	0.55826 0.64502 0.30664 -0.41000
O 	O 	0.57293 0.61010 0.25250 -0.41500
O 	O 	0.56085 0.67871 0.24357 -0.39600
O 	O 	0.60838 0.59581 0.31033 -0.38700
O 	O 	0.54665 0.64016 0.17370 -0.37400
O 	O 	0.54823 0.65233 0.39511 -0.20500
O 	O 	0.51423 0.61728 0.21375 -0.20100
O 	O 	0.61104 0.65104 0.18706 -0.39700
O 	O 	0.62179 0.65707 0.35779 -0.39900
O 	O 	0.63210 0.68548 0.22679 -0.40400
O 	O 	0.65626 0.65720 0.30962 -0.40200
C 	C 	0.56001 0.62798 0.40851 0.26100
O 	O 	0.57928 0.61361 0.38736 -0.37500
Zn	Zn	0.40228 0.46142 0.72655 1.20600
Zn	Zn	0.44450 0.50128 0.67729 1.22000
Zn	Zn	0.43477 0.40901 0.68783 1.22400
P 	P 	0.46587 0.45485 0.73105 0.30200
P 	P 	0.40774 0.45572 0.64232 0.30000
C 	C 	0.46963 0.36709 0.65026 0.26000
C 	C 	0.38794 0.40269 0.74603 0.27800
C 	C 	0.39749 0.52352 0.72885 0.28100
O 	O 	0.43938 0.47069 0.75245 -0.41500
O 	O 	0.38590 0.44877 0.67697 -0.42000
O 	O 	0.47066 0.46843 0.68869 -0.40300
O 	O 	0.43735 0.43745 0.64674 -0.42000
O 	O 	0.46035 0.42004 0.72990 -0.39300
O 	O 	0.41398 0.49031 0.64043 -0.38800
O 	O 	0.44677 0.37022 0.67307 -0.37800
O 	O 	0.50816 0.51635 0.66573 -0.19900
O 	O 	0.48569 0.39008 0.64110 -0.19900
O 	O 	0.39501 0.39805 0.70935 -0.40000
O 	O 	0.42618 0.52247 0.72294 -0.40100
O 	O 	0.38912 0.42945 0.76051 -0.39700
O 	O 	0.38204 0.49909 0.73012 -0.40100
C 	C 	0.49145 0.53538 0.64740 0.25700
O 	O 	0.46287 0.53496 0.65282 -0.37500
Zn	Zn	0.80064 0.17364 0.47521 1.20600
Zn	Zn	0.76130 0.21741 0.42787 1.22000
Zn	Zn	0.85336 0.20726 0.43887 1.22400
P 	P 	0.80726 0.23702 0.48321 0.30300
P 	P 	0.80694 0.18169 0.39137 0.30000
C 	C 	0.89545 0.24410 0.40524 0.26000
C 	C 	0.85919 0.15879 0.49466 0.27800
C 	C 	0.73861 0.16869 0.47653 0.28100
O 	O 	0.79116 0.20995 0.50299 -0.41500
O 	O 	0.81359 0.15879 0.42494 -0.42000
O 	O 	0.79410 0.24309 0.44095 -0.40500
O 	O 	0.82529 0.21113 0.39752 -0.42000
O 	O 	0.84200 0.23140 0.48228 -0.39400
O 	O 	0.77243 0.18811 0.38938 -0.38800
O 	O 	0.89221 0.21986 0.42545 -0.37800
O 	O 	0.74349 0.28109 0.42790 -0.19900
O 	O 	0.87252 0.26071 0.39771 -0.20000
O 	O 	0.86406 0.16683 0.45837 -0.40000
O 	O 	0.73961 0.19759 0.47209 -0.40000
O 	O 	0.83235 0.15945 0.50882 -0.39700
O 	O 	0.76304 0.15326 0.47717 -0.40100
C 	C 	0.72678 0.26596 0.40407 0.25800
O 	O 	0.72814 0.23707 0.40411 -0.37500
Zn	Zn	0.60806 0.39394 0.02231 1.20500
Zn	Zn	0.63189 0.35493 0.08871 1.21800
Zn	Zn	0.61568 0.33959 0.96904 1.22100
P 	P 	0.58033 0.33846 0.04057 0.30300
P 	P 	0.66431 0.36306 0.01616 0.30300
C 	C 	0.62272 0.28443 0.93392 0.25600
C 	C 	0.59448 0.39797 0.94204 0.28200
C 	C 	0.61601 0.41807 0.09713 0.28500
O 	O 	0.57713 0.37241 0.05007 -0.41300
O 	O 	0.64722 0.39067 0.99946 -0.42100
O 	O 	0.61038 0.32611 0.05808 -0.41500
O 	O 	0.64745 0.33345 0.00531 -0.41500
O 	O 	0.57820 0.33381 0.99452 -0.39500
O 	O 	0.66810 0.36644 0.06224 -0.38100
O 	O 	0.61547 0.31183 0.92633 -0.37300
O 	O 	0.66534 0.38340 0.15562 -0.20000
O 	O 	0.62861 0.27666 0.96983 -0.20200
O 	O 	0.61504 0.37758 0.93807 -0.39900
O 	O 	0.60980 0.39094 0.10835 -0.39900
O 	O 	0.58552 0.40592 0.97681 -0.40500
O 	O 	0.61749 0.42445 0.05999 -0.40100
C 	C 	0.65780 0.35631 0.16445 0.26800
O 	O 	0.64403 0.33993 0.13883 -0.37900
Zn	Zn	0.09499 0.58172 0.22152 1.20600
Zn	Zn	0.05272 0.54029 0.17469 1.22000
Zn	Zn	0.06162 0.63285 0.18075 1.22400
P 	P 	0.03136 0.58793 0.22669 0.30200
P 	P 	0.08870 0.58522 0.13704 0.30000
C 	C 	0.02577 0.67388 0.14285 0.26100
C 	C 	0.10895 0.64107 0.23774 0.27800
C 	C 	0.10029 0.51977 0.22669 0.28100
O 	O 	0.05819 0.57292 0.24839 -0.41500
O 	O 	0.11076 0.59311 0.17109 -0.42000
O 	O 	0.02632 0.57315 0.18507 -0.40300
O 	O 	0.05894 0.60332 0.14108 -0.42100
O 	O 	0.03655 0.62273 0.22378 -0.39300
O 	O 	0.08272 0.55055 0.13668 -0.38700
O 	O 	0.04928 0.67123 0.16459 -0.37800
O 	O 	0.98912 0.52391 0.16588 -0.19900
O 	O 	0.00957 0.65068 0.13518 -0.19900
O 	O 	0.10152 0.64453 0.20096 -0.40100
O 	O 	0.07156 0.52049 0.22104 -0.40100
O 	O 	0.10821 0.61476 0.25362 -0.39700
O 	O 	0.11558 0.54432 0.22662 -0.40100
C 	C 	0.00581 0.50473 0.14779 0.25800
O 	O 	0.03447 0.50578 0.15219 -0.37500
Zn	Zn	0.87101 0.37833 0.77510 1.20300
Zn	Zn	0.90652 0.40671 0.84093 1.21700
Zn	Zn	0.92516 0.38798 0.72276 1.22100
P 	P 	0.92771 0.35480 0.79621 0.30300
P 	P 	0.89801 0.43626 0.76636 0.30000
C 	C 	0.97976 0.39846 0.68736 0.25600
C 	C 	0.86844 0.36260 0.69563 0.28200
C 	C 	0.84474 0.38474 0.84886 0.28300
O 	O 	0.89395 0.34963 0.80496 -0.41200
O 	O 	0.87182 0.41694 0.75001 -0.42000
O 	O 	0.93778 0.38598 0.81319 -0.40500
O 	O 	0.92868 0.42068 0.75796 -0.42100
O 	O 	0.93318 0.35186 0.75036 -0.39500
O 	O 	0.89326 0.44135 0.81195 -0.38400
O 	O 	0.95319 0.38843 0.68043 -0.37300
O 	O 	0.94726 0.38251 0.90067 -0.20300
O 	O 	0.98677 0.40704 0.72259 -0.20000
O 	O 	0.88776 0.38409 0.69096 -0.39700
O 	O 	0.87216 0.38243 0.86126 -0.39900
O 	O 	0.86134 0.35361 0.73068 -0.40500
O 	O 	0.83927 0.38631 0.81148 -0.40400
C 	C 	0.93628 0.40755 0.91303 0.26100
O 	O 	0.91790 0.42230 0.89097 -0.37600
C 	C 	0.96143 0.44167 0.02039 0.11300
N 	N 	0.93779 0.45288 0.00141 -0.05600
N 	N 	0.92964 0.44185 0.96719 -0.04700
C 	C 	0.94477 0.41916 0.95114 0.07100
N 	N 	0.96813 0.40764 0.97039 -0.04700
N 	N 	0.97645 0.41885 0.00444 -0.05500
C 	C 	0.99295 0.48525 0.11837 0.07000
N 	N 	0.01000 0.46515 0.09983 -0.04600
N 	N 	0.99951 0.45030 0.06946 -0.05700
C 	C 	0.97176 0.45535 0.05654 0.11300
N 	N 	0.95447 0.47488 0.07571 -0.05600
N 	N 	0.96488 0.48955 0.10627 -0.04600
C 	C 	0.74920 0.36572 0.95024 0.11200
N 	N 	0.72792 0.34612 0.94051 -0.05800
N 	N 	0.70343 0.34419 0.96154 -0.06200
C 	C 	0.69945 0.36182 0.99288 0.08800
N 	N 	0.72089 0.38111 0.00308 -0.04700
N 	N 	0.74554 0.38292 0.98217 -0.05700
C 	C 	0.82033 0.37909 0.87572 0.06200
N 	N 	0.82260 0.38625 0.91392 -0.04800
N 	N 	0.79988 0.38205 0.93783 -0.05800
C 	C 	0.77445 0.37020 0.92425 0.11300
N 	N 	0.77236 0.36277 0.88618 -0.05800
N 	N 	0.79487 0.36737 0.86221 -0.04500
C 	C 	0.82376 0.32713 0.60092 0.11300
N 	N 	0.81456 0.32152 0.63768 -0.05700
N 	N 	0.82838 0.33353 0.66787 -0.04500
C 	C 	0.85180 0.35153 0.66221 0.06100
N 	N 	0.86042 0.35798 0.62544 -0.04600
N 	N 	0.84663 0.34589 0.59520 -0.05700
C 	C 	0.80236 0.26892 0.51273 0.09500
N 	N 	0.81801 0.29359 0.50456 -0.04900
N 	N 	0.82296 0.31363 0.53205 -0.05500
C 	C 	0.81219 0.30965 0.56843 0.11300
N 	N 	0.79435 0.28631 0.57558 -0.05600
N 	N 	0.78960 0.26617 0.54815 -0.05100
C 	C 	0.67833 0.32105 0.27292 0.11300
N 	N 	0.66312 0.30493 0.24652 -0.05700
N 	N 	0.65637 0.31633 0.21202 -0.04600
C 	C 	0.66468 0.34417 0.20287 0.06900
N 	N 	0.67959 0.36046 0.22941 -0.04500
N 	N 	0.68636 0.34905 0.26396 -0.05600
C 	C 	0.71041 0.28120 0.37337 0.07000
N 	N 	0.71458 0.31045 0.36733 -0.04600
N 	N 	0.70344 0.32346 0.33591 -0.05600
C 	C 	0.68776 0.30760 0.30968 0.11300
N 	N 	0.68272 0.27859 0.31643 -0.05700
N 	N 	0.69396 0.26556 0.34776 -0.04600
C 	C 	0.54044 0.45105 0.81350 0.11300
N 	N 	0.54314 0.43874 0.77776 -0.05600
N 	N 	0.52251 0.44311 0.75091 -0.04900
C 	C 	0.49851 0.45973 0.75909 0.09400
N 	N 	0.49700 0.47387 0.79373 -0.05200
N 	N 	0.51772 0.46969 0.82051 -0.05700
C 	C 	0.58386 0.41417 0.90796 0.06000
N 	N 	0.56684 0.43843 0.91272 -0.04500
N 	N 	0.55443 0.45138 0.88214 -0.05800
C 	C 	0.55862 0.44043 0.84589 0.11300
N 	N 	0.57653 0.41678 0.84098 -0.05700
N 	N 	0.58900 0.40384 0.87159 -0.04600
C 	C 	0.61729 0.51409 0.20062 0.11100
N 	N 	0.59558 0.51685 0.22748 -0.05700
N 	N 	0.59265 0.54180 0.24757 -0.05200
C 	C 	0.61145 0.56454 0.24152 0.08800
N 	N 	0.63345 0.56157 0.21526 -0.05300
N 	N 	0.63634 0.53672 0.19509 -0.05700
C 	C 	0.61821 0.44186 0.12576 0.06500
N 	N 	0.63385 0.46645 0.11719 -0.04400
N 	N 	0.63420 0.48913 0.14168 -0.05700
C 	C 	0.61859 0.48809 0.17523 0.11400
N 	N 	0.60316 0.46336 0.18407 -0.05700
N 	N 	0.60312 0.44047 0.15975 -0.04400
C 	C 	0.52477 0.58224 0.55336 0.11300
N 	N 	0.49723 0.58781 0.56663 -0.05700
N 	N 	0.48698 0.57376 0.59781 -0.04600
C 	C 	0.50408 0.55395 0.61680 0.07000
N 	N 	0.53195 0.54909 0.60425 -0.04600
N 	N 	0.54212 0.56297 0.57291 -0.05700
C 	C 	0.55144 0.61673 0.44680 0.07100
N 	N 	0.56680 0.59450 0.46357 -0.04500
N 	N 	0.55870 0.58397 0.49808 -0.05700
C 	C 	0.53491 0.59524 0.51667 0.11300
N 	N 	0.51965 0.61759 0.49998 -0.05700
N 	N 	0.52789 0.62828 0.46562 -0.04600
C 	C 	0.47934 0.26165 0.07628 0.11400
N 	N 	0.45154 0.27126 0.06955 -0.05500
N 	N 	0.42989 0.25205 0.06333 -0.05000
C 	C 	0.43538 0.22269 0.06371 0.09600
N 	N 	0.46287 0.21306 0.07219 -0.05000
N 	N 	0.48451 0.23225 0.07858 -0.05600
C 	C 	0.55040 0.31834 0.06144 0.09000
N 	N 	0.55480 0.29041 0.07414 -0.05400
N 	N 	0.53199 0.27278 0.08121 -0.05700
C 	C 	0.50410 0.28255 0.07566 0.11300
N 	N 	0.49969 0.31092 0.06464 -0.05600
N 	N 	0.52252 0.32851 0.05747 -0.05000
C 	C 	0.36753 0.33308 0.81999 0.11300
N 	N 	0.36097 0.36117 0.83029 -0.05800
N 	N 	0.36652 0.38335 0.80605 -0.04400
C 	C 	0.37848 0.37806 0.77062 0.05900
N 	N 	0.38438 0.34991 0.75991 -0.04800
N 	N 	0.37905 0.32772 0.78428 -0.05800
C 	C 	0.36063 0.26616 0.90247 0.07100
N 	N 	0.37376 0.26082 0.86774 -0.04600
N 	N 	0.37527 0.28195 0.84091 -0.05700
C 	C 	0.36374 0.30900 0.84810 0.11200
N 	N 	0.35025 0.31415 0.88260 -0.05700
N 	N 	0.34869 0.29303 0.90936 -0.04600
C 	C 	0.97967 0.26959 0.37316 0.11300
N 	N 	0.97382 0.24098 0.38143 -0.05600
N 	N 	0.94664 0.23265 0.39058 -0.04500
C 	C 	0.92452 0.25264 0.39137 0.07100
N 	N 	0.93007 0.28096 0.38131 -0.04500
N 	N 	0.95731 0.28937 0.37256 -0.05600
C 	C 	0.06621 0.29629 0.38480 0.07100
N 	N 	0.04417 0.31631 0.38703 -0.04500
N 	N 	0.01652 0.30821 0.38032 -0.05600
C 	C 	0.01012 0.27979 0.37162 0.11300
N 	N 	0.03233 0.26005 0.36779 -0.05600
N 	N 	0.06003 0.26824 0.37408 -0.04500
C 	C 	0.33083 0.40960 0.51921 0.11300
N 	N 	0.32875 0.37991 0.51525 -0.05800
N 	N 	0.30488 0.36789 0.49937 -0.04500
C 	C 	0.28242 0.38522 0.48716 0.05900
N 	N 	0.28505 0.41490 0.48963 -0.04500
N 	N 	0.30892 0.42692 0.50539 -0.05800
C 	C 	0.39013 0.44396 0.59879 0.09000
N 	N 	0.37061 0.46191 0.58081 -0.05000
N 	N 	0.35297 0.45135 0.55326 -0.05700
C 	C 	0.35416 0.42247 0.54322 0.11200
N 	N 	0.37459 0.40484 0.56005 -0.05800
N 	N 	0.39230 0.41545 0.58749 -0.06200
C 	C 	0.31206 0.24142 0.30359 0.11300
N 	N 	0.29190 0.22490 0.32281 -0.05600
N 	N 	0.27755 0.23600 0.35320 -0.04600
C 	C 	0.28281 0.26400 0.36508 0.07100
N 	N 	0.30348 0.28029 0.34644 -0.04600
N 	N 	0.31800 0.26910 0.31623 -0.05700
C 	C 	0.34820 0.21218 0.19922 0.07100
N 	N 	0.36002 0.23565 0.21798 -0.04600
N 	N 	0.34882 0.24467 0.25170 -0.05700
C 	C 	0.32567 0.23030 0.26781 0.11300
N 	N 	0.31414 0.20654 0.24934 -0.05700
N 	N 	0.32519 0.19767 0.21545 -0.04500
C 	C 	0.06603 0.40063 0.56988 0.11300
N 	N 	0.06026 0.38982 0.53390 -0.05800
N 	N 	0.08196 0.38626 0.50828 -0.04900
C 	C 	0.11003 0.39330 0.51798 0.05800
N 	N 	0.11565 0.40477 0.55361 -0.04400
N 	N 	0.09395 0.40852 0.57911 -0.05700
C 	C 	0.00161 0.40021 0.65609 0.07200
N 	N 	0.02852 0.41190 0.66323 -0.04600
N 	N 	0.04881 0.41269 0.63538 -0.05700
C 	C 	0.04280 0.40185 0.59952 0.11200
N 	N 	0.01574 0.39046 0.59218 -0.05700
N 	N 	0.99540 0.38970 0.62008 -0.04600
C 	C 	0.15355 0.41987 0.29157 0.11200
N 	N 	0.13646 0.39793 0.30589 -0.05800
N 	N 	0.14717 0.37930 0.33220 -0.06200
C 	C 	0.17528 0.38203 0.34483 0.09000
N 	N 	0.19281 0.40301 0.32907 -0.05000
N 	N 	0.18213 0.42160 0.30268 -0.05600
C 	C 	0.11442 0.49246 0.23938 0.06000
N 	N 	0.14401 0.49144 0.24406 -0.04400
N 	N 	0.15674 0.46752 0.25877 -0.05800
C 	C 	0.14024 0.44393 0.26923 0.11300
N 	N 	0.11073 0.44458 0.26330 -0.05800
N 	N 	0.09800 0.46849 0.24849 -0.04500
C 	C 	0.16619 0.63119 0.01505 0.11300
N 	N 	0.16782 0.66092 0.01119 -0.05700
N 	N 	0.19185 0.67340 0.99636 -0.04600
C 	C 	0.21492 0.65650 0.98511 0.05900
N 	N 	0.21278 0.62677 0.98746 -0.04600
N 	N 	0.18876 0.61429 0.00219 -0.05700
C 	C 	0.10600 0.59622 0.09294 0.09000
N 	N 	0.12656 0.57863 0.07642 -0.05000
N 	N 	0.14449 0.58926 0.04922 -0.05600
C 	C 	0.14255 0.61788 0.03812 0.11200
N 	N 	0.12099 0.63503 0.05326 -0.05800
N 	N 	0.10299 0.62434 0.08031 -0.06200
C 	C 	0.43205 0.63606 0.06568 0.11300
N 	N 	0.43770 0.64751 0.03001 -0.05700
N 	N 	0.41571 0.65328 0.00556 -0.04800
C 	C 	0.38746 0.64789 0.01616 0.06200
N 	N 	0.38188 0.63598 0.05155 -0.04400
N 	N 	0.40386 0.63000 0.07587 -0.05700
C 	C 	0.49847 0.62826 0.14858 0.07200
N 	N 	0.47146 0.61664 0.15529 -0.04600
N 	N 	0.45050 0.61846 0.12839 -0.05700
C 	C 	0.45595 0.63189 0.09392 0.11300
N 	N 	0.48314 0.64307 0.08689 -0.05700
N 	N 	0.50411 0.64131 0.11387 -0.04600
C 	C 	0.35786 0.60034 0.76860 0.11200
N 	N 	0.38749 0.59917 0.76389 -0.05800
N 	N 	0.40016 0.57498 0.74976 -0.04500
C 	C 	0.38355 0.55126 0.74015 0.05900
N 	N 	0.35388 0.55285 0.74347 -0.04500
N 	N 	0.34121 0.57704 0.75746 -0.05800
C 	C 	0.32248 0.66197 0.84420 0.09000
N 	N 	0.30491 0.64144 0.82755 -0.05000
N 	N 	0.31572 0.62303 0.80104 -0.05700
C 	C 	0.34449 0.62448 0.79072 0.11200
N 	N 	0.36165 0.64604 0.80589 -0.05800
N 	N 	0.35079 0.66450 0.83230 -0.06200
C 	C 	0.13016 0.71283 0.30754 0.11300
N 	N 	0.13906 0.68535 0.31760 -0.05800
N 	N 	0.13305 0.66248 0.29469 -0.04400
C 	C 	0.11840 0.66652 0.26077 0.05900
N 	N 	0.11011 0.69410 0.25025 -0.04900
N 	N 	0.11578 0.71693 0.27341 -0.05800
C 	C 	0.14019 0.78120 0.38725 0.07100
N 	N 	0.12015 0.78343 0.35816 -0.04600
N 	N 	0.11757 0.76199 0.33193 -0.05800
C 	C 	0.13475 0.73760 0.33428 0.11200
N 	N 	0.15497 0.73554 0.36313 -0.05700
N 	N 	0.15776 0.75710 0.38910 -0.04700
C 	C 	0.18184 0.82274 0.77012 0.11300
N 	N 	0.18821 0.85143 0.76283 -0.05600
N 	N 	0.18063 0.86363 0.72905 -0.04500
C 	C 	0.16656 0.84745 0.70160 0.06900
N 	N 	0.15994 0.81887 0.70906 -0.04600
N 	N 	0.16748 0.80669 0.74281 -0.05800
C 	C 	0.21550 0.78144 0.86868 0.07000
N 	N 	0.19950 0.76593 0.84245 -0.04600
N 	N 	0.18784 0.77934 0.81168 -0.05800
C 	C 	0.19198 0.80864 0.80613 0.11300
N 	N 	0.20728 0.82433 0.83294 -0.05600
N 	N 	0.21886 0.81092 0.86378 -0.04600
C 	C 	0.98949 0.78897 0.11548 0.11300
N 	N 	0.00904 0.81131 0.11117 -0.05600
N 	N 	0.00152 0.83873 0.12057 -0.04500
C 	C 	0.97438 0.84446 0.13499 0.07100
N 	N 	0.95445 0.82236 0.13778 -0.04500
N 	N 	0.96186 0.79501 0.12798 -0.05600
C 	C 	0.01705 0.70282 0.12860 0.07100
N 	N 	0.98839 0.70865 0.12096 -0.04500
N 	N 	0.97975 0.73614 0.11388 -0.05600
C 	C 	0.99960 0.75846 0.11379 0.11300
N 	N 	0.02850 0.75228 0.11910 -0.05600
N 	N 	0.03708 0.72487 0.12665 -0.04500
C 	C 	0.85506 0.10693 0.26780 0.11300
N 	N 	0.88478 0.10574 0.26412 -0.05800
N 	N 	0.89762 0.08197 0.24908 -0.04500
C 	C 	0.88111 0.05871 0.23744 0.05900
N 	N 	0.85138 0.06044 0.23953 -0.04500
N 	N 	0.83854 0.08421 0.25446 -0.05800
C 	C 	0.81888 0.16525 0.34714 0.09000
N 	N 	0.80154 0.14524 0.32903 -0.05000
N 	N 	0.81261 0.12799 0.30137 -0.05600
C 	C 	0.84140 0.13009 0.29134 0.11200
N 	N 	0.85832 0.15116 0.30810 -0.05800
N 	N 	0.84721 0.16846 0.33566 -0.06200
C 	C 	0.03602 0.95876 0.31695 0.11300
N 	N 	0.01256 0.97649 0.32377 -0.05600
N 	N 	0.99239 0.98074 0.29627 -0.05200
C 	C 	0.99517 0.96752 0.26113 0.09400
N 	N 	0.01984 0.95181 0.25331 -0.04900
N 	N 	0.03996 0.94744 0.28084 -0.05600
C 	C 	0.08001 0.92150 0.41084 0.06100
N 	N 	0.08736 0.91374 0.37402 -0.04600
N 	N 	0.07444 0.92680 0.34382 -0.05700
C 	C 	0.05391 0.94808 0.34961 0.11300
N 	N 	0.04732 0.95647 0.38644 -0.05700
N 	N 	0.06015 0.94335 0.41660 -0.04500
C 	C 	0.98618 0.28054 0.83013 0.11300
N 	N 	0.95698 0.27577 0.82484 -0.05600
N 	N 	0.93880 0.29832 0.81879 -0.05000
C 	C 	0.94922 0.32631 0.81816 0.09600
N 	N 	0.97811 0.33117 0.82564 -0.05000
N 	N 	0.99633 0.30863 0.83157 -0.05500
C 	C 	0.04451 0.21107 0.81290 0.09600
N 	N 	0.05479 0.23887 0.81770 -0.05000
N 	N 	0.03634 0.26086 0.82567 -0.05600
C 	C 	0.00701 0.25571 0.82871 0.11400
N 	N 	0.99689 0.22769 0.82542 -0.05500
N 	N 	0.01538 0.20571 0.81757 -0.05000
C 	C 	0.92851 0.14009 0.56964 0.11300
N 	N 	0.93392 0.15134 0.53380 -0.05800
N 	N 	0.91187 0.15604 0.50905 -0.04800
C 	C 	0.88378 0.14971 0.51951 0.05900
N 	N 	0.87846 0.13793 0.55505 -0.04400
N 	N 	0.90051 0.13306 0.57968 -0.05700
C 	C 	0.99493 0.13569 0.65302 0.07100
N 	N 	0.96790 0.12441 0.66055 -0.04600
N 	N 	0.94693 0.12519 0.63357 -0.05700
C 	C 	0.95237 0.13723 0.59822 0.11200
N 	N 	0.97955 0.14816 0.59045 -0.05700
N 	N 	0.00055 0.14740 0.61748 -0.04600
C 	C 	0.11120 0.01627 0.70482 0.11100
N 	N 	0.13403 0.03550 0.70574 -0.05700
N 	N 	0.13158 0.06094 0.72470 -0.05100
C 	C 	0.10619 0.06797 0.74312 0.08800
N 	N 	0.08347 0.04860 0.74277 -0.05400
N 	N 	0.08595 0.02305 0.72393 -0.05700
C 	C 	0.11359 0.94342 0.63105 0.06500
N 	N 	0.09322 0.94488 0.65983 -0.04500
N 	N 	0.09279 0.96783 0.68404 -0.05700
C 	C 	0.11291 0.98977 0.68032 0.11500
N 	N 	0.13376 0.98781 0.65226 -0.05600
N 	N 	0.13391 0.96513 0.62775 -0.04500
C 	C 	0.03611 0.10280 0.01865 0.11300
N 	N 	0.05981 0.09122 0.00019 -0.05600
N 	N 	0.06820 0.10171 0.96578 -0.04700
C 	C 	0.05325 0.12421 0.94899 0.07100
N 	N 	0.02984 0.13611 0.96772 -0.04700
N 	N 	0.02129 0.12546 0.00198 -0.05500
C 	C 	0.00378 0.06103 0.11756 0.07100
N 	N 	0.98707 0.08113 0.09851 -0.04600
N 	N 	0.99782 0.09537 0.06778 -0.05700
C 	C 	0.02549 0.08970 0.05503 0.11300
N 	N 	0.04245 0.07015 0.07468 -0.05600
N 	N 	0.03178 0.05609 0.10558 -0.04600
C 	C 	0.17846 0.23192 0.56095 0.11300
N 	N 	0.16553 0.22938 0.52558 -0.05500
N 	N 	0.17030 0.24963 0.49828 -0.04900
C 	C 	0.18799 0.27304 0.50562 0.09500
N 	N 	0.20266 0.27431 0.53989 -0.05200
N 	N 	0.19803 0.25400 0.56713 -0.05600
C 	C 	0.14216 0.18874 0.65621 0.06100
N 	N 	0.16552 0.20698 0.66087 -0.04500
N 	N 	0.17821 0.21947 0.63015 -0.05700
C 	C 	0.16785 0.21419 0.59384 0.11300
N 	N 	0.14498 0.19527 0.58908 -0.05700
N 	N 	0.13237 0.18265 0.61984 -0.04600
C 	C 	0.22204 0.15225 0.92240 0.11300
N 	N 	0.22487 0.14165 0.88575 -0.05800
N 	N 	0.20252 0.14328 0.86088 -0.04500
C 	C 	0.17652 0.15519 0.87206 0.05900
N 	N 	0.17348 0.16547 0.90891 -0.04500
N 	N 	0.19602 0.16422 0.93367 -0.05800
C 	C 	0.29649 0.15376 0.99293 0.08500
N 	N 	0.27348 0.17184 0.00075 -0.05000
N 	N 	0.24909 0.17052 0.97929 -0.05800
C 	C 	0.24720 0.15128 0.94918 0.11100
N 	N 	0.27003 0.13286 0.94189 -0.05800
N 	N 	0.29430 0.13408 0.96346 -0.05400
C 	C 	0.98741 0.75713 0.57387 0.11300
N 	N 	0.95941 0.76703 0.57782 -0.05500
N 	N 	0.93679 0.74879 0.57261 -0.05000
C 	C 	0.94148 0.72014 0.56331 0.09600
N 	N 	0.96947 0.70991 0.56140 -0.05100
N 	N 	0.99211 0.72811 0.56677 -0.05700
C 	C 	0.05621 0.81640 0.55710 0.08800
N 	N 	0.02843 0.82639 0.56271 -0.05100
N 	N 	0.00667 0.80757 0.57026 -0.05700
C 	C 	0.01203 0.77818 0.57203 0.11200
N 	N 	0.03999 0.76830 0.56753 -0.05800
N 	N 	0.06175 0.78714 0.56012 -0.05500
C 	C 	0.74446 0.67085 0.45026 0.11200
N 	N 	0.75007 0.64962 0.47708 -0.05700
N 	N 	0.77502 0.65016 0.49748 -0.05000
C 	C 	0.79485 0.67208 0.49183 0.08900
N 	N 	0.78897 0.69353 0.46558 -0.06000
N 	N 	0.76418 0.69291 0.44507 -0.05800
C 	C 	0.67287 0.66265 0.37524 0.06300
N 	N 	0.69643 0.67929 0.36517 -0.04500
N 	N 	0.71893 0.68243 0.38956 -0.05800
C 	C 	0.71881 0.66854 0.42446 0.11300
N 	N 	0.69516 0.65199 0.43471 -0.05700
N 	N 	0.67241 0.64922 0.41049 -0.04900
C 	C 	0.86823 0.84128 0.32039 0.11300
N 	N 	0.86090 0.86927 0.33022 -0.05700
N 	N 	0.86521 0.89126 0.30526 -0.04400
C 	C 	0.87672 0.88587 0.26960 0.05900
N 	N 	0.88331 0.85777 0.25934 -0.04800
N 	N 	0.87916 0.83578 0.28440 -0.05800
C 	C 	0.86590 0.77533 0.40464 0.07200
N 	N 	0.87682 0.76950 0.36874 -0.04600
N 	N 	0.87694 0.79035 0.34146 -0.05700
C 	C 	0.86611 0.81758 0.34933 0.11300
N 	N 	0.85487 0.82323 0.38508 -0.05700
N 	N 	0.85475 0.80242 0.41231 -0.04600
C 	C 	0.93956 0.60174 0.34369 0.11300
N 	N 	0.92102 0.62498 0.33940 -0.05700
N 	N 	0.90812 0.63703 0.37035 -0.04600
C 	C 	0.91347 0.62623 0.40642 0.06100
N 	N 	0.93126 0.60246 0.41055 -0.04500
N 	N 	0.94408 0.59038 0.37965 -0.05800
C 	C 	0.99906 0.58347 0.25557 0.09500
N 	N 	0.00078 0.56889 0.28988 -0.05200
N 	N 	0.98035 0.57291 0.31710 -0.05600
C 	C 	0.95772 0.59182 0.31088 0.11300
N 	N 	0.95487 0.60473 0.27553 -0.05500
N 	N 	0.97522 0.60055 0.24824 -0.04900
C 	C 	0.89118 0.54468 0.66990 0.11300
N 	N 	0.89684 0.54169 0.63140 -0.05800
N 	N 	0.89380 0.56453 0.60749 -0.04500
C 	C 	0.88551 0.59119 0.62145 0.06200
N 	N 	0.88001 0.59431 0.66003 -0.04800
N 	N 	0.88268 0.57132 0.68393 -0.05800
C 	C 	0.89840 0.47034 0.74028 0.09000
N 	N 	0.88085 0.49302 0.75128 -0.05000
N 	N 	0.87930 0.51733 0.72956 -0.05700
C 	C 	0.89502 0.51940 0.69608 0.11200
N 	N 	0.91271 0.49676 0.68539 -0.05800
N 	N 	0.91440 0.47263 0.70720 -0.06300
C 	C 	0.48663 0.76070 0.86566 0.11300
N 	N 	0.46456 0.78050 0.86100 -0.05600
N 	N 	0.43689 0.77293 0.86870 -0.04600
C 	C 	0.43060 0.74547 0.88171 0.07100
N 	N 	0.45244 0.72529 0.88467 -0.04600
N 	N 	0.48005 0.73276 0.87655 -0.05700
C 	C 	0.57231 0.78747 0.88473 0.07100
N 	N 	0.56659 0.75903 0.87545 -0.04600
N 	N 	0.53934 0.75071 0.86659 -0.05600
C 	C 	0.51715 0.77069 0.86629 0.11300
N 	N 	0.52325 0.79942 0.87346 -0.05700
N 	N 	0.55042 0.80766 0.88277 -0.04600
C 	C 	0.68334 0.73050 0.06608 0.11300
N 	N 	0.70088 0.75404 0.07342 -0.05600
N 	N 	0.70574 0.77413 0.04596 -0.05200
C 	C 	0.69336 0.77118 0.01033 0.09600
N 	N 	0.67799 0.74636 0.00202 -0.04800
N 	N 	0.67296 0.72633 0.02953 -0.05500
C 	C 	0.64404 0.68693 0.15891 0.06100
N 	N 	0.63687 0.67957 0.12189 -0.04600
N 	N 	0.65052 0.69239 0.09206 -0.05700
C 	C 	0.67184 0.71279 0.09844 0.11300
N 	N 	0.67959 0.71941 0.13550 -0.05700
N 	N 	0.66587 0.70671 0.16527 -0.04500
C 	C 	0.85433 0.92760 0.04204 0.11200
N 	N 	0.87589 0.91090 0.05804 -0.05800
N 	N 	0.89358 0.92222 0.08501 -0.06200
C 	C 	0.89027 0.95055 0.09665 0.09100
N 	N 	0.86972 0.96767 0.07925 -0.05000
N 	N 	0.85208 0.95639 0.05218 -0.05600
C 	C 	0.78316 0.88699 0.98871 0.05900
N 	N 	0.80682 0.87080 0.99962 -0.04600
N 	N 	0.83041 0.88396 0.01466 -0.05700
C 	C 	0.83101 0.91368 0.01903 0.11300
N 	N 	0.80781 0.92990 0.00660 -0.05600
N 	N 	0.78422 0.91675 0.99168 -0.04600
C 	C 	0.81785 0.74291 0.80649 0.11300
N 	N 	0.82302 0.77074 0.81914 -0.05700
N 	N 	0.80865 0.78129 0.84987 -0.04600
C 	C 	0.78891 0.76421 0.86904 0.07000
N 	N 	0.78453 0.73605 0.85722 -0.04600
N 	N 	0.79872 0.72557 0.82631 -0.05700
C 	C 	0.85180 0.71603 0.69979 0.07100
N 	N 	0.82953 0.70081 0.71665 -0.04600
N 	N 	0.81926 0.70889 0.75130 -0.05700
C 	C 	0.83083 0.73255 0.76992 0.11300
N 	N 	0.85326 0.74764 0.75317 -0.05700
N 	N 	0.86371 0.73939 0.71869 -0.04600
C 	C 	0.50039 0.74643 0.32318 0.11300
N 	N 	0.49102 0.71878 0.31471 -0.05600
N 	N 	0.51039 0.69732 0.30827 -0.05000
C 	C 	0.53967 0.70284 0.31013 0.09600
N 	N 	0.54902 0.73016 0.32020 -0.05000
N 	N 	0.52967 0.75161 0.32683 -0.05600
C 	C 	0.44393 0.81791 0.31027 0.09000
N 	N 	0.47142 0.82190 0.32463 -0.05400
N 	N 	0.48892 0.79887 0.33102 -0.05700
C 	C 	0.47945 0.77117 0.32313 0.11200
N 	N 	0.45147 0.76710 0.31046 -0.05700
N 	N 	0.43401 0.79016 0.30395 -0.05100
C 	C 	0.40229 0.01929 0.20444 0.11200
N 	N 	0.38136 0.01410 0.23177 -0.05700
N 	N 	0.38189 0.98928 0.25251 -0.04900
C 	C 	0.40354 0.96918 0.24679 0.09000
N 	N 	0.42483 0.97475 0.22022 -0.06000
N 	N 	0.42420 0.99941 0.19931 -0.05800
C 	C 	0.39313 0.08978 0.12762 0.06300
N 	N 	0.40844 0.06543 0.11710 -0.04500
N 	N 	0.41189 0.04326 0.14199 -0.05800
C 	C 	0.39963 0.04451 0.17789 0.11300
N 	N 	0.38432 0.06890 0.18851 -0.05700
N 	N 	0.38128 0.09133 0.16379 -0.04900
C 	C 	0.54201 0.89793 0.09699 0.11300
N 	N 	0.54761 0.90943 0.13260 -0.05700
N 	N 	0.52719 0.90865 0.16028 -0.04600
C 	C 	0.50053 0.89640 0.15319 0.07200
N 	N 	0.49468 0.88531 0.11738 -0.04600
N 	N 	0.51517 0.88601 0.08966 -0.05700
C 	C 	0.61024 0.88876 0.01702 0.06200
N 	N 	0.58248 0.88057 0.00730 -0.04800
N 	N 	0.56043 0.88434 0.03234 -0.05700
C 	C 	0.56553 0.89650 0.06775 0.11300
N 	N 	0.59312 0.90551 0.07694 -0.05700
N 	N 	0.61516 0.90156 0.05203 -0.04400
C 	C 	0.32587 0.82934 0.09418 0.11300
N 	N 	0.34941 0.84754 0.09038 -0.05700
N 	N 	0.36144 0.86007 0.12160 -0.04600
C 	C 	0.35029 0.85471 0.15748 0.06100
N 	N 	0.32615 0.83737 0.16112 -0.04400
N 	N 	0.31410 0.82491 0.12994 -0.05700
C 	C 	0.30832 0.76965 0.00604 0.09800
N 	N 	0.29314 0.76827 0.03989 -0.05200
N 	N 	0.29691 0.78883 0.06705 -0.05600
C 	C 	0.31615 0.81124 0.06120 0.11300
N 	N 	0.32968 0.81378 0.02622 -0.05500
N 	N 	0.32576 0.79329 0.99900 -0.05100
C 	C 	0.27593 0.88514 0.42717 0.11500
N 	N 	0.30001 0.86827 0.43424 -0.05700
N 	N 	0.32272 0.86860 0.40968 -0.04400
C 	C 	0.32175 0.88548 0.37713 0.06500
N 	N 	0.29775 0.90240 0.37022 -0.04400
N 	N 	0.27529 0.90242 0.39503 -0.05700
C 	C 	0.20005 0.87975 0.49470 0.09100
N 	N 	0.20555 0.90409 0.47310 -0.05100
N 	N 	0.23030 0.90624 0.45263 -0.05600
C 	C 	0.25037 0.88413 0.45329 0.11200
N 	N 	0.24519 0.86003 0.47564 -0.05600
N 	N 	0.22028 0.85781 0.49593 -0.05100
C 	C 	0.50349 0.25183 0.61796 0.11300
N 	N 	0.53179 0.24547 0.62713 -0.05600
N 	N 	0.53960 0.21798 0.63558 -0.04500
C 	C 	0.51941 0.19604 0.63466 0.07100
N 	N 	0.49149 0.20209 0.62341 -0.04600
N 	N 	0.48358 0.22964 0.61540 -0.05600
C 	C 	0.47743 0.33799 0.63565 0.07100
N 	N 	0.45722 0.31605 0.63577 -0.04500
N 	N 	0.46512 0.28866 0.62691 -0.05600
C 	C 	0.49352 0.28240 0.61813 0.11300
N 	N 	0.51344 0.30461 0.61634 -0.05600
N 	N 	0.50545 0.33207 0.62476 -0.04500
C 	C 	0.46137 0.08265 0.81648 0.11300
N 	N 	0.45685 0.09360 0.78029 -0.05500
N 	N 	0.47653 0.08891 0.75228 -0.04900
C 	C 	0.50130 0.07325 0.75969 0.09500
N 	N 	0.50463 0.06040 0.79498 -0.05100
N 	N 	0.48492 0.06496 0.82296 -0.05600
C 	C 	0.41838 0.12041 0.91087 0.06100
N 	N 	0.43859 0.09886 0.91647 -0.04500
N 	N 	0.45117 0.08565 0.88621 -0.05800
C 	C 	0.44397 0.09363 0.84943 0.11300
N 	N 	0.42318 0.11469 0.84381 -0.05700
N 	N 	0.41049 0.12783 0.87412 -0.04600
C 	C 	0.64017 0.93362 0.76558 0.11300
N 	N 	0.61043 0.93486 0.76228 -0.05800
N 	N 	0.59756 0.95834 0.74648 -0.04500
C 	C 	0.61408 0.98123 0.73365 0.06000
N 	N 	0.64382 0.97942 0.73543 -0.04500
N 	N 	0.65668 0.95596 0.75116 -0.05800
C 	C 	0.67669 0.87576 0.84540 0.09000
N 	N 	0.69383 0.89609 0.82756 -0.05000
N 	N 	0.68267 0.91326 0.79988 -0.05700
C 	C 	0.65396 0.91077 0.78958 0.11200
N 	N 	0.63722 0.88948 0.80617 -0.05800
N 	N 	0.64844 0.87224 0.83372 -0.06200
C 	C 	0.45889 0.95690 0.55924 0.11300
N 	N 	0.48795 0.95182 0.56525 -0.05700
N 	N 	0.50159 0.96364 0.59574 -0.04600
C 	C 	0.48654 0.98071 0.62124 0.07000
N 	N 	0.45726 0.98495 0.61598 -0.04500
N 	N 	0.44364 0.97325 0.58538 -0.05600
C 	C 	0.42053 0.93210 0.45425 0.06900
N 	N 	0.40496 0.94808 0.48045 -0.04500
N 	N 	0.41691 0.95535 0.51450 -0.05600
C 	C 	0.44474 0.94679 0.52328 0.11300
N 	N 	0.46011 0.93046 0.49726 -0.05700
N 	N 	0.44817 0.92319 0.46327 -0.04600
C 	C 	0.62633 0.19813 0.81639 0.11300
N 	N 	0.61513 0.20370 0.78057 -0.05800
N 	N 	0.61171 0.18189 0.75503 -0.04900
C 	C 	0.61934 0.15391 0.76464 0.05800
N 	N 	0.63124 0.14852 0.80007 -0.04400
N 	N 	0.63479 0.17033 0.82551 -0.05800
C 	C 	0.62499 0.26264 0.90260 0.07200
N 	N 	0.63598 0.23548 0.91019 -0.04600
N 	N 	0.63712 0.21518 0.88234 -0.05700
C 	C 	0.62724 0.22139 0.84607 0.11200
N 	N 	0.61654 0.24869 0.83830 -0.05700
N 	N 	0.61549 0.26907 0.86618 -0.04600
C 	C 	0.63890 0.11316 0.53745 0.11200
N 	N 	0.64117 0.08425 0.54704 -0.05700
N 	N 	0.62359 0.07269 0.57397 -0.05000
C 	C 	0.60307 0.08961 0.59176 0.09000
N 	N 	0.59960 0.11800 0.58044 -0.06200
N 	N 	0.61725 0.12962 0.55365 -0.05800
C 	C 	0.71092 0.15432 0.48700 0.06000
N 	N 	0.70932 0.12451 0.48812 -0.04500
N 	N 	0.68542 0.11126 0.50196 -0.05800
C 	C 	0.66241 0.12743 0.51514 0.11300
N 	N 	0.66352 0.15725 0.51250 -0.05800
N 	N 	0.68743 0.17052 0.49855 -0.04500
