data_crystal

_cell_length_a 16.53666
_cell_length_b 16.66281
_cell_length_c 93.83752
_cell_angle_alpha 90.06923
_cell_angle_beta  90.02732
_cell_angle_gamma 119.72382

_symmetry_space_group_name_	'P 1'
_symmetry_space_group_name_H-M	'P 1'

loop_
_symmetry_equiv_pos_as_xyz
  x,y,z

loop_
_atom_site_label
_atom_site_type_symbol
_atom_site_fract_x
_atom_site_fract_y
_atom_site_fract_z
_atom_site_charge
C 	C 	0.10038 0.86158 0.00456 0.28300
O 	O 	0.02813 0.98873 0.01436 -0.71900
H 	H 	0.08155 0.00789 0.00791 0.15500
C 	C 	0.82479 0.97479 0.00525 0.29900
O 	O 	0.89305 0.06073 0.00621 -0.36000
Ni	Ni	0.02439 0.10058 0.01493 1.11100
O 	O 	0.89121 0.77583 0.01697 -0.37900
O 	O 	0.83506 0.90911 0.01103 -0.38700
Ni	Ni	0.93613 0.88637 0.00370 1.12200
O 	O 	0.09695 0.86329 0.01875 -0.38900
Ni	Ni	0.07518 0.95510 0.03027 1.11500
O 	O 	0.16066 0.17904 0.02330 -0.36900
O 	O 	0.19931 0.06358 0.02498 -0.38900
C 	C 	0.21715 0.14847 0.02781 0.29200
C 	C 	0.90193 0.78153 0.03093 0.31300
O 	O 	0.06768 0.04124 0.04494 -0.39600
C 	C 	0.28577 0.20075 0.03908 -0.07200
C 	C 	0.35766 0.18145 0.04205 -0.01900
H 	H 	0.37721 0.14664 0.03414 0.04300
H 	H 	0.21729 0.27554 0.04625 0.03700
H 	H 	0.49751 0.15532 0.05052 0.04100
C 	C 	0.99555 0.05378 0.04608 0.31100
O 	O 	0.96405 0.07745 0.03495 -0.36700
O 	O 	0.94988 0.86132 0.03721 -0.39400
C 	C 	0.86507 0.69775 0.03963 -0.08900
C 	C 	0.77024 0.64995 0.04301 0.01800
C 	C 	0.92764 0.68382 0.04789 0.01900
H 	H 	0.72122 0.65946 0.03658 0.03300
H 	H 	0.00081 0.71902 0.04500 0.01500
C 	C 	0.26741 0.25382 0.04882 0.00700
C 	C 	0.30783 0.27250 0.06237 -0.05400
C 	C 	0.39863 0.20011 0.05565 0.00800
C 	C 	0.46924 0.17958 0.05881 -0.04000
C 	C 	0.73962 0.59857 0.05560 -0.06000
C 	C 	0.89947 0.63782 0.06100 -0.01400
C 	C 	0.80427 0.59366 0.06497 0.02200
H 	H 	0.66742 0.57013 0.05855 0.04700
H 	H 	0.03940 0.67721 0.06775 0.01700
C 	C 	0.86780 0.00802 0.06348 -0.00600
C 	C 	0.96260 0.06111 0.06022 -0.03300
H 	H 	0.82191 0.95090 0.05664 0.04300
H 	H 	0.09682 0.16852 0.06744 0.05500
H 	H 	0.29495 0.31572 0.06955 0.04100
C 	C 	0.36576 0.23651 0.06637 0.00700
C 	C 	0.02275 0.13027 0.06965 -0.08100
C 	C 	0.96679 0.64500 0.07083 0.00100
C 	C 	0.77849 0.55600 0.07894 -0.00300
H 	H 	0.63048 0.46706 0.07494 0.04300
C 	C 	0.50313 0.18933 0.07271 -0.04100
H 	H 	0.55813 0.17365 0.07495 0.04100
C 	C 	0.83143 0.02954 0.07536 -0.02800
C 	C 	0.39135 0.23507 0.08080 0.00200
C 	C 	0.04651 0.22388 0.09078 -0.07500
H 	H 	0.12131 0.25699 0.08938 0.04600
H 	H 	0.28013 0.25103 0.09035 0.04200
C 	C 	0.34126 0.24483 0.09224 -0.04700
C 	C 	0.46238 0.21342 0.08383 0.01100
C 	C 	0.94229 0.61790 0.08495 -0.05500
C 	C 	0.84898 0.57637 0.08921 0.02500
C 	C 	0.68475 0.49848 0.08288 -0.04300
C 	C 	0.66133 0.47629 0.09719 -0.00100
H 	H 	0.99616 0.62963 0.09262 0.05600
C 	C 	0.98656 0.15405 0.08141 0.07700
C 	C 	0.88899 0.10853 0.08363 -0.01200
H 	H 	0.70816 0.06966 0.08668 0.04500
H 	H 	0.75985 0.98323 0.07830 0.04000
C 	C 	0.75597 0.11452 0.09473 -0.04700
C 	C 	0.85206 0.14324 0.09411 0.01200
C 	C 	0.82501 0.55456 0.10363 -0.02100
H 	H 	0.58876 0.43325 0.10005 0.04400
C 	C 	0.48805 0.21076 0.09801 -0.02200
H 	H 	0.54526 0.19838 0.10027 0.04300
C 	C 	0.91404 0.21379 0.10351 0.03700
C 	C 	0.01057 0.25177 0.10196 -0.05700
H 	H 	0.05808 0.30545 0.10916 0.04400
H 	H 	0.32661 0.24723 0.11493 0.05000
C 	C 	0.36595 0.23978 0.10630 0.00100
C 	C 	0.43942 0.22307 0.10927 -0.06500
C 	C 	0.73103 0.50797 0.10773 -0.05800
H 	H 	0.87923 0.57427 0.11159 0.05800
C 	C 	0.78308 0.21585 0.11490 -0.05800
C 	C 	0.72196 0.14902 0.10529 0.00200
C 	C 	0.87891 0.24833 0.11399 -0.01900
H 	H 	0.64803 0.12537 0.10577 0.03500
C 	C 	0.70438 0.48826 0.12292 0.27900
C 	C 	0.74687 0.25138 0.12600 0.28400
O 	O 	0.61655 0.45805 0.12654 -0.35900
O 	O 	0.76838 0.50360 0.13283 -0.35600
O 	O 	0.78854 0.34230 0.12793 -0.37900
H 	H 	0.92612 0.30084 0.12139 0.06000
C 	C 	0.46860 0.22319 0.12413 0.27600
O 	O 	0.69037 0.19248 0.13579 -0.37600
O 	O 	0.45300 0.27161 0.13392 -0.35100
O 	O 	0.51088 0.17553 0.12753 -0.37000
H 	H 	0.63688 0.32586 0.13176 0.14600
O 	O 	0.31675 0.29064 0.15302 -0.11300
Ni	Ni	0.56084 0.38249 0.14498 1.11900
Ni	Ni	0.58512 0.19987 0.14584 1.12200
Ni	Ni	0.76660 0.40077 0.14513 1.12400
O 	O 	0.63623 0.32828 0.14222 -0.71300
O 	O 	0.74017 0.74561 0.15225 -0.08400
O 	O 	0.83980 0.69480 0.14693 -0.08600
O 	O 	0.46460 0.17296 0.15579 -0.36700
O 	O 	0.65333 0.50545 0.15530 -0.34500
O 	O 	0.79524 0.31705 0.15719 -0.36000
N 	N 	0.78696 0.70545 0.15612 -0.02000
N 	N 	0.33307 0.30305 0.16664 -0.02300
C 	C 	0.45740 0.22770 0.16520 0.31700
C 	C 	0.72009 0.51473 0.16395 0.31700
C 	C 	0.73697 0.25453 0.16627 0.31900
O 	O 	0.64642 0.21974 0.16496 -0.38200
O 	O 	0.51131 0.31757 0.16440 -0.35600
O 	O 	0.75206 0.45668 0.16349 -0.36500
O 	O 	0.35530 0.38252 0.17235 -0.10100
O 	O 	0.98724 0.41217 0.18072 -0.08300
H 	H 	0.19483 0.21794 0.18517 0.06200
C 	C 	0.23984 0.18793 0.18460 -0.02100
C 	C 	0.31706 0.22684 0.17551 0.09900
C 	C 	0.35625 0.11054 0.18298 -0.02400
C 	C 	0.37672 0.18897 0.17487 -0.07200
C 	C 	0.72763 0.11360 0.17696 -0.02100
C 	C 	0.77253 0.21040 0.17619 -0.07400
C 	C 	0.85555 0.26390 0.18394 0.10500
C 	C 	0.76524 0.06983 0.18518 0.10400
H 	H 	0.66489 0.07207 0.17080 0.06300
N 	N 	0.89957 0.36268 0.18400 -0.02200
O 	O 	0.76458 0.92965 0.18075 -0.08900
C 	C 	0.82215 0.75137 0.18115 -0.02100
C 	C 	0.75712 0.58929 0.17470 -0.07000
C 	C 	0.78765 0.68165 0.17075 0.10600
H 	H 	0.84822 0.82254 0.17799 0.08600
N 	N 	0.72041 0.97105 0.18530 -0.02300
O 	O 	0.63317 0.92250 0.18887 -0.09700
C 	C 	0.22032 0.11056 0.19290 -0.07800
C 	C 	0.27902 0.07165 0.19208 0.10600
C 	C 	0.89347 0.22003 0.19210 -0.02200
C 	C 	0.82709 0.73015 0.19547 -0.06600
C 	C 	0.76160 0.56798 0.18903 -0.02000
H 	H 	0.73700 0.49695 0.19215 0.08100
C 	C 	0.84809 0.12321 0.19295 -0.07000
O 	O 	0.85403 0.40307 0.18839 -0.08400
H 	H 	0.40141 0.08069 0.18243 0.06900
O 	O 	0.93372 0.80859 0.21482 -0.33300
O 	O 	0.08747 0.98829 0.20482 -0.37200
O 	O 	0.14694 0.13580 0.21311 -0.37500
C 	C 	0.14491 0.07739 0.20349 0.32100
O 	O 	0.23762 0.91502 0.19509 -0.10400
O 	O 	0.97064 0.10885 0.20450 -0.36500
N 	N 	0.26256 0.99497 0.20086 -0.02600
O 	O 	0.28098 0.00719 0.21443 -0.10600
C 	C 	0.86995 0.80541 0.20609 0.31600
O 	O 	0.84461 0.86874 0.20656 -0.36200
C 	C 	0.79522 0.63754 0.19945 0.10400
C 	C 	0.88070 0.07897 0.20334 0.31800
O 	O 	0.82111 0.02170 0.21283 -0.36100
H 	H 	0.95612 0.26146 0.19828 0.06900
N 	N 	0.79446 0.61347 0.21411 -0.01900
Ni	Ni	0.03284 0.12284 0.22345 1.10500
Ni	Ni	0.03626 0.92883 0.22456 1.10200
O 	O 	0.97145 0.99415 0.22727 -0.69800
O 	O 	0.83731 0.56947 0.21805 -0.08000
Ni	Ni	0.84037 0.93180 0.22487 1.12300
O 	O 	0.74457 0.62863 0.22329 -0.08900
H 	H 	0.97294 0.99833 0.23772 0.15100
O 	O 	0.10825 0.14174 0.24156 -0.38000
C 	C 	0.14592 0.08932 0.24469 0.27400
O 	O 	0.15236 0.03508 0.23491 -0.35500
O 	O 	0.97818 0.85876 0.24339 -0.34300
O 	O 	0.82975 0.82571 0.23725 -0.36000
C 	C 	0.87726 0.08864 0.24370 0.29300
O 	O 	0.93620 0.14330 0.23374 -0.36700
O 	O 	0.82903 0.99733 0.24211 -0.38600
H 	H 	0.28682 0.05802 0.25151 0.05800
C 	C 	0.89254 0.83739 0.24713 0.28800
C 	C 	0.84779 0.13134 0.25476 -0.06600
H 	H 	0.70232 0.02694 0.25365 0.04400
H 	H 	0.01348 0.90012 0.26937 0.00500
H 	H 	0.09619 0.13585 0.26956 0.03000
C 	C 	0.18677 0.09593 0.25893 -0.06400
C 	C 	0.15105 0.11878 0.27084 -0.00300
C 	C 	0.25792 0.07410 0.26073 -0.02100
H 	H 	0.39904 0.04518 0.26665 0.04500
C 	C 	0.75330 0.09234 0.25827 0.01200
C 	C 	0.91351 0.21440 0.26115 -0.00400
H 	H 	0.98694 0.24289 0.25879 0.05100
C 	C 	0.86963 0.83388 0.26245 -0.08100
C 	C 	0.77757 0.80211 0.26686 -0.00600
H 	H 	0.72253 0.78095 0.25901 0.04900
C 	C 	0.88482 0.26012 0.27072 -0.00500
C 	C 	0.72379 0.13784 0.26763 -0.05200
H 	H 	0.65152 0.10326 0.27083 0.04500
C 	C 	0.29361 0.07525 0.27436 0.01400
C 	C 	0.37020 0.06128 0.27588 -0.04200
H 	H 	0.02498 0.36580 0.27611 0.00500
C 	C 	0.94132 0.86788 0.27267 0.05500
C 	C 	0.75628 0.79619 0.28146 0.00600
H 	H 	0.61146 0.75471 0.27811 0.04200
C 	C 	0.76074 0.27380 0.28271 0.00100
C 	C 	0.95137 0.33861 0.27808 0.01600
C 	C 	0.78861 0.22479 0.27337 0.01900
H 	H 	0.61598 0.21011 0.27591 0.04600
C 	C 	0.18559 0.11969 0.28448 -0.05200
H 	H 	0.16101 0.14383 0.29325 0.03800
C 	C 	0.25521 0.09491 0.28649 0.00200
C 	C 	0.41309 0.07278 0.28910 -0.04000
H 	H 	0.47505 0.06640 0.28992 0.03800
C 	C 	0.92065 0.86266 0.28718 -0.06700
C 	C 	0.82714 0.81858 0.29175 0.01700
C 	C 	0.66487 0.76665 0.28587 -0.03600
C 	C 	0.66709 0.25287 0.28379 -0.04700
C 	C 	0.82887 0.34680 0.29106 0.02400
C 	C 	0.92368 0.37985 0.28848 -0.05700
H 	H 	0.97744 0.89714 0.29464 0.05600
C 	C 	0.29397 0.09776 0.30018 0.00500
C 	C 	0.37778 0.09460 0.30115 0.00800
C 	C 	0.64116 0.74978 0.30024 -0.04100
C 	C 	0.64000 0.29048 0.29487 0.00300
C 	C 	0.80108 0.38437 0.30213 -0.01800
H 	H 	0.56732 0.27061 0.29602 0.04300
H 	H 	0.97617 0.43768 0.29455 0.05600
H 	H 	0.18099 0.09014 0.31309 0.03700
C 	C 	0.25264 0.10557 0.31288 -0.05400
C 	C 	0.42779 0.11822 0.31403 -0.01700
H 	H 	0.49564 0.12309 0.31448 0.04600
C 	C 	0.67614 0.36594 0.31877 0.30300
C 	C 	0.70696 0.75619 0.31029 0.01100
C 	C 	0.80163 0.79329 0.30627 0.00500
C 	C 	0.86478 0.79167 0.31633 -0.04800
H 	H 	0.56957 0.72483 0.30340 0.03900
H 	H 	0.93755 0.81979 0.31386 0.04800
C 	C 	0.70609 0.35074 0.30474 -0.06900
H 	H 	0.85286 0.43624 0.30915 0.05300
O 	O 	0.59291 0.35715 0.32024 -0.38100
C 	C 	0.30391 0.13126 0.32556 0.00100
H 	H 	0.27467 0.14465 0.33499 0.03400
C 	C 	0.39519 0.14603 0.32579 -0.07000
C 	C 	0.46230 0.21075 0.33631 0.29000
Ni	Ni	0.55564 0.41217 0.33676 1.12000
O 	O 	0.66491 0.53266 0.33127 -0.39100
O 	O 	0.72546 0.37088 0.33000 -0.37500
O 	O 	0.54058 0.20797 0.33884 -0.36800
O 	O 	0.45318 0.28190 0.34033 -0.39000
C 	C 	0.83189 0.74417 0.32920 0.01000
C 	C 	0.73637 0.69647 0.33207 -0.07400
C 	C 	0.67695 0.71404 0.32366 -0.01400
H 	H 	0.87934 0.73507 0.33609 0.04000
H 	H 	0.60372 0.68174 0.32644 0.03600
C 	C 	0.69696 0.60679 0.33919 0.30700
H 	H 	0.67791 0.80477 0.99873 0.04100
C 	C 	0.84283 0.46966 0.36057 0.30300
Ni	Ni	0.66397 0.30861 0.34907 1.11400
O 	O 	0.79544 0.37954 0.35875 -0.36500
O 	O 	0.80639 0.51986 0.35655 -0.38600
O 	O 	0.49788 0.46778 0.34994 -0.38400
O 	O 	0.69271 0.60139 0.35321 -0.38100
O 	O 	0.61737 0.39019 0.35202 -0.71200
H 	H 	0.56324 0.35112 0.35805 0.15600
H 	H 	0.35672 0.29719 0.37693 0.02900
C 	C 	0.35592 0.36006 0.37961 0.00200
C 	C 	0.48866 0.45416 0.36398 0.28400
Ni	Ni	0.68243 0.49284 0.36451 1.12000
H 	H 	0.90438 0.62566 0.37663 0.04000
C 	C 	0.63048 0.31548 0.38042 0.28000
O 	O 	0.61683 0.25977 0.36943 -0.36600
O 	O 	0.68866 0.40637 0.37958 -0.37200
O 	O 	0.56120 0.47316 0.37222 -0.38100
C 	C 	0.40315 0.43862 0.37100 -0.06900
C 	C 	0.39090 0.51482 0.37362 -0.01600
H 	H 	0.36491 0.65411 0.38231 0.04000
H 	H 	0.42037 0.57289 0.36632 0.04300
C 	C 	0.96864 0.46097 0.37398 0.02900
C 	C 	0.92058 0.50860 0.37093 -0.07100
C 	C 	0.93656 0.58473 0.37941 -0.03400
H 	H 	0.96289 0.40696 0.36691 0.03900
C 	C 	0.98828 0.60370 0.39207 0.07100
C 	C 	0.00254 0.67830 0.40072 -0.10800
H 	H 	0.97914 0.72543 0.39724 0.06800
H 	H 	0.28304 0.30572 0.39927 0.04100
H 	H 	0.32819 0.10503 0.40481 0.03900
C 	C 	0.31969 0.36676 0.39273 -0.05000
C 	C 	0.33166 0.45281 0.39720 0.00700
C 	C 	0.35328 0.60315 0.39040 -0.04000
C 	C 	0.35538 0.52257 0.38684 0.00900
C 	C 	0.02341 0.54541 0.39633 -0.02700
C 	C 	0.02172 0.48069 0.38643 -0.06800
C 	C 	0.59987 0.27315 0.39447 -0.06400
C 	C 	0.50456 0.21689 0.39710 -0.01700
H 	H 	0.45420 0.21997 0.39003 0.03700
C 	C 	0.34134 0.62069 0.40457 -0.03900
H 	H 	0.34210 0.68439 0.40723 0.04300
H 	H 	0.06313 0.44768 0.38808 0.04400
C 	C 	0.47426 0.15224 0.40822 0.01200
C 	C 	0.66492 0.27343 0.40407 0.00900
H 	H 	0.73867 0.32032 0.40251 0.04500
C 	C 	0.04598 0.69197 0.41395 -0.01000
H 	H 	0.05660 0.75018 0.42047 0.03200
C 	C 	0.05827 0.55302 0.41045 0.02300
C 	C 	0.07066 0.62808 0.41915 -0.01000
C 	C 	0.10262 0.63551 0.43324 -0.00500
H 	H 	0.27423 0.98409 0.42309 0.03600
C 	C 	0.34829 0.02675 0.42116 -0.03500
H 	H 	0.33495 0.35570 0.42053 0.04600
C 	C 	0.33687 0.42011 0.42284 -0.04800
C 	C 	0.37890 0.09572 0.41083 -0.04000
C 	C 	0.41221 0.00972 0.42849 0.01600
C 	C 	0.33073 0.47488 0.41183 0.00600
C 	C 	0.35163 0.59083 0.42964 -0.01300
C 	C 	0.07188 0.48305 0.41652 -0.05900
C 	C 	0.33795 0.56105 0.41541 0.01100
H 	H 	0.35639 0.65635 0.43238 0.04900
H 	H 	0.05466 0.42059 0.41071 0.04500
C 	C 	0.57092 0.03944 0.43192 -0.04000
C 	C 	0.50905 0.06589 0.42597 0.00600
C 	C 	0.54034 0.14252 0.41655 0.01000
C 	C 	0.63543 0.20980 0.41526 -0.04900
H 	H 	0.64340 0.07348 0.42887 0.04900
H 	H 	0.68609 0.21476 0.42301 0.05200
H 	H 	0.11508 0.69462 0.43970 0.04200
H 	H 	0.11173 0.43573 0.43502 0.04400
C 	C 	0.10173 0.49024 0.43061 0.01200
C 	C 	0.11694 0.56604 0.43907 -0.07300
C 	C 	0.15244 0.57452 0.45378 0.30200
H 	H 	0.30604 0.89358 0.44009 0.04300
O 	O 	0.31943 0.77548 0.45520 -0.38600
H 	H 	0.36076 0.41062 0.44512 0.05100
C 	C 	0.37997 0.93463 0.43788 -0.02100
C 	C 	0.35315 0.45203 0.43690 0.00800
C 	C 	0.40856 0.83509 0.45464 0.30000
C 	C 	0.38723 0.57467 0.45490 0.30400
C 	C 	0.36391 0.53865 0.44025 -0.06700
C 	C 	0.44265 0.91202 0.44434 -0.06500
C 	C 	0.53788 0.96407 0.44118 0.00500
H 	H 	0.58638 0.94512 0.44570 0.05100
O 	O 	0.14023 0.62613 0.46314 -0.36100
O 	O 	0.18927 0.52401 0.45767 -0.37900
Ni	Ni	0.25158 0.72852 0.47447 1.11500
Ni	Ni	0.24899 0.53272 0.47690 1.12300
O 	O 	0.34517 0.51968 0.46570 -0.37300
Ni	Ni	0.44452 0.72289 0.47584 1.12600
O 	O 	0.46457 0.83659 0.46472 -0.36100
O 	O 	0.44121 0.66377 0.45702 -0.37600
O 	O 	0.46240 0.44307 0.47932 -0.09000
N 	N 	0.97044 0.61035 0.49380 -0.02200
C 	C 	0.05626 0.54649 0.50665 -0.07200
O 	O 	0.96483 0.68465 0.49585 -0.09300
C 	C 	0.12871 0.58139 0.49559 0.29900
O 	O 	0.13284 0.52016 0.48688 -0.36100
O 	O 	0.17170 0.67118 0.49262 -0.35700
H 	H 	0.31238 0.66663 0.48926 0.15500
O 	O 	0.31015 0.52542 0.49502 -0.37600
O 	O 	0.35440 0.84736 0.48499 -0.35800
O 	O 	0.31318 0.66344 0.47878 -0.72100
C 	C 	0.41605 0.85102 0.49455 0.29700
O 	O 	0.95904 0.57554 0.48105 -0.08400
C 	C 	0.40218 0.56581 0.49655 0.29900
O 	O 	0.45674 0.79941 0.49335 -0.35700
C 	C 	0.45280 0.92636 0.50511 -0.06500
O 	O 	0.46100 0.62692 0.48710 -0.35200
C 	C 	0.97991 0.56210 0.50572 0.10700
C 	C 	0.50297 0.49750 0.50299 0.10200
H 	H 	0.58953 0.44222 0.51006 0.06800
N 	N 	0.52609 0.49742 0.48830 -0.01900
O 	O 	0.61232 0.54513 0.48419 -0.08900
C 	C 	0.54889 0.99110 0.50578 0.09700
N 	N 	0.61219 0.98704 0.49580 -0.02200
O 	O 	0.60656 0.00255 0.48236 -0.09000
O 	O 	0.68061 0.97637 0.50033 -0.09500
C 	C 	0.43973 0.52709 0.50713 -0.06700
C 	C 	0.06262 0.49627 0.51812 -0.02500
H 	H 	0.12171 0.48510 0.51896 0.06600
H 	H 	0.31724 0.88584 0.51384 0.06800
O 	O 	0.29645 0.02759 0.52972 -0.09300
H 	H 	0.36403 0.54234 0.52466 0.06800
N 	N 	0.36093 0.01102 0.53432 -0.02000
C 	C 	0.39113 0.93530 0.51434 -0.03300
C 	C 	0.41259 0.51985 0.52143 -0.02600
C 	C 	0.42450 0.00643 0.52448 0.10700
C 	C 	0.45006 0.48631 0.53171 0.10200
C 	C 	0.55767 0.14485 0.53604 0.30000
C 	C 	0.83854 0.43037 0.53767 0.29800
C 	C 	0.55438 0.42225 0.53820 0.29800
O 	O 	0.51449 0.19347 0.53800 -0.35900
O 	O 	0.79629 0.33890 0.53878 -0.35700
C 	C 	0.54082 0.46454 0.51328 -0.02600
C 	C 	0.51415 0.45784 0.52759 -0.06600
C 	C 	0.58236 0.06213 0.51594 -0.02100
C 	C 	0.52072 0.07078 0.52523 -0.07000
H 	H 	0.65624 0.11163 0.51643 0.06800
C 	C 	0.91094 0.52721 0.51628 -0.02900
C 	C 	0.91643 0.47537 0.52759 -0.06600
C 	C 	0.99384 0.46168 0.52869 0.09900
H 	H 	0.85150 0.53778 0.51540 0.06800
O 	O 	0.00908 0.33987 0.53881 -0.09300
O 	O 	0.33829 0.43742 0.55019 -0.08800
O 	O 	0.36175 0.98974 0.54763 -0.10400
N 	N 	0.42520 0.48414 0.54637 -0.01900
Ni	Ni	0.72030 0.26725 0.55653 1.11700
Ni	Ni	0.70753 0.45479 0.55799 1.12300
Ni	Ni	0.51951 0.25781 0.55655 1.12600
O 	O 	0.62288 0.15013 0.54502 -0.35600
O 	O 	0.49652 0.35471 0.54693 -0.35100
O 	O 	0.64586 0.47051 0.54054 -0.37300
O 	O 	0.82778 0.48295 0.54741 -0.36200
O 	O 	0.65098 0.32673 0.55395 -0.72200
H 	H 	0.65242 0.33053 0.54346 0.15600
O 	O 	0.48832 0.53523 0.55567 -0.09000
N 	N 	0.00380 0.41447 0.54070 -0.02000
O 	O 	0.01601 0.45056 0.55336 -0.08900
H 	H 	0.29359 0.83019 0.58635 0.05300
H 	H 	0.40772 0.98141 0.57675 0.06600
C 	C 	0.81802 0.41361 0.57867 0.29600
C 	C 	0.56699 0.14879 0.57648 0.29700
C 	C 	0.56480 0.38936 0.57986 0.30300
O 	O 	0.60657 0.45319 0.57007 -0.37200
O 	O 	0.83080 0.36803 0.56833 -0.35600
O 	O 	0.76472 0.45035 0.57686 -0.38000
O 	O 	0.65635 0.20768 0.57561 -0.38000
O 	O 	0.51024 0.14404 0.56626 -0.36100
O 	O 	0.51272 0.30256 0.57611 -0.37700
H 	H 	0.00067 0.53278 0.58323 0.06700
C 	C 	0.45148 0.99309 0.58601 -0.02200
H 	H 	0.07979 0.58017 0.60638 0.03600
H 	H 	0.24486 0.71196 0.60510 0.04200
C 	C 	0.31333 0.77277 0.60565 -0.03400
C 	C 	0.34072 0.84032 0.59508 -0.04000
C 	C 	0.53326 0.07851 0.58785 -0.06100
C 	C 	0.58203 0.41373 0.59511 -0.06600
C 	C 	0.60657 0.50289 0.59975 0.00900
C 	C 	0.57235 0.34681 0.60508 -0.01400
H 	H 	0.61556 0.55539 0.59211 0.04900
H 	H 	0.55691 0.27878 0.60147 0.04700
C 	C 	0.86921 0.43031 0.59209 -0.05000
C 	C 	0.96256 0.50003 0.59287 -0.03100
C 	C 	0.00640 0.52974 0.60610 -0.00500
C 	C 	0.82116 0.38599 0.60455 -0.02800
H 	H 	0.74924 0.33113 0.60389 0.04400
C 	C 	0.42670 0.92242 0.59610 0.01900
C 	C 	0.48732 0.93547 0.60763 0.00000
C 	C 	0.58669 0.09477 0.60025 -0.00000
H 	H 	0.64648 0.16220 0.60223 0.03800
H 	H 	0.09933 0.66207 0.62592 0.04500
H 	H 	0.27415 0.66211 0.62829 0.04700
C 	C 	0.34544 0.71844 0.62792 -0.01600
C 	C 	0.37430 0.78340 0.61682 0.00900
C 	C 	0.61534 0.52376 0.61429 -0.04800
H 	H 	0.62851 0.59148 0.61750 0.04700
C 	C 	0.95625 0.49082 0.61879 -0.02200
C 	C 	0.86540 0.41353 0.61787 0.02700
C 	C 	0.46478 0.86132 0.61715 0.01000
C 	C 	0.56395 0.02425 0.61010 -0.04400
C 	C 	0.59905 0.45492 0.62451 0.00800
C 	C 	0.57661 0.36538 0.61973 0.01000
H 	H 	0.53526 0.22539 0.62606 0.04100
C 	C 	0.53053 0.86233 0.62682 -0.05200
H 	H 	0.60391 0.91186 0.62577 0.04400
H 	H 	0.60355 0.04022 0.61989 0.04100
C 	C 	0.07471 0.61155 0.63441 -0.04800
C 	C 	0.99692 0.52287 0.63243 0.01100
C 	C 	0.40716 0.73050 0.63908 -0.06500
C 	C 	0.54870 0.29293 0.62957 -0.04000
C 	C 	0.59049 0.46872 0.63928 0.00800
H 	H 	0.67044 0.61895 0.63979 0.04300
C 	C 	0.82093 0.36333 0.63019 -0.05200
H 	H 	0.75155 0.30378 0.62955 0.04200
C 	C 	0.50137 0.79766 0.63781 0.00500
C 	C 	0.00264 0.49042 0.65764 0.03400
C 	C 	0.08740 0.57353 0.65900 -0.09400
C 	C 	0.11933 0.63654 0.64762 0.01700
H 	H 	0.18160 0.70330 0.64879 0.04200
O 	O 	0.29596 0.60471 0.65364 -0.37500
C 	C 	0.37083 0.68906 0.65308 0.27900
O 	O 	0.37038 0.48614 0.66223 -0.37900
O 	O 	0.39857 0.74554 0.66430 -0.37100
H 	H 	0.49900 0.24579 0.65077 0.04100
C 	C 	0.52902 0.30462 0.64363 -0.03900
C 	C 	0.54400 0.39087 0.64826 0.01100
C 	C 	0.61895 0.55686 0.64507 -0.04900
C 	C 	0.57992 0.56435 0.65786 0.00300
C 	C 	0.86720 0.38736 0.64331 -0.02300
C 	C 	0.95542 0.46641 0.64450 -0.02800
H 	H 	0.83361 0.34535 0.65260 0.03400
H 	H 	0.55106 0.80285 0.64581 0.03400
H 	H 	0.59348 0.63173 0.66147 0.03100
C 	C 	0.50506 0.39909 0.66112 -0.01400
C 	C 	0.14967 0.58800 0.67121 0.31200
O 	O 	0.15821 0.51843 0.67570 -0.38600
O 	O 	0.21485 0.67273 0.67431 -0.36700
C 	C 	0.20936 0.38421 0.69449 0.30600
O 	O 	0.21863 0.38802 0.68053 -0.37800
H 	H 	0.25498 0.24872 0.69815 0.03700
Ni	Ni	0.26716 0.50617 0.66902 1.12100
Ni	Ni	0.34092 0.70697 0.68445 1.11300
O 	O 	0.35012 0.59963 0.68187 -0.71200
H 	H 	0.97484 0.44383 0.66665 0.01800
H 	H 	0.40753 0.62549 0.67617 0.15600
O 	O 	0.41619 0.47175 0.68497 -0.38400
C 	C 	0.43264 0.48544 0.67105 0.28400
H 	H 	0.45920 0.33778 0.66719 0.04300
O 	O 	0.47106 0.77846 0.69505 -0.36900
C 	C 	0.51312 0.48435 0.66482 -0.06900
O 	O 	0.51377 0.66506 0.69457 -0.38900
H 	H 	0.03751 0.31164 0.70661 0.04900
C 	C 	0.06671 0.24202 0.72357 0.03500
C 	C 	0.07900 0.28094 0.70992 -0.01900
C 	C 	0.15581 0.29524 0.70168 -0.06900
C 	C 	0.18928 0.20608 0.71865 -0.04900
C 	C 	0.20170 0.24619 0.70516 0.00300
O 	O 	0.26852 0.66072 0.70342 -0.37400
H 	H 	0.22508 0.16852 0.72125 0.04400
O 	O 	0.25733 0.45753 0.70238 -0.39200
C 	C 	0.30585 0.64710 0.71481 0.30600
O 	O 	0.37501 0.62989 0.71371 -0.38100
Ni	Ni	0.38722 0.55405 0.69763 1.12000
C 	C 	0.53059 0.74857 0.69827 0.28900
C 	C 	0.60476 0.80066 0.70891 -0.06900
C 	C 	0.66737 0.77010 0.71262 0.00000
H 	H 	0.67553 0.72214 0.70579 0.03700
C 	C 	0.60287 0.87037 0.71707 -0.01800
H 	H 	0.55953 0.89903 0.71378 0.04300
C 	C 	0.99720 0.21632 0.74705 -0.06300
C 	C 	0.99733 0.23742 0.73266 -0.06000
C 	C 	0.06988 0.20555 0.75273 0.04100
H 	H 	0.09066 0.62865 0.74736 0.04900
H 	H 	0.13712 0.56844 0.72716 0.04200
C 	C 	0.16398 0.65893 0.74501 -0.05000
C 	C 	0.13774 0.20505 0.74353 0.00100
C 	C 	0.13047 0.21530 0.72861 0.00600
C 	C 	0.19008 0.62587 0.73324 0.01100
C 	C 	0.21653 0.20598 0.74956 -0.04400
C 	C 	0.28291 0.66980 0.72876 -0.07400
H 	H 	0.27359 0.21384 0.74298 0.04200
C 	C 	0.32518 0.78145 0.74800 0.00900
C 	C 	0.35085 0.74550 0.73642 -0.01300
H 	H 	0.42248 0.78025 0.73277 0.04400
C 	C 	0.71711 0.79854 0.72542 -0.05200
C 	C 	0.70301 0.85647 0.73486 0.00700
C 	C 	0.65202 0.89880 0.72999 0.00800
C 	C 	0.64968 0.96810 0.73814 -0.04400
C 	C 	0.74084 0.87586 0.74891 0.00300
H 	H 	0.76826 0.77783 0.72766 0.04000
H 	H 	0.61289 0.00245 0.73427 0.04000
H 	H 	0.76662 0.75994 0.75060 0.04200
H 	H 	0.94343 0.21363 0.75397 0.04300
H 	H 	0.94497 0.25276 0.72867 0.04000
C 	C 	0.07884 0.20147 0.76755 -0.02600
C 	C 	0.23151 0.73598 0.75277 0.01000
C 	C 	0.22505 0.20285 0.76433 0.00100
H 	H 	0.07624 0.65090 0.76970 0.05100
C 	C 	0.11999 0.72443 0.77133 -0.04600
C 	C 	0.15639 0.20022 0.77340 -0.05800
C 	C 	0.20638 0.77438 0.76432 0.00700
C 	C 	0.27055 0.86443 0.76920 0.01400
H 	H 	0.28599 0.20360 0.76874 0.04500
C 	C 	0.36255 0.90882 0.76423 -0.03900
C 	C 	0.39042 0.86609 0.75411 -0.03700
H 	H 	0.46212 0.90090 0.75054 0.04000
C 	C 	0.77500 0.82224 0.75554 -0.04800
C 	C 	0.69456 0.99360 0.75129 -0.04600
C 	C 	0.73885 0.94723 0.75685 0.01400
C 	C 	0.81649 0.84676 0.76904 -0.00200
H 	H 	0.69289 0.04816 0.75736 0.04300
H 	H 	0.84615 0.80770 0.77371 0.03500
H 	H 	0.02618 0.20067 0.77453 0.05900
C 	C 	0.09225 0.76841 0.78123 0.00800
C 	C 	0.15173 0.86145 0.78482 -0.06000
C 	C 	0.16191 0.18841 0.78891 0.27700
O 	O 	0.20847 0.14783 0.79367 -0.36900
C 	C 	0.24199 0.90849 0.77914 -0.01800
O 	O 	0.09351 0.35322 0.81607 -0.10200
O 	O 	0.04921 0.03285 0.80815 -0.70300
H 	H 	0.05154 0.02694 0.79775 0.15700
N 	N 	0.07635 0.34232 0.82967 -0.01400
C 	C 	0.11978 0.90853 0.79474 0.28400
O 	O 	0.11421 0.21139 0.79783 -0.34300
Ni	Ni	0.17742 0.08059 0.81260 1.12200
O 	O 	0.18086 0.96949 0.80401 -0.37600
O 	O 	0.20794 0.20526 0.82132 -0.36300
O 	O 	0.05272 0.87830 0.82556 -0.35400
O 	O 	0.06162 0.16548 0.82875 -0.33700
C 	C 	0.15187 0.21796 0.82983 0.31600
O 	O 	0.15389 0.02738 0.83229 -0.37600
H 	H 	0.28947 0.97925 0.78233 0.04600
H 	H 	0.41289 0.97638 0.76829 0.04300
O 	O 	0.02853 0.87506 0.79611 -0.37500
C 	C 	0.87891 0.95873 0.78923 0.27500
O 	O 	0.92472 0.04956 0.79107 -0.37700
C 	C 	0.82124 0.92237 0.77633 -0.06000
C 	C 	0.77974 0.97046 0.77041 -0.02300
H 	H 	0.78038 0.02686 0.77630 0.05200
H 	H 	0.02497 0.72946 0.78634 0.05000
Ni	Ni	0.99902 0.11222 0.80933 1.11000
Ni	Ni	0.97175 0.90624 0.81256 1.11200
O 	O 	0.87346 0.02894 0.81984 -0.34800
O 	O 	0.86707 0.90124 0.79997 -0.37200
H 	H 	0.74344 0.78547 0.83212 0.06200
C 	C 	0.86283 0.96709 0.82944 0.31700
O 	O 	0.92160 0.93610 0.83018 -0.37500
N 	N 	0.00462 0.78639 0.85362 -0.00500
C 	C 	0.11631 0.93802 0.83441 0.31900
C 	C 	0.10381 0.82614 0.85338 0.10300
C 	C 	0.14885 0.35717 0.83947 0.10700
H 	H 	0.14907 0.47376 0.84948 0.07400
H 	H 	0.10331 0.72883 0.86855 0.06800
C 	C 	0.15932 0.90439 0.84490 -0.07000
C 	C 	0.14617 0.78826 0.86192 -0.02000
C 	C 	0.18096 0.43048 0.84922 -0.01900
C 	C 	0.19005 0.30039 0.83910 -0.06700
O 	O 	0.96779 0.83695 0.85705 -0.10000
C 	C 	0.25672 0.94536 0.84545 -0.02600
H 	H 	0.29975 0.00464 0.83880 0.06400
O 	O 	0.25307 0.70178 0.87287 -0.37900
C 	C 	0.24354 0.82864 0.86231 -0.07400
C 	C 	0.29892 0.90737 0.85396 0.10300
C 	C 	0.26501 0.31999 0.84816 -0.02100
C 	C 	0.25538 0.44949 0.85834 -0.06900
C 	C 	0.28891 0.52743 0.86841 0.31700
H 	H 	0.29658 0.27642 0.84799 0.07100
C 	C 	0.28704 0.79171 0.87212 0.32000
C 	C 	0.29741 0.39365 0.85783 0.10700
N 	N 	0.39782 0.94630 0.85355 -0.02500
O 	O 	0.43392 0.90192 0.84724 -0.08700
O 	O 	0.37773 0.58866 0.86867 -0.34700
N 	N 	0.36989 0.40871 0.86761 -0.02600
O 	O 	0.45173 0.02971 0.85826 -0.09300
O 	O 	0.45653 0.45933 0.86387 -0.09100
O 	O 	0.50476 0.64643 0.84369 -0.08000
C 	C 	0.55506 0.79438 0.86797 0.31900
O 	O 	0.49478 0.82232 0.87043 -0.36400
O 	O 	0.95122 0.69829 0.85139 -0.10800
O 	O 	0.99562 0.32567 0.83442 -0.10300
C 	C 	0.72497 0.82724 0.83876 -0.01900
C 	C 	0.77847 0.92387 0.83827 -0.07400
C 	C 	0.75205 0.97799 0.84648 0.10100
C 	C 	0.67431 0.93470 0.85546 -0.01900
C 	C 	0.62397 0.83796 0.85652 -0.06900
C 	C 	0.64740 0.78408 0.84771 0.10400
N 	N 	0.59151 0.68546 0.84763 -0.02300
H 	H 	0.65606 0.97645 0.86214 0.06900
N 	N 	0.80635 0.07674 0.84625 -0.02000
O 	O 	0.62954 0.63484 0.85020 -0.08400
O 	O 	0.76765 0.12542 0.84273 -0.08500
O 	O 	0.89205 0.11803 0.85075 -0.08400
O 	O 	0.23254 0.52617 0.87846 -0.36400
Ni	Ni	0.25573 0.63715 0.89080 1.12200
O 	O 	0.24808 0.73056 0.90412 -0.37100
O 	O 	0.24793 0.55683 0.90750 -0.37900
O 	O 	0.34961 0.51195 0.89794 -0.34900
O 	O 	0.34953 0.84794 0.88138 -0.36600
O 	O 	0.38693 0.69661 0.89263 -0.71500
H 	H 	0.39001 0.69303 0.90306 0.14900
O 	O 	0.34939 0.36372 0.87959 -0.09500
Ni	Ni	0.44968 0.63285 0.88769 1.12100
Ni	Ni	0.44915 0.82729 0.89027 1.12400
O 	O 	0.56234 0.73667 0.87670 -0.34800
O 	O 	0.53130 0.68974 0.90577 -0.36000
O 	O 	0.56598 0.83740 0.89951 -0.36900
H 	H 	0.10906 0.37645 0.91108 0.05100
C 	C 	0.15506 0.36471 0.91793 -0.00800
C 	C 	0.25118 0.42593 0.91752 -0.06000
C 	C 	0.28905 0.50551 0.90786 0.28400
C 	C 	0.31447 0.78385 0.91343 0.28000
O 	O 	0.40133 0.83999 0.90923 -0.37900
C 	C 	0.56284 0.77767 0.90919 0.28000
H 	H 	0.69105 0.94983 0.91799 0.04300
C 	C 	0.02100 0.23438 0.92875 -0.01700
C 	C 	0.11788 0.28968 0.92738 0.00600
C 	C 	0.17812 0.27310 0.93612 0.01300
H 	H 	0.17306 0.65380 0.92936 0.04200
C 	C 	0.27496 0.33654 0.93575 -0.04900
C 	C 	0.21571 0.71771 0.93509 0.00100
C 	C 	0.31086 0.41118 0.92632 0.00600
C 	C 	0.28875 0.79324 0.92814 -0.06100
C 	C 	0.34285 0.87600 0.93563 -0.01800
H 	H 	0.38511 0.45931 0.92618 0.03700
H 	H 	0.39796 0.93530 0.93018 0.05100
C 	C 	0.98310 0.16763 0.93941 -0.05500
H 	H 	0.97483 0.24609 0.92195 0.03700
C 	C 	0.68604 0.93223 0.94069 -0.05200
C 	C 	0.65919 0.90165 0.92670 0.00500
C 	C 	0.59360 0.80902 0.92393 -0.06500
C 	C 	0.55500 0.74660 0.93528 -0.01800
H 	H 	0.74158 0.00224 0.94236 0.04500
H 	H 	0.50410 0.67489 0.93316 0.04400
H 	H 	0.90828 0.12945 0.94085 0.04400
C 	C 	0.04130 0.15146 0.94836 0.02300
C 	C 	0.13870 0.19845 0.94599 0.00300
H 	H 	0.13697 0.66669 0.95426 0.04500
C 	C 	0.19753 0.72392 0.94949 -0.04700
H 	H 	0.26414 0.19133 0.95057 0.04500
H 	H 	0.32210 0.33179 0.94322 0.04500
C 	C 	0.32527 0.88324 0.95005 0.01300
H 	H 	0.43000 0.02771 0.95160 0.04500
C 	C 	0.58274 0.77609 0.94935 0.01200
C 	C 	0.64562 0.87063 0.95225 0.00400
C 	C 	0.15646 0.11367 0.96568 0.00300
C 	C 	0.19378 0.17077 0.95379 -0.04500
C 	C 	0.03425 0.05318 0.98420 0.27800
O 	O 	0.03268 0.85770 0.99648 -0.38600
C 	C 	0.06310 0.07978 0.96942 -0.06100
O 	O 	0.06945 0.11985 0.99396 -0.36800
H 	H 	0.08725 0.69514 0.99880 0.03500
C 	C 	0.14150 0.75364 0.99312 0.00800
H 	H 	0.15570 0.66911 0.97721 0.04300
C 	C 	0.16911 0.84389 0.99764 -0.06800
H 	H 	0.20114 0.09901 0.97234 0.03400
C 	C 	0.17585 0.73900 0.98035 -0.05100
C 	C 	0.00398 0.09212 0.96010 -0.02000
C 	C 	0.24575 0.91807 0.99109 -0.02100
C 	C 	0.23676 0.81526 0.97190 0.00800
H 	H 	0.27157 0.98757 0.99517 0.03700
C 	C 	0.25443 0.80565 0.95732 0.00500
C 	C 	0.27929 0.90452 0.97810 0.01200
C 	C 	0.35032 0.97979 0.97083 -0.04300
C 	C 	0.37489 0.96862 0.95707 -0.04200
H 	H 	0.38554 0.04760 0.97575 0.04300
H 	H 	0.72652 0.04635 0.96352 0.04800
H 	H 	0.93054 0.06172 0.96262 0.04800
O 	O 	0.95736 0.97269 0.98671 -0.37200
C 	C 	0.75499 0.95047 0.99374 -0.08300
C 	C 	0.76372 0.01847 0.98402 0.02200
C 	C 	0.72213 0.99310 0.97058 -0.06600
C 	C 	0.67292 0.89907 0.96659 0.01200
C 	C 	0.64963 0.83122 0.97728 0.00600
C 	C 	0.69115 0.85725 0.99081 -0.01800
C 	C 	0.58735 0.73813 0.97421 -0.03900
C 	C 	0.55193 0.71127 0.96046 -0.04000
H 	H 	0.80604 0.09109 0.98662 0.03900
H 	H 	0.56660 0.68627 0.98248 0.04000
H 	H 	0.50335 0.63903 0.95831 0.04100
