data_crystal

_cell_length_a 21.69760
_cell_length_b 23.14887
_cell_length_c 82.46817
_cell_angle_alpha 90.04932
_cell_angle_beta  90.02225
_cell_angle_gamma 119.52865

_symmetry_space_group_name_	'P 1'
_symmetry_space_group_name_H-M	'P 1'

loop_
_symmetry_equiv_pos_as_xyz
  x,y,z

loop_
_atom_site_label
_atom_site_type_symbol
_atom_site_fract_x
_atom_site_fract_y
_atom_site_fract_z
_atom_site_charge
C 	C 	0.79314 0.41088 0.59030 0.29500
C 	C 	0.63984 0.21351 0.53879 0.30800
C 	C 	0.81244 0.42341 0.54328 0.30700
C 	C 	0.62431 0.19619 0.58375 0.29600
C 	C 	0.59717 0.38421 0.53948 0.30900
C 	C 	0.56339 0.36128 0.58378 0.29900
Ni	Ni	0.74150 0.30362 0.56425 1.11300
Ni	Ni	0.57941 0.27243 0.56062 1.12000
Ni	Ni	0.70261 0.42207 0.56505 1.12000
O 	O 	0.81282 0.38249 0.57893 -0.37300
O 	O 	0.75187 0.43663 0.58678 -0.38200
O 	O 	0.55269 0.33210 0.54805 -0.38700
O 	O 	0.68586 0.21913 0.54992 -0.37600
O 	O 	0.61025 0.25100 0.53937 -0.38800
O 	O 	0.61234 0.41267 0.57528 -0.38500
O 	O 	0.78196 0.35855 0.54328 -0.37900
O 	O 	0.80039 0.45464 0.55512 -0.38000
O 	O 	0.54696 0.29892 0.58065 -0.39600
O 	O 	0.69303 0.24007 0.58353 -0.38100
O 	O 	0.58078 0.19361 0.57192 -0.37800
O 	O 	0.66537 0.41424 0.54247 -0.39400
O 	O 	0.67372 0.33064 0.56722 -0.71800
H 	H 	0.66729 0.32610 0.57906 0.15300
C 	C 	0.41829 0.81107 0.41893 0.29500
C 	C 	0.22231 0.62050 0.46637 0.30800
C 	C 	0.41771 0.82042 0.46437 0.30900
C 	C 	0.22712 0.60539 0.41970 0.29500
C 	C 	0.42871 0.63265 0.46906 0.31000
C 	C 	0.44947 0.62796 0.42514 0.30100
Ni	Ni	0.30122 0.72628 0.44207 1.11300
Ni	Ni	0.31739 0.59488 0.44512 1.12000
Ni	Ni	0.45568 0.73748 0.44456 1.11900
O 	O 	0.34853 0.77737 0.42103 -0.37800
O 	O 	0.46278 0.81460 0.43066 -0.38000
O 	O 	0.36085 0.61123 0.46720 -0.39400
O 	O 	0.26242 0.68466 0.46455 -0.38100
O 	O 	0.22567 0.57940 0.45584 -0.38400
O 	O 	0.47307 0.69295 0.42565 -0.39400
O 	O 	0.37041 0.81519 0.45366 -0.37500
O 	O 	0.43852 0.77610 0.46492 -0.38800
O 	O 	0.39740 0.58500 0.43478 -0.38600
O 	O 	0.21831 0.64561 0.42984 -0.37500
O 	O 	0.26281 0.57488 0.42406 -0.38400
O 	O 	0.47531 0.67775 0.45915 -0.38700
O 	O 	0.35777 0.68620 0.43987 -0.71800
H 	H 	0.35996 0.68372 0.42797 0.15600
C 	C 	0.22124 0.73699 0.67288 0.29600
C 	C 	0.32936 0.57461 0.64001 0.32100
C 	C 	0.14539 0.55261 0.67182 0.31900
C 	C 	0.39820 0.75930 0.64007 0.29300
C 	C 	0.33383 0.56666 0.69186 0.32000
C 	C 	0.42835 0.75889 0.69428 0.30000
Ni	Ni	0.25466 0.65009 0.65006 1.11200
Ni	Ni	0.39900 0.66887 0.66652 1.12000
Ni	Ni	0.27355 0.65509 0.68920 1.12100
O 	O 	0.19783 0.69181 0.66101 -0.37500
O 	O 	0.25661 0.73252 0.68559 -0.38300
O 	O 	0.39344 0.61738 0.68675 -0.39300
O 	O 	0.29657 0.60592 0.63475 -0.38100
O 	O 	0.34998 0.58036 0.65509 -0.39700
O 	O 	0.36798 0.71184 0.70082 -0.38600
O 	O 	0.18706 0.55798 0.65979 -0.38500
O 	O 	0.16889 0.59747 0.68342 -0.38000
O 	O 	0.44860 0.75286 0.67947 -0.39400
O 	O 	0.32926 0.73868 0.63969 -0.37900
O 	O 	0.42286 0.71943 0.64488 -0.38500
O 	O 	0.27556 0.57050 0.69277 -0.39200
O 	O 	0.31479 0.67379 0.66814 -0.71700
H 	H 	0.33532 0.72238 0.66804 0.15400
C 	C 	0.11927 0.14694 0.75029 0.29500
C 	C 	0.89505 0.98347 0.79863 0.29500
C 	C 	0.12716 0.13669 0.79544 0.30800
C 	C 	0.87608 0.99666 0.75405 0.28800
C 	C 	0.05731 0.92206 0.79192 0.30700
C 	C 	0.03381 0.92747 0.74601 0.30200
Ni	Ni	0.99751 0.08799 0.77549 1.10800
Ni	Ni	0.94618 0.93104 0.77272 1.11700
Ni	Ni	0.11064 0.03665 0.77038 1.12400
O 	O 	0.08552 0.15894 0.76224 -0.37300
O 	O 	0.13152 0.09601 0.75080 -0.38300
O 	O 	0.00256 0.89070 0.78213 -0.38400
O 	O 	0.90699 0.03502 0.78969 -0.37100
O 	O 	0.92881 0.95067 0.79565 -0.38900
O 	O 	0.08794 0.95608 0.75634 -0.38800
O 	O 	0.05810 0.10789 0.79626 -0.37700
O 	O 	0.15763 0.12301 0.78339 -0.37800
O 	O 	0.96786 0.90849 0.75067 -0.39500
O 	O 	0.92728 0.05906 0.75610 -0.38100
O 	O 	0.86801 0.94855 0.76417 -0.38200
O 	O 	0.09737 0.98690 0.79116 -0.39400
O 	O 	0.01619 0.02075 0.76900 -0.71000
H 	H 	0.01161 0.02303 0.75716 0.15600
C 	C 	0.43910 0.72548 0.91607 0.29700
C 	C 	0.29495 0.53891 0.86312 0.30700
C 	C 	0.47131 0.74561 0.87045 0.30800
C 	C 	0.26187 0.51489 0.90907 0.29400
C 	C 	0.25032 0.69851 0.86218 0.30600
C 	C 	0.21817 0.69979 0.90558 0.30200
Ni	Ni	0.38882 0.62098 0.89008 1.11200
Ni	Ni	0.22725 0.59258 0.88549 1.12000
Ni	Ni	0.35386 0.74156 0.88926 1.11900
O 	O 	0.42698 0.66476 0.91253 -0.38000
O 	O 	0.43732 0.76522 0.90463 -0.38200
O 	O 	0.23107 0.63523 0.86392 -0.39200
O 	O 	0.35916 0.58655 0.86655 -0.37900
O 	O 	0.24257 0.52419 0.87329 -0.38000
O 	O 	0.28814 0.73342 0.90730 -0.39600
O 	O 	0.47610 0.70595 0.88110 -0.37600
O 	O 	0.41387 0.75081 0.86952 -0.39000
O 	O 	0.18472 0.64236 0.89740 -0.38400
O 	O 	0.31659 0.52757 0.89955 -0.37200
O 	O 	0.21701 0.53675 0.90542 -0.37700
O 	O 	0.28093 0.74108 0.87409 -0.39900
O 	O 	0.32219 0.65008 0.89195 -0.72000
H 	H 	0.31459 0.64643 0.90376 0.15300
C 	C 	0.77016 0.48309 0.08872 0.29700
C 	C 	0.52963 0.27974 0.12800 0.30900
C 	C 	0.74800 0.45488 0.13379 0.30800
C 	C 	0.53444 0.30576 0.08401 0.29900
C 	C 	0.71848 0.25554 0.12817 0.30700
C 	C 	0.72597 0.27367 0.08149 0.29600
Ni	Ni	0.63463 0.39943 0.10899 1.11200
Ni	Ni	0.61312 0.25170 0.10453 1.12100
Ni	Ni	0.76899 0.37478 0.10822 1.12000
O 	O 	0.72361 0.48327 0.09927 -0.37500
O 	O 	0.79253 0.43899 0.08956 -0.38600
O 	O 	0.67512 0.22232 0.11619 -0.38600
O 	O 	0.53841 0.33096 0.11938 -0.37900
O 	O 	0.57317 0.25607 0.12639 -0.38700
O 	O 	0.77094 0.30446 0.09365 -0.38300
O 	O 	0.67953 0.41838 0.13184 -0.38300
O 	O 	0.79157 0.45430 0.12276 -0.38400
O 	O 	0.65624 0.24363 0.08369 -0.38600
O 	O 	0.57984 0.36904 0.08725 -0.38300
O 	O 	0.53172 0.25624 0.09289 -0.37800
O 	O 	0.75122 0.32073 0.12844 -0.39100
O 	O 	0.67239 0.34506 0.10337 -0.71900
H 	H 	0.67524 0.35086 0.09152 0.15500
C 	C 	0.90967 0.84572 0.20750 0.29400
C 	C 	0.13307 0.05684 0.24714 0.33200
C 	C 	0.91939 0.85777 0.25090 0.31900
C 	C 	0.11341 0.05681 0.20232 0.29000
C 	C 	0.92848 0.04614 0.25423 0.32100
C 	C 	0.90020 0.04485 0.20736 0.30800
Ni	Ni	0.03573 0.94191 0.22694 1.10100
Ni	Ni	0.02965 0.07887 0.22765 1.11400
Ni	Ni	0.88592 0.94013 0.22987 1.11700
O 	O 	0.97919 0.88547 0.20727 -0.37800
O 	O 	0.86701 0.85509 0.21760 -0.38200
O 	O 	0.99606 0.07567 0.25047 -0.38100
O 	O 	0.08647 0.99350 0.24776 -0.40600
O 	O 	0.12459 0.09636 0.23703 -0.39100
O 	O 	0.86568 0.97985 0.21028 -0.39900
O 	O 	0.96762 0.85931 0.24096 -0.37500
O 	O 	0.90365 0.90547 0.25080 -0.39700
O 	O 	0.94831 0.08750 0.21774 -0.38200
O 	O 	0.11737 0.01369 0.21246 -0.37400
O 	O 	0.07539 0.08613 0.20582 -0.38800
O 	O 	0.87990 0.00956 0.24350 -0.38300
O 	O 	0.98322 0.98538 0.22439 -0.71800
H 	H 	0.97809 0.98366 0.21250 0.15900
C 	C 	0.58999 0.22854 0.36380 0.29700
C 	C 	0.86715 0.42148 0.33937 0.32300
C 	C 	0.69086 0.41644 0.36911 0.31900
C 	C 	0.76551 0.23410 0.33387 0.29700
C 	C 	0.70554 0.44388 0.31631 0.31900
C 	C 	0.58330 0.26104 0.31008 0.30300
Ni	Ni	0.74329 0.32400 0.35819 1.11300
Ni	Ni	0.74079 0.33774 0.31909 1.12000
Ni	Ni	0.61882 0.33883 0.34022 1.12000
O 	O 	0.65506 0.23863 0.36608 -0.37600
O 	O 	0.57808 0.27846 0.36022 -0.38200
O 	O 	0.75721 0.43049 0.31796 -0.40000
O 	O 	0.82624 0.41562 0.35162 -0.38500
O 	O 	0.84246 0.37858 0.32736 -0.38300
O 	O 	0.56268 0.26331 0.32508 -0.39500
O 	O 	0.70717 0.37162 0.37394 -0.37600
O 	O 	0.67737 0.42037 0.35384 -0.39500
O 	O 	0.65055 0.29839 0.30520 -0.39000
O 	O 	0.79020 0.27338 0.34690 -0.37200
O 	O 	0.73873 0.24989 0.32120 -0.38200
O 	O 	0.64084 0.40168 0.32124 -0.39400
O 	O 	0.69202 0.31685 0.33917 -0.71800
H 	H 	0.66361 0.26830 0.33798 0.15700
C 	C 	0.89756 0.08268 0.00222 0.29800
C 	C 	0.98418 0.91361 0.96490 0.31900
C 	C 	0.80432 0.89771 0.99490 0.31900
C 	C 	0.07897 0.10107 0.97093 0.29400
C 	C 	0.97392 0.88134 0.01743 0.32700
C 	C 	0.08569 0.06686 0.02428 0.30000
Ni	Ni	0.92689 0.00091 0.97680 1.11800
Ni	Ni	0.05508 0.99001 0.99399 1.11000
Ni	Ni	0.92954 0.98140 0.01562 1.11500
O 	O 	0.87532 0.04572 0.98878 -0.36800
O 	O 	0.92618 0.06701 0.01454 -0.37700
O 	O 	0.03749 0.92679 0.01264 -0.40600
O 	O 	0.96668 0.95814 0.96052 -0.38200
O 	O 	0.99874 0.90891 0.98005 -0.39900
O 	O 	0.02027 0.02307 0.02924 -0.38500
O 	O 	0.84676 0.90687 0.98273 -0.39100
O 	O 	0.82739 0.93751 0.00754 -0.38900
O 	O 	0.10921 0.06450 0.00956 -0.38900
O 	O 	0.01296 0.08980 0.96971 -0.37600
O 	O 	0.09278 0.05202 0.97416 -0.37300
O 	O 	0.91944 0.89069 0.01574 -0.40100
O 	O 	0.97878 0.00769 0.99563 -0.70100
H 	H 	0.00518 0.05615 0.99723 0.15000
C 	C 	0.52777 0.22658 0.29779 -0.11000
C 	C 	0.49958 0.26128 0.28919 0.12900
C 	C 	0.43344 0.22572 0.28160 -0.09800
C 	C 	0.39616 0.15626 0.28189 0.00100
C 	C 	0.42671 0.12126 0.28937 0.05700
C 	C 	0.49226 0.15695 0.29735 -0.02100
N 	N 	0.53544 0.32868 0.28829 -0.20600
H 	H 	0.41090 0.25227 0.27538 0.05600
C 	C 	0.32677 0.12113 0.27355 0.00200
N 	N 	0.39297 0.05374 0.28922 -0.19200
H 	H 	0.51413 0.13039 0.30383 0.03700
C 	C 	0.32591 0.11395 0.25670 -0.10200
C 	C 	0.26459 0.09769 0.24773 0.13100
C 	C 	0.20072 0.08181 0.25598 -0.12100
C 	C 	0.20045 0.08460 0.27297 -0.01700
C 	C 	0.26315 0.10493 0.28186 0.05600
H 	H 	0.37469 0.12598 0.25041 0.05700
N 	N 	0.26801 0.09935 0.23127 -0.20800
H 	H 	0.15142 0.07128 0.27930 0.04100
N 	N 	0.26181 0.10847 0.29831 -0.19200
H 	H 	0.31262 0.10354 0.22535 0.08600
H 	H 	0.23055 0.10366 0.22431 0.11000
H 	H 	0.21492 0.09760 0.30433 0.08100
H 	H 	0.30673 0.12077 0.30531 0.08800
H 	H 	0.41568 0.02838 0.29490 0.08100
H 	H 	0.34419 0.02578 0.28345 0.08700
H 	H 	0.58702 0.35639 0.29261 0.10500
H 	H 	0.51279 0.35399 0.28255 0.08600
C 	C 	0.88248 0.80158 0.26223 -0.11300
C 	C 	0.80734 0.76532 0.26316 0.12600
C 	C 	0.77458 0.71290 0.27427 -0.09800
C 	C 	0.81481 0.69342 0.28370 0.00000
C 	C 	0.88967 0.73089 0.28321 0.05800
C 	C 	0.92278 0.78441 0.27239 -0.02000
N 	N 	0.76636 0.77851 0.25300 -0.20100
H 	H 	0.71723 0.68437 0.27481 0.05500
C 	C 	0.77852 0.62772 0.29171 0.00200
N 	N 	0.92992 0.71584 0.29311 -0.19200
H 	H 	0.98014 0.81292 0.27191 0.04400
C 	C 	0.77099 0.57235 0.28316 -0.09900
C 	C 	0.74121 0.50990 0.29058 0.12800
C 	C 	0.71865 0.50286 0.30694 -0.11800
C 	C 	0.72151 0.55725 0.31513 -0.02000
C 	C 	0.75173 0.62000 0.30770 0.05500
H 	H 	0.78960 0.57815 0.27074 0.05800
N 	N 	0.73487 0.45703 0.28198 -0.20600
H 	H 	0.70359 0.55161 0.32760 0.04100
N 	N 	0.75615 0.67258 0.31607 -0.19200
H 	H 	0.75282 0.46300 0.27001 0.08400
H 	H 	0.71108 0.40946 0.28694 0.08700
H 	H 	0.73695 0.66650 0.32793 0.07900
H 	H 	0.77836 0.71981 0.31092 0.08500
H 	H 	0.98517 0.74258 0.29238 0.08300
H 	H 	0.90696 0.67881 0.30191 0.08800
H 	H 	0.78781 0.81052 0.24318 0.07500
H 	H 	0.71133 0.75368 0.25438 0.08000
C 	C 	0.78551 0.18250 0.33150 -0.10700
C 	C 	0.73776 0.12194 0.32392 0.12800
C 	C 	0.76440 0.08833 0.31463 -0.09700
C 	C 	0.83769 0.11353 0.31338 0.00100
C 	C 	0.88367 0.16558 0.32379 0.06000
C 	C 	0.85717 0.20019 0.33274 -0.02200
N 	N 	0.66666 0.09696 0.32522 -0.20300
H 	H 	0.72853 0.04544 0.30748 0.05800
C 	C 	0.86584 0.09733 0.29879 0.00200
N 	N 	0.95340 0.18367 0.32482 -0.19200
H 	H 	0.89334 0.24413 0.33953 0.04600
C 	C 	0.88999 0.14258 0.28588 -0.09700
C 	C 	0.90983 0.12648 0.27111 0.13400
C 	C 	0.90675 0.06428 0.26938 -0.11500
C 	C 	0.88357 0.01932 0.28235 -0.00700
C 	C 	0.86362 0.03548 0.29714 0.06300
H 	H 	0.89146 0.18988 0.28719 0.06000
N 	N 	0.93038 0.17035 0.25858 -0.20500
H 	H 	0.88169 0.97186 0.28099 0.03600
N 	N 	0.84349 0.99198 0.30973 -0.20400
H 	H 	0.93346 0.21655 0.26009 0.08700
H 	H 	0.94223 0.15882 0.24718 0.09700
H 	H 	0.84065 0.94586 0.30830 0.08100
H 	H 	0.83208 0.00400 0.32112 0.09400
H 	H 	0.98783 0.22393 0.33203 0.08400
H 	H 	0.97341 0.15644 0.31893 0.09000
H 	H 	0.64582 0.11911 0.33285 0.08800
H 	H 	0.63148 0.05352 0.31908 0.08300
C 	C 	0.80730 0.54041 0.07777 -0.10700
C 	C 	0.88210 0.58071 0.07812 0.12800
C 	C 	0.91558 0.63221 0.06680 -0.09900
C 	C 	0.87561 0.64900 0.05645 -0.00000
C 	C 	0.80076 0.60966 0.05631 0.05900
C 	C 	0.76749 0.55511 0.06683 -0.02600
N 	N 	0.92153 0.57273 0.08982 -0.20400
H 	H 	0.97284 0.66250 0.06687 0.05600
C 	C 	0.91216 0.71151 0.04705 0.00300
N 	N 	0.76062 0.62418 0.04622 -0.19200
H 	H 	0.71029 0.52428 0.06659 0.04000
C 	C 	0.92841 0.70903 0.03069 -0.10100
C 	C 	0.95500 0.76606 0.02092 0.13000
C 	C 	0.96615 0.82652 0.02778 -0.12100
C 	C 	0.95626 0.83024 0.04446 -0.01800
C 	C 	0.92826 0.77313 0.05415 0.05600
H 	H 	0.91815 0.66218 0.02542 0.05600
N 	N 	0.96894 0.76226 0.00500 -0.20700
H 	H 	0.96628 0.87704 0.04972 0.03400
N 	N 	0.91538 0.77753 0.07013 -0.19200
H 	H 	0.95805 0.71687 0.99987 0.08400
H 	H 	0.99254 0.80448 0.99768 0.10100
H 	H 	0.92735 0.82327 0.07522 0.08100
H 	H 	0.89335 0.73595 0.07767 0.08800
H 	H 	0.70544 0.59508 0.04629 0.08200
H 	H 	0.78349 0.66414 0.03819 0.08800
H 	H 	0.89804 0.54319 0.09999 0.09600
H 	H 	0.97682 0.60004 0.08941 0.08400
C 	C 	0.47215 0.29108 0.07411 -0.10700
C 	C 	0.46271 0.26228 0.05856 0.12500
C 	C 	0.39604 0.23489 0.05104 -0.09600
C 	C 	0.33895 0.23547 0.05889 0.00100
C 	C 	0.34996 0.26860 0.07394 0.05700
C 	C 	0.41690 0.29690 0.08129 -0.02100
N 	N 	0.51718 0.26065 0.05081 -0.20400
H 	H 	0.38784 0.21087 0.03932 0.05800
C 	C 	0.26667 0.19403 0.05229 0.00200
N 	N 	0.29637 0.27251 0.08149 -0.19200
H 	H 	0.42504 0.32067 0.09304 0.04200
C 	C 	0.23108 0.12578 0.05550 -0.09600
C 	C 	0.16762 0.08297 0.04749 0.12800
C 	C 	0.13825 0.10962 0.03639 -0.10700
C 	C 	0.17017 0.17866 0.03450 -0.02300
C 	C 	0.23511 0.22119 0.04204 0.05700
H 	H 	0.25444 0.10550 0.06377 0.05900
N 	N 	0.13642 0.01642 0.05018 -0.18800
H 	H 	0.14638 0.19912 0.02643 0.03500
N 	N 	0.26708 0.28769 0.03926 -0.19200
H 	H 	0.15935 0.99739 0.05817 0.07000
H 	H 	0.08904 0.98295 0.04456 0.09000
H 	H 	0.24376 0.30713 0.03150 0.07900
H 	H 	0.31486 0.32076 0.04484 0.08500
H 	H 	0.30467 0.29582 0.09277 0.08000
H 	H 	0.24643 0.25347 0.07617 0.08600
H 	H 	0.56815 0.28352 0.05574 0.09100
H 	H 	0.50932 0.23776 0.03948 0.08500
C 	C 	0.75282 0.25700 0.06692 -0.10500
C 	C 	0.75474 0.28639 0.05174 0.12300
C 	C 	0.77785 0.26675 0.03796 -0.09700
C 	C 	0.79806 0.21794 0.03910 0.00100
C 	C 	0.79670 0.18907 0.05434 0.06200
C 	C 	0.77447 0.20933 0.06811 -0.02100
N 	N 	0.73511 0.33368 0.05034 -0.20400
H 	H 	0.77959 0.28913 0.02630 0.05500
C 	C 	0.82143 0.19784 0.02434 0.00000
N 	N 	0.81641 0.14184 0.05583 -0.19200
H 	H 	0.77299 0.18710 0.07978 0.04700
C 	C 	0.89416 0.22742 0.02111 -0.09600
C 	C 	0.92046 0.19416 0.01157 0.12600
C 	C 	0.87303 0.13054 0.00536 -0.10600
C 	C 	0.79995 0.10729 0.00607 -0.02300
C 	C 	0.77353 0.14053 0.01558 0.06000
H 	H 	0.93064 0.27374 0.02702 0.05700
N 	N 	0.99114 0.22267 0.00870 -0.19600
H 	H 	0.76346 0.06039 0.00039 0.04800
N 	N 	0.70242 0.11596 0.01676 -0.19200
H 	H 	0.02644 0.26854 0.01386 0.07600
H 	H 	0.01122 0.20063 0.00082 0.08500
H 	H 	0.66724 0.07208 0.01077 0.08400
H 	H 	0.68152 0.14122 0.02320 0.08800
H 	H 	0.81524 0.12100 0.06715 0.08600
H 	H 	0.83293 0.12517 0.04587 0.09300
H 	H 	0.71939 0.35062 0.06039 0.08800
H 	H 	0.73605 0.35457 0.03905 0.08400
C 	C 	0.77432 0.06430 0.17900 -0.07100
C 	C 	0.81874 0.12742 0.17246 0.02500
C 	C 	0.89074 0.16166 0.17670 -0.06500
C 	C 	0.91776 0.13376 0.18770 0.01900
C 	C 	0.87298 0.07135 0.19461 -0.09000
C 	C 	0.80124 0.03633 0.19001 0.03800
C 	C 	0.78959 0.15832 0.16144 0.01800
H 	H 	0.92564 0.21008 0.17156 0.04800
H 	H 	0.97336 0.16090 0.19094 0.03400
H 	H 	0.76593 0.98826 0.19526 0.01900
H 	H 	0.71869 0.03741 0.17577 0.05000
C 	C 	0.76194 0.12959 0.14628 -0.06200
C 	C 	0.73682 0.16023 0.13559 0.01400
C 	C 	0.73919 0.22003 0.13997 -0.08600
C 	C 	0.76532 0.24783 0.15531 0.01400
C 	C 	0.79044 0.21715 0.16597 -0.06200
H 	H 	0.76095 0.08412 0.14268 0.04700
H 	H 	0.71717 0.13832 0.12378 0.03800
H 	H 	0.76663 0.29342 0.15894 0.03800
H 	H 	0.81093 0.23929 0.17773 0.04600
C 	C 	0.40643 0.17871 0.16183 -0.06300
C 	C 	0.34270 0.17491 0.15681 0.01800
C 	C 	0.34032 0.20469 0.14220 -0.06400
C 	C 	0.40137 0.23896 0.13281 0.01600
C 	C 	0.46542 0.24358 0.13793 -0.09100
C 	C 	0.46751 0.21275 0.15241 0.01500
C 	C 	0.27955 0.14287 0.16727 0.02300
H 	H 	0.29124 0.20162 0.13818 0.04400
H 	H 	0.39877 0.26149 0.12151 0.03400
H 	H 	0.51660 0.21595 0.15646 0.03600
H 	H 	0.40885 0.15616 0.17315 0.04500
C 	C 	0.24949 0.07541 0.17122 -0.07300
C 	C 	0.19268 0.04629 0.18205 0.03400
C 	C 	0.16559 0.08450 0.18906 -0.09300
C 	C 	0.19391 0.15137 0.18454 0.01600
C 	C 	0.25069 0.18038 0.17374 -0.06700
H 	H 	0.27080 0.04582 0.16609 0.04900
H 	H 	0.17067 0.99443 0.18523 0.01100
H 	H 	0.17371 0.18156 0.18985 0.03000
H 	H 	0.27343 0.23247 0.17071 0.04400
C 	C 	0.75460 0.55154 0.17120 -0.06400
C 	C 	0.81419 0.61323 0.16797 0.02000
C 	C 	0.85556 0.62113 0.15421 -0.06400
C 	C 	0.83616 0.56829 0.14344 0.01600
C 	C 	0.77506 0.50700 0.14635 -0.09100
C 	C 	0.73527 0.49853 0.16048 0.01400
C 	C 	0.83448 0.66915 0.17920 0.01900
H 	H 	0.90215 0.66851 0.15174 0.04600
H 	H 	0.86726 0.57572 0.13258 0.03500
H 	H 	0.68859 0.45128 0.16299 0.03600
H 	H 	0.72308 0.54478 0.18195 0.04500
C 	C 	0.79596 0.70325 0.17955 -0.06300
C 	C 	0.81902 0.75990 0.18924 0.01300
C 	C 	0.88080 0.78276 0.19857 -0.08300
C 	C 	0.91753 0.74697 0.19867 0.01600
C 	C 	0.89455 0.69056 0.18900 -0.06300
H 	H 	0.74920 0.68674 0.17206 0.04400
H 	H 	0.79006 0.78692 0.18915 0.03000
H 	H 	0.96447 0.76342 0.20610 0.03100
H 	H 	0.92406 0.66405 0.18894 0.04600
C 	C 	0.72763 0.85529 0.99241 -0.12100
C 	C 	0.70142 0.79336 0.98453 0.13200
C 	C 	0.63933 0.76861 0.97525 -0.10100
C 	C 	0.60266 0.80418 0.97420 0.00200
C 	C 	0.62080 0.85824 0.98481 0.05300
C 	C 	0.68368 0.88363 0.99387 -0.02100
N 	N 	0.73663 0.75852 0.98554 -0.20500
H 	H 	0.62235 0.72427 0.96796 0.05700
C 	C 	0.55663 0.79331 0.95998 -0.00000
N 	N 	0.57987 0.88750 0.98581 -0.19100
H 	H 	0.70134 0.92873 0.00088 0.04200
C 	C 	0.48573 0.74270 0.96052 -0.09800
C 	C 	0.44371 0.72415 0.94647 0.12300
C 	C 	0.47431 0.75508 0.93154 -0.10800
C 	C 	0.54330 0.80918 0.93127 -0.02200
C 	C 	0.58507 0.82857 0.94534 0.05900
H 	H 	0.46350 0.71710 0.97185 0.05300
N 	N 	0.37398 0.67756 0.94740 -0.20400
H 	H 	0.56594 0.83405 0.91989 0.04500
N 	N 	0.65282 0.87986 0.94461 -0.19200
H 	H 	0.35234 0.65305 0.95833 0.08300
H 	H 	0.34011 0.66701 0.93749 0.08700
H 	H 	0.67344 0.90489 0.93369 0.07900
H 	H 	0.68554 0.89582 0.95481 0.08500
H 	H 	0.59519 0.92925 0.99314 0.07600
H 	H 	0.53146 0.86782 0.97971 0.08300
H 	H 	0.78036 0.77396 0.99320 0.09700
H 	H 	0.71885 0.71418 0.97911 0.08300
C 	C 	0.13599 0.16490 0.96493 -0.10600
C 	C 	0.15423 0.22376 0.97366 0.12300
C 	C 	0.18226 0.28437 0.96536 -0.09600
C 	C 	0.19471 0.28713 0.94864 0.00000
C 	C 	0.18764 0.23026 0.94051 0.06000
C 	C 	0.15762 0.16923 0.94874 -0.02200
N 	N 	0.14375 0.22204 0.98994 -0.20500
H 	H 	0.19171 0.32888 0.97179 0.05400
C 	C 	0.20895 0.34778 0.93958 0.00100
N 	N 	0.20823 0.23369 0.92480 -0.19200
H 	H 	0.14661 0.12442 0.94223 0.04600
C 	C 	0.27587 0.40441 0.94084 -0.09800
C 	C 	0.29141 0.46254 0.93234 0.12300
C 	C 	0.24083 0.46228 0.92144 -0.10500
C 	C 	0.17269 0.40669 0.92078 -0.02200
C 	C 	0.15569 0.34983 0.93003 0.06000
H 	H 	0.31563 0.40363 0.94866 0.05500
N 	N 	0.35379 0.51893 0.93510 -0.20500
H 	H 	0.13332 0.40692 0.91271 0.04600
N 	N 	0.08841 0.29767 0.92972 -0.19200
H 	H 	0.39236 0.51814 0.94255 0.08500
H 	H 	0.36258 0.56461 0.93076 0.09500
H 	H 	0.05011 0.29892 0.92226 0.08400
H 	H 	0.07279 0.25641 0.93719 0.09100
H 	H 	0.20052 0.19100 0.91871 0.08400
H 	H 	0.23411 0.27895 0.91866 0.09000
H 	H 	0.12540 0.17797 0.99645 0.08900
H 	H 	0.15574 0.26540 0.99631 0.08000
C 	C 	0.17554 0.72603 0.91333 -0.10800
C 	C 	0.12117 0.73032 0.90473 0.12700
C 	C 	0.08048 0.75343 0.91275 -0.09900
C 	C 	0.09743 0.77845 0.92856 -0.00100
C 	C 	0.15218 0.77506 0.93712 0.05800
C 	C 	0.19007 0.74805 0.92947 -0.02400
N 	N 	0.11015 0.71569 0.88864 -0.20500
H 	H 	0.03829 0.75589 0.90629 0.05600
C 	C 	0.06041 0.81178 0.93565 0.00400
N 	N 	0.16876 0.79777 0.95263 -0.19200
H 	H 	0.23136 0.74454 0.93607 0.04400
C 	C 	0.00107 0.77515 0.94551 -0.10900
C 	C 	0.96968 0.80679 0.95391 0.13300
C 	C 	0.99897 0.87635 0.95253 -0.11900
C 	C 	0.05358 0.91169 0.94138 -0.02400
C 	C 	0.08534 0.88027 0.93304 0.05500
H 	H 	0.98034 0.72220 0.94697 0.05900
N 	N 	0.91150 0.77028 0.96324 -0.20600
H 	H 	0.07469 0.96475 0.94002 0.04200
N 	N 	0.14058 0.91636 0.92287 -0.19200
H 	H 	0.89190 0.71936 0.96478 0.08300
H 	H 	0.88379 0.79161 0.96857 0.09900
H 	H 	0.15900 0.96701 0.92117 0.07900
H 	H 	0.16554 0.89470 0.91649 0.08600
H 	H 	0.20955 0.79541 0.95880 0.08000
H 	H 	0.14143 0.81773 0.95874 0.08400
H 	H 	0.14661 0.70993 0.88162 0.10300
H 	H 	0.06713 0.71487 0.88272 0.08500
C 	C 	0.14622 0.87528 0.82479 -0.06300
C 	C 	0.13508 0.81358 0.81916 0.01900
C 	C 	0.09552 0.78618 0.80498 -0.06300
C 	C 	0.06854 0.82077 0.79632 0.01400
C 	C 	0.08099 0.88325 0.80174 -0.08800
C 	C 	0.11942 0.90999 0.81611 0.01400
C 	C 	0.16580 0.77823 0.82802 0.02000
H 	H 	0.08661 0.73860 0.80054 0.04500
H 	H 	0.03946 0.79971 0.78519 0.03700
H 	H 	0.12882 0.95776 0.82052 0.03600
H 	H 	0.17595 0.89647 0.83584 0.04500
C 	C 	0.23934 0.80849 0.83027 -0.06400
C 	C 	0.26781 0.77916 0.84040 0.01600
C 	C 	0.22307 0.71920 0.84833 -0.09000
C 	C 	0.15002 0.68650 0.84512 0.01500
C 	C 	0.12143 0.71607 0.83506 -0.06400
H 	H 	0.27419 0.85579 0.82461 0.04500
H 	H 	0.32436 0.80451 0.84266 0.03100
H 	H 	0.11492 0.64023 0.85118 0.02700
H 	H 	0.06463 0.69195 0.83327 0.04500
C 	C 	0.17861 0.25652 0.83027 -0.06200
C 	C 	0.22943 0.31547 0.82289 0.01900
C 	C 	0.25395 0.31346 0.80729 -0.06300
C 	C 	0.22435 0.25357 0.79870 0.01500
C 	C 	0.16974 0.19534 0.80565 -0.08900
C 	C 	0.14891 0.19670 0.82169 0.01500
C 	C 	0.25165 0.37965 0.83088 0.02100
H 	H 	0.29377 0.35868 0.80158 0.04600
H 	H 	0.24111 0.25321 0.78634 0.03800
H 	H 	0.10768 0.15192 0.82728 0.03800
H 	H 	0.16023 0.25752 0.84243 0.04800
C 	C 	0.20411 0.40406 0.83204 -0.06300
C 	C 	0.22071 0.45959 0.84165 0.01700
C 	C 	0.28496 0.49114 0.85020 -0.08700
C 	C 	0.33465 0.46948 0.84811 0.01700
C 	C 	0.31791 0.41378 0.83851 -0.06400
H 	H 	0.15327 0.37858 0.82596 0.04700
H 	H 	0.18245 0.47650 0.84296 0.03200
H 	H 	0.38460 0.49357 0.85458 0.03000
H 	H 	0.35527 0.39568 0.83751 0.04600
C 	C 	0.72744 0.94880 0.82076 -0.05800
C 	C 	0.71825 0.89734 0.83121 0.01600
C 	C 	0.76951 0.87714 0.83165 -0.06000
C 	C 	0.82868 0.90713 0.82151 0.00800
C 	C 	0.83679 0.95709 0.81062 -0.08200
C 	C 	0.78626 0.97844 0.81049 -0.00100
C 	C 	0.65428 0.86357 0.84145 0.02100
H 	H 	0.76299 0.83752 0.83969 0.04400
H 	H 	0.86759 0.89075 0.82195 0.03700
H 	H 	0.79167 0.01697 0.80221 0.04500
H 	H 	0.68862 0.96532 0.82047 0.04100
C 	C 	0.66093 0.85960 0.85828 -0.06500
C 	C 	0.60089 0.82234 0.86780 0.01600
C 	C 	0.53352 0.78929 0.86061 -0.09100
C 	C 	0.52646 0.79551 0.84388 0.01600
C 	C 	0.58666 0.83216 0.83431 -0.06400
H 	H 	0.71273 0.88450 0.86394 0.04400
H 	H 	0.60677 0.81872 0.88075 0.03400
H 	H 	0.47465 0.77039 0.83823 0.03500
H 	H 	0.58090 0.83488 0.82133 0.04500
C 	C 	0.48273 0.80819 0.70516 -0.10800
C 	C 	0.52478 0.87500 0.70020 0.12400
C 	C 	0.59021 0.91526 0.70783 -0.09900
C 	C 	0.61309 0.89017 0.72053 0.00100
C 	C 	0.56718 0.82589 0.72671 0.05900
C 	C 	0.50209 0.78566 0.71900 -0.02300
N 	N 	0.50231 0.90076 0.68827 -0.20300
H 	H 	0.62412 0.96559 0.70361 0.05300
C 	C 	0.68637 0.93004 0.72672 -0.00100
N 	N 	0.58579 0.80211 0.73981 -0.19200
H 	H 	0.46856 0.73516 0.72315 0.04400
C 	C 	0.69893 0.97204 0.74003 -0.09700
C 	C 	0.76301 0.99843 0.74863 0.12000
C 	C 	0.81621 0.98388 0.74343 -0.10500
C 	C 	0.80616 0.94730 0.72917 -0.02900
C 	C 	0.74163 0.92017 0.72072 0.06100
H 	H 	0.65716 0.98114 0.74427 0.05300
N 	N 	0.77225 0.03599 0.76208 -0.19900
H 	H 	0.84759 0.93754 0.72501 0.03800
N 	N 	0.73270 0.88395 0.70704 -0.19300
H 	H 	0.73190 0.04488 0.76603 0.08500
H 	H 	0.81953 0.05747 0.76862 0.09800
H 	H 	0.77310 0.87541 0.70294 0.08100
H 	H 	0.68644 0.86527 0.70014 0.08700
H 	H 	0.55214 0.75407 0.74405 0.08200
H 	H 	0.63305 0.83115 0.74606 0.08900
H 	H 	0.45171 0.87349 0.68326 0.08700
H 	H 	0.53447 0.94955 0.68432 0.07900
C 	C 	0.33380 0.50799 0.69857 -0.11500
C 	C 	0.33851 0.50165 0.71551 0.13100
C 	C 	0.31198 0.43825 0.72232 -0.09900
C 	C 	0.28287 0.38164 0.71241 0.00200
C 	C 	0.28714 0.38895 0.69534 0.05700
C 	C 	0.31228 0.45228 0.68857 -0.02000
N 	N 	0.36723 0.55608 0.72528 -0.20600
H 	H 	0.31155 0.43274 0.73538 0.05700
C 	C 	0.24077 0.31549 0.71999 0.00000
N 	N 	0.26677 0.33551 0.68546 -0.19200
H 	H 	0.31125 0.45764 0.67552 0.04500
C 	C 	0.16667 0.28588 0.72017 -0.09600
C 	C 	0.12536 0.22747 0.72902 0.12400
C 	C 	0.15921 0.20014 0.73844 -0.10600
C 	C 	0.23304 0.22776 0.73756 -0.02200
C 	C 	0.27413 0.28470 0.72821 0.05800
H 	H 	0.14113 0.30866 0.71350 0.05800
N 	N 	0.05350 0.19719 0.72814 -0.20500
H 	H 	0.25880 0.20585 0.74450 0.04400
N 	N 	0.34533 0.30938 0.72715 -0.19200
H 	H 	0.02891 0.21904 0.72166 0.08700
H 	H 	0.02153 0.15040 0.73321 0.09400
H 	H 	0.36981 0.28742 0.73363 0.08200
H 	H 	0.37672 0.34916 0.71953 0.08600
H 	H 	0.26790 0.34101 0.67286 0.08000
H 	H 	0.25192 0.28855 0.69014 0.08600
H 	H 	0.39091 0.60396 0.72046 0.09700
H 	H 	0.36830 0.55094 0.73785 0.08400
C 	C 	0.04430 0.89965 0.73096 -0.10800
C 	C 	0.05630 0.93374 0.71606 0.12400
C 	C 	0.07966 0.91253 0.70260 -0.09800
C 	C 	0.09087 0.85798 0.70385 0.00200
C 	C 	0.07541 0.82198 0.71859 0.06100
C 	C 	0.05106 0.84267 0.73190 -0.01900
N 	N 	0.04602 0.98695 0.71462 -0.21200
H 	H 	0.09056 0.93937 0.69124 0.05400
C 	C 	0.12443 0.84243 0.69019 0.00100
N 	N 	0.08563 0.76874 0.72018 -0.19200
H 	H 	0.04059 0.81611 0.74330 0.04500
C 	C 	0.19855 0.87518 0.68930 -0.09800
C 	C 	0.23263 0.84584 0.68103 0.12700
C 	C 	0.19163 0.78197 0.67421 -0.10900
C 	C 	0.11825 0.75584 0.67245 -0.02400
C 	C 	0.08422 0.78630 0.68028 0.05700
H 	H 	0.22959 0.92109 0.69594 0.05600
N 	N 	0.30444 0.87845 0.67988 -0.20200
H 	H 	0.08700 0.70914 0.66614 0.04600
N 	N 	0.01296 0.75996 0.67885 -0.18600
H 	H 	0.33478 0.92438 0.68556 0.08300
H 	H 	0.33042 0.85975 0.67275 0.08700
H 	H 	0.98309 0.71689 0.67202 0.07500
H 	H 	0.98703 0.78331 0.68403 0.08100
H 	H 	0.07341 0.74233 0.73107 0.08400
H 	H 	0.10654 0.75344 0.71080 0.09200
H 	H 	0.02582 0.00216 0.72418 0.09500
H 	H 	0.05681 0.01291 0.70368 0.09100
C 	C 	0.49353 0.60498 0.41692 -0.10800
C 	C 	0.46568 0.55703 0.40439 0.12500
C 	C 	0.50612 0.52939 0.39845 -0.09600
C 	C 	0.57385 0.54931 0.40471 -0.00000
C 	C 	0.60231 0.59842 0.41698 0.05800
C 	C 	0.56209 0.62636 0.42281 -0.02100
N 	N 	0.40097 0.53829 0.39782 -0.20400
H 	H 	0.48496 0.49245 0.38889 0.05500
C 	C 	0.61505 0.51952 0.39799 0.00200
N 	N 	0.66740 0.61792 0.42344 -0.19200
H 	H 	0.58319 0.66312 0.43242 0.04200
C 	C 	0.66592 0.55401 0.38602 -0.10100
C 	C 	0.69928 0.52368 0.37789 0.13100
C 	C 	0.67795 0.45638 0.38110 -0.12000
C 	C 	0.63206 0.42404 0.39410 -0.02100
C 	C 	0.60071 0.45527 0.40270 0.05600
H 	H 	0.67910 0.60434 0.38294 0.05600
N 	N 	0.75195 0.55934 0.36711 -0.20500
H 	H 	0.61762 0.37319 0.39695 0.04500
N 	N 	0.55666 0.42324 0.41532 -0.19200
H 	H 	0.76499 0.60795 0.36415 0.08300
H 	H 	0.78254 0.54024 0.36216 0.10100
H 	H 	0.54472 0.37502 0.41840 0.08200
H 	H 	0.53549 0.44642 0.42248 0.08800
H 	H 	0.68820 0.65473 0.43237 0.08200
H 	H 	0.69753 0.59622 0.41988 0.08700
H 	H 	0.37166 0.56105 0.40121 0.09200
H 	H 	0.38011 0.50169 0.38884 0.08300
C 	C 	0.94391 0.46396 0.34133 -0.13000
C 	C 	0.97194 0.53144 0.34556 0.15400
C 	C 	0.03339 0.56271 0.35511 -0.12600
C 	C 	0.06692 0.52736 0.36024 0.01300
C 	C 	0.04675 0.46465 0.35328 0.03300
C 	C 	0.98535 0.43357 0.34369 0.00400
N 	N 	0.93868 0.56550 0.34094 -0.20900
H 	H 	0.05181 0.61264 0.35959 0.05800
C 	C 	0.10899 0.54818 0.37536 -0.00400
N 	N 	0.08456 0.43326 0.35622 -0.18900
H 	H 	0.96618 0.38317 0.33946 0.04200
C 	C 	0.07340 0.52758 0.39023 -0.09700
C 	C 	0.11104 0.54479 0.40490 0.12800
C 	C 	0.18571 0.58457 0.40463 -0.11000
C 	C 	0.22142 0.60415 0.38975 -0.02500
C 	C 	0.18368 0.58758 0.37508 0.05600
H 	H 	0.01615 0.49718 0.39037 0.05400
N 	N 	0.07537 0.52155 0.41911 -0.20500
H 	H 	0.27878 0.63229 0.38959 0.03300
N 	N 	0.21938 0.60927 0.36083 -0.19300
H 	H 	0.02008 0.49360 0.41918 0.08300
H 	H 	0.10191 0.52912 0.43014 0.10300
H 	H 	0.27457 0.63829 0.36076 0.07800
H 	H 	0.19289 0.59803 0.34972 0.08200
H 	H 	0.06785 0.38584 0.35153 0.07500
H 	H 	0.13197 0.45642 0.36273 0.08500
H 	H 	0.89488 0.54412 0.33319 0.10000
H 	H 	0.95792 0.61463 0.34464 0.08700
C 	C 	0.44609 0.86071 0.40563 -0.10600
C 	C 	0.40308 0.85398 0.39205 0.12500
C 	C 	0.41424 0.91089 0.38359 -0.09600
C 	C 	0.47470 0.97225 0.38665 -0.01000
C 	C 	0.52524 0.97616 0.39814 0.05500
C 	C 	0.50935 0.92088 0.40793 -0.02400
N 	N 	0.35330 0.79304 0.38674 -0.20100
H 	H 	0.37701 0.90705 0.37430 0.05100
C 	C 	0.48186 0.03304 0.37885 0.01400
N 	N 	0.58880 0.03258 0.39980 -0.18800
H 	H 	0.54522 0.92549 0.41764 0.04600
C 	C 	0.47650 0.08041 0.38849 -0.10200
C 	C 	0.50136 0.14524 0.38271 0.13200
C 	C 	0.53043 0.16194 0.36697 -0.11400
C 	C 	0.52108 0.11100 0.35633 -0.02100
C 	C 	0.50100 0.04734 0.36230 0.05500
H 	H 	0.45743 0.06810 0.40085 0.06100
N 	N 	0.49950 0.19166 0.39248 -0.20600
H 	H 	0.53839 0.12307 0.34385 0.03500
N 	N 	0.50336 0.00162 0.35231 -0.18500
H 	H 	0.48062 0.17980 0.40436 0.08400
H 	H 	0.51456 0.23923 0.38819 0.09900
H 	H 	0.51634 0.01251 0.34007 0.07900
H 	H 	0.49361 0.95547 0.35657 0.07700
H 	H 	0.62456 0.03600 0.40876 0.08500
H 	H 	0.60463 0.07232 0.39179 0.09200
H 	H 	0.35177 0.75012 0.39116 0.09000
H 	H 	0.31911 0.78834 0.37726 0.08200
C 	C 	0.51348 0.37218 0.59354 -0.10800
C 	C 	0.53464 0.40742 0.60836 0.12400
C 	C 	0.49112 0.42916 0.61561 -0.09600
C 	C 	0.42713 0.41616 0.60830 -0.00000
C 	C 	0.40344 0.37635 0.59417 0.05800
C 	C 	0.44691 0.35455 0.58695 -0.02100
N 	N 	0.59641 0.42044 0.61566 -0.20400
H 	H 	0.50822 0.45826 0.62667 0.05600
C 	C 	0.39063 0.45166 0.61428 0.00300
N 	N 	0.33953 0.35950 0.58742 -0.19200
H 	H 	0.43021 0.32620 0.57577 0.04200
C 	C 	0.41303 0.51604 0.60864 -0.10000
C 	C 	0.38957 0.55621 0.61608 0.12900
C 	C 	0.34073 0.53032 0.62911 -0.11900
C 	C 	0.31314 0.46366 0.63365 -0.01700
C 	C 	0.33826 0.42418 0.62649 0.05400
H 	H 	0.45161 0.53610 0.59892 0.05800
N 	N 	0.41586 0.62000 0.61101 -0.20700
H 	H 	0.27460 0.44344 0.64338 0.04100
N 	N 	0.31231 0.36033 0.63147 -0.19200
H 	H 	0.45228 0.63859 0.60149 0.08500
H 	H 	0.40066 0.65173 0.61638 0.10300
H 	H 	0.27441 0.34079 0.64068 0.07900
H 	H 	0.32838 0.32912 0.62607 0.08600
H 	H 	0.32326 0.33146 0.57675 0.08200
H 	H 	0.30476 0.37268 0.59285 0.08700
H 	H 	0.62804 0.40199 0.61099 0.09100
H 	H 	0.61251 0.44792 0.62641 0.08400
C 	C 	0.06848 0.51030 0.66955 -0.12300
C 	C 	0.04161 0.44735 0.66217 0.13900
C 	C 	0.98116 0.42320 0.65232 -0.10900
C 	C 	0.94693 0.46061 0.65023 0.00500
C 	C 	0.96445 0.51534 0.66056 0.04800
C 	C 	0.02544 0.53982 0.67025 -0.01300
N 	N 	0.07493 0.41117 0.66412 -0.20500
H 	H 	0.96423 0.37821 0.64531 0.05800
C 	C 	0.90633 0.45190 0.63515 -0.00000
N 	N 	0.92495 0.54617 0.66063 -0.19000
H 	H 	0.04299 0.58544 0.67704 0.04700
C 	C 	0.83427 0.40411 0.63467 -0.09700
C 	C 	0.79548 0.39115 0.62019 0.12200
C 	C 	0.82985 0.42688 0.60599 -0.10700
C 	C 	0.90131 0.47585 0.60659 -0.02100
C 	C 	0.94021 0.48858 0.62099 0.05800
H 	H 	0.80853 0.37635 0.64554 0.05400
N 	N 	0.72579 0.34388 0.61998 -0.20300
H 	H 	0.92718 0.50335 0.59569 0.04400
N 	N 	0.01013 0.53534 0.62109 -0.19000
H 	H 	0.70110 0.31745 0.63050 0.08400
H 	H 	0.69532 0.33305 0.60945 0.08500
H 	H 	0.03440 0.56214 0.61059 0.08100
H 	H 	0.04126 0.54545 0.63148 0.08500
H 	H 	0.93991 0.58835 0.66778 0.07800
H 	H 	0.87789 0.52726 0.65402 0.08500
H 	H 	0.11766 0.42666 0.67209 0.09800
H 	H 	0.05663 0.36585 0.65810 0.08600
C 	C 	0.60110 0.13737 0.59413 -0.10600
C 	C 	0.54361 0.11688 0.60500 0.12400
C 	C 	0.51860 0.05657 0.61337 -0.09900
C 	C 	0.55149 0.01783 0.61144 0.00800
C 	C 	0.61188 0.04064 0.60141 0.05600
C 	C 	0.63557 0.09984 0.59270 -0.02000
N 	N 	0.51320 0.15524 0.60768 -0.20500
H 	H 	0.47300 0.03941 0.62128 0.05800
C 	C 	0.51766 0.95038 0.61851 -0.00700
N 	N 	0.64717 0.00591 0.60005 -0.18800
H 	H 	0.68036 0.11623 0.58456 0.04300
C 	C 	0.46935 0.89680 0.60906 -0.09600
C 	C 	0.43434 0.83233 0.61543 0.12700
C 	C 	0.44637 0.82175 0.63177 -0.10800
C 	C 	0.49771 0.87469 0.64094 -0.03000
C 	C 	0.53349 0.93920 0.63448 0.06000
H 	H 	0.45900 0.90534 0.59668 0.05500
N 	N 	0.38983 0.78080 0.60578 -0.20400
H 	H 	0.50782 0.86621 0.65334 0.04200
N 	N 	0.58262 0.98994 0.64365 -0.19700
H 	H 	0.37988 0.78933 0.59387 0.08400
H 	H 	0.36643 0.73178 0.60979 0.09500
H 	H 	0.59379 0.98117 0.65543 0.07900
H 	H 	0.61072 0.03828 0.63916 0.09000
H 	H 	0.69071 0.02232 0.59230 0.08200
H 	H 	0.63299 0.96335 0.60693 0.08300
H 	H 	0.53416 0.20263 0.60269 0.09300
H 	H 	0.46942 0.13876 0.61536 0.08500
C 	C 	0.48540 0.45546 0.52365 -0.06400
C 	C 	0.52295 0.48862 0.50965 0.01900
C 	C 	0.58320 0.48482 0.50509 -0.06300
C 	C 	0.60633 0.44910 0.51458 0.01500
C 	C 	0.56911 0.41642 0.52865 -0.09000
C 	C 	0.50817 0.41934 0.53306 0.01600
C 	C 	0.49833 0.52622 0.49962 0.02100
H 	H 	0.61207 0.50953 0.49420 0.04600
H 	H 	0.65332 0.44710 0.51103 0.03500
H 	H 	0.47954 0.39515 0.54402 0.03500
H 	H 	0.43897 0.45823 0.52731 0.04600
C 	C 	0.42961 0.49423 0.49314 -0.06500
C 	C 	0.40628 0.52946 0.48357 0.01800
C 	C 	0.45165 0.59708 0.48025 -0.09000
C 	C 	0.52027 0.62927 0.48685 0.01800
C 	C 	0.54342 0.59404 0.49654 -0.06400
H 	H 	0.39451 0.44187 0.49538 0.04500
H 	H 	0.35348 0.50375 0.47843 0.02600
H 	H 	0.55567 0.68145 0.48447 0.03200
H 	H 	0.59634 0.61939 0.50162 0.04500
C 	C 	0.55663 0.96197 0.48911 -0.06300
C 	C 	0.51858 0.99239 0.49474 0.01300
C 	C 	0.44731 0.96646 0.49029 -0.06300
C 	C 	0.41426 0.91028 0.48037 0.01700
C 	C 	0.45215 0.87940 0.47488 -0.09000
C 	C 	0.52358 0.90567 0.47927 0.01600
C 	C 	0.55270 0.05006 0.50569 0.02600
H 	H 	0.41739 0.98942 0.49467 0.04300
H 	H 	0.35907 0.89034 0.47712 0.03100
H 	H 	0.55367 0.88284 0.47492 0.02600
H 	H 	0.61180 0.98191 0.49240 0.04300
C 	C 	0.57852 0.04393 0.52082 -0.05700
C 	C 	0.60913 0.09799 0.53141 0.01400
C 	C 	0.61391 0.15866 0.52702 -0.09000
C 	C 	0.58928 0.16514 0.51175 0.01500
C 	C 	0.55888 0.11106 0.50112 -0.06400
H 	H 	0.57386 0.99697 0.52445 0.04000
H 	H 	0.62732 0.09214 0.54322 0.03800
H 	H 	0.59325 0.21186 0.50816 0.03600
H 	H 	0.53979 0.11644 0.48939 0.04800
C 	C 	0.08181 0.61186 0.49499 -0.06300
C 	C 	0.04903 0.54531 0.49989 0.01600
C 	C 	0.07486 0.50403 0.49426 -0.06300
C 	C 	0.13221 0.52880 0.48355 0.01500
C 	C 	0.16427 0.59513 0.47837 -0.08800
C 	C 	0.13915 0.63672 0.48430 0.01500
C 	C 	0.98652 0.51835 0.51059 0.02400
H 	H 	0.05027 0.45269 0.49812 0.04400
H 	H 	0.15156 0.49639 0.47926 0.03200
H 	H 	0.16311 0.68795 0.48040 0.03100
H 	H 	0.06219 0.64406 0.49927 0.04300
C 	C 	0.99241 0.54304 0.52641 -0.06200
C 	C 	0.93413 0.51462 0.53686 0.01400
C 	C 	0.86963 0.46108 0.53160 -0.08800
C 	C 	0.86302 0.43843 0.51555 0.01600
C 	C 	0.92117 0.46694 0.50510 -0.06400
H 	H 	0.04253 0.58311 0.53071 0.04400
H 	H 	0.93996 0.53245 0.54923 0.03600
H 	H 	0.81326 0.39765 0.51130 0.03700
H 	H 	0.91579 0.44838 0.49282 0.04800
