data_crystal

_cell_length_a 19.92296
_cell_length_b 21.33528
_cell_length_c 71.21381
_cell_angle_alpha 90.16237
_cell_angle_beta  90.15521
_cell_angle_gamma 119.39466

_symmetry_space_group_name_	'P 1'
_symmetry_space_group_name_H-M	'P 1'

loop_
_symmetry_equiv_pos_as_xyz
  x,y,z

loop_
_atom_site_label
_atom_site_type_symbol
_atom_site_fract_x
_atom_site_fract_y
_atom_site_fract_z
_atom_site_charge
C 	C 	0.05599 0.51622 0.06068 0.02900
C 	C 	0.03780 0.54090 0.07713 -0.06000
H 	H 	0.01765 0.37568 0.05920 0.04300
H 	H 	0.08184 0.60246 0.10256 0.03700
S 	S 	0.06985 0.65559 0.14139 -0.03800
H 	H 	0.01291 0.58510 0.14051 0.03900
H 	H 	0.03651 0.15125 0.19692 0.04400
C 	C 	0.08290 0.70422 0.17748 -0.07100
H 	H 	0.03786 0.71650 0.17371 0.05400
S 	S 	0.05621 0.20423 0.21016 -0.03800
C 	C 	0.04283 0.74970 0.21892 -0.07900
H 	H 	0.00358 0.69234 0.21994 0.05900
C 	C 	0.07371 0.92390 0.24097 0.31500
O 	O 	0.00865 0.92520 0.24128 -0.37500
C 	C 	0.08175 0.87251 0.22859 -0.09700
C 	C 	0.03052 0.79770 0.22989 0.07700
O 	O 	0.09370 0.17028 0.25313 -0.37400
O 	O 	0.02300 0.89134 0.28015 -0.36800
O 	O 	0.03364 0.02433 0.27087 -0.71800
H 	H 	0.03212 0.02353 0.28470 0.15800
C 	C 	0.07606 0.92707 0.29337 0.29300
O 	O 	0.05481 0.14075 0.29033 -0.37400
C 	C 	0.08944 0.88522 0.30789 -0.08700
C 	C 	0.03063 0.84041 0.32042 0.06400
C 	C 	0.04644 0.80400 0.33460 -0.07300
H 	H 	0.00159 0.77039 0.34439 0.05700
H 	H 	0.04206 0.72901 0.47031 0.04800
C 	C 	0.08976 0.69029 0.49168 0.02800
C 	C 	0.02201 0.66326 0.50407 0.00100
C 	C 	0.00284 0.71120 0.51291 -0.03800
H 	H 	0.03578 0.76833 0.51008 0.04000
H 	H 	0.07509 0.90509 0.70962 0.03800
Ni	Ni	0.02796 0.06348 0.77514 1.11400
Ni	Ni	0.01437 0.90842 0.77447 1.11500
O 	O 	0.06710 0.05313 0.75015 -0.39900
O 	O 	0.07302 0.94755 0.79854 -0.38300
H 	H 	0.00493 0.28921 0.86516 0.02700
C 	C 	0.08871 0.71902 0.47405 -0.06600
C 	C 	0.09659 0.58734 0.08933 0.01500
C 	C 	0.10612 0.77526 0.20683 0.01900
C 	C 	0.11357 0.02636 0.74848 0.30400
O 	O 	0.11117 0.97881 0.76065 -0.37600
O 	O 	0.11781 0.06637 0.78971 -0.38400
C 	C 	0.11236 0.01768 0.80223 0.28400
H 	H 	0.10194 0.08049 0.83394 0.03700
C 	C 	0.11078 0.67488 0.16403 0.05700
C 	C 	0.13418 0.15856 0.24044 0.31300
C 	C 	0.12965 0.16526 0.29319 0.29300
C 	C 	0.13331 0.54298 0.05572 -0.06600
C 	C 	0.11777 0.72382 0.19523 0.01200
O 	O 	0.14258 0.10150 0.24149 -0.38000
Ni	Ni	0.13769 0.05307 0.26700 1.11000
O 	O 	0.12999 0.96422 0.25261 -0.37000
O 	O 	0.13013 0.99525 0.29102 -0.37100
C 	C 	0.12087 0.81339 0.33675 0.01500
C 	C 	0.14453 0.89797 0.21632 0.00500
H 	H 	0.12994 0.69138 0.33769 0.05300
H 	H 	0.14557 0.32022 0.36471 0.05400
S 	S 	0.13703 0.92519 0.72135 -0.04100
H 	H 	0.14785 0.52552 0.04281 0.04800
C 	C 	0.15598 0.24599 0.21462 0.05700
C 	C 	0.15692 0.84992 0.20543 -0.00900
S 	S 	0.15233 0.31356 0.28195 -0.03800
S 	S 	0.15213 0.39902 0.39780 -0.04700
H 	H 	0.15327 0.65773 0.51015 0.04700
C 	C 	0.13914 0.78230 0.35322 0.01200
H 	H 	0.14158 0.74892 0.44684 0.03600
C 	C 	0.14522 0.73043 0.46076 0.01800
C 	C 	0.15114 0.67860 0.49644 -0.06700
C 	C 	0.17372 0.60872 0.08520 -0.09000
H 	H 	0.18295 0.32877 0.19404 0.05400
C 	C 	0.17419 0.66525 0.16838 -0.08600
C 	C 	0.18586 0.21813 0.22816 -0.09400
C 	C 	0.17269 0.70354 0.20046 -0.00200
H 	H 	0.18408 0.95528 0.21533 0.04100
O 	O 	0.17216 0.15067 0.28139 -0.37100
C 	C 	0.16955 0.22344 0.30693 -0.08600
C 	C 	0.17828 0.29221 0.30369 0.05800
C 	C 	0.16290 0.89192 0.30958 -0.00000
H 	H 	0.19163 0.15737 0.32606 0.03600
C 	C 	0.14605 0.72033 0.35094 -0.06900
C 	C 	0.15919 0.81930 0.37054 -0.00400
S 	S 	0.14926 0.89608 0.37406 -0.03600
H 	H 	0.16969 0.36478 0.41161 0.03900
C 	C 	0.17847 0.06065 0.73527 -0.09200
C 	C 	0.16663 0.04204 0.81807 -0.08400
C 	C 	0.15305 0.07472 0.83359 -0.01000
C 	C 	0.19662 0.20970 0.32373 -0.00600
H 	H 	0.20657 0.21767 0.37167 0.03500
C 	C 	0.17913 0.85709 0.32402 -0.00700
C 	C 	0.17820 0.69835 0.36526 0.05000
C 	C 	0.19195 0.58926 0.06791 0.01900
C 	C 	0.20043 0.36968 0.36476 -0.07400
C 	C 	0.19263 0.01972 0.72186 0.05100
H 	H 	0.21327 0.89242 0.17260 0.03900
C 	C 	0.20605 0.30715 0.20439 -0.07300
S 	S 	0.19155 0.62362 0.36147 -0.04000
H 	H 	0.20001 0.28128 0.50760 0.03900
C 	C 	0.20886 0.34471 0.31778 -0.07100
S 	S 	0.18782 0.14279 0.86770 -0.04400
C 	C 	0.20015 0.67370 0.18702 -0.00500
H 	H 	0.20788 0.92526 0.29979 0.04300
C 	C 	0.19008 0.79662 0.38494 -0.00100
C 	C 	0.20268 0.71260 0.46499 -0.09000
C 	C 	0.20710 0.68932 0.48312 0.01900
H 	H 	0.21175 0.16768 0.74526 0.03300
H 	H 	0.19669 0.00459 0.89142 0.03600
O 	O 	0.20940 0.61104 0.14315 -0.37900
H 	H 	0.21251 0.33542 0.26967 0.04500
H 	H 	0.21305 0.39675 0.31552 0.05500
C 	C 	0.22866 0.26277 0.33771 -0.00500
C 	C 	0.21749 0.42014 0.37912 0.06000
C 	C 	0.20556 0.10067 0.84855 -0.00400
C 	C 	0.20202 0.73774 0.38220 -0.08400
O 	O 	0.20759 0.66821 0.40817 -0.37800
C 	C 	0.22669 0.66970 0.15339 0.29300
S 	S 	0.23623 0.88381 0.19010 -0.03000
S 	S 	0.21088 0.71945 0.22339 -0.03600
C 	C 	0.23257 0.32993 0.33496 0.01300
H 	H 	0.20726 0.82628 0.39808 0.04200
H 	H 	0.22733 0.21656 0.53256 0.03800
C 	C 	0.22224 0.13603 0.73494 -0.00100
C 	C 	0.23306 0.03446 0.81763 0.05000
C 	C 	0.23107 0.63414 0.10037 0.31100
H 	H 	0.21421 0.95557 0.36781 0.03900
H 	H 	0.22293 0.21541 0.86460 0.03600
H 	H 	0.25139 0.60622 0.06447 0.03400
O 	O 	0.26109 0.59406 0.10523 -0.39400
O 	O 	0.24411 0.69097 0.11043 -0.38300
H 	H 	0.24644 0.66302 0.19067 0.03800
C 	C 	0.26582 0.25101 0.23100 0.00000
C 	C 	0.25403 0.38222 0.35055 0.01400
H 	H 	0.26417 0.64654 0.35467 0.03700
S 	S 	0.26393 0.24478 0.35852 -0.04200
O 	O 	0.25541 0.56323 0.39654 -0.37800
C 	C 	0.24609 0.72266 0.39631 0.29100
Ni	Ni	0.24964 0.60884 0.42096 1.12100
O 	O 	0.26597 0.53162 0.43355 -0.38100
C 	C 	0.24870 0.70598 0.44983 0.31000
O 	O 	0.24392 0.64326 0.44680 -0.39300
H 	H 	0.25588 0.31535 0.46480 0.04700
H 	H 	0.25491 0.40158 0.44188 0.03400
H 	H 	0.25185 0.67635 0.48661 0.03300
C 	C 	0.25867 0.29277 0.51003 -0.03800
C 	C 	0.24964 0.05468 0.70824 -0.07200
H 	H 	0.26029 0.02325 0.69789 0.05000
S 	S 	0.25351 0.99650 0.79796 -0.02900
S 	S 	0.25761 0.00316 0.88296 -0.04200
C 	C 	0.28581 0.34125 0.20761 0.01400
H 	H 	0.28896 0.22974 0.24143 0.03400
H 	H 	0.27325 0.78728 0.22442 0.03900
S 	S 	0.27330 0.87040 0.32640 -0.03600
C 	C 	0.27479 0.41931 0.45609 0.01700
C 	C 	0.27552 0.37047 0.46906 -0.06800
C 	C 	0.27419 0.25618 0.52418 -0.03900
H 	H 	0.26193 0.15274 0.67215 0.05100
C 	C 	0.27763 0.17086 0.72104 -0.00700
C 	C 	0.27235 0.09369 0.84803 0.01100
O 	O 	0.27931 0.73493 0.14787 -0.38400
H 	H 	0.27843 0.81664 0.31708 0.03500
H 	H 	0.29220 0.04898 0.78488 0.03900
Ni	Ni	0.28794 0.58619 0.13183 1.12100
H 	H 	0.28848 0.28629 0.16220 0.03700
C 	C 	0.28792 0.48552 0.37890 -0.08700
O 	O 	0.28480 0.75925 0.43793 -0.38600
C 	C 	0.29161 0.13009 0.70761 0.01200
H 	H 	0.28887 0.28832 0.70865 0.03500
C 	C 	0.28513 0.05978 0.83267 -0.07100
O 	O 	0.32279 0.57239 0.15730 -0.38400
C 	C 	0.31583 0.31259 0.22088 -0.00700
H 	H 	0.32951 0.47677 0.21889 0.05400
C 	C 	0.32582 0.44603 0.35078 -0.00500
C 	C 	0.30595 0.54067 0.39343 0.29300
C 	C 	0.31789 0.54589 0.44673 0.30800
C 	C 	0.30429 0.49185 0.46117 -0.09000
C 	C 	0.32964 0.51398 0.47964 0.01800
C 	C 	0.30534 0.39380 0.48718 0.02800
C 	C 	0.32997 0.46512 0.49260 -0.06700
C 	C 	0.31933 0.34655 0.49969 -0.00100
H 	H 	0.30689 0.28454 0.56361 0.04600
C 	C 	0.33682 0.40857 0.19752 0.01300
O 	O 	0.31825 0.77363 0.39972 -0.38400
C 	C 	0.32295 0.17369 0.67470 -0.07500
S 	S 	0.32746 0.26555 0.72027 -0.04200
H 	H 	0.33677 0.05490 0.83219 0.05100
C 	C 	0.33150 0.09193 0.87905 -0.00500
O 	O 	0.34707 0.53795 0.12140 -0.38000
Ni	Ni	0.34336 0.75170 0.12489 1.12100
C 	C 	0.34800 0.47421 0.20474 -0.07200
C 	C 	0.34217 0.49751 0.36488 -0.00600
H 	H 	0.35149 0.56960 0.48377 0.03400
H 	H 	0.35221 0.48334 0.50665 0.04800
C 	C 	0.35061 0.27379 0.52820 0.00000
H 	H 	0.33018 0.15228 0.62730 0.04000
C 	C 	0.33303 0.12836 0.86247 0.01300
S 	S 	0.34068 0.21073 0.63762 -0.04200
C 	C 	0.34843 0.16593 0.69247 0.01300
H 	H 	0.36421 0.53028 0.07149 0.03200
S 	S 	0.35870 0.32659 0.17074 -0.04200
C 	C 	0.36514 0.40653 0.17955 -0.00500
O 	O 	0.36450 0.55612 0.40515 -0.37000
H 	H 	0.35268 0.68138 0.40281 0.15900
O 	O 	0.35353 0.67900 0.41662 -0.72000
C 	C 	0.34763 0.26478 0.56311 -0.06500
O 	O 	0.36915 0.68245 0.13383 -0.71800
H 	H 	0.36861 0.69016 0.14746 0.16100
C 	C 	0.37774 0.53522 0.19331 0.05700
C 	C 	0.36929 0.24871 0.54578 0.02600
S 	S 	0.38806 0.61624 0.20241 -0.05200
Ni	Ni	0.37716 0.77427 0.42268 1.12100
C 	C 	0.37563 0.20724 0.66013 0.05600
O 	O 	0.38645 0.60259 0.44544 -0.38000
H 	H 	0.37096 0.27962 0.59274 0.03400
C 	C 	0.39147 0.57852 0.16038 0.29600
S 	S 	0.39614 0.46129 0.33378 -0.03900
C 	C 	0.39486 0.36013 0.50272 -0.03800
C 	C 	0.39581 0.46791 0.16821 -0.00400
C 	C 	0.39606 0.53049 0.17445 -0.08900
H 	H 	0.39700 0.54700 0.36491 0.03800
C 	C 	0.38413 0.26218 0.57963 0.01600
H 	H 	0.38600 0.09889 0.90566 0.04600
C 	C 	0.39879 0.56637 0.10803 0.30900
H 	H 	0.39502 0.22563 0.84648 0.05200
C 	C 	0.39323 0.19823 0.85943 -0.07400
C 	C 	0.38878 0.12668 0.89272 -0.00500
H 	H 	0.39153 0.07404 0.00594 0.04600
C 	C 	0.40444 0.51506 0.07732 0.01900
O 	O 	0.40004 0.76298 0.10064 -0.38900
H 	H 	0.39418 0.75577 0.19168 0.03900
H 	H 	0.39340 0.78358 0.35497 0.03700
H 	H 	0.39304 0.12423 0.97471 0.03300
S 	S 	0.41569 0.35357 0.22506 -0.04000
C 	C 	0.41051 0.32414 0.51693 -0.03800
H 	H 	0.41008 0.10651 0.04721 0.03900
H 	H 	0.41263 0.46482 0.15392 0.04300
C 	C 	0.41885 0.52062 0.09671 -0.09100
S 	S 	0.41290 0.82663 0.19180 -0.04800
C 	C 	0.42065 0.22132 0.54548 -0.06400
H 	H 	0.42742 0.02476 0.06870 0.03700
Ni	Ni	0.43001 0.65313 0.42001 1.11300
O 	O 	0.42909 0.77466 0.44719 -0.38800
C 	C 	0.42774 0.19329 0.69578 -0.00500
H 	H 	0.43977 0.43157 0.33972 0.03700
H 	H 	0.43592 0.20642 0.53227 0.04500
H 	H 	0.43912 0.49691 0.05020 0.04800
O 	O 	0.44297 0.63604 0.10705 -0.37900
H 	H 	0.44189 0.40091 0.49461 0.04000
C 	C 	0.43422 0.15806 0.98529 0.01600
C 	C 	0.43376 0.12937 0.00296 -0.06400
C 	C 	0.44732 0.49667 0.06525 -0.06600
O 	O 	0.44050 0.83319 0.13757 -0.37500
H 	H 	0.44744 0.32570 0.21286 0.03600
S 	S 	0.44218 0.84747 0.36367 -0.04200
C 	C 	0.44290 0.24409 0.57894 -0.08200
O 	O 	0.45043 0.61358 0.14856 -0.37000
C 	C 	0.44840 0.19769 0.88998 -0.09100
H 	H 	0.46111 0.65721 0.20943 0.03800
C 	C 	0.45525 0.23498 0.66347 -0.09400
C 	C 	0.45124 0.23296 0.87289 0.05500
C 	C 	0.45776 0.21949 0.56202 0.01000
C 	C 	0.45924 0.09828 0.04552 -0.04100
S 	S 	0.46138 0.18204 0.71772 -0.03700
C 	C 	0.46908 0.05198 0.05769 -0.03500
H 	H 	0.47070 0.80095 0.06217 0.03300
C 	C 	0.47022 0.49968 0.10409 0.01700
Ni	Ni	0.47049 0.70032 0.13070 1.11300
H 	H 	0.46968 0.33816 0.51984 0.03900
H 	H 	0.47627 0.23927 0.72913 0.03700
C 	C 	0.47511 0.80003 0.10011 0.30800
H 	H 	0.48107 0.50292 0.11908 0.03000
H 	H 	0.47456 0.77657 0.48519 0.03400
H 	H 	0.47946 0.38108 0.04654 0.03900
C 	C 	0.47988 0.82619 0.15190 0.29100
O 	O 	0.48148 0.71447 0.39639 -0.37500
O 	O 	0.47983 0.81520 0.40842 -0.37300
C 	C 	0.48062 0.22864 0.68141 -0.00100
H 	H 	0.49104 0.90431 0.04273 0.05000
C 	C 	0.49323 0.16917 0.01585 0.02500
C 	C 	0.49583 0.85406 0.06845 0.01900
C 	C 	0.49537 0.77563 0.44773 0.30900
O 	O 	0.49829 0.77423 0.15224 -0.37500
C 	C 	0.49710 0.78239 0.39478 0.29000
O 	O 	0.49562 0.21747 0.60634 -0.38300
C 	C 	0.49477 0.22605 0.98040 -0.08200
C 	C 	0.50487 0.48364 0.07250 0.02800
H 	H 	0.50199 0.20398 0.56142 0.03000
C 	C 	0.49917 0.26684 0.59430 0.28800
C 	C 	0.50680 0.91253 0.05747 -0.06800
C 	C 	0.50439 0.23543 0.90541 0.30800
O 	O 	0.50346 0.27422 0.94918 -0.36500
C 	C 	0.51090 0.13128 0.03070 0.00200
C 	C 	0.51133 0.86304 0.08780 -0.09200
C 	C 	0.51362 0.48181 0.09201 -0.06700
C 	C 	0.50786 0.87956 0.18377 0.05300
O 	O 	0.51297 0.74220 0.43481 -0.37500
C 	C 	0.51100 0.26096 0.64791 0.31300
O 	O 	0.51621 0.79051 0.11311 -0.37000
O 	O 	0.51383 0.31045 0.63637 -0.38300
H 	H 	0.51127 0.37061 0.87376 0.04300
O 	O 	0.51316 0.19735 0.91874 -0.38100
C 	C 	0.52355 0.88778 0.16443 -0.08500
S 	S 	0.52825 0.31902 0.86767 -0.03400
C 	C 	0.52291 0.23759 0.96107 0.28400
C 	C 	0.53043 0.03811 0.05506 -0.00800
C 	C 	0.53317 0.98037 0.06576 0.03300
C 	C 	0.53159 0.81669 0.48071 0.01900
O 	O 	0.53058 0.30456 0.90785 -0.37900
C 	C 	0.53778 0.42589 0.04633 -0.03800
C 	C 	0.53484 0.85680 0.36548 0.05100
O 	O 	0.54026 0.33690 0.59798 -0.38500
H 	H 	0.54153 0.24940 0.68401 0.04600
C 	C 	0.54514 0.24175 0.01215 -0.06400
C 	C 	0.54465 0.93232 0.09570 0.01400
C 	C 	0.54478 0.27053 0.99454 0.00600
C 	C 	0.55305 0.82025 0.46185 -0.09200
O 	O 	0.55408 0.23112 0.64517 -0.39600
C 	C 	0.55489 0.99072 0.08475 -0.06000
H 	H 	0.55720 0.94000 0.11060 0.03700
H 	H 	0.55674 0.47026 0.09777 0.04600
C 	C 	0.55478 0.82734 0.38079 -0.08400
C 	C 	0.56166 0.48107 0.05973 -0.00100
H 	H 	0.55792 0.89899 0.21154 0.05200
H 	H 	0.55960 0.78631 0.31138 0.03600
O 	O 	0.55954 0.20324 0.95533 -0.37900
H 	H 	0.56452 0.86501 0.50810 0.04800
H 	H 	0.56734 0.38946 0.02116 0.04100
C 	C 	0.56875 0.91106 0.19671 -0.06800
H 	H 	0.57242 0.91284 0.33913 0.05300
H 	H 	0.57029 0.15941 0.87126 0.04400
C 	C 	0.57445 0.12021 0.02869 -0.04000
H 	H 	0.57648 0.04322 0.09121 0.04100
C 	C 	0.58411 0.07379 0.04081 -0.03500
C 	C 	0.58264 0.86659 0.49370 -0.06600
Ni	Ni	0.58338 0.35906 0.93236 1.11300
H 	H 	0.58975 0.27392 0.02226 0.04300
C 	C 	0.58779 0.43035 0.03202 -0.03800
C 	C 	0.58847 0.89197 0.35117 -0.07100
Ni	Ni	0.58790 0.21968 0.61959 1.12000
H 	H 	0.58964 0.32439 0.99116 0.02800
C 	C 	0.59608 0.94173 0.15845 -0.00600
H 	H 	0.59436 0.50649 0.64823 0.03300
H 	H 	0.99204 0.55182 0.50069 0.03900
C 	C 	0.71731 0.55365 0.00100 -0.06400
C 	C 	0.76794 0.27823 0.00720 -0.06500
C 	C 	0.73070 0.45003 0.00890 -0.06400
C 	C 	0.84745 0.30406 0.00890 0.02500
H 	H 	0.70350 0.59507 0.00496 0.04800
H 	H 	0.73576 0.28215 0.01895 0.04300
H 	H 	0.86932 0.43814 0.01420 0.04200
H 	H 	0.61424 0.14489 0.01719 0.04100
C 	C 	0.70900 0.50109 0.01403 0.02500
C 	C 	0.89113 0.35428 0.02423 0.00000
C 	C 	0.89953 0.42360 0.02442 -0.03800
H 	H 	0.72702 0.41055 0.01899 0.04300
C 	C 	0.66232 0.48992 0.03103 0.00100
C 	C 	0.95069 0.47560 0.03699 -0.03700
C 	C 	0.93260 0.33678 0.03712 -0.03800
H 	H 	0.95838 0.52950 0.03666 0.04000
H 	H 	0.92673 0.28353 0.03704 0.03800
H 	H 	0.63173 0.06356 0.03870 0.03800
C 	C 	0.99460 0.45903 0.04931 -0.00200
C 	C 	0.98419 0.38900 0.04963 -0.04100
C 	C 	0.68772 0.54307 0.04506 -0.03900
H 	H 	0.74517 0.58912 0.04447 0.03900
C 	C 	0.63761 0.53862 0.05938 -0.03700
H 	H 	0.65667 0.58145 0.06970 0.04000
H 	H 	0.97818 0.52162 0.08087 0.04300
H 	H 	0.60727 0.95218 0.14358 0.04200
S 	S 	0.74962 0.03663 0.16335 -0.04900
H 	H 	0.75971 0.10471 0.16507 0.03600
C 	C 	0.64447 0.95369 0.19034 0.00900
C 	C 	0.65709 0.97408 0.17132 0.00300
C 	C 	0.73749 0.91574 0.20141 -0.07500
H 	H 	0.71162 0.87113 0.19157 0.05600
C 	C 	0.70950 0.96452 0.20254 0.02400
C 	C 	0.74394 0.02313 0.21509 -0.01400
C 	C 	0.79907 0.92466 0.21276 0.05900
S 	S 	0.71103 0.08595 0.21657 -0.04300
S 	S 	0.83599 0.86517 0.21011 -0.04200
H 	H 	0.80008 0.80932 0.22246 0.03900
C 	C 	0.89296 0.98969 0.23885 0.32000
O 	O 	0.95450 0.05288 0.24096 -0.40200
C 	C 	0.80509 0.03175 0.22658 -0.00300
C 	C 	0.83235 0.98231 0.22567 -0.09000
H 	H 	0.83070 0.07629 0.23645 0.03400
H 	H 	0.65229 0.06239 0.22931 0.03400
Ni	Ni	0.99931 0.09143 0.26634 1.11600
O 	O 	0.87804 0.93717 0.25073 -0.38600
S 	S 	0.95280 0.76319 0.24570 -0.08700
H 	H 	0.97664 0.75089 0.26268 0.04500
Ni	Ni	0.95888 0.92753 0.26579 1.11700
O 	O 	0.89685 0.03102 0.27985 -0.38600
C 	C 	0.88093 0.97798 0.29202 0.29500
O 	O 	0.90289 0.92915 0.28900 -0.38800
H 	H 	0.74615 0.85550 0.29472 0.04400
C 	C 	0.75449 0.89324 0.30592 -0.00700
C 	C 	0.82061 0.96137 0.30614 -0.07500
C 	C 	0.70031 0.87270 0.32033 -0.00100
C 	C 	0.83034 0.01087 0.32051 0.03300
S 	S 	0.62034 0.78524 0.32014 -0.03900
S 	S 	0.91303 0.09650 0.32142 -0.04700
S 	S 	0.93838 0.83227 0.31915 -0.06000
C 	C 	0.71129 0.92116 0.33505 0.00400
C 	C 	0.77511 0.99079 0.33474 -0.04900
H 	H 	0.97081 0.09209 0.33075 0.03600
H 	H 	0.93739 0.88613 0.32947 0.04200
C 	C 	0.66125 0.89665 0.35181 0.01600
H 	H 	0.78348 0.02824 0.34601 0.04300
C 	C 	0.68224 0.87014 0.36757 -0.00500
H 	H 	0.77141 0.81873 0.35985 0.03700
C 	C 	0.62920 0.83616 0.38198 -0.00200
S 	S 	0.77359 0.87631 0.36899 -0.04100
H 	H 	0.64505 0.81460 0.39391 0.04100
C 	C 	0.62748 0.87182 0.45626 0.01800
H 	H 	0.64467 0.87483 0.44172 0.03600
C 	C 	0.67827 0.92235 0.46923 -0.06600
H 	H 	0.73433 0.96402 0.46463 0.04800
C 	C 	0.65525 0.92097 0.48788 0.02700
C 	C 	0.70137 0.04634 0.49868 -0.04500
C 	C 	0.70212 0.98129 0.50065 0.00500
H 	H 	0.67719 0.05639 0.48616 0.03900
C 	C 	0.72488 0.09537 0.51360 -0.03700
C 	C 	0.73534 0.96970 0.51672 -0.03200
H 	H 	0.83229 0.22318 0.53835 0.04500
H 	H 	0.71825 0.14269 0.51249 0.03800
H 	H 	0.73776 0.92032 0.51819 0.03900
C 	C 	0.97833 0.58933 0.50766 -0.03900
C 	C 	0.91851 0.56380 0.52067 -0.03700
C 	C 	0.74960 0.07975 0.53055 0.00100
C 	C 	0.75968 0.01914 0.53157 -0.04600
H 	H 	0.78095 0.00765 0.54439 0.03900
C 	C 	0.90106 0.61186 0.53013 0.00100
C 	C 	0.94241 0.68558 0.52587 -0.03800
H 	H 	0.88741 0.50691 0.52389 0.03900
H 	H 	0.75147 0.50461 0.52947 0.04500
C 	C 	0.74861 0.11707 0.54794 0.02600
C 	C 	0.79155 0.19244 0.54924 -0.06500
C 	C 	0.77283 0.52484 0.54345 -0.06300
H 	H 	0.92906 0.72312 0.53295 0.03900
C 	C 	0.77934 0.22839 0.56419 0.01200
H 	H 	0.81072 0.28664 0.56476 0.03000
C 	C 	0.84576 0.58581 0.54588 0.02600
H 	H 	0.67792 0.43550 0.55705 0.02900
C 	C 	0.69676 0.07792 0.56227 -0.06600
H 	H 	0.66333 0.01978 0.56144 0.04500
C 	C 	0.87086 0.61318 0.56406 -0.06300
C 	C 	0.73081 0.48593 0.55909 0.01100
H 	H 	0.92620 0.66105 0.56615 0.04800
C 	C 	0.70347 0.22637 0.59216 0.28900
C 	C 	0.73492 0.45598 0.59247 0.28600
O 	O 	0.75836 0.27200 0.60385 -0.36700
O 	O 	0.62901 0.20213 0.59541 -0.38400
O 	O 	0.77129 0.41836 0.59465 -0.37300
H 	H 	0.64973 0.31887 0.60139 0.15500
C 	C 	0.72405 0.18915 0.57787 -0.08200
C 	C 	0.68462 0.11377 0.57715 0.01700
H 	H 	0.64300 0.08298 0.58788 0.03100
C 	C 	0.82814 0.57486 0.57967 0.01600
C 	C 	0.76076 0.50853 0.57722 -0.07900
H 	H 	0.85093 0.59354 0.59366 0.03800
Ni	Ni	0.75950 0.35851 0.61849 1.11400
Ni	Ni	0.60707 0.37664 0.62086 1.12100
O 	O 	0.69241 0.46125 0.60620 -0.37200
O 	O 	0.65265 0.31900 0.61520 -0.71800
C 	C 	0.71134 0.23959 0.64623 0.31300
O 	O 	0.78692 0.45328 0.63311 -0.37100
O 	O 	0.66557 0.19870 0.63271 -0.38300
H 	H 	0.73378 0.12503 0.64456 0.04500
C 	C 	0.74037 0.45828 0.64531 0.31300
O 	O 	0.66674 0.41143 0.64516 -0.38800
O 	O 	0.75179 0.30944 0.64404 -0.37800
C 	C 	0.74319 0.14837 0.65852 -0.00200
S 	S 	0.78536 0.04850 0.66808 -0.04400
S 	S 	0.66662 0.55609 0.64235 -0.06100
C 	C 	0.77084 0.12204 0.67280 -0.00600
C 	C 	0.73000 0.20621 0.66202 -0.09300
H 	H 	0.72014 0.98596 0.67264 0.04200
H 	H 	0.96887 0.18139 0.67524 0.03900
S 	S 	0.92053 0.78633 0.67635 -0.03300
C 	C 	0.76988 0.51996 0.65829 -0.09700
C 	C 	0.73505 0.56372 0.65924 0.06400
H 	H 	0.99086 0.78956 0.67550 0.03900
C 	C 	0.74109 0.23543 0.68033 0.05800
C 	C 	0.83033 0.53282 0.67063 0.00200
C 	C 	0.75694 0.61585 0.67336 -0.07400
H 	H 	0.85835 0.50036 0.66967 0.03800
H 	H 	0.72871 0.64812 0.67439 0.05600
C 	C 	0.81875 0.12947 0.70580 0.01500
C 	C 	0.89839 0.15319 0.70679 -0.00600
C 	C 	0.78668 0.15446 0.69072 0.01300
S 	S 	0.96277 0.21659 0.69070 -0.03300
C 	C 	0.77035 0.21007 0.69447 -0.07300
S 	S 	0.71541 0.30138 0.68594 -0.03800
H 	H 	0.77749 0.36840 0.68328 0.04400
C 	C 	0.83393 0.67902 0.70165 0.01300
C 	C 	0.87926 0.75347 0.69849 -0.00600
C 	C 	0.81527 0.62680 0.68616 0.01600
H 	H 	0.92853 0.85933 0.71072 0.04700
C 	C 	0.85341 0.58618 0.68450 -0.00900
C 	C 	0.90708 0.04532 0.74756 0.30900
C 	C 	0.89092 0.82900 0.74697 0.31200
Ni	Ni	0.85924 0.92200 0.77343 1.11500
O 	O 	0.87751 0.97541 0.74815 -0.37200
O 	O 	0.95338 0.08617 0.76099 -0.37400
O 	O 	0.84001 0.83025 0.75845 -0.37100
O 	O 	0.96440 0.87485 0.74900 -0.38100
C 	C 	0.76919 0.08182 0.71933 -0.07600
C 	C 	0.92692 0.12623 0.72072 0.00000
C 	C 	0.87689 0.07664 0.73386 -0.09400
C 	C 	0.79791 0.05612 0.73350 0.06200
H 	H 	0.98789 0.14318 0.72120 0.04200
S 	S 	0.73513 0.00095 0.75116 -0.06300
H 	H 	0.70824 0.06492 0.71884 0.05300
H 	H 	0.78027 0.23349 0.70842 0.05400
H 	H 	0.70444 0.93023 0.74596 0.03700
C 	C 	0.80403 0.65407 0.71958 -0.07300
C 	C 	0.89378 0.80205 0.71321 -0.00000
C 	C 	0.86551 0.77716 0.73128 -0.09300
C 	C 	0.82048 0.70248 0.73446 0.05600
S 	S 	0.78652 0.66866 0.75704 -0.03600
H 	H 	0.76884 0.59678 0.72199 0.05200
S 	S 	0.93005 0.60173 0.69966 -0.03500
H 	H 	0.71380 0.65940 0.75888 0.03900
H 	H 	0.90124 0.56055 0.71544 0.03600
H 	H 	0.86088 0.17350 0.77733 0.04600
O 	O 	0.92585 0.82071 0.78747 -0.37000
O 	O 	0.85367 0.00563 0.78790 -0.36900
O 	O 	0.97969 0.07733 0.79856 -0.37500
O 	O 	0.96446 0.96331 0.77893 -0.71100
H 	H 	0.96295 0.96208 0.79275 0.16100
S 	S 	0.92087 0.19623 0.78983 -0.03600
H 	H 	0.67780 0.65420 0.79196 0.03600
C 	C 	0.87735 0.82250 0.80011 0.29000
C 	C 	0.90409 0.04989 0.80063 0.29100
O 	O 	0.84115 0.85987 0.79717 -0.37000
C 	C 	0.87735 0.08329 0.81456 -0.08200
C 	C 	0.88629 0.15220 0.81144 0.05600
H 	H 	0.87346 0.23890 0.82312 0.05300
S 	S 	0.70158 0.71540 0.80246 -0.04200
C 	C 	0.86600 0.18566 0.82547 -0.07100
C 	C 	0.83543 0.15053 0.84249 0.01100
C 	C 	0.84555 0.04757 0.83143 -0.01400
H 	H 	0.83804 0.99430 0.83377 0.04600
H 	H 	0.70595 0.15960 0.84257 0.05300
H 	H 	0.78787 0.54563 0.84325 0.05300
C 	C 	0.90578 0.77062 0.82822 -0.00700
C 	C 	0.85120 0.77046 0.81570 -0.08300
C 	C 	0.77190 0.72272 0.81872 0.05800
C 	C 	0.74854 0.67740 0.83433 -0.07200
H 	H 	0.96659 0.80739 0.82605 0.04500
H 	H 	0.68779 0.64039 0.83651 0.05300
C 	C 	0.82388 0.08052 0.84535 -0.00000
C 	C 	0.81214 0.18611 0.85683 0.01500
C 	C 	0.71731 0.21685 0.86837 0.05700
C 	C 	0.74175 0.18508 0.85480 -0.07400
S 	S 	0.63185 0.22007 0.86424 -0.03600
C 	C 	0.77128 0.55463 0.85706 -0.07400
C 	C 	0.77724 0.62118 0.86138 0.01300
C 	C 	0.74304 0.49926 0.87027 0.05600
C 	C 	0.80310 0.67696 0.84668 0.01300
S 	S 	0.73253 0.41531 0.86360 -0.03400
C 	C 	0.88217 0.72420 0.84367 -0.00400
S 	S 	0.95200 0.72581 0.85917 -0.03300
H 	H 	0.79855 0.41324 0.86783 0.04400
H 	H 	0.97176 0.67559 0.85352 0.03800
S 	S 	0.78192 0.03353 0.86620 -0.03900
C 	C 	0.86030 0.22198 0.87227 -0.00900
C 	C 	0.83531 0.25235 0.88614 -0.00200
C 	C 	0.76283 0.24821 0.88465 -0.09300
S 	S 	0.95184 0.22904 0.87442 -0.02800
H 	H 	0.83852 0.04912 0.87930 0.03800
C 	C 	0.75429 0.63255 0.87918 -0.00600
C 	C 	0.72126 0.51077 0.88836 -0.09200
C 	C 	0.69910 0.45608 0.90337 0.30800
C 	C 	0.73236 0.27000 0.90087 0.31100
O 	O 	0.73415 0.41779 0.90438 -0.38900
O 	O 	0.65879 0.23146 0.90489 -0.39400
H 	H 	0.87136 0.27737 0.89835 0.04700
C 	C 	0.72651 0.57748 0.89255 -0.00400
S 	S 	0.76145 0.71586 0.88500 -0.03500
Ni	Ni	0.75817 0.38405 0.92866 1.12000
Ni	Ni	0.61654 0.22361 0.93076 1.12100
O 	O 	0.78110 0.31763 0.91300 -0.38600
O 	O 	0.65037 0.45154 0.91651 -0.37200
H 	H 	0.71064 0.58716 0.90637 0.04600
H 	H 	0.83357 0.76090 0.89204 0.03900
O 	O 	0.71002 0.22785 0.94381 -0.37800
O 	O 	0.75953 0.46658 0.94392 -0.37400
O 	O 	0.65262 0.32332 0.93452 -0.71500
H 	H 	0.65756 0.32465 0.94828 0.14200
C 	C 	0.71150 0.45657 0.95801 0.28500
C 	C 	0.75484 0.27946 0.95589 0.28600
O 	O 	0.78985 0.34837 0.95112 -0.38500
O 	O 	0.63614 0.42503 0.95525 -0.37400
H 	H 	0.88497 0.27424 0.96424 0.03400
C 	C 	0.77581 0.26038 0.97382 -0.08200
C 	C 	0.85139 0.27320 0.97630 0.01700
C 	C 	0.74165 0.48829 0.97649 -0.08200
H 	H 	0.73222 0.58365 0.97189 0.03400
C 	C 	0.73187 0.25507 0.98970 0.00600
C 	C 	0.88737 0.29539 0.99382 -0.06400
H 	H 	0.67226 0.24171 0.98808 0.03000
H 	H 	0.94815 0.31257 0.99518 0.04800
C 	C 	0.73426 0.54753 0.98226 0.01700
C 	C 	0.74880 0.44483 0.99020 0.00600
H 	H 	0.75840 0.40108 0.98601 0.03100
