data_crystal

_cell_length_a 37.33757
_cell_length_b 37.38057
_cell_length_c 20.50255
_cell_angle_alpha 91.12688
_cell_angle_beta  90.09797
_cell_angle_gamma 89.93783

_symmetry_space_group_name_	'P 1'
_symmetry_space_group_name_H-M	'P 1'

loop_
_symmetry_equiv_pos_as_xyz
  x,y,z

loop_
_atom_site_label
_atom_site_type_symbol
_atom_site_fract_x
_atom_site_fract_y
_atom_site_fract_z
_atom_site_charge
Cd	Cd	0.11513 0.84193 0.19566 1.24700
Cd	Cd	0.09893 0.88771 0.34645 1.15500
O 	O 	0.14529 0.78404 0.20567 -0.31300
O 	O 	0.12329 0.80140 0.11228 -0.29500
C 	C 	0.14030 0.77688 0.14427 0.31100
O 	O 	0.08179 0.89024 0.16891 -0.37400
O 	O 	0.09834 0.92356 0.25957 -0.46300
C 	C 	0.07826 0.91922 0.20702 0.27400
C 	C 	0.05616 0.82084 0.27330 0.28100
O 	O 	0.15098 0.86607 0.29740 -0.45200
O 	O 	0.05451 0.80615 0.21520 -0.26700
O 	O 	0.08562 0.83784 0.28630 -0.54500
C 	C 	0.17163 0.88280 0.25686 0.29400
O 	O 	0.16625 0.87631 0.19496 -0.34700
Cd	Cd	0.12070 0.90671 0.96752 1.24300
Cd	Cd	0.09726 0.96687 0.84083 1.17000
O 	O 	0.16701 0.86308 0.93539 -0.31000
O 	O 	0.14280 0.86276 0.03228 -0.32700
C 	C 	0.16237 0.84575 0.98885 0.30200
O 	O 	0.08481 0.94798 0.01727 -0.34500
O 	O 	0.05730 0.96382 0.92189 -0.44600
C 	C 	0.06511 0.97076 0.98349 0.24000
C 	C 	0.16655 0.96465 0.93964 0.30100
O 	O 	0.09550 0.90529 0.84765 -0.44200
O 	O 	0.17660 0.95026 0.99445 -0.30000
O 	O 	0.14162 0.94795 0.90787 -0.54800
C 	C 	0.06915 0.88590 0.86881 0.29700
O 	O 	0.07133 0.87630 0.92944 -0.32600
C 	C 	0.15674 0.70033 0.90268 0.17500
N 	N 	0.16726 0.69699 0.83933 -0.13100
C 	C 	0.15932 0.66681 0.80406 0.13500
N 	N 	0.14090 0.63998 0.83247 -0.14200
C 	C 	0.13012 0.64331 0.89553 0.12900
N 	N 	0.13822 0.67339 0.93062 -0.14000
C 	C 	0.13695 0.64163 0.21136 0.17400
N 	N 	0.14574 0.64900 0.27463 -0.13000
C 	C 	0.13650 0.62598 0.32219 0.13500
N 	N 	0.11918 0.59509 0.30616 -0.14300
C 	C 	0.11031 0.58767 0.24301 0.13300
N 	N 	0.11901 0.61110 0.19584 -0.14600
Cd	Cd	0.89253 0.97610 0.71067 1.24000
Cd	Cd	0.93863 0.99109 0.86070 1.16000
O 	O 	0.83658 0.94382 0.72451 -0.31900
O 	O 	0.85064 0.96618 0.62952 -0.33700
C 	C 	0.82774 0.94829 0.66421 0.32100
O 	O 	0.94024 0.01095 0.68512 -0.37900
O 	O 	0.97430 0.99355 0.77267 -0.45800
C 	C 	0.96996 0.01360 0.72097 0.26700
C 	C 	0.86804 0.03132 0.79719 0.27800
O 	O 	0.91910 0.93926 0.80713 -0.44700
O 	O 	0.85445 0.03490 0.73902 -0.28400
O 	O 	0.88760 0.00306 0.80484 -0.54000
C 	C 	0.93624 0.92013 0.76338 0.30300
O 	O 	0.92869 0.92659 0.70267 -0.35800
Cd	Cd	0.90046 0.88896 0.49449 1.24300
Cd	Cd	0.95840 0.90632 0.36200 1.15100
O 	O 	0.85114 0.84833 0.46535 -0.30800
O 	O 	0.85531 0.87241 0.56288 -0.35200
C 	C 	0.83513 0.85561 0.52003 0.33200
O 	O 	0.94726 0.91830 0.54137 -0.37200
O 	O 	0.96360 0.94512 0.44627 -0.47500
C 	C 	0.97115 0.93587 0.50644 0.27300
C 	C 	0.95146 0.83692 0.45650 0.30000
O 	O 	0.89734 0.91600 0.37621 -0.45200
O 	O 	0.93745 0.82808 0.51237 -0.28200
O 	O 	0.93639 0.86334 0.42750 -0.55500
C 	C 	0.88172 0.94388 0.40302 0.28100
O 	O 	0.87581 0.94216 0.46535 -0.36000
C 	C 	0.68846 0.93751 0.72287 0.17500
N 	N 	0.69384 0.92943 0.78649 -0.13000
C 	C 	0.66791 0.93622 0.83133 0.13500
N 	N 	0.63629 0.95071 0.81232 -0.14400
C 	C 	0.63057 0.95833 0.74851 0.13500
N 	N 	0.65679 0.95181 0.70397 -0.14400
C 	C 	0.69905 0.88673 0.41810 0.17100
N 	N 	0.66986 0.90407 0.44276 -0.13300
C 	C 	0.64634 0.92017 0.40194 0.13900
N 	N 	0.65100 0.91714 0.33643 -0.14200
C 	C 	0.67881 0.89800 0.31149 0.13800
N 	N 	0.70317 0.88326 0.35232 -0.13900
Cd	Cd	0.94111 0.10926 0.23656 1.24100
Cd	Cd	0.95766 0.04966 0.36643 1.17000
O 	O 	0.91147 0.16460 0.27292 -0.31100
O 	O 	0.93268 0.15852 0.17383 -0.36000
C 	C 	0.91773 0.17950 0.21769 0.34100
O 	O 	0.97515 0.06456 0.19161 -0.37400
O 	O 	0.95803 0.02328 0.26705 -0.44800
C 	C 	0.97890 0.03268 0.21858 0.26700
C 	C 	0.99966 0.12336 0.32199 0.30200
O 	O 	0.90568 0.07603 0.32706 -0.44400
O 	O 	0.00178 0.14245 0.26961 -0.29500
O 	O 	0.97084 0.10437 0.32709 -0.53900
C 	C 	0.88458 0.06348 0.28140 0.30000
O 	O 	0.88994 0.07515 0.22270 -0.34900
Cd	Cd	0.94942 0.17242 0.00240 1.25100
Cd	Cd	0.94532 0.11751 0.86120 1.15700
O 	O 	0.91586 0.22920 0.00034 -0.30500
O 	O 	0.94740 0.21352 0.08503 -0.31500
C 	C 	0.92843 0.23821 0.05736 0.31900
O 	O 	0.97580 0.12145 0.03308 -0.36500
O 	O 	0.99075 0.10365 0.92894 -0.46700
C 	C 	0.98782 0.09670 0.99158 0.24400
C 	C 	0.88728 0.13143 0.97786 0.28200
O 	O 	0.96436 0.17634 0.87676 -0.45000
O 	O 	0.88665 0.14309 0.03842 -0.26200
O 	O 	0.91250 0.14373 0.94181 -0.55300
C 	C 	0.99615 0.18731 0.89426 0.27700
O 	O 	0.00179 0.19059 0.95675 -0.36700
C 	C 	0.96128 0.37276 0.98800 0.14300
N 	N 	0.95543 0.36615 0.92342 -0.13100
C 	C 	0.97049 0.38739 0.87810 0.13200
N 	N 	0.99002 0.41627 0.89745 -0.14100
C 	C 	0.99510 0.42357 0.96190 0.12000
N 	N 	0.98111 0.40156 0.00725 -0.12700
C 	C 	0.93646 0.32387 0.29334 0.17600
N 	N 	0.94418 0.35390 0.25997 -0.13400
C 	C 	0.95216 0.38481 0.29281 0.14000
N 	N 	0.95241 0.38549 0.35908 -0.14300
C 	C 	0.94421 0.35567 0.39257 0.13800
N 	N 	0.93690 0.32468 0.35962 -0.13700
Cd	Cd	0.16673 0.14341 0.71205 1.24200
Cd	Cd	0.11578 0.12507 0.85492 1.16400
O 	O 	0.22041 0.17881 0.73564 -0.31200
O 	O 	0.21239 0.15320 0.63997 -0.32300
C 	C 	0.23414 0.17047 0.67944 0.33700
O 	O 	0.12272 0.10487 0.67784 -0.35900
O 	O 	0.08444 0.11951 0.76195 -0.44100
C 	C 	0.09300 0.09876 0.71171 0.28100
C 	C 	0.19008 0.08773 0.79492 0.31500
O 	O 	0.13386 0.17819 0.80688 -0.44800
O 	O 	0.20665 0.08692 0.73916 -0.29400
O 	O 	0.16909 0.11509 0.80437 -0.54000
C 	C 	0.11708 0.19614 0.76208 0.30000
O 	O 	0.12798 0.19081 0.70233 -0.34600
Cd	Cd	0.17464 0.04450 0.50818 1.24300
Cd	Cd	0.11722 0.02525 0.37229 1.15900
O 	O 	0.21836 0.09152 0.48662 -0.30200
O 	O 	0.21666 0.06539 0.58127 -0.35700
C 	C 	0.23326 0.08750 0.54312 0.33100
O 	O 	0.13172 0.00891 0.54942 -0.37600
O 	O 	0.11615 0.98411 0.45023 -0.47600
C 	C 	0.10822 0.99195 0.51139 0.28100
C 	C 	0.11724 0.09112 0.48037 0.30100
O 	O 	0.17885 0.02198 0.38584 -0.44900
O 	O 	0.13065 0.09933 0.53763 -0.28500
O 	O 	0.13496 0.06786 0.44603 -0.54800
C 	C 	0.19739 0.99495 0.40681 0.28500
O 	O 	0.20567 0.99574 0.46851 -0.36000
C 	C 	0.37237 0.14921 0.77344 0.17300
N 	N 	0.36852 0.14926 0.83939 -0.13700
C 	C 	0.39566 0.13767 0.87782 0.13300
N 	N 	0.42676 0.12629 0.85018 -0.14300
C 	C 	0.43056 0.12580 0.78432 0.13700
N 	N 	0.40343 0.13755 0.74614 -0.13400
C 	C 	0.37514 0.09580 0.46608 0.16700
N 	N 	0.37275 0.10789 0.40413 -0.14200
C 	C 	0.39999 0.10232 0.36139 0.13500
N 	N 	0.42972 0.08440 0.38067 -0.14200
C 	C 	0.43288 0.07345 0.44327 0.13500
N 	N 	0.40540 0.07884 0.48580 -0.12300
C 	C 	0.38997 0.13351 0.94853 -0.03500
C 	C 	0.39360 0.09968 0.97783 0.08400
C 	C 	0.39409 0.09755 0.04611 -0.05900
C 	C 	0.38820 0.12807 0.08547 -0.01600
C 	C 	0.38173 0.16148 0.05606 0.09800
C 	C 	0.38331 0.16395 0.98776 -0.07800
N 	N 	0.39547 0.06913 0.94079 -0.19600
H 	H 	0.39825 0.07188 0.06871 0.05700
C 	C 	0.38934 0.12471 0.15750 0.00100
N 	N 	0.37374 0.19110 0.09287 -0.19800
H 	H 	0.37975 0.18971 0.96519 0.05700
C 	C 	0.42010 0.13588 0.19159 -0.08600
C 	C 	0.42291 0.13131 0.25928 0.10600
C 	C 	0.39571 0.11250 0.29239 -0.04700
C 	C 	0.36465 0.10194 0.25849 -0.04900
C 	C 	0.36082 0.10862 0.19164 0.07400
H 	H 	0.44159 0.14884 0.16556 0.06100
N 	N 	0.45094 0.14621 0.29240 -0.19800
H 	H 	0.34348 0.08822 0.28407 0.05900
N 	N 	0.32969 0.09978 0.16076 -0.19300
H 	H 	0.47188 0.15826 0.26721 0.09200
H 	H 	0.45109 0.14807 0.34326 0.09500
H 	H 	0.30917 0.08700 0.18592 0.09300
H 	H 	0.32505 0.10644 0.11226 0.09600
H 	H 	0.36975 0.21576 0.07082 0.09700
H 	H 	0.37053 0.18983 0.14334 0.09600
H 	H 	0.39063 0.06924 0.89063 0.11100
H 	H 	0.39986 0.04447 0.96266 0.09000
C 	C 	0.29522 0.06542 0.56079 -0.07400
C 	C 	0.27190 0.09422 0.54985 -0.13000
C 	C 	0.28599 0.12661 0.52761 0.35300
C 	C 	0.32178 0.12854 0.50825 -0.11800
C 	C 	0.34351 0.09791 0.50910 -0.06600
C 	C 	0.33090 0.06710 0.54004 0.31900
F 	F 	0.35211 0.03773 0.54462 -0.43800
H 	H 	0.28496 0.04063 0.57986 0.09900
H 	H 	0.33179 0.15304 0.48755 0.10500
F 	F 	0.26421 0.15530 0.51962 -0.42600
C 	C 	0.28526 0.12931 0.68952 -0.09000
C 	C 	0.27283 0.16393 0.67659 -0.10500
C 	C 	0.29639 0.19302 0.68442 0.35000
C 	C 	0.33009 0.18802 0.71304 -0.11300
C 	C 	0.34074 0.15380 0.73201 -0.07400
C 	C 	0.31919 0.12422 0.71633 0.32100
F 	F 	0.33003 0.09073 0.73168 -0.43800
H 	H 	0.26735 0.10669 0.68443 0.10900
H 	H 	0.34712 0.21091 0.72321 0.09800
F 	F 	0.28525 0.22659 0.67042 -0.43000
C 	C 	0.96511 0.37960 0.80789 -0.04500
C 	C 	0.97610 0.34661 0.77891 0.10500
C 	C 	0.96998 0.34026 0.71204 -0.08400
C 	C 	0.95571 0.36712 0.67286 -0.00400
C 	C 	0.94509 0.40022 0.70166 0.07400
C 	C 	0.94953 0.40591 0.76907 -0.05000
N 	N 	0.99380 0.32164 0.81415 -0.20100
H 	H 	0.97806 0.31496 0.68977 0.05800
C 	C 	0.95401 0.36110 0.60122 -0.00400
N 	N 	0.93091 0.42668 0.66492 -0.19400
H 	H 	0.94112 0.43110 0.79133 0.05500
C 	C 	0.92175 0.34951 0.57281 -0.08500
C 	C 	0.91768 0.34798 0.50464 0.10500
C 	C 	0.94731 0.35608 0.46435 -0.04500
C 	C 	0.98007 0.36598 0.49296 -0.05200
C 	C 	0.98367 0.36895 0.56100 0.07400
H 	H 	0.89919 0.34332 0.60384 0.06000
N 	N 	0.88505 0.34003 0.47848 -0.19900
H 	H 	0.00278 0.37187 0.46205 0.06200
N 	N 	0.01551 0.37965 0.58725 -0.19300
H 	H 	0.86372 0.33302 0.50861 0.09400
H 	H 	0.88005 0.34205 0.42861 0.10100
H 	H 	0.03717 0.38555 0.55707 0.09300
H 	H 	0.01920 0.38218 0.63760 0.09400
H 	H 	0.92328 0.45104 0.68666 0.09000
H 	H 	0.92731 0.42347 0.61466 0.09300
H 	H 	0.00283 0.32716 0.86146 0.10100
H 	H 	0.00037 0.29681 0.79301 0.09600
C 	C 	0.08216 0.21233 0.77586 -0.09400
C 	C 	0.07805 0.23212 0.83403 -0.03500
C 	C 	0.04624 0.22946 0.86928 0.02900
C 	C 	0.01972 0.20506 0.84752 -0.09400
C 	C 	0.02065 0.19269 0.78254 -0.03200
C 	C 	0.05137 0.19819 0.74532 0.03200
S 	S 	0.03833 0.25922 0.93538 -0.02300
S 	S 	0.05048 0.18942 0.66079 -0.02100
H 	H 	0.03947 0.21949 0.62926 0.04500
H 	H 	0.05173 0.24507 0.99155 0.05900
H 	H 	0.10044 0.24710 0.85426 0.04400
H 	H 	0.99848 0.17740 0.76224 0.01600
C 	C 	0.90671 0.30071 0.06036 -0.07500
C 	C 	0.93425 0.27630 0.07350 -0.12600
C 	C 	0.96945 0.28920 0.08108 0.35200
C 	C 	0.97777 0.32398 0.06222 -0.12600
C 	C 	0.95111 0.34570 0.03545 -0.05100
C 	C 	0.91513 0.33524 0.04027 0.31300
F 	F 	0.88868 0.35713 0.01916 -0.42900
H 	H 	0.87915 0.29169 0.05838 0.10500
H 	H 	0.00548 0.33256 0.06185 0.10100
F 	F 	0.99626 0.26681 0.09877 -0.43700
C 	C 	0.02905 0.12266 0.37004 -0.12200
C 	C 	0.06359 0.13221 0.34996 -0.02500
C 	C 	0.09277 0.12744 0.39126 0.01100
C 	C 	0.08783 0.11119 0.45179 -0.10400
C 	C 	0.05307 0.10640 0.47565 -0.04500
C 	C 	0.02346 0.11276 0.43552 0.02500
S 	S 	0.13567 0.14095 0.36603 -0.00900
S 	S 	0.98026 0.11204 0.46980 -0.15600
H 	H 	0.97237 0.14513 0.49590 0.06500
H 	H 	0.15196 0.11325 0.33281 0.01500
H 	H 	0.06790 0.14242 0.30147 0.04900
H 	H 	0.04912 0.09640 0.52436 0.04300
C 	C 	0.89797 0.27683 0.24287 -0.11400
C 	C 	0.93229 0.28964 0.25826 -0.07200
C 	C 	0.96220 0.26762 0.24766 0.32800
C 	C 	0.95757 0.23207 0.22727 -0.06200
C 	C 	0.92302 0.21830 0.21689 -0.12300
C 	C 	0.89331 0.24123 0.22221 0.35100
F 	F 	0.85979 0.22845 0.21115 -0.43800
H 	H 	0.87479 0.29394 0.24983 0.10000
H 	H 	0.98070 0.21465 0.22289 0.11000
F 	F 	0.99565 0.28017 0.26038 -0.42500
C 	C 	0.61434 0.93900 0.42792 -0.04700
C 	C 	0.61695 0.96635 0.47683 0.11200
C 	C 	0.58609 0.98570 0.49489 -0.09000
C 	C 	0.55402 0.98141 0.45983 -0.00800
C 	C 	0.55162 0.95451 0.41027 0.07600
C 	C 	0.58114 0.93218 0.39799 -0.05000
N 	N 	0.64899 0.97538 0.50423 -0.20100
H 	H 	0.58778 0.00608 0.53309 0.06100
C 	C 	0.52453 0.00753 0.47087 0.00600
N 	N 	0.52164 0.95077 0.37288 -0.19400
H 	H 	0.57893 0.91083 0.36158 0.05300
C 	C 	0.52901 0.04281 0.45033 -0.08900
C 	C 	0.49977 0.06639 0.44868 0.10500
C 	C 	0.46513 0.05363 0.46361 -0.04500
C 	C 	0.46128 0.01956 0.49028 -0.04700
C 	C 	0.49102 0.99673 0.49596 0.06100
H 	H 	0.55516 0.05172 0.43448 0.06000
N 	N 	0.50515 0.10129 0.43405 -0.19900
H 	H 	0.43498 0.01033 0.50466 0.07300
N 	N 	0.48712 0.96436 0.52421 -0.19400
H 	H 	0.53045 0.11014 0.41983 0.09000
H 	H 	0.48484 0.12028 0.44029 0.09400
H 	H 	0.46200 0.95600 0.54035 0.09200
H 	H 	0.50918 0.94794 0.53303 0.09200
H 	H 	0.51965 0.92985 0.33850 0.09100
H 	H 	0.50082 0.96938 0.37507 0.09500
H 	H 	0.67318 0.96730 0.48333 0.13300
H 	H 	0.65003 0.99323 0.54408 0.09700
C 	C 	0.46061 0.10595 0.75445 -0.04300
C 	C 	0.49623 0.11216 0.77524 0.10200
C 	C 	0.52272 0.08665 0.76044 -0.08100
C 	C 	0.51449 0.05602 0.72277 -0.01000
C 	C 	0.47979 0.05193 0.69584 0.08200
C 	C 	0.45310 0.07696 0.71210 -0.05400
N 	N 	0.50520 0.14273 0.80840 -0.19800
H 	H 	0.54969 0.09035 0.77911 0.05700
C 	C 	0.54135 0.02703 0.71708 0.00500
N 	N 	0.47185 0.02386 0.65519 -0.19600
H 	H 	0.42601 0.07289 0.69430 0.07900
C 	C 	0.53695 0.99621 0.75413 -0.09500
C 	C 	0.56448 0.97078 0.75785 0.10900
C 	C 	0.59808 0.97814 0.72931 -0.05800
C 	C 	0.60143 0.00745 0.68790 -0.04400
C 	C 	0.57289 0.03144 0.68007 0.06600
H 	H 	0.51205 0.99201 0.78003 0.06000
N 	N 	0.55815 0.93895 0.78667 -0.20000
H 	H 	0.62661 0.01225 0.66330 0.05100
N 	N 	0.57584 0.05849 0.63700 -0.19400
H 	H 	0.53395 0.93446 0.81070 0.09000
H 	H 	0.57611 0.91763 0.78169 0.10100
H 	H 	0.59973 0.06238 0.61161 0.08700
H 	H 	0.55402 0.07483 0.62612 0.09200
H 	H 	0.44586 0.02042 0.63716 0.10600
H 	H 	0.49149 0.00566 0.64002 0.09600
H 	H 	0.48692 0.16370 0.81434 0.09600
H 	H 	0.53126 0.14648 0.82594 0.09000
C 	C 	0.67446 0.92861 0.90085 -0.04500
C 	C 	0.67220 0.95595 0.94960 0.08900
C 	C 	0.67556 0.94701 0.01558 -0.07100
C 	C 	0.68357 0.91186 0.03345 0.01200
C 	C 	0.68816 0.88500 0.98447 0.04700
C 	C 	0.68291 0.89355 0.91867 -0.04400
N 	N 	0.66803 0.99084 0.93341 -0.19900
H 	H 	0.67257 0.96763 0.05314 0.05900
C 	C 	0.68525 0.90320 0.10380 -0.00800
N 	N 	0.69795 0.85116 0.00014 -0.17500
H 	H 	0.68540 0.87280 0.88122 0.06500
C 	C 	0.65567 0.88682 0.13278 -0.08200
C 	C 	0.65479 0.88139 0.20034 0.10500
C 	C 	0.68315 0.89449 0.24004 -0.04600
C 	C 	0.71364 0.90900 0.21071 -0.05000
C 	C 	0.71518 0.91310 0.14272 0.07700
H 	H 	0.63323 0.87828 0.10264 0.06100
N 	N 	0.62699 0.86317 0.22666 -0.19900
H 	H 	0.73575 0.91823 0.24100 0.06000
N 	N 	0.74535 0.92649 0.11524 -0.19400
H 	H 	0.60540 0.85494 0.19756 0.09200
H 	H 	0.62734 0.85554 0.27538 0.09800
H 	H 	0.76691 0.93468 0.14448 0.09100
H 	H 	0.74813 0.92798 0.06471 0.09700
H 	H 	0.70048 0.83131 0.96381 0.08600
H 	H 	0.70404 0.84441 0.04806 0.09600
H 	H 	0.66995 0.99901 0.88516 0.09700
H 	H 	0.66473 0.01057 0.96976 0.09100
C 	C 	0.86321 0.97064 0.36271 -0.09000
C 	C 	0.86813 0.96978 0.29464 -0.04400
C 	C 	0.86491 0.00144 0.25987 0.04100
C 	C 	0.86031 0.03384 0.29437 -0.09300
C 	C 	0.84489 0.03275 0.35638 -0.02500
C 	C 	0.84664 0.00121 0.39159 0.02800
S 	S 	0.86412 0.00017 0.17417 -0.02700
S 	S 	0.82586 0.99984 0.46854 0.02200
H 	H 	0.78997 0.99380 0.46047 0.08500
H 	H 	0.82959 0.99554 0.15292 0.04000
H 	H 	0.87591 0.94519 0.26961 0.03400
H 	H 	0.83595 0.05732 0.38021 0.05200
C 	C 	0.00386 0.95079 0.53772 -0.07700
C 	C 	0.03330 0.92809 0.54726 -0.06100
C 	C 	0.06839 0.94169 0.54536 0.03500
C 	C 	0.07405 0.97875 0.53839 -0.11300
C 	C 	0.04445 0.00190 0.54034 -0.02600
C 	C 	0.00945 0.98812 0.53924 0.00800
S 	S 	0.10486 0.91179 0.54516 -0.13000
S 	S 	0.97291 0.01773 0.53503 -0.03600
H 	H 	0.96223 0.02075 0.47160 -0.08000
H 	H 	0.12132 0.91260 0.60491 0.04900
H 	H 	0.02914 0.89951 0.54947 0.03400
H 	H 	0.04857 0.03051 0.53762 0.02000
C 	C 	0.73869 0.84388 0.47581 -0.10900
C 	C 	0.72963 0.87926 0.46107 -0.07000
C 	C 	0.75281 0.90712 0.47943 0.31700
C 	C 	0.78649 0.89943 0.50533 -0.08600
C 	C 	0.79667 0.86391 0.51687 -0.12700
C 	C 	0.77194 0.83625 0.50444 0.35500
F 	F 	0.78126 0.80174 0.51507 -0.43300
H 	H 	0.72072 0.82218 0.46253 0.10300
H 	H 	0.80568 0.92087 0.51226 0.09400
F 	F 	0.74384 0.94154 0.46729 -0.45200
C 	C 	0.06522 0.07382 0.68573 -0.08500
C 	C 	0.03187 0.08808 0.66744 -0.02700
C 	C 	0.00020 0.06828 0.67514 0.01000
C 	C 	0.00206 0.03237 0.69512 -0.07800
C 	C 	0.03601 0.01639 0.70236 -0.04400
C 	C 	0.06739 0.03705 0.69938 0.03700
S 	S 	0.95865 0.08978 0.66482 -0.05600
S 	S 	0.10867 0.01741 0.71981 -0.22200
H 	H 	0.11920 0.99380 0.67172 0.05700
H 	H 	0.94791 0.10456 0.72329 -0.05400
H 	H 	0.03012 0.11574 0.65341 0.04400
H 	H 	0.03790 0.98833 0.71442 0.01500
C 	C 	0.85682 0.05468 0.85235 -0.11600
C 	C 	0.84506 0.08954 0.83995 -0.04600
C 	C 	0.84527 0.11528 0.89019 0.01900
C 	C 	0.86062 0.10681 0.95057 -0.09700
C 	C 	0.86291 0.07070 0.96708 -0.05800
C 	C 	0.86087 0.04420 0.91782 0.00400
S 	S 	0.83138 0.15925 0.87454 -0.04400
S 	S 	0.85688 0.99902 0.93947 -0.05700
H 	H 	0.88992 0.98343 0.94471 -0.05400
H 	H 	0.79580 0.16282 0.88958 0.05000
H 	H 	0.83790 0.09713 0.79085 0.04900
H 	H 	0.86913 0.06346 0.01674 0.06100
C 	C 	0.77609 0.90791 0.65690 -0.08100
C 	C 	0.79090 0.94145 0.64316 -0.12500
C 	C 	0.76779 0.97052 0.63323 0.35000
C 	C 	0.73164 0.96781 0.65059 -0.10800
C 	C 	0.71874 0.93602 0.67729 -0.07200
C 	C 	0.74003 0.90516 0.67373 0.32200
F 	F 	0.72682 0.87333 0.69342 -0.43300
H 	H 	0.79339 0.88480 0.66150 0.10500
H 	H 	0.71476 0.99140 0.64965 0.09400
F 	F 	0.78121 0.00263 0.61561 -0.43700
C 	C 	0.08673 0.55719 0.22720 -0.05200
C 	C 	0.09648 0.52187 0.24330 0.10400
C 	C 	0.07090 0.49450 0.23809 -0.08600
C 	C 	0.03643 0.50149 0.21398 -0.00500
C 	C 	0.02787 0.53616 0.19218 0.07400
C 	C 	0.05299 0.56380 0.19977 -0.05300
N 	N 	0.13041 0.51398 0.26261 -0.20000
H 	H 	0.07764 0.46777 0.25372 0.06100
C 	C 	0.00837 0.47369 0.21986 -0.00200
N 	N 	0.99547 0.54314 0.16484 -0.19500
H 	H 	0.04600 0.59070 0.18543 0.05400
C 	C 	0.98038 0.47932 0.26446 -0.08600
C 	C 	0.95745 0.45122 0.28059 0.10700
C 	C 	0.96503 0.41622 0.25712 -0.04400
C 	C 	0.99036 0.41136 0.20713 -0.05000
C 	C 	0.01167 0.44011 0.18727 0.08100
H 	H 	0.97673 0.50550 0.28723 0.05900
N 	N 	0.92794 0.45797 0.31762 -0.19800
H 	H 	0.99473 0.38491 0.18591 0.07100
N 	N 	0.03533 0.43528 0.13752 -0.19300
H 	H 	0.92339 0.48354 0.33747 0.09200
H 	H 	0.90827 0.43848 0.32374 0.10000
H 	H 	0.03831 0.41017 0.11486 0.09900
H 	H 	0.04994 0.45667 0.11926 0.09500
H 	H 	0.98827 0.56933 0.15360 0.08900
H 	H 	0.97784 0.52254 0.15176 0.09200
H 	H 	0.15087 0.53295 0.26103 0.10100
H 	H 	0.13702 0.48807 0.27673 0.09400
C 	C 	0.10687 0.61579 0.92382 -0.02800
C 	C 	0.07527 0.60436 0.89138 0.09400
C 	C 	0.05784 0.57335 0.91183 -0.07300
C 	C 	0.06943 0.55548 0.96757 -0.03000
C 	C 	0.09876 0.56920 0.00417 0.12000
C 	C 	0.11758 0.59898 0.98128 -0.10000
N 	N 	0.06098 0.62362 0.84208 -0.19600
H 	H 	0.03488 0.56329 0.88470 0.05500
C 	C 	0.05227 0.52105 0.98406 -0.01600
N 	N 	0.10892 0.55397 0.06102 -0.20100
H 	H 	0.14097 0.60867 0.00761 0.08600
C 	C 	0.07121 0.48911 0.97271 -0.08700
C 	C 	0.05344 0.45605 0.97251 0.09800
C 	C 	0.01598 0.45516 0.98219 -0.05800
C 	C 	0.99778 0.48660 0.00026 -0.04600
C 	C 	0.01559 0.51967 0.00123 0.09000
H 	H 	0.09958 0.49009 0.96161 0.05600
N 	N 	0.07239 0.42531 0.96298 -0.20000
H 	H 	0.96930 0.48560 0.01031 0.05800
N 	N 	0.99719 0.55004 0.01692 -0.19800
H 	H 	0.09990 0.42619 0.95380 0.08800
H 	H 	0.06029 0.40027 0.96703 0.09100
H 	H 	0.96960 0.54913 0.02527 0.09100
H 	H 	0.01032 0.57446 0.02405 0.09900
H 	H 	0.13149 0.56331 0.08627 0.10300
H 	H 	0.09407 0.53341 0.08155 0.09700
H 	H 	0.07034 0.64919 0.83171 0.09900
H 	H 	0.03874 0.61402 0.81616 0.09100
C 	C 	0.16584 0.66536 0.73276 -0.04500
C 	C 	0.17924 0.63388 0.70183 0.10600
C 	C 	0.17625 0.62966 0.63375 -0.08500
C 	C 	0.16271 0.65738 0.59569 -0.00400
C 	C 	0.15304 0.69037 0.62601 0.07400
C 	C 	0.15409 0.69381 0.69442 -0.05100
N 	N 	0.19582 0.60816 0.73691 -0.19900
H 	H 	0.18471 0.60481 0.61029 0.05900
C 	C 	0.15630 0.65066 0.52489 -0.00500
N 	N 	0.14277 0.71876 0.58987 -0.19400
H 	H 	0.14470 0.71832 0.71788 0.05800
C 	C 	0.12121 0.64434 0.50305 -0.08300
C 	C 	0.11392 0.63841 0.43645 0.10400
C 	C 	0.14270 0.63586 0.39155 -0.04300
C 	C 	0.17782 0.64221 0.41333 -0.05100
C 	C 	0.18488 0.65027 0.47944 0.07700
H 	H 	0.09934 0.64513 0.53779 0.05800
N 	N 	0.07931 0.63654 0.41576 -0.19800
H 	H 	0.19976 0.64091 0.37876 0.06600
N 	N 	0.21895 0.65798 0.49866 -0.19400
H 	H 	0.05836 0.63664 0.44952 0.09200
H 	H 	0.07274 0.63712 0.36630 0.10000
H 	H 	0.23994 0.65697 0.46501 0.09700
H 	H 	0.22487 0.66583 0.54661 0.09600
H 	H 	0.13458 0.74264 0.61269 0.08900
H 	H 	0.14391 0.71785 0.53899 0.09200
H 	H 	0.20244 0.61246 0.78595 0.10400
H 	H 	0.20413 0.58427 0.71429 0.09300
C 	C 	0.04689 0.00122 0.01656 -0.05900
C 	C 	0.00941 0.00029 0.02216 -0.03100
C 	C 	0.98945 0.03218 0.02215 0.01500
C 	C 	0.00705 0.06529 0.01688 -0.06500
C 	C 	0.04444 0.06639 0.02170 -0.03500
C 	C 	0.06440 0.03459 0.02190 0.01600
S 	S 	0.94251 0.03020 0.02563 -0.16400
S 	S 	0.11126 0.03706 0.02245 -0.10900
H 	H 	0.12300 0.04781 0.08301 0.04200
H 	H 	0.93139 0.03424 0.08897 0.06900
H 	H 	0.99565 0.97477 0.02094 0.02400
H 	H 	0.05816 0.09192 0.02061 0.02200
C 	C 	0.96839 0.90002 0.78067 -0.09500
C 	C 	0.99913 0.90301 0.74202 -0.02300
C 	C 	0.03251 0.89359 0.76704 0.01700
C 	C 	0.03522 0.88266 0.83244 -0.08700
C 	C 	0.00390 0.87372 0.86622 -0.01900
C 	C 	0.97045 0.88215 0.84036 0.02200
S 	S 	0.06986 0.89298 0.71478 -0.04100
S 	S 	0.93144 0.86965 0.88235 -0.02600
H 	H 	0.92207 0.89640 0.92573 0.01700
H 	H 	0.08470 0.92649 0.71379 -0.01400
H 	H 	0.99730 0.91419 0.69371 0.05400
H 	H 	0.00558 0.86193 0.91400 0.06200
C 	C 	0.18929 0.05586 0.83581 -0.13100
C 	C 	0.19374 0.02218 0.80543 -0.01500
C 	C 	0.19365 0.99130 0.84217 0.00300
C 	C 	0.18645 0.99364 0.90935 -0.10500
C 	C 	0.18820 0.02711 0.94117 -0.03300
C 	C 	0.18868 0.05847 0.90467 0.03200
S 	S 	0.20154 0.94959 0.80333 -0.02500
S 	S 	0.18967 0.10029 0.94565 -0.15800
H 	H 	0.22455 0.11035 0.95577 0.06100
H 	H 	0.16991 0.93629 0.77903 0.00600
H 	H 	0.19689 0.01999 0.75294 0.04900
H 	H 	0.18711 0.02882 0.99394 0.04100
C 	C 	0.19281 0.78689 0.97490 -0.08100
C 	C 	0.16101 0.80644 0.98413 -0.12500
C 	C 	0.12789 0.78964 0.97181 0.35700
C 	C 	0.12670 0.75424 0.94902 -0.11200
C 	C 	0.15845 0.73552 0.93592 -0.07000
C 	C 	0.19158 0.75158 0.95051 0.31400
F 	F 	0.22253 0.73340 0.93943 -0.43600
H 	H 	0.21849 0.79962 0.98345 0.09000
H 	H 	0.10102 0.74186 0.93866 0.11000
F 	F 	0.09687 0.80824 0.97916 -0.43800
C 	C 	0.05445 0.94903 0.18703 -0.09400
C 	C 	0.01808 0.94215 0.17589 -0.04400
C 	C 	0.99297 0.97015 0.17797 0.01000
C 	C 	0.00430 0.00576 0.19064 -0.07500
C 	C 	0.04114 0.01312 0.19203 -0.05300
C 	C 	0.06625 0.98500 0.19112 0.03100
S 	S 	0.94752 0.96011 0.16535 -0.09600
S 	S 	0.11218 0.99516 0.19612 -0.15600
H 	H 	0.12763 0.98876 0.13653 0.06500
H 	H 	0.94035 0.95841 0.09983 0.03900
H 	H 	0.00893 0.91476 0.16978 0.02300
H 	H 	0.05025 0.04048 0.19863 0.02300
C 	C 	0.97749 0.81439 0.42207 -0.11100
C 	C 	0.96847 0.80244 0.35911 -0.03100
C 	C 	0.99378 0.80372 0.30918 0.00800
C 	C 	0.02977 0.81273 0.32459 -0.11000
C 	C 	0.03990 0.81632 0.39052 -0.05600
C 	C 	0.01379 0.81677 0.43937 0.02000
S 	S 	0.97905 0.79753 0.22800 -0.00600
S 	S 	0.02665 0.82171 0.52157 -0.07100
H 	H 	0.03188 0.78861 0.54753 0.05100
H 	H 	0.96944 0.82996 0.20325 0.01100
H 	H 	0.94060 0.79750 0.34702 0.04500
H 	H 	0.06780 0.82019 0.40353 -0.00300
C 	C 	0.19891 0.90808 0.28042 -0.08900
C 	C 	0.21338 0.90303 0.34265 -0.03400
C 	C 	0.21958 0.93258 0.38378 0.03000
C 	C 	0.21121 0.96714 0.36153 -0.09100
C 	C 	0.20704 0.97192 0.29416 -0.03800
C 	C 	0.20131 0.94223 0.25310 0.03000
S 	S 	0.23946 0.92607 0.46056 -0.02600
S 	S 	0.19802 0.94795 0.16835 -0.02000
H 	H 	0.23134 0.94496 0.14092 0.05200
H 	H 	0.27595 0.92801 0.45474 0.05000
H 	H 	0.21622 0.87622 0.36125 0.04600
H 	H 	0.20542 0.99864 0.27473 0.03600
C 	C 	0.17508 0.72150 0.13138 -0.07900
C 	C 	0.14294 0.73987 0.12008 -0.11600
C 	C 	0.11130 0.71994 0.11266 0.34700
C 	C 	0.11018 0.68473 0.13463 -0.11200
C 	C 	0.14090 0.66953 0.16240 -0.07300
C 	C 	0.17403 0.68660 0.15465 0.32300
F 	F 	0.20461 0.67084 0.17565 -0.43300
H 	H 	0.20025 0.73590 0.13159 0.10200
H 	H 	0.08478 0.67079 0.13635 0.09700
F 	F 	0.08053 0.73625 0.09416 -0.42600
