data_crystal

_cell_length_a 33.49414
_cell_length_b 32.59802
_cell_length_c 33.98477
_cell_angle_alpha 89.99992
_cell_angle_beta  69.16183
_cell_angle_gamma 118.38007

_symmetry_space_group_name_	'P 1'
_symmetry_space_group_name_H-M	'P 1'

loop_
_symmetry_equiv_pos_as_xyz
  x,y,z

loop_
_atom_site_label
_atom_site_type_symbol
_atom_site_fract_x
_atom_site_fract_y
_atom_site_fract_z
_atom_site_charge
C 	C 	0.00190 0.28640 0.54028 0.05400
C 	C 	0.00094 0.28124 0.45846 -0.16600
H 	H 	0.00269 0.28803 0.57182 0.05300
H 	H 	0.00037 0.27842 0.42690 0.13600
C 	C 	0.00190 0.28640 0.04028 0.05500
C 	C 	0.00094 0.28124 0.95846 -0.16500
H 	H 	0.00269 0.28803 0.07182 0.05400
H 	H 	0.00037 0.27842 0.92690 0.13800
C 	C 	0.00190 0.78640 0.54028 0.05500
C 	C 	0.00094 0.78124 0.45846 -0.16500
H 	H 	0.00269 0.78804 0.57182 0.05400
H 	H 	0.00037 0.77842 0.42690 0.13700
C 	C 	0.00190 0.78640 0.04028 0.05600
C 	C 	0.00094 0.78124 0.95846 -0.16600
H 	H 	0.00269 0.78804 0.07182 0.05400
H 	H 	0.00037 0.77842 0.92690 0.13800
O 	O 	0.03435 0.24543 0.34554 -0.23100
C 	C 	0.04614 0.30577 0.46288 0.05300
C 	C 	0.04642 0.30929 0.50382 -0.07100
C 	C 	0.02984 0.24888 0.27605 -0.18000
C 	C 	0.05291 0.24699 0.23302 0.39500
C 	C 	0.02623 0.23319 0.20692 -0.16000
H 	H 	0.04454 0.23180 0.17392 0.13000
O 	O 	0.03435 0.24543 0.84554 -0.23100
C 	C 	0.04614 0.30577 0.96288 0.05400
C 	C 	0.04642 0.30929 0.00382 -0.07300
C 	C 	0.02984 0.24888 0.77605 -0.18000
C 	C 	0.05291 0.24699 0.73302 0.39500
C 	C 	0.02623 0.23319 0.70692 -0.16000
H 	H 	0.04454 0.23180 0.67392 0.13000
O 	O 	0.03435 0.74543 0.34554 -0.23200
C 	C 	0.04614 0.80577 0.46288 0.05200
C 	C 	0.04642 0.80929 0.50382 -0.07100
C 	C 	0.02984 0.74888 0.27605 -0.18000
C 	C 	0.05291 0.74699 0.23302 0.39500
C 	C 	0.02623 0.73319 0.20692 -0.16100
H 	H 	0.04454 0.73180 0.17392 0.13000
O 	O 	0.03435 0.74543 0.84554 -0.23100
C 	C 	0.04614 0.80577 0.96288 0.05400
C 	C 	0.04642 0.80929 0.00382 -0.07300
C 	C 	0.02984 0.74888 0.77605 -0.18000
C 	C 	0.05291 0.74699 0.73302 0.39500
C 	C 	0.02623 0.73319 0.70692 -0.16000
H 	H 	0.04454 0.73180 0.67392 0.13000
Zn	Zn	0.20396 0.40032 0.36754 1.20500
Zn	Zn	0.14056 0.32438 0.32499 1.22300
Zn	Zn	0.18098 0.31696 0.43073 1.21700
P 	P 	0.22550 0.32756 0.33690 0.34300
P 	P 	0.10302 0.32568 0.41721 0.29200
C 	C 	0.18732 0.24329 0.46778 0.25500
C 	C 	0.24008 0.42009 0.43277 0.27700
C 	C 	0.19078 0.42953 0.29733 0.27700
O 	O 	0.24196 0.38104 0.32128 -0.39400
O 	O 	0.14265 0.37692 0.41885 -0.43200
O 	O 	0.16919 0.29243 0.34355 -0.41800
O 	O 	0.12057 0.28858 0.42083 -0.42300
O 	O 	0.23501 0.32402 0.37942 -0.41000
O 	O 	0.09287 0.32847 0.37489 -0.40400
O 	O 	0.18269 0.28080 0.47483 -0.39700
O 	O 	0.18190 0.22536 0.43416 -0.22800
O 	O 	0.20031 0.37808 0.45420 -0.41800
O 	O 	0.18859 0.38979 0.28634 -0.38800
O 	O 	0.25300 0.43361 0.39158 -0.42000
O 	O 	0.19238 0.43886 0.33451 -0.42200
C 	C 	0.05771 0.26348 0.30403 0.34300
O 	O 	0.10525 0.29626 0.28785 -0.36800
Zn	Zn	0.29894 0.19591 0.13312 1.20900
Zn	Zn	0.36468 0.18487 0.17435 1.21700
Zn	Zn	0.32433 0.13697 0.06848 1.22600
P 	P 	0.28050 0.10364 0.16251 0.34300
P 	P 	0.40104 0.22267 0.08231 0.34600
C 	C 	0.32198 0.05911 0.02914 0.34300
C 	C 	0.26372 0.18067 0.06745 0.35900
C 	C 	0.31276 0.23968 0.20236 0.27800
O 	O 	0.26279 0.13988 0.17938 -0.42800
O 	O 	0.36004 0.23378 0.08199 -0.40400
O 	O 	0.33710 0.12480 0.15551 -0.41800
O 	O 	0.38493 0.16876 0.07802 -0.40600
O 	O 	0.27081 0.09124 0.11997 -0.38100
O 	O 	0.41191 0.23552 0.12431 -0.40900
O 	O 	0.32231 0.09929 0.02414 -0.36200
O 	O 	0.47244 0.21472 0.15335 -0.22000
O 	O 	0.33297 0.04895 0.05985 -0.19500
O 	O 	0.30402 0.17853 0.04576 -0.39100
O 	O 	0.31607 0.20281 0.21342 -0.42300
O 	O 	0.24962 0.17949 0.10900 -0.39700
O 	O 	0.30898 0.24576 0.16592 -0.40500
C 	C 	0.44857 0.20838 0.19504 0.25300
O 	O 	0.40039 0.19202 0.21132 -0.39400
C 	C 	0.95681 0.25974 0.53595 -0.13100
C 	C 	0.95639 0.25828 0.49486 0.38200
H 	H 	0.08122 0.32819 0.50746 0.06400
F 	F 	0.91299 0.23289 0.49023 -0.44500
C 	C 	0.97618 0.22114 0.22339 0.03100
C 	C 	0.95308 0.22263 0.26651 -0.06300
C 	C 	0.97970 0.23634 0.29263 0.07100
H 	H 	0.96142 0.23775 0.32564 0.05000
H 	H 	0.91468 0.21367 0.27978 0.07500
F 	F 	0.10082 0.25755 0.21667 -0.42400
C 	C 	0.20340 0.46814 0.26443 0.01600
C 	C 	0.20169 0.50872 0.27651 -0.05100
C 	C 	0.22267 0.54917 0.24528 0.04000
C 	C 	0.24459 0.54911 0.20170 -0.12900
C 	C 	0.24291 0.50736 0.18939 0.37900
C 	C 	0.22220 0.46702 0.22062 -0.14800
H 	H 	0.22335 0.58102 0.25510 0.04600
H 	H 	0.22272 0.43562 0.21073 0.14400
H 	H 	0.18576 0.50954 0.31017 0.07100
F 	F 	0.26316 0.50646 0.14726 -0.42700
C 	C 	0.26380 0.45546 0.45658 0.01700
C 	C 	0.25545 0.44083 0.49905 -0.05600
C 	C 	0.27554 0.47459 0.52228 0.06600
C 	C 	0.30429 0.52341 0.50333 -0.17300
C 	C 	0.31400 0.53799 0.46040 0.39000
C 	C 	0.29387 0.50423 0.43721 -0.15400
H 	H 	0.26782 0.46283 0.55532 0.06500
H 	H 	0.30115 0.51615 0.40436 0.12300
H 	H 	0.23308 0.40338 0.51424 0.07600
F 	F 	0.34318 0.58482 0.44101 -0.43000
C 	C 	0.20305 0.22417 0.49524 0.02900
C 	C 	0.21972 0.19214 0.48205 -0.06400
C 	C 	0.23849 0.17724 0.50615 0.07600
C 	C 	0.24079 0.19406 0.54376 -0.18400
C 	C 	0.22306 0.22529 0.55755 0.39900
C 	C 	0.20405 0.23994 0.53355 -0.16000
H 	H 	0.25164 0.15292 0.49535 0.04800
H 	H 	0.19090 0.26423 0.54441 0.12900
H 	H 	0.21905 0.17943 0.45271 0.07600
F 	F 	0.22591 0.24286 0.59329 -0.42900
C 	C 	0.30182 0.26734 0.23458 0.01100
C 	C 	0.28680 0.25056 0.27835 -0.04800
C 	C 	0.26723 0.27163 0.30937 0.04500
C 	C 	0.26248 0.30959 0.29699 -0.12500
C 	C 	0.28083 0.32864 0.25315 0.37000
C 	C 	0.30118 0.30809 0.22212 -0.14200
H 	H 	0.25359 0.25697 0.34313 0.05400
H 	H 	0.31451 0.32261 0.18837 0.13300
H 	H 	0.28824 0.21997 0.28850 0.06900
F 	F 	0.27708 0.36569 0.24054 -0.42900
Zn	Zn	0.20396 0.40032 0.86754 1.20500
Zn	Zn	0.14056 0.32438 0.82499 1.22300
Zn	Zn	0.18098 0.31696 0.93073 1.21700
P 	P 	0.22550 0.32756 0.83690 0.34300
P 	P 	0.10302 0.32568 0.91721 0.29200
C 	C 	0.18732 0.24329 0.96778 0.25500
C 	C 	0.24008 0.42009 0.93277 0.27700
C 	C 	0.19078 0.42953 0.79733 0.27700
O 	O 	0.24196 0.38104 0.82128 -0.39400
O 	O 	0.14265 0.37692 0.91885 -0.43100
O 	O 	0.16919 0.29243 0.84355 -0.41800
O 	O 	0.12057 0.28858 0.92083 -0.42300
O 	O 	0.23501 0.32402 0.87942 -0.41000
O 	O 	0.09287 0.32846 0.87489 -0.40400
O 	O 	0.18269 0.28080 0.97483 -0.39600
O 	O 	0.18190 0.22536 0.93416 -0.22800
O 	O 	0.20031 0.37808 0.95420 -0.41800
O 	O 	0.18859 0.38979 0.78634 -0.38800
O 	O 	0.25300 0.43361 0.89158 -0.42000
O 	O 	0.19238 0.43885 0.83451 -0.42200
C 	C 	0.05771 0.26348 0.80403 0.34300
O 	O 	0.10525 0.29626 0.78785 -0.36800
Zn	Zn	0.29893 0.19591 0.63312 1.20900
Zn	Zn	0.36468 0.18487 0.67435 1.21700
Zn	Zn	0.32432 0.13697 0.56848 1.22600
P 	P 	0.28050 0.10364 0.66251 0.34300
P 	P 	0.40104 0.22267 0.58231 0.34500
C 	C 	0.32198 0.05911 0.52914 0.34300
C 	C 	0.26372 0.18067 0.56745 0.35900
C 	C 	0.31276 0.23968 0.70236 0.27800
O 	O 	0.26279 0.13988 0.67938 -0.42800
O 	O 	0.36004 0.23378 0.58199 -0.40400
O 	O 	0.33710 0.12480 0.65551 -0.41800
O 	O 	0.38493 0.16876 0.57802 -0.40500
O 	O 	0.27081 0.09124 0.61997 -0.38100
O 	O 	0.41191 0.23552 0.62432 -0.40900
O 	O 	0.32231 0.09929 0.52414 -0.36200
O 	O 	0.47244 0.21472 0.65336 -0.22000
O 	O 	0.33297 0.04895 0.55985 -0.19500
O 	O 	0.30402 0.17853 0.54576 -0.39100
O 	O 	0.31607 0.20281 0.71342 -0.42300
O 	O 	0.24962 0.17949 0.60900 -0.39700
O 	O 	0.30898 0.24576 0.66592 -0.40500
C 	C 	0.44857 0.20838 0.69504 0.25300
O 	O 	0.40039 0.19202 0.71132 -0.39400
C 	C 	0.95681 0.25974 0.03595 -0.13300
C 	C 	0.95639 0.25828 0.99486 0.38300
H 	H 	0.08122 0.32819 0.00746 0.06400
F 	F 	0.91299 0.23289 0.99023 -0.44500
C 	C 	0.97618 0.22114 0.72339 0.03000
C 	C 	0.95308 0.22263 0.76651 -0.06300
C 	C 	0.97970 0.23634 0.79263 0.07100
H 	H 	0.96142 0.23775 0.82564 0.05000
H 	H 	0.91469 0.21367 0.77978 0.07500
F 	F 	0.10082 0.25755 0.71667 -0.42400
C 	C 	0.20340 0.46814 0.76443 0.01700
C 	C 	0.20169 0.50872 0.77651 -0.05100
C 	C 	0.22267 0.54917 0.74528 0.04000
C 	C 	0.24459 0.54911 0.70170 -0.12900
C 	C 	0.24291 0.50736 0.68939 0.37900
C 	C 	0.22220 0.46702 0.72062 -0.14800
H 	H 	0.22335 0.58102 0.75510 0.04600
H 	H 	0.22272 0.43562 0.71073 0.14400
H 	H 	0.18576 0.50954 0.81018 0.07100
F 	F 	0.26317 0.50646 0.64726 -0.42700
C 	C 	0.26380 0.45546 0.95658 0.01600
C 	C 	0.25545 0.44083 0.99905 -0.05200
C 	C 	0.27554 0.47459 0.02228 0.06400
C 	C 	0.30429 0.52341 0.00333 -0.17400
C 	C 	0.31400 0.53799 0.96040 0.39100
C 	C 	0.29386 0.50423 0.93721 -0.15400
H 	H 	0.26782 0.46283 0.05532 0.06600
H 	H 	0.30115 0.51615 0.90436 0.12300
H 	H 	0.23308 0.40338 0.01424 0.07400
F 	F 	0.34318 0.58482 0.94101 -0.42900
C 	C 	0.20305 0.22417 0.99525 0.03000
C 	C 	0.21972 0.19214 0.98205 -0.06200
C 	C 	0.23849 0.17724 0.00615 0.07300
C 	C 	0.24079 0.19406 0.04376 -0.18300
C 	C 	0.22306 0.22529 0.05755 0.39900
C 	C 	0.20405 0.23994 0.03355 -0.16100
H 	H 	0.25164 0.15292 0.99535 0.05000
H 	H 	0.19090 0.26423 0.04441 0.12900
H 	H 	0.21905 0.17943 0.95271 0.07600
F 	F 	0.22591 0.24286 0.09329 -0.42900
C 	C 	0.30182 0.26734 0.73458 0.01100
C 	C 	0.28680 0.25057 0.77834 -0.04800
C 	C 	0.26723 0.27163 0.80937 0.04500
C 	C 	0.26248 0.30959 0.79699 -0.12500
C 	C 	0.28083 0.32864 0.75315 0.37000
C 	C 	0.30118 0.30809 0.72212 -0.14200
H 	H 	0.25359 0.25697 0.84313 0.05400
H 	H 	0.31451 0.32261 0.68837 0.13300
H 	H 	0.28824 0.21997 0.78850 0.06900
F 	F 	0.27707 0.36569 0.74054 -0.42900
Zn	Zn	0.20396 0.90032 0.36754 1.20500
Zn	Zn	0.14056 0.82438 0.32499 1.22300
Zn	Zn	0.18098 0.81696 0.43073 1.21700
P 	P 	0.22550 0.82756 0.33690 0.34300
P 	P 	0.10302 0.82568 0.41721 0.29200
C 	C 	0.18732 0.74329 0.46778 0.25500
C 	C 	0.24008 0.92009 0.43277 0.27800
C 	C 	0.19078 0.92953 0.29733 0.27700
O 	O 	0.24196 0.88104 0.32128 -0.39400
O 	O 	0.14265 0.87692 0.41885 -0.43200
O 	O 	0.16919 0.79243 0.34355 -0.41800
O 	O 	0.12057 0.78858 0.42083 -0.42300
O 	O 	0.23501 0.82402 0.37942 -0.41100
O 	O 	0.09287 0.82847 0.37489 -0.40400
O 	O 	0.18269 0.78080 0.47483 -0.39700
O 	O 	0.18190 0.72536 0.43416 -0.22800
O 	O 	0.20031 0.87808 0.45420 -0.41900
O 	O 	0.18859 0.88979 0.28634 -0.38900
O 	O 	0.25300 0.93361 0.39158 -0.42100
O 	O 	0.19238 0.93886 0.33451 -0.42300
C 	C 	0.05771 0.76348 0.30403 0.34300
O 	O 	0.10525 0.79626 0.28785 -0.36800
Zn	Zn	0.29893 0.69591 0.13312 1.20900
Zn	Zn	0.36468 0.68487 0.17435 1.21700
Zn	Zn	0.32433 0.63697 0.06848 1.22600
P 	P 	0.28050 0.60364 0.16251 0.34300
P 	P 	0.40105 0.72267 0.08231 0.34600
C 	C 	0.32198 0.55911 0.02914 0.34400
C 	C 	0.26372 0.68067 0.06745 0.35900
C 	C 	0.31276 0.73968 0.20236 0.27800
O 	O 	0.26279 0.63988 0.17938 -0.42800
O 	O 	0.36004 0.73378 0.08199 -0.40500
O 	O 	0.33710 0.62480 0.15551 -0.41800
O 	O 	0.38493 0.66876 0.07802 -0.40600
O 	O 	0.27081 0.59124 0.11997 -0.38200
O 	O 	0.41191 0.73552 0.12431 -0.40900
O 	O 	0.32231 0.59929 0.02414 -0.36300
O 	O 	0.47244 0.71472 0.15335 -0.22100
O 	O 	0.33297 0.54895 0.05985 -0.19600
O 	O 	0.30402 0.67853 0.04576 -0.39100
O 	O 	0.31607 0.70281 0.21342 -0.42300
O 	O 	0.24962 0.67949 0.10900 -0.39700
O 	O 	0.30898 0.74576 0.16592 -0.40500
C 	C 	0.44857 0.70838 0.19504 0.25300
O 	O 	0.40039 0.69202 0.21132 -0.39400
C 	C 	0.95681 0.75974 0.53595 -0.13100
C 	C 	0.95639 0.75828 0.49486 0.38200
H 	H 	0.08122 0.82819 0.50746 0.06400
F 	F 	0.91299 0.73289 0.49023 -0.44500
C 	C 	0.97618 0.72114 0.22339 0.03100
C 	C 	0.95308 0.72263 0.26651 -0.06300
C 	C 	0.97970 0.73635 0.29263 0.07100
H 	H 	0.96142 0.73775 0.32564 0.05000
H 	H 	0.91469 0.71367 0.27978 0.07500
F 	F 	0.10082 0.75755 0.21667 -0.42400
C 	C 	0.20340 0.96814 0.26443 0.01400
C 	C 	0.20169 0.00872 0.27651 -0.04800
C 	C 	0.22267 0.04917 0.24528 0.04000
C 	C 	0.24459 0.04911 0.20170 -0.12900
C 	C 	0.24291 0.00736 0.18939 0.38200
C 	C 	0.22220 0.96702 0.22062 -0.15100
H 	H 	0.22335 0.08102 0.25510 0.04600
H 	H 	0.22272 0.93562 0.21073 0.14400
H 	H 	0.18576 0.00954 0.31017 0.07100
F 	F 	0.26316 0.00646 0.14726 -0.42700
C 	C 	0.26380 0.95546 0.45658 0.01200
C 	C 	0.25544 0.94083 0.49905 -0.05300
C 	C 	0.27554 0.97459 0.52228 0.06100
C 	C 	0.30429 0.02341 0.50333 -0.16900
C 	C 	0.31400 0.03799 0.46040 0.38700
C 	C 	0.29387 0.00424 0.43721 -0.14900
H 	H 	0.26782 0.96283 0.55532 0.06600
H 	H 	0.30115 0.01615 0.40436 0.12300
H 	H 	0.23308 0.90338 0.51424 0.07500
F 	F 	0.34318 0.08482 0.44101 -0.42900
C 	C 	0.20305 0.72417 0.49524 0.02900
C 	C 	0.21972 0.69214 0.48205 -0.06400
C 	C 	0.23849 0.67724 0.50615 0.07600
C 	C 	0.24079 0.69406 0.54376 -0.18400
C 	C 	0.22306 0.72529 0.55755 0.39900
C 	C 	0.20405 0.73994 0.53355 -0.16000
H 	H 	0.25164 0.65292 0.49535 0.04800
H 	H 	0.19090 0.76423 0.54441 0.12900
H 	H 	0.21905 0.67943 0.45271 0.07600
F 	F 	0.22591 0.74286 0.59329 -0.42900
C 	C 	0.30182 0.76734 0.23458 0.01100
C 	C 	0.28680 0.75057 0.27835 -0.04800
C 	C 	0.26723 0.77163 0.30937 0.04500
C 	C 	0.26248 0.80959 0.29699 -0.12500
C 	C 	0.28083 0.82864 0.25315 0.36900
C 	C 	0.30118 0.80809 0.22212 -0.14200
H 	H 	0.25359 0.75697 0.34313 0.05400
H 	H 	0.31451 0.82261 0.18837 0.13300
H 	H 	0.28824 0.71997 0.28850 0.06900
F 	F 	0.27708 0.86569 0.24054 -0.42900
Zn	Zn	0.20396 0.90032 0.86754 1.20500
Zn	Zn	0.14056 0.82438 0.82499 1.22300
Zn	Zn	0.18098 0.81696 0.93073 1.21700
P 	P 	0.22550 0.82756 0.83690 0.34300
P 	P 	0.10302 0.82568 0.91721 0.29200
C 	C 	0.18732 0.74329 0.96778 0.25500
C 	C 	0.24008 0.92009 0.93277 0.27800
C 	C 	0.19078 0.92953 0.79733 0.27700
O 	O 	0.24196 0.88104 0.82128 -0.39400
O 	O 	0.14265 0.87692 0.91885 -0.43200
O 	O 	0.16919 0.79243 0.84355 -0.41800
O 	O 	0.12057 0.78858 0.92083 -0.42300
O 	O 	0.23501 0.82402 0.87942 -0.41000
O 	O 	0.09287 0.82847 0.87489 -0.40400
O 	O 	0.18269 0.78080 0.97483 -0.39600
O 	O 	0.18190 0.72536 0.93416 -0.22800
O 	O 	0.20031 0.87808 0.95420 -0.41900
O 	O 	0.18859 0.88979 0.78634 -0.38900
O 	O 	0.25300 0.93361 0.89158 -0.42100
O 	O 	0.19238 0.93886 0.83451 -0.42300
C 	C 	0.05771 0.76348 0.80403 0.34300
O 	O 	0.10525 0.79626 0.78785 -0.36800
Zn	Zn	0.29893 0.69591 0.63312 1.20900
Zn	Zn	0.36468 0.68487 0.67435 1.21700
Zn	Zn	0.32432 0.63697 0.56848 1.22600
P 	P 	0.28050 0.60364 0.66251 0.34300
P 	P 	0.40104 0.72267 0.58231 0.34500
C 	C 	0.32198 0.55911 0.52914 0.34400
C 	C 	0.26372 0.68067 0.56745 0.35900
C 	C 	0.31276 0.73968 0.70236 0.27800
O 	O 	0.26279 0.63988 0.67938 -0.42800
O 	O 	0.36004 0.73378 0.58199 -0.40400
O 	O 	0.33710 0.62480 0.65551 -0.41800
O 	O 	0.38493 0.66876 0.57802 -0.40600
O 	O 	0.27081 0.59124 0.61997 -0.38200
O 	O 	0.41191 0.73552 0.62432 -0.40900
O 	O 	0.32231 0.59929 0.52414 -0.36200
O 	O 	0.47244 0.71472 0.65336 -0.22000
O 	O 	0.33297 0.54895 0.55985 -0.19600
O 	O 	0.30402 0.67853 0.54576 -0.39100
O 	O 	0.31607 0.70281 0.71342 -0.42300
O 	O 	0.24962 0.67949 0.60900 -0.39700
O 	O 	0.30898 0.74575 0.66592 -0.40500
C 	C 	0.44857 0.70838 0.69504 0.25300
O 	O 	0.40039 0.69202 0.71132 -0.39400
C 	C 	0.95681 0.75974 0.03595 -0.13300
C 	C 	0.95639 0.75828 0.99486 0.38400
H 	H 	0.08122 0.82819 0.00746 0.06400
F 	F 	0.91299 0.73289 0.99023 -0.44500
C 	C 	0.97618 0.72114 0.72339 0.03000
C 	C 	0.95308 0.72263 0.76651 -0.06300
C 	C 	0.97970 0.73635 0.79263 0.07100
H 	H 	0.96142 0.73775 0.82564 0.05000
H 	H 	0.91469 0.71367 0.77978 0.07500
F 	F 	0.10082 0.75755 0.71667 -0.42400
C 	C 	0.20340 0.96814 0.76443 0.01400
C 	C 	0.20169 0.00872 0.77651 -0.04800
C 	C 	0.22267 0.04917 0.74528 0.04000
C 	C 	0.24459 0.04911 0.70170 -0.12900
C 	C 	0.24291 0.00736 0.68939 0.38200
C 	C 	0.22220 0.96702 0.72062 -0.15100
H 	H 	0.22335 0.08102 0.75510 0.04600
H 	H 	0.22272 0.93562 0.71073 0.14400
H 	H 	0.18576 0.00954 0.81018 0.07100
F 	F 	0.26316 0.00646 0.64726 -0.42700
C 	C 	0.26380 0.95546 0.95658 0.01100
C 	C 	0.25545 0.94083 0.99905 -0.04900
C 	C 	0.27554 0.97459 0.02228 0.05900
C 	C 	0.30429 0.02341 0.00333 -0.16900
C 	C 	0.31400 0.03799 0.96040 0.38800
C 	C 	0.29386 0.00424 0.93721 -0.14900
H 	H 	0.26782 0.96283 0.05532 0.06600
H 	H 	0.30115 0.01615 0.90436 0.12300
H 	H 	0.23308 0.90338 0.01424 0.07300
F 	F 	0.34318 0.08482 0.94101 -0.42900
C 	C 	0.20305 0.72417 0.99525 0.03000
C 	C 	0.21972 0.69214 0.98205 -0.06200
C 	C 	0.23849 0.67724 0.00615 0.07300
C 	C 	0.24079 0.69406 0.04376 -0.18300
C 	C 	0.22306 0.72529 0.05755 0.39900
C 	C 	0.20405 0.73994 0.03355 -0.16100
H 	H 	0.25164 0.65292 0.99535 0.05000
H 	H 	0.19090 0.76423 0.04441 0.12900
H 	H 	0.21905 0.67943 0.95271 0.07600
F 	F 	0.22591 0.74286 0.09329 -0.42900
C 	C 	0.30182 0.76734 0.73458 0.01100
C 	C 	0.28680 0.75057 0.77834 -0.04800
C 	C 	0.26723 0.77163 0.80937 0.04500
C 	C 	0.26248 0.80959 0.79699 -0.12500
C 	C 	0.28083 0.82864 0.75315 0.36900
C 	C 	0.30118 0.80809 0.72212 -0.14200
H 	H 	0.25359 0.75697 0.84313 0.05400
H 	H 	0.31451 0.82261 0.68837 0.13300
H 	H 	0.28824 0.71997 0.78850 0.06900
F 	F 	0.27707 0.86569 0.74054 -0.42900
Zn	Zn	0.70396 0.40032 0.36754 1.20500
Zn	Zn	0.64056 0.32438 0.32499 1.22300
Zn	Zn	0.68098 0.31696 0.43073 1.21700
P 	P 	0.72550 0.32756 0.33690 0.34300
P 	P 	0.60302 0.32568 0.41721 0.29200
C 	C 	0.68732 0.24329 0.46778 0.25500
C 	C 	0.74008 0.42009 0.43277 0.27700
C 	C 	0.69078 0.42953 0.29733 0.27700
O 	O 	0.74196 0.38104 0.32128 -0.39400
O 	O 	0.64265 0.37692 0.41885 -0.43200
O 	O 	0.66919 0.29243 0.34355 -0.41800
O 	O 	0.62057 0.28858 0.42083 -0.42300
O 	O 	0.73501 0.32402 0.37942 -0.41000
O 	O 	0.59287 0.32847 0.37489 -0.40400
O 	O 	0.68269 0.28080 0.47483 -0.39700
O 	O 	0.53436 0.24543 0.34554 -0.23100
O 	O 	0.68190 0.22536 0.43416 -0.22800
O 	O 	0.70031 0.37808 0.45420 -0.41800
O 	O 	0.68859 0.38979 0.28634 -0.38800
O 	O 	0.75300 0.43361 0.39158 -0.42000
O 	O 	0.69238 0.43886 0.33451 -0.42200
C 	C 	0.55770 0.26348 0.30403 0.34300
O 	O 	0.60525 0.29626 0.28785 -0.36800
Zn	Zn	0.79894 0.19591 0.13312 1.20900
Zn	Zn	0.86468 0.18487 0.17435 1.21700
Zn	Zn	0.82433 0.13697 0.06848 1.22600
P 	P 	0.78050 0.10364 0.16251 0.34300
P 	P 	0.90105 0.22267 0.08231 0.34600
C 	C 	0.82198 0.05911 0.02914 0.34300
C 	C 	0.76372 0.18067 0.06745 0.35900
C 	C 	0.81276 0.23968 0.20236 0.27800
O 	O 	0.76279 0.13988 0.17938 -0.42800
O 	O 	0.86004 0.23378 0.08199 -0.40400
O 	O 	0.83710 0.12480 0.15551 -0.41800
O 	O 	0.88493 0.16876 0.07802 -0.40600
O 	O 	0.77081 0.09124 0.11997 -0.38100
O 	O 	0.91191 0.23552 0.12431 -0.40900
O 	O 	0.82231 0.09929 0.02414 -0.36200
O 	O 	0.97244 0.21472 0.15335 -0.22000
O 	O 	0.83297 0.04895 0.05985 -0.19500
O 	O 	0.80402 0.17853 0.04576 -0.39100
O 	O 	0.81607 0.20281 0.21342 -0.42300
O 	O 	0.74962 0.17949 0.10900 -0.39700
O 	O 	0.80898 0.24576 0.16592 -0.40500
C 	C 	0.94857 0.20838 0.19504 0.25300
O 	O 	0.90039 0.19202 0.21132 -0.39400
C 	C 	0.54614 0.30577 0.46288 0.05200
C 	C 	0.54642 0.30929 0.50382 -0.07100
C 	C 	0.50190 0.28640 0.54028 0.05700
C 	C 	0.45681 0.25974 0.53595 -0.13200
C 	C 	0.45639 0.25828 0.49486 0.38100
C 	C 	0.50094 0.28124 0.45846 -0.16300
H 	H 	0.50269 0.28803 0.57182 0.05400
H 	H 	0.50036 0.27842 0.42690 0.13700
H 	H 	0.58122 0.32819 0.50746 0.06500
F 	F 	0.41299 0.23289 0.49023 -0.44500
C 	C 	0.47618 0.22114 0.22339 0.02800
C 	C 	0.45308 0.22263 0.26651 -0.06200
C 	C 	0.47970 0.23634 0.29263 0.06900
C 	C 	0.52983 0.24888 0.27605 -0.17800
C 	C 	0.55291 0.24699 0.23302 0.39400
C 	C 	0.52623 0.23319 0.20692 -0.15800
H 	H 	0.46142 0.23775 0.32564 0.05000
H 	H 	0.54454 0.23180 0.17392 0.13000
H 	H 	0.41469 0.21367 0.27978 0.07500
F 	F 	0.60082 0.25755 0.21667 -0.42400
C 	C 	0.70340 0.46814 0.26443 0.01700
C 	C 	0.70169 0.50872 0.27651 -0.05100
C 	C 	0.72267 0.54917 0.24528 0.04000
C 	C 	0.74459 0.54911 0.20170 -0.12900
C 	C 	0.74291 0.50736 0.18939 0.37900
C 	C 	0.72220 0.46702 0.22062 -0.14800
H 	H 	0.72335 0.58102 0.25510 0.04600
H 	H 	0.72272 0.43562 0.21073 0.14400
H 	H 	0.68576 0.50954 0.31017 0.07100
F 	F 	0.76317 0.50646 0.14726 -0.42700
C 	C 	0.76380 0.45546 0.45658 0.01700
C 	C 	0.75545 0.44083 0.49905 -0.05600
C 	C 	0.77554 0.47459 0.52228 0.06600
C 	C 	0.80429 0.52341 0.50333 -0.17300
C 	C 	0.81400 0.53799 0.46040 0.39000
C 	C 	0.79387 0.50423 0.43721 -0.15400
H 	H 	0.76782 0.46283 0.55532 0.06500
H 	H 	0.80115 0.51615 0.40436 0.12300
H 	H 	0.73308 0.40338 0.51424 0.07600
F 	F 	0.84318 0.58482 0.44101 -0.42900
C 	C 	0.70305 0.22417 0.49524 0.03000
C 	C 	0.71972 0.19214 0.48205 -0.06400
C 	C 	0.73849 0.17724 0.50615 0.07600
C 	C 	0.74079 0.19406 0.54376 -0.18300
C 	C 	0.72306 0.22529 0.55755 0.39900
C 	C 	0.70405 0.23994 0.53355 -0.16000
H 	H 	0.75164 0.15292 0.49535 0.04800
H 	H 	0.69090 0.26423 0.54441 0.12900
H 	H 	0.71905 0.17943 0.45271 0.07700
F 	F 	0.72591 0.24286 0.59329 -0.42900
C 	C 	0.80182 0.26734 0.23458 0.01100
C 	C 	0.78680 0.25056 0.27835 -0.04800
C 	C 	0.76723 0.27163 0.30937 0.04500
C 	C 	0.76248 0.30959 0.29699 -0.12500
C 	C 	0.78083 0.32864 0.25315 0.37000
C 	C 	0.80118 0.30809 0.22212 -0.14200
H 	H 	0.75359 0.25697 0.34313 0.05400
H 	H 	0.81451 0.32261 0.18837 0.13300
H 	H 	0.78823 0.21997 0.28850 0.06900
F 	F 	0.77708 0.36569 0.24054 -0.42900
Zn	Zn	0.70396 0.40032 0.86754 1.20500
Zn	Zn	0.64056 0.32438 0.82499 1.22300
Zn	Zn	0.68098 0.31696 0.93073 1.21700
P 	P 	0.72550 0.32756 0.83690 0.34300
P 	P 	0.60302 0.32568 0.91721 0.29200
C 	C 	0.68732 0.24329 0.96778 0.25500
C 	C 	0.74008 0.42009 0.93277 0.27700
C 	C 	0.69078 0.42953 0.79733 0.27700
O 	O 	0.74196 0.38104 0.82128 -0.39400
O 	O 	0.64265 0.37692 0.91885 -0.43100
O 	O 	0.66919 0.29243 0.84355 -0.41800
O 	O 	0.62057 0.28858 0.92083 -0.42300
O 	O 	0.73501 0.32402 0.87942 -0.41000
O 	O 	0.59287 0.32846 0.87489 -0.40400
O 	O 	0.68269 0.28080 0.97483 -0.39600
O 	O 	0.53436 0.24543 0.84554 -0.23100
O 	O 	0.68190 0.22536 0.93416 -0.22800
O 	O 	0.70031 0.37808 0.95420 -0.41800
O 	O 	0.68859 0.38979 0.78634 -0.38800
O 	O 	0.75300 0.43361 0.89158 -0.42000
O 	O 	0.69238 0.43885 0.83451 -0.42200
C 	C 	0.55770 0.26348 0.80403 0.34300
O 	O 	0.60525 0.29626 0.78785 -0.36800
Zn	Zn	0.79894 0.19591 0.63312 1.20900
Zn	Zn	0.86468 0.18487 0.67435 1.21700
Zn	Zn	0.82433 0.13697 0.56848 1.22600
P 	P 	0.78050 0.10364 0.66251 0.34300
P 	P 	0.90105 0.22267 0.58231 0.34500
C 	C 	0.82198 0.05911 0.52914 0.34300
C 	C 	0.76372 0.18067 0.56745 0.35900
C 	C 	0.81276 0.23968 0.70236 0.27800
O 	O 	0.76279 0.13988 0.67938 -0.42800
O 	O 	0.86004 0.23378 0.58199 -0.40400
O 	O 	0.83710 0.12480 0.65551 -0.41800
O 	O 	0.88493 0.16876 0.57802 -0.40500
O 	O 	0.77081 0.09124 0.61997 -0.38100
O 	O 	0.91191 0.23552 0.62432 -0.40900
O 	O 	0.82231 0.09929 0.52414 -0.36100
O 	O 	0.97244 0.21472 0.65336 -0.22000
O 	O 	0.83297 0.04895 0.55985 -0.19400
O 	O 	0.80402 0.17853 0.54576 -0.39100
O 	O 	0.81607 0.20281 0.71342 -0.42300
O 	O 	0.74962 0.17949 0.60900 -0.39700
O 	O 	0.80898 0.24576 0.66592 -0.40500
C 	C 	0.94857 0.20838 0.69504 0.25300
O 	O 	0.90039 0.19202 0.71132 -0.39400
C 	C 	0.54614 0.30577 0.96288 0.05400
C 	C 	0.54642 0.30929 0.00382 -0.07300
C 	C 	0.50190 0.28640 0.04028 0.05800
C 	C 	0.45681 0.25974 0.03595 -0.13400
C 	C 	0.45639 0.25828 0.99486 0.38300
C 	C 	0.50094 0.28124 0.95846 -0.16400
H 	H 	0.50269 0.28803 0.07182 0.05400
H 	H 	0.50036 0.27842 0.92690 0.13800
H 	H 	0.58122 0.32819 0.00746 0.06500
F 	F 	0.41299 0.23289 0.99023 -0.44500
C 	C 	0.47618 0.22114 0.72339 0.02800
C 	C 	0.45308 0.22263 0.76651 -0.06200
C 	C 	0.47970 0.23634 0.79263 0.06900
C 	C 	0.52984 0.24888 0.77605 -0.17800
C 	C 	0.55291 0.24699 0.73302 0.39400
C 	C 	0.52623 0.23319 0.70692 -0.15800
H 	H 	0.46142 0.23775 0.82564 0.05000
H 	H 	0.54454 0.23180 0.67392 0.13000
H 	H 	0.41469 0.21367 0.77978 0.07500
F 	F 	0.60082 0.25755 0.71667 -0.42400
C 	C 	0.70340 0.46814 0.76443 0.01700
C 	C 	0.70169 0.50872 0.77651 -0.05100
C 	C 	0.72267 0.54917 0.74528 0.04000
C 	C 	0.74459 0.54911 0.70170 -0.12900
C 	C 	0.74291 0.50736 0.68939 0.37900
C 	C 	0.72220 0.46702 0.72062 -0.14800
H 	H 	0.72335 0.58102 0.75510 0.04600
H 	H 	0.72272 0.43562 0.71073 0.14400
H 	H 	0.68576 0.50954 0.81018 0.07100
F 	F 	0.76317 0.50646 0.64726 -0.42700
C 	C 	0.76380 0.45546 0.95658 0.01600
C 	C 	0.75545 0.44083 0.99905 -0.05300
C 	C 	0.77554 0.47459 0.02228 0.06400
C 	C 	0.80429 0.52341 0.00333 -0.17400
C 	C 	0.81400 0.53799 0.96040 0.39100
C 	C 	0.79387 0.50423 0.93721 -0.15400
H 	H 	0.76781 0.46283 0.05532 0.06600
H 	H 	0.80115 0.51615 0.90436 0.12300
H 	H 	0.73308 0.40338 0.01424 0.07400
F 	F 	0.84318 0.58482 0.94101 -0.42900
C 	C 	0.70305 0.22417 0.99525 0.03000
C 	C 	0.71972 0.19214 0.98205 -0.06300
C 	C 	0.73849 0.17724 0.00615 0.07300
C 	C 	0.74079 0.19406 0.04376 -0.18300
C 	C 	0.72306 0.22529 0.05755 0.39900
C 	C 	0.70405 0.23994 0.03355 -0.16100
H 	H 	0.75164 0.15292 0.99535 0.04900
H 	H 	0.69090 0.26423 0.04441 0.12900
H 	H 	0.71905 0.17943 0.95271 0.07600
F 	F 	0.72591 0.24286 0.09329 -0.42900
C 	C 	0.80182 0.26734 0.73458 0.01100
C 	C 	0.78680 0.25057 0.77834 -0.04800
C 	C 	0.76723 0.27163 0.80937 0.04500
C 	C 	0.76248 0.30959 0.79699 -0.12500
C 	C 	0.78083 0.32864 0.75315 0.37000
C 	C 	0.80118 0.30809 0.72212 -0.14200
H 	H 	0.75359 0.25697 0.84313 0.05400
H 	H 	0.81451 0.32261 0.68837 0.13300
H 	H 	0.78824 0.21997 0.78850 0.06900
F 	F 	0.77707 0.36569 0.74054 -0.42900
Zn	Zn	0.70396 0.90032 0.36754 1.20500
Zn	Zn	0.64056 0.82438 0.32499 1.22300
Zn	Zn	0.68098 0.81696 0.43073 1.21700
P 	P 	0.72550 0.82756 0.33690 0.34300
P 	P 	0.60302 0.82568 0.41721 0.29200
C 	C 	0.68732 0.74329 0.46778 0.25500
C 	C 	0.74008 0.92009 0.43277 0.27800
C 	C 	0.69078 0.92953 0.29733 0.27700
O 	O 	0.74196 0.88104 0.32128 -0.39400
O 	O 	0.64265 0.87692 0.41885 -0.43200
O 	O 	0.66919 0.79243 0.34355 -0.41800
O 	O 	0.62057 0.78858 0.42083 -0.42300
O 	O 	0.73501 0.82402 0.37942 -0.41000
O 	O 	0.59287 0.82847 0.37489 -0.40400
O 	O 	0.68269 0.78080 0.47483 -0.39700
O 	O 	0.53436 0.74543 0.34554 -0.23100
O 	O 	0.68190 0.72536 0.43416 -0.22800
O 	O 	0.70031 0.87808 0.45420 -0.41900
O 	O 	0.68859 0.88979 0.28634 -0.38900
O 	O 	0.75300 0.93361 0.39158 -0.42100
O 	O 	0.69238 0.93886 0.33451 -0.42300
C 	C 	0.55770 0.76348 0.30403 0.34300
O 	O 	0.60525 0.79626 0.28785 -0.36800
Zn	Zn	0.79894 0.69591 0.13312 1.20900
Zn	Zn	0.86468 0.68487 0.17435 1.21700
Zn	Zn	0.82433 0.63697 0.06848 1.22600
P 	P 	0.78050 0.60364 0.16251 0.34300
P 	P 	0.90105 0.72267 0.08231 0.34600
C 	C 	0.82198 0.55911 0.02914 0.34400
C 	C 	0.76372 0.68067 0.06745 0.35900
C 	C 	0.81276 0.73968 0.20236 0.27800
O 	O 	0.76279 0.63988 0.17938 -0.42800
O 	O 	0.86004 0.73378 0.08199 -0.40400
O 	O 	0.83710 0.62480 0.15551 -0.41800
O 	O 	0.88493 0.66876 0.07802 -0.40600
O 	O 	0.77081 0.59124 0.11997 -0.38200
O 	O 	0.91191 0.73552 0.12431 -0.40900
O 	O 	0.82231 0.59929 0.02414 -0.36200
O 	O 	0.97244 0.71472 0.15335 -0.22000
O 	O 	0.83297 0.54895 0.05985 -0.19600
O 	O 	0.80402 0.67853 0.04576 -0.39100
O 	O 	0.81607 0.70281 0.21342 -0.42300
O 	O 	0.74962 0.67949 0.10900 -0.39700
O 	O 	0.80898 0.74576 0.16592 -0.40500
C 	C 	0.94857 0.70838 0.19504 0.25300
O 	O 	0.90039 0.69202 0.21132 -0.39400
C 	C 	0.54614 0.80577 0.46288 0.05200
C 	C 	0.54642 0.80929 0.50382 -0.07100
C 	C 	0.50190 0.78640 0.54028 0.05700
C 	C 	0.45681 0.75974 0.53595 -0.13200
C 	C 	0.45639 0.75828 0.49486 0.38100
C 	C 	0.50094 0.78124 0.45846 -0.16300
H 	H 	0.50269 0.78804 0.57182 0.05400
H 	H 	0.50037 0.77842 0.42690 0.13700
H 	H 	0.58122 0.82819 0.50746 0.06400
F 	F 	0.41299 0.73289 0.49023 -0.44500
C 	C 	0.47618 0.72114 0.22339 0.02800
C 	C 	0.45308 0.72263 0.26651 -0.06200
C 	C 	0.47970 0.73635 0.29263 0.06900
C 	C 	0.52983 0.74888 0.27605 -0.17800
C 	C 	0.55291 0.74699 0.23302 0.39400
C 	C 	0.52623 0.73319 0.20692 -0.15800
H 	H 	0.46142 0.73775 0.32564 0.05000
H 	H 	0.54454 0.73180 0.17392 0.12900
H 	H 	0.41469 0.71367 0.27978 0.07400
F 	F 	0.60082 0.75755 0.21667 -0.42400
C 	C 	0.70340 0.96814 0.26443 0.01400
C 	C 	0.70169 0.00872 0.27651 -0.04800
C 	C 	0.72267 0.04917 0.24528 0.04000
C 	C 	0.74459 0.04911 0.20170 -0.12900
C 	C 	0.74291 0.00736 0.18939 0.38200
C 	C 	0.72220 0.96702 0.22062 -0.15100
H 	H 	0.72335 0.08102 0.25510 0.04600
H 	H 	0.72272 0.93562 0.21073 0.14400
H 	H 	0.68576 0.00954 0.31017 0.07100
F 	F 	0.76317 0.00646 0.14726 -0.42700
C 	C 	0.76380 0.95546 0.45658 0.01200
C 	C 	0.75545 0.94083 0.49905 -0.05300
C 	C 	0.77554 0.97459 0.52228 0.06100
C 	C 	0.80429 0.02341 0.50333 -0.16900
C 	C 	0.81400 0.03799 0.46040 0.38700
C 	C 	0.79387 0.00424 0.43721 -0.14900
H 	H 	0.76782 0.96283 0.55532 0.06600
H 	H 	0.80115 0.01615 0.40436 0.12300
H 	H 	0.73308 0.90338 0.51424 0.07500
F 	F 	0.84318 0.08482 0.44101 -0.42900
C 	C 	0.70305 0.72417 0.49524 0.02900
C 	C 	0.71972 0.69214 0.48205 -0.06400
C 	C 	0.73849 0.67724 0.50615 0.07600
C 	C 	0.74079 0.69406 0.54376 -0.18400
C 	C 	0.72306 0.72529 0.55755 0.39900
C 	C 	0.70405 0.73994 0.53355 -0.16000
H 	H 	0.75164 0.65292 0.49535 0.04800
H 	H 	0.69090 0.76423 0.54441 0.12900
H 	H 	0.71905 0.67943 0.45271 0.07600
F 	F 	0.72591 0.74286 0.59329 -0.42900
C 	C 	0.80182 0.76734 0.23458 0.01100
C 	C 	0.78680 0.75057 0.27835 -0.04800
C 	C 	0.76723 0.77163 0.30937 0.04500
C 	C 	0.76248 0.80959 0.29699 -0.12500
C 	C 	0.78083 0.82864 0.25315 0.36900
C 	C 	0.80118 0.80809 0.22212 -0.14200
H 	H 	0.75359 0.75697 0.34313 0.05400
H 	H 	0.81451 0.82261 0.18837 0.13300
H 	H 	0.78823 0.71997 0.28850 0.06900
F 	F 	0.77708 0.86569 0.24054 -0.42900
Zn	Zn	0.70396 0.90032 0.86754 1.20500
Zn	Zn	0.64056 0.82438 0.82499 1.22300
Zn	Zn	0.68098 0.81696 0.93073 1.21700
P 	P 	0.72550 0.82756 0.83690 0.34300
P 	P 	0.60302 0.82568 0.91721 0.29200
C 	C 	0.68732 0.74329 0.96778 0.25500
C 	C 	0.74008 0.92009 0.93277 0.27800
C 	C 	0.69078 0.92953 0.79733 0.27700
O 	O 	0.74196 0.88104 0.82128 -0.39400
O 	O 	0.64265 0.87692 0.91885 -0.43200
O 	O 	0.66919 0.79243 0.84355 -0.41800
O 	O 	0.62057 0.78858 0.92083 -0.42300
O 	O 	0.73501 0.82402 0.87942 -0.41000
O 	O 	0.59287 0.82847 0.87489 -0.40400
O 	O 	0.68269 0.78080 0.97483 -0.39600
O 	O 	0.53435 0.74543 0.84554 -0.23100
O 	O 	0.68190 0.72536 0.93416 -0.22800
O 	O 	0.70031 0.87808 0.95420 -0.41900
O 	O 	0.68859 0.88979 0.78634 -0.38900
O 	O 	0.75300 0.93361 0.89158 -0.42100
O 	O 	0.69238 0.93886 0.83451 -0.42300
C 	C 	0.55770 0.76348 0.80403 0.34300
O 	O 	0.60525 0.79626 0.78785 -0.36800
Zn	Zn	0.79894 0.69591 0.63312 1.20900
Zn	Zn	0.86468 0.68487 0.67435 1.21700
Zn	Zn	0.82432 0.63697 0.56848 1.22600
P 	P 	0.78050 0.60364 0.66251 0.34300
P 	P 	0.90105 0.72267 0.58231 0.34500
C 	C 	0.82198 0.55911 0.52914 0.34400
C 	C 	0.76372 0.68067 0.56745 0.35900
C 	C 	0.81276 0.73968 0.70236 0.27800
O 	O 	0.76279 0.63988 0.67938 -0.42800
O 	O 	0.86004 0.73378 0.58199 -0.40400
O 	O 	0.83710 0.62480 0.65551 -0.41800
O 	O 	0.88493 0.66876 0.57802 -0.40500
O 	O 	0.77081 0.59124 0.61997 -0.38200
O 	O 	0.91191 0.73552 0.62432 -0.40900
O 	O 	0.82231 0.59929 0.52414 -0.36200
O 	O 	0.97244 0.71472 0.65336 -0.22000
O 	O 	0.83297 0.54895 0.55985 -0.19500
O 	O 	0.80402 0.67853 0.54576 -0.39100
O 	O 	0.81607 0.70281 0.71342 -0.42300
O 	O 	0.74962 0.67949 0.60900 -0.39700
O 	O 	0.80898 0.74575 0.66592 -0.40500
C 	C 	0.94857 0.70838 0.69504 0.25300
O 	O 	0.90039 0.69202 0.71132 -0.39400
C 	C 	0.54614 0.80577 0.96288 0.05400
C 	C 	0.54642 0.80929 0.00382 -0.07300
C 	C 	0.50190 0.78640 0.04028 0.05800
C 	C 	0.45681 0.75974 0.03595 -0.13400
C 	C 	0.45639 0.75828 0.99486 0.38300
C 	C 	0.50094 0.78124 0.95846 -0.16400
H 	H 	0.50269 0.78804 0.07182 0.05400
H 	H 	0.50037 0.77842 0.92690 0.13800
H 	H 	0.58122 0.82819 0.00746 0.06500
F 	F 	0.41299 0.73289 0.99023 -0.44500
C 	C 	0.47618 0.72114 0.72339 0.02800
C 	C 	0.45308 0.72263 0.76651 -0.06200
C 	C 	0.47970 0.73635 0.79263 0.06900
C 	C 	0.52984 0.74888 0.77605 -0.17800
C 	C 	0.55291 0.74699 0.73302 0.39400
C 	C 	0.52623 0.73319 0.70692 -0.15800
H 	H 	0.46142 0.73775 0.82564 0.05000
H 	H 	0.54454 0.73180 0.67392 0.12900
H 	H 	0.41469 0.71367 0.77978 0.07500
F 	F 	0.60082 0.75755 0.71667 -0.42400
C 	C 	0.70340 0.96814 0.76443 0.01400
C 	C 	0.70169 0.00872 0.77651 -0.04800
C 	C 	0.72267 0.04917 0.74528 0.04000
C 	C 	0.74459 0.04911 0.70170 -0.12900
C 	C 	0.74291 0.00736 0.68939 0.38200
C 	C 	0.72220 0.96702 0.72062 -0.15100
H 	H 	0.72335 0.08102 0.75510 0.04600
H 	H 	0.72272 0.93562 0.71073 0.14400
H 	H 	0.68576 0.00954 0.81018 0.07100
F 	F 	0.76317 0.00646 0.64726 -0.42700
C 	C 	0.76380 0.95546 0.95658 0.01200
C 	C 	0.75545 0.94083 0.99905 -0.05000
C 	C 	0.77554 0.97459 0.02228 0.05900
C 	C 	0.80429 0.02341 0.00333 -0.16900
C 	C 	0.81400 0.03799 0.96040 0.38800
C 	C 	0.79387 0.00424 0.93721 -0.14900
H 	H 	0.76782 0.96283 0.05532 0.06600
H 	H 	0.80115 0.01615 0.90436 0.12300
H 	H 	0.73308 0.90338 0.01424 0.07300
F 	F 	0.84318 0.08482 0.94101 -0.42900
C 	C 	0.70305 0.72417 0.99525 0.03000
C 	C 	0.71972 0.69214 0.98205 -0.06300
C 	C 	0.73849 0.67724 0.00615 0.07300
C 	C 	0.74079 0.69406 0.04376 -0.18300
C 	C 	0.72306 0.72529 0.05755 0.39900
C 	C 	0.70405 0.73994 0.03355 -0.16100
H 	H 	0.75164 0.65292 0.99535 0.04900
H 	H 	0.69090 0.76423 0.04441 0.12900
H 	H 	0.71905 0.67943 0.95271 0.07600
F 	F 	0.72591 0.74286 0.09329 -0.42900
C 	C 	0.80181 0.76734 0.73458 0.01100
C 	C 	0.78680 0.75057 0.77834 -0.04800
C 	C 	0.76723 0.77163 0.80937 0.04500
C 	C 	0.76248 0.80959 0.79699 -0.12500
C 	C 	0.78083 0.82864 0.75315 0.36900
C 	C 	0.80118 0.80809 0.72212 -0.14200
H 	H 	0.75359 0.75697 0.84313 0.05400
H 	H 	0.81451 0.82261 0.68837 0.13300
H 	H 	0.78824 0.71997 0.78850 0.06900
F 	F 	0.77707 0.86569 0.74054 -0.42900
