data_crystal

_cell_length_a 29.95863
_cell_length_b 25.59717
_cell_length_c 37.94938
_cell_angle_alpha 89.99938
_cell_angle_beta  90.00040
_cell_angle_gamma 90.00112

_symmetry_space_group_name_	'P 1'
_symmetry_space_group_name_H-M	'P 1'

loop_
_symmetry_equiv_pos_as_xyz
  x,y,z

loop_
_atom_site_label
_atom_site_type_symbol
_atom_site_fract_x
_atom_site_fract_y
_atom_site_fract_z
_atom_site_charge
Co	Co	0.16576 0.45016 0.37923 1.19600
O 	O 	0.15930 0.38092 0.40787 -0.32800
Co	Co	0.16799 0.57635 0.35978 1.19000
O 	O 	0.18092 0.51714 0.40540 -0.43400
O 	O 	0.11223 0.54647 0.33925 -0.40700
O 	O 	0.22386 0.40597 0.39338 -0.29700
C 	C 	0.08779 0.50849 0.35307 0.36600
O 	O 	0.14316 0.58735 0.41242 -0.32600
C 	C 	0.21384 0.65844 0.34413 0.31200
C 	C 	0.19136 0.48368 0.31491 0.31700
O 	O 	0.17578 0.64538 0.33098 -0.34500
O 	O 	0.22620 0.62482 0.36752 -0.28300
O 	O 	0.17435 0.43883 0.32364 -0.30400
O 	O 	0.20051 0.51125 0.34261 -0.42500
O 	O 	0.10352 0.47764 0.37823 -0.52500
C 	C 	0.20131 0.37013 0.40934 0.30700
C 	C 	0.15475 0.54291 0.42614 0.32200
H 	H 	0.08219 0.46271 0.39638 0.20200
Co	Co	0.17543 0.58489 0.62227 1.19000
O 	O 	0.17383 0.65585 0.59491 -0.33900
Co	Co	0.17403 0.45709 0.63932 1.19600
O 	O 	0.18870 0.51787 0.59512 -0.45200
O 	O 	0.12010 0.49167 0.65830 -0.38100
O 	O 	0.23636 0.62465 0.60961 -0.32500
C 	C 	0.09436 0.52194 0.63897 0.36300
O 	O 	0.15025 0.44860 0.58609 -0.30600
C 	C 	0.21683 0.37332 0.65583 0.30900
C 	C 	0.19850 0.54690 0.68606 0.33800
O 	O 	0.17852 0.38748 0.66799 -0.33000
O 	O 	0.23101 0.40634 0.63268 -0.30000
O 	O 	0.18369 0.59316 0.67816 -0.32500
O 	O 	0.20749 0.52046 0.65789 -0.45000
O 	O 	0.11061 0.56441 0.62306 -0.51500
C 	C 	0.21645 0.66273 0.59383 0.32100
C 	C 	0.16215 0.49386 0.57377 0.32100
H 	H 	0.09025 0.58618 0.60761 0.19600
Co	Co	0.81776 0.55998 0.37590 1.19700
O 	O 	0.82172 0.63068 0.40319 -0.32800
Co	Co	0.81865 0.43294 0.35920 1.19000
O 	O 	0.80473 0.49378 0.40359 -0.45000
O 	O 	0.87326 0.46417 0.33781 -0.40600
O 	O 	0.75813 0.60167 0.38940 -0.30100
C 	C 	0.89749 0.50244 0.35149 0.37000
O 	O 	0.84423 0.42515 0.41189 -0.32300
C 	C 	0.77391 0.34953 0.34540 0.31400
C 	C 	0.79299 0.52258 0.31239 0.31800
O 	O 	0.81186 0.36234 0.33195 -0.34700
O 	O 	0.76126 0.38382 0.36820 -0.29800
O 	O 	0.80872 0.56845 0.32014 -0.30400
O 	O 	0.78455 0.49603 0.34068 -0.42700
O 	O 	0.88095 0.53522 0.37526 -0.52000
C 	C 	0.77933 0.63921 0.40469 0.30800
C 	C 	0.83184 0.46994 0.42464 0.32700
H 	H 	0.90186 0.55234 0.39282 0.20900
Co	Co	0.82276 0.42196 0.62049 1.19000
O 	O 	0.82577 0.35267 0.59143 -0.35700
Co	Co	0.82363 0.54891 0.63933 1.19800
O 	O 	0.80934 0.48967 0.59406 -0.43300
O 	O 	0.87737 0.51400 0.65834 -0.37800
O 	O 	0.76260 0.38075 0.60720 -0.29900
C 	C 	0.90344 0.48452 0.63877 0.35600
O 	O 	0.84827 0.55887 0.58654 -0.31000
C 	C 	0.78201 0.63366 0.65536 0.29900
C 	C 	0.79838 0.45781 0.68464 0.33700
O 	O 	0.81929 0.61799 0.66856 -0.30500
O 	O 	0.76751 0.60083 0.63221 -0.30400
O 	O 	0.81382 0.41199 0.67623 -0.32300
O 	O 	0.78975 0.48508 0.65674 -0.44700
O 	O 	0.88743 0.44287 0.62185 -0.51900
C 	C 	0.78334 0.34439 0.59023 0.31400
C 	C 	0.83597 0.51448 0.57313 0.31400
H 	H 	0.90794 0.42195 0.60600 0.18900
Co	Co	0.66444 0.92485 0.37439 1.19600
O 	O 	0.66175 0.85229 0.39971 -0.32200
Co	Co	0.66531 0.05422 0.36218 1.19200
O 	O 	0.67844 0.98959 0.40387 -0.44200
O 	O 	0.60972 0.02399 0.34328 -0.41300
O 	O 	0.72480 0.88418 0.38713 -0.30900
C 	C 	0.58456 0.99149 0.36139 0.37100
O 	O 	0.64275 0.05928 0.41594 -0.32200
C 	C 	0.70978 0.13762 0.34798 0.31400
C 	C 	0.68925 0.96713 0.31232 0.32500
O 	O 	0.67109 0.12540 0.33571 -0.34800
O 	O 	0.72348 0.10275 0.37005 -0.29700
O 	O 	0.67467 0.92021 0.31853 -0.32900
O 	O 	0.69761 0.99140 0.34146 -0.42800
O 	O 	0.59960 0.94436 0.37039 -0.51000
C 	C 	0.70432 0.84552 0.40169 0.31700
C 	C 	0.65313 0.01250 0.42656 0.33500
H 	H 	0.57736 0.91612 0.37694 0.21400
Co	Co	0.67468 0.05586 0.62043 1.19600
O 	O 	0.67088 0.12465 0.59075 -0.34400
Co	Co	0.67573 0.92948 0.64077 1.19200
O 	O 	0.69266 0.98843 0.59573 -0.42500
O 	O 	0.61786 0.95890 0.65773 -0.39500
O 	O 	0.73391 0.10023 0.60972 -0.29000
C 	C 	0.59503 0.99755 0.64299 0.37200
O 	O 	0.65594 0.91759 0.58703 -0.32700
C 	C 	0.71979 0.84706 0.65864 0.30500
C 	C 	0.69438 0.02267 0.68612 0.32700
O 	O 	0.68110 0.86071 0.67024 -0.32200
O 	O 	0.73439 0.88087 0.63621 -0.31000
O 	O 	0.67827 0.06757 0.67635 -0.30900
O 	O 	0.70609 0.99519 0.65906 -0.44900
O 	O 	0.61272 0.02766 0.61823 -0.52700
C 	C 	0.71301 0.13503 0.59146 0.31800
C 	C 	0.66890 0.96179 0.57373 0.31900
H 	H 	0.59277 0.04241 0.59907 0.20300
Co	Co	0.31274 0.08536 0.37694 1.19100
O 	O 	0.31431 0.15630 0.40423 -0.33800
Co	Co	0.31643 0.95700 0.36101 1.19200
O 	O 	0.30317 0.01820 0.40503 -0.43900
O 	O 	0.36923 0.99162 0.34062 -0.38400
O 	O 	0.25172 0.12287 0.39215 -0.31900
C 	C 	0.39434 0.02469 0.35837 0.35300
O 	O 	0.34321 0.95032 0.41346 -0.33300
C 	C 	0.27416 0.87204 0.34685 0.31000
C 	C 	0.28882 0.04593 0.31421 0.33600
O 	O 	0.31171 0.88648 0.33345 -0.34100
O 	O 	0.26052 0.90542 0.36995 -0.29200
O 	O 	0.30084 0.09340 0.32162 -0.31800
O 	O 	0.28103 0.01918 0.34251 -0.44600
O 	O 	0.37788 0.06952 0.37077 -0.51500
C 	C 	0.27168 0.16160 0.40715 0.32100
C 	C 	0.33113 0.99544 0.42589 0.32100
H 	H 	0.39924 0.09773 0.37898 0.19600
Co	Co	0.32420 0.95191 0.62120 1.19700
O 	O 	0.32783 0.88247 0.59238 -0.32900
Co	Co	0.32370 0.07850 0.64046 1.19000
O 	O 	0.30689 0.01888 0.59584 -0.45400
O 	O 	0.38149 0.04917 0.65763 -0.39700
O 	O 	0.26477 0.90802 0.61028 -0.31200
C 	C 	0.40423 0.01017 0.64324 0.37200
O 	O 	0.34368 0.08941 0.58652 -0.31800
C 	C 	0.27907 0.16032 0.65881 0.31800
C 	C 	0.30518 0.98598 0.68681 0.32400
O 	O 	0.31836 0.14756 0.66960 -0.34300
O 	O 	0.26467 0.12662 0.63620 -0.30500
O 	O 	0.32077 0.94080 0.67713 -0.29300
O 	O 	0.29322 0.01327 0.65965 -0.44900
O 	O 	0.38642 0.97937 0.61890 -0.52000
C 	C 	0.28570 0.87214 0.59302 0.31000
C 	C 	0.33131 0.04460 0.57379 0.32700
H 	H 	0.40634 0.96385 0.60000 0.20900
Co	Co	0.66736 0.56037 0.12036 1.19700
O 	O 	0.66221 0.63090 0.09299 -0.32700
Co	Co	0.66855 0.43311 0.13649 1.19000
O 	O 	0.68259 0.49482 0.09271 -0.45000
O 	O 	0.61289 0.46270 0.15728 -0.40600
O 	O 	0.72625 0.60411 0.10764 -0.30100
C 	C 	0.58837 0.50070 0.14363 0.37100
O 	O 	0.64469 0.42535 0.08320 -0.32300
C 	C 	0.71395 0.35038 0.15108 0.31400
C 	C 	0.69181 0.52290 0.18399 0.31800
O 	O 	0.67555 0.36274 0.16388 -0.34700
O 	O 	0.72682 0.38482 0.12843 -0.29800
O 	O 	0.67531 0.56846 0.17629 -0.30600
O 	O 	0.70111 0.49691 0.15565 -0.42700
O 	O 	0.60475 0.53364 0.11993 -0.52100
C 	C 	0.70439 0.64071 0.09188 0.30800
C 	C 	0.65670 0.47062 0.07095 0.32600
H 	H 	0.58394 0.54982 0.10190 0.21300
Co	Co	0.66935 0.42817 0.87575 1.19500
O 	O 	0.66347 0.35837 0.90395 -0.33100
Co	Co	0.67196 0.55468 0.85718 1.19200
O 	O 	0.68427 0.49481 0.90249 -0.43900
O 	O 	0.61720 0.52344 0.83632 -0.39400
O 	O 	0.72783 0.38439 0.88968 -0.31000
C 	C 	0.59071 0.48964 0.85233 0.36700
O 	O 	0.64634 0.56492 0.90969 -0.32600
C 	C 	0.71682 0.63778 0.84233 0.30400
C 	C 	0.69494 0.46280 0.81173 0.32900
O 	O 	0.67937 0.62393 0.82851 -0.32100
O 	O 	0.72954 0.60409 0.86556 -0.30500
O 	O 	0.67792 0.41782 0.82013 -0.29900
O 	O 	0.70447 0.48983 0.83961 -0.44700
O 	O 	0.60637 0.45432 0.87488 -0.51700
C 	C 	0.70558 0.34823 0.90557 0.31000
C 	C 	0.65777 0.52025 0.92315 0.32000
H 	H 	0.58523 0.43779 0.89251 0.19800
Co	Co	0.31778 0.44237 0.12286 1.19800
O 	O 	0.32264 0.37240 0.09485 -0.32800
Co	Co	0.31722 0.56941 0.14001 1.19000
O 	O 	0.30276 0.50853 0.09582 -0.45000
O 	O 	0.37282 0.53895 0.16033 -0.40600
O 	O 	0.25871 0.39912 0.10981 -0.30000
C 	C 	0.39730 0.50154 0.14592 0.37100
O 	O 	0.34091 0.57796 0.08675 -0.32300
C 	C 	0.27224 0.65223 0.15519 0.31400
C 	C 	0.29354 0.47896 0.18679 0.31800
O 	O 	0.31062 0.63946 0.16786 -0.34700
O 	O 	0.25915 0.61811 0.13240 -0.29800
O 	O 	0.30985 0.43343 0.17876 -0.30400
O 	O 	0.28441 0.50547 0.15865 -0.42700
O 	O 	0.38054 0.46862 0.12236 -0.52100
C 	C 	0.28043 0.36279 0.09365 0.30900
C 	C 	0.32870 0.53294 0.07423 0.32700
H 	H 	0.40111 0.45235 0.10420 0.21200
Co	Co	0.32431 0.57358 0.87843 1.19500
O 	O 	0.33317 0.64356 0.90606 -0.32800
Co	Co	0.31549 0.44683 0.86103 1.19200
O 	O 	0.30515 0.50868 0.90545 -0.43800
O 	O 	0.37291 0.47247 0.84082 -0.39500
O 	O 	0.26785 0.62168 0.89104 -0.31200
C 	C 	0.39981 0.50752 0.85529 0.36700
O 	O 	0.33873 0.43593 0.91412 -0.32100
C 	C 	0.26599 0.36744 0.84602 0.30500
C 	C 	0.29892 0.53915 0.81433 0.32900
O 	O 	0.30499 0.37721 0.83336 -0.33700
O 	O 	0.25450 0.40296 0.86841 -0.28900
O 	O 	0.31782 0.58318 0.82254 -0.30200
O 	O 	0.28728 0.51366 0.84232 -0.44800
O 	O 	0.38528 0.54188 0.87889 -0.52000
C 	C 	0.29155 0.65638 0.90708 0.30900
C 	C 	0.32959 0.48177 0.92684 0.32100
H 	H 	0.40686 0.55617 0.89708 0.19800
Co	Co	0.16926 0.07772 0.12182 1.19100
O 	O 	0.16702 0.14884 0.09477 -0.33700
Co	Co	0.16685 0.94915 0.13803 1.19400
O 	O 	0.17895 0.01027 0.09388 -0.45400
O 	O 	0.11320 0.98291 0.15770 -0.39500
O 	O 	0.22984 0.11552 0.10602 -0.32700
C 	C 	0.08842 0.01594 0.13956 0.35900
O 	O 	0.14050 0.94131 0.08553 -0.31100
C 	C 	0.21015 0.86506 0.15263 0.31300
C 	C 	0.19525 0.03854 0.18440 0.33900
O 	O 	0.17247 0.87909 0.16601 -0.33700
O 	O 	0.22330 0.89836 0.12930 -0.30000
O 	O 	0.18243 0.08576 0.17701 -0.33100
O 	O 	0.20198 0.01201 0.15588 -0.44600
O 	O 	0.10450 0.06235 0.12996 -0.50900
C 	C 	0.20960 0.15453 0.09159 0.32100
C 	C 	0.15141 0.98683 0.07297 0.32800
H 	H 	0.08312 0.09240 0.12574 0.20800
Co	Co	0.17722 0.93904 0.87706 1.18900
O 	O 	0.17776 0.86843 0.90480 -0.33900
Co	Co	0.16867 0.06574 0.85851 1.19900
O 	O 	0.18377 0.00749 0.90426 -0.44100
O 	O 	0.11813 0.02649 0.83751 -0.37100
O 	O 	0.23935 0.90426 0.89268 -0.32500
C 	C 	0.09335 0.99339 0.85563 0.35200
O 	O 	0.14004 0.07307 0.91012 -0.30800
C 	C 	0.20754 0.15319 0.84443 0.30700
C 	C 	0.20263 0.97765 0.81389 0.34000
O 	O 	0.17120 0.13609 0.83031 -0.29700
O 	O 	0.22189 0.12080 0.86790 -0.30500
O 	O 	0.18999 0.93050 0.82174 -0.33400
O 	O 	0.20762 0.00538 0.84214 -0.44600
O 	O 	0.11155 0.95350 0.87317 -0.51900
C 	C 	0.22052 0.86474 0.90771 0.32100
C 	C 	0.15397 0.02960 0.92388 0.31900
H 	H 	0.09171 0.93006 0.88792 0.18900
Co	Co	0.81771 0.92433 0.12367 1.19500
O 	O 	0.82033 0.85271 0.09724 -0.32800
Co	Co	0.82074 0.05318 0.13870 1.19000
O 	O 	0.80990 0.99119 0.09483 -0.44500
O 	O 	0.87278 0.01892 0.16047 -0.40400
O 	O 	0.75742 0.88718 0.10651 -0.31100
C 	C 	0.89808 0.98597 0.14288 0.36700
O 	O 	0.85007 0.05888 0.08705 -0.33900
C 	C 	0.77742 0.13809 0.15068 0.31400
C 	C 	0.78931 0.96515 0.18498 0.33000
O 	O 	0.81430 0.12423 0.16548 -0.34600
O 	O 	0.76523 0.10423 0.12742 -0.29800
O 	O 	0.80204 0.91762 0.17855 -0.32200
O 	O 	0.78412 0.99130 0.15611 -0.42800
O 	O 	0.88244 0.93988 0.13228 -0.51000
C 	C 	0.77787 0.84775 0.09283 0.31800
C 	C 	0.83876 0.01347 0.07454 0.32500
H 	H 	0.90431 0.91143 0.12539 0.21600
Co	Co	0.81788 0.06242 0.87859 1.19100
O 	O 	0.81827 0.13272 0.90673 -0.33900
Co	Co	0.82183 0.93575 0.85943 1.19800
O 	O 	0.80509 0.99433 0.90449 -0.42700
O 	O 	0.87533 0.97197 0.84051 -0.37000
O 	O 	0.75638 0.10109 0.89090 -0.31300
C 	C 	0.90043 0.00416 0.85912 0.35400
O 	O 	0.84548 0.92637 0.91253 -0.31700
C 	C 	0.78090 0.85050 0.84345 0.30100
C 	C 	0.79567 0.02643 0.81405 0.33800
O 	O 	0.81847 0.86603 0.83060 -0.30200
O 	O 	0.76589 0.88356 0.86618 -0.30900
O 	O 	0.81039 0.07236 0.82284 -0.33400
O 	O 	0.78709 0.99873 0.84175 -0.44500
O 	O 	0.88260 0.04211 0.87865 -0.52200
C 	C 	0.77557 0.13920 0.90718 0.32700
C 	C 	0.83136 0.97005 0.92590 0.31500
H 	H 	0.90233 0.06220 0.89559 0.19000
C 	C 	0.83798 0.00396 0.03646 -0.10000
C 	C 	0.87079 0.97276 0.02033 0.18700
C 	C 	0.86839 0.96243 0.98420 -0.03900
C 	C 	0.83207 0.98038 0.96422 -0.08500
C 	C 	0.79755 0.00879 0.98109 0.17700
C 	C 	0.80176 0.02211 0.01664 -0.02500
H 	H 	0.89462 0.93989 0.97170 0.10200
H 	H 	0.77561 0.04454 0.02934 0.10000
Cl	Cl	0.91382 0.94412 0.04527 -0.30200
Cl	Cl	0.74651 0.02220 0.95982 -0.26900
C 	C 	0.94979 0.00121 0.85520 -0.10100
C 	C 	0.97189 0.95255 0.85333 0.19300
C 	C 	0.01842 0.95089 0.85017 -0.03900
C 	C 	0.04388 0.99688 0.85269 -0.09700
C 	C 	0.02177 0.04556 0.85437 0.19000
C 	C 	0.97507 0.04745 0.85404 -0.03700
H 	H 	0.03488 0.91347 0.84708 0.08800
H 	H 	0.95844 0.08504 0.85389 0.08600
Cl	Cl	0.94242 0.89324 0.85760 -0.27400
Cl	Cl	0.05175 0.10446 0.85884 -0.29000
C 	C 	0.03949 0.00824 0.14009 -0.10400
C 	C 	0.01304 0.02048 0.11044 0.18700
C 	C 	0.96666 0.01552 0.11234 -0.03400
C 	C 	0.94649 0.99496 0.14258 -0.10800
C 	C 	0.97275 0.98185 0.17196 0.19300
C 	C 	0.01896 0.98906 0.17078 -0.03400
H 	H 	0.94630 0.02727 0.09013 0.09500
H 	H 	0.03892 0.97993 0.19379 0.10800
Cl	Cl	0.03750 0.03966 0.07023 -0.29000
Cl	Cl	0.94814 0.95631 0.21045 -0.26500
C 	C 	0.15214 0.02023 0.96196 -0.09400
C 	C 	0.17984 0.04828 0.98510 0.19700
C 	C 	0.17880 0.03754 0.02119 -0.04200
C 	C 	0.15037 0.99860 0.03468 -0.08100
C 	C 	0.12135 0.97177 0.01141 0.19300
C 	C 	0.12298 0.98230 0.97523 -0.03700
H 	H 	0.20050 0.05923 0.03873 0.08800
H 	H 	0.10117 0.96119 0.95741 0.07500
Cl	Cl	0.21657 0.09661 0.96917 -0.25500
Cl	Cl	0.08130 0.92685 0.02696 -0.24300
C 	C 	0.24713 0.31424 0.84632 -0.07300
C 	C 	0.24306 0.28578 0.87801 0.18900
C 	C 	0.22884 0.23370 0.87715 -0.04000
C 	C 	0.21939 0.20914 0.84492 -0.06600
C 	C 	0.22320 0.23765 0.81329 0.18300
C 	C 	0.23684 0.28998 0.81417 -0.03700
H 	H 	0.22581 0.21206 0.90159 0.11400
H 	H 	0.24036 0.31149 0.78972 0.09200
Cl	Cl	0.25810 0.31361 0.91882 -0.24900
Cl	Cl	0.21344 0.20761 0.77219 -0.25700
C 	C 	0.27720 0.71124 0.90903 -0.07300
C 	C 	0.28921 0.74703 0.88246 0.18600
C 	C 	0.27231 0.79797 0.88322 -0.03600
C 	C 	0.24282 0.81349 0.91001 -0.07900
C 	C 	0.23192 0.77816 0.93715 0.18700
C 	C 	0.24899 0.72722 0.93646 -0.03900
H 	H 	0.28080 0.82488 0.86221 0.09800
H 	H 	0.23996 0.69992 0.95709 0.09300
Cl	Cl	0.32359 0.72788 0.84705 -0.25600
Cl	Cl	0.19749 0.79745 0.97248 -0.26400
C 	C 	0.22621 0.81071 0.15349 -0.07500
C 	C 	0.27228 0.79970 0.15385 0.18500
C 	C 	0.28698 0.74785 0.15431 -0.03800
C 	C 	0.25612 0.70658 0.15488 -0.07700
C 	C 	0.21005 0.71761 0.15536 0.18500
C 	C 	0.19534 0.76946 0.15445 -0.03800
H 	H 	0.32247 0.73968 0.15420 0.09800
H 	H 	0.15985 0.77765 0.15450 0.10100
Cl	Cl	0.31202 0.85042 0.15536 -0.25900
Cl	Cl	0.17038 0.66699 0.15865 -0.25500
C 	C 	0.26364 0.30904 0.09261 -0.07100
C 	C 	0.27208 0.27455 0.12073 0.18800
C 	C 	0.25555 0.22359 0.11957 -0.03500
C 	C 	0.23002 0.20669 0.09075 -0.07800
C 	C 	0.22188 0.24101 0.06247 0.19000
C 	C 	0.23870 0.29204 0.06354 -0.03800
H 	H 	0.26155 0.19750 0.14157 0.09700
H 	H 	0.23238 0.31843 0.04176 0.10200
Cl	Cl	0.30210 0.29524 0.15817 -0.26300
Cl	Cl	0.19154 0.22025 0.02525 -0.24700
C 	C 	0.32976 0.49218 0.96483 -0.09600
C 	C 	0.29034 0.48739 0.98472 0.18800
C 	C 	0.29002 0.50221 0.02016 -0.04400
C 	C 	0.32899 0.52118 0.03626 -0.09800
C 	C 	0.36877 0.52463 0.01657 0.18300
C 	C 	0.36886 0.51049 0.98092 -0.04400
H 	H 	0.25948 0.49861 0.03529 0.09700
H 	H 	0.39934 0.51392 0.96570 0.07500
Cl	Cl	0.24137 0.46157 0.96578 -0.25400
Cl	Cl	0.41917 0.54414 0.03659 -0.29000
C 	C 	0.73290 0.69234 0.84228 -0.07300
C 	C 	0.70287 0.73484 0.84395 0.18800
C 	C 	0.71914 0.78603 0.84294 -0.04200
C 	C 	0.76518 0.79579 0.84191 -0.06800
C 	C 	0.79533 0.75325 0.84169 0.18400
C 	C 	0.77895 0.70199 0.84127 -0.03700
H 	H 	0.69586 0.81844 0.84386 0.10100
H 	H 	0.80219 0.66954 0.84070 0.10000
Cl	Cl	0.64517 0.72502 0.85032 -0.26200
Cl	Cl	0.85349 0.76295 0.84452 -0.23900
C 	C 	0.72193 0.29418 0.90653 -0.07400
C 	C 	0.71460 0.26043 0.87781 0.18700
C 	C 	0.73122 0.20945 0.87870 -0.03500
C 	C 	0.75563 0.19174 0.90792 -0.07900
C 	C 	0.76257 0.22530 0.93682 0.19000
C 	C 	0.74579 0.27638 0.93596 -0.04000
H 	H 	0.72605 0.18395 0.85626 0.09700
H 	H 	0.75130 0.30220 0.95819 0.09200
Cl	Cl	0.68575 0.28199 0.84003 -0.26400
Cl	Cl	0.79115 0.20343 0.97462 -0.27000
C 	C 	0.54189 0.49413 0.84679 -0.10200
C 	C 	0.51484 0.44928 0.84365 0.18300
C 	C 	0.46836 0.45401 0.84562 -0.03000
C 	C 	0.44838 0.50351 0.84819 -0.10200
C 	C 	0.47533 0.54857 0.84583 0.18300
C 	C 	0.52187 0.54373 0.84641 -0.03100
H 	H 	0.44784 0.41914 0.84543 0.09100
H 	H 	0.54243 0.57856 0.84682 0.09300
Cl	Cl	0.53844 0.38761 0.83470 -0.26800
Cl	Cl	0.45143 0.61081 0.83954 -0.26500
C 	C 	0.73048 0.29620 0.15071 -0.07700
C 	C 	0.77661 0.28559 0.15190 0.18400
C 	C 	0.79166 0.23384 0.15174 -0.03800
C 	C 	0.76107 0.19232 0.15075 -0.07700
C 	C 	0.71494 0.20294 0.15019 0.18400
C 	C 	0.69991 0.25465 0.14993 -0.03800
H 	H 	0.82719 0.22594 0.15240 0.09700
H 	H 	0.66438 0.26251 0.14923 0.09800
Cl	Cl	0.81588 0.33663 0.15515 -0.25700
Cl	Cl	0.67548 0.15189 0.15151 -0.25400
C 	C 	0.72118 0.69450 0.09120 -0.07200
C 	C 	0.71037 0.72963 0.11845 0.18900
C 	C 	0.72782 0.78020 0.11807 -0.03600
C 	C 	0.75674 0.79600 0.09101 -0.07500
C 	C 	0.76726 0.76104 0.06359 0.18800
C 	C 	0.74949 0.71044 0.06383 -0.03800
H 	H 	0.71995 0.80678 0.13942 0.10300
H 	H 	0.75781 0.68350 0.04279 0.09800
Cl	Cl	0.67660 0.71007 0.15415 -0.26200
Cl	Cl	0.80188 0.78045 0.02841 -0.25600
C 	C 	0.44601 0.50124 0.15275 -0.10400
C 	C 	0.46972 0.45381 0.15542 0.18400
C 	C 	0.51636 0.45396 0.15352 -0.02700
C 	C 	0.53984 0.50134 0.15130 -0.10400
C 	C 	0.51626 0.54886 0.15415 0.18300
C 	C 	0.46953 0.54867 0.15370 -0.02600
H 	H 	0.53428 0.41719 0.15326 0.09100
H 	H 	0.45157 0.58542 0.15353 0.09100
Cl	Cl	0.44165 0.39437 0.16308 -0.28000
Cl	Cl	0.54463 0.60845 0.16051 -0.28000
C 	C 	0.65679 0.48256 0.03296 -0.09700
C 	C 	0.61715 0.47960 0.01305 0.18200
C 	C 	0.61754 0.49338 0.97731 -0.04400
C 	C 	0.65704 0.51072 0.96132 -0.09800
C 	C 	0.69633 0.51512 0.98145 0.18700
C 	C 	0.69612 0.50076 0.01700 -0.04400
H 	H 	0.58717 0.49024 0.96193 0.07600
H 	H 	0.72655 0.50401 0.03228 0.09700
Cl	Cl	0.56638 0.46096 0.03286 -0.29100
Cl	Cl	0.74578 0.54004 0.96274 -0.26800
C 	C 	0.28260 0.99222 0.72119 -0.08300
C 	C 	0.30029 0.96866 0.75173 0.18500
C 	C 	0.27432 0.96537 0.78229 -0.02700
C 	C 	0.23126 0.98681 0.78308 -0.09400
C 	C 	0.21527 0.01475 0.75380 0.18500
C 	C 	0.24087 0.01733 0.72297 -0.03900
H 	H 	0.28743 0.94558 0.80533 0.09500
H 	H 	0.22764 0.03736 0.70008 0.10200
Cl	Cl	0.35539 0.94454 0.75243 -0.24400
Cl	Cl	0.16293 0.04601 0.75517 -0.26500
C 	C 	0.26811 0.03295 0.28022 -0.09300
C 	C 	0.28998 0.04560 0.24851 0.18700
C 	C 	0.26678 0.04312 0.21663 -0.02800
C 	C 	0.22173 0.02849 0.21609 -0.09700
C 	C 	0.20099 0.01147 0.24729 0.18500
C 	C 	0.22431 0.01345 0.27923 -0.03600
H 	H 	0.28316 0.05501 0.19245 0.09700
H 	H 	0.20767 0.00219 0.30343 0.10200
Cl	Cl	0.34619 0.06577 0.24843 -0.24500
Cl	Cl	0.14541 0.98905 0.24684 -0.27700
C 	C 	0.33132 0.00628 0.46391 -0.10000
C 	C 	0.29230 0.99998 0.48416 0.19100
C 	C 	0.29235 0.01371 0.51983 -0.04400
C 	C 	0.33124 0.03321 0.53575 -0.09600
C 	C 	0.37058 0.03823 0.51567 0.18500
C 	C 	0.37035 0.02502 0.47986 -0.04100
H 	H 	0.26217 0.00890 0.53525 0.09500
H 	H 	0.40056 0.02933 0.46447 0.07700
Cl	Cl	0.24352 0.97320 0.46552 -0.26300
Cl	Cl	0.42097 0.05849 0.53537 -0.28900
C 	C 	0.71817 0.01737 0.71990 -0.09200
C 	C 	0.69861 0.03511 0.75144 0.18400
C 	C 	0.72398 0.03680 0.78235 -0.03000
C 	C 	0.76859 0.02019 0.78221 -0.09800
C 	C 	0.78731 0.99945 0.75132 0.18400
C 	C 	0.76211 0.99803 0.72032 -0.03800
H 	H 	0.70916 0.05162 0.80642 0.09500
H 	H 	0.77717 0.98330 0.69633 0.09600
Cl	Cl	0.64208 0.05405 0.75281 -0.25500
Cl	Cl	0.84247 0.97562 0.75099 -0.27600
C 	C 	0.54651 0.00114 0.65014 -0.10600
C 	C 	0.52506 0.05007 0.65227 0.18700
C 	C 	0.47841 0.05275 0.65132 -0.02700
C 	C 	0.45279 0.00684 0.65022 -0.10100
C 	C 	0.47424 0.95801 0.65319 0.18500
C 	C 	0.52089 0.95529 0.65218 -0.02600
H 	H 	0.46215 0.09056 0.65076 0.09500
H 	H 	0.53715 0.91746 0.65231 0.09600
Cl	Cl	0.55604 0.10801 0.65786 -0.28000
Cl	Cl	0.44325 0.90031 0.65984 -0.26400
C 	C 	0.71506 0.97808 0.28021 -0.09200
C 	C 	0.76219 0.97876 0.28092 0.19000
C 	C 	0.78618 0.97898 0.24932 -0.03800
C 	C 	0.76382 0.97756 0.21695 -0.09100
C 	C 	0.71678 0.98011 0.21620 0.18900
C 	C 	0.69274 0.98066 0.24781 -0.03700
H 	H 	0.82234 0.97761 0.24998 0.10100
H 	H 	0.65656 0.98074 0.24714 0.09100
Cl	Cl	0.79179 0.97554 0.32102 -0.24900
Cl	Cl	0.68735 0.97934 0.17599 -0.25300
C 	C 	0.53595 0.00031 0.36079 -0.11500
C 	C 	0.51314 0.01787 0.39100 0.19000
C 	C 	0.46688 0.02434 0.39004 -0.04300
C 	C 	0.44319 0.01646 0.35865 -0.10400
C 	C 	0.46639 0.00125 0.32790 0.18400
C 	C 	0.51238 0.99218 0.32939 -0.02600
H 	H 	0.44942 0.03670 0.41360 0.07300
H 	H 	0.52999 0.97977 0.30588 0.09000
Cl	Cl	0.54208 0.03563 0.42943 -0.28600
Cl	Cl	0.43919 0.99687 0.28684 -0.24300
C 	C 	0.65665 0.99996 0.46419 -0.08900
C 	C 	0.63014 0.96039 0.47921 0.19300
C 	C 	0.63427 0.94867 0.51499 -0.03800
C 	C 	0.66724 0.97291 0.53551 -0.08600
C 	C 	0.69703 0.00858 0.51938 0.17200
C 	C 	0.68994 0.02389 0.48445 -0.02800
H 	H 	0.61214 0.92007 0.52676 0.10300
H 	H 	0.71212 0.05220 0.47241 0.09700
Cl	Cl	0.59335 0.92310 0.45330 -0.29900
Cl	Cl	0.74707 0.02767 0.54009 -0.26200
C 	C 	0.77207 0.46491 0.71701 -0.09400
C 	C 	0.79332 0.46936 0.74992 0.18400
C 	C 	0.76776 0.47147 0.78078 -0.03700
C 	C 	0.72098 0.46869 0.77909 -0.08900
C 	C 	0.69972 0.46636 0.74608 0.18500
C 	C 	0.72527 0.46465 0.71522 -0.03300
H 	H 	0.78432 0.47362 0.80613 0.09700
H 	H 	0.70874 0.46185 0.68988 0.10100
Cl	Cl	0.85195 0.47226 0.75284 -0.27100
Cl	Cl	0.64104 0.46555 0.74302 -0.25400
C 	C 	0.76663 0.68853 0.65680 -0.06700
C 	C 	0.79697 0.73062 0.66040 0.18300
C 	C 	0.78091 0.78191 0.66200 -0.03700
C 	C 	0.73520 0.79228 0.65855 -0.07400
C 	C 	0.70513 0.75043 0.65333 0.18900
C 	C 	0.72090 0.69900 0.65333 -0.04200
H 	H 	0.80424 0.81396 0.66516 0.10000
H 	H 	0.69755 0.66705 0.64988 0.10400
Cl	Cl	0.85521 0.72066 0.66000 -0.23900
Cl	Cl	0.64829 0.76158 0.64388 -0.25900
C 	C 	0.76453 0.29120 0.58569 -0.07600
C 	C 	0.71796 0.28249 0.58552 0.18500
C 	C 	0.70139 0.23136 0.58669 -0.04000
C 	C 	0.73069 0.18850 0.58638 -0.07300
C 	C 	0.77689 0.19727 0.58236 0.18400
C 	C 	0.79358 0.24830 0.58266 -0.04000
H 	H 	0.66565 0.22506 0.58794 0.10500
H 	H 	0.82927 0.25451 0.58069 0.10000
Cl	Cl	0.67991 0.33465 0.58135 -0.24700
Cl	Cl	0.81411 0.14507 0.57500 -0.23900
C 	C 	0.76694 0.51471 0.27987 -0.08500
C 	C 	0.71978 0.51383 0.28059 0.18900
C 	C 	0.69568 0.51375 0.24897 -0.03800
C 	C 	0.71795 0.51550 0.21652 -0.08500
C 	C 	0.76510 0.51536 0.21580 0.19000
C 	C 	0.78919 0.51440 0.24741 -0.03800
H 	H 	0.65951 0.51403 0.24967 0.09500
H 	H 	0.82536 0.51536 0.24671 0.09600
Cl	Cl	0.69027 0.51615 0.32075 -0.25100
Cl	Cl	0.79461 0.51998 0.17573 -0.25200
C 	C 	0.75740 0.29537 0.34580 -0.07800
C 	C 	0.71125 0.28496 0.34687 0.18400
C 	C 	0.69611 0.23337 0.34832 -0.03900
C 	C 	0.72655 0.19168 0.34803 -0.07700
C 	C 	0.77268 0.20203 0.34623 0.18300
C 	C 	0.78787 0.25370 0.34536 -0.03900
H 	H 	0.66056 0.22569 0.34940 0.09800
H 	H 	0.82342 0.26141 0.34434 0.09800
Cl	Cl	0.67189 0.33605 0.34465 -0.25500
Cl	Cl	0.81178 0.15074 0.34336 -0.25300
C 	C 	0.76149 0.69252 0.40446 -0.07200
C 	C 	0.76945 0.72581 0.37559 0.18900
C 	C 	0.75108 0.77592 0.37516 -0.03600
C 	C 	0.72423 0.79313 0.40313 -0.07400
C 	C 	0.71621 0.75985 0.43200 0.18800
C 	C 	0.73481 0.70968 0.43250 -0.03700
H 	H 	0.75701 0.80120 0.35273 0.10300
H 	H 	0.72852 0.68405 0.45470 0.09800
Cl	Cl	0.80120 0.70462 0.33918 -0.26200
Cl	Cl	0.68392 0.78101 0.46809 -0.25500
C 	C 	0.83319 0.48145 0.46266 -0.09900
C 	C 	0.87348 0.47764 0.48168 0.18500
C 	C 	0.87420 0.48947 0.51771 -0.04500
C 	C 	0.83519 0.50570 0.53490 -0.09200
C 	C 	0.79526 0.51115 0.51566 0.18700
C 	C 	0.79438 0.49876 0.47978 -0.04100
H 	H 	0.90510 0.48581 0.53238 0.08400
H 	H 	0.76345 0.50266 0.46520 0.09800
Cl	Cl	0.92368 0.46045 0.46041 -0.29500
Cl	Cl	0.74640 0.53502 0.53590 -0.26000
C 	C 	0.22369 0.53825 0.71875 -0.09600
C 	C 	0.20165 0.53720 0.75145 0.18600
C 	C 	0.22646 0.53497 0.78265 -0.03700
C 	C 	0.27330 0.53419 0.78149 -0.09000
C 	C 	0.29527 0.53289 0.74875 0.18500
C 	C 	0.27043 0.53470 0.71755 -0.03200
H 	H 	0.20935 0.53543 0.80781 0.09800
H 	H 	0.28755 0.53485 0.69238 0.10000
Cl	Cl	0.14293 0.53866 0.75368 -0.27000
Cl	Cl	0.35391 0.52897 0.74649 -0.25400
C 	C 	0.23303 0.31894 0.65766 -0.07200
C 	C 	0.27911 0.30787 0.65680 0.18400
C 	C 	0.29380 0.25600 0.65728 -0.03600
C 	C 	0.26301 0.21476 0.65939 -0.07400
C 	C 	0.21708 0.22588 0.66189 0.19100
C 	C 	0.20229 0.27773 0.66069 -0.03700
H 	H 	0.32925 0.24778 0.65593 0.10000
H 	H 	0.16684 0.28592 0.66207 0.10800
Cl	Cl	0.31896 0.35853 0.65690 -0.25700
Cl	Cl	0.17782 0.17546 0.66817 -0.24200
C 	C 	0.23613 0.71539 0.59247 -0.07900
C 	C 	0.22784 0.74875 0.56367 0.18900
C 	C 	0.24444 0.79993 0.56395 -0.03900
C 	C 	0.26948 0.81803 0.59266 -0.07300
C 	C 	0.27828 0.78444 0.62123 0.18600
C 	C 	0.26177 0.73338 0.62094 -0.03500
H 	H 	0.23787 0.82559 0.54182 0.09600
H 	H 	0.26807 0.70802 0.64327 0.10000
Cl	Cl	0.19786 0.72647 0.52666 -0.26100
Cl	Cl	0.30906 0.80624 0.65798 -0.25600
C 	C 	0.04540 0.51214 0.63899 -0.09700
C 	C 	0.02837 0.46067 0.63802 0.19800
C 	C 	0.98231 0.45220 0.64002 -0.03500
C 	C 	0.95239 0.49445 0.63923 -0.09900
C 	C 	0.96940 0.54595 0.63907 0.19100
C 	C 	0.01550 0.55435 0.64076 -0.03300
H 	H 	0.96983 0.41256 0.64167 0.08700
H 	H 	0.02802 0.59391 0.64306 0.08800
Cl	Cl	0.06388 0.40637 0.63243 -0.29200
Cl	Cl	0.93381 0.60046 0.63492 -0.28300
C 	C 	0.21780 0.48892 0.28236 -0.08400
C 	C 	0.26496 0.48859 0.28330 0.18900
C 	C 	0.28928 0.48762 0.25179 -0.03800
C 	C 	0.26723 0.48592 0.21927 -0.08500
C 	C 	0.22008 0.48656 0.21833 0.19000
C 	C 	0.19578 0.48867 0.24980 -0.03800
H 	H 	0.32545 0.48672 0.25266 0.09500
H 	H 	0.15961 0.48839 0.24895 0.09600
Cl	Cl	0.29413 0.48604 0.32361 -0.24800
Cl	Cl	0.19083 0.48121 0.17818 -0.25200
C 	C 	0.22955 0.71300 0.34456 -0.07300
C 	C 	0.27553 0.72453 0.34536 0.18500
C 	C 	0.28979 0.77657 0.34632 -0.03700
C 	C 	0.25858 0.81749 0.34612 -0.07400
C 	C 	0.21265 0.80597 0.34458 0.18600
C 	C 	0.19837 0.75396 0.34404 -0.03800
H 	H 	0.32519 0.78517 0.34720 0.09800
H 	H 	0.16296 0.74542 0.34323 0.10000
Cl	Cl	0.31572 0.67431 0.34365 -0.24900
Cl	Cl	0.17264 0.85628 0.34168 -0.25300
C 	C 	0.21695 0.31583 0.40985 -0.07100
C 	C 	0.20618 0.28154 0.38208 0.18700
C 	C 	0.22281 0.23057 0.38216 -0.03500
C 	C 	0.25083 0.21350 0.40945 -0.07800
C 	C 	0.26106 0.24752 0.43750 0.18900
C 	C 	0.24417 0.29853 0.43752 -0.03900
H 	H 	0.21507 0.20472 0.36038 0.09900
H 	H 	0.25236 0.32476 0.45900 0.09500
Cl	Cl	0.17348 0.30263 0.34616 -0.26300
Cl	Cl	0.29419 0.22638 0.47312 -0.26700
C 	C 	0.03964 0.50634 0.34429 -0.10700
C 	C 	0.01702 0.45811 0.34232 0.18200
C 	C 	0.97033 0.45703 0.34306 -0.02800
C 	C 	0.94590 0.50383 0.34365 -0.10500
C 	C 	0.96857 0.55177 0.33988 0.18200
C 	C 	0.01524 0.55296 0.34122 -0.03100
H 	H 	0.95312 0.41981 0.34401 0.09100
H 	H 	0.03243 0.59021 0.34074 0.09000
Cl	Cl	0.04662 0.39907 0.33733 -0.28000
Cl	Cl	0.93910 0.61018 0.33190 -0.28000
C 	C 	0.15970 0.50705 0.53602 -0.09600
C 	C 	0.11978 0.49994 0.51692 0.18400
C 	C 	0.11808 0.51329 0.48115 -0.04400
C 	C 	0.15555 0.53467 0.46439 -0.09400
C 	C 	0.19476 0.54393 0.48383 0.19100
C 	C 	0.19677 0.52985 0.51939 -0.04200
H 	H 	0.08766 0.50667 0.46632 0.07900
H 	H 	0.22725 0.53662 0.53410 0.09600
Cl	Cl	0.07104 0.47690 0.53779 -0.28300
Cl	Cl	0.24138 0.57405 0.46411 -0.24900
