data_crystal

_cell_length_a 42.09815
_cell_length_b 45.15726
_cell_length_c 25.55803
_cell_angle_alpha 92.08023
_cell_angle_beta  87.99329
_cell_angle_gamma 90.14551

_symmetry_space_group_name_	'P 1'
_symmetry_space_group_name_H-M	'P 1'

loop_
_symmetry_equiv_pos_as_xyz
  x,y,z

loop_
_atom_site_label
_atom_site_type_symbol
_atom_site_fract_x
_atom_site_fract_y
_atom_site_fract_z
_atom_site_charge
Cd	Cd	0.05966 0.87587 0.20775 1.24600
Cd	Cd	0.05785 0.91176 0.33406 1.21100
O 	O 	0.08374 0.82638 0.19977 -0.29600
O 	O 	0.05695 0.84427 0.13629 -0.32900
C 	C 	0.07082 0.82132 0.15492 0.27100
O 	O 	0.02854 0.91528 0.19776 -0.34000
O 	O 	0.04488 0.94194 0.26999 -0.37900
C 	C 	0.02340 0.93627 0.23454 0.33000
C 	C 	0.01395 0.85821 0.28565 0.35200
O 	O 	0.09952 0.89558 0.27786 -0.42100
O 	O 	0.00675 0.84808 0.23914 -0.26900
O 	O 	0.04158 0.87075 0.28862 -0.51700
C 	C 	0.11406 0.91013 0.24092 0.32900
O 	O 	0.10475 0.90462 0.19335 -0.31800
Cd	Cd	0.16487 0.87132 0.00047 1.24600
Cd	Cd	0.18725 0.91037 0.88980 1.19100
O 	O 	0.17658 0.81810 0.00302 -0.29100
O 	O 	0.15217 0.84197 0.06840 -0.33100
C 	C 	0.15923 0.81635 0.04583 0.27000
O 	O 	0.15486 0.91885 0.02189 -0.36800
O 	O 	0.14734 0.93306 0.93760 -0.39900
C 	C 	0.14456 0.93821 0.98879 0.37000
C 	C 	0.22950 0.88730 0.98578 0.36000
O 	O 	0.15501 0.86865 0.89834 -0.41100
O 	O 	0.22407 0.88008 0.03434 -0.26800
O 	O 	0.20631 0.88291 0.95454 -0.53200
C 	C 	0.12466 0.86832 0.91090 0.33400
O 	O 	0.11728 0.86818 0.96070 -0.33500
C 	C 	0.01400 0.67048 0.89353 0.12700
N 	N 	0.99935 0.64616 0.91298 -0.14000
C 	C 	0.97875 0.63033 0.88329 0.13300
N 	N 	0.97187 0.63954 0.83503 -0.14200
C 	C 	0.98728 0.66314 0.81459 0.13400
N 	N 	0.00871 0.67836 0.84371 -0.13600
C 	C 	0.97918 0.66758 0.33815 0.12500
N 	N 	0.98135 0.67809 0.38846 -0.13100
C 	C 	0.97249 0.66078 0.42879 0.13400
N 	N 	0.96045 0.63334 0.41881 -0.14300
C 	C 	0.95743 0.62307 0.36865 0.13200
N 	N 	0.96634 0.64040 0.32834 -0.14200
Cd	Cd	0.88662 0.87686 0.73485 1.24600
Cd	Cd	0.93671 0.88790 0.84254 1.21800
O 	O 	0.83138 0.86167 0.75367 -0.29800
O 	O 	0.84720 0.87527 0.67569 -0.32200
C 	C 	0.82341 0.86828 0.70689 0.27300
O 	O 	0.93018 0.89824 0.69969 -0.34500
O 	O 	0.96185 0.88267 0.76393 -0.38200
C 	C 	0.95711 0.89982 0.72463 0.33400
C 	C 	0.87929 0.92978 0.79933 0.33600
O 	O 	0.90961 0.84692 0.81094 -0.42200
O 	O 	0.86640 0.93196 0.75396 -0.27200
O 	O 	0.89026 0.90364 0.80863 -0.49900
C 	C 	0.92106 0.82764 0.77610 0.32600
O 	O 	0.91122 0.83068 0.72859 -0.31300
Cd	Cd	0.79231 0.89128 0.54017 1.24600
Cd	Cd	0.85070 0.90238 0.44046 1.20400
O 	O 	0.74700 0.85831 0.52170 -0.29500
O 	O 	0.75256 0.88005 0.59854 -0.34900
C 	C 	0.73407 0.86500 0.56757 0.27200
O 	O 	0.83037 0.91724 0.58035 -0.36500
O 	O 	0.85050 0.93774 0.50511 -0.38400
C 	C 	0.85179 0.93372 0.55587 0.33900
C 	C 	0.83884 0.84685 0.51755 0.34700
O 	O 	0.79634 0.91055 0.44381 -0.42300
O 	O 	0.82381 0.84154 0.56191 -0.26700
O 	O 	0.82719 0.86786 0.49110 -0.52700
C 	C 	0.78184 0.93450 0.46162 0.33400
O 	O 	0.77178 0.93457 0.51041 -0.33800
C 	C 	0.63643 0.97832 0.83868 0.12200
N 	N 	0.63378 0.97622 0.89163 -0.13600
C 	C 	0.61184 0.99260 0.91995 0.12600
N 	N 	0.59368 0.01228 0.89565 -0.14000
C 	C 	0.59722 0.01558 0.84327 0.13300
N 	N 	0.61830 0.99834 0.81455 -0.14000
C 	C 	0.59396 0.98214 0.39795 0.12700
N 	N 	0.60079 0.97927 0.34565 -0.13300
C 	C 	0.58929 0.99925 0.31268 0.13600
N 	N 	0.57083 0.02194 0.33201 -0.14100
C 	C 	0.56427 0.02507 0.38430 0.13600
N 	N 	0.57559 0.00498 0.41721 -0.13800
Cd	Cd	0.80281 0.13969 0.22651 1.24400
Cd	Cd	0.79474 0.10480 0.34741 1.21800
O 	O 	0.77303 0.18540 0.21240 -0.30600
O 	O 	0.81039 0.16934 0.15700 -0.33600
C 	C 	0.79143 0.19101 0.17203 0.27200
O 	O 	0.84171 0.10599 0.22329 -0.35700
O 	O 	0.81793 0.07582 0.28333 -0.37800
C 	C 	0.84288 0.08314 0.25401 0.33400
C 	C 	0.83324 0.16563 0.31537 0.33700
O 	O 	0.75832 0.11496 0.28458 -0.42800
O 	O 	0.84496 0.17552 0.27142 -0.27500
O 	O 	0.80851 0.14857 0.31108 -0.50900
C 	C 	0.75153 0.09766 0.24463 0.33000
O 	O 	0.76603 0.10394 0.20031 -0.32700
Cd	Cd	0.96266 0.17043 0.01061 1.24300
Cd	Cd	0.99107 0.12901 0.89591 1.21000
O 	O 	0.92473 0.21025 0.99592 -0.29300
O 	O 	0.93724 0.19880 0.07568 -0.32600
C 	C 	0.92051 0.21515 0.04600 0.26100
O 	O 	0.98887 0.13122 0.04147 -0.33700
O 	O 	0.02023 0.12521 0.96679 -0.37600
C 	C 	0.00880 0.11498 0.01106 0.32200
C 	C 	0.92272 0.12637 0.96478 0.36000
O 	O 	0.99467 0.17849 0.92187 -0.42100
O 	O 	0.91087 0.13629 0.00994 -0.27700
O 	O 	0.94693 0.14115 0.94659 -0.50900
C 	C 	0.01721 0.19051 0.94944 0.33100
O 	O 	0.00985 0.19575 0.99889 -0.32400
C 	C 	0.85188 0.38911 0.91611 0.11500
N 	N 	0.86463 0.41569 0.93099 -0.14100
C 	C 	0.87365 0.43539 0.89437 0.13000
N 	N 	0.86928 0.42881 0.84290 -0.14300
C 	C 	0.85566 0.40274 0.82787 0.13100
N 	N 	0.84610 0.38332 0.86465 -0.14000
C 	C 	0.84669 0.37280 0.34976 0.12100
N 	N 	0.85883 0.39914 0.33429 -0.14200
C 	C 	0.86618 0.42053 0.37053 0.13100
N 	N 	0.86029 0.41604 0.42214 -0.14300
C 	C 	0.84892 0.38959 0.43802 0.13000
N 	N 	0.84267 0.36774 0.40180 -0.13700
Cd	Cd	0.22107 0.04216 0.69635 1.24700
Cd	Cd	0.20635 0.00231 0.81074 1.19100
O 	O 	0.26476 0.07801 0.69791 -0.29200
O 	O 	0.23777 0.06983 0.62679 -0.33000
C 	C 	0.26055 0.08437 0.64957 0.27300
O 	O 	0.18600 0.00713 0.67317 -0.35600
O 	O 	0.16520 0.00204 0.75675 -0.39100
C 	C 	0.16539 0.99488 0.70627 0.33800
C 	C 	0.26231 0.99514 0.71898 0.34400
O 	O 	0.20512 0.05288 0.79649 -0.41600
O 	O 	0.26708 0.00255 0.67042 -0.26400
O 	O 	0.24350 0.01221 0.74740 -0.53200
C 	C 	0.18108 0.06798 0.78064 0.33700
O 	O 	0.18019 0.07133 0.73028 -0.33300
Cd	Cd	0.07570 0.11670 0.52579 1.24800
Cd	Cd	0.02638 0.08669 0.42651 1.20600
O 	O 	0.11634 0.15203 0.49639 -0.29300
O 	O 	0.11053 0.14129 0.57922 -0.32000
C 	C 	0.12626 0.15591 0.54363 0.27200
O 	O 	0.03641 0.09346 0.57050 -0.33700
O 	O 	0.02564 0.06222 0.50097 -0.38000
C 	C 	0.01710 0.07457 0.54661 0.33100
C 	C 	0.02538 0.15161 0.49017 0.34700
O 	O 	0.08097 0.08489 0.43693 -0.42000
O 	O 	0.03780 0.16426 0.53151 -0.26400
O 	O 	0.04114 0.12923 0.46952 -0.51400
C 	C 	0.09643 0.06531 0.46243 0.33400
O 	O 	0.10270 0.07272 0.51074 -0.32000
C 	C 	0.38876 0.19114 0.82671 0.12200
N 	N 	0.41616 0.17566 0.81777 -0.14000
C 	C 	0.43557 0.17052 0.85777 0.13100
N 	N 	0.42713 0.18035 0.90716 -0.14100
C 	C 	0.39985 0.19601 0.91643 0.12900
N 	N 	0.38070 0.20139 0.87609 -0.13900
C 	C 	0.33396 0.18043 0.38299 0.12000
N 	N 	0.33388 0.18918 0.33252 -0.14000
C 	C 	0.35994 0.18461 0.30025 0.12900
N 	N 	0.38577 0.17081 0.31825 -0.14200
C 	C 	0.38551 0.16114 0.36789 0.13200
N 	N 	0.35980 0.16626 0.40033 -0.14100
C 	C 	0.38901 0.20361 0.97105 -0.03700
C 	C 	0.41063 0.21444 0.00846 0.08600
C 	C 	0.40233 0.21339 0.06208 -0.08000
C 	C 	0.37201 0.20387 0.07869 -0.00500
C 	C 	0.34886 0.19728 0.04107 0.06900
C 	C 	0.35781 0.19651 0.98752 -0.04400
N 	N 	0.43885 0.22666 0.99312 -0.18700
H 	H 	0.41957 0.21981 0.09094 0.05600
C 	C 	0.36568 0.19856 0.13514 -0.00400
N 	N 	0.31829 0.19123 0.05609 -0.19300
H 	H 	0.34075 0.18937 0.95882 0.06000
C 	C 	0.36101 0.22290 0.17027 -0.08400
C 	C 	0.35785 0.21891 0.22455 0.10400
C 	C 	0.35835 0.18985 0.24370 -0.04700
C 	C 	0.36120 0.16547 0.20825 -0.04900
C 	C 	0.36582 0.16950 0.15432 0.07600
H 	H 	0.36069 0.24509 0.15544 0.05800
N 	N 	0.35503 0.24304 0.25787 -0.19900
H 	H 	0.36131 0.14324 0.22298 0.05500
N 	N 	0.37109 0.14548 0.12146 -0.19300
H 	H 	0.35467 0.26435 0.24326 0.09100
H 	H 	0.35336 0.24100 0.29839 0.09800
H 	H 	0.37050 0.12412 0.13593 0.09500
H 	H 	0.37653 0.14766 0.08165 0.09600
H 	H 	0.30161 0.18539 0.02818 0.10000
H 	H 	0.31056 0.19316 0.09533 0.10100
H 	H 	0.44380 0.23139 0.95398 0.09700
H 	H 	0.45537 0.23323 0.02085 0.08300
C 	C 	0.24756 0.18580 0.42868 -0.03900
C 	C 	0.24995 0.18334 0.48300 0.01500
C 	C 	0.28000 0.18236 0.50480 -0.04300
C 	C 	0.30746 0.18290 0.47240 -0.01600
C 	C 	0.30512 0.18396 0.41765 -0.01700
C 	C 	0.27496 0.18609 0.39615 -0.01400
C 	C 	0.22097 0.17929 0.51617 0.02700
H 	H 	0.28208 0.18068 0.54670 0.04800
H 	H 	0.33052 0.18192 0.48980 0.04400
H 	H 	0.27265 0.18698 0.35417 0.05400
H 	H 	0.22442 0.18653 0.41150 0.06000
C 	C 	0.19796 0.20173 0.52069 -0.05200
C 	C 	0.16702 0.19519 0.53852 0.01500
C 	C 	0.15889 0.16613 0.55148 -0.05500
C 	C 	0.18307 0.14497 0.55442 0.01700
C 	C 	0.21392 0.15136 0.53596 -0.05000
H 	H 	0.20341 0.22364 0.50689 0.05500
H 	H 	0.14873 0.21197 0.53742 0.05000
H 	H 	0.17726 0.12263 0.56563 0.05900
H 	H 	0.23167 0.13399 0.53352 0.06400
C 	C 	0.35590 0.18975 0.69161 -0.04400
C 	C 	0.32525 0.17855 0.70214 0.01600
C 	C 	0.31365 0.17797 0.75442 -0.04000
C 	C 	0.33368 0.18497 0.79552 -0.01000
C 	C 	0.36557 0.19242 0.78490 -0.01700
C 	C 	0.37611 0.19635 0.73283 -0.01500
C 	C 	0.30831 0.16168 0.66071 0.02400
H 	H 	0.28990 0.16987 0.76332 0.06800
H 	H 	0.32504 0.18246 0.83555 0.05400
H 	H 	0.40040 0.20305 0.72418 0.04200
H 	H 	0.36477 0.19142 0.65153 0.04400
C 	C 	0.27503 0.16348 0.65916 -0.05400
C 	C 	0.25757 0.13848 0.64348 0.01200
C 	C 	0.27349 0.11195 0.62931 -0.06300
C 	C 	0.30619 0.11314 0.61715 0.01200
C 	C 	0.32378 0.13786 0.63365 -0.05300
H 	H 	0.26269 0.18277 0.67600 0.05900
H 	H 	0.23197 0.13849 0.64961 0.05000
H 	H 	0.31856 0.09339 0.60237 0.04600
H 	H 	0.34949 0.13692 0.63109 0.05100
C 	C 	0.85067 0.39598 0.77163 -0.04900
C 	C 	0.86097 0.36885 0.74685 0.10600
C 	C 	0.85591 0.36368 0.69321 -0.08500
C 	C 	0.84454 0.38631 0.66273 -0.00200
C 	C 	0.83425 0.41340 0.68738 0.07200
C 	C 	0.83669 0.41761 0.74179 -0.05000
N 	N 	0.87732 0.34855 0.77330 -0.20000
H 	H 	0.86343 0.34286 0.67427 0.06600
C 	C 	0.84686 0.38268 0.60474 -0.00300
N 	N 	0.82245 0.43557 0.65907 -0.19400
H 	H 	0.82843 0.43817 0.76081 0.05200
C 	C 	0.81946 0.37553 0.57720 -0.08300
C 	C 	0.81956 0.37677 0.52225 0.10500
C 	C 	0.84832 0.38328 0.49437 -0.04500
C 	C 	0.87635 0.38750 0.52182 -0.04800
C 	C 	0.87581 0.38813 0.57676 0.07600
H 	H 	0.79752 0.37070 0.59874 0.06000
N 	N 	0.79189 0.37261 0.49697 -0.19900
H 	H 	0.89847 0.39183 0.50035 0.05400
N 	N 	0.90295 0.39463 0.60229 -0.19300
H 	H 	0.77095 0.36748 0.51796 0.09300
H 	H 	0.79061 0.37494 0.45666 0.09800
H 	H 	0.92417 0.39850 0.58118 0.09200
H 	H 	0.90330 0.39620 0.64309 0.09500
H 	H 	0.81504 0.45549 0.67766 0.08800
H 	H 	0.82052 0.43339 0.61852 0.09200
H 	H 	0.88690 0.35382 0.80956 0.10100
H 	H 	0.88277 0.32783 0.75575 0.10000
C 	C 	0.05085 0.18799 0.93064 -0.13000
C 	C 	0.07427 0.17804 0.96421 0.13400
C 	C 	0.09966 0.16072 0.94320 0.06200
C 	C 	0.10309 0.15575 0.88860 0.01800
C 	C 	0.08362 0.17118 0.85511 0.05400
C 	C 	0.05796 0.18804 0.87643 0.10400
C 	C 	0.12478 0.13234 0.86682 0.01300
C 	C 	0.15608 0.13951 0.85050 0.07000
C 	C 	0.17548 0.11781 0.82482 0.13100
C 	C 	0.16385 0.08876 0.81678 -0.12100
C 	C 	0.13369 0.08102 0.83744 0.12300
C 	C 	0.11378 0.10295 0.86099 0.07900
Br	Br	0.09100 0.16771 0.78027 -0.16000
Br	Br	0.07407 0.19104 0.03693 -0.15700
Br	Br	0.21762 0.12800 0.79910 -0.19100
Br	Br	0.07088 0.09311 0.88285 -0.20500
Br	Br	0.03293 0.21166 0.83205 -0.18700
Br	Br	0.12882 0.14272 0.98904 -0.12100
Br	Br	0.17196 0.17921 0.86231 -0.15400
Br	Br	0.11965 0.04036 0.83353 -0.17400
C 	C 	0.90071 0.29415 0.06847 -0.05700
C 	C 	0.86914 0.29340 0.05231 0.02600
C 	C 	0.85234 0.26652 0.05370 -0.05700
C 	C 	0.86867 0.24002 0.05987 0.00900
C 	C 	0.90160 0.24042 0.06662 -0.05900
C 	C 	0.91682 0.26766 0.07607 0.01000
C 	C 	0.85706 0.31790 0.02156 -0.00500
H 	H 	0.82738 0.26584 0.04468 0.05100
H 	H 	0.85632 0.21910 0.05464 0.04800
H 	H 	0.94203 0.26826 0.08328 0.04700
H 	H 	0.91368 0.31490 0.06995 0.05100
C 	C 	0.85860 0.34731 0.04109 -0.03500
C 	C 	0.85458 0.37078 0.00758 -0.03700
C 	C 	0.84900 0.36501 0.95412 -0.00200
C 	C 	0.84429 0.33558 0.93613 -0.02800
C 	C 	0.84850 0.31222 0.96951 -0.02400
H 	H 	0.86427 0.35198 0.08159 0.03900
H 	H 	0.85693 0.39334 0.02280 0.04600
H 	H 	0.83894 0.33063 0.89561 0.05200
H 	H 	0.84688 0.28963 0.95403 0.05200
C 	C 	0.84521 0.17621 0.36653 -0.13400
C 	C 	0.86521 0.20122 0.36860 0.13800
C 	C 	0.89170 0.20109 0.40059 0.06300
C 	C 	0.89734 0.17610 0.43037 0.02200
C 	C 	0.87279 0.15513 0.43757 0.06600
C 	C 	0.84522 0.15707 0.40853 0.11100
C 	C 	0.93000 0.16956 0.44607 0.01900
C 	C 	0.95304 0.15982 0.40800 0.06700
C 	C 	0.98486 0.15692 0.42174 0.10400
C 	C 	0.99263 0.15817 0.47506 -0.14200
C 	C 	0.96860 0.16489 0.51379 0.13100
C 	C 	0.93847 0.17379 0.49857 0.07100
Br	Br	0.87683 0.12394 0.48624 -0.11400
Br	Br	0.85501 0.23582 0.33065 -0.18900
Br	Br	0.01782 0.15387 0.36744 -0.24000
Br	Br	0.90942 0.19285 0.54906 -0.13800
Br	Br	0.80547 0.14373 0.43816 -0.31700
Br	Br	0.92104 0.23387 0.40151 -0.15600
Br	Br	0.94079 0.14930 0.33769 -0.15600
Br	Br	0.97476 0.15689 0.58639 -0.15100
C 	C 	0.84629 0.32576 0.22391 -0.04100
C 	C 	0.82232 0.30515 0.23569 0.01600
C 	C 	0.80582 0.30731 0.28439 -0.03600
C 	C 	0.81356 0.32948 0.32134 -0.01300
C 	C 	0.83806 0.34971 0.31018 -0.01500
C 	C 	0.85418 0.34790 0.26098 -0.01600
C 	C 	0.81685 0.27941 0.19980 0.02700
H 	H 	0.78752 0.29131 0.29411 0.05700
H 	H 	0.80057 0.33086 0.35869 0.04900
H 	H 	0.87317 0.36329 0.25177 0.04600
H 	H 	0.85922 0.32425 0.18649 0.04500
C 	C 	0.78602 0.27296 0.18343 -0.05700
C 	C 	0.77838 0.24423 0.16564 0.01300
C 	C 	0.80148 0.22183 0.16447 -0.06600
C 	C 	0.83331 0.22962 0.17269 0.01500
C 	C 	0.84095 0.25831 0.19044 -0.04700
H 	H 	0.76745 0.28949 0.18846 0.05000
H 	H 	0.75391 0.23876 0.15766 0.04100
H 	H 	0.85167 0.21281 0.17014 0.06000
H 	H 	0.86512 0.26338 0.20096 0.06700
C 	C 	0.54272 0.04880 0.40458 -0.04900
C 	C 	0.54671 0.07821 0.38822 0.10900
C 	C 	0.52100 0.09793 0.39332 -0.08500
C 	C 	0.49217 0.08919 0.41725 -0.00400
C 	C 	0.49011 0.06146 0.44120 0.07400
C 	C 	0.51527 0.04124 0.43385 -0.05000
N 	N 	0.57518 0.08765 0.36825 -0.19900
H 	H 	0.52308 0.11977 0.37720 0.06000
C 	C 	0.46319 0.10664 0.40897 -0.00300
N 	N 	0.46396 0.05409 0.47069 -0.19400
H 	H 	0.51285 0.01914 0.44879 0.05500
C 	C 	0.44193 0.09624 0.37149 -0.08500
C 	C 	0.41536 0.11305 0.35962 0.10700
C 	C 	0.41094 0.14150 0.38385 -0.05000
C 	C 	0.43164 0.15158 0.42246 -0.05000
C 	C 	0.45756 0.13420 0.43587 0.07100
H 	H 	0.44605 0.07490 0.35159 0.06100
N 	N 	0.39393 0.10155 0.32573 -0.19900
H 	H 	0.42771 0.17308 0.44187 0.05000
N 	N 	0.47665 0.14390 0.47481 -0.19400
H 	H 	0.39809 0.08104 0.30645 0.09600
H 	H 	0.37241 0.11214 0.31985 0.10200
H 	H 	0.47274 0.16458 0.49361 0.08800
H 	H 	0.49494 0.13076 0.48778 0.09200
H 	H 	0.46207 0.03316 0.48670 0.09500
H 	H 	0.44587 0.06943 0.47962 0.09500
H 	H 	0.59550 0.07446 0.36905 0.11300
H 	H 	0.57760 0.10900 0.35412 0.10000
C 	C 	0.46335 0.15077 0.84889 -0.04700
C 	C 	0.48550 0.15478 0.80666 0.10300
C 	C 	0.50853 0.13289 0.79445 -0.08500
C 	C 	0.51131 0.10830 0.82593 -0.00400
C 	C 	0.49077 0.10553 0.87064 0.07800
C 	C 	0.46649 0.12640 0.88084 -0.05100
N 	N 	0.48561 0.18002 0.77916 -0.19900
H 	H 	0.52489 0.13542 0.76118 0.05800
C 	C 	0.53665 0.08620 0.81301 -0.00400
N 	N 	0.49437 0.08309 0.90409 -0.19400
H 	H 	0.44983 0.12354 0.91361 0.05900
C 	C 	0.56773 0.09249 0.82791 -0.08500
C 	C 	0.59010 0.06962 0.83033 0.10700
C 	C 	0.58077 0.04003 0.81916 -0.04900
C 	C 	0.55129 0.03445 0.79688 -0.05100
C 	C 	0.52916 0.05747 0.79305 0.07600
H 	H 	0.57402 0.11490 0.84032 0.06000
N 	N 	0.62019 0.07604 0.84477 -0.20000
H 	H 	0.54472 0.01190 0.78585 0.05500
N 	N 	0.50060 0.05175 0.77156 -0.19400
H 	H 	0.62665 0.09779 0.85505 0.09700
H 	H 	0.63771 0.05967 0.84412 0.10500
H 	H 	0.49475 0.03025 0.75871 0.09800
H 	H 	0.48443 0.06873 0.76581 0.09800
H 	H 	0.47850 0.08076 0.93605 0.09600
H 	H 	0.51340 0.06834 0.89984 0.09700
H 	H 	0.47198 0.19837 0.79174 0.09500
H 	H 	0.50094 0.18215 0.74644 0.09000
C 	C 	0.61013 0.99155 0.97768 -0.01700
C 	C 	0.60748 0.96433 0.00350 0.08200
C 	C 	0.60732 0.96448 0.05847 -0.07100
C 	C 	0.60632 0.99128 0.08798 -0.01100
C 	C 	0.60796 0.01851 0.06222 0.08900
C 	C 	0.61074 0.01830 0.00737 -0.08000
N 	N 	0.60347 0.93826 0.97609 -0.19100
H 	H 	0.60603 0.94368 0.07840 0.06000
C 	C 	0.60218 0.99057 0.14572 0.00300
N 	N 	0.60649 0.04487 0.08976 -0.19600
H 	H 	0.61291 0.03911 0.98763 0.07000
C 	C 	0.62861 0.99574 0.17670 -0.08600
C 	C 	0.62494 0.99913 0.23140 0.11800
C 	C 	0.59455 0.99497 0.25566 -0.04800
C 	C 	0.56842 0.98830 0.22480 -0.04700
C 	C 	0.57175 0.98665 0.16996 0.07300
H 	H 	0.65188 0.99863 0.15797 0.07400
N 	N 	0.65031 0.00753 0.26000 -0.19800
H 	H 	0.54520 0.98513 0.24353 0.05500
N 	N 	0.54561 0.98181 0.14092 -0.19300
H 	H 	0.67253 0.01087 0.24159 0.11700
H 	H 	0.64817 0.01137 0.30044 0.12400
H 	H 	0.52332 0.97877 0.15928 0.09300
H 	H 	0.54697 0.98134 0.10006 0.09400
H 	H 	0.60815 0.06482 0.07033 0.09200
H 	H 	0.60314 0.04595 0.13043 0.09700
H 	H 	0.59815 0.93772 0.93650 0.10000
H 	H 	0.60347 0.91820 0.99524 0.09900
C 	C 	0.76961 0.95601 0.42566 -0.12500
C 	C 	0.78100 0.98529 0.42754 0.10700
C 	C 	0.77078 0.00553 0.39136 0.09400
C 	C 	0.74883 0.99664 0.35342 0.00200
C 	C 	0.73615 0.96774 0.35323 0.06900
C 	C 	0.74662 0.94736 0.38926 0.11800
C 	C 	0.73965 0.01760 0.31333 0.01500
C 	C 	0.71682 0.03973 0.32609 0.04900
C 	C 	0.71548 0.06486 0.29524 0.10700
C 	C 	0.73764 0.06805 0.25332 -0.13500
C 	C 	0.75370 0.04267 0.23310 0.12000
C 	C 	0.75677 0.01819 0.26493 0.05700
Br	Br	0.70456 0.95612 0.30362 -0.18100
Br	Br	0.81094 0.99765 0.47953 -0.14800
Br	Br	0.68420 0.09520 0.31072 -0.21200
Br	Br	0.78653 0.98715 0.24480 -0.14200
Br	Br	0.72899 0.90785 0.38955 -0.19200
Br	Br	0.78681 0.04545 0.39387 -0.30000
Br	Br	0.68963 0.03676 0.38796 -0.19800
Br	Br	0.76631 0.03955 0.16016 -0.14700
C 	C 	0.87388 0.95227 0.58652 -0.11600
C 	C 	0.90664 0.94682 0.58044 0.11900
C 	C 	0.92845 0.97020 0.58705 0.06600
C 	C 	0.91749 0.99844 0.60468 0.01800
C 	C 	0.88538 0.00201 0.62131 0.06900
C 	C 	0.86333 0.97914 0.61091 0.13300
C 	C 	0.93819 0.02490 0.59767 0.02300
C 	C 	0.96187 0.03199 0.63381 0.06900
C 	C 	0.98569 0.05288 0.62127 0.13700
C 	C 	0.98645 0.06561 0.57169 -0.11300
C 	C 	0.95968 0.06247 0.54025 0.13500
C 	C 	0.93611 0.04142 0.55221 0.06500
Br	Br	0.87155 0.03863 0.65575 -0.11100
Br	Br	0.92127 0.90748 0.56179 -0.17100
Br	Br	0.01587 0.06510 0.67281 -0.13100
Br	Br	0.90231 0.03367 0.50441 -0.11300
Br	Br	0.81881 0.98499 0.62801 -0.16000
Br	Br	0.97268 0.96428 0.56749 -0.13200
Br	Br	0.96267 0.01191 0.69870 -0.11800
Br	Br	0.95621 0.08604 0.47940 -0.27200
C 	C 	0.60011 0.92503 0.50141 -0.04200
C 	C 	0.63310 0.92105 0.50194 0.01500
C 	C 	0.65314 0.93744 0.46881 -0.03500
C 	C 	0.64031 0.95718 0.43451 -0.00900
C 	C 	0.60733 0.96117 0.43378 -0.01300
C 	C 	0.58724 0.94521 0.46765 -0.01500
C 	C 	0.64698 0.89944 0.53624 0.02700
H 	H 	0.67869 0.93487 0.46976 0.07000
H 	H 	0.65600 0.96960 0.40891 0.07000
H 	H 	0.56172 0.94821 0.46739 0.04600
H 	H 	0.58449 0.91251 0.52697 0.05000
C 	C 	0.66129 0.90963 0.58224 -0.05600
C 	C 	0.68724 0.89436 0.60070 0.01100
C 	C 	0.69931 0.86940 0.57219 -0.06800
C 	C 	0.68008 0.85557 0.53462 0.01700
C 	C 	0.65419 0.87087 0.51594 -0.05200
H 	H 	0.65469 0.93096 0.60014 0.05300
H 	H 	0.70030 0.90410 0.63266 0.04300
H 	H 	0.68759 0.83494 0.51511 0.05300
H 	H 	0.64208 0.86200 0.48209 0.06100
C 	C 	0.13806 0.97797 0.68600 -0.11400
C 	C 	0.13127 0.94973 0.70559 0.13900
C 	C 	0.10117 0.93685 0.69890 0.06400
C 	C 	0.07733 0.95267 0.67473 0.02300
C 	C 	0.08505 0.97925 0.65015 0.06900
C 	C 	0.11529 0.99214 0.65617 0.13400
C 	C 	0.04361 0.94334 0.68115 0.02100
C 	C 	0.03107 0.92154 0.64689 0.07600
C 	C 	0.00186 0.90786 0.65973 0.13300
C 	C 	0.98383 0.91780 0.70447 -0.11000
C 	C 	0.99507 0.94160 0.73590 0.13400
C 	C 	0.02513 0.95404 0.72480 0.07100
Br	Br	0.05383 0.99831 0.60965 -0.11400
Br	Br	0.16221 0.92989 0.74578 -0.27400
Br	Br	0.98851 0.87349 0.61965 -0.10400
Br	Br	0.04168 0.98481 0.77068 -0.10200
Br	Br	0.12437 0.03032 0.62746 -0.15500
Br	Br	0.09226 0.89782 0.72392 -0.13600
Br	Br	0.05437 0.90993 0.58316 -0.12600
Br	Br	0.96997 0.95589 0.79617 -0.21100
C 	C 	0.91435 0.09663 0.94332 -0.14700
C 	C 	0.91301 0.09112 0.88868 0.11300
C 	C 	0.90616 0.06234 0.86906 0.06700
C 	C 	0.89562 0.04047 0.90372 0.02200
C 	C 	0.89321 0.04734 0.95775 0.07200
C 	C 	0.90655 0.07367 0.97764 0.14500
C 	C 	0.88776 0.01018 0.88370 0.02400
C 	C 	0.85937 0.00496 0.85704 0.06800
C 	C 	0.85332 0.97655 0.83499 0.13800
C 	C 	0.87550 0.95360 0.84064 -0.12700
C 	C 	0.89821 0.95720 0.87917 0.11900
C 	C 	0.90716 0.98593 0.89514 0.07000
Br	Br	0.87029 0.02146 0.00399 -0.11700
Br	Br	0.91820 0.12306 0.84099 -0.24400
Br	Br	0.81284 0.96793 0.80477 -0.16600
Br	Br	0.94553 0.99169 0.93305 -0.10300
Br	Br	0.92031 0.07548 0.04885 -0.14400
Br	Br	0.91165 0.05285 0.79525 -0.12100
Br	Br	0.82859 0.03624 0.85239 -0.13300
Br	Br	0.90627 0.92518 0.92414 -0.30100
C 	C 	0.69143 0.94845 0.72819 -0.04000
C 	C 	0.70645 0.92513 0.75256 0.01600
C 	C 	0.69694 0.91820 0.80385 -0.03700
C 	C 	0.67334 0.93481 0.83103 -0.01400
C 	C 	0.65934 0.95910 0.80775 -0.01400
C 	C 	0.66814 0.96547 0.75570 -0.01500
C 	C 	0.73395 0.90959 0.72630 0.02800
H 	H 	0.70841 0.90037 0.82321 0.05600
H 	H 	0.66634 0.92904 0.87055 0.05200
H 	H 	0.65745 0.98389 0.73684 0.05100
H 	H 	0.69826 0.95379 0.68837 0.05100
C 	C 	0.73579 0.87851 0.72604 -0.05000
C 	C 	0.76468 0.86425 0.71350 0.02200
C 	C 	0.79177 0.88087 0.70000 -0.06100
C 	C 	0.78887 0.91155 0.69428 0.01200
C 	C 	0.76016 0.92587 0.70764 -0.04100
H 	H 	0.71533 0.86556 0.73826 0.05300
H 	H 	0.76647 0.84050 0.71730 0.04700
H 	H 	0.80963 0.92465 0.68427 0.07400
H 	H 	0.75898 0.94981 0.70683 0.07600
C 	C 	0.94371 0.59346 0.35818 -0.04900
C 	C 	0.96020 0.57169 0.32647 0.10300
C 	C 	0.94608 0.54386 0.31747 -0.08600
C 	C 	0.91746 0.53642 0.34349 -0.00500
C 	C 	0.90114 0.55806 0.37569 0.07400
C 	C 	0.91410 0.58659 0.38154 -0.05100
N 	N 	0.99012 0.57676 0.30685 -0.19800
H 	H 	0.95849 0.52722 0.29290 0.05600
C 	C 	0.90722 0.50501 0.34242 -0.00400
N 	N 	0.87338 0.55149 0.40168 -0.19400
H 	H 	0.90141 0.60334 0.40547 0.05400
C 	C 	0.92306 0.48504 0.37308 -0.08600
C 	C 	0.91192 0.45597 0.37781 0.10500
C 	C 	0.88315 0.44746 0.35446 -0.05100
C 	C 	0.86874 0.46659 0.32038 -0.05200
C 	C 	0.88099 0.49519 0.31317 0.07000
H 	H 	0.94405 0.49221 0.39350 0.05800
N 	N 	0.92920 0.43617 0.40381 -0.19900
H 	H 	0.84739 0.45960 0.30081 0.05100
N 	N 	0.86721 0.51319 0.27897 -0.19400
H 	H 	0.94956 0.44298 0.42322 0.09000
H 	H 	0.92363 0.41361 0.40256 0.09800
H 	H 	0.84728 0.50607 0.25872 0.08700
H 	H 	0.87661 0.53405 0.27113 0.09100
H 	H 	0.86150 0.56770 0.42510 0.09000
H 	H 	0.86341 0.53034 0.39942 0.09300
H 	H 	0.00332 0.59512 0.31931 0.09500
H 	H 	0.00130 0.56120 0.28117 0.08800
C 	C 	0.96783 0.60094 0.89959 -0.04900
C 	C 	0.97493 0.57528 0.86793 0.10500
C 	C 	0.95814 0.54901 0.87683 -0.08500
C 	C 	0.93600 0.54737 0.91884 -0.00200
C 	C 	0.93180 0.57198 0.95440 0.07100
C 	C 	0.94735 0.59881 0.94378 -0.05000
N 	N 	0.99822 0.57563 0.82968 -0.19900
H 	H 	0.96229 0.52974 0.85093 0.05800
C 	C 	0.91666 0.52007 0.92383 -0.00400
N 	N 	0.91257 0.57014 0.99805 -0.18400
H 	H 	0.94280 0.61825 0.96909 0.05500
C 	C 	0.93107 0.49460 0.94189 -0.08500
C 	C 	0.91719 0.46655 0.93386 0.10400
C 	C 	0.88721 0.46434 0.91032 -0.04900
C 	C 	0.87143 0.49017 0.89699 -0.05100
C 	C 	0.88604 0.51801 0.90268 0.07400
H 	H 	0.95426 0.49636 0.95898 0.05900
N 	N 	0.93332 0.44194 0.94687 -0.20000
H 	H 	0.84819 0.48846 0.88009 0.05200
N 	N 	0.87083 0.54252 0.88686 -0.19400
H 	H 	0.95505 0.44396 0.96525 0.09200
H 	H 	0.92509 0.42065 0.93768 0.09900
H 	H 	0.84844 0.54067 0.87063 0.09000
H 	H 	0.88082 0.56361 0.89087 0.09500
H 	H 	0.90899 0.58862 0.02336 0.08200
H 	H 	0.90155 0.55026 0.00789 0.08300
H 	H 	0.01359 0.59368 0.82609 0.09600
H 	H 	0.00223 0.55706 0.80474 0.08900
C 	C 	0.98526 0.66839 0.75799 -0.04900
C 	C 	0.98096 0.69721 0.73900 0.11800
C 	C 	0.98077 0.70104 0.68462 -0.08600
C 	C 	0.98204 0.67646 0.64938 0.00200
C 	C 	0.98554 0.64764 0.66847 0.07300
C 	C 	0.98780 0.64402 0.72243 -0.04800
N 	N 	0.97567 0.72096 0.77245 -0.19900
H 	H 	0.97811 0.72307 0.66982 0.08300
C 	C 	0.97916 0.68099 0.59258 0.00100
N 	N 	0.98662 0.62335 0.63528 -0.19300
H 	H 	0.99140 0.62203 0.73688 0.05200
C 	C 	0.00686 0.68112 0.56047 -0.07900
C 	C 	0.00534 0.67574 0.50611 0.10900
C 	C 	0.97526 0.67186 0.48342 -0.04100
C 	C 	0.94749 0.67533 0.51494 -0.04700
C 	C 	0.94912 0.67980 0.56943 0.08200
H 	H 	0.02982 0.68305 0.57828 0.06700
N 	N 	0.03278 0.67323 0.47650 -0.19800
H 	H 	0.92450 0.67334 0.49726 0.06000
N 	N 	0.92181 0.68229 0.59933 -0.19300
H 	H 	0.05476 0.67629 0.49371 0.09900
H 	H 	0.03273 0.66789 0.43646 0.10000
H 	H 	0.89971 0.68048 0.58208 0.09800
H 	H 	0.92220 0.68673 0.63966 0.10100
H 	H 	0.98949 0.60222 0.64981 0.08800
H 	H 	0.98428 0.62503 0.59498 0.09200
H 	H 	0.97079 0.71838 0.81233 0.11500
H 	H 	0.97446 0.74231 0.75815 0.11700
C 	C 	0.01955 0.08551 0.02684 -0.11900
C 	C 	0.01712 0.06122 0.99081 0.14600
C 	C 	0.03739 0.03669 0.99362 0.07700
C 	C 	0.05879 0.03535 0.03453 0.01100
C 	C 	0.05859 0.05792 0.07421 0.07200
C 	C 	0.03914 0.08314 0.07017 0.13400
C 	C 	0.08338 0.01167 0.03286 0.03500
C 	C 	0.07532 0.98299 0.04892 0.06300
C 	C 	0.09589 0.95897 0.03636 0.14900
C 	C 	0.12507 0.96375 0.00886 -0.13900
C 	C 	0.13366 0.99273 0.99486 0.16800
C 	C 	0.11311 0.01665 0.00765 0.04300
Br	Br	0.08652 0.05521 0.13197 -0.10400
Br	Br	0.98803 0.06282 0.93452 -0.26500
Br	Br	0.08294 0.91932 0.05349 -0.17600
Br	Br	0.12499 0.05619 0.98835 -0.11500
Br	Br	0.04094 0.11512 0.12203 -0.12900
Br	Br	0.03788 0.00610 0.93874 -0.09600
Br	Br	0.03516 0.97641 0.08537 -0.11900
Br	Br	0.17268 0.99947 0.95523 -0.25600
C 	C 	0.95176 0.81294 0.78523 -0.13200
C 	C 	0.95981 0.80771 0.83707 0.09600
C 	C 	0.99128 0.81240 0.85241 0.05100
C 	C 	0.01455 0.82117 0.81507 0.01500
C 	C 	0.00761 0.81964 0.76145 0.05900
C 	C 	0.97636 0.81340 0.74654 0.12200
C 	C 	0.04517 0.83389 0.83237 0.00800
C 	C 	0.04753 0.86444 0.84528 0.09200
C 	C 	0.07647 0.87644 0.86139 0.12100
C 	C 	0.10143 0.85760 0.87322 -0.11600
C 	C 	0.09933 0.82698 0.86047 0.12500
C 	C 	0.07152 0.81530 0.83850 0.07400
Br	Br	0.04038 0.82698 0.70907 -0.12600
Br	Br	0.92772 0.79448 0.88641 -0.19800
Br	Br	0.08133 0.91879 0.87086 -0.15200
Br	Br	0.06868 0.77358 0.82013 -0.17300
Br	Br	0.96838 0.79994 0.67598 -0.14600
Br	Br	0.00227 0.80801 0.92430 -0.18100
Br	Br	0.01022 0.88880 0.84981 -0.26900
Br	Br	0.13328 0.80075 0.87744 -0.17900
C 	C 	0.25821 0.90318 0.96887 -0.14500
C 	C 	0.28221 0.88755 0.94000 0.12400
C 	C 	0.29847 0.90132 0.89837 0.06600
C 	C 	0.28911 0.92982 0.88453 0.00300
C 	C 	0.27026 0.94721 0.92061 0.04200
C 	C 	0.25644 0.93395 0.96477 0.09600
C 	C 	0.29293 0.93870 0.82942 0.00200
C 	C 	0.31320 0.96242 0.81675 0.06700
C 	C 	0.30631 0.97983 0.77401 0.12200
C 	C 	0.28075 0.97188 0.74235 -0.14400
C 	C 	0.26724 0.94368 0.74644 0.09400
C 	C 	0.27167 0.92771 0.79175 0.04600
Br	Br	0.26083 0.98789 0.90693 -0.28000
Br	Br	0.29040 0.84682 0.95443 -0.15700
Br	Br	0.32996 0.01551 0.76103 -0.17800
Br	Br	0.24656 0.89277 0.80442 -0.28200
Br	Br	0.23409 0.95728 0.01855 -0.18600
Br	Br	0.33160 0.88073 0.85810 -0.13900
Br	Br	0.34864 0.97203 0.85989 -0.14900
Br	Br	0.24306 0.92725 0.68991 -0.17000
C 	C 	0.12596 0.73997 0.03026 -0.04800
C 	C 	0.09543 0.74658 0.01372 0.01000
C 	C 	0.08432 0.77579 0.01812 -0.04200
C 	C 	0.10426 0.79851 0.03562 0.01000
C 	C 	0.13574 0.79236 0.04823 -0.06100
C 	C 	0.14608 0.76281 0.04743 0.01100
C 	C 	0.07684 0.72394 0.98535 0.04800
H 	H 	0.06069 0.78107 0.00580 0.06900
H 	H 	0.09599 0.82122 0.03575 0.05800
H 	H 	0.17031 0.75774 0.05685 0.04800
H 	H 	0.13465 0.71739 0.02737 0.05100
C 	C 	0.08486 0.71654 0.93277 -0.04800
C 	C 	0.06466 0.69860 0.90308 0.00200
C 	C 	0.03629 0.68778 0.92577 -0.02400
C 	C 	0.02879 0.69438 0.97893 0.00900
C 	C 	0.04894 0.71251 0.00852 -0.07400
H 	H 	0.10624 0.72548 0.91447 0.07600
H 	H 	0.07089 0.69340 0.86229 0.05600
H 	H 	0.00696 0.68618 0.99688 0.04300
H 	H 	0.04245 0.71830 0.04900 0.05500
C 	C 	0.87005 0.06237 0.24834 -0.11000
C 	C 	0.88813 0.05654 0.29223 0.12600
C 	C 	0.91241 0.03508 0.28825 0.06900
C 	C 	0.91958 0.02023 0.23983 0.02000
C 	C 	0.90193 0.02641 0.19569 0.06900
C 	C 	0.87692 0.04715 0.20005 0.13200
C 	C 	0.94620 0.99856 0.23501 0.01600
C 	C 	0.97767 0.00859 0.22764 0.06900
C 	C 	0.00309 0.98836 0.22752 0.12200
C 	C 	0.99693 0.95758 0.22927 -0.10000
C 	C 	0.96513 0.94746 0.23065 0.12300
C 	C 	0.93998 0.96794 0.23711 0.07400
Br	Br	0.91196 0.00617 0.12943 -0.10300
Br	Br	0.88029 0.07869 0.35733 -0.19800
Br	Br	0.04609 0.00299 0.22493 -0.13400
Br	Br	0.89715 0.95415 0.25039 -0.14900
Br	Br	0.85141 0.05386 0.14048 -0.12100
Br	Br	0.93567 0.02572 0.34923 -0.15900
Br	Br	0.98587 0.05003 0.21671 -0.14200
Br	Br	0.95583 0.90579 0.22174 -0.15900
C 	C 	0.86421 0.82744 0.49476 -0.14500
C 	C 	0.89329 0.82539 0.51998 0.12700
C 	C 	0.92155 0.82078 0.48967 0.06000
C 	C 	0.92044 0.81918 0.43469 0.02000
C 	C 	0.89100 0.81458 0.41122 0.04900
C 	C 	0.86276 0.81790 0.44184 0.10700
C 	C 	0.94804 0.82945 0.40266 0.00600
C 	C 	0.95197 0.85997 0.39430 0.08800
C 	C 	0.97692 0.86975 0.36144 0.12300
C 	C 	0.99590 0.84902 0.33258 -0.14900
C 	C 	0.99344 0.81868 0.34334 0.13400
C 	C 	0.96958 0.80888 0.37868 0.06900
Br	Br	0.88947 0.80650 0.33683 -0.16700
Br	Br	0.89443 0.82951 0.59509 -0.16700
Br	Br	0.98522 0.91155 0.35649 -0.29800
Br	Br	0.96566 0.76732 0.39278 -0.16200
Br	Br	0.82214 0.81053 0.41145 -0.19500
Br	Br	0.96171 0.81761 0.52259 -0.11800
Br	Br	0.92155 0.88811 0.42400 -0.30600
Br	Br	0.02290 0.79076 0.30986 -0.19800
C 	C 	0.11450 0.04163 0.43408 -0.11700
C 	C 	0.14449 0.04770 0.41044 0.12700
C 	C 	0.15974 0.02594 0.37767 0.07300
C 	C 	0.14467 0.99852 0.36806 0.00500
C 	C 	0.11731 0.99111 0.39819 0.08600
C 	C 	0.10161 0.01295 0.42966 0.10900
C 	C 	0.15377 0.98002 0.32091 0.02000
C 	C 	0.14011 0.98597 0.27287 0.05700
C 	C 	0.13308 0.96227 0.23796 0.12300
C 	C 	0.13795 0.93308 0.25321 -0.12300
C 	C 	0.15941 0.92829 0.29310 0.12200
C 	C 	0.16788 0.95218 0.32675 0.06600
Br	Br	0.10185 0.95094 0.39746 -0.31200
Br	Br	0.16425 0.08584 0.42228 -0.17800
Br	Br	0.11990 0.96964 0.16843 -0.13200
Br	Br	0.19549 0.94633 0.38387 -0.13300
Br	Br	0.06182 0.00381 0.46497 -0.18000
Br	Br	0.20094 0.03355 0.34570 -0.14000
Br	Br	0.12939 0.02597 0.25683 -0.12900
Br	Br	0.17565 0.88915 0.30267 -0.16200
C 	C 	0.99456 0.69945 0.20469 -0.04000
C 	C 	0.02218 0.71619 0.21328 0.01700
C 	C 	0.03633 0.71571 0.26224 -0.03300
C 	C 	0.02227 0.69988 0.30280 -0.00900
C 	C 	0.99400 0.68410 0.29495 -0.01100
C 	C 	0.98048 0.68352 0.24540 -0.01300
C 	C 	0.03401 0.73721 0.17394 0.02700
H 	H 	0.05763 0.72851 0.26946 0.06400
H 	H 	0.03335 0.69997 0.34044 0.05400
H 	H 	0.95882 0.67117 0.23868 0.04900
H 	H 	0.98362 0.69935 0.16695 0.04700
C 	C 	0.06685 0.73991 0.16366 -0.05600
C 	C 	0.07956 0.76713 0.14909 0.01400
C 	C 	0.05933 0.79124 0.14222 -0.06200
C 	C 	0.02643 0.78619 0.14054 0.01600
C 	C 	0.01371 0.75939 0.15737 -0.04800
H 	H 	0.08272 0.72212 0.17283 0.05100
H 	H 	0.10507 0.77034 0.14852 0.04700
H 	H 	0.01053 0.80419 0.13263 0.06200
H 	H 	0.98819 0.75710 0.16258 0.06500
