data_crystal

_cell_length_a 42.52934
_cell_length_b 39.36719
_cell_length_c 29.10593
_cell_angle_alpha 90.96923
_cell_angle_beta  88.51843
_cell_angle_gamma 90.03277

_symmetry_space_group_name_	'P 1'
_symmetry_space_group_name_H-M	'P 1'

loop_
_symmetry_equiv_pos_as_xyz
  x,y,z

loop_
_atom_site_label
_atom_site_type_symbol
_atom_site_fract_x
_atom_site_fract_y
_atom_site_fract_z
_atom_site_charge
Cd	Cd	0.80025 0.93027 0.31810 1.24500
Cd	Cd	0.78650 0.97296 0.42420 1.16800
O 	O 	0.76717 0.88196 0.29379 -0.28000
O 	O 	0.80520 0.90170 0.24995 -0.31200
C 	C 	0.78517 0.87722 0.25733 0.36200
O 	O 	0.83296 0.97432 0.31550 -0.37400
O 	O 	0.83475 0.98247 0.39357 -0.43000
C 	C 	0.84096 0.99299 0.35152 0.28400
C 	C 	0.75291 0.98089 0.32563 0.29400
O 	O 	0.79787 0.91632 0.40708 -0.44100
O 	O 	0.75838 0.97224 0.28254 -0.26900
O 	O 	0.76459 0.96043 0.35517 -0.53400
C 	C 	0.82579 0.90307 0.40067 0.28500
O 	O 	0.83629 0.90090 0.35833 -0.33900
Cd	Cd	0.18085 0.92899 0.05723 1.24100
Cd	Cd	0.17908 0.01082 0.11445 1.15500
O 	O 	0.13437 0.90866 0.01498 -0.31700
O 	O 	0.17945 0.88121 0.01205 -0.31800
C 	C 	0.15052 0.88289 0.99874 0.38000
O 	O 	0.22983 0.93637 0.07793 -0.36600
O 	O 	0.22546 0.98414 0.12218 -0.41900
C 	C 	0.23925 0.96736 0.08763 0.28200
C 	C 	0.18515 0.99018 0.00493 0.28400
O 	O 	0.14999 0.96048 0.12366 -0.46400
O 	O 	0.19539 0.96341 0.98185 -0.27400
O 	O 	0.17295 0.98380 0.04506 -0.54400
C 	C 	0.15307 0.93400 0.14961 0.28000
O 	O 	0.16858 0.90878 0.12988 -0.34000
C 	C 	0.09185 0.72805 0.74042 0.24100
N 	N 	0.11696 0.70756 0.73107 -0.12300
C 	C 	0.11736 0.68674 0.69345 0.14900
N 	N 	0.09243 0.68620 0.66524 -0.14200
C 	C 	0.06754 0.70714 0.67388 0.14600
N 	N 	0.06715 0.72796 0.71164 -0.12300
C 	C 	0.92266 0.69576 0.32722 0.24300
N 	N 	0.92508 0.69463 0.37368 -0.13500
C 	C 	0.94919 0.67749 0.39253 0.14500
N 	N 	0.97105 0.66190 0.36462 -0.14400
C 	C 	0.96815 0.66210 0.31832 0.14600
N 	N 	0.94414 0.67932 0.29959 -0.12800
Cd	Cd	0.98076 0.03438 0.95825 1.24500
Cd	Cd	0.06025 0.02567 0.99328 1.16900
O 	O 	0.94832 0.08258 0.98766 -0.28400
O 	O 	0.93133 0.04664 0.93536 -0.31100
C 	C 	0.92542 0.07311 0.96155 0.37400
O 	O 	0.99931 0.99274 0.91284 -0.36100
O 	O 	0.04139 0.97943 0.95652 -0.40700
C 	C 	0.02796 0.98032 0.91617 0.28100
C 	C 	0.02908 0.07562 0.91831 0.29600
O 	O 	0.01236 0.02680 0.03371 -0.45000
O 	O 	0.00358 0.07692 0.89415 -0.27500
O 	O 	0.02628 0.06022 0.95710 -0.53100
C 	C 	0.99438 0.00095 0.04333 0.27200
O 	O 	0.97063 0.99581 0.01657 -0.31500
Cd	Cd	0.82664 0.19917 0.60149 1.24500
Cd	Cd	0.84777 0.20730 0.48294 1.17200
O 	O 	0.78261 0.23271 0.63501 -0.28000
O 	O 	0.80525 0.19257 0.67335 -0.30600
C 	C 	0.78223 0.21433 0.67182 0.36700
O 	O 	0.86097 0.15721 0.58738 -0.37000
O 	O 	0.88451 0.18046 0.52326 -0.42800
C 	C 	0.88003 0.15447 0.55078 0.27900
C 	C 	0.78905 0.16673 0.53389 0.29700
O 	O 	0.84758 0.24564 0.54463 -0.44400
O 	O 	0.78247 0.15545 0.57491 -0.25800
O 	O 	0.80782 0.19272 0.53226 -0.52600
C 	C 	0.87067 0.25104 0.57249 0.29200
O 	O 	0.86786 0.23643 0.61233 -0.33500
C 	C 	0.71248 0.11031 0.09688 0.24200
N 	N 	0.70568 0.12348 0.13949 -0.12500
C 	C 	0.67800 0.11573 0.16130 0.14500
N 	N 	0.65727 0.09465 0.14046 -0.14300
C 	C 	0.66383 0.08183 0.09775 0.14700
N 	N 	0.69138 0.08970 0.07597 -0.12300
C 	C 	0.61435 0.10845 0.56900 0.23900
N 	N 	0.62696 0.11284 0.52617 -0.13500
C 	C 	0.61085 0.10293 0.48865 0.14300
N 	N 	0.58181 0.08899 0.49394 -0.14400
C 	C 	0.56885 0.08492 0.53670 0.14500
N 	N 	0.58524 0.09457 0.57426 -0.12400
Cd	Cd	0.05517 0.21763 0.27226 1.24600
Cd	Cd	0.05969 0.17386 0.37825 1.16700
O 	O 	0.10307 0.24317 0.23792 -0.29300
O 	O 	0.05804 0.24357 0.20281 -0.31500
C 	C 	0.08740 0.25299 0.20272 0.37500
O 	O 	0.00808 0.19289 0.28059 -0.36300
O 	O 	0.01066 0.18745 0.35869 -0.42500
C 	C 	0.99817 0.17878 0.31926 0.27700
C 	C 	0.07976 0.15034 0.27283 0.29600
O 	O 	0.06965 0.22978 0.35856 -0.43900
O 	O 	0.07374 0.15949 0.23100 -0.28700
O 	O 	0.07772 0.17432 0.30380 -0.53600
C 	C 	0.04916 0.25448 0.35902 0.29700
O 	O 	0.03831 0.26223 0.31898 -0.32900
Cd	Cd	0.30060 0.16926 0.77005 1.24600
Cd	Cd	0.25679 0.09419 0.74348 1.17100
O 	O 	0.28543 0.22282 0.73376 -0.29600
O 	O 	0.32214 0.22132 0.78568 -0.31700
C 	C 	0.30574 0.23943 0.75800 0.39000
O 	O 	0.31733 0.13196 0.82085 -0.36100
O 	O 	0.30162 0.08476 0.78063 -0.41100
C 	C 	0.30848 0.09979 0.81997 0.28000
C 	C 	0.23969 0.15935 0.81120 0.29300
O 	O 	0.28724 0.13056 0.69877 -0.45100
O 	O 	0.25469 0.18381 0.83230 -0.26500
O 	O 	0.25308 0.14780 0.77367 -0.53000
C 	C 	0.31731 0.12813 0.68965 0.27900
O 	O 	0.33558 0.14748 0.71419 -0.31700
C 	C 	0.30767 0.46138 0.60670 0.24000
N 	N 	0.29082 0.48655 0.62830 -0.12300
C 	C 	0.28157 0.51403 0.60459 0.14700
N 	N 	0.28881 0.51614 0.55908 -0.14300
C 	C 	0.30518 0.49084 0.53707 0.14500
N 	N 	0.31483 0.46360 0.56104 -0.12200
C 	C 	0.17310 0.47893 0.20289 0.24100
N 	N 	0.20023 0.48442 0.22549 -0.12500
C 	C 	0.20630 0.51534 0.24465 0.14800
N 	N 	0.18587 0.54133 0.23889 -0.14100
C 	C 	0.15837 0.53593 0.21714 0.14800
N 	N 	0.15200 0.50460 0.19939 -0.12800
Cd	Cd	0.23356 0.93563 0.68018 1.24600
Cd	Cd	0.18385 0.99441 0.62266 1.16300
O 	O 	0.28032 0.95654 0.72089 -0.31600
O 	O 	0.26423 0.90350 0.72547 -0.30100
C 	C 	0.28453 0.92648 0.73750 0.38400
O 	O 	0.19353 0.90399 0.65967 -0.34800
O 	O 	0.16623 0.94054 0.61654 -0.38200
C 	C 	0.16699 0.91927 0.65100 0.28300
C 	C 	0.19145 0.97953 0.73227 0.28800
O 	O 	0.23707 0.97868 0.61317 -0.45800
O 	O 	0.20083 0.95359 0.75586 -0.27700
O 	O 	0.20471 0.98202 0.69193 -0.54700
C 	C 	0.25186 0.95588 0.58764 0.29300
O 	O 	0.25595 0.92683 0.60772 -0.30100
Cd	Cd	0.07454 0.89924 0.51017 1.24400
Cd	Cd	0.01851 0.89949 0.42079 1.17200
O 	O 	0.11929 0.85943 0.50431 -0.30700
O 	O 	0.11612 0.89923 0.55777 -0.34300
C 	C 	0.13282 0.87505 0.53820 0.39200
O 	O 	0.04522 0.94534 0.52563 -0.38100
O 	O 	0.00250 0.92754 0.48508 -0.42500
C 	C 	0.01816 0.95188 0.50617 0.28100
C 	C 	0.08988 0.93165 0.42557 0.29800
O 	O 	0.03360 0.85834 0.47222 -0.44800
O 	O 	0.11003 0.93931 0.45716 -0.25900
O 	O 	0.07010 0.90779 0.43627 -0.53100
C 	C 	0.02124 0.85363 0.51313 0.28900
O 	O 	0.03727 0.86594 0.54725 -0.34200
C 	C 	0.44025 0.90844 0.98839 0.24600
N 	N 	0.46620 0.92851 0.98640 -0.12500
C 	C 	0.48507 0.93125 0.02312 0.14600
N 	N 	0.47792 0.91404 0.06198 -0.14300
C 	C 	0.45232 0.89341 0.06392 0.14600
N 	N 	0.43348 0.89066 0.02702 -0.13100
C 	C 	0.36024 0.88814 0.45501 0.23100
N 	N 	0.37033 0.87890 0.41194 -0.12100
C 	C 	0.39838 0.89017 0.39505 0.14400
N 	N 	0.41728 0.90914 0.42223 -0.14400
C 	C 	0.40769 0.91779 0.46575 0.14200
N 	N 	0.37894 0.90776 0.48181 -0.12600
C 	C 	0.44242 0.87835 0.10819 -0.04000
C 	C 	0.46496 0.86567 0.13848 0.11300
C 	C 	0.45704 0.86285 0.18538 -0.08300
C 	C 	0.42631 0.86965 0.20155 -0.00200
C 	C 	0.40260 0.87668 0.16985 0.08400
C 	C 	0.41099 0.88169 0.12350 -0.04700
N 	N 	0.49383 0.85550 0.12255 -0.19800
H 	H 	0.47489 0.85583 0.20940 0.06500
C 	C 	0.42027 0.87441 0.25158 -0.00200
N 	N 	0.37190 0.87899 0.18381 -0.19400
H 	H 	0.39327 0.88971 0.09985 0.07300
C 	C 	0.41709 0.90753 0.26952 -0.08100
C 	C 	0.40894 0.91324 0.31599 0.11300
C 	C 	0.40648 0.88525 0.34588 -0.03800
C 	C 	0.41054 0.85213 0.32821 -0.04500
C 	C 	0.41688 0.84634 0.28111 0.08300
H 	H 	0.41968 0.92894 0.24675 0.06300
N 	N 	0.40236 0.94541 0.33122 -0.19800
H 	H 	0.40828 0.83073 0.35107 0.06800
N 	N 	0.41919 0.81390 0.26448 -0.19400
H 	H 	0.40569 0.96599 0.30940 0.09800
H 	H 	0.39235 0.95021 0.36378 0.10900
H 	H 	0.41695 0.79338 0.28666 0.10600
H 	H 	0.42275 0.80865 0.22946 0.10500
H 	H 	0.35464 0.88544 0.16056 0.10800
H 	H 	0.36473 0.87314 0.21735 0.11000
H 	H 	0.49894 0.85330 0.08733 0.11400
H 	H 	0.51089 0.84771 0.14536 0.10400
C 	C 	0.21686 0.84556 0.53730 0.22400
C 	C 	0.23213 0.87395 0.51840 -0.00500
C 	C 	0.21510 0.90394 0.51183 0.20800
C 	C 	0.18298 0.90524 0.52258 0.29900
C 	C 	0.16729 0.87633 0.53903 -0.21000
C 	C 	0.18449 0.84674 0.54747 0.30800
C 	C 	0.26511 0.87149 0.50148 -0.01900
F 	F 	0.22934 0.93116 0.49224 -0.39300
F 	F 	0.16959 0.81869 0.56366 -0.39000
C 	C 	0.27212 0.87506 0.45442 0.23500
C 	C 	0.30313 0.88010 0.43913 0.27700
C 	C 	0.32774 0.88011 0.47060 -0.15900
C 	C 	0.32090 0.87372 0.51726 0.27400
C 	C 	0.28970 0.86954 0.53261 0.23100
F 	F 	0.24862 0.87514 0.42372 -0.36200
F 	F 	0.34447 0.87160 0.54768 -0.38400
F 	F 	0.30907 0.88645 0.39402 -0.39000
F 	F 	0.28333 0.86404 0.57782 -0.35400
F 	F 	0.23303 0.81636 0.54361 -0.34900
F 	F 	0.16662 0.93397 0.51405 -0.42800
C 	C 	0.36083 0.92913 0.80074 0.22300
C 	C 	0.35214 0.91319 0.84196 -0.00700
C 	C 	0.32165 0.89995 0.84776 0.21900
C 	C 	0.29977 0.90340 0.81307 0.30500
C 	C 	0.30821 0.92019 0.77232 -0.20800
C 	C 	0.33892 0.93277 0.76617 0.30500
C 	C 	0.37449 0.91181 0.87984 -0.01600
F 	F 	0.31302 0.88454 0.88752 -0.35400
F 	F 	0.34751 0.94850 0.72662 -0.39500
C 	C 	0.38254 0.94168 0.90383 0.23000
C 	C 	0.40390 0.94051 0.93943 0.28300
C 	C 	0.41747 0.90945 0.95134 -0.16300
C 	C 	0.40924 0.87951 0.92764 0.28700
C 	C 	0.38792 0.88070 0.89187 0.23900
F 	F 	0.36978 0.97188 0.89238 -0.37600
F 	F 	0.42233 0.84939 0.93877 -0.37500
F 	F 	0.41119 0.96949 0.96278 -0.39300
F 	F 	0.38054 0.85173 0.86856 -0.34100
F 	F 	0.39046 0.94136 0.79443 -0.35500
F 	F 	0.27001 0.89163 0.81979 -0.36800
C 	C 	0.30666 0.48977 0.48643 -0.03500
C 	C 	0.31740 0.51824 0.46151 0.11000
C 	C 	0.30779 0.52243 0.41613 -0.07900
C 	C 	0.28794 0.49847 0.39558 -0.00400
C 	C 	0.28170 0.46743 0.41788 0.09200
C 	C 	0.29118 0.46335 0.46329 -0.05200
N 	N 	0.33667 0.54162 0.48105 -0.19800
H 	H 	0.31405 0.54538 0.39794 0.06600
C 	C 	0.26911 0.50873 0.35603 0.00400
N 	N 	0.26582 0.44199 0.39642 -0.19500
H 	H 	0.28444 0.44064 0.48168 0.09400
C 	C 	0.28031 0.50140 0.31120 -0.08300
C 	C 	0.26101 0.50632 0.27338 0.12200
C 	C 	0.22984 0.51814 0.28090 -0.04100
C 	C 	0.21976 0.52831 0.32530 -0.04100
C 	C 	0.23904 0.52367 0.36302 0.08100
H 	H 	0.30379 0.49112 0.30583 0.07200
N 	N 	0.27268 0.50029 0.23007 -0.19800
H 	H 	0.19617 0.53827 0.33087 0.05900
N 	N 	0.22835 0.53307 0.40586 -0.19200
H 	H 	0.29531 0.49038 0.22484 0.11400
H 	H 	0.25998 0.50675 0.20126 0.11900
H 	H 	0.20587 0.54345 0.41070 0.09700
H 	H 	0.24228 0.53072 0.43462 0.09900
H 	H 	0.26029 0.41962 0.41370 0.12200
H 	H 	0.25966 0.44372 0.36205 0.11900
H 	H 	0.34591 0.53782 0.51347 0.11200
H 	H 	0.34358 0.56327 0.46312 0.10600
C 	C 	0.36069 0.02243 0.63176 -0.03500
C 	C 	0.35100 0.99255 0.60947 -0.03600
C 	C 	0.32608 0.99347 0.57876 0.03600
C 	C 	0.31477 0.02516 0.56417 -0.01800
C 	C 	0.32511 0.05532 0.58575 -0.01200
C 	C 	0.34609 0.05350 0.62249 0.01900
C 	C 	0.31022 0.08639 0.57634 0.01500
C 	C 	0.28834 0.08770 0.54105 -0.04600
C 	C 	0.27730 0.05761 0.52088 -0.04900
C 	C 	0.28847 0.02613 0.53543 0.01900
C 	C 	0.27028 0.99659 0.52977 -0.02700
C 	C 	0.27695 0.96816 0.55629 -0.01800
C 	C 	0.30807 0.96421 0.57037 -0.03500
C 	C 	0.34830 0.08114 0.65346 -0.03100
C 	C 	0.32899 0.10967 0.64841 -0.05500
C 	C 	0.31342 0.11399 0.60696 -0.03000
H 	H 	0.37808 0.02104 0.65823 0.07400
H 	H 	0.36096 0.96844 0.61910 0.08900
H 	H 	0.27795 0.11173 0.53195 0.04400
H 	H 	0.25833 0.05870 0.49679 0.04000
H 	H 	0.24788 0.99803 0.51293 0.06100
H 	H 	0.31536 0.94011 0.58413 0.09800
H 	H 	0.36181 0.07869 0.68435 0.06400
H 	H 	0.30022 0.13714 0.60177 0.05400
C 	C 	0.34489 0.31687 0.70930 0.23100
C 	C 	0.31971 0.33994 0.71122 0.00200
C 	C 	0.29197 0.33167 0.73572 0.22800
C 	C 	0.28841 0.29947 0.75472 0.31300
C 	C 	0.31262 0.27538 0.74959 -0.20200
C 	C 	0.34140 0.28469 0.72862 0.31300
C 	C 	0.32064 0.37048 0.68256 -0.01000
F 	F 	0.26783 0.35421 0.73889 -0.35000
F 	F 	0.36521 0.26181 0.72424 -0.37400
C 	C 	0.31024 0.36856 0.63722 0.23600
C 	C 	0.30710 0.39811 0.61176 0.28600
C 	C 	0.31461 0.42991 0.63135 -0.15600
C 	C 	0.32642 0.43161 0.67604 0.28800
C 	C 	0.32931 0.40200 0.70159 0.24200
F 	F 	0.30205 0.33811 0.61845 -0.35800
F 	F 	0.33479 0.46200 0.69483 -0.37400
F 	F 	0.29536 0.39601 0.56886 -0.38800
F 	F 	0.33985 0.40401 0.74518 -0.34300
F 	F 	0.37211 0.32499 0.68671 -0.34300
F 	F 	0.26083 0.29107 0.77618 -0.37600
C 	C 	0.02484 0.05541 0.34762 -0.05200
C 	C 	0.02563 0.02318 0.36716 -0.04400
C 	C 	0.05320 0.00353 0.36395 0.00000
C 	C 	0.07970 0.01576 0.33916 -0.01400
C 	C 	0.07890 0.04818 0.31951 -0.01100
C 	C 	0.05158 0.06832 0.32454 0.00300
C 	C 	0.10581 0.06095 0.29618 -0.00300
C 	C 	0.13296 0.04076 0.29148 -0.04200
C 	C 	0.13385 0.00868 0.31142 -0.05700
C 	C 	0.10755 0.99633 0.33612 0.02100
C 	C 	0.10943 0.96594 0.36035 -0.01200
C 	C 	0.08404 0.95533 0.38836 -0.10400
C 	C 	0.05533 0.97293 0.38775 -0.02300
C 	C 	0.05173 0.10151 0.30786 -0.05000
C 	C 	0.07876 0.11455 0.28580 -0.10600
C 	C 	0.10546 0.09403 0.27893 -0.02200
H 	H 	0.00360 0.07056 0.35120 0.03500
H 	H 	0.00506 0.01390 0.38580 0.03000
H 	H 	0.15357 0.05010 0.27301 0.02100
H 	H 	0.15518 0.99369 0.30826 0.04900
H 	H 	0.13133 0.95181 0.36007 0.05600
H 	H 	0.03552 0.96426 0.40860 -0.03700
H 	H 	0.03120 0.11745 0.31301 0.00300
H 	H 	0.12620 0.10418 0.26154 0.03000
C 	C 	0.14383 0.31633 0.15393 0.23000
C 	C 	0.12568 0.34599 0.15913 -0.00000
C 	C 	0.09297 0.34328 0.16589 0.22600
C 	C 	0.07928 0.31157 0.17413 0.30700
C 	C 	0.09834 0.28245 0.17612 -0.20000
C 	C 	0.13019 0.28462 0.16241 0.30900
C 	C 	0.14128 0.37890 0.16768 -0.01300
F 	F 	0.07489 0.37169 0.16856 -0.35000
F 	F 	0.14844 0.25631 0.16086 -0.38500
C 	C 	0.13976 0.40493 0.13542 0.24200
C 	C 	0.15115 0.43742 0.14625 0.28600
C 	C 	0.16415 0.44405 0.18944 -0.15900
C 	C 	0.16658 0.41761 0.22104 0.28500
C 	C 	0.15524 0.38525 0.21017 0.23200
F 	F 	0.12671 0.39891 0.09399 -0.34300
F 	F 	0.17858 0.42372 0.26317 -0.38800
F 	F 	0.14932 0.46251 0.11499 -0.38100
F 	F 	0.15662 0.36029 0.24171 -0.36000
F 	F 	0.17518 0.31851 0.14443 -0.34900
F 	F 	0.04801 0.30967 0.18441 -0.37800
C 	C 	0.42711 0.94087 0.49366 -0.04000
C 	C 	0.45955 0.93454 0.49886 0.11500
C 	C 	0.47903 0.96071 0.51486 -0.08300
C 	C 	0.46630 0.99219 0.52892 0.00200
C 	C 	0.43330 0.99703 0.52898 0.08100
C 	C 	0.41403 0.97150 0.51053 -0.04700
N 	N 	0.47196 0.90327 0.48946 -0.19800
H 	H 	0.50422 0.95666 0.51606 0.06600
C 	C 	0.48797 0.02086 0.53862 -0.00600
N 	N 	0.42006 0.02608 0.54643 -0.19600
H 	H 	0.38895 0.97586 0.50815 0.06200
C 	C 	0.48981 0.04792 0.50790 -0.08100
C 	C 	0.51389 0.07216 0.51116 0.11200
C 	C 	0.53837 0.06712 0.54237 -0.03800
C 	C 	0.53516 0.04171 0.57546 -0.04700
C 	C 	0.50952 0.01921 0.57477 0.08300
H 	H 	0.47254 0.05004 0.48133 0.06100
N 	N 	0.51284 0.10066 0.48551 -0.19800
H 	H 	0.55307 0.03876 0.60093 0.07400
N 	N 	0.50565 0.99623 0.60882 -0.19300
H 	H 	0.49568 0.10337 0.46076 0.10100
H 	H 	0.52762 0.12128 0.49206 0.11500
H 	H 	0.52231 0.99425 0.63442 0.11400
H 	H 	0.48546 0.98121 0.61133 0.11200
H 	H 	0.39606 0.03071 0.54286 0.09600
H 	H 	0.43320 0.04376 0.56498 0.10300
H 	H 	0.45757 0.88238 0.48264 0.11500
H 	H 	0.49617 0.89920 0.49136 0.10400
C 	C 	0.64199 0.05770 0.07640 -0.03800
C 	C 	0.63640 0.02538 0.09554 0.11500
C 	C 	0.61168 0.00532 0.07923 -0.08300
C 	C 	0.59328 0.01646 0.04317 -0.00600
C 	C 	0.60063 0.04747 0.02144 0.08700
C 	C 	0.62479 0.06800 0.03864 -0.04500
N 	N 	0.65487 0.01334 0.12911 -0.20000
H 	H 	0.60646 0.98114 0.09503 0.06800
C 	C 	0.56471 0.99703 0.03152 0.00700
N 	N 	0.58469 0.05758 0.98412 -0.19300
H 	H 	0.62975 0.09238 0.02322 0.08100
C 	C 	0.53566 0.00750 0.05065 -0.09100
C 	C 	0.50878 0.98720 0.04591 0.12200
C 	C 	0.51134 0.95547 0.02256 -0.04100
C 	C 	0.53998 0.94583 0.00132 -0.04700
C 	C 	0.56671 0.96654 0.00512 0.08100
H 	H 	0.53409 0.03126 0.07000 0.06600
N 	N 	0.48065 0.99835 0.06368 -0.19800
H 	H 	0.54163 0.92186 0.98247 0.07100
N 	N 	0.59409 0.95712 0.98331 -0.19200
H 	H 	0.47917 0.02140 0.08196 0.10200
H 	H 	0.45989 0.98483 0.05843 0.12200
H 	H 	0.59557 0.93413 0.96487 0.11300
H 	H 	0.61385 0.97287 0.98332 0.11400
H 	H 	0.58972 0.08093 0.96901 0.12000
H 	H 	0.56782 0.04203 0.96898 0.11200
H 	H 	0.67496 0.02637 0.13937 0.11600
H 	H 	0.64989 0.98995 0.14414 0.10800
C 	C 	0.67216 0.12660 0.20962 -0.03800
C 	C 	0.64179 0.13697 0.22517 0.11000
C 	C 	0.63409 0.13644 0.27234 -0.08200
C 	C 	0.65694 0.12840 0.30425 -0.00400
C 	C 	0.68849 0.12337 0.28911 0.08300
C 	C 	0.69570 0.12163 0.24176 -0.05200
N 	N 	0.62028 0.14817 0.19515 -0.19800
H 	H 	0.61025 0.14203 0.28421 0.06400
C 	C 	0.64700 0.12194 0.35246 -0.00300
N 	N 	0.71192 0.12066 0.31972 -0.19500
H 	H 	0.71939 0.11519 0.22999 0.08700
C 	C 	0.63923 0.08871 0.36506 -0.08300
C 	C 	0.62839 0.08168 0.40987 0.10500
C 	C 	0.62433 0.10873 0.44222 -0.04500
C 	C 	0.63285 0.14186 0.42991 -0.05000
C 	C 	0.64428 0.14876 0.38534 0.07900
H 	H 	0.64198 0.06815 0.34001 0.06100
N 	N 	0.62296 0.04891 0.42195 -0.20000
H 	H 	0.63022 0.16244 0.45496 0.06900
N 	N 	0.65274 0.18104 0.37447 -0.19500
H 	H 	0.62472 0.02933 0.39732 0.09100
H 	H 	0.61889 0.04228 0.45615 0.10200
H 	H 	0.65036 0.20072 0.39887 0.10500
H 	H 	0.66212 0.18689 0.34207 0.10100
H 	H 	0.73515 0.11691 0.30822 0.10400
H 	H 	0.70754 0.12387 0.35499 0.09800
H 	H 	0.62656 0.15280 0.16090 0.11200
H 	H 	0.59743 0.15425 0.20653 0.10200
C 	C 	0.96070 0.31623 0.43143 -0.03300
C 	C 	0.93457 0.31534 0.46161 -0.04300
C 	C 	0.93235 0.29043 0.49551 0.01900
C 	C 	0.95745 0.26753 0.50088 -0.01500
C 	C 	0.98363 0.26825 0.47027 0.00300
C 	C 	0.98482 0.29208 0.43463 0.01500
C 	C 	0.00763 0.24374 0.47347 0.00100
C 	C 	0.00612 0.21986 0.50878 -0.03500
C 	C 	0.98019 0.21925 0.53934 -0.04600
C 	C 	0.95545 0.24250 0.53495 0.02200
C 	C 	0.92793 0.23966 0.56216 -0.02200
C 	C 	0.90187 0.26046 0.55396 -0.07300
C 	C 	0.90463 0.28677 0.52216 -0.03700
C 	C 	0.00887 0.28995 0.40083 -0.00800
C 	C 	0.03092 0.26337 0.40137 -0.07500
C 	C 	0.03163 0.24195 0.43954 -0.01000
H 	H 	0.96168 0.33504 0.40466 0.05700
H 	H 	0.91568 0.33347 0.45779 0.05100
H 	H 	0.02459 0.20112 0.51179 0.02000
H 	H 	0.97893 0.20003 0.56556 0.04700
H 	H 	0.92591 0.21967 0.58727 0.06000
H 	H 	0.88468 0.30324 0.51660 0.04600
H 	H 	0.00925 0.30754 0.37252 0.06700
H 	H 	0.04958 0.22248 0.44123 -0.03600
C 	C 	0.99711 0.07292 0.48132 -0.04900
C 	C 	0.97730 0.10120 0.48687 -0.04500
C 	C 	0.94988 0.09933 0.51475 0.01600
C 	C 	0.94219 0.06874 0.53689 -0.01000
C 	C 	0.96232 0.04041 0.53177 -0.00800
C 	C 	0.98985 0.04249 0.50381 0.01500
C 	C 	0.95468 0.00985 0.55410 0.01300
C 	C 	0.92696 0.00777 0.58121 -0.04100
C 	C 	0.90686 0.03581 0.58600 -0.04200
C 	C 	0.91428 0.06636 0.56393 0.02100
C 	C 	0.89405 0.09446 0.56836 -0.02800
C 	C 	0.90179 0.12516 0.54676 -0.05800
C 	C 	0.93001 0.12763 0.52056 -0.03000
C 	C 	0.00935 0.01385 0.49786 -0.03700
C 	C 	0.00129 0.98321 0.51919 -0.06000
C 	C 	0.97445 0.98152 0.54813 -0.02000
H 	H 	0.01802 0.07470 0.45941 0.02200
H 	H 	0.98321 0.12449 0.46925 0.02100
H 	H 	0.92083 0.98434 0.59832 0.04800
H 	H 	0.88548 0.03372 0.60684 0.05300
H 	H 	0.87224 0.09238 0.58826 0.06000
H 	H 	0.93645 0.15148 0.50473 0.04000
H 	H 	0.03017 0.01504 0.47559 0.03400
H 	H 	0.96863 0.95794 0.56502 0.04300
C 	C 	0.69619 0.20712 0.68073 0.22300
C 	C 	0.69447 0.17328 0.69536 -0.00300
C 	C 	0.71919 0.16043 0.72114 0.23700
C 	C 	0.74808 0.17753 0.72143 0.31100
C 	C 	0.75191 0.20755 0.69625 -0.18700
C 	C 	0.72473 0.22465 0.68269 0.30500
C 	C 	0.67256 0.14946 0.67269 -0.01500
F 	F 	0.71638 0.12962 0.74109 -0.33600
F 	F 	0.72675 0.25676 0.66653 -0.36800
C 	C 	0.68457 0.12481 0.64135 0.22300
C 	C 	0.66462 0.10852 0.61068 0.28000
C 	C 	0.63279 0.11774 0.60948 -0.16400
C 	C 	0.62013 0.13979 0.64368 0.28700
C 	C 	0.63992 0.15514 0.67574 0.24200
F 	F 	0.71596 0.11849 0.63837 -0.36600
F 	F 	0.58910 0.14788 0.64418 -0.37300
F 	F 	0.67652 0.08485 0.58054 -0.41000
F 	F 	0.62769 0.17708 0.70794 -0.33400
F 	F 	0.67142 0.22151 0.65992 -0.34300
F 	F 	0.77287 0.16357 0.74271 -0.35700
C 	C 	0.06408 0.96169 0.71046 -0.04000
C 	C 	0.04428 0.97002 0.74820 -0.03700
C 	C 	0.05182 0.95966 0.79256 0.02500
C 	C 	0.07874 0.93951 0.79873 0.00600
C 	C 	0.09841 0.93067 0.76062 0.00200
C 	C 	0.09156 0.94268 0.71654 0.02100
C 	C 	0.12602 0.91175 0.76711 0.04900
C 	C 	0.13373 0.90165 0.81149 -0.01600
C 	C 	0.11458 0.91104 0.84937 -0.00700
C 	C 	0.08717 0.93012 0.84335 0.03600
C 	C 	0.06909 0.94150 0.88159 -0.01900
C 	C 	0.04321 0.96311 0.87577 -0.04800
C 	C 	0.03399 0.97113 0.83110 -0.02300
C 	C 	0.11320 0.93725 0.67973 -0.03200
C 	C 	0.14142 0.91963 0.68671 -0.06200
C 	C 	0.14656 0.90492 0.72967 -0.01400
H 	H 	0.05835 0.97066 0.67669 0.04100
H 	H 	0.02351 0.98529 0.74304 0.05000
H 	H 	0.15496 0.88718 0.81682 0.10000
H 	H 	0.12143 0.90406 0.88351 0.06200
H 	H 	0.07585 0.93461 0.91589 0.06800
H 	H 	0.01399 0.98768 0.82646 0.05900
H 	H 	0.10855 0.94757 0.64627 0.03500
H 	H 	0.16759 0.89002 0.73472 0.08100
C 	C 	0.16301 0.13490 0.93638 -0.03600
C 	C 	0.13352 0.12301 0.95132 -0.03900
C 	C 	0.11121 0.11250 0.91929 0.01200
C 	C 	0.11875 0.11347 0.87189 -0.00100
C 	C 	0.14862 0.12499 0.85685 -0.00100
C 	C 	0.17068 0.13613 0.88922 0.02000
C 	C 	0.15665 0.12470 0.80954 0.01300
C 	C 	0.13477 0.11292 0.77760 -0.04000
C 	C 	0.10494 0.10192 0.79248 -0.03900
C 	C 	0.09671 0.10223 0.83954 0.01700
C 	C 	0.06700 0.09065 0.85476 -0.01400
C 	C 	0.05946 0.08970 0.90203 -0.08800
C 	C 	0.08164 0.10055 0.93415 -0.03300
C 	C 	0.20033 0.14777 0.87406 -0.01200
C 	C 	0.20834 0.14762 0.82693 -0.08400
C 	C 	0.18656 0.13580 0.79479 -0.02900
H 	H 	0.17997 0.14287 0.96154 0.04800
H 	H 	0.12808 0.12195 0.98785 0.03000
H 	H 	0.14086 0.11219 0.74121 0.02300
H 	H 	0.08837 0.09285 0.76740 0.03800
H 	H 	0.05015 0.08158 0.83003 0.04800
H 	H 	0.07587 0.09959 0.97063 0.00100
H 	H 	0.21739 0.15621 0.89888 0.05300
H 	H 	0.19286 0.13543 0.75843 0.00200
C 	C 	0.80044 0.10605 0.07818 0.23400
C 	C 	0.80318 0.11162 0.03074 -0.00800
C 	C 	0.77660 0.12106 0.00641 0.23900
C 	C 	0.74711 0.12287 0.02879 0.29000
C 	C 	0.74398 0.11505 0.07566 -0.15800
C 	C 	0.77097 0.10770 0.10058 0.28600
C 	C 	0.83303 0.10384 0.00587 -0.00400
F 	F 	0.77919 0.12734 0.96075 -0.33400
F 	F 	0.76839 0.10022 0.14590 -0.39400
C 	C 	0.83773 0.07156 0.98572 0.23300
C 	C 	0.86748 0.06211 0.96839 0.30800
C 	C 	0.89289 0.08498 0.97111 -0.19500
C 	C 	0.88750 0.11817 0.98825 0.31000
C 	C 	0.85773 0.12747 0.00582 0.23100
F 	F 	0.81374 0.04881 0.98477 -0.34700
F 	F 	0.91131 0.14116 0.98880 -0.37100
F 	F 	0.87193 0.03017 0.95111 -0.37000
F 	F 	0.85310 0.15911 0.02402 -0.34600
F 	F 	0.82614 0.09743 0.10212 -0.36200
F 	F 	0.72142 0.13137 0.00473 -0.37200
C 	C 	0.99182 0.64481 0.28854 -0.04200
C 	C 	0.99560 0.60914 0.28984 0.11500
C 	C 	0.02286 0.59422 0.27027 -0.08000
C 	C 	0.04611 0.61430 0.24911 0.00000
C 	C 	0.04071 0.64945 0.24348 0.08200
C 	C 	0.01354 0.66441 0.26342 -0.04500
N 	N 	0.97318 0.58916 0.30978 -0.19900
H 	H 	0.02657 0.56709 0.27307 0.07200
C 	C 	0.07742 0.59915 0.23876 0.00300
N 	N 	0.06177 0.66903 0.21995 -0.19300
H 	H 	0.01003 0.69161 0.26119 0.06800
C 	C 	0.08371 0.58474 0.19509 -0.08400
C 	C 	0.11193 0.56708 0.18574 0.12600
C 	C 	0.13296 0.56152 0.22181 -0.04600
C 	C 	0.12746 0.57763 0.26469 -0.04300
C 	C 	0.10008 0.59678 0.27334 0.07700
H 	H 	0.06675 0.58753 0.16823 0.07700
N 	N 	0.11918 0.55664 0.14197 -0.19700
H 	H 	0.14396 0.57423 0.29202 0.05700
N 	N 	0.09553 0.61245 0.31503 -0.19300
H 	H 	0.10288 0.55929 0.11600 0.12600
H 	H 	0.14165 0.54778 0.13277 0.13500
H 	H 	0.11206 0.60987 0.34069 0.09500
H 	H 	0.07601 0.62791 0.32211 0.09700
H 	H 	0.05800 0.69513 0.21703 0.10600
H 	H 	0.08166 0.65850 0.20351 0.10600
H 	H 	0.95168 0.59920 0.32164 0.11500
H 	H 	0.97665 0.56297 0.31212 0.10700
C 	C 	0.14433 0.66384 0.68427 -0.03600
C 	C 	0.16018 0.66286 0.64085 0.11500
C 	C 	0.18291 0.63766 0.63151 -0.07800
C 	C 	0.19154 0.61502 0.66565 -0.00200
C 	C 	0.17758 0.61786 0.71025 0.09200
C 	C 	0.15366 0.64187 0.71885 -0.04700
N 	N 	0.15456 0.68668 0.60874 -0.19700
H 	H 	0.19425 0.63597 0.59775 0.06700
C 	C 	0.21472 0.58798 0.65387 0.00200
N 	N 	0.18685 0.59754 0.74475 -0.19400
H 	H 	0.14202 0.64320 0.75244 0.08900
C 	C 	0.24683 0.59612 0.65243 -0.08200
C 	C 	0.26939 0.57169 0.63874 0.12000
C 	C 	0.25948 0.53859 0.62613 -0.04000
C 	C 	0.22752 0.53004 0.62947 -0.04400
C 	C 	0.20491 0.55453 0.64259 0.08100
H 	H 	0.25427 0.62164 0.66165 0.07800
N 	N 	0.30043 0.58011 0.63804 -0.19900
H 	H 	0.22009 0.50455 0.62009 0.06900
N 	N 	0.17391 0.54590 0.64362 -0.19300
H 	H 	0.30749 0.60483 0.64644 0.11600
H 	H 	0.31786 0.56210 0.63021 0.12100
H 	H 	0.16697 0.52109 0.63549 0.10600
H 	H 	0.15638 0.56362 0.65211 0.10200
H 	H 	0.17593 0.59934 0.77728 0.12200
H 	H 	0.20531 0.58027 0.73998 0.11600
H 	H 	0.14118 0.70831 0.61668 0.11900
H 	H 	0.16518 0.68473 0.57601 0.11100
C 	C 	0.04209 0.70878 0.64066 -0.03900
C 	C 	0.04656 0.72585 0.59858 0.11500
C 	C 	0.02493 0.72089 0.56346 -0.08100
C 	C 	0.99865 0.69984 0.57006 -0.00300
C 	C 	0.99272 0.68523 0.61355 0.08100
C 	C 	0.01475 0.68957 0.64836 -0.04600
N 	N 	0.07154 0.74694 0.59170 -0.19900
H 	H 	0.02890 0.73290 0.53055 0.06300
C 	C 	0.97917 0.69095 0.53004 -0.00200
N 	N 	0.96597 0.66720 0.62215 -0.19400
H 	H 	0.01100 0.67720 0.68106 0.06800
C 	C 	0.98378 0.65951 0.50753 -0.08300
C 	C 	0.96966 0.65260 0.46532 0.11000
C 	C 	0.95365 0.67894 0.44300 -0.04300
C 	C 	0.94607 0.70888 0.46785 -0.04900
C 	C 	0.95823 0.71481 0.51174 0.07700
H 	H 	0.99830 0.64037 0.52294 0.06300
N 	N 	0.97027 0.62047 0.44745 -0.19800
H 	H 	0.93140 0.72790 0.45266 0.06700
N 	N 	0.94930 0.74301 0.53637 -0.19500
H 	H 	0.98361 0.60162 0.46263 0.09800
H 	H 	0.95576 0.61339 0.42051 0.10600
H 	H 	0.93305 0.75994 0.52326 0.09800
H 	H 	0.95725 0.74756 0.56955 0.10300
H 	H 	0.96219 0.65570 0.65392 0.10600
H 	H 	0.94829 0.66529 0.59801 0.10300
H 	H 	0.08704 0.75266 0.61798 0.12700
H 	H 	0.07515 0.75872 0.56008 0.11200
C 	C 	0.29845 0.98920 0.89497 0.00500
C 	C 	0.28886 0.97043 0.93322 -0.03400
C 	C 	0.28198 0.98689 0.97550 0.04700
C 	C 	0.28635 0.02228 0.97996 -0.00800
C 	C 	0.29663 0.04114 0.94158 0.00500
C 	C 	0.30184 0.02462 0.89866 0.02800
C 	C 	0.29959 0.07677 0.94539 0.02200
C 	C 	0.29340 0.09311 0.98798 -0.03400
C 	C 	0.28288 0.07442 0.02596 -0.04400
C 	C 	0.27858 0.03911 0.02194 0.01700
C 	C 	0.26477 0.02077 0.05836 -0.03900
C 	C 	0.25886 0.98573 0.05307 -0.06900
C 	C 	0.26920 0.96866 0.01250 -0.02500
C 	C 	0.30860 0.04386 0.85947 -0.01400
C 	C 	0.30916 0.07957 0.86246 -0.05200
C 	C 	0.30617 0.09584 0.90583 -0.02200
H 	H 	0.30270 0.97624 0.86225 0.06900
H 	H 	0.28588 0.94319 0.92960 0.10200
H 	H 	0.29583 0.12044 0.99140 0.05500
H 	H 	0.27735 0.08757 0.05817 0.04200
H 	H 	0.25767 0.03392 0.08998 0.01700
H 	H 	0.26582 0.94144 0.00888 0.07500
H 	H 	0.31199 0.03115 0.82634 0.06500
H 	H 	0.30696 0.12334 0.90837 0.06000
C 	C 	0.03213 0.89684 0.10713 -0.03100
C 	C 	0.05828 0.88439 0.12976 -0.02700
C 	C 	0.07524 0.90589 0.15912 0.01900
C 	C 	0.06276 0.93805 0.17188 -0.00500
C 	C 	0.03607 0.95033 0.14976 -0.01600
C 	C 	0.02246 0.93067 0.11441 0.02900
C 	C 	0.02655 0.98438 0.15721 0.02000
C 	C 	0.04110 0.00423 0.19118 -0.05900
C 	C 	0.06829 0.99244 0.21178 -0.04000
C 	C 	0.08062 0.96044 0.19937 0.00700
C 	C 	0.11255 0.95316 0.20593 -0.02900
C 	C 	0.12649 0.92602 0.18103 -0.05800
C 	C 	0.10686 0.89897 0.16805 -0.02100
C 	C 	0.00316 0.94655 0.08269 -0.02700
C 	C 	0.99842 0.98181 0.08566 -0.05300
C 	C 	0.00659 0.99954 0.12591 -0.03100
H 	H 	0.02082 0.88096 0.08165 0.08200
H 	H 	0.06692 0.85909 0.12133 0.07200
H 	H 	0.03297 0.02985 0.19878 0.04300
H 	H 	0.08117 0.00932 0.23412 0.03400
H 	H 	0.12746 0.97207 0.22190 0.02100
H 	H 	0.11732 0.87533 0.15556 0.06400
H 	H 	0.99523 0.93246 0.05280 0.07200
H 	H 	0.00093 0.02634 0.12961 0.04700
C 	C 	0.11524 0.01742 0.84408 -0.04800
C 	C 	0.11418 0.01996 0.89211 -0.02600
C 	C 	0.14132 0.02923 0.91575 -0.01600
C 	C 	0.16750 0.04221 0.89098 0.00200
C 	C 	0.16850 0.03967 0.84272 0.00700
C 	C 	0.14347 0.02386 0.81978 0.01400
C 	C 	0.19682 0.04676 0.81840 -0.02600
C 	C 	0.22185 0.06188 0.84169 -0.02200
C 	C 	0.22075 0.06441 0.88967 -0.05000
C 	C 	0.19497 0.05121 0.91444 0.01800
C 	C 	0.19826 0.04084 0.95990 -0.02200
C 	C 	0.17512 0.02010 0.98001 -0.11000
C 	C 	0.14495 0.01975 0.96152 -0.01600
C 	C 	0.14904 0.00947 0.77590 -0.02400
C 	C 	0.17957 0.00994 0.75654 -0.11500
C 	C 	0.20154 0.03308 0.77401 -0.01500
H 	H 	0.09470 0.00891 0.82607 0.04000
H 	H 	0.09302 0.01266 0.91090 -0.02700
H 	H 	0.24293 0.06952 0.82300 -0.04100
H 	H 	0.24057 0.07483 0.90754 0.04400
H 	H 	0.22051 0.04424 0.97661 0.02700
H 	H 	0.12600 0.00657 0.97945 -0.03600
H 	H 	0.13106 0.99421 0.75987 0.02600
H 	H 	0.22430 0.03568 0.75670 -0.05000
C 	C 	0.14714 0.82804 0.89085 0.21700
C 	C 	0.11516 0.81924 0.89063 -0.00700
C 	C 	0.09475 0.83145 0.92577 0.22200
C 	C 	0.10633 0.85193 0.96134 0.29800
C 	C 	0.13847 0.86048 0.96192 -0.21100
C 	C 	0.15877 0.84857 0.92624 0.30200
C 	C 	0.10356 0.79552 0.85506 -0.01200
F 	F 	0.06378 0.82309 0.92577 -0.35500
F 	F 	0.18958 0.85767 0.92516 -0.36700
C 	C 	0.10701 0.76038 0.86042 0.23900
C 	C 	0.10100 0.73804 0.82383 0.28700
C 	C 	0.09184 0.75071 0.78131 -0.15600
C 	C 	0.08635 0.78572 0.77696 0.28400
C 	C 	0.09194 0.80800 0.81389 0.23500
F 	F 	0.11722 0.74799 0.90066 -0.35100
F 	F 	0.07709 0.79833 0.73634 -0.38800
F 	F 	0.10486 0.70412 0.82924 -0.38000
F 	F 	0.08679 0.84176 0.80929 -0.37900
F 	F 	0.16695 0.81668 0.85663 -0.35300
F 	F 	0.08643 0.86301 0.99563 -0.39800
C 	C 	0.94312 0.08011 0.25370 -0.03400
C 	C 	0.92178 0.05328 0.25897 -0.03600
C 	C 	0.90249 0.05132 0.29878 0.02200
C 	C 	0.90454 0.07667 0.33340 -0.00900
C 	C 	0.92580 0.10386 0.32789 -0.00700
C 	C 	0.94533 0.10544 0.28804 0.02000
C 	C 	0.92792 0.12913 0.36258 0.01100
C 	C 	0.90831 0.12746 0.40207 -0.04700
C 	C 	0.88758 0.10017 0.40791 -0.04800
C 	C 	0.88559 0.07465 0.37377 0.01500
C 	C 	0.86486 0.04722 0.37945 -0.02700
C 	C 	0.86272 0.02190 0.34499 -0.06500
C 	C 	0.88146 0.02414 0.30458 -0.02100
C 	C 	0.96745 0.13176 0.28367 -0.02600
C 	C 	0.97066 0.15600 0.31925 -0.06200
C 	C 	0.95018 0.15523 0.35796 -0.03100
H 	H 	0.95807 0.08103 0.22302 0.05200
H 	H 	0.92042 0.03390 0.23220 0.05900
H 	H 	0.90916 0.14725 0.42831 0.01600
H 	H 	0.87290 0.09905 0.43886 0.03000
H 	H 	0.85002 0.04584 0.41025 0.02400
H 	H 	0.88001 0.00455 0.27808 0.06400
H 	H 	0.98325 0.13237 0.25382 0.05300
H 	H 	0.95231 0.17429 0.38507 0.03700
C 	C 	0.80809 0.11735 0.37910 -0.03500
C 	C 	0.80181 0.09109 0.34757 -0.04900
C 	C 	0.77582 0.06960 0.35481 0.00900
C 	C 	0.75456 0.07633 0.39179 -0.02700
C 	C 	0.76046 0.10326 0.42285 -0.00600
C 	C 	0.78816 0.12271 0.41780 -0.00900
C 	C 	0.73971 0.10928 0.46065 0.01600
C 	C 	0.71225 0.08969 0.46553 -0.04300
C 	C 	0.70692 0.06225 0.43554 -0.04300
C 	C 	0.72836 0.05494 0.39923 -0.00100
C 	C 	0.72526 0.02520 0.37244 -0.04900
C 	C 	0.74828 0.01668 0.33878 -0.09600
C 	C 	0.77198 0.04025 0.32751 -0.03600
C 	C 	0.79653 0.14571 0.45285 -0.00300
C 	C 	0.77709 0.14965 0.49240 -0.09500
C 	C 	0.74785 0.13300 0.49481 -0.00700
H 	H 	0.82884 0.13295 0.37397 0.02900
H 	H 	0.81785 0.08668 0.31854 0.05800
H 	H 	0.69560 0.09488 0.49356 0.08700
H 	H 	0.68672 0.04603 0.44152 0.04600
H 	H 	0.70642 0.00742 0.38014 0.03200
H 	H 	0.78919 0.03408 0.30049 0.05800
H 	H 	0.81892 0.15877 0.45069 -0.07100
H 	H 	0.73237 0.13697 0.52465 0.08100
C 	C 	0.91878 0.90119 0.55411 -0.03700
C 	C 	0.88942 0.90941 0.53663 -0.04000
C 	C 	0.87709 0.89014 0.50024 0.01700
C 	C 	0.89304 0.86062 0.48427 -0.00800
C 	C 	0.92310 0.85315 0.50058 -0.00900
C 	C 	0.93655 0.87437 0.53431 0.01500
C 	C 	0.94102 0.82670 0.47966 0.00800
C 	C 	0.92751 0.80571 0.44606 -0.03700
C 	C 	0.89710 0.81220 0.43135 -0.02900
C 	C 	0.88052 0.84077 0.44833 0.02800
C 	C 	0.85374 0.85208 0.42618 -0.01200
C 	C 	0.84127 0.88435 0.43684 -0.06100
C 	C 	0.85098 0.90183 0.47646 -0.02100
C 	C 	0.96850 0.87072 0.54417 -0.02000
C 	C 	0.98728 0.84748 0.51854 -0.07700
C 	C 	0.97298 0.82361 0.48947 -0.03700
H 	H 	0.92821 0.91653 0.58175 0.04500
H 	H 	0.87685 0.93145 0.55030 0.04100
H 	H 	0.94104 0.78527 0.42992 0.06800
H 	H 	0.88715 0.79614 0.40486 0.09400
H 	H 	0.84493 0.83775 0.39702 0.08300
H 	H 	0.84036 0.92611 0.48585 0.00900
H 	H 	0.97940 0.88832 0.56803 0.05600
H 	H 	0.98730 0.80457 0.47148 0.04200
C 	C 	0.87836 0.77463 0.29571 0.22200
C 	C 	0.85465 0.76098 0.26815 -0.01400
C 	C 	0.85352 0.72578 0.25963 0.24000
C 	C 	0.87572 0.70437 0.27899 0.28700
C 	C 	0.89921 0.71806 0.30691 -0.16400
C 	C 	0.90076 0.75331 0.31449 0.27800
C 	C 	0.83022 0.78355 0.25029 -0.00500
F 	F 	0.83082 0.71235 0.23285 -0.34200
F 	F 	0.92442 0.76693 0.33924 -0.42000
C 	C 	0.83834 0.80769 0.21703 0.23100
C 	C 	0.81965 0.83666 0.21238 0.30400
C 	C 	0.79346 0.84205 0.24220 -0.19100
C 	C 	0.78183 0.81436 0.26759 0.29900
C 	C 	0.80062 0.78555 0.27268 0.22400
F 	F 	0.86555 0.80441 0.19193 -0.35100
F 	F 	0.75355 0.81646 0.29019 -0.37500
F 	F 	0.82845 0.86072 0.18175 -0.36800
F 	F 	0.79123 0.76091 0.30209 -0.35300
F 	F 	0.87950 0.80859 0.30456 -0.38600
F 	F 	0.87425 0.67033 0.27102 -0.37700
