data_crystal

_cell_length_a 28.58714
_cell_length_b 28.63838
_cell_length_c 46.15757
_cell_angle_alpha 90.03334
_cell_angle_beta  89.96938
_cell_angle_gamma 120.05202

_symmetry_space_group_name_	'P 1'
_symmetry_space_group_name_H-M	'P 1'

loop_
_symmetry_equiv_pos_as_xyz
  x,y,z

loop_
_atom_site_label
_atom_site_type_symbol
_atom_site_fract_x
_atom_site_fract_y
_atom_site_fract_z
_atom_site_charge
C 	C 	0.31160 0.98775 0.72653 0.27400
C 	C 	0.33457 0.99507 0.59778 0.29300
C 	C 	0.43286 0.05018 0.67195 0.30900
C 	C 	0.20566 0.93432 0.64523 0.29000
C 	C 	0.38548 0.15714 0.63929 0.31100
C 	C 	0.25829 0.10031 0.67724 0.29200
Ni	Ni	0.31852 0.96589 0.66117 1.10600
Ni	Ni	0.28704 0.04924 0.63035 1.12300
Ni	Ni	0.35554 0.08476 0.68843 1.12100
O 	O 	0.32569 0.96326 0.70653 -0.36700
O 	O 	0.31573 0.03552 0.72202 -0.36300
O 	O 	0.33658 0.13054 0.62805 -0.38400
O 	O 	0.31363 0.95459 0.61622 -0.36700
O 	O 	0.34056 0.04199 0.60493 -0.37500
O 	O 	0.30711 0.11879 0.68937 -0.37800
O 	O 	0.40173 0.00707 0.65670 -0.36700
O 	O 	0.41300 0.06365 0.69401 -0.37500
O 	O 	0.23962 0.06306 0.65654 -0.38900
O 	O 	0.23497 0.91936 0.66068 -0.37100
O 	O 	0.22776 0.97037 0.62398 -0.38400
O 	O 	0.40229 0.13280 0.65680 -0.40200
O 	O 	0.31023 0.02737 0.66367 -0.71000
H 	H 	0.27712 0.01226 0.67547 0.15900
C 	C 	0.35687 0.03270 0.93415 0.28600
C 	C 	0.34616 0.03655 0.06220 0.31000
C 	C 	0.42254 0.14907 0.99362 0.30200
C 	C 	0.28519 0.91818 0.00773 0.29300
C 	C 	0.51367 0.08054 0.02571 0.31400
C 	C 	0.45888 0.96667 0.98485 0.27500
Ni	Ni	0.32960 0.03620 0.99781 1.11500
Ni	Ni	0.39950 0.98881 0.02894 1.11000
Ni	Ni	0.45001 0.06756 0.97435 1.12100
O 	O 	0.33637 0.05248 0.95318 -0.36300
O 	O 	0.40577 0.03882 0.93765 -0.36500
O 	O 	0.48057 0.03200 0.03609 -0.37900
O 	O 	0.30961 0.02267 0.04172 -0.36100
O 	O 	0.39244 0.03926 0.05689 -0.38200
O 	O 	0.47710 0.01361 0.97084 -0.36400
O 	O 	0.37728 0.11765 0.00737 -0.37000
O 	O 	0.43684 0.13080 0.97117 -0.37600
O 	O 	0.41422 0.94495 0.00062 -0.39300
O 	O 	0.27786 0.95372 0.99294 -0.37900
O 	O 	0.31822 0.93347 0.03052 -0.38300
O 	O 	0.49583 0.10479 0.00883 -0.39800
O 	O 	0.38741 0.02189 0.99626 -0.69600
H 	H 	0.37189 0.99119 0.98272 0.13800
C 	C 	0.31594 0.06523 0.40117 0.29400
C 	C 	0.32197 0.04292 0.27485 0.31000
C 	C 	0.26758 0.12132 0.33535 0.30900
C 	C 	0.36869 0.98788 0.33906 0.26400
C 	C 	0.15317 0.95497 0.31442 0.29000
C 	C 	0.19283 0.89517 0.36617 0.29900
Ni	Ni	0.34368 0.07772 0.33725 1.11300
Ni	Ni	0.25784 0.95532 0.31622 1.11400
Ni	Ni	0.22048 0.01342 0.36277 1.12400
O 	O 	0.34153 0.10083 0.38019 -0.36600
O 	O 	0.26299 0.03163 0.40015 -0.36800
O 	O 	0.17778 0.92726 0.30916 -0.38200
O 	O 	0.36001 0.06661 0.29452 -0.36800
O 	O 	0.27308 0.00533 0.28214 -0.37400
O 	O 	0.17925 0.93253 0.37269 -0.38600
O 	O 	0.30648 0.11906 0.32143 -0.37500
O 	O 	0.24850 0.09418 0.35959 -0.37700
O 	O 	0.23622 0.90651 0.35067 -0.39700
O 	O 	0.38454 0.03745 0.34844 -0.35600
O 	O 	0.33530 0.96797 0.31652 -0.37300
O 	O 	0.18027 0.00308 0.32582 -0.37900
O 	O 	0.27866 0.01226 0.34355 -0.69100
H 	H 	0.29025 0.99777 0.35957 0.13500
C 	C 	0.62213 0.65548 0.60161 0.29200
C 	C 	0.65399 0.67956 0.72869 0.31100
C 	C 	0.58966 0.55064 0.68005 0.29100
Ni	Ni	0.61284 0.66240 0.66776 1.11300
O 	O 	0.60210 0.67093 0.62332 -0.36800
O 	O 	0.61028 0.65453 0.71269 -0.37300
O 	O 	0.57001 0.57874 0.66739 -0.37000
O 	O 	0.62935 0.57331 0.69946 -0.37300
C 	C 	0.72440 0.71792 0.06507 0.29500
C 	C 	0.69950 0.70502 0.93653 0.31100
C 	C 	0.65732 0.76414 0.00964 0.31700
C 	C 	0.76819 0.64582 0.98607 0.29200
C 	C 	0.54607 0.60173 0.98564 0.31800
C 	C 	0.60641 0.53934 0.02541 0.29400
Ni	Ni	0.73847 0.72986 0.99794 1.11300
Ni	Ni	0.65183 0.60897 0.97433 1.12000
Ni	Ni	0.62413 0.65444 0.03079 1.12200
O 	O 	0.74869 0.75030 0.04240 -0.36700
O 	O 	0.67873 0.67109 0.06258 -0.38100
O 	O 	0.57027 0.57654 0.97511 -0.38800
O 	O 	0.74275 0.72566 0.95300 -0.37200
O 	O 	0.65441 0.66267 0.94498 -0.38100
O 	O 	0.59037 0.57241 0.03661 -0.37600
O 	O 	0.69468 0.76874 0.99153 -0.37900
O 	O 	0.64584 0.73374 0.03283 -0.38300
O 	O 	0.64231 0.55434 0.00413 -0.38900
O 	O 	0.78560 0.69354 0.99842 -0.37100
O 	O 	0.72978 0.62767 0.96592 -0.37600
O 	O 	0.57420 0.64764 0.99890 -0.40100
O 	O 	0.67794 0.66104 0.00480 -0.71400
H 	H 	0.69480 0.64586 0.01731 0.15900
C 	C 	0.66296 0.73447 0.26947 0.29100
C 	C 	0.62178 0.68628 0.39468 0.30900
C 	C 	0.53330 0.68064 0.32048 0.31100
C 	C 	0.60293 0.82901 0.36370 0.31200
Ni	Ni	0.63833 0.68533 0.33028 1.11400
Ni	Ni	0.68626 0.79472 0.36972 1.11900
Ni	Ni	0.62569 0.78891 0.31079 1.12100
O 	O 	0.63505 0.68969 0.28500 -0.36500
O 	O 	0.66141 0.77910 0.27531 -0.37900
O 	O 	0.64894 0.83900 0.37585 -0.38600
O 	O 	0.63779 0.66600 0.37393 -0.36800
O 	O 	0.62476 0.73318 0.39140 -0.38800
O 	O 	0.68597 0.86768 0.31517 -0.38100
O 	O 	0.55608 0.65631 0.33328 -0.37400
O 	O 	0.55959 0.71738 0.30057 -0.37800
O 	O 	0.58140 0.79397 0.34270 -0.40000
O 	O 	0.65919 0.75922 0.33369 -0.71200
H 	H 	0.69304 0.77459 0.32256 0.15000
C 	C 	0.03602 0.27355 0.64978 0.31000
O 	O 	0.04664 0.31659 0.66486 -0.37300
C 	C 	0.03285 0.33916 0.06313 0.29100
C 	C 	0.14384 0.42027 0.00335 0.31700
C 	C 	0.06876 0.51711 0.98926 0.31400
Ni	Ni	0.06258 0.44065 0.03143 1.12300
O 	O 	0.02004 0.48681 0.97824 -0.38100
O 	O 	0.11060 0.38093 0.98630 -0.37600
O 	O 	0.12672 0.42855 0.02821 -0.38200
O 	O 	0.09508 0.49474 0.99982 -0.40100
C 	C 	0.02415 0.39934 0.26112 0.29400
C 	C 	0.98616 0.40036 0.38688 0.29900
C 	C 	0.04037 0.51487 0.31470 0.31300
C 	C 	0.15814 0.49885 0.36155 0.31500
C 	C 	0.14442 0.38292 0.31608 0.29200
Ni	Ni	0.97906 0.39510 0.32165 1.11000
Ni	Ni	0.06940 0.38474 0.35932 1.12300
Ni	Ni	0.10688 0.46383 0.30522 1.12000
O 	O 	0.98964 0.40767 0.27662 -0.37200
O 	O 	0.07654 0.42428 0.26744 -0.37700
O 	O 	0.14346 0.44848 0.36783 -0.38200
O 	O 	0.03829 0.42139 0.38346 -0.37900
O 	O 	0.15840 0.43385 0.30956 -0.37900
O 	O 	0.00326 0.47509 0.33000 -0.36900
O 	O 	0.06843 0.50547 0.29533 -0.37900
O 	O 	0.10661 0.35437 0.33563 -0.38300
O 	O 	0.99753 0.31273 0.35968 -0.38200
O 	O 	0.13319 0.50922 0.34098 -0.39800
O 	O 	0.04899 0.40428 0.32432 -0.71300
H 	H 	0.04519 0.37479 0.31174 0.15700
C 	C 	0.99727 0.32106 0.17940 -0.01200
C 	C 	0.00278 0.29633 0.20453 0.01100
C 	C 	0.00704 0.32007 0.23167 -0.01100
C 	C 	0.00591 0.36837 0.23400 -0.07400
C 	C 	0.00348 0.30336 0.15020 0.03800
H 	H 	0.01344 0.30217 0.25087 0.03700
C 	C 	0.02202 0.30905 0.09035 -0.07800
C 	C 	0.06491 0.32246 0.10978 0.05900
C 	C 	0.05561 0.32025 0.13967 -0.07700
S 	S 	0.13113 0.34707 0.09688 -0.03500
H 	H 	0.08940 0.33550 0.15458 0.05800
H 	H 	0.15541 0.40170 0.09278 0.04400
C 	C 	0.07473 0.39637 0.85846 -0.07500
C 	C 	0.07579 0.39477 0.88875 0.05700
S 	S 	0.13633 0.43766 0.90714 -0.03000
H 	H 	0.11043 0.42529 0.84670 0.05600
S 	S 	0.06107 0.29597 0.74430 -0.03500
H 	H 	0.06398 0.31565 0.80508 0.05200
H 	H 	0.16465 0.41136 0.91166 0.04100
C 	C 	0.98677 0.44442 0.46278 -0.01300
C 	C 	0.98788 0.44646 0.43247 -0.01100
C 	C 	0.96486 0.39865 0.41615 -0.08900
S 	S 	0.01883 0.50488 0.48276 -0.01800
H 	H 	0.01024 0.48510 0.42161 0.05300
H 	H 	0.98195 0.52055 0.48926 0.03100
C 	C 	0.30226 0.56463 0.38294 -0.07600
C 	C 	0.32204 0.61108 0.36574 0.01400
C 	C 	0.28660 0.62897 0.35680 -0.00700
C 	C 	0.23087 0.59515 0.36026 -0.00500
C 	C 	0.21067 0.54331 0.37215 -0.09600
C 	C 	0.24665 0.53214 0.38748 0.06200
C 	C 	0.37680 0.63500 0.35330 0.01400
S 	S 	0.31148 0.69267 0.34052 -0.04100
H 	H 	0.20333 0.60729 0.35161 0.04300
S 	S 	0.22323 0.48252 0.41472 -0.03800
H 	H 	0.32992 0.55305 0.39206 0.05300
C 	C 	0.42286 0.66482 0.37067 -0.00500
C 	C 	0.47419 0.68214 0.35914 0.00200
C 	C 	0.48009 0.66994 0.33039 -0.09400
C 	C 	0.43419 0.64224 0.31263 0.05800
C 	C 	0.38280 0.62473 0.32419 -0.07200
S 	S 	0.41671 0.67959 0.40704 -0.03700
H 	H 	0.50952 0.70359 0.37282 0.05100
S 	S 	0.44033 0.62746 0.27626 -0.04100
H 	H 	0.34732 0.60196 0.31076 0.05300
H 	H 	0.22103 0.50498 0.44054 0.03800
H 	H 	0.41137 0.63844 0.42442 0.03600
H 	H 	0.43968 0.57934 0.27491 0.04000
H 	H 	0.32170 0.73054 0.36146 0.03700
S 	S 	0.02934 0.23119 0.31695 -0.03400
H 	H 	0.03447 0.24350 0.28803 0.03500
C 	C 	0.74217 0.78594 0.13688 -0.07300
C 	C 	0.74554 0.74830 0.15486 0.01300
C 	C 	0.75659 0.70993 0.14259 -0.00500
C 	C 	0.75604 0.70427 0.11252 -0.00500
C 	C 	0.74523 0.73716 0.09445 -0.08800
C 	C 	0.74181 0.78053 0.10671 0.05400
C 	C 	0.72564 0.74163 0.18490 0.01400
H 	H 	0.75957 0.67145 0.10339 0.03900
S 	S 	0.73284 0.82569 0.08474 -0.03600
H 	H 	0.73583 0.81698 0.14636 0.05100
C 	C 	0.76090 0.76965 0.20796 -0.00500
C 	C 	0.74035 0.76408 0.23606 -0.00400
C 	C 	0.68483 0.73101 0.24134 -0.08700
C 	C 	0.64990 0.70161 0.21837 0.05700
C 	C 	0.67053 0.70695 0.19037 -0.07200
S 	S 	0.57991 0.65999 0.22411 -0.03300
H 	H 	0.64354 0.68484 0.17265 0.05500
H 	H 	0.78231 0.86771 0.07683 0.03500
H 	H 	0.55512 0.69023 0.22193 0.04200
S 	S 	0.76222 0.61808 0.05093 -0.05600
H 	H 	0.79773 0.67021 0.05885 0.04300
C 	C 	0.28612 0.51268 0.97652 -0.07200
C 	C 	0.31325 0.48785 0.98835 0.01100
C 	C 	0.28431 0.43996 0.00450 -0.00500
C 	C 	0.22899 0.41852 0.00948 0.00400
C 	C 	0.20221 0.44444 0.99847 -0.09700
C 	C 	0.23100 0.49161 0.98165 0.05300
C 	C 	0.37276 0.51654 0.98744 0.01400
S 	S 	0.31695 0.40656 0.01854 -0.03500
H 	H 	0.20678 0.38174 0.02198 0.04100
S 	S 	0.19924 0.52581 0.96772 -0.03100
H 	H 	0.30845 0.54960 0.96414 0.05200
C 	C 	0.40049 0.51260 0.96319 -0.01000
C 	C 	0.45704 0.54190 0.96250 0.00200
C 	C 	0.48639 0.57451 0.98605 -0.10600
C 	C 	0.45808 0.57819 0.01047 0.06900
C 	C 	0.40172 0.54978 0.01067 -0.07500
S 	S 	0.36489 0.47065 0.93376 -0.03900
H 	H 	0.47825 0.53888 0.94376 0.04200
S 	S 	0.49207 0.61539 0.04167 -0.08100
H 	H 	0.38017 0.55285 0.02926 0.05700
H 	H 	0.20573 0.56535 0.98677 0.04200
H 	H 	0.35207 0.49897 0.91456 0.03600
H 	H 	0.49883 0.58300 0.06100 0.03800
H 	H 	0.31735 0.37227 0.99796 0.03500
C 	C 	0.69485 0.76279 0.79667 -0.07300
C 	C 	0.66702 0.72232 0.81733 0.01300
C 	C 	0.62650 0.67064 0.80828 -0.00500
C 	C 	0.61832 0.65848 0.77871 -0.00200
C 	C 	0.65068 0.69721 0.75811 -0.09400
C 	C 	0.68693 0.75051 0.76709 0.05600
C 	C 	0.68553 0.73191 0.84773 0.01300
S 	S 	0.58803 0.62002 0.83379 -0.03500
H 	H 	0.58929 0.61785 0.77182 0.04400
C 	C 	0.72640 0.72141 0.85696 -0.00700
C 	C 	0.73517 0.71880 0.88657 -0.00300
C 	C 	0.70283 0.72555 0.90705 -0.09400
C 	C 	0.66622 0.74196 0.89784 0.05700
C 	C 	0.65787 0.74520 0.86821 -0.07300
S 	S 	0.62992 0.75742 0.92324 -0.03100
H 	H 	0.62787 0.75530 0.86111 0.05300
H 	H 	0.66001 0.81051 0.93123 0.04100
H 	H 	0.61536 0.59394 0.84141 0.03800
S 	S 	0.61143 0.81797 0.68114 -0.05100
H 	H 	0.60403 0.79376 0.70766 0.04100
C 	C 	0.57809 0.58929 0.52920 -0.07200
C 	C 	0.57660 0.63079 0.51391 0.01300
C 	C 	0.59256 0.63927 0.57403 -0.08700
C 	C 	0.58616 0.59339 0.55920 0.05700
C 	C 	0.58833 0.63656 0.48254 0.01400
S 	S 	0.58995 0.54187 0.57785 -0.05400
H 	H 	0.57698 0.55591 0.51750 0.05300
C 	C 	0.64219 0.66501 0.47257 -0.00700
C 	C 	0.65270 0.67705 0.44312 -0.00200
C 	C 	0.61007 0.66157 0.42352 -0.09400
C 	C 	0.55632 0.62945 0.43309 0.05700
C 	C 	0.54569 0.61716 0.46258 -0.07300
S 	S 	0.50224 0.60421 0.40838 -0.04600
H 	H 	0.50428 0.59398 0.47011 0.05300
H 	H 	0.64267 0.55371 0.57918 0.04200
H 	H 	0.49299 0.55566 0.39770 0.04100
C 	C 	0.55510 0.92873 0.35882 -0.07400
C 	C 	0.50338 0.89865 0.37092 0.01600
C 	C 	0.48970 0.85091 0.38626 -0.00600
C 	C 	0.52599 0.83136 0.38699 0.00000
C 	C 	0.57605 0.85925 0.37275 -0.09500
C 	C 	0.59193 0.91017 0.36045 0.05300
C 	C 	0.46340 0.91673 0.36649 0.00600
S 	S 	0.42764 0.81553 0.40471 -0.03800
H 	H 	0.51420 0.79313 0.39738 0.04000
S 	S 	0.65762 0.95105 0.34693 -0.04500
H 	H 	0.56652 0.96646 0.34788 0.04900
C 	C 	0.47110 0.96469 0.37929 0.00700
C 	C 	0.43886 0.98634 0.37085 -0.03900
C 	C 	0.39743 0.95982 0.35019 -0.07100
C 	C 	0.38527 0.90790 0.34031 0.05000
C 	C 	0.41996 0.88819 0.34741 -0.06800
S 	S 	0.52070 0.99785 0.40616 -0.06800
H 	H 	0.44633 0.02410 0.38029 0.06700
S 	S 	0.32400 0.86423 0.32262 -0.05200
H 	H 	0.41254 0.85005 0.33846 0.05400
H 	H 	0.68968 0.98593 0.36811 0.03300
H 	H 	0.56856 0.03398 0.39329 0.05100
H 	H 	0.28506 0.83491 0.34280 0.04000
H 	H 	0.43337 0.83606 0.43213 0.03700
C 	C 	0.01276 0.90763 0.34323 0.01700
C 	C 	0.06864 0.93768 0.33915 -0.01200
C 	C 	0.09331 0.92632 0.31597 -0.08900
C 	C 	0.06076 0.88485 0.29622 0.04600
C 	C 	0.00488 0.85347 0.30097 -0.04400
H 	H 	0.09317 0.96909 0.35456 0.02400
S 	S 	0.08864 0.87371 0.26475 -0.04000
H 	H 	0.08799 0.90558 0.24281 0.03700
C 	C 	0.19135 0.19778 0.32523 -0.07200
C 	C 	0.23124 0.24568 0.31236 0.01400
C 	C 	0.28232 0.25189 0.30615 -0.00500
C 	C 	0.29371 0.21133 0.31396 -0.00200
C 	C 	0.25397 0.16338 0.32710 -0.08700
C 	C 	0.20170 0.15602 0.33178 0.05900
C 	C 	0.21999 0.29029 0.30710 0.01400
S 	S 	0.33185 0.30953 0.28789 -0.03800
H 	H 	0.33362 0.21717 0.30982 0.04400
S 	S 	0.14785 0.09386 0.34379 -0.04000
H 	H 	0.15184 0.19270 0.32978 0.05500
C 	C 	0.18137 0.28499 0.28635 -0.00500
C 	C 	0.16191 0.32127 0.28649 -0.00500
C 	C 	0.18032 0.36245 0.30729 -0.08500
C 	C 	0.22450 0.37231 0.32499 0.05600
C 	C 	0.24339 0.33566 0.32526 -0.07000
S 	S 	0.15623 0.23256 0.26065 -0.03400
H 	H 	0.12977 0.31514 0.27178 0.03600
S 	S 	0.25492 0.42916 0.34778 -0.03300
H 	H 	0.27472 0.34121 0.34043 0.05500
H 	H 	0.14556 0.09365 0.37345 0.03900
H 	H 	0.11138 0.18845 0.27170 0.03800
H 	H 	0.29447 0.47230 0.33289 0.04000
H 	H 	0.32494 0.30108 0.25860 0.03900
C 	C 	0.14353 0.74941 0.37739 -0.07100
C 	C 	0.10343 0.72851 0.35585 0.01200
C 	C 	0.08292 0.76086 0.34506 -0.00400
C 	C 	0.10614 0.81462 0.35397 -0.00400
C 	C 	0.15311 0.83801 0.37092 -0.08900
C 	C 	0.16912 0.80429 0.38458 0.05600
C 	C 	0.08635 0.67463 0.34324 0.01600
S 	S 	0.03169 0.73625 0.31858 -0.03400
H 	H 	0.09128 0.83968 0.34513 0.04800
S 	S 	0.22234 0.83084 0.40989 -0.04700
H 	H 	0.15719 0.72386 0.38709 0.05300
C 	C 	0.12256 0.66558 0.32660 -0.00800
C 	C 	0.10658 0.61367 0.31636 0.00200
C 	C 	0.05367 0.57105 0.32101 -0.09400
C 	C 	0.01587 0.58185 0.33488 0.07000
C 	C 	0.03339 0.63232 0.34756 -0.07600
S 	S 	0.18746 0.71902 0.31791 -0.04000
H 	H 	0.13564 0.60633 0.30517 0.03800
H 	H 	0.00508 0.63938 0.35976 0.05900
H 	H 	0.27072 0.84971 0.39582 0.04100
H 	H 	0.22230 0.72594 0.34002 0.03400
H 	H 	0.05477 0.74628 0.29161 0.03900
C 	C 	0.29430 0.01574 0.13882 -0.05300
C 	C 	0.33368 0.06396 0.15163 0.00800
C 	C 	0.37145 0.10625 0.13403 -0.00300
C 	C 	0.37186 0.09851 0.10411 0.00000
C 	C 	0.33527 0.04870 0.09156 -0.09300
C 	C 	0.29488 0.00784 0.10891 0.06500
C 	C 	0.33786 0.06781 0.18356 0.01800
S 	S 	0.41902 0.16862 0.14924 -0.03500
H 	H 	0.40229 0.13040 0.09076 0.04200
S 	S 	0.24656 0.94569 0.09374 -0.05600
H 	H 	0.26440 0.98362 0.15229 0.03600
C 	C 	0.30636 0.08366 0.19975 -0.00600
C 	C 	0.30464 0.07914 0.22997 0.00100
C 	C 	0.33387 0.05864 0.24425 -0.09100
C 	C 	0.36791 0.04586 0.22815 0.05500
C 	C 	0.36991 0.05078 0.19794 -0.07100
S 	S 	0.26801 0.10802 0.18238 -0.03300
H 	H 	0.27898 0.08969 0.24233 0.04700
S 	S 	0.40598 0.02099 0.24538 -0.02600
H 	H 	0.39488 0.03943 0.18551 0.05700
H 	H 	0.26695 0.91141 0.09303 0.03900
H 	H 	0.21836 0.06542 0.17523 0.04100
H 	H 	0.45519 0.06335 0.25336 0.04400
H 	H 	0.39753 0.20194 0.15011 0.03700
C 	C 	0.15034 0.66096 0.01719 -0.07500
C 	C 	0.14237 0.68966 0.99508 0.01400
C 	C 	0.10680 0.66138 0.97210 -0.00800
C 	C 	0.08230 0.60498 0.97058 0.00300
C 	C 	0.09172 0.57627 0.99228 -0.10400
C 	C 	0.12385 0.60465 0.01658 0.06700
C 	C 	0.17402 0.74946 0.99548 0.01000
S 	S 	0.09132 0.69585 0.94569 -0.03500
H 	H 	0.05628 0.58357 0.95243 0.04400
S 	S 	0.12782 0.57053 0.04742 -0.08600
H 	H 	0.17673 0.68259 0.03520 0.05400
C 	C 	0.16380 0.77898 0.01655 -0.00300
C 	C 	0.20058 0.83404 0.02048 -0.00300
C 	C 	0.24707 0.86032 0.00322 -0.08500
C 	C 	0.25595 0.83143 0.98121 0.05100
C 	C 	0.21949 0.77627 0.97750 -0.06900
S 	S 	0.10497 0.74758 0.03795 -0.03600
H 	H 	0.19301 0.85644 0.03696 0.04200
S 	S 	0.31320 0.86334 0.95866 -0.05700
H 	H 	0.22744 0.75377 0.96125 0.05300
H 	H 	0.17067 0.56198 0.04454 0.03700
H 	H 	0.11457 0.72602 0.06217 0.03600
H 	H 	0.35216 0.85297 0.96874 0.04700
H 	H 	0.04790 0.69994 0.95482 0.03900
C 	C 	0.66013 0.17474 0.04451 -0.07200
C 	C 	0.68560 0.16074 0.02293 0.01500
C 	C 	0.65430 0.11542 0.00521 -0.00300
C 	C 	0.59820 0.08624 0.00844 -0.00100
C 	C 	0.57235 0.10300 0.02823 -0.09600
C 	C 	0.60360 0.14699 0.04672 0.06000
S 	S 	0.68443 0.09681 0.97762 -0.03100
H 	H 	0.57440 0.05251 0.99422 0.04600
S 	S 	0.57243 0.16883 0.07198 -0.04100
H 	H 	0.68414 0.20883 0.05859 0.05300
H 	H 	0.56371 0.20708 0.05934 0.04300
H 	H 	0.68841 0.12516 0.95295 0.03900
C 	C 	0.50216 0.39266 0.03498 -0.07200
C 	C 	0.53551 0.37005 0.03238 0.01200
C 	C 	0.59187 0.40338 0.03525 -0.00300
C 	C 	0.61435 0.45935 0.03784 -0.00500
C 	C 	0.58144 0.48281 0.03574 -0.08400
C 	C 	0.52457 0.44873 0.03623 0.05400
C 	C 	0.51173 0.31356 0.02228 0.01600
S 	S 	0.63486 0.37590 0.03410 -0.03700
H 	H 	0.65791 0.48502 0.03891 0.04500
S 	S 	0.48079 0.47514 0.03703 -0.03800
H 	H 	0.45863 0.36676 0.03405 0.05300
C 	C 	0.49615 0.27087 0.04210 -0.00600
C 	C 	0.46911 0.21745 0.03220 -0.00300
C 	C 	0.45599 0.20590 0.00276 -0.08400
C 	C 	0.47199 0.24873 0.98287 0.05300
C 	C 	0.50045 0.30216 0.99270 -0.07400
S 	S 	0.50908 0.28364 0.07941 -0.04000
H 	H 	0.45745 0.18473 0.04749 0.04500
S 	S 	0.45373 0.23626 0.94605 -0.03300
H 	H 	0.51224 0.33498 0.97744 0.05400
H 	H 	0.45900 0.47011 0.01001 0.04400
H 	H 	0.46627 0.28438 0.09229 0.03700
H 	H 	0.40363 0.23067 0.94230 0.03900
H 	H 	0.64162 0.36206 0.06155 0.03600
C 	C 	0.53251 0.89311 0.96275 -0.07200
C 	C 	0.55119 0.88683 0.98977 0.00900
C 	C 	0.54194 0.90939 0.01471 -0.00200
C 	C 	0.51263 0.93622 0.01261 -0.00800
C 	C 	0.49272 0.94144 0.98578 -0.09100
C 	C 	0.50310 0.92013 0.96064 0.05300
C 	C 	0.57812 0.85443 0.99209 0.01400
S 	S 	0.56577 0.90313 0.04885 -0.04200
H 	H 	0.50481 0.95267 0.03195 0.03700
S 	S 	0.47755 0.92481 0.92674 -0.04900
H 	H 	0.53974 0.87587 0.94353 0.05100
C 	C 	0.54771 0.79851 0.99742 -0.00800
C 	C 	0.57408 0.76977 0.00385 0.00100
C 	C 	0.63066 0.79613 0.00493 -0.09100
C 	C 	0.66113 0.85216 0.99956 0.05600
C 	C 	0.63470 0.88068 0.99264 -0.07400
S 	S 	0.47660 0.76416 0.99636 -0.03900
H 	H 	0.55053 0.72676 0.00777 0.04800
S 	S 	0.73195 0.88776 0.00346 -0.04800
H 	H 	0.65810 0.92383 0.98894 0.05100
H 	H 	0.42680 0.88125 0.92306 0.03800
H 	H 	0.45957 0.74703 0.96863 0.03600
H 	H 	0.74497 0.90624 0.03134 0.03600
H 	H 	0.52831 0.85552 0.06136 0.03800
C 	C 	0.33900 0.96510 0.80314 -0.07700
C 	C 	0.29599 0.96607 0.81714 0.02100
C 	C 	0.25192 0.96036 0.80073 -0.00800
C 	C 	0.25425 0.96015 0.77042 -0.00600
C 	C 	0.30066 0.96657 0.75634 -0.08400
C 	C 	0.34170 0.96551 0.77286 0.05500
C 	C 	0.30170 0.98178 0.84801 -0.01600
S 	S 	0.19448 0.95515 0.81786 -0.04300
H 	H 	0.22162 0.95884 0.75781 0.03700
S 	S 	0.39816 0.96793 0.75604 -0.04300
H 	H 	0.37199 0.96734 0.81581 0.05400
C 	C 	0.28879 0.94327 0.87008 0.01100
C 	C 	0.30325 0.96026 0.89879 -0.03800
C 	C 	0.33112 0.01538 0.90562 -0.05400
C 	C 	0.34074 0.05362 0.88383 0.04200
C 	C 	0.32570 0.03660 0.85521 -0.03800
S 	S 	0.25516 0.87388 0.86201 -0.04200
H 	H 	0.29438 0.93071 0.91566 0.04500
S 	S 	0.37339 0.12300 0.89191 -0.02800
H 	H 	0.33468 0.06621 0.83831 0.05200
H 	H 	0.38725 0.91650 0.75027 0.03800
H 	H 	0.20046 0.85380 0.86304 0.03700
H 	H 	0.33576 0.13671 0.90011 0.04100
H 	H 	0.15868 0.90202 0.82377 0.03600
C 	C 	0.67542 0.14329 0.61909 -0.07300
C 	C 	0.65146 0.17183 0.63038 0.01300
C 	C 	0.68293 0.22811 0.63395 -0.00300
C 	C 	0.73142 0.16958 0.61466 0.05700
C 	C 	0.59530 0.14203 0.64117 0.01400
S 	S 	0.65307 0.26634 0.64434 -0.03800
H 	H 	0.65059 0.10092 0.61372 0.05500
C 	C 	0.55171 0.13310 0.62327 -0.00500
C 	C 	0.49898 0.10535 0.63414 0.00000
C 	C 	0.48906 0.08570 0.66265 -0.09100
C 	C 	0.53278 0.09550 0.68074 0.05600
C 	C 	0.58560 0.12365 0.66991 -0.07100
S 	S 	0.56256 0.15580 0.58713 -0.03800
H 	H 	0.46546 0.09825 0.62026 0.04900
S 	S 	0.52198 0.07137 0.71659 -0.03100
H 	H 	0.61921 0.13099 0.68378 0.05500
H 	H 	0.56235 0.11698 0.56969 0.03800
H 	H 	0.51446 0.02021 0.71684 0.04300
H 	H 	0.63743 0.28253 0.62008 0.03700
C 	C 	0.21459 0.20368 0.68677 -0.07300
C 	C 	0.15990 0.17204 0.67925 0.01300
C 	C 	0.13626 0.11557 0.67760 -0.00300
C 	C 	0.16802 0.09177 0.68211 -0.00400
C 	C 	0.22426 0.12380 0.68571 -0.08400
C 	C 	0.24685 0.17997 0.69038 0.05300
C 	C 	0.12840 0.19858 0.67185 0.01400
S 	S 	0.06779 0.07443 0.66800 -0.02400
H 	H 	0.14971 0.04844 0.68021 0.04900
S 	S 	0.31365 0.22036 0.70279 -0.03800
H 	H 	0.23223 0.24689 0.68941 0.05200
C 	C 	0.09013 0.19790 0.69137 -0.00600
C 	C 	0.05766 0.21924 0.68294 -0.00100
C 	C 	0.06561 0.24501 0.65614 -0.09000
C 	C 	0.10468 0.24680 0.63680 0.05700
C 	C 	0.13543 0.22307 0.64463 -0.07200
S 	S 	0.08373 0.17205 0.72666 -0.03600
H 	H 	0.02645 0.21630 0.69734 0.04600
S 	S 	0.11620 0.27940 0.60305 -0.03200
H 	H 	0.16492 0.22376 0.62960 0.05300
H 	H 	0.34719 0.24649 0.67999 0.03800
H 	H 	0.11842 0.21257 0.74478 0.03800
H 	H 	0.15348 0.33303 0.60626 0.03800
H 	H 	0.03676 0.05720 0.69257 0.04200
C 	C 	0.97869 0.83234 0.67119 0.00300
C 	C 	0.03730 0.85745 0.66568 0.02400
H 	H 	0.98142 0.79283 0.71040 0.05000
C 	C 	0.07421 0.90700 0.67865 -0.00700
C 	C 	0.12909 0.93196 0.67148 -0.00500
C 	C 	0.14743 0.90876 0.65092 -0.09200
C 	C 	0.11067 0.85876 0.63831 0.05900
C 	C 	0.05590 0.83332 0.64582 -0.07500
S 	S 	0.05219 0.93810 0.70382 -0.04500
H 	H 	0.15775 0.96890 0.68235 0.03200
S 	S 	0.13263 0.82750 0.61324 -0.03700
H 	H 	0.02752 0.79515 0.63585 0.05700
H 	H 	0.05289 0.91951 0.73107 0.03700
H 	H 	0.12424 0.83969 0.58573 0.03900
C 	C 	0.42993 0.30552 0.63294 -0.07600
C 	C 	0.48117 0.32775 0.64572 0.01300
C 	C 	0.50408 0.29496 0.65063 -0.00500
C 	C 	0.47525 0.24032 0.64322 -0.00500
C 	C 	0.42093 0.21619 0.63434 -0.09400
C 	C 	0.39964 0.25007 0.62702 0.05500
C 	C 	0.50985 0.38507 0.65471 0.01300
S 	S 	0.56702 0.32087 0.66812 -0.03500
H 	H 	0.49353 0.21554 0.64683 0.04800
S 	S 	0.33733 0.22508 0.60895 -0.03900
H 	H 	0.41321 0.33124 0.62804 0.05200
C 	C 	0.55346 0.42441 0.63832 -0.00400
C 	C 	0.58171 0.47783 0.64805 -0.00500
C 	C 	0.56552 0.49306 0.67330 -0.08900
C 	C 	0.52209 0.45381 0.68976 0.05700
C 	C 	0.49463 0.40001 0.68045 -0.07200
S 	S 	0.57222 0.40754 0.60530 -0.04200
H 	H 	0.61551 0.50794 0.63557 0.03700
S 	S 	0.50157 0.47154 0.72190 -0.03900
H 	H 	0.46138 0.36975 0.69320 0.05300
H 	H 	0.29659 0.20939 0.62885 0.04100
H 	H 	0.54172 0.41069 0.58333 0.03800
H 	H 	0.46403 0.48636 0.71542 0.04000
H 	H 	0.60767 0.34534 0.64816 0.03700
C 	C 	0.36646 0.07958 0.47733 -0.06700
C 	C 	0.36992 0.03252 0.47961 0.00400
C 	C 	0.36780 0.00394 0.45433 0.01000
C 	C 	0.35617 0.01909 0.42767 0.01400
C 	C 	0.34635 0.06237 0.42603 -0.09400
C 	C 	0.35467 0.09460 0.45066 0.05800
C 	C 	0.36629 0.00891 0.50859 0.04700
S 	S 	0.37787 0.94819 0.45597 -0.05400
H 	H 	0.35103 0.99492 0.40857 0.02000
S 	S 	0.34769 0.15219 0.44869 -0.03700
H 	H 	0.36980 0.10269 0.49662 0.05400
C 	C 	0.40985 0.03342 0.52814 -0.02100
C 	C 	0.40070 0.02226 0.55781 0.03000
C 	C 	0.34825 0.98732 0.56811 -0.11700
C 	C 	0.30680 0.95669 0.54808 0.06700
C 	C 	0.31596 0.96779 0.51843 -0.10300
S 	S 	0.47539 0.07942 0.51584 -0.03000
H 	H 	0.43347 0.04392 0.57305 0.03600
S 	S 	0.24235 0.90700 0.55991 -0.03900
H 	H 	0.28293 0.94700 0.50323 0.06000
H 	H 	0.29483 0.13759 0.45365 0.04300
H 	H 	0.48256 0.13044 0.51608 0.03600
H 	H 	0.21092 0.93005 0.56432 0.04000
H 	H 	0.43203 0.96583 0.45430 0.03800
O 	O 	0.05011 0.32378 0.04019 -0.36400
O 	O 	0.02826 0.40696 0.94612 -0.37800
C 	C 	0.79228 0.61298 0.99464 -0.09600
H 	H 	0.76452 0.70778 0.89364 0.04200
H 	H 	0.66199 0.99346 0.65975 0.02000
C 	C 	0.99637 0.39085 0.20911 0.04300
H 	H 	0.11759 0.41037 0.56409 0.03900
H 	H 	0.73328 0.94477 0.40071 0.04000
S 	S 	0.76791 0.66653 0.16475 -0.03500
C 	C 	0.99204 0.36708 0.18200 -0.06200
H 	H 	0.04330 0.49414 0.20895 0.04800
S 	S 	0.99245 0.45018 0.21139 -0.04400
O 	O 	0.03674 0.38726 0.06438 -0.37400
H 	H 	0.98685 0.38567 0.16273 0.05000
S 	S 	0.72250 0.27214 0.99552 -0.04200
Ni	Ni	0.03017 0.32914 0.99686 1.11400
H 	H 	0.68674 0.92754 0.69534 0.04600
C 	C 	0.57466 0.67228 0.52935 -0.00400
H 	H 	0.72090 0.30148 0.01857 0.03800
S 	S 	0.75833 0.13979 0.59170 -0.04100
C 	C 	0.58239 0.67617 0.55938 -0.00300
C 	C 	0.79413 0.60062 0.02408 0.06200
H 	H 	0.84026 0.86311 0.19535 0.03400
H 	H 	0.69412 0.70080 0.43566 0.03900
H 	H 	0.70908 0.64753 0.50086 0.03700
O 	O 	0.65492 0.74517 0.67398 -0.37800
S 	S 	0.83053 0.81234 0.20186 -0.04200
H 	H 	0.76727 0.78675 0.25370 0.03700
C 	C 	0.68659 0.77873 0.65412 0.31300
C 	C 	0.80644 0.73986 0.67907 0.31500
C 	C 	0.75217 0.61516 0.63850 0.29500
Ni	Ni	0.70523 0.63595 0.69002 1.12100
Ni	Ni	0.72668 0.70725 0.63345 1.12000
O 	O 	0.67315 0.66629 0.60155 -0.37900
O 	O 	0.78574 0.68953 0.68784 -0.38500
O 	O 	0.70008 0.68539 0.71959 -0.38200
O 	O 	0.76581 0.66401 0.62783 -0.37900
O 	O 	0.69915 0.76045 0.63100 -0.38200
O 	O 	0.71738 0.59270 0.66014 -0.39300
O 	O 	0.77651 0.75435 0.66460 -0.39900
O 	O 	0.67507 0.65780 0.65981 -0.71500
H 	H 	0.65939 0.62541 0.64746 0.15700
C 	C 	0.75286 0.74672 0.34959 0.29300
C 	C 	0.73205 0.88697 0.33030 0.29300
O 	O 	0.74306 0.85589 0.34669 -0.39200
O 	O 	0.71973 0.70882 0.33136 -0.37000
O 	O 	0.73386 0.75994 0.37261 -0.37600
C 	C 	0.87519 0.17810 0.68437 0.31500
C 	C 	0.81807 0.24141 0.63722 0.29100
O 	O 	0.85538 0.20890 0.69250 -0.38200
O 	O 	0.84298 0.21339 0.63169 -0.38500
O 	O 	0.83393 0.27714 0.65873 -0.38800
C 	C 	0.83156 0.02886 0.35496 -0.04600
C 	C 	0.84199 0.05725 0.32891 -0.00000
C 	C 	0.81822 0.02938 0.30300 0.02100
C 	C 	0.78315 0.97353 0.30360 -0.03200
C 	C 	0.77083 0.94534 0.32992 -0.07600
C 	C 	0.79497 0.97359 0.35588 0.03500
S 	S 	0.83099 0.06416 0.26988 -0.03800
H 	H 	0.76501 0.95210 0.28364 0.04600
S 	S 	0.77624 0.94155 0.38995 -0.06500
H 	H 	0.84976 0.05049 0.37487 0.05000
S 	S 	0.77940 0.11479 0.34530 -0.03300
H 	H 	0.76909 0.09679 0.37336 0.03700
H 	H 	0.79489 0.08198 0.26650 0.04100
H 	H 	0.82188 0.69050 0.17110 0.03600
C 	C 	0.82181 0.57424 0.03227 -0.07700
C 	C 	0.84677 0.55868 0.01146 0.01900
C 	C 	0.84265 0.56827 0.98184 -0.00900
C 	C 	0.81564 0.59566 0.97359 0.00000
C 	C 	0.87633 0.53158 0.02099 0.01000
S 	S 	0.87105 0.54625 0.95501 -0.03900
H 	H 	0.81363 0.60428 0.95090 0.04100
H 	H 	0.82408 0.56586 0.05497 0.05300
C 	C 	0.87446 0.45073 0.03825 0.05500
C 	C 	0.84720 0.47747 0.02966 -0.07100
S 	S 	0.83721 0.38367 0.05064 -0.04400
H 	H 	0.80338 0.45615 0.02948 0.05300
H 	H 	0.83052 0.38352 0.08003 0.03700
H 	H 	0.92361 0.58548 0.95020 0.03500
S 	S 	0.72303 0.80191 0.74154 -0.03000
H 	H 	0.72464 0.80309 0.80361 0.05100
S 	S 	0.76479 0.70865 0.83166 -0.03800
H 	H 	0.69525 0.82834 0.73583 0.03700
H 	H 	0.80880 0.75650 0.82346 0.03600
C 	C 	0.70760 0.91248 0.68204 -0.06800
C 	C 	0.75955 0.94829 0.67157 -0.01000
C 	C 	0.78627 0.92864 0.65392 0.00000
C 	C 	0.76161 0.87338 0.64788 -0.00300
C 	C 	0.70931 0.83756 0.65808 -0.09100
C 	C 	0.68112 0.85808 0.67396 0.05600
C 	C 	0.78483 0.00665 0.67830 0.03900
H 	H 	0.78338 0.85822 0.63545 0.03900
C 	C 	0.76473 0.03826 0.66604 -0.01600
C 	C 	0.79167 0.09393 0.67100 0.00200
C 	C 	0.84053 0.11911 0.68638 -0.10000
C 	C 	0.85903 0.08727 0.69995 0.06400
C 	C 	0.83034 0.03112 0.69644 -0.08000
S 	S 	0.70745 0.00918 0.64337 -0.01500
H 	H 	0.77609 0.11808 0.66159 0.04500
H 	H 	0.84471 0.00669 0.70679 0.06200
C 	C 	0.86478 0.48716 0.67081 -0.07400
C 	C 	0.89104 0.45928 0.67957 0.05600
S 	S 	0.90720 0.46005 0.71647 -0.04100
H 	H 	0.85220 0.50619 0.68693 0.05300
C 	C 	0.77546 0.49980 0.62689 -0.00400
C 	C 	0.75112 0.53154 0.62390 -0.00400
C 	C 	0.78118 0.58755 0.62847 -0.08800
S 	S 	0.73506 0.42905 0.62512 -0.04200
H 	H 	0.70780 0.51213 0.62063 0.03900
H 	H 	0.95768 0.50305 0.72167 0.03900
H 	H 	0.71744 0.40898 0.65238 0.03700
S 	S 	0.56661 0.72169 0.51103 -0.03700
H 	H 	0.58500 0.71038 0.57093 0.04600
S 	S 	0.69672 0.68754 0.49692 -0.03900
H 	H 	0.61619 0.76223 0.50212 0.03700
C 	C 	0.81110 0.77630 0.34335 -0.09300
C 	C 	0.84686 0.76404 0.35797 0.05900
H 	H 	0.80295 0.82384 0.30960 0.03700
S 	S 	0.82341 0.71498 0.38553 -0.04100
H 	H 	0.82475 0.73876 0.41152 0.04000
C 	C 	0.74444 0.19553 0.01778 0.01000
C 	C 	0.76495 0.24585 0.00387 0.00200
C 	C 	0.81946 0.27501 0.99589 -0.01300
C 	C 	0.85361 0.25340 0.00011 -0.07900
C 	C 	0.83242 0.20211 0.01360 0.05200
C 	C 	0.77914 0.17548 0.02386 -0.06900
H 	H 	0.83518 0.31445 0.98608 0.04300
H 	H 	0.76338 0.13683 0.03462 0.05600
C 	C 	0.73892 0.25376 0.63021 -0.00500
C 	C 	0.76387 0.22309 0.62458 -0.08700
H 	H 	0.76344 0.29664 0.63449 0.04500
H 	H 	0.77657 0.11158 0.60740 0.04200
C 	C 	0.04546 0.33624 0.79459 -0.06100
C 	C 	0.02903 0.35800 0.90411 -0.08300
C 	C 	0.02555 0.36311 0.93564 0.30600
H 	H 	0.96748 0.95982 0.36166 0.03400
C 	C 	0.84944 0.14656 0.33875 -0.00800
S 	S 	0.86898 0.16759 0.01475 -0.03200
H 	H 	0.89018 0.29543 0.83578 0.03400
H 	H 	0.95325 0.19300 0.20385 0.03300
C 	C 	0.97751 0.33496 0.59277 0.28100
C 	C 	0.93481 0.40415 0.66679 0.29000
Ni	Ni	0.89266 0.29005 0.68683 1.12000
Ni	Ni	0.92434 0.24180 0.63304 1.11900
O 	O 	0.93673 0.28494 0.59633 -0.37600
O 	O 	0.95004 0.29760 0.71521 -0.38100
O 	O 	0.97879 0.41344 0.65235 -0.37600
O 	O 	0.91732 0.37066 0.68934 -0.37600
O 	O 	0.91815 0.19765 0.66788 -0.40100
O 	O 	0.93931 0.30399 0.65460 -0.71800
H 	H 	0.92374 0.31915 0.64112 0.15000
C 	C 	0.91137 0.28603 0.99124 0.28500
C 	C 	0.95857 0.44665 0.03135 0.28800
O 	O 	0.93679 0.40736 0.01201 -0.39200
O 	O 	0.94807 0.27602 0.00260 -0.37200
O 	O 	0.92543 0.32426 0.97123 -0.37900
S 	S 	0.89267 0.25010 0.14385 -0.03600
H 	H 	0.93531 0.26893 0.08603 0.03700
H 	H 	0.87790 0.28870 0.14606 0.03600
C 	C 	0.98203 0.32188 0.85852 -0.01500
S 	S 	0.92353 0.27452 0.83994 -0.03500
H 	H 	0.94707 0.29194 0.90057 0.04600
S 	S 	0.98496 0.43227 0.81780 -0.05300
H 	H 	0.97806 0.40906 0.75703 0.04900
H 	H 	0.93238 0.40087 0.82653 0.03600
S 	S 	0.89718 0.28842 0.41057 -0.03700
H 	H 	0.90994 0.30822 0.47159 0.05400
H 	H 	0.92825 0.26465 0.40756 0.04400
H 	H 	0.83564 0.34368 0.51033 0.03800
C 	C 	0.87355 0.11657 0.32958 0.01700
C 	C 	0.88116 0.20230 0.34233 -0.00200
C 	C 	0.93661 0.22882 0.33619 -0.08600
C 	C 	0.92904 0.14292 0.32362 -0.07000
H 	H 	0.86246 0.22534 0.34925 0.04300
H 	H 	0.94761 0.11978 0.31666 0.05200
C 	C 	0.93306 0.56048 0.02373 0.00000
C 	C 	0.96018 0.53349 0.03222 -0.01800
C 	C 	0.93132 0.47759 0.03689 -0.08600
S 	S 	0.97055 0.62990 0.01586 -0.04300
H 	H 	0.00393 0.55511 0.03289 0.05600
H 	H 	0.97407 0.65869 0.04028 0.03600
S 	S 	0.84996 0.97286 0.63870 -0.05500
S 	S 	0.91788 0.11707 0.72133 -0.04600
H 	H 	0.95940 0.11910 0.70552 0.03900
H 	H 	0.84296 0.99217 0.61289 0.03300
C 	C 	0.85620 0.49213 0.64132 0.01300
C 	C 	0.87366 0.46842 0.62036 -0.00500
C 	C 	0.89818 0.43895 0.62910 -0.00400
C 	C 	0.90706 0.43407 0.65859 -0.09000
C 	C 	0.83129 0.52461 0.63266 0.01300
C 	C 	0.83800 0.61267 0.63127 0.05400
C 	C 	0.86262 0.58103 0.63316 -0.07200
S 	S 	0.87858 0.68328 0.63381 -0.03800
H 	H 	0.90590 0.60025 0.63650 0.05200
H 	H 	0.89396 0.70493 0.60665 0.03700
C 	C 	0.90181 0.79117 0.35059 -0.07600
C 	C 	0.92164 0.83126 0.32910 0.02200
C 	C 	0.88563 0.84292 0.31422 -0.00800
C 	C 	0.83062 0.81510 0.32125 -0.00000
H 	H 	0.92942 0.78214 0.36207 0.05400
H 	H 	0.89732 0.17945 0.04021 0.04000
C 	C 	0.88958 0.81326 0.65601 -0.00300
C 	C 	0.86589 0.77613 0.67885 -0.09500
C 	C 	0.89962 0.77114 0.69954 0.06000
H 	H 	0.86430 0.81894 0.64058 0.03300
S 	S 	0.87309 0.73548 0.73210 -0.04500
H 	H 	0.86132 0.68319 0.72856 0.04100
C 	C 	0.03815 0.33251 0.76455 0.04700
C 	C 	0.95942 0.27997 0.13090 -0.01600
C 	C 	0.96890 0.28250 0.10099 -0.01200
C 	C 	0.93173 0.34684 0.46066 -0.07500
C 	C 	0.96058 0.19894 0.32652 0.04300
H 	H 	0.81800 0.43410 0.57365 0.03800
C 	C 	0.02766 0.36103 0.84327 0.02800
H 	H 	0.90655 0.36263 0.57318 0.03500
O 	O 	0.95314 0.37848 0.36479 -0.36600
S 	S 	0.97381 0.88815 0.62363 -0.04900
C 	C 	0.98291 0.32070 0.88884 -0.01100
S 	S 	0.94600 0.53526 0.33356 -0.05000
C 	C 	0.96125 0.39414 0.47692 0.01700
S 	S 	0.00482 0.23603 0.20227 -0.03100
H 	H 	0.98694 0.93839 0.63351 0.03400
H 	H 	0.02351 0.24223 0.74650 0.04400
S 	S 	0.87741 0.39202 0.51978 -0.04100
O 	O 	0.01616 0.38105 0.70051 -0.35400
O 	O 	0.01285 0.32141 0.95252 -0.36400
C 	C 	0.01617 0.38608 0.51622 -0.06100
H 	H 	0.04622 0.39168 0.50014 0.05300
H 	H 	0.92377 0.94189 0.29995 0.03400
C 	C 	0.99321 0.34417 0.72084 0.28300
Ni	Ni	0.01068 0.36266 0.65632 1.11600
O 	O 	0.01881 0.35720 0.61130 -0.35900
O 	O 	0.00160 0.25767 0.62815 -0.37300
Ni	Ni	0.97921 0.40449 0.97840 1.11400
O 	O 	0.00793 0.46420 0.04244 -0.37000
O 	O 	0.01555 0.38470 0.00624 -0.70100
H 	H 	0.98625 0.36505 0.02031 0.14700
C 	C 	0.96714 0.28790 0.33655 0.28900
O 	O 	0.95136 0.31337 0.31853 -0.37700
C 	C 	0.02685 0.36441 0.81133 0.00100
C 	C 	0.00461 0.39282 0.79756 0.02200
C 	C 	0.99725 0.38906 0.76746 -0.03700
C 	C 	0.01206 0.35735 0.75097 -0.06000
C 	C 	0.93319 0.34880 0.43034 0.05300
C 	C 	0.97100 0.38995 0.50801 0.00200
C 	C 	0.93268 0.38395 0.52902 -0.00200
C 	C 	0.93774 0.37018 0.55746 -0.00500
C 	C 	0.98083 0.36240 0.56525 -0.09400
C 	C 	0.02113 0.37194 0.54462 0.06200
S 	S 	0.07606 0.36299 0.55347 -0.03100
S 	S 	0.86611 0.47625 0.58312 -0.03700
H 	H 	0.91099 0.42031 0.61291 0.03700
C 	C 	0.98071 0.86451 0.32446 -0.01500
S 	S 	0.90911 0.89316 0.28729 -0.04300
S 	S 	0.98325 0.92483 0.37176 -0.05700
H 	H 	0.98008 0.82097 0.28615 0.04200
H 	H 	0.92466 0.54393 0.30894 0.03800
C 	C 	0.95567 0.79810 0.69511 -0.07200
C 	C 	0.94557 0.84143 0.65222 -0.00400
