data_crystal

_cell_length_a 39.91136
_cell_length_b 35.43721
_cell_length_c 30.80756
_cell_angle_alpha 104.39599
_cell_angle_beta  116.11514
_cell_angle_gamma 110.62349

_symmetry_space_group_name_	'P 1'
_symmetry_space_group_name_H-M	'P 1'

loop_
_symmetry_equiv_pos_as_xyz
  x,y,z

loop_
_atom_site_label
_atom_site_type_symbol
_atom_site_fract_x
_atom_site_fract_y
_atom_site_fract_z
_atom_site_charge
O 	O 	0.00499 0.54868 0.97430 -0.48200
C 	C 	0.00660 0.58107 0.00909 0.34900
O 	O 	0.00112 0.54922 0.43929 -0.77100
C 	C 	0.00384 0.53161 0.73998 0.10300
H 	H 	0.00076 0.16329 0.35993 0.14100
O 	O 	0.00499 0.04868 0.97430 -0.48000
C 	C 	0.00660 0.08107 0.00909 0.35100
O 	O 	0.00112 0.04922 0.43929 -0.76800
C 	C 	0.00384 0.03161 0.73998 0.09800
H 	H 	0.00076 0.66329 0.35993 0.14100
O 	O 	0.01527 0.46212 0.96092 -0.79900
H 	H 	0.01065 0.51159 0.89277 0.15600
C 	C 	0.00677 0.42849 0.40212 0.35200
H 	H 	0.01073 0.50868 0.51780 0.17300
O 	O 	0.01527 0.96212 0.96092 -0.80200
H 	H 	0.01065 0.01159 0.89277 0.15700
C 	C 	0.00677 0.92849 0.40212 0.35200
H 	H 	0.01073 0.00868 0.51780 0.18000
O 	O 	0.01507 0.46813 0.43350 -0.45900
O 	O 	0.01853 0.15796 0.34747 -0.29300
O 	O 	0.01507 0.96813 0.43350 -0.46200
O 	O 	0.01853 0.65796 0.34747 -0.29400
H 	H 	0.02314 0.16643 0.05736 0.03800
H 	H 	0.02314 0.66643 0.05736 0.03700
O 	O 	0.02845 0.59275 0.06149 -0.49100
C 	C 	0.02679 0.48730 0.67935 -0.04800
C 	C 	0.03096 0.53223 0.25609 -0.04800
O 	O 	0.02567 0.39676 0.32617 -0.29900
O 	O 	0.02845 0.09275 0.06149 -0.49000
C 	C 	0.02679 0.98730 0.67935 -0.04400
C 	C 	0.03096 0.03223 0.25609 -0.03600
O 	O 	0.02567 0.89676 0.32617 -0.30000
Zn	Zn	0.03288 0.46463 0.03546 1.19200
O 	O 	0.03310 0.59762 0.38100 -0.44700
C 	C 	0.03522 0.52061 0.76530 -0.11900
C 	C 	0.03475 0.50383 0.17924 -0.11400
Zn	Zn	0.03288 0.96463 0.03546 1.19000
O 	O 	0.03310 0.09762 0.38100 -0.44600
C 	C 	0.03522 0.02061 0.76530 -0.10700
C 	C 	0.03475 0.00383 0.17924 -0.10400
H 	H 	0.03683 0.47131 0.65678 0.04900
H 	H 	0.03683 0.97131 0.65678 0.04600
O 	O 	0.04136 0.51967 0.91671 -0.88200
H 	H 	0.04048 0.42647 0.32739 0.15800
O 	O 	0.04136 0.01967 0.91671 -0.88000
H 	H 	0.04048 0.92646 0.32739 0.15600
C 	C 	0.04255 0.41936 0.41746 -0.18500
C 	C 	0.04255 0.91936 0.41746 -0.18600
C 	C 	0.04627 0.49803 0.73460 0.03000
H 	H 	0.04656 0.55810 0.29755 0.05800
C 	C 	0.04627 0.99803 0.73460 0.01800
H 	H 	0.04656 0.05810 0.29755 0.05600
Zn	Zn	0.04903 0.55646 0.08418 1.20400
Zn	Zn	0.04903 0.05646 0.08418 1.20400
C 	C 	0.32454 0.13705 0.95591 0.08200
C 	C 	0.33125 0.17526 0.94715 -0.08500
C 	C 	0.36419 0.19533 0.93988 0.02500
C 	C 	0.38893 0.17573 0.93864 -0.08700
C 	C 	0.38304 0.13819 0.94855 0.08000
C 	C 	0.35037 0.11846 0.95642 -0.09700
H 	H 	0.31223 0.19054 0.94843 0.06000
H 	H 	0.41491 0.19170 0.93393 0.05800
H 	H 	0.34653 0.09018 0.96556 0.06800
C 	C 	0.21815 0.09533 0.36773 0.06000
C 	C 	0.23196 0.13656 0.36534 -0.07700
C 	C 	0.26910 0.15587 0.36510 0.00700
C 	C 	0.29094 0.13252 0.36404 -0.05600
C 	C 	0.27730 0.09130 0.36647 0.00800
C 	C 	0.23975 0.07185 0.36600 -0.06800
H 	H 	0.21558 0.15504 0.36729 0.05100
H 	H 	0.32071 0.14836 0.36611 0.04700
H 	H 	0.22982 0.04060 0.36933 0.06200
C 	C 	0.30251 0.42082 0.03839 0.02100
C 	C 	0.27873 0.44254 0.03491 -0.06900
C 	C 	0.24004 0.42234 0.03200 0.05500
C 	C 	0.22578 0.38090 0.03388 -0.05900
C 	C 	0.24973 0.35935 0.03814 0.00700
C 	C 	0.28847 0.37974 0.04123 -0.03900
H 	H 	0.28911 0.47387 0.03183 0.05600
H 	H 	0.19510 0.36445 0.02968 0.06100
H 	H 	0.30677 0.36287 0.04385 0.09200
C 	C 	0.20130 0.38228 0.46241 0.06200
C 	C 	0.17870 0.40474 0.46442 -0.07300
C 	C 	0.13862 0.38195 0.45770 0.00900
C 	C 	0.12273 0.33803 0.45302 -0.05500
C 	C 	0.14468 0.31512 0.45039 0.00900
C 	C 	0.18364 0.33701 0.45433 -0.06700
H 	H 	0.19139 0.43913 0.46909 0.05600
H 	H 	0.09212 0.32079 0.44879 0.04800
H 	H 	0.19959 0.31857 0.44992 0.06200
Zn	Zn	0.15821 0.60981 0.05222 1.18500
Zn	Zn	0.08473 0.58173 0.93853 1.19300
O 	O 	0.06685 0.50338 0.83900 -0.47500
O 	O 	0.05814 0.56459 0.85762 -0.42700
O 	O 	0.07661 0.44758 0.91582 -0.49000
C 	C 	0.19449 0.58255 0.99914 0.27900
C 	C 	0.16528 0.67837 0.01332 0.36400
O 	O 	0.20344 0.60307 0.04805 -0.44800
O 	O 	0.15360 0.55945 0.95535 -0.36400
O 	O 	0.09945 0.58693 0.01335 -0.77200
O 	O 	0.11229 0.50469 0.00261 -0.43800
O 	O 	0.13256 0.64412 0.96275 -0.45400
O 	O 	0.17762 0.67157 0.05653 -0.47000
Zn	Zn	0.96093 0.45153 0.93732 1.17500
Zn	Zn	0.05755 0.52439 0.98736 1.21100
C 	C 	0.94784 0.37479 0.96517 0.34400
C 	C 	0.94157 0.48556 0.00973 0.37600
O 	O 	0.99000 0.39957 0.00689 -0.44500
O 	O 	0.93068 0.38924 0.93057 -0.46200
O 	O 	0.93105 0.47560 0.95985 -0.49600
O 	O 	0.98025 0.49460 0.04785 -0.47200
C 	C 	0.05507 0.51301 0.15016 0.32100
O 	O 	0.05104 0.47852 0.11471 -0.42500
O 	O 	0.06997 0.55345 0.15239 -0.46700
O 	O 	0.07223 0.52819 0.05749 -0.88600
Zn	Zn	0.05223 0.47829 0.88295 1.18700
C 	C 	0.05414 0.52989 0.82285 0.31900
C 	C 	0.10900 0.47027 0.96842 0.29600
H 	H 	0.10365 0.54021 0.08495 0.16400
Zn	Zn	0.06023 0.57381 0.47731 1.18600
Zn	Zn	0.98501 0.53791 0.36211 1.19500
O 	O 	0.96788 0.44866 0.26972 -0.41500
O 	O 	0.96334 0.51274 0.28193 -0.42100
O 	O 	0.96983 0.40158 0.35261 -0.48300
C 	C 	0.09332 0.54381 0.42101 0.28900
O 	O 	0.94141 0.47823 0.34524 -0.87000
C 	C 	0.06272 0.63533 0.42939 0.34600
O 	O 	0.10474 0.56753 0.47061 -0.45700
O 	O 	0.05139 0.51546 0.38041 -0.36300
O 	O 	0.07604 0.63312 0.47561 -0.46500
Zn	Zn	0.86687 0.41622 0.37648 1.17600
Zn	Zn	0.94104 0.43451 0.47551 1.18600
Zn	Zn	0.96067 0.48792 0.41872 1.21500
C 	C 	0.85828 0.34212 0.40808 0.35700
C 	C 	0.84923 0.45229 0.45028 0.29400
O 	O 	0.90731 0.51159 0.40558 -0.47200
Zn	Zn	0.95629 0.52436 0.51800 1.20800
O 	O 	0.89920 0.37052 0.45293 -0.44900
O 	O 	0.83908 0.35506 0.37279 -0.47300
O 	O 	0.83777 0.44072 0.39981 -0.47500
O 	O 	0.88901 0.46387 0.48928 -0.42000
C 	C 	0.98091 0.49349 0.59833 0.30600
O 	O 	0.92058 0.42687 0.39818 -0.80300
C 	C 	0.90792 0.54285 0.44055 0.34800
O 	O 	0.96662 0.45398 0.55829 -0.41300
O 	O 	0.98428 0.52910 0.59047 -0.40800
O 	O 	0.93525 0.55944 0.49356 -0.47000
O 	O 	0.97897 0.49593 0.49121 -0.90200
Zn	Zn	0.94751 0.43043 0.31349 1.19500
C 	C 	0.97113 0.48322 0.25941 0.31700
H 	H 	0.91090 0.47110 0.32281 0.15500
C 	C 	0.99574 0.49867 0.65379 0.02500
C 	C 	0.98238 0.51901 0.68368 -0.14000
H 	H 	0.99543 0.54913 0.76382 0.05100
H 	H 	0.07048 0.48936 0.75376 0.03500
C 	C 	0.94647 0.52875 0.65662 0.79100
F 	F 	0.92792 0.53221 0.68513 -0.46500
F 	F 	0.96415 0.56975 0.65604 -0.45900
F 	F 	0.91306 0.49379 0.60329 -0.47200
C 	C 	0.05320 0.53807 0.23151 0.02700
C 	C 	0.98959 0.49238 0.22846 0.02000
C 	C 	0.96933 0.45893 0.17409 -0.13500
C 	C 	0.99316 0.46402 0.15101 0.08700
H 	H 	0.97862 0.43801 0.11014 0.05400
H 	H 	0.08504 0.56918 0.25333 0.03000
C 	C 	0.92293 0.41748 0.14108 0.78500
F 	F 	0.89619 0.42993 0.14940 -0.48200
F 	F 	0.90431 0.39829 0.08516 -0.47700
F 	F 	0.92402 0.38460 0.15719 -0.47100
C 	C 	0.12566 0.26740 0.44120 0.06500
C 	C 	0.14924 0.25687 0.48061 -0.09900
C 	C 	0.12905 0.21333 0.47576 0.06200
C 	C 	0.08483 0.17995 0.43172 -0.17200
C 	C 	0.06158 0.19008 0.39112 0.22200
C 	C 	0.08230 0.23339 0.39555 -0.15300
H 	H 	0.14763 0.20574 0.50663 0.02100
H 	H 	0.06415 0.24106 0.36443 0.08200
H 	H 	0.18283 0.28278 0.51577 0.06100
C 	C 	0.31424 0.44007 0.45922 -0.03300
C 	C 	0.27723 0.44178 0.42708 -0.02500
C 	C 	0.24077 0.42345 0.42865 -0.01200
C 	C 	0.24141 0.40469 0.46398 -0.06700
C 	C 	0.27976 0.40581 0.49908 0.16600
C 	C 	0.31531 0.42196 0.49519 -0.06900
H 	H 	0.21165 0.42298 0.40153 0.03600
H 	H 	0.34295 0.41894 0.51878 0.11100
H 	H 	0.27619 0.45613 0.39960 0.04400
O 	O 	0.28210 0.39006 0.53612 -0.29000
H 	H 	0.29463 0.41727 0.57038 0.17000
C 	C 	0.10982 0.40051 0.44646 0.06600
C 	C 	0.10238 0.41717 0.48550 -0.10200
C 	C 	0.06913 0.42694 0.47121 0.06400
C 	C 	0.05113 0.40421 0.37886 0.23000
C 	C 	0.08478 0.39509 0.39360 -0.15400
H 	H 	0.06331 0.43927 0.50148 0.00400
H 	H 	0.09031 0.38210 0.36323 0.08500
H 	H 	0.12153 0.42134 0.52640 0.05700
C 	C 	0.23225 0.31364 0.03500 0.08700
C 	C 	0.22259 0.30728 0.07220 -0.10200
C 	C 	0.20119 0.26318 0.06535 0.06100
C 	C 	0.18945 0.22492 0.02143 -0.16200
C 	C 	0.20114 0.23147 0.98568 0.21600
C 	C 	0.22193 0.27566 0.99213 -0.16600
H 	H 	0.19296 0.25865 0.09359 0.01500
H 	H 	0.22940 0.28027 0.96331 0.08500
H 	H 	0.23082 0.33643 0.10574 0.05600
O 	O 	0.19190 0.19477 0.94416 -0.28600
H 	H 	0.21805 0.19208 0.96064 0.14900
C 	C 	0.33850 0.43768 0.03169 0.10600
C 	C 	0.33339 0.41092 0.98459 -0.10100
C 	C 	0.36682 0.42695 0.97727 0.06800
C 	C 	0.40583 0.47004 0.01693 -0.15800
C 	C 	0.41129 0.49685 0.06461 0.24000
C 	C 	0.37746 0.48076 0.07161 -0.13400
H 	H 	0.36263 0.40555 0.94104 0.02300
H 	H 	0.38161 0.50161 0.10810 0.09800
H 	H 	0.30340 0.37767 0.95355 0.06200
O 	O 	0.44878 0.53947 0.10318 -0.30500
H 	H 	0.46889 0.53430 0.13085 0.16500
C 	C 	0.14557 0.46233 0.98735 -0.08600
C 	C 	0.15860 0.45138 0.95289 0.00300
C 	C 	0.19123 0.44083 0.96894 -0.05000
C 	C 	0.21136 0.44122 0.01972 -0.03600
C 	C 	0.20033 0.45501 0.05589 0.13500
C 	C 	0.16734 0.46531 0.03949 -0.04700
H 	H 	0.19987 0.43085 0.94111 0.04100
H 	H 	0.15807 0.47459 0.06679 0.04300
H 	H 	0.14306 0.45053 0.91333 0.03200
O 	O 	0.22055 0.45673 0.10630 -0.28700
H 	H 	0.24669 0.48846 0.13201 0.14100
C 	C 	0.30773 0.07496 0.38292 0.06600
C 	C 	0.32024 0.06058 0.34908 -0.10100
C 	C 	0.35244 0.04938 0.36753 0.05900
C 	C 	0.37255 0.05273 0.42013 -0.17500
C 	C 	0.35890 0.06603 0.45340 0.22600
C 	C 	0.32694 0.07728 0.43477 -0.15400
H 	H 	0.36235 0.03904 0.34143 0.00900
H 	H 	0.31767 0.08879 0.46125 0.08600
H 	H 	0.30554 0.05876 0.30892 0.05400
O 	O 	0.37793 0.06971 0.50498 -0.27800
H 	H 	0.35818 0.04001 0.50001 0.16600
C 	C 	0.28908 0.20344 0.37462 0.06300
C 	C 	0.29207 0.21265 0.33436 -0.10300
C 	C 	0.31422 0.25803 0.34518 0.06100
C 	C 	0.33381 0.29460 0.39651 -0.17800
C 	C 	0.32974 0.28542 0.43640 0.22600
C 	C 	0.30769 0.23992 0.42550 -0.15300
H 	H 	0.31684 0.26480 0.31404 0.00900
H 	H 	0.30552 0.23297 0.45680 0.08200
H 	H 	0.27774 0.18466 0.29498 0.04500
O 	O 	0.34780 0.32083 0.48625 -0.28900
H 	H 	0.32436 0.32721 0.48080 0.15400
C 	C 	0.12646 0.05512 0.40898 -0.04900
C 	C 	0.16746 0.09671 0.44600 -0.01800
C 	C 	0.19715 0.10962 0.43231 -0.01700
C 	C 	0.18641 0.08111 0.38157 -0.06600
C 	C 	0.14587 0.03888 0.34487 0.15100
C 	C 	0.11595 0.02614 0.35847 -0.06800
H 	H 	0.22858 0.14191 0.46114 0.03700
H 	H 	0.08439 0.99411 0.32939 0.06400
H 	H 	0.17599 0.11956 0.48493 0.04400
O 	O 	0.13606 0.00942 0.29659 -0.28200
H 	H 	0.12234 0.01888 0.26932 0.15100
C 	C 	0.47717 0.09776 0.98800 -0.10100
C 	C 	0.48989 0.14249 0.02037 0.01300
C 	C 	0.45933 0.15585 0.00658 -0.00600
C 	C 	0.41576 0.12480 0.95994 -0.08000
C 	C 	0.40349 0.08081 0.92543 0.15200
C 	C 	0.43423 0.06741 0.93951 -0.05700
H 	H 	0.46919 0.19001 0.03297 0.04100
H 	H 	0.42422 0.03297 0.91381 0.05400
H 	H 	0.52314 0.16643 0.05736 0.03400
O 	O 	0.36114 0.05036 0.87917 -0.28500
H 	H 	0.36110 0.05591 0.84914 0.15100
C 	C 	0.37753 0.24060 0.94231 0.06200
C 	C 	0.39815 0.27955 0.99203 -0.10200
C 	C 	0.41948 0.32347 0.99856 0.05300
C 	C 	0.42007 0.32888 0.95529 -0.16500
C 	C 	0.39671 0.28987 0.90404 0.22300
C 	C 	0.37571 0.24586 0.89783 -0.15000
H 	H 	0.43673 0.35331 0.03783 0.06800
H 	H 	0.35958 0.21587 0.85919 0.08200
H 	H 	0.39949 0.27578 0.02650 0.08800
O 	O 	0.39699 0.29459 0.86132 -0.30600
H 	H 	0.37041 0.29557 0.83979 0.14900
C 	C 	0.23051 0.09251 0.99246 -0.05700
C 	C 	0.27143 0.13398 0.03124 -0.00800
C 	C 	0.30280 0.14746 0.02018 0.00200
C 	C 	0.29371 0.11968 0.97032 -0.08600
C 	C 	0.25399 0.07668 0.93301 0.16000
C 	C 	0.22253 0.06321 0.94417 -0.07700
H 	H 	0.33368 0.18024 0.04958 0.04100
H 	H 	0.19146 0.03064 0.91453 0.06900
H 	H 	0.27822 0.15675 0.06888 0.04400
O 	O 	0.24485 0.04896 0.88431 -0.28300
H 	H 	0.25568 0.02855 0.89223 0.14800
C 	C 	0.32454 0.63705 0.95591 0.08100
C 	C 	0.33125 0.67526 0.94715 -0.08500
C 	C 	0.36419 0.69533 0.93988 0.02500
C 	C 	0.38893 0.67573 0.93864 -0.08700
C 	C 	0.38304 0.63819 0.94855 0.07900
C 	C 	0.35037 0.61845 0.95642 -0.09700
H 	H 	0.31223 0.69054 0.94843 0.06000
H 	H 	0.41491 0.69170 0.93393 0.05800
H 	H 	0.34653 0.59018 0.96556 0.06700
C 	C 	0.21815 0.59533 0.36773 0.06100
C 	C 	0.23196 0.63655 0.36534 -0.07700
C 	C 	0.26910 0.65587 0.36510 0.00700
C 	C 	0.29094 0.63252 0.36404 -0.05600
C 	C 	0.27730 0.59130 0.36647 0.00700
C 	C 	0.23975 0.57185 0.36600 -0.06900
H 	H 	0.21558 0.65504 0.36729 0.05100
H 	H 	0.32071 0.64836 0.36611 0.04700
H 	H 	0.22982 0.54060 0.36933 0.06000
C 	C 	0.30251 0.92082 0.03839 0.01900
C 	C 	0.27873 0.94254 0.03491 -0.06900
C 	C 	0.24004 0.92234 0.03200 0.05400
C 	C 	0.22578 0.88090 0.03388 -0.06000
C 	C 	0.24973 0.85935 0.03814 0.00700
C 	C 	0.28847 0.87974 0.04123 -0.03900
H 	H 	0.28911 0.97387 0.03183 0.05400
H 	H 	0.19510 0.86445 0.02968 0.06100
H 	H 	0.30677 0.86287 0.04385 0.09200
C 	C 	0.20130 0.88228 0.46241 0.06100
C 	C 	0.17870 0.90474 0.46442 -0.07300
C 	C 	0.13862 0.88195 0.45770 0.00900
C 	C 	0.12273 0.83803 0.45302 -0.05500
C 	C 	0.14468 0.81512 0.45039 0.00900
C 	C 	0.18364 0.83701 0.45433 -0.06700
H 	H 	0.19139 0.93913 0.46909 0.05400
H 	H 	0.09212 0.82079 0.44879 0.04800
H 	H 	0.19959 0.81857 0.44992 0.06200
Zn	Zn	0.15821 0.10981 0.05222 1.18600
Zn	Zn	0.08473 0.08173 0.93853 1.19300
O 	O 	0.06685 0.00338 0.83900 -0.47000
O 	O 	0.05814 0.06459 0.85762 -0.42500
O 	O 	0.07661 0.94758 0.91582 -0.49000
C 	C 	0.19449 0.08255 0.99914 0.27900
C 	C 	0.16528 0.17837 0.01332 0.36400
O 	O 	0.20344 0.10307 0.04805 -0.44700
O 	O 	0.15360 0.05945 0.95535 -0.36300
O 	O 	0.09945 0.08693 0.01335 -0.77200
O 	O 	0.11229 0.00469 0.00261 -0.43100
O 	O 	0.13256 0.14412 0.96275 -0.45400
O 	O 	0.17761 0.17157 0.05653 -0.47000
Zn	Zn	0.96093 0.95153 0.93732 1.17500
Zn	Zn	0.05755 0.02439 0.98736 1.21200
C 	C 	0.94784 0.87479 0.96517 0.34400
C 	C 	0.94157 0.98556 0.00973 0.37400
O 	O 	0.99000 0.89957 0.00689 -0.44600
O 	O 	0.93068 0.88924 0.93057 -0.46200
O 	O 	0.93105 0.97560 0.95985 -0.49700
O 	O 	0.98025 0.99460 0.04785 -0.47400
C 	C 	0.05507 0.01301 0.15016 0.32600
O 	O 	0.05104 0.97852 0.11471 -0.43200
O 	O 	0.06997 0.05345 0.15239 -0.46700
O 	O 	0.07223 0.02819 0.05749 -0.88300
Zn	Zn	0.05223 0.97829 0.88295 1.18500
C 	C 	0.05414 0.02989 0.82285 0.31600
C 	C 	0.10900 0.97027 0.96842 0.28800
H 	H 	0.10365 0.04021 0.08495 0.16400
Zn	Zn	0.06023 0.07381 0.47731 1.18600
Zn	Zn	0.98501 0.03791 0.36211 1.19600
O 	O 	0.96788 0.94866 0.26972 -0.41500
O 	O 	0.96334 0.01274 0.28193 -0.41500
O 	O 	0.96983 0.90158 0.35261 -0.48300
C 	C 	0.09332 0.04381 0.42101 0.29100
O 	O 	0.94141 0.97823 0.34524 -0.87300
C 	C 	0.06272 0.13534 0.42939 0.34600
O 	O 	0.10474 0.06753 0.47061 -0.45600
O 	O 	0.05139 0.01546 0.38041 -0.35900
O 	O 	0.07604 0.13312 0.47561 -0.46400
Zn	Zn	0.86687 0.91622 0.37648 1.17600
Zn	Zn	0.94104 0.93451 0.47551 1.18600
Zn	Zn	0.96067 0.98792 0.41872 1.21300
C 	C 	0.85828 0.84212 0.40808 0.35700
C 	C 	0.84923 0.95229 0.45028 0.29300
O 	O 	0.90731 0.01159 0.40558 -0.46800
Zn	Zn	0.95629 0.02436 0.51800 1.21000
O 	O 	0.89920 0.87052 0.45293 -0.44900
O 	O 	0.83908 0.85506 0.37279 -0.47300
O 	O 	0.83777 0.94072 0.39981 -0.47700
O 	O 	0.88901 0.96387 0.48928 -0.42200
C 	C 	0.98091 0.99349 0.59833 0.30100
O 	O 	0.92058 0.92687 0.39818 -0.80400
C 	C 	0.90792 0.04284 0.44055 0.34800
O 	O 	0.96662 0.95398 0.55829 -0.41300
O 	O 	0.98428 0.02910 0.59047 -0.40200
O 	O 	0.93525 0.05944 0.49356 -0.46900
O 	O 	0.97897 0.99593 0.49121 -0.91000
Zn	Zn	0.94751 0.93043 0.31349 1.19400
C 	C 	0.97113 0.98322 0.25941 0.31200
H 	H 	0.91090 0.97110 0.32281 0.15300
C 	C 	0.99574 0.99867 0.65379 0.01700
C 	C 	0.98238 0.01901 0.68368 -0.13100
H 	H 	0.99543 0.04913 0.76382 0.05200
H 	H 	0.07048 0.98935 0.75376 0.03600
C 	C 	0.94647 0.02875 0.65662 0.79400
F 	F 	0.92792 0.03221 0.68513 -0.46400
F 	F 	0.96415 0.06975 0.65604 -0.45800
F 	F 	0.91306 0.99379 0.60329 -0.47600
C 	C 	0.05320 0.03807 0.23151 0.02100
C 	C 	0.98959 0.99238 0.22846 0.01000
C 	C 	0.96933 0.95893 0.17409 -0.13000
C 	C 	0.99316 0.96401 0.15101 0.07600
H 	H 	0.97862 0.93801 0.11014 0.05600
H 	H 	0.08504 0.06918 0.25333 0.03100
C 	C 	0.92293 0.91748 0.14108 0.78300
F 	F 	0.89619 0.92993 0.14940 -0.48300
F 	F 	0.90431 0.89829 0.08516 -0.47700
F 	F 	0.92402 0.88460 0.15719 -0.47100
C 	C 	0.12566 0.76740 0.44120 0.06500
C 	C 	0.14924 0.75687 0.48061 -0.10000
C 	C 	0.12905 0.71333 0.47576 0.06200
C 	C 	0.08483 0.67995 0.43172 -0.17300
C 	C 	0.06158 0.69008 0.39112 0.22200
C 	C 	0.08230 0.73339 0.39555 -0.15300
H 	H 	0.14763 0.70574 0.50663 0.02100
H 	H 	0.06415 0.74106 0.36443 0.08200
H 	H 	0.18283 0.78278 0.51577 0.06000
C 	C 	0.31424 0.94007 0.45922 -0.03400
C 	C 	0.27723 0.94178 0.42708 -0.02600
C 	C 	0.24077 0.92345 0.42865 -0.01300
C 	C 	0.24141 0.90469 0.46398 -0.06700
C 	C 	0.27976 0.90581 0.49908 0.16600
C 	C 	0.31531 0.92196 0.49519 -0.06900
H 	H 	0.21165 0.92299 0.40153 0.03500
H 	H 	0.34295 0.91894 0.51878 0.11000
H 	H 	0.27619 0.95613 0.39960 0.04200
O 	O 	0.28210 0.89006 0.53612 -0.29000
H 	H 	0.29463 0.91727 0.57038 0.16900
C 	C 	0.10982 0.90051 0.44646 0.06600
C 	C 	0.10238 0.91717 0.48550 -0.10300
C 	C 	0.06913 0.92694 0.47121 0.06300
C 	C 	0.05113 0.90421 0.37886 0.22900
C 	C 	0.08478 0.89509 0.39360 -0.15500
H 	H 	0.06331 0.93927 0.50148 0.00300
H 	H 	0.09031 0.88209 0.36323 0.08500
H 	H 	0.12153 0.92134 0.52640 0.05600
C 	C 	0.23225 0.81364 0.03500 0.08700
C 	C 	0.22259 0.80728 0.07220 -0.10200
C 	C 	0.20119 0.76318 0.06535 0.06100
C 	C 	0.18945 0.72492 0.02143 -0.16200
C 	C 	0.20114 0.73147 0.98568 0.21600
C 	C 	0.22193 0.77566 0.99213 -0.16600
H 	H 	0.19296 0.75865 0.09359 0.01400
H 	H 	0.22940 0.78027 0.96331 0.08500
H 	H 	0.23082 0.83643 0.10574 0.05500
O 	O 	0.19190 0.69477 0.94416 -0.28600
H 	H 	0.21805 0.69208 0.96064 0.14900
C 	C 	0.33850 0.93768 0.03169 0.10800
C 	C 	0.33339 0.91092 0.98459 -0.10200
C 	C 	0.36682 0.92695 0.97727 0.06900
C 	C 	0.40583 0.97004 0.01693 -0.15900
C 	C 	0.41130 0.99685 0.06461 0.23500
C 	C 	0.37746 0.98076 0.07161 -0.14300
H 	H 	0.36263 0.90555 0.94104 0.02200
H 	H 	0.38161 0.00161 0.10810 0.10600
H 	H 	0.30340 0.87767 0.95355 0.06200
O 	O 	0.44878 0.03947 0.10318 -0.30000
H 	H 	0.46889 0.03430 0.13085 0.16600
C 	C 	0.14557 0.96234 0.98735 -0.08300
C 	C 	0.15860 0.95138 0.95289 0.00000
C 	C 	0.19123 0.94083 0.96894 -0.04900
C 	C 	0.21136 0.94122 0.01972 -0.03800
C 	C 	0.20033 0.95501 0.05589 0.13600
C 	C 	0.16733 0.96531 0.03949 -0.05000
H 	H 	0.19987 0.93085 0.94111 0.04000
H 	H 	0.15807 0.97459 0.06679 0.04200
H 	H 	0.14307 0.95053 0.91333 0.03100
O 	O 	0.22055 0.95673 0.10630 -0.28800
H 	H 	0.24669 0.98846 0.13201 0.14000
C 	C 	0.30773 0.57496 0.38292 0.06600
C 	C 	0.32024 0.56058 0.34908 -0.10100
C 	C 	0.35244 0.54938 0.36753 0.05800
C 	C 	0.37255 0.55273 0.42013 -0.17600
C 	C 	0.35890 0.56603 0.45340 0.22500
C 	C 	0.32694 0.57728 0.43477 -0.15400
H 	H 	0.36235 0.53904 0.34143 0.00700
H 	H 	0.31767 0.58879 0.46125 0.08500
H 	H 	0.30554 0.55876 0.30892 0.05300
O 	O 	0.37793 0.56971 0.50498 -0.27800
H 	H 	0.35818 0.54001 0.50001 0.16300
C 	C 	0.28908 0.70344 0.37462 0.06300
C 	C 	0.29207 0.71265 0.33436 -0.10300
C 	C 	0.31422 0.75803 0.34518 0.06100
C 	C 	0.33381 0.79460 0.39651 -0.17800
C 	C 	0.32974 0.78542 0.43640 0.22600
C 	C 	0.30769 0.73992 0.42550 -0.15300
H 	H 	0.31684 0.76480 0.31404 0.00800
H 	H 	0.30552 0.73297 0.45680 0.08200
H 	H 	0.27774 0.68466 0.29498 0.04500
O 	O 	0.34780 0.82083 0.48625 -0.29000
H 	H 	0.32436 0.82721 0.48080 0.15400
C 	C 	0.12646 0.55512 0.40898 -0.04600
C 	C 	0.16746 0.59671 0.44600 -0.02100
C 	C 	0.19715 0.60962 0.43231 -0.01600
C 	C 	0.18641 0.58111 0.38157 -0.06800
C 	C 	0.14587 0.53888 0.34487 0.15500
C 	C 	0.11595 0.52614 0.35847 -0.08000
H 	H 	0.22858 0.64191 0.46114 0.03600
H 	H 	0.08439 0.49411 0.32939 0.07300
H 	H 	0.17599 0.61956 0.48493 0.04400
O 	O 	0.13606 0.50942 0.29659 -0.28600
H 	H 	0.12234 0.51888 0.26932 0.15000
C 	C 	0.47717 0.59776 0.98800 -0.10200
C 	C 	0.48989 0.64249 0.02037 0.01300
C 	C 	0.45933 0.65585 0.00658 -0.00600
C 	C 	0.41576 0.62480 0.95994 -0.08000
C 	C 	0.40349 0.58081 0.92543 0.15100
C 	C 	0.43423 0.56741 0.93951 -0.05700
H 	H 	0.46920 0.69001 0.03297 0.04100
H 	H 	0.42422 0.53297 0.91381 0.05200
H 	H 	0.52314 0.66643 0.05736 0.03400
O 	O 	0.36114 0.55036 0.87917 -0.28600
H 	H 	0.36110 0.55591 0.84914 0.15000
C 	C 	0.37753 0.74060 0.94231 0.06200
C 	C 	0.39815 0.77955 0.99203 -0.10100
C 	C 	0.41948 0.82347 0.99856 0.05400
C 	C 	0.42007 0.82888 0.95529 -0.16500
C 	C 	0.39671 0.78987 0.90404 0.22300
C 	C 	0.37571 0.74586 0.89783 -0.15100
H 	H 	0.43673 0.85331 0.03783 0.06700
H 	H 	0.35958 0.71587 0.85919 0.08100
H 	H 	0.39949 0.77578 0.02650 0.08700
O 	O 	0.39699 0.79460 0.86132 -0.30600
H 	H 	0.37041 0.79557 0.83979 0.14900
C 	C 	0.23051 0.59251 0.99246 -0.05800
C 	C 	0.27143 0.63398 0.03124 -0.00800
C 	C 	0.30280 0.64746 0.02018 0.00200
C 	C 	0.29371 0.61968 0.97032 -0.08600
C 	C 	0.25399 0.57668 0.93301 0.15900
C 	C 	0.22253 0.56321 0.94417 -0.07700
H 	H 	0.33368 0.68024 0.04958 0.04100
H 	H 	0.19146 0.53064 0.91453 0.06700
H 	H 	0.27822 0.65675 0.06888 0.04400
O 	O 	0.24485 0.54896 0.88431 -0.28400
H 	H 	0.25568 0.52855 0.89223 0.14700
C 	C 	0.82454 0.13705 0.95591 0.08200
C 	C 	0.83125 0.17526 0.94715 -0.08500
C 	C 	0.86418 0.19533 0.93988 0.02500
C 	C 	0.88893 0.17573 0.93864 -0.08700
C 	C 	0.88304 0.13819 0.94855 0.08000
C 	C 	0.85037 0.11846 0.95642 -0.09700
H 	H 	0.81223 0.19054 0.94843 0.06000
H 	H 	0.91492 0.19170 0.93393 0.05700
H 	H 	0.84653 0.09018 0.96556 0.06800
C 	C 	0.71815 0.09533 0.36773 0.06000
C 	C 	0.73196 0.13656 0.36534 -0.07700
C 	C 	0.76910 0.15587 0.36510 0.00700
C 	C 	0.79094 0.13252 0.36404 -0.05600
C 	C 	0.77730 0.09130 0.36647 0.00700
C 	C 	0.73975 0.07185 0.36600 -0.06800
H 	H 	0.71558 0.15504 0.36729 0.05100
H 	H 	0.82071 0.14836 0.36611 0.04600
H 	H 	0.72982 0.04060 0.36933 0.06200
C 	C 	0.80251 0.42082 0.03839 0.02000
C 	C 	0.77873 0.44254 0.03491 -0.06800
C 	C 	0.74004 0.42234 0.03200 0.05400
C 	C 	0.72578 0.38090 0.03388 -0.05900
C 	C 	0.74973 0.35935 0.03814 0.00700
C 	C 	0.78847 0.37974 0.04123 -0.03900
H 	H 	0.78911 0.47387 0.03183 0.05500
H 	H 	0.69510 0.36445 0.02968 0.06100
H 	H 	0.80677 0.36287 0.04385 0.09200
C 	C 	0.70130 0.38228 0.46241 0.06200
C 	C 	0.67870 0.40474 0.46442 -0.07300
C 	C 	0.63862 0.38195 0.45770 0.00900
C 	C 	0.62273 0.33803 0.45302 -0.05500
C 	C 	0.64468 0.31512 0.45039 0.00900
C 	C 	0.68364 0.33701 0.45433 -0.06800
H 	H 	0.69139 0.43913 0.46909 0.05600
H 	H 	0.59212 0.32079 0.44879 0.04800
H 	H 	0.69959 0.31857 0.44992 0.06200
Zn	Zn	0.65821 0.60981 0.05222 1.18500
Zn	Zn	0.58473 0.58173 0.93853 1.19300
O 	O 	0.56685 0.50338 0.83900 -0.47500
O 	O 	0.55814 0.56459 0.85762 -0.42700
O 	O 	0.57661 0.44758 0.91582 -0.49100
C 	C 	0.69449 0.58255 0.99914 0.27800
O 	O 	0.54136 0.51967 0.91671 -0.88300
C 	C 	0.66527 0.67837 0.01332 0.36500
O 	O 	0.70344 0.60307 0.04805 -0.44800
O 	O 	0.65360 0.55945 0.95535 -0.36400
O 	O 	0.59945 0.58693 0.01335 -0.77100
O 	O 	0.61229 0.50469 0.00261 -0.43800
O 	O 	0.63256 0.64412 0.96275 -0.45500
O 	O 	0.67762 0.67157 0.05653 -0.47000
Zn	Zn	0.46093 0.45153 0.93732 1.17700
Zn	Zn	0.53288 0.46463 0.03546 1.19100
Zn	Zn	0.55755 0.52439 0.98736 1.21100
C 	C 	0.44784 0.37479 0.96517 0.34400
C 	C 	0.44157 0.48556 0.00973 0.37500
O 	O 	0.50499 0.54868 0.97430 -0.48300
Zn	Zn	0.54903 0.55646 0.08418 1.20300
O 	O 	0.49000 0.39957 0.00689 -0.44300
O 	O 	0.43068 0.38924 0.93057 -0.46100
O 	O 	0.43105 0.47560 0.95985 -0.49400
O 	O 	0.48025 0.49460 0.04785 -0.47000
C 	C 	0.55507 0.51301 0.15016 0.32200
O 	O 	0.51527 0.46212 0.96092 -0.80100
C 	C 	0.50660 0.58107 0.00909 0.34800
O 	O 	0.55104 0.47852 0.11471 -0.42600
O 	O 	0.56997 0.55345 0.15239 -0.46900
O 	O 	0.52845 0.59275 0.06149 -0.49200
O 	O 	0.57223 0.52819 0.05749 -0.88600
Zn	Zn	0.55223 0.47829 0.88295 1.18700
C 	C 	0.55414 0.52989 0.82285 0.31800
C 	C 	0.60900 0.47027 0.96842 0.29600
H 	H 	0.60365 0.54021 0.08495 0.16400
H 	H 	0.51065 0.51159 0.89277 0.15500
Zn	Zn	0.56023 0.57381 0.47731 1.18600
Zn	Zn	0.48501 0.53791 0.36211 1.19600
O 	O 	0.46788 0.44866 0.26972 -0.41300
O 	O 	0.46334 0.51274 0.28193 -0.41900
O 	O 	0.46983 0.40158 0.35261 -0.47900
C 	C 	0.59332 0.54381 0.42101 0.29000
O 	O 	0.44141 0.47823 0.34524 -0.86900
C 	C 	0.56272 0.63533 0.42939 0.34600
O 	O 	0.60474 0.56753 0.47061 -0.45700
O 	O 	0.55139 0.51546 0.38041 -0.36400
O 	O 	0.50112 0.54922 0.43929 -0.77300
O 	O 	0.51507 0.46813 0.43350 -0.45900
O 	O 	0.53310 0.59762 0.38100 -0.44800
O 	O 	0.57604 0.63312 0.47561 -0.46500
Zn	Zn	0.36687 0.41622 0.37648 1.17600
Zn	Zn	0.44104 0.43451 0.47551 1.18600
Zn	Zn	0.46067 0.48792 0.41872 1.21500
C 	C 	0.35827 0.34212 0.40808 0.35700
C 	C 	0.34923 0.45229 0.45028 0.29400
O 	O 	0.40731 0.51159 0.40558 -0.47200
Zn	Zn	0.45629 0.52436 0.51800 1.20800
O 	O 	0.39920 0.37052 0.45293 -0.44800
O 	O 	0.33909 0.35506 0.37279 -0.47300
O 	O 	0.33777 0.44072 0.39981 -0.47500
O 	O 	0.38901 0.46387 0.48928 -0.42000
C 	C 	0.48091 0.49349 0.59833 0.30500
O 	O 	0.42058 0.42687 0.39818 -0.80300
C 	C 	0.40792 0.54285 0.44055 0.34900
O 	O 	0.46662 0.45398 0.55829 -0.41200
O 	O 	0.48428 0.52910 0.59047 -0.40700
O 	O 	0.43525 0.55944 0.49356 -0.46900
O 	O 	0.47897 0.49593 0.49121 -0.89800
Zn	Zn	0.44751 0.43043 0.31349 1.19500
C 	C 	0.47113 0.48322 0.25941 0.31500
C 	C 	0.50677 0.42849 0.40212 0.34700
H 	H 	0.51073 0.50868 0.51780 0.16900
H 	H 	0.41090 0.47110 0.32281 0.15500
C 	C 	0.53522 0.52061 0.76530 -0.11600
C 	C 	0.54627 0.49803 0.73460 0.03000
C 	C 	0.52679 0.48730 0.67935 -0.05300
C 	C 	0.49575 0.49867 0.65379 0.02800
C 	C 	0.48238 0.51901 0.68368 -0.13400
C 	C 	0.50384 0.53161 0.73998 0.09100
H 	H 	0.53683 0.47131 0.65678 0.04800
H 	H 	0.49543 0.54913 0.76382 0.05700
H 	H 	0.57048 0.48936 0.75376 0.03500
C 	C 	0.44647 0.52875 0.65662 0.79000
F 	F 	0.42793 0.53221 0.68513 -0.46400
F 	F 	0.46415 0.56975 0.65604 -0.45800
F 	F 	0.41306 0.49379 0.60329 -0.47200
C 	C 	0.53475 0.50383 0.17924 -0.12100
C 	C 	0.55320 0.53807 0.23151 0.03100
C 	C 	0.53096 0.53223 0.25609 -0.05500
C 	C 	0.48959 0.49238 0.22846 0.02700
C 	C 	0.46933 0.45893 0.17409 -0.13800
C 	C 	0.49317 0.46402 0.15101 0.09400
H 	H 	0.54656 0.55810 0.29755 0.05900
H 	H 	0.47862 0.43801 0.11014 0.05200
H 	H 	0.58504 0.56918 0.25333 0.02800
C 	C 	0.42293 0.41748 0.14108 0.78600
F 	F 	0.39619 0.42993 0.14940 -0.48300
F 	F 	0.40431 0.39829 0.08516 -0.47700
F 	F 	0.42402 0.38460 0.15719 -0.47000
C 	C 	0.62566 0.26740 0.44120 0.06500
C 	C 	0.64924 0.25687 0.48061 -0.10000
C 	C 	0.62905 0.21333 0.47576 0.06200
C 	C 	0.58483 0.17995 0.43172 -0.17300
C 	C 	0.56158 0.19008 0.39112 0.22200
C 	C 	0.58230 0.23339 0.39555 -0.15300
H 	H 	0.64763 0.20574 0.50663 0.02100
H 	H 	0.56415 0.24106 0.36443 0.08200
H 	H 	0.68283 0.28278 0.51577 0.06000
O 	O 	0.51853 0.15796 0.34747 -0.29400
H 	H 	0.50076 0.16329 0.35993 0.14100
C 	C 	0.81424 0.44007 0.45922 -0.03300
C 	C 	0.77723 0.44178 0.42708 -0.02500
C 	C 	0.74077 0.42345 0.42865 -0.01200
C 	C 	0.74141 0.40469 0.46398 -0.06700
C 	C 	0.77976 0.40581 0.49908 0.16600
C 	C 	0.81531 0.42196 0.49519 -0.06900
H 	H 	0.71165 0.42298 0.40153 0.03600
H 	H 	0.84295 0.41894 0.51878 0.11100
H 	H 	0.77619 0.45613 0.39960 0.04400
O 	O 	0.78210 0.39006 0.53612 -0.29000
H 	H 	0.79463 0.41727 0.57038 0.17000
C 	C 	0.60982 0.40051 0.44646 0.06600
C 	C 	0.60238 0.41717 0.48550 -0.10200
C 	C 	0.56913 0.42694 0.47121 0.06300
C 	C 	0.54255 0.41936 0.41746 -0.18400
C 	C 	0.55113 0.40421 0.37886 0.22900
C 	C 	0.58478 0.39509 0.39360 -0.15400
H 	H 	0.56331 0.43927 0.50148 0.00300
H 	H 	0.59031 0.38210 0.36323 0.08500
H 	H 	0.62153 0.42134 0.52640 0.05700
O 	O 	0.52567 0.39676 0.32617 -0.30100
H 	H 	0.54048 0.42647 0.32739 0.15700
C 	C 	0.73225 0.31364 0.03500 0.08800
C 	C 	0.72259 0.30728 0.07220 -0.10200
C 	C 	0.70119 0.26318 0.06535 0.06100
C 	C 	0.68945 0.22492 0.02143 -0.16100
C 	C 	0.70114 0.23147 0.98568 0.21500
C 	C 	0.72193 0.27566 0.99213 -0.16700
H 	H 	0.69296 0.25865 0.09359 0.01400
H 	H 	0.72940 0.28027 0.96331 0.08500
H 	H 	0.73082 0.33643 0.10574 0.05600
O 	O 	0.69190 0.19477 0.94416 -0.28600
H 	H 	0.71805 0.19208 0.96064 0.14900
C 	C 	0.83850 0.43768 0.03169 0.10700
C 	C 	0.83339 0.41092 0.98459 -0.10200
C 	C 	0.86682 0.42695 0.97727 0.06800
C 	C 	0.90583 0.47004 0.01693 -0.15800
C 	C 	0.91129 0.49685 0.06461 0.24000
C 	C 	0.87746 0.48076 0.07161 -0.13500
H 	H 	0.86263 0.40555 0.94104 0.02200
H 	H 	0.88161 0.50161 0.10810 0.09800
H 	H 	0.80340 0.37767 0.95355 0.06200
O 	O 	0.94878 0.53947 0.10318 -0.30600
H 	H 	0.96889 0.53430 0.13085 0.16400
C 	C 	0.64557 0.46233 0.98735 -0.08700
C 	C 	0.65860 0.45138 0.95289 0.00300
C 	C 	0.69123 0.44083 0.96894 -0.05100
C 	C 	0.71136 0.44122 0.01972 -0.03500
C 	C 	0.70033 0.45501 0.05589 0.13400
C 	C 	0.66734 0.46531 0.03949 -0.04600
H 	H 	0.69987 0.43085 0.94111 0.04100
H 	H 	0.65807 0.47459 0.06679 0.04300
H 	H 	0.64306 0.45053 0.91333 0.03100
O 	O 	0.72055 0.45673 0.10630 -0.28700
H 	H 	0.74669 0.48846 0.13201 0.14100
C 	C 	0.80773 0.07496 0.38292 0.06600
C 	C 	0.82024 0.06058 0.34908 -0.10100
C 	C 	0.85244 0.04938 0.36753 0.05900
C 	C 	0.87255 0.05273 0.42013 -0.17500
C 	C 	0.85890 0.06603 0.45340 0.22600
C 	C 	0.82694 0.07728 0.43477 -0.15400
H 	H 	0.86235 0.03904 0.34143 0.00800
H 	H 	0.81767 0.08879 0.46125 0.08600
H 	H 	0.80554 0.05876 0.30892 0.05400
O 	O 	0.87792 0.06971 0.50498 -0.27800
H 	H 	0.85818 0.04001 0.50001 0.16600
C 	C 	0.78908 0.20344 0.37462 0.06300
C 	C 	0.79207 0.21265 0.33436 -0.10300
C 	C 	0.81422 0.25803 0.34518 0.06100
C 	C 	0.83381 0.29460 0.39651 -0.17800
C 	C 	0.82974 0.28542 0.43640 0.22600
C 	C 	0.80769 0.23992 0.42550 -0.15300
H 	H 	0.81684 0.26480 0.31404 0.00800
H 	H 	0.80552 0.23297 0.45680 0.08200
H 	H 	0.77774 0.18466 0.29498 0.04500
O 	O 	0.84780 0.32083 0.48625 -0.29000
H 	H 	0.82435 0.32721 0.48080 0.15400
C 	C 	0.62646 0.05512 0.40898 -0.05000
C 	C 	0.66746 0.09671 0.44600 -0.01800
C 	C 	0.69715 0.10962 0.43231 -0.01700
C 	C 	0.68641 0.08111 0.38157 -0.06600
C 	C 	0.64587 0.03888 0.34487 0.15100
C 	C 	0.61595 0.02614 0.35847 -0.06900
H 	H 	0.72858 0.14191 0.46114 0.03700
H 	H 	0.58439 0.99411 0.32939 0.06400
H 	H 	0.67599 0.11956 0.48493 0.04400
O 	O 	0.63606 0.00942 0.29659 -0.28300
H 	H 	0.62234 0.01888 0.26932 0.15100
C 	C 	0.97717 0.09776 0.98800 -0.10300
C 	C 	0.98989 0.14249 0.02037 0.00800
C 	C 	0.95933 0.15585 0.00658 -0.00400
C 	C 	0.91576 0.12480 0.95994 -0.08100
C 	C 	0.90349 0.08081 0.92543 0.15200
C 	C 	0.93423 0.06741 0.93951 -0.05700
H 	H 	0.96919 0.19001 0.03297 0.04000
H 	H 	0.92422 0.03297 0.91381 0.05300
O 	O 	0.86114 0.05036 0.87917 -0.28500
H 	H 	0.86110 0.05591 0.84914 0.15000
C 	C 	0.87753 0.24060 0.94231 0.06200
C 	C 	0.89815 0.27955 0.99203 -0.10200
C 	C 	0.91948 0.32347 0.99856 0.05300
C 	C 	0.92007 0.32888 0.95529 -0.16500
C 	C 	0.89671 0.28987 0.90404 0.22300
C 	C 	0.87571 0.24586 0.89783 -0.15100
H 	H 	0.93673 0.35331 0.03783 0.06800
H 	H 	0.85958 0.21587 0.85919 0.08200
H 	H 	0.89949 0.27578 0.02650 0.08800
O 	O 	0.89699 0.29459 0.86132 -0.30600
H 	H 	0.87041 0.29557 0.83979 0.14900
C 	C 	0.73051 0.09251 0.99246 -0.05800
C 	C 	0.77143 0.13398 0.03124 -0.00800
C 	C 	0.80280 0.14746 0.02018 0.00200
C 	C 	0.79371 0.11968 0.97032 -0.08700
C 	C 	0.75399 0.07668 0.93301 0.16000
C 	C 	0.72253 0.06321 0.94417 -0.07700
H 	H 	0.83368 0.18024 0.04958 0.04100
H 	H 	0.69146 0.03064 0.91453 0.06900
H 	H 	0.77821 0.15675 0.06888 0.04400
O 	O 	0.74486 0.04896 0.88431 -0.28300
H 	H 	0.75568 0.02855 0.89223 0.14800
C 	C 	0.82454 0.63705 0.95591 0.08100
C 	C 	0.83125 0.67526 0.94715 -0.08500
C 	C 	0.86419 0.69533 0.93988 0.02500
C 	C 	0.88893 0.67573 0.93864 -0.08700
C 	C 	0.88304 0.63819 0.94855 0.07900
C 	C 	0.85037 0.61845 0.95642 -0.09700
H 	H 	0.81223 0.69054 0.94843 0.06000
H 	H 	0.91492 0.69170 0.93393 0.05700
H 	H 	0.84653 0.59018 0.96556 0.06700
C 	C 	0.71815 0.59533 0.36773 0.06000
C 	C 	0.73196 0.63655 0.36534 -0.07700
C 	C 	0.76910 0.65587 0.36510 0.00700
C 	C 	0.79094 0.63252 0.36404 -0.05600
C 	C 	0.77729 0.59130 0.36647 0.00700
C 	C 	0.73975 0.57185 0.36600 -0.06900
H 	H 	0.71558 0.65504 0.36729 0.05100
H 	H 	0.82071 0.64836 0.36611 0.04600
H 	H 	0.72982 0.54060 0.36933 0.06000
C 	C 	0.80251 0.92082 0.03839 0.01800
C 	C 	0.77873 0.94254 0.03491 -0.06800
C 	C 	0.74004 0.92234 0.03200 0.05400
C 	C 	0.72578 0.88090 0.03388 -0.05900
C 	C 	0.74973 0.85935 0.03814 0.00700
C 	C 	0.78847 0.87974 0.04123 -0.03900
H 	H 	0.78911 0.97387 0.03183 0.05400
H 	H 	0.69510 0.86445 0.02968 0.06100
H 	H 	0.80677 0.86287 0.04385 0.09200
C 	C 	0.70130 0.88228 0.46241 0.06100
C 	C 	0.67870 0.90474 0.46442 -0.07300
C 	C 	0.63862 0.88195 0.45770 0.00900
C 	C 	0.62273 0.83803 0.45302 -0.05500
C 	C 	0.64468 0.81512 0.45039 0.00900
C 	C 	0.68364 0.83701 0.45433 -0.06700
H 	H 	0.69139 0.93913 0.46909 0.05500
H 	H 	0.59212 0.82079 0.44879 0.04800
H 	H 	0.69959 0.81857 0.44992 0.06100
Zn	Zn	0.65821 0.10981 0.05222 1.18600
Zn	Zn	0.58473 0.08173 0.93853 1.19300
O 	O 	0.56685 0.00338 0.83900 -0.47100
O 	O 	0.55814 0.06459 0.85762 -0.42600
O 	O 	0.57661 0.94758 0.91582 -0.49100
C 	C 	0.69449 0.08255 0.99914 0.27900
O 	O 	0.54136 0.01967 0.91671 -0.88100
C 	C 	0.66528 0.17837 0.01332 0.36500
O 	O 	0.70344 0.10307 0.04805 -0.44700
O 	O 	0.65360 0.05945 0.95535 -0.36300
O 	O 	0.59945 0.08693 0.01335 -0.77100
O 	O 	0.61229 0.00469 0.00261 -0.43100
O 	O 	0.63256 0.14412 0.96275 -0.45500
O 	O 	0.67761 0.17157 0.05653 -0.47000
Zn	Zn	0.46093 0.95153 0.93732 1.17600
Zn	Zn	0.53288 0.96463 0.03546 1.19000
Zn	Zn	0.55755 0.02439 0.98736 1.21200
C 	C 	0.44784 0.87479 0.96517 0.34500
C 	C 	0.44157 0.98556 0.00973 0.37400
O 	O 	0.50499 0.04868 0.97430 -0.48100
Zn	Zn	0.54903 0.05646 0.08418 1.20400
O 	O 	0.49000 0.89957 0.00689 -0.44400
O 	O 	0.43068 0.88924 0.93057 -0.46200
O 	O 	0.43105 0.97560 0.95985 -0.49600
O 	O 	0.48025 0.99460 0.04785 -0.47300
C 	C 	0.55507 0.01301 0.15016 0.32700
O 	O 	0.51527 0.96212 0.96092 -0.80500
C 	C 	0.50660 0.08107 0.00909 0.34800
O 	O 	0.55104 0.97852 0.11471 -0.43300
O 	O 	0.56997 0.05345 0.15239 -0.46800
O 	O 	0.52845 0.09275 0.06149 -0.49100
O 	O 	0.57223 0.02819 0.05749 -0.88300
Zn	Zn	0.55223 0.97829 0.88295 1.18400
C 	C 	0.55414 0.02989 0.82285 0.31400
C 	C 	0.60900 0.97027 0.96842 0.28800
H 	H 	0.60365 0.04021 0.08495 0.16400
H 	H 	0.51065 0.01159 0.89277 0.15600
Zn	Zn	0.56023 0.07381 0.47731 1.18600
Zn	Zn	0.48501 0.03791 0.36211 1.19700
O 	O 	0.46788 0.94866 0.26972 -0.41400
O 	O 	0.46334 0.01274 0.28193 -0.41200
O 	O 	0.46983 0.90158 0.35261 -0.47900
C 	C 	0.59332 0.04381 0.42101 0.29200
O 	O 	0.44141 0.97823 0.34524 -0.87200
C 	C 	0.56272 0.13534 0.42939 0.34600
O 	O 	0.60474 0.06753 0.47061 -0.45600
O 	O 	0.55139 0.01546 0.38041 -0.36000
O 	O 	0.50112 0.04922 0.43929 -0.77000
O 	O 	0.51507 0.96813 0.43350 -0.46200
O 	O 	0.53310 0.09762 0.38100 -0.44800
O 	O 	0.57604 0.13312 0.47561 -0.46500
Zn	Zn	0.36687 0.91622 0.37648 1.17600
Zn	Zn	0.44104 0.93451 0.47551 1.18600
Zn	Zn	0.46067 0.98792 0.41872 1.21400
C 	C 	0.35827 0.84212 0.40808 0.35700
C 	C 	0.34923 0.95229 0.45028 0.29300
O 	O 	0.40731 0.01159 0.40558 -0.46700
Zn	Zn	0.45629 0.02436 0.51800 1.21000
O 	O 	0.39920 0.87052 0.45293 -0.44800
O 	O 	0.33909 0.85506 0.37279 -0.47300
O 	O 	0.33777 0.94072 0.39981 -0.47700
O 	O 	0.38901 0.96387 0.48928 -0.42200
C 	C 	0.48091 0.99349 0.59833 0.30000
O 	O 	0.42058 0.92687 0.39818 -0.80300
C 	C 	0.40792 0.04284 0.44055 0.34900
O 	O 	0.46662 0.95398 0.55829 -0.41200
O 	O 	0.48428 0.02910 0.59047 -0.40100
O 	O 	0.43525 0.05944 0.49356 -0.46800
O 	O 	0.47897 0.99593 0.49121 -0.90600
Zn	Zn	0.44751 0.93043 0.31349 1.19500
C 	C 	0.47113 0.98322 0.25941 0.31000
C 	C 	0.50677 0.92849 0.40212 0.34800
H 	H 	0.51073 0.00868 0.51780 0.17700
H 	H 	0.41090 0.97110 0.32281 0.15300
C 	C 	0.53522 0.02061 0.76530 -0.10400
C 	C 	0.54627 0.99803 0.73460 0.01700
C 	C 	0.52679 0.98730 0.67935 -0.04700
C 	C 	0.49574 0.99867 0.65379 0.01900
C 	C 	0.48238 0.01901 0.68368 -0.12400
C 	C 	0.50384 0.03161 0.73998 0.08600
H 	H 	0.53683 0.97131 0.65678 0.04600
H 	H 	0.49543 0.04913 0.76382 0.05900
H 	H 	0.57048 0.98935 0.75376 0.03600
C 	C 	0.44647 0.02875 0.65662 0.79200
F 	F 	0.42793 0.03221 0.68513 -0.46300
F 	F 	0.46415 0.06975 0.65604 -0.45700
F 	F 	0.41306 0.99379 0.60329 -0.47700
C 	C 	0.53475 0.00383 0.17924 -0.11000
C 	C 	0.55320 0.03807 0.23151 0.02500
C 	C 	0.53095 0.03223 0.25609 -0.04300
C 	C 	0.48959 0.99238 0.22846 0.01700
C 	C 	0.46933 0.95893 0.17409 -0.13300
C 	C 	0.49317 0.96401 0.15101 0.08200
H 	H 	0.54656 0.05810 0.29755 0.05700
H 	H 	0.47862 0.93801 0.11014 0.05500
H 	H 	0.58504 0.06918 0.25333 0.03000
C 	C 	0.42293 0.91748 0.14108 0.78400
F 	F 	0.39619 0.92993 0.14940 -0.48300
F 	F 	0.40431 0.89829 0.08516 -0.47700
F 	F 	0.42402 0.88460 0.15719 -0.47000
C 	C 	0.62566 0.76740 0.44120 0.06500
C 	C 	0.64924 0.75687 0.48061 -0.10000
C 	C 	0.62904 0.71333 0.47576 0.06200
C 	C 	0.58483 0.67995 0.43172 -0.17300
C 	C 	0.56158 0.69008 0.39112 0.22200
C 	C 	0.58230 0.73339 0.39555 -0.15300
H 	H 	0.64763 0.70574 0.50663 0.02100
H 	H 	0.56415 0.74106 0.36443 0.08100
H 	H 	0.68283 0.78278 0.51577 0.06000
O 	O 	0.51853 0.65796 0.34747 -0.29400
H 	H 	0.50076 0.66329 0.35993 0.14000
C 	C 	0.81424 0.94007 0.45922 -0.03400
C 	C 	0.77723 0.94178 0.42708 -0.02600
C 	C 	0.74077 0.92345 0.42865 -0.01300
C 	C 	0.74141 0.90469 0.46398 -0.06700
C 	C 	0.77976 0.90581 0.49908 0.16600
C 	C 	0.81531 0.92196 0.49519 -0.06900
H 	H 	0.71165 0.92299 0.40153 0.03500
H 	H 	0.84295 0.91894 0.51878 0.11000
H 	H 	0.77619 0.95613 0.39960 0.04200
O 	O 	0.78210 0.89006 0.53612 -0.29000
H 	H 	0.79463 0.91727 0.57038 0.16900
C 	C 	0.60982 0.90051 0.44646 0.06600
C 	C 	0.60238 0.91717 0.48550 -0.10300
C 	C 	0.56913 0.92694 0.47121 0.06300
C 	C 	0.54255 0.91936 0.41746 -0.18500
C 	C 	0.55113 0.90421 0.37886 0.22900
C 	C 	0.58478 0.89509 0.39360 -0.15500
H 	H 	0.56331 0.93927 0.50148 0.00200
H 	H 	0.59031 0.88209 0.36323 0.08400
H 	H 	0.62153 0.92134 0.52640 0.05600
O 	O 	0.52567 0.89676 0.32617 -0.30100
H 	H 	0.54048 0.92646 0.32739 0.15600
C 	C 	0.73225 0.81364 0.03500 0.08800
C 	C 	0.72259 0.80728 0.07220 -0.10200
C 	C 	0.70119 0.76318 0.06535 0.06100
C 	C 	0.68945 0.72492 0.02143 -0.16100
C 	C 	0.70114 0.73147 0.98568 0.21500
C 	C 	0.72193 0.77566 0.99213 -0.16700
H 	H 	0.69296 0.75865 0.09359 0.01400
H 	H 	0.72940 0.78027 0.96331 0.08500
H 	H 	0.73082 0.83643 0.10574 0.05500
O 	O 	0.69190 0.69477 0.94416 -0.28600
H 	H 	0.71805 0.69208 0.96064 0.14900
C 	C 	0.83850 0.93768 0.03169 0.10900
C 	C 	0.83339 0.91092 0.98459 -0.10300
C 	C 	0.86682 0.92695 0.97727 0.06900
C 	C 	0.90583 0.97004 0.01693 -0.15900
C 	C 	0.91129 0.99685 0.06461 0.23600
C 	C 	0.87746 0.98076 0.07161 -0.14200
H 	H 	0.86263 0.90555 0.94104 0.02200
H 	H 	0.88161 0.00161 0.10810 0.10500
H 	H 	0.80340 0.87767 0.95355 0.06200
O 	O 	0.94878 0.03947 0.10318 -0.30100
H 	H 	0.96889 0.03430 0.13085 0.16500
C 	C 	0.64557 0.96234 0.98735 -0.08500
C 	C 	0.65860 0.95138 0.95289 0.00100
C 	C 	0.69123 0.94083 0.96894 -0.05000
C 	C 	0.71136 0.94122 0.01972 -0.03700
C 	C 	0.70033 0.95501 0.05589 0.13500
C 	C 	0.66734 0.96531 0.03949 -0.04900
H 	H 	0.69987 0.93085 0.94111 0.04000
H 	H 	0.65807 0.97459 0.06679 0.04100
H 	H 	0.64306 0.95053 0.91333 0.03000
O 	O 	0.72055 0.95673 0.10630 -0.28800
H 	H 	0.74669 0.98846 0.13201 0.14000
C 	C 	0.80773 0.57496 0.38292 0.06600
C 	C 	0.82024 0.56058 0.34908 -0.10200
C 	C 	0.85244 0.54938 0.36753 0.05800
C 	C 	0.87255 0.55273 0.42013 -0.17600
C 	C 	0.85890 0.56603 0.45340 0.22500
C 	C 	0.82694 0.57728 0.43477 -0.15400
H 	H 	0.86235 0.53904 0.34143 0.00700
H 	H 	0.81767 0.58879 0.46125 0.08500
H 	H 	0.80554 0.55876 0.30892 0.05200
O 	O 	0.87792 0.56971 0.50498 -0.27800
H 	H 	0.85818 0.54001 0.50001 0.16300
C 	C 	0.78908 0.70344 0.37462 0.06200
C 	C 	0.79207 0.71265 0.33436 -0.10300
C 	C 	0.81422 0.75803 0.34518 0.06100
C 	C 	0.83381 0.79460 0.39651 -0.17800
C 	C 	0.82974 0.78542 0.43640 0.22600
C 	C 	0.80769 0.73992 0.42550 -0.15300
H 	H 	0.81684 0.76480 0.31404 0.00800
H 	H 	0.80552 0.73297 0.45680 0.08100
H 	H 	0.77774 0.68466 0.29498 0.04500
O 	O 	0.84780 0.82083 0.48625 -0.29000
H 	H 	0.82436 0.82721 0.48080 0.15400
C 	C 	0.62646 0.55512 0.40898 -0.04600
C 	C 	0.66746 0.59671 0.44600 -0.02000
C 	C 	0.69715 0.60962 0.43231 -0.01600
C 	C 	0.68641 0.58111 0.38157 -0.06800
C 	C 	0.64587 0.53888 0.34487 0.15500
C 	C 	0.61595 0.52614 0.35847 -0.08000
H 	H 	0.72858 0.64191 0.46114 0.03600
H 	H 	0.58439 0.49411 0.32939 0.07200
H 	H 	0.67599 0.61956 0.48493 0.04400
O 	O 	0.63606 0.50942 0.29659 -0.28600
H 	H 	0.62234 0.51888 0.26932 0.15000
C 	C 	0.97717 0.59776 0.98800 -0.10400
C 	C 	0.98989 0.64249 0.02037 0.00900
C 	C 	0.95933 0.65585 0.00658 -0.00400
C 	C 	0.91576 0.62480 0.95994 -0.08100
C 	C 	0.90349 0.58081 0.92543 0.15100
C 	C 	0.93423 0.56741 0.93951 -0.05700
H 	H 	0.96919 0.69001 0.03297 0.04000
H 	H 	0.92422 0.53297 0.91381 0.05100
O 	O 	0.86114 0.55036 0.87917 -0.28700
H 	H 	0.86110 0.55591 0.84914 0.14900
C 	C 	0.87753 0.74060 0.94231 0.06200
C 	C 	0.89815 0.77955 0.99203 -0.10200
C 	C 	0.91948 0.82347 0.99856 0.05300
C 	C 	0.92007 0.82888 0.95529 -0.16600
C 	C 	0.89671 0.78987 0.90404 0.22300
C 	C 	0.87571 0.74586 0.89783 -0.15100
H 	H 	0.93673 0.85331 0.03783 0.06700
H 	H 	0.85958 0.71587 0.85919 0.08100
H 	H 	0.89949 0.77578 0.02650 0.08800
O 	O 	0.89699 0.79460 0.86132 -0.30700
H 	H 	0.87041 0.79557 0.83979 0.14900
C 	C 	0.73051 0.59251 0.99246 -0.05900
C 	C 	0.77143 0.63398 0.03124 -0.00800
C 	C 	0.80280 0.64746 0.02018 0.00200
C 	C 	0.79371 0.61968 0.97032 -0.08700
C 	C 	0.75399 0.57668 0.93301 0.15900
C 	C 	0.72253 0.56321 0.94417 -0.07700
H 	H 	0.83368 0.68024 0.04958 0.04100
H 	H 	0.69146 0.53064 0.91453 0.06700
H 	H 	0.77821 0.65675 0.06888 0.04400
O 	O 	0.74486 0.54896 0.88431 -0.28400
H 	H 	0.75568 0.52855 0.89223 0.14700
