data_crystal

_cell_length_a 45.95971
_cell_length_b 45.64950
_cell_length_c 38.03090
_cell_angle_alpha 89.96212
_cell_angle_beta  89.95894
_cell_angle_gamma 90.52205

_symmetry_space_group_name_	'P 1'
_symmetry_space_group_name_H-M	'P 1'

loop_
_symmetry_equiv_pos_as_xyz
  x,y,z

loop_
_atom_site_label
_atom_site_type_symbol
_atom_site_fract_x
_atom_site_fract_y
_atom_site_fract_z
_atom_site_charge
Zn	Zn	0.53087 0.50218 0.99784 1.22100
C 	C 	0.55765 0.55930 0.99797 0.31000
O 	O 	0.57152 0.49183 0.99124 -0.45100
O 	O 	0.57586 0.54802 0.02084 -0.45100
O 	O 	0.57986 0.48645 0.04978 -0.50100
C 	C 	0.49983 0.52770 0.05434 0.31600
O 	O 	0.50319 0.50357 0.03630 -0.47900
O 	O 	0.52284 0.54135 0.06676 -0.49200
C 	C 	0.58596 0.47963 0.01701 0.31900
O 	O 	0.51862 0.45228 0.99282 -0.32500
Zn	Zn	0.56113 0.52341 0.06281 1.16900
O 	O 	0.53432 0.54447 0.98825 -0.43500
C 	C 	0.50713 0.45928 0.96287 0.27300
O 	O 	0.50960 0.48671 0.95440 -0.38300
Zn	Zn	0.29425 0.23592 0.99890 1.22100
C 	C 	0.30606 0.23904 0.07356 0.31900
O 	O 	0.25235 0.22768 0.99433 -0.46500
O 	O 	0.29841 0.26671 0.07258 -0.44700
O 	O 	0.24050 0.24453 0.04862 -0.49200
C 	C 	0.31060 0.29635 0.99726 0.32200
O 	O 	0.32044 0.26962 0.00083 -0.45500
O 	O 	0.28375 0.30232 0.00630 -0.50700
C 	C 	0.23537 0.22683 0.02212 0.31100
O 	O 	0.29900 0.23814 0.93688 -0.32500
Zn	Zn	0.26342 0.28013 0.04268 1.17000
O 	O 	0.29997 0.22160 0.04703 -0.43900
C 	C 	0.31153 0.21288 0.94007 0.27700
O 	O 	0.31340 0.20299 0.97187 -0.38500
C 	C 	0.48406 0.05371 0.37076 0.14100
C 	C 	0.46642 0.07398 0.35334 -0.10400
H 	H 	0.45398 0.08964 0.36843 0.07200
C 	C 	0.46481 0.07391 0.31652 0.05200
C 	C 	0.48098 0.05359 0.29715 -0.08600
C 	C 	0.49870 0.03336 0.31453 0.05200
C 	C 	0.50013 0.03339 0.35135 -0.10500
H 	H 	0.51389 0.01786 0.36488 0.07200
N 	N 	0.48583 0.05388 0.40849 -0.17900
C 	C 	0.46739 0.03624 0.42765 0.19100
C 	C 	0.46940 0.03542 0.46458 -0.06000
C 	C 	0.49035 0.05299 0.48156 0.03100
C 	C 	0.50887 0.07116 0.46161 -0.06000
C 	C 	0.50623 0.07134 0.42473 0.19100
C 	C 	0.45089 0.01725 0.48470 -0.01200
C 	C 	0.45333 0.01661 0.52134 -0.01200
C 	C 	0.47430 0.03414 0.53849 -0.06000
C 	C 	0.49279 0.05235 0.51855 0.03100
C 	C 	0.51374 0.06991 0.53552 -0.05900
C 	C 	0.52980 0.08874 0.47876 -0.01200
C 	C 	0.53222 0.08812 0.51541 -0.01200
C 	C 	0.47708 0.03380 0.57535 0.19100
N 	N 	0.49758 0.05116 0.59159 -0.17900
C 	C 	0.51584 0.06900 0.57244 0.19100
C 	C 	0.49974 0.05087 0.62928 0.14100
C 	C 	0.48277 0.06996 0.64939 -0.10400
C 	C 	0.48463 0.06955 0.68620 0.05200
C 	C 	0.50365 0.05007 0.70281 -0.08600
C 	C 	0.52071 0.03101 0.68274 0.05200
C 	C 	0.51868 0.03139 0.64596 -0.10400
O 	O 	0.52352 0.08824 0.40568 -0.20000
O 	O 	0.44780 0.01990 0.41139 -0.20000
O 	O 	0.45991 0.01677 0.59438 -0.20000
O 	O 	0.53538 0.08539 0.58871 -0.19900
H 	H 	0.53174 0.01662 0.63035 0.07200
H 	H 	0.46816 0.08501 0.63639 0.07200
H 	H 	0.54425 0.10290 0.46380 0.05100
H 	H 	0.54848 0.10182 0.52805 0.05100
H 	H 	0.43460 0.00357 0.47206 0.05100
H 	H 	0.43887 0.00245 0.53630 0.05100
H 	H 	0.50492 0.04950 0.73128 0.05800
H 	H 	0.47984 0.05359 0.26867 0.05800
Zn	Zn	0.67914 0.85685 0.00689 1.22100
C 	C 	0.66045 0.85916 0.07957 0.31900
O 	O 	0.72149 0.86449 0.00653 -0.46000
O 	O 	0.66735 0.83138 0.08241 -0.44900
O 	O 	0.72739 0.85158 0.06384 -0.49300
C 	C 	0.66283 0.79644 0.00914 0.32100
O 	O 	0.65263 0.82318 0.00881 -0.45200
O 	O 	0.68844 0.79121 0.02279 -0.51000
C 	C 	0.73685 0.86529 0.03568 0.30900
O 	O 	0.67971 0.85057 0.94498 -0.32300
Zn	Zn	0.70492 0.81564 0.05971 1.17000
O 	O 	0.66953 0.87454 0.05241 -0.43800
C 	C 	0.66705 0.87589 0.94421 0.27800
O 	O 	0.66251 0.88781 0.97454 -0.38500
Zn	Zn	0.20257 0.65109 0.00383 1.22100
C 	C 	0.19258 0.63535 0.07678 0.32000
O 	O 	0.19121 0.69248 0.99897 -0.46100
O 	O 	0.21809 0.64680 0.08472 -0.44900
O 	O 	0.19473 0.70273 0.05731 -0.49300
C 	C 	0.26208 0.64087 0.02230 0.32200
O 	O 	0.23724 0.62815 0.01415 -0.45100
O 	O 	0.26265 0.66861 0.03121 -0.51000
C 	C 	0.18305 0.70772 0.02648 0.31000
O 	O 	0.21648 0.64979 0.94370 -0.32200
Zn	Zn	0.23271 0.68493 0.06123 1.17100
O 	O 	0.18030 0.64131 0.04643 -0.43900
C 	C 	0.19261 0.63473 0.93953 0.27800
O 	O 	0.17748 0.63018 0.96772 -0.38400
C 	C 	0.01408 0.43385 0.36396 0.14000
C 	C 	0.99411 0.41459 0.34804 -0.10400
H 	H 	0.98028 0.40073 0.36422 0.07200
C 	C 	0.99177 0.41363 0.31127 0.05200
C 	C 	0.00962 0.43176 0.29051 -0.08600
C 	C 	0.02952 0.45109 0.30639 0.05200
C 	C 	0.03180 0.45200 0.34312 -0.10500
H 	H 	0.04698 0.46708 0.35553 0.07100
N 	N 	0.01582 0.43567 0.40163 -0.17900
C 	C 	0.03506 0.41821 0.41935 0.19000
C 	C 	0.03916 0.42170 0.45581 -0.06000
C 	C 	0.02309 0.44298 0.47386 0.03100
C 	C 	0.00294 0.46018 0.45552 -0.06000
C 	C 	0.99939 0.45599 0.41909 0.19100
C 	C 	0.05929 0.40449 0.47433 -0.01200
C 	C 	0.06335 0.40856 0.51046 -0.01200
C 	C 	0.04730 0.42987 0.52868 -0.05900
C 	C 	0.02720 0.44711 0.51031 0.03100
C 	C 	0.01118 0.46844 0.52834 -0.06000
C 	C 	0.98691 0.48150 0.47372 -0.01200
C 	C 	0.99103 0.48563 0.50982 -0.01200
C 	C 	0.05079 0.43402 0.56513 0.19100
N 	N 	0.03445 0.45444 0.58254 -0.17800
C 	C 	0.01533 0.47199 0.56478 0.19000
C 	C 	0.03615 0.45631 0.62021 0.14100
C 	C 	0.01697 0.43974 0.64104 -0.10500
C 	C 	0.01828 0.44167 0.67778 0.05300
C 	C 	0.03889 0.46019 0.69369 -0.08600
C 	C 	0.05819 0.47680 0.67294 0.05200
C 	C 	0.05676 0.47485 0.63614 -0.10400
O 	O 	0.98049 0.47192 0.40158 -0.20000
O 	O 	0.05004 0.39836 0.40207 -0.20000
O 	O 	0.06951 0.41793 0.58271 -0.19900
O 	O 	0.00051 0.49200 0.58200 -0.20000
H 	H 	0.07156 0.48766 0.61996 0.07200
H 	H 	0.00110 0.42541 0.62864 0.07200
H 	H 	0.97129 0.49497 0.46001 0.05100
H 	H 	0.97848 0.50217 0.52330 0.05100
H 	H 	0.07187 0.38798 0.46085 0.05100
H 	H 	0.07894 0.39508 0.52419 0.05200
H 	H 	0.03972 0.46191 0.72212 0.05700
H 	H 	0.00790 0.43095 0.26208 0.05700
Zn	Zn	0.82332 0.26256 0.97910 1.22100
C 	C 	0.83161 0.28203 0.90759 0.31700
O 	O 	0.79636 0.29561 0.97674 -0.44800
O 	O 	0.80328 0.28009 0.90332 -0.44800
O 	O 	0.75846 0.26672 0.95948 -0.50700
C 	C 	0.82273 0.20526 0.94817 0.31300
O 	O 	0.82185 0.21976 0.97796 -0.46800
O 	O 	0.81021 0.21593 0.92004 -0.49300
C 	C 	0.76825 0.29141 0.97289 0.32100
O 	O 	0.81557 0.25946 0.04065 -0.32400
Zn	Zn	0.78002 0.24520 0.92385 1.17100
O 	O 	0.84402 0.26918 0.93458 -0.44000
C 	C 	0.84152 0.27081 0.04305 0.27700
O 	O 	0.85437 0.27633 0.01346 -0.38400
Zn	Zn	0.02292 0.98833 0.01286 1.22100
C 	C 	0.05141 0.93414 0.02969 0.31500
O 	O 	0.98776 0.98812 0.04215 -0.47300
O 	O 	0.06319 0.94858 0.05610 -0.45000
O 	O 	0.00304 0.95584 0.08322 -0.49400
C 	C 	0.07131 0.01738 0.04304 0.32200
O 	O 	0.06299 0.00157 0.01606 -0.45400
O 	O 	0.05840 0.01398 0.07361 -0.50500
C 	C 	0.98203 0.96671 0.06411 0.31500
O 	O 	0.01227 0.03646 0.99557 -0.32400
Zn	Zn	0.03985 0.97691 0.08720 1.17000
O 	O 	0.03066 0.94607 0.01075 -0.43500
C 	C 	0.00274 0.02490 0.96660 0.27500
O 	O 	0.00570 0.99674 0.96444 -0.38100
C 	C 	0.90146 0.05148 0.95914 -0.04200
C 	C 	0.92963 0.05462 0.94532 0.01100
C 	C 	0.93723 0.08008 0.92590 0.00700
C 	C 	0.91593 0.10201 0.92066 0.00200
C 	C 	0.88199 0.07471 0.95761 -0.03500
C 	C 	0.89011 0.10113 0.94094 -0.00000
C 	C 	0.95098 0.03396 0.95358 -0.01700
C 	C 	0.98032 0.03994 0.94627 -0.06100
C 	C 	0.96664 0.08471 0.91631 -0.04900
C 	C 	0.91920 0.12391 0.89476 -0.03600
C 	C 	0.87686 0.14908 0.91756 0.00600
C 	C 	0.87228 0.12633 0.94235 0.01000
C 	C 	0.85215 0.13059 0.96993 -0.05600
C 	C 	0.83576 0.15619 0.97143 0.01000
C 	C 	0.83928 0.17797 0.94579 -0.08700
C 	C 	0.85958 0.17425 0.91867 -0.01000
C 	C 	0.98790 0.06473 0.92651 0.00300
H 	H 	0.01058 0.06954 0.92099 0.03600
H 	H 	0.97355 0.10482 0.90367 0.04400
H 	H 	0.94520 0.01470 0.96890 0.04200
H 	H 	0.89507 0.03146 0.97253 0.03800
H 	H 	0.86029 0.07164 0.96811 0.03800
H 	H 	0.93601 0.12241 0.87494 0.04000
H 	H 	0.85030 0.11502 0.99129 0.04400
H 	H 	0.82053 0.15924 0.99285 0.03300
H 	H 	0.86277 0.19148 0.89933 0.04200
C 	C 	0.89954 0.14700 0.89300 -0.04000
H 	H 	0.90245 0.16376 0.87306 0.04000
C 	C 	0.99795 0.42439 0.69963 -0.00200
C 	C 	0.96808 0.43041 0.69899 -0.03700
C 	C 	0.94881 0.41420 0.71997 -0.02400
C 	C 	0.95927 0.39176 0.74173 -0.00900
C 	C 	0.00842 0.40196 0.72128 -0.03700
C 	C 	0.93903 0.37485 0.76416 0.10700
N 	N 	0.91661 0.38838 0.78058 -0.08400
N 	N 	0.89898 0.37331 0.80191 -0.08300
C 	C 	0.90322 0.34426 0.80738 0.10100
N 	N 	0.92543 0.33066 0.79061 -0.08300
N 	N 	0.94309 0.34574 0.76934 -0.08400
C 	C 	0.88465 0.32788 0.83241 0.00900
C 	C 	0.83782 0.32007 0.86082 0.01300
C 	C 	0.84970 0.29753 0.88131 -0.08900
C 	C 	0.87907 0.29008 0.87695 0.01400
C 	C 	0.89644 0.30518 0.85270 -0.05000
C 	C 	0.98918 0.38569 0.74222 -0.02400
C 	C 	0.85520 0.33515 0.83649 -0.05000
H 	H 	0.95982 0.44772 0.68234 0.04700
H 	H 	0.92577 0.41895 0.71914 0.04700
H 	H 	0.99756 0.36861 0.75909 0.04700
H 	H 	0.03146 0.39716 0.72190 0.04400
H 	H 	0.84574 0.35242 0.82077 0.05200
H 	H 	0.81524 0.32612 0.86398 0.03700
H 	H 	0.91915 0.29945 0.85000 0.05300
H 	H 	0.88845 0.27254 0.89230 0.04100
C 	C 	0.97030 0.39406 0.29433 -0.00200
C 	C 	0.94688 0.40597 0.27571 -0.03700
C 	C 	0.92918 0.38797 0.25489 -0.02500
C 	C 	0.93476 0.35781 0.25247 -0.01000
C 	C 	0.97493 0.36374 0.29352 -0.03700
C 	C 	0.91886 0.33956 0.22663 0.10600
N 	N 	0.89110 0.34618 0.21754 -0.08400
N 	N 	0.87808 0.33226 0.19098 -0.08300
C 	C 	0.89242 0.31127 0.17276 0.10200
N 	N 	0.91979 0.30393 0.18265 -0.08300
N 	N 	0.93282 0.31788 0.20916 -0.08400
C 	C 	0.87955 0.29871 0.14047 0.00600
C 	C 	0.83699 0.28405 0.10661 0.00500
C 	C 	0.85465 0.27902 0.07709 -0.07000
C 	C 	0.88489 0.28306 0.07977 0.00600
C 	C 	0.89727 0.29283 0.11125 -0.04400
C 	C 	0.95722 0.34567 0.27272 -0.02400
C 	C 	0.84937 0.29389 0.13812 -0.04400
H 	H 	0.94302 0.42935 0.27641 0.04400
H 	H 	0.91189 0.39766 0.23957 0.04700
H 	H 	0.96139 0.32237 0.27172 0.04700
H 	H 	0.99284 0.35432 0.30803 0.04600
H 	H 	0.83549 0.29799 0.16058 0.05200
H 	H 	0.81363 0.28094 0.10497 0.04300
H 	H 	0.92056 0.29650 0.11263 0.05300
H 	H 	0.89881 0.27892 0.05735 0.04500
C 	C 	0.14433 0.79819 0.97501 -0.04200
C 	C 	0.14245 0.77558 0.99983 0.00700
C 	C 	0.12165 0.77702 0.02717 0.00800
C 	C 	0.10581 0.80326 0.03224 0.00000
C 	C 	0.12614 0.82244 0.97738 -0.03500
C 	C 	0.10613 0.82500 0.00545 -0.00100
C 	C 	0.16170 0.75185 0.99831 -0.01400
C 	C 	0.15972 0.72932 0.02331 -0.08500
C 	C 	0.11723 0.75223 0.04878 -0.05700
C 	C 	0.09295 0.80975 0.06504 -0.03700
C 	C 	0.07723 0.85694 0.04328 0.00400
C 	C 	0.08906 0.85061 0.00982 0.01000
C 	C 	0.08316 0.86976 0.98153 -0.05600
C 	C 	0.06976 0.89668 0.98779 0.01300
C 	C 	0.06121 0.90431 0.02192 -0.08200
C 	C 	0.06395 0.88401 0.04930 -0.01000
C 	C 	0.13667 0.72896 0.04745 0.01200
H 	H 	0.13399 0.71071 0.06544 0.03500
H 	H 	0.09850 0.75057 0.06592 0.04300
H 	H 	0.17884 0.75149 0.97868 0.03800
H 	H 	0.16020 0.79719 0.95396 0.04000
H 	H 	0.12927 0.84014 0.95882 0.03900
H 	H 	0.09538 0.79516 0.08723 0.03700
H 	H 	0.08795 0.86357 0.95472 0.04500
H 	H 	0.06650 0.91177 0.96618 0.03700
H 	H 	0.05613 0.88948 0.07540 0.02800
C 	C 	0.07920 0.83643 0.07049 -0.04100
H 	H 	0.07023 0.84126 0.09619 0.03500
C 	C 	0.07944 0.49668 0.68989 -0.00100
C 	C 	0.10038 0.48539 0.71292 -0.03700
C 	C 	0.11764 0.50434 0.73308 -0.02500
C 	C 	0.11414 0.53482 0.73036 -0.00900
C 	C 	0.07703 0.52709 0.68571 -0.03700
C 	C 	0.12911 0.55467 0.75534 0.10700
N 	N 	0.15517 0.54716 0.76942 -0.08400
N 	N 	0.16673 0.56292 0.79549 -0.08200
C 	C 	0.15261 0.58669 0.80817 0.10200
N 	N 	0.12715 0.59486 0.79314 -0.08200
N 	N 	0.11557 0.57908 0.76714 -0.08300
C 	C 	0.16292 0.60125 0.84055 0.00700
C 	C 	0.20258 0.61704 0.87858 0.00600
C 	C 	0.18248 0.62477 0.90473 -0.07000
C 	C 	0.15257 0.62152 0.89820 0.00700
C 	C 	0.14284 0.60989 0.86631 -0.04400
C 	C 	0.09434 0.54609 0.70577 -0.02400
C 	C 	0.19284 0.60522 0.84666 -0.04400
H 	H 	0.10262 0.46192 0.71602 0.04400
H 	H 	0.13289 0.49528 0.75177 0.04800
H 	H 	0.09186 0.56954 0.70280 0.04800
H 	H 	0.06107 0.53602 0.66778 0.04700
H 	H 	0.20855 0.59894 0.82686 0.05200
H 	H 	0.22572 0.61949 0.88326 0.04200
H 	H 	0.11971 0.60690 0.86199 0.05300
H 	H 	0.13683 0.62773 0.91801 0.04500
C 	C 	0.17664 0.61763 0.10295 -0.09100
C 	C 	0.19168 0.59896 0.12581 0.01300
C 	C 	0.17631 0.58095 0.14926 -0.05100
C 	C 	0.14575 0.58151 0.15009 0.00900
C 	C 	0.14614 0.61867 0.10437 0.01500
C 	C 	0.12936 0.56147 0.17342 0.10000
N 	N 	0.13973 0.55474 0.20584 -0.08400
N 	N 	0.12440 0.53737 0.22727 -0.08400
C 	C 	0.09825 0.52629 0.21690 0.10600
N 	N 	0.08803 0.53282 0.18437 -0.08400
N 	N 	0.10336 0.55013 0.16295 -0.08300
C 	C 	0.08082 0.50784 0.24094 -0.01000
C 	C 	0.07769 0.46887 0.28436 -0.03700
C 	C 	0.04726 0.47107 0.28452 -0.00200
C 	C 	0.03370 0.49204 0.26327 -0.03700
C 	C 	0.05038 0.51031 0.24158 -0.02400
C 	C 	0.13080 0.60075 0.12782 -0.05000
C 	C 	0.09442 0.48719 0.26268 -0.02400
H 	H 	0.21521 0.59792 0.12491 0.03500
H 	H 	0.18812 0.56614 0.16622 0.05100
H 	H 	0.10727 0.60183 0.12866 0.05300
H 	H 	0.13431 0.63337 0.08730 0.04000
H 	H 	0.11786 0.48496 0.26233 0.04600
H 	H 	0.08834 0.45272 0.30067 0.04500
H 	H 	0.03965 0.52643 0.22531 0.04600
H 	H 	0.01023 0.49409 0.26350 0.04300
C 	C 	0.87995 0.96399 0.02461 -0.04100
C 	C 	0.90234 0.95199 0.04475 0.00600
C 	C 	0.89660 0.92768 0.06685 0.00900
C 	C 	0.86934 0.91262 0.06399 0.00000
C 	C 	0.85220 0.95149 0.02511 -0.03600
C 	C 	0.84711 0.92446 0.04225 -0.00000
C 	C 	0.93020 0.96485 0.04417 -0.01200
C 	C 	0.95209 0.95464 0.06671 -0.08600
C 	C 	0.91773 0.91980 0.09209 -0.05700
C 	C 	0.86426 0.88564 0.08121 -0.03700
C 	C 	0.81440 0.88453 0.06063 0.00400
C 	C 	0.82000 0.90915 0.03895 0.01000
C 	C 	0.79907 0.91685 0.01333 -0.05700
C 	C 	0.77190 0.90283 0.01266 0.01200
C 	C 	0.76558 0.88004 0.03626 -0.08700
C 	C 	0.78700 0.87071 0.05989 -0.01200
C 	C 	0.94543 0.93266 0.09132 0.01000
H 	H 	0.96157 0.92577 0.11026 0.03100
H 	H 	0.91248 0.90504 0.11342 0.04100
H 	H 	0.93479 0.98277 0.02621 0.04400
H 	H 	0.88373 0.98384 0.00956 0.03700
H 	H 	0.83462 0.96351 0.01323 0.03800
H 	H 	0.88180 0.87380 0.09345 0.03700
H 	H 	0.80416 0.93235 0.99271 0.04500
H 	H 	0.75589 0.90949 0.99342 0.04000
H 	H 	0.78262 0.85222 0.07710 0.02600
C 	C 	0.83665 0.87289 0.08130 -0.04100
H 	H 	0.83293 0.85297 0.09624 0.03400
C 	C 	0.54027 0.01028 0.70041 -0.00100
C 	C 	0.53307 0.98038 0.70168 -0.03700
C 	C 	0.54958 0.96126 0.72215 -0.02400
C 	C 	0.57346 0.97190 0.74150 -0.01000
C 	C 	0.56486 0.02071 0.71846 -0.03700
C 	C 	0.58834 0.95268 0.76682 0.10700
N 	N 	0.61747 0.95543 0.77217 -0.08400
N 	N 	0.63031 0.94062 0.79801 -0.08300
C 	C 	0.61438 0.92275 0.81929 0.10200
N 	N 	0.58543 0.91938 0.81329 -0.08200
N 	N 	0.57262 0.93406 0.78738 -0.08300
C 	C 	0.62759 0.91001 0.85099 0.00700
C 	C 	0.66699 0.88379 0.87923 0.00600
C 	C 	0.65338 0.88726 0.91201 -0.07000
C 	C 	0.62671 0.90191 0.91405 0.00800
C 	C 	0.61383 0.91311 0.88370 -0.04400
C 	C 	0.58144 0.00160 0.73885 -0.02400
C 	C 	0.65424 0.89531 0.84885 -0.04400
H 	H 	0.51421 0.97212 0.68764 0.04700
H 	H 	0.54345 0.93831 0.72356 0.04700
H 	H 	0.59980 0.01012 0.75362 0.04700
H 	H 	0.57066 0.04375 0.71745 0.04400
H 	H 	0.66501 0.89273 0.82371 0.05100
H 	H 	0.68759 0.87255 0.87734 0.04100
H 	H 	0.59335 0.92456 0.88568 0.05300
H 	H 	0.61587 0.90452 0.93915 0.04400
C 	C 	0.51638 0.01268 0.29411 -0.00100
C 	C 	0.50911 0.98277 0.29364 -0.03800
C 	C 	0.52573 0.96321 0.27391 -0.02400
C 	C 	0.54986 0.97342 0.25463 -0.01000
C 	C 	0.54048 0.02289 0.27493 -0.03700
C 	C 	0.56719 0.95296 0.23338 0.10600
N 	N 	0.55381 0.93186 0.21389 -0.08400
N 	N 	0.56924 0.91515 0.19216 -0.08300
C 	C 	0.59849 0.91903 0.18935 0.10000
N 	N 	0.61194 0.93957 0.20958 -0.08300
N 	N 	0.59652 0.95629 0.23125 -0.08400
C 	C 	0.61503 0.90321 0.16219 0.00900
C 	C 	0.62363 0.85917 0.12794 0.01300
C 	C 	0.64526 0.87396 0.10859 -0.09100
C 	C 	0.65198 0.90328 0.11654 0.01500
C 	C 	0.63698 0.91780 0.14317 -0.05000
C 	C 	0.55718 0.00336 0.25532 -0.02300
C 	C 	0.60851 0.87376 0.15457 -0.05100
H 	H 	0.49053 0.97472 0.30843 0.04600
H 	H 	0.51997 0.94014 0.27377 0.04600
H 	H 	0.57558 0.01156 0.24032 0.04700
H 	H 	0.54624 0.04595 0.27519 0.04500
H 	H 	0.59178 0.86218 0.16925 0.05000
H 	H 	0.61823 0.83655 0.12203 0.03400
H 	H 	0.64211 0.94056 0.14863 0.05300
H 	H 	0.66884 0.91484 0.10206 0.04200
C 	C 	0.18987 0.13430 0.98292 -0.04100
C 	C 	0.18948 0.15891 0.00493 0.00800
C 	C 	0.16830 0.16097 0.03184 0.00900
C 	C 	0.14674 0.13860 0.03505 0.00100
C 	C 	0.17064 0.11095 0.98863 -0.03400
C 	C 	0.15022 0.11201 0.01632 -0.00000
C 	C 	0.21059 0.18111 0.00094 -0.01300
C 	C 	0.21174 0.20469 0.02463 -0.08300
C 	C 	0.17036 0.18415 0.05630 -0.05600
C 	C 	0.12084 0.14310 0.05419 -0.03600
C 	C 	0.10620 0.09255 0.04454 0.00500
C 	C 	0.13139 0.08792 0.02388 0.01100
C 	C 	0.13797 0.05913 0.01298 -0.05700
C 	C 	0.11828 0.03622 0.01924 0.01300
C 	C 	0.09255 0.04125 0.03795 -0.08700
C 	C 	0.08675 0.06928 0.05102 -0.00800
C 	C 	0.19144 0.20609 0.05216 0.00800
H 	H 	0.19242 0.22383 0.07103 0.03100
H 	H 	0.15681 0.18449 0.07954 0.04200
H 	H 	0.22662 0.17955 0.98009 0.04800
H 	H 	0.20540 0.13306 0.96152 0.04200
H 	H 	0.17065 0.09291 0.97024 0.04000
H 	H 	0.11531 0.16461 0.06389 0.03800
H 	H 	0.15874 0.05412 0.00116 0.04400
H 	H 	0.12333 0.01436 0.01011 0.03500
H 	H 	0.06699 0.07304 0.06592 0.03900
C 	C 	0.10081 0.12029 0.05871 -0.04000
H 	H 	0.08105 0.12420 0.07350 0.03900
C 	C 	0.32702 0.19886 0.91054 -0.07000
C 	C 	0.34114 0.17202 0.91570 0.00500
C 	C 	0.35779 0.15983 0.88878 -0.04400
C 	C 	0.36036 0.17417 0.85628 0.00600
C 	C 	0.32884 0.21276 0.87759 0.00400
C 	C 	0.37951 0.16222 0.82885 0.10200
N 	N 	0.40614 0.15183 0.83748 -0.08300
N 	N 	0.42297 0.13971 0.81306 -0.08400
C 	C 	0.41361 0.13752 0.77931 0.10600
N 	N 	0.38707 0.14817 0.77058 -0.08300
N 	N 	0.37028 0.16043 0.79499 -0.08200
C 	C 	0.43152 0.12244 0.75287 -0.00900
C 	C 	0.47918 0.10946 0.73040 -0.03700
C 	C 	0.46626 0.08910 0.70747 -0.00100
C 	C 	0.43585 0.08625 0.70638 -0.03700
C 	C 	0.41853 0.10289 0.72893 -0.02400
C 	C 	0.34541 0.20043 0.85058 -0.04400
C 	C 	0.46190 0.12602 0.75303 -0.02400
H 	H 	0.33955 0.16075 0.94071 0.04700
H 	H 	0.36882 0.13929 0.89326 0.05200
H 	H 	0.34717 0.21164 0.82554 0.05200
H 	H 	0.31787 0.23331 0.87305 0.04500
H 	H 	0.47215 0.14136 0.77099 0.04600
H 	H 	0.50263 0.11207 0.73112 0.04300
H 	H 	0.39513 0.09988 0.72857 0.04800
H 	H 	0.42567 0.07061 0.68873 0.04700
C 	C 	0.31924 0.22683 0.10557 -0.09000
C 	C 	0.31135 0.19860 0.11692 0.01500
C 	C 	0.32534 0.18595 0.14568 -0.05000
C 	C 	0.34747 0.20135 0.16339 0.00900
C 	C 	0.34071 0.24265 0.12391 0.01400
C 	C 	0.36378 0.18699 0.19191 0.10000
N 	N 	0.35002 0.16804 0.21402 -0.08300
N 	N 	0.36524 0.15205 0.23670 -0.08400
C 	C 	0.39468 0.15455 0.23795 0.10600
N 	N 	0.40837 0.17420 0.21665 -0.08400
N 	N 	0.39315 0.19018 0.19394 -0.08200
C 	C 	0.41176 0.13432 0.25986 -0.00900
C 	C 	0.42036 0.08517 0.28186 -0.03700
C 	C 	0.44600 0.09492 0.29819 -0.00200
C 	C 	0.45422 0.12453 0.29590 -0.03700
C 	C 	0.43720 0.14416 0.27675 -0.02400
C 	C 	0.35486 0.22993 0.15264 -0.05000
C 	C 	0.40328 0.10476 0.26282 -0.02400
H 	H 	0.29454 0.18633 0.10324 0.04000
H 	H 	0.31946 0.16388 0.15363 0.05300
H 	H 	0.37167 0.24217 0.16632 0.05200
H 	H 	0.34693 0.26449 0.11544 0.03600
H 	H 	0.38381 0.09684 0.24975 0.04700
H 	H 	0.41385 0.06234 0.28357 0.04500
H 	H 	0.44384 0.16694 0.27495 0.04700
H 	H 	0.47397 0.13224 0.30852 0.04600
C 	C 	0.39803 0.32831 0.93238 -0.03900
C 	C 	0.37305 0.33546 0.95165 0.00600
C 	C 	0.36828 0.36488 0.96189 0.01100
C 	C 	0.38887 0.38678 0.95201 -0.00100
C 	C 	0.41963 0.34939 0.92620 -0.03600
C 	C 	0.41630 0.37821 0.93882 0.00300
C 	C 	0.35344 0.31333 0.96210 -0.00800
C 	C 	0.33000 0.31992 0.98431 -0.08600
C 	C 	0.34481 0.37115 0.98459 -0.05800
C 	C 	0.38234 0.41686 0.95366 -0.03400
C 	C 	0.43310 0.42911 0.94319 0.01100
C 	C 	0.43943 0.39910 0.93773 0.00700
C 	C 	0.46882 0.39038 0.93589 -0.05000
C 	C 	0.49120 0.41096 0.94025 0.00300
C 	C 	0.48481 0.44036 0.94693 -0.06200
C 	C 	0.45586 0.44968 0.94612 -0.01800
C 	C 	0.32571 0.34890 0.99523 0.01300
H 	H 	0.30809 0.35407 0.01306 0.02400
H 	H 	0.34225 0.39275 0.99575 0.04300
H 	H 	0.35679 0.29093 0.95361 0.04700
H 	H 	0.40110 0.30615 0.92294 0.04200
H 	H 	0.43817 0.34356 0.91023 0.04000
H 	H 	0.36020 0.42413 0.95727 0.03800
H 	H 	0.47451 0.36751 0.93405 0.04400
H 	H 	0.51356 0.40364 0.94083 0.03600
H 	H 	0.45097 0.47250 0.95126 0.04300
C 	C 	0.40428 0.43780 0.94888 -0.04200
H 	H 	0.39907 0.46084 0.95112 0.03900
C 	C 	0.40207 0.54095 0.00516 -0.04100
C 	C 	0.42218 0.54733 0.03174 0.00600
C 	C 	0.41650 0.56997 0.05612 0.00900
C 	C 	0.38858 0.58345 0.05621 0.00000
C 	C 	0.37644 0.55680 0.00234 -0.03600
C 	C 	0.36837 0.57677 0.02890 -0.00100
C 	C 	0.44885 0.53262 0.03265 -0.01100
C 	C 	0.47089 0.54157 0.05596 -0.08700
C 	C 	0.43937 0.57979 0.07823 -0.05800
C 	C 	0.38027 0.60287 0.08321 -0.03700
C 	C 	0.33559 0.61409 0.05246 0.00200
C 	C 	0.34089 0.59118 0.02830 0.01100
C 	C 	0.31822 0.58253 0.00522 -0.05800
C 	C 	0.29280 0.59903 0.00293 0.01500
C 	C 	0.28888 0.62344 0.02469 -0.08900
C 	C 	0.31006 0.63058 0.04985 -0.00800
C 	C 	0.46599 0.56522 0.07864 0.01000
H 	H 	0.48311 0.57292 0.09599 0.03000
H 	H 	0.43744 0.59964 0.09345 0.04100
H 	H 	0.45286 0.51498 0.01421 0.04100
H 	H 	0.40706 0.52470 0.98533 0.03900
H 	H 	0.36367 0.55427 0.97871 0.03900
H 	H 	0.39265 0.60461 0.10727 0.03600
H 	H 	0.31929 0.56231 0.99060 0.04500
H 	H 	0.27597 0.59255 0.98449 0.04000
H 	H 	0.30638 0.64854 0.06795 0.02300
C 	C 	0.35504 0.61929 0.08008 -0.04100
H 	H 	0.34999 0.63533 0.10014 0.03400
C 	C 	0.67197 0.33697 0.96269 -0.04100
C 	C 	0.69968 0.33660 0.97801 0.00500
C 	C 	0.70826 0.35920 0.00139 0.01000
C 	C 	0.68790 0.38125 0.01047 0.00000
C 	C 	0.65330 0.36032 0.96869 -0.03600
C 	C 	0.66185 0.38367 0.99077 0.00000
C 	C 	0.71914 0.31417 0.96954 -0.01100
C 	C 	0.74763 0.31467 0.98281 -0.08500
C 	C 	0.73738 0.36028 0.01323 -0.05600
C 	C 	0.69177 0.39909 0.04045 -0.03600
C 	C 	0.64822 0.42630 0.02590 0.00400
C 	C 	0.64364 0.40824 0.99614 0.01100
C 	C 	0.62213 0.41608 0.97149 -0.05600
C 	C 	0.60341 0.43927 0.97845 0.01400
C 	C 	0.60653 0.45582 0.00932 -0.08500
C 	C 	0.62921 0.44956 0.03278 -0.01000
C 	C 	0.75664 0.33789 0.00454 0.01200
H 	H 	0.77876 0.33887 0.01433 0.04200
H 	H 	0.74563 0.37902 0.02759 0.04500
H 	H 	0.71233 0.29673 0.95193 0.03200
H 	H 	0.66496 0.31922 0.94568 0.03600
H 	H 	0.63161 0.35929 0.95771 0.03800
H 	H 	0.70903 0.39485 0.05902 0.03900
H 	H 	0.62059 0.40516 0.94632 0.04500
H 	H 	0.58646 0.44439 0.95971 0.04000
H 	H 	0.63231 0.46298 0.05603 0.03300
C 	C 	0.67192 0.42116 0.04818 -0.04000
H 	H 	0.67512 0.43444 0.07150 0.03600
C 	C 	0.62471 0.63676 0.95940 -0.04200
C 	C 	0.59708 0.62805 0.97099 0.00700
C 	C 	0.57658 0.64933 0.98117 0.00800
C 	C 	0.58576 0.67902 0.98504 0.00000
C 	C 	0.63266 0.66629 0.95902 -0.03600
C 	C 	0.61330 0.68787 0.97136 -0.00100
C 	C 	0.59001 0.59817 0.97385 -0.01300
C 	C 	0.56236 0.58943 0.98556 -0.08100
C 	C 	0.54758 0.64031 0.98767 -0.05600
C 	C 	0.57007 0.69874 0.00639 -0.03700
C 	C 	0.60739 0.73610 0.99842 0.00600
C 	C 	0.62240 0.71757 0.97496 0.01000
C 	C 	0.64649 0.72902 0.95628 -0.05700
C 	C 	0.65876 0.75589 0.96607 0.01300
C 	C 	0.64619 0.77239 0.99305 -0.08500
C 	C 	0.61958 0.76338 0.00770 -0.01200
C 	C 	0.54073 0.61048 0.99052 0.00700
H 	H 	0.51888 0.60380 0.99791 0.03700
H 	H 	0.53029 0.65613 0.98977 0.04400
H 	H 	0.60635 0.58176 0.96842 0.04100
H 	H 	0.64038 0.62052 0.95122 0.03900
H 	H 	0.65475 0.67194 0.95176 0.03700
H 	H 	0.55051 0.69178 0.01993 0.03700
H 	H 	0.65540 0.71756 0.93389 0.04500
H 	H 	0.67841 0.76362 0.95317 0.03100
H 	H 	0.60922 0.77681 0.02754 0.03900
C 	C 	0.58108 0.72673 0.01337 -0.04200
H 	H 	0.56931 0.74098 0.03106 0.03900
