data_crystal

_cell_length_a 22.15989
_cell_length_b 22.76790
_cell_length_c 82.41445
_cell_angle_alpha 90.04782
_cell_angle_beta  90.02024
_cell_angle_gamma 119.51250

_symmetry_space_group_name_	'P 1'
_symmetry_space_group_name_H-M	'P 1'

loop_
_symmetry_equiv_pos_as_xyz
  x,y,z

loop_
_atom_site_label
_atom_site_type_symbol
_atom_site_fract_x
_atom_site_fract_y
_atom_site_fract_z
_atom_site_charge
C 	C 	0.09245 0.13318 0.75494 0.30700
C 	C 	0.08397 0.11037 0.79951 0.34900
C 	C 	0.06055 0.90699 0.79412 0.34600
C 	C 	0.05194 0.92174 0.74755 0.34000
Ni	Ni	0.09946 0.02592 0.77392 1.11800
O 	O 	0.04660 0.13120 0.76582 -0.33600
O 	O 	0.11498 0.08877 0.75516 -0.35400
O 	O 	0.01400 0.87108 0.78301 -0.33600
O 	O 	0.09910 0.95440 0.75905 -0.35100
O 	O 	0.01739 0.06847 0.79903 -0.33900
O 	O 	0.12445 0.10840 0.78812 -0.35500
O 	O 	0.98459 0.88753 0.75106 -0.37100
O 	O 	0.09079 0.97323 0.79412 -0.34000
H 	H 	0.00189 0.99685 0.75875 0.18800
Ni	Ni	0.06341 0.95417 0.23549 1.13700
Ni	Ni	0.05329 0.09057 0.23297 1.13200
O 	O 	0.14199 0.03127 0.24886 -0.34600
O 	O 	0.08379 0.08645 0.25600 -0.35400
O 	O 	0.12552 0.00049 0.21552 -0.34200
O 	O 	0.14631 0.10673 0.22352 -0.34000
O 	O 	0.01295 0.99630 0.22917 -0.70500
C 	C 	0.05712 0.96750 0.97614 0.37200
C 	C 	0.14219 0.15460 0.98685 0.30100
C 	C 	0.08886 0.09315 0.03916 0.30600
Ni	Ni	0.09268 0.03085 0.00823 1.11700
O 	O 	0.05499 0.95744 0.02548 -0.32500
O 	O 	0.05471 0.95564 0.99170 -0.35600
O 	O 	0.02097 0.04854 0.04001 -0.34000
O 	O 	0.12632 0.09895 0.02610 -0.36800
O 	O 	0.08127 0.14491 0.98169 -0.33500
H 	H 	0.04304 0.09855 0.00793 0.17500
O 	O 	0.04069 0.78870 0.24503 -0.05900
O 	O 	0.08755 0.85586 0.26679 -0.06900
O 	O 	0.88507 0.00317 0.28647 -0.07900
N 	N 	0.87255 0.86813 0.04907 -0.03000
O 	O 	0.80861 0.84291 0.04426 -0.07500
O 	O 	0.90274 0.92588 0.05658 -0.08100
O 	O 	0.14319 0.98152 0.05921 -0.04600
O 	O 	0.01524 0.33583 0.03934 -0.04300
Br	Br	0.97513 0.20984 0.21765 -0.16900
N 	N 	0.12474 0.30367 0.94679 -0.01700
O 	O 	0.08894 0.27636 0.95986 -0.07100
O 	O 	0.10787 0.26972 0.93327 -0.05300
C 	C 	0.08389 0.82975 0.95820 -0.08200
C 	C 	0.08005 0.93183 0.96504 -0.11300
C 	C 	0.05199 0.86132 0.96630 0.16900
H 	H 	0.06224 0.77558 0.95917 0.10400
O 	O 	0.20125 0.76148 0.97469 -0.06500
O 	O 	0.25244 0.87426 0.97193 -0.06300
C 	C 	0.08712 0.87322 0.80501 -0.10300
C 	C 	0.11231 0.83194 0.79850 0.12900
C 	C 	0.13614 0.79885 0.80892 0.06900
Br	Br	0.16194 0.73558 0.80022 -0.11100
C 	C 	0.11116 0.16876 0.81063 -0.11200
C 	C 	0.07720 0.20732 0.81204 0.13600
C 	C 	0.10095 0.26014 0.82336 0.06700
Br	Br	0.04525 0.30152 0.82833 -0.10600
C 	C 	0.13101 0.25456 0.74949 -0.00400
C 	C 	0.13038 0.19482 0.74483 -0.06900
N 	N 	0.16451 0.37294 0.74490 -0.01800
H 	H 	0.10272 0.25514 0.76016 0.09100
O 	O 	0.10249 0.42077 0.68709 -0.06500
O 	O 	0.10452 0.36986 0.74618 -0.06000
N 	N 	0.02567 0.76135 0.68450 -0.00800
C 	C 	0.13301 0.89965 0.73132 0.01000
C 	C 	0.07563 0.90993 0.73179 -0.08000
C 	C 	0.04119 0.90828 0.71722 0.15900
C 	C 	0.06473 0.89647 0.70244 -0.06900
H 	H 	0.15993 0.90115 0.74242 0.09200
N 	N 	0.98124 0.91662 0.71743 -0.03600
H 	H 	0.03871 0.89588 0.69125 0.10800
O 	O 	0.97812 0.75407 0.67416 -0.08400
O 	O 	0.00794 0.72913 0.69823 -0.05900
O 	O 	0.92319 0.87027 0.71122 -0.06600
O 	O 	0.98544 0.97177 0.72315 -0.07400
C 	C 	0.01894 0.50816 0.41266 -0.04400
C 	C 	0.01305 0.53484 0.39782 0.04600
C 	C 	0.06868 0.59615 0.39218 0.07000
C 	C 	0.08138 0.53901 0.42128 0.13000
N 	N 	0.06285 0.62529 0.37729 -0.01600
N 	N 	0.08764 0.50844 0.43584 -0.02300
O 	O 	0.11497 0.46935 0.43532 -0.06700
O 	O 	0.07031 0.68564 0.37725 -0.05800
O 	O 	0.05731 0.45639 0.37549 -0.05000
C 	C 	0.98313 0.46415 0.63945 -0.11600
C 	C 	0.94782 0.50041 0.64145 0.04600
C 	C 	0.96625 0.54690 0.65430 0.02600
C 	C 	0.02569 0.56323 0.66352 0.04300
C 	C 	0.04381 0.48213 0.64816 0.17000
N 	N 	0.92589 0.57877 0.65779 -0.01400
H 	H 	0.96625 0.42516 0.63024 0.09500
N 	N 	0.00000 0.57729 0.61189 -0.00600
O 	O 	0.05643 0.38642 0.65226 -0.05000
O 	O 	0.89846 0.57227 0.67209 -0.07400
O 	O 	0.03888 0.56978 0.60120 -0.06300
O 	O 	0.02595 0.63126 0.62088 -0.06100
C 	C 	0.10056 0.52692 0.50099 0.06800
C 	C 	0.05068 0.54767 0.49902 0.03900
C 	C 	0.06155 0.59783 0.48758 0.08000
C 	C 	0.12166 0.62647 0.47795 0.13200
Br	Br	0.06374 0.62971 0.53069 -0.09300
Br	Br	0.08726 0.46077 0.51727 -0.10900
C 	C 	0.78211 0.41528 0.58586 0.30200
C 	C 	0.64416 0.20379 0.53705 0.35100
C 	C 	0.80903 0.41835 0.53964 0.35000
C 	C 	0.61529 0.19629 0.58287 0.30400
C 	C 	0.58993 0.36035 0.53180 0.35000
C 	C 	0.56453 0.37145 0.57663 0.30800
Ni	Ni	0.73596 0.30047 0.56226 1.12500
Ni	Ni	0.57573 0.26328 0.55709 1.13000
Ni	Ni	0.69438 0.41755 0.55820 1.13100
O 	O 	0.77304 0.35351 0.58384 -0.33600
O 	O 	0.77815 0.45008 0.57333 -0.34800
O 	O 	0.57994 0.29924 0.53455 -0.35100
O 	O 	0.70599 0.25571 0.53957 -0.34200
O 	O 	0.59281 0.19108 0.54701 -0.35600
O 	O 	0.63244 0.41416 0.57635 -0.36200
O 	O 	0.81757 0.38516 0.55159 -0.35200
O 	O 	0.75251 0.42321 0.53858 -0.35000
O 	O 	0.53397 0.31823 0.56666 -0.34800
O 	O 	0.66885 0.20836 0.57344 -0.33000
O 	O 	0.56980 0.21590 0.57852 -0.35500
O 	O 	0.61946 0.40829 0.54278 -0.35800
O 	O 	0.66797 0.32664 0.56285 -0.72300
H 	H 	0.66129 0.32682 0.57465 0.16500
C 	C 	0.43636 0.81838 0.42316 0.30100
C 	C 	0.22595 0.62415 0.46729 0.34900
C 	C 	0.43989 0.79676 0.46895 0.34900
C 	C 	0.20554 0.62866 0.42360 0.30900
C 	C 	0.40412 0.58762 0.46145 0.35100
C 	C 	0.40580 0.61886 0.41543 0.30400
Ni	Ni	0.31789 0.73985 0.44592 1.12600
Ni	Ni	0.29689 0.58919 0.44101 1.13300
Ni	Ni	0.44965 0.71442 0.44278 1.13100
O 	O 	0.37027 0.79978 0.42600 -0.33400
O 	O 	0.47381 0.80752 0.43408 -0.34800
O 	O 	0.33969 0.57536 0.46109 -0.35500
O 	O 	0.27583 0.68715 0.46723 -0.34100
O 	O 	0.21852 0.58334 0.45518 -0.34600
O 	O 	0.45163 0.68055 0.42044 -0.37100
O 	O 	0.40132 0.81144 0.45950 -0.33800
O 	O 	0.44807 0.74457 0.46582 -0.34900
O 	O 	0.35984 0.57330 0.42566 -0.33800
O 	O 	0.22365 0.68178 0.43332 -0.33400
O 	O 	0.24287 0.59786 0.42232 -0.34800
O 	O 	0.45111 0.63218 0.45160 -0.35600
O 	O 	0.35356 0.68376 0.43979 -0.72000
H 	H 	0.35254 0.68897 0.42796 0.15900
C 	C 	0.23199 0.76043 0.66698 0.31100
C 	C 	0.33064 0.57891 0.63926 0.33200
C 	C 	0.14315 0.57373 0.66385 0.33400
C 	C 	0.42049 0.77016 0.64229 0.30100
C 	C 	0.29552 0.55769 0.69100 0.32900
C 	C 	0.41176 0.74749 0.69722 0.31500
Ni	Ni	0.26973 0.66944 0.64625 1.12200
Ni	Ni	0.38832 0.66388 0.66809 1.12600
Ni	Ni	0.26080 0.66556 0.68567 1.13000
O 	O 	0.21624 0.71910 0.65426 -0.34800
O 	O 	0.26062 0.75225 0.68037 -0.35100
O 	O 	0.36032 0.60349 0.68788 -0.36500
O 	O 	0.31260 0.62087 0.63290 -0.35200
O 	O 	0.33926 0.57808 0.65492 -0.36600
O 	O 	0.34429 0.71262 0.70098 -0.34400
O 	O 	0.18885 0.57712 0.65331 -0.35000
O 	O 	0.16304 0.61743 0.67594 -0.36200
O 	O 	0.43603 0.74409 0.68276 -0.36400
O 	O 	0.35657 0.75711 0.63884 -0.34200
O 	O 	0.43319 0.72201 0.64775 -0.35700
O 	O 	0.24606 0.57374 0.69098 -0.35700
O 	O 	0.31379 0.68156 0.66644 -0.72200
H 	H 	0.34002 0.73115 0.66698 0.17100
C 	C 	0.87333 0.92633 0.79810 0.35300
C 	C 	0.85740 0.94532 0.75470 0.34200
Ni	Ni	0.96518 0.04562 0.77713 1.10200
Ni	Ni	0.94780 0.89713 0.77264 1.12300
O 	O 	0.87593 0.97525 0.78918 -0.34400
O 	O 	0.91597 0.90302 0.79535 -0.36300
O 	O 	0.90442 0.00989 0.75649 -0.38300
O 	O 	0.86221 0.89611 0.76248 -0.35400
O 	O 	0.00299 0.99224 0.77061 -0.69500
C 	C 	0.45575 0.70970 0.92045 0.30800
C 	C 	0.26089 0.51099 0.87417 0.35000
C 	C 	0.46875 0.70842 0.87486 0.34500
C 	C 	0.25155 0.52374 0.92054 0.30300
C 	C 	0.26630 0.70524 0.86970 0.34900
C 	C 	0.25963 0.72754 0.91397 0.31000
Ni	Ni	0.37344 0.59540 0.89738 1.12400
Ni	Ni	0.23090 0.60216 0.89451 1.13100
Ni	Ni	0.37640 0.73873 0.89451 1.12900
O 	O 	0.42563 0.64337 0.91841 -0.33400
O 	O 	0.45846 0.75032 0.90846 -0.35100
O 	O 	0.24488 0.64085 0.87204 -0.35200
O 	O 	0.32782 0.55221 0.87537 -0.34900
O 	O 	0.21775 0.51462 0.88453 -0.34700
O 	O 	0.32809 0.75362 0.91338 -0.36600
O 	O 	0.46443 0.66316 0.88540 -0.33900
O 	O 	0.42100 0.72658 0.87428 -0.35200
O 	O 	0.21662 0.67696 0.90428 -0.34900
O 	O 	0.29295 0.51610 0.91014 -0.33700
O 	O 	0.21497 0.55314 0.91607 -0.34500
O 	O 	0.31001 0.75104 0.87992 -0.35100
O 	O 	0.32720 0.64538 0.89921 -0.72100
H 	H 	0.32501 0.64838 0.91109 0.16400
C 	C 	0.76676 0.48225 0.08984 0.31000
C 	C 	0.55522 0.27842 0.13524 0.34900
C 	C 	0.76544 0.46794 0.13431 0.35100
C 	C 	0.53047 0.28797 0.09291 0.31200
C 	C 	0.74577 0.26658 0.13121 0.35000
C 	C 	0.73159 0.26997 0.08455 0.30400
Ni	Ni	0.64247 0.39579 0.11303 1.12500
Ni	Ni	0.62942 0.24787 0.10991 1.13200
Ni	Ni	0.77868 0.37964 0.10949 1.13100
O 	O 	0.71928 0.47984 0.10027 -0.33800
O 	O 	0.78780 0.43677 0.08992 -0.35700
O 	O 	0.69973 0.22746 0.12037 -0.35000
O 	O 	0.55667 0.32711 0.12643 -0.35400
O 	O 	0.59905 0.25650 0.13255 -0.35100
O 	O 	0.77929 0.30600 0.09565 -0.34600
O 	O 	0.69838 0.42747 0.13444 -0.34400
O 	O 	0.80340 0.46485 0.12247 -0.36000
O 	O 	0.66455 0.23629 0.08829 -0.35100
O 	O 	0.57758 0.35296 0.09326 -0.34600
O 	O 	0.54072 0.24062 0.09995 -0.34700
O 	O 	0.77313 0.33244 0.13046 -0.35300
O 	O 	0.68143 0.34283 0.10694 -0.72300
H 	H 	0.67810 0.34477 0.09505 0.17000
C 	C 	0.95130 0.85921 0.21133 0.32700
C 	C 	0.12936 0.06724 0.25931 0.32400
C 	C 	0.94339 0.86958 0.25623 0.29900
C 	C 	0.15552 0.06666 0.21316 0.32900
C 	C 	0.92238 0.05470 0.25088 0.30600
C 	C 	0.94879 0.06526 0.20764 0.30200
Ni	Ni	0.91503 0.94739 0.23081 1.12800
O 	O 	0.99466 0.86508 0.22321 -0.34700
O 	O 	0.91576 0.89225 0.21160 -0.34400
O 	O 	0.97575 0.10161 0.24285 -0.36200
O 	O 	0.90141 0.01329 0.21638 -0.36900
O 	O 	0.00722 0.91908 0.25668 -0.32800
O 	O 	0.90121 0.86700 0.24464 -0.34300
O 	O 	0.01613 0.09683 0.21121 -0.32500
O 	O 	0.91072 0.99254 0.25120 -0.35400
H 	H 	0.01749 0.99590 0.21728 0.18500
C 	C 	0.57179 0.38374 0.34561 0.31600
C 	C 	0.64703 0.22857 0.29898 0.32500
C 	C 	0.48469 0.20183 0.33592 0.32100
C 	C 	0.73694 0.41710 0.30706 0.30500
C 	C 	0.66262 0.18527 0.34913 0.32600
C 	C 	0.77296 0.37534 0.35829 0.31500
Ni	Ni	0.59326 0.31061 0.31608 1.12100
Ni	Ni	0.72949 0.30262 0.32718 1.12500
Ni	Ni	0.61752 0.28518 0.35365 1.12800
O 	O 	0.54748 0.35193 0.33145 -0.33900
O 	O 	0.61227 0.37091 0.35516 -0.35500
O 	O 	0.72239 0.23528 0.34415 -0.36400
O 	O 	0.62400 0.27124 0.29685 -0.34300
O 	O 	0.66884 0.22203 0.31322 -0.38300
O 	O 	0.71310 0.32710 0.36442 -0.35200
O 	O 	0.52027 0.21346 0.32251 -0.37000
O 	O 	0.51358 0.23911 0.34885 -0.35400
O 	O 	0.78828 0.37692 0.34267 -0.36400
O 	O 	0.67151 0.40327 0.30816 -0.33700
O 	O 	0.75384 0.36846 0.30803 -0.35200
O 	O 	0.60903 0.19402 0.35139 -0.38000
O 	O 	0.65416 0.31611 0.33261 -0.72200
H 	H 	0.67949 0.36513 0.33456 0.17500
C 	C 	0.93474 0.12448 0.00596 0.29300
C 	C 	0.85453 0.94554 0.99362 0.32700
C 	C 	0.98868 0.91240 0.02698 0.31000
Ni	Ni	0.99165 0.05305 0.98365 1.10400
Ni	Ni	0.95027 0.01503 0.02135 1.11000
O 	O 	0.93052 0.09509 0.99164 -0.34400
O 	O 	0.94997 0.10329 0.01959 -0.37500
O 	O 	0.04653 0.01577 0.97064 -0.36700
O 	O 	0.90917 0.95633 0.98536 -0.34500
O 	O 	0.86194 0.97623 0.00760 -0.33500
O 	O 	0.15121 0.10282 0.99114 -0.36200
O 	O 	0.94128 0.92351 0.02059 -0.36000
O 	O 	0.01946 0.05033 0.00501 -0.71000
C 	C 	0.27871 0.13256 0.28859 -0.06800
C 	C 	0.24407 0.10254 0.30307 0.02500
C 	C 	0.17106 0.06949 0.30361 0.06900
C 	C 	0.13352 0.06200 0.28931 0.00100
C 	C 	0.16835 0.08798 0.27459 -0.08000
C 	C 	0.24131 0.12643 0.27441 0.13200
C 	C 	0.28525 0.10714 0.31757 0.03100
N 	N 	0.13495 0.04426 0.31863 -0.02600
H 	H 	0.07732 0.03378 0.28955 0.08200
N 	N 	0.27750 0.16040 0.25991 -0.02300
H 	H 	0.33490 0.16099 0.28840 0.08700
C 	C 	0.32138 0.07066 0.31808 0.06200
C 	C 	0.38265 0.09584 0.32717 0.00100
C 	C 	0.40896 0.15807 0.33517 -0.08900
C 	C 	0.36522 0.18616 0.33737 0.12700
C 	C 	0.30348 0.16061 0.32845 -0.07300
N 	N 	0.30007 0.01221 0.30806 -0.02500
H 	H 	0.41364 0.07103 0.32650 0.07300
N 	N 	0.38541 0.24312 0.34782 -0.02300
H 	H 	0.27301 0.18597 0.32893 0.09500
O 	O 	0.33530 0.16214 0.25608 -0.05600
O 	O 	0.25680 0.19568 0.25156 -0.06400
O 	O 	0.09137 0.06308 0.32359 -0.06400
O 	O 	0.14166 0.99876 0.32671 -0.04100
O 	O 	0.38601 0.29699 0.34235 -0.08200
O 	O 	0.39540 0.23826 0.36319 -0.07000
O 	O 	0.34515 0.00668 0.29902 -0.07500
O 	O 	0.23587 0.96392 0.30819 -0.04200
C 	C 	0.94374 0.71717 0.27444 -0.05900
C 	C 	0.87772 0.68353 0.28146 0.02700
C 	C 	0.83555 0.71393 0.28141 0.07300
C 	C 	0.85887 0.77642 0.27376 0.00200
C 	C 	0.92387 0.80889 0.26615 -0.06800
C 	C 	0.96702 0.77942 0.26677 0.11200
C 	C 	0.85143 0.61484 0.28802 0.02900
N 	N 	0.76870 0.68110 0.28894 -0.01800
H 	H 	0.82565 0.79890 0.27341 0.08300
N 	N 	0.03323 0.81108 0.25898 -0.02100
H 	H 	0.97642 0.69409 0.27458 0.08900
C 	C 	0.82587 0.55880 0.27751 0.07200
C 	C 	0.79456 0.49347 0.28393 0.00100
C 	C 	0.78786 0.48346 0.30075 -0.07200
C 	C 	0.81825 0.53960 0.31125 0.12500
C 	C 	0.85002 0.60505 0.30484 -0.06400
N 	N 	0.82902 0.56799 0.26030 -0.01800
H 	H 	0.77131 0.45050 0.27581 0.09200
N 	N 	0.81538 0.53026 0.32845 -0.02700
H 	H 	0.87149 0.64815 0.31295 0.09300
O 	O 	0.75490 0.71089 0.30067 -0.06300
O 	O 	0.72009 0.62385 0.28328 -0.05700
O 	O 	0.87188 0.54657 0.33654 -0.07200
O 	O 	0.75730 0.51035 0.33615 -0.07300
O 	O 	0.86592 0.54998 0.25151 -0.05800
O 	O 	0.79044 0.58888 0.25329 -0.04800
C 	C 	0.80239 0.09099 0.27620 -0.06800
C 	C 	0.76527 0.10301 0.26406 0.02600
C 	C 	0.77756 0.09562 0.24761 0.06800
C 	C 	0.82820 0.07849 0.24348 -0.00100
C 	C 	0.86642 0.06807 0.25560 -0.08300
C 	C 	0.85257 0.07316 0.27205 0.12500
C 	C 	0.71901 0.12987 0.26863 0.03200
N 	N 	0.73942 0.10649 0.23505 -0.01800
H 	H 	0.83801 0.07356 0.23082 0.07800
N 	N 	0.89093 0.06246 0.28456 -0.02500
H 	H 	0.79315 0.09676 0.28886 0.08600
C 	C 	0.65944 0.09098 0.27810 0.06100
C 	C 	0.62772 0.12272 0.28623 0.00300
C 	C 	0.65556 0.19285 0.28511 -0.09000
C 	C 	0.70767 0.22923 0.27356 0.12900
C 	C 	0.73994 0.19780 0.26556 -0.07000
N 	N 	0.63324 0.01999 0.28014 -0.03500
H 	H 	0.58509 0.09379 0.29447 0.07000
N 	N 	0.73117 0.29923 0.27076 -0.02500
H 	H 	0.78363 0.22712 0.25762 0.09800
O 	O 	0.92741 0.11052 0.29481 -0.07900
O 	O 	0.77219 0.14743 0.22315 -0.05800
O 	O 	0.67200 0.07215 0.23493 -0.05800
O 	O 	0.68825 0.31802 0.26530 -0.06200
O 	O 	0.79671 0.34324 0.27214 -0.08100
O 	O 	0.61942 0.99362 0.29459 -0.05500
O 	O 	0.62074 0.98132 0.26752 -0.03900
C 	C 	0.85392 0.60520 0.05535 -0.06200
C 	C 	0.88809 0.66660 0.06384 0.01700
C 	C 	0.88546 0.66653 0.08094 0.07100
C 	C 	0.84470 0.60601 0.08925 -0.00100
C 	C 	0.80814 0.54506 0.08073 -0.07400
C 	C 	0.81409 0.54436 0.06371 0.12400
C 	C 	0.91640 0.73100 0.05483 0.05800
N 	N 	0.92332 0.72817 0.08989 -0.01800
H 	H 	0.84220 0.60626 0.10239 0.08400
N 	N 	0.77850 0.48230 0.05485 -0.02500
H 	H 	0.85596 0.60501 0.04221 0.09000
C 	C 	0.97724 0.75501 0.04543 -0.00300
C 	C 	0.00204 0.81571 0.03677 0.09500
C 	C 	0.96693 0.85284 0.03753 -0.12700
C 	C 	0.90736 0.82962 0.04741 0.15200
C 	C 	0.88198 0.76853 0.05572 -0.08800
N 	N 	0.01369 0.71778 0.04456 0.00300
H 	H 	0.04790 0.83330 0.02928 0.06700
H 	H 	0.83555 0.75046 0.06305 0.10100
O 	O 	0.81279 0.46445 0.04510 -0.06900
O 	O 	0.71134 0.44576 0.05575 -0.07300
O 	O 	0.89252 0.74378 0.10115 -0.05700
O 	O 	0.98945 0.76675 0.08742 -0.06200
O 	O 	0.02694 0.70054 0.03052 -0.05500
O 	O 	0.03764 0.70507 0.05771 -0.04400
C 	C 	0.21015 0.12057 0.07292 -0.06900
C 	C 	0.24897 0.19125 0.07265 0.03200
C 	C 	0.22136 0.22823 0.06499 0.07100
C 	C 	0.16006 0.19404 0.05589 0.00300
C 	C 	0.12696 0.12364 0.05421 -0.07400
C 	C 	0.14868 0.08663 0.06394 0.12800
C 	C 	0.32188 0.22530 0.07833 0.03000
N 	N 	0.25683 0.30045 0.06590 -0.01700
H 	H 	0.14133 0.22260 0.04909 0.08400
N 	N 	0.11171 0.01442 0.06359 -0.04900
H 	H 	0.22963 0.09186 0.07938 0.09400
C 	C 	0.33751 0.22111 0.09473 0.06900
C 	C 	0.40608 0.24244 0.09933 0.00200
C 	C 	0.45956 0.26886 0.08780 -0.07600
C 	C 	0.44460 0.27622 0.07156 0.12700
C 	C 	0.37587 0.25450 0.06691 -0.06700
N 	N 	0.28369 0.19444 0.10670 -0.01800
H 	H 	0.41784 0.23868 0.11193 0.08100
N 	N 	0.49868 0.30406 0.05968 -0.02400
H 	H 	0.36409 0.25782 0.05429 0.09200
O 	O 	0.04795 0.98154 0.06866 -0.02000
O 	O 	0.26802 0.33609 0.05278 -0.06200
O 	O 	0.27542 0.33050 0.07992 -0.05400
O 	O 	0.53562 0.27514 0.05674 -0.07400
O 	O 	0.50741 0.35517 0.05092 -0.06400
O 	O 	0.27871 0.14801 0.11668 -0.05600
O 	O 	0.24259 0.21966 0.10833 -0.04800
C 	C 	0.82783 0.21894 0.05525 -0.07000
C 	C 	0.81501 0.24151 0.04051 0.02900
C 	C 	0.76988 0.26858 0.04009 0.06900
C 	C 	0.73994 0.27473 0.05453 -0.00200
C 	C 	0.75451 0.25388 0.06933 -0.07500
C 	C 	0.79719 0.22409 0.06960 0.13000
C 	C 	0.84447 0.23087 0.02547 0.02600
N 	N 	0.75422 0.28970 0.02505 -0.01700
H 	H 	0.70704 0.29757 0.05430 0.08100
N 	N 	0.80861 0.19802 0.08442 -0.02300
H 	H 	0.86052 0.19587 0.05548 0.08700
C 	C 	0.91701 0.26479 0.02333 0.07700
C 	C 	0.94737 0.23404 0.01425 -0.05100
C 	C 	0.90582 0.16992 0.00749 -0.06300
C 	C 	0.83337 0.14308 0.00699 0.11900
C 	C 	0.80298 0.17399 0.01595 -0.06600
N 	N 	0.96014 0.32707 0.03164 -0.03400
H 	H 	0.00336 0.25703 0.01375 0.10800
N 	N 	0.79017 0.08085 0.99879 -0.02300
H 	H 	0.74698 0.14982 0.01682 0.09100
O 	O 	0.87106 0.21205 0.08846 -0.06000
O 	O 	0.75610 0.15539 0.09306 -0.06200
O 	O 	0.69000 0.26724 0.02080 -0.07000
O 	O 	0.80392 0.33506 0.01621 -0.06400
O 	O 	0.75062 0.02678 0.00710 -0.08700
O 	O 	0.78486 0.07992 0.98307 -0.07000
O 	O 	0.94492 0.37542 0.03130 -0.06800
C 	C 	0.77661 0.23724 0.14218 -0.10600
C 	C 	0.84542 0.25105 0.13972 0.13300
C 	C 	0.87358 0.22023 0.14963 0.06900
C 	C 	0.83334 0.17594 0.16209 0.02200
C 	C 	0.76440 0.16152 0.16445 0.06900
C 	C 	0.73625 0.19258 0.15460 0.12800
C 	C 	0.86515 0.14848 0.17348 0.01700
C 	C 	0.86235 0.08643 0.17015 0.07400
C 	C 	0.89217 0.06035 0.18107 0.10400
C 	C 	0.92401 0.09585 0.19542 -0.09500
C 	C 	0.92848 0.15891 0.19850 0.12000
C 	C 	0.89864 0.18484 0.18760 0.07100
Br	Br	0.70887 0.09952 0.18127 -0.11800
Br	Br	0.90097 0.31168 0.12267 -0.15600
Br	Br	0.89145 0.97714 0.17616 -0.10600
Br	Br	0.90296 0.27010 0.19204 -0.11700
Br	Br	0.64332 0.17590 0.15854 -0.13200
Br	Br	0.96751 0.23881 0.14622 -0.12100
Br	Br	0.81721 0.03713 0.15070 -0.13000
C 	C 	0.21487 0.09777 0.20194 -0.09900
C 	C 	0.27639 0.09642 0.20560 0.13000
C 	C 	0.33330 0.12660 0.19499 0.06900
C 	C 	0.32914 0.15867 0.18077 0.02000
C 	C 	0.26782 0.16024 0.17713 0.07100
C 	C 	0.21022 0.12857 0.18754 0.12300
C 	C 	0.38848 0.18874 0.16938 0.02100
C 	C 	0.44200 0.25573 0.17162 0.06800
C 	C 	0.49900 0.28377 0.16098 0.13000
C 	C 	0.50121 0.24576 0.14772 -0.11200
C 	C 	0.44838 0.17817 0.14571 0.12900
C 	C 	0.39217 0.14972 0.15656 0.06800
Br	Br	0.26298 0.20576 0.15785 -0.10900
Br	Br	0.28250 0.05268 0.22509 -0.13600
Br	Br	0.57545 0.37324 0.16492 -0.12800
Br	Br	0.31970 0.05732 0.15383 -0.11500
Br	Br	0.12382 0.12393 0.18161 -0.12900
Br	Br	0.41701 0.12364 0.19980 -0.11300
Br	Br	0.43660 0.30916 0.18915 -0.11300
Br	Br	0.45227 0.12483 0.12796 -0.17300
C 	C 	0.79629 0.52572 0.14554 -0.11300
C 	C 	0.77441 0.57441 0.14520 0.13200
C 	C 	0.80492 0.63019 0.15571 0.06600
C 	C 	0.85889 0.63878 0.16617 0.02200
C 	C 	0.88274 0.59175 0.16604 0.06800
C 	C 	0.85028 0.53434 0.15603 0.12900
C 	C 	0.88664 0.69429 0.17818 0.01800
C 	C 	0.93978 0.75909 0.17374 0.07500
C 	C 	0.96059 0.81348 0.18457 0.10600
C 	C 	0.92930 0.80272 0.19995 -0.09800
C 	C 	0.87810 0.73740 0.20461 0.12700
C 	C 	0.85646 0.68335 0.19369 0.06900
Br	Br	0.95964 0.60607 0.17966 -0.11900
Br	Br	0.70424 0.56604 0.13003 -0.17500
Br	Br	0.03173 0.90281 0.17840 -0.08600
Br	Br	0.78437 0.59432 0.19982 -0.11000
Br	Br	0.87753 0.46595 0.15722 -0.13300
Br	Br	0.77216 0.69462 0.15601 -0.11000
Br	Br	0.98335 0.77309 0.15276 -0.12100
Br	Br	0.83747 0.72201 0.22596 -0.14000
C 	C 	0.58360 0.74362 0.95461 -0.06800
C 	C 	0.59399 0.80583 0.96035 0.03200
C 	C 	0.55331 0.83266 0.95417 0.07000
C 	C 	0.50631 0.79929 0.94154 -0.00000
C 	C 	0.50043 0.74007 0.93480 -0.06900
C 	C 	0.53903 0.71168 0.94155 0.13700
C 	C 	0.65703 0.84879 0.96984 0.03400
N 	N 	0.56193 0.89541 0.96020 -0.01700
H 	H 	0.47531 0.82018 0.93675 0.07600
N 	N 	0.53659 0.65300 0.93454 -0.02200
H 	H 	0.61469 0.72284 0.95940 0.09400
C 	C 	0.66279 0.83317 0.98613 0.06900
C 	C 	0.72742 0.86628 0.99394 0.00800
C 	C 	0.78651 0.91342 0.98550 -0.07700
C 	C 	0.78009 0.92996 0.96931 0.13900
C 	C 	0.71532 0.89868 0.96175 -0.06500
N 	N 	0.60366 0.78225 0.99460 -0.01600
H 	H 	0.73189 0.85422 0.00645 0.08200
N 	N 	0.83974 0.97637 0.96027 -0.01800
H 	H 	0.71101 0.91055 0.94921 0.09900
O 	O 	0.56452 0.65694 0.92042 -0.06000
O 	O 	0.51487 0.59844 0.94315 -0.06500
O 	O 	0.57023 0.94281 0.95014 -0.06100
O 	O 	0.55884 0.90421 0.97571 -0.05200
O 	O 	0.87073 0.95379 0.95081 -0.07600
O 	O 	0.85749 0.03994 0.95988 -0.10900
O 	O 	0.60766 0.73413 0.00214 -0.06900
O 	O 	0.54698 0.78588 0.99545 -0.05600
C 	C 	0.28306 0.46234 0.95975 -0.06300
C 	C 	0.23452 0.39354 0.95836 0.02800
C 	C 	0.17982 0.37231 0.94705 0.07400
C 	C 	0.18041 0.41835 0.93570 0.00300
C 	C 	0.23427 0.48544 0.93574 -0.06900
C 	C 	0.28206 0.50889 0.94871 0.12100
C 	C 	0.24292 0.34343 0.96809 0.03000
H 	H 	0.14131 0.40097 0.92625 0.08900
N 	N 	0.32941 0.57979 0.95071 -0.02400
H 	H 	0.32222 0.47945 0.96917 0.09100
C 	C 	0.25327 0.29376 0.96035 0.07000
C 	C 	0.23329 0.23237 0.96831 0.00100
C 	C 	0.20268 0.22077 0.98371 -0.07600
C 	C 	0.20961 0.27636 0.99269 0.12300
C 	C 	0.22752 0.33714 0.98470 -0.06600
N 	N 	0.27942 0.30373 0.94408 -0.01600
H 	H 	0.23391 0.19127 0.96180 0.07600
N 	N 	0.19249 0.26918 0.00959 -0.02600
H 	H 	0.22499 0.37746 0.99111 0.09100
O 	O 	0.30929 0.62351 0.94758 -0.09200
O 	O 	0.39032 0.60020 0.95705 -0.07400
O 	O 	0.22064 0.24490 0.01941 -0.08300
O 	O 	0.15045 0.28877 0.01524 -0.08400
O 	O 	0.33365 0.36038 0.94004 -0.06900
O 	O 	0.24997 0.25565 0.93341 -0.05900
C 	C 	0.14322 0.86771 0.94875 0.04400
C 	C 	0.16974 0.93780 0.94699 0.05100
C 	C 	0.13746 0.96927 0.95497 0.05600
C 	C 	0.17488 0.83318 0.93992 0.02800
N 	N 	0.23033 0.97738 0.93739 -0.00100
H 	H 	0.15936 0.02350 0.95402 0.04600
N 	N 	0.99099 0.82167 0.97578 -0.04100
C 	C 	0.21152 0.80648 0.94830 0.06900
C 	C 	0.23939 0.77219 0.93970 0.00000
C 	C 	0.23173 0.76507 0.92281 -0.07700
C 	C 	0.19673 0.79348 0.91442 0.13500
C 	C 	0.16747 0.82615 0.92305 -0.06500
N 	N 	0.22063 0.81425 0.96552 -0.01800
H 	H 	0.26703 0.75121 0.94616 0.07800
N 	N 	0.19339 0.79178 0.89709 -0.02500
H 	H 	0.13990 0.84716 0.91657 0.10300
O 	O 	0.99076 0.78039 0.98672 -0.08700
O 	O 	0.93479 0.82472 0.97301 -0.07400
O 	O 	0.22851 0.01496 0.92574 -0.08900
O 	O 	0.28852 0.97954 0.94103 -0.05800
O 	O 	0.13365 0.75826 0.88989 -0.05400
O 	O 	0.24782 0.83246 0.88871 -0.05900
C 	C 	0.23403 0.72625 0.85684 -0.10200
C 	C 	0.27610 0.78376 0.84736 0.13200
C 	C 	0.24568 0.81334 0.83778 0.06900
C 	C 	0.17304 0.78215 0.83644 0.02300
C 	C 	0.13081 0.72173 0.84486 0.07000
C 	C 	0.16091 0.69479 0.85544 0.13500
C 	C 	0.14114 0.81173 0.82571 0.02100
C 	C 	0.11770 0.85422 0.83222 0.07100
C 	C 	0.08836 0.88292 0.82194 0.12800
Br	Br	0.03156 0.67605 0.84189 -0.10400
Br	Br	0.37536 0.82074 0.84701 -0.12500
Br	Br	0.04689 0.93270 0.83112 -0.09600
Br	Br	0.10148 0.61735 0.86859 -0.15600
Br	Br	0.30344 0.89747 0.82674 -0.10900
Br	Br	0.12692 0.87386 0.85515 -0.10300
Br	Br	0.11912 0.82450 0.77533 -0.14300
C 	C 	0.23545 0.45219 0.86327 -0.11100
C 	C 	0.20919 0.38663 0.86972 0.12800
C 	C 	0.18411 0.33078 0.85924 0.06800
C 	C 	0.19211 0.34080 0.84235 0.02000
C 	C 	0.22163 0.40660 0.83596 0.06900
C 	C 	0.23816 0.46141 0.84636 0.12800
C 	C 	0.16475 0.28197 0.83129 0.02100
C 	C 	0.20163 0.24692 0.82894 0.06800
C 	C 	0.17244 0.18767 0.81953 0.13100
Br	Br	0.24004 0.42152 0.81303 -0.11700
Br	Br	0.20954 0.37319 0.89280 -0.14600
Br	Br	0.21346 0.13004 0.81979 -0.14700
Br	Br	0.25568 0.54662 0.83751 -0.11700
Br	Br	0.13656 0.24040 0.86796 -0.11300
Br	Br	0.29253 0.28086 0.83834 -0.12400
Br	Br	0.00328 0.19318 0.79736 -0.17600
C 	C 	0.52959 0.74120 0.86399 -0.10900
C 	C 	0.52033 0.74357 0.84711 0.12800
C 	C 	0.57828 0.77925 0.83701 0.06900
C 	C 	0.64551 0.80285 0.84326 0.01900
C 	C 	0.65468 0.79598 0.85991 0.06900
C 	C 	0.59740 0.77044 0.87043 0.12700
C 	C 	0.70634 0.83417 0.83229 0.02300
C 	C 	0.72032 0.79344 0.82181 0.06500
C 	C 	0.77308 0.82357 0.81012 0.13200
C 	C 	0.81848 0.89401 0.81047 -0.12100
C 	C 	0.80834 0.93403 0.82203 0.15200
C 	C 	0.74959 0.90477 0.83211 0.06200
Br	Br	0.74529 0.81984 0.86823 -0.12300
Br	Br	0.42961 0.69220 0.83760 -0.11100
Br	Br	0.77835 0.76928 0.79278 -0.17900
Br	Br	0.72682 0.96143 0.84520 -0.10600
Br	Br	0.61256 0.78243 0.89351 -0.14400
Br	Br	0.56573 0.79745 0.81479 -0.11100
Br	Br	0.66777 0.69647 0.82362 -0.12300
Br	Br	0.87714 0.02772 0.82484 -0.18800
C 	C 	0.71416 0.91814 0.72537 -0.06800
C 	C 	0.65589 0.88702 0.73553 0.03300
C 	C 	0.66497 0.88088 0.75226 0.06700
C 	C 	0.73130 0.90095 0.75837 0.00600
C 	C 	0.78919 0.92914 0.74808 -0.08100
C 	C 	0.78088 0.94020 0.73159 0.13400
C 	C 	0.58559 0.85205 0.72827 0.03000
N 	N 	0.60663 0.85284 0.76300 -0.01800
H 	H 	0.73781 0.89448 0.77117 0.08200
N 	N 	0.83965 0.97244 0.72106 -0.01200
H 	H 	0.70751 0.92375 0.71253 0.09500
C 	C 	0.55910 0.88833 0.71981 0.07000
C 	C 	0.49765 0.85327 0.71079 0.00300
C 	C 	0.46228 0.78250 0.71025 -0.07400
C 	C 	0.48545 0.74654 0.71994 0.12800
C 	C 	0.54730 0.78141 0.72871 -0.06500
N 	N 	0.59493 0.96061 0.72016 -0.01800
H 	H 	0.47871 0.88113 0.70378 0.08800
N 	N 	0.44817 0.67434 0.72023 -0.02500
H 	H 	0.56667 0.75338 0.73550 0.09600
O 	O 	0.88582 0.03533 0.72344 -0.09200
O 	O 	0.84130 0.94247 0.70776 -0.06100
O 	O 	0.59604 0.80331 0.77259 -0.05600
O 	O 	0.56571 0.87859 0.76367 -0.05200
O 	O 	0.38450 0.64259 0.72541 -0.06500
O 	O 	0.48046 0.64084 0.71725 -0.08100
O 	O 	0.60881 0.99451 0.70669 -0.06300
O 	O 	0.61033 0.99244 0.73398 -0.05600
C 	C 	0.18954 0.37672 0.70432 -0.06900
C 	C 	0.23444 0.37214 0.71552 0.03000
C 	C 	0.30423 0.42394 0.71633 0.07200
C 	C 	0.32619 0.48287 0.70710 0.00300
C 	C 	0.27897 0.49023 0.69711 -0.07600
C 	C 	0.21165 0.43481 0.69493 0.13500
C 	C 	0.20672 0.31451 0.72684 0.02900
N 	N 	0.35299 0.41667 0.72633 -0.01700
H 	H 	0.37908 0.52354 0.70817 0.09100
N 	N 	0.16576 0.43747 0.68312 -0.02400
H 	H 	0.13689 0.33536 0.70308 0.09400
C 	C 	0.16826 0.31393 0.74051 0.07200
C 	C 	0.16899 0.19564 0.73105 0.12500
C 	C 	0.20798 0.25574 0.72241 -0.06700
N 	N 	0.16560 0.13493 0.72523 -0.02200
H 	H 	0.23642 0.25575 0.71171 0.09000
O 	O 	0.18730 0.45670 0.66839 -0.05300
O 	O 	0.40890 0.42150 0.71994 -0.06800
O 	O 	0.34436 0.41072 0.74197 -0.05900
O 	O 	0.11404 0.09390 0.71611 -0.07600
O 	O 	0.21811 0.12506 0.72732 -0.08200
O 	O 	0.22070 0.42861 0.74856 -0.05400
C 	C 	0.20837 0.90224 0.68109 -0.06300
C 	C 	0.14004 0.86387 0.68676 0.02900
C 	C 	0.09721 0.79932 0.68010 0.07000
C 	C 	0.12653 0.76952 0.67040 0.00400
C 	C 	0.19853 0.80202 0.66822 -0.07500
C 	C 	0.23840 0.87107 0.67203 0.13300
C 	C 	0.12026 0.88334 0.70213 0.03500
H 	H 	0.09456 0.71816 0.66620 0.07700
N 	N 	0.30985 0.90868 0.66733 -0.02400
H 	H 	0.23998 0.95405 0.68508 0.09800
C 	C 	0.15405 0.88432 0.71671 0.06700
N 	N 	0.20827 0.86738 0.71679 -0.01600
O 	O 	0.35580 0.95181 0.67732 -0.05900
O 	O 	0.32851 0.90187 0.65279 -0.06100
O 	O 	0.27029 0.91163 0.72153 -0.06400
O 	O 	0.19440 0.80622 0.71333 -0.07400
C 	C 	0.49973 0.50274 0.35076 -0.06400
C 	C 	0.47722 0.48968 0.36693 0.03100
C 	C 	0.48340 0.44005 0.37578 0.07000
C 	C 	0.51396 0.40562 0.36862 0.01000
C 	C 	0.53933 0.42058 0.35270 -0.07100
C 	C 	0.53153 0.46897 0.34364 0.13300
C 	C 	0.45459 0.53291 0.37518 0.02800
N 	N 	0.46013 0.42570 0.39224 -0.01800
H 	H 	0.51834 0.36732 0.37549 0.08000
N 	N 	0.55775 0.48551 0.32743 -0.02500
H 	H 	0.49515 0.54108 0.34396 0.09600
C 	C 	0.50427 0.59677 0.38103 0.07000
C 	C 	0.48620 0.62792 0.39322 0.00100
C 	C 	0.41892 0.59538 0.39977 -0.07300
C 	C 	0.36694 0.53653 0.39217 0.13200
C 	C 	0.38518 0.50528 0.37999 -0.06400
N 	N 	0.57428 0.62813 0.37535 -0.01900
H 	H 	0.52574 0.67539 0.39826 0.08000
N 	N 	0.29562 0.50963 0.39644 -0.02500
H 	H 	0.34606 0.45776 0.37486 0.09600
O 	O 	0.62374 0.51072 0.32470 -0.06200
O 	O 	0.51659 0.48067 0.31562 -0.06600
O 	O 	0.40863 0.36682 0.39604 -0.05700
O 	O 	0.49368 0.46956 0.40359 -0.05700
O 	O 	0.26315 0.54196 0.39243 -0.07000
O 	O 	0.26137 0.44965 0.40275 -0.05800
O 	O 	0.59912 0.68325 0.36684 -0.06300
O 	O 	0.61491 0.60507 0.37989 -0.06200
C 	C 	0.13073 0.62815 0.40106 0.00400
C 	C 	0.13806 0.59875 0.41533 -0.07000
C 	C 	0.95169 0.49460 0.38750 0.01000
H 	H 	0.17392 0.67460 0.39657 0.07700
H 	H 	0.97595 0.46150 0.41713 0.08000
C 	C 	0.94272 0.43540 0.37986 0.07000
C 	C 	0.88216 0.39497 0.37107 -0.00000
C 	C 	0.83079 0.41349 0.36951 -0.07200
C 	C 	0.83921 0.47229 0.37727 0.12700
C 	C 	0.89981 0.51268 0.38620 -0.05900
N 	N 	0.99528 0.41634 0.38099 -0.02900
H 	H 	0.87591 0.34997 0.36504 0.08000
N 	N 	0.78653 0.49119 0.37613 -0.02400
H 	H 	0.90611 0.55759 0.39228 0.09100
O 	O 	0.05687 0.51143 0.44899 -0.05300
O 	O 	0.05558 0.59378 0.36363 -0.05600
O 	O 	0.72400 0.45006 0.38116 -0.07000
O 	O 	0.80292 0.55218 0.37179 -0.05700
O 	O 	0.97984 0.35703 0.38648 -0.07000
C 	C 	0.65711 0.05596 0.37723 -0.06700
C 	C 	0.59509 0.00055 0.37183 0.01300
C 	C 	0.57024 0.00177 0.35616 0.05200
C 	C 	0.60244 0.06141 0.34706 0.00400
C 	C 	0.65663 0.12046 0.35382 -0.09000
C 	C 	0.68823 0.11599 0.36824 0.12600
C 	C 	0.54977 0.94888 0.38367 0.05000
N 	N 	0.50884 0.94450 0.35006 -0.00900
H 	H 	0.58054 0.06373 0.33547 0.06700
N 	N 	0.74852 0.17390 0.37445 -0.02400
H 	H 	0.67832 0.05409 0.38895 0.09000
C 	C 	0.56474 0.89864 0.38896 0.06400
C 	C 	0.52518 0.85447 0.40139 0.00100
C 	C 	0.47213 0.86121 0.40899 -0.07800
C 	C 	0.45721 0.91160 0.40363 0.13500
C 	C 	0.49499 0.95393 0.39077 -0.07400
N 	N 	0.62149 0.89369 0.38211 -0.01600
H 	H 	0.53651 0.81551 0.40534 0.07000
N 	N 	0.40701 0.92288 0.41187 -0.02400
H 	H 	0.48393 0.99307 0.38683 0.09800
O 	O 	0.80565 0.20148 0.36608 -0.07200
O 	O 	0.74737 0.19689 0.38884 -0.07600
O 	O 	0.45864 0.95205 0.34415 -0.06800
O 	O 	0.50409 0.88524 0.34990 -0.06000
O 	O 	0.41974 0.94817 0.42644 -0.05400
O 	O 	0.35192 0.91432 0.40421 -0.06100
O 	O 	0.66866 0.89387 0.39154 -0.06400
O 	O 	0.62359 0.88455 0.36659 -0.05700
C 	C 	0.43346 0.42636 0.58693 -0.06700
C 	C 	0.45048 0.44598 0.60315 0.02900
C 	C 	0.50088 0.43553 0.61103 0.06800
C 	C 	0.53503 0.40736 0.60245 -0.00200
C 	C 	0.52057 0.39093 0.58599 -0.07700
C 	C 	0.46905 0.40019 0.57822 0.13200
C 	C 	0.41652 0.47891 0.61169 0.03200
N 	N 	0.51857 0.45483 0.62764 -0.01700
H 	H 	0.57442 0.40025 0.60847 0.08300
N 	N 	0.45541 0.38665 0.56127 -0.02300
H 	H 	0.39433 0.43390 0.58089 0.09800
C 	C 	0.43260 0.54526 0.60768 0.06400
C 	C 	0.40036 0.57591 0.61603 0.00400
C 	C 	0.35343 0.54160 0.62861 -0.08900
C 	C 	0.33569 0.47441 0.63219 0.13400
C 	C 	0.36716 0.44346 0.62370 -0.07000
N 	N 	0.48284 0.58220 0.59541 -0.01800
H 	H 	0.41446 0.62766 0.61325 0.07600
N 	N 	0.28467 0.43698 0.64420 -0.02400
H 	H 	0.35351 0.39189 0.62653 0.09200
O 	O 	0.39421 0.34064 0.55649 -0.05400
O 	O 	0.49970 0.42759 0.55071 -0.05900
O 	O 	0.51350 0.41039 0.63826 -0.07300
O 	O 	0.54496 0.51778 0.63189 -0.07100
O 	O 	0.21990 0.40125 0.64000 -0.05500
O 	O 	0.30404 0.43016 0.65865 -0.07200
O 	O 	0.46601 0.60698 0.58312 -0.06300
O 	O 	0.54663 0.59525 0.59712 -0.06600
C 	C 	0.06873 0.53625 0.65935 -0.10300
C 	C 	0.90063 0.49746 0.62850 0.02600
H 	H 	0.04086 0.60037 0.67312 0.07100
N 	N 	0.07982 0.44539 0.64557 -0.02600
C 	C 	0.92825 0.52739 0.61335 0.05300
C 	C 	0.88687 0.50409 0.59945 0.00100
C 	C 	0.81788 0.45231 0.60058 -0.07400
C 	C 	0.78746 0.43019 0.61601 0.12300
C 	C 	0.82937 0.45237 0.62991 -0.06400
H 	H 	0.90961 0.52341 0.58767 0.08700
N 	N 	0.71381 0.38904 0.61768 -0.02600
H 	H 	0.80722 0.43182 0.64168 0.09100
O 	O 	0.12423 0.46279 0.63375 -0.05800
O 	O 	0.92240 0.61963 0.64730 -0.07100
O 	O 	0.68169 0.32940 0.61110 -0.08900
O 	O 	0.68013 0.40828 0.62724 -0.07800
C 	C 	0.62847 0.07406 0.61167 -0.06000
C 	C 	0.55835 0.02825 0.61438 0.00500
C 	C 	0.50746 0.04429 0.60925 0.07300
C 	C 	0.52681 0.10266 0.60001 -0.00600
C 	C 	0.59683 0.14587 0.59608 -0.06600
C 	C 	0.64814 0.13363 0.60298 0.12400
C 	C 	0.53828 0.96286 0.62227 0.04500
N 	N 	0.43615 0.00153 0.61341 -0.02900
H 	H 	0.48703 0.11268 0.59535 0.08000
N 	N 	0.72020 0.18187 0.60129 -0.02400
H 	H 	0.66787 0.06341 0.61630 0.08300
C 	C 	0.52626 0.90613 0.61294 0.06900
C 	C 	0.49609 0.84222 0.62023 0.00200
C 	C 	0.47813 0.83470 0.63672 -0.07400
C 	C 	0.49994 0.89270 0.64639 0.11900
C 	C 	0.52862 0.95642 0.63910 -0.03900
N 	N 	0.54366 0.91306 0.59607 -0.01600
H 	H 	0.48183 0.79796 0.61279 0.07700
N 	N 	0.49190 0.88686 0.66361 -0.02400
H 	H 	0.54145 0.00051 0.64647 0.06900
O 	O 	0.74497 0.24157 0.60769 -0.07900
O 	O 	0.76209 0.16405 0.59470 -0.07300
O 	O 	0.40429 0.02476 0.62237 -0.07700
O 	O 	0.40177 0.94113 0.60730 -0.04700
O 	O 	0.54533 0.90206 0.67280 -0.07600
O 	O 	0.43252 0.87140 0.67014 -0.08200
O 	O 	0.58949 0.89771 0.59081 -0.05600
O 	O 	0.50983 0.92943 0.58581 -0.05000
C 	C 	0.55793 0.37295 0.51748 -0.10300
C 	C 	0.59962 0.42614 0.50688 0.12900
C 	C 	0.56969 0.45617 0.49730 0.06900
C 	C 	0.49759 0.43135 0.49788 0.02100
C 	C 	0.45500 0.37286 0.50695 0.07000
C 	C 	0.48515 0.34245 0.51637 0.13400
C 	C 	0.46681 0.46705 0.48903 0.02100
C 	C 	0.46225 0.52031 0.49659 0.06900
C 	C 	0.44011 0.55895 0.48764 0.12800
C 	C 	0.42161 0.54377 0.47120 -0.10700
C 	C 	0.42286 0.48833 0.46388 0.12700
C 	C 	0.44576 0.45025 0.47277 0.07000
Br	Br	0.35582 0.33610 0.50693 -0.11000
Br	Br	0.69727 0.45636 0.50521 -0.13000
Br	Br	0.43673 0.63374 0.49775 -0.12200
Br	Br	0.44967 0.37580 0.46262 -0.11400
Br	Br	0.42701 0.25854 0.52741 -0.14500
Br	Br	0.62746 0.53259 0.48375 -0.12100
Br	Br	0.48716 0.54062 0.51915 -0.11700
Br	Br	0.39314 0.46445 0.44170 -0.13800
C 	C 	0.48299 0.84556 0.48144 -0.10800
C 	C 	0.45125 0.85520 0.49518 0.13100
C 	C 	0.48730 0.91410 0.50456 0.06600
C 	C 	0.55533 0.96293 0.50023 0.03800
C 	C 	0.58965 0.94955 0.48761 0.07900
C 	C 	0.55372 0.89032 0.47835 0.13200
C 	C 	0.58880 0.02986 0.50821 0.00300
C 	C 	0.57761 0.08159 0.50216 0.07100
C 	C 	0.60154 0.14200 0.51095 0.12600
C 	C 	0.63650 0.15057 0.52577 -0.10900
C 	C 	0.65400 0.10179 0.53089 0.13100
C 	C 	0.62919 0.04094 0.52225 0.05700
Br	Br	0.68488 0.01382 0.48264 -0.13900
Br	Br	0.35838 0.78764 0.50104 -0.12300
Br	Br	0.58620 0.21291 0.50279 -0.12600
Br	Br	0.64811 0.97163 0.52995 -0.09200
Br	Br	0.60094 0.87106 0.46127 -0.16000
Br	Br	0.44301 0.92923 0.52298 -0.10700
Br	Br	0.52772 0.06862 0.48209 -0.13500
Br	Br	0.71108 0.11798 0.54986 -0.16400
C 	C 	0.16954 0.60278 0.47922 -0.10400
C 	C 	0.15977 0.55418 0.49102 0.13100
C 	C 	0.98662 0.51660 0.50893 0.00400
C 	C 	0.92815 0.45666 0.50366 0.07100
C 	C 	0.86823 0.42589 0.51337 0.12700
C 	C 	0.86632 0.45575 0.52819 -0.11100
C 	C 	0.92274 0.51834 0.53281 0.13100
C 	C 	0.98369 0.54769 0.52346 0.05600
Br	Br	0.99303 0.62600 0.48488 -0.13400
Br	Br	0.22814 0.52592 0.49369 -0.12400
Br	Br	0.78897 0.34274 0.50645 -0.12700
Br	Br	0.13797 0.69771 0.46294 -0.15000
Br	Br	0.93056 0.41679 0.48317 -0.13100
Br	Br	0.91543 0.56494 0.55158 -0.16700
