data_crystal

_cell_length_a 39.50037
_cell_length_b 40.18725
_cell_length_c 26.84600
_cell_angle_alpha 94.74576
_cell_angle_beta  94.27099
_cell_angle_gamma 90.03154

_symmetry_space_group_name_	'P 1'
_symmetry_space_group_name_H-M	'P 1'

loop_
_symmetry_equiv_pos_as_xyz
  x,y,z

loop_
_atom_site_label
_atom_site_type_symbol
_atom_site_fract_x
_atom_site_fract_y
_atom_site_fract_z
_atom_site_charge
N 	N 	0.99294 0.53490 0.34147 -0.13800
C 	C 	0.98246 0.51596 0.37711 0.13200
N 	N 	0.98979 0.52592 0.42636 -0.14000
Cd	Cd	0.88493 0.93225 0.87676 1.26500
C 	C 	0.81882 0.97100 0.82454 0.32700
O 	O 	0.80725 0.97535 0.77884 -0.26600
O 	O 	0.83694 0.94433 0.82948 -0.45700
O 	O 	0.79758 0.88026 0.37208 -0.41200
C 	C 	0.79380 0.91227 0.38208 0.28100
O 	O 	0.80714 0.92484 0.42544 -0.29700
C 	C 	0.76564 0.00820 0.25894 0.27800
O 	O 	0.75647 0.01084 0.21178 -0.29300
C 	C 	0.82256 0.18078 0.03778 0.26900
C 	C 	0.84590 0.07779 0.97074 0.30000
O 	O 	0.83550 0.08724 0.01485 -0.23400
O 	O 	0.86478 0.09924 0.95215 -0.46500
C 	C 	0.77284 0.36640 0.86201 0.12700
N 	N 	0.78924 0.39616 0.87249 -0.13900
C 	C 	0.79148 0.41747 0.83614 0.13100
N 	N 	0.77786 0.40859 0.78898 -0.14200
C 	C 	0.76262 0.37835 0.77778 0.13100
N 	N 	0.76016 0.35724 0.81436 -0.13900
C 	C 	0.75487 0.30830 0.33048 0.12500
N 	N 	0.74036 0.31099 0.37503 -0.14000
C 	C 	0.75121 0.33500 0.41138 0.13000
N 	N 	0.77620 0.35654 0.40281 -0.14100
C 	C 	0.78948 0.35502 0.35749 0.13200
N 	N 	0.77902 0.33068 0.32155 -0.14100
Cd	Cd	0.08772 0.10344 0.81322 1.24900
O 	O 	0.13955 0.13797 0.82063 -0.27900
O 	O 	0.11790 0.11590 0.74732 -0.31700
C 	C 	0.14146 0.13435 0.77243 0.26700
O 	O 	0.04625 0.06624 0.78683 -0.31000
C 	C 	0.11961 0.05319 0.86919 0.31600
O 	O 	0.06360 0.13354 0.89382 -0.34700
O 	O 	0.12997 0.05213 0.82400 -0.25300
O 	O 	0.09970 0.07778 0.88091 -0.46700
C 	C 	0.04355 0.15014 0.86418 0.29200
O 	O 	0.04825 0.14573 0.81648 -0.32700
Cd	Cd	0.05510 0.05193 0.35201 1.24900
Cd	Cd	0.00972 0.01596 0.24037 1.23300
O 	O 	0.09568 0.09753 0.34466 -0.28200
O 	O 	0.08400 0.08179 0.41804 -0.31700
C 	C 	0.10117 0.10156 0.39309 0.27400
O 	O 	0.01640 0.01871 0.37989 -0.32300
O 	O 	0.00670 0.98534 0.30652 -0.39800
C 	C 	0.99748 0.99649 0.35106 0.30600
C 	C 	0.99953 0.08670 0.30668 0.31700
O 	O 	0.00720 0.09945 0.35255 -0.18600
O 	O 	0.02015 0.06413 0.29001 -0.49300
C 	C 	0.34804 0.23390 0.88899 0.12600
N 	N 	0.34243 0.25341 0.93136 -0.14000
C 	C 	0.36731 0.25830 0.96899 0.12600
N 	N 	0.39859 0.24531 0.96276 -0.14300
C 	C 	0.40477 0.22686 0.91976 0.12900
N 	N 	0.37927 0.22057 0.88339 -0.13900
C 	C 	0.32425 0.20101 0.37497 0.12400
N 	N 	0.35241 0.18647 0.39546 -0.14100
C 	C 	0.38355 0.19397 0.38098 0.12900
N 	N 	0.38632 0.21606 0.34585 -0.14300
C 	C 	0.35814 0.22919 0.32313 0.13000
N 	N 	0.32716 0.22229 0.33870 -0.13900
C 	C 	0.35834 0.27037 0.01983 -0.04400
C 	C 	0.38126 0.29043 0.05247 0.10300
C 	C 	0.37893 0.29096 0.10451 -0.08300
C 	C 	0.35343 0.27264 0.12387 -0.00600
C 	C 	0.32706 0.25776 0.09092 0.08100
C 	C 	0.32986 0.25655 0.03901 -0.05300
N 	N 	0.40525 0.30930 0.03408 -0.19600
H 	H 	0.39804 0.30407 0.12991 0.05800
C 	C 	0.35833 0.26342 0.17618 -0.00200
N 	N 	0.29963 0.24370 0.10895 -0.19400
H 	H 	0.31106 0.24285 0.01380 0.06100
C 	C 	0.34501 0.28397 0.21471 -0.08600
C 	C 	0.34622 0.27412 0.26389 0.10600
C 	C 	0.36044 0.24284 0.27414 -0.04800
C 	C 	0.37515 0.22312 0.23603 -0.05000
C 	C 	0.37450 0.23319 0.18724 0.07500
H 	H 	0.33331 0.30746 0.20631 0.06100
N 	N 	0.33442 0.29504 0.30106 -0.19900
H 	H 	0.38644 0.19938 0.24412 0.05100
N 	N 	0.38922 0.21360 0.15115 -0.19300
H 	H 	0.32300 0.31760 0.29287 0.09400
H 	H 	0.33758 0.28976 0.33854 0.09800
H 	H 	0.40045 0.19099 0.15952 0.08900
H 	H 	0.39030 0.22080 0.11483 0.09400
H 	H 	0.28088 0.23160 0.08443 0.10600
H 	H 	0.29613 0.24559 0.14724 0.10300
H 	H 	0.40542 0.31180 0.99568 0.09400
H 	H 	0.42302 0.32298 0.05838 0.09100
C 	C 	0.19219 0.12005 0.43524 -0.06100
C 	C 	0.19415 0.15332 0.42357 0.01800
C 	C 	0.16404 0.17133 0.41462 0.00300
C 	C 	0.13263 0.15484 0.41131 -0.00000
C 	C 	0.13103 0.12040 0.41619 -0.05800
C 	C 	0.16082 0.10345 0.43147 0.05100
C 	C 	0.22710 0.16675 0.41131 0.00900
S 	S 	0.16549 0.21413 0.40524 0.00100
H 	H 	0.10964 0.16827 0.40132 0.06800
S 	S 	0.15950 0.06087 0.44239 0.01200
H 	H 	0.21529 0.10646 0.44398 0.06100
C 	C 	0.24891 0.18444 0.44822 0.00600
C 	C 	0.28042 0.19600 0.43575 -0.03100
C 	C 	0.29042 0.18998 0.38674 -0.02700
C 	C 	0.26863 0.17201 0.34996 0.03200
C 	C 	0.23706 0.16081 0.36235 -0.05500
S 	S 	0.23715 0.19209 0.51008 -0.02800
H 	H 	0.29724 0.20952 0.46421 0.04700
S 	S 	0.28127 0.16186 0.28900 -0.00500
H 	H 	0.22038 0.14697 0.33405 0.07000
H 	H 	0.16221 0.04183 0.39812 0.06000
H 	H 	0.24696 0.16574 0.53694 0.04300
H 	H 	0.29894 0.13251 0.28802 0.04800
H 	H 	0.16536 0.23244 0.45060 0.04500
C 	C 	0.23253 0.14282 0.75398 -0.06100
C 	C 	0.23477 0.17773 0.76149 0.01300
C 	C 	0.20554 0.19677 0.75116 0.00400
C 	C 	0.17368 0.18104 0.74483 -0.00500
C 	C 	0.17104 0.14664 0.74935 -0.05900
C 	C 	0.20063 0.12713 0.74831 0.04700
C 	C 	0.26358 0.19287 0.79389 0.01100
S 	S 	0.20823 0.24048 0.75159 -0.01700
H 	H 	0.15089 0.19601 0.74216 0.05800
S 	S 	0.19805 0.08330 0.74559 0.01600
H 	H 	0.25527 0.12794 0.75842 0.06000
C 	C 	0.26321 0.19415 0.84650 -0.00100
C 	C 	0.29077 0.20788 0.87689 -0.02400
C 	C 	0.31874 0.22098 0.85561 -0.03000
C 	C 	0.31878 0.22055 0.80292 0.03200
C 	C 	0.29136 0.20615 0.77237 -0.06000
S 	S 	0.22825 0.17860 0.87480 0.02000
H 	H 	0.29063 0.20806 0.91730 0.05300
S 	S 	0.35203 0.23934 0.77488 -0.03500
H 	H 	0.29147 0.20562 0.73194 0.05400
H 	H 	0.19800 0.07350 0.79328 0.06700
H 	H 	0.23209 0.14500 0.87854 0.05900
H 	H 	0.34488 0.27240 0.77079 0.04000
H 	H 	0.20656 0.25441 0.79968 0.05000
C 	C 	0.75517 0.36607 0.72481 -0.04500
C 	C 	0.72142 0.36038 0.70405 0.10400
C 	C 	0.71547 0.35134 0.65238 -0.08400
C 	C 	0.74248 0.34856 0.62120 -0.00400
C 	C 	0.77624 0.35381 0.64218 0.07900
C 	C 	0.78220 0.36200 0.69390 -0.04900
N 	N 	0.69466 0.36415 0.73310 -0.19900
H 	H 	0.68968 0.34721 0.63622 0.05800
C 	C 	0.73499 0.34238 0.56625 -0.00500
N 	N 	0.80296 0.35159 0.61285 -0.19300
H 	H 	0.80802 0.36609 0.71003 0.05700
C 	C 	0.72687 0.36952 0.53811 -0.08400
C 	C 	0.72767 0.36632 0.48574 0.10400
C 	C 	0.73825 0.33586 0.46163 -0.04800
C 	C 	0.74231 0.30770 0.48906 -0.05200
C 	C 	0.74027 0.31059 0.54129 0.07700
H 	H 	0.72108 0.39348 0.55712 0.05800
N 	N 	0.71815 0.39240 0.45879 -0.19800
H 	H 	0.74892 0.28393 0.47024 0.05900
N 	N 	0.74422 0.28305 0.56732 -0.19400
H 	H 	0.71186 0.41534 0.47693 0.09000
H 	H 	0.71534 0.38965 0.41967 0.09300
H 	H 	0.74931 0.25987 0.54887 0.10200
H 	H 	0.74124 0.28419 0.60575 0.10200
H 	H 	0.69804 0.37164 0.77131 0.09700
H 	H 	0.66988 0.35979 0.71739 0.09100
C 	C 	0.01345 0.16778 0.88218 -0.01300
H 	H 	0.98510 0.16193 0.81000 0.08700
F 	F 	0.03813 0.21331 0.00333 -0.41600
C 	C 	0.76271 0.32663 0.98340 -0.06400
C 	C 	0.77965 0.29635 0.97427 0.01000
C 	C 	0.79295 0.28855 0.92739 -0.00300
C 	C 	0.78989 0.31135 0.89074 -0.02200
C 	C 	0.77364 0.34198 0.90013 -0.03000
C 	C 	0.75958 0.34948 0.94659 0.03300
C 	C 	0.78384 0.27293 0.01394 0.01300
S 	S 	0.81380 0.25040 0.91433 0.04600
H 	H 	0.80067 0.30549 0.85509 0.06300
S 	S 	0.73707 0.38676 0.95846 -0.03800
H 	H 	0.75210 0.33248 0.01917 0.05600
C 	C 	0.80545 0.21259 0.04981 -0.07000
C 	C 	0.77131 0.21628 0.03197 0.05500
C 	C 	0.76067 0.24645 0.01349 -0.06200
S 	S 	0.74288 0.18229 0.02770 -0.02200
H 	H 	0.73561 0.24820 0.99455 0.05500
H 	H 	0.70364 0.38181 0.94203 0.03900
H 	H 	0.74494 0.16408 0.98258 0.07800
C 	C 	0.96222 0.07855 0.22870 0.03700
C 	C 	0.96678 0.09278 0.27817 0.00800
C 	C 	0.93806 0.10545 0.30196 -0.06400
C 	C 	0.90545 0.09533 0.28141 0.06900
C 	C 	0.93014 0.06696 0.20894 -0.08900
H 	H 	0.98427 0.07325 0.20772 0.06300
C 	C 	0.94162 0.13181 0.34587 0.78100
F 	F 	0.95868 0.03082 0.14981 -0.46700
F 	F 	0.96839 0.15323 0.34086 -0.42000
F 	F 	0.94700 0.11669 0.39016 -0.38700
F 	F 	0.91252 0.15090 0.34833 -0.43100
C 	C 	0.74190 0.22706 0.21721 0.00600
C 	C 	0.73689 0.26012 0.20472 0.00800
C 	C 	0.73856 0.28635 0.24265 -0.03300
C 	C 	0.74616 0.28001 0.29297 -0.02800
C 	C 	0.74989 0.24665 0.30550 0.03100
S 	S 	0.73026 0.26915 0.14171 -0.03700
H 	H 	0.73537 0.31186 0.23283 0.04900
C 	C 	0.72371 0.14542 0.14389 0.05000
C 	C 	0.71820 0.17847 0.16237 -0.06700
S 	S 	0.68890 0.11840 0.12802 -0.03800
H 	H 	0.69266 0.18683 0.16858 0.05400
H 	H 	0.79568 0.23849 0.37626 0.05600
H 	H 	0.68225 0.10197 0.16894 0.03900
H 	H 	0.76103 0.27492 0.12356 0.04200
H 	H 	0.45775 0.06041 0.41720 0.06200
C 	C 	0.46476 0.12678 0.41514 -0.00400
C 	C 	0.44686 0.14194 0.45406 -0.08500
C 	C 	0.42173 0.16577 0.44425 0.10400
C 	C 	0.41282 0.17271 0.39407 -0.04900
C 	C 	0.43079 0.15749 0.35524 -0.05100
C 	C 	0.45688 0.13485 0.36526 0.07400
H 	H 	0.45328 0.13599 0.49228 0.05800
N 	N 	0.40729 0.18273 0.48314 -0.19900
H 	H 	0.42399 0.16282 0.31683 0.05100
H 	H 	0.41291 0.17641 0.51982 0.09000
H 	H 	0.39188 0.20341 0.47774 0.09500
C 	C 	0.43698 0.20868 0.91671 -0.04800
C 	C 	0.46043 0.21578 0.88152 0.10200
C 	C 	0.49047 0.19718 0.87916 -0.08600
C 	C 	0.49743 0.17186 0.91133 -0.00400
C 	C 	0.47420 0.16516 0.94703 0.07400
C 	C 	0.44420 0.18368 0.94929 -0.05100
N 	N 	0.45455 0.24062 0.85051 -0.19900
H 	H 	0.50845 0.20238 0.85214 0.05700
C 	C 	0.52901 0.15232 0.90712 -0.00500
N 	N 	0.48051 0.14100 0.97913 -0.19600
H 	H 	0.42623 0.17844 0.97632 0.05300
C 	C 	0.55830 0.16302 0.93686 -0.08500
H 	H 	0.55872 0.18736 0.95764 0.05700
N 	N 	0.61522 0.15334 0.96886 -0.19900
H 	H 	0.61576 0.17691 0.98854 0.09000
H 	H 	0.46309 0.13617 0.00514 0.09200
H 	H 	0.50267 0.12690 0.97886 0.09300
H 	H 	0.43327 0.25590 0.85276 0.09500
H 	H 	0.47177 0.24529 0.82414 0.08900
C 	C 	0.76756 0.92362 0.29816 0.04400
C 	C 	0.77065 0.93178 0.35019 -0.01000
C 	C 	0.75583 0.96174 0.36962 -0.10200
C 	C 	0.74938 0.98723 0.33758 0.04800
C 	C 	0.75310 0.98102 0.28614 -0.01000
C 	C 	0.75555 0.94761 0.26610 -0.11000
H 	H 	0.74360 0.01222 0.35292 0.06900
C 	C 	0.74588 0.96632 0.42315 0.78100
F 	F 	0.77190 0.98225 0.45331 -0.45200
F 	F 	0.73902 0.93587 0.44097 -0.46400
F 	F 	0.71693 0.98560 0.42585 -0.45800
F 	F 	0.92965 0.02130 0.30117 -0.53900
F 	F 	0.88765 0.02473 0.83904 -0.51900
C 	C 	0.81082 0.03057 0.85269 0.07500
C 	C 	0.81626 0.99770 0.86528 -0.01100
C 	C 	0.82008 0.99141 0.91651 -0.10000
C 	C 	0.82936 0.01816 0.95213 0.06000
C 	C 	0.82839 0.05103 0.93806 -0.00900
C 	C 	0.81441 0.05721 0.88967 -0.10700
C 	C 	0.80415 0.09201 0.87676 0.78100
H 	H 	0.80468 0.03549 0.81396 0.10000
H 	H 	0.83727 0.01341 0.99043 0.12300
C 	C 	0.80989 0.95815 0.93395 0.78900
F 	F 	0.77797 0.09039 0.83933 -0.44100
F 	F 	0.83157 0.10806 0.85998 -0.43200
F 	F 	0.79289 0.11054 0.91802 -0.45100
F 	F 	0.83772 0.93752 0.93740 -0.48000
F 	F 	0.78486 0.94265 0.90123 -0.44800
S 	S 	0.72990 0.01962 0.72319 0.03300
H 	H 	0.76723 0.96875 0.67130 0.05800
C 	C 	0.95862 0.48780 0.36258 -0.04700
C 	C 	0.95977 0.45864 0.38888 0.10700
N 	N 	0.98788 0.45113 0.41809 -0.19800
N 	N 	0.78545 0.42706 0.37434 -0.19800
H 	H 	0.78471 0.45220 0.38776 0.09200
H 	H 	0.76244 0.41421 0.36659 0.09400
H 	H 	0.01069 0.46411 0.41702 0.09900
H 	H 	0.98783 0.43060 0.43956 0.09700
C 	C 	0.81402 0.44701 0.84524 -0.04700
N 	N 	0.78372 0.47012 0.91498 -0.19900
H 	H 	0.90330 0.60364 0.83212 0.06100
H 	H 	0.76313 0.45407 0.90475 0.09800
H 	H 	0.78229 0.48694 0.94660 0.09400
C 	C 	0.02755 0.56926 0.73407 0.10500
C 	C 	0.02967 0.56424 0.68202 -0.08300
N 	N 	0.03270 0.54318 0.76289 -0.19800
H 	H 	0.03284 0.53921 0.66466 0.05900
H 	H 	0.03500 0.54684 0.80197 0.09700
H 	H 	0.03624 0.51910 0.74630 0.09300
H 	H 	0.90911 0.03565 0.98557 0.04800
C 	C 	0.93261 0.97365 0.95986 0.76800
F 	F 	0.89801 0.97686 0.96346 -0.46400
C 	C 	0.12719 0.03259 0.95604 -0.12800
F 	F 	0.92000 0.97326 0.08041 -0.39400
Cd	Cd	0.79956 0.04313 0.18686 1.24800
Cd	Cd	0.84782 0.01106 0.28954 1.22100
O 	O 	0.77414 0.09767 0.20618 -0.31300
O 	O 	0.77258 0.07513 0.12872 -0.32500
C 	C 	0.76472 0.10033 0.15942 0.27000
O 	O 	0.82374 0.99641 0.15261 -0.26800
O 	O 	0.83275 0.97231 0.22691 -0.38600
C 	C 	0.83862 0.97336 0.17930 0.31500
C 	C 	0.86685 0.06720 0.21342 0.31500
O 	O 	0.79126 0.02681 0.27794 -0.42100
O 	O 	0.85555 0.07649 0.16987 -0.22500
O 	O 	0.84462 0.05333 0.23838 -0.49900
Cd	Cd	0.87642 0.13992 0.00878 1.25200
Cd	Cd	0.90933 0.09420 0.90259 1.23200
O 	O 	0.82300 0.16927 0.99125 -0.26400
O 	O 	0.84730 0.17040 0.06745 -0.33100
O 	O 	0.91855 0.10922 0.04209 -0.29800
O 	O 	0.94598 0.10455 0.96986 -0.40700
C 	C 	0.94048 0.09371 0.01341 0.30800
O 	O 	0.89759 0.15005 0.92077 -0.34500
C 	C 	0.91851 0.17253 0.94324 0.29400
O 	O 	0.91484 0.17985 0.99084 -0.32500
Cd	Cd	0.05247 0.08259 0.92468 1.22700
O 	O 	0.01605 0.07657 0.85615 -0.42200
C 	C 	0.02115 0.05860 0.81407 0.28600
H 	H 	0.82777 0.35524 0.62884 0.09800
H 	H 	0.79951 0.34661 0.57405 0.09900
C 	C 	0.98051 0.18410 0.95294 0.05800
C 	C 	0.95055 0.18011 0.92141 -0.01100
C 	C 	0.95273 0.17724 0.86884 -0.11500
C 	C 	0.98398 0.16885 0.84974 0.05300
C 	C 	0.01226 0.18001 0.93307 -0.10200
C 	C 	0.04431 0.18835 0.96646 0.78100
H 	H 	0.97914 0.18882 0.99308 0.09900
C 	C 	0.92194 0.18189 0.83296 0.78200
F 	F 	0.05532 0.16030 0.98933 -0.42000
F 	F 	0.06972 0.19963 0.93912 -0.42400
F 	F 	0.89904 0.20371 0.85450 -0.43000
F 	F 	0.90624 0.15136 0.81954 -0.43600
F 	F 	0.93159 0.19501 0.79004 -0.42400
C 	C 	0.81497 0.27163 0.04292 -0.00300
C 	C 	0.82557 0.24139 0.06122 -0.00900
S 	S 	0.84218 0.30661 0.05202 -0.01800
H 	H 	0.85102 0.23939 0.07880 0.05800
H 	H 	0.86228 0.30670 0.01258 0.05100
H 	H 	0.84735 0.25363 0.93113 0.06300
C 	C 	0.90133 0.07597 0.23530 -0.00700
C 	C 	0.92720 0.04193 0.16334 0.78500
H 	H 	0.88325 0.10295 0.30080 0.07900
F 	F 	0.91104 0.05630 0.12309 -0.40600
F 	F 	0.90883 0.01449 0.17405 -0.46000
C 	C 	0.74689 0.22047 0.26770 -0.05800
C 	C 	0.74595 0.19954 0.17805 0.01600
S 	S 	0.76106 0.23736 0.36757 -0.01900
H 	H 	0.75047 0.19496 0.27731 0.06200
C 	C 	0.77872 0.18942 0.16598 0.00100
C 	C 	0.78385 0.15664 0.14612 -0.00300
C 	C 	0.75710 0.13340 0.14229 -0.06700
S 	S 	0.81397 0.21608 0.18168 -0.00600
H 	H 	0.80948 0.14797 0.14136 0.06800
H 	H 	0.82594 0.21261 0.23018 0.05600
C 	C 	0.74281 0.93724 0.21248 0.78700
H 	H 	0.77553 0.89935 0.28273 0.06000
F 	F 	0.73644 0.90322 0.20570 -0.42800
F 	F 	0.76658 0.94516 0.18014 -0.44400
F 	F 	0.71288 0.95362 0.20049 -0.44500
C 	C 	0.91116 0.96551 0.37795 0.05600
C 	C 	0.97113 0.97786 0.37350 0.00500
C 	C 	0.93689 0.98817 0.36965 -0.12100
C 	C 	0.92755 0.02211 0.35239 0.76900
H 	H 	0.88473 0.97209 0.37084 0.02000
F 	F 	0.89494 0.03098 0.36352 -0.53500
F 	F 	0.94942 0.04631 0.37604 -0.42300
C 	C 	0.97275 0.97856 0.77136 0.05800
C 	C 	0.93924 0.98929 0.77666 0.03300
C 	C 	0.93264 0.02386 0.78546 -0.11000
C 	C 	0.96004 0.04669 0.79134 0.04600
C 	C 	0.99375 0.03553 0.79174 0.00900
C 	C 	0.00026 0.00123 0.77985 -0.12300
C 	C 	0.03641 0.98870 0.77672 0.77800
H 	H 	0.97748 0.95218 0.76372 0.11000
H 	H 	0.95533 0.07309 0.79928 0.06200
C 	C 	0.89708 0.03604 0.79479 0.76700
F 	F 	0.03749 0.95434 0.76714 -0.46200
F 	F 	0.05532 0.99711 0.82147 -0.56500
F 	F 	0.05114 0.00299 0.73842 -0.41400
F 	F 	0.89530 0.07055 0.79872 -0.47800
F 	F 	0.79715 0.96272 0.98069 -0.40500
C 	C 	0.93202 0.43645 0.38288 -0.08400
C 	C 	0.90498 0.44102 0.34723 -0.00300
C 	C 	0.90606 0.46777 0.31624 0.07500
C 	C 	0.93235 0.49149 0.32524 -0.05100
H 	H 	0.93174 0.41527 0.40538 0.06300
C 	C 	0.87452 0.41927 0.34536 -0.00400
N 	N 	0.88211 0.47069 0.27775 -0.19400
H 	H 	0.93194 0.51322 0.30380 0.05900
C 	C 	0.84461 0.43255 0.36371 -0.08400
C 	C 	0.81539 0.41263 0.36314 0.10500
C 	C 	0.81722 0.37800 0.34879 -0.04700
C 	C 	0.84692 0.36484 0.32948 -0.05100
C 	C 	0.87533 0.38537 0.32632 0.07700
H 	H 	0.84380 0.45873 0.37710 0.06100
H 	H 	0.84809 0.33847 0.31738 0.06000
N 	N 	0.90303 0.37252 0.30455 -0.19400
H 	H 	0.90375 0.34723 0.29196 0.10200
H 	H 	0.92356 0.38760 0.29834 0.09900
H 	H 	0.88240 0.49118 0.25621 0.09500
H 	H 	0.86385 0.45209 0.26757 0.09500
C 	C 	0.81068 0.47095 0.88638 0.10600
C 	C 	0.83493 0.49670 0.89656 -0.08500
C 	C 	0.86098 0.50018 0.86456 -0.00200
C 	C 	0.86358 0.47693 0.82241 0.07600
C 	C 	0.84021 0.45046 0.81345 -0.05000
H 	H 	0.83286 0.51474 0.92853 0.06200
C 	C 	0.88523 0.52844 0.87514 -0.00400
N 	N 	0.88850 0.47979 0.79057 -0.19300
H 	H 	0.84271 0.43215 0.78193 0.05500
C 	C 	0.91616 0.52335 0.90252 -0.08300
C 	C 	0.94317 0.54608 0.90245 0.10400
C 	C 	0.93884 0.57447 0.87480 -0.04600
C 	C 	0.90682 0.58129 0.85192 -0.05000
C 	C 	0.87982 0.55858 0.85201 0.07800
H 	H 	0.91981 0.50076 0.92169 0.06100
N 	N 	0.84908 0.56548 0.82898 -0.19400
H 	H 	0.84561 0.58733 0.81067 0.09900
H 	H 	0.82817 0.54974 0.83007 0.09700
H 	H 	0.89018 0.46246 0.75962 0.09200
H 	H 	0.90636 0.49914 0.79597 0.09500
C 	C 	0.00346 0.02622 0.03397 0.02600
C 	C 	0.98704 0.99988 0.00398 0.03000
C 	C 	0.95179 0.00215 0.99007 -0.08700
C 	C 	0.93511 0.03259 0.00036 0.08000
C 	C 	0.95287 0.06035 0.02418 -0.00000
C 	C 	0.98627 0.05627 0.04546 -0.07000
C 	C 	0.00464 0.08485 0.07658 0.77400
H 	H 	0.03009 0.02395 0.04613 0.09000
F 	F 	0.03135 0.07332 0.10671 -0.41100
F 	F 	0.98270 0.10182 0.10741 -0.40800
F 	F 	0.01724 0.10666 0.04514 -0.43900
C 	C 	0.13339 0.06683 0.98338 0.78400
F 	F 	0.15096 0.06390 0.02938 -0.40600
F 	F 	0.10276 0.08212 0.99148 -0.51100
F 	F 	0.15257 0.08684 0.95654 -0.43200
C 	C 	0.85308 0.94301 0.15347 0.03200
C 	C 	0.88414 0.94508 0.13080 -0.08000
C 	C 	0.88658 0.96463 0.08534 0.80100
F 	F 	0.86787 0.99361 0.08803 -0.39600
F 	F 	0.87466 0.94480 0.04316 -0.37400
Cd	Cd	0.98204 0.81560 0.20571 1.24900
O 	O 	0.02246 0.77122 0.22521 -0.28300
O 	O 	0.99494 0.77140 0.15125 -0.33000
C 	C 	0.01655 0.75635 0.18060 0.27200
O 	O 	0.01207 0.85919 0.27379 -0.36300
C 	C 	0.02630 0.87210 0.23746 0.28400
O 	O 	0.02109 0.85627 0.19312 -0.33000
O 	O 	0.10722 0.93877 0.02610 -0.20400
C 	C 	0.00767 0.63775 0.88459 0.12400
N 	N 	0.02160 0.63103 0.84006 -0.13700
C 	C 	0.00840 0.60630 0.80664 0.13000
N 	N 	0.98160 0.58801 0.81819 -0.14000
C 	C 	0.96826 0.59406 0.86314 0.13200
N 	N 	0.98104 0.61916 0.89614 -0.13600
C 	C 	0.01049 0.56368 0.35486 0.12600
C 	C 	0.00845 0.55404 0.43988 0.13000
N 	N 	0.01908 0.57271 0.40408 -0.13800
Cd	Cd	0.84447 0.92251 0.75321 1.25100
O 	O 	0.78975 0.89300 0.74204 -0.29200
O 	O 	0.80870 0.92015 0.68263 -0.33000
C 	C 	0.78259 0.90646 0.70018 0.27300
O 	O 	0.88772 0.95831 0.74743 -0.28900
O 	O 	0.91912 0.94247 0.81658 -0.34200
C 	C 	0.91282 0.96400 0.78273 0.31000
O 	O 	0.86942 0.88549 0.82291 -0.39200
C 	C 	0.88791 0.87059 0.78958 0.27600
O 	O 	0.88061 0.87765 0.74344 -0.26500
Cd	Cd	0.83445 0.88022 0.45843 1.25200
O 	O 	0.78737 0.85998 0.50311 -0.28600
O 	O 	0.82696 0.89296 0.54080 -0.30800
C 	C 	0.79688 0.87998 0.54224 0.28000
O 	O 	0.88404 0.90121 0.44142 -0.30500
C 	C 	0.86149 0.81636 0.43266 0.29800
O 	O 	0.86822 0.82461 0.48054 -0.18900
O 	O 	0.84098 0.83599 0.40960 -0.52000
C 	C 	0.64423 0.03850 0.90584 0.12800
N 	N 	0.62529 0.06538 0.89427 -0.13800
C 	C 	0.60986 0.08386 0.93058 0.13300
N 	N 	0.61375 0.07563 0.97870 -0.14400
C 	C 	0.63271 0.04884 0.99051 0.13000
N 	N 	0.64716 0.02972 0.95380 -0.13300
C 	C 	0.61306 0.99324 0.42705 0.13600
N 	N 	0.58588 0.01213 0.43921 -0.14400
C 	C 	0.57137 0.03254 0.40597 0.13200
N 	N 	0.58410 0.03413 0.36065 -0.14300
C 	C 	0.61176 0.01594 0.34887 0.13300
N 	N 	0.62638 0.99574 0.38225 -0.12100
O 	O 	0.06680 0.01920 0.26651 -0.36700
C 	C 	0.08380 0.99751 0.29161 0.30400
O 	O 	0.09030 0.00640 0.33933 -0.33400
C 	C 	0.54424 0.05546 0.42082 -0.05000
C 	C 	0.51000 0.04463 0.41815 0.10500
C 	C 	0.48409 0.06844 0.42165 -0.08500
C 	C 	0.49190 0.10266 0.42692 -0.00400
C 	C 	0.52619 0.11320 0.43506 0.07300
C 	C 	0.55209 0.08943 0.43166 -0.05100
N 	N 	0.50180 0.01160 0.41118 -0.20100
N 	N 	0.53438 0.14609 0.44495 -0.19400
H 	H 	0.57842 0.09752 0.43541 0.05200
N 	N 	0.47412 0.12083 0.32682 -0.19400
H 	H 	0.46796 0.12689 0.29013 0.08800
H 	H 	0.49382 0.10400 0.33277 0.09300
H 	H 	0.55978 0.15377 0.44928 0.08900
H 	H 	0.51571 0.16421 0.44976 0.09100
H 	H 	0.52045 0.99323 0.40962 0.10200
H 	H 	0.47640 0.00391 0.40814 0.09600
C 	C 	0.58657 0.14202 0.94143 0.10500
C 	C 	0.58497 0.10947 0.91679 -0.04800
C 	C 	0.55697 0.10006 0.88336 -0.05100
C 	C 	0.52896 0.12129 0.87803 0.07400
H 	H 	0.55629 0.07552 0.86314 0.05400
N 	N 	0.50194 0.11152 0.84573 -0.19400
H 	H 	0.63760 0.13952 0.96916 0.10000
H 	H 	0.50173 0.08816 0.82544 0.09200
H 	H 	0.48128 0.12723 0.83951 0.09400
C 	C 	0.63432 0.03849 0.04206 -0.04400
C 	C 	0.66567 0.03638 0.07097 0.11800
C 	C 	0.66577 0.02778 0.12066 -0.08100
C 	C 	0.63520 0.02309 0.14266 0.00600
C 	C 	0.60395 0.02449 0.11344 0.07300
C 	C 	0.60390 0.03187 0.06327 -0.04700
N 	N 	0.69550 0.04401 0.05217 -0.19800
H 	H 	0.68965 0.02654 0.14314 0.08700
C 	C 	0.63603 0.02039 0.19742 -0.00400
N 	N 	0.57393 0.01908 0.13338 -0.19300
H 	H 	0.57999 0.03300 0.04084 0.05600
C 	C 	0.63652 0.04973 0.22956 -0.07900
C 	C 	0.63218 0.04846 0.28075 0.10800
C 	C 	0.62525 0.01743 0.29934 -0.04100
C 	C 	0.62765 0.98786 0.26817 -0.04600
C 	C 	0.63335 0.98902 0.21730 0.10600
H 	H 	0.63963 0.07366 0.21452 0.05500
N 	N 	0.63537 0.07690 0.31197 -0.19800
H 	H 	0.62371 0.96397 0.28298 0.06800
N 	N 	0.63543 0.96008 0.18762 -0.18700
H 	H 	0.63896 0.09994 0.29762 0.09200
H 	H 	0.63616 0.07621 0.35084 0.10400
H 	H 	0.63255 0.93705 0.20233 0.12800
H 	H 	0.64087 0.96010 0.15016 0.13500
H 	H 	0.55100 0.02049 0.11159 0.09300
H 	H 	0.57296 0.01320 0.17039 0.09400
H 	H 	0.69608 0.05526 0.01860 0.11300
H 	H 	0.71857 0.04044 0.07265 0.12200
C 	C 	0.73634 0.94872 0.55894 -0.03800
C 	C 	0.70678 0.92926 0.55735 0.02700
C 	C 	0.70918 0.89641 0.57186 0.00100
C 	C 	0.74115 0.88155 0.57822 -0.00100
C 	C 	0.77045 0.89897 0.56835 -0.05500
C 	C 	0.76820 0.93397 0.56561 0.05800
C 	C 	0.67555 0.94062 0.52998 0.02300
S 	S 	0.67235 0.87325 0.57939 -0.01400
H 	H 	0.74286 0.85537 0.58503 0.05900
S 	S 	0.80477 0.95940 0.56857 0.07800
H 	H 	0.73461 0.97473 0.55117 0.09300
C 	C 	0.65926 0.97015 0.54692 0.01200
C 	C 	0.63703 0.98626 0.51385 -0.01700
C 	C 	0.63013 0.97262 0.46429 -0.01500
C 	C 	0.64270 0.94069 0.44972 0.04600
C 	C 	0.66578 0.92518 0.48226 -0.03000
S 	S 	0.66713 0.98754 0.60893 -0.02800
H 	H 	0.62626 0.01011 0.52605 0.05200
S 	S 	0.62880 0.91936 0.39184 0.01300
H 	H 	0.67729 0.90179 0.46966 0.08300
H 	H 	0.81421 0.97056 0.61719 0.06300
H 	H 	0.69388 0.00938 0.61046 0.04600
H 	H 	0.60020 0.90119 0.39758 0.04100
H 	H 	0.66062 0.88254 0.62522 0.04000
C 	C 	0.69681 0.92524 0.73562 -0.06600
C 	C 	0.70095 0.96001 0.74320 0.02500
C 	C 	0.72490 0.97586 0.71657 -0.00700
C 	C 	0.74745 0.95647 0.68891 0.00000
C 	C 	0.74883 0.92181 0.69274 -0.07600
C 	C 	0.72048 0.90604 0.70972 0.05800
C 	C 	0.68562 0.97840 0.78582 0.00800
S 	S 	0.71681 0.86222 0.70432 -0.02200
H 	H 	0.67698 0.91300 0.75334 0.06400
C 	C 	0.65111 0.98733 0.78258 0.01300
C 	C 	0.63774 0.00624 0.82259 -0.03200
C 	C 	0.65867 0.01706 0.86551 -0.01900
C 	C 	0.69333 0.00820 0.86855 0.03300
C 	C 	0.70627 0.98815 0.82941 -0.03800
S 	S 	0.62456 0.97554 0.72840 -0.02900
H 	H 	0.61110 0.01286 0.82014 0.05200
S 	S 	0.72134 0.02392 0.91918 0.03600
H 	H 	0.73284 0.98122 0.83193 0.08600
H 	H 	0.73183 0.84978 0.74648 0.07000
H 	H 	0.61091 0.94462 0.73249 0.04300
H 	H 	0.73490 0.05364 0.90844 0.07300
H 	H 	0.70443 0.03449 0.69580 0.04200
C 	C 	0.02072 0.60160 0.75595 -0.04500
C 	C 	0.02724 0.59127 0.65211 -0.00500
C 	C 	0.02480 0.62412 0.67497 0.08300
C 	C 	0.02102 0.62894 0.72669 -0.05100
C 	C 	0.02341 0.58455 0.59681 -0.00300
N 	N 	0.02599 0.65102 0.64754 -0.19400
H 	H 	0.01702 0.65390 0.74378 0.06500
C 	C 	0.99099 0.58627 0.57209 -0.08100
C 	C 	0.98590 0.57811 0.52022 0.11200
C 	C 	0.01354 0.56641 0.49310 -0.04900
C 	C 	0.04613 0.56551 0.51750 -0.04900
C 	C 	0.05147 0.57496 0.56909 0.07600
H 	H 	0.96966 0.59416 0.59329 0.06600
N 	N 	0.95465 0.58216 0.49661 -0.19900
H 	H 	0.06738 0.55725 0.49638 0.05500
N 	N 	0.08351 0.57510 0.59154 -0.19400
H 	H 	0.95060 0.57900 0.45764 0.10400
H 	H 	0.10395 0.56726 0.57102 0.09600
H 	H 	0.08861 0.58379 0.62909 0.09800
H 	H 	0.02307 0.67514 0.66438 0.11700
H 	H 	0.03100 0.64837 0.60977 0.11100
F 	F 	0.94217 0.94321 0.97688 -0.43600
F 	F 	0.93910 0.97408 0.91008 -0.53100
C 	C 	0.95407 0.84380 0.88137 -0.09200
C 	C 	0.92405 0.84074 0.84980 0.04500
C 	C 	0.92120 0.85690 0.80538 0.00400
C 	C 	0.95106 0.86932 0.78746 -0.10100
C 	C 	0.95387 0.87258 0.73213 0.78700
H 	H 	0.90220 0.82792 0.86151 0.08900
C 	C 	0.95895 0.82207 0.92481 0.78200
F 	F 	0.93619 0.84695 0.70384 -0.40100
F 	F 	0.94586 0.83812 0.96661 -0.43300
F 	F 	0.99293 0.81508 0.93537 -0.45700
F 	F 	0.94202 0.79192 0.91339 -0.44100
C 	C 	0.12495 0.97244 0.96093 -0.01000
C 	C 	0.13725 0.96794 0.91272 -0.12100
C 	C 	0.13667 0.99500 0.88292 0.06200
C 	C 	0.12883 0.02704 0.90340 -0.02600
H 	H 	0.14093 0.99084 0.84347 0.09900
C 	C 	0.14767 0.93383 0.89102 0.78600
F 	F 	0.12006 0.91800 0.86445 -0.46300
F 	F 	0.15983 0.91439 0.92857 -0.42200
F 	F 	0.17317 0.93690 0.85896 -0.41800
C 	C 	0.03324 0.72482 0.93950 -0.04600
C 	C 	0.04388 0.71884 0.98897 0.00600
C 	C 	0.04323 0.68600 0.00379 0.01700
C 	C 	0.03191 0.65964 0.96908 -0.03400
C 	C 	0.02081 0.66572 0.91979 -0.02200
C 	C 	0.02122 0.69865 0.90513 0.03700
H 	H 	0.03154 0.63440 0.98052 0.04900
S 	S 	0.00471 0.70782 0.84505 0.01700
H 	H 	0.03345 0.75010 0.92817 0.09700
C 	C 	0.08747 0.75861 0.03295 0.00100
C 	C 	0.09473 0.79184 0.05063 0.00600
S 	S 	0.12086 0.73198 0.01621 -0.00400
H 	H 	0.12072 0.80087 0.05291 0.06800
H 	H 	0.97064 0.71394 0.84603 0.07400
H 	H 	0.12574 0.73386 0.96652 0.05300
H 	H 	0.93484 0.92461 0.12929 0.09000
C 	C 	0.86677 0.77707 0.35874 0.01900
H 	H 	0.83978 0.77170 0.35590 0.07000
F 	F 	0.83701 0.74387 0.27376 -0.43500
C 	C 	0.08380 0.93747 0.30811 0.05700
C 	C 	0.08271 0.96171 0.27320 -0.00600
C 	C 	0.07330 0.95169 0.22220 -0.12700
C 	C 	0.05529 0.92163 0.21030 0.05200
C 	C 	0.05165 0.89939 0.24720 -0.00600
C 	C 	0.07027 0.90542 0.29436 -0.10000
C 	C 	0.07646 0.87806 0.32958 0.78200
H 	H 	0.09392 0.94389 0.34634 0.09300
H 	H 	0.04361 0.91589 0.17272 0.07500
C 	C 	0.08235 0.97249 0.18046 0.78600
F 	F 	0.10637 0.88400 0.35930 -0.41600
F 	F 	0.07929 0.84728 0.30305 -0.42700
F 	F 	0.11085 0.99203 0.19477 -0.41700
F 	F 	0.05537 0.99279 0.16765 -0.49300
F 	F 	0.08930 0.95193 0.13856 -0.43400
C 	C 	0.05499 0.67587 0.20907 -0.06400
C 	C 	0.02529 0.65640 0.20514 0.01600
C 	C 	0.99698 0.66627 0.17488 0.00100
C 	C 	0.99606 0.69846 0.15842 0.00100
C 	C 	0.02342 0.72049 0.17172 -0.07000
C 	C 	0.05432 0.70766 0.19133 0.05500
C 	C 	0.02103 0.63189 0.24240 0.01300
S 	S 	0.96201 0.63924 0.15989 0.01600
H 	H 	0.97299 0.70728 0.13952 0.07300
S 	S 	0.09186 0.73159 0.19508 -0.01100
H 	H 	0.07776 0.66738 0.22918 0.06100
C 	C 	0.03710 0.60058 0.23877 0.00600
C 	C 	0.03411 0.57872 0.27633 -0.02800
C 	C 	0.01480 0.58766 0.31717 -0.02900
C 	C 	0.99791 0.61862 0.31988 0.03800
C 	C 	0.00171 0.64074 0.28318 -0.05700
S 	S 	0.06028 0.58816 0.18694 -0.02900
H 	H 	0.04655 0.55467 0.27359 0.05100
H 	H 	0.09527 0.75019 0.24032 0.08000
H 	H 	0.09325 0.59879 0.19655 0.04300
H 	H 	0.98875 0.64457 0.40847 0.06000
H 	H 	0.96697 0.62001 0.11651 0.04100
Cd	Cd	0.96016 0.87324 0.30513 1.21600
O 	O 	0.93981 0.84584 0.17145 -0.31300
O 	O 	0.94864 0.89128 0.22856 -0.40700
C 	C 	0.93001 0.87516 0.19148 0.29600
C 	C 	0.93545 0.79524 0.27398 0.30500
O 	O 	0.93484 0.77482 0.23356 -0.19700
O 	O 	0.95891 0.81813 0.27720 -0.49500
Cd	Cd	0.04942 0.90475 0.99597 1.25200
Cd	Cd	0.04757 0.94787 0.88675 1.22600
O 	O 	0.08322 0.85352 0.99968 -0.27100
O 	O 	0.05644 0.87394 0.06373 -0.31200
C 	C 	0.07340 0.84910 0.04381 0.28500
O 	O 	0.02226 0.95182 0.01679 -0.32100
O 	O 	0.00506 0.96247 0.93597 -0.36200
C 	C 	0.00743 0.97141 0.98463 0.27100
C 	C 	0.10533 0.94547 0.97908 0.29900
O 	O 	0.03312 0.89329 0.89909 -0.38500
O 	O 	0.08180 0.92999 0.95032 -0.48700
C 	C 	0.00371 0.88253 0.91003 0.28400
O 	O 	0.99954 0.88148 0.95764 -0.26900
Cd	Cd	0.84194 0.85447 0.33207 1.21500
O 	O 	0.87047 0.90273 0.35685 -0.41800
C 	C 	0.89158 0.90958 0.39699 0.28300
C 	C 	0.91928 0.93401 0.39422 -0.01700
C 	C 	0.95378 0.92542 0.40431 -0.15100
C 	C 	0.97944 0.94724 0.39258 0.03800
H 	H 	0.00587 0.94006 0.39689 0.08900
C 	C 	0.96320 0.89385 0.42918 0.77700
F 	F 	0.99791 0.88871 0.43268 -0.40500
F 	F 	0.94800 0.86653 0.40181 -0.53500
F 	F 	0.95229 0.89623 0.47709 -0.37300
F 	F 	0.87430 0.02420 0.75575 -0.43200
N 	N 	0.97329 0.54018 0.92812 -0.19900
H 	H 	0.97652 0.51870 0.94735 0.09300
H 	H 	0.99348 0.55713 0.93020 0.09700
H 	H 	0.93418 0.58983 0.51719 0.10200
C 	C 	0.97896 0.87717 0.82187 0.05300
C 	C 	0.97934 0.86672 0.87056 0.00500
H 	H 	0.99979 0.89198 0.81122 0.07300
F 	F 	0.94087 0.90284 0.71920 -0.43300
F 	F 	0.98743 0.87080 0.72057 -0.39800
C 	C 	0.12253 0.00494 0.98378 0.03600
H 	H 	0.11571 0.00874 0.02221 0.09900
C 	C 	0.05344 0.74762 0.02540 0.02900
S 	S 	0.05636 0.67753 0.06548 -0.02700
C 	C 	0.06823 0.81466 0.05743 -0.06200
C 	C 	0.03490 0.80202 0.05894 0.07400
C 	C 	0.02776 0.76853 0.04291 -0.05400
S 	S 	0.00163 0.82805 0.07817 0.00900
H 	H 	0.00175 0.75952 0.04014 0.09300
H 	H 	0.99037 0.84687 0.04023 0.11300
H 	H 	0.09032 0.67042 0.06885 0.04300
C 	C 	0.90949 0.92139 0.14119 0.06000
C 	C 	0.90199 0.89318 0.16600 0.01100
C 	C 	0.86791 0.88664 0.17484 -0.10800
C 	C 	0.84353 0.91184 0.16852 0.05900
H 	H 	0.81844 0.90879 0.18122 0.11700
C 	C 	0.85803 0.85382 0.19386 0.78900
F 	F 	0.87226 0.85196 0.24218 -0.56800
F 	F 	0.86974 0.82765 0.16317 -0.39500
F 	F 	0.82316 0.85042 0.19408 -0.44300
C 	C 	0.88196 0.79219 0.40381 -0.01800
C 	C 	0.91766 0.79401 0.40971 -0.07900
C 	C 	0.93581 0.79355 0.36659 0.04500
C 	C 	0.91887 0.78649 0.31892 -0.02000
C 	C 	0.88505 0.77395 0.31558 -0.11400
C 	C 	0.86890 0.75645 0.26734 0.77400
H 	H 	0.96273 0.79936 0.36997 0.10100
C 	C 	0.93630 0.79528 0.46116 0.78500
F 	F 	0.88888 0.72993 0.25160 -0.42200
F 	F 	0.86540 0.77855 0.23058 -0.40300
F 	F 	0.91935 0.77619 0.49212 -0.41100
F 	F 	0.93848 0.82785 0.48206 -0.36500
F 	F 	0.96882 0.78277 0.45832 -0.40400
F 	F 	0.05002 0.87714 0.36040 -0.42500
S 	S 	0.97049 0.62926 0.36751 0.00300
H 	H 	0.98929 0.66481 0.28596 0.08000
