data_crystal

_cell_length_a 24.73405
_cell_length_b 24.96945
_cell_length_c 106.08764
_cell_angle_alpha 90.00091
_cell_angle_beta  90.00087
_cell_angle_gamma 119.57072

_symmetry_space_group_name_	'P 1'
_symmetry_space_group_name_H-M	'P 1'

loop_
_symmetry_equiv_pos_as_xyz
  x,y,z

loop_
_atom_site_label
_atom_site_type_symbol
_atom_site_fract_x
_atom_site_fract_y
_atom_site_fract_z
_atom_site_charge
C 	C 	0.26292 0.28793 0.49499 0.28700
O 	O 	0.26048 0.42274 0.49656 -0.36000
O 	O 	0.21002 0.34987 0.46657 -0.37000
O 	O 	0.23742 0.30553 0.48618 -0.35600
C 	C 	0.22693 0.34704 0.45499 0.29500
O 	O 	0.04344 0.74575 0.95347 -0.36900
O 	O 	0.05020 0.76418 0.97773 -0.35700
C 	C 	0.02205 0.16593 0.17365 0.29400
O 	O 	0.05942 0.25237 0.20535 -0.37200
O 	O 	0.04448 0.20290 0.18343 -0.35900
C 	C 	0.15424 0.56829 0.15826 -0.00100
C 	C 	0.11968 0.53226 0.16847 -0.05400
C 	C 	0.06258 0.47951 0.16594 0.01200
C 	C 	0.03885 0.46670 0.15360 0.00700
S 	S 	0.20755 0.64225 0.15914 0.01700
C 	C 	0.03253 0.98797 0.15526 -0.05800
C 	C 	0.03771 0.03123 0.16429 0.01700
C 	C 	0.04867 0.12654 0.17043 -0.07600
C 	C 	0.05074 0.41834 0.00371 -0.00100
C 	C 	0.08980 0.41420 0.01299 -0.01700
H 	H 	0.07755 0.40533 0.02287 0.03900
C 	C 	0.13717 0.92068 0.01033 0.00000
C 	C 	0.13896 0.96554 0.01851 -0.05700
S 	S 	0.08492 0.84618 0.01104 0.01400
C 	C 	0.08920 0.82880 0.99597 -0.06900
H 	H 	0.11410 0.95281 0.02739 0.04400
H 	H 	0.14701 0.07191 0.02974 0.04200
C 	C 	0.16956 0.29450 0.25359 -0.05500
C 	C 	0.15133 0.27486 0.24116 0.01300
S 	S 	0.14694 0.22225 0.22104 0.02900
C 	C 	0.07996 0.21938 0.22509 -0.08600
C 	C 	0.08983 0.25052 0.23662 -0.02300
H 	H 	0.13846 0.29894 0.26016 0.04300
C 	C 	0.18771 0.29970 0.33654 -0.00000
C 	C 	0.14066 0.28465 0.34546 -0.05500
C 	C 	0.07891 0.25466 0.34119 0.01500
C 	C 	0.11190 0.24345 0.32010 -0.05700
C 	C 	0.17379 0.27686 0.32417 0.01700
H 	H 	0.15143 0.29314 0.35541 0.04500
H 	H 	0.10026 0.22056 0.31102 0.04500
C 	C 	0.10573 0.28762 0.43043 0.01300
C 	C 	0.18078 0.30553 0.44590 -0.08500
C 	C 	0.16713 0.32671 0.43476 -0.02300
H 	H 	0.11515 0.32436 0.41152 0.04200
H 	H 	0.19963 0.36921 0.43011 0.02300
C 	C 	0.21342 0.11327 0.49789 0.00100
S 	S 	0.22762 0.16894 0.48758 0.01300
C 	C 	0.23398 0.22221 0.49790 -0.07000
C 	C 	0.25920 0.58935 0.51264 0.00200
C 	C 	0.18430 0.58717 0.53226 -0.00200
C 	C 	0.18327 0.53234 0.52896 -0.05400
C 	C 	0.22295 0.53470 0.51929 0.01500
S 	S 	0.31527 0.58356 0.50524 0.00600
C 	C 	0.29505 0.51178 0.50982 -0.07400
S 	S 	0.12476 0.59071 0.53861 0.02600
S 	S 	0.13302 0.86942 0.93983 0.02600
C 	C 	0.05901 0.81738 0.93677 -0.08600
C 	C 	0.04956 0.81608 0.92374 -0.02200
C 	C 	0.02937 0.02605 0.82905 0.00900
C 	C 	0.01920 0.02124 0.84216 0.02800
Cu	Cu	0.05326 0.71532 0.72373 0.87300
Cu	Cu	0.09852 0.74911 0.69704 0.89800
Cu	Cu	0.02160 0.73197 0.67341 0.89600
C 	C 	0.16486 0.71734 0.71630 0.28700
O 	O 	0.03119 0.75748 0.69039 -0.63700
O 	O 	0.03030 0.68140 0.70692 -0.64000
O 	O 	0.01205 0.76266 0.72442 -0.42500
O 	O 	0.15981 0.81570 0.68695 -0.38200
C 	C 	0.16068 0.81599 0.67451 0.28700
O 	O 	0.02370 0.64849 0.67855 -0.37800
O 	O 	0.10868 0.79164 0.66778 -0.38500
O 	O 	0.16845 0.75337 0.70681 -0.38800
O 	O 	0.11545 0.69119 0.72364 -0.41300
H 	H 	0.03554 0.79868 0.69171 0.16600
H 	H 	0.02939 0.64152 0.70595 0.17300
Cu	Cu	0.28897 0.15174 0.86102 0.92900
Cu	Cu	0.37426 0.19314 0.88690 0.87200
Cu	Cu	0.37097 0.28531 0.86905 0.89800
Cu	Cu	0.29628 0.26197 0.84532 0.89400
C 	C 	0.18707 0.13602 0.84566 0.28700
O 	O 	0.32994 0.15205 0.84447 -0.35900
O 	O 	0.28964 0.23603 0.86221 -0.64100
O 	O 	0.37054 0.20495 0.86899 -0.64200
O 	O 	0.25434 0.08494 0.87386 -0.36900
O 	O 	0.28784 0.15154 0.89043 -0.43700
O 	O 	0.22739 0.18250 0.83871 -0.38100
O 	O 	0.36486 0.35950 0.86899 -0.38100
C 	C 	0.35315 0.38375 0.85900 0.29000
C 	C 	0.37594 0.20320 0.83987 0.27900
O 	O 	0.38072 0.25656 0.84273 -0.38800
O 	O 	0.32318 0.35029 0.84901 -0.39200
O 	O 	0.20609 0.11172 0.85447 -0.35800
C 	C 	0.25148 0.09632 0.88586 0.28900
O 	O 	0.44506 0.33044 0.87971 -0.39000
H 	H 	0.25613 0.23712 0.86711 0.16600
H 	H 	0.40649 0.20701 0.86446 0.17100
Cu	Cu	0.27253 0.38822 0.48023 0.92800
Cu	Cu	0.31691 0.47156 0.45448 0.86900
Cu	Cu	0.40797 0.48424 0.47491 0.89700
Cu	Cu	0.38190 0.40484 0.49790 0.89300
C 	C 	0.43088 0.58244 0.45677 0.28000
O 	O 	0.36305 0.40029 0.48052 -0.64000
O 	O 	0.32172 0.47134 0.47279 -0.63900
O 	O 	0.28312 0.38638 0.45117 -0.44000
O 	O 	0.30420 0.32820 0.50289 -0.38300
O 	O 	0.48885 0.48997 0.47630 -0.38100
C 	C 	0.50565 0.46406 0.48521 0.28800
C 	C 	0.30701 0.47034 0.50205 0.28000
O 	O 	0.36419 0.48146 0.50033 -0.38600
O 	O 	0.47391 0.44391 0.49583 -0.38900
O 	O 	0.45121 0.56548 0.46669 -0.37400
O 	O 	0.37100 0.55827 0.45457 -0.41800
H 	H 	0.37112 0.37130 0.47558 0.16200
H 	H 	0.31581 0.50388 0.47680 0.17300
Cu	Cu	0.42688 0.36413 0.30076 0.92800
Cu	Cu	0.48362 0.33697 0.27533 0.87100
Cu	Cu	0.45595 0.31698 0.32605 0.89500
C 	C 	0.33925 0.31914 0.32106 0.28800
O 	O 	0.47858 0.44122 0.31103 -0.36000
O 	O 	0.43724 0.29288 0.30900 -0.63600
O 	O 	0.37597 0.35510 0.28562 -0.37400
O 	O 	0.39632 0.28482 0.27648 -0.44000
O 	O 	0.38512 0.33263 0.32905 -0.38200
O 	O 	0.48839 0.26012 0.33023 -0.38800
O 	O 	0.35077 0.34030 0.30942 -0.36100
C 	C 	0.35996 0.30872 0.27789 0.29100
H 	H 	0.40317 0.25013 0.30771 0.16300
Cu	Cu	0.26408 0.27585 0.03804 0.92900
Cu	Cu	0.26082 0.35560 0.06233 0.87100
Cu	Cu	0.24929 0.38952 0.03584 0.89700
Cu	Cu	0.24172 0.32045 0.01196 0.89400
C 	C 	0.20949 0.18951 0.01752 0.29000
O 	O 	0.34495 0.30358 0.02865 -0.36100
C 	C 	0.31622 0.48260 0.05548 0.28700
O 	O 	0.21193 0.30880 0.02859 -0.64200
O 	O 	0.29557 0.35735 0.04584 -0.64300
O 	O 	0.23537 0.22618 0.05367 -0.37700
O 	O 	0.18767 0.27667 0.06172 -0.43300
O 	O 	0.23176 0.23627 0.00949 -0.38300
O 	O 	0.19841 0.41374 0.02620 -0.37800
C 	C 	0.18513 0.40177 0.01410 0.28700
C 	C 	0.36997 0.35390 0.02178 0.28200
O 	O 	0.33647 0.37889 0.01833 -0.38900
O 	O 	0.21439 0.38071 0.00695 -0.38900
O 	O 	0.21992 0.19804 0.02978 -0.36700
C 	C 	0.19103 0.22605 0.06048 0.28700
O 	O 	0.27655 0.46485 0.04594 -0.38400
O 	O 	0.31647 0.44231 0.06351 -0.41500
H 	H 	0.16613 0.28477 0.02944 0.16400
H 	H 	0.34125 0.38420 0.04543 0.17200
Cu	Cu	0.26090 0.93155 0.12327 0.92800
Cu	Cu	0.25896 0.87173 0.09562 0.87000
Cu	Cu	0.26991 0.81481 0.11952 0.89700
Cu	Cu	0.26384 0.85316 0.14626 0.89300
C 	C 	0.19792 0.92490 0.14628 0.28500
O 	O 	0.34256 0.98677 0.13205 -0.36200
C 	C 	0.33262 0.81238 0.09596 0.28800
O 	O 	0.22596 0.84149 0.13030 -0.64100
O 	O 	0.29988 0.89797 0.11183 -0.64200
O 	O 	0.21976 0.95629 0.11030 -0.37500
O 	O 	0.18115 0.86626 0.09944 -0.43400
O 	O 	0.23581 0.91117 0.15248 -0.38400
O 	O 	0.23414 0.73411 0.12725 -0.37900
C 	C 	0.22888 0.72358 0.13952 0.28600
C 	C 	0.37913 0.96549 0.13566 0.27900
O 	O 	0.35583 0.90652 0.13794 -0.38600
O 	O 	0.25437 0.76913 0.14779 -0.39000
O 	O 	0.21164 0.94810 0.13479 -0.35900
C 	C 	0.17818 0.91554 0.10263 0.28700
O 	O 	0.30159 0.78262 0.10618 -0.38500
O 	O 	0.32259 0.85410 0.09047 -0.41600
H 	H 	0.18028 0.81422 0.13026 0.16200
H 	H 	0.34573 0.92260 0.11121 0.17200
C 	C 	0.07316 0.50343 0.14339 -0.05900
C 	C 	0.13054 0.55588 0.14594 0.01700
C 	C 	0.20555 0.66027 0.14400 -0.07200
C 	C 	0.15938 0.60781 0.13784 -0.02300
H 	H 	0.14141 0.60923 0.12861 0.04200
C 	C 	0.44657 0.00632 0.13570 -0.07300
C 	C 	0.06560 0.95661 0.15731 0.00200
C 	C 	0.07755 0.04456 0.17468 -0.00500
C 	C 	0.11761 0.02015 0.17564 -0.04900
C 	C 	0.10985 0.97419 0.16704 0.01000
S 	S 	0.08597 0.92415 0.14598 0.01700
C 	C 	0.14768 0.92718 0.15314 -0.07800
C 	C 	0.15620 0.95763 0.16468 -0.01800
S 	S 	0.09241 0.11230 0.18046 0.02900
H 	H 	0.15550 0.03855 0.18237 0.04400
H 	H 	0.19863 0.97538 0.17014 0.04100
C 	C 	0.07629 0.42926 0.99151 0.01100
C 	C 	0.05937 0.45874 0.98239 -0.07300
S 	S 	0.14606 0.43503 0.99248 0.01800
C 	C 	0.14627 0.42353 0.00802 -0.07300
H 	H 	0.08672 0.47720 0.97390 0.05100
C 	C 	0.43294 0.37799 0.01681 -0.07300
C 	C 	0.45007 0.40102 0.00453 -0.02000
H 	H 	0.41667 0.39535 0.99731 0.03500
C 	C 	0.19606 0.04189 0.00231 0.00000
C 	C 	0.18537 0.99606 0.99349 -0.05600
C 	C 	0.15749 0.93499 0.99776 0.01600
C 	C 	0.17057 0.02698 0.01447 0.01500
S 	S 	0.20856 0.11197 0.99884 0.02100
C 	C 	0.18444 0.12682 0.01250 -0.07500
C 	C 	0.16461 0.07488 0.02027 -0.01900
C 	C 	0.13030 0.88318 0.98964 -0.02300
H 	H 	0.19577 0.00709 0.98359 0.04600
H 	H 	0.13396 0.88679 0.97946 0.04800
C 	C 	0.09677 0.08458 0.08241 0.00300
C 	C 	0.09866 0.05422 0.09335 -0.05600
C 	C 	0.09577 0.99694 0.09207 0.01400
C 	C 	0.09299 0.97211 0.08002 0.00300
C 	C 	0.10009 0.00664 0.06913 -0.05600
C 	C 	0.10097 0.06297 0.07041 0.01400
S 	S 	0.12657 0.16044 0.08140 0.00400
C 	C 	0.14264 0.16837 0.06600 -0.07600
C 	C 	0.12699 0.11020 0.06118 -0.02000
S 	S 	0.11850 0.92203 0.08133 -0.00300
C 	C 	0.13117 0.92736 0.09687 -0.07600
C 	C 	0.11712 0.97167 0.10154 -0.02000
H 	H 	0.10694 0.07652 0.10247 0.04600
H 	H 	0.10942 0.99248 0.06011 0.04300
H 	H 	0.14235 0.10374 0.05203 0.04600
H 	H 	0.13094 0.99173 0.11085 0.04900
C 	C 	0.38847 0.66075 0.06047 -0.00200
C 	C 	0.37994 0.71199 0.06152 -0.05500
C 	C 	0.39416 0.74340 0.07308 0.01400
C 	C 	0.41251 0.72109 0.08346 -0.00100
C 	C 	0.41235 0.66502 0.08285 -0.05500
C 	C 	0.40214 0.63586 0.07110 0.01400
S 	S 	0.35215 0.60443 0.05001 0.02600
C 	C 	0.35605 0.54871 0.05802 -0.07800
C 	C 	0.38396 0.57269 0.06972 -0.02100
S 	S 	0.39801 0.74892 0.09648 0.02200
C 	C 	0.37263 0.79271 0.08961 -0.07700
C 	C 	0.37190 0.78395 0.07653 -0.02100
H 	H 	0.35936 0.72466 0.05389 0.04500
H 	H 	0.41618 0.64300 0.09135 0.04400
H 	H 	0.38314 0.54417 0.07749 0.04000
H 	H 	0.34748 0.79810 0.07004 0.03700
C 	C 	0.22817 0.30497 0.25740 -0.00300
C 	C 	0.18948 0.26319 0.23319 -0.00200
C 	C 	0.24264 0.26334 0.23773 -0.05600
C 	C 	0.26272 0.28631 0.24991 0.01300
S 	S 	0.25076 0.30839 0.27226 0.02600
C 	C 	0.30525 0.28816 0.26980 -0.08300
C 	C 	0.30646 0.27732 0.25685 -0.02500
H 	H 	0.26592 0.24416 0.23223 0.04300
H 	H 	0.33882 0.26535 0.25256 0.02800
S 	S 	0.25946 0.31432 0.33988 0.02200
C 	C 	0.27580 0.29401 0.32595 -0.07700
C 	C 	0.22364 0.27453 0.31814 -0.01900
H 	H 	0.22168 0.25921 0.30851 0.04300
C 	C 	0.51028 0.71553 0.41878 -0.05700
C 	C 	0.50922 0.67997 0.42912 0.01400
C 	C 	0.47523 0.63472 0.44909 -0.07500
C 	C 	0.45865 0.65077 0.43760 -0.02800
H 	H 	0.46774 0.71082 0.41485 0.04300
H 	H 	0.41197 0.64122 0.43539 0.03700
C 	C 	0.24225 0.49046 0.51755 -0.02000
H 	H 	0.15357 0.48975 0.53389 0.04700
H 	H 	0.21807 0.44454 0.52152 0.04300
C 	C 	0.15403 0.93435 0.90094 -0.00300
C 	C 	0.10199 0.88018 0.90501 -0.05400
C 	C 	0.10347 0.85887 0.91716 0.01300
C 	C 	0.15515 0.89243 0.92506 -0.00200
C 	C 	0.20223 0.95143 0.92168 -0.05500
C 	C 	0.20175 0.97169 0.90936 0.01300
S 	S 	0.15309 0.97895 0.88942 0.03100
C 	C 	0.21241 0.04579 0.89442 -0.08400
C 	C 	0.23508 0.03429 0.90562 -0.02500
H 	H 	0.06042 0.85762 0.89927 0.04500
H 	H 	0.23560 0.98180 0.92857 0.04200
H 	H 	0.27463 0.06934 0.91075 0.02500
C 	C 	0.38711 0.54060 0.84978 0.01600
C 	C 	0.43742 0.56332 0.85827 -0.00200
S 	S 	0.43362 0.50373 0.86600 0.02100
C 	C 	0.36799 0.44837 0.85956 -0.07400
C 	C 	0.34797 0.47586 0.85051 -0.02200
H 	H 	0.31271 0.44971 0.84353 0.04200
S 	S 	0.10144 0.08260 0.82643 0.02400
C 	C 	0.12235 0.10174 0.84144 -0.07500
C 	C 	0.07231 0.06291 0.84917 -0.02200
H 	H 	0.07312 0.06640 0.85935 0.04300
C 	C 	0.29065 0.69927 0.73500 -0.00100
C 	C 	0.30976 0.68770 0.74663 -0.05600
C 	C 	0.31811 0.75920 0.72996 0.01500
S 	S 	0.21861 0.66013 0.72944 0.01700
C 	C 	0.22066 0.71473 0.71996 -0.07500
C 	C 	0.27883 0.76776 0.72145 -0.02200
H 	H 	0.28241 0.64417 0.75144 0.04400
H 	H 	0.28845 0.81281 0.71822 0.04200
S 	S 	0.23182 0.84914 0.65259 0.01700
C 	C 	0.22036 0.85313 0.66803 -0.07200
C 	C 	0.27015 0.90733 0.67283 -0.02100
H 	H 	0.27491 0.92050 0.68266 0.04500
C 	C 	0.21222 0.13551 0.51004 0.01400
C 	C 	0.22568 0.19769 0.51006 -0.02000
C 	C 	0.08631 0.28782 0.41802 -0.05500
H 	H 	0.22527 0.22211 0.51846 0.04400
C 	C 	0.18049 0.09430 0.51988 -0.05400
H 	H 	0.17349 0.11062 0.52886 0.04600
S 	S 	0.11711 0.24030 0.45012 0.03100
H 	H 	0.13780 0.54330 0.17798 0.04400
H 	H 	0.05531 0.42649 0.18306 0.03300
C 	C 	0.03614 0.42714 0.17391 -0.01600
C 	C 	0.22036 0.64201 0.52548 0.01500
C 	C 	0.26072 0.64431 0.51592 -0.05800
C 	C 	0.03710 0.21974 0.21564 0.29800
C 	C 	0.17935 0.05035 0.49510 -0.05600
O 	O 	0.02314 0.30469 0.17693 -0.35800
H 	H 	0.05522 0.25858 0.24114 0.02000
H 	H 	0.05531 0.49227 0.13387 0.04600
H 	H 	0.28977 0.68654 0.51082 0.04400
C 	C 	0.06532 0.23686 0.32849 0.00300
C 	C 	0.19742 0.68395 0.52630 -0.02300
C 	C 	0.14356 0.66154 0.53373 -0.07500
H 	H 	0.21385 0.72412 0.52030 0.04200
C 	C 	0.15344 0.03119 0.51740 0.00100
H 	H 	0.17193 0.03441 0.48542 0.04600
C 	C 	0.09773 0.68248 0.53252 0.29100
O 	O 	0.50103 0.37296 0.29200 -0.64300
C 	C 	0.04180 0.77283 0.98968 0.28700
H 	H 	0.35041 0.55919 0.83275 0.04500
H 	H 	0.36464 0.14277 0.81654 0.04200
S 	S 	0.49656 0.41085 0.02589 0.00900
C 	C 	0.29915 0.91462 0.65143 -0.00100
H 	H 	0.36435 0.69400 0.77049 0.04000
H 	H 	0.45257 0.07560 0.14915 0.04200
C 	C 	0.38924 0.57550 0.83922 -0.05800
C 	C 	0.47699 0.05811 0.14351 -0.02200
O 	O 	0.46113 0.25170 0.88636 -0.41500
Cu	Cu	0.51477 0.31079 0.30121 0.89600
C 	C 	0.36297 0.73569 0.75223 0.01300
C 	C 	0.42334 0.20064 0.83207 -0.07300
C 	C 	0.31506 0.94160 0.66347 0.01700
S 	S 	0.49742 0.98344 0.13168 0.00600
C 	C 	0.40753 0.15986 0.82181 -0.02000
C 	C 	0.38024 0.73560 0.76496 -0.02200
C 	C 	0.49275 0.61816 0.85585 -0.05500
C 	C 	0.48258 0.31025 0.88361 0.28700
C 	C 	0.36849 0.80807 0.73614 -0.05800
H 	H 	0.33439 0.89739 0.63410 0.04500
C 	C 	0.34498 0.92606 0.64241 -0.05400
C 	C 	0.39303 0.79419 0.74671 0.00000
H 	H 	0.38596 0.85531 0.73317 0.04400
S 	S 	0.48988 0.20964 0.83827 -0.00100
C 	C 	0.44480 0.62982 0.83683 0.00300
C 	C 	0.49499 0.65214 0.84517 0.01500
C 	C 	0.45111 0.13963 0.81978 0.01500
C 	C 	0.42306 0.79461 0.76946 -0.07400
C 	C 	0.02053 0.07681 0.16203 -0.02000
H 	H 	0.41523 0.08795 0.80246 0.04600
O 	O 	0.10927 0.72780 0.52462 -0.39300
O 	O 	0.05331 0.66440 0.54108 -0.38000
C 	C 	0.15051 0.00913 0.50509 0.01800
S 	S 	0.43729 0.84433 0.75762 0.00300
C 	C 	0.37657 0.98630 0.66620 -0.05900
S 	S 	0.45267 0.68781 0.82789 0.00400
C 	C 	0.01898 0.76686 0.94522 0.30300
H 	H 	0.00685 0.98171 0.14660 0.04500
H 	H 	0.39058 0.00331 0.67572 0.04700
C 	C 	0.45378 0.10865 0.80901 -0.05400
C 	C 	0.07130 0.23671 0.43832 -0.00200
H 	H 	0.02390 0.53601 0.97025 0.05400
Cu	Cu	0.00432 0.24341 0.19100 0.92900
H 	H 	0.00547 0.78623 0.91921 0.02800
C 	C 	0.40583 0.97318 0.64489 0.01300
C 	C 	0.47167 0.80425 0.77854 0.28400
C 	C 	0.42026 0.00505 0.65643 0.00500
C 	C 	0.00886 0.46778 0.98501 0.05700
O 	O 	0.00408 0.63153 0.97811 -0.34700
C 	C 	0.00207 0.42995 0.00652 -0.01800
O 	O 	0.00121 0.72679 0.99668 -0.37600
H 	H 	0.03050 0.22496 0.35947 0.04800
C 	C 	0.49941 0.16305 0.82851 0.00500
C 	C 	0.02690 0.22325 0.34928 -0.02000
O 	O 	0.49356 0.85223 0.78624 -0.37600
S 	S 	0.09466 0.97655 0.52555 0.01200
H 	H 	0.45607 0.95185 0.63031 0.04100
C 	C 	0.10153 0.94793 0.50335 -0.02600
C 	C 	0.45891 0.97951 0.63842 -0.02300
H 	H 	0.09232 0.92329 0.49450 0.04400
O 	O 	0.49591 0.76781 0.77816 -0.41900
H 	H 	0.04481 0.78202 0.54013 0.16400
C 	C 	0.03080 0.23691 0.41401 -0.00400
C 	C 	0.06481 0.92348 0.51416 -0.07000
Cu	Cu	0.04801 0.75049 0.51801 0.89500
C 	C 	0.50802 0.10514 0.80700 -0.00300
O 	O 	0.03960 0.81887 0.51034 -0.38400
S 	S 	0.01204 0.21698 0.39901 0.02800
S 	S 	0.49673 0.03824 0.65854 0.01300
C 	C 	0.02196 0.18214 0.43360 -0.05600
S 	S 	0.50981 0.04813 0.79929 0.02800
C 	C 	0.02831 0.85735 0.51679 0.29200
O 	O 	0.01494 0.75205 0.53401 -0.63500
C 	C 	0.51471 0.44206 0.00334 0.01400
H 	H 	0.51715 0.47616 0.98443 0.04500
C 	C 	0.51452 0.01711 0.64489 -0.07400
O 	O 	0.52269 0.24869 0.31072 -0.38100
C 	C 	0.52019 0.74258 0.83392 -0.07400
H 	H 	0.00301 0.13968 0.43894 0.04500
C 	C 	0.00114 0.18310 0.42136 0.01600
C 	C 	0.52381 0.24621 0.32315 0.28800
H 	H 	0.99323 0.54981 0.66001 0.03500
C 	C 	0.99766 0.51094 0.97848 -0.06100
C 	C 	0.97325 0.59976 0.68264 0.27000
C 	C 	0.96273 0.53786 0.67978 -0.07500
C 	C 	0.56628 0.46689 0.48416 -0.07500
S 	S 	0.55106 0.65638 0.44834 0.01900
C 	C 	0.96640 0.51856 0.66753 -0.02300
H 	H 	0.98890 0.02170 0.81072 0.04500
Cu	Cu	0.99331 0.69456 0.96800 0.92200
C 	C 	0.52924 0.45050 0.31695 0.28000
Cu	Cu	0.95769 0.68322 0.69982 0.92500
C 	C 	0.99218 0.37347 0.16773 -0.07900
S 	S 	0.59355 0.43628 0.49471 0.01300
O 	O 	0.53601 0.40356 0.32038 -0.39000
C 	C 	0.95130 0.73619 0.72354 0.27800
H 	H 	0.96102 0.44365 0.64746 0.04300
C 	C 	0.56464 0.68534 0.43386 -0.00300
H 	H 	0.53139 0.14039 0.31527 0.04300
O 	O 	0.93280 0.60630 0.68956 -0.36000
H 	H 	0.95930 0.76291 0.74979 0.02600
O 	O 	0.93188 0.70959 0.67206 -0.38600
S 	S 	0.91428 0.47533 0.68814 0.01200
H 	H 	0.53751 0.41494 0.29227 0.17300
C 	C 	0.54429 0.15683 0.32485 -0.02000
C 	C 	0.93764 0.42093 0.65610 -0.05500
C 	C 	0.93003 0.45388 0.66598 0.01400
C 	C 	0.61661 0.51150 0.47721 -0.02100
C 	C 	0.98017 0.00851 0.82056 -0.06800
H 	H 	0.61346 0.54498 0.47121 0.04600
H 	H 	0.53223 0.63411 0.86214 0.04500
C 	C 	0.55324 0.21391 0.32907 -0.07100
O 	O 	0.92082 0.68911 0.71597 -0.37400
C 	C 	0.91596 0.35798 0.65794 -0.00300
H 	H 	0.53457 0.43399 0.89135 0.04600
C 	C 	0.89699 0.42336 0.67684 0.00300
C 	C 	0.91719 0.75804 0.73130 -0.08000
C 	C 	0.55303 0.12256 0.33451 0.01500
C 	C 	0.89913 0.71894 0.68078 0.28500
C 	C 	0.87589 0.36069 0.67878 -0.05800
C 	C 	0.88375 0.32754 0.66895 0.01500
O 	O 	0.89764 0.70081 0.69252 -0.36000
C 	C 	0.92009 0.75916 0.74452 -0.02500
H 	H 	0.85201 0.33802 0.68739 0.04400
S 	S 	0.57052 0.21988 0.34445 0.01500
C 	C 	0.56710 0.15223 0.34627 0.00200
S 	S 	0.89486 0.30616 0.64646 0.02300
C 	C 	0.54128 0.48364 0.99333 -0.05400
C 	C 	0.54745 0.45105 0.01466 0.00300
C 	C 	0.84563 0.26304 0.66733 -0.02300
C 	C 	0.66786 0.47452 0.49040 0.00100
H 	H 	0.86036 0.73414 0.65621 0.04000
C 	C 	0.56841 0.75983 0.41420 -0.00000
C 	C 	0.85134 0.73411 0.67681 -0.07100
C 	C 	0.54086 0.07701 0.14519 0.01400
H 	H 	0.55999 0.05472 0.32288 0.04500
C 	C 	0.56512 0.07412 0.33223 -0.05500
C 	C 	0.84830 0.24380 0.65504 -0.07500
C 	C 	0.95848 0.99367 0.84698 -0.07000
H 	H 	0.98911 0.07361 0.15458 0.03300
H 	H 	0.81120 0.23374 0.67419 0.04000
C 	C 	0.83840 0.74202 0.66429 -0.02300
S 	S 	0.84750 0.74815 0.72713 0.02700
S 	S 	0.81971 0.76454 0.68638 0.02000
H 	H 	0.89946 0.77954 0.76932 0.04200
C 	C 	0.86516 0.75209 0.75023 0.01300
O 	O 	0.57008 0.36689 0.27348 -0.42000
S 	S 	0.58259 0.79113 0.39994 0.01900
C 	C 	0.57889 0.51347 0.31952 -0.07600
S 	S 	0.58772 0.57516 0.31152 0.01400
C 	C 	0.67395 0.51576 0.48074 0.01400
H 	H 	0.71053 0.46065 0.50699 0.04400
O 	O 	0.58411 0.31802 0.29058 -0.37700
C 	C 	0.60660 0.53324 0.33139 -0.02100
H 	H 	0.60675 0.50249 0.33858 0.03700
C 	C 	0.62271 0.72957 0.42923 -0.05600
C 	C 	0.55958 0.03975 0.13869 0.00300
C 	C 	0.71779 0.48642 0.49834 -0.05700
C 	C 	0.59830 0.34011 0.27894 0.28300
C 	C 	0.62364 0.76514 0.41893 0.01500
C 	C 	0.62651 0.62774 0.32251 0.00200
C 	C 	0.58845 0.05470 0.34221 0.00100
H 	H 	0.59100 0.17894 0.83349 0.04300
C 	C 	0.55392 0.16046 0.82658 -0.05900
C 	C 	0.63429 0.59784 0.33297 0.01400
H 	H 	0.66192 0.71244 0.31186 0.04400
H 	H 	0.61993 0.99978 0.13893 0.04200
S 	S 	0.62773 0.01706 0.34043 0.01600
C 	C 	0.73197 0.56734 0.47820 -0.05500
C 	C 	0.54710 0.35521 0.88680 -0.07600
C 	C 	0.66701 0.69027 0.32019 -0.05700
H 	H 	0.66534 0.73469 0.43321 0.04300
C 	C 	0.61150 0.03558 0.14255 -0.05500
C 	C 	0.60509 0.50372 0.01669 -0.05800
C 	C 	0.59965 0.13934 0.35546 -0.05600
C 	C 	0.60862 0.08872 0.35348 0.01600
C 	C 	0.65878 0.81406 0.39929 -0.07300
C 	C 	0.53814 0.71535 0.84343 -0.02000
H 	H 	0.58139 0.73971 0.84861 0.04100
C 	C 	0.59914 0.53611 0.99530 -0.00300
H 	H 	0.73620 0.60286 0.47175 0.04500
C 	C 	0.55659 0.12832 0.81594 0.01600
C 	C 	0.67907 0.63140 0.34216 -0.05400
C 	C 	0.56517 0.41446 0.89134 -0.02300
C 	C 	0.77663 0.53551 0.49523 0.01600
C 	C 	0.57712 0.11487 0.15513 -0.05500
C 	C 	0.64770 0.33613 0.27206 -0.07500
C 	C 	0.67468 0.79615 0.41064 -0.02500
H 	H 	0.56048 0.13910 0.16103 0.04500
H 	H 	0.68385 0.60918 0.35053 0.04500
H 	H 	0.66900 0.40607 0.25738 0.04000
H 	H 	0.62564 0.10387 0.82284 0.03800
C 	C 	0.59278 0.09852 0.81552 -0.02300
H 	H 	0.62928 0.51097 0.02558 0.04400
C 	C 	0.78360 0.57378 0.48491 -0.00100
C 	C 	0.66956 0.36474 0.26027 -0.02500
C 	C 	0.71248 0.72390 0.32929 0.01600
C 	C 	0.86180 0.76831 0.76275 -0.05600
S 	S 	0.65420 0.27225 0.27227 0.01400
H 	H 	0.62004 0.16941 0.36351 0.04500
H 	H 	0.73168 0.81750 0.32439 0.03900
C 	C 	0.63201 0.54517 0.00664 0.01600
C 	C 	0.71919 0.69415 0.33994 -0.00200
C 	C 	0.57222 0.05206 0.80632 -0.07600
C 	C 	0.73980 0.78853 0.33083 -0.02300
S 	S 	0.59916 0.33552 0.89180 0.01200
C 	C 	0.66812 0.03896 0.35389 -0.07700
C 	C 	0.65375 0.08012 0.36003 -0.02100
C 	C 	0.70283 0.87052 0.39279 0.28300
O 	O 	0.71082 0.86896 0.38048 -0.37700
C 	C 	0.64996 0.07675 0.15182 0.01400
S 	S 	0.65029 0.57404 0.98398 0.02700
C 	C 	0.68951 0.33223 0.25237 0.01300
H 	H 	0.72176 0.80772 0.41306 0.02700
C 	C 	0.68250 0.27822 0.25783 -0.00200
C 	C 	0.63413 0.11772 0.15756 -0.00200
C 	C 	0.82679 0.56265 0.50390 -0.02400
H 	H 	0.82485 0.54413 0.51324 0.03300
H 	H 	0.61540 0.51511 0.90729 0.04500
C 	C 	0.76723 0.80852 0.34272 -0.07500
S 	S 	0.75513 0.74670 0.35110 0.02400
O 	O 	0.55614 0.84018 0.82364 -0.38600
C 	C 	0.62153 0.44025 0.89824 0.01500
H 	H 	0.95011 0.99530 0.85696 0.04400
C 	C 	0.56556 0.79418 0.82635 0.28100
H 	H 	0.54157 0.77180 0.80093 0.17300
C 	C 	0.58182 0.99863 0.80729 0.28900
O 	O 	0.72610 0.92296 0.39898 -0.42000
H 	H 	0.73020 0.39762 0.23700 0.04300
O 	O 	0.56624 0.96051 0.79760 -0.37800
O 	O 	0.73061 0.98985 0.35227 -0.39700
H 	H 	0.68058 0.10884 0.36785 0.04000
C 	C 	0.63925 0.48858 0.90689 -0.05900
C 	C 	0.69545 0.06972 0.15858 -0.02300
C 	C 	0.72603 0.35690 0.24154 -0.05600
C 	C 	0.72650 0.03821 0.35577 0.28600
H 	H 	0.71441 0.04119 0.15537 0.04200
C 	C 	0.78062 0.86753 0.34837 0.29100
C 	C 	0.64741 0.40120 0.89897 -0.00100
S 	S 	0.84876 0.64017 0.48703 0.02100
O 	O 	0.78090 0.87203 0.36078 -0.38400
H 	H 	0.73523 0.00195 0.38049 0.17500
C 	C 	0.71533 0.24969 0.25342 -0.05700
Cu	Cu	0.56759 0.88358 0.79733 0.89700
C 	C 	0.69703 0.58462 0.00532 -0.02400
H 	H 	0.71048 0.20854 0.25789 0.04300
S 	S 	0.67429 0.14245 0.17090 0.02000
C 	C 	0.87259 0.62190 0.50029 -0.07600
Cu	Cu	0.77515 0.93560 0.37012 0.89400
C 	C 	0.71443 0.60586 0.99292 -0.07400
O 	O 	0.57704 0.80822 0.79704 -0.64000
O 	O 	0.59658 0.98518 0.81839 -0.39300
C 	C 	0.71416 0.10441 0.16976 -0.07300
O 	O 	0.80262 0.91668 0.34099 -0.39300
C 	C 	0.75886 0.32837 0.23709 -0.00100
C 	C 	0.68773 0.40669 0.90879 -0.05700
O 	O 	0.77640 0.00454 0.37988 -0.64000
C 	C 	0.75165 0.27409 0.24255 0.01600
C 	C 	0.68660 0.49928 0.91542 0.00100
H 	H 	0.73017 0.58939 0.01253 0.03900
O 	O 	0.61463 0.79329 0.82190 -0.36200
H 	H 	0.69976 0.37108 0.91052 0.04200
O 	O 	0.77438 0.08562 0.36105 -0.36200
S 	S 	0.70220 0.54003 0.92858 0.00100
Cu	Cu	0.58305 0.79956 0.77906 0.87100
C 	C 	0.91952 0.97813 0.82536 0.01700
C 	C 	0.70891 0.45794 0.91676 0.01200
S 	S 	0.78360 0.33213 0.22240 0.02000
Cu	Cu	0.81823 0.00107 0.34531 0.89500
Cu	Cu	0.63518 0.93279 0.82196 0.89300
Cu	Cu	0.80650 0.99069 0.39574 0.86600
C 	C 	0.76851 0.23996 0.23437 -0.02800
H 	H 	0.80281 0.78455 0.64328 0.04400
C 	C 	0.91439 0.66813 0.50931 0.28000
C 	C 	0.80100 0.77039 0.66348 0.01500
C 	C 	0.57266 0.01597 0.64281 0.28300
H 	H 	0.76894 0.19849 0.23720 0.02600
C 	C 	0.79332 0.79692 0.65247 -0.05500
C 	C 	0.78763 0.26702 0.22241 -0.07200
H 	H 	0.78418 0.30694 0.56192 0.04400
O 	O 	0.90431 0.71306 0.51279 -0.35900
C 	C 	0.73960 0.46406 0.92839 -0.02200
C 	C 	0.74055 0.51007 0.93621 -0.07400
O 	O 	0.84565 0.00238 0.36197 -0.63800
O 	O 	0.64796 0.91868 0.80504 -0.64000
O 	O 	0.57171 0.96953 0.63676 -0.36400
S 	S 	0.98873 0.39168 0.15268 0.00800
C 	C 	0.97847 0.45010 0.99674 -0.03600
H 	H 	0.73651 0.21377 0.57881 0.03700
C 	C 	0.78578 0.78474 0.67529 -0.00000
C 	C 	0.95797 0.52609 0.98509 -0.06400
C 	C 	0.90912 0.96833 0.83838 0.00200
H 	H 	0.98588 0.42717 0.01612 0.02800
H 	H 	0.75814 0.84166 0.68581 0.04400
Cu	Cu	0.64708 0.97787 0.62755 0.92700
Cu	Cu	0.70426 0.06217 0.60248 0.86700
Cu	Cu	0.72591 0.11768 0.62793 0.89600
Cu	Cu	0.70323 0.05167 0.65293 0.89400
C 	C 	0.67905 0.92549 0.64813 0.28400
C 	C 	0.72413 0.18439 0.60509 0.28200
O 	O 	0.72732 0.04998 0.63611 -0.64000
O 	O 	0.65786 0.05013 0.61806 -0.64200
O 	O 	0.64943 0.93018 0.61291 -0.37600
O 	O 	0.73851 0.00935 0.60524 -0.43400
O 	O 	0.67391 0.96272 0.65627 -0.38300
O 	O 	0.79617 0.17994 0.63717 -0.38400
C 	C 	0.80070 0.18520 0.64957 0.29200
O 	O 	0.62575 0.06300 0.64644 -0.38900
O 	O 	0.77120 0.13692 0.65712 -0.39100
O 	O 	0.65239 0.91557 0.63699 -0.35600
C 	C 	0.70190 0.95000 0.60684 0.28600
O 	O 	0.73053 0.18492 0.61750 -0.37700
O 	O 	0.69542 0.13227 0.59875 -0.41700
H 	H 	0.76696 0.04964 0.63513 0.16300
H 	H 	0.62025 0.05434 0.61721 0.17500
Cu	Cu	0.65725 0.83941 0.80599 0.92800
C 	C 	0.75259 0.92719 0.82220 0.28700
O 	O 	0.70117 0.81498 0.79351 -0.37100
O 	O 	0.66990 0.85056 0.77698 -0.44100
O 	O 	0.70941 0.93064 0.82892 -0.38300
O 	O 	0.73752 0.88432 0.81350 -0.36100
C 	C 	0.70802 0.83371 0.78177 0.29100
H 	H 	0.68088 0.95502 0.80058 0.16200
Cu	Cu	0.93251 0.75426 0.52985 0.92700
Cu	Cu	0.89103 0.68011 0.55656 0.86500
Cu	Cu	0.97660 0.66717 0.53931 0.89200
C 	C 	0.89614 0.56758 0.55643 0.28300
O 	O 	0.89979 0.67407 0.53845 -0.64200
O 	O 	0.88986 0.78761 0.54051 -0.36500
O 	O 	0.92665 0.76658 0.55825 -0.44100
O 	O 	0.96295 0.66565 0.51361 -0.39800
O 	O 	0.97747 0.83683 0.52362 -0.36100
C 	C 	0.89993 0.79429 0.55268 0.29100
O 	O 	0.93427 0.58458 0.54666 -0.37900
O 	O 	0.86254 0.59411 0.55887 -0.41700
H 	H 	0.86416 0.63853 0.53436 0.17400
Cu	Cu	0.84028 0.07586 0.37046 0.92800
C 	C 	0.91805 0.13101 0.34885 0.28800
O 	O 	0.89114 0.12414 0.38511 -0.37200
O 	O 	0.89311 0.04134 0.39333 -0.43900
O 	O 	0.87245 0.09081 0.34166 -0.38100
O 	O 	0.90903 0.13597 0.36095 -0.36200
C 	C 	0.91691 0.10111 0.39254 0.29200
H 	H 	0.88488 0.00109 0.36276 0.16600
Cu	Cu	0.91474 0.65178 0.94156 0.87100
Cu	Cu	0.85132 0.62768 0.96672 0.89700
Cu	Cu	0.91186 0.67078 0.99243 0.89200
C 	C 	0.79462 0.54910 0.94402 0.28500
O 	O 	0.91596 0.69704 0.97559 -0.63800
O 	O 	0.92426 0.62861 0.95838 -0.64400
O 	O 	0.95870 0.73823 0.94354 -0.45200
O 	O 	0.78502 0.63181 0.97552 -0.38000
C 	C 	0.77706 0.62708 0.98786 0.28800
C 	C 	0.95601 0.58318 0.98311 0.26300
O 	O 	0.90537 0.58526 0.98597 -0.38800
O 	O 	0.82493 0.65292 0.99568 -0.39100
O 	O 	0.78633 0.56928 0.95501 -0.38000
O 	O 	0.85041 0.56940 0.93924 -0.42200
H 	H 	0.91445 0.73571 0.97457 0.16300
H 	H 	0.92262 0.58820 0.95868 0.17000
Cu	Cu	0.94334 0.25037 0.21779 0.86800
Cu	Cu	0.86760 0.20827 0.19380 0.89400
Cu	Cu	0.90699 0.17073 0.16938 0.89500
C 	C 	0.83494 0.26133 0.21522 0.27900
O 	O 	0.91387 0.17010 0.18719 -0.63400
O 	O 	0.95211 0.27053 0.19990 -0.64300
O 	O 	0.97849 0.19797 0.21854 -0.44300
O 	O 	0.98711 0.17379 0.16532 -0.38900
O 	O 	0.78646 0.14912 0.18690 -0.37500
C 	C 	0.77644 0.12804 0.17522 0.28800
C 	C 	0.97913 0.31189 0.17158 0.27500
O 	O 	0.92284 0.26465 0.17021 -0.38800
O 	O 	0.81610 0.11533 0.16952 -0.39300
O 	O 	0.82342 0.24246 0.20338 -0.37400
O 	O 	0.89160 0.28633 0.21985 -0.41700
H 	H 	0.90208 0.12944 0.19093 0.15900
H 	H 	0.96255 0.31354 0.19816 0.17000
S 	S 	0.94065 0.48893 0.99889 0.01400
S 	S 	0.99135 0.18166 0.32759 0.01100
C 	C 	0.97309 0.18133 0.34279 -0.07100
C 	C 	0.96640 0.14121 0.40124 -0.08600
C 	C 	0.96438 0.12936 0.41418 -0.02700
H 	H 	0.93725 0.08395 0.41827 0.02500
H 	H 	0.76358 0.43887 0.93066 0.03700
S 	S 	0.83776 0.95567 0.84137 0.01900
C 	C 	0.81714 0.96052 0.82656 -0.07600
C 	C 	0.86749 0.97270 0.81869 -0.02100
H 	H 	0.86650 0.97711 0.80855 0.03900
C 	C 	0.81924 0.74436 0.74149 -0.00200
C 	C 	0.77343 0.75957 0.74453 -0.05600
C 	C 	0.76820 0.77258 0.75718 0.01300
C 	C 	0.80976 0.77310 0.76625 -0.00300
S 	S 	0.80578 0.81067 0.77883 0.02500
C 	C 	0.75128 0.82632 0.77347 -0.08500
C 	C 	0.73491 0.80202 0.76125 -0.02600
H 	H 	0.74509 0.76405 0.73728 0.04300
H 	H 	0.69923 0.80394 0.75567 0.02600
C 	C 	0.77440 0.84106 0.65375 -0.00300
C 	C 	0.76807 0.82973 0.67661 -0.05600
C 	C 	0.75999 0.85610 0.66560 0.01400
S 	S 	0.73620 0.85687 0.64283 0.02100
C 	C 	0.70180 0.88426 0.65243 -0.07200
C 	C 	0.72042 0.88212 0.66483 -0.02500
H 	H 	0.70410 0.89616 0.67298 0.04200
C 	C 	0.79606 0.86884 0.59689 0.00000
C 	C 	0.84872 0.87145 0.59136 -0.05700
C 	C 	0.84011 0.83602 0.58052 0.01000
C 	C 	0.78112 0.80275 0.57500 -0.00100
C 	C 	0.73052 0.80765 0.57946 -0.05800
C 	C 	0.73782 0.83908 0.59084 0.01500
S 	S 	0.79743 0.92255 0.60636 0.01000
C 	C 	0.72431 0.90708 0.60394 -0.07500
C 	C 	0.69728 0.86068 0.59484 -0.02100
S 	S 	0.79045 0.78715 0.56022 0.00200
C 	C 	0.86803 0.81905 0.56032 -0.08200
C 	C 	0.88899 0.84432 0.57235 -0.02400
H 	H 	0.89487 0.90231 0.59496 0.04200
H 	H 	0.68810 0.79016 0.57401 0.04400
H 	H 	0.65434 0.84946 0.59002 0.03500
H 	H 	0.93735 0.86657 0.57518 0.03600
C 	C 	0.80730 0.35357 0.59274 -0.00300
C 	C 	0.82428 0.41565 0.59139 -0.05500
C 	C 	0.82934 0.43859 0.57912 0.01500
C 	C 	0.81282 0.39901 0.56869 -0.00100
C 	C 	0.79537 0.33680 0.57006 -0.05600
C 	C 	0.79014 0.31387 0.58233 0.01500
S 	S 	0.77544 0.31135 0.60556 0.02500
C 	C 	0.73999 0.24215 0.59855 -0.07400
C 	C 	0.75300 0.25100 0.58559 -0.02700
S 	S 	0.84626 0.44141 0.55596 0.02100
C 	C 	0.88127 0.51042 0.56301 -0.07500
C 	C 	0.86673 0.50146 0.57589 -0.02300
H 	H 	0.83560 0.44552 0.59952 0.04300
H 	H 	0.88279 0.53868 0.58266 0.02900
