data_crystal

_cell_length_a 17.32914
_cell_length_b 16.88180
_cell_length_c 92.21926
_cell_angle_alpha 90.06223
_cell_angle_beta  90.02671
_cell_angle_gamma 119.75547

_symmetry_space_group_name_	'P 1'
_symmetry_space_group_name_H-M	'P 1'

loop_
_symmetry_equiv_pos_as_xyz
  x,y,z

loop_
_atom_site_label
_atom_site_type_symbol
_atom_site_fract_x
_atom_site_fract_y
_atom_site_fract_z
_atom_site_charge
Ni	Ni	0.88087 0.84169 0.00237 1.12200
H 	H 	0.01035 0.96924 0.00856 0.14200
C 	C 	0.04863 0.83961 0.00289 0.28100
C 	C 	0.09429 0.69345 0.00409 0.08600
O 	O 	0.77462 0.84186 0.01101 -0.37800
O 	O 	0.80987 0.98862 0.00860 -0.35700
C 	C 	0.75339 0.90154 0.00653 0.31000
O 	O 	0.03822 0.82751 0.01717 -0.38100
N 	N 	0.06061 0.63311 0.01212 -0.10600
Ni	Ni	0.93578 0.03711 0.01805 1.11700
O 	O 	0.84940 0.72841 0.01428 -0.36300
O 	O 	0.95773 0.93930 0.01485 -0.69500
N 	N 	0.33008 0.09047 0.01740 -0.10300
Ni	Ni	0.00513 0.90306 0.03038 1.11100
O 	O 	0.06228 0.11887 0.02776 -0.36800
C 	C 	0.12817 0.09971 0.02950 0.29500
O 	O 	0.11805 0.01915 0.02595 -0.38200
C 	C 	0.84443 0.72568 0.02855 0.31400
C 	C 	0.30704 0.11497 0.02737 0.08500
C 	C 	0.65451 0.63116 0.03609 0.09400
N 	N 	0.60422 0.64910 0.03094 -0.09600
C 	C 	0.20468 0.15979 0.03885 -0.07700
H 	H 	0.91666 0.62239 0.03632 0.05100
O 	O 	0.87541 0.98751 0.03793 -0.36700
O 	O 	0.88738 0.79988 0.03630 -0.38300
C 	C 	0.71710 0.60889 0.04262 0.03300
C 	C 	0.80061 0.63800 0.03618 -0.07500
C 	C 	0.85485 0.60538 0.04177 0.01300
C 	C 	0.27820 0.14551 0.03981 0.02600
O 	O 	0.99103 0.97481 0.04696 -0.37200
H 	H 	0.14370 0.23247 0.04832 0.04400
C 	C 	0.19360 0.21214 0.04963 0.01300
C 	C 	0.91942 0.98136 0.04900 0.31300
C 	C 	0.32412 0.16169 0.05294 -0.05600
H 	H 	0.37546 0.14317 0.05412 0.06100
C 	C 	0.83777 0.56541 0.05556 -0.03400
C 	C 	0.69847 0.56701 0.05626 -0.04900
H 	H 	0.63821 0.55327 0.06192 0.06400
N 	N 	0.53548 0.36374 0.05833 -0.11200
C 	C 	0.90218 0.54607 0.06218 0.10000
C 	C 	0.76142 0.55108 0.06324 0.02500
N 	N 	0.70256 0.31327 0.06728 -0.10800
N 	N 	0.95376 0.53056 0.06749 -0.10100
C 	C 	0.30376 0.20156 0.06459 0.02300
C 	C 	0.24216 0.23227 0.06258 -0.04000
C 	C 	0.49303 0.32390 0.06823 0.09400
C 	C 	0.90204 0.00537 0.06344 -0.08800
C 	C 	0.77641 0.84852 0.06710 0.07900
N 	N 	0.73512 0.77290 0.06362 -0.10600
H 	H 	0.01143 0.14324 0.06227 0.01800
C 	C 	0.71656 0.37303 0.07500 0.10000
C 	C 	0.82753 0.94278 0.07150 0.03400
C 	C 	0.95329 0.09547 0.06834 0.05000
C 	C 	0.75369 0.53344 0.07909 0.02600
C 	C 	0.76732 0.60392 0.08870 -0.05700
C 	C 	0.73110 0.43419 0.09964 0.01200
C 	C 	0.73413 0.44768 0.08463 -0.03900
H 	H 	0.78281 0.67008 0.08445 0.06300
C 	C 	0.43939 0.27330 0.08048 -0.03600
C 	C 	0.34794 0.21178 0.07880 0.02300
C 	C 	0.29765 0.16110 0.09076 -0.05300
C 	C 	0.47887 0.28623 0.09413 0.01500
C 	C 	0.22814 0.28382 0.07375 0.09200
H 	H 	0.22726 0.11319 0.08944 0.05700
C 	C 	0.92604 0.12577 0.08037 -0.06200
C 	C 	0.84769 0.06473 0.08778 0.04400
C 	C 	0.80124 0.97261 0.08371 -0.07200
C 	C 	0.73918 0.11535 0.09353 -0.05000
C 	C 	0.62815 0.16172 0.09799 0.08400
C 	C 	0.97619 0.22056 0.08460 0.13600
N 	N 	0.56997 0.17058 0.09382 -0.10900
N 	N 	0.01620 0.29649 0.08801 -0.12900
H 	H 	0.71671 0.10112 0.08235 0.06000
N 	N 	0.21706 0.32514 0.08272 -0.10800
H 	H 	0.54857 0.33587 0.09544 0.04200
C 	C 	0.80683 0.09904 0.09825 0.01700
H 	H 	0.74208 0.92519 0.08963 0.06100
C 	C 	0.76241 0.58982 0.10373 0.02900
C 	C 	0.74425 0.50440 0.10927 -0.07700
H 	H 	0.71674 0.36830 0.10387 0.03800
C 	C 	0.33688 0.17493 0.10452 0.02700
C 	C 	0.42861 0.23761 0.10623 -0.06800
C 	C 	0.70033 0.14963 0.10309 0.02300
C 	C 	0.46998 0.26507 0.12073 0.28600
C 	C 	0.77926 0.66430 0.11336 0.08900
C 	C 	0.28120 0.12983 0.11689 0.09100
C 	C 	0.73077 0.16984 0.11758 -0.06700
C 	C 	0.83561 0.11650 0.11277 -0.03000
C 	C 	0.90376 0.09794 0.11794 0.10500
C 	C 	0.74151 0.48770 0.12502 0.28600
C 	C 	0.69345 0.20919 0.12786 0.28600
O 	O 	0.78223 0.44459 0.13014 -0.36000
O 	O 	0.60553 0.17269 0.12846 -0.37200
O 	O 	0.51215 0.35326 0.12390 -0.36500
N 	N 	0.79275 0.72398 0.12106 -0.09500
N 	N 	0.23621 0.09373 0.12677 -0.09800
C 	C 	0.79790 0.15214 0.12233 0.01400
O 	O 	0.69054 0.50630 0.13356 -0.35300
O 	O 	0.74601 0.26229 0.13847 -0.37100
O 	O 	0.45202 0.20187 0.13091 -0.35900
O 	O 	0.62099 0.32452 0.14209 -0.71500
H 	H 	0.62889 0.32427 0.13152 0.15100
N 	N 	0.95838 0.08309 0.12207 -0.09400
H 	H 	0.82008 0.16525 0.13353 0.05800
Ni	Ni	0.57448 0.40398 0.14353 1.11700
Ni	Ni	0.54349 0.19745 0.14476 1.12400
Ni	Ni	0.74005 0.36741 0.14826 1.12600
N 	N 	0.32234 0.01455 0.15051 -0.11200
N 	N 	0.63728 0.64255 0.15092 -0.11100
O 	O 	0.44883 0.31792 0.15231 -0.35500
N 	N 	0.90592 0.34915 0.15757 -0.11600
N 	N 	0.01287 0.20239 0.17287 -0.12800
C 	C 	0.43174 0.25069 0.16129 0.30300
O 	O 	0.61077 0.15915 0.15853 -0.36300
O 	O 	0.48615 0.21810 0.16237 -0.36900
O 	O 	0.62397 0.44722 0.16422 -0.36400
O 	O 	0.76616 0.48574 0.15843 -0.35800
C 	C 	0.86368 0.28589 0.16474 0.08400
C 	C 	0.30701 0.05828 0.15841 0.09900
C 	C 	0.67737 0.64453 0.16109 0.09300
C 	C 	0.70945 0.49532 0.16670 0.30500
N 	N 	0.09566 0.89829 0.17347 -0.10500
C 	C 	0.14638 0.97506 0.17494 0.06500
C 	C 	0.67328 0.21365 0.16772 0.30300
O 	O 	0.70516 0.30213 0.16725 -0.37500
C 	C 	0.80741 0.09627 0.19129 -0.06100
C 	C 	0.85265 0.16250 0.18051 -0.00100
C 	C 	0.81140 0.20687 0.17381 0.01100
C 	C 	0.72044 0.17656 0.17641 -0.05800
C 	C 	0.94179 0.18471 0.17626 0.13600
C 	C 	0.34768 0.20772 0.16965 -0.05500
C 	C 	0.28786 0.11301 0.16834 0.00000
C 	C 	0.20990 0.07132 0.17680 0.03200
C 	C 	0.76299 0.72371 0.18311 0.00600
C 	C 	0.72762 0.64704 0.17384 0.01000
C 	C 	0.74309 0.57387 0.17677 -0.05700
C 	C 	0.74649 0.79842 0.18015 0.09800
N 	N 	0.73321 0.85790 0.17777 -0.10000
C 	C 	0.67297 0.10537 0.18642 0.00200
C 	C 	0.32779 0.26079 0.17915 0.00400
C 	C 	0.38894 0.35801 0.18054 0.09800
N 	N 	0.43776 0.43553 0.18165 -0.10200
O 	O 	0.05927 0.09861 0.19908 -0.38000
O 	O 	0.12594 0.01893 0.20694 -0.35500
C 	C 	0.12175 0.07671 0.19786 0.31000
N 	N 	0.21462 0.31699 0.20541 -0.12000
C 	C 	0.19300 0.12330 0.18697 -0.06800
C 	C 	0.85838 0.81167 0.20417 0.30200
C 	C 	0.85898 0.07132 0.20130 0.32500
O 	O 	0.83143 0.98481 0.20407 -0.38700
O 	O 	0.94431 0.86599 0.20297 -0.35100
O 	O 	0.92598 0.13697 0.20852 -0.36700
C 	C 	0.71676 0.06643 0.19406 0.03000
C 	C 	0.57988 0.07430 0.18922 0.10500
C 	C 	0.66923 0.99771 0.20504 0.06700
N 	N 	0.63131 0.94289 0.21380 -0.11000
N 	N 	0.50561 0.04956 0.19144 -0.09800
C 	C 	0.25023 0.21872 0.18773 0.01100
C 	C 	0.23042 0.27335 0.19757 0.08500
C 	C 	0.81522 0.72824 0.19515 -0.05500
C 	C 	0.79305 0.57722 0.18906 0.00800
C 	C 	0.82920 0.65435 0.19824 0.00900
C 	C 	0.80669 0.50097 0.19233 0.09900
C 	C 	0.88065 0.65760 0.21087 0.09600
N 	N 	0.81756 0.44016 0.19494 -0.09700
Ni	Ni	0.02367 0.12552 0.21857 1.10900
O 	O 	0.11202 0.00669 0.23705 -0.36300
O 	O 	0.13940 0.14597 0.22803 -0.37100
Ni	Ni	0.02291 0.93268 0.22077 1.09000
Ni	Ni	0.84007 0.94171 0.22400 1.11900
O 	O 	0.81446 0.81991 0.21517 -0.36200
O 	O 	0.83170 0.04617 0.23370 -0.35700
O 	O 	0.96621 0.00151 0.22423 -0.69100
N 	N 	0.92169 0.65996 0.22093 -0.09600
C 	C 	0.89636 0.12020 0.24024 0.29400
O 	O 	0.98175 0.15332 0.23713 -0.36300
O 	O 	0.93431 0.83243 0.23516 -0.34900
O 	O 	0.84157 0.88512 0.24340 -0.36300
H 	H 	0.97510 0.01060 0.23477 0.16300
C 	C 	0.14257 0.09517 0.23878 0.28800
C 	C 	0.19621 0.13959 0.25168 -0.08200
C 	C 	0.89441 0.85027 0.24595 0.30000
H 	H 	0.32031 0.19592 0.24012 0.05000
C 	C 	0.28890 0.18265 0.25070 0.02200
N 	N 	0.67398 0.71079 0.26171 -0.09600
C 	C 	0.81841 0.14390 0.26128 0.01900
C 	C 	0.87150 0.17777 0.24876 -0.06100
C 	C 	0.90053 0.26754 0.24420 0.01400
C 	C 	0.78643 0.05125 0.26605 0.11200
N 	N 	0.76085 0.97704 0.26987 -0.11700
H 	H 	0.93944 0.29290 0.23436 0.05300
N 	N 	0.98524 0.05970 0.26779 -0.07400
C 	C 	0.06094 0.08790 0.26669 0.03000
C 	C 	0.15549 0.12312 0.26540 0.04000
N 	N 	0.93321 0.48998 0.24336 -0.09700
C 	C 	0.34092 0.20343 0.26325 -0.04000
C 	C 	0.43592 0.24360 0.26179 0.10500
N 	N 	0.51188 0.27511 0.26040 -0.11100
C 	C 	0.83752 0.78449 0.27074 0.06100
C 	C 	0.90922 0.83116 0.26106 -0.11200
C 	C 	0.74673 0.74357 0.26572 0.08300
H 	H 	0.05183 0.89871 0.25864 -0.00600
C 	C 	0.83000 0.29202 0.26516 0.01900
C 	C 	0.79814 0.20124 0.26942 -0.04700
C 	C 	0.87949 0.32451 0.25227 -0.03000
C 	C 	0.90933 0.41638 0.24732 0.10400
H 	H 	0.68834 0.31834 0.26668 0.06800
H 	H 	0.75943 0.17607 0.27929 0.05800
C 	C 	0.29951 0.18088 0.27703 0.03000
C 	C 	0.20689 0.14190 0.27795 -0.06100
H 	H 	0.17490 0.12639 0.28849 0.05900
H 	H 	0.30482 0.29305 0.29813 0.05600
C 	C 	0.01330 0.85797 0.28077 -0.14600
C 	C 	0.85415 0.77434 0.28531 -0.09100
C 	C 	0.99662 0.86476 0.26608 0.12300
H 	H 	0.79892 0.73705 0.29268 0.07000
C 	C 	0.81812 0.35442 0.27498 0.03400
C 	C 	0.73636 0.35258 0.27527 -0.06100
C 	C 	0.71509 0.39115 0.28698 0.03200
C 	C 	0.63456 0.39659 0.28654 0.09100
N 	N 	0.57034 0.40159 0.28628 -0.10300
N 	N 	0.17656 0.93461 0.29001 -0.12700
N 	N 	0.03639 0.65839 0.29035 -0.10700
C 	C 	0.35236 0.20387 0.29064 0.02500
C 	C 	0.34583 0.26286 0.30064 -0.05500
C 	C 	0.94171 0.81117 0.29042 0.09900
C 	C 	0.10397 0.90056 0.28589 0.11500
C 	C 	0.88341 0.40612 0.28541 -0.05100
C 	C 	0.97137 0.41700 0.28451 0.14400
N 	N 	0.04183 0.42570 0.28377 -0.13900
C 	C 	0.38759 0.27902 0.31416 0.02500
C 	C 	0.36287 0.32202 0.32538 0.08200
N 	N 	0.34294 0.35642 0.33436 -0.10500
C 	C 	0.00873 0.68815 0.29888 0.04500
C 	C 	0.77437 0.42721 0.29883 -0.08300
C 	C 	0.74092 0.42450 0.31367 0.30400
O 	O 	0.66893 0.43098 0.31568 -0.37400
C 	C 	0.44705 0.24614 0.31703 -0.07300
C 	C 	0.44923 0.18252 0.30739 0.01400
C 	C 	0.40017 0.15929 0.29445 -0.03400
C 	C 	0.39770 0.08837 0.28535 0.10400
N 	N 	0.39575 0.03157 0.27806 -0.10100
C 	C 	0.95693 0.79626 0.30579 -0.00800
C 	C 	0.97430 0.72545 0.30950 0.01800
C 	C 	0.86158 0.44348 0.29718 0.02600
H 	H 	0.90998 0.47798 0.30573 0.05100
H 	H 	0.92684 0.89691 0.31439 0.05500
C 	C 	0.51703 0.28923 0.32841 0.29900
Ni	Ni	0.64300 0.48050 0.33410 1.12500
O 	O 	0.75306 0.59710 0.32973 -0.38200
O 	O 	0.77297 0.39738 0.32425 -0.37300
O 	O 	0.57869 0.26397 0.32951 -0.36200
O 	O 	0.52702 0.36300 0.33503 -0.38200
H 	H 	0.49006 0.15212 0.30984 0.05100
C 	C 	0.93348 0.83772 0.31683 -0.03700
C 	C 	0.90887 0.79639 0.33052 0.02000
C 	C 	0.90350 0.71132 0.33276 -0.06200
C 	C 	0.95139 0.68628 0.32335 -0.00700
H 	H 	0.95673 0.62630 0.32578 0.06000
N 	N 	0.09455 0.63236 0.35047 -0.11200
C 	C 	0.82059 0.63685 0.33864 0.30300
Ni	Ni	0.69736 0.32544 0.34191 1.11600
O 	O 	0.60576 0.54036 0.34962 -0.36700
O 	O 	0.80827 0.62661 0.35276 -0.36800
O 	O 	0.68466 0.42576 0.34771 -0.71700
H 	H 	0.62977 0.39355 0.35345 0.15300
C 	C 	0.87840 0.83520 0.34153 0.09200
N 	N 	0.85402 0.86638 0.35036 -0.09700
N 	N 	0.65682 0.75831 0.36674 -0.09700
C 	C 	0.06001 0.58110 0.35983 0.08300
C 	C 	0.87557 0.43081 0.35716 0.30500
C 	C 	0.59562 0.51773 0.36357 0.28800
Ni	Ni	0.75928 0.50370 0.36250 1.12200
O 	O 	0.63501 0.26643 0.36128 -0.36200
O 	O 	0.66041 0.51739 0.37121 -0.37500
O 	O 	0.81409 0.34997 0.35265 -0.35700
O 	O 	0.86592 0.50112 0.35456 -0.38200
C 	C 	0.53869 0.60308 0.37773 0.02900
C 	C 	0.52422 0.52019 0.37168 -0.07100
C 	C 	0.45324 0.43780 0.37671 0.00900
C 	C 	0.60428 0.68926 0.37163 0.08800
H 	H 	0.43910 0.37399 0.37162 0.04100
C 	C 	0.01683 0.51714 0.37150 -0.01100
C 	C 	0.93455 0.43681 0.36925 -0.04800
N 	N 	0.71645 0.12711 0.36732 -0.10200
C 	C 	0.05738 0.53517 0.38520 -0.03800
H 	H 	0.11932 0.59804 0.38705 0.05900
C 	C 	0.66241 0.30663 0.37415 0.28200
O 	O 	0.72963 0.39265 0.37557 -0.36800
C 	C 	0.40621 0.43687 0.38913 -0.03700
C 	C 	0.43147 0.51899 0.39664 0.02300
C 	C 	0.49340 0.60221 0.39032 -0.05400
C 	C 	0.33412 0.35143 0.39433 0.09300
H 	H 	0.51042 0.66596 0.39572 0.05800
C 	C 	0.89997 0.37080 0.38025 -0.00100
H 	H 	0.83913 0.30732 0.37840 0.05900
C 	C 	0.63991 0.16854 0.38791 0.02600
C 	C 	0.63213 0.24797 0.38712 -0.07000
C 	C 	0.68247 0.14563 0.37648 0.08200
C 	C 	0.01645 0.47384 0.39669 -0.00900
C 	C 	0.40596 0.51806 0.41201 0.02500
C 	C 	0.32249 0.59783 0.40611 0.09500
N 	N 	0.28718 0.62017 0.39776 -0.11400
N 	N 	0.27637 0.28299 0.39852 -0.10800
C 	C 	0.93821 0.39020 0.39407 -0.00400
C 	C 	0.60440 0.10977 0.39975 -0.05100
C 	C 	0.58884 0.26718 0.39827 0.00900
H 	H 	0.58233 0.32780 0.39766 0.04200
H 	H 	0.61084 0.04911 0.40037 0.06200
N 	N 	0.97284 0.65129 0.40952 -0.09300
C 	C 	0.00693 0.61260 0.41413 0.07300
C 	C 	0.04946 0.56425 0.41986 -0.03300
C 	C 	0.05566 0.49776 0.41145 0.03200
H 	H 	0.09788 0.39739 0.41102 0.06000
C 	C 	0.09442 0.44956 0.41741 -0.05900
C 	C 	0.43599 0.47940 0.42252 -0.05400
C 	C 	0.36662 0.56968 0.41647 -0.04100
H 	H 	0.46374 0.43708 0.41918 0.06200
C 	C 	0.89385 0.32619 0.40571 0.09400
C 	C 	0.55035 0.20627 0.40988 -0.03200
C 	C 	0.55804 0.12690 0.41059 0.01900
C 	C 	0.43966 0.97478 0.41901 -0.08000
N 	N 	0.27199 0.74674 0.42154 -0.10600
H 	H 	0.40901 0.96414 0.40840 0.05900
C 	C 	0.08450 0.58370 0.43396 0.01700
C 	C 	0.12514 0.46521 0.43173 0.03000
C 	C 	0.15196 0.40450 0.43813 0.08500
C 	C 	0.43459 0.49904 0.43724 0.03100
C 	C 	0.40756 0.56189 0.44143 -0.07900
C 	C 	0.37082 0.59445 0.43105 0.01800
H 	H 	0.34634 0.63970 0.43433 0.05100
N 	N 	0.85818 0.27491 0.41502 -0.10000
C 	C 	0.51471 0.05889 0.42231 0.04400
C 	C 	0.40645 0.90304 0.42904 0.03500
C 	C 	0.33193 0.81611 0.42490 0.07700
C 	C 	0.50147 0.22459 0.42079 0.09600
N 	N 	0.46233 0.23932 0.42953 -0.10600
H 	H 	0.08217 0.63707 0.44016 0.04800
C 	C 	0.12467 0.53633 0.43991 -0.07700
N 	N 	0.17350 0.35582 0.44322 -0.10400
C 	C 	0.44723 0.91631 0.44284 -0.09500
C 	C 	0.55462 0.07280 0.43608 -0.04700
C 	C 	0.63239 0.15865 0.43970 0.10800
C 	C 	0.51998 0.00237 0.44631 0.03300
C 	C 	0.41506 0.84175 0.45378 0.31000
C 	C 	0.42181 0.59820 0.45631 0.31200
C 	C 	0.46068 0.45424 0.44790 0.09200
C 	C 	0.17284 0.56694 0.45400 0.31200
N 	N 	0.48123 0.41771 0.45639 -0.09300
N 	N 	0.69467 0.22742 0.44259 -0.10100
O 	O 	0.00121 0.85404 0.79581 -0.36400
C 	C 	0.01686 0.53319 0.52976 -0.00100
C 	C 	0.03460 0.54174 0.54522 0.10600
N 	N 	0.04941 0.54845 0.55753 -0.09900
N 	N 	0.95403 0.85678 0.76199 -0.12500
O 	O 	0.01560 0.00514 0.80999 -0.70900
O 	O 	0.01078 0.84163 0.82600 -0.35600
C 	C 	0.02070 0.49806 0.63101 0.03100
C 	C 	0.00824 0.55190 0.64148 -0.02900
C 	C 	0.98639 0.49102 0.49999 0.01500
C 	C 	0.97060 0.46913 0.48466 0.10300
H 	H 	0.02173 0.00568 0.79937 0.15100
C 	C 	0.06222 0.31758 0.82944 0.09100
H 	H 	0.04011 0.62120 0.61065 0.06900
O 	O 	0.02169 0.12590 0.83266 -0.36100
N 	N 	0.95799 0.45167 0.47244 -0.09500
C 	C 	0.01556 0.85100 0.76521 0.10500
H 	H 	0.05206 0.62145 0.66207 0.04900
C 	C 	0.08925 0.89491 0.79470 0.28400
O 	O 	0.08159 0.18680 0.80183 -0.34900
C 	C 	0.07266 0.89721 0.83524 0.30500
N 	N 	0.11150 0.52967 0.84601 -0.09700
H 	H 	0.05243 0.26813 0.72949 0.07000
C 	C 	0.07731 0.46342 0.63409 -0.05900
C 	C 	0.05779 0.57586 0.65441 0.01700
H 	H 	0.08701 0.42201 0.62608 0.06400
N 	N 	0.03833 0.37188 0.69773 -0.09300
O 	O 	0.10342 0.98540 0.83464 -0.36900
C 	C 	0.11944 0.32596 0.84152 0.00900
C 	C 	0.07407 0.54579 0.50518 -0.06200
C 	C 	0.08854 0.57070 0.51994 0.00800
C 	C 	0.09213 0.84309 0.76910 0.01600
C 	C 	0.10746 0.17685 0.83445 0.30600
C 	C 	0.13081 0.47401 0.84796 0.09800
C 	C 	0.08264 0.34834 0.70356 0.09200
C 	C 	0.08544 0.06294 0.74211 0.10000
N 	N 	0.06103 0.00319 0.73393 -0.10800
H 	H 	0.10347 0.79889 0.74767 0.06100
H 	H 	0.18265 0.63930 0.75730 0.06200
C 	C 	0.10971 0.11948 0.76719 0.01400
C 	C 	0.13164 0.16950 0.79285 0.28700
Ni	Ni	0.13609 0.04968 0.81558 1.12300
O 	O 	0.14164 0.94520 0.80553 -0.36900
H 	H 	0.08476 0.05012 0.77095 0.03600
C 	C 	0.12826 0.86385 0.78327 -0.06300
C 	C 	0.12015 0.86194 0.84433 -0.06000
C 	C 	0.14177 0.25718 0.84410 -0.06000
C 	C 	0.15509 0.40427 0.85042 0.00700
C 	C 	0.11587 0.13755 0.75230 -0.03800
C 	C 	0.13113 0.81468 0.75854 -0.04800
C 	C 	0.13405 0.19018 0.77731 -0.07800
C 	C 	0.11852 0.47840 0.64758 0.03800
C 	C 	0.11463 0.54098 0.65746 -0.08300
N 	N 	0.20303 0.48579 0.73460 -0.10700
C 	C 	0.11169 0.27549 0.72430 -0.05100
O 	O 	0.16298 0.16796 0.82580 -0.36200
O 	O 	0.17341 0.12621 0.79740 -0.36500
C 	C 	0.16598 0.28018 0.77243 0.03100
C 	C 	0.20318 0.85542 0.78656 0.01100
C 	C 	0.15113 0.22802 0.74742 0.02700
C 	C 	0.17543 0.29877 0.75754 -0.05800
C 	C 	0.19196 0.35425 0.78262 0.08800
H 	H 	0.23068 0.86992 0.79744 0.05800
C 	C 	0.14977 0.58398 0.49493 0.28800
C 	C 	0.17674 0.63702 0.52497 0.10000
C 	C 	0.13800 0.31905 0.71083 0.03400
C 	C 	0.22550 0.56240 0.73579 0.08100
N 	N 	0.21274 0.41355 0.79079 -0.09600
C 	C 	0.57287 0.17281 0.53331 0.28900
C 	C 	0.84855 0.42421 0.57553 0.31700
C 	C 	0.58766 0.15786 0.57352 0.31100
C 	C 	0.85307 0.44018 0.53490 0.28500
C 	C 	0.60825 0.41156 0.58064 0.30700
C 	C 	0.58879 0.45336 0.53887 0.28400
Ni	Ni	0.73473 0.27884 0.55366 1.11600
Ni	Ni	0.73723 0.47087 0.55709 1.12400
Ni	Ni	0.55105 0.28441 0.55611 1.12500
O 	O 	0.63421 0.17027 0.54175 -0.35800
O 	O 	0.53736 0.22499 0.53646 -0.36600
O 	O 	0.64863 0.47491 0.57073 -0.37600
O 	O 	0.84816 0.36950 0.56533 -0.36700
O 	O 	0.79176 0.45387 0.57531 -0.38500
O 	O 	0.53434 0.38733 0.54792 -0.36400
O 	O 	0.67374 0.21329 0.57274 -0.37200
O 	O 	0.53378 0.16422 0.56416 -0.36700
O 	O 	0.67677 0.49672 0.54062 -0.36900
O 	O 	0.80549 0.34977 0.53553 -0.35900
O 	O 	0.84672 0.49410 0.54498 -0.35900
O 	O 	0.55791 0.32588 0.57678 -0.37100
O 	O 	0.67536 0.34546 0.55229 -0.72400
H 	H 	0.67464 0.35197 0.54168 0.16200
C 	C 	0.41535 0.86774 0.49388 0.29100
C 	C 	0.42630 0.59159 0.49818 0.28800
Ni	Ni	0.26432 0.73070 0.47364 1.11500
Ni	Ni	0.45652 0.74416 0.47691 1.12500
Ni	Ni	0.28047 0.54894 0.47741 1.12300
O 	O 	0.18786 0.67242 0.49193 -0.36000
O 	O 	0.16309 0.52625 0.48673 -0.36300
O 	O 	0.46502 0.68689 0.45832 -0.37900
O 	O 	0.33055 0.77996 0.45417 -0.37800
O 	O 	0.46717 0.84997 0.46475 -0.37500
O 	O 	0.33837 0.54763 0.49628 -0.37200
O 	O 	0.16062 0.62257 0.46244 -0.36800
O 	O 	0.23367 0.54538 0.45720 -0.38400
O 	O 	0.48173 0.66026 0.48956 -0.36300
O 	O 	0.35299 0.85413 0.48410 -0.35800
O 	O 	0.45579 0.81824 0.49407 -0.36800
O 	O 	0.37986 0.54320 0.46715 -0.37700
O 	O 	0.33115 0.67659 0.47932 -0.72500
H 	H 	0.32736 0.67971 0.48995 0.16500
C 	C 	0.17762 0.57879 0.66983 0.31100
C 	C 	0.38771 0.70020 0.65051 0.28700
C 	C 	0.48482 0.53769 0.67297 0.29300
Ni	Ni	0.31309 0.52977 0.66944 1.12800
O 	O 	0.28604 0.42478 0.68305 -0.36500
O 	O 	0.22963 0.66775 0.67080 -0.35700
O 	O 	0.20171 0.52634 0.67632 -0.37500
O 	O 	0.42348 0.52918 0.66354 -0.37200
O 	O 	0.40666 0.76194 0.66088 -0.36200
O 	O 	0.32448 0.61322 0.65226 -0.36500
O 	O 	0.38185 0.63429 0.68109 -0.71400
H 	H 	0.43594 0.66353 0.67510 0.16300
N 	N 	0.76511 0.85652 0.68322 -0.10100
H 	H 	0.55009 0.01444 0.45698 0.05500
C 	C 	0.66124 0.59368 0.64729 -0.03300
C 	C 	0.62468 0.50608 0.64103 0.02400
C 	C 	0.57140 0.42932 0.64960 -0.05500
C 	C 	0.54062 0.44034 0.66305 0.02900
C 	C 	0.55843 0.52775 0.66737 -0.07300
C 	C 	0.62869 0.60396 0.66066 0.00900
C 	C 	0.63138 0.49408 0.62523 0.02700
C 	C 	0.66888 0.44183 0.62055 -0.05600
C 	C 	0.65505 0.40804 0.60638 0.03000
C 	C 	0.61442 0.43768 0.59607 -0.07300
C 	C 	0.58220 0.49535 0.60048 0.01600
C 	C 	0.58681 0.52032 0.61510 -0.03700
C 	C 	0.67285 0.33521 0.60316 0.08400
C 	C 	0.54118 0.56793 0.61976 0.10200
C 	C 	0.72830 0.67306 0.63977 0.10400
C 	C 	0.48138 0.36104 0.67144 0.08500
N 	N 	0.68687 0.27608 0.60102 -0.10400
N 	N 	0.50442 0.60586 0.62349 -0.10900
N 	N 	0.43383 0.29754 0.67818 -0.10300
N 	N 	0.78200 0.73668 0.63373 -0.10400
H 	H 	0.64958 0.67173 0.66484 0.05100
H 	H 	0.54880 0.36134 0.64534 0.05800
H 	H 	0.70224 0.42075 0.62832 0.05900
H 	H 	0.55028 0.51773 0.59266 0.05300
C 	C 	0.92289 0.38828 0.61171 -0.03900
C 	C 	0.97647 0.47896 0.61662 0.01700
C 	C 	0.99632 0.55153 0.60714 -0.06300
C 	C 	0.95893 0.53464 0.59324 0.03500
C 	C 	0.90583 0.44392 0.58834 -0.08000
C 	C 	0.89303 0.37163 0.59733 0.01800
C 	C 	0.16062 0.42579 0.65136 0.04600
C 	C 	0.94333 0.58069 0.63923 0.07900
C 	C 	0.89448 0.31230 0.62155 0.09200
C 	C 	0.97429 0.61074 0.58415 0.08300
N 	N 	0.19381 0.38289 0.65424 -0.12600
N 	N 	0.89125 0.60362 0.63741 -0.10900
N 	N 	0.98653 0.67173 0.57688 -0.10200
N 	N 	0.87170 0.25146 0.62944 -0.11000
H 	H 	0.85351 0.30190 0.59351 0.04800
C 	C 	0.55036 0.93437 0.58886 -0.03900
C 	C 	0.49206 0.92082 0.60046 0.02600
C 	C 	0.46253 0.98361 0.60281 -0.05500
C 	C 	0.49235 0.06071 0.59396 0.03100
C 	C 	0.55357 0.07620 0.58275 -0.07600
C 	C 	0.58145 0.01233 0.58017 0.01800
C 	C 	0.46895 0.84668 0.61112 0.02400
C 	C 	0.53353 0.85448 0.62109 -0.05200
C 	C 	0.50893 0.79802 0.63330 0.02900
C 	C 	0.41859 0.73419 0.63575 -0.06800
C 	C 	0.35580 0.71886 0.62490 0.01400
C 	C 	0.38054 0.77489 0.61260 -0.03700
C 	C 	0.57637 0.80770 0.64350 0.08300
C 	C 	0.31453 0.75989 0.60174 0.09600
C 	C 	0.57794 0.86823 0.58575 0.09800
C 	C 	0.46154 0.12467 0.59671 0.08300
N 	N 	0.63037 0.81554 0.65169 -0.10300
N 	N 	0.26159 0.74785 0.59305 -0.10500
N 	N 	0.43674 0.17577 0.59895 -0.09900
N 	N 	0.59998 0.81519 0.58327 -0.10700
H 	H 	0.62702 0.02315 0.57134 0.04100
H 	H 	0.41773 0.97331 0.61173 0.06000
H 	H 	0.60225 0.90738 0.61968 0.06100
H 	H 	0.28665 0.66755 0.62650 0.04800
C 	C 	0.54974 0.49297 0.52868 -0.05200
C 	C 	0.47773 0.50467 0.53309 0.00400
C 	C 	0.43350 0.53075 0.52290 0.00100
C 	C 	0.46570 0.55311 0.50853 -0.05300
C 	C 	0.53944 0.54388 0.50426 0.00400
C 	C 	0.58348 0.51788 0.51445 0.00100
C 	C 	0.45353 0.49697 0.54829 0.10200
C 	C 	0.56978 0.56017 0.48933 0.10400
C 	C 	0.66694 0.52327 0.51055 0.10000
C 	C 	0.35416 0.53293 0.52719 0.09900
N 	N 	0.73402 0.52872 0.50741 -0.10200
N 	N 	0.29057 0.53399 0.53068 -0.10100
N 	N 	0.59456 0.57368 0.47746 -0.09800
N 	N 	0.43428 0.49091 0.56042 -0.10100
C 	C 	0.53044 0.10184 0.52196 -0.05400
C 	C 	0.58388 0.08889 0.51173 0.00200
C 	C 	0.54487 0.01589 0.50184 0.01300
C 	C 	0.45333 0.95163 0.50277 -0.06200
C 	C 	0.39914 0.96619 0.51257 0.00000
C 	C 	0.43765 0.04042 0.52230 0.01100
C 	C 	0.67973 0.14732 0.51194 0.09600
C 	C 	0.30387 0.90423 0.51276 0.09400
C 	C 	0.38270 0.05006 0.53325 0.09800
C 	C 	0.59894 0.00733 0.49060 0.09300
N 	N 	0.33884 0.05765 0.54198 -0.10600
N 	N 	0.64233 0.00063 0.48168 -0.10600
N 	N 	0.22786 0.85498 0.51290 -0.10200
N 	N 	0.75626 0.19314 0.51213 -0.10200
C 	C 	0.92873 0.48095 0.52456 -0.04600
C 	C 	0.91378 0.46003 0.50961 0.00100
C 	C 	0.82382 0.40630 0.50412 0.10600
N 	N 	0.75216 0.36339 0.49969 -0.10000
N 	N 	0.24702 0.69023 0.52898 -0.09900
C 	C 	0.54157 0.80556 0.69578 0.30000
C 	C 	0.27202 0.42669 0.69703 0.31400
Ni	Ni	0.35343 0.72874 0.68153 1.11500
Ni	Ni	0.42715 0.60906 0.69811 1.12200
O 	O 	0.47502 0.82043 0.69201 -0.36000
O 	O 	0.53736 0.72657 0.69327 -0.38200
O 	O 	0.47015 0.53282 0.68721 -0.37500
O 	O 	0.28715 0.68591 0.70108 -0.36900
C 	C 	0.69190 0.87205 0.70688 0.02800
C 	C 	0.73257 0.86347 0.69374 0.08400
C 	C 	0.22179 0.34144 0.70514 -0.07600
C 	C 	0.32877 0.68932 0.71311 0.31200
O 	O 	0.40196 0.68393 0.71285 -0.37900
O 	O 	0.31178 0.50313 0.70433 -0.38400
C 	C 	0.62139 0.90386 0.73213 -0.03900
C 	C 	0.69755 0.89404 0.73297 0.02500
C 	C 	0.73445 0.88194 0.72020 -0.05700
C 	C 	0.60802 0.86655 0.70644 -0.07800
C 	C 	0.57834 0.89228 0.71879 0.01600
C 	C 	0.74304 0.90317 0.74702 0.02300
H 	H 	0.51751 0.89537 0.71828 0.04600
H 	H 	0.79606 0.88000 0.72066 0.06000
C 	C 	0.16668 0.25030 0.73177 0.02700
C 	C 	0.26902 0.30254 0.71137 0.01500
C 	C 	0.24305 0.25880 0.72484 -0.03700
C 	C 	0.29841 0.22889 0.73195 0.09700
N 	N 	0.34278 0.20498 0.73765 -0.10500
H 	H 	0.33140 0.31549 0.70658 0.04800
C 	C 	0.25340 0.65796 0.73722 0.03200
C 	C 	0.30538 0.72047 0.72639 -0.08400
C 	C 	0.32953 0.81263 0.72774 0.01900
H 	H 	0.36745 0.86031 0.71920 0.03500
C 	C 	0.86541 0.05462 0.73960 0.08000
N 	N 	0.89709 0.11310 0.73122 -0.11800
C 	C 	0.70422 0.83333 0.75740 -0.05300
C 	C 	0.58584 0.92354 0.74494 0.09800
N 	N 	0.66768 0.71229 0.78987 -0.10100
H 	H 	0.64177 0.77219 0.75497 0.05800
H 	H 	0.20350 0.36848 0.75382 0.06500
C 	C 	0.24735 0.77969 0.75033 0.02900
C 	C 	0.22471 0.68785 0.74915 -0.05800
C 	C 	0.30228 0.84283 0.73978 -0.04300
C 	C 	0.70204 0.77055 0.78149 0.09300
C 	C 	0.86348 0.94676 0.78905 0.29700
Ni	Ni	0.96809 0.08320 0.81221 1.10600
Ni	Ni	0.94008 0.87753 0.81243 1.11600
O 	O 	0.90149 0.03376 0.79291 -0.38100
O 	O 	0.84726 0.88130 0.79877 -0.36500
C 	C 	0.26255 0.96973 0.83228 0.09300
N 	N 	0.30300 0.02847 0.82421 -0.12900
N 	N 	0.42493 0.91796 0.84599 -0.09900
C 	C 	0.64928 0.86454 0.81908 0.10200
N 	N 	0.63818 0.87140 0.80688 -0.09600
N 	N 	0.42846 0.73519 0.83322 -0.09500
C 	C 	0.74468 0.84299 0.77099 0.03000
C 	C 	0.82607 0.92319 0.77415 -0.07300
C 	C 	0.86680 0.98992 0.76331 0.02500
C 	C 	0.82518 0.98119 0.74998 -0.03100
N 	N 	0.55722 0.93920 0.75519 -0.10300
H 	H 	0.92884 0.05155 0.76560 0.03100
C 	C 	0.24246 0.82787 0.77591 -0.03300
C 	C 	0.20626 0.80741 0.76183 0.02000
C 	C 	0.33012 0.93854 0.74118 0.10700
C 	C 	0.32046 0.82161 0.77947 0.10100
N 	N 	0.35243 0.01522 0.74231 -0.11100
N 	N 	0.38295 0.81660 0.78231 -0.10000
C 	C 	0.82714 0.92698 0.82986 0.30300
O 	O 	0.84415 0.99637 0.82139 -0.35400
O 	O 	0.88057 0.89275 0.83027 -0.37500
C 	C 	0.25697 0.86073 0.85070 0.00700
C 	C 	0.21255 0.89641 0.84247 0.00700
C 	C 	0.35039 0.89244 0.84808 0.10200
N 	N 	0.01660 0.31097 0.81979 -0.11000
C 	C 	0.66310 0.85619 0.83439 0.00500
C 	C 	0.49982 0.76956 0.83791 0.10400
C 	C 	0.58928 0.81247 0.84378 0.00600
C 	C 	0.75025 0.89124 0.83988 -0.06100
C 	C 	0.07340 0.79393 0.85483 0.02300
C 	C 	0.11866 0.76062 0.86346 0.00300
C 	C 	0.97944 0.76066 0.85715 0.08200
C 	C 	0.25334 0.49789 0.87079 0.30400
C 	C 	0.52501 0.75782 0.86862 0.30100
C 	C 	0.25977 0.76336 0.87106 0.30200
O 	O 	0.33931 0.55420 0.87052 -0.36300
O 	O 	0.46534 0.78426 0.86944 -0.36700
C 	C 	0.21069 0.79399 0.86140 -0.05300
N 	N 	0.90451 0.73423 0.85899 -0.09800
C 	C 	0.21571 0.41571 0.86152 -0.06000
C 	C 	0.23956 0.34788 0.86387 0.00800
C 	C 	0.20092 0.26781 0.85540 0.00700
C 	C 	0.22123 0.19573 0.85842 0.09700
N 	N 	0.23736 0.13820 0.86080 -0.10100
C 	C 	0.60251 0.80606 0.85876 -0.05900
C 	C 	0.76357 0.88765 0.85489 0.00700
C 	C 	0.69007 0.84303 0.86426 0.00400
C 	C 	0.85317 0.93142 0.86075 0.10300
C 	C 	0.07116 0.69445 0.87477 0.09600
O 	O 	0.23046 0.67562 0.87269 -0.37300
O 	O 	0.20356 0.50348 0.88112 -0.36200
O 	O 	0.52176 0.69496 0.87743 -0.35500
O 	O 	0.32970 0.82495 0.87834 -0.36500
C 	C 	0.30473 0.36094 0.87487 0.08800
N 	N 	0.35691 0.37102 0.88359 -0.11000
C 	C 	0.70470 0.83222 0.87944 0.10500
N 	N 	0.92464 0.96631 0.86540 -0.09700
N 	N 	0.03328 0.64167 0.88380 -0.11200
Ni	Ni	0.42051 0.80281 0.88875 1.12400
Ni	Ni	0.41088 0.60487 0.88950 1.11800
Ni	Ni	0.23147 0.62065 0.89192 1.12300
O 	O 	0.52906 0.81190 0.89907 -0.36300
O 	O 	0.31174 0.49397 0.90109 -0.35700
O 	O 	0.35665 0.67569 0.89303 -0.71300
N 	N 	0.71679 0.82317 0.89152 -0.09500
C 	C 	0.52235 0.75688 0.90987 0.29000
C 	C 	0.26093 0.49788 0.91156 0.28700
C 	C 	0.29720 0.78002 0.91237 0.28300
O 	O 	0.49099 0.66850 0.90746 -0.35400
O 	O 	0.37909 0.83077 0.90733 -0.37000
O 	O 	0.23123 0.72357 0.90360 -0.37100
O 	O 	0.22441 0.55084 0.91029 -0.37600
H 	H 	0.36070 0.67843 0.90365 0.14600
N 	N 	0.72720 0.97873 0.91085 -0.09700
H 	H 	0.11771 0.44704 0.92907 0.05000
C 	C 	0.14772 0.40438 0.93040 0.01100
H 	H 	0.13820 0.69030 0.92593 0.05100
C 	C 	0.67394 0.93099 0.91906 0.09400
C 	C 	0.35722 0.40215 0.92104 0.08800
N 	N 	0.42997 0.42708 0.91763 -0.10100
C 	C 	0.26647 0.37100 0.92535 0.02800
C 	C 	0.22633 0.42533 0.92291 -0.06900
C 	C 	0.27639 0.79524 0.92751 -0.06900
C 	C 	0.60763 0.87205 0.92939 0.03200
C 	C 	0.53240 0.78988 0.92495 -0.07800
C 	C 	0.22118 0.29003 0.93332 -0.05300
N 	N 	0.49617 0.98659 0.92731 -0.10000
H 	H 	0.40406 0.67953 0.93146 0.03500
C 	C 	0.18991 0.74007 0.93293 0.00900
C 	C 	0.42808 0.93006 0.93155 0.09400
C 	C 	0.01622 0.11814 0.94861 -0.04500
C 	C 	0.03030 0.31223 0.94792 0.09600
C 	C 	0.10728 0.32824 0.93958 -0.03700
C 	C 	0.14294 0.26926 0.94081 0.02500
C 	C 	0.16925 0.74968 0.94727 -0.03600
H 	H 	0.24970 0.24583 0.93443 0.06400
C 	C 	0.46492 0.73914 0.93502 0.01400
C 	C 	0.34310 0.86000 0.93694 0.02300
H 	H 	0.98194 0.11525 0.93861 0.05500
C 	C 	0.61874 0.89685 0.94406 -0.05100
H 	H 	0.67823 0.95801 0.94757 0.06600
N 	N 	0.00529 0.65588 0.95603 -0.10600
C 	C 	0.07820 0.69758 0.95213 0.09600
C 	C 	0.10327 0.19014 0.95095 0.02100
C 	C 	0.14991 0.18914 0.96345 -0.03400
N 	N 	0.96864 0.29938 0.95460 -0.10700
C 	C 	0.55630 0.83995 0.95437 0.02400
C 	C 	0.47574 0.76501 0.94962 -0.04100
C 	C 	0.40409 0.71446 0.95970 0.09200
C 	C 	0.97171 0.05302 0.95951 0.01700
C 	C 	0.88237 0.97970 0.95694 0.09700
N 	N 	0.81090 0.92051 0.95490 -0.10900
C 	C 	0.23667 0.81129 0.95670 0.02300
C 	C 	0.32389 0.86235 0.95161 -0.05400
C 	C 	0.25432 0.98796 0.96401 0.09900
N 	N 	0.28391 0.04727 0.95574 -0.11000
H 	H 	0.37585 0.90917 0.95889 0.06200
C 	C 	0.01529 0.05924 0.97275 -0.07200
C 	C 	0.10665 0.12134 0.97392 0.01000
C 	C 	0.60978 0.92518 0.97801 -0.04100
C 	C 	0.58466 0.84596 0.96969 0.02800
C 	C 	0.59784 0.77654 0.97528 -0.05400
C 	C 	0.58699 0.99261 0.97332 0.09900
N 	N 	0.34662 0.67404 0.96778 -0.11300
N 	N 	0.56865 0.04656 0.96955 -0.11100
H 	H 	0.57543 0.71396 0.96915 0.06200
C 	C 	0.24015 0.26072 0.96609 0.09600
N 	N 	0.31242 0.31804 0.96820 -0.10600
C 	C 	0.21454 0.83050 0.97137 0.02500
C 	C 	0.21725 0.91394 0.97435 -0.03800
O 	O 	0.98386 0.83331 0.99449 -0.36400
H 	H 	0.14182 0.12268 0.98375 0.04100
C 	C 	0.12774 0.84700 0.99585 -0.07400
C 	C 	0.13625 0.76874 0.99406 0.02900
H 	H 	0.17508 0.98515 0.98882 0.03800
C 	C 	0.18095 0.76140 0.98191 -0.05400
C 	C 	0.17725 0.92281 0.98694 0.01500
H 	H 	0.18369 0.69935 0.98009 0.06300
N 	N 	0.65711 0.65222 0.99835 -0.10000
C 	C 	0.68042 0.87395 0.99568 -0.08100
C 	C 	0.65114 0.71316 0.99396 0.07100
C 	C 	0.96455 0.02226 0.98630 0.27900
O 	O 	0.89666 0.93648 0.98681 -0.36000
C 	C 	0.64343 0.78874 0.98832 0.02800
C 	C 	0.65759 0.93894 0.99094 0.02100
O 	O 	0.98130 0.07998 0.99722 -0.35700
H 	H 	0.68010 0.00177 0.99699 0.04900
