data_crystal

_cell_length_a 40.19773
_cell_length_b 40.94690
_cell_length_c 27.03856
_cell_angle_alpha 92.36693
_cell_angle_beta  87.76717
_cell_angle_gamma 89.83441

_symmetry_space_group_name_	'P 1'
_symmetry_space_group_name_H-M	'P 1'

loop_
_symmetry_equiv_pos_as_xyz
  x,y,z

loop_
_atom_site_label
_atom_site_type_symbol
_atom_site_fract_x
_atom_site_fract_y
_atom_site_fract_z
_atom_site_charge
Cd	Cd	0.04623 0.90135 0.24605 1.25100
Cd	Cd	0.02977 0.94008 0.36464 1.20400
O 	O 	0.08659 0.85571 0.23819 -0.28300
O 	O 	0.05613 0.86908 0.17614 -0.29100
C 	C 	0.07877 0.84996 0.19250 0.24700
O 	O 	0.00305 0.93475 0.23492 -0.28100
O 	O 	0.01218 0.96943 0.30191 -0.38900
C 	C 	0.99319 0.95920 0.26569 0.29600
C 	C 	0.00492 0.86953 0.31727 0.30100
O 	O 	0.07806 0.93476 0.31480 -0.41200
O 	O 	0.00159 0.85666 0.27283 -0.18500
O 	O 	0.02804 0.89143 0.32101 -0.51200
C 	C 	0.08813 0.95414 0.28018 0.28200
O 	O 	0.08223 0.94426 0.23496 -0.26200
Cd	Cd	0.09167 0.87840 0.96115 1.25000
Cd	Cd	0.05648 0.89935 0.84768 1.23000
O 	O 	0.14194 0.84395 0.95574 -0.28600
O 	O 	0.12086 0.86279 0.02724 -0.30600
C 	C 	0.14328 0.84436 0.00369 0.25100
O 	O 	0.05272 0.91607 0.98406 -0.30100
O 	O 	0.02221 0.90811 0.91463 -0.38100
C 	C 	0.02935 0.92582 0.95465 0.28500
C 	C 	0.12243 0.92698 0.90294 0.30900
O 	O 	0.06559 0.84959 0.88291 -0.36000
O 	O 	0.13473 0.92767 0.94704 -0.18200
O 	O 	0.10254 0.90299 0.89346 -0.51000
C 	C 	0.04552 0.83438 0.91308 0.30100
O 	O 	0.05132 0.83838 0.96010 -0.33400
C 	C 	0.15120 0.63990 0.91609 0.10700
N 	N 	0.16184 0.64026 0.86780 -0.13000
C 	C 	0.15106 0.61730 0.83448 0.12600
N 	N 	0.13042 0.59327 0.85002 -0.13700
C 	C 	0.12006 0.59246 0.89837 0.12600
N 	N 	0.13041 0.61588 0.93133 -0.13500
C 	C 	0.08294 0.65177 0.24983 0.10800
N 	N 	0.05724 0.63064 0.24435 -0.13200
C 	C 	0.04917 0.60965 0.28046 0.12900
N 	N 	0.06682 0.60995 0.32227 -0.13700
C 	C 	0.09240 0.63117 0.32817 0.12700
N 	N 	0.10055 0.65200 0.29177 -0.13200
Cd	Cd	0.86600 0.85409 0.78762 1.24900
Cd	Cd	0.89722 0.89339 0.89574 1.25200
O 	O 	0.82088 0.81371 0.79658 -0.26700
O 	O 	0.83876 0.82973 0.72344 -0.31300
C 	C 	0.81855 0.81144 0.74879 0.23900
O 	O 	0.89999 0.89308 0.75914 -0.33200
O 	O 	0.93142 0.89701 0.82834 -0.36200
C 	C 	0.92341 0.90771 0.78500 0.28600
C 	C 	0.82833 0.90538 0.83735 0.31500
O 	O 	0.89445 0.83882 0.86947 -0.34200
O 	O 	0.81757 0.89932 0.79293 -0.26500
O 	O 	0.85085 0.88549 0.85131 -0.46800
C 	C 	0.91662 0.82232 0.84223 0.29200
O 	O 	0.91111 0.81965 0.79495 -0.30300
Cd	Cd	0.86168 0.91238 0.51036 1.25300
Cd	Cd	0.89628 0.91518 0.38413 1.24200
O 	O 	0.82234 0.86704 0.51860 -0.28400
O 	O 	0.83764 0.89680 0.58341 -0.30700
C 	C 	0.81939 0.87294 0.56621 0.24400
O 	O 	0.90202 0.95063 0.51499 -0.27400
O 	O 	0.93017 0.93981 0.43927 -0.37000
C 	C 	0.92098 0.96048 0.47668 0.30700
C 	C 	0.91010 0.86696 0.47043 0.28600
O 	O 	0.85788 0.94532 0.43082 -0.37800
O 	O 	0.90920 0.86805 0.51889 -0.19900
O 	O 	0.88738 0.88390 0.44992 -0.49500
C 	C 	0.82635 0.94909 0.44090 0.32600
O 	O 	0.81777 0.94472 0.48710 -0.30900
C 	C 	0.62023 0.77729 0.80305 0.10400
N 	N 	0.59293 0.79267 0.78703 -0.13500
C 	C 	0.57020 0.80638 0.82013 0.12500
N 	N 	0.57481 0.80456 0.86943 -0.13800
C 	C 	0.60223 0.78948 0.88574 0.12400
N 	N 	0.62486 0.77570 0.85242 -0.13100
C 	C 	0.63478 0.87597 0.47520 0.10600
N 	N 	0.64111 0.86005 0.43065 -0.13100
C 	C 	0.62914 0.87210 0.38875 0.12900
N 	N 	0.61051 0.89985 0.39152 -0.13700
C 	C 	0.60368 0.91555 0.43595 0.12800
N 	N 	0.61586 0.90361 0.47779 -0.13100
Cd	Cd	0.82745 0.10048 0.26454 1.24900
Cd	Cd	0.86440 0.08241 0.37780 1.25500
O 	O 	0.78395 0.14318 0.26518 -0.26700
O 	O 	0.80430 0.11976 0.19565 -0.31300
C 	C 	0.78352 0.14078 0.21717 0.23900
O 	O 	0.86952 0.06607 0.24198 -0.31400
O 	O 	0.87223 0.04325 0.31780 -0.36200
C 	C 	0.88512 0.04771 0.27306 0.29000
C 	C 	0.87608 0.14389 0.30388 0.32300
O 	O 	0.80978 0.08032 0.35271 -0.34700
O 	O 	0.87094 0.14954 0.25759 -0.24700
O 	O 	0.85645 0.12261 0.32371 -0.46100
C 	C 	0.79532 0.05553 0.33082 0.30300
O 	O 	0.79408 0.05640 0.28272 -0.32400
Cd	Cd	0.87518 0.07899 0.97536 1.25200
Cd	Cd	0.89471 0.03741 0.85976 1.23600
O 	O 	0.82806 0.11761 0.98019 -0.27400
O 	O 	0.85593 0.10688 0.04578 -0.29700
C 	C 	0.83231 0.12373 0.02705 0.24600
O 	O 	0.91315 0.04147 0.99333 -0.30300
O 	O 	0.93547 0.03545 0.91411 -0.38500
C 	C 	0.93206 0.02511 0.95955 0.29800
C 	C 	0.83448 0.02624 0.94299 0.32300
O 	O 	0.89358 0.09258 0.88368 -0.38100
O 	O 	0.82873 0.03315 0.99020 -0.23600
O 	O 	0.85430 0.04595 0.92018 -0.47000
C 	C 	0.91782 0.10957 0.90235 0.27600
O 	O 	0.91714 0.11335 0.95043 -0.26700
C 	C 	0.81894 0.32642 0.93738 0.10600
N 	N 	0.84251 0.34961 0.94500 -0.13300
C 	C 	0.84749 0.37341 0.91194 0.12600
N 	N 	0.82892 0.37379 0.87103 -0.13800
C 	C 	0.80556 0.35047 0.86295 0.12600
N 	N 	0.80031 0.32710 0.89658 -0.13100
C 	C 	0.75290 0.33459 0.27057 0.10500
N 	N 	0.74295 0.33236 0.31899 -0.13300
C 	C 	0.75413 0.35424 0.35365 0.12700
N 	N 	0.77501 0.37847 0.33969 -0.13700
C 	C 	0.78504 0.38075 0.29145 0.12600
N 	N 	0.77403 0.35874 0.25696 -0.13300
Cd	Cd	0.06891 0.06032 0.71026 1.25300
Cd	Cd	0.05439 0.04292 0.83697 1.20100
O 	O 	0.11359 0.09892 0.68949 -0.28900
O 	O 	0.08733 0.07134 0.63157 -0.27100
C 	C 	0.11023 0.09258 0.64252 0.24400
O 	O 	0.03214 0.01917 0.70895 -0.29200
O 	O 	0.01170 0.02930 0.78871 -0.37400
C 	C 	0.01365 0.01053 0.74784 0.28700
C 	C 	0.11172 0.01612 0.75545 0.29300
O 	O 	0.05354 0.09133 0.79503 -0.42200
O 	O 	0.11720 0.01495 0.70751 -0.20000
O 	O 	0.09242 0.03956 0.77274 -0.52100
C 	C 	0.02796 0.10384 0.77431 0.28900
O 	O 	0.02588 0.09736 0.72686 -0.25000
Cd	Cd	0.05315 0.12768 0.43359 1.25200
Cd	Cd	0.01338 0.09711 0.32700 1.24400
O 	O 	0.08998 0.17530 0.42620 -0.26900
O 	O 	0.07966 0.15314 0.49758 -0.30200
C 	C 	0.09600 0.17508 0.47307 0.24200
O 	O 	0.01679 0.09150 0.46253 -0.31600
O 	O 	0.01341 0.06181 0.38890 -0.37300
C 	C 	0.00314 0.06796 0.43533 0.29300
C 	C 	0.99718 0.16147 0.39963 0.31100
O 	O 	0.06909 0.10345 0.34436 -0.38800
O 	O 	0.00333 0.17167 0.44486 -0.24700
O 	O 	0.01900 0.14173 0.37849 -0.47500
C 	C 	0.08766 0.08193 0.36444 0.28900
O 	O 	0.09037 0.08563 0.41229 -0.25200
C 	C 	0.30226 0.09120 0.69293 0.10500
N 	N 	0.30174 0.11090 0.73477 -0.13300
C 	C 	0.31841 0.10191 0.77486 0.12700
N 	N 	0.33539 0.07319 0.77315 -0.13500
C 	C 	0.33596 0.05348 0.73157 0.12700
N 	N 	0.31956 0.06257 0.69136 -0.13000
C 	C 	0.30485 0.17875 0.36610 0.10800
N 	N 	0.33135 0.16241 0.38274 -0.13500
C 	C 	0.35655 0.15225 0.35077 0.12600
N 	N 	0.35504 0.15838 0.30187 -0.13700
C 	C 	0.32866 0.17489 0.28500 0.12600
N 	N 	0.30382 0.18542 0.31739 -0.13000
C 	C 	0.32522 0.17812 0.23104 -0.01600
C 	C 	0.29346 0.17998 0.21121 -0.01100
C 	C 	0.29007 0.17937 0.15991 -0.04200
C 	C 	0.31831 0.17674 0.12782 0.02000
C 	C 	0.35010 0.17631 0.14751 -0.04400
C 	C 	0.35356 0.17714 0.19883 -0.01400
C 	C 	0.31452 0.17178 0.07387 0.01100
C 	C 	0.29731 0.14442 0.05530 -0.03200
C 	C 	0.29589 0.13823 0.00420 -0.02100
C 	C 	0.31173 0.15928 0.97114 0.00600
C 	C 	0.32807 0.18720 0.98964 -0.03700
C 	C 	0.32944 0.19345 0.04081 -0.03100
C 	C 	0.31389 0.15034 0.91762 0.02200
C 	C 	0.28478 0.14651 0.89093 -0.04300
C 	C 	0.28644 0.13274 0.84262 -0.01000
C 	C 	0.31721 0.12256 0.82080 -0.01800
C 	C 	0.34649 0.12838 0.84636 -0.01300
C 	C 	0.34484 0.14221 0.89453 -0.04500
H 	H 	0.27133 0.18089 0.23542 0.05900
H 	H 	0.26543 0.18009 0.14507 0.06300
H 	H 	0.37209 0.17444 0.12306 0.04900
H 	H 	0.37825 0.17641 0.21348 0.04600
H 	H 	0.28577 0.12751 0.08046 0.06300
H 	H 	0.28335 0.11654 0.99032 0.06000
H 	H 	0.34026 0.20367 0.96443 0.04700
H 	H 	0.34251 0.21480 0.05475 0.04600
H 	H 	0.26079 0.15309 0.90822 0.06300
H 	H 	0.26369 0.12855 0.82315 0.05600
H 	H 	0.37042 0.12106 0.82959 0.04600
H 	H 	0.36748 0.14529 0.91465 0.05000
C 	C 	0.18106 0.18011 0.49153 0.08800
C 	C 	0.20864 0.16008 0.47758 -0.08000
C 	C 	0.22847 0.16870 0.43663 0.03700
C 	C 	0.22348 0.19762 0.41339 0.08600
C 	C 	0.19814 0.21936 0.43013 -0.07700
C 	C 	0.17642 0.20979 0.46895 0.02200
N 	N 	0.15141 0.16748 0.50535 -0.15400
C 	C 	0.12767 0.18802 0.49067 0.04000
C 	C 	0.14242 0.21503 0.46930 -0.04600
N 	N 	0.25172 0.20682 0.38960 -0.16100
C 	C 	0.27513 0.18425 0.39870 0.06000
C 	C 	0.26137 0.15994 0.42748 -0.06400
H 	H 	0.21265 0.13720 0.49518 0.07400
H 	H 	0.19431 0.24209 0.41200 0.06800
H 	H 	0.13038 0.22970 0.44264 0.07700
H 	H 	0.27521 0.14250 0.44774 0.06500
H 	H 	0.14752 0.14243 0.50895 0.12000
H 	H 	0.25665 0.23022 0.37718 0.09700
C 	C 	0.18461 0.12431 0.59487 0.08000
C 	C 	0.21192 0.14083 0.61472 -0.08100
C 	C 	0.24296 0.12503 0.61221 0.02200
C 	C 	0.24604 0.09258 0.59509 0.08500
C 	C 	0.21819 0.07534 0.57840 -0.07500
C 	C 	0.18791 0.09227 0.57600 0.03300
N 	N 	0.15324 0.12983 0.61236 -0.15400
C 	C 	0.13644 0.10147 0.60636 0.04800
C 	C 	0.15710 0.07777 0.58297 -0.02900
N 	N 	0.27098 0.07788 0.61768 -0.16200
C 	C 	0.28358 0.10043 0.64965 0.06300
C 	C 	0.26690 0.13008 0.64713 -0.06900
H 	H 	0.20839 0.16376 0.63577 0.06500
H 	H 	0.21925 0.04903 0.57225 0.08900
H 	H 	0.15375 0.05174 0.58703 0.10500
H 	H 	0.26499 0.14847 0.67710 0.06400
H 	H 	0.14669 0.14805 0.63927 0.11100
H 	H 	0.27259 0.05264 0.62177 0.10800
C 	C 	0.78898 0.34821 0.81507 -0.01700
C 	C 	0.78202 0.31747 0.79280 -0.01100
C 	C 	0.77047 0.31516 0.74467 -0.04200
C 	C 	0.76574 0.34350 0.71832 0.02000
C 	C 	0.77109 0.37427 0.74137 -0.04500
C 	C 	0.78261 0.37663 0.78953 -0.01500
C 	C 	0.75822 0.34087 0.66530 0.01000
C 	C 	0.78152 0.32656 0.63091 -0.03000
C 	C 	0.77575 0.32637 0.58027 -0.03000
C 	C 	0.74659 0.34043 0.56349 0.01100
C 	C 	0.72277 0.35384 0.59800 -0.03400
C 	C 	0.72861 0.35412 0.64871 -0.03400
C 	C 	0.74242 0.34358 0.50982 0.02100
C 	C 	0.74374 0.31572 0.47770 -0.04100
C 	C 	0.74546 0.31906 0.42636 -0.01000
C 	C 	0.74583 0.35031 0.40673 -0.01700
C 	C 	0.74214 0.37803 0.43889 -0.01400
C 	C 	0.74057 0.37468 0.49016 -0.04500
H 	H 	0.78671 0.29532 0.81201 0.05800
H 	H 	0.76612 0.29130 0.72733 0.06300
H 	H 	0.76733 0.39630 0.72141 0.04900
H 	H 	0.78727 0.40051 0.80656 0.04600
H 	H 	0.80447 0.31632 0.64336 0.06100
H 	H 	0.79438 0.31612 0.55398 0.06300
H 	H 	0.70009 0.36458 0.58547 0.04600
H 	H 	0.71037 0.36502 0.67501 0.04700
H 	H 	0.74466 0.29157 0.49251 0.06700
H 	H 	0.74803 0.29745 0.40201 0.06100
H 	H 	0.74166 0.40224 0.42420 0.04500
H 	H 	0.73927 0.39633 0.51459 0.04900
C 	C 	0.00499 0.12534 0.85569 0.04200
C 	C 	0.00069 0.11998 0.80474 -0.00000
C 	C 	0.96863 0.12456 0.78618 -0.07000
C 	C 	0.94084 0.12321 0.81915 0.05100
C 	C 	0.94512 0.12256 0.87044 0.00900
C 	C 	0.97726 0.12879 0.88865 -0.10100
C 	C 	0.98226 0.13998 0.94204 0.78200
H 	H 	0.02986 0.12546 0.86983 0.07100
H 	H 	0.91601 0.12194 0.80490 0.10200
C 	C 	0.96389 0.13334 0.73301 0.78100
F 	F 	0.01284 0.15501 0.94696 -0.42100
F 	F 	0.98113 0.11336 0.97192 -0.42800
F 	F 	0.95802 0.16251 0.95800 -0.42100
F 	F 	0.96143 0.10518 0.70346 -0.37300
F 	F 	0.99023 0.15195 0.71569 -0.41700
F 	F 	0.93506 0.15153 0.72937 -0.41000
C 	C 	0.80402 0.24817 0.98421 0.07100
C 	C 	0.78360 0.22393 0.00395 -0.06300
C 	C 	0.79738 0.20304 0.03780 0.01200
C 	C 	0.82985 0.20761 0.05334 0.09400
C 	C 	0.84890 0.23412 0.03687 -0.09000
C 	C 	0.83596 0.25291 0.00002 0.05200
N 	N 	0.79245 0.27554 0.96497 -0.15900
C 	C 	0.81673 0.29820 0.96930 0.06300
C 	C 	0.84435 0.28480 0.99067 -0.07800
N 	N 	0.84382 0.17852 0.06177 -0.15600
C 	C 	0.82131 0.15522 0.05013 0.04000
C 	C 	0.79184 0.16973 0.03660 -0.04400
H 	H 	0.75856 0.22025 0.99148 0.06200
H 	H 	0.87393 0.23811 0.04919 0.08700
H 	H 	0.86448 0.29849 0.00697 0.07500
H 	H 	0.77408 0.15768 0.01290 0.07800
H 	H 	0.76746 0.28060 0.95893 0.09700
H 	H 	0.86955 0.17443 0.06013 0.13000
C 	C 	0.93453 0.16337 0.30124 0.07500
C 	C 	0.90524 0.15737 0.32925 -0.01200
C 	C 	0.90492 0.16293 0.38139 -0.12300
C 	C 	0.93545 0.16546 0.40490 0.05800
C 	C 	0.96531 0.16795 0.37668 -0.02100
C 	C 	0.96408 0.17119 0.32486 -0.11200
C 	C 	0.99418 0.18209 0.29435 0.78600
H 	H 	0.93453 0.16125 0.26114 0.11000
H 	H 	0.93600 0.16487 0.44492 0.08700
C 	C 	0.87264 0.16784 0.41180 0.78700
F 	F 	0.98426 0.19866 0.25377 -0.41500
F 	F 	0.01275 0.15510 0.27763 -0.48100
F 	F 	0.01392 0.20298 0.32197 -0.42900
F 	F 	0.86141 0.13817 0.42812 -0.50000
F 	F 	0.84842 0.18186 0.38436 -0.43200
F 	F 	0.87757 0.18847 0.45271 -0.41700
C 	C 	0.74970 0.27069 0.17826 0.07900
C 	C 	0.77010 0.24583 0.15620 -0.07700
C 	C 	0.75943 0.21335 0.15935 0.01900
C 	C 	0.73138 0.20561 0.18827 0.09000
C 	C 	0.71275 0.23034 0.21417 -0.08200
C 	C 	0.72122 0.26297 0.20634 0.02800
N 	N 	0.76190 0.29963 0.19441 -0.16200
C 	C 	0.74185 0.31027 0.23306 0.06300
C 	C 	0.71629 0.28817 0.24160 -0.07000
N 	N 	0.73476 0.17554 0.20577 -0.15400
C 	C 	0.76490 0.16410 0.18914 0.03800
C 	C 	0.78092 0.18693 0.16014 -0.04600
H 	H 	0.79470 0.25135 0.14102 0.06300
H 	H 	0.69435 0.22432 0.24268 0.06900
H 	H 	0.70326 0.28557 0.27706 0.06600
H 	H 	0.80775 0.18893 0.15609 0.07200
H 	H 	0.78678 0.30658 0.18931 0.09800
H 	H 	0.72227 0.16771 0.23780 0.11300
C 	C 	0.58241 0.94499 0.43869 -0.01500
C 	C 	0.55665 0.94850 0.47514 -0.01400
C 	C 	0.53360 0.97407 0.47346 -0.04300
C 	C 	0.53623 0.99639 0.43549 0.02000
C 	C 	0.56293 0.99382 0.40054 -0.04000
C 	C 	0.58590 0.96825 0.40212 -0.01000
C 	C 	0.50958 0.02061 0.42971 0.00900
C 	C 	0.47763 0.01012 0.41743 -0.03600
C 	C 	0.45307 0.03294 0.40770 -0.03500
C 	C 	0.46020 0.06650 0.41030 0.00800
C 	C 	0.49196 0.07704 0.42362 -0.03400
C 	C 	0.51657 0.05417 0.43322 -0.03500
C 	C 	0.43469 0.09046 0.39766 0.01900
C 	C 	0.40395 0.09194 0.42407 -0.04500
C 	C 	0.37870 0.11257 0.40945 -0.01300
C 	C 	0.38400 0.13212 0.36833 -0.01800
C 	C 	0.41519 0.13139 0.34291 -0.01400
C 	C 	0.44035 0.11058 0.35742 -0.04500
H 	H 	0.55374 0.93077 0.50362 0.04600
H 	H 	0.51322 0.97602 0.50086 0.04900
H 	H 	0.56525 0.01103 0.37124 0.05600
H 	H 	0.60598 0.96608 0.37423 0.05700
H 	H 	0.47206 0.98426 0.41437 0.04800
H 	H 	0.42868 0.02455 0.39729 0.04900
H 	H 	0.49763 0.10289 0.42611 0.04900
H 	H 	0.54114 0.06250 0.44278 0.05500
H 	H 	0.39943 0.07669 0.45542 0.05000
H 	H 	0.35480 0.11277 0.42941 0.04900
H 	H 	0.41987 0.14669 0.31167 0.04600
H 	H 	0.46403 0.10964 0.33683 0.05000
C 	C 	0.54211 0.82555 0.80273 -0.01900
C 	C 	0.51172 0.82704 0.83023 -0.01500
C 	C 	0.48642 0.84807 0.81696 -0.04600
C 	C 	0.49120 0.86775 0.77605 0.01800
C 	C 	0.52091 0.86518 0.74718 -0.04600
C 	C 	0.54627 0.84418 0.76042 -0.01400
C 	C 	0.46650 0.89312 0.76629 0.00800
C 	C 	0.44845 0.89113 0.72288 -0.03500
C 	C 	0.42514 0.91540 0.71373 -0.03500
C 	C 	0.41981 0.94182 0.74791 0.01000
C 	C 	0.43810 0.94388 0.79108 -0.03500
C 	C 	0.46129 0.91963 0.80026 -0.03400
C 	C 	0.39499 0.96728 0.73886 0.01800
C 	C 	0.36827 0.97318 0.77303 -0.04000
C 	C 	0.34782 0.00051 0.76909 -0.01200
C 	C 	0.35373 0.02204 0.73070 -0.01500
C 	C 	0.37910 0.01501 0.69467 -0.01500
C 	C 	0.39975 0.98776 0.69883 -0.04300
H 	H 	0.50792 0.81234 0.86236 0.04600
H 	H 	0.46340 0.84966 0.83916 0.05000
H 	H 	0.52479 0.88024 0.71546 0.05000
H 	H 	0.56954 0.84327 0.73880 0.04700
H 	H 	0.45237 0.87077 0.69640 0.04700
H 	H 	0.41112 0.91359 0.68031 0.04900
H 	H 	0.43438 0.96433 0.81747 0.04900
H 	H 	0.47533 0.92150 0.83366 0.04900
H 	H 	0.36406 0.95720 0.80359 0.05600
H 	H 	0.32798 0.00548 0.79667 0.05900
H 	H 	0.38374 0.03139 0.66473 0.04600
H 	H 	0.42019 0.98330 0.67208 0.04800
C 	C 	0.63626 0.85522 0.34031 -0.01400
C 	C 	0.64486 0.87345 0.29890 -0.00600
C 	C 	0.64680 0.85834 0.25161 -0.03900
C 	C 	0.64017 0.82483 0.24519 0.02300
C 	C 	0.63328 0.80623 0.28683 -0.04300
C 	C 	0.63142 0.82136 0.33426 -0.01200
C 	C 	0.63705 0.81016 0.19479 0.01100
C 	C 	0.60594 0.79910 0.17941 -0.03400
C 	C 	0.60122 0.79123 0.12938 -0.03600
C 	C 	0.62755 0.79436 0.09432 0.01200
C 	C 	0.65923 0.80325 0.11013 -0.03000
C 	C 	0.66398 0.81109 0.16020 -0.02900
C 	C 	0.62091 0.79272 0.04104 0.01800
C 	C 	0.60204 0.81738 0.02088 -0.03500
C 	C 	0.59598 0.81630 0.97035 -0.01800
C 	C 	0.60864 0.79042 0.93930 -0.01200
C 	C 	0.62756 0.76568 0.95957 -0.01800
C 	C 	0.63372 0.76689 0.01024 -0.03600
H 	H 	0.64915 0.89951 0.30322 0.06000
H 	H 	0.65224 0.87290 0.21974 0.06400
H 	H 	0.62840 0.78030 0.28231 0.05200
H 	H 	0.62492 0.80701 0.36597 0.04600
H 	H 	0.58503 0.79810 0.20583 0.04600
H 	H 	0.57675 0.78406 0.11757 0.04700
H 	H 	0.67978 0.80549 0.08336 0.06900
H 	H 	0.68820 0.81921 0.17179 0.07000
H 	H 	0.59228 0.83754 0.04437 0.05300
H 	H 	0.58176 0.83580 0.95526 0.05200
H 	H 	0.63729 0.74544 0.93624 0.05000
H 	H 	0.64834 0.74775 0.02554 0.05500
C 	C 	0.79089 0.99828 0.43486 0.07100
C 	C 	0.80657 0.97083 0.41134 0.01300
C 	C 	0.80783 0.96771 0.35902 -0.10400
C 	C 	0.80145 0.99532 0.33179 0.06800
C 	C 	0.79070 0.02463 0.35613 -0.00700
C 	C 	0.78127 0.02466 0.40710 -0.09300
C 	C 	0.76272 0.05329 0.43268 0.78200
H 	H 	0.78795 0.99993 0.47491 0.10700
H 	H 	0.80683 0.99458 0.29215 0.08800
C 	C 	0.81799 0.93591 0.33197 0.78500
F 	F 	0.74304 0.04287 0.47209 -0.42200
F 	F 	0.74210 0.06816 0.40041 -0.42700
F 	F 	0.78530 0.07587 0.45045 -0.41400
F 	F 	0.80261 0.93283 0.28710 -0.41300
F 	F 	0.80899 0.90928 0.35935 -0.46600
F 	F 	0.85203 0.93564 0.32302 -0.50900
C 	C 	0.97458 0.98859 0.48868 0.03900
C 	C 	0.94015 0.99095 0.48269 0.02400
C 	C 	0.92603 0.02142 0.47162 -0.10600
C 	C 	0.94725 0.04737 0.45917 0.05900
C 	C 	0.98190 0.04375 0.45990 0.00200
C 	C 	0.99574 0.01485 0.47765 -0.09700
C 	C 	0.03318 0.01082 0.48053 0.77800
H 	H 	0.98510 0.96542 0.49830 0.11100
H 	H 	0.93689 0.06977 0.44609 0.04500
C 	C 	0.88870 0.02535 0.46742 0.77400
F 	F 	0.04128 0.98369 0.50660 -0.41800
F 	F 	0.04666 0.03793 0.50438 -0.40300
F 	F 	0.04739 0.00715 0.43320 -0.48600
F 	F 	0.87166 0.00971 0.50496 -0.42500
F 	F 	0.87939 0.01228 0.42210 -0.50700
F 	F 	0.87948 0.05799 0.47103 -0.48500
C 	C 	0.74213 0.83735 0.59134 0.08100
C 	C 	0.71758 0.82200 0.56321 -0.08200
C 	C 	0.68634 0.83719 0.56183 0.02400
C 	C 	0.68089 0.86836 0.58323 0.08100
C 	C 	0.70634 0.88475 0.60819 -0.07800
C 	C 	0.73631 0.86798 0.61430 0.02000
N 	N 	0.77482 0.83330 0.58020 -0.15400
C 	C 	0.79009 0.86137 0.59432 0.03600
C 	C 	0.76694 0.88324 0.61652 -0.04500
N 	N 	0.65799 0.88431 0.55816 -0.16200
C 	C 	0.64908 0.86387 0.52046 0.06300
C 	C 	0.66606 0.83429 0.52170 -0.06900
H 	H 	0.72361 0.80066 0.53948 0.06700
H 	H 	0.70406 0.91058 0.61818 0.07600
H 	H 	0.77002 0.90955 0.61740 0.08100
H 	H 	0.67113 0.81803 0.48964 0.06600
H 	H 	0.78432 0.81700 0.55232 0.11200
H 	H 	0.65614 0.90978 0.55776 0.10600
C 	C 	0.93330 0.96316 0.75394 0.04300
C 	C 	0.94551 0.93164 0.76090 0.00700
C 	C 	0.97990 0.92492 0.75201 -0.09800
C 	C 	0.00203 0.95107 0.74496 0.04000
C 	C 	0.99005 0.98311 0.74243 0.01800
C 	C 	0.95526 0.98882 0.74273 -0.10700
C 	C 	0.94152 0.02246 0.73348 0.78100
H 	H 	0.90687 0.96805 0.75967 0.05500
H 	H 	0.02865 0.94671 0.74400 0.07700
C 	C 	0.99346 0.89040 0.75365 0.77800
F 	F 	0.90850 0.02083 0.72080 -0.43000
F 	F 	0.95937 0.03623 0.69489 -0.38500
F 	F 	0.94367 0.04238 0.77578 -0.51000
F 	F 	0.97184 0.86817 0.73234 -0.41300
F 	F 	0.99776 0.88281 0.80232 -0.52700
F 	F 	0.02385 0.88738 0.72792 -0.41500
C 	C 	0.81654 0.96495 0.84093 0.05800
C 	C 	0.81974 0.93585 0.86595 -0.02800
C 	C 	0.81771 0.93689 0.91844 -0.10300
C 	C 	0.82112 0.96712 0.94418 0.07500
C 	C 	0.82202 0.99616 0.91842 -0.01000
C 	C 	0.81502 0.99511 0.86746 -0.12800
C 	C 	0.80566 0.02567 0.84128 0.78700
H 	H 	0.81591 0.96419 0.80084 0.07900
H 	H 	0.82425 0.96793 0.98385 0.11900
C 	C 	0.81192 0.90624 0.94717 0.78600
F 	F 	0.83395 0.03971 0.82087 -0.50700
F 	F 	0.78961 0.04814 0.87369 -0.43100
F 	F 	0.78427 0.01800 0.80364 -0.42000
F 	F 	0.84208 0.89169 0.95576 -0.46400
F 	F 	0.79226 0.88424 0.92142 -0.42700
F 	F 	0.79575 0.91381 0.99236 -0.40700
C 	C 	0.74598 0.77907 0.69711 0.08600
C 	C 	0.71283 0.78828 0.69043 -0.08200
C 	C 	0.68743 0.76937 0.71163 0.02500
C 	C 	0.69470 0.74552 0.74487 0.08200
C 	C 	0.72782 0.73848 0.75535 -0.07700
C 	C 	0.75326 0.75389 0.72809 0.02400
N 	N 	0.77134 0.80049 0.69535 -0.15300
C 	C 	0.79475 0.78934 0.72502 0.03900
C 	C 	0.78439 0.76045 0.74593 -0.04600
N 	N 	0.66932 0.74274 0.77843 -0.16200
C 	C 	0.64583 0.76455 0.76685 0.06200
C 	C 	0.65616 0.78147 0.72554 -0.06900
H 	H 	0.70708 0.81109 0.67373 0.06200
H 	H 	0.73351 0.72367 0.78625 0.06800
H 	H 	0.79288 0.75205 0.78080 0.07800
H 	H 	0.64756 0.80579 0.71784 0.06200
H 	H 	0.76840 0.82518 0.68808 0.10600
H 	H 	0.67178 0.73369 0.81371 0.09900
C 	C 	0.80942 0.40583 0.27722 -0.01800
C 	C 	0.83594 0.39780 0.24350 -0.01300
C 	C 	0.86138 0.42034 0.23490 -0.04500
C 	C 	0.86045 0.45110 0.25980 0.01900
C 	C 	0.83318 0.45968 0.29169 -0.04500
C 	C 	0.80778 0.43717 0.30035 -0.01400
C 	C 	0.88927 0.47316 0.25592 0.00800
C 	C 	0.91984 0.46404 0.27470 -0.03500
C 	C 	0.94620 0.48619 0.27583 -0.03500
C 	C 	0.94222 0.51763 0.25815 0.00800
C 	C 	0.91203 0.52642 0.23787 -0.03500
C 	C 	0.88562 0.50427 0.23680 -0.03500
C 	C 	0.96894 0.54189 0.26356 0.02000
C 	C 	0.98723 0.55200 0.22175 -0.04500
C 	C 	0.01327 0.57428 0.22714 -0.01200
C 	C 	0.02116 0.58673 0.27448 -0.01600
C 	C 	0.00246 0.57687 0.31622 -0.01100
C 	C 	0.97653 0.55452 0.31075 -0.04400
H 	H 	0.83747 0.37373 0.22533 0.05000
H 	H 	0.88222 0.41359 0.20991 0.05200
H 	H 	0.83219 0.48344 0.31091 0.05100
H 	H 	0.78718 0.44384 0.32584 0.04500
H 	H 	0.92287 0.44009 0.28959 0.05200
H 	H 	0.96950 0.47915 0.29129 0.04900
H 	H 	0.90879 0.55063 0.22400 0.05200
H 	H 	0.86216 0.51148 0.22202 0.04800
H 	H 	0.98152 0.54232 0.18517 0.05000
H 	H 	0.02759 0.58148 0.19464 0.04800
H 	H 	0.00792 0.58659 0.35287 0.05300
H 	H 	0.96236 0.54698 0.34320 0.05300
C 	C 	0.09473 0.56847 0.91373 -0.01800
C 	C 	0.09467 0.53700 0.89098 -0.01400
C 	C 	0.06813 0.51582 0.90017 -0.04500
C 	C 	0.04145 0.52584 0.93231 0.01800
C 	C 	0.04229 0.55663 0.95700 -0.04500
C 	C 	0.06880 0.57786 0.94779 -0.01300
C 	C 	0.01146 0.50527 0.93674 0.00900
C 	C 	0.98100 0.51646 0.92001 -0.03600
C 	C 	0.95336 0.49583 0.91947 -0.03400
C 	C 	0.95594 0.46382 0.93556 0.00700
C 	C 	0.98606 0.45298 0.95390 -0.03600
C 	C 	0.01372 0.47363 0.95448 -0.03500
C 	C 	0.92795 0.44096 0.92974 0.02100
C 	C 	0.91800 0.43128 0.88222 -0.04500
C 	C 	0.89166 0.40945 0.87644 -0.01200
C 	C 	0.87489 0.39707 0.91820 -0.01800
C 	C 	0.88481 0.40689 0.96583 -0.01200
C 	C 	0.91126 0.42870 0.97153 -0.05000
H 	H 	0.11478 0.52924 0.86529 0.04600
H 	H 	0.06780 0.49203 0.88112 0.05100
H 	H 	0.02196 0.56445 0.98227 0.05100
H 	H 	0.06853 0.60203 0.96570 0.04900
H 	H 	0.97900 0.54083 0.90623 0.05100
H 	H 	0.93016 0.50447 0.90553 0.04900
H 	H 	0.98826 0.42832 0.96649 0.05100
H 	H 	0.03706 0.46484 0.96777 0.04800
H 	H 	0.93088 0.44049 0.84975 0.05200
H 	H 	0.88460 0.40183 0.83947 0.05100
H 	H 	0.87196 0.39779 0.99839 0.04500
H 	H 	0.91871 0.43614 0.00838 0.05300
C 	C 	0.15785 0.62104 0.78083 -0.01600
C 	C 	0.15785 0.59352 0.74798 -0.01400
C 	C 	0.15876 0.59742 0.69680 -0.04400
C 	C 	0.15993 0.62883 0.67792 0.02000
C 	C 	0.16208 0.65621 0.71057 -0.04100
C 	C 	0.16102 0.65237 0.76177 -0.01000
C 	C 	0.15559 0.63318 0.62458 0.01100
C 	C 	0.17825 0.61893 0.58914 -0.03500
C 	C 	0.17240 0.62057 0.53861 -0.03400
C 	C 	0.14384 0.63649 0.52316 0.01000
C 	C 	0.12179 0.65163 0.55858 -0.03000
C 	C 	0.12762 0.64998 0.60903 -0.03100
C 	C 	0.13551 0.63495 0.47039 0.02000
C 	C 	0.12891 0.60468 0.44662 -0.04500
C 	C 	0.11644 0.60339 0.39905 -0.01400
C 	C 	0.11033 0.63236 0.37480 -0.01700
C 	C 	0.11862 0.66257 0.39752 -0.01100
C 	C 	0.13113 0.66384 0.44514 -0.04200
H 	H 	0.15619 0.56917 0.76208 0.04600
H 	H 	0.15736 0.57609 0.67189 0.04900
H 	H 	0.16346 0.68054 0.69633 0.06500
H 	H 	0.16130 0.67384 0.78653 0.06100
H 	H 	0.20005 0.60612 0.60075 0.04600
H 	H 	0.18968 0.60896 0.51155 0.04600
H 	H 	0.09961 0.66386 0.54706 0.06100
H 	H 	0.10993 0.66099 0.63607 0.06300
H 	H 	0.13237 0.58223 0.46567 0.04900
H 	H 	0.11072 0.57990 0.38156 0.04700
H 	H 	0.11417 0.68510 0.37916 0.05700
H 	H 	0.13648 0.68732 0.46299 0.06200
C 	C 	0.97172 0.94341 0.97885 0.05200
C 	C 	0.00549 0.95160 0.97280 0.01200
C 	C 	0.01489 0.98493 0.97423 -0.10800
C 	C 	0.98997 0.00927 0.97584 0.05000
C 	C 	0.95619 0.00081 0.97550 0.01300
C 	C 	0.94683 0.96776 0.98020 -0.10800
C 	C 	0.91042 0.95805 0.98075 0.76600
H 	H 	0.96478 0.91784 0.97876 0.07400
H 	H 	0.99681 0.03477 0.97365 0.09500
C 	C 	0.05129 0.99448 0.96990 0.78000
F 	F 	0.90607 0.92605 0.99427 -0.45900
F 	F 	0.89834 0.96116 0.93398 -0.56600
F 	F 	0.89213 0.97795 0.01434 -0.42300
F 	F 	0.06437 0.98467 0.92356 -0.52500
F 	F 	0.06881 0.97964 0.00589 -0.38100
F 	F 	0.05552 0.02793 0.97612 -0.43600
C 	C 	0.98638 0.81951 0.93010 0.06000
C 	C 	0.01383 0.82027 0.89643 -0.00700
C 	C 	0.00941 0.81086 0.84607 -0.08400
C 	C 	0.97702 0.81003 0.82841 0.06900
C 	C 	0.94935 0.81381 0.86152 0.00700
C 	C 	0.95433 0.81367 0.91312 -0.11300
C 	C 	0.92608 0.80709 0.95015 0.78500
H 	H 	0.98981 0.82415 0.96933 0.08800
H 	H 	0.97344 0.80741 0.78893 0.12200
C 	C 	0.03866 0.80158 0.81114 0.78500
F 	F 	0.93805 0.79218 0.99097 -0.41700
F 	F 	0.90272 0.78644 0.92945 -0.41900
F 	F 	0.91098 0.83627 0.96596 -0.44300
F 	F 	0.06378 0.78705 0.83620 -0.43400
F 	F 	0.05085 0.82915 0.78894 -0.42900
F 	F 	0.02889 0.77946 0.77444 -0.41400
C 	C 	0.13183 0.93662 0.81394 0.02200
C 	C 	0.13462 0.94817 0.86316 -0.01100
C 	C 	0.14147 0.98164 0.87270 -0.08200
C 	C 	0.13566 0.00381 0.83564 0.03000
C 	C 	0.12657 0.99257 0.78827 -0.02700
C 	C 	0.12739 0.95850 0.77604 -0.10600
C 	C 	0.12300 0.94533 0.72329 0.77400
H 	H 	0.13037 0.91052 0.80603 0.06800
H 	H 	0.13703 0.02988 0.84403 0.06200
C 	C 	0.15630 0.99359 0.92086 0.77800
F 	F 	0.12568 0.91159 0.71948 -0.41900
F 	F 	0.14740 0.95796 0.69214 -0.41000
F 	F 	0.09190 0.95381 0.70766 -0.43700
F 	F 	0.18176 0.97293 0.93296 -0.41700
F 	F 	0.13201 0.99469 0.95847 -0.37700
F 	F 	0.16955 0.02461 0.91698 -0.42900
C 	C 	0.17124 0.71902 0.96171 0.08900
C 	C 	0.19286 0.74434 0.97495 -0.08300
C 	C 	0.18160 0.76759 0.01173 0.02600
C 	C 	0.15073 0.76395 0.03662 0.08300
C 	C 	0.13124 0.73604 0.02698 -0.07700
C 	C 	0.14120 0.71515 0.98697 0.02900
N 	N 	0.18095 0.69074 0.93840 -0.16200
C 	C 	0.15729 0.66839 0.94936 0.06100
C 	C 	0.13211 0.68292 0.97969 -0.06800
N 	N 	0.13671 0.79348 0.04683 -0.15300
C 	C 	0.15729 0.81603 0.02726 0.03300
C 	C 	0.18600 0.80082 0.00699 -0.04100
H 	H 	0.21647 0.74731 0.95497 0.06700
H 	H 	0.10748 0.73280 0.04633 0.06700
H 	H 	0.11266 0.67030 0.00004 0.06700
H 	H 	0.20148 0.81104 0.97779 0.07000
H 	H 	0.20485 0.68542 0.92362 0.09700
H 	H 	0.11097 0.79699 0.05131 0.10600
C 	C 	0.97197 0.01472 0.24987 0.06000
C 	C 	0.96590 0.98098 0.25148 0.01800
C 	C 	0.93288 0.96934 0.24768 -0.10100
C 	C 	0.90630 0.99200 0.24984 0.05700
C 	C 	0.91235 0.02574 0.25403 0.01700
C 	C 	0.94544 0.03727 0.25011 -0.10900
C 	C 	0.95258 0.07366 0.25151 0.77000
H 	H 	0.99734 0.02346 0.25142 0.08500
H 	H 	0.88080 0.98345 0.25124 0.10700
C 	C 	0.92586 0.93294 0.24269 0.78600
F 	F 	0.98535 0.07988 0.23735 -0.49100
F 	F 	0.94650 0.08650 0.29913 -0.56700
F 	F 	0.93248 0.08931 0.21945 -0.42900
F 	F 	0.93560 0.91773 0.28457 -0.51300
F 	F 	0.94315 0.91947 0.20154 -0.39700
F 	F 	0.89239 0.92674 0.23681 -0.39400
C 	C 	0.93396 0.83723 0.39633 0.02200
C 	C 	0.93938 0.85467 0.44093 -0.01200
C 	C 	0.97141 0.86746 0.44932 -0.11200
C 	C 	0.99374 0.87094 0.40860 0.04100
C 	C 	0.98609 0.85784 0.36154 -0.02800
C 	C 	0.95822 0.83670 0.35751 -0.08400
C 	C 	0.95484 0.81258 0.31387 0.77700
H 	H 	0.91013 0.82552 0.39098 0.08400
H 	H 	0.01660 0.88447 0.41322 0.01700
C 	C 	0.98205 0.87666 0.50124 0.78300
F 	F 	0.93314 0.78762 0.32579 -0.42400
F 	F 	0.98530 0.79832 0.30045 -0.42300
F 	F 	0.94248 0.82838 0.27421 -0.40000
F 	F 	0.01612 0.88127 0.50244 -0.41800
F 	F 	0.97376 0.85193 0.53278 -0.39800
F 	F 	0.96641 0.90527 0.51823 -0.44100
C 	C 	0.11423 0.99418 0.33798 0.04900
C 	C 	0.09912 0.98791 0.29260 0.00100
C 	C 	0.08951 0.01474 0.26463 -0.09400
C 	C 	0.08656 0.04577 0.28841 0.04200
C 	C 	0.09792 0.05132 0.33650 0.00500
C 	C 	0.11613 0.02626 0.35827 -0.07200
C 	C 	0.13853 0.03339 0.40126 0.77900
H 	H 	0.12390 0.97401 0.35793 0.08900
H 	H 	0.07491 0.06549 0.26982 0.07000
C 	C 	0.08371 0.01096 0.20952 0.78200
F 	F 	0.16383 0.01039 0.40160 -0.42700
F 	F 	0.12017 0.03234 0.44549 -0.39300
F 	F 	0.15326 0.06375 0.39754 -0.43300
F 	F 	0.05305 0.99676 0.20202 -0.42800
F 	F 	0.10861 0.99196 0.18605 -0.39900
F 	F 	0.08411 0.04096 0.18766 -0.40000
C 	C 	0.08440 0.76973 0.14045 0.09100
C 	C 	0.06723 0.73996 0.14169 -0.08300
C 	C 	0.08448 0.71237 0.15644 0.03000
C 	C 	0.11567 0.71544 0.17681 0.07800
C 	C 	0.13123 0.74602 0.18069 -0.07500
C 	C 	0.11621 0.77245 0.15867 0.01800
N 	N 	0.06887 0.79897 0.14381 -0.15500
C 	C 	0.09037 0.82038 0.16444 0.04200
C 	C 	0.12004 0.80474 0.17417 -0.04400
N 	N 	0.12013 0.69190 0.20930 -0.16200
C 	C 	0.09207 0.67379 0.20980 0.06500
C 	C 	0.06932 0.68576 0.17755 -0.06900
H 	H 	0.04089 0.73881 0.13472 0.08700
H 	H 	0.15284 0.74958 0.20300 0.06500
H 	H 	0.13671 0.81291 0.20266 0.07300
H 	H 	0.04261 0.68256 0.18153 0.07700
H 	H 	0.04299 0.80190 0.14598 0.13400
H 	H 	0.13658 0.69365 0.23830 0.10000
