data_crystal

_cell_length_a 45.25985
_cell_length_b 46.30022
_cell_length_c 20.73096
_cell_angle_alpha 93.41218
_cell_angle_beta  93.19642
_cell_angle_gamma 90.08225

_symmetry_space_group_name_	'P 1'
_symmetry_space_group_name_H-M	'P 1'

loop_
_symmetry_equiv_pos_as_xyz
  x,y,z

loop_
_atom_site_label
_atom_site_type_symbol
_atom_site_fract_x
_atom_site_fract_y
_atom_site_fract_z
_atom_site_charge
Cd	Cd	0.97658 0.90168 0.20367 1.24200
Cd	Cd	0.96493 0.95983 0.31722 1.10600
O 	O 	0.97822 0.85172 0.23903 -0.32600
O 	O 	0.98063 0.86104 0.13666 -0.35400
C 	C 	0.98027 0.84167 0.17952 0.29500
O 	O 	0.96819 0.93885 0.14183 -0.38700
O 	O 	0.98180 0.97226 0.22296 -0.58200
C 	C 	0.96739 0.96551 0.16737 0.31500
C 	C 	0.91859 0.91179 0.24624 0.30000
O 	O 	0.00221 0.92518 0.31269 -0.46000
O 	O 	0.91775 0.89475 0.19361 -0.29400
O 	O 	0.94473 0.91774 0.27231 -0.56000
C 	C 	0.02687 0.92628 0.28291 0.27900
O 	O 	0.02547 0.91515 0.22339 -0.35900
Cd	Cd	0.90639 0.90717 0.94493 1.23700
Cd	Cd	0.89348 0.95769 0.82547 1.10600
O 	O 	0.92569 0.85881 0.91382 -0.32700
O 	O 	0.92027 0.87302 0.01573 -0.34000
C 	C 	0.92802 0.85264 0.97425 0.28700
O 	O 	0.89791 0.94814 0.00262 -0.38100
O 	O 	0.87197 0.96760 0.91894 -0.58300
C 	C 	0.88757 0.97096 0.97413 0.30300
C 	C 	0.95522 0.93723 0.89945 0.30200
O 	O 	0.87411 0.91161 0.83509 -0.46000
O 	O 	0.96273 0.92514 0.95325 -0.30100
O 	O 	0.92921 0.93043 0.87371 -0.56000
C 	C 	0.85090 0.90470 0.86578 0.28100
O 	O 	0.85633 0.89856 0.92603 -0.36500
C 	C 	0.02029 0.64811 0.94278 0.13600
N 	N 	0.03364 0.64875 0.88574 -0.14600
C 	C 	0.04497 0.62418 0.85816 0.12700
N 	N 	0.04423 0.59923 0.88936 -0.14600
C 	C 	0.02943 0.59805 0.94446 0.12900
N 	N 	0.01727 0.62258 0.97066 -0.15100
C 	C 	0.05488 0.64166 0.28180 0.13100
N 	N 	0.06535 0.64378 0.34460 -0.14600
C 	C 	0.06148 0.62156 0.38323 0.12800
N 	N 	0.04928 0.59637 0.35764 -0.14400
C 	C 	0.03990 0.59367 0.29423 0.12600
N 	N 	0.04207 0.61657 0.25666 -0.14800
Cd	Cd	0.79484 0.97584 0.67805 1.24100
Cd	Cd	0.84500 0.98652 0.81363 1.10500
O 	O 	0.74140 0.96812 0.69127 -0.32600
O 	O 	0.75925 0.97276 0.59573 -0.35400
C 	C 	0.73629 0.96869 0.62901 0.29100
O 	O 	0.83637 0.98917 0.63510 -0.39100
O 	O 	0.86573 0.97467 0.71980 -0.58800
C 	C 	0.86186 0.99007 0.66885 0.31300
C 	C 	0.79775 0.03097 0.74687 0.30200
O 	O 	0.81300 0.94819 0.78147 -0.46200
O 	O 	0.78382 0.03258 0.69031 -0.30000
O 	O 	0.80377 0.00502 0.76370 -0.55900
C 	C 	0.81826 0.92569 0.74272 0.27800
O 	O 	0.81106 0.92871 0.68155 -0.36000
Cd	Cd	0.83140 0.99680 0.40339 1.24100
Cd	Cd	0.88762 0.00621 0.29516 1.10400
O 	O 	0.78182 0.97876 0.36321 -0.32500
O 	O 	0.79394 0.98633 0.46721 -0.35600
C 	C 	0.77402 0.97788 0.42250 0.29800
O 	O 	0.87170 0.00416 0.46885 -0.39000
O 	O 	0.89593 0.02787 0.39441 -0.58800
C 	C 	0.89651 0.01346 0.44710 0.31300
C 	C 	0.86147 0.94741 0.35181 0.30200
O 	O 	0.84105 0.02712 0.30187 -0.45900
O 	O 	0.84712 0.94106 0.40212 -0.30000
O 	O 	0.85643 0.97286 0.33097 -0.55700
C 	C 	0.83409 0.05038 0.33647 0.28200
O 	O 	0.82541 0.04588 0.39413 -0.36000
C 	C 	0.53438 0.90251 0.67604 0.13100
N 	N 	0.53650 0.89166 0.73552 -0.14600
C 	C 	0.51413 0.89545 0.77602 0.12700
N 	N 	0.48963 0.91022 0.75709 -0.14500
C 	C 	0.48710 0.92066 0.69725 0.12600
N 	N 	0.50934 0.91647 0.65629 -0.15100
C 	C 	0.56312 0.90297 0.33469 0.13300
N 	N 	0.55548 0.89172 0.27412 -0.14600
C 	C 	0.52662 0.89017 0.25257 0.12900
N 	N 	0.50531 0.89937 0.29237 -0.14500
C 	C 	0.51277 0.91072 0.35301 0.12800
N 	N 	0.54175 0.91279 0.37392 -0.14600
Cd	Cd	0.91758 0.10183 0.17952 1.24100
Cd	Cd	0.92028 0.05091 0.29942 1.10200
O 	O 	0.91212 0.15358 0.21188 -0.32700
O 	O 	0.91932 0.13870 0.11110 -0.35800
C 	C 	0.91507 0.16028 0.15257 0.30000
O 	O 	0.93093 0.06114 0.12613 -0.38900
O 	O 	0.91075 0.03263 0.19786 -0.57500
C 	C 	0.92924 0.03603 0.15231 0.31500
C 	C 	0.97093 0.09564 0.25662 0.30300
O 	O 	0.88400 0.08428 0.27086 -0.45900
O 	O 	0.97567 0.10974 0.20544 -0.29800
O 	O 	0.94342 0.09067 0.26648 -0.56100
C 	C 	0.86235 0.08076 0.22656 0.27900
O 	O 	0.86847 0.08822 0.16895 -0.35300
Cd	Cd	0.87569 0.11480 0.95252 1.23700
Cd	Cd	0.89347 0.06194 0.83164 1.10400
O 	O 	0.85880 0.16334 0.92353 -0.32100
O 	O 	0.86032 0.15027 0.02375 -0.33700
C 	C 	0.85461 0.17047 0.98401 0.25600
O 	O 	0.88076 0.07486 0.00652 -0.38000
O 	O 	0.91005 0.05304 0.93259 -0.58700
C 	C 	0.89222 0.05126 0.98002 0.30000
C 	C 	0.82909 0.08464 0.87896 0.30100
O 	O 	0.91287 0.10811 0.85814 -0.46200
O 	O 	0.81928 0.09785 0.93093 -0.30500
O 	O 	0.85613 0.09065 0.86695 -0.56100
C 	C 	0.93439 0.11547 0.90070 0.27700
O 	O 	0.92617 0.12228 0.95907 -0.35900
C 	C 	0.90672 0.37681 0.92810 0.13000
N 	N 	0.90320 0.38078 0.86385 -0.14600
C 	C 	0.90566 0.40761 0.84186 0.12700
N 	N 	0.91156 0.43058 0.88433 -0.14600
C 	C 	0.91653 0.42659 0.94845 0.12900
N 	N 	0.91391 0.39964 0.97043 -0.14800
C 	C 	0.89811 0.37337 0.26070 0.13200
N 	N 	0.89311 0.37830 0.32437 -0.14600
C 	C 	0.90566 0.40147 0.35863 0.12900
N 	N 	0.92209 0.42050 0.32843 -0.14500
C 	C 	0.92643 0.41618 0.26432 0.12800
N 	N 	0.91456 0.39254 0.23044 -0.14500
Cd	Cd	0.00034 0.04103 0.73344 1.24100
Cd	Cd	0.94291 0.03393 0.83972 1.10800
O 	O 	0.05200 0.04842 0.77680 -0.32800
O 	O 	0.04065 0.04156 0.67234 -0.35600
C 	C 	0.06108 0.04637 0.71831 0.29900
O 	O 	0.96171 0.02698 0.66763 -0.38900
O 	O 	0.92829 0.04406 0.73844 -0.58000
C 	C 	0.93469 0.02723 0.68797 0.31100
C 	C 	0.99287 0.98753 0.79139 0.30300
O 	O 	0.97660 0.07126 0.83011 -0.46000
O 	O 	0.00984 0.98441 0.74257 -0.30000
O 	O 	0.98617 0.01395 0.80872 -0.55900
C 	C 	0.97376 0.09284 0.79240 0.28200
O 	O 	0.98471 0.08847 0.73562 -0.36100
Cd	Cd	0.04569 0.02334 0.46498 1.24100
Cd	Cd	0.99829 0.00591 0.32730 1.10800
O 	O 	0.09809 0.03657 0.45366 -0.32500
O 	O 	0.07803 0.03876 0.54803 -0.35400
C 	C 	0.10147 0.04225 0.51587 0.29200
O 	O 	0.00117 0.02143 0.50519 -0.39000
O 	O 	0.98231 0.99188 0.42116 -0.58700
C 	C 	0.97827 0.01024 0.47057 0.31200
C 	C 	0.02169 0.06876 0.39196 0.30300
O 	O 	0.04264 0.98538 0.36375 -0.46000
O 	O 	0.03279 0.07884 0.44838 -0.29900
O 	O 	0.02727 0.04181 0.37710 -0.55500
C 	C 	0.04616 0.96485 0.40411 0.28000
O 	O 	0.05022 0.97373 0.46500 -0.36000
C 	C 	0.27980 0.06102 0.83721 0.13200
N 	N 	0.28475 0.06645 0.90199 -0.14600
C 	C 	0.30636 0.05205 0.93465 0.11700
N 	N 	0.32343 0.03272 0.90221 -0.14500
C 	C 	0.31974 0.02843 0.83686 0.12700
N 	N 	0.29841 0.04330 0.80420 -0.14500
C 	C 	0.31649 0.05671 0.51058 0.13300
N 	N 	0.33918 0.04182 0.53882 -0.14500
C 	C 	0.36368 0.03553 0.50554 0.12600
N 	N 	0.36517 0.04379 0.44403 -0.14500
C 	C 	0.34172 0.05680 0.41446 0.12900
N 	N 	0.31787 0.06410 0.44849 -0.14600
C 	C 	0.31200 0.05797 0.00489 -0.04100
C 	C 	0.29011 0.05266 0.04911 0.10100
C 	C 	0.29687 0.05765 0.11575 -0.08500
C 	C 	0.32551 0.06584 0.13908 -0.00400
C 	C 	0.34724 0.07157 0.09499 0.06600
C 	C 	0.34016 0.06779 0.02823 -0.03800
N 	N 	0.26311 0.04162 0.02829 -0.19100
H 	H 	0.28024 0.05348 0.14979 0.05700
C 	C 	0.33336 0.06464 0.20914 -0.00500
N 	N 	0.37487 0.08067 0.11634 -0.19300
H 	H 	0.35678 0.07211 0.99428 0.03500
C 	C 	0.34037 0.03780 0.23366 -0.08600
C 	C 	0.34249 0.03454 0.30057 0.10100
C 	C 	0.34032 0.05929 0.34379 -0.05000
C 	C 	0.33497 0.08648 0.31909 -0.05200
C 	C 	0.33108 0.08937 0.25209 0.07000
H 	H 	0.34226 0.01896 0.20046 0.05500
N 	N 	0.34508 0.00751 0.32276 -0.20000
H 	H 	0.33335 0.10539 0.35218 0.04900
N 	N 	0.32523 0.11587 0.22943 -0.19400
H 	H 	0.34892 0.98976 0.29083 0.08400
H 	H 	0.34120 0.00348 0.37053 0.09300
H 	H 	0.32323 0.13394 0.26156 0.08500
H 	H 	0.32300 0.11891 0.17991 0.09000
H 	H 	0.39092 0.08439 0.08341 0.08600
H 	H 	0.38057 0.08460 0.16557 0.08900
H 	H 	0.25845 0.03442 0.98016 0.08500
H 	H 	0.24679 0.03888 0.06117 0.08800
C 	C 	0.24537 0.04051 0.58598 0.01900
C 	C 	0.23242 0.01288 0.57974 -0.04600
C 	C 	0.20194 0.00979 0.56614 -0.03800
C 	C 	0.18408 0.03430 0.55948 0.00900
C 	C 	0.19656 0.06196 0.57306 -0.03400
C 	C 	0.22700 0.06502 0.58764 -0.04300
C 	C 	0.15412 0.03088 0.52756 0.00600
C 	C 	0.13099 0.04612 0.54882 -0.13700
C 	C 	0.27790 0.04341 0.58215 -0.02700
C 	C 	0.28924 0.06285 0.54451 -0.07600
H 	H 	0.24619 0.99379 0.58121 0.03700
H 	H 	0.19243 0.98833 0.55744 0.03900
H 	H 	0.18296 0.08110 0.56966 0.04200
H 	H 	0.23640 0.08643 0.59796 0.04200
H 	H 	0.15072 0.01482 0.48734 0.04100
H 	H 	0.13359 0.06044 0.59219 0.07600
H 	H 	0.29189 0.02609 0.59931 0.04200
H 	H 	0.27547 0.08046 0.52808 0.05600
C 	C 	0.20628 0.05713 0.74150 0.02200
C 	C 	0.19235 0.08414 0.73845 -0.04500
C 	C 	0.16146 0.08581 0.73503 -0.03800
C 	C 	0.14428 0.06051 0.73329 0.00600
C 	C 	0.15828 0.03341 0.73143 -0.03500
C 	C 	0.18914 0.03177 0.73488 -0.04400
C 	C 	0.11210 0.06267 0.74156 0.00700
C 	C 	0.09270 0.04559 0.70576 -0.13500
C 	C 	0.23860 0.05514 0.75529 -0.02900
C 	C 	0.25197 0.07085 0.80536 -0.07700
H 	H 	0.20540 0.10383 0.74018 0.04100
H 	H 	0.15089 0.10679 0.73531 0.03900
H 	H 	0.14530 0.01369 0.73002 0.04300
H 	H 	0.19972 0.01080 0.73516 0.04000
H 	H 	0.10412 0.07885 0.77655 0.03900
H 	H 	0.10027 0.03081 0.66758 0.08700
H 	H 	0.25039 0.03743 0.73160 0.04300
H 	H 	0.23994 0.08824 0.82964 0.05400
C 	C 	0.90397 0.40439 0.42948 -0.05100
C 	C 	0.91603 0.38306 0.46944 0.10100
C 	C 	0.91266 0.38588 0.53636 -0.08600
C 	C 	0.89942 0.41052 0.56457 -0.00500
C 	C 	0.88828 0.43237 0.52496 0.06800
C 	C 	0.89041 0.42891 0.45759 -0.05200
N 	N 	0.93182 0.36048 0.44431 -0.19900
H 	H 	0.92141 0.36935 0.56698 0.05500
C 	C 	0.89901 0.41385 0.63601 -0.00600
N 	N 	0.87542 0.45656 0.55113 -0.19400
H 	H 	0.88148 0.44535 0.42695 0.04800
C 	C 	0.92464 0.42382 0.67155 -0.08600
C 	C 	0.92746 0.42185 0.73892 0.10000
C 	C 	0.90325 0.41149 0.77170 -0.05100
C 	C 	0.87696 0.40317 0.73644 -0.05300
C 	C 	0.87464 0.40400 0.66876 0.07000
H 	H 	0.94314 0.43157 0.64623 0.05300
N 	N 	0.95379 0.42877 0.77119 -0.19900
H 	H 	0.85838 0.39552 0.76168 0.04800
N 	N 	0.84907 0.39527 0.63562 -0.19400
H 	H 	0.97095 0.43768 0.74699 0.08200
H 	H 	0.95807 0.42414 0.81943 0.09100
H 	H 	0.83136 0.38763 0.66017 0.08400
H 	H 	0.84631 0.39635 0.58551 0.08900
H 	H 	0.86731 0.47257 0.52148 0.08300
H 	H 	0.87327 0.45972 0.60092 0.08700
H 	H 	0.93805 0.35963 0.39653 0.09300
H 	H 	0.93943 0.34418 0.47373 0.08500
C 	C 	0.97190 0.12276 0.82071 -0.09700
C 	C 	0.96156 0.12892 0.87953 -0.09200
H 	H 	0.98457 0.13930 0.79932 0.06800
H 	H 	0.96987 0.14823 0.90700 0.06600
C 	C 	0.85834 0.25201 0.98573 0.02900
C 	C 	0.88854 0.25900 0.99435 -0.06900
C 	C 	0.89761 0.28793 0.00087 -0.00100
C 	C 	0.87653 0.31015 0.99838 -0.00300
C 	C 	0.84630 0.30310 0.99430 -0.03400
C 	C 	0.83724 0.27412 0.98715 -0.05400
C 	C 	0.88590 0.34058 0.99388 -0.03900
C 	C 	0.90534 0.34738 0.95050 -0.07500
C 	C 	0.84921 0.22206 0.96631 -0.03200
C 	C 	0.85298 0.20102 0.00775 -0.08900
H 	H 	0.90499 0.24202 0.99421 0.04700
H 	H 	0.92100 0.29308 0.00661 0.03700
H 	H 	0.82984 0.32007 0.99352 0.03500
H 	H 	0.81387 0.26891 0.98085 0.04200
H 	H 	0.87363 0.35766 0.01870 0.05600
H 	H 	0.91643 0.33024 0.92321 0.05200
H 	H 	0.84211 0.21674 0.91606 0.05200
H 	H 	0.85748 0.20661 0.05891 0.07000
C 	C 	0.99497 0.08094 0.29172 -0.16400
C 	C 	0.99839 0.08435 0.35635 -0.14900
H 	H 	0.01057 0.06796 0.26456 0.03400
H 	H 	0.98423 0.09919 0.38294 0.05800
C 	C 	0.90159 0.30193 0.16288 0.02300
C 	C 	0.92774 0.28596 0.15754 -0.04500
C 	C 	0.92678 0.25572 0.15454 -0.03500
C 	C 	0.89959 0.24123 0.15653 0.00800
C 	C 	0.87327 0.25719 0.15674 -0.03500
C 	C 	0.87421 0.28739 0.15876 -0.04200
C 	C 	0.89892 0.21030 0.16990 0.00500
C 	C 	0.91313 0.19037 0.13357 -0.13400
C 	C 	0.90332 0.33352 0.17830 -0.02900
C 	C 	0.88839 0.34571 0.22720 -0.07600
H 	H 	0.94893 0.29696 0.15884 0.04200
H 	H 	0.94725 0.24364 0.15411 0.04400
H 	H 	0.85214 0.24619 0.15704 0.04100
H 	H 	0.85375 0.29949 0.15900 0.04400
H 	H 	0.88638 0.20371 0.20983 0.04400
H 	H 	0.92331 0.19634 0.08996 0.08000
H 	H 	0.92029 0.34585 0.15679 0.04700
H 	H 	0.87181 0.33312 0.24927 0.05600
C 	C 	0.48985 0.92463 0.39200 -0.05200
C 	C 	0.48738 0.91888 0.45783 0.10300
C 	C 	0.46781 0.93535 0.49518 -0.09000
C 	C 	0.44886 0.95549 0.46663 -0.00300
C 	C 	0.44961 0.95944 0.39947 0.07100
C 	C 	0.47064 0.94451 0.36327 -0.05200
N 	N 	0.50256 0.89679 0.48449 -0.20100
H 	H 	0.46663 0.93177 0.54598 0.06000
C 	C 	0.42947 0.97355 0.50773 -0.00500
N 	N 	0.43021 0.97743 0.36949 -0.19400
H 	H 	0.47214 0.94850 0.31252 0.04900
C 	C 	0.43769 0.00237 0.52430 -0.08500
C 	C 	0.41594 0.02329 0.53645 0.09900
C 	C 	0.38580 0.01513 0.53040 -0.05200
C 	C 	0.37840 0.98565 0.52779 -0.05400
C 	C 	0.40018 0.96461 0.51677 0.07100
H 	H 	0.46064 0.00889 0.52264 0.05400
N 	N 	0.42395 0.05126 0.55156 -0.19900
H 	H 	0.35536 0.97919 0.52798 0.04400
N 	N 	0.39276 0.93609 0.51320 -0.19400
H 	H 	0.44622 0.05745 0.55386 0.08300
H 	H 	0.40817 0.06686 0.56339 0.09100
H 	H 	0.37091 0.92967 0.51836 0.08200
H 	H 	0.40880 0.92006 0.50813 0.08800
H 	H 	0.43149 0.98076 0.32029 0.08400
H 	H 	0.41318 0.98761 0.39392 0.09200
H 	H 	0.51476 0.88221 0.45643 0.09300
H 	H 	0.50073 0.89285 0.53319 0.09200
C 	C 	0.45929 0.93448 0.67568 -0.05700
C 	C 	0.45774 0.96480 0.67060 0.09900
C 	C 	0.43054 0.97885 0.67795 -0.08400
C 	C 	0.40550 0.96314 0.69254 -0.00400
C 	C 	0.40600 0.93255 0.68529 0.07000
C 	C 	0.43298 0.91848 0.67581 -0.05300
N 	N 	0.48219 0.98052 0.65988 -0.20000
H 	H 	0.42955 0.00226 0.67858 0.05600
C 	C 	0.38284 0.97811 0.73102 -0.00500
N 	N 	0.38103 0.91662 0.69003 -0.19400
H 	H 	0.43392 0.89505 0.67464 0.04400
C 	C 	0.35488 0.98372 0.70191 -0.08600
C 	C 	0.33262 0.99622 0.73891 0.10000
C 	C 	0.34039 0.00914 0.80139 -0.05000
C 	C 	0.36881 0.00444 0.82962 -0.05400
C 	C 	0.38939 0.98751 0.79655 0.07100
H 	H 	0.34965 0.97604 0.65216 0.05200
N 	N 	0.30381 0.99292 0.71741 -0.19800
H 	H 	0.37484 0.01361 0.87790 0.04900
N 	N 	0.41520 0.98008 0.82814 -0.19400
H 	H 	0.29841 0.98498 0.66996 0.08000
H 	H 	0.28682 0.99471 0.74943 0.09000
H 	H 	0.42042 0.98829 0.87547 0.08100
H 	H 	0.42957 0.96500 0.80758 0.09100
H 	H 	0.38186 0.89402 0.68672 0.08100
H 	H 	0.36050 0.92639 0.69525 0.08500
H 	H 	0.50226 0.97057 0.65027 0.09200
H 	H 	0.48097 0.00301 0.65831 0.08300
C 	C 	0.51770 0.88620 0.84271 -0.04900
C 	C 	0.49651 0.86800 0.86775 0.09600
C 	C 	0.49701 0.86466 0.93467 -0.08100
C 	C 	0.51868 0.87861 0.97639 -0.02500
C 	C 	0.54160 0.89439 0.95050 0.07500
C 	C 	0.54077 0.89816 0.88378 -0.05700
N 	N 	0.47598 0.85341 0.82781 -0.19900
H 	H 	0.48007 0.85177 0.95450 0.04800
C 	C 	0.51556 0.87895 0.04707 0.01300
N 	N 	0.56419 0.90625 0.98944 -0.20300
H 	H 	0.55752 0.91136 0.86414 0.05000
C 	C 	0.52843 0.85675 0.08206 -0.09300
C 	C 	0.52983 0.85869 0.15003 0.10500
C 	C 	0.51898 0.88376 0.18316 -0.05300
C 	C 	0.50386 0.90471 0.14812 -0.04900
C 	C 	0.50187 0.90247 0.08026 0.06600
H 	H 	0.53791 0.83821 0.05638 0.05900
N 	N 	0.54104 0.83630 0.18308 -0.20000
H 	H 	0.49471 0.92347 0.17366 0.04800
N 	N 	0.48718 0.92314 0.04732 -0.18500
H 	H 	0.55007 0.81836 0.15839 0.08600
H 	H 	0.53968 0.83588 0.23314 0.09200
H 	H 	0.47782 0.94082 0.07227 0.08500
H 	H 	0.48429 0.92156 0.99693 0.07900
H 	H 	0.58057 0.91852 0.97011 0.08300
H 	H 	0.56614 0.90287 0.03883 0.10000
H 	H 	0.47672 0.85334 0.77755 0.08900
H 	H 	0.45971 0.84090 0.84690 0.08200
C 	C 	0.82323 0.07622 0.30422 -0.09400
C 	C 	0.83132 0.08244 0.24512 -0.09300
H 	H 	0.80393 0.08701 0.32295 0.07000
H 	H 	0.81592 0.09447 0.21498 0.07100
C 	C 	0.92501 0.00371 0.47522 -0.14300
C 	C 	0.94847 0.02156 0.48069 -0.14100
H 	H 	0.92804 0.98077 0.48187 0.04600
H 	H 	0.94517 0.04483 0.48220 0.04500
C 	C 	0.63622 0.93123 0.41535 0.02300
C 	C 	0.64581 0.96012 0.42053 -0.04400
C 	C 	0.67597 0.96665 0.42014 -0.03700
C 	C 	0.69685 0.94424 0.41614 0.01000
C 	C 	0.68737 0.91541 0.41622 -0.03600
C 	C 	0.65721 0.90890 0.41626 -0.04400
C 	C 	0.72790 0.95055 0.40294 0.00800
C 	C 	0.74349 0.97133 0.43764 -0.13200
C 	C 	0.60428 0.92453 0.40439 -0.02800
C 	C 	0.59471 0.90552 0.35606 -0.07700
H 	H 	0.62982 0.97752 0.42175 0.04200
H 	H 	0.68299 0.98903 0.42027 0.04200
H 	H 	0.70331 0.89799 0.41435 0.04200
H 	H 	0.65013 0.88652 0.41562 0.04100
H 	H 	0.73848 0.93729 0.36583 0.04300
H 	H 	0.73377 0.98334 0.47763 0.08500
H 	H 	0.58850 0.93757 0.43087 0.04600
H 	H 	0.61070 0.89364 0.32769 0.05600
C 	C 	0.88428 0.01163 0.65592 -0.14200
C 	C 	0.91314 0.00520 0.66177 -0.14000
H 	H 	0.87748 0.03399 0.65197 0.04500
H 	H 	0.92014 0.98276 0.65734 0.04600
C 	C 	0.81229 0.05643 0.78050 -0.15800
C 	C 	0.81308 0.06004 0.84523 -0.15900
H 	H 	0.82192 0.07269 0.75219 0.04800
H 	H 	0.80130 0.04510 0.87325 0.04500
C 	C 	0.65876 0.93777 0.59172 0.00900
C 	C 	0.64754 0.90996 0.57452 -0.03700
C 	C 	0.61698 0.90518 0.56819 -0.04400
C 	C 	0.59742 0.92796 0.58231 0.02000
C 	C 	0.60855 0.95626 0.59226 -0.04600
C 	C 	0.63911 0.96116 0.59737 -0.03600
C 	C 	0.56635 0.92195 0.59671 -0.02700
C 	C 	0.56015 0.90071 0.63555 -0.07900
C 	C 	0.69009 0.94128 0.61517 0.00700
C 	C 	0.70665 0.96330 0.59794 -0.13500
H 	H 	0.66249 0.89189 0.56812 0.03900
H 	H 	0.60857 0.88354 0.55567 0.04100
H 	H 	0.59362 0.97418 0.60078 0.04000
H 	H 	0.64746 0.98283 0.60986 0.04200
H 	H 	0.54963 0.93803 0.58564 0.04100
H 	H 	0.57689 0.88465 0.64648 0.05500
H 	H 	0.69967 0.92572 0.64753 0.03800
H 	H 	0.69819 0.97744 0.56132 0.07300
C 	C 	0.02308 0.56773 0.26949 -0.05200
C 	C 	0.03488 0.54736 0.22424 0.09700
C 	C 	0.01952 0.52136 0.20751 -0.08700
C 	C 	0.99312 0.51507 0.23629 -0.00700
C 	C 	0.98173 0.53524 0.28266 0.07100
C 	C 	0.99614 0.56190 0.29638 -0.05400
N 	N 	0.06096 0.55244 0.19718 -0.20000
H 	H 	0.02855 0.50565 0.17321 0.05200
C 	C 	0.97907 0.48627 0.22190 -0.00400
N 	N 	0.95773 0.52874 0.31594 -0.19400
H 	H 	0.98719 0.57757 0.33099 0.04800
C 	C 	0.99292 0.46193 0.24682 -0.08700
C 	C 	0.97676 0.43641 0.25223 0.10200
C 	C 	0.94627 0.43564 0.23356 -0.05100
C 	C 	0.93395 0.45800 0.19829 -0.05300
C 	C 	0.95018 0.48348 0.19208 0.07200
H 	H 	0.01573 0.46343 0.26572 0.05400
N 	N 	0.99036 0.41298 0.27682 -0.20000
H 	H 	0.91101 0.45657 0.18023 0.05100
N 	N 	0.93748 0.50561 0.16053 -0.19300
H 	H 	0.01266 0.41400 0.29289 0.08500
H 	H 	0.97918 0.39328 0.27802 0.09000
H 	H 	0.91584 0.50368 0.14030 0.08800
H 	H 	0.94915 0.52461 0.15447 0.08800
H 	H 	0.94868 0.54431 0.34759 0.08400
H 	H 	0.94878 0.50790 0.31360 0.09100
H 	H 	0.07318 0.57132 0.20910 0.09300
H 	H 	0.06926 0.53739 0.16328 0.08500
C 	C 	0.92984 0.45029 0.99115 -0.07300
C 	C 	0.91834 0.47855 0.98834 0.10800
C 	C 	0.93758 0.50236 0.99884 -0.10700
C 	C 	0.96773 0.49811 0.01449 0.01000
C 	C 	0.97756 0.47041 0.03132 0.06400
C 	C 	0.95834 0.44656 0.01964 -0.03100
N 	N 	0.88907 0.48281 0.97403 -0.20100
H 	H 	0.92951 0.52396 0.99080 0.05400
C 	C 	0.98912 0.52075 0.00008 0.01000
N 	N 	0.00562 0.46643 0.05593 -0.19200
H 	H 	0.96652 0.42492 0.02680 0.04900
C 	C 	0.99640 0.54300 0.04712 -0.09800
C 	C 	0.01362 0.56670 0.03216 0.12300
C 	C 	0.02115 0.56951 0.96741 -0.07200
C 	C 	0.01597 0.54611 0.92180 -0.04500
C 	C 	0.00003 0.52173 0.93747 0.05200
H 	H 	0.98870 0.54190 0.09539 0.05600
N 	N 	0.02344 0.58623 0.08015 -0.20200
H 	H 	0.02289 0.54750 0.87285 0.04700
N 	N 	0.99461 0.49974 0.89172 -0.19200
H 	H 	0.01495 0.58618 0.12598 0.09300
H 	H 	0.04080 0.60042 0.07343 0.09900
H 	H 	0.00231 0.50095 0.84535 0.08100
H 	H 	0.98306 0.48115 0.90165 0.08600
H 	H 	0.01280 0.44587 0.06785 0.08500
H 	H 	0.02035 0.48377 0.06457 0.08600
H 	H 	0.87416 0.46546 0.96965 0.08800
H 	H 	0.88079 0.50371 0.96963 0.08200
C 	C 	0.06650 0.62608 0.45402 -0.05000
C 	C 	0.04876 0.64549 0.49054 0.10100
C 	C 	0.05232 0.64706 0.55834 -0.08600
C 	C 	0.07139 0.62810 0.59033 -0.00600
C 	C 	0.09000 0.60962 0.55407 0.06900
C 	C 	0.08744 0.60889 0.48612 -0.05300
N 	N 	0.02740 0.66164 0.46120 -0.20000
H 	H 	0.03851 0.66157 0.58644 0.05500
C 	C 	0.06793 0.62438 0.66000 -0.00500
N 	N 	0.11025 0.59255 0.58411 -0.19400
H 	H 	0.10128 0.59437 0.45815 0.04800
C 	C 	0.04585 0.60557 0.67745 -0.08600
C 	C 	0.03727 0.60590 0.74145 0.10000
C 	C 	0.05310 0.62346 0.79014 -0.05100
C 	C 	0.07626 0.64119 0.77322 -0.05300
C 	C 	0.08373 0.64199 0.70840 0.06800
H 	H 	0.03388 0.59206 0.64018 0.05400
N 	N 	0.01297 0.59053 0.75511 -0.20000
H 	H 	0.08836 0.65459 0.81048 0.04700
N 	N 	0.10613 0.65951 0.69312 -0.19400
H 	H 	0.00267 0.57623 0.71987 0.08300
H 	H 	0.00286 0.59399 0.79890 0.09200
H 	H 	0.11734 0.67283 0.72897 0.08300
H 	H 	0.11303 0.65969 0.64592 0.08700
H 	H 	0.12340 0.57842 0.55702 0.08300
H 	H 	0.11367 0.59365 0.63442 0.08700
H 	H 	0.02150 0.65854 0.41193 0.09400
H 	H 	0.01537 0.67673 0.48848 0.08500
C 	C 	0.89909 0.99983 0.99541 -0.17100
C 	C 	0.88109 0.02279 0.99540 -0.13500
H 	H 	0.92292 0.00302 0.00085 0.06100
H 	H 	0.85735 0.01970 0.99735 0.04000
C 	C 	0.82480 0.89143 0.82951 -0.09600
C 	C 	0.81794 0.89636 0.76715 -0.09400
H 	H 	0.81461 0.87297 0.84962 0.06700
H 	H 	0.80624 0.87950 0.73719 0.06700
C 	C 	0.97680 0.96291 0.81415 -0.15700
C 	C 	0.97235 0.96125 0.87717 -0.15900
H 	H 	0.96918 0.94559 0.77946 0.05000
H 	H 	0.98213 0.97727 0.91254 0.04500
C 	C 	0.99350 0.72587 0.96737 0.01300
C 	C 	0.00649 0.75302 0.98396 -0.04500
C 	C 	0.98914 0.77800 0.98453 -0.04000
C 	C 	0.95861 0.77602 0.96844 0.00400
C 	C 	0.94537 0.74876 0.95567 -0.03900
C 	C 	0.96268 0.72380 0.95494 -0.04500
C 	C 	0.94173 0.80215 0.95265 0.01200
C 	C 	0.94115 0.82534 0.99459 -0.15200
C 	C 	0.01261 0.70064 0.95306 -0.02100
C 	C 	0.00518 0.67402 0.96929 -0.09800
H 	H 	0.03018 0.75489 0.99399 0.03900
H 	H 	0.99966 0.79897 0.99406 0.04200
H 	H 	0.92185 0.74701 0.94310 0.03800
H 	H 	0.95235 0.70306 0.94121 0.04000
H 	H 	0.92972 0.80245 0.90577 0.04100
H 	H 	0.95074 0.82423 0.04354 0.10100
H 	H 	0.03258 0.70380 0.92747 0.04100
H 	H 	0.98711 0.67126 0.00084 0.06800
C 	C 	0.94564 0.98593 0.14131 -0.14800
C 	C 	0.95222 0.01418 0.14127 -0.14800
H 	H 	0.92288 0.97868 0.13162 0.05300
H 	H 	0.97522 0.02113 0.14323 0.04400
C 	C 	0.89231 0.92744 0.26727 -0.15900
C 	C 	0.88641 0.92982 0.33004 -0.15300
H 	H 	0.87736 0.93668 0.23121 0.04400
H 	H 	0.89991 0.91848 0.36534 0.05300
C 	C 	0.05884 0.93682 0.38224 -0.09500
C 	C 	0.05558 0.92617 0.32046 -0.09400
H 	H 	0.07594 0.92764 0.41360 0.06800
H 	H 	0.07274 0.91206 0.30204 0.06900
C 	C 	0.99807 0.76293 0.20182 0.00900
C 	C 	0.01698 0.75562 0.25404 -0.03600
C 	C 	0.02810 0.72761 0.25681 -0.04400
C 	C 	0.02064 0.70653 0.20682 0.02000
C 	C 	0.00252 0.71417 0.15332 -0.04200
C 	C 	0.99121 0.74226 0.15089 -0.03700
C 	C 	0.02754 0.67566 0.21550 -0.02800
C 	C 	0.05329 0.66783 0.24487 -0.07700
C 	C 	0.98262 0.79091 0.20520 0.00600
C 	C 	0.98810 0.81128 0.16397 -0.13700
H 	H 	0.02219 0.77140 0.29377 0.04300
H 	H 	0.04128 0.72192 0.29938 0.04300
H 	H 	0.99631 0.69808 0.11487 0.04400
H 	H 	0.97616 0.74757 0.11091 0.04800
H 	H 	0.01016 0.65961 0.20417 0.04300
H 	H 	0.07136 0.68339 0.25203 0.05600
H 	H 	0.96991 0.79636 0.24720 0.04400
H 	H 	0.00017 0.80583 0.12108 0.07900
