data_crystal

_cell_length_a 35.16651
_cell_length_b 36.18608
_cell_length_c 27.05911
_cell_angle_alpha 89.98499
_cell_angle_beta  89.98631
_cell_angle_gamma 90.18522

_symmetry_space_group_name_	'P 1'
_symmetry_space_group_name_H-M	'P 1'

loop_
_symmetry_equiv_pos_as_xyz
  x,y,z

loop_
_atom_site_label
_atom_site_type_symbol
_atom_site_fract_x
_atom_site_fract_y
_atom_site_fract_z
_atom_site_charge
C 	C 	0.73631 0.94823 0.30693 0.32000
C 	C 	0.71209 0.81912 0.44378 0.31500
C 	C 	0.76943 0.93279 0.43329 0.33000
C 	C 	0.67428 0.83479 0.31437 0.29000
C 	C 	0.83081 0.83225 0.38807 0.32300
C 	C 	0.79232 0.83736 0.25790 0.30500
Ni	Ni	0.70826 0.89003 0.38417 1.13200
Ni	Ni	0.75327 0.81602 0.34991 1.15300
Ni	Ni	0.79397 0.89440 0.34038 1.13700
O 	O 	0.71577 0.94110 0.34750 -0.30100
O 	O 	0.76498 0.92685 0.29286 -0.30800
O 	O 	0.80963 0.80922 0.36221 -0.26700
O 	O 	0.68974 0.84567 0.42790 -0.29800
O 	O 	0.74551 0.81387 0.42379 -0.28400
O 	O 	0.81329 0.86052 0.28518 -0.30300
O 	O 	0.74423 0.90664 0.44053 -0.31800
O 	O 	0.78614 0.93630 0.38999 -0.32100
O 	O 	0.76503 0.81660 0.27755 -0.28300
O 	O 	0.67119 0.86896 0.33168 -0.26400
O 	O 	0.69606 0.80987 0.33690 -0.27300
O 	O 	0.82050 0.86668 0.39399 -0.30700
O 	O 	0.74770 0.86815 0.34789 -0.72900
H 	H 	0.73764 0.87084 0.31420 0.20300
C 	C 	0.76041 0.57038 0.81942 0.31100
C 	C 	0.75227 0.69943 0.95446 0.32400
C 	C 	0.69889 0.58172 0.92766 0.33500
C 	C 	0.80949 0.68545 0.83525 0.30200
C 	C 	0.64670 0.68103 0.87159 0.32000
C 	C 	0.70515 0.67050 0.74888 0.30300
Ni	Ni	0.76723 0.62899 0.89980 1.14000
Ni	Ni	0.72647 0.69977 0.84880 1.14100
Ni	Ni	0.69114 0.61921 0.83198 1.14200
O 	O 	0.78420 0.58966 0.84790 -0.26200
O 	O 	0.72297 0.57220 0.82573 -0.30800
O 	O 	0.67622 0.70134 0.88511 -0.28400
O 	O 	0.74858 0.66331 0.95663 -0.26700
O 	O 	0.75377 0.71631 0.91148 -0.31700
O 	O 	0.70021 0.63521 0.76142 -0.26600
O 	O 	0.73604 0.58546 0.93003 -0.28300
O 	O 	0.67812 0.60503 0.90225 -0.29600
O 	O 	0.70060 0.69741 0.78175 -0.31300
O 	O 	0.80850 0.66822 0.87873 -0.28800
O 	O 	0.77900 0.70293 0.81763 -0.28000
O 	O 	0.64977 0.65727 0.83518 -0.33100
O 	O 	0.73373 0.64764 0.85221 -0.72300
H 	H 	0.74947 0.64394 0.82254 0.19800
C 	C 	0.16256 0.66939 0.65737 0.30200
C 	C 	0.08114 0.77618 0.52939 0.32500
C 	C 	0.19241 0.71563 0.53320 0.30400
C 	C 	0.05077 0.73020 0.64730 0.29800
C 	C 	0.18047 0.82119 0.59547 0.31800
C 	C 	0.15051 0.77950 0.72350 0.30300
Ni	Ni	0.11491 0.70892 0.57891 1.14000
Ni	Ni	0.10881 0.79007 0.63040 1.14000
Ni	Ni	0.18753 0.74619 0.63455 1.14300
O 	O 	0.14888 0.66801 0.61155 -0.28700
O 	O 	0.18180 0.69870 0.67376 -0.29500
O 	O 	0.15327 0.82486 0.62817 -0.29400
O 	O 	0.07655 0.74083 0.53892 -0.27200
O 	O 	0.10416 0.79652 0.55627 -0.34700
O 	O 	0.18164 0.77837 0.69560 -0.28900
O 	O 	0.15573 0.71838 0.52453 -0.29900
O 	O 	0.20500 0.71293 0.57872 -0.28800
O 	O 	0.11650 0.78631 0.70406 -0.27900
O 	O 	0.06963 0.70188 0.62784 -0.25700
O 	O 	0.05699 0.76463 0.63238 -0.30100
O 	O 	0.19848 0.78966 0.59049 -0.31600
O 	O 	0.13416 0.74416 0.62314 -0.72700
H 	H 	0.12608 0.73259 0.65435 0.17900
C 	C 	0.31288 0.83924 0.15577 0.29200
C 	C 	0.40372 0.73792 0.03274 0.32600
C 	C 	0.28582 0.77901 0.04132 0.30900
C 	C 	0.43472 0.79705 0.13801 0.29700
C 	C 	0.31795 0.68196 0.11721 0.31900
C 	C 	0.34581 0.73582 0.23524 0.28500
Ni	Ni	0.36229 0.80166 0.07879 1.13600
Ni	Ni	0.38486 0.72757 0.13893 1.14000
Ni	Ni	0.29987 0.75838 0.14588 1.15100
O 	O 	0.32242 0.83850 0.10830 -0.30400
O 	O 	0.29961 0.80915 0.17847 -0.27400
O 	O 	0.34754 0.68580 0.14622 -0.29700
O 	O 	0.40455 0.77354 0.04122 -0.26600
O 	O 	0.38861 0.71520 0.06546 -0.34400
O 	O 	0.31330 0.73247 0.21025 -0.27100
O 	O 	0.32227 0.77924 0.03089 -0.29900
O 	O 	0.27447 0.78361 0.08719 -0.27300
O 	O 	0.37952 0.73530 0.21257 -0.29300
O 	O 	0.40721 0.81951 0.12281 -0.31200
O 	O 	0.43222 0.76039 0.13344 -0.29200
O 	O 	0.29471 0.70985 0.10949 -0.26400
O 	O 	0.35161 0.76785 0.12918 -0.72500
H 	H 	0.35915 0.78272 0.15805 0.16000
C 	C 	0.23784 0.05356 0.42405 0.29500
C 	C 	0.26957 0.19539 0.31732 0.32600
C 	C 	0.31211 0.07832 0.33369 0.32300
C 	C 	0.19105 0.17261 0.40967 0.28300
C 	C 	0.35530 0.16576 0.41951 0.31900
C 	C 	0.27811 0.15172 0.52395 0.28400
Ni	Ni	0.24199 0.12125 0.35356 1.13000
Ni	Ni	0.27491 0.18577 0.42477 1.14600
Ni	Ni	0.30436 0.10310 0.43884 1.14800
O 	O 	0.23425 0.06658 0.37815 -0.28800
O 	O 	0.26092 0.06897 0.45723 -0.31400
O 	O 	0.33025 0.18563 0.44368 -0.28500
O 	O 	0.24161 0.17134 0.31552 -0.29500
O 	O 	0.29260 0.19629 0.35517 -0.32000
O 	O 	0.30455 0.12875 0.50625 -0.26400
O 	O 	0.29264 0.10722 0.31922 -0.33900
O 	O 	0.31159 0.06828 0.38043 -0.26900
O 	O 	0.26168 0.17719 0.49579 -0.32900
O 	O 	0.19224 0.14067 0.38555 -0.29800
O 	O 	0.21946 0.19697 0.40671 -0.26200
O 	O 	0.35093 0.12989 0.41508 -0.28900
O 	O 	0.26675 0.13489 0.41219 -0.72600
H 	H 	0.24632 0.12999 0.43624 0.16000
C 	C 	0.27103 0.44080 0.94702 0.29800
C 	C 	0.24517 0.32261 0.79543 0.33100
C 	C 	0.19735 0.43509 0.84902 0.32500
C 	C 	0.32078 0.33073 0.88985 0.30500
C 	C 	0.15550 0.33185 0.90119 0.31800
C 	C 	0.23379 0.33079 0.00764 0.29900
Ni	Ni	0.26782 0.39046 0.85427 1.14500
Ni	Ni	0.23664 0.31367 0.90145 1.13500
Ni	Ni	0.20410 0.39047 0.94152 1.14000
O 	O 	0.27296 0.43851 0.89786 -0.27100
O 	O 	0.24623 0.42061 0.97283 -0.31100
O 	O 	0.18110 0.30888 0.91860 -0.30100
O 	O 	0.27013 0.34960 0.79927 -0.26300
O 	O 	0.22013 0.31755 0.83036 -0.34800
O 	O 	0.20439 0.35245 0.99692 -0.30800
O 	O 	0.21699 0.40981 0.82556 -0.28300
O 	O 	0.19643 0.43544 0.89762 -0.33000
O 	O 	0.24920 0.30900 0.97362 -0.29400
O 	O 	0.31755 0.36673 0.88090 -0.25300
O 	O 	0.29235 0.30733 0.88008 -0.33200
O 	O 	0.15920 0.36765 0.90739 -0.30600
O 	O 	0.24310 0.36559 0.90597 -0.72600
H 	H 	0.26328 0.36635 0.93113 0.19100
C 	C 	0.81778 0.17535 0.59168 0.30500
C 	C 	0.92813 0.27050 0.69430 0.32800
C 	C 	0.81405 0.22390 0.71678 0.32100
C 	C 	0.94001 0.23079 0.56836 0.31000
C 	C 	0.82908 0.33244 0.65073 0.32800
C 	C 	0.82714 0.29189 0.52195 0.30600
Ni	Ni	0.88102 0.21054 0.65005 1.13400
Ni	Ni	0.88925 0.29150 0.60062 1.15100
Ni	Ni	0.80683 0.25717 0.61732 1.13600
O 	O 	0.85482 0.17440 0.60122 -0.28000
O 	O 	0.79525 0.20139 0.61094 -0.31100
O 	O 	0.86477 0.32225 0.65324 -0.27200
O 	O 	0.90207 0.24564 0.70401 -0.29200
O 	O 	0.93277 0.28272 0.64897 -0.30700
O 	O 	0.80633 0.26580 0.54388 -0.29300
O 	O 	0.83553 0.19832 0.69681 -0.31800
O 	O 	0.80573 0.25409 0.69221 -0.31800
O 	O 	0.85417 0.31068 0.54608 -0.26700
O 	O 	0.93278 0.21315 0.61078 -0.29400
O 	O 	0.91997 0.25992 0.55367 -0.27700
O 	O 	0.80410 0.31281 0.62553 -0.33000
O 	O 	0.85982 0.24851 0.61234 -0.73100
H 	H 	0.86078 0.23718 0.57924 0.20400
C 	C 	0.65499 0.34101 0.08529 0.29500
C 	C 	0.57832 0.23371 0.21164 0.33500
C 	C 	0.67999 0.30614 0.21790 0.31900
C 	C 	0.55339 0.26389 0.08247 0.30900
C 	C 	0.68821 0.19502 0.16515 0.32000
C 	C 	0.67267 0.22530 0.03123 0.30700
Ni	Ni	0.60789 0.29957 0.15899 1.13900
Ni	Ni	0.61701 0.21625 0.11671 1.14600
Ni	Ni	0.68926 0.26946 0.12038 1.13500
O 	O 	0.62084 0.33892 0.10599 -0.27200
O 	O 	0.68493 0.32499 0.10658 -0.33200
O 	O 	0.65099 0.19528 0.16920 -0.29200
O 	O 	0.60035 0.26264 0.21651 -0.28500
O 	O 	0.57473 0.21786 0.16824 -0.26900
O 	O 	0.68756 0.25666 0.04819 -0.32500
O 	O 	0.65159 0.32473 0.19886 -0.28700
O 	O 	0.69461 0.27784 0.19432 -0.30500
O 	O 	0.65311 0.20224 0.06040 -0.30500
O 	O 	0.55686 0.28267 0.12479 -0.26800
O 	O 	0.57692 0.23649 0.07044 -0.27700
O 	O 	0.70553 0.21688 0.13337 -0.33700
O 	O 	0.63552 0.26545 0.12146 -0.72700
H 	H 	0.62964 0.27414 0.08783 0.19500
C 	C 	0.77740 0.23330 0.84794 0.04300
C 	C 	0.75101 0.20424 0.85003 0.09900
C 	C 	0.74647 0.18040 0.80883 -0.08600
C 	C 	0.76775 0.18721 0.76567 0.08700
C 	C 	0.79434 0.21616 0.76382 0.01100
C 	C 	0.80037 0.23858 0.80601 -0.04900
C 	C 	0.72700 0.20035 0.89485 0.10600
C 	C 	0.71690 0.14966 0.80916 0.78900
H 	H 	0.76304 0.17053 0.73295 0.10900
C 	C 	0.83168 0.26757 0.80678 0.78600
H 	H 	0.77999 0.25178 0.87928 0.13900
C 	C 	0.74243 0.18664 0.93965 -0.09200
C 	C 	0.72289 0.19309 0.98417 0.08900
C 	C 	0.68755 0.21088 0.98417 0.01900
C 	C 	0.66967 0.21929 0.93880 -0.04700
C 	C 	0.69038 0.21562 0.89463 0.04200
C 	C 	0.78138 0.16866 0.94105 0.79000
H 	H 	0.73607 0.18602 0.01913 0.10500
C 	C 	0.62970 0.23465 0.93757 0.77700
H 	H 	0.67878 0.22617 0.86033 0.14700
F 	F 	0.83616 0.28296 0.85327 -0.35600
F 	F 	0.82314 0.29566 0.77404 -0.39100
F 	F 	0.86586 0.25164 0.79360 -0.38900
F 	F 	0.68112 0.16470 0.80317 -0.37200
F 	F 	0.71799 0.13021 0.85315 -0.34800
F 	F 	0.72314 0.12470 0.77125 -0.35000
F 	F 	0.63062 0.27147 0.95092 -0.37800
F 	F 	0.60652 0.21537 0.96993 -0.39200
F 	F 	0.61398 0.23177 0.89081 -0.33800
F 	F 	0.78550 0.14716 0.98303 -0.35000
F 	F 	0.80919 0.19576 0.94133 -0.38000
F 	F 	0.78676 0.14597 0.90054 -0.35300
C 	C 	0.70967 0.31302 0.35110 0.04800
C 	C 	0.74604 0.32866 0.34640 0.10600
C 	C 	0.75771 0.34327 0.30013 -0.09100
C 	C 	0.73492 0.33683 0.25821 0.09100
C 	C 	0.69912 0.31996 0.26282 0.02500
C 	C 	0.68490 0.31144 0.31044 -0.03600
C 	C 	0.77274 0.32627 0.38885 0.10600
C 	C 	0.79540 0.36341 0.29435 0.79000
H 	H 	0.74549 0.34396 0.22178 0.10700
C 	C 	0.64408 0.29910 0.31793 0.77700
H 	H 	0.70098 0.30146 0.38630 0.14600
C 	C 	0.76559 0.34561 0.43348 -0.09000
C 	C 	0.78425 0.33439 0.47693 0.09000
C 	C 	0.81281 0.30748 0.47522 0.03800
C 	C 	0.82479 0.29350 0.42907 -0.04500
C 	C 	0.80267 0.30072 0.38690 0.04900
C 	C 	0.73642 0.37638 0.43596 0.79000
H 	H 	0.77594 0.34595 0.51227 0.12300
C 	C 	0.86007 0.26988 0.42487 0.78400
H 	H 	0.80798 0.28572 0.35295 0.15000
F 	F 	0.63335 0.30230 0.36698 -0.35400
F 	F 	0.64035 0.26259 0.30404 -0.37300
F 	F 	0.61963 0.32064 0.29027 -0.39900
F 	F 	0.82425 0.33799 0.28807 -0.37500
F 	F 	0.80324 0.38502 0.33529 -0.35200
F 	F 	0.79469 0.38649 0.25354 -0.35900
F 	F 	0.87260 0.26780 0.37643 -0.34400
F 	F 	0.85192 0.23470 0.44130 -0.33700
F 	F 	0.88925 0.28463 0.45299 -0.37700
F 	F 	0.74460 0.40031 0.47447 -0.35400
F 	F 	0.70069 0.36141 0.44366 -0.37600
F 	F 	0.73615 0.39687 0.39280 -0.35400
C 	C 	0.42296 0.32748 0.93236 0.05000
C 	C 	0.42381 0.29347 0.95711 0.10900
C 	C 	0.39263 0.26872 0.95251 -0.07900
C 	C 	0.35941 0.28078 0.92850 0.10300
C 	C 	0.35828 0.31544 0.90504 0.03700
C 	C 	0.39234 0.33645 0.90142 -0.04000
C 	C 	0.45698 0.28452 0.98882 0.10400
C 	C 	0.39338 0.23062 0.97611 0.79100
H 	H 	0.33391 0.26392 0.93001 0.12300
C 	C 	0.39758 0.36622 0.86249 0.77900
H 	H 	0.44681 0.34637 0.93574 0.15200
C 	C 	0.49284 0.27562 0.96802 -0.07400
C 	C 	0.52424 0.27091 0.99953 0.09300
C 	C 	0.51956 0.27014 0.05103 0.04400
C 	C 	0.48263 0.27459 0.07148 -0.04200
C 	C 	0.45271 0.28544 0.04032 0.04800
C 	C 	0.49836 0.27298 0.91241 0.78800
H 	H 	0.55241 0.26765 0.98400 0.16700
C 	C 	0.47455 0.26710 0.12578 0.78200
H 	H 	0.42559 0.29342 0.05603 0.15200
F 	F 	0.43550 0.36918 0.84915 -0.33300
F 	F 	0.38590 0.39989 0.88111 -0.34800
F 	F 	0.37717 0.35793 0.82015 -0.36800
F 	F 	0.38566 0.23366 0.02603 -0.35600
F 	F 	0.42847 0.21410 0.96980 -0.35200
F 	F 	0.36636 0.20761 0.95500 -0.34400
F 	F 	0.48532 0.29735 0.15375 -0.37600
F 	F 	0.49390 0.23611 0.14187 -0.37700
F 	F 	0.43616 0.26069 0.13357 -0.33800
F 	F 	0.53116 0.25375 0.90095 -0.32600
F 	F 	0.50130 0.30809 0.89262 -0.35200
F 	F 	0.46826 0.25459 0.89041 -0.35200
C 	C 	0.99621 0.31798 0.78225 0.05000
C 	C 	0.02259 0.28964 0.79045 0.10000
C 	C 	0.01543 0.25371 0.77184 -0.08600
C 	C 	0.98353 0.24782 0.74151 0.09600
C 	C 	0.95853 0.27681 0.73067 0.02200
C 	C 	0.96372 0.31175 0.75312 -0.03500
C 	C 	0.05795 0.29815 0.81798 0.10300
C 	C 	0.04119 0.22155 0.78524 0.79100
H 	H 	0.97841 0.22086 0.72537 0.11000
C 	C 	0.93536 0.34267 0.74483 0.77500
H 	H 	0.00159 0.34511 0.79773 0.14400
C 	C 	0.08987 0.31393 0.79380 -0.07900
C 	C 	0.12195 0.32376 0.82187 0.09100
C 	C 	0.12291 0.31761 0.87297 0.01900
C 	C 	0.09124 0.30149 0.89708 -0.04100
C 	C 	0.05881 0.29225 0.86921 0.04400
C 	C 	0.08862 0.32324 0.73899 0.79100
H 	H 	0.14593 0.33726 0.80424 0.13200
C 	C 	0.09183 0.29464 0.95247 0.77900
H 	H 	0.03395 0.28075 0.88727 0.14900
F 	F 	0.93845 0.35537 0.69682 -0.36400
F 	F 	0.94167 0.37205 0.77658 -0.34700
F 	F 	0.89875 0.32993 0.75288 -0.36300
F 	F 	0.03938 0.21519 0.83557 -0.37300
F 	F 	0.07838 0.22942 0.77223 -0.35000
F 	F 	0.03057 0.18934 0.76125 -0.35500
F 	F 	0.09779 0.32760 0.97723 -0.38200
F 	F 	0.12080 0.27036 0.96398 -0.36500
F 	F 	0.05797 0.27953 0.96918 -0.35400
F 	F 	0.12427 0.33252 0.72108 -0.32700
F 	F 	0.06465 0.35292 0.73149 -0.36000
F 	F 	0.07562 0.29338 0.71188 -0.35100
C 	C 	0.45380 0.20233 0.39220 0.04100
C 	C 	0.45157 0.20754 0.34094 0.11200
C 	C 	0.41638 0.20260 0.31629 -0.09400
C 	C 	0.38513 0.18897 0.34294 0.10100
C 	C 	0.38725 0.18395 0.39422 0.02300
C 	C 	0.42146 0.19203 0.41952 -0.03400
C 	C 	0.48701 0.21403 0.31278 0.10000
C 	C 	0.41286 0.20858 0.26086 0.79600
H 	H 	0.35954 0.18080 0.32350 0.09600
C 	C 	0.42377 0.18858 0.47529 0.78200
H 	H 	0.48102 0.20548 0.41048 0.15300
C 	C 	0.50276 0.24990 0.30822 -0.07400
C 	C 	0.53423 0.25530 0.27702 0.09900
C 	C 	0.55016 0.22561 0.25081 0.04600
C 	C 	0.53698 0.18912 0.25997 -0.03300
C 	C 	0.50473 0.18396 0.28982 0.05000
C 	C 	0.48675 0.28218 0.33752 0.79100
H 	H 	0.54559 0.28286 0.27165 0.13700
C 	C 	0.55584 0.15571 0.23657 0.77900
H 	H 	0.49279 0.15652 0.29447 0.14600
F 	F 	0.45872 0.20003 0.49329 -0.34500
F 	F 	0.41824 0.15211 0.48891 -0.34700
F 	F 	0.39607 0.21030 0.49686 -0.34600
F 	F 	0.42853 0.17888 0.23613 -0.37000
F 	F 	0.43137 0.24061 0.24654 -0.34900
F 	F 	0.37514 0.21182 0.24683 -0.38600
F 	F 	0.54826 0.12398 0.26350 -0.36000
F 	F 	0.59488 0.15999 0.23491 -0.38200
F 	F 	0.54203 0.15085 0.18917 -0.36200
F 	F 	0.50351 0.31537 0.32409 -0.34700
F 	F 	0.49334 0.27663 0.38732 -0.36600
F 	F 	0.44804 0.28533 0.32963 -0.35000
C 	C 	0.01640 0.18845 0.48764 0.04400
C 	C 	0.04850 0.20840 0.50316 0.10000
C 	C 	0.04456 0.23723 0.53820 -0.08000
C 	C 	0.00845 0.24454 0.55822 0.08300
C 	C 	0.97664 0.22370 0.54395 0.03100
C 	C 	0.98038 0.19560 0.50803 -0.04200
C 	C 	0.08588 0.19990 0.48063 0.10400
C 	C 	0.07822 0.26165 0.55197 0.78900
H 	H 	0.00493 0.26646 0.58511 0.11800
C 	C 	0.94575 0.17457 0.48981 0.78100
H 	H 	0.01967 0.16732 0.45960 0.14400
C 	C 	0.10892 0.17101 0.49925 -0.08800
C 	C 	0.14380 0.16340 0.47604 0.08200
C 	C 	0.15540 0.18327 0.43418 0.01900
C 	C 	0.13161 0.21109 0.41430 -0.04100
C 	C 	0.09742 0.21969 0.43863 0.04000
C 	C 	0.09517 0.14659 0.54143 0.79200
H 	H 	0.16182 0.14148 0.48992 0.08600
C 	C 	0.14300 0.23234 0.36812 0.77900
H 	H 	0.07943 0.24161 0.42474 0.14800
F 	F 	0.95518 0.14796 0.45520 -0.35100
F 	F 	0.92074 0.19907 0.46810 -0.33500
F 	F 	0.92796 0.15711 0.52903 -0.37700
F 	F 	0.08826 0.28327 0.51189 -0.37000
F 	F 	0.10903 0.24033 0.56569 -0.34300
F 	F 	0.06972 0.28480 0.59115 -0.34100
F 	F 	0.15427 0.20827 0.33122 -0.37300
F 	F 	0.17266 0.25607 0.37920 -0.34200
F 	F 	0.11313 0.25308 0.34982 -0.35100
F 	F 	0.12346 0.12309 0.55790 -0.36000
F 	F 	0.06486 0.12528 0.52551 -0.37500
F 	F 	0.08370 0.16791 0.58110 -0.34600
C 	C 	0.27482 0.28197 0.23942 0.04900
C 	C 	0.27114 0.26646 0.19231 0.10800
C 	C 	0.27606 0.22801 0.18573 -0.08200
C 	C 	0.27722 0.20509 0.22755 0.10900
C 	C 	0.27606 0.22028 0.27518 0.01900
C 	C 	0.27737 0.25922 0.28137 -0.02800
C 	C 	0.26023 0.29041 0.15056 0.09700
C 	C 	0.27998 0.21150 0.13435 0.79300
H 	H 	0.27802 0.17533 0.22326 0.11300
C 	C 	0.28243 0.27651 0.33216 0.77800
H 	H 	0.27394 0.31175 0.24339 0.14800
C 	C 	0.22166 0.29442 0.13668 -0.08200
C 	C 	0.21312 0.30978 0.09035 0.08800
C 	C 	0.24226 0.32325 0.05983 0.03000
C 	C 	0.27995 0.32535 0.07811 -0.05800
C 	C 	0.28875 0.30779 0.12287 0.05400
C 	C 	0.18980 0.28167 0.17066 0.79000
H 	H 	0.18410 0.30966 0.07688 0.13800
C 	C 	0.31137 0.34375 0.04859 0.78700
H 	H 	0.31806 0.30606 0.13508 0.14600
F 	F 	0.28104 0.31472 0.33021 -0.34800
F 	F 	0.31740 0.26659 0.35131 -0.38500
F 	F 	0.25392 0.26470 0.36365 -0.38000
F 	F 	0.30906 0.22906 0.10907 -0.36400
F 	F 	0.24642 0.21576 0.10841 -0.36300
F 	F 	0.28841 0.17417 0.13619 -0.35100
F 	F 	0.34112 0.35441 0.07897 -0.38000
F 	F 	0.29817 0.37500 0.02488 -0.44000
F 	F 	0.32502 0.31917 0.01396 -0.42800
F 	F 	0.15446 0.29190 0.15284 -0.35100
F 	F 	0.19422 0.29736 0.21690 -0.37000
F 	F 	0.19039 0.24362 0.17514 -0.35700
C 	C 	0.29879 0.18742 0.64851 0.04400
C 	C 	0.26237 0.19987 0.66122 0.10300
C 	C 	0.23013 0.18493 0.63678 -0.08700
C 	C 	0.23565 0.16239 0.59501 0.08600
C 	C 	0.27250 0.15473 0.57796 0.02700
C 	C 	0.30368 0.16237 0.60943 -0.04700
C 	C 	0.25868 0.23127 0.69606 0.10400
C 	C 	0.19010 0.19632 0.65116 0.78900
H 	H 	0.21147 0.15433 0.57256 0.10600
C 	C 	0.34198 0.14438 0.60136 0.78300
H 	H 	0.32335 0.19816 0.66804 0.15000
C 	C 	0.26184 0.22600 0.74777 -0.08900
C 	C 	0.25945 0.25681 0.77920 0.09300
C 	C 	0.25208 0.29219 0.76029 0.00700
C 	C 	0.24883 0.29745 0.70864 -0.03100
C 	C 	0.25334 0.26694 0.67694 0.04100
C 	C 	0.27011 0.18806 0.76943 0.79000
H 	H 	0.26285 0.25331 0.81872 0.08800
C 	C 	0.24076 0.33543 0.68732 0.77600
H 	H 	0.25233 0.27072 0.63724 0.14300
F 	F 	0.36437 0.14677 0.64335 -0.33800
F 	F 	0.36072 0.16184 0.56303 -0.34900
F 	F 	0.33734 0.10731 0.59030 -0.36000
F 	F 	0.18216 0.23058 0.63112 -0.36100
F 	F 	0.18623 0.19808 0.70197 -0.34800
F 	F 	0.16355 0.17117 0.63378 -0.33600
F 	F 	0.23492 0.33413 0.63675 -0.34200
F 	F 	0.27122 0.35869 0.69649 -0.35800
F 	F 	0.20841 0.34990 0.70882 -0.33800
F 	F 	0.26381 0.18735 0.81994 -0.36100
F 	F 	0.30772 0.17910 0.76087 -0.36800
F 	F 	0.24698 0.16140 0.74836 -0.34900
C 	C 	0.29362 0.92381 0.23585 0.04100
C 	C 	0.32588 0.94532 0.22520 0.10700
C 	C 	0.35503 0.93068 0.19487 -0.09000
C 	C 	0.35131 0.89448 0.17667 0.08200
C 	C 	0.31754 0.87428 0.18342 0.01300
C 	C 	0.28789 0.88936 0.21271 -0.03600
C 	C 	0.32847 0.98337 0.24558 0.11200
C 	C 	0.39088 0.95276 0.18353 0.78800
H 	H 	0.37437 0.88223 0.15590 0.09300
C 	C 	0.25054 0.86885 0.22016 0.77900
H 	H 	0.27236 0.93460 0.26093 0.16700
C 	C 	0.30529 0.01225 0.22700 -0.08300
C 	C 	0.30251 0.04540 0.25395 0.10300
C 	C 	0.32484 0.05112 0.29633 0.02900
C 	C 	0.35377 0.02542 0.30774 -0.03200
C 	C 	0.35273 0.99034 0.28567 0.05800
C 	C 	0.28116 0.00691 0.18100 0.79000
H 	H 	0.28128 0.06567 0.24380 0.11000
C 	C 	0.38545 0.03488 0.34355 0.78000
H 	H 	0.37080 0.96849 0.29966 0.15200
F 	F 	0.22328 0.89134 0.24145 -0.33700
F 	F 	0.25625 0.83890 0.25100 -0.35800
F 	F 	0.23628 0.85675 0.17531 -0.36400
F 	F 	0.41427 0.95310 0.22457 -0.36700
F 	F 	0.38205 0.98872 0.17060 -0.35400
F 	F 	0.41087 0.93746 0.14452 -0.36600
F 	F 	0.37566 0.02331 0.39056 -0.35700
F 	F 	0.39250 0.07254 0.34417 -0.39100
F 	F 	0.41873 0.01734 0.32973 -0.34200
F 	F 	0.27056 0.04061 0.16113 -0.35300
F 	F 	0.24863 0.98732 0.19298 -0.36900
F 	F 	0.30106 0.98795 0.14497 -0.35900
C 	C 	0.30168 0.53836 0.97109 0.05200
C 	C 	0.29992 0.53980 0.02281 0.09400
C 	C 	0.29614 0.50652 0.05018 -0.08200
C 	C 	0.28973 0.47319 0.02463 0.08000
C 	C 	0.29025 0.47218 0.97266 0.04000
C 	C 	0.30232 0.50420 0.94663 -0.05200
C 	C 	0.30479 0.57596 0.04792 0.11000
C 	C 	0.29650 0.50660 0.10637 0.78800
H 	H 	0.28290 0.44830 0.04509 0.13800
C 	C 	0.32070 0.50172 0.89598 0.78600
H 	H 	0.30527 0.56371 0.95020 0.15400
C 	C 	0.34055 0.59410 0.04876 -0.09200
C 	C 	0.34278 0.63029 0.06716 0.09400
C 	C 	0.31191 0.64621 0.09206 0.02900
C 	C 	0.27759 0.62585 0.09715 -0.02300
C 	C 	0.27327 0.59272 0.07042 0.04400
C 	C 	0.37616 0.57586 0.02840 0.79000
H 	H 	0.36913 0.64561 0.06389 0.09400
C 	C 	0.24631 0.63817 0.13214 0.77900
H 	H 	0.24574 0.57924 0.06863 0.14700
F 	F 	0.34087 0.46914 0.89122 -0.35300
F 	F 	0.34607 0.53060 0.88890 -0.32600
F 	F 	0.29319 0.50364 0.85961 -0.38000
F 	F 	0.26222 0.51989 0.12380 -0.37500
F 	F 	0.32577 0.52848 0.12419 -0.35300
F 	F 	0.30172 0.47133 0.12497 -0.35700
F 	F 	0.22550 0.66614 0.11069 -0.33400
F 	F 	0.26143 0.65063 0.17629 -0.34600
F 	F 	0.22181 0.60925 0.14304 -0.34000
F 	F 	0.40853 0.59186 0.04828 -0.35700
F 	F 	0.37721 0.58008 0.97765 -0.35600
F 	F 	0.37715 0.53863 0.03992 -0.35500
C 	C 	0.20718 0.91675 0.55425 0.03900
C 	C 	0.18871 0.91818 0.50836 0.10300
C 	C 	0.17083 0.88608 0.48917 -0.09300
C 	C 	0.17334 0.85287 0.51570 0.08300
C 	C 	0.18955 0.85219 0.56292 0.01100
C 	C 	0.20829 0.88381 0.58152 -0.03900
C 	C 	0.19357 0.95159 0.47772 0.10600
C 	C 	0.15075 0.88651 0.43941 0.79000
H 	H 	0.16112 0.82775 0.50061 0.10600
C 	C 	0.22821 0.88286 0.63128 0.77700
H 	H 	0.22126 0.94131 0.56819 0.14400
C 	C 	0.17536 0.98515 0.49034 -0.09200
C 	C 	0.18947 0.01844 0.47079 0.08500
C 	C 	0.21934 0.01832 0.43654 0.01800
C 	C 	0.23378 0.98422 0.41877 -0.04300
C 	C 	0.22147 0.95127 0.44089 0.03900
C 	C 	0.14339 0.98611 0.52803 0.79100
H 	H 	0.17820 0.04460 0.48362 0.10600
C 	C 	0.26470 0.98288 0.37963 0.77500
H 	H 	0.23528 0.92542 0.43180 0.15000
F 	F 	0.20143 0.88409 0.66866 -0.34200
F 	F 	0.25280 0.91253 0.63688 -0.35000
F 	F 	0.24930 0.85081 0.63585 -0.36900
F 	F 	0.17729 0.88290 0.40204 -0.36200
F 	F 	0.13084 0.91902 0.43271 -0.35300
F 	F 	0.12496 0.85763 0.43577 -0.36400
F 	F 	0.27111 0.94715 0.36341 -0.39100
F 	F 	0.29823 0.99632 0.39925 -0.39700
F 	F 	0.25441 0.00359 0.33891 -0.41900
F 	F 	0.12127 0.01736 0.52185 -0.35000
F 	F 	0.15859 0.98658 0.57514 -0.37300
F 	F 	0.11983 0.95564 0.52319 -0.35500
C 	C 	0.19759 0.76832 0.96124 0.04700
C 	C 	0.20891 0.78725 0.91864 0.10000
C 	C 	0.24340 0.80760 0.91875 -0.08300
C 	C 	0.26682 0.80634 0.96085 0.09600
C 	C 	0.25809 0.78268 0.00044 0.02900
C 	C 	0.22364 0.76211 0.99966 -0.04100
C 	C 	0.18712 0.78160 0.87241 0.10300
C 	C 	0.25507 0.83081 0.87438 0.79100
H 	H 	0.29247 0.82297 0.96241 0.12700
C 	C 	0.21753 0.72968 0.03422 0.78700
H 	H 	0.16991 0.75508 0.96198 0.14900
C 	C 	0.19221 0.74934 0.84346 -0.08300
C 	C 	0.17482 0.74723 0.79687 0.09200
C 	C 	0.15502 0.77747 0.77749 0.03500
C 	C 	0.14701 0.80825 0.80818 -0.03400
C 	C 	0.16230 0.80929 0.85624 0.04700
C 	C 	0.21580 0.71705 0.86224 0.78900
H 	H 	0.17900 0.72308 0.77391 0.12400
C 	C 	0.12251 0.83993 0.78983 0.78000
H 	H 	0.15651 0.83252 0.88031 0.15100
F 	F 	0.24815 0.70599 0.03050 -0.38500
F 	F 	0.18507 0.70981 0.02235 -0.34200
F 	F 	0.21380 0.74192 0.08234 -0.37000
F 	F 	0.22901 0.85884 0.86730 -0.36800
F 	F 	0.25657 0.80908 0.83238 -0.36100
F 	F 	0.29055 0.84679 0.88083 -0.34700
F 	F 	0.08658 0.82688 0.77834 -0.36700
F 	F 	0.13874 0.85571 0.74826 -0.35300
F 	F 	0.11862 0.86736 0.82513 -0.34500
F 	F 	0.22072 0.69028 0.82625 -0.35600
F 	F 	0.19769 0.70075 0.90205 -0.36700
F 	F 	0.25150 0.72905 0.87663 -0.36800
C 	C 	0.28332 0.70007 0.46086 0.04500
C 	C 	0.27512 0.71854 0.41663 0.10000
C 	C 	0.23745 0.73058 0.40739 -0.08100
C 	C 	0.21107 0.73055 0.44652 0.07800
C 	C 	0.21942 0.71245 0.49115 0.02800
C 	C 	0.25453 0.69338 0.49579 -0.05200
C 	C 	0.30507 0.72147 0.37820 0.10200
C 	C 	0.22461 0.74088 0.35552 0.78600
H 	H 	0.18403 0.74441 0.44222 0.14300
C 	C 	0.26088 0.66444 0.53560 0.78100
H 	H 	0.31168 0.68931 0.46693 0.14200
C 	C 	0.32255 0.75569 0.36689 -0.08400
C 	C 	0.33995 0.76013 0.32035 0.09100
C 	C 	0.34440 0.72959 0.28891 0.03600
C 	C 	0.33644 0.69380 0.30731 -0.04400
C 	C 	0.31448 0.69017 0.35039 0.05000
C 	C 	0.32351 0.78680 0.40442 0.79100
H 	H 	0.34798 0.78744 0.30750 0.10900
C 	C 	0.34843 0.65965 0.27908 0.78100
H 	H 	0.30336 0.66336 0.36107 0.14100
F 	F 	0.27388 0.68129 0.57826 -0.37500
F 	F 	0.28773 0.63889 0.52056 -0.35500
F 	F 	0.22763 0.64526 0.54557 -0.39100
F 	F 	0.23431 0.71320 0.32266 -0.37500
F 	F 	0.24164 0.77352 0.34079 -0.35100
F 	F 	0.18558 0.74547 0.35319 -0.33700
F 	F 	0.35124 0.62952 0.31039 -0.35200
F 	F 	0.38359 0.66503 0.25722 -0.38000
F 	F 	0.32187 0.65182 0.24296 -0.35400
F 	F 	0.35045 0.81317 0.39188 -0.36800
F 	F 	0.33280 0.77302 0.45055 -0.38200
F 	F 	0.28840 0.80369 0.40706 -0.36500
C 	C 	0.14226 0.59178 0.74758 0.05200
C 	C 	0.17199 0.56749 0.73655 0.09500
C 	C 	0.19744 0.57569 0.69748 -0.07500
C 	C 	0.19399 0.60955 0.67244 0.08600
C 	C 	0.16544 0.63472 0.68527 0.03300
C 	C 	0.13936 0.62602 0.72348 -0.05500
C 	C 	0.17680 0.53403 0.76722 0.10500
C 	C 	0.22707 0.54774 0.68109 0.78800
H 	H 	0.21337 0.61641 0.64266 0.15100
C 	C 	0.10613 0.65125 0.73516 0.77700
H 	H 	0.12174 0.58411 0.77569 0.13800
C 	C 	0.19735 0.53544 0.81220 -0.08800
C 	C 	0.20229 0.50281 0.83943 0.09900
C 	C 	0.18709 0.46920 0.82268 0.01400
C 	C 	0.16310 0.46862 0.78076 -0.04000
C 	C 	0.15924 0.50096 0.75239 0.04200
C 	C 	0.21254 0.57191 0.83225 0.79600
H 	H 	0.21841 0.50330 0.87353 0.11500
C 	C 	0.14196 0.43371 0.76590 0.77700
H 	H 	0.14267 0.50051 0.71863 0.14600
F 	F 	0.08949 0.64223 0.77997 -0.36900
F 	F 	0.07904 0.64768 0.69851 -0.41800
F 	F 	0.11785 0.68768 0.73802 -0.45000
F 	F 	0.20911 0.51633 0.66353 -0.37000
F 	F 	0.25022 0.53822 0.72036 -0.34700
F 	F 	0.25004 0.56155 0.64380 -0.34100
F 	F 	0.11266 0.44136 0.73333 -0.35100
F 	F 	0.12626 0.41674 0.80699 -0.40200
F 	F 	0.16687 0.40965 0.74323 -0.34100
F 	F 	0.23447 0.56686 0.87420 -0.37700
F 	F 	0.18249 0.59469 0.84444 -0.37700
F 	F 	0.23499 0.58932 0.79727 -0.35000
C 	C 	0.56119 0.69563 0.95503 0.04600
C 	C 	0.53248 0.70177 0.92005 0.10500
C 	C 	0.54195 0.70251 0.86907 -0.09000
C 	C 	0.58046 0.70059 0.85529 0.09000
C 	C 	0.60830 0.69032 0.88982 0.01900
C 	C 	0.59772 0.68479 0.93993 -0.03800
C 	C 	0.49266 0.70646 0.93742 0.11300
C 	C 	0.51162 0.70551 0.82924 0.78900
H 	H 	0.58855 0.70496 0.81705 0.11800
C 	C 	0.61971 0.65874 0.97316 0.79400
H 	H 	0.55400 0.69556 0.99399 0.15600
C 	C 	0.47383 0.67822 0.96464 -0.08900
C 	C 	0.44237 0.68769 0.99424 0.10200
C 	C 	0.42634 0.72313 0.99087 0.02800
C 	C 	0.43915 0.74707 0.95287 -0.03200
C 	C 	0.47480 0.74073 0.93150 0.05400
C 	C 	0.48785 0.63862 0.96415 0.79200
H 	H 	0.43138 0.66802 0.02089 0.11600
C 	C 	0.41496 0.77870 0.93422 0.78000
H 	H 	0.48859 0.76244 0.91045 0.15400
F 	F 	0.60744 0.62298 0.96446 -0.36100
F 	F 	0.61339 0.66715 0.02238 -0.33100
F 	F 	0.65832 0.66052 0.96501 -0.37200
F 	F 	0.50153 0.74209 0.82303 -0.36500
F 	F 	0.47967 0.68502 0.84136 -0.35200
F 	F 	0.52501 0.69226 0.78451 -0.35100
F 	F 	0.42566 0.81113 0.95743 -0.36100
F 	F 	0.37672 0.77210 0.94275 -0.38900
F 	F 	0.41992 0.78300 0.88378 -0.33500
F 	F 	0.45781 0.61441 0.97118 -0.32900
F 	F 	0.51388 0.63357 0.00180 -0.36500
F 	F 	0.50467 0.62986 0.91945 -0.35700
C 	C 	0.90707 0.67399 0.77616 0.04700
C 	C 	0.91693 0.71079 0.76687 0.10400
C 	C 	0.89212 0.73959 0.78143 -0.07800
C 	C 	0.85726 0.73054 0.80407 0.09500
C 	C 	0.84700 0.69355 0.81257 0.04300
C 	C 	0.87203 0.66482 0.79788 -0.04500
C 	C 	0.95150 0.71837 0.73722 0.10500
C 	C 	0.90125 0.77970 0.76950 0.79100
H 	H 	0.83771 0.75227 0.81451 0.13200
C 	C 	0.86073 0.62452 0.80260 0.77800
H 	H 	0.92639 0.65236 0.76468 0.14600
C 	C 	0.98820 0.71659 0.75876 -0.08000
C 	C 	0.02039 0.71843 0.72803 0.08700
C 	C 	0.01658 0.72273 0.67685 0.03500
C 	C 	0.97993 0.72412 0.65524 -0.04200
C 	C 	0.94773 0.72246 0.68592 0.04200
C 	C 	0.99321 0.71017 0.81391 0.79300
H 	H 	0.04860 0.71727 0.74399 0.13800
C 	C 	0.97509 0.72883 0.59974 0.77800
H 	H 	0.91951 0.72359 0.66993 0.15400
F 	F 	0.85711 0.61523 0.85191 -0.40700
F 	F 	0.88748 0.60117 0.78192 -0.37000
F 	F 	0.82681 0.61865 0.77815 -0.39100
F 	F 	0.89504 0.78605 0.71977 -0.36400
F 	F 	0.93874 0.78785 0.78061 -0.35000
F 	F 	0.87861 0.80361 0.79639 -0.34700
F 	F 	0.99810 0.70425 0.57460 -0.38900
F 	F 	0.98478 0.76453 0.58640 -0.39800
F 	F 	0.93794 0.72233 0.58512 -0.36400
F 	F 	0.02983 0.71862 0.82903 -0.35600
F 	F 	0.98608 0.67345 0.82467 -0.37100
F 	F 	0.96859 0.73206 0.84085 -0.35500
C 	C 	0.76660 0.49276 0.72627 0.05100
C 	C 	0.79370 0.46982 0.74836 0.10000
C 	C 	0.81428 0.48252 0.79012 -0.07500
C 	C 	0.80398 0.51636 0.81216 0.09000
C 	C 	0.77576 0.53872 0.79087 0.04700
C 	C 	0.75964 0.52830 0.74490 -0.04900
C 	C 	0.80277 0.43402 0.72440 0.10800
C 	C 	0.84843 0.46125 0.80933 0.79100
H 	H 	0.81740 0.52506 0.84627 0.13900
C 	C 	0.73632 0.55525 0.71470 0.77900
H 	H 	0.75176 0.48326 0.69351 0.14200
C 	C 	0.78207 0.40142 0.73599 -0.08400
C 	C 	0.79051 0.36845 0.71054 0.10100
C 	C 	0.81764 0.36810 0.67256 0.03000
C 	C 	0.83500 0.40161 0.65744 -0.04100
C 	C 	0.82920 0.43370 0.68564 0.04700
C 	C 	0.74917 0.40238 0.77245 0.79400
H 	H 	0.77600 0.34299 0.72018 0.12600
C 	C 	0.85839 0.40363 0.61032 0.77800
H 	H 	0.84430 0.45894 0.67644 0.14800
F 	F 	0.69949 0.55628 0.73247 -0.39600
F 	F 	0.73518 0.54498 0.66542 -0.36500
F 	F 	0.75230 0.59013 0.71701 -0.37700
F 	F 	0.87671 0.46115 0.77382 -0.36400
F 	F 	0.83833 0.42518 0.82008 -0.34100
F 	F 	0.86315 0.47696 0.85190 -0.35000
F 	F 	0.83982 0.38535 0.57244 -0.40200
F 	F 	0.89354 0.38765 0.61795 -0.37100
F 	F 	0.86403 0.43984 0.59537 -0.35800
F 	F 	0.73554 0.36728 0.78272 -0.36100
F 	F 	0.71976 0.42293 0.75272 -0.36800
F 	F 	0.76049 0.41818 0.81659 -0.34400
C 	C 	0.67637 0.50113 0.01038 0.03700
C 	C 	0.67193 0.47329 0.97481 0.10200
C 	C 	0.66959 0.48272 0.92405 -0.08800
C 	C 	0.67222 0.52009 0.91033 0.08800
C 	C 	0.68173 0.54714 0.94529 0.01800
C 	C 	0.68197 0.53805 0.99614 -0.02900
C 	C 	0.67002 0.43440 0.99146 0.10700
C 	C 	0.66369 0.45331 0.88458 0.78900
H 	H 	0.66959 0.52790 0.87183 0.10400
C 	C 	0.69099 0.56702 0.03499 0.77700
H 	H 	0.67709 0.49365 0.04915 0.14000
C 	C 	0.70252 0.41657 0.01109 -0.09600
C 	C 	0.69756 0.38481 0.04031 0.08500
C 	C 	0.66140 0.36861 0.04558 0.02000
C 	C 	0.63085 0.38214 0.01648 -0.04700
C 	C 	0.63456 0.41677 0.99378 0.04500
C 	C 	0.74206 0.43287 0.00470 0.79000
H 	H 	0.72152 0.37361 0.06045 0.11300
C 	C 	0.59439 0.36025 0.00925 0.77700
H 	H 	0.60972 0.43025 0.97846 0.14900
F 	F 	0.67991 0.55548 0.08163 -0.35200
F 	F 	0.67205 0.59950 0.02476 -0.32800
F 	F 	0.72970 0.57379 0.03559 -0.36400
F 	F 	0.62637 0.44123 0.88563 -0.36500
F 	F 	0.68757 0.42356 0.89232 -0.34800
F 	F 	0.67131 0.46701 0.83781 -0.35600
F 	F 	0.56821 0.37013 0.04498 -0.39600
F 	F 	0.60101 0.32268 0.01189 -0.41500
F 	F 	0.57895 0.36755 0.96322 -0.35100
F 	F 	0.76958 0.40591 0.01022 -0.36100
F 	F 	0.74807 0.45992 0.03993 -0.38200
F 	F 	0.74645 0.44812 0.95815 -0.36200
C 	C 	0.61188 0.83820 0.20315 0.05100
C 	C 	0.57976 0.81951 0.22104 0.10000
C 	C 	0.58300 0.79692 0.26354 -0.08100
C 	C 	0.61531 0.80075 0.29367 0.08600
C 	C 	0.64623 0.82228 0.27789 0.04100
C 	C 	0.64612 0.83754 0.22983 -0.05100
C 	C 	0.54378 0.82169 0.19304 0.10200
C 	C 	0.55329 0.76762 0.27529 0.78900
H 	H 	0.61600 0.78799 0.32986 0.15200
C 	C 	0.68320 0.84780 0.20464 0.78200
H 	H 	0.61023 0.85279 0.16824 0.14500
C 	C 	0.51274 0.84290 0.21035 -0.08500
C 	C 	0.47641 0.83622 0.19037 0.09200
C 	C 	0.47228 0.81296 0.14926 0.02600
C 	C 	0.50518 0.80005 0.12455 -0.04600
C 	C 	0.54030 0.80197 0.14881 0.04600
C 	C 	0.51852 0.87325 0.24833 0.79000
H 	H 	0.45141 0.84801 0.20762 0.10900
C 	C 	0.50310 0.78463 0.07252 0.77600
H 	H 	0.56481 0.78783 0.13365 0.13800
F 	F 	0.70270 0.87381 0.23207 -0.41700
F 	F 	0.67726 0.86226 0.15791 -0.35000
F 	F 	0.70538 0.81650 0.20009 -0.41500
F 	F 	0.54614 0.74640 0.23378 -0.38500
F 	F 	0.51987 0.78404 0.29045 -0.36700
F 	F 	0.56549 0.74416 0.31245 -0.35100
F 	F 	0.47649 0.80373 0.04502 -0.39000
F 	F 	0.49342 0.74760 0.07404 -0.41400
F 	F 	0.53781 0.78813 0.04876 -0.38500
F 	F 	0.48712 0.89616 0.25102 -0.35100
F 	F 	0.54961 0.89475 0.23555 -0.36900
F 	F 	0.52465 0.85803 0.29446 -0.35900
C 	C 	0.91697 0.79489 0.45468 0.04400
C 	C 	0.94617 0.81337 0.42929 0.10400
C 	C 	0.93766 0.83450 0.38667 -0.07900
C 	C 	0.89955 0.83835 0.37214 0.10200
C 	C 	0.87016 0.82217 0.39972 0.03200
C 	C 	0.87875 0.79957 0.44079 -0.03100
C 	C 	0.98547 0.81097 0.44847 0.11200
C 	C 	0.96914 0.85181 0.35570 0.79200
H 	H 	0.89246 0.85484 0.34002 0.12500
C 	C 	0.84720 0.78144 0.47062 0.77500
H 	H 	0.92411 0.77782 0.48622 0.15800
C 	C 	0.99698 0.83177 0.49034 -0.07700
C 	C 	0.03117 0.82258 0.51419 0.10500
C 	C 	0.05436 0.79437 0.49564 0.02500
C 	C 	0.04610 0.77875 0.44902 -0.03400
C 	C 	0.01042 0.78518 0.42763 0.04700
C 	C 	0.97119 0.86086 0.51286 0.79300
H 	H 	0.03822 0.83526 0.54932 0.11300
C 	C 	0.07436 0.75389 0.42309 0.78200
H 	H 	0.00164 0.76948 0.39545 0.15200
F 	F 	0.86137 0.76005 0.50881 -0.35200
F 	F 	0.82567 0.75883 0.44028 -0.37300
F 	F 	0.82403 0.80832 0.49083 -0.37200
F 	F 	0.98948 0.82431 0.33222 -0.35900
F 	F 	0.99353 0.87223 0.38516 -0.34500
F 	F 	0.95474 0.87528 0.31993 -0.35200
F 	F 	0.06907 0.75500 0.37241 -0.33600
F 	F 	0.06953 0.71789 0.43910 -0.38000
F 	F 	0.11125 0.76516 0.43280 -0.38400
F 	F 	0.99138 0.88425 0.54378 -0.34400
F 	F 	0.94294 0.84374 0.54015 -0.35800
F 	F 	0.95466 0.88237 0.47654 -0.34900
C 	C 	0.82362 0.77684 0.15459 0.04700
C 	C 	0.80253 0.79212 0.11571 0.10600
C 	C 	0.78732 0.82820 0.12078 -0.07900
C 	C 	0.78809 0.84537 0.16746 0.09300
C 	C 	0.80532 0.82789 0.20781 0.03500
C 	C 	0.82689 0.79551 0.19991 -0.05000
C 	C 	0.79043 0.76770 0.07447 0.10200
C 	C 	0.76658 0.84674 0.07837 0.79200
H 	H 	0.77259 0.87085 0.17333 0.14200
C 	C 	0.85052 0.77893 0.24111 0.78200
H 	H 	0.83542 0.74938 0.15057 0.14600
C 	C 	0.81566 0.75810 0.03571 -0.08900
C 	C 	0.80329 0.73326 0.99894 0.08700
C 	C 	0.76580 0.71978 0.99861 0.02200
C 	C 	0.74073 0.72939 0.03748 -0.04700
C 	C 	0.75377 0.75246 0.07573 0.04100
C 	C 	0.85635 0.77242 0.03485 0.78900
H 	H 	0.82258 0.72491 0.96979 0.11100
C 	C 	0.70029 0.71500 0.03841 0.78400
H 	H 	0.73529 0.75899 0.10655 0.14700
F 	F 	0.87754 0.75489 0.22254 -0.35400
F 	F 	0.82712 0.75971 0.27324 -0.38700
F 	F 	0.86944 0.80644 0.26676 -0.39600
F 	F 	0.72958 0.83380 0.07634 -0.36200
F 	F 	0.78438 0.83961 0.03381 -0.35600
F 	F 	0.76581 0.88470 0.08471 -0.34000
F 	F 	0.68003 0.72833 0.07847 -0.36000
F 	F 	0.70085 0.67688 0.04149 -0.33300
F 	F 	0.68165 0.72594 0.99589 -0.37600
F 	F 	0.87292 0.76736 0.98893 -0.35700
F 	F 	0.87766 0.75360 0.06954 -0.37300
F 	F 	0.85757 0.80982 0.04528 -0.35000
C 	C 	0.73177 0.71633 0.62901 0.04900
C 	C 	0.69557 0.72214 0.60907 0.09800
C 	C 	0.66369 0.70354 0.62947 -0.08000
C 	C 	0.66849 0.68241 0.67274 0.08600
C 	C 	0.70402 0.68053 0.69614 0.04100
C 	C 	0.73653 0.69529 0.67209 -0.04800
C 	C 	0.69159 0.74789 0.56681 0.10800
C 	C 	0.62491 0.70562 0.60482 0.78900
H 	H 	0.64416 0.66930 0.69008 0.12600
C 	C 	0.77604 0.69183 0.69388 0.77800
H 	H 	0.75621 0.72952 0.61196 0.14400
C 	C 	0.69297 0.78674 0.57395 -0.08900
C 	C 	0.69837 0.80995 0.53277 0.09400
C 	C 	0.69972 0.79525 0.48493 0.02500
C 	C 	0.69332 0.75700 0.47760 -0.04600
C 	C 	0.69164 0.73345 0.51879 0.04600
C 	C 	0.69234 0.80333 0.62551 0.79100
H 	H 	0.70303 0.83931 0.53805 0.12100
C 	C 	0.68755 0.74141 0.42612 0.78300
H 	H 	0.69125 0.70376 0.51366 0.15200
F 	F 	0.78421 0.72324 0.72093 -0.39900
F 	F 	0.80272 0.68855 0.65652 -0.36600
F 	F 	0.77931 0.66110 0.72379 -0.38600
F 	F 	0.62618 0.68775 0.55971 -0.36800
F 	F 	0.61457 0.74205 0.59747 -0.35500
F 	F 	0.59693 0.68900 0.63324 -0.35300
F 	F 	0.67506 0.70510 0.42753 -0.35100
F 	F 	0.72139 0.74262 0.40014 -0.40700
F 	F 	0.66040 0.76190 0.40151 -0.39800
F 	F 	0.68341 0.84055 0.62398 -0.35700
F 	F 	0.72775 0.79947 0.64707 -0.37600
F 	F 	0.66542 0.78597 0.65474 -0.36800
C 	C 	0.79070 0.09825 0.50428 0.04700
C 	C 	0.78106 0.07015 0.53770 0.09900
C 	C 	0.77921 0.07799 0.58900 -0.08300
C 	C 	0.78910 0.11361 0.60575 0.08500
C 	C 	0.79997 0.14133 0.57230 0.02600
C 	C 	0.79899 0.13416 0.52096 -0.04800
C 	C 	0.77516 0.03210 0.51855 0.10800
C 	C 	0.77024 0.04777 0.62629 0.78900
H 	H 	0.79016 0.11937 0.64504 0.11200
C 	C 	0.81010 0.16380 0.48422 0.78200
H 	H 	0.79260 0.09178 0.46525 0.14700
C 	C 	0.74088 0.02211 0.49432 -0.09600
C 	C 	0.73914 0.98853 0.46825 0.08900
C 	C 	0.77024 0.96441 0.46753 0.00200
C 	C 	0.80315 0.97283 0.49534 -0.03700
C 	C 	0.80577 0.00728 0.51930 0.03700
C 	C 	0.70754 0.04867 0.49170 0.79000
H 	H 	0.71415 0.98184 0.44653 0.09400
C 	C 	0.83627 0.94607 0.49732 0.77600
H 	H 	0.83205 0.01539 0.53724 0.14900
F 	F 	0.79161 0.19646 0.49516 -0.39100
F 	F 	0.80061 0.15396 0.43632 -0.34100
F 	F 	0.84893 0.16926 0.48669 -0.34200
F 	F 	0.80146 0.02497 0.63138 -0.37100
F 	F 	0.73936 0.02692 0.61111 -0.35100
F 	F 	0.76154 0.06246 0.67215 -0.34900
F 	F 	0.85536 0.94661 0.45265 -0.37900
F 	F 	0.82324 0.91059 0.50646 -0.36400
F 	F 	0.86164 0.95533 0.53447 -0.34100
F 	F 	0.67430 0.03038 0.47904 -0.36800
F 	F 	0.71484 0.07537 0.45636 -0.38600
F 	F 	0.70152 0.06565 0.53680 -0.35800
C 	C 	0.70513 0.03157 0.23255 0.04000
C 	C 	0.73332 0.05727 0.24568 0.10300
C 	C 	0.76245 0.04706 0.27912 -0.09000
C 	C 	0.76170 0.01161 0.30017 0.08400
C 	C 	0.73427 0.98556 0.28581 0.01400
C 	C 	0.70559 0.99544 0.25164 -0.04100
C 	C 	0.73036 0.09553 0.22675 0.10500
C 	C 	0.79295 0.07450 0.29501 0.78800
H 	H 	0.78262 0.00405 0.32777 0.10100
C 	C 	0.67827 0.96668 0.23122 0.77900
H 	H 	0.68299 0.03981 0.20702 0.14600
C 	C 	0.73844 0.10396 0.17663 -0.09100
C 	C 	0.72645 0.13805 0.15725 0.09000
C 	C 	0.70951 0.16452 0.18793 0.01600
C 	C 	0.70787 0.15835 0.23946 -0.04100
C 	C 	0.71558 0.12293 0.25782 0.04500
C 	C 	0.75666 0.07571 0.14265 0.79000
H 	H 	0.72842 0.14323 0.11786 0.11000
C 	C 	0.69690 0.18899 0.27476 0.78200
H 	H 	0.70931 0.11634 0.29605 0.14900
F 	F 	0.64878 0.98287 0.20522 -0.35300
F 	F 	0.66236 0.94599 0.26895 -0.38400
F 	F 	0.69783 0.94364 0.19950 -0.34400
F 	F 	0.77804 0.09847 0.32968 -0.37500
F 	F 	0.80628 0.09458 0.25506 -0.35500
F 	F 	0.82376 0.05661 0.31589 -0.36600
F 	F 	0.65787 0.19290 0.27503 -0.35700
F 	F 	0.71361 0.22196 0.26056 -0.40300
F 	F 	0.70888 0.18127 0.32239 -0.35800
F 	F 	0.77277 0.09269 0.10180 -0.34900
F 	F 	0.72935 0.05094 0.12654 -0.37300
F 	F 	0.78517 0.05663 0.16679 -0.35500
