data_crystal

_cell_length_a 37.96254
_cell_length_b 37.92600
_cell_length_c 19.59052
_cell_angle_alpha 91.16918
_cell_angle_beta  89.97934
_cell_angle_gamma 89.94714

_symmetry_space_group_name_	'P 1'
_symmetry_space_group_name_H-M	'P 1'

loop_
_symmetry_equiv_pos_as_xyz
  x,y,z

loop_
_atom_site_label
_atom_site_type_symbol
_atom_site_fract_x
_atom_site_fract_y
_atom_site_fract_z
_atom_site_charge
Cd	Cd	0.05375 0.85392 0.25496 1.24300
Cd	Cd	0.07396 0.90426 0.40700 1.18300
O 	O 	0.00075 0.81714 0.26278 -0.30600
O 	O 	0.03090 0.81992 0.16755 -0.33000
C 	C 	0.00494 0.80550 0.20057 0.31200
O 	O 	0.09713 0.89091 0.22257 -0.37900
O 	O 	0.11763 0.89835 0.33099 -0.46400
C 	C 	0.11371 0.91051 0.26915 0.27300
C 	C 	0.01762 0.91795 0.28286 0.30700
O 	O 	0.06746 0.84476 0.38430 -0.44900
O 	O 	0.01026 0.90659 0.22093 -0.29300
O 	O 	0.03384 0.89588 0.32130 -0.53300
C 	C 	0.09271 0.82322 0.36663 0.29900
O 	O 	0.09406 0.81508 0.30148 -0.34700
Cd	Cd	0.88164 0.89788 0.99805 1.24000
Cd	Cd	0.90340 0.94967 0.85382 1.16000
O 	O 	0.86941 0.83625 0.96787 -0.32000
O 	O 	0.87380 0.85355 0.07526 -0.32100
C 	C 	0.86877 0.82765 0.03144 0.32200
O 	O 	0.90043 0.94965 0.04402 -0.37400
O 	O 	0.88914 0.98128 0.94790 -0.46500
C 	C 	0.90524 0.97811 0.00695 0.28200
C 	C 	0.95021 0.89166 0.93976 0.27700
O 	O 	0.85366 0.91733 0.88237 -0.45400
O 	O 	0.94878 0.87935 0.00128 -0.26800
O 	O 	0.92028 0.90203 0.91522 -0.53200
C 	C 	0.82632 0.92823 0.91716 0.30400
O 	O 	0.82587 0.92049 0.98171 -0.36200
C 	C 	0.87121 0.68910 0.95947 0.16300
N 	N 	0.86883 0.69405 0.89101 -0.13500
C 	C 	0.87594 0.66703 0.84652 0.13900
N 	N 	0.88649 0.63547 0.87056 -0.14200
C 	C 	0.88836 0.63022 0.93878 0.14100
N 	N 	0.88010 0.65693 0.98311 -0.13100
C 	C 	0.96138 0.67086 0.25060 0.16100
N 	N 	0.96872 0.63757 0.22773 -0.13200
C 	C 	0.96518 0.60989 0.27022 0.13400
N 	N 	0.95182 0.61522 0.33391 -0.14200
C 	C 	0.94295 0.64823 0.35591 0.13500
N 	N 	0.94866 0.67611 0.31493 -0.13500
Cd	Cd	0.83865 0.09136 0.66674 1.24700
Cd	Cd	0.87652 0.09020 0.83238 1.15600
O 	O 	0.78381 0.12541 0.65619 -0.30800
O 	O 	0.80791 0.09868 0.56810 -0.32500
C 	C 	0.78116 0.11640 0.59215 0.31100
O 	O 	0.89179 0.06593 0.64991 -0.35600
O 	O 	0.89815 0.04832 0.76060 -0.47600
C 	C 	0.91187 0.05452 0.70018 0.27900
C 	C 	0.87532 0.15138 0.71684 0.30500
O 	O 	0.82188 0.07226 0.79119 -0.45700
O 	O 	0.87073 0.15398 0.65101 -0.27000
O 	O 	0.86005 0.12509 0.74521 -0.55100
C 	C 	0.81362 0.04147 0.76524 0.28400
O 	O 	0.81543 0.03827 0.69897 -0.35600
Cd	Cd	0.97701 0.10692 0.49516 1.24000
Cd	Cd	0.05032 0.09421 0.38215 1.18400
O 	O 	0.92945 0.14086 0.44333 -0.31100
O 	O 	0.92192 0.11499 0.54144 -0.34500
C 	C 	0.90791 0.13277 0.49187 0.31700
O 	O 	0.01246 0.06762 0.54886 -0.37700
O 	O 	0.06228 0.08432 0.49152 -0.42500
C 	C 	0.04560 0.06157 0.52961 0.28100
C 	C 	0.97391 0.05233 0.39418 0.31100
O 	O 	0.02340 0.14406 0.42898 -0.44700
O 	O 	0.94610 0.05250 0.43282 -0.27900
O 	O 	0.99291 0.08075 0.39917 -0.53400
C 	C 	0.03146 0.15992 0.48670 0.30600
O 	O 	0.01136 0.15268 0.53855 -0.36600
C 	C 	0.65441 0.09986 0.66916 0.16700
N 	N 	0.62142 0.08642 0.66283 -0.13900
C 	C 	0.60104 0.08228 0.71925 0.13700
N 	N 	0.61494 0.08901 0.78224 -0.14300
C 	C 	0.64857 0.10079 0.78863 0.13900
N 	N 	0.66748 0.10798 0.73192 -0.13500
C 	C 	0.77343 0.13309 0.36423 0.17500
N 	N 	0.77179 0.13535 0.29509 -0.13500
C 	C 	0.74041 0.13120 0.26250 0.14000
N 	N 	0.71096 0.12436 0.29909 -0.14200
C 	C 	0.71277 0.12078 0.36767 0.14200
N 	N 	0.74399 0.12527 0.40019 -0.12700
Cd	Cd	0.17756 0.13382 0.24508 1.24200
Cd	Cd	0.21478 0.08965 0.38251 1.17100
O 	O 	0.19697 0.19492 0.23015 -0.30800
O 	O 	0.15883 0.17020 0.16059 -0.33100
C 	C 	0.17371 0.19931 0.18259 0.31300
O 	O 	0.15777 0.07833 0.23092 -0.39600
O 	O 	0.16508 0.06378 0.34334 -0.45400
C 	C 	0.15692 0.05471 0.27977 0.27800
C 	C 	0.24532 0.10364 0.23125 0.31100
O 	O 	0.18315 0.14224 0.37917 -0.44600
O 	O 	0.23328 0.11226 0.17121 -0.28900
O 	O 	0.22761 0.11606 0.28266 -0.54600
C 	C 	0.14901 0.14631 0.38030 0.28100
O 	O 	0.13341 0.14466 0.32117 -0.38800
Cd	Cd	0.02775 0.17324 0.00632 1.24500
Cd	Cd	0.01819 0.11883 0.85726 1.16500
O 	O 	0.05057 0.23176 0.98223 -0.31500
O 	O 	0.03449 0.21775 0.08622 -0.32000
C 	C 	0.04738 0.24133 0.04570 0.32200
O 	O 	0.99781 0.12535 0.04213 -0.38100
O 	O 	0.01785 0.08900 0.95511 -0.45800
C 	C 	0.99655 0.09495 0.00724 0.28000
C 	C 	0.97074 0.18599 0.91637 0.29500
O 	O 	0.06703 0.14563 0.90789 -0.44700
O 	O 	0.96580 0.20202 0.97515 -0.29400
O 	O 	0.00080 0.17018 0.90891 -0.54700
C 	C 	0.08706 0.13324 0.95598 0.29400
O 	O 	0.08008 0.14391 0.01803 -0.34600
C 	C 	0.07339 0.37433 0.99409 0.14900
N 	N 	0.06055 0.40682 0.01008 -0.12500
C 	C 	0.05404 0.43024 0.96012 0.12400
N 	N 	0.06304 0.42208 0.89454 -0.14100
C 	C 	0.07707 0.39003 0.87855 0.13400
N 	N 	0.08180 0.36605 0.92818 -0.13200
C 	C 	0.11883 0.33050 0.26983 0.16900
N 	N 	0.12653 0.33199 0.33761 -0.13700
C 	C 	0.11415 0.35897 0.37749 0.13800
N 	N 	0.09383 0.38431 0.34954 -0.14300
C 	C 	0.08562 0.38274 0.28210 0.14100
N 	N 	0.09823 0.35585 0.24208 -0.12700
Cd	Cd	0.11956 0.95544 0.74567 1.24200
Cd	Cd	0.06394 0.97143 0.88908 1.16000
O 	O 	0.17020 0.91755 0.76955 -0.31400
O 	O 	0.16154 0.93822 0.66746 -0.34600
C 	C 	0.18254 0.92147 0.70851 0.31700
O 	O 	0.07192 0.98245 0.70151 -0.38200
O 	O 	0.05514 0.00876 0.80291 -0.45400
C 	C 	0.04791 0.99920 0.73931 0.26800
C 	C 	0.07260 0.90235 0.78786 0.31200
O 	O 	0.12310 0.98291 0.87003 -0.45800
O 	O 	0.08439 0.89430 0.72674 -0.30500
O 	O 	0.08668 0.92950 0.81756 -0.55500
C 	C 	0.13656 0.01104 0.84334 0.30700
O 	O 	0.14265 0.00935 0.77792 -0.35400
Cd	Cd	0.23958 0.95380 0.50677 1.24200
Cd	Cd	0.18558 0.94966 0.36207 1.17800
O 	O 	0.30071 0.93301 0.49704 -0.30800
O 	O 	0.28163 0.96062 0.58912 -0.32700
C 	C 	0.30808 0.94617 0.55697 0.31200
O 	O 	0.19029 0.98297 0.53715 -0.38300
O 	O 	0.15395 0.95463 0.45980 -0.45400
C 	C 	0.15842 0.97630 0.51277 0.29200
C 	C 	0.25159 0.00344 0.40091 0.25200
O 	O 	0.21590 0.90602 0.41956 -0.45200
O 	O 	0.26356 0.01443 0.46007 -0.31700
O 	O 	0.23786 0.97207 0.40121 -0.52500
C 	C 	0.20489 0.88826 0.47161 0.29600
O 	O 	0.21318 0.90080 0.53190 -0.33800
C 	C 	0.32804 0.92261 0.76998 0.17500
N 	N 	0.35339 0.93769 0.73136 -0.12600
C 	C 	0.38580 0.94406 0.75783 0.14400
N 	N 	0.39284 0.93558 0.82331 -0.14400
C 	C 	0.36775 0.92035 0.86229 0.13800
N 	N 	0.33524 0.91399 0.83557 -0.13400
C 	C 	0.43197 0.97949 0.45719 0.16700
N 	N 	0.42210 0.96791 0.39406 -0.13600
C 	C 	0.44266 0.97440 0.33915 0.13600
N 	N 	0.47344 0.99224 0.34753 -0.14500
C 	C 	0.48277 0.00493 0.41049 0.14400
N 	N 	0.46224 0.99801 0.46537 -0.13900
C 	C 	0.37421 0.91584 0.93610 -0.04100
C 	C 	0.40730 0.90381 0.95959 0.09600
C 	C 	0.41732 0.91086 0.02748 -0.07400
C 	C 	0.39362 0.92669 0.07371 -0.00900
C 	C 	0.35874 0.93397 0.05255 0.08400
C 	C 	0.34958 0.92920 0.98347 -0.06100
N 	N 	0.42911 0.88491 0.91766 -0.19700
H 	H 	0.44359 0.90396 0.04441 0.05800
C 	C 	0.40651 0.93851 0.14198 -0.00300
N 	N 	0.33404 0.94552 0.09812 -0.19500
H 	H 	0.32370 0.93720 0.96618 0.06200
C 	C 	0.41156 0.97467 0.15493 -0.08300
C 	C 	0.42215 0.98707 0.21975 0.10000
C 	C 	0.43116 0.96255 0.27050 -0.04500
C 	C 	0.42708 0.92631 0.25695 -0.05000
C 	C 	0.41390 0.91405 0.19379 0.07600
H 	H 	0.40576 0.99334 0.11525 0.05900
N 	N 	0.42209 0.02235 0.23373 -0.19700
H 	H 	0.43339 0.90762 0.29630 0.06400
N 	N 	0.40774 0.87897 0.18385 -0.19400
H 	H 	0.41722 0.04028 0.19502 0.09100
H 	H 	0.42457 0.03223 0.28358 0.09600
H 	H 	0.41403 0.86107 0.22186 0.09700
H 	H 	0.39581 0.86921 0.13937 0.09600
H 	H 	0.30871 0.95206 0.08170 0.09000
H 	H 	0.33928 0.94686 0.15043 0.09300
H 	H 	0.42061 0.87560 0.86990 0.10200
H 	H 	0.45420 0.87759 0.93420 0.09100
C 	C 	0.40277 0.93752 0.53417 0.08100
C 	C 	0.40932 0.97258 0.51608 -0.06000
C 	C 	0.38757 0.99961 0.54258 0.07700
C 	C 	0.35524 0.99084 0.57290 0.10100
C 	C 	0.34472 0.95522 0.57406 -0.09800
C 	C 	0.37052 0.92894 0.56486 0.10400
Br	Br	0.35966 0.88082 0.58573 -0.17800
Br	Br	0.43647 0.90119 0.51099 -0.20500
Br	Br	0.32483 0.02738 0.60892 -0.18300
Br	Br	0.40064 0.04828 0.53208 -0.21600
C 	C 	0.24028 0.89108 0.69922 0.11100
C 	C 	0.22101 0.92284 0.69954 -0.11700
C 	C 	0.23848 0.95477 0.71499 0.10800
C 	C 	0.27253 0.95433 0.74294 0.09000
C 	C 	0.29134 0.92244 0.74564 -0.05300
C 	C 	0.27546 0.89082 0.72249 0.08300
Br	Br	0.30106 0.84700 0.72660 -0.17100
Br	Br	0.21778 0.84782 0.67009 -0.18800
Br	Br	0.29240 0.99699 0.78200 -0.19400
Br	Br	0.21616 0.99909 0.69628 -0.23200
C 	C 	0.08518 0.38049 0.80681 -0.04400
C 	C 	0.05851 0.37974 0.75620 0.10400
C 	C 	0.06781 0.37393 0.68748 -0.08300
C 	C 	0.10283 0.36687 0.66892 -0.00500
C 	C 	0.12918 0.36552 0.72000 0.07700
C 	C 	0.12012 0.37279 0.78844 -0.05100
N 	N 	0.02395 0.38356 0.77335 -0.19900
H 	H 	0.04762 0.37440 0.64836 0.05900
C 	C 	0.11171 0.36227 0.59548 -0.00300
N 	N 	0.16305 0.35703 0.70386 -0.19400
H 	H 	0.14037 0.37264 0.82748 0.06500
C 	C 	0.12533 0.39100 0.56012 -0.08600
C 	C 	0.13002 0.38901 0.48901 0.10700
C 	C 	0.11893 0.35844 0.45234 -0.04900
C 	C 	0.10762 0.32886 0.48818 -0.04900
C 	C 	0.10423 0.33034 0.55963 0.07200
H 	H 	0.13217 0.41503 0.58798 0.06000
N 	N 	0.14579 0.41613 0.45650 -0.19900
H 	H 	0.10026 0.30503 0.46029 0.05300
N 	N 	0.09375 0.30113 0.59334 -0.19400
H 	H 	0.15254 0.43923 0.48338 0.09300
H 	H 	0.15309 0.41385 0.40520 0.10400
H 	H 	0.08737 0.27796 0.56630 0.08800
H 	H 	0.09279 0.30079 0.64658 0.09300
H 	H 	0.18243 0.35673 0.74172 0.09700
H 	H 	0.17035 0.34991 0.65408 0.09500
H 	H 	0.01574 0.38402 0.82421 0.10000
H 	H 	0.00463 0.38441 0.73542 0.09200
C 	C 	0.12940 0.04504 0.95196 -0.04800
C 	C 	0.14004 0.04421 0.88335 -0.11400
C 	C 	0.14691 0.07643 0.85104 0.09100
C 	C 	0.13177 0.10736 0.87801 -0.05500
C 	C 	0.11438 0.10676 0.94110 -0.09700
C 	C 	0.11806 0.07680 0.98230 0.06800
C 	C 	0.11168 0.07896 0.05824 -0.19100
H 	H 	0.12846 0.02088 0.98056 0.02100
H 	H 	0.13269 0.13149 0.84933 0.04900
C 	C 	0.17256 0.07847 0.79259 -0.20900
H 	H 	0.11997 0.05439 0.08373 0.06700
H 	H 	0.08333 0.08319 0.06892 0.07700
H 	H 	0.12707 0.10110 0.08116 0.09300
H 	H 	0.15904 0.07260 0.74362 0.08700
H 	H 	0.19449 0.05949 0.79955 0.11200
H 	H 	0.18434 0.10521 0.78991 0.08100
C 	C 	0.10210 0.32215 0.04346 0.08100
C 	C 	0.07439 0.34661 0.04602 -0.04500
C 	C 	0.04320 0.33730 0.08049 0.08200
C 	C 	0.03606 0.30151 0.09192 0.11200
C 	C 	0.06046 0.27569 0.07005 -0.10000
C 	C 	0.09472 0.28619 0.05094 0.10800
Br	Br	0.12858 0.25140 0.01996 -0.17300
Br	Br	0.14893 0.33760 0.02130 -0.16700
Br	Br	0.99094 0.28760 0.12772 -0.16700
Br	Br	0.01078 0.37294 0.11278 -0.20900
C 	C 	0.24908 0.03915 0.22492 -0.03800
C 	C 	0.26577 0.07135 0.24024 -0.13400
C 	C 	0.29188 0.07172 0.29123 0.06700
C 	C 	0.29040 0.04634 0.34218 -0.08500
C 	C 	0.26554 0.01894 0.33716 -0.11700
C 	C 	0.24978 0.01206 0.27286 0.03400
C 	C 	0.23845 0.97548 0.25170 -0.16200
H 	H 	0.23273 0.03651 0.17974 0.04400
H 	H 	0.30664 0.04931 0.38743 0.05900
C 	C 	0.31658 0.10251 0.29893 -0.20200
H 	H 	0.24190 0.97121 0.19581 0.05700
H 	H 	0.21035 0.97191 0.26386 -0.04900
H 	H 	0.25445 0.95517 0.27751 0.04800
H 	H 	0.30468 0.12288 0.33335 0.06000
H 	H 	0.32203 0.11429 0.24855 0.08500
H 	H 	0.34209 0.09389 0.32083 0.07900
C 	C 	0.11982 0.23636 0.20470 0.11100
C 	C 	0.15488 0.23352 0.18013 -0.09700
C 	C 	0.17476 0.26451 0.17160 0.11500
C 	C 	0.16232 0.29702 0.19815 0.08600
C 	C 	0.12888 0.29902 0.22892 -0.05500
C 	C 	0.10686 0.26924 0.22820 0.07800
Br	Br	0.05942 0.27330 0.26269 -0.19800
Br	Br	0.08992 0.19533 0.20936 -0.22800
Br	Br	0.19195 0.33825 0.19658 -0.17300
Br	Br	0.21937 0.26206 0.12479 -0.16000
C 	C 	0.68306 0.10482 0.40358 -0.04500
C 	C 	0.65399 0.12550 0.42503 0.11200
C 	C 	0.62214 0.10886 0.44130 -0.08100
C 	C 	0.61843 0.07223 0.43261 -0.00400
C 	C 	0.64840 0.05137 0.41614 0.08500
C 	C 	0.68077 0.06798 0.40439 -0.04700
N 	N 	0.65627 0.16126 0.42882 -0.19800
H 	H 	0.59957 0.12465 0.45683 0.06200
C 	C 	0.58247 0.05700 0.43087 -0.00300
N 	N 	0.64608 0.01566 0.40933 -0.19300
H 	H 	0.70359 0.05222 0.39023 0.07300
C 	C 	0.56030 0.06479 0.37596 -0.08600
C 	C 	0.52613 0.05091 0.37242 0.10700
C 	C 	0.51569 0.02523 0.41981 -0.05000
C 	C 	0.53745 0.01817 0.47585 -0.04600
C 	C 	0.57016 0.03499 0.48328 0.07400
H 	H 	0.56921 0.08278 0.33724 0.05900
N 	N 	0.50289 0.06393 0.32656 -0.19800
H 	H 	0.52895 0.99954 0.51375 0.05300
N 	N 	0.58978 0.02957 0.54011 -0.19500
H 	H 	0.51146 0.08078 0.28841 0.09000
H 	H 	0.47584 0.06015 0.33222 0.09700
H 	H 	0.58136 0.01191 0.57699 0.10000
H 	H 	0.61269 0.04394 0.54961 0.11700
H 	H 	0.66855 0.00059 0.39853 0.10500
H 	H 	0.62211 0.00249 0.41353 0.10100
H 	H 	0.68019 0.17420 0.42122 0.11800
H 	H 	0.63419 0.17649 0.44162 0.10800
C 	C 	0.56548 0.06623 0.71309 -0.05000
C 	C 	0.54348 0.07228 0.65588 0.10700
C 	C 	0.51311 0.05158 0.64623 -0.08900
C 	C 	0.50139 0.02929 0.69776 -0.00200
C 	C 	0.52155 0.02591 0.75812 0.07300
C 	C 	0.55407 0.04319 0.76377 -0.05000
N 	N 	0.55016 0.09905 0.61260 -0.19900
H 	H 	0.49742 0.05448 0.60043 0.06800
C 	C 	0.46826 0.00916 0.68802 0.00400
N 	N 	0.50978 0.00630 0.81092 -0.19100
H 	H 	0.57050 0.03873 0.80803 0.05500
C 	C 	0.47037 0.97268 0.67525 -0.08600
C 	C 	0.44238 0.95054 0.69333 0.11300
C 	C 	0.41110 0.96558 0.72019 -0.05100
C 	C 	0.40698 0.00229 0.72168 -0.04100
C 	C 	0.43543 0.02436 0.70640 0.08400
H 	H 	0.49495 0.96125 0.65724 0.06300
N 	N 	0.44600 0.91497 0.68641 -0.19900
H 	H 	0.38231 0.01373 0.73918 0.07600
N 	N 	0.43139 0.05995 0.71143 -0.19100
H 	H 	0.46975 0.90397 0.66927 0.10700
H 	H 	0.42500 0.89800 0.69592 0.11600
H 	H 	0.40728 0.07089 0.72665 0.10600
H 	H 	0.45167 0.07710 0.69844 0.10000
H 	H 	0.52545 0.00298 0.85418 0.08900
H 	H 	0.48461 0.99527 0.81087 0.09000
H 	H 	0.56716 0.11961 0.62635 0.10600
H 	H 	0.53590 0.10119 0.56723 0.09400
C 	C 	0.73934 0.12685 0.18773 -0.04900
C 	C 	0.73662 0.15644 0.14525 0.10600
C 	C 	0.72491 0.15177 0.07760 -0.09000
C 	C 	0.71524 0.11821 0.05254 0.00100
C 	C 	0.72081 0.08829 0.09336 0.06900
C 	C 	0.73373 0.09294 0.16002 -0.05000
N 	N 	0.74482 0.18933 0.16921 -0.20100
H 	H 	0.72196 0.17446 0.04529 0.06100
C 	C 	0.69798 0.11491 0.98475 -0.01200
N 	N 	0.71291 0.05522 0.06974 -0.19500
H 	H 	0.73696 0.07022 0.19219 0.05900
C 	C 	0.71743 0.10154 0.92917 -0.08400
C 	C 	0.70074 0.09314 0.86707 0.10600
C 	C 	0.66527 0.10363 0.85689 -0.04800
C 	C 	0.64613 0.11840 0.91172 -0.05100
C 	C 	0.66180 0.12310 0.97626 0.07100
H 	H 	0.74499 0.09490 0.93603 0.04700
N 	N 	0.71805 0.07314 0.81943 -0.19900
H 	H 	0.61891 0.12614 0.90432 0.05400
N 	N 	0.64194 0.13514 0.02971 -0.19100
H 	H 	0.74514 0.06897 0.82370 0.09800
H 	H 	0.70441 0.05903 0.78156 0.10800
H 	H 	0.61545 0.14164 0.02257 0.09200
H 	H 	0.65223 0.13749 0.07897 0.09400
H 	H 	0.71776 0.03333 0.09991 0.09000
H 	H 	0.70150 0.05083 0.02189 0.09400
H 	H 	0.75508 0.19341 0.21817 0.11000
H 	H 	0.74180 0.21119 0.13810 0.09700
C 	C 	0.11167 0.19572 0.42020 -0.04500
C 	C 	0.13209 0.16614 0.43646 -0.09600
C 	C 	0.12527 0.14933 0.49846 0.05400
C 	C 	0.09217 0.15419 0.52937 -0.03400
C 	C 	0.06679 0.17482 0.49677 -0.12000
C 	C 	0.07866 0.20040 0.45121 0.08900
C 	C 	0.05433 0.22896 0.42770 -0.21100
H 	H 	0.11908 0.21188 0.37747 0.06400
H 	H 	0.08478 0.13859 0.57269 0.04400
C 	C 	0.15139 0.12404 0.52803 -0.18000
H 	H 	0.03931 0.21942 0.38238 0.10400
H 	H 	0.06958 0.25275 0.41404 0.09100
H 	H 	0.03557 0.23670 0.46890 0.08600
H 	H 	0.17834 0.12852 0.50806 0.03100
H 	H 	0.14335 0.09652 0.51558 0.04400
H 	H 	0.15274 0.12803 0.58420 0.06100
C 	C 	0.06345 0.99895 0.53870 -0.04200
C 	C 	0.06679 0.03392 0.56241 -0.08700
C 	C 	0.09830 0.04371 0.59590 0.08500
C 	C 	0.12902 0.02367 0.58402 -0.05200
C 	C 	0.12679 0.99120 0.54844 -0.08700
C 	C 	0.09299 0.97643 0.53732 0.03800
C 	C 	0.08744 0.93728 0.54307 -0.17000
H 	H 	0.03833 0.98938 0.52052 0.02200
H 	H 	0.15430 0.03350 0.60160 0.05800
C 	C 	0.09809 0.07213 0.65047 -0.19400
H 	H 	0.06091 0.92952 0.52418 -0.03000
H 	H 	0.08938 0.92996 0.59751 0.06100
H 	H 	0.10718 0.92175 0.51376 -0.00500
H 	H 	0.07504 0.08991 0.64577 0.06800
H 	H 	0.12234 0.08819 0.64781 0.06100
H 	H 	0.09698 0.05977 0.70129 0.07100
C 	C 	0.82152 0.16468 0.42673 0.08600
C 	C 	0.80779 0.13312 0.39878 -0.05300
C 	C 	0.82495 0.10096 0.41048 0.09100
C 	C 	0.85459 0.10005 0.45333 0.11500
C 	C 	0.86981 0.13179 0.47778 -0.11000
C 	C 	0.85199 0.16387 0.46772 0.11400
Br	Br	0.87002 0.20677 0.50885 -0.17600
Br	Br	0.80047 0.20916 0.40372 -0.17400
Br	Br	0.87073 0.05551 0.48685 -0.19700
Br	Br	0.80868 0.05833 0.36535 -0.18000
C 	C 	0.95530 0.00733 0.67045 -0.04000
C 	C 	0.94850 0.04297 0.68602 -0.09500
C 	C 	0.97692 0.06557 0.70227 0.02600
C 	C 	0.01045 0.05125 0.71447 -0.04100
C 	C 	0.01653 0.01490 0.70621 -0.08900
C 	C 	0.98940 0.99323 0.67905 0.03900
C 	C 	0.99572 0.95458 0.66520 -0.18300
H 	H 	0.93374 0.99013 0.65540 0.02100
H 	H 	0.03127 0.06816 0.73412 -0.01500
C 	C 	0.97110 0.10455 0.71209 -0.17700
H 	H 	0.97304 0.94197 0.63850 0.04900
H 	H 	0.99976 0.94125 0.71433 0.03500
H 	H 	0.01933 0.95079 0.63245 0.06900
H 	H 	0.96039 0.10998 0.76400 -0.03900
H 	H 	0.95236 0.11433 0.67333 0.06300
H 	H 	0.99612 0.11932 0.70603 0.01500
C 	C 	0.90925 0.19058 0.87563 -0.05700
C 	C 	0.94526 0.18911 0.86023 -0.12500
C 	C 	0.95611 0.18957 0.79104 0.04700
C 	C 	0.93110 0.18278 0.73963 -0.03700
C 	C 	0.89588 0.17687 0.75726 -0.11800
C 	C 	0.88437 0.18626 0.82362 0.05100
C 	C 	0.84569 0.18808 0.84055 -0.18900
H 	H 	0.90062 0.19351 0.92822 0.04100
H 	H 	0.93950 0.17930 0.68701 0.05000
C 	C 	0.99368 0.19750 0.77175 -0.16900
H 	H 	0.84074 0.20848 0.88093 0.07300
H 	H 	0.83665 0.16216 0.85918 0.02900
H 	H 	0.82997 0.19525 0.79504 0.09000
H 	H 	0.99534 0.20691 0.71850 0.06900
H 	H 	0.01001 0.17336 0.77561 -0.00500
H 	H 	0.00469 0.21858 0.80564 0.07900
C 	C 	0.72284 0.14096 0.56516 0.10400
C 	C 	0.74589 0.11196 0.56223 -0.09800
C 	C 	0.73111 0.07795 0.56061 0.10000
C 	C 	0.69736 0.07293 0.58823 0.07700
C 	C 	0.67741 0.10256 0.60933 -0.06300
C 	C 	0.68825 0.13624 0.58916 0.08200
Br	Br	0.65756 0.17612 0.60392 -0.20600
Br	Br	0.74044 0.18736 0.54740 -0.17200
Br	Br	0.68153 0.02611 0.60898 -0.22600
Br	Br	0.75817 0.03829 0.52727 -0.18500
C 	C 	0.06073 0.40863 0.25411 -0.03800
C 	C 	0.02831 0.41560 0.28738 0.11700
C 	C 	0.01081 0.44753 0.27604 -0.08400
C 	C 	0.02340 0.47101 0.22731 -0.00000
C 	C 	0.05250 0.46107 0.18585 0.08200
C 	C 	0.07163 0.43040 0.20105 -0.04200
N 	N 	0.01373 0.39153 0.32943 -0.19900
H 	H 	0.98767 0.45439 0.30597 0.06200
C 	C 	0.00941 0.50767 0.22736 -0.00700
N 	N 	0.06206 0.48072 0.13163 -0.19300
H 	H 	0.09544 0.42403 0.17278 0.06700
C 	C 	0.03119 0.53527 0.25057 -0.08500
C 	C 	0.01739 0.56909 0.26368 0.10700
C 	C 	0.98116 0.57558 0.25180 -0.04600
C 	C 	0.95966 0.54841 0.22599 -0.05300
C 	C 	0.97349 0.51452 0.21306 0.07500
H 	H 	0.05870 0.53002 0.26132 0.06100
N 	N 	0.03883 0.59487 0.28935 -0.19700
H 	H 	0.93206 0.55360 0.21604 0.05500
N 	N 	0.95219 0.48875 0.18715 -0.19500
H 	H 	0.06560 0.58991 0.29715 0.09800
H 	H 	0.02922 0.61988 0.30258 0.11000
H 	H 	0.92532 0.49348 0.18015 0.09000
H 	H 	0.96225 0.46426 0.17153 0.10100
H 	H 	0.08412 0.47381 0.10236 0.09900
H 	H 	0.04677 0.50204 0.11620 0.09400
H 	H 	0.02416 0.36614 0.33299 0.11300
H 	H 	0.99058 0.39744 0.35622 0.09900
C 	C 	0.90551 0.59814 0.96398 -0.05100
C 	C 	0.90007 0.56523 0.93053 0.10600
C 	C 	0.92502 0.53837 0.93788 -0.08500
C 	C 	0.95298 0.54241 0.98418 -0.00800
C 	C 	0.95566 0.57364 0.02467 0.08400
C 	C 	0.93213 0.60147 0.01348 -0.04300
N 	N 	0.87061 0.55911 0.89265 -0.19900
H 	H 	0.92240 0.51402 0.90831 0.05800
C 	C 	0.98021 0.51454 0.98702 -0.01500
N 	N 	0.98093 0.57723 0.07353 -0.19500
H 	H 	0.93551 0.62625 0.04128 0.07600
C 	C 	0.01424 0.52171 0.96286 -0.08200
C 	C 	0.03970 0.49493 0.95828 0.09600
C 	C 	0.03017 0.46001 0.97420 -0.03800
C 	C 	0.99633 0.45298 0.99902 -0.07400
C 	C 	0.97153 0.48004 0.00733 0.09400
H 	H 	0.02091 0.54823 0.94772 0.06000
N 	N 	0.07327 0.50301 0.94004 -0.19900
H 	H 	0.98889 0.42612 0.01000 0.08000
N 	N 	0.93931 0.47267 0.03390 -0.19800
H 	H 	0.07979 0.52869 0.92635 0.09300
H 	H 	0.09346 0.48436 0.94196 0.09700
H 	H 	0.93253 0.44676 0.04544 0.09600
H 	H 	0.92144 0.49265 0.04676 0.09400
H 	H 	0.98399 0.60113 0.10035 0.11300
H 	H 	0.99695 0.55611 0.08702 0.09700
H 	H 	0.84960 0.57692 0.89340 0.09800
H 	H 	0.86759 0.53538 0.86521 0.09100
C 	C 	0.87618 0.67288 0.77221 -0.04600
C 	C 	0.85939 0.64871 0.72689 0.10600
C 	C 	0.86892 0.64779 0.65762 -0.08400
C 	C 	0.89359 0.67173 0.63241 -0.00400
C 	C 	0.90686 0.69887 0.67598 0.07500
C 	C 	0.89835 0.69891 0.74586 -0.05000
N 	N 	0.83393 0.62660 0.74952 -0.19900
H 	H 	0.85757 0.62800 0.62350 0.05900
C 	C 	0.90708 0.66657 0.56175 -0.00300
N 	N 	0.92813 0.72450 0.65136 -0.19400
H 	H 	0.91031 0.71821 0.78023 0.06200
C 	C 	0.88622 0.67728 0.50685 -0.08600
C 	C 	0.89671 0.67020 0.43913 0.11100
C 	C 	0.92981 0.65406 0.42626 -0.04800
C 	C 	0.95086 0.64371 0.48118 -0.05000
C 	C 	0.93958 0.64922 0.54888 0.07400
H 	H 	0.86115 0.69011 0.51687 0.06200
N 	N 	0.87437 0.67768 0.38710 -0.19900
H 	H 	0.97608 0.63117 0.47123 0.05300
N 	N 	0.95993 0.63760 0.60103 -0.19400
H 	H 	0.85077 0.69109 0.39681 0.10500
H 	H 	0.87920 0.66867 0.33729 0.11700
H 	H 	0.98405 0.62524 0.59095 0.09100
H 	H 	0.95192 0.64021 0.65184 0.09500
H 	H 	0.93865 0.74383 0.68422 0.09200
H 	H 	0.93367 0.72608 0.59931 0.09500
H 	H 	0.82390 0.62903 0.79905 0.09900
H 	H 	0.82274 0.60773 0.71653 0.09200
C 	C 	0.96434 0.00199 0.03549 -0.04600
C 	C 	0.92786 0.00733 0.03246 -0.10100
C 	C 	0.91439 0.04207 0.03888 0.05900
C 	C 	0.93762 0.07099 0.03743 -0.06100
C 	C 	0.97407 0.06564 0.03142 -0.09600
C 	C 	0.98764 0.03084 0.03545 0.04500
C 	C 	0.02677 0.02421 0.03791 -0.15800
H 	H 	0.97472 0.97534 0.03330 0.01400
H 	H 	0.92714 0.09759 0.03673 0.02500
C 	C 	0.87531 0.04851 0.04388 -0.18000
H 	H 	0.03275 0.99682 0.05328 0.01400
H 	H 	0.03909 0.04229 0.07604 0.05800
H 	H 	0.03875 0.02800 0.98691 -0.00600
H 	H 	0.86310 0.02945 0.07905 0.08000
H 	H 	0.86313 0.04570 0.99254 0.02300
H 	H 	0.86956 0.07543 0.06440 0.05600
C 	C 	0.79233 0.95054 0.82039 -0.04900
C 	C 	0.80235 0.95450 0.88895 -0.11500
C 	C 	0.79962 0.98814 0.92045 0.08200
C 	C 	0.79938 0.01791 0.87935 -0.05600
C 	C 	0.79838 0.01368 0.80797 -0.11000
C 	C 	0.78902 0.98034 0.77978 0.07400
C 	C 	0.77474 0.97640 0.70827 -0.20300
H 	H 	0.79017 0.92438 0.79740 0.04700
H 	H 	0.80190 0.04399 0.90251 0.01800
C 	C 	0.79793 0.99238 0.99695 -0.23500
H 	H 	0.75732 0.95294 0.70367 0.08400
H 	H 	0.79680 0.97301 0.67149 0.09100
H 	H 	0.75868 0.99975 0.69474 0.10600
H 	H 	0.82434 0.98796 0.01932 0.09400
H 	H 	0.77909 0.97309 0.01819 0.10200
H 	H 	0.78880 0.01921 0.01248 0.08100
C 	C 	0.01445 0.88218 0.92976 -0.06500
C 	C 	0.98181 0.88569 0.89696 -0.10900
C 	C 	0.98006 0.88085 0.82487 0.03700
C 	C 	0.01156 0.88014 0.78704 -0.03400
C 	C 	0.04400 0.88314 0.82055 -0.13200
C 	C 	0.04530 0.87852 0.89158 0.05900
C 	C 	0.07996 0.87353 0.92762 -0.19400
H 	H 	0.01589 0.88284 0.98507 0.04900
H 	H 	0.01069 0.87953 0.73172 0.03500
C 	C 	0.94548 0.87547 0.78828 -0.15900
H 	H 	0.07649 0.85655 0.97268 0.08100
H 	H 	0.09038 0.89952 0.94515 0.02800
H 	H 	0.09952 0.86049 0.89326 0.08900
H 	H 	0.92843 0.85690 0.81635 0.07600
H 	H 	0.94959 0.86384 0.73636 0.05700
H 	H 	0.93193 0.90116 0.78265 -0.03300
C 	C 	0.84142 0.73509 0.03170 0.08600
C 	C 	0.87263 0.71990 0.00599 -0.04400
C 	C 	0.90478 0.73745 0.01619 0.08400
C 	C 	0.90476 0.77330 0.03533 0.11400
C 	C 	0.87256 0.79054 0.04987 -0.09400
C 	C 	0.84184 0.77019 0.05664 0.11300
Br	Br	0.79977 0.79162 0.09336 -0.17400
Br	Br	0.79834 0.70834 0.03058 -0.17700
Br	Br	0.94772 0.79994 0.02955 -0.16700
Br	Br	0.94861 0.71274 0.00126 -0.18300
C 	C 	0.10355 0.97199 0.30992 -0.05000
C 	C 	0.11750 0.94906 0.25971 -0.17200
C 	C 	0.13925 0.96284 0.20800 0.05800
C 	C 	0.14926 0.99873 0.21139 -0.08400
C 	C 	0.13876 0.02041 0.26680 -0.10300
C 	C 	0.11370 0.00747 0.31369 0.02100
C 	C 	0.09879 0.03075 0.36974 -0.14900
H 	H 	0.08569 0.96185 0.34795 -0.04800
H 	H 	0.16716 0.00902 0.17355 0.04900
C 	C 	0.15343 0.93922 0.15165 -0.19800
H 	H 	0.07180 0.02224 0.38384 0.00500
H 	H 	0.09711 0.05836 0.35289 -0.04400
H 	H 	0.11583 0.02951 0.41564 0.04200
H 	H 	0.13132 0.92639 0.12362 0.07500
H 	H 	0.17072 0.91868 0.17349 0.05500
H 	H 	0.16913 0.95425 0.11424 0.06400
C 	C 	0.00398 0.01674 0.30376 -0.04500
C 	C 	0.98874 0.01855 0.36891 -0.12600
C 	C 	0.98399 0.98709 0.40611 0.08300
C 	C 	0.99198 0.95458 0.37519 -0.05600
C 	C 	0.00621 0.95262 0.30946 -0.11900
C 	C 	0.01308 0.98398 0.27376 0.07700
C 	C 	0.02829 0.98277 0.20267 -0.20400
H 	H 	0.00784 0.04073 0.27554 0.01000
H 	H 	0.98732 0.93051 0.40280 0.02700
C 	C 	0.96896 0.98756 0.47767 -0.21200
H 	H 	0.00740 0.97502 0.16570 0.08300
H 	H 	0.05039 0.96371 0.19863 0.07500
H 	H 	0.03888 0.00890 0.18846 0.06400
H 	H 	0.93976 0.98852 0.47542 0.10300
H 	H 	0.97896 0.01029 0.50833 0.08800
H 	H 	0.97659 0.96343 0.50532 0.06100
C 	C 	0.15751 0.81717 0.37711 -0.03600
C 	C 	0.12469 0.82120 0.40927 -0.10000
C 	C 	0.12390 0.83391 0.47766 0.05100
C 	C 	0.15276 0.85307 0.50301 -0.04200
C 	C 	0.18291 0.85669 0.46254 -0.09700
C 	C 	0.18707 0.83453 0.40424 0.08000
C 	C 	0.22206 0.83120 0.36840 -0.19700
H 	H 	0.15941 0.80345 0.32814 0.05900
H 	H 	0.15066 0.86732 0.55142 0.06100
C 	C 	0.09182 0.82931 0.52179 -0.18500
H 	H 	0.22388 0.85115 0.32785 0.06900
H 	H 	0.22498 0.80453 0.34456 0.08100
H 	H 	0.24418 0.83500 0.40493 0.09400
H 	H 	0.07608 0.80614 0.50439 0.08000
H 	H 	0.07522 0.85340 0.52030 0.02600
H 	H 	0.09977 0.82488 0.57552 0.08100
C 	C 	0.95441 0.76370 0.19465 0.11100
C 	C 	0.99007 0.77082 0.17979 -0.08900
C 	C 	0.01287 0.74225 0.16454 0.10900
C 	C 	0.00284 0.70776 0.18175 0.08400
C 	C 	0.96858 0.70162 0.20717 -0.05000
C 	C 	0.94338 0.72871 0.20357 0.08500
Br	Br	0.89401 0.71764 0.20927 -0.18700
Br	Br	0.92173 0.80199 0.21070 -0.16200
Br	Br	0.03627 0.66966 0.17192 -0.20000
Br	Br	0.05724 0.75000 0.11937 -0.17600
