data_crystal

_cell_length_a 23.98366
_cell_length_b 25.18714
_cell_length_c 39.50171
_cell_angle_alpha 91.22183
_cell_angle_beta  91.50893
_cell_angle_gamma 116.45658

_symmetry_space_group_name_	'P 1'
_symmetry_space_group_name_H-M	'P 1'

loop_
_symmetry_equiv_pos_as_xyz
  x,y,z

loop_
_atom_site_label
_atom_site_type_symbol
_atom_site_fract_x
_atom_site_fract_y
_atom_site_fract_z
_atom_site_charge
C 	C 	0.11141 0.01679 0.19516 0.77500
Ni	Ni	0.02629 0.05272 0.31668 1.11000
C 	C 	0.01385 0.99006 0.43842 0.26900
O 	O 	0.08476 0.58276 0.34974 -0.69000
C 	C 	0.09568 0.53564 0.42732 0.29100
O 	O 	0.03008 0.45207 0.64234 -0.69400
H 	H 	0.04176 0.41912 0.64395 0.20600
C 	C 	0.10048 0.48196 0.47831 0.07200
C 	C 	0.10087 0.47734 0.51376 -0.07900
C 	C 	0.06636 0.32491 0.26986 0.78300
H 	H 	0.00985 0.11981 0.68919 0.22400
H 	H 	0.07754 0.22430 0.28245 0.11600
O 	O 	0.02701 0.96865 0.25844 -0.32700
O 	O 	0.04242 0.03760 0.36438 -0.70000
O 	O 	0.01485 0.95012 0.41659 -0.23400
C 	C 	0.08634 0.17677 0.34105 0.30200
Ni	Ni	0.10631 0.51342 0.35445 1.11300
O 	O 	0.08332 0.53805 0.23951 -0.27800
Ni	Ni	0.01197 0.61983 0.04342 1.09000
O 	O 	0.01399 0.08278 0.69218 -0.69100
C 	C 	0.03088 0.04012 0.57716 0.27000
C 	C 	0.08776 0.51794 0.56985 0.29700
C 	C 	0.10985 0.53545 0.46379 0.02700
F 	F 	0.08843 0.64803 0.45733 -0.44900
C 	C 	0.03545 0.99252 0.47393 0.03600
C 	C 	0.04133 0.02082 0.54349 0.02700
C 	C 	0.09691 0.31233 0.30091 -0.07700
O 	O 	0.04199 0.15807 0.36359 -0.29700
C 	C 	0.04832 0.01261 0.18420 -0.05900
O 	O 	0.08891 0.13958 0.31770 -0.31700
C 	C 	0.09695 0.25681 0.30326 0.07300
O 	O 	0.01967 0.87564 0.30474 -0.35200
Ni	Ni	0.11236 0.49123 0.27279 1.14400
O 	O 	0.12787 0.44363 0.35452 -0.32400
O 	O 	0.13308 0.53076 0.40503 -0.30300
H 	H 	0.12303 0.61955 0.34587 0.20400
C 	C 	0.12860 0.41525 0.32601 0.28300
Ni	Ni	0.02014 0.11888 0.05538 1.11100
H 	H 	0.02372 0.53582 0.01572 0.18100
O 	O 	0.00758 0.02003 0.75488 -0.30900
O 	O 	0.06990 0.53344 0.68918 -0.69700
H 	H 	0.06301 0.56924 0.69173 0.24200
C 	C 	0.01908 0.55319 0.84735 -0.07100
C 	C 	0.03127 0.54244 0.81381 0.05300
F 	F 	0.02649 0.14191 0.77538 -0.47100
C 	C 	0.12572 0.58672 0.48482 -0.08100
C 	C 	0.10730 0.52631 0.53457 0.02200
F 	F 	0.13123 0.42878 0.55627 -0.40500
F 	F 	0.10508 0.47634 0.18734 -0.38200
F 	F 	0.11179 0.36042 0.24849 -0.39100
F 	F 	0.05584 0.64366 0.87983 -0.37500
C 	C 	0.03215 0.01029 0.14947 0.03800
H 	H 	0.06462 0.01150 0.13059 0.11000
F 	F 	0.14013 0.06156 0.21974 -0.39500
H 	H 	0.03023 0.03822 0.02373 0.22900
C 	C 	0.12228 0.58115 0.52015 0.07200
C 	C 	0.12434 0.35506 0.32799 0.02900
H 	H 	0.08712 0.04824 0.36853 0.21800
Ni	Ni	0.05086 0.06607 0.65077 1.11100
O 	O 	0.06791 0.04364 0.60321 -0.27500
Ni	Ni	0.10780 0.53220 0.64463 1.11300
O 	O 	0.05514 0.47902 0.75656 -0.30800
H 	H 	0.07703 0.56822 0.80401 0.11300
H 	H 	0.02607 0.10556 0.87204 0.11200
C 	C 	0.04611 0.12566 0.80495 0.76400
C 	C 	0.08196 0.04674 0.48728 0.05800
C 	C 	0.08574 0.06127 0.52215 -0.06600
C 	C 	0.11453 0.24010 0.33378 0.03200
Ni	Ni	0.01733 0.08587 0.39343 1.10800
O 	O 	0.06011 0.49440 0.30924 -0.68800
C 	C 	0.04121 0.44271 0.18385 0.78400
F 	F 	0.01320 0.31511 0.08677 -0.37300
C 	C 	0.14218 0.64646 0.46962 0.78000
H 	H 	0.12821 0.61873 0.53635 0.11200
C 	C 	0.06004 0.89609 0.33079 0.31300
O 	O 	0.06277 0.93943 0.35096 -0.32500
O 	O 	0.15081 0.44499 0.29831 -0.30600
O 	O 	0.06880 0.13550 0.97093 -0.29800
O 	O 	0.06619 0.63254 0.96040 -0.27200
Ni	Ni	0.07120 0.09324 0.73069 1.14300
O 	O 	0.06883 0.00022 0.67043 -0.36100
O 	O 	0.12942 0.52913 0.59466 -0.29900
F 	F 	0.11896 0.79925 0.98921 -0.40100
C 	C 	0.07116 0.59887 0.87014 0.78100
F 	F 	0.04201 0.25224 0.06067 -0.44000
F 	F 	0.07126 0.17515 0.82677 -0.37700
F 	F 	0.10579 0.15559 0.54609 -0.38200
F 	F 	0.12180 0.24081 0.41389 -0.40800
H 	H 	0.11158 0.07948 0.47007 0.10100
C 	C 	0.14826 0.34013 0.35718 0.06700
O 	O 	0.07923 0.18011 0.02350 -0.31100
O 	O 	0.06771 0.68069 0.01052 -0.33900
C 	C 	0.09729 0.66834 0.98620 0.27900
Ni	Ni	0.12613 0.53188 0.72535 1.12600
F 	F 	0.15000 0.68167 0.72028 -0.43800
F 	F 	0.08029 0.57220 0.89860 -0.42100
C 	C 	0.14496 0.28333 0.36000 -0.06700
F 	F 	0.04277 0.84012 0.39337 -0.40400
F 	F 	0.10356 0.96341 0.20806 -0.38500
F 	F 	0.10720 0.75467 0.93758 -0.36800
F 	F 	0.12706 0.62452 0.85390 -0.37700
F 	F 	0.15079 0.02926 0.16832 -0.38400
O 	O 	0.18819 0.56810 0.28688 -0.29800
O 	O 	0.19631 0.57124 0.34379 -0.33500
C 	C 	0.10427 0.16664 0.99718 0.28700
C 	C 	0.11161 0.00937 0.69430 0.32400
O 	O 	0.13572 0.16583 0.70927 -0.32200
O 	O 	0.12734 0.45664 0.70599 -0.32100
O 	O 	0.16530 0.49258 0.65468 -0.32600
F 	F 	0.09872 0.94098 0.75321 -0.39400
C 	C 	0.15014 0.79098 0.96221 0.78300
F 	F 	0.09229 0.10885 0.79793 -0.44300
F 	F 	0.18228 0.65575 0.44339 -0.43000
C 	C 	0.13449 0.12116 0.53608 0.78000
C 	C 	0.16983 0.26783 0.39208 0.78000
H 	H 	0.16823 0.37238 0.37801 0.14000
C 	C 	0.11039 0.87728 0.33341 0.01900
H 	H 	0.11057 0.86259 0.27937 0.13400
F 	F 	0.17142 0.69243 0.49350 -0.38200
O 	O 	0.12376 0.04976 0.71875 -0.28000
O 	O 	0.14359 0.12762 0.65696 -0.27200
F 	F 	0.18473 0.84552 0.94832 -0.36200
C 	C 	0.13451 0.86600 0.30358 0.07600
C 	C 	0.01924 0.01235 0.24512 0.29800
C 	C 	0.16202 0.45917 0.68046 0.29000
C 	C 	0.22023 0.57001 0.31454 0.29900
C 	C 	0.16984 0.16214 0.68443 0.29300
O 	O 	0.18396 0.61176 0.65161 -0.31700
C 	C 	0.20725 0.70341 0.73752 0.77600
F 	F 	0.21182 0.74818 0.76004 -0.38000
F 	F 	0.21016 0.65874 0.75610 -0.43500
H 	H 	0.14149 0.97019 0.63646 0.12000
C 	C 	0.16466 0.70338 0.98450 0.02200
H 	H 	0.16398 0.28190 0.98523 0.12000
F 	F 	0.14379 0.07356 0.97707 -0.40100
F 	F 	0.17744 0.15137 0.51215 -0.36900
F 	F 	0.16661 0.11352 0.56364 -0.36400
F 	F 	0.19559 0.22974 0.38455 -0.40900
C 	C 	0.10675 0.87185 0.39806 0.78500
F 	F 	0.16673 0.81052 0.25104 -0.35500
F 	F 	0.12160 0.92823 0.41091 -0.39800
C 	C 	0.02399 0.52469 0.23415 0.27300
F 	F 	0.02857 0.39849 0.15920 -0.35200
C 	C 	0.08963 0.41891 0.52917 0.78200
C 	C 	0.21294 0.62644 0.68167 0.28800
O 	O 	0.20749 0.58487 0.70303 -0.29300
H 	H 	0.17383 0.38477 0.63446 0.11600
C 	C 	0.15351 0.98043 0.69083 0.04400
C 	C 	0.16325 0.96808 0.75446 0.78500
C 	C 	0.19113 0.76287 0.97434 -0.06400
C 	C 	0.17137 0.20098 0.99268 0.02800
F 	F 	0.15769 0.09853 0.03290 -0.44500
F 	F 	0.22519 0.52702 0.23439 -0.40700
F 	F 	0.21566 0.31808 0.40842 -0.35400
C 	C 	0.13911 0.87620 0.36508 -0.08100
C 	C 	0.17025 0.97102 0.65830 0.08700
C 	C 	0.20551 0.43215 0.68255 0.02500
F 	F 	0.18286 0.42104 0.75378 -0.39200
H 	H 	0.22810 0.26492 0.72125 0.11800
C 	C 	0.18846 0.97612 0.71920 -0.05600
F 	F 	0.18287 0.93265 0.77263 -0.36500
F 	F 	0.18503 0.02275 0.77128 -0.36700
F 	F 	0.18349 0.91864 0.59987 -0.38100
H 	H 	0.18176 0.63149 0.00158 0.09100
C 	C 	0.19527 0.26144 0.98610 0.07500
C 	C 	0.19145 0.86272 0.30466 -0.07300
F 	F 	0.12598 0.84290 0.42163 -0.37800
C 	C 	0.18651 0.10832 0.00221 0.78100
C 	C 	0.26356 0.68628 0.68761 0.02500
C 	C 	0.25913 0.72540 0.71244 -0.07700
C 	C 	0.21133 0.40197 0.65368 0.06400
F 	F 	0.20825 0.31201 0.61211 -0.38400
C 	C 	0.23744 0.20372 0.68528 0.04600
F 	F 	0.22690 0.10206 0.63331 -0.39000
C 	C 	0.20297 0.67726 0.99411 0.06100
C 	C 	0.21144 0.17339 0.99401 -0.07500
F 	F 	0.23735 0.37818 0.96990 -0.37800
C 	C 	0.27137 0.55162 0.31354 0.00700
H 	H 	0.28309 0.55514 0.36801 0.10300
C 	C 	0.21567 0.84853 0.27235 0.78000
Ni	Ni	0.03221 0.56015 0.30665 1.10900
F 	F 	0.09746 0.38118 0.50586 -0.37100
F 	F 	0.24142 0.51894 0.74663 -0.43800
C 	C 	0.25988 0.25570 0.70600 0.07300
C 	C 	0.22666 0.96770 0.65353 -0.06000
C 	C 	0.25621 0.79640 0.97635 0.05400
F 	F 	0.26831 0.46483 0.39782 -0.40600
C 	C 	0.19948 0.88008 0.36575 0.07400
F 	F 	0.24941 0.90032 0.25573 -0.39700
H 	H 	0.08993 0.44328 0.46197 0.11500
C 	C 	0.24031 0.46369 0.74441 0.78400
C 	C 	0.26931 0.12740 0.66022 0.78600
F 	F 	0.24752 0.09610 0.68904 -0.44400
C 	C 	0.23875 0.94899 0.61876 0.78500
H 	H 	0.27729 0.84274 0.96996 0.09700
F 	F 	0.23349 0.09068 0.00455 -0.36800
C 	C 	0.29207 0.53833 0.34434 0.06800
C 	C 	0.28988 0.53505 0.28270 -0.06900
C 	C 	0.28380 0.56089 0.24919 0.78600
F 	F 	0.29352 0.61904 0.25394 -0.36800
C 	C 	0.22761 0.87772 0.33542 0.02700
F 	F 	0.25336 0.82120 0.27933 -0.41900
F 	F 	0.03060 0.35294 0.27920 -0.43300
H 	H 	0.29648 0.81720 0.72981 0.11600
C 	C 	0.30177 0.78574 0.71265 0.06700
C 	C 	0.25268 0.45056 0.70852 -0.08300
C 	C 	0.26674 0.39704 0.64846 -0.08700
C 	C 	0.26770 0.35650 0.61972 0.78700
C 	C 	0.28084 0.19069 0.66739 -0.06600
C 	C 	0.24855 0.98104 0.71455 0.07900
C 	C 	0.26799 0.71005 0.99499 -0.07100
C 	C 	0.25898 0.29530 0.98059 -0.07600
H 	H 	0.22568 0.88807 0.38966 0.11800
C 	C 	0.31423 0.70632 0.66632 0.07200
F 	F 	0.30828 0.31687 0.76576 -0.36500
C 	C 	0.26995 0.98089 0.68173 0.04300
F 	F 	0.26635 0.91134 0.62148 -0.45000
C 	C 	0.27511 0.20726 0.98840 0.07200
C 	C 	0.28438 0.36083 0.97351 0.78000
C 	C 	0.31665 0.49735 0.34509 -0.11100
H 	H 	0.31805 0.67558 0.64799 0.10800
H 	H 	0.27879 0.98582 0.73647 0.13000
F 	F 	0.27651 0.99859 0.60140 -0.37900
C 	C 	0.29458 0.77058 0.98666 0.02400
F 	F 	0.27436 0.62135 0.01134 -0.37600
C 	C 	0.31845 0.49678 0.28368 0.07300
C 	C 	0.31551 0.46640 0.37779 0.78800
F 	F 	0.30477 0.40839 0.37115 -0.40100
F 	F 	0.32750 0.56101 0.22693 -0.34500
C 	C 	0.29619 0.90453 0.33477 0.30300
F 	F 	0.28957 0.38887 0.59105 -0.38200
F 	F 	0.28491 0.46315 0.76721 -0.36900
C 	C 	0.32395 0.29386 0.70861 -0.08900
C 	C 	0.29915 0.26793 0.98242 0.03400
O 	O 	0.03115 0.50912 0.57651 -0.33800
F 	F 	0.31648 0.37268 0.94383 -0.40500
F 	F 	0.30457 0.32925 0.62833 -0.44300
C 	C 	0.31161 0.45546 0.70080 0.07000
F 	F 	0.32360 0.12394 0.65239 -0.41400
C 	C 	0.30863 0.68166 0.00707 0.78200
H 	H 	0.30653 0.18694 0.98947 0.12600
F 	F 	0.32440 0.39420 1.00000 -0.43100
H 	H 	0.33042 0.48192 0.26024 0.12700
C 	C 	0.34832 0.80671 0.68885 0.03100
C 	C 	0.32014 0.43080 0.67019 0.03000
C 	C 	0.34080 0.23633 0.66353 0.08100
F 	F 	0.33745 0.06566 0.29615 -0.41200
F 	F 	0.30711 0.12507 0.32523 -0.40000
F 	F 	0.33234 0.80170 0.18411 -0.36700
C 	C 	0.33819 0.48320 0.31474 0.02900
O 	O 	0.01510 0.05299 0.26490 -0.32200
Ni	Ni	0.04066 0.59943 0.38626 1.11700
H 	H 	0.02340 0.45518 0.31008 0.22900
C 	C 	0.35186 0.33108 0.74093 0.78900
O 	O 	0.32444 0.94891 0.31468 -0.28300
O 	O 	0.32818 0.89590 0.35985 -0.32200
O 	O 	0.35009 0.89011 0.66061 -0.29700
C 	C 	0.33726 0.99574 0.67751 0.30600
C 	C 	0.35819 0.76623 0.66757 -0.08200
H 	H 	0.35077 0.47883 0.71850 0.12900
C 	C 	0.36243 0.28884 0.68345 0.04900
H 	H 	0.37143 0.23023 0.64582 0.12400
F 	F 	0.35329 0.68913 0.98374 -0.41300
F 	F 	0.34911 0.35827 0.17485 -0.39500
F 	F 	0.34357 0.88724 0.20892 -0.40600
F 	F 	0.37150 0.49686 0.39588 -0.46700
C 	C 	0.36226 0.80675 0.98744 0.27300
C 	C 	0.36680 0.30339 0.98136 0.28600
O 	O 	0.37120 0.99236 0.70345 -0.31700
O 	O 	0.36137 0.00810 0.64786 -0.31100
C 	C 	0.37835 0.87014 0.68255 0.29600
F 	F 	0.37360 0.39050 0.73475 -0.43700
F 	F 	0.33730 0.70796 0.03786 -0.39200
C 	C 	0.34507 0.09677 0.32657 0.78200
O 	O 	0.04256 0.53463 0.41724 -0.31800
F 	F 	0.36650 0.11643 0.96024 -0.38100
F 	F 	0.35905 0.41887 0.13203 -0.36600
F 	F 	0.32559 0.05741 0.35258 -0.39800
C 	C 	0.37236 0.85106 0.20361 0.78400
O 	O 	0.39195 0.82404 0.01730 -0.30900
F 	F 	0.40056 0.32093 0.75345 -0.39000
F 	F 	0.39870 0.36957 0.83620 -0.35000
F 	F 	0.39506 0.02009 0.80323 -0.39100
F 	F 	0.36810 0.33439 0.12300 -0.39000
F 	F 	0.38335 0.83158 0.23443 -0.42000
F 	F 	0.43564 0.61723 0.26976 -0.40500
C 	C 	0.39386 0.47152 0.31531 0.29000
O 	O 	0.39227 0.80485 0.96018 -0.32500
O 	O 	0.39929 0.31859 0.01039 -0.31700
O 	O 	0.39410 0.30370 0.95258 -0.30000
Ni	Ni	0.39381 0.95431 0.62637 1.15100
C 	C 	0.38493 0.44346 0.66074 0.28900
F 	F 	0.39888 0.81207 0.61628 -0.38400
C 	C 	0.38086 0.38129 0.14576 0.78100
F 	F 	0.38628 0.89182 0.56742 -0.43800
H 	H 	0.38958 0.86095 0.13560 0.11200
F 	F 	0.45286 0.70094 0.24391 -0.36300
F 	F 	0.38776 0.05614 0.99300 -0.40200
Ni	Ni	0.39408 0.95579 0.28398 1.13000
O 	O 	0.39586 0.43887 0.62877 -0.29900
C 	C 	0.41262 0.78747 0.64429 0.78100
H 	H 	0.39782 0.21766 0.32427 0.10300
F 	F 	0.02947 0.39133 0.54034 -0.43800
O 	O 	0.41793 0.90620 0.70607 -0.31200
O 	O 	0.41271 0.45818 0.34367 -0.33200
C 	C 	0.41808 0.34116 0.67305 0.28400
F 	F 	0.42472 0.74112 0.63346 -0.38900
F 	F 	0.42658 0.41105 0.88828 -0.46100
C 	C 	0.41324 0.14056 0.33262 -0.07100
H 	H 	0.42004 0.87771 0.30889 0.21900
C 	C 	0.41358 0.10256 0.97124 0.78600
F 	F 	0.43062 0.08361 0.84830 -0.36500
C 	C 	0.48008 0.67435 0.26443 0.78800
Ni	Ni	0.42326 0.94073 0.36158 1.10800
O 	O 	0.42345 0.95787 0.41273 -0.28400
O 	O 	0.41676 0.01925 0.35593 -0.28500
O 	O 	0.43362 0.49271 0.29104 -0.31600
O 	O 	0.42115 0.01203 0.58668 -0.28600
O 	O 	0.43497 0.34243 0.64139 -0.30100
C 	C 	0.44832 0.39511 0.85959 0.77000
C 	C 	0.43187 0.20181 0.33068 0.06400
O 	O 	0.04053 0.66669 0.35917 -0.33600
H 	H 	0.43879 0.94285 0.97579 0.19600
O 	O 	0.43169 0.47635 0.68187 -0.33400
F 	F 	0.37586 0.57671 0.03856 -0.35300
C 	C 	0.44811 0.06318 0.81961 0.78200
H 	H 	0.44113 0.42792 0.20668 0.08800
C 	C 	0.43282 0.88516 0.18588 -0.08000
C 	C 	0.43313 0.88281 0.15036 0.08000
F 	F 	0.02731 0.27301 0.25202 -0.37400
O 	O 	0.43592 0.92095 0.31331 -0.69300
H 	H 	0.43253 0.88882 0.48602 0.12000
H 	H 	0.43843 0.43748 0.96764 0.24300
C 	C 	0.44443 0.05767 0.33247 0.28800
F 	F 	0.43537 0.08447 0.94339 -0.38200
C 	C 	0.44389 0.90463 0.55472 0.78200
F 	F 	0.44191 0.85284 0.54084 -0.36500
H 	H 	0.01242 0.46556 0.12028 0.10400
F 	F 	0.01875 0.41533 0.21393 -0.41200
H 	H 	0.48206 0.77957 0.28492 0.11700
O 	O 	0.45030 0.03951 0.30203 -0.36000
Ni	Ni	0.45908 0.99523 0.70056 1.11400
O 	O 	0.45766 0.37704 0.69654 -0.28200
F 	F 	0.46601 0.82968 0.66095 -0.39500
F 	F 	0.46847 0.35314 0.86756 -0.44500
H 	H 	0.44538 0.21925 0.96247 0.10300
F 	F 	0.44010 0.36323 0.54402 -0.43300
C 	C 	0.01100 0.48222 0.17412 -0.09700
O 	O 	0.45288 0.97200 0.24387 -0.30700
H 	H 	0.46368 0.40441 0.29945 0.18500
O 	O 	0.46685 0.00816 0.75224 -0.29600
H 	H 	0.47211 0.42100 0.79333 0.14900
F 	F 	0.57334 0.78530 0.92265 -0.37800
H 	H 	0.46496 0.02257 0.88055 0.12400
C 	C 	0.45053 0.41527 0.15327 -0.07300
C 	C 	0.45146 0.93527 0.49388 0.07400
C 	C 	0.45906 0.12046 0.33847 0.03000
Ni	Ni	0.46710 0.87506 0.94225 1.09600
Ni	Ni	0.47441 0.37219 0.93785 1.13700
Ni	Ni	0.46127 0.41439 0.61219 1.13800
C 	C 	0.45947 0.95181 0.52845 -0.07500
F 	F 	0.46251 0.07922 0.43224 -0.40600
F 	F 	0.47601 0.11069 0.79876 -0.41700
C 	C 	0.46772 0.95947 0.43366 0.29200
Ni	Ni	0.47166 0.40084 0.01892 1.11700
O 	O 	0.47424 0.99331 0.65095 -0.68900
H 	H 	0.47009 0.10002 0.69160 0.20900
C 	C 	0.46884 0.97825 0.46920 0.02700
O 	O 	0.47480 0.58656 0.34135 -0.33100
O 	O 	0.47601 0.46291 0.40735 -0.29200
O 	O 	0.47456 0.93341 0.97825 -0.69700
Ni	Ni	0.47312 0.90014 0.02415 1.10800
O 	O 	0.47443 0.88306 0.07467 -0.29400
O 	O 	0.47592 0.43129 0.97188 -0.68400
O 	O 	0.47130 0.38708 0.07003 -0.27700
C 	C 	0.47592 0.02917 0.57358 0.28900
C 	C 	0.46675 0.15592 0.98894 -0.06100
C 	C 	0.47338 0.43597 0.18648 0.05800
C 	C 	0.47957 0.01210 0.53826 0.04000
F 	F 	0.04968 0.72804 0.27636 -0.41300
C 	C 	0.48722 0.94430 0.23890 0.29200
Ni	Ni	0.48143 0.52415 0.37155 1.13500
C 	C 	0.47430 0.21341 0.98216 0.06200
C 	C 	0.49261 0.03714 0.82864 -0.07000
C 	C 	0.48696 0.92500 0.09798 0.29700
H 	H 	0.49889 0.97122 0.64680 0.25800
O 	O 	0.48098 0.47633 0.57514 -0.30700
C 	C 	0.50165 0.44894 0.84548 -0.06700
C 	C 	0.50407 0.45648 0.81032 0.06400
C 	C 	0.49628 0.02019 0.86194 0.06200
C 	C 	0.49297 0.03908 0.47901 -0.07600
F 	F 	0.48852 0.92423 0.58098 -0.40600
C 	C 	0.50252 0.76266 0.30406 0.06800
C 	C 	0.50456 0.70820 0.29812 -0.07300
C 	C 	0.48868 0.92212 0.20437 0.03300
C 	C 	0.48913 0.91208 0.13376 0.02100
C 	C 	0.49475 0.24288 0.33528 0.02100
O 	O 	0.49834 0.92911 0.42607 -0.32200
O 	O 	0.50179 0.31544 0.29464 -0.35700
C 	C 	0.47121 0.42736 0.09157 0.29400
O 	O 	0.50055 0.08352 0.69039 -0.69300
O 	O 	0.50494 0.48277 0.73986 -0.29300
H 	H 	0.55058 0.65715 0.95667 0.11100
C 	C 	0.49714 0.05531 0.51365 0.07400
O 	O 	0.49094 0.97664 0.08970 -0.33900
H 	H 	0.49895 0.37784 0.46612 0.12200
C 	C 	0.50059 0.37849 0.53515 0.77200
F 	F 	0.50179 0.33000 0.51861 -0.37200
O 	O 	0.46270 0.47187 0.08040 -0.30100
O 	O 	0.46343 0.54441 0.02620 -0.29000
C 	C 	0.53035 0.67560 0.97487 0.06600
O 	O 	0.51036 0.86897 0.36805 -0.33500
O 	O 	0.50923 0.42991 0.30105 -0.69300
O 	O 	0.53160 0.36331 0.01547 -0.30000
Ni	Ni	0.51098 0.46532 0.68947 1.11400
C 	C 	0.54670 0.73661 0.97480 -0.08000
C 	C 	0.51337 0.08642 0.45259 0.78100
H 	H 	0.51267 0.10135 0.52153 0.12500
F 	F 	0.52873 0.67216 0.24744 -0.37300
O 	O 	0.51834 0.98590 0.35949 -0.69800
C 	C 	0.51352 0.30490 0.32610 0.29900
O 	O 	0.52373 0.85315 0.01814 -0.31600
C 	C 	0.52151 0.03795 0.76779 0.29700
C 	C 	0.49017 0.63857 0.99899 0.01800
C 	C 	0.49281 0.42949 0.12688 0.02100
O 	O 	0.50571 0.05755 0.98885 -0.28000
C 	C 	0.51976 0.62392 0.32268 0.28100
C 	C 	0.51785 0.81917 0.99139 0.30000
C 	C 	0.47765 0.57447 0.99859 0.31100
Ni	Ni	0.52385 0.08188 0.64197 1.11300
C 	C 	0.52101 0.16153 0.34597 0.06800
Ni	Ni	0.53089 0.96770 0.31131 1.10800
C 	C 	0.52433 0.85342 0.33899 0.30000
C 	C 	0.52436 0.32310 0.99184 0.29000
O 	O 	0.52684 0.06484 0.59109 -0.26500
C 	C 	0.46515 0.66383 0.02344 -0.05500
C 	C 	0.51544 0.75961 0.99610 0.04000
C 	C 	0.42542 0.62770 0.05181 0.78700
C 	C 	0.50903 0.14923 0.01222 0.03300
C 	C 	0.52949 0.02816 0.80387 0.01900
C 	C 	0.52284 0.43157 0.51257 -0.06500
C 	C 	0.52013 0.42255 0.47722 0.07400
C 	C 	0.52625 0.79551 0.33466 0.03200
O 	O 	0.53374 0.95363 0.26026 -0.29400
Ni	Ni	0.52806 0.51746 0.29703 1.12000
C 	C 	0.52615 0.46013 0.41955 0.28400
O 	O 	0.52441 0.84128 0.96117 -0.29000
O 	O 	0.50863 0.07057 0.04607 -0.34400
C 	C 	0.51182 0.09162 0.01582 0.29300
F 	F 	0.40093 0.65904 0.07032 -0.35000
C 	C 	0.51802 0.26347 0.00090 0.02100
C 	C 	0.53110 0.68646 0.32347 0.03500
F 	F 	0.53570 0.80606 0.41298 -0.41100
H 	H 	0.53480 0.02916 0.36402 0.20700
O 	O 	0.54284 0.89123 0.31439 -0.29700
O 	O 	0.53099 0.51764 0.24505 -0.28700
O 	O 	0.55207 0.43305 0.91428 -0.31400
O 	O 	0.52837 0.33713 0.95994 -0.32500
O 	O 	0.53537 0.46307 0.64109 -0.69400
C 	C 	0.54050 0.00064 0.87165 0.02500
C 	C 	0.47870 0.72433 0.02164 0.07200
O 	O 	0.54087 0.93498 0.91534 -0.30500
H 	H 	0.53844 0.57671 0.68513 0.20200
F 	F 	0.53843 0.39123 0.56421 -0.43200
F 	F 	0.53922 0.14309 0.46731 -0.37800
C 	C 	0.53966 0.22291 0.34446 -0.07200
Ni	Ni	0.53906 0.42978 0.34885 1.11100
O 	O 	0.53998 0.34814 0.34964 -0.30000
C 	C 	0.54471 0.98686 0.90737 0.28700
C 	C 	0.53619 0.50086 0.56233 0.29900
C 	C 	0.54973 0.49158 0.86702 0.02000
C 	C 	0.54835 0.50909 0.79688 0.03700
C 	C 	0.54549 0.94454 0.18802 0.07100
O 	O 	0.54452 0.51329 0.34661 -0.69000
O 	O 	0.54332 0.60392 0.29832 -0.26800
O 	O 	0.49462 0.55284 0.97256 -0.31900
C 	C 	0.54174 0.47086 0.45596 0.03500
C 	C 	0.55579 0.77496 0.35935 -0.06200
C 	C 	0.54627 0.93758 0.15275 -0.07800
C 	C 	0.55351 0.48260 0.90366 0.29700
C 	C 	0.55471 0.51248 0.75973 0.29300
C 	C 	0.54314 0.49001 0.52630 0.03200
C 	C 	0.53768 0.46788 0.19386 0.00000
F 	F 	0.55767 0.08170 0.43268 -0.44700
H 	H 	0.45928 0.74384 0.03966 0.13600
Ni	Ni	0.56198 0.95256 0.38806 1.11400
Ni	Ni	0.54923 0.39405 0.27240 1.09900
C 	C 	0.55743 0.72045 0.35330 0.05600
H 	H 	0.55512 0.14541 0.35163 0.09500
O 	O 	0.55701 0.44002 0.40028 -0.28700
O 	O 	0.55299 0.02713 0.93112 -0.26600
O 	O 	0.56177 0.55335 0.68100 -0.69800
F 	F 	0.55229 0.59073 0.43099 -0.46800
C 	C 	0.55911 0.49082 0.22886 0.29900
Ni	Ni	0.55636 0.01031 0.98144 1.11400
O 	O 	0.55553 0.97653 0.02716 -0.68800
O 	O 	0.57094 0.06775 0.75019 -0.34800
H 	H 	0.56436 0.44502 0.64041 0.24900
O 	O 	0.54579 0.48382 0.02415 -0.69300
C 	C 	0.55578 0.25589 0.02691 -0.08600
C 	C 	0.55065 0.19859 0.03216 0.05000
C 	C 	0.57386 0.00870 0.81354 0.06300
F 	F 	0.03691 0.91376 0.96580 -0.38200
Ni	Ni	0.57583 0.13383 0.71800 1.10700
F 	F 	0.46148 0.61321 0.07413 -0.42200
C 	C 	0.55710 0.45677 0.13455 0.04900
H 	H 	0.57675 0.70277 0.37262 0.11700
C 	C 	0.00496 0.01055 0.20846 -0.00600
Ni	Ni	0.53177 0.53893 0.05472 1.10500
F 	F 	0.05088 0.84386 0.93674 -0.34100
C 	C 	0.00623 0.85795 0.95020 0.77100
F 	F 	0.56572 0.32573 0.07083 -0.40500
C 	C 	0.56878 0.53843 0.50517 0.07800
C 	C 	0.57035 0.52939 0.47007 -0.07900
Ni	Ni	0.56541 0.03543 0.06316 1.11600
Ni	Ni	0.55295 0.51265 0.97659 1.11200
O 	O 	0.57782 0.17088 0.63453 -0.31300
C 	C 	0.00307 0.48413 0.75918 0.27300
C 	C 	0.58316 0.80911 0.39276 0.78000
O 	O 	0.56246 0.52594 0.92546 -0.29700
Ni	Ni	0.58044 0.55166 0.63183 1.11300
C 	C 	0.58200 0.99770 0.84763 -0.06600
C 	C 	0.58034 0.47772 0.16777 -0.07000
O 	O 	0.58378 0.54060 0.58030 -0.27900
H 	H 	0.58650 0.54457 0.35363 0.23800
H 	H 	0.58566 0.58306 0.51599 0.12300
F 	F 	0.58407 0.14940 0.95283 -0.43000
H 	H 	0.58028 0.19245 0.05127 0.08700
H 	H 	0.58440 0.48135 0.03135 0.20500
H 	H 	0.58866 0.97049 0.20248 0.13300
H 	H 	0.58897 0.46463 0.11419 0.09500
H 	H 	0.59110 0.96672 0.02912 0.21700
C 	C 	0.00178 0.65769 0.33288 0.26700
C 	C 	0.58933 0.55592 0.81918 -0.07800
C 	C 	0.00091 0.96356 0.53091 0.04200
C 	C 	0.59863 0.77655 0.95263 0.78200
O 	O 	0.59308 0.47106 0.24612 -0.29800
F 	F 	0.63761 0.75120 0.94482 -0.40100
O 	O 	0.59185 0.20515 0.68998 -0.30600
F 	F 	0.63477 0.83075 0.96910 -0.40900
O 	O 	0.99626 0.05035 0.02426 -0.68700
C 	C 	0.99134 0.26210 0.06806 0.79500
F 	F 	0.95169 0.21759 0.08806 -0.38400
F 	F 	0.89605 0.67976 0.07376 -0.37700
O 	O 	0.99908 0.62284 0.30656 -0.28900
H 	H 	0.97341 0.35441 0.04437 0.12900
C 	C 	0.99213 0.07471 0.82072 -0.06400
C 	C 	0.98781 0.07372 0.85606 0.08500
F 	F 	0.81538 0.69914 0.06224 -0.40800
H 	H 	0.93660 0.67011 0.38367 0.10500
C 	C 	0.93438 0.69428 0.36169 0.06200
F 	F 	0.90945 0.77122 0.41847 -0.33200
C 	C 	0.86853 0.73060 0.39469 0.78200
C 	C 	0.98544 0.49741 0.79298 0.05300
Ni	Ni	0.98072 0.07254 0.97779 1.11900
H 	H 	0.87347 0.79610 0.04167 0.09800
C 	C 	0.89907 0.78458 0.02307 0.06000
C 	C 	0.89686 0.72750 0.02247 -0.07200
C 	C 	0.85772 0.68283 0.04791 0.78500
F 	F 	0.84261 0.67508 0.40853 -0.37200
F 	F 	0.82068 0.74547 0.38710 -0.37300
O 	O 	0.99046 0.54888 0.01425 -0.68600
O 	O 	0.95865 0.07480 0.92745 -0.31000
Ni	Ni	0.97827 0.56851 0.96610 1.11400
C 	C 	0.95679 0.26335 0.03551 -0.07600
Ni	Ni	0.98652 0.94810 0.36669 1.11900
O 	O 	0.96048 0.56643 0.91456 -0.27600
F 	F 	0.82416 0.62729 0.03241 -0.39700
C 	C 	0.99923 0.94822 0.49629 -0.05500
C 	C 	0.90318 0.72997 0.36330 -0.05300
F 	F 	0.99215 0.86492 0.46399 -0.33200
F 	F 	0.84197 0.96042 0.12509 -0.37000
C 	C 	0.95529 0.01925 0.76450 0.30100
F 	F 	0.82673 0.98197 0.17815 -0.36400
C 	C 	0.93536 0.02634 0.90804 0.29900
C 	C 	0.94645 0.51779 0.89609 0.28000
C 	C 	0.95822 0.52061 0.85937 0.03600
C 	C 	0.94642 0.02728 0.80057 0.02800
C 	C 	0.94718 0.00704 0.19773 0.07700
H 	H 	0.91473 0.00624 0.21654 0.09500
C 	C 	0.86806 0.00062 0.15215 0.78200
O 	O 	0.92199 0.97499 0.92123 -0.29300
O 	O 	0.94843 0.13770 0.04216 -0.31000
O 	O 	0.92994 0.46709 0.91081 -0.33300
C 	C 	0.95024 0.31507 0.02802 0.07100
C 	C 	0.93500 0.03089 0.87099 0.02800
C 	C 	0.93749 0.65626 0.99856 0.30300
C 	C 	0.94811 0.16344 0.01375 0.29500
C 	C 	0.93200 0.71341 0.99833 0.04400
C 	C 	0.92915 0.21273 0.01300 0.02500
O 	O 	0.96204 0.96636 0.32102 -0.69100
O 	O 	0.95722 0.07981 0.32034 -0.32100
Ni	Ni	0.95850 0.90724 0.28733 1.09800
O 	O 	0.93446 0.85680 0.36749 -0.25800
O 	O 	0.98517 0.02221 0.43015 -0.32000
H 	H 	0.91961 0.96328 0.32225 0.17900
O 	O 	0.92846 0.04961 0.37388 -0.33900
C 	C 	0.90474 0.82296 0.34038 0.30800
C 	C 	0.91536 0.06252 0.34368 0.30100
O 	O 	0.89032 0.84633 0.31412 -0.35100
O 	O 	0.99147 0.53009 0.25920 -0.29300
O 	O 	0.95216 0.50189 0.32753 -0.32800
O 	O 	0.94675 0.54909 0.37635 -0.30900
C 	C 	0.92110 0.51982 0.34768 0.30300
O 	O 	0.62492 0.01663 0.31295 -0.30400
C 	C 	0.65989 0.00781 0.33613 0.28400
O 	O 	0.63472 0.96521 0.35789 -0.29800
O 	O 	0.62945 0.40735 0.29919 -0.30400
C 	C 	0.66122 0.45242 0.32035 0.31900
O 	O 	0.63269 0.47195 0.34144 -0.31900
O 	O 	0.89438 0.00843 0.98923 -0.68800
Ni	Ni	0.91290 0.97947 0.03325 1.11200
O 	O 	0.95548 0.14079 0.98473 -0.32700
Ni	Ni	0.85422 0.94079 0.95688 1.12100
O 	O 	0.88859 0.88067 0.96719 -0.30100
O 	O 	0.83059 0.90483 0.04038 -0.28000
O 	O 	0.94383 0.97252 0.08120 -0.28500
O 	O 	0.96688 0.06910 0.09444 -0.29700
H 	H 	0.86588 0.02648 0.99337 0.19600
C 	C 	0.91927 0.87851 0.99486 0.29100
C 	C 	0.79060 0.87371 0.01541 0.28900
C 	C 	0.96543 0.01822 0.10298 0.27800
O 	O 	0.95058 0.92633 0.01441 -0.31900
O 	O 	0.78342 0.89973 0.98820 -0.31400
O 	O 	0.89193 0.50424 0.97611 -0.69900
Ni	Ni	0.90463 0.48102 0.02320 1.11500
O 	O 	0.94940 0.63504 0.97020 -0.30800
Ni	Ni	0.85897 0.43443 0.94507 1.10100
O 	O 	0.90240 0.38425 0.96027 -0.29300
O 	O 	0.81792 0.41273 0.02926 -0.26600
O 	O 	0.92766 0.47672 0.07329 -0.27400
O 	O 	0.95861 0.57556 0.08384 -0.29200
H 	H 	0.86183 0.52121 0.97679 0.20300
C 	C 	0.91218 0.37435 0.99170 0.29000
O 	O 	0.93745 0.63138 0.02725 -0.31400
C 	C 	0.78641 0.37355 0.00469 0.28900
C 	C 	0.95259 0.52389 0.09391 0.28400
O 	O 	0.93844 0.41992 0.01354 -0.32900
O 	O 	0.78348 0.39100 0.97356 -0.33200
O 	O 	0.64430 0.10195 0.04547 -0.33600
O 	O 	0.63736 0.08672 0.98773 -0.28000
C 	C 	0.65000 0.12282 0.01452 0.26300
O 	O 	0.59286 0.61667 0.03513 -0.35900
O 	O 	0.62774 0.59383 0.98572 -0.28900
C 	C 	0.63879 0.62512 0.01471 0.28300
Ni	Ni	0.92795 0.01099 0.69112 1.11500
O 	O 	0.91347 0.01705 0.74171 -0.29300
O 	O 	0.88467 0.06481 0.68319 -0.29100
O 	O 	0.82569 0.96161 0.63074 -0.34700
O 	O 	0.96037 0.00171 0.64635 -0.69300
O 	O 	0.84311 0.93982 0.68505 -0.30400
O 	O 	0.98657 0.05708 0.58058 -0.32400
Ni	Ni	0.90948 0.01023 0.60954 1.08800
H 	H 	0.95857 0.96173 0.64433 0.18500
O 	O 	0.91248 0.08705 0.62851 -0.34200
C 	C 	0.87834 0.08635 0.65406 0.31000
C 	C 	0.81745 0.92256 0.65432 0.28600
Ni	Ni	0.98803 0.45712 0.68502 1.11500
O 	O 	0.96446 0.47248 0.73268 -0.25400
O 	O 	0.94805 0.50894 0.66823 -0.30500
O 	O 	0.90659 0.36135 0.62226 -0.28500
O 	O 	0.90385 0.38279 0.67896 -0.29100
Ni	Ni	0.97234 0.43656 0.60308 1.11900
O 	O 	0.92201 0.48231 0.61252 -0.32800
C 	C 	0.90753 0.49409 0.64260 0.29000
C 	C 	0.87481 0.36012 0.64931 0.27600
O 	O 	0.65092 0.12868 0.69670 -0.34500
C 	C 	0.65308 0.10680 0.66639 0.28500
C 	C 	0.61208 0.20941 0.65891 0.29100
O 	O 	0.60157 0.06857 0.65040 -0.30300
O 	O 	0.61061 0.53131 0.74758 -0.30700
Ni	Ni	0.64154 0.58674 0.70664 1.10500
O 	O 	0.66713 0.52504 0.68780 -0.34900
O 	O 	0.62595 0.64064 0.62734 -0.30200
C 	C 	0.68642 0.52741 0.65700 0.30600
C 	C 	0.66811 0.67321 0.65080 0.28400
O 	O 	0.66637 0.55107 0.63324 -0.28000
O 	O 	0.69186 0.64827 0.67233 -0.32600
C 	C 	0.77131 0.34082 0.67065 0.05100
C 	C 	0.80586 0.32385 0.64840 0.02900
C 	C 	0.77398 0.27317 0.62608 -0.07700
C 	C 	0.70865 0.24183 0.62677 0.04800
C 	C 	0.67551 0.25538 0.65146 0.02700
C 	C 	0.70616 0.30878 0.67133 -0.07300
C 	C 	0.67053 0.33206 0.69354 0.78700
H 	H 	0.79538 0.37983 0.68725 0.11600
H 	H 	0.68375 0.20429 0.60936 0.12800
C 	C 	0.80843 0.25177 0.60163 0.77700
F 	F 	0.70177 0.39330 0.69736 -0.40700
F 	F 	0.66492 0.30841 0.72526 -0.40200
F 	F 	0.61184 0.31758 0.67949 -0.39100
F 	F 	0.85745 0.24716 0.61828 -0.39900
F 	F 	0.83033 0.29069 0.57552 -0.39100
F 	F 	0.76989 0.19631 0.58730 -0.39100
C 	C 	0.79651 0.46574 0.62837 0.06300
C 	C 	0.85249 0.50580 0.64499 0.02400
C 	C 	0.85516 0.55680 0.66249 -0.06200
C 	C 	0.79937 0.56075 0.66773 0.07800
C 	C 	0.74322 0.52010 0.65161 0.04200
C 	C 	0.74219 0.47357 0.63044 -0.06800
C 	C 	0.68351 0.43224 0.61019 0.78300
H 	H 	0.79544 0.42827 0.61388 0.09400
H 	H 	0.79980 0.59652 0.68367 0.11400
C 	C 	0.91671 0.60760 0.67495 0.78500
F 	F 	0.69263 0.39079 0.59056 -0.38900
F 	F 	0.66504 0.46468 0.58878 -0.39600
F 	F 	0.63652 0.40197 0.63195 -0.41000
F 	F 	0.96197 0.61904 0.65135 -0.39800
F 	F 	0.93598 0.59351 0.70530 -0.39800
F 	F 	0.91072 0.65933 0.68021 -0.37500
C 	C 	0.79471 0.82359 0.63089 0.06100
C 	C 	0.77354 0.86042 0.64746 0.00700
C 	C 	0.71314 0.83612 0.66039 -0.06300
C 	C 	0.67854 0.77419 0.66076 0.05700
C 	C 	0.70181 0.73713 0.64643 0.02400
C 	C 	0.75860 0.76183 0.62945 -0.07300
C 	C 	0.78249 0.72241 0.61157 0.78300
H 	H 	0.84064 0.84308 0.62044 0.07300
H 	H 	0.63428 0.75465 0.67301 0.10100
C 	C 	0.68691 0.87591 0.67534 0.77900
F 	F 	0.83208 0.75492 0.59158 -0.38100
F 	F 	0.73586 0.68020 0.59073 -0.38700
F 	F 	0.80223 0.69426 0.63533 -0.39700
F 	F 	0.69783 0.92274 0.65450 -0.39600
F 	F 	0.71501 0.89798 0.70692 -0.39200
F 	F 	0.62315 0.84521 0.67885 -0.37900
C 	C 	0.76928 0.15250 0.67421 0.06500
C 	C 	0.71530 0.11332 0.65530 0.02800
C 	C 	0.72167 0.07766 0.62858 -0.05600
C 	C 	0.77687 0.07083 0.62763 0.08500
C 	C 	0.82823 0.10493 0.64945 0.03000
C 	C 	0.82630 0.14995 0.67064 -0.05500
C 	C 	0.88400 0.19363 0.69068 0.78400
H 	H 	0.76656 0.18410 0.69232 0.10400
H 	H 	0.77948 0.03821 0.61025 0.10000
C 	C 	0.67338 0.05116 0.59964 0.78900
F 	F 	0.87922 0.24499 0.69930 -0.39500
F 	F 	0.93650 0.20947 0.67178 -0.40000
F 	F 	0.89120 0.16810 0.72006 -0.39000
F 	F 	0.65075 0.09066 0.59021 -0.40700
F 	F 	0.62503 0.99873 0.60923 -0.37700
F 	F 	0.69912 0.03881 0.57136 -0.38200
C 	C 	0.59266 0.54495 0.85372 0.07100
C 	C 	0.63022 0.61719 0.80648 0.78000
H 	H 	0.62833 0.57823 0.87039 0.13100
F 	F 	0.64566 0.66000 0.83230 -0.37000
F 	F 	0.59968 0.63167 0.78076 -0.43900
F 	F 	0.68460 0.61866 0.79463 -0.41900
C 	C 	0.59985 0.30773 0.04986 0.78000
F 	F 	0.63809 0.35467 0.03080 -0.42500
F 	F 	0.63776 0.29227 0.07022 -0.39800
H 	H 	0.60177 0.00181 0.79440 0.11500
C 	C 	0.63387 0.98152 0.85792 0.78400
F 	F 	0.60889 0.92134 0.86324 -0.37200
F 	F 	0.66509 0.01279 0.88727 -0.37600
F 	F 	0.67724 0.99489 0.83303 -0.36800
C 	C 	0.69387 0.27915 0.98948 0.07500
C 	C 	0.74220 0.31226 0.01319 0.05900
C 	C 	0.75669 0.28206 0.03933 -0.08200
C 	C 	0.73273 0.21998 0.03637 0.05700
C 	C 	0.68849 0.18727 0.01052 0.03000
C 	C 	0.67398 0.21802 0.98471 -0.08900
C 	C 	0.64604 0.18845 0.95032 0.78800
H 	H 	0.67710 0.30207 0.97212 0.11400
H 	H 	0.74663 0.19672 0.05497 0.11500
C 	C 	0.79220 0.31445 0.07175 0.78800
F 	F 	0.64987 0.22974 0.92673 -0.38800
F 	F 	0.67793 0.15846 0.93799 -0.36600
F 	F 	0.78454 0.27535 0.09735 -0.37900
F 	F 	0.77064 0.35397 0.08320 -0.35700
F 	F 	0.85507 0.34462 0.06606 -0.43000
C 	C 	0.91085 0.48023 0.83724 0.06400
C 	C 	0.92459 0.46476 0.80513 -0.07200
C 	C 	0.87434 0.41313 0.78446 0.78300
H 	H 	0.86388 0.45761 0.84613 0.09500
F 	F 	0.82499 0.37885 0.80415 -0.38900
F 	F 	0.89801 0.37636 0.77126 -0.39000
F 	F 	0.85152 0.43460 0.75836 -0.39600
C 	C 	0.70202 0.71839 0.04802 0.07400
C 	C 	0.69474 0.68373 0.01835 0.04300
C 	C 	0.73023 0.71155 0.99021 -0.07200
C 	C 	0.75569 0.77350 0.98864 0.06800
C 	C 	0.75623 0.80847 0.01698 0.02000
C 	C 	0.72798 0.78054 0.04698 -0.07200
C 	C 	0.72465 0.81614 0.07774 0.78500
H 	H 	0.68249 0.69660 0.07121 0.12000
H 	H 	0.77689 0.79469 0.96563 0.10700
C 	C 	0.74552 0.67686 0.96325 0.78400
F 	F 	0.71090 0.86163 0.06809 -0.37600
F 	F 	0.78110 0.83954 0.09583 -0.36500
F 	F 	0.67856 0.78081 0.09892 -0.37500
F 	F 	0.70136 0.65989 0.93683 -0.38900
F 	F 	0.74727 0.62711 0.97640 -0.41000
F 	F 	0.80347 0.71147 0.95057 -0.40800
C 	C 	0.93144 0.82597 0.99884 0.02800
C 	C 	0.96750 0.81263 0.97539 -0.04200
C 	C 	0.96565 0.75583 0.97465 0.07000
H 	H 	0.99137 0.74488 0.95589 0.15100
F 	F 	0.96784 0.85954 0.92393 -0.37100
C 	C 	0.91477 0.31677 0.99939 0.03500
C 	C 	0.88225 0.26367 0.97864 -0.08800
C 	C 	0.88991 0.21265 0.98607 0.05900
H 	H 	0.86744 0.17318 0.96970 0.10800
C 	C 	0.84386 0.26168 0.94687 0.78500
F 	F 	0.88319 0.29205 0.92157 -0.39400
F 	F 	0.80367 0.28596 0.95333 -0.44900
F 	F 	0.80772 0.20398 0.93482 -0.37700
C 	C 	0.89193 0.98672 0.81524 0.07800
C 	C 	0.88405 0.99053 0.85015 -0.06700
C 	C 	0.82195 0.95058 0.86491 0.77800
H 	H 	0.85599 0.95181 0.79950 0.12200
F 	F 	0.77412 0.93257 0.84041 -0.35500
F 	F 	0.80790 0.98012 0.89073 -0.42800
F 	F 	0.82433 0.90075 0.87741 -0.40900
C 	C 	0.59906 0.58224 0.44754 0.78300
F 	F 	0.63693 0.63361 0.46616 -0.36800
F 	F 	0.63521 0.57248 0.42379 -0.41400
C 	C 	0.65029 0.50922 0.17528 0.78200
F 	F 	0.66832 0.47219 0.19288 -0.36400
F 	F 	0.66638 0.56100 0.19441 -0.36100
F 	F 	0.68312 0.52431 0.14584 -0.37000
F 	F 	0.62279 0.86763 0.38710 -0.43000
F 	F 	0.61750 0.78601 0.41043 -0.37600
C 	C 	0.60730 0.26668 0.35219 0.78300
F 	F 	0.64375 0.23829 0.35976 -0.38000
F 	F 	0.61111 0.30292 0.37983 -0.38900
F 	F 	0.63160 0.30095 0.32445 -0.42200
C 	C 	0.60789 0.96202 0.13529 0.78100
F 	F 	0.65608 0.96782 0.15750 -0.35600
F 	F 	0.62084 0.01716 0.12303 -0.47400
F 	F 	0.60532 0.92432 0.10863 -0.40300
C 	C 	0.83710 0.53334 0.31750 0.06200
C 	C 	0.85449 0.50079 0.34018 0.01500
C 	C 	0.80827 0.45147 0.35591 -0.05700
C 	C 	0.74516 0.43734 0.34959 0.06700
C 	C 	0.72780 0.46999 0.32697 0.03700
C 	C 	0.77404 0.51939 0.31134 -0.07600
C 	C 	0.75616 0.55594 0.28724 0.78200
H 	H 	0.87290 0.56969 0.30476 0.10000
H 	H 	0.70930 0.40115 0.36242 0.15000
C 	C 	0.82615 0.41467 0.37985 0.78000
F 	F 	0.80777 0.60578 0.27747 -0.38500
F 	F 	0.71661 0.57475 0.30265 -0.42200
F 	F 	0.72639 0.52164 0.25852 -0.37000
F 	F 	0.85531 0.44827 0.40891 -0.38600
F 	F 	0.86625 0.39660 0.36440 -0.38900
F 	F 	0.77456 0.36434 0.38912 -0.35500
C 	C 	0.99636 0.48584 0.13976 0.09600
C 	C 	0.96169 0.51605 0.13036 0.02200
C 	C 	0.93833 0.54028 0.15592 -0.05400
C 	C 	0.96057 0.54407 0.18962 0.05200
C 	C 	0.99786 0.51633 0.19889 0.06400
H 	H 	0.94901 0.56881 0.20864 0.14600
C 	C 	0.89032 0.56250 0.14770 0.78200
F 	F 	0.84825 0.52726 0.12239 -0.36300
F 	F 	0.92009 0.62034 0.13741 -0.36100
F 	F 	0.85669 0.56123 0.17590 -0.34500
H 	H 	0.96884 0.93195 0.54780 0.09100
C 	C 	0.95780 0.88536 0.48319 0.78100
F 	F 	0.90885 0.88427 0.46339 -0.38000
F 	F 	0.93345 0.84704 0.50940 -0.36600
C 	C 	0.96380 0.69042 0.33204 0.02700
C 	C 	0.95726 0.71886 0.30254 -0.07900
C 	C 	0.92220 0.75097 0.30407 0.07500
C 	C 	0.90492 0.76469 0.33546 0.02000
H 	H 	0.91463 0.77101 0.28153 0.09000
C 	C 	0.98832 0.71653 0.26983 0.79000
F 	F 	0.95618 0.66110 0.25402 -0.38800
F 	F 	0.98864 0.75846 0.24762 -0.39300
C 	C 	0.81226 0.00981 0.31447 0.06900
C 	C 	0.85308 0.05711 0.33569 0.01100
C 	C 	0.83249 0.09624 0.35087 -0.06400
C 	C 	0.76861 0.08122 0.34915 0.05700
C 	C 	0.72659 0.03049 0.33057 0.03400
C 	C 	0.74909 0.99686 0.31097 -0.07300
C 	C 	0.70517 0.94446 0.28839 0.78500
H 	H 	0.82927 0.98157 0.30187 0.07500
H 	H 	0.75108 0.10743 0.36345 0.11000
C 	C 	0.87800 0.15258 0.36993 0.77900
F 	F 	0.73760 0.92535 0.26676 -0.39000
F 	F 	0.66682 0.96014 0.26859 -0.40000
F 	F 	0.66910 0.89782 0.30821 -0.40200
F 	F 	0.93056 0.18203 0.35137 -0.39900
F 	F 	0.89528 0.13847 0.40084 -0.40600
F 	F 	0.85183 0.19093 0.37570 -0.37500
C 	C 	0.97530 0.00896 0.13887 0.04600
C 	C 	0.93109 0.00463 0.16306 -0.07600
F 	F 	0.87530 0.05581 0.14272 -0.37400
