data_crystal

_cell_length_a 42.48845
_cell_length_b 45.72698
_cell_length_c 25.53170
_cell_angle_alpha 91.62313
_cell_angle_beta  88.33714
_cell_angle_gamma 90.01288

_symmetry_space_group_name_	'P 1'
_symmetry_space_group_name_H-M	'P 1'

loop_
_symmetry_equiv_pos_as_xyz
  x,y,z

loop_
_atom_site_label
_atom_site_type_symbol
_atom_site_fract_x
_atom_site_fract_y
_atom_site_fract_z
_atom_site_charge
Cd	Cd	0.96631 0.85893 0.27952 1.24200
Cd	Cd	0.98018 0.90072 0.39673 1.19000
O 	O 	0.93966 0.81162 0.28834 -0.30800
O 	O 	0.95179 0.82901 0.21111 -0.33000
C 	C 	0.93936 0.80784 0.23775 0.24600
O 	O 	0.98195 0.90259 0.25121 -0.36100
O 	O 	0.00760 0.91580 0.32613 -0.39500
C 	C 	0.99512 0.92279 0.28158 0.30400
C 	C 	0.91566 0.88996 0.33078 0.31400
O 	O 	0.99812 0.85531 0.36609 -0.42700
O 	O 	0.90815 0.88113 0.28368 -0.27500
O 	O 	0.94195 0.87977 0.34726 -0.53300
C 	C 	0.02322 0.85006 0.33659 0.31300
O 	O 	0.01808 0.84507 0.28701 -0.35000
Cd	Cd	0.91710 0.85110 0.02815 1.24300
Cd	Cd	0.90466 0.89035 0.91217 1.18500
O 	O 	0.88952 0.80423 0.03984 -0.30000
O 	O 	0.92651 0.81895 0.09258 -0.33100
C 	C 	0.90722 0.79815 0.07876 0.24500
O 	O 	0.95313 0.88688 0.02977 -0.36800
O 	O 	0.92699 0.91756 0.97598 -0.40200
C 	C 	0.95214 0.91105 0.00244 0.31100
C 	C 	0.94668 0.83167 0.93213 0.33500
O 	O 	0.87103 0.87656 0.98053 -0.43000
O 	O 	0.95933 0.81932 0.97183 -0.28100
O 	O 	0.92178 0.84725 0.94286 -0.53600
C 	C 	0.86498 0.89162 0.02382 0.31300
O 	O 	0.87995 0.88321 0.06478 -0.34800
C 	C 	0.95861 0.62980 0.91707 0.10000
N 	N 	0.94990 0.63357 0.86692 -0.13300
C 	C 	0.96032 0.61482 0.82809 0.12900
N 	N 	0.97893 0.59191 0.83961 -0.14200
C 	C 	0.98787 0.58816 0.88959 0.12600
N 	N 	0.97786 0.60725 0.92832 -0.13800
C 	C 	0.97546 0.63779 0.36041 0.09900
N 	N 	0.00216 0.62178 0.35230 -0.13800
C 	C 	0.01249 0.60433 0.39034 0.13100
N 	N 	0.99595 0.60276 0.43647 -0.14300
C 	C 	0.96937 0.61887 0.44496 0.12800
N 	N 	0.95906 0.63628 0.40677 -0.13500
Cd	Cd	0.86747 0.09598 0.75978 1.24400
Cd	Cd	0.92781 0.10056 0.85320 1.18700
O 	O 	0.82922 0.13627 0.75729 -0.29900
O 	O 	0.82829 0.09923 0.70092 -0.33300
C 	C 	0.81506 0.12338 0.71854 0.25000
O 	O 	0.89959 0.05868 0.73681 -0.36400
O 	O 	0.92095 0.05549 0.81787 -0.41800
C 	C 	0.92171 0.04897 0.76730 0.30700
C 	C 	0.91987 0.13343 0.74155 0.32300
O 	O 	0.87330 0.09966 0.86271 -0.43300
O 	O 	0.90440 0.12926 0.69845 -0.27800
O 	O 	0.90696 0.12278 0.78343 -0.52300
C 	C 	0.85517 0.07670 0.86537 0.32200
O 	O 	0.84279 0.06764 0.82172 -0.34700
Cd	Cd	0.80782 0.08977 0.52008 1.24400
Cd	Cd	0.82391 0.04000 0.41455 1.17600
O 	O 	0.75398 0.10891 0.53599 -0.30400
O 	O 	0.79246 0.12000 0.58834 -0.33100
C 	C 	0.76310 0.12368 0.57705 0.24500
O 	O 	0.85677 0.07461 0.53324 -0.37400
O 	O 	0.86761 0.06059 0.44755 -0.40800
C 	C 	0.87532 0.06159 0.49727 0.30900
C 	C 	0.79058 0.03004 0.52943 0.32600
O 	O 	0.80491 0.08769 0.41669 -0.44700
O 	O 	0.78958 0.04355 0.57530 -0.28700
O 	O 	0.79435 0.04684 0.48976 -0.53800
C 	C 	0.82167 0.11162 0.41669 0.30700
O 	O 	0.82696 0.12357 0.46252 -0.33400
C 	C 	0.63257 0.12948 0.89636 0.10000
N 	N 	0.63454 0.14592 0.94131 -0.13400
C 	C 	0.61083 0.14544 0.97811 0.12900
N 	N 	0.58514 0.12846 0.96972 -0.14300
C 	C 	0.58337 0.11154 0.92536 0.12900
N 	N 	0.60735 0.11175 0.88903 -0.13800
C 	C 	0.61857 0.19668 0.43733 0.09800
N 	N 	0.59289 0.17928 0.44360 -0.13800
C 	C 	0.57543 0.17150 0.40182 0.12900
N 	N 	0.58383 0.18088 0.35354 -0.14300
C 	C 	0.60955 0.19811 0.34682 0.12900
N 	N 	0.62703 0.20598 0.38872 -0.13700
Cd	Cd	0.03020 0.19835 0.19424 1.24400
Cd	Cd	0.98445 0.17478 0.30417 1.17800
O 	O 	0.03465 0.25113 0.18021 -0.30800
O 	O 	0.06361 0.21930 0.13494 -0.33500
C 	C 	0.05784 0.24672 0.14663 0.24400
O 	O 	0.04087 0.15067 0.19737 -0.36100
O 	O 	0.99598 0.13910 0.24437 -0.40400
C 	C 	0.02439 0.13214 0.22597 0.31300
C 	C 	0.05575 0.20276 0.29617 0.33700
O 	O 	0.97187 0.20126 0.23111 -0.45200
O 	O 	0.07745 0.20630 0.25973 -0.28600
O 	O 	0.02713 0.20161 0.27994 -0.53900
C 	C 	0.96294 0.19063 0.18601 0.30800
O 	O 	0.98470 0.18801 0.14903 -0.33200
Cd	Cd	0.14143 0.13543 0.99300 1.24200
Cd	Cd	0.14281 0.08088 0.89134 1.20600
O 	O 	0.17319 0.18020 0.98115 -0.30800
O 	O 	0.14030 0.17540 0.04866 -0.33200
C 	C 	0.16071 0.19164 0.02402 0.24400
O 	O 	0.10326 0.10437 0.01741 -0.35500
O 	O 	0.12266 0.06534 0.96835 -0.38400
C 	C 	0.09959 0.07786 0.99640 0.31000
C 	C 	0.10560 0.14421 0.90182 0.32200
O 	O 	0.18196 0.10063 0.94286 -0.43300
O 	O 	0.09731 0.16225 0.94034 -0.28500
O 	O 	0.13064 0.12880 0.90953 -0.51600
C 	C 	0.19042 0.09125 0.98810 0.31500
O 	O 	0.17866 0.10556 0.02910 -0.35300
C 	C 	0.14415 0.36536 0.91361 0.09600
N 	N 	0.15529 0.35902 0.86414 -0.13800
C 	C 	0.14556 0.37498 0.82351 0.12900
N 	N 	0.12641 0.39842 0.83287 -0.14200
C 	C 	0.11618 0.40542 0.88246 0.12900
N 	N 	0.12425 0.38833 0.92257 -0.13800
C 	C 	0.14718 0.37928 0.35199 0.09900
N 	N 	0.14218 0.40835 0.34691 -0.13800
C 	C 	0.14194 0.42669 0.38954 0.12900
N 	N 	0.14837 0.41614 0.43717 -0.14200
C 	C 	0.15398 0.38716 0.44255 0.12900
N 	N 	0.15341 0.36872 0.39988 -0.13400
Cd	Cd	0.16781 0.88117 0.75017 1.24400
Cd	Cd	0.11279 0.86204 0.84938 1.18600
O 	O 	0.21759 0.85376 0.74095 -0.30200
O 	O 	0.20639 0.88892 0.68835 -0.33200
C 	C 	0.22785 0.87146 0.70533 0.24600
O 	O 	0.12507 0.90782 0.73437 -0.37000
O 	O 	0.10538 0.90722 0.81910 -0.39500
C 	C 	0.10262 0.91442 0.76975 0.31500
C 	C 	0.12863 0.83168 0.73426 0.31700
O 	O 	0.16473 0.87763 0.85389 -0.44100
O 	O 	0.14224 0.83901 0.68992 -0.27000
O 	O 	0.13897 0.84505 0.77570 -0.53900
C 	C 	0.17454 0.90467 0.85517 0.32000
O 	O 	0.18265 0.91586 0.81052 -0.34900
Cd	Cd	0.17104 0.01947 0.56354 1.24400
Cd	Cd	0.14653 0.03856 0.43729 1.18100
O 	O 	0.22592 0.02804 0.58866 -0.30800
O 	O 	0.19066 0.01045 0.64340 -0.33200
C 	C 	0.22016 0.01661 0.63400 0.24400
O 	O 	0.11879 0.01359 0.56727 -0.35500
O 	O 	0.11362 0.00769 0.47853 -0.41100
C 	C 	0.10083 0.01183 0.52582 0.30600
C 	C 	0.15837 0.07897 0.54297 0.31900
O 	O 	0.18459 0.00614 0.46397 -0.45000
O 	O 	0.16021 0.07535 0.59340 -0.27300
O 	O 	0.16667 0.05673 0.51324 -0.54200
C 	C 	0.18055 0.97876 0.47576 0.32600
O 	O 	0.17661 0.97365 0.52545 -0.34700
C 	C 	0.36105 0.94158 0.93522 0.09700
N 	N 	0.38521 0.95836 0.91724 -0.13800
C 	C 	0.40642 0.96959 0.95114 0.12800
N 	N 	0.40282 0.96479 0.00317 -0.14200
C 	C 	0.37777 0.94935 0.02161 0.12900
N 	N 	0.35724 0.93722 0.98746 -0.13200
C 	C 	0.38299 0.98086 0.49473 0.09900
N 	N 	0.40189 0.00476 0.49232 -0.13900
C 	C 	0.41303 0.01411 0.44543 0.12900
N 	N 	0.40565 0.99928 0.40070 -0.14200
C 	C 	0.38673 0.97539 0.40269 0.12900
N 	N 	0.37588 0.96579 0.44985 -0.13700
C 	C 	0.37105 0.94857 0.07865 -0.04700
C 	C 	0.37051 0.97466 0.10991 0.10600
C 	C 	0.37117 0.97298 0.16463 -0.08400
C 	C 	0.36959 0.94586 0.18880 -0.00300
C 	C 	0.36628 0.91992 0.15774 0.07400
C 	C 	0.36780 0.92148 0.10275 -0.05100
N 	N 	0.36829 0.00126 0.08773 -0.19900
H 	H 	0.37245 0.99290 0.18857 0.05800
C 	C 	0.37178 0.94510 0.24667 -0.00400
N 	N 	0.36212 0.89355 0.18030 -0.19400
H 	H 	0.36715 0.90154 0.07878 0.05500
C 	C 	0.34583 0.95444 0.27799 -0.08500
C 	C 	0.34934 0.96200 0.33125 0.10500
C 	C 	0.37928 0.95934 0.35370 -0.04900
C 	C 	0.40412 0.94643 0.32395 -0.05000
C 	C 	0.40091 0.93979 0.27032 0.07300
H 	H 	0.32326 0.95752 0.26015 0.06200
N 	N 	0.32416 0.97254 0.36004 -0.20000
H 	H 	0.42673 0.94344 0.34172 0.05200
N 	N 	0.42606 0.92911 0.24162 -0.19400
H 	H 	0.30237 0.97510 0.34272 0.09500
H 	H 	0.32570 0.97777 0.39990 0.10000
H 	H 	0.44759 0.92573 0.25931 0.08800
H 	H 	0.42449 0.92375 0.20180 0.09200
H 	H 	0.36041 0.87445 0.15708 0.09200
H 	H 	0.35994 0.89178 0.22092 0.09500
H 	H 	0.36316 0.00312 0.04822 0.09700
H 	H 	0.36970 0.02045 0.11076 0.08900
C 	C 	0.29469 0.99153 0.66480 0.07800
C 	C 	0.32603 0.99961 0.65413 -0.08200
C 	C 	0.34492 0.98074 0.62237 0.02100
C 	C 	0.33194 0.95647 0.59686 0.07900
C 	C 	0.30021 0.94912 0.60572 -0.08100
C 	C 	0.28240 0.96601 0.64257 0.02100
N 	N 	0.27163 0.01143 0.67377 -0.15400
C 	C 	0.24464 0.99905 0.65726 0.02400
C 	C 	0.25044 0.97064 0.63865 -0.05100
N 	N 	0.34709 0.95122 0.55041 -0.16300
C 	C 	0.36967 0.97192 0.54591 0.05800
C 	C 	0.36919 0.99042 0.59011 -0.07000
H 	H 	0.33440 0.02119 0.66554 0.05800
H 	H 	0.28898 0.93276 0.58104 0.07000
H 	H 	0.23608 0.95941 0.60997 0.06700
H 	H 	0.37768 0.01278 0.59040 0.05800
H 	H 	0.27550 0.03402 0.67549 0.09500
H 	H 	0.33706 0.94017 0.51859 0.09800
C 	C 	0.29236 0.91217 0.74556 0.08400
C 	C 	0.29581 0.93539 0.78232 -0.08300
C 	C 	0.30582 0.92870 0.83227 0.03400
C 	C 	0.31586 0.90089 0.84353 0.08900
C 	C 	0.31604 0.87834 0.80520 -0.07700
C 	C 	0.30317 0.88416 0.75633 0.01800
N 	N 	0.26720 0.91027 0.71478 -0.15300
C 	C 	0.26081 0.88150 0.70702 0.02200
C 	C 	0.28353 0.86473 0.73063 -0.04500
N 	N 	0.33521 0.90187 0.88437 -0.16200
C 	C 	0.33744 0.93042 0.89906 0.06500
C 	C 	0.31984 0.94791 0.86717 -0.07200
H 	H 	0.28803 0.95727 0.77386 0.06400
H 	H 	0.32397 0.85657 0.81406 0.06100
H 	H 	0.27955 0.84250 0.74292 0.06400
H 	H 	0.32452 0.97078 0.86014 0.06100
H 	H 	0.24994 0.92655 0.71441 0.10200
H 	H 	0.35208 0.88599 0.89175 0.09200
C 	C 	0.15692 0.36791 0.76955 -0.05000
C 	C 	0.14573 0.34299 0.74152 0.10600
C 	C 	0.15107 0.34067 0.68700 -0.08600
C 	C 	0.16596 0.36332 0.65990 -0.00400
C 	C 	0.17941 0.38697 0.68846 0.07200
C 	C 	0.17518 0.38872 0.74318 -0.05100
N 	N 	0.12898 0.32178 0.76621 -0.20000
H 	H 	0.14164 0.32214 0.66513 0.06200
C 	C 	0.16187 0.36486 0.60259 -0.00300
N 	N 	0.19568 0.40840 0.66355 -0.19400
H 	H 	0.18460 0.40728 0.76499 0.05000
C 	C 	0.13298 0.37457 0.58446 -0.08400
C 	C 	0.12892 0.37876 0.53093 0.10600
C 	C 	0.15493 0.37522 0.49546 -0.04800
C 	C 	0.18316 0.36353 0.51288 -0.05100
C 	C 	0.18666 0.35764 0.56619 0.07200
H 	H 	0.11357 0.37886 0.61215 0.05900
N 	N 	0.09994 0.38560 0.51363 -0.19800
H 	H 	0.20274 0.35982 0.48529 0.05200
N 	N 	0.21390 0.34561 0.58220 -0.19400
H 	H 	0.08122 0.38976 0.54026 0.09000
H 	H 	0.09529 0.38512 0.47370 0.09500
H 	H 	0.23236 0.34104 0.55527 0.08900
H 	H 	0.21678 0.34012 0.62119 0.09200
H 	H 	0.20498 0.42605 0.68493 0.08600
H 	H 	0.19966 0.40763 0.62303 0.09100
H 	H 	0.12408 0.32294 0.80647 0.10300
H 	H 	0.12062 0.30366 0.74498 0.10000
C 	C 	0.22264 0.01798 0.94511 -0.07700
C 	C 	0.20651 0.00035 0.98102 0.02100
C 	C 	0.19414 0.01314 0.02813 0.05800
C 	C 	0.19194 0.04373 0.03328 -0.00000
C 	C 	0.20298 0.06135 0.99248 -0.10600
C 	C 	0.22118 0.04850 0.95086 0.10000
C 	C 	0.19582 0.97107 0.96320 0.02900
N 	N 	0.18294 0.99513 0.06990 -0.01300
H 	H 	0.18012 0.05363 0.06752 0.06800
N 	N 	0.23738 0.06640 0.91360 -0.02600
H 	H 	0.23426 0.00805 0.91067 0.07300
C 	C 	0.16457 0.96701 0.94726 0.06200
C 	C 	0.15615 0.94096 0.92141 -0.00100
C 	C 	0.17936 0.92095 0.90437 -0.10900
C 	C 	0.20993 0.92357 0.92422 0.12400
C 	C 	0.21787 0.94851 0.95430 -0.07600
N 	N 	0.14272 0.99079 0.95025 -0.00500
H 	H 	0.13231 0.93830 0.90806 0.06100
N 	N 	0.23311 0.90131 0.91303 -0.02600
H 	H 	0.24173 0.95121 0.96756 0.07900
O 	O 	0.23527 0.06064 0.86363 -0.12900
O 	O 	0.25513 0.08784 0.92967 -0.10100
O 	O 	0.15936 0.00378 0.10011 -0.08700
O 	O 	0.19785 0.97123 0.08029 -0.09000
O 	O 	0.24115 0.89433 0.86474 -0.10400
O 	O 	0.24834 0.89010 0.95111 -0.10100
O 	O 	0.14674 0.01278 0.91955 -0.14800
O 	O 	0.11629 0.98810 0.97653 -0.08300
C 	C 	0.15545 0.26771 0.05246 0.08600
C 	C 	0.13597 0.29187 0.04433 -0.08600
C 	C 	0.14969 0.31657 0.02180 0.02400
C 	C 	0.17958 0.31502 0.99812 0.07500
C 	C 	0.19740 0.28921 0.99942 -0.07900
C 	C 	0.18596 0.26670 0.03107 0.01400
N 	N 	0.14421 0.24043 0.05849 -0.15300
C 	C 	0.16725 0.22194 0.04102 0.02200
C 	C 	0.19346 0.23745 0.02330 -0.04800
N 	N 	0.18196 0.33396 0.95873 -0.16300
C 	C 	0.15387 0.34778 0.95761 0.05800
C 	C 	0.13316 0.33751 0.99588 -0.07300
H 	H 	0.11071 0.29033 0.05004 0.06300
H 	H 	0.21833 0.28615 0.97459 0.05700
H 	H 	0.21047 0.22918 0.99409 0.06000
H 	H 	0.10774 0.33816 0.99360 0.05900
H 	H 	0.12027 0.23511 0.05929 0.10800
H 	H 	0.19789 0.33189 0.92686 0.09200
C 	C 	0.10227 0.19350 0.41723 -0.08200
C 	C 	0.09393 0.16479 0.42951 0.03300
C 	C 	0.06839 0.15118 0.40444 0.03400
C 	C 	0.05314 0.16558 0.36474 0.01000
C 	C 	0.06399 0.19285 0.34822 -0.14700
C 	C 	0.08757 0.20756 0.37645 0.13700
C 	C 	0.11367 0.14809 0.46480 0.02300
N 	N 	0.05897 0.12214 0.41737 -0.01200
H 	H 	0.03453 0.15449 0.34397 -0.03800
N 	N 	0.09731 0.23643 0.36264 -0.02600
H 	H 	0.12106 0.20444 0.43790 0.08500
C 	C 	0.14379 0.13823 0.44777 0.04200
C 	C 	0.15952 0.11748 0.47660 -0.01900
C 	C 	0.14497 0.10554 0.52113 -0.13200
C 	C 	0.11557 0.11660 0.53968 0.12600
C 	C 	0.10071 0.13859 0.51242 -0.07700
N 	N 	0.15773 0.14808 0.39974 -0.01800
H 	H 	0.18230 0.10935 0.46257 0.03400
N 	N 	0.09879 0.10285 0.58149 -0.02700
H 	H 	0.07774 0.14647 0.52600 0.09000
O 	O 	0.12709 0.24248 0.35667 -0.09800
O 	O 	0.07644 0.25692 0.35772 -0.10600
O 	O 	0.03046 0.11730 0.43496 -0.11000
O 	O 	0.07803 0.10027 0.40767 -0.13000
O 	O 	0.10576 0.10907 0.62981 -0.06600
O 	O 	0.07352 0.08792 0.57158 -0.08400
O 	O 	0.18379 0.16299 0.40035 -0.10400
O 	O 	0.14585 0.14008 0.35519 -0.11000
C 	C 	0.12017 0.28996 0.18764 0.08600
C 	C 	0.13588 0.29308 0.23531 -0.08200
C 	C 	0.12809 0.31711 0.26832 0.03400
C 	C 	0.10832 0.33895 0.25218 0.07800
C 	C 	0.09440 0.33710 0.20324 -0.07900
C 	C 	0.09995 0.31188 0.17177 0.01500
N 	N 	0.11035 0.26373 0.16934 -0.15300
C 	C 	0.08331 0.26825 0.14400 0.01600
C 	C 	0.07666 0.29802 0.14371 -0.05100
N 	N 	0.11469 0.36437 0.27721 -0.16300
C 	C 	0.13885 0.35908 0.30886 0.05800
C 	C 	0.14752 0.32974 0.30524 -0.06700
H 	H 	0.15164 0.27621 0.24789 0.07300
H 	H 	0.07871 0.35411 0.19097 0.05600
H 	H 	0.05314 0.30682 0.14025 0.05700
H 	H 	0.16991 0.32103 0.31674 0.06300
H 	H 	0.11586 0.24397 0.18663 0.10900
H 	H 	0.10776 0.38505 0.26543 0.09100
C 	C 	0.43446 0.03938 0.44338 -0.05000
C 	C 	0.42755 0.06402 0.41333 0.10200
C 	C 	0.45029 0.08602 0.40725 -0.08600
C 	C 	0.47902 0.08451 0.43267 -0.00500
C 	C 	0.48495 0.06096 0.46584 0.07200
C 	C 	0.46273 0.03840 0.47029 -0.05300
N 	N 	0.39892 0.06708 0.39156 -0.19900
H 	H 	0.44556 0.10445 0.38285 0.05600
C 	C 	0.50313 0.10718 0.42275 -0.00500
N 	N 	0.51191 0.05981 0.49323 -0.19400
H 	H 	0.46765 0.01981 0.49421 0.05200
C 	C 	0.50116 0.13389 0.45100 -0.08600
C 	C 	0.52376 0.15583 0.44299 0.10100
C 	C 	0.54958 0.15028 0.40778 -0.05000
C 	C 	0.55122 0.12376 0.37886 -0.05200
C 	C 	0.52802 0.10226 0.38546 0.07200
H 	H 	0.48173 0.13775 0.47883 0.05600
N 	N 	0.52001 0.18236 0.46790 -0.19900
H 	H 	0.57081 0.11973 0.35140 0.05200
N 	N 	0.52979 0.07700 0.35602 -0.19400
H 	H 	0.50156 0.18584 0.49534 0.08700
H 	H 	0.53437 0.20011 0.45863 0.09400
H 	H 	0.54855 0.07340 0.32922 0.08700
H 	H 	0.51245 0.06090 0.35873 0.09100
H 	H 	0.51635 0.04202 0.51675 0.08800
H 	H 	0.52840 0.07672 0.49233 0.09200
H 	H 	0.38034 0.05290 0.40012 0.09500
H 	H 	0.39453 0.08471 0.36764 0.08800
C 	C 	0.55785 0.08986 0.92059 -0.04900
C 	C 	0.53747 0.08953 0.87757 0.10100
C 	C 	0.51348 0.06842 0.87487 -0.08600
C 	C 	0.50836 0.04896 0.91572 -0.00500
C 	C 	0.52901 0.04902 0.95827 0.07300
C 	C 	0.55365 0.06940 0.96006 -0.05200
N 	N 	0.53999 0.10996 0.83994 -0.19900
H 	H 	0.49772 0.06814 0.84220 0.05600
C 	C 	0.47984 0.03035 0.91580 -0.00400
N 	N 	0.52524 0.02970 0.99757 -0.19400
H 	H 	0.56954 0.06946 0.99257 0.05200
C 	C 	0.48204 0.00161 0.89534 -0.08800
C 	C 	0.45757 0.98151 0.90421 0.10300
C 	C 	0.43016 0.99073 0.93300 -0.04900
C 	C 	0.42694 0.02011 0.94948 -0.05200
C 	C 	0.45154 0.04006 0.94126 0.07200
H 	H 	0.50347 0.99448 0.87470 0.05900
N 	N 	0.46086 0.95338 0.88607 -0.20000
H 	H 	0.40559 0.02725 0.97038 0.05000
N 	N 	0.44804 0.06832 0.95861 -0.19400
H 	H 	0.48134 0.94675 0.86537 0.09000
H 	H 	0.44320 0.93786 0.89197 0.09600
H 	H 	0.42733 0.07510 0.97845 0.08800
H 	H 	0.46549 0.08395 0.95183 0.09100
H 	H 	0.54037 0.03021 0.02914 0.08700
H 	H 	0.50758 0.01385 0.99705 0.09200
H 	H 	0.55539 0.12765 0.84331 0.09400
H 	H 	0.52548 0.10892 0.80758 0.08700
C 	C 	0.61525 0.15915 0.03048 -0.04700
C 	C 	0.62336 0.18910 0.03687 0.10400
C 	C 	0.62880 0.20072 0.08739 -0.08500
C 	C 	0.62413 0.18359 0.13166 -0.00300
C 	C 	0.61476 0.15397 0.12534 0.07400
C 	C 	0.61144 0.14187 0.07473 -0.05100
N 	N 	0.62470 0.20704 0.99524 -0.19900
H 	H 	0.63550 0.22350 0.09241 0.05800
C 	C 	0.62676 0.19742 0.18457 -0.00500
N 	N 	0.60836 0.13720 0.16758 -0.19400
H 	H 	0.60530 0.11894 0.06980 0.05200
C 	C 	0.60136 0.21387 0.20560 -0.08500
C 	C 	0.59797 0.21879 0.25997 0.10300
C 	C 	0.61972 0.20606 0.29346 -0.05000
C 	C 	0.64780 0.19414 0.27188 -0.05300
C 	C 	0.65171 0.19005 0.21729 0.07600
H 	H 	0.58324 0.22130 0.18002 0.05600
N 	N 	0.57350 0.23511 0.27997 -0.19900
H 	H 	0.66547 0.18597 0.29756 0.05500
N 	N 	0.67880 0.17812 0.19673 -0.19400
H 	H 	0.55673 0.24350 0.25526 0.08800
H 	H 	0.57162 0.24053 0.31997 0.09400
H 	H 	0.69664 0.17163 0.22124 0.09800
H 	H 	0.68281 0.17613 0.15623 0.09900
H 	H 	0.60242 0.11515 0.16237 0.08800
H 	H 	0.60813 0.14596 0.20576 0.09300
H 	H 	0.61690 0.20021 0.95850 0.09500
H 	H 	0.63208 0.22873 0.00003 0.08900
C 	C 	0.86116 0.16335 0.32176 -0.08000
C 	C 	0.85700 0.14836 0.27377 0.02400
C 	C 	0.83773 0.12326 0.27200 0.05100
C 	C 	0.82547 0.11187 0.31880 -0.00800
C 	C 	0.83110 0.12604 0.36727 -0.10100
C 	C 	0.84751 0.15297 0.36804 0.12200
C 	C 	0.87626 0.15688 0.22737 0.02600
N 	N 	0.83060 0.10928 0.22282 -0.01700
H 	H 	0.81173 0.09191 0.31738 0.03300
N 	N 	0.84964 0.17026 0.41535 -0.01900
H 	H 	0.87550 0.18295 0.32329 0.06500
C 	C 	0.87752 0.18646 0.21313 0.04700
C 	C 	0.90537 0.19747 0.19040 -0.00600
C 	C 	0.93109 0.17880 0.17990 -0.10800
C 	C 	0.92629 0.14834 0.18099 0.11200
C 	C 	0.89930 0.13747 0.20667 -0.08400
N 	N 	0.85148 0.20567 0.22525 -0.01500
H 	H 	0.90794 0.22079 0.18511 0.05900
N 	N 	0.94869 0.12854 0.15631 -0.02500
H 	H 	0.89725 0.11425 0.21348 0.09200
O 	O 	0.87681 0.17422 0.43663 -0.10000
O 	O 	0.82512 0.18462 0.43382 -0.09400
O 	O 	0.83375 0.08110 0.21648 -0.10200
O 	O 	0.81949 0.12452 0.18526 -0.08400
O 	O 	0.96022 0.13383 0.10978 -0.06800
O 	O 	0.95447 0.10357 0.17728 -0.07400
O 	O 	0.85638 0.23189 0.24444 -0.10700
O 	O 	0.82286 0.19703 0.21667 -0.08800
C 	C 	0.96414 0.05517 0.49101 -0.06900
C 	C 	0.96883 0.03235 0.52556 0.03000
C 	C 	0.94293 0.02100 0.55428 0.06700
C 	C 	0.91272 0.03250 0.54778 0.00100
C 	C 	0.90778 0.05399 0.51079 -0.09100
C 	C 	0.93380 0.06604 0.48340 0.12900
C 	C 	0.00096 0.02044 0.53114 0.03600
N 	N 	0.94686 0.99669 0.58767 -0.01300
H 	H 	0.89287 0.02362 0.56959 0.06200
N 	N 	0.92959 0.08968 0.44858 -0.02400
H 	H 	0.98410 0.06444 0.46991 0.09500
C 	C 	0.01577 0.00420 0.48956 0.05800
C 	C 	0.04828 0.99898 0.49034 -0.00400
C 	C 	0.06605 0.00920 0.53277 -0.08600
C 	C 	0.05012 0.02092 0.57798 0.13100
C 	C 	0.01799 0.02783 0.57591 -0.07100
N 	N 	0.99795 0.99324 0.44627 -0.01800
H 	H 	0.05982 0.98753 0.45735 0.07100
N 	N 	0.06566 0.02341 0.62692 -0.02400
H 	H 	0.00633 0.03903 0.60896 0.09500
O 	O 	0.94216 0.08831 0.40151 -0.10100
O 	O 	0.91512 0.11340 0.46516 -0.09100
O 	O 	0.93415 0.99741 0.63463 -0.08100
O 	O 	0.95860 0.97228 0.56843 -0.07000
O 	O 	0.06625 0.04841 0.65245 -0.07200
O 	O 	0.07565 0.99999 0.64901 -0.08300
O 	O 	0.00973 0.99420 0.39875 -0.09400
O 	O 	0.97151 0.97959 0.45481 -0.12600
C 	C 	0.72329 0.19034 0.57234 0.08600
C 	C 	0.71325 0.20837 0.53237 -0.08600
C 	C 	0.68082 0.21256 0.52703 0.02600
C 	C 	0.65900 0.19704 0.55702 0.07500
C 	C 	0.66910 0.17702 0.59366 -0.07900
C 	C 	0.70143 0.17501 0.60258 0.01400
N 	N 	0.75065 0.17552 0.56842 -0.15300
C 	C 	0.74635 0.15038 0.59428 0.02300
C 	C 	0.71610 0.14943 0.61629 -0.04800
N 	N 	0.63236 0.19306 0.53047 -0.16300
C 	C 	0.63709 0.20532 0.48330 0.05800
C 	C 	0.66693 0.21772 0.47972 -0.07200
H 	H 	0.72996 0.21647 0.50336 0.06500
H 	H 	0.65271 0.16157 0.61075 0.05600
H 	H 	0.70364 0.12932 0.62460 0.05400
H 	H 	0.67996 0.22087 0.44319 0.06200
H 	H 	0.76721 0.17789 0.53770 0.10200
H 	H 	0.61618 0.17633 0.53776 0.09200
C 	C 	0.04303 0.97561 0.78472 -0.06500
C 	C 	0.02304 0.96879 0.74346 0.02900
C 	C 	0.03144 0.94630 0.70685 0.07600
C 	C 	0.05851 0.92945 0.71414 0.00100
C 	C 	0.07779 0.93545 0.75683 -0.07700
C 	C 	0.07081 0.95969 0.79069 0.12700
C 	C 	0.99426 0.98650 0.73738 0.03600
N 	N 	0.01319 0.94115 0.66140 -0.01400
H 	H 	0.06421 0.91143 0.68710 0.07800
N 	N 	0.09245 0.96887 0.82987 -0.02300
H 	H 	0.03734 0.99377 0.81156 0.08200
C 	C 	0.96514 0.97750 0.75929 0.05800
C 	C 	0.93998 0.99738 0.76422 0.00700
C 	C 	0.94365 0.02614 0.74723 -0.09100
C 	C 	0.97176 0.03416 0.72093 0.11600
C 	C 	0.99702 0.01447 0.71688 -0.07900
N 	N 	0.96148 0.94872 0.77893 -0.01400
H 	H 	0.91823 0.99093 0.78392 0.05900
N 	N 	0.97548 0.06297 0.70134 -0.03400
H 	H 	0.01935 0.02153 0.70045 0.09600
O 	O 	0.08217 0.97526 0.87729 -0.09300
O 	O 	0.12180 0.97367 0.81689 -0.09100
O 	O 	0.01494 0.95926 0.62309 -0.07900
O 	O 	0.99759 0.91685 0.65586 -0.07100
O 	O 	0.99934 0.07889 0.71525 -0.11300
O 	O 	0.95665 0.07226 0.66614 -0.09800
O 	O 	0.97210 0.94270 0.82464 -0.11200
O 	O 	0.94469 0.92950 0.75370 -0.10100
C 	C 	0.05836 0.12778 0.78306 -0.07300
C 	C 	0.04748 0.15610 0.77385 0.03400
C 	C 	0.06413 0.18030 0.79431 0.05000
C 	C 	0.08683 0.17592 0.83208 0.00900
C 	C 	0.09302 0.14763 0.84913 -0.11700
C 	C 	0.08096 0.12340 0.82091 0.11700
C 	C 	0.01464 0.15984 0.75758 0.02400
N 	N 	0.05618 0.20943 0.78001 -0.01500
H 	H 	0.09803 0.19463 0.85074 0.06100
N 	N 	0.09095 0.09439 0.83129 -0.05600
H 	H 	0.04715 0.10904 0.76460 0.09300
C 	C 	0.00489 0.14879 0.70849 0.06100
C 	C 	0.97281 0.14291 0.70117 0.00100
C 	C 	0.95075 0.14807 0.74237 -0.11500
C 	C 	0.96000 0.16371 0.78772 0.08700
C 	C 	0.99192 0.16922 0.79533 -0.07800
N 	N 	0.02748 0.14283 0.66665 -0.01500
H 	H 	0.96537 0.13302 0.66451 0.07800
N 	N 	0.93702 0.17369 0.82637 -0.03100
H 	H 	0.99921 0.17930 0.83196 0.08100
O 	O 	0.07872 0.08081 0.87101 -0.16800
O 	O 	0.10850 0.08007 0.79676 -0.17100
O 	O 	0.05326 0.23014 0.81583 -0.10200
O 	O 	0.05233 0.21536 0.73108 -0.08700
O 	O 	0.94084 0.16854 0.87563 -0.16400
O 	O 	0.91302 0.18905 0.81257 -0.09200
O 	O 	0.02404 0.12009 0.63555 -0.07100
O 	O 	0.05013 0.16127 0.65724 -0.08000
C 	C 	0.70284 0.14241 0.82148 0.08200
C 	C 	0.72108 0.16033 0.78899 -0.07900
C 	C 	0.73681 0.14726 0.74518 0.01700
C 	C 	0.73343 0.11745 0.73335 0.08200
C 	C 	0.71289 0.10020 0.76363 -0.08400
C 	C 	0.69899 0.11295 0.80908 0.03100
N 	N 	0.67849 0.15233 0.85180 -0.16200
C 	C 	0.65859 0.12952 0.85734 0.05800
C 	C 	0.67073 0.10449 0.83210 -0.06900
N 	N 	0.76040 0.10666 0.71161 -0.15300
C 	C 	0.78143 0.12887 0.71088 0.03100
C 	C 	0.76718 0.15460 0.72992 -0.04600
H 	H 	0.72398 0.18338 0.79857 0.06100
H 	H 	0.70974 0.07716 0.75416 0.06600
H 	H 	0.65717 0.08539 0.82078 0.06100
H 	H 	0.77998 0.17285 0.74699 0.06700
H 	H 	0.67217 0.17432 0.85740 0.09100
H 	H 	0.76680 0.08459 0.71266 0.10600
C 	C 	0.04080 0.58608 0.38074 -0.05100
C 	C 	0.06347 0.58325 0.41983 0.10500
C 	C 	0.08451 0.55958 0.41659 -0.08600
C 	C 	0.08464 0.54009 0.37321 -0.00500
C 	C 	0.06556 0.54593 0.33024 0.07100
C 	C 	0.04327 0.56856 0.33483 -0.05200
N 	N 	0.06557 0.60346 0.45966 -0.19900
H 	H 	0.10022 0.55588 0.44846 0.05700
C 	C 	0.09991 0.51123 0.37736 -0.00400
N 	N 	0.06829 0.52966 0.28492 -0.19400
H 	H 	0.02698 0.57171 0.30355 0.05100
C 	C 	0.08100 0.48694 0.38832 -0.08500
C 	C 	0.09425 0.45905 0.39172 0.10300
C 	C 	0.12733 0.45565 0.38630 -0.05000
C 	C 	0.14638 0.48000 0.37627 -0.05200
C 	C 	0.13295 0.50780 0.37096 0.07000
H 	H 	0.05572 0.48971 0.39332 0.05700
N 	N 	0.07508 0.43563 0.39961 -0.20000
H 	H 	0.17168 0.47725 0.37175 0.04900
N 	N 	0.15177 0.53090 0.35899 -0.19400
H 	H 	0.05079 0.43852 0.40497 0.08700
H 	H 	0.08384 0.41431 0.39911 0.09400
H 	H 	0.17615 0.52820 0.35497 0.08700
H 	H 	0.14244 0.55158 0.35273 0.09000
H 	H 	0.05332 0.53335 0.25402 0.08600
H 	H 	0.08603 0.51399 0.27924 0.09000
H 	H 	0.05302 0.62309 0.45944 0.09800
H 	H 	0.08130 0.60046 0.48977 0.08900
C 	C 	0.00927 0.56398 0.90130 -0.04600
C 	C 	0.03839 0.56041 0.87353 0.10200
C 	C 	0.05461 0.53377 0.87567 -0.08500
C 	C 	0.04327 0.51143 0.90758 -0.00500
C 	C 	0.01598 0.51626 0.93987 0.07300
C 	C 	0.99893 0.54241 0.93578 -0.05600
N 	N 	0.05121 0.58267 0.84587 -0.19800
H 	H 	0.07618 0.53044 0.85252 0.05600
C 	C 	0.05983 0.48287 0.90573 -0.00500
N 	N 	0.00581 0.49582 0.97416 -0.19400
H 	H 	0.97708 0.54555 0.95825 0.05200
C 	C 	0.08810 0.48032 0.93221 -0.08600
C 	C 	0.10719 0.45541 0.92464 0.10200
C 	C 	0.09662 0.43173 0.89264 -0.04900
C 	C 	0.06763 0.43375 0.86809 -0.05200
C 	C 	0.04931 0.45927 0.87361 0.07300
H 	H 	0.09606 0.49845 0.95676 0.05500
N 	N 	0.13605 0.45490 0.94638 -0.19900
H 	H 	0.05956 0.41559 0.84376 0.05300
N 	N 	0.02188 0.46104 0.84762 -0.19400
H 	H 	0.14304 0.47196 0.97156 0.08700
H 	H 	0.15238 0.43844 0.93676 0.09600
H 	H 	0.01437 0.44351 0.82398 0.08900
H 	H 	0.00776 0.47972 0.85045 0.09200
H 	H 	0.98524 0.49929 0.99693 0.08600
H 	H 	0.01850 0.47662 0.97938 0.09100
H 	H 	0.04176 0.60375 0.84875 0.09400
H 	H 	0.07192 0.57943 0.82336 0.08800
C 	C 	0.95479 0.62133 0.77301 -0.04700
C 	C 	0.97962 0.63119 0.73984 0.10400
C 	C 	0.97512 0.63248 0.68576 -0.08400
C 	C 	0.94587 0.62549 0.66466 -0.00400
C 	C 	0.92028 0.61798 0.69842 0.07200
C 	C 	0.92515 0.61555 0.75234 -0.05100
N 	N 	0.00762 0.63977 0.75974 -0.19800
H 	H 	0.99449 0.63885 0.65993 0.05800
C 	C 	0.94311 0.62412 0.60691 -0.00600
N 	N 	0.89105 0.61333 0.67947 -0.19400
H 	H 	0.90594 0.60874 0.77811 0.05100
C 	C 	0.94392 0.59675 0.58073 -0.08500
C 	C 	0.94852 0.59471 0.52608 0.10300
C 	C 	0.95430 0.62043 0.49780 -0.04900
C 	C 	0.95027 0.64784 0.52324 -0.05300
C 	C 	0.94417 0.64991 0.57758 0.07400
H 	H 	0.94170 0.57699 0.60305 0.05600
N 	N 	0.94694 0.56816 0.50093 -0.19900
H 	H 	0.95330 0.66762 0.50118 0.05600
N 	N 	0.93957 0.67662 0.60136 -0.19400
H 	H 	0.94406 0.54911 0.52223 0.08800
H 	H 	0.94692 0.56635 0.46006 0.09400
H 	H 	0.94149 0.69565 0.57976 0.09400
H 	H 	0.93291 0.67868 0.64099 0.09500
H 	H 	0.87248 0.60707 0.70445 0.08800
H 	H 	0.88623 0.61671 0.64023 0.09100
H 	H 	0.01072 0.64176 0.80010 0.09700
H 	H 	0.02628 0.64583 0.73475 0.09100
C 	C 	0.01985 0.96381 0.98615 -0.06900
C 	C 	0.01121 0.98588 0.02307 0.03200
C 	C 	0.98475 0.98185 0.05680 0.06800
C 	C 	0.96671 0.95625 0.05192 0.00900
C 	C 	0.97475 0.93462 0.01381 -0.08400
C 	C 	0.00196 0.93808 0.98162 0.12000
C 	C 	0.03079 0.01268 0.02739 0.02700
N 	N 	0.97688 0.00306 0.09744 -0.01500
H 	H 	0.94593 0.95353 0.07695 0.07400
N 	N 	0.01154 0.91554 0.94431 -0.03200
H 	H 	0.04073 0.96647 0.96136 0.09200
C 	C 	0.05959 0.01233 0.05366 0.06000
C 	C 	0.08078 0.03575 0.04806 0.00200
C 	C 	0.07371 0.05921 0.01607 -0.07300
C 	C 	0.04351 0.06101 0.99477 0.12000
C 	C 	0.02249 0.03745 0.99969 -0.06100
N 	N 	0.06805 0.98764 0.08396 -0.01800
H 	H 	0.10347 0.03493 0.06628 0.07500
N 	N 	0.03408 0.08666 0.96813 -0.02100
H 	H 	0.99988 0.03820 0.98115 0.08200
O 	O 	0.02098 0.92239 0.89731 -0.09300
O 	O 	0.01397 0.88863 0.95893 -0.10900
O 	O 	0.96983 0.02970 0.08558 -0.07100
O 	O 	0.97329 0.99491 0.14562 -0.08000
O 	O 	0.03865 0.11247 0.98930 -0.08000
O 	O 	0.01762 0.08410 0.92605 -0.12600
O 	O 	0.09705 0.97853 0.08350 -0.07000
O 	O 	0.04698 0.97481 0.11321 -0.08700
C 	C 	0.82120 0.02642 0.96553 -0.08100
C 	C 	0.84815 0.01014 0.97622 0.03300
C 	C 	0.87806 0.02026 0.95922 0.04900
C 	C 	0.88034 0.04552 0.92970 0.01200
C 	C 	0.85311 0.05902 0.91242 -0.11600
C 	C 	0.82346 0.05056 0.93302 0.13300
C 	C 	0.84449 0.98058 0.99766 0.02100
N 	N 	0.90584 0.00364 0.96806 -0.01200
H 	H 	0.90329 0.05303 0.91629 0.00800
N 	N 	0.79552 0.06591 0.91966 -0.02500
H 	H 	0.79831 0.01938 0.98020 0.08300
C 	C 	0.85891 0.97322 0.04457 0.06400
C 	C 	0.86321 0.94366 0.05593 -0.00100
C 	C 	0.85205 0.92156 0.02183 -0.10300
C 	C 	0.83284 0.92926 0.98023 0.09500
C 	C 	0.82985 0.95867 0.96755 -0.07800
N 	N 	0.86962 0.99565 0.08018 -0.01400
H 	H 	0.87629 0.93797 0.08999 0.07400
N 	N 	0.81666 0.90721 0.95046 -0.02700
H 	H 	0.81706 0.96442 0.93317 0.07500
O 	O 	0.79447 0.09432 0.92386 -0.09100
O 	O 	0.77076 0.05144 0.90508 -0.09700
O 	O 	0.90979 0.97815 0.94491 -0.12000
O 	O 	0.92903 0.01573 0.99278 -0.09200
O 	O 	0.79912 0.88809 0.97426 -0.09400
O 	O 	0.81836 0.90703 0.89949 -0.14100
O 	O 	0.85133 0.01759 0.09361 -0.08300
O 	O 	0.89692 0.99332 0.10147 -0.07300
C 	C 	0.04239 0.82135 0.72161 -0.08000
C 	C 	0.03561 0.81080 0.77176 0.02100
C 	C 	0.05994 0.79827 0.80013 0.02800
C 	C 	0.09107 0.80007 0.78134 -0.03100
C 	C 	0.09836 0.81599 0.73648 -0.12400
C 	C 	0.07377 0.82378 0.70354 0.12200
C 	C 	0.00489 0.81749 0.79806 0.02800
N 	N 	0.05345 0.78621 0.85036 -0.01900
H 	H 	0.10988 0.79224 0.80510 0.03100
N 	N 	0.08053 0.83416 0.65206 -0.02400
H 	H 	0.02352 0.82919 0.69802 0.08700
C 	C 	0.99793 0.84637 0.81556 0.04200
C 	C 	0.97492 0.85139 0.85508 0.00300
C 	C 	0.95984 0.82776 0.87875 -0.13800
C 	C 	0.96365 0.79936 0.85646 0.13600
C 	C 	0.98576 0.79449 0.81532 -0.07900
N 	N 	0.01612 0.87033 0.79667 -0.00700
H 	H 	0.97100 0.87343 0.87071 0.01500
N 	N 	0.94642 0.77522 0.87755 -0.02700
H 	H 	0.98990 0.77245 0.79993 0.08300
O 	O 	0.06803 0.85844 0.63737 -0.08800
O 	O 	0.09627 0.81775 0.61808 -0.07700
O 	O 	0.05513 0.75810 0.85611 -0.10500
O 	O 	0.04839 0.80347 0.89111 -0.13300
O 	O 	0.91605 0.77702 0.88497 -0.10300
O 	O 	0.96101 0.75123 0.88845 -0.09300
O 	O 	0.00403 0.88823 0.76412 -0.08500
O 	O 	0.04405 0.87527 0.81445 -0.16400
C 	C 	0.95379 0.69434 0.99630 0.08800
C 	C 	0.96467 0.71345 0.03559 -0.07800
C 	C 	0.94225 0.72765 0.06891 0.01700
C 	C 	0.91016 0.72191 0.06446 0.08300
C 	C 	0.89966 0.70130 0.02692 -0.08300
C 	C 	0.92195 0.68894 0.99139 0.03000
N 	N 	0.97081 0.67192 0.97527 -0.16200
C 	C 	0.94998 0.65182 0.95778 0.05900
C 	C 	0.91934 0.66192 0.96625 -0.06800
N 	N 	0.89333 0.74600 0.07828 -0.15400
C 	C 	0.91415 0.76747 0.08976 0.02400
C 	C 	0.94475 0.75662 0.08520 -0.04200
H 	H 	0.98958 0.71794 0.03898 0.06400
H 	H 	0.87481 0.69664 0.02331 0.06100
H 	H 	0.89839 0.64842 0.96584 0.05600
H 	H 	0.96522 0.77006 0.07692 0.06700
H 	H 	0.99456 0.66789 0.98185 0.09400
H 	H 	0.87056 0.74988 0.06560 0.10200
C 	C 	0.04063 0.98675 0.22953 -0.06400
C 	C 	0.02069 0.00997 0.24522 0.03400
C 	C 	0.99073 0.00407 0.26776 0.07400
C 	C 	0.98170 0.97511 0.27638 -0.00100
C 	C 	0.00169 0.95188 0.26105 -0.08200
C 	C 	0.03080 0.95769 0.23548 0.14000
C 	C 	0.03117 0.04048 0.23803 0.03100
N 	N 	0.96963 0.02746 0.28270 -0.01600
H 	H 	0.95953 0.97072 0.29665 0.06100
N 	N 	0.05013 0.93416 0.21470 -0.02300
H 	H 	0.06361 0.99126 0.21202 0.09600
C 	C 	0.03770 0.05870 0.28179 0.06100
C 	C 	0.03893 0.08907 0.27636 -0.00700
C 	C 	0.03437 0.10137 0.22747 -0.08900
C 	C 	0.03241 0.08284 0.18252 0.13500
C 	C 	0.03049 0.05246 0.18812 -0.07200
N 	N 	0.04177 0.04649 0.33218 -0.01400
H 	H 	0.04180 0.10317 0.31067 0.05500
N 	N 	0.03148 0.09481 0.13139 -0.02400
H 	H 	0.02711 0.03832 0.15396 0.09400
O 	O 	0.08043 0.93493 0.22037 -0.06000
O 	O 	0.03798 0.91384 0.18486 -0.07400
O 	O 	0.95991 0.04518 0.24761 -0.07500
O 	O 	0.95820 0.02961 0.33047 -0.08100
O 	O 	0.00912 0.08719 0.10009 -0.06400
O 	O 	0.05505 0.11019 0.11379 -0.07700
O 	O 	0.06297 0.02641 0.33810 -0.11000
O 	O 	0.02543 0.05649 0.37267 -0.08100
C 	C 	0.79912 0.95687 0.46422 -0.09400
C 	C 	0.83084 0.95163 0.47451 0.02000
C 	C 	0.84520 0.96750 0.51554 0.04000
C 	C 	0.82882 0.99046 0.54148 -0.01100
C 	C 	0.79935 0.99908 0.52410 -0.13200
C 	C 	0.78331 0.98070 0.48862 0.09500
C 	C 	0.85013 0.93400 0.43631 0.01300
N 	N 	0.87711 0.96170 0.52846 -0.01500
H 	H 	0.84046 0.00360 0.57110 0.05500
N 	N 	0.75165 0.98727 0.47496 -0.02800
H 	H 	0.78744 0.94365 0.43471 0.07700
C 	C 	0.86437 0.90768 0.45074 0.06200
C 	C 	0.88617 0.89368 0.41621 -0.01500
C 	C 	0.89277 0.90497 0.36652 -0.12200
C 	C 	0.87713 0.93036 0.35111 0.11300
C 	C 	0.85627 0.94491 0.38627 -0.07300
N 	N 	0.85673 0.89513 0.50031 -0.01400
H 	H 	0.89750 0.87369 0.42763 0.04800
N 	N 	0.88289 0.94184 0.30019 -0.03000
H 	H 	0.84519 0.96504 0.37495 0.03100
O 	O 	0.73068 0.99408 0.51141 -0.09400
O 	O 	0.74360 0.98584 0.42617 -0.13100
O 	O 	0.89985 0.96669 0.49468 -0.11100
O 	O 	0.88362 0.95411 0.57564 -0.07400
O 	O 	0.86946 0.92984 0.25981 -0.08400
O 	O 	0.89712 0.96685 0.29558 -0.11000
O 	O 	0.82749 0.89036 0.51399 -0.09100
O 	O 	0.87909 0.88659 0.53010 -0.09200
C 	C 	0.15890 0.90526 0.42154 -0.08300
C 	C 	0.13353 0.91312 0.39102 0.03900
C 	C 	0.12970 0.94261 0.37748 0.04200
C 	C 	0.14947 0.96407 0.39876 0.02400
C 	C 	0.17139 0.95664 0.43616 -0.12400
C 	C 	0.17811 0.92689 0.44379 0.13600
C 	C 	0.10897 0.89130 0.37943 0.02100
N 	N 	0.10491 0.95103 0.34413 -0.01100
H 	H 	0.14570 0.98681 0.38993 -0.02100
N 	N 	0.20366 0.91870 0.47582 -0.02500
H 	H 	0.16291 0.88245 0.42970 0.08700
C 	C 	0.10632 0.87900 0.32860 0.06600
C 	C 	0.07903 0.86349 0.31567 0.00200
C 	C 	0.05480 0.85950 0.35357 -0.09700
C 	C 	0.05991 0.86802 0.40626 0.09500
C 	C 	0.08654 0.88457 0.41857 -0.06800
N 	N 	0.13136 0.88199 0.29025 -0.01500
H 	H 	0.07642 0.85513 0.27590 0.07600
N 	N 	0.03871 0.85915 0.44744 -0.03000
H 	H 	0.08956 0.89260 0.45848 0.08100
O 	O 	0.19967 0.89855 0.51037 -0.09100
O 	O 	0.23114 0.93088 0.46955 -0.10300
O 	O 	0.07569 0.94649 0.35828 -0.09800
O 	O 	0.11132 0.96712 0.30400 -0.09100
O 	O 	0.02688 0.87853 0.48070 -0.15800
O 	O 	0.03322 0.83149 0.45416 -0.09200
O 	O 	0.16014 0.87576 0.30201 -0.09400
O 	O 	0.12505 0.88830 0.24232 -0.07300
C 	C 	0.95688 0.73471 0.21554 0.08200
C 	C 	0.98051 0.71671 0.23479 -0.08800
C 	C 	0.97294 0.70008 0.27843 0.02700
C 	C 	0.94241 0.69809 0.29784 0.07900
C 	C 	0.91788 0.71286 0.27452 -0.08100
C 	C 	0.92572 0.73221 0.23426 0.01700
N 	N 	0.96285 0.76254 0.20263 -0.15300
C 	C 	0.93661 0.77829 0.21483 0.02400
C 	C 	0.91274 0.75986 0.23238 -0.04700
N 	N 	0.93857 0.67349 0.32494 -0.16200
C 	C 	0.96656 0.65934 0.32192 0.05700
C 	C 	0.98862 0.67546 0.29352 -0.07300
H 	H 	0.00457 0.71806 0.21984 0.06200
H 	H 	0.89390 0.71113 0.28967 0.05900
H 	H 	0.89323 0.76723 0.25771 0.06000
H 	H 	0.01068 0.66721 0.27670 0.06000
H 	H 	0.98548 0.77157 0.20172 0.09600
H 	H 	0.91696 0.66393 0.33497 0.09100
