data_crystal

_cell_length_a 41.64338
_cell_length_b 41.99374
_cell_length_c 23.10843
_cell_angle_alpha 89.83853
_cell_angle_beta  88.98971
_cell_angle_gamma 89.90103

_symmetry_space_group_name_	'P 1'
_symmetry_space_group_name_H-M	'P 1'

loop_
_symmetry_equiv_pos_as_xyz
  x,y,z

loop_
_atom_site_label
_atom_site_type_symbol
_atom_site_fract_x
_atom_site_fract_y
_atom_site_fract_z
_atom_site_charge
Cd	Cd	0.03278 0.85429 0.21005 1.25100
Cd	Cd	0.03769 0.89624 0.34341 1.22200
O 	O 	0.99049 0.81379 0.20377 -0.28300
O 	O 	0.02199 0.82484 0.12944 -0.23900
C 	C 	0.99933 0.80680 0.15116 0.26400
O 	O 	0.06865 0.89342 0.19143 -0.32100
O 	O 	0.08187 0.89856 0.28682 -0.40400
C 	C 	0.08261 0.90950 0.23334 0.35400
C 	C 	0.98831 0.90411 0.23499 0.35800
O 	O 	0.04247 0.84277 0.32055 -0.39700
O 	O 	0.98738 0.89637 0.18028 -0.25700
O 	O 	0.00555 0.88573 0.26713 -0.51500
C 	C 	0.06892 0.82813 0.30514 0.32800
O 	O 	0.07272 0.82348 0.24961 -0.31300
Cd	Cd	0.89748 0.93635 0.00446 1.25000
Cd	Cd	0.89991 0.97402 0.86552 1.21600
O 	O 	0.87503 0.88250 0.00701 -0.27300
O 	O 	0.90008 0.90199 0.08134 -0.31200
C 	C 	0.88722 0.87708 0.05736 0.29400
O 	O 	0.92612 0.98114 0.01830 -0.33800
O 	O 	0.90566 0.00791 0.94016 -0.37000
C 	C 	0.92710 0.00535 0.98129 0.34500
C 	C 	0.94664 0.91913 0.92303 0.36100
O 	O 	0.85852 0.95345 0.92292 -0.43300
O 	O 	0.95286 0.90841 0.97460 -0.28100
O 	O 	0.91860 0.93210 0.91746 -0.51300
C 	C 	0.84163 0.96926 0.96115 0.31400
O 	O 	0.84984 0.96497 0.01499 -0.30000
C 	C 	0.93109 0.70336 0.97319 0.14700
N 	N 	0.92759 0.72993 0.00598 -0.08400
C 	C 	0.91852 0.75780 0.98115 0.14200
N 	N 	0.91335 0.75918 0.92321 -0.11000
C 	C 	0.91677 0.73251 0.89044 0.14500
N 	N 	0.92537 0.70466 0.91566 -0.13300
C 	C 	0.99079 0.63003 0.22282 0.14300
N 	N 	0.99039 0.65417 0.18347 -0.12900
C 	C 	0.98181 0.68400 0.20027 0.15400
N 	N 	0.97439 0.68983 0.25662 -0.10900
C 	C 	0.97492 0.66594 0.29619 0.14600
N 	N 	0.98297 0.63597 0.27922 -0.13500
Cd	Cd	0.86915 0.10175 0.71785 1.25300
Cd	Cd	0.89980 0.12349 0.85332 1.17700
O 	O 	0.81652 0.12160 0.68556 -0.25300
O 	O 	0.84729 0.09173 0.63067 -0.31000
C 	C 	0.81908 0.10450 0.63882 0.29200
O 	O 	0.91887 0.08195 0.71563 -0.31500
O 	O 	0.92535 0.08092 0.81394 -0.42700
C 	C 	0.93756 0.07922 0.76091 0.33500
C 	C 	0.89803 0.16243 0.73157 0.34500
O 	O 	0.85215 0.09862 0.82842 -0.43800
O 	O 	0.89555 0.15568 0.67654 -0.23200
O 	O 	0.88348 0.14308 0.76672 -0.53800
C 	C 	0.84747 0.06828 0.82101 0.32100
O 	O 	0.85097 0.05782 0.76816 -0.30600
Cd	Cd	0.96578 0.05406 0.45635 1.25000
Cd	Cd	0.00739 0.06051 0.32065 1.18800
O 	O 	0.91137 0.07647 0.46362 -0.27900
O 	O 	0.93120 0.04712 0.53278 -0.26300
C 	C 	0.90616 0.06171 0.51241 0.26600
O 	O 	0.00952 0.02340 0.46668 -0.34400
O 	O 	0.03961 0.04755 0.39466 -0.41800
C 	C 	0.03522 0.02407 0.43205 0.33400
C 	C 	0.94986 0.01206 0.36452 0.36800
O 	O 	0.98695 0.09796 0.38508 -0.41600
O 	O 	0.93727 0.00253 0.41367 -0.24200
O 	O 	0.96299 0.04002 0.36558 -0.52700
C 	C 	0.00259 0.11046 0.42772 0.34300
O 	O 	0.99563 0.09878 0.47889 -0.32800
C 	C 	0.65805 0.02334 0.70768 0.14100
N 	N 	0.67909 0.03543 0.66768 -0.11700
C 	C 	0.70852 0.04542 0.68434 0.15300
N 	N 	0.71685 0.04325 0.74069 -0.10600
C 	C 	0.69619 0.03064 0.78047 0.15000
N 	N 	0.66667 0.02088 0.76397 -0.13500
C 	C 	0.75019 0.96728 0.45246 0.15100
N 	N 	0.75400 0.96537 0.39415 -0.13400
C 	C 	0.77905 0.98016 0.36704 0.15400
N 	N 	0.80072 0.99638 0.39882 -0.10800
C 	C 	0.79685 0.99849 0.45717 0.16400
N 	N 	0.77155 0.98399 0.48394 -0.09200
Cd	Cd	0.16671 0.10016 0.22951 1.25100
Cd	Cd	0.16576 0.05869 0.36371 1.21800
O 	O 	0.19602 0.15094 0.22352 -0.28300
O 	O 	0.17309 0.13033 0.14783 -0.25900
C 	C 	0.18772 0.15469 0.17000 0.26400
O 	O 	0.14398 0.05344 0.20790 -0.34700
O 	O 	0.12856 0.04196 0.30130 -0.39600
C 	C 	0.13500 0.03259 0.24795 0.33000
C 	C 	0.22132 0.06421 0.26254 0.35000
O 	O 	0.14839 0.10934 0.33829 -0.39600
O 	O 	0.22308 0.07114 0.20734 -0.24300
O 	O 	0.19822 0.07780 0.29133 -0.52600
C 	C 	0.12028 0.11714 0.31877 0.31800
O 	O 	0.11795 0.11930 0.26269 -0.32300
Cd	Cd	0.03916 0.18293 0.96788 1.24800
Cd	Cd	0.03771 0.13882 0.83741 1.21200
O 	O 	0.06332 0.23615 0.96325 -0.28600
O 	O 	0.04045 0.21835 0.04350 -0.24500
C 	C 	0.05550 0.24147 0.01696 0.30400
O 	O 	0.00836 0.14024 0.98883 -0.36800
O 	O 	0.03042 0.10864 0.91732 -0.38500
C 	C 	0.00888 0.11328 0.95902 0.30700
C 	C 	0.99327 0.19893 0.88242 0.33600
O 	O 	0.07961 0.15960 0.89019 -0.39800
O 	O 	0.98571 0.21200 0.93212 -0.23200
O 	O 	0.02083 0.18459 0.88033 -0.53300
C 	C 	0.09445 0.14549 0.93234 0.34600
O 	O 	0.08458 0.15287 0.98449 -0.29000
C 	C 	0.08932 0.40938 0.96103 0.12500
N 	N 	0.09955 0.40243 0.90632 -0.13300
C 	C 	0.11013 0.37265 0.89318 0.14200
N 	N 	0.11008 0.34981 0.93486 -0.10200
C 	C 	0.09950 0.35648 0.98942 0.12800
N 	N 	0.08925 0.38637 0.00244 -0.11800
C 	C 	0.12881 0.32824 0.20710 0.14700
N 	N 	0.13988 0.30257 0.17723 -0.10300
C 	C 	0.15674 0.27951 0.20487 0.16500
N 	N 	0.16203 0.28198 0.26263 -0.10900
C 	C 	0.15113 0.30782 0.29236 0.14900
N 	N 	0.13452 0.33084 0.26447 -0.13400
Cd	Cd	0.11978 0.97699 0.78162 1.25200
Cd	Cd	0.07054 0.99826 0.90412 1.21300
O 	O 	0.16042 0.93551 0.79793 -0.26700
O 	O 	0.15297 0.95582 0.71147 -0.26900
C 	C 	0.16923 0.93633 0.74380 0.27200
O 	O 	0.08117 0.00839 0.74443 -0.34600
O 	O 	0.06959 0.03318 0.83063 -0.38500
C 	C 	0.06155 0.02565 0.77755 0.32100
C 	C 	0.06763 0.93717 0.81578 0.36400
O 	O 	0.12524 0.00083 0.88609 -0.39200
O 	O 	0.07889 0.92901 0.76477 -0.25500
O 	O 	0.08480 0.95763 0.84340 -0.52300
C 	C 	0.14059 0.02480 0.86265 0.33900
O 	O 	0.14859 0.02128 0.80815 -0.29400
Cd	Cd	0.21296 0.91332 0.48108 1.25000
Cd	Cd	0.18961 0.91826 0.33425 1.20500
O 	O 	0.26510 0.88863 0.49989 -0.27900
O 	O 	0.23665 0.91107 0.56998 -0.27200
C 	C 	0.26273 0.89603 0.55424 0.27400
O 	O 	0.16871 0.94409 0.48300 -0.33200
O 	O 	0.14867 0.92458 0.39815 -0.40400
C 	C 	0.14733 0.94514 0.44117 0.33500
C 	C 	0.24131 0.96079 0.40801 0.34300
O 	O 	0.20111 0.87532 0.39379 -0.41700
O 	O 	0.24646 0.96658 0.46255 -0.18800
O 	O 	0.22775 0.93366 0.39756 -0.51800
C 	C 	0.18078 0.86028 0.42760 0.34900
O 	O 	0.18108 0.86842 0.48204 -0.33900
C 	C 	0.35117 0.89186 0.75718 0.14900
N 	N 	0.32186 0.89707 0.73427 -0.12000
C 	C 	0.29477 0.89007 0.76528 0.16300
N 	N 	0.29711 0.87842 0.82002 -0.10300
C 	C 	0.32644 0.87307 0.84317 0.15100
N 	N 	0.35341 0.87962 0.81140 -0.13200
C 	C 	0.43226 0.85948 0.51238 0.13900
N 	N 	0.40942 0.86391 0.55427 -0.12800
C 	C 	0.37799 0.85927 0.54244 0.15900
N 	N 	0.36940 0.85061 0.48826 -0.11300
C 	C 	0.39202 0.84711 0.44566 0.14400
N 	N 	0.42352 0.85114 0.45810 -0.13400
C 	C 	0.32910 0.86373 0.90477 0.00100
C 	C 	0.35578 0.84609 0.92325 -0.00500
C 	C 	0.36053 0.84077 0.98231 -0.05200
C 	C 	0.33860 0.85288 0.02351 0.03500
C 	C 	0.31119 0.86926 0.00502 -0.02100
C 	C 	0.30645 0.87467 0.94599 -0.01800
C 	C 	0.34537 0.85021 0.08599 0.01200
C 	C 	0.34797 0.82015 0.11234 -0.02800
C 	C 	0.35487 0.81773 0.17130 -0.03000
C 	C 	0.35921 0.84534 0.20438 0.01300
C 	C 	0.35667 0.87536 0.17797 -0.03200
C 	C 	0.34980 0.87779 0.11910 -0.03000
C 	C 	0.36621 0.84291 0.26677 0.02200
C 	C 	0.39507 0.82914 0.28500 -0.03900
C 	C 	0.40298 0.82940 0.34366 -0.00900
C 	C 	0.38213 0.84356 0.38467 -0.00500
C 	C 	0.35269 0.85631 0.36648 -0.00700
C 	C 	0.34481 0.85595 0.30790 -0.03500
H 	H 	0.37315 0.83701 0.89197 0.06300
H 	H 	0.38166 0.82793 0.99608 0.05700
H 	H 	0.29393 0.87840 0.03645 0.06400
H 	H 	0.28573 0.88825 0.93252 0.07500
H 	H 	0.34457 0.79871 0.08721 0.06300
H 	H 	0.35669 0.79444 0.19129 0.06100
H 	H 	0.36015 0.89681 0.20303 0.05600
H 	H 	0.34813 0.90109 0.09911 0.05700
H 	H 	0.41168 0.81885 0.25362 0.05700
H 	H 	0.42550 0.81901 0.35704 0.05700
H 	H 	0.33632 0.86733 0.39741 0.07100
H 	H 	0.32234 0.86638 0.29432 0.05900
C 	C 	0.29731 0.85982 0.60810 0.06400
C 	C 	0.28993 0.89130 0.59277 0.01400
C 	C 	0.31504 0.91396 0.59192 -0.09900
C 	C 	0.34687 0.90308 0.58650 0.03400
C 	C 	0.35309 0.87034 0.58351 0.04300
C 	C 	0.32924 0.84902 0.60369 -0.10700
C 	C 	0.33686 0.81417 0.61263 0.78500
H 	H 	0.27801 0.84280 0.61422 0.11000
H 	H 	0.36605 0.91985 0.57705 0.07500
C 	C 	0.30811 0.94913 0.58574 0.78100
F 	F 	0.31613 0.80087 0.65338 -0.39300
F 	F 	0.36791 0.81046 0.63204 -0.43900
F 	F 	0.33375 0.79810 0.56089 -0.42700
F 	F 	0.27831 0.95681 0.60895 -0.40400
F 	F 	0.30898 0.95737 0.52777 -0.41900
F 	F 	0.33097 0.96667 0.61444 -0.42900
C 	C 	0.20619 0.89091 0.73070 0.06200
C 	C 	0.20092 0.92381 0.72572 0.01500
C 	C 	0.22761 0.94454 0.72043 -0.07100
C 	C 	0.25857 0.93260 0.73067 0.04100
C 	C 	0.26327 0.90031 0.74354 0.05100
C 	C 	0.23727 0.87877 0.73925 -0.11200
C 	C 	0.24168 0.84336 0.74999 0.78300
H 	H 	0.18570 0.87504 0.73317 0.09100
H 	H 	0.27888 0.94869 0.73161 0.10900
C 	C 	0.22293 0.97970 0.70747 0.78400
F 	F 	0.21779 0.82605 0.72356 -0.41900
F 	F 	0.24018 0.83743 0.80885 -0.42300
F 	F 	0.27086 0.83273 0.72804 -0.41400
F 	F 	0.20732 0.99425 0.75364 -0.44000
F 	F 	0.20484 0.98327 0.65823 -0.40400
F 	F 	0.25190 0.99514 0.69801 -0.38900
C 	C 	0.11864 0.36422 0.83261 -0.00200
C 	C 	0.11419 0.33291 0.81284 -0.00200
C 	C 	0.12135 0.32506 0.75530 -0.03400
C 	C 	0.13292 0.34837 0.71674 0.02400
C 	C 	0.13782 0.37955 0.73647 -0.03800
C 	C 	0.13077 0.38745 0.79414 -0.00900
C 	C 	0.13876 0.34038 0.65520 0.01400
C 	C 	0.16977 0.34279 0.63078 -0.02900
C 	C 	0.17522 0.33516 0.57249 -0.02900
C 	C 	0.14969 0.32506 0.53818 0.01400
C 	C 	0.11875 0.32240 0.56278 -0.03100
C 	C 	0.11331 0.33003 0.62099 -0.03100
C 	C 	0.15488 0.31919 0.47568 0.02400
C 	C 	0.14812 0.28919 0.45214 -0.03600
C 	C 	0.14887 0.28484 0.39208 -0.00400
C 	C 	0.15625 0.31050 0.35512 -0.00300
C 	C 	0.16476 0.33999 0.37889 -0.00500
C 	C 	0.16405 0.34431 0.43886 -0.03800
H 	H 	0.10472 0.31474 0.84177 0.07600
H 	H 	0.11763 0.30090 0.74054 0.06600
H 	H 	0.14675 0.39773 0.70700 0.05700
H 	H 	0.13472 0.41158 0.80883 0.05800
H 	H 	0.18962 0.35053 0.65693 0.06200
H 	H 	0.19919 0.33730 0.55392 0.06100
H 	H 	0.09883 0.31491 0.53655 0.05700
H 	H 	0.08927 0.32817 0.63939 0.05600
H 	H 	0.14138 0.26953 0.48026 0.06500
H 	H 	0.14237 0.26194 0.37429 0.06500
H 	H 	0.17095 0.35984 0.35082 0.06300
H 	H 	0.16953 0.36749 0.45659 0.05800
C 	C 	0.14316 0.08386 0.85256 -0.07200
C 	C 	0.13745 0.05701 0.88766 -0.12300
C 	C 	0.12398 0.06119 0.94345 0.33600
C 	C 	0.11202 0.09095 0.96004 -0.08500
C 	C 	0.11393 0.11682 0.92156 -0.11300
C 	C 	0.13132 0.11361 0.86928 0.34400
F 	F 	0.13566 0.13908 0.83369 -0.41800
H 	H 	0.15524 0.08140 0.81091 0.13300
H 	H 	0.09981 0.09346 0.00157 0.14700
F 	F 	0.12140 0.03623 0.98069 -0.45700
C 	C 	0.10246 0.27347 0.04290 0.06300
C 	C 	0.06919 0.26870 0.04791 0.02200
C 	C 	0.04945 0.29503 0.06187 -0.09300
C 	C 	0.06129 0.32589 0.05115 0.02200
C 	C 	0.09285 0.33003 0.03007 0.06600
C 	C 	0.11469 0.30431 0.03443 -0.12500
C 	C 	0.15031 0.30883 0.02292 0.80100
H 	H 	0.11824 0.25309 0.03752 0.10400
H 	H 	0.04512 0.34614 0.05325 0.08200
C 	C 	0.01487 0.29031 0.08093 0.77800
F 	F 	0.16785 0.28763 0.05570 -0.41700
F 	F 	0.15985 0.33934 0.03702 -0.43600
F 	F 	0.15721 0.30335 0.96505 -0.43700
F 	F 	0.01227 0.26435 0.11770 -0.41600
F 	F 	0.99616 0.28526 0.03298 -0.41800
F 	F 	0.00338 0.31679 0.11030 -0.43700
C 	C 	0.23549 0.98030 0.30624 -0.06800
C 	C 	0.24605 0.98549 0.36285 -0.15200
C 	C 	0.25816 0.01564 0.37745 0.34700
C 	C 	0.25431 0.04130 0.33965 -0.10500
C 	C 	0.23845 0.03709 0.28727 -0.14700
C 	C 	0.23144 0.00612 0.26860 0.33200
F 	F 	0.21784 0.00142 0.21636 -0.42900
H 	H 	0.22880 0.95667 0.29241 0.01100
H 	H 	0.26125 0.06496 0.35318 0.10500
F 	F 	0.27245 0.02040 0.42905 -0.39200
C 	C 	0.20722 0.20969 0.15641 0.06600
C 	C 	0.18285 0.18728 0.14729 0.02700
C 	C 	0.15138 0.19853 0.13677 -0.09200
C 	C 	0.14304 0.22957 0.15407 0.03800
C 	C 	0.16665 0.25048 0.17356 0.07200
C 	C 	0.19939 0.24166 0.16840 -0.09400
C 	C 	0.22586 0.26547 0.17963 0.78900
H 	H 	0.23183 0.20159 0.16025 0.09500
H 	H 	0.11809 0.23700 0.15467 0.08500
C 	C 	0.12645 0.17740 0.10949 0.78600
F 	F 	0.25446 0.25594 0.15350 -0.41000
F 	F 	0.23042 0.26799 0.23855 -0.43000
F 	F 	0.21799 0.29508 0.15751 -0.39800
F 	F 	0.11311 0.15737 0.15094 -0.45300
F 	F 	0.14028 0.15952 0.06541 -0.42200
F 	F 	0.10210 0.19539 0.08585 -0.45400
C 	C 	0.72104 0.95453 0.48024 0.00800
C 	C 	0.71291 0.92244 0.47278 -0.00800
C 	C 	0.68255 0.91149 0.49001 -0.03300
C 	C 	0.66001 0.93263 0.51447 0.02000
C 	C 	0.66879 0.96436 0.52467 -0.02900
C 	C 	0.69920 0.97524 0.50772 0.01100
C 	C 	0.62631 0.92263 0.52254 0.01000
C 	C 	0.60202 0.93819 0.49200 -0.03600
C 	C 	0.57044 0.92724 0.49575 -0.03400
C 	C 	0.56279 0.90065 0.53015 0.00700
C 	C 	0.58692 0.88544 0.56169 -0.03500
C 	C 	0.61860 0.89636 0.55782 -0.03700
C 	C 	0.52956 0.88858 0.53235 0.02000
C 	C 	0.52273 0.85774 0.51282 -0.04300
C 	C 	0.49086 0.84779 0.50802 -0.01000
C 	C 	0.46564 0.86850 0.52321 -0.01600
C 	C 	0.47253 0.89891 0.54459 -0.01400
C 	C 	0.50433 0.90893 0.54886 -0.04500
H 	H 	0.72969 0.90625 0.45178 0.06200
H 	H 	0.67604 0.88695 0.48195 0.05700
H 	H 	0.65153 0.98093 0.54323 0.06000
H 	H 	0.70526 0.00011 0.51350 0.09700
H 	H 	0.60776 0.95834 0.46434 0.05400
H 	H 	0.55199 0.93911 0.47118 0.05200
H 	H 	0.58116 0.86514 0.58897 0.05000
H 	H 	0.63715 0.88435 0.58193 0.05600
H 	H 	0.54205 0.84189 0.49963 0.05600
H 	H 	0.48577 0.82423 0.49156 0.05700
H 	H 	0.45322 0.91520 0.55587 0.05100
H 	H 	0.50938 0.93294 0.56276 0.05100
C 	C 	0.37984 0.90516 0.72851 -0.00700
C 	C 	0.40343 0.88491 0.70503 -0.01500
C 	C 	0.43292 0.89735 0.68589 -0.03500
C 	C 	0.43928 0.93008 0.69149 0.01600
C 	C 	0.41489 0.95048 0.71209 -0.03100
C 	C 	0.38521 0.93808 0.72992 -0.00300
C 	C 	0.47221 0.94249 0.68126 0.01200
C 	C 	0.49852 0.92751 0.70725 -0.03600
C 	C 	0.52914 0.94092 0.70251 -0.03400
C 	C 	0.53379 0.96964 0.67233 0.00700
C 	C 	0.50773 0.98419 0.64496 -0.03400
C 	C 	0.47712 0.97059 0.64911 -0.03800
C 	C 	0.56541 0.98557 0.67309 0.02000
C 	C 	0.59310 0.96929 0.65406 -0.04400
C 	C 	0.62349 0.98237 0.66289 -0.01400
C 	C 	0.62639 0.01202 0.69006 -0.01100
C 	C 	0.59870 0.02895 0.70669 -0.01200
C 	C 	0.56833 0.01581 0.69821 -0.04100
H 	H 	0.39921 0.85950 0.70273 0.08700
H 	H 	0.45117 0.88146 0.66851 0.05700
H 	H 	0.41937 0.97575 0.71654 0.06600
H 	H 	0.36690 0.95392 0.74735 0.07600
H 	H 	0.49508 0.90600 0.73257 0.05100
H 	H 	0.54907 0.92952 0.72389 0.04900
H 	H 	0.51115 0.00613 0.62088 0.05500
H 	H 	0.45720 0.98199 0.62773 0.06100
H 	H 	0.59111 0.94600 0.63456 0.05000
H 	H 	0.64476 0.96889 0.65083 0.06300
H 	H 	0.60075 0.05183 0.72788 0.05600
H 	H 	0.54714 0.02858 0.71315 0.05800
C 	C 	0.70655 0.02600 0.84069 -0.00100
C 	C 	0.69637 0.99917 0.87245 -0.00800
C 	C 	0.70808 0.99363 0.92792 -0.03500
C 	C 	0.73008 0.01484 0.95216 0.01000
C 	C 	0.74001 0.04181 0.92075 -0.03400
C 	C 	0.72832 0.04738 0.86534 -0.00100
C 	C 	0.74233 0.00908 0.01080 0.02400
C 	C 	0.73684 0.03157 0.05466 -0.02600
C 	C 	0.74767 0.02580 0.11058 -0.02700
C 	C 	0.76431 0.99757 0.12313 0.02600
C 	C 	0.77047 0.97541 0.07891 -0.02700
C 	C 	0.75924 0.98099 0.02313 -0.00700
C 	C 	0.77310 0.99024 0.18338 0.02800
C 	C 	0.76082 0.96290 0.21084 -0.03300
C 	C 	0.76474 0.95848 0.27025 -0.00500
C 	C 	0.78052 0.98164 0.30306 0.00200
C 	C 	0.79474 0.00789 0.27476 0.00000
C 	C 	0.79112 0.01209 0.21518 -0.02700
H 	H 	0.67988 0.98229 0.85380 0.05800
H 	H 	0.70009 0.97286 0.95204 0.05300
H 	H 	0.75715 0.05820 0.93896 0.05800
H 	H 	0.73637 0.06819 0.84139 0.07000
H 	H 	0.72371 0.05326 0.04562 0.06200
H 	H 	0.74253 0.04294 0.14447 0.06400
H 	H 	0.78356 0.95369 0.08797 0.07600
H 	H 	0.76373 0.96355 0.98947 0.04700
H 	H 	0.74719 0.94569 0.18659 0.06400
H 	H 	0.75455 0.93758 0.29107 0.06300
H 	H 	0.80746 0.02571 0.29915 0.10100
H 	H 	0.80132 0.03292 0.19412 0.07900
C 	C 	0.06130 0.11280 0.44308 -0.08600
C 	C 	0.03403 0.12511 0.41591 -0.14000
C 	C 	0.03813 0.14379 0.36586 0.32900
C 	C 	0.06769 0.14389 0.33642 -0.09900
C 	C 	0.09342 0.12603 0.35782 -0.13100
C 	C 	0.09098 0.11294 0.41382 0.33300
F 	F 	0.11661 0.09843 0.43807 -0.48000
H 	H 	0.05886 0.10005 0.48374 0.10900
H 	H 	0.06997 0.15615 0.29523 0.12400
F 	F 	0.01257 0.15882 0.34233 -0.42500
C 	C 	0.09236 0.01623 0.45919 -0.09800
C 	C 	0.06261 0.00301 0.44466 -0.11500
C 	C 	0.06026 0.97012 0.43512 0.32600
C 	C 	0.08774 0.95089 0.43733 -0.08800
C 	C 	0.11783 0.96435 0.44915 -0.11800
C 	C 	0.11988 0.99703 0.46135 0.33600
F 	F 	0.14875 0.01051 0.47224 -0.46500
H 	H 	0.09431 0.04152 0.46728 0.11200
H 	H 	0.08582 0.92567 0.42814 0.05900
F 	F 	0.03169 0.95700 0.42099 -0.49600
C 	C 	0.84747 0.06773 0.50272 0.06000
C 	C 	0.87315 0.05111 0.52745 0.02200
C 	C 	0.86749 0.01985 0.54817 -0.09400
C 	C 	0.84197 0.00243 0.52521 0.04800
C 	C 	0.81919 0.01772 0.49087 0.06500
C 	C 	0.81998 0.05125 0.48507 -0.11600
C 	C 	0.79247 0.06919 0.45773 0.78600
H 	H 	0.85024 0.09277 0.49224 0.10400
H 	H 	0.83994 0.97711 0.53379 0.10900
C 	C 	0.88729 0.00553 0.59598 0.78500
F 	F 	0.79354 0.10128 0.47099 -0.40200
F 	F 	0.76332 0.05741 0.47786 -0.43500
F 	F 	0.79429 0.06592 0.39826 -0.43600
F 	F 	0.89948 0.02909 0.63113 -0.42900
F 	F 	0.91231 0.98797 0.57217 -0.42300
F 	F 	0.86851 0.98562 0.63032 -0.41900
C 	C 	0.00620 0.02103 0.73986 -0.09900
C 	C 	0.03256 0.04033 0.75319 -0.10700
C 	C 	0.02802 0.07334 0.75865 0.31400
C 	C 	0.99694 0.08618 0.75970 -0.09400
C 	C 	0.97028 0.06633 0.75252 -0.12000
C 	C 	0.97506 0.03389 0.74023 0.36000
F 	F 	0.94953 0.01454 0.73154 -0.42000
H 	H 	0.00953 0.99570 0.73333 0.10600
H 	H 	0.99356 0.11135 0.76771 0.02200
F 	F 	0.05365 0.09270 0.76609 -0.52000
C 	C 	0.91636 0.20367 0.79877 -0.11700
C 	C 	0.92365 0.18285 0.75303 -0.15000
C 	C 	0.95580 0.17437 0.74209 0.31300
C 	C 	0.97930 0.18197 0.78229 -0.09300
C 	C 	0.97073 0.19805 0.83360 -0.17100
C 	C 	0.93966 0.21102 0.83939 0.33200
F 	F 	0.93162 0.22961 0.88538 -0.42000
H 	H 	0.89185 0.21163 0.80600 0.10000
H 	H 	0.00378 0.17413 0.77474 0.01200
F 	F 	0.96372 0.15610 0.69560 -0.43400
C 	C 	0.78968 0.05446 0.62087 0.06900
C 	C 	0.79035 0.08788 0.61767 0.01800
C 	C 	0.76106 0.10452 0.61154 -0.06500
C 	C 	0.73209 0.08877 0.62515 0.04100
C 	C 	0.73239 0.05655 0.64132 0.06100
C 	C 	0.76057 0.03846 0.63125 -0.10300
C 	C 	0.76067 0.00277 0.64107 0.78800
H 	H 	0.81205 0.04131 0.62227 0.09300
H 	H 	0.70993 0.10226 0.62890 0.08900
C 	C 	0.76060 0.13963 0.59665 0.78400
F 	F 	0.78531 0.98844 0.60979 -0.43300
F 	F 	0.73202 0.98950 0.62385 -0.45300
F 	F 	0.76488 0.99638 0.69915 -0.41400
F 	F 	0.78734 0.14799 0.56360 -0.39300
F 	F 	0.76010 0.15730 0.64705 -0.42300
F 	F 	0.73357 0.14694 0.56522 -0.40500
C 	C 	0.11055 0.35323 0.17788 -0.00100
C 	C 	0.07801 0.35759 0.19232 -0.01100
C 	C 	0.06295 0.38660 0.18056 -0.03100
C 	C 	0.08026 0.41136 0.15348 0.01700
C 	C 	0.11173 0.40554 0.13313 -0.02900
C 	C 	0.12690 0.37668 0.14579 -0.00700
C 	C 	0.06725 0.44427 0.15411 0.01300
C 	C 	0.03530 0.45011 0.13854 -0.03400
C 	C 	0.02163 0.48019 0.14743 -0.03600
C 	C 	0.04025 0.50522 0.16892 0.00900
C 	C 	0.07249 0.49971 0.18249 -0.03400
C 	C 	0.08583 0.46937 0.17567 -0.03600
C 	C 	0.02581 0.53700 0.17881 0.01600
C 	C 	0.99920 0.54043 0.21645 -0.04100
C 	C 	0.98720 0.57075 0.22958 -0.00700
C 	C 	0.00170 0.59794 0.20519 -0.02100
C 	C 	0.02766 0.59442 0.16606 -0.01200
C 	C 	0.03971 0.56412 0.15311 -0.04300
H 	H 	0.06500 0.33931 0.21614 0.07400
H 	H 	0.03851 0.39049 0.19576 0.06800
H 	H 	0.12507 0.42402 0.11056 0.05900
H 	H 	0.15200 0.37346 0.13419 0.10500
H 	H 	0.02086 0.43117 0.12087 0.06000
H 	H 	0.99649 0.48391 0.13836 0.05200
H 	H 	0.08699 0.51875 0.19966 0.05300
H 	H 	0.11035 0.46517 0.18865 0.05400
H 	H 	0.98827 0.51967 0.23652 0.05700
H 	H 	0.96688 0.57310 0.25919 0.05500
H 	H 	0.03899 0.61518 0.14675 0.05200
H 	H 	0.06004 0.56172 0.12354 0.05300
C 	C 	0.07385 0.44008 0.97305 -0.02400
C 	C 	0.04364 0.44679 0.95012 -0.01800
C 	C 	0.02839 0.47568 0.96262 -0.03000
C 	C 	0.04324 0.49811 0.99818 -0.02300
C 	C 	0.07356 0.49141 0.02099 -0.01800
C 	C 	0.08879 0.46247 0.00848 -0.00800
C 	C 	0.02732 0.52884 0.01044 0.05600
C 	C 	0.04216 0.55744 0.99363 -0.09000
C 	C 	0.02587 0.58634 0.00034 0.01500
C 	C 	0.99476 0.58698 0.02498 -0.01200
C 	C 	0.98074 0.55850 0.04489 -0.01400
C 	C 	0.99652 0.52951 0.03604 -0.05500
C 	C 	0.97546 0.61658 0.02306 0.05400
C 	C 	0.94490 0.61625 0.99826 -0.06100
C 	C 	0.92906 0.64480 0.98655 0.01000
C 	C 	0.94380 0.67397 0.99851 -0.01100
C 	C 	0.97340 0.67435 0.02649 0.02600
C 	C 	0.98895 0.64576 0.03959 -0.04000
H 	H 	0.03192 0.42956 0.92284 0.05500
H 	H 	0.00513 0.48072 0.94439 0.04800
H 	H 	0.08519 0.50854 0.04861 0.04700
H 	H 	0.11222 0.45754 0.02604 0.05300
H 	H 	0.06588 0.55717 0.97359 0.06500
H 	H 	0.03693 0.60807 0.98447 0.03700
H 	H 	0.95711 0.55872 0.06523 0.05200
H 	H 	0.98453 0.50753 0.04784 0.05700
H 	H 	0.93414 0.59396 0.98536 0.05900
H 	H 	0.90605 0.64428 0.96539 0.05500
H 	H 	0.98528 0.69675 0.03475 0.08400
H 	H 	0.01219 0.64635 0.05989 0.06400
C 	C 	0.91363 0.73405 0.82715 -0.00500
C 	C 	0.93260 0.75538 0.79460 -0.00900
C 	C 	0.93632 0.75131 0.73473 -0.03300
C 	C 	0.92101 0.72593 0.70702 0.02100
C 	C 	0.90001 0.70622 0.73890 -0.03900
C 	C 	0.89628 0.71032 0.79865 -0.01200
C 	C 	0.92948 0.71794 0.64638 0.01400
C 	C 	0.90556 0.71655 0.60440 -0.03000
C 	C 	0.91330 0.70689 0.54794 -0.03000
C 	C 	0.94504 0.69860 0.53297 0.01300
C 	C 	0.96898 0.70014 0.57484 -0.03000
C 	C 	0.96124 0.70972 0.63129 -0.03100
C 	C 	0.95349 0.68956 0.47291 0.02500
C 	C 	0.97348 0.70931 0.43914 -0.03700
C 	C 	0.98112 0.70113 0.38197 -0.00300
C 	C 	0.96884 0.67309 0.35789 -0.00600
C 	C 	0.94931 0.65299 0.39203 -0.00500
C 	C 	0.94159 0.66124 0.44930 -0.03900
H 	H 	0.94594 0.77394 0.81604 0.09300
H 	H 	0.95212 0.76705 0.71032 0.06900
H 	H 	0.88777 0.68680 0.71786 0.05500
H 	H 	0.88119 0.69400 0.82324 0.05400
H 	H 	0.88098 0.72281 0.61559 0.05700
H 	H 	0.89471 0.70602 0.51577 0.06100
H 	H 	0.99355 0.69382 0.56368 0.05800
H 	H 	0.97982 0.71035 0.66350 0.06000
H 	H 	0.98287 0.73114 0.45705 0.06600
H 	H 	0.99647 0.71669 0.35625 0.06500
H 	H 	0.93958 0.63135 0.37393 0.05800
H 	H 	0.92628 0.64574 0.47520 0.05800
C 	C 	0.98202 0.02847 0.98613 -0.09000
C 	C 	0.94867 0.03257 0.99182 -0.10900
C 	C 	0.93598 0.06356 0.99648 0.31400
C 	C 	0.95612 0.09011 0.99000 -0.10500
C 	C 	0.98910 0.08598 0.97907 -0.12000
C 	C 	0.00219 0.05500 0.97972 0.32500
F 	F 	0.03431 0.05055 0.97244 -0.49500
H 	H 	0.99216 0.00473 0.98343 0.08200
H 	H 	0.94580 0.11381 0.99061 0.06500
F 	F 	0.90400 0.06796 0.00531 -0.42400
C 	C 	0.80872 0.99748 0.89035 -0.10800
C 	C 	0.82483 0.99823 0.94311 -0.14200
C 	C 	0.83545 0.02779 0.96353 0.32700
C 	C 	0.83983 0.05296 0.92439 -0.08700
C 	C 	0.83171 0.04881 0.86621 -0.14700
C 	C 	0.81280 0.02253 0.85108 0.33200
F 	F 	0.80003 0.02048 0.79760 -0.40000
H 	H 	0.79696 0.97584 0.87670 0.10500
H 	H 	0.85189 0.07443 0.93801 0.08500
F 	F 	0.84578 0.03070 0.01863 -0.39800
C 	C 	0.99108 0.89690 0.86347 -0.07100
C 	C 	0.97235 0.92333 0.87985 -0.16200
C 	C 	0.98317 0.95408 0.86619 0.33100
C 	C 	0.01411 0.95851 0.84384 -0.10500
C 	C 	0.03381 0.93221 0.83155 -0.16100
C 	C 	0.02167 0.90132 0.83889 0.36000
F 	F 	0.04026 0.87565 0.82588 -0.40300
H 	H 	0.98271 0.87300 0.87306 0.13800
H 	H 	0.02325 0.98240 0.83841 0.01600
F 	F 	0.96468 0.97981 0.87882 -0.53800
C 	C 	0.88491 0.79067 0.04740 0.04200
C 	C 	0.91406 0.78638 0.01707 0.07300
C 	C 	0.93837 0.80981 0.02056 -0.11200
C 	C 	0.93138 0.83857 0.04940 0.05100
C 	C 	0.89996 0.84510 0.06887 0.01000
C 	C 	0.87828 0.81957 0.07573 -0.08000
C 	C 	0.84637 0.82426 0.10677 0.78000
H 	H 	0.86692 0.77205 0.04695 0.11400
H 	H 	0.94899 0.85752 0.04935 0.09000
C 	C 	0.97003 0.80601 0.98765 0.76800
F 	F 	0.83603 0.79600 0.13173 -0.40700
F 	F 	0.82377 0.83449 0.06770 -0.42900
F 	F 	0.84904 0.84668 0.15023 -0.42700
F 	F 	0.96502 0.81054 0.92921 -0.44100
F 	F 	0.98265 0.77590 0.99619 -0.42900
F 	F 	0.99252 0.82794 0.00561 -0.40300
C 	C 	0.10357 0.99334 0.19062 -0.08500
C 	C 	0.12736 0.99959 0.23146 -0.10900
C 	C 	0.14089 0.97422 0.26226 0.31900
C 	C 	0.12970 0.94324 0.25438 -0.08400
C 	C 	0.10291 0.93755 0.21993 -0.11800
C 	C 	0.09128 0.96236 0.18486 0.36100
F 	F 	0.06650 0.95709 0.14876 -0.41500
H 	H 	0.09328 0.01268 0.16594 0.10800
H 	H 	0.13975 0.92403 0.27961 0.00200
F 	F 	0.16304 0.97994 0.30327 -0.53500
C 	C 	0.99067 0.98490 0.30310 -0.06600
C 	C 	0.95839 0.98897 0.31938 -0.17500
C 	C 	0.93528 0.96739 0.29967 0.36300
C 	C 	0.94488 0.94072 0.26753 -0.08900
C 	C 	0.97755 0.93536 0.25558 -0.14100
C 	C 	0.00025 0.95815 0.27175 0.30600
F 	F 	0.03182 0.95342 0.26015 -0.48500
H 	H 	0.00871 0.00122 0.31835 -0.00200
H 	H 	0.92713 0.92342 0.25460 0.11300
F 	F 	0.90377 0.97153 0.31381 -0.42500
C 	C 	0.12756 0.82035 0.32028 -0.08900
C 	C 	0.09707 0.82814 0.34324 -0.12600
C 	C 	0.09453 0.84021 0.39992 0.31700
C 	C 	0.12220 0.84853 0.42958 -0.07900
C 	C 	0.15260 0.84442 0.40335 -0.14400
C 	C 	0.15521 0.82862 0.35003 0.33400
F 	F 	0.18453 0.82235 0.32605 -0.43900
H 	H 	0.12990 0.80933 0.27809 0.12300
H 	H 	0.11991 0.85971 0.47165 0.10600
F 	F 	0.06532 0.84485 0.42555 -0.47700
C 	C 	0.01414 0.72102 0.13966 0.02300
C 	C 	0.98382 0.71073 0.15905 0.04900
C 	C 	0.95679 0.73035 0.14968 -0.11600
C 	C 	0.96165 0.76262 0.13569 0.06400
C 	C 	0.99294 0.77461 0.12846 0.04300
C 	C 	0.01851 0.75262 0.12081 -0.08500
C 	C 	0.05080 0.76297 0.09630 0.78300
H 	H 	0.03460 0.70516 0.14287 0.08000
H 	H 	0.94157 0.77905 0.13768 0.08500
C 	C 	0.92308 0.71797 0.16057 0.78900
F 	F 	0.06785 0.73716 0.07465 -0.42300
F 	F 	0.06854 0.77702 0.13931 -0.43900
F 	F 	0.04678 0.78437 0.05136 -0.37500
F 	F 	0.91538 0.72028 0.21884 -0.42900
F 	F 	0.92080 0.68648 0.14358 -0.44400
F 	F 	0.90095 0.73539 0.12968 -0.43300
