data_crystal

_cell_length_a 48.56363
_cell_length_b 46.24901
_cell_length_c 42.15484
_cell_angle_alpha 89.95688
_cell_angle_beta  89.95692
_cell_angle_gamma 90.47143

_symmetry_space_group_name_	'P 1'
_symmetry_space_group_name_H-M	'P 1'

loop_
_symmetry_equiv_pos_as_xyz
  x,y,z

loop_
_atom_site_label
_atom_site_type_symbol
_atom_site_fract_x
_atom_site_fract_y
_atom_site_fract_z
_atom_site_charge
Zn	Zn	0.49554 0.49878 0.99952 1.22300
C 	C 	0.52633 0.55201 0.99275 0.31900
O 	O 	0.51582 0.47762 0.03223 -0.47200
O 	O 	0.51106 0.56154 0.01623 -0.44900
O 	O 	0.53760 0.51589 0.05469 -0.49300
C 	C 	0.45198 0.53397 0.02213 0.34700
O 	O 	0.46573 0.52639 0.99676 -0.45400
O 	O 	0.46334 0.53190 0.05026 -0.50800
C 	C 	0.53787 0.48890 0.04531 0.31900
O 	O 	0.46112 0.46278 0.00088 -0.32600
Zn	Zn	0.50304 0.53695 0.05601 1.17000
O 	O 	0.52528 0.52458 0.98444 -0.43400
C 	C 	0.47156 0.45391 0.97436 0.29700
O 	O 	0.49247 0.46875 0.96405 -0.38100
Zn	Zn	0.33223 0.17157 0.00625 1.22100
C 	C 	0.35529 0.17636 0.06926 0.31900
O 	O 	0.29202 0.16733 0.01085 -0.46400
O 	O 	0.34954 0.20409 0.06893 -0.44800
O 	O 	0.29072 0.18644 0.06047 -0.49500
C 	C 	0.35178 0.22947 0.99812 0.32500
O 	O 	0.35939 0.20239 0.00048 -0.45600
O 	O 	0.32859 0.23779 0.01110 -0.51000
C 	C 	0.27978 0.16990 0.03850 0.31500
O 	O 	0.32781 0.17124 0.95026 -0.32400
Zn	Zn	0.31368 0.21927 0.04892 1.17100
O 	O 	0.34370 0.15879 0.04862 -0.43900
C 	C 	0.33755 0.14523 0.95220 0.27800
O 	O 	0.34316 0.13636 0.98055 -0.38400
C 	C 	0.52196 0.99707 0.34276 0.14000
C 	C 	0.53882 0.97702 0.32734 -0.10500
H 	H 	0.55006 0.96124 0.34113 0.07200
C 	C 	0.54136 0.97757 0.29422 0.05200
C 	C 	0.52694 0.99818 0.27652 -0.08700
C 	C 	0.51009 0.01831 0.29187 0.05200
C 	C 	0.50754 0.01764 0.32501 -0.10400
H 	H 	0.49461 0.03319 0.33701 0.07200
N 	N 	0.51985 0.99685 0.37678 -0.18200
C 	C 	0.53595 0.01540 0.39426 0.19800
C 	C 	0.53475 0.01489 0.42764 -0.08000
C 	C 	0.51756 0.99462 0.44285 0.06200
C 	C 	0.50020 0.97679 0.42459 -0.08100
C 	C 	0.50178 0.97809 0.39125 0.19800
C 	C 	0.54966 0.03501 0.44584 0.01100
C 	C 	0.54832 0.03421 0.47889 -0.05700
C 	C 	0.53394 0.01163 0.49459 0.01600
C 	C 	0.51719 0.99270 0.47640 -0.02900
C 	C 	0.49921 0.97273 0.49149 0.01600
C 	C 	0.48088 0.95877 0.43977 0.01100
C 	C 	0.47962 0.95763 0.47282 -0.05800
C 	C 	0.53491 0.00839 0.52816 0.01600
C 	C 	0.51709 0.98822 0.54324 -0.02800
C 	C 	0.50032 0.96933 0.52501 0.01600
O 	O 	0.48596 0.96106 0.37387 -0.20300
O 	O 	0.55284 0.03355 0.37976 -0.20200
H 	H 	0.46616 0.94628 0.42605 0.04400
H 	H 	0.46252 0.94625 0.48363 0.04600
H 	H 	0.56157 0.05199 0.43445 0.04400
H 	H 	0.55723 0.05205 0.49195 0.04700
C 	C 	0.48621 0.94650 0.54058 -0.05700
C 	C 	0.48533 0.94522 0.57364 0.01100
C 	C 	0.50031 0.96521 0.59193 -0.08000
C 	C 	0.51698 0.98601 0.57678 0.06200
C 	C 	0.55429 0.02375 0.54687 -0.05700
C 	C 	0.55306 0.02251 0.57991 0.01100
C 	C 	0.53414 0.00402 0.59507 -0.08000
C 	C 	0.49979 0.96399 0.62531 0.19800
N 	N 	0.51578 0.98260 0.64285 -0.18200
C 	C 	0.53291 0.00233 0.62840 0.19800
C 	C 	0.51490 0.98110 0.67690 0.14100
C 	C 	0.49416 0.99549 0.69363 -0.10500
C 	C 	0.49317 0.99390 0.72684 0.05200
C 	C 	0.51313 0.97807 0.74328 -0.08600
C 	C 	0.53392 0.96366 0.72660 0.05200
C 	C 	0.53474 0.96517 0.69338 -0.10400
O 	O 	0.48385 0.94490 0.63979 -0.20100
O 	O 	0.54816 0.01989 0.64580 -0.20300
H 	H 	0.47880 0.00771 0.68081 0.07200
H 	H 	0.55069 0.95399 0.68037 0.07200
H 	H 	0.47714 0.92883 0.52738 0.04600
H 	H 	0.47369 0.92798 0.58493 0.04400
H 	H 	0.57124 0.03540 0.53612 0.04700
H 	H 	0.56762 0.03519 0.59364 0.04400
H 	H 	0.51259 0.97710 0.76898 0.05700
H 	H 	0.52881 0.99854 0.25088 0.05800
Zn	Zn	0.71080 0.81128 0.01237 1.22100
C 	C 	0.69402 0.81126 0.07830 0.31900
O 	O 	0.75096 0.81734 0.01278 -0.46700
O 	O 	0.69977 0.78353 0.07903 -0.44800
O 	O 	0.75719 0.80127 0.06321 -0.49500
C 	C 	0.69215 0.75258 0.01164 0.34700
O 	O 	0.68418 0.77955 0.01261 -0.45600
O 	O 	0.71638 0.74540 0.02263 -0.51100
C 	C 	0.76478 0.81797 0.03955 0.31700
O 	O 	0.71158 0.80673 0.95643 -0.32400
Zn	Zn	0.73412 0.76738 0.05642 1.17100
O 	O 	0.70215 0.82734 0.05426 -0.43800
C 	C 	0.70085 0.83237 0.95640 0.27800
O 	O 	0.69677 0.84358 0.98412 -0.38300
Zn	Zn	0.17847 0.69297 0.98285 1.22100
C 	C 	0.17526 0.69028 0.05120 0.31900
O 	O 	0.17242 0.73342 0.97014 -0.46500
O 	O 	0.20104 0.69909 0.05270 -0.44900
O 	O 	0.18368 0.75234 0.01818 -0.49300
C 	C 	0.23448 0.67666 0.99330 0.32700
O 	O 	0.20888 0.66733 0.99326 -0.45400
O 	O 	0.23976 0.70443 0.99575 -0.51200
C 	C 	0.17038 0.75420 0.99120 0.31600
O 	O 	0.18564 0.68032 0.92903 -0.32300
Zn	Zn	0.21685 0.72946 0.02155 1.17000
O 	O 	0.16108 0.69366 0.02491 -0.43900
C 	C 	0.16127 0.66867 0.93091 0.27800
O 	O 	0.14921 0.67085 0.95818 -0.38500
C 	C 	0.00763 0.49411 0.31324 0.14000
C 	C 	0.99097 0.47552 0.29516 -0.10400
H 	H 	0.97724 0.46035 0.30696 0.07100
C 	C 	0.99178 0.47680 0.26193 0.05300
C 	C 	0.00941 0.49667 0.24684 -0.08700
C 	C 	0.02607 0.51533 0.26487 0.05200
C 	C 	0.02528 0.51389 0.29809 -0.10500
H 	H 	0.03795 0.52842 0.31213 0.07100
N 	N 	0.00585 0.49363 0.34728 -0.18200
C 	C 	0.02160 0.47453 0.36412 0.19800
C 	C 	0.02012 0.47380 0.39749 -0.08000
C 	C 	0.00301 0.49340 0.41337 0.06100
C 	C 	0.98617 0.51197 0.39570 -0.08000
C 	C 	0.98809 0.51199 0.36236 0.19800
C 	C 	0.03457 0.45302 0.41496 0.01100
C 	C 	0.03276 0.45238 0.44799 -0.05700
C 	C 	0.01835 0.47418 0.46454 0.01600
C 	C 	0.00215 0.49386 0.44698 -0.02900
C 	C 	0.98417 0.51310 0.46269 0.01600
C 	C 	0.96691 0.52933 0.41139 0.01100
C 	C 	0.96512 0.52901 0.44442 -0.05700
C 	C 	0.01869 0.47583 0.49826 0.01700
C 	C 	0.00081 0.49520 0.51396 -0.02900
C 	C 	0.98469 0.51492 0.49638 0.01700
O 	O 	0.97283 0.52980 0.34557 -0.20300
O 	O 	0.03830 0.45690 0.34902 -0.20200
H 	H 	0.95259 0.54241 0.39803 0.04400
H 	H 	0.94801 0.53989 0.45544 0.04600
H 	H 	0.04647 0.43659 0.40298 0.04400
H 	H 	0.04130 0.43405 0.46030 0.04600
C 	C 	0.97057 0.53696 0.51283 -0.05800
C 	C 	0.96892 0.53658 0.54586 0.01100
C 	C 	0.98318 0.51570 0.56340 -0.08100
C 	C 	0.99996 0.49574 0.54756 0.06300
C 	C 	0.03749 0.45965 0.51662 -0.05800
C 	C 	0.03554 0.45925 0.54964 0.01100
C 	C 	0.01649 0.47690 0.56529 -0.08100
C 	C 	0.98185 0.51520 0.59677 0.19800
N 	N 	0.99723 0.49580 0.61367 -0.18100
C 	C 	0.01451 0.47692 0.59862 0.19800
C 	C 	0.99560 0.49564 0.64772 0.14100
C 	C 	0.01434 0.51205 0.66562 -0.10500
C 	C 	0.01250 0.51232 0.69882 0.05200
C 	C 	0.99184 0.49612 0.71407 -0.08600
C 	C 	0.97297 0.47977 0.69621 0.05200
C 	C 	0.97496 0.47947 0.66301 -0.10400
O 	O 	0.96571 0.53341 0.61185 -0.20200
O 	O 	0.02923 0.45864 0.61544 -0.20200
H 	H 	0.03022 0.52459 0.65371 0.07200
H 	H 	0.96037 0.46698 0.64909 0.07200
H 	H 	0.96209 0.55528 0.50040 0.04700
H 	H 	0.95727 0.55323 0.55780 0.04400
H 	H 	0.05455 0.44861 0.50570 0.04700
H 	H 	0.04965 0.44596 0.56304 0.04400
H 	H 	0.99033 0.49639 0.73974 0.05700
H 	H 	0.00987 0.49790 0.22115 0.05700
Zn	Zn	0.80092 0.32527 0.97738 1.22100
C 	C 	0.79813 0.33236 0.90942 0.31900
O 	O 	0.76416 0.33278 0.99500 -0.46600
O 	O 	0.78781 0.30608 0.90699 -0.44700
O 	O 	0.74123 0.32471 0.94885 -0.49300
C 	C 	0.81247 0.26633 0.96215 0.34600
O 	O 	0.82249 0.29273 0.96224 -0.45600
O 	O 	0.78579 0.26186 0.96098 -0.50900
C 	C 	0.74284 0.33726 0.97665 0.33600
O 	O 	0.81703 0.31409 0.02894 -0.32200
Zn	Zn	0.76111 0.28916 0.94044 1.17100
O 	O 	0.79767 0.34591 0.93682 -0.43900
C 	C 	0.82931 0.33910 0.02740 0.27800
O 	O 	0.82560 0.35338 0.00137 -0.38200
Zn	Zn	0.00236 0.02149 0.04142 1.22100
C 	C 	0.03447 0.96999 0.03200 0.33800
O 	O 	0.97197 0.00829 0.06884 -0.47100
O 	O 	0.04717 0.97724 0.05840 -0.45000
O 	O 	0.99353 0.96978 0.09059 -0.49600
C 	C 	0.05063 0.04379 0.07167 0.35000
O 	O 	0.03952 0.03714 0.04432 -0.45400
O 	O 	0.04120 0.03197 0.09781 -0.50900
C 	C 	0.97108 0.98186 0.07998 0.34100
O 	O 	0.98722 0.06946 0.04709 -0.32600
Zn	Zn	0.02669 0.99253 0.09776 1.17100
O 	O 	0.01250 0.98410 0.02256 -0.43400
C 	C 	0.97786 0.06663 0.01844 0.27900
O 	O 	0.98193 0.04167 0.00531 -0.37900
C 	C 	0.96081 0.08909 0.00359 -0.07400
C 	C 	0.96503 0.11825 0.01163 0.01200
C 	C 	0.94668 0.13929 0.00115 -0.06100
C 	C 	0.92392 0.13143 0.98251 0.02500
C 	C 	0.92032 0.10248 0.97327 -0.06100
C 	C 	0.93875 0.08139 0.98370 0.01200
C 	C 	0.90289 0.15314 0.97466 0.00500
C 	C 	0.87629 0.15067 0.98753 -0.04100
C 	C 	0.85740 0.17303 0.98352 -0.02900
C 	C 	0.86494 0.19796 0.96662 -0.01100
C 	C 	0.89116 0.20006 0.95284 -0.02800
C 	C 	0.91007 0.17771 0.95681 -0.04100
C 	C 	0.84630 0.22198 0.96478 0.05700
C 	C 	0.83081 0.24219 0.96352 -0.12000
H 	H 	0.98219 0.12452 0.02659 0.04000
H 	H 	0.94969 0.16159 0.00829 0.04900
H 	H 	0.90293 0.09624 0.95865 0.04800
H 	H 	0.93530 0.05898 0.97723 0.04200
H 	H 	0.87056 0.13183 0.00141 0.04300
H 	H 	0.83712 0.17121 0.99411 0.03900
H 	H 	0.89707 0.21922 0.93959 0.04200
H 	H 	0.93050 0.17976 0.94666 0.04300
C 	C 	0.95089 0.46331 0.71234 -0.00100
C 	C 	0.95013 0.43303 0.71050 -0.03700
C 	C 	0.93034 0.41732 0.72757 -0.02400
C 	C 	0.91118 0.43177 0.74675 -0.00900
C 	C 	0.93128 0.47781 0.73073 -0.03700
C 	C 	0.89167 0.41515 0.76672 0.10700
N 	N 	0.89926 0.38948 0.77957 -0.08300
N 	N 	0.88256 0.37559 0.79963 -0.08200
C 	C 	0.85779 0.38698 0.80749 0.10100
N 	N 	0.84996 0.41235 0.79417 -0.08300
N 	N 	0.86664 0.42622 0.77405 -0.08400
C 	C 	0.84048 0.37296 0.83192 0.01000
C 	C 	0.82442 0.32939 0.85861 0.01400
C 	C 	0.81124 0.34626 0.88169 -0.08900
C 	C 	0.81198 0.37653 0.87913 0.01500
C 	C 	0.82650 0.38981 0.85438 -0.04900
C 	C 	0.91154 0.46214 0.74788 -0.02400
C 	C 	0.83899 0.34268 0.83389 -0.04900
H 	H 	0.96513 0.42165 0.69626 0.04600
H 	H 	0.93006 0.39393 0.72609 0.04700
H 	H 	0.89697 0.47360 0.76261 0.04800
H 	H 	0.93160 0.50120 0.73210 0.04500
H 	H 	0.84937 0.32943 0.81647 0.05200
H 	H 	0.82400 0.30601 0.86027 0.03800
H 	H 	0.82747 0.41320 0.85315 0.05400
H 	H 	0.80159 0.38980 0.89653 0.04200
C 	C 	0.84469 0.35145 0.05446 -0.06800
C 	C 	0.85049 0.38124 0.05554 0.00600
C 	C 	0.86505 0.39300 0.08109 -0.04400
C 	C 	0.87404 0.37512 0.10587 0.00600
C 	C 	0.85366 0.33355 0.07928 0.00500
C 	C 	0.88963 0.38758 0.13266 0.10200
N 	N 	0.88328 0.41421 0.14393 -0.08300
N 	N 	0.89848 0.42634 0.16668 -0.08400
C 	C 	0.92049 0.41220 0.17885 0.10600
N 	N 	0.92656 0.38536 0.16796 -0.08400
N 	N 	0.91134 0.37322 0.14520 -0.08300
C 	C 	0.93856 0.42662 0.20224 -0.00900
C 	C 	0.94476 0.46154 0.24472 -0.03700
C 	C 	0.97339 0.45817 0.24287 -0.00200
C 	C 	0.98450 0.43824 0.22140 -0.03600
C 	C 	0.96719 0.42253 0.20117 -0.02500
C 	C 	0.86830 0.34533 0.10483 -0.04400
C 	C 	0.92741 0.44582 0.22454 -0.02400
H 	H 	0.84364 0.39534 0.03664 0.04700
H 	H 	0.86957 0.41598 0.08146 0.05300
H 	H 	0.87499 0.33132 0.12388 0.05200
H 	H 	0.84945 0.31052 0.07871 0.04500
H 	H 	0.90535 0.44884 0.22597 0.04700
H 	H 	0.93599 0.47682 0.26130 0.04600
H 	H 	0.97608 0.40783 0.18408 0.04700
H 	H 	0.00659 0.43535 0.21997 0.04400
C 	C 	0.15325 0.77967 0.98456 -0.10100
C 	C 	0.15989 0.80647 0.99830 0.02100
C 	C 	0.14253 0.83010 0.99417 -0.07100
C 	C 	0.11835 0.82722 0.97621 0.03000
C 	C 	0.11211 0.80072 0.96158 -0.06900
C 	C 	0.12952 0.77703 0.96569 0.02300
C 	C 	0.09851 0.85121 0.97513 0.00200
C 	C 	0.07269 0.84809 0.98980 -0.03900
C 	C 	0.05652 0.87240 0.99557 -0.03100
C 	C 	0.06606 0.89995 0.98676 -0.00900
C 	C 	0.09066 0.90274 0.96957 -0.03100
C 	C 	0.10682 0.87843 0.96369 -0.04000
C 	C 	0.05374 0.92517 0.00064 0.05300
C 	C 	0.04438 0.94592 0.01400 -0.11400
H 	H 	0.17835 0.80893 0.01250 0.01900
H 	H 	0.14750 0.85045 0.00561 0.04600
H 	H 	0.09353 0.79831 0.94759 0.05000
H 	H 	0.12416 0.75649 0.95491 0.03600
H 	H 	0.06591 0.82713 0.99840 0.04100
H 	H 	0.03738 0.87002 0.00858 0.04000
H 	H 	0.09804 0.92393 0.96236 0.04100
H 	H 	0.12647 0.88099 0.95179 0.04100
C 	C 	0.14768 0.65491 0.90344 -0.06900
C 	C 	0.11891 0.65157 0.90293 0.00600
C 	C 	0.10602 0.63797 0.87728 -0.04400
C 	C 	0.12173 0.62748 0.85187 0.00600
C 	C 	0.16339 0.64471 0.87785 0.00600
C 	C 	0.10812 0.61234 0.82531 0.10200
N 	N 	0.08318 0.62123 0.81473 -0.08300
N 	N 	0.06988 0.60627 0.79242 -0.08400
C 	C 	0.08111 0.58197 0.78004 0.10700
N 	N 	0.10629 0.57337 0.79020 -0.08300
N 	N 	0.11961 0.58835 0.81250 -0.08200
C 	C 	0.06534 0.56412 0.75731 -0.00900
C 	C 	0.03120 0.56034 0.71539 -0.03700
C 	C 	0.03179 0.53009 0.71766 -0.00200
C 	C 	0.04981 0.51689 0.73914 -0.03700
C 	C 	0.06652 0.53380 0.75887 -0.02400
C 	C 	0.15048 0.63100 0.85223 -0.04400
C 	C 	0.04790 0.57729 0.73510 -0.02400
H 	H 	0.10651 0.65952 0.92238 0.04500
H 	H 	0.08384 0.63523 0.87740 0.05300
H 	H 	0.16281 0.62319 0.83265 0.05200
H 	H 	0.18560 0.64709 0.87796 0.04400
H 	H 	0.04708 0.60063 0.73334 0.04700
H 	H 	0.01740 0.57072 0.69879 0.04600
H 	H 	0.07982 0.52334 0.77593 0.04800
H 	H 	0.05051 0.49353 0.74091 0.04500
C 	C 	0.16223 0.67637 0.07893 -0.09000
C 	C 	0.13380 0.67912 0.08407 0.01500
C 	C 	0.12105 0.66429 0.10904 -0.05000
C 	C 	0.13656 0.64648 0.12912 0.00900
C 	C 	0.17789 0.65920 0.09953 0.01300
C 	C 	0.12274 0.62916 0.15396 0.10000
N 	N 	0.10063 0.63988 0.16964 -0.08400
N 	N 	0.08653 0.62329 0.18988 -0.08400
C 	C 	0.09410 0.59547 0.19501 0.10600
N 	N 	0.11661 0.58497 0.17991 -0.08400
N 	N 	0.13073 0.60157 0.15968 -0.08300
C 	C 	0.07681 0.57620 0.21478 -0.01000
C 	C 	0.03152 0.55949 0.23153 -0.03700
C 	C 	0.04360 0.53706 0.24890 -0.00200
C 	C 	0.07236 0.53468 0.24985 -0.03700
C 	C 	0.08891 0.55416 0.23287 -0.02400
C 	C 	0.16511 0.64430 0.12447 -0.05100
C 	C 	0.04802 0.57897 0.21455 -0.02400
H 	H 	0.12154 0.69256 0.06858 0.04100
H 	H 	0.09900 0.66612 0.11230 0.05300
H 	H 	0.17737 0.63089 0.14001 0.05100
H 	H 	0.19983 0.65686 0.09580 0.03500
H 	H 	0.03839 0.59578 0.20062 0.04700
H 	H 	0.00932 0.56156 0.23081 0.04400
H 	H 	0.11110 0.55199 0.23360 0.04600
H 	H 	0.08186 0.51748 0.26332 0.04500
C 	C 	0.78797 0.83844 0.04363 -0.10000
C 	C 	0.80321 0.84799 0.01724 0.02000
C 	C 	0.82541 0.86709 0.02132 -0.06800
C 	C 	0.83252 0.87683 0.05177 0.02900
C 	C 	0.81712 0.86757 0.07808 -0.06900
C 	C 	0.79494 0.84850 0.07406 0.02000
C 	C 	0.85660 0.89600 0.05626 0.00200
C 	C 	0.85324 0.92387 0.06881 -0.04000
C 	C 	0.87622 0.94161 0.07418 -0.03000
C 	C 	0.90266 0.93161 0.06703 -0.01100
C 	C 	0.90604 0.90388 0.05432 -0.03000
C 	C 	0.88310 0.88612 0.04896 -0.04000
C 	C 	0.92635 0.94988 0.07230 0.05600
C 	C 	0.94656 0.96476 0.07620 -0.12100
H 	H 	0.79809 0.84039 0.99366 0.03600
H 	H 	0.83715 0.87420 0.00085 0.04900
H 	H 	0.82249 0.87495 0.10169 0.04700
H 	H 	0.78313 0.84164 0.09458 0.03300
H 	H 	0.83285 0.93171 0.07447 0.04200
H 	H 	0.87346 0.96309 0.08389 0.04000
H 	H 	0.92644 0.89605 0.04867 0.04000
H 	H 	0.88592 0.86459 0.03943 0.04000
C 	C 	0.55490 0.94714 0.74403 -0.00200
C 	C 	0.54706 0.92323 0.76253 -0.03700
C 	C 	0.56652 0.90901 0.78116 -0.02400
C 	C 	0.59407 0.91857 0.78145 -0.00900
C 	C 	0.58254 0.95619 0.74354 -0.03700
C 	C 	0.61411 0.90515 0.80317 0.10700
N 	N 	0.61196 0.87664 0.81059 -0.08300
N 	N 	0.62837 0.86512 0.83245 -0.08200
C 	C 	0.64746 0.88177 0.84751 0.10200
N 	N 	0.65009 0.91011 0.83949 -0.08300
N 	N 	0.63365 0.92163 0.81766 -0.08400
C 	C 	0.66352 0.86980 0.87412 0.00600
C 	C 	0.68461 0.82868 0.90025 0.00600
C 	C 	0.68966 0.84563 0.92731 -0.06900
C 	C 	0.68259 0.87502 0.92710 0.00600
C 	C 	0.66957 0.88702 0.90069 -0.04400
C 	C 	0.60205 0.94197 0.76214 -0.02400
C 	C 	0.67157 0.84070 0.87382 -0.04400
H 	H 	0.52578 0.91599 0.76289 0.04400
H 	H 	0.56003 0.89106 0.79598 0.04800
H 	H 	0.62329 0.94931 0.76177 0.04700
H 	H 	0.58880 0.97457 0.72923 0.04700
H 	H 	0.66746 0.82729 0.85327 0.05300
H 	H 	0.69016 0.80605 0.89993 0.04500
H 	H 	0.66353 0.90951 0.90125 0.05300
H 	H 	0.68676 0.88847 0.94759 0.04600
C 	C 	0.55947 0.95689 0.27801 -0.00200
C 	C 	0.58366 0.96669 0.26319 -0.03700
C 	C 	0.59991 0.94750 0.24591 -0.02400
C 	C 	0.59206 0.91830 0.24321 -0.01000
C 	C 	0.55194 0.92760 0.27603 -0.03700
C 	C 	0.60819 0.89852 0.22316 0.10600
N 	N 	0.63599 0.90144 0.22132 -0.08400
N 	N 	0.65030 0.88569 0.20074 -0.08300
C 	C 	0.63724 0.86655 0.18139 0.10000
N 	N 	0.60953 0.86303 0.18386 -0.08300
N 	N 	0.59521 0.87879 0.20445 -0.08400
C 	C 	0.65259 0.85182 0.15598 0.00900
C 	C 	0.68710 0.85329 0.11428 0.01500
C 	C 	0.68018 0.82487 0.10551 -0.09000
C 	C 	0.65971 0.80979 0.12245 0.01300
C 	C 	0.64592 0.82323 0.14752 -0.05000
C 	C 	0.56814 0.90837 0.25867 -0.02400
C 	C 	0.67342 0.86667 0.13937 -0.05000
H 	H 	0.58966 0.98927 0.26469 0.04400
H 	H 	0.61823 0.95549 0.23400 0.04700
H 	H 	0.56202 0.88584 0.25708 0.04600
H 	H 	0.53331 0.91985 0.28748 0.04600
H 	H 	0.67868 0.88877 0.14554 0.05300
H 	H 	0.70310 0.86503 0.10165 0.04000
H 	H 	0.63004 0.81146 0.16031 0.05100
H 	H 	0.65418 0.78785 0.11591 0.03500
C 	C 	0.25318 0.15518 0.04446 -0.10100
C 	C 	0.23630 0.14674 0.01898 0.01900
C 	C 	0.21065 0.13382 0.02473 -0.06800
C 	C 	0.20163 0.12921 0.05597 0.02800
C 	C 	0.21856 0.13732 0.08143 -0.06900
C 	C 	0.24423 0.15020 0.07573 0.01900
C 	C 	0.17451 0.11573 0.06199 0.00300
C 	C 	0.17273 0.08881 0.07727 -0.04100
C 	C 	0.14711 0.07539 0.08161 -0.02900
C 	C 	0.12312 0.08878 0.07072 -0.01200
C 	C 	0.12478 0.11598 0.05614 -0.02900
C 	C 	0.15039 0.12945 0.05181 -0.04100
C 	C 	0.09719 0.07354 0.07203 0.05700
C 	C 	0.07574 0.06027 0.07236 -0.12300
H 	H 	0.24285 0.15050 0.99475 0.03600
H 	H 	0.19778 0.12741 0.00492 0.04900
H 	H 	0.21178 0.13377 0.10562 0.04700
H 	H 	0.25714 0.15628 0.09562 0.03300
H 	H 	0.19123 0.07807 0.08525 0.04100
H 	H 	0.14597 0.05432 0.09284 0.03700
H 	H 	0.10632 0.12644 0.04763 0.04100
H 	H 	0.15154 0.15035 0.04025 0.04000
C 	C 	0.34620 0.12893 0.92397 -0.07000
C 	C 	0.35729 0.14346 0.89759 0.00600
C 	C 	0.36891 0.12780 0.87262 -0.04500
C 	C 	0.36936 0.09741 0.87371 0.00700
C 	C 	0.34551 0.09860 0.92440 0.00800
C 	C 	0.38445 0.08088 0.84932 0.10200
N 	N 	0.38806 0.09188 0.81969 -0.08300
N 	N 	0.40312 0.07775 0.79837 -0.08300
C 	C 	0.41492 0.05214 0.80602 0.10700
N 	N 	0.41098 0.04095 0.83547 -0.08400
N 	N 	0.39601 0.05512 0.85680 -0.08300
C 	C 	0.43295 0.03730 0.78316 -0.01000
C 	C 	0.47019 0.03911 0.74465 -0.03700
C 	C 	0.47126 0.00881 0.74451 -0.00100
C 	C 	0.45244 0.99279 0.76282 -0.03700
C 	C 	0.43337 0.00695 0.78205 -0.02400
C 	C 	0.35686 0.08292 0.89934 -0.04400
C 	C 	0.45110 0.05331 0.76387 -0.02400
H 	H 	0.35787 0.16688 0.89695 0.04300
H 	H 	0.37836 0.13932 0.85301 0.05300
H 	H 	0.35636 0.05951 0.90013 0.05300
H 	H 	0.33657 0.08717 0.94439 0.04200
H 	H 	0.45103 0.07673 0.76451 0.04700
H 	H 	0.48462 0.05166 0.73053 0.04600
H 	H 	0.41917 0.99433 0.79640 0.04600
H 	H 	0.45292 0.96937 0.76258 0.04400
C 	C 	0.49520 0.04012 0.27315 -0.00200
C 	C 	0.46632 0.03969 0.27218 -0.03700
C 	C 	0.45226 0.05872 0.25226 -0.02400
C 	C 	0.46699 0.07833 0.23308 -0.01000
C 	C 	0.50988 0.06037 0.25484 -0.03700
C 	C 	0.45237 0.09646 0.20983 0.10600
N 	N 	0.42717 0.10730 0.21677 -0.08400
N 	N 	0.41316 0.12196 0.19495 -0.08300
C 	C 	0.42393 0.12617 0.16555 0.10000
N 	N 	0.44933 0.11577 0.15880 -0.08300
N 	N 	0.46335 0.10115 0.18062 -0.08400
C 	C 	0.40742 0.14004 0.14055 0.01000
C 	C 	0.37437 0.17629 0.12424 0.01600
C 	C 	0.37403 0.16469 0.09347 -0.09000
C 	C 	0.39089 0.14108 0.08620 0.01700
C 	C 	0.40753 0.12886 0.10959 -0.05000
C 	C 	0.49586 0.07938 0.23489 -0.02400
C 	C 	0.39092 0.16396 0.14770 -0.05100
H 	H 	0.45481 0.02415 0.28626 0.04500
H 	H 	0.43000 0.05762 0.25105 0.04700
H 	H 	0.50745 0.09470 0.22061 0.04600
H 	H 	0.53218 0.06106 0.25571 0.04400
H 	H 	0.39086 0.17295 0.17143 0.05100
H 	H 	0.36141 0.19447 0.13016 0.02700
H 	H 	0.42010 0.11035 0.10378 0.05400
H 	H 	0.39101 0.13211 0.06247 0.03900
C 	C 	0.36958 0.25084 0.98166 -0.10000
C 	C 	0.35963 0.27866 0.97513 0.02000
C 	C 	0.37731 0.30005 0.96335 -0.06900
C 	C 	0.40511 0.29386 0.95754 0.03000
C 	C 	0.41464 0.26555 0.96194 -0.06800
C 	C 	0.39700 0.24415 0.97406 0.02200
C 	C 	0.42475 0.31773 0.95098 0.00100
C 	C 	0.44664 0.32302 0.97199 -0.03800
C 	C 	0.46058 0.34956 0.97131 -0.03200
C 	C 	0.45259 0.37107 0.94987 -0.00300
C 	C 	0.43273 0.36473 0.92674 -0.03300
C 	C 	0.41900 0.33802 0.92710 -0.03800
C 	C 	0.46033 0.40066 0.95592 0.04400
C 	C 	0.46592 0.42522 0.96315 -0.09200
H 	H 	0.33836 0.28398 0.98000 0.02900
H 	H 	0.36968 0.32179 0.95998 0.04700
H 	H 	0.43595 0.26039 0.95703 0.04900
H 	H 	0.40490 0.22267 0.97839 0.04000
H 	H 	0.45160 0.30739 0.99023 0.04000
H 	H 	0.47625 0.35413 0.98895 0.04200
H 	H 	0.42675 0.38107 0.90970 0.04200
H 	H 	0.40270 0.33383 0.91013 0.04100
C 	C 	0.25734 0.65590 0.99276 -0.10200
C 	C 	0.28283 0.66394 0.97954 0.02100
C 	C 	0.30539 0.64552 0.98199 -0.07000
C 	C 	0.30270 0.61887 0.99764 0.02800
C 	C 	0.27704 0.61037 0.00996 -0.06900
C 	C 	0.25442 0.62878 0.00748 0.02200
C 	C 	0.32708 0.60059 0.00250 0.00300
C 	C 	0.33733 0.59607 0.03322 -0.04100
C 	C 	0.36190 0.58101 0.03763 -0.03100
C 	C 	0.37633 0.57037 0.01138 -0.01100
C 	C 	0.36573 0.57416 0.98075 -0.03000
C 	C 	0.34118 0.58921 0.97631 -0.04000
C 	C 	0.40278 0.55708 0.01567 0.05600
C 	C 	0.42514 0.54634 0.01889 -0.12100
H 	H 	0.28527 0.68464 0.96778 0.02900
H 	H 	0.32512 0.65222 0.97231 0.04700
H 	H 	0.27473 0.58974 0.02191 0.04900
H 	H 	0.23489 0.62231 0.01784 0.03700
H 	H 	0.32662 0.60480 0.05358 0.03900
H 	H 	0.36995 0.57812 0.06138 0.03700
H 	H 	0.37675 0.56591 0.96035 0.04300
H 	H 	0.33336 0.59246 0.95252 0.04300
C 	C 	0.56374 0.47240 0.04565 -0.10200
C 	C 	0.56289 0.44203 0.04626 0.02100
C 	C 	0.58688 0.42620 0.04118 -0.06800
C 	C 	0.61198 0.44054 0.03556 0.02900
C 	C 	0.61314 0.47086 0.03661 -0.06900
C 	C 	0.58915 0.48673 0.04168 0.02200
C 	C 	0.63651 0.42391 0.02624 0.00300
C 	C 	0.64798 0.42758 0.99591 -0.04000
C 	C 	0.66999 0.41040 0.98620 -0.03000
C 	C 	0.68066 0.38944 0.00670 -0.01000
C 	C 	0.66955 0.38604 0.03718 -0.03100
C 	C 	0.64754 0.40323 0.04695 -0.04000
C 	C 	0.70264 0.37101 0.99620 0.05400
C 	C 	0.72099 0.35558 0.98728 -0.12000
H 	H 	0.54351 0.43070 0.04977 0.03500
H 	H 	0.58580 0.40279 0.04063 0.04800
H 	H 	0.63249 0.48212 0.03265 0.04700
H 	H 	0.59015 0.51014 0.04126 0.03100
H 	H 	0.63953 0.44337 0.97969 0.04200
H 	H 	0.67853 0.41318 0.96262 0.04100
H 	H 	0.67776 0.36994 0.05320 0.04000
H 	H 	0.63888 0.40029 0.07044 0.04000
C 	C 	0.54649 0.57159 0.97802 -0.09600
C 	C 	0.53763 0.59784 0.96502 0.02100
C 	C 	0.55641 0.62047 0.96023 -0.06800
C 	C 	0.58412 0.61715 0.96888 0.02800
C 	C 	0.59344 0.58993 0.97876 -0.06800
C 	C 	0.57468 0.56715 0.98310 0.01900
C 	C 	0.60202 0.64290 0.97262 0.00200
C 	C 	0.59422 0.66513 0.99336 -0.04100
C 	C 	0.61214 0.68825 0.99933 -0.03100
C 	C 	0.63805 0.68931 0.98477 -0.01100
C 	C 	0.64567 0.66754 0.96343 -0.03000
C 	C 	0.62769 0.64441 0.95731 -0.04000
C 	C 	0.65739 0.71173 0.99332 0.05500
C 	C 	0.67334 0.73045 0.00132 -0.12100
H 	H 	0.51595 0.60128 0.96046 0.03200
H 	H 	0.54914 0.64116 0.95171 0.04900
H 	H 	0.61486 0.58695 0.98501 0.04600
H 	H 	0.58178 0.54680 0.99272 0.03000
H 	H 	0.57455 0.66410 0.00548 0.03900
H 	H 	0.60613 0.70501 0.01584 0.04000
H 	H 	0.66568 0.66826 0.95203 0.04000
H 	H 	0.63387 0.62745 0.94115 0.04100
