data_crystal

_cell_length_a 35.53766
_cell_length_b 35.26548
_cell_length_c 28.32724
_cell_angle_alpha 89.98322
_cell_angle_beta  89.98445
_cell_angle_gamma 90.19957

_symmetry_space_group_name_	'P 1'
_symmetry_space_group_name_H-M	'P 1'

loop_
_symmetry_equiv_pos_as_xyz
  x,y,z

loop_
_atom_site_label
_atom_site_type_symbol
_atom_site_fract_x
_atom_site_fract_y
_atom_site_fract_z
_atom_site_charge
C 	C 	0.72642 0.93860 0.31723 0.28600
C 	C 	0.74013 0.82856 0.47842 0.30400
C 	C 	0.78661 0.94153 0.42327 0.30200
C 	C 	0.67651 0.82594 0.37125 0.28000
C 	C 	0.83918 0.83627 0.39123 0.30400
C 	C 	0.77531 0.82234 0.27850 0.28300
Ni	Ni	0.72031 0.89161 0.41019 1.11300
Ni	Ni	0.76001 0.81244 0.38004 1.12000
Ni	Ni	0.79225 0.89045 0.33927 1.12100
O 	O 	0.71715 0.93786 0.36302 -0.36900
O 	O 	0.75268 0.91603 0.29927 -0.38200
O 	O 	0.81663 0.80979 0.37442 -0.38500
O 	O 	0.71410 0.85301 0.46589 -0.37100
O 	O 	0.76799 0.82084 0.44982 -0.39300
O 	O 	0.80079 0.84830 0.29105 -0.37900
O 	O 	0.76576 0.91597 0.44441 -0.37900
O 	O 	0.79238 0.93961 0.37739 -0.37800
O 	O 	0.75640 0.80235 0.31046 -0.38400
O 	O 	0.67517 0.86277 0.38068 -0.36900
O 	O 	0.70325 0.80388 0.38942 -0.37400
O 	O 	0.83315 0.87228 0.38223 -0.38600
O 	O 	0.75145 0.86464 0.36862 -0.71700
H 	H 	0.73453 0.86247 0.34124 0.15400
C 	C 	0.77391 0.56990 0.81447 0.28500
C 	C 	0.75973 0.67631 0.97922 0.30400
C 	C 	0.71631 0.56390 0.92295 0.30200
C 	C 	0.82134 0.68420 0.86999 0.28000
C 	C 	0.65971 0.66704 0.89541 0.30400
C 	C 	0.72055 0.68511 0.78075 0.28300
Ni	Ni	0.78091 0.61600 0.90815 1.11300
Ni	Ni	0.73752 0.69406 0.88195 1.12000
Ni	Ni	0.70727 0.61556 0.84024 1.12100
O 	O 	0.78487 0.57068 0.85970 -0.37000
O 	O 	0.74676 0.59220 0.79815 -0.38300
O 	O 	0.68079 0.69459 0.87830 -0.38500
O 	O 	0.78684 0.65399 0.96439 -0.37200
O 	O 	0.73122 0.68424 0.95176 -0.39200
O 	O 	0.69615 0.65818 0.79351 -0.37900
O 	O 	0.73753 0.58921 0.94392 -0.37900
O 	O 	0.71013 0.56595 0.87721 -0.37800
O 	O 	0.73909 0.70557 0.81258 -0.38400
O 	O 	0.82411 0.64718 0.87770 -0.36900
O 	O 	0.79408 0.70471 0.88972 -0.37400
O 	O 	0.66685 0.63144 0.88529 -0.38800
O 	O 	0.74776 0.64245 0.86865 -0.71800
H 	H 	0.76393 0.64576 0.84072 0.15400
C 	C 	0.16567 0.68634 0.65027 0.27900
C 	C 	0.06526 0.80864 0.59392 0.30000
C 	C 	0.17617 0.75398 0.54699 0.30400
C 	C 	0.05607 0.74479 0.69621 0.28400
C 	C 	0.17104 0.85013 0.63607 0.30300
C 	C 	0.17320 0.78296 0.74883 0.28400
Ni	Ni	0.10776 0.73778 0.60768 1.11200
Ni	Ni	0.11077 0.80749 0.68291 1.12100
Ni	Ni	0.18733 0.76932 0.64766 1.12000
O 	O 	0.12984 0.68903 0.63742 -0.37100
O 	O 	0.19120 0.71185 0.63634 -0.37400
O 	O 	0.13480 0.84884 0.64475 -0.38500
O 	O 	0.09071 0.78697 0.57445 -0.38100
O 	O 	0.06480 0.81335 0.64009 -0.37600
O 	O 	0.19262 0.76292 0.71756 -0.38700
O 	O 	0.14882 0.72971 0.55551 -0.37200
O 	O 	0.18465 0.78014 0.57787 -0.39500
O 	O 	0.15007 0.81080 0.73559 -0.37700
O 	O 	0.05880 0.73733 0.65000 -0.37000
O 	O 	0.07928 0.76880 0.71788 -0.38100
O 	O 	0.19411 0.82574 0.65583 -0.38600
O 	O 	0.13442 0.76518 0.65364 -0.71700
H 	H 	0.13323 0.74715 0.68014 0.15500
C 	C 	0.32586 0.82885 0.14882 0.27900
C 	C 	0.43342 0.71178 0.09603 0.29900
C 	C 	0.32132 0.76110 0.04593 0.30400
C 	C 	0.43909 0.77671 0.19776 0.28600
C 	C 	0.33118 0.66517 0.13558 0.30400
C 	C 	0.32234 0.73279 0.24792 0.28300
Ni	Ni	0.38772 0.78109 0.10841 1.11200
Ni	Ni	0.38742 0.71176 0.18436 1.12100
Ni	Ni	0.30937 0.74468 0.14604 1.12000
O 	O 	0.36208 0.82839 0.13722 -0.37000
O 	O 	0.30224 0.80176 0.13428 -0.37400
O 	O 	0.36687 0.66835 0.14677 -0.38600
O 	O 	0.40803 0.73298 0.07557 -0.38100
O 	O 	0.43409 0.70852 0.14236 -0.37700
O 	O 	0.30199 0.75086 0.21572 -0.38700
O 	O 	0.34724 0.78677 0.05508 -0.37100
O 	O 	0.31424 0.73416 0.07635 -0.39300
O 	O 	0.34748 0.70641 0.23596 -0.37700
O 	O 	0.43603 0.78480 0.15173 -0.36900
O 	O 	0.41582 0.75271 0.21930 -0.38300
O 	O 	0.30602 0.68800 0.15421 -0.38700
O 	O 	0.36178 0.75218 0.15372 -0.71700
H 	H 	0.36125 0.77037 0.18007 0.15400
C 	C 	0.22631 0.07339 0.43166 0.28300
C 	C 	0.23314 0.17618 0.26271 0.30400
C 	C 	0.28380 0.06915 0.32256 0.30200
C 	C 	0.17055 0.18185 0.37137 0.28000
C 	C 	0.33330 0.17785 0.34721 0.30500
C 	C 	0.27188 0.19349 0.46053 0.28400
Ni	Ni	0.21597 0.11628 0.33607 1.11200
Ni	Ni	0.25352 0.19809 0.35927 1.12000
Ni	Ni	0.28964 0.12340 0.40335 1.12100
O 	O 	0.21573 0.07187 0.38627 -0.36900
O 	O 	0.25238 0.09770 0.44674 -0.38300
O 	O 	0.30997 0.20375 0.36319 -0.38500
O 	O 	0.20739 0.15247 0.27844 -0.37100
O 	O 	0.26085 0.18704 0.28996 -0.39200
O 	O 	0.29776 0.16779 0.44871 -0.37900
O 	O 	0.26135 0.09289 0.30115 -0.38000
O 	O 	0.29063 0.07282 0.36805 -0.37800
O 	O 	0.25095 0.21072 0.42816 -0.38600
O 	O 	0.17068 0.14450 0.36552 -0.37100
O 	O 	0.19639 0.20395 0.35099 -0.37500
O 	O 	0.32844 0.14185 0.35740 -0.38700
O 	O 	0.24705 0.14618 0.37459 -0.71800
H 	H 	0.23075 0.14875 0.40252 0.15600
C 	C 	0.27292 0.44049 0.93267 0.28700
C 	C 	0.26468 0.33920 0.76229 0.30400
C 	C 	0.21705 0.44595 0.82424 0.30200
C 	C 	0.32561 0.32897 0.87233 0.28000
C 	C 	0.16350 0.33971 0.84673 0.30500
C 	C 	0.22568 0.31948 0.95939 0.28100
Ni	Ni	0.28384 0.39686 0.83750 1.11300
Ni	Ni	0.24261 0.31612 0.85761 1.12000
Ni	Ni	0.20960 0.39119 0.90444 1.12000
O 	O 	0.28599 0.44079 0.88829 -0.36900
O 	O 	0.24818 0.41487 0.94759 -0.38600
O 	O 	0.18595 0.31245 0.86116 -0.38500
O 	O 	0.29138 0.36127 0.77910 -0.37000
O 	O 	0.23617 0.32935 0.78880 -0.39200
O 	O 	0.20052 0.34638 0.94912 -0.37900
O 	O 	0.23967 0.42248 0.80258 -0.38000
O 	O 	0.21029 0.44216 0.86977 -0.37900
O 	O 	0.24434 0.30122 0.92575 -0.38400
O 	O 	0.32771 0.36627 0.86672 -0.36900
O 	O 	0.29962 0.30836 0.85000 -0.37500
O 	O 	0.16982 0.37517 0.85848 -0.38900
O 	O 	0.25115 0.36741 0.87477 -0.71700
H 	H 	0.26715 0.36352 0.90271 0.15500
C 	C 	0.82692 0.18210 0.59849 0.28000
C 	C 	0.93146 0.30185 0.65384 0.30100
C 	C 	0.81977 0.25006 0.70153 0.30400
C 	C 	0.93825 0.23826 0.55102 0.28500
C 	C 	0.82625 0.34611 0.61167 0.30400
C 	C 	0.82241 0.27868 0.49981 0.28400
Ni	Ni	0.88695 0.23194 0.63996 1.11300
Ni	Ni	0.88547 0.30207 0.56537 1.12100
Ni	Ni	0.80806 0.26552 0.60098 1.12000
O 	O 	0.86302 0.18381 0.61045 -0.37100
O 	O 	0.80250 0.20831 0.61288 -0.37500
O 	O 	0.86258 0.34352 0.60418 -0.38500
O 	O 	0.90562 0.28053 0.67339 -0.38200
O 	O 	0.93186 0.30673 0.60772 -0.37600
O 	O 	0.80237 0.25911 0.53110 -0.38600
O 	O 	0.84600 0.22490 0.69237 -0.37200
O 	O 	0.81173 0.27642 0.67073 -0.39400
O 	O 	0.84602 0.30625 0.51309 -0.37800
O 	O 	0.93560 0.23049 0.59716 -0.37100
O 	O 	0.91562 0.26293 0.52983 -0.38200
O 	O 	0.80266 0.32196 0.59221 -0.38600
O 	O 	0.86082 0.26010 0.59444 -0.71700
H 	H 	0.86134 0.24211 0.56789 0.15500
C 	C 	0.66929 0.32521 0.10015 0.28000
C 	C 	0.56400 0.20536 0.15280 0.30200
C 	C 	0.67390 0.25782 0.20431 0.30500
C 	C 	0.55839 0.26756 0.04962 0.28400
C 	C 	0.67104 0.16070 0.11331 0.30500
C 	C 	0.67644 0.22861 0.00277 0.28400
Ni	Ni	0.60840 0.27551 0.13981 1.11300
Ni	Ni	0.61215 0.20490 0.06613 1.12100
Ni	Ni	0.68836 0.24199 0.10436 1.12000
O 	O 	0.63291 0.32358 0.11070 -0.37000
O 	O 	0.69332 0.29925 0.11607 -0.37500
O 	O 	0.63468 0.16385 0.10599 -0.38600
O 	O 	0.58918 0.22701 0.17309 -0.38000
O 	O 	0.56488 0.20000 0.10681 -0.37700
O 	O 	0.69571 0.24831 0.03467 -0.38600
O 	O 	0.64811 0.28301 0.19353 -0.37200
O 	O 	0.68307 0.23135 0.17411 -0.39200
O 	O 	0.65277 0.20090 0.01529 -0.37800
O 	O 	0.56066 0.27666 0.09544 -0.37100
O 	O 	0.58232 0.24362 0.02935 -0.38200
O 	O 	0.69482 0.18563 0.09569 -0.38600
O 	O 	0.63576 0.24716 0.09567 -0.71700
H 	H 	0.63574 0.26498 0.06891 0.15500
C 	C 	0.68885 0.23105 0.95344 -0.06800
C 	C 	0.69366 0.26674 0.93268 0.00300
C 	C 	0.71449 0.27077 0.89123 -0.05100
C 	C 	0.72896 0.23849 0.86790 0.00500
C 	C 	0.72379 0.20229 0.88886 0.01000
C 	C 	0.70280 0.19874 0.93070 -0.01600
C 	C 	0.74171 0.17045 0.86969 -0.04000
C 	C 	0.76581 0.17424 0.83114 -0.03900
C 	C 	0.77080 0.20956 0.80925 0.00800
C 	C 	0.75080 0.24163 0.82583 0.00600
C 	C 	0.75208 0.27545 0.79912 -0.05400
C 	C 	0.77627 0.27863 0.76055 0.00400
C 	C 	0.79759 0.24746 0.74555 -0.07700
C 	C 	0.79467 0.21289 0.76988 -0.01500
H 	H 	0.68304 0.29181 0.95022 0.03100
H 	H 	0.72144 0.29910 0.87964 0.04100
H 	H 	0.69953 0.17115 0.94720 0.04600
H 	H 	0.73790 0.14277 0.88568 0.04000
H 	H 	0.78037 0.14946 0.81789 0.04000
H 	H 	0.73292 0.29848 0.80608 0.04200
H 	H 	0.77738 0.30513 0.74123 0.03800
H 	H 	0.81004 0.18833 0.75740 0.04600
C 	C 	0.81107 0.27613 0.44998 -0.06700
C 	C 	0.80295 0.30912 0.42435 0.00400
C 	C 	0.78275 0.30686 0.38206 -0.05100
C 	C 	0.76884 0.27150 0.36613 0.00500
C 	C 	0.78145 0.23804 0.38875 0.01000
C 	C 	0.80236 0.24060 0.43063 -0.01800
C 	C 	0.77261 0.20243 0.36971 -0.04100
C 	C 	0.75067 0.19960 0.32909 -0.04000
C 	C 	0.73549 0.23220 0.30819 0.00700
C 	C 	0.74331 0.26848 0.32751 0.00700
C 	C 	0.72353 0.30021 0.30991 -0.05300
C 	C 	0.70020 0.29652 0.27043 0.00700
C 	C 	0.69490 0.26102 0.24908 -0.07700
C 	C 	0.71171 0.22880 0.26888 -0.01500
H 	H 	0.81122 0.33664 0.43789 0.04000
H 	H 	0.77907 0.33235 0.36141 0.04300
H 	H 	0.81052 0.21501 0.44921 0.03800
H 	H 	0.78287 0.17680 0.38638 0.03700
H 	H 	0.74464 0.17182 0.31449 0.03700
H 	H 	0.72474 0.32730 0.32764 0.04300
H 	H 	0.68640 0.32141 0.25632 0.04000
H 	H 	0.70612 0.20107 0.25385 0.04300
C 	C 	0.52414 0.27825 0.02328 -0.06500
C 	C 	0.52455 0.27916 0.97377 0.00100
C 	C 	0.49125 0.28464 0.94848 -0.05000
C 	C 	0.45656 0.28806 0.97250 0.00400
C 	C 	0.45670 0.29035 0.02247 0.01000
C 	C 	0.49032 0.28486 0.04750 -0.02000
C 	C 	0.42350 0.29920 0.04685 -0.04200
C 	C 	0.39061 0.30745 0.02216 -0.04000
C 	C 	0.38971 0.30470 0.97281 0.00800
C 	C 	0.42189 0.29219 0.94786 0.00700
C 	C 	0.41825 0.28332 0.89940 -0.05200
C 	C 	0.38535 0.29284 0.87508 0.00600
C 	C 	0.35540 0.31001 0.89895 -0.06900
C 	C 	0.35708 0.31466 0.94798 -0.01800
H 	H 	0.55081 0.27586 0.95477 0.03900
H 	H 	0.49294 0.28796 0.91062 0.04300
H 	H 	0.49007 0.28547 0.08577 0.04400
H 	H 	0.42347 0.30082 0.08507 0.03800
H 	H 	0.36563 0.31572 0.04152 0.03900
H 	H 	0.44005 0.26808 0.88085 0.04300
H 	H 	0.38359 0.28786 0.83739 0.03500
H 	H 	0.33366 0.32761 0.96643 0.03500
C 	C 	0.12828 0.33017 0.82236 -0.07300
C 	C 	0.09439 0.34578 0.83830 0.01000
C 	C 	0.06181 0.34297 0.81105 -0.05300
C 	C 	0.06215 0.32274 0.76800 0.00700
C 	C 	0.09679 0.30807 0.75120 0.00800
C 	C 	0.12932 0.31077 0.77925 -0.01400
C 	C 	0.09906 0.29288 0.70556 -0.04000
C 	C 	0.06774 0.29306 0.67592 -0.04000
C 	C 	0.03284 0.30589 0.69251 0.00800
C 	C 	0.02926 0.31890 0.73963 0.00600
C 	C 	0.99286 0.32559 0.75793 -0.05300
C 	C 	0.96132 0.32275 0.72873 0.00600
C 	C 	0.96515 0.31161 0.68152 -0.07500
C 	C 	0.00100 0.30386 0.66327 -0.01600
H 	H 	0.09369 0.36172 0.87099 0.03400
H 	H 	0.03735 0.35878 0.82203 0.04300
H 	H 	0.15584 0.29969 0.76632 0.04100
H 	H 	0.12547 0.28172 0.69254 0.03700
H 	H 	0.07041 0.28225 0.64025 0.03700
H 	H 	0.98845 0.33037 0.79518 0.04300
H 	H 	0.93361 0.32763 0.74345 0.03800
H 	H 	0.00387 0.29431 0.62705 0.04500
C 	C 	0.36765 0.18949 0.32256 -0.07400
C 	C 	0.40279 0.18197 0.34275 0.01000
C 	C 	0.43556 0.18548 0.31589 -0.05300
C 	C 	0.43328 0.19445 0.26736 0.00700
C 	C 	0.39820 0.20616 0.24863 0.00900
C 	C 	0.36552 0.20332 0.27632 -0.01500
C 	C 	0.39613 0.22053 0.20256 -0.04000
C 	C 	0.42826 0.22249 0.17441 -0.04100
C 	C 	0.46278 0.20879 0.19117 0.00800
C 	C 	0.46535 0.19330 0.23724 0.00600
C 	C 	0.49927 0.17564 0.25111 -0.05200
C 	C 	0.53125 0.17843 0.22263 0.00700
C 	C 	0.52935 0.19653 0.17873 -0.07600
C 	C 	0.49481 0.21027 0.16225 -0.01600
H 	H 	0.40469 0.17300 0.37927 0.03300
H 	H 	0.46241 0.18257 0.33337 0.04300
H 	H 	0.33836 0.21052 0.26139 0.04200
H 	H 	0.36962 0.23072 0.18872 0.03700
H 	H 	0.42620 0.23429 0.13916 0.03800
H 	H 	0.50075 0.15859 0.28274 0.04400
H 	H 	0.55759 0.16645 0.23472 0.03700
H 	H 	0.49316 0.22317 0.12756 0.04500
C 	C 	0.13704 0.19925 0.39201 -0.06600
C 	C 	0.13967 0.21806 0.43539 -0.00200
C 	C 	0.10721 0.22581 0.46148 -0.05000
C 	C 	0.07167 0.21383 0.44467 0.00500
C 	C 	0.06883 0.19989 0.39794 0.01000
C 	C 	0.10161 0.19187 0.37228 -0.01500
C 	C 	0.03336 0.19401 0.37750 -0.04000
C 	C 	0.00071 0.20134 0.40320 -0.04000
C 	C 	0.00296 0.21224 0.45074 0.01000
C 	C 	0.03857 0.21666 0.47262 0.00600
C 	C 	0.04019 0.22108 0.52213 -0.05200
C 	C 	0.00717 0.22605 0.54810 0.00300
C 	C 	0.97208 0.22592 0.52542 -0.06700
C 	C 	0.96998 0.21789 0.47703 -0.01800
H 	H 	0.16696 0.22569 0.44958 0.03400
H 	H 	0.10978 0.24205 0.49370 0.04000
H 	H 	0.09965 0.17879 0.33769 0.04200
H 	H 	0.03105 0.18417 0.34136 0.04000
H 	H 	0.97354 0.19754 0.38645 0.04000
H 	H 	0.06660 0.21916 0.54089 0.04100
H 	H 	0.00896 0.23069 0.58583 0.03700
H 	H 	0.94273 0.21630 0.45985 0.04300
C 	C 	0.22746 0.30396 0.00776 -0.06500
C 	C 	0.19542 0.30319 0.03671 0.00300
C 	C 	0.19556 0.28247 0.07893 -0.05000
C 	C 	0.22739 0.26067 0.09160 0.00400
C 	C 	0.26074 0.26459 0.06455 0.01100
C 	C 	0.26045 0.28598 0.02287 -0.01900
C 	C 	0.29406 0.24706 0.07927 -0.04200
C 	C 	0.29479 0.22558 0.12047 -0.03900
C 	C 	0.26194 0.22015 0.14701 0.00700
C 	C 	0.22744 0.23611 0.13171 0.00700
C 	C 	0.19394 0.22567 0.15548 -0.05300
C 	C 	0.19560 0.20443 0.19720 0.00600
C 	C 	0.23032 0.19197 0.21470 -0.07700
C 	C 	0.26316 0.19856 0.18856 -0.01400
H 	H 	0.17020 0.31819 0.02631 0.04000
H 	H 	0.17157 0.28470 0.10215 0.04200
H 	H 	0.28561 0.28764 0.00132 0.04200
H 	H 	0.31967 0.25034 0.05884 0.03900
H 	H 	0.32092 0.21247 0.13133 0.03700
H 	H 	0.16665 0.23253 0.14113 0.04300
H 	H 	0.16989 0.19825 0.21633 0.03900
H 	H 	0.28979 0.18739 0.20102 0.04200
C 	C 	0.26839 0.32228 0.71505 -0.07700
C 	C 	0.30265 0.30626 0.70105 0.00600
C 	C 	0.30452 0.28334 0.66081 -0.05300
C 	C 	0.27218 0.27746 0.63254 0.00600
C 	C 	0.23744 0.29311 0.64752 0.00700
C 	C 	0.23612 0.31644 0.68759 -0.01500
C 	C 	0.20405 0.28363 0.62397 -0.04000
C 	C 	0.20441 0.25796 0.58667 -0.04100
C 	C 	0.23851 0.24344 0.56979 0.01000
C 	C 	0.27298 0.25440 0.59112 0.00500
C 	C 	0.30713 0.24407 0.56890 -0.05100
C 	C 	0.30675 0.22136 0.52841 0.00400
C 	C 	0.27256 0.20981 0.50830 -0.06700
C 	C 	0.23862 0.21987 0.52992 -0.01800
H 	H 	0.32742 0.30960 0.72297 0.03900
H 	H 	0.33032 0.26822 0.65404 0.04300
H 	H 	0.20952 0.32851 0.69879 0.04300
H 	H 	0.17748 0.29556 0.63534 0.03700
H 	H 	0.17809 0.25019 0.56985 0.03700
H 	H 	0.33372 0.25567 0.58046 0.04300
H 	H 	0.33308 0.21471 0.51104 0.04000
H 	H 	0.21219 0.21095 0.51424 0.03900
C 	C 	0.31058 0.86367 0.16945 -0.06500
C 	C 	0.29352 0.86258 0.21400 -0.00200
C 	C 	0.28786 0.89611 0.23935 -0.04900
C 	C 	0.30045 0.93115 0.22076 0.00500
C 	C 	0.31296 0.93249 0.17330 0.01000
C 	C 	0.31852 0.89868 0.14823 -0.01600
C 	C 	0.31991 0.96751 0.15150 -0.04000
C 	C 	0.31505 0.00120 0.17645 -0.04000
C 	C 	0.30532 0.00041 0.22442 0.00900
C 	C 	0.29966 0.96524 0.24766 0.00600
C 	C 	0.29575 0.96496 0.29731 -0.05300
C 	C 	0.29242 0.99904 0.32213 0.00500
C 	C 	0.29423 0.03383 0.29821 -0.07400
C 	C 	0.30185 0.03444 0.24968 -0.01500
H 	H 	0.28567 0.83565 0.22964 0.03500
H 	H 	0.27270 0.89475 0.27239 0.04100
H 	H 	0.33023 0.89950 0.11285 0.04300
H 	H 	0.32873 0.96868 0.11489 0.04000
H 	H 	0.31974 0.02802 0.15867 0.04100
H 	H 	0.29672 0.93875 0.31704 0.04200
H 	H 	0.28766 0.99832 0.35990 0.04100
H 	H 	0.30462 0.06141 0.23150 0.04600
C 	C 	0.31940 0.63441 0.10383 -0.07400
C 	C 	0.28854 0.61141 0.11531 0.00600
C 	C 	0.28033 0.57921 0.08836 -0.05300
C 	C 	0.30210 0.57049 0.04793 0.00700
C 	C 	0.33414 0.59308 0.03766 0.00800
C 	C 	0.34175 0.62552 0.06463 -0.01200
C 	C 	0.35926 0.58201 0.00210 -0.03700
C 	C 	0.35345 0.54840 0.97727 -0.04200
C 	C 	0.32112 0.52647 0.98532 0.00900
C 	C 	0.29411 0.53837 0.01906 0.00500
C 	C 	0.25919 0.51924 0.02118 -0.05200
C 	C 	0.25309 0.48662 0.99435 0.00400
C 	C 	0.28087 0.47339 0.96328 -0.06800
C 	C 	0.31477 0.49348 0.95865 -0.01800
H 	H 	0.27195 0.61741 0.14650 0.03700
H 	H 	0.25880 0.56003 0.10095 0.04300
H 	H 	0.36588 0.64321 0.05611 0.04700
H 	H 	0.38401 0.59902 0.99453 0.03900
H 	H 	0.37384 0.53978 0.95093 0.04000
H 	H 	0.23590 0.53066 0.04107 0.04200
H 	H 	0.22602 0.47247 0.99630 0.03300
H 	H 	0.33590 0.48384 0.93379 0.04300
C 	C 	0.18567 0.87959 0.60448 -0.07300
C 	C 	0.17682 0.87820 0.55634 0.00600
C 	C 	0.18403 0.90936 0.52726 -0.05200
C 	C 	0.19822 0.94338 0.54673 0.00700
C 	C 	0.21062 0.94336 0.59431 0.00800
C 	C 	0.20376 0.91159 0.62310 -0.01400
C 	C 	0.22984 0.97492 0.61250 -0.03900
C 	C 	0.23684 0.00646 0.58406 -0.04100
C 	C 	0.22295 0.00790 0.53773 0.01100
C 	C 	0.20183 0.97712 0.51944 0.00400
C 	C 	0.18323 0.98164 0.47571 -0.05100
C 	C 	0.19013 0.01366 0.44788 0.00100
C 	C 	0.21445 0.04237 0.46386 -0.06500
C 	C 	0.22949 0.04010 0.50970 -0.02100
H 	H 	0.16377 0.85307 0.54152 0.04100
H 	H 	0.17973 0.90637 0.48968 0.04200
H 	H 	0.21142 0.91222 0.66017 0.04100
H 	H 	0.23989 0.97481 0.64862 0.03900
H 	H 	0.25258 0.03018 0.59841 0.04000
H 	H 	0.16228 0.96146 0.46400 0.04200
H 	H 	0.17645 0.01608 0.41386 0.03900
H 	H 	0.24662 0.06312 0.52337 0.04700
C 	C 	0.18501 0.78060 0.79848 -0.06700
C 	C 	0.19010 0.74485 0.81895 0.00300
C 	C 	0.21151 0.74078 0.85991 -0.05100
C 	C 	0.22643 0.77304 0.88308 0.00500
C 	C 	0.22072 0.80933 0.86266 0.01000
C 	C 	0.19905 0.81293 0.82135 -0.01700
C 	C 	0.23884 0.84124 0.88169 -0.04000
C 	C 	0.26378 0.83745 0.91938 -0.04000
C 	C 	0.26951 0.80201 0.94058 0.00900
C 	C 	0.24931 0.76982 0.92430 0.00600
C 	C 	0.25156 0.73575 0.95038 -0.05200
C 	C 	0.27684 0.73249 0.98782 0.00200
C 	C 	0.29823 0.76384 0.00259 -0.07300
C 	C 	0.29438 0.79864 0.97899 -0.01700
H 	H 	0.17963 0.71973 0.80117 0.03100
H 	H 	0.21863 0.71245 0.87109 0.04100
H 	H 	0.19552 0.84058 0.80515 0.04600
H 	H 	0.23455 0.86900 0.86619 0.04000
H 	H 	0.27846 0.86231 0.93246 0.04000
H 	H 	0.23239 0.71252 0.94389 0.04200
H 	H 	0.27875 0.70576 0.00653 0.04100
H 	H 	0.30983 0.82331 0.99129 0.04700
C 	C 	0.19831 0.75143 0.50289 -0.07600
C 	C 	0.21936 0.78289 0.48766 0.00400
C 	C 	0.24403 0.77981 0.44959 -0.05300
C 	C 	0.24607 0.74578 0.42346 0.00700
C 	C 	0.22626 0.71347 0.44017 0.00800
C 	C 	0.20189 0.71670 0.47913 -0.01500
C 	C 	0.23200 0.67806 0.41891 -0.03900
C 	C 	0.25672 0.67440 0.38093 -0.04000
C 	C 	0.27452 0.70642 0.36165 0.01000
C 	C 	0.26853 0.74269 0.38189 0.00500
C 	C 	0.28279 0.77505 0.35829 -0.05100
C 	C 	0.30416 0.77110 0.31727 0.00300
C 	C 	0.30991 0.73531 0.29727 -0.06700
C 	C 	0.29618 0.70291 0.32032 -0.01700
H 	H 	0.21774 0.80953 0.50657 0.03800
H 	H 	0.26300 0.80314 0.44266 0.04200
H 	H 	0.18675 0.69195 0.49182 0.04600
H 	H 	0.21759 0.65311 0.43223 0.04000
H 	H 	0.26111 0.64665 0.36546 0.04000
H 	H 	0.27520 0.80332 0.36923 0.04100
H 	H 	0.31417 0.79627 0.29919 0.03100
H 	H 	0.30007 0.67524 0.30433 0.04600
C 	C 	0.20528 0.48064 0.79946 -0.07400
C 	C 	0.19571 0.47868 0.75156 0.00600
C 	C 	0.19157 0.51169 0.72494 -0.05200
C 	C 	0.19466 0.54767 0.74661 0.00700
C 	C 	0.20555 0.54964 0.79472 0.00800
C 	C 	0.20970 0.51614 0.82115 -0.01600
C 	C 	0.21406 0.58484 0.81523 -0.04000
C 	C 	0.21224 0.61804 0.78854 -0.04100
C 	C 	0.19968 0.61700 0.74162 0.01100
C 	C 	0.18917 0.58194 0.72081 0.00500
C 	C 	0.17141 0.58223 0.67617 -0.05100
C 	C 	0.16710 0.61615 0.65144 0.00500
C 	C 	0.17834 0.65063 0.67156 -0.06500
C 	C 	0.19538 0.65095 0.71614 -0.02300
H 	H 	0.19334 0.45137 0.73426 0.04000
H 	H 	0.18862 0.50897 0.68716 0.04400
H 	H 	0.21832 0.51768 0.85786 0.04600
H 	H 	0.22293 0.58643 0.85179 0.03900
H 	H 	0.21972 0.64484 0.80483 0.03800
H 	H 	0.15846 0.55698 0.66190 0.04300
H 	H 	0.15303 0.61584 0.61750 0.03800
H 	H 	0.20332 0.67778 0.73209 0.04100
C 	C 	0.62524 0.67612 0.92155 -0.07300
C 	C 	0.59124 0.65871 0.90882 0.00900
C 	C 	0.55958 0.66196 0.93766 -0.05300
C 	C 	0.56101 0.68418 0.97912 0.00600
C 	C 	0.59596 0.70014 0.99312 0.00800
C 	C 	0.62741 0.69732 0.96326 -0.01500
C 	C 	0.59966 0.71684 0.03780 -0.04000
C 	C 	0.56920 0.71769 0.06882 -0.04000
C 	C 	0.53378 0.70428 0.05455 0.00700
C 	C 	0.52893 0.68901 0.00865 0.00800
C 	C 	0.49206 0.68131 0.99242 -0.05500
C 	C 	0.46126 0.68594 0.02246 0.00700
C 	C 	0.46630 0.69980 0.06836 -0.07500
C 	C 	0.50265 0.70803 0.08472 -0.01500
H 	H 	0.58975 0.64128 0.87737 0.03500
H 	H 	0.53508 0.64506 0.92924 0.04300
H 	H 	0.65402 0.70997 0.97364 0.04100
H 	H 	0.62653 0.72834 0.04906 0.03700
H 	H 	0.57292 0.72979 0.10369 0.03700
H 	H 	0.48672 0.67438 0.95589 0.04300
H 	H 	0.43316 0.68036 0.00925 0.03600
H 	H 	0.50648 0.71941 0.11997 0.04500
C 	C 	0.85307 0.70361 0.84748 -0.06600
C 	C 	0.88642 0.70943 0.87280 0.00700
C 	C 	0.91977 0.71844 0.84911 -0.05100
C 	C 	0.92045 0.71972 0.79925 0.00600
C 	C 	0.88582 0.71857 0.77447 0.01100
C 	C 	0.85237 0.71013 0.79875 -0.02100
C 	C 	0.88503 0.72548 0.72576 -0.04100
C 	C 	0.91830 0.73233 0.70108 -0.04000
C 	C 	0.95315 0.73067 0.72423 0.00900
C 	C 	0.95468 0.72306 0.77335 0.00600
C 	C 	0.99014 0.71676 0.79456 -0.05100
C 	C 	0.02320 0.72280 0.76887 0.00300
C 	C 	0.02156 0.73322 0.72120 -0.06700
C 	C 	0.98657 0.73594 0.69860 -0.01800
H 	H 	0.88670 0.70610 0.91083 0.03500
H 	H 	0.94442 0.72551 0.86968 0.04300
H 	H 	0.82616 0.70700 0.77951 0.03800
H 	H 	0.85848 0.72586 0.70699 0.03800
H 	H 	0.91703 0.73817 0.66353 0.03700
H 	H 	0.99235 0.70570 0.83001 0.04300
H 	H 	0.05019 0.71916 0.78606 0.03600
H 	H 	0.98533 0.74283 0.66132 0.04400
C 	C 	0.78630 0.53809 0.78461 -0.06700
C 	C 	0.78745 0.54221 0.73539 0.00300
C 	C 	0.79311 0.51068 0.70642 -0.05100
C 	C 	0.79638 0.47413 0.72640 0.00500
C 	C 	0.79907 0.47067 0.77614 0.00900
C 	C 	0.79332 0.50251 0.80491 -0.01800
C 	C 	0.80808 0.43562 0.79655 -0.04100
C 	C 	0.81529 0.40421 0.76814 -0.04100
C 	C 	0.81125 0.40665 0.71901 0.00900
C 	C 	0.79933 0.44101 0.69796 0.00700
C 	C 	0.78918 0.44090 0.64970 -0.05300
C 	C 	0.79617 0.40896 0.62185 0.00800
C 	C 	0.81212 0.37650 0.64192 -0.07400
C 	C 	0.81868 0.37499 0.69061 -0.01500
H 	H 	0.78385 0.56992 0.71951 0.03700
H 	H 	0.79650 0.51513 0.66890 0.04300
H 	H 	0.79349 0.49941 0.84301 0.04400
H 	H 	0.81034 0.43291 0.83457 0.03800
H 	H 	0.82345 0.37767 0.78448 0.04000
H 	H 	0.77466 0.46467 0.63405 0.04300
H 	H 	0.78979 0.40971 0.58446 0.03500
H 	H 	0.83032 0.34948 0.70619 0.04700
C 	C 	0.70739 0.52859 0.94805 -0.07500
C 	C 	0.68918 0.52989 0.99182 0.00600
C 	C 	0.68384 0.49675 0.01804 -0.05200
C 	C 	0.69878 0.46195 0.00193 0.00800
C 	C 	0.71479 0.46034 0.95611 0.00600
C 	C 	0.71937 0.49375 0.92973 -0.01500
C 	C 	0.72538 0.42535 0.93678 -0.03900
C 	C 	0.71958 0.39184 0.96194 -0.04300
C 	C 	0.70492 0.39287 0.00787 0.01300
C 	C 	0.69632 0.42813 0.02928 0.00500
C 	C 	0.68661 0.42869 0.07766 -0.05100
C 	C 	0.67939 0.39479 0.10154 0.00600
C 	C 	0.68405 0.35996 0.07861 -0.06600
C 	C 	0.69861 0.35897 0.03273 -0.02300
H 	H 	0.67870 0.55659 0.00533 0.03900
H 	H 	0.66670 0.49812 0.04949 0.04400
H 	H 	0.73278 0.49274 0.89534 0.04300
H 	H 	0.73744 0.42401 0.90165 0.03800
H 	H 	0.72679 0.36497 0.94575 0.03800
H 	H 	0.68593 0.45491 0.09734 0.04300
H 	H 	0.66992 0.39560 0.13789 0.03700
H 	H 	0.70384 0.33189 0.01589 0.04100
C 	C 	0.47382 0.78784 0.22262 -0.06700
C 	C 	0.47293 0.79537 0.27118 0.00300
C 	C 	0.50638 0.79987 0.29652 -0.05100
C 	C 	0.54149 0.79509 0.27384 0.00600
C 	C 	0.54227 0.79096 0.22406 0.00900
C 	C 	0.50846 0.78701 0.19887 -0.01800
C 	C 	0.57673 0.79143 0.19990 -0.04100
C 	C 	0.61036 0.79668 0.22440 -0.04100
C 	C 	0.61034 0.79962 0.27375 0.01100
C 	C 	0.57610 0.79654 0.29915 0.00600
C 	C 	0.57753 0.79396 0.34892 -0.05100
C 	C 	0.61130 0.80091 0.37275 0.00700
C 	C 	0.64430 0.80851 0.34739 -0.06700
C 	C 	0.64417 0.80598 0.29810 -0.02000
H 	H 	0.44622 0.79774 0.28938 0.03700
H 	H 	0.50472 0.80858 0.33302 0.04300
H 	H 	0.50916 0.78242 0.16102 0.04400
H 	H 	0.57740 0.78857 0.16181 0.03700
H 	H 	0.63659 0.79819 0.20492 0.03700
H 	H 	0.55313 0.78550 0.36917 0.04300
H 	H 	0.61161 0.80128 0.41099 0.03600
H 	H 	0.67006 0.81063 0.27869 0.03700
C 	C 	0.87377 0.82551 0.41611 -0.07300
C 	C 	0.87161 0.80436 0.45787 0.00700
C 	C 	0.90290 0.80152 0.48756 -0.05200
C 	C 	0.93675 0.82046 0.47590 0.00700
C 	C 	0.94024 0.83726 0.43070 0.00800
C 	C 	0.90844 0.84066 0.40165 -0.01200
C 	C 	0.97546 0.85011 0.41491 -0.03900
C 	C 	0.00718 0.84648 0.44356 -0.04000
C 	C 	0.00376 0.83243 0.48970 0.00900
C 	C 	0.96800 0.82143 0.50723 0.00600
C 	C 	0.96398 0.81414 0.55599 -0.05300
C 	C 	0.99569 0.81259 0.58504 0.00500
C 	C 	0.03172 0.81870 0.56618 -0.07500
C 	C 	0.03558 0.82989 0.51892 -0.01600
H 	H 	0.84541 0.79087 0.46793 0.03400
H 	H 	0.90103 0.78355 0.51842 0.04100
H 	H 	0.91045 0.85565 0.36827 0.04000
H 	H 	0.97842 0.86231 0.37997 0.03900
H 	H 	0.03437 0.85548 0.43021 0.04000
H 	H 	0.93647 0.81113 0.57189 0.04200
H 	H 	0.99229 0.80576 0.62208 0.04000
H 	H 	0.06330 0.83617 0.50482 0.04300
C 	C 	0.77488 0.80876 0.22955 -0.06700
C 	C 	0.74077 0.80702 0.20490 0.00300
C 	C 	0.73805 0.78631 0.16302 -0.05100
C 	C 	0.76942 0.76595 0.14605 0.00500
C 	C 	0.80491 0.77192 0.16759 0.01000
C 	C 	0.80731 0.79270 0.20982 -0.01600
C 	C 	0.83751 0.75716 0.14669 -0.04000
C 	C 	0.83518 0.73632 0.10489 -0.03900
C 	C 	0.80001 0.72779 0.08495 0.00800
C 	C 	0.76664 0.74090 0.10684 0.00700
C 	C 	0.73163 0.72677 0.09099 -0.05400
C 	C 	0.72969 0.70440 0.05042 0.00600
C 	C 	0.76254 0.69481 0.02576 -0.07600
C 	C 	0.79775 0.70558 0.04384 -0.01500
H 	H 	0.71623 0.82155 0.21838 0.02800
H 	H 	0.71208 0.78741 0.14320 0.04000
H 	H 	0.83403 0.79522 0.22812 0.04600
H 	H 	0.86483 0.76230 0.16249 0.04000
H 	H 	0.86077 0.72598 0.08861 0.04000
H 	H 	0.70614 0.73154 0.11093 0.04200
H 	H 	0.70254 0.69440 0.03817 0.03700
H 	H 	0.82327 0.69729 0.02558 0.04600
C 	C 	0.73696 0.80788 0.52385 -0.07500
C 	C 	0.70496 0.81201 0.55246 0.00600
C 	C 	0.70094 0.79052 0.59370 -0.05300
C 	C 	0.72837 0.76330 0.60609 0.00600
C 	C 	0.76187 0.76128 0.57908 0.00700
C 	C 	0.76563 0.78299 0.53786 -0.01700
C 	C 	0.79172 0.73834 0.59413 -0.04000
C 	C 	0.78912 0.71810 0.63624 -0.04200
C 	C 	0.75599 0.71900 0.66302 0.01000
C 	C 	0.72442 0.73963 0.64663 0.00500
C 	C 	0.68960 0.73494 0.67013 -0.05100
C 	C 	0.68790 0.71516 0.71289 0.00500
C 	C 	0.72037 0.69863 0.73179 -0.06700
C 	C 	0.75395 0.69929 0.70600 -0.01900
H 	H 	0.68324 0.83210 0.54305 0.04000
H 	H 	0.67751 0.79653 0.61678 0.04300
H 	H 	0.79095 0.78056 0.51679 0.04200
H 	H 	0.81742 0.73684 0.57360 0.03700
H 	H 	0.81281 0.70118 0.64774 0.03700
H 	H 	0.66371 0.74515 0.65479 0.04300
H 	H 	0.66145 0.71338 0.73182 0.03900
H 	H 	0.77863 0.68502 0.71976 0.03500
C 	C 	0.79565 0.97692 0.44853 -0.07400
C 	C 	0.79435 0.01180 0.42473 0.00500
C 	C 	0.79745 0.04580 0.44972 -0.05300
C 	C 	0.80101 0.04539 0.49937 0.00600
C 	C 	0.80632 0.01020 0.52257 0.00900
C 	C 	0.80262 0.97618 0.49723 -0.01600
C 	C 	0.81627 0.00940 0.57048 -0.04000
C 	C 	0.82180 0.04312 0.59528 -0.04000
C 	C 	0.81507 0.07815 0.57349 0.01000
C 	C 	0.80211 0.07943 0.52625 0.00500
C 	C 	0.78931 0.11435 0.50786 -0.05000
C 	C 	0.79509 0.14789 0.53317 -0.00200
C 	C 	0.81267 0.14695 0.57737 -0.06600
C 	C 	0.82110 0.11201 0.59837 -0.01500
H 	H 	0.79047 0.01265 0.38682 0.03900
H 	H 	0.79871 0.07207 0.43012 0.04100
H 	H 	0.80516 0.94919 0.51534 0.04600
H 	H 	0.82074 0.98257 0.58825 0.04100
H 	H 	0.83090 0.04197 0.63177 0.04000
H 	H 	0.77386 0.11558 0.47503 0.04100
H 	H 	0.78675 0.17473 0.51785 0.03500
H 	H 	0.83318 0.11128 0.63354 0.04300
C 	C 	0.71420 0.97110 0.28877 -0.06700
C 	C 	0.71861 0.00800 0.30640 0.00400
C 	C 	0.71300 0.03929 0.27707 -0.05100
C 	C 	0.70339 0.03399 0.22917 0.00500
C 	C 	0.69469 0.99693 0.21308 0.01000
C 	C 	0.70148 0.96560 0.24245 -0.01800
C 	C 	0.67836 0.99174 0.16846 -0.04100
C 	C 	0.67001 0.02296 0.14008 -0.03900
C 	C 	0.68042 0.05962 0.15434 0.00800
C 	C 	0.69964 0.06505 0.19759 0.00700
C 	C 	0.71617 0.10075 0.20698 -0.05300
C 	C 	0.70878 0.13157 0.17743 0.00700
C 	C 	0.68530 0.12716 0.13809 -0.07300
C 	C 	0.67228 0.09096 0.12559 -0.01100
H 	H 	0.72709 0.01245 0.34271 0.03800
H 	H 	0.71460 0.06737 0.29226 0.04100
H 	H 	0.69686 0.93704 0.22937 0.04100
H 	H 	0.67113 0.96351 0.15625 0.04000
H 	H 	0.65604 0.01855 0.10651 0.03900
H 	H 	0.73576 0.10446 0.23583 0.04100
H 	H 	0.72072 0.15907 0.18567 0.03500
H 	H 	0.65554 0.08730 0.09388 0.04000
