data_crystal

_cell_length_a 34.76910
_cell_length_b 34.86994
_cell_length_c 20.99885
_cell_angle_alpha 91.30537
_cell_angle_beta  90.06684
_cell_angle_gamma 90.02023

_symmetry_space_group_name_	'P 1'
_symmetry_space_group_name_H-M	'P 1'

loop_
_symmetry_equiv_pos_as_xyz
  x,y,z

loop_
_atom_site_label
_atom_site_type_symbol
_atom_site_fract_x
_atom_site_fract_y
_atom_site_fract_z
_atom_site_charge
Cd	Cd	0.92257 0.87397 0.26909 1.24100
Cd	Cd	0.94361 0.94765 0.38246 1.15100
O 	O 	0.87845 0.82391 0.30538 -0.31500
O 	O 	0.90330 0.82175 0.20993 -0.35800
C 	C 	0.88470 0.80355 0.25399 0.29600
O 	O 	0.95520 0.91783 0.21287 -0.38200
O 	O 	0.98543 0.94406 0.30077 -0.47600
C 	C 	0.97569 0.94576 0.24020 0.27200
C 	C 	0.86771 0.93235 0.29249 0.30000
O 	O 	0.95139 0.88146 0.38506 -0.45600
O 	O 	0.85789 0.91261 0.24127 -0.29700
O 	O 	0.89608 0.91880 0.32464 -0.55800
C 	C 	0.98078 0.86131 0.36508 0.28600
O 	O 	0.97915 0.84915 0.30604 -0.36800
Cd	Cd	0.01431 0.87656 0.04103 1.23800
Cd	Cd	0.04337 0.90588 0.88716 1.15800
O 	O 	0.97534 0.81859 0.03753 -0.32300
O 	O 	0.99601 0.84248 0.12885 -0.35500
C 	C 	0.97697 0.81532 0.09870 0.29000
O 	O 	0.05511 0.92637 0.05978 -0.39400
O 	O 	0.04514 0.95301 0.96198 -0.48300
C 	C 	0.06437 0.95172 0.01603 0.28500
C 	C 	0.07612 0.83763 0.97950 0.28400
O 	O 	0.98330 0.89429 0.93138 -0.45100
O 	O 	0.07519 0.82975 0.03986 -0.31100
O 	O 	0.04817 0.85864 0.95936 -0.55500
C 	C 	0.96115 0.91817 0.96281 0.27800
O 	O 	0.96419 0.91819 0.02476 -0.35300
C 	C 	0.97724 0.66834 0.04408 0.14900
N 	N 	0.95975 0.67026 0.98612 -0.14100
C 	C 	0.97209 0.64777 0.93657 0.13500
N 	N 	0.00109 0.62248 0.94545 -0.15400
C 	C 	0.01805 0.61982 0.00341 0.13400
N 	N 	0.00588 0.64246 0.05276 -0.14900
C 	C 	0.91304 0.66066 0.36438 0.13500
N 	N 	0.92899 0.62786 0.34038 -0.13700
C 	C 	0.94064 0.59991 0.38010 0.13100
N 	N 	0.93697 0.60527 0.44409 -0.14400
C 	C 	0.92314 0.63891 0.46850 0.12900
N 	N 	0.91054 0.66635 0.42855 -0.14200
Cd	Cd	0.95784 0.07256 0.72627 1.24000
Cd	Cd	0.00376 0.03798 0.86576 1.17500
O 	O 	0.92286 0.13323 0.74114 -0.32600
O 	O 	0.92439 0.10306 0.64886 -0.34800
C 	C 	0.90880 0.13018 0.68402 0.28300
O 	O 	0.99403 0.02356 0.68814 -0.37200
O 	O 	0.00019 0.99477 0.78439 -0.44400
C 	C 	0.01366 0.00148 0.72698 0.26000
C 	C 	0.02907 0.10539 0.76599 0.29800
O 	O 	0.94084 0.05274 0.84181 -0.46200
O 	O 	0.01980 0.11668 0.70888 -0.31000
O 	O 	0.00236 0.08739 0.79613 -0.53400
C 	C 	0.91512 0.02932 0.81847 0.29400
O 	O 	0.91017 0.03022 0.75698 -0.37000
Cd	Cd	0.88059 0.13851 0.47377 1.24200
Cd	Cd	0.92446 0.09354 0.33812 1.15000
O 	O 	0.82219 0.17409 0.44868 -0.32600
O 	O 	0.84035 0.16676 0.54791 -0.34400
C 	C 	0.81574 0.18134 0.50845 0.29000
O 	O 	0.92861 0.10211 0.51378 -0.36600
O 	O 	0.96428 0.10148 0.42164 -0.47200
C 	C 	0.95796 0.08878 0.47933 0.26700
C 	C 	0.84965 0.06871 0.42410 0.29600
O 	O 	0.90909 0.15700 0.36279 -0.45900
O 	O 	0.83458 0.07723 0.47951 -0.29800
O 	O 	0.87102 0.09510 0.40007 -0.55300
C 	C 	0.93040 0.18214 0.39331 0.29500
O 	O 	0.92357 0.18684 0.45395 -0.36800
C 	C 	0.75696 0.15303 0.75760 0.13600
N 	N 	0.75593 0.17472 0.81236 -0.14100
C 	C 	0.72563 0.17198 0.85288 0.12600
N 	N 	0.69684 0.14680 0.83942 -0.14400
C 	C 	0.69799 0.12454 0.78562 0.12800
N 	N 	0.72785 0.12797 0.74451 -0.14100
C 	C 	0.68049 0.21440 0.42010 0.13700
N 	N 	0.69403 0.22053 0.36040 -0.13400
C 	C 	0.67122 0.21375 0.30883 0.13000
N 	N 	0.63450 0.20167 0.31711 -0.14300
C 	C 	0.62096 0.19498 0.37648 0.12800
N 	N 	0.64401 0.20147 0.42786 -0.14500
Cd	Cd	0.10367 0.14925 0.16759 1.24300
Cd	Cd	0.06899 0.11133 0.31397 1.15800
O 	O 	0.16042 0.18942 0.18479 -0.32500
O 	O 	0.13556 0.18165 0.08971 -0.34300
C 	C 	0.15964 0.20066 0.12648 0.29100
O 	O 	0.05986 0.10430 0.13745 -0.38800
O 	O 	0.02760 0.10772 0.23249 -0.47500
C 	C 	0.03607 0.08899 0.17932 0.28600
C 	C 	0.14290 0.08737 0.22340 0.29800
O 	O 	0.07701 0.17328 0.27878 -0.45900
O 	O 	0.15606 0.09256 0.16586 -0.29300
O 	O 	0.11898 0.11303 0.24425 -0.55200
C 	C 	0.05212 0.19360 0.24763 0.30000
O 	O 	0.05599 0.19381 0.18600 -0.36600
Cd	Cd	0.22848 0.14267 0.97646 1.23800
Cd	Cd	0.20799 0.07762 0.84748 1.16600
O 	O 	0.26290 0.20029 0.94404 -0.32000
O 	O 	0.23855 0.19612 0.03954 -0.35000
C 	C 	0.25513 0.21770 0.99759 0.28700
O 	O 	0.18926 0.09746 0.01911 -0.35900
O 	O 	0.20378 0.05074 0.94388 -0.43900
C 	C 	0.18216 0.06347 0.99144 0.26600
C 	C 	0.16585 0.15798 0.89366 0.31600
O 	O 	0.26458 0.10357 0.88780 -0.46100
O 	O 	0.16428 0.17972 0.94491 -0.30100
O 	O 	0.19698 0.13789 0.88738 -0.54500
C 	C 	0.28631 0.08904 0.93159 0.30300
O 	O 	0.28181 0.10337 0.98913 -0.36900
C 	C 	0.23036 0.36178 0.89458 0.13900
N 	N 	0.21711 0.39553 0.91924 -0.14400
C 	C 	0.20824 0.42473 0.88021 0.13000
N 	N 	0.21307 0.42016 0.81634 -0.14400
C 	C 	0.22508 0.38604 0.79107 0.12800
N 	N 	0.23334 0.35666 0.83035 -0.14000
C 	C 	0.16478 0.34658 0.21790 0.13500
N 	N 	0.13715 0.37372 0.21008 -0.14500
C 	C 	0.12769 0.39803 0.25905 0.12900
N 	N 	0.14565 0.39503 0.31611 -0.14400
C 	C 	0.17303 0.36795 0.32447 0.12900
N 	N 	0.18299 0.34411 0.27514 -0.14200
Cd	Cd	0.23796 0.88775 0.75158 1.24400
Cd	Cd	0.18443 0.91410 0.88883 1.15400
O 	O 	0.29421 0.84747 0.77160 -0.32400
O 	O 	0.27986 0.86523 0.67533 -0.34600
C 	C 	0.30491 0.84918 0.71263 0.29200
O 	O 	0.18381 0.91397 0.71231 -0.37700
O 	O 	0.16978 0.94902 0.80306 -0.46700
C 	C 	0.15919 0.93434 0.74732 0.28000
C 	C 	0.18961 0.83278 0.80728 0.30800
O 	O 	0.24853 0.92454 0.86167 -0.45300
O 	O 	0.19976 0.82060 0.75041 -0.30000
O 	O 	0.20594 0.86392 0.82789 -0.55900
C 	C 	0.26320 0.95274 0.82984 0.27400
O 	O 	0.26472 0.94733 0.76828 -0.36000
Cd	Cd	0.15435 0.93427 0.52306 1.24000
Cd	Cd	0.09476 0.93273 0.38320 1.16400
O 	O 	0.21640 0.90340 0.50418 -0.32500
O 	O 	0.20578 0.93698 0.59180 -0.34900
C 	C 	0.23044 0.91785 0.55657 0.28600
O 	O 	0.10307 0.97215 0.54858 -0.38100
O 	O 	0.06242 0.94500 0.47382 -0.45600
C 	C 	0.07098 0.97326 0.51405 0.28500
C 	C 	0.16738 0.98878 0.42758 0.31800
O 	O 	0.12372 0.88508 0.44231 -0.45700
O 	O 	0.18736 0.99681 0.47861 -0.31800
O 	O 	0.15047 0.95566 0.42655 -0.54800
C 	C 	0.10917 0.86731 0.49062 0.30400
O 	O 	0.12020 0.87959 0.54689 -0.36600
C 	C 	0.44946 0.87808 0.79687 0.13600
N 	N 	0.47951 0.90003 0.77812 -0.14300
C 	C 	0.50334 0.91651 0.82214 0.12900
N 	N 	0.49682 0.91123 0.88506 -0.14400
C 	C 	0.46625 0.89025 0.90424 0.13000
N 	N 	0.44271 0.87355 0.86002 -0.14400
C 	C 	0.37250 0.95534 0.45626 0.13600
N 	N 	0.39383 0.98736 0.46835 -0.14600
C 	C 	0.41971 0.99939 0.42481 0.13600
N 	N 	0.42480 0.97910 0.36961 -0.14400
C 	C 	0.40406 0.94677 0.35769 0.12900
N 	N 	0.37746 0.93524 0.40052 -0.13400
C 	C 	0.45407 0.89274 0.97153 -0.05900
C 	C 	0.44977 0.85955 0.00859 0.11700
C 	C 	0.43787 0.86349 0.07240 -0.09000
C 	C 	0.43146 0.89990 0.10021 -0.00500
C 	C 	0.43602 0.93307 0.06320 0.07900
C 	C 	0.44675 0.92905 0.99902 -0.05900
N 	N 	0.45796 0.82405 0.98396 -0.21000
H 	H 	0.43451 0.83819 0.10097 0.05700
C 	C 	0.42228 0.90311 0.16909 -0.00500
N 	N 	0.43047 0.96881 0.08903 -0.19500
H 	H 	0.44976 0.95438 0.97040 0.04900
C 	C 	0.45243 0.90218 0.21341 -0.08600
C 	C 	0.44605 0.91248 0.27755 0.10300
C 	C 	0.40919 0.92538 0.29687 -0.04700
C 	C 	0.37828 0.92268 0.25399 -0.05200
C 	C 	0.38440 0.91113 0.19023 0.07000
H 	H 	0.48113 0.89441 0.19762 0.05600
N 	N 	0.47520 0.90954 0.32040 -0.19900
H 	H 	0.34972 0.93119 0.26948 0.05100
N 	N 	0.35407 0.90861 0.14939 -0.19400
H 	H 	0.50275 0.90150 0.30539 0.08800
H 	H 	0.47041 0.91350 0.36919 0.09500
H 	H 	0.32639 0.91590 0.16480 0.08000
H 	H 	0.35746 0.89843 0.10259 0.08700
H 	H 	0.43333 0.99302 0.06098 0.08800
H 	H 	0.42376 0.97306 0.13708 0.09100
H 	H 	0.46950 0.82026 0.93840 0.09400
H 	H 	0.45380 0.79970 0.01126 0.09200
C 	C 	0.27200 0.92543 0.56017 -0.09700
C 	C 	0.29700 0.89639 0.53819 -0.04100
C 	C 	0.33146 0.90578 0.50792 0.14000
C 	C 	0.34148 0.94455 0.50051 -0.04900
C 	C 	0.31974 0.97315 0.53206 -0.08300
C 	C 	0.28533 0.96361 0.56265 0.17900
H 	H 	0.28802 0.86664 0.53933 0.07100
O 	O 	0.35489 0.87710 0.48464 -0.27400
H 	H 	0.32845 0.00295 0.53026 0.05900
O 	O 	0.26429 0.99174 0.59319 -0.28800
H 	H 	0.24845 0.00352 0.55955 0.14800
H 	H 	0.37269 0.87130 0.52009 0.14600
C 	C 	0.34634 0.85179 0.69931 -0.10400
C 	C 	0.36994 0.82145 0.71839 -0.04900
C 	C 	0.40588 0.82921 0.74629 0.14300
C 	C 	0.41941 0.86720 0.75053 -0.04400
C 	C 	0.39921 0.89606 0.71954 -0.09000
C 	C 	0.36286 0.88846 0.69344 0.17300
H 	H 	0.35842 0.79258 0.71941 0.05900
O 	O 	0.42714 0.79988 0.77087 -0.28200
H 	H 	0.41009 0.92521 0.72057 0.06500
O 	O 	0.34121 0.91824 0.67173 -0.29100
H 	H 	0.35294 0.92481 0.63051 0.15000
H 	H 	0.41796 0.79723 0.81527 0.14800
C 	C 	0.19063 0.36352 0.38794 -0.04900
C 	C 	0.18106 0.33212 0.42677 0.09800
C 	C 	0.19262 0.33260 0.49099 -0.08600
C 	C 	0.21162 0.36458 0.51779 -0.00700
C 	C 	0.22333 0.39473 0.47810 0.07100
C 	C 	0.21296 0.39368 0.41338 -0.05300
N 	N 	0.15978 0.30214 0.40352 -0.20000
H 	H 	0.18457 0.30910 0.52120 0.05200
C 	C 	0.21436 0.36854 0.58826 -0.00500
N 	N 	0.24384 0.42505 0.50197 -0.19400
H 	H 	0.22094 0.41728 0.38331 0.05000
C 	C 	0.24852 0.35797 0.61892 -0.08700
C 	C 	0.25319 0.36434 0.68493 0.10000
C 	C 	0.22191 0.37891 0.72145 -0.04900
C 	C 	0.18721 0.38785 0.69096 -0.05200
C 	C 	0.18333 0.38357 0.62465 0.07000
H 	H 	0.27216 0.34635 0.59093 0.05400
N 	N 	0.28804 0.35782 0.71218 -0.19900
H 	H 	0.16320 0.39871 0.71894 0.04900
N 	N 	0.14987 0.39420 0.59628 -0.19400
H 	H 	0.31040 0.34568 0.68532 0.08500
H 	H 	0.29391 0.36633 0.75914 0.09400
H 	H 	0.12707 0.40500 0.62367 0.08200
H 	H 	0.14620 0.39230 0.54698 0.08900
H 	H 	0.25165 0.44755 0.47259 0.08500
H 	H 	0.25273 0.42637 0.54945 0.08900
H 	H 	0.14943 0.30136 0.35688 0.09400
H 	H 	0.15299 0.27918 0.43261 0.08000
C 	C 	0.31815 0.04439 0.85714 -0.04800
C 	C 	0.30560 0.05219 0.91942 -0.11700
C 	C 	0.29731 0.02091 0.95826 0.06900
C 	C 	0.28686 0.98580 0.92911 -0.04700
C 	C 	0.28816 0.98170 0.86238 -0.09900
C 	C 	0.30951 0.00894 0.82778 0.04700
C 	C 	0.32543 0.99965 0.76259 -0.17300
H 	H 	0.33022 0.06727 0.82928 0.03600
H 	H 	0.27725 0.96224 0.95783 0.02800
C 	C 	0.30140 0.02438 0.02951 -0.19300
H 	H 	0.35009 0.01861 0.75136 0.06100
H 	H 	0.30294 0.00370 0.72579 0.07600
H 	H 	0.33631 0.96976 0.76070 0.09500
H 	H 	0.30184 0.99573 0.05164 0.06900
H 	H 	0.27717 0.04111 0.05013 0.08200
H 	H 	0.32879 0.03916 0.04194 0.08100
C 	C 	0.24752 0.25905 0.99679 -0.09800
C 	C 	0.21010 0.27116 0.98207 -0.05500
C 	C 	0.20405 0.30624 0.95276 0.14600
C 	C 	0.23564 0.32907 0.93645 -0.04800
C 	C 	0.27255 0.31912 0.95720 -0.08100
C 	C 	0.27845 0.28450 0.98848 0.16800
H 	H 	0.18616 0.25161 0.98703 0.06800
O 	O 	0.16753 0.31662 0.93537 -0.28500
H 	H 	0.29687 0.33741 0.94690 0.06300
O 	O 	0.31502 0.27387 0.00509 -0.27800
H 	H 	0.31839 0.28340 0.04961 0.15200
H 	H 	0.15724 0.33145 0.97244 0.14500
C 	C 	0.17136 0.07781 0.32839 -0.06600
C 	C 	0.16234 0.06243 0.26816 -0.11600
C 	C 	0.16218 0.02236 0.25835 0.05000
C 	C 	0.16379 0.99848 0.31111 -0.03800
C 	C 	0.16672 0.01438 0.37299 -0.15800
C 	C 	0.17074 0.05464 0.38167 0.06900
C 	C 	0.17313 0.07331 0.44721 -0.19900
H 	H 	0.17452 0.10862 0.33467 0.03400
H 	H 	0.16304 0.96759 0.30405 -0.00400
C 	C 	0.16406 0.00517 0.19208 -0.19900
H 	H 	0.16773 0.10468 0.44555 0.04500
H 	H 	0.20229 0.06907 0.46743 0.07900
H 	H 	0.15112 0.06131 0.47937 0.05600
H 	H 	0.19177 0.01328 0.16996 0.07900
H 	H 	0.14010 0.01585 0.16256 0.07500
H 	H 	0.16219 0.97337 0.19214 0.05800
C 	C 	0.16844 0.24123 0.11511 -0.09800
C 	C 	0.20287 0.25626 0.14031 -0.04700
C 	C 	0.20369 0.29338 0.16724 0.14300
C 	C 	0.16983 0.31558 0.16892 -0.04300
C 	C 	0.13832 0.30357 0.13140 -0.08900
C 	C 	0.13794 0.26672 0.10327 0.17500
H 	H 	0.22761 0.23775 0.14579 0.07100
O 	O 	0.23744 0.30780 0.19188 -0.27900
H 	H 	0.11304 0.32155 0.12784 0.07000
O 	O 	0.10593 0.25427 0.07069 -0.28700
H 	H 	0.11107 0.26010 0.02548 0.15600
H 	H 	0.23967 0.29704 0.23506 0.15100
C 	C 	0.44069 0.03548 0.43562 -0.05900
C 	C 	0.43085 0.06861 0.40154 0.10300
C 	C 	0.45717 0.09901 0.39867 -0.08800
C 	C 	0.49274 0.09687 0.42983 -0.00500
C 	C 	0.50026 0.06602 0.47068 0.06900
C 	C 	0.47422 0.03531 0.47268 -0.05100
N 	N 	0.39640 0.07120 0.37118 -0.20000
H 	H 	0.45079 0.12352 0.36958 0.05500
C 	C 	0.52377 0.12345 0.41166 -0.00600
N 	N 	0.53269 0.06541 0.50694 -0.19400
H 	H 	0.48093 0.01048 0.50082 0.04500
C 	C 	0.52647 0.15944 0.44247 -0.08700
C 	C 	0.55656 0.18469 0.42811 0.10100
C 	C 	0.58516 0.17293 0.38387 -0.05100
C 	C 	0.58140 0.13768 0.35097 -0.05300
C 	C 	0.55079 0.11291 0.36397 0.07200
H 	H 	0.50506 0.16785 0.47762 0.05300
N 	N 	0.55725 0.22040 0.45554 -0.19900
H 	H 	0.60302 0.12897 0.31637 0.04900
N 	N 	0.54763 0.07904 0.33083 -0.19400
H 	H 	0.53688 0.22833 0.48995 0.08500
H 	H 	0.57683 0.24115 0.44098 0.09400
H 	H 	0.56819 0.07124 0.29663 0.08400
H 	H 	0.52454 0.06046 0.33764 0.09000
H 	H 	0.53867 0.04194 0.53539 0.08200
H 	H 	0.55160 0.08868 0.50879 0.08700
H 	H 	0.37533 0.05009 0.37572 0.09100
H 	H 	0.38986 0.09521 0.34430 0.08500
C 	C 	0.53069 0.94635 0.80284 -0.05200
C 	C 	0.56367 0.93733 0.76586 0.10000
C 	C 	0.59039 0.96639 0.75281 -0.08000
C 	C 	0.58546 0.00363 0.77816 -0.01100
C 	C 	0.55155 0.01301 0.81234 0.06400
C 	C 	0.52447 0.98424 0.82416 -0.04500
N 	N 	0.57047 0.90084 0.74440 -0.19900
H 	H 	0.61612 0.95950 0.72575 0.05500
C 	C 	0.61783 0.03116 0.77536 -0.00500
N 	N 	0.54503 0.04941 0.83449 -0.19300
H 	H 	0.49871 0.99123 0.85113 0.04700
C 	C 	0.61906 0.05743 0.72578 -0.08700
C 	C 	0.64526 0.08817 0.72764 0.10000
C 	C 	0.67159 0.09161 0.77904 -0.05000
C 	C 	0.67192 0.06386 0.82632 -0.05300
C 	C 	0.64525 0.03369 0.82517 0.07000
H 	H 	0.59836 0.05502 0.68723 0.05300
N 	N 	0.64422 0.11466 0.68106 -0.19900
H 	H 	0.69271 0.06608 0.86478 0.04800
N 	N 	0.64591 0.00750 0.87224 -0.19700
H 	H 	0.62498 0.11154 0.64299 0.08600
H 	H 	0.66189 0.13885 0.68252 0.09800
H 	H 	0.66583 0.01005 0.90943 0.08200
H 	H 	0.62718 0.98410 0.87207 0.09400
H 	H 	0.52031 0.05584 0.86091 0.08100
H 	H 	0.56396 0.07178 0.82490 0.08800
H 	H 	0.55220 0.87823 0.75557 0.09600
H 	H 	0.59475 0.89463 0.71674 0.08700
C 	C 	0.72641 0.19226 0.91550 -0.04300
C 	C 	0.69353 0.21210 0.93844 0.08800
C 	C 	0.68990 0.22020 0.00401 -0.07100
C 	C 	0.71949 0.21075 0.04631 -0.01300
C 	C 	0.75451 0.19578 0.02204 0.08300
C 	C 	0.75746 0.18616 0.95681 -0.06900
N 	N 	0.66563 0.22370 0.89775 -0.19700
H 	H 	0.66367 0.23312 0.02232 0.05400
C 	C 	0.71159 0.21179 0.11585 -0.00200
N 	N 	0.78521 0.19042 0.06102 -0.19600
H 	H 	0.78331 0.17232 0.93883 0.04900
C 	C 	0.70383 0.17727 0.14633 -0.08600
C 	C 	0.69309 0.17719 0.21075 0.10100
C 	C 	0.68820 0.21252 0.24443 -0.04700
C 	C 	0.69729 0.24698 0.21474 -0.05100
C 	C 	0.70952 0.24695 0.15087 0.07000
H 	H 	0.70616 0.15033 0.11976 0.05500
N 	N 	0.68806 0.14318 0.24016 -0.19900
H 	H 	0.69441 0.27394 0.24109 0.05300
N 	N 	0.71950 0.28059 0.12379 -0.19400
H 	H 	0.69021 0.11729 0.21432 0.08400
H 	H 	0.68357 0.14196 0.28923 0.09300
H 	H 	0.71700 0.30650 0.14947 0.08700
H 	H 	0.73082 0.28130 0.07780 0.09000
H 	H 	0.81054 0.17814 0.04322 0.08100
H 	H 	0.78473 0.19963 0.10868 0.08700
H 	H 	0.66928 0.22137 0.84845 0.09300
H 	H 	0.64067 0.23691 0.91518 0.08400
C 	C 	0.95139 0.21130 0.29329 -0.05500
C 	C 	0.95671 0.20737 0.35902 -0.10800
C 	C 	0.99239 0.21830 0.38612 0.07600
C 	C 	0.02442 0.22135 0.34624 -0.05800
C 	C 	0.02053 0.21368 0.28071 -0.12000
C 	C 	0.98337 0.21476 0.25344 0.08500
C 	C 	0.97764 0.21725 0.18254 -0.20200
H 	H 	0.92294 0.20779 0.27275 0.04000
H 	H 	0.05280 0.22550 0.36675 0.03600
C 	C 	0.99696 0.22462 0.45692 -0.18800
H 	H 	0.94828 0.22767 0.17121 0.06700
H 	H 	0.98144 0.18846 0.15969 0.07600
H 	H 	0.99835 0.23786 0.16208 0.09400
H 	H 	0.02394 0.24044 0.46836 0.05700
H 	H 	0.99796 0.19661 0.48087 0.07300
H 	H 	0.97272 0.24205 0.47617 0.08600
C 	C 	0.05429 0.04262 0.50803 -0.05400
C 	C 	0.04304 0.00529 0.52318 -0.12100
C 	C 	0.00378 0.99800 0.53691 0.05200
C 	C 	0.97615 0.02705 0.52849 -0.07300
C 	C 	0.98722 0.06351 0.50851 -0.08800
C 	C 	0.02690 0.07219 0.50372 0.02700
C 	C 	0.04019 0.11253 0.49181 -0.15500
H 	H 	0.08427 0.04857 0.49842 0.01000
H 	H 	0.94585 0.02056 0.53410 0.01400
C 	C 	0.99086 0.95904 0.55766 -0.17000
H 	H 	0.07007 0.11703 0.50927 0.03500
H 	H 	0.02156 0.13360 0.51748 0.06300
H 	H 	0.03943 0.11809 0.43998 -0.02700
H 	H 	0.98950 0.93912 0.51580 0.01700
H 	H 	0.96193 0.96036 0.58001 0.04900
H 	H 	0.01096 0.94779 0.59360 0.07200
C 	C 	0.77864 0.19704 0.52880 -0.10000
C 	C 	0.77027 0.23479 0.51165 -0.04700
C 	C 	0.73513 0.24289 0.48212 0.14400
C 	C 	0.70766 0.21356 0.47396 -0.04400
C 	C 	0.71226 0.17952 0.50764 -0.08800
C 	C 	0.74782 0.17134 0.53578 0.18100
H 	H 	0.79298 0.25609 0.51177 0.06100
O 	O 	0.72934 0.27803 0.45571 -0.27800
H 	H 	0.68995 0.15780 0.50622 0.06700
O 	O 	0.75365 0.13650 0.56325 -0.28400
H 	H 	0.76116 0.11870 0.52788 0.15700
H 	H 	0.71663 0.29378 0.48950 0.14500
C 	C 	0.11914 0.98472 0.69732 -0.02700
C 	C 	0.12234 0.94714 0.71899 -0.10700
C 	C 	0.08882 0.92457 0.72427 0.02800
C 	C 	0.05239 0.94170 0.71756 -0.06400
C 	C 	0.04903 0.98094 0.70478 -0.08400
C 	C 	0.08274 0.00145 0.68781 0.05400
C 	C 	0.08088 0.04142 0.66210 -0.19200
H 	H 	0.14493 0.00158 0.69011 0.01700
H 	H 	0.02669 0.92516 0.72708 0.00600
C 	C 	0.09154 0.88336 0.74335 -0.17800
H 	H 	0.10156 0.04403 0.62218 0.06900
H 	H 	0.08938 0.06266 0.69942 0.06000
H 	H 	0.05219 0.04893 0.64351 0.08700
H 	H 	0.09834 0.88228 0.79493 -0.03700
H 	H 	0.11442 0.86836 0.71559 0.06900
H 	H 	0.06412 0.86780 0.73428 0.03100
C 	C 	0.07446 0.15754 0.79629 -0.04800
C 	C 	0.06457 0.11852 0.79812 -0.10600
C 	C 	0.08845 0.09289 0.83193 0.02100
C 	C 	0.12029 0.10702 0.86480 -0.04000
C 	C 	0.13059 0.14550 0.86181 -0.14700
C 	C 	0.10755 0.17125 0.82773 0.08800
C 	C 	0.11788 0.21321 0.82526 -0.20500
H 	H 	0.05623 0.17725 0.77084 0.04800
H 	H 	0.13800 0.08751 0.89137 -0.03500
C 	C 	0.08212 0.05028 0.83108 -0.18100
H 	H 	0.09850 0.22895 0.79285 0.07000
H 	H 	0.14776 0.21656 0.80761 0.07400
H 	H 	0.11552 0.22659 0.87360 0.08700
H 	H 	0.05931 0.04121 0.79832 -0.01400
H 	H 	0.07502 0.04083 0.87966 -0.03000
H 	H 	0.10890 0.03540 0.81569 0.02400
C 	C 	0.86827 0.14099 0.67445 -0.10600
C 	C 	0.85607 0.17740 0.69602 -0.03700
C 	C 	0.81841 0.18281 0.71838 0.14300
C 	C 	0.79257 0.15160 0.71848 -0.03500
C 	C 	0.80293 0.11729 0.68647 -0.08000
C 	C 	0.84050 0.11203 0.66404 0.18200
H 	H 	0.87663 0.20069 0.70036 0.05800
O 	O 	0.80681 0.21860 0.73892 -0.27500
H 	H 	0.78254 0.09388 0.68192 0.07600
O 	O 	0.85030 0.07815 0.63372 -0.28700
H 	H 	0.85700 0.06034 0.66818 0.14700
H 	H 	0.81581 0.22114 0.78367 0.14700
C 	C 	0.96370 0.56733 0.35491 -0.05300
C 	C 	0.95181 0.54559 0.30050 0.10300
C 	C 	0.97699 0.51830 0.27329 -0.07900
C 	C 	0.01208 0.50985 0.30282 -0.01100
C 	C 	0.02328 0.53047 0.35872 0.06100
C 	C 	0.99920 0.55937 0.38359 -0.03200
N 	N 	0.91579 0.54943 0.27611 -0.19900
H 	H 	0.96836 0.50217 0.23086 0.05400
C 	C 	0.03601 0.47803 0.27683 -0.00300
N 	N 	0.05706 0.52273 0.38868 -0.19200
H 	H 	0.00836 0.57603 0.42514 0.04000
C 	C 	0.06720 0.48659 0.23724 -0.08900
C 	C 	0.09643 0.45944 0.22599 0.10000
C 	C 	0.09378 0.42300 0.25401 -0.05300
C 	C 	0.06028 0.41300 0.28680 -0.05000
C 	C 	0.03135 0.44024 0.29880 0.06300
H 	H 	0.06984 0.51512 0.21819 0.05600
N 	N 	0.12719 0.46880 0.18950 -0.20100
H 	H 	0.05769 0.38452 0.30610 0.04700
N 	N 	0.99972 0.43023 0.33274 -0.18900
H 	H 	0.12957 0.49624 0.17088 0.08600
H 	H 	0.14849 0.44874 0.17795 0.09400
H 	H 	0.99707 0.40255 0.35032 0.08700
H 	H 	0.97714 0.44943 0.34086 0.09000
H 	H 	0.06504 0.53821 0.42981 0.08300
H 	H 	0.07563 0.50130 0.37189 0.09000
H 	H 	0.89456 0.56497 0.30050 0.09500
H 	H 	0.90796 0.53475 0.23412 0.08800
C 	C 	0.05326 0.59704 0.00979 -0.03900
C 	C 	0.08770 0.60858 0.98000 0.08800
C 	C 	0.11713 0.58167 0.96978 -0.07900
C 	C 	0.11274 0.54386 0.98971 -0.02300
C 	C 	0.08094 0.53417 0.02815 0.08400
C 	C 	0.05111 0.56086 0.03726 -0.06100
N 	N 	0.09243 0.64523 0.96056 -0.19700
H 	H 	0.14252 0.58956 0.94312 0.05200
C 	C 	0.13737 0.51367 0.96074 0.00300
N 	N 	0.07850 0.49912 0.05494 -0.19700
H 	H 	0.02542 0.55278 0.06297 0.05000
C 	C 	0.17377 0.50683 0.98693 -0.10300
C 	C 	0.19861 0.47962 0.95872 0.10600
C 	C 	0.18585 0.45761 0.90524 -0.05300
C 	C 	0.14971 0.46499 0.87849 -0.04900
C 	C 	0.12548 0.49311 0.90518 0.06600
H 	H 	0.18310 0.52328 0.02861 0.06300
N 	N 	0.23495 0.47573 0.98176 -0.20500
H 	H 	0.14008 0.44825 0.83729 0.04800
N 	N 	0.09093 0.50023 0.87724 -0.19300
H 	H 	0.24361 0.49099 0.02274 0.09300
H 	H 	0.25545 0.45904 0.95768 0.09300
H 	H 	0.08227 0.48448 0.83677 0.08200
H 	H 	0.07257 0.52169 0.89458 0.08800
H 	H 	0.05446 0.49181 0.08196 0.08600
H 	H 	0.10096 0.47933 0.05100 0.09200
H 	H 	0.07210 0.66645 0.97124 0.08900
H 	H 	0.11736 0.65317 0.93643 0.08500
C 	C 	0.95587 0.65241 0.87211 -0.04800
C 	C 	0.96327 0.68577 0.83661 0.10200
C 	C 	0.95200 0.68673 0.77233 -0.08600
C 	C 	0.93560 0.65442 0.74197 -0.00500
C 	C 	0.92712 0.62156 0.77791 0.07100
C 	C 	0.93680 0.62121 0.84291 -0.05100
N 	N 	0.98230 0.71635 0.86301 -0.19900
H 	H 	0.95800 0.71202 0.74488 0.05300
C 	C 	0.93220 0.65358 0.67137 -0.00500
N 	N 	0.91026 0.59013 0.75024 -0.19400
H 	H 	0.93079 0.59589 0.87028 0.05000
C 	C 	0.96530 0.64680 0.63476 -0.08500
C 	C 	0.96337 0.64536 0.56798 0.10200
C 	C 	0.92712 0.64771 0.53742 -0.04900
C 	C 	0.89417 0.65589 0.57378 -0.05300
C 	C 	0.89647 0.65964 0.64058 0.07000
H 	H 	0.99282 0.64338 0.65833 0.05700
N 	N 	0.99644 0.64302 0.53352 -0.19500
H 	H 	0.86657 0.65872 0.55023 0.05000
N 	N 	0.86435 0.66865 0.67469 -0.19400
H 	H 	0.02286 0.63916 0.55629 0.07800
H 	H 	0.99656 0.64728 0.48447 0.09400
H 	H 	0.83799 0.67240 0.65166 0.08500
H 	H 	0.86527 0.67261 0.72409 0.08900
H 	H 	0.90442 0.56593 0.77706 0.08500
H 	H 	0.90260 0.58937 0.70217 0.09000
H 	H 	0.99365 0.71574 0.90897 0.09700
H 	H 	0.98680 0.74105 0.83673 0.08300
C 	C 	0.13184 0.97155 0.03796 -0.06500
C 	C 	0.09330 0.98212 0.03056 -0.09800
C 	C 	0.08400 0.02144 0.02410 0.05000
C 	C 	0.11371 0.04878 0.01830 -0.04400
C 	C 	0.15245 0.03738 0.01821 -0.08300
C 	C 	0.16150 0.99872 0.03177 0.04500
C 	C 	0.20256 0.98570 0.03652 -0.16400
H 	H 	0.13901 0.94163 0.04455 -0.00100
H 	H 	0.10652 0.07845 0.00944 0.04100
C 	C 	0.04275 0.03394 0.01726 -0.13300
H 	H 	0.20498 0.95943 0.06522 0.03500
H 	H 	0.22035 0.00815 0.06031 0.06500
H 	H 	0.21364 0.97922 0.98804 0.01200
H 	H 	0.02347 0.01653 0.04715 0.05900
H 	H 	0.03363 0.03022 0.96710 -0.06400
H 	H 	0.03906 0.06456 0.03153 0.04700
C 	C 	0.91476 0.97191 0.96015 -0.05200
C 	C 	0.92949 0.93839 0.93130 -0.10500
C 	C 	0.91977 0.92987 0.86703 0.06300
C 	C 	0.90708 0.95963 0.82863 -0.04300
C 	C 	0.90250 0.99652 0.85531 -0.10100
C 	C 	0.89957 0.00064 0.92213 0.04800
C 	C 	0.88528 0.03742 0.95267 -0.18300
H 	H 	0.91820 0.97707 0.01096 0.05400
H 	H 	0.90473 0.95503 0.77753 0.04800
C 	C 	0.92326 0.88983 0.83915 -0.18400
H 	H 	0.86952 0.03136 0.99733 0.05600
H 	H 	0.86522 0.05246 0.92044 0.06900
H 	H 	0.91001 0.05650 0.96426 0.04800
H 	H 	0.91915 0.86806 0.87636 0.07900
H 	H 	0.95196 0.88603 0.81675 0.04500
H 	H 	0.90086 0.88464 0.80216 0.06500
C 	C 	0.14216 0.81465 0.95726 -0.07500
C 	C 	0.10432 0.81970 0.93612 -0.12600
C 	C 	0.09512 0.81070 0.87181 0.03500
C 	C 	0.12506 0.80696 0.82737 -0.04000
C 	C 	0.16319 0.81159 0.84753 -0.13100
C 	C 	0.17164 0.80874 0.91292 0.05700
C 	C 	0.21249 0.80453 0.93555 -0.19100
H 	H 	0.14900 0.81778 0.00751 0.04300
H 	H 	0.11857 0.80438 0.77695 0.03800
C 	C 	0.05402 0.80550 0.85034 -0.16600
H 	H 	0.21344 0.78763 0.97973 0.06200
H 	H 	0.22508 0.83331 0.94566 0.03600
H 	H 	0.23026 0.78927 0.89907 0.07800
H 	H 	0.04139 0.83369 0.83859 -0.00900
H 	H 	0.03658 0.79203 0.88808 0.06500
H 	H 	0.05243 0.78643 0.80730 0.05500
C 	C 	0.97145 0.69973 0.09169 -0.03700
C 	C 	0.00350 0.71608 0.12287 -0.09200
C 	C 	0.00306 0.75509 0.14058 0.17300
C 	C 	0.97077 0.77754 0.12592 -0.09600
C 	C 	0.93608 0.75871 0.11087 -0.04600
C 	C 	0.93631 0.71966 0.09395 0.14600
H 	H 	0.02987 0.69984 0.12751 0.07200
O 	O 	0.03522 0.77178 0.16706 -0.29400
H 	H 	0.91007 0.77525 0.10416 0.07200
O 	O 	0.90299 0.70209 0.07399 -0.27400
H 	H 	0.89159 0.69132 0.11300 0.14800
H 	H 	0.05187 0.77841 0.13060 0.15700
C 	C 	0.96843 0.00460 0.17642 -0.08400
C 	C 	0.99264 0.97633 0.20095 -0.08200
C 	C 	0.03287 0.98239 0.20047 0.04000
C 	C 	0.04744 0.01904 0.18751 -0.05000
C 	C 	0.02264 0.04891 0.17096 -0.13200
C 	C 	0.98319 0.04087 0.16093 0.06100
C 	C 	0.95636 0.07148 0.13777 -0.18500
H 	H 	0.93780 0.99935 0.17330 0.03000
H 	H 	0.07767 0.02499 0.19473 0.01300
C 	C 	0.06023 0.95086 0.21811 -0.14700
H 	H 	0.92973 0.05868 0.11708 0.04600
H 	H 	0.97038 0.08836 0.10002 0.06200
H 	H 	0.94834 0.09098 0.17814 0.01300
H 	H 	0.04873 0.92231 0.20317 0.04900
H 	H 	0.06495 0.95157 0.27040 -0.04500
H 	H 	0.08836 0.95452 0.19395 0.04300
C 	C 	0.83554 0.96352 0.38367 -0.05900
C 	C 	0.84432 0.96385 0.31863 -0.12500
C 	C 	0.84191 0.99862 0.28615 0.06000
C 	C 	0.84052 0.03325 0.32137 -0.07400
C 	C 	0.84015 0.03306 0.38830 -0.13900
C 	C 	0.83496 0.99785 0.41963 0.06100
C 	C 	0.83124 0.99635 0.49117 -0.18400
H 	H 	0.83394 0.93631 0.40758 0.03700
H 	H 	0.84159 0.06029 0.29692 0.00600
C 	C 	0.84303 0.99901 0.21447 -0.19100
H 	H 	0.82801 0.96644 0.50752 0.05800
H 	H 	0.80533 0.01247 0.50712 0.08600
H 	H 	0.85736 0.00857 0.51443 0.05500
H 	H 	0.82194 0.97807 0.19441 0.08500
H 	H 	0.87221 0.99123 0.19741 0.05200
H 	H 	0.83559 0.02773 0.19619 0.05000
C 	C 	0.00678 0.85660 0.47508 -0.06300
C 	C 	0.00756 0.84393 0.41106 -0.11500
C 	C 	0.03858 0.82038 0.39043 0.06600
C 	C 	0.07252 0.82059 0.42644 -0.05000
C 	C 	0.07484 0.84344 0.48201 -0.11700
C 	C 	0.04032 0.85471 0.51192 0.08300
C 	C 	0.03960 0.86624 0.58142 -0.20000
H 	H 	0.98100 0.86954 0.49496 0.03800
H 	H 	0.09824 0.80703 0.40736 0.04000
C 	C 	0.03561 0.79469 0.33195 -0.19600
H 	H 	0.00980 0.86634 0.60045 0.05900
H 	H 	0.05196 0.89534 0.58825 0.08300
H 	H 	0.05674 0.84566 0.60939 0.07800
H 	H 	0.04262 0.81119 0.28888 0.08500
H 	H 	0.00630 0.78228 0.32763 0.08600
H 	H 	0.05602 0.77027 0.33466 0.07400
C 	C 	0.89028 0.76199 0.26056 -0.10700
C 	C 	0.92802 0.74799 0.26544 -0.05200
C 	C 	0.93534 0.71329 0.29525 0.14300
C 	C 	0.90489 0.69255 0.32176 -0.04500
C 	C 	0.86692 0.70484 0.31265 -0.08700
C 	C 	0.85950 0.73915 0.28119 0.17700
H 	H 	0.95199 0.76588 0.25210 0.06500
O 	O 	0.97249 0.70047 0.30070 -0.27500
H 	H 	0.84323 0.68855 0.33187 0.06700
O 	O 	0.82238 0.75192 0.27560 -0.28300
H 	H 	0.81328 0.74152 0.23389 0.14900
H 	H 	0.98218 0.71187 0.34135 0.14500
