data_crystal

_cell_length_a 32.10240
_cell_length_b 54.17721
_cell_length_c 23.77377
_cell_angle_alpha 90.00251
_cell_angle_beta  89.99836
_cell_angle_gamma 90.00136

_symmetry_space_group_name_	'P 1'
_symmetry_space_group_name_H-M	'P 1'

loop_
_symmetry_equiv_pos_as_xyz
  x,y,z

loop_
_atom_site_label
_atom_site_type_symbol
_atom_site_fract_x
_atom_site_fract_y
_atom_site_fract_z
_atom_site_charge
Cu	Cu	0.56078 0.35158 0.94370 0.93600
Cu	Cu	0.59151 0.32164 0.83061 0.88500
Cu	Cu	0.50294 0.32100 0.86823 0.90300
Cu	Cu	0.46378 0.35009 0.96197 0.90400
C 	C 	0.51712 0.39244 0.99153 0.29400
O 	O 	0.55215 0.33385 0.01759 -0.32400
C 	C 	0.54050 0.28041 0.80195 0.30700
O 	O 	0.50264 0.35305 0.90243 -0.63900
O 	O 	0.56061 0.32007 0.90065 -0.63300
O 	O 	0.61477 0.36522 0.91715 -0.33100
O 	O 	0.59985 0.35614 0.82635 -0.42500
O 	O 	0.48748 0.37732 0.00841 -0.34900
O 	O 	0.44803 0.32477 0.83521 -0.36400
C 	C 	0.41592 0.33527 0.86042 0.31600
C 	C 	0.52493 0.31589 0.02189 0.30800
O 	O 	0.49211 0.31560 0.98897 -0.37900
O 	O 	0.41570 0.33928 0.91520 -0.36500
O 	O 	0.55345 0.38388 0.97453 -0.33200
C 	C 	0.62381 0.36691 0.86354 0.31400
O 	O 	0.50684 0.28982 0.82593 -0.35400
O 	O 	0.57817 0.28794 0.81564 -0.39000
H 	H 	0.49741 0.36688 0.87611 0.18000
H 	H 	0.56621 0.30491 0.92259 0.20100
Cu	Cu	0.52993 0.61440 0.13345 0.93600
Cu	Cu	0.43325 0.60877 0.11187 0.90200
C 	C 	0.49639 0.57334 0.07355 0.31000
O 	O 	0.47200 0.60659 0.17197 -0.63600
O 	O 	0.58663 0.60383 0.15722 -0.32600
O 	O 	0.56964 0.60655 0.24947 -0.42000
O 	O 	0.46418 0.58695 0.05903 -0.36200
O 	O 	0.38231 0.61107 0.15922 -0.37400
O 	O 	0.53029 0.58359 0.09422 -0.33200
C 	C 	0.59652 0.60073 0.21025 0.31200
H 	H 	0.46960 0.59161 0.19561 0.17500
Cu	Cu	0.97702 0.37493 0.64120 0.93400
Cu	Cu	0.94942 0.34230 0.75183 0.88900
Cu	Cu	0.03892 0.34594 0.71357 0.90100
Cu	Cu	0.07445 0.38187 0.62865 0.91400
C 	C 	0.01244 0.41952 0.59843 0.30900
O 	O 	0.99287 0.35896 0.56734 -0.33800
C 	C 	0.00768 0.30498 0.78179 0.30000
O 	O 	0.03344 0.37941 0.68593 -0.63300
O 	O 	0.98124 0.34307 0.68205 -0.63100
O 	O 	0.91942 0.38401 0.66398 -0.33300
O 	O 	0.93313 0.37575 0.75542 -0.41700
O 	O 	0.04523 0.40689 0.58183 -0.35300
O 	O 	0.09442 0.35032 0.74446 -0.36300
C 	C 	0.12666 0.35853 0.71552 0.31200
C 	C 	0.02424 0.34343 0.56371 0.29800
O 	O 	0.05637 0.34563 0.59765 -0.36500
O 	O 	0.12248 0.37698 0.67979 -0.35300
O 	O 	0.97806 0.40807 0.61354 -0.33700
C 	C 	0.90800 0.38444 0.71688 0.31400
O 	O 	0.03874 0.31364 0.75112 -0.35900
O 	O 	0.96876 0.30971 0.76816 -0.38100
H 	H 	0.03481 0.39229 0.71543 0.18600
H 	H 	0.97727 0.32818 0.65855 0.18400
C 	C 	0.98731 0.59874 0.50122 0.31200
O 	O 	0.89023 0.61688 0.41229 -0.32800
O 	O 	0.90642 0.62190 0.32016 -0.41900
O 	O 	0.01507 0.61569 0.51487 -0.36000
O 	O 	0.95047 0.60511 0.48121 -0.33800
C 	C 	0.88127 0.61347 0.35903 0.31300
H 	H 	0.00902 0.61600 0.38264 0.18600
Cu	Cu	0.45914 0.11475 0.43974 0.93600
Cu	Cu	0.44795 0.14394 0.32058 0.89400
Cu	Cu	0.53026 0.13612 0.36966 0.90100
Cu	Cu	0.55388 0.10077 0.46185 0.90400
C 	C 	0.48265 0.06869 0.48810 0.30700
O 	O 	0.47465 0.13174 0.51277 -0.33200
C 	C 	0.51237 0.17886 0.29775 0.30600
O 	O 	0.51611 0.10446 0.40110 -0.63500
O 	O 	0.47277 0.14441 0.39502 -0.63800
O 	O 	0.40171 0.10933 0.40999 -0.33600
O 	O 	0.42492 0.11179 0.32022 -0.40300
O 	O 	0.51744 0.07861 0.50701 -0.36900
O 	O 	0.58434 0.12606 0.34239 -0.36900
C 	C 	0.61419 0.11724 0.37469 0.31700
C 	C 	0.50930 0.14453 0.51778 0.30000
O 	O 	0.54203 0.13881 0.48712 -0.37200
O 	O 	0.60586 0.10157 0.41577 -0.36400
O 	O 	0.45136 0.08290 0.47275 -0.33000
C 	C 	0.39514 0.10654 0.35589 0.32000
O 	O 	0.53967 0.16740 0.33018 -0.35200
O 	O 	0.47203 0.17523 0.30339 -0.37700
H 	H 	0.51588 0.09074 0.37358 0.18100
H 	H 	0.47094 0.16051 0.41452 0.20800
Cu	Cu	0.04992 0.13410 0.14887 0.93200
Cu	Cu	0.07088 0.15899 0.27043 0.88300
Cu	Cu	0.98671 0.16195 0.22210 0.90300
Cu	Cu	0.95342 0.13472 0.12092 0.90900
C 	C 	0.01013 0.09382 0.09308 0.30200
O 	O 	0.04612 0.15433 0.07725 -0.33700
C 	C 	0.01967 0.19975 0.29964 0.30700
O 	O 	0.98937 0.13091 0.18335 -0.63600
O 	O 	0.04610 0.16398 0.19675 -0.63700
O 	O 	0.10154 0.11966 0.18192 -0.34200
O 	O 	0.07564 0.12420 0.26942 -0.42000
O 	O 	0.98050 0.10860 0.07463 -0.34400
O 	O 	0.93030 0.15697 0.24903 -0.35400
C 	C 	0.90024 0.14638 0.21978 0.31200
C 	C 	0.01612 0.17044 0.06909 0.30100
O 	O 	0.98247 0.16982 0.10040 -0.36200
O 	O 	0.90273 0.14410 0.16457 -0.36500
O 	O 	0.04567 0.10283 0.11187 -0.32500
C 	C 	0.10306 0.11421 0.23563 0.31200
O 	O 	0.98794 0.19198 0.26880 -0.35700
O 	O 	0.05792 0.19218 0.28976 -0.39100
H 	H 	0.98345 0.11639 0.20736 0.18400
H 	H 	0.05340 0.17983 0.17846 0.18400
C 	C 	0.99915 0.01670 0.05846 0.03500
C 	C 	0.02563 0.03137 0.02554 -0.07900
C 	C 	0.02964 0.05662 0.03659 0.16200
C 	C 	0.00710 0.06733 0.08118 -0.09200
C 	C 	0.98105 0.05260 0.11449 -0.00300
C 	C 	0.97715 0.02735 0.10356 0.08700
H 	H 	0.04265 0.02319 0.99085 0.09000
H 	H 	0.96381 0.06079 0.14898 0.06100
Br	Br	0.92391 0.00626 0.97564 -0.18800
Br	Br	0.06496 0.07630 0.98927 -0.17300
Br	Br	0.94145 0.00770 0.15040 -0.17200
C 	C 	0.35258 0.10189 0.33515 -0.09600
C 	C 	0.33281 0.11873 0.29849 0.15400
C 	C 	0.29169 0.11463 0.28173 -0.08000
C 	C 	0.26918 0.09457 0.30306 0.02500
C 	C 	0.28905 0.07740 0.33849 0.09000
C 	C 	0.33060 0.08114 0.35444 -0.00000
H 	H 	0.27639 0.12788 0.25452 0.09000
C 	C 	0.22373 0.09370 0.29409 0.02900
H 	H 	0.34553 0.06815 0.38262 0.08700
C 	C 	0.20779 0.08260 0.24530 -0.08200
C 	C 	0.16664 0.08712 0.22850 0.15200
C 	C 	0.14171 0.10367 0.25967 -0.10200
C 	C 	0.15636 0.11250 0.31163 -0.01200
C 	C 	0.19710 0.10755 0.32890 0.08300
H 	H 	0.22772 0.07106 0.21958 0.09500
H 	H 	0.13686 0.12433 0.33728 0.05300
Br	Br	0.25960 0.04917 0.36666 -0.16800
Br	Br	0.35957 0.14879 0.27541 -0.27900
Br	Br	0.14441 0.06935 0.16532 -0.17700
Br	Br	0.21670 0.12112 0.39868 -0.17900
C 	C 	0.85971 0.14238 0.24700 -0.08900
C 	C 	0.85376 0.12242 0.28406 0.14800
C 	C 	0.81431 0.11802 0.30706 -0.07700
C 	C 	0.78064 0.13337 0.29331 0.02600
C 	C 	0.78686 0.15371 0.25738 0.08900
C 	C 	0.82624 0.15803 0.23417 -0.00400
H 	H 	0.80966 0.10244 0.33497 0.09200
C 	C 	0.73880 0.12775 0.31568 0.02600
H 	H 	0.83079 0.17350 0.20593 0.07700
C 	C 	0.72689 0.13715 0.36823 -0.07800
C 	C 	0.68645 0.13332 0.38845 0.14800
C 	C 	0.65759 0.11991 0.35596 -0.09100
C 	C 	0.66984 0.10997 0.30406 -0.00400
C 	C 	0.71032 0.11370 0.28396 0.08700
H 	H 	0.74883 0.14783 0.39288 0.09300
H 	H 	0.64782 0.09946 0.27914 0.07200
Br	Br	0.74186 0.17566 0.23926 -0.17600
Br	Br	0.89879 0.10051 0.30224 -0.21900
Br	Br	0.67069 0.14740 0.45947 -0.20500
Br	Br	0.72608 0.09969 0.21290 -0.17900
C 	C 	0.44357 0.00315 0.47033 -0.08100
C 	C 	0.45196 0.02799 0.45900 0.14900
C 	C 	0.47483 0.04219 0.49810 -0.09100
C 	C 	0.49122 0.03078 0.54633 -0.00900
C 	C 	0.48483 0.00560 0.55585 0.08900
H 	H 	0.50935 0.04142 0.57616 0.07800
Br	Br	0.43568 0.04130 0.38737 -0.22500
C 	C 	0.01608 0.28579 0.82415 -0.09100
C 	C 	0.00211 0.28879 0.87992 0.14500
C 	C 	0.00629 0.26944 0.91844 -0.08500
C 	C 	0.02479 0.24712 0.90215 0.02900
C 	C 	0.04037 0.24446 0.84707 0.08500
C 	C 	0.03598 0.26380 0.80834 -0.00400
H 	H 	0.99474 0.27165 0.96098 0.09600
C 	C 	0.02511 0.22614 0.94185 0.02200
H 	H 	0.04720 0.26149 0.76567 0.07600
C 	C 	0.99282 0.20873 0.93986 -0.07300
C 	C 	0.99026 0.19006 0.98036 0.15000
C 	C 	0.01990 0.18894 0.02403 -0.09100
C 	C 	0.05297 0.20586 0.02499 -0.00100
C 	C 	0.05569 0.22444 0.98416 0.08100
H 	H 	0.96951 0.20983 0.90698 0.09200
H 	H 	0.07621 0.20484 0.05798 0.06300
Br	Br	0.06748 0.21455 0.82400 -0.17200
Br	Br	0.97808 0.31939 0.90462 -0.23900
Br	Br	0.94706 0.16569 0.97396 -0.21600
Br	Br	0.10129 0.24733 0.98683 -0.18100
C 	C 	0.01335 0.22010 0.33952 -0.09700
C 	C 	0.02507 0.21740 0.39628 0.15000
C 	C 	0.02463 0.23784 0.43211 -0.07900
C 	C 	0.01199 0.26098 0.41211 0.02300
C 	C 	0.99848 0.26349 0.35604 0.09000
C 	C 	0.99917 0.24305 0.32001 0.00100
H 	H 	0.03436 0.23577 0.47552 0.09200
C 	C 	0.01435 0.28259 0.44964 0.02200
H 	H 	0.98979 0.24517 0.27649 0.07300
C 	C 	0.05004 0.29751 0.44896 -0.07800
C 	C 	0.05365 0.31748 0.48595 0.15100
C 	C 	0.02155 0.32236 0.52486 -0.09700
C 	C 	0.98574 0.30750 0.52521 -0.00400
C 	C 	0.98199 0.28771 0.48782 0.09000
H 	H 	0.07491 0.29365 0.41939 0.09200
H 	H 	0.96078 0.31133 0.55465 0.06200
Br	Br	0.97932 0.29470 0.32792 -0.17100
Br	Br	0.04091 0.18577 0.42590 -0.23000
Br	Br	0.10152 0.33862 0.48037 -0.19200
Br	Br	0.93231 0.26798 0.48911 -0.17700
C 	C 	0.01038 0.44597 0.58545 -0.09400
C 	C 	0.03434 0.46304 0.61620 0.14800
C 	C 	0.03122 0.48826 0.60430 -0.07900
C 	C 	0.00443 0.49662 0.56181 0.02300
C 	C 	0.98094 0.47949 0.53048 0.09200
C 	C 	0.98378 0.45430 0.54272 0.00300
H 	H 	0.04950 0.50140 0.62826 0.09100
C 	C 	0.00162 0.52326 0.54974 0.02000
H 	H 	0.96545 0.44118 0.51879 0.08200
C 	C 	0.03055 0.53414 0.51322 -0.07600
C 	C 	0.02680 0.55902 0.49833 0.14200
C 	C 	0.99377 0.57322 0.52017 -0.08400
C 	C 	0.96555 0.56250 0.55802 -0.00600
C 	C 	0.96951 0.53766 0.57319 0.09500
H 	H 	0.05551 0.52313 0.49553 0.09100
H 	H 	0.94038 0.57343 0.57541 0.08200
Br	Br	0.94507 0.49019 0.47062 -0.16900
Br	Br	0.07066 0.45232 0.67555 -0.23600
Br	Br	0.06599 0.57293 0.44611 -0.24900
Br	Br	0.93062 0.52366 0.62560 -0.17000
C 	C 	0.26358 0.61313 0.23664 0.09000
C 	C 	0.30456 0.60970 0.21831 -0.00800
H 	H 	0.31283 0.59279 0.19667 0.07600
H 	H 	0.14630 0.61748 0.39371 0.07400
Br	Br	0.22230 0.58878 0.21814 -0.17700
Br	Br	0.23415 0.60289 0.37648 -0.17500
C 	C 	0.64009 0.59574 0.22583 -0.10200
C 	C 	0.67268 0.61077 0.20531 0.14400
C 	C 	0.71310 0.60762 0.22581 -0.08000
C 	C 	0.72121 0.59052 0.26861 0.02600
C 	C 	0.68919 0.57486 0.28755 0.08500
C 	C 	0.64887 0.57742 0.26585 -0.00600
H 	H 	0.73778 0.61966 0.21111 0.08900
C 	C 	0.76088 0.59224 0.29957 0.02600
H 	H 	0.62409 0.56566 0.28136 0.07200
C 	C 	0.76431 0.60936 0.34346 -0.08000
C 	C 	0.80337 0.61607 0.36432 0.14400
C 	C 	0.83959 0.60459 0.34297 -0.10300
C 	C 	0.83583 0.58616 0.30178 -0.00600
C 	C 	0.79670 0.58006 0.27977 0.08500
H 	H 	0.73670 0.61870 0.35883 0.08800
H 	H 	0.86345 0.57709 0.28563 0.07500
Br	Br	0.69972 0.55040 0.34417 -0.17000
Br	Br	0.79286 0.55562 0.22159 -0.16800
C 	C 	0.52919 0.29726 0.06668 -0.08900
C 	C 	0.56763 0.28539 0.07705 0.15100
C 	C 	0.57027 0.26722 0.11872 -0.07500
C 	C 	0.53475 0.26017 0.14896 0.02700
C 	C 	0.49665 0.27231 0.13940 0.08700
C 	C 	0.49409 0.29081 0.09864 -0.00400
H 	H 	0.59961 0.25785 0.12599 0.09600
C 	C 	0.53671 0.23863 0.18672 0.02700
H 	H 	0.46463 0.30005 0.09140 0.07100
C 	C 	0.54048 0.24222 0.24493 -0.07600
C 	C 	0.53509 0.22239 0.28196 0.15400
C 	C 	0.52660 0.19868 0.26054 -0.08700
C 	C 	0.52597 0.19482 0.20228 -0.00800
C 	C 	0.53082 0.21466 0.16532 0.08800
H 	H 	0.54570 0.26060 0.26148 0.09500
H 	H 	0.51991 0.17654 0.18570 0.06200
Br	Br	0.44740 0.26329 0.18043 -0.17800
Br	Br	0.61612 0.29225 0.03228 -0.19800
Br	Br	0.53720 0.22826 0.36156 -0.17900
Br	Br	0.52698 0.20888 0.08578 -0.17500
C 	C 	0.51289 0.16369 0.56171 -0.08700
C 	C 	0.48161 0.18176 0.56898 0.15000
C 	C 	0.48602 0.19976 0.61081 -0.07600
C 	C 	0.52162 0.20027 0.64491 0.02500
C 	C 	0.55261 0.18215 0.63811 0.08900
C 	C 	0.54817 0.16401 0.59663 -0.00600
H 	H 	0.46221 0.21376 0.61586 0.09300
C 	C 	0.52722 0.22063 0.68549 0.02800
H 	H 	0.57217 0.15011 0.59160 0.07300
C 	C 	0.51298 0.21792 0.74093 -0.07900
C 	C 	0.51758 0.23721 0.77969 0.15300
C 	C 	0.53608 0.25960 0.76265 -0.09200
C 	C 	0.55066 0.26216 0.70735 -0.00900
C 	C 	0.54622 0.24287 0.66875 0.08600
H 	H 	0.49864 0.20075 0.75403 0.09300
H 	H 	0.56516 0.27928 0.69420 0.05700
Br	Br	0.60149 0.18207 0.68466 -0.17600
Br	Br	0.43389 0.18328 0.52036 -0.21100
Br	Br	0.50043 0.23212 0.85621 -0.18700
Br	Br	0.56632 0.24719 0.59331 -0.17600
C 	C 	0.37647 0.33739 0.82976 -0.09300
C 	C 	0.35963 0.36077 0.81759 0.14900
C 	C 	0.31920 0.36269 0.79617 -0.07800
C 	C 	0.29509 0.34144 0.78755 0.02600
C 	C 	0.31249 0.31800 0.79767 0.08600
C 	C 	0.35316 0.31608 0.81838 -0.00300
H 	H 	0.30611 0.38073 0.78753 0.09200
C 	C 	0.25125 0.34396 0.76990 0.02600
H 	H 	0.36609 0.29804 0.82757 0.07600
C 	C 	0.24093 0.34185 0.71283 -0.07600
C 	C 	0.19987 0.34548 0.69499 0.14700
C 	C 	0.16889 0.35194 0.73437 -0.08700
C 	C 	0.17903 0.35335 0.79169 -0.00500
C 	C 	0.21997 0.34930 0.80960 0.08700
H 	H 	0.26483 0.33733 0.68233 0.09300
H 	H 	0.15528 0.35807 0.82225 0.07700
Br	Br	0.28062 0.28848 0.78557 -0.17500
Br	Br	0.39132 0.39029 0.83060 -0.22800
Br	Br	0.18636 0.34046 0.61710 -0.19900
Br	Br	0.23263 0.35115 0.88843 -0.17900
C 	C 	0.66489 0.37619 0.84629 -0.10400
C 	C 	0.70167 0.36543 0.86760 0.14500
C 	C 	0.74034 0.37281 0.84661 -0.08100
C 	C 	0.74282 0.39015 0.80304 0.02600
C 	C 	0.70631 0.40157 0.78315 0.08400
C 	C 	0.66753 0.39459 0.80492 -0.00600
H 	H 	0.76845 0.36400 0.86195 0.08900
C 	C 	0.78257 0.39311 0.77283 0.02700
H 	H 	0.63940 0.40308 0.78877 0.07000
C 	C 	0.79129 0.37742 0.72750 -0.08100
C 	C 	0.83196 0.37505 0.70734 0.14500
C 	C 	0.86423 0.38928 0.73134 -0.10300
C 	C 	0.85485 0.40636 0.77386 -0.00500
C 	C 	0.81422 0.40828 0.79476 0.08500
H 	H 	0.76687 0.36584 0.71032 0.08800
H 	H 	0.87940 0.41758 0.79191 0.07400
Br	Br	0.70881 0.42635 0.72557 -0.17300
Br	Br	0.69978 0.33887 0.92120 -0.21400
Br	Br	0.84326 0.35036 0.65127 -0.22600
Br	Br	0.80268 0.43119 0.85432 -0.17100
C 	C 	0.51293 0.41889 0.00338 -0.07400
C 	C 	0.53596 0.43009 0.04687 0.15000
C 	C 	0.53244 0.45551 0.05611 -0.07800
C 	C 	0.50575 0.46983 0.02273 0.03200
C 	C 	0.48249 0.45859 0.97956 0.08600
C 	C 	0.48607 0.43319 0.97025 -0.02200
H 	H 	0.55013 0.46410 0.08963 0.09300
C 	C 	0.50190 0.49650 0.03379 0.02400
H 	H 	0.46819 0.42459 0.93689 0.06600
C 	C 	0.52840 0.51309 0.00607 -0.07100
C 	C 	0.52603 0.53840 0.01738 0.15600
C 	C 	0.49725 0.54720 0.05739 -0.09200
C 	C 	0.47009 0.53065 0.08403 -0.01100
C 	C 	0.47239 0.50538 0.07262 0.08800
H 	H 	0.55076 0.50632 0.97561 0.08800
H 	H 	0.44768 0.53740 0.11448 0.05500
Br	Br	0.44563 0.47763 0.93308 -0.18000
Br	Br	0.57110 0.41088 0.09541 -0.16800
Br	Br	0.56103 0.56070 0.97602 -0.17800
Br	Br	0.43520 0.48322 0.11072 -0.18200
C 	C 	0.37742 0.62445 0.20526 0.31200
C 	C 	0.19707 0.62473 0.33718 0.09100
O 	O 	0.40931 0.62938 0.23849 -0.35500
C 	C 	0.33472 0.62812 0.22703 -0.08800
C 	C 	0.15670 0.62812 0.35773 -0.00900
O 	O 	0.00162 0.63159 0.40192 -0.64100
Cu	Cu	0.46488 0.63722 0.21192 0.90200
O 	O 	0.51719 0.63524 0.06482 -0.32600
Cu	Cu	0.94165 0.63428 0.43737 0.93700
C 	C 	0.25293 0.63452 0.26698 0.02600
C 	C 	0.21041 0.63789 0.28942 0.02600
Br	Br	0.66211 0.63756 0.15416 -0.20800
Cu	Cu	0.55200 0.63966 0.25602 0.88800
Cu	Cu	0.03766 0.64071 0.46137 0.90600
O 	O 	0.52305 0.64306 0.18466 -0.63400
C 	C 	0.13004 0.64560 0.33316 -0.08800
Br	Br	0.80660 0.64289 0.41714 -0.21100
O 	O 	0.45282 0.64650 0.09568 -0.37800
C 	C 	0.48567 0.65074 0.06416 0.30000
C 	C 	0.08870 0.64984 0.35858 0.31400
O 	O 	0.08586 0.65129 0.41396 -0.36900
C 	C 	0.32324 0.65026 0.25434 0.14900
C 	C 	0.28283 0.65301 0.27547 -0.07900
Cu	Cu	0.91361 0.65631 0.31256 0.88800
O 	O 	0.05610 0.65377 0.32587 -0.35300
C 	C 	0.18378 0.65523 0.26440 -0.08000
H 	H 	0.52661 0.65950 0.16723 0.20000
Cu	Cu	0.00033 0.65965 0.35371 0.90100
O 	O 	0.94468 0.65719 0.50427 -0.33300
H 	H 	0.42468 0.66010 0.98981 0.06700
C 	C 	0.14417 0.65967 0.28686 0.15000
O 	O 	0.94195 0.66246 0.38317 -0.63000
Br	Br	0.52569 0.66248 0.41481 -0.23200
O 	O 	0.46206 0.66676 0.25967 -0.35100
H 	H 	0.19437 0.66581 0.22845 0.09200
O 	O 	0.53158 0.67101 0.28055 -0.38200
C 	C 	0.48468 0.67090 0.02268 -0.08400
H 	H 	0.27438 0.66979 0.29749 0.09300
C 	C 	0.49214 0.67520 0.29247 0.30600
C 	C 	0.97062 0.67587 0.50503 0.31000
O 	O 	0.00438 0.67525 0.47400 -0.37700
C 	C 	0.44993 0.67334 0.98733 -0.01300
H 	H 	0.93580 0.67894 0.39912 0.19900
Br	Br	0.36062 0.67788 0.25841 -0.19600
Br	Br	0.92868 0.68326 0.15288 -0.22400
Br	Br	0.56593 0.68563 0.06613 -0.20800
Br	Br	0.11210 0.68669 0.25723 -0.18300
O 	O 	0.99809 0.68856 0.30401 -0.35200
O 	O 	0.92751 0.68880 0.28692 -0.38200
C 	C 	0.51785 0.68790 0.01832 0.15400
C 	C 	0.44757 0.69278 0.94881 0.08900
C 	C 	0.49728 0.69181 0.39049 0.14800
C 	C 	0.48207 0.69402 0.33510 -0.08500
C 	C 	0.96567 0.69571 0.27372 0.30800
C 	C 	0.96404 0.69641 0.54462 -0.09500
H 	H 	0.02745 0.69551 0.57486 0.06200
Br	Br	0.39956 0.69543 0.90102 -0.18300
Br	Br	0.87932 0.69944 0.50080 -0.20700
C 	C 	0.99730 0.70440 0.57827 0.00000
C 	C 	0.92481 0.70800 0.54955 0.15100
C 	C 	0.48000 0.71020 0.94584 0.02600
C 	C 	0.51534 0.70739 0.97985 -0.08400
C 	C 	0.49073 0.71088 0.42915 -0.07700
H 	H 	0.50315 0.70932 0.47139 0.09300
C 	C 	0.95406 0.71347 0.17768 0.15000
C 	C 	0.45860 0.71484 0.31994 -0.00200
C 	C 	0.97124 0.71559 0.23206 -0.08700
H 	H 	0.50798 0.71604 0.83970 0.09300
H 	H 	0.44644 0.71654 0.27760 0.08500
H 	H 	0.54041 0.72075 0.97744 0.09300
C 	C 	0.91926 0.72707 0.58855 -0.07700
C 	C 	0.99188 0.72374 0.61644 0.08800
Br	Br	0.39336 0.72671 0.49953 -0.17500
H 	H 	0.94270 0.73179 0.09880 0.09500
C 	C 	0.49135 0.73208 0.85512 -0.07800
C 	C 	0.46840 0.73203 0.41349 0.02700
C 	C 	0.95661 0.73332 0.14019 -0.07600
C 	C 	0.95273 0.73523 0.62152 0.02600
H 	H 	0.93521 0.73462 0.73245 0.09300
Br	Br	0.03855 0.73458 0.66054 -0.19200
C 	C 	0.47581 0.73234 0.91026 0.02800
C 	C 	0.45164 0.73379 0.35889 0.08800
C 	C 	0.99271 0.73717 0.24713 0.00300
H 	H 	0.00647 0.73880 0.28859 0.07500
H 	H 	0.88921 0.73607 0.59203 0.09400
C 	C 	0.48447 0.75219 0.81933 0.15400
Br	Br	0.50482 0.75089 0.74345 -0.20200
C 	C 	0.46474 0.75278 0.45349 0.02700
C 	C 	0.43366 0.75282 0.49530 0.08700
C 	C 	0.97696 0.75515 0.15587 0.02600
C 	C 	0.99568 0.75691 0.20930 0.09000
Br	Br	0.04826 0.75382 0.06345 -0.17300
C 	C 	0.94045 0.75309 0.71643 -0.07700
C 	C 	0.45472 0.75333 0.93040 0.08300
Br	Br	0.43478 0.75481 0.00649 -0.17300
C 	C 	0.94733 0.75674 0.65876 0.02700
Br	Br	0.93716 0.76692 0.83308 -0.19200
Br	Br	0.41924 0.76195 0.33680 -0.16700
C 	C 	0.94288 0.77297 0.75387 0.15600
C 	C 	0.46186 0.77274 0.83885 -0.08800
C 	C 	0.44766 0.77333 0.89458 -0.00200
C 	C 	0.49337 0.77228 0.45075 -0.07800
C 	C 	0.43173 0.77221 0.53418 -0.00500
H 	H 	0.51715 0.77237 0.41839 0.09300
H 	H 	0.40785 0.77215 0.56640 0.06800
C 	C 	0.97658 0.77652 0.11727 0.03400
C 	C 	0.00561 0.77830 0.07304 0.08200
C 	C 	0.95325 0.78080 0.63794 0.08700
Br	Br	0.02538 0.78611 0.23129 -0.17300
Br	Br	0.96101 0.78666 0.55896 -0.18200
H 	H 	0.43071 0.78928 0.90991 0.06500
C 	C 	0.46059 0.79162 0.53171 -0.09000
C 	C 	0.45115 0.79309 0.80085 0.31300
C 	C 	0.94626 0.79490 0.12399 -0.07900
H 	H 	0.92410 0.79368 0.15828 0.09400
C 	C 	0.49120 0.79179 0.48920 0.15300
O 	O 	0.41157 0.79731 0.78999 -0.38500
C 	C 	0.00375 0.79824 0.03566 -0.00600
H 	H 	0.02597 0.79947 0.00144 0.06800
C 	C 	0.95149 0.79682 0.73331 -0.08900
C 	C 	0.95515 0.80070 0.67523 -0.00600
H 	H 	0.42099 0.80625 0.68014 0.19000
Br	Br	0.58551 0.80765 0.81246 -0.19200
C 	C 	0.45779 0.81198 0.57244 0.30700
O 	O 	0.48044 0.80905 0.78649 -0.35500
O 	O 	0.48938 0.81685 0.60567 -0.36200
C 	C 	0.96249 0.81692 0.77186 0.31700
Br	Br	0.83298 0.81381 0.82046 -0.19400
C 	C 	0.97315 0.81652 0.04206 -0.08900
C 	C 	0.94469 0.81500 0.08711 0.15600
H 	H 	0.96120 0.81909 0.65923 0.06300
Br	Br	0.52887 0.81911 0.48104 -0.21200
O 	O 	0.42439 0.82597 0.57369 -0.33800
O 	O 	0.42210 0.82337 0.69469 -0.63400
O 	O 	0.93359 0.82617 0.80555 -0.34800
O 	O 	0.00159 0.82424 0.77407 -0.40200
H 	H 	0.74714 0.82451 0.78270 0.08900
Cu	Cu	0.39141 0.82829 0.76379 0.89600
H 	H 	0.00559 0.83090 0.88836 0.18600
Br	Br	0.29446 0.82642 0.76819 -0.28500
H 	H 	0.66688 0.82710 0.84971 0.08900
Cu	Cu	0.47833 0.83291 0.72398 0.90400
C 	C 	0.97158 0.83731 0.00225 0.32300
C 	C 	0.61835 0.83569 0.79036 0.14800
C 	C 	0.65730 0.83912 0.81563 -0.08000
O 	O 	0.93706 0.84197 0.97455 -0.37400
C 	C 	0.75626 0.84033 0.80773 -0.08000
C 	C 	0.79677 0.84177 0.82914 0.14600
Br	Br	0.90501 0.84084 0.10098 -0.21300
O 	O 	0.53112 0.84515 0.75107 -0.35600
O 	O 	0.99952 0.84789 0.87539 -0.63300
Cu	Cu	0.41337 0.84968 0.63790 0.93300
C 	C 	0.56433 0.84867 0.71932 0.31300
O 	O 	0.56146 0.85173 0.66412 -0.36700
O 	O 	0.00425 0.85173 0.99617 -0.34900
C 	C 	0.60552 0.85153 0.74640 -0.08800
Cu	Cu	0.51021 0.85473 0.61621 0.90900
Cu	Cu	0.01894 0.85582 0.80023 0.87600
Cu	Cu	0.93967 0.85397 0.85805 0.90100
H 	H 	0.22050 0.85664 0.79512 0.08800
O 	O 	0.47095 0.85999 0.67390 -0.64000
C 	C 	0.28134 0.86074 0.75851 0.15300
C 	C 	0.68477 0.85720 0.79547 0.02600
C 	C 	0.72718 0.85894 0.81940 0.02500
O 	O 	0.35765 0.86169 0.66340 -0.34400
O 	O 	0.37799 0.86203 0.75465 -0.41600
O 	O 	0.88274 0.86242 0.83984 -0.35900
C 	C 	0.80927 0.86278 0.85995 -0.08800
C 	C 	0.35120 0.86840 0.71574 0.31500
C 	C 	0.85314 0.86606 0.87743 0.31300
C 	C 	0.24229 0.86928 0.77554 -0.08100
C 	C 	0.67278 0.87222 0.74989 0.08900
C 	C 	0.63296 0.86978 0.72669 -0.00900
O 	O 	0.48017 0.87532 0.55974 -0.34300
O 	O 	0.41257 0.87837 0.59091 -0.34100
H 	H 	0.47263 0.87637 0.69224 0.17600
Cu	Cu	0.01045 0.87480 0.92944 0.93100
O 	O 	0.86098 0.87771 0.92522 -0.36900
C 	C 	0.30967 0.87704 0.73263 -0.10300
Cu	Cu	0.91560 0.87979 0.96541 0.90600
H 	H 	0.62359 0.88183 0.69258 0.07300
C 	C 	0.77970 0.88103 0.87313 -0.00900
C 	C 	0.73857 0.87887 0.85421 0.09000
O 	O 	0.94965 0.88347 0.90092 -0.63600
O 	O 	0.06369 0.88674 0.89597 -0.34100
Br	Br	0.16555 0.88474 0.66675 -0.18300
C 	C 	0.44653 0.88864 0.56999 0.30200
O 	O 	0.03334 0.88937 0.81070 -0.42700
H 	H 	0.08893 0.88876 0.73522 0.05000
C 	C 	0.06475 0.89457 0.84378 0.31300
C 	C 	0.15471 0.89509 0.74259 0.08100
C 	C 	0.11373 0.89518 0.76243 -0.01300
C 	C 	0.23052 0.89380 0.76558 0.02500
Br	Br	0.71103 0.89535 0.71697 -0.18100
O 	O 	0.95036 0.90094 0.01553 -0.34200
H 	H 	0.94556 0.89899 0.87964 0.17600
H 	H 	0.78868 0.89695 0.89789 0.07600
Br	Br	0.48690 0.89973 0.44727 -0.17500
O 	O 	0.01424 0.90429 0.97316 -0.33000
C 	C 	0.10514 0.90179 0.81845 -0.10400
C 	C 	0.18756 0.90153 0.77885 0.02800
C 	C 	0.29820 0.90168 0.72329 -0.00000
Br	Br	0.69819 0.90295 0.87747 -0.18000
C 	C 	0.13734 0.91192 0.85169 0.15200
C 	C 	0.17853 0.91120 0.83222 -0.08200
C 	C 	0.25873 0.91014 0.73961 0.08600
C 	C 	0.98194 0.91451 0.99820 0.29400
H 	H 	0.20361 0.91740 0.85926 0.09300
H 	H 	0.31988 0.91426 0.70328 0.07100
C 	C 	0.44475 0.91456 0.55077 -0.08700
C 	C 	0.46732 0.92261 0.50313 0.14600
Br	Br	0.05295 0.92423 0.08918 -0.16000
H 	H 	0.40412 0.92587 0.61856 0.07000
Br	Br	0.12548 0.92825 0.92162 -0.18000
C 	C 	0.42285 0.93192 0.58321 -0.01200
C 	C 	0.98494 0.94026 0.01694 -0.06400
Br	Br	0.24365 0.94383 0.72532 -0.17000
C 	C 	0.01657 0.94783 0.05426 0.14600
C 	C 	0.47230 0.94789 0.49327 -0.08000
H 	H 	0.93281 0.95197 0.96624 0.06100
H 	H 	0.49104 0.95407 0.45806 0.08800
C 	C 	0.95726 0.95775 0.99479 -0.03200
C 	C 	0.42584 0.95711 0.57113 0.09000
C 	C 	0.45255 0.96524 0.52798 0.02500
C 	C 	0.02094 0.97285 0.06761 -0.07600
H 	H 	0.04536 0.97867 0.09617 0.09500
Br	Br	0.39276 0.98010 0.61342 -0.17300
C 	C 	0.96168 0.98275 0.00809 0.10400
C 	C 	0.99376 0.99039 0.04450 0.02600
C 	C 	0.45986 0.99183 0.51855 0.02600
H 	H 	0.42540 0.99242 0.44069 0.09200
Br	Br	0.51200 0.99010 0.61859 -0.18900
