data_crystal

_cell_length_a 39.09931
_cell_length_b 36.91436
_cell_length_c 47.30545
_cell_angle_alpha 104.42158
_cell_angle_beta  116.11998
_cell_angle_gamma 110.61619

_symmetry_space_group_name_	'P 1'
_symmetry_space_group_name_H-M	'P 1'

loop_
_symmetry_equiv_pos_as_xyz
  x,y,z

loop_
_atom_site_label
_atom_site_type_symbol
_atom_site_fract_x
_atom_site_fract_y
_atom_site_fract_z
_atom_site_charge
C 	C 	0.19814 0.08742 0.90614 0.01000
C 	C 	0.21130 0.12702 0.90440 -0.05100
C 	C 	0.24284 0.14151 0.89658 0.00900
C 	C 	0.25904 0.11487 0.88867 -0.05000
C 	C 	0.25031 0.07846 0.89477 0.00400
C 	C 	0.21839 0.06374 0.90207 -0.04900
H 	H 	0.19826 0.14709 0.91032 0.05600
H 	H 	0.28180 0.12480 0.88103 0.05100
H 	H 	0.21065 0.03495 0.90600 0.05100
C 	C 	0.35858 0.16686 0.48429 0.02100
C 	C 	0.37287 0.20709 0.48369 -0.06500
C 	C 	0.40835 0.22430 0.48057 0.05900
C 	C 	0.42928 0.20116 0.47758 -0.06800
C 	C 	0.41648 0.16197 0.47968 0.01700
C 	C 	0.38028 0.14416 0.48202 -0.05800
H 	H 	0.35729 0.22557 0.48670 0.06600
H 	H 	0.45726 0.21497 0.47576 0.05600
H 	H 	0.37008 0.11361 0.48336 0.04900
C 	C 	0.16411 0.35126 0.96241 0.06600
C 	C 	0.14046 0.37275 0.96008 -0.07800
C 	C 	0.09973 0.35302 0.95634 0.06800
C 	C 	0.08376 0.31272 0.95664 -0.07200
C 	C 	0.10803 0.29172 0.96016 0.03100
C 	C 	0.14907 0.31193 0.96429 -0.06900
H 	H 	0.15199 0.40309 0.95855 0.07300
H 	H 	0.05140 0.29667 0.95229 0.06300
H 	H 	0.16779 0.29571 0.96669 0.06200
C 	C 	0.32478 0.43103 0.53501 0.06000
C 	C 	0.30424 0.38784 0.52974 -0.06500
C 	C 	0.26514 0.37006 0.52870 0.01900
C 	C 	0.24555 0.39510 0.53120 -0.05800
C 	C 	0.26456 0.43731 0.53434 0.01800
C 	C 	0.30565 0.45613 0.53851 -0.06900
H 	H 	0.31797 0.36778 0.52556 0.06600
H 	H 	0.21469 0.38114 0.52934 0.05100
H 	H 	0.32110 0.48921 0.54197 0.05600
Zn	Zn	0.02638 0.55118 0.96722 1.18500
Zn	Zn	0.95035 0.51821 0.89296 1.19400
O 	O 	0.94575 0.44261 0.83720 -0.46700
O 	O 	0.93190 0.49844 0.84156 -0.43800
O 	O 	0.93827 0.38565 0.88263 -0.48800
C 	C 	0.06579 0.52552 0.93448 0.33100
O 	O 	0.90815 0.45793 0.87973 -0.87200
C 	C 	0.02563 0.61489 0.94027 0.34900
O 	O 	0.07540 0.55127 0.96508 -0.44400
O 	O 	0.02401 0.49360 0.90864 -0.35300
O 	O 	0.96550 0.52462 0.94191 -0.76700
O 	O 	0.98135 0.44606 0.93753 -0.43900
O 	O 	0.99218 0.58112 0.90767 -0.44000
O 	O 	0.04030 0.60938 0.96888 -0.45300
Zn	Zn	0.82728 0.38815 0.89519 1.17600
Zn	Zn	0.90438 0.41113 0.96205 1.18700
Zn	Zn	0.92488 0.46433 0.92654 1.21800
C 	C 	0.82501 0.31844 0.91643 0.34700
C 	C 	0.80399 0.41455 0.94148 0.31000
O 	O 	0.86736 0.48265 0.91437 -0.47200
Zn	Zn	0.91024 0.49151 0.98705 1.19800
O 	O 	0.86277 0.34969 0.94815 -0.43700
O 	O 	0.80389 0.32795 0.89156 -0.46300
O 	O 	0.79254 0.40453 0.90875 -0.47900
O 	O 	0.84536 0.42797 0.96704 -0.47200
C 	C 	0.94025 0.46411 0.04063 0.31300
O 	O 	0.88445 0.40443 0.91178 -0.79200
C 	C 	0.86500 0.51144 0.93525 0.35500
O 	O 	0.93223 0.42937 0.01588 -0.41900
O 	O 	0.93722 0.49615 0.03449 -0.46100
O 	O 	0.88168 0.51985 0.96857 -0.48200
O 	O 	0.94041 0.47105 0.97289 -0.89300
Zn	Zn	0.91885 0.41655 0.85950 1.18800
C 	C 	0.94032 0.47097 0.82629 0.30700
C 	C 	0.97353 0.40885 0.91618 0.30900
H 	H 	0.97285 0.48544 0.99180 0.17200
H 	H 	0.87644 0.44906 0.86389 0.14800
Zn	Zn	0.18304 0.63487 0.54263 1.18800
Zn	Zn	0.10398 0.59908 0.46749 1.19700
O 	O 	0.09907 0.52941 0.40828 -0.46300
O 	O 	0.07762 0.57952 0.41444 -0.42600
O 	O 	0.11137 0.47563 0.45861 -0.49400
C 	C 	0.22113 0.61250 0.50796 0.33600
O 	O 	0.06711 0.53802 0.45546 -0.87600
C 	C 	0.18001 0.69540 0.51267 0.34600
O 	O 	0.23162 0.63605 0.53957 -0.44600
O 	O 	0.17906 0.58169 0.48176 -0.36500
O 	O 	0.12220 0.60529 0.51725 -0.77300
O 	O 	0.14623 0.53247 0.51371 -0.44000
O 	O 	0.14523 0.66129 0.48070 -0.43900
O 	O 	0.19327 0.69157 0.54206 -0.44500
Zn	Zn	0.99025 0.46263 0.46890 1.18200
Zn	Zn	0.07044 0.48617 0.53533 1.19900
Zn	Zn	0.08545 0.54385 0.50206 1.21900
C 	C 	0.99184 0.39464 0.49198 0.30800
C 	C 	0.96578 0.48720 0.51458 0.30600
O 	O 	0.02562 0.55814 0.49112 -0.45100
Zn	Zn	0.07101 0.56524 0.56322 1.20100
O 	O 	0.03514 0.42235 0.51802 -0.43500
O 	O 	0.96998 0.40334 0.46676 -0.45500
O 	O 	0.95298 0.47495 0.48136 -0.45300
O 	O 	0.00673 0.49881 0.53933 -0.47000
C 	C 	0.09257 0.52906 0.61066 0.31400
O 	O 	0.04842 0.48282 0.48614 -0.79100
C 	C 	0.02238 0.58489 0.51281 0.35100
O 	O 	0.09085 0.49873 0.58714 -0.41100
O 	O 	0.09648 0.56517 0.60887 -0.46400
O 	O 	0.04070 0.59280 0.54617 -0.49600
O 	O 	0.10224 0.54830 0.54831 -0.88600
Zn	Zn	0.08417 0.50315 0.43599 1.19000
C 	C 	0.08242 0.55152 0.39535 0.31100
C 	C 	0.14261 0.49761 0.49334 0.35200
H 	H 	0.13497 0.56420 0.56701 0.18000
H 	H 	0.03452 0.52599 0.43928 0.15800
C 	C 	0.08656 0.52088 0.63755 -0.08500
C 	C 	0.05520 0.47835 0.62796 0.01800
C 	C 	0.04092 0.47222 0.64972 -0.04300
C 	C 	0.05800 0.50853 0.68133 0.01500
C 	C 	0.10593 0.55664 0.67044 0.01700
C 	C 	0.03885 0.50313 0.70183 0.10900
N 	N 	0.02946 0.46783 0.70768 -0.07700
N 	N 	0.01126 0.46250 0.72557 -0.07800
C 	C 	0.00155 0.49212 0.73786 0.10700
N 	N 	0.01086 0.52737 0.73190 -0.07700
N 	N 	0.02930 0.53282 0.71419 -0.07600
C 	C 	0.98154 0.48625 0.75788 0.01100
C 	C 	0.94061 0.43874 0.77355 0.01600
C 	C 	0.94965 0.47567 0.80000 -0.08800
C 	C 	0.97240 0.51761 0.80383 0.01400
C 	C 	0.98873 0.52300 0.78319 -0.04500
C 	C 	0.09159 0.55053 0.69215 -0.04800
C 	C 	0.95629 0.44395 0.75253 -0.04800
H 	H 	0.03991 0.45047 0.60263 0.04400
H 	H 	0.01515 0.43959 0.64118 0.06900
H 	H 	0.10585 0.57861 0.71696 0.05400
H 	H 	0.13079 0.58948 0.67850 0.03500
H 	H 	0.94929 0.41514 0.73240 0.05900
H 	H 	0.92223 0.40606 0.76979 0.02700
H 	H 	0.00790 0.55583 0.78754 0.06400
H 	H 	0.97879 0.54624 0.82363 0.05700
C 	C 	0.95229 0.46707 0.07560 -0.08400
C 	C 	0.98720 0.46143 0.09575 0.01300
C 	C 	0.00259 0.47031 0.13105 -0.04600
C 	C 	0.98299 0.48472 0.14635 0.00800
C 	C 	0.93143 0.47952 0.09035 0.01600
C 	C 	0.00158 0.49793 0.18448 0.10300
N 	N 	0.01699 0.47537 0.19968 -0.08200
N 	N 	0.03218 0.48636 0.23375 -0.08300
C 	C 	0.03242 0.52026 0.25361 0.10200
N 	N 	0.01749 0.54312 0.23852 -0.08200
N 	N 	0.00233 0.53214 0.20447 -0.08200
C 	C 	0.04720 0.53109 0.29078 0.00900
C 	C 	0.09503 0.53528 0.34754 0.01500
C 	C 	0.07220 0.54724 0.36029 -0.08400
C 	C 	0.03779 0.55248 0.33853 0.01000
C 	C 	0.02532 0.54441 0.30395 -0.04700
C 	C 	0.94662 0.48822 0.12547 -0.04700
C 	C 	0.08256 0.52720 0.31297 -0.04800
H 	H 	0.00344 0.45170 0.08457 0.03600
H 	H 	0.03055 0.46727 0.14680 0.05400
H 	H 	0.93044 0.49820 0.13661 0.05400
H 	H 	0.90391 0.48321 0.07475 0.03600
H 	H 	0.10033 0.51783 0.30343 0.05400
H 	H 	0.12228 0.53201 0.36432 0.04700
H 	H 	0.99794 0.54750 0.28710 0.05200
H 	H 	0.01986 0.56163 0.34800 0.03600
C 	C 	0.24368 0.32451 0.52357 0.05100
C 	C 	0.19698 0.29498 0.49857 -0.08200
C 	C 	0.17648 0.25298 0.49510 0.04800
C 	C 	0.20249 0.23925 0.51561 -0.13000
C 	C 	0.24979 0.26769 0.53885 0.16500
C 	C 	0.26991 0.31061 0.54368 -0.11200
H 	H 	0.14028 0.23118 0.47658 0.02900
H 	H 	0.30601 0.33289 0.56269 0.08800
H 	H 	0.17649 0.30464 0.48196 0.05400
Br	Br	0.28778 0.24730 0.56120 -0.24000
C 	C 	0.43130 0.47664 0.52184 -0.06000
C 	C 	0.38896 0.46835 0.49686 -0.00600
C 	C 	0.35453 0.45346 0.50135 -0.03000
C 	C 	0.36209 0.44750 0.53124 -0.03400
C 	C 	0.40515 0.45772 0.55732 0.10000
C 	C 	0.43947 0.47200 0.55243 -0.04200
H 	H 	0.32174 0.44628 0.48141 0.04000
H 	H 	0.47220 0.47893 0.57220 0.06800
H 	H 	0.38246 0.47280 0.47362 0.05500
Br	Br	0.41810 0.45356 0.60013 -0.23500
C 	C 	0.23823 0.45876 0.52771 0.05100
C 	C 	0.23014 0.47180 0.50113 -0.08700
C 	C 	0.20102 0.48710 0.49167 0.05300
C 	C 	0.17874 0.48867 0.50802 -0.15400
C 	C 	0.18827 0.47753 0.53588 0.17300
C 	C 	0.21832 0.46305 0.54585 -0.11900
H 	H 	0.19458 0.49640 0.47071 0.02300
H 	H 	0.22516 0.45398 0.56694 0.08200
H 	H 	0.24530 0.46871 0.48695 0.05300
Br	Br	0.15887 0.47947 0.55923 -0.33600
C 	C 	0.08818 0.24656 0.95577 0.05000
C 	C 	0.07174 0.23711 0.97576 -0.08000
C 	C 	0.05070 0.19397 0.97011 0.04900
C 	C 	0.04653 0.15986 0.94488 -0.13500
C 	C 	0.06429 0.16956 0.92556 0.16800
C 	C 	0.08403 0.21252 0.93048 -0.11200
H 	H 	0.03766 0.18704 0.98541 0.03500
H 	H 	0.09640 0.21948 0.91479 0.09200
H 	H 	0.07504 0.26314 0.99553 0.05600
Br	Br	0.06535 0.12579 0.89462 -0.26100
C 	C 	0.26825 0.39828 0.94692 -0.06400
C 	C 	0.27683 0.41957 0.98045 -0.00500
C 	C 	0.24300 0.40371 0.98560 -0.03600
C 	C 	0.20036 0.36627 0.95736 -0.03000
C 	C 	0.19183 0.34461 0.92376 0.10000
C 	C 	0.22572 0.36058 0.91874 -0.03700
H 	H 	0.24982 0.42069 0.01147 0.04800
H 	H 	0.21904 0.34338 0.89298 0.06300
H 	H 	0.30956 0.44858 0.00244 0.04200
Br	Br	0.13389 0.29355 0.88419 -0.22300
C 	C 	0.00861 0.39802 0.92746 -0.06900
C 	C 	0.03487 0.40617 0.96288 0.00300
C 	C 	0.06577 0.39277 0.97256 -0.03000
C 	C 	0.07066 0.37116 0.94693 -0.03000
C 	C 	0.04519 0.36411 0.91163 0.09900
C 	C 	0.01477 0.37798 0.90221 -0.03000
H 	H 	0.08522 0.39833 0.99978 0.04300
H 	H 	0.99543 0.37259 0.87504 0.06000
H 	H 	0.03061 0.42188 0.98265 0.02700
Br	Br	0.04991 0.33377 0.87543 -0.21700
C 	C 	0.44510 0.14347 0.48495 0.05400
C 	C 	0.49011 0.16907 0.51482 -0.09000
C 	C 	0.51631 0.15053 0.52197 0.05300
C 	C 	0.49769 0.10592 0.49971 -0.15800
C 	C 	0.45331 0.08096 0.46805 0.17100
C 	C 	0.42716 0.09984 0.46106 -0.12300
H 	H 	0.55067 0.17034 0.54580 0.01800
H 	H 	0.39276 0.08043 0.43731 0.07800
H 	H 	0.50437 0.20302 0.53315 0.06400
C 	C 	0.46864 0.35140 0.48912 -0.06100
C 	C 	0.43427 0.31404 0.45532 -0.00300
C 	C 	0.41329 0.27278 0.45270 -0.03200
C 	C 	0.42645 0.26846 0.48380 -0.03300
C 	C 	0.45996 0.30609 0.51780 0.10100
C 	C 	0.48085 0.34736 0.52032 -0.03900
H 	H 	0.38754 0.24394 0.42647 0.04100
H 	H 	0.50667 0.37625 0.54652 0.07000
H 	H 	0.42447 0.31681 0.43105 0.03800
Br	Br	0.47830 0.30152 0.56102 -0.23700
C 	C 	0.32192 0.14941 0.48850 0.05200
C 	C 	0.32870 0.13960 0.51665 -0.07900
C 	C 	0.29530 0.12676 0.52246 0.05000
C 	C 	0.25519 0.12441 0.50066 -0.13200
C 	C 	0.24855 0.13469 0.47258 0.16600
C 	C 	0.28129 0.14576 0.46601 -0.11300
H 	H 	0.30079 0.11909 0.54417 0.02900
H 	H 	0.27587 0.15321 0.44420 0.07900
H 	H 	0.36014 0.14271 0.53439 0.05900
Br	Br	0.19747 0.13840 0.44532 -0.25000
C 	C 	0.28028 0.06124 0.90013 0.06600
C 	C 	0.26230 0.01559 0.88370 -0.11700
C 	C 	0.29055 0.99928 0.89352 0.07900
C 	C 	0.33701 0.02849 0.91958 -0.17200
C 	C 	0.35546 0.07428 0.93375 0.17600
C 	C 	0.32709 0.09049 0.92441 -0.12700
H 	H 	0.34134 0.12582 0.93686 0.08200
H 	H 	0.22633 0.99275 0.86429 0.07000
Br	Br	0.41938 0.11511 0.96569 -0.27900
C 	C 	0.26373 0.18698 0.90160 0.05400
C 	C 	0.23706 0.20366 0.88704 -0.08400
C 	C 	0.25713 0.24648 0.89179 0.04900
C 	C 	0.30397 0.27255 0.91002 -0.13900
C 	C 	0.33051 0.25494 0.92312 0.16700
C 	C 	0.31061 0.21334 0.92038 -0.11600
H 	H 	0.23630 0.25948 0.88147 0.03300
H 	H 	0.33158 0.20102 0.93212 0.08000
H 	H 	0.20083 0.18352 0.87209 0.06000
Br	Br	0.39301 0.28492 0.94146 -0.26200
C 	C 	0.16438 0.07154 0.91357 0.05400
C 	C 	0.11958 0.05688 0.88808 -0.07500
C 	C 	0.08715 0.04001 0.89434 0.05100
C 	C 	0.09928 0.03830 0.92648 -0.12800
C 	C 	0.14396 0.05128 0.95148 0.16600
C 	C 	0.17640 0.06841 0.94515 -0.11300
H 	H 	0.05272 0.02922 0.87456 0.03800
H 	H 	0.21078 0.07862 0.96448 0.08000
H 	H 	0.10985 0.05840 0.86333 0.06300
Br	Br	0.16043 0.04228 0.99266 -0.25500
C 	C 	0.19814 0.58742 0.90614 0.01100
C 	C 	0.21130 0.62702 0.90440 -0.05200
C 	C 	0.25904 0.61487 0.88867 -0.05300
C 	C 	0.25031 0.57846 0.89477 0.00900
C 	C 	0.21839 0.56374 0.90207 -0.05200
H 	H 	0.28180 0.62481 0.88103 0.05100
H 	H 	0.21065 0.53495 0.90600 0.05300
C 	C 	0.35858 0.66686 0.48429 0.02100
C 	C 	0.37287 0.70710 0.48369 -0.06500
C 	C 	0.42928 0.70116 0.47758 -0.06800
C 	C 	0.41648 0.66197 0.47968 0.01700
C 	C 	0.38028 0.64416 0.48202 -0.05800
H 	H 	0.45726 0.71497 0.47576 0.05600
H 	H 	0.37008 0.61361 0.48336 0.05000
Zn	Zn	0.02638 0.05118 0.96722 1.18400
Zn	Zn	0.95035 0.01821 0.89296 1.19200
O 	O 	0.93190 0.99844 0.84156 -0.43300
C 	C 	0.06579 0.02552 0.93448 0.32200
C 	C 	0.02563 0.11489 0.94027 0.34900
O 	O 	0.07540 0.05127 0.96508 -0.44300
O 	O 	0.02401 0.99360 0.90864 -0.34400
O 	O 	0.96550 0.02462 0.94191 -0.77100
O 	O 	0.99218 0.08112 0.90767 -0.44100
O 	O 	0.04030 0.10937 0.96888 -0.45400
O 	O 	0.86736 0.98265 0.91437 -0.46600
C 	C 	0.86500 0.01144 0.93525 0.35200
O 	O 	0.88168 0.01985 0.96857 -0.48600
H 	H 	0.97285 0.98544 0.99180 0.17400
Zn	Zn	0.18304 0.13487 0.54263 1.18800
Zn	Zn	0.10398 0.09908 0.46749 1.19700
O 	O 	0.07762 0.07952 0.41444 -0.42600
C 	C 	0.22113 0.11250 0.50796 0.33500
C 	C 	0.18001 0.19540 0.51267 0.34600
O 	O 	0.23162 0.13605 0.53957 -0.44700
O 	O 	0.17906 0.08169 0.48176 -0.36700
O 	O 	0.12220 0.10529 0.51725 -0.77300
O 	O 	0.14523 0.16129 0.48070 -0.43900
O 	O 	0.19327 0.19157 0.54206 -0.44500
O 	O 	0.02562 0.05814 0.49112 -0.45200
C 	C 	0.02238 0.08489 0.51281 0.35000
O 	O 	0.04070 0.09280 0.54617 -0.49800
H 	H 	0.13497 0.06420 0.56701 0.17900
C 	C 	0.10593 0.05664 0.67044 0.01700
N 	N 	0.01086 0.02737 0.73190 -0.08200
N 	N 	0.02930 0.03282 0.71419 -0.07600
C 	C 	0.97240 0.01761 0.80383 0.00600
C 	C 	0.98873 0.02300 0.78319 -0.04900
C 	C 	0.09159 0.05053 0.69215 -0.04800
H 	H 	0.10585 0.07861 0.71696 0.05300
H 	H 	0.13079 0.08948 0.67850 0.03400
H 	H 	0.00790 0.05583 0.78754 0.06300
H 	H 	0.97879 0.04624 0.82363 0.05800
C 	C 	0.03242 0.02026 0.25361 0.09400
N 	N 	0.01749 0.04312 0.23852 -0.08200
N 	N 	0.00233 0.03214 0.20447 -0.08800
C 	C 	0.04720 0.03109 0.29078 0.01000
C 	C 	0.03779 0.05249 0.33853 0.01100
C 	C 	0.02532 0.04441 0.30395 -0.04900
H 	H 	0.99794 0.04750 0.28710 0.05200
H 	H 	0.01986 0.06163 0.34800 0.03500
Br	Br	0.28778 0.74730 0.56120 -0.23900
Br	Br	0.06535 0.62579 0.89462 -0.26000
C 	C 	0.44510 0.64347 0.48495 0.05400
C 	C 	0.49011 0.66907 0.51482 -0.09000
C 	C 	0.51631 0.65053 0.52197 0.05300
C 	C 	0.49769 0.60592 0.49971 -0.15700
C 	C 	0.45331 0.58096 0.46805 0.17100
C 	C 	0.42716 0.59984 0.46106 -0.12300
H 	H 	0.55067 0.67034 0.54580 0.01800
H 	H 	0.39276 0.58043 0.43731 0.07800
H 	H 	0.50437 0.70302 0.53315 0.06400
Br	Br	0.42782 0.52172 0.43373 -0.30800
C 	C 	0.32192 0.64941 0.48850 0.05200
C 	C 	0.32870 0.63960 0.51665 -0.07900
C 	C 	0.29530 0.62676 0.52246 0.05100
C 	C 	0.25519 0.62441 0.50066 -0.13100
C 	C 	0.24855 0.63469 0.47258 0.16700
C 	C 	0.28129 0.64576 0.46601 -0.11200
H 	H 	0.30079 0.61909 0.54417 0.03000
H 	H 	0.27587 0.65321 0.44420 0.07900
H 	H 	0.36014 0.64271 0.53439 0.06000
Br	Br	0.19747 0.63841 0.44532 -0.24900
C 	C 	0.28028 0.56124 0.90013 0.05500
C 	C 	0.26230 0.51559 0.88370 -0.08900
C 	C 	0.29055 0.49928 0.89352 0.05100
C 	C 	0.33701 0.52849 0.91958 -0.15600
C 	C 	0.35546 0.57428 0.93375 0.16900
C 	C 	0.32709 0.59049 0.92441 -0.11900
H 	H 	0.27613 0.46395 0.88202 0.01700
H 	H 	0.34134 0.62582 0.93686 0.08100
H 	H 	0.22633 0.49275 0.86429 0.05700
Br	Br	0.41938 0.61511 0.96569 -0.27600
C 	C 	0.16438 0.57154 0.91357 0.05400
C 	C 	0.11958 0.55688 0.88808 -0.07500
C 	C 	0.08715 0.54001 0.89434 0.05200
C 	C 	0.09928 0.53830 0.92648 -0.13000
C 	C 	0.14396 0.55128 0.95148 0.16700
C 	C 	0.17640 0.56841 0.94515 -0.11300
H 	H 	0.05272 0.52922 0.87456 0.04000
H 	H 	0.21078 0.57862 0.96448 0.08000
H 	H 	0.10985 0.55841 0.86333 0.06400
Br	Br	0.16043 0.54228 0.99266 -0.25100
C 	C 	0.69814 0.08742 0.90614 0.00900
C 	C 	0.71130 0.12702 0.90440 -0.05200
C 	C 	0.74284 0.14151 0.89658 0.00800
C 	C 	0.75904 0.11487 0.88867 -0.05100
C 	C 	0.75031 0.07846 0.89477 0.00300
C 	C 	0.71840 0.06374 0.90207 -0.05000
H 	H 	0.69826 0.14709 0.91032 0.05500
H 	H 	0.78180 0.12480 0.88103 0.05000
H 	H 	0.71065 0.03495 0.90600 0.05100
C 	C 	0.85858 0.16686 0.48429 0.02000
C 	C 	0.87287 0.20709 0.48369 -0.06500
C 	C 	0.90835 0.22430 0.48057 0.05900
C 	C 	0.92928 0.20116 0.47758 -0.06800
C 	C 	0.91648 0.16197 0.47968 0.01600
C 	C 	0.88028 0.14416 0.48202 -0.05800
H 	H 	0.85729 0.22557 0.48670 0.06600
H 	H 	0.95726 0.21497 0.47576 0.05600
H 	H 	0.87009 0.11361 0.48336 0.04900
C 	C 	0.66411 0.35126 0.96241 0.06600
C 	C 	0.64046 0.37275 0.96008 -0.07800
C 	C 	0.59973 0.35302 0.95634 0.06800
C 	C 	0.58376 0.31272 0.95664 -0.07200
C 	C 	0.60803 0.29172 0.96016 0.03100
C 	C 	0.64907 0.31193 0.96429 -0.06900
H 	H 	0.65199 0.40309 0.95855 0.07300
H 	H 	0.55140 0.29667 0.95229 0.06300
H 	H 	0.66779 0.29571 0.96669 0.06200
C 	C 	0.82478 0.43103 0.53501 0.06000
C 	C 	0.80424 0.38784 0.52974 -0.06500
C 	C 	0.76514 0.37006 0.52870 0.01900
C 	C 	0.74555 0.39510 0.53120 -0.05800
C 	C 	0.76456 0.43731 0.53434 0.01800
C 	C 	0.80565 0.45613 0.53851 -0.06900
H 	H 	0.81797 0.36778 0.52556 0.06600
H 	H 	0.71469 0.38114 0.52934 0.05100
H 	H 	0.82110 0.48921 0.54197 0.05600
Zn	Zn	0.52638 0.55118 0.96722 1.18500
Zn	Zn	0.45035 0.51821 0.89296 1.19400
O 	O 	0.44575 0.44261 0.83720 -0.46700
O 	O 	0.43190 0.49844 0.84156 -0.43800
O 	O 	0.43827 0.38565 0.88263 -0.48800
C 	C 	0.56579 0.52552 0.93448 0.33100
O 	O 	0.40815 0.45793 0.87973 -0.87200
C 	C 	0.52563 0.61489 0.94027 0.34800
O 	O 	0.57540 0.55127 0.96508 -0.44400
O 	O 	0.52401 0.49360 0.90864 -0.35400
O 	O 	0.46550 0.52462 0.94191 -0.76700
O 	O 	0.48135 0.44606 0.93753 -0.43900
O 	O 	0.49218 0.58112 0.90767 -0.43900
O 	O 	0.54029 0.60938 0.96888 -0.45300
Zn	Zn	0.32728 0.38815 0.89519 1.17600
Zn	Zn	0.40438 0.41113 0.96205 1.18700
Zn	Zn	0.42488 0.46433 0.92654 1.21800
C 	C 	0.32501 0.31844 0.91643 0.34700
C 	C 	0.30399 0.41455 0.94148 0.31000
O 	O 	0.36736 0.48265 0.91437 -0.47200
Zn	Zn	0.41024 0.49151 0.98705 1.19800
O 	O 	0.36277 0.34969 0.94815 -0.43700
O 	O 	0.30389 0.32795 0.89156 -0.46300
O 	O 	0.29254 0.40453 0.90875 -0.47900
O 	O 	0.34536 0.42797 0.96704 -0.47200
C 	C 	0.44025 0.46411 0.04063 0.31400
O 	O 	0.38445 0.40443 0.91178 -0.79200
C 	C 	0.36500 0.51144 0.93525 0.35500
O 	O 	0.43223 0.42937 0.01588 -0.41900
O 	O 	0.43722 0.49615 0.03449 -0.46100
O 	O 	0.38168 0.51985 0.96857 -0.48200
O 	O 	0.44041 0.47105 0.97289 -0.89300
Zn	Zn	0.41885 0.41655 0.85950 1.18800
C 	C 	0.44032 0.47097 0.82629 0.30700
C 	C 	0.47353 0.40885 0.91618 0.31000
H 	H 	0.47285 0.48544 0.99180 0.17200
H 	H 	0.37644 0.44906 0.86389 0.14800
Zn	Zn	0.68304 0.63487 0.54263 1.18800
Zn	Zn	0.60398 0.59908 0.46749 1.19700
O 	O 	0.59906 0.52941 0.40828 -0.46300
O 	O 	0.57761 0.57952 0.41444 -0.42600
O 	O 	0.61137 0.47563 0.45861 -0.49400
C 	C 	0.72113 0.61250 0.50796 0.33600
O 	O 	0.56711 0.53802 0.45546 -0.87600
C 	C 	0.68002 0.69540 0.51267 0.34600
O 	O 	0.73162 0.63605 0.53957 -0.44600
O 	O 	0.67906 0.58169 0.48176 -0.36500
O 	O 	0.62220 0.60529 0.51725 -0.77300
O 	O 	0.64623 0.53247 0.51371 -0.44000
O 	O 	0.64523 0.66129 0.48070 -0.43900
O 	O 	0.69327 0.69157 0.54206 -0.44500
Zn	Zn	0.49025 0.46263 0.46890 1.18300
Zn	Zn	0.57044 0.48617 0.53533 1.19900
Zn	Zn	0.58545 0.54385 0.50206 1.21900
C 	C 	0.49184 0.39464 0.49198 0.30900
C 	C 	0.46578 0.48720 0.51458 0.30700
O 	O 	0.52562 0.55814 0.49112 -0.45100
Zn	Zn	0.57101 0.56524 0.56322 1.20100
O 	O 	0.53514 0.42235 0.51802 -0.43600
O 	O 	0.46998 0.40334 0.46676 -0.45500
O 	O 	0.45298 0.47495 0.48136 -0.45300
O 	O 	0.50673 0.49881 0.53933 -0.47000
C 	C 	0.59257 0.52906 0.61066 0.31400
O 	O 	0.54842 0.48282 0.48614 -0.79100
C 	C 	0.52238 0.58489 0.51281 0.34900
O 	O 	0.59085 0.49873 0.58714 -0.41100
O 	O 	0.59648 0.56517 0.60887 -0.46400
O 	O 	0.54070 0.59280 0.54617 -0.49600
O 	O 	0.60224 0.54830 0.54831 -0.88600
Zn	Zn	0.58417 0.50315 0.43599 1.19000
C 	C 	0.58242 0.55152 0.39535 0.31100
C 	C 	0.64260 0.49761 0.49334 0.35200
H 	H 	0.63497 0.56420 0.56701 0.18000
H 	H 	0.53452 0.52599 0.43928 0.15800
C 	C 	0.58656 0.52088 0.63755 -0.08500
C 	C 	0.55520 0.47835 0.62796 0.01800
C 	C 	0.54092 0.47222 0.64972 -0.04300
C 	C 	0.55800 0.50853 0.68133 0.01500
C 	C 	0.60593 0.55664 0.67044 0.01700
C 	C 	0.53885 0.50313 0.70183 0.10900
N 	N 	0.52946 0.46783 0.70768 -0.07700
N 	N 	0.51126 0.46250 0.72557 -0.07800
C 	C 	0.50155 0.49212 0.73786 0.10600
N 	N 	0.51086 0.52737 0.73190 -0.07700
N 	N 	0.52930 0.53282 0.71419 -0.07600
C 	C 	0.48154 0.48625 0.75788 0.01100
C 	C 	0.44061 0.43874 0.77355 0.01600
C 	C 	0.44965 0.47567 0.80000 -0.08800
C 	C 	0.47240 0.51761 0.80383 0.01400
C 	C 	0.48873 0.52300 0.78319 -0.04400
C 	C 	0.59159 0.55053 0.69215 -0.04800
C 	C 	0.45629 0.44395 0.75253 -0.04800
H 	H 	0.53991 0.45047 0.60263 0.04400
H 	H 	0.51515 0.43959 0.64118 0.06900
H 	H 	0.60585 0.57861 0.71696 0.05400
H 	H 	0.63079 0.58948 0.67850 0.03500
H 	H 	0.44929 0.41514 0.73240 0.05900
H 	H 	0.42223 0.40606 0.76979 0.02700
H 	H 	0.50790 0.55583 0.78754 0.06300
H 	H 	0.47879 0.54624 0.82363 0.05700
C 	C 	0.45229 0.46707 0.07560 -0.08500
C 	C 	0.48720 0.46143 0.09575 0.01500
C 	C 	0.50259 0.47031 0.13105 -0.04800
C 	C 	0.48299 0.48472 0.14635 0.01000
C 	C 	0.43143 0.47952 0.09035 0.01700
C 	C 	0.50158 0.49793 0.18448 0.10100
N 	N 	0.51699 0.47537 0.19968 -0.08200
N 	N 	0.53218 0.48636 0.23375 -0.08300
C 	C 	0.53242 0.52026 0.25361 0.10100
N 	N 	0.51749 0.54312 0.23852 -0.08200
N 	N 	0.50233 0.53214 0.20447 -0.08200
C 	C 	0.54720 0.53109 0.29078 0.00900
C 	C 	0.59503 0.53528 0.34754 0.01600
C 	C 	0.57220 0.54724 0.36029 -0.08400
C 	C 	0.53779 0.55248 0.33853 0.01100
C 	C 	0.52531 0.54441 0.30395 -0.04800
C 	C 	0.44662 0.48822 0.12547 -0.04800
C 	C 	0.58256 0.52720 0.31297 -0.04800
H 	H 	0.50344 0.45170 0.08457 0.03500
H 	H 	0.53055 0.46727 0.14680 0.05400
H 	H 	0.43045 0.49820 0.13661 0.05400
H 	H 	0.40391 0.48321 0.07475 0.03600
H 	H 	0.60033 0.51783 0.30343 0.05400
H 	H 	0.62228 0.53201 0.36432 0.04700
H 	H 	0.49794 0.54750 0.28710 0.05300
H 	H 	0.51986 0.56163 0.34800 0.03500
C 	C 	0.74368 0.32451 0.52357 0.05100
C 	C 	0.69698 0.29498 0.49857 -0.08200
C 	C 	0.67649 0.25298 0.49510 0.04800
C 	C 	0.70249 0.23925 0.51561 -0.13000
C 	C 	0.74979 0.26769 0.53885 0.16500
C 	C 	0.76991 0.31061 0.54368 -0.11200
H 	H 	0.64028 0.23118 0.47658 0.02900
H 	H 	0.80601 0.33289 0.56269 0.08800
H 	H 	0.67649 0.30464 0.48196 0.05400
Br	Br	0.78778 0.24730 0.56120 -0.24000
C 	C 	0.93130 0.47664 0.52184 -0.06000
C 	C 	0.88896 0.46835 0.49686 -0.00600
C 	C 	0.85453 0.45346 0.50135 -0.03000
C 	C 	0.86209 0.44750 0.53124 -0.03400
C 	C 	0.90515 0.45772 0.55732 0.10000
C 	C 	0.93947 0.47200 0.55243 -0.04300
H 	H 	0.82174 0.44628 0.48141 0.04000
H 	H 	0.97220 0.47893 0.57220 0.06700
H 	H 	0.88246 0.47280 0.47362 0.05500
Br	Br	0.91810 0.45356 0.60013 -0.23500
C 	C 	0.73823 0.45876 0.52771 0.05100
C 	C 	0.73014 0.47180 0.50113 -0.08700
C 	C 	0.70102 0.48710 0.49167 0.05300
C 	C 	0.67874 0.48867 0.50802 -0.15400
C 	C 	0.68827 0.47753 0.53588 0.17300
C 	C 	0.71832 0.46305 0.54585 -0.11900
H 	H 	0.69458 0.49640 0.47071 0.02300
H 	H 	0.72516 0.45398 0.56694 0.08200
H 	H 	0.74530 0.46871 0.48695 0.05300
Br	Br	0.65887 0.47947 0.55923 -0.33600
C 	C 	0.58818 0.24656 0.95577 0.05000
C 	C 	0.57174 0.23711 0.97576 -0.08000
C 	C 	0.55070 0.19397 0.97011 0.04900
C 	C 	0.54653 0.15986 0.94488 -0.13500
C 	C 	0.56429 0.16956 0.92556 0.16800
C 	C 	0.58403 0.21252 0.93048 -0.11200
H 	H 	0.53766 0.18704 0.98541 0.03500
H 	H 	0.59640 0.21948 0.91479 0.09200
H 	H 	0.57504 0.26314 0.99553 0.05600
Br	Br	0.56535 0.12579 0.89462 -0.26100
C 	C 	0.76825 0.39828 0.94692 -0.06400
C 	C 	0.77683 0.41957 0.98045 -0.00500
C 	C 	0.74300 0.40371 0.98560 -0.03600
C 	C 	0.70036 0.36627 0.95736 -0.03000
C 	C 	0.69183 0.34461 0.92376 0.10000
C 	C 	0.72572 0.36058 0.91874 -0.03700
H 	H 	0.74982 0.42069 0.01147 0.04800
H 	H 	0.71904 0.34338 0.89298 0.06300
H 	H 	0.80956 0.44858 0.00244 0.04200
Br	Br	0.63389 0.29355 0.88419 -0.22300
C 	C 	0.50860 0.39802 0.92746 -0.06900
C 	C 	0.53487 0.40617 0.96288 0.00400
C 	C 	0.56577 0.39277 0.97256 -0.03000
C 	C 	0.57066 0.37116 0.94693 -0.03000
C 	C 	0.54519 0.36411 0.91163 0.09900
C 	C 	0.51477 0.37798 0.90221 -0.03100
H 	H 	0.58522 0.39833 0.99978 0.04300
H 	H 	0.49542 0.37259 0.87504 0.06000
H 	H 	0.53061 0.42188 0.98265 0.02600
Br	Br	0.54991 0.33377 0.87543 -0.21700
C 	C 	0.94510 0.14347 0.48495 0.05400
C 	C 	0.99011 0.16907 0.51482 -0.09200
C 	C 	0.01631 0.15053 0.52197 0.05500
C 	C 	0.99769 0.10592 0.49971 -0.15900
C 	C 	0.95331 0.08096 0.46805 0.17100
C 	C 	0.92716 0.09984 0.46106 -0.12400
H 	H 	0.05067 0.17034 0.54580 0.01800
H 	H 	0.89276 0.08043 0.43731 0.07800
H 	H 	0.00437 0.20302 0.53315 0.06500
C 	C 	0.96864 0.35140 0.48912 -0.06100
C 	C 	0.93427 0.31404 0.45532 -0.00400
C 	C 	0.91329 0.27278 0.45270 -0.03200
C 	C 	0.92645 0.26846 0.48380 -0.03300
C 	C 	0.95996 0.30609 0.51780 0.10100
C 	C 	0.98085 0.34736 0.52032 -0.04000
H 	H 	0.88754 0.24394 0.42647 0.04100
H 	H 	0.00667 0.37625 0.54652 0.07100
H 	H 	0.92447 0.31681 0.43105 0.03800
Br	Br	0.97830 0.30152 0.56102 -0.23700
C 	C 	0.82191 0.14941 0.48850 0.05200
C 	C 	0.82870 0.13960 0.51665 -0.07900
C 	C 	0.79530 0.12676 0.52246 0.05000
C 	C 	0.75519 0.12441 0.50066 -0.13200
C 	C 	0.74855 0.13469 0.47258 0.16600
C 	C 	0.78129 0.14576 0.46601 -0.11300
H 	H 	0.80079 0.11909 0.54417 0.02900
H 	H 	0.77587 0.15321 0.44420 0.07900
H 	H 	0.86014 0.14271 0.53439 0.05900
Br	Br	0.69747 0.13840 0.44532 -0.25000
C 	C 	0.78028 0.06124 0.90013 0.06500
C 	C 	0.76230 0.01559 0.88370 -0.11500
C 	C 	0.79055 0.99928 0.89352 0.07700
C 	C 	0.83701 0.02849 0.91958 -0.17100
C 	C 	0.85546 0.07428 0.93375 0.17500
C 	C 	0.82709 0.09049 0.92441 -0.12600
H 	H 	0.84134 0.12582 0.93686 0.08200
H 	H 	0.72633 0.99275 0.86429 0.06900
Br	Br	0.91938 0.11511 0.96569 -0.27900
C 	C 	0.76373 0.18698 0.90160 0.05400
C 	C 	0.73706 0.20366 0.88704 -0.08400
C 	C 	0.75713 0.24648 0.89179 0.04900
C 	C 	0.80397 0.27255 0.91002 -0.13900
C 	C 	0.83051 0.25494 0.92312 0.16700
C 	C 	0.81061 0.21334 0.92038 -0.11600
H 	H 	0.73630 0.25948 0.88147 0.03300
H 	H 	0.83158 0.20102 0.93212 0.08000
H 	H 	0.70083 0.18352 0.87209 0.06000
Br	Br	0.89301 0.28492 0.94146 -0.26200
C 	C 	0.66438 0.07154 0.91357 0.05400
C 	C 	0.61958 0.05688 0.88808 -0.07500
C 	C 	0.58715 0.04001 0.89434 0.05100
C 	C 	0.59928 0.03830 0.92648 -0.12800
C 	C 	0.64396 0.05128 0.95148 0.16600
C 	C 	0.67640 0.06841 0.94515 -0.11300
H 	H 	0.55272 0.02922 0.87456 0.03800
H 	H 	0.71078 0.07862 0.96448 0.08000
H 	H 	0.60985 0.05840 0.86333 0.06300
Br	Br	0.66043 0.04228 0.99266 -0.25500
C 	C 	0.69814 0.58742 0.90614 0.01100
C 	C 	0.71130 0.62702 0.90440 -0.05200
C 	C 	0.75904 0.61487 0.88867 -0.05300
C 	C 	0.75031 0.57846 0.89477 0.00900
C 	C 	0.71840 0.56374 0.90207 -0.05200
H 	H 	0.78180 0.62481 0.88103 0.05100
H 	H 	0.71065 0.53495 0.90600 0.05300
C 	C 	0.85858 0.66686 0.48429 0.02000
C 	C 	0.87287 0.70710 0.48369 -0.06500
C 	C 	0.92928 0.70116 0.47758 -0.06800
C 	C 	0.91648 0.66197 0.47968 0.01600
C 	C 	0.88028 0.64416 0.48202 -0.05700
H 	H 	0.95726 0.71497 0.47576 0.05600
H 	H 	0.87008 0.61361 0.48336 0.05000
Zn	Zn	0.52638 0.05118 0.96722 1.18400
Zn	Zn	0.45035 0.01821 0.89296 1.19200
O 	O 	0.43190 0.99844 0.84156 -0.43300
C 	C 	0.56579 0.02552 0.93448 0.32300
C 	C 	0.52563 0.11489 0.94027 0.34900
O 	O 	0.57540 0.05127 0.96508 -0.44400
O 	O 	0.52401 0.99360 0.90864 -0.34500
O 	O 	0.46550 0.02462 0.94191 -0.77200
O 	O 	0.49218 0.08112 0.90767 -0.44100
O 	O 	0.54029 0.10937 0.96888 -0.45400
O 	O 	0.36736 0.98265 0.91437 -0.46600
C 	C 	0.36500 0.01144 0.93525 0.35100
O 	O 	0.38168 0.01985 0.96857 -0.48600
H 	H 	0.47285 0.98544 0.99180 0.17400
Zn	Zn	0.68304 0.13487 0.54263 1.18800
Zn	Zn	0.60398 0.09908 0.46749 1.19700
O 	O 	0.57761 0.07952 0.41444 -0.42600
C 	C 	0.72113 0.11250 0.50796 0.33500
C 	C 	0.68002 0.19540 0.51267 0.34600
O 	O 	0.73162 0.13605 0.53957 -0.44700
O 	O 	0.67906 0.08169 0.48176 -0.36700
O 	O 	0.62220 0.10529 0.51725 -0.77300
O 	O 	0.64523 0.16129 0.48070 -0.43900
O 	O 	0.69327 0.19157 0.54206 -0.44500
O 	O 	0.52562 0.05814 0.49112 -0.45200
C 	C 	0.52238 0.08489 0.51281 0.34900
O 	O 	0.54070 0.09280 0.54617 -0.49800
H 	H 	0.63497 0.06420 0.56701 0.17900
C 	C 	0.60593 0.05664 0.67044 0.01700
N 	N 	0.51086 0.02737 0.73190 -0.08200
N 	N 	0.52930 0.03282 0.71419 -0.07600
C 	C 	0.47240 0.01761 0.80383 0.00600
C 	C 	0.48873 0.02300 0.78319 -0.05100
C 	C 	0.59159 0.05053 0.69215 -0.04800
H 	H 	0.60585 0.07861 0.71696 0.05300
H 	H 	0.63079 0.08948 0.67850 0.03400
H 	H 	0.50790 0.05583 0.78754 0.06300
H 	H 	0.47879 0.04624 0.82363 0.05800
C 	C 	0.53242 0.02026 0.25361 0.09400
N 	N 	0.51749 0.04312 0.23852 -0.08200
N 	N 	0.50233 0.03214 0.20447 -0.08800
C 	C 	0.54720 0.03109 0.29078 0.01000
C 	C 	0.53779 0.05249 0.33853 0.01100
C 	C 	0.52532 0.04441 0.30395 -0.05000
H 	H 	0.49794 0.04750 0.28710 0.05200
H 	H 	0.51986 0.06163 0.34800 0.03500
Br	Br	0.78778 0.74730 0.56120 -0.24000
Br	Br	0.56535 0.62579 0.89462 -0.26000
C 	C 	0.94510 0.64347 0.48495 0.05600
C 	C 	0.99011 0.66907 0.51482 -0.09400
C 	C 	0.01631 0.65053 0.52197 0.05700
C 	C 	0.99769 0.60592 0.49971 -0.16000
C 	C 	0.95331 0.58096 0.46805 0.17200
C 	C 	0.92716 0.59984 0.46106 -0.12400
H 	H 	0.05067 0.67034 0.54580 0.01700
H 	H 	0.89276 0.58043 0.43731 0.07900
H 	H 	0.00437 0.70302 0.53315 0.06600
Br	Br	0.92782 0.52172 0.43373 -0.30900
C 	C 	0.82191 0.64941 0.48850 0.05200
C 	C 	0.82870 0.63960 0.51665 -0.07900
C 	C 	0.79530 0.62676 0.52246 0.05100
C 	C 	0.75519 0.62441 0.50066 -0.13100
C 	C 	0.74855 0.63469 0.47258 0.16700
C 	C 	0.78129 0.64576 0.46601 -0.11200
H 	H 	0.80079 0.61909 0.54417 0.03000
H 	H 	0.77587 0.65321 0.44420 0.07900
H 	H 	0.86014 0.64271 0.53439 0.05900
Br	Br	0.69747 0.63841 0.44532 -0.24900
C 	C 	0.78028 0.56124 0.90013 0.05500
C 	C 	0.76230 0.51559 0.88370 -0.08900
C 	C 	0.79055 0.49928 0.89352 0.05100
C 	C 	0.83701 0.52849 0.91958 -0.15600
C 	C 	0.85546 0.57428 0.93375 0.16900
C 	C 	0.82709 0.59049 0.92441 -0.11900
H 	H 	0.77613 0.46395 0.88202 0.01700
H 	H 	0.84134 0.62582 0.93686 0.08100
H 	H 	0.72633 0.49275 0.86429 0.05700
Br	Br	0.91938 0.61511 0.96569 -0.27700
C 	C 	0.66438 0.57154 0.91357 0.05400
C 	C 	0.61958 0.55688 0.88808 -0.07500
C 	C 	0.58715 0.54001 0.89434 0.05200
C 	C 	0.59928 0.53830 0.92648 -0.13000
C 	C 	0.64396 0.55128 0.95148 0.16700
C 	C 	0.67640 0.56841 0.94515 -0.11300
H 	H 	0.55272 0.52922 0.87456 0.03900
H 	H 	0.71078 0.57862 0.96448 0.08000
H 	H 	0.60985 0.55841 0.86333 0.06400
Br	Br	0.66043 0.54228 0.99266 -0.25100
C 	C 	0.24284 0.64151 0.89658 0.01000
H 	H 	0.19826 0.64709 0.91032 0.05500
C 	C 	0.40835 0.72430 0.48057 0.05900
H 	H 	0.35729 0.72557 0.48670 0.06600
C 	C 	0.24368 0.82451 0.52357 0.05100
C 	C 	0.19698 0.79498 0.49857 -0.08100
C 	C 	0.17648 0.75298 0.49510 0.04900
C 	C 	0.20249 0.73925 0.51561 -0.13000
C 	C 	0.24979 0.76769 0.53885 0.16500
C 	C 	0.26991 0.81061 0.54368 -0.11200
H 	H 	0.14028 0.73118 0.47658 0.02900
H 	H 	0.17649 0.80464 0.48196 0.05500
C 	C 	0.08818 0.74656 0.95577 0.05100
C 	C 	0.07174 0.73711 0.97576 -0.08000
C 	C 	0.05070 0.69397 0.97011 0.04900
C 	C 	0.04653 0.65986 0.94488 -0.13500
C 	C 	0.06429 0.66956 0.92556 0.16800
C 	C 	0.08403 0.71252 0.93048 -0.11200
H 	H 	0.03766 0.68704 0.98541 0.03500
H 	H 	0.09640 0.71948 0.91479 0.09200
C 	C 	0.43427 0.81405 0.45532 -0.00300
C 	C 	0.41329 0.77278 0.45270 -0.03200
C 	C 	0.42645 0.76846 0.48380 -0.03300
C 	C 	0.45996 0.80609 0.51780 0.10100
H 	H 	0.38754 0.74394 0.42647 0.04100
H 	H 	0.42447 0.81681 0.43105 0.03800
Br	Br	0.47830 0.80152 0.56102 -0.23600
C 	C 	0.26373 0.68698 0.90160 0.05300
C 	C 	0.23706 0.70366 0.88704 -0.08300
C 	C 	0.25713 0.74648 0.89179 0.04900
C 	C 	0.33051 0.75494 0.92312 0.16700
C 	C 	0.31061 0.71334 0.92038 -0.11500
H 	H 	0.23630 0.75948 0.88147 0.03300
H 	H 	0.33158 0.70103 0.93212 0.08000
H 	H 	0.20083 0.68352 0.87209 0.06000
C 	C 	0.74284 0.64151 0.89658 0.01000
H 	H 	0.69826 0.64709 0.91032 0.05500
C 	C 	0.90835 0.72430 0.48057 0.05900
H 	H 	0.85729 0.72557 0.48670 0.06600
C 	C 	0.74368 0.82451 0.52357 0.05100
C 	C 	0.69698 0.79498 0.49857 -0.08100
C 	C 	0.67649 0.75298 0.49510 0.04900
C 	C 	0.70249 0.73925 0.51561 -0.13000
C 	C 	0.74979 0.76769 0.53885 0.16500
C 	C 	0.76991 0.81061 0.54368 -0.11200
H 	H 	0.64028 0.73118 0.47658 0.02900
H 	H 	0.67649 0.80464 0.48196 0.05400
C 	C 	0.58818 0.74656 0.95577 0.05100
C 	C 	0.57174 0.73711 0.97576 -0.08000
C 	C 	0.55070 0.69397 0.97011 0.04900
C 	C 	0.54653 0.65986 0.94488 -0.13500
C 	C 	0.56429 0.66956 0.92556 0.16800
C 	C 	0.58403 0.71252 0.93048 -0.11200
H 	H 	0.53766 0.68704 0.98541 0.03500
H 	H 	0.59640 0.71948 0.91479 0.09200
C 	C 	0.93427 0.81405 0.45532 -0.00400
C 	C 	0.91329 0.77278 0.45270 -0.03200
C 	C 	0.92645 0.76846 0.48380 -0.03400
C 	C 	0.95996 0.80609 0.51780 0.10100
H 	H 	0.88754 0.74394 0.42647 0.04100
H 	H 	0.92447 0.81681 0.43105 0.03800
Br	Br	0.97830 0.80152 0.56102 -0.23700
C 	C 	0.76373 0.68698 0.90160 0.05300
C 	C 	0.73706 0.70366 0.88704 -0.08300
C 	C 	0.75713 0.74648 0.89179 0.04900
C 	C 	0.83051 0.75494 0.92312 0.16700
C 	C 	0.81061 0.71334 0.92038 -0.11500
H 	H 	0.73630 0.75948 0.88147 0.03300
H 	H 	0.83158 0.70103 0.93212 0.08000
H 	H 	0.70083 0.68352 0.87209 0.06000
Zn	Zn	0.91024 0.99151 0.98705 1.19900
O 	O 	0.93722 0.99615 0.03449 -0.45900
Zn	Zn	0.08545 0.04385 0.50206 1.21800
Zn	Zn	0.07101 0.06525 0.56322 1.20000
O 	O 	0.09648 0.06517 0.60887 -0.46500
O 	O 	0.10224 0.04830 0.54831 -0.88900
Zn	Zn	0.41024 0.99151 0.98705 1.19900
O 	O 	0.43722 0.99615 0.03449 -0.45900
Zn	Zn	0.58545 0.04385 0.50206 1.21800
Zn	Zn	0.57101 0.06525 0.56322 1.20000
O 	O 	0.59648 0.06517 0.60887 -0.46500
O 	O 	0.60224 0.04830 0.54831 -0.88900
H 	H 	0.93044 0.99820 0.13661 0.05500
H 	H 	0.43045 0.99820 0.13661 0.05600
H 	H 	0.90391 0.98321 0.07475 0.03700
H 	H 	0.40391 0.98321 0.07475 0.03700
C 	C 	0.93143 0.97952 0.09035 0.01500
C 	C 	0.94662 0.98822 0.12547 -0.04500
C 	C 	0.43143 0.97952 0.09035 0.01700
C 	C 	0.44662 0.98822 0.12547 -0.04700
C 	C 	0.00158 0.99793 0.18448 0.11100
C 	C 	0.50158 0.99793 0.18448 0.10900
C 	C 	0.08242 0.05152 0.39535 0.31200
C 	C 	0.58242 0.05152 0.39535 0.31200
C 	C 	0.07220 0.04723 0.36029 -0.08500
C 	C 	0.57220 0.04723 0.36029 -0.08500
C 	C 	0.09257 0.02906 0.61066 0.30700
C 	C 	0.59257 0.02906 0.61066 0.30700
C 	C 	0.08656 0.02088 0.63755 -0.09200
C 	C 	0.58656 0.02088 0.63755 -0.09200
O 	O 	0.06711 0.03802 0.45546 -0.87700
O 	O 	0.56711 0.03802 0.45546 -0.87700
H 	H 	0.07504 0.76314 0.99553 0.05700
H 	H 	0.57504 0.76314 0.99553 0.05600
C 	C 	0.09503 0.03528 0.34754 0.01600
C 	C 	0.59503 0.03528 0.34754 0.01600
C 	C 	0.30397 0.77255 0.91002 -0.13900
C 	C 	0.80397 0.77255 0.91002 -0.13900
C 	C 	0.05800 0.00853 0.68133 0.00800
C 	C 	0.55800 0.00853 0.68133 0.00800
O 	O 	0.14622 0.03247 0.51371 -0.44700
O 	O 	0.64623 0.03247 0.51371 -0.44700
H 	H 	0.30601 0.83289 0.56269 0.08800
H 	H 	0.80601 0.83289 0.56269 0.08800
C 	C 	0.08256 0.02720 0.31297 -0.05000
C 	C 	0.58256 0.02720 0.31297 -0.05000
Br	Br	0.39301 0.78492 0.94146 -0.26100
Br	Br	0.89301 0.78492 0.94146 -0.26200
C 	C 	0.03885 0.00313 0.70183 0.10300
C 	C 	0.53885 0.00313 0.70183 0.10300
O 	O 	0.94041 0.97105 0.97289 -0.89200
O 	O 	0.44041 0.97105 0.97289 -0.89200
C 	C 	0.98299 0.98472 0.14635 0.00500
C 	C 	0.48299 0.98472 0.14635 0.00900
C 	C 	0.00155 0.99212 0.73786 0.11400
C 	C 	0.50155 0.99212 0.73786 0.11200
C 	C 	0.98154 0.98625 0.75788 0.01500
C 	C 	0.48154 0.98625 0.75788 0.01800
C 	C 	0.94965 0.97567 0.80000 -0.07900
C 	C 	0.44965 0.97567 0.80000 -0.07800
C 	C 	0.94032 0.97097 0.82629 0.30500
C 	C 	0.44032 0.97097 0.82629 0.30500
Zn	Zn	0.92488 0.96433 0.92654 1.21900
Zn	Zn	0.42488 0.96433 0.92654 1.21900
C 	C 	0.94025 0.96411 0.04063 0.31300
C 	C 	0.44025 0.96411 0.04063 0.31400
H 	H 	0.27613 0.96395 0.88202 0.01200
H 	H 	0.77613 0.96395 0.88202 0.01200
C 	C 	0.95229 0.96707 0.07560 -0.08200
C 	C 	0.45229 0.96707 0.07560 -0.08400
O 	O 	0.90816 0.95793 0.87973 -0.87000
O 	O 	0.40815 0.95793 0.87973 -0.86900
C 	C 	0.48085 0.84736 0.52032 -0.03900
C 	C 	0.98085 0.84736 0.52032 -0.04100
C 	C 	0.46864 0.85140 0.48912 -0.06100
C 	C 	0.96864 0.85140 0.48912 -0.06000
C 	C 	0.26514 0.87006 0.52870 0.02000
H 	H 	0.31797 0.86778 0.52556 0.06600
H 	H 	0.50667 0.87625 0.54652 0.07000
C 	C 	0.76514 0.87006 0.52870 0.02000
H 	H 	0.81797 0.86778 0.52556 0.06600
H 	H 	0.00667 0.87625 0.54652 0.07200
C 	C 	0.10803 0.79172 0.96016 0.03100
H 	H 	0.05140 0.79667 0.95229 0.06300
H 	H 	0.16779 0.79571 0.96669 0.06200
C 	C 	0.30424 0.88783 0.52974 -0.06500
H 	H 	0.21469 0.88114 0.52934 0.05100
C 	C 	0.99184 0.89464 0.49198 0.30700
C 	C 	0.60803 0.79172 0.96016 0.03100
H 	H 	0.55140 0.79667 0.95229 0.06300
H 	H 	0.66779 0.79571 0.96669 0.06200
C 	C 	0.80424 0.88783 0.52974 -0.06500
H 	H 	0.71469 0.88114 0.52934 0.05100
C 	C 	0.49184 0.89464 0.49198 0.30900
Br	Br	0.04991 0.83377 0.87543 -0.21500
Br	Br	0.54991 0.83377 0.87543 -0.21600
C 	C 	0.08376 0.81272 0.95664 -0.07200
C 	C 	0.14907 0.81193 0.96429 -0.06900
C 	C 	0.24555 0.89510 0.53120 -0.05800
C 	C 	0.82501 0.81844 0.91643 0.34700
O 	O 	0.80389 0.82795 0.89156 -0.46300
O 	O 	0.96998 0.90334 0.46676 -0.45400
C 	C 	0.58376 0.81272 0.95664 -0.07200
C 	C 	0.64907 0.81193 0.96429 -0.06900
C 	C 	0.74555 0.89510 0.53120 -0.05800
C 	C 	0.32501 0.81844 0.91643 0.34700
O 	O 	0.30389 0.82795 0.89156 -0.46300
O 	O 	0.46998 0.90334 0.46676 -0.45400
C 	C 	0.32478 0.93103 0.53501 0.06100
O 	O 	0.86277 0.84969 0.94815 -0.43700
O 	O 	0.03514 0.92235 0.51802 -0.43400
C 	C 	0.82478 0.93103 0.53501 0.06100
O 	O 	0.36277 0.84969 0.94815 -0.43700
O 	O 	0.53514 0.92235 0.51802 -0.43500
C 	C 	0.04519 0.86411 0.91163 0.09900
H 	H 	0.99543 0.87259 0.87504 0.05900
C 	C 	0.54519 0.86411 0.91163 0.09900
H 	H 	0.49542 0.87259 0.87504 0.06000
C 	C 	0.16411 0.85126 0.96241 0.06700
C 	C 	0.66411 0.85126 0.96241 0.06700
H 	H 	0.12228 0.03201 0.36432 0.04600
H 	H 	0.62228 0.03201 0.36432 0.04600
H 	H 	0.10033 0.01783 0.30343 0.05200
H 	H 	0.32174 0.94628 0.48141 0.04100
H 	H 	0.60033 0.01783 0.30343 0.05300
H 	H 	0.82174 0.94628 0.48141 0.04100
Br	Br	0.42782 0.02172 0.43373 -0.31300
O 	O 	0.94575 0.94261 0.83720 -0.46600
O 	O 	0.09907 0.02941 0.40828 -0.46500
Br	Br	0.92782 0.02172 0.43373 -0.31300
O 	O 	0.44575 0.94261 0.83720 -0.46600
O 	O 	0.59906 0.02941 0.40828 -0.46500
H 	H 	0.03991 0.95047 0.60263 0.04400
C 	C 	0.27683 0.91958 0.98045 -0.00500
C 	C 	0.24300 0.90371 0.98560 -0.03600
H 	H 	0.24982 0.92069 0.01147 0.04900
H 	H 	0.30956 0.94858 0.00244 0.04300
H 	H 	0.53991 0.95047 0.60263 0.04300
C 	C 	0.77683 0.91958 0.98045 -0.00500
C 	C 	0.74300 0.90371 0.98560 -0.03600
H 	H 	0.74982 0.92069 0.01147 0.04900
H 	H 	0.80956 0.94858 0.00244 0.04300
C 	C 	0.14046 0.87274 0.96008 -0.07700
C 	C 	0.09973 0.85302 0.95634 0.06800
H 	H 	0.15199 0.90309 0.95855 0.07400
C 	C 	0.26456 0.93731 0.53434 0.01800
C 	C 	0.30565 0.95613 0.53851 -0.06900
H 	H 	0.32110 0.98921 0.54197 0.05800
O 	O 	0.93827 0.88565 0.88263 -0.48800
O 	O 	0.98135 0.94606 0.93753 -0.43700
Zn	Zn	0.82728 0.88816 0.89519 1.17600
Zn	Zn	0.90438 0.91113 0.96205 1.18700
C 	C 	0.80399 0.91455 0.94148 0.31000
O 	O 	0.79254 0.90453 0.90875 -0.47800
O 	O 	0.84536 0.92797 0.96704 -0.47100
O 	O 	0.88445 0.90443 0.91178 -0.79200
O 	O 	0.93223 0.92937 0.01588 -0.41800
Zn	Zn	0.91885 0.91655 0.85950 1.18800
C 	C 	0.97353 0.90885 0.91618 0.30800
H 	H 	0.87644 0.94906 0.86389 0.14900
O 	O 	0.11137 0.97563 0.45861 -0.49300
Zn	Zn	0.99025 0.96263 0.46890 1.18300
Zn	Zn	0.07044 0.98617 0.53533 1.20000
C 	C 	0.96578 0.98720 0.51458 0.30600
O 	O 	0.95298 0.97495 0.48136 -0.45000
O 	O 	0.00673 0.99881 0.53933 -0.46600
O 	O 	0.04842 0.98282 0.48614 -0.78600
O 	O 	0.09085 0.99873 0.58714 -0.40400
Zn	Zn	0.08417 0.00315 0.43599 1.18800
C 	C 	0.14261 0.99761 0.49334 0.36100
H 	H 	0.03452 0.02599 0.43928 0.15700
C 	C 	0.05520 0.97835 0.62796 0.02500
C 	C 	0.04092 0.97222 0.64972 -0.03600
N 	N 	0.02946 0.96783 0.70768 -0.07200
N 	N 	0.01126 0.96250 0.72557 -0.07800
C 	C 	0.94061 0.93874 0.77355 0.01400
C 	C 	0.95629 0.94396 0.75253 -0.04700
H 	H 	0.01515 0.93959 0.64118 0.06900
H 	H 	0.94929 0.91514 0.73240 0.05900
H 	H 	0.92223 0.90606 0.76979 0.02800
C 	C 	0.98720 0.96143 0.09575 0.01000
C 	C 	0.00259 0.97031 0.13105 -0.04200
N 	N 	0.01699 0.97537 0.19968 -0.08200
N 	N 	0.03218 0.98636 0.23375 -0.07700
H 	H 	0.00344 0.95170 0.08457 0.03800
H 	H 	0.03055 0.96727 0.14680 0.05400
C 	C 	0.43130 0.97664 0.52184 -0.05900
C 	C 	0.38896 0.96835 0.49686 -0.00600
C 	C 	0.35453 0.95346 0.50135 -0.02900
C 	C 	0.36209 0.94750 0.53124 -0.03300
C 	C 	0.40515 0.95772 0.55732 0.10000
C 	C 	0.43947 0.97200 0.55243 -0.04200
H 	H 	0.47220 0.97893 0.57220 0.06900
H 	H 	0.38246 0.97280 0.47362 0.05700
Br	Br	0.41810 0.95356 0.60013 -0.23200
C 	C 	0.23823 0.95876 0.52771 0.05200
C 	C 	0.23014 0.97180 0.50113 -0.08700
C 	C 	0.20102 0.98710 0.49167 0.05500
C 	C 	0.17874 0.98867 0.50802 -0.15500
C 	C 	0.18827 0.97753 0.53588 0.17400
C 	C 	0.21832 0.96305 0.54585 -0.11900
H 	H 	0.19458 0.99640 0.47071 0.02500
H 	H 	0.22516 0.95398 0.56694 0.08300
H 	H 	0.24530 0.96871 0.48695 0.05400
Br	Br	0.15887 0.97947 0.55923 -0.33200
C 	C 	0.26825 0.89828 0.94692 -0.06400
C 	C 	0.20036 0.86627 0.95736 -0.03000
C 	C 	0.19183 0.84461 0.92376 0.10000
C 	C 	0.22572 0.86058 0.91874 -0.03700
H 	H 	0.21904 0.84338 0.89298 0.06300
Br	Br	0.13389 0.79355 0.88419 -0.22200
C 	C 	0.00861 0.89802 0.92746 -0.06800
C 	C 	0.03487 0.90617 0.96288 0.00400
C 	C 	0.06577 0.89277 0.97256 -0.02900
C 	C 	0.07066 0.87116 0.94693 -0.02900
C 	C 	0.01477 0.87798 0.90221 -0.02900
H 	H 	0.08522 0.89833 0.99978 0.04400
H 	H 	0.03061 0.92188 0.98265 0.02800
C 	C 	0.64046 0.87274 0.96008 -0.07700
C 	C 	0.59973 0.85302 0.95634 0.06800
H 	H 	0.65199 0.90309 0.95855 0.07400
C 	C 	0.76456 0.93731 0.53434 0.01800
C 	C 	0.80565 0.95613 0.53851 -0.06900
H 	H 	0.82110 0.98921 0.54197 0.05700
O 	O 	0.43827 0.88565 0.88263 -0.48800
O 	O 	0.48135 0.94606 0.93753 -0.43700
Zn	Zn	0.32728 0.88816 0.89519 1.17600
Zn	Zn	0.40438 0.91113 0.96205 1.18700
C 	C 	0.30399 0.91455 0.94148 0.31000
O 	O 	0.29254 0.90453 0.90875 -0.47800
O 	O 	0.34536 0.92797 0.96704 -0.47100
O 	O 	0.38445 0.90443 0.91178 -0.79200
O 	O 	0.43223 0.92937 0.01588 -0.41800
Zn	Zn	0.41885 0.91655 0.85950 1.18800
C 	C 	0.47353 0.90885 0.91618 0.30900
H 	H 	0.37644 0.94906 0.86389 0.14900
O 	O 	0.61137 0.97563 0.45861 -0.49300
Zn	Zn	0.49025 0.96263 0.46890 1.18400
Zn	Zn	0.57044 0.98617 0.53533 1.20000
C 	C 	0.46578 0.98720 0.51458 0.30700
O 	O 	0.45298 0.97495 0.48136 -0.45000
O 	O 	0.50673 0.99881 0.53933 -0.46700
O 	O 	0.54842 0.98282 0.48614 -0.78700
O 	O 	0.59085 0.99873 0.58714 -0.40400
Zn	Zn	0.58417 0.00315 0.43599 1.18800
C 	C 	0.64260 0.99761 0.49334 0.36000
H 	H 	0.53452 0.02599 0.43928 0.15700
C 	C 	0.55520 0.97835 0.62796 0.02500
C 	C 	0.54092 0.97222 0.64972 -0.03600
N 	N 	0.52946 0.96783 0.70768 -0.07300
N 	N 	0.51126 0.96250 0.72557 -0.07800
C 	C 	0.44061 0.93874 0.77355 0.01400
C 	C 	0.45629 0.94396 0.75253 -0.04700
H 	H 	0.51515 0.93959 0.64118 0.06900
H 	H 	0.44929 0.91514 0.73240 0.05900
H 	H 	0.42223 0.90606 0.76979 0.02800
C 	C 	0.48720 0.96143 0.09575 0.01500
C 	C 	0.50259 0.97031 0.13105 -0.04700
N 	N 	0.51699 0.97537 0.19968 -0.08200
N 	N 	0.53218 0.98636 0.23375 -0.07700
H 	H 	0.50344 0.95170 0.08457 0.03600
H 	H 	0.53055 0.96727 0.14680 0.05500
C 	C 	0.93130 0.97664 0.52184 -0.05900
C 	C 	0.88896 0.96835 0.49686 -0.00600
C 	C 	0.85453 0.95346 0.50135 -0.02900
C 	C 	0.86209 0.94750 0.53124 -0.03300
C 	C 	0.90515 0.95772 0.55732 0.10000
C 	C 	0.93947 0.97200 0.55243 -0.04200
H 	H 	0.97220 0.97893 0.57220 0.06800
H 	H 	0.88246 0.97280 0.47362 0.05700
Br	Br	0.91810 0.95356 0.60013 -0.23300
C 	C 	0.73823 0.95876 0.52771 0.05200
C 	C 	0.73014 0.97180 0.50113 -0.08700
C 	C 	0.70102 0.98710 0.49167 0.05500
C 	C 	0.67874 0.98867 0.50802 -0.15500
C 	C 	0.68827 0.97753 0.53588 0.17400
C 	C 	0.71832 0.96305 0.54585 -0.11900
H 	H 	0.69458 0.99640 0.47071 0.02500
H 	H 	0.72516 0.95398 0.56694 0.08300
H 	H 	0.74530 0.96871 0.48695 0.05400
Br	Br	0.65887 0.97947 0.55923 -0.33200
C 	C 	0.76825 0.89828 0.94692 -0.06400
C 	C 	0.70036 0.86627 0.95736 -0.03000
C 	C 	0.69183 0.84461 0.92376 0.10000
C 	C 	0.72572 0.86058 0.91874 -0.03700
H 	H 	0.71904 0.84338 0.89298 0.06300
Br	Br	0.63389 0.79355 0.88419 -0.22200
C 	C 	0.50860 0.89802 0.92746 -0.06900
C 	C 	0.53487 0.90617 0.96288 0.00400
C 	C 	0.56577 0.89277 0.97256 -0.02900
C 	C 	0.57066 0.87116 0.94693 -0.03000
C 	C 	0.51477 0.87798 0.90221 -0.03000
H 	H 	0.58522 0.89833 0.99978 0.04400
H 	H 	0.53061 0.92188 0.98265 0.02700
