data_crystal

_cell_length_a 19.44115
_cell_length_b 18.88762
_cell_length_c 88.73151
_cell_angle_alpha 90.00153
_cell_angle_beta  90.00163
_cell_angle_gamma 119.87843

_symmetry_space_group_name_	'P 1'
_symmetry_space_group_name_H-M	'P 1'

loop_
_symmetry_equiv_pos_as_xyz
  x,y,z

loop_
_atom_site_label
_atom_site_type_symbol
_atom_site_fract_x
_atom_site_fract_y
_atom_site_fract_z
_atom_site_charge
C 	C 	0.09596 0.91647 0.67789 0.32700
O 	O 	0.08933 0.73140 0.68117 -0.33000
O 	O 	0.05709 0.80570 0.71618 -0.33800
O 	O 	0.07224 0.87089 0.69009 -0.32300
C 	C 	0.09218 0.85248 0.72783 0.33000
C 	C 	0.13706 0.23913 0.49189 0.33100
O 	O 	0.12608 0.41308 0.48689 -0.33100
O 	O 	0.07618 0.29242 0.45387 -0.33600
O 	O 	0.10796 0.25461 0.47972 -0.33300
C 	C 	0.10131 0.28111 0.44091 0.33800
Cu	Cu	0.95147 0.73534 0.96439 0.94000
C 	C 	0.96861 0.84505 0.98803 0.33400
O 	O 	0.99386 0.68976 0.98022 -0.32300
O 	O 	0.01619 0.80615 0.94751 -0.32200
O 	O 	0.98705 0.83713 0.97412 -0.33700
C 	C 	0.98555 0.80608 0.93438 0.33200
Cu	Cu	0.00526 0.27556 0.19879 0.93400
C 	C 	0.02690 0.16543 0.17982 0.32300
O 	O 	0.03478 0.34898 0.18054 -0.34000
O 	O 	0.98128 0.17265 0.16965 -0.33400
O 	O 	0.04975 0.21160 0.19195 -0.33300
C 	C 	0.04680 0.25798 0.22910 0.32800
C 	C 	0.00872 0.43518 0.16427 -0.11500
C 	C 	0.02059 0.56965 0.16219 0.09000
C 	C 	0.02843 0.03648 0.17434 0.09900
Br	Br	0.01298 0.87885 0.16745 -0.16300
C 	C 	0.98637 0.57146 0.99235 -0.09500
C 	C 	0.00738 0.49854 0.01301 0.10800
Br	Br	0.00848 0.08211 0.23876 -0.15500
C 	C 	0.05113 0.18865 0.33729 0.10400
C 	C 	0.12672 0.09574 0.33343 0.10800
Br	Br	0.99748 0.25132 0.33822 -0.12400
Br	Br	0.17816 0.03212 0.33025 -0.17700
Br	Br	0.12912 0.13742 0.43125 -0.15200
C 	C 	0.09586 0.15501 0.49778 -0.09800
C 	C 	0.13679 0.11126 0.49923 0.11200
Br	Br	0.15149 0.96932 0.50636 -0.14700
C 	C 	0.10372 0.49190 0.51460 0.10900
C 	C 	0.07978 0.60708 0.51531 -0.09000
Br	Br	0.08781 0.39039 0.52291 -0.14200
C 	C 	0.04180 0.91007 0.91387 0.11100
C 	C 	0.07961 0.98681 0.83255 0.11900
C 	C 	0.99735 0.81656 0.82819 0.10500
C 	C 	0.04448 0.86476 0.73938 -0.10100
C 	C 	0.05179 0.85086 0.75482 0.11400
C 	C 	0.10331 0.51316 0.66117 0.10400
C 	C 	0.05463 0.96108 0.67363 -0.07200
C 	C 	0.09755 0.04679 0.67215 0.09200
C 	C 	0.05759 0.08951 0.66846 0.11600
C 	C 	0.06992 0.99528 0.17070 0.10800
Br	Br	0.05284 0.98952 0.10385 -0.14800
Br	Br	0.03546 0.09653 0.07549 -0.14400
C 	C 	0.09480 0.02738 0.50279 0.08100
C 	C 	0.06278 0.52937 0.52064 0.10300
C 	C 	0.03725 0.48917 0.65164 -0.09000
C 	C 	0.05660 0.62697 0.65313 0.10800
C 	C 	0.04899 0.16039 0.42384 0.10300
C 	C 	0.06978 0.12224 0.17572 -0.09100
C 	C 	0.01072 0.92617 0.99495 -0.09500
Br	Br	0.14547 0.89968 0.99588 -0.13300
Br	Br	0.98368 0.47338 0.53599 -0.12600
C 	C 	0.99818 0.94610 0.82903 0.10100
Br	Br	0.02178 0.86198 0.78644 -0.13400
Br	Br	0.05375 0.08847 0.59727 -0.14800
Br	Br	0.04995 0.97210 0.56849 -0.14800
Cu	Cu	0.15137 0.35784 0.47003 0.93700
O 	O 	0.07552 0.29391 0.21618 -0.33900
C 	C 	0.07070 0.45907 0.15375 0.11500
Br	Br	0.85820 0.91884 0.99392 -0.16700
C 	C 	0.97087 0.97012 0.99746 0.10600
C 	C 	0.03939 0.84372 0.92156 -0.11400
Br	Br	0.09843 0.03619 0.89091 -0.15200
C 	C 	0.04847 0.57029 0.98427 0.10900
Br	Br	0.03337 0.70922 0.64592 -0.13600
Br	Br	0.06579 0.60064 0.96328 -0.15900
C 	C 	0.01609 0.54749 0.64711 0.10700
Br	Br	0.95898 0.11165 0.00626 -0.17100
C 	C 	0.96778 0.53775 0.00704 0.10800
Br	Br	0.96822 0.43428 0.03115 -0.13100
C 	C 	0.98211 0.35952 0.17306 0.33000
C 	C 	0.98112 0.48936 0.16792 0.12300
C 	C 	0.04343 0.22661 0.42973 -0.11700
C 	C 	0.14485 0.65049 0.50553 0.10300
C 	C 	0.11476 0.64688 0.66432 -0.09700
C 	C 	0.15742 0.52917 0.50264 -0.10100
Cu	Cu	0.12085 0.81320 0.69818 0.93700
C 	C 	0.08978 0.59688 0.15343 -0.08700
C 	C 	0.09337 0.18502 0.24603 0.10700
C 	C 	0.07313 0.50328 0.00533 -0.09300
Br	Br	0.11661 0.20588 0.66521 -0.15900
C 	C 	0.18121 0.61032 0.49864 0.10600
C 	C 	0.94893 0.61734 0.98621 0.31200
O 	O 	0.92933 0.78086 0.99682 -0.34500
Br	Br	0.97912 0.64183 0.16605 -0.13500
Br	Br	0.96538 0.94366 0.91850 -0.14600
Br	Br	0.98150 0.33848 0.43106 -0.17900
Br	Br	0.18600 0.76550 0.50215 -0.14600
Br	Br	0.93983 0.69899 0.82679 -0.11500
Cu	Cu	0.84235 0.09460 0.63495 0.93900
Cu	Cu	0.81801 0.15356 0.60148 0.90400
Cu	Cu	0.88224 0.27021 0.62802 0.90800
Cu	Cu	0.90565 0.22877 0.65994 0.91300
C 	C 	0.93469 0.08646 0.65945 0.33100
O 	O 	0.75306 0.05510 0.65011 -0.32500
C 	C 	0.80000 0.29073 0.60130 0.32400
O 	O 	0.92586 0.21690 0.63963 -0.63900
O 	O 	0.80129 0.15426 0.62288 -0.63000
O 	O 	0.84905 0.02500 0.61886 -0.33000
O 	O 	0.90054 0.12886 0.60209 -0.40200
O 	O 	0.91762 0.13484 0.66753 -0.34000
O 	O 	0.96536 0.37793 0.63408 -0.34200
C 	C 	0.98448 0.40150 0.64825 0.32200
C 	C 	0.73014 0.10470 0.65543 0.31400
O 	O 	0.77998 0.18360 0.65551 -0.35200
O 	O 	0.95062 0.35035 0.65966 -0.35000
O 	O 	0.90097 0.05734 0.64625 -0.33700
C 	C 	0.88391 0.05527 0.60593 0.32000
O 	O 	0.85210 0.32562 0.61239 -0.34200
O 	O 	0.76271 0.21143 0.59933 -0.37300
H 	H 	0.98209 0.23498 0.63734 0.19400
H 	H 	0.74688 0.14186 0.62541 0.20100
Cu	Cu	0.20339 0.80278 0.72913 0.89800
Cu	Cu	0.29372 0.85471 0.70014 0.90800
Cu	Cu	0.24200 0.90821 0.67193 0.91600
C 	C 	0.33505 0.78102 0.72519 0.32400
O 	O 	0.23645 0.90815 0.69319 -0.63200
O 	O 	0.18634 0.77381 0.70787 -0.63600
O 	O 	0.16759 0.87919 0.73005 -0.39600
O 	O 	0.14026 0.90691 0.66774 -0.33800
O 	O 	0.39671 0.93688 0.69253 -0.33900
C 	C 	0.41111 0.96653 0.67868 0.34200
C 	C 	0.14167 0.72165 0.67336 0.31600
O 	O 	0.21549 0.78166 0.67229 -0.35500
O 	O 	0.35926 0.97924 0.67129 -0.34600
O 	O 	0.35062 0.80876 0.71118 -0.33300
O 	O 	0.26320 0.74918 0.73078 -0.37500
H 	H 	0.25401 0.96219 0.69782 0.19600
H 	H 	0.17061 0.71628 0.70571 0.20200
Cu	Cu	0.31348 0.01201 0.86273 0.93500
Cu	Cu	0.38664 0.09880 0.89507 0.89300
Cu	Cu	0.43536 0.19323 0.86579 0.91000
Cu	Cu	0.35863 0.13215 0.83509 0.91200
C 	C 	0.20226 0.98299 0.83914 0.33700
O 	O 	0.37346 0.97743 0.84879 -0.32500
C 	C 	0.53518 0.24253 0.89322 0.32400
O 	O 	0.33534 0.12840 0.85586 -0.63600
O 	O 	0.40965 0.08465 0.87433 -0.63500
O 	O 	0.24575 0.94732 0.87975 -0.33700
O 	O 	0.27614 0.05930 0.89377 -0.40600
O 	O 	0.26065 0.02777 0.82974 -0.34600
O 	O 	0.45155 0.29477 0.85724 -0.34100
C 	C 	0.45625 0.31065 0.84265 0.32800
C 	C 	0.43821 0.03039 0.84170 0.31500
O 	O 	0.45366 0.10588 0.83976 -0.35800
O 	O 	0.41289 0.25345 0.83266 -0.34700
O 	O 	0.21622 0.95711 0.85193 -0.33100
C 	C 	0.22786 0.98239 0.89057 0.33800
O 	O 	0.52688 0.25980 0.87910 -0.33000
O 	O 	0.49688 0.16726 0.89832 -0.37900
H 	H 	0.29482 0.14365 0.85841 0.19800
H 	H 	0.45352 0.07263 0.87330 0.20100
Cu	Cu	0.76620 0.74510 0.79663 0.93700
Cu	Cu	0.70505 0.78240 0.76538 0.89900
Cu	Cu	0.64918 0.80794 0.79443 0.90800
Cu	Cu	0.72055 0.81362 0.82532 0.91300
C 	C 	0.87503 0.82021 0.82109 0.32700
O 	O 	0.70091 0.64342 0.80911 -0.33000
C 	C 	0.55361 0.76666 0.76645 0.32800
O 	O 	0.74686 0.83896 0.80479 -0.63500
O 	O 	0.67350 0.72772 0.78474 -0.63700
O 	O 	0.83783 0.75955 0.77948 -0.34100
O 	O 	0.81380 0.85404 0.76916 -0.40000
O 	O 	0.81687 0.80607 0.83050 -0.33900
O 	O 	0.63512 0.89192 0.80382 -0.34500
C 	C 	0.62652 0.89712 0.81845 0.32700
C 	C 	0.63925 0.63206 0.81711 0.32100
O 	O 	0.62519 0.69249 0.81928 -0.35900
O 	O 	0.66710 0.88012 0.82840 -0.34200
O 	O 	0.86035 0.78123 0.80814 -0.32500
C 	C 	0.85953 0.82207 0.77046 0.32700
O 	O 	0.56074 0.78828 0.78082 -0.33300
O 	O 	0.59696 0.73840 0.76049 -0.37800
H 	H 	0.78896 0.89592 0.80282 0.19600
H 	H 	0.62812 0.67116 0.78451 0.20400
Cu	Cu	0.21354 0.44445 0.43717 0.89300
Cu	Cu	0.32351 0.48664 0.46388 0.90900
Cu	Cu	0.28524 0.40125 0.49398 0.91200
C 	C 	0.35408 0.59692 0.43808 0.32200
O 	O 	0.26818 0.38111 0.47308 -0.63800
O 	O 	0.21301 0.46123 0.45881 -0.63200
O 	O 	0.17444 0.33071 0.43673 -0.40700
O 	O 	0.18800 0.29878 0.50071 -0.33900
O 	O 	0.42701 0.50124 0.46859 -0.34100
C 	C 	0.45305 0.50052 0.48232 0.32800
C 	C 	0.18103 0.48008 0.49335 0.32000
O 	O 	0.25551 0.49811 0.49291 -0.35800
O 	O 	0.40408 0.46121 0.49363 -0.34900
O 	O 	0.37844 0.58597 0.45136 -0.33000
O 	O 	0.27841 0.55868 0.43455 -0.37700
H 	H 	0.28197 0.34092 0.46902 0.19600
H 	H 	0.20184 0.50527 0.46158 0.20300
Cu	Cu	0.85813 0.77680 0.52935 0.93700
Cu	Cu	0.81026 0.67033 0.56058 0.90400
Cu	Cu	0.90142 0.64435 0.53538 0.91000
Cu	Cu	0.95043 0.73422 0.50539 0.91300
C 	C 	0.96778 0.90053 0.50905 0.32200
O 	O 	0.78289 0.73249 0.51171 -0.33100
C 	C 	0.80275 0.52018 0.55856 0.32500
O 	O 	0.94945 0.74970 0.52632 -0.63800
O 	O 	0.81259 0.66791 0.53887 -0.63300
O 	O 	0.84696 0.83792 0.54648 -0.33600
O 	O 	0.88986 0.77998 0.56366 -0.40200
O 	O 	0.96205 0.84289 0.49973 -0.33500
O 	O 	0.99307 0.63251 0.53133 -0.33900
C 	C 	0.02300 0.63700 0.51774 0.31900
C 	C 	0.77055 0.66664 0.50447 0.31700
O 	O 	0.82437 0.64406 0.50477 -0.34800
O 	O 	0.99917 0.66194 0.50588 -0.34500
O 	O 	0.92132 0.88273 0.52098 -0.32800
C 	C 	0.87681 0.83899 0.55977 0.33900
O 	O 	0.86298 0.54783 0.54894 -0.33700
O 	O 	0.75958 0.55545 0.55975 -0.37200
H 	H 	0.00181 0.78903 0.53063 0.19300
H 	H 	0.76155 0.62614 0.53447 0.20000
Cu	Cu	0.80973 0.04341 0.36656 0.93600
Cu	Cu	0.71590 0.96531 0.39810 0.89900
Cu	Cu	0.67123 0.86757 0.36866 0.90700
Cu	Cu	0.76578 0.92135 0.33962 0.91700
C 	C 	0.92591 0.06409 0.34477 0.33600
O 	O 	0.76567 0.08383 0.35010 -0.32300
C 	C 	0.56420 0.82910 0.39456 0.32000
O 	O 	0.77820 0.92277 0.36076 -0.63100
O 	O 	0.70584 0.97986 0.37662 -0.62800
O 	O 	0.87114 0.10834 0.38417 -0.33200
O 	O 	0.82463 0.99712 0.39917 -0.39000
O 	O 	0.86776 0.02360 0.33509 -0.34800
O 	O 	0.64082 0.76075 0.36005 -0.33700
C 	C 	0.65343 0.74609 0.34603 0.32700
C 	C 	0.69773 0.03468 0.34351 0.30100
O 	O 	0.67481 0.95657 0.34214 -0.34800
O 	O 	0.71428 0.80073 0.33809 -0.34500
O 	O 	0.91217 0.08654 0.35794 -0.33500
C 	C 	0.87784 0.07294 0.39631 0.32700
O 	O 	0.57198 0.81153 0.38045 -0.33700
O 	O 	0.60394 0.90437 0.39958 -0.37300
H 	H 	0.81225 0.90112 0.36442 0.19900
H 	H 	0.66676 0.99741 0.37440 0.20600
Cu	Cu	0.35395 0.30885 0.30038 0.93900
Cu	Cu	0.43012 0.31475 0.26730 0.89600
Cu	Cu	0.48960 0.27239 0.29595 0.90600
Cu	Cu	0.40892 0.23754 0.32657 0.91500
C 	C 	0.24833 0.21940 0.32435 0.33300
O 	O 	0.40713 0.39904 0.31583 -0.32400
C 	C 	0.58358 0.33472 0.26817 0.32000
O 	O 	0.38672 0.22102 0.30572 -0.63300
O 	O 	0.45182 0.34723 0.28840 -0.63200
O 	O 	0.28439 0.30835 0.28409 -0.33300
O 	O 	0.32023 0.23874 0.26822 -0.40200
O 	O 	0.31081 0.23910 0.33291 -0.34400
O 	O 	0.52625 0.20139 0.30451 -0.33700
C 	C 	0.51808 0.17638 0.31868 0.32700
C 	C 	0.47728 0.41979 0.32140 0.31200
O 	O 	0.49970 0.36465 0.32247 -0.35400
O 	O 	0.45850 0.16791 0.32710 -0.34800
O 	O 	0.25625 0.25098 0.31083 -0.33700
C 	C 	0.27110 0.26424 0.27193 0.33600
O 	O 	0.58271 0.31464 0.28249 -0.33800
O 	O 	0.54067 0.36640 0.26348 -0.37400
H 	H 	0.35054 0.16372 0.30268 0.19500
H 	H 	0.49228 0.40532 0.28974 0.20500
Cu	Cu	0.23690 0.29068 0.03220 0.94000
Cu	Cu	0.26210 0.39592 0.06308 0.89900
Cu	Cu	0.21494 0.44045 0.03312 0.90700
Cu	Cu	0.17048 0.34138 0.00477 0.91400
C 	C 	0.14000 0.17323 0.01026 0.33300
O 	O 	0.32033 0.32911 0.01581 -0.32300
C 	C 	0.29052 0.55527 0.05822 0.32100
O 	O 	0.15680 0.32970 0.02586 -0.63600
O 	O 	0.28499 0.40008 0.04164 -0.62900
O 	O 	0.23469 0.22675 0.05009 -0.33100
O 	O 	0.18216 0.28548 0.06479 -0.40100
O 	O 	0.16308 0.23385 0.00058 -0.34600
O 	O 	0.14210 0.47312 0.02477 -0.33900
C 	C 	0.11258 0.45882 0.01093 0.33000
C 	C 	0.34532 0.39956 0.00903 0.31200
O 	O 	0.29679 0.42879 0.00749 -0.35700
O 	O 	0.11152 0.40132 0.00226 -0.34900
O 	O 	0.17144 0.18557 0.02380 -0.33400
C 	C 	0.20113 0.22880 0.06274 0.33800
O 	O 	0.26487 0.54523 0.04414 -0.33700
O 	O 	0.32000 0.51157 0.06376 -0.37400
H 	H 	0.10112 0.29812 0.02936 0.19800
H 	H 	0.34161 0.43716 0.03929 0.20400
Cu	Cu	0.87879 0.64154 0.93221 0.89900
Cu	Cu	0.78424 0.58705 0.96164 0.90600
Cu	Cu	0.83188 0.67658 0.99121 0.91500
C 	C 	0.75147 0.48095 0.93518 0.32100
O 	O 	0.83295 0.69531 0.97027 -0.63500
O 	O 	0.89448 0.62971 0.95353 -0.62900
O 	O 	0.91102 0.75339 0.93179 -0.40300
O 	O 	0.67883 0.54991 0.97010 -0.33900
C 	C 	0.66207 0.56073 0.98410 0.32900
O 	O 	0.87202 0.58860 0.98745 -0.35600
O 	O 	0.71477 0.61937 0.99282 -0.35000
O 	O 	0.73417 0.48631 0.94941 -0.33800
O 	O 	0.82375 0.52647 0.92999 -0.37400
H 	H 	0.80896 0.72856 0.96715 0.19600
H 	H 	0.91427 0.59137 0.95538 0.20500
Cu	Cu	0.28203 0.99251 0.13639 0.93900
Cu	Cu	0.28443 0.92564 0.10244 0.89500
Cu	Cu	0.24038 0.81658 0.12976 0.90800
Cu	Cu	0.22078 0.85861 0.16158 0.91300
C 	C 	0.19405 0.00163 0.16155 0.32600
O 	O 	0.37512 0.03030 0.15059 -0.32500
C 	C 	0.30155 0.78640 0.10147 0.32300
O 	O 	0.19764 0.87055 0.14140 -0.64000
O 	O 	0.31733 0.93129 0.12333 -0.63000
O 	O 	0.27344 0.06325 0.12089 -0.33100
O 	O 	0.20718 0.95757 0.10483 -0.40500
O 	O 	0.21216 0.95371 0.16948 -0.33800
O 	O 	0.15878 0.70896 0.13602 -0.34100
C 	C 	0.14051 0.68494 0.15017 0.32600
C 	C 	0.39659 0.97953 0.15592 0.32100
O 	O 	0.34520 0.90096 0.15625 -0.35400
O 	O 	0.17188 0.73642 0.16161 -0.34800
O 	O 	0.22867 0.03274 0.14852 -0.33300
C 	C 	0.22953 0.03256 0.10885 0.33500
O 	O 	0.27554 0.76148 0.11533 -0.33600
O 	O 	0.33404 0.86376 0.09772 -0.37600
H 	H 	0.14114 0.85223 0.13935 0.19700
H 	H 	0.37319 0.94497 0.12452 0.20600
Cu	Cu	0.93576 0.31007 0.22962 0.89500
Cu	Cu	0.83362 0.23824 0.20131 0.90900
Cu	Cu	0.88028 0.17321 0.17380 0.91600
C 	C 	0.79893 0.32272 0.22534 0.32000
O 	O 	0.88828 0.18072 0.19507 -0.63000
O 	O 	0.94355 0.32171 0.20775 -0.63000
O 	O 	0.97363 0.23611 0.23271 -0.39300
O 	O 	0.72866 0.15762 0.19385 -0.33300
C 	C 	0.71324 0.12126 0.18054 0.32600
O 	O 	0.90788 0.30006 0.17230 -0.35200
O 	O 	0.76335 0.10263 0.17410 -0.34500
O 	O 	0.78010 0.28981 0.21173 -0.32900
O 	O 	0.87298 0.36118 0.22994 -0.37400
H 	H 	0.87093 0.12836 0.20037 0.19500
H 	H 	0.95971 0.37773 0.20432 0.20100
C 	C 	0.11347 0.54067 0.14883 0.10400
Br	Br	0.20764 0.57633 0.13675 -0.14100
Br	Br	0.09588 0.37936 0.14593 -0.14100
Br	Br	0.89123 0.45477 0.18116 -0.16700
C 	C 	0.54410 0.06736 0.15337 0.11100
C 	C 	0.47789 0.01147 0.16194 -0.09900
C 	C 	0.48939 0.99169 0.17674 0.11200
C 	C 	0.56676 0.02463 0.18259 0.10600
C 	C 	0.63199 0.08459 0.17438 -0.09100
C 	C 	0.62018 0.10689 0.15988 0.10400
Br	Br	0.70795 0.19406 0.14917 -0.15400
Br	Br	0.53155 0.08710 0.13248 -0.16400
Br	Br	0.58356 0.98371 0.20133 -0.12300
Br	Br	0.39943 0.92507 0.18948 -0.16300
C 	C 	0.15305 0.16609 0.17425 0.10800
C 	C 	0.19469 0.12400 0.17193 0.11100
C 	C 	0.15301 0.03948 0.16908 -0.09500
Br	Br	0.91539 0.97557 0.17767 -0.15700
Br	Br	0.30900 0.18163 0.17290 -0.13100
Br	Br	0.20936 0.28396 0.17406 -0.12500
C 	C 	0.09574 0.54301 0.99130 0.10700
Br	Br	0.89400 0.55144 0.01955 -0.14900
Br	Br	0.19371 0.56340 0.98199 -0.14100
C 	C 	0.51735 0.51659 0.98184 0.10900
C 	C 	0.57940 0.51362 0.98955 -0.09400
C 	C 	0.56418 0.47371 0.00356 0.10600
C 	C 	0.49044 0.44543 0.01063 0.10700
C 	C 	0.42663 0.44328 0.00258 -0.09500
C 	C 	0.43983 0.47589 0.98781 0.10700
Br	Br	0.35184 0.45829 0.97518 -0.15100
Br	Br	0.53899 0.58087 0.96374 -0.13500
Br	Br	0.47943 0.41603 0.03169 -0.16300
Br	Br	0.64366 0.45515 0.01282 -0.14300
C 	C 	0.09270 0.96291 0.99773 0.11100
C 	C 	0.13576 0.04516 0.00211 0.10900
C 	C 	0.09599 0.08926 0.00461 -0.09800
C 	C 	0.01347 0.05160 0.00240 0.10600
Br	Br	0.24971 0.09865 0.00402 -0.13400
C 	C 	0.13896 0.12072 0.08242 0.10900
C 	C 	0.20754 0.18514 0.07586 -0.11500
C 	C 	0.28304 0.20409 0.08116 0.10700
C 	C 	0.29041 0.15261 0.09161 0.10500
C 	C 	0.22189 0.08736 0.09809 -0.11000
C 	C 	0.14619 0.07307 0.09383 0.10700
Br	Br	0.39400 0.16725 0.09603 -0.16700
Br	Br	0.37618 0.30232 0.07446 -0.18800
C 	C 	0.36721 0.68522 0.07250 0.10800
C 	C 	0.29357 0.62161 0.06740 -0.09900
C 	C 	0.22267 0.61372 0.07322 0.10100
C 	C 	0.22540 0.66685 0.08461 0.10500
C 	C 	0.29906 0.72752 0.09031 -0.09900
C 	C 	0.37004 0.73646 0.08429 0.10800
Br	Br	0.47084 0.81570 0.09276 -0.13300
Br	Br	0.46393 0.70344 0.06301 -0.13300
Br	Br	0.12819 0.65742 0.09224 -0.17300
Br	Br	0.12166 0.52793 0.06597 -0.16900
C 	C 	0.16460 0.33395 0.24559 0.10800
C 	C 	0.10116 0.25886 0.24066 -0.10900
C 	C 	0.14879 0.18654 0.25642 0.10800
C 	C 	0.21437 0.26174 0.26073 -0.11100
C 	C 	0.22372 0.33524 0.25482 0.10700
Br	Br	0.32017 0.43713 0.25848 -0.17200
Br	Br	0.16806 0.43492 0.24039 -0.18000
Br	Br	0.13389 0.08610 0.26504 -0.15000
C 	C 	0.62947 0.25592 0.25278 0.10200
C 	C 	0.64111 0.33198 0.25774 -0.10000
C 	C 	0.70097 0.40458 0.25115 0.10800
C 	C 	0.74689 0.40085 0.23925 0.10700
C 	C 	0.73799 0.32511 0.23483 -0.09800
C 	C 	0.67854 0.25253 0.24148 0.10100
Br	Br	0.66630 0.14860 0.23551 -0.16800
Br	Br	0.54457 0.15621 0.26114 -0.17000
Br	Br	0.81948 0.49892 0.22855 -0.12300
Br	Br	0.72278 0.50906 0.25897 -0.13200
C 	C 	0.56985 0.64882 0.32596 0.10500
C 	C 	0.60776 0.66207 0.34002 -0.09200
C 	C 	0.60652 0.59602 0.34770 0.10900
C 	C 	0.56144 0.51615 0.34195 0.10800
C 	C 	0.52804 0.50371 0.32735 -0.09400
C 	C 	0.53555 0.57142 0.31915 0.10800
Br	Br	0.50283 0.55968 0.29834 -0.16600
Br	Br	0.56153 0.73589 0.31632 -0.14400
Br	Br	0.53874 0.42441 0.35475 -0.15000
Br	Br	0.67113 0.61515 0.36540 -0.12600
C 	C 	0.00819 0.10341 0.33937 -0.10100
C 	C 	0.04623 0.05705 0.33761 0.09600
C 	C 	0.16948 0.18093 0.33135 -0.09900
C 	C 	0.13247 0.22765 0.33394 0.11100
Br	Br	0.19403 0.34530 0.33329 -0.13600
Br	Br	0.98821 0.94080 0.34111 -0.15400
C 	C 	0.61581 0.04587 0.32259 0.10100
C 	C 	0.64915 0.06843 0.33719 -0.09200
C 	C 	0.64169 0.12902 0.34522 0.10600
C 	C 	0.60694 0.17040 0.33826 0.10500
C 	C 	0.56735 0.14261 0.32439 -0.09400
C 	C 	0.56945 0.07800 0.31681 0.11000
Br	Br	0.50437 0.02894 0.29924 -0.13200
Br	Br	0.64026 0.97860 0.30983 -0.14000
Br	Br	0.61655 0.26757 0.34744 -0.14800
Br	Br	0.67357 0.15176 0.36607 -0.17200
C 	C 	0.92462 0.18648 0.41481 0.10600
C 	C 	0.93274 0.12319 0.40824 -0.10900
C 	C 	0.99498 0.11011 0.41274 0.11600
C 	C 	0.98244 0.24094 0.42486 0.11200
Br	Br	0.83194 0.19582 0.41067 -0.17500
Br	Br	0.00775 0.02525 0.40335 -0.16100
C 	C 	0.47115 0.64878 0.42103 0.10400
C 	C 	0.41129 0.65956 0.42774 -0.09700
C 	C 	0.39965 0.72400 0.42297 0.10700
C 	C 	0.44400 0.77390 0.41086 0.10800
C 	C 	0.50566 0.76500 0.40451 -0.10000
C 	C 	0.51917 0.70230 0.40962 0.10200
Br	Br	0.60575 0.69199 0.40143 -0.16900
Br	Br	0.48594 0.55920 0.42719 -0.16500
Br	Br	0.41812 0.85206 0.40251 -0.13100
Br	Br	0.32665 0.74710 0.43367 -0.12700
C 	C 	0.59094 0.62096 0.48131 0.10600
C 	C 	0.53943 0.53808 0.48490 -0.09300
C 	C 	0.56964 0.49355 0.49242 0.10600
C 	C 	0.64629 0.53472 0.49872 0.10400
C 	C 	0.69625 0.61883 0.49586 -0.09900
C 	C 	0.67066 0.65934 0.48596 0.10800
Br	Br	0.74576 0.76569 0.47820 -0.13300
Br	Br	0.55148 0.68397 0.47118 -0.13800
Br	Br	0.68022 0.47681 0.51194 -0.16700
Br	Br	0.50783 0.37600 0.49335 -0.14100
C 	C 	0.01322 0.11484 0.50006 0.11200
C 	C 	0.01142 0.98634 0.50405 -0.06700
C 	C 	0.97059 0.02987 0.50208 0.09000
Br	Br	0.85623 0.97244 0.50105 -0.10700
Br	Br	0.95907 0.17692 0.50126 -0.12000
Br	Br	0.24985 0.16569 0.49593 -0.16900
Br	Br	0.26030 0.66492 0.48321 -0.16100
C 	C 	0.09361 0.81766 0.91783 0.10500
C 	C 	0.15750 0.86517 0.90823 0.10800
C 	C 	0.16099 0.93249 0.90066 -0.10900
C 	C 	0.10106 0.95268 0.90300 0.11000
Br	Br	0.24379 0.84259 0.90664 -0.16200
Br	Br	0.07815 0.71490 0.92536 -0.19400
C 	C 	0.57902 0.36812 0.90857 0.10300
C 	C 	0.59400 0.30721 0.90302 -0.09700
C 	C 	0.65895 0.30148 0.90856 0.10800
C 	C 	0.70611 0.35357 0.92022 0.10800
C 	C 	0.69219 0.41558 0.92555 -0.09900
C 	C 	0.62824 0.42242 0.91978 0.10100
Br	Br	0.60951 0.50780 0.92697 -0.17100
Br	Br	0.48995 0.37599 0.90103 -0.17000
Br	Br	0.78766 0.33794 0.92933 -0.13500
Br	Br	0.68551 0.22499 0.89966 -0.12800
C 	C 	0.62580 0.52445 0.83514 0.10700
C 	C 	0.59027 0.55338 0.82485 -0.10100
C 	C 	0.50847 0.50611 0.82178 0.10500
C 	C 	0.46297 0.42977 0.82885 0.10700
C 	C 	0.50079 0.39658 0.83759 -0.09300
C 	C 	0.58254 0.44429 0.84072 0.10400
Br	Br	0.63666 0.39823 0.85169 -0.14500
Br	Br	0.73155 0.59653 0.84247 -0.14400
Br	Br	0.34877 0.37378 0.82747 -0.13300
Br	Br	0.45954 0.54386 0.80737 -0.15400
C 	C 	0.07940 0.85782 0.83092 0.12100
C 	C 	0.12021 0.94263 0.83354 -0.09900
C 	C 	0.95698 0.86092 0.82680 -0.08800
Br	Br	0.13661 0.79869 0.83051 -0.10900
Br	Br	0.94340 0.00714 0.82688 -0.18100
Br	Br	0.13540 0.10287 0.83629 -0.17300
C 	C 	0.56966 0.03759 0.83869 0.10700
C 	C 	0.48914 0.00249 0.83459 -0.10600
C 	C 	0.45584 0.93682 0.82434 0.11400
C 	C 	0.49948 0.89963 0.81977 0.10200
C 	C 	0.58015 0.93486 0.82373 -0.08700
C 	C 	0.61613 0.00631 0.83264 0.10000
Br	Br	0.72947 0.06436 0.83570 -0.13600
Br	Br	0.61541 0.12595 0.85308 -0.16100
Br	Br	0.44711 0.79722 0.80902 -0.14400
Br	Br	0.35261 0.90160 0.81576 -0.13100
C 	C 	0.50568 0.84643 0.75206 0.10600
C 	C 	0.49331 0.77015 0.75703 -0.09600
C 	C 	0.43177 0.69776 0.75075 0.11000
C 	C 	0.38571 0.70172 0.73893 0.10900
C 	C 	0.39667 0.77783 0.73421 -0.09700
C 	C 	0.45763 0.85027 0.74061 0.10200
Br	Br	0.47383 0.95475 0.73394 -0.16200
Br	Br	0.58958 0.94575 0.76075 -0.16100
Br	Br	0.30931 0.60324 0.72880 -0.12800
Br	Br	0.40878 0.59332 0.75879 -0.13300
C 	C 	0.98325 0.87912 0.73481 0.10600
C 	C 	0.99713 0.85036 0.76523 0.10100
C 	C 	0.92685 0.84646 0.76003 -0.10500
C 	C 	0.91980 0.86038 0.74457 0.10900
Br	Br	0.82070 0.84240 0.73619 -0.21400
Br	Br	0.98888 0.92939 0.71561 -0.14200
Br	Br	0.13034 0.82408 0.76168 -0.20500
C 	C 	0.14072 0.59125 0.66784 0.10600
Br	Br	0.22499 0.62061 0.68225 -0.16500
Br	Br	0.14311 0.43940 0.66483 -0.15000
Br	Br	0.92922 0.51789 0.63335 -0.13300
C 	C 	0.63492 0.09576 0.67545 0.10200
C 	C 	0.64818 0.07165 0.66117 -0.08900
C 	C 	0.58296 0.01312 0.65268 0.08500
C 	C 	0.50610 0.97586 0.65884 0.13200
C 	C 	0.49263 0.00305 0.67271 -0.12100
C 	C 	0.55690 0.06554 0.68071 0.11800
Br	Br	0.53800 0.11386 0.69824 -0.14000
Br	Br	0.72318 0.16411 0.68841 -0.16400
Br	Br	0.41962 0.88499 0.64856 -0.16000
Br	Br	0.59769 0.98673 0.63235 -0.15500
C 	C 	0.97135 0.91882 0.67216 0.10300
C 	C 	0.97448 0.04690 0.66685 -0.11000
C 	C 	0.93127 0.96245 0.66974 0.12700
Br	Br	0.81701 0.90709 0.67068 -0.12000
Br	Br	0.91276 0.80097 0.67227 -0.11700
Br	Br	0.21069 0.10556 0.67542 -0.17800
C 	C 	0.80927 0.94009 0.58816 0.09700
C 	C 	0.88240 0.99973 0.59423 -0.08100
C 	C 	0.95387 0.00806 0.58867 0.08100
C 	C 	0.95218 0.95691 0.57699 0.12700
C 	C 	0.87894 0.89544 0.57132 -0.11500
C 	C 	0.80746 0.88608 0.57712 0.11600
Br	Br	0.70704 0.79674 0.57043 -0.18200
Br	Br	0.71184 0.93522 0.59442 -0.17800
C 	C 	0.77494 0.40470 0.59509 0.11300
C 	C 	0.78907 0.34236 0.59018 -0.10000
C 	C 	0.79678 0.33251 0.57457 0.10900
C 	C 	0.78877 0.38414 0.56420 0.11200
C 	C 	0.79012 0.45525 0.56934 -0.09900
C 	C 	0.78423 0.46602 0.58498 0.10900
Br	Br	0.79833 0.56770 0.59283 -0.19800
Br	Br	0.73352 0.40050 0.61499 -0.13400
Br	Br	0.76666 0.35256 0.54334 -0.12000
Br	Br	0.82669 0.25517 0.56742 -0.19100
