data_crystal

_cell_length_a 16.67142
_cell_length_b 16.88355
_cell_length_c 76.21121
_cell_angle_alpha 90.05795
_cell_angle_beta  89.95812
_cell_angle_gamma 119.79668

_symmetry_space_group_name_	'P 1'
_symmetry_space_group_name_H-M	'P 1'

loop_
_symmetry_equiv_pos_as_xyz
  x,y,z

loop_
_atom_site_label
_atom_site_type_symbol
_atom_site_fract_x
_atom_site_fract_y
_atom_site_fract_z
_atom_site_charge
C 	C 	0.99576 0.16324 0.00397 0.32000
Ni	Ni	0.93484 0.97070 0.00481 1.12400
O 	O 	0.92521 0.08220 0.00140 -0.36700
O 	O 	0.92968 0.84971 0.00579 -0.37000
O 	O 	0.08042 0.18007 0.00048 -0.35300
C 	C 	0.92659 0.67683 0.00743 -0.03900
H 	H 	0.00066 0.72002 0.00592 0.08300
C 	C 	0.92770 0.26280 0.00666 0.13300
C 	C 	0.13627 0.04630 0.01554 0.29900
O 	O 	0.05224 0.03201 0.02009 -0.34600
C 	C 	0.73609 0.56503 0.01123 -0.03200
C 	C 	0.79553 0.56281 0.02407 -0.07000
C 	C 	0.89184 0.61149 0.02087 0.13300
H 	H 	0.66219 0.51915 0.01210 0.08400
C 	C 	0.26814 0.02667 0.02367 -0.02200
Br	Br	0.45455 0.06705 0.01768 -0.17600
H 	H 	0.25310 0.97865 0.01302 0.07100
C 	C 	0.86419 0.27384 0.01689 -0.02600
C 	C 	0.98023 0.22748 0.01423 -0.07400
H 	H 	0.82175 0.29836 0.01086 0.08200
C 	C 	0.75578 0.51681 0.04113 0.29700
C 	C 	0.47661 0.21955 0.04630 0.30400
O 	O 	0.66607 0.48253 0.04375 -0.35500
O 	O 	0.54411 0.19944 0.04651 -0.35200
Br	Br	0.97529 0.58169 0.03264 -0.21000
C 	C 	0.20003 0.04733 0.02912 -0.07100
C 	C 	0.21695 0.10063 0.04434 0.12900
C 	C 	0.38045 0.14756 0.04240 -0.07000
C 	C 	0.35971 0.08054 0.02933 0.12500
C 	C 	0.85582 0.25406 0.03489 -0.06800
C 	C 	0.91801 0.23118 0.04285 0.13100
C 	C 	0.98209 0.22146 0.03253 -0.03700
H 	H 	0.02604 0.19892 0.03857 0.09100
C 	C 	0.79811 0.27842 0.04567 0.30800
Ni	Ni	0.59894 0.40283 0.06540 1.11900
Ni	Ni	0.62333 0.22249 0.06806 1.12500
Ni	Ni	0.80314 0.41987 0.06845 1.12900
O 	O 	0.81081 0.52723 0.05457 -0.34200
O 	O 	0.82365 0.36586 0.04690 -0.36800
O 	O 	0.72623 0.21307 0.05470 -0.34700
O 	O 	0.49266 0.30369 0.04971 -0.35300
O 	O 	0.67334 0.34846 0.06397 -0.72000
H 	H 	0.67500 0.34586 0.05106 0.15500
C 	C 	0.30722 0.15114 0.05083 -0.03100
H 	H 	0.32095 0.19556 0.06205 0.07500
Br	Br	0.11815 0.10249 0.05687 -0.19600
Br	Br	0.91591 0.21113 0.06764 -0.19200
C 	C 	0.49922 0.25425 0.09242 0.30600
C 	C 	0.73393 0.50278 0.09426 0.30200
C 	C 	0.77031 0.27258 0.09379 0.31500
O 	O 	0.68117 0.23693 0.09157 -0.38300
O 	O 	0.52748 0.33915 0.08796 -0.37100
O 	O 	0.50662 0.19787 0.08139 -0.37000
O 	O 	0.68823 0.51258 0.08113 -0.35400
O 	O 	0.79178 0.47272 0.09147 -0.36300
O 	O 	0.82950 0.33394 0.08275 -0.35900
C 	C 	0.71365 0.08027 0.09536 0.09900
N 	N 	0.67483 0.03234 0.08373 -0.09400
C 	C 	0.34231 0.06506 0.09444 0.10100
N 	N 	0.31858 0.01823 0.08221 -0.09300
C 	C 	0.76337 0.68599 0.09925 0.10400
N 	N 	0.77163 0.73127 0.08723 -0.08900
C 	C 	0.76232 0.14041 0.10995 0.03300
C 	C 	0.80344 0.23591 0.10793 -0.06400
C 	C 	0.86248 0.29428 0.12118 0.02900
C 	C 	0.90782 0.39249 0.11901 0.09900
N 	N 	0.94397 0.47089 0.11731 -0.09000
C 	C 	0.37170 0.12333 0.10984 0.02300
C 	C 	0.43977 0.21722 0.10846 -0.06700
C 	C 	0.45291 0.27566 0.12288 0.02300
C 	C 	0.48497 0.37181 0.12020 0.09700
N 	N 	0.50974 0.44848 0.11815 -0.09800
C 	C 	0.75307 0.62933 0.11432 0.02800
C 	C 	0.73093 0.53754 0.11197 -0.06700
C 	C 	0.87443 0.25691 0.13688 -0.03300
C 	C 	0.76801 0.10345 0.12613 -0.03500
C 	C 	0.71451 0.00574 0.12904 0.11500
N 	N 	0.97461 0.07066 0.13141 -0.09200
N 	N 	0.67182 0.92780 0.13137 -0.10100
C 	C 	0.34789 0.14653 0.14070 0.02300
C 	C 	0.32514 0.08862 0.12596 -0.03000
C 	C 	0.41869 0.23780 0.13940 -0.03400
C 	C 	0.25292 0.99393 0.12731 0.10400
N 	N 	0.19526 0.91839 0.12842 -0.09700
N 	N 	0.19192 0.23183 0.13313 -0.09800
C 	C 	0.76868 0.66695 0.13137 -0.03300
C 	C 	0.71909 0.48257 0.12685 0.02600
C 	C 	0.79177 0.76111 0.13387 0.11100
C 	C 	0.68751 0.38615 0.12489 0.08600
N 	N 	0.81026 0.83624 0.13591 -0.10000
N 	N 	0.66183 0.30889 0.12377 -0.09900
C 	C 	0.82374 0.16169 0.13968 0.02700
C 	C 	0.82962 0.12251 0.15688 0.02600
C 	C 	0.77835 0.12481 0.17145 -0.03300
C 	C 	0.88835 0.04229 0.17462 0.02800
C 	C 	0.88344 0.07967 0.15844 -0.03100
C 	C 	0.71592 0.16079 0.16948 0.11100
C 	C 	0.92825 0.98337 0.17548 0.08900
C 	C 	0.93428 0.07474 0.14342 0.11300
C 	C 	0.93787 0.31626 0.15022 0.11300
N 	N 	0.66615 0.18952 0.16787 -0.09700
N 	N 	0.95999 0.93612 0.17590 -0.09500
N 	N 	0.98846 0.36351 0.16088 -0.09100
C 	C 	0.30075 0.06857 0.17000 -0.03500
C 	C 	0.28671 0.11701 0.15642 0.02600
C 	C 	0.22308 0.14828 0.15873 -0.03500
C 	C 	0.17859 0.13680 0.17498 0.02500
C 	C 	0.20560 0.19467 0.14449 0.10700
C 	C 	0.45248 0.29419 0.15500 0.10700
C 	C 	0.36750 0.03801 0.16778 0.11100
N 	N 	0.47941 0.33916 0.16745 -0.09900
N 	N 	0.42081 0.01370 0.16598 -0.09800
C 	C 	0.73616 0.52079 0.14375 -0.03300
C 	C 	0.76373 0.61351 0.14598 0.02400
C 	C 	0.79257 0.65594 0.16365 0.03000
C 	C 	0.88551 0.69370 0.16896 -0.04500
C 	C 	0.72569 0.65074 0.17563 -0.03800
C 	C 	0.95348 0.69499 0.15689 0.12700
C 	C 	0.62946 0.60837 0.17041 0.11100
C 	C 	0.72734 0.46503 0.15892 0.10700
N 	N 	0.00759 0.69595 0.14724 -0.10700
N 	N 	0.55272 0.57452 0.16621 -0.09700
N 	N 	0.72036 0.42064 0.17101 -0.09600
C 	C 	0.78815 0.09220 0.18792 0.02900
C 	C 	0.84978 0.05813 0.18976 -0.06700
C 	C 	0.18768 0.08310 0.18814 -0.07100
C 	C 	0.25119 0.05147 0.18586 0.02900
C 	C 	0.12987 0.18616 0.17859 0.08600
N 	N 	0.09178 0.22646 0.18134 -0.09600
C 	C 	0.91234 0.73075 0.18592 0.05100
C 	C 	0.75255 0.68713 0.19263 0.03300
C 	C 	0.00702 0.76590 0.19162 0.07300
N 	N 	0.08261 0.79365 0.19613 -0.09700
C 	C 	0.12873 0.05718 0.20396 0.30500
C 	C 	0.88777 0.05604 0.20722 0.30700
O 	O 	0.07717 0.97005 0.20775 -0.36600
O 	O 	0.97459 0.11634 0.21056 -0.35600
C 	C 	0.73143 0.08912 0.20261 0.10900
C 	C 	0.26968 0.00644 0.20022 0.09400
N 	N 	0.28451 0.97061 0.21167 -0.09100
C 	C 	0.84695 0.73381 0.19728 -0.08000
C 	C 	0.68320 0.67551 0.20545 0.09300
C 	C 	0.87823 0.79963 0.21197 0.31900
Ni	Ni	0.04516 0.92206 0.23327 1.11300
Ni	Ni	0.04374 0.11552 0.23212 1.11700
O 	O 	0.83122 0.00880 0.22002 -0.37300
O 	O 	0.93621 0.80047 0.22366 -0.35200
O 	O 	0.84869 0.85822 0.21296 -0.37600
O 	O 	0.14261 0.12060 0.21559 -0.36900
Br	Br	0.87331 0.25057 0.23660 -0.19300
N 	N 	0.68565 0.08627 0.21429 -0.08800
N 	N 	0.62792 0.66626 0.21570 -0.09000
C 	C 	0.19452 0.10323 0.25032 0.30600
C 	C 	0.90947 0.83473 0.26278 0.29400
C 	C 	0.87987 0.08302 0.25518 0.30200
Ni	Ni	0.85255 0.92409 0.23536 1.12800
O 	O 	0.17463 0.02748 0.24155 -0.34500
O 	O 	0.13429 0.13293 0.25160 -0.37100
O 	O 	0.96355 0.14268 0.24883 -0.33500
O 	O 	0.85123 0.99485 0.25614 -0.36600
O 	O 	0.99720 0.86591 0.25810 -0.33900
O 	O 	0.84643 0.82167 0.25071 -0.34200
O 	O 	0.98349 0.98850 0.23692 -0.71000
H 	H 	0.99030 0.99571 0.24974 0.16300
C 	C 	0.44587 0.18841 0.26231 -0.03500
C 	C 	0.47634 0.27973 0.26654 -0.07300
C 	C 	0.41957 0.31660 0.26221 0.12600
C 	C 	0.32787 0.25885 0.25689 -0.03100
C 	C 	0.29182 0.16376 0.25605 -0.07100
C 	C 	0.35211 0.12849 0.25900 0.12600
Br	Br	0.30625 0.99995 0.26218 -0.19500
H 	H 	0.49117 0.16065 0.26469 0.08000
H 	H 	0.28448 0.28785 0.25373 0.07700
Br	Br	0.46404 0.44467 0.26501 -0.19300
C 	C 	0.74825 0.20663 0.26558 -0.02400
C 	C 	0.82570 0.11692 0.26468 -0.06100
C 	C 	0.80976 0.18461 0.25736 0.12600
H 	H 	0.73960 0.26170 0.26040 0.06800
C 	C 	0.68004 0.21585 0.29357 0.33100
C 	C 	0.53897 0.31767 0.28157 0.31200
O 	O 	0.63034 0.35200 0.27919 -0.35900
C 	C 	0.87902 0.79668 0.28078 -0.07200
Br	Br	0.71049 0.80894 0.27675 -0.20200
C 	C 	0.70518 0.16466 0.28143 -0.08500
C 	C 	0.71463 0.09190 0.28781 0.14000
C 	C 	0.77711 0.07059 0.27988 -0.03300
H 	H 	0.78752 0.01746 0.28549 0.09500
Ni	Ni	0.73341 0.40477 0.29805 1.12600
O 	O 	0.73264 0.52280 0.29936 -0.36700
O 	O 	0.59258 0.19185 0.29610 -0.36600
O 	O 	0.50037 0.29363 0.29720 -0.37800
O 	O 	0.74565 0.29386 0.29938 -0.37200
C 	C 	0.75415 0.70784 0.30136 -0.03100
C 	C 	0.93927 0.78297 0.29160 -0.00900
C 	C 	0.78783 0.76653 0.28686 0.13400
H 	H 	0.01201 0.81418 0.28838 0.06900
Br	Br	0.64363 0.02180 0.30757 -0.17700
C 	C 	0.76509 0.57842 0.31302 0.30200
C 	C 	0.87084 0.44612 0.32678 0.32700
Ni	Ni	0.55016 0.24583 0.31547 1.12600
O 	O 	0.85807 0.47216 0.31123 -0.33900
O 	O 	0.64837 0.36840 0.31713 -0.71500
H 	H 	0.61625 0.40263 0.31448 0.17300
C 	C 	0.80900 0.67668 0.30936 -0.06600
C 	C 	0.90481 0.72562 0.30624 0.12200
H 	H 	0.68201 0.67795 0.30500 0.08200
H 	H 	0.44270 0.46670 0.32355 0.07700
Br	Br	0.06512 0.46958 0.31440 -0.18500
Br	Br	0.98894 0.71343 0.32148 -0.17500
Br	Br	0.57859 0.86437 0.99435 -0.17600
C 	C 	0.49348 0.35341 0.33922 0.29900
Ni	Ni	0.69466 0.41407 0.33951 1.11600
O 	O 	0.77125 0.54924 0.32912 -0.34500
O 	O 	0.61167 0.20024 0.33221 -0.35800
O 	O 	0.79928 0.38585 0.33524 -0.36300
O 	O 	0.48068 0.27095 0.33511 -0.35000
C 	C 	0.41302 0.44123 0.33638 -0.03100
Br	Br	0.38458 0.59604 0.33711 -0.19100
C 	C 	0.95098 0.50924 0.33744 -0.05400
C 	C 	0.03697 0.51387 0.33537 0.11600
H 	H 	0.16727 0.54957 0.34756 0.08100
C 	C 	0.44374 0.85759 0.37755 0.30300
C 	C 	0.14234 0.59597 0.38016 0.30200
C 	C 	0.36188 0.53010 0.37775 0.30200
O 	O 	0.35269 0.81444 0.37835 -0.34300
O 	O 	0.49005 0.81273 0.37992 -0.34900
O 	O 	0.42895 0.61695 0.37696 -0.35100
O 	O 	0.15969 0.66621 0.39060 -0.33600
O 	O 	0.16624 0.53428 0.38466 -0.36100
H 	H 	0.31694 0.66282 0.38529 0.15700
C 	C 	0.61523 0.21574 0.34902 0.32600
O 	O 	0.62936 0.29509 0.35482 -0.35100
O 	O 	0.57626 0.42124 0.34354 -0.35800
C 	C 	0.41386 0.36466 0.34337 -0.07200
C 	C 	0.36412 0.32589 0.35888 0.13000
C 	C 	0.33909 0.37720 0.36962 -0.03300
C 	C 	0.35936 0.46517 0.36441 -0.07100
C 	C 	0.38688 0.49258 0.34696 0.12800
H 	H 	0.30888 0.35087 0.38237 0.08500
Br	Br	0.33543 0.20602 0.36613 -0.19300
C 	C 	0.93434 0.54635 0.35261 -0.02700
C 	C 	0.10195 0.54827 0.34902 -0.02100
C 	C 	0.08088 0.57648 0.36491 -0.08600
C 	C 	0.99687 0.57691 0.36651 0.14900
H 	H 	0.86828 0.54306 0.35431 0.05000
C 	C 	0.58238 0.99253 0.36466 -0.02100
C 	C 	0.49516 0.95615 0.37269 -0.05900
C 	C 	0.46028 0.01571 0.37671 0.12100
C 	C 	0.50778 0.10639 0.37090 -0.02900
C 	C 	0.58922 0.13896 0.36115 -0.07500
C 	C 	0.63042 0.08411 0.35940 0.12900
Br	Br	0.75347 0.13436 0.35027 -0.16800
H 	H 	0.61280 0.94971 0.36240 0.08900
H 	H 	0.47875 0.15026 0.37324 0.09200
Br	Br	0.35087 0.97779 0.39063 -0.21200
C 	C 	0.46012 0.83806 0.42359 0.30400
C 	C 	0.40575 0.58449 0.42787 0.30500
Ni	Ni	0.28862 0.75593 0.40183 1.12300
Ni	Ni	0.24692 0.54848 0.40564 1.12500
Ni	Ni	0.45540 0.70554 0.39694 1.12500
O 	O 	0.31805 0.56270 0.42783 -0.37200
O 	O 	0.23956 0.71597 0.42723 -0.36300
O 	O 	0.15347 0.56690 0.41961 -0.36500
O 	O 	0.40903 0.85660 0.41324 -0.35500
O 	O 	0.49989 0.79282 0.41765 -0.36500
O 	O 	0.31500 0.49593 0.39247 -0.37200
O 	O 	0.45545 0.61172 0.41340 -0.36700
O 	O 	0.32746 0.67072 0.39805 -0.71800
Br	Br	0.95958 0.60685 0.38828 -0.18100
N 	N 	0.31107 0.33989 0.42543 -0.09400
C 	C 	0.60797 0.02395 0.42121 0.08900
N 	N 	0.64005 0.05455 0.40770 -0.09100
C 	C 	0.17807 0.63193 0.43126 0.31300
C 	C 	0.44284 0.56091 0.44337 -0.06800
C 	C 	0.35451 0.39700 0.43543 0.09800
C 	C 	0.56794 0.98574 0.43817 0.05100
C 	C 	0.49799 0.89344 0.43954 -0.07100
N 	N 	0.10368 0.79957 0.43533 -0.08900
N 	N 	0.62351 0.79047 0.44328 -0.09000
C 	C 	0.50791 0.60782 0.47251 -0.03300
C 	C 	0.47622 0.51610 0.47719 0.02500
C 	C 	0.43045 0.44663 0.46450 -0.03400
C 	C 	0.40894 0.46864 0.44793 0.02800
C 	C 	0.50267 0.62989 0.45497 0.02400
C 	C 	0.40734 0.35359 0.46836 0.11000
C 	C 	0.56908 0.71911 0.44837 0.09200
N 	N 	0.72400 0.60574 0.47754 -0.09700
N 	N 	0.38892 0.27935 0.47147 -0.09600
C 	C 	0.56066 0.00308 0.46979 0.01800
C 	C 	0.59900 0.04065 0.45332 -0.04500
C 	C 	0.46359 0.85483 0.45618 0.02300
C 	C 	0.49599 0.90943 0.47130 -0.02400
C 	C 	0.66952 0.13601 0.45198 0.11300
C 	C 	0.39506 0.75911 0.45781 0.08600
C 	C 	0.45683 0.09345 0.47695 0.10800
N 	N 	0.72578 0.21212 0.45094 -0.09800
N 	N 	0.34064 0.68277 0.45941 -0.10100
N 	N 	0.40140 0.08697 0.46702 -0.09600
C 	C 	0.11557 0.53638 0.45863 0.02700
C 	C 	0.12912 0.61231 0.44846 -0.06800
C 	C 	0.10118 0.67289 0.45527 0.02800
C 	C 	0.06657 0.66148 0.47253 -0.03400
C 	C 	0.10260 0.74337 0.44418 0.10200
C 	C 	0.13851 0.47035 0.45153 0.09500
N 	N 	0.15620 0.41702 0.44598 -0.10200
N 	N 	0.81751 0.46533 0.46809 -0.09600
C 	C 	0.66445 0.57105 0.48761 0.10700
C 	C 	0.54418 0.67897 0.48573 0.10700
C 	C 	0.52637 0.10137 0.48938 -0.03600
C 	C 	0.58250 0.06321 0.48535 0.02600
C 	C 	0.71231 0.03716 0.49251 0.11000
C 	C 	0.46198 0.86970 0.48847 0.10900
N 	N 	0.76004 0.00808 0.48886 -0.09700
C 	C 	0.05252 0.58551 0.48256 0.02400
C 	C 	0.85439 0.48520 0.48156 0.10800
C 	C 	0.07810 0.52370 0.47567 -0.03400
C 	C 	0.06360 0.44559 0.48603 0.10800
C 	C 	0.04344 0.72686 0.47989 0.11000
N 	N 	0.02489 0.77894 0.48578 -0.09400
C 	C 	0.49724 0.49372 0.49499 0.02500
C 	C 	0.42516 0.44306 0.50708 -0.03300
C 	C 	0.58988 0.52761 0.50022 -0.03200
C 	C 	0.33085 0.41852 0.50282 0.11000
N 	N 	0.25562 0.39897 0.49940 -0.09700
N 	N 	0.57317 0.73580 0.49629 -0.09600
C 	C 	0.65234 0.07350 0.49705 -0.03600
C 	C 	0.53657 0.14558 0.50555 0.02800
C 	C 	0.47532 0.18059 0.50996 0.09700
N 	N 	0.43502 0.83820 0.50218 -0.09000
N 	N 	0.42585 0.20801 0.51332 -0.09400
C 	C 	0.99778 0.56274 0.49916 0.02500
C 	C 	0.90077 0.51014 0.49845 -0.03400
N 	N 	0.05180 0.38326 0.49430 -0.09700
C 	C 	0.44569 0.41791 0.52343 0.02900
C 	C 	0.60950 0.51660 0.51765 0.02400
C 	C 	0.69819 0.58061 0.52515 0.09900
C 	C 	0.66260 0.11732 0.51328 0.03100
C 	C 	0.60533 0.15440 0.51749 -0.07000
C 	C 	0.72880 0.12026 0.52599 0.09800
C 	C 	0.04281 0.58958 0.51555 -0.03000
C 	C 	0.84880 0.48021 0.51403 0.02400
C 	C 	0.14260 0.64562 0.51626 0.10800
C 	C 	0.74969 0.42145 0.51293 0.09100
N 	N 	0.67064 0.37456 0.51164 -0.10400
N 	N 	0.22226 0.69031 0.51680 -0.09400
C 	C 	0.61790 0.20266 0.53428 0.31500
O 	O 	0.70098 0.26707 0.53871 -0.37100
C 	C 	0.53872 0.45085 0.52828 -0.06400
C 	C 	0.37189 0.36227 0.53556 0.09800
N 	N 	0.76914 0.63291 0.53100 -0.08900
N 	N 	0.78155 0.12256 0.53613 -0.09800
C 	C 	0.89363 0.50511 0.53053 -0.06900
C 	C 	0.99073 0.56135 0.53124 0.01900
C 	C 	0.83915 0.47074 0.54698 0.30800
C 	C 	0.56182 0.40960 0.54319 0.30400
O 	O 	0.52383 0.31964 0.54373 -0.36900
O 	O 	0.55072 0.16878 0.54590 -0.35900
O 	O 	0.85254 0.41686 0.55731 -0.36400
O 	O 	0.77893 0.49597 0.55118 -0.36400
O 	O 	0.60187 0.46061 0.55704 -0.36500
Br	Br	0.53356 0.94985 0.55710 -0.18400
N 	N 	0.31301 0.31787 0.54525 -0.09500
C 	C 	0.03682 0.59105 0.54807 0.10800
Ni	Ni	0.74370 0.29105 0.56455 1.12000
Ni	Ni	0.52918 0.24526 0.56398 1.12300
O 	O 	0.65577 0.15367 0.57049 -0.34500
O 	O 	0.65474 0.32418 0.57055 -0.71900
N 	N 	0.07355 0.61471 0.56150 -0.09200
C 	C 	0.58559 0.12169 0.58164 0.30500
Ni	Ni	0.69437 0.45058 0.57256 1.12800
O 	O 	0.47160 0.29515 0.58141 -0.36200
O 	O 	0.52584 0.15280 0.58176 -0.35500
H 	H 	0.64651 0.30870 0.58313 0.15600
C 	C 	0.54625 0.95760 0.58220 0.13900
H 	H 	0.51249 0.81729 0.58456 0.07800
C 	C 	0.80493 0.40129 0.59795 0.28900
C 	C 	0.51274 0.38020 0.58764 0.29900
O 	O 	0.79525 0.32752 0.58976 -0.34000
O 	O 	0.79989 0.46742 0.58909 -0.35300
O 	O 	0.60163 0.42234 0.59180 -0.35700
C 	C 	0.44489 0.56697 0.59070 -0.04100
C 	C 	0.34992 0.51397 0.59411 -0.08000
C 	C 	0.30699 0.41955 0.59102 0.13100
C 	C 	0.36052 0.37685 0.58925 -0.03300
C 	C 	0.45783 0.42873 0.58919 -0.07000
C 	C 	0.50004 0.52575 0.58901 0.12600
Br	Br	0.63136 0.60477 0.58666 -0.23800
H 	H 	0.47775 0.64066 0.59128 0.07800
H 	H 	0.32620 0.30319 0.58817 0.08600
Br	Br	0.17487 0.34669 0.59107 -0.17200
C 	C 	0.56285 0.03731 0.59131 -0.07600
C 	C 	0.53194 0.88015 0.59159 -0.03000
C 	C 	0.31078 0.54613 0.60793 0.32600
C 	C 	0.08919 0.53279 0.64387 0.33600
C 	C 	0.45464 0.79607 0.61834 0.30300
Ni	Ni	0.25484 0.67161 0.62584 1.11900
Ni	Ni	0.41067 0.62411 0.63966 1.12400
O 	O 	0.20321 0.73885 0.64256 -0.33100
O 	O 	0.29355 0.61335 0.60506 -0.34300
O 	O 	0.31904 0.52608 0.62392 -0.37300
O 	O 	0.14159 0.54544 0.63031 -0.35900
O 	O 	0.37296 0.79047 0.61977 -0.35700
O 	O 	0.46464 0.72196 0.61983 -0.35800
O 	O 	0.32238 0.66034 0.64454 -0.71800
H 	H 	0.36513 0.72492 0.64729 0.18000
Br	Br	0.12777 0.29031 0.64098 -0.16900
H 	H 	0.18535 0.89676 0.65314 0.08500
C 	C 	0.88142 0.50971 0.62286 -0.03800
C 	C 	0.84825 0.42237 0.61571 -0.06300
C 	C 	0.86997 0.36119 0.62444 0.12700
C 	C 	0.94182 0.39515 0.63677 -0.02200
C 	C 	0.98854 0.48803 0.64110 -0.09100
C 	C 	0.94867 0.54112 0.63605 0.13000
H 	H 	0.85664 0.55392 0.61797 0.08300
H 	H 	0.96549 0.35069 0.64201 0.08200
Br	Br	0.79595 0.23133 0.62163 -0.19800
C 	C 	0.57112 0.03989 0.60962 -0.03700
C 	C 	0.52721 0.87913 0.60997 -0.07000
C 	C 	0.55801 0.96251 0.61884 0.13900
Br	Br	0.57058 0.96820 0.64388 -0.18200
H 	H 	0.58726 0.10169 0.61671 0.08500
C 	C 	0.22397 0.76169 0.65960 0.30800
O 	O 	0.37720 0.52097 0.65717 -0.37000
O 	O 	0.12631 0.57379 0.65885 -0.33700
O 	O 	0.49282 0.71340 0.65763 -0.36800
C 	C 	0.17719 0.29834 0.66405 0.13200
C 	C 	0.15704 0.86227 0.66548 -0.02200
Br	Br	0.10394 0.99908 0.67015 -0.17600
Br	Br	0.97852 0.65174 0.64795 -0.20900
C 	C 	0.29069 0.46255 0.66152 0.32900
C 	C 	0.46774 0.70988 0.67421 0.30900
Ni	Ni	0.26114 0.61592 0.66629 1.13400
O 	O 	0.28011 0.74203 0.66807 -0.35000
O 	O 	0.22869 0.48794 0.66169 -0.37100
C 	C 	0.12306 0.23386 0.67673 -0.02300
C 	C 	0.26435 0.37220 0.66866 -0.07900
H 	H 	0.05333 0.18110 0.67353 0.08800
C 	C 	0.16612 0.78689 0.67028 -0.05800
C 	C 	0.11500 0.89568 0.67698 0.13700
O 	O 	0.38170 0.65096 0.67962 -0.35200
H 	H 	0.57673 0.64386 0.68415 0.07700
C 	C 	0.30545 0.36727 0.68432 -0.02900
C 	C 	0.12691 0.74137 0.68641 0.14200
O 	O 	0.17264 0.07913 0.99991 -0.37300
C 	C 	0.59941 0.71185 0.68919 -0.03100
C 	C 	0.54258 0.75056 0.68721 -0.06500
C 	C 	0.57291 0.83926 0.69361 0.12600
C 	C 	0.68865 0.76313 0.69600 0.13300
Br	Br	0.76882 0.71178 0.69564 -0.20300
Br	Br	0.49406 0.89178 0.69246 -0.17900
C 	C 	0.15935 0.23668 0.69341 -0.07300
C 	C 	0.25389 0.29887 0.69662 0.13000
H 	H 	0.37486 0.42053 0.68758 0.07900
C 	C 	0.08022 0.77170 0.69710 -0.01700
C 	C 	0.08009 0.85206 0.69322 -0.07200
Br	Br	0.14247 0.64303 0.69524 -0.23800
C 	C 	0.10271 0.16628 0.70640 0.32500
C 	C 	0.80484 0.89860 0.71292 0.32400
C 	C 	0.05855 0.89693 0.70735 0.34600
O 	O 	0.12444 0.94675 0.71861 -0.36800
O 	O 	0.03395 0.16892 0.71451 -0.34100
O 	O 	0.11390 0.09576 0.70803 -0.36400
O 	O 	0.86231 0.98662 0.71099 -0.36000
O 	O 	0.97137 0.86413 0.71170 -0.37900
C 	C 	0.66133 0.88987 0.70106 -0.02200
C 	C 	0.72002 0.85252 0.70219 -0.07600
H 	H 	0.68339 0.95726 0.70633 0.07400
H 	H 	0.05115 0.73707 0.70942 0.08400
Ni	Ni	0.94046 0.06801 0.73197 1.10400
Ni	Ni	0.12825 0.05210 0.73162 1.12900
Ni	Ni	0.93245 0.87264 0.73627 1.12200
O 	O 	0.03289 0.85482 0.74778 -0.35700
O 	O 	0.81145 0.85538 0.72661 -0.36000
O 	O 	0.00139 0.00218 0.73703 -0.70900
N 	N 	0.33022 0.97227 0.74448 -0.08900
N 	N 	0.22834 0.41430 0.74020 -0.08600
Br	Br	0.31499 0.28994 0.71719 -0.22000
C 	C 	0.83939 0.93168 0.76226 0.28600
C 	C 	0.10414 0.18164 0.75517 0.28400
C 	C 	0.09915 0.91480 0.75827 0.30700
O 	O 	0.83389 0.98388 0.74963 -0.35000
O 	O 	0.87876 0.88065 0.75955 -0.36300
O 	O 	0.14737 0.00260 0.75414 -0.37600
O 	O 	0.01749 0.15942 0.75169 -0.34100
O 	O 	0.15688 0.17304 0.74310 -0.34900
H 	H 	0.00818 0.01098 0.74980 0.15800
C 	C 	0.22995 0.90742 0.77272 0.03200
C 	C 	0.13511 0.88063 0.77236 -0.07400
C 	C 	0.28575 0.94352 0.75702 0.09900
C 	C 	0.21548 0.37741 0.75356 0.11000
C 	C 	0.66285 0.76562 0.76611 0.10000
N 	N 	0.62886 0.71725 0.75429 -0.09000
C 	C 	0.97820 0.79104 0.78527 0.06000
N 	N 	0.89885 0.75994 0.78448 -0.09000
C 	C 	0.19915 0.33127 0.77032 0.02800
C 	C 	0.14787 0.23514 0.77112 -0.06000
C 	C 	0.78290 0.91371 0.77821 -0.06400
C 	C 	0.70554 0.82635 0.78091 0.02700
C 	C 	0.49980 0.72312 0.92986 0.30000
C 	C 	0.25873 0.51770 0.86957 0.31100
C 	C 	0.54055 0.72994 0.87994 0.31500
C 	C 	0.19579 0.47221 0.91576 0.31100
C 	C 	0.33213 0.78921 0.86924 0.31400
C 	C 	0.27523 0.79387 0.91801 0.30800
Ni	Ni	0.38509 0.58309 0.90073 1.11800
Ni	Ni	0.22706 0.63895 0.89374 1.12600
Ni	Ni	0.43681 0.79452 0.90049 1.12900
O 	O 	0.48988 0.65554 0.91926 -0.33500
O 	O 	0.47205 0.78175 0.92526 -0.35200
O 	O 	0.25955 0.75140 0.87957 -0.37400
O 	O 	0.28665 0.49135 0.88331 -0.37000
O 	O 	0.24039 0.58484 0.87079 -0.37300
O 	O 	0.35160 0.84023 0.90856 -0.35900
O 	O 	0.47593 0.64368 0.87967 -0.35700
O 	O 	0.54601 0.78091 0.89325 -0.36600
O 	O 	0.21475 0.70625 0.91464 -0.35600
O 	O 	0.28500 0.51278 0.91956 -0.36300
O 	O 	0.16015 0.51220 0.90570 -0.34000
O 	O 	0.41366 0.80738 0.87503 -0.37900
O 	O 	0.34591 0.66897 0.90216 -0.72400
H 	H 	0.33209 0.66526 0.91480 0.16900
C 	C 	0.13414 0.98396 0.95559 0.30200
C 	C 	0.77924 0.91548 0.97973 0.33400
C 	C 	0.02981 0.12807 0.94878 0.33700
C 	C 	0.89644 0.78954 0.99282 0.29800
Ni	Ni	0.94130 0.93532 0.96342 1.11500
Ni	Ni	0.10820 0.11117 0.98167 1.12700
O 	O 	0.05036 0.91587 0.95848 -0.35500
O 	O 	0.16231 0.06958 0.96124 -0.34000
O 	O 	0.84607 0.97322 0.97001 -0.37400
O 	O 	0.80107 0.89857 0.99533 -0.34300
O 	O 	0.99865 0.04176 0.94473 -0.34700
O 	O 	0.04364 0.15379 0.96511 -0.36800
O 	O 	0.87184 0.80931 0.97739 -0.33900
O 	O 	0.00592 0.99154 0.98390 -0.71400
H 	H 	0.03824 0.95749 0.98657 0.17100
C 	C 	0.86630 0.69391 0.99732 -0.06700
C 	C 	0.77133 0.62933 0.99772 0.13000
Br	Br	0.68882 0.62681 0.97999 -0.19200
Br	Br	0.93634 0.28860 0.98203 -0.18800
C 	C 	0.54068 0.77364 0.96083 -0.03400
C 	C 	0.56322 0.74751 0.94485 -0.06000
C 	C 	0.65290 0.76102 0.94240 0.12200
C 	C 	0.72001 0.80682 0.95508 -0.00100
C 	C 	0.70055 0.84158 0.97028 -0.09100
C 	C 	0.60937 0.82170 0.97347 0.14300
H 	H 	0.47101 0.76075 0.96305 0.09000
H 	H 	0.79033 0.82398 0.95219 0.01900
Br	Br	0.69030 0.72926 0.92082 -0.18700
C 	C 	0.17381 0.31592 0.91713 -0.02900
C 	C 	0.13807 0.37427 0.92018 -0.07200
C 	C 	0.05281 0.34032 0.92898 0.13700
C 	C 	0.00878 0.25117 0.93578 -0.01000
C 	C 	0.05213 0.19788 0.93502 -0.07700
C 	C 	0.13339 0.22958 0.92490 0.12800
Br	Br	0.19692 0.16179 0.92308 -0.18400
H 	H 	0.23710 0.34013 0.90966 0.07100
H 	H 	0.94478 0.22640 0.94302 0.08000
Br	Br	0.99891 0.41611 0.93311 -0.19600
C 	C 	0.17359 0.85999 0.91995 -0.02500
C 	C 	0.24266 0.84769 0.92757 -0.06800
C 	C 	0.29241 0.90193 0.94206 0.12900
C 	C 	0.26690 0.96199 0.94962 -0.03300
C 	C 	0.19045 0.96628 0.94315 -0.06100
C 	C 	0.14861 0.92003 0.92734 0.13300
Br	Br	0.04674 0.92657 0.91709 -0.18000
H 	H 	0.13932 0.82297 0.90811 0.08200
H 	H 	0.30087 0.99852 0.96151 0.07800
Br	Br	0.39156 0.89109 0.95233 -0.20000
C 	C 	0.11672 0.81500 0.80163 -0.04200
C 	C 	0.21331 0.85204 0.80278 0.02800
C 	C 	0.26966 0.89638 0.78815 -0.03700
C 	C 	0.07750 0.82937 0.78643 0.05400
C 	C 	0.25567 0.84389 0.81942 0.02400
C 	C 	0.36858 0.93162 0.78909 0.11000
C 	C 	0.28007 0.77541 0.82119 -0.03500
C 	C 	0.32134 0.76894 0.83680 0.02600
C 	C 	0.32331 0.81974 0.85162 -0.07600
C 	C 	0.30179 0.89023 0.84979 0.03000
C 	C 	0.27073 0.90416 0.83349 -0.03500
C 	C 	0.25661 0.70798 0.80747 0.10700
C 	C 	0.31107 0.94776 0.86467 0.09800
C 	C 	0.36555 0.71368 0.83738 0.09100
C 	C 	0.25275 0.97922 0.83125 0.11100
C 	C 	0.05799 0.76276 0.81616 0.11800
N 	N 	0.40140 0.67003 0.83776 -0.10000
N 	N 	0.23715 0.65410 0.79650 -0.09800
N 	N 	0.31841 0.99353 0.87658 -0.08800
N 	N 	0.23835 0.03906 0.82943 -0.09800
N 	N 	0.44749 0.95968 0.78984 -0.09800
N 	N 	0.01124 0.72111 0.82776 -0.09200
C 	C 	0.15894 0.24203 0.80307 -0.03000
C 	C 	0.20609 0.33815 0.80231 0.02500
C 	C 	0.23112 0.38256 0.78591 -0.03300
C 	C 	0.13167 0.19057 0.78747 0.02400
C 	C 	0.22404 0.39213 0.81877 0.02600
C 	C 	0.29093 0.48059 0.78508 0.11300
C 	C 	0.08411 0.09175 0.78829 0.08700
C 	C 	0.30263 0.41325 0.82894 -0.03400
C 	C 	0.31074 0.44776 0.84608 0.02900
C 	C 	0.24373 0.46873 0.85258 -0.07100
C 	C 	0.16531 0.44829 0.84222 0.02800
C 	C 	0.15672 0.41198 0.82521 -0.03400
C 	C 	0.37498 0.39881 0.82176 0.11200
C 	C 	0.09105 0.45968 0.84940 0.09700
C 	C 	0.38561 0.45760 0.85722 0.09600
C 	C 	0.07788 0.39386 0.81438 0.11300
C 	C 	0.13682 0.19624 0.81994 0.11100
N 	N 	0.44515 0.46455 0.86607 -0.09700
N 	N 	0.43267 0.38730 0.81602 -0.09700
N 	N 	0.03179 0.46876 0.85513 -0.09100
N 	N 	0.01503 0.37934 0.80571 -0.09100
N 	N 	0.33897 0.55881 0.78432 -0.09400
N 	N 	0.04579 0.01293 0.78910 -0.10200
N 	N 	0.11920 0.15982 0.83341 -0.09200
C 	C 	0.63243 0.87084 0.83913 -0.03500
C 	C 	0.67547 0.82798 0.83050 0.02500
C 	C 	0.68561 0.75984 0.83937 -0.03500
C 	C 	0.64435 0.72892 0.85603 0.02900
C 	C 	0.60070 0.77210 0.86439 -0.07100
C 	C 	0.60812 0.85180 0.85685 0.02800
C 	C 	0.71305 0.85708 0.81238 0.02400
C 	C 	0.73936 0.72295 0.83151 0.10900
C 	C 	0.60626 0.92101 0.86779 0.09200
C 	C 	0.78823 0.94575 0.80943 -0.03300
C 	C 	0.81659 0.97635 0.79217 0.02300
C 	C 	0.66947 0.79860 0.79796 -0.03300
C 	C 	0.83789 0.00422 0.82413 0.10200
C 	C 	0.87344 0.07297 0.78864 0.08000
C 	C 	0.58926 0.70934 0.80077 0.11000
C 	C 	0.61104 0.93255 0.82970 0.10600
C 	C 	0.65360 0.65854 0.86513 0.10400
N 	N 	0.91819 0.15036 0.78590 -0.10200
N 	N 	0.87750 0.05088 0.83587 -0.10200
N 	N 	0.52555 0.63803 0.80311 -0.09800
N 	N 	0.78228 0.69357 0.82522 -0.09900
N 	N 	0.66127 0.60254 0.87240 -0.08600
N 	N 	0.60516 0.97667 0.87650 -0.10500
N 	N 	0.59388 0.98177 0.82217 -0.09900
