data_crystal

_cell_length_a 27.21037
_cell_length_b 24.04348
_cell_length_c 37.00231
_cell_angle_alpha 86.90665
_cell_angle_beta  88.46118
_cell_angle_gamma 122.80781

_symmetry_space_group_name_	'P 1'
_symmetry_space_group_name_H-M	'P 1'

loop_
_symmetry_equiv_pos_as_xyz
  x,y,z

loop_
_atom_site_label
_atom_site_type_symbol
_atom_site_fract_x
_atom_site_fract_y
_atom_site_fract_z
_atom_site_charge
Zn	Zn	0.98982 0.98245 0.30753 1.21600
Zn	Zn	0.11515 0.00586 0.27725 1.21900
C 	C 	0.05527 0.99621 0.43262 0.24400
Zn	Zn	0.07430 0.96908 0.35817 1.22000
Zn	Zn	0.96452 0.98534 0.38693 1.19800
H 	H 	0.10369 0.07594 0.32185 0.19200
C 	C 	0.04487 0.86036 0.31339 0.32700
O 	O 	0.89481 0.97821 0.36736 -0.43600
O 	O 	0.89702 0.93945 0.31197 -0.37000
O 	O 	0.08093 0.02848 0.31701 -0.76300
O 	O 	0.07222 0.01256 0.23673 -0.39900
O 	O 	0.99916 0.06904 0.30136 -0.41300
O 	O 	0.97829 0.94091 0.26087 -0.41500
O 	O 	0.01715 0.08564 0.36053 -0.37800
O 	O 	0.17251 0.98581 0.29447 -0.43200
H 	H 	0.95757 0.89074 0.35578 0.19400
O 	O 	0.16503 0.00416 0.35359 -0.33000
O 	O 	0.98656 0.93926 0.35449 -0.80700
O 	O 	0.02936 0.02496 0.41958 -0.38200
O 	O 	0.05590 0.88186 0.34599 -0.41400
O 	O 	0.08477 0.98125 0.41077 -0.38700
O 	O 	0.04910 0.89911 0.28523 -0.38300
C 	C 	0.86999 0.95232 0.33727 0.32900
C 	C 	0.01670 0.96857 0.23260 0.32700
C 	C 	0.00789 0.10432 0.32891 0.35400
C 	C 	0.18599 0.98488 0.32823 0.28500
Zn	Zn	0.98592 0.47726 0.31309 1.22500
Zn	Zn	0.10456 0.50178 0.27073 1.20500
C 	C 	0.07934 0.51894 0.42927 0.31400
Zn	Zn	0.08560 0.48192 0.35508 1.22900
Zn	Zn	0.97822 0.49778 0.39212 1.20300
H 	H 	0.10118 0.57918 0.31438 0.19400
C 	C 	0.05043 0.36473 0.31597 0.32900
O 	O 	0.90165 0.48089 0.37831 -0.41300
O 	O 	0.89448 0.42871 0.32646 -0.35900
O 	O 	0.07930 0.53056 0.31273 -0.78100
O 	O 	0.04800 0.49268 0.23400 -0.42600
O 	O 	0.98836 0.55982 0.30360 -0.43300
O 	O 	0.96521 0.42399 0.27080 -0.39900
O 	O 	0.02107 0.59243 0.35919 -0.38700
O 	O 	0.17081 0.49262 0.28292 -0.42200
H 	H 	0.96948 0.39887 0.36526 0.19200
O 	O 	0.17553 0.51903 0.34170 -0.37000
O 	O 	0.99646 0.44753 0.36029 -0.80200
O 	O 	0.05081 0.54594 0.41833 -0.42100
O 	O 	0.06615 0.39256 0.34682 -0.41100
O 	O 	0.10847 0.50620 0.40559 -0.38000
O 	O 	0.04568 0.39600 0.28725 -0.38300
C 	C 	0.87208 0.44879 0.35065 0.33700
C 	C 	0.99079 0.45017 0.23822 0.32800
C 	C 	0.00355 0.60233 0.32820 0.34700
C 	C 	0.19133 0.49652 0.31514 0.33200
Zn	Zn	0.44008 0.90291 0.32345 1.23100
Zn	Zn	0.55703 0.91142 0.28427 1.20600
C 	C 	0.52432 0.93617 0.44272 0.36500
Zn	Zn	0.53867 0.90690 0.36667 1.22700
Zn	Zn	0.41672 0.88691 0.40500 1.20700
H 	H 	0.55600 0.99701 0.32079 0.18300
C 	C 	0.51162 0.78568 0.33653 0.32700
O 	O 	0.35251 0.89677 0.38960 -0.43200
O 	O 	0.34851 0.85857 0.33410 -0.37400
O 	O 	0.53161 0.94792 0.32169 -0.78800
O 	O 	0.50297 0.89317 0.24440 -0.42300
O 	O 	0.45188 0.99010 0.32934 -0.44300
O 	O 	0.41873 0.86452 0.27674 -0.41300
O 	O 	0.47800 0.99276 0.38804 -0.43700
O 	O 	0.62448 0.90989 0.30126 -0.42300
H 	H 	0.42304 0.80879 0.36535 0.19400
O 	O 	0.63128 0.95358 0.35584 -0.37000
O 	O 	0.44609 0.85759 0.36639 -0.79100
O 	O 	0.46806 0.89098 0.44297 -0.44500
O 	O 	0.53083 0.82102 0.36483 -0.40200
O 	O 	0.55952 0.95183 0.41336 -0.40900
O 	O 	0.49987 0.80876 0.30707 -0.39000
C 	C 	0.32953 0.88220 0.35802 0.33600
C 	C 	0.45281 0.88936 0.24673 0.33800
C 	C 	0.47258 0.02221 0.35857 0.40000
C 	C 	0.65409 0.93786 0.32948 0.32600
Zn	Zn	0.45302 0.41460 0.30306 1.22700
Zn	Zn	0.56604 0.39940 0.27478 1.20600
C 	C 	0.52345 0.44562 0.42612 0.34700
Zn	Zn	0.54265 0.41120 0.35352 1.22500
Zn	Zn	0.41878 0.38988 0.38574 1.20700
H 	H 	0.57028 0.49633 0.30229 0.19500
C 	C 	0.51982 0.28459 0.33577 0.33100
O 	O 	0.35581 0.39973 0.36855 -0.43200
O 	O 	0.36197 0.37937 0.30945 -0.36600
O 	O 	0.54230 0.44757 0.30517 -0.78700
O 	O 	0.50617 0.36564 0.23828 -0.41900
O 	O 	0.47137 0.50411 0.31002 -0.41500
O 	O 	0.43897 0.39156 0.25215 -0.38000
O 	O 	0.47998 0.49631 0.37123 -0.37700
O 	O 	0.63427 0.40520 0.29647 -0.41100
H 	H 	0.42796 0.31465 0.34466 0.19000
O 	O 	0.63506 0.45592 0.34755 -0.37300
O 	O 	0.45073 0.36308 0.34704 -0.78700
O 	O 	0.46839 0.39662 0.42590 -0.44700
O 	O 	0.53447 0.32511 0.36158 -0.42700
O 	O 	0.55951 0.46305 0.39713 -0.39300
O 	O 	0.51010 0.30094 0.30346 -0.38600
C 	C 	0.34105 0.39874 0.33492 0.33100
C 	C 	0.47942 0.39590 0.22954 0.31700
C 	C 	0.47878 0.52882 0.34175 0.33300
C 	C 	0.66084 0.43782 0.32463 0.33700
Zn	Zn	0.06600 0.12282 0.95773 1.22900
Zn	Zn	0.01358 0.97054 0.93088 1.20300
C 	C 	0.01108 0.02155 0.08549 0.39100
Zn	Zn	0.00679 0.99327 0.01040 1.21500
Zn	Zn	0.02978 0.13569 0.03668 1.20900
H 	H 	0.09708 0.03682 0.97099 0.21400
C 	C 	0.89459 0.90462 0.98346 0.35100
O 	O 	0.06375 0.22419 0.01194 -0.44500
O 	O 	0.06032 0.20777 0.95201 -0.37800
O 	O 	0.05943 0.03288 0.96734 -0.77900
O 	O 	0.99051 0.02029 0.89838 -0.40400
O 	O 	0.14623 0.17675 0.97446 -0.40300
O 	O 	0.06672 0.12667 0.90467 -0.42800
O 	O 	0.11721 0.15311 0.03469 -0.37700
O 	O 	0.00839 0.88988 0.95056 -0.40400
H 	H 	0.96366 0.06613 0.98818 0.19200
O 	O 	0.00944 0.90573 0.01135 -0.38400
O 	O 	0.00164 0.07627 0.99672 -0.76100
O 	O 	0.00839 0.07474 0.08173 -0.40600
O 	O 	0.92221 0.93525 0.01146 -0.45400
O 	O 	0.03540 0.00750 0.05930 -0.41400
O 	O 	0.92101 0.92343 0.95069 -0.36700
C 	C 	0.04718 0.23013 0.97978 0.35800
C 	C 	0.02493 0.08261 0.88568 0.35100
C 	C 	0.15661 0.19168 0.00825 0.33200
C 	C 	0.99164 0.86578 0.98464 0.30800
Zn	Zn	0.85840 0.46566 0.98415 1.22900
Zn	Zn	0.81811 0.31393 0.95537 1.20300
C 	C 	0.86642 0.39391 0.10799 0.34700
Zn	Zn	0.82633 0.34085 0.03616 1.22400
Zn	Zn	0.83251 0.47251 0.06600 1.21000
H 	H 	0.90766 0.39526 0.98742 0.18800
C 	C 	0.70965 0.25315 0.01271 0.32000
O 	O 	0.83939 0.55435 0.04885 -0.41800
O 	O 	0.84786 0.54748 0.98796 -0.35600
O 	O 	0.86663 0.38334 0.98827 -0.78200
O 	O 	0.80537 0.36426 0.91612 -0.41500
O 	O 	0.94121 0.52487 0.99310 -0.40600
O 	O 	0.84330 0.46977 0.93233 -0.37700
O 	O 	0.92872 0.51949 0.05509 -0.37500
O 	O 	0.80943 0.23406 0.97959 -0.41300
H 	H 	0.76357 0.39577 0.02190 0.20400
O 	O 	0.84598 0.26672 0.03440 -0.35900
O 	O 	0.80486 0.41299 0.02670 -0.79500
O 	O 	0.83139 0.41554 0.10699 -0.45200
O 	O 	0.74290 0.26846 0.04036 -0.41700
O 	O 	0.87078 0.36316 0.08090 -0.40100
O 	O 	0.73227 0.28430 0.98025 -0.36800
C 	C 	0.86005 0.58319 0.01613 0.33100
C 	C 	0.84160 0.42891 0.90924 0.31300
C 	C 	0.96068 0.54979 0.02421 0.31300
C 	C 	0.84615 0.24103 0.00400 0.30800
Zn	Zn	0.35384 0.97843 0.98589 1.21800
Zn	Zn	0.31721 0.82480 0.96091 1.20300
C 	C 	0.35440 0.90452 0.11413 0.35200
Zn	Zn	0.32026 0.85695 0.04125 1.22500
Zn	Zn	0.34324 0.99781 0.06606 1.19400
H 	H 	0.40330 0.90864 0.99405 0.17900
C 	C 	0.20570 0.76317 0.01651 0.32100
O 	O 	0.37364 0.08717 0.04393 -0.44000
O 	O 	0.34153 0.05906 0.98722 -0.34300
O 	O 	0.36225 0.89636 0.99338 -0.78700
O 	O 	0.30416 0.87096 0.91936 -0.42600
O 	O 	0.43784 0.04072 0.99198 -0.40800
O 	O 	0.33390 0.97492 0.93476 -0.40700
O 	O 	0.43079 0.01631 0.05341 -0.36600
O 	O 	0.31161 0.74744 0.98634 -0.40900
H 	H 	0.26167 0.91758 0.02754 0.19200
O 	O 	0.33595 0.77935 0.04323 -0.34700
O 	O 	0.30295 0.93192 0.03021 -0.80000
O 	O 	0.33239 0.94127 0.11073 -0.45300
O 	O 	0.23595 0.78734 0.04518 -0.39300
O 	O 	0.36426 0.88061 0.08571 -0.40800
O 	O 	0.22923 0.79203 0.98373 -0.38900
C 	C 	0.36202 0.10224 0.01204 0.33300
C 	C 	0.33708 0.93592 0.91240 0.32400
C 	C 	0.46276 0.04891 0.02296 0.31500
C 	C 	0.34374 0.75585 0.01396 0.32000
Zn	Zn	0.54068 0.63866 0.96633 1.22700
Zn	Zn	0.43910 0.48309 0.94563 1.21400
C 	C 	0.52889 0.54289 0.09130 0.34400
Zn	Zn	0.48300 0.51153 0.02082 1.22500
Zn	Zn	0.54439 0.66308 0.05070 1.20600
H 	H 	0.54274 0.52900 0.96411 0.20700
C 	C 	0.36100 0.45188 0.01505 0.32500
O 	O 	0.57630 0.75309 0.02830 -0.42700
O 	O 	0.56794 0.73984 0.96843 -0.37200
O 	O 	0.51231 0.53823 0.97018 -0.78600
O 	O 	0.43230 0.55129 0.91821 -0.40800
O 	O 	0.62309 0.66747 0.97000 -0.41400
O 	O 	0.52157 0.64889 0.91618 -0.41300
O 	O 	0.62373 0.66736 0.03193 -0.36800
O 	O 	0.40866 0.39214 0.96675 -0.43500
H 	H 	0.45556 0.60257 0.01332 0.19200
O 	O 	0.46712 0.41538 0.01506 -0.36400
O 	O 	0.49312 0.60530 0.01391 -0.78700
O 	O 	0.53303 0.59996 0.09295 -0.41900
O 	O 	0.40052 0.46647 0.03844 -0.43100
O 	O 	0.53423 0.52254 0.06000 -0.41100
O 	O 	0.37738 0.48503 0.98313 -0.37100
C 	C 	0.55589 0.75955 0.99771 0.33600
C 	C 	0.47756 0.60189 0.89955 0.32400
C 	C 	0.65111 0.69125 0.99943 0.33600
C 	C 	0.43365 0.37449 0.99095 0.32800
Zn	Zn	0.98895 0.13456 0.67703 1.22500
Zn	Zn	0.12139 0.18026 0.71202 1.20400
C 	C 	0.05553 0.08115 0.56680 0.34800
Zn	Zn	0.09197 0.13593 0.63637 1.22800
Zn	Zn	0.98212 0.12863 0.59389 1.20500
H 	H 	0.03982 0.06797 0.69355 0.20300
C 	C 	0.18804 0.26999 0.64182 0.33600
O 	O 	0.90269 0.11127 0.60806 -0.40700
O 	O 	0.92815 0.15947 0.66152 -0.36900
O 	O 	0.05464 0.11451 0.68502 -0.78500
O 	O 	0.08634 0.22625 0.73299 -0.42600
O 	O 	0.92639 0.03817 0.67710 -0.40500
O 	O 	0.99006 0.17515 0.72212 -0.39200
O 	O 	0.95112 0.03022 0.61905 -0.38600
O 	O 	0.18780 0.17021 0.69869 -0.42600
H 	H 	0.05841 0.22458 0.62887 0.20900
O 	O 	0.14572 0.10074 0.65287 -0.36500
O 	O 	0.03831 0.17564 0.63140 -0.77400
O 	O 	0.03292 0.11663 0.55907 -0.41500
O 	O 	0.16458 0.22143 0.62049 -0.40900
O 	O 	0.06381 0.06945 0.60044 -0.40200
O 	O 	0.15946 0.26537 0.67205 -0.39100
C 	C 	0.88789 0.12422 0.63922 0.32800
C 	C 	0.03112 0.19204 0.74498 0.34400
C 	C 	0.91444 0.00480 0.64797 0.35800
C 	C 	0.18626 0.12792 0.67657 0.33000
Zn	Zn	0.96198 0.52652 0.69985 1.22300
Zn	Zn	0.08242 0.53540 0.73403 1.21000
C 	C 	0.03648 0.51430 0.57707 0.35300
Zn	Zn	0.06454 0.53654 0.65283 1.22700
Zn	Zn	0.95091 0.53340 0.61804 1.20600
H 	H 	0.00049 0.44377 0.69974 0.20200
C 	C 	0.15113 0.66207 0.68070 0.31900
O 	O 	0.87821 0.52341 0.63741 -0.43000
O 	O 	0.90884 0.56639 0.69204 -0.36600
O 	O 	0.01954 0.49251 0.69911 -0.77600
O 	O 	0.04234 0.55031 0.77538 -0.38200
O 	O 	0.89205 0.43595 0.69721 -0.42300
O 	O 	0.97303 0.56037 0.74813 -0.41100
O 	O 	0.91442 0.43005 0.63803 -0.37500
O 	O 	0.15537 0.54390 0.71373 -0.41200
H 	H 	0.02933 0.62200 0.65460 0.19700
O 	O 	0.11951 0.49994 0.66020 -0.35900
O 	O 	0.00979 0.57326 0.65465 -0.78600
O 	O 	0.99366 0.52464 0.57605 -0.43500
O 	O 	0.13490 0.62779 0.65188 -0.41200
O 	O 	0.04632 0.49181 0.60734 -0.39600
O 	O 	0.11838 0.63749 0.71153 -0.37800
C 	C 	0.87453 0.55330 0.66504 0.33100
C 	C 	0.98837 0.53657 0.77533 0.30800
C 	C 	0.87896 0.40356 0.66773 0.32200
C 	C 	0.16321 0.52857 0.68134 0.32900
Zn	Zn	0.45240 0.04071 0.70257 1.23000
Zn	Zn	0.57148 0.04292 0.73551 1.21200
C 	C 	0.52051 0.02251 0.57902 0.36900
Zn	Zn	0.55148 0.04521 0.65445 1.23200
Zn	Zn	0.44209 0.05188 0.62091 1.21600
H 	H 	0.48671 0.95434 0.70184 0.16300
C 	C 	0.64602 0.16679 0.68082 0.31800
O 	O 	0.37042 0.04463 0.64114 -0.39300
O 	O 	0.40275 0.08533 0.69598 -0.37200
O 	O 	0.50748 0.00328 0.70120 -0.74600
O 	O 	0.53586 0.06465 0.77630 -0.38000
O 	O 	0.38059 0.95173 0.69866 -0.44200
O 	O 	0.46385 0.07233 0.75140 -0.40600
O 	O 	0.40322 0.94721 0.63924 -0.39900
O 	O 	0.64017 0.04264 0.71508 -0.40500
H 	H 	0.52283 0.13648 0.65816 0.20000
O 	O 	0.60377 0.00440 0.66057 -0.35300
O 	O 	0.50114 0.08762 0.65765 -0.78300
O 	O 	0.48451 0.04333 0.57829 -0.40100
O 	O 	0.62456 0.13393 0.65192 -0.40700
O 	O 	0.52823 0.99879 0.60968 -0.45700
O 	O 	0.61431 0.14580 0.71205 -0.37600
C 	C 	0.36902 0.07558 0.66902 0.33000
C 	C 	0.48128 0.04909 0.77765 0.30500
C 	C 	0.36846 0.91941 0.66916 0.32600
C 	C 	0.64759 0.03004 0.68183 0.32500
Zn	Zn	0.49892 0.61806 0.67212 1.22800
Zn	Zn	0.61902 0.63512 0.70895 1.20800
C 	C 	0.56301 0.58672 0.55346 0.34500
Zn	Zn	0.60337 0.62703 0.62779 1.22600
Zn	Zn	0.49556 0.63372 0.58940 1.20300
H 	H 	0.53970 0.53840 0.67688 0.20800
C 	C 	0.69196 0.75334 0.65256 0.32200
O 	O 	0.41776 0.61804 0.60541 -0.44200
O 	O 	0.44410 0.65380 0.66156 -0.37100
O 	O 	0.55776 0.58703 0.67441 -0.78800
O 	O 	0.58297 0.66327 0.74469 -0.41500
O 	O 	0.43232 0.52609 0.66603 -0.40100
O 	O 	0.50153 0.64984 0.72033 -0.38400
O 	O 	0.45921 0.52948 0.60643 -0.38900
O 	O 	0.68912 0.63738 0.69090 -0.42500
H 	H 	0.57130 0.71647 0.62982 0.19300
O 	O 	0.65478 0.58583 0.63864 -0.35300
O 	O 	0.55065 0.66785 0.62853 -0.78300
O 	O 	0.54615 0.62876 0.55125 -0.44200
O 	O 	0.67689 0.71643 0.62487 -0.42100
O 	O 	0.58340 0.57687 0.58347 -0.38900
O 	O 	0.65595 0.73327 0.68161 -0.38300
C 	C 	0.40384 0.62629 0.63818 0.32700
C 	C 	0.52696 0.64110 0.74779 0.32100
C 	C 	0.42201 0.49854 0.63497 0.33200
C 	C 	0.69028 0.60223 0.66526 0.32700
C 	C 	0.82257 0.33871 0.66785 -0.08400
C 	C 	0.78180 0.32779 0.64183 0.18700
C 	C 	0.72395 0.27267 0.64699 -0.03900
C 	C 	0.70586 0.22779 0.67785 -0.08000
C 	C 	0.74717 0.23763 0.70328 0.18400
C 	C 	0.80504 0.29251 0.69800 -0.04000
H 	H 	0.69294 0.26484 0.62692 0.09600
H 	H 	0.83610 0.30031 0.71802 0.09000
Cl	Cl	0.80180 0.38324 0.60300 -0.30400
Cl	Cl	0.72772 0.18169 0.74181 -0.30500
C 	C 	0.20653 0.72840 0.67827 -0.08300
C 	C 	0.24972 0.74397 0.70326 0.18300
C 	C 	0.30357 0.80519 0.69890 -0.04000
C 	C 	0.31521 0.85163 0.66988 -0.09100
C 	C 	0.27234 0.83581 0.64465 0.18600
C 	C 	0.21862 0.77429 0.64881 -0.04100
H 	H 	0.33621 0.81700 0.71844 0.08200
H 	H 	0.18602 0.76245 0.62925 0.08300
Cl	Cl	0.23790 0.68696 0.73972 -0.30900
Cl	Cl	0.28405 0.89349 0.60858 -0.31700
C 	C 	0.82730 0.56551 0.66744 -0.08900
C 	C 	0.84018 0.63041 0.66908 0.18600
C 	C 	0.79525 0.64210 0.66722 -0.04000
C 	C 	0.73730 0.58951 0.66374 -0.08300
C 	C 	0.72435 0.52452 0.66227 0.18200
C 	C 	0.76935 0.51288 0.66403 -0.03500
H 	H 	0.80539 0.69220 0.66848 0.09700
H 	H 	0.75932 0.46285 0.66259 0.09500
Cl	Cl	0.91273 0.69798 0.67212 -0.30500
Cl	Cl	0.65177 0.45686 0.65945 -0.28300
C 	C 	0.22234 0.54653 0.66840 -0.07500
C 	C 	0.24706 0.57892 0.63352 0.19100
C 	C 	0.30643 0.60552 0.62429 -0.04000
C 	C 	0.34185 0.60035 0.64932 -0.09100
C 	C 	0.31653 0.56606 0.68381 0.18900
C 	C 	0.25723 0.53933 0.69292 -0.03600
H 	H 	0.32511 0.63065 0.59760 0.08800
H 	H 	0.23844 0.51385 0.71954 0.09600
Cl	Cl	0.20499 0.58787 0.60113 -0.30300
Cl	Cl	0.35769 0.55486 0.71594 -0.30300
C 	C 	0.74970 0.81685 0.65123 -0.08600
C 	C 	0.78479 0.83462 0.68132 0.18100
C 	C 	0.83894 0.89533 0.67958 -0.02800
C 	C 	0.85945 0.93851 0.64793 -0.12300
C 	C 	0.82502 0.91985 0.61746 0.19300
C 	C 	0.77060 0.85940 0.61937 -0.04900
H 	H 	0.86526 0.90881 0.70291 0.08500
H 	H 	0.74417 0.84591 0.59608 0.08500
Cl	Cl	0.76304 0.78043 0.72092 -0.31400
Cl	Cl	0.84825 0.97194 0.57692 -0.35000
C 	C 	0.24883 0.32642 0.63398 -0.08900
C 	C 	0.26098 0.38911 0.62128 0.18900
C 	C 	0.31871 0.44433 0.61892 -0.04400
C 	C 	0.36431 0.43822 0.63069 -0.08000
C 	C 	0.35254 0.37515 0.64207 0.18900
C 	C 	0.29503 0.31945 0.64326 -0.03800
H 	H 	0.32780 0.49233 0.60893 0.08300
H 	H 	0.28598 0.27121 0.65280 0.08300
Cl	Cl	0.20411 0.39953 0.60916 -0.29200
Cl	Cl	0.40917 0.36537 0.65559 -0.27500
C 	C 	0.82533 0.09699 0.64963 -0.08000
C 	C 	0.80054 0.06629 0.68479 0.19000
C 	C 	0.74115 0.03950 0.69369 -0.03600
C 	C 	0.70603 0.04532 0.66871 -0.07500
C 	C 	0.73049 0.07506 0.63329 0.18400
C 	C 	0.78956 0.09971 0.62391 -0.03400
H 	H 	0.72273 0.01612 0.72073 0.10600
H 	H 	0.80796 0.12248 0.59678 0.09700
Cl	Cl	0.84293 0.06141 0.71843 -0.28300
Cl	Cl	0.68882 0.08401 0.60057 -0.28700
C 	C 	0.23433 0.11673 0.67548 -0.08300
C 	C 	0.24287 0.08501 0.70549 0.18800
C 	C 	0.28799 0.07329 0.70352 -0.03300
C 	C 	0.32492 0.09317 0.67180 -0.07900
C 	C 	0.31760 0.12709 0.64228 0.19200
C 	C 	0.27193 0.13779 0.64407 -0.03600
H 	H 	0.29349 0.04742 0.72637 0.09800
H 	H 	0.26613 0.16328 0.62116 0.09600
Cl	Cl	0.19607 0.05749 0.74524 -0.28400
Cl	Cl	0.36701 0.15940 0.60359 -0.29300
C 	C 	0.49917 0.62774 0.78426 -0.08100
C 	C 	0.50820 0.68038 0.80419 0.19300
C 	C 	0.49722 0.67042 0.84186 -0.03300
C 	C 	0.47761 0.60829 0.85983 -0.09600
C 	C 	0.46392 0.55427 0.83939 0.19200
C 	C 	0.47381 0.56420 0.80171 -0.04800
H 	H 	0.50600 0.71159 0.85729 0.09400
H 	H 	0.46579 0.52333 0.78623 0.07600
Cl	Cl	0.53580 0.75975 0.78243 -0.28000
Cl	Cl	0.43976 0.47537 0.86066 -0.38600
C 	C 	0.39818 0.75731 0.00858 -0.11600
C 	C 	0.39986 0.70958 0.98912 0.18300
C 	C 	0.45275 0.71378 0.98348 -0.05100
C 	C 	0.50341 0.76260 0.99913 -0.11800
C 	C 	0.50205 0.81098 0.01797 0.17700
C 	C 	0.44974 0.80844 0.02242 -0.05000
H 	H 	0.45395 0.67749 0.96801 0.05000
H 	H 	0.44924 0.84659 0.03644 0.07700
Cl	Cl	0.33554 0.64162 0.97384 -0.26200
Cl	Cl	0.56612 0.87677 0.03480 -0.28500
C 	C 	0.38175 0.17142 0.00230 -0.10000
C 	C 	0.34257 0.18808 0.98990 0.20700
C 	C 	0.36006 0.25460 0.98618 -0.04300
C 	C 	0.41677 0.30500 0.99434 -0.07500
C 	C 	0.45684 0.28830 0.00490 0.17400
C 	C 	0.43852 0.22179 0.00999 -0.03000
H 	H 	0.32917 0.26704 0.97753 0.09400
H 	H 	0.46804 0.20909 0.02087 0.08200
Cl	Cl	0.27041 0.12608 0.98086 -0.28200
Cl	Cl	0.53094 0.34988 0.01006 -0.27900
C 	C 	0.37231 0.96438 0.87723 -0.15300
C 	C 	0.37544 0.01780 0.85685 0.24000
C 	C 	0.41241 0.04633 0.82502 -0.06900
C 	C 	0.44498 0.02080 0.81244 -0.03400
C 	C 	0.43985 0.96567 0.83200 0.12700
C 	C 	0.40442 0.93855 0.86440 -0.01500
H 	H 	0.41506 0.08776 0.80980 0.10500
H 	H 	0.40179 0.89710 0.87961 0.04600
Cl	Cl	0.33025 0.04637 0.86906 -0.25900
Cl	Cl	0.47475 0.92740 0.81527 -0.35400
C 	C 	0.52522 0.10290 0.02399 -0.08000
C 	C 	0.56512 0.09302 0.04217 0.18000
C 	C 	0.62513 0.14330 0.03932 -0.03700
C 	C 	0.64575 0.20361 0.01857 -0.08500
C 	C 	0.60532 0.21441 0.00196 0.18000
C 	C 	0.54602 0.16345 0.00362 -0.05200
H 	H 	0.65587 0.13467 0.05236 0.09900
H 	H 	0.51609 0.17057 0.98847 0.09400
Cl	Cl	0.54146 0.01672 0.06657 -0.26000
Cl	Cl	0.62760 0.29250 0.98040 -0.27600
C 	C 	0.02206 0.60758 0.02471 -0.06700
C 	C 	0.04506 0.66171 0.99807 0.18700
C 	C 	0.10394 0.71383 0.99732 -0.03300
C 	C 	0.14186 0.71147 0.02137 -0.08800
C 	C 	0.11909 0.65728 0.04800 0.18900
C 	C 	0.05914 0.60679 0.05012 -0.03900
H 	H 	0.12064 0.75551 0.97716 0.08800
H 	H 	0.04209 0.56551 0.07056 0.11100
Cl	Cl	0.00142 0.66443 0.96456 -0.28600
Cl	Cl	0.16539 0.64896 0.07706 -0.25500
C 	C 	0.95021 0.50875 0.80939 -0.08600
C 	C 	0.94057 0.45087 0.82840 0.17800
C 	C 	0.90464 0.42515 0.86063 -0.04100
C 	C 	0.87681 0.45557 0.87399 -0.09500
C 	C 	0.88447 0.51200 0.85416 0.19000
C 	C 	0.92157 0.53863 0.82231 -0.04100
H 	H 	0.89855 0.38144 0.87542 0.05300
H 	H 	0.92775 0.58233 0.80748 0.10000
Cl	Cl	0.97085 0.40797 0.81127 -0.33200
Cl	Cl	0.84509 0.54730 0.86729 -0.26200
C 	C 	0.83205 0.85116 0.98837 -0.08000
C 	C 	0.78972 0.85642 0.97030 0.19500
C 	C 	0.73090 0.80365 0.97397 -0.04200
C 	C 	0.71359 0.74551 0.99579 -0.07300
C 	C 	0.75595 0.74029 0.01398 0.17900
C 	C 	0.81473 0.79343 0.01060 -0.03800
H 	H 	0.69842 0.80819 0.96020 0.09600
H 	H 	0.84719 0.78922 0.02461 0.08200
Cl	Cl	0.80927 0.92995 0.94426 -0.28600
Cl	Cl	0.73677 0.66634 0.03936 -0.26900
C 	C 	0.20502 0.25901 0.01521 -0.10300
C 	C 	0.24989 0.26891 0.03737 0.18900
C 	C 	0.29904 0.33321 0.03976 -0.04900
C 	C 	0.30340 0.38808 0.02053 -0.08200
C 	C 	0.25535 0.37847 0.00176 0.16300
C 	C 	0.20767 0.31415 0.99802 -0.01400
H 	H 	0.33505 0.34003 0.05509 0.09000
H 	H 	0.17291 0.30705 0.98137 0.09500
Cl	Cl	0.24664 0.20114 0.06080 -0.28200
Cl	Cl	0.25311 0.44653 0.98403 -0.23100
C 	C 	0.95641 0.79343 0.99315 -0.07300
C 	C 	0.91151 0.75113 0.97086 0.18000
C 	C 	0.87829 0.68278 0.97975 -0.01600
C 	C 	0.88937 0.65552 0.01037 -0.08600
C 	C 	0.93257 0.69793 0.03345 0.19400
C 	C 	0.96583 0.76633 0.02460 -0.05300
H 	H 	0.84419 0.65062 0.96248 0.10600
H 	H 	0.99977 0.79843 0.04197 0.08900
Cl	Cl	0.89492 0.78258 0.93221 -0.29300
Cl	Cl	0.94755 0.66628 0.07275 -0.31100
C 	C 	0.89861 0.24188 0.99276 -0.09600
C 	C 	0.89434 0.18893 0.97539 0.16900
C 	C 	0.94493 0.18934 0.96720 -0.03500
C 	C 	0.99946 0.24092 0.97746 -0.14900
C 	C 	0.00424 0.29610 0.99219 0.22300
C 	C 	0.95397 0.29646 0.99975 -0.06600
H 	H 	0.94132 0.14728 0.95512 0.06000
H 	H 	0.95776 0.33864 0.01179 0.07200
Cl	Cl	0.82570 0.11944 0.96629 -0.25700
Cl	Cl	0.07305 0.36478 0.00174 -0.27200
C 	C 	0.01535 0.15675 0.78088 -0.11200
C 	C 	0.01468 0.18822 0.81161 0.19700
C 	C 	0.01458 0.16153 0.84610 -0.03400
C 	C 	0.01575 0.10391 0.85007 -0.09500
C 	C 	0.01244 0.07006 0.81936 0.21800
C 	C 	0.01115 0.09608 0.78504 -0.05700
H 	H 	0.01535 0.18665 0.86976 0.09200
H 	H 	0.01076 0.07130 0.76133 0.05100
Cl	Cl	0.01571 0.26216 0.80714 -0.26800
Cl	Cl	0.01516 0.99836 0.82298 -0.35100
C 	C 	0.56059 0.55147 0.52140 -0.08900
C 	C 	0.53397 0.48200 0.52428 0.18400
C 	C 	0.52665 0.44870 0.49301 -0.03700
C 	C 	0.54384 0.48345 0.45857 -0.09100
C 	C 	0.57241 0.55329 0.45580 0.18900
C 	C 	0.58097 0.58677 0.48717 -0.04000
H 	H 	0.50501 0.39516 0.49538 0.09300
H 	H 	0.60209 0.64024 0.48480 0.09100
Cl	Cl	0.50532 0.43514 0.56649 -0.25800
Cl	Cl	0.59494 0.59945 0.41326 -0.28100
C 	C 	0.49213 0.43102 0.19330 -0.09700
C 	C 	0.44835 0.41047 0.16836 0.19600
C 	C 	0.46157 0.44564 0.13430 -0.04300
C 	C 	0.51803 0.50154 0.12499 -0.08900
C 	C 	0.56213 0.52088 0.14951 0.18700
C 	C 	0.54909 0.48547 0.18342 -0.04400
H 	H 	0.42761 0.43027 0.11534 0.08000
H 	H 	0.58314 0.50082 0.20232 0.04800
Cl	Cl	0.37724 0.34008 0.17904 -0.27000
Cl	Cl	0.63403 0.58912 0.13795 -0.27200
C 	C 	0.54785 0.96883 0.47609 -0.14800
C 	C 	0.54221 0.93022 0.50779 0.21700
C 	C 	0.53756 0.95032 0.54181 -0.09300
C 	C 	0.53986 0.00973 0.54445 -0.03400
C 	C 	0.55541 0.05340 0.51306 0.16500
C 	C 	0.55908 0.03259 0.47899 0.02300
H 	H 	0.52904 0.91804 0.56597 0.09900
H 	H 	0.56628 0.06401 0.45468 0.08500
Cl	Cl	0.53681 0.85422 0.50505 -0.31800
Cl	Cl	0.57135 0.13440 0.51601 -0.27400
C 	C 	0.50349 0.72008 0.33790 -0.08200
C 	C 	0.53758 0.70784 0.31439 0.19400
C 	C 	0.53181 0.64641 0.31751 -0.03200
C 	C 	0.49150 0.59624 0.34345 -0.07600
C 	C 	0.45804 0.60882 0.36739 0.18900
C 	C 	0.46464 0.67081 0.36470 -0.03500
H 	H 	0.55784 0.63710 0.29915 0.08700
H 	H 	0.43894 0.68039 0.38318 0.07800
Cl	Cl	0.58813 0.76909 0.28106 -0.30100
Cl	Cl	0.40579 0.54662 0.39977 -0.30700
C 	C 	0.51090 0.21900 0.34367 -0.08700
C 	C 	0.54595 0.20148 0.32521 0.18500
C 	C 	0.53591 0.13831 0.33236 -0.02300
C 	C 	0.49102 0.09205 0.35774 -0.10300
C 	C 	0.45751 0.11044 0.37727 0.19500
C 	C 	0.46786 0.17391 0.37033 -0.03900
H 	H 	0.56186 0.12440 0.31731 0.08100
H 	H 	0.44144 0.18755 0.38505 0.07700
Cl	Cl	0.60294 0.25826 0.29324 -0.29500
Cl	Cl	0.40042 0.05336 0.40913 -0.28200
C 	C 	0.42722 0.89323 0.21311 -0.08600
C 	C 	0.44154 0.95502 0.19709 0.17400
C 	C 	0.41675 0.95812 0.16505 -0.06900
C 	C 	0.37762 0.89984 0.14876 -0.07900
C 	C 	0.36268 0.83785 0.16509 0.18300
C 	C 	0.38755 0.83485 0.19716 -0.03000
H 	H 	0.42853 0.00595 0.15252 0.11600
H 	H 	0.37597 0.78711 0.20970 0.08700
Cl	Cl	0.49018 0.02896 0.21710 -0.26800
Cl	Cl	0.31142 0.76347 0.14636 -0.28000
C 	C 	0.06335 0.51245 0.54257 -0.08900
C 	C 	0.03948 0.45264 0.52578 0.20300
C 	C 	0.05234 0.45426 0.48868 -0.05500
C 	C 	0.08789 0.51525 0.46813 -0.08300
C 	C 	0.11828 0.57395 0.48605 0.19100
C 	C 	0.10569 0.57239 0.52316 -0.03600
H 	H 	0.03053 0.40854 0.47525 0.07800
H 	H 	0.12615 0.61833 0.53637 0.08400
Cl	Cl	0.99000 0.37582 0.55025 -0.30400
Cl	Cl	0.16929 0.65036 0.46176 -0.29400
C 	C 	0.81737 0.44437 0.34384 -0.07000
C 	C 	0.76849 0.40900 0.36898 0.19000
C 	C 	0.71839 0.41017 0.36354 -0.02900
C 	C 	0.71654 0.44607 0.33305 -0.08100
C 	C 	0.76583 0.48237 0.30830 0.19700
C 	C 	0.81592 0.48137 0.31379 -0.02600
H 	H 	0.68019 0.38139 0.38239 0.09200
H 	H 	0.85436 0.51083 0.29520 0.10500
Cl	Cl	0.76869 0.36118 0.40669 -0.28700
Cl	Cl	0.76588 0.53068 0.27076 -0.29700
C 	C 	0.23164 0.47420 0.32134 -0.08100
C 	C 	0.22077 0.42849 0.35091 0.19000
C 	C 	0.25261 0.39847 0.35261 -0.03500
C 	C 	0.29838 0.41670 0.32660 -0.08200
C 	C 	0.30959 0.46272 0.29711 0.18800
C 	C 	0.27597 0.49067 0.29453 -0.03300
H 	H 	0.24368 0.36318 0.37535 0.08800
H 	H 	0.28427 0.52523 0.27154 0.08900
Cl	Cl	0.16896 0.40965 0.38683 -0.29700
Cl	Cl	0.36624 0.48714 0.26350 -0.29000
C 	C 	0.89534 0.39707 0.14178 -0.09400
C 	C 	0.95370 0.41350 0.14092 0.19200
C 	C 	0.98314 0.42718 0.17296 -0.05400
C 	C 	0.95615 0.42780 0.20575 -0.08000
C 	C 	0.89747 0.41048 0.20655 0.18400
C 	C 	0.86698 0.39261 0.17505 -0.03700
H 	H 	0.02777 0.43926 0.17210 0.10300
H 	H 	0.82186 0.37894 0.17606 0.09200
Cl	Cl	0.99182 0.42065 0.09984 -0.29400
Cl	Cl	0.86300 0.41711 0.24551 -0.29300
C 	C 	0.06620 0.00023 0.47110 0.00500
C 	C 	0.01886 0.96076 0.49681 0.13900
C 	C 	0.01775 0.98486 0.53014 -0.05400
C 	C 	0.06438 0.04740 0.53814 -0.06200
C 	C 	0.11590 0.08114 0.51516 0.19300
C 	C 	0.11689 0.05692 0.48180 -0.05700
H 	H 	0.97906 0.95709 0.54869 0.08500
H 	H 	0.15478 0.08583 0.46275 0.10000
Cl	Cl	0.95791 0.88444 0.48588 -0.33300
Cl	Cl	0.17802 0.15580 0.52688 -0.29400
C 	C 	0.00820 0.66524 0.31934 -0.08600
C 	C 	0.96841 0.67794 0.33582 0.18200
C 	C 	0.97698 0.74056 0.33006 -0.04500
C 	C 	0.02602 0.79152 0.30892 -0.07100
C 	C 	0.06354 0.77748 0.29041 0.18500
C 	C 	0.05423 0.71427 0.29553 -0.03200
H 	H 	0.94748 0.75088 0.34391 0.08000
H 	H 	0.08420 0.70417 0.28216 0.07600
Cl	Cl	0.90890 0.61679 0.36489 -0.30500
Cl	Cl	0.12457 0.83973 0.26265 -0.28800
C 	C 	0.01513 0.16920 0.32325 -0.07700
C 	C 	0.97925 0.18362 0.34336 0.18400
C 	C 	0.98861 0.24676 0.33891 -0.04600
C 	C 	0.03361 0.29591 0.31464 -0.07200
C 	C 	0.06774 0.28059 0.29331 0.18500
C 	C 	0.05815 0.21725 0.29758 -0.03300
H 	H 	0.96190 0.25824 0.35512 0.08000
H 	H 	0.08522 0.20595 0.28164 0.08200
Cl	Cl	0.92202 0.12296 0.37398 -0.28900
Cl	Cl	0.12452 0.34113 0.26240 -0.29900
C 	C 	0.71029 0.94404 0.33333 -0.07100
C 	C 	0.71307 0.89616 0.35520 0.18700
C 	C 	0.76419 0.89558 0.35389 -0.03600
C 	C 	0.81298 0.94258 0.33104 -0.08300
C 	C 	0.80973 0.98946 0.30854 0.17900
C 	C 	0.75859 0.99008 0.30985 -0.07700
H 	H 	0.76667 0.85983 0.37156 0.08100
H 	H 	0.75607 0.02578 0.29216 0.11300
Cl	Cl	0.65253 0.83596 0.38404 -0.27800
Cl	Cl	0.86995 0.04877 0.27919 -0.25300
C 	C 	0.28816 0.90106 0.34797 -0.09500
C 	C 	0.29932 0.94248 0.31619 0.20700
C 	C 	0.26884 0.97371 0.31172 -0.09300
C 	C 	0.22418 0.96083 0.33731 -0.05700
C 	C 	0.21076 0.91647 0.36817 0.17400
C 	C 	0.24325 0.88769 0.37347 -0.02700
H 	H 	0.27860 0.00653 0.28758 0.13300
H 	H 	0.23401 0.85540 0.39777 0.09000
Cl	Cl	0.34986 0.95433 0.28102 -0.31300
Cl	Cl	0.15236 0.89445 0.39992 -0.29600
C 	C 	0.99730 0.95418 0.19574 -0.09200
C 	C 	0.03032 0.94387 0.17020 0.18100
C 	C 	0.03135 0.96098 0.13336 -0.01500
C 	C 	0.99756 0.98569 0.12174 -0.14800
C 	C 	0.95568 0.98272 0.14655 0.20000
C 	C 	0.95645 0.96809 0.18359 -0.04900
H 	H 	0.06062 0.95827 0.11415 0.08000
H 	H 	0.92802 0.97182 0.20300 0.09300
Cl	Cl	0.07288 0.91276 0.18435 -0.29900
Cl	Cl	0.90097 0.99482 0.13156 -0.31600
