data_crystal

_cell_length_a 18.78170
_cell_length_b 19.51172
_cell_length_c 88.99716
_cell_angle_alpha 90.00107
_cell_angle_beta  90.00121
_cell_angle_gamma 119.87126

_symmetry_space_group_name_	'P 1'
_symmetry_space_group_name_H-M	'P 1'

loop_
_symmetry_equiv_pos_as_xyz
  x,y,z

loop_
_atom_site_label
_atom_site_type_symbol
_atom_site_fract_x
_atom_site_fract_y
_atom_site_fract_z
_atom_site_charge
C 	C 	0.03977 0.83698 0.67430 0.28500
O 	O 	0.02351 0.66138 0.68455 -0.23700
O 	O 	0.99874 0.76299 0.71571 -0.27700
O 	O 	0.01426 0.80396 0.68761 -0.27500
C 	C 	0.03543 0.80854 0.72729 0.31700
C 	C 	0.08263 0.16781 0.48880 0.28700
O 	O 	0.07653 0.33778 0.48133 -0.28300
O 	O 	0.04568 0.22034 0.44876 -0.26200
O 	O 	0.06060 0.18207 0.47568 -0.28200
C 	C 	0.08062 0.21080 0.43684 0.30100
Cu	Cu	0.02964 0.78516 0.96501 0.94200
C 	C 	0.04818 0.90744 0.98496 0.30300
O 	O 	0.06872 0.74586 0.98240 -0.30900
O 	O 	0.09548 0.84039 0.94699 -0.30100
C 	C 	0.01870 0.68131 0.98984 0.28400
O 	O 	0.07324 0.88988 0.97249 -0.31500
C 	C 	0.05981 0.84253 0.93451 0.30400
Cu	Cu	0.02396 0.29529 0.19425 0.94200
C 	C 	0.04146 0.20478 0.17050 0.28500
O 	O 	0.05712 0.38444 0.17942 -0.29900
O 	O 	0.09509 0.29418 0.21066 -0.29900
O 	O 	0.07130 0.24438 0.18313 -0.27100
C 	C 	0.06338 0.25048 0.22265 0.30100
C 	C 	0.10346 0.63187 0.15359 0.03200
C 	C 	0.14537 0.58848 0.15234 -0.08000
C 	C 	0.10724 0.51023 0.15765 0.06300
H 	H 	0.13633 0.47487 0.15588 0.12900
C 	C 	0.08083 0.16225 0.16412 0.03800
H 	H 	0.96992 0.04965 0.16547 0.12200
F 	F 	0.17113 0.32373 0.15394 -0.40200
C 	C 	0.07389 0.56126 0.01625 0.06100
C 	C 	0.05032 0.63092 0.99581 0.01600
C 	C 	0.03940 0.60667 0.01109 -0.07200
H 	H 	0.05946 0.53571 0.02741 0.13500
C 	C 	0.07696 0.10426 0.99813 0.06200
C 	C 	0.08636 0.99099 0.98934 0.02300
C 	C 	0.03803 0.02598 0.99284 -0.08000
H 	H 	0.04062 0.13012 0.00188 0.09400
C 	C 	0.11359 0.02910 0.09348 0.78000
F 	F 	0.04785 0.03927 0.08976 -0.38700
F 	F 	0.11883 0.02939 0.10900 -0.40400
F 	F 	0.09807 0.95652 0.08807 -0.39500
C 	C 	0.08955 0.17424 0.33368 -0.07500
F 	F 	0.02004 0.89133 0.33773 -0.38200
C 	C 	0.03040 0.17062 0.42363 0.02100
F 	F 	0.07999 0.33586 0.42101 -0.44900
C 	C 	0.05273 0.96935 0.50062 -0.04800
C 	C 	0.08983 0.05001 0.49683 0.03400
C 	C 	0.04205 0.08569 0.49426 0.04800
C 	C 	0.10556 0.93247 0.50406 0.77300
F 	F 	0.09384 0.90714 0.51883 -0.43200
C 	C 	0.09792 0.45272 0.49528 0.01000
F 	F 	0.01913 0.73845 0.90560 -0.44500
C 	C 	0.08630 0.10039 0.84934 -0.08700
C 	C 	0.04700 0.09008 0.81867 -0.06800
C 	C 	0.02662 0.09745 0.80247 0.79000
C 	C 	0.10449 0.11912 0.86591 0.79100
F 	F 	0.02551 0.03741 0.79405 -0.38500
C 	C 	0.99041 0.89808 0.73777 0.05000
C 	C 	0.98753 0.82496 0.73826 0.01400
H 	H 	0.02167 0.93797 0.72851 0.11500
F 	F 	0.01995 0.05091 0.73860 -0.37700
C 	C 	0.05343 0.47293 0.65412 -0.04500
C 	C 	0.04356 0.55913 0.67304 0.05500
F 	F 	0.99643 0.54295 0.70454 -0.43500
C 	C 	0.01108 0.00572 0.66129 -0.06600
C 	C 	0.04809 0.96141 0.66571 0.05600
C 	C 	0.00090 0.87935 0.66765 0.04100
C 	C 	0.06350 0.09407 0.65862 0.77800
F 	F 	0.04408 0.13452 0.66910 -0.41100
F 	F 	0.04919 0.11261 0.64435 -0.39400
C 	C 	0.01143 0.05437 0.59453 0.78800
F 	F 	0.01761 0.12094 0.58778 -0.37500
F 	F 	0.08264 0.05214 0.59159 -0.38500
H 	H 	0.06188 0.07859 0.42412 0.10300
F 	F 	0.04083 0.12365 0.87279 -0.37900
F 	F 	0.01919 0.70241 0.75261 -0.42200
C 	C 	0.09000 0.04979 0.33175 0.05700
F 	F 	0.04185 0.98485 0.40399 -0.37700
F 	F 	0.08413 0.86864 0.49466 -0.42100
C 	C 	0.02811 0.54069 0.50692 0.07200
F 	F 	0.01056 0.39511 0.57654 -0.36700
C 	C 	0.02417 0.09945 0.41883 0.07500
C 	C 	0.02299 0.41471 0.50306 0.11600
H 	H 	0.00543 0.95763 0.57180 0.12600
F 	F 	0.00585 0.05989 0.60995 -0.38900
C 	C 	0.03487 0.07974 0.16283 0.05600
F 	F 	0.09071 0.29302 0.34107 -0.38100
F 	F 	0.03850 0.92564 0.14265 -0.41000
C 	C 	0.04360 0.09587 0.23171 0.77800
F 	F 	0.05526 0.03382 0.23591 -0.38600
F 	F 	0.05078 0.10284 0.21623 -0.40400
F 	F 	0.95280 0.97379 0.38619 -0.40000
C 	C 	0.96713 0.98098 0.40153 0.77800
C 	C 	0.97955 0.40836 0.65962 0.00300
C 	C 	0.97445 0.49218 0.67949 -0.09900
F 	F 	0.01400 0.70668 0.02074 -0.41000
F 	F 	0.98177 0.03707 0.76269 -0.36400
O 	O 	0.00799 0.85285 0.99522 -0.27800
F 	F 	0.00101 0.61243 0.03660 -0.37400
C 	C 	0.00449 0.05345 0.84463 0.08900
C 	C 	0.10511 0.57931 0.49984 0.04700
F 	F 	0.05886 0.45427 0.62791 -0.36700
Cu	Cu	0.06299 0.75451 0.69873 0.95200
F 	F 	0.10529 0.55893 0.07675 -0.38900
F 	F 	0.11268 0.05986 0.87277 -0.39800
Cu	Cu	0.11157 0.28284 0.46614 0.94900
C 	C 	0.10258 0.77619 0.90840 0.77500
C 	C 	0.02608 0.59705 0.16053 0.04600
C 	C 	0.00723 0.00784 0.33626 -0.06600
C 	C 	0.10126 0.61568 0.98655 0.06400
C 	C 	0.10982 0.89434 0.92223 0.01600
C 	C 	0.07462 0.64076 0.67892 0.27300
F 	F 	0.11674 0.74577 0.92138 -0.44500
F 	F 	0.08515 0.16921 0.79651 -0.37900
C 	C 	0.10582 0.17267 0.23916 -0.06900
C 	C 	0.00526 0.13189 0.33692 0.07800
O 	O 	0.12456 0.22564 0.49837 -0.30800
H 	H 	0.11770 0.99733 0.93257 0.10900
C 	C 	0.08204 0.54851 0.66040 0.04700
H 	H 	0.13360 0.13513 0.07144 0.10600
H 	H 	0.10924 0.63402 0.97488 0.09000
C 	C 	0.03298 0.47757 0.16563 0.01700
O 	O 	0.08486 0.81843 0.66560 -0.30400
C 	C 	0.12882 0.40352 0.48833 0.29000
H 	H 	0.13809 0.64327 0.49921 0.12600
C 	C 	0.13421 0.26403 0.33337 0.78200
F 	F 	0.14391 0.28991 0.31866 -0.38500
H 	H 	0.15595 0.08514 0.49572 0.09600
C 	C 	0.13928 0.53605 0.49346 -0.06400
C 	C 	0.10026 0.46253 0.64123 0.77600
C 	C 	0.13546 0.86445 0.91014 -0.07600
C 	C 	0.11817 0.24622 0.23390 0.01600
C 	C 	0.12663 0.54820 0.00703 0.03200
C 	C 	0.12950 0.12722 0.82320 0.06300
C 	C 	0.13086 0.13218 0.33023 0.02800
C 	C 	0.13879 0.97558 0.92337 0.06900
H 	H 	0.12252 0.01838 0.32916 0.09600
F 	F 	0.96520 0.07782 0.23585 -0.38800
H 	H 	0.99327 0.62958 0.16096 0.13000
C 	C 	0.96518 0.91906 0.33867 0.77200
F 	F 	0.92948 0.90002 0.35277 -0.41000
O 	O 	0.99171 0.21733 0.16186 -0.28900
H 	H 	0.18784 0.37252 0.23621 0.10000
F 	F 	0.10820 0.39649 0.64350 -0.37300
F 	F 	0.27149 0.40496 0.27270 -0.39000
F 	F 	0.31071 0.45641 0.24964 -0.38400
F 	F 	0.21055 0.29497 0.34009 -0.38800
C 	C 	0.99708 0.28162 0.41986 0.77900
O 	O 	0.98766 0.22816 0.22638 -0.33000
C 	C 	0.99168 0.52158 0.16717 -0.06400
F 	F 	0.91548 0.45992 0.18941 -0.44300
F 	F 	0.21823 0.62298 0.12931 -0.40600
C 	C 	0.21551 0.29214 0.16038 0.78500
C 	C 	0.29511 0.39272 0.25871 0.78700
F 	F 	0.95861 0.27976 0.43322 -0.40400
C 	C 	0.16561 0.20242 0.16058 -0.07200
F 	F 	0.18829 0.98553 0.50201 -0.39400
C 	C 	0.00352 0.40018 0.17318 0.28000
C 	C 	0.91021 0.48802 0.17544 0.78100
F 	F 	0.88762 0.54484 0.17768 -0.38500
F 	F 	0.23665 0.32005 0.17492 -0.38500
F 	F 	0.28685 0.31837 0.15210 -0.38100
C 	C 	0.17940 0.31663 0.24030 0.06800
F 	F 	0.95124 0.09368 0.80137 -0.42600
F 	F 	0.17547 0.19095 0.86803 -0.40400
H 	H 	0.11344 0.99081 0.66797 0.09500
Cu	Cu	0.79212 0.04137 0.63235 0.94100
Cu	Cu	0.79367 0.12311 0.60028 0.92400
Cu	Cu	0.84510 0.21682 0.62991 0.92900
Cu	Cu	0.87653 0.15700 0.65970 0.93100
C 	C 	0.88363 0.01044 0.65443 0.30000
O 	O 	0.70115 0.01001 0.64758 -0.32100
C 	C 	0.79116 0.26507 0.60301 0.30200
O 	O 	0.88838 0.15419 0.63863 -0.62500
O 	O 	0.76269 0.11139 0.62146 -0.62800
O 	O 	0.78843 0.97688 0.61495 -0.31400
O 	O 	0.86685 0.08240 0.60018 -0.31800
O 	O 	0.87132 0.05417 0.66424 -0.30300
O 	O 	0.92633 0.31664 0.63885 -0.26900
C 	C 	0.94525 0.32802 0.65328 0.29800
C 	C 	0.68977 0.06176 0.65512 0.29100
O 	O 	0.75103 0.13426 0.65700 -0.31300
O 	O 	0.94910 0.27351 0.66148 -0.29200
O 	O 	0.84071 0.98723 0.64192 -0.30100
C 	C 	0.84052 0.00865 0.60386 0.28700
O 	O 	0.81204 0.27953 0.61733 -0.28200
O 	O 	0.75078 0.19232 0.59792 -0.32400
H 	H 	0.94439 0.16919 0.63518 0.25900
H 	H 	0.70518 0.09846 0.62301 0.23700
Cu	Cu	0.14288 0.75105 0.73130 0.96300
Cu	Cu	0.24488 0.80510 0.70276 0.91900
Cu	Cu	0.18683 0.81675 0.67178 0.91400
C 	C 	0.28742 0.74507 0.73004 0.28500
O 	O 	0.18179 0.84132 0.69209 -0.63800
O 	O 	0.13338 0.72384 0.71023 -0.61800
O 	O 	0.11154 0.82912 0.73036 -0.34300
O 	O 	0.34763 0.88864 0.69495 -0.29600
C 	C 	0.36676 0.90075 0.68053 0.30100
O 	O 	0.15238 0.69461 0.67724 -0.33000
O 	O 	0.30995 0.87288 0.66984 -0.32600
O 	O 	0.31162 0.78150 0.71690 -0.28400
O 	O 	0.20924 0.70402 0.73342 -0.28300
H 	H 	0.19821 0.89727 0.69401 0.19900
H 	H 	0.12306 0.66963 0.70848 0.25000
Cu	Cu	0.34891 0.14134 0.86312 0.94000
Cu	Cu	0.45728 0.16430 0.89378 0.92800
Cu	Cu	0.49615 0.30576 0.86868 0.93300
Cu	Cu	0.40942 0.27286 0.83813 0.92800
C 	C 	0.23512 0.15041 0.84257 0.29800
O 	O 	0.38755 0.09606 0.84658 -0.32000
C 	C 	0.59476 0.31949 0.89509 0.28600
O 	O 	0.39237 0.26151 0.85893 -0.63300
O 	O 	0.45911 0.19092 0.87274 -0.61800
O 	O 	0.27727 0.09340 0.88103 -0.26200
O 	O 	0.36405 0.06203 0.89302 -0.34600
O 	O 	0.29468 0.19205 0.83288 -0.32900
O 	O 	0.52483 0.41279 0.86340 -0.28700
C 	C 	0.52446 0.43728 0.84955 0.30800
C 	C 	0.45482 0.14087 0.83884 0.27800
O 	O 	0.48539 0.21773 0.83851 -0.28700
O 	O 	0.49382 0.38751 0.83811 -0.31400
O 	O 	0.24610 0.11051 0.85345 -0.27900
C 	C 	0.29059 0.05259 0.89121 0.29800
O 	O 	0.59037 0.35220 0.88241 -0.28100
O 	O 	0.56984 0.24369 0.89563 -0.29700
H 	H 	0.35759 0.28257 0.86279 0.24400
H 	H 	0.49568 0.17564 0.86759 0.22800
Cu	Cu	0.80057 0.86229 0.80307 0.95100
Cu	Cu	0.70018 0.80821 0.77064 0.93600
Cu	Cu	0.64422 0.87159 0.79708 0.92000
Cu	Cu	0.72467 0.92311 0.82738 0.91700
C 	C 	0.90326 0.98053 0.82433 0.30300
O 	O 	0.76564 0.78471 0.82020 -0.27100
C 	C 	0.53886 0.77856 0.77178 0.29100
O 	O 	0.74801 0.93446 0.80655 -0.63500
O 	O 	0.69265 0.80203 0.79243 -0.61600
O 	O 	0.87622 0.86768 0.78683 -0.27400
O 	O 	0.80753 0.89441 0.76910 -0.32200
O 	O 	0.83997 0.95680 0.83356 -0.33000
O 	O 	0.60764 0.94591 0.80183 -0.29100
C 	C 	0.60794 0.97252 0.81548 0.30200
C 	C 	0.69137 0.75291 0.82566 0.27900
O 	O 	0.65363 0.79423 0.82577 -0.33800
O 	O 	0.63627 0.95173 0.82718 -0.32500
O 	O 	0.89979 0.93631 0.81282 -0.27400
C 	C 	0.86902 0.88451 0.77285 0.32100
O 	O 	0.54536 0.81726 0.78437 -0.29600
O 	O 	0.58415 0.74562 0.76962 -0.30100
H 	H 	0.77875 0.98979 0.80295 0.23500
H 	H 	0.65648 0.74733 0.79597 0.23100
Cu	Cu	0.21927 0.36046 0.43612 0.92300
Cu	Cu	0.28580 0.42109 0.46542 0.92000
Cu	Cu	0.23126 0.32299 0.49396 0.92200
C 	C 	0.33056 0.52570 0.43879 0.29100
O 	O 	0.23096 0.31268 0.47295 -0.63400
O 	O 	0.17921 0.38022 0.45481 -0.62400
O 	O 	0.16075 0.24859 0.43576 -0.36300
O 	O 	0.38738 0.46519 0.47740 -0.27500
C 	C 	0.40731 0.42846 0.48765 0.30500
O 	O 	0.20430 0.41876 0.49111 -0.30700
O 	O 	0.35092 0.36473 0.49462 -0.32900
O 	O 	0.34171 0.51909 0.45334 -0.25900
O 	O 	0.26832 0.46943 0.43134 -0.29400
H 	H 	0.25404 0.28019 0.46911 0.19800
H 	H 	0.15821 0.41767 0.45416 0.27700
Cu	Cu	0.84278 0.73542 0.53174 0.95000
Cu	Cu	0.88639 0.67928 0.56313 0.91700
Cu	Cu	0.89730 0.61316 0.53543 0.91400
Cu	Cu	0.91995 0.68929 0.50456 0.93000
C 	C 	0.92544 0.84295 0.50762 0.30900
O 	O 	0.74575 0.66827 0.51818 -0.28400
C 	C 	0.83891 0.51552 0.56311 0.29500
O 	O 	0.93824 0.71373 0.52528 -0.63200
O 	O 	0.82256 0.64581 0.54467 -0.62700
O 	O 	0.84150 0.80435 0.54797 -0.26900
O 	O 	0.93603 0.79028 0.56131 -0.37000
O 	O 	0.91210 0.78415 0.49858 -0.30500
O 	O 	0.97682 0.58811 0.52682 -0.30000
C 	C 	0.99144 0.58801 0.51230 0.28000
C 	C 	0.73471 0.60342 0.51155 0.28800
O 	O 	0.79702 0.59154 0.50939 -0.31100
O 	O 	0.99292 0.64251 0.50327 -0.30500
O 	O 	0.88306 0.82935 0.52011 -0.31500
C 	C 	0.88963 0.82226 0.55969 0.30300
O 	O 	0.86457 0.52226 0.54900 -0.27900
O 	O 	0.83377 0.57283 0.56993 -0.29900
H 	H 	0.99521 0.75351 0.52803 0.22200
H 	H 	0.76511 0.60300 0.54586 0.29800
Cu	Cu	0.75477 0.98269 0.36503 0.94500
Cu	Cu	0.67510 0.91049 0.39775 0.92200
Cu	Cu	0.62910 0.80720 0.36927 0.93100
Cu	Cu	0.72095 0.86016 0.33894 0.94400
C 	C 	0.87776 0.00838 0.34330 0.30800
O 	O 	0.69465 0.00854 0.34923 -0.31900
C 	C 	0.52803 0.76664 0.39659 0.30000
O 	O 	0.73607 0.86915 0.36002 -0.62300
O 	O 	0.65401 0.91449 0.37638 -0.62500
O 	O 	0.81828 0.05202 0.38185 -0.32400
O 	O 	0.79036 0.95112 0.39768 -0.31800
O 	O 	0.82043 0.96241 0.33367 -0.29300
O 	O 	0.60673 0.70551 0.36111 -0.28600
C 	C 	0.61488 0.69183 0.34683 0.29800
C 	C 	0.63071 0.95451 0.34179 0.28600
O 	O 	0.61782 0.88185 0.34077 -0.28000
O 	O 	0.67736 0.74429 0.33879 -0.26700
O 	O 	0.85870 0.03554 0.35525 -0.30800
C 	C 	0.83986 0.02344 0.39313 0.29700
O 	O 	0.53364 0.74646 0.38263 -0.27400
O 	O 	0.56123 0.84117 0.40048 -0.33200
H 	H 	0.77771 0.85655 0.36385 0.25500
H 	H 	0.60889 0.92563 0.37443 0.23700
Cu	Cu	0.32795 0.26807 0.30090 0.94500
Cu	Cu	0.42714 0.29738 0.26892 0.96000
Cu	Cu	0.46582 0.22896 0.29657 0.91900
Cu	Cu	0.38435 0.19732 0.32683 0.92800
C 	C 	0.21406 0.17278 0.32387 0.28700
O 	O 	0.37368 0.35281 0.31684 -0.27500
C 	C 	0.57764 0.30443 0.27082 0.28600
O 	O 	0.36119 0.18278 0.30608 -0.64000
O 	O 	0.43591 0.31116 0.29054 -0.61400
O 	O 	0.25910 0.26761 0.28380 -0.26400
O 	O 	0.31599 0.21845 0.26782 -0.34400
O 	O 	0.27673 0.18790 0.33278 -0.28500
O 	O 	0.48343 0.14346 0.30268 -0.29000
C 	C 	0.48283 0.12163 0.31676 0.29600
C 	C 	0.44335 0.37317 0.32362 0.29000
O 	O 	0.47119 0.32339 0.32408 -0.29400
O 	O 	0.45643 0.14829 0.32791 -0.31300
O 	O 	0.22493 0.20752 0.31066 -0.28500
C 	C 	0.25978 0.23725 0.27071 0.29300
O 	O 	0.56345 0.26440 0.28352 -0.28400
O 	O 	0.54264 0.34684 0.26819 -0.29500
H 	H 	0.32288 0.12749 0.30306 0.20000
H 	H 	0.47752 0.36536 0.29360 0.21100
Cu	Cu	0.29464 0.33500 0.02943 0.94500
Cu	Cu	0.30992 0.41703 0.06228 0.93600
Cu	Cu	0.25857 0.47029 0.03409 0.91800
Cu	Cu	0.21396 0.38537 0.00398 0.93900
C 	C 	0.20066 0.22744 0.00595 0.29000
O 	O 	0.38073 0.38729 0.01325 -0.27200
C 	C 	0.32728 0.56883 0.06091 0.29200
O 	O 	0.20448 0.36628 0.02496 -0.63100
O 	O 	0.33671 0.43456 0.04094 -0.61600
O 	O 	0.29871 0.26749 0.04572 -0.26800
O 	O 	0.23453 0.30740 0.06206 -0.36000
O 	O 	0.21690 0.28895 0.99749 -0.27400
O 	O 	0.18215 0.50253 0.02655 -0.29300
C 	C 	0.15831 0.49679 0.01241 0.29700
C 	C 	0.39839 0.45580 0.00739 0.28400
O 	O 	0.34195 0.47692 0.00672 -0.28800
O 	O 	0.14459 0.43534 0.00415 -0.29000
O 	O 	0.23386 0.23635 0.01934 -0.29100
C 	C 	0.26086 0.25884 0.05852 0.29500
O 	O 	0.30468 0.56579 0.04674 -0.29100
O 	O 	0.36142 0.52788 0.06546 -0.32700
H 	H 	0.14800 0.33065 0.02863 0.20400
H 	H 	0.39497 0.47396 0.03900 0.21000
Cu	Cu	0.94847 0.68183 0.93462 0.94000
Cu	Cu	0.85356 0.64624 0.96401 0.92000
Cu	Cu	0.90505 0.75058 0.99156 0.95100
C 	C 	0.81186 0.53152 0.93975 0.28600
O 	O 	0.90817 0.75550 0.97031 -0.62800
O 	O 	0.96609 0.67857 0.95615 -0.62000
O 	O 	0.98280 0.79014 0.93216 -0.34000
O 	O 	0.74605 0.62091 0.97155 -0.28400
C 	C 	0.73045 0.63432 0.98539 0.29600
O 	O 	0.94042 0.65965 0.99106 -0.28900
O 	O 	0.78342 0.69817 0.99281 -0.26300
O 	O 	0.79769 0.54290 0.95382 -0.27900
O 	O 	0.88652 0.56994 0.93421 -0.32800
H 	H 	0.88591 0.78727 0.96577 0.23400
H 	H 	0.98552 0.64149 0.95892 0.20700
Cu	Cu	0.30525 0.00847 0.13162 0.94300
Cu	Cu	0.32257 0.93489 0.09986 0.90200
Cu	Cu	0.25365 0.83420 0.12777 0.91900
Cu	Cu	0.20561 0.88387 0.15690 0.94200
C 	C 	0.20147 0.03260 0.15199 0.30700
O 	O 	0.38602 0.03528 0.14865 -0.29300
C 	C 	0.32968 0.79433 0.10276 0.28900
O 	O 	0.20572 0.89406 0.13573 -0.62800
O 	O 	0.34194 0.94179 0.12146 -0.62900
O 	O 	0.31924 0.07799 0.11440 -0.31700
O 	O 	0.24987 0.97585 0.09837 -0.34900
O 	O 	0.20802 0.98526 0.16180 -0.26000
O 	O 	0.16483 0.73257 0.13445 -0.29000
C 	C 	0.14190 0.71533 0.14862 0.29800
C 	C 	0.39313 0.98082 0.15608 0.29000
O 	O 	0.33199 0.90757 0.15639 -0.30900
O 	O 	0.13474 0.76643 0.15736 -0.30000
O 	O 	0.25015 0.05879 0.14019 -0.29300
C 	C 	0.27508 0.04916 0.10223 0.31000
O 	O 	0.29466 0.77493 0.11617 -0.26700
O 	O 	0.36913 0.86823 0.09822 -0.32300
H 	H 	0.15200 0.88049 0.13126 0.24400
H 	H 	0.39775 0.95297 0.12426 0.21500
Cu	Cu	0.95368 0.30426 0.22740 0.93100
Cu	Cu	0.84336 0.24448 0.19985 0.92400
Cu	Cu	0.89185 0.22102 0.16861 0.92900
C 	C 	0.80740 0.30752 0.22732 0.30100
O 	O 	0.90392 0.20537 0.18915 -0.63200
O 	O 	0.95670 0.32787 0.20616 -0.62500
O 	O 	0.73821 0.15771 0.19361 -0.31700
C 	C 	0.71697 0.13331 0.17960 0.30700
O 	O 	0.92625 0.34451 0.17212 -0.28800
O 	O 	0.76873 0.16647 0.16826 -0.28900
O 	O 	0.78108 0.27285 0.21409 -0.30800
O 	O 	0.88616 0.34959 0.23018 -0.30200
H 	H 	0.88919 0.15060 0.19183 0.22800
H 	H 	0.96870 0.38252 0.20423 0.23900
C 	C 	0.22863 0.62338 0.14469 0.78400
F 	F 	0.84925 0.42734 0.16711 -0.40300
F 	F 	0.28040 0.69995 0.14953 -0.42200
F 	F 	0.26678 0.57991 0.14787 -0.37500
C 	C 	0.52447 0.98178 0.15968 0.06600
C 	C 	0.46801 0.00346 0.16488 0.02100
C 	C 	0.48880 0.05563 0.17724 -0.07500
C 	C 	0.57046 0.09596 0.18235 0.06700
C 	C 	0.62918 0.07952 0.17621 0.02500
C 	C 	0.60404 0.01653 0.16582 -0.07600
C 	C 	0.66218 0.98818 0.16077 0.78200
H 	H 	0.50746 0.94004 0.15049 0.10900
H 	H 	0.58919 0.14252 0.19064 0.11300
C 	C 	0.42559 0.07225 0.18439 0.78200
F 	F 	0.61893 0.91084 0.15573 -0.36700
F 	F 	0.71172 0.99074 0.17252 -0.40700
F 	F 	0.71082 0.03541 0.14917 -0.40200
F 	F 	0.35061 0.00336 0.18558 -0.41500
F 	F 	0.41645 0.12613 0.17571 -0.39700
F 	F 	0.44948 0.10311 0.19870 -0.37400
C 	C 	0.20459 0.15826 0.15771 0.07300
C 	C 	0.15897 0.07565 0.15655 0.03600
C 	C 	0.07268 0.03594 0.15855 -0.06500
C 	C 	0.02118 0.94708 0.15641 0.77700
H 	H 	0.27060 0.18820 0.15619 0.12600
F 	F 	0.93796 0.92160 0.15676 -0.36700
F 	F 	0.03838 0.90904 0.16774 -0.40700
C 	C 	0.14514 0.58087 0.99238 -0.08500
C 	C 	0.98996 0.62731 0.02182 0.78600
C 	C 	0.21143 0.57891 0.98293 0.78400
F 	F 	0.90746 0.58233 0.01840 -0.36800
F 	F 	0.18037 0.50560 0.97622 -0.39600
F 	F 	0.27841 0.59383 0.99172 -0.40100
F 	F 	0.23889 0.63582 0.97175 -0.38200
C 	C 	0.57974 0.57270 0.98138 0.06700
C 	C 	0.64527 0.58885 0.99108 0.04200
C 	C 	0.62888 0.56257 0.00619 -0.07700
C 	C 	0.54814 0.52859 0.01164 0.06900
C 	C 	0.48230 0.50887 0.00183 0.02500
C 	C 	0.49787 0.52920 0.98641 -0.05700
C 	C 	0.42779 0.50543 0.97534 0.77700
H 	H 	0.59269 0.59378 0.96989 0.14000
H 	H 	0.53577 0.51362 0.02344 0.09600
C 	C 	0.69673 0.56997 0.01654 0.78300
F 	F 	0.45570 0.52158 0.96065 -0.35500
F 	F 	0.38748 0.54676 0.97847 -0.36800
F 	F 	0.37291 0.42517 0.97635 -0.38200
F 	F 	0.74142 0.64666 0.02179 -0.38600
F 	F 	0.74845 0.55025 0.00900 -0.38900
F 	F 	0.66489 0.51977 0.02877 -0.37200
C 	C 	0.16273 0.14904 0.99895 0.02500
C 	C 	0.21118 0.11645 0.99400 -0.07000
C 	C 	0.17224 0.03652 0.98981 0.06600
C 	C 	0.94512 0.97942 0.99139 0.77900
H 	H 	0.20860 0.00917 0.98705 0.11200
C 	C 	0.30434 0.16561 0.99383 0.78000
F 	F 	0.91120 0.02804 0.99245 -0.39300
F 	F 	0.91260 0.92367 0.00272 -0.41500
F 	F 	0.92283 0.94168 0.97761 -0.43200
F 	F 	0.33384 0.17663 0.00838 -0.39300
F 	F 	0.32941 0.23845 0.98728 -0.37600
F 	F 	0.33880 0.12893 0.98569 -0.38800
C 	C 	0.19177 0.14462 0.07577 0.06100
C 	C 	0.26499 0.20756 0.07017 0.01500
C 	C 	0.34151 0.22136 0.07587 -0.08400
C 	C 	0.34303 0.16647 0.08585 0.06600
C 	C 	0.26998 0.10331 0.09140 0.00600
C 	C 	0.19339 0.09390 0.08683 -0.07300
H 	H 	0.40127 0.17282 0.08938 0.09700
C 	C 	0.42179 0.29290 0.07101 0.78600
F 	F 	0.41498 0.36031 0.07104 -0.46400
F 	F 	0.44208 0.28052 0.05672 -0.39300
F 	F 	0.48534 0.30620 0.08063 -0.38900
C 	C 	0.40195 0.68524 0.07750 0.06500
C 	C 	0.32743 0.62850 0.07107 0.02300
C 	C 	0.25273 0.62259 0.07596 -0.08100
C 	C 	0.25490 0.67600 0.08681 0.06500
C 	C 	0.32940 0.73281 0.09317 0.03000
C 	C 	0.40336 0.73511 0.08905 -0.07000
C 	C 	0.48409 0.79186 0.09662 0.78300
H 	H 	0.45877 0.68939 0.07368 0.11600
H 	H 	0.19877 0.67499 0.09005 0.10300
C 	C 	0.17109 0.56179 0.06917 0.78200
F 	F 	0.54199 0.76855 0.09450 -0.37400
F 	F 	0.47317 0.79464 0.11194 -0.37800
F 	F 	0.51428 0.86662 0.09061 -0.39500
F 	F 	0.16249 0.48718 0.06981 -0.44800
F 	F 	0.16755 0.58119 0.05435 -0.41500
C 	C 	0.15037 0.17108 0.25171 0.06700
C 	C 	0.21069 0.24153 0.25829 0.02200
C 	C 	0.22778 0.31532 0.25219 -0.07800
H 	H 	0.13847 0.11503 0.25638 0.10800
F 	F 	0.36754 0.39095 0.26003 -0.46100
C 	C 	0.70501 0.30177 0.26450 0.06900
C 	C 	0.63427 0.30200 0.25957 0.03400
C 	C 	0.61676 0.29653 0.24392 -0.07900
C 	C 	0.67742 0.30508 0.23365 0.07300
C 	C 	0.74750 0.30356 0.23857 0.02100
C 	C 	0.75778 0.29506 0.25417 -0.07000
C 	C 	0.82352 0.27784 0.25990 0.77700
H 	H 	0.71787 0.30484 0.27644 0.13700
H 	H 	0.66909 0.31083 0.22176 0.11900
C 	C 	0.53359 0.27989 0.23808 0.77800
F 	F 	0.80518 0.24614 0.27424 -0.36300
F 	F 	0.89834 0.34712 0.26038 -0.41500
F 	F 	0.82952 0.22362 0.25074 -0.45000
F 	F 	0.52983 0.34888 0.23809 -0.40700
F 	F 	0.47084 0.22359 0.24684 -0.45900
F 	F 	0.52074 0.25105 0.22352 -0.37300
C 	C 	0.50315 0.51748 0.32046 0.06800
C 	C 	0.49280 0.45443 0.32955 0.02500
C 	C 	0.51964 0.46895 0.34473 -0.06500
C 	C 	0.56070 0.54736 0.35010 0.06200
C 	C 	0.56811 0.60978 0.34112 0.03700
C 	C 	0.53450 0.59380 0.32643 -0.07400
C 	C 	0.53290 0.65783 0.31695 0.77800
H 	H 	0.48357 0.50623 0.30882 0.10500
H 	H 	0.58734 0.56006 0.36126 0.13200
C 	C 	0.50630 0.40172 0.35511 0.77900
F 	F 	0.47484 0.62529 0.30563 -0.37400
F 	F 	0.60900 0.70431 0.31044 -0.40400
F 	F 	0.51305 0.70474 0.32565 -0.39800
F 	F 	0.55613 0.37191 0.35068 -0.40200
F 	F 	0.42506 0.34209 0.35469 -0.41000
F 	F 	0.52502 0.42675 0.36987 -0.38300
C 	C 	0.96401 0.04939 0.33837 0.01500
H 	H 	0.97156 0.16310 0.33850 0.11000
F 	F 	0.90523 0.88097 0.32787 -0.41900
C 	C 	0.46798 0.00158 0.32930 0.05500
C 	C 	0.51557 0.06845 0.32036 0.02500
C 	C 	0.59647 0.08764 0.31622 -0.07200
C 	C 	0.62859 0.04097 0.32174 0.05800
C 	C 	0.58447 0.98023 0.33212 0.03100
C 	C 	0.50138 0.95647 0.33513 -0.07500
C 	C 	0.44905 0.88470 0.34485 0.78100
H 	H 	0.40568 0.98638 0.33211 0.10700
H 	H 	0.69037 0.05506 0.31876 0.10900
C 	C 	0.64876 0.15744 0.30599 0.78100
F 	F 	0.36764 0.86609 0.34502 -0.38700
F 	F 	0.47801 0.89937 0.35944 -0.43600
F 	F 	0.45192 0.81983 0.33935 -0.38100
F 	F 	0.65098 0.22514 0.31130 -0.41500
F 	F 	0.61644 0.14127 0.29163 -0.40100
F 	F 	0.72897 0.17266 0.30520 -0.37900
C 	C 	0.98368 0.19978 0.41641 -0.09100
C 	C 	0.92143 0.15051 0.40641 0.06600
C 	C 	0.91134 0.07681 0.40232 0.01500
C 	C 	0.96784 0.05410 0.40756 -0.08900
H 	H 	0.87928 0.16851 0.40208 0.10400
F 	F 	0.90649 0.91462 0.40869 -0.38600
F 	F 	0.96517 0.30739 0.40859 -0.38500
C 	C 	0.46454 0.60945 0.42665 0.05700
C 	C 	0.38747 0.59840 0.43071 0.04000
C 	C 	0.35910 0.64668 0.42424 -0.07200
C 	C 	0.40322 0.69723 0.41229 0.07000
C 	C 	0.47835 0.70536 0.40767 0.02000
C 	C 	0.51085 0.66300 0.41520 -0.07700
C 	C 	0.59379 0.67334 0.41077 0.78000
H 	H 	0.48613 0.57289 0.43182 0.12900
H 	H 	0.37964 0.73111 0.40667 0.12000
C 	C 	0.28021 0.64214 0.42961 0.78100
F 	F 	0.61631 0.62971 0.41986 -0.37400
F 	F 	0.65375 0.75201 0.41198 -0.44400
F 	F 	0.59063 0.64875 0.39609 -0.41400
F 	F 	0.27395 0.63464 0.44507 -0.36200
F 	F 	0.21372 0.57773 0.42310 -0.37200
F 	F 	0.27781 0.70975 0.42578 -0.37600
C 	C 	0.50605 0.46560 0.50881 0.07000
C 	C 	0.49303 0.46639 0.49328 0.02500
C 	C 	0.56177 0.50245 0.48346 -0.07300
C 	C 	0.64112 0.54669 0.48966 0.06500
C 	C 	0.65337 0.54752 0.50523 0.03000
C 	C 	0.58590 0.50126 0.51473 -0.07700
C 	C 	0.59863 0.49072 0.53119 0.78300
H 	H 	0.45372 0.43744 0.51630 0.10900
H 	H 	0.69324 0.58158 0.48240 0.10100
C 	C 	0.55144 0.49594 0.46650 0.78200
F 	F 	0.52945 0.42759 0.53741 -0.36900
F 	F 	0.61575 0.55848 0.53900 -0.39700
F 	F 	0.66302 0.47592 0.53278 -0.40300
F 	F 	0.52950 0.54984 0.46143 -0.41300
F 	F 	0.49190 0.42044 0.46236 -0.43000
F 	F 	0.62387 0.51174 0.45949 -0.38700
C 	C 	0.91839 0.95943 0.49871 0.08700
C 	C 	0.96608 0.92391 0.50156 -0.01000
C 	C 	0.95559 0.04095 0.49589 -0.10800
C 	C 	0.90250 0.07916 0.49430 0.78900
H 	H 	0.85204 0.92374 0.49921 0.10600
F 	F 	0.82591 0.03276 0.50071 -0.39200
F 	F 	0.89193 0.08907 0.47924 -0.40100
F 	F 	0.93859 0.15189 0.50141 -0.40500
C 	C 	0.98560 0.45724 0.50830 -0.12700
C 	C 	0.90208 0.41342 0.51588 0.79500
H 	H 	0.99320 0.35142 0.50484 0.10500
C 	C 	0.22072 0.57944 0.48518 0.78300
F 	F 	0.86350 0.33306 0.51300 -0.38200
F 	F 	0.85108 0.44057 0.51071 -0.41800
F 	F 	0.91187 0.42452 0.53125 -0.41200
F 	F 	0.21610 0.54292 0.47162 -0.42300
F 	F 	0.28195 0.58000 0.49389 -0.40600
F 	F 	0.24217 0.65696 0.48212 -0.37300
C 	C 	0.19159 0.91749 0.89961 0.06700
C 	C 	0.22382 0.99903 0.90121 0.02700
C 	C 	0.19655 0.02877 0.91305 -0.07300
H 	H 	0.21190 0.89570 0.89031 0.11000
C 	C 	0.22902 0.11700 0.91469 0.78300
F 	F 	0.13986 0.75973 0.89661 -0.38600
F 	F 	0.20534 0.14430 0.90241 -0.36900
F 	F 	0.31383 0.15688 0.91559 -0.44600
F 	F 	0.19928 0.13438 0.92751 -0.38300
C 	C 	0.62444 0.41610 0.91548 0.05900
C 	C 	0.64925 0.37088 0.90708 0.02100
C 	C 	0.72321 0.37195 0.91078 -0.07100
C 	C 	0.76813 0.41506 0.92339 0.06200
C 	C 	0.74736 0.46568 0.93098 0.02700
C 	C 	0.67284 0.46392 0.92742 -0.07900
C 	C 	0.64395 0.51144 0.93653 0.78200
H 	H 	0.56708 0.41368 0.91268 0.10900
H 	H 	0.82278 0.41350 0.92675 0.11800
C 	C 	0.75433 0.32695 0.90145 0.78200
F 	F 	0.57029 0.50202 0.93123 -0.37400
F 	F 	0.70162 0.59105 0.93586 -0.44200
F 	F 	0.63247 0.48657 0.95133 -0.40100
F 	F 	0.74506 0.33560 0.88626 -0.37800
F 	F 	0.71111 0.24768 0.90519 -0.39200
F 	F 	0.83693 0.35454 0.90404 -0.38000
C 	C 	0.64257 0.54476 0.83648 0.06200
C 	C 	0.57550 0.52182 0.84607 0.02300
C 	C 	0.54963 0.57639 0.84983 -0.07900
C 	C 	0.58975 0.65218 0.84326 0.05800
C 	C 	0.65145 0.67226 0.83236 0.01800
C 	C 	0.67516 0.61564 0.82835 -0.07900
C 	C 	0.73248 0.62828 0.81523 0.78400
H 	H 	0.66483 0.50392 0.83441 0.12000
H 	H 	0.57270 0.69554 0.84652 0.10700
C 	C 	0.47954 0.55399 0.86081 0.78200
F 	F 	0.72699 0.55781 0.81075 -0.38300
F 	F 	0.81284 0.67928 0.81944 -0.39500
F 	F 	0.71233 0.65829 0.80291 -0.44900
F 	F 	0.49873 0.53351 0.87448 -0.39200
F 	F 	0.40849 0.49045 0.85526 -0.40500
F 	F 	0.46436 0.61565 0.86324 -0.38700
C 	C 	0.14981 0.12835 0.83843 0.02900
C 	C 	0.98490 0.04427 0.82927 0.00300
H 	H 	0.17768 0.15317 0.81483 0.11000
H 	H 	0.95657 0.02259 0.85290 0.09900
C 	C 	0.44768 0.03027 0.82385 0.05500
C 	C 	0.49652 0.10415 0.83071 0.02100
C 	C 	0.58378 0.13969 0.83026 -0.08300
C 	C 	0.61875 0.09808 0.82354 0.06300
C 	C 	0.56947 0.02125 0.81812 0.01600
C 	C 	0.48318 0.98793 0.81764 -0.07100
C 	C 	0.42905 0.90775 0.81041 0.78100
H 	H 	0.38164 0.00523 0.82363 0.11200
H 	H 	0.68488 0.12397 0.82314 0.10200
C 	C 	0.64011 0.22190 0.83660 0.78500
F 	F 	0.34661 0.88513 0.81124 -0.37700
F 	F 	0.43985 0.85065 0.81757 -0.41000
F 	F 	0.44958 0.91085 0.79540 -0.39400
F 	F 	0.61936 0.22678 0.85130 -0.43500
F 	F 	0.63451 0.27782 0.82792 -0.40100
F 	F 	0.72147 0.24028 0.83660 -0.38600
C 	C 	0.41992 0.75056 0.73544 0.06800
C 	C 	0.34944 0.74969 0.74090 0.03500
C 	C 	0.34171 0.75830 0.75659 -0.07300
C 	C 	0.39950 0.75703 0.76643 0.07000
C 	C 	0.47292 0.76424 0.76094 0.02800
C 	C 	0.48521 0.76540 0.74513 -0.07100
C 	C 	0.56737 0.78344 0.73849 0.77800
H 	H 	0.42505 0.74239 0.72352 0.14100
H 	H 	0.38921 0.75425 0.77846 0.13500
C 	C 	0.27377 0.77072 0.76295 0.77900
F 	F 	0.57173 0.80101 0.72333 -0.36200
F 	F 	0.57771 0.71845 0.74011 -0.40800
F 	F 	0.63114 0.84819 0.74552 -0.44800
F 	F 	0.20095 0.69943 0.76336 -0.38700
F 	F 	0.26382 0.82437 0.75432 -0.44800
F 	F 	0.29191 0.80052 0.77743 -0.35900
C 	C 	0.94515 0.77113 0.75003 -0.06900
C 	C 	0.90796 0.79271 0.76133 0.06200
C 	C 	0.91219 0.86651 0.76105 0.00900
C 	C 	0.95497 0.92061 0.74930 -0.05600
C 	C 	0.96081 0.00109 0.74874 0.76300
H 	H 	0.87482 0.75183 0.77035 0.11300
C 	C 	0.94108 0.69138 0.75072 0.77000
F 	F 	0.88599 0.99216 0.74438 -0.38100
F 	F 	0.90781 0.64999 0.73755 -0.38800
F 	F 	0.89285 0.64560 0.76253 -0.37200
C 	C 	0.94029 0.41901 0.67203 0.07700
C 	C 	0.93638 0.49750 0.69421 0.79100
H 	H 	0.88362 0.36933 0.67609 0.10500
H 	H 	0.13397 0.59943 0.65537 0.10900
F 	F 	0.88885 0.42347 0.70056 -0.38500
F 	F 	0.88653 0.52978 0.69166 -0.37700
F 	F 	0.17856 0.52708 0.63992 -0.38200
C 	C 	0.47681 0.01599 0.66695 0.05500
C 	C 	0.45391 0.94971 0.67613 0.02700
C 	C 	0.51296 0.92762 0.68004 -0.07800
C 	C 	0.59310 0.97139 0.67425 0.07000
C 	C 	0.61383 0.03328 0.66405 0.01200
C 	C 	0.55676 0.05887 0.66097 -0.07900
C 	C 	0.58022 0.13059 0.65112 0.78200
H 	H 	0.43151 0.03301 0.66422 0.10300
H 	H 	0.63889 0.95529 0.67716 0.10600
C 	C 	0.49170 0.85906 0.69068 0.78200
F 	F 	0.51820 0.14929 0.65043 -0.39100
F 	F 	0.59602 0.11574 0.63668 -0.44300
F 	F 	0.64942 0.19551 0.65683 -0.41200
F 	F 	0.41990 0.79264 0.68622 -0.42200
F 	F 	0.48216 0.88008 0.70506 -0.40400
F 	F 	0.55285 0.83910 0.69101 -0.37800
C 	C 	0.87784 0.88478 0.66127 0.07300
C 	C 	0.92476 0.96698 0.65949 0.01600
C 	C 	0.91558 0.83991 0.66459 -0.09300
C 	C 	0.86394 0.75041 0.66541 0.78600
H 	H 	0.81178 0.85572 0.65989 0.11300
F 	F 	0.79040 0.72311 0.65780 -0.38200
F 	F 	0.84684 0.72713 0.68026 -0.38100
F 	F 	0.90504 0.71546 0.65895 -0.40100
F 	F 	0.14650 0.11955 0.65983 -0.38500
C 	C 	0.79037 0.88444 0.58951 0.06200
C 	C 	0.85655 0.95760 0.59387 0.02100
C 	C 	0.93656 0.98118 0.58848 -0.08100
C 	C 	0.94610 0.93642 0.57709 0.04400
C 	C 	0.87911 0.86477 0.57234 0.01300
C 	C 	0.80197 0.83539 0.57950 -0.08400
C 	C 	0.73100 0.75314 0.57614 0.78600
H 	H 	0.72947 0.86618 0.59381 0.10500
F 	F 	0.67244 0.72751 0.58741 -0.38000
F 	F 	0.75814 0.69912 0.57512 -0.44400
F 	F 	0.69421 0.75425 0.56276 -0.39200
C 	C 	0.88274 0.42439 0.57326 0.06400
C 	C 	0.82094 0.44428 0.57177 0.03600
C 	C 	0.74730 0.40247 0.58017 -0.07100
C 	C 	0.74151 0.34829 0.59119 0.06900
C 	C 	0.80437 0.33019 0.59298 0.02200
C 	C 	0.87559 0.36802 0.58391 -0.07700
C 	C 	0.94341 0.34753 0.58546 0.76800
H 	H 	0.93778 0.45517 0.56649 0.11500
H 	H 	0.68721 0.31885 0.59820 0.12100
C 	C 	0.67555 0.41645 0.57770 0.78300
F 	F 	0.91403 0.26976 0.58126 -0.43800
F 	F 	0.96977 0.35731 0.60023 -0.40200
F 	F 	0.66695 0.42788 0.56262 -0.36200
F 	F 	0.68822 0.48227 0.58572 -0.37000
F 	F 	0.60264 0.35220 0.58247 -0.37000
