data_crystal

_cell_length_a 22.36691
_cell_length_b 19.92065
_cell_length_c 48.56762
_cell_angle_alpha 89.90660
_cell_angle_beta  89.90690
_cell_angle_gamma 119.42313

_symmetry_space_group_name_	'P 1'
_symmetry_space_group_name_H-M	'P 1'

loop_
_symmetry_equiv_pos_as_xyz
  x,y,z

loop_
_atom_site_label
_atom_site_type_symbol
_atom_site_fract_x
_atom_site_fract_y
_atom_site_fract_z
_atom_site_charge
C 	C 	0.51775 0.21115 0.89587 0.27800
C 	C 	0.76385 0.50641 0.91419 0.31100
C 	C 	0.69091 0.30897 0.85708 0.31400
C 	C 	0.59531 0.40845 0.95489 0.26000
C 	C 	0.79886 0.31691 0.93290 0.29000
C 	C 	0.62480 0.20624 0.97007 0.26000
Ni	Ni	0.63097 0.37480 0.89712 1.14100
Ni	Ni	0.70911 0.37287 0.95293 1.12900
Ni	Ni	0.65692 0.23167 0.91112 1.13300
O 	O 	0.53199 0.28408 0.89628 -0.28600
O 	O 	0.56601 0.19228 0.88995 -0.29000
O 	O 	0.79131 0.37770 0.93489 -0.35700
O 	O 	0.73207 0.45972 0.89386 -0.28600
O 	O 	0.74597 0.48412 0.93986 -0.31000
O 	O 	0.60794 0.17501 0.94521 -0.33900
O 	O 	0.64282 0.32783 0.86047 -0.27600
O 	O 	0.71479 0.28824 0.87806 -0.33400
O 	O 	0.68222 0.27308 0.97430 -0.32600
O 	O 	0.61180 0.43348 0.92901 -0.27300
O 	O 	0.63012 0.38184 0.96900 -0.32900
O 	O 	0.74514 0.24823 0.92907 -0.31900
O 	O 	0.64986 0.31836 0.92329 -0.71800
H 	H 	0.60572 0.29197 0.93317 0.16000
C 	C 	0.79454 0.46297 0.50830 0.26800
C 	C 	0.66382 0.16529 0.56567 0.29200
C 	C 	0.61005 0.32925 0.52445 0.28400
C 	C 	0.85506 0.29505 0.55217 0.28600
C 	C 	0.64723 0.33198 0.61096 0.32200
C 	C 	0.83798 0.48434 0.60031 0.30500
Ni	Ni	0.72847 0.29618 0.52562 1.12900
Ni	Ni	0.76121 0.31225 0.59115 1.15000
Ni	Ni	0.71915 0.42670 0.56286 1.12700
O 	O 	0.79499 0.39699 0.50483 -0.30300
O 	O 	0.74655 0.46678 0.52340 -0.34200
O 	O 	0.66797 0.28160 0.60666 -0.31400
O 	O 	0.65224 0.19511 0.54358 -0.32300
O 	O 	0.72272 0.20198 0.57837 -0.28400
O 	O 	0.81142 0.50150 0.57868 -0.33100
O 	O 	0.65165 0.31553 0.50928 -0.32200
O 	O 	0.62390 0.34843 0.55035 -0.35500
O 	O 	0.80690 0.41430 0.61165 -0.28700
O 	O 	0.80434 0.26445 0.53361 -0.27000
O 	O 	0.85064 0.32946 0.57492 -0.27800
O 	O 	0.68291 0.40282 0.60166 -0.34900
O 	O 	0.75131 0.35570 0.55786 -0.72700
H 	H 	0.79979 0.39257 0.55381 0.18100
C 	C 	0.06409 0.94915 0.71093 0.31200
C 	C 	0.16692 0.17808 0.79972 0.32600
C 	C 	0.99866 0.94185 0.78548 0.29800
C 	C 	0.23091 0.19394 0.72606 0.30200
C 	C 	0.96794 0.14114 0.76691 0.31000
C 	C 	0.02968 0.14653 0.69392 0.31500
Ni	Ni	0.13360 0.05227 0.75941 1.13300
Ni	Ni	0.10776 0.19675 0.74718 1.14300
Ni	Ni	0.98752 0.02407 0.73625 1.13900
O 	O 	0.12423 0.99181 0.72324 -0.32400
O 	O 	0.00600 0.93862 0.72247 -0.29100
O 	O 	0.03272 0.17515 0.77433 -0.29000
O 	O 	0.13204 0.10344 0.79624 -0.27900
O 	O 	0.17483 0.22491 0.77922 -0.29800
O 	O 	0.99815 0.07077 0.69846 -0.29000
O 	O 	0.05465 0.94817 0.77429 -0.29000
O 	O 	0.96925 0.97965 0.77518 -0.29300
O 	O 	0.05049 0.19663 0.71464 -0.31500
O 	O 	0.22510 0.15028 0.74770 -0.32000
O 	O 	0.19058 0.22497 0.72294 -0.25300
O 	O 	0.94469 0.08850 0.74746 -0.31600
O 	O 	0.08275 0.09144 0.74193 -0.71700
H 	H 	0.09921 0.09444 0.72291 0.18900
C 	C 	0.47661 0.81195 0.43217 0.28200
C 	C 	0.22102 0.51582 0.42544 0.32800
C 	C 	0.29663 0.75404 0.39676 0.30900
C 	C 	0.37883 0.56865 0.46584 0.26300
C 	C 	0.19559 0.69524 0.46723 0.27400
C 	C 	0.36053 0.74879 0.51178 0.25600
Ni	Ni	0.35425 0.65721 0.41877 1.12800
Ni	Ni	0.27072 0.61154 0.47668 1.13500
Ni	Ni	0.34167 0.78702 0.45516 1.13700
O 	O 	0.45636 0.74083 0.42341 -0.29300
O 	O 	0.43280 0.83883 0.43408 -0.27100
O 	O 	0.19119 0.62689 0.46663 -0.32200
O 	O 	0.25195 0.58035 0.41166 -0.35300
O 	O 	0.23034 0.51568 0.45217 -0.30900
O 	O 	0.38734 0.80116 0.49185 -0.33600
O 	O 	0.34488 0.73538 0.39313 -0.27900
O 	O 	0.28994 0.78180 0.42032 -0.31600
O 	O 	0.29927 0.68620 0.50901 -0.31100
O 	O 	0.36743 0.57131 0.43895 -0.31100
O 	O 	0.34451 0.58388 0.48502 -0.34000
O 	O 	0.25271 0.75627 0.47482 -0.31900
O 	O 	0.33521 0.68834 0.45222 -0.72200
H 	H 	0.37804 0.70073 0.46190 0.15300
C 	C 	0.39694 0.55982 0.07343 0.26200
C 	C 	0.16653 0.58659 0.12484 0.32100
C 	C 	0.20272 0.41928 0.07497 0.30700
C 	C 	0.35941 0.72364 0.12402 0.28300
C 	C 	0.15963 0.57787 0.03614 0.29800
C 	C 	0.35259 0.73771 0.03345 0.26100
Ni	Ni	0.28262 0.55545 0.11084 1.13300
Ni	Ni	0.25327 0.68049 0.07919 1.13500
Ni	Ni	0.28355 0.56573 0.04409 1.13100
O 	O 	0.35286 0.52423 0.09411 -0.28500
O 	O 	0.37968 0.58632 0.05148 -0.33300
O 	O 	0.19641 0.65001 0.04428 -0.31800
O 	O 	0.21589 0.57631 0.13509 -0.30200
O 	O 	0.16701 0.60362 0.09883 -0.32000
O 	O 	0.31761 0.66694 0.02285 -0.32800
O 	O 	0.19913 0.45530 0.09688 -0.31600
O 	O 	0.25193 0.45539 0.05671 -0.31000
O 	O 	0.33413 0.75592 0.05701 -0.33700
O 	O 	0.35800 0.65694 0.12777 -0.31300
O 	O 	0.30398 0.72671 0.11558 -0.29300
O 	O 	0.18459 0.53063 0.03709 -0.35500
O 	O 	0.28888 0.61175 0.07882 -0.72000
H 	H 	0.33820 0.64966 0.07896 0.15900
C 	C 	0.96518 0.07733 0.20823 0.27500
C 	C 	0.82609 0.91611 0.30929 0.31300
C 	C 	0.02842 0.10467 0.28428 0.33800
C 	C 	0.76201 0.88749 0.23399 0.28700
C 	C 	0.98546 0.86559 0.28650 0.28900
C 	C 	0.93876 0.83826 0.21180 0.31500
Ni	Ni	0.88565 0.02189 0.26101 1.13500
Ni	Ni	0.85847 0.84592 0.26147 1.15000
Ni	Ni	0.00573 0.98253 0.24395 1.13600
O 	O 	0.90837 0.06552 0.22110 -0.27600
O 	O 	0.01603 0.07558 0.22187 -0.28000
O 	O 	0.92265 0.85202 0.29157 -0.30100
O 	O 	0.87071 0.98687 0.30193 -0.30700
O 	O 	0.80106 0.86078 0.29080 -0.31200
O 	O 	0.97804 0.91455 0.21044 -0.35800
O 	O 	0.98142 0.11364 0.27120 -0.28600
O 	O 	0.03680 0.04494 0.27927 -0.32700
O 	O 	0.90045 0.80339 0.23398 -0.26200
O 	O 	0.78259 0.94377 0.25239 -0.31700
O 	O 	0.78546 0.83750 0.23441 -0.26000
O 	O 	0.01756 0.90022 0.26358 -0.30500
O 	O 	0.91173 0.94965 0.24999 -0.72900
H 	H 	0.89675 0.94279 0.23067 0.16100
C 	C 	0.00746 0.20595 0.14538 0.05600
C 	C 	0.01993 0.16253 0.12580 0.09600
C 	C 	0.00316 0.08575 0.13212 -0.08200
C 	C 	0.98491 0.05880 0.15930 0.05700
C 	C 	0.97659 0.10414 0.17936 0.02800
C 	C 	0.98404 0.17672 0.17196 -0.06500
C 	C 	0.06158 0.20283 0.10114 0.10900
C 	C 	0.00881 0.03379 0.11067 0.80800
H 	H 	0.97801 0.00275 0.16496 0.09400
C 	C 	0.96651 0.22266 0.19213 0.77400
H 	H 	0.01957 0.26424 0.14026 0.14000
C 	C 	0.03853 0.23957 0.08229 -0.09500
C 	C 	0.08731 0.30756 0.06909 0.08900
C 	C 	0.15758 0.33539 0.07330 0.00900
C 	C 	0.17868 0.28585 0.08530 -0.05800
C 	C 	0.13093 0.22212 0.10065 0.03600
C 	C 	0.96280 0.21213 0.07845 0.78100
H 	H 	0.07067 0.34277 0.05801 0.08900
C 	C 	0.25308 0.30559 0.08458 0.77600
H 	H 	0.14871 0.19249 0.11427 0.13800
F 	F 	0.89708 0.18269 0.19809 -0.36900
F 	F 	0.98183 0.29400 0.18159 -0.37000
F 	F 	0.00348 0.23478 0.21610 -0.34900
F 	F 	0.07452 0.04389 0.11081 -0.38600
F 	F 	0.99405 0.04957 0.08459 -0.37600
F 	F 	0.96295 0.95722 0.11643 -0.39400
F 	F 	0.25921 0.24045 0.08875 -0.38400
F 	F 	0.28868 0.35830 0.10506 -0.43000
F 	F 	0.28178 0.33643 0.05922 -0.42100
F 	F 	0.95042 0.22636 0.05174 -0.40400
F 	F 	0.94257 0.25114 0.09635 -0.38700
F 	F 	0.92356 0.13376 0.08327 -0.36600
C 	C 	0.60056 0.79940 0.18980 0.04100
C 	C 	0.60391 0.86595 0.17842 0.09600
C 	C 	0.65895 0.93937 0.18538 -0.08900
C 	C 	0.71240 0.94394 0.20194 0.07600
C 	C 	0.70804 0.87758 0.21411 0.02400
C 	C 	0.64929 0.80472 0.20924 -0.05000
C 	C 	0.54664 0.85778 0.16077 0.10400
C 	C 	0.65743 0.01253 0.17763 0.79400
H 	H 	0.75653 0.99959 0.20628 0.10900
C 	C 	0.63732 0.73294 0.22487 0.77800
H 	H 	0.55830 0.74350 0.18421 0.12800
C 	C 	0.54489 0.84125 0.13228 -0.10400
C 	C 	0.48234 0.81275 0.11806 0.07700
C 	C 	0.42163 0.79427 0.13233 0.00900
C 	C 	0.42608 0.82422 0.15905 -0.05300
C 	C 	0.48855 0.85403 0.17339 0.03500
C 	C 	0.60575 0.84177 0.11811 0.79100
H 	H 	0.47894 0.79418 0.09687 0.07200
C 	C 	0.36283 0.81655 0.17340 0.78000
H 	H 	0.49077 0.86895 0.19495 0.14100
F 	F 	0.57002 0.67435 0.22240 -0.37300
F 	F 	0.65032 0.74860 0.25265 -0.39000
F 	F 	0.67968 0.70678 0.21443 -0.35400
F 	F 	0.60630 0.01616 0.19247 -0.38300
F 	F 	0.64463 0.01348 0.14983 -0.36600
F 	F 	0.71920 0.07793 0.18334 -0.36100
F 	F 	0.32333 0.74199 0.18301 -0.39400
F 	F 	0.32439 0.83362 0.15533 -0.37700
F 	F 	0.38048 0.86670 0.19544 -0.36300
F 	F 	0.60036 0.84354 0.08975 -0.41000
F 	F 	0.60802 0.77588 0.12531 -0.40700
F 	F 	0.66674 0.90561 0.12563 -0.37500
C 	C 	0.01026 0.59758 0.14365 0.07400
C 	C 	0.03629 0.64920 0.16568 0.08400
C 	C 	0.09436 0.65713 0.18009 -0.07000
C 	C 	0.13528 0.62971 0.16778 0.08300
C 	C 	0.11421 0.58753 0.14318 0.02900
C 	C 	0.04679 0.56236 0.13346 -0.06400
C 	C 	0.00488 0.69767 0.17243 0.13000
C 	C 	0.10883 0.68803 0.20925 0.78900
H 	H 	0.18478 0.64443 0.17647 0.14500
C 	C 	0.01520 0.50229 0.11106 0.79500
H 	H 	0.96281 0.58678 0.13387 0.10800
C 	C 	0.03735 0.77670 0.16499 -0.09800
C 	C 	0.01275 0.82349 0.17640 0.11600
C 	C 	0.95124 0.79021 0.19166 0.01600
C 	C 	0.90981 0.70885 0.19177 -0.03200
C 	C 	0.93986 0.66364 0.18483 0.02800
C 	C 	0.09678 0.81076 0.14467 0.79100
H 	H 	0.04239 0.88554 0.17415 0.11100
C 	C 	0.83351 0.67000 0.19771 0.77700
H 	H 	0.91190 0.60190 0.18830 0.14000
F 	F 	0.02510 0.53896 0.08595 -0.42400
F 	F 	0.94539 0.45674 0.11560 -0.38800
F 	F 	0.04378 0.45444 0.11036 -0.41100
F 	F 	0.05057 0.64708 0.22513 -0.36100
F 	F 	0.12703 0.76510 0.20951 -0.36300
F 	F 	0.16148 0.68048 0.22110 -0.36400
F 	F 	0.79872 0.60524 0.18139 -0.37000
F 	F 	0.80754 0.71891 0.19209 -0.38000
F 	F 	0.82143 0.64758 0.22502 -0.35100
F 	F 	0.10910 0.88200 0.13514 -0.37200
F 	F 	0.08209 0.76286 0.12213 -0.40700
F 	F 	0.15578 0.81988 0.15714 -0.36700
C 	C 	0.64108 0.94881 0.40107 0.04500
C 	C 	0.67369 0.90519 0.40582 0.09300
C 	C 	0.65602 0.85807 0.42959 -0.09200
C 	C 	0.59377 0.83840 0.44308 0.08400
C 	C 	0.55125 0.86630 0.43302 0.02200
C 	C 	0.58084 0.93178 0.41556 -0.05100
C 	C 	0.71395 0.89656 0.38325 0.10000
C 	C 	0.69960 0.82332 0.43891 0.79000
H 	H 	0.57420 0.79390 0.45879 0.08500
C 	C 	0.54750 0.98120 0.41142 0.77600
H 	H 	0.65882 0.99064 0.38445 0.12400
C 	C 	0.68057 0.84698 0.36069 -0.09700
C 	C 	0.71865 0.85315 0.33687 0.07900
C 	C 	0.78990 0.90287 0.33603 0.01500
C 	C 	0.82431 0.94333 0.36016 -0.05600
C 	C 	0.78534 0.94450 0.38269 0.03900
C 	C 	0.60350 0.79206 0.36096 0.78700
H 	H 	0.69244 0.82153 0.31854 0.12900
C 	C 	0.90195 0.98724 0.36188 0.77500
H 	H 	0.81051 0.98332 0.39973 0.14200
F 	F 	0.49597 0.94743 0.39208 -0.34600
F 	F 	0.59493 0.05412 0.40222 -0.37500
F 	F 	0.52042 0.98956 0.43598 -0.40600
F 	F 	0.76790 0.87967 0.43985 -0.39300
F 	F 	0.69220 0.76636 0.42075 -0.38500
F 	F 	0.68073 0.79127 0.46496 -0.40700
F 	F 	0.92601 0.06049 0.35126 -0.41800
F 	F 	0.93041 0.94985 0.34748 -0.42500
F 	F 	0.92319 0.99352 0.38897 -0.35800
F 	F 	0.58410 0.73882 0.33985 -0.37300
F 	F 	0.56905 0.83320 0.35772 -0.39400
F 	F 	0.58338 0.75131 0.38543 -0.39800
C 	C 	0.10228 0.32871 0.38923 0.03300
C 	C 	0.14982 0.31724 0.37393 0.10800
C 	C 	0.22111 0.36615 0.37813 -0.10200
C 	C 	0.24306 0.42937 0.39593 0.08600
C 	C 	0.19556 0.44309 0.41016 -0.00400
C 	C 	0.12453 0.39084 0.40771 -0.04600
C 	C 	0.12469 0.26228 0.35062 0.09600
C 	C 	0.27401 0.35662 0.36142 0.79100
H 	H 	0.29734 0.47010 0.39786 0.08600
C 	C 	0.07248 0.40368 0.42356 0.77500
H 	H 	0.04793 0.29114 0.38575 0.14500
C 	C 	0.09994 0.18241 0.35466 -0.07600
C 	C 	0.07365 0.13227 0.33199 0.09800
C 	C 	0.07005 0.16028 0.30587 0.01800
C 	C 	0.10105 0.24090 0.30147 -0.04700
C 	C 	0.12456 0.29052 0.32421 0.04600
C 	C 	0.09561 0.14965 0.38335 0.79300
H 	H 	0.05266 0.07083 0.33490 0.13300
C 	C 	0.10588 0.27459 0.27301 0.78200
H 	H 	0.14287 0.35158 0.32140 0.13200
F 	F 	0.00619 0.34387 0.41982 -0.37800
F 	F 	0.07541 0.47124 0.41473 -0.40900
F 	F 	0.08687 0.40905 0.45141 -0.40200
F 	F 	0.27941 0.38762 0.33545 -0.38800
F 	F 	0.25579 0.27977 0.35897 -0.37000
F 	F 	0.33789 0.39406 0.37382 -0.38400
F 	F 	0.04634 0.27713 0.26776 -0.35500
F 	F 	0.11539 0.23141 0.25295 -0.38400
F 	F 	0.16088 0.34881 0.27143 -0.36400
F 	F 	0.08128 0.07372 0.38238 -0.34100
F 	F 	0.04402 0.15267 0.39806 -0.36500
F 	F 	0.15703 0.19136 0.39718 -0.36800
C 	C 	0.07021 0.75066 0.30742 0.04300
C 	C 	0.10038 0.78521 0.33251 0.10100
C 	C 	0.08493 0.84001 0.34444 -0.09300
C 	C 	0.04553 0.86483 0.32933 0.07800
C 	C 	0.01573 0.82999 0.30422 0.03300
C 	C 	0.02250 0.76701 0.29472 -0.04000
C 	C 	0.15252 0.76868 0.34486 0.10000
C 	C 	0.11426 0.87625 0.37218 0.78800
H 	H 	0.03971 0.91265 0.33669 0.12900
C 	C 	0.98003 0.71802 0.27088 0.76600
H 	H 	0.08382 0.71089 0.29783 0.15500
C 	C 	0.13305 0.69998 0.35998 -0.09700
C 	C 	0.18395 0.69099 0.37383 0.07400
C 	C 	0.25256 0.75013 0.37363 0.01500
C 	C 	0.27282 0.81404 0.35583 -0.04600
C 	C 	0.22226 0.82275 0.34164 0.04100
C 	C 	0.05836 0.63679 0.36154 0.78400
H 	H 	0.16966 0.64045 0.38647 0.09500
C 	C 	0.34735 0.87660 0.35394 0.78200
H 	H 	0.23674 0.87345 0.32906 0.13700
F 	F 	0.97681 0.64682 0.27102 -0.34800
F 	F 	0.00918 0.75508 0.24638 -0.38600
F 	F 	0.91352 0.70520 0.27272 -0.38900
F 	F 	0.18233 0.93193 0.36903 -0.39000
F 	F 	0.10968 0.82121 0.39077 -0.39800
F 	F 	0.07882 0.91061 0.38322 -0.35800
F 	F 	0.38942 0.84421 0.35140 -0.35800
F 	F 	0.36479 0.92128 0.37745 -0.35900
F 	F 	0.35888 0.92383 0.33131 -0.36400
F 	F 	0.04951 0.57754 0.37895 -0.39900
F 	F 	0.03586 0.60574 0.33570 -0.38100
F 	F 	0.01790 0.66641 0.37124 -0.39300
C 	C 	0.56877 0.96462 0.57726 0.13500
C 	C 	0.54918 0.89090 0.56714 -0.05700
C 	C 	0.47890 0.83766 0.56487 0.04400
C 	C 	0.42968 0.85891 0.57006 0.14800
C 	C 	0.44949 0.93377 0.57906 -0.06000
C 	C 	0.51931 0.98457 0.58378 0.04800
O 	O 	0.63258 0.02730 0.57110 -0.10000
C 	C 	0.61580 0.08580 0.57348 0.08400
C 	C 	0.54909 0.06148 0.58114 -0.02500
O 	O 	0.36949 0.81652 0.55534 -0.13600
C 	C 	0.38855 0.77181 0.53942 0.08500
C 	C 	0.45278 0.78246 0.54554 -0.04500
H 	H 	0.58732 0.87810 0.55868 0.11900
H 	H 	0.41252 0.95400 0.57969 0.12600
H 	H 	0.52202 0.09322 0.57739 0.10200
H 	H 	0.48386 0.77092 0.53120 0.08300
C 	C 	0.04433 0.70655 0.46854 0.16300
C 	C 	0.99065 0.69689 0.48596 -0.08500
C 	C 	0.92381 0.63841 0.47993 0.06100
C 	C 	0.91164 0.58613 0.45906 0.15100
C 	C 	0.96529 0.59545 0.44176 -0.07300
C 	C 	0.03091 0.65836 0.44614 0.09900
O 	O 	0.11135 0.73880 0.47808 -0.13200
C 	C 	0.13576 0.70304 0.46019 0.09000
C 	C 	0.08891 0.65644 0.44087 -0.04900
O 	O 	0.85540 0.51389 0.46383 -0.13900
C 	C 	0.83603 0.52698 0.48969 0.08300
C 	C 	0.87551 0.60099 0.49923 -0.04800
H 	H 	0.00171 0.72819 0.50520 0.14600
H 	H 	0.95778 0.55035 0.42742 0.15900
H 	H 	0.09069 0.60911 0.43070 0.14600
H 	H 	0.88107 0.61689 0.52079 0.11700
C 	C 	0.48382 0.48272 0.47453 0.13800
C 	C 	0.51007 0.43536 0.46560 -0.05700
C 	C 	0.50578 0.37783 0.48368 0.03800
C 	C 	0.47767 0.36862 0.50971 0.15200
C 	C 	0.45084 0.41564 0.51834 -0.07000
C 	C 	0.45845 0.47531 0.50084 0.04400
O 	O 	0.46211 0.52071 0.45644 -0.13000
C 	C 	0.42128 0.53504 0.47474 0.07600
C 	C 	0.41865 0.50804 0.50113 -0.04600
O 	O 	0.50226 0.33553 0.52848 -0.13500
C 	C 	0.55061 0.32977 0.51189 0.06300
C 	C 	0.55231 0.35373 0.48501 -0.02900
H 	H 	0.53235 0.44245 0.44527 0.12800
H 	H 	0.42893 0.40913 0.53872 0.14600
H 	H 	0.37785 0.49494 0.51584 0.10900
H 	H 	0.59668 0.37441 0.47157 0.10100
C 	C 	0.93536 0.18227 0.57027 0.06000
C 	C 	0.98624 0.23973 0.58671 0.06600
C 	C 	0.01341 0.31795 0.57885 -0.04400
C 	C 	0.97688 0.33670 0.55958 0.05100
C 	C 	0.91278 0.27910 0.55021 0.05300
C 	C 	0.89941 0.20201 0.55112 -0.06800
C 	C 	0.99863 0.21898 0.61468 0.08700
C 	C 	0.07694 0.38119 0.59264 0.78100
H 	H 	0.99235 0.39648 0.55541 0.13700
C 	C 	0.84397 0.14030 0.53357 0.78700
H 	H 	0.91907 0.12221 0.57440 0.12300
C 	C 	0.95076 0.20330 0.63635 -0.08400
C 	C 	0.96061 0.17583 0.66162 0.06500
C 	C 	0.02101 0.17335 0.66679 0.05200
C 	C 	0.07224 0.19680 0.64615 -0.04800
C 	C 	0.05778 0.21326 0.61956 0.06700
C 	C 	0.88869 0.21446 0.63254 0.78300
H 	H 	0.92182 0.15767 0.67761 0.11900
C 	C 	0.14508 0.21638 0.65340 0.78300
H 	H 	0.09345 0.22394 0.60283 0.14300
F 	F 	0.78108 0.11258 0.54649 -0.40000
F 	F 	0.85664 0.07964 0.52949 -0.38500
F 	F 	0.84180 0.16982 0.50801 -0.39300
F 	F 	0.13015 0.36486 0.59080 -0.39200
F 	F 	0.06324 0.38673 0.62006 -0.35600
F 	F 	0.09838 0.45207 0.58024 -0.36900
F 	F 	0.18542 0.23087 0.63011 -0.36100
F 	F 	0.14562 0.15656 0.66758 -0.40900
F 	F 	0.17421 0.28162 0.66967 -0.37400
F 	F 	0.85636 0.20980 0.65738 -0.36800
F 	F 	0.84173 0.15813 0.61531 -0.41000
F 	F 	0.90843 0.28626 0.62140 -0.40100
C 	C 	0.39717 0.30742 0.68649 0.04400
C 	C 	0.39891 0.24838 0.67149 0.10200
C 	C 	0.34429 0.17164 0.67379 -0.08700
C 	C 	0.28911 0.15580 0.69144 0.09200
C 	C 	0.28783 0.21464 0.70674 0.03200
C 	C 	0.34281 0.29123 0.70466 -0.04300
C 	C 	0.46099 0.26677 0.65524 0.10200
C 	C 	0.34733 0.10574 0.65929 0.79000
H 	H 	0.24738 0.09723 0.69374 0.10700
C 	C 	0.34326 0.35588 0.72142 0.78000
H 	H 	0.43923 0.36586 0.68436 0.13900
C 	C 	0.47012 0.29777 0.62831 -0.10100
C 	C 	0.53178 0.31870 0.61428 0.08200
C 	C 	0.58392 0.30949 0.62662 -0.00300
C 	C 	0.57596 0.28174 0.65400 -0.04700
C 	C 	0.51343 0.25837 0.66770 0.03300
C 	C 	0.41667 0.31407 0.61535 0.79100
H 	H 	0.53974 0.34297 0.59374 0.08700
C 	C 	0.63342 0.27599 0.66857 0.77800
H 	H 	0.50564 0.23466 0.68833 0.14200
F 	F 	0.29408 0.37227 0.71134 -0.35700
F 	F 	0.40635 0.42256 0.72013 -0.36800
F 	F 	0.32954 0.33463 0.74883 -0.39900
F 	F 	0.39509 0.09156 0.67218 -0.39700
F 	F 	0.36570 0.12376 0.63196 -0.38600
F 	F 	0.28441 0.03872 0.65998 -0.38600
F 	F 	0.62149 0.26488 0.69663 -0.35600
F 	F 	0.69535 0.34305 0.66488 -0.38700
F 	F 	0.63836 0.21438 0.65811 -0.37800
F 	F 	0.42923 0.33081 0.58757 -0.41600
F 	F 	0.41797 0.37657 0.62827 -0.39700
F 	F 	0.35168 0.25095 0.61791 -0.36500
C 	C 	0.99952 0.66414 0.62210 0.02700
C 	C 	0.97770 0.68093 0.64699 0.08200
C 	C 	0.91273 0.62755 0.65814 -0.08800
C 	C 	0.86827 0.56276 0.64259 0.08100
C 	C 	0.88883 0.54824 0.61708 0.02200
C 	C 	0.95662 0.59614 0.60760 -0.05700
C 	C 	0.01621 0.76009 0.65811 0.13500
C 	C 	0.88733 0.64383 0.68503 0.78700
H 	H 	0.81641 0.52493 0.64982 0.12700
C 	C 	0.98260 0.57621 0.58171 0.76900
H 	H 	0.04874 0.70572 0.61348 0.14500
C 	C 	0.06815 0.78015 0.67811 -0.09700
C 	C 	0.08757 0.84627 0.69432 0.10500
C 	C 	0.05936 0.89448 0.68930 0.01200
C 	C 	0.01843 0.88196 0.66555 -0.01000
C 	C 	0.99534 0.81330 0.65076 -0.00700
C 	C 	0.10159 0.73061 0.68252 0.79600
H 	H 	0.12156 0.85799 0.71171 0.11600
C 	C 	0.99728 0.93987 0.65643 0.74300
H 	H 	0.95807 0.79912 0.63442 0.12700
F 	F 	0.05328 0.61993 0.57937 -0.37700
F 	F 	0.95328 0.58975 0.55886 -0.44900
F 	F 	0.96557 0.49941 0.58221 -0.41200
F 	F 	0.86651 0.69778 0.68052 -0.40200
F 	F 	0.93839 0.67142 0.70472 -0.37200
F 	F 	0.83226 0.57762 0.69554 -0.35600
F 	F 	0.98010 0.93123 0.62878 -0.39800
F 	F 	0.05080 0.01378 0.66003 -0.38700
F 	F 	0.94094 0.92947 0.67154 -0.41200
F 	F 	0.15561 0.76411 0.70092 -0.36800
F 	F 	0.12710 0.72092 0.65779 -0.38300
F 	F 	0.05398 0.65918 0.69271 -0.34500
C 	C 	0.93477 0.35678 0.97477 0.14400
C 	C 	0.95180 0.37992 0.00224 -0.05900
C 	C 	0.99762 0.45783 0.00756 0.00400
C 	C 	0.03135 0.50934 0.98667 0.15800
C 	C 	0.01701 0.48576 0.95916 -0.05800
C 	C 	0.96855 0.40843 0.95365 0.03100
O 	O 	0.86962 0.29865 0.96768 -0.14200
C 	C 	0.86441 0.32394 0.94141 0.07500
C 	C 	0.92469 0.38667 0.93239 -0.03100
O 	O 	0.09296 0.57247 0.99465 -0.14600
C 	C 	0.09411 0.55239 0.02219 0.07700
C 	C 	0.03700 0.48427 0.03001 0.01300
H 	H 	0.92632 0.33969 0.01895 0.14000
H 	H 	0.04258 0.52630 0.94254 0.12400
H 	H 	0.92671 0.42608 0.91649 0.11400
H 	H 	0.03649 0.44782 0.04672 0.12100
C 	C 	0.55285 0.04928 0.01353 0.14900
C 	C 	0.54999 0.97763 0.01671 -0.07300
C 	C 	0.48994 0.91114 0.00857 0.04600
C 	C 	0.43313 0.91442 0.99968 0.13900
C 	C 	0.43460 0.98543 0.99800 -0.07300
C 	C 	0.49490 0.05237 0.00577 0.04700
O 	O 	0.61389 0.11583 0.00725 -0.13800
C 	C 	0.58754 0.15757 0.99362 0.07600
C 	C 	0.51670 0.12131 0.99380 -0.04300
O 	O 	0.37220 0.84544 0.00253 -0.14600
C 	C 	0.39731 0.80123 0.01521 0.08000
C 	C 	0.46771 0.84002 0.01880 -0.04900
H 	H 	0.59453 0.97436 0.02358 0.13000
H 	H 	0.38998 0.98845 0.99105 0.11400
H 	H 	0.48687 0.13266 0.97878 0.08400
H 	H 	0.49415 0.82627 0.03464 0.10000
C 	C 	0.52892 0.55407 0.04109 0.14200
C 	C 	0.55155 0.56700 0.01362 -0.06300
C 	C 	0.53088 0.50310 0.99641 0.04300
C 	C 	0.49788 0.42936 0.00666 0.15100
C 	C 	0.47865 0.41597 0.03443 -0.06600
C 	C 	0.49438 0.47963 0.05141 0.05700
O 	O 	0.51214 0.60416 0.05436 -0.14300
C 	C 	0.45838 0.55182 0.07102 0.10000
C 	C 	0.45135 0.47898 0.07090 -0.04300
O 	O 	0.50635 0.37684 0.99077 -0.14500
C 	C 	0.54891 0.42676 0.97018 0.09900
C 	C 	0.56342 0.50216 0.97334 -0.03600
H 	H 	0.57891 0.62501 0.00537 0.12400
H 	H 	0.45110 0.35775 0.04248 0.13500
H 	H 	0.40477 0.42752 0.07692 0.15500
H 	H 	0.60882 0.55169 0.96521 0.14600
C 	C 	0.82510 0.33894 0.80704 0.04200
C 	C 	0.79237 0.26668 0.79422 0.10300
C 	C 	0.71971 0.22264 0.79480 -0.09100
C 	C 	0.68319 0.24390 0.81313 0.08000
C 	C 	0.71812 0.30970 0.82952 0.02500
C 	C 	0.78742 0.36271 0.82351 -0.05400
C 	C 	0.83430 0.23126 0.78585 0.09700
C 	C 	0.68157 0.14850 0.77856 0.79100
H 	H 	0.62897 0.20522 0.81668 0.13900
C 	C 	0.82325 0.44082 0.83722 0.78000
H 	H 	0.88052 0.37373 0.80603 0.13900
C 	C 	0.87760 0.25780 0.76238 -0.09200
C 	C 	0.92503 0.23192 0.75798 0.08000
C 	C 	0.92568 0.17547 0.77504 0.01400
C 	C 	0.88038 0.14632 0.79773 -0.04800
C 	C 	0.83606 0.17590 0.80326 0.03700
C 	C 	0.87655 0.31695 0.74286 0.78800
H 	H 	0.96060 0.25433 0.74081 0.09900
C 	C 	0.87796 0.08226 0.81553 0.77500
H 	H 	0.80318 0.15663 0.82128 0.12600
F 	F 	0.87920 0.49253 0.82179 -0.34400
F 	F 	0.84563 0.43389 0.86304 -0.43000
F 	F 	0.77881 0.47007 0.83976 -0.37800
F 	F 	0.67809 0.08802 0.79380 -0.38700
F 	F 	0.71403 0.15334 0.75377 -0.35500
F 	F 	0.61547 0.13321 0.77278 -0.35100
F 	F 	0.94271 0.10395 0.82558 -0.35900
F 	F 	0.85549 0.01616 0.79995 -0.38800
F 	F 	0.83399 0.06536 0.83776 -0.38000
F 	F 	0.90341 0.31466 0.71739 -0.36200
F 	F 	0.91563 0.38991 0.75371 -0.37600
F 	F 	0.81033 0.30321 0.73865 -0.34500
C 	C 	0.35327 0.11148 0.86336 0.04900
C 	C 	0.32688 0.15135 0.87850 0.09000
C 	C 	0.34860 0.17205 0.90618 -0.09300
C 	C 	0.40394 0.16357 0.91577 0.07300
C 	C 	0.44485 0.15171 0.89671 0.02000
C 	C 	0.41297 0.11136 0.87243 -0.05700
C 	C 	0.29023 0.18533 0.86343 0.11100
C 	C 	0.31465 0.20427 0.92510 0.78600
H 	H 	0.42294 0.18086 0.93652 0.08100
C 	C 	0.44602 0.07621 0.85475 0.78500
H 	H 	0.33235 0.08882 0.84321 0.12500
C 	C 	0.32283 0.23837 0.84151 -0.10600
C 	C 	0.28186 0.24482 0.82091 0.08200
C 	C 	0.21048 0.20816 0.82426 0.01900
C 	C 	0.18249 0.17826 0.85035 -0.03200
C 	C 	0.21996 0.15736 0.86819 0.04200
C 	C 	0.40032 0.28545 0.83933 0.79100
H 	H 	0.30485 0.27335 0.80162 0.13300
C 	C 	0.12546 0.18992 0.86186 0.78900
H 	H 	0.19470 0.12020 0.88562 0.16400
F 	F 	0.49402 0.13196 0.83748 -0.38200
F 	F 	0.39732 0.01692 0.83889 -0.37500
F 	F 	0.47792 0.04620 0.87108 -0.40000
F 	F 	0.24857 0.14728 0.93117 -0.39300
F 	F 	0.31278 0.26585 0.91276 -0.38500
F 	F 	0.34989 0.23024 0.94966 -0.40500
F 	F 	0.08617 0.13231 0.88051 -0.33800
F 	F 	0.08305 0.19015 0.84122 -0.35600
F 	F 	0.15405 0.26005 0.87528 -0.36800
F 	F 	0.41956 0.35297 0.82484 -0.36800
F 	F 	0.42543 0.24361 0.82569 -0.39700
F 	F 	0.42975 0.30542 0.86517 -0.40400
C 	C 	0.96377 0.83796 0.85409 0.04800
C 	C 	0.90765 0.76651 0.84752 0.09700
C 	C 	0.87694 0.75464 0.82114 -0.08200
C 	C 	0.90611 0.81414 0.80136 0.08300
C 	C 	0.96404 0.88475 0.80770 0.03600
C 	C 	0.99138 0.89799 0.83470 -0.06800
C 	C 	0.87881 0.70619 0.86915 0.09900
C 	C 	0.81253 0.67961 0.81430 0.78800
H 	H 	0.88456 0.80527 0.78085 0.12000
C 	C 	0.04945 0.97593 0.84293 0.78500
H 	H 	0.98576 0.84671 0.87452 0.12800
C 	C 	0.90695 0.65729 0.87436 -0.08600
C 	C 	0.87557 0.59856 0.89426 0.08700
C 	C 	0.81558 0.58632 0.90774 0.01700
C 	C 	0.79614 0.64388 0.90626 -0.05800
C 	C 	0.82632 0.70184 0.88614 0.04300
C 	C 	0.97115 0.66896 0.85941 0.78200
H 	H 	0.89396 0.55800 0.89751 0.11000
C 	C 	0.73952 0.64023 0.92443 0.77700
H 	H 	0.80795 0.74258 0.88321 0.13400
F 	F 	0.05908 0.98179 0.87116 -0.38200
F 	F 	0.03443 0.03238 0.83470 -0.36600
F 	F 	0.10962 0.98762 0.83065 -0.43200
F 	F 	0.75879 0.67162 0.83068 -0.38500
F 	F 	0.82342 0.61800 0.81889 -0.34200
F 	F 	0.79358 0.67717 0.78704 -0.36100
F 	F 	0.74437 0.71201 0.92672 -0.39500
F 	F 	0.74386 0.61586 0.95066 -0.42400
F 	F 	0.67652 0.58972 0.91315 -0.41300
F 	F 	0.98569 0.61039 0.86516 -0.37900
F 	F 	0.02663 0.73791 0.86754 -0.39200
F 	F 	0.96298 0.67047 0.83124 -0.35500
