data_crystal

_cell_length_a 45.08528
_cell_length_b 42.51200
_cell_length_c 22.77659
_cell_angle_alpha 89.96111
_cell_angle_beta  89.94950
_cell_angle_gamma 89.99867

_symmetry_space_group_name_	'P 1'
_symmetry_space_group_name_H-M	'P 1'

loop_
_symmetry_equiv_pos_as_xyz
  x,y,z

loop_
_atom_site_label
_atom_site_type_symbol
_atom_site_fract_x
_atom_site_fract_y
_atom_site_fract_z
_atom_site_charge
C 	C 	0.55213 0.45871 0.16313 0.10100
N 	N 	0.52450 0.46382 0.14279 -0.17200
C 	C 	0.50875 0.43768 0.15471 0.10100
C 	C 	0.48073 0.43006 0.12404 -0.07500
C 	C 	0.45711 0.45403 0.11918 0.09000
C 	C 	0.47554 0.39803 0.10107 0.04200
C 	C 	0.49296 0.38640 0.05489 -0.05600
C 	C 	0.48654 0.35710 0.03009 -0.03600
C 	C 	0.46275 0.33912 0.05164 -0.00300
C 	C 	0.45212 0.37985 0.12325 -0.05800
N 	N 	0.45678 0.48059 0.15146 -0.12800
C 	C 	0.43721 0.45575 0.07311 -0.06100
C 	C 	0.43600 0.49899 0.12637 0.08900
C 	C 	0.43248 0.53267 0.14040 -0.07600
C 	C 	0.40267 0.54690 0.13714 0.04500
C 	C 	0.35180 0.54878 0.17166 -0.02100
C 	C 	0.39502 0.56602 0.08932 -0.06000
C 	C 	0.36566 0.57586 0.08186 -0.02600
C 	C 	0.34380 0.56681 0.12252 -0.00600
N 	N 	0.48600 0.54630 0.14509 -0.17300
C 	C 	0.50148 0.57207 0.16055 0.10100
C 	C 	0.48325 0.59347 0.18888 -0.06300
C 	C 	0.45537 0.58000 0.19072 -0.06300
C 	C 	0.53014 0.58040 0.13289 -0.07700
C 	C 	0.53554 0.61282 0.11196 0.04400
C 	C 	0.56533 0.66031 0.11386 -0.02600
C 	C 	0.55027 0.67163 0.06420 -0.00600
C 	C 	0.52693 0.65401 0.04014 -0.02300
C 	C 	0.51961 0.62467 0.06393 -0.06000
N 	N 	0.55337 0.52907 0.15777 -0.12900
C 	C 	0.58928 0.52771 0.08888 -0.06100
C 	C 	0.57519 0.51162 0.13368 0.08900
C 	C 	0.57804 0.47740 0.14340 -0.07700
C 	C 	0.60746 0.46251 0.13763 0.04400
C 	C 	0.62883 0.46682 0.18155 -0.05900
C 	C 	0.65770 0.45567 0.17343 -0.02600
C 	C 	0.66545 0.44025 0.12114 -0.00600
C 	C 	0.64383 0.43521 0.07786 -0.02200
C 	C 	0.61488 0.44614 0.08625 -0.06100
C 	C 	0.55410 0.42908 0.18828 -0.06300
C 	C 	0.52635 0.41563 0.18287 -0.06300
C 	C 	0.44572 0.35055 0.09861 -0.02300
C 	C 	0.42363 0.48464 0.07778 -0.06100
C 	C 	0.45792 0.55101 0.16336 0.10000
C 	C 	0.57573 0.55667 0.08570 -0.06200
C 	C 	0.55409 0.55672 0.12880 0.08800
C 	C 	0.55804 0.63099 0.13750 -0.05800
H 	H 	0.51939 0.47954 0.10897 0.09200
H 	H 	0.49191 0.53140 0.11052 0.09200
H 	H 	0.67426 0.45985 0.20697 0.03700
H 	H 	0.64959 0.42332 0.03737 0.04100
H 	H 	0.62323 0.47941 0.22140 0.04800
H 	H 	0.59845 0.44269 0.05218 0.04500
H 	H 	0.49966 0.34865 0.99349 0.04500
H 	H 	0.43866 0.38861 0.15912 0.04900
H 	H 	0.42743 0.33680 0.11579 0.04300
H 	H 	0.51107 0.40034 0.03746 0.04400
H 	H 	0.35972 0.58958 0.04353 0.03700
H 	H 	0.41159 0.57233 0.05691 0.04500
C 	C 	0.38111 0.53884 0.17887 -0.05800
H 	H 	0.33518 0.54188 0.20354 0.04400
H 	H 	0.58291 0.67407 0.13363 0.03800
H 	H 	0.57021 0.62215 0.17504 0.04800
H 	H 	0.50209 0.61083 0.04417 0.04600
H 	H 	0.51498 0.66266 0.00218 0.04200
H 	H 	0.57445 0.41587 0.19366 0.04800
H 	H 	0.52217 0.39056 0.18343 0.04900
H 	H 	0.43884 0.44231 0.03287 0.04900
H 	H 	0.41314 0.49695 0.04172 0.04800
H 	H 	0.48743 0.61850 0.19184 0.05000
H 	H 	0.43495 0.59315 0.19538 0.04900
H 	H 	0.60114 0.51673 0.05298 0.04800
H 	H 	0.57557 0.57146 0.04699 0.04800
H 	H 	0.38691 0.52420 0.21608 0.05000
Zn	Zn	0.37192 0.12841 0.92409 1.22000
C 	C 	0.32045 0.08999 0.90001 0.30800
O 	O 	0.38694 0.11551 0.00170 -0.47600
O 	O 	0.33881 0.06844 0.88024 -0.43700
O 	O 	0.36370 0.06837 0.00141 -0.49600
C 	C 	0.39884 0.09654 0.82768 0.33000
O 	O 	0.37869 0.11746 0.84181 -0.46200
O 	O 	0.40623 0.07465 0.86561 -0.51000
C 	C 	0.37602 0.09147 0.03062 0.32200
O 	O 	0.41256 0.16328 0.91731 -0.32500
Zn	Zn	0.37795 0.05850 0.92306 1.17100
O 	O 	0.33063 0.11396 0.93045 -0.43700
C 	C 	0.39311 0.18530 0.92580 0.26400
O 	O 	0.36606 0.17569 0.93236 -0.38800
C 	C 	0.50926 0.01533 0.46738 0.00800
C 	C 	0.49110 0.04265 0.47145 0.00900
C 	C 	0.51669 0.00300 0.41209 -0.05400
C 	C 	0.50706 0.01835 0.36087 0.00800
C 	C 	0.47891 0.05587 0.42042 -0.05600
C 	C 	0.48715 0.04424 0.36505 0.00900
H 	H 	0.46524 0.07677 0.42347 0.04900
H 	H 	0.53120 0.98278 0.40887 0.04700
C 	C 	0.47895 0.06030 0.31338 -0.01300
C 	C 	0.49020 0.05160 0.25820 0.00500
C 	C 	0.47203 0.06182 0.21086 -0.05500
C 	C 	0.44608 0.07675 0.22957 -0.00200
S 	S 	0.44607 0.07745 0.30273 -0.01400
H 	H 	0.47551 0.05478 0.16573 0.03800
C 	C 	0.51892 0.01055 0.30544 -0.01300
C 	C 	0.50992 0.02619 0.25429 0.00500
C 	C 	0.51451 0.00820 0.20253 -0.05500
C 	C 	0.52594 0.97824 0.21379 -0.00200
S 	S 	0.53130 0.97502 0.28603 -0.01600
H 	H 	0.51161 0.01740 0.15860 0.03800
C 	C 	0.51970 0.01906 0.57246 0.00300
C 	C 	0.52092 0.00266 0.51974 -0.01200
S 	S 	0.54601 0.97412 0.52652 -0.02100
C 	C 	0.55599 0.98146 0.59613 -0.00300
C 	C 	0.53936 0.00737 0.61570 -0.05500
C 	C 	0.48920 0.05842 0.52601 -0.01400
C 	C 	0.50402 0.04728 0.57605 0.00600
C 	C 	0.49214 0.05921 0.62923 -0.05500
C 	C 	0.46752 0.07867 0.62038 -0.00200
S 	S 	0.46077 0.08051 0.54832 -0.01300
H 	H 	0.49895 0.05112 0.67217 0.04000
H 	H 	0.54006 0.01597 0.66040 0.03800
Zn	Zn	0.60136 0.89345 0.91437 1.22100
C 	C 	0.65683 0.92652 0.92511 0.30400
O 	O 	0.59855 0.91041 0.99455 -0.44700
O 	O 	0.64159 0.95132 0.94176 -0.44100
O 	O 	0.57597 0.95582 0.96644 -0.50600
C 	C 	0.59438 0.92477 0.80235 0.32400
O 	O 	0.58562 0.90130 0.83562 -0.46300
O 	O 	0.61103 0.94706 0.82436 -0.49900
C 	C 	0.58224 0.93504 0.00708 0.31900
O 	O 	0.55778 0.86398 0.93222 -0.32900
Zn	Zn	0.60256 0.96394 0.90114 1.17200
O 	O 	0.64335 0.90283 0.89927 -0.43500
C 	C 	0.57558 0.84006 0.93611 0.26900
O 	O 	0.60343 0.84628 0.92856 -0.37000
Zn	Zn	0.11752 0.59237 0.06590 1.22000
C 	C 	0.07657 0.64238 0.03805 0.30900
O 	O 	0.10622 0.57823 0.14539 -0.46200
O 	O 	0.05921 0.62043 0.01630 -0.44200
O 	O 	0.05833 0.59442 0.13769 -0.50300
C 	C 	0.09202 0.55973 0.96829 0.33800
O 	O 	0.10943 0.58312 0.98312 -0.45100
O 	O 	0.07230 0.54940 0.00586 -0.52300
C 	C 	0.08061 0.58484 0.16996 0.32500
O 	O 	0.15328 0.55188 0.06332 -0.33800
Zn	Zn	0.05263 0.57812 0.05945 1.16900
O 	O 	0.10025 0.63463 0.06849 -0.43400
C 	C 	0.17244 0.57423 0.07148 0.26600
O 	O 	0.16152 0.60231 0.07536 -0.36900
C 	C 	0.03005 0.48222 0.60845 0.00800
C 	C 	0.00536 0.46141 0.60675 0.00900
C 	C 	0.03339 0.50530 0.56466 -0.05600
C 	C 	0.01180 0.50865 0.52064 0.00800
C 	C 	0.98480 0.46349 0.56049 -0.05600
C 	C 	0.98751 0.48737 0.51814 0.00900
H 	H 	0.96636 0.44719 0.55839 0.04900
H 	H 	0.05221 0.52111 0.56576 0.04800
C 	C 	0.96535 0.49209 0.47524 -0.01400
C 	C 	0.96736 0.51658 0.43393 0.00400
C 	C 	0.95061 0.51071 0.38210 -0.05600
C 	C 	0.93623 0.48160 0.38301 -0.00200
S 	S 	0.94461 0.46356 0.44591 -0.01300
H 	H 	0.95054 0.52597 0.34415 0.03700
C 	C 	0.01267 0.53412 0.48089 -0.01400
C 	C 	0.99109 0.53792 0.43714 0.00500
C 	C 	0.00102 0.55677 0.38924 -0.05700
C 	C 	0.03043 0.56679 0.39518 -0.00300
S 	S 	0.04353 0.55193 0.45786 -0.01500
H 	H 	0.98860 0.55992 0.34906 0.03700
C 	C 	0.04470 0.46004 0.70366 0.00500
C 	C 	0.05035 0.47983 0.65549 -0.01300
S 	S 	0.07171 0.50927 0.67928 -0.01700
C 	C 	0.07540 0.49781 0.74886 -0.00000
C 	C 	0.05908 0.47010 0.75614 -0.05500
C 	C 	0.00163 0.43941 0.65274 -0.01400
C 	C 	0.02005 0.43982 0.70240 0.00600
C 	C 	0.00623 0.42707 0.75351 -0.05500
C 	C 	0.97710 0.41696 0.74376 -0.00200
S 	S 	0.96902 0.42463 0.67370 -0.01300
H 	H 	0.01531 0.42933 0.79719 0.04100
H 	H 	0.05487 0.45997 0.79889 0.04200
Zn	Zn	0.88906 0.39952 0.05631 1.21900
C 	C 	0.83376 0.43236 0.04546 0.30200
O 	O 	0.88813 0.40872 0.97196 -0.44900
O 	O 	0.84889 0.45420 0.01743 -0.45600
O 	O 	0.91402 0.45408 0.98181 -0.51300
C 	C 	0.89725 0.43938 0.15783 0.32500
O 	O 	0.90744 0.41502 0.12857 -0.47200
O 	O 	0.88370 0.46219 0.12989 -0.50700
C 	C 	0.90552 0.43025 0.94948 0.33000
O 	O 	0.93276 0.37003 0.04110 -0.33200
Zn	Zn	0.88984 0.46929 0.04679 1.16600
O 	O 	0.84776 0.41014 0.07456 -0.43000
C 	C 	0.91577 0.34559 0.04708 0.26700
O 	O 	0.88808 0.35156 0.05742 -0.37000
C 	C 	0.98266 0.92494 0.97184 0.10700
N 	N 	0.96911 0.95122 0.95281 -0.17400
C 	C 	0.94283 0.95253 0.98085 0.10800
C 	C 	0.91882 0.97460 0.96410 -0.07900
C 	C 	0.92629 0.00647 0.94210 0.09000
C 	C 	0.88749 0.96493 0.96932 0.05100
C 	C 	0.87233 0.95362 0.91997 -0.06100
C 	C 	0.84173 0.94852 0.92259 -0.02400
C 	C 	0.82609 0.95467 0.97466 0.00300
C 	C 	0.87215 0.96978 0.02208 -0.06600
N 	N 	0.95344 0.01924 0.94829 -0.12900
C 	C 	0.90576 0.02890 0.92497 -0.06200
C 	C 	0.95040 0.04974 0.93347 0.09000
C 	C 	0.97367 0.07348 0.94544 -0.07500
C 	C 	0.96519 0.10597 0.96113 0.04800
C 	C 	0.94281 0.14266 0.02962 -0.03700
C 	C 	0.96965 0.13054 0.92101 -0.05900
C 	C 	0.96039 0.16106 0.93484 -0.02700
C 	C 	0.94660 0.16719 0.98893 0.01100
N 	N 	0.01542 0.03686 0.92288 -0.17300
C 	C 	0.04441 0.03532 0.93645 0.10100
C 	C 	0.05295 0.06134 0.96890 -0.06200
C 	C 	0.02780 0.07970 0.97510 -0.06100
C 	C 	0.06471 0.01120 0.91231 -0.07500
C 	C 	0.09644 0.01853 0.90295 0.04500
C 	C 	0.14828 0.00786 0.92342 -0.02500
C 	C 	0.15668 0.03215 0.88510 -0.00500
C 	C 	0.13483 0.04976 0.85606 -0.02200
C 	C 	0.10481 0.04285 0.86468 -0.06000
N 	N 	0.03525 0.96454 0.94248 -0.12700
C 	C 	0.05038 0.92962 0.87417 -0.06200
C 	C 	0.03312 0.93457 0.92356 0.08900
C 	C 	0.01028 0.91244 0.94521 -0.07700
C 	C 	0.01696 0.87833 0.94758 0.04600
C 	C 	0.04335 0.86779 0.97361 -0.05800
C 	C 	0.04957 0.83566 0.97669 -0.02000
C 	C 	0.02929 0.81362 0.95447 -0.00600
C 	C 	0.00286 0.82417 0.92828 -0.02600
C 	C 	0.99695 0.85640 0.92410 -0.06000
C 	C 	0.96511 0.90931 0.01245 -0.07000
C 	C 	0.93949 0.92696 0.01807 -0.07000
C 	C 	0.84160 0.96444 0.02492 -0.03400
C 	C 	0.92125 0.05668 0.91943 -0.06100
C 	C 	0.00538 0.06414 0.94541 0.09900
C 	C 	0.06408 0.95791 0.86248 -0.06200
C 	C 	0.05401 0.97864 0.90468 0.08800
C 	C 	0.11830 0.00112 0.93236 -0.05700
H 	H 	0.97371 0.96230 0.91284 0.09600
H 	H 	0.00521 0.02419 0.88918 0.09400
H 	H 	0.07007 0.82786 0.99676 0.04600
H 	H 	0.98671 0.80744 0.91204 0.03600
H 	H 	0.05894 0.88451 0.99193 0.05000
H 	H 	0.97663 0.86431 0.90350 0.04600
H 	H 	0.83005 0.94076 0.88365 0.04400
H 	H 	0.88379 0.97835 0.06048 0.04700
H 	H 	0.82989 0.96849 0.06578 0.03700
H 	H 	0.88409 0.94974 0.87911 0.04700
H 	H 	0.96358 0.17982 0.90324 0.04500
H 	H 	0.97996 0.12593 0.87890 0.04600
C 	C 	0.95196 0.11216 0.01562 -0.06200
H 	H 	0.93279 0.14723 0.07202 0.04000
H 	H 	0.16498 0.99443 0.94669 0.03900
H 	H 	0.11204 0.98249 0.96240 0.05000
H 	H 	0.08808 0.05638 0.84172 0.04600
H 	H 	0.14111 0.06864 0.82661 0.04200
H 	H 	0.96722 0.88478 0.02450 0.04900
H 	H 	0.91854 0.91804 0.03427 0.04900
H 	H 	0.88205 0.02730 0.93189 0.05000
H 	H 	0.91136 0.07987 0.92110 0.05000
H 	H 	0.07550 0.06946 0.97491 0.05200
H 	H 	0.02751 0.10418 0.98813 0.05100
H 	H 	0.04704 0.91100 0.84245 0.04800
H 	H 	0.07405 0.96447 0.82100 0.04700
H 	H 	0.94864 0.09331 0.04698 0.04800
C 	C 	0.91682 0.25897 0.02883 0.09000
C 	C 	0.94571 0.25390 0.00769 0.08100
N 	N 	0.95489 0.22422 0.99519 -0.10900
C 	C 	0.93633 0.19928 0.00299 0.03300
C 	C 	0.90729 0.20447 0.02347 0.00400
N 	N 	0.89818 0.23420 0.03615 -0.10800
N 	N 	0.90768 0.28863 0.04155 -0.09300
N 	N 	0.96426 0.27870 0.99981 -0.10900
H 	H 	0.89205 0.18499 0.02880 0.03500
C 	C 	0.92626 0.31356 0.03398 -0.02000
C 	C 	0.95513 0.30844 0.01243 0.02800
H 	H 	0.97013 0.32798 0.00544 0.03600
C 	C 	0.91926 0.42501 0.89164 -0.11300
C 	C 	0.91952 0.44887 0.84825 0.07700
C 	C 	0.93783 0.44538 0.79881 -0.08600
C 	C 	0.95449 0.41784 0.79055 0.01200
C 	C 	0.95129 0.39252 0.83036 0.00400
C 	C 	0.93400 0.39653 0.88106 -0.00300
H 	H 	0.93932 0.46429 0.76696 0.05000
H 	H 	0.93270 0.37771 0.91312 0.04400
C 	C 	0.89843 0.47669 0.85112 -0.11800
C 	C 	0.96634 0.36116 0.81979 -0.09500
C 	C 	0.86987 0.47070 0.81610 -0.01400
H 	H 	0.87535 0.46282 0.77083 0.03000
H 	H 	0.85751 0.49324 0.81234 0.02300
C 	C 	0.99471 0.35818 0.85656 -0.02200
H 	H 	0.98942 0.36140 0.90388 0.03500
H 	H 	0.01082 0.37665 0.84340 0.03200
H 	H 	0.89273 0.48349 0.89673 0.04000
H 	H 	0.97155 0.35769 0.77252 0.05200
C 	C 	0.84961 0.44647 0.84536 -0.16600
C 	C 	0.00917 0.32600 0.84854 -0.16100
H 	H 	0.84472 0.45335 0.89139 0.07100
H 	H 	0.82835 0.44511 0.82093 0.06300
H 	H 	0.86003 0.42281 0.84478 0.07600
H 	H 	0.90965 0.49765 0.83209 0.04300
H 	H 	0.99384 0.30707 0.86310 0.06700
H 	H 	0.02967 0.32470 0.87540 0.06200
H 	H 	0.01517 0.32223 0.80175 0.06100
H 	H 	0.95074 0.34196 0.83207 0.05200
C 	C 	0.92611 0.46509 0.32975 0.01100
C 	C 	0.94644 0.45157 0.28930 0.00300
C 	C 	0.93585 0.44031 0.23524 -0.00700
C 	C 	0.90599 0.44394 0.21969 -0.11900
C 	C 	0.88535 0.45452 0.26221 0.08100
C 	C 	0.89573 0.46506 0.31690 -0.08900
H 	H 	0.95109 0.42952 0.20444 0.03500
H 	H 	0.88013 0.47393 0.34918 0.05100
C 	C 	0.97904 0.44695 0.30444 -0.09700
C 	C 	0.85218 0.45243 0.25160 -0.12600
C 	C 	0.00012 0.46353 0.26115 -0.02200
H 	H 	0.99588 0.45580 0.21537 0.02300
H 	H 	0.02322 0.45656 0.27198 0.02600
C 	C 	0.84140 0.41820 0.25392 -0.00900
H 	H 	0.84797 0.40734 0.29641 0.03100
H 	H 	0.85171 0.40445 0.21778 0.03900
H 	H 	0.98471 0.45456 0.34956 0.05400
H 	H 	0.84620 0.46317 0.20884 0.06700
C 	C 	0.99791 0.49930 0.26447 -0.15800
C 	C 	0.80772 0.41624 0.24783 -0.16700
H 	H 	0.00469 0.50738 0.30870 0.06200
H 	H 	0.01296 0.51008 0.23166 0.04800
H 	H 	0.97500 0.50728 0.25472 0.05200
H 	H 	0.98382 0.42131 0.30303 0.04900
H 	H 	0.79675 0.42788 0.28572 0.06200
H 	H 	0.80075 0.39119 0.24672 0.07000
H 	H 	0.80041 0.42779 0.20659 0.07700
H 	H 	0.84006 0.46630 0.28540 0.05200
C 	C 	0.05350 0.73801 0.02031 0.08600
C 	C 	0.04842 0.71679 0.97415 0.09100
N 	N 	0.05578 0.68598 0.98076 -0.09100
C 	C 	0.06854 0.67566 0.03143 -0.04300
C 	C 	0.07368 0.69698 0.07744 0.04400
N 	N 	0.06596 0.72770 0.07101 -0.11600
N 	N 	0.04657 0.76885 0.01345 -0.12100
N 	N 	0.03690 0.72736 0.92271 -0.10900
H 	H 	0.08344 0.68907 0.11828 0.03700
C 	C 	0.03506 0.77960 0.96195 0.05300
C 	C 	0.03029 0.75837 0.91550 -0.00200
H 	H 	0.02193 0.76659 0.87368 0.03600
C 	C 	0.08086 0.51998 0.79739 0.01400
C 	C 	0.05734 0.53688 0.82425 -0.00100
C 	C 	0.06221 0.55161 0.87853 0.00400
C 	C 	0.08989 0.54982 0.90635 -0.11900
C 	C 	0.11401 0.53534 0.87702 0.08700
C 	C 	0.10920 0.52074 0.82250 -0.09000
H 	H 	0.04400 0.56352 0.90031 0.01700
H 	H 	0.12725 0.50828 0.80128 0.05300
C 	C 	0.02675 0.53922 0.79642 -0.09300
C 	C 	0.14433 0.53274 0.90519 -0.13100
C 	C 	0.01987 0.57266 0.77453 -0.02200
H 	H 	0.02415 0.59018 0.80972 0.03100
H 	H 	0.99589 0.57405 0.76352 0.02500
C 	C 	0.14644 0.50319 0.94374 -0.00600
H 	H 	0.13834 0.48231 0.91912 0.02800
H 	H 	0.13232 0.50614 0.98337 0.03800
H 	H 	0.02312 0.52234 0.76013 0.05200
H 	H 	0.14968 0.55399 0.93138 0.07500
C 	C 	0.03769 0.58150 0.71991 -0.15800
C 	C 	0.17836 0.49697 0.96291 -0.16600
H 	H 	0.03186 0.56572 0.68283 0.06200
H 	H 	0.03232 0.60603 0.70695 0.05900
H 	H 	0.06187 0.58004 0.72874 0.06700
H 	H 	0.01000 0.53290 0.83029 0.03900
H 	H 	0.19209 0.49015 0.92445 0.06400
H 	H 	0.17879 0.47748 0.99537 0.06700
H 	H 	0.18809 0.51827 0.98336 0.07700
H 	H 	0.16152 0.53162 0.87014 0.05800
C 	C 	0.07680 0.58230 0.23412 -0.11600
C 	C 	0.07942 0.55292 0.26327 0.08100
C 	C 	0.06482 0.54846 0.31716 -0.09000
C 	C 	0.04944 0.57329 0.34393 0.01300
C 	C 	0.05015 0.60356 0.31843 -0.00200
C 	C 	0.06420 0.60786 0.26400 -0.00000
H 	H 	0.06519 0.52550 0.33795 0.05200
H 	H 	0.06384 0.63083 0.24324 0.03700
C 	C 	0.09939 0.52693 0.24018 -0.12900
C 	C 	0.03675 0.63164 0.34969 -0.09100
C 	C 	0.08205 0.49968 0.21225 -0.01500
H 	H 	0.06466 0.49123 0.24295 0.02500
H 	H 	0.09759 0.47978 0.20479 0.02700
C 	C 	0.05790 0.64405 0.39706 -0.02600
H 	H 	0.07918 0.65135 0.37644 0.03500
H 	H 	0.06269 0.62523 0.42960 0.03600
H 	H 	0.11665 0.53562 0.20964 0.07600
H 	H 	0.01504 0.62528 0.36958 0.04700
C 	C 	0.06798 0.50838 0.15345 -0.15100
C 	C 	0.04461 0.67219 0.42933 -0.15700
H 	H 	0.08513 0.51692 0.12224 0.03700
H 	H 	0.05723 0.48726 0.13427 0.04300
H 	H 	0.05073 0.52671 0.15944 0.01900
H 	H 	0.11211 0.51717 0.27785 0.05600
H 	H 	0.04016 0.69172 0.39813 0.05800
H 	H 	0.06046 0.68061 0.46313 0.05800
H 	H 	0.02360 0.66535 0.45146 0.05800
H 	H 	0.03207 0.65077 0.31765 0.04500
C 	C 	0.74974 0.92563 0.94779 0.09300
C 	C 	0.73261 0.95104 0.96784 0.08400
N 	N 	0.70272 0.95057 0.96099 -0.09600
C 	C 	0.68911 0.92571 0.93468 -0.03800
C 	C 	0.70626 0.90001 0.91553 0.04300
N 	N 	0.73623 0.90054 0.92240 -0.11500
N 	N 	0.77976 0.92681 0.95196 -0.11600
N 	N 	0.74614 0.97647 0.99189 -0.11100
H 	H 	0.69587 0.87992 0.89485 0.04300
C 	C 	0.79344 0.95244 0.97552 0.04400
C 	C 	0.77619 0.97772 0.99605 0.00800
H 	H 	0.78670 0.99855 0.01380 0.02900
C 	C 	0.56564 0.95644 0.63656 0.01100
C 	C 	0.59610 0.95043 0.64581 0.00100
C 	C 	0.60507 0.93549 0.69786 -0.00200
C 	C 	0.58419 0.92733 0.74099 -0.11800
C 	C 	0.55352 0.92892 0.72726 0.08000
C 	C 	0.54464 0.94301 0.67442 -0.09000
H 	H 	0.62852 0.93234 0.70667 0.03800
H 	H 	0.52120 0.94597 0.66521 0.04800
C 	C 	0.61934 0.95963 0.60071 -0.09400
C 	C 	0.52991 0.91790 0.77003 -0.13800
C 	C 	0.63100 0.93096 0.56669 -0.02300
H 	H 	0.63840 0.91234 0.59768 0.03300
H 	H 	0.65067 0.93831 0.54062 0.02800
C 	C 	0.52165 0.94403 0.81364 0.00600
H 	H 	0.51219 0.96439 0.78933 0.01300
H 	H 	0.54163 0.95226 0.83764 -0.01500
H 	H 	0.61129 0.97765 0.56926 0.05000
H 	H 	0.53701 0.89626 0.79329 0.07600
C 	C 	0.60792 0.91733 0.52471 -0.15700
C 	C 	0.49888 0.93257 0.85844 -0.17400
H 	H 	0.60112 0.93531 0.49199 0.06100
H 	H 	0.61765 0.89704 0.50085 0.05900
H 	H 	0.58812 0.90897 0.54920 0.06500
H 	H 	0.63833 0.97071 0.62397 0.04500
H 	H 	0.47828 0.92482 0.83595 0.05800
H 	H 	0.49324 0.95204 0.88896 0.05200
H 	H 	0.50806 0.91271 0.88444 0.06600
H 	H 	0.50965 0.91102 0.74528 0.05500
C 	C 	0.57132 0.93979 0.06711 -0.11400
C 	C 	0.58665 0.95960 0.10676 0.07600
C 	C 	0.57240 0.96955 0.15828 -0.08700
C 	C 	0.54310 0.96053 0.17004 0.01200
C 	C 	0.52902 0.93820 0.13360 0.00100
C 	C 	0.54328 0.92806 0.08218 -0.00400
H 	H 	0.58357 0.98573 0.18768 0.05100
H 	H 	0.53190 0.91223 0.05243 0.03200
C 	C 	0.61823 0.97033 0.09498 -0.12200
C 	C 	0.49818 0.92617 0.14760 -0.09400
C 	C 	0.64102 0.95096 0.12972 -0.00700
H 	H 	0.63476 0.95009 0.17693 0.02800
H 	H 	0.66292 0.96287 0.12666 0.02900
C 	C 	0.47440 0.94587 0.11637 -0.02500
H 	H 	0.47716 0.94369 0.06802 0.02400
H 	H 	0.47673 0.97108 0.12826 0.02800
H 	H 	0.62394 0.97007 0.04764 0.05400
H 	H 	0.49426 0.92627 0.19581 0.05000
C 	C 	0.64440 0.91748 0.10630 -0.16700
C 	C 	0.44322 0.93508 0.13305 -0.15700
H 	H 	0.65095 0.91789 0.05930 0.07900
H 	H 	0.66197 0.90510 0.13144 0.06400
H 	H 	0.62337 0.90418 0.11147 0.07800
H 	H 	0.62037 0.99535 0.10855 0.04700
H 	H 	0.44003 0.90993 0.12142 0.05500
H 	H 	0.42660 0.94932 0.10884 0.04700
H 	H 	0.43949 0.93825 0.18090 0.05400
H 	H 	0.49626 0.90123 0.13331 0.04800
C 	C 	0.22809 0.07512 0.89003 0.09400
C 	C 	0.24808 0.05174 0.87174 0.08400
N 	N 	0.27769 0.05740 0.87351 -0.09600
C 	C 	0.28827 0.08550 0.89311 -0.03600
C 	C 	0.26817 0.10919 0.90984 0.04400
N 	N 	0.23850 0.10347 0.90809 -0.11500
N 	N 	0.19860 0.06871 0.89217 -0.11600
N 	N 	0.23774 0.02312 0.85507 -0.10900
H 	H 	0.27610 0.13185 0.92476 0.04100
C 	C 	0.18826 0.03975 0.87694 0.04800
C 	C 	0.20821 0.01668 0.85715 -0.00100
H 	H 	0.20028 0.99363 0.84438 0.03700
C 	C 	0.41018 0.09459 0.76683 -0.11800
C 	C 	0.42537 0.12010 0.73992 0.08500
C 	C 	0.44229 0.11463 0.68918 -0.09000
C 	C 	0.44477 0.08439 0.66557 0.01400
C 	C 	0.42737 0.05959 0.68898 -0.00000
C 	C 	0.40979 0.06520 0.73877 0.00100
H 	H 	0.45463 0.13384 0.66945 0.05300
H 	H 	0.39702 0.04608 0.75767 0.02200
C 	C 	0.42387 0.15332 0.76405 -0.13000
C 	C 	0.42806 0.02674 0.66289 -0.09600
C 	C 	0.40293 0.17442 0.72819 -0.00400
H 	H 	0.40813 0.17256 0.68059 0.02800
H 	H 	0.40665 0.19928 0.74131 0.02900
C 	C 	0.44620 0.00413 0.70156 -0.02000
H 	H 	0.43325 0.99821 0.74162 0.02100
H 	H 	0.46720 0.01532 0.71596 0.02700
H 	H 	0.41783 0.15412 0.81088 0.07500
H 	H 	0.43672 0.02682 0.61727 0.05300
C 	C 	0.37024 0.16657 0.73812 -0.16500
C 	C 	0.45374 0.97374 0.66915 -0.16100
H 	H 	0.36420 0.17023 0.78490 0.07300
H 	H 	0.35630 0.18237 0.71082 0.06300
H 	H 	0.36546 0.14189 0.72532 0.07700
H 	H 	0.44647 0.16376 0.76199 0.05800
H 	H 	0.43316 0.96184 0.65418 0.05700
H 	H 	0.46588 0.95764 0.69911 0.05300
H 	H 	0.46810 0.97882 0.63062 0.06100
H 	H 	0.40496 0.01773 0.65968 0.04600
C 	C 	0.38412 0.08680 0.09305 -0.12100
C 	C 	0.38947 0.11275 0.13079 0.08700
C 	C 	0.40704 0.10821 0.18112 -0.09100
C 	C 	0.41895 0.07858 0.19368 0.01400
C 	C 	0.40810 0.05191 0.16340 -0.00500
C 	C 	0.39100 0.05632 0.11266 -0.00600
H 	H 	0.41246 0.12795 0.20915 0.05300
H 	H 	0.38422 0.03609 0.08702 0.02000
C 	C 	0.37311 0.14378 0.12269 -0.12500
C 	C 	0.41237 0.01893 0.18755 -0.09100
C 	C 	0.39324 0.17307 0.12545 -0.00600
H 	H 	0.40133 0.17680 0.17095 0.02600
H 	H 	0.37970 0.19403 0.11380 0.03000
C 	C 	0.39184 0.01298 0.24013 -0.02600
H 	H 	0.36833 0.01533 0.22609 0.03300
H 	H 	0.39616 0.03058 0.27514 0.03600
H 	H 	0.36026 0.14455 0.08121 0.06500
H 	H 	0.43572 0.01474 0.20048 0.04800
C 	C 	0.41974 0.17156 0.08370 -0.16800
C 	C 	0.39655 0.98014 0.26564 -0.15700
H 	H 	0.41219 0.16705 0.03830 0.08300
H 	H 	0.43170 0.19439 0.08441 0.07000
H 	H 	0.43544 0.15280 0.09725 0.07000
H 	H 	0.35639 0.14573 0.15837 0.05500
H 	H 	0.39148 0.96192 0.23217 0.05400
H 	H 	0.38157 0.97666 0.30380 0.05700
H 	H 	0.41985 0.97730 0.28068 0.05800
H 	H 	0.40746 0.00126 0.15291 0.03700
C 	C 	0.41808 0.27554 0.98411 0.09800
C 	C 	0.43938 0.25175 0.97687 0.08200
N 	N 	0.43105 0.22318 0.95601 -0.09600
C 	C 	0.40215 0.21727 0.94253 -0.02600
C 	C 	0.38097 0.24131 0.94878 0.03700
N 	N 	0.38937 0.26995 0.96949 -0.11500
N 	N 	0.42616 0.30367 0.00725 -0.12100
N 	N 	0.46796 0.25710 0.99276 -0.10500
H 	H 	0.35795 0.23712 0.93782 0.04100
C 	C 	0.45477 0.30907 0.02354 0.04700
C 	C 	0.47609 0.28527 0.01600 -0.00800
H 	H 	0.49884 0.28901 0.02951 0.03700
C 	C 	0.25334 0.58602 0.09034 0.08600
C 	C 	0.26291 0.55531 0.10292 0.09200
N 	N 	0.29209 0.54966 0.11297 -0.11700
C 	C 	0.31224 0.57349 0.11092 0.04900
C 	C 	0.30262 0.60426 0.09864 -0.00100
N 	N 	0.27335 0.60989 0.08850 -0.10600
N 	N 	0.22411 0.59166 0.08032 -0.09200
N 	N 	0.24292 0.53148 0.10522 -0.11600
H 	H 	0.31829 0.62355 0.09765 0.03800
C 	C 	0.20401 0.56774 0.08223 -0.02400
C 	C 	0.21367 0.53706 0.09531 0.03300
H 	H 	0.19797 0.51784 0.09788 0.03500
C 	C 	0.74071 0.44073 0.05601 0.09200
C 	C 	0.75623 0.42104 0.09488 0.08200
N 	N 	0.78605 0.41774 0.08932 -0.09500
C 	C 	0.80116 0.43372 0.04695 -0.03800
C 	C 	0.78547 0.45276 0.00711 0.03100
N 	N 	0.75557 0.45589 0.01252 -0.11800
N 	N 	0.71124 0.44571 0.06396 -0.11800
N 	N 	0.74154 0.40671 0.13958 -0.11000
H 	H 	0.79701 0.46517 0.97242 0.03600
C 	C 	0.69661 0.43197 0.10959 0.04800
C 	C 	0.71202 0.41176 0.14770 -0.00300
H 	H 	0.70066 0.40055 0.18401 0.03600
C 	C 	0.54734 0.75233 0.00244 0.08100
C 	C 	0.57718 0.75741 0.98738 0.09600
N 	N 	0.58567 0.78562 0.96506 -0.09200
C 	C 	0.56554 0.80910 0.95708 -0.01900
C 	C 	0.53557 0.80380 0.97127 0.03600
N 	N 	0.52710 0.77553 0.99377 -0.11000
N 	N 	0.53903 0.72448 0.02664 -0.11600
N 	N 	0.59746 0.73432 0.99636 -0.10300
H 	H 	0.51920 0.82213 0.96501 0.03900
C 	C 	0.55943 0.70145 0.03657 0.04800
C 	C 	0.58918 0.70640 0.02045 -0.00600
H 	H 	0.60556 0.68811 0.02705 0.03800
