data_crystal

_cell_length_a 36.23044
_cell_length_b 37.64460
_cell_length_c 19.38020
_cell_angle_alpha 94.24758
_cell_angle_beta  93.73295
_cell_angle_gamma 90.07339

_symmetry_space_group_name_	'P 1'
_symmetry_space_group_name_H-M	'P 1'

loop_
_symmetry_equiv_pos_as_xyz
  x,y,z

loop_
_atom_site_label
_atom_site_type_symbol
_atom_site_fract_x
_atom_site_fract_y
_atom_site_fract_z
_atom_site_charge
C 	C 	0.17164 0.63313 0.98917 0.08100
N 	N 	0.17084 0.63806 0.92024 -0.14000
C 	C 	0.14766 0.61827 0.87477 0.12500
N 	N 	0.12465 0.59420 0.89835 -0.14300
C 	C 	0.12500 0.58938 0.96704 0.12100
N 	N 	0.14836 0.60900 0.01266 -0.12900
C 	C 	0.06576 0.63128 0.26008 0.09600
N 	N 	0.08727 0.63123 0.32016 -0.13900
C 	C 	0.07802 0.61046 0.37088 0.12600
N 	N 	0.04718 0.58961 0.36120 -0.14400
C 	C 	0.02610 0.58905 0.30058 0.13200
N 	N 	0.03547 0.60981 0.25011 -0.14200
Cd	Cd	0.91694 0.89771 0.90654 1.16500
C 	C 	0.84046 0.91880 0.81723 0.31000
O 	O 	0.82325 0.90949 0.75717 -0.29100
O 	O 	0.86165 0.89477 0.84296 -0.54600
O 	O 	0.74966 0.97802 0.46172 -0.46700
C 	C 	0.73195 0.00599 0.48511 0.30600
O 	O 	0.73746 0.01485 0.55141 -0.36500
Cd	Cd	0.76789 0.13458 0.18062 1.23900
Cd	Cd	0.81964 0.12168 0.34529 1.17500
O 	O 	0.71667 0.17665 0.19410 -0.31800
O 	O 	0.73533 0.15913 0.09147 -0.35000
C 	C 	0.71351 0.17969 0.12750 0.24500
O 	O 	0.81739 0.10125 0.15104 -0.36200
O 	O 	0.85452 0.11058 0.25341 -0.45300
C 	C 	0.84422 0.09074 0.19567 0.29000
C 	C 	0.81638 0.18738 0.24989 0.30200
O 	O 	0.77818 0.08924 0.27282 -0.49100
O 	O 	0.81141 0.19116 0.18328 -0.30000
O 	O 	0.79721 0.16202 0.27291 -0.53100
C 	C 	0.74348 0.08134 0.26431 0.30400
O 	O 	0.72736 0.08921 0.20530 -0.35900
Cd	Cd	0.90769 0.11537 0.97124 1.23600
Cd	Cd	0.91674 0.04865 0.82755 1.17400
O 	O 	0.86040 0.16071 0.94719 -0.32600
O 	O 	0.88803 0.15717 0.05115 -0.36200
C 	C 	0.86400 0.17329 0.01171 0.25400
O 	O 	0.94535 0.07416 0.01593 -0.37100
O 	O 	0.93474 0.02750 0.93136 -0.41900
C 	C 	0.95624 0.04420 0.98208 0.27700
C 	C 	0.85361 0.06143 0.93199 0.30200
O 	O 	0.95098 0.09599 0.87464 -0.48900
O 	O 	0.85218 0.07307 0.99720 -0.30000
O 	O 	0.87719 0.07757 0.89714 -0.53700
C 	C 	0.95636 0.12931 0.86720 0.30300
O 	O 	0.95093 0.15047 0.92193 -0.37000
C 	C 	0.85083 0.40677 0.94730 0.09800
N 	N 	0.88067 0.42732 0.96999 -0.14100
C 	C 	0.89253 0.45291 0.93060 0.12700
N 	N 	0.87213 0.46048 0.87226 -0.14400
C 	C 	0.84058 0.44193 0.85235 0.12600
N 	N 	0.83034 0.41470 0.88929 -0.13800
C 	C 	0.74683 0.40370 0.25758 0.09800
N 	N 	0.77665 0.42090 0.23648 -0.13800
C 	C 	0.79445 0.44649 0.27933 0.12800
N 	N 	0.78275 0.45447 0.34366 -0.14300
C 	C 	0.75340 0.43704 0.36558 0.12700
N 	N 	0.73515 0.41200 0.32207 -0.13900
Cd	Cd	0.09974 0.05174 0.62210 1.23700
Cd	Cd	0.08513 0.06070 0.80320 1.16700
O 	O 	0.15341 0.08263 0.58244 -0.32000
O 	O 	0.11886 0.04596 0.51184 -0.36800
C 	C 	0.14704 0.06767 0.52027 0.25000
O 	O 	0.05428 0.01221 0.63463 -0.40400
O 	O 	0.03596 0.04236 0.73302 -0.43400
C 	C 	0.03632 0.01288 0.69207 0.27700
C 	C 	0.14244 0.00993 0.71369 0.31500
O 	O 	0.08964 0.10171 0.72068 -0.46000
O 	O 	0.14736 0.99964 0.64907 -0.31400
O 	O 	0.12483 0.03966 0.72321 -0.54400
C 	C 	0.06221 0.11352 0.68210 0.30100
O 	O 	0.05764 0.09813 0.61937 -0.36500
Cd	Cd	0.02214 0.16503 0.43339 1.24200
O 	O 	0.05865 0.21465 0.39710 -0.31900
O 	O 	0.06237 0.20021 0.50499 -0.34600
C 	C 	0.07395 0.22068 0.45937 0.24600
O 	O 	0.98796 0.13012 0.49380 -0.38300
C 	C 	0.96394 0.10660 0.46297 0.28400
C 	C 	0.95429 0.19810 0.39499 0.30500
O 	O 	0.96930 0.21412 0.45215 -0.30100
O 	O 	0.97437 0.17432 0.36404 -0.55100
C 	C 	0.35674 0.07434 0.62732 0.09400
N 	N 	0.34551 0.09622 0.68095 -0.13800
C 	C 	0.36168 0.09409 0.74583 0.12600
N 	N 	0.38952 0.07067 0.75654 -0.14300
C 	C 	0.40052 0.04860 0.70333 0.12600
N 	N 	0.38370 0.05011 0.63901 -0.14200
C 	C 	0.30004 0.19081 0.33417 0.09800
N 	N 	0.32010 0.16588 0.36718 -0.13900
C 	C 	0.34437 0.14505 0.33244 0.12700
N 	N 	0.34800 0.14863 0.26399 -0.14300
C 	C 	0.32835 0.17374 0.23076 0.12700
N 	N 	0.30436 0.19481 0.26598 -0.13800
C 	C 	0.34565 0.11310 0.80597 -0.04900
C 	C 	0.32794 0.09396 0.85476 0.09900
C 	C 	0.32212 0.11052 0.92041 -0.08300
C 	C 	0.33210 0.14629 0.93697 -0.01500
C 	C 	0.34604 0.16651 0.88548 0.07000
C 	C 	0.35322 0.14952 0.82062 -0.05500
N 	N 	0.31650 0.05972 0.83883 -0.19900
H 	H 	0.31035 0.09536 0.95916 0.05200
C 	C 	0.33090 0.16121 0.00996 0.00600
N 	N 	0.35243 0.20210 0.89781 -0.19500
H 	H 	0.36581 0.16442 0.78241 0.04600
C 	C 	0.36412 0.16575 0.05115 -0.08900
C 	C 	0.36378 0.17394 0.12303 0.10300
C 	C 	0.32964 0.17502 0.15476 -0.05100
C 	C 	0.29643 0.17303 0.11300 -0.05100
C 	C 	0.29678 0.16692 0.04060 0.06600
H 	H 	0.39029 0.16262 0.02729 0.05900
N 	N 	0.39611 0.18160 0.16088 -0.19900
H 	H 	0.27022 0.17518 0.13697 0.04900
N 	N 	0.26440 0.16663 0.00090 -0.18900
H 	H 	0.42135 0.17911 0.13777 0.08600
H 	H 	0.39638 0.19203 0.21237 0.09200
H 	H 	0.23921 0.16964 0.02402 0.08000
H 	H 	0.26399 0.16477 0.94683 0.07900
H 	H 	0.36379 0.21662 0.86035 0.08100
H 	H 	0.34502 0.21589 0.94354 0.08400
H 	H 	0.31786 0.04759 0.78883 0.09300
H 	H 	0.30471 0.04530 0.87596 0.08500
C 	C 	0.21254 0.22542 0.37216 0.07500
C 	C 	0.18388 0.25026 0.36868 -0.08300
C 	C 	0.16170 0.25499 0.42567 0.01300
C 	C 	0.16927 0.23653 0.48499 0.07600
C 	C 	0.20095 0.21514 0.49086 -0.08800
C 	C 	0.22110 0.20882 0.43212 0.02000
N 	N 	0.24196 0.22533 0.33325 -0.16300
C 	C 	0.26980 0.20934 0.36913 0.05300
C 	C 	0.25771 0.19898 0.43146 -0.07200
N 	N 	0.13744 0.22803 0.51236 -0.15300
C 	C 	0.10947 0.24007 0.47076 0.01300
C 	C 	0.12370 0.25803 0.41796 -0.04900
H 	H 	0.17751 0.26369 0.32186 0.05300
H 	H 	0.20749 0.20130 0.53713 0.05300
H 	H 	0.27566 0.19496 0.47707 0.05000
H 	H 	0.10871 0.26144 0.36865 0.05600
H 	H 	0.24526 0.24146 0.29242 0.08700
H 	H 	0.13480 0.20653 0.54299 0.09300
C 	C 	0.22995 0.05339 0.44193 0.07900
C 	C 	0.26272 0.03493 0.45800 -0.08600
C 	C 	0.29515 0.05473 0.47661 0.02200
C 	C 	0.29411 0.09173 0.48630 0.07700
C 	C 	0.26094 0.10998 0.47413 -0.07800
C 	C 	0.22957 0.09049 0.44716 0.01400
N 	N 	0.19641 0.04059 0.45406 -0.15300
C 	C 	0.17469 0.06900 0.46857 0.00600
C 	C 	0.19412 0.10032 0.46243 -0.04400
N 	N 	0.32006 0.10350 0.53567 -0.16200
C 	C 	0.33750 0.07445 0.55813 0.05600
C 	C 	0.32301 0.04371 0.52233 -0.07300
H 	H 	0.26205 0.00648 0.46323 0.05500
H 	H 	0.25812 0.13705 0.49562 0.05400
H 	H 	0.18756 0.12564 0.48914 0.05100
H 	H 	0.32383 0.01769 0.54284 0.05200
H 	H 	0.19229 0.01555 0.47248 0.08700
H 	H 	0.31889 0.12795 0.56481 0.08900
C 	C 	0.82110 0.44731 0.78475 -0.05000
C 	C 	0.78250 0.45353 0.77882 0.09900
C 	C 	0.76404 0.45297 0.71268 -0.08700
C 	C 	0.78366 0.44761 0.65281 -0.00500
C 	C 	0.82263 0.44401 0.65887 0.07200
C 	C 	0.84089 0.44354 0.72486 -0.05300
N 	N 	0.76326 0.46092 0.83608 -0.19900
H 	H 	0.73432 0.45665 0.70782 0.05300
C 	C 	0.76312 0.44466 0.58403 -0.00600
N 	N 	0.84263 0.44090 0.60166 -0.19400
H 	H 	0.87054 0.43943 0.72956 0.05000
C 	C 	0.75597 0.47565 0.54966 -0.08700
C 	C 	0.74706 0.47347 0.47785 0.10100
C 	C 	0.74667 0.43983 0.44006 -0.05100
C 	C 	0.74813 0.40883 0.47614 -0.05400
C 	C 	0.75614 0.41097 0.54819 0.07100
H 	H 	0.75918 0.50149 0.57809 0.05400
N 	N 	0.73902 0.50359 0.44544 -0.19900
H 	H 	0.74570 0.38295 0.44763 0.05100
N 	N 	0.75809 0.38066 0.58230 -0.19400
H 	H 	0.74078 0.52852 0.47306 0.08500
H 	H 	0.72940 0.50235 0.39331 0.09100
H 	H 	0.75426 0.35576 0.55510 0.08400
H 	H 	0.76222 0.38158 0.63623 0.08900
H 	H 	0.87127 0.43744 0.60669 0.08500
H 	H 	0.83023 0.44264 0.55190 0.09100
H 	H 	0.77666 0.46510 0.88536 0.09000
H 	H 	0.73457 0.46415 0.83135 0.08300
C 	C 	0.01196 0.15710 0.82586 -0.03900
C 	C 	0.97747 0.14051 0.81037 -0.12400
C 	C 	0.96770 0.12714 0.74149 0.09100
C 	C 	0.99518 0.12339 0.69379 -0.04900
C 	C 	0.03182 0.13314 0.71448 -0.10600
C 	C 	0.03902 0.15440 0.77717 0.08000
N 	N 	0.07188 0.17175 0.79094 -0.20300
H 	H 	0.01860 0.16994 0.87712 0.04000
H 	H 	0.98861 0.11042 0.64273 0.06100
N 	N 	0.93230 0.11712 0.72166 -0.21300
H 	H 	0.07773 0.18617 0.83859 0.07300
H 	H 	0.09109 0.17245 0.75311 0.09000
H 	H 	0.91107 0.12140 0.75526 0.04700
H 	H 	0.92544 0.10617 0.67132 0.07400
C 	C 	0.85407 0.26482 0.05811 0.07400
C 	C 	0.87523 0.29624 0.05999 -0.08500
C 	C 	0.86611 0.32043 0.01024 0.02400
C 	C 	0.83550 0.31520 0.96412 0.07100
C 	C 	0.81306 0.28492 0.96434 -0.10000
C 	C 	0.82302 0.25965 0.01191 0.03500
N 	N 	0.86917 0.23325 0.07171 -0.15200
C 	C 	0.84842 0.20790 0.03421 0.02800
C 	C 	0.81941 0.22332 0.99682 -0.07300
N 	N 	0.82327 0.34654 0.94288 -0.16200
C 	C 	0.84563 0.37210 0.97599 0.04300
C 	C 	0.87284 0.35664 0.01805 -0.06400
H 	H 	0.89917 0.30059 0.09615 0.05400
H 	H 	0.78911 0.28082 0.92814 0.05500
H 	H 	0.80591 0.21119 0.94930 0.06000
H 	H 	0.88975 0.37049 0.05976 0.05400
H 	H 	0.89710 0.23002 0.08708 0.08400
H 	H 	0.79713 0.35096 0.91905 0.08700
C 	C 	0.88675 0.20581 0.39969 -0.05000
C 	C 	0.91864 0.20895 0.36336 -0.13500
C 	C 	0.91516 0.21516 0.29227 0.08900
C 	C 	0.88060 0.21086 0.25592 -0.05300
C 	C 	0.84926 0.20262 0.29056 -0.11900
C 	C 	0.85176 0.20385 0.36395 0.05100
N 	N 	0.82082 0.20404 0.40006 -0.21700
H 	H 	0.88924 0.20341 0.45522 0.03700
H 	H 	0.87852 0.21208 0.20026 0.05800
N 	N 	0.94495 0.22497 0.25878 -0.20600
H 	H 	0.82289 0.20280 0.45387 0.06300
H 	H 	0.79470 0.20779 0.37571 0.07800
H 	H 	0.97022 0.23138 0.28594 0.09100
H 	H 	0.94258 0.22795 0.20547 0.07600
C 	C 	0.68293 0.26715 0.13118 0.07800
C 	C 	0.67839 0.29314 0.18605 -0.08500
C 	C 	0.70676 0.31818 0.20210 0.02000
C 	C 	0.73586 0.32063 0.16029 0.07900
C 	C 	0.73853 0.29749 0.10099 -0.08300
C 	C 	0.71236 0.26970 0.08844 0.01500
N 	N 	0.67448 0.23268 0.13655 -0.15300
C 	C 	0.69908 0.21291 0.10092 0.01500
C 	C 	0.72204 0.23512 0.06825 -0.04800
N 	N 	0.75099 0.35342 0.16875 -0.16300
C 	C 	0.73124 0.37232 0.21563 0.05400
C 	C 	0.70350 0.35100 0.23781 -0.07100
H 	H 	0.65551 0.29161 0.21902 0.05400
H 	H 	0.76125 0.29971 0.06801 0.05900
H 	H 	0.74957 0.22769 0.05425 0.05900
H 	H 	0.67956 0.36049 0.26420 0.05400
H 	H 	0.66095 0.22364 0.17806 0.09300
H 	H 	0.76868 0.36426 0.13521 0.09200
C 	C 	0.40281 0.05829 0.41985 -0.00400
C 	C 	0.40836 0.09294 0.45060 -0.08300
C 	C 	0.38936 0.12185 0.42337 0.10000
C 	C 	0.36303 0.11550 0.36634 -0.04800
C 	C 	0.35504 0.08043 0.34005 -0.05200
H 	H 	0.42912 0.09770 0.49320 0.05400
N 	N 	0.39740 0.15552 0.45076 -0.19900
H 	H 	0.33382 0.07552 0.29830 0.05100
H 	H 	0.41614 0.15976 0.49393 0.08400
H 	H 	0.38598 0.17781 0.42873 0.09200
C 	C 	0.42612 0.01935 0.71781 -0.05000
C 	C 	0.45895 0.01426 0.68242 0.10400
C 	C 	0.48185 0.98529 0.69652 -0.08900
C 	C 	0.47342 0.96238 0.74719 -0.00500
C 	C 	0.44071 0.96756 0.78273 0.06900
C 	C 	0.41728 0.99588 0.76726 -0.05600
N 	N 	0.46916 0.03753 0.63652 -0.19900
H 	H 	0.50679 0.98108 0.66917 0.06000
C 	C 	0.49993 0.93414 0.76505 -0.00300
N 	N 	0.43165 0.94547 0.83163 -0.19400
H 	H 	0.39196 0.99966 0.79380 0.04800
C 	C 	0.52863 0.94221 0.81586 -0.08500
H 	H 	0.53283 0.96951 0.83700 0.05300
H 	H 	0.58583 0.95055 0.90415 0.08300
H 	H 	0.45148 0.91006 0.66362 0.08700
H 	H 	0.45486 0.06120 0.62980 0.09200
H 	H 	0.49249 0.03258 0.60836 0.08900
C 	C 	0.72773 0.06709 0.44672 -0.04300
C 	C 	0.71647 0.03134 0.43704 -0.12200
C 	C 	0.69963 0.01855 0.37210 0.09200
C 	C 	0.70350 0.03817 0.31418 -0.05100
C 	C 	0.72268 0.07067 0.32187 -0.12100
C 	C 	0.73039 0.08719 0.38916 0.07500
N 	N 	0.74132 0.12185 0.39834 -0.21900
H 	H 	0.73750 0.07823 0.49785 0.04500
H 	H 	0.69455 0.02676 0.26279 0.04200
N 	N 	0.68080 0.98712 0.36497 -0.20500
H 	H 	0.74897 0.13344 0.44790 0.05600
H 	H 	0.74090 0.13790 0.35656 0.04900
H 	H 	0.67583 0.97322 0.40819 0.09000
H 	H 	0.66963 0.97704 0.31635 0.07500
C 	C 	0.89807 0.10945 0.48975 -0.06500
C 	C 	0.93296 0.09396 0.50076 -0.11600
C 	C 	0.93618 0.06271 0.53714 0.08400
N 	N 	0.96990 0.04881 0.55416 -0.21100
H 	H 	0.89571 0.13416 0.46444 -0.00500
H 	H 	0.99429 0.06129 0.54276 0.08300
H 	H 	0.83056 0.13335 0.47931 -0.00500
C 	C 	0.96787 0.95784 0.77860 -0.06200
C 	C 	0.96008 0.92924 0.72926 -0.12300
C 	C 	0.97896 0.92712 0.66699 0.09100
C 	C 	0.00345 0.95490 0.65455 -0.05900
C 	C 	0.01277 0.98207 0.70669 -0.11300
C 	C 	0.99776 0.98066 0.77206 0.03600
N 	N 	0.01468 0.99760 0.82997 -0.19700
H 	H 	0.95400 0.95933 0.82671 -0.02700
H 	H 	0.01561 0.95486 0.60491 0.03000
N 	N 	0.97419 0.89871 0.61961 -0.20100
H 	H 	0.00198 0.99850 0.87682 0.05300
H 	H 	0.04233 0.00561 0.83112 -0.00200
H 	H 	0.95725 0.87723 0.62787 0.09800
H 	H 	0.98789 0.89773 0.57369 0.07300
C 	C 	0.83583 0.96307 0.91790 -0.06200
C 	C 	0.84110 0.95593 0.84707 -0.13800
C 	C 	0.84401 0.98448 0.80439 0.08500
C 	C 	0.83725 0.01915 0.83153 -0.08100
C 	C 	0.83742 0.02681 0.90352 -0.11800
C 	C 	0.83284 0.99839 0.94628 0.09600
N 	N 	0.82243 0.00460 0.01213 -0.19100
H 	H 	0.83253 0.94116 0.95034 0.01600
H 	H 	0.83787 0.04089 0.79786 0.00700
N 	N 	0.85707 0.97924 0.74024 -0.21400
H 	H 	0.82249 0.98395 0.04533 0.07700
H 	H 	0.81017 0.02863 0.02810 0.11000
H 	H 	0.86989 0.95543 0.72468 0.08700
H 	H 	0.85797 0.00026 0.70809 0.05200
C 	C 	0.83013 0.46075 0.26152 -0.05000
C 	C 	0.83177 0.49043 0.22112 0.10100
C 	C 	0.86543 0.50882 0.21942 -0.08500
C 	C 	0.89722 0.49805 0.25740 -0.00500
C 	C 	0.89619 0.46665 0.29322 0.07100
C 	C 	0.86263 0.44812 0.29428 -0.05200
N 	N 	0.80115 0.50168 0.18473 -0.20000
H 	H 	0.86657 0.53233 0.19047 0.05500
C 	C 	0.92992 0.52200 0.26593 -0.00600
N 	N 	0.92705 0.45455 0.32768 -0.19400
H 	H 	0.86142 0.42476 0.32368 0.04900
C 	C 	0.93052 0.55056 0.31672 -0.08600
C 	C 	0.96140 0.57328 0.32802 0.10100
C 	C 	0.99290 0.56623 0.28970 -0.05500
C 	C 	0.99236 0.53758 0.23911 -0.06100
C 	C 	0.96074 0.51595 0.22539 0.07000
H 	H 	0.90669 0.55530 0.34716 0.05500
N 	N 	0.96031 0.60210 0.37461 -0.20000
H 	H 	0.01656 0.53222 0.20997 0.05300
N 	N 	0.96026 0.48940 0.17372 -0.19500
H 	H 	0.93731 0.60648 0.40391 0.08400
H 	H 	0.98160 0.62099 0.38076 0.09200
H 	H 	0.98361 0.48442 0.14567 0.08400
H 	H 	0.93664 0.47389 0.16007 0.09100
H 	H 	0.92583 0.43165 0.35482 0.08400
H 	H 	0.95256 0.46740 0.32733 0.08900
H 	H 	0.77609 0.48781 0.18286 0.09200
H 	H 	0.80241 0.52417 0.15640 0.08500
C 	C 	0.92879 0.47080 0.94821 -0.05400
C 	C 	0.95991 0.45204 0.97488 0.10400
C 	C 	0.99253 0.47088 0.99687 -0.10800
C 	C 	0.99700 0.50638 0.98139 -0.00400
C 	C 	0.96711 0.52413 0.94791 0.06700
C 	C 	0.93263 0.50693 0.93639 -0.05300
N 	N 	0.95971 0.41589 0.97412 -0.20500
H 	H 	0.01559 0.45706 0.02116 0.06400
C 	C 	0.03410 0.52339 0.99434 -0.01200
N 	N 	0.97161 0.55702 0.92475 -0.19400
H 	H 	0.90910 0.52130 0.91521 0.04900
C 	C 	0.06361 0.50937 0.95787 -0.08600
C 	C 	0.09685 0.52848 0.95823 0.10200
C 	C 	0.09955 0.56317 0.99148 -0.05700
C 	C 	0.07216 0.57502 0.03560 -0.04700
C 	C 	0.03959 0.55493 0.03848 0.07800
H 	H 	0.06030 0.48407 0.92744 0.05400
N 	N 	0.12596 0.51368 0.92601 -0.19900
H 	H 	0.07511 0.60082 0.06427 0.05200
N 	N 	0.01328 0.56664 0.08148 -0.19300
H 	H 	0.12337 0.48864 0.89896 0.08400
H 	H 	0.15183 0.52623 0.93016 0.09000
H 	H 	0.01663 0.59087 0.11107 0.09100
H 	H 	0.98978 0.55135 0.08733 0.08800
H 	H 	0.94891 0.57063 0.90377 0.08200
H 	H 	0.99776 0.56846 0.92325 0.08700
H 	H 	0.94111 0.40052 0.94098 0.09300
H 	H 	0.98100 0.40270 0.00063 0.08800
C 	C 	0.09917 0.61339 0.43898 -0.05100
C 	C 	0.10673 0.58293 0.47612 0.10200
C 	C 	0.11804 0.58731 0.54689 -0.08700
C 	C 	0.12493 0.62140 0.57944 -0.00500
C 	C 	0.12258 0.65148 0.53970 0.06800
C 	C 	0.10874 0.64731 0.47018 -0.05400
N 	N 	0.10456 0.54964 0.44362 -0.19900
H 	H 	0.12157 0.56413 0.57669 0.05500
C 	C 	0.13224 0.62536 0.65577 -0.00600
N 	N 	0.13297 0.68438 0.56821 -0.19400
H 	H 	0.10441 0.67060 0.44099 0.04900
C 	C 	0.16686 0.61542 0.68463 -0.08700
C 	C 	0.17334 0.61449 0.75675 0.09800
C 	C 	0.14491 0.62501 0.80073 -0.05000
C 	C 	0.11127 0.63743 0.77198 -0.05300
C 	C 	0.10417 0.63674 0.69987 0.07100
H 	H 	0.18843 0.60719 0.65071 0.05300
N 	N 	0.20647 0.60271 0.78306 -0.20000
H 	H 	0.08975 0.64588 0.80586 0.04900
N 	N 	0.07014 0.64617 0.67346 -0.19400
H 	H 	0.22717 0.59497 0.75003 0.08300
H 	H 	0.21206 0.60096 0.83617 0.09100
H 	H 	0.04987 0.65504 0.70656 0.08400
H 	H 	0.06315 0.64420 0.62024 0.09000
H 	H 	0.12998 0.70663 0.53916 0.08100
H 	H 	0.14510 0.68804 0.61860 0.08600
H 	H 	0.10172 0.54577 0.38962 0.09400
H 	H 	0.10822 0.52724 0.47206 0.08600
C 	C 	0.05421 0.01366 0.01734 -0.04800
C 	C 	0.04777 0.97724 0.02272 -0.08600
C 	C 	0.01163 0.96543 0.03351 0.09200
C 	C 	0.98205 0.98948 0.02955 -0.05800
C 	C 	0.98784 0.02454 0.01233 -0.09500
C 	C 	0.02452 0.03738 0.01028 0.09000
N 	N 	0.03136 0.07189 0.99851 -0.21000
H 	H 	0.08220 0.02300 0.01253 0.03400
H 	H 	0.95411 0.98015 0.03484 0.03000
N 	N 	0.00494 0.93086 0.04499 -0.20100
H 	H 	0.05846 0.08072 0.99462 0.04500
H 	H 	0.01014 0.09046 0.99462 0.08000
H 	H 	0.97794 0.92198 0.04969 0.03300
H 	H 	0.15200 0.03228 0.84889 -0.02800
N 	N 	0.18771 0.66758 0.10070 -0.16400
C 	C 	0.19767 0.65387 0.03825 0.06400
C 	C 	0.22715 0.67309 0.01698 -0.06600
H 	H 	0.23338 0.67464 0.96333 0.04800
H 	H 	0.16131 0.66467 0.11848 0.09400
C 	C 	0.86794 0.06053 0.17444 -0.10300
C 	C 	0.90590 0.06599 0.16500 0.07500
N 	N 	0.91944 0.09919 0.15828 -0.22200
H 	H 	0.94774 0.10323 0.15422 0.02700
H 	H 	0.90212 0.12127 0.15721 0.07400
C 	C 	0.03675 0.72208 0.10716 -0.08800
C 	C 	0.06078 0.69615 0.13243 0.02500
C 	C 	0.09267 0.70591 0.17349 0.07000
N 	N 	0.10094 0.68103 0.21838 -0.16400
C 	C 	0.07444 0.65556 0.20697 0.05400
C 	C 	0.04903 0.66406 0.15386 -0.07700
H 	H 	0.00889 0.71513 0.08690 0.05800
H 	H 	0.02048 0.65512 0.14888 0.05400
H 	H 	0.11677 0.68600 0.26518 0.08700
Cd	Cd	0.99455 0.90999 0.22614 1.23600
Cd	Cd	0.98582 0.97490 0.36792 1.16300
O 	O 	0.03277 0.85717 0.24739 -0.32000
O 	O 	0.00050 0.86217 0.14852 -0.36900
C 	C 	0.02291 0.84313 0.18570 0.24900
O 	O 	0.95154 0.94783 0.18626 -0.40200
O 	O 	0.96946 0.99471 0.26387 -0.45100
C 	C 	0.94533 0.97990 0.21630 0.28100
C 	C 	0.94493 0.89771 0.32951 0.31000
O 	O 	0.03637 0.95290 0.31115 -0.45800
O 	O 	0.93979 0.87390 0.27715 -0.31300
O 	O 	0.97410 0.91749 0.32886 -0.55300
C 	C 	0.04965 0.96550 0.25690 0.30200
O 	O 	0.04007 0.94829 0.19751 -0.35700
Cd	Cd	0.12705 0.88291 0.02090 1.24100
Cd	Cd	0.09116 0.90950 0.85219 1.16700
O 	O 	0.17200 0.83427 0.00903 -0.31800
O 	O 	0.16266 0.86200 0.11076 -0.35200
C 	C 	0.18055 0.83757 0.07544 0.24600
O 	O 	0.09429 0.93269 0.04628 -0.35900
O 	O 	0.08821 0.95430 0.93670 -0.41900
C 	C 	0.07601 0.95166 0.99948 0.27600
C 	C 	0.16927 0.92237 0.93415 0.30800
O 	O 	0.06837 0.87867 0.93680 -0.48600
O 	O 	0.18249 0.92614 0.99878 -0.31000
O 	O 	0.14228 0.89964 0.92063 -0.54700
C 	C 	0.06313 0.84680 0.95472 0.29100
O 	O 	0.07962 0.84047 0.01439 -0.35000
Cd	Cd	0.86694 0.85244 0.76089 1.24000
O 	O 	0.81076 0.82049 0.78548 -0.32100
O 	O 	0.82680 0.82347 0.67862 -0.34500
C 	C 	0.80343 0.81164 0.72002 0.24500
O 	O 	0.90948 0.88581 0.71440 -0.38400
O 	O 	0.94886 0.88651 0.81187 -0.44000
C 	C 	0.93927 0.89861 0.75135 0.28700
O 	O 	0.90047 0.83869 0.87962 -0.46000
C 	C 	0.92033 0.81511 0.84633 0.30400
O 	O 	0.91047 0.80861 0.78055 -0.36400
Cd	Cd	0.78391 0.97614 0.58484 1.23900
Cd	Cd	0.80500 0.97777 0.40779 1.15600
O 	O 	0.74654 0.92620 0.61737 -0.31700
O 	O 	0.76893 0.96732 0.69508 -0.34500
C 	C 	0.74911 0.93844 0.68195 0.25600
O 	O 	0.82617 0.01989 0.58610 -0.39800
O 	O 	0.81604 0.02989 0.47095 -0.46000
C 	C 	0.83677 0.03371 0.52966 0.28500
C 	C 	0.83963 0.93088 0.53200 0.30600
O 	O 	0.84069 0.93076 0.59955 -0.30100
O 	O 	0.81141 0.94635 0.50344 -0.55300
C 	C 	0.60059 0.79795 0.83266 0.09500
N 	N 	0.59883 0.79352 0.90151 -0.13800
C 	C 	0.57984 0.81727 0.94192 0.11700
N 	N 	0.56307 0.84549 0.91360 -0.14400
C 	C 	0.56502 0.85001 0.84518 0.12700
N 	N 	0.58339 0.82607 0.80476 -0.13900
C 	C 	0.54515 0.91226 0.54370 0.09400
N 	N 	0.51925 0.93799 0.53595 -0.14000
C 	C 	0.50216 0.94219 0.47262 0.12500
N 	N 	0.51161 0.92107 0.41675 -0.14300
C 	C 	0.53807 0.89586 0.42380 0.12600
N 	N 	0.55499 0.89158 0.48732 -0.14000
Cd	Cd	0.95931 0.12137 0.30424 1.16800
O 	O 	0.96904 0.09206 0.40044 -0.46600
O 	O 	0.02312 0.12874 0.31175 -0.45300
C 	C 	0.04798 0.10823 0.33953 0.29400
O 	O 	0.06016 0.11787 0.40308 -0.36500
C 	C 	0.47731 0.97269 0.46255 -0.05000
C 	C 	0.44451 0.97713 0.49828 0.09600
C 	C 	0.42175 0.00661 0.48681 -0.08200
C 	C 	0.42986 0.03026 0.43718 -0.00700
C 	C 	0.46270 0.02588 0.40166 0.07500
C 	C 	0.48628 0.99737 0.41540 -0.05800
N 	N 	0.43402 0.95265 0.54151 -0.19900
H 	H 	0.39663 0.01005 0.51389 0.05900
N 	N 	0.47162 0.04874 0.35401 -0.19500
H 	H 	0.51158 0.99413 0.38864 0.04900
C 	C 	0.37461 0.05169 0.36634 0.07300
N 	N 	0.36633 0.01793 0.33983 -0.19200
H 	H 	0.34586 0.01338 0.29958 0.08700
H 	H 	0.37944 0.99588 0.35976 0.08700
H 	H 	0.49586 0.04516 0.32795 0.08500
H 	H 	0.45477 0.07022 0.34226 0.09000
H 	H 	0.44743 0.92824 0.54419 0.09000
H 	H 	0.41105 0.95726 0.57083 0.08500
C 	C 	0.55197 0.91534 0.83944 0.10200
C 	C 	0.54522 0.87957 0.81393 -0.05100
C 	C 	0.51798 0.87182 0.76015 -0.05200
C 	C 	0.49537 0.89885 0.73499 0.07200
N 	N 	0.58169 0.92421 0.88398 -0.19900
H 	H 	0.51377 0.84454 0.73894 0.04800
N 	N 	0.46914 0.89070 0.68273 -0.19400
H 	H 	0.60201 0.90559 0.89586 0.09200
H 	H 	0.46625 0.86463 0.66041 0.08200
H 	H 	0.40746 0.94961 0.85763 0.08200
H 	H 	0.44832 0.92401 0.84431 0.08800
C 	C 	0.57711 0.81255 0.01639 -0.04100
C 	C 	0.54219 0.81325 0.04515 0.10000
C 	C 	0.54004 0.82200 0.11644 -0.08500
C 	C 	0.57226 0.82809 0.15978 -0.00600
C 	C 	0.60722 0.82156 0.13272 0.07000
C 	C 	0.60937 0.81448 0.06076 -0.05700
N 	N 	0.51076 0.80553 0.00456 -0.19400
H 	H 	0.51321 0.82506 0.13789 0.05500
C 	C 	0.56906 0.84472 0.23109 -0.00600
N 	N 	0.63868 0.82291 0.17512 -0.19400
H 	H 	0.63619 0.81232 0.03905 0.05000
C 	C 	0.55632 0.82398 0.28203 -0.08700
C 	C 	0.54705 0.83986 0.34659 0.09900
C 	C 	0.55206 0.87709 0.36118 -0.05000
C 	C 	0.56727 0.89734 0.31204 -0.05300
C 	C 	0.57494 0.88180 0.24646 0.07000
H 	H 	0.55216 0.79558 0.27037 0.05300
N 	N 	0.53254 0.81939 0.39327 -0.20000
H 	H 	0.57164 0.92572 0.32378 0.04700
N 	N 	0.58707 0.90275 0.19815 -0.19400
H 	H 	0.52913 0.79195 0.38201 0.08400
H 	H 	0.52416 0.83038 0.44069 0.09100
H 	H 	0.59183 0.92994 0.21048 0.08100
H 	H 	0.59133 0.89258 0.14777 0.08900
H 	H 	0.66448 0.81930 0.15453 0.08000
H 	H 	0.63775 0.82644 0.22893 0.08500
H 	H 	0.51183 0.79592 0.95277 0.08600
H 	H 	0.48490 0.80753 0.02547 0.08600
C 	C 	0.90395 0.04567 0.55531 -0.07100
C 	C 	0.86887 0.05842 0.53488 -0.10900
C 	C 	0.86595 0.09224 0.50772 0.06200
H 	H 	0.90619 0.02164 0.58258 0.02600
N 	N 	0.83265 0.10861 0.50036 -0.21200
H 	H 	0.97203 0.02570 0.58081 0.06400
H 	H 	0.80896 0.09786 0.51894 0.07500
C 	C 	0.67029 0.89860 0.73404 0.08000
C 	C 	0.64327 0.87603 0.69874 -0.08500
C 	C 	0.60761 0.88943 0.68604 0.02400
C 	C 	0.59993 0.92517 0.70209 0.07400
C 	C 	0.62740 0.94825 0.73402 -0.08100
C 	C 	0.66221 0.93411 0.75240 0.01000
N 	N 	0.70632 0.89537 0.72187 -0.15200
C 	C 	0.72124 0.92848 0.72874 0.01600
C 	C 	0.69486 0.95300 0.75012 -0.04800
N 	N 	0.57302 0.93624 0.65756 -0.16300
C 	C 	0.56366 0.90803 0.61262 0.05600
C 	C 	0.58449 0.87842 0.62872 -0.07400
H 	H 	0.65111 0.85068 0.67406 0.05400
H 	H 	0.62311 0.97680 0.73755 0.05200
H 	H 	0.69579 0.98097 0.74032 0.05000
H 	H 	0.59042 0.85649 0.59174 0.05400
H 	H 	0.71688 0.87430 0.69093 0.09400
H 	H 	0.56960 0.96276 0.64588 0.08500
C 	C 	0.72086 0.76540 0.66936 0.07700
C 	C 	0.68317 0.77323 0.65800 -0.08800
C 	C 	0.65821 0.76024 0.70274 0.02000
C 	C 	0.67098 0.74420 0.76215 0.07200
C 	C 	0.70879 0.73742 0.77474 -0.08100
C 	C 	0.73314 0.74617 0.72503 0.01200
N 	N 	0.74788 0.78733 0.65284 -0.15400
C 	C 	0.77735 0.78249 0.69754 0.01300
C 	C 	0.76934 0.75657 0.74199 -0.04900
N 	N 	0.64835 0.75176 0.81377 -0.16300
C 	C 	0.62110 0.77248 0.78800 0.05500
C 	C 	0.62599 0.77764 0.71884 -0.07400
H 	H 	0.67415 0.79171 0.62014 0.05200
H 	H 	0.71931 0.72918 0.82467 0.05100
H 	H 	0.78304 0.75483 0.79305 0.05200
H 	H 	0.61446 0.79959 0.69162 0.05400
H 	H 	0.74292 0.81094 0.62859 0.08800
H 	H 	0.65674 0.75185 0.86645 0.08700
H 	H 	0.02646 0.91276 0.05135 0.09100
C 	C 	0.00151 0.82226 0.97235 -0.06000
C 	C 	0.02976 0.82680 0.92784 -0.10400
C 	C 	0.02331 0.81739 0.85601 0.08600
C 	C 	0.98732 0.80805 0.82930 -0.04000
C 	C 	0.95820 0.80768 0.87369 -0.11900
C 	C 	0.96650 0.81026 0.94598 0.08400
N 	N 	0.94041 0.80269 0.99011 -0.21000
H 	H 	0.00594 0.83058 0.02668 0.06800
H 	H 	0.98159 0.80372 0.77371 0.04900
N 	N 	0.05126 0.81786 0.81254 -0.20700
H 	H 	0.94544 0.80783 0.04362 0.08100
H 	H 	0.91550 0.79030 0.97168 0.08600
H 	H 	0.07860 0.82265 0.83150 0.04100
H 	H 	0.04600 0.81221 0.75918 0.06600
C 	C 	0.17998 0.93367 0.81435 -0.07500
C 	C 	0.17776 0.94768 0.88289 -0.12700
C 	C 	0.16997 0.98437 0.89531 0.08700
C 	C 	0.15788 0.00417 0.83950 -0.04900
C 	C 	0.15387 0.98797 0.77171 -0.15500
C 	C 	0.16333 0.95158 0.75977 0.08300
N 	N 	0.15236 0.93270 0.69940 -0.20700
H 	H 	0.18811 0.90611 0.80470 0.03100
N 	N 	0.17453 0.00081 0.96013 -0.19600
H 	H 	0.16339 0.90751 0.68753 0.06600
H 	H 	0.12925 0.94036 0.66917 0.07000
H 	H 	0.19027 0.98929 0.99943 0.10000
H 	H 	0.16513 0.02681 0.97009 0.06500
C 	C 	0.23693 0.76338 0.09789 0.07900
C 	C 	0.24751 0.73388 0.05517 -0.08400
C 	C 	0.23490 0.69998 0.06847 0.01900
C 	C 	0.21003 0.69585 0.11914 0.07500
C 	C 	0.19847 0.72547 0.16029 -0.08100
C 	C 	0.21317 0.75911 0.15038 0.01100
N 	N 	0.23252 0.79588 0.07404 -0.15300
C 	C 	0.20541 0.81224 0.10891 0.01300
C 	C 	0.19321 0.79042 0.15768 -0.04700
H 	H 	0.26146 0.73769 0.00844 0.05500
H 	H 	0.17683 0.72275 0.19535 0.05300
H 	H 	0.16584 0.79198 0.17702 0.04900
H 	H 	0.23931 0.80207 0.02465 0.09300
C 	C 	0.93021 0.03698 0.16595 -0.05400
C 	C 	0.91802 0.00348 0.18278 -0.09900
C 	C 	0.87954 0.99714 0.18436 0.06600
C 	C 	0.85476 0.02577 0.17901 -0.05000
H 	H 	0.95942 0.04135 0.16062 0.03900
H 	H 	0.82546 0.02136 0.18355 0.02300
N 	N 	0.86627 0.96405 0.19286 -0.20600
H 	H 	0.88362 0.94198 0.19348 0.07000
H 	H 	0.83797 0.95990 0.19668 0.04400
C 	C 	0.85866 0.89370 0.43075 -0.06900
C 	C 	0.86914 0.91573 0.49038 -0.13000
C 	C 	0.90558 0.92981 0.49891 0.08100
C 	C 	0.93021 0.92202 0.44707 -0.05800
C 	C 	0.91823 0.90353 0.38401 -0.14600
C 	C 	0.88125 0.89078 0.37457 0.09400
N 	N 	0.86613 0.87939 0.31073 -0.20400
H 	H 	0.83080 0.88281 0.42434 0.03000
H 	H 	0.95863 0.93126 0.45530 -0.03400
N 	N 	0.91671 0.95192 0.55504 -0.20300
H 	H 	0.84096 0.86554 0.30578 0.06900
H 	H 	0.87605 0.88866 0.26599 0.07700
H 	H 	0.90123 0.95525 0.59843 0.09000
H 	H 	0.94197 0.96544 0.55642 0.05500
C 	C 	0.04417 0.02640 0.21707 -0.04100
C 	C 	0.06239 0.00268 0.26011 -0.11700
C 	C 	0.08645 0.01635 0.31602 0.10100
C 	C 	0.08524 0.05273 0.33738 -0.05400
C 	C 	0.06119 0.07539 0.30197 -0.10900
C 	C 	0.04489 0.06309 0.23612 0.08500
N 	N 	0.03232 0.08631 0.18973 -0.21000
H 	H 	0.02823 0.01626 0.17049 0.05900
H 	H 	0.10170 0.06302 0.38309 0.06500
N 	N 	0.11048 0.99466 0.34929 -0.20700
H 	H 	0.04091 0.11291 0.19478 0.08500
H 	H 	0.01692 0.07717 0.14446 0.08000
H 	H 	0.11345 0.96802 0.33138 0.09200
H 	H 	0.12766 0.00470 0.39164 0.09700
C 	C 	0.04851 0.75776 0.11519 0.08500
C 	C 	0.10205 0.74198 0.18818 -0.08100
C 	C 	0.08146 0.76732 0.15304 0.01300
N 	N 	0.02479 0.78523 0.11693 -0.14900
C 	C 	0.04249 0.81244 0.15472 0.01200
C 	C 	0.07761 0.80231 0.17838 -0.04500
H 	H 	0.12197 0.75018 0.23048 0.04900
H 	H 	0.09268 0.81434 0.22439 0.05300
H 	H 	0.99603 0.78234 0.11160 0.08000
