data_crystal

_cell_length_a 28.69158
_cell_length_b 28.73083
_cell_length_c 19.77310
_cell_angle_alpha 91.50010
_cell_angle_beta  87.94044
_cell_angle_gamma 90.04791

_symmetry_space_group_name_	'P 1'
_symmetry_space_group_name_H-M	'P 1'

loop_
_symmetry_equiv_pos_as_xyz
  x,y,z

loop_
_atom_site_label
_atom_site_type_symbol
_atom_site_fract_x
_atom_site_fract_y
_atom_site_fract_z
_atom_site_charge
Cd	Cd	0.73894 0.92580 0.37444 1.24200
Cd	Cd	0.78639 0.01007 0.48774 1.17500
O 	O 	0.65817 0.89646 0.38762 -0.32100
O 	O 	0.70417 0.87650 0.30077 -0.34700
C 	C 	0.66421 0.87094 0.33258 0.27800
O 	O 	0.80829 0.94560 0.32814 -0.37200
O 	O 	0.84158 0.97179 0.42600 -0.40800
C 	C 	0.84307 0.96588 0.35973 0.35600
C 	C 	0.72035 0.02123 0.35443 0.29300
O 	O 	0.75698 0.93583 0.50413 -0.44400
O 	O 	0.70382 0.99486 0.30613 -0.22600
O 	O 	0.73049 0.99883 0.40859 -0.50300
C 	C 	0.78015 0.89669 0.49736 0.35800
O 	O 	0.77441 0.87351 0.44085 -0.37300
Cd	Cd	0.85518 0.94110 0.09852 1.25200
Cd	Cd	0.82754 0.98987 0.94206 1.19600
O 	O 	0.79748 0.90112 0.17326 -0.29600
O 	O 	0.87268 0.90215 0.19207 -0.32400
C 	C 	0.83133 0.88772 0.21041 0.28100
O 	O 	0.92320 0.95841 0.04680 -0.34600
O 	O 	0.89674 0.01613 0.97888 -0.43900
C 	C 	0.93126 0.99221 0.00364 0.41100
C 	C 	0.84140 0.88061 0.98467 0.35700
O 	O 	0.80230 0.00743 0.05304 -0.41800
O 	O 	0.86033 0.85894 0.03390 -0.26500
O 	O 	0.82685 0.92243 0.00019 -0.52600
C 	C 	0.82251 0.03620 0.09506 0.34900
O 	O 	0.84833 0.01659 0.13916 -0.33100
C 	C 	0.88833 0.61345 0.13879 0.12300
N 	N 	0.93285 0.59738 0.13912 -0.14400
C 	C 	0.95607 0.58627 0.07984 0.12200
N 	N 	0.93462 0.59088 0.02032 -0.14000
C 	C 	0.89037 0.60738 0.01986 0.14100
N 	N 	0.86706 0.61799 0.07906 -0.13800
C 	C 	0.75542 0.61064 0.44525 0.12300
N 	N 	0.79349 0.60713 0.40234 -0.14400
C 	C 	0.83605 0.59782 0.42687 0.13000
N 	N 	0.84100 0.59584 0.49478 -0.14100
C 	C 	0.80327 0.59991 0.53787 0.13200
N 	N 	0.76043 0.60653 0.51288 -0.14000
Cd	Cd	0.99406 0.22841 0.65511 1.24100
Cd	Cd	0.08055 0.25402 0.77421 1.19800
O 	O 	0.94508 0.28996 0.60755 -0.31000
O 	O 	0.94186 0.21655 0.57342 -0.32600
C 	C 	0.92619 0.25867 0.56834 0.28900
O 	O 	0.03217 0.16125 0.66436 -0.37500
O 	O 	0.06043 0.17857 0.76896 -0.38200
C 	C 	0.06052 0.15205 0.71355 0.35000
C 	C 	0.08266 0.26158 0.60911 0.36000
O 	O 	0.00031 0.26618 0.77821 -0.43400
O 	O 	0.05765 0.24774 0.55840 -0.28800
O 	O 	0.05930 0.26705 0.66625 -0.51000
C 	C 	0.96831 0.23646 0.79716 0.34400
O 	O 	0.94919 0.21180 0.74951 -0.35600
Cd	Cd	0.96375 0.34391 0.40695 1.24100
Cd	Cd	0.01392 0.29318 0.25433 1.18400
O 	O 	0.92190 0.41809 0.39955 -0.32400
O 	O 	0.92115 0.37920 0.49374 -0.34200
C 	C 	0.90639 0.41514 0.46185 0.27100
O 	O 	0.98675 0.27224 0.43541 -0.36100
O 	O 	0.04160 0.26378 0.34864 -0.41500
C 	C 	0.01595 0.24568 0.39791 0.34800
C 	C 	0.90473 0.29610 0.31568 0.37700
O 	O 	0.02697 0.36376 0.31171 -0.45300
O 	O 	0.88325 0.30575 0.37350 -0.29100
O 	O 	0.94545 0.31533 0.30744 -0.54700
C 	C 	0.05597 0.37167 0.36028 0.33700
O 	O 	0.03775 0.37168 0.42164 -0.33100
C 	C 	0.63848 0.20191 0.66944 0.12000
N 	N 	0.62788 0.15606 0.66054 -0.14800
C 	C 	0.60892 0.13177 0.71285 0.13200
N 	N 	0.60130 0.15330 0.77431 -0.14300
C 	C 	0.61257 0.19890 0.78366 0.13000
N 	N 	0.63142 0.22295 0.73124 -0.14000
C 	C 	0.63437 0.35646 0.36251 0.12500
N 	N 	0.63020 0.31609 0.39656 -0.14200
C 	C 	0.62042 0.27576 0.36297 0.13400
N 	N 	0.61378 0.27577 0.29548 -0.14100
C 	C 	0.61687 0.31603 0.26130 0.13300
N 	N 	0.62763 0.35640 0.29467 -0.13800
Cd	Cd	0.23890 0.11218 0.13137 1.24700
Cd	Cd	0.27200 0.04850 0.26951 1.18000
O 	O 	0.29386 0.16043 0.06442 -0.32300
O 	O 	0.22043 0.15283 0.03961 -0.33000
C 	C 	0.25982 0.17401 0.02781 0.28300
O 	O 	0.17649 0.07065 0.15836 -0.36900
O 	O 	0.19439 0.06228 0.26944 -0.37500
C 	C 	0.16650 0.05436 0.21875 0.35900
C 	C 	0.28055 0.02389 0.10776 0.32300
O 	O 	0.27981 0.12754 0.24783 -0.45200
O 	O 	0.26377 0.03932 0.05203 -0.24800
O 	O 	0.28445 0.05511 0.15567 -0.54600
C 	C 	0.24853 0.15978 0.26093 0.36200
O 	O 	0.21857 0.16578 0.21402 -0.34000
Cd	Cd	0.36857 0.10708 0.92882 1.24200
Cd	Cd	0.34870 0.02868 0.79062 1.21500
O 	O 	0.44661 0.14191 0.93742 -0.31800
O 	O 	0.38819 0.16411 0.00533 -0.33500
C 	C 	0.43181 0.16954 0.98664 0.25500
O 	O 	0.29123 0.09454 0.93259 -0.37400
O 	O 	0.29428 0.02411 0.87481 -0.34900
C 	C 	0.26991 0.05892 0.90293 0.36500
C 	C 	0.35348 0.14387 0.79916 0.36100
O 	O 	0.40017 0.02653 0.87919 -0.42400
O 	O 	0.35153 0.17633 0.84651 -0.30300
O 	O 	0.36793 0.10354 0.81802 -0.52600
C 	C 	0.39206 0.00995 0.93943 0.32100
O 	O 	0.37972 0.04011 0.98707 -0.36800
C 	C 	0.34542 0.44430 0.92814 0.12300
N 	N 	0.30713 0.45649 0.96701 -0.14400
C 	C 	0.26847 0.47268 0.93773 0.13300
N 	N 	0.26796 0.47598 0.86939 -0.14100
C 	C 	0.30542 0.46204 0.83005 0.13000
N 	N 	0.34381 0.44531 0.85955 -0.14200
C 	C 	0.20797 0.44543 0.23438 0.13400
N 	N 	0.23703 0.44695 0.28722 -0.13700
C 	C 	0.22176 0.46415 0.34869 0.13900
N 	N 	0.17828 0.48274 0.35588 -0.13500
C 	C 	0.15011 0.48385 0.30230 0.13300
N 	N 	0.16449 0.46405 0.24196 -0.14500
Cd	Cd	0.19204 0.72961 0.78183 1.24400
Cd	Cd	0.13691 0.76001 0.94061 1.18300
O 	O 	0.20865 0.64734 0.75108 -0.31100
O 	O 	0.22504 0.70360 0.68165 -0.33300
C 	C 	0.22959 0.65973 0.69487 0.27500
O 	O 	0.17778 0.80586 0.77587 -0.38600
O 	O 	0.17066 0.82152 0.89025 -0.39600
C 	C 	0.16464 0.83377 0.82738 0.35600
C 	C 	0.09330 0.72078 0.79603 0.36400
O 	O 	0.20621 0.72116 0.91268 -0.46200
O 	O 	0.10771 0.71601 0.73276 -0.25700
O 	O 	0.12619 0.72059 0.83981 -0.53900
C 	C 	0.24722 0.73938 0.90019 0.35700
O 	O 	0.25864 0.74625 0.83707 -0.35300
Cd	Cd	0.18072 0.85350 0.59616 1.24600
Cd	Cd	0.09665 0.81671 0.47984 1.19300
O 	O 	0.23572 0.79957 0.64817 -0.31200
O 	O 	0.24028 0.87570 0.66066 -0.33400
C 	C 	0.25707 0.83528 0.67454 0.27500
O 	O 	0.15275 0.91885 0.55496 -0.37100
O 	O 	0.08202 0.88853 0.52527 -0.35900
C 	C 	0.11131 0.92393 0.52894 0.33800
C 	C 	0.21015 0.83051 0.46043 0.37700
O 	O 	0.10768 0.79835 0.59194 -0.41800
O 	O 	0.24265 0.85278 0.49253 -0.28400
O 	O 	0.17458 0.81803 0.49794 -0.54200
C 	C 	0.09014 0.82122 0.64474 0.35400
O 	O 	0.11835 0.85085 0.67319 -0.34800
C 	C 	0.50887 0.72377 0.79192 0.12600
N 	N 	0.51885 0.76380 0.75895 -0.14200
C 	C 	0.53815 0.80050 0.79273 0.13000
N 	N 	0.54566 0.79763 0.85989 -0.14200
C 	C 	0.53435 0.75840 0.89343 0.13700
N 	N 	0.51650 0.72133 0.85919 -0.14000
C 	C 	0.52215 0.88385 0.48486 0.12400
N 	N 	0.51278 0.86039 0.42634 -0.13800
C 	C 	0.52601 0.87838 0.36581 0.13600
N 	N 	0.55053 0.91884 0.36413 -0.13300
C 	C 	0.55868 0.94315 0.42243 0.12400
N 	N 	0.54368 0.92589 0.48267 -0.14000
C 	C 	0.53382 0.75914 0.96813 -0.06900
C 	C 	0.57294 0.77510 0.00360 0.12500
C 	C 	0.56732 0.78886 0.07208 -0.09200
C 	C 	0.52366 0.78574 0.10585 0.00200
C 	C 	0.48571 0.76525 0.07217 0.07400
C 	C 	0.49156 0.75119 0.00384 -0.03100
N 	N 	0.61598 0.77648 0.97258 -0.20500
H 	H 	0.59680 0.80283 0.09884 0.06600
C 	C 	0.51724 0.80756 0.17424 0.00000
N 	N 	0.44362 0.75943 0.10481 -0.19100
H 	H 	0.46247 0.73607 0.97758 0.05300
C 	C 	0.50611 0.85503 0.18008 -0.07600
C 	C 	0.50317 0.87776 0.24377 0.11900
C 	C 	0.51507 0.85326 0.30191 -0.04500
C 	C 	0.52108 0.80480 0.29689 -0.04500
C 	C 	0.52332 0.78174 0.23333 0.07500
H 	H 	0.49909 0.87417 0.13499 0.07400
N 	N 	0.48651 0.92204 0.24927 -0.19600
H 	H 	0.52584 0.78521 0.34222 0.05600
N 	N 	0.53148 0.73508 0.22942 -0.19400
H 	H 	0.48012 0.94075 0.20592 0.10500
H 	H 	0.47658 0.93699 0.29629 0.10500
H 	H 	0.53601 0.71639 0.27335 0.09100
H 	H 	0.53319 0.71686 0.18304 0.09300
H 	H 	0.41571 0.74469 0.07931 0.10800
H 	H 	0.43830 0.76883 0.15584 0.11200
H 	H 	0.62200 0.76229 0.92388 0.10100
H 	H 	0.64441 0.78995 0.99828 0.09900
C 	C 	0.38640 0.85719 0.71185 0.00600
C 	C 	0.42356 0.88523 0.68977 -0.04400
C 	C 	0.45878 0.86500 0.64787 0.02400
C 	C 	0.45669 0.81753 0.62917 0.00600
C 	C 	0.41682 0.79129 0.64413 -0.05000
C 	C 	0.38162 0.81124 0.68639 0.02300
S 	S 	0.33313 0.87784 0.72778 0.06000
C 	C 	0.30244 0.83089 0.70543 -0.06300
C 	C 	0.33449 0.79632 0.68396 -0.01400
S 	S 	0.48912 0.80979 0.55853 0.01200
C 	C 	0.50810 0.86438 0.55036 -0.02200
C 	C 	0.48766 0.89135 0.60348 -0.04200
H 	H 	0.42276 0.92253 0.69945 0.05200
H 	H 	0.41069 0.75894 0.61688 0.05000
H 	H 	0.32428 0.76530 0.65583 0.05900
H 	H 	0.48717 0.92904 0.60368 0.04600
C 	C 	0.35785 0.63503 0.63817 -0.00300
C 	C 	0.40085 0.65775 0.62979 -0.05400
C 	C 	0.43421 0.65254 0.67925 0.02500
C 	C 	0.42456 0.62432 0.73506 -0.00100
C 	C 	0.38017 0.60543 0.74663 -0.04700
C 	C 	0.34686 0.61021 0.69705 0.02100
S 	S 	0.30819 0.65624 0.61106 0.04300
C 	C 	0.27123 0.63404 0.66922 -0.06700
C 	C 	0.29827 0.60846 0.71306 -0.02300
S 	S 	0.45860 0.64195 0.79684 0.03100
C 	C 	0.48772 0.68377 0.75608 -0.02200
C 	C 	0.46996 0.68589 0.69095 -0.04400
H 	H 	0.40699 0.68102 0.58825 0.04900
H 	H 	0.37034 0.59165 0.79561 0.05700
H 	H 	0.28462 0.59663 0.76147 0.05800
H 	H 	0.47848 0.71353 0.65650 0.05000
C 	C 	0.30155 0.45889 0.75553 -0.04500
C 	C 	0.33717 0.47573 0.71075 0.10300
C 	C 	0.33082 0.47337 0.64060 -0.08100
C 	C 	0.28892 0.45682 0.61464 -0.00400
C 	C 	0.25410 0.43852 0.65897 0.08600
C 	C 	0.26095 0.43946 0.72890 -0.05000
N 	N 	0.37679 0.49523 0.73450 -0.19900
H 	H 	0.35761 0.48684 0.60629 0.05800
C 	C 	0.28040 0.46222 0.54176 0.00100
N 	N 	0.21398 0.42023 0.63487 -0.19500
H 	H 	0.23430 0.42536 0.76287 0.05900
C 	C 	0.28876 0.42445 0.49671 -0.08700
C 	C 	0.27710 0.42703 0.42851 0.11100
C 	C 	0.25341 0.46695 0.40653 -0.04600
C 	C 	0.25079 0.50669 0.44938 -0.04700
C 	C 	0.26264 0.50435 0.51745 0.07800
H 	H 	0.30456 0.39302 0.51468 0.07000
N 	N 	0.29063 0.39227 0.38426 -0.20100
H 	H 	0.23577 0.53846 0.43123 0.05700
N 	N 	0.25534 0.54205 0.55956 -0.19300
H 	H 	0.30221 0.36053 0.40213 0.11000
H 	H 	0.29567 0.39834 0.33284 0.13200
H 	H 	0.24237 0.57303 0.54104 0.09800
H 	H 	0.26175 0.54086 0.61107 0.09900
H 	H 	0.18841 0.40698 0.66810 0.12200
H 	H 	0.20782 0.41857 0.58316 0.11900
H 	H 	0.37967 0.50484 0.78536 0.09600
H 	H 	0.40415 0.50417 0.70097 0.09000
C 	C 	0.37563 0.88088 0.91159 -0.15200
C 	C 	0.36856 0.86685 0.97864 0.00200
C 	C 	0.37962 0.89751 0.03200 0.30300
C 	C 	0.39092 0.94381 0.01871 -0.04900
C 	C 	0.39178 0.95950 0.95184 -0.14400
C 	C 	0.38689 0.92707 0.89809 0.36400
C 	C 	0.34083 0.82468 0.99200 0.00700
F 	F 	0.37703 0.88308 0.09684 -0.42100
H 	H 	0.39702 0.96791 0.06051 0.09100
F 	F 	0.39036 0.94078 0.83299 -0.52200
H 	H 	0.36907 0.85676 0.86999 0.10600
C 	C 	0.29355 0.82936 0.01228 0.30700
C 	C 	0.26174 0.79475 0.99415 -0.07200
C 	C 	0.27701 0.75653 0.95393 -0.17200
C 	C 	0.32503 0.74710 0.94790 0.37200
C 	C 	0.35698 0.78156 0.96602 -0.16200
F 	F 	0.27755 0.87015 0.04007 -0.41400
H 	H 	0.22475 0.80081 0.00327 0.05100
F 	F 	0.34050 0.70771 0.91496 -0.45700
H 	H 	0.39354 0.77697 0.95220 0.10200
C 	C 	0.47821 0.29590 0.97375 -0.01200
C 	C 	0.47314 0.33554 0.93517 -0.04900
C 	C 	0.44842 0.37356 0.96407 0.01300
C 	C 	0.43110 0.37227 0.03161 0.01100
C 	C 	0.43160 0.33071 0.06711 -0.06200
C 	C 	0.45425 0.29196 0.03668 0.02900
S 	S 	0.48310 0.24278 0.93960 0.02800
C 	C 	0.45661 0.21306 0.00125 -0.05000
C 	C 	0.44171 0.24538 0.05188 -0.03600
S 	S 	0.38738 0.41001 0.03936 0.01700
C 	C 	0.38810 0.42895 0.96028 -0.02800
C 	C 	0.42438 0.40552 0.92423 -0.04100
H 	H 	0.48328 0.33478 0.88184 0.04600
H 	H 	0.41124 0.32739 0.11395 0.05300
H 	H 	0.41665 0.23687 0.09199 0.05200
H 	H 	0.42810 0.40544 0.86949 0.05100
C 	C 	0.21779 0.91451 0.15291 -0.12200
C 	C 	0.24652 0.89889 0.20350 0.00600
C 	C 	0.29182 0.91717 0.20817 0.28900
C 	C 	0.30562 0.95476 0.16878 -0.07700
C 	C 	0.27412 0.97496 0.12562 -0.14100
C 	C 	0.23106 0.95294 0.11488 0.38600
C 	C 	0.22615 0.87159 0.25950 0.00500
F 	F 	0.32086 0.90136 0.25518 -0.43400
H 	H 	0.33938 0.97071 0.17610 0.07200
F 	F 	0.20021 0.97148 0.07272 -0.42300
H 	H 	0.18353 0.89936 0.14702 0.12400
C 	C 	0.18992 0.89080 0.30119 0.27400
C 	C 	0.17936 0.87195 0.36419 -0.06000
C 	C 	0.20638 0.83557 0.38752 -0.20800
C 	C 	0.23861 0.81287 0.34291 0.38200
C 	C 	0.24791 0.83045 0.27852 -0.14500
F 	F 	0.16842 0.93054 0.28383 -0.44300
H 	H 	0.15344 0.88877 0.39768 0.04900
F 	F 	0.26351 0.77612 0.36389 -0.45100
H 	H 	0.27459 0.81428 0.24560 0.13200
C 	C 	0.22890 0.30359 0.00671 0.00500
C 	C 	0.20001 0.33851 0.03607 -0.04300
C 	C 	0.22068 0.37421 0.07434 0.03600
C 	C 	0.26888 0.37378 0.08425 0.00700
C 	C 	0.29601 0.33502 0.06442 -0.03400
C 	C 	0.27602 0.30036 0.02347 0.02300
S 	S 	0.21056 0.24999 0.98915 0.04100
C 	C 	0.26023 0.22098 0.99990 -0.07000
C 	C 	0.29377 0.25421 0.01844 -0.00700
S 	S 	0.27903 0.40770 0.15152 0.06300
C 	C 	0.22437 0.42574 0.16824 -0.02100
C 	C 	0.19540 0.40297 0.12223 -0.02700
H 	H 	0.16242 0.33616 0.03326 0.04600
H 	H 	0.32965 0.32962 0.08583 0.05600
H 	H 	0.32675 0.24471 0.03931 0.05800
H 	H 	0.15814 0.39989 0.13084 0.04800
C 	C 	0.62091 0.23150 0.39821 -0.05200
C 	C 	0.65870 0.20031 0.38772 0.11000
C 	C 	0.65271 0.15337 0.40356 -0.09100
C 	C 	0.60950 0.13720 0.42840 0.00300
C 	C 	0.57380 0.16955 0.44704 0.06900
C 	C 	0.58012 0.21670 0.43225 -0.05000
N 	N 	0.70047 0.21514 0.36164 -0.20000
H 	H 	0.68085 0.12895 0.39309 0.06100
C 	C 	0.59957 0.08669 0.42364 -0.02200
N 	N 	0.53288 0.15529 0.47655 -0.19400
H 	H 	0.55195 0.24125 0.44294 0.05100
C 	C 	0.61563 0.05749 0.47351 -0.06200
C 	C 	0.60680 0.00939 0.47017 0.04200
C 	C 	0.57768 0.99106 0.41939 0.01900
C 	C 	0.56325 0.02010 0.36810 -0.09600
C 	C 	0.57499 0.06746 0.36869 0.09900
H 	H 	0.63604 0.07205 0.51407 0.03800
N 	N 	0.62816 0.98090 0.51338 -0.18100
H 	H 	0.54204 0.00600 0.32815 0.05800
N 	N 	0.56258 0.09422 0.31645 -0.19600
H 	H 	0.64712 0.99492 0.55322 0.08400
H 	H 	0.62904 0.94490 0.50502 0.10000
H 	H 	0.54329 0.07995 0.27714 0.09100
H 	H 	0.57303 0.12891 0.31312 0.09900
H 	H 	0.50655 0.17934 0.48962 0.08800
H 	H 	0.52691 0.12037 0.48714 0.08500
H 	H 	0.70698 0.25041 0.35396 0.10800
H 	H 	0.72764 0.19154 0.35149 0.09700
C 	C 	0.60292 0.08081 0.70598 -0.07400
C 	C 	0.57053 0.06066 0.66121 0.12400
C 	C 	0.56279 0.01233 0.66147 -0.16600
C 	C 	0.58441 0.98449 0.70840 0.07200
C 	C 	0.61889 0.00410 0.74992 0.00900
C 	C 	0.62790 0.05207 0.74805 -0.02900
N 	N 	0.54542 0.08748 0.62007 -0.20600
H 	H 	0.53759 0.99687 0.62807 0.08800
C 	C 	0.56595 0.93709 0.72066 -0.03000
N 	N 	0.64303 0.97720 0.79219 -0.17300
H 	H 	0.65367 0.06732 0.78080 0.03900
C 	C 	0.58726 0.89870 0.68697 -0.07200
C 	C 	0.57680 0.85305 0.70678 0.10000
C 	C 	0.54340 0.84599 0.76021 -0.04400
C 	C 	0.51919 0.88431 0.78948 -0.05500
C 	C 	0.53027 0.92982 0.77058 0.08900
H 	H 	0.61345 0.90440 0.64712 0.05900
N 	N 	0.59935 0.81653 0.67501 -0.19800
H 	H 	0.49245 0.87874 0.82864 0.06400
N 	N 	0.50713 0.96636 0.80140 -0.18600
H 	H 	0.62341 0.82221 0.63512 0.09400
H 	H 	0.59339 0.78230 0.68929 0.09700
H 	H 	0.48259 0.96076 0.84066 0.11500
H 	H 	0.51274 0.00050 0.78632 0.07600
H 	H 	0.66757 0.99219 0.82396 0.08800
H 	H 	0.63851 0.94117 0.79297 0.09400
H 	H 	0.54828 0.12368 0.62100 0.09500
H 	H 	0.52168 0.07211 0.58741 0.07900
C 	C 	0.60983 0.22060 0.85247 -0.04600
C 	C 	0.59324 0.26675 0.86358 0.10300
C 	C 	0.59799 0.28875 0.92727 -0.08300
C 	C 	0.61554 0.26439 0.98134 -0.01100
C 	C 	0.63110 0.21791 0.97080 0.07500
C 	C 	0.62805 0.19650 0.90644 -0.05000
N 	N 	0.57056 0.28913 0.81469 -0.19800
H 	H 	0.58557 0.32414 0.93577 0.05500
C 	C 	0.61287 0.28617 0.05020 0.00400
N 	N 	0.64952 0.19388 0.02190 -0.19200
H 	H 	0.64102 0.16130 0.89794 0.05600
C 	C 	0.57330 0.27818 0.09184 -0.08700
C 	C 	0.57137 0.29414 0.15950 0.10700
C 	C 	0.61120 0.31508 0.18744 -0.04800
C 	C 	0.64948 0.32620 0.14470 -0.05000
C 	C 	0.65059 0.31221 0.07593 0.07500
H 	H 	0.54455 0.25826 0.07212 0.06300
N 	N 	0.53126 0.28935 0.19744 -0.19900
H 	H 	0.67952 0.34349 0.16569 0.06200
N 	N 	0.68829 0.32284 0.03556 -0.19000
H 	H 	0.50252 0.27219 0.17740 0.09000
H 	H 	0.52754 0.30448 0.24595 0.09600
H 	H 	0.71638 0.34120 0.05536 0.10000
H 	H 	0.68982 0.31371 0.98408 0.09300
H 	H 	0.66040 0.15940 0.01384 0.10700
H 	H 	0.65395 0.20924 0.06966 0.10200
H 	H 	0.55852 0.27115 0.77220 0.09700
H 	H 	0.56190 0.32433 0.82111 0.08700
C 	C 	0.21651 0.25025 0.38504 -0.14100
C 	C 	0.22911 0.28825 0.34489 -0.00500
C 	C 	0.26585 0.28278 0.29645 0.30200
C 	C 	0.28130 0.23801 0.27762 -0.05500
C 	C 	0.25902 0.19919 0.30591 -0.15500
C 	C 	0.23177 0.20557 0.36556 0.37200
C 	C 	0.19566 0.32686 0.33975 0.01900
F 	F 	0.28170 0.31982 0.26119 -0.43800
H 	H 	0.30528 0.23336 0.23436 0.08200
F 	F 	0.21445 0.16817 0.39844 -0.40000
H 	H 	0.19056 0.25450 0.42592 0.11500
C 	C 	0.16923 0.32983 0.28133 0.27500
C 	C 	0.12497 0.35012 0.28574 -0.06400
C 	C 	0.10693 0.36732 0.34836 -0.17000
C 	C 	0.13703 0.37242 0.40283 0.37400
C 	C 	0.18116 0.35191 0.39854 -0.16400
F 	F 	0.18416 0.30855 0.22238 -0.43200
H 	H 	0.10347 0.34921 0.24179 0.02900
F 	F 	0.12247 0.39462 0.46124 -0.44800
H 	H 	0.20226 0.35182 0.44289 0.11000
C 	C 	0.00569 0.12406 0.46679 -0.12400
C 	C 	0.05243 0.10925 0.46251 -0.00100
C 	C 	0.08669 0.13890 0.43493 0.31900
C 	C 	0.07485 0.18376 0.41585 -0.05200
C 	C 	0.02829 0.19890 0.42122 -0.13000
C 	C 	0.99348 0.16800 0.44388 0.34900
C 	C 	0.06518 0.06185 0.48387 0.01900
F 	F 	0.13126 0.12378 0.42493 -0.36300
H 	H 	0.10194 0.20669 0.39655 0.11000
F 	F 	0.94786 0.17921 0.43943 -0.42600
H 	H 	0.97870 0.10107 0.48615 0.10200
C 	C 	0.10196 0.05562 0.52797 0.30800
C 	C 	0.11712 0.01075 0.54216 -0.07900
C 	C 	0.09448 0.97147 0.51491 -0.09900
C 	C 	0.05596 0.97781 0.47387 0.39600
C 	C 	0.04191 0.02269 0.45776 -0.16800
F 	F 	0.12272 0.09302 0.55756 -0.40500
H 	H 	0.14588 0.00660 0.57552 0.11200
F 	F 	0.03209 0.94059 0.44963 -0.41100
H 	H 	0.01303 0.02698 0.42466 0.11600
C 	C 	0.71250 0.45951 0.42079 0.00100
C 	C 	0.75739 0.47759 0.41037 -0.04900
C 	C 	0.79072 0.46992 0.45903 0.02000
C 	C 	0.77856 0.44556 0.51791 -0.00200
C 	C 	0.73438 0.42553 0.52667 -0.05300
C 	C 	0.70152 0.43188 0.47693 0.02600
S 	S 	0.68010 0.44068 0.35767 0.01900
C 	C 	0.65039 0.39902 0.39785 -0.01900
C 	C 	0.66607 0.39859 0.46434 -0.04400
S 	S 	0.82690 0.42092 0.54410 0.02900
C 	C 	0.86468 0.44125 0.48577 -0.06600
C 	C 	0.83915 0.46811 0.44188 -0.02400
H 	H 	0.76762 0.49218 0.36211 0.05000
H 	H 	0.72729 0.40183 0.56744 0.04800
H 	H 	0.65850 0.37024 0.49816 0.05300
H 	H 	0.85299 0.47761 0.39261 0.05500
C 	C 	0.14300 0.05673 0.75892 -0.12300
C 	C 	0.11760 0.01685 0.74055 0.00700
C 	C 	0.07707 0.02178 0.70328 0.27700
C 	C 	0.05973 0.06615 0.69091 -0.02300
C 	C 	0.08306 0.10598 0.71465 -0.12000
C 	C 	0.12582 0.10105 0.74627 0.39000
C 	C 	0.13057 0.97074 0.76658 0.03800
F 	F 	0.05425 0.98364 0.67975 -0.40100
H 	H 	0.02745 0.06947 0.66465 0.09500
F 	F 	0.14979 0.13926 0.76712 -0.46600
H 	H 	0.17517 0.05347 0.78525 0.13400
C 	C 	0.17676 0.95434 0.75924 0.27500
C 	C 	0.18876 0.91154 0.78603 -0.04000
C 	C 	0.15417 0.88279 0.81425 -0.14700
C 	C 	0.10866 0.89996 0.82471 0.37500
C 	C 	0.09711 0.94405 0.80200 -0.14600
F 	F 	0.20975 0.97942 0.72537 -0.42400
H 	H 	0.22484 0.90051 0.78428 0.10000
F 	F 	0.07551 0.87379 0.85611 -0.43300
H 	H 	0.06201 0.95722 0.81114 0.16100
C 	C 	0.25481 0.14384 0.68280 -0.15000
C 	C 	0.26177 0.18774 0.65461 0.02400
C 	C 	0.30555 0.20921 0.65852 0.27000
C 	C 	0.33958 0.19010 0.69839 -0.04200
C 	C 	0.32967 0.15007 0.73555 -0.20400
C 	C 	0.28864 0.12500 0.72319 0.37200
C 	C 	0.22142 0.21398 0.63137 0.01000
F 	F 	0.31395 0.25016 0.62759 -0.43300
H 	H 	0.37195 0.20877 0.70546 0.07500
F 	F 	0.27952 0.08475 0.75537 -0.53400
H 	H 	0.22194 0.12582 0.67716 0.15200
C 	C 	0.19497 0.19586 0.57857 0.29600
C 	C 	0.15113 0.21448 0.56704 -0.04700
C 	C 	0.13304 0.25111 0.60858 -0.17600
C 	C 	0.16152 0.27226 0.65686 0.32900
C 	C 	0.20541 0.25354 0.66851 -0.14500
F 	F 	0.21051 0.15833 0.54124 -0.37800
H 	H 	0.13005 0.19848 0.52877 0.11900
F 	F 	0.14597 0.30978 0.69425 -0.51900
H 	H 	0.22599 0.26833 0.70863 0.10700
C 	C 	0.80211 0.24793 0.49648 -0.01400
C 	C 	0.76222 0.21981 0.49875 -0.04100
C 	C 	0.72215 0.23687 0.53366 0.01900
C 	C 	0.72251 0.28133 0.56532 0.00500
C 	C 	0.76424 0.30616 0.57123 -0.05600
C 	C 	0.80423 0.28928 0.53598 0.03000
S 	S 	0.85575 0.22663 0.48901 0.15800
C 	C 	0.88365 0.26820 0.53196 -0.07900
C 	C 	0.85009 0.30061 0.55594 -0.01400
S 	S 	0.68054 0.28220 0.62517 0.01000
C 	C 	0.65994 0.22825 0.61350 -0.02200
C 	C 	0.68694 0.20708 0.56068 -0.04200
H 	H 	0.76361 0.18419 0.47938 0.05600
H 	H 	0.76672 0.33459 0.60799 0.05100
H 	H 	0.85682 0.32599 0.59589 0.06000
H 	H 	0.68655 0.16989 0.55006 0.04100
C 	C 	0.87812 0.59606 0.38136 -0.04800
C 	C 	0.88380 0.56097 0.32991 0.10000
C 	C 	0.92900 0.54704 0.30849 -0.07900
C 	C 	0.96815 0.56911 0.33507 -0.01300
C 	C 	0.96212 0.60925 0.37748 0.07700
C 	C 	0.91700 0.62253 0.39986 -0.05400
N 	N 	0.84642 0.54179 0.29933 -0.20100
H 	H 	0.93371 0.51813 0.27252 0.05700
C 	C 	0.01433 0.54631 0.32600 0.00100
N 	N 	0.99943 0.63440 0.39821 -0.19900
H 	H 	0.91236 0.65175 0.43533 0.05900
C 	C 	0.04531 0.56098 0.27440 -0.08700
C 	C 	0.09082 0.54296 0.26819 0.10100
C 	C 	0.10381 0.50622 0.31011 -0.04200
C 	C 	0.07290 0.49179 0.36192 -0.06200
C 	C 	0.02829 0.51149 0.37050 0.09100
H 	H 	0.03480 0.58826 0.24124 0.05800
N 	N 	0.12240 0.56274 0.22477 -0.19800
H 	H 	0.08389 0.46572 0.39654 0.08900
N 	N 	0.99932 0.49721 0.42194 -0.20300
H 	H 	0.11198 0.58839 0.19196 0.08400
H 	H 	0.15786 0.55488 0.22578 0.09300
H 	H 	0.00992 0.47131 0.45420 0.11300
H 	H 	0.96619 0.51158 0.43066 0.10100
H 	H 	0.99466 0.66335 0.43085 0.09300
H 	H 	0.03334 0.62619 0.38111 0.09700
H 	H 	0.81329 0.55639 0.30541 0.09600
H 	H 	0.85093 0.51395 0.26463 0.09200
C 	C 	0.00490 0.57066 0.07978 -0.04300
C 	C 	0.03976 0.59308 0.04006 0.09600
C 	C 	0.08285 0.57104 0.02725 -0.07400
C 	C 	0.09297 0.52889 0.05771 -0.01000
C 	C 	0.06002 0.50939 0.10405 0.07300
C 	C 	0.01581 0.52996 0.11338 -0.04800
N 	N 	0.03250 0.63624 0.01579 -0.19200
H 	H 	0.10882 0.58696 0.99401 0.04600
C 	C 	0.13811 0.50566 0.03999 0.00800
N 	N 	0.07049 0.47102 0.13924 -0.19500
H 	H 	0.98960 0.51377 0.14593 0.04300
C 	C 	0.17921 0.52596 0.06336 -0.09100
C 	C 	0.22267 0.51504 0.03198 0.11500
C 	C 	0.22513 0.48097 0.97876 -0.06000
C 	C 	0.18465 0.45690 0.96088 -0.04500
C 	C 	0.14100 0.46930 0.99022 0.06000
H 	H 	0.17697 0.55332 0.10207 0.05500
N 	N 	0.26129 0.53873 0.05131 -0.20100
H 	H 	0.18691 0.42941 0.92224 0.04800
N 	N 	0.10208 0.44677 0.96952 -0.19200
H 	H 	0.25927 0.56230 0.09250 0.09300
H 	H 	0.29313 0.53550 0.02453 0.10500
H 	H 	0.10463 0.42019 0.93245 0.08200
H 	H 	0.06906 0.45494 0.99022 0.08900
H 	H 	0.04580 0.45656 0.17272 0.08600
H 	H 	0.10364 0.45634 0.13572 0.09200
H 	H 	0.00363 0.65613 0.03218 0.09200
H 	H 	0.05732 0.65149 0.98330 0.06100
C 	C 	0.86884 0.61660 0.95523 -0.05500
C 	C 	0.88966 0.64783 0.90898 0.11500
C 	C 	0.87419 0.64858 0.84255 -0.08400
C 	C 	0.83644 0.62090 0.82314 0.00000
C 	C 	0.81222 0.59381 0.87178 0.07300
C 	C 	0.82915 0.59138 0.93728 -0.04500
N 	N 	0.92376 0.67767 0.92846 -0.19800
H 	H 	0.89185 0.67033 0.80566 0.06700
C 	C 	0.82675 0.61561 0.75046 -0.00200
N 	N 	0.77298 0.56996 0.85576 -0.19300
H 	H 	0.81212 0.56886 0.97378 0.05000
C 	C 	0.84598 0.57757 0.71369 -0.08200
C 	C 	0.83697 0.57048 0.64503 0.10800
C 	C 	0.80959 0.60331 0.61174 -0.04800
C 	C 	0.79022 0.64143 0.64873 -0.05000
C 	C 	0.79850 0.64792 0.71792 0.07500
H 	H 	0.86739 0.55280 0.73907 0.06400
N 	N 	0.85363 0.53158 0.61194 -0.20000
H 	H 	0.76933 0.66661 0.62333 0.05600
N 	N 	0.77927 0.68512 0.75262 -0.19500
H 	H 	0.87530 0.50853 0.63615 0.09700
H 	H 	0.84365 0.52276 0.56324 0.10100
H 	H 	0.75865 0.70890 0.72801 0.09600
H 	H 	0.78437 0.69076 0.80419 0.10400
H 	H 	0.75611 0.54891 0.89135 0.08900
H 	H 	0.75803 0.57318 0.80873 0.09200
H 	H 	0.93137 0.68258 0.97938 0.09700
H 	H 	0.94130 0.69822 0.89299 0.09500
C 	C 	0.05948 0.01762 0.02595 -0.13400
C 	C 	0.07283 0.03417 0.96197 0.01000
C 	C 	0.03887 0.04012 0.91349 0.30700
C 	C 	0.99273 0.02642 0.92716 -0.03600
C 	C 	0.97977 0.00790 0.99015 -0.17300
C 	C 	0.01307 0.00515 0.04033 0.38700
C 	C 	0.12289 0.04069 0.94382 0.01900
F 	F 	0.05056 0.05893 0.85312 -0.42600
H 	H 	0.96717 0.02983 0.88857 0.08500
F 	F 	0.00025 0.99142 0.10334 -0.40400
H 	H 	0.08519 0.01400 0.06427 0.12300
C 	C 	0.14125 0.08544 0.93356 0.30000
C 	C 	0.18907 0.09123 0.91890 -0.05600
C 	C 	0.21907 0.05253 0.91584 -0.13200
C 	C 	0.20034 0.00765 0.92507 0.37600
C 	C 	0.15257 0.00194 0.93873 -0.16900
F 	F 	0.11284 0.12324 0.93776 -0.41100
H 	H 	0.20266 0.12569 0.90912 0.10700
F 	F 	0.22860 0.96972 0.92332 -0.39800
H 	H 	0.13868 0.96732 0.94638 0.15000
C 	C 	0.83511 0.14175 0.98793 -0.17400
C 	C 	0.87257 0.16392 0.01927 0.01900
C 	C 	0.88415 0.15116 0.08459 0.30200
C 	C 	0.86373 0.11178 0.11326 -0.06200
C 	C 	0.83131 0.08519 0.07699 -0.15000
C 	C 	0.81405 0.10287 0.01709 0.35700
C 	C 	0.90465 0.19322 0.97874 -0.00300
F 	F 	0.91771 0.17475 0.11795 -0.43200
H 	H 	0.87526 0.10032 0.16165 0.12900
F 	F 	0.77850 0.08121 0.98548 -0.51700
H 	H 	0.82438 0.15277 0.93885 0.10100
C 	C 	0.94931 0.17635 0.95940 0.29800
C 	C 	0.97394 0.19570 0.90477 -0.08300
C 	C 	0.95379 0.23114 0.86822 -0.16400
C 	C 	0.91210 0.25192 0.89296 0.36600
C 	C 	0.88766 0.23307 0.94829 -0.15500
F 	F 	0.96680 0.13840 0.98922 -0.41600
H 	H 	0.00672 0.18022 0.88705 0.10500
F 	F 	0.89318 0.28763 0.85965 -0.45300
H 	H 	0.85389 0.24721 0.96416 0.10700
C 	C 	0.96728 0.75398 0.77820 -0.18300
C 	C 	0.96241 0.78966 0.82769 0.02200
C 	C 	0.99788 0.79700 0.87393 0.27200
C 	C 	0.03985 0.77275 0.86584 -0.00700
C 	C 	0.04620 0.73923 0.81352 -0.20400
C 	C 	0.00872 0.72823 0.77189 0.40100
C 	C 	0.91885 0.81699 0.83494 0.00300
F 	F 	0.99175 0.82794 0.92660 -0.40500
H 	H 	0.06791 0.78162 0.89843 -0.03000
F 	F 	0.01264 0.69296 0.72502 -0.42700
H 	H 	0.93904 0.74614 0.74481 0.11000
C 	C 	0.92112 0.86592 0.83970 0.29700
C 	C 	0.88722 0.89048 0.87857 -0.04700
C 	C 	0.85259 0.86595 0.91454 -0.19900
C 	C 	0.84391 0.81945 0.89516 0.38200
C 	C 	0.87744 0.79474 0.85577 -0.15900
F 	F 	0.95984 0.88853 0.81674 -0.39700
H 	H 	0.89215 0.92732 0.88907 0.01800
F 	F 	0.80705 0.79644 0.92336 -0.45900
H 	H 	0.87371 0.75746 0.84828 0.10000
C 	C 	0.84872 0.77533 0.31063 -0.00100
C 	C 	0.87743 0.73595 0.30799 -0.04800
C 	C 	0.85985 0.69419 0.28113 0.02600
C 	C 	0.81303 0.69127 0.26237 0.00400
C 	C 	0.78559 0.73137 0.26014 -0.05200
C 	C 	0.80423 0.77385 0.28265 0.02600
S 	S 	0.86962 0.82850 0.29959 0.06600
C 	C 	0.82472 0.85161 0.26106 -0.06900
C 	C 	0.79076 0.81684 0.25529 -0.02300
S 	S 	0.80981 0.64830 0.20509 0.01200
C 	C 	0.86560 0.63174 0.20159 -0.01900
C 	C 	0.88921 0.66072 0.24701 -0.04200
H 	H 	0.91419 0.73923 0.31811 0.05300
H 	H 	0.75378 0.73079 0.23234 0.05100
H 	H 	0.76214 0.81941 0.22128 0.06500
H 	H 	0.92693 0.66307 0.24670 0.04900
C 	C 	0.94072 0.02089 0.25814 -0.17500
C 	C 	0.97848 0.99248 0.27389 0.07600
C 	C 	0.97009 0.95176 0.31028 0.28700
C 	C 	0.92514 0.94176 0.33527 -0.04100
C 	C 	0.88800 0.97177 0.32319 -0.13700
C 	C 	0.89579 0.01096 0.28364 0.36500
C 	C 	0.02690 0.00825 0.25920 -0.02300
F 	F 	0.00568 0.92260 0.32313 -0.37400
H 	H 	0.91952 0.91152 0.36592 0.10200
F 	F 	0.86042 0.04094 0.27345 -0.43900
H 	H 	0.94655 0.05170 0.22853 0.15200
C 	C 	0.05878 0.97938 0.22219 0.35600
C 	C 	0.10441 0.99464 0.20898 -0.02700
C 	C 	0.11886 0.03826 0.23361 -0.15200
C 	C 	0.08685 0.06760 0.26890 0.38200
C 	C 	0.04127 0.05245 0.28240 -0.13900
F 	F 	0.04516 0.93724 0.19727 -0.38300
H 	H 	0.12839 0.97272 0.17905 0.11900
F 	F 	0.09933 0.11159 0.28713 -0.42600
H 	H 	0.01698 0.07515 0.31057 0.11900
C 	C 	0.81856 0.21493 0.25066 -0.15800
C 	C 	0.83812 0.17354 0.27287 0.00800
C 	C 	0.88631 0.17183 0.28343 0.31800
C 	C 	0.91243 0.21299 0.28365 -0.03400
C 	C 	0.89022 0.25579 0.27490 -0.20100
C 	C 	0.84497 0.25581 0.25018 0.38900
C 	C 	0.80725 0.13487 0.29415 0.03000
F 	F 	0.90697 0.13107 0.29837 -0.39800
H 	H 	0.94843 0.21219 0.29828 0.05000
F 	F 	0.82437 0.29662 0.23528 -0.45900
H 	H 	0.78199 0.21625 0.23894 0.10300
C 	C 	0.80604 0.12056 0.36170 0.27900
C 	C 	0.77363 0.08733 0.38339 -0.06000
C 	C 	0.74469 0.06513 0.33686 -0.16800
C 	C 	0.74381 0.08165 0.27028 0.37900
C 	C 	0.77524 0.11595 0.24911 -0.15300
F 	F 	0.83630 0.13878 0.40629 -0.43000
H 	H 	0.77069 0.07940 0.43641 -0.04600
F 	F 	0.71231 0.06477 0.22628 -0.44400
H 	H 	0.77443 0.12814 0.19778 0.11300
C 	C 	0.86254 0.87560 0.63836 -0.14400
C 	C 	0.90352 0.86397 0.60065 0.01100
C 	C 	0.90459 0.86697 0.52998 0.28200
C 	C 	0.86447 0.87872 0.49697 -0.05100
C 	C 	0.82314 0.88962 0.53402 -0.18100
C 	C 	0.82240 0.88875 0.60508 0.35700
C 	C 	0.94533 0.84811 0.63439 0.00600
F 	F 	0.94453 0.85759 0.49320 -0.43300
H 	H 	0.86510 0.87836 0.44225 0.08300
F 	F 	0.78257 0.89888 0.64160 -0.46900
H 	H 	0.86162 0.87382 0.69307 0.11100
C 	C 	0.97416 0.88083 0.66607 0.30700
C 	C 	0.02058 0.86972 0.67751 -0.02300
C 	C 	0.03919 0.82684 0.65393 -0.16000
C 	C 	0.00908 0.79253 0.62850 0.36600
C 	C 	0.96208 0.80287 0.62041 -0.15000
F 	F 	0.95830 0.92457 0.68078 -0.39600
H 	H 	0.04289 0.89574 0.69995 0.13700
F 	F 	0.02583 0.75001 0.60845 -0.44200
H 	H 	0.93959 0.77692 0.59779 0.10900
C 	C 	0.64224 0.67898 0.40936 0.00000
C 	C 	0.62185 0.72278 0.42133 -0.05400
C 	C 	0.62093 0.75376 0.36783 0.01500
C 	C 	0.63838 0.74004 0.30294 -0.00200
C 	C 	0.66239 0.69790 0.29256 -0.05700
C 	C 	0.66533 0.66785 0.34698 0.02500
S 	S 	0.66916 0.65061 0.46863 0.01100
C 	C 	0.70958 0.62307 0.41968 -0.02000
C 	C 	0.70310 0.63634 0.35282 -0.04600
S 	S 	0.65311 0.78818 0.26275 0.03100
C 	C 	0.63784 0.82756 0.32329 -0.06300
C 	C 	0.62022 0.80280 0.37889 -0.02300
H 	H 	0.61190 0.73436 0.47244 0.04800
H 	H 	0.68175 0.69063 0.24545 0.04800
H 	H 	0.72872 0.62967 0.31218 0.05000
H 	H 	0.61490 0.81876 0.42885 0.05100
