data_crystal

_cell_length_a 39.74163
_cell_length_b 41.16027
_cell_length_c 25.10557
_cell_angle_alpha 93.51678
_cell_angle_beta  93.00862
_cell_angle_gamma 90.08497

_symmetry_space_group_name_	'P 1'
_symmetry_space_group_name_H-M	'P 1'

loop_
_symmetry_equiv_pos_as_xyz
  x,y,z

loop_
_atom_site_label
_atom_site_type_symbol
_atom_site_fract_x
_atom_site_fract_y
_atom_site_fract_z
_atom_site_charge
Cd	Cd	0.01556 0.91067 0.27468 1.24300
Cd	Cd	0.01294 0.94806 0.40609 1.19700
O 	O 	0.04944 0.86117 0.26423 -0.31600
O 	O 	0.01738 0.87797 0.19749 -0.33300
C 	C 	0.03841 0.85626 0.21486 0.27700
O 	O 	0.97602 0.94978 0.26807 -0.35800
O 	O 	0.99857 0.98086 0.34024 -0.41900
C 	C 	0.97435 0.97524 0.30289 0.28600
C 	C 	0.97384 0.88289 0.34929 0.31300
O 	O 	0.05683 0.93628 0.35091 -0.43500
O 	O 	0.96656 0.87119 0.30053 -0.30100
O 	O 	0.00014 0.90174 0.35490 -0.52100
C 	C 	0.06797 0.95555 0.31634 0.30100
O 	O 	0.05748 0.94874 0.26674 -0.32900
Cd	Cd	0.00194 0.89929 0.96975 1.24300
Cd	Cd	0.97657 0.92782 0.84265 1.17800
O 	O 	0.04367 0.85559 0.96703 -0.32100
O 	O 	0.02576 0.87570 0.04333 -0.33400
C 	C 	0.04434 0.85415 0.01849 0.27800
O 	O 	0.97119 0.94410 0.98947 -0.35100
O 	O 	0.94199 0.94241 0.90797 -0.44200
C 	C 	0.95160 0.95832 0.95340 0.29100
C 	C 	0.04547 0.94092 0.91882 0.31300
O 	O 	0.97343 0.87714 0.87764 -0.44700
O 	O 	0.05591 0.93874 0.96873 -0.26500
O 	O 	0.02086 0.92177 0.90204 -0.54300
C 	C 	0.94892 0.86614 0.90407 0.30200
O 	O 	0.95319 0.86877 0.95601 -0.34000
C 	C 	0.06362 0.64276 0.87847 0.12200
N 	N 	0.04570 0.61650 0.89150 -0.14200
C 	C 	0.03938 0.59127 0.85477 0.12800
N 	N 	0.05081 0.59260 0.80488 -0.14300
C 	C 	0.06956 0.61831 0.79220 0.12700
N 	N 	0.07605 0.64333 0.82911 -0.14200
C 	C 	0.07342 0.64927 0.32117 0.12400
N 	N 	0.04721 0.62854 0.30864 -0.14300
C 	C 	0.03917 0.60579 0.34265 0.13000
N 	N 	0.05712 0.60394 0.38983 -0.14400
C 	C 	0.08251 0.62542 0.40374 0.12700
N 	N 	0.09085 0.64791 0.36912 -0.14200
Cd	Cd	0.78148 0.91841 0.72821 1.24400
Cd	Cd	0.82693 0.95581 0.84155 1.17800
O 	O 	0.72716 0.89322 0.74473 -0.31700
O 	O 	0.74453 0.89586 0.66330 -0.34100
C 	C 	0.72130 0.88678 0.69390 0.27600
O 	O 	0.82412 0.94490 0.69344 -0.35700
O 	O 	0.85829 0.94600 0.77016 -0.44000
C 	C 	0.85114 0.95610 0.72204 0.29200
C 	C 	0.76048 0.98015 0.77156 0.30700
O 	O 	0.80835 0.90282 0.82102 -0.44700
O 	O 	0.74605 0.97368 0.72413 -0.26900
O 	O 	0.77785 0.95665 0.79099 -0.54000
C 	C 	0.82453 0.87975 0.79548 0.30100
O 	O 	0.81660 0.87510 0.74451 -0.33600
Cd	Cd	0.81361 0.95061 0.50863 1.24500
Cd	Cd	0.86437 0.97012 0.40205 1.17700
O 	O 	0.77493 0.90408 0.49146 -0.30100
O 	O 	0.77965 0.93071 0.56986 -0.34300
C 	C 	0.76398 0.90820 0.53920 0.27500
O 	O 	0.84981 0.98798 0.54677 -0.35900
O 	O 	0.86059 0.00940 0.46739 -0.41400
C 	C 	0.86921 0.00520 0.51783 0.29600
C 	C 	0.87162 0.91284 0.48692 0.30600
O 	O 	0.80654 0.96691 0.40876 -0.42300
O 	O 	0.86048 0.90606 0.53311 -0.27200
O 	O 	0.85236 0.93123 0.45877 -0.53200
C 	C 	0.78660 0.99015 0.42491 0.29800
O 	O 	0.77935 0.99086 0.47511 -0.34900
C 	C 	0.52680 0.81527 0.83011 0.12300
N 	N 	0.52434 0.80370 0.87936 -0.14000
C 	C 	0.50014 0.81531 0.91179 0.12600
N 	N 	0.47803 0.83791 0.89415 -0.14300
C 	C 	0.47893 0.84777 0.84363 0.12800
N 	N 	0.50339 0.83642 0.81176 -0.14300
C 	C 	0.54770 0.89184 0.37202 0.12200
N 	N 	0.53960 0.87439 0.32541 -0.14000
C 	C 	0.51572 0.88550 0.29039 0.12800
N 	N 	0.50037 0.91437 0.30178 -0.14400
C 	C 	0.50835 0.93181 0.34840 0.12800
N 	N 	0.53130 0.92002 0.38415 -0.14300
Cd	Cd	0.82644 0.13065 0.24440 1.24200
Cd	Cd	0.83771 0.11482 0.38245 1.19500
O 	O 	0.79428 0.17903 0.22078 -0.31400
O 	O 	0.82199 0.15044 0.16123 -0.34100
C 	C 	0.80415 0.17629 0.17221 0.28000
O 	O 	0.86332 0.08943 0.24513 -0.37400
O 	O 	0.84762 0.07192 0.32524 -0.40900
C 	C 	0.86920 0.07193 0.28708 0.29500
C 	C 	0.87499 0.16760 0.31105 0.31400
O 	O 	0.79035 0.11977 0.32574 -0.43100
O 	O 	0.87958 0.17061 0.26046 -0.28100
O 	O 	0.84816 0.15158 0.32103 -0.52400
C 	C 	0.77548 0.09596 0.29705 0.30900
O 	O 	0.78205 0.09412 0.24641 -0.34600
Cd	Cd	0.83318 0.13785 0.93506 1.24200
Cd	Cd	0.84404 0.08640 0.81844 1.18000
O 	O 	0.79408 0.18352 0.92595 -0.31500
O 	O 	0.81904 0.17411 0.00341 -0.33800
C 	C 	0.79949 0.19307 0.97589 0.27000
O 	O 	0.86370 0.09597 0.96484 -0.36000
O 	O 	0.88468 0.08122 0.88343 -0.44700
C 	C 	0.87955 0.07479 0.93321 0.29100
C 	C 	0.78263 0.09132 0.90036 0.31100
O 	O 	0.85277 0.14174 0.83711 -0.44500
O 	O 	0.77758 0.10251 0.94919 -0.26700
O 	O 	0.80611 0.10567 0.87685 -0.54300
C 	C 	0.88033 0.15571 0.85749 0.30000
O 	O 	0.88173 0.16215 0.90912 -0.34200
C 	C 	0.81003 0.39420 0.82148 0.12200
N 	N 	0.79663 0.39421 0.77054 -0.13900
C 	C 	0.80956 0.41411 0.73553 0.12900
N 	N 	0.83577 0.43415 0.75154 -0.14400
C 	C 	0.84880 0.43476 0.80267 0.12700
N 	N 	0.83530 0.41535 0.83801 -0.14200
C 	C 	0.82353 0.39561 0.28023 0.12400
N 	N 	0.84619 0.41814 0.26735 -0.14300
C 	C 	0.84853 0.44740 0.29520 0.13000
N 	N 	0.82823 0.45408 0.33620 -0.14400
C 	C 	0.80658 0.43113 0.35111 0.12800
N 	N 	0.80371 0.40217 0.32205 -0.14200
Cd	Cd	0.03130 0.07459 0.69349 1.24400
Cd	Cd	0.99428 0.06245 0.81736 1.17800
O 	O 	0.08662 0.10106 0.70300 -0.31800
O 	O 	0.06625 0.08131 0.62452 -0.33300
C 	C 	0.09106 0.09604 0.65243 0.27400
O 	O 	0.98526 0.04351 0.67038 -0.34600
O 	O 	0.95763 0.05906 0.74580 -0.43500
C 	C 	0.96065 0.03924 0.70304 0.28900
C 	C 	0.05425 0.02270 0.75575 0.31000
O 	O 	0.01224 0.10861 0.77840 -0.44900
O 	O 	0.06486 0.01923 0.70744 -0.26900
O 	O 	0.03889 0.04976 0.76707 -0.53700
C 	C 	0.99438 0.12643 0.74651 0.30300
O 	O 	0.99830 0.12083 0.69547 -0.33200
Cd	Cd	0.03875 0.13028 0.49413 1.24400
Cd	Cd	0.98380 0.09864 0.38777 1.19200
O 	O 	0.08018 0.17201 0.47524 -0.31600
O 	O 	0.07632 0.15492 0.55532 -0.34800
C 	C 	0.09374 0.17127 0.52338 0.27700
O 	O 	0.00185 0.10026 0.53460 -0.36900
O 	O 	0.98749 0.06798 0.45911 -0.40600
C 	C 	0.98172 0.07843 0.50850 0.30400
C 	C 	0.98237 0.16735 0.46029 0.31000
O 	O 	0.04197 0.09981 0.39903 -0.44700
O 	O 	0.99541 0.18015 0.50578 -0.27000
O 	O 	0.99980 0.14458 0.43739 -0.53800
C 	C 	0.06078 0.07808 0.42148 0.29800
O 	O 	0.06940 0.08418 0.47195 -0.33200
C 	C 	0.30230 0.08733 0.81614 0.12300
N 	N 	0.32428 0.06330 0.80278 -0.14100
C 	C 	0.34438 0.05009 0.84112 0.12900
N 	N 	0.34158 0.06015 0.89324 -0.14300
C 	C 	0.32003 0.08444 0.90676 0.12800
N 	N 	0.30092 0.09847 0.86810 -0.14300
C 	C 	0.31406 0.14451 0.39004 0.12200
N 	N 	0.34607 0.13696 0.40682 -0.14000
C 	C 	0.36737 0.12271 0.37179 0.12800
N 	N 	0.35738 0.11815 0.31935 -0.14400
C 	C 	0.32586 0.12640 0.30211 0.12900
N 	N 	0.30411 0.13928 0.33747 -0.14200
C 	C 	0.31609 0.09427 0.96354 -0.04700
C 	C 	0.28580 0.08804 0.98867 0.10000
C 	C 	0.28363 0.09662 0.04340 -0.08100
C 	C 	0.31154 0.10970 0.07388 -0.00700
C 	C 	0.34173 0.11613 0.04871 0.07600
C 	C 	0.34355 0.10856 0.99363 -0.05600
N 	N 	0.25922 0.07285 0.96112 -0.19900
H 	H 	0.26056 0.09180 0.06283 0.06000
C 	C 	0.30993 0.11348 0.13280 -0.00300
N 	N 	0.36907 0.12928 0.07715 -0.19500
H 	H 	0.36666 0.11335 0.97426 0.04900
C 	C 	0.31622 0.08634 0.16286 -0.08500
C 	C 	0.31805 0.08953 0.21890 0.10500
C 	C 	0.31518 0.12075 0.24516 -0.05000
C 	C 	0.30647 0.14747 0.21527 -0.05200
C 	C 	0.30343 0.14408 0.15915 0.07100
H 	H 	0.31990 0.06269 0.14255 0.05800
N 	N 	0.32200 0.06254 0.24725 -0.19900
H 	H 	0.30329 0.17121 0.23555 0.05000
N 	N 	0.29481 0.17027 0.13094 -0.19400
H 	H 	0.32561 0.03976 0.22766 0.08800
H 	H 	0.31994 0.06366 0.28861 0.09400
H 	H 	0.29081 0.19292 0.15070 0.08700
H 	H 	0.29136 0.16832 0.08936 0.09200
H 	H 	0.39128 0.13372 0.05823 0.08700
H 	H 	0.36859 0.13538 0.11806 0.09100
H 	H 	0.26098 0.06326 0.92193 0.09700
H 	H 	0.23665 0.06938 0.97964 0.09300
C 	C 	0.26036 0.15824 0.51059 -0.05800
C 	C 	0.23312 0.17460 0.48678 0.00300
C 	C 	0.23662 0.18752 0.43662 0.00700
C 	C 	0.26562 0.18091 0.40870 -0.03400
C 	C 	0.29008 0.15934 0.42808 -0.02800
C 	C 	0.28796 0.14888 0.48073 0.02800
C 	C 	0.19942 0.17231 0.50908 0.01300
S 	S 	0.20393 0.21004 0.40660 -0.03600
H 	H 	0.26799 0.19071 0.36995 0.04900
S 	S 	0.31781 0.12230 0.50852 -0.03900
H 	H 	0.25839 0.14969 0.55033 0.04800
C 	C 	0.18143 0.14259 0.50443 -0.00300
C 	C 	0.14739 0.14213 0.51540 -0.00600
C 	C 	0.13065 0.17103 0.52979 -0.08100
C 	C 	0.14916 0.20019 0.53906 0.05200
C 	C 	0.18363 0.20061 0.52952 -0.07100
S 	S 	0.20054 0.10613 0.48146 -0.02100
H 	H 	0.13331 0.11948 0.50955 0.05400
S 	S 	0.12943 0.23630 0.56169 -0.03800
H 	H 	0.19772 0.22323 0.53532 0.05400
H 	H 	0.30842 0.09078 0.49438 0.03700
H 	H 	0.19802 0.10358 0.42673 0.04300
H 	H 	0.11722 0.25236 0.51858 0.04500
H 	H 	0.18147 0.18905 0.37915 0.04300
C 	C 	0.25551 0.10509 0.68561 -0.06000
C 	C 	0.22206 0.10203 0.69979 0.00700
C 	C 	0.21515 0.09737 0.75336 0.00400
C 	C 	0.24163 0.09443 0.79151 -0.03100
C 	C 	0.27518 0.09589 0.77704 -0.03000
C 	C 	0.28212 0.10245 0.72406 0.03000
C 	C 	0.19423 0.10271 0.65844 0.01200
S 	S 	0.17335 0.09447 0.77293 -0.01800
H 	H 	0.23611 0.08977 0.83219 0.04800
S 	S 	0.32369 0.10913 0.70611 -0.03700
H 	H 	0.26083 0.10956 0.64477 0.04900
C 	C 	0.17558 0.13140 0.65289 0.00100
C 	C 	0.14097 0.12932 0.63949 -0.00800
C 	C 	0.12500 0.09877 0.63249 -0.06600
C 	C 	0.14519 0.07067 0.62673 0.04800
C 	C 	0.18004 0.07309 0.63789 -0.06200
S 	S 	0.19431 0.16967 0.66955 -0.03200
H 	H 	0.12587 0.15123 0.64139 0.05500
S 	S 	0.12676 0.03185 0.61544 0.02500
H 	H 	0.19511 0.05116 0.63820 0.05600
H 	H 	0.33150 0.14152 0.71484 0.03800
H 	H 	0.21346 0.17827 0.62885 0.03700
H 	H 	0.12541 0.01767 0.66322 0.05900
H 	H 	0.16121 0.12508 0.78459 0.04400
C 	C 	0.79210 0.43498 0.40468 -0.04900
C 	C 	0.76652 0.41379 0.41945 0.10200
C 	C 	0.76315 0.40877 0.47380 -0.08600
C 	C 	0.78205 0.42744 0.51337 -0.00500
C 	C 	0.80289 0.45290 0.49850 0.07300
C 	C 	0.80792 0.45631 0.44425 -0.05400
N 	N 	0.74401 0.39992 0.38219 -0.19900
H 	H 	0.74569 0.39051 0.48528 0.05600
C 	C 	0.78344 0.41748 0.56912 -0.00400
N 	N 	0.81863 0.47369 0.53609 -0.19400
H 	H 	0.82547 0.47459 0.43314 0.05400
C 	C 	0.80989 0.39744 0.58599 -0.08500
C 	C 	0.81756 0.39421 0.64059 0.10500
C 	C 	0.79805 0.41113 0.67880 -0.05000
C 	C 	0.76951 0.42844 0.66180 -0.05200
C 	C 	0.76185 0.43165 0.60709 0.07000
H 	H 	0.82566 0.38569 0.55661 0.05900
N 	N 	0.84390 0.37526 0.65603 -0.19900
H 	H 	0.75398 0.44051 0.69120 0.04900
N 	N 	0.73429 0.44888 0.59139 -0.19400
H 	H 	0.85851 0.36331 0.62752 0.09200
H 	H 	0.84981 0.37174 0.69625 0.09600
H 	H 	0.71904 0.46008 0.61975 0.08600
H 	H 	0.72726 0.45066 0.55102 0.08900
H 	H 	0.83484 0.49178 0.52482 0.08600
H 	H 	0.81426 0.47275 0.57660 0.09100
H 	H 	0.74178 0.40809 0.34360 0.09500
H 	H 	0.72663 0.38268 0.39280 0.08700
C 	C 	0.90628 0.15233 0.76932 -0.04500
C 	C 	0.90963 0.16009 0.82464 -0.09500
C 	C 	0.94195 0.16739 0.84845 0.09100
C 	C 	0.97046 0.16052 0.81946 -0.04200
C 	C 	0.96696 0.14686 0.76688 -0.09400
C 	C 	0.93486 0.14618 0.74010 0.09400
N 	N 	0.93119 0.13930 0.68351 -0.02000
H 	H 	0.88147 0.14987 0.74936 0.05000
H 	H 	0.99533 0.16388 0.83891 0.05900
N 	N 	0.94591 0.18224 0.90142 -0.01700
O 	O 	0.91083 0.11631 0.66394 -0.10800
O 	O 	0.94493 0.15853 0.65152 -0.07400
O 	O 	0.96247 0.16726 0.93859 -0.11100
O 	O 	0.93575 0.21193 0.91121 -0.10000
C 	C 	0.82039 0.28096 0.98557 -0.06800
C 	C 	0.78974 0.29240 0.96380 0.01600
C 	C 	0.76045 0.27329 0.96629 -0.00200
C 	C 	0.76317 0.24141 0.98267 -0.00800
C 	C 	0.79503 0.22769 0.99264 -0.07600
C 	C 	0.82338 0.24858 0.99921 0.04800
C 	C 	0.79078 0.31823 0.92529 0.00700
S 	S 	0.72086 0.28763 0.94363 -0.02700
H 	H 	0.74096 0.22598 0.98054 0.04300
S 	S 	0.86355 0.23356 0.01726 -0.01700
H 	H 	0.84278 0.29607 0.98592 0.05400
C 	C 	0.78124 0.35056 0.93917 0.00800
C 	C 	0.78654 0.37506 0.90400 -0.03400
C 	C 	0.80152 0.36770 0.85536 -0.02900
C 	C 	0.81030 0.33524 0.84108 0.03000
C 	C 	0.80429 0.31074 0.87555 -0.05800
S 	S 	0.76221 0.36066 0.99969 -0.04300
H 	H 	0.77954 0.39994 0.91491 0.04600
S 	S 	0.83076 0.32522 0.78174 -0.03100
H 	H 	0.81137 0.28588 0.86462 0.05800
H 	H 	0.87886 0.22250 0.97207 0.05700
H 	H 	0.78403 0.37910 0.03308 0.04000
H 	H 	0.86477 0.32992 0.79086 0.03700
H 	H 	0.70503 0.30235 0.98581 0.03700
C 	C 	0.89410 0.17445 0.40754 -0.02500
C 	C 	0.90024 0.17894 0.35385 -0.11200
C 	C 	0.93192 0.19125 0.34142 0.09500
C 	C 	0.95857 0.19236 0.38019 -0.04400
C 	C 	0.95376 0.18197 0.43136 -0.09600
C 	C 	0.92073 0.17657 0.44669 0.07500
N 	N 	0.91417 0.17321 0.50174 -0.02400
H 	H 	0.86894 0.16859 0.41869 -0.01000
H 	H 	0.98358 0.19914 0.36941 0.06000
N 	N 	0.93692 0.20332 0.29019 -0.01800
O 	O 	0.89105 0.15307 0.51429 -0.12000
O 	O 	0.92830 0.19307 0.53863 -0.07800
O 	O 	0.92092 0.22913 0.27564 -0.10000
O 	O 	0.95978 0.19043 0.26036 -0.11100
C 	C 	0.81463 0.30521 0.24128 -0.05900
C 	C 	0.81685 0.30505 0.18571 0.00500
C 	C 	0.82147 0.33451 0.16145 0.00700
C 	C 	0.82209 0.36395 0.19249 -0.03400
C 	C 	0.82033 0.36422 0.24830 -0.03000
C 	C 	0.81750 0.33437 0.27291 0.02900
C 	C 	0.81560 0.27360 0.15394 0.01700
S 	S 	0.82878 0.33473 0.09309 -0.04000
H 	H 	0.82474 0.38665 0.17334 0.04800
S 	S 	0.82048 0.33271 0.34299 -0.02700
H 	H 	0.81189 0.28241 0.26011 0.05900
C 	C 	0.84450 0.25390 0.15227 -0.00000
C 	C 	0.84090 0.22003 0.14615 -0.00100
C 	C 	0.80865 0.20594 0.14374 -0.06900
C 	C 	0.78055 0.22575 0.13314 0.05400
C 	C 	0.78413 0.25968 0.13827 -0.06600
S 	S 	0.88501 0.27125 0.16194 -0.01300
H 	H 	0.86298 0.20474 0.14994 0.06200
S 	S 	0.74033 0.20836 0.11952 -0.02500
H 	H 	0.76203 0.27501 0.13539 0.05600
H 	H 	0.78897 0.33567 0.36243 0.04100
H 	H 	0.89223 0.27772 0.21549 0.05300
H 	H 	0.73633 0.19862 0.06644 0.04600
H 	H 	0.86254 0.33125 0.08591 0.04000
C 	C 	0.49249 0.96380 0.35959 -0.05000
C 	C 	0.51192 0.99157 0.37808 0.10300
C 	C 	0.49548 0.02062 0.39316 -0.08600
C 	C 	0.46055 0.02360 0.38399 -0.00300
C 	C 	0.44150 0.99664 0.36092 0.07100
C 	C 	0.45746 0.96661 0.35149 -0.05300
N 	N 	0.54617 0.99109 0.37850 -0.19900
H 	H 	0.51014 0.04151 0.40947 0.05700
C 	C 	0.44451 0.05559 0.39555 -0.00500
N 	N 	0.40820 0.99963 0.34646 -0.19400
H 	H 	0.44264 0.94554 0.33647 0.05100
C 	C 	0.44972 0.08082 0.36182 -0.08600
C 	C 	0.42754 0.10729 0.36088 0.10400
C 	C 	0.39868 0.10718 0.39148 -0.05100
C 	C 	0.39702 0.08510 0.43175 -0.05400
C 	C 	0.42029 0.05953 0.43474 0.07200
H 	H 	0.46996 0.07907 0.33446 0.05700
N 	N 	0.43358 0.13239 0.32992 -0.19900
H 	H 	0.37616 0.08618 0.45788 0.05100
N 	N 	0.41858 0.03830 0.47390 -0.19400
H 	H 	0.45417 0.13176 0.30561 0.08900
H 	H 	0.41872 0.15330 0.33154 0.09400
H 	H 	0.39972 0.04053 0.50138 0.08600
H 	H 	0.43666 0.02016 0.47858 0.09000
H 	H 	0.39408 0.97925 0.33188 0.08500
H 	H 	0.39642 0.02227 0.34681 0.09100
H 	H 	0.55897 0.97248 0.35807 0.09700
H 	H 	0.56027 0.01087 0.39568 0.09300
C 	C 	0.45672 0.87442 0.82637 -0.05000
C 	C 	0.42293 0.87654 0.84147 0.10200
C 	C 	0.40551 0.90597 0.83712 -0.08600
C 	C 	0.41990 0.93196 0.81254 -0.00500
C 	C 	0.45188 0.92814 0.79071 0.07100
C 	C 	0.47045 0.89979 0.79930 -0.05300
N 	N 	0.40671 0.85013 0.85795 -0.19800
H 	H 	0.38048 0.90850 0.85210 0.05700
C 	C 	0.40246 0.96379 0.81359 -0.00500
N 	N 	0.46473 0.95143 0.76127 -0.19400
H 	H 	0.49590 0.89779 0.78586 0.05200
C 	C 	0.41598 0.98975 0.84681 -0.08700
C 	C 	0.39903 0.01958 0.85142 0.10300
C 	C 	0.36635 0.02230 0.82684 -0.04800
C 	C 	0.35340 0.99679 0.79197 -0.05300
C 	C 	0.37166 0.96789 0.78385 0.07100
H 	H 	0.44010 0.98692 0.86827 0.05700
N 	N 	0.41473 0.04577 0.87756 -0.19900
H 	H 	0.32882 0.99919 0.77176 0.05300
N 	N 	0.35970 0.94440 0.74719 -0.19400
H 	H 	0.43803 0.04314 0.89814 0.08800
H 	H 	0.40514 0.06924 0.87467 0.09400
H 	H 	0.33637 0.94715 0.72678 0.08700
H 	H 	0.37393 0.92385 0.73706 0.08900
H 	H 	0.48888 0.94896 0.74697 0.08600
H 	H 	0.45043 0.97146 0.75043 0.08900
H 	H 	0.41690 0.82683 0.85315 0.09100
H 	H 	0.38252 0.85237 0.87217 0.08600
C 	C 	0.50153 0.80793 0.96884 -0.04700
C 	C 	0.47168 0.80725 0.99708 0.09700
C 	C 	0.47334 0.81452 0.05253 -0.08100
C 	C 	0.50454 0.82033 0.08016 -0.00800
C 	C 	0.53457 0.81438 0.05338 0.07800
C 	C 	0.53282 0.80845 0.99763 -0.06000
N 	N 	0.44161 0.79929 0.97127 -0.19700
H 	H 	0.45033 0.81694 0.07377 0.05500
C 	C 	0.50547 0.83756 0.13376 -0.00400
N 	N 	0.56504 0.81518 0.08074 -0.19500
H 	H 	0.55584 0.80613 0.97654 0.05600
C 	C 	0.50033 0.81988 0.17865 -0.08700
C 	C 	0.50173 0.83542 0.23016 0.10200
C 	C 	0.51024 0.86893 0.23683 -0.04900
C 	C 	0.51479 0.88667 0.19181 -0.05200
C 	C 	0.51172 0.87151 0.14022 0.07400
H 	H 	0.49480 0.79403 0.17343 0.05500
N 	N 	0.49382 0.81836 0.27256 -0.19900
H 	H 	0.52089 0.91240 0.19694 0.05300
N 	N 	0.51458 0.88968 0.09715 -0.19400
H 	H 	0.48895 0.79336 0.26755 0.08700
H 	H 	0.49077 0.82991 0.31017 0.09400
H 	H 	0.52017 0.91453 0.10243 0.08900
H 	H 	0.51031 0.87969 0.05816 0.09300
H 	H 	0.58722 0.81205 0.06046 0.09100
H 	H 	0.56691 0.81783 0.12243 0.09300
H 	H 	0.44032 0.79026 0.93141 0.09000
H 	H 	0.41938 0.80039 0.99178 0.08500
C 	C 	0.76002 0.04373 0.40932 -0.03300
C 	C 	0.77265 0.01411 0.38825 -0.08700
C 	C 	0.77537 0.00932 0.33239 0.08100
C 	C 	0.77178 0.03585 0.30026 -0.02200
C 	C 	0.76470 0.06686 0.32323 -0.09300
C 	C 	0.75516 0.06989 0.37665 0.07100
N 	N 	0.74165 0.09988 0.39822 -0.02400
H 	H 	0.75515 0.04686 0.45139 0.07400
H 	H 	0.77639 0.03266 0.25810 0.07500
N 	N 	0.78125 0.97759 0.30816 -0.02200
O 	O 	0.71768 0.11448 0.37180 -0.09600
O 	O 	0.75270 0.11215 0.44488 -0.13200
O 	O 	0.76007 0.95404 0.31361 -0.09200
O 	O 	0.80649 0.97279 0.27772 -0.13500
C 	C 	0.93000 0.00818 0.54356 -0.03100
C 	C 	0.89839 0.02327 0.54313 -0.08000
C 	C 	0.89682 0.05743 0.55080 0.10900
C 	C 	0.92629 0.07611 0.54881 -0.02900
C 	C 	0.95686 0.06087 0.53765 -0.06900
C 	C 	0.95934 0.02685 0.54031 0.09400
N 	N 	0.99120 0.01104 0.53526 -0.00500
H 	H 	0.93154 0.98183 0.54119 0.04500
H 	H 	0.92470 0.10240 0.55037 0.08200
N 	N 	0.86493 0.07328 0.55404 -0.01500
O 	O 	0.01744 0.02162 0.56440 -0.09100
O 	O 	0.99419 0.98664 0.50043 -0.20400
O 	O 	0.84576 0.06788 0.59298 -0.08100
O 	O 	0.85403 0.09130 0.51605 -0.13900
C 	C 	0.67052 0.91306 0.53794 -0.06600
C 	C 	0.66285 0.88175 0.51551 0.01600
C 	C 	0.68707 0.85704 0.51981 0.00000
C 	C 	0.72038 0.86521 0.53625 -0.00200
C 	C 	0.72945 0.89785 0.54896 -0.06100
C 	C 	0.70367 0.92119 0.55526 0.04800
C 	C 	0.63329 0.87725 0.47752 0.00600
S 	S 	0.67608 0.81610 0.50364 -0.02300
H 	H 	0.73969 0.84664 0.53498 0.05500
S 	S 	0.71259 0.96077 0.58305 0.00200
H 	H 	0.65125 0.93167 0.53828 0.05500
C 	C 	0.60055 0.87517 0.49590 0.00700
C 	C 	0.57256 0.87760 0.46015 -0.03400
C 	C 	0.57692 0.88253 0.40614 -0.03000
C 	C 	0.60975 0.88287 0.38722 0.02900
C 	C 	0.63764 0.87972 0.42285 -0.05700
S 	S 	0.59434 0.87094 0.56383 -0.04300
H 	H 	0.54738 0.87696 0.47474 0.04600
S 	S 	0.61644 0.88976 0.32000 -0.02400
H 	H 	0.66285 0.88104 0.40855 0.06100
H 	H 	0.72037 0.98040 0.54326 0.05000
H 	H 	0.59472 0.90131 0.58945 0.03700
H 	H 	0.61752 0.92260 0.31400 0.04100
H 	H 	0.66475 0.80270 0.54806 0.03900
C 	C 	0.90971 0.96196 0.69325 -0.03200
C 	C 	0.87708 0.97477 0.69644 -0.08400
C 	C 	0.87181 0.00790 0.68763 0.07300
C 	C 	0.89957 0.02853 0.68272 -0.03500
C 	C 	0.93259 0.01644 0.68667 -0.07700
C 	C 	0.93748 0.98262 0.68861 0.06400
N 	N 	0.97080 0.96956 0.69150 -0.01700
H 	H 	0.91387 0.93631 0.69838 0.05900
H 	H 	0.89552 0.05436 0.67959 0.06600
N 	N 	0.83863 0.02133 0.68855 -0.01300
O 	O 	0.98129 0.95435 0.73310 -0.22100
O 	O 	0.99008 0.97154 0.65153 -0.07800
O 	O 	0.83259 0.04618 0.72111 -0.22900
O 	O 	0.81495 0.00991 0.65477 -0.08500
C 	C 	0.75235 0.00795 0.86070 -0.05000
C 	C 	0.75244 0.00955 0.80494 -0.10900
C 	C 	0.74977 0.04015 0.78281 0.08800
C 	C 	0.75465 0.06846 0.81617 -0.05400
C 	C 	0.76105 0.06633 0.87138 -0.10600
C 	C 	0.75515 0.03655 0.89407 0.09400
N 	N 	0.74968 0.03558 0.94998 -0.01900
H 	H 	0.75061 0.98457 0.87802 0.04700
H 	H 	0.75569 0.09190 0.79883 0.05100
N 	N 	0.74137 0.04262 0.72706 -0.02000
O 	O 	0.76089 0.01120 0.97628 -0.09100
O 	O 	0.72925 0.05627 0.97239 -0.08000
O 	O 	0.71212 0.03244 0.70701 -0.08400
O 	O 	0.76054 0.05946 0.69851 -0.09900
C 	C 	0.66133 0.81846 0.67999 -0.07000
C 	C 	0.63310 0.83541 0.69802 0.01600
C 	C 	0.63148 0.86941 0.69389 -0.00300
C 	C 	0.65977 0.88625 0.67889 -0.00500
C 	C 	0.69037 0.86989 0.67317 -0.07700
C 	C 	0.69006 0.83564 0.66746 0.05000
C 	C 	0.61005 0.81934 0.73264 0.00600
S 	S 	0.59604 0.89153 0.71472 -0.03200
H 	H 	0.65926 0.91260 0.67921 0.04700
S 	S 	0.72656 0.81416 0.65035 -0.03400
H 	H 	0.66203 0.79214 0.68025 0.05500
C 	C 	0.57962 0.80513 0.71142 0.00600
C 	C 	0.55359 0.79962 0.74537 -0.03300
C 	C 	0.55734 0.80914 0.80008 -0.03100
C 	C 	0.58931 0.81978 0.82192 0.03100
C 	C 	0.61568 0.82377 0.78815 -0.05900
S 	S 	0.57329 0.79546 0.64241 -0.04000
H 	H 	0.52954 0.79025 0.72862 0.04600
S 	S 	0.59588 0.83123 0.89041 -0.03700
H 	H 	0.63969 0.83337 0.80467 0.05700
H 	H 	0.74612 0.80944 0.69579 0.04800
H 	H 	0.55540 0.81992 0.61968 0.03700
H 	H 	0.58661 0.86306 0.89949 0.04100
H 	H 	0.57014 0.88826 0.67657 0.03400
C 	C 	0.01023 0.58392 0.32911 -0.05200
C 	C 	0.98363 0.58163 0.36412 0.10400
C 	C 	0.95836 0.55807 0.35241 -0.08600
C 	C 	0.95785 0.53854 0.30466 -0.00400
C 	C 	0.98296 0.54262 0.26763 0.07100
C 	C 	0.00930 0.56491 0.28074 -0.05300
N 	N 	0.98148 0.60270 0.40775 -0.19900
H 	H 	0.93862 0.55537 0.38006 0.05600
C 	C 	0.93113 0.51358 0.29445 -0.00500
N 	N 	0.98207 0.52512 0.21980 -0.19400
H 	H 	0.02926 0.56730 0.25336 0.04900
C 	C 	0.89903 0.52315 0.27565 -0.08600
C 	C 	0.87192 0.50109 0.27191 0.10200
C 	C 	0.87711 0.46906 0.28795 -0.05100
C 	C 	0.90964 0.45891 0.30331 -0.05200
C 	C 	0.93673 0.48094 0.30728 0.07200
H 	H 	0.89502 0.54800 0.26475 0.05600
N 	N 	0.84117 0.51068 0.25245 -0.19900
H 	H 	0.91361 0.43412 0.31459 0.05300
N 	N 	0.96784 0.47075 0.32422 -0.19400
H 	H 	0.83731 0.53466 0.24215 0.08800
H 	H 	0.82114 0.49423 0.24573 0.09300
H 	H 	0.97161 0.44664 0.33391 0.08800
H 	H 	0.98857 0.48647 0.32775 0.09100
H 	H 	0.00105 0.52792 0.19313 0.08500
H 	H 	0.96238 0.50898 0.20820 0.09000
H 	H 	0.99682 0.62336 0.41342 0.09600
H 	H 	0.96283 0.59965 0.43488 0.08700
C 	C 	0.87780 0.45633 0.81937 -0.04900
C 	C 	0.90649 0.44483 0.84847 0.10100
C 	C 	0.93260 0.46670 0.86566 -0.08600
C 	C 	0.93279 0.49844 0.84821 -0.00500
C 	C 	0.90532 0.50913 0.81548 0.07200
C 	C 	0.87734 0.48855 0.80401 -0.05300
N 	N 	0.91015 0.41268 0.85707 -0.19900
H 	H 	0.95388 0.45835 0.88991 0.05500
C 	C 	0.96294 0.51940 0.86137 -0.00500
N 	N 	0.90602 0.53862 0.79382 -0.19400
H 	H 	0.85560 0.49729 0.78125 0.05100
C 	C 	0.99343 0.51094 0.83855 -0.08500
C 	C 	0.02087 0.53260 0.84345 0.10100
C 	C 	0.01653 0.56445 0.86662 -0.05100
C 	C 	0.98731 0.57166 0.89418 -0.05300
C 	C 	0.96091 0.54882 0.89340 0.07100
H 	H 	0.99574 0.48755 0.81676 0.05600
N 	N 	0.05149 0.52245 0.82748 -0.19800
H 	H 	0.98454 0.59541 0.91458 0.05300
N 	N 	0.93362 0.55542 0.92265 -0.19400
H 	H 	0.05417 0.49953 0.80788 0.08700
H 	H 	0.07321 0.53630 0.83750 0.09300
H 	H 	0.93169 0.57773 0.94447 0.08600
H 	H 	0.91475 0.53805 0.92564 0.09000
H 	H 	0.88500 0.54685 0.77183 0.08600
H 	H 	0.92780 0.55293 0.79617 0.09100
H 	H 	0.89533 0.39493 0.83555 0.09400
H 	H 	0.93000 0.40489 0.88205 0.08800
C 	C 	0.07796 0.62147 0.73623 -0.04900
C 	C 	0.11183 0.62283 0.72139 0.10000
C 	C 	0.11855 0.62604 0.66752 -0.08600
C 	C 	0.09217 0.62686 0.62827 -0.00500
C 	C 	0.05833 0.62484 0.64304 0.07300
C 	C 	0.05162 0.62272 0.69702 -0.05200
N 	N 	0.13793 0.62027 0.75820 -0.19900
H 	H 	0.14441 0.62734 0.65599 0.05500
C 	C 	0.10023 0.62879 0.57157 -0.00600
N 	N 	0.03223 0.62459 0.60564 -0.19400
H 	H 	0.02573 0.62169 0.70853 0.05100
C 	C 	0.10719 0.60002 0.54140 -0.08600
C 	C 	0.10625 0.59948 0.48537 0.10200
C 	C 	0.09673 0.62785 0.45937 -0.05100
C 	C 	0.09430 0.65749 0.48967 -0.05400
C 	C 	0.09638 0.65828 0.54578 0.07200
H 	H 	0.11202 0.57776 0.56143 0.05500
N 	N 	0.11456 0.57181 0.45675 -0.19900
H 	H 	0.08868 0.67963 0.46971 0.05200
N 	N 	0.09382 0.68717 0.57456 -0.19400
H 	H 	0.12024 0.55053 0.47599 0.08700
H 	H 	0.11696 0.57161 0.41550 0.09400
H 	H 	0.08975 0.70871 0.55525 0.09000
H 	H 	0.09691 0.68866 0.61620 0.09200
H 	H 	0.00736 0.62362 0.61713 0.08600
H 	H 	0.03623 0.62475 0.56492 0.09100
H 	H 	0.13393 0.61565 0.79778 0.09300
H 	H 	0.16280 0.62202 0.74700 0.08600
C 	C 	0.89989 0.98988 0.97269 -0.03400
C 	C 	0.93493 0.98951 0.96783 -0.07800
C 	C 	0.95210 0.01913 0.96337 0.06400
C 	C 	0.93379 0.04803 0.95769 -0.03100
C 	C 	0.89845 0.04769 0.95666 -0.08300
C 	C 	0.88158 0.01881 0.96718 0.06400
N 	N 	0.84566 0.01823 0.96876 -0.01800
H 	H 	0.88657 0.96732 0.97744 0.05300
H 	H 	0.94700 0.07037 0.95108 0.04300
N 	N 	0.98795 0.01958 0.96050 -0.01700
O 	O 	0.82810 0.99699 0.93843 -0.23300
O 	O 	0.83067 0.03757 0.00285 -0.08200
O 	O 	0.00156 0.03286 0.92110 -0.23300
O 	O 	0.00703 0.00822 0.99867 -0.08200
C 	C 	0.91370 0.85328 0.82088 -0.04600
C 	C 	0.91601 0.85742 0.87688 -0.09600
C 	C 	0.88612 0.85857 0.90496 0.09400
C 	C 	0.85512 0.86204 0.87696 -0.04300
C 	C 	0.85364 0.86377 0.82127 -0.09500
C 	C 	0.88261 0.85622 0.79290 0.09100
N 	N 	0.88066 0.85187 0.73587 -0.01900
H 	H 	0.93627 0.84936 0.79893 0.04900
H 	H 	0.83239 0.86505 0.89878 0.05800
N 	N 	0.88709 0.85609 0.96159 -0.01800
O 	O 	0.89701 0.87146 0.70765 -0.11200
O 	O 	0.86541 0.82644 0.71253 -0.08700
O 	O 	0.87598 0.87988 0.99229 -0.10500
O 	O 	0.89635 0.82902 0.98201 -0.09500
C 	C 	0.06572 0.94635 0.82858 -0.05300
C 	C 	0.06389 0.95936 0.88132 -0.10400
C 	C 	0.07096 0.99265 0.89279 0.09400
C 	C 	0.07006 0.01365 0.85082 -0.04700
C 	C 	0.06527 0.00099 0.79770 -0.11000
C 	C 	0.06700 0.96706 0.78662 0.08800
N 	N 	0.07098 0.95366 0.73337 -0.01900
H 	H 	0.06394 0.92026 0.81990 0.05000
H 	H 	0.07271 0.03968 0.85944 0.04400
N 	N 	0.08127 0.00470 0.94600 -0.01700
O 	O 	0.09867 0.95902 0.70987 -0.08800
O 	O 	0.04957 0.93209 0.71200 -0.10100
O 	O 	0.10387 0.98904 0.97358 -0.08000
O 	O 	0.07210 0.03358 0.96352 -0.09200
C 	C 	0.05387 0.72958 0.93436 -0.05700
C 	C 	0.06912 0.72807 0.98581 -0.00300
C 	C 	0.08310 0.69848 0.00172 0.01400
C 	C 	0.08137 0.67078 0.96619 -0.04000
C 	C 	0.06563 0.67225 0.91500 -0.02800
C 	C 	0.05139 0.70182 0.89941 0.02800
C 	C 	0.06819 0.75728 0.02329 0.02000
S 	S 	0.10300 0.69582 0.06555 -0.04200
H 	H 	0.09227 0.64809 0.97838 0.04600
S 	S 	0.02855 0.70396 0.83763 -0.03200
H 	H 	0.04300 0.75228 0.92213 0.05500
C 	C 	0.09458 0.78032 0.02550 -0.00200
C 	C 	0.08767 0.81328 0.03731 -0.00600
C 	C 	0.05427 0.82357 0.04219 -0.07400
C 	C 	0.02935 0.80001 0.04974 0.05000
C 	C 	0.03704 0.76686 0.04266 -0.06900
S 	S 	0.13532 0.76878 0.00787 -0.03200
H 	H 	0.10748 0.83123 0.03533 0.04700
S 	S 	0.98737 0.81156 0.05934 -0.01200
H 	H 	0.01731 0.74885 0.04489 0.05600
H 	H 	0.05011 0.71132 0.79923 0.04200
H 	H 	0.13729 0.76942 0.95363 0.03800
H 	H 	0.97020 0.81221 0.01067 0.05500
H 	H 	0.13682 0.70168 0.06338 0.04000
C 	C 	0.94079 0.02124 0.34122 -0.07200
C 	C 	0.94747 0.00020 0.29677 -0.09800
C 	C 	0.92962 0.00440 0.24731 0.09400
C 	C 	0.90453 0.02844 0.24394 -0.04100
C 	C 	0.89799 0.04919 0.28873 -0.08100
C 	C 	0.91717 0.04623 0.33692 0.02400
N 	N 	0.91262 0.06863 0.38187 -0.04300
H 	H 	0.95442 0.01852 0.37923 0.02000
H 	H 	0.89014 0.03084 0.20651 0.07600
N 	N 	0.93748 0.98522 0.20023 -0.02000
O 	O 	0.90648 0.05782 0.42792 -0.17000
O 	O 	0.91485 0.09982 0.37686 -0.27700
O 	O 	0.91560 0.96432 0.17820 -0.09300
O 	O 	0.96487 0.99112 0.17625 -0.07500
C 	C 	0.91661 0.86998 0.37770 -0.03500
C 	C 	0.94965 0.88057 0.39170 -0.10800
C 	C 	0.95801 0.89186 0.44507 0.04900
C 	C 	0.93201 0.89972 0.47940 -0.03400
C 	C 	0.89833 0.89385 0.46198 -0.10800
C 	C 	0.89102 0.87603 0.41306 0.08200
N 	N 	0.85719 0.86572 0.39800 -0.02300
H 	H 	0.91049 0.85822 0.33857 0.06900
H 	H 	0.93791 0.91126 0.51876 0.06100
N 	N 	0.99240 0.89245 0.46569 -0.04400
O 	O 	0.84420 0.87070 0.35056 -0.11500
O 	O 	0.83959 0.85079 0.43139 -0.08600
O 	O 	0.00269 0.91515 0.50117 -0.17500
O 	O 	0.01220 0.86820 0.45392 -0.11300
C 	C 	0.09362 0.99359 0.38699 -0.05000
C 	C 	0.07979 0.98859 0.33461 -0.09100
C 	C 	0.06919 0.01586 0.30675 0.10100
C 	C 	0.06554 0.04597 0.33484 -0.03900
C 	C 	0.07336 0.04934 0.39014 -0.09100
C 	C 	0.08993 0.02358 0.41532 0.09200
N 	N 	0.10163 0.02720 0.47010 -0.01800
H 	H 	0.10446 0.97330 0.40740 0.05600
H 	H 	0.05562 0.06644 0.31391 0.04900
N 	N 	0.06198 0.01307 0.25021 -0.01900
O 	O 	0.08713 0.01096 0.50543 -0.10200
O 	O 	0.12894 0.04382 0.48364 -0.10000
O 	O 	0.03279 0.02200 0.23039 -0.09300
O 	O 	0.08553 0.00419 0.21836 -0.07900
C 	C 	0.02522 0.76761 0.19497 -0.06800
C 	C 	0.05917 0.75865 0.19430 0.01400
C 	C 	0.08274 0.78089 0.17753 0.00100
C 	C 	0.07371 0.81359 0.17393 -0.00600
C 	C 	0.04147 0.82398 0.18747 -0.07000
C 	C 	0.01626 0.80035 0.19248 0.04900
C 	C 	0.07062 0.73078 0.22481 0.00700
S 	S 	0.12428 0.76874 0.16608 -0.03200
H 	H 	0.09270 0.83140 0.16623 0.04700
S 	S 	0.97425 0.81182 0.20179 -0.01200
H 	H 	0.00644 0.74985 0.20378 0.05400
C 	C 	0.07928 0.73520 0.28005 0.00400
C 	C 	0.08332 0.70813 0.31080 -0.03100
C 	C 	0.07907 0.67655 0.28698 -0.03100
C 	C 	0.07448 0.67223 0.23077 0.03200
C 	C 	0.06881 0.69928 0.20040 -0.06100
S 	S 	0.08313 0.77454 0.31171 -0.02400
H 	H 	0.08785 0.71172 0.35372 0.04900
S 	S 	0.07729 0.63336 0.19786 -0.04000
H 	H 	0.06188 0.69578 0.15817 0.05300
H 	H 	0.96803 0.81076 0.25479 0.05300
H 	H 	0.05191 0.78552 0.32477 0.04800
H 	H 	0.04583 0.61958 0.19111 0.03900
H 	H 	0.14333 0.77173 0.21323 0.04100
