data_crystal

_cell_length_a 27.74131
_cell_length_b 27.93407
_cell_length_c 30.76995
_cell_angle_alpha 90.00237
_cell_angle_beta  90.81250
_cell_angle_gamma 119.99399

_symmetry_space_group_name_	'P 1'
_symmetry_space_group_name_H-M	'P 1'

loop_
_symmetry_equiv_pos_as_xyz
  x,y,z

loop_
_atom_site_label
_atom_site_type_symbol
_atom_site_fract_x
_atom_site_fract_y
_atom_site_fract_z
_atom_site_charge
Zn	Zn	0.04330 0.96695 0.33379 1.21800
P 	P 	0.00566 0.00768 0.40569 0.31700
O 	O 	0.03722 0.02349 0.30239 -0.43600
O 	O 	0.02154 0.05868 0.37393 -0.40900
O 	O 	0.04175 0.97862 0.39584 -0.39200
O 	O 	0.16045 0.03961 0.36771 -0.19100
O 	O 	0.01619 0.15850 0.29426 -0.23600
C 	C 	0.15888 0.00408 0.33896 0.31600
O 	O 	0.11083 0.96594 0.32283 -0.39200
Zn	Zn	0.04166 0.45751 0.31660 1.22500
P 	P 	0.00130 0.47715 0.39852 0.31400
C 	C 	0.15453 0.49268 0.32303 0.31200
O 	O 	0.02676 0.53920 0.38060 -0.39500
O 	O 	0.04618 0.52602 0.30141 -0.42000
O 	O 	0.03038 0.44543 0.37805 -0.39900
O 	O 	0.10751 0.45332 0.30641 -0.38600
O 	O 	0.15467 0.53232 0.34607 -0.17500
Zn	Zn	0.59545 0.05570 0.32039 1.21400
Zn	Zn	0.54100 0.92677 0.33976 1.22200
Zn	Zn	0.46955 0.02613 0.30676 1.23700
P 	P 	0.50862 0.99873 0.38701 0.31900
P 	P 	0.51971 0.97184 0.25884 0.32200
C 	C 	0.35747 0.99240 0.31643 0.30100
C 	C 	0.56716 0.13865 0.30842 0.32600
C 	C 	0.65923 0.00508 0.33992 0.34600
O 	O 	0.57371 0.03534 0.38007 -0.40600
O 	O 	0.56583 0.03523 0.26171 -0.40500
O 	O 	0.48397 0.93768 0.36677 -0.40800
O 	O 	0.46608 0.95973 0.28558 -0.41300
O 	O 	0.47674 0.02898 0.36854 -0.35900
O 	O 	0.54449 0.93470 0.27654 -0.38800
O 	O 	0.40260 0.02962 0.29710 -0.34500
O 	O 	0.59842 0.87718 0.29249 -0.19100
O 	O 	0.35979 0.95518 0.34107 -0.19400
O 	O 	0.52684 0.10065 0.28359 -0.38200
O 	O 	0.61657 0.97515 0.36492 -0.43600
O 	O 	0.60644 0.13003 0.32421 -0.39900
O 	O 	0.66060 0.04556 0.31706 -0.39000
C 	C 	0.57096 0.84495 0.32494 0.30100
O 	O 	0.54004 0.85747 0.34922 -0.39100
Zn	Zn	0.59664 0.55670 0.34111 1.20900
Zn	Zn	0.46971 0.51849 0.32715 1.23200
Zn	Zn	0.55167 0.42791 0.35168 1.22800
P 	P 	0.52742 0.47569 0.27451 0.32800
P 	P 	0.50994 0.48752 0.40473 0.32600
C 	C 	0.58794 0.35279 0.33021 0.30100
C 	C 	0.66756 0.51288 0.35481 0.32600
C 	C 	0.56056 0.63430 0.33171 0.32300
O 	O 	0.56973 0.53977 0.28105 -0.40600
O 	O 	0.57474 0.52889 0.39988 -0.41000
O 	O 	0.47181 0.45693 0.30095 -0.41100
O 	O 	0.49019 0.43096 0.37837 -0.39900
O 	O 	0.55642 0.44134 0.28955 -0.39000
O 	O 	0.47610 0.51734 0.38959 -0.38500
O 	O 	0.55536 0.36066 0.35638 -0.37800
O 	O 	0.35830 0.45143 0.36592 -0.19000
O 	O 	0.61791 0.39096 0.30186 -0.19300
O 	O 	0.62569 0.47817 0.37859 -0.40600
O 	O 	0.52275 0.59536 0.30606 -0.38500
O 	O 	0.66607 0.55434 0.33585 -0.38000
O 	O 	0.60034 0.62782 0.34938 -0.40700
C 	C 	0.35603 0.48360 0.33581 0.30800
O 	O 	0.40174 0.51932 0.31630 -0.35800
Zn	Zn	0.11064 0.01779 0.00903 1.21100
Zn	Zn	0.05427 0.09197 0.99406 1.22400
P 	P 	0.03657 0.02356 0.07203 0.31700
P 	P 	0.02066 0.99034 0.94313 0.28800
C 	C 	0.08122 0.20182 0.01259 0.29700
C 	C 	0.17368 0.13290 0.99137 0.33300
C 	C 	0.08309 0.90610 0.01821 0.32700
O 	O 	0.08304 0.00666 0.06793 -0.40400
O 	O 	0.08611 0.01909 0.94997 -0.41000
O 	O 	0.06076 0.08596 0.05668 -0.37900
O 	O 	0.04988 0.15876 0.98755 -0.35900
O 	O 	0.12923 0.12158 0.96774 -0.40200
O 	O 	0.04409 0.90424 0.04353 -0.41500
O 	O 	0.17523 0.09363 0.01409 -0.38500
O 	O 	0.12097 0.95360 0.00197 -0.40400
Zn	Zn	0.09711 0.51305 0.00011 1.21000
Zn	Zn	0.04207 0.58958 0.98819 1.22400
C 	C 	0.16171 0.62794 0.98359 0.32700
C 	C 	0.07066 0.40248 0.01583 0.31400
O 	O 	0.07444 0.50601 0.06012 -0.42900
O 	O 	0.07125 0.51496 0.94169 -0.41300
O 	O 	0.03222 0.65444 0.98469 -0.37100
O 	O 	0.11700 0.61847 0.96093 -0.40000
O 	O 	0.16323 0.58716 0.00389 -0.39200
O 	O 	0.10443 0.44696 0.99377 -0.38400
Zn	Zn	0.41983 0.96158 0.98129 1.21100
Zn	Zn	0.54662 0.04979 0.00247 1.22700
Zn	Zn	0.46390 0.87781 0.97448 1.22300
P 	P 	0.48344 0.94713 0.05206 0.32500
P 	P 	0.51127 0.98015 0.92360 0.31800
C 	C 	0.49958 0.80049 0.98769 0.31300
C 	C 	0.34760 0.84823 0.96476 0.32400
C 	C 	0.45526 0.07454 0.99438 0.33400
O 	O 	0.44148 0.96872 0.04174 -0.43900
O 	O 	0.44613 0.95703 0.92430 -0.42300
O 	O 	0.54204 0.98511 0.02953 -0.40400
O 	O 	0.52816 0.94275 0.95215 -0.40400
O 	O 	0.45624 0.88394 0.03682 -0.38200
O 	O 	0.54343 0.04327 0.93966 -0.35900
O 	O 	0.46185 0.80827 0.96804 -0.38400
O 	O 	0.66648 0.07897 0.01020 -0.18100
O 	O 	0.54242 0.84217 0.00716 -0.19500
O 	O 	0.39135 0.85481 0.94349 -0.42200
O 	O 	0.49105 0.07170 0.02153 -0.41100
O 	O 	0.34984 0.89096 0.98460 -0.38800
O 	O 	0.41797 0.03000 0.97334 -0.40200
C 	C 	0.66264 0.12357 0.01563 0.30700
O 	O 	0.61352 0.11984 0.01475 -0.36700
Zn	Zn	0.42825 0.46846 0.99486 1.21200
Zn	Zn	0.55455 0.55534 0.01930 1.22300
Zn	Zn	0.47339 0.38434 0.99008 1.22900
P 	P 	0.49020 0.45224 0.06737 0.32600
P 	P 	0.52133 0.48778 0.93930 0.32700
C 	C 	0.43979 0.27183 0.00454 0.29200
C 	C 	0.35710 0.35481 0.98039 0.32000
C 	C 	0.46503 0.58177 0.01150 0.32300
O 	O 	0.44745 0.47272 0.05615 -0.42100
O 	O 	0.45593 0.46338 0.93802 -0.40600
O 	O 	0.54909 0.49028 0.04542 -0.41300
O 	O 	0.53765 0.45029 0.96833 -0.39900
O 	O 	0.46460 0.38928 0.05232 -0.36000
O 	O 	0.55118 0.55029 0.95660 -0.40100
O 	O 	0.47284 0.31563 0.98175 -0.37100
O 	O 	0.66746 0.59459 0.98698 -0.19200
O 	O 	0.40954 0.27582 0.03522 -0.18200
O 	O 	0.40080 0.36099 0.95941 -0.40200
O 	O 	0.49950 0.57718 0.03894 -0.40600
O 	O 	0.35697 0.39846 0.99624 -0.38000
O 	O 	0.42938 0.53891 0.98783 -0.40000
C 	C 	0.66913 0.63160 0.01425 0.29800
O 	O 	0.62280 0.62361 0.03186 -0.39000
Zn	Zn	0.01822 0.91761 0.66193 1.20300
Zn	Zn	0.10673 0.04882 0.66519 1.23100
P 	P 	0.00993 0.99955 0.60586 0.30400
P 	P 	0.03081 0.99224 0.73581 0.30500
C 	C 	0.13741 0.96448 0.65612 0.30900
O 	O 	0.03054 0.95568 0.60636 -0.41500
O 	O 	0.00641 0.92955 0.72185 -0.41100
O 	O 	0.04352 0.04893 0.63969 -0.41700
O 	O 	0.09561 0.02728 0.72540 -0.37100
O 	O 	0.12065 0.15430 0.69203 -0.21800
O 	O 	0.13238 0.00266 0.63497 -0.38900
O 	O 	0.09209 0.92020 0.67028 -0.36300
C 	C 	0.16943 0.16173 0.68084 0.30700
O 	O 	0.17342 0.11979 0.66603 -0.37100
Zn	Zn	0.01694 0.56159 0.65740 1.21100
Zn	Zn	0.10692 0.52396 0.68170 1.22000
P 	P 	0.00189 0.48906 0.73054 0.31600
P 	P 	0.03351 0.48363 0.60304 0.31400
C 	C 	0.13048 0.63733 0.66745 0.33300
O 	O 	0.02456 0.55183 0.71859 -0.43100
O 	O 	0.01340 0.52767 0.60223 -0.42500
O 	O 	0.04124 0.46720 0.71152 -0.40800
O 	O 	0.09740 0.51239 0.61878 -0.38100
O 	O 	0.21524 0.58281 0.63330 -0.18800
O 	O 	0.12662 0.60147 0.69692 -0.42700
O 	O 	0.08542 0.63085 0.64754 -0.39700
C 	C 	0.22391 0.56456 0.67024 0.29800
O 	O 	0.18117 0.53371 0.69529 -0.38300
Zn	Zn	0.48628 0.07726 0.66611 1.20700
Zn	Zn	0.41082 0.94826 0.65132 1.22500
Zn	Zn	0.58489 0.04817 0.66645 1.23100
P 	P 	0.50484 0.01506 0.59448 0.32700
P 	P 	0.48991 0.99534 0.72445 0.32000
C 	C 	0.66458 0.01854 0.69143 0.31100
C 	C 	0.60098 0.16019 0.67072 0.32100
C 	C 	0.36746 0.02307 0.65800 0.32500
O 	O 	0.47800 0.05235 0.60555 -0.42400
O 	O 	0.50509 0.05817 0.72233 -0.42100
O 	O 	0.47417 0.95750 0.61955 -0.39300
O 	O 	0.52578 0.98260 0.69144 -0.41200
O 	O 	0.57027 0.04860 0.60510 -0.36100
O 	O 	0.42478 0.95648 0.71422 -0.36600
O 	O 	0.65753 0.05557 0.67054 -0.35800
O 	O 	0.38858 0.83372 0.66639 -0.17400
O 	O 	0.62477 0.98201 0.71588 -0.21700
O 	O 	0.60431 0.12158 0.69303 -0.41100
O 	O 	0.37724 0.99301 0.63057 -0.42800
O 	O 	0.55172 0.15246 0.65855 -0.39800
O 	O 	0.40983 0.06442 0.67877 -0.38000
C 	C 	0.34269 0.83303 0.65425 0.31700
O 	O 	0.34403 0.87901 0.64388 -0.39700
Zn	Zn	0.55100 0.60678 0.67481 1.20400
Zn	Zn	0.44972 0.48021 0.67297 1.23000
Zn	Zn	0.62287 0.54667 0.67260 1.22700
P 	P 	0.53721 0.52551 0.60682 0.32700
P 	P 	0.53823 0.52117 0.73909 0.32400
C 	C 	0.69625 0.51709 0.63450 0.31400
C 	C 	0.67131 0.66644 0.67528 0.31800
C 	C 	0.43549 0.57696 0.67885 0.32000
O 	O 	0.52541 0.57461 0.61630 -0.39300
O 	O 	0.56655 0.58607 0.73227 -0.39800
O 	O 	0.50384 0.47452 0.63856 -0.42900
O 	O 	0.56154 0.49334 0.70637 -0.42100
O 	O 	0.60263 0.54936 0.61225 -0.38500
O 	O 	0.47243 0.49463 0.73342 -0.37700
O 	O 	0.68674 0.53726 0.66974 -0.37200
O 	O 	0.39232 0.38917 0.73797 -0.20700
O 	O 	0.65609 0.49034 0.60573 -0.21800
O 	O 	0.66303 0.62289 0.69765 -0.39900
O 	O 	0.42907 0.53602 0.65358 -0.38600
O 	O 	0.62780 0.67024 0.66156 -0.37700
O 	O 	0.48619 0.61609 0.69083 -0.39000
C 	C 	0.36061 0.37858 0.70315 0.31300
O 	O 	0.37642 0.41503 0.67174 -0.36000
C 	C 	0.65219 0.21375 0.66307 -0.08200
C 	C 	0.69841 0.21528 0.64316 0.18900
C 	C 	0.75061 0.26354 0.64520 -0.04100
C 	C 	0.75681 0.31182 0.66470 -0.05100
C 	C 	0.70868 0.31219 0.67923 0.18000
C 	C 	0.65719 0.26279 0.67967 -0.02900
H 	H 	0.78634 0.26331 0.63168 0.11400
H 	H 	0.62122 0.26262 0.69315 0.09500
Cl	Cl	0.69077 0.15843 0.61288 -0.28600
Cl	Cl	0.71072 0.37440 0.69316 -0.27000
C 	C 	0.28904 0.78253 0.65785 -0.06100
C 	C 	0.26219 0.76722 0.69805 0.18800
C 	C 	0.20950 0.72048 0.70065 -0.02600
C 	C 	0.18286 0.68925 0.66326 -0.08400
C 	C 	0.20902 0.70549 0.62277 0.19800
C 	C 	0.26178 0.75237 0.62020 -0.03000
H 	H 	0.18920 0.70831 0.73180 0.10000
H 	H 	0.28194 0.76494 0.58902 0.10400
Cl	Cl	0.29321 0.80751 0.74513 -0.24800
Cl	Cl	0.17729 0.66603 0.57539 -0.26400
C 	C 	0.80456 0.47894 0.60722 0.18700
C 	C 	0.75363 0.47732 0.61010 -0.02900
C 	C 	0.75080 0.52169 0.62843 -0.07000
C 	C 	0.80021 0.56990 0.64114 0.19300
H 	H 	0.71612 0.44143 0.59787 0.10600
Cl	Cl	0.80012 0.63114 0.65496 -0.27700
C 	C 	0.28079 0.57455 0.68156 -0.06100
C 	C 	0.32909 0.62238 0.66700 0.18500
C 	C 	0.38114 0.62537 0.66953 -0.02800
C 	C 	0.38622 0.58239 0.68833 -0.07300
C 	C 	0.33953 0.53855 0.70826 0.19100
C 	C 	0.28695 0.53406 0.70395 -0.03800
H 	H 	0.41721 0.66034 0.65559 0.10200
H 	H 	0.25083 0.49840 0.71712 0.10400
Cl	Cl	0.32592 0.68009 0.64786 -0.26300
Cl	Cl	0.34660 0.48960 0.73948 -0.28800
C 	C 	0.72898 0.71471 0.67333 -0.06400
C 	C 	0.75232 0.74053 0.63349 0.18500
C 	C 	0.80948 0.78024 0.63147 -0.03800
C 	C 	0.76406 0.72763 0.71014 -0.03500
H 	H 	0.82644 0.80185 0.60132 0.09000
H 	H 	0.74709 0.70705 0.74064 0.11700
Cl	Cl	0.71119 0.72265 0.58566 -0.26800
C 	C 	0.21908 0.21668 0.68528 -0.06900
C 	C 	0.26597 0.22417 0.70925 0.19000
C 	C 	0.31228 0.27702 0.71398 -0.04000
C 	C 	0.31133 0.32325 0.69707 -0.06900
C 	C 	0.26314 0.31600 0.67500 0.18900
C 	C 	0.21794 0.26273 0.66835 -0.04000
H 	H 	0.34879 0.28226 0.73153 0.10400
H 	H 	0.18125 0.25724 0.65094 0.09800
Cl	Cl	0.26537 0.16865 0.73691 -0.25400
Cl	Cl	0.25671 0.37310 0.65867 -0.25900
C 	C 	0.71646 0.01719 0.68671 -0.06600
C 	C 	0.73785 0.01812 0.64520 0.18800
C 	C 	0.78752 0.01723 0.64145 -0.03500
C 	C 	0.79397 0.01269 0.72005 0.19000
C 	C 	0.74464 0.01428 0.72391 -0.03800
H 	H 	0.80377 0.01774 0.60951 0.10200
H 	H 	0.72843 0.01368 0.75588 0.10400
Cl	Cl	0.70118 0.01692 0.59754 -0.24500
C 	C 	0.30858 0.00703 0.66745 -0.06700
C 	C 	0.29268 0.04702 0.67494 0.19000
C 	C 	0.23602 0.03081 0.67716 -0.02500
C 	C 	0.19438 0.97576 0.66841 -0.08200
C 	C 	0.21012 0.93533 0.66328 0.19700
C 	C 	0.26681 0.95092 0.66396 -0.05200
H 	H 	0.22435 0.06190 0.68270 0.09300
H 	H 	0.27835 0.91949 0.65992 0.09300
Cl	Cl	0.34244 0.11800 0.67791 -0.25100
Cl	Cl	0.15994 0.86543 0.65406 -0.26600
C 	C 	0.55028 0.50568 0.79387 -0.03200
C 	C 	0.58965 0.54712 0.82198 0.17600
C 	C 	0.58511 0.53897 0.86700 -0.04900
C 	C 	0.54290 0.48915 0.88401 -0.03200
C 	C 	0.51105 0.44448 0.85552 0.18100
C 	C 	0.51428 0.45315 0.81060 -0.04900
H 	H 	0.61356 0.57189 0.88868 0.10900
H 	H 	0.48737 0.41953 0.78883 0.10700
Cl	Cl	0.64807 0.60629 0.80171 -0.27100
Cl	Cl	0.46866 0.37723 0.87532 -0.29600
C 	C 	0.46852 0.63568 0.00571 -0.09100
C 	C 	0.47427 0.66922 0.04189 0.19500
C 	C 	0.48551 0.72340 0.03561 -0.05000
C 	C 	0.48955 0.74409 0.99350 -0.06000
C 	C 	0.48159 0.70990 0.95733 0.18200
C 	C 	0.47115 0.65597 0.96358 -0.02800
H 	H 	0.49009 0.74913 0.06351 0.10900
H 	H 	0.46678 0.63038 0.93563 0.09300
Cl	Cl	0.46452 0.64302 0.09514 -0.25600
Cl	Cl	0.48692 0.73484 0.90398 -0.26200
C 	C 	0.45041 0.12449 0.99394 -0.08000
C 	C 	0.49694 0.17639 0.98518 0.19400
C 	C 	0.49300 0.22414 0.98878 -0.04500
C 	C 	0.44226 0.22059 0.99940 -0.04800
C 	C 	0.39463 0.16811 0.00512 0.17700
C 	C 	0.39924 0.12056 0.00313 -0.03300
H 	H 	0.52949 0.26411 0.98328 0.10800
H 	H 	0.36293 0.08047 0.00872 0.09700
Cl	Cl	0.55942 0.18194 0.96695 -0.29100
Cl	Cl	0.32835 0.16073 0.01200 -0.26700
C 	C 	0.50892 0.98439 0.77830 -0.03900
C 	C 	0.48007 0.93262 0.79870 0.18100
C 	C 	0.48824 0.92877 0.84330 -0.04800
C 	C 	0.52571 0.97597 0.86726 -0.04000
C 	C 	0.56287 0.02399 0.84471 0.18800
C 	C 	0.55320 0.02869 0.80060 -0.04700
H 	H 	0.46283 0.89002 0.85983 0.09300
H 	H 	0.58005 0.06676 0.78373 0.09400
Cl	Cl	0.43748 0.87187 0.76866 -0.23500
Cl	Cl	0.62457 0.07561 0.86980 -0.25500
C 	C 	0.80980 0.28349 0.02028 -0.07200
C 	C 	0.77043 0.26924 0.98609 0.19300
C 	C 	0.72224 0.21715 0.98522 -0.02900
C 	C 	0.71341 0.17833 0.01753 -0.06500
C 	C 	0.75337 0.19198 0.05111 0.18500
H 	H 	0.69207 0.20649 0.95893 0.11500
Cl	Cl	0.78238 0.31495 0.94277 -0.24700
Cl	Cl	0.74287 0.14471 0.09284 -0.24400
C 	C 	0.29953 0.79176 0.97064 -0.07800
C 	C 	0.24748 0.78277 0.98521 0.18700
C 	C 	0.20505 0.72904 0.99394 -0.02700
C 	C 	0.21106 0.68349 0.98350 -0.08400
C 	C 	0.26233 0.69210 0.96823 0.19600
C 	C 	0.30647 0.74591 0.96277 -0.04600
H 	H 	0.16627 0.72254 0.00717 0.06800
H 	H 	0.34607 0.75199 0.95182 0.09800
Cl	Cl	0.23214 0.83682 0.98811 -0.26700
Cl	Cl	0.27149 0.63600 0.95423 -0.26200
C 	C 	0.00278 0.53121 0.85789 0.14300
C 	C 	0.00844 0.53309 0.81278 -0.03500
C 	C 	0.00044 0.48649 0.78929 -0.06600
H 	H 	0.01808 0.57080 0.79597 0.10400
Cl	Cl	0.00900 0.58948 0.88503 -0.30200
C 	C 	0.82079 0.78717 0.02011 -0.06400
C 	C 	0.76910 0.78503 0.02388 0.18200
C 	C 	0.71976 0.73392 0.02341 -0.03800
C 	C 	0.72141 0.68460 0.02094 -0.06600
C 	C 	0.77337 0.68678 0.02210 0.18400
H 	H 	0.68009 0.73265 0.02428 0.09900
Cl	Cl	0.76556 0.84572 0.03158 -0.24800
Cl	Cl	0.77761 0.62618 0.02763 -0.24500
C 	C 	0.22314 0.18820 0.98898 -0.06300
C 	C 	0.24636 0.21079 0.94848 0.19200
C 	C 	0.28787 0.26627 0.94575 -0.03600
C 	C 	0.30747 0.29955 0.98324 -0.07100
C 	C 	0.28499 0.27667 0.02394 0.18600
C 	C 	0.24293 0.22124 0.02658 -0.03400
H 	H 	0.30592 0.28322 0.91451 0.10700
H 	H 	0.22517 0.20403 0.05783 0.11200
Cl	Cl	0.22563 0.16932 0.90112 -0.24900
Cl	Cl	0.31083 0.31611 0.07212 -0.25800
C 	C 	0.08077 0.85437 0.00453 -0.09500
C 	C 	0.08178 0.81768 0.03543 0.19800
C 	C 	0.07634 0.76729 0.02184 -0.04900
C 	C 	0.06995 0.75301 0.97752 -0.05700
H 	H 	0.07790 0.73957 0.04575 0.09200
Cl	Cl	0.09189 0.83511 0.09113 -0.26800
C 	C 	0.07818 0.25292 0.00890 -0.06400
C 	C 	0.02645 0.25115 0.00788 0.17400
C 	C 	0.02480 0.30038 0.00864 -0.06100
C 	C 	0.07416 0.35164 0.01186 -0.07700
C 	C 	0.12591 0.35345 0.01292 0.19000
C 	C 	0.12762 0.30427 0.01062 -0.04400
H 	H 	0.98491 0.29871 0.00766 0.10400
H 	H 	0.16752 0.30593 0.01152 0.09800
Cl	Cl	0.18878 0.41637 0.02038 -0.26400
C 	C 	0.01219 0.98602 0.88482 -0.02800
C 	C 	0.02501 0.99120 0.79406 -0.04200
C 	C 	0.03571 0.95511 0.81894 0.18500
C 	C 	0.02512 0.94987 0.86321 -0.05300
H 	H 	0.03241 0.92103 0.88174 0.09900
Cl	Cl	0.06837 0.92066 0.79642 -0.25400
C 	C 	0.49933 0.47476 0.46231 -0.03000
C 	C 	0.53416 0.46134 0.48676 0.18100
C 	C 	0.54375 0.47505 0.53103 -0.05200
C 	C 	0.51672 0.49963 0.55169 -0.03200
C 	C 	0.47448 0.50384 0.52882 0.17400
C 	C 	0.46643 0.49184 0.48422 -0.04900
H 	H 	0.57236 0.46671 0.54927 0.11000
H 	H 	0.43588 0.49774 0.46638 0.11300
Cl	Cl	0.56374 0.42490 0.46305 -0.30300
Cl	Cl	0.42883 0.52022 0.55543 -0.27100
C 	C 	0.49959 0.45689 0.12573 -0.02800
C 	C 	0.52795 0.43348 0.14726 0.18000
C 	C 	0.53358 0.43692 0.19266 -0.04900
C 	C 	0.51171 0.46407 0.21696 -0.03200
C 	C 	0.48322 0.48728 0.19528 0.18600
C 	C 	0.47763 0.48383 0.15004 -0.05700
H 	H 	0.55616 0.41952 0.20887 0.11400
H 	H 	0.45638 0.50259 0.13380 0.11800
Cl	Cl	0.55835 0.40132 0.11803 -0.25900
Cl	Cl	0.45449 0.52131 0.22398 -0.30600
C 	C 	0.50167 0.99995 0.44505 -0.04000
C 	C 	0.51232 0.04936 0.46601 0.19400
C 	C 	0.50785 0.05074 0.51087 -0.05800
C 	C 	0.49854 0.00552 0.53624 -0.01500
C 	C 	0.49104 0.95678 0.51567 0.16000
C 	C 	0.49093 0.95382 0.47007 -0.04500
H 	H 	0.51549 0.08878 0.52641 0.11000
H 	H 	0.48468 0.91640 0.45434 0.09000
Cl	Cl	0.53708 0.11185 0.43732 -0.25600
Cl	Cl	0.48498 0.90044 0.54574 -0.26000
C 	C 	0.57053 0.79224 0.33135 -0.06500
C 	C 	0.61785 0.78769 0.32203 0.18400
C 	C 	0.61418 0.73596 0.32251 -0.03000
C 	C 	0.56442 0.68869 0.33368 -0.07900
C 	C 	0.51855 0.69371 0.34637 0.19200
C 	C 	0.52146 0.74516 0.34450 -0.04200
H 	H 	0.65016 0.73254 0.31408 0.09700
H 	H 	0.48535 0.74835 0.35284 0.10200
Cl	Cl	0.68279 0.84644 0.31207 -0.26900
Cl	Cl	0.45844 0.63668 0.36712 -0.30200
C 	C 	0.57213 0.19323 0.31409 -0.07800
C 	C 	0.52786 0.19817 0.33099 0.19700
C 	C 	0.53366 0.25043 0.33676 -0.04200
C 	C 	0.58438 0.29829 0.32806 -0.06200
C 	C 	0.63017 0.29327 0.31468 0.18500
C 	C 	0.62327 0.24096 0.30649 -0.02900
H 	H 	0.49865 0.25376 0.34813 0.10400
H 	H 	0.65823 0.23741 0.29527 0.09800
Cl	Cl	0.46678 0.13984 0.34870 -0.29800
Cl	Cl	0.69741 0.35139 0.31173 -0.27100
C 	C 	0.50190 0.95752 0.20184 -0.03400
C 	C 	0.47642 0.98326 0.17944 0.18200
C 	C 	0.47289 0.98109 0.13420 -0.06800
C 	C 	0.49288 0.95201 0.11042 -0.03000
C 	C 	0.51785 0.92560 0.13261 0.17700
C 	C 	0.52194 0.92824 0.17814 -0.04800
H 	H 	0.45456 0.00240 0.11752 0.11400
H 	H 	0.54237 0.90899 0.19492 0.11400
Cl	Cl	0.44906 0.01916 0.20726 -0.31900
Cl	Cl	0.54672 0.89148 0.10415 -0.25300
C 	C 	0.01204 0.47645 0.45664 -0.05100
C 	C 	0.06591 0.50548 0.47540 0.17700
C 	C 	0.07393 0.49919 0.51969 -0.04700
C 	C 	0.02848 0.46573 0.54611 -0.05100
H 	H 	0.11502 0.52378 0.53420 0.11600
Cl	Cl	0.12368 0.55130 0.44453 -0.24700
C 	C 	0.80268 0.48136 0.35026 -0.07000
C 	C 	0.73723 0.49594 0.39150 -0.03000
C 	C 	0.71753 0.50774 0.35309 -0.06600
C 	C 	0.74032 0.50576 0.31292 0.20100
C 	C 	0.78319 0.49324 0.31179 -0.02000
H 	H 	0.71901 0.49623 0.42237 0.10800
H 	H 	0.80166 0.49314 0.28100 0.10300
Cl	Cl	0.71456 0.51721 0.26368 -0.25100
C 	C 	0.20555 0.48927 0.32000 -0.06600
C 	C 	0.25754 0.53727 0.31411 0.19100
C 	C 	0.30638 0.53478 0.31867 -0.03800
C 	C 	0.30396 0.48436 0.32759 -0.05800
C 	C 	0.25175 0.43539 0.32900 0.18200
C 	C 	0.20292 0.43825 0.32601 -0.03500
H 	H 	0.34628 0.57222 0.31553 0.11800
H 	H 	0.16292 0.40084 0.32897 0.09500
Cl	Cl	0.26208 0.60019 0.29879 -0.23500
Cl	Cl	0.24662 0.36996 0.33160 -0.25200
C 	C 	0.05920 0.53330 0.19791 0.17500
C 	C 	0.06186 0.52759 0.15305 -0.05400
H 	H 	0.09723 0.52638 0.13990 0.10700
Cl	Cl	0.11697 0.54490 0.23022 -0.28700
C 	C 	0.01940 0.03281 0.46105 -0.05100
C 	C 	0.02075 0.02790 0.55186 -0.05400
C 	C 	0.06843 0.03871 0.52844 0.18300
C 	C 	0.06656 0.03854 0.48298 -0.04800
H 	H 	0.10139 0.04213 0.46483 0.11200
Cl	Cl	0.13239 0.06000 0.55510 -0.29700
C 	C 	0.99938 0.79160 0.35905 0.20000
H 	H 	0.03297 0.73686 0.36360 0.08000
Cl	Cl	0.06321 0.85050 0.37311 -0.32500
C 	C 	0.79177 0.96951 0.34836 -0.06800
C 	C 	0.76367 0.97003 0.38582 0.19400
C 	C 	0.72300 0.98530 0.38297 -0.03100
C 	C 	0.70805 0.99784 0.34260 -0.09000
C 	C 	0.73473 0.99525 0.30472 0.19200
C 	C 	0.77716 0.98216 0.30794 -0.03400
H 	H 	0.70204 0.98629 0.41214 0.10100
H 	H 	0.79905 0.98213 0.27903 0.10300
Cl	Cl	0.71346 0.00513 0.25286 -0.24000
C 	C 	0.30639 0.99609 0.31482 -0.06900
C 	C 	0.25376 0.94781 0.31326 0.19000
C 	C 	0.20600 0.95100 0.32096 -0.05000
C 	C 	0.20979 0.00230 0.32881 -0.05500
C 	C 	0.26189 0.05117 0.32572 0.18100
C 	C 	0.30991 0.04775 0.31925 -0.02800
H 	H 	0.16584 0.91348 0.32077 0.11700
H 	H 	0.34999 0.08527 0.31822 0.11600
Cl	Cl	0.24673 0.88334 0.29944 -0.25400
Cl	Cl	0.26743 0.11683 0.32694 -0.25000
C 	C 	0.02046 0.02016 0.12885 -0.05700
C 	C 	0.06319 0.04765 0.16031 0.19700
C 	C 	0.05063 0.04032 0.20449 -0.09700
H 	H 	0.08378 0.06125 0.22842 0.11100
Cl	Cl	0.13256 0.09270 0.14508 -0.26000
P 	P 	0.02898 0.52372 0.06706 0.31400
P 	P 	0.00551 0.48561 0.93823 0.28200
C 	C 	0.06572 0.70026 0.96396 0.30300
O 	O 	0.05194 0.58537 0.05018 -0.40000
O 	O 	0.03266 0.40280 0.04104 -0.42400
Cl	Cl	0.80716 0.42761 0.57559 -0.24700
C 	C 	0.81544 0.01400 0.67863 -0.07200
C 	C 	0.80135 0.24436 0.05228 -0.03400
C 	C 	0.99080 0.48279 0.88056 0.02300
C 	C 	0.77873 0.48172 0.39019 0.19600
C 	C 	0.01309 0.53442 0.21568 -0.07000
C 	C 	0.02068 0.52582 0.12503 -0.05300
Cl	Cl	0.77861 0.95078 0.43660 -0.24700
O 	O 	0.11687 0.19995 0.04006 -0.21700
C 	C 	0.81371 0.36058 0.67131 0.30000
O 	O 	0.09896 0.70002 0.93414 -0.16600
Cl	Cl	0.82935 0.01072 0.76745 -0.25300
C 	C 	0.07487 0.84036 0.96020 -0.02700
O 	O 	0.99599 0.02420 0.96716 -0.35000
C 	C 	0.06900 0.78981 0.94659 0.18100
Cl	Cl	0.79806 0.46134 0.43856 -0.24700
C 	C 	0.82263 0.73790 0.02082 -0.03900
C 	C 	0.82128 0.76528 0.70759 0.19500
Zn	Zn	0.91704 0.92651 0.34558 1.20900
C 	C 	0.84294 0.96712 0.35255 0.31600
O 	O 	0.88527 0.00616 0.37439 -0.38300
O 	O 	0.84590 0.92502 0.33673 -0.38600
O 	O 	0.91587 0.85798 0.36085 -0.40900
Zn	Zn	0.91720 0.42690 0.32803 1.21100
C 	C 	0.85179 0.47479 0.34912 0.33100
O 	O 	0.89413 0.50453 0.37565 -0.40500
O 	O 	0.90850 0.35276 0.32556 -0.40400
O 	O 	0.85177 0.43635 0.32437 -0.39500
O 	O 	0.87169 0.87657 0.98606 -0.18400
C 	C 	0.87232 0.84016 0.01274 0.29500
O 	O 	0.91978 0.84956 0.03024 -0.38600
O 	O 	0.85304 0.38310 0.02062 -0.18900
C 	C 	0.85904 0.33943 0.02325 0.30400
O 	O 	0.90918 0.34582 0.02695 -0.38700
Zn	Zn	0.93398 0.96332 0.67895 1.22600
C 	C 	0.86610 0.01068 0.67384 0.31800
C 	C 	0.89854 0.84589 0.66997 0.31300
O 	O 	0.86676 0.96596 0.68576 -0.39100
O 	O 	0.90998 0.05130 0.65556 -0.21000
O 	O 	0.90474 0.88511 0.69716 -0.39500
Zn	Zn	0.92945 0.43255 0.65299 1.23000
C 	C 	0.90415 0.52089 0.63490 0.32200
O 	O 	0.85575 0.36572 0.64816 -0.35300
O 	O 	0.82324 0.39645 0.70251 -0.18400
O 	O 	0.90983 0.48090 0.61778 -0.38400
C 	C 	0.85307 0.52396 0.62610 -0.07000
C 	C 	0.85075 0.57041 0.64077 -0.03800
H 	H 	0.88822 0.60689 0.65224 0.10700
C 	C 	0.84416 0.79353 0.66860 -0.06800
Cl	Cl	0.86411 0.77672 0.75376 -0.23700
H 	H 	0.83157 0.25495 0.07852 0.10300
H 	H 	0.86232 0.73922 0.01973 0.10300
H 	H 	0.92653 0.41422 0.46775 0.11300
Cl	Cl	0.91931 0.38235 0.55589 -0.29600
Cl	Cl	0.93295 0.05493 0.46005 -0.25900
C 	C 	0.89525 0.69545 0.34992 0.18800
C 	C 	0.89941 0.74737 0.34724 -0.03400
H 	H 	0.86202 0.75005 0.34269 0.09800
Cl	Cl	0.82885 0.63628 0.35192 -0.27900
Cl	Cl	0.88202 0.94406 0.20144 -0.25600
O 	O 	0.90950 0.60520 0.31391 -0.20700
H 	H 	0.07343 0.86819 0.93633 0.08400
Cl	Cl	0.96325 0.18775 0.00863 -0.23500
O 	O 	0.98623 0.38932 0.28399 -0.39500
C 	C 	0.99559 0.73959 0.35928 -0.01600
P 	P 	0.99465 0.51706 0.27195 0.35200
C 	C 	0.99558 0.00699 0.21785 0.01200
O 	O 	0.99149 0.88640 0.31800 -0.39300
C 	C 	0.00901 0.02564 0.81495 -0.03800
P 	P 	0.98054 0.99962 0.27503 0.32000
C 	C 	0.98042 0.16141 0.32008 0.33200
C 	C 	0.94125 0.63776 0.34553 0.30900
C 	C 	0.00425 0.02457 0.86040 0.16200
H 	H 	0.00143 0.05406 0.79612 0.09800
Cl	Cl	0.98018 0.21838 0.40592 -0.24500
Zn	Zn	0.95703 0.05488 0.34584 1.23400
C 	C 	0.95526 0.85013 0.34525 0.32800
O 	O 	0.94106 0.93604 0.28525 -0.40500
O 	O 	0.94126 0.96294 0.40240 -0.39900
O 	O 	0.94929 0.03328 0.28515 -0.37500
O 	O 	0.95075 0.12050 0.34645 -0.36800
Zn	Zn	0.97096 0.55453 0.35432 1.22500
C 	C 	0.94596 0.34680 0.30418 0.32700
O 	O 	0.93617 0.44242 0.38947 -0.40800
O 	O 	0.94704 0.45415 0.27087 -0.41900
O 	O 	0.96999 0.55355 0.29063 -0.38300
O 	O 	0.97339 0.62413 0.36797 -0.37600
Zn	Zn	0.98527 0.92065 0.02083 1.22700
O 	O 	0.98204 0.98265 0.04460 -0.42100
O 	O 	0.99144 0.92738 0.95873 -0.37500
Zn	Zn	0.97357 0.41835 0.01793 1.22500
O 	O 	0.97150 0.48083 0.04348 -0.38500
O 	O 	0.98281 0.51975 0.96449 -0.36100
O 	O 	0.97850 0.42345 0.95522 -0.37900
O 	O 	0.99688 0.01799 0.71291 -0.38200
O 	O 	0.94510 0.96872 0.61641 -0.38700
O 	O 	0.94272 0.84982 0.65023 -0.37200
O 	O 	0.99454 0.43120 0.63246 -0.37700
O 	O 	0.93847 0.45261 0.71422 -0.36500
O 	O 	0.94611 0.56095 0.65668 -0.40000
C 	C 	0.98453 0.43681 0.81150 0.21200
C 	C 	0.97993 0.43525 0.85687 -0.07100
H 	H 	0.96999 0.39751 0.87381 0.11700
Cl	Cl	0.97050 0.37618 0.78329 -0.26000
Cl	Cl	0.05739 0.77196 0.89098 -0.24100
Cl	Cl	0.98786 0.07121 0.88541 -0.24000
C 	C 	0.97570 0.43278 0.52632 0.19900
C 	C 	0.96754 0.43921 0.48223 -0.03200
C 	C 	0.97751 0.53231 0.14234 0.18800
C 	C 	0.97383 0.53629 0.18746 -0.02100
H 	H 	0.93890 0.53833 0.20068 0.10000
Cl	Cl	0.92772 0.53572 0.10828 -0.25100
C 	C 	0.97823 0.03611 0.48506 0.19600
C 	C 	0.97753 0.03077 0.53028 -0.02500
H 	H 	0.94340 0.02869 0.54848 0.10600
C 	C 	0.95146 0.79570 0.35050 -0.08000
C 	C 	0.94382 0.69131 0.35331 -0.07300
C 	C 	0.96961 0.20774 0.31635 -0.07100
C 	C 	0.96635 0.23514 0.35373 0.18600
C 	C 	0.95495 0.27836 0.34945 -0.03800
C 	C 	0.94801 0.29551 0.30817 -0.08700
C 	C 	0.95034 0.26759 0.27088 0.19400
C 	C 	0.96114 0.22396 0.27511 -0.03900
H 	H 	0.95391 0.30025 0.37820 0.09300
H 	H 	0.96259 0.20240 0.24630 0.10500
Cl	Cl	0.93863 0.28611 0.21869 -0.25800
C 	C 	0.95243 0.98187 0.18634 0.15700
C 	C 	0.96520 0.98796 0.14214 -0.03000
H 	H 	0.93197 0.96773 0.11817 0.09700
