data_crystal

_cell_length_a 34.54888
_cell_length_b 34.66186
_cell_length_c 27.15987
_cell_angle_alpha 90.00856
_cell_angle_beta  90.11412
_cell_angle_gamma 119.87801

_symmetry_space_group_name_	'P 1'
_symmetry_space_group_name_H-M	'P 1'

loop_
_symmetry_equiv_pos_as_xyz
  x,y,z

loop_
_atom_site_label
_atom_site_type_symbol
_atom_site_fract_x
_atom_site_fract_y
_atom_site_fract_z
_atom_site_charge
Ni	Ni	0.00059 0.17200 0.81257 1.13300
O 	O 	0.01850 0.22333 0.64767 -0.31000
Ni	Ni	0.98540 0.82049 0.30776 1.12800
O 	O 	0.00760 0.79902 0.13926 -0.30600
H 	H 	0.03273 0.32172 0.50807 0.11800
C 	C 	0.97526 0.40868 0.30661 -0.09100
C 	C 	0.02753 0.46387 0.24955 0.37600
H 	H 	0.10406 0.14990 0.81801 0.11700
C 	C 	0.01582 0.11811 0.29112 -0.05400
C 	C 	0.00408 0.10787 0.20280 0.37600
C 	C 	0.01559 0.87417 0.77927 -0.05500
C 	C 	0.01046 0.87968 0.69076 0.37700
C 	C 	0.47824 0.72251 0.41682 0.32800
C 	C 	0.54505 0.61477 0.32120 0.36200
C 	C 	0.42317 0.60937 0.39783 0.35800
C 	C 	0.61263 0.73916 0.36037 0.32900
C 	C 	0.51195 0.57772 0.47077 0.35200
C 	C 	0.58452 0.70183 0.51438 0.32900
Ni	Ni	0.51230 0.67566 0.35342 1.12700
Ni	Ni	0.57971 0.65671 0.41882 1.13000
Ni	Ni	0.49453 0.65274 0.47065 1.12900
O 	O 	0.50820 0.72847 0.38294 -0.33500
O 	O 	0.46929 0.69468 0.45504 -0.35500
O 	O 	0.53917 0.59171 0.43282 -0.34700
O 	O 	0.50929 0.61850 0.32539 -0.34800
O 	O 	0.58095 0.64051 0.34708 -0.34800
O 	O 	0.54431 0.69823 0.51337 -0.32800
O 	O 	0.44313 0.63987 0.36369 -0.33900
O 	O 	0.44636 0.60252 0.43107 -0.36300
O 	O 	0.59227 0.67258 0.49124 -0.35100
O 	O 	0.57863 0.71545 0.32991 -0.32100
O 	O 	0.62244 0.71992 0.39697 -0.35800
O 	O 	0.50725 0.60619 0.49872 -0.33100
O 	O 	0.53363 0.67191 0.41585 -0.71700
H 	H 	0.55072 0.70363 0.42483 0.15800
C 	C 	0.70668 0.46756 0.07549 0.32800
C 	C 	0.60024 0.54244 0.16637 0.35400
C 	C 	0.58105 0.42422 0.07277 0.33500
C 	C 	0.72510 0.58817 0.15434 0.32400
C 	C 	0.58652 0.52504 0.00810 0.34200
C 	C 	0.70791 0.59576 0.98784 0.33600
Ni	Ni	0.65018 0.49496 0.13727 1.12400
Ni	Ni	0.65700 0.57937 0.07886 1.13100
Ni	Ni	0.65455 0.49822 0.01658 1.12900
O 	O 	0.67536 0.45577 0.10955 -0.32200
O 	O 	0.70626 0.48864 0.03477 -0.34700
O 	O 	0.61645 0.56604 0.02031 -0.34100
O 	O 	0.62427 0.52532 0.18224 -0.34900
O 	O 	0.60042 0.55182 0.11966 -0.34100
O 	O 	0.69552 0.55367 0.97642 -0.32300
O 	O 	0.58675 0.44872 0.11217 -0.32400
O 	O 	0.61421 0.43536 0.04171 -0.34900
O 	O 	0.70992 0.60879 0.03406 -0.37100
O 	O 	0.71164 0.54548 0.16252 -0.34500
O 	O 	0.69626 0.60132 0.14096 -0.32200
O 	O 	0.59914 0.49716 0.99243 -0.37000
O 	O 	0.66257 0.52776 0.07826 -0.72000
H 	H 	0.69534 0.54222 0.07774 0.15400
C 	C 	0.83928 0.91064 0.74842 0.31200
C 	C 	0.77877 0.73392 0.84091 0.35600
C 	C 	0.89673 0.83799 0.74490 0.32600
C 	C 	0.72886 0.80702 0.82781 0.33400
C 	C 	0.79805 0.73789 0.68193 0.34100
C 	C 	0.72031 0.78245 0.66100 0.33600
Ni	Ni	0.82409 0.83102 0.81016 1.12400
Ni	Ni	0.74074 0.75003 0.75216 1.12700
Ni	Ni	0.81884 0.83065 0.68957 1.13200
O 	O 	0.85712 0.89539 0.78089 -0.34900
O 	O 	0.82307 0.88964 0.70602 -0.31600
O 	O 	0.75635 0.72435 0.69414 -0.33900
O 	O 	0.79903 0.77541 0.85605 -0.31900
O 	O 	0.77102 0.72449 0.79406 -0.37500
O 	O 	0.76233 0.81249 0.64956 -0.31400
O 	O 	0.87367 0.81878 0.78485 -0.32500
O 	O 	0.88287 0.85799 0.71418 -0.35900
O 	O 	0.70786 0.76981 0.70710 -0.38000
O 	O 	0.77115 0.83700 0.83737 -0.31600
O 	O 	0.71716 0.76563 0.81404 -0.33900
O 	O 	0.82383 0.77861 0.66583 -0.36400
O 	O 	0.79046 0.80829 0.75158 -0.71800
H 	H 	0.77402 0.82468 0.75120 0.15100
C 	C 	0.25723 0.40211 0.84335 0.32500
C 	C 	0.39219 0.57311 0.92106 0.34100
C 	C 	0.37964 0.45419 0.82637 0.35000
C 	C 	0.26256 0.51104 0.92681 0.32000
C 	C 	0.40175 0.47480 0.98324 0.34100
C 	C 	0.27274 0.39705 0.00624 0.32900
Ni	Ni	0.32628 0.49789 0.85888 1.11900
Ni	Ni	0.32886 0.49500 0.97896 1.13500
Ni	Ni	0.32870 0.41651 0.91666 1.13700
O 	O 	0.26799 0.44370 0.83296 -0.35200
O 	O 	0.28828 0.39166 0.85574 -0.31300
O 	O 	0.39021 0.50494 0.99228 -0.35100
O 	O 	0.38783 0.55070 0.88039 -0.36300
O 	O 	0.35920 0.55812 0.95276 -0.33300
O 	O 	0.27653 0.38265 0.96209 -0.32800
O 	O 	0.35792 0.47435 0.81170 -0.35000
O 	O 	0.38318 0.44805 0.87333 -0.34800
O 	O 	0.29989 0.43887 0.02096 -0.35300
O 	O 	0.29260 0.52817 0.89075 -0.35100
O 	O 	0.27070 0.49486 0.96759 -0.32100
O 	O 	0.37114 0.43320 0.97413 -0.32900
O 	O 	0.31882 0.46537 0.91734 -0.72100
H 	H 	0.28607 0.44849 0.91932 0.15300
C 	C 	0.39035 0.25106 0.65835 0.32500
C 	C 	0.55856 0.39273 0.58176 0.34700
C 	C 	0.43870 0.37532 0.67820 0.35100
C 	C 	0.50259 0.26623 0.57335 0.33900
C 	C 	0.45238 0.39646 0.52081 0.35300
C 	C 	0.38059 0.27037 0.49598 0.33700
Ni	Ni	0.48439 0.32465 0.64284 1.12100
Ni	Ni	0.47964 0.32841 0.52288 1.13800
Ni	Ni	0.39938 0.32214 0.58825 1.12600
O 	O 	0.43286 0.26375 0.66730 -0.32900
O 	O 	0.37769 0.28086 0.64847 -0.36200
O 	O 	0.48479 0.38802 0.51158 -0.34000
O 	O 	0.53382 0.38750 0.62072 -0.36000
O 	O 	0.54392 0.36213 0.54708 -0.32900
O 	O 	0.36822 0.27002 0.54231 -0.37200
O 	O 	0.45748 0.35190 0.69129 -0.35700
O 	O 	0.42835 0.37685 0.63202 -0.35400
O 	O 	0.42282 0.29611 0.48113 -0.30800
O 	O 	0.51876 0.29630 0.60919 -0.35200
O 	O 	0.48495 0.27292 0.53270 -0.30700
O 	O 	0.41185 0.36403 0.53115 -0.35200
O 	O 	0.45073 0.31615 0.58514 -0.72300
H 	H 	0.43570 0.28358 0.58236 0.16700
C 	C 	0.26769 0.19595 0.18772 0.33000
C 	C 	0.08250 0.15024 0.23565 0.35300
C 	C 	0.20814 0.26385 0.15332 0.35100
C 	C 	0.13750 0.09084 0.25306 0.35200
C 	C 	0.18385 0.27479 0.29983 0.34700
C 	C 	0.24881 0.21454 0.34492 0.33800
Ni	Ni	0.16935 0.16931 0.18543 1.12200
Ni	Ni	0.15807 0.17957 0.30323 1.13000
Ni	Ni	0.24520 0.25353 0.24737 1.13600
O 	O 	0.23373 0.18921 0.15874 -0.34700
O 	O 	0.28165 0.22587 0.22389 -0.33300
O 	O 	0.17572 0.24103 0.32882 -0.34700
O 	O 	0.10045 0.13989 0.19877 -0.32800
O 	O 	0.10784 0.18130 0.26709 -0.38200
O 	O 	0.26009 0.25132 0.31933 -0.34100
O 	O 	0.17084 0.22551 0.15596 -0.35000
O 	O 	0.24425 0.26921 0.17556 -0.34400
O 	O 	0.20716 0.18045 0.34465 -0.31500
O 	O 	0.16361 0.11195 0.21524 -0.35900
O 	O 	0.12928 0.11197 0.28956 -0.33300
O 	O 	0.21166 0.28549 0.26262 -0.32700
O 	O 	0.19439 0.19520 0.24663 -0.72300
H 	H 	0.20937 0.17832 0.25539 0.17100
C 	C 	0.49391 0.24049 0.06576 0.32900
C 	C 	0.45048 0.07040 0.16575 0.33500
C 	C 	0.56748 0.18730 0.07762 0.34600
C 	C 	0.38754 0.13178 0.14701 0.33000
C 	C 	0.47362 0.07062 0.01056 0.33800
C 	C 	0.39002 0.10955 0.98152 0.34600
Ni	Ni	0.48583 0.16645 0.13470 1.12100
Ni	Ni	0.41042 0.08001 0.07482 1.13400
Ni	Ni	0.48745 0.16139 0.01498 1.13600
O 	O 	0.51182 0.22992 0.10326 -0.33600
O 	O 	0.48126 0.21627 0.02451 -0.30700
O 	O 	0.43116 0.05742 0.01804 -0.34400
O 	O 	0.46539 0.11143 0.18115 -0.35300
O 	O 	0.44550 0.06138 0.11868 -0.34500
O 	O 	0.43326 0.13106 0.96964 -0.31800
O 	O 	0.54352 0.16507 0.11589 -0.35900
O 	O 	0.54963 0.19980 0.04284 -0.32400
O 	O 	0.37587 0.09535 0.02685 -0.34300
O 	O 	0.42795 0.16487 0.15832 -0.35000
O 	O 	0.38085 0.09171 0.13429 -0.34300
O 	O 	0.50304 0.11317 0.00575 -0.33000
O 	O 	0.45593 0.14023 0.07528 -0.72500
H 	H 	0.43685 0.15372 0.07216 0.17100
C 	C 	0.14494 0.05586 0.74366 0.33400
C 	C 	0.20107 0.93912 0.64390 0.34700
C 	C 	0.08362 0.92688 0.73313 0.34100
C 	C 	0.25629 0.06529 0.66367 0.32500
C 	C 	0.18284 0.91826 0.79932 0.35000
C 	C 	0.25821 0.04145 0.82706 0.34700
Ni	Ni	0.16048 0.99515 0.67507 1.11400
Ni	Ni	0.24081 0.99201 0.73387 1.11200
Ni	Ni	0.16019 0.98928 0.79538 1.12000
O 	O 	0.12803 0.02618 0.70737 -0.32800
O 	O 	0.15879 0.04654 0.78542 -0.29300
O 	O 	0.22436 0.94951 0.79091 -0.36000
O 	O 	0.18730 0.96630 0.62882 -0.32400
O 	O 	0.20944 0.93722 0.69063 -0.38400
O 	O 	0.21517 0.01935 0.84003 -0.30700
O 	O 	0.10809 0.93270 0.69383 -0.32500
O 	O 	0.09733 0.95813 0.76701 -0.36800
O 	O 	0.27146 0.04311 0.78095 -0.36400
O 	O 	0.21477 0.05485 0.65251 -0.31300
O 	O 	0.26642 0.03376 0.67428 -0.34600
O 	O 	0.15172 0.92865 0.80784 -0.37800
O 	O 	0.19135 0.00113 0.73449 -0.70000
H 	H 	0.20768 0.03370 0.73767 0.17000
C 	C 	0.25923 0.76083 0.40574 0.34000
C 	C 	0.37432 0.93444 0.31153 0.36900
C 	C 	0.38068 0.81723 0.39213 0.34600
C 	C 	0.24612 0.86867 0.33884 0.33400
C 	C 	0.40220 0.93886 0.46187 0.35500
C 	C 	0.27554 0.87929 0.49746 0.33200
Ni	Ni	0.31571 0.83906 0.33942 1.12100
Ni	Ni	0.32369 0.92192 0.40361 1.13200
Ni	Ni	0.33165 0.84429 0.45801 1.13900
O 	O 	0.26137 0.78033 0.36294 -0.34400
O 	O 	0.29309 0.77831 0.43807 -0.31600
O 	O 	0.38821 0.95067 0.42266 -0.33500
O 	O 	0.37256 0.89576 0.31450 -0.36300
O 	O 	0.34381 0.94046 0.33317 -0.36100
O 	O 	0.28172 0.84434 0.49642 -0.31200
O 	O 	0.35313 0.80764 0.35449 -0.35400
O 	O 	0.38516 0.84716 0.42452 -0.34800
O 	O 	0.30327 0.91695 0.47451 -0.35800
O 	O 	0.27379 0.86171 0.31104 -0.34800
O 	O 	0.26112 0.89721 0.37630 -0.35400
O 	O 	0.37445 0.90397 0.48820 -0.34900
O 	O 	0.31415 0.86289 0.40102 -0.72400
H 	H 	0.28185 0.84635 0.40749 0.17200
C 	C 	0.59644 0.85995 0.84706 0.32300
C 	C 	0.42288 0.82664 0.91456 0.34400
C 	C 	0.54099 0.92984 0.82644 0.36200
C 	C 	0.48338 0.75885 0.92996 0.32400
C 	C 	0.52335 0.93647 0.98234 0.36400
C 	C 	0.59600 0.88105 0.00929 0.32700
Ni	Ni	0.50044 0.83419 0.85922 1.13400
Ni	Ni	0.49893 0.84216 0.97852 1.13300
Ni	Ni	0.58033 0.91780 0.91752 1.12300
O 	O 	0.55476 0.82819 0.83821 -0.29600
O 	O 	0.60617 0.90135 0.85820 -0.35900
O 	O 	0.49058 0.89512 0.98596 -0.34900
O 	O 	0.44853 0.84564 0.87631 -0.32100
O 	O 	0.43623 0.81004 0.94992 -0.35900
O 	O 	0.61227 0.89897 0.96547 -0.37900
O 	O 	0.52793 0.88894 0.81224 -0.31000
O 	O 	0.54914 0.94085 0.87306 -0.39300
O 	O 	0.55429 0.86922 0.02243 -0.32300
O 	O 	0.46734 0.77135 0.89244 -0.31600
O 	O 	0.49722 0.78295 0.97119 -0.34900
O 	O 	0.56455 0.94539 0.97387 -0.38000
O 	O 	0.53115 0.85935 0.91841 -0.72200
H 	H 	0.54752 0.84309 0.92256 0.16000
C 	C 	0.70558 0.92730 0.32549 0.33300
C 	C 	0.89114 0.05235 0.26560 0.34900
C 	C 	0.77293 0.05720 0.34129 0.36300
C 	C 	0.82376 0.93040 0.26265 0.33600
C 	C 	0.79450 0.07267 0.19266 0.34900
C 	C 	0.72149 0.94450 0.16408 0.32500
Ni	Ni	0.80500 0.99309 0.32130 1.11300
Ni	Ni	0.81356 0.99976 0.20218 1.12200
Ni	Ni	0.73021 0.99974 0.25407 1.12300
O 	O 	0.74074 0.95627 0.35173 -0.33100
O 	O 	0.69113 0.94056 0.28725 -0.36300
O 	O 	0.79794 0.04180 0.16809 -0.34500
O 	O 	0.87343 0.02618 0.30410 -0.30700
O 	O 	0.86550 0.05474 0.23167 -0.35700
O 	O 	0.71220 0.97368 0.18515 -0.36700
O 	O 	0.80877 0.05326 0.33884 -0.32600
O 	O 	0.73511 0.02642 0.32201 -0.32600
O 	O 	0.76176 0.94844 0.16765 -0.32600
O 	O 	0.80555 0.93553 0.30326 -0.36600
O 	O 	0.83967 0.96114 0.22693 -0.34600
O 	O 	0.76537 0.06186 0.22840 -0.32000
O 	O 	0.77858 0.98808 0.25932 -0.72700
H 	H 	0.76164 0.95553 0.25558 0.15600
C 	C 	0.73864 0.13439 0.64874 0.32300
C 	C 	0.59133 0.16641 0.59336 0.35700
C 	C 	0.61148 0.06088 0.67534 0.34100
C 	C 	0.70768 0.23766 0.58269 0.33400
C 	C 	0.58370 0.05297 0.52423 0.34200
C 	C 	0.71065 0.12174 0.48958 0.33400
Ni	Ni	0.66344 0.15627 0.64613 1.13300
Ni	Ni	0.64787 0.14908 0.52751 1.12400
Ni	Ni	0.66334 0.07653 0.58331 1.13500
O 	O 	0.70909 0.13903 0.67579 -0.30000
O 	O 	0.72585 0.10574 0.61144 -0.32800
O 	O 	0.61028 0.08809 0.49766 -0.36700
O 	O 	0.62046 0.18093 0.62977 -0.31300
O 	O 	0.59134 0.13878 0.56067 -0.38400
O 	O 	0.68532 0.08336 0.51274 -0.33700
O 	O 	0.60918 0.09726 0.67012 -0.32000
O 	O 	0.64336 0.05706 0.65373 -0.33700
O 	O 	0.70063 0.15419 0.49019 -0.36700
O 	O 	0.71347 0.21655 0.62009 -0.33500
O 	O 	0.68005 0.21618 0.54495 -0.36300
O 	O 	0.59897 0.04230 0.56319 -0.33500
O 	O 	0.66806 0.13374 0.58498 -0.72100
H 	H 	0.70025 0.15250 0.57868 0.16000
C 	C 	0.23471 0.52574 0.42374 0.33000
C 	C 	0.05497 0.45502 0.33166 0.35600
C 	C 	0.15740 0.57290 0.42107 0.34100
C 	C 	0.13234 0.40579 0.34130 0.32400
C 	C 	0.05481 0.46666 0.48790 0.36000
C 	C 	0.11083 0.39885 0.50714 0.34100
Ni	Ni	0.15230 0.49951 0.35922 1.12800
Ni	Ni	0.07443 0.41517 0.41720 1.12700
Ni	Ni	0.15072 0.49693 0.47955 1.13200
O 	O 	0.21658 0.53767 0.38801 -0.33100
O 	O 	0.21216 0.50562 0.46438 -0.34200
O 	O 	0.04742 0.42662 0.47702 -0.36700
O 	O 	0.09552 0.46966 0.31509 -0.31900
O 	O 	0.04573 0.44411 0.37807 -0.38100
O 	O 	0.13358 0.44152 0.52111 -0.32200
O 	O 	0.13602 0.54641 0.38384 -0.31900
O 	O 	0.17617 0.56035 0.45487 -0.34500
O 	O 	0.10004 0.38678 0.46061 -0.37500
O 	O 	0.16236 0.44840 0.33389 -0.34400
O 	O 	0.09065 0.39361 0.35440 -0.32800
O 	O 	0.09541 0.49901 0.49780 -0.35800
O 	O 	0.13148 0.46688 0.41792 -0.72100
H 	H 	0.15015 0.45281 0.41887 0.15800
C 	C 	0.75908 0.27090 0.07228 0.33700
C 	C 	0.92737 0.38020 0.17947 0.34900
C 	C 	0.81408 0.38478 0.09704 0.35200
C 	C 	0.87458 0.25577 0.14067 0.33400
C 	C 	0.93924 0.41845 0.03182 0.35100
C 	C 	0.88902 0.29450 0.98677 0.34100
Ni	Ni	0.83559 0.31770 0.14275 1.12600
Ni	Ni	0.92557 0.33863 0.08366 1.12900
Ni	Ni	0.84734 0.34394 0.02659 1.13200
O 	O 	0.78045 0.26505 0.10962 -0.32800
O 	O 	0.78024 0.30160 0.03731 -0.35500
O 	O 	0.95137 0.40374 0.07007 -0.37800
O 	O 	0.88738 0.37494 0.17374 -0.33900
O 	O 	0.93883 0.35431 0.15606 -0.36000
O 	O 	0.85323 0.29933 0.98456 -0.31700
O 	O 	0.80205 0.35277 0.12967 -0.36200
O 	O 	0.84554 0.39296 0.06504 -0.35200
O 	O 	0.92530 0.32315 0.01157 -0.35600
O 	O 	0.86199 0.27867 0.16937 -0.33400
O 	O 	0.90477 0.27552 0.10543 -0.34200
O 	O 	0.90761 0.39054 0.00208 -0.32900
O 	O 	0.86433 0.32337 0.08257 -0.72400
H 	H 	0.85037 0.29184 0.07296 0.17400
C 	C 	0.05562 0.15176 0.74022 0.31800
C 	C 	0.94750 0.21465 0.84570 0.35200
C 	C 	0.92737 0.09596 0.75849 0.35200
C 	C 	0.07314 0.26669 0.82321 0.32800
C 	C 	0.92123 0.19777 0.69242 0.36300
C 	C 	0.04380 0.26636 0.65933 0.34100
Ni	Ni	0.99868 0.25300 0.75474 1.12200
Ni	Ni	0.98864 0.16970 0.69335 1.12800
O 	O 	0.02792 0.13684 0.77841 -0.33700
O 	O 	0.04482 0.16532 0.69924 -0.31400
O 	O 	0.95468 0.23830 0.69937 -0.35600
O 	O 	0.97538 0.20144 0.85982 -0.31500
O 	O 	0.94473 0.22295 0.79922 -0.38700
O 	O 	0.93612 0.12160 0.79726 -0.33000
O 	O 	0.95675 0.10771 0.72285 -0.36200
O 	O 	0.04804 0.28130 0.70517 -0.36800
O 	O 	0.06219 0.22489 0.83255 -0.34100
O 	O 	0.04202 0.27768 0.81334 -0.32300
O 	O 	0.92834 0.16426 0.68582 -0.36200
O 	O 	0.00580 0.20246 0.75328 -0.71300
H 	H 	0.03831 0.21755 0.74843 0.15500
C 	C 	0.13415 0.73630 0.83492 0.32800
C 	C 	0.16233 0.59857 0.92086 0.33600
C 	C 	0.05881 0.61085 0.82559 0.35100
C 	C 	0.23549 0.72700 0.92011 0.31800
C 	C 	0.05823 0.60004 0.98340 0.36100
C 	C 	0.10681 0.72054 0.00244 0.33900
Ni	Ni	0.15606 0.66445 0.85589 1.12600
Ni	Ni	0.15318 0.66807 0.97603 1.13400
Ni	Ni	0.07550 0.66949 0.91106 1.12700
O 	O 	0.16406 0.72351 0.82751 -0.34600
O 	O 	0.09234 0.70730 0.84813 -0.33000
O 	O 	0.09920 0.61088 0.99589 -0.35000
O 	O 	0.14226 0.60247 0.88160 -0.32200
O 	O 	0.18096 0.63142 0.95287 -0.35600
O 	O 	0.09674 0.72241 0.95569 -0.37200
O 	O 	0.10005 0.63501 0.80996 -0.30900
O 	O 	0.04924 0.61211 0.87198 -0.38100
O 	O 	0.13472 0.70621 0.01575 -0.31900
O 	O 	0.22031 0.69474 0.88660 -0.34800
O 	O 	0.21334 0.72204 0.96173 -0.31800
O 	O 	0.04842 0.63070 0.97049 -0.35600
O 	O 	0.13335 0.67651 0.91341 -0.72000
H 	H 	0.15067 0.70923 0.91382 0.15400
C 	C 	0.90911 0.72456 0.17511 0.32700
C 	C 	0.04131 0.90025 0.24691 0.34400
C 	C 	0.03287 0.78234 0.15243 0.36000
C 	C 	0.91513 0.83369 0.26060 0.31900
C 	C 	0.05997 0.80256 0.30639 0.35200
C 	C 	0.93255 0.72284 0.33655 0.32800
Ni	Ni	0.97648 0.82137 0.18838 1.12300
Ni	Ni	0.98454 0.74232 0.24406 1.12400
O 	O 	0.91795 0.76569 0.16515 -0.35000
O 	O 	0.94177 0.71578 0.18516 -0.33100
O 	O 	0.04840 0.83280 0.31492 -0.35000
O 	O 	0.03746 0.87622 0.20772 -0.29800
O 	O 	0.01154 0.88358 0.28219 -0.34800
O 	O 	0.93486 0.70783 0.29220 -0.33600
O 	O 	0.03750 0.77554 0.19892 -0.36100
O 	O 	0.96058 0.76474 0.35023 -0.36600
O 	O 	0.94283 0.85034 0.22252 -0.34700
O 	O 	0.92555 0.81773 0.30009 -0.32700
O 	O 	0.02940 0.76065 0.29928 -0.36300
O 	O 	0.97271 0.78995 0.24648 -0.72200
H 	H 	0.94013 0.77221 0.25027 0.15500
C 	C 	0.86331 0.61724 0.64631 0.32600
C 	C 	0.80400 0.42908 0.59899 0.34100
C 	C 	0.92334 0.55066 0.67919 0.34200
C 	C 	0.74956 0.48990 0.58178 0.33000
C 	C 	0.92859 0.52226 0.53216 0.34500
C 	C 	0.87453 0.59399 0.48865 0.33700
Ni	Ni	0.82892 0.51751 0.64810 1.12800
Ni	Ni	0.83554 0.50354 0.53042 1.13300
Ni	Ni	0.91474 0.58835 0.58465 1.13300
O 	O 	0.85400 0.58253 0.67488 -0.32400
O 	O 	0.89205 0.62867 0.60919 -0.31100
O 	O 	0.89548 0.51711 0.50354 -0.33300
O 	O 	0.79517 0.44868 0.63532 -0.34000
O 	O 	0.83516 0.45273 0.56704 -0.34800
O 	O 	0.91164 0.60288 0.51275 -0.33900
O 	O 	0.88381 0.51485 0.67573 -0.33400
O 	O 	0.93162 0.58722 0.65607 -0.34800
O 	O 	0.83890 0.55337 0.48889 -0.36100
O 	O 	0.77244 0.51543 0.61947 -0.33800
O 	O 	0.76861 0.47856 0.54576 -0.35100
O 	O 	0.94225 0.55077 0.56891 -0.37600
O 	O 	0.85444 0.54083 0.58649 -0.72200
H 	H 	0.83926 0.55763 0.57819 0.16000
C 	C 	0.91267 0.70327 0.42525 -0.08300
C 	C 	0.90654 0.68989 0.37556 -0.10200
C 	C 	0.88017 0.64421 0.36431 0.34600
C 	C 	0.86619 0.61251 0.40201 -0.07500
C 	C 	0.87748 0.62608 0.45117 -0.11000
C 	C 	0.89842 0.67154 0.46281 0.34900
F 	F 	0.90683 0.68507 0.51048 -0.42000
H 	H 	0.93036 0.73825 0.43483 0.12100
H 	H 	0.84856 0.57744 0.39274 0.11900
F 	F 	0.86883 0.63045 0.31701 -0.41300
C 	C 	0.08595 0.77575 0.03306 -0.07900
C 	C 	0.08888 0.73724 0.04096 -0.10600
C 	C 	0.07415 0.71426 0.08579 0.35200
C 	C 	0.05675 0.72963 0.12228 -0.07100
C 	C 	0.05351 0.76794 0.11444 -0.11100
C 	C 	0.06848 0.79118 0.06968 0.35700
F 	F 	0.06680 0.82901 0.06196 -0.40500
H 	H 	0.09756 0.79393 0.99880 0.11800
H 	H 	0.04483 0.71113 0.15633 0.11300
F 	F 	0.07553 0.67625 0.09345 -0.38900
C 	C 	0.97759 0.57033 0.80333 -0.09100
C 	C 	0.02217 0.58537 0.78979 -0.09800
C 	C 	0.03167 0.57967 0.74073 0.37600
C 	C 	0.99798 0.56422 0.70496 -0.11100
C 	C 	0.95447 0.55348 0.71783 -0.10200
C 	C 	0.94393 0.55450 0.76753 0.35600
F 	F 	0.90169 0.54318 0.78067 -0.41500
H 	H 	0.96929 0.57284 0.84120 0.11400
H 	H 	0.00614 0.56241 0.66682 0.13000
F 	F 	0.07355 0.58979 0.72748 -0.40400
C 	C 	0.91334 0.23994 0.96795 -0.07400
C 	C 	0.89277 0.26395 0.95235 -0.09800
C 	C 	0.88244 0.26387 0.90232 0.35700
C 	C 	0.89686 0.24398 0.86777 -0.07700
C 	C 	0.92245 0.22473 0.88278 -0.11100
C 	C 	0.92791 0.22012 0.93347 0.36100
F 	F 	0.94823 0.19746 0.94932 -0.40200
H 	H 	0.91985 0.23837 0.00674 0.12900
H 	H 	0.89012 0.24560 0.82907 0.11600
F 	F 	0.86117 0.28570 0.88677 -0.40300
C 	C 	0.00396 0.52339 0.95749 -0.05900
C 	C 	0.02212 0.55537 0.99494 -0.12400
C 	C 	0.01014 0.54280 0.04410 0.38300
C 	C 	0.98176 0.49815 0.05588 -0.09400
C 	C 	0.96535 0.46573 0.01865 -0.10100
C 	C 	0.97579 0.47869 0.96917 0.33600
F 	F 	0.96056 0.44777 0.93268 -0.40400
H 	H 	0.01332 0.53287 0.91949 0.11000
H 	H 	0.97318 0.48859 0.09404 0.12000
F 	F 	0.02715 0.57370 0.08056 -0.38600
C 	C 	0.00092 0.48959 0.45983 -0.05700
C 	C 	0.01695 0.47354 0.49749 -0.13000
C 	C 	0.00031 0.46928 0.54543 0.37900
C 	C 	0.96942 0.48299 0.55608 -0.10400
C 	C 	0.95493 0.50107 0.51891 -0.10100
C 	C 	0.96990 0.50319 0.47038 0.33200
F 	F 	0.95641 0.52075 0.43404 -0.41000
H 	H 	0.01384 0.49325 0.42278 0.11000
H 	H 	0.95774 0.48084 0.59354 0.11400
F 	F 	0.01532 0.45341 0.58205 -0.41200
C 	C 	0.05336 0.32574 0.53992 -0.07800
C 	C 	0.09554 0.36383 0.54484 -0.10600
C 	C 	0.12172 0.36890 0.58671 0.35400
C 	C 	0.10516 0.33654 0.62374 -0.07600
C 	C 	0.06257 0.29887 0.61907 -0.10900
C 	C 	0.03685 0.29355 0.57679 0.36700
F 	F 	0.99502 0.25806 0.57239 -0.40000
H 	H 	0.12537 0.34079 0.65605 0.11500
F 	F 	0.16324 0.40482 0.59128 -0.41200
C 	C 	0.01835 0.44389 0.29640 -0.10300
C 	C 	0.99604 0.44489 0.21176 -0.11100
C 	C 	0.95485 0.40675 0.22082 -0.10800
C 	C 	0.94363 0.39012 0.26892 0.35500
F 	F 	0.90324 0.35395 0.27833 -0.42300
H 	H 	0.96713 0.39390 0.34296 0.11100
H 	H 	0.00437 0.45868 0.17496 0.13000
F 	F 	0.06746 0.50068 0.24022 -0.40300
C 	C 	0.81850 0.18137 0.62713 -0.08000
C 	C 	0.78586 0.15807 0.66298 -0.10000
C 	C 	0.79884 0.15373 0.71074 0.35200
C 	C 	0.84395 0.16990 0.72142 -0.07700
C 	C 	0.87626 0.19065 0.68461 -0.12000
C 	C 	0.86357 0.19773 0.63793 0.36300
F 	F 	0.89467 0.21831 0.60225 -0.39100
H 	H 	0.80875 0.18542 0.59039 0.12000
H 	H 	0.85360 0.16453 0.75766 0.11000
F 	F 	0.76763 0.13161 0.74590 -0.39900
C 	C 	0.75089 0.31277 0.54424 -0.08000
C 	C 	0.72929 0.28657 0.58547 -0.11300
C 	C 	0.73087 0.30728 0.63059 0.35100
C 	C 	0.75556 0.35357 0.63493 -0.08000
C 	C 	0.77831 0.37994 0.59411 -0.11100
C 	C 	0.77513 0.35924 0.54831 0.34600
F 	F 	0.79487 0.38403 0.50764 -0.42900
H 	H 	0.74952 0.29717 0.50921 0.11200
H 	H 	0.75708 0.36892 0.67017 0.12700
F 	F 	0.70826 0.28247 0.67024 -0.41600
C 	C 	0.86035 0.19718 0.20191 -0.07800
C 	C 	0.85987 0.20937 0.15284 -0.10900
C 	C 	0.84228 0.17654 0.11598 0.35400
C 	C 	0.82303 0.13165 0.12869 -0.07400
C 	C 	0.82115 0.11940 0.17819 -0.11100
C 	C 	0.84127 0.15241 0.21456 0.36000
F 	F 	0.84154 0.14096 0.26232 -0.41000
H 	H 	0.87481 0.22241 0.23037 0.12700
H 	H 	0.80788 0.10638 0.10037 0.12800
F 	F 	0.84172 0.18801 0.06830 -0.42400
C 	C 	0.78593 0.09018 0.42512 -0.07200
C 	C 	0.77179 0.08895 0.37638 -0.09900
C 	C 	0.74798 0.11079 0.36442 0.35700
C 	C 	0.73275 0.12760 0.40185 -0.07700
C 	C 	0.74104 0.12245 0.45134 -0.10800
C 	C 	0.77063 0.10693 0.46255 0.35300
F 	F 	0.78141 0.10453 0.51012 -0.41600
H 	H 	0.80571 0.07488 0.43459 0.12400
H 	H 	0.71126 0.14102 0.39261 0.11400
F 	F 	0.73674 0.11268 0.31691 -0.40900
C 	C 	0.85213 0.88738 0.30841 -0.08100
C 	C 	0.83784 0.89674 0.26377 -0.11300
C 	C 	0.83948 0.87561 0.22044 0.35200
C 	C 	0.85949 0.84909 0.22097 -0.08100
C 	C 	0.87931 0.84479 0.26439 -0.10700
C 	C 	0.87265 0.86145 0.30882 0.34900
F 	F 	0.88904 0.85545 0.35181 -0.41800
H 	H 	0.84959 0.90224 0.34246 0.11500
H 	H 	0.86248 0.83451 0.18690 0.11300
F 	F 	0.82276 0.88161 0.17768 -0.41200
C 	C 	0.67406 0.90603 0.03780 -0.08200
C 	C 	0.62809 0.88484 0.04827 -0.10300
C 	C 	0.61399 0.87320 0.09745 0.35000
C 	C 	0.64538 0.88905 0.13572 -0.08000
C 	C 	0.69098 0.91563 0.12530 -0.10500
C 	C 	0.70536 0.92162 0.07612 0.35600
F 	F 	0.74953 0.94564 0.06537 -0.41100
H 	H 	0.68564 0.91270 0.00007 0.12000
H 	H 	0.63409 0.88262 0.17358 0.11000
F 	F 	0.57001 0.84758 0.10835 -0.41200
C 	C 	0.58015 0.00978 0.80111 -0.02500
C 	C 	0.55156 0.96480 0.78905 -0.15900
C 	C 	0.53695 0.95324 0.73997 0.38300
C 	C 	0.55466 0.98548 0.70296 -0.13000
C 	C 	0.58594 0.02962 0.71469 -0.05900
C 	C 	0.59727 0.04203 0.76410 0.33500
F 	F 	0.62696 0.08490 0.77593 -0.39700
H 	H 	0.59075 0.01952 0.83884 0.10900
H 	H 	0.54503 0.97590 0.66495 0.13100
F 	F 	0.50616 0.91076 0.72801 -0.40300
C 	C 	0.30435 0.77219 0.87079 -0.08400
C 	C 	0.28221 0.76362 0.91623 -0.10600
C 	C 	0.30665 0.78624 0.95859 0.35100
C 	C 	0.35314 0.81158 0.95652 -0.08000
C 	C 	0.37559 0.81431 0.91256 -0.11100
C 	C 	0.35089 0.79705 0.86894 0.35400
F 	F 	0.37197 0.80147 0.82543 -0.40900
H 	H 	0.28568 0.75742 0.83730 0.11600
H 	H 	0.37191 0.82675 0.98986 0.12200
F 	F 	0.28575 0.78211 0.00215 -0.41100
C 	C 	0.18479 0.86710 0.28945 -0.07800
C 	C 	0.19877 0.84764 0.32537 -0.11800
C 	C 	0.16690 0.81073 0.35203 0.34400
C 	C 	0.12132 0.79439 0.34390 -0.07700
C 	C 	0.10733 0.81525 0.30969 -0.11800
C 	C 	0.13924 0.85110 0.28169 0.34800
F 	F 	0.12610 0.87093 0.24765 -0.42200
H 	H 	0.20919 0.89548 0.26863 0.11000
H 	H 	0.09695 0.76665 0.36555 0.11700
F 	F 	0.18010 0.79168 0.38697 -0.43500
C 	C 	0.47302 0.94955 0.49837 -0.05700
C 	C 	0.44799 0.96809 0.47976 -0.14800
C 	C 	0.46770 0.01459 0.47597 0.40300
C 	C 	0.51219 0.04208 0.48983 -0.10000
C 	C 	0.53734 0.02357 0.50811 -0.07000
C 	C 	0.51752 0.97708 0.51241 0.31100
F 	F 	0.54165 0.95856 0.52904 -0.41300
H 	H 	0.45828 0.91375 0.50097 0.12400
H 	H 	0.52694 0.07787 0.48707 0.11800
F 	F 	0.44350 0.03316 0.45968 -0.40000
C 	C 	0.20429 0.68775 0.36868 -0.07600
C 	C 	0.22445 0.71355 0.41099 -0.09200
C 	C 	0.21322 0.69317 0.45747 0.35700
C 	C 	0.18633 0.64692 0.46100 -0.07100
C 	C 	0.17112 0.62060 0.41817 -0.10200
C 	C 	0.17778 0.64159 0.37217 0.35400
F 	F 	0.16081 0.61723 0.33048 -0.40700
H 	H 	0.21090 0.70319 0.33269 0.12300
H 	H 	0.17942 0.63130 0.49692 0.12200
F 	F 	0.22885 0.71794 0.49911 -0.40200
C 	C 	0.23811 0.89528 0.62119 -0.08100
C 	C 	0.21125 0.91349 0.60746 -0.11400
C 	C 	0.19783 0.91055 0.55792 0.35400
C 	C 	0.21557 0.89476 0.52209 -0.08300
C 	C 	0.24621 0.88117 0.53532 -0.09900
C 	C 	0.25549 0.87920 0.58532 0.35200
F 	F 	0.28416 0.86499 0.59884 -0.40600
H 	H 	0.24739 0.89561 0.65938 0.11300
H 	H 	0.20723 0.89520 0.48367 0.11300
F 	F 	0.16839 0.92375 0.54430 -0.41000
C 	C 	0.13052 0.83727 0.78912 -0.07700
C 	C 	0.17193 0.87180 0.80574 -0.12100
C 	C 	0.20109 0.86154 0.83117 0.35300
C 	C 	0.18857 0.81718 0.84041 -0.08400
C 	C 	0.14681 0.78272 0.82461 -0.11300
C 	C 	0.11795 0.79293 0.79854 0.35100
F 	F 	0.07811 0.75993 0.78159 -0.40500
H 	H 	0.10798 0.84487 0.76906 0.11300
H 	H 	0.21102 0.80956 0.86062 0.10500
F 	F 	0.24082 0.89449 0.84842 -0.42000
C 	C 	0.11055 0.13779 0.78399 -0.07900
C 	C 	0.09314 0.14295 0.73930 -0.10600
C 	C 	0.10587 0.13129 0.69505 0.35500
C 	C 	0.12880 0.10766 0.69650 -0.07600
C 	C 	0.13801 0.09452 0.74191 -0.08400
C 	C 	0.13253 0.11322 0.78552 0.35600
F 	F 	0.14620 0.10565 0.82954 -0.39300
H 	H 	0.13640 0.09665 0.66236 0.12700
F 	F 	0.09360 0.14022 0.65090 -0.40500
C 	C 	0.46928 0.99917 0.03403 -0.14200
C 	C 	0.48777 0.03716 0.00413 -0.05600
C 	C 	0.52040 0.04343 0.96912 0.32800
C 	C 	0.53361 0.01145 0.96368 -0.02200
C 	C 	0.51435 0.97299 0.99297 -0.16600
C 	C 	0.48277 0.96751 0.02895 0.38400
F 	F 	0.46518 0.93147 0.05905 -0.42000
H 	H 	0.44454 0.99423 0.06142 0.14500
H 	H 	0.55774 0.01590 0.93562 0.10500
F 	F 	0.53817 0.07962 0.93927 -0.39500
C 	C 	0.33180 0.05861 0.86153 -0.07400
C 	C 	0.29257 0.06097 0.86592 -0.10400
C 	C 	0.28586 0.08046 0.90813 0.35800
C 	C 	0.31794 0.09675 0.94577 -0.07900
C 	C 	0.35701 0.09405 0.94132 -0.10000
C 	C 	0.36374 0.07487 0.89896 0.35400
F 	F 	0.40053 0.07049 0.89489 -0.40000
H 	H 	0.33704 0.04309 0.82954 0.12000
H 	H 	0.31250 0.11158 0.97823 0.14200
F 	F 	0.24870 0.08416 0.91240 -0.39700
C 	C 	0.45090 0.04400 0.25155 -0.10300
C 	C 	0.43777 0.03394 0.20200 -0.07100
C 	C 	0.40930 0.98916 0.18822 0.30200
C 	C 	0.39238 0.95572 0.22398 -0.05100
C 	C 	0.40246 0.96650 0.27383 -0.16400
C 	C 	0.43302 0.01053 0.28733 0.39500
F 	F 	0.44393 0.02121 0.33541 -0.40800
H 	H 	0.47378 0.07797 0.26265 0.12400
H 	H 	0.36892 0.92179 0.21326 0.10200
F 	F 	0.39571 0.97829 0.14082 -0.43500
C 	C 	0.68849 0.27139 0.05721 -0.08500
C 	C 	0.70988 0.24840 0.07355 -0.10800
C 	C 	0.68425 0.20525 0.09308 0.34900
C 	C 	0.63762 0.18558 0.09592 -0.07700
C 	C 	0.61656 0.20916 0.08010 -0.11300
C 	C 	0.64258 0.25281 0.06230 0.35500
F 	F 	0.62327 0.27739 0.05014 -0.39800
H 	H 	0.70770 0.30432 0.04146 0.11300
H 	H 	0.61793 0.15184 0.10945 0.11600
F 	F 	0.70421 0.18196 0.10787 -0.40900
C 	C 	0.33526 0.13834 0.20421 -0.07600
C 	C 	0.34912 0.13804 0.15578 -0.11300
C 	C 	0.33285 0.15317 0.11730 0.34500
C 	C 	0.30486 0.17058 0.12756 -0.07900
C 	C 	0.29332 0.17349 0.17637 -0.11100
C 	C 	0.30749 0.15598 0.21455 0.34800
F 	F 	0.29481 0.15659 0.26170 -0.42700
H 	H 	0.34760 0.12670 0.23412 0.11700
H 	H 	0.29368 0.18348 0.09778 0.11900
F 	F 	0.34654 0.15374 0.07038 -0.43700
C 	C 	0.18859 0.38066 0.34186 -0.08000
C 	C 	0.14485 0.37138 0.33187 -0.10700
C 	C 	0.11320 0.32897 0.31414 0.35100
C 	C 	0.12553 0.29661 0.30604 -0.07800
C 	C 	0.16947 0.30638 0.31505 -0.10500
C 	C 	0.20088 0.34842 0.33335 0.36000
F 	F 	0.24347 0.35817 0.34241 -0.40300
H 	H 	0.21306 0.41287 0.35637 0.11000
H 	H 	0.10124 0.26439 0.29139 0.11400
F 	F 	0.07101 0.31954 0.30322 -0.41100
C 	C 	0.09361 0.97093 0.28930 -0.12300
C 	C 	0.07151 0.94870 0.24587 -0.07800
C 	C 	0.07161 0.97352 0.20497 0.31000
C 	C 	0.09222 0.01981 0.20809 -0.03000
C 	C 	0.11324 0.04194 0.25189 -0.13400
C 	C 	0.11428 0.01736 0.29239 0.39900
F 	F 	0.13565 0.03837 0.33447 -0.40700
H 	H 	0.09371 0.95209 0.32110 0.12600
H 	H 	0.09150 0.03857 0.17652 0.10900
F 	F 	0.04977 0.95267 0.16301 -0.41100
C 	C 	0.95786 0.08373 0.21044 -0.10100
C 	C 	0.94024 0.07677 0.25838 -0.09800
C 	C 	0.96954 0.09412 0.29874 0.33200
C 	C 	0.03341 0.12521 0.24314 -0.12900
F 	F 	0.02018 0.11512 0.15613 -0.40900
H 	H 	0.93569 0.07042 0.17900 0.11600
H 	H 	0.03802 0.13100 0.32258 0.10400
F 	F 	0.95330 0.08864 0.34524 -0.40700
C 	C 	0.31519 0.18983 0.68342 -0.08000
C 	C 	0.35660 0.20336 0.66122 -0.11400
C 	C 	0.36544 0.17119 0.64078 0.34700
C 	C 	0.33306 0.12601 0.64260 -0.07900
C 	C 	0.29144 0.11257 0.66421 -0.11200
C 	C 	0.28283 0.14470 0.68517 0.34700
F 	F 	0.24332 0.13210 0.70783 -0.43200
H 	H 	0.30816 0.21424 0.69965 0.11800
H 	H 	0.33999 0.10160 0.62617 0.12000
F 	F 	0.40478 0.18383 0.61771 -0.43500
C 	C 	0.30001 0.22892 0.47061 -0.07900
C 	C 	0.34523 0.24590 0.45832 -0.09800
C 	C 	0.35648 0.24355 0.40894 0.35800
C 	C 	0.32383 0.22961 0.37204 -0.07600
C 	C 	0.27957 0.21690 0.38400 -0.09100
C 	C 	0.26741 0.21462 0.43368 0.35600
F 	F 	0.22454 0.20149 0.44599 -0.40600
H 	H 	0.29032 0.22874 0.50854 0.11800
H 	H 	0.33331 0.23036 0.33388 0.13300
F 	F 	0.39899 0.25531 0.39651 -0.40000
C 	C 	0.63051 0.43148 0.62746 -0.07800
C 	C 	0.60672 0.42529 0.58351 -0.11100
C 	C 	0.63022 0.44392 0.53957 0.35300
C 	C 	0.67693 0.46559 0.53911 -0.07900
C 	C 	0.70055 0.46939 0.58258 -0.10900
C 	C 	0.67711 0.45301 0.62704 0.34800
F 	F 	0.69936 0.45589 0.66938 -0.42300
H 	H 	0.61286 0.41731 0.66155 0.11000
H 	H 	0.69468 0.47903 0.50491 0.11500
F 	F 	0.60773 0.43993 0.49709 -0.41200
C 	C 	0.55983 0.20213 0.53962 -0.07100
C 	C 	0.56189 0.18523 0.58594 -0.12200
C 	C 	0.53702 0.18789 0.62518 0.36300
C 	C 	0.51286 0.21007 0.61901 -0.07900
C 	C 	0.51435 0.23084 0.57404 -0.08900
C 	C 	0.53631 0.22501 0.53365 0.34700
F 	F 	0.53753 0.24411 0.48962 -0.40600
H 	H 	0.57818 0.19935 0.50881 0.09700
H 	H 	0.49519 0.21350 0.65011 0.13000
F 	F 	0.53693 0.16976 0.66952 -0.40400
C 	C 	0.41230 0.45639 0.74345 -0.07600
C 	C 	0.39756 0.43566 0.78947 -0.11400
C 	C 	0.39749 0.39571 0.79906 0.35300
C 	C 	0.41167 0.37672 0.76297 -0.07800
C 	C 	0.42576 0.39702 0.71671 -0.11700
C 	C 	0.42634 0.43723 0.70722 0.35100
F 	F 	0.44090 0.45801 0.66322 -0.41800
H 	H 	0.41284 0.48731 0.73568 0.11800
H 	H 	0.41062 0.34553 0.77061 0.11900
F 	F 	0.38209 0.37433 0.84265 -0.42600
C 	C 	0.20131 0.28558 0.06773 -0.07100
C 	C 	0.21235 0.29746 0.11730 -0.11500
C 	C 	0.23495 0.34261 0.13057 0.35500
C 	C 	0.25108 0.37547 0.09419 -0.08300
C 	C 	0.24511 0.36354 0.04407 -0.09600
C 	C 	0.21717 0.31845 0.03118 0.34600
F 	F 	0.20617 0.30637 0.98340 -0.40800
H 	H 	0.18248 0.25083 0.05723 0.11700
H 	H 	0.27016 0.41010 0.10504 0.12600
F 	F 	0.24337 0.35462 0.17868 -0.41600
C 	C 	0.17657 0.37471 0.85650 -0.07800
C 	C 	0.21031 0.36695 0.83894 -0.10800
C 	C 	0.19880 0.32628 0.81611 0.35700
C 	C 	0.15391 0.29382 0.81073 -0.07900
C 	C 	0.12015 0.30165 0.82812 -0.11000
C 	C 	0.13169 0.34225 0.85120 0.35500
F 	F 	0.09956 0.34983 0.86957 -0.40900
H 	H 	0.18520 0.40586 0.87462 0.10400
H 	H 	0.14529 0.26267 0.79264 0.10700
F 	F 	0.23098 0.31865 0.79800 -0.40800
C 	C 	0.44891 0.64474 0.88308 -0.07600
C 	C 	0.42881 0.61961 0.92553 -0.11600
C 	C 	0.43851 0.64119 0.97155 0.35500
C 	C 	0.46092 0.68764 0.97386 -0.08100
C 	C 	0.47486 0.71274 0.93037 -0.10200
C 	C 	0.47238 0.69119 0.88560 0.34600
F 	F 	0.49027 0.71525 0.84400 -0.41000
H 	H 	0.44409 0.62850 0.84771 0.11700
H 	H 	0.46486 0.70391 0.00907 0.12400
F 	F 	0.42413 0.61716 0.01374 -0.41700
C 	C 	0.18509 0.55172 0.96833 -0.07900
C 	C 	0.17439 0.56321 0.92275 -0.10700
C 	C 	0.18358 0.54725 0.87918 0.35100
C 	C 	0.20849 0.52552 0.88121 -0.08200
C 	C 	0.22511 0.52025 0.92643 -0.10600
C 	C 	0.21078 0.53083 0.97032 0.35200
F 	F 	0.22399 0.52351 0.01476 -0.41200
H 	H 	0.17615 0.56177 0.00227 0.11800
H 	H 	0.21721 0.51523 0.84729 0.11000
F 	F 	0.17095 0.55522 0.83473 -0.41100
C 	C 	0.65943 0.80497 0.79956 -0.08500
C 	C 	0.69420 0.81948 0.83404 -0.10700
C 	C 	0.69820 0.84959 0.87118 0.35300
C 	C 	0.66771 0.86495 0.87353 -0.08700
C 	C 	0.63274 0.85010 0.83925 -0.10700
C 	C 	0.62925 0.82062 0.80165 0.35600
F 	F 	0.59665 0.80724 0.76701 -0.39800
H 	H 	0.65625 0.78216 0.77053 0.11000
H 	H 	0.67045 0.88728 0.90295 0.10500
F 	F 	0.73096 0.86314 0.90564 -0.40400
C 	C 	0.80016 0.63138 0.65731 -0.08600
C 	C 	0.84614 0.64681 0.65989 -0.10100
C 	C 	0.87569 0.69116 0.67280 0.35700
C 	C 	0.85951 0.72022 0.68172 -0.07700
C 	C 	0.81370 0.70548 0.67704 -0.11300
C 	C 	0.78390 0.66059 0.66548 0.35600
F 	F 	0.73956 0.64564 0.66031 -0.41200
H 	H 	0.77716 0.59709 0.64746 0.11400
H 	H 	0.88268 0.75445 0.69157 0.10700
F 	F 	0.92015 0.70615 0.67650 -0.40400
C 	C 	0.86184 0.97790 0.80023 -0.13500
C 	C 	0.84787 0.95667 0.75428 -0.08000
C 	C 	0.84860 0.98175 0.71310 0.30200
C 	C 	0.86986 0.02807 0.71639 -0.02700
C 	C 	0.89081 0.04962 0.76038 -0.13800
C 	C 	0.88365 0.02426 0.80327 0.40200
F 	F 	0.90099 0.04449 0.84706 -0.41400
H 	H 	0.85845 0.95868 0.83303 0.12700
H 	H 	0.87298 0.04739 0.68374 0.10900
F 	F 	0.83073 0.96165 0.66942 -0.40700
C 	C 	0.96390 0.85728 0.69417 -0.10300
C 	C 	0.94311 0.84684 0.74049 -0.10000
C 	C 	0.96906 0.85252 0.78281 0.33000
C 	C 	0.03658 0.89095 0.73383 -0.12300
F 	F 	0.03005 0.89324 0.64602 -0.41300
H 	H 	0.94409 0.85072 0.66100 0.11800
H 	H 	0.03544 0.88068 0.81240 0.10900
F 	F 	0.94958 0.83975 0.82771 -0.41600
C 	C 	0.80628 0.61402 0.14642 -0.07900
C 	C 	0.77225 0.62172 0.16322 -0.10800
C 	C 	0.78356 0.66222 0.18642 0.35200
C 	C 	0.82836 0.69514 0.19133 -0.07800
C 	C 	0.86236 0.68807 0.17306 -0.10800
C 	C 	0.85116 0.64705 0.15118 0.35600
F 	F 	0.88351 0.63976 0.13291 -0.40900
H 	H 	0.79790 0.58289 0.12842 0.10600
H 	H 	0.83669 0.72633 0.20914 0.10400
F 	F 	0.75121 0.66956 0.20459 -0.40900
C 	C 	0.71738 0.66604 0.95227 -0.08000
C 	C 	0.72506 0.63000 0.94884 -0.10400
C 	C 	0.74975 0.62762 0.90890 0.34900
C 	C 	0.76679 0.66131 0.87321 -0.07300
C 	C 	0.75987 0.69779 0.87750 -0.12000
C 	C 	0.73474 0.69977 0.91701 0.35700
F 	F 	0.72655 0.73412 0.92080 -0.40500
H 	H 	0.69778 0.66785 0.98236 0.12000
H 	H 	0.78604 0.65944 0.84278 0.11600
F 	F 	0.75833 0.59353 0.90538 -0.40800
C 	C 	0.48266 0.52940 0.97385 -0.07800
C 	C 	0.44896 0.48703 0.98884 -0.10500
C 	C 	0.46073 0.45755 0.01067 0.35200
C 	C 	0.50571 0.47039 0.01727 -0.07700
C 	C 	0.53936 0.51278 0.00244 -0.11400
C 	C 	0.52763 0.54227 0.98061 0.35900
F 	F 	0.55971 0.58288 0.96476 -0.41000
H 	H 	0.47395 0.55229 0.95666 0.11700
H 	H 	0.51444 0.44748 0.03427 0.10500
F 	F 	0.42870 0.41696 0.02665 -0.40900
C 	C 	0.74170 0.38319 0.10282 -0.08100
C 	C 	0.78734 0.40690 0.09182 -0.12300
C 	C 	0.80638 0.45059 0.07341 0.35400
C 	C 	0.77967 0.47004 0.06621 -0.08400
C 	C 	0.73385 0.44580 0.07662 -0.10700
C 	C 	0.71481 0.40170 0.09339 0.35000
F 	F 	0.67007 0.37676 0.10063 -0.40000
H 	H 	0.72681 0.34993 0.11792 0.11000
H 	H 	0.79473 0.50418 0.05368 0.11900
F 	F 	0.85081 0.47457 0.06394 -0.41300
C 	C 	0.53064 0.35685 0.02416 -0.07400
C 	C 	0.54247 0.37860 0.06998 -0.10500
C 	C 	0.52474 0.35337 0.11307 0.36000
C 	C 	0.50257 0.30690 0.11066 -0.07900
C 	C 	0.49897 0.28545 0.06555 -0.09300
C 	C 	0.50960 0.31043 0.02180 0.35800
F 	F 	0.50252 0.29019 0.97727 -0.40300
H 	H 	0.54133 0.37603 0.99043 0.11500
H 	H 	0.49151 0.28773 0.14437 0.11500
F 	F 	0.53188 0.37365 0.15758 -0.41400
C 	C 	0.55727 0.60975 0.23206 -0.07000
C 	C 	0.54899 0.59052 0.27904 -0.11400
C 	C 	0.55112 0.55163 0.28667 0.35700
C 	C 	0.56436 0.53379 0.24838 -0.07500
C 	C 	0.57649 0.55521 0.20240 -0.10800
C 	C 	0.57114 0.59239 0.19386 0.35400
F 	F 	0.58179 0.61323 0.14955 -0.41400
H 	H 	0.55527 0.63959 0.22584 0.12100
H 	H 	0.56694 0.50433 0.25505 0.12600
F 	F 	0.54204 0.53209 0.33171 -0.41300
C 	C 	0.66298 0.75519 0.53648 -0.08100
C 	C 	0.61793 0.73187 0.55028 -0.10600
C 	C 	0.60650 0.73061 0.60011 0.36000
C 	C 	0.64002 0.74944 0.63603 -0.07900
C 	C 	0.68528 0.76916 0.62257 -0.10200
C 	C 	0.69654 0.77318 0.57225 0.35400
F 	F 	0.73987 0.79243 0.55800 -0.41000
H 	H 	0.67206 0.75705 0.49802 0.10800
H 	H 	0.63071 0.74740 0.67440 0.12500
F 	F 	0.56302 0.70883 0.61408 -0.40100
C 	C 	0.67439 0.84969 0.29556 -0.08100
C 	C 	0.68537 0.87936 0.33522 -0.12000
C 	C 	0.67604 0.86286 0.38355 0.35100
C 	C 	0.65411 0.81691 0.39183 -0.08300
C 	C 	0.64123 0.78720 0.35193 -0.11300
C 	C 	0.65247 0.80386 0.30381 0.35100
F 	F 	0.64212 0.77564 0.26503 -0.40900
H 	H 	0.68264 0.86221 0.25823 0.10200
H 	H 	0.64571 0.80436 0.42913 0.10300
F 	F 	0.68664 0.89114 0.42230 -0.41500
C 	C 	0.48295 0.47515 0.54587 -0.07100
C 	C 	0.45998 0.44137 0.51103 -0.10500
C 	C 	0.45124 0.45228 0.46410 0.36600
C 	C 	0.46709 0.49685 0.45151 -0.06700
C 	C 	0.49141 0.53078 0.48585 -0.10300
C 	C 	0.49832 0.51966 0.53355 0.36100
F 	F 	0.52190 0.55209 0.56712 -0.39800
H 	H 	0.49058 0.46709 0.58183 0.13600
H 	H 	0.46122 0.50509 0.41477 0.14500
F 	F 	0.42913 0.41990 0.43001 -0.39500
C 	C 	0.41622 0.77526 0.35767 -0.07700
C 	C 	0.40585 0.79307 0.39869 -0.11300
C 	C 	0.41834 0.78649 0.44614 0.35200
C 	C 	0.44161 0.76319 0.45203 -0.08000
C 	C 	0.45252 0.74605 0.41088 -0.11000
C 	C 	0.43911 0.75170 0.36365 0.34400
F 	F 	0.44746 0.73357 0.32359 -0.42700
H 	H 	0.40653 0.77965 0.32105 0.11600
H 	H 	0.45135 0.75874 0.48860 0.12200
F 	F 	0.40716 0.80178 0.48659 -0.42200
C 	C 	0.30372 0.52080 0.41912 -0.08400
C 	C 	0.28334 0.54681 0.42442 -0.10700
C 	C 	0.30915 0.59336 0.42092 0.35000
C 	C 	0.35442 0.61348 0.40966 -0.07700
C 	C 	0.37471 0.58751 0.40332 -0.12300
C 	C 	0.34937 0.54108 0.40888 0.35700
F 	F 	0.36889 0.51565 0.40368 -0.41000
H 	H 	0.28395 0.48486 0.42130 0.11500
H 	H 	0.37399 0.64939 0.40681 0.11100
F 	F 	0.28993 0.61896 0.42714 -0.41600
