data_crystal

_cell_length_a 24.78686
_cell_length_b 23.63504
_cell_length_c 35.02707
_cell_angle_alpha 88.38579
_cell_angle_beta  90.80019
_cell_angle_gamma 121.07669

_symmetry_space_group_name_	'P 1'
_symmetry_space_group_name_H-M	'P 1'

loop_
_symmetry_equiv_pos_as_xyz
  x,y,z

loop_
_atom_site_label
_atom_site_type_symbol
_atom_site_fract_x
_atom_site_fract_y
_atom_site_fract_z
_atom_site_charge
Zn	Zn	0.29643 0.03995 0.71145 1.21900
Zn	Zn	0.44693 0.07533 0.70334 1.19400
C 	C 	0.29377 0.06604 0.56915 0.34300
Zn	Zn	0.37815 0.08522 0.63554 1.22000
Zn	Zn	0.24434 0.08386 0.64199 1.19500
H 	H 	0.34752 0.97959 0.67269 0.19000
C 	C 	0.46578 0.20669 0.67064 0.31200
O 	O 	0.18182 0.06071 0.68262 -0.47100
O 	O 	0.23845 0.07207 0.73687 -0.38600
O 	O 	0.36114 0.02520 0.68007 -0.79900
O 	O 	0.43007 0.07511 0.75780 -0.44400
O 	O 	0.22181 0.95215 0.70042 -0.42800
O 	O 	0.32672 0.04144 0.76429 -0.42500
O 	O 	0.21513 0.98026 0.63857 -0.39900
O 	O 	0.51159 0.11010 0.66285 -0.47400
H 	H 	0.34039 0.15194 0.67994 0.17800
O 	O 	0.44645 0.06636 0.61154 -0.40100
O 	O 	0.32199 0.10714 0.66965 -0.79000
O 	O 	0.26953 0.09653 0.58665 -0.46300
O 	O 	0.44467 0.17951 0.63729 -0.42200
O 	O 	0.33063 0.04944 0.58738 -0.43800
O 	O 	0.45122 0.16931 0.70173 -0.42300
C 	C 	0.19922 0.08350 0.71723 0.31100
C 	C 	0.37505 0.03478 0.77331 0.28900
C 	C 	0.19040 0.93920 0.66809 0.31100
C 	C 	0.50199 0.08943 0.62765 0.31900
Zn	Zn	0.44616 0.94290 0.98966 1.22300
Zn	Zn	0.44059 0.08156 0.98985 1.19600
C 	C 	0.43860 0.94059 0.12237 0.33400
Zn	Zn	0.48101 0.03679 0.05979 1.21700
Zn	Zn	0.48160 0.89086 0.06187 1.20100
H 	H 	0.37192 0.97506 0.03035 0.19100
C 	C 	0.58118 0.13183 0.00885 0.31100
O 	O 	0.48224 0.83378 0.02263 -0.45700
O 	O 	0.48915 0.89196 0.96752 -0.39000
O 	O 	0.41533 0.99851 0.02002 -0.77400
O 	O 	0.41993 0.05082 0.93701 -0.44700
O 	O 	0.36427 0.85810 0.99382 -0.43800
O 	O 	0.46175 0.98466 0.93851 -0.41900
O 	O 	0.37913 0.83978 0.05622 -0.40000
O 	O 	0.47230 0.15785 0.02300 -0.46100
H 	H 	0.54801 0.99550 0.02422 0.17500
O 	O 	0.45395 0.10281 0.07998 -0.41100
O 	O 	0.50392 0.97339 0.03334 -0.78700
O 	O 	0.46568 0.90666 0.11499 -0.44900
O 	O 	0.56457 0.11399 0.04490 -0.43900
O 	O 	0.46768 0.00399 0.11330 -0.44700
O 	O 	0.53848 0.10772 0.98142 -0.41300
C 	C 	0.50428 0.85434 0.98781 0.31400
C 	C 	0.42376 0.00217 0.92293 0.28900
C 	C 	0.34826 0.81829 0.02396 0.32500
C 	C 	0.46213 0.15411 0.05980 0.33100
Zn	Zn	0.19972 0.90133 0.28075 1.22400
Zn	Zn	0.25564 0.80140 0.30476 1.20300
C 	C 	0.21496 0.95610 0.41938 0.33300
Zn	Zn	0.23049 0.87188 0.36474 1.22100
Zn	Zn	0.13882 0.93277 0.34889 1.20000
H 	H 	0.31061 0.92846 0.31288 0.18700
C 	C 	0.14615 0.73192 0.36091 0.32100
O 	O 	0.11097 0.96077 0.30289 -0.45900
O 	O 	0.12076 0.90141 0.25583 -0.38100
O 	O 	0.26681 0.89042 0.31304 -0.78000
O 	O 	0.22070 0.77995 0.25295 -0.43800
O 	O 	0.25207 0.99962 0.27601 -0.41200
O 	O 	0.19998 0.85883 0.23283 -0.42000
O 	O 	0.23462 0.01180 0.33751 -0.42500
O 	O 	0.27791 0.77450 0.35261 -0.46300
H 	H 	0.11622 0.82278 0.32845 0.18700
O 	O 	0.30804 0.86527 0.38824 -0.38800
O 	O 	0.15587 0.86584 0.33089 -0.78200
O 	O 	0.15935 0.93876 0.40484 -0.45100
O 	O 	0.17299 0.78115 0.38459 -0.43200
O 	O 	0.25425 0.94451 0.40098 -0.42700
O 	O 	0.15850 0.74415 0.32423 -0.41800
C 	C 	0.08889 0.92447 0.27228 0.31600
C 	C 	0.23158 0.82845 0.22929 0.31000
C 	C 	0.24980 0.03644 0.30264 0.30100
C 	C 	0.31483 0.81579 0.37842 0.31600
Zn	Zn	0.76074 0.58160 0.62857 1.22400
Zn	Zn	0.80432 0.74335 0.62669 1.19900
C 	C 	0.75298 0.58300 0.76967 0.33400
Zn	Zn	0.79751 0.67420 0.70070 1.22100
Zn	Zn	0.78347 0.52703 0.70571 1.20500
H 	H 	0.70477 0.64491 0.65735 0.18500
C 	C 	0.92108 0.76071 0.66921 0.32900
O 	O 	0.75967 0.45649 0.66878 -0.44400
O 	O 	0.78708 0.51276 0.61158 -0.38300
O 	O 	0.74846 0.65570 0.65284 -0.77600
O 	O 	0.81288 0.72004 0.57497 -0.45000
O 	O 	0.67277 0.50878 0.63820 -0.42600
O 	O 	0.77121 0.60915 0.57373 -0.41300
O 	O 	0.68939 0.51106 0.70203 -0.42400
O 	O 	0.83135 0.81245 0.66479 -0.46400
H 	H 	0.86243 0.62425 0.66653 0.18800
O 	O 	0.77712 0.74782 0.71613 -0.38900
O 	O 	0.81833 0.60823 0.67387 -0.77900
O 	O 	0.78616 0.55716 0.75884 -0.46100
O 	O 	0.88898 0.74210 0.70138 -0.42800
O 	O 	0.75574 0.63305 0.75036 -0.41800
O 	O 	0.89080 0.74356 0.63660 -0.42600
C 	C 	0.78795 0.46933 0.63551 0.31500
C 	C 	0.77175 0.66257 0.56138 0.31100
C 	C 	0.65365 0.48229 0.67245 0.32400
C 	C 	0.80017 0.80355 0.69650 0.32000
Zn	Zn	0.54544 0.54134 0.95708 1.22200
Zn	Zn	0.65063 0.49706 0.98444 1.19800
C 	C 	0.55683 0.61597 0.09187 0.33200
Zn	Zn	0.60142 0.55275 0.04017 1.22200
Zn	Zn	0.47544 0.56223 0.02284 1.19600
H 	H 	0.66627 0.61348 0.98202 0.18300
C 	C 	0.55368 0.41392 0.04661 0.32200
O 	O 	0.43278 0.56866 0.97562 -0.45500
O 	O 	0.45266 0.50661 0.93563 -0.39000
O 	O 	0.62998 0.56827 0.98676 -0.78400
O 	O 	0.61441 0.45577 0.93505 -0.43100
O 	O 	0.57025 0.63422 0.94476 -0.42900
O 	O 	0.55505 0.49720 0.91251 -0.42100
O 	O 	0.56009 0.65410 0.00674 -0.42400
O 	O 	0.69102 0.49795 0.03326 -0.45800
H 	H 	0.48357 0.46239 0.01209 0.18300
O 	O 	0.69510 0.58640 0.06056 -0.38500
O 	O 	0.51418 0.51049 0.01012 -0.78400
O 	O 	0.49891 0.58447 0.07821 -0.44900
O 	O 	0.57295 0.46717 0.06655 -0.43300
O 	O 	0.60427 0.62266 0.07166 -0.43100
O 	O 	0.56285 0.41893 0.00948 -0.41600
C 	C 	0.41553 0.52702 0.94738 0.32200
C 	C 	0.60306 0.48842 0.90849 0.30000
C 	C 	0.57306 0.67447 0.97095 0.32000
C 	C 	0.72047 0.55043 0.05429 0.32200
Zn	Zn	0.62420 0.75284 0.37856 1.22400
Zn	Zn	0.78318 0.81769 0.37502 1.20200
C 	C 	0.61861 0.74570 0.23751 0.33300
Zn	Zn	0.70861 0.80055 0.30366 1.22100
Zn	Zn	0.56198 0.77122 0.30424 1.19700
H 	H 	0.69458 0.70780 0.34664 0.18200
C 	C 	0.78405 0.93341 0.33008 0.33600
O 	O 	0.49722 0.74756 0.34366 -0.46600
O 	O 	0.55411 0.77100 0.39909 -0.39000
O 	O 	0.70030 0.75154 0.35173 -0.77700
O 	O 	0.76002 0.82203 0.42771 -0.44000
O 	O 	0.56066 0.65781 0.37200 -0.43200
O 	O 	0.65367 0.76724 0.43197 -0.42200
O 	O 	0.54570 0.67183 0.30926 -0.41900
O 	O 	0.84987 0.85232 0.33622 -0.46600
H 	H 	0.65342 0.85683 0.34065 0.18200
O 	O 	0.78829 0.79622 0.28535 -0.39400
O 	O 	0.64104 0.81169 0.33304 -0.79100
O 	O 	0.58799 0.77372 0.24972 -0.46500
O 	O 	0.76222 0.89743 0.29944 -0.43900
O 	O 	0.66804 0.75218 0.25619 -0.42200
O 	O 	0.77454 0.90416 0.36392 -0.41100
C 	C 	0.50984 0.77163 0.37830 0.31800
C 	C 	0.70753 0.77280 0.44161 0.31400
C 	C 	0.52547 0.63696 0.34126 0.32200
C 	C 	0.84420 0.83356 0.30073 0.32600
Zn	Zn	0.88208 0.19200 0.61572 1.22400
Zn	Zn	0.99095 0.14928 0.63532 1.19100
C 	C 	0.91022 0.27284 0.74951 0.33600
Zn	Zn	0.94574 0.20156 0.69604 1.22000
Zn	Zn	0.81963 0.21404 0.68533 1.19700
H 	H 	0.00547 0.26527 0.63692 0.19300
C 	C 	0.89232 0.06228 0.69717 0.30400
O 	O 	0.77076 0.21817 0.64096 -0.45800
O 	O 	0.78724 0.15677 0.59852 -0.38900
O 	O 	0.97005 0.21961 0.64176 -0.79700
O 	O 	0.95569 0.11272 0.58468 -0.45900
O 	O 	0.90554 0.28468 0.60294 -0.41800
O 	O 	0.88257 0.14136 0.57202 -0.41900
O 	O 	0.90190 0.30490 0.66558 -0.42600
O 	O 	0.03387 0.14373 0.68161 -0.45900
H 	H 	0.82465 0.11485 0.67127 0.17700
O 	O 	0.03892 0.22831 0.71455 -0.38800
O 	O 	0.85633 0.16265 0.66929 -0.78700
O 	O 	0.85070 0.23680 0.73918 -0.46900
O 	O 	0.91559 0.11380 0.71911 -0.43900
O 	O 	0.95501 0.27224 0.72996 -0.43300
O 	O 	0.90304 0.07014 0.66007 -0.42300
C 	C 	0.75055 0.17545 0.61319 0.32400
C 	C 	0.93264 0.13983 0.56170 0.30500
C 	C 	0.90645 0.32347 0.62952 0.31400
C 	C 	0.06164 0.19034 0.70681 0.32100
Zn	Zn	0.96655 0.42626 0.01743 1.21900
Zn	Zn	0.08475 0.40253 0.01111 1.19600
C 	C 	0.96972 0.43810 0.88084 0.29400
Zn	Zn	0.05446 0.46622 0.94552 1.22400
Zn	Zn	0.91830 0.47120 0.94797 1.19600
H 	H 	0.98514 0.34688 0.96901 0.17100
C 	C 	0.13967 0.55554 0.00259 0.30800
O 	O 	0.86810 0.47518 0.99012 -0.46800
O 	O 	0.92469 0.47566 0.04280 -0.38500
O 	O 	0.01116 0.39005 0.98132 -0.77300
O 	O 	0.04368 0.36728 0.06119 -0.46200
O 	O 	0.88237 0.34426 0.01562 -0.43300
O 	O 	0.00909 0.43909 0.06785 -0.42300
O 	O 	0.86489 0.36332 0.95393 -0.40800
O 	O 	0.16240 0.44109 0.98049 -0.47200
H 	H 	0.01785 0.53511 0.98394 0.19100
O 	O 	0.11866 0.43988 0.92256 -0.39600
O 	O 	0.99591 0.48954 0.97441 -0.81500
O 	O 	0.92990 0.45490 0.89327 -0.44000
O 	O 	0.12741 0.54660 0.96574 -0.43200
O 	O 	0.02893 0.47010 0.89235 -0.42100
O 	O 	0.11549 0.50456 0.02700 -0.41200
C 	C 	0.89066 0.49616 0.02463 0.30700
C 	C 	0.02545 0.39841 0.08300 0.34200
C 	C 	0.84404 0.33004 0.98643 0.32300
C 	C 	0.16535 0.44386 0.94311 0.32300
Zn	Zn	0.11114 0.30079 0.28782 1.22200
Zn	Zn	0.14709 0.45923 0.30047 1.19600
C 	C 	0.07969 0.26084 0.42680 0.33400
Zn	Zn	0.13127 0.37041 0.36773 1.22100
Zn	Zn	0.12004 0.22540 0.35892 1.19900
H 	H 	0.04614 0.35131 0.32030 0.17700
C 	C 	0.25872 0.46499 0.34509 0.30800
O 	O 	0.10133 0.16649 0.31614 -0.47100
O 	O 	0.14330 0.23885 0.26590 -0.38600
O 	O 	0.09103 0.36503 0.31770 -0.78000
O 	O 	0.16416 0.45268 0.24680 -0.43700
O 	O 	0.02231 0.22617 0.28947 -0.40900
O 	O 	0.13420 0.34587 0.23696 -0.42000
O 	O 	0.02556 0.20927 0.35366 -0.41200
O 	O 	0.16563 0.51473 0.34501 -0.47400
H 	H 	0.20478 0.33293 0.33102 0.18100
O 	O 	0.10391 0.43620 0.38916 -0.39200
O 	O 	0.15942 0.31465 0.33589 -0.78400
O 	O 	0.11749 0.24230 0.41385 -0.45600
O 	O 	0.22196 0.43814 0.37523 -0.41900
O 	O 	0.08131 0.31365 0.41213 -0.42800
O 	O 	0.23353 0.46001 0.31116 -0.42100
C 	C 	0.13780 0.18821 0.28594 0.31600
C 	C 	0.12965 0.39797 0.22838 0.30100
C 	C 	0.99416 0.19405 0.32131 0.28400
C 	C 	0.12685 0.49559 0.37398 0.32300
C 	C 	0.09469 0.39845 0.19374 -0.10400
C 	C 	0.10355 0.45841 0.17752 0.13900
C 	C 	0.07599 0.45784 0.14222 -0.04200
C 	C 	0.03625 0.39804 0.12428 -0.11400
C 	C 	0.01912 0.33803 0.14365 0.16500
C 	C 	0.05020 0.33841 0.17742 -0.06100
H 	H 	0.08813 0.50424 0.12796 0.06700
H 	H 	0.03953 0.29190 0.19089 0.06500
O 	O 	0.14354 0.51818 0.19435 -0.19400
O 	O 	0.97594 0.27851 0.12774 -0.21600
C 	C 	0.10716 0.53507 0.21667 -0.01700
H 	H 	0.07520 0.54445 0.19853 0.04100
H 	H 	0.13951 0.58152 0.23153 0.03000
H 	H 	0.07979 0.49660 0.23910 -0.00400
C 	C 	0.91583 0.25887 0.14230 -0.01900
H 	H 	0.91439 0.25424 0.17408 0.03300
H 	H 	0.88157 0.20927 0.13142 0.03600
H 	H 	0.90021 0.29333 0.13235 0.03300
C 	C 	0.95300 0.39759 0.84631 -0.09300
C 	C 	0.89544 0.33680 0.84447 0.13000
C 	C 	0.88361 0.29500 0.81374 -0.04700
C 	C 	0.92686 0.31480 0.78355 -0.11100
C 	C 	0.98441 0.37591 0.78532 0.13600
C 	C 	0.99621 0.41765 0.81611 -0.07000
H 	H 	0.84037 0.24724 0.81332 0.05300
H 	H 	0.03956 0.46529 0.81669 0.07900
O 	O 	0.85341 0.31511 0.87461 -0.19600
O 	O 	0.02692 0.39741 0.75544 -0.17700
C 	C 	0.80422 0.32645 0.86502 -0.02100
H 	H 	0.82206 0.37922 0.85720 0.04000
H 	H 	0.77331 0.31386 0.89034 0.04500
H 	H 	0.77468 0.29401 0.84156 0.03400
C 	C 	0.07569 0.38561 0.76551 -0.02800
H 	H 	0.10557 0.41878 0.78863 0.04600
H 	H 	0.10630 0.39677 0.74019 0.05100
H 	H 	0.05739 0.33300 0.77407 0.06000
C 	C 	0.03373 0.22171 0.45771 -0.09600
C 	C 	0.02907 0.16369 0.47375 0.15700
C 	C 	0.99262 0.13419 0.50670 -0.07400
C 	C 	0.95680 0.15871 0.52209 -0.11200
C 	C 	0.95257 0.20865 0.50179 0.13700
C 	C 	0.99299 0.24184 0.47088 -0.06700
H 	H 	0.99313 0.09293 0.52061 0.05500
H 	H 	0.99254 0.28331 0.45723 0.06500
O 	O 	0.06346 0.13836 0.45894 -0.21200
O 	O 	0.91210 0.22842 0.51381 -0.20400
C 	C 	0.02532 0.08941 0.43257 0.00100
H 	H 	0.98554 0.04562 0.44727 0.01200
H 	H 	0.05432 0.07256 0.41861 0.01200
H 	H 	0.00744 0.10889 0.40949 0.02000
C 	C 	0.85459 0.19183 0.49406 -0.02200
H 	H 	0.86031 0.20672 0.46326 0.03700
H 	H 	0.81984 0.20245 0.50633 0.05200
H 	H 	0.83433 0.13748 0.49744 0.04900
C 	C 	0.45900 0.58158 0.34436 -0.10500
C 	C 	0.42590 0.54657 0.31174 0.14400
C 	C 	0.36137 0.49997 0.31441 -0.05400
C 	C 	0.32777 0.49349 0.34780 -0.10100
C 	C 	0.36132 0.52215 0.38160 0.13800
C 	C 	0.42697 0.56649 0.37963 -0.04600
H 	H 	0.33668 0.47152 0.28960 0.06100
H 	H 	0.45272 0.58935 0.40547 0.06400
O 	O 	0.45778 0.55308 0.27825 -0.19900
O 	O 	0.33296 0.49699 0.41673 -0.18800
C 	C 	0.44457 0.58960 0.25106 -0.01600
H 	H 	0.39518 0.56008 0.24071 0.04100
H 	H 	0.47569 0.60097 0.22601 0.04600
H 	H 	0.45381 0.63751 0.26219 0.02700
C 	C 	0.31857 0.54135 0.43322 -0.02700
H 	H 	0.36217 0.58657 0.44254 0.04300
H 	H 	0.28968 0.51720 0.45915 0.05400
H 	H 	0.29009 0.55391 0.41390 0.06000
C 	C 	0.92899 0.13645 0.32048 -0.09500
C 	C 	0.90459 0.09859 0.28731 0.13600
C 	C 	0.85086 0.03503 0.29008 -0.03900
C 	C 	0.82521 0.00637 0.32603 -0.12100
C 	C 	0.84522 0.04685 0.35837 0.14200
C 	C 	0.89492 0.11275 0.35477 -0.06100
H 	H 	0.83219 0.00638 0.26452 0.05900
H 	H 	0.90965 0.14401 0.37945 0.05700
O 	O 	0.93000 0.12563 0.25180 -0.18900
O 	O 	0.81253 0.02397 0.39248 -0.19400
C 	C 	0.96867 0.10144 0.24042 -0.04500
H 	H 	0.00281 0.10621 0.26296 0.07400
H 	H 	0.99663 0.13108 0.21523 0.05100
H 	H 	0.93955 0.04922 0.23157 0.04900
C 	C 	0.84944 0.01296 0.41934 -0.06500
H 	H 	0.87013 0.98501 0.40746 0.05300
H 	H 	0.81880 0.98298 0.44361 0.07200
H 	H 	0.88726 0.06057 0.43094 0.04200
C 	C 	0.56943 0.64687 0.12961 -0.10500
C 	C 	0.55142 0.69301 0.13757 0.14600
C 	C 	0.56578 0.72346 0.17327 -0.05300
C 	C 	0.60038 0.71037 0.20061 -0.10300
C 	C 	0.61735 0.66310 0.19263 0.14400
C 	C 	0.60317 0.63316 0.15695 -0.04700
H 	H 	0.55109 0.75825 0.17926 0.05700
H 	H 	0.61820 0.59872 0.15066 0.05900
O 	O 	0.51646 0.70559 0.11134 -0.20200
O 	O 	0.65218 0.64981 0.21857 -0.18400
C 	C 	0.55809 0.76083 0.08837 -0.02600
H 	H 	0.58417 0.80622 0.10554 0.03200
H 	H 	0.53005 0.76985 0.06680 0.04100
H 	H 	0.59155 0.75194 0.07249 0.05300
C 	C 	0.61040 0.59473 0.24156 -0.03300
H 	H 	0.57989 0.60567 0.25899 0.06000
H 	H 	0.63853 0.58320 0.26171 0.04800
H 	H 	0.58129 0.55004 0.22424 0.04600
C 	C 	0.86957 0.53471 0.04504 -0.10700
C 	C 	0.83557 0.51016 0.07948 0.14500
C 	C 	0.79532 0.53221 0.09044 -0.04500
C 	C 	0.78535 0.57318 0.06528 -0.10700
C 	C 	0.83222 0.61123 0.03803 0.13500
C 	C 	0.87246 0.58967 0.02658 -0.05500
H 	H 	0.76508 0.50967 0.11514 0.06100
H 	H 	0.90200 0.61214 0.00158 0.03300
O 	O 	0.84630 0.47008 0.10400 -0.19000
O 	O 	0.82921 0.65945 0.01662 -0.22100
C 	C 	0.79890 0.40359 0.09866 -0.02500
H 	H 	0.75226 0.39406 0.10824 0.04700
H 	H 	0.81032 0.37173 0.11660 0.04500
H 	H 	0.79657 0.38852 0.06856 0.04800
C 	C 	0.86759 0.72045 0.03430 -0.01500
H 	H 	0.85031 0.72031 0.06352 0.04400
H 	H 	0.86551 0.75947 0.01717 0.03800
H 	H 	0.91779 0.73388 0.03520 0.03200
C 	C 	0.35288 0.50098 0.92994 -0.10600
C 	C 	0.30765 0.43306 0.93302 0.13900
C 	C 	0.24342 0.41190 0.93036 -0.05200
C 	C 	0.22436 0.45812 0.92496 -0.10200
C 	C 	0.27001 0.52403 0.91490 0.14300
C 	C 	0.33433 0.54472 0.91650 -0.04800
H 	H 	0.20856 0.36057 0.93665 0.04500
H 	H 	0.36948 0.59592 0.91036 0.06500
O 	O 	0.32551 0.38845 0.94395 -0.21100
O 	O 	0.25165 0.56800 0.90321 -0.19200
C 	C 	0.33287 0.36065 0.91078 -0.02000
H 	H 	0.28731 0.33138 0.89543 0.03800
H 	H 	0.34903 0.32627 0.91941 0.04400
H 	H 	0.36934 0.39904 0.89130 0.05200
C 	C 	0.26554 0.61365 0.93237 -0.02700
H 	H 	0.31615 0.65308 0.93144 0.04100
H 	H 	0.25335 0.58992 0.96137 0.05000
H 	H 	0.23768 0.63776 0.92731 0.05900
C 	C 	0.64049 0.51010 0.87238 -0.10700
C 	C 	0.69383 0.50357 0.86786 0.13800
C 	C 	0.72856 0.52521 0.83369 -0.05200
C 	C 	0.71367 0.55731 0.80482 -0.10700
C 	C 	0.66084 0.56443 0.80948 0.14400
C 	C 	0.62556 0.54197 0.84335 -0.05400
H 	H 	0.76816 0.51833 0.83016 0.05400
H 	H 	0.58658 0.54981 0.84698 0.06300
O 	O 	0.70981 0.47222 0.89577 -0.21200
O 	O 	0.64705 0.59890 0.78244 -0.18500
C 	C 	0.75754 0.52062 0.91891 -0.01200
H 	H 	0.80218 0.55072 0.90261 0.02200
H 	H 	0.76717 0.49523 0.94280 0.01000
H 	H 	0.74287 0.55318 0.93182 -0.02300
C 	C 	0.59768 0.55327 0.75908 -0.02900
H 	H 	0.60943 0.51915 0.74537 0.04900
H 	H 	0.58985 0.58109 0.73584 0.04500
H 	H 	0.55291 0.52475 0.77546 0.04000
C 	C 	0.85110 0.99602 0.71342 -0.09500
C 	C 	0.87618 0.96792 0.73842 0.15900
C 	C 	0.85217 0.89980 0.73773 -0.05000
C 	C 	0.80215 0.86031 0.71321 -0.09800
C 	C 	0.76844 0.88683 0.69543 0.14300
C 	C 	0.79256 0.95497 0.69642 -0.04800
H 	H 	0.87653 0.87904 0.75306 0.05800
H 	H 	0.76896 0.97636 0.68087 0.05000
O 	O 	0.92963 0.00781 0.75937 -0.21400
O 	O 	0.70990 0.84552 0.67951 -0.20800
C 	C 	0.91080 0.01490 0.79584 -0.04000
H 	H 	0.88294 0.03975 0.79404 0.04300
H 	H 	0.95360 0.04665 0.81287 0.04000
H 	H 	0.88392 0.96644 0.81144 0.05000
C 	C 	0.71582 0.84763 0.63940 -0.00900
H 	H 	0.73161 0.89780 0.62721 0.03500
H 	H 	0.66877 0.81345 0.62714 0.03200
H 	H 	0.74788 0.83078 0.63025 0.00300
C 	C 	0.89480 0.37710 0.61926 -0.10400
C 	C 	0.84620 0.36554 0.59333 0.14200
C 	C 	0.81162 0.39665 0.59841 -0.04200
C 	C 	0.82807 0.44231 0.62746 -0.11300
C 	C 	0.88237 0.46079 0.64959 0.14500
C 	C 	0.91753 0.43064 0.64370 -0.05400
H 	H 	0.77123 0.38403 0.58038 0.05700
H 	H 	0.95854 0.44393 0.66128 0.06000
O 	O 	0.82867 0.31945 0.56520 -0.18900
O 	O 	0.90331 0.51141 0.67523 -0.23600
C 	C 	0.86279 0.35247 0.53178 -0.02300
H 	H 	0.85391 0.39228 0.52211 0.03900
H 	H 	0.84674 0.31646 0.50851 0.04700
H 	H 	0.91416 0.37267 0.53584 0.05000
C 	C 	0.88688 0.48387 0.71258 -0.03000
H 	H 	0.83608 0.44521 0.71533 0.00600
H 	H 	0.89603 0.52377 0.73233 0.00600
H 	H 	0.91657 0.46338 0.72205 0.04500
C 	C 	0.70918 0.72229 0.46652 -0.13000
C 	C 	0.75610 0.70630 0.46138 0.15500
C 	C 	0.77123 0.67679 0.49156 -0.04900
C 	C 	0.73860 0.66130 0.52624 -0.10000
C 	C 	0.68450 0.66642 0.52864 0.13200
C 	C 	0.66930 0.69591 0.49831 -0.03600
H 	H 	0.81163 0.67096 0.48903 0.06300
H 	H 	0.62922 0.70225 0.50079 0.06000
O 	O 	0.79125 0.72523 0.42818 -0.26800
O 	O 	0.64481 0.63958 0.55988 -0.21400
C 	C 	0.76481 0.67103 0.40365 -0.02200
H 	H 	0.77271 0.63139 0.41494 0.04000
H 	H 	0.78875 0.68800 0.37554 0.00600
H 	H 	0.71361 0.65085 0.39867 0.01600
C 	C 	0.65611 0.69078 0.58455 0.00700
H 	H 	0.70644 0.72091 0.59303 -0.04600
H 	H 	0.62841 0.66827 0.61107 0.02200
H 	H 	0.64005 0.72306 0.57152 0.02900
C 	C 	0.46502 0.78468 0.39669 -0.10900
C 	C 	0.47686 0.84963 0.39750 0.13900
C 	C 	0.42599 0.86007 0.39770 -0.05600
C 	C 	0.36401 0.80604 0.39569 -0.10100
C 	C 	0.35331 0.74116 0.39967 0.14000
C 	C 	0.40436 0.73191 0.40372 -0.04300
H 	H 	0.43495 0.91002 0.39519 0.06000
H 	H 	0.39592 0.68220 0.40518 0.05400
O 	O 	0.53738 0.90273 0.39248 -0.21300
O 	O 	0.29329 0.68677 0.39582 -0.18200
C 	C 	0.56473 0.92372 0.42878 -0.02300
H 	H 	0.53861 0.94104 0.44582 0.04300
H 	H 	0.61345 0.96622 0.42484 0.04900
H 	H 	0.56804 0.88416 0.44473 0.05000
C 	C 	0.28696 0.65975 0.35922 -0.02200
H 	H 	0.31810 0.69597 0.33669 0.03300
H 	H 	0.23797 0.64006 0.34927 0.05400
H 	H 	0.29613 0.61854 0.36103 0.04700
C 	C 	0.02641 0.90684 0.25783 -0.10300
C 	C 	0.98053 0.83977 0.25257 0.12300
C 	C 	0.91756 0.81674 0.26212 -0.05200
C 	C 	0.90123 0.86015 0.27739 -0.10000
C 	C 	0.94630 0.92853 0.27750 0.12300
C 	C 	0.00640 0.95158 0.26268 -0.01500
H 	H 	0.88307 0.76432 0.26123 0.05700
H 	H 	0.04065 0.00411 0.26228 0.05000
O 	O 	0.99844 0.79503 0.24417 -0.19800
O 	O 	0.93242 0.97213 0.29389 -0.19100
C 	C 	0.99700 0.78908 0.20419 -0.05900
H 	H 	0.94854 0.76923 0.19268 0.04700
H 	H 	0.01169 0.75343 0.19734 0.06600
H 	H 	0.03077 0.83701 0.18972 0.06900
C 	C 	0.96495 0.99321 0.32902 0.00400
H 	H 	0.01541 0.03084 0.32403 0.03100
H 	H 	0.96094 0.95179 0.34723 0.02600
H 	H 	0.94462 0.01712 0.34545 0.02100
C 	C 	0.18487 0.16879 0.28161 -0.12600
C 	C 	0.17793 0.12493 0.25307 0.15200
C 	C 	0.20685 0.08738 0.25763 -0.05500
C 	C 	0.24063 0.09176 0.29124 -0.09900
C 	C 	0.25370 0.14173 0.31732 0.13300
C 	C 	0.22859 0.18254 0.31098 -0.04900
H 	H 	0.19832 0.05084 0.23665 0.06100
H 	H 	0.23821 0.22060 0.33116 0.01100
O 	O 	0.13659 0.11244 0.22319 -0.20400
O 	O 	0.29390 0.15298 0.34781 -0.19500
C 	C 	0.17066 0.15456 0.19209 -0.02100
H 	H 	0.19265 0.20758 0.19937 0.05100
H 	H 	0.13739 0.14516 0.16823 0.04400
H 	H 	0.20692 0.14424 0.18167 0.03500
C 	C 	0.25883 0.13207 0.38217 -0.01200
H 	H 	0.24917 0.17040 0.39181 0.02200
H 	H 	0.28749 0.12581 0.40460 0.04800
H 	H 	0.21369 0.08386 0.38000 0.01900
C 	C 	0.10478 0.53875 0.38643 -0.11500
C 	C 	0.14175 0.58870 0.41226 0.15300
C 	C 	0.14907 0.65134 0.40688 -0.04700
C 	C 	0.11946 0.66362 0.37590 -0.09900
C 	C 	0.07322 0.60984 0.35501 0.13800
C 	C 	0.06312 0.54642 0.36254 -0.05200
H 	H 	0.18263 0.69169 0.42432 0.07500
H 	H 	0.02912 0.50533 0.34571 0.03500
O 	O 	0.17953 0.58016 0.43824 -0.19000
O 	O 	0.03577 0.61879 0.32882 -0.19500
C 	C 	0.14581 0.55505 0.47272 -0.02600
H 	H 	0.13396 0.59024 0.48507 0.04300
H 	H 	0.17609 0.54826 0.49368 0.04800
H 	H 	0.10247 0.50578 0.46887 0.05100
C 	C 	0.05274 0.61283 0.29142 -0.02000
H 	H 	0.10462 0.63789 0.28696 0.04000
H 	H 	0.03485 0.63613 0.27105 0.05200
H 	H 	0.03014 0.55988 0.28413 0.02700
C 	C 	0.28318 0.85308 0.20097 -0.11800
C 	C 	0.33794 0.85025 0.20880 0.14500
C 	C 	0.38778 0.87783 0.18246 -0.04300
C 	C 	0.38601 0.91280 0.14996 -0.10300
C 	C 	0.33152 0.91587 0.14222 0.14400
C 	C 	0.27934 0.88300 0.16678 -0.04200
H 	H 	0.42840 0.87296 0.18776 0.05900
H 	H 	0.23629 0.88221 0.15957 0.06200
O 	O 	0.34058 0.81561 0.24056 -0.24200
O 	O 	0.32680 0.94522 0.10865 -0.20400
C 	C 	0.38011 0.86107 0.26812 -0.03700
H 	H 	0.43038 0.88553 0.25941 0.03800
H 	H 	0.37491 0.83365 0.29537 -0.00800
H 	H 	0.36747 0.89890 0.27374 -0.00900
C 	C 	0.33004 0.00483 0.11743 -0.06700
H 	H 	0.28712 0.99527 0.13289 0.05900
H 	H 	0.33176 0.03105 0.09029 0.03900
H 	H 	0.37293 0.03804 0.13428 0.05900
C 	C 	0.18641 0.62223 0.01584 -0.10100
C 	C 	0.18270 0.67745 0.00348 0.14400
C 	C 	0.23561 0.74146 0.00652 -0.04600
C 	C 	0.29184 0.75097 0.02258 -0.10100
C 	C 	0.29478 0.69559 0.03578 0.14300
C 	C 	0.24060 0.63217 0.03489 -0.04900
H 	H 	0.23297 0.78355 0.99602 0.05500
H 	H 	0.24310 0.59000 0.04539 0.05600
O 	O 	0.12889 0.66868 0.98568 -0.21300
O 	O 	0.35085 0.70327 0.04923 -0.20000
C 	C 	0.08915 0.66987 0.01368 -0.02100
H 	H 	0.07479 0.62930 0.03545 0.03700
H 	H 	0.04554 0.66196 0.99951 0.02700
H 	H 	0.11157 0.71868 0.02762 0.04000
C 	C 	0.37869 0.68711 0.01982 -0.02200
H 	H 	0.35048 0.63351 0.01357 0.03300
H 	H 	0.42573 0.69772 0.02954 0.04700
H 	H 	0.38571 0.71719 0.99325 0.04600
C 	C 	0.64804 0.17963 0.99927 -0.10300
C 	C 	0.66563 0.24072 0.98105 0.14000
C 	C 	0.72974 0.28983 0.97770 -0.05200
C 	C 	0.77672 0.27727 0.99026 -0.10300
C 	C 	0.75913 0.21507 0.00706 0.14300
C 	C 	0.69487 0.16627 0.01088 -0.05000
H 	H 	0.74280 0.33794 0.96555 0.04900
H 	H 	0.68158 0.11830 0.02334 0.03900
O 	O 	0.62016 0.25518 0.97020 -0.20100
O 	O 	0.80451 0.19948 0.01597 -0.20300
C 	C 	0.60964 0.24546 0.93061 -0.02500
H 	H 	0.65173 0.28240 0.91394 0.03900
H 	H 	0.57019 0.25274 0.92245 0.04700
H 	H 	0.59572 0.19435 0.92268 0.04900
C 	C 	0.81419 0.20326 0.05583 -0.02000
H 	H 	0.82377 0.25112 0.06727 0.04500
H 	H 	0.85609 0.19928 0.06213 0.04100
H 	H 	0.77335 0.16135 0.07097 0.03000
C 	C 	0.52664 0.34929 0.06594 -0.10200
C 	C 	0.56604 0.32555 0.07794 0.14700
C 	C 	0.53926 0.25864 0.08818 -0.04300
C 	C 	0.47634 0.21422 0.07897 -0.10700
C 	C 	0.43559 0.23852 0.07328 0.14400
C 	C 	0.46111 0.30635 0.06624 -0.04700
H 	H 	0.56971 0.24004 0.09641 0.05800
H 	H 	0.43035 0.32458 0.05808 0.04500
O 	O 	0.63080 0.36713 0.07806 -0.19300
O 	O 	0.37194 0.19520 0.06799 -0.21400
C 	C 	0.65569 0.35567 0.04508 -0.02600
H 	H 	0.65401 0.30781 0.04788 0.04900
H 	H 	0.70588 0.39505 0.04211 0.04900
H 	H 	0.63155 0.35748 0.01840 0.04500
C 	C 	0.34194 0.18124 0.10382 -0.01900
H 	H 	0.35922 0.15653 0.12382 0.03700
H 	H 	0.29076 0.14649 0.09971 0.03500
H 	H 	0.34764 0.22665 0.11661 0.03500
C 	C 	0.53882 0.82741 0.96984 -0.10900
C 	C 	0.59535 0.83836 0.98643 0.14100
C 	C 	0.61411 0.79252 0.98119 -0.05100
C 	C 	0.57671 0.73642 0.95948 -0.10600
C 	C 	0.52889 0.73429 0.93618 0.14100
C 	C 	0.50897 0.77905 0.94221 -0.04700
H 	H 	0.65330 0.79650 0.99757 0.05500
H 	H 	0.46693 0.77224 0.92803 0.05700
O 	O 	0.62670 0.88774 0.01257 -0.22400
O 	O 	0.49452 0.68186 0.91237 -0.19300
C 	C 	0.67182 0.94548 0.99277 -0.02300
H 	H 	0.70749 0.93802 0.97849 0.04000
H 	H 	0.69718 0.98519 0.01371 0.03900
H 	H 	0.64916 0.96300 0.97173 0.03800
C 	C 	0.52176 0.70008 0.87569 -0.02400
H 	H 	0.51934 0.74266 0.86334 0.04000
H 	H 	0.49453 0.65775 0.85661 0.04800
H 	H 	0.57127 0.71123 0.87599 0.05000
C 	C 	0.39739 0.97932 0.88484 -0.08600
C 	C 	0.33923 0.97316 0.87506 0.14300
C 	C 	0.32839 0.98562 0.83728 -0.04900
C 	C 	0.37339 0.99918 0.80907 -0.08800
C 	C 	0.42281 0.98753 0.81764 0.14500
C 	C 	0.43601 0.98006 0.85581 -0.05100
H 	H 	0.28715 0.98866 0.83055 0.07400
H 	H 	0.47869 0.98001 0.86287 0.07000
O 	O 	0.29701 0.96440 0.90328 -0.20000
O 	O 	0.46257 0.99111 0.78919 -0.21600
C 	C 	0.25596 0.89598 0.90967 -0.02600
H 	H 	0.22859 0.87158 0.88350 0.04100
H 	H 	0.22162 0.88873 0.93208 0.04300
H 	H 	0.28186 0.87175 0.92037 0.04000
C 	C 	0.43796 0.92735 0.77467 -0.02300
H 	H 	0.43580 0.89189 0.79711 0.03900
H 	H 	0.46988 0.93006 0.75187 0.02700
H 	H 	0.39075 0.90881 0.76149 0.02000
C 	C 	0.68474 0.14445 0.60066 -0.10900
C 	C 	0.64183 0.07767 0.61015 0.13600
C 	C 	0.57735 0.05519 0.61235 -0.05600
C 	C 	0.55597 0.09913 0.60549 -0.10500
C 	C 	0.59768 0.16207 0.58915 0.14300
C 	C 	0.66202 0.18391 0.58602 -0.04600
H 	H 	0.54513 0.00581 0.62357 0.03800
H 	H 	0.69467 0.23342 0.57518 0.06300
O 	O 	0.66350 0.03710 0.62293 -0.21400
O 	O 	0.57520 0.20157 0.57557 -0.18900
C 	C 	0.66485 0.00147 0.59172 -0.06500
H 	H 	0.61664 0.96799 0.58037 0.05800
H 	H 	0.68372 0.97010 0.60173 0.06000
H 	H 	0.69660 0.03497 0.56858 0.05500
C 	C 	0.59224 0.25319 0.60123 -0.02900
H 	H 	0.64273 0.29203 0.59772 0.04800
H 	H 	0.58261 0.23553 0.63156 0.05600
H 	H 	0.56409 0.27644 0.59439 0.06600
C 	C 	0.18007 0.12799 0.73206 -0.11500
C 	C 	0.12517 0.10247 0.75436 0.15600
C 	C 	0.09344 0.13731 0.75565 -0.05100
C 	C 	0.11114 0.19126 0.73051 -0.10100
C 	C 	0.17278 0.22457 0.71587 0.13500
C 	C 	0.20676 0.19200 0.71596 -0.05300
H 	H 	0.04947 0.11609 0.77117 0.07000
H 	H 	0.25074 0.21366 0.70031 0.02500
O 	O 	0.10333 0.04459 0.77565 -0.21000
O 	O 	0.19473 0.28268 0.69488 -0.21700
C 	C 	0.05818 0.99076 0.75418 0.01200
H 	H 	0.02786 0.00227 0.73572 0.03900
H 	H 	0.02625 0.95076 0.77442 0.04500
H 	H 	0.08168 0.97147 0.73644 0.05100
C 	C 	0.22691 0.33577 0.71987 -0.01700
H 	H 	0.19479 0.33484 0.74215 0.04100
H 	H 	0.24505 0.38263 0.70310 0.03900
H 	H 	0.26825 0.33638 0.73325 0.03500
C 	C 	0.12352 0.88429 0.66691 -0.08600
C 	C 	0.08801 0.87099 0.63299 0.12200
C 	C 	0.02223 0.83283 0.63460 -0.00200
C 	C 	0.99103 0.80191 0.66903 -0.14800
C 	C 	0.02695 0.80937 0.70225 0.18300
C 	C 	0.09298 0.84984 0.70083 -0.06800
H 	H 	0.99546 0.82673 0.60873 0.04400
H 	H 	0.12016 0.85553 0.72645 0.07100
O 	O 	0.11723 0.89845 0.59839 -0.18700
O 	O 	0.99843 0.77173 0.73486 -0.21100
C 	C 	0.13040 0.85383 0.58093 -0.02500
H 	H 	0.16338 0.84516 0.59850 0.04700
H 	H 	0.15385 0.87572 0.55315 0.05600
H 	H 	0.08643 0.80618 0.57488 0.04600
C 	C 	0.99148 0.81146 0.76132 -0.03700
H 	H 	0.03798 0.84930 0.77294 0.05000
H 	H 	0.96273 0.77947 0.78565 0.04600
H 	H 	0.96627 0.83534 0.74884 0.04800
C 	C 	0.51021 0.27811 0.67323 -0.10500
C 	C 	0.50188 0.32395 0.65133 0.14200
C 	C 	0.54809 0.39138 0.65212 -0.04600
C 	C 	0.60036 0.41373 0.67647 -0.11000
C 	C 	0.60514 0.36810 0.70109 0.15100
C 	C 	0.56144 0.30062 0.69821 -0.05300
H 	H 	0.54359 0.42612 0.63348 0.06200
H 	H 	0.56813 0.26552 0.71505 0.05400
O 	O 	0.45089 0.30249 0.62706 -0.19700
O 	O 	0.65704 0.38861 0.72450 -0.22400
C 	C 	0.40256 0.30470 0.64648 -0.01800
H 	H 	0.38851 0.27407 0.67334 0.02000
H 	H 	0.36040 0.28402 0.62780 0.02700
H 	H 	0.41649 0.35649 0.65257 0.03600
C 	C 	0.63994 0.39286 0.76208 -0.02200
H 	H 	0.62187 0.42713 0.76374 0.04400
H 	H 	0.68253 0.41273 0.78033 0.03600
H 	H 	0.60477 0.34324 0.77407 0.03900
C 	C 	0.27437 0.04415 0.52957 -0.10500
C 	C 	0.31926 0.05319 0.50201 0.14700
C 	C 	0.29949 0.02910 0.46506 -0.06900
C 	C 	0.23505 0.99161 0.45611 -0.08900
C 	C 	0.19040 0.98589 0.48309 0.16000
C 	C 	0.21031 0.01113 0.51980 -0.06800
H 	H 	0.33444 0.03833 0.44365 0.06700
H 	H 	0.17559 0.00391 0.54089 0.05900
O 	O 	0.38292 0.09133 0.51000 -0.19100
O 	O 	0.12677 0.95099 0.47478 -0.20300
C 	C 	0.40718 0.04936 0.51623 -0.02800
H 	H 	0.37922 0.00888 0.53751 0.05400
H 	H 	0.45571 0.07914 0.52767 0.06300
H 	H 	0.41030 0.02827 0.48892 0.04100
C 	C 	0.10841 0.99639 0.46339 0.02800
H 	H 	0.11181 0.02772 0.48753 0.02100
H 	H 	0.05834 0.96821 0.45441 0.03200
H 	H 	0.13625 0.02791 0.43849 0.00900
