data_crystal

_cell_length_a 26.72676
_cell_length_b 27.07069
_cell_length_c 17.43292
_cell_angle_alpha 94.10287
_cell_angle_beta  93.89846
_cell_angle_gamma 90.00934

_symmetry_space_group_name_	'P 1'
_symmetry_space_group_name_H-M	'P 1'

loop_
_symmetry_equiv_pos_as_xyz
  x,y,z

loop_
_atom_site_label
_atom_site_type_symbol
_atom_site_fract_x
_atom_site_fract_y
_atom_site_fract_z
_atom_site_charge
C 	C 	0.12849 0.62369 0.12386 0.09500
N 	N 	0.16041 0.61561 0.06708 -0.12300
C 	C 	0.14328 0.59661 0.99596 0.11600
N 	N 	0.09394 0.58431 0.98233 -0.14900
C 	C 	0.06244 0.58937 0.04038 0.14500
N 	N 	0.07969 0.60933 0.11090 -0.14100
C 	C 	0.26357 0.60694 0.34926 0.09600
N 	N 	0.27738 0.61189 0.42600 -0.12600
C 	C 	0.24394 0.60166 0.47808 0.13300
N 	N 	0.19716 0.58554 0.45337 -0.13900
C 	C 	0.18293 0.58110 0.37706 0.13200
N 	N 	0.21596 0.59253 0.32503 -0.13600
Cd	Cd	0.68280 0.84528 0.86282 1.21700
C 	C 	0.58801 0.83868 0.73292 0.33900
O 	O 	0.58121 0.82863 0.65843 -0.30800
O 	O 	0.62667 0.81766 0.76533 -0.51600
O 	O 	0.93103 0.88875 0.37029 -0.42400
C 	C 	0.89447 0.91844 0.38848 0.33700
O 	O 	0.88949 0.92663 0.46210 -0.32300
O 	O 	0.87133 0.12689 0.25070 -0.43000
C 	C 	0.86616 0.08457 0.21026 0.34200
O 	O 	0.87764 0.08459 0.13878 -0.31600
O 	O 	0.51496 0.16782 0.91959 -0.30200
O 	O 	0.56649 0.16434 0.02212 -0.31000
C 	C 	0.52703 0.18481 0.99018 0.20300
C 	C 	0.54583 0.02731 0.87377 0.34900
O 	O 	0.53950 0.04025 0.94637 -0.30300
O 	O 	0.56623 0.06036 0.83607 -0.52100
C 	C 	0.63027 0.45624 0.88138 0.09200
N 	N 	0.62222 0.45617 0.80353 -0.12300
C 	C 	0.65319 0.48212 0.76241 0.13300
N 	N 	0.69227 0.50784 0.79954 -0.13900
C 	C 	0.70360 0.50403 0.87592 0.12700
N 	N 	0.67231 0.47826 0.91717 -0.13300
C 	C 	0.77065 0.45613 0.11769 0.08900
N 	N 	0.73197 0.45931 0.16462 -0.12700
C 	C 	0.73857 0.48298 0.23615 0.12700
N 	N 	0.78416 0.50251 0.26102 -0.14200
C 	C 	0.82294 0.49852 0.21469 0.13200
N 	N 	0.81593 0.47605 0.14287 -0.13600
Cd	Cd	0.89133 0.16801 0.64752 1.24400
O 	O 	0.95536 0.23343 0.64936 -0.28800
O 	O 	0.94920 0.17304 0.55912 -0.34700
C 	C 	0.97645 0.20921 0.59334 0.26200
O 	O 	0.84989 0.09486 0.63033 -0.35600
C 	C 	0.93799 0.13029 0.78279 0.36800
O 	O 	0.83049 0.22341 0.72683 -0.42500
O 	O 	0.96330 0.11908 0.72276 -0.30300
O 	O 	0.90034 0.15966 0.77168 -0.51200
C 	C 	0.80235 0.22751 0.66364 0.34400
O 	O 	0.82164 0.21003 0.60038 -0.35200
Cd	Cd	0.20398 0.25093 0.52181 1.24300
Cd	Cd	0.17338 0.22281 0.32197 1.19100
O 	O 	0.24513 0.32969 0.57322 -0.30500
O 	O 	0.21933 0.27485 0.64836 -0.33500
C 	C 	0.24266 0.31646 0.64334 0.23900
O 	O 	0.15879 0.18193 0.51808 -0.37600
O 	O 	0.16706 0.15586 0.39146 -0.40900
C 	C 	0.14351 0.15432 0.45544 0.33000
C 	C 	0.11842 0.29484 0.44821 0.34400
O 	O 	0.11661 0.29976 0.52319 -0.29200
O 	O 	0.16002 0.27760 0.42380 -0.52100
C 	C 	0.26972 0.15339 0.84835 0.10200
N 	N 	0.29066 0.11407 0.81018 -0.12400
C 	C 	0.33573 0.09644 0.83573 0.13400
N 	N 	0.36127 0.11997 0.89770 -0.14000
C 	C 	0.34023 0.15883 0.93730 0.12200
N 	N 	0.29461 0.17586 0.91200 -0.13200
C 	C 	0.48447 0.21644 0.60090 0.11500
N 	N 	0.48434 0.16677 0.60841 -0.13100
C 	C 	0.48427 0.13470 0.54488 0.15000
N 	N 	0.48447 0.15221 0.47391 -0.13400
C 	C 	0.48391 0.20170 0.46597 0.15100
N 	N 	0.48429 0.23374 0.52957 -0.12200
C 	C 	0.36200 0.17573 0.01476 -0.03900
C 	C 	0.37202 0.14168 0.07187 0.13000
C 	C 	0.39791 0.15774 0.14175 -0.07900
C 	C 	0.41067 0.20773 0.15819 0.00300
C 	C 	0.39969 0.24217 0.10195 0.07100
C 	C 	0.37504 0.22580 0.03078 -0.03300
N 	N 	0.35556 0.09396 0.06086 -0.19100
H 	H 	0.40678 0.13144 0.18471 0.07300
C 	C 	0.43519 0.22317 0.23500 -0.00200
N 	N 	0.41262 0.29077 0.11581 -0.19200
H 	H 	0.36717 0.25186 0.98711 0.03900
C 	C 	0.48500 0.20891 0.25166 -0.08400
C 	C 	0.50421 0.20691 0.32839 0.10900
C 	C 	0.47308 0.21991 0.38895 -0.04500
C 	C 	0.42651 0.24190 0.37218 -0.04500
C 	C 	0.40665 0.24274 0.29561 0.07700
H 	H 	0.50777 0.19640 0.20493 0.07200
N 	N 	0.55234 0.19238 0.34357 -0.20000
H 	H 	0.40380 0.25452 0.41893 0.07500
N 	N 	0.35992 0.26124 0.28092 -0.19400
H 	H 	0.57468 0.18121 0.29859 0.10200
H 	H 	0.56854 0.19378 0.39994 0.10400
H 	H 	0.33955 0.27627 0.32600 0.09700
H 	H 	0.34340 0.26115 0.22498 0.09300
H 	H 	0.40269 0.31623 0.07516 0.09300
H 	H 	0.43338 0.30359 0.16618 0.09500
H 	H 	0.32804 0.08316 0.01756 0.12600
H 	H 	0.36753 0.06790 0.09948 0.12800
C 	C 	0.34591 0.31322 0.77101 0.11700
C 	C 	0.38066 0.27591 0.78693 -0.09100
C 	C 	0.42800 0.27776 0.75700 0.01600
C 	C 	0.44087 0.31589 0.71333 0.11800
C 	C 	0.40729 0.35475 0.70145 -0.08500
C 	C 	0.35959 0.35256 0.73019 0.01100
O 	O 	0.29503 0.30229 0.76188 -0.19300
C 	C 	0.28042 0.33385 0.70472 0.05400
C 	C 	0.31778 0.36631 0.68980 -0.06200
O 	O 	0.47451 0.30199 0.65856 -0.19700
C 	C 	0.47705 0.25129 0.66794 0.10300
C 	C 	0.45151 0.23707 0.72902 -0.07800
H 	H 	0.36844 0.24260 0.81138 0.07000
H 	H 	0.41507 0.38164 0.66060 0.06900
H 	H 	0.31829 0.38517 0.63701 0.06400
H 	H 	0.43822 0.19966 0.73402 0.06800
C 	C 	0.14603 0.15271 0.76886 0.12300
C 	C 	0.11520 0.13333 0.70579 -0.07700
C 	C 	0.09457 0.16606 0.65374 0.03000
C 	C 	0.10004 0.21647 0.66725 0.11300
C 	C 	0.13115 0.23617 0.73018 -0.08400
C 	C 	0.15342 0.20320 0.78096 0.02700
O 	O 	0.18407 0.12494 0.80209 -0.19000
C 	C 	0.21635 0.16321 0.83182 0.10800
C 	C 	0.19836 0.21010 0.82005 -0.08600
O 	O 	0.06114 0.24331 0.63357 -0.17700
C 	C 	0.03107 0.20399 0.60021 0.03100
C 	C 	0.05151 0.15800 0.61121 -0.05500
H 	H 	0.10937 0.09373 0.69566 0.08400
H 	H 	0.13650 0.27580 0.74061 0.07800
H 	H 	0.22180 0.24259 0.81810 0.08000
H 	H 	0.02966 0.12423 0.61071 0.06800
C 	C 	0.65122 0.47416 0.67739 -0.04200
C 	C 	0.60652 0.48089 0.63068 0.10400
C 	C 	0.60806 0.47719 0.54990 -0.08500
C 	C 	0.65357 0.46886 0.51550 -0.00400
C 	C 	0.69770 0.46003 0.56216 0.08000
C 	C 	0.69572 0.46171 0.64240 -0.04800
N 	N 	0.56239 0.49147 0.66261 -0.19900
H 	H 	0.57416 0.48292 0.51390 0.05700
C 	C 	0.65576 0.47411 0.43173 -0.00500
N 	N 	0.74223 0.45070 0.53047 -0.19300
H 	H 	0.72945 0.45463 0.67806 0.06200
C 	C 	0.66590 0.52094 0.40672 -0.08400
C 	C 	0.68658 0.52525 0.33557 0.10400
C 	C 	0.69862 0.48191 0.29049 -0.04800
C 	C 	0.68049 0.43597 0.30942 -0.05500
C 	C 	0.65839 0.43181 0.37962 0.07500
H 	H 	0.66078 0.55376 0.44472 0.05900
N 	N 	0.69512 0.57086 0.31104 -0.19800
H 	H 	0.68680 0.40297 0.27237 0.05800
N 	N 	0.64165 0.38703 0.39799 -0.19400
H 	H 	0.68782 0.60279 0.34578 0.09100
H 	H 	0.70696 0.57498 0.25595 0.09500
H 	H 	0.64548 0.35551 0.36061 0.09500
H 	H 	0.62321 0.38344 0.44824 0.09800
H 	H 	0.77450 0.44424 0.56557 0.09900
H 	H 	0.74553 0.44996 0.47113 0.09800
H 	H 	0.56131 0.50479 0.72011 0.10100
H 	H 	0.52858 0.48872 0.62875 0.09300
C 	C 	0.74793 0.23001 0.66778 -0.14700
F 	F 	0.75179 0.30303 0.75385 -0.45300
H 	H 	0.73074 0.16949 0.58259 0.11700
C 	C 	0.53412 0.31087 0.04764 0.14400
C 	C 	0.56911 0.34980 0.06118 -0.11800
C 	C 	0.56462 0.39000 0.01445 0.08000
C 	C 	0.53153 0.38837 0.94997 0.07900
C 	C 	0.49780 0.34868 0.93483 -0.07000
C 	C 	0.49778 0.31176 0.98751 -0.01400
O 	O 	0.54491 0.26354 0.07017 -0.19900
C 	C 	0.51350 0.23581 0.01580 0.08600
C 	C 	0.48444 0.26449 0.96784 -0.07900
O 	O 	0.54682 0.41610 0.89152 -0.19900
C 	C 	0.59246 0.43402 0.92651 0.11800
C 	C 	0.60306 0.41918 0.99987 -0.14700
H 	H 	0.60116 0.34677 0.10208 0.08100
H 	H 	0.47536 0.34459 0.88068 0.06400
H 	H 	0.46799 0.25141 0.91153 0.06600
H 	H 	0.63970 0.41977 0.03005 0.10400
C 	C 	0.98816 0.26412 0.36417 0.31700
C 	C 	0.02719 0.27783 0.41917 -0.11500
C 	C 	0.07289 0.29502 0.39579 -0.16300
C 	C 	0.07701 0.30398 0.31807 0.29500
F 	F 	0.11951 0.32441 0.29541 -0.49800
H 	H 	0.02257 0.27328 0.47943 0.09400
C 	C 	0.79338 0.38089 0.94829 0.05200
C 	C 	0.74821 0.36274 0.96884 0.10500
C 	C 	0.73728 0.31214 0.95644 -0.07000
C 	C 	0.77395 0.28025 0.92715 0.02100
C 	C 	0.78126 0.23453 0.95075 -0.09300
O 	O 	0.72748 0.39133 0.02794 -0.20100
C 	C 	0.76493 0.42718 0.04286 0.13100
C 	C 	0.80382 0.42165 0.99499 -0.13200
H 	H 	0.70418 0.29719 0.97925 0.06800
H 	H 	0.75606 0.21668 0.98657 0.07200
C 	C 	0.46781 0.97852 0.52030 -0.00000
N 	N 	0.45104 0.96002 0.35479 -0.19300
C 	C 	0.51604 0.99916 0.53255 -0.07600
C 	C 	0.52256 0.05041 0.54766 0.11200
C 	C 	0.47998 0.08113 0.55205 -0.04600
C 	C 	0.43211 0.05965 0.55042 -0.05300
C 	C 	0.42554 0.00840 0.53422 0.07600
N 	N 	0.56962 0.06996 0.55666 -0.20900
H 	H 	0.39969 0.08310 0.55809 0.07100
N 	N 	0.37871 0.98835 0.53040 -0.19700
H 	H 	0.60097 0.04703 0.55311 0.10300
H 	H 	0.57551 0.10792 0.56850 0.12600
H 	H 	0.34749 0.01087 0.53861 0.03800
H 	H 	0.37301 0.95016 0.52135 0.07700
H 	H 	0.45189 0.95505 0.29488 0.09600
H 	H 	0.44067 0.99464 0.37864 0.09600
C 	C 	0.41899 0.87099 0.75371 -0.08700
C 	C 	0.37868 0.89707 0.72083 -0.00500
N 	N 	0.46441 0.79563 0.76512 -0.20100
H 	H 	0.44655 0.89044 0.79336 0.06700
C 	C 	0.36871 0.94807 0.75281 0.00200
C 	C 	0.39795 0.98745 0.73217 -0.09400
C 	C 	0.38948 0.03624 0.76171 0.12400
C 	C 	0.34974 0.04567 0.81022 -0.05200
C 	C 	0.32140 0.00617 0.83234 -0.04200
C 	C 	0.33123 0.95730 0.80565 0.07100
H 	H 	0.42716 0.98011 0.69285 0.08600
N 	N 	0.41980 0.07355 0.74398 -0.20200
H 	H 	0.29172 0.01352 0.87102 0.05900
N 	N 	0.30502 0.91947 0.83162 -0.19300
H 	H 	0.45045 0.06600 0.71113 0.12800
H 	H 	0.41386 0.11026 0.76366 0.10400
H 	H 	0.27642 0.92684 0.86877 0.09500
H 	H 	0.31368 0.88250 0.81742 0.09500
H 	H 	0.48953 0.81325 0.80678 0.11100
C 	C 	0.83969 0.03586 0.31655 -0.08400
C 	C 	0.86443 0.03795 0.24842 -0.13700
C 	C 	0.89093 0.99643 0.22035 0.35900
C 	C 	0.89363 0.95400 0.26104 -0.09600
C 	C 	0.87490 0.95434 0.33416 -0.12700
C 	C 	0.84476 0.99419 0.35940 0.34500
F 	F 	0.82138 0.99304 0.42601 -0.42700
H 	H 	0.81784 0.06709 0.33752 0.09300
H 	H 	0.91352 0.92206 0.23826 0.07100
F 	F 	0.91802 0.99891 0.15786 -0.43700
C 	C 	0.75191 0.93890 0.69657 -0.13300
H 	H 	0.68607 0.96550 0.63352 0.05400
C 	C 	0.54591 0.92031 0.72596 -0.10600
C 	C 	0.56518 0.88284 0.77075 -0.17400
C 	C 	0.56728 0.89021 0.85172 0.28800
C 	C 	0.55562 0.93660 0.88676 -0.09700
C 	C 	0.54158 0.97567 0.84120 -0.17500
C 	C 	0.53429 0.96641 0.76077 0.28900
F 	F 	0.52093 0.00370 0.71575 -0.51300
H 	H 	0.54322 0.91493 0.66367 0.07800
H 	H 	0.56038 0.94289 0.94890 0.07900
F 	F 	0.58140 0.85284 0.89629 -0.52700
C 	C 	0.12981 0.57052 0.35193 -0.04400
C 	C 	0.11606 0.53399 0.29187 0.10300
N 	N 	0.15107 0.50417 0.25953 -0.19700
H 	H 	0.87031 0.57984 0.17990 0.05100
H 	H 	0.18777 0.50281 0.28382 0.10200
H 	H 	0.14095 0.47963 0.21198 0.09600
C 	C 	0.75464 0.51818 0.90869 -0.03100
C 	C 	0.76292 0.54718 0.97949 0.06600
C 	C 	0.81235 0.55948 0.00746 -0.03800
N 	N 	0.72391 0.56429 0.01989 -0.17800
H 	H 	0.81885 0.58146 0.06163 0.05100
H 	H 	0.05540 0.50107 0.08007 0.09300
H 	H 	0.68698 0.56167 0.99640 0.08700
H 	H 	0.73053 0.58270 0.07442 0.09200
C 	C 	0.25549 0.61464 0.56073 -0.04800
C 	C 	0.22922 0.65346 0.59858 0.11000
C 	C 	0.22316 0.65273 0.67777 -0.08500
C 	C 	0.24589 0.61575 0.72035 -0.00300
C 	C 	0.27982 0.58265 0.68489 0.07600
C 	C 	0.28329 0.58147 0.60465 -0.04800
N 	N 	0.20887 0.69081 0.55878 -0.20100
H 	H 	0.19914 0.67978 0.70564 0.06200
C 	C 	0.22785 0.60714 0.79709 -0.00600
N 	N 	0.30910 0.55228 0.72747 -0.19300
H 	H 	0.30589 0.55343 0.57611 0.05700
C 	C 	0.20042 0.56382 0.80561 -0.08400
C 	C 	0.17635 0.55765 0.87348 0.10000
C 	C 	0.17625 0.59728 0.93106 -0.04600
C 	C 	0.20594 0.63942 0.92441 -0.05600
C 	C 	0.23266 0.64422 0.85870 0.07100
H 	H 	0.19777 0.53483 0.75921 0.06000
N 	N 	0.15515 0.51320 0.88414 -0.19800
H 	H 	0.20750 0.66905 0.96981 0.05300
N 	N 	0.26279 0.68439 0.85513 -0.19600
H 	H 	0.15300 0.48507 0.83971 0.09000
H 	H 	0.14371 0.50500 0.93791 0.09100
H 	H 	0.26522 0.71217 0.90009 0.09000
H 	H 	0.28568 0.68744 0.80949 0.09400
H 	H 	0.33301 0.52691 0.70072 0.09300
H 	H 	0.31011 0.55523 0.78762 0.08900
H 	H 	0.21532 0.69373 0.50083 0.11300
H 	H 	0.02038 0.12988 0.88127 0.06600
C 	C 	0.16503 0.72984 0.23814 0.11500
O 	O 	0.18039 0.69368 0.18450 -0.20700
C 	C 	0.14394 0.65768 0.19100 0.10000
C 	C 	0.34392 0.73361 0.14225 0.11700
C 	C 	0.30993 0.69392 0.14047 -0.09100
C 	C 	0.31948 0.65691 0.19210 0.02300
C 	C 	0.35672 0.66294 0.25093 0.11100
C 	C 	0.39004 0.70305 0.25367 -0.08600
O 	O 	0.34636 0.64003 0.31707 -0.20300
C 	C 	0.29915 0.62026 0.29294 0.10300
C 	C 	0.28361 0.62909 0.21813 -0.08900
H 	H 	0.41567 0.71102 0.30375 0.06800
Cd	Cd	0.91565 0.16007 0.13377 1.24600
Cd	Cd	0.93911 0.15131 0.33498 1.22900
O 	O 	0.84188 0.20543 0.08526 -0.29300
O 	O 	0.89816 0.17608 0.00791 -0.34000
C 	C 	0.85580 0.19894 0.01529 0.27100
O 	O 	0.99132 0.12446 0.14609 -0.33900
O 	O 	0.97925 0.09357 0.26282 -0.32800
C 	C 	0.00863 0.10179 0.20726 0.28600
C 	C 	0.95941 0.24223 0.22594 0.33900
O 	O 	0.96325 0.24740 0.15257 -0.29300
O 	O 	0.93151 0.20550 0.24118 -0.50600
Cd	Cd	0.59351 0.12007 0.91688 1.24000
Cd	Cd	0.62318 0.05105 0.74525 1.20800
O 	O 	0.66100 0.07711 0.95405 -0.37700
O 	O 	0.68917 0.06038 0.83363 -0.40800
C 	C 	0.68881 0.05064 0.90677 0.32600
O 	O 	0.60725 0.13456 0.77227 -0.41100
C 	C 	0.63972 0.16874 0.79713 0.33000
O 	O 	0.64381 0.17959 0.87146 -0.36900
Cd	Cd	0.82208 0.16401 0.81531 1.21700
O 	O 	0.78915 0.11613 0.71342 -0.37900
C 	C 	0.81409 0.08201 0.67416 0.35000
C 	C 	0.68943 0.24192 0.76733 -0.09700
C 	C 	0.66816 0.19546 0.74375 -0.15600
C 	C 	0.67972 0.17206 0.67252 0.34500
C 	C 	0.71869 0.19044 0.63331 -0.09400
C 	C 	0.72860 0.25985 0.72786 0.32200
H 	H 	0.67760 0.26266 0.81836 0.09100
F 	F 	0.65716 0.12881 0.64577 -0.48700
C 	C 	0.03845 0.28956 0.26300 -0.11800
C 	C 	0.99504 0.26679 0.28519 -0.15000
H 	H 	0.04329 0.29421 0.20275 0.08600
F 	F 	0.94389 0.24824 0.38757 -0.52100
C 	C 	0.82072 0.29801 0.91268 0.13500
C 	C 	0.83059 0.34898 0.92113 -0.08600
O 	O 	0.85910 0.26421 0.92415 -0.19800
C 	C 	0.83225 0.22662 0.95369 -0.04600
H 	H 	0.86847 0.36249 0.91748 0.07400
H 	H 	0.84134 0.43624 0.00909 0.08500
C 	C 	0.02333 0.08104 0.44980 0.31300
C 	C 	0.05842 0.11683 0.43455 -0.09200
C 	C 	0.10851 0.11321 0.46290 -0.14100
H 	H 	0.04626 0.14833 0.40315 0.01800
F 	F 	0.97442 0.08633 0.42584 -0.51700
C 	C 	0.72462 0.97332 0.65415 -0.11000
C 	C 	0.82442 0.99413 0.70604 -0.10000
C 	C 	0.79589 0.03017 0.66916 -0.09900
C 	C 	0.74643 0.01879 0.64063 0.32700
F 	F 	0.71932 0.05197 0.60062 -0.44000
C 	C 	0.06518 0.52678 0.26795 -0.07500
C 	C 	0.02779 0.55390 0.30462 -0.02600
C 	C 	0.04141 0.58951 0.36597 0.08100
C 	C 	0.09231 0.59752 0.38882 -0.05600
H 	H 	0.05449 0.49799 0.22354 0.05600
C 	C 	0.97444 0.54114 0.28321 0.02000
N 	N 	0.00596 0.61628 0.40285 -0.20600
H 	H 	0.10284 0.62557 0.43466 0.06300
C 	C 	0.95382 0.49941 0.31264 -0.09200
C 	C 	0.90375 0.48549 0.29285 0.11300
C 	C 	0.87348 0.51484 0.24422 -0.05300
C 	C 	0.89365 0.55738 0.21679 -0.04700
C 	C 	0.94420 0.57018 0.23399 0.06900
H 	H 	0.97703 0.47731 0.35036 0.07200
N 	N 	0.88529 0.44368 0.31985 -0.20000
N 	N 	0.96351 0.60990 0.20250 -0.18300
H 	H 	0.90807 0.42224 0.35543 0.10400
H 	H 	0.84843 0.43187 0.30579 0.10400
H 	H 	0.94067 0.63155 0.16733 0.10000
H 	H 	0.00150 0.61862 0.21016 0.08600
H 	H 	0.01648 0.64280 0.44759 0.09800
H 	H 	0.96776 0.61118 0.38774 0.11000
C 	C 	0.85322 0.54550 0.96433 -0.03100
C 	C 	0.84480 0.51745 0.89291 0.08700
C 	C 	0.79574 0.50363 0.86640 -0.06000
C 	C 	0.90478 0.56044 0.99428 -0.00900
N 	N 	0.88360 0.50354 0.84957 -0.19600
H 	H 	0.78952 0.48107 0.81262 0.06200
C 	C 	0.93516 0.52593 0.03154 -0.08100
C 	C 	0.98713 0.53384 0.04464 0.13700
C 	C 	0.00844 0.57864 0.02455 -0.07600
C 	C 	0.97758 0.61445 0.99162 -0.04100
C 	C 	0.92589 0.60582 0.97608 0.07100
H 	H 	0.91876 0.49160 0.04665 0.06300
N 	N 	0.01637 0.49781 0.07443 -0.21200
H 	H 	0.99385 0.64915 0.97774 0.05600
N 	N 	0.89695 0.64100 0.94325 -0.19200
H 	H 	0.00017 0.46546 0.09110 0.08800
H 	H 	0.91310 0.67381 0.92829 0.10200
H 	H 	0.85820 0.63660 0.93335 0.10000
H 	H 	0.87701 0.48205 0.79762 0.09700
H 	H 	0.92048 0.51426 0.86622 0.09700
H 	H 	0.18797 0.71851 0.58647 0.12100
C 	C 	0.81334 0.01065 0.99830 -0.11900
C 	C 	0.80831 0.95888 0.99033 -0.09900
C 	C 	0.76178 0.93780 0.96323 0.32600
C 	C 	0.72248 0.96794 0.93705 -0.09700
C 	C 	0.72888 0.01947 0.93972 -0.13600
C 	C 	0.77400 0.04089 0.97246 0.36200
F 	F 	0.78046 0.09078 0.97645 -0.47500
H 	H 	0.84889 0.02730 0.01933 0.13300
H 	H 	0.68741 0.95115 0.91345 0.01500
F 	F 	0.75526 0.88797 0.95999 -0.52000
C 	C 	0.12507 0.71533 0.27792 0.03200
C 	C 	0.11227 0.66951 0.24857 -0.08700
H 	H 	0.07531 0.65383 0.25049 0.06100
C 	C 	0.10074 0.10371 0.19281 -0.10200
C 	C 	0.05775 0.07682 0.20633 -0.09700
H 	H 	0.09743 0.14165 0.17711 0.06400
H 	H 	0.27515 0.69409 0.10469 0.07700
H 	H 	0.24546 0.62587 0.19354 0.07900
Cd	Cd	0.29536 0.94015 0.24387 1.24300
O 	O 	0.36544 0.88139 0.25064 -0.31800
O 	O 	0.31460 0.88353 0.14678 -0.32900
C 	C 	0.35203 0.86174 0.18205 0.23900
O 	O 	0.33684 0.00503 0.34706 -0.45200
C 	C 	0.34668 0.03262 0.29173 0.32800
O 	O 	0.33831 0.01193 0.22193 -0.33200
O 	O 	0.99405 0.98925 0.06058 -0.20100
Cd	Cd	0.67228 0.78850 0.67344 1.24000
O 	O 	0.62995 0.70729 0.64502 -0.31000
O 	O 	0.65560 0.75076 0.55330 -0.33500
C 	C 	0.63485 0.71024 0.57175 0.23800
O 	O 	0.70206 0.86492 0.66177 -0.38900
O 	O 	0.73775 0.87652 0.78547 -0.36500
C 	C 	0.72729 0.89287 0.71665 0.31300
O 	O 	0.70918 0.76891 0.81124 -0.44200
C 	C 	0.75205 0.75973 0.78194 0.33800
O 	O 	0.75220 0.76071 0.70722 -0.32600
Cd	Cd	0.96085 0.89248 0.51760 1.24300
Cd	Cd	0.00946 0.91308 0.33837 1.21500
O 	O 	0.93004 0.80833 0.53057 -0.28700
O 	O 	0.92619 0.86645 0.62340 -0.36600
C 	C 	0.91019 0.82309 0.59402 0.24700
O 	O 	0.99681 0.96854 0.53595 -0.35700
O 	O 	0.98798 0.98129 0.40735 -0.34800
C 	C 	0.00773 0.99398 0.47698 0.28500
C 	C 	0.05906 0.85910 0.48887 0.36300
O 	O 	0.05077 0.85690 0.56165 -0.29900
O 	O 	0.01985 0.86805 0.44410 -0.53400
C 	C 	0.38636 0.66131 0.62486 0.09300
N 	N 	0.37829 0.71099 0.62508 -0.13800
C 	C 	0.37972 0.73935 0.69262 0.12900
N 	N 	0.38628 0.71756 0.76027 -0.14300
C 	C 	0.39537 0.66832 0.76065 0.12600
N 	N 	0.39319 0.63997 0.69306 -0.12900
C 	C 	0.60816 0.77569 0.36024 0.11100
N 	N 	0.57446 0.80187 0.40130 -0.12000
C 	C 	0.52488 0.79945 0.37899 0.13500
N 	N 	0.50896 0.77028 0.31554 -0.14800
C 	C 	0.54238 0.74395 0.27403 0.13400
N 	N 	0.59208 0.74656 0.29658 -0.13300
O 	O 	0.24925 0.23986 0.39223 -0.45100
C 	C 	0.27894 0.20827 0.42492 0.33700
O 	O 	0.27448 0.20422 0.49830 -0.33400
C 	C 	0.49117 0.83739 0.41087 -0.05200
C 	C 	0.48306 0.84144 0.49042 0.11200
C 	C 	0.46814 0.88713 0.52484 -0.08500
C 	C 	0.46216 0.92843 0.48096 -0.00400
C 	C 	0.46217 0.92187 0.39965 0.07900
C 	C 	0.47613 0.87601 0.36526 -0.04600
N 	N 	0.48956 0.80184 0.53373 -0.19800
H 	H 	0.46416 0.89128 0.58645 0.06200
H 	H 	0.47967 0.87186 0.30351 0.05500
H 	H 	0.54853 0.97565 0.52569 0.05900
H 	H 	0.49924 0.76721 0.50904 0.10400
H 	H 	0.48351 0.80508 0.59247 0.10300
C 	C 	0.38417 0.79373 0.69243 -0.05300
C 	C 	0.42304 0.81970 0.73771 0.10600
C 	C 	0.34437 0.87220 0.66558 0.07100
C 	C 	0.34674 0.82037 0.65318 -0.05300
N 	N 	0.30869 0.89769 0.62561 -0.19400
H 	H 	0.31842 0.80071 0.61519 0.05400
H 	H 	0.28267 0.87898 0.58641 0.08500
H 	H 	0.30749 0.93633 0.63114 0.08000
H 	H 	0.47327 0.76021 0.74240 0.10000
C 	C 	0.41999 0.64902 0.83038 -0.04800
C 	C 	0.47282 0.65212 0.84387 0.10300
C 	C 	0.49418 0.65357 0.91982 -0.08100
C 	C 	0.46364 0.65237 0.98188 -0.02000
C 	C 	0.41213 0.64067 0.96721 0.06600
C 	C 	0.39069 0.63907 0.89118 -0.05300
N 	N 	0.50295 0.65546 0.78459 -0.20100
H 	H 	0.53422 0.65958 0.93097 0.05500
C 	C 	0.48297 0.67481 0.05823 0.01500
N 	N 	0.38321 0.63122 0.02565 -0.18800
H 	H 	0.35077 0.63274 0.87998 0.04600
C 	C 	0.48461 0.72656 0.06981 -0.08900
C 	C 	0.50765 0.74976 0.13758 0.11300
C 	C 	0.52587 0.72060 0.19760 -0.05300
C 	C 	0.52411 0.66879 0.18644 -0.04700
C 	C 	0.50359 0.64547 0.11659 0.06700
H 	H 	0.46931 0.74891 0.02467 0.07100
N 	N 	0.51271 0.79995 0.14431 -0.20000
H 	H 	0.53816 0.64653 0.23249 0.05100
N 	N 	0.50341 0.59517 0.10633 -0.19300
H 	H 	0.49689 0.82135 0.10141 0.10100
H 	H 	0.53388 0.81807 0.19047 0.10200
H 	H 	0.51869 0.57387 0.14973 0.09000
H 	H 	0.48810 0.57673 0.05549 0.09600
H 	H 	0.34497 0.62349 0.01460 0.09300
H 	H 	0.39874 0.62971 0.08201 0.09300
H 	H 	0.48855 0.65218 0.72730 0.10200
H 	H 	0.54170 0.65988 0.79538 0.09400
C 	C 	0.72459 0.81849 0.44261 0.12600
C 	C 	0.74826 0.84652 0.50533 -0.08600
C 	C 	0.78133 0.82255 0.55636 0.01300
C 	C 	0.79354 0.77347 0.54237 0.12300
C 	C 	0.76882 0.74495 0.48062 -0.08300
C 	C 	0.73563 0.76902 0.42972 0.02300
O 	O 	0.67842 0.83180 0.40941 -0.19300
C 	C 	0.66183 0.78533 0.37766 0.10600
C 	C 	0.69578 0.74761 0.38903 -0.07400
O 	O 	0.84130 0.76176 0.57187 -0.14700
C 	C 	0.85786 0.80894 0.60124 0.07000
C 	C 	0.82121 0.84475 0.59508 -0.04100
H 	H 	0.74016 0.88558 0.51527 0.09400
H 	H 	0.77708 0.70597 0.47041 0.07600
H 	H 	0.68558 0.70889 0.38982 0.06600
H 	H 	0.82939 0.88387 0.59322 0.07400
C 	C 	0.53973 0.65676 0.44829 0.11400
C 	C 	0.48902 0.66670 0.43033 -0.09400
C 	C 	0.45238 0.63825 0.46105 0.02400
C 	C 	0.46573 0.59965 0.50609 0.11500
C 	C 	0.51636 0.58723 0.51865 -0.09000
C 	C 	0.55300 0.61653 0.48973 0.01100
O 	O 	0.57467 0.69508 0.45801 -0.19300
C 	C 	0.60783 0.67631 0.51367 0.05200
C 	C 	0.59653 0.62871 0.53001 -0.06700
O 	O 	0.43247 0.59235 0.56204 -0.20800
C 	C 	0.40233 0.63397 0.55446 0.10000
C 	C 	0.41124 0.65883 0.49019 -0.07600
H 	H 	0.47865 0.70090 0.40526 0.06700
H 	H 	0.52711 0.56141 0.56120 0.06300
H 	H 	0.60922 0.61253 0.58305 0.06100
H 	H 	0.40017 0.69683 0.48274 0.06600
C 	C 	0.88967 0.76708 0.84482 -0.11500
C 	C 	0.88730 0.78211 0.92320 -0.13800
C 	C 	0.84127 0.77885 0.95749 0.33100
C 	C 	0.79736 0.76798 0.91166 -0.08200
C 	C 	0.79898 0.75913 0.83162 -0.14200
C 	C 	0.84577 0.75435 0.79953 0.34500
F 	F 	0.84881 0.73641 0.72542 -0.43700
H 	H 	0.92532 0.76644 0.81866 0.08000
H 	H 	0.76181 0.76858 0.93808 0.07200
C 	C 	0.92409 0.02581 0.90437 -0.12200
C 	C 	0.97265 0.02341 0.93947 -0.12600
C 	C 	0.00631 0.06268 0.93511 0.28800
C 	C 	0.99283 0.10178 0.88993 -0.02400
C 	C 	0.94503 0.10266 0.85142 -0.19400
C 	C 	0.90940 0.06696 0.86498 0.34600
F 	F 	0.86115 0.07099 0.83693 -0.53100
H 	H 	0.89792 0.99572 0.90716 0.03100
F 	F 	0.05277 0.06184 0.97171 -0.43500
C 	C 	0.17247 0.77999 0.22767 -0.07000
C 	C 	0.13781 0.81459 0.25545 0.00200
C 	C 	0.12434 0.85486 0.21843 -0.03100
H 	H 	0.20009 0.79077 0.18920 0.08100
H 	H 	0.14274 0.86682 0.16932 0.06500
F 	F 	0.18964 0.10992 0.19332 -0.45000
C 	C 	0.10933 0.87013 0.46598 -0.16900
C 	C 	0.14736 0.83447 0.46892 0.33900
F 	F 	0.13853 0.78967 0.49578 -0.46000
C 	C 	0.37030 0.10724 0.37577 -0.11300
C 	C 	0.34685 0.08675 0.30638 -0.15300
C 	C 	0.31135 0.11518 0.26600 0.33200
C 	C 	0.29183 0.15785 0.30260 -0.07600
C 	C 	0.30829 0.17249 0.37907 -0.16400
C 	C 	0.34999 0.14903 0.41356 0.33300
F 	F 	0.36933 0.16539 0.48486 -0.45600
H 	H 	0.40083 0.08779 0.40410 0.08200
H 	H 	0.26174 0.17754 0.27341 0.04400
F 	F 	0.29201 0.09877 0.19481 -0.42000
C 	C 	0.38472 0.73633 0.19548 0.01300
C 	C 	0.36420 0.80977 0.16056 0.05400
C 	C 	0.39781 0.78428 0.20636 -0.06100
H 	H 	0.41752 0.80041 0.25848 0.06600
Cd	Cd	0.26546 0.01063 0.41564 1.21000
O 	O 	0.22213 0.97669 0.21178 -0.36600
O 	O 	0.23059 0.04044 0.30651 -0.36100
C 	C 	0.20313 0.01497 0.25150 0.37400
C 	C 	0.24258 0.89361 0.35629 0.35300
O 	O 	0.24197 0.86647 0.29139 -0.30500
O 	O 	0.27150 0.93230 0.36030 -0.52200
Cd	Cd	0.96201 0.89595 0.05980 1.25500
Cd	Cd	0.92669 0.90302 0.85889 1.19700
O 	O 	0.05040 0.87782 0.09798 -0.29600
O 	O 	0.99508 0.89508 0.18320 -0.38000
C 	C 	0.04115 0.88375 0.17032 0.22300
O 	O 	0.88311 0.92644 0.05619 -0.31200
O 	O 	0.86126 0.89733 0.93160 -0.36100
C 	C 	0.85365 0.92767 0.99203 0.30800
C 	C 	0.98656 0.98213 0.98593 0.32500
O 	O 	0.95704 0.83898 0.93042 -0.44400
O 	O 	0.97715 0.93668 0.96025 -0.53000
C 	C 	0.93024 0.80830 0.96541 0.31200
O 	O 	0.93067 0.81683 0.03998 -0.30400
C 	C 	0.08822 0.03691 0.52034 -0.11000
C 	C 	0.03859 0.03937 0.48881 -0.11000
C 	C 	0.12319 0.07347 0.50700 0.34900
F 	F 	0.17130 0.07012 0.53648 -0.47900
H 	H 	0.10033 0.00548 0.55186 0.09000
C 	C 	0.80231 0.94923 0.72148 0.33900
H 	H 	0.86322 0.00162 0.72541 0.08900
F 	F 	0.83005 0.91559 0.75970 -0.50700
F 	F 	0.83853 0.78917 0.03444 -0.41900
C 	C 	0.09596 0.79968 0.29023 0.14400
C 	C 	0.08968 0.74981 0.30386 -0.09000
O 	O 	0.05475 0.83010 0.27881 -0.26600
C 	C 	0.07432 0.86242 0.22957 -0.02200
H 	H 	0.05462 0.73731 0.32381 0.07600
C 	C 	0.06266 0.02760 0.22688 0.33400
C 	C 	0.11022 0.00625 0.23606 -0.07900
C 	C 	0.15336 0.03407 0.22668 -0.11600
C 	C 	0.14837 0.08268 0.20359 0.33900
H 	H 	0.11362 0.96882 0.25392 0.07300
F 	F 	0.02147 0.00087 0.23971 -0.47800
C 	C 	0.19345 0.84382 0.43892 -0.08500
C 	C 	0.20214 0.88941 0.40822 -0.18200
C 	C 	0.16572 0.92656 0.41285 0.32600
C 	C 	0.11890 0.91613 0.43811 -0.10900
H 	H 	0.22137 0.81485 0.43595 0.07900
H 	H 	0.08954 0.94329 0.43382 0.02500
F 	F 	0.17465 0.97194 0.38882 -0.54800
O 	O 	0.32953 0.77922 0.11607 -0.18500
