data_crystal

_cell_length_a 27.53800
_cell_length_b 41.04298
_cell_length_c 36.14277
_cell_angle_alpha 90.00281
_cell_angle_beta  89.99920
_cell_angle_gamma 89.99743

_symmetry_space_group_name_	'P 1'
_symmetry_space_group_name_H-M	'P 1'

loop_
_symmetry_equiv_pos_as_xyz
  x,y,z

loop_
_atom_site_label
_atom_site_type_symbol
_atom_site_fract_x
_atom_site_fract_y
_atom_site_fract_z
_atom_site_charge
Cu	Cu	0.04292 0.83089 0.09718 0.93800
Cu	Cu	0.98559 0.83481 0.17636 0.90000
Cu	Cu	0.93885 0.80720 0.10817 0.90800
Cu	Cu	0.98985 0.78867 0.03654 0.91800
C 	C 	0.09687 0.79440 0.04332 0.33500
O 	O 	0.02801 0.86184 0.05487 -0.33000
C 	C 	0.88262 0.83668 0.16894 0.32900
O 	O 	0.99892 0.78956 0.08846 -0.62800
O 	O 	0.98313 0.84325 0.12351 -0.63500
O 	O 	0.08862 0.83818 0.13891 -0.33400
O 	O 	0.04261 0.80895 0.17903 -0.39800
O 	O 	0.05869 0.79587 0.02142 -0.34200
O 	O 	0.89666 0.77219 0.09122 -0.34100
C 	C 	0.89630 0.75995 0.05744 0.33300
C 	C 	0.98519 0.86269 0.03862 0.32400
O 	O 	0.95704 0.83681 0.03892 -0.35600
O 	O 	0.93694 0.75611 0.03869 -0.34600
O 	O 	0.09826 0.81095 0.07454 -0.32900
C 	C 	0.08459 0.82152 0.16972 0.33900
O 	O 	0.88211 0.82339 0.13558 -0.33800
O 	O 	0.92139 0.85179 0.18162 -0.36700
H 	H 	0.00924 0.76868 0.09971 0.19500
H 	H 	0.97074 0.86523 0.11749 0.20800
Cu	Cu	0.42057 0.88391 0.39124 0.93700
Cu	Cu	0.47594 0.86289 0.31490 0.90000
Cu	Cu	0.52304 0.85585 0.38896 0.90900
Cu	Cu	0.47681 0.86398 0.46428 0.91500
C 	C 	0.37016 0.86321 0.45644 0.33100
O 	O 	0.43446 0.92697 0.41642 -0.32700
C 	C 	0.57877 0.86429 0.31968 0.33100
O 	O 	0.46455 0.84786 0.41609 -0.63500
O 	O 	0.48031 0.88674 0.36123 -0.63400
O 	O 	0.37390 0.87679 0.35020 -0.33600
O 	O 	0.41994 0.83712 0.32418 -0.39600
O 	O 	0.40740 0.87229 0.47695 -0.33800
O 	O 	0.55971 0.82388 0.41630 -0.34800
C 	C 	0.56833 0.82556 0.45215 0.33400
C 	C 	0.47575 0.93288 0.43341 0.32400
O 	O 	0.50542 0.90885 0.44134 -0.36100
O 	O 	0.53550 0.83694 0.47562 -0.34200
O 	O 	0.36627 0.87289 0.42176 -0.32200
C 	C 	0.37765 0.85119 0.32876 0.33800
O 	O 	0.57957 0.85926 0.35584 -0.33600
O 	O 	0.54027 0.87643 0.30308 -0.37000
H 	H 	0.45313 0.82500 0.41503 0.19800
H 	H 	0.49434 0.90885 0.35883 0.20400
Cu	Cu	0.06008 0.13029 0.87903 0.93800
Cu	Cu	0.00026 0.14754 0.80339 0.90000
Cu	Cu	0.95221 0.14412 0.87947 0.91200
Cu	Cu	0.00393 0.15064 0.95257 0.91900
C 	C 	0.10974 0.15490 0.94281 0.33700
O 	O 	0.05055 0.08836 0.90799 -0.32600
C 	C 	0.89887 0.13592 0.81086 0.32400
O 	O 	0.00967 0.16285 0.90261 -0.63200
O 	O 	0.00232 0.12191 0.84873 -0.63700
O 	O 	0.10468 0.13908 0.83713 -0.33500
O 	O 	0.05359 0.17613 0.81141 -0.39200
O 	O 	0.07400 0.14383 0.96337 -0.34200
O 	O 	0.90209 0.16200 0.91218 -0.33800
C 	C 	0.90827 0.18073 0.94152 0.33400
C 	C 	0.00909 0.08070 0.92424 0.31500
O 	O 	0.97786 0.10359 0.93363 -0.36100
O 	O 	0.94977 0.18155 0.95964 -0.34300
O 	O 	0.11308 0.14671 0.90771 -0.32500
C 	C 	0.09750 0.16434 0.81564 0.33800
O 	O 	0.89855 0.13157 0.84707 -0.32900
O 	O 	0.93804 0.12963 0.79124 -0.36200
H 	H 	0.01398 0.18645 0.89794 0.19400
H 	H 	0.99542 0.09849 0.84481 0.20500
Cu	Cu	0.44085 0.19270 0.59489 0.93800
Cu	Cu	0.48664 0.19642 0.67892 0.90400
Cu	Cu	0.54091 0.22084 0.61266 0.90900
Cu	Cu	0.50649 0.22420 0.53316 0.91500
C 	C 	0.39822 0.22285 0.53095 0.33000
O 	O 	0.45892 0.15508 0.56132 -0.32800
C 	C 	0.58968 0.19128 0.67737 0.33500
O 	O 	0.48670 0.23231 0.58226 -0.63700
O 	O 	0.49682 0.18446 0.62777 -0.63500
O 	O 	0.38855 0.19197 0.63295 -0.33100
O 	O 	0.43148 0.22344 0.67287 -0.39800
O 	O 	0.43938 0.21859 0.51271 -0.33600
O 	O 	0.57964 0.25723 0.59575 -0.34300
C 	C 	0.59372 0.26131 0.56112 0.33000
C 	C 	0.50313 0.15140 0.54834 0.32800
O 	O 	0.53325 0.17615 0.54813 -0.35600
O 	O 	0.56610 0.25224 0.53288 -0.34400
O 	O 	0.39068 0.20881 0.56331 -0.32600
C 	C 	0.39019 0.21042 0.66259 0.34100
O 	O 	0.58950 0.21467 0.65217 -0.34600
O 	O 	0.54894 0.17877 0.69014 -0.36600
H 	H 	0.47391 0.25450 0.58676 0.19800
H 	H 	0.51197 0.16277 0.62484 0.20600
Cu	Cu	0.92938 0.67328 0.58676 0.93700
Cu	Cu	0.99051 0.66233 0.66343 0.89700
Cu	Cu	0.03407 0.69562 0.59683 0.90900
Cu	Cu	0.97943 0.72127 0.52987 0.91700
C 	C 	0.87334 0.71555 0.54012 0.33500
O 	O 	0.94242 0.64657 0.54064 -0.32900
C 	C 	0.09279 0.66239 0.65299 0.32900
O 	O 	0.97317 0.71514 0.58161 -0.63000
O 	O 	0.99038 0.65852 0.60974 -0.63100
O 	O 	0.88605 0.66270 0.62898 -0.33500
O 	O 	0.93440 0.68847 0.67060 -0.39700
O 	O 	0.90974 0.71575 0.51650 -0.34400
O 	O 	0.07460 0.73275 0.58432 -0.34000
C 	C 	0.07405 0.74799 0.55217 0.33400
C 	C 	0.98486 0.64706 0.52374 0.32300
O 	O 	0.01224 0.67332 0.52493 -0.35700
O 	O 	0.03294 0.75330 0.53444 -0.34700
O 	O 	0.87292 0.69516 0.56825 -0.32600
C 	C 	0.89160 0.67751 0.66084 0.33800
O 	O 	0.09198 0.67692 0.62036 -0.33300
O 	O 	0.05522 0.64564 0.66503 -0.37200
H 	H 	0.96382 0.73479 0.59583 0.19900
H 	H 	0.00237 0.63719 0.60079 0.20000
Cu	Cu	0.55104 0.63567 0.88361 0.93800
Cu	Cu	0.50002 0.65329 0.80442 0.90300
Cu	Cu	0.44870 0.66353 0.87618 0.90900
Cu	Cu	0.48929 0.65573 0.95331 0.91600
C 	C 	0.59696 0.65680 0.95057 0.33000
O 	O 	0.53650 0.59316 0.90974 -0.32800
C 	C 	0.39717 0.64939 0.80547 0.33400
O 	O 	0.50495 0.67172 0.90579 -0.63600
O 	O 	0.49320 0.63162 0.85166 -0.63600
O 	O 	0.60017 0.64207 0.84410 -0.33600
O 	O 	0.55456 0.68006 0.81465 -0.39600
O 	O 	0.55788 0.64801 0.96925 -0.33400
O 	O 	0.41041 0.69609 0.90144 -0.34600
C 	C 	0.39972 0.69537 0.93704 0.33400
C 	C 	0.49323 0.58660 0.92311 0.32600
O 	O 	0.46259 0.61035 0.92987 -0.35900
O 	O 	0.42970 0.68267 0.96183 -0.34300
O 	O 	0.60293 0.64800 0.91575 -0.32400
C 	C 	0.59686 0.66653 0.82093 0.33800
O 	O 	0.39556 0.66148 0.83945 -0.34100
O 	O 	0.43745 0.63743 0.79136 -0.36800
H 	H 	0.51643 0.69458 0.90520 0.19700
H 	H 	0.47949 0.60941 0.84978 0.20700
Cu	Cu	0.93675 0.37842 0.38389 0.93700
Cu	Cu	0.98023 0.36369 0.30097 0.90500
Cu	Cu	0.03670 0.34861 0.36940 0.90800
Cu	Cu	0.00348 0.35396 0.44928 0.91400
C 	C 	0.89572 0.35532 0.45202 0.33000
O 	O 	0.95616 0.41950 0.41128 -0.32700
C 	C 	0.08331 0.36664 0.29793 0.33500
O 	O 	0.98292 0.34055 0.40178 -0.63400
O 	O 	0.99186 0.38252 0.34916 -0.63300
O 	O 	0.88374 0.37435 0.34667 -0.33200
O 	O 	0.92562 0.33746 0.31247 -0.39600
O 	O 	0.93681 0.36217 0.46919 -0.33500
O 	O 	0.07608 0.31476 0.39131 -0.34500
C 	C 	0.09062 0.31489 0.42610 0.33200
C 	C 	0.00080 0.42444 0.42289 0.32400
O 	O 	0.03056 0.39971 0.42695 -0.35700
O 	O 	0.06192 0.32510 0.45314 -0.34400
O 	O 	0.88714 0.36626 0.41830 -0.32400
C 	C 	0.88443 0.35138 0.32143 0.33900
O 	O 	0.08563 0.35028 0.32947 -0.34500
O 	O 	0.04231 0.37925 0.28584 -0.36700
H 	H 	0.97018 0.31802 0.40051 0.19900
H 	H 	0.00672 0.40443 0.34804 0.20500
Cu	Cu	0.55359 0.33491 0.08385 0.93700
Cu	Cu	0.49364 0.34625 0.16083 0.89700
Cu	Cu	0.44809 0.31452 0.09436 0.90900
Cu	Cu	0.50152 0.28855 0.02665 0.91800
C 	C 	0.60812 0.29341 0.03537 0.33600
O 	O 	0.54146 0.36206 0.03796 -0.32800
C 	C 	0.39106 0.34890 0.15079 0.32800
O 	O 	0.50810 0.29396 0.07850 -0.63000
O 	O 	0.49343 0.35073 0.10720 -0.63400
O 	O 	0.59788 0.34510 0.12554 -0.33400
O 	O 	0.54962 0.31983 0.16755 -0.39700
O 	O 	0.57098 0.29416 0.01244 -0.34200
O 	O 	0.40472 0.27926 0.07992 -0.33800
C 	C 	0.40575 0.26401 0.04775 0.33300
C 	C 	0.49893 0.36248 0.02121 0.31900
O 	O 	0.47025 0.33689 0.02268 -0.35400
O 	O 	0.44725 0.25732 0.03128 -0.34400
O 	O 	0.60878 0.31178 0.06525 -0.32600
C 	C 	0.59242 0.33072 0.15762 0.33900
O 	O 	0.39128 0.33457 0.11802 -0.33400
O 	O 	0.42968 0.36425 0.16337 -0.36800
H 	H 	0.51683 0.27401 0.09240 0.19600
H 	H 	0.48222 0.37235 0.09856 0.20300
C 	C 	0.63279 0.33035 0.18417 -0.11600
C 	C 	0.63523 0.35421 0.21211 0.13100
C 	C 	0.67575 0.35552 0.23571 0.06700
C 	C 	0.71382 0.33290 0.23146 0.02200
C 	C 	0.71045 0.30822 0.20447 0.06800
C 	C 	0.67013 0.30713 0.18060 0.13200
C 	C 	0.75856 0.33629 0.25387 0.02100
C 	C 	0.79730 0.35546 0.24068 0.06800
C 	C 	0.83861 0.36035 0.26284 0.13100
C 	C 	0.84132 0.34600 0.29820 -0.11600
C 	C 	0.80256 0.32689 0.31143 0.13100
C 	C 	0.76150 0.32163 0.28904 0.06800
Br	Br	0.76143 0.27622 0.20003 -0.10900
Br	Br	0.58364 0.38571 0.21726 -0.18900
Br	Br	0.89082 0.38769 0.24535 -0.20200
Br	Br	0.70914 0.29444 0.30647 -0.11100
Br	Br	0.66617 0.27411 0.14271 -0.14000
Br	Br	0.67979 0.38871 0.27341 -0.11000
Br	Br	0.79332 0.37532 0.19237 -0.10800
Br	Br	0.80541 0.30848 0.36044 -0.13000
C 	C 	0.12634 0.36756 0.27382 -0.10600
C 	C 	0.16682 0.38658 0.28376 0.13100
C 	C 	0.21018 0.38412 0.26338 0.07000
C 	C 	0.21189 0.36449 0.23140 0.02100
C 	C 	0.17013 0.34750 0.21982 0.06900
C 	C 	0.12785 0.34824 0.24160 0.12900
C 	C 	0.25803 0.36069 0.21076 0.02100
C 	C 	0.27123 0.38369 0.18361 0.06900
C 	C 	0.31529 0.38017 0.16430 0.13000
C 	C 	0.34476 0.35266 0.17059 -0.10600
C 	C 	0.33098 0.32930 0.19710 0.12300
C 	C 	0.28831 0.33374 0.21786 0.07000
Br	Br	0.17116 0.32308 0.17421 -0.10800
Br	Br	0.16193 0.41725 0.32399 -0.12100
Br	Br	0.33607 0.41351 0.13024 -0.11300
Br	Br	0.27154 0.30322 0.25640 -0.11000
Br	Br	0.07268 0.32176 0.22817 -0.16200
Br	Br	0.26760 0.40687 0.27970 -0.10700
Br	Br	0.22862 0.41974 0.17268 -0.10600
Br	Br	0.37067 0.29116 0.20482 -0.16800
C 	C 	0.48263 0.55355 0.93658 -0.10900
C 	C 	0.45489 0.53198 0.91485 0.12600
C 	C 	0.45001 0.49919 0.92561 0.07000
C 	C 	0.47293 0.48802 0.95807 0.02000
C 	C 	0.49833 0.51004 0.98084 0.06800
C 	C 	0.50303 0.54280 0.97016 0.12700
C 	C 	0.47273 0.45289 0.96732 0.02100
C 	C 	0.43755 0.44038 0.99178 0.06700
C 	C 	0.44368 0.40917 0.00716 0.12600
C 	C 	0.48533 0.39077 0.99838 -0.10900
C 	C 	0.51686 0.40154 0.97024 0.12800
C 	C 	0.51090 0.43279 0.95500 0.06800
Br	Br	0.52761 0.49502 0.02626 -0.12100
Br	Br	0.42425 0.54724 0.87016 -0.15600
Br	Br	0.39539 0.39181 0.04034 -0.15400
Br	Br	0.55618 0.44875 0.91854 -0.11200
Br	Br	0.53750 0.57301 0.00149 -0.14300
Br	Br	0.41284 0.46935 0.89566 -0.10500
Br	Br	0.38230 0.46666 0.00538 -0.10500
Br	Br	0.56727 0.37311 0.95201 -0.12400
C 	C 	0.01431 0.45661 0.43761 -0.10800
C 	C 	0.00217 0.46478 0.47428 0.12800
C 	C 	0.00388 0.49745 0.48583 0.06700
C 	C 	0.02120 0.52163 0.46150 0.02100
C 	C 	0.03917 0.51275 0.42643 0.07000
C 	C 	0.03466 0.48034 0.41412 0.12700
C 	C 	0.01707 0.55648 0.47174 0.01800
C 	C 	0.97625 0.57460 0.46041 0.07000
C 	C 	0.96912 0.60627 0.47410 0.13000
C 	C 	0.00023 0.61868 0.50159 -0.11100
C 	C 	0.04338 0.60186 0.51036 0.12400
C 	C 	0.05213 0.57091 0.49493 0.07000
Br	Br	0.06897 0.54513 0.39515 -0.10500
Br	Br	0.98434 0.43107 0.50882 -0.14700
Br	Br	0.91909 0.63356 0.45341 -0.11900
Br	Br	0.11135 0.54786 0.50617 -0.10400
Br	Br	0.05577 0.46856 0.36511 -0.15600
Br	Br	0.98039 0.50938 0.53427 -0.11600
Br	Br	0.92896 0.55541 0.42761 -0.11100
Br	Br	0.09020 0.62096 0.54354 -0.15700
C 	C 	0.13874 0.66059 0.67355 -0.10700
C 	C 	0.17074 0.63427 0.66797 0.13000
C 	C 	0.21388 0.63219 0.68870 0.06900
C 	C 	0.22380 0.65551 0.71630 0.02100
C 	C 	0.19128 0.68148 0.72232 0.07000
C 	C 	0.14943 0.68444 0.70032 0.12300
C 	C 	0.26879 0.65307 0.73858 0.02100
C 	C 	0.26993 0.63322 0.77039 0.07000
C 	C 	0.31272 0.63096 0.79150 0.13100
C 	C 	0.35319 0.65034 0.78237 -0.10600
C 	C 	0.35172 0.67063 0.75093 0.12800
C 	C 	0.31014 0.67116 0.72839 0.06900
Br	Br	0.20389 0.71267 0.76110 -0.11000
Br	Br	0.15485 0.60070 0.63270 -0.11300
Br	Br	0.31690 0.59997 0.83146 -0.11700
Br	Br	0.30970 0.69651 0.68344 -0.10600
Br	Br	0.10661 0.72123 0.70668 -0.17000
Br	Br	0.25966 0.59761 0.67918 -0.10700
Br	Br	0.21261 0.60960 0.78527 -0.11000
Br	Br	0.40597 0.69870 0.73961 -0.16500
C 	C 	0.85066 0.67971 0.68675 -0.11500
C 	C 	0.83967 0.65319 0.70997 0.12900
C 	C 	0.79902 0.65461 0.73344 0.06800
C 	C 	0.76934 0.68258 0.73367 0.02100
C 	C 	0.78164 0.70967 0.71166 0.06800
C 	C 	0.82223 0.70818 0.68811 0.13100
C 	C 	0.72334 0.68247 0.75484 0.02200
C 	C 	0.68073 0.67029 0.73835 0.06700
C 	C 	0.63858 0.66607 0.75972 0.13200
C 	C 	0.63865 0.67482 0.79745 -0.11700
C 	C 	0.68040 0.68886 0.81336 0.13300
C 	C 	0.72282 0.69259 0.79209 0.06800
Br	Br	0.74225 0.74851 0.71338 -0.10800
Br	Br	0.88036 0.61492 0.70951 -0.17200
Br	Br	0.58167 0.64646 0.73786 -0.20200
Br	Br	0.78056 0.71086 0.81403 -0.10800
Br	Br	0.83860 0.74490 0.65731 -0.13900
Br	Br	0.78333 0.61810 0.76487 -0.11200
Br	Br	0.68065 0.65867 0.68660 -0.10900
Br	Br	0.67939 0.70281 0.86436 -0.13600
C 	C 	0.13614 0.29791 0.43581 -0.10500
C 	C 	0.18096 0.30962 0.42237 0.12500
C 	C 	0.22462 0.29528 0.43433 0.07000
C 	C 	0.22379 0.27101 0.46185 0.02100
C 	C 	0.17903 0.25883 0.47473 0.06800
C 	C 	0.13528 0.27124 0.46040 0.12800
C 	C 	0.26992 0.25930 0.47832 0.02000
C 	C 	0.29111 0.23007 0.46577 0.07000
C 	C 	0.33313 0.21792 0.48310 0.12900
C 	C 	0.35609 0.23626 0.51107 -0.10400
C 	C 	0.33658 0.26648 0.52193 0.12600
C 	C 	0.29255 0.27739 0.50662 0.07000
Br	Br	0.17775 0.22594 0.51284 -0.10900
Br	Br	0.18277 0.34649 0.38937 -0.14000
Br	Br	0.35759 0.17540 0.47004 -0.11000
Br	Br	0.26250 0.31665 0.52501 -0.11100
Br	Br	0.07451 0.25044 0.47259 -0.13100
Br	Br	0.28568 0.30894 0.41324 -0.11000
Br	Br	0.26262 0.20686 0.42474 -0.10700
Br	Br	0.37113 0.29333 0.55692 -0.15400
C 	C 	0.63790 0.28072 0.55344 -0.10300
C 	C 	0.68320 0.27119 0.56829 0.12500
C 	C 	0.72599 0.28673 0.55638 0.07000
C 	C 	0.72428 0.30904 0.52682 0.02100
C 	C 	0.67904 0.31920 0.51273 0.06800
C 	C 	0.63590 0.30669 0.52793 0.12800
C 	C 	0.76997 0.32042 0.50931 0.02100
C 	C 	0.78826 0.35172 0.51727 0.07000
C 	C 	0.82912 0.36350 0.49808 0.13000
C 	C 	0.85463 0.34278 0.47379 -0.10400
C 	C 	0.83900 0.31046 0.46866 0.12700
C 	C 	0.79513 0.29994 0.48453 0.07100
Br	Br	0.67624 0.34887 0.47140 -0.10800
Br	Br	0.68733 0.23542 0.60271 -0.13600
Br	Br	0.84867 0.40834 0.50367 -0.10800
Br	Br	0.76851 0.25806 0.47130 -0.11000
Br	Br	0.57448 0.32666 0.51594 -0.13400
Br	Br	0.78708 0.27730 0.58022 -0.10800
Br	Br	0.75774 0.37813 0.55479 -0.10600
Br	Br	0.87929 0.28015 0.44184 -0.15700
C 	C 	0.15205 0.16976 0.96109 -0.10400
C 	C 	0.14760 0.20057 0.97792 0.12800
C 	C 	0.18823 0.21519 0.99463 0.07000
C 	C 	0.23400 0.19997 0.99249 0.02000
C 	C 	0.23849 0.16919 0.97558 0.07000
C 	C 	0.19720 0.15355 0.96115 0.13300
C 	C 	0.27761 0.21675 0.00705 0.02300
C 	C 	0.30179 0.24001 0.98512 0.06800
C 	C 	0.34253 0.25647 0.99922 0.12500
C 	C 	0.36127 0.24805 0.03422 -0.10400
C 	C 	0.33801 0.22396 0.05569 0.13100
C 	C 	0.29512 0.20927 0.04268 0.06800
Br	Br	0.30143 0.14884 0.97152 -0.10900
Br	Br	0.08630 0.22333 0.97664 -0.17000
Br	Br	0.37165 0.29146 0.97128 -0.15200
Br	Br	0.26005 0.17910 0.07368 -0.10700
Br	Br	0.20190 0.10930 0.94344 -0.10900
Br	Br	0.18140 0.25604 0.02052 -0.10600
Br	Br	0.27947 0.24884 0.93549 -0.10300
Br	Br	0.36641 0.20963 0.10171 -0.12400
C 	C 	0.65342 0.27756 0.02320 -0.10300
C 	C 	0.69584 0.29618 0.01743 0.13200
C 	C 	0.73908 0.28070 0.00647 0.07100
C 	C 	0.73876 0.24731 0.99746 0.01900
C 	C 	0.69582 0.22901 0.00163 0.07200
C 	C 	0.65387 0.24381 0.01611 0.12700
C 	C 	0.78350 0.23144 0.98350 0.02100
C 	C 	0.79659 0.23450 0.94597 0.06900
C 	C 	0.83931 0.21966 0.93288 0.12900
C 	C 	0.86624 0.19892 0.95630 -0.10400
C 	C 	0.85177 0.19473 0.99349 0.12800
C 	C 	0.81230 0.21259 0.00753 0.07000
Br	Br	0.69429 0.18388 0.98673 -0.11000
Br	Br	0.69383 0.34306 0.02147 -0.11000
Br	Br	0.86216 0.22906 0.88352 -0.14900
Br	Br	0.79775 0.21147 0.05974 -0.10400
Br	Br	0.59767 0.21764 0.02769 -0.16400
Br	Br	0.79893 0.30505 0.00424 -0.10500
Br	Br	0.75522 0.25822 0.91235 -0.10600
Br	Br	0.88275 0.16232 0.02419 -0.13800
C 	C 	0.13777 0.17732 0.79343 -0.11500
C 	C 	0.17248 0.19797 0.80984 0.13200
C 	C 	0.21350 0.20785 0.78952 0.06800
C 	C 	0.21998 0.19681 0.75293 0.02200
C 	C 	0.18392 0.17760 0.73594 0.06700
C 	C 	0.14289 0.16781 0.75621 0.13100
C 	C 	0.26639 0.20293 0.73345 0.02100
C 	C 	0.27084 0.22975 0.70933 0.06800
C 	C 	0.31233 0.23287 0.68686 0.13100
C 	C 	0.34953 0.20943 0.68889 -0.11900
C 	C 	0.34642 0.18379 0.71469 0.13000
C 	C 	0.30483 0.18050 0.73690 0.06700
Br	Br	0.19160 0.16402 0.68516 -0.11100
Br	Br	0.16386 0.21250 0.86019 -0.14100
Br	Br	0.31790 0.26883 0.65282 -0.12600
Br	Br	0.29973 0.14476 0.77137 -0.11200
Br	Br	0.09442 0.14041 0.73343 -0.18600
Br	Br	0.26141 0.23589 0.81191 -0.10700
Br	Br	0.21964 0.26172 0.70666 -0.10900
Br	Br	0.39883 0.15280 0.71899 -0.20500
C 	C 	0.85324 0.14346 0.79150 -0.10700
C 	C 	0.81492 0.12071 0.79091 0.13000
C 	C 	0.77140 0.12832 0.77241 0.06900
C 	C 	0.76712 0.15794 0.75296 0.02100
C 	C 	0.80605 0.18017 0.75256 0.07000
C 	C 	0.84853 0.17333 0.77263 0.12600
C 	C 	0.72129 0.16611 0.73365 0.02200
C 	C 	0.71364 0.15556 0.69700 0.07000
C 	C 	0.67026 0.16362 0.67860 0.13100
C 	C 	0.63541 0.18330 0.69628 -0.10500
C 	C 	0.64369 0.19460 0.73256 0.13100
C 	C 	0.68601 0.18532 0.75155 0.06800
Br	Br	0.80113 0.21989 0.72423 -0.10400
Br	Br	0.82285 0.07862 0.81384 -0.10700
Br	Br	0.65785 0.14691 0.62963 -0.13500
Br	Br	0.69580 0.19879 0.80217 -0.10700
Br	Br	0.89981 0.20531 0.77531 -0.18200
Br	Br	0.71743 0.09838 0.77389 -0.10800
Br	Br	0.76288 0.13039 0.67202 -0.10600
Br	Br	0.59776 0.22370 0.75569 -0.15200
C 	C 	0.61246 0.80983 0.46690 -0.10500
C 	C 	0.60883 0.78470 0.49344 0.12700
C 	C 	0.65123 0.77103 0.50859 0.06900
C 	C 	0.69695 0.77922 0.49378 0.02000
C 	C 	0.70039 0.80301 0.46581 0.07000
C 	C 	0.65857 0.81974 0.45417 0.12500
C 	C 	0.74125 0.76230 0.50694 0.02100
C 	C 	0.77319 0.77808 0.53159 0.07100
C 	C 	0.81764 0.76336 0.54096 0.12600
C 	C 	0.82758 0.73133 0.52930 -0.10500
C 	C 	0.79414 0.71470 0.50665 0.13000
C 	C 	0.75227 0.73078 0.49393 0.06900
Br	Br	0.76213 0.81193 0.44270 -0.11100
Br	Br	0.54625 0.76700 0.50660 -0.12300
Br	Br	0.86615 0.78773 0.56768 -0.15400
Br	Br	0.71085 0.71016 0.45779 -0.10900
Br	Br	0.66479 0.85765 0.42297 -0.13400
Br	Br	0.64688 0.74147 0.54994 -0.10600
Br	Br	0.75560 0.81951 0.55290 -0.10700
Br	Br	0.80507 0.66969 0.49391 -0.10800
C 	C 	0.11789 0.76554 0.54002 -0.10600
C 	C 	0.13900 0.75797 0.50557 0.12500
C 	C 	0.17947 0.77563 0.49296 0.06900
C 	C 	0.20111 0.79924 0.51593 0.02100
C 	C 	0.18106 0.80604 0.55096 0.06900
C 	C 	0.13836 0.79013 0.56239 0.13100
C 	C 	0.24502 0.81685 0.50325 0.02100
C 	C 	0.29109 0.80231 0.50692 0.07100
C 	C 	0.33215 0.81747 0.49149 0.12600
C 	C 	0.32772 0.84830 0.47461 -0.10200
C 	C 	0.28218 0.86401 0.47364 0.13200
C 	C 	0.24057 0.84769 0.48648 0.07000
Br	Br	0.21250 0.83687 0.58336 -0.10700
Br	Br	0.11360 0.72246 0.47637 -0.15000
Br	Br	0.39394 0.79525 0.49171 -0.17200
Br	Br	0.17729 0.86711 0.48026 -0.10800
Br	Br	0.10638 0.80346 0.60743 -0.12300
Br	Br	0.20493 0.76790 0.44400 -0.10200
Br	Br	0.29774 0.76156 0.53305 -0.10600
Br	Br	0.27724 0.90853 0.45689 -0.10400
C 	C 	0.48581 0.96582 0.44778 -0.11000
C 	C 	0.45249 0.98095 0.47197 0.12500
C 	C 	0.46143 0.01268 0.48483 0.06800
C 	C 	0.50582 0.02811 0.47667 0.02000
C 	C 	0.54014 0.01246 0.45387 0.06900
C 	C 	0.52929 0.98191 0.43823 0.12500
C 	C 	0.51651 0.06057 0.49259 0.02100
C 	C 	0.50568 0.08895 0.47230 0.06900
C 	C 	0.50691 0.11950 0.48986 0.13100
C 	C 	0.51565 0.12143 0.52818 -0.10900
C 	C 	0.53026 0.09343 0.54774 0.12900
C 	C 	0.53205 0.06313 0.52961 0.06900
Br	Br	0.60222 0.03266 0.44467 -0.10400
Br	Br	0.39664 0.95732 0.48990 -0.12800
Br	Br	0.49661 0.15870 0.46156 -0.15500
Br	Br	0.55414 0.02488 0.55563 -0.11300
Br	Br	0.57285 0.96280 0.40254 -0.14300
Br	Br	0.41269 0.03525 0.51341 -0.11300
Br	Br	0.48639 0.08570 0.42112 -0.10800
Br	Br	0.54638 0.09643 0.59949 -0.15400
C 	C 	0.63904 0.66965 0.97109 -0.10100
C 	C 	0.68316 0.65221 0.97158 0.13200
C 	C 	0.72528 0.66687 0.98594 0.06900
C 	C 	0.72234 0.69759 0.00320 0.02200
C 	C 	0.67724 0.71362 0.00589 0.07200
C 	C 	0.63600 0.70025 0.98865 0.12500
C 	C 	0.76693 0.71358 0.01727 0.02300
C 	C 	0.78573 0.70505 0.05221 0.06800
C 	C 	0.82952 0.71893 0.06460 0.13100
C 	C 	0.85187 0.74387 0.04377 -0.10600
C 	C 	0.83191 0.75330 0.00949 0.12700
C 	C 	0.79075 0.73718 0.99555 0.06700
Br	Br	0.67217 0.75389 0.03313 -0.10700
Br	Br	0.68511 0.60756 0.95495 -0.10900
Br	Br	0.86073 0.70194 0.10833 -0.12700
Br	Br	0.76739 0.74691 0.94644 -0.10400
Br	Br	0.57603 0.72458 0.98742 -0.16500
Br	Br	0.78727 0.64543 0.98090 -0.10800
Br	Br	0.75105 0.67469 0.08322 -0.10600
Br	Br	0.85971 0.78930 0.98240 -0.15200
C 	C 	0.14265 0.78168 0.02821 -0.10600
C 	C 	0.15950 0.75079 0.03916 0.12500
C 	C 	0.20368 0.73881 0.02516 0.07100
C 	C 	0.22893 0.75651 0.99783 0.02000
C 	C 	0.21141 0.78710 0.98620 0.06800
C 	C 	0.16938 0.80024 0.00251 0.13200
C 	C 	0.27293 0.74243 0.98046 0.02000
C 	C 	0.31940 0.75187 0.99275 0.06800
C 	C 	0.36105 0.73837 0.97625 0.12700
C 	C 	0.35631 0.71301 0.95016 -0.10500
C 	C 	0.30975 0.70341 0.93809 0.12500
C 	C 	0.26827 0.71915 0.95206 0.06900
Br	Br	0.24432 0.81051 0.94730 -0.10700
Br	Br	0.12077 0.72425 0.07182 -0.15100
Br	Br	0.42427 0.75606 0.98753 -0.12700
Br	Br	0.20498 0.70893 0.93231 -0.11400
Br	Br	0.14938 0.84407 0.99072 -0.11200
Br	Br	0.22994 0.69837 0.04356 -0.11000
Br	Br	0.32585 0.78257 0.03285 -0.10500
Br	Br	0.30256 0.66737 0.90430 -0.13500
C 	C 	0.97285 0.89053 0.01478 -0.10500
C 	C 	0.94705 0.91718 0.02939 0.12600
C 	C 	0.94703 0.94715 0.01051 0.07100
C 	C 	0.97313 0.95039 0.97719 0.01900
C 	C 	0.99392 0.92269 0.96049 0.07200
C 	C 	0.99280 0.89257 0.97901 0.13100
C 	C 	0.98349 0.98325 0.96222 0.02400
C 	C 	0.95257 0.99717 0.93549 0.06900
C 	C 	0.96171 0.02885 0.92229 0.12700
C 	C 	0.00086 0.04699 0.93666 -0.10900
C 	C 	0.03149 0.03312 0.96366 0.12700
C 	C 	0.02351 0.00101 0.97571 0.06400
Br	Br	0.02599 0.92650 0.91326 -0.10900
Br	Br	0.91178 0.91260 0.07505 -0.15700
Br	Br	0.92130 0.04716 0.88399 -0.15600
Br	Br	0.06728 0.98125 0.01088 -0.11500
Br	Br	0.01786 0.85398 0.95537 -0.14000
Br	Br	0.91311 0.98414 0.03087 -0.11000
Br	Br	0.89746 0.97294 0.91739 -0.10200
Br	Br	0.08271 0.05873 0.98567 -0.12800
C 	C 	0.12465 0.82173 0.19657 -0.11700
C 	C 	0.15638 0.79492 0.19891 0.13000
C 	C 	0.19710 0.79632 0.22237 0.06800
C 	C 	0.20611 0.82460 0.24338 0.02100
C 	C 	0.17293 0.85072 0.24246 0.06700
C 	C 	0.13215 0.84923 0.21913 0.12900
C 	C 	0.25206 0.82789 0.26432 0.02200
C 	C 	0.25398 0.81898 0.30194 0.06800
C 	C 	0.29599 0.82553 0.32283 0.13300
C 	C 	0.33599 0.84104 0.30610 -0.11600
C 	C 	0.33481 0.84867 0.26810 0.13200
C 	C 	0.29301 0.84186 0.24717 0.06700
Br	Br	0.18408 0.88877 0.27264 -0.11200
Br	Br	0.14434 0.75654 0.16958 -0.13100
Br	Br	0.29890 0.81325 0.37432 -0.14200
Br	Br	0.29123 0.85229 0.19513 -0.11000
Br	Br	0.08637 0.88482 0.21806 -0.18200
Br	Br	0.24113 0.75986 0.22530 -0.10800
Br	Br	0.19870 0.79837 0.32489 -0.10800
Br	Br	0.38968 0.86981 0.24513 -0.19400
C 	C 	0.83694 0.83917 0.18993 -0.10600
C 	C 	0.83234 0.82270 0.22395 0.12500
C 	C 	0.79038 0.82690 0.24559 0.07000
C 	C 	0.75230 0.84679 0.23272 0.02100
C 	C 	0.75621 0.86248 0.19817 0.06900
C 	C 	0.79872 0.85897 0.17695 0.12900
C 	C 	0.70802 0.85111 0.25544 0.02100
C 	C 	0.66913 0.82904 0.25192 0.07000
C 	C 	0.62713 0.83309 0.27354 0.12600
C 	C 	0.62353 0.85959 0.29814 -0.10600
C 	C 	0.66227 0.88180 0.30150 0.13100
C 	C 	0.70476 0.87732 0.28051 0.06900
Br	Br	0.70325 0.88883 0.18010 -0.10900
Br	Br	0.88312 0.79370 0.24039 -0.17400
Br	Br	0.57471 0.80205 0.26998 -0.17200
Br	Br	0.75863 0.90698 0.28599 -0.10800
Br	Br	0.80510 0.88202 0.13073 -0.11300
Br	Br	0.78508 0.80567 0.29305 -0.10800
Br	Br	0.67349 0.79337 0.21730 -0.10900
Br	Br	0.65642 0.91896 0.33382 -0.11100
