data_crystal

_cell_length_a 32.37858
_cell_length_b 54.17609
_cell_length_c 23.12640
_cell_angle_alpha 90.00304
_cell_angle_beta  89.99735
_cell_angle_gamma 90.00120

_symmetry_space_group_name_	'P 1'
_symmetry_space_group_name_H-M	'P 1'

loop_
_symmetry_equiv_pos_as_xyz
  x,y,z

loop_
_atom_site_label
_atom_site_type_symbol
_atom_site_fract_x
_atom_site_fract_y
_atom_site_fract_z
_atom_site_charge
Cu	Cu	0.52805 0.38296 0.91070 0.92900
Cu	Cu	0.53306 0.36422 0.77683 0.87500
Cu	Cu	0.45674 0.36242 0.83953 0.89300
Cu	Cu	0.43509 0.38895 0.95018 0.89400
C 	C 	0.50281 0.42231 0.98491 0.27800
O 	O 	0.52054 0.36017 0.97932 -0.35600
C 	C 	0.47936 0.32308 0.75629 0.29200
O 	O 	0.46791 0.39216 0.88263 -0.63800
O 	O 	0.51633 0.35627 0.85523 -0.64400
O 	O 	0.58234 0.39300 0.87835 -0.35800
O 	O 	0.55593 0.39616 0.78782 -0.42300
O 	O 	0.47169 0.40851 0.00244 -0.36900
O 	O 	0.39970 0.37066 0.82334 -0.37600
C 	C 	0.37168 0.37522 0.86337 0.29200
C 	C 	0.48900 0.34494 0.98291 0.27700
O 	O 	0.45376 0.35057 0.95795 -0.38600
O 	O 	0.38088 0.38860 0.90942 -0.38600
O 	O 	0.53322 0.41267 0.95451 -0.35300
C 	C 	0.58676 0.39918 0.82389 0.29600
O 	O 	0.44989 0.33499 0.78459 -0.37200
O 	O 	0.51720 0.33198 0.75212 -0.40100
H 	H 	0.46396 0.40764 0.86056 0.16600
H 	H 	0.52254 0.33923 0.86805 0.18500
Cu	Cu	0.55628 0.64109 0.16180 0.93100
Cu	Cu	0.46170 0.63938 0.12868 0.89700
C 	C 	0.52221 0.60112 0.09741 0.29000
O 	O 	0.49601 0.63498 0.19405 -0.64000
O 	O 	0.60811 0.62778 0.19540 -0.36200
O 	O 	0.58189 0.62893 0.28616 -0.42100
O 	O 	0.49201 0.61542 0.07883 -0.37600
C 	C 	0.40478 0.64772 0.22834 0.29300
O 	O 	0.40942 0.64590 0.17171 -0.38100
O 	O 	0.55607 0.61079 0.11946 -0.35000
C 	C 	0.60958 0.62073 0.24958 0.29700
H 	H 	0.49090 0.61970 0.21644 0.16900
Cu	Cu	0.93007 0.34548 0.66809 0.93000
Cu	Cu	0.90986 0.32639 0.79990 0.88000
Cu	Cu	0.99484 0.32521 0.75224 0.89900
Cu	Cu	0.02522 0.34447 0.63694 0.89700
C 	C 	0.96668 0.38216 0.59582 0.28900
O 	O 	0.93426 0.32113 0.60212 -0.35500
C 	C 	0.96388 0.28711 0.83253 0.29200
O 	O 	0.99010 0.35227 0.69963 -0.63800
O 	O 	0.93654 0.31910 0.72684 -0.63900
O 	O 	0.87816 0.36057 0.69749 -0.36300
O 	O 	0.90124 0.36079 0.79011 -0.42400
O 	O 	0.99652 0.36676 0.58137 -0.37300
O 	O 	0.05014 0.33426 0.77627 -0.37500
C 	C 	0.07930 0.34193 0.74053 0.28900
C 	C 	0.96382 0.30458 0.59986 0.28500
O 	O 	0.99799 0.30790 0.62943 -0.37700
O 	O 	0.07592 0.33856 0.68413 -0.38100
O 	O 	0.93211 0.37401 0.61931 -0.35000
C 	C 	0.87494 0.36848 0.75093 0.29300
O 	O 	0.99490 0.30154 0.81688 -0.38000
O 	O 	0.92521 0.29441 0.82718 -0.40000
H 	H 	0.99528 0.36860 0.71746 0.16700
H 	H 	0.93177 0.30206 0.71283 0.18100
Cu	Cu	0.96129 0.60281 0.41604 0.93000
Cu	Cu	0.95065 0.62573 0.28695 0.87500
Cu	Cu	0.02988 0.62553 0.34321 0.89400
Cu	Cu	0.05620 0.59293 0.44282 0.90100
C 	C 	0.98869 0.55957 0.47486 0.29400
O 	O 	0.97446 0.62279 0.48767 -0.35500
O 	O 	0.01926 0.59389 0.37907 -0.63700
O 	O 	0.97120 0.63129 0.36487 -0.64200
O 	O 	0.90496 0.59476 0.38742 -0.36000
O 	O 	0.92781 0.59368 0.29495 -0.42300
O 	O 	0.02157 0.57154 0.49303 -0.37600
O 	O 	0.08590 0.61806 0.31943 -0.37600
C 	C 	0.11516 0.61045 0.35485 0.29500
C 	C 	0.00743 0.63696 0.49113 0.27900
O 	O 	0.04118 0.63110 0.46260 -0.38100
O 	O 	0.10728 0.59395 0.39533 -0.37500
O 	O 	0.95655 0.57171 0.45473 -0.35600
C 	C 	0.89822 0.59004 0.33263 0.29600
H 	H 	0.02087 0.57963 0.35238 0.16900
H 	H 	0.96574 0.64788 0.38115 0.18400
Cu	Cu	0.42883 0.14077 0.41031 0.93000
Cu	Cu	0.41340 0.15959 0.27715 0.88000
Cu	Cu	0.49629 0.16167 0.33143 0.89900
Cu	Cu	0.52253 0.14271 0.44866 0.89900
C 	C 	0.46370 0.10423 0.48436 0.28700
O 	O 	0.42969 0.16515 0.47656 -0.35600
C 	C 	0.46755 0.19934 0.24827 0.29200
O 	O 	0.49024 0.13456 0.38336 -0.63900
O 	O 	0.43689 0.16721 0.35215 -0.63900
O 	O 	0.37853 0.12526 0.37705 -0.36600
O 	O 	0.40511 0.12511 0.28628 -0.42400
O 	O 	0.49234 0.11994 0.50165 -0.37100
O 	O 	0.55265 0.15309 0.31194 -0.37000
C 	C 	0.58166 0.14760 0.35007 0.29200
C 	C 	0.45874 0.18194 0.48107 0.28600
O 	O 	0.49398 0.17895 0.45395 -0.37900
O 	O 	0.57512 0.14966 0.40632 -0.38000
O 	O 	0.42970 0.11222 0.45904 -0.35500
C 	C 	0.37762 0.11720 0.32357 0.29300
O 	O 	0.49835 0.18535 0.26677 -0.37600
O 	O 	0.42894 0.19168 0.25100 -0.40000
H 	H 	0.49663 0.11830 0.36591 0.16900
H 	H 	0.43107 0.18420 0.36572 0.18200
Cu	Cu	0.02812 0.10277 0.16592 0.93000
Cu	Cu	0.03758 0.12171 0.29910 0.87500
Cu	Cu	0.95972 0.12365 0.24215 0.89400
Cu	Cu	0.93338 0.09702 0.13446 0.89800
C 	C 	0.99859 0.06277 0.09764 0.29500
O 	O 	0.01831 0.12538 0.09764 -0.35600
C 	C 	0.98498 0.16307 0.32353 0.29300
O 	O 	0.96902 0.09379 0.19909 -0.63800
O 	O 	0.01860 0.12970 0.22173 -0.64400
O 	O 	0.08337 0.09249 0.19461 -0.35700
O 	O 	0.05974 0.08971 0.28665 -0.42300
O 	O 	0.96699 0.07634 0.08107 -0.37500
O 	O 	0.90386 0.11524 0.26426 -0.38000
C 	C 	0.87367 0.11026 0.22775 0.29400
C 	C 	0.98672 0.14062 0.09593 0.28800
O 	O 	0.95251 0.13523 0.12377 -0.38700
O 	O 	0.88060 0.09834 0.17877 -0.38000
O 	O 	0.03124 0.07306 0.12154 -0.35300
C 	C 	0.08955 0.08669 0.24897 0.29600
O 	O 	0.95478 0.15194 0.29498 -0.37700
O 	O 	0.02276 0.15393 0.32527 -0.40300
H 	H 	0.96577 0.07841 0.22176 0.16700
H 	H 	0.02442 0.14673 0.20845 0.18600
C 	C 	0.03061 0.00472 0.01827 -0.04600
C 	C 	0.02834 0.02961 0.03445 0.02600
C 	C 	0.00093 0.03692 0.07866 -0.08300
C 	C 	0.97590 0.01929 0.10583 0.01100
C 	C 	0.05365 0.04755 0.00480 0.09500
N 	N 	0.07392 0.06194 0.98105 -0.10700
H 	H 	0.95480 0.02494 0.13980 0.02800
C 	C 	0.19904 0.06376 0.24202 -0.04000
C 	C 	0.21762 0.07799 0.28586 0.02400
C 	C 	0.19271 0.09111 0.32473 -0.05900
C 	C 	0.14998 0.09252 0.31626 0.02800
C 	C 	0.13171 0.08029 0.26859 -0.08900
C 	C 	0.15620 0.06488 0.23375 0.01900
C 	C 	0.26267 0.08266 0.28562 0.02400
C 	C 	0.27871 0.10009 0.24687 -0.05900
C 	C 	0.31796 0.11023 0.25580 0.02800
C 	C 	0.34186 0.10253 0.30372 -0.08800
C 	C 	0.32757 0.08306 0.33849 0.01700
C 	C 	0.28809 0.07314 0.32974 -0.04100
C 	C 	0.33230 0.12950 0.21757 0.05000
C 	C 	0.27345 0.05366 0.36709 0.09600
C 	C 	0.22384 0.04845 0.20452 0.09900
C 	C 	0.12565 0.10761 0.35490 0.04600
N 	N 	0.34370 0.14494 0.18687 -0.13100
N 	N 	0.26169 0.03805 0.39702 -0.10800
N 	N 	0.10630 0.11972 0.38598 -0.13400
N 	N 	0.24375 0.03618 0.17449 -0.10700
H 	H 	0.14214 0.05471 0.19844 0.04900
H 	H 	0.20696 0.10147 0.35957 0.05800
H 	H 	0.25953 0.10691 0.21186 0.05800
H 	H 	0.34641 0.07648 0.37410 0.04500
C 	C 	0.68709 0.11792 0.34248 -0.03800
C 	C 	0.70527 0.13051 0.29560 0.02200
C 	C 	0.68254 0.14850 0.26576 -0.05600
C 	C 	0.64235 0.15454 0.28327 0.02700
C 	C 	0.62383 0.14161 0.32970 -0.07600
C 	C 	0.64645 0.12331 0.35878 0.01000
C 	C 	0.74852 0.12537 0.27826 0.02200
C 	C 	0.75802 0.10303 0.25068 -0.05700
C 	C 	0.79891 0.09733 0.23606 0.02700
C 	C 	0.83058 0.11481 0.24626 -0.07800
C 	C 	0.82096 0.13714 0.27398 0.01000
C 	C 	0.78031 0.14237 0.29059 -0.03800
C 	C 	0.80830 0.07303 0.21393 0.08100
C 	C 	0.77156 0.16506 0.32106 0.09400
C 	C 	0.71024 0.09979 0.37486 0.09300
C 	C 	0.62141 0.17488 0.25545 0.08600
N 	N 	0.81576 0.05355 0.19623 -0.10900
N 	N 	0.76453 0.18322 0.34547 -0.10800
N 	N 	0.60470 0.19119 0.23314 -0.10200
N 	N 	0.72880 0.08527 0.40076 -0.11100
H 	H 	0.63251 0.11344 0.39461 0.04300
H 	H 	0.69661 0.15826 0.22984 0.05800
H 	H 	0.73365 0.08980 0.24196 0.05700
H 	H 	0.84519 0.15050 0.28247 0.04700
C 	C 	0.47031 0.00200 0.55324 0.02300
C 	C 	0.46841 0.02831 0.53631 0.02200
C 	C 	0.50315 0.03940 0.51124 -0.05800
C 	C 	0.50206 0.06421 0.49443 0.02400
C 	C 	0.46595 0.07831 0.50366 -0.07900
C 	C 	0.43119 0.06719 0.52892 0.01500
C 	C 	0.43216 0.04226 0.54495 -0.03900
C 	C 	0.53750 0.07475 0.46556 0.05700
C 	C 	0.39579 0.03109 0.56992 0.09700
C 	C 	0.48428 0.01371 0.65510 0.09300
N 	N 	0.56587 0.08319 0.44241 -0.12600
N 	N 	0.36668 0.02211 0.58994 -0.10700
N 	N 	0.48876 0.02858 0.69047 -0.11100
H 	H 	0.53094 0.02861 0.50432 0.05500
H 	H 	0.40335 0.07793 0.53592 0.05000
H 	H 	0.96530 0.64097 0.59111 0.05000
C 	C 	0.00843 0.24504 0.94690 -0.03900
C 	C 	0.98342 0.22390 0.94056 0.02300
C 	C 	0.95441 0.22281 0.89560 -0.05600
C 	C 	0.94948 0.24280 0.85783 0.02600
C 	C 	0.97270 0.26458 0.86636 -0.07400
C 	C 	0.00277 0.26530 0.91010 0.00800
C 	C 	0.98681 0.20293 0.98152 0.02100
C 	C 	0.97107 0.20540 0.03775 -0.05100
C 	C 	0.97244 0.18551 0.07641 0.02700
C 	C 	0.98829 0.16252 0.05797 -0.08200
C 	C 	0.00499 0.16028 0.00219 0.02500
C 	C 	0.00464 0.18038 0.96414 -0.05100
C 	C 	0.95926 0.18915 0.13550 0.07100
C 	C 	0.02287 0.17777 0.90745 0.09600
C 	C 	0.04001 0.24605 0.99095 0.08500
C 	C 	0.92163 0.24050 0.80931 0.08000
N 	N 	0.94874 0.19207 0.18284 -0.10900
N 	N 	0.03747 0.17570 0.86203 -0.11100
N 	N 	0.89935 0.23866 0.77042 -0.10900
N 	N 	0.06531 0.24684 0.02625 -0.10300
H 	H 	0.02114 0.28184 0.91630 0.04600
H 	H 	0.93577 0.20635 0.88995 0.05600
H 	H 	0.95799 0.22289 0.05148 0.05800
H 	H 	0.01775 0.14275 0.98814 0.04200
C 	C 	0.94578 0.26840 0.46266 -0.03900
C 	C 	0.96005 0.24478 0.47861 0.02400
C 	C 	0.97265 0.24038 0.53574 -0.05700
C 	C 	0.97228 0.25951 0.57654 0.02600
C 	C 	0.96028 0.28351 0.55967 -0.08000
C 	C 	0.94616 0.28764 0.50309 0.01100
C 	C 	0.96385 0.22483 0.43506 0.02000
C 	C 	0.99652 0.22547 0.39529 -0.04800
C 	C 	0.00214 0.20612 0.35592 0.02000
C 	C 	0.97560 0.18545 0.35748 -0.07200
C 	C 	0.94172 0.18540 0.39537 0.00900
C 	C 	0.93565 0.20500 0.43399 -0.03600
C 	C 	0.03437 0.20797 0.31293 0.08200
C 	C 	0.90047 0.20462 0.47239 0.09400
C 	C 	0.93070 0.27303 0.40488 0.09600
C 	C 	0.98279 0.25415 0.63596 0.07400
N 	N 	0.06017 0.20946 0.27846 -0.10900
N 	N 	0.87230 0.20434 0.50317 -0.10900
N 	N 	0.99118 0.24987 0.68357 -0.11000
N 	N 	0.91864 0.27671 0.35858 -0.10800
H 	H 	0.93625 0.30596 0.49022 0.05000
H 	H 	0.98286 0.22208 0.54831 0.05800
H 	H 	0.01760 0.24104 0.39511 0.05300
H 	H 	0.92074 0.16978 0.39588 0.04500
C 	C 	0.00049 0.44845 0.58417 -0.04600
C 	C 	0.97340 0.45755 0.54146 0.02700
C 	C 	0.94434 0.44172 0.51603 -0.05900
C 	C 	0.94191 0.41695 0.53314 0.03300
C 	C 	0.96896 0.40789 0.57602 -0.08300
C 	C 	0.99830 0.42367 0.60089 0.01800
C 	C 	0.97576 0.48359 0.52242 0.02400
C 	C 	0.00675 0.49070 0.48351 -0.05800
C 	C 	0.01112 0.51548 0.46753 0.02400
C 	C 	0.98396 0.53338 0.49024 -0.07800
C 	C 	0.95234 0.52619 0.52813 0.01700
C 	C 	0.94823 0.50142 0.54455 -0.03900
C 	C 	0.04318 0.52236 0.42715 0.05700
C 	C 	0.91611 0.49449 0.58474 0.09600
C 	C 	0.03032 0.46451 0.61142 0.09500
C 	C 	0.91229 0.40085 0.50558 0.08600
N 	N 	0.06885 0.52788 0.39482 -0.11800
N 	N 	0.89039 0.48891 0.61694 -0.10900
N 	N 	0.88856 0.38795 0.48351 -0.10000
N 	N 	0.05421 0.47739 0.63322 -0.11200
H 	H 	0.01912 0.41669 0.63382 0.02700
H 	H 	0.92369 0.44869 0.48289 0.05900
H 	H 	0.02776 0.47695 0.46623 0.05700
H 	H 	0.93134 0.53993 0.54548 0.04900
C 	C 	0.31675 0.61661 0.30611 -0.03900
C 	C 	0.28344 0.63225 0.29187 0.02300
C 	C 	0.36356 0.64342 0.25305 -0.07800
C 	C 	0.35664 0.62233 0.28679 0.01100
C 	C 	0.24066 0.62579 0.30859 0.02300
C 	C 	0.22554 0.63319 0.36268 -0.05600
C 	C 	0.18465 0.62809 0.37842 0.02700
C 	C 	0.15851 0.61543 0.33965 -0.07700
C 	C 	0.17373 0.60786 0.28572 0.01700
C 	C 	0.21466 0.61291 0.27007 -0.03900
C 	C 	0.16939 0.63651 0.43373 0.07200
C 	C 	0.22980 0.60479 0.21448 0.09500
C 	C 	0.31011 0.59449 0.33970 0.09300
N 	N 	0.15713 0.64326 0.47800 -0.10800
N 	N 	0.24197 0.59829 0.16996 -0.11100
N 	N 	0.30474 0.57677 0.36660 -0.11100
H 	H 	0.38215 0.61008 0.29691 0.03400
H 	H 	0.24555 0.64312 0.39227 0.05700
H 	H 	0.15372 0.59800 0.25600 0.04400
C 	C 	0.78775 0.56845 0.33768 -0.04100
C 	C 	0.76996 0.58285 0.29351 0.02400
C 	C 	0.79552 0.59604 0.25566 -0.05900
C 	C 	0.83814 0.59723 0.26522 0.02800
C 	C 	0.85571 0.58457 0.31285 -0.08900
C 	C 	0.83051 0.56926 0.34694 0.01800
C 	C 	0.72492 0.58747 0.29213 0.02400
C 	C 	0.70833 0.60544 0.32902 -0.05800
C 	C 	0.66915 0.61535 0.31832 0.02800
C 	C 	0.64581 0.60681 0.27062 -0.08500
C 	C 	0.66069 0.58693 0.23769 0.01900
C 	C 	0.70015 0.57728 0.24812 -0.04000
C 	C 	0.65430 0.63522 0.35447 0.05200
C 	C 	0.71542 0.55734 0.21260 0.09700
C 	C 	0.76222 0.55323 0.37443 0.09700
C 	C 	0.86306 0.61251 0.22774 0.04700
N 	N 	0.72769 0.54137 0.18416 -0.10800
N 	N 	0.88288 0.62477 0.19759 -0.13300
N 	N 	0.74174 0.54104 0.40385 -0.10800
H 	H 	0.84398 0.55882 0.38226 0.04700
H 	H 	0.78185 0.60660 0.22068 0.05800
H 	H 	0.72704 0.61282 0.36391 0.05800
H 	H 	0.64226 0.57971 0.20233 0.04900
C 	C 	0.51337 0.24105 0.13425 -0.03700
C 	C 	0.48808 0.26213 0.13944 0.02300
C 	C 	0.45867 0.26337 0.18385 -0.05500
C 	C 	0.45345 0.24354 0.22199 0.02700
C 	C 	0.47697 0.22181 0.21459 -0.07500
C 	C 	0.50755 0.22097 0.17158 0.01300
C 	C 	0.49151 0.28282 0.09776 0.02300
C 	C 	0.47505 0.28018 0.04198 -0.05800
C 	C 	0.47563 0.30002 0.00311 0.03200
C 	C 	0.49166 0.32306 0.02080 -0.07500
C 	C 	0.50935 0.32542 0.07595 0.01100
C 	C 	0.50960 0.30542 0.11428 -0.03900
C 	C 	0.46126 0.29631 0.94458 0.06400
C 	C 	0.52856 0.30819 0.17045 0.09600
C 	C 	0.54533 0.23989 0.09075 0.09700
C 	C 	0.42473 0.24588 0.26950 0.08000
N 	N 	0.44981 0.29334 0.89769 -0.10600
N 	N 	0.54374 0.31039 0.21545 -0.10800
N 	N 	0.40175 0.24776 0.30757 -0.10800
N 	N 	0.57092 0.23897 0.05589 -0.10800
H 	H 	0.52607 0.20444 0.16618 0.05100
H 	H 	0.43983 0.27981 0.18866 0.05700
H 	H 	0.46181 0.26265 0.02888 0.06000
H 	H 	0.52231 0.34298 0.08937 0.05000
C 	C 	0.42793 0.28134 0.64750 -0.03800
C 	C 	0.45535 0.26111 0.64684 0.02300
C 	C 	0.48778 0.26008 0.68695 -0.05600
C 	C 	0.49423 0.27952 0.72580 0.02800
C 	C 	0.46868 0.30061 0.72353 -0.07400
C 	C 	0.43476 0.30098 0.68573 0.01300
C 	C 	0.45155 0.24146 0.60257 0.02200
C 	C 	0.46529 0.24602 0.54604 -0.05700
C 	C 	0.46570 0.22703 0.50492 0.02600
C 	C 	0.45323 0.20299 0.52087 -0.08100
C 	C 	0.43757 0.19877 0.57661 0.01100
C 	C 	0.43654 0.21787 0.61739 -0.03900
C 	C 	0.47778 0.23252 0.44616 0.07400
C 	C 	0.42017 0.21312 0.67442 0.09500
C 	C 	0.39288 0.28210 0.60892 0.09400
C 	C 	0.52640 0.27743 0.76880 0.08000
N 	N 	0.48745 0.23689 0.39908 -0.10900
N 	N 	0.40706 0.20933 0.72012 -0.10900
N 	N 	0.55215 0.27576 0.80328 -0.10900
N 	N 	0.36481 0.28270 0.57798 -0.11100
H 	H 	0.41446 0.31691 0.68482 0.04600
H 	H 	0.50822 0.24421 0.68750 0.05700
H 	H 	0.47599 0.26432 0.53426 0.05700
H 	H 	0.42722 0.18043 0.58870 0.04700
C 	C 	0.17569 0.34190 0.83291 -0.04000
C 	C 	0.20027 0.35953 0.80409 0.02200
C 	C 	0.18381 0.37271 0.75726 -0.05600
C 	C 	0.14350 0.36807 0.73817 0.02500
C 	C 	0.11987 0.34923 0.76448 -0.07800
C 	C 	0.13588 0.33664 0.81262 0.01200
C 	C 	0.24400 0.36349 0.82090 0.02300
C 	C 	0.27320 0.34504 0.80924 -0.05700
C 	C 	0.31468 0.34833 0.82450 0.02600
C 	C 	0.32768 0.37087 0.84938 -0.07900
C 	C 	0.29837 0.38933 0.86109 0.01200
C 	C 	0.25662 0.38563 0.84766 -0.04100
C 	C 	0.34318 0.32805 0.81712 0.07600
C 	C 	0.22687 0.40451 0.86216 0.09100
C 	C 	0.19104 0.32920 0.88344 0.09300
C 	C 	0.12611 0.38333 0.69305 0.06700
N 	N 	0.36584 0.31172 0.81122 -0.09900
N 	N 	0.20300 0.41963 0.87374 -0.11300
N 	N 	0.11218 0.39555 0.65694 -0.11800
N 	N 	0.20337 0.31903 0.92393 -0.11100
H 	H 	0.11763 0.32245 0.83367 0.04900
H 	H 	0.20242 0.38660 0.73573 0.05700
H 	H 	0.26344 0.32792 0.78905 0.05800
H 	H 	0.30808 0.40662 0.88048 0.04300
C 	C 	0.69579 0.42262 0.82693 -0.04100
C 	C 	0.71381 0.40813 0.78310 0.02400
C 	C 	0.68838 0.39515 0.74465 -0.05900
C 	C 	0.64572 0.39389 0.75402 0.02800
C 	C 	0.62812 0.40610 0.80220 -0.08900
C 	C 	0.65304 0.42163 0.83611 0.01900
C 	C 	0.75864 0.40276 0.78363 0.02400
C 	C 	0.77382 0.38521 0.82276 -0.05900
C 	C 	0.81312 0.37497 0.81518 0.02700
C 	C 	0.83805 0.38272 0.76831 -0.08700
C 	C 	0.82433 0.40205 0.73269 0.01700
C 	C 	0.78475 0.41205 0.74004 -0.04000
C 	C 	0.82650 0.35554 0.85367 0.04900
C 	C 	0.77084 0.43149 0.70202 0.09800
C 	C 	0.72111 0.43794 0.86374 0.09700
C 	C 	0.62077 0.37894 0.71587 0.04700
N 	N 	0.83712 0.33998 0.88457 -0.13300
N 	N 	0.75967 0.44706 0.67156 -0.10700
N 	N 	0.60090 0.36694 0.68520 -0.13200
N 	N 	0.74142 0.45020 0.89321 -0.10900
H 	H 	0.63944 0.43186 0.87169 0.04800
H 	H 	0.70217 0.38468 0.70961 0.05800
H 	H 	0.75401 0.37848 0.85717 0.05700
H 	H 	0.84384 0.40859 0.69774 0.04800
C 	C 	0.47421 0.48761 0.02564 -0.04100
C 	C 	0.51322 0.49797 0.03776 0.02500
C 	C 	0.54846 0.48296 0.03714 -0.05800
C 	C 	0.54536 0.45789 0.02298 0.02800
C 	C 	0.50661 0.44784 0.00709 -0.07400
C 	C 	0.47118 0.46274 0.00975 0.01600
C 	C 	0.51738 0.52450 0.05219 0.02100
C 	C 	0.52458 0.53148 0.10968 -0.05700
C 	C 	0.52726 0.55647 0.12466 0.02500
C 	C 	0.52206 0.57477 0.08183 -0.08100
C 	C 	0.51568 0.56778 0.02411 0.02100
C 	C 	0.51387 0.54277 0.00896 -0.03400
C 	C 	0.53463 0.56319 0.18426 0.06600
C 	C 	0.50868 0.53598 0.94900 0.08700
C 	C 	0.43716 0.50237 0.02951 0.09400
C 	C 	0.58161 0.44246 0.02765 0.09100
N 	N 	0.54055 0.56858 0.23197 -0.11300
N 	N 	0.50451 0.53052 0.90097 -0.11100
N 	N 	0.61068 0.43013 0.03139 -0.09900
N 	N 	0.40750 0.51421 0.03261 -0.11200
H 	H 	0.44130 0.45505 0.99852 0.02400
H 	H 	0.57829 0.49078 0.04813 0.05900
H 	H 	0.52777 0.51743 0.14281 0.05600
H 	H 	0.51235 0.58182 0.99097 0.04100
N 	N 	0.64248 0.65113 0.38348 -0.12700
C 	C 	0.29064 0.65382 0.25994 -0.05700
O 	O 	0.43363 0.65753 0.26156 -0.37400
O 	O 	0.03498 0.65613 0.29832 -0.36800
O 	O 	0.96835 0.65781 0.26317 -0.40000
C 	C 	0.00745 0.65837 0.53114 -0.07900
C 	C 	0.98332 0.65736 0.58163 0.01200
C 	C 	0.33047 0.65948 0.24046 0.03000
Cu	Cu	0.57194 0.66339 0.29102 0.87900
Cu	Cu	0.48967 0.66486 0.23751 0.89800
O 	O 	0.55167 0.66293 0.09109 -0.35000
C 	C 	0.00725 0.66498 0.26172 0.28400
H 	H 	0.01958 0.66308 0.14731 0.03300
H 	H 	0.26509 0.66600 0.24963 0.05900
O 	O 	0.54879 0.66939 0.21485 -0.63900
N 	N 	0.93646 0.67486 0.71216 -0.10900
O 	O 	0.48707 0.67605 0.11456 -0.38300
C 	C 	0.98256 0.67728 0.62018 -0.03600
C 	C 	0.95696 0.67593 0.67125 0.09500
C 	C 	0.52160 0.67904 0.08565 0.28600
C 	C 	0.02169 0.68172 0.16425 0.01100
C 	C 	0.03101 0.67983 0.51939 0.02400
N 	N 	0.55256 0.68127 0.46267 -0.11300
C 	C 	0.05523 0.68195 0.46713 0.08000
N 	N 	0.07474 0.68362 0.42538 -0.10400
C 	C 	0.33719 0.68189 0.20791 0.08100
H 	H 	0.55497 0.68591 0.19875 0.18400
C 	C 	0.01852 0.68575 0.22397 -0.07500
O 	O 	0.48696 0.69384 0.28876 -0.37200
N 	N 	0.02704 0.69352 0.01529 -0.10900
H 	H 	0.46649 0.69183 0.00428 0.03700
O 	O 	0.55567 0.69569 0.31460 -0.40000
C 	C 	0.02639 0.69713 0.06460 0.09500
C 	C 	0.00644 0.69846 0.60875 0.02000
C 	C 	0.03054 0.69959 0.55846 -0.05500
C 	C 	0.52539 0.69957 0.04405 -0.08000
C 	C 	0.53852 0.69922 0.44398 0.06600
N 	N 	0.34259 0.69983 0.18184 -0.10400
C 	C 	0.51692 0.70240 0.32222 0.28800
C 	C 	0.02559 0.70167 0.12615 -0.03800
H 	H 	0.04870 0.70171 0.70869 0.05700
C 	C 	0.49320 0.70392 0.00473 0.02100
N 	N 	0.61995 0.70875 0.11797 -0.11400
C 	C 	0.02136 0.70997 0.24599 0.02900
C 	C 	0.59344 0.71160 0.08510 0.07300
C 	C 	0.01674 0.71469 0.30712 0.08100
C 	C 	0.56035 0.71518 0.04403 0.02600
N 	N 	0.01291 0.71854 0.35605 -0.10600
C 	C 	0.03147 0.71840 0.69921 -0.05700
H 	H 	0.04879 0.71596 0.54963 0.05800
C 	C 	0.00674 0.71955 0.64953 0.02100
N 	N 	0.57020 0.72037 0.82720 -0.11000
C 	C 	0.52100 0.72164 0.42063 0.02700
C 	C 	0.50799 0.72283 0.36243 -0.07700
C 	C 	0.02730 0.72596 0.14802 0.02400
C 	C 	0.49519 0.72383 0.96630 -0.04500
C 	C 	0.46131 0.72817 0.92693 0.09500
C 	C 	0.02635 0.72988 0.20797 -0.05800
N 	N 	0.43421 0.73166 0.89536 -0.11200
N 	N 	0.13095 0.73307 0.08987 -0.10900
N 	N 	0.07773 0.73508 0.83068 -0.11000
C 	C 	0.03428 0.73873 0.73642 0.02700
C 	C 	0.05842 0.73671 0.78875 0.07500
C 	C 	0.56240 0.73504 0.00525 -0.05000
C 	C 	0.55737 0.73844 0.84692 0.09600
C 	C 	0.98337 0.74096 0.63814 -0.03700
C 	C 	0.52981 0.73963 0.96682 0.01800
H 	H 	0.52727 0.74149 0.50096 0.05700
C 	C 	0.09944 0.74282 0.08385 0.09600
C 	C 	0.95628 0.74213 0.58859 0.09500
N 	N 	0.93460 0.74304 0.54887 -0.10900
C 	C 	0.51655 0.74226 0.45655 -0.05700
C 	C 	0.48880 0.74431 0.34177 0.01500
C 	C 	0.02527 0.74745 0.10848 0.02000
H 	H 	0.58895 0.74725 0.00581 0.05800
H 	H 	0.47839 0.74520 0.29723 0.04600
H 	H 	0.02776 0.74856 0.22483 0.05800
C 	C 	0.06009 0.75497 0.07635 -0.03600
H 	H 	0.96129 0.75471 0.12795 0.05700
C 	C 	0.98789 0.76024 0.10252 -0.05400
C 	C 	0.01283 0.76071 0.72318 -0.08100
C 	C 	0.98655 0.76142 0.67492 0.01500
C 	C 	0.53053 0.76216 0.93061 0.02400
C 	C 	0.54133 0.76098 0.87157 -0.03900
C 	C 	0.49911 0.76410 0.43515 0.02300
C 	C 	0.48434 0.76495 0.37781 -0.03800
C 	C 	0.05668 0.77449 0.03688 0.01100
H 	H 	0.43975 0.77699 0.51078 0.05700
C 	C 	0.98470 0.78019 0.06433 0.02800
H 	H 	0.08326 0.77987 0.01126 0.04400
H 	H 	0.96956 0.77815 0.66502 0.04700
C 	C 	0.53566 0.78168 0.83610 0.01500
H 	H 	0.54251 0.78049 0.79026 0.04500
C 	C 	0.02058 0.78357 0.75618 0.28900
C 	C 	0.01903 0.78704 0.03009 -0.07400
C 	C 	0.51696 0.78454 0.95430 -0.05700
C 	C 	0.49836 0.78634 0.47232 0.02300
H 	H 	0.50957 0.78561 1.00000 0.05600
C 	C 	0.46520 0.79002 0.51031 -0.05700
C 	C 	0.46523 0.78706 0.35541 0.09700
O 	O 	0.05903 0.79099 0.76309 -0.40100
C 	C 	0.94670 0.79416 0.06246 0.07500
O 	O 	0.98904 0.79801 0.76972 -0.37800
N 	N 	0.59342 0.79708 0.40151 -0.11000
H 	H 	0.05060 0.80160 0.87565 0.17800
C 	C 	0.56593 0.79980 0.43284 0.09500
N 	N 	0.72815 0.80428 0.83475 -0.11000
N 	N 	0.91626 0.80534 0.06102 -0.11400
C 	C 	0.51936 0.80359 0.85909 -0.07600
C 	C 	0.53158 0.80316 0.47191 -0.03900
N 	N 	0.44993 0.80478 0.33750 -0.10800
C 	C 	0.01611 0.80751 0.98804 0.27800
O 	O 	0.98331 0.80973 0.95518 -0.37700
C 	C 	0.51141 0.80525 0.91897 0.02700
H 	H 	0.83410 0.81196 0.85278 0.04500
C 	C 	0.46507 0.81017 0.54833 0.02600
C 	C 	0.43123 0.81295 0.58852 0.07100
N 	N 	0.40407 0.81515 0.62064 -0.11500
O 	O 	0.04589 0.81820 0.85898 -0.63900
C 	C 	0.75507 0.81736 0.82268 0.09500
Cu	Cu	0.98792 0.82337 0.83093 0.89900
O 	O 	0.04648 0.82344 0.98331 -0.35600
C 	C 	0.53148 0.82334 0.50975 0.01400
C 	C 	0.50692 0.82372 0.81991 0.28800
Cu	Cu	0.07356 0.82368 0.78587 0.88000
C 	C 	0.49847 0.82698 0.54816 -0.07900
O 	O 	0.46775 0.83035 0.81879 -0.39800
C 	C 	0.82867 0.82823 0.82648 0.01500
N 	N 	0.76639 0.82886 0.63166 -0.11000
C 	C 	0.49757 0.82815 0.94447 0.06700
O 	O 	0.53347 0.83181 0.78070 -0.37400
O 	O 	0.93278 0.83147 0.80422 -0.36800
C 	C 	0.78864 0.83369 0.80756 -0.03900
O 	O 	0.90564 0.83816 0.89497 -0.38000
N 	N 	0.14479 0.83582 0.69882 -0.13300
H 	H 	0.55702 0.83630 0.50915 0.03800
H 	H 	0.46194 0.83902 0.70069 0.18500
C 	C 	0.90257 0.83922 0.83807 0.29300
C 	C 	0.74663 0.84008 0.66404 0.09400
Cu	Cu	0.95573 0.84581 0.94188 0.90100
C 	C 	0.86170 0.84388 0.81248 -0.07600
C 	C 	0.49932 0.84836 0.58779 0.28300
Cu	Cu	0.05134 0.84609 0.91396 0.92900
N 	N 	0.48647 0.84649 0.96488 -0.11300
O 	O 	0.99175 0.85191 0.87928 -0.63700
O 	O 	0.46779 0.85577 0.71567 -0.64200
O 	O 	0.53373 0.85406 0.61488 -0.39300
C 	C 	0.15560 0.85193 0.72800 0.04900
C 	C 	0.72200 0.85407 0.70449 -0.03800
C 	C 	0.78139 0.85509 0.77440 0.02300
H 	H 	0.66764 0.85299 0.65067 0.03500
O 	O 	0.08149 0.85830 0.79094 -0.42400
C 	C 	0.68077 0.85942 0.69113 0.01100
Cu	Cu	0.44884 0.86203 0.79410 0.87800
Cu	Cu	0.52713 0.86171 0.73354 0.89400
O 	O 	0.46683 0.86285 0.59202 -0.34800
O 	O 	0.10355 0.86058 0.88381 -0.36600
C 	C 	0.73889 0.86209 0.75744 0.02300
N 	N 	0.38302 0.86478 0.88756 -0.12900
C 	C 	0.85468 0.86486 0.77771 0.02500
O 	O 	0.58386 0.86941 0.75351 -0.37400
O 	O 	0.98327 0.86979 0.99467 -0.36900
C 	C 	0.10736 0.86706 0.82940 0.29300
H 	H 	0.98679 0.86768 0.85874 0.17400
C 	C 	0.16922 0.87204 0.76434 0.02800
C 	C 	0.65608 0.87259 0.73026 -0.07800
C 	C 	0.81457 0.87037 0.75893 -0.05600
C 	C 	0.61225 0.87681 0.71640 0.29300
O 	O 	0.04846 0.87583 0.95848 -0.35600
C 	C 	0.36277 0.87673 0.85726 0.04700
H 	H 	0.22805 0.87474 0.72127 0.05800
C 	C 	0.71463 0.87596 0.79576 -0.05800
C 	C 	0.14457 0.88070 0.81066 -0.08800
C 	C 	0.67339 0.88131 0.78244 0.02900
C 	C 	0.88825 0.88119 0.76254 0.07300
H 	H 	0.72780 0.88236 0.83621 0.05700
Cu	Cu	0.45639 0.88367 0.66334 0.93100
C 	C 	0.01342 0.88473 0.97883 0.28800
C 	C 	0.20850 0.88208 0.75529 -0.05900
H 	H 	0.28143 0.88215 0.86494 0.05700
H 	H 	0.80904 0.88672 0.73298 0.05700
Cu	Cu	0.55028 0.89245 0.62988 0.89700
O 	O 	0.51559 0.89283 0.69598 -0.63700
O 	O 	0.40115 0.89232 0.69487 -0.35700
O 	O 	0.60303 0.89207 0.67382 -0.38400
C 	C 	0.29478 0.89268 0.82968 -0.05900
C 	C 	0.33736 0.89162 0.81956 0.02800
O 	O 	0.42662 0.89423 0.78592 -0.42100
C 	C 	0.64937 0.89618 0.82190 0.07900
N 	N 	0.91515 0.89427 0.75041 -0.11000
C 	C 	0.39617 0.89786 0.74960 0.29500
C 	C 	0.22403 0.90025 0.79253 0.02400
C 	C 	0.15868 0.90057 0.84434 0.01700
C 	C 	0.35442 0.90404 0.77125 -0.08800
H 	H 	0.51836 0.90748 0.72128 0.16600
H 	H 	0.06585 0.90872 0.04958 0.04800
C 	C 	0.26885 0.90560 0.79180 0.02400
C 	C 	0.01143 0.91087 0.99589 -0.09100
N 	N 	0.92452 0.90932 0.90319 -0.11900
H 	H 	0.13942 0.90778 0.87882 0.04500
N 	N 	0.63013 0.90810 0.85351 -0.11000
O 	O 	0.51433 0.91340 0.58018 -0.37600
O 	O 	0.45081 0.91432 0.62321 -0.35100
C 	C 	0.19830 0.91030 0.83564 -0.04100
C 	C 	0.94915 0.91690 0.93483 0.05600
C 	C 	0.04157 0.92059 0.03305 0.02800
C 	C 	0.32895 0.91938 0.73768 0.01800
C 	C 	0.28626 0.92012 0.74755 -0.04000
N 	N 	0.45846 0.92528 0.44604 -0.10000
C 	C 	0.48230 0.92587 0.59955 0.29100
C 	C 	0.97991 0.92633 0.97437 0.03300
C 	C 	0.21267 0.93025 0.87183 0.09600
H 	H 	0.34209 0.92975 0.70201 0.04900
C 	C 	0.26039 0.93527 0.71113 0.09800
C 	C 	0.46306 0.94014 0.48140 0.08500
C 	C 	0.04020 0.94546 0.04945 -0.04500
C 	C 	0.97876 0.95123 0.99042 -0.06600
N 	N 	0.22421 0.94624 0.90081 -0.10900
N 	N 	0.23962 0.94740 0.68197 -0.10800
C 	C 	0.07104 0.95498 0.08870 0.09900
C 	C 	0.47755 0.95190 0.58313 -0.08000
C 	C 	0.00860 0.96088 0.02808 0.03300
N 	N 	0.09572 0.96262 0.12014 -0.10900
N 	N 	0.93273 0.96208 0.14323 -0.10900
C 	C 	0.46881 0.95870 0.52554 0.03100
H 	H 	0.95452 0.96312 0.97388 0.05800
H 	H 	0.48840 0.96492 0.66994 0.03100
C 	C 	0.48194 0.97018 0.62557 0.01000
C 	C 	0.95304 0.97647 0.11958 0.09300
C 	C 	0.46522 0.98370 0.51093 -0.05900
C 	C 	0.00590 0.98705 0.04598 0.01500
H 	H 	0.45868 0.98896 0.46660 0.05700
C 	C 	0.97842 0.99440 0.09002 -0.03400
C 	C 	0.47867 0.99516 0.61090 -0.03900
H 	H 	0.05157 0.99907 0.98415 0.05100
