data_crystal

_cell_length_a 37.45122
_cell_length_b 41.79782
_cell_length_c 22.30638
_cell_angle_alpha 89.82356
_cell_angle_beta  89.99979
_cell_angle_gamma 89.99991

_symmetry_space_group_name_	'P 1'
_symmetry_space_group_name_H-M	'P 1'

loop_
_symmetry_equiv_pos_as_xyz
  x,y,z

loop_
_atom_site_label
_atom_site_type_symbol
_atom_site_fract_x
_atom_site_fract_y
_atom_site_fract_z
_atom_site_charge
C 	C 	0.48520 0.56063 0.92369 0.10800
N 	N 	0.47178 0.54218 0.96775 -0.18100
C 	C 	0.43607 0.54487 0.96442 0.07800
C 	C 	0.41121 0.52529 0.00079 -0.05300
C 	C 	0.42359 0.49447 0.02636 0.09100
C 	C 	0.37416 0.53635 0.01062 0.05900
C 	C 	0.36775 0.56540 0.04005 -0.04500
C 	C 	0.33280 0.57650 0.04725 -0.02700
C 	C 	0.30399 0.55846 0.02561 0.05600
C 	C 	0.34535 0.51840 0.98868 -0.06700
N 	N 	0.45080 0.47761 0.00272 -0.12100
C 	C 	0.40629 0.47725 0.07070 -0.05600
C 	C 	0.45130 0.44970 0.03290 0.08900
C 	C 	0.47062 0.42139 0.01030 -0.05200
C 	C 	0.45271 0.38992 0.00840 0.07100
C 	C 	0.40686 0.35529 0.96735 -0.01500
C 	C 	0.46757 0.36374 0.03891 -0.06200
C 	C 	0.45244 0.33337 0.03302 0.00800
C 	C 	0.42226 0.32899 0.99673 0.00600
N 	N 	0.53001 0.44835 0.00243 -0.15000
C 	C 	0.55806 0.44623 0.96492 0.08500
C 	C 	0.55375 0.42105 0.92549 -0.05800
C 	C 	0.52127 0.40715 0.93962 -0.05200
C 	C 	0.58622 0.47083 0.95986 -0.07300
C 	C 	0.62391 0.46072 0.95437 0.04500
C 	C 	0.68005 0.46097 0.89993 -0.03400
C 	C 	0.69583 0.44260 0.94549 0.04400
C 	C 	0.67543 0.43296 0.99507 -0.05100
C 	C 	0.63959 0.44194 0.99945 -0.06500
N 	N 	0.54691 0.51723 0.93818 -0.13000
C 	C 	0.58452 0.55753 0.96049 -0.06400
C 	C 	0.55184 0.54921 0.93632 0.09000
C 	C 	0.52250 0.57206 0.92409 -0.08100
C 	C 	0.52977 0.60670 0.92183 0.04800
C 	C 	0.53554 0.62194 0.86661 -0.05000
C 	C 	0.53963 0.65516 0.86411 -0.03400
C 	C 	0.53822 0.67327 0.91691 0.04100
C 	C 	0.53370 0.65784 0.97234 -0.04600
C 	C 	0.52915 0.62471 0.97472 -0.06700
C 	C 	0.45782 0.57495 0.89140 -0.06500
C 	C 	0.42630 0.56437 0.91703 -0.05300
C 	C 	0.31039 0.52934 0.99639 -0.05200
C 	C 	0.42397 0.44841 0.07473 -0.05500
C 	C 	0.50753 0.42459 0.98703 0.06200
C 	C 	0.60080 0.52934 0.97690 -0.06100
C 	C 	0.57691 0.50520 0.96291 0.08400
C 	C 	0.64415 0.46990 0.90422 -0.04800
H 	H 	0.48577 0.53533 0.00627 0.11300
H 	H 	0.52378 0.46800 0.02932 0.10000
H 	H 	0.54337 0.66688 0.82117 0.05100
H 	H 	0.53302 0.67163 0.01339 0.07600
H 	H 	0.53612 0.60813 0.82559 0.04900
H 	H 	0.52480 0.61304 0.01754 0.07000
H 	H 	0.32810 0.59913 0.06945 0.06300
H 	H 	0.35008 0.49608 0.96542 0.04800
H 	H 	0.28830 0.51535 0.97928 0.05000
H 	H 	0.38985 0.57948 0.05690 0.05700
H 	H 	0.46449 0.31315 0.05579 0.05100
H 	H 	0.49118 0.36684 0.06635 0.05900
C 	C 	0.42201 0.38569 0.97322 -0.08300
H 	H 	0.38357 0.35207 0.93922 0.04600
H 	H 	0.69566 0.46853 0.86152 0.05200
H 	H 	0.63215 0.48414 0.86891 0.05000
H 	H 	0.62414 0.43467 0.03822 0.07000
H 	H 	0.68747 0.41882 0.03048 0.07500
H 	H 	0.46042 0.59649 0.86471 0.05900
H 	H 	0.40043 0.57550 0.91125 0.04900
H 	H 	0.37933 0.48152 0.08620 0.06200
H 	H 	0.41254 0.42667 0.09296 0.06100
H 	H 	0.56701 0.41900 0.88255 0.05600
H 	H 	0.50560 0.39270 0.90920 0.04800
H 	H 	0.59775 0.58039 0.95521 0.05000
H 	H 	0.62919 0.52634 0.98411 0.04800
H 	H 	0.41039 0.40579 0.94945 0.05400
Co	Co	0.36936 0.13820 0.93936 1.17900
Co	Co	0.39168 0.06688 0.91985 1.09600
O 	O 	0.35516 0.18371 0.96082 -0.37100
O 	O 	0.41171 0.17750 0.96189 -0.31200
O 	O 	0.32474 0.11486 0.92264 -0.41700
O 	O 	0.37558 0.08687 0.84365 -0.45800
C 	C 	0.31781 0.08706 0.94802 0.34600
C 	C 	0.38558 0.19694 0.97074 0.32800
O 	O 	0.34387 0.06773 0.96402 -0.43600
O 	O 	0.38908 0.13923 0.85920 -0.41500
C 	C 	0.38894 0.11399 0.82430 0.30500
O 	O 	0.37887 0.12072 0.01761 -0.42700
O 	O 	0.42217 0.08920 0.97903 -0.50300
C 	C 	0.40756 0.10336 0.02537 0.34200
C 	C 	0.51232 0.04425 0.48975 0.01200
C 	C 	0.52544 0.01229 0.49269 0.00900
C 	C 	0.50734 0.05907 0.43361 -0.05500
C 	C 	0.51809 0.04332 0.38092 0.01200
C 	C 	0.53421 0.99600 0.43987 -0.05200
C 	C 	0.53236 0.01179 0.38441 0.00800
H 	H 	0.54555 0.97218 0.44250 0.05000
H 	H 	0.49808 0.08360 0.43132 0.05200
C 	C 	0.54868 0.99866 0.33318 -0.01000
C 	C 	0.54960 0.01501 0.27843 0.00500
C 	C 	0.55700 0.99470 0.22899 -0.05100
C 	C 	0.56078 0.96258 0.24580 -0.00000
S 	S 	0.55428 0.95974 0.31963 -0.00900
H 	H 	0.55896 0.00289 0.18311 0.04400
C 	C 	0.51946 0.05971 0.32540 -0.01400
C 	C 	0.53391 0.04535 0.27392 0.00800
C 	C 	0.52087 0.05886 0.21956 -0.05600
C 	C 	0.49670 0.08382 0.22904 -0.00300
S 	S 	0.49022 0.08743 0.30286 -0.00600
H 	H 	0.52448 0.04786 0.17617 0.04100
C 	C 	0.51691 0.04792 0.59947 0.00800
C 	C 	0.50911 0.06173 0.54363 -0.01400
S 	S 	0.48165 0.09265 0.55521 -0.00800
C 	C 	0.48151 0.09121 0.63020 -0.00300
C 	C 	0.50144 0.06465 0.64831 -0.05500
C 	C 	0.53378 0.99900 0.54917 -0.01100
C 	C 	0.52846 0.01610 0.60229 0.00500
C 	C 	0.52451 0.99608 0.65343 -0.05300
C 	C 	0.52504 0.96350 0.63941 -0.00400
S 	S 	0.53212 0.96008 0.56588 -0.00800
H 	H 	0.52393 0.00488 0.69897 0.03800
H 	H 	0.50118 0.05572 0.69389 0.03800
Co	Co	0.59784 0.86435 0.94090 1.18200
Co	Co	0.51445 0.87168 0.94475 1.09000
O 	O 	0.65131 0.85741 0.93261 -0.34300
O 	O 	0.63774 0.90678 0.92646 -0.32200
O 	O 	0.57743 0.82174 0.95706 -0.40600
O 	O 	0.53358 0.86126 0.02565 -0.44700
C 	C 	0.55118 0.81021 0.92448 0.33800
C 	C 	0.66315 0.88604 0.92519 0.30400
O 	O 	0.52620 0.82933 0.90358 -0.43500
O 	O 	0.58861 0.88414 0.01744 -0.41600
C 	C 	0.56004 0.87754 0.04922 0.31000
O 	O 	0.58293 0.86931 0.85884 -0.42800
O 	O 	0.53862 0.90209 0.88981 -0.48600
C 	C 	0.55912 0.89130 0.84665 0.31600
Co	Co	0.09579 0.62206 0.00794 1.19200
Co	Co	0.01345 0.61205 0.98651 1.09500
O 	O 	0.14795 0.62997 0.02842 -0.34300
O 	O 	0.13353 0.58130 0.04201 -0.31300
O 	O 	0.07705 0.66327 0.97791 -0.40600
O 	O 	0.03956 0.61705 0.90949 -0.44600
C 	C 	0.04711 0.67559 0.99851 0.28300
C 	C 	0.15881 0.60211 0.04513 0.31500
O 	O 	0.02188 0.65690 0.01990 -0.38200
O 	O 	0.09471 0.59815 0.93407 -0.42300
C 	C 	0.06761 0.59949 0.89693 0.30500
O 	O 	0.07378 0.62196 0.08590 -0.42700
O 	O 	0.03271 0.58619 0.05361 -0.47500
C 	C 	0.04953 0.60030 0.09783 0.31500
C 	C 	0.03461 0.49646 0.54427 0.01000
C 	C 	0.01740 0.46625 0.54633 0.00700
C 	C 	0.02394 0.51943 0.50172 -0.05700
C 	C 	0.99608 0.51267 0.46157 0.01200
C 	C 	0.99011 0.45916 0.50515 -0.05300
C 	C 	0.97920 0.48223 0.46301 0.00900
H 	H 	0.97724 0.43595 0.50629 0.05100
H 	H 	0.03710 0.54249 0.50016 0.05200
C 	C 	0.95072 0.47624 0.42317 -0.01300
C 	C 	0.94045 0.49874 0.37970 0.00700
C 	C 	0.92162 0.48485 0.33080 -0.05300
C 	C 	0.91799 0.45164 0.33578 -0.00100
S 	S 	0.93872 0.44017 0.39848 -0.01100
H 	H 	0.91450 0.49778 0.29047 0.04400
C 	C 	0.98396 0.53587 0.42012 -0.01300
C 	C 	0.95775 0.52854 0.37729 0.00800
C 	C 	0.96008 0.54788 0.32466 -0.05500
C 	C 	0.98805 0.57008 0.32650 0.00100
S 	S 	0.00942 0.56484 0.39143 -0.01000
H 	H 	0.94542 0.54301 0.28395 0.04200
C 	C 	0.07138 0.48114 0.63088 0.00700
C 	C 	0.06198 0.50311 0.58576 -0.01400
S 	S 	0.07073 0.53957 0.61190 -0.00900
C 	C 	0.08806 0.52962 0.67805 -0.00200
C 	C 	0.08729 0.49615 0.68170 -0.05600
C 	C 	0.02755 0.44393 0.59074 -0.01400
C 	C 	0.05375 0.45136 0.63387 0.00600
C 	C 	0.04925 0.43385 0.68851 -0.05300
C 	C 	0.01850 0.41488 0.68938 -0.00300
S 	S 	0.99906 0.41842 0.62268 -0.00200
H 	H 	0.06435 0.43860 0.72879 0.04200
H 	H 	0.09363 0.48361 0.72277 0.04200
Co	Co	0.89917 0.36339 0.99533 1.17600
Co	Co	0.91166 0.43838 0.99351 1.10100
O 	O 	0.89247 0.31540 0.98582 -0.34700
O 	O 	0.94693 0.32737 0.00245 -0.29900
O 	O 	0.85086 0.38215 0.99030 -0.40900
O 	O 	0.88920 0.42383 0.06935 -0.42700
C 	C 	0.84407 0.40801 0.95837 0.33400
C 	C 	0.92455 0.30479 0.99114 0.27200
O 	O 	0.87029 0.42607 0.93852 -0.41700
O 	O 	0.90876 0.37245 0.07889 -0.41500
C 	C 	0.90326 0.40091 0.10192 0.30400
O 	O 	0.91624 0.37485 0.91659 -0.42600
O 	O 	0.95085 0.41369 0.95621 -0.48800
C 	C 	0.94373 0.39408 0.91207 0.31700
C 	C 	0.97715 0.92280 0.08976 0.10000
N 	N 	0.96392 0.95030 0.06731 -0.17200
C 	C 	0.92841 0.94952 0.07668 0.11000
C 	C 	0.90320 0.97016 0.04302 -0.08600
C 	C 	0.91047 0.00474 0.03702 0.11600
C 	C 	0.86886 0.95708 0.02130 0.08100
C 	C 	0.86844 0.93147 0.98076 -0.08700
C 	C 	0.83592 0.91862 0.96158 -0.01300
C 	C 	0.80365 0.93152 0.98236 0.01200
C 	C 	0.83655 0.97008 0.04170 -0.06600
N 	N 	0.93272 0.02065 0.07385 -0.13300
C 	C 	0.90243 0.02266 0.98663 -0.08300
C 	C 	0.93816 0.04924 0.04729 0.11100
C 	C 	0.96726 0.07105 0.06510 -0.07400
C 	C 	0.96302 0.10587 0.05565 0.04200
C 	C 	0.92955 0.15481 0.07173 -0.02300
C 	C 	0.98686 0.12256 0.01844 -0.02800
C 	C 	0.98198 0.15527 0.00780 -0.00500
C 	C 	0.95326 0.17146 0.03431 0.02800
N 	N 	0.01500 0.03070 0.08078 -0.17300
C 	C 	0.04788 0.03116 0.10519 0.10000
C 	C 	0.05301 0.05918 0.13712 -0.05500
C 	C 	0.02174 0.07650 0.13178 -0.06200
C 	C 	0.07736 0.01111 0.08219 -0.05800
C 	C 	0.11178 0.02593 0.06531 0.01200
C 	C 	0.17622 0.02857 0.07516 -0.05000
C 	C 	0.17779 0.05007 0.02686 0.07500
C 	C 	0.14619 0.06007 0.99875 -0.10100
C 	C 	0.11326 0.04811 0.01804 0.02800
N 	N 	0.04393 0.96057 0.09891 -0.12300
C 	C 	0.07225 0.92886 0.03271 -0.03500
C 	C 	0.04411 0.93159 0.07255 0.08300
C 	C 	0.01266 0.91022 0.07259 -0.05800
C 	C 	0.01729 0.87588 0.05950 0.01100
C 	C 	0.02559 0.85442 0.10586 -0.02300
C 	C 	0.03079 0.82201 0.09331 -0.04900
C 	C 	0.02875 0.81100 0.03401 0.08100
C 	C 	0.02025 0.83249 0.98767 -0.11000
C 	C 	0.01427 0.86477 0.00048 0.03000
C 	C 	0.94996 0.90427 0.11379 -0.05700
C 	C 	0.91880 0.92140 0.10552 -0.06300
C 	C 	0.80409 0.95738 0.02224 0.00300
C 	C 	0.92024 0.05126 0.99320 -0.07900
C 	C 	0.99903 0.05827 0.09673 0.10900
C 	C 	0.09049 0.95741 0.03530 -0.03800
C 	C 	0.07260 0.97609 0.07666 0.08100
C 	C 	0.14333 0.01658 0.09438 -0.02500
H 	H 	0.97629 0.96378 0.03366 0.09800
H 	H 	0.00818 0.01745 0.04280 0.09700
H 	H 	0.03666 0.80550 0.12953 0.06400
H 	H 	0.01832 0.82417 0.94184 0.06600
H 	H 	0.02782 0.86283 0.15160 0.04700
H 	H 	0.00775 0.88123 0.96448 0.01400
H 	H 	0.83578 0.89859 0.93086 0.04900
H 	H 	0.83661 0.98980 0.07311 0.05900
H 	H 	0.77926 0.96741 0.03856 0.04900
H 	H 	0.89327 0.92139 0.96454 0.05300
H 	H 	0.00039 0.16798 0.97880 0.03300
H 	H 	0.00895 0.11015 0.99747 0.02900
C 	C 	0.93443 0.12215 0.08241 -0.04500
H 	H 	0.90731 0.16717 0.09234 0.05700
H 	H 	0.20053 0.02082 0.09718 0.05600
H 	H 	0.14238 0.99964 0.13121 0.04700
H 	H 	0.08900 0.05553 0.99548 0.01500
H 	H 	0.14720 0.07673 0.96148 0.06800
H 	H 	0.95110 0.87860 0.12000 0.05300
H 	H 	0.89238 0.91090 0.10477 0.05600
H 	H 	0.89397 0.01281 0.94410 0.05700
H 	H 	0.92776 0.06683 0.95643 0.05200
H 	H 	0.07880 0.06958 0.14711 0.06100
H 	H 	0.01988 0.10215 0.13753 0.06400
H 	H 	0.07281 0.91283 0.99471 0.03400
H 	H 	0.10719 0.96663 0.99959 0.03200
H 	H 	0.91594 0.10946 0.11129 0.05400
C 	C 	0.93282 0.27073 0.00086 -0.05700
C 	C 	0.92005 0.24728 0.96098 0.17200
C 	C 	0.92730 0.21494 0.97184 -0.11600
C 	C 	0.94750 0.20572 0.02190 0.01500
C 	C 	0.96105 0.22917 0.06090 0.14000
C 	C 	0.95372 0.26152 0.05022 -0.04100
H 	H 	0.91716 0.19693 0.94139 0.08300
H 	H 	0.96389 0.27947 0.08076 0.08100
Cl	Cl	0.89623 0.25815 0.89592 -0.31900
Cl	Cl	0.98713 0.21832 0.12344 -0.31400
C 	C 	0.96163 0.39855 0.85382 -0.11800
C 	C 	0.98156 0.37365 0.82672 0.09200
C 	C 	0.99867 0.37932 0.77167 -0.08800
C 	C 	0.99772 0.40962 0.74478 0.01900
C 	C 	0.97842 0.43481 0.77272 -0.00400
C 	C 	0.95995 0.42866 0.82622 0.00300
H 	H 	0.01383 0.36028 0.75071 0.05700
H 	H 	0.94454 0.44762 0.84695 0.01200
C 	C 	0.98719 0.34169 0.85779 -0.13200
C 	C 	0.97655 0.46821 0.74583 -0.08900
C 	C 	0.02384 0.33956 0.88861 -0.00700
H 	H 	0.04543 0.34377 0.85531 0.03000
H 	H 	0.02728 0.31491 0.90652 0.03500
C 	C 	0.94275 0.47262 0.70781 -0.02600
H 	H 	0.91898 0.47306 0.73765 0.03400
H 	H 	0.93951 0.45238 0.67615 0.04000
H 	H 	0.96581 0.33601 0.89032 0.08100
H 	H 	0.00052 0.47415 0.71912 0.04900
C 	C 	0.02798 0.36317 0.94037 -0.16400
C 	C 	0.94413 0.50377 0.67192 -0.15800
H 	H 	0.00613 0.36004 0.97348 0.06900
H 	H 	0.05380 0.35880 0.96342 0.06000
H 	H 	0.02793 0.38819 0.92350 0.06400
H 	H 	0.98570 0.32240 0.82366 0.06900
H 	H 	0.94707 0.52454 0.70248 0.05900
H 	H 	0.91904 0.50662 0.64595 0.06200
H 	H 	0.96692 0.50338 0.64000 0.06500
H 	H 	0.97619 0.48611 0.78265 0.03900
C 	C 	0.91491 0.43099 0.28276 0.01200
C 	C 	0.88101 0.42155 0.26118 0.00700
C 	C 	0.87802 0.40905 0.20308 0.00000
C 	C 	0.90820 0.40595 0.16650 -0.10400
C 	C 	0.94246 0.41237 0.19021 0.08000
C 	C 	0.94548 0.42499 0.24822 -0.08500
H 	H 	0.85191 0.40290 0.18548 0.04800
H 	H 	0.97152 0.43181 0.26523 0.05500
C 	C 	0.84782 0.42405 0.29996 -0.09500
C 	C 	0.97581 0.40781 0.15270 -0.14000
C 	C 	0.83793 0.39177 0.32861 -0.02100
H 	H 	0.83629 0.37290 0.29368 0.04000
H 	H 	0.81106 0.39395 0.34933 0.03500
C 	C 	0.98412 0.43791 0.11558 0.00900
H 	H 	0.99023 0.45818 0.14609 0.01900
H 	H 	0.96067 0.44465 0.08778 -0.02300
H 	H 	0.85030 0.44257 0.33528 0.05400
H 	H 	0.97278 0.38674 0.12286 0.06900
C 	C 	0.86437 0.38143 0.37712 -0.15900
C 	C 	0.01595 0.43255 0.07405 -0.18200
H 	H 	0.86663 0.40014 0.41217 0.06600
H 	H 	0.85480 0.35901 0.39857 0.06700
H 	H 	0.89108 0.37678 0.35740 0.07100
H 	H 	0.82509 0.43195 0.27144 0.05400
H 	H 	0.04043 0.42760 0.10065 0.06800
H 	H 	0.02045 0.45431 0.04641 0.05600
H 	H 	0.01073 0.41215 0.04348 0.06900
H 	H 	0.99891 0.40244 0.18245 0.06300
C 	C 	0.04310 0.71066 0.00228 -0.05900
C 	C 	0.01016 0.72553 0.98918 0.17200
C 	C 	0.00580 0.75830 0.99951 -0.11200
C 	C 	0.03438 0.77676 0.02069 -0.00300
C 	C 	0.06796 0.76234 0.02986 0.14500
C 	C 	0.07204 0.72938 0.02139 -0.04000
H 	H 	0.98017 0.76945 0.99089 0.08000
H 	H 	0.09765 0.71827 0.03039 0.08500
Cl	Cl	0.97481 0.70390 0.95644 -0.36100
Cl	Cl	0.10537 0.78541 0.05038 -0.31300
C 	C 	0.08170 0.54949 0.73143 0.00900
C 	C 	0.10581 0.57391 0.74824 0.01100
C 	C 	0.09954 0.59122 0.80107 -0.00300
C 	C 	0.07044 0.58379 0.83822 -0.09600
C 	C 	0.04654 0.55912 0.82153 0.06300
C 	C 	0.05158 0.54326 0.76697 -0.07800
H 	H 	0.11805 0.60988 0.81427 0.05700
H 	H 	0.03259 0.52516 0.75307 0.04600
C 	C 	0.13925 0.58084 0.71204 -0.09300
C 	C 	0.01580 0.54902 0.86159 -0.10500
C 	C 	0.17272 0.56598 0.74066 -0.02700
H 	H 	0.17530 0.57385 0.78802 0.05800
H 	H 	0.19659 0.57483 0.71609 0.04000
C 	C 	0.98097 0.56530 0.84204 -0.04000
H 	H 	0.97512 0.55936 0.79447 0.03500
H 	H 	0.98372 0.59170 0.84575 0.02900
H 	H 	0.13686 0.57297 0.66471 0.05400
H 	H 	0.02129 0.55411 0.90956 0.00800
C 	C 	0.17264 0.52944 0.73833 -0.15400
C 	C 	0.94955 0.55439 0.88062 -0.14600
H 	H 	0.16905 0.52104 0.69152 0.06500
H 	H 	0.19854 0.52023 0.75537 0.06500
H 	H 	0.15102 0.51957 0.76699 0.06700
H 	H 	0.14312 0.60719 0.70979 0.05500
H 	H 	0.94562 0.52814 0.87643 0.04000
H 	H 	0.92483 0.56664 0.86544 0.05000
H 	H 	0.95431 0.56050 0.92841 0.01100
H 	H 	0.01246 0.52261 0.85867 0.03900
C 	C 	0.03715 0.59553 0.15970 -0.11200
C 	C 	0.05380 0.57308 0.19820 0.08500
C 	C 	0.03789 0.56568 0.25347 -0.08600
C 	C 	0.00636 0.58101 0.27160 0.01100
C 	C 	0.99110 0.60498 0.23480 0.00600
C 	C 	0.00669 0.61199 0.17906 -0.00800
H 	H 	0.04982 0.54756 0.28202 0.05500
H 	H 	0.99480 0.63004 0.15029 0.03300
C 	C 	0.08897 0.55733 0.18185 -0.13000
C 	C 	0.95943 0.62448 0.25598 -0.09500
C 	C 	0.08443 0.52205 0.16417 -0.00700
H 	H 	0.07015 0.50872 0.20010 0.02800
H 	H 	0.11138 0.51118 0.15957 0.03700
C 	C 	0.97148 0.65101 0.29885 -0.02300
H 	H 	0.99065 0.66711 0.27553 0.04000
H 	H 	0.98514 0.64037 0.33841 0.03800
H 	H 	0.10334 0.57047 0.14600 0.07500
H 	H 	0.93938 0.60888 0.27826 0.05100
C 	C 	0.06455 0.51788 0.10494 -0.16400
C 	C 	0.93984 0.67082 0.32073 -0.16000
H 	H 	0.07773 0.53185 0.06873 0.07600
H 	H 	0.06487 0.49225 0.09217 0.06000
H 	H 	0.03632 0.52559 0.10954 0.06600
H 	H 	0.10689 0.55833 0.22154 0.06300
H 	H 	0.92607 0.68239 0.28225 0.06600
H 	H 	0.94948 0.68978 0.35151 0.06500
H 	H 	0.92059 0.65541 0.34537 0.06400
H 	H 	0.94557 0.63548 0.21689 0.05000
C 	C 	0.70043 0.89487 0.93748 -0.09100
C 	C 	0.71720 0.88570 0.99152 0.15100
C 	C 	0.75165 0.89661 0.00436 -0.03900
C 	C 	0.76936 0.91716 0.96449 -0.03900
C 	C 	0.75288 0.92593 0.91016 0.14800
C 	C 	0.71855 0.91479 0.89694 -0.04500
H 	H 	0.76424 0.88993 0.04634 0.07300
H 	H 	0.70567 0.92211 0.85559 0.06400
Cl	Cl	0.69457 0.86240 0.04548 -0.30800
Cl	Cl	0.77455 0.95163 0.85909 -0.33200
C 	C 	0.53493 0.93864 0.68304 0.01600
C 	C 	0.50848 0.92014 0.71214 0.00100
C 	C 	0.51790 0.90164 0.76229 -0.00000
C 	C 	0.55294 0.90199 0.78445 -0.11500
C 	C 	0.58012 0.91742 0.75093 0.08500
C 	C 	0.57073 0.93572 0.70046 -0.08900
H 	H 	0.49754 0.88808 0.78581 0.01600
H 	H 	0.59122 0.94848 0.67571 0.05600
C 	C 	0.47014 0.91956 0.68993 -0.09500
C 	C 	0.61926 0.91272 0.76555 -0.12600
C 	C 	0.44419 0.93632 0.73307 -0.02200
H 	H 	0.44590 0.92539 0.77846 0.01800
H 	H 	0.41651 0.93258 0.71655 0.02700
C 	C 	0.63341 0.88197 0.73656 -0.00900
H 	H 	0.63044 0.88364 0.68704 0.03500
H 	H 	0.61776 0.86101 0.75250 0.05400
H 	H 	0.46728 0.92997 0.64430 0.05300
H 	H 	0.62368 0.91226 0.81458 0.07300
C 	C 	0.45089 0.97228 0.73776 -0.15500
C 	C 	0.67273 0.87645 0.75139 -0.16700
H 	H 	0.44957 0.98371 0.69280 0.06000
H 	H 	0.43012 0.98318 0.76670 0.04100
H 	H 	0.47731 0.97695 0.75848 0.05400
H 	H 	0.46170 0.89416 0.68569 0.04800
H 	H 	0.68908 0.89728 0.73701 0.07200
H 	H 	0.68241 0.85485 0.72753 0.07500
H 	H 	0.67618 0.87255 0.80026 0.07900
H 	H 	0.63497 0.93345 0.74854 0.05900
C 	C 	0.55597 0.89177 0.10911 -0.11800
C 	C 	0.58459 0.89163 0.15051 0.09800
C 	C 	0.58496 0.91416 0.19701 -0.09000
C 	C 	0.55648 0.93551 0.20430 0.01800
C 	C 	0.52519 0.93171 0.16929 -0.00000
C 	C 	0.52546 0.91006 0.12134 -0.00200
H 	H 	0.60767 0.91533 0.22708 0.05900
H 	H 	0.50247 0.90851 0.09194 0.01200
C 	C 	0.61295 0.86568 0.14932 -0.13600
C 	C 	0.49116 0.94993 0.18317 -0.09600
C 	C 	0.60388 0.83796 0.19205 -0.00200
H 	H 	0.59816 0.84725 0.23771 0.03100
H 	H 	0.62757 0.82203 0.19552 0.03900
C 	C 	0.48414 0.97622 0.13632 -0.02100
H 	H 	0.47616 0.96508 0.09316 0.02000
H 	H 	0.50863 0.99047 0.12800 0.03000
H 	H 	0.61760 0.85609 0.10371 0.09400
H 	H 	0.49172 0.96024 0.22898 0.05400
C 	C 	0.57219 0.81808 0.17026 -0.16900
C 	C 	0.45451 0.99880 0.15647 -0.16000
H 	H 	0.57665 0.80983 0.12354 0.08400
H 	H 	0.56899 0.79676 0.19957 0.07000
H 	H 	0.54715 0.83225 0.17231 0.07400
H 	H 	0.63891 0.87616 0.16343 0.07900
H 	H 	0.42927 0.98532 0.16328 0.05600
H 	H 	0.45014 0.01739 0.12155 0.05500
H 	H 	0.46202 0.01084 0.19897 0.06200
H 	H 	0.46836 0.93288 0.18289 0.04700
C 	C 	0.28085 0.07884 0.96379 -0.15700
C 	C 	0.26556 0.04993 0.94413 0.21700
C 	C 	0.23161 0.04101 0.96420 -0.13500
C 	C 	0.21265 0.06073 0.00372 0.01300
C 	C 	0.22757 0.08997 0.02232 0.12300
C 	C 	0.26149 0.09895 0.00211 0.01000
H 	H 	0.22003 0.01862 0.94938 0.08300
H 	H 	0.27320 0.12119 0.01746 0.06600
Cl	Cl	0.28829 0.02505 0.89320 -0.37800
Cl	Cl	0.20437 0.11518 0.07203 -0.31000
C 	C 	0.40759 0.11528 0.76582 -0.11100
C 	C 	0.39575 0.09720 0.71577 0.08200
C 	C 	0.41913 0.09264 0.66711 -0.08700
C 	C 	0.45366 0.10555 0.66809 0.01200
C 	C 	0.46319 0.12727 0.71366 0.00400
C 	C 	0.43990 0.13218 0.76195 -0.01000
H 	H 	0.41083 0.07831 0.62921 0.05400
H 	H 	0.44781 0.14790 0.79819 0.05400
C 	C 	0.35714 0.08631 0.71003 -0.12700
C 	C 	0.49780 0.14599 0.71027 -0.09300
C 	C 	0.35325 0.04992 0.70146 -0.00500
H 	H 	0.36832 0.04188 0.66138 0.02600
H 	H 	0.32465 0.04444 0.69302 0.03600
C 	C 	0.49458 0.17366 0.66526 -0.02300
H 	H 	0.47265 0.18996 0.67923 0.04700
H 	H 	0.48814 0.16418 0.62001 0.03900
H 	H 	0.34027 0.09408 0.74820 0.08100
H 	H 	0.52025 0.13003 0.69746 0.05000
C 	C 	0.36540 0.03056 0.75592 -0.16200
C 	C 	0.52923 0.19279 0.66128 -0.16000
H 	H 	0.34817 0.03588 0.79510 0.07500
H 	H 	0.36312 0.00464 0.74588 0.05800
H 	H 	0.39370 0.03587 0.76699 0.04500
H 	H 	0.34556 0.09831 0.66996 0.06200
H 	H 	0.53598 0.20322 0.70561 0.06800
H 	H 	0.52598 0.21258 0.62842 0.06700
H 	H 	0.55149 0.17719 0.64618 0.06400
H 	H 	0.50471 0.15580 0.75512 0.05200
C 	C 	0.47117 0.09489 0.18309 0.01500
C 	C 	0.48274 0.11453 0.13511 0.00400
C 	C 	0.46078 0.11833 0.08465 0.00300
C 	C 	0.42682 0.10435 0.08285 -0.11700
C 	C 	0.41326 0.08871 0.13441 0.08600
C 	C 	0.43608 0.08304 0.18335 -0.08900
H 	H 	0.47039 0.13183 0.04630 0.04600
H 	H 	0.42679 0.06878 0.22092 0.05300
C 	C 	0.51832 0.13178 0.13724 -0.09600
C 	C 	0.37454 0.07830 0.13806 -0.13800
C 	C 	0.54642 0.11463 0.09890 -0.02000
H 	H 	0.53766 0.11423 0.05128 0.03600
H 	H 	0.54965 0.08952 0.11430 0.03300
C 	C 	0.36916 0.04475 0.11185 0.00500
H 	H 	0.38322 0.02696 0.14038 0.01900
H 	H 	0.38045 0.04344 0.06586 0.01600
H 	H 	0.51466 0.15656 0.11994 0.05700
H 	H 	0.35710 0.09586 0.11477 0.08100
C 	C 	0.58259 0.13134 0.10252 -0.16300
C 	C 	0.32963 0.03586 0.10929 -0.17500
H 	H 	0.59254 0.13129 0.14944 0.06700
H 	H 	0.60219 0.11851 0.07400 0.06800
H 	H 	0.58039 0.15642 0.08628 0.07000
H 	H 	0.52807 0.13424 0.18407 0.05600
H 	H 	0.31798 0.03566 0.15509 0.07000
H 	H 	0.32664 0.01164 0.08960 0.07100
H 	H 	0.31471 0.05318 0.08094 0.08600
H 	H 	0.36569 0.07819 0.18568 0.06200
C 	C 	0.40839 0.29653 0.98628 -0.01900
C 	C 	0.38731 0.28107 0.02985 0.15000
C 	C 	0.37832 0.24881 0.02281 -0.00300
C 	C 	0.39037 0.23177 0.97270 -0.13400
C 	C 	0.40952 0.24780 0.92727 0.20500
C 	C 	0.41854 0.28003 0.93438 -0.10300
H 	H 	0.36297 0.23671 0.05728 0.07200
H 	H 	0.43411 0.29208 0.90014 0.08100
Cl	Cl	0.37242 0.30177 0.09382 -0.31000
Cl	Cl	0.42177 0.22797 0.86074 -0.33000
C 	C 	0.19647 0.59263 0.04047 -0.08500
C 	C 	0.21422 0.59329 0.98474 0.18300
C 	C 	0.24954 0.58262 0.98064 -0.11800
C 	C 	0.26718 0.57064 0.03140 0.01000
C 	C 	0.24930 0.56962 0.08694 0.13800
C 	C 	0.21412 0.58069 0.09124 -0.03200
H 	H 	0.26311 0.58318 0.93773 0.08200
H 	H 	0.20034 0.57962 0.13394 0.06800
Cl	Cl	0.19199 0.60586 0.91910 -0.34200
Cl	Cl	0.27028 0.55360 0.15103 -0.31800
C 	C 	0.80683 0.41828 0.94969 -0.11400
C 	C 	0.79513 0.44830 0.97072 0.18500
C 	C 	0.75899 0.45651 0.96684 -0.09700
C 	C 	0.73420 0.43490 0.94303 -0.01500
C 	C 	0.74594 0.40521 0.92086 0.13800
C 	C 	0.78213 0.39702 0.92433 -0.02600
H 	H 	0.75000 0.47937 0.98402 0.07500
H 	H 	0.79098 0.37394 0.90800 0.07500
Cl	Cl	0.82495 0.47504 0.00555 -0.36000
Cl	Cl	0.71548 0.37792 0.88934 -0.32200
C 	C 	0.54078 0.70843 0.91414 -0.01200
C 	C 	0.51068 0.72763 0.92575 0.13300
C 	C 	0.51419 0.76091 0.92779 -0.02700
C 	C 	0.54744 0.77536 0.91737 -0.12000
C 	C 	0.57711 0.75621 0.90230 0.20100
C 	C 	0.57372 0.72288 0.90146 -0.10000
H 	H 	0.49114 0.77552 0.93841 0.05500
H 	H 	0.59675 0.70818 0.89111 0.08100
Cl	Cl	0.46832 0.71030 0.93704 -0.33600
Cl	Cl	0.61815 0.77365 0.88151 -0.33000
