data_crystal

_cell_length_a 22.34122
_cell_length_b 23.22725
_cell_length_c 79.89740
_cell_angle_alpha 90.03400
_cell_angle_beta  90.02035
_cell_angle_gamma 119.61197

_symmetry_space_group_name_	'P 1'
_symmetry_space_group_name_H-M	'P 1'

loop_
_symmetry_equiv_pos_as_xyz
  x,y,z

loop_
_atom_site_label
_atom_site_type_symbol
_atom_site_fract_x
_atom_site_fract_y
_atom_site_fract_z
_atom_site_charge
C 	C 	0.78106 0.40817 0.59136 0.28600
C 	C 	0.62808 0.22319 0.53604 0.31200
C 	C 	0.79910 0.43568 0.54347 0.31000
C 	C 	0.62054 0.19642 0.58196 0.28900
C 	C 	0.58521 0.39150 0.54180 0.31200
C 	C 	0.55934 0.35650 0.58749 0.29100
Ni	Ni	0.73101 0.30898 0.56228 1.11600
Ni	Ni	0.57154 0.27519 0.56085 1.12500
Ni	Ni	0.69032 0.42377 0.56700 1.12600
O 	O 	0.79998 0.38327 0.57868 -0.36500
O 	O 	0.73807 0.43157 0.58906 -0.36800
O 	O 	0.54294 0.33642 0.54975 -0.36800
O 	O 	0.67772 0.22906 0.54597 -0.36400
O 	O 	0.60138 0.26171 0.53803 -0.37500
O 	O 	0.60247 0.40909 0.57848 -0.37100
O 	O 	0.76849 0.37128 0.54179 -0.37100
O 	O 	0.78566 0.46206 0.55648 -0.37000
O 	O 	0.54108 0.29511 0.58271 -0.37300
O 	O 	0.68761 0.23869 0.58095 -0.37100
O 	O 	0.57619 0.19512 0.57049 -0.36300
O 	O 	0.65188 0.41991 0.54418 -0.38000
O 	O 	0.66389 0.33256 0.56741 -0.71700
H 	H 	0.65898 0.32429 0.57956 0.15800
C 	C 	0.39158 0.79710 0.41586 0.28900
C 	C 	0.21467 0.62564 0.46981 0.31100
C 	C 	0.40709 0.82069 0.46221 0.31100
C 	C 	0.20470 0.59542 0.42170 0.28400
C 	C 	0.41302 0.63446 0.47055 0.31200
C 	C 	0.41887 0.60848 0.42580 0.29200
Ni	Ni	0.28532 0.72110 0.44222 1.11600
Ni	Ni	0.29669 0.58858 0.44737 1.12500
Ni	Ni	0.43334 0.72783 0.44259 1.12300
O 	O 	0.32472 0.76175 0.41909 -0.36700
O 	O 	0.43933 0.80016 0.42656 -0.36600
O 	O 	0.34593 0.60948 0.46944 -0.37800
O 	O 	0.25464 0.68857 0.46650 -0.37200
O 	O 	0.21257 0.58062 0.45948 -0.36800
O 	O 	0.44148 0.67308 0.42416 -0.38200
O 	O 	0.35911 0.81299 0.45150 -0.37000
O 	O 	0.42890 0.77767 0.46291 -0.37700
O 	O 	0.36692 0.56977 0.43601 -0.37100
O 	O 	0.19955 0.63796 0.43194 -0.35800
O 	O 	0.23715 0.56320 0.42655 -0.36700
O 	O 	0.45405 0.67250 0.45855 -0.38300
O 	O 	0.33690 0.67781 0.44008 -0.72100
H 	H 	0.33508 0.67086 0.42789 0.16100
C 	C 	0.24062 0.76144 0.66731 0.28800
C 	C 	0.37186 0.60108 0.64726 0.31200
C 	C 	0.17306 0.58108 0.66592 0.31200
C 	C 	0.44374 0.78927 0.64724 0.28800
C 	C 	0.32673 0.59179 0.70022 0.31300
C 	C 	0.41913 0.77882 0.70317 0.29500
Ni	Ni	0.29823 0.67988 0.64952 1.12000
Ni	Ni	0.41532 0.69369 0.67557 1.12300
Ni	Ni	0.27538 0.68013 0.68967 1.12400
O 	O 	0.23341 0.71996 0.65485 -0.35500
O 	O 	0.26455 0.75772 0.68230 -0.36400
O 	O 	0.38936 0.64053 0.69707 -0.37800
O 	O 	0.35323 0.63817 0.63884 -0.35800
O 	O 	0.37845 0.60620 0.66353 -0.38500
O 	O 	0.35280 0.73564 0.70647 -0.36200
O 	O 	0.22638 0.58726 0.65784 -0.37200
O 	O 	0.18214 0.62265 0.67815 -0.36500
O 	O 	0.44989 0.77582 0.68929 -0.38000
O 	O 	0.38033 0.76877 0.64176 -0.35900
O 	O 	0.46098 0.74743 0.65429 -0.36500
O 	O 	0.27236 0.59508 0.69547 -0.38000
O 	O 	0.33607 0.70114 0.67112 -0.71800
H 	H 	0.35629 0.74961 0.67108 0.16600
C 	C 	0.11246 0.15229 0.75493 0.29100
C 	C 	0.87931 0.94075 0.79408 0.30900
C 	C 	0.09276 0.11299 0.79970 0.31000
C 	C 	0.87274 0.97964 0.75025 0.29300
C 	C 	0.05497 0.90898 0.78884 0.30800
C 	C 	0.06146 0.94403 0.74176 0.29600
Ni	Ni	0.97954 0.06366 0.77537 1.11600
Ni	Ni	0.95269 0.91678 0.76647 1.11900
Ni	Ni	0.10651 0.03525 0.77158 1.12500
O 	O 	0.06610 0.14925 0.76599 -0.35600
O 	O 	0.13087 0.10597 0.75400 -0.37000
O 	O 	0.01119 0.88105 0.77641 -0.37100
O 	O 	0.88711 0.99324 0.78604 -0.36700
O 	O 	0.91505 0.91196 0.78987 -0.38300
O 	O 	0.10516 0.96936 0.75457 -0.37700
O 	O 	0.02638 0.07457 0.79832 -0.36400
O 	O 	0.13414 0.11050 0.78841 -0.36700
O 	O 	0.99365 0.91531 0.74411 -0.37700
O 	O 	0.92331 0.04050 0.75338 -0.36500
O 	O 	0.87329 0.92571 0.75599 -0.36900
O 	O 	0.08711 0.97348 0.79090 -0.38300
O 	O 	0.01297 0.00986 0.76722 -0.71600
H 	H 	0.01543 0.02002 0.75518 0.16600
C 	C 	0.44627 0.74914 0.91657 0.28800
C 	C 	0.29058 0.52521 0.86978 0.31100
C 	C 	0.46573 0.73494 0.86922 0.31100
C 	C 	0.27564 0.52807 0.91536 0.29000
C 	C 	0.25630 0.69598 0.86176 0.31300
C 	C 	0.22455 0.70059 0.90767 0.29300
Ni	Ni	0.39106 0.62701 0.89385 1.11700
Ni	Ni	0.23512 0.59775 0.88832 1.12300
Ni	Ni	0.35817 0.74663 0.88851 1.12300
O 	O 	0.46230 0.71195 0.90692 -0.35600
O 	O 	0.40541 0.77168 0.91111 -0.36400
O 	O 	0.21234 0.65175 0.87232 -0.37700
O 	O 	0.33517 0.53623 0.88176 -0.36900
O 	O 	0.26234 0.56278 0.86819 -0.37700
O 	O 	0.27154 0.74498 0.89728 -0.37300
O 	O 	0.43230 0.67053 0.87100 -0.36800
O 	O 	0.45332 0.77260 0.87928 -0.36900
O 	O 	0.20514 0.63644 0.90684 -0.37700
O 	O 	0.34181 0.57403 0.91512 -0.36700
O 	O 	0.23196 0.52398 0.90328 -0.37300
O 	O 	0.32258 0.72669 0.86497 -0.38700
O 	O 	0.32739 0.65717 0.89440 -0.72200
H 	H 	0.32140 0.65924 0.90656 0.16300
C 	C 	0.77153 0.47164 0.08389 0.29200
C 	C 	0.55211 0.28030 0.12992 0.30900
C 	C 	0.76272 0.46114 0.13004 0.31100
C 	C 	0.54119 0.28962 0.08405 0.29200
C 	C 	0.73713 0.25999 0.12846 0.30900
C 	C 	0.72994 0.26282 0.08007 0.28700
Ni	Ni	0.64516 0.39248 0.10703 1.11600
Ni	Ni	0.62652 0.24539 0.10522 1.12300
Ni	Ni	0.77761 0.37125 0.10565 1.12400
O 	O 	0.72696 0.47345 0.09473 -0.36500
O 	O 	0.79341 0.42800 0.08520 -0.37600
O 	O 	0.69190 0.22211 0.11710 -0.37000
O 	O 	0.55585 0.32633 0.11974 -0.36200
O 	O 	0.59382 0.25613 0.12806 -0.37700
O 	O 	0.77674 0.29719 0.09176 -0.37200
O 	O 	0.69642 0.42041 0.12964 -0.37300
O 	O 	0.80305 0.45557 0.11893 -0.36500
O 	O 	0.66299 0.23096 0.08356 -0.37100
O 	O 	0.58609 0.35367 0.08569 -0.36800
O 	O 	0.54275 0.24374 0.09389 -0.36700
O 	O 	0.76620 0.32471 0.12751 -0.38100
O 	O 	0.68211 0.33811 0.10191 -0.72000
H 	H 	0.68137 0.33977 0.08960 0.16100
C 	C 	0.92596 0.85731 0.20453 0.29000
C 	C 	0.13879 0.03970 0.25094 0.31800
C 	C 	0.92594 0.85444 0.25055 0.31200
C 	C 	0.14012 0.06021 0.20577 0.29100
C 	C 	0.94671 0.04695 0.25625 0.31100
C 	C 	0.93294 0.05980 0.20818 0.29200
Ni	Ni	0.04554 0.93669 0.22752 1.11400
Ni	Ni	0.05168 0.07886 0.23050 1.12500
Ni	Ni	0.90656 0.94677 0.22967 1.12400
O 	O 	0.99406 0.88823 0.20592 -0.37200
O 	O 	0.88607 0.86374 0.21602 -0.36600
O 	O 	0.01292 0.07191 0.25356 -0.37200
O 	O 	0.08778 0.97895 0.25032 -0.38000
O 	O 	0.13734 0.08593 0.24171 -0.36500
O 	O 	0.89676 0.99433 0.20980 -0.37900
O 	O 	0.97028 0.85283 0.24002 -0.36700
O 	O 	0.91691 0.90583 0.25097 -0.38400
O 	O 	0.98069 0.09794 0.21939 -0.36600
O 	O 	0.13383 0.00930 0.21493 -0.36300
O 	O 	0.10353 0.09014 0.20887 -0.37100
O 	O 	0.90189 0.01513 0.24431 -0.37200
O 	O 	0.00193 0.98726 0.22502 -0.72200
H 	H 	0.00081 0.98980 0.21272 0.16100
C 	C 	0.53859 0.18729 0.35030 0.28600
C 	C 	0.81760 0.40195 0.34147 0.31100
C 	C 	0.61379 0.37098 0.36063 0.31500
C 	C 	0.74260 0.22529 0.32932 0.28600
C 	C 	0.67460 0.42601 0.30951 0.31300
C 	C 	0.58342 0.23936 0.29702 0.28900
Ni	Ni	0.68586 0.29366 0.35271 1.11900
Ni	Ni	0.72148 0.32923 0.31336 1.12300
Ni	Ni	0.57798 0.30538 0.32791 1.12200
O 	O 	0.60042 0.20119 0.35569 -0.36200
O 	O 	0.52502 0.23519 0.34597 -0.36700
O 	O 	0.72760 0.41813 0.31282 -0.37900
O 	O 	0.76255 0.39034 0.34969 -0.36800
O 	O 	0.81133 0.37306 0.32689 -0.36500
O 	O 	0.54469 0.23707 0.30987 -0.38300
O 	O 	0.62944 0.32719 0.36642 -0.35800
O 	O 	0.61302 0.38051 0.34455 -0.38200
O 	O 	0.64773 0.28945 0.29502 -0.36900
O 	O 	0.74918 0.25616 0.34391 -0.35500
O 	O 	0.72860 0.24623 0.31513 -0.37500
O 	O 	0.61153 0.37532 0.30983 -0.37900
O 	O 	0.65500 0.29282 0.33084 -0.71600
H 	H 	0.63396 0.24539 0.32812 0.15700
C 	C 	0.92158 0.10105 0.99909 0.28700
C 	C 	0.98497 0.90790 0.96491 0.31200
C 	C 	0.81700 0.91706 0.99513 0.31200
C 	C 	0.08808 0.09596 0.96806 0.28700
C 	C 	0.97490 0.89098 0.01924 0.31200
C 	C 	0.09701 0.07637 0.02326 0.29200
Ni	Ni	0.93868 0.00541 0.97478 1.11600
Ni	Ni	0.05916 0.99033 0.99364 1.12000
Ni	Ni	0.94386 0.99818 0.01524 1.12100
O 	O 	0.89775 0.06158 0.98564 -0.36400
O 	O 	0.94990 0.08702 0.01200 -0.37300
O 	O 	0.03796 0.93187 0.01406 -0.37600
O 	O 	0.96891 0.95167 0.95924 -0.36700
O 	O 	0.99837 0.90674 0.98077 -0.38600
O 	O 	0.03304 0.03712 0.02889 -0.36300
O 	O 	0.85582 0.91748 0.98283 -0.37300
O 	O 	0.84429 0.95980 0.00745 -0.37500
O 	O 	0.11696 0.06839 0.00822 -0.38000
O 	O 	0.02546 0.08713 0.96548 -0.35700
O 	O 	0.09782 0.04559 0.97222 -0.36400
O 	O 	0.92539 0.90507 0.01714 -0.38000
O 	O 	0.98959 0.01456 0.99432 -0.71700
H 	H 	0.01842 0.06306 0.99495 0.16300
C 	C 	0.44241 0.09058 0.27893 -0.03700
C 	C 	0.41947 0.12125 0.26735 0.02300
C 	C 	0.46641 0.18421 0.26116 -0.05600
C 	C 	0.53118 0.22106 0.26871 0.02700
C 	C 	0.54776 0.19531 0.28283 -0.07400
C 	C 	0.50774 0.12733 0.28619 0.01300
C 	C 	0.34491 0.09442 0.26433 0.02800
C 	C 	0.30973 0.12040 0.27337 -0.05800
C 	C 	0.24052 0.09958 0.26988 0.03600
C 	C 	0.20568 0.05163 0.25739 -0.08400
C 	C 	0.23967 0.02263 0.24911 0.02800
C 	C 	0.30936 0.04462 0.25229 -0.04300
C 	C 	0.20580 0.12811 0.27906 0.08100
C 	C 	0.34447 0.01724 0.24282 0.10300
C 	C 	0.39756 0.02323 0.28427 0.10100
C 	C 	0.57818 0.28680 0.26268 0.08600
N 	N 	0.17794 0.15094 0.28641 -0.10000
N 	N 	0.37263 0.99532 0.23523 -0.11300
N 	N 	0.61587 0.33944 0.25781 -0.10600
N 	N 	0.36159 0.96927 0.28855 -0.11000
H 	H 	0.52315 0.10558 0.29615 0.03800
H 	H 	0.45065 0.20626 0.25137 0.05900
H 	H 	0.33676 0.15785 0.28286 0.05900
H 	H 	0.21282 0.98543 0.23954 0.02800
C 	C 	0.71041 0.55710 0.27779 -0.03700
C 	C 	0.75264 0.61450 0.28722 0.02300
C 	C 	0.75590 0.60997 0.30465 -0.05500
C 	C 	0.72354 0.54800 0.31249 0.03000
C 	C 	0.68736 0.48997 0.30282 -0.07900
C 	C 	0.67730 0.49521 0.28569 0.01400
C 	C 	0.79838 0.67819 0.27881 0.02600
C 	C 	0.77152 0.71819 0.27344 -0.05600
C 	C 	0.81251 0.77627 0.26440 0.03400
C 	C 	0.88239 0.79580 0.26106 -0.07900
C 	C 	0.90967 0.75663 0.26697 0.01900
C 	C 	0.86801 0.69784 0.27569 -0.03900
C 	C 	0.78121 0.81305 0.25778 0.07500
C 	C 	0.89676 0.65732 0.28115 0.09700
C 	C 	0.70321 0.56098 0.25992 0.09900
C 	C 	0.72928 0.54412 0.33042 0.08600
N 	N 	0.75606 0.84243 0.25249 -0.11400
N 	N 	0.91971 0.62480 0.28554 -0.10900
N 	N 	0.73392 0.54103 0.34477 -0.09800
N 	N 	0.69744 0.56406 0.24561 -0.10600
H 	H 	0.64759 0.45075 0.27832 0.05200
H 	H 	0.78623 0.65442 0.31200 0.05900
H 	H 	0.71795 0.70300 0.27587 0.06100
H 	H 	0.96319 0.77151 0.26460 0.04600
C 	C 	0.85955 0.03324 0.29763 -0.03400
C 	C 	0.86506 0.09630 0.29881 0.02400
C 	C 	0.90381 0.14499 0.28690 -0.05600
C 	C 	0.93387 0.13033 0.27339 0.03400
C 	C 	0.92366 0.06576 0.27148 -0.07500
C 	C 	0.88756 0.01783 0.28377 0.01900
C 	C 	0.82700 0.11100 0.31179 0.02500
C 	C 	0.86436 0.16024 0.32372 -0.05700
C 	C 	0.83423 0.19338 0.33171 0.02600
C 	C 	0.76541 0.17578 0.32802 -0.07200
C 	C 	0.72491 0.11832 0.31863 0.01300
C 	C 	0.75564 0.08697 0.31008 -0.03700
C 	C 	0.87560 0.24796 0.34279 0.08900
C 	C 	0.71474 0.03362 0.29863 0.10200
C 	C 	0.82550 0.98432 0.31056 0.09600
C 	C 	0.97432 0.18158 0.26142 0.08300
N 	N 	0.90900 0.29165 0.35166 -0.10100
N 	N 	0.68199 0.99088 0.28946 -0.10800
N 	N 	0.00672 0.22261 0.25182 -0.10300
N 	N 	0.79817 0.94513 0.32093 -0.10700
H 	H 	0.88094 0.96850 0.28249 0.04600
H 	H 	0.90929 0.19395 0.28797 0.05900
H 	H 	0.91846 0.17652 0.32570 0.06000
H 	H 	0.67090 0.10230 0.31653 0.04100
C 	C 	0.94465 0.72067 0.02952 -0.03700
C 	C 	0.91017 0.70902 0.04498 0.02600
C 	C 	0.90469 0.76013 0.05283 -0.05700
C 	C 	0.92969 0.82149 0.04498 0.03400
C 	C 	0.96094 0.83220 0.02907 -0.07700
C 	C 	0.97031 0.78242 0.02169 0.02000
C 	C 	0.87793 0.64304 0.05294 0.02400
C 	C 	0.91348 0.63100 0.06566 -0.05700
C 	C 	0.87956 0.57448 0.07568 0.02900
C 	C 	0.80944 0.52862 0.07273 -0.07400
C 	C 	0.77475 0.53909 0.05950 0.01100
C 	C 	0.80866 0.59596 0.04957 -0.03600
C 	C 	0.91610 0.56558 0.08946 0.08200
C 	C 	0.77174 0.60642 0.03615 0.09900
C 	C 	0.95242 0.66913 0.02144 0.09900
C 	C 	0.92274 0.87319 0.05328 0.08100
N 	N 	0.94540 0.55853 0.10051 -0.10400
N 	N 	0.74226 0.61489 0.02539 -0.10300
N 	N 	0.91717 0.91458 0.05993 -0.10900
N 	N 	0.95860 0.62778 0.01496 -0.10800
H 	H 	0.99501 0.79082 0.00956 0.04600
H 	H 	0.87953 0.75153 0.06491 0.06100
H 	H 	0.96682 0.66716 0.06822 0.05900
H 	H 	0.72110 0.50348 0.05711 0.04200
C 	C 	0.39802 0.20312 0.05266 -0.03700
C 	C 	0.34980 0.22116 0.05839 0.02400
C 	C 	0.36716 0.26619 0.07162 -0.05500
C 	C 	0.43085 0.29115 0.07967 0.02900
C 	C 	0.47794 0.27072 0.07444 -0.07200
C 	C 	0.46157 0.22758 0.06079 0.01200
C 	C 	0.27896 0.18866 0.05157 0.02200
C 	C 	0.23178 0.12422 0.05671 -0.05300
C 	C 	0.16849 0.08828 0.04851 0.02400
C 	C 	0.15119 0.11781 0.03529 -0.06900
C 	C 	0.19566 0.18458 0.03134 0.01200
C 	C 	0.25973 0.21994 0.03928 -0.03600
C 	C 	0.12409 0.01965 0.05290 0.09900
C 	C 	0.30645 0.28736 0.03430 0.09600
C 	C 	0.38235 0.15913 0.03852 0.09700
C 	C 	0.44654 0.33607 0.09360 0.08200
N 	N 	0.08886 0.96465 0.05644 -0.10600
N 	N 	0.34391 0.34137 0.03031 -0.10700
N 	N 	0.45890 0.37207 0.10475 -0.10600
N 	N 	0.36972 0.12388 0.02720 -0.10700
H 	H 	0.49789 0.21231 0.05667 0.04400
H 	H 	0.33029 0.28049 0.07593 0.06000
H 	H 	0.24591 0.10088 0.06652 0.06000
H 	H 	0.18215 0.20771 0.02134 0.04600
C 	C 	0.79964 0.16196 0.00826 -0.03800
C 	C 	0.83859 0.21036 0.02036 0.02300
C 	C 	0.91023 0.23707 0.02078 -0.05300
C 	C 	0.94110 0.20791 0.01138 0.02100
C 	C 	0.89962 0.15070 0.00180 -0.07200
C 	C 	0.83056 0.13270 0.99889 0.01200
C 	C 	0.80411 0.22201 0.03474 0.02400
C 	C 	0.77315 0.17271 0.04701 -0.05500
C 	C 	0.74774 0.18515 0.06176 0.02900
C 	C 	0.75311 0.24757 0.06432 -0.07200
C 	C 	0.78246 0.29637 0.05189 0.00800
C 	C 	0.80768 0.28381 0.03708 -0.03700
C 	C 	0.71817 0.13431 0.07444 0.08700
C 	C 	0.83692 0.33438 0.02435 0.09500
C 	C 	0.72732 0.13976 0.00604 0.09700
C 	C 	0.01468 0.23452 0.01235 0.08800
N 	N 	0.69451 0.09363 0.08460 -0.10000
N 	N 	0.86036 0.37489 0.01414 -0.10700
N 	N 	0.07361 0.25577 0.01318 -0.10800
N 	N 	0.66934 0.12197 0.00426 -0.10400
H 	H 	0.79948 0.09214 0.99046 0.04700
H 	H 	0.94110 0.27717 0.02936 0.05800
H 	H 	0.77055 0.12520 0.04523 0.06000
H 	H 	0.78597 0.34421 0.05380 0.04300
C 	C 	0.88611 0.11220 0.16778 -0.03600
C 	C 	0.85162 0.14527 0.17371 0.02300
C 	C 	0.84449 0.15058 0.19099 -0.05500
C 	C 	0.87111 0.12311 0.20237 0.02800
C 	C 	0.90713 0.09149 0.19645 -0.07000
C 	C 	0.91411 0.08599 0.17917 0.01100
C 	C 	0.82258 0.17449 0.16193 0.02500
C 	C 	0.75120 0.14248 0.15926 -0.05700
C 	C 	0.72236 0.17046 0.14867 0.03000
C 	C 	0.76558 0.23052 0.14028 -0.07600
C 	C 	0.83700 0.26263 0.14306 0.01700
C 	C 	0.86552 0.23536 0.15393 -0.03800
C 	C 	0.64837 0.13876 0.14709 0.08400
C 	C 	0.93887 0.27041 0.15694 0.09900
C 	C 	0.89221 0.10428 0.15004 0.09700
C 	C 	0.85805 0.12450 0.22003 0.08900
N 	N 	0.58910 0.11334 0.14583 -0.10600
N 	N 	0.99763 0.29845 0.15935 -0.10800
N 	N 	0.84728 0.12548 0.23416 -0.09900
N 	N 	0.89709 0.09798 0.13582 -0.10700
H 	H 	0.94070 0.06066 0.17459 0.04200
H 	H 	0.81737 0.17538 0.19556 0.05900
H 	H 	0.71803 0.09621 0.16564 0.06000
H 	H 	0.87047 0.30879 0.13668 0.04500
C 	C 	0.40202 0.14694 0.15405 -0.03800
C 	C 	0.37350 0.18332 0.16133 0.02400
C 	C 	0.40627 0.25215 0.15912 -0.05800
C 	C 	0.46693 0.28494 0.14974 0.03100
C 	C 	0.49355 0.24814 0.14169 -0.07800
C 	C 	0.46105 0.17927 0.14406 0.01600
C 	C 	0.31299 0.15085 0.17259 0.02300
C 	C 	0.32237 0.16336 0.18981 -0.05700
C 	C 	0.26595 0.13620 0.20067 0.02700
C 	C 	0.19939 0.09302 0.19439 -0.07200
C 	C 	0.18979 0.08051 0.17714 0.01200
C 	C 	0.24606 0.11008 0.16617 -0.03600
C 	C 	0.27644 0.15640 0.21800 0.08100
C 	C 	0.23463 0.09911 0.14838 0.09800
C 	C 	0.37151 0.07660 0.15692 0.10000
C 	C 	0.50331 0.35647 0.14915 0.08500
N 	N 	0.28570 0.17348 0.23183 -0.10300
N 	N 	0.22552 0.09034 0.13412 -0.10800
N 	N 	0.53247 0.41375 0.14868 -0.10500
N 	N 	0.34704 0.02025 0.15923 -0.10600
H 	H 	0.48121 0.15069 0.13796 0.04700
H 	H 	0.38540 0.28039 0.16510 0.05900
H 	H 	0.37363 0.19567 0.19471 0.05700
H 	H 	0.13854 0.04809 0.17226 0.04200
C 	C 	0.77574 0.61720 0.14794 -0.04000
C 	C 	0.83422 0.64019 0.15828 0.02600
C 	C 	0.87082 0.60553 0.15888 -0.05800
C 	C 	0.84835 0.54711 0.14963 0.03200
C 	C 	0.78875 0.52320 0.13961 -0.08100
C 	C 	0.75345 0.55908 0.13865 0.02000
C 	C 	0.85369 0.69691 0.16970 0.02200
C 	C 	0.82822 0.68491 0.18608 -0.05600
C 	C 	0.84798 0.73726 0.19738 0.02600
C 	C 	0.89363 0.80299 0.19220 -0.07200
C 	C 	0.91660 0.81510 0.17555 0.01100
C 	C 	0.89717 0.76245 0.16431 -0.03700
C 	C 	0.82291 0.72261 0.21436 0.08900
C 	C 	0.92279 0.77596 0.14735 0.09600
C 	C 	0.73797 0.65270 0.14693 0.09800
C 	C 	0.88528 0.51085 0.15096 0.08400
N 	N 	0.80246 0.71035 0.22794 -0.10200
N 	N 	0.94326 0.78674 0.13375 -0.10900
N 	N 	0.91482 0.48178 0.15202 -0.10300
N 	N 	0.70775 0.68119 0.14613 -0.10800
H 	H 	0.70844 0.54155 0.13068 0.03500
H 	H 	0.91585 0.62328 0.16685 0.05900
H 	H 	0.79379 0.63448 0.19011 0.06000
H 	H 	0.95133 0.86541 0.17148 0.04200
C 	C 	0.50043 0.77625 0.96178 -0.03400
C 	C 	0.57162 0.82068 0.96027 0.02200
C 	C 	0.59967 0.84705 0.94455 -0.05400
C 	C 	0.55825 0.82650 0.93024 0.02800
C 	C 	0.48784 0.77919 0.93161 -0.06800
C 	C 	0.45878 0.75610 0.94745 0.01400
C 	C 	0.61850 0.83573 0.97471 0.02500
C 	C 	0.64498 0.79342 0.97818 -0.05800
C 	C 	0.70652 0.81692 0.98717 0.03100
C 	C 	0.74204 0.88336 0.99254 -0.08400
C 	C 	0.70927 0.92153 0.99157 0.01400
C 	C 	0.64780 0.89816 0.98256 -0.04200
C 	C 	0.73350 0.77305 0.99062 0.08600
C 	C 	0.61695 0.93970 0.98072 0.09500
C 	C 	0.47001 0.75064 0.97794 0.10100
C 	C 	0.58848 0.85366 0.91414 0.08800
N 	N 	0.75505 0.73787 0.99342 -0.09200
N 	N 	0.59223 0.97299 0.97923 -0.10700
N 	N 	0.61263 0.87537 0.90124 -0.10300
N 	N 	0.44565 0.73011 0.99090 -0.10600
H 	H 	0.40421 0.72093 0.94854 0.04900
H 	H 	0.65426 0.88216 0.94344 0.05500
H 	H 	0.62026 0.74388 0.97292 0.06200
H 	H 	0.73435 0.97132 0.99666 0.04300
C 	C 	0.18511 0.27893 0.96881 -0.03600
C 	C 	0.21337 0.29171 0.95255 0.02300
C 	C 	0.21806 0.24145 0.94387 -0.05400
C 	C 	0.18422 0.17635 0.94998 0.02900
C 	C 	0.14733 0.16205 0.96513 -0.07500
C 	C 	0.15386 0.21441 0.97517 0.01200
C 	C 	0.22720 0.35303 0.94353 0.02300
C 	C 	0.28219 0.41428 0.94856 -0.05400
C 	C 	0.29377 0.47294 0.94074 0.02500
C 	C 	0.25392 0.46995 0.92661 -0.07100
C 	C 	0.19728 0.40866 0.92203 0.01000
C 	C 	0.18331 0.35067 0.93052 -0.03800
C 	C 	0.34311 0.53568 0.94801 0.08700
C 	C 	0.12347 0.28888 0.92585 0.09600
C 	C 	0.18391 0.33070 0.97857 0.09700
C 	C 	0.18410 0.12403 0.94018 0.08700
N 	N 	0.38266 0.58584 0.95387 -0.10600
N 	N 	0.07559 0.23938 0.92212 -0.10500
N 	N 	0.18400 0.08209 0.93233 -0.10000
N 	N 	0.18297 0.37223 0.98639 -0.10500
H 	H 	0.12853 0.20381 0.98726 0.04100
H 	H 	0.24318 0.25196 0.93175 0.06000
H 	H 	0.31467 0.41646 0.95892 0.06000
H 	H 	0.16486 0.40577 0.91160 0.04800
C 	C 	0.07223 0.86507 0.93094 -0.03800
C 	C 	0.05963 0.80232 0.93641 0.02000
C 	C 	0.01148 0.76953 0.94912 -0.04500
C 	C 	0.98025 0.80100 0.95737 0.02300
C 	C 	0.99850 0.86672 0.95312 -0.08700
C 	C 	0.04145 0.89687 0.93929 0.01800
C 	C 	0.10021 0.77272 0.92974 0.02600
C 	C 	0.16724 0.79519 0.93570 -0.05500
C 	C 	0.20726 0.76919 0.92925 0.02700
C 	C 	0.17996 0.71996 0.91675 -0.07200
C 	C 	0.11188 0.69551 0.91131 0.01700
C 	C 	0.07208 0.72189 0.91765 -0.04100
C 	C 	0.27601 0.79278 0.93565 0.07700
C 	C 	0.00307 0.69775 0.91139 0.10500
C 	C 	0.11774 0.89765 0.91701 0.10100
C 	C 	0.93027 0.76592 0.97034 0.08500
N 	N 	0.33106 0.81166 0.94078 -0.10200
N 	N 	0.94778 0.67846 0.90638 -0.11400
N 	N 	0.89034 0.73775 0.98074 -0.09700
N 	N 	0.15422 0.92370 0.90585 -0.10400
H 	H 	0.05416 0.94664 0.93566 0.05300
H 	H 	0.99982 0.72021 0.95291 0.05300
H 	H 	0.18840 0.83337 0.94526 0.05800
H 	H 	0.09085 0.65772 0.90165 0.04600
C 	C 	0.10700 0.84401 0.82620 -0.03700
C 	C 	0.13278 0.80619 0.81838 0.02300
C 	C 	0.12659 0.79689 0.80100 -0.05700
C 	C 	0.09772 0.82716 0.79128 0.02700
C 	C 	0.07625 0.86885 0.79897 -0.07800
C 	C 	0.08008 0.87604 0.81644 0.01500
C 	C 	0.16795 0.77741 0.82824 0.02500
C 	C 	0.13564 0.70864 0.83053 -0.05800
C 	C 	0.16694 0.68072 0.84029 0.03100
C 	C 	0.22993 0.72226 0.84851 -0.08000
C 	C 	0.26414 0.79071 0.84534 0.01700
C 	C 	0.23398 0.81826 0.83508 -0.03900
C 	C 	0.13566 0.60951 0.84122 0.08300
C 	C 	0.27105 0.88847 0.83164 0.09700
C 	C 	0.10783 0.84999 0.84420 0.09800
C 	C 	0.09021 0.81488 0.77347 0.08600
N 	N 	0.11065 0.55248 0.84196 -0.10500
N 	N 	0.30070 0.94471 0.82888 -0.11000
N 	N 	0.08396 0.80457 0.75923 -0.10400
N 	N 	0.10854 0.85476 0.85863 -0.10500
H 	H 	0.06236 0.90684 0.82243 0.05000
H 	H 	0.14493 0.76655 0.79503 0.05800
H 	H 	0.08619 0.67687 0.82468 0.05900
H 	H 	0.31336 0.82282 0.85124 0.04000
C 	C 	0.21074 0.24411 0.83028 -0.03700
C 	C 	0.17987 0.28426 0.83143 0.02500
C 	C 	0.11909 0.26681 0.82262 -0.05500
C 	C 	0.08955 0.21066 0.81237 0.03100
C 	C 	0.11985 0.16971 0.81136 -0.07600
C 	C 	0.18020 0.18675 0.82041 0.02000
C 	C 	0.21175 0.34588 0.84147 0.02500
C 	C 	0.24649 0.40723 0.83328 -0.05800
C 	C 	0.27218 0.46630 0.84239 0.03100
C 	C 	0.26386 0.46409 0.85990 -0.08300
C 	C 	0.23013 0.40280 0.86812 0.01600
C 	C 	0.20340 0.34376 0.85900 -0.03900
C 	C 	0.30759 0.52892 0.83370 0.08500
C 	C 	0.16656 0.28123 0.86767 0.09800
C 	C 	0.27427 0.26201 0.83898 0.10000
C 	C 	0.03036 0.19752 0.80230 0.08300
N 	N 	0.33596 0.57912 0.82676 -0.09900
N 	N 	0.13706 0.23114 0.87461 -0.10500
N 	N 	0.98298 0.18708 0.79424 -0.12700
N 	N 	0.32517 0.27639 0.84596 -0.10700
H 	H 	0.20406 0.15596 0.81951 0.04900
H 	H 	0.09562 0.29797 0.82345 0.06000
H 	H 	0.25272 0.40885 0.81979 0.05900
H 	H 	0.22385 0.40114 0.88161 0.04300
C 	C 	0.71412 0.81355 0.81436 -0.03900
C 	C 	0.70674 0.85108 0.82725 0.02300
C 	C 	0.75874 0.91655 0.82999 -0.05600
C 	C 	0.81706 0.94552 0.81971 0.02600
C 	C 	0.82331 0.90878 0.80641 -0.07900
C 	C 	0.77233 0.84252 0.80403 0.01600
C 	C 	0.64484 0.82202 0.83804 0.02500
C 	C 	0.64523 0.79074 0.85299 -0.05700
C 	C 	0.58716 0.76257 0.86335 0.03300
C 	C 	0.52776 0.76550 0.85869 -0.07700
C 	C 	0.52767 0.79758 0.84385 0.01700
C 	C 	0.58583 0.82574 0.83348 -0.03800
C 	C 	0.58930 0.73168 0.87886 0.07800
C 	C 	0.58452 0.85808 0.81816 0.09700
C 	C 	0.66171 0.74560 0.81153 0.09500
C 	C 	0.87101 0.01233 0.82314 0.08800
N 	N 	0.59112 0.70698 0.89128 -0.10900
N 	N 	0.58356 0.88399 0.80588 -0.11000
N 	N 	0.91418 0.06583 0.82593 -0.10200
N 	N 	0.61968 0.69117 0.80926 -0.10900
H 	H 	0.77709 0.81412 0.79385 0.03900
H 	H 	0.75362 0.94498 0.84011 0.05800
H 	H 	0.69082 0.78834 0.85655 0.05900
H 	H 	0.48215 0.80015 0.84032 0.04400
C 	C 	0.71078 0.90721 0.72446 -0.03800
C 	C 	0.67055 0.92737 0.73373 0.02400
C 	C 	0.70079 0.97307 0.74679 -0.05400
C 	C 	0.76939 0.99552 0.75137 0.02400
C 	C 	0.80803 0.97101 0.74298 -0.07000
C 	C 	0.77904 0.92876 0.72919 0.01200
C 	C 	0.59554 0.89696 0.73060 0.02200
C 	C 	0.55126 0.83273 0.73643 -0.05300
C 	C 	0.48535 0.79525 0.72951 0.02400
C 	C 	0.46373 0.82234 0.71660 -0.06800
C 	C 	0.50294 0.89049 0.71330 0.01100
C 	C 	0.56955 0.92759 0.71989 -0.03400
C 	C 	0.44278 0.72738 0.73470 0.08900
C 	C 	0.61210 0.99579 0.71490 0.09400
C 	C 	0.68190 0.86343 0.71026 0.09600
C 	C 	0.79900 0.04224 0.76499 0.08600
N 	N 	0.40907 0.67300 0.73894 -0.10100
N 	N 	0.64624 0.05044 0.71090 -0.10300
N 	N 	0.82255 0.07973 0.77589 -0.10700
N 	N 	0.65866 0.82836 0.69889 -0.11300
H 	H 	0.80890 0.91084 0.72251 0.04700
H 	H 	0.67037 0.98987 0.75365 0.06000
H 	H 	0.56991 0.81031 0.74544 0.05800
H 	H 	0.48455 0.91293 0.70427 0.05100
C 	C 	0.16970 0.29078 0.72355 -0.03500
C 	C 	0.23238 0.33933 0.73065 0.02300
C 	C 	0.25754 0.32452 0.74513 -0.05600
C 	C 	0.21928 0.26311 0.75303 0.02700
C 	C 	0.15540 0.21541 0.74625 -0.07000
C 	C 	0.13159 0.22912 0.73138 0.01100
C 	C 	0.26672 0.40834 0.72443 0.02500
C 	C 	0.25031 0.45360 0.73173 -0.05700
C 	C 	0.27463 0.51641 0.72473 0.03300
C 	C 	0.31678 0.53479 0.71033 -0.07700
C 	C 	0.33791 0.49148 0.70388 0.01600
C 	C 	0.31265 0.42811 0.71077 -0.03800
C 	C 	0.25415 0.56095 0.73204 0.08300
C 	C 	0.33229 0.38303 0.70344 0.09800
C 	C 	0.14357 0.30443 0.70842 0.09900
C 	C 	0.24499 0.25027 0.76835 0.08200
N 	N 	0.23769 0.59659 0.73789 -0.10500
N 	N 	0.34798 0.34687 0.69757 -0.10500
N 	N 	0.26583 0.24028 0.78063 -0.10300
N 	N 	0.12271 0.31545 0.69629 -0.10500
H 	H 	0.08288 0.19219 0.72606 0.04700
H 	H 	0.30579 0.36178 0.75057 0.05800
H 	H 	0.21639 0.43892 0.74251 0.05900
H 	H 	0.37070 0.50561 0.69289 0.04500
C 	C 	0.16104 0.89548 0.71231 -0.03600
C 	C 	0.13317 0.89764 0.69662 0.02400
C 	C 	0.08370 0.91804 0.69567 -0.05500
C 	C 	0.06077 0.93485 0.71027 0.02300
C 	C 	0.08729 0.93068 0.72602 -0.07000
C 	C 	0.13903 0.91318 0.72679 0.01400
C 	C 	0.15091 0.87240 0.68147 0.02200
C 	C 	0.10720 0.80664 0.67660 -0.05400
C 	C 	0.13448 0.77100 0.66862 0.02400
C 	C 	0.20606 0.80120 0.66590 -0.06800
C 	C 	0.24589 0.87029 0.66725 0.01100
C 	C 	0.21833 0.90629 0.67497 -0.03300
C 	C 	0.08919 0.70319 0.66375 0.08800
C 	C 	0.26106 0.97673 0.67743 0.09400
C 	C 	0.21071 0.87297 0.71371 0.09900
C 	C 	0.01182 0.95820 0.70892 0.09000
N 	N 	0.05235 0.64895 0.65982 -0.10500
N 	N 	0.29531 0.03321 0.67941 -0.10400
N 	N 	0.97262 0.97691 0.70786 -0.11300
N 	N 	0.25045 0.85493 0.71481 -0.10700
H 	H 	0.16122 0.91196 0.73877 0.05500
H 	H 	0.06254 0.92010 0.68361 0.05800
H 	H 	0.05356 0.78164 0.68037 0.05800
H 	H 	0.29955 0.89510 0.66358 0.04700
C 	C 	0.49813 0.42791 0.37956 -0.03900
C 	C 	0.54481 0.48129 0.38959 0.02600
C 	C 	0.61305 0.49469 0.39117 -0.05700
C 	C 	0.63543 0.45632 0.38250 0.03300
C 	C 	0.58919 0.40425 0.37206 -0.08000
C 	C 	0.52054 0.38978 0.37088 0.01900
C 	C 	0.52105 0.52000 0.39950 0.02200
C 	C 	0.49795 0.50010 0.41586 -0.05600
C 	C 	0.46523 0.52873 0.42468 0.02600
C 	C 	0.45627 0.57927 0.41710 -0.07200
C 	C 	0.48275 0.60147 0.40098 0.01000
C 	C 	0.51497 0.57208 0.39216 -0.03700
C 	C 	0.43969 0.50457 0.44129 0.08600
C 	C 	0.54082 0.59495 0.37550 0.09600
C 	C 	0.42718 0.41217 0.37808 0.09800
C 	C 	0.70607 0.47121 0.38416 0.08600
N 	N 	0.41890 0.48450 0.45453 -0.10300
N 	N 	0.56154 0.61321 0.36215 -0.10800
N 	N 	0.76263 0.48309 0.38548 -0.10000
N 	N 	0.37037 0.39962 0.37691 -0.10800
H 	H 	0.48490 0.34955 0.36289 0.04000
H 	H 	0.64862 0.53493 0.39916 0.05900
H 	H 	0.50335 0.46045 0.42153 0.06000
H 	H 	0.47689 0.64057 0.39515 0.04900
C 	C 	0.00658 0.50830 0.35180 -0.03700
C 	C 	0.00775 0.49145 0.36872 0.02900
C 	C 	0.94736 0.44296 0.37632 -0.05800
C 	C 	0.88587 0.41118 0.36733 0.03900
C 	C 	0.88359 0.43007 0.35059 -0.07900
C 	C 	0.94442 0.47770 0.34284 0.01800
C 	C 	0.07145 0.52508 0.37883 0.02300
C 	C 	0.09306 0.58896 0.38493 -0.05400
C 	C 	0.14014 0.61465 0.39819 0.02400
C 	C 	0.16361 0.57457 0.40598 -0.07100
C 	C 	0.14696 0.51324 0.39872 0.01000
C 	C 	0.10217 0.48907 0.38503 -0.03700
C 	C 	0.16566 0.68262 0.40319 0.07800
C 	C 	0.08649 0.42637 0.37764 0.09800
C 	C 	0.06883 0.55657 0.34356 0.09800
C 	C 	0.82612 0.35735 0.37518 0.06800
N 	N 	0.18576 0.73710 0.40712 -0.11100
N 	N 	0.07387 0.37613 0.37172 -0.10400
N 	N 	0.77839 0.31430 0.38150 -0.12900
N 	N 	0.11873 0.59527 0.33696 -0.10600
H 	H 	0.94316 0.49160 0.32993 0.04700
H 	H 	0.94853 0.42955 0.38927 0.06100
H 	H 	0.07138 0.61780 0.37972 0.06000
H 	H 	0.16755 0.48355 0.40395 0.05300
C 	C 	0.37500 0.87475 0.37618 -0.03700
C 	C 	0.42613 0.94135 0.37845 0.02600
C 	C 	0.47321 0.95841 0.39167 -0.06000
C 	C 	0.46658 0.91082 0.40340 0.02600
C 	C 	0.41291 0.84436 0.40166 -0.07200
C 	C 	0.37018 0.82644 0.38744 0.01300
C 	C 	0.42984 0.99441 0.36744 0.01800
C 	C 	0.41290 0.04055 0.37406 -0.05200
C 	C 	0.43898 0.10312 0.36665 0.02600
C 	C 	0.48195 0.11925 0.35250 -0.07300
C 	C 	0.48644 0.06852 0.34407 0.01000
C 	C 	0.46259 0.00676 0.35172 -0.03000
C 	C 	0.42613 0.15216 0.37440 0.08700
C 	C 	0.47638 0.95831 0.34398 0.09300
C 	C 	0.32568 0.85593 0.36271 0.09900
C 	C 	0.51403 0.93128 0.41732 0.08500
N 	N 	0.41590 0.19152 0.38060 -0.10200
N 	N 	0.48744 0.91948 0.33778 -0.10600
N 	N 	0.55220 0.94789 0.42845 -0.10600
N 	N 	0.28619 0.84086 0.35191 -0.10600
H 	H 	0.33019 0.77531 0.38575 0.04900
H 	H 	0.51382 0.00942 0.39312 0.06100
H 	H 	0.38426 0.02973 0.38568 0.05800
H 	H 	0.51587 0.07969 0.33255 0.03600
C 	C 	0.51616 0.43145 0.62360 -0.03600
C 	C 	0.45194 0.42270 0.61834 0.02400
C 	C 	0.41705 0.37953 0.60508 -0.05500
C 	C 	0.44903 0.35106 0.59584 0.02900
C 	C 	0.51664 0.36585 0.59996 -0.07100
C 	C 	0.54819 0.40298 0.61437 0.01100
C 	C 	0.42614 0.46587 0.62491 0.02400
C 	C 	0.44972 0.52853 0.61776 -0.05700
C 	C 	0.43028 0.57246 0.62451 0.02900
C 	C 	0.38555 0.55307 0.63843 -0.08100
C 	C 	0.35975 0.48924 0.64514 0.01600
C 	C 	0.38009 0.44575 0.63850 -0.03900
C 	C 	0.45910 0.63831 0.61759 0.08600
C 	C 	0.35472 0.38118 0.64596 0.09800
C 	C 	0.55059 0.47165 0.63805 0.09700
C 	C 	0.41397 0.31028 0.58151 0.08500
N 	N 	0.48219 0.69105 0.61204 -0.10200
N 	N 	0.33444 0.32946 0.65193 -0.10400
N 	N 	0.38592 0.27765 0.57002 -0.10200
N 	N 	0.57812 0.50387 0.64964 -0.10900
H 	H 	0.59947 0.41303 0.61781 0.04300
H 	H 	0.36662 0.37112 0.60138 0.05900
H 	H 	0.48477 0.54370 0.60720 0.06000
H 	H 	0.32515 0.47408 0.65579 0.04900
C 	C 	0.87570 0.38402 0.62730 -0.03900
C 	C 	0.90546 0.44663 0.63504 0.02500
C 	C 	0.88154 0.49030 0.63087 -0.05800
C 	C 	0.83904 0.47794 0.61691 0.02600
C 	C 	0.81622 0.41855 0.60769 -0.07500
C 	C 	0.83117 0.37021 0.61367 0.00900
C 	C 	0.97372 0.47420 0.64306 0.02100
C 	C 	0.03221 0.50979 0.63313 -0.04900
C 	C 	0.09703 0.54617 0.64043 0.03600
C 	C 	0.10465 0.54342 0.65798 -0.08100
C 	C 	0.04623 0.50548 0.66790 0.03000
C 	C 	0.98065 0.47145 0.66053 -0.04500
C 	C 	0.15445 0.58981 0.62995 0.06400
C 	C 	0.92092 0.43422 0.67096 0.10000
C 	C 	0.89324 0.33498 0.63277 0.09600
C 	C 	0.82335 0.52842 0.61154 0.08500
N 	N 	0.20026 0.62469 0.62152 -0.13000
N 	N 	0.87301 0.40435 0.67931 -0.10800
N 	N 	0.81087 0.56895 0.60727 -0.10400
N 	N 	0.90731 0.29569 0.63718 -0.10700
H 	H 	0.81033 0.32288 0.60729 0.04100
H 	H 	0.90214 0.53735 0.63737 0.06100
H 	H 	0.02659 0.51198 0.61968 0.06100
H 	H 	0.05172 0.50315 0.68134 0.04600
C 	C 	0.61629 0.10193 0.62065 -0.03800
C 	C 	0.57531 0.03573 0.61537 0.02400
C 	C 	0.54515 0.02237 0.59941 -0.05300
C 	C 	0.55786 0.07413 0.58842 0.02600
C 	C 	0.59788 0.14061 0.59381 -0.07100
C 	C 	0.62569 0.15376 0.61005 0.01100
C 	C 	0.55948 0.97983 0.62688 0.02400
C 	C 	0.51847 0.97061 0.64099 -0.05600
C 	C 	0.48859 0.91042 0.64962 0.02800
C 	C 	0.49693 0.85771 0.64363 -0.07400
C 	C 	0.54499 0.86974 0.63092 0.01500
C 	C 	0.57688 0.93089 0.62261 -0.03800
C 	C 	0.44654 0.90187 0.66414 0.07000
C 	C 	0.62600 0.94253 0.60948 0.09700
C 	C 	0.65085 0.11717 0.63666 0.09500
C 	C 	0.53306 0.05835 0.57141 0.09000
N 	N 	0.41286 0.89508 0.67576 -0.11100
N 	N 	0.66536 0.95190 0.59896 -0.10800
N 	N 	0.51316 0.04537 0.55780 -0.10500
N 	N 	0.67853 0.12937 0.64949 -0.10500
H 	H 	0.65711 0.20464 0.61419 0.04300
H 	H 	0.51280 0.97144 0.59543 0.05800
H 	H 	0.50705 0.00906 0.64474 0.06100
H 	H 	0.55400 0.83020 0.62677 0.05200
C 	C 	0.52114 0.56746 0.48944 -0.03700
C 	C 	0.48369 0.53661 0.50404 0.02400
C 	C 	0.42807 0.54509 0.50875 -0.05500
C 	C 	0.40754 0.58153 0.49861 0.03000
C 	C 	0.44140 0.60760 0.48320 -0.07500
C 	C 	0.50034 0.60319 0.47922 0.01700
C 	C 	0.50382 0.49686 0.51471 0.02500
C 	C 	0.54844 0.52733 0.52822 -0.05800
C 	C 	0.57478 0.49324 0.53728 0.03200
C 	C 	0.55670 0.42779 0.53271 -0.07800
C 	C 	0.50982 0.39640 0.51962 0.01900
C 	C 	0.48331 0.43056 0.51060 -0.03800
C 	C 	0.61915 0.52532 0.55145 0.07100
C 	C 	0.43567 0.39757 0.49704 0.10100
C 	C 	0.58030 0.56158 0.48470 0.09700
C 	C 	0.35538 0.59587 0.50466 0.09300
N 	N 	0.65470 0.55114 0.56279 -0.11500
N 	N 	0.39752 0.37119 0.48617 -0.10500
N 	N 	0.31371 0.60742 0.50956 -0.09700
N 	N 	0.62764 0.55681 0.48091 -0.10800
H 	H 	0.52821 0.62498 0.46772 0.05000
H 	H 	0.40115 0.52375 0.52038 0.05900
H 	H 	0.56357 0.57807 0.53149 0.05900
H 	H 	0.49470 0.34569 0.51631 0.04900
C 	C 	0.49359 0.00113 0.47457 -0.03500
C 	C 	0.50864 0.99821 0.49158 0.02100
C 	C 	0.48990 0.93691 0.49897 -0.05600
C 	C 	0.45578 0.87844 0.48961 0.02900
C 	C 	0.44096 0.88127 0.47253 -0.08000
C 	C 	0.45972 0.94275 0.46517 0.01400
C 	C 	0.53978 0.05859 0.50208 0.02800
C 	C 	0.49678 0.07448 0.51136 -0.05700
C 	C 	0.52477 0.12853 0.52232 0.03500
C 	C 	0.59713 0.16812 0.52387 -0.07900
C 	C 	0.64013 0.15288 0.51429 0.02000
C 	C 	0.61185 0.09830 0.50345 -0.03900
C 	C 	0.47882 0.14081 0.53253 0.07400
C 	C 	0.65706 0.08314 0.49383 0.09800
C 	C 	0.51274 0.06384 0.46670 0.09800
C 	C 	0.43380 0.81571 0.49781 0.08700
N 	N 	0.44201 0.15059 0.54070 -0.11700
N 	N 	0.69323 0.07095 0.48612 -0.10800
N 	N 	0.41626 0.76550 0.50438 -0.09800
N 	N 	0.52813 0.11411 0.46040 -0.10700
H 	H 	0.44830 0.94515 0.45207 0.05000
H 	H 	0.50086 0.93470 0.51211 0.06000
H 	H 	0.44132 0.04375 0.51030 0.06100
H 	H 	0.69561 0.18329 0.51536 0.04600
C 	C 	0.98392 0.54815 0.53115 -0.04400
C 	C 	0.98079 0.53744 0.51372 0.01900
C 	C 	0.91673 0.49976 0.50590 -0.05600
C 	C 	0.85618 0.46990 0.51541 0.02900
C 	C 	0.85966 0.47715 0.53298 -0.08000
C 	C 	0.92340 0.51817 0.54067 0.01500
C 	C 	0.04451 0.56317 0.50364 0.02900
C 	C 	0.07663 0.52474 0.50185 -0.05700
C 	C 	0.13417 0.54587 0.49143 0.03200
C 	C 	0.15972 0.60609 0.48253 -0.07600
C 	C 	0.12908 0.64577 0.48492 0.01700
C 	C 	0.07173 0.62458 0.49538 -0.04000
C 	C 	0.16701 0.50584 0.49013 0.08600
C 	C 	0.04064 0.66585 0.49746 0.09800
C 	C 	0.04913 0.58899 0.53936 0.10300
C 	C 	0.79063 0.43238 0.50705 0.08600
N 	N 	0.19322 0.47369 0.48908 -0.10500
N 	N 	0.01570 0.69887 0.49914 -0.10700
N 	N 	0.73809 0.40230 0.50037 -0.09800
N 	N 	0.10142 0.62172 0.54593 -0.10800
H 	H 	0.92620 0.52452 0.55416 0.04800
H 	H 	0.91419 0.49292 0.49243 0.05800
H 	H 	0.05634 0.47800 0.50846 0.06000
H 	H 	0.14864 0.69228 0.47824 0.04200
