data_crystal

_cell_length_a 23.10648
_cell_length_b 25.55436
_cell_length_c 27.71158
_cell_angle_alpha 80.74787
_cell_angle_beta  97.86775
_cell_angle_gamma 81.85992

_symmetry_space_group_name_	'P 1'
_symmetry_space_group_name_H-M	'P 1'

loop_
_symmetry_equiv_pos_as_xyz
  x,y,z

loop_
_atom_site_label
_atom_site_type_symbol
_atom_site_fract_x
_atom_site_fract_y
_atom_site_fract_z
_atom_site_charge
Zn	Zn	0.07054 0.95776 0.95724 1.21700
Zn	Zn	0.05443 0.91357 0.07276 1.19800
C 	C 	0.03705 0.14578 0.98712 0.31900
Zn	Zn	0.03288 0.03370 0.03068 1.22500
Zn	Zn	0.06530 0.07531 0.91595 1.19900
H 	H 	0.12974 0.96993 0.04713 0.17600
C 	C 	0.93041 0.98034 0.02534 0.29400
O 	O 	0.09342 0.03951 0.86330 -0.43000
O 	O 	0.05153 0.96418 0.87862 -0.40300
O 	O 	0.08884 0.96789 0.03228 -0.79800
O 	O 	0.07162 0.85123 0.03976 -0.47300
O 	O 	0.15555 0.95696 0.95273 -0.43100
O 	O 	0.03778 0.88949 0.95842 -0.43300
O 	O 	0.15029 0.04417 0.96342 -0.39700
O 	O 	0.02088 0.94639 0.12466 -0.45300
H 	H 	0.97967 0.02895 0.93828 0.18200
O 	O 	0.05209 0.02730 0.10965 -0.37700
O 	O 	0.02083 0.02759 0.95473 -0.78100
O 	O 	0.06251 0.13937 0.94833 -0.44200
O 	O 	0.95078 0.02371 0.03541 -0.41900
O 	O 	0.04943 0.10828 0.02749 -0.42900
O 	O 	0.96721 0.93563 0.02622 -0.39800
C 	C 	0.07080 0.99971 0.84762 0.29300
C 	C 	0.04384 0.84894 0.99581 0.34500
C 	C 	0.18187 0.99668 0.96454 0.29800
C 	C 	0.04112 0.98682 0.14097 0.29600
Zn	Zn	0.09548 0.94197 0.46145 1.21800
Zn	Zn	0.07899 0.90263 0.57810 1.19700
C 	C 	0.05876 0.13261 0.48682 0.32000
Zn	Zn	0.05615 0.02058 0.53173 1.22600
Zn	Zn	0.08500 0.05968 0.41646 1.20100
H 	H 	0.15374 0.95856 0.54990 0.18700
C 	C 	0.95440 0.96677 0.52727 0.29400
O 	O 	0.11465 0.02172 0.36607 -0.43100
O 	O 	0.07562 0.94511 0.38307 -0.39800
O 	O 	0.11304 0.95532 0.53555 -0.80000
O 	O 	0.10041 0.83871 0.54825 -0.45700
O 	O 	0.17975 0.94454 0.45570 -0.42600
O 	O 	0.06621 0.87171 0.46607 -0.43600
O 	O 	0.17037 0.03277 0.46428 -0.39700
O 	O 	0.04391 0.93684 0.62897 -0.45200
H 	H 	0.00235 0.01084 0.44095 0.17700
O 	O 	0.07455 0.01759 0.60990 -0.38200
O 	O 	0.04333 0.01108 0.45691 -0.78100
O 	O 	0.07739 0.12642 0.44494 -0.44300
O 	O 	0.97442 0.01031 0.53732 -0.42100
O 	O 	0.07447 0.09439 0.52642 -0.43200
O 	O 	0.99155 0.92147 0.53079 -0.40800
C 	C 	0.08956 0.98305 0.35086 0.29500
C 	C 	0.07346 0.83282 0.50518 0.33500
C 	C 	0.20395 0.98621 0.46545 0.29400
C 	C 	0.05904 0.98076 0.64223 0.29500
Zn	Zn	0.94885 0.47752 0.94945 1.22300
Zn	Zn	0.91514 0.43451 0.06342 1.20000
C 	C 	0.93346 0.66255 0.98438 0.33900
Zn	Zn	0.90974 0.55258 0.02324 1.22200
Zn	Zn	0.92439 0.59773 0.90733 1.19700
H 	H 	0.00082 0.48162 0.04244 0.16900
C 	C 	0.79823 0.51423 0.01803 0.31400
O 	O 	0.95915 0.56666 0.85489 -0.45700
O 	O 	0.93054 0.48456 0.87050 -0.39700
O 	O 	0.95988 0.48302 0.02548 -0.77900
O 	O 	0.91551 0.37232 0.02884 -0.43500
O 	O 	0.03063 0.49008 0.94550 -0.43800
O 	O 	0.93533 0.40241 0.95161 -0.42400
O 	O 	0.01180 0.57831 0.95375 -0.40300
O 	O 	0.88961 0.46980 0.11730 -0.44900
H 	H 	0.85105 0.53948 0.93401 0.18300
O 	O 	0.93003 0.54603 0.10192 -0.39500
O 	O 	0.89178 0.54251 0.94820 -0.79300
O 	O 	0.90543 0.65980 0.94060 -0.47200
O 	O 	0.82514 0.55409 0.02854 -0.43500
O 	O 	0.94219 0.62130 0.02142 -0.42100
O 	O 	0.82933 0.46703 0.01754 -0.40300
C 	C 	0.94371 0.52396 0.83930 0.31900
C 	C 	0.94439 0.36515 0.99206 0.31200
C 	C 	0.04936 0.53333 0.95761 0.31400
C 	C 	0.91562 0.50764 0.13337 0.31700
Zn	Zn	0.97138 0.45898 0.45403 1.22400
Zn	Zn	0.93677 0.42122 0.56883 1.19600
C 	C 	0.96559 0.64480 0.48433 0.33400
Zn	Zn	0.93583 0.53787 0.52535 1.22300
Zn	Zn	0.95266 0.57835 0.40953 1.20300
H 	H 	0.02418 0.46356 0.54626 0.16800
C 	C 	0.82265 0.50300 0.52289 0.31700
O 	O 	0.98646 0.54375 0.35892 -0.44800
O 	O 	0.95379 0.46369 0.37511 -0.39400
O 	O 	0.98290 0.46661 0.52950 -0.78400
O 	O 	0.93571 0.35727 0.53649 -0.44000
O 	O 	0.05453 0.46720 0.45104 -0.44400
O 	O 	0.95189 0.38602 0.45776 -0.42900
O 	O 	0.03931 0.55624 0.45710 -0.41100
O 	O 	0.91113 0.45918 0.62135 -0.45200
H 	H 	0.87621 0.52380 0.43678 0.18600
O 	O 	0.95523 0.53297 0.60361 -0.40300
O 	O 	0.91717 0.52614 0.45094 -0.79000
O 	O 	0.93596 0.64176 0.44128 -0.45000
O 	O 	0.85099 0.54293 0.53036 -0.42600
O 	O 	0.97155 0.60506 0.52246 -0.42200
O 	O 	0.85221 0.45527 0.52195 -0.41800
C 	C 	0.96578 0.50316 0.34330 0.31700
C 	C 	0.96170 0.34899 0.49833 0.30900
C 	C 	0.07511 0.50987 0.46275 0.31100
C 	C 	0.93428 0.49955 0.63538 0.31700
Zn	Zn	0.56682 0.95567 0.97600 1.21600
Zn	Zn	0.55343 0.91628 0.09323 1.19500
C 	C 	0.53255 0.14658 0.00021 0.31800
Zn	Zn	0.52899 0.03497 0.04666 1.22700
Zn	Zn	0.55980 0.07302 0.93142 1.19800
H 	H 	0.62713 0.97285 0.06325 0.17800
C 	C 	0.42800 0.97988 0.04423 0.29900
O 	O 	0.58771 0.03503 0.88023 -0.43400
O 	O 	0.54657 0.95943 0.89765 -0.39900
O 	O 	0.58613 0.96949 0.04985 -0.79800
O 	O 	0.57194 0.85231 0.06276 -0.46700
O 	O 	0.65160 0.95491 0.96952 -0.43200
O 	O 	0.53519 0.88609 0.98104 -0.43300
O 	O 	0.64494 0.04268 0.97853 -0.38700
O 	O 	0.51970 0.95076 0.14427 -0.45200
H 	H 	0.47514 0.02647 0.95567 0.17900
O 	O 	0.54913 0.03194 0.12493 -0.37800
O 	O 	0.51634 0.02581 0.97165 -0.77900
O 	O 	0.55791 0.13844 0.96177 -0.44900
O 	O 	0.44741 0.02411 0.05277 -0.41500
O 	O 	0.54410 0.11004 0.04121 -0.41800
O 	O 	0.46549 0.93492 0.04759 -0.42000
C 	C 	0.56495 0.99476 0.86573 0.29200
C 	C 	0.54314 0.84702 0.02014 0.34100
C 	C 	0.67727 0.99668 0.97619 0.29200
C 	C 	0.53730 0.99355 0.15793 0.29800
Zn	Zn	0.58850 0.95349 0.47696 1.21800
Zn	Zn	0.57407 0.91043 0.59255 1.19500
C 	C 	0.55866 0.14255 0.50605 0.31000
Zn	Zn	0.55161 0.03033 0.54966 1.22600
Zn	Zn	0.58452 0.07084 0.43513 1.19900
H 	H 	0.64949 0.96731 0.56529 0.17800
C 	C 	0.44993 0.97653 0.54236 0.29800
O 	O 	0.60895 0.03448 0.38156 -0.43600
O 	O 	0.56697 0.95937 0.39885 -0.40100
O 	O 	0.60832 0.96479 0.55154 -0.79900
O 	O 	0.59201 0.84750 0.56026 -0.47500
O 	O 	0.67322 0.95055 0.47017 -0.43500
O 	O 	0.55453 0.88580 0.47960 -0.43100
O 	O 	0.67002 0.03749 0.48082 -0.38700
O 	O 	0.53867 0.94282 0.64392 -0.45300
H 	H 	0.49894 0.02544 0.45726 0.19000
O 	O 	0.56971 0.02388 0.62853 -0.37700
O 	O 	0.53993 0.02393 0.47408 -0.78300
O 	O 	0.58602 0.13367 0.46874 -0.43700
O 	O 	0.46964 0.01959 0.55385 -0.41600
O 	O 	0.56646 0.10550 0.54660 -0.42300
O 	O 	0.48680 0.93118 0.54587 -0.40900
C 	C 	0.58405 0.99536 0.36675 0.29600
C 	C 	0.56398 0.84450 0.51660 0.34300
C 	C 	0.70065 0.99109 0.47750 0.29200
C 	C 	0.55500 0.98516 0.65947 0.28500
Zn	Zn	0.44202 0.47493 0.97181 1.22400
Zn	Zn	0.41185 0.43200 0.08654 1.19600
C 	C 	0.43034 0.66054 0.00586 0.34000
Zn	Zn	0.40588 0.55057 0.04587 1.22100
Zn	Zn	0.42088 0.59440 0.93002 1.19900
H 	H 	0.49665 0.47890 0.06374 0.17400
C 	C 	0.29485 0.51077 0.04221 0.31500
O 	O 	0.45444 0.56265 0.87772 -0.45300
O 	O 	0.42316 0.48178 0.89294 -0.39500
O 	O 	0.45532 0.48074 0.04762 -0.78800
O 	O 	0.41323 0.36852 0.05329 -0.45100
O 	O 	0.52452 0.48457 0.96726 -0.43500
O 	O 	0.42412 0.40151 0.97396 -0.42100
O 	O 	0.50857 0.57277 0.97634 -0.40900
O 	O 	0.38562 0.46792 0.13982 -0.45600
H 	H 	0.34531 0.53887 0.95668 0.18200
O 	O 	0.42731 0.54337 0.12455 -0.39800
O 	O 	0.38652 0.54078 0.97082 -0.79100
O 	O 	0.40242 0.65677 0.96244 -0.46500
O 	O 	0.32141 0.55117 0.05204 -0.43100
O 	O 	0.43861 0.61990 0.04361 -0.42300
O 	O 	0.32644 0.46418 0.04049 -0.40700
C 	C 	0.43653 0.52107 0.86181 0.31800
C 	C 	0.43672 0.36288 0.01337 0.31700
C 	C 	0.54515 0.52781 0.97734 0.31200
C 	C 	0.41139 0.50583 0.15599 0.31600
Zn	Zn	0.46621 0.47247 0.47548 1.22400
Zn	Zn	0.44563 0.43221 0.59138 1.20100
C 	C 	0.45648 0.65714 0.50381 0.33900
Zn	Zn	0.42515 0.55069 0.54555 1.22200
Zn	Zn	0.44724 0.59025 0.42847 1.19800
H 	H 	0.52285 0.48777 0.56464 0.18800
C 	C 	0.32366 0.49667 0.53747 0.30500
O 	O 	0.47938 0.55385 0.37802 -0.46100
O 	O 	0.44573 0.47466 0.39738 -0.40000
O 	O 	0.48226 0.48482 0.54976 -0.78700
O 	O 	0.46512 0.36465 0.56584 -0.44700
O 	O 	0.54833 0.47989 0.46838 -0.43400
O 	O 	0.44530 0.39953 0.48262 -0.43500
O 	O 	0.53433 0.56872 0.47488 -0.41500
O 	O 	0.40840 0.46786 0.64008 -0.44800
H 	H 	0.37058 0.53814 0.45575 0.17600
O 	O 	0.44195 0.54735 0.62407 -0.40000
O 	O 	0.41144 0.53951 0.47103 -0.79300
O 	O 	0.43227 0.65469 0.45875 -0.47100
O 	O 	0.34304 0.53977 0.54973 -0.43600
O 	O 	0.44579 0.62469 0.54255 -0.42700
O 	O 	0.36079 0.45118 0.54199 -0.40000
C 	C 	0.45958 0.51194 0.36437 0.32000
C 	C 	0.46804 0.35958 0.51968 0.33200
C 	C 	0.56991 0.52283 0.47775 0.32100
C 	C 	0.42721 0.50925 0.65553 0.31800
C 	C 	0.43312 0.51787 0.80902 -0.10400
C 	C 	0.40729 0.56312 0.77223 0.14400
C 	C 	0.40798 0.56076 0.72213 -0.04600
C 	C 	0.43157 0.51286 0.70827 -0.10600
C 	C 	0.45769 0.46772 0.74506 0.14600
C 	C 	0.45698 0.47006 0.79514 -0.04700
H 	H 	0.38869 0.59581 0.69403 0.06100
H 	H 	0.47635 0.43502 0.82322 0.06600
O 	O 	0.38451 0.61084 0.78539 -0.21500
O 	O 	0.48076 0.42009 0.73191 -0.21500
C 	C 	0.32354 0.61182 0.78656 -0.02100
H 	H 	0.29873 0.61116 0.74931 0.03800
H 	H 	0.30545 0.64989 0.79762 0.02500
H 	H 	0.31568 0.57819 0.81453 0.02100
C 	C 	0.54161 0.41959 0.73046 -0.02300
H 	H 	0.54901 0.45325 0.70229 0.02100
H 	H 	0.55998 0.38155 0.71950 0.02900
H 	H 	0.56652 0.42058 0.76759 0.04000
C 	C 	0.44842 0.50890 0.31139 -0.11000
C 	C 	0.49017 0.52121 0.28047 0.14400
C 	C 	0.47840 0.51820 0.23003 -0.05300
C 	C 	0.42436 0.50530 0.20973 -0.10900
C 	C 	0.38348 0.49136 0.24106 0.14300
C 	C 	0.39472 0.49548 0.29121 -0.05300
H 	H 	0.51138 0.52601 0.20670 0.05100
H 	H 	0.36172 0.48765 0.31454 0.05000
O 	O 	0.54505 0.53070 0.30054 -0.19500
O 	O 	0.33037 0.47769 0.22196 -0.19600
C 	C 	0.54616 0.58641 0.28961 -0.01700
H 	H 	0.54802 0.59950 0.24966 0.03400
H 	H 	0.58697 0.59459 0.31116 0.04000
H 	H 	0.50779 0.61097 0.30031 0.03500
C 	C 	0.33465 0.42129 0.23400 -0.01600
H 	H 	0.37108 0.39988 0.21841 0.03200
H 	H 	0.29263 0.41016 0.21776 0.03600
H 	H 	0.34034 0.40716 0.27479 0.03400
C 	C 	0.53650 0.79691 0.51082 -0.11200
C 	C 	0.47431 0.80154 0.50070 0.14200
C 	C 	0.44833 0.75504 0.50265 -0.04500
C 	C 	0.48382 0.70419 0.51155 -0.11000
C 	C 	0.54598 0.69950 0.52130 0.13900
C 	C 	0.57198 0.74594 0.52057 -0.04600
H 	H 	0.40048 0.75867 0.49581 0.05100
H 	H 	0.61983 0.74225 0.52764 0.05400
O 	O 	0.43875 0.85124 0.49408 -0.19400
O 	O 	0.58148 0.65009 0.52585 -0.19600
C 	C 	0.41940 0.87004 0.44289 -0.02300
H 	H 	0.45709 0.87172 0.42188 0.05100
H 	H 	0.39471 0.91161 0.43758 0.04400
H 	H 	0.38838 0.84511 0.42733 0.03500
C 	C 	0.59761 0.62726 0.57660 -0.02400
H 	H 	0.62502 0.65199 0.59668 0.03700
H 	H 	0.62502 0.58711 0.58001 0.04400
H 	H 	0.55811 0.62113 0.59441 0.04500
C 	C 	0.48586 0.30564 0.50930 -0.11000
C 	C 	0.45659 0.26324 0.52642 0.14900
C 	C 	0.48210 0.20992 0.52714 -0.05700
C 	C 	0.53513 0.19862 0.50867 -0.10300
C 	C 	0.56382 0.24133 0.49065 0.14300
C 	C 	0.53773 0.29461 0.48934 -0.05200
H 	H 	0.46017 0.17739 0.54153 0.05000
H 	H 	0.55968 0.32723 0.47520 0.04800
O 	O 	0.40531 0.27364 0.54619 -0.19400
O 	O 	0.61607 0.23118 0.47214 -0.19200
C 	C 	0.35639 0.28007 0.50799 -0.02400
H 	H 	0.35697 0.31431 0.47769 0.05300
H 	H 	0.31522 0.28943 0.52360 0.04900
H 	H 	0.35421 0.24236 0.49298 0.03300
C 	C 	0.66397 0.22727 0.51075 -0.02200
H 	H 	0.66424 0.26590 0.52445 0.03400
H 	H 	0.70585 0.21835 0.49602 0.04800
H 	H 	0.66382 0.19375 0.54185 0.05200
C 	C 	0.51413 0.79919 0.01726 -0.10800
C 	C 	0.53982 0.74854 0.04651 0.14600
C 	C 	0.51180 0.70372 0.04267 -0.04800
C 	C 	0.45754 0.70894 0.01117 -0.10400
C 	C 	0.43153 0.75973 0.98235 0.14100
C 	C 	0.45893 0.80477 0.98698 -0.04700
H 	H 	0.53245 0.66487 0.06436 0.07300
H 	H 	0.43729 0.84404 0.96661 0.05800
O 	O 	0.59506 0.74171 0.07540 -0.19300
O 	O 	0.37650 0.76633 0.95318 -0.20100
C 	C 	0.58782 0.73873 0.12550 -0.01600
H 	H 	0.55579 0.77325 0.13118 0.02600
H 	H 	0.63119 0.73996 0.14770 0.03600
H 	H 	0.57399 0.70006 0.14007 0.03500
C 	C 	0.38390 0.77134 0.90299 -0.01600
H 	H 	0.39621 0.81099 0.88944 0.03500
H 	H 	0.34092 0.76942 0.88052 0.03400
H 	H 	0.41711 0.73819 0.89646 0.03100
C 	C 	0.50779 0.20201 0.00297 -0.10600
C 	C 	0.44908 0.21453 0.01114 0.14100
C 	C 	0.42631 0.26717 0.01515 -0.04500
C 	C 	0.46015 0.30829 0.00724 -0.10400
C 	C 	0.51785 0.29633 0.99648 0.13800
C 	C 	0.54130 0.24326 0.99411 -0.04200
H 	H 	0.38184 0.27623 0.02336 0.06300
H 	H 	0.58561 0.23420 0.98555 0.06400
O 	O 	0.41443 0.17480 0.01693 -0.21300
O 	O 	0.54944 0.33722 0.98404 -0.20300
C 	C 	0.38224 0.17358 0.97011 -0.01800
H 	H 	0.35095 0.21190 0.95515 0.03900
H 	H 	0.35538 0.14094 0.97430 0.03700
H 	H 	0.41214 0.16447 0.94316 0.01600
C 	C 	0.58613 0.34336 0.02711 -0.02000
H 	H 	0.55981 0.35444 0.05585 0.01400
H 	H 	0.61073 0.37672 0.01708 0.04600
H 	H 	0.61953 0.30647 0.04247 0.03900
C 	C 	0.56403 0.98733 0.81416 -0.10900
C 	C 	0.61419 0.99276 0.79112 0.15400
C 	C 	0.60973 0.99524 0.73989 -0.09200
C 	C 	0.55674 0.98909 0.71186 -0.09300
C 	C 	0.50705 0.98203 0.73507 0.13500
C 	C 	0.51130 0.98022 0.78629 -0.05400
H 	H 	0.64808 0.00047 0.72220 0.07700
H 	H 	0.47295 0.97499 0.80399 0.04900
O 	O 	0.66651 0.99972 0.81812 -0.21200
O 	O 	0.45553 0.97302 0.70830 -0.20800
C 	C 	0.70162 0.94878 0.83669 -0.01800
H 	H 	0.67938 0.92307 0.86218 0.04600
H 	H 	0.74350 0.95448 0.85850 0.03700
H 	H 	0.71362 0.92806 0.80614 0.02800
C 	C 	0.41821 0.02293 0.68994 -0.00000
H 	H 	0.40504 0.04286 0.72061 0.03600
H 	H 	0.37711 0.01566 0.66813 0.04900
H 	H 	0.43909 0.05007 0.66451 0.04800
C 	C 	0.54764 0.99670 0.21086 -0.12900
C 	C 	0.50698 0.98116 0.24169 0.14400
C 	C 	0.52073 0.97818 0.29297 -0.05600
C 	C 	0.57358 0.99278 0.31365 -0.12500
C 	C 	0.61484 0.00722 0.28294 0.16000
C 	C 	0.60074 0.01088 0.23157 -0.03200
H 	H 	0.48933 0.96602 0.31647 0.05300
H 	H 	0.63226 0.02272 0.20807 0.05500
O 	O 	0.45505 0.96594 0.22202 -0.21100
O 	O 	0.66799 0.02019 0.30284 -0.18500
C 	C 	0.40975 0.01126 0.21180 0.02800
H 	H 	0.40123 0.02605 0.24627 0.03200
H 	H 	0.36821 0.99931 0.19539 0.02900
H 	H 	0.42006 0.04414 0.18440 0.04400
C 	C 	0.71100 0.97307 0.31444 -0.04200
H 	H 	0.69952 0.94261 0.34351 0.04600
H 	H 	0.75393 0.98361 0.32956 0.03700
H 	H 	0.71773 0.95565 0.28087 0.03100
C 	C 	0.63409 0.51953 0.49185 -0.10500
C 	C 	0.66741 0.47618 0.52732 0.14500
C 	C 	0.72865 0.47378 0.54003 -0.05100
C 	C 	0.75762 0.51153 0.51472 -0.10100
C 	C 	0.72433 0.55471 0.47911 0.14300
C 	C 	0.66243 0.55985 0.46969 -0.04200
H 	H 	0.75389 0.44168 0.56880 0.05600
H 	H 	0.63674 0.59403 0.44343 0.06000
O 	O 	0.63923 0.43942 0.55341 -0.22000
O 	O 	0.75214 0.59313 0.45491 -0.20100
C 	C 	0.64683 0.39109 0.53471 -0.02000
H 	H 	0.63385 0.39761 0.49369 0.04600
H 	H 	0.61788 0.36446 0.55115 0.03100
H 	H 	0.69332 0.36964 0.54578 0.03700
C 	C 	0.75624 0.58278 0.40685 -0.01800
H 	H 	0.77377 0.53983 0.40681 0.02300
H 	H 	0.78738 0.60725 0.39086 0.01900
H 	H 	0.71245 0.59513 0.38236 0.03500
C 	C 	0.13848 0.50538 0.48339 -0.10700
C 	C 	0.15745 0.53990 0.51511 0.14000
C 	C 	0.21810 0.53852 0.53017 -0.05400
C 	C 	0.26017 0.49981 0.51785 -0.10100
C 	C 	0.24117 0.46429 0.48711 0.13700
C 	C 	0.18047 0.46656 0.47107 -0.05200
H 	H 	0.23222 0.56633 0.55324 0.06500
H 	H 	0.16624 0.43876 0.44803 0.06100
O 	O 	0.11677 0.57665 0.52990 -0.19000
O 	O 	0.28158 0.42470 0.47565 -0.19100
C 	C 	0.10746 0.55501 0.57783 -0.02100
H 	H 	0.09040 0.51636 0.57864 0.02000
H 	H 	0.07365 0.58370 0.58924 0.05200
H 	H 	0.14853 0.54967 0.60555 0.03800
C 	C 	0.29403 0.44230 0.42783 -0.02100
H 	H 	0.25471 0.44459 0.39899 0.03500
H 	H 	0.32997 0.41249 0.42040 0.05000
H 	H 	0.30988 0.48163 0.42457 0.02000
C 	C 	0.73324 0.52314 0.00380 -0.10200
C 	C 	0.70690 0.49952 0.96558 0.14100
C 	C 	0.64568 0.49971 0.95848 -0.05000
C 	C 	0.60971 0.52669 0.98666 -0.10300
C 	C 	0.63575 0.55192 0.02380 0.14300
C 	C 	0.69718 0.55137 0.03115 -0.05000
H 	H 	0.62602 0.47990 0.93014 0.06500
H 	H 	0.71698 0.57081 0.05973 0.06400
O 	O 	0.74158 0.47347 0.93688 -0.19500
O 	O 	0.60084 0.57916 0.05153 -0.19600
C 	C 	0.73966 0.50860 0.89163 -0.02200
H 	H 	0.69578 0.51328 0.86772 0.03700
H 	H 	0.77365 0.49074 0.87163 0.03400
H 	H 	0.74997 0.54876 0.89709 0.01700
C 	C 	0.60090 0.54487 0.09685 -0.02000
H 	H 	0.58836 0.50547 0.09142 0.01900
H 	H 	0.56755 0.56440 0.11647 0.04000
H 	H 	0.64479 0.53857 0.12109 0.03700
C 	C 	0.23016 0.51966 0.02609 -0.10200
C 	C 	0.19767 0.47794 0.03797 0.14400
C 	C 	0.13894 0.48264 0.01486 -0.05200
C 	C 	0.11130 0.52938 0.98131 -0.10100
C 	C 	0.14310 0.57192 0.97063 0.14800
C 	C 	0.20179 0.56745 0.99422 -0.05200
H 	H 	0.11469 0.44994 0.02346 0.04400
H 	H 	0.22606 0.60017 0.98573 0.05300
O 	O 	0.22483 0.43054 0.06917 -0.19800
O 	O 	0.11591 0.61909 0.93905 -0.18800
C 	C 	0.21439 0.43401 0.11757 -0.02500
H 	H 	0.23529 0.46644 0.13176 0.04900
H 	H 	0.23486 0.39536 0.14228 0.03800
H 	H 	0.16614 0.43990 0.11968 0.02900
C 	C 	0.12734 0.61564 0.89088 -0.02700
H 	H 	0.17563 0.61164 0.88921 0.03100
H 	H 	0.10531 0.65350 0.86564 0.04000
H 	H 	0.10869 0.58200 0.87692 0.05000
C 	C 	0.93997 0.52063 0.78632 -0.10700
C 	C 	0.98434 0.53614 0.75944 0.14700
C 	C 	0.98298 0.52748 0.71061 -0.04700
C 	C 	0.93481 0.50856 0.68668 -0.10700
C 	C 	0.88775 0.49766 0.71221 0.14300
C 	C 	0.89172 0.50174 0.76237 -0.05200
H 	H 	0.01936 0.53580 0.69131 0.05100
H 	H 	0.85675 0.49093 0.78243 0.05400
O 	O 	0.03181 0.55554 0.78219 -0.19700
O 	O 	0.83973 0.47918 0.68921 -0.19300
C 	C 	0.02250 0.61196 0.76708 -0.02300
H 	H 	0.02326 0.62349 0.72670 0.03500
H 	H 	0.05928 0.62782 0.78683 0.03700
H 	H 	0.98045 0.63162 0.77658 0.03800
C 	C 	0.79549 0.52376 0.66727 -0.02300
H 	H 	0.77934 0.54592 0.69562 0.03200
H 	H 	0.75715 0.50887 0.64859 0.04500
H 	H 	0.81119 0.55137 0.63838 0.04900
C 	C 	0.92913 0.50665 0.18695 -0.10400
C 	C 	0.96204 0.46023 0.21884 0.14400
C 	C 	0.97203 0.45866 0.27018 -0.04400
C 	C 	0.95200 0.50394 0.28971 -0.10600
C 	C 	0.91905 0.55035 0.25776 0.14500
C 	C 	0.90912 0.55190 0.20646 -0.04600
H 	H 	0.99651 0.42260 0.29463 0.06300
H 	H 	0.88472 0.58798 0.18198 0.06100
O 	O 	0.98130 0.41505 0.20010 -0.21300
O 	O 	0.89973 0.59558 0.27641 -0.22000
C 	C 	0.03901 0.41748 0.18960 -0.02900
H 	H 	0.03992 0.45345 0.16124 0.01900
H 	H 	0.05414 0.38151 0.17403 0.02900
H 	H 	0.07090 0.41661 0.22384 0.03800
C 	C 	0.84201 0.59316 0.28685 -0.02200
H 	H 	0.81024 0.59349 0.25268 0.03800
H 	H 	0.82664 0.62942 0.30191 0.02300
H 	H 	0.84122 0.55748 0.31558 0.01500
C 	C 	0.04975 0.78248 0.50047 -0.11000
C 	C 	0.04109 0.74702 0.54280 0.14700
C 	C 	0.01422 0.70206 0.53695 -0.05800
C 	C 	0.99542 0.69183 0.48955 -0.08700
C 	C 	0.00757 0.72525 0.44755 0.13100
C 	C 	0.03233 0.77132 0.45315 -0.04600
H 	H 	0.00741 0.67549 0.56955 0.06400
H 	H 	0.03900 0.79786 0.42047 0.06300
O 	O 	0.06353 0.75347 0.58997 -0.20100
O 	O 	0.99259 0.71442 0.40058 -0.19400
C 	C 	0.01761 0.78029 0.61021 -0.03300
H 	H 	0.00055 0.82137 0.58844 0.03000
H 	H 	0.03582 0.78490 0.64817 0.03100
H 	H 	0.98084 0.75675 0.61344 0.04500
C 	C 	0.04321 0.68598 0.38740 -0.04100
H 	H 	0.07688 0.71238 0.38117 0.04400
H 	H 	0.02976 0.67251 0.35203 0.03500
H 	H 	0.06314 0.64934 0.41548 0.04500
C 	C 	0.03637 0.18727 0.49332 -0.11500
C 	C 	0.06698 0.22992 0.47972 0.15300
C 	C 	0.04092 0.28289 0.47954 -0.06500
C 	C 	0.98599 0.29350 0.49518 -0.09800
C 	C 	0.95563 0.25072 0.50924 0.14200
C 	C 	0.98189 0.19773 0.50966 -0.04500
H 	H 	0.06409 0.31566 0.46818 0.05000
H 	H 	0.95874 0.16492 0.52094 0.04800
O 	O 	0.12056 0.22022 0.46313 -0.19400
O 	O 	0.90175 0.26039 0.52536 -0.19100
C 	C 	0.16662 0.21285 0.50388 -0.02300
H 	H 	0.16673 0.24983 0.52036 0.03500
H 	H 	0.20958 0.20450 0.49062 0.04300
H 	H 	0.16415 0.17767 0.53257 0.05000
C 	C 	0.85608 0.26642 0.48450 -0.02300
H 	H 	0.85842 0.30103 0.45515 0.05100
H 	H 	0.81288 0.27491 0.49736 0.04500
H 	H 	0.85662 0.22881 0.46897 0.03800
C 	C 	0.89057 0.97041 0.50811 -0.12400
C 	C 	0.86140 0.92562 0.51690 0.14400
C 	C 	0.79925 0.93302 0.50785 -0.05400
C 	C 	0.76607 0.98350 0.48560 -0.12000
C 	C 	0.79567 0.02691 0.47184 0.15800
C 	C 	0.85740 0.02045 0.48421 -0.03200
H 	H 	0.77699 0.89929 0.51809 0.05400
H 	H 	0.87943 0.05471 0.47559 0.04700
O 	O 	0.89318 0.87515 0.53735 -0.19900
O 	O 	0.76391 0.07710 0.45012 -0.19600
C 	C 	0.89981 0.84599 0.49873 -0.02500
H 	H 	0.85627 0.84250 0.47769 0.03900
H 	H 	0.92213 0.80448 0.51527 0.04800
H 	H 	0.92788 0.86400 0.47317 0.05200
C 	C 	0.75763 0.08163 0.39822 -0.03000
H 	H 	0.80143 0.07802 0.38542 0.03700
H 	H 	0.73251 0.12206 0.38082 0.04400
H 	H 	0.73180 0.05157 0.38517 0.05700
C 	C 	0.38663 0.97961 0.52314 -0.12100
C 	C 	0.35656 0.02240 0.48543 0.16000
C 	C 	0.29842 0.02136 0.46360 -0.03000
C 	C 	0.26841 0.98015 0.48134 -0.12200
C 	C 	0.29863 0.93703 0.51864 0.14200
C 	C 	0.35706 0.93773 0.54019 -0.04400
H 	H 	0.27596 0.05368 0.43380 0.05500
H 	H 	0.37960 0.90527 0.56982 0.06100
O 	O 	0.38586 0.06267 0.46659 -0.22200
O 	O 	0.26928 0.89678 0.53739 -0.21500
C 	C 	0.36975 0.10847 0.48739 -0.01700
H 	H 	0.32238 0.12648 0.47401 0.03600
H 	H 	0.39674 0.13916 0.47509 0.02700
H 	H 	0.37880 0.09948 0.52866 0.04500
C 	C 	0.28350 0.85193 0.51486 -0.02100
H 	H 	0.27421 0.86254 0.47361 0.04700
H 	H 	0.25549 0.82176 0.52615 0.04100
H 	H 	0.33055 0.83264 0.52773 0.04400
C 	C 	0.01624 0.80158 0.98908 -0.11800
C 	C 	0.95472 0.80740 0.97281 0.15200
C 	C 	0.92737 0.76164 0.97449 -0.05000
C 	C 	0.96109 0.71008 0.99049 -0.10200
C 	C 	0.02254 0.70432 0.00705 0.13800
C 	C 	0.04995 0.75003 0.00494 -0.04100
H 	H 	0.87991 0.76629 0.96282 0.05700
H 	H 	0.09742 0.74536 0.01658 0.05600
O 	O 	0.92028 0.85796 0.96077 -0.18500
O 	O 	0.05686 0.65376 0.02010 -0.17900
C 	C 	0.90859 0.87358 0.90874 -0.02400
H 	H 	0.95002 0.87262 0.89230 0.05100
H 	H 	0.88474 0.91568 0.89946 0.03900
H 	H 	0.87930 0.84823 0.89159 0.03400
C 	C 	0.06818 0.63923 0.07222 -0.02800
H 	H 	0.09774 0.66468 0.08887 0.04100
H 	H 	0.09157 0.59699 0.08229 0.04700
H 	H 	0.02662 0.64111 0.08852 0.05300
C 	C 	0.96986 0.30985 0.98946 -0.09500
C 	C 	0.01740 0.28129 0.02578 0.13300
C 	C 	0.03706 0.22658 0.02666 -0.03900
C 	C 	0.01082 0.20061 0.99063 -0.11100
C 	C 	0.96269 0.22899 0.95481 0.14900
C 	C 	0.94340 0.28377 0.95365 -0.04600
H 	H 	0.07365 0.20478 0.05464 0.06300
H 	H 	0.90678 0.30556 0.92569 0.06700
O 	O 	0.04170 0.30582 0.06284 -0.21900
O 	O 	0.93705 0.20401 0.91868 -0.22000
C 	C 	0.08980 0.32852 0.04733 -0.02100
H 	H 	0.12566 0.29703 0.04194 0.04200
H 	H 	0.10869 0.34889 0.07678 0.03200
H 	H 	0.07543 0.35956 0.01299 0.02700
C 	C 	0.88967 0.18150 0.93589 -0.02100
H 	H 	0.90517 0.15070 0.97027 0.02900
H 	H 	0.86954 0.16088 0.90716 0.03200
H 	H 	0.85439 0.21313 0.94196 0.04400
C 	C 	0.74256 0.99098 0.98491 -0.12300
C 	C 	0.77054 0.03520 0.97005 0.16200
C 	C 	0.83190 0.03107 0.98327 -0.03400
C 	C 	0.86617 0.98295 0.01027 -0.11600
C 	C 	0.83840 0.93840 0.02445 0.14600
C 	C 	0.77708 0.94215 0.01028 -0.04800
H 	H 	0.85285 0.06549 0.97239 0.04800
H 	H 	0.75614 0.90765 0.02093 0.05600
O 	O 	0.73732 0.08405 0.94611 -0.19500
O 	O 	0.87158 0.89022 0.05010 -0.18500
C 	C 	0.73431 0.08681 0.89460 -0.03200
H 	H 	0.77898 0.08573 0.88358 0.03800
H 	H 	0.70685 0.12565 0.87539 0.04400
H 	H 	0.71253 0.05426 0.88179 0.06300
C 	C 	0.87275 0.88908 0.10128 -0.02800
H 	H 	0.89322 0.92255 0.11381 0.04600
H 	H 	0.90046 0.85089 0.12179 0.04500
H 	H 	0.82759 0.88985 0.11126 0.03300
C 	C 	0.36483 0.98214 0.02522 -0.12100
C 	C 	0.32058 0.00484 0.04963 0.15800
C 	C 	0.26081 0.00456 0.03198 -0.03000
C 	C 	0.24450 0.98565 0.98816 -0.12900
C 	C 	0.28867 0.96101 0.96492 0.14600
C 	C 	0.34858 0.96070 0.98277 -0.05800
H 	H 	0.22695 0.02078 0.05157 0.04800
H 	H 	0.38240 0.94383 0.96348 0.04800
O 	O 	0.33590 0.02252 0.09351 -0.19000
O 	O 	0.27334 0.94140 0.92217 -0.20800
C 	C 	0.32787 0.07923 0.08365 -0.02700
H 	H 	0.35653 0.09426 0.05733 0.06000
H 	H 	0.34068 0.09338 0.11874 0.04800
H 	H 	0.28062 0.09730 0.06964 0.04200
C 	C 	0.27565 0.88537 0.93497 -0.02100
H 	H 	0.32139 0.86469 0.95139 0.04600
H 	H 	0.26261 0.86966 0.90074 0.04200
H 	H 	0.24419 0.87517 0.96068 0.04900
C 	C 	0.06013 0.98807 0.69397 -0.12500
C 	C 	0.01557 0.97258 0.72059 0.13400
C 	C 	0.02054 0.97472 0.77121 -0.05800
C 	C 	0.06839 0.99418 0.79516 -0.12200
C 	C 	0.11279 0.00986 0.76834 0.15800
C 	C 	0.10736 0.00834 0.71764 -0.03000
H 	H 	0.98648 0.96220 0.79157 0.05600
H 	H 	0.14126 0.02105 0.69719 0.05700
O 	O 	0.96907 0.95187 0.69795 -0.18000
O 	O 	0.16024 0.02921 0.79113 -0.17200
C 	C 	0.92181 0.99453 0.67810 -0.08400
H 	H 	0.90504 0.01415 0.70774 0.06400
H 	H 	0.88474 0.97790 0.65955 0.05300
H 	H 	0.93451 0.02472 0.64950 0.07800
C 	C 	0.20769 0.98605 0.80785 -0.08000
H 	H 	0.19564 0.95379 0.83485 0.06300
H 	H 	0.24528 0.00134 0.82720 0.08300
H 	H 	0.22342 0.96932 0.77634 0.03900
C 	C 	0.05352 0.98577 0.19470 -0.12400
C 	C 	0.08254 0.93818 0.22729 0.14500
C 	C 	0.09171 0.93692 0.27855 -0.04500
C 	C 	0.07517 0.98346 0.29744 -0.12500
C 	C 	0.04592 0.03095 0.26491 0.16200
C 	C 	0.03650 0.03219 0.21367 -0.02800
H 	H 	0.11326 0.90008 0.30347 0.05900
H 	H 	0.01492 0.06904 0.18879 0.06100
O 	O 	0.09900 0.89187 0.20922 -0.22100
O 	O 	0.02990 0.07733 0.28301 -0.22500
C 	C 	0.15793 0.89003 0.20052 -0.02000
H 	H 	0.16244 0.92494 0.17235 0.01100
H 	H 	0.17086 0.85313 0.18555 0.02100
H 	H 	0.18918 0.88762 0.23548 0.03500
C 	C 	0.97126 0.07917 0.29246 -0.01700
H 	H 	0.93949 0.08132 0.25786 0.04200
H 	H 	0.95862 0.11620 0.30733 0.02400
H 	H 	0.96725 0.04439 0.32099 0.02100
