data_crystal

_cell_length_a 37.81493
_cell_length_b 38.05538
_cell_length_c 36.49995
_cell_angle_alpha 90.98093
_cell_angle_beta  90.07732
_cell_angle_gamma 90.02557

_symmetry_space_group_name_	'P 1'
_symmetry_space_group_name_H-M	'P 1'

loop_
_symmetry_equiv_pos_as_xyz
  x,y,z

loop_
_atom_site_label
_atom_site_type_symbol
_atom_site_fract_x
_atom_site_fract_y
_atom_site_fract_z
_atom_site_charge
Cd	Cd	0.00030 0.85609 0.26381 1.25500
Cd	Cd	0.01663 0.91258 0.34119 1.19900
O 	O 	0.96579 0.80166 0.27122 -0.26700
O 	O 	0.98331 0.81924 0.21715 -0.25600
C 	C 	0.96705 0.79555 0.23610 0.27100
O 	O 	0.02457 0.90395 0.23967 -0.33400
O 	O 	0.05173 0.92254 0.29278 -0.39800
C 	C 	0.04030 0.92889 0.25938 0.32900
C 	C 	0.94543 0.90061 0.29113 0.33400
O 	O 	0.03030 0.85418 0.32893 -0.41100
O 	O 	0.93667 0.88764 0.25896 -0.23900
O 	O 	0.97420 0.88815 0.30490 -0.51500
C 	C 	0.05867 0.84202 0.31296 0.30700
O 	O 	0.05568 0.83420 0.27811 -0.27500
Cd	Cd	0.99088 0.87559 0.77101 1.25200
Cd	Cd	0.98385 0.91246 0.86090 1.20800
O 	O 	0.97535 0.81331 0.75805 -0.23900
O 	O 	0.98912 0.85005 0.71426 -0.29500
C 	C 	0.97929 0.81861 0.72317 0.28200
O 	O 	0.99916 0.93288 0.76362 -0.34000
O 	O 	0.01675 0.94457 0.82284 -0.40000
C 	C 	0.00709 0.95552 0.79024 0.32000
C 	C 	0.92286 0.89466 0.79861 0.33200
O 	O 	0.01802 0.86675 0.83693 -0.40500
O 	O 	0.92165 0.88804 0.76344 -0.21000
O 	O 	0.95253 0.88672 0.81439 -0.50300
C 	C 	0.04936 0.86909 0.82205 0.32300
O 	O 	0.04976 0.87001 0.78636 -0.31400
C 	C 	0.97248 0.69784 0.62695 0.15600
N 	N 	0.96031 0.69734 0.59190 -0.11200
C 	C 	0.96093 0.66696 0.57184 0.15300
N 	N 	0.97415 0.63728 0.58672 -0.13700
C 	C 	0.98512 0.63740 0.62215 0.15400
N 	N 	0.98439 0.66777 0.64222 -0.11400
C 	C 	0.94948 0.65401 0.24693 0.15600
N 	N 	0.96465 0.62508 0.23134 -0.12300
C 	C 	0.97035 0.59598 0.25152 0.14800
N 	N 	0.96015 0.59558 0.28717 -0.13800
C 	C 	0.94530 0.62453 0.30301 0.15000
N 	N 	0.94019 0.65374 0.28285 -0.11300
Cd	Cd	0.85291 0.06281 0.91671 1.25100
Cd	Cd	0.88986 0.04871 0.82818 1.20600
O 	O 	0.78845 0.07127 0.92572 -0.23900
O 	O 	0.82563 0.06682 0.97198 -0.29800
C 	C 	0.79317 0.07048 0.96102 0.28200
O 	O 	0.90877 0.04836 0.92742 -0.34500
O 	O 	0.92985 0.06410 0.87104 -0.40200
C 	C 	0.93445 0.04901 0.90295 0.32500
C 	C 	0.84703 0.99503 0.88255 0.34000
O 	O 	0.85850 0.09563 0.85385 -0.40500
O 	O 	0.83850 0.99403 0.91714 -0.20800
O 	O 	0.85146 0.02638 0.86978 -0.50900
C 	C 	0.87143 0.12251 0.87219 0.32300
O 	O 	0.87049 0.12002 0.90777 -0.31400
Cd	Cd	0.90963 0.07889 0.41377 1.25000
Cd	Cd	0.94489 0.06169 0.32475 1.20200
O 	O 	0.84778 0.09819 0.42040 -0.26500
O 	O 	0.88049 0.08572 0.46824 -0.29100
C 	C 	0.85001 0.09599 0.45582 0.29000
O 	O 	0.96197 0.05343 0.42416 -0.34100
O 	O 	0.98543 0.07005 0.36941 -0.41200
C 	C 	0.98690 0.05065 0.39895 0.31800
C 	C 	0.89298 0.01440 0.37711 0.33700
O 	O 	0.91916 0.11086 0.35163 -0.41600
O 	O 	0.88304 0.01367 0.41140 -0.24900
O 	O 	0.90292 0.04484 0.36565 -0.51200
C 	C 	0.93590 0.13585 0.36920 0.32200
O 	O 	0.93633 0.13330 0.40490 -0.30200
C 	C 	0.68362 0.08807 0.06888 0.15700
N 	N 	0.64914 0.09361 0.06019 -0.11800
C 	C 	0.62437 0.09532 0.08705 0.15000
N 	N 	0.63403 0.09083 0.12247 -0.14100
C 	C 	0.66828 0.08443 0.13113 0.15200
N 	N 	0.69312 0.08310 0.10433 -0.10800
C 	C 	0.71118 0.08252 0.46063 0.15000
N 	N 	0.67988 0.08039 0.47870 -0.10900
C 	C 	0.64906 0.07899 0.45946 0.14900
N 	N 	0.64980 0.07848 0.42223 -0.13900
C 	C 	0.68111 0.07962 0.40423 0.14900
N 	N 	0.71170 0.08238 0.42345 -0.12300
Cd	Cd	0.12165 0.14004 0.25780 1.25400
Cd	Cd	0.09448 0.09434 0.33744 1.19600
O 	O 	0.15446 0.19578 0.26437 -0.27600
O 	O 	0.14476 0.17102 0.21054 -0.25500
C 	C 	0.15766 0.19763 0.22899 0.26400
O 	O 	0.10108 0.08881 0.23580 -0.33300
O 	O 	0.06649 0.07725 0.28575 -0.40100
C 	C 	0.08236 0.06660 0.25538 0.32500
C 	C 	0.17194 0.10064 0.29816 0.33400
O 	O 	0.08260 0.15040 0.31674 -0.41400
O 	O 	0.18528 0.10918 0.26648 -0.24900
O 	O 	0.14163 0.11452 0.30581 -0.52000
C 	C 	0.05683 0.15970 0.29528 0.30600
O 	O 	0.06475 0.16258 0.26065 -0.27900
Cd	Cd	0.05174 0.18066 0.76810 1.25100
Cd	Cd	0.04071 0.15145 0.85944 1.20800
O 	O 	0.07034 0.24176 0.75598 -0.24900
O 	O 	0.06485 0.20187 0.71184 -0.28900
C 	C 	0.07316 0.23390 0.72130 0.28400
O 	O 	0.04430 0.12285 0.76221 -0.34100
O 	O 	0.01549 0.11622 0.81701 -0.40200
C 	C 	0.03125 0.10252 0.78790 0.32700
C 	C 	0.11269 0.16416 0.81054 0.33200
O 	O 	0.01251 0.19497 0.82627 -0.40700
O 	O 	0.12083 0.16771 0.77608 -0.20900
O 	O 	0.08065 0.17328 0.81918 -0.50500
C 	C 	0.98470 0.19135 0.80523 0.32400
O 	O 	0.99121 0.18751 0.77032 -0.31300
C 	C 	0.10217 0.34925 0.62686 0.15500
N 	N 	0.11087 0.34677 0.59083 -0.11100
C 	C 	0.11499 0.37635 0.57098 0.15500
N 	N 	0.10930 0.40830 0.58698 -0.13800
C 	C 	0.10132 0.41095 0.62320 0.15500
N 	N 	0.09804 0.38132 0.64315 -0.11600
C 	C 	0.15066 0.33708 0.24011 0.15300
N 	N 	0.15521 0.33798 0.27706 -0.10800
C 	C 	0.13993 0.36372 0.29774 0.15100
N 	N 	0.12069 0.38909 0.28142 -0.14000
C 	C 	0.11616 0.38849 0.24453 0.14700
N 	N 	0.13120 0.36252 0.22386 -0.12400
Cd	Cd	0.15776 0.00676 0.95131 1.25100
Cd	Cd	0.13761 0.01216 0.85621 1.20500
O 	O 	0.21974 0.00255 0.97297 -0.24900
O 	O 	0.17499 0.00887 0.01105 -0.27900
C 	C 	0.20897 0.00585 0.00670 0.27400
O 	O 	0.10048 0.01955 0.94982 -0.33900
O 	O 	0.09090 0.99891 0.89117 -0.39600
C 	C 	0.08022 0.01673 0.92041 0.32100
C 	C 	0.16799 0.07181 0.91491 0.32800
O 	O 	0.16469 0.96877 0.89058 -0.40200
O 	O 	0.16937 0.07596 0.95041 -0.18900
O 	O 	0.16685 0.03934 0.90336 -0.50100
C 	C 	0.14926 0.94294 0.90750 0.32300
O 	O 	0.14401 0.94815 0.94248 -0.31000
Cd	Cd	0.18546 0.93893 0.44405 1.25000
Cd	Cd	0.16410 0.94261 0.34896 1.20400
O 	O 	0.24606 0.92467 0.46374 -0.24900
O 	O 	0.20538 0.94143 0.50296 -0.30400
C 	C 	0.23842 0.93327 0.49747 0.29100
O 	O 	0.13166 0.96330 0.44260 -0.34200
O 	O 	0.11720 0.93896 0.38686 -0.41500
C 	C 	0.11093 0.96199 0.41345 0.31900
C 	C 	0.20636 0.99863 0.40337 0.35400
O 	O 	0.18639 0.89854 0.38535 -0.41300
O 	O 	0.21065 0.00441 0.43851 -0.26300
O 	O 	0.19868 0.96656 0.39406 -0.51200
C 	C 	0.16763 0.87542 0.40260 0.32300
O 	O 	0.16186 0.88256 0.43728 -0.30500
C 	C 	0.31427 0.03322 0.11721 0.15800
N 	N 	0.34666 0.04160 0.10391 -0.12000
C 	C 	0.37261 0.05272 0.12707 0.15000
N 	N 	0.36644 0.05452 0.16365 -0.14000
C 	C 	0.33425 0.04579 0.17708 0.14900
N 	N 	0.30803 0.03542 0.15384 -0.10500
C 	C 	0.34763 0.01607 0.50445 0.14300
N 	N 	0.37767 0.02920 0.51988 -0.11000
C 	C 	0.39944 0.05000 0.50002 0.15000
N 	N 	0.39120 0.05718 0.46466 -0.14000
C 	C 	0.36129 0.04393 0.44917 0.15100
N 	N 	0.33984 0.02296 0.46897 -0.12200
C 	C 	0.32825 0.04663 0.21688 -0.02700
C 	C 	0.32748 0.07894 0.23661 0.11900
C 	C 	0.33057 0.07899 0.27494 -0.07400
C 	C 	0.33369 0.04735 0.29378 0.00200
C 	C 	0.33136 0.01493 0.27425 0.09800
C 	C 	0.32861 0.01494 0.23588 -0.05000
N 	N 	0.32353 0.10989 0.21896 -0.19700
H 	H 	0.33120 0.10375 0.29009 0.07200
C 	C 	0.34156 0.04859 0.33357 0.00600
N 	N 	0.33244 0.98382 0.29204 -0.18900
H 	H 	0.32828 0.99020 0.22067 0.10300
C 	C 	0.31420 0.05624 0.35832 -0.08100
C 	C 	0.32062 0.05731 0.39623 0.12700
C 	C 	0.35466 0.04851 0.40960 -0.04700
C 	C 	0.38225 0.04190 0.38474 -0.04300
C 	C 	0.37623 0.04262 0.34682 0.07700
H 	H 	0.28804 0.06225 0.34801 0.08200
N 	N 	0.29453 0.06815 0.41942 -0.20100
H 	H 	0.40844 0.03575 0.39493 0.05900
N 	N 	0.40379 0.03761 0.32335 -0.19200
H 	H 	0.26893 0.07243 0.40959 0.12900
H 	H 	0.29985 0.07462 0.44677 0.15400
H 	H 	0.42909 0.03232 0.33341 0.09800
H 	H 	0.40067 0.03978 0.29507 0.09900
H 	H 	0.33147 0.96004 0.27732 0.12800
H 	H 	0.33342 0.98287 0.32059 0.12400
H 	H 	0.31873 0.11053 0.19079 0.11800
H 	H 	0.32402 0.13373 0.23360 0.11700
C 	C 	0.26217 0.98229 0.53546 0.08100
C 	C 	0.26628 0.94787 0.52165 0.01300
C 	C 	0.30064 0.93330 0.52059 -0.07600
C 	C 	0.32987 0.95612 0.52095 0.03000
C 	C 	0.32464 0.99244 0.52504 0.08000
C 	C 	0.29163 0.00475 0.53795 -0.13000
C 	C 	0.28676 0.04278 0.54955 0.79400
H 	H 	0.23585 0.99276 0.53998 0.09800
H 	H 	0.35595 0.94610 0.51422 0.09100
C 	C 	0.30622 0.89421 0.51532 0.78000
F 	F 	0.25879 0.04625 0.57378 -0.41200
F 	F 	0.27991 0.06273 0.51905 -0.44000
F 	F 	0.31689 0.05544 0.56683 -0.42300
F 	F 	0.31032 0.88637 0.47845 -0.41700
F 	F 	0.27777 0.87550 0.52875 -0.40900
F 	F 	0.33627 0.88371 0.53385 -0.41200
C 	C 	0.24850 0.98518 0.05597 0.06800
C 	C 	0.23384 0.01332 0.03689 0.01400
C 	C 	0.24402 0.04824 0.04586 -0.07900
C 	C 	0.26959 0.05413 0.07328 0.03400
C 	C 	0.28500 0.02597 0.09162 0.05100
C 	C 	0.27420 0.99111 0.08335 -0.09700
C 	C 	0.29034 0.96033 0.10337 0.78500
H 	H 	0.24019 0.95864 0.04904 0.09500
H 	H 	0.27818 0.08065 0.07996 0.08900
C 	C 	0.22843 0.07911 0.02550 0.77700
F 	F 	0.27665 0.92846 0.09118 -0.41500
F 	F 	0.28352 0.96369 0.14048 -0.42300
F 	F 	0.32653 0.95974 0.09788 -0.42600
F 	F 	0.19203 0.07916 0.02910 -0.41300
F 	F 	0.23721 0.07645 0.98880 -0.42100
F 	F 	0.24098 0.11100 0.03895 -0.41600
C 	C 	0.12190 0.37373 0.53128 -0.03800
C 	C 	0.15216 0.35612 0.51730 0.12000
C 	C 	0.15655 0.35251 0.47921 -0.07900
C 	C 	0.13258 0.36805 0.45504 0.00200
C 	C 	0.10299 0.38668 0.46905 0.08500
C 	C 	0.09777 0.38896 0.50706 -0.03900
N 	N 	0.17759 0.34375 0.54011 -0.19700
H 	H 	0.17928 0.33845 0.46834 0.07700
C 	C 	0.13858 0.36444 0.41507 0.00300
N 	N 	0.07959 0.40247 0.44623 -0.19200
H 	H 	0.07475 0.40261 0.51783 0.07500
C 	C 	0.12126 0.33745 0.39557 -0.07900
C 	C 	0.12152 0.33648 0.35711 0.12100
C 	C 	0.14108 0.36211 0.33797 -0.03600
C 	C 	0.16005 0.38791 0.35757 -0.04100
C 	C 	0.15893 0.38945 0.39601 0.08400
H 	H 	0.10606 0.31812 0.41035 0.08200
N 	N 	0.10210 0.31163 0.33885 -0.19800
H 	H 	0.17522 0.40730 0.34282 0.07400
N 	N 	0.17708 0.41515 0.41435 -0.19300
H 	H 	0.08831 0.29252 0.35330 0.12500
H 	H 	0.09970 0.31146 0.31037 0.11600
H 	H 	0.19161 0.43379 0.39999 0.10900
H 	H 	0.17733 0.41673 0.44293 0.10400
H 	H 	0.05770 0.41592 0.45687 0.10600
H 	H 	0.08296 0.40189 0.41785 0.10100
H 	H 	0.17727 0.34944 0.56818 0.11700
H 	H 	0.19907 0.32958 0.52957 0.11900
C 	C 	0.16153 0.12154 0.82642 0.10500
C 	C 	0.13719 0.14798 0.83741 -0.11200
C 	C 	0.13404 0.15649 0.87500 0.07600
C 	C 	0.14848 0.13391 0.90129 0.10200
C 	C 	0.16459 0.10200 0.88964 -0.10700
C 	C 	0.17471 0.09810 0.85262 0.07300
Br	Br	0.20993 0.06369 0.83867 -0.19300
Br	Br	0.18056 0.12011 0.77733 -0.07600
Br	Br	0.15041 0.14931 0.95197 -0.05600
Br	Br	0.11346 0.20080 0.89025 -0.18300
C 	C 	0.12293 0.30131 0.66644 0.03100
C 	C 	0.09506 0.31729 0.64767 0.05800
C 	C 	0.06030 0.30379 0.65055 -0.10700
C 	C 	0.05383 0.27574 0.67423 0.06300
C 	C 	0.08150 0.26062 0.69404 0.01600
C 	C 	0.11662 0.27243 0.68908 -0.07800
C 	C 	0.14714 0.25509 0.70891 0.77700
H 	H 	0.14941 0.31187 0.66389 0.09100
H 	H 	0.02713 0.26615 0.67804 0.09300
C 	C 	0.02996 0.32009 0.62945 0.78600
F 	F 	0.17956 0.26657 0.69617 -0.41600
F 	F 	0.14569 0.21902 0.70370 -0.41100
F 	F 	0.14506 0.26291 0.74598 -0.41400
F 	F 	0.03807 0.32091 0.59253 -0.42800
F 	F 	0.02413 0.35400 0.64227 -0.44000
F 	F 	0.99891 0.30120 0.63322 -0.41600
C 	C 	0.21230 0.05126 0.31607 0.09500
C 	C 	0.19195 0.08098 0.32605 -0.12200
C 	C 	0.18374 0.08675 0.36320 0.06000
C 	C 	0.18493 0.05875 0.38748 0.09600
C 	C 	0.20303 0.02769 0.37726 -0.15300
C 	C 	0.21810 0.02466 0.34188 0.07300
Br	Br	0.24711 0.98464 0.32901 -0.23900
Br	Br	0.23560 0.04877 0.26915 -0.15800
Br	Br	0.15617 0.06080 0.43109 -0.19500
Br	Br	0.17283 0.13340 0.38115 -0.20500
C 	C 	0.19403 0.25094 0.22284 0.06700
C 	C 	0.16404 0.23181 0.21179 0.02100
C 	C 	0.13574 0.24997 0.19512 -0.08600
C 	C 	0.13318 0.28655 0.20051 0.03300
C 	C 	0.16002 0.30488 0.21926 0.06000
C 	C 	0.19265 0.28781 0.22545 -0.11100
C 	C 	0.22512 0.30823 0.23751 0.78900
H 	H 	0.21710 0.23711 0.23279 0.08600
H 	H 	0.10908 0.30013 0.19313 0.09000
C 	C 	0.10716 0.23039 0.17401 0.78100
F 	F 	0.25542 0.29197 0.22441 -0.42200
F 	F 	0.22664 0.30970 0.27536 -0.43200
F 	F 	0.22439 0.34207 0.22419 -0.42500
F 	F 	0.08436 0.21442 0.19820 -0.43200
F 	F 	0.12216 0.20518 0.15113 -0.40100
F 	F 	0.08782 0.25297 0.15240 -0.41500
C 	C 	0.61504 0.07420 0.47854 -0.03500
C 	C 	0.60255 0.09899 0.50499 0.12000
C 	C 	0.56844 0.09497 0.51962 -0.08000
C 	C 	0.54545 0.06906 0.50566 0.00200
C 	C 	0.55778 0.04478 0.47866 0.08300
C 	C 	0.59310 0.04634 0.46724 -0.04200
N 	N 	0.62235 0.12737 0.51526 -0.19700
H 	H 	0.55899 0.11347 0.54031 0.07400
C 	C 	0.50770 0.06987 0.51671 -0.00100
N 	N 	0.53559 0.02092 0.46256 -0.19300
H 	H 	0.60285 0.02711 0.44743 0.07200
C 	C 	0.48609 0.09703 0.50409 -0.08100
C 	C 	0.44918 0.09347 0.50461 0.11800
C 	C 	0.43409 0.06115 0.51504 -0.03700
C 	C 	0.45529 0.03657 0.53313 -0.04800
C 	C 	0.49213 0.04129 0.53504 0.08900
H 	H 	0.49798 0.12030 0.49257 0.06700
N 	N 	0.42837 0.12104 0.49533 -0.19800
H 	H 	0.44353 0.01280 0.54364 0.07600
N 	N 	0.51242 0.01780 0.55321 -0.19700
H 	H 	0.43962 0.14433 0.48603 0.11100
H 	H 	0.40100 0.12020 0.49915 0.12700
H 	H 	0.50091 0.99592 0.56536 0.12600
H 	H 	0.53958 0.02176 0.55655 0.11800
H 	H 	0.54544 0.00194 0.44422 0.10600
H 	H 	0.50827 0.02215 0.46622 0.10100
H 	H 	0.64565 0.13383 0.50171 0.11900
H 	H 	0.61347 0.14452 0.53595 0.11700
C 	C 	0.58664 0.09869 0.07769 -0.04100
C 	C 	0.56495 0.12279 0.09715 0.11900
C 	C 	0.52836 0.11695 0.09863 -0.08200
C 	C 	0.51319 0.08842 0.07960 -0.00000
C 	C 	0.53413 0.06821 0.05503 0.08700
C 	C 	0.57094 0.07321 0.05467 -0.04700
N 	N 	0.57913 0.15145 0.11440 -0.20000
H 	H 	0.51189 0.13375 0.11579 0.06900
C 	C 	0.47703 0.07711 0.08947 0.00200
N 	N 	0.51922 0.04343 0.03260 -0.19400
H 	H 	0.58748 0.05586 0.03821 0.07300
C 	C 	0.44802 0.09579 0.07590 -0.08100
C 	C 	0.41360 0.08864 0.08814 0.12000
C 	C 	0.40806 0.06083 0.11286 -0.04100
C 	C 	0.43695 0.04131 0.12532 -0.04200
C 	C 	0.47150 0.04964 0.11458 0.08200
H 	H 	0.45239 0.11690 0.05684 0.07600
N 	N 	0.38634 0.10929 0.07709 -0.19800
H 	H 	0.43260 0.02000 0.14417 0.07000
N 	N 	0.49920 0.03160 0.12895 -0.19300
H 	H 	0.39058 0.12895 0.05794 0.12100
H 	H 	0.36111 0.10708 0.08835 0.11900
H 	H 	0.49473 0.01105 0.14700 0.10400
H 	H 	0.52535 0.03809 0.12301 0.10000
H 	H 	0.53500 0.02770 0.01551 0.11800
H 	H 	0.49181 0.04036 0.03106 0.11500
H 	H 	0.60575 0.15800 0.11109 0.13000
H 	H 	0.56319 0.16839 0.13001 0.11100
C 	C 	0.68182 0.07821 0.36384 -0.04700
C 	C 	0.70151 0.05217 0.34460 0.12600
C 	C 	0.70403 0.05359 0.30629 -0.08500
C 	C 	0.68518 0.07885 0.28673 0.00400
C 	C 	0.66424 0.10399 0.30586 0.07900
C 	C 	0.66328 0.10373 0.34430 -0.04400
N 	N 	0.71676 0.02499 0.36250 -0.20100
H 	H 	0.71959 0.03407 0.29151 0.07900
C 	C 	0.68549 0.07702 0.24616 -0.00400
N 	N 	0.64491 0.12824 0.28756 -0.19300
H 	H 	0.64801 0.12349 0.35908 0.06200
C 	C 	0.66390 0.05226 0.22816 -0.07800
C 	C 	0.66084 0.05192 0.18987 0.11200
C 	C 	0.67820 0.07810 0.16949 -0.03400
C 	C 	0.70181 0.10122 0.18719 -0.04900
C 	C 	0.70607 0.10058 0.22542 0.09400
H 	H 	0.64927 0.03331 0.24404 0.06600
N 	N 	0.64180 0.02610 0.17277 -0.19800
H 	H 	0.71597 0.12055 0.17137 0.10200
N 	N 	0.72950 0.12285 0.24202 -0.19400
H 	H 	0.62777 0.00777 0.18806 0.10500
H 	H 	0.64214 0.02291 0.14430 0.11100
H 	H 	0.74389 0.14078 0.22658 0.12600
H 	H 	0.73431 0.12205 0.27016 0.11600
H 	H 	0.62983 0.14687 0.30198 0.10400
H 	H 	0.64427 0.12870 0.25899 0.10300
H 	H 	0.71126 0.02026 0.38998 0.15200
H 	H 	0.73277 0.00697 0.34835 0.12800
C 	C 	0.98884 0.17598 0.36732 0.10000
C 	C 	0.95993 0.15981 0.34936 -0.10600
C 	C 	0.95893 0.16003 0.31077 0.07900
C 	C 	0.99057 0.16397 0.29107 0.08900
C 	C 	0.02223 0.17106 0.31040 -0.10100
C 	C 	0.02003 0.18228 0.34741 0.09000
Br	Br	0.05816 0.20895 0.36933 -0.17100
Br	Br	0.98387 0.19455 0.41650 -0.11100
Br	Br	0.98987 0.16135 0.23827 -0.10000
Br	Br	0.91417 0.15824 0.28549 -0.16200
C 	C 	0.03383 0.01104 0.37311 0.06300
C 	C 	0.01749 0.02652 0.40405 -0.11900
C 	C 	0.03189 0.02004 0.43919 0.09300
C 	C 	0.06010 0.99595 0.44264 0.11000
C 	C 	0.07938 0.98532 0.41103 -0.12600
C 	C 	0.06748 0.99625 0.37645 0.07600
Br	Br	0.09933 0.99794 0.33548 -0.39400
Br	Br	0.00793 0.00390 0.32822 -0.41400
Br	Br	0.06864 0.97471 0.48941 -0.12100
Br	Br	0.01663 0.04660 0.48176 -0.12400
C 	C 	0.80307 0.06093 0.48442 0.06600
C 	C 	0.81783 0.09408 0.47815 0.01700
C 	C 	0.79651 0.12425 0.48293 -0.08100
C 	C 	0.75955 0.12031 0.48341 0.03600
C 	C 	0.74449 0.08668 0.48095 0.06000
C 	C 	0.76617 0.05709 0.48688 -0.11100
C 	C 	0.75015 0.02094 0.49109 0.78500
H 	H 	0.81985 0.03784 0.48329 0.09300
H 	H 	0.74268 0.14324 0.48154 0.08700
C 	C 	0.81264 0.16063 0.48283 0.77900
F 	F 	0.77341 0.99874 0.50866 -0.40700
F 	F 	0.74227 0.00681 0.45690 -0.44300
F 	F 	0.71953 0.02295 0.51173 -0.42400
F 	F 	0.81635 0.17155 0.44710 -0.42200
F 	F 	0.84549 0.16051 0.49961 -0.41000
F 	F 	0.79137 0.18436 0.50167 -0.41600
C 	C 	0.99551 0.06861 0.91852 0.10200
C 	C 	0.97064 0.04124 0.91483 -0.09900
C 	C 	0.98127 0.00616 0.91938 0.08100
C 	C 	0.01724 0.99824 0.92417 0.11500
C 	C 	0.04255 0.02536 0.92366 -0.11000
C 	C 	0.03156 0.06063 0.92253 0.09700
Br	Br	0.06599 0.09787 0.92529 -0.29500
Br	Br	0.98003 0.11692 0.91871 -0.24200
Br	Br	0.03192 0.95038 0.93183 -0.23800
Br	Br	0.94669 0.96902 0.91804 -0.29000
C 	C 	0.91280 0.17476 0.87482 0.11100
C 	C 	0.89187 0.15094 0.85393 -0.10100
C 	C 	0.89327 0.15262 0.81532 0.08900
C 	C 	0.92129 0.17078 0.79856 0.11000
C 	C 	0.94860 0.18541 0.82061 -0.10200
C 	C 	0.94193 0.19130 0.85828 0.09000
Br	Br	0.96871 0.22617 0.88556 -0.15300
Br	Br	0.89759 0.19036 0.92290 -0.10400
Br	Br	0.91798 0.18188 0.74723 -0.10000
Br	Br	0.85407 0.13585 0.78588 -0.15900
C 	C 	0.71080 0.05460 0.01751 0.02800
C 	C 	0.71025 0.08504 0.03966 0.05900
C 	C 	0.73570 0.11176 0.03445 -0.10700
C 	C 	0.76287 0.10622 0.00872 0.06300
C 	C 	0.76386 0.07548 0.98704 0.01700
C 	C 	0.73772 0.04923 0.99144 -0.07500
C 	C 	0.73855 0.01556 0.96847 0.76700
H 	H 	0.69056 0.03482 0.02117 0.09100
H 	H 	0.78341 0.12580 0.00551 0.09400
C 	C 	0.73461 0.14563 0.05706 0.78600
F 	F 	0.71311 0.99181 0.97951 -0.41100
F 	F 	0.77124 0.99955 0.97158 -0.40900
F 	F 	0.73236 0.02325 0.93214 -0.41200
F 	F 	0.74463 0.13889 0.09270 -0.43400
F 	F 	0.70080 0.15951 0.05705 -0.43100
F 	F 	0.75721 0.17075 0.04320 -0.41900
C 	C 	0.99332 0.56783 0.23708 -0.03900
C 	C 	0.02796 0.56333 0.25094 0.11300
C 	C 	0.04694 0.53287 0.24151 -0.07900
C 	C 	0.03255 0.50766 0.21730 -0.00200
C 	C 	0.99948 0.51403 0.20045 0.08900
C 	C 	0.97983 0.54384 0.21105 -0.04500
N 	N 	0.04318 0.58820 0.27309 -0.19800
H 	H 	0.07270 0.52838 0.25367 0.06800
C 	C 	0.05014 0.47298 0.21374 -0.00000
N 	N 	0.98664 0.49185 0.17402 -0.19400
H 	H 	0.95377 0.54805 0.19947 0.07800
C 	C 	0.03529 0.44418 0.23159 -0.08100
C 	C 	0.05554 0.41403 0.23801 0.11600
C 	C 	0.09158 0.41344 0.22772 -0.04000
C 	C 	0.10512 0.44039 0.20612 -0.04500
C 	C 	0.08438 0.46999 0.19841 0.08700
H 	H 	0.00845 0.44584 0.24190 0.06900
N 	N 	0.04038 0.38585 0.25420 -0.19800
H 	H 	0.13228 0.43910 0.19670 0.07800
N 	N 	0.09748 0.49550 0.17659 -0.19400
H 	H 	0.01413 0.38696 0.26306 0.11100
H 	H 	0.05402 0.36215 0.25675 0.11200
H 	H 	0.12326 0.49378 0.16643 0.11700
H 	H 	0.08175 0.51652 0.16841 0.11300
H 	H 	0.96170 0.49609 0.16255 0.11700
H 	H 	0.00178 0.47100 0.16368 0.11200
H 	H 	0.03103 0.61243 0.27814 0.11100
H 	H 	0.06822 0.58401 0.28436 0.10800
C 	C 	0.99986 0.60508 0.63802 -0.03400
C 	C 	0.98404 0.57198 0.63078 0.11600
C 	C 	0.00357 0.54127 0.63661 -0.08200
C 	C 	0.03698 0.54293 0.65334 0.00000
C 	C 	0.05035 0.57580 0.66578 0.09100
C 	C 	0.03222 0.60673 0.65688 -0.04700
N 	N 	0.94985 0.56954 0.61944 -0.19800
H 	H 	0.99270 0.51600 0.62827 0.07400
C 	C 	0.05906 0.51072 0.65422 -0.00100
N 	N 	0.08023 0.57777 0.68649 -0.19400
H 	H 	0.04372 0.63207 0.66392 0.10100
C 	C 	0.08985 0.50896 0.63286 -0.07900
C 	C 	0.10739 0.47684 0.62725 0.11400
C 	C 	0.09151 0.44549 0.63952 -0.03600
C 	C 	0.06264 0.44765 0.66365 -0.04400
C 	C 	0.04710 0.48028 0.67218 0.09200
H 	H 	0.10008 0.53258 0.62047 0.07100
N 	N 	0.13988 0.47637 0.61136 -0.19800
H 	H 	0.05152 0.42389 0.67489 0.09900
N 	N 	0.02086 0.48226 0.69757 -0.19400
H 	H 	0.15060 0.49929 0.60055 0.10800
H 	H 	0.15575 0.45393 0.61194 0.11100
H 	H 	0.01115 0.45949 0.70964 0.12300
H 	H 	0.01100 0.50648 0.70674 0.11200
H 	H 	0.09070 0.60218 0.69436 0.12400
H 	H 	0.09242 0.55519 0.69633 0.11100
H 	H 	0.93311 0.59136 0.62033 0.10800
H 	H 	0.93899 0.54517 0.61204 0.10900
C 	C 	0.94873 0.66640 0.53345 -0.03500
C 	C 	0.92416 0.64082 0.52091 0.11300
C 	C 	0.92053 0.63418 0.48315 -0.07800
C 	C 	0.93951 0.65402 0.45784 -0.00300
C 	C 	0.96042 0.68272 0.47032 0.09500
C 	C 	0.96533 0.68825 0.50814 -0.04700
N 	N 	0.90360 0.62308 0.54492 -0.19800
H 	H 	0.90330 0.61320 0.47347 0.06900
C 	C 	0.93966 0.64267 0.41879 0.00500
N 	N 	0.97607 0.70471 0.44622 -0.19400
H 	H 	0.98315 0.70875 0.51781 0.09900
C 	C 	0.91024 0.65007 0.39680 -0.08400
C 	C 	0.91018 0.64100 0.35933 0.13100
C 	C 	0.94107 0.62653 0.34321 -0.04600
C 	C 	0.96978 0.61754 0.36557 -0.04400
C 	C 	0.96907 0.62475 0.40340 0.08000
H 	H 	0.88721 0.66257 0.40895 0.07900
N 	N 	0.88014 0.64512 0.33933 -0.19600
H 	H 	0.99314 0.60568 0.35337 0.05900
N 	N 	0.99662 0.61446 0.42470 -0.19200
H 	H 	0.85800 0.65738 0.35093 0.13700
H 	H 	0.87783 0.63448 0.31288 0.15500
H 	H 	0.01869 0.60224 0.41289 0.10200
H 	H 	0.99601 0.61743 0.45317 0.10500
H 	H 	0.99243 0.72510 0.45562 0.12900
H 	H 	0.97128 0.70251 0.41809 0.11800
H 	H 	0.90270 0.63033 0.57263 0.10900
H 	H 	0.88680 0.60300 0.53566 0.10800
C 	C 	0.98557 0.01536 0.77541 0.08300
C 	C 	0.01402 0.99225 0.78099 -0.08400
C 	C 	0.04886 0.00527 0.78201 0.08700
C 	C 	0.05485 0.04171 0.78198 0.10100
C 	C 	0.02608 0.06499 0.77966 -0.10700
C 	C 	0.99169 0.05174 0.77410 0.10800
Br	Br	0.95309 0.08347 0.76474 -0.22800
Br	Br	0.93813 0.99734 0.77141 -0.28400
Br	Br	0.10219 0.05977 0.78698 -0.28900
Br	Br	0.08826 0.97313 0.78342 -0.22400
C 	C 	0.88929 0.90797 0.85651 0.07500
C 	C 	0.89368 0.91302 0.81861 -0.11200
C 	C 	0.87192 0.93790 0.80091 0.10400
C 	C 	0.85348 0.96320 0.82210 0.07400
C 	C 	0.85581 0.96275 0.86065 -0.11300
C 	C 	0.86965 0.93244 0.87756 0.10600
Br	Br	0.85782 0.92155 0.92758 -0.07700
Br	Br	0.90669 0.86564 0.87874 -0.18000
Br	Br	0.82186 0.99568 0.79860 -0.18300
Br	Br	0.86344 0.93488 0.74874 -0.07900
C 	C 	0.08099 0.87380 0.88297 0.09000
C 	C 	0.08183 0.87640 0.84442 -0.10100
C 	C 	0.11312 0.88892 0.82779 0.11000
C 	C 	0.13776 0.90828 0.84903 0.08700
C 	C 	0.13184 0.91327 0.88697 -0.10100
C 	C 	0.10672 0.89155 0.90434 0.11100
Br	Br	0.11195 0.88014 0.95542 -0.09900
Br	Br	0.04891 0.84146 0.90598 -0.15000
Br	Br	0.18205 0.92243 0.82749 -0.15400
Br	Br	0.12596 0.87344 0.77891 -0.10100
C 	C 	0.00614 0.77989 0.67562 0.06300
C 	C 	0.97616 0.78990 0.69577 0.01800
C 	C 	0.94376 0.77189 0.69021 -0.07700
C 	C 	0.94309 0.74176 0.66735 0.03200
C 	C 	0.97340 0.73103 0.64818 0.05900
C 	C 	0.00489 0.75101 0.65108 -0.10900
C 	C 	0.03754 0.74069 0.62921 0.78700
H 	H 	0.03066 0.79418 0.67975 0.09500
H 	H 	0.91914 0.72625 0.66485 0.09300
C 	C 	0.91022 0.78393 0.70952 0.77800
F 	F 	0.06367 0.76611 0.63179 -0.41700
F 	F 	0.02892 0.73629 0.59257 -0.43200
F 	F 	0.05104 0.70954 0.64225 -0.43800
F 	F 	0.90637 0.81997 0.70695 -0.41200
F 	F 	0.91184 0.77500 0.74604 -0.41100
F 	F 	0.88049 0.76839 0.69410 -0.41400
C 	C 	0.09870 0.00503 0.23849 0.09300
C 	C 	0.07310 0.03186 0.23961 -0.08700
C 	C 	0.03735 0.02318 0.23355 0.10500
C 	C 	0.02664 0.98775 0.23422 0.11100
C 	C 	0.05170 0.96146 0.24156 -0.09500
C 	C 	0.08794 0.96964 0.23971 0.12200
Br	Br	0.12254 0.93253 0.24025 -0.17100
Br	Br	0.14815 0.01681 0.23771 -0.17000
Br	Br	0.97769 0.97545 0.22736 -0.16900
Br	Br	0.00318 0.05983 0.22570 -0.18300
C 	C 	0.89031 0.97921 0.31861 0.08900
C 	C 	0.90043 0.98193 0.35584 -0.13000
C 	C 	0.91836 0.95373 0.37222 0.10200
C 	C 	0.92469 0.92296 0.35177 0.06700
C 	C 	0.92152 0.92325 0.31337 -0.11200
C 	C 	0.90137 0.95008 0.29709 0.10000
Br	Br	0.88552 0.94538 0.24700 -0.11300
Br	Br	0.86065 0.01480 0.29741 -0.21700
Br	Br	0.93463 0.87973 0.37652 -0.19700
Br	Br	0.93954 0.95899 0.42013 -0.18100
C 	C 	0.15317 0.84385 0.34404 0.07800
C 	C 	0.14656 0.84887 0.38174 -0.10600
C 	C 	0.11509 0.83505 0.39632 0.10000
C 	C 	0.08706 0.82632 0.37238 0.09100
C 	C 	0.09048 0.83281 0.33456 -0.09700
C 	C 	0.12470 0.83755 0.31998 0.08800
Br	Br	0.13307 0.83419 0.26795 -0.10000
Br	Br	0.20111 0.84278 0.32620 -0.15100
Br	Br	0.04563 0.80275 0.39047 -0.15700
Br	Br	0.11253 0.82275 0.44725 -0.11200
C 	C 	0.98289 0.70085 0.21604 0.03500
C 	C 	0.95020 0.68764 0.22756 0.05900
C 	C 	0.92032 0.70997 0.22768 -0.10900
C 	C 	0.92546 0.74645 0.22573 0.06700
C 	C 	0.95950 0.76024 0.22098 0.02200
C 	C 	0.98756 0.73717 0.21150 -0.08400
C 	C 	0.02296 0.75126 0.19890 0.77900
H 	H 	0.00533 0.68325 0.21369 0.08900
H 	H 	0.90348 0.76416 0.23082 0.09200
C 	C 	0.88335 0.69552 0.23274 0.78800
F 	F 	0.04444 0.72463 0.18530 -0.41800
F 	F 	0.04018 0.76759 0.22799 -0.43200
F 	F 	0.01793 0.77512 0.17122 -0.40600
F 	F 	0.87532 0.69506 0.26965 -0.44100
F 	F 	0.88056 0.66180 0.21818 -0.42900
F 	F 	0.85886 0.71638 0.21514 -0.41500
