data_crystal

_cell_length_a 41.52410
_cell_length_b 39.86516
_cell_length_c 25.81454
_cell_angle_alpha 93.53569
_cell_angle_beta  93.47993
_cell_angle_gamma 89.99359

_symmetry_space_group_name_	'P 1'
_symmetry_space_group_name_H-M	'P 1'

loop_
_symmetry_equiv_pos_as_xyz
  x,y,z

loop_
_atom_site_label
_atom_site_type_symbol
_atom_site_fract_x
_atom_site_fract_y
_atom_site_fract_z
_atom_site_charge
Cd	Cd	0.98627 0.90084 0.17442 1.24500
Cd	Cd	0.96936 0.95817 0.28046 1.16900
O 	O 	0.01461 0.84908 0.19644 -0.26700
O 	O 	0.99585 0.85656 0.11651 -0.30500
C 	C 	0.01141 0.83733 0.14845 0.29500
O 	O 	0.95427 0.93989 0.13810 -0.38000
O 	O 	0.96661 0.98090 0.20259 -0.45100
C 	C 	0.94836 0.96952 0.16171 0.28200
C 	C 	0.93393 0.88757 0.23647 0.29600
O 	O 	0.01714 0.93558 0.25185 -0.43900
O 	O 	0.93230 0.86821 0.19369 -0.27800
O 	O 	0.96003 0.90528 0.24483 -0.53700
C 	C 	0.03516 0.94775 0.21791 0.29800
O 	O 	0.03119 0.93476 0.17030 -0.33500
Cd	Cd	0.00149 0.87487 0.94927 1.24600
Cd	Cd	0.96460 0.91246 0.83783 1.17500
O 	O 	0.04328 0.83285 0.93126 -0.26900
O 	O 	0.03218 0.84862 0.01131 -0.24400
C 	C 	0.04895 0.82932 0.98056 0.26600
O 	O 	0.97173 0.91677 0.98345 -0.38200
O 	O 	0.93784 0.92031 0.91051 -0.44600
C 	C 	0.95107 0.93398 0.95446 0.27700
C 	C 	0.03467 0.92603 0.90197 0.30400
O 	O 	0.96839 0.85756 0.86194 -0.43900
O 	O 	0.04889 0.92056 0.94725 -0.28000
O 	O 	0.01171 0.90542 0.88576 -0.53900
C 	C 	0.94834 0.84176 0.88883 0.30600
O 	O 	0.95662 0.84019 0.93825 -0.30900
C 	C 	0.11154 0.62770 0.83790 0.15400
N 	N 	0.12257 0.62432 0.78937 -0.09500
C 	C 	0.11391 0.59714 0.75720 0.15500
N 	N 	0.09761 0.57145 0.77599 -0.13900
C 	C 	0.08698 0.57434 0.82474 0.14900
N 	N 	0.09333 0.60285 0.85515 -0.12700
C 	C 	0.03609 0.63360 0.31150 0.15700
N 	N 	0.01253 0.60988 0.31051 -0.12000
C 	C 	0.01041 0.59021 0.35132 0.15700
N 	N 	0.03347 0.59247 0.39098 -0.13900
C 	C 	0.05829 0.61455 0.39034 0.15600
N 	N 	0.05932 0.63551 0.35098 -0.10600
Cd	Cd	0.78091 0.91062 0.77075 1.25000
Cd	Cd	0.82845 0.92935 0.88880 1.16500
O 	O 	0.72745 0.88520 0.77678 -0.23100
O 	O 	0.74365 0.90081 0.70224 -0.27600
C 	C 	0.72109 0.88750 0.72730 0.28400
O 	O 	0.82263 0.94040 0.74641 -0.36600
O 	O 	0.85672 0.92981 0.81688 -0.44600
C 	C 	0.84931 0.94721 0.77595 0.28100
C 	C 	0.76545 0.96779 0.83664 0.30000
O 	O 	0.80699 0.87975 0.84954 -0.44100
O 	O 	0.75140 0.96934 0.79016 -0.25100
O 	O 	0.78072 0.94011 0.84479 -0.52400
C 	C 	0.82070 0.85928 0.81639 0.30000
O 	O 	0.81173 0.86227 0.76751 -0.31800
Cd	Cd	0.81835 0.95348 0.46033 1.24800
Cd	Cd	0.82292 0.95868 0.32326 1.16500
O 	O 	0.78040 0.91231 0.48883 -0.21600
O 	O 	0.81039 0.94362 0.54512 -0.32800
C 	C 	0.78658 0.92221 0.53728 0.29200
O 	O 	0.86153 0.98648 0.45308 -0.37400
O 	O 	0.84697 0.00206 0.37073 -0.44700
C 	C 	0.86904 0.99931 0.40917 0.27300
C 	C 	0.85166 0.90317 0.40182 0.31200
O 	O 	0.78160 0.96795 0.37859 -0.42600
O 	O 	0.85875 0.90099 0.45162 -0.28000
O 	O 	0.82906 0.92418 0.39012 -0.52700
C 	C 	0.77484 0.99640 0.40300 0.32600
O 	O 	0.78471 0.99926 0.45205 -0.31700
C 	C 	0.53347 0.85591 0.87467 0.15600
N 	N 	0.53835 0.85155 0.92647 -0.12600
C 	C 	0.51998 0.86853 0.96114 0.12100
N 	N 	0.49492 0.88747 0.94373 -0.14000
C 	C 	0.48939 0.89115 0.89206 0.14900
N 	N 	0.50899 0.87587 0.85774 -0.10200
C 	C 	0.57939 0.94309 0.42159 0.16100
N 	N 	0.57699 0.92673 0.37366 -0.12600
C 	C 	0.55358 0.93519 0.33783 0.14900
N 	N 	0.53179 0.95921 0.35062 -0.13700
C 	C 	0.53442 0.97608 0.39799 0.15000
N 	N 	0.55842 0.96825 0.43328 -0.10000
Cd	Cd	0.82485 0.13814 0.19995 1.24500
Cd	Cd	0.88000 0.10046 0.29534 1.17100
O 	O 	0.79490 0.18413 0.24243 -0.28100
O 	O 	0.79403 0.17631 0.15727 -0.28500
C 	C 	0.78442 0.19411 0.19751 0.29600
O 	O 	0.85375 0.10081 0.15184 -0.36200
O 	O 	0.89576 0.09195 0.21303 -0.43900
C 	C 	0.87693 0.08125 0.17180 0.28500
C 	C 	0.88270 0.17017 0.24182 0.30800
O 	O 	0.83125 0.08548 0.25435 -0.47700
O 	O 	0.87304 0.18149 0.19704 -0.27700
O 	O 	0.86387 0.14847 0.26049 -0.53300
C 	C 	0.80054 0.08806 0.25926 0.29300
O 	O 	0.78440 0.10272 0.22227 -0.32000
Cd	Cd	0.84504 0.12358 0.98869 1.23600
Cd	Cd	0.83498 0.07568 0.86895 1.16700
O 	O 	0.81177 0.17413 0.00070 -0.21900
O 	O 	0.84486 0.15751 0.06329 -0.34700
C 	C 	0.82467 0.18030 0.04741 0.29100
O 	O 	0.87427 0.07720 0.00148 -0.36000
O 	O 	0.88150 0.06496 0.91480 -0.43900
C 	C 	0.88462 0.05680 0.96367 0.25100
C 	C 	0.79094 0.08024 0.96962 0.27900
O 	O 	0.84914 0.13152 0.88882 -0.43400
O 	O 	0.79439 0.08940 0.01920 -0.25200
O 	O 	0.80949 0.09524 0.93996 -0.53600
C 	C 	0.87816 0.14333 0.89983 0.31100
O 	O 	0.88742 0.14673 0.94907 -0.36300
C 	C 	0.86588 0.39761 0.94351 0.16900
N 	N 	0.89380 0.41556 0.94637 -0.11100
C 	C 	0.89897 0.43805 0.91034 0.14900
N 	N 	0.87691 0.44140 0.87001 -0.14200
C 	C 	0.84899 0.42343 0.86682 0.14800
N 	N 	0.84337 0.40195 0.90412 -0.12400
C 	C 	0.79079 0.39286 0.40437 0.15500
N 	N 	0.81212 0.41498 0.38748 -0.11700
C 	C 	0.83052 0.43479 0.42233 0.15700
N 	N 	0.82594 0.43405 0.47386 -0.14000
C 	C 	0.80349 0.41326 0.49071 0.15800
N 	N 	0.78563 0.39294 0.45587 -0.10300
Cd	Cd	0.01148 0.07950 0.70823 1.24200
Cd	Cd	0.99362 0.07223 0.84066 1.17600
O 	O 	0.05970 0.11189 0.69285 -0.27000
O 	O 	0.03358 0.08234 0.62945 -0.32700
C 	C 	0.05881 0.10075 0.64446 0.29100
O 	O 	0.97032 0.04212 0.70476 -0.37400
O 	O 	0.95173 0.06018 0.78365 -0.43600
C 	C 	0.95180 0.03774 0.74399 0.27600
C 	C 	0.04686 0.03292 0.76888 0.31400
O 	O 	0.99889 0.11815 0.79050 -0.43900
O 	O 	0.05164 0.02801 0.71950 -0.27100
O 	O 	0.03060 0.05976 0.78106 -0.53300
C 	C 	0.97604 0.13179 0.76204 0.30500
O 	O 	0.97537 0.12343 0.71232 -0.34600
Cd	Cd	0.04665 0.11846 0.39048 1.25000
Cd	Cd	0.00618 0.10284 0.26655 1.16100
O 	O 	0.09403 0.15601 0.39859 -0.27600
O 	O 	0.07488 0.13460 0.46676 -0.25600
C 	C 	0.09719 0.15262 0.44835 0.27600
O 	O 	0.00219 0.09012 0.40688 -0.36900
O 	O 	0.99402 0.06529 0.32450 -0.46100
C 	C 	0.98378 0.07262 0.37127 0.28000
C 	C 	0.00389 0.16757 0.35053 0.30600
O 	O 	0.05921 0.09427 0.29668 -0.44100
O 	O 	0.01100 0.17441 0.40013 -0.28100
O 	O 	0.02051 0.14364 0.32912 -0.53800
C 	C 	0.07065 0.06751 0.31768 0.30200
O 	O 	0.07183 0.06841 0.36837 -0.31200
C 	C 	0.24839 0.06091 0.81630 0.15900
N 	N 	0.27196 0.03763 0.81019 -0.11800
C 	C 	0.29579 0.03485 0.84799 0.15000
N 	N 	0.29562 0.05473 0.89249 -0.13900
C 	C 	0.27216 0.07805 0.89885 0.14400
N 	N 	0.24861 0.08132 0.86057 -0.10600
C 	C 	0.30406 0.15948 0.35859 0.15200
N 	N 	0.33232 0.14594 0.37666 -0.12800
C 	C 	0.35146 0.12878 0.34351 0.14700
N 	N 	0.34349 0.12713 0.29162 -0.13900
C 	C 	0.31544 0.14077 0.27320 0.14900
N 	N 	0.29520 0.15577 0.30693 -0.10300
C 	C 	0.30543 0.13602 0.21734 -0.04200
C 	C 	0.29805 0.16375 0.18693 0.14000
C 	C 	0.28744 0.15796 0.13440 -0.08700
C 	C 	0.28641 0.12530 0.11081 0.01400
C 	C 	0.29478 0.09764 0.14086 0.07800
C 	C 	0.30347 0.10329 0.19410 -0.04100
N 	N 	0.30246 0.19587 0.20714 -0.19400
H 	H 	0.28136 0.17909 0.11119 0.08300
C 	C 	0.27925 0.12065 0.05379 -0.02400
N 	N 	0.29495 0.06573 0.11881 -0.19200
H 	H 	0.30918 0.08210 0.21741 0.06000
C 	C 	0.30367 0.12696 0.02047 -0.03600
C 	C 	0.29992 0.11704 0.96733 0.07400
C 	C 	0.27194 0.09903 0.94793 -0.01200
C 	C 	0.24611 0.09605 0.97998 -0.09100
C 	C 	0.24932 0.10725 0.03278 0.13000
H 	H 	0.32597 0.13883 0.03615 0.06500
N 	N 	0.32311 0.12495 0.93509 -0.19200
H 	H 	0.22410 0.08347 0.96455 0.10600
N 	N 	0.22395 0.10447 0.06318 -0.20000
H 	H 	0.34434 0.13704 0.94995 0.10300
H 	H 	0.31964 0.12055 0.89483 0.11100
H 	H 	0.20229 0.09353 0.04780 0.12200
H 	H 	0.22514 0.11403 0.10184 0.11400
H 	H 	0.30070 0.04550 0.14152 0.10700
H 	H 	0.28998 0.06065 0.07899 0.10900
H 	H 	0.31451 0.20112 0.24338 0.16100
H 	H 	0.29538 0.21611 0.18528 0.14100
C 	C 	0.22701 0.19534 0.40768 0.04200
C 	C 	0.22658 0.18062 0.45568 0.09100
C 	C 	0.25561 0.16750 0.47790 -0.10400
C 	C 	0.28189 0.16215 0.44661 0.05000
C 	C 	0.28091 0.17356 0.39605 0.05300
C 	C 	0.25518 0.19471 0.38016 -0.09300
C 	C 	0.19496 0.17280 0.47626 0.10100
C 	C 	0.25801 0.15649 0.53312 0.79000
H 	H 	0.30247 0.14794 0.46090 0.09200
C 	C 	0.25783 0.21756 0.33581 0.78400
H 	H 	0.20519 0.20633 0.39099 0.11400
C 	C 	0.17296 0.19863 0.48964 -0.10200
C 	C 	0.13977 0.19108 0.48732 0.09100
C 	C 	0.12893 0.15794 0.47630 0.03300
C 	C 	0.15174 0.13154 0.47667 -0.07100
C 	C 	0.18448 0.13926 0.47322 0.04200
C 	C 	0.18414 0.23455 0.50238 0.79200
H 	H 	0.12234 0.21127 0.49008 0.10300
C 	C 	0.14107 0.09512 0.47376 0.78100
H 	H 	0.20137 0.11936 0.46408 0.12300
F 	F 	0.24023 0.24663 0.34474 -0.40000
F 	F 	0.24572 0.20133 0.28986 -0.44100
F 	F 	0.28956 0.22689 0.33099 -0.43400
F 	F 	0.25021 0.12279 0.53281 -0.38400
F 	F 	0.23759 0.17489 0.56427 -0.36200
F 	F 	0.28915 0.16110 0.55469 -0.39900
F 	F 	0.13110 0.08531 0.42308 -0.46000
F 	F 	0.11606 0.09081 0.50565 -0.42700
F 	F 	0.16611 0.07448 0.48974 -0.38400
F 	F 	0.16416 0.25063 0.53699 -0.39000
F 	F 	0.18317 0.25172 0.45742 -0.41500
F 	F 	0.21521 0.23572 0.52505 -0.38000
C 	C 	0.16834 0.06376 0.73761 0.04600
C 	C 	0.17836 0.07358 0.68979 0.07800
C 	C 	0.21162 0.07868 0.68331 -0.09200
C 	C 	0.23390 0.07558 0.72602 0.04900
C 	C 	0.22388 0.06533 0.77353 0.05200
C 	C 	0.19092 0.05802 0.77888 -0.09200
C 	C 	0.15335 0.08084 0.64848 0.11500
C 	C 	0.22328 0.09031 0.63274 0.78800
H 	H 	0.25916 0.08134 0.72250 0.09000
C 	C 	0.17955 0.04538 0.82907 0.78400
H 	H 	0.14278 0.06087 0.74263 0.09800
C 	C 	0.13278 0.05483 0.62588 -0.10900
C 	C 	0.10051 0.06257 0.61172 0.09500
C 	C 	0.08947 0.09566 0.61943 0.01500
C 	C 	0.11257 0.12180 0.62474 -0.05800
C 	C 	0.14422 0.11436 0.64258 0.03200
C 	C 	0.14356 0.01851 0.62347 0.79600
H 	H 	0.08325 0.04243 0.60189 0.08500
C 	C 	0.10252 0.15793 0.61975 0.77900
H 	H 	0.16045 0.13456 0.65699 0.13100
F 	F 	0.14819 0.03332 0.82261 -0.43700
F 	F 	0.18063 0.07138 0.86714 -0.45300
F 	F 	0.19898 0.01942 0.84552 -0.43100
F 	F 	0.21866 0.12456 0.63117 -0.38500
F 	F 	0.20684 0.07413 0.59016 -0.36000
F 	F 	0.25580 0.08364 0.62882 -0.38900
F 	F 	0.09451 0.17184 0.66763 -0.42000
F 	F 	0.07620 0.15987 0.58452 -0.42500
F 	F 	0.12753 0.17636 0.60246 -0.40400
F 	F 	0.12781 0.00077 0.58159 -0.40800
F 	F 	0.13631 0.00402 0.66867 -0.42800
F 	F 	0.17638 0.01604 0.61762 -0.38400
C 	C 	0.82791 0.42248 0.81839 -0.03900
C 	C 	0.82262 0.45168 0.79055 0.11600
C 	C 	0.81217 0.44833 0.73770 -0.08100
C 	C 	0.80458 0.41657 0.71363 -0.00200
C 	C 	0.80459 0.38822 0.74394 0.08900
C 	C 	0.81691 0.39126 0.79586 -0.04600
N 	N 	0.82674 0.48283 0.81459 -0.19800
H 	H 	0.81060 0.47035 0.71503 0.06800
C 	C 	0.80224 0.41240 0.65610 0.00200
N 	N 	0.79316 0.35803 0.72323 -0.19400
H 	H 	0.81928 0.36902 0.81793 0.07700
C 	C 	0.82853 0.39869 0.63067 -0.08300
C 	C 	0.82830 0.39636 0.57625 0.12900
C 	C 	0.80181 0.40938 0.54681 -0.03400
C 	C 	0.77489 0.42177 0.57205 -0.04300
C 	C 	0.77467 0.42306 0.62658 0.08700
H 	H 	0.84931 0.38985 0.65340 0.07000
N 	N 	0.85338 0.38131 0.55253 -0.20000
H 	H 	0.75433 0.43106 0.54931 0.07300
N 	N 	0.74794 0.43427 0.65019 -0.19400
H 	H 	0.87329 0.37270 0.57461 0.11700
H 	H 	0.85292 0.37693 0.51223 0.15700
H 	H 	0.72798 0.44278 0.62814 0.11600
H 	H 	0.74636 0.43385 0.69035 0.11200
H 	H 	0.79435 0.33686 0.74522 0.12100
H 	H 	0.78190 0.35559 0.68589 0.11600
H 	H 	0.83038 0.48611 0.85498 0.11800
H 	H 	0.82437 0.50424 0.79327 0.10900
C 	C 	0.89308 0.13524 0.80812 -0.03200
C 	C 	0.89998 0.14995 0.85841 -0.11100
C 	C 	0.92873 0.16894 0.86885 0.10600
C 	C 	0.95299 0.16612 0.83340 -0.05700
C 	C 	0.94785 0.14679 0.78640 -0.09700
C 	C 	0.91631 0.13527 0.77100 0.08300
C 	C 	0.90712 0.12366 0.71538 -0.20200
H 	H 	0.86996 0.12311 0.79822 0.00700
H 	H 	0.97646 0.17744 0.84360 0.05900
C 	C 	0.93365 0.19237 0.91679 -0.22700
H 	H 	0.88053 0.12138 0.70829 0.07800
H 	H 	0.91786 0.09874 0.70591 0.08800
H 	H 	0.91562 0.14213 0.68868 0.10500
H 	H 	0.94294 0.17813 0.95014 0.09900
H 	H 	0.91072 0.20502 0.92610 0.16200
H 	H 	0.95137 0.21243 0.91074 0.11500
C 	C 	0.80929 0.27201 0.05316 0.05400
C 	C 	0.84143 0.28282 0.05992 0.09500
C 	C 	0.86440 0.26226 0.08523 -0.08500
C 	C 	0.85708 0.22805 0.08878 0.07400
C 	C 	0.82674 0.21529 0.06985 0.01100
C 	C 	0.80148 0.23826 0.05897 -0.06900
C 	C 	0.85162 0.31195 0.03184 0.13800
C 	C 	0.89758 0.27567 0.10356 0.79200
H 	H 	0.87587 0.21091 0.10108 0.08000
C 	C 	0.76683 0.22671 0.04800 0.79500
H 	H 	0.79097 0.28896 0.03844 0.12000
C 	C 	0.85992 0.30777 0.97928 -0.14600
C 	C 	0.86603 0.33634 0.95215 0.07300
C 	C 	0.86305 0.36869 0.97568 0.00600
C 	C 	0.85494 0.37296 0.02810 -0.03900
C 	C 	0.84932 0.34438 0.05573 0.01600
C 	C 	0.85918 0.27323 0.95049 0.79300
H 	H 	0.87201 0.33359 0.91182 0.07500
C 	C 	0.85184 0.40790 0.05426 0.77300
H 	H 	0.84235 0.34724 0.09550 0.16300
F 	F 	0.76006 0.22306 0.99485 -0.41400
F 	F 	0.74615 0.25040 0.06898 -0.39400
F 	F 	0.76104 0.19651 0.06939 -0.40300
F 	F 	0.89547 0.30803 0.12565 -0.39500
F 	F 	0.91701 0.27582 0.06196 -0.40700
F 	F 	0.91193 0.25594 0.14072 -0.43200
F 	F 	0.84273 0.40683 0.10485 -0.38900
F 	F 	0.82882 0.42597 0.02684 -0.40900
F 	F 	0.88116 0.42447 0.05552 -0.40900
F 	F 	0.87130 0.27419 0.90180 -0.44700
F 	F 	0.82774 0.26161 0.94401 -0.43600
F 	F 	0.87763 0.25071 0.97788 -0.45000
C 	C 	0.91666 0.18742 0.32111 -0.05800
C 	C 	0.91447 0.17888 0.26748 -0.11200
C 	C 	0.94294 0.17566 0.24022 0.07800
C 	C 	0.97300 0.17772 0.26808 -0.06500
C 	C 	0.97492 0.18098 0.32264 -0.11900
C 	C 	0.94683 0.18982 0.34871 0.09800
C 	C 	0.94870 0.20244 0.40508 -0.21600
H 	H 	0.89480 0.19154 0.34156 0.05600
H 	H 	0.99489 0.17393 0.24760 0.01300
C 	C 	0.94152 0.16867 0.18196 -0.21900
H 	H 	0.96848 0.22116 0.41277 0.12300
H 	H 	0.95274 0.18115 0.43039 0.09400
H 	H 	0.92600 0.21515 0.41569 0.10600
H 	H 	0.93035 0.19024 0.16252 0.14300
H 	H 	0.92729 0.14550 0.17072 0.07200
H 	H 	0.96595 0.16489 0.16731 0.06500
C 	C 	0.73642 0.26823 0.23509 0.03000
C 	C 	0.76152 0.29196 0.24183 0.11400
C 	C 	0.78972 0.28647 0.21421 -0.11700
C 	C 	0.79527 0.25432 0.19107 0.07700
C 	C 	0.77251 0.22859 0.19330 0.02200
C 	C 	0.74133 0.23689 0.20876 -0.05400
C 	C 	0.76239 0.31598 0.28805 0.07300
C 	C 	0.81627 0.31275 0.21677 0.79400
H 	H 	0.81884 0.24820 0.17741 0.07800
C 	C 	0.71455 0.21096 0.20357 0.77800
H 	H 	0.71433 0.27281 0.25467 0.13000
C 	C 	0.74862 0.34836 0.28589 -0.08200
C 	C 	0.75674 0.37285 0.32631 0.05000
C 	C 	0.77792 0.36523 0.36842 0.05700
C 	C 	0.78947 0.33191 0.37235 -0.09000
C 	C 	0.78012 0.30730 0.33309 0.04900
C 	C 	0.72436 0.35634 0.24194 0.78500
H 	H 	0.74738 0.39815 0.32446 0.10100
C 	C 	0.81238 0.32271 0.41749 0.78600
H 	H 	0.78854 0.28169 0.33563 0.10000
F 	F 	0.71690 0.19046 0.15871 -0.38200
F 	F 	0.68467 0.22638 0.20101 -0.39100
F 	F 	0.71667 0.19147 0.24612 -0.42500
F 	F 	0.83538 0.31057 0.26218 -0.42300
F 	F 	0.80354 0.34474 0.21527 -0.39200
F 	F 	0.83545 0.30779 0.17511 -0.41800
F 	F 	0.82353 0.29009 0.41085 -0.43000
F 	F 	0.79663 0.32542 0.46322 -0.44200
F 	F 	0.83893 0.34385 0.42170 -0.45400
F 	F 	0.71429 0.38945 0.24626 -0.40200
F 	F 	0.69755 0.33590 0.24297 -0.41000
F 	F 	0.73783 0.35091 0.19446 -0.37600
C 	C 	0.51337 0.00505 0.40877 -0.02700
C 	C 	0.51510 0.03397 0.37997 0.11500
C 	C 	0.48907 0.05641 0.37853 -0.07800
C 	C 	0.46241 0.05154 0.40808 -0.00100
C 	C 	0.46290 0.02524 0.44258 0.09200
C 	C 	0.48815 0.00176 0.44182 -0.03900
N 	N 	0.54175 0.04041 0.35409 -0.19800
H 	H 	0.48928 0.07733 0.35362 0.07000
C 	C 	0.43257 0.07102 0.39727 0.00100
N 	N 	0.43927 0.02242 0.47631 -0.19400
H 	H 	0.48757 0.98030 0.46561 0.09600
C 	C 	0.40632 0.05491 0.36940 -0.08000
C 	C 	0.37867 0.07302 0.35454 0.11700
C 	C 	0.37833 0.10839 0.36430 -0.04000
C 	C 	0.40417 0.12441 0.39341 -0.04400
C 	C 	0.43104 0.10591 0.41107 0.08800
H 	H 	0.40730 0.02808 0.35969 0.07100
N 	N 	0.35228 0.05625 0.33235 -0.19800
H 	H 	0.40342 0.15134 0.40226 0.07700
N 	N 	0.45499 0.12164 0.44170 -0.19400
H 	H 	0.35334 0.03042 0.32284 0.11000
H 	H 	0.33004 0.06817 0.32708 0.11200
H 	H 	0.45413 0.14757 0.45043 0.11900
H 	H 	0.47406 0.10821 0.45857 0.11500
H 	H 	0.43916 0.00227 0.50037 0.12600
H 	H 	0.42155 0.04082 0.48039 0.11600
H 	H 	0.56275 0.02626 0.35916 0.11100
H 	H 	0.54226 0.06087 0.33070 0.11000
C 	C 	0.46269 0.91244 0.87339 -0.02900
C 	C 	0.45955 0.94601 0.89365 0.10900
C 	C 	0.43075 0.96334 0.88308 -0.07600
C 	C 	0.40599 0.94853 0.85009 -0.00500
C 	C 	0.41051 0.91628 0.82548 0.09700
C 	C 	0.43872 0.89831 0.83801 -0.04600
N 	N 	0.48437 0.96199 0.92188 -0.19700
H 	H 	0.42764 0.98853 0.90040 0.06300
C 	C 	0.37510 0.96667 0.84310 0.00300
N 	N 	0.38778 0.90231 0.79050 -0.19400
H 	H 	0.44164 0.87295 0.82123 0.10800
C 	C 	0.37294 0.99249 0.80859 -0.08500
C 	C 	0.34649 0.01442 0.80788 0.12300
C 	C 	0.32136 0.00971 0.84152 -0.03700
C 	C 	0.32250 0.98246 0.87337 -0.04600
C 	C 	0.34925 0.96097 0.87485 0.08300
H 	H 	0.39258 0.99640 0.78375 0.07700
N 	N 	0.34582 0.04036 0.77592 -0.19800
H 	H 	0.30294 0.97861 0.89842 0.07400
N 	N 	0.35015 0.93529 0.90728 -0.19300
H 	H 	0.36454 0.04360 0.75137 0.12100
H 	H 	0.32693 0.05761 0.77512 0.12100
H 	H 	0.33111 0.93158 0.93102 0.11000
H 	H 	0.36947 0.91857 0.90895 0.10500
H 	H 	0.39105 0.87820 0.77337 0.13200
H 	H 	0.36699 0.91539 0.77925 0.11900
H 	H 	0.50734 0.95136 0.92492 0.10700
H 	H 	0.48132 0.98620 0.93877 0.10000
C 	C 	0.52873 0.86884 0.01755 -0.01100
C 	C 	0.55953 0.88004 0.03859 0.11100
C 	C 	0.56575 0.88265 0.09277 -0.07400
C 	C 	0.54081 0.87870 0.12618 -0.00300
C 	C 	0.51019 0.86705 0.10533 0.09000
C 	C 	0.50482 0.86129 0.05125 -0.05300
N 	N 	0.58244 0.89030 0.00744 -0.18200
H 	H 	0.58932 0.89102 0.10894 0.07100
C 	C 	0.54542 0.89256 0.18085 -0.00000
N 	N 	0.48577 0.86187 0.13680 -0.19500
H 	H 	0.48142 0.85231 0.03521 0.08000
C 	C 	0.54575 0.92754 0.19067 -0.08100
C 	C 	0.55186 0.94184 0.24130 0.11200
C 	C 	0.55378 0.92081 0.28363 -0.04100
C 	C 	0.55406 0.88577 0.27392 -0.04500
C 	C 	0.55087 0.87141 0.22267 0.08700
H 	H 	0.54265 0.94371 0.15845 0.06600
N 	N 	0.55756 0.97543 0.24874 -0.19800
H 	H 	0.55646 0.86964 0.30624 0.08100
N 	N 	0.55276 0.83747 0.21401 -0.19400
H 	H 	0.55387 0.99112 0.21796 0.10300
H 	H 	0.56816 0.98580 0.28379 0.10300
H 	H 	0.55628 0.82206 0.24517 0.12100
H 	H 	0.55122 0.82609 0.17643 0.11600
H 	H 	0.46318 0.85358 0.12096 0.11400
H 	H 	0.48889 0.86580 0.17712 0.10900
H 	H 	0.57677 0.89556 0.96889 0.09900
H 	H 	0.60580 0.89589 0.02295 0.12200
C 	C 	0.78710 0.05588 0.38940 -0.01800
C 	C 	0.76953 0.02657 0.37356 -0.10300
C 	C 	0.75364 0.02392 0.32350 0.08300
C 	C 	0.76228 0.04588 0.28628 -0.04700
C 	C 	0.78461 0.07170 0.30003 -0.09200
C 	C 	0.79446 0.07880 0.35287 0.06000
C 	C 	0.81468 0.10938 0.36990 -0.17000
H 	H 	0.79736 0.05940 0.42900 0.06400
H 	H 	0.75294 0.04180 0.24622 0.05800
C 	C 	0.72914 0.99661 0.30865 -0.21900
H 	H 	0.81130 0.11725 0.41126 0.08400
H 	H 	0.80775 0.13095 0.34639 0.07200
H 	H 	0.84054 0.10355 0.36574 -0.02400
H 	H 	0.71621 0.98980 0.34298 0.14200
H 	H 	0.74135 0.97402 0.29194 0.06900
H 	H 	0.71078 0.00515 0.27925 0.10100
C 	C 	0.89971 0.05303 0.41188 -0.06200
C 	C 	0.89979 0.01777 0.40763 -0.08500
C 	C 	0.92827 0.00055 0.39490 0.02800
C 	C 	0.95594 0.01889 0.38500 -0.04700
C 	C 	0.95556 0.05415 0.38760 -0.10000
C 	C 	0.92728 0.07140 0.40142 0.02600
C 	C 	0.92602 0.10924 0.40321 -0.19200
H 	H 	0.87782 0.06618 0.42164 0.03200
H 	H 	0.97755 0.00568 0.37398 -0.00800
C 	C 	0.92857 0.96275 0.38821 -0.18200
H 	H 	0.90176 0.11891 0.41219 0.03100
H 	H 	0.93178 0.11820 0.36495 -0.02000
H 	H 	0.94378 0.11984 0.43373 0.08700
H 	H 	0.91369 0.95441 0.35255 -0.01600
H 	H 	0.91861 0.95184 0.42240 0.07200
H 	H 	0.95340 0.95285 0.38465 0.00400
C 	C 	0.70728 0.89627 0.56594 0.04600
C 	C 	0.69314 0.92770 0.55843 0.09500
C 	C 	0.71110 0.95701 0.57477 -0.08400
C 	C 	0.74489 0.95449 0.58186 0.08400
C 	C 	0.75978 0.92330 0.57215 0.01600
C 	C 	0.74096 0.89401 0.57471 -0.06500
C 	C 	0.66394 0.92964 0.52259 0.09000
C 	C 	0.69498 0.99105 0.57924 0.79000
H 	H 	0.75952 0.97711 0.58662 0.07900
C 	C 	0.75676 0.86002 0.57775 0.78100
H 	H 	0.69282 0.87362 0.55907 0.10600
C 	C 	0.66660 0.93337 0.46867 -0.10300
C 	C 	0.63864 0.93931 0.43726 0.05300
C 	C 	0.60801 0.93755 0.45695 0.04900
C 	C 	0.60515 0.92990 0.50948 -0.08300
C 	C 	0.63333 0.92750 0.54236 0.04600
C 	C 	0.69892 0.92971 0.44411 0.78500
H 	H 	0.64057 0.94506 0.39708 0.08100
C 	C 	0.57234 0.92517 0.53107 0.78400
H 	H 	0.63153 0.92408 0.58342 0.12300
F 	F 	0.76031 0.84602 0.52808 -0.39900
F 	F 	0.73800 0.83882 0.60397 -0.42400
F 	F 	0.78678 0.86298 0.60404 -0.43600
F 	F 	0.66500 0.98835 0.59925 -0.39400
F 	F 	0.69129 0.00392 0.53073 -0.40900
F 	F 	0.71334 0.01329 0.61212 -0.41500
F 	F 	0.57503 0.90926 0.57733 -0.41000
F 	F 	0.55250 0.90559 0.49637 -0.42400
F 	F 	0.55817 0.95617 0.54035 -0.41800
F 	F 	0.69564 0.93102 0.39057 -0.45300
F 	F 	0.71252 0.89907 0.45476 -0.42600
F 	F 	0.71959 0.95529 0.46325 -0.44100
C 	C 	0.90607 0.95672 0.75369 -0.03300
C 	C 	0.87442 0.96890 0.75664 -0.09900
C 	C 	0.86787 0.00283 0.74694 0.06000
C 	C 	0.89328 0.02424 0.73637 -0.04500
C 	C 	0.92529 0.01274 0.73763 -0.07500
C 	C 	0.93158 0.97838 0.74434 0.02900
C 	C 	0.96572 0.96542 0.74699 -0.17600
H 	H 	0.91108 0.93064 0.76080 -0.00800
H 	H 	0.88840 0.05049 0.73070 0.03400
C 	C 	0.83425 0.01685 0.75070 -0.18400
H 	H 	0.96632 0.93753 0.74263 -0.00600
H 	H 	0.97787 0.97367 0.78515 -0.01100
H 	H 	0.97937 0.97503 0.71529 0.07900
H 	H 	0.82536 0.01291 0.78961 -0.00100
H 	H 	0.81769 0.00424 0.72016 0.09600
H 	H 	0.83359 0.04428 0.74525 0.02900
C 	C 	0.77804 0.99059 0.92783 -0.03200
C 	C 	0.76229 0.99459 0.87878 -0.14200
C 	C 	0.74589 0.02518 0.87006 0.10700
C 	C 	0.75178 0.05301 0.90532 -0.08000
C 	C 	0.77253 0.05032 0.94970 -0.09300
C 	C 	0.78263 0.01824 0.96390 0.01900
C 	C 	0.79815 0.01343 0.01725 -0.15800
H 	H 	0.78748 0.96625 0.93739 -0.04600
H 	H 	0.74209 0.07738 0.89630 0.06600
C 	C 	0.72182 0.02840 0.82450 -0.23800
H 	H 	0.80474 0.98677 0.02231 0.04500
H 	H 	0.78113 0.02129 0.04723 0.08900
H 	H 	0.82044 0.02880 0.02389 0.06400
H 	H 	0.70530 0.00638 0.82021 0.16900
H 	H 	0.73462 0.03083 0.78839 0.12000
H 	H 	0.70648 0.05103 0.83015 0.11600
C 	C 	0.63339 0.89247 0.72410 0.05100
C 	C 	0.62797 0.85797 0.72694 0.08500
C 	C 	0.64923 0.83502 0.70293 -0.08900
C 	C 	0.68005 0.84646 0.69210 0.07500
C 	C 	0.68859 0.88028 0.70363 0.03200
C 	C 	0.66376 0.90400 0.71160 -0.07800
C 	C 	0.60564 0.84683 0.76524 0.09700
C 	C 	0.64041 0.79819 0.69358 0.78900
H 	H 	0.69853 0.82852 0.68170 0.12500
C 	C 	0.67097 0.94127 0.71667 0.78300
H 	H 	0.61561 0.91025 0.73792 0.10400
C 	C 	0.61499 0.84864 0.81922 -0.10800
C 	C 	0.59100 0.84863 0.85536 0.05100
C 	C 	0.55837 0.84477 0.83862 0.04800
C 	C 	0.55013 0.83600 0.78541 -0.08500
C 	C 	0.57342 0.83965 0.74885 0.04100
C 	C 	0.65004 0.85403 0.83862 0.78600
H 	H 	0.59751 0.85390 0.89633 0.07900
C 	C 	0.51663 0.82353 0.76703 0.78300
H 	H 	0.56629 0.83786 0.70768 0.13400
F 	F 	0.67924 0.95081 0.76814 -0.42700
F 	F 	0.64411 0.95925 0.70032 -0.40200
F 	F 	0.69604 0.94918 0.68671 -0.42900
F 	F 	0.60923 0.79491 0.67181 -0.40500
F 	F 	0.64260 0.78270 0.74012 -0.38800
F 	F 	0.66075 0.78190 0.65977 -0.39600
F 	F 	0.51818 0.80123 0.72396 -0.39300
F 	F 	0.49756 0.85041 0.75343 -0.42800
F 	F 	0.50243 0.80690 0.80534 -0.42300
F 	F 	0.65473 0.84723 0.89048 -0.43300
F 	F 	0.65880 0.88706 0.83353 -0.43200
F 	F 	0.67012 0.83301 0.81090 -0.40900
C 	C 	0.98349 0.56587 0.35256 -0.04300
C 	C 	0.95124 0.57411 0.33661 0.13100
C 	C 	0.92687 0.54981 0.33782 -0.08100
C 	C 	0.93285 0.52007 0.36299 0.00600
C 	C 	0.96485 0.51206 0.38006 0.08200
C 	C 	0.99000 0.53435 0.37228 -0.04000
N 	N 	0.94310 0.60578 0.32414 -0.20200
H 	H 	0.90240 0.55564 0.32418 0.08400
C 	C 	0.90512 0.49938 0.37595 0.00500
N 	N 	0.97153 0.48348 0.40487 -0.19200
H 	H 	0.01465 0.52768 0.38359 0.06200
C 	C 	0.89931 0.46819 0.34882 -0.08100
C 	C 	0.87676 0.44566 0.36574 0.13500
C 	C 	0.85580 0.45687 0.40467 -0.04400
C 	C 	0.85987 0.48927 0.42872 -0.04100
C 	C 	0.88534 0.50996 0.41668 0.08300
H 	H 	0.91442 0.46022 0.31755 0.08900
N 	N 	0.87706 0.41294 0.34740 -0.20100
H 	H 	0.84384 0.49798 0.45832 0.06600
N 	N 	0.89104 0.53952 0.44505 -0.19300
H 	H 	0.89028 0.40568 0.31542 0.15000
H 	H 	0.86715 0.39403 0.36774 0.16100
H 	H 	0.87568 0.54752 0.47392 0.10800
H 	H 	0.91128 0.55426 0.44020 0.10500
H 	H 	0.99532 0.47760 0.41645 0.10700
H 	H 	0.95333 0.46723 0.41406 0.10500
H 	H 	0.95774 0.62631 0.33650 0.16300
H 	H 	0.92021 0.61061 0.30718 0.13600
C 	C 	0.92987 0.45622 0.91186 -0.03900
C 	C 	0.93103 0.49169 0.91883 0.12400
C 	C 	0.95943 0.50874 0.90925 -0.08100
C 	C 	0.98659 0.49094 0.89324 0.00500
C 	C 	0.98629 0.45536 0.89071 0.08400
C 	C 	0.95784 0.43833 0.90017 -0.04400
N 	N 	0.90509 0.50944 0.93490 -0.19900
H 	H 	0.96008 0.53599 0.91264 0.08200
C 	C 	0.01371 0.50975 0.87396 0.00200
N 	N 	0.01294 0.43745 0.87826 -0.19400
H 	H 	0.95710 0.41109 0.89624 0.06900
C 	C 	0.04007 0.51914 0.90833 -0.07900
C 	C 	0.06577 0.53779 0.89162 0.12500
C 	C 	0.06374 0.54947 0.84078 -0.04400
C 	C 	0.03770 0.53938 0.80608 -0.04000
C 	C 	0.01288 0.51922 0.82192 0.08000
H 	H 	0.04094 0.51122 0.94783 0.08000
N 	N 	0.09271 0.54328 0.92371 -0.19700
H 	H 	0.03635 0.54789 0.76691 0.06100
N 	N 	0.98830 0.50921 0.78711 -0.19100
H 	H 	0.09334 0.53613 0.96204 0.12700
H 	H 	0.11385 0.55275 0.91012 0.12100
H 	H 	0.98766 0.51682 0.74903 0.10000
H 	H 	0.96994 0.49338 0.79704 0.10000
H 	H 	0.01227 0.41119 0.87543 0.11000
H 	H 	0.03467 0.44930 0.87209 0.10600
H 	H 	0.88444 0.49739 0.94578 0.13000
H 	H 	0.90579 0.53570 0.93832 0.12100
C 	C 	0.08241 0.61757 0.43459 -0.03100
C 	C 	0.09993 0.58908 0.45010 0.11300
C 	C 	0.11288 0.58843 0.50154 -0.07600
C 	C 	0.10883 0.61593 0.53704 -0.00300
C 	C 	0.09656 0.64642 0.51877 0.10100
C 	C 	0.08311 0.64689 0.46756 -0.05100
N 	N 	0.10399 0.56225 0.41602 -0.19800
H 	H 	0.12408 0.56568 0.51487 0.07100
C 	C 	0.11027 0.61023 0.59325 0.00800
N 	N 	0.09660 0.67484 0.55069 -0.19500
H 	H 	0.07121 0.66938 0.45466 0.11300
C 	C 	0.13998 0.61302 0.62218 -0.07900
C 	C 	0.14212 0.60733 0.67553 0.13500
C 	C 	0.11375 0.59974 0.70041 -0.03000
C 	C 	0.08418 0.59659 0.67120 -0.03400
C 	C 	0.08218 0.60133 0.61781 0.08600
H 	H 	0.16153 0.61927 0.60303 0.08000
N 	N 	0.17146 0.60823 0.70207 -0.19400
H 	H 	0.06248 0.59084 0.69032 0.06800
N 	N 	0.05323 0.59725 0.59037 -0.19200
H 	H 	0.19209 0.61497 0.68381 0.12600
H 	H 	0.17431 0.60101 0.74025 0.12700
H 	H 	0.03258 0.59121 0.60912 0.10500
H 	H 	0.05092 0.59946 0.55025 0.10400
H 	H 	0.08635 0.69697 0.53762 0.13300
H 	H 	0.10775 0.67551 0.58811 0.13100
H 	H 	0.09652 0.56305 0.37674 0.11700
H 	H 	0.11586 0.54073 0.42822 0.11300
C 	C 	0.95418 0.99605 0.95834 -0.05900
C 	C 	0.93945 0.96703 0.97411 -0.09700
C 	C 	0.90977 0.96979 0.99801 0.03400
C 	C 	0.89315 0.00055 0.99886 -0.07900
C 	C 	0.90606 0.02852 0.97690 -0.08600
C 	C 	0.93791 0.02698 0.96036 0.05400
C 	C 	0.95406 0.05774 0.94250 -0.17200
H 	H 	0.97750 0.99417 0.94160 0.00800
H 	H 	0.86955 0.00219 0.01436 0.04500
C 	C 	0.89459 0.93950 0.01896 -0.13000
H 	H 	0.98074 0.05502 0.94484 -0.00800
H 	H 	0.94818 0.08037 0.96740 0.05400
H 	H 	0.94587 0.06157 0.90156 -0.00800
H 	H 	0.91302 0.92509 0.04125 0.08400
H 	H 	0.88367 0.92305 0.98626 -0.00400
H 	H 	0.87546 0.94695 0.04563 0.04500
C 	C 	0.89038 0.83190 0.90218 -0.03500
C 	C 	0.91516 0.83375 0.86782 -0.09300
C 	C 	0.90708 0.83254 0.81364 0.07100
C 	C 	0.87508 0.83818 0.79601 -0.03400
C 	C 	0.85092 0.84200 0.83158 -0.09600
C 	C 	0.85809 0.83452 0.88387 0.06900
C 	C 	0.83171 0.83043 0.92064 -0.19600
H 	H 	0.89620 0.82978 0.94336 0.06900
H 	H 	0.86931 0.84104 0.75500 0.07200
C 	C 	0.93222 0.82573 0.77460 -0.19400
H 	H 	0.83924 0.81266 0.95058 0.09600
H 	H 	0.80943 0.82006 0.89958 0.10900
H 	H 	0.82638 0.85510 0.94057 0.04400
H 	H 	0.95113 0.80853 0.78970 0.11200
H 	H 	0.94342 0.84976 0.76534 0.04100
H 	H 	0.92116 0.81341 0.73800 0.09700
C 	C 	0.05073 0.98498 0.89098 -0.03200
C 	C 	0.04573 0.95211 0.86935 -0.11900
C 	C 	0.04797 0.94529 0.81533 0.07400
C 	C 	0.04941 0.97202 0.78297 -0.03400
C 	C 	0.05096 0.00529 0.80413 -0.09800
C 	C 	0.05508 0.01149 0.85869 0.05200
C 	C 	0.06514 0.04560 0.88271 -0.17500
H 	H 	0.05072 0.99003 0.93275 0.04000
H 	H 	0.04823 0.96694 0.74114 0.07000
C 	C 	0.04755 0.90972 0.79164 -0.19400
H 	H 	0.07988 0.04307 0.91965 0.09000
H 	H 	0.04351 0.06072 0.89144 -0.03300
H 	H 	0.08020 0.05920 0.85665 0.10800
H 	H 	0.02223 0.90095 0.78403 0.02800
H 	H 	0.06075 0.89260 0.81780 0.10900
H 	H 	0.05953 0.90820 0.75423 0.10400
C 	C 	0.11227 0.71866 0.89116 0.03800
C 	C 	0.11422 0.71377 0.94457 0.08900
C 	C 	0.12283 0.68178 0.96199 -0.11600
C 	C 	0.12612 0.65475 0.92510 0.05700
C 	C 	0.11865 0.65846 0.87197 0.04800
C 	C 	0.11276 0.69116 0.85435 -0.08800
C 	C 	0.10082 0.74021 0.97998 0.11800
C 	C 	0.12348 0.67472 0.01912 0.81000
H 	H 	0.13163 0.62994 0.93818 0.08300
C 	C 	0.10634 0.69689 0.79688 0.78200
H 	H 	0.10745 0.74368 0.87851 0.11600
C 	C 	0.11762 0.77088 0.99194 -0.13800
C 	C 	0.09986 0.80037 0.00193 0.15500
C 	C 	0.06605 0.79952 0.99857 -0.01200
C 	C 	0.04995 0.76803 0.99669 -0.05600
C 	C 	0.06796 0.73848 0.98908 0.02000
C 	C 	0.15369 0.77338 0.98651 0.78600
H 	H 	0.11215 0.82447 0.00611 0.09900
C 	C 	0.01339 0.76572 0.99230 0.73700
H 	H 	0.05557 0.71450 0.98281 0.13100
F 	F 	0.09892 0.73011 0.78886 -0.42100
F 	F 	0.08049 0.67746 0.77627 -0.43900
F 	F 	0.13351 0.68876 0.77036 -0.42800
F 	F 	0.09297 0.66497 0.03075 -0.37700
F 	F 	0.13300 0.70251 0.05109 -0.35700
F 	F 	0.14482 0.64901 0.02974 -0.39100
F 	F 	0.00316 0.73616 0.01165 -0.37000
F 	F 	0.00268 0.76614 0.94057 -0.42900
F 	F 	0.99940 0.79206 0.01989 -0.42100
F 	F 	0.16683 0.79939 0.01907 -0.37600
F 	F 	0.15940 0.77950 0.93574 -0.42500
F 	F 	0.16919 0.74408 0.99945 -0.38800
C 	C 	0.91703 0.05148 0.11913 -0.04200
C 	C 	0.88707 0.05094 0.14132 -0.08900
C 	C 	0.87305 0.01952 0.14919 0.05500
C 	C 	0.89247 0.99055 0.14827 -0.05400
C 	C 	0.92505 0.99273 0.13724 -0.10200
C 	C 	0.93611 0.02235 0.11650 0.07900
C 	C 	0.96932 0.02418 0.09675 -0.18900
H 	H 	0.92692 0.07521 0.10893 0.03900
H 	H 	0.88304 0.96717 0.16062 0.01300
C 	C 	0.83873 0.01728 0.16440 -0.18400
H 	H 	0.96975 0.04187 0.06521 0.07100
H 	H 	0.97708 0.99920 0.08061 0.08500
H 	H 	0.98651 0.03341 0.12906 0.04600
H 	H 	0.82357 0.03683 0.14617 0.07900
H 	H 	0.83806 0.02061 0.20733 0.03100
H 	H 	0.82809 0.99242 0.15116 0.04500
C 	C 	0.92435 0.87901 0.32870 -0.05500
C 	C 	0.91171 0.88346 0.27790 -0.10900
C 	C 	0.87799 0.88541 0.26776 0.05800
C 	C 	0.85778 0.88587 0.30933 -0.05800
C 	C 	0.87089 0.88692 0.36086 -0.11800
C 	C 	0.90397 0.87943 0.37019 0.10000
C 	C 	0.91750 0.87087 0.42325 -0.21600
H 	H 	0.95010 0.87556 0.33600 0.05300
H 	H 	0.83193 0.88833 0.30186 0.00800
C 	C 	0.86353 0.88823 0.21314 -0.20000
H 	H 	0.94113 0.85795 0.42089 0.10300
H 	H 	0.90097 0.85352 0.44086 0.12300
H 	H 	0.92119 0.89410 0.44887 0.09200
H 	H 	0.86756 0.86454 0.18955 0.10700
H 	H 	0.87467 0.90953 0.19491 0.04700
H 	H 	0.83712 0.89278 0.21257 0.04800
C 	C 	0.06667 0.03474 0.23228 -0.04700
C 	C 	0.07549 0.03595 0.28579 -0.10800
C 	C 	0.08388 0.00564 0.30897 0.11300
C 	C 	0.07421 0.97503 0.28310 -0.05700
C 	C 	0.05877 0.97455 0.23322 -0.08800
C 	C 	0.05938 0.00381 0.20527 0.07400
C 	C 	0.05328 0.00202 0.14707 -0.19500
H 	H 	0.06406 0.05782 0.21231 0.01800
H 	H 	0.07690 0.95190 0.30293 0.07300
C 	C 	0.10345 0.00555 0.36007 -0.22800
H 	H 	0.05685 0.02681 0.13078 0.06900
H 	H 	0.02822 0.99366 0.13632 0.07700
H 	H 	0.07022 0.98389 0.12897 0.10700
H 	H 	0.08721 0.00763 0.39272 0.13000
H 	H 	0.12115 0.02656 0.36390 0.15900
H 	H 	0.11739 0.98187 0.36279 0.12000
C 	C 	0.01867 0.71595 0.24974 0.04600
C 	C 	0.02780 0.70828 0.19898 0.08000
C 	C 	0.04080 0.67627 0.18551 -0.08800
C 	C 	0.04356 0.65227 0.22331 0.04900
C 	C 	0.03392 0.65983 0.27380 0.05300
C 	C 	0.02146 0.69203 0.28746 -0.09200
C 	C 	0.02551 0.73507 0.16161 0.11000
C 	C 	0.05521 0.66893 0.13336 0.78900
H 	H 	0.05381 0.62781 0.21384 0.09800
C 	C 	0.01364 0.70191 0.34314 0.78400
H 	H 	0.00991 0.74095 0.25994 0.10500
C 	C 	0.99495 0.74583 0.14178 -0.10300
C 	C 	0.99102 0.77958 0.12994 0.09900
C 	C 	0.01741 0.80168 0.13491 0.02000
C 	C 	0.04888 0.78858 0.14242 -0.06700
C 	C 	0.05262 0.75543 0.15724 0.03200
C 	C 	0.96567 0.72300 0.13991 0.79600
H 	H 	0.96701 0.78936 0.12163 0.09700
C 	C 	0.07831 0.81104 0.14254 0.77500
H 	H 	0.07623 0.74674 0.17063 0.13500
F 	F 	0.99762 0.73235 0.34678 -0.42300
F 	F 	0.04196 0.70486 0.37415 -0.44000
F 	F 	0.99408 0.67801 0.36201 -0.44700
F 	F 	0.08497 0.68453 0.13414 -0.38300
F 	F 	0.03546 0.68050 0.09324 -0.36600
F 	F 	0.05937 0.63476 0.12308 -0.39200
F 	F 	0.08522 0.82520 0.19222 -0.41700
F 	F 	0.07318 0.83644 0.10883 -0.43000
F 	F 	0.10469 0.79260 0.12706 -0.39300
F 	F 	0.94280 0.73226 0.10222 -0.39400
F 	F 	0.95215 0.72530 0.18764 -0.42800
F 	F 	0.97397 0.68993 0.12803 -0.38500
