data_crystal

_cell_length_a 37.25008
_cell_length_b 37.52118
_cell_length_c 19.61151
_cell_angle_alpha 91.59075
_cell_angle_beta  90.30925
_cell_angle_gamma 90.00431

_symmetry_space_group_name_	'P 1'
_symmetry_space_group_name_H-M	'P 1'

loop_
_symmetry_equiv_pos_as_xyz
  x,y,z

loop_
_atom_site_label
_atom_site_type_symbol
_atom_site_fract_x
_atom_site_fract_y
_atom_site_fract_z
_atom_site_charge
Cd	Cd	0.99172 0.83477 0.21765 1.24400
Cd	Cd	0.98323 0.86994 0.38754 1.16600
O 	O 	0.94936 0.78789 0.17986 -0.30200
O 	O 	0.99038 0.80805 0.11170 -0.32500
C 	C 	0.96587 0.78405 0.12189 0.30600
O 	O 	0.02886 0.88217 0.22034 -0.36300
O 	O 	0.03511 0.88277 0.33637 -0.45500
C 	C 	0.03647 0.89947 0.27829 0.25600
C 	C 	0.93728 0.88567 0.24838 0.29700
O 	O 	0.99416 0.81276 0.34448 -0.45700
O 	O 	0.94132 0.88158 0.18246 -0.26800
O 	O 	0.95424 0.86288 0.28499 -0.53600
C 	C 	0.02523 0.79859 0.32966 0.30500
O 	O 	0.03484 0.79968 0.26595 -0.35800
Cd	Cd	0.94451 0.97627 0.98982 1.24000
Cd	Cd	0.92576 0.03254 0.84958 1.18000
O 	O 	0.90862 0.92175 0.99135 -0.31400
O 	O 	0.95469 0.92985 0.05964 -0.33800
C 	C 	0.93119 0.90758 0.03334 0.32100
O 	O 	0.98821 0.01850 0.99533 -0.39400
O 	O 	0.95647 0.05952 0.93417 -0.42200
C 	C 	0.98675 0.04872 0.96150 0.27300
C 	C 	0.97311 0.95783 0.85866 0.31000
O 	O 	0.89129 0.01395 0.94120 -0.44200
O 	O 	0.98610 0.93804 0.90630 -0.28900
O 	O 	0.94626 0.97789 0.87786 -0.53200
C 	C 	0.88894 0.02954 0.00162 0.29900
O 	O 	0.90689 0.01417 0.04991 -0.35900
C 	C 	0.95122 0.77720 0.89222 0.17200
N 	N 	0.94517 0.77631 0.82366 -0.13400
C 	C 	0.95028 0.74543 0.78700 0.13800
N 	N 	0.96207 0.71592 0.81869 -0.14500
C 	C 	0.96827 0.71697 0.88685 0.14400
N 	N 	0.96262 0.74749 0.92360 -0.13000
C 	C 	0.98435 0.65790 0.19641 0.16600
N 	N 	0.97416 0.67191 0.25789 -0.13800
C 	C 	0.97424 0.65146 0.31377 0.13600
N 	N 	0.98541 0.61708 0.30835 -0.14300
C 	C 	0.99748 0.60337 0.24772 0.12900
N 	N 	0.99719 0.62402 0.19169 -0.13500
Cd	Cd	0.91257 0.18947 0.76544 1.24400
Cd	Cd	0.97785 0.21083 0.88784 1.16800
O 	O 	0.85038 0.21149 0.77886 -0.30500
O 	O 	0.86671 0.17886 0.69021 -0.32100
C 	C 	0.84034 0.19252 0.72562 0.31400
O 	O 	0.96252 0.16660 0.72029 -0.37900
O 	O 	0.99141 0.16192 0.82302 -0.43800
C 	C 	0.99169 0.15953 0.75576 0.27200
C 	C 	0.94811 0.25612 0.76051 0.29500
O 	O 	0.92136 0.18506 0.89939 -0.44500
O 	O 	0.93071 0.24967 0.70322 -0.28100
O 	O 	0.94047 0.23506 0.80944 -0.54000
C 	C 	0.91306 0.15140 0.89182 0.28500
O 	O 	0.90691 0.14023 0.82945 -0.37600
Cd	Cd	0.92692 0.05489 0.53563 1.23800
Cd	Cd	0.98626 0.04972 0.39410 1.17500
O 	O 	0.86885 0.08306 0.51226 -0.30900
O 	O 	0.88027 0.05861 0.61053 -0.35100
C 	C 	0.85721 0.07489 0.57201 0.32100
O 	O 	0.97128 0.01883 0.57066 -0.40000
O 	O 	0.01241 0.03983 0.49496 -0.42800
C 	C 	0.00243 0.01578 0.53865 0.27900
C 	C 	0.91469 0.00197 0.43124 0.28800
O 	O 	0.96113 0.09769 0.45456 -0.44700
O 	O 	0.89579 0.99591 0.48555 -0.29400
O 	O 	0.93140 0.03237 0.43151 -0.53000
C 	C 	0.97429 0.11382 0.50902 0.29100
O 	O 	0.96106 0.10407 0.56695 -0.35600
C 	C 	0.70702 0.13258 0.80261 0.16800
N 	N 	0.67859 0.11859 0.76720 -0.13000
C 	C 	0.65239 0.10093 0.80054 0.14000
N 	N 	0.65389 0.09864 0.86946 -0.14300
C 	C 	0.68174 0.11329 0.90519 0.14200
N 	N 	0.70866 0.12965 0.87157 -0.13800
C 	C 	0.71241 0.06545 0.51783 0.16400
N 	N 	0.68380 0.04700 0.54062 -0.13300
C 	C 	0.65712 0.03685 0.49691 0.13500
N 	N 	0.65790 0.04731 0.43112 -0.14300
C 	C 	0.68517 0.06813 0.40935 0.13600
N 	N 	0.71284 0.07641 0.45232 -0.13300
Cd	Cd	0.13565 0.11184 0.26869 1.24100
Cd	Cd	0.14663 0.06382 0.42041 1.16700
O 	O 	0.17585 0.16299 0.25572 -0.30800
O 	O 	0.13535 0.14905 0.17871 -0.34700
C 	C 	0.15699 0.17341 0.20411 0.31100
O 	O 	0.10007 0.06343 0.25226 -0.38900
O 	O 	0.09416 0.05465 0.36664 -0.45200
C 	C 	0.09103 0.04272 0.30310 0.26700
C 	C 	0.19194 0.06139 0.27760 0.30100
O 	O 	0.13281 0.12317 0.40272 -0.44800
O 	O 	0.18766 0.07121 0.21456 -0.29500
O 	O 	0.17471 0.08032 0.32291 -0.54000
C 	C 	0.10118 0.13704 0.39206 0.29600
O 	O 	0.09139 0.14002 0.32877 -0.35900
Cd	Cd	0.10611 0.24703 0.01504 1.24400
Cd	Cd	0.11973 0.21452 0.84537 1.16800
O 	O 	0.13111 0.30528 0.04869 -0.30200
O 	O 	0.09445 0.27696 0.11508 -0.32800
C 	C 	0.11239 0.30602 0.10444 0.30700
O 	O 	0.07200 0.19776 0.00598 -0.39100
O 	O 	0.10505 0.17195 0.91894 -0.43200
C 	C 	0.07746 0.17141 0.96081 0.26000
C 	C 	0.06405 0.27594 0.90755 0.28300
O 	O 	0.15941 0.22930 0.93354 -0.44700
O 	O 	0.05056 0.28377 0.96730 -0.31900
O 	O 	0.09505 0.26004 0.90831 -0.54100
C 	C 	0.17048 0.20781 0.98057 0.29000
O 	O 	0.15494 0.21205 0.03969 -0.33100
C 	C 	0.06387 0.41954 0.01648 0.17500
N 	N 	0.05651 0.45486 0.01476 -0.13600
C 	C 	0.05423 0.47122 0.95397 0.13400
N 	N 	0.05839 0.45182 0.89487 -0.14100
C 	C 	0.06337 0.41597 0.89650 0.13700
N 	N 	0.06644 0.39999 0.95742 -0.14100
C 	C 	0.12966 0.30880 0.31913 0.17400
N 	N 	0.13009 0.30831 0.38848 -0.13400
C 	C 	0.12125 0.33815 0.42559 0.14000
N 	N 	0.11166 0.36824 0.39332 -0.14200
C 	C 	0.11084 0.36870 0.32424 0.14200
N 	N 	0.11973 0.33894 0.28720 -0.12600
Cd	Cd	0.17196 0.02072 0.75352 1.24000
Cd	Cd	0.10914 0.04647 0.88258 1.17700
O 	O 	0.21389 0.97277 0.78226 -0.30500
O 	O 	0.21370 0.99625 0.68116 -0.34100
C 	C 	0.22950 0.97504 0.72351 0.31400
O 	O 	0.13511 0.05944 0.70181 -0.39400
O 	O 	0.11892 0.08662 0.80298 -0.43100
C 	C 	0.11298 0.08012 0.73774 0.27900
C 	C 	0.10818 0.98006 0.76745 0.30200
O 	O 	0.17133 0.04513 0.88116 -0.44800
O 	O 	0.12554 0.97017 0.71239 -0.29000
O 	O 	0.12596 0.00083 0.80971 -0.53200
C 	C 	0.19261 0.07061 0.86184 0.29600
O 	O 	0.20445 0.06761 0.79955 -0.35200
Cd	Cd	0.19112 0.88101 0.51622 1.24300
Cd	Cd	0.13392 0.88991 0.37200 1.17400
O 	O 	0.25093 0.85613 0.49237 -0.30800
O 	O 	0.23687 0.87764 0.59407 -0.31900
C 	C 	0.26108 0.86299 0.55468 0.31500
O 	O 	0.14427 0.91256 0.55692 -0.37000
O 	O 	0.10521 0.89361 0.47251 -0.43300
C 	C 	0.11337 0.91563 0.52381 0.27400
C 	C 	0.20210 0.93886 0.42775 0.28600
O 	O 	0.16129 0.84082 0.42032 -0.44700
O 	O 	0.21903 0.94365 0.48562 -0.28500
O 	O 	0.18741 0.90775 0.41824 -0.52900
C 	C 	0.14825 0.82117 0.46810 0.29200
O 	O 	0.15940 0.82873 0.52996 -0.34300
C 	C 	0.37454 0.95153 0.78795 0.17000
N 	N 	0.40698 0.95794 0.75928 -0.12600
C 	C 	0.43710 0.95966 0.79886 0.13800
N 	N 	0.43473 0.95313 0.86657 -0.14300
C 	C 	0.40259 0.94523 0.89474 0.13900
N 	N 	0.37249 0.94486 0.85551 -0.13500
C 	C 	0.40232 0.85744 0.49122 0.16900
N 	N 	0.43646 0.86027 0.51530 -0.13100
C 	C 	0.46362 0.86887 0.47276 0.14000
N 	N 	0.45640 0.87452 0.40596 -0.14200
C 	C 	0.42257 0.87063 0.38122 0.13900
N 	N 	0.39567 0.86128 0.42358 -0.13700
C 	C 	0.40061 0.93517 0.96700 -0.04900
C 	C 	0.41806 0.95564 0.01915 0.11100
C 	C 	0.42043 0.94226 0.08517 -0.08300
C 	C 	0.40310 0.91043 0.10137 -0.00600
C 	C 	0.38297 0.89155 0.05065 0.08400
C 	C 	0.38261 0.90371 0.98354 -0.05800
N 	N 	0.43112 0.98871 0.00700 -0.19200
H 	H 	0.43497 0.95718 0.12460 0.06000
C 	C 	0.40580 0.89758 0.17208 -0.00200
N 	N 	0.36418 0.86172 0.06585 -0.19500
H 	H 	0.36863 0.88839 0.94391 0.06900
C 	C 	0.38547 0.91460 0.22336 -0.08600
C 	C 	0.39078 0.90665 0.29224 0.11000
C 	C 	0.41481 0.87892 0.30946 -0.04800
C 	C 	0.43387 0.86072 0.25772 -0.04900
C 	C 	0.43026 0.87030 0.18930 0.07400
H 	H 	0.36677 0.93545 0.20992 0.06200
N 	N 	0.37400 0.92673 0.34136 -0.20000
H 	H 	0.45235 0.83964 0.27098 0.05400
N 	N 	0.45057 0.85349 0.14071 -0.19400
H 	H 	0.35482 0.94567 0.32797 0.10100
H 	H 	0.38125 0.92542 0.39264 0.11700
H 	H 	0.46837 0.83326 0.15396 0.09300
H 	H 	0.44918 0.86041 0.08959 0.09600
H 	H 	0.34997 0.84760 0.02776 0.10200
H 	H 	0.36293 0.85258 0.11556 0.09800
H 	H 	0.42483 0.00178 0.96218 0.09600
H 	H 	0.44579 0.00273 0.04460 0.09000
C 	C 	0.31946 0.89485 0.56531 0.10900
C 	C 	0.29940 0.86328 0.57264 -0.09400
C 	C 	0.31762 0.83048 0.57610 0.11300
C 	C 	0.35384 0.82824 0.55620 0.08600
C 	C 	0.37224 0.85940 0.53920 -0.05400
C 	C 	0.35657 0.89266 0.55420 0.08400
Br	Br	0.38577 0.93504 0.55691 -0.19900
Br	Br	0.29558 0.93992 0.55630 -0.18600
Br	Br	0.37770 0.78279 0.54925 -0.17900
Br	Br	0.29211 0.78857 0.60294 -0.16900
C 	C 	0.28018 0.93200 0.73450 0.11400
C 	C 	0.26814 0.96635 0.71740 -0.09700
C 	C 	0.29365 0.99389 0.70868 0.11700
C 	C 	0.33007 0.98797 0.72451 0.09100
C 	C 	0.34121 0.95447 0.74749 -0.04900
C 	C 	0.31698 0.92576 0.74508 0.08500
Br	Br	0.33437 0.87797 0.75729 -0.17900
Br	Br	0.24601 0.89465 0.75125 -0.16700
Br	Br	0.36421 0.02647 0.71864 -0.19600
Br	Br	0.27880 0.04043 0.67953 -0.20500
C 	C 	0.06831 0.39478 0.83231 -0.04800
C 	C 	0.04681 0.40079 0.77394 0.10500
C 	C 	0.05712 0.38586 0.71055 -0.08400
C 	C 	0.08617 0.36214 0.70587 -0.00400
C 	C 	0.10432 0.35210 0.76592 0.07200
C 	C 	0.09600 0.36938 0.82832 -0.05000
N 	N 	0.01551 0.41931 0.77899 -0.19900
H 	H 	0.04219 0.39231 0.66490 0.06100
C 	C 	0.09913 0.35033 0.63745 -0.00500
N 	N 	0.12929 0.32565 0.76418 -0.19500
H 	H 	0.11136 0.36329 0.87366 0.06300
C 	C 	0.12956 0.36673 0.61054 -0.08500
C 	C 	0.13976 0.35987 0.54259 0.10500
C 	C 	0.11846 0.33704 0.50042 -0.04700
C 	C 	0.08990 0.31829 0.52894 -0.05200
C 	C 	0.07994 0.32474 0.59723 0.07200
H 	H 	0.14495 0.38540 0.64216 0.06000
N 	N 	0.16999 0.37521 0.51815 -0.19900
H 	H 	0.07419 0.30004 0.49698 0.06300
N 	N 	0.05187 0.30659 0.62355 -0.19600
H 	H 	0.18495 0.39303 0.54880 0.09500
H 	H 	0.17963 0.36860 0.46951 0.10300
H 	H 	0.03766 0.28796 0.59339 0.09500
H 	H 	0.04418 0.31042 0.67430 0.09700
H 	H 	0.14297 0.31876 0.80858 0.07700
H 	H 	0.13430 0.31073 0.71951 0.07300
H 	H 	0.00407 0.42544 0.82636 0.09800
H 	H 	0.00091 0.42541 0.73518 0.09200
C 	C 	0.20901 0.13510 0.86885 -0.00500
C 	C 	0.19493 0.10491 0.90019 -0.08500
C 	C 	0.18016 0.10852 0.96567 -0.01200
C 	C 	0.17599 0.14234 0.99614 -0.01400
C 	C 	0.18582 0.17289 0.96066 -0.07000
C 	C 	0.20439 0.16893 0.89894 -0.03300
H 	H 	0.22193 0.13259 0.81960 0.04600
H 	H 	0.17050 0.08534 0.99173 0.01400
H 	H 	0.16274 0.14488 0.04503 0.06500
H 	H 	0.21338 0.19220 0.87230 0.02600
C 	C 	0.06330 0.34770 0.13746 0.10100
C 	C 	0.10043 0.34070 0.13322 -0.09500
C 	C 	0.12364 0.36997 0.12673 0.10300
C 	C 	0.11024 0.40143 0.09886 0.08300
C 	C 	0.07371 0.40328 0.08089 -0.06400
C 	C 	0.04976 0.37911 0.10954 0.08700
Br	Br	0.99890 0.38733 0.10355 -0.21900
Br	Br	0.03166 0.31504 0.18105 -0.17100
Br	Br	0.14222 0.43960 0.07670 -0.21000
Br	Br	0.17430 0.36422 0.14240 -0.16900
C 	C 	0.17733 0.99741 0.28252 -0.03300
C 	C 	0.20242 0.02497 0.29277 -0.10700
C 	C 	0.23211 0.01957 0.33525 -0.03200
C 	C 	0.23384 0.98929 0.37483 -0.00700
C 	C 	0.20557 0.96446 0.37276 -0.11400
C 	C 	0.17842 0.96750 0.32345 -0.01200
H 	H 	0.15520 0.00068 0.24733 0.02500
H 	H 	0.25227 0.04021 0.34191 0.03900
H 	H 	0.25598 0.98628 0.41026 0.05700
H 	H 	0.15701 0.94802 0.31973 -0.06300
C 	C 	0.17396 0.23728 0.20786 0.11000
C 	C 	0.14655 0.21146 0.20339 -0.11000
C 	C 	0.11175 0.22115 0.22522 0.10400
C 	C 	0.10699 0.25143 0.26803 0.09000
C 	C 	0.13550 0.27557 0.27875 -0.05400
C 	C 	0.16893 0.26880 0.24763 0.08300
Br	Br	0.20885 0.30031 0.26634 -0.17400
Br	Br	0.21912 0.22810 0.16342 -0.17400
Br	Br	0.06261 0.25803 0.31688 -0.18900
Br	Br	0.07044 0.19479 0.19266 -0.22300
C 	C 	0.63157 0.00927 0.51707 -0.04900
C 	C 	0.59424 0.01603 0.51942 0.09800
C 	C 	0.57046 0.98761 0.52907 -0.07900
C 	C 	0.58352 0.95297 0.53843 -0.00700
C 	C 	0.62088 0.94718 0.54378 0.07600
C 	C 	0.64458 0.97512 0.53072 -0.05000
N 	N 	0.58113 0.04961 0.51287 -0.19900
H 	H 	0.54173 0.99225 0.52753 0.06000
C 	C 	0.55830 0.92259 0.53270 -0.00300
N 	N 	0.63408 0.91492 0.56153 -0.19500
H 	H 	0.67319 0.97005 0.52943 0.07100
C 	C 	0.55859 0.90074 0.47354 -0.08400
C 	C 	0.53005 0.87727 0.45947 0.10700
C 	C 	0.49920 0.87880 0.50117 -0.04500
C 	C 	0.50122 0.89683 0.56484 -0.04900
C 	C 	0.53126 0.91788 0.58182 0.07600
H 	H 	0.58068 0.90243 0.43799 0.06000
N 	N 	0.53257 0.85297 0.40703 -0.19800
H 	H 	0.47877 0.89597 0.59971 0.06800
N 	N 	0.53437 0.93281 0.64544 -0.19400
H 	H 	0.55464 0.85310 0.37436 0.09300
H 	H 	0.51375 0.83247 0.40087 0.10100
H 	H 	0.51477 0.92820 0.68199 0.09500
H 	H 	0.55718 0.94730 0.66027 0.09100
H 	H 	0.66177 0.91046 0.56305 0.09800
H 	H 	0.61710 0.89450 0.57672 0.09500
H 	H 	0.59819 0.07163 0.51071 0.09700
H 	H 	0.55345 0.05413 0.51197 0.08800
C 	C 	0.62129 0.08573 0.76297 -0.04600
C 	C 	0.62439 0.05327 0.72471 0.11000
C 	C 	0.59357 0.03246 0.71184 -0.08600
C 	C 	0.56009 0.04324 0.73754 -0.00300
C 	C 	0.55644 0.07765 0.76840 0.07600
C 	C 	0.58708 0.09893 0.77903 -0.04900
N 	N 	0.65681 0.04155 0.70170 -0.20000
H 	H 	0.59602 0.00685 0.68524 0.05600
C 	C 	0.53106 0.01635 0.74244 -0.01100
N 	N 	0.52393 0.08992 0.79001 -0.19400
H 	H 	0.58459 0.12461 0.80535 0.05800
C 	C 	0.53317 0.99100 0.79349 -0.08000
C 	C 	0.50442 0.96775 0.80453 0.10000
C 	C 	0.47131 0.97330 0.77052 -0.04500
C 	C 	0.47040 0.99622 0.71487 -0.05000
C 	C 	0.50059 0.01687 0.69902 0.07300
H 	H 	0.55753 0.98884 0.82363 0.05800
N 	N 	0.50953 0.93869 0.84328 -0.19800
H 	H 	0.44604 0.99870 0.68495 0.07800
N 	N 	0.49993 0.03750 0.64311 -0.19500
H 	H 	0.53317 0.93588 0.87158 0.09000
H 	H 	0.49162 0.91727 0.84079 0.09900
H 	H 	0.47705 0.03831 0.61211 0.09700
H 	H 	0.52241 0.05207 0.62881 0.09100
H 	H 	0.52167 0.11516 0.81352 0.09400
H 	H 	0.50060 0.07482 0.78345 0.09800
H 	H 	0.67986 0.05717 0.70705 0.12500
H 	H 	0.65898 0.01690 0.67592 0.10900
C 	C 	0.68644 0.07899 0.33732 -0.04400
C 	C 	0.65635 0.09477 0.30546 0.10700
C 	C 	0.65687 0.10009 0.23479 -0.08300
C 	C 	0.68777 0.09251 0.19648 -0.00500
C 	C 	0.71895 0.07972 0.22949 0.07800
C 	C 	0.71768 0.07228 0.29930 -0.05000
N 	N 	0.62760 0.10614 0.34262 -0.19800
H 	H 	0.63335 0.11079 0.20975 0.05900
C 	C 	0.68688 0.09749 0.12153 0.00100
N 	N 	0.75006 0.07443 0.19458 -0.19400
H 	H 	0.74100 0.06095 0.32394 0.06100
C 	C 	0.68914 0.13210 0.09657 -0.09000
C 	C 	0.68672 0.13804 0.02618 0.11800
C 	C 	0.68424 0.10848 0.97971 -0.06300
C 	C 	0.68264 0.07383 0.00474 -0.03200
C 	C 	0.68302 0.06805 0.07522 0.06800
H 	H 	0.69176 0.15459 0.13217 0.06400
N 	N 	0.68552 0.17207 0.00401 -0.19800
H 	H 	0.68050 0.05125 0.96919 0.05000
N 	N 	0.67939 0.03430 0.09795 -0.19200
H 	H 	0.68881 0.19361 0.03844 0.10000
H 	H 	0.67965 0.17762 0.95332 0.10600
H 	H 	0.67725 0.01271 0.06332 0.09300
H 	H 	0.67793 0.02915 0.14988 0.09400
H 	H 	0.77265 0.06413 0.21897 0.09500
H 	H 	0.75244 0.08125 0.14356 0.09700
H 	H 	0.62848 0.10752 0.39583 0.10200
H 	H 	0.60475 0.11593 0.31828 0.09300
C 	C 	0.01347 0.16069 0.46447 -0.00600
C 	C 	0.00918 0.13151 0.50651 -0.07500
C 	C 	0.03973 0.11381 0.53041 -0.02600
C 	C 	0.07299 0.11970 0.50024 -0.00300
C 	C 	0.07553 0.14381 0.44721 -0.09200
C 	C 	0.04693 0.16737 0.43597 -0.00700
H 	H 	0.99031 0.17591 0.44860 0.04200
H 	H 	0.03695 0.09245 0.56568 0.05000
H 	H 	0.09550 0.10271 0.51250 -0.01900
H 	H 	0.04940 0.18787 0.39850 0.06600
C 	C 	0.04924 0.92820 0.55158 -0.02000
C 	C 	0.08522 0.93959 0.55138 -0.07000
C 	C 	0.09305 0.97566 0.56477 -0.01000
C 	C 	0.06521 0.00061 0.57030 -0.02800
C 	C 	0.02931 0.98974 0.56128 -0.06700
C 	C 	0.02138 0.95321 0.55666 -0.01900
H 	H 	0.04281 0.90024 0.54331 0.01300
H 	H 	0.12066 0.98476 0.56600 0.01800
H 	H 	0.07168 0.02870 0.57580 0.02700
H 	H 	0.99380 0.94437 0.55114 0.00300
C 	C 	0.79999 0.04415 0.60174 0.11800
C 	C 	0.81844 0.07590 0.58699 -0.09900
C 	C 	0.79851 0.10674 0.57178 0.11100
C 	C 	0.76110 0.10448 0.56392 0.08100
C 	C 	0.74439 0.07096 0.56178 -0.05200
C 	C 	0.76296 0.04145 0.58795 0.08200
Br	Br	0.73808 0.99767 0.60577 -0.19900
Br	Br	0.82528 0.00400 0.63845 -0.20300
Br	Br	0.73261 0.14698 0.55585 -0.17300
Br	Br	0.82271 0.15086 0.55355 -0.16400
C 	C 	0.01883 0.10324 0.70998 0.00700
C 	C 	0.02134 0.14017 0.72202 -0.06400
C 	C 	0.05451 0.15713 0.71354 -0.03100
C 	C 	0.08568 0.13681 0.70408 -0.01600
C 	C 	0.08384 0.09947 0.70436 -0.08000
C 	C 	0.05003 0.08312 0.69885 -0.03200
H 	H 	0.99312 0.08991 0.71314 0.01500
H 	H 	0.05659 0.18574 0.71909 -0.00300
H 	H 	0.11157 0.15000 0.70487 -0.00300
H 	H 	0.04804 0.05456 0.69094 0.03500
C 	C 	0.04373 0.25670 0.79094 -0.01700
C 	C 	0.04368 0.28230 0.84434 -0.13800
C 	C 	0.01724 0.30904 0.84453 0.00300
C 	C 	0.98689 0.30499 0.80268 -0.04000
C 	C 	0.98301 0.27411 0.76144 -0.09600
C 	C 	0.01362 0.25328 0.74808 -0.05600
H 	H 	0.06538 0.23764 0.78641 -0.07900
H 	H 	0.01833 0.33080 0.88200 0.04600
H 	H 	0.96446 0.32309 0.80950 0.04400
H 	H 	0.01225 0.23149 0.71085 0.03700
C 	C 	0.80222 0.13804 0.74115 0.11200
C 	C 	0.80480 0.17466 0.72585 -0.09600
C 	C 	0.77330 0.19539 0.72339 0.11400
C 	C 	0.74034 0.18110 0.74498 0.08600
C 	C 	0.73865 0.14552 0.76576 -0.05200
C 	C 	0.76884 0.12339 0.75843 0.07800
Br	Br	0.76453 0.07300 0.77397 -0.20000
Br	Br	0.84438 0.10833 0.74347 -0.24400
Br	Br	0.69785 0.21037 0.74786 -0.18000
Br	Br	0.77545 0.24329 0.69072 -0.16400
C 	C 	0.09543 0.39965 0.29020 -0.04500
C 	C 	0.11738 0.42803 0.26902 0.11300
C 	C 	0.10126 0.45943 0.24626 -0.08000
C 	C 	0.06391 0.46396 0.24967 -0.00100
C 	C 	0.04193 0.43473 0.26679 0.08400
C 	C 	0.05802 0.40267 0.28589 -0.04800
N 	N 	0.15380 0.42566 0.27188 -0.19700
H 	H 	0.11797 0.48146 0.23101 0.06900
C 	C 	0.04895 0.50057 0.24752 0.00100
N 	N 	0.00550 0.43753 0.26667 -0.18400
H 	H 	0.04130 0.38050 0.30050 0.07300
C 	C 	0.03064 0.51136 0.18886 -0.08800
C 	C 	0.01134 0.54360 0.18943 0.11200
C 	C 	0.01539 0.56800 0.24566 -0.04000
C 	C 	0.03648 0.55833 0.30179 -0.05000
C 	C 	0.05173 0.52426 0.30481 0.07500
H 	H 	0.02881 0.49327 0.14486 0.07300
N 	N 	0.98718 0.54960 0.13881 -0.20300
H 	H 	0.04018 0.57706 0.34436 0.05600
N 	N 	0.06848 0.51433 0.36318 -0.19300
H 	H 	0.98633 0.53282 0.09537 0.09200
H 	H 	0.96690 0.56858 0.14484 0.10400
H 	H 	0.07123 0.53241 0.40439 0.09100
H 	H 	0.07787 0.48841 0.36931 0.09400
H 	H 	0.98960 0.41590 0.28011 0.10100
H 	H 	0.99256 0.46084 0.25248 0.09500
H 	H 	0.16663 0.40285 0.28914 0.11700
H 	H 	0.16978 0.44678 0.25616 0.11000
C 	C 	0.04430 0.50932 0.95176 -0.05400
C 	C 	0.05763 0.53455 0.00080 0.11400
C 	C 	0.04294 0.56895 0.00400 -0.08000
C 	C 	0.01866 0.57994 0.95404 -0.01000
C 	C 	0.00743 0.55556 0.90167 0.08000
C 	C 	0.01934 0.52015 0.90267 -0.05100
N 	N 	0.08590 0.52664 0.04178 -0.20100
H 	H 	0.05195 0.58786 0.04328 0.07500
C 	C 	0.00769 0.61777 0.95356 0.01300
N 	N 	0.98562 0.56604 0.85001 -0.19800
H 	H 	0.00922 0.50099 0.86486 0.05400
C 	C 	0.03187 0.64294 0.92911 -0.08600
C 	C 	0.02004 0.67705 0.91240 0.12900
C 	C 	0.98334 0.68578 0.91983 -0.05800
C 	C 	0.96011 0.66207 0.95145 -0.04500
C 	C 	0.97210 0.62812 0.96927 0.07000
H 	H 	0.05960 0.63541 0.92018 0.06800
N 	N 	0.04389 0.70115 0.88866 -0.19900
H 	H 	0.93230 0.66951 0.95974 0.06500
N 	N 	0.94907 0.60519 0.99896 -0.19800
H 	H 	0.07082 0.69418 0.88177 0.10600
H 	H 	0.03623 0.72731 0.87897 0.12200
H 	H 	0.92222 0.61221 0.00653 0.11200
H 	H 	0.95768 0.58041 0.01555 0.09800
H 	H 	0.97667 0.54754 0.81287 0.08700
H 	H 	0.97825 0.59265 0.84476 0.09200
H 	H 	0.10276 0.50517 0.03010 0.11900
H 	H 	0.09324 0.54393 0.08219 0.10200
C 	C 	0.94312 0.74363 0.71301 -0.04800
C 	C 	0.91793 0.71882 0.68569 0.10700
C 	C 	0.92071 0.70725 0.61724 -0.08700
C 	C 	0.94720 0.72126 0.57516 -0.00600
C 	C 	0.96865 0.75009 0.59975 0.06800
C 	C 	0.96676 0.76069 0.66902 -0.05400
N 	N 	0.89128 0.70587 0.72513 -0.20000
H 	H 	0.90299 0.68647 0.59732 0.05900
C 	C 	0.95452 0.70327 0.50825 -0.00400
N 	N 	0.99151 0.76708 0.55768 -0.20000
H 	H 	0.98508 0.78081 0.68941 0.05400
C 	C 	0.93028 0.70773 0.45419 -0.08700
C 	C 	0.93473 0.68888 0.39187 0.10800
C 	C 	0.96576 0.66756 0.38157 -0.04700
C 	C 	0.99008 0.66321 0.43561 -0.05900
C 	C 	0.98427 0.68004 0.49946 0.07100
H 	H 	0.90709 0.72486 0.46153 0.05600
N 	N 	0.90842 0.69007 0.34360 -0.19900
H 	H 	0.01366 0.64665 0.42798 0.06000
N 	N 	0.00709 0.67349 0.55210 -0.19000
H 	H 	0.88670 0.70747 0.34985 0.10100
H 	H 	0.90799 0.67217 0.30191 0.11700
H 	H 	0.02946 0.65706 0.54454 0.09200
H 	H 	0.00243 0.68370 0.60129 0.09700
H 	H 	0.00823 0.78742 0.57677 0.08600
H 	H 	0.99209 0.76104 0.50539 0.08500
H 	H 	0.88702 0.71596 0.77461 0.10800
H 	H 	0.87358 0.68650 0.70552 0.09500
C 	C 	0.03049 0.08685 0.90406 -0.06400
C 	C 	0.01671 0.07428 0.96531 -0.09200
C 	C 	0.02381 0.09348 0.02652 -0.01400
C 	C 	0.04334 0.12555 0.02563 -0.02400
C 	C 	0.05610 0.13833 0.96351 -0.09500
C 	C 	0.05052 0.11812 0.90339 -0.04600
H 	H 	0.02300 0.07420 0.85610 0.01400
H 	H 	0.01259 0.08468 0.07405 0.03500
H 	H 	0.04828 0.14038 0.07287 0.05700
H 	H 	0.06047 0.12749 0.85533 0.02300
C 	C 	0.86283 0.11579 0.93555 -0.00600
C 	C 	0.89601 0.13270 0.94768 -0.08700
C 	C 	0.91668 0.12256 0.00372 -0.00000
C 	C 	0.90874 0.09057 0.03544 -0.00700
C 	C 	0.88202 0.06804 0.00704 -0.07700
C 	C 	0.85617 0.08282 0.96414 -0.03000
H 	H 	0.84448 0.12586 0.89766 0.05600
H 	H 	0.94116 0.13679 0.01698 0.02200
H 	H 	0.92700 0.08074 0.07377 0.04200
H 	H 	0.83345 0.06702 0.94642 0.04800
C 	C 	0.01114 0.00164 0.80335 0.01300
C 	C 	0.99647 0.96738 0.80219 -0.13600
C 	C 	0.01551 0.93984 0.76834 0.02300
C 	C 	0.05191 0.94448 0.75331 -0.00800
C 	C 	0.06885 0.97686 0.77085 -0.08800
C 	C 	0.04793 0.00601 0.79266 -0.03400
H 	H 	0.99515 0.02400 0.82102 -0.05500
H 	H 	0.00357 0.91361 0.76206 0.04000
H 	H 	0.06731 0.92230 0.73237 0.05300
H 	H 	0.06023 0.03167 0.80259 -0.05200
C 	C 	0.97403 0.85982 0.99730 0.10200
C 	C 	0.93998 0.86946 0.02321 -0.10000
C 	C 	0.91130 0.84545 0.01369 0.11800
C 	C 	0.91362 0.81794 0.96380 0.08100
C 	C 	0.94672 0.81047 0.93239 -0.05400
C 	C 	0.97696 0.83153 0.94903 0.08600
Br	Br	0.02165 0.82319 0.90208 -0.18000
Br	Br	0.01688 0.88261 0.03285 -0.18500
Br	Br	0.87081 0.79376 0.93192 -0.17600
Br	Br	0.86824 0.85180 0.06642 -0.16500
C 	C 	0.06620 0.95219 0.22529 -0.03000
C 	C 	0.04651 0.93771 0.27894 -0.09600
C 	C 	0.03769 0.95951 0.33568 -0.03800
C 	C 	0.04998 0.99460 0.34078 -0.03400
C 	C 	0.07161 0.00862 0.28948 -0.11000
C 	C 	0.07863 0.98760 0.23045 -0.01100
H 	H 	0.07284 0.93584 0.18074 0.04600
H 	H 	0.02169 0.94905 0.37657 -0.01500
H 	H 	0.04386 0.01047 0.38609 -0.03700
H 	H 	0.09479 0.99810 0.18989 0.03400
C 	C 	0.94706 0.94973 0.27618 -0.04600
C 	C 	0.92505 0.91945 0.27898 -0.09200
C 	C 	0.89594 0.91942 0.32376 -0.03400
C 	C 	0.89099 0.94782 0.37015 -0.00600
C 	C 	0.91550 0.97631 0.37288 -0.11500
C 	C 	0.94253 0.97799 0.32342 0.01000
H 	H 	0.96909 0.95034 0.24040 0.04200
H 	H 	0.87840 0.89643 0.32539 0.03900
H 	H 	0.86907 0.94686 0.40612 0.04700
H 	H 	0.96092 0.00029 0.32326 -0.07400
C 	C 	0.05110 0.80968 0.44544 -0.00100
C 	C 	0.05163 0.79058 0.38287 -0.10200
C 	C 	0.08215 0.77044 0.36546 0.00000
C 	C 	0.11410 0.77593 0.40164 -0.02000
C 	C 	0.11522 0.80096 0.45591 -0.07500
C 	C 	0.08288 0.81420 0.48279 -0.03000
H 	H 	0.02709 0.82371 0.46180 -0.03300
H 	H 	0.08214 0.75352 0.31978 0.05100
H 	H 	0.13867 0.76378 0.38296 0.04700
H 	H 	0.08308 0.83145 0.52802 0.04800
C 	C 	0.93909 0.72494 0.09505 0.10400
C 	C 	0.96884 0.74787 0.09031 -0.10200
C 	C 	0.00311 0.73210 0.08415 0.10700
C 	C 	0.00850 0.69752 0.10849 0.08700
C 	C 	0.97920 0.67890 0.13494 -0.06700
C 	C 	0.94432 0.69019 0.11842 0.08100
Br	Br	0.90398 0.65977 0.13575 -0.21300
Br	Br	0.89144 0.74309 0.08162 -0.16000
Br	Br	0.05565 0.67669 0.10986 -0.20300
Br	Br	0.04176 0.75716 0.04194 -0.16900
