data_crystal

_cell_length_a 41.71378
_cell_length_b 43.49293
_cell_length_c 26.45077
_cell_angle_alpha 91.94271
_cell_angle_beta  88.39521
_cell_angle_gamma 89.94728

_symmetry_space_group_name_	'P 1'
_symmetry_space_group_name_H-M	'P 1'

loop_
_symmetry_equiv_pos_as_xyz
  x,y,z

loop_
_atom_site_label
_atom_site_type_symbol
_atom_site_fract_x
_atom_site_fract_y
_atom_site_fract_z
_atom_site_charge
Cd	Cd	0.99999 0.79624 0.35747 1.24200
Cd	Cd	0.94647 0.83535 0.44353 1.19500
O 	O 	0.02084 0.74476 0.37591 -0.31200
O 	O 	0.03165 0.76663 0.30379 -0.34700
C 	C 	0.03565 0.74308 0.33198 0.27500
O 	O 	0.98371 0.83621 0.31485 -0.37500
O 	O 	0.96796 0.86616 0.38430 -0.40700
C 	C 	0.96874 0.86065 0.33484 0.30400
C 	C 	0.93416 0.77892 0.36217 0.32200
O 	O 	0.99831 0.81710 0.45182 -0.43700
O 	O 	0.94833 0.76709 0.32118 -0.29000
O 	O 	0.95311 0.79194 0.39426 -0.52300
C 	C 	0.02462 0.83220 0.44236 0.31200
O 	O 	0.03776 0.82705 0.39744 -0.33300
Cd	Cd	0.98036 0.87956 0.87708 1.24400
Cd	Cd	0.96700 0.92335 0.76721 1.19400
O 	O 	0.02861 0.84684 0.87781 -0.31500
O 	O 	0.99586 0.85175 0.94399 -0.34200
C 	C 	0.02174 0.83909 0.92394 0.27600
O 	O 	0.93994 0.91119 0.90093 -0.35600
O 	O 	0.92430 0.92103 0.82057 -0.40800
C 	C 	0.92482 0.92866 0.86919 0.29200
C 	C 	0.01552 0.93450 0.86107 0.31000
O 	O 	0.97015 0.87113 0.78018 -0.42600
O 	O 	0.01962 0.92522 0.90697 -0.26900
O 	O 	0.00118 0.91527 0.83101 -0.53300
C 	C 	0.94633 0.85314 0.79205 0.31100
O 	O 	0.94442 0.84587 0.83957 -0.34500
C 	C 	0.10664 0.63425 0.99318 0.12700
N 	N 	0.09476 0.60886 0.01563 -0.13900
C 	C 	0.10545 0.58040 0.00035 0.11800
N 	N 	0.12947 0.57765 0.96469 -0.14100
C 	C 	0.14189 0.60298 0.94281 0.12000
N 	N 	0.13034 0.63126 0.95709 -0.14100
C 	C 	0.20359 0.58674 0.37981 0.12500
N 	N 	0.21896 0.59107 0.42402 -0.13800
C 	C 	0.23471 0.56740 0.44458 0.12000
N 	N 	0.23624 0.53963 0.41943 -0.14000
C 	C 	0.22121 0.53527 0.37488 0.11900
N 	N 	0.20504 0.55893 0.35508 -0.14000
Cd	Cd	0.79438 0.93547 0.65677 1.24200
Cd	Cd	0.81628 0.93815 0.78574 1.19700
O 	O 	0.74740 0.90502 0.63128 -0.30800
O 	O 	0.77242 0.93524 0.57855 -0.34400
C 	C 	0.74831 0.91690 0.58681 0.27700
O 	O 	0.83195 0.97221 0.66132 -0.37500
O 	O 	0.85524 0.95438 0.73239 -0.41200
C 	C 	0.85219 0.97581 0.69872 0.29700
C 	C 	0.75727 0.97172 0.72883 0.31500
O 	O 	0.81191 0.89776 0.72650 -0.41200
O 	O 	0.75113 0.97929 0.68270 -0.30300
O 	O 	0.77627 0.94842 0.73242 -0.52100
C 	C 	0.83422 0.88726 0.69505 0.30700
O 	O 	0.83375 0.89766 0.64927 -0.34000
Cd	Cd	0.78131 0.89723 0.38098 1.24300
Cd	Cd	0.84510 0.88401 0.29136 1.20100
O 	O 	0.72778 0.87424 0.36905 -0.30900
O 	O 	0.73944 0.90107 0.43788 -0.34900
C 	C 	0.71793 0.88576 0.41282 0.27600
O 	O 	0.82420 0.91722 0.41840 -0.36700
O 	O 	0.85344 0.92443 0.34500 -0.42700
C 	C 	0.85157 0.92373 0.39481 0.30400
C 	C 	0.81402 0.83948 0.37784 0.32000
O 	O 	0.79448 0.90549 0.28451 -0.41400
O 	O 	0.79710 0.84326 0.42002 -0.28300
O 	O 	0.81013 0.86050 0.34507 -0.51500
C 	C 	0.78658 0.93430 0.29195 0.30500
O 	O 	0.77480 0.94185 0.33695 -0.35700
C 	C 	0.53477 0.95518 0.67274 0.12600
N 	N 	0.52259 0.93866 0.71152 -0.14000
C 	C 	0.50009 0.95124 0.74415 0.12100
N 	N 	0.48944 0.98028 0.73730 -0.14000
C 	C 	0.50150 0.99690 0.69866 0.12200
N 	N 	0.52420 0.98434 0.66644 -0.13700
C 	C 	0.49347 0.92479 0.33344 0.12500
N 	N 	0.47219 0.94450 0.35712 -0.13800
C 	C 	0.44450 0.95182 0.33445 0.12000
N 	N 	0.43859 0.94010 0.28736 -0.14000
C 	C 	0.46033 0.92126 0.26275 0.12000
N 	N 	0.48749 0.91329 0.28627 -0.14000
Cd	Cd	0.92809 0.02310 0.16079 1.24400
Cd	Cd	0.89752 0.01793 0.28906 1.18800
O 	O 	0.93030 0.07531 0.12917 -0.31100
O 	O 	0.95353 0.03690 0.08687 -0.33800
C 	C 	0.94912 0.06660 0.09145 0.27800
O 	O 	0.93792 0.97423 0.18023 -0.36100
O 	O 	0.90037 0.97298 0.24518 -0.41700
C 	C 	0.92696 0.96241 0.22285 0.29400
C 	C 	0.96806 0.03885 0.24300 0.32100
O 	O 	0.87599 0.03495 0.21522 -0.42300
O 	O 	0.98480 0.03579 0.20073 -0.30500
O 	O 	0.93726 0.03738 0.23890 -0.51900
C 	C 	0.85989 0.01850 0.18265 0.31000
O 	O 	0.87574 0.01050 0.14083 -0.34100
Cd	Cd	0.79581 0.08153 0.95924 1.24300
Cd	Cd	0.80719 0.07570 0.82668 1.18400
O 	O 	0.76034 0.12126 0.99924 -0.31400
O 	O 	0.78462 0.08732 0.04350 -0.34300
C 	C 	0.76972 0.11368 0.04369 0.27400
O 	O 	0.82398 0.03840 0.94600 -0.37400
O 	O 	0.84560 0.05145 0.86888 -0.42500
C 	C 	0.84116 0.03126 0.90458 0.30000
C 	C 	0.74837 0.05255 0.89934 0.32100
O 	O 	0.81580 0.11595 0.88447 -0.42300
O 	O 	0.74363 0.04633 0.94708 -0.28600
O 	O 	0.76973 0.07335 0.89061 -0.52800
C 	C 	0.84179 0.12116 0.90947 0.29800
O 	O 	0.84233 0.11011 0.95470 -0.35600
C 	C 	0.90701 0.25875 0.94991 0.13000
N 	N 	0.91695 0.28771 0.96230 -0.13800
C 	C 	0.93889 0.30202 0.93238 0.12300
N 	N 	0.94931 0.28803 0.88826 -0.14000
C 	C 	0.93813 0.25979 0.87419 0.12600
N 	N 	0.91730 0.24497 0.90538 -0.13200
C 	C 	0.05529 0.21325 0.28003 0.12600
N 	N 	0.03915 0.21266 0.32548 -0.13900
C 	C 	0.04996 0.22925 0.36605 0.12100
N 	N 	0.07644 0.24710 0.36063 -0.14100
C 	C 	0.09239 0.24818 0.31525 0.12300
N 	N 	0.08246 0.23030 0.27555 -0.14100
Cd	Cd	0.00144 0.11408 0.75486 1.24200
Cd	Cd	0.96286 0.07664 0.85839 1.19000
O 	O 	0.05134 0.14199 0.77244 -0.32100
O 	O 	0.03397 0.13596 0.69503 -0.35500
C 	C 	0.05597 0.14679 0.72461 0.27600
O 	O 	0.96282 0.08571 0.71858 -0.36300
O 	O 	0.93178 0.08171 0.79109 -0.40900
C 	C 	0.93976 0.07191 0.74471 0.29400
C 	C 	0.02526 0.05661 0.78608 0.31300
O 	O 	0.97613 0.12751 0.84457 -0.43600
O 	O 	0.03891 0.06412 0.74320 -0.27400
O 	O 	0.00825 0.07805 0.80896 -0.53600
C 	C 	0.95817 0.14791 0.82403 0.31500
O 	O 	0.96460 0.15273 0.77632 -0.35500
Cd	Cd	0.02124 0.00952 0.53361 1.24500
Cd	Cd	0.03474 0.96678 0.41696 1.20200
O 	O 	0.06501 0.04208 0.56467 -0.31000
O 	O 	0.01673 0.04494 0.59884 -0.33400
C 	C 	0.04516 0.05720 0.59506 0.28500
O 	O 	0.97257 0.99105 0.51403 -0.34800
O 	O 	0.99112 0.95166 0.46107 -0.40400
C 	C 	0.96751 0.96968 0.47818 0.29800
C 	C 	0.01982 0.04022 0.44014 0.32400
O 	O 	0.05872 0.96576 0.49487 -0.43600
O 	O 	0.00772 0.05733 0.47739 -0.29900
O 	O 	0.03294 0.01482 0.45339 -0.51700
C 	C 	0.04975 0.94902 0.53267 0.30100
O 	O 	0.03430 0.96369 0.56975 -0.32200
C 	C 	0.25815 0.24509 0.76930 0.12400
N 	N 	0.25280 0.25071 0.81958 -0.14100
C 	C 	0.27770 0.25478 0.85097 0.11900
N 	N 	0.30826 0.25263 0.83204 -0.14000
C 	C 	0.31386 0.24661 0.78170 0.11800
N 	N 	0.28868 0.24456 0.75017 -0.13900
C 	C 	0.15475 0.19363 0.41543 0.12600
N 	N 	0.15901 0.21233 0.37570 -0.13800
C 	C 	0.18880 0.21603 0.35460 0.11900
N 	N 	0.21404 0.20039 0.37248 -0.14000
C 	C 	0.20962 0.18076 0.41082 0.12000
N 	N 	0.18002 0.17773 0.43265 -0.14000
C 	C 	0.27144 0.25747 0.90603 -0.02100
C 	C 	0.28825 0.27893 0.93597 -0.02000
C 	C 	0.28030 0.28303 0.98758 -0.04500
C 	C 	0.25552 0.26567 0.00946 0.01100
C 	C 	0.23931 0.24372 0.97978 -0.04600
C 	C 	0.24723 0.23962 0.92841 -0.01900
C 	C 	0.24675 0.26996 0.06361 0.00600
C 	C 	0.26752 0.25971 0.10030 -0.03900
C 	C 	0.25661 0.25732 0.15047 -0.03700
C 	C 	0.22482 0.26517 0.16430 0.00400
C 	C 	0.20482 0.27759 0.12839 -0.03800
C 	C 	0.21577 0.28004 0.07826 -0.04000
C 	C 	0.21141 0.25658 0.21403 0.01500
C 	C 	0.22451 0.26879 0.25867 -0.04800
C 	C 	0.21543 0.25692 0.30540 -0.01800
C 	C 	0.19300 0.23295 0.30786 -0.02000
C 	C 	0.17844 0.22210 0.26358 -0.01600
C 	C 	0.18765 0.23382 0.21684 -0.04800
H 	H 	0.30697 0.29285 0.91914 0.04200
H 	H 	0.29313 0.29986 0.01035 0.04200
H 	H 	0.22053 0.22986 0.99657 0.04500
H 	H 	0.23443 0.22263 0.90588 0.04300
H 	H 	0.29156 0.25210 0.08944 0.04200
H 	H 	0.27232 0.24791 0.17800 0.04100
H 	H 	0.18037 0.28405 0.13881 0.03700
H 	H 	0.19968 0.28837 0.05029 0.04100
H 	H 	0.24238 0.28681 0.25700 0.04300
H 	H 	0.22650 0.26572 0.33951 0.03700
H 	H 	0.16090 0.20377 0.26515 0.04400
H 	H 	0.17713 0.22446 0.18264 0.04400
C 	C 	0.03571 0.13547 0.55377 -0.06600
C 	C 	0.06836 0.14246 0.54801 0.01400
C 	C 	0.09069 0.12719 0.57751 0.00200
C 	C 	0.08076 0.10194 0.60552 0.00300
C 	C 	0.04932 0.09081 0.60149 -0.07100
C 	C 	0.02599 0.11065 0.58273 0.05900
C 	C 	0.07952 0.16071 0.50469 0.00600
S 	S 	0.13148 0.13761 0.57594 -0.03000
H 	H 	0.09842 0.08855 0.62456 0.05200
S 	S 	0.98494 0.10545 0.59686 -0.01600
H 	H 	0.01814 0.14823 0.53375 0.05300
C 	C 	0.08639 0.14599 0.45729 0.00200
C 	C 	0.10770 0.15966 0.42305 -0.03000
C 	C 	0.12240 0.18765 0.43610 -0.03000
C 	C 	0.11056 0.20492 0.47857 0.03200
C 	C 	0.08921 0.19130 0.51301 -0.06000
S 	S 	0.07016 0.10963 0.44190 -0.01000
H 	H 	0.11516 0.14719 0.38852 0.04900
S 	S 	0.12345 0.24294 0.49001 -0.04600
H 	H 	0.08191 0.20367 0.54764 0.04900
H 	H 	0.97136 0.08806 0.55899 0.05900
H 	H 	0.04112 0.11337 0.41988 0.04400
H 	H 	0.10235 0.26306 0.47015 0.03800
H 	H 	0.14667 0.12310 0.53517 0.04200
C 	C 	0.20341 0.19928 0.68372 -0.06100
C 	C 	0.17369 0.20941 0.70402 0.00500
C 	C 	0.17237 0.23574 0.73672 0.00700
C 	C 	0.20072 0.25070 0.74994 -0.03400
C 	C 	0.23065 0.23747 0.73670 -0.03000
C 	C 	0.23195 0.21247 0.70073 0.02900
C 	C 	0.14518 0.18953 0.69763 0.01600
S 	S 	0.13587 0.24831 0.76561 -0.03400
H 	H 	0.19951 0.27091 0.77509 0.04800
S 	S 	0.26869 0.19689 0.67738 -0.03800
H 	H 	0.20441 0.17972 0.65718 0.05100
C 	C 	0.11821 0.19968 0.67188 -0.00300
C 	C 	0.08914 0.18375 0.67646 -0.00700
C 	C 	0.08729 0.15714 0.70491 -0.08000
C 	C 	0.11570 0.14417 0.72250 0.05500
C 	C 	0.14428 0.16085 0.72023 -0.07000
S 	S 	0.12086 0.23168 0.63319 -0.04400
H 	H 	0.06783 0.19271 0.65975 0.03700
S 	S 	0.11586 0.10679 0.74604 -0.02500
H 	H 	0.16560 0.15189 0.73712 0.05500
H 	H 	0.27888 0.17497 0.70932 0.03900
H 	H 	0.13902 0.22329 0.59109 0.04100
H 	H 	0.10983 0.10826 0.79726 0.05000
H 	H 	0.12267 0.27071 0.73749 0.03700
C 	C 	0.03256 0.22861 0.41569 -0.02000
C 	C 	0.01530 0.20234 0.42980 -0.01600
C 	C 	0.00008 0.20147 0.47764 -0.04700
C 	C 	0.00294 0.22633 0.51244 0.01600
C 	C 	0.01968 0.25272 0.49814 -0.04900
C 	C 	0.03401 0.25405 0.44983 -0.01800
C 	C 	0.98999 0.22414 0.56478 0.00400
C 	C 	0.00683 0.20764 0.60016 -0.03600
C 	C 	0.99628 0.20772 0.65080 -0.03800
C 	C 	0.96964 0.22552 0.66714 0.00900
C 	C 	0.95229 0.24149 0.63151 -0.03700
C 	C 	0.96234 0.24066 0.58048 -0.03500
C 	C 	0.96244 0.23048 0.72200 0.01900
C 	C 	0.98616 0.24235 0.75381 -0.04500
C 	C 	0.97869 0.25000 0.80451 -0.01400
C 	C 	0.94734 0.24616 0.82396 -0.01400
C 	C 	0.92404 0.23266 0.79295 -0.01300
C 	C 	0.93157 0.22484 0.74215 -0.04000
H 	H 	0.01399 0.18248 0.40409 0.04600
H 	H 	0.98620 0.18145 0.48768 0.04800
H 	H 	0.02185 0.27211 0.52463 0.04400
H 	H 	0.04646 0.27478 0.43912 0.04000
H 	H 	0.02882 0.19586 0.58889 0.04200
H 	H 	0.00960 0.19503 0.67780 0.04700
H 	H 	0.93172 0.25537 0.64359 0.04500
H 	H 	0.94923 0.25360 0.55349 0.04500
H 	H 	0.01015 0.24652 0.73886 0.04500
H 	H 	0.99704 0.25984 0.82829 0.04500
H 	H 	0.89983 0.22924 0.80760 0.05200
H 	H 	0.91326 0.21501 0.71828 0.05500
C 	C 	0.89952 0.15595 0.81764 -0.03300
C 	C 	0.92683 0.15627 0.84743 -0.10500
C 	C 	0.92276 0.15695 0.90045 0.11000
C 	C 	0.89312 0.14903 0.92211 -0.04200
C 	C 	0.86723 0.14201 0.89100 -0.09400
C 	C 	0.86938 0.14998 0.83971 0.11400
Br	Br	0.83175 0.15818 0.80220 -0.26900
H 	H 	0.90182 0.15915 0.77726 0.07800
H 	H 	0.89072 0.14674 0.96266 0.06600
Br	Br	0.95732 0.16853 0.94347 -0.25900
C 	C 	0.78375 0.19423 0.07601 -0.06800
C 	C 	0.81736 0.19158 0.07370 0.01400
C 	C 	0.83132 0.16401 0.08934 -0.00100
C 	C 	0.81212 0.13787 0.09444 -0.00700
C 	C 	0.78021 0.13859 0.07890 -0.07600
C 	C 	0.76496 0.16751 0.07842 0.05500
C 	C 	0.83653 0.21318 0.04269 0.00500
S 	S 	0.87277 0.16136 0.09913 -0.01900
H 	H 	0.82314 0.11613 0.10284 0.06000
S 	S 	0.72301 0.17016 0.07566 -0.02700
H 	H 	0.77252 0.21619 0.06962 0.05700
C 	C 	0.83451 0.21231 0.98936 0.00700
C 	C 	0.85783 0.22694 0.95980 -0.02900
C 	C 	0.88289 0.24329 0.98253 -0.02400
C 	C 	0.88427 0.24511 0.03604 0.03100
C 	C 	0.86036 0.23112 0.06558 -0.05800
S 	S 	0.80232 0.19393 0.95911 -0.01100
H 	H 	0.85623 0.22590 0.91893 0.05800
S 	S 	0.91709 0.26226 0.06652 -0.03400
H 	H 	0.86159 0.23243 0.10649 0.05400
H 	H 	0.71429 0.17020 0.02610 0.05300
H 	H 	0.80426 0.16294 0.96525 0.04700
H 	H 	0.94240 0.24217 0.06502 0.04500
H 	H 	0.88861 0.15569 0.05377 0.04300
C 	C 	0.98411 0.06335 0.37818 -0.03100
C 	C 	0.01089 0.04506 0.38752 -0.11500
C 	C 	0.02684 0.02933 0.34674 0.08400
C 	C 	0.01234 0.02703 0.29981 -0.03600
C 	C 	0.98339 0.04242 0.29211 -0.13200
C 	C 	0.97026 0.06212 0.33077 0.10700
Br	Br	0.93471 0.08889 0.31911 -0.29700
H 	H 	0.97337 0.07779 0.40826 0.07700
H 	H 	0.02384 0.01364 0.26910 0.05900
Br	Br	0.07037 0.01559 0.35182 -0.34600
C 	C 	0.02478 0.10684 0.10222 -0.06600
C 	C 	0.01085 0.13576 0.11371 0.01500
C 	C 	0.98113 0.14276 0.09249 0.00500
C 	C 	0.96346 0.11919 0.06895 -0.00200
C 	C 	0.97335 0.08852 0.07260 -0.07700
C 	C 	0.00609 0.08311 0.08117 0.05000
C 	C 	0.02348 0.15515 0.15604 0.00900
S 	S 	0.96451 0.17990 0.09939 -0.02200
H 	H 	0.93965 0.12405 0.05590 0.04900
S 	S 	0.02370 0.04708 0.06625 -0.00800
H 	H 	0.04893 0.10206 0.11389 0.05500
C 	C 	0.02011 0.14580 0.20652 0.00100
C 	C 	0.03152 0.16451 0.24609 -0.02800
C 	C 	0.04443 0.19361 0.23667 -0.03000
C 	C 	0.04628 0.20370 0.18621 0.03000
C 	C 	0.03735 0.18377 0.14623 -0.06100
S 	S 	0.00070 0.11119 0.22094 0.00400
H 	H 	0.02988 0.15656 0.28450 0.05200
S 	S 	0.05636 0.24193 0.17279 -0.03700
H 	H 	0.03971 0.19119 0.10758 0.05400
H 	H 	0.02217 0.02921 0.10790 0.05500
H 	H 	0.02311 0.08817 0.22154 0.04800
H 	H 	0.08794 0.24305 0.15728 0.03500
H 	H 	0.94706 0.18235 0.14401 0.04300
C 	C 	0.42231 0.97458 0.35874 -0.01900
C 	C 	0.43427 0.00166 0.38167 -0.01900
C 	C 	0.41320 0.02500 0.39898 -0.04700
C 	C 	0.38003 0.02135 0.39386 0.01400
C 	C 	0.36800 0.99374 0.37311 -0.04600
C 	C 	0.38903 0.97047 0.35553 -0.01900
C 	C 	0.35820 0.04740 0.40556 0.00600
C 	C 	0.33814 0.04750 0.44902 -0.03900
C 	C 	0.31541 0.07090 0.45767 -0.03800
C 	C 	0.31237 0.09421 0.42260 0.00500
C 	C 	0.33309 0.09450 0.37985 -0.03800
C 	C 	0.35596 0.07127 0.37149 -0.03800
C 	C 	0.28597 0.11686 0.42841 0.01500
C 	C 	0.29252 0.14849 0.42690 -0.04800
C 	C 	0.26741 0.16964 0.42394 -0.01800
C 	C 	0.23552 0.15938 0.42297 -0.02100
C 	C 	0.22891 0.12795 0.42795 -0.01700
C 	C 	0.25401 0.10678 0.43040 -0.04700
H 	H 	0.45989 0.00511 0.38441 0.04300
H 	H 	0.42268 0.04623 0.41509 0.04400
H 	H 	0.34240 0.99070 0.36921 0.04600
H 	H 	0.37950 0.94952 0.33853 0.04300
H 	H 	0.33982 0.02920 0.47562 0.04200
H 	H 	0.29974 0.07059 0.49101 0.04200
H 	H 	0.33087 0.11226 0.35240 0.04200
H 	H 	0.37138 0.07135 0.33784 0.04200
H 	H 	0.31708 0.15658 0.42632 0.04300
H 	H 	0.27280 0.19389 0.42102 0.04000
H 	H 	0.20440 0.11973 0.42745 0.04400
H 	H 	0.24865 0.08245 0.43173 0.04600
C 	C 	0.49236 0.02947 0.69501 -0.02000
C 	C 	0.48660 0.04184 0.64774 -0.01700
C 	C 	0.47554 0.07212 0.64492 -0.04700
C 	C 	0.47027 0.09026 0.68932 0.01600
C 	C 	0.47725 0.07824 0.73634 -0.04700
C 	C 	0.48826 0.04806 0.73917 -0.01700
C 	C 	0.45440 0.12053 0.68730 0.00600
C 	C 	0.46881 0.14677 0.70911 -0.03800
C 	C 	0.45094 0.17374 0.71798 -0.03800
C 	C 	0.41857 0.17469 0.70496 0.00500
C 	C 	0.40506 0.14932 0.67919 -0.03800
C 	C 	0.42288 0.12236 0.67043 -0.03800
C 	C 	0.39765 0.19992 0.72497 0.01500
C 	C 	0.37910 0.21662 0.69197 -0.04800
C 	C 	0.35350 0.23473 0.71102 -0.01900
C 	C 	0.34595 0.23591 0.76323 -0.02000
C 	C 	0.36684 0.22199 0.79651 -0.01900
C 	C 	0.39248 0.20400 0.77741 -0.04700
H 	H 	0.48984 0.02778 0.61337 0.04300
H 	H 	0.47037 0.08123 0.60840 0.04400
H 	H 	0.47321 0.09202 0.77084 0.04600
H 	H 	0.49322 0.03897 0.77579 0.04400
H 	H 	0.49333 0.14578 0.72143 0.04400
H 	H 	0.46178 0.19338 0.73712 0.04300
H 	H 	0.38016 0.14988 0.66861 0.04100
H 	H 	0.41161 0.10234 0.65315 0.04100
H 	H 	0.38346 0.21431 0.65145 0.04400
H 	H 	0.33848 0.24643 0.68497 0.04300
H 	H 	0.36206 0.22339 0.83697 0.04300
H 	H 	0.40707 0.19167 0.80329 0.04400
C 	C 	0.49036 0.93514 0.79058 -0.02000
C 	C 	0.51119 0.91391 0.81164 -0.01700
C 	C 	0.50471 0.90307 0.86005 -0.04700
C 	C 	0.47755 0.91357 0.88811 0.01700
C 	C 	0.45556 0.93299 0.86567 -0.04700
C 	C 	0.46177 0.94349 0.81701 -0.01800
C 	C 	0.47411 0.90726 0.94259 0.00500
C 	C 	0.49866 0.91574 0.97553 -0.03500
C 	C 	0.49406 0.91321 0.02773 -0.03900
C 	C 	0.46482 0.90242 0.04760 0.00700
C 	C 	0.44063 0.89297 0.01473 -0.04000
C 	C 	0.44532 0.89521 0.96237 -0.03600
C 	C 	0.45870 0.90348 0.10275 0.01500
C 	C 	0.47506 0.88339 0.13343 -0.04700
C 	C 	0.47386 0.88793 0.18605 -0.01800
C 	C 	0.45662 0.91291 0.20845 -0.02000
C 	C 	0.43850 0.93173 0.17772 -0.01800
C 	C 	0.43955 0.92699 0.12516 -0.04700
H 	H 	0.53309 0.90682 0.79154 0.04600
H 	H 	0.52147 0.88752 0.87657 0.04800
H 	H 	0.43433 0.94097 0.88671 0.04500
H 	H 	0.44493 0.95902 0.80065 0.04300
H 	H 	0.52089 0.92521 0.96079 0.04500
H 	H 	0.51285 0.92056 0.05287 0.04600
H 	H 	0.41802 0.88449 0.02976 0.04300
H 	H 	0.42634 0.88828 0.93730 0.04200
H 	H 	0.48956 0.86491 0.11644 0.04700
H 	H 	0.48715 0.87261 0.20924 0.04500
H 	H 	0.42473 0.95085 0.19427 0.04400
H 	H 	0.42663 0.94246 0.10172 0.04500
C 	C 	0.79699 0.98902 0.27187 -0.03900
C 	C 	0.79635 0.95796 0.25564 -0.09600
C 	C 	0.80843 0.94967 0.20660 0.11300
C 	C 	0.82708 0.97069 0.17981 -0.02700
C 	C 	0.83191 0.00054 0.20005 -0.09700
C 	C 	0.81380 0.01050 0.24335 0.09700
Br	Br	0.81058 0.05336 0.26279 -0.25800
H 	H 	0.78514 0.99638 0.30719 0.06800
H 	H 	0.83852 0.96351 0.14407 0.08600
Br	Br	0.79651 0.91169 0.17296 -0.22200
C 	C 	0.88620 0.96801 0.41931 -0.03500
C 	C 	0.87797 0.93697 0.42425 -0.09700
C 	C 	0.89671 0.91816 0.45404 0.12500
C 	C 	0.92503 0.92966 0.47461 -0.04500
C 	C 	0.93431 0.96028 0.46735 -0.06900
C 	C 	0.91385 0.97989 0.44168 0.09900
Br	Br	0.92329 0.02277 0.43635 -0.30300
H 	H 	0.87138 0.98282 0.39749 0.02300
H 	H 	0.94042 0.91445 0.49462 0.06100
Br	Br	0.88446 0.87648 0.46599 -0.38400
C 	C 	0.55817 0.90474 0.42508 -0.06000
C 	C 	0.58591 0.90892 0.39490 0.00500
C 	C 	0.58312 0.91772 0.34437 0.00500
C 	C 	0.55289 0.92364 0.32541 -0.03200
C 	C 	0.52507 0.91948 0.35543 -0.03000
C 	C 	0.52776 0.90942 0.40539 0.03000
C 	C 	0.61776 0.90247 0.41540 0.01400
S 	S 	0.61720 0.92005 0.30379 -0.02200
H 	H 	0.55095 0.93109 0.28690 0.05000
S 	S 	0.49343 0.90042 0.44221 -0.03700
H 	H 	0.56024 0.89708 0.46344 0.04900
C 	C 	0.63891 0.92672 0.42738 -0.00400
C 	C 	0.67172 0.92075 0.43088 -0.00500
C 	C 	0.68349 0.89062 0.42387 -0.07700
C 	C 	0.66171 0.86601 0.41918 0.05400
C 	C 	0.62896 0.87205 0.41469 -0.06800
S 	S 	0.62475 0.96473 0.43612 -0.03500
H 	H 	0.68826 0.93970 0.43641 0.04900
S 	S 	0.67514 0.82764 0.41911 -0.02700
H 	H 	0.61246 0.85321 0.40795 0.05600
H 	H 	0.48535 0.87027 0.43290 0.04000
H 	H 	0.62580 0.97913 0.39086 0.04000
H 	H 	0.68237 0.81769 0.37041 0.05400
H 	H 	0.62913 0.94938 0.30588 0.04000
C 	C 	0.86467 0.03173 0.70259 -0.04900
C 	C 	0.87562 0.00125 0.69764 -0.09500
C 	C 	0.90885 0.99526 0.69804 0.13400
C 	C 	0.93029 0.01920 0.70927 -0.06100
C 	C 	0.91894 0.04924 0.71904 -0.07900
C 	C 	0.88622 0.05574 0.71269 0.11200
Br	Br	0.87068 0.09725 0.71688 -0.28000
H 	H 	0.83928 0.03667 0.70050 0.03100
H 	H 	0.95559 0.01418 0.71249 0.05400
Br	Br	0.92545 0.95485 0.68173 -0.33700
C 	C 	0.73890 0.02190 0.76738 -0.05000
C 	C 	0.74650 0.99083 0.77342 -0.12300
C 	C 	0.74540 0.97892 0.82252 0.08800
C 	C 	0.74266 0.99912 0.86479 -0.04100
C 	C 	0.73921 0.03084 0.85846 -0.12100
C 	C 	0.73440 0.04168 0.80968 0.08200
Br	Br	0.72226 0.08365 0.80018 -0.28600
H 	H 	0.73743 0.03092 0.72983 0.06000
H 	H 	0.74448 0.99026 0.90241 0.06900
Br	Br	0.74393 0.93541 0.83275 -0.30600
C 	C 	0.67099 0.95057 0.55395 -0.06700
C 	C 	0.65193 0.92473 0.56303 0.01600
C 	C 	0.66584 0.89527 0.55738 -0.00100
C 	C 	0.69930 0.89235 0.55443 -0.00100
C 	C 	0.71866 0.91871 0.55785 -0.06700
C 	C 	0.70439 0.94761 0.55030 0.05400
C 	C 	0.62105 0.92900 0.59112 0.00800
S 	S 	0.64179 0.86210 0.55805 -0.02800
H 	H 	0.71018 0.86974 0.55524 0.05300
S 	S 	0.72783 0.98000 0.53640 -0.01800
H 	H 	0.66005 0.97318 0.55364 0.05800
C 	C 	0.62011 0.93067 0.64451 0.00200
C 	C 	0.59137 0.93781 0.67069 -0.02900
C 	C 	0.56353 0.94395 0.64430 -0.03000
C 	C 	0.56414 0.94116 0.59096 0.03000
C 	C 	0.59287 0.93357 0.56469 -0.06000
S 	S 	0.65503 0.92477 0.67895 -0.00700
H 	H 	0.59090 0.93963 0.71170 0.05100
S 	S 	0.52901 0.94623 0.55682 -0.03600
H 	H 	0.59336 0.93151 0.52378 0.05300
H 	H 	0.73496 0.99563 0.58050 0.05100
H 	H 	0.65864 0.89397 0.68655 0.04500
H 	H 	0.51277 0.91890 0.55394 0.03900
H 	H 	0.63657 0.85374 0.60708 0.04100
C 	C 	0.11830 0.27105 0.30791 -0.01900
C 	C 	0.12647 0.28112 0.25924 -0.01800
C 	C 	0.14775 0.30562 0.25320 -0.04700
C 	C 	0.16053 0.32082 0.29574 0.01500
C 	C 	0.15381 0.30965 0.34408 -0.04800
C 	C 	0.13313 0.28474 0.35006 -0.01600
C 	C 	0.17747 0.35050 0.29044 0.00400
C 	C 	0.20526 0.35671 0.31782 -0.03900
C 	C 	0.21609 0.38698 0.32427 -0.03900
C 	C 	0.19983 0.41112 0.30198 0.00500
C 	C 	0.17473 0.40429 0.26919 -0.03900
C 	C 	0.16326 0.37423 0.26406 -0.03800
C 	C 	0.20549 0.44332 0.31911 0.01500
C 	C 	0.23651 0.45588 0.31716 -0.04800
C 	C 	0.24176 0.48602 0.33538 -0.01800
C 	C 	0.21596 0.50388 0.35488 -0.02100
C 	C 	0.18500 0.49141 0.35645 -0.01700
C 	C 	0.17981 0.46125 0.33907 -0.04800
H 	H 	0.11602 0.27036 0.22616 0.04000
H 	H 	0.15352 0.31341 0.21557 0.04100
H 	H 	0.16366 0.32098 0.37726 0.04300
H 	H 	0.12805 0.27661 0.38762 0.04400
H 	H 	0.21730 0.33836 0.33654 0.03800
H 	H 	0.23597 0.39184 0.34877 0.04000
H 	H 	0.16274 0.42261 0.25032 0.04100
H 	H 	0.14216 0.36974 0.24203 0.04000
H 	H 	0.25649 0.44230 0.30175 0.04300
H 	H 	0.26577 0.49548 0.33416 0.04000
H 	H 	0.16501 0.50499 0.37192 0.03900
H 	H 	0.15588 0.45165 0.34163 0.04400
C 	C 	0.08775 0.55262 0.01609 -0.01900
C 	C 	0.10188 0.52339 0.00864 -0.02100
C 	C 	0.08313 0.49688 0.01192 -0.04700
C 	C 	0.05020 0.49925 0.02378 0.01500
C 	C 	0.03673 0.52822 0.03612 -0.04700
C 	C 	0.05536 0.55480 0.03221 -0.01900
C 	C 	0.02933 0.47198 0.01768 0.00400
C 	C 	0.00393 0.47239 0.98394 -0.03500
C 	C 	0.98674 0.44553 0.97307 -0.03900
C 	C 	0.99502 0.41788 0.99528 0.00700
C 	C 	0.01956 0.41770 0.03055 -0.03900
C 	C 	0.03651 0.44468 0.04194 -0.03700
C 	C 	0.97951 0.38878 0.97905 0.01700
C 	C 	0.96419 0.37028 0.01479 -0.05000
C 	C 	0.95057 0.34220 0.99959 -0.01400
C 	C 	0.95195 0.33241 0.94831 -0.02100
C 	C 	0.96674 0.35134 0.91246 -0.01700
C 	C 	0.98060 0.37923 0.92782 -0.04800
H 	H 	0.12709 0.52122 0.99813 0.04300
H 	H 	0.09392 0.47461 0.00307 0.04300
H 	H 	0.01152 0.53024 0.04671 0.04600
H 	H 	0.04422 0.57706 0.03952 0.04600
H 	H 	0.99818 0.49329 0.96494 0.04200
H 	H 	0.96753 0.44602 0.94637 0.04300
H 	H 	0.02607 0.39651 0.04809 0.04100
H 	H 	0.05577 0.44418 0.06853 0.04000
H 	H 	0.96301 0.37756 0.05438 0.04600
H 	H 	0.93937 0.32794 0.02779 0.04400
H 	H 	0.96763 0.34441 0.87273 0.04300
H 	H 	0.99245 0.39330 0.89993 0.04400
C 	C 	0.16495 0.59952 0.89938 -0.02100
C 	C 	0.18498 0.62413 0.88604 -0.01800
C 	C 	0.20375 0.62223 0.84137 -0.04800
C 	C 	0.20285 0.59568 0.80980 0.01500
C 	C 	0.18428 0.57047 0.82449 -0.04800
C 	C 	0.16543 0.57235 0.86899 -0.01800
C 	C 	0.21837 0.59547 0.75897 0.00500
C 	C 	0.20712 0.61514 0.72241 -0.03700
C 	C 	0.21762 0.61139 0.67196 -0.03700
C 	C 	0.23958 0.58799 0.65759 0.00600
C 	C 	0.25243 0.56962 0.69474 -0.03800
C 	C 	0.24180 0.57330 0.74523 -0.03800
C 	C 	0.24584 0.58030 0.60335 0.01500
C 	C 	0.25643 0.60314 0.57057 -0.04700
C 	C 	0.25536 0.59803 0.51814 -0.01700
C 	C 	0.24379 0.56998 0.49807 -0.02000
C 	C 	0.23608 0.54618 0.53088 -0.01800
C 	C 	0.23699 0.55136 0.58324 -0.04700
H 	H 	0.18553 0.64494 0.90969 0.04300
H 	H 	0.21831 0.64169 0.83061 0.04500
H 	H 	0.18348 0.54985 0.80040 0.04400
H 	H 	0.15032 0.55308 0.87878 0.04200
H 	H 	0.18913 0.63240 0.73267 0.04400
H 	H 	0.20757 0.62574 0.64366 0.04400
H 	H 	0.26972 0.55178 0.68420 0.04100
H 	H 	0.25091 0.55824 0.77331 0.04100
H 	H 	0.26403 0.62534 0.58569 0.04500
H 	H 	0.26212 0.61633 0.49321 0.04300
H 	H 	0.22743 0.52431 0.51597 0.04200
H 	H 	0.22907 0.53344 0.60817 0.04400
C 	C 	0.91560 0.98179 0.90326 -0.06400
C 	C 	0.90301 0.95296 0.88929 -0.07200
C 	C 	0.86954 0.94917 0.88704 0.09500
C 	C 	0.84926 0.97480 0.89358 -0.05700
C 	C 	0.86209 0.00402 0.90424 -0.09700
C 	C 	0.89525 0.00719 0.91165 0.13700
Br	Br	0.91297 0.04575 0.93466 -0.37000
H 	H 	0.94128 0.98471 0.90594 0.05500
H 	H 	0.82362 0.97205 0.88955 0.01200
Br	Br	0.85122 0.90905 0.87699 -0.32000
C 	C 	0.88745 0.84595 0.78312 -0.02500
C 	C 	0.91761 0.85158 0.76045 -0.09500
C 	C 	0.91924 0.86060 0.70973 0.10400
C 	C 	0.89149 0.87080 0.68690 -0.03200
C 	C 	0.86170 0.86945 0.71279 -0.09000
C 	C 	0.85947 0.85387 0.75872 0.11600
Br	Br	0.81886 0.84055 0.78615 -0.21300
H 	H 	0.88569 0.83613 0.82020 0.08500
H 	H 	0.89320 0.88013 0.64945 0.08300
Br	Br	0.95799 0.85560 0.66948 -0.25000
C 	C 	0.03153 0.96970 0.79343 -0.06700
C 	C 	0.02419 0.96568 0.84487 -0.11400
C 	C 	0.02027 0.99187 0.87764 0.11100
C 	C 	0.02249 0.02132 0.85807 -0.05700
C 	C 	0.02710 0.02521 0.80585 -0.12300
C 	C 	0.03150 0.99896 0.77328 0.11700
Br	Br	0.03377 0.00164 0.70085 -0.24700
H 	H 	0.03502 0.94974 0.76820 0.03400
H 	H 	0.01958 0.04128 0.88345 0.01500
Br	Br	0.01064 0.98850 0.94875 -0.23700
C 	C 	0.04750 0.70012 0.99413 -0.05900
C 	C 	0.06841 0.72512 0.99991 0.00800
C 	C 	0.10024 0.71990 0.01391 0.00600
C 	C 	0.11173 0.68975 0.01638 -0.03100
C 	C 	0.09188 0.66468 0.00419 -0.03200
C 	C 	0.05916 0.66995 0.99477 0.03200
C 	C 	0.05882 0.75531 0.98108 0.01700
S 	S 	0.12642 0.75091 0.02543 -0.03300
H 	H 	0.13663 0.68581 0.02503 0.04700
S 	S 	0.03322 0.63934 0.97924 -0.03300
H 	H 	0.02276 0.70415 0.98468 0.05600
C 	C 	0.06036 0.76071 0.92887 -0.00300
C 	C 	0.04862 0.78825 0.91097 -0.00600
C 	C 	0.03598 0.81111 0.94469 -0.07400
C 	C 	0.03644 0.80653 0.99739 0.05300
C 	C 	0.04712 0.77836 0.01512 -0.06900
S 	S 	0.07700 0.73308 0.88545 -0.02800
H 	H 	0.04896 0.79173 0.87057 0.05500
S 	S 	0.02617 0.83639 0.04152 -0.00400
H 	H 	0.04670 0.77452 0.05542 0.06000
H 	H 	0.03545 0.63299 0.92817 0.04000
H 	H 	0.05367 0.71264 0.87126 0.04000
H 	H 	0.05290 0.85354 0.05171 0.04600
H 	H 	0.14067 0.75918 0.98062 0.04100
C 	C 	0.96944 0.93679 0.26972 -0.06200
C 	C 	0.94153 0.93432 0.24150 -0.08100
C 	C 	0.92443 0.90642 0.24019 0.10200
C 	C 	0.93356 0.88237 0.27069 -0.05500
C 	C 	0.96032 0.88559 0.30136 -0.09500
C 	C 	0.97910 0.91243 0.29916 0.14100
Br	Br	0.01850 0.91582 0.33468 -0.36800
H 	H 	0.98299 0.95805 0.27026 0.04500
H 	H 	0.91970 0.86130 0.27083 0.02000
Br	Br	0.88918 0.90053 0.19582 -0.32400
C 	C 	0.88397 0.79398 0.32060 -0.03600
C 	C 	0.89949 0.78572 0.36454 -0.11900
C 	C 	0.88305 0.78896 0.41174 0.09200
C 	C 	0.85387 0.80485 0.41552 -0.03300
C 	C 	0.84030 0.81660 0.37222 -0.10800
C 	C 	0.85395 0.80843 0.32412 0.08500
Br	Br	0.83056 0.81334 0.26336 -0.30700
H 	H 	0.89551 0.78985 0.28378 0.06600
H 	H 	0.84237 0.80893 0.45237 0.07900
Br	Br	0.89965 0.77121 0.47117 -0.28400
C 	C 	0.01069 0.87275 0.50794 -0.02600
C 	C 	0.03385 0.85887 0.47499 -0.10500
C 	C 	0.06512 0.87121 0.47283 0.13100
C 	C 	0.07129 0.89958 0.49721 -0.05500
C 	C 	0.04687 0.91536 0.52501 -0.09500
C 	C 	0.01735 0.90034 0.53410 0.11800
Br	Br	0.98609 0.91619 0.58300 -0.22200
H 	H 	0.98724 0.86239 0.51266 0.00700
H 	H 	0.09473 0.91002 0.49269 0.06400
Br	Br	0.10027 0.84887 0.44063 -0.22800
C 	C 	0.12856 0.63539 0.37881 -0.06000
C 	C 	0.13480 0.65329 0.33659 0.00600
C 	C 	0.16346 0.64878 0.30775 0.00700
C 	C 	0.18587 0.62695 0.32218 -0.03300
C 	C 	0.17986 0.60951 0.36504 -0.03000
C 	C 	0.15072 0.61337 0.39288 0.03000
C 	C 	0.11189 0.67779 0.32472 0.01600
S 	S 	0.17124 0.66986 0.25312 -0.03300
H 	H 	0.20798 0.62358 0.30015 0.04700
S 	S 	0.14130 0.59012 0.44449 -0.03400
H 	H 	0.10640 0.63867 0.40076 0.05400
C 	C 	0.08235 0.67042 0.30273 -0.00300
C 	C 	0.05800 0.69261 0.30239 -0.00400
C 	C 	0.06306 0.72222 0.32313 -0.07400
C 	C 	0.09351 0.73028 0.34120 0.05200
C 	C 	0.11770 0.70803 0.34204 -0.06600
S 	S 	0.07544 0.63341 0.27631 -0.03100
H 	H 	0.03481 0.68654 0.28749 0.04600
S 	S 	0.10126 0.76787 0.36456 -0.01300
H 	H 	0.14062 0.71390 0.35808 0.05800
H 	H 	0.12720 0.56350 0.42716 0.03700
H 	H 	0.06374 0.61481 0.31329 0.03900
H 	H 	0.09256 0.77019 0.41488 0.05500
H 	H 	0.15813 0.65481 0.21233 0.04000
