data_crystal

_cell_length_a 20.74253
_cell_length_b 21.71328
_cell_length_c 33.83825
_cell_angle_alpha 90.02057
_cell_angle_beta  89.98372
_cell_angle_gamma 120.01140

_symmetry_space_group_name_	'P 1'
_symmetry_space_group_name_H-M	'P 1'

loop_
_symmetry_equiv_pos_as_xyz
  x,y,z

loop_
_atom_site_label
_atom_site_type_symbol
_atom_site_fract_x
_atom_site_fract_y
_atom_site_fract_z
_atom_site_charge
C 	C 	0.35860 0.07950 0.76372 0.29600
C 	C 	0.29522 0.03458 0.59283 0.28600
C 	C 	0.48030 0.11866 0.66275 0.31700
C 	C 	0.15814 0.98002 0.68141 0.33400
C 	C 	0.40149 0.26461 0.63484 0.32300
C 	C 	0.27141 0.21662 0.70830 0.29500
Ni	Ni	0.31837 0.01924 0.67928 1.11100
Ni	Ni	0.26202 0.12441 0.64373 1.12300
Ni	Ni	0.40294 0.18795 0.70052 1.13700
O 	O 	0.36183 0.03521 0.73732 -0.35600
O 	O 	0.38337 0.14719 0.75520 -0.34000
O 	O 	0.32880 0.22999 0.62899 -0.36300
O 	O 	0.27585 0.98835 0.62198 -0.31900
O 	O 	0.31056 0.09980 0.59969 -0.35900
O 	O 	0.34472 0.24049 0.71316 -0.33500
O 	O 	0.42228 0.05732 0.65389 -0.35500
O 	O 	0.47851 0.15422 0.69399 -0.34300
O 	O 	0.22694 0.15680 0.68947 -0.37500
O 	O 	0.20908 0.96920 0.69842 -0.35100
O 	O 	0.17459 0.02100 0.64918 -0.38100
O 	O 	0.43146 0.22854 0.64702 -0.36600
O 	O 	0.31768 0.10545 0.68205 -0.71800
H 	H 	0.28575 0.09488 0.70551 0.16300
C 	C 	0.30107 0.99939 0.92385 0.35800
C 	C 	0.36484 0.03925 0.09682 0.32000
C 	C 	0.41835 0.15375 0.99303 0.27100
C 	C 	0.23906 0.86346 0.03888 0.28900
C 	C 	0.55529 0.07413 0.02303 0.32300
C 	C 	0.44854 0.89985 0.98184 0.29800
Ni	Ni	0.29316 0.01226 0.01585 1.11600
Ni	Ni	0.40482 0.95511 0.04670 1.13400
Ni	Ni	0.44011 0.03546 0.96493 1.10800
O 	O 	0.26845 0.01153 0.95482 -0.37300
O 	O 	0.35323 0.98206 0.92816 -0.37100
O 	O 	0.51845 0.01033 0.03943 -0.36700
O 	O 	0.30150 0.01952 0.07810 -0.34800
O 	O 	0.41933 0.03887 0.07828 -0.36900
O 	O 	0.47390 0.95999 0.96052 -0.33100
O 	O 	0.35780 0.12120 0.01423 -0.32700
O 	O 	0.42582 0.12217 0.96122 -0.36900
O 	O 	0.39644 0.88246 0.00838 -0.36600
O 	O 	0.21692 0.90586 0.02393 -0.32800
O 	O 	0.29632 0.88930 0.06406 -0.33500
O 	O 	0.52078 0.09796 0.00161 -0.38200
O 	O 	0.36892 0.98908 0.00530 -0.67300
H 	H 	0.33730 0.94402 0.99146 0.14200
C 	C 	0.36963 0.05607 0.25539 0.27100
C 	C 	0.29753 0.02112 0.42553 0.29700
C 	C 	0.42445 0.96751 0.34394 0.34800
C 	C 	0.25257 0.11432 0.34104 0.29600
C 	C 	0.19153 0.81792 0.35329 0.31800
C 	C 	0.12426 0.88993 0.28609 0.30700
Ni	Ni	0.36887 0.07099 0.34523 1.11300
Ni	Ni	0.19282 0.95668 0.35978 1.13100
Ni	Ni	0.28510 0.92010 0.29792 1.13500
O 	O 	0.41220 0.08226 0.28755 -0.34800
O 	O 	0.32125 0.98726 0.25197 -0.32600
O 	O 	0.15075 0.84796 0.36098 -0.35800
O 	O 	0.34110 0.07752 0.40410 -0.34800
O 	O 	0.25022 0.96118 0.40873 -0.34000
O 	O 	0.17594 0.87178 0.27776 -0.33900
O 	O 	0.42022 0.01574 0.36520 -0.38200
O 	O 	0.39443 0.95139 0.30841 -0.34800
O 	O 	0.13940 0.94430 0.30904 -0.35200
O 	O 	0.32234 0.13338 0.33223 -0.35200
O 	O 	0.21261 0.06008 0.36594 -0.34000
O 	O 	0.26101 0.85837 0.34481 -0.36400
O 	O 	0.27977 0.99133 0.32793 -0.68900
H 	H 	0.26652 0.01396 0.30673 0.14600
C 	C 	0.63437 0.69250 0.57726 0.29400
C 	C 	0.62293 0.72409 0.75166 0.31400
C 	C 	0.72075 0.86049 0.65299 0.32500
C 	C 	0.53680 0.56197 0.68090 0.29900
C 	C 	0.85124 0.78118 0.70279 0.31300
C 	C 	0.76741 0.61668 0.65199 0.31400
Ni	Ni	0.59435 0.71350 0.66260 1.12100
Ni	Ni	0.69404 0.65749 0.70937 1.12700
Ni	Ni	0.76256 0.75282 0.63300 1.12600
O 	O 	0.60151 0.71963 0.59998 -0.33700
O 	O 	0.70445 0.70903 0.58328 -0.35100
O 	O 	0.80820 0.71568 0.71639 -0.34200
O 	O 	0.57160 0.70780 0.72402 -0.32500
O 	O 	0.68712 0.73077 0.74245 -0.36600
O 	O 	0.80036 0.68070 0.63425 -0.35000
O 	O 	0.65366 0.82260 0.66739 -0.34400
O 	O 	0.74308 0.83478 0.62411 -0.36300
O 	O 	0.70579 0.59350 0.67215 -0.37500
O 	O 	0.52148 0.60553 0.66141 -0.33500
O 	O 	0.58145 0.58526 0.71255 -0.34600
O 	O 	0.82427 0.80885 0.67852 -0.38300
O 	O 	0.67588 0.69693 0.66344 -0.71200
H 	H 	0.65386 0.65495 0.64615 0.15800
C 	C 	0.66786 0.67339 0.90377 0.28300
C 	C 	0.70040 0.68179 0.07723 0.31000
C 	C 	0.79022 0.62945 0.98628 0.28100
C 	C 	0.58664 0.73215 0.00743 0.31000
C 	C 	0.57577 0.45676 0.01970 0.32100
C 	C 	0.47016 0.51352 0.96454 0.29400
Ni	Ni	0.71862 0.71839 0.98913 1.11700
Ni	Ni	0.56798 0.58976 0.03102 1.12900
Ni	Ni	0.63540 0.55277 0.95624 1.12800
O 	O 	0.72340 0.72037 0.92663 -0.32300
O 	O 	0.64701 0.60514 0.90533 -0.35200
O 	O 	0.53741 0.48415 0.03543 -0.35500
O 	O 	0.72357 0.73387 0.05094 -0.33100
O 	O 	0.65601 0.61586 0.06649 -0.36800
O 	O 	0.52004 0.49588 0.95094 -0.34500
O 	O 	0.80207 0.69324 0.99389 -0.34200
O 	O 	0.74796 0.59372 0.95599 -0.33400
O 	O 	0.48597 0.56139 0.99252 -0.39200
O 	O 	0.64961 0.76083 0.98761 -0.36200
O 	O 	0.57491 0.68753 0.03731 -0.35000
O 	O 	0.63766 0.49825 0.00218 -0.37300
O 	O 	0.63445 0.62540 0.98689 -0.71800
H 	H 	0.60402 0.63625 0.96909 0.14500
C 	C 	0.66672 0.69783 0.42035 0.28600
C 	C 	0.68383 0.70812 0.24570 0.31100
C 	C 	0.83480 0.76525 0.33658 0.31200
C 	C 	0.51936 0.63534 0.31915 0.29900
C 	C 	0.77749 0.92263 0.30768 0.31000
C 	C 	0.61549 0.85728 0.36459 0.30000
Ni	Ni	0.67244 0.66449 0.33240 1.11900
Ni	Ni	0.63590 0.78528 0.29720 1.12800
Ni	Ni	0.74638 0.82602 0.36989 1.13200
O 	O 	0.67985 0.65839 0.39465 -0.33800
O 	O 	0.70648 0.76820 0.41957 -0.34100
O 	O 	0.70876 0.89266 0.29413 -0.35100
O 	O 	0.66081 0.65359 0.27026 -0.34100
O 	O 	0.70180 0.77109 0.25910 -0.36500
O 	O 	0.68410 0.87640 0.37852 -0.32700
O 	O 	0.78436 0.70180 0.32538 -0.35300
O 	O 	0.82348 0.79371 0.36839 -0.33900
O 	O 	0.58111 0.80598 0.33835 -0.37100
O 	O 	0.55872 0.60920 0.33455 -0.35600
O 	O 	0.54730 0.68360 0.29022 -0.33700
O 	O 	0.80036 0.88306 0.32335 -0.38000
O 	O 	0.67229 0.75151 0.33896 -0.71300
H 	H 	0.63038 0.73510 0.35753 0.15800
C 	C 	0.99823 0.36216 0.56839 0.28100
C 	C 	0.99277 0.37840 0.74234 0.29600
C 	C 	0.08718 0.31433 0.66386 0.31200
C 	C 	0.89814 0.43845 0.66502 0.30100
C 	C 	0.86497 0.15812 0.69168 0.32700
C 	C 	0.77208 0.21305 0.62622 0.29400
Ni	Ni	0.02399 0.41079 0.65577 1.12200
Ni	Ni	0.86243 0.29291 0.69314 1.12700
Ni	Ni	0.93612 0.24527 0.62741 1.13600
O 	O 	0.04728 0.40524 0.59538 -0.33000
O 	O 	0.95350 0.29355 0.57508 -0.35000
O 	O 	0.82365 0.18627 0.70078 -0.36400
O 	O 	0.01778 0.42993 0.71595 -0.32900
O 	O 	0.94306 0.31345 0.73261 -0.36100
O 	O 	0.82117 0.19107 0.61798 -0.33200
O 	O 	0.09619 0.37643 0.67333 -0.35400
O 	O 	0.04818 0.28140 0.63194 -0.33100
O 	O 	0.78856 0.26694 0.65014 -0.37500
O 	O 	0.96086 0.45862 0.64546 -0.34800
O 	O 	0.88000 0.39450 0.69580 -0.35400
O 	O 	0.93023 0.19953 0.67815 -0.37500
O 	O 	0.93490 0.32249 0.65167 -0.71800
H 	H 	0.91068 0.33473 0.63049 0.16500
C 	C 	0.02498 0.34812 0.07949 0.30200
C 	C 	0.00100 0.37110 0.90857 0.34300
C 	C 	0.17537 0.42687 0.99115 0.29800
C 	C 	0.85150 0.28393 0.99008 0.28300
C 	C 	0.10232 0.57863 0.97472 0.34200
C 	C 	0.95641 0.51194 0.03968 0.30200
Ni	Ni	0.01161 0.32513 0.99064 1.11400
Ni	Ni	0.95932 0.43981 0.96911 1.11500
Ni	Ni	0.08666 0.48065 0.03353 1.12600
O 	O 	0.04108 0.31854 0.04936 -0.33300
O 	O 	0.05328 0.41787 0.08160 -0.35600
O 	O 	0.03068 0.54807 0.96587 -0.36300
O 	O 	0.97981 0.31497 0.93118 -0.35900
O 	O 	0.01802 0.43214 0.92415 -0.37000
O 	O 	0.02655 0.53014 0.05017 -0.34700
O 	O 	0.12015 0.37771 0.97083 -0.34900
O 	O 	0.16320 0.44805 0.02556 -0.33800
O 	O 	0.91571 0.45621 0.01737 -0.36300
O 	O 	0.89995 0.26603 0.00299 -0.34400
O 	O 	0.87122 0.33621 0.96344 -0.35500
O 	O 	0.12876 0.53849 0.98531 -0.38900
O 	O 	0.00669 0.40690 0.00472 -0.69300
H 	H 	0.96890 0.38684 0.02573 0.15700
C 	C 	0.99987 0.35282 0.23336 0.29000
C 	C 	0.97929 0.38785 0.40466 0.31900
C 	C 	0.05450 0.52006 0.30774 0.32400
C 	C 	0.91840 0.22185 0.34102 0.30300
C 	C 	0.20925 0.47535 0.35930 0.34300
C 	C 	0.15253 0.30828 0.30976 0.30000
Ni	Ni	0.94839 0.36487 0.31757 1.11900
Ni	Ni	0.06897 0.33912 0.36760 1.12500
Ni	Ni	0.12272 0.43194 0.29058 1.12300
O 	O 	0.95588 0.36885 0.25495 -0.32500
O 	O 	0.07254 0.38375 0.24001 -0.35600
O 	O 	0.17969 0.41130 0.37456 -0.35500
O 	O 	0.92474 0.35896 0.37872 -0.32900
O 	O 	0.04632 0.40990 0.39239 -0.36700
O 	O 	0.17835 0.37414 0.29447 -0.34900
O 	O 	0.98923 0.47343 0.32153 -0.34500
O 	O 	0.08530 0.50095 0.27980 -0.36200
O 	O 	0.09820 0.28063 0.33592 -0.37700
O 	O 	0.89262 0.25542 0.31939 -0.34100
O 	O 	0.96206 0.25385 0.37219 -0.36600
O 	O 	0.16694 0.49002 0.33848 -0.39500
O 	O 	0.03951 0.36295 0.31894 -0.70800
H 	H 	0.02645 0.32071 0.30266 0.17100
C 	C 	0.01356 0.28289 0.17940 -0.01500
C 	C 	0.97262 0.31254 0.19586 -0.05500
C 	C 	0.92283 0.32103 0.17129 0.11000
C 	C 	0.92844 0.31692 0.13012 -0.02000
C 	C 	0.98399 0.30541 0.11390 -0.08100
C 	C 	0.01799 0.27789 0.13838 0.11800
N 	N 	0.06412 0.25272 0.12185 -0.02100
H 	H 	0.04928 0.27224 0.19804 0.08600
H 	H 	0.89616 0.33115 0.11094 0.07800
N 	N 	0.86710 0.33380 0.18779 -0.01900
O 	O 	0.13217 0.27820 0.13421 -0.07600
O 	O 	0.03707 0.20216 0.09561 -0.07000
O 	O 	0.86388 0.38985 0.17742 -0.06300
O 	O 	0.81683 0.28722 0.21137 -0.07000
C 	C 	0.94707 0.38376 0.84688 -0.00500
C 	C 	0.99454 0.36434 0.86561 -0.09700
C 	C 	0.05020 0.36098 0.84342 0.12900
C 	C 	0.05725 0.37669 0.80290 -0.02900
C 	C 	0.00854 0.39468 0.78423 -0.04300
C 	C 	0.95708 0.40328 0.80709 0.08600
N 	N 	0.91386 0.43084 0.78962 -0.02100
H 	H 	0.90607 0.38917 0.86411 0.06000
H 	H 	0.09760 0.37059 0.78549 0.08500
N 	N 	0.10038 0.34270 0.86203 -0.02400
O 	O 	0.84175 0.39644 0.79324 -0.09300
O 	O 	0.94698 0.49265 0.77236 -0.07200
O 	O 	0.07462 0.28204 0.88013 -0.07600
O 	O 	0.17191 0.38423 0.85830 -0.07000
C 	C 	0.97253 0.41890 0.51218 -0.04300
C 	C 	0.00864 0.38356 0.52680 -0.03800
C 	C 	0.02680 0.34452 0.50046 0.10900
C 	C 	0.99727 0.33056 0.46233 -0.03000
C 	C 	0.96523 0.36893 0.44668 -0.07400
C 	C 	0.94910 0.41050 0.47246 0.12100
N 	N 	0.90657 0.44193 0.45893 -0.02100
H 	H 	0.95792 0.44861 0.53224 0.09300
H 	H 	0.00893 0.29757 0.44299 0.04900
N 	N 	0.07063 0.31413 0.51355 -0.02100
O 	O 	0.84839 0.40555 0.43669 -0.06300
O 	O 	0.92197 0.50438 0.47167 -0.05900
O 	O 	0.05023 0.24842 0.50507 -0.07800
O 	O 	0.13135 0.35242 0.53366 -0.06800
C 	C 	0.31026 0.53792 0.31040 0.00200
C 	C 	0.28896 0.51459 0.34959 -0.09100
C 	C 	0.34358 0.53508 0.37898 0.12700
C 	C 	0.41878 0.57648 0.36872 -0.02500
C 	C 	0.44001 0.60061 0.32961 -0.05700
C 	C 	0.38508 0.58054 0.30033 0.10300
N 	N 	0.40508 0.59970 0.25989 -0.01800
H 	H 	0.26838 0.52203 0.28748 0.02900
H 	H 	0.46094 0.58806 0.39092 0.08300
N 	N 	0.32319 0.51417 0.41927 -0.02300
O 	O 	0.43208 0.56732 0.23919 -0.06500
O 	O 	0.38868 0.64366 0.24269 -0.07200
O 	O 	0.35169 0.48128 0.43818 -0.06900
O 	O 	0.28176 0.53383 0.43808 -0.06900
C 	C 	0.83004 0.04765 0.28588 -0.05400
C 	C 	0.81947 0.99971 0.31600 -0.01300
C 	C 	0.85302 0.02621 0.35355 0.06000
C 	C 	0.88588 0.09906 0.36177 0.00700
C 	C 	0.89324 0.14648 0.33183 -0.07800
C 	C 	0.87180 0.12084 0.29290 0.12300
N 	N 	0.90331 0.16799 0.26027 -0.02300
H 	H 	0.81044 0.02832 0.25626 0.08400
H 	H 	0.90634 0.11850 0.39125 0.07400
N 	N 	0.85745 0.98036 0.38244 -0.02500
O 	O 	0.97516 0.20311 0.25600 -0.12000
O 	O 	0.86070 0.16692 0.23177 -0.08200
O 	O 	0.90850 0.96259 0.37901 -0.08600
O 	O 	0.82217 0.96946 0.41578 -0.08800
C 	C 	0.72094 0.66297 0.18691 -0.01900
C 	C 	0.68537 0.69825 0.20235 -0.06700
C 	C 	0.66195 0.73417 0.17627 0.11100
C 	C 	0.67604 0.73596 0.13565 -0.02700
C 	C 	0.70873 0.69841 0.11998 -0.06300
C 	C 	0.73306 0.66312 0.14591 0.10400
N 	N 	0.77153 0.62871 0.13083 -0.02200
H 	H 	0.74142 0.63740 0.20673 0.07800
H 	H 	0.65687 0.76271 0.11595 0.09500
N 	N 	0.62152 0.76693 0.19081 -0.02700
O 	O 	0.82858 0.66307 0.10759 -0.07800
O 	O 	0.75321 0.56509 0.14279 -0.07200
O 	O 	0.64735 0.83457 0.18532 -0.07400
O 	O 	0.55574 0.72801 0.20612 -0.08200
C 	C 	0.96170 0.62375 0.02003 -0.00100
C 	C 	0.92977 0.56323 0.04423 -0.07200
C 	C 	0.85583 0.53698 0.05699 0.12700
C 	C 	0.80958 0.55636 0.03643 -0.03800
C 	C 	0.83847 0.60603 0.00549 -0.01200
C 	C 	0.91612 0.64307 0.99890 0.06500
N 	N 	0.94883 0.69993 0.97080 -0.01800
H 	H 	0.02078 0.65172 0.01476 0.08100
H 	H 	0.75243 0.53531 0.04570 0.09500
N 	N 	0.82740 0.48978 0.09028 -0.01800
O 	O 	0.00490 0.76113 0.98103 -0.07100
O 	O 	0.92592 0.68910 0.93433 -0.06200
O 	O 	0.87253 0.49245 0.11780 -0.06200
O 	O 	0.75602 0.44772 0.09454 -0.06000
C 	C 	0.35976 0.51086 0.93718 -0.01800
C 	C 	0.39168 0.47230 0.95277 -0.06400
C 	C 	0.34530 0.40961 0.97394 0.11000
C 	C 	0.27708 0.39828 0.98907 -0.04600
C 	C 	0.25141 0.44523 0.97957 -0.05600
C 	C 	0.29099 0.49928 0.95152 0.10200
N 	N 	0.26230 0.54328 0.93804 -0.02200
H 	H 	0.39263 0.55603 0.91808 0.07000
H 	H 	0.24305 0.35181 0.00707 0.09600
N 	N 	0.36835 0.35855 0.98112 -0.03100
O 	O 	0.29551 0.61013 0.94787 -0.07900
O 	O 	0.20676 0.51801 0.91340 -0.05900
O 	O 	0.35819 0.32900 0.01572 -0.07300
O 	O 	0.39180 0.33592 0.95195 -0.07700
C 	C 	0.65690 0.77995 0.81807 -0.02400
C 	C 	0.60527 0.72356 0.79418 -0.05800
C 	C 	0.55701 0.65828 0.81259 0.10100
C 	C 	0.57245 0.64550 0.85122 -0.02500
C 	C 	0.63663 0.69703 0.87121 -0.06700
C 	C 	0.67466 0.76669 0.85601 0.10900
N 	N 	0.72895 0.82442 0.87920 -0.02000
H 	H 	0.68680 0.83312 0.80645 0.09700
H 	H 	0.53709 0.59402 0.86468 0.07500
N 	N 	0.49544 0.60318 0.79133 -0.02100
O 	O 	0.79749 0.86054 0.86699 -0.06700
O 	O 	0.70822 0.84580 0.91009 -0.07700
O 	O 	0.48512 0.53895 0.79085 -0.06800
O 	O 	0.44696 0.61613 0.77465 -0.06000
C 	C 	0.81112 0.98651 0.63644 0.02800
C 	C 	0.76471 0.93621 0.66407 -0.08300
C 	C 	0.75642 0.95884 0.70187 0.14900
C 	C 	0.78526 0.03118 0.70965 -0.04600
C 	C 	0.82995 0.08183 0.68171 -0.05500
C 	C 	0.84715 0.05885 0.64568 0.07800
N 	N 	0.90475 0.10784 0.61994 -0.04300
H 	H 	0.82070 0.96965 0.60796 0.07900
H 	H 	0.77638 0.04792 0.73834 0.08100
N 	N 	0.72706 0.90940 0.73356 -0.02600
O 	O 	0.97344 0.12565 0.62737 -0.10000
O 	O 	0.88732 0.11948 0.58492 -0.11700
O 	O 	0.76671 0.88408 0.74859 -0.08400
O 	O 	0.66499 0.89618 0.75030 -0.07800
C 	C 	0.83175 0.55805 0.62148 -0.01200
C 	C 	0.80658 0.57619 0.65548 -0.06100
C 	C 	0.80795 0.54562 0.69226 0.11600
C 	C 	0.83514 0.49873 0.69451 -0.02100
C 	C 	0.86155 0.48139 0.66075 -0.05800
C 	C 	0.85784 0.50968 0.62370 0.10600
N 	N 	0.87652 0.48655 0.58814 -0.02000
H 	H 	0.82789 0.57885 0.59300 0.08800
H 	H 	0.83654 0.47645 0.72291 0.09700
N 	N 	0.78217 0.56260 0.72760 -0.02800
O 	O 	0.84326 0.41911 0.57957 -0.09600
O 	O 	0.91887 0.53318 0.56195 -0.07800
O 	O 	0.71379 0.52147 0.73901 -0.09900
O 	O 	0.83025 0.60846 0.75229 -0.07000
C 	C 	0.57306 0.69439 0.51469 -0.01900
C 	C 	0.60195 0.66111 0.53834 -0.05300
C 	C 	0.62272 0.61486 0.52007 0.10600
C 	C 	0.63306 0.61780 0.47883 -0.02100
C 	C 	0.62075 0.66484 0.45606 -0.06000
C 	C 	0.58268 0.69697 0.47352 0.10200
N 	N 	0.56186 0.73924 0.45012 -0.02000
H 	H 	0.55052 0.72475 0.52834 0.08700
H 	H 	0.65679 0.58843 0.46525 0.08500
N 	N 	0.64096 0.57075 0.54368 -0.01900
O 	O 	0.52710 0.71481 0.41683 -0.11300
O 	O 	0.57683 0.80184 0.46236 -0.08000
O 	O 	0.60059 0.53748 0.57432 -0.08600
O 	O 	0.69856 0.56461 0.53487 -0.08000
C 	C 	0.50222 0.85709 0.38769 -0.02700
C 	C 	0.57748 0.89691 0.37639 -0.04500
C 	C 	0.60422 0.96654 0.36203 0.10600
C 	C 	0.55350 0.98809 0.35002 0.01600
C 	C 	0.47694 0.94372 0.35631 -0.08200
C 	C 	0.45199 0.88036 0.37798 0.11800
N 	N 	0.37634 0.84036 0.39101 -0.02200
H 	H 	0.48148 0.80548 0.40131 0.09400
H 	H 	0.57393 0.04026 0.33708 0.05400
N 	N 	0.68209 0.01717 0.36280 -0.03000
O 	O 	0.33642 0.77328 0.38206 -0.07100
O 	O 	0.35052 0.86853 0.41582 -0.06700
O 	O 	0.71159 0.06352 0.33446 -0.09400
O 	O 	0.71975 0.02571 0.39506 -0.08000
C 	C 	0.93268 0.84498 0.28945 -0.02100
C 	C 	0.91026 0.79455 0.32004 -0.06300
C 	C 	0.94973 0.75784 0.32576 0.10000
C 	C 	0.01389 0.77655 0.30341 -0.02100
C 	C 	0.04492 0.83786 0.28006 -0.05300
C 	C 	0.99768 0.86323 0.26756 0.10100
N 	N 	0.01408 0.90495 0.23203 -0.00900
H 	H 	0.89767 0.86676 0.28128 0.08600
H 	H 	0.04327 0.74776 0.30729 0.07600
N 	N 	0.92402 0.70080 0.35364 -0.02200
O 	O 	0.97246 0.93134 0.22155 -0.06900
O 	O 	0.06724 0.91212 0.20864 -0.05400
O 	O 	0.91016 0.63818 0.34216 -0.07600
O 	O 	0.91778 0.71226 0.39080 -0.07000
C 	C 	0.27634 0.23896 0.33753 -0.01900
C 	C 	0.22719 0.16582 0.33142 -0.05300
C 	C 	0.16272 0.14474 0.30854 0.10600
C 	C 	0.14832 0.19633 0.29230 -0.01900
C 	C 	0.19210 0.26841 0.30281 -0.05900
C 	C 	0.26003 0.29017 0.32250 0.10500
N 	N 	0.31209 0.36419 0.32797 -0.02100
H 	H 	0.32818 0.25627 0.35322 0.08100
H 	H 	0.09728 0.17911 0.27583 0.08100
N 	N 	0.11073 0.07114 0.30231 -0.02300
O 	O 	0.34168 0.38769 0.36253 -0.08000
O 	O 	0.33615 0.40643 0.29756 -0.07600
O 	O 	0.07048 0.03209 0.33162 -0.08600
O 	O 	0.09484 0.04647 0.26650 -0.06800
C 	C 	0.09985 0.68921 0.36497 -0.01800
C 	C 	0.15526 0.74171 0.34118 -0.07500
C 	C 	0.17802 0.72086 0.30634 0.10500
C 	C 	0.14212 0.64925 0.29501 -0.02000
C 	C 	0.08792 0.59652 0.31922 -0.06500
C 	C 	0.06827 0.61685 0.35516 0.11400
N 	N 	0.02220 0.56456 0.38348 -0.01700
H 	H 	0.08331 0.70414 0.39208 0.08700
H 	H 	0.15863 0.63461 0.26780 0.08300
N 	N 	0.23955 0.77155 0.28322 -0.04200
O 	O 	0.05268 0.55228 0.41376 -0.06600
O 	O 	0.95057 0.53889 0.38276 -0.05900
O 	O 	0.22771 0.78597 0.24757 -0.10000
O 	O 	0.30686 0.78883 0.29370 -0.09200
C 	C 	0.45137 0.10376 0.19854 -0.02500
C 	C 	0.39017 0.09762 0.21896 -0.05500
C 	C 	0.33261 0.09796 0.19698 0.09900
C 	C 	0.32485 0.08007 0.15664 -0.01200
C 	C 	0.37731 0.06693 0.13804 -0.06300
C 	C 	0.44318 0.08193 0.15913 0.11100
N 	N 	0.49745 0.06745 0.14224 -0.01700
H 	H 	0.49969 0.11131 0.21495 0.08100
H 	H 	0.27783 0.07541 0.14017 0.08600
N 	N 	0.27773 0.10886 0.21647 -0.02300
O 	O 	0.56324 0.11981 0.13347 -0.07600
O 	O 	0.48516 0.00254 0.14158 -0.10500
O 	O 	0.29764 0.15665 0.24408 -0.08600
O 	O 	0.20826 0.07267 0.20577 -0.07300
C 	C 	0.17235 0.66650 0.02786 0.02400
C 	C 	0.14193 0.65286 0.98947 -0.12300
C 	C 	0.14975 0.70974 0.96612 0.13500
C 	C 	0.18278 0.77850 0.98239 -0.05800
C 	C 	0.20849 0.79110 0.02184 -0.03500
C 	C 	0.20333 0.73448 0.04449 0.08400
N 	N 	0.22688 0.74500 0.08487 -0.01800
H 	H 	0.16972 0.62357 0.04541 0.03000
H 	H 	0.18925 0.82229 0.96416 0.09000
N 	N 	0.12697 0.69865 0.92556 -0.02700
O 	O 	0.18962 0.75784 0.11134 -0.06500
O 	O 	0.28153 0.73563 0.09569 -0.08000
O 	O 	0.08428 0.72189 0.91218 -0.05100
O 	O 	0.15339 0.67016 0.90137 -0.05600
C 	C 	0.66675 0.18599 0.04166 -0.03000
C 	C 	0.63685 0.11762 0.02528 -0.04700
C 	C 	0.67975 0.10515 0.99763 0.07300
C 	C 	0.74486 0.16230 0.98197 -0.01200
C 	C 	0.77218 0.23163 0.99639 -0.08600
C 	C 	0.73240 0.24324 0.02638 0.12200
N 	N 	0.75802 0.31328 0.04120 -0.02700
H 	H 	0.63480 0.19632 0.06331 0.09200
H 	H 	0.77691 0.15198 0.96035 0.07000
N 	N 	0.65754 0.03434 0.98543 -0.03900
O 	O 	0.75431 0.36034 0.01903 -0.07100
O 	O 	0.77663 0.32738 0.07817 -0.07400
O 	O 	0.63809 0.01545 0.94892 -0.09300
O 	O 	0.66924 0.99333 0.00872 -0.04300
C 	C 	0.50605 0.33242 0.04431 -0.00900
C 	C 	0.54046 0.37904 0.01288 -0.05500
C 	C 	0.54469 0.35112 0.97547 0.10200
C 	C 	0.50681 0.27725 0.96929 -0.04300
C 	C 	0.46973 0.23071 0.00059 -0.02100
C 	C 	0.47432 0.25903 0.03889 0.10100
N 	N 	0.45210 0.21393 0.07269 -0.02000
H 	H 	0.50656 0.35319 0.07352 0.08000
H 	H 	0.50605 0.25646 0.94006 0.08700
N 	N 	0.58814 0.39716 0.94397 -0.03800
O 	O 	0.49789 0.19584 0.08774 -0.07900
O 	O 	0.39418 0.20367 0.09285 -0.08100
O 	O 	0.65969 0.42210 0.94341 -0.10300
O 	O 	0.55500 0.40091 0.91220 -0.09000
C 	C 	0.52059 0.86214 0.02321 0.00700
C 	C 	0.49352 0.86461 0.98543 -0.07600
C 	C 	0.48974 0.81664 0.95624 0.12000
C 	C 	0.51255 0.76707 0.96525 -0.04300
C 	C 	0.54011 0.76541 0.00304 -0.04200
C 	C 	0.54203 0.81214 0.03231 0.10300
N 	N 	0.56696 0.80987 0.07138 -0.02100
H 	H 	0.52073 0.89643 0.04646 0.07300
H 	H 	0.51219 0.73212 0.94223 0.07200
N 	N 	0.46226 0.81749 0.91756 -0.02500
O 	O 	0.62675 0.86447 0.08521 -0.06600
O 	O 	0.52506 0.75720 0.09470 -0.07400
O 	O 	0.49316 0.87572 0.89681 -0.06000
O 	O 	0.41034 0.75881 0.90187 -0.07000
C 	C 	0.28594 0.98677 0.81471 -0.00500
C 	C 	0.33961 0.05725 0.80553 -0.08000
C 	C 	0.36583 0.10915 0.83594 0.10200
C 	C 	0.33438 0.09089 0.87360 -0.01300
C 	C 	0.29048 0.01948 0.88410 -0.12100
C 	C 	0.26193 0.96742 0.85402 0.13800
N 	N 	0.21007 0.89468 0.86350 -0.02600
H 	H 	0.26247 0.94719 0.79148 0.07900
H 	H 	0.35405 0.13138 0.89640 0.07400
N 	N 	0.42909 0.17835 0.82967 -0.01900
O 	O 	0.15553 0.87932 0.88786 -0.06100
O 	O 	0.21651 0.84372 0.84723 -0.06400
O 	O 	0.42504 0.23482 0.83798 -0.06900
O 	O 	0.49258 0.18479 0.81930 -0.07600
C 	C 	0.58238 0.09121 0.65364 -0.01600
C 	C 	0.55279 0.13548 0.64532 -0.06300
C 	C 	0.58661 0.18772 0.61555 0.11200
C 	C 	0.65681 0.20402 0.60071 -0.02300
C 	C 	0.69295 0.16867 0.61541 -0.05400
C 	C 	0.64964 0.10451 0.63601 0.09900
N 	N 	0.67017 0.05051 0.63597 -0.01900
H 	H 	0.55168 0.04494 0.67232 0.07500
H 	H 	0.68625 0.24879 0.58087 0.08300
N 	N 	0.54825 0.22073 0.59852 -0.02100
O 	O 	0.64575 0.00251 0.66365 -0.09700
O 	O 	0.70287 0.04261 0.60516 -0.07800
O 	O 	0.58286 0.28938 0.59380 -0.06900
O 	O 	0.48373 0.18166 0.58189 -0.06800
C 	C 	0.21637 0.33857 0.67714 -0.02200
C 	C 	0.13892 0.29338 0.68190 -0.06000
C 	C 	0.11404 0.24054 0.71182 0.10500
C 	C 	0.16528 0.22658 0.73100 -0.02200
C 	C 	0.23971 0.26173 0.71907 -0.05500
C 	C 	0.26662 0.32762 0.70014 0.09800
N 	N 	0.33571 0.38762 0.71289 -0.02200
H 	H 	0.23706 0.38556 0.65877 0.08400
H 	H 	0.14537 0.18213 0.75128 0.09000
N 	N 	0.03846 0.20398 0.72447 -0.01600
O 	O 	0.34637 0.45167 0.70897 -0.07000
O 	O 	0.38133 0.37774 0.73477 -0.06500
O 	O 	0.99827 0.13587 0.71838 -0.07700
O 	O 	0.01622 0.23410 0.75002 -0.07800
C 	C 	0.04838 0.86027 0.67186 -0.00100
C 	C 	0.07937 0.92730 0.68962 -0.07900
C 	C 	0.03971 0.93836 0.72012 0.13600
C 	C 	0.96600 0.88505 0.72873 -0.03700
C 	C 	0.93304 0.81939 0.70880 -0.05400
C 	C 	0.97782 0.80525 0.68317 0.08500
N 	N 	0.95473 0.73421 0.67122 -0.02100
H 	H 	0.08103 0.84940 0.65091 0.07500
H 	H 	0.93332 0.89599 0.74960 0.09100
N 	N 	0.07385 0.00301 0.74258 -0.03500
O 	O 	0.95571 0.72031 0.63390 -0.08900
O 	O 	0.95093 0.68886 0.69749 -0.07200
O 	O 	0.03713 0.03588 0.74969 -0.08200
O 	O 	0.13712 0.02365 0.76026 -0.10000
C 	C 	0.52799 0.44334 0.68468 -0.01600
C 	C 	0.50304 0.48637 0.66776 -0.05100
C 	C 	0.44888 0.45789 0.63699 0.10900
C 	C 	0.41760 0.38616 0.62596 -0.01400
C 	C 	0.44067 0.34242 0.64409 -0.07300
C 	C 	0.49828 0.37248 0.67309 0.11000
N 	N 	0.52580 0.33097 0.69160 -0.03500
H 	H 	0.57078 0.46474 0.70722 0.08800
H 	H 	0.37491 0.36453 0.60333 0.07800
N 	N 	0.42583 0.50138 0.61667 -0.01700
O 	O 	0.58093 0.32761 0.67557 -0.07500
O 	O 	0.50693 0.30981 0.72787 -0.12700
O 	O 	0.45259 0.52627 0.58183 -0.07700
O 	O 	0.37097 0.50783 0.63044 -0.07300
C 	C 	0.22792 0.00539 0.52975 -0.05700
C 	C 	0.28801 0.01118 0.55163 -0.05400
C 	C 	0.35062 0.01728 0.53158 0.10000
C 	C 	0.35572 0.02562 0.49029 -0.01700
C 	C 	0.29794 0.02572 0.46884 -0.06900
C 	C 	0.23342 0.01479 0.48875 0.11100
N 	N 	0.17409 0.01527 0.46747 -0.04000
H 	H 	0.17931 0.99991 0.54498 0.09600
H 	H 	0.40341 0.02952 0.47482 0.07500
N 	N 	0.40864 0.01422 0.55300 -0.03000
O 	O 	0.10798 0.95926 0.46761 -0.06800
O 	O 	0.18463 0.07357 0.45081 -0.08100
O 	O 	0.39185 0.96515 0.57954 -0.05600
O 	O 	0.47797 0.05593 0.54331 -0.08000
