data_crystal

_cell_length_a 47.44610
_cell_length_b 46.54918
_cell_length_c 31.53652
_cell_angle_alpha 85.03362
_cell_angle_beta  88.29038
_cell_angle_gamma 90.00010

_symmetry_space_group_name_	'P 1'
_symmetry_space_group_name_H-M	'P 1'

loop_
_symmetry_equiv_pos_as_xyz
  x,y,z

loop_
_atom_site_label
_atom_site_type_symbol
_atom_site_fract_x
_atom_site_fract_y
_atom_site_fract_z
_atom_site_charge
Zn	Zn	0.97451 0.99534 0.26026 1.22300
Zn	Zn	0.00930 0.05414 0.22262 1.20000
C 	C 	0.06498 0.94742 0.27854 0.29000
Zn	Zn	0.03808 0.99578 0.22765 1.22300
Zn	Zn	0.00353 0.93804 0.27778 1.20000
H 	H 	0.02085 0.02261 0.28930 0.19000
C 	C 	0.01269 0.01464 0.14769 0.27700
O 	O 	0.96520 0.93052 0.30269 -0.43200
O 	O 	0.94139 0.96419 0.26067 -0.36600
O 	O 	0.01304 0.01897 0.26149 -0.78800
O 	O 	0.96952 0.06387 0.23558 -0.44300
O 	O 	0.97179 0.99273 0.32331 -0.40600
O 	O 	0.94740 0.02107 0.22804 -0.39800
O 	O 	0.01169 0.96538 0.32882 -0.40000
O 	O 	0.04514 0.06248 0.19021 -0.43300
H 	H 	0.99392 0.96387 0.20578 0.18700
O 	O 	0.07116 0.02720 0.22505 -0.37100
O 	O 	0.00121 0.97000 0.23268 -0.78900
O 	O 	0.04436 0.92860 0.27748 -0.42900
O 	O 	0.03481 0.00199 0.16538 -0.40800
O 	O 	0.06793 0.96868 0.24832 -0.40100
O 	O 	0.99569 0.03057 0.16975 -0.39300
C 	C 	0.94204 0.93925 0.28368 0.28000
C 	C 	0.94828 0.04945 0.22223 0.30300
C 	C 	0.99201 0.98079 0.34645 0.28000
C 	C 	0.06960 0.05226 0.20267 0.28400
Zn	Zn	0.95307 0.01183 0.76670 1.22400
Zn	Zn	0.99936 0.05872 0.71327 1.19900
C 	C 	0.03036 0.93822 0.77200 0.30000
Zn	Zn	0.01464 0.99673 0.73684 1.22200
Zn	Zn	0.96878 0.94852 0.77876 1.20000
H 	H 	0.00321 0.03372 0.78770 0.18800
C 	C 	0.00077 0.01167 0.64939 0.28000
O 	O 	0.93208 0.95010 0.80986 -0.43200
O 	O 	0.91408 0.98867 0.77018 -0.37100
O 	O 	0.99458 0.02852 0.76120 -0.78700
O 	O 	0.96159 0.07715 0.71099 -0.42900
O 	O 	0.95523 0.00698 0.82950 -0.40400
O 	O 	0.93007 0.04438 0.74296 -0.40100
O 	O 	0.98786 0.97069 0.82908 -0.38900
O 	O 	0.03847 0.05609 0.68936 -0.43200
H 	H 	0.96381 0.97899 0.70878 0.19100
O 	O 	0.05376 0.01932 0.73569 -0.36700
O 	O 	0.97232 0.98206 0.73632 -0.79200
O 	O 	0.00484 0.92778 0.76861 -0.43600
O 	O 	0.01789 0.99627 0.67432 -0.41100
O 	O 	0.03465 0.96615 0.77214 -0.40400
O 	O 	0.98513 0.03196 0.66465 -0.39900
C 	C 	0.91036 0.96434 0.79402 0.28300
C 	C 	0.93746 0.06317 0.71087 0.28900
C 	C 	0.97456 0.99078 0.84893 0.27300
C 	C 	0.05900 0.04250 0.70979 0.28100
Zn	Zn	0.27031 0.28812 0.18760 1.22300
Zn	Zn	0.32518 0.24946 0.15846 1.20000
C 	C 	0.21108 0.19958 0.19104 0.28500
Zn	Zn	0.26682 0.22352 0.16810 1.22500
Zn	Zn	0.21175 0.26262 0.20140 1.20100
H 	H 	0.29559 0.24037 0.22648 0.19200
C 	C 	0.28449 0.24614 0.08341 0.27400
O 	O 	0.20763 0.30158 0.22162 -0.43200
O 	O 	0.24216 0.32395 0.17902 -0.36800
O 	O 	0.29169 0.24821 0.19705 -0.79300
O 	O 	0.33923 0.28945 0.16286 -0.43600
O 	O 	0.26637 0.28930 0.25036 -0.40500
O 	O 	0.29745 0.31384 0.15394 -0.41000
O 	O 	0.23687 0.25010 0.25640 -0.39100
O 	O 	0.33062 0.21126 0.13603 -0.43200
H 	H 	0.23977 0.27048 0.13196 0.18700
O 	O 	0.29485 0.18746 0.17436 -0.36900
O 	O 	0.24441 0.26278 0.16115 -0.79000
O 	O 	0.19721 0.22225 0.20279 -0.42200
O 	O 	0.27194 0.22445 0.10615 -0.41400
O 	O 	0.23835 0.19709 0.19678 -0.40400
O 	O 	0.30190 0.26338 0.10126 -0.38800
C 	C 	0.21807 0.32492 0.20048 0.28100
C 	C 	0.32511 0.31372 0.15648 0.30200
C 	C 	0.25302 0.26852 0.27406 0.27400
C 	C 	0.31915 0.18716 0.15326 0.28300
Zn	Zn	0.26682 0.26354 0.68809 1.22300
Zn	Zn	0.32499 0.23406 0.65388 1.19900
C 	C 	0.21941 0.16754 0.69654 0.27600
Zn	Zn	0.26951 0.20065 0.65967 1.22400
Zn	Zn	0.21454 0.22908 0.71360 1.19700
H 	H 	0.29678 0.21636 0.72158 0.19400
C 	C 	0.28286 0.23407 0.57942 0.27700
O 	O 	0.20406 0.26821 0.73034 -0.43000
O 	O 	0.23433 0.29519 0.68481 -0.36400
O 	O 	0.29207 0.22541 0.69311 -0.78700
O 	O 	0.33352 0.27452 0.66575 -0.43600
O 	O 	0.26875 0.26729 0.74985 -0.40900
O 	O 	0.28948 0.29234 0.65241 -0.40600
O 	O 	0.24484 0.22516 0.76418 -0.39200
O 	O 	0.33427 0.20057 0.62123 -0.43200
H 	H 	0.23315 0.24347 0.63892 0.18600
O 	O 	0.30231 0.16928 0.65530 -0.37300
O 	O 	0.24191 0.23546 0.66548 -0.79500
O 	O 	0.21346 0.18626 0.72451 -0.42300
O 	O 	0.27264 0.20958 0.59767 -0.41400
O 	O 	0.24455 0.16724 0.67740 -0.39700
O 	O 	0.29951 0.25033 0.60019 -0.38600
C 	C 	0.21059 0.29259 0.70761 0.27800
C 	C 	0.31653 0.29648 0.65760 0.30000
C 	C 	0.25861 0.24696 0.77739 0.28400
C 	C 	0.32466 0.17418 0.63005 0.28600
Zn	Zn	0.22299 0.71000 0.39493 1.22400
Zn	Zn	0.28499 0.73277 0.43167 1.19900
C 	C 	0.18879 0.81187 0.39448 0.30100
Zn	Zn	0.23519 0.77252 0.41933 1.22300
Zn	Zn	0.17287 0.75033 0.39146 1.20100
H 	H 	0.26197 0.74920 0.36225 0.18700
C 	C 	0.24486 0.74888 0.50499 0.27700
O 	O 	0.15845 0.71662 0.36484 -0.43300
O 	O 	0.18648 0.68243 0.39839 -0.36800
O 	O 	0.25467 0.74215 0.39101 -0.79000
O 	O 	0.28792 0.68985 0.43332 -0.42200
O 	O 	0.21919 0.71565 0.33276 -0.41100
O 	O 	0.24317 0.67573 0.41914 -0.40500
O 	O 	0.19957 0.76065 0.33431 -0.38700
O 	O 	0.29880 0.76936 0.45265 -0.43000
H 	H 	0.19885 0.73133 0.45678 0.19200
O 	O 	0.27125 0.80027 0.41184 -0.36900
O 	O 	0.20470 0.73895 0.42756 -0.79300
O 	O 	0.16907 0.79198 0.40092 -0.43500
O 	O 	0.23761 0.77240 0.48164 -0.41000
O 	O 	0.21531 0.80487 0.38782 -0.40700
O 	O 	0.25645 0.72706 0.48701 -0.39200
C 	C 	0.16316 0.68965 0.37857 0.28200
C 	C 	0.27066 0.67186 0.41688 0.28400
C 	C 	0.21219 0.74070 0.31318 0.27400
C 	C 	0.29419 0.79514 0.43360 0.28000
Zn	Zn	0.23440 0.71505 0.89987 1.22400
Zn	Zn	0.28425 0.75988 0.92933 1.20000
C 	C 	0.16866 0.79747 0.87864 0.30300
Zn	Zn	0.22390 0.77971 0.91777 1.22300
Zn	Zn	0.17409 0.73445 0.89131 1.20200
H 	H 	0.25731 0.76458 0.86071 0.18800
C 	C 	0.24059 0.76200 0.00347 0.26500
O 	O 	0.17302 0.69575 0.87006 -0.43300
O 	O 	0.20965 0.67622 0.90800 -0.36800
O 	O 	0.25266 0.75678 0.89028 -0.78700
O 	O 	0.30283 0.72132 0.92991 -0.42500
O 	O 	0.23148 0.71434 0.83782 -0.41200
O 	O 	0.26408 0.69202 0.92909 -0.40700
O 	O 	0.19800 0.74989 0.83337 -0.39500
O 	O 	0.28426 0.79907 0.94965 -0.43000
H 	H 	0.20193 0.72983 0.95811 0.19100
O 	O 	0.24919 0.81810 0.90813 -0.36600
O 	O 	0.20607 0.73767 0.92839 -0.79100
O 	O 	0.15717 0.77309 0.89462 -0.44100
O 	O 	0.22626 0.78142 0.97997 -0.40100
O 	O 	0.19513 0.80384 0.88583 -0.39800
O 	O 	0.25888 0.74507 0.98554 -0.38700
C 	C 	0.18630 0.67312 0.88734 0.28300
C 	C 	0.29133 0.69650 0.92270 0.29000
C 	C 	0.21687 0.73379 0.81496 0.27700
C 	C 	0.27232 0.82138 0.92914 0.28100
Zn	Zn	0.51837 0.99840 0.98795 1.22200
Zn	Zn	0.47404 0.94904 0.96013 1.20000
C 	C 	0.43914 0.06182 0.00700 0.27900
Zn	Zn	0.45598 0.01168 0.95987 1.22300
Zn	Zn	0.50069 0.05948 0.99939 1.20100
H 	H 	0.46771 0.97817 0.02375 0.18600
C 	C 	0.47837 0.99298 0.88007 0.27400
O 	O 	0.53916 0.05799 0.02234 -0.43400
O 	O 	0.55678 0.02295 0.98264 -0.36300
O 	O 	0.47625 0.98208 0.99481 -0.78500
O 	O 	0.51114 0.93088 0.97215 -0.44200
O 	O 	0.52049 0.99689 0.05083 -0.41000
O 	O 	0.54051 0.96972 0.95714 -0.39900
O 	O 	0.48639 0.03132 0.05479 -0.40000
O 	O 	0.43758 0.94937 0.93097 -0.43200
H 	H 	0.50560 0.03600 0.93023 0.18600
O 	O 	0.41779 0.98664 0.96355 -0.37000
O 	O 	0.49710 0.02994 0.95864 -0.78500
O 	O 	0.46248 0.07669 0.99842 -0.42600
O 	O 	0.45875 0.00870 0.89755 -0.40500
O 	O 	0.43129 0.04229 0.98174 -0.39100
O 	O 	0.49233 0.97325 0.90356 -0.39500
C 	C 	0.56070 0.04539 0.00448 0.27700
C 	C 	0.53535 0.94184 0.95742 0.30200
C 	C 	0.50243 0.01121 0.07351 0.28000
C 	C 	0.41517 0.96280 0.94450 0.28300
Zn	Zn	0.54023 0.99433 0.49300 1.22200
Zn	Zn	0.50718 0.93418 0.46353 1.19900
C 	C 	0.44687 0.04376 0.49148 0.30200
Zn	Zn	0.47639 0.99043 0.46889 1.22200
Zn	Zn	0.50845 0.05129 0.48544 1.20000
H 	H 	0.49774 0.96077 0.52947 0.18600
C 	C 	0.49322 0.97595 0.38473 0.27900
O 	O 	0.54431 0.06198 0.51065 -0.43300
O 	O 	0.57173 0.02759 0.48274 -0.37000
O 	O 	0.50441 0.96673 0.49998 -0.78600
O 	O 	0.54842 0.92686 0.46184 -0.43000
O 	O 	0.53710 0.00122 0.55436 -0.40400
O 	O 	0.57085 0.96856 0.47462 -0.40000
O 	O 	0.49659 0.02778 0.54626 -0.39200
O 	O 	0.46881 0.92476 0.44476 -0.43200
H 	H 	0.52064 0.01960 0.42657 0.19000
O 	O 	0.44450 0.95784 0.48085 -0.36800
O 	O 	0.51349 0.01593 0.45635 -0.79000
O 	O 	0.46797 0.05952 0.47452 -0.43900
O 	O 	0.47289 0.98734 0.40715 -0.40900
O 	O 	0.44908 0.01550 0.49809 -0.40000
O 	O 	0.51356 0.96122 0.40401 -0.39900
C 	C 	0.56909 0.05297 0.49774 0.28200
C 	C 	0.56765 0.94674 0.45110 0.28700
C 	C 	0.51463 0.01331 0.57095 0.27500
C 	C 	0.44524 0.93352 0.46247 0.28100
Zn	Zn	0.73572 0.78203 0.29248 1.22400
Zn	Zn	0.78383 0.73604 0.25514 1.19900
C 	C 	0.66757 0.70103 0.31817 0.30400
Zn	Zn	0.72313 0.71789 0.27471 1.22300
Zn	Zn	0.67498 0.76393 0.30659 1.20100
H 	H 	0.75812 0.73193 0.32727 0.18700
C 	C 	0.73878 0.73425 0.18665 0.27500
O 	O 	0.67522 0.80234 0.32885 -0.43400
O 	O 	0.71208 0.82141 0.28749 -0.36900
O 	O 	0.75315 0.74004 0.29841 -0.78600
O 	O 	0.80294 0.77445 0.25030 -0.42100
O 	O 	0.73312 0.78185 0.35497 -0.41200
O 	O 	0.76611 0.80472 0.26197 -0.40500
O 	O 	0.69857 0.74719 0.36209 -0.39300
O 	O 	0.78227 0.69644 0.23638 -0.43100
H 	H 	0.70265 0.76856 0.23684 0.19100
O 	O 	0.74714 0.67890 0.28234 -0.36600
O 	O 	0.70667 0.76042 0.26608 -0.79200
O 	O 	0.65675 0.72586 0.30395 -0.44200
O 	O 	0.72408 0.71553 0.21223 -0.40500
O 	O 	0.69436 0.69497 0.31094 -0.40000
O 	O 	0.75780 0.75084 0.20210 -0.39200
C 	C 	0.68889 0.82480 0.31039 0.28300
C 	C 	0.79302 0.79825 0.26488 0.28200
C 	C 	0.71826 0.76237 0.37886 0.27600
C 	C 	0.77027 0.67484 0.25971 0.28000
Zn	Zn	0.71930 0.78939 0.79844 1.22500
Zn	Zn	0.78254 0.76706 0.75811 1.19800
C 	C 	0.68603 0.68740 0.80091 0.30100
Zn	Zn	0.73260 0.72700 0.77382 1.22300
Zn	Zn	0.66935 0.74862 0.80275 1.20000
H 	H 	0.75820 0.75104 0.82893 0.18600
C 	C 	0.74451 0.74858 0.68682 0.27800
O 	O 	0.65380 0.78208 0.83000 -0.43300
O 	O 	0.68276 0.81650 0.79608 -0.37000
O 	O 	0.75137 0.75785 0.80045 -0.78900
O 	O 	0.78392 0.81012 0.75372 -0.41800
O 	O 	0.71378 0.78323 0.86071 -0.41100
O 	O 	0.74008 0.82411 0.77562 -0.40100
O 	O 	0.69420 0.73822 0.85964 -0.38500
O 	O 	0.79748 0.72994 0.73923 -0.42900
H 	H 	0.69737 0.76800 0.73668 0.19200
O 	O 	0.76846 0.69965 0.78149 -0.36800
O 	O 	0.70224 0.76042 0.76584 -0.79300
O 	O 	0.66638 0.70692 0.79318 -0.43500
O 	O 	0.73637 0.72567 0.71153 -0.40900
O 	O 	0.71217 0.69501 0.80709 -0.40700
O 	O 	0.75553 0.77090 0.70333 -0.39100
C 	C 	0.65914 0.80920 0.81718 0.28400
C 	C 	0.76770 0.82677 0.77575 0.27500
C 	C 	0.70666 0.75800 0.88030 0.27400
C 	C 	0.79236 0.70459 0.75992 0.28100
Zn	Zn	0.76723 0.20853 0.04491 1.22200
Zn	Zn	0.82505 0.24468 0.06455 1.20100
C 	C 	0.71304 0.30084 0.04779 0.29000
Zn	Zn	0.76784 0.27336 0.06452 1.22500
Zn	Zn	0.71012 0.23715 0.03995 1.20000
H 	H 	0.79376 0.25517 0.00214 0.19100
C 	C 	0.78874 0.25161 0.14636 0.27600
O 	O 	0.70300 0.19891 0.01910 -0.43400
O 	O 	0.73710 0.17417 0.05632 -0.36900
O 	O 	0.79042 0.24748 0.03212 -0.79400
O 	O 	0.83585 0.20393 0.05811 -0.44000
O 	O 	0.76145 0.20816 0.98291 -0.40200
O 	O 	0.79359 0.18081 0.07448 -0.40600
O 	O 	0.73427 0.24894 0.98128 -0.38800
O 	O 	0.83390 0.28255 0.08539 -0.43300
H 	H 	0.73966 0.22765 0.10529 0.18900
O 	O 	0.79772 0.30804 0.05406 -0.36900
O 	O 	0.74374 0.23505 0.07535 -0.79100
O 	O 	0.69760 0.27803 0.04201 -0.42700
O 	O 	0.77477 0.27259 0.12555 -0.41500
O 	O 	0.74034 0.30122 0.03893 -0.40600
O 	O 	0.80305 0.23260 0.12557 -0.39300
C 	C 	0.71297 0.17459 0.03687 0.28200
C 	C 	0.82139 0.18067 0.07172 0.30400
C 	C 	0.74897 0.22987 0.96126 0.27300
C 	C 	0.82267 0.30724 0.07130 0.28400
Zn	Zn	0.76549 0.23137 0.54251 1.22300
Zn	Zn	0.82118 0.26163 0.57886 1.19900
C 	C 	0.71778 0.32737 0.53084 0.27700
Zn	Zn	0.76555 0.29435 0.57132 1.22400
Zn	Zn	0.71510 0.26561 0.51360 1.19700
H 	H 	0.79674 0.27922 0.51058 0.19400
C 	C 	0.77546 0.26131 0.65216 0.27800
O 	O 	0.70634 0.22648 0.49566 -0.43000
O 	O 	0.73318 0.19943 0.54349 -0.36400
O 	O 	0.79041 0.26994 0.53868 -0.78700
O 	O 	0.83079 0.22132 0.56712 -0.43700
O 	O 	0.77152 0.22769 0.48102 -0.41000
O 	O 	0.78640 0.20266 0.57916 -0.40400
O 	O 	0.74901 0.27012 0.46541 -0.39300
O 	O 	0.82810 0.29516 0.61191 -0.43300
H 	H 	0.72831 0.25112 0.58968 0.18600
O 	O 	0.79764 0.32627 0.57708 -0.37100
O 	O 	0.73884 0.25923 0.56381 -0.79400
O 	O 	0.71426 0.30845 0.50270 -0.42500
O 	O 	0.76514 0.28528 0.63345 -0.41300
O 	O 	0.74099 0.32749 0.55300 -0.39700
O 	O 	0.79284 0.24503 0.63128 -0.38800
C 	C 	0.71133 0.20198 0.51857 0.27700
C 	C 	0.81385 0.19908 0.57554 0.30000
C 	C 	0.76414 0.24859 0.45316 0.28500
C 	C 	0.81913 0.32154 0.60213 0.28500
Zn	Zn	0.47799 0.50538 0.96843 1.22300
Zn	Zn	0.51208 0.44618 0.00299 1.19900
C 	C 	0.56846 0.55194 0.94106 0.28800
Zn	Zn	0.54158 0.50434 0.99537 1.22500
Zn	Zn	0.50753 0.56241 0.94782 1.20000
H 	H 	0.52400 0.47766 0.93541 0.19000
C 	C 	0.51608 0.48567 0.07760 0.27800
O 	O 	0.46943 0.57025 0.92563 -0.43300
O 	O 	0.44521 0.53691 0.97009 -0.36500
O 	O 	0.51622 0.48134 0.96391 -0.78700
O 	O 	0.47210 0.43707 0.99366 -0.43900
O 	O 	0.47528 0.50757 0.90578 -0.40600
O 	O 	0.45062 0.48007 0.00329 -0.40100
O 	O 	0.51538 0.53480 0.89625 -0.39800
O 	O 	0.54775 0.43740 0.03238 -0.43200
H 	H 	0.49778 0.53678 0.02088 0.18200
O 	O 	0.57427 0.47256 0.99547 -0.36700
O 	O 	0.50499 0.53056 0.99336 -0.78300
O 	O 	0.54850 0.57126 0.94467 -0.42800
O 	O 	0.53821 0.49841 0.05792 -0.41100
O 	O 	0.57167 0.53105 0.97144 -0.39900
O 	O 	0.49888 0.46993 0.05697 -0.39500
C 	C 	0.44580 0.56108 0.94514 0.28100
C 	C 	0.45121 0.45170 0.00925 0.29900
C 	C 	0.49555 0.51934 0.88066 0.28000
C 	C 	0.57242 0.44767 0.01846 0.27900
Zn	Zn	0.45494 0.48758 0.46348 1.22400
Zn	Zn	0.50013 0.44044 0.51432 1.19900
C 	C 	0.53308 0.56035 0.45152 0.30100
Zn	Zn	0.51658 0.50207 0.48871 1.22300
Zn	Zn	0.47157 0.55061 0.45019 1.20000
H 	H 	0.50492 0.46486 0.43932 0.18800
C 	C 	0.50209 0.48788 0.57730 0.28100
O 	O 	0.43546 0.54948 0.42065 -0.43300
O 	O 	0.41628 0.51127 0.46164 -0.37100
O 	O 	0.49617 0.47038 0.46633 -0.78800
O 	O 	0.46204 0.42258 0.51953 -0.42900
O 	O 	0.45799 0.49212 0.40059 -0.40700
O 	O 	0.43126 0.45544 0.48917 -0.40300
O 	O 	0.49105 0.52816 0.39884 -0.39100
O 	O 	0.53909 0.44272 0.53538 -0.43200
H 	H 	0.46566 0.52032 0.52056 0.19100
O 	O 	0.55542 0.47892 0.48735 -0.36700
O 	O 	0.47434 0.51714 0.49242 -0.79200
O 	O 	0.50776 0.57074 0.45850 -0.43800
O 	O 	0.51956 0.50288 0.55080 -0.41000
O 	O 	0.53730 0.53237 0.45172 -0.40300
O 	O 	0.48610 0.46772 0.56361 -0.40000
C 	C 	0.41326 0.53504 0.43659 0.28400
C 	C 	0.43818 0.43694 0.52117 0.28800
C 	C 	0.47774 0.50813 0.37991 0.27500
C 	C 	0.56003 0.45585 0.51331 0.28000
Zn	Zn	0.01970 0.50168 0.22193 1.22200
Zn	Zn	0.97339 0.54878 0.25481 1.20000
C 	C 	0.94321 0.43383 0.20911 0.29000
Zn	Zn	0.95757 0.48544 0.25449 1.22200
Zn	Zn	0.00452 0.43964 0.21241 1.20000
H 	H 	0.96884 0.52025 0.19058 0.18900
C 	C 	0.97793 0.50424 0.33375 0.27500
O 	O 	0.04312 0.44287 0.18661 -0.43300
O 	O 	0.05882 0.47881 0.22482 -0.36800
O 	O 	0.97721 0.51634 0.21887 -0.78800
O 	O 	0.01005 0.56878 0.24182 -0.44200
O 	O 	0.02198 0.50291 0.15860 -0.40500
O 	O 	0.04088 0.53099 0.25115 -0.40000
O 	O 	0.98931 0.46683 0.15804 -0.39800
O 	O 	0.93624 0.54644 0.28543 -0.43200
H 	H 	0.00781 0.46368 0.28088 0.18600
O 	O 	0.91857 0.50875 0.25295 -0.36900
O 	O 	0.99939 0.46923 0.25302 -0.78600
O 	O 	0.96713 0.42046 0.21705 -0.43300
O 	O 	0.95910 0.48795 0.31705 -0.40400
O 	O 	0.93424 0.45411 0.23304 -0.39400
O 	O 	0.99156 0.52468 0.30979 -0.39500
C 	C 	0.06383 0.45610 0.20376 0.28100
C 	C 	0.03453 0.55838 0.25400 0.30200
C 	C 	0.00449 0.48766 0.13769 0.27600
C 	C 	0.91469 0.53269 0.27153 0.28200
Zn	Zn	0.03859 0.50170 0.71603 1.22200
Zn	Zn	0.00538 0.56221 0.74584 1.19900
C 	C 	0.94510 0.45171 0.72527 0.30200
Zn	Zn	0.97455 0.50552 0.74505 1.22200
Zn	Zn	0.00670 0.44463 0.72670 1.20000
H 	H 	0.99622 0.53443 0.68185 0.18700
C 	C 	0.99142 0.52148 0.82724 0.27900
O 	O 	0.04293 0.43399 0.69957 -0.43300
O 	O 	0.06996 0.46873 0.72519 -0.37000
O 	O 	0.00274 0.52896 0.71096 -0.78600
O 	O 	0.04657 0.56986 0.74366 -0.43000
O 	O 	0.03605 0.49415 0.65496 -0.40300
O 	O 	0.06912 0.52776 0.73198 -0.39800
O 	O 	0.99536 0.46759 0.66626 -0.39100
O 	O 	0.96693 0.57162 0.76723 -0.43200
H 	H 	0.01844 0.47677 0.78427 0.18900
O 	O 	0.94281 0.53785 0.73426 -0.36800
O 	O 	0.01151 0.48023 0.75498 -0.79100
O 	O 	0.96615 0.43609 0.74055 -0.43900
O 	O 	0.97105 0.50963 0.80710 -0.40600
O 	O 	0.94720 0.48001 0.71871 -0.40000
O 	O 	0.01169 0.53612 0.80561 -0.39900
C 	C 	0.06742 0.44298 0.71160 0.28200
C 	C 	0.06569 0.55030 0.75428 0.28800
C 	C 	0.01362 0.48200 0.64010 0.27300
C 	C 	0.94368 0.56285 0.75065 0.28100
C 	C 	0.99440 0.49279 0.46345 0.10600
N 	N 	0.01074 0.51068 0.43675 -0.06500
N 	N 	0.00571 0.51397 0.39526 -0.05400
C 	C 	0.98428 0.49934 0.37918 0.04900
N 	N 	0.96807 0.48124 0.40578 -0.05300
N 	N 	0.97305 0.47803 0.44735 -0.06500
C 	C 	0.00858 0.48496 0.59412 0.04900
N 	N 	0.98627 0.47146 0.57844 -0.05200
N 	N 	0.98181 0.47384 0.53674 -0.06400
C 	C 	0.99953 0.48982 0.50949 0.10600
N 	N 	0.02183 0.50334 0.52519 -0.06500
N 	N 	0.02633 0.50090 0.56689 -0.05400
C 	C 	0.99686 0.50436 0.00634 0.10100
N 	N 	0.97924 0.48533 0.02886 -0.06500
N 	N 	0.98141 0.48038 0.07091 -0.05400
C 	C 	0.00117 0.49440 0.09170 0.04600
N 	N 	0.01861 0.51364 0.06926 -0.05300
N 	N 	0.01650 0.51854 0.02717 -0.06500
C 	C 	0.99263 0.51703 0.87388 0.04700
N 	N 	0.01311 0.53005 0.89458 -0.05300
N 	N 	0.01433 0.52616 0.93685 -0.06500
C 	C 	0.99513 0.50908 0.95969 0.11000
N 	N 	0.97460 0.49605 0.93901 -0.06500
N 	N 	0.97334 0.50002 0.89669 -0.05300
C 	C 	0.49756 0.50688 0.75135 0.10500
N 	N 	0.51722 0.52375 0.76748 -0.06400
N 	N 	0.51676 0.52746 0.80892 -0.05300
C 	C 	0.49663 0.51441 0.83539 0.04600
N 	N 	0.47699 0.49750 0.81929 -0.05200
N 	N 	0.47749 0.49374 0.77787 -0.06500
C 	C 	0.49997 0.49397 0.62209 0.04500
N 	N 	0.48075 0.47978 0.64894 -0.05400
N 	N 	0.47978 0.48414 0.69016 -0.06500
C 	C 	0.49811 0.50270 0.70573 0.10500
N 	N 	0.51721 0.51705 0.67881 -0.06400
N 	N 	0.51813 0.51275 0.63756 -0.05100
C 	C 	0.50041 0.49503 0.20634 0.10500
N 	N 	0.52203 0.50956 0.18499 -0.06500
N 	N 	0.52694 0.50672 0.14374 -0.05300
C 	C 	0.51028 0.48937 0.12266 0.04800
N 	N 	0.48859 0.47495 0.14395 -0.05100
N 	N 	0.48373 0.47772 0.18521 -0.06400
C 	C 	0.48446 0.50401 0.33522 0.04900
N 	N 	0.46959 0.48473 0.31487 -0.05200
N 	N 	0.47481 0.48176 0.27376 -0.06400
C 	C 	0.49508 0.49796 0.25183 0.10500
N 	N 	0.51012 0.51709 0.27226 -0.06400
N 	N 	0.50484 0.52012 0.31338 -0.05200
C 	C 	0.85957 0.38492 0.66321 0.10700
N 	N 	0.85132 0.39063 0.62241 -0.06300
N 	N 	0.83689 0.37096 0.60344 -0.05300
C 	C 	0.83048 0.34504 0.62468 0.05200
N 	N 	0.83802 0.33974 0.66578 -0.05100
N 	N 	0.85220 0.35942 0.68481 -0.06400
C 	C 	0.91961 0.43710 0.71291 0.04600
N 	N 	0.91128 0.41195 0.73461 -0.05400
N 	N 	0.89109 0.39604 0.71972 -0.06500
C 	C 	0.87893 0.40454 0.68228 0.10700
N 	N 	0.88673 0.43009 0.66105 -0.06200
N 	N 	0.90672 0.44620 0.67626 -0.04800
C 	C 	0.66227 0.39662 0.52488 0.10500
N 	N 	0.67386 0.38719 0.56242 -0.06500
N 	N 	0.69274 0.36594 0.56398 -0.05700
C 	C 	0.70016 0.35321 0.52819 0.04700
N 	N 	0.68907 0.36307 0.49052 -0.05200
N 	N 	0.67057 0.38463 0.48884 -0.06600
C 	C 	0.58875 0.44498 0.51858 0.04900
N 	N 	0.60720 0.44618 0.48476 -0.05300
N 	N 	0.63154 0.43193 0.48744 -0.06400
C 	C 	0.63828 0.41647 0.52424 0.10500
N 	N 	0.62042 0.41646 0.55866 -0.06600
N 	N 	0.59590 0.43031 0.55577 -0.05200
C 	C 	0.75981 0.24322 0.78226 0.10600
N 	N 	0.77842 0.22693 0.76124 -0.06300
N 	N 	0.78273 0.23201 0.71929 -0.05100
C 	C 	0.76852 0.25348 0.69724 0.05000
N 	N 	0.74952 0.26933 0.71815 -0.05300
N 	N 	0.74520 0.26425 0.76003 -0.06400
C 	C 	0.75190 0.23326 0.91473 0.05000
N 	N 	0.73769 0.25446 0.89221 -0.05300
N 	N 	0.73998 0.25739 0.84988 -0.06400
C 	C 	0.75657 0.23922 0.82883 0.10600
N 	N 	0.77077 0.21795 0.85134 -0.06400
N 	N 	0.76840 0.21496 0.89372 -0.05200
C 	C 	0.78739 0.25046 0.32483 0.10500
N 	N 	0.78199 0.27533 0.34304 -0.06500
N 	N 	0.77567 0.27480 0.38449 -0.05400
C 	C 	0.77484 0.24942 0.40908 0.04400
N 	N 	0.78119 0.22460 0.39124 -0.05000
N 	N 	0.78730 0.22510 0.34962 -0.06400
C 	C 	0.79047 0.25132 0.19261 0.04900
N 	N 	0.79518 0.22637 0.21696 -0.05400
N 	N 	0.79496 0.22612 0.25932 -0.06400
C 	C 	0.79035 0.25089 0.27833 0.10500
N 	N 	0.78634 0.27588 0.25382 -0.06400
N 	N 	0.78627 0.27606 0.21163 -0.05000
C 	C 	0.88786 0.39300 0.13328 0.10700
N 	N 	0.91607 0.39283 0.12471 -0.06600
N 	N 	0.93361 0.40650 0.14835 -0.05800
C 	C 	0.92349 0.42098 0.18108 0.04900
N 	N 	0.89521 0.42193 0.18895 -0.04700
N 	N 	0.87764 0.40799 0.16551 -0.06200
C 	C 	0.83703 0.33407 0.07882 0.05300
N 	N 	0.82565 0.35156 0.10708 -0.04900
N 	N 	0.84146 0.37157 0.12288 -0.06100
C 	C 	0.86908 0.37470 0.11071 0.10700
N 	N 	0.87999 0.35824 0.08076 -0.06600
N 	N 	0.86426 0.33810 0.06530 -0.06100
C 	C 	0.66407 0.37429 0.05249 0.10600
N 	N 	0.66020 0.35165 0.08222 -0.06600
N 	N 	0.67703 0.32877 0.08228 -0.06000
C 	C 	0.69853 0.32804 0.05310 0.04700
N 	N 	0.70330 0.35125 0.02464 -0.04700
N 	N 	0.68623 0.37403 0.02423 -0.06300
C 	C 	0.59801 0.43190 0.03077 0.04900
N 	N 	0.62159 0.43412 0.00521 -0.05300
N 	N 	0.64346 0.41671 0.01337 -0.06300
C 	C 	0.64239 0.39675 0.04750 0.10600
N 	N 	0.61926 0.39543 0.07398 -0.06500
N 	N 	0.59736 0.41265 0.06563 -0.05200
C 	C 	0.87458 0.61767 0.75453 0.10600
N 	N 	0.88145 0.60512 0.71832 -0.06400
N 	N 	0.90278 0.58650 0.71764 -0.05600
C 	C 	0.91814 0.58034 0.75290 0.05000
N 	N 	0.91124 0.59285 0.78909 -0.05100
N 	N 	0.88953 0.61097 0.79005 -0.06500
C 	C 	0.81304 0.68133 0.75776 0.04900
N 	N 	0.81538 0.66101 0.79101 -0.05200
N 	N 	0.83485 0.64044 0.78977 -0.06300
C 	C 	0.85206 0.63921 0.75481 0.10600
N 	N 	0.84939 0.65924 0.72123 -0.06600
N 	N 	0.83029 0.68017 0.72283 -0.05300
C 	C 	0.65202 0.60729 0.83864 0.10800
N 	N 	0.64354 0.62208 0.80227 -0.06400
N 	N 	0.65601 0.64683 0.78809 -0.05400
C 	C 	0.67764 0.65723 0.80943 0.04600
N 	N 	0.68773 0.64121 0.84366 -0.04600
N 	N 	0.67503 0.61660 0.85817 -0.06100
C 	C 	0.59210 0.55934 0.91152 0.05000
N 	N 	0.58708 0.56824 0.87037 -0.05700
N 	N 	0.60735 0.58105 0.84547 -0.06400
C 	C 	0.63309 0.58581 0.86123 0.10700
N 	N 	0.63866 0.57516 0.90159 -0.06100
N 	N 	0.61844 0.56203 0.92636 -0.04600
C 	C 	0.73406 0.75196 0.55575 0.10500
N 	N 	0.72228 0.73012 0.58173 -0.06500
N 	N 	0.72553 0.72901 0.62371 -0.05300
C 	C 	0.74046 0.74984 0.64081 0.04700
N 	N 	0.75206 0.77171 0.61484 -0.05300
N 	N 	0.74899 0.77271 0.57292 -0.06400
C 	C 	0.72348 0.75804 0.42454 0.04800
N 	N 	0.74337 0.77410 0.44162 -0.05300
N 	N 	0.74704 0.77173 0.48345 -0.06500
C 	C 	0.73100 0.75314 0.50945 0.10500
N 	N 	0.71137 0.73669 0.49235 -0.06500
N 	N 	0.70761 0.73916 0.45043 -0.05300
C 	C 	0.72231 0.74448 0.00970 0.09900
N 	N 	0.70388 0.72712 0.99172 -0.06000
N 	N 	0.69949 0.73075 0.94999 -0.05100
C 	C 	0.71338 0.75185 0.92522 0.05000
N 	N 	0.73204 0.76888 0.94317 -0.05600
N 	N 	0.73651 0.76518 0.98473 -0.06200
C 	C 	0.73367 0.73727 0.14086 0.04800
N 	N 	0.74811 0.75735 0.11508 -0.05400
N 	N 	0.74449 0.75951 0.07325 -0.06600
C 	C 	0.72636 0.74162 0.05588 0.10600
N 	N 	0.71180 0.72153 0.08164 -0.06500
N 	N 	0.71546 0.71934 0.12359 -0.05200
C 	C 	0.83903 0.57738 0.27260 0.10500
N 	N 	0.84583 0.56124 0.23994 -0.06500
N 	N 	0.86906 0.54511 0.24108 -0.05500
C 	C 	0.88643 0.54513 0.27450 0.04700
N 	N 	0.87918 0.56057 0.30773 -0.05200
N 	N 	0.85566 0.57623 0.30699 -0.06600
C 	C 	0.78336 0.64630 0.26150 0.04800
N 	N 	0.78597 0.63067 0.29955 -0.05500
N 	N 	0.80266 0.60758 0.30277 -0.06400
C 	C 	0.81676 0.59917 0.26786 0.10500
N 	N 	0.81300 0.61397 0.22944 -0.06600
N 	N 	0.79678 0.63738 0.22639 -0.05200
C 	C 	0.61496 0.64028 0.38521 0.10700
N 	N 	0.60722 0.66838 0.37985 -0.06600
N 	N 	0.62405 0.68770 0.35829 -0.05600
C 	C 	0.64921 0.67955 0.34174 0.04500
N 	N 	0.65718 0.65149 0.34749 -0.04600
N 	N 	0.64018 0.63206 0.36872 -0.06100
C 	C 	0.55624 0.58045 0.43926 0.04500
N 	N 	0.57991 0.57133 0.41923 -0.04600
N 	N 	0.59936 0.59034 0.40339 -0.06100
C 	C 	0.59563 0.61895 0.40721 0.10700
N 	N 	0.57238 0.62789 0.42841 -0.06600
N 	N 	0.55298 0.60893 0.44417 -0.05400
C 	C 	0.63068 0.91551 0.37359 0.10700
N 	N 	0.63706 0.92449 0.41206 -0.06200
N 	N 	0.61732 0.93650 0.43577 -0.04800
C 	C 	0.59061 0.93968 0.42180 0.04900
N 	N 	0.58453 0.93170 0.38272 -0.05800
N 	N 	0.60433 0.92002 0.35882 -0.06400
C 	C 	0.67976 0.85366 0.31942 0.05400
N 	N 	0.65798 0.86614 0.29786 -0.06100
N 	N 	0.64362 0.88765 0.31352 -0.06500
C 	C 	0.65051 0.89720 0.35137 0.10700
N 	N 	0.67346 0.88601 0.37150 -0.06200
N 	N 	0.68782 0.86450 0.35579 -0.05000
C 	C 	0.65736 0.13228 0.50892 0.10600
N 	N 	0.67113 0.13504 0.54549 -0.06400
N 	N 	0.68903 0.15685 0.54812 -0.05300
C 	C 	0.69319 0.17687 0.51458 0.05000
N 	N 	0.67946 0.17410 0.47798 -0.05300
N 	N 	0.66198 0.15197 0.47506 -0.06600
C 	C 	0.59408 0.07082 0.50214 0.05000
N 	N 	0.61169 0.07772 0.46806 -0.05700
N 	N 	0.63224 0.09704 0.47039 -0.06500
C 	C 	0.63605 0.10957 0.50713 0.10600
N 	N 	0.61889 0.10209 0.54153 -0.06500
N 	N 	0.59798 0.08327 0.53890 -0.05100
C 	C 	0.50021 0.00591 0.70261 0.10600
N 	N 	0.52252 0.99236 0.68517 -0.06600
N 	N 	0.52708 0.99460 0.64308 -0.05400
C 	C 	0.50938 0.01035 0.61725 0.05000
N 	N 	0.48705 0.02384 0.63467 -0.05200
N 	N 	0.48254 0.02166 0.67675 -0.06400
C 	C 	0.48484 0.99745 0.83415 0.04700
N 	N 	0.46868 0.01525 0.80865 -0.05200
N 	N 	0.47372 0.01813 0.76667 -0.06500
C 	C 	0.49508 0.00330 0.74903 0.10600
N 	N 	0.51139 0.98570 0.77460 -0.06500
N 	N 	0.50630 0.98277 0.81655 -0.05300
C 	C 	0.49664 0.99417 0.20547 0.10400
N 	N 	0.51620 0.98048 0.18224 -0.06500
N 	N 	0.51771 0.98550 0.13997 -0.05300
C 	C 	0.49971 0.00437 0.11975 0.04700
N 	N 	0.48003 0.01791 0.14295 -0.05400
N 	N 	0.47847 0.01283 0.18520 -0.06400
C 	C 	0.49413 0.98091 0.33813 0.04600
N 	N 	0.47436 0.99758 0.31777 -0.05400
N 	N 	0.47512 0.00178 0.27538 -0.06400
C 	C 	0.49558 0.98931 0.25218 0.10400
N 	N 	0.51529 0.97260 0.27258 -0.06500
N 	N 	0.51458 0.96847 0.31493 -0.05300
C 	C 	0.60685 0.86916 0.86989 0.10700
N 	N 	0.63331 0.87693 0.85566 -0.06200
N 	N 	0.64964 0.85832 0.83640 -0.04800
C 	C 	0.63988 0.83151 0.83073 0.05000
N 	N 	0.61311 0.82420 0.84365 -0.05700
N 	N 	0.59685 0.84273 0.86290 -0.06600
C 	C 	0.55616 0.92284 0.93889 0.04500
N 	N 	0.55149 0.89398 0.94177 -0.05500
N 	N 	0.56808 0.87686 0.92041 -0.06600
C 	C 	0.58993 0.88803 0.89557 0.10700
N 	N 	0.59512 0.91684 0.89345 -0.06200
N 	N 	0.57838 0.93405 0.91469 -0.04600
C 	C 	0.66192 0.10375 0.02351 0.10300
N 	N 	0.67068 0.12099 0.98871 -0.06200
N 	N 	0.68839 0.14276 0.99264 -0.04800
C 	C 	0.69830 0.14756 0.03135 0.04800
N 	N 	0.69062 0.12949 0.06584 -0.05600
N 	N 	0.67252 0.10800 0.06204 -0.06400
C 	C 	0.58933 0.05541 0.01140 0.04800
N 	N 	0.59585 0.06442 0.04973 -0.05200
N 	N 	0.62007 0.07814 0.05435 -0.06500
C 	C 	0.63823 0.08374 0.02057 0.10300
N 	N 	0.63210 0.07395 0.98254 -0.06100
N 	N 	0.60807 0.05979 0.97811 -0.05300
C 	C 	0.12733 0.58307 0.82760 0.10700
N 	N 	0.10069 0.57865 0.84375 -0.06400
N 	N 	0.08133 0.56656 0.82118 -0.05700
C 	C 	0.08813 0.55808 0.78208 0.05000
N 	N 	0.11508 0.56130 0.76665 -0.04800
N 	N 	0.13440 0.57371 0.78904 -0.06200
C 	C 	0.17660 0.64437 0.87918 0.05400
N 	N 	0.18536 0.63293 0.84288 -0.05000
N 	N 	0.17076 0.61170 0.82789 -0.06100
C 	C 	0.14692 0.60137 0.84874 0.10800
N 	N 	0.13923 0.61153 0.88648 -0.06400
N 	N 	0.15380 0.63278 0.90138 -0.06000
C 	C 	0.34981 0.63037 0.91892 0.10700
N 	N 	0.35224 0.65427 0.89119 -0.06600
N 	N 	0.33273 0.67482 0.89103 -0.06000
C 	C 	0.30995 0.67188 0.91806 0.04700
N 	N 	0.30694 0.64751 0.94479 -0.04600
N 	N 	0.32667 0.62706 0.94533 -0.06100
C 	C 	0.41960 0.57678 0.93592 0.05000
N 	N 	0.39654 0.57270 0.96233 -0.05000
N 	N 	0.37369 0.58904 0.95596 -0.06200
C 	C 	0.37325 0.60978 0.92288 0.10600
N 	N 	0.39603 0.61322 0.89586 -0.06600
N 	N 	0.41887 0.59702 0.90233 -0.05300
C 	C 	0.33994 0.91912 0.93258 0.10600
N 	N 	0.34467 0.93250 0.96832 -0.06400
N 	N 	0.36784 0.94840 0.97094 -0.05500
C 	C 	0.38714 0.95098 0.93819 0.04900
N 	N 	0.38196 0.93837 0.90196 -0.05100
N 	N 	0.35856 0.92292 0.89903 -0.06500
C 	C 	0.28446 0.85013 0.93108 0.05100
N 	N 	0.29082 0.86679 0.89458 -0.05700
N 	N 	0.30732 0.88993 0.89530 -0.06400
C 	C 	0.31755 0.89732 0.93265 0.10600
N 	N 	0.30994 0.88151 0.96940 -0.06400
N 	N 	0.29389 0.85809 0.96858 -0.05000
C 	C 	0.23178 0.74312 0.63659 0.10500
N 	N 	0.22206 0.76627 0.61218 -0.06500
N 	N 	0.22595 0.76802 0.56998 -0.05300
C 	C 	0.23950 0.74657 0.55110 0.04700
N 	N 	0.24894 0.72333 0.57549 -0.05300
N 	N 	0.24519 0.72166 0.61762 -0.06400
C 	C 	0.22151 0.73719 0.76872 0.04700
N 	N 	0.23916 0.71900 0.74960 -0.05200
N 	N 	0.24255 0.72108 0.70741 -0.06400
C 	C 	0.22850 0.74149 0.68310 0.10500
N 	N 	0.21103 0.75992 0.70220 -0.06500
N 	N 	0.20752 0.75774 0.74448 -0.05300
C 	C 	0.22691 0.75291 0.18213 0.10500
N 	N 	0.20971 0.77123 0.20197 -0.06400
N 	N 	0.20567 0.76797 0.24415 -0.05200
C 	C 	0.21870 0.74628 0.26755 0.04900
N 	N 	0.23617 0.72828 0.24775 -0.05500
N 	N 	0.24029 0.73160 0.20569 -0.06500
C 	C 	0.23627 0.75919 0.04981 0.05000
N 	N 	0.25058 0.73889 0.07394 -0.05400
N 	N 	0.24764 0.73700 0.11620 -0.06500
C 	C 	0.23038 0.75544 0.13558 0.10500
N 	N 	0.21599 0.77574 0.11146 -0.06500
N 	N 	0.21894 0.77762 0.06913 -0.05300
C 	C 	0.08936 0.61159 0.31266 0.10700
N 	N 	0.09683 0.58399 0.30685 -0.06200
N 	N 	0.07962 0.56709 0.28723 -0.04600
C 	C 	0.05462 0.57745 0.27253 0.04500
N 	N 	0.04738 0.60511 0.27795 -0.05600
N 	N 	0.06446 0.62191 0.29774 -0.06700
C 	C 	0.14315 0.66740 0.36841 0.05000
N 	N 	0.11582 0.67460 0.36186 -0.05900
N 	N 	0.09846 0.65631 0.34548 -0.06700
C 	C 	0.10791 0.63030 0.33489 0.10700
N 	N 	0.13505 0.62265 0.34262 -0.06200
N 	N 	0.15246 0.64099 0.35912 -0.04900
C 	C 	0.31367 0.59557 0.40775 0.10700
N 	N 	0.31321 0.61557 0.37378 -0.06500
N 	N 	0.29736 0.63910 0.37520 -0.06400
C 	C 	0.28120 0.64311 0.41037 0.05100
N 	N 	0.28012 0.62218 0.44313 -0.04700
N 	N 	0.29612 0.59872 0.44184 -0.06200
C 	C 	0.38509 0.54521 0.42521 0.04900
N 	N 	0.36347 0.54255 0.45445 -0.05300
N 	N 	0.33954 0.55699 0.44749 -0.06300
C 	C 	0.33653 0.57430 0.41095 0.10600
N 	N 	0.35748 0.57537 0.38059 -0.06500
N 	N 	0.38147 0.56119 0.38773 -0.05100
C 	C 	0.35207 0.86077 0.44791 0.10600
N 	N 	0.33704 0.86088 0.41191 -0.06400
N 	N 	0.31795 0.84035 0.40783 -0.05300
C 	C 	0.31380 0.81880 0.43924 0.04900
N 	N 	0.32879 0.81871 0.47526 -0.05300
N 	N 	0.34748 0.83955 0.47969 -0.06600
C 	C 	0.41913 0.91744 0.45791 0.05100
N 	N 	0.40264 0.90900 0.49267 -0.05600
N 	N 	0.38083 0.89132 0.48936 -0.06500
C 	C 	0.37462 0.88204 0.45104 0.10600
N 	N 	0.39068 0.89111 0.41610 -0.06500
N 	N 	0.41282 0.90828 0.41958 -0.05200
C 	C 	0.15513 0.36192 0.70955 0.10600
N 	N 	0.15769 0.34319 0.74469 -0.06600
N 	N 	0.17554 0.32108 0.74420 -0.05300
C 	C 	0.19169 0.31744 0.70881 0.04900
N 	N 	0.18952 0.33649 0.67397 -0.05300
N 	N 	0.17124 0.35823 0.67416 -0.06400
C 	C 	0.09211 0.42426 0.70923 0.04900
N 	N 	0.09652 0.40896 0.67492 -0.05200
N 	N 	0.11731 0.38971 0.67447 -0.06500
C 	C 	0.13375 0.38467 0.70880 0.10600
N 	N 	0.12937 0.40000 0.74311 -0.06400
N 	N 	0.10900 0.41974 0.74315 -0.05600
C 	C 	0.35749 0.37369 0.62173 0.10700
N 	N 	0.33253 0.36776 0.60433 -0.06100
N 	N 	0.31817 0.34397 0.61806 -0.04600
C 	C 	0.32851 0.32538 0.64931 0.04700
N 	N 	0.35260 0.33215 0.66831 -0.05400
N 	N 	0.36678 0.35606 0.65492 -0.06500
C 	C 	0.41591 0.42531 0.55077 0.04900
N 	N 	0.42270 0.41242 0.58931 -0.05600
N 	N 	0.40328 0.39781 0.61374 -0.06500
C 	C 	0.37658 0.39541 0.60012 0.10700
N 	N 	0.36944 0.40958 0.56251 -0.06100
N 	N 	0.38882 0.42444 0.53824 -0.04700
C 	C 	0.36322 0.11115 0.56272 0.10700
N 	N 	0.35793 0.13767 0.54329 -0.06400
N 	N 	0.34467 0.15743 0.56449 -0.05100
C 	C 	0.33598 0.15120 0.60562 0.05100
N 	N 	0.34035 0.12436 0.62474 -0.05300
N 	N 	0.35392 0.10462 0.60363 -0.06200
C 	C 	0.42141 0.05819 0.50614 0.04600
N 	N 	0.40875 0.04920 0.54419 -0.04800
N 	N 	0.38913 0.06546 0.56155 -0.06200
C 	C 	0.38150 0.09106 0.54114 0.10700
N 	N 	0.39327 0.09936 0.50225 -0.06500
N 	N 	0.41308 0.08328 0.48517 -0.05400
C 	C 	0.27126 0.25330 0.95326 0.10700
N 	N 	0.25238 0.23922 0.98074 -0.06300
N 	N 	0.25596 0.23817 0.02251 -0.05800
C 	C 	0.27853 0.25119 0.03811 0.04800
N 	N 	0.29702 0.26606 0.01075 -0.05400
N 	N 	0.29342 0.26713 0.96884 -0.06200
C 	C 	0.26331 0.24789 0.82294 0.04600
N 	N 	0.27962 0.26884 0.83712 -0.05100
N 	N 	0.28255 0.27040 0.87881 -0.06400
C 	C 	0.26900 0.25125 0.90735 0.10600
N 	N 	0.25282 0.23029 0.89308 -0.06400
N 	N 	0.25009 0.22858 0.85151 -0.05300
C 	C 	0.26240 0.25914 0.40548 0.10500
N 	N 	0.27836 0.27869 0.38089 -0.06400
N 	N 	0.27535 0.28183 0.33881 -0.05300
C 	C 	0.25644 0.26535 0.32024 0.04900
N 	N 	0.24048 0.24591 0.34487 -0.05300
N 	N 	0.24338 0.24287 0.38685 -0.06500
C 	C 	0.27585 0.24295 0.53532 0.05000
N 	N 	0.25469 0.22946 0.51687 -0.05500
N 	N 	0.24992 0.23531 0.47567 -0.06500
C 	C 	0.26626 0.25472 0.45159 0.10600
N 	N 	0.28712 0.26869 0.47018 -0.06300
N 	N 	0.29184 0.26290 0.51153 -0.05100
C 	C 	0.16598 0.39651 0.19993 0.10600
N 	N 	0.17136 0.38085 0.23712 -0.06500
N 	N 	0.18928 0.35879 0.23773 -0.05200
C 	C 	0.20281 0.35216 0.20134 0.04900
N 	N 	0.19851 0.36871 0.16453 -0.05600
N 	N 	0.18014 0.39042 0.16374 -0.06500
C 	C 	0.09263 0.44519 0.19967 0.04800
N 	N 	0.10076 0.43189 0.16469 -0.05300
N 	N 	0.12530 0.41802 0.16357 -0.06600
C 	C 	0.14215 0.41657 0.19774 0.10500
N 	N 	0.13437 0.43056 0.23226 -0.06400
N 	N 	0.11007 0.44491 0.23304 -0.05400
C 	C 	0.37421 0.38473 0.11388 0.10700
N 	N 	0.34706 0.38310 0.10175 -0.06200
N 	N 	0.33059 0.36131 0.11762 -0.04700
C 	C 	0.34088 0.34051 0.14583 0.04500
N 	N 	0.36756 0.34291 0.15940 -0.05500
N 	N 	0.38394 0.36477 0.14381 -0.06500
C 	C 	0.43109 0.43669 0.03932 0.04600
N 	N 	0.44042 0.41671 0.06947 -0.05900
N 	N 	0.42217 0.40122 0.09486 -0.06500
C 	C 	0.39402 0.40494 0.09043 0.10700
N 	N 	0.38464 0.42539 0.06081 -0.06200
N 	N 	0.40296 0.44124 0.03580 -0.04900
C 	C 	0.36305 0.11777 0.11166 0.10700
N 	N 	0.33633 0.12307 0.09886 -0.06200
N 	N 	0.32108 0.14374 0.11523 -0.05000
C 	C 	0.33215 0.15972 0.14474 0.05300
N 	N 	0.35835 0.15350 0.15890 -0.06200
N 	N 	0.37349 0.13268 0.14286 -0.06600
C 	C 	0.41853 0.07259 0.03729 0.05000
N 	N 	0.42758 0.08412 0.07254 -0.05800
N 	N 	0.40949 0.09709 0.09767 -0.06500
C 	C 	0.38183 0.09921 0.08808 0.10600
N 	N 	0.37259 0.08690 0.05347 -0.06200
N 	N 	0.39069 0.07365 0.02851 -0.04900
C 	C 	0.85652 0.12443 0.61451 0.10700
N 	N 	0.83154 0.13055 0.63388 -0.06100
N 	N 	0.81647 0.15326 0.61917 -0.04700
C 	C 	0.82605 0.17052 0.58488 0.04700
N 	N 	0.85015 0.16339 0.56411 -0.05400
N 	N 	0.86507 0.14058 0.57854 -0.06500
C 	C 	0.91552 0.07538 0.68315 0.04900
N 	N 	0.92270 0.08884 0.64449 -0.05600
N 	N 	0.90332 0.10289 0.62116 -0.06500
C 	C 	0.87624 0.10415 0.63601 0.10700
N 	N 	0.86883 0.08976 0.67402 -0.06100
N 	N 	0.88818 0.07542 0.69717 -0.04600
C 	C 	0.83386 0.92105 0.80549 0.10500
N 	N 	0.85320 0.91646 0.83618 -0.06600
N 	N 	0.87701 0.93173 0.83408 -0.05200
C 	C 	0.88201 0.95227 0.80152 0.04700
N 	N 	0.86186 0.95818 0.77240 -0.05200
N 	N 	0.83815 0.94271 0.77425 -0.06300
C 	C 	0.77950 0.85381 0.78725 0.05000
N 	N 	0.78154 0.87686 0.75790 -0.04700
N 	N 	0.79724 0.89956 0.76516 -0.06200
C 	C 	0.81147 0.89974 0.80186 0.10600
N 	N 	0.80824 0.87727 0.83207 -0.06500
N 	N 	0.79256 0.85459 0.82479 -0.06600
C 	C 	0.11528 0.85859 0.81955 0.10700
N 	N 	0.10949 0.83003 0.81986 -0.06600
N 	N 	0.12691 0.81055 0.83799 -0.05700
C 	C 	0.15078 0.81901 0.85603 0.04600
N 	N 	0.15700 0.84756 0.85489 -0.04700
N 	N 	0.13941 0.86711 0.83704 -0.06100
C 	C 	0.05376 0.91815 0.78034 0.04600
N 	N 	0.07806 0.92727 0.79659 -0.04600
N 	N 	0.09822 0.90839 0.80788 -0.06100
C 	C 	0.09464 0.87992 0.80304 0.10700
N 	N 	0.07065 0.87099 0.78576 -0.06600
N 	N 	0.05049 0.88981 0.77466 -0.05400
C 	C 	0.16298 0.09932 0.69730 0.10500
N 	N 	0.17495 0.11087 0.66002 -0.06500
N 	N 	0.19427 0.13166 0.65994 -0.05900
C 	C 	0.20175 0.14182 0.69705 0.04800
N 	N 	0.19032 0.12978 0.73437 -0.05100
N 	N 	0.17140 0.10864 0.73451 -0.06500
C 	C 	0.08791 0.05324 0.70342 0.04800
N 	N 	0.10657 0.04891 0.73511 -0.05200
N 	N 	0.13140 0.06243 0.73213 -0.06300
C 	C 	0.13842 0.08029 0.69707 0.10500
N 	N 	0.12030 0.08350 0.66451 -0.06600
N 	N 	0.09530 0.07034 0.66778 -0.05300
C 	C 	0.99487 0.99290 0.47570 0.10500
N 	N 	0.97470 0.00610 0.45134 -0.06400
N 	N 	0.97390 0.00241 0.40994 -0.05100
C 	C 	0.99331 0.98554 0.39171 0.04500
N 	N 	0.01352 0.97242 0.41603 -0.05400
N 	N 	0.01429 0.97604 0.45744 -0.06500
C 	C 	0.99838 0.00568 0.60475 0.04800
N 	N 	0.01626 0.98688 0.58733 -0.05300
N 	N 	0.01500 0.98262 0.54616 -0.06500
C 	C 	0.99581 0.99704 0.52130 0.10400
N 	N 	0.97777 0.01563 0.53884 -0.06400
N 	N 	0.97908 0.01994 0.57996 -0.05400
C 	C 	0.99669 0.00443 0.02063 0.10300
N 	N 	0.98018 0.02196 0.04302 -0.06400
N 	N 	0.98513 0.02501 0.08376 -0.05100
C 	C 	0.00676 0.01067 0.10323 0.04900
N 	N 	0.02323 0.99310 0.08088 -0.05400
N 	N 	0.01824 0.98998 0.04017 -0.06600
C 	C 	0.98095 0.99489 0.89319 0.04900
N 	N 	0.00125 0.97891 0.91343 -0.05200
N 	N 	0.00640 0.98207 0.95409 -0.06500
C 	C 	0.99132 0.00121 0.97567 0.11200
N 	N 	0.97109 0.01724 0.95535 -0.06400
N 	N 	0.96600 0.01414 0.91469 -0.05100
C 	C 	0.89063 0.09470 0.14521 0.10800
N 	N 	0.88163 0.07288 0.17384 -0.06100
N 	N 	0.90012 0.05789 0.19794 -0.04700
C 	C 	0.92796 0.06476 0.19463 0.04600
N 	N 	0.93690 0.08646 0.16593 -0.05900
N 	N 	0.91854 0.10104 0.14134 -0.06500
C 	C 	0.83676 0.15426 0.08481 0.04500
N 	N 	0.86305 0.15021 0.06831 -0.05400
N 	N 	0.87958 0.12966 0.08587 -0.06500
C 	C 	0.87039 0.11262 0.12060 0.10700
N 	N 	0.84356 0.11565 0.13582 -0.06200
N 	N 	0.82695 0.13619 0.11812 -0.04800
C 	C 	0.87293 0.88391 0.29017 0.10500
N 	N 	0.87191 0.90971 0.26658 -0.06300
N 	N 	0.89355 0.92805 0.26584 -0.04900
C 	C 	0.91673 0.92111 0.28880 0.04700
N 	N 	0.91729 0.89577 0.31348 -0.05600
N 	N 	0.89574 0.87742 0.31409 -0.06700
C 	C 	0.81306 0.82076 0.27346 0.04600
N 	N 	0.83857 0.81337 0.28929 -0.06100
N 	N 	0.85735 0.83365 0.29576 -0.06700
C 	C 	0.85133 0.86190 0.28602 0.10600
N 	N 	0.82573 0.86936 0.27038 -0.06200
N 	N 	0.80675 0.84905 0.26450 -0.04700
C 	C 	0.15241 0.89110 0.36427 0.10700
N 	N 	0.17436 0.88231 0.33998 -0.06200
N 	N 	0.18816 0.85813 0.35188 -0.04800
C 	C 	0.18028 0.84204 0.38824 0.04700
N 	N 	0.15983 0.85202 0.41407 -0.05500
N 	N 	0.14624 0.87632 0.40241 -0.06400
C 	C 	0.08937 0.93893 0.30384 0.04900
N 	N 	0.08547 0.92798 0.34484 -0.05700
N 	N 	0.10659 0.91497 0.36566 -0.06400
C 	C 	0.13208 0.91204 0.34581 0.10700
N 	N 	0.13641 0.92442 0.30552 -0.06200
N 	N 	0.11536 0.93779 0.28488 -0.04700
C 	C 	0.13936 0.10554 0.17738 0.10600
N 	N 	0.11643 0.10868 0.15271 -0.06600
N 	N 	0.09468 0.09064 0.15939 -0.05300
C 	C 	0.09526 0.06883 0.19079 0.04800
N 	N 	0.11874 0.06480 0.21415 -0.05100
N 	N 	0.14048 0.08295 0.20759 -0.06300
C 	C 	0.19492 0.17411 0.18261 0.04700
N 	N 	0.20112 0.14787 0.20231 -0.04600
N 	N 	0.18401 0.12548 0.19915 -0.06200
C 	C 	0.16045 0.12867 0.17574 0.10600
N 	N 	0.15495 0.15464 0.15471 -0.06600
N 	N 	0.17180 0.17709 0.15838 -0.06100
