data_crystal

_cell_length_a 32.93242
_cell_length_b 32.82994
_cell_length_c 26.69276
_cell_angle_alpha 90.59526
_cell_angle_beta  89.31168
_cell_angle_gamma 119.95336

_symmetry_space_group_name_	'P 1'
_symmetry_space_group_name_H-M	'P 1'

loop_
_symmetry_equiv_pos_as_xyz
  x,y,z

loop_
_atom_site_label
_atom_site_type_symbol
_atom_site_fract_x
_atom_site_fract_y
_atom_site_fract_z
_atom_site_charge
Ni	Ni	0.45204 0.25495 0.98032 1.11300
O 	O 	0.45553 0.25695 0.90315 -0.33100
O 	O 	0.39312 0.18905 0.97334 -0.31200
O 	O 	0.36148 0.22965 0.04049 -0.35800
O 	O 	0.46450 0.26215 0.05380 -0.70700
O 	O 	0.40887 0.28229 0.98006 -0.32500
O 	O 	0.43842 0.20478 0.14506 -0.36700
Ni	Ni	0.40579 0.22110 0.08802 1.08700
O 	O 	0.39545 0.16213 0.05110 -0.37600
C 	C 	0.38084 0.15398 0.00464 0.27100
C 	C 	0.37284 0.26667 0.01142 0.29800
Ni	Ni	0.46943 0.25541 0.48344 1.10800
O 	O 	0.46867 0.25158 0.40647 -0.32800
O 	O 	0.40703 0.19318 0.47929 -0.34800
O 	O 	0.37840 0.23819 0.53522 -0.36000
O 	O 	0.47816 0.25933 0.55818 -0.70000
O 	O 	0.43367 0.29114 0.48130 -0.34000
O 	O 	0.43608 0.20681 0.65299 -0.36000
Ni	Ni	0.41537 0.22683 0.58900 1.09200
O 	O 	0.40039 0.16428 0.55794 -0.38200
C 	C 	0.39553 0.15761 0.50943 0.32000
C 	C 	0.39496 0.27665 0.50793 0.32700
Ni	Ni	0.19775 0.79265 0.89382 1.10600
O 	O 	0.22556 0.86315 0.90784 -0.69800
Ni	Ni	0.22233 0.86425 0.98284 1.11500
O 	O 	0.20408 0.80313 0.81768 -0.32900
O 	O 	0.16649 0.84604 0.81919 -0.36800
O 	O 	0.26616 0.80805 0.89429 -0.35300
Ni	Ni	0.18960 0.89052 0.88177 1.08600
O 	O 	0.15359 0.69895 0.96473 -0.36400
O 	O 	0.12850 0.84374 0.91720 -0.37700
O 	O 	0.25672 0.93504 0.99158 -0.32800
O 	O 	0.18657 0.79390 0.96771 -0.69100
O 	O 	0.17458 0.72189 0.88233 -0.33300
O 	O 	0.22649 0.85630 0.05859 -0.34500
O 	O 	0.25637 0.80771 0.04483 -0.38400
Ni	Ni	0.20559 0.75386 0.00158 1.08600
H 	H 	0.25860 0.88172 0.89650 0.19300
H 	H 	0.15249 0.78028 0.97262 0.18600
C 	C 	0.12346 0.84196 0.96615 0.30700
O 	O 	0.25467 0.75436 0.95384 -0.36300
C 	C 	0.19228 0.83139 0.79541 0.31500
C 	C 	0.24833 0.96104 0.96079 0.30700
C 	C 	0.28306 0.79106 0.92702 0.33200
C 	C 	0.24476 0.83163 0.07581 0.32800
C 	C 	0.15691 0.68872 0.91738 0.31900
O 	O 	0.16020 0.86408 0.99532 -0.32400
O 	O 	0.20846 0.94229 0.93537 -0.35900
Ni	Ni	0.21767 0.79556 0.39486 1.10900
O 	O 	0.25551 0.86664 0.40432 -0.70000
Ni	Ni	0.24125 0.87258 0.47688 1.10700
O 	O 	0.23412 0.79878 0.31992 -0.32000
O 	O 	0.21133 0.85227 0.30269 -0.36600
O 	O 	0.27769 0.79223 0.40549 -0.34000
Ni	Ni	0.23235 0.89957 0.36236 1.08600
O 	O 	0.21970 0.71861 0.45765 -0.37600
O 	O 	0.16404 0.86221 0.38506 -0.36000
O 	O 	0.28005 0.94352 0.48101 -0.33900
O 	O 	0.20226 0.80149 0.46704 -0.70200
O 	O 	0.17988 0.72430 0.39106 -0.33100
O 	O 	0.22479 0.86962 0.55194 -0.33000
O 	O 	0.24246 0.81251 0.57075 -0.36800
Ni	Ni	0.22670 0.76913 0.50798 1.08300
H 	H 	0.28954 0.87983 0.39866 0.18200
H 	H 	0.16830 0.78839 0.47298 0.18100
C 	C 	0.15243 0.85626 0.43252 0.31500
O 	O 	0.29444 0.81241 0.48725 -0.37800
C 	C 	0.23252 0.82897 0.28913 0.32100
C 	C 	0.27976 0.96984 0.44425 0.31700
C 	C 	0.30828 0.81648 0.44043 0.30500
C 	C 	0.22239 0.83733 0.58269 0.32100
C 	C 	0.18627 0.69849 0.42387 0.32400
O 	O 	0.18379 0.87986 0.46670 -0.34700
O 	O 	0.24546 0.95268 0.41132 -0.36500
Ni	Ni	0.22748 0.41675 0.99468 1.11800
O 	O 	0.19146 0.45138 0.98166 -0.69600
Ni	Ni	0.19881 0.45926 0.90673 1.10600
O 	O 	0.22355 0.42065 0.07073 -0.33900
O 	O 	0.25142 0.49953 0.07184 -0.37700
O 	O 	0.16603 0.35309 0.00436 -0.36300
Ni	Ni	0.22350 0.51486 0.01037 1.07500
O 	O 	0.21512 0.32506 0.94812 -0.35800
O 	O 	0.28516 0.52946 0.97730 -0.38800
O 	O 	0.16201 0.49338 0.89879 -0.34400
O 	O 	0.23364 0.42334 0.91967 -0.69900
O 	O 	0.26451 0.38291 0.00197 -0.36900
O 	O 	0.20060 0.45334 0.83068 -0.33300
O 	O 	0.17362 0.37462 0.83076 -0.36500
Ni	Ni	0.19945 0.35852 0.89336 1.09100
H 	H 	0.15801 0.43383 0.99136 0.19700
H 	H 	0.26684 0.44034 0.90861 0.19100
C 	C 	0.29407 0.54350 0.93103 0.32600
O 	O 	0.13736 0.34367 0.92568 -0.38700
C 	C 	0.23171 0.45895 0.09475 0.33400
C 	C 	0.17159 0.53027 0.92666 0.32800
C 	C 	0.13021 0.33619 0.97375 0.34200
C 	C 	0.19551 0.41539 0.80824 0.32800
C 	C 	0.25390 0.34514 0.97504 0.34000
O 	O 	0.26121 0.52290 0.89686 -0.33100
O 	O 	0.20873 0.54889 0.95583 -0.36700
Ni	Ni	0.23660 0.41347 0.49517 1.10600
O 	O 	0.20143 0.44861 0.48144 -0.70600
Ni	Ni	0.21937 0.46623 0.40926 1.10900
O 	O 	0.22085 0.40608 0.56971 -0.33500
O 	O 	0.24562 0.48365 0.58212 -0.36900
O 	O 	0.17542 0.34933 0.48959 -0.34100
Ni	Ni	0.22822 0.50785 0.51889 1.08800
O 	O 	0.23664 0.33124 0.43764 -0.36100
O 	O 	0.29463 0.52758 0.49543 -0.39100
O 	O 	0.18219 0.49953 0.40021 -0.33400
O 	O 	0.25381 0.43048 0.42286 -0.70400
O 	O 	0.27371 0.38011 0.50382 -0.34500
O 	O 	0.23534 0.47250 0.33479 -0.33200
O 	O 	0.20661 0.39388 0.32311 -0.36600
Ni	Ni	0.22643 0.37060 0.38541 1.08800
H 	H 	0.16714 0.42947 0.48656 0.18900
H 	H 	0.28815 0.44964 0.41790 0.18900
C 	C 	0.30945 0.54686 0.45162 0.32700
O 	O 	0.15864 0.34607 0.40678 -0.37100
C 	C 	0.22280 0.43999 0.59764 0.32800
C 	C 	0.18757 0.53304 0.43135 0.32500
C 	C 	0.14468 0.33806 0.45353 0.31700
C 	C 	0.22856 0.43711 0.30606 0.33100
C 	C 	0.27098 0.34900 0.47065 0.32200
O 	O 	0.28081 0.53135 0.41315 -0.33300
O 	O 	0.22039 0.54832 0.46604 -0.37100
C 	C 	0.16478 0.41548 0.72419 0.11500
C 	C 	0.19996 0.41600 0.75405 -0.09900
C 	C 	0.24133 0.42151 0.73211 0.10600
C 	C 	0.24910 0.42985 0.68063 0.11700
C 	C 	0.21489 0.43165 0.65111 -0.09900
C 	C 	0.17238 0.42352 0.67261 0.10600
Br	Br	0.12469 0.42341 0.63117 -0.18300
Br	Br	0.10625 0.40359 0.75418 -0.12100
Br	Br	0.30689 0.43967 0.65046 -0.12200
Br	Br	0.28740 0.41793 0.77297 -0.16800
C 	C 	0.19658 0.45206 0.22948 0.11400
C 	C 	0.23017 0.44382 0.25223 -0.09500
C 	C 	0.26665 0.44462 0.22368 0.10600
C 	C 	0.26887 0.45246 0.17199 0.11900
C 	C 	0.23427 0.45898 0.14905 -0.10100
C 	C 	0.19985 0.46153 0.17816 0.11100
Br	Br	0.15827 0.47950 0.14784 -0.17100
Br	Br	0.14478 0.44793 0.26828 -0.11300
Br	Br	0.32008 0.45590 0.13267 -0.13400
Br	Br	0.31342 0.43495 0.25561 -0.15800
C 	C 	0.02664 0.23840 0.49916 0.11000
C 	C 	0.01360 0.29320 0.45074 0.10300
C 	C 	0.06239 0.32279 0.44509 0.10500
C 	C 	0.09361 0.30935 0.46471 -0.09500
C 	C 	0.07540 0.26609 0.49020 0.10700
Br	Br	0.11654 0.24311 0.50997 -0.11700
Br	Br	0.08630 0.38244 0.41174 -0.18600
C 	C 	0.05985 0.31334 0.02890 0.07700
C 	C 	0.08282 0.30088 0.99213 -0.06800
C 	C 	0.05957 0.25517 0.97117 0.10100
C 	C 	0.01227 0.22367 0.98369 0.13500
C 	C 	0.01214 0.28275 0.03987 0.11100
Br	Br	0.09405 0.37105 0.06630 -0.18000
Br	Br	0.09356 0.23441 0.92854 -0.14600
C 	C 	0.40579 0.66920 0.48756 0.11400
C 	C 	0.44192 0.67710 0.45289 -0.09300
C 	C 	0.43353 0.64257 0.41603 0.11000
C 	C 	0.38983 0.60011 0.41471 0.10800
C 	C 	0.35364 0.59318 0.44858 -0.09300
C 	C 	0.36103 0.62938 0.48261 0.11300
Br	Br	0.30930 0.62599 0.52082 -0.19600
Br	Br	0.41754 0.71082 0.54405 -0.21100
Br	Br	0.38018 0.55123 0.36755 -0.15200
C 	C 	0.42096 0.62892 0.90085 0.11500
C 	C 	0.42910 0.66303 0.93821 -0.09800
C 	C 	0.39065 0.65920 0.96594 0.13400
C 	C 	0.34538 0.62824 0.94966 0.10400
C 	C 	0.33690 0.58906 0.92034 -0.08400
C 	C 	0.37498 0.59025 0.89405 0.10600
Br	Br	0.36437 0.53927 0.84980 -0.14100
Br	Br	0.29648 0.64226 0.96377 -0.16100
Br	Br	0.39842 0.68558 0.03227 -0.25800
C 	C 	0.39173 0.86865 0.46560 0.11000
C 	C 	0.35923 0.83963 0.42911 -0.10000
C 	C 	0.37558 0.82428 0.38815 0.11000
C 	C 	0.41752 0.82336 0.39267 0.11100
C 	C 	0.44610 0.84419 0.43493 -0.09200
C 	C 	0.43495 0.87002 0.46922 0.10400
Br	Br	0.37826 0.90844 0.50794 -0.14900
Br	Br	0.43341 0.79004 0.34344 -0.11900
Br	Br	0.34632 0.81383 0.32358 -0.12700
C 	C 	0.13964 0.61405 0.44519 0.10600
C 	C 	0.16957 0.64912 0.41144 -0.08900
C 	C 	0.19256 0.63808 0.37340 0.11200
C 	C 	0.19324 0.59574 0.37560 0.11300
C 	C 	0.17085 0.56476 0.41583 -0.08800
C 	C 	0.14038 0.57167 0.44751 0.10500
Br	Br	0.10137 0.52390 0.49506 -0.16200
Br	Br	0.09978 0.62538 0.48965 -0.17000
Br	Br	0.22807 0.58210 0.32608 -0.11600
Br	Br	0.22689 0.68288 0.32125 -0.10900
C 	C 	0.08293 0.84537 0.48106 0.10900
C 	C 	0.10324 0.82718 0.44738 -0.10100
C 	C 	0.07903 0.77903 0.43491 0.09500
C 	C 	0.03813 0.74833 0.46119 0.10800
C 	C 	0.01833 0.76630 0.49557 -0.11200
C 	C 	0.04098 0.81474 0.50599 0.11500
Br	Br	0.11059 0.91241 0.48976 -0.11100
Br	Br	0.00933 0.68131 0.45088 -0.20400
Br	Br	0.10036 0.75547 0.38016 -0.19500
C 	C 	0.41234 0.84753 0.95346 0.10300
C 	C 	0.42328 0.81670 0.92749 -0.08800
C 	C 	0.39072 0.78354 0.89372 0.11100
C 	C 	0.34487 0.77604 0.89216 0.11400
C 	C 	0.33243 0.80355 0.92233 -0.09700
C 	C 	0.36707 0.84162 0.94992 0.11100
Br	Br	0.35271 0.88593 0.98180 -0.17000
Br	Br	0.29887 0.72756 0.84959 -0.11800
Br	Br	0.40864 0.74738 0.85092 -0.12600
C 	C 	0.17214 0.59083 0.87052 0.11400
C 	C 	0.15253 0.56036 0.91177 -0.09100
C 	C 	0.12002 0.56427 0.94312 0.10300
C 	C 	0.11322 0.60308 0.93817 0.10800
C 	C 	0.14099 0.63895 0.90376 -0.08800
C 	C 	0.16379 0.62858 0.86491 0.10900
Br	Br	0.17491 0.65934 0.80107 -0.11600
Br	Br	0.21274 0.58280 0.82381 -0.11600
Br	Br	0.06546 0.60666 0.97717 -0.11800
Br	Br	0.08688 0.51794 0.99420 -0.15100
C 	C 	0.04037 0.82471 0.97010 0.09600
C 	C 	0.07566 0.81649 0.98825 -0.05800
C 	C 	0.06321 0.77861 0.02102 0.06400
C 	C 	0.01614 0.74298 0.02518 0.11900
Br	Br	0.05743 0.88214 0.93489 -0.13300
Br	Br	0.10833 0.77984 0.06699 -0.18800
C 	C 	0.24949 0.87135 0.66800 0.11100
C 	C 	0.21274 0.84091 0.63612 -0.09400
C 	C 	0.16787 0.81084 0.65621 0.10400
C 	C 	0.16071 0.80821 0.70853 0.10900
C 	C 	0.19814 0.83705 0.74059 -0.09500
C 	C 	0.24209 0.86954 0.72018 0.10100
Br	Br	0.29224 0.91130 0.76392 -0.16700
Br	Br	0.31010 0.91504 0.64012 -0.12000
Br	Br	0.10034 0.76384 0.73633 -0.14000
Br	Br	0.11628 0.77363 0.61190 -0.20100
C 	C 	0.21620 0.78586 0.15498 0.11700
C 	C 	0.24830 0.82756 0.13024 -0.10400
C 	C 	0.28033 0.86692 0.15830 0.11500
C 	C 	0.27750 0.86589 0.21098 0.10300
C 	C 	0.24155 0.82620 0.23542 -0.08800
C 	C 	0.21133 0.78578 0.20739 0.11100
Br	Br	0.16077 0.73185 0.24018 -0.10500
Br	Br	0.17920 0.72882 0.11716 -0.23000
Br	Br	0.32260 0.91877 0.24983 -0.18700
Br	Br	0.32816 0.92196 0.12449 -0.13600
C 	C 	0.38441 0.08051 0.48144 0.10600
C 	C 	0.36566 0.11012 0.49037 -0.10000
C 	C 	0.31883 0.09510 0.47776 0.11200
C 	C 	0.29035 0.04960 0.45861 0.10800
C 	C 	0.30994 0.02065 0.44862 -0.09600
C 	C 	0.35815 0.03868 0.45486 0.10800
Br	Br	0.38804 0.00612 0.42633 -0.15600
Br	Br	0.44134 0.09233 0.51361 -0.18600
Br	Br	0.22443 0.02655 0.44848 -0.11300
Br	Br	0.29309 0.13594 0.48921 -0.13100
C 	C 	0.35272 0.30060 0.44763 0.11300
C 	C 	0.36374 0.29569 0.49747 -0.09100
C 	C 	0.34066 0.30415 0.53753 0.10700
C 	C 	0.30469 0.31398 0.52779 0.11400
C 	C 	0.29862 0.32555 0.47879 -0.09400
C 	C 	0.32335 0.31943 0.43863 0.10700
Br	Br	0.31947 0.33939 0.37198 -0.19500
Br	Br	0.37285 0.27664 0.39210 -0.11900
Br	Br	0.26066 0.30635 0.58028 -0.10900
Br	Br	0.36022 0.30527 0.60562 -0.17300
Br	Br	0.47860 0.34358 0.81431 -0.11800
Br	Br	0.47355 0.31938 0.69169 -0.18800
Br	Br	0.50724 0.34120 0.32963 -0.12700
Br	Br	0.48791 0.32829 0.20635 -0.17100
C 	C 	0.30045 0.08370 0.01413 0.08400
C 	C 	0.34448 0.10597 0.98956 -0.04000
C 	C 	0.35327 0.08257 0.94994 0.10100
C 	C 	0.31956 0.03601 0.93745 0.10300
C 	C 	0.27737 0.01252 0.96489 -0.06800
C 	C 	0.26712 0.03687 0.00205 0.09200
Br	Br	0.20776 0.00560 0.03709 -0.13000
Br	Br	0.28507 0.11770 0.06300 -0.16900
Br	Br	0.33146 0.00379 0.88343 -0.17000
Br	Br	0.41186 0.11362 0.91368 -0.15300
C 	C 	0.28812 0.31170 0.03440 0.08400
C 	C 	0.27873 0.31888 0.98475 -0.06500
C 	C 	0.29546 0.30315 0.94441 0.09600
C 	C 	0.32159 0.28083 0.95388 0.14000
C 	C 	0.33727 0.28081 0.00288 -0.11600
C 	C 	0.32008 0.29595 0.04329 0.11600
Br	Br	0.34213 0.29768 0.11034 -0.18200
Br	Br	0.25393 0.31883 0.08979 -0.12000
Br	Br	0.33191 0.24658 0.90079 -0.11800
Br	Br	0.28553 0.31492 0.87621 -0.18000
H 	H 	0.47616 0.29519 0.06413 0.18500
O 	O 	0.49422 0.22628 0.98834 -0.68800
Ni	Ni	0.51492 0.24320 0.05974 1.10000
O 	O 	0.53506 0.29291 0.90505 -0.36900
Ni	Ni	0.54999 0.24899 0.94634 1.10800
O 	O 	0.60229 0.30429 0.98614 -0.33600
O 	O 	0.56985 0.22912 0.06369 -0.33000
O 	O 	0.51785 0.25352 0.13598 -0.33100
H 	H 	0.47583 0.19164 0.98566 0.19400
C 	C 	0.59672 0.33108 0.01923 0.30700
C 	C 	0.49602 0.27484 0.87942 0.32500
C 	C 	0.58580 0.21518 0.02495 0.30400
C 	C 	0.47961 0.23517 0.16422 0.31300
O 	O 	0.56071 0.31359 0.05013 -0.36400
O 	O 	0.56299 0.20309 0.98242 -0.34200
O 	O 	0.50341 0.21810 0.49150 -0.70200
Ni	Ni	0.51275 0.22258 0.56634 1.10800
O 	O 	0.54552 0.27184 0.39653 -0.36700
Ni	Ni	0.56550 0.24976 0.46006 1.08500
O 	O 	0.57984 0.31203 0.49206 -0.39600
O 	O 	0.54862 0.18697 0.56917 -0.33400
O 	O 	0.51249 0.22620 0.64338 -0.32200
H 	H 	0.48521 0.18553 0.47892 0.19200
H 	H 	0.49617 0.29203 0.57048 0.19600
C 	C 	0.58857 0.32006 0.53996 0.32400
C 	C 	0.50258 0.25246 0.37897 0.32100
C 	C 	0.58756 0.20128 0.54308 0.32700
C 	C 	0.47940 0.22856 0.66923 0.31800
O 	O 	0.57519 0.28496 0.57134 -0.34300
O 	O 	0.60318 0.23826 0.51330 -0.37400
Ni	Ni	0.54740 0.80663 0.91869 1.10600
O 	O 	0.59451 0.78382 0.92687 -0.69500
Ni	Ni	0.60355 0.78933 0.00153 1.09700
O 	O 	0.55078 0.80670 0.84199 -0.32900
O 	O 	0.63033 0.84898 0.83959 -0.36800
O 	O 	0.49221 0.73794 0.90974 -0.33500
O 	O 	0.45349 0.77590 0.97297 -0.36400
O 	O 	0.55800 0.81431 0.99358 -0.66800
O 	O 	0.50118 0.83059 0.91571 -0.34300
O 	O 	0.60160 0.78874 0.07817 -0.33200
O 	O 	0.52249 0.75337 0.08557 -0.36500
Ni	Ni	0.49689 0.77206 0.02476 1.08300
H 	H 	0.58251 0.75113 0.91506 0.19100
H 	H 	0.57087 0.84737 0.00446 0.16900
O 	O 	0.49395 0.71588 0.98927 -0.38100
C 	C 	0.59046 0.82113 0.81769 0.32600
C 	C 	0.47621 0.70519 0.94454 0.33400
C 	C 	0.56423 0.78034 0.10412 0.32700
C 	C 	0.46301 0.81168 0.94361 0.32900
Ni	Ni	0.56095 0.81888 0.41835 1.10500
O 	O 	0.60692 0.79465 0.42716 -0.70000
Ni	Ni	0.62348 0.80966 0.50046 1.10600
O 	O 	0.55643 0.80984 0.34237 -0.33000
O 	O 	0.63520 0.84813 0.32982 -0.37000
O 	O 	0.50215 0.75139 0.41786 -0.33400
O 	O 	0.47308 0.79955 0.47931 -0.36900
O 	O 	0.57763 0.83404 0.49121 -0.70100
O 	O 	0.51785 0.84619 0.41475 -0.34600
O 	O 	0.62721 0.81959 0.57663 -0.32900
O 	O 	0.54821 0.77912 0.58684 -0.36500
Ni	Ni	0.51883 0.79621 0.52846 1.09400
H 	H 	0.59295 0.76064 0.41993 0.19000
H 	H 	0.59139 0.86805 0.49803 0.19300
O 	O 	0.50918 0.73524 0.49820 -0.38800
C 	C 	0.59274 0.81927 0.31401 0.32700
C 	C 	0.48827 0.72145 0.45532 0.33300
C 	C 	0.58988 0.80787 0.60437 0.32700
C 	C 	0.48310 0.83347 0.44684 0.32800
Br	Br	0.48255 0.65221 0.36915 -0.14000
Br	Br	0.47248 0.63368 0.86135 -0.13600
C 	C 	0.57890 0.84630 0.73432 0.11500
C 	C 	0.58990 0.81755 0.76321 -0.09900
C 	C 	0.60406 0.78806 0.73982 0.10500
C 	C 	0.60715 0.78718 0.68742 0.11300
C 	C 	0.59500 0.81504 0.65844 -0.09700
C 	C 	0.58073 0.84447 0.68190 0.10500
Br	Br	0.56198 0.88087 0.64197 -0.17700
Br	Br	0.56225 0.88886 0.76670 -0.12100
Br	Br	0.62599 0.74622 0.65518 -0.12000
Br	Br	0.61798 0.74796 0.77982 -0.18300
C 	C 	0.58368 0.76299 0.18803 0.11600
C 	C 	0.56861 0.78802 0.15823 -0.09800
C 	C 	0.55948 0.82180 0.18009 0.10800
C 	C 	0.56918 0.83346 0.23090 0.11600
C 	C 	0.58541 0.80930 0.26045 -0.09900
C 	C 	0.59234 0.77387 0.23914 0.10700
Br	Br	0.61307 0.73989 0.28036 -0.19600
Br	Br	0.59007 0.71225 0.15931 -0.12400
Br	Br	0.56195 0.88369 0.25969 -0.11800
Br	Br	0.53250 0.85110 0.14057 -0.19000
Br	Br	0.47797 0.90544 0.52204 -0.15400
Br	Br	0.45880 0.89651 0.99518 -0.13300
C 	C 	0.62404 0.36722 0.55573 -0.10000
C 	C 	0.61388 0.40411 0.55452 0.11000
C 	C 	0.65062 0.45087 0.55427 0.10500
Br	Br	0.63741 0.50187 0.55496 -0.15200
Br	Br	0.54997 0.39062 0.55044 -0.18700
C 	C 	0.62163 0.18776 0.56011 -0.08600
C 	C 	0.63537 0.16292 0.52747 0.10200
Br	Br	0.59355 0.12355 0.47575 -0.14600
C 	C 	0.49779 0.21687 0.75677 0.11200
C 	C 	0.48773 0.24287 0.72239 -0.09100
C 	C 	0.48349 0.28142 0.73928 0.10200
C 	C 	0.48701 0.29251 0.79077 0.11500
C 	C 	0.49694 0.26643 0.82510 -0.10400
C 	C 	0.50452 0.23004 0.80763 0.11500
Br	Br	0.52481 0.19863 0.85306 -0.24500
Br	Br	0.49883 0.16112 0.73502 -0.10100
C 	C 	0.48525 0.20304 0.24690 0.11000
C 	C 	0.48473 0.23916 0.21924 -0.09300
C 	C 	0.49012 0.27961 0.24403 0.10300
C 	C 	0.49668 0.28432 0.29628 0.11300
C 	C 	0.49638 0.24785 0.32409 -0.09200
C 	C 	0.49024 0.20706 0.29941 0.10200
Br	Br	0.48783 0.15638 0.33775 -0.17900
Br	Br	0.48053 0.14880 0.21271 -0.12900
C 	C 	0.63715 0.37790 0.03035 -0.09000
C 	C 	0.63910 0.41867 0.01137 0.09000
Br	Br	0.58573 0.41413 0.97720 -0.13600
Br	Br	0.66844 0.32840 0.09447 -0.14500
C 	C 	0.63357 0.22117 0.02653 -0.10600
C 	C 	0.64675 0.20205 0.06622 0.11200
Br	Br	0.60062 0.16160 0.11469 -0.12000
Br	Br	0.62270 0.22762 0.65794 -0.10600
O 	O 	0.79724 0.52552 0.06683 -0.33200
O 	O 	0.77994 0.52443 0.98400 -0.37200
C 	C 	0.76721 0.50806 0.02949 0.29600
O 	O 	0.77672 0.64755 0.43392 -0.37100
O 	O 	0.76618 0.53019 0.57668 -0.34000
O 	O 	0.74481 0.52030 0.49453 -0.37700
Ni	Ni	0.76490 0.58763 0.46914 1.09000
C 	C 	0.73489 0.50773 0.54187 0.32300
Ni	Ni	0.65612 0.82737 0.89764 1.09300
O 	O 	0.66119 0.88434 0.93441 -0.38800
O 	O 	0.64776 0.76314 0.00351 -0.36800
C 	C 	0.67355 0.89207 0.98128 0.35000
C 	C 	0.68501 0.78054 0.97424 0.34600
O 	O 	0.66044 0.85651 0.01206 -0.36100
O 	O 	0.69756 0.81928 0.94860 -0.36000
Ni	Ni	0.66542 0.83300 0.38928 1.08600
O 	O 	0.67677 0.89547 0.41913 -0.38400
O 	O 	0.66828 0.78415 0.50462 -0.33500
C 	C 	0.69236 0.90831 0.46473 0.32800
C 	C 	0.69809 0.79180 0.46774 0.31600
O 	O 	0.68184 0.87654 0.49965 -0.33900
O 	O 	0.71042 0.82761 0.43719 -0.36700
O 	O 	0.78586 0.23609 0.98445 -0.37400
C 	C 	0.77290 0.24284 0.02865 0.30800
O 	O 	0.77134 0.23855 0.50058 -0.38500
C 	C 	0.76250 0.23123 0.54859 0.31500
Br	Br	0.76628 0.13561 0.82751 -0.12600
Br	Br	0.77528 0.14706 0.70297 -0.15800
Br	Br	0.77367 0.13746 0.21498 -0.17500
Br	Br	0.75506 0.14721 0.33680 -0.12400
C 	C 	0.72126 0.98314 0.51445 0.10600
C 	C 	0.72824 0.95816 0.47506 -0.09100
C 	C 	0.77020 0.98049 0.44650 0.10700
C 	C 	0.75527 0.03037 0.52416 0.10900
Br	Br	0.74682 0.06370 0.57954 -0.18900
Br	Br	0.66433 0.95358 0.55373 -0.16300
C 	C 	0.70020 0.96573 0.03198 0.07600
C 	C 	0.71046 0.93976 0.99675 -0.06600
C 	C 	0.75532 0.96061 0.97388 0.09600
C 	C 	0.77691 0.03468 0.01638 -0.12500
C 	C 	0.73337 0.01325 0.04160 0.11600
Br	Br	0.71891 0.04942 0.08846 -0.18200
Br	Br	0.64034 0.93676 0.06586 -0.16800
Br	Br	0.77148 0.92471 0.92854 -0.16200
C 	C 	0.77403 0.71675 0.46054 -0.10100
C 	C 	0.72674 0.69388 0.47651 0.10900
C 	C 	0.70107 0.71737 0.47405 0.10600
C 	C 	0.72472 0.76647 0.46708 -0.09700
C 	C 	0.77366 0.79078 0.45864 0.10500
Br	Br	0.63346 0.68148 0.47554 -0.16100
Br	Br	0.69856 0.63259 0.50698 -0.22300
C 	C 	0.75759 0.73576 0.03603 0.07900
C 	C 	0.77296 0.74106 0.94606 0.10200
C 	C 	0.74026 0.75604 0.93914 0.11100
C 	C 	0.71951 0.76503 0.98116 -0.07800
C 	C 	0.73155 0.75852 0.02979 0.09800
Br	Br	0.71744 0.78560 0.08727 -0.12700
Br	Br	0.76117 0.71320 0.10139 -0.22300
Br	Br	0.72187 0.76132 0.87223 -0.17600
Br	Br	0.77224 0.62387 0.81818 -0.11800
Br	Br	0.79261 0.51269 0.33725 -0.13800
Br	Br	0.77158 0.52499 0.21630 -0.13600
C 	C 	0.67067 0.37747 0.56150 0.10800
C 	C 	0.69719 0.46047 0.55282 -0.09900
C 	C 	0.70730 0.42389 0.55778 0.11300
Br	Br	0.77130 0.43689 0.55418 -0.17300
Br	Br	0.68476 0.32781 0.57123 -0.14300
C 	C 	0.64888 0.20962 0.60289 0.11400
C 	C 	0.68042 0.16846 0.53184 0.11100
C 	C 	0.71279 0.20253 0.56513 -0.09400
C 	C 	0.69517 0.21780 0.60516 0.11200
Br	Br	0.73163 0.24447 0.66481 -0.10400
Br	Br	0.69820 0.13029 0.49245 -0.15900
C 	C 	0.68036 0.46261 0.01667 0.08900
C 	C 	0.72089 0.46519 0.03728 -0.08800
C 	C 	0.71778 0.42455 0.05903 0.10300
C 	C 	0.67521 0.38163 0.05757 0.10700
Br	Br	0.68097 0.51938 0.99740 -0.14000
Br	Br	0.77206 0.42632 0.08800 -0.12500
C 	C 	0.69326 0.21049 0.06866 0.11100
C 	C 	0.72717 0.24084 0.03371 -0.11200
C 	C 	0.71463 0.26370 0.99805 0.13600
C 	C 	0.66743 0.24879 0.98992 0.12900
Br	Br	0.71012 0.18005 0.11903 -0.15100
Br	Br	0.64950 0.25945 0.92492 -0.19400
Br	Br	0.76210 0.31706 0.96188 -0.16900
H 	H 	0.78976 0.60435 0.05832 0.18100
O 	O 	0.79606 0.25437 0.58137 -0.33600
O 	O 	0.80133 0.67094 0.96820 -0.31500
O 	O 	0.82528 0.56274 0.89109 -0.36300
C 	C 	0.80624 0.70352 0.00051 0.26700
O 	O 	0.81106 0.61868 0.52256 -0.70000
H 	H 	0.79888 0.63247 0.54757 0.18500
O 	O 	0.80516 0.57948 0.41589 -0.36800
C 	C 	0.79865 0.68952 0.45527 0.31400
O 	O 	0.80933 0.11194 0.98186 -0.32300
H 	H 	0.79757 0.17513 0.06437 0.18600
C 	C 	0.80815 0.08600 0.01974 0.30300
O 	O 	0.80404 0.26208 0.06448 -0.33400
O 	O 	0.81142 0.25474 0.40684 -0.36800
O 	O 	0.81700 0.13136 0.46589 -0.33500
H 	H 	0.80550 0.17726 0.56469 0.19000
C 	C 	0.80643 0.19878 0.30203 0.11500
C 	C 	0.81397 0.19485 0.25084 0.10600
C 	C 	0.80331 0.02826 0.45522 0.11700
C 	C 	0.79539 0.05347 0.49339 -0.09700
Br	Br	0.78335 0.94539 0.39684 -0.16100
C 	C 	0.78853 0.00786 0.98410 0.14300
C 	C 	0.79693 0.76531 0.44952 0.10800
Br	Br	0.80990 0.85808 0.46680 -0.12000
C 	C 	0.77885 0.72735 0.99411 -0.04000
Br	Br	0.81323 0.74456 0.89115 -0.09900
Br	Br	0.79950 0.65289 0.69779 -0.13200
C 	C 	0.81934 0.57695 0.25394 0.10300
C 	C 	0.81976 0.57401 0.30708 0.10300
C 	C 	0.82440 0.62158 0.78755 0.10900
O 	O 	0.82388 0.62369 0.05189 -0.70700
Ni	Ni	0.83822 0.63723 0.97754 1.10900
O 	O 	0.85049 0.58805 0.14428 -0.31900
O 	O 	0.85329 0.50416 0.01108 -0.38400
Ni	Ni	0.84434 0.54214 0.95666 1.09200
C 	C 	0.84631 0.60568 0.87286 0.31700
Ni	Ni	0.83322 0.57799 0.55719 1.10400
O 	O 	0.85796 0.54021 0.59306 -0.34900
O 	O 	0.84357 0.70918 0.46639 -0.33600
C 	C 	0.84008 0.61556 0.39334 0.31900
O 	O 	0.83857 0.61172 0.62458 -0.35000
Ni	Ni	0.84563 0.18345 0.98599 1.11000
O 	O 	0.83113 0.23629 0.89605 -0.36900
Ni	Ni	0.85006 0.28283 0.95605 1.09200
O 	O 	0.84274 0.10300 0.05236 -0.36800
O 	O 	0.83173 0.18946 0.05864 -0.70700
O 	O 	0.85558 0.25919 0.14258 -0.32600
Ni	Ni	0.84562 0.20142 0.47932 1.10700
Ni	Ni	0.83099 0.29395 0.47272 1.08600
O 	O 	0.83863 0.19770 0.55454 -0.70200
C 	C 	0.83699 0.24063 0.38246 0.33300
C 	C 	0.82513 0.10521 0.49654 0.31900
O 	O 	0.83625 0.33674 0.53140 -0.37400
C 	C 	0.82799 0.18715 0.74475 0.10300
C 	C 	0.82394 0.18295 0.79706 0.11400
C 	C 	0.83626 0.24064 0.32795 -0.09900
C 	C 	0.85132 0.23276 0.22585 -0.09500
Br	Br	0.86134 0.48380 0.68288 -0.12100
Br	Br	0.87219 0.37985 0.14775 -0.10600
C 	C 	0.85388 0.61206 0.81731 -0.08600
C 	C 	0.83208 0.62803 0.73506 0.10800
C 	C 	0.85275 0.61849 0.22922 -0.08000
C 	C 	0.84523 0.61574 0.33641 -0.08200
Br	Br	0.83977 0.37428 0.66490 -0.11200
Br	Br	0.01415 0.83899 0.55417 -0.12600
O 	O 	0.85822 0.33469 0.00538 -0.37900
Ni	Ni	0.85963 0.58935 0.06669 1.10100
O 	O 	0.86943 0.66532 0.15377 -0.35900
Ni	Ni	0.85100 0.68447 0.08691 1.08500
O 	O 	0.87366 0.60273 0.99237 -0.68900
O 	O 	0.85170 0.64138 0.90099 -0.32700
C 	C 	0.85335 0.62289 0.17264 0.31000
O 	O 	0.84204 0.72174 0.03146 -0.36200
Ni	Ni	0.87053 0.66959 0.49291 1.10700
O 	O 	0.87493 0.64772 0.42040 -0.33200
C 	C 	0.87448 0.62577 0.65513 0.32600
O 	O 	0.88026 0.25497 0.99454 -0.69200
Ni	Ni	0.86649 0.26096 0.06704 1.10600
O 	O 	0.85933 0.18684 0.91064 -0.33200
Ni	Ni	0.85763 0.15808 0.09957 1.08700
C 	C 	0.85487 0.21602 0.88109 0.32400
C 	C 	0.85837 0.22922 0.17234 0.32800
O 	O 	0.87175 0.27075 0.49772 -0.70200
Ni	Ni	0.86395 0.26692 0.57285 1.10400
O 	O 	0.85006 0.21335 0.40403 -0.33400
O 	O 	0.86406 0.12423 0.52323 -0.36300
O 	O 	0.86144 0.25559 0.64853 -0.33000
Ni	Ni	0.87794 0.17280 0.57910 1.08700
C 	C 	0.87407 0.36008 0.55901 0.32300
C 	C 	0.87375 0.22696 0.66846 0.32300
C 	C 	0.87038 0.22113 0.72281 -0.09700
C 	C 	0.86201 0.21344 0.82733 -0.09700
C 	C 	0.87032 0.27994 0.30181 0.10900
Br	Br	0.85948 0.05934 0.41474 -0.11700
Br	Br	0.85003 0.03616 0.95354 -0.10500
C 	C 	0.88121 0.46738 0.62137 0.11300
C 	C 	0.87402 0.42160 0.61490 0.11300
C 	C 	0.89024 0.40986 0.57108 -0.09300
Br	Br	0.85730 0.79603 0.41652 -0.11700
Br	Br	0.89332 0.49038 0.15658 -0.10400
C 	C 	0.86655 0.62047 0.71121 -0.08200
C 	C 	0.87518 0.65824 0.31074 0.10400
C 	C 	0.88001 0.27520 0.25158 0.11500
O 	O 	0.89552 0.55413 0.07451 -0.33500
C 	C 	0.88922 0.52111 0.04184 0.31900
O 	O 	0.89165 0.62520 0.52183 -0.69800
H 	H 	0.89814 0.60886 0.49419 0.18100
C 	C 	0.89918 0.54428 0.58313 0.31300
O 	O 	0.90208 0.33237 0.06978 -0.33400
O 	O 	0.88024 0.20690 0.15773 -0.36300
C 	C 	0.89301 0.35658 0.03739 0.31900
O 	O 	0.88921 0.33696 0.58582 -0.34200
O 	O 	0.90002 0.21423 0.64321 -0.37000
H 	H 	0.90491 0.29155 0.48824 0.19000
C 	C 	0.90528 0.24535 0.80537 0.10300
C 	C 	0.90282 0.50099 0.58290 -0.08500
C 	C 	0.90268 0.46653 0.09378 0.11300
C 	C 	0.89893 0.42195 0.09165 0.11200
C 	C 	0.91097 0.40697 0.04689 -0.08700
C 	C 	0.88966 0.60685 0.79406 0.10500
C 	C 	0.89604 0.61089 0.74141 0.10800
C 	C 	0.88406 0.65728 0.25902 0.10400
Br	Br	0.89868 0.71851 0.34323 -0.12500
C 	C 	0.90937 0.24973 0.75303 0.11100
C 	C 	0.91661 0.44488 0.53552 0.10300
C 	C 	0.91216 0.49301 0.04960 -0.08800
O 	O 	0.91739 0.70450 0.06311 -0.38000
H 	H 	0.90768 0.62152 0.98520 0.19300
O 	O 	0.89964 0.70146 0.98022 -0.32200
O 	O 	0.91715 0.65423 0.63850 -0.35000
O 	O 	0.93828 0.58589 0.58501 -0.35300
O 	O 	0.90742 0.18285 0.99348 -0.32100
H 	H 	0.91429 0.27042 0.98730 0.18900
O 	O 	0.92562 0.19480 0.07611 -0.35500
O 	O 	0.91157 0.20892 0.46901 -0.33700
Br	Br	0.93515 0.32491 0.21957 -0.10100
Br	Br	0.90196 0.34058 0.33428 -0.15500
C 	C 	0.92233 0.49023 0.54095 0.10300
C 	C 	0.93046 0.48108 0.00755 0.09400
C 	C 	0.93160 0.43885 0.00719 0.09300
Br	Br	0.93066 0.59482 0.83461 -0.17700
C 	C 	0.93076 0.71541 0.01638 0.30200
O 	O 	0.93629 0.72456 0.47994 -0.33200
Ni	Ni	0.94360 0.64947 0.56964 1.09100
C 	C 	0.93770 0.20579 0.02916 0.28800
O 	O 	0.93885 0.22464 0.54878 -0.38000
C 	C 	0.94655 0.23029 0.50050 0.31900
Br	Br	0.94431 0.43034 0.47903 -0.17400
Br	Br	0.95434 0.53655 0.48943 -0.15500
Br	Br	0.94650 0.60493 0.71138 -0.14000
Br	Br	0.94295 0.70535 0.23170 -0.12400
Br	Br	0.95868 0.28327 0.84725 -0.17500
O 	O 	0.96111 0.71863 0.55734 -0.37200
C 	C 	0.97013 0.73621 0.51200 0.32900
Br	Br	0.96761 0.29625 0.72279 -0.12700
Br	Br	0.95862 0.42308 0.95108 -0.15700
Br	Br	0.94674 0.51869 0.94779 -0.16500
Br	Br	0.94518 0.80727 0.96226 -0.11300
Br	Br	0.97169 0.30452 0.41146 -0.17200
C 	C 	0.98782 0.23813 0.01651 -0.12600
Br	Br	0.98016 0.30240 0.08679 -0.21500
Br	Br	0.98250 0.15971 0.95920 -0.10400
C 	C 	0.98050 0.74990 0.00551 -0.12700
Br	Br	0.00098 0.68368 0.05495 -0.19300
C 	C 	0.99584 0.25325 0.48163 -0.09200
Br	Br	0.00166 0.17820 0.53154 -0.14500
C 	C 	0.99279 0.79218 0.98011 0.13600
