data_crystal

_cell_length_a 44.48101
_cell_length_b 43.87395
_cell_length_c 20.83290
_cell_angle_alpha 93.53285
_cell_angle_beta  93.08646
_cell_angle_gamma 90.01220

_symmetry_space_group_name_	'P 1'
_symmetry_space_group_name_H-M	'P 1'

loop_
_symmetry_equiv_pos_as_xyz
  x,y,z

loop_
_atom_site_label
_atom_site_type_symbol
_atom_site_fract_x
_atom_site_fract_y
_atom_site_fract_z
_atom_site_charge
Cd	Cd	0.00680 0.86442 0.19851 1.25100
Cd	Cd	0.00346 0.91631 0.33706 1.20100
O 	O 	0.01645 0.81094 0.22055 -0.29200
O 	O 	0.00372 0.82402 0.12303 -0.29900
C 	C 	0.00984 0.80202 0.16098 0.26300
O 	O 	0.99080 0.90887 0.15897 -0.27700
O 	O 	0.01070 0.93897 0.24506 -0.37800
C 	C 	0.99287 0.93559 0.19246 0.28800
C 	C 	0.95390 0.86666 0.26989 0.29800
O 	O 	0.04042 0.88321 0.30054 -0.40600
O 	O 	0.94922 0.85106 0.21487 -0.22400
O 	O 	0.98163 0.87464 0.28375 -0.52400
C 	C 	0.06150 0.88924 0.26211 0.28000
O 	O 	0.05647 0.88056 0.20140 -0.24900
Cd	Cd	0.88638 0.90372 0.98371 1.25100
Cd	Cd	0.89164 0.93906 0.83488 1.21200
O 	O 	0.87832 0.84837 0.97618 -0.29300
O 	O 	0.88947 0.87310 0.06880 -0.25000
C 	C 	0.88506 0.84676 0.03722 0.27800
O 	O 	0.89976 0.95218 0.01309 -0.27000
O 	O 	0.88191 0.97178 0.91869 -0.40500
C 	C 	0.89819 0.97471 0.97348 0.28900
C 	C 	0.94116 0.89904 0.91824 0.31800
O 	O 	0.85410 0.91050 0.87643 -0.38200
O 	O 	0.94479 0.89112 0.97738 -0.20700
O 	O 	0.91345 0.90421 0.89917 -0.50000
C 	C 	0.83248 0.92084 0.91155 0.30400
O 	O 	0.83671 0.91848 0.97354 -0.30400
C 	C 	0.96453 0.69661 0.95096 0.12400
N 	N 	0.95703 0.67032 0.97742 -0.14400
C 	C 	0.95825 0.64325 0.94252 0.13000
N 	N 	0.96640 0.64252 0.88057 -0.14300
C 	C 	0.97453 0.66863 0.85417 0.13200
N 	N 	0.97376 0.69563 0.88970 -0.13600
C 	C 	0.94750 0.65353 0.26964 0.11800
N 	N 	0.95509 0.65905 0.33334 -0.13400
C 	C 	0.95072 0.63726 0.37538 0.13200
N 	N 	0.93911 0.60971 0.35348 -0.14200
C 	C 	0.93099 0.60426 0.29000 0.13000
N 	N 	0.93525 0.62618 0.24801 -0.13900
Cd	Cd	0.79417 0.06195 0.68022 1.25100
Cd	Cd	0.84157 0.06882 0.82384 1.22800
O 	O 	0.74407 0.08496 0.68790 -0.25300
O 	O 	0.75789 0.06185 0.59858 -0.32800
C 	C 	0.73576 0.07312 0.63110 0.26700
O 	O 	0.83924 0.04549 0.64845 -0.31800
O 	O 	0.85666 0.03384 0.74953 -0.41600
C 	C 	0.86187 0.03957 0.68980 0.29400
C 	C 	0.82294 0.11835 0.71725 0.32100
O 	O 	0.79496 0.04584 0.80044 -0.33900
O 	O 	0.81185 0.11886 0.65788 -0.20100
O 	O 	0.81592 0.09481 0.74762 -0.47400
C 	C 	0.78940 0.01803 0.77717 0.28000
O 	O 	0.78426 0.01451 0.71500 -0.35000
Cd	Cd	0.84732 0.95059 0.50766 1.25100
Cd	Cd	0.87650 0.94863 0.35179 1.22300
O 	O 	0.79836 0.92562 0.51420 -0.28500
O 	O 	0.82139 0.94842 0.59895 -0.32000
C 	C 	0.79612 0.93726 0.57251 0.28400
O 	O 	0.89513 0.96744 0.52501 -0.30200
O 	O 	0.89971 0.98272 0.42241 -0.36000
C 	C 	0.91194 0.97702 0.47947 0.27700
C 	C 	0.87255 0.89600 0.45558 0.29000
O 	O 	0.83338 0.97022 0.39250 -0.36000
O 	O 	0.86919 0.89380 0.51712 -0.18300
O 	O 	0.86085 0.91979 0.43070 -0.51300
C 	C 	0.83035 0.99731 0.42084 0.30300
O 	O 	0.83218 0.99865 0.48353 -0.33000
C 	C 	0.59852 0.00397 0.77430 0.11800
N 	N 	0.56931 0.00684 0.75310 -0.14100
C 	C 	0.54717 0.00705 0.79548 0.13000
N 	N 	0.55426 0.00476 0.85923 -0.14300
C 	C 	0.58343 0.00204 0.88072 0.13000
N 	N 	0.60550 0.00094 0.83798 -0.13300
C 	C 	0.63397 0.97251 0.45860 0.11800
N 	N 	0.63660 0.97756 0.39533 -0.13200
C 	C 	0.61196 0.98514 0.35828 0.13200
N 	N 	0.58473 0.98757 0.38459 -0.14200
C 	C 	0.58220 0.98333 0.44809 0.13100
N 	N 	0.60674 0.97540 0.48489 -0.14000
Cd	Cd	0.92422 0.12035 0.22321 1.25800
Cd	Cd	0.94748 0.07546 0.35333 1.23400
O 	O 	0.91256 0.17319 0.25754 -0.24100
O 	O 	0.91264 0.15839 0.15460 -0.28300
C 	C 	0.90848 0.18033 0.19837 0.25800
O 	O 	0.93948 0.07553 0.17575 -0.30900
O 	O 	0.93099 0.04823 0.26380 -0.35900
C 	C 	0.94157 0.04981 0.20624 0.26700
C 	C 	0.98345 0.12725 0.28013 0.29800
O 	O 	0.90359 0.10231 0.33074 -0.31600
O 	O 	0.98144 0.14007 0.22514 -0.24000
O 	O 	0.95857 0.11667 0.29918 -0.48100
C 	C 	0.87967 0.09248 0.29677 0.29300
O 	O 	0.87778 0.09898 0.23644 -0.27100
Cd	Cd	0.95465 0.16758 0.98590 1.24800
Cd	Cd	0.95358 0.12220 0.83827 1.22300
O 	O 	0.96521 0.22233 0.98077 -0.28600
O 	O 	0.94945 0.20362 0.06794 -0.32500
C 	C 	0.95546 0.22792 0.03788 0.28100
O 	O 	0.93728 0.12152 0.01060 -0.28700
O 	O 	0.95814 0.09483 0.92584 -0.40400
C 	C 	0.94032 0.09579 0.97453 0.28700
C 	C 	0.90392 0.17110 0.89723 0.32000
O 	O 	0.99111 0.15163 0.89453 -0.39300
O 	O 	0.89804 0.18247 0.95439 -0.26400
O 	O 	0.93161 0.16276 0.89029 -0.46900
C 	C 	0.01012 0.14293 0.93968 0.27600
O 	O 	0.00335 0.15033 0.99870 -0.27600
C 	C 	0.89050 0.38256 0.94472 0.11300
N 	N 	0.89322 0.41272 0.96302 -0.14200
C 	C 	0.88020 0.43396 0.92583 0.13100
N 	N 	0.86516 0.42490 0.86942 -0.14300
C 	C 	0.86395 0.39494 0.84900 0.13100
N 	N 	0.87630 0.37373 0.88717 -0.13300
C 	C 	0.84744 0.34083 0.27489 0.11900
N 	N 	0.83726 0.33821 0.33464 -0.13300
C 	C 	0.83578 0.36319 0.37622 0.13200
N 	N 	0.84400 0.39092 0.35736 -0.14200
C 	C 	0.85369 0.39374 0.29734 0.13000
N 	N 	0.85598 0.36858 0.25656 -0.14000
Cd	Cd	0.04982 0.98789 0.72221 1.25600
Cd	Cd	0.99924 0.98965 0.84839 1.23500
O 	O 	0.09968 0.96662 0.74819 -0.27700
O 	O 	0.08809 0.98323 0.65322 -0.27200
C 	C 	0.10901 0.97316 0.69273 0.27900
O 	O 	0.00563 0.00102 0.67407 -0.30200
O 	O 	0.98609 0.01962 0.76821 -0.40500
C 	C 	0.98224 0.00988 0.70725 0.29300
C 	C 	0.02049 0.93316 0.75037 0.31400
O 	O 	0.04621 0.01181 0.84114 -0.39600
O 	O 	0.03405 0.92900 0.69635 -0.15800
O 	O 	0.02654 0.95878 0.78260 -0.50100
C 	C 	0.05181 0.03826 0.81890 0.27800
O 	O 	0.05767 0.03796 0.75830 -0.28200
Cd	Cd	0.10240 0.03521 0.48754 1.25100
Cd	Cd	0.06129 0.03056 0.33696 1.20500
O 	O 	0.15419 0.05502 0.49005 -0.27100
O 	O 	0.13367 0.04237 0.57787 -0.31600
C 	C 	0.15765 0.05165 0.55144 0.27100
O 	O 	0.05510 0.02423 0.51207 -0.32700
O 	O 	0.04075 0.00301 0.41151 -0.40500
C 	C 	0.03389 0.01318 0.46985 0.28200
C 	C 	0.07903 0.08932 0.43651 0.31000
O 	O 	0.10620 0.00818 0.37162 -0.39100
O 	O 	0.08655 0.09428 0.49782 -0.24100
O 	O 	0.08596 0.06281 0.41129 -0.49100
C 	C 	0.10942 0.98245 0.39932 0.27800
O 	O 	0.11131 0.98436 0.46206 -0.26000
C 	C 	0.27692 0.99352 0.81105 0.11800
N 	N 	0.27581 0.00146 0.87499 -0.13400
C 	C 	0.30155 0.00857 0.91076 0.14300
N 	N 	0.32819 0.00880 0.88208 -0.14500
C 	C 	0.32942 0.00069 0.81832 0.13200
N 	N 	0.30384 0.99223 0.78320 -0.14200
C 	C 	0.32084 0.04133 0.49758 0.11800
N 	N 	0.34738 0.02861 0.51707 -0.14200
C 	C 	0.36769 0.01997 0.47298 0.13000
N 	N 	0.36123 0.02383 0.40946 -0.14200
C 	C 	0.33455 0.03615 0.38988 0.13100
N 	N 	0.31447 0.04498 0.43404 -0.13400
C 	C 	0.30115 0.01238 0.98146 -0.08200
C 	C 	0.31435 0.99024 0.02081 0.14100
C 	C 	0.31778 0.99660 0.08766 -0.09800
C 	C 	0.30723 0.02406 0.11606 0.01000
C 	C 	0.29258 0.04553 0.07708 0.06800
C 	C 	0.28983 0.03948 0.00995 -0.00700
N 	N 	0.32337 0.96274 0.99486 -0.21500
H 	H 	0.32849 0.98000 0.11780 0.06600
C 	C 	0.31204 0.03017 0.18667 -0.00800
N 	N 	0.28111 0.07184 0.10365 -0.19000
H 	H 	0.27936 0.05620 0.97974 0.04500
C 	C 	0.33758 0.04676 0.21091 -0.08000
C 	C 	0.34429 0.05074 0.27758 0.10500
C 	C 	0.32590 0.03647 0.32047 -0.04300
C 	C 	0.29979 0.02079 0.29630 -0.05100
C 	C 	0.29247 0.01779 0.22979 0.08600
H 	H 	0.35220 0.05673 0.17777 0.06000
N 	N 	0.36785 0.06888 0.30004 -0.19800
H 	H 	0.28539 0.01038 0.32929 0.06500
N 	N 	0.26667 0.00306 0.20774 -0.19400
H 	H 	0.38202 0.07830 0.26802 0.09400
H 	H 	0.37146 0.07501 0.34907 0.10000
H 	H 	0.25268 0.99344 0.23985 0.11600
H 	H 	0.25987 0.00160 0.15890 0.11500
H 	H 	0.27065 0.08768 0.07442 0.11100
H 	H 	0.28205 0.07667 0.15341 0.10700
H 	H 	0.31894 0.95627 0.94621 0.10100
H 	H 	0.33404 0.94697 0.02398 0.10400
C 	C 	0.29771 0.04831 0.54379 -0.00700
C 	C 	0.28958 0.07884 0.55731 -0.02100
C 	C 	0.26088 0.08590 0.57807 -0.03600
C 	C 	0.23993 0.06245 0.58395 0.01600
C 	C 	0.24936 0.03167 0.57822 0.03000
C 	C 	0.27871 0.02483 0.56028 -0.04600
C 	C 	0.22820 0.00821 0.58156 -0.04600
C 	C 	0.19751 0.01504 0.58057 0.00500
C 	C 	0.18779 0.04545 0.57953 -0.04300
C 	C 	0.20911 0.06915 0.58671 -0.01500
H 	H 	0.30460 0.09712 0.54689 0.04800
H 	H 	0.25425 0.10961 0.58474 0.05900
H 	H 	0.28548 0.00122 0.55192 0.05600
H 	H 	0.23529 0.98455 0.57980 0.06200
H 	H 	0.18121 0.99658 0.57554 0.07000
H 	H 	0.20160 0.09269 0.58719 0.06700
C 	C 	0.24906 0.98623 0.77228 -0.00400
C 	C 	0.24372 0.95639 0.74594 -0.01800
C 	C 	0.21563 0.94843 0.71618 -0.03500
C 	C 	0.19267 0.97030 0.71250 0.02000
C 	C 	0.19864 0.00080 0.73560 0.03200
C 	C 	0.22689 0.00863 0.76517 -0.04200
C 	C 	0.17594 0.02279 0.73081 -0.03600
C 	C 	0.14697 0.01419 0.70753 0.01000
C 	C 	0.14018 0.98345 0.68984 -0.02900
C 	C 	0.16341 0.96181 0.68928 -0.01100
H 	H 	0.26100 0.93914 0.75039 0.05100
H 	H 	0.21152 0.92511 0.69755 0.06600
H 	H 	0.23135 0.03186 0.78422 0.06000
H 	H 	0.18048 0.04641 0.74665 0.07800
H 	H 	0.12918 0.03105 0.70791 0.09700
H 	H 	0.15826 0.93808 0.67518 0.08400
C 	C 	0.85576 0.38649 0.78071 -0.04600
C 	C 	0.83063 0.36753 0.76192 0.11100
C 	C 	0.82380 0.36017 0.69607 -0.08300
C 	C 	0.84137 0.37171 0.64907 0.00000
C 	C 	0.86620 0.39105 0.66795 0.07600
C 	C 	0.87326 0.39799 0.73362 -0.04700
N 	N 	0.81271 0.35679 0.80647 -0.19900
H 	H 	0.80470 0.34552 0.68138 0.06900
C 	C 	0.83361 0.36344 0.58012 -0.00500
N 	N 	0.88323 0.40313 0.62338 -0.19300
H 	H 	0.89245 0.41256 0.74821 0.05400
C 	C 	0.81331 0.38181 0.54619 -0.08100
C 	C 	0.81108 0.37958 0.47854 0.10500
C 	C 	0.83037 0.35945 0.44465 -0.04300
C 	C 	0.84805 0.33868 0.47864 -0.05100
C 	C 	0.84958 0.34026 0.54627 0.08800
H 	H 	0.80001 0.39861 0.57238 0.05900
N 	N 	0.79022 0.39644 0.44650 -0.19800
H 	H 	0.86186 0.32230 0.45259 0.07000
N 	N 	0.86689 0.31998 0.57835 -0.19400
H 	H 	0.77691 0.41220 0.47168 0.09300
H 	H 	0.78601 0.39301 0.39677 0.09900
H 	H 	0.87945 0.30358 0.55304 0.12300
H 	H 	0.86735 0.31967 0.62847 0.11600
H 	H 	0.90172 0.41708 0.63793 0.09200
H 	H 	0.87820 0.39918 0.57406 0.09500
H 	H 	0.81632 0.36289 0.85550 0.10100
H 	H 	0.79447 0.34248 0.79211 0.10300
C 	C 	0.04794 0.12175 0.86683 0.04400
C 	C 	0.03362 0.12031 0.92486 0.00000
C 	C 	0.03640 0.09337 0.95865 -0.10600
C 	C 	0.04364 0.06602 0.92442 0.04100
C 	C 	0.05342 0.06664 0.86147 0.00100
C 	C 	0.06029 0.09530 0.83758 -0.09500
C 	C 	0.08193 0.09820 0.78449 0.78500
H 	H 	0.04849 0.14312 0.84339 0.09100
H 	H 	0.04112 0.04441 0.94612 0.09200
C 	C 	0.03409 0.09407 0.03108 0.79200
F 	F 	0.09605 0.12644 0.79053 -0.42600
F 	F 	0.06636 0.09532 0.72515 -0.43300
F 	F 	0.10411 0.07614 0.78759 -0.44100
F 	F 	0.00424 0.09403 0.04621 -0.45200
F 	F 	0.04818 0.11992 0.05994 -0.40600
F 	F 	0.04800 0.06892 0.05640 -0.39300
C 	C 	0.93879 0.25628 0.05081 -0.05500
C 	C 	0.90718 0.25542 0.04585 0.01800
C 	C 	0.89076 0.28179 0.03404 -0.05800
C 	C 	0.90583 0.30908 0.02469 0.05900
C 	C 	0.93747 0.31077 0.03528 0.00100
C 	C 	0.95375 0.28440 0.04982 -0.00400
C 	C 	0.95259 0.33799 0.02516 -0.01100
C 	C 	0.93683 0.36232 0.99914 -0.04400
C 	C 	0.90580 0.35972 0.98349 0.01000
C 	C 	0.89010 0.33373 0.99929 -0.06900
H 	H 	0.89541 0.23384 0.04657 0.06300
H 	H 	0.86643 0.28051 0.02826 0.06800
H 	H 	0.97816 0.28517 0.05453 0.05800
H 	H 	0.97675 0.33983 0.03461 0.05200
H 	H 	0.94899 0.38262 0.98832 0.05300
H 	H 	0.86598 0.33209 0.98871 0.05900
C 	C 	0.03859 0.12096 0.29471 0.03900
C 	C 	0.01122 0.12850 0.32175 -0.02800
C 	C 	0.01032 0.13326 0.38955 -0.12300
C 	C 	0.03414 0.12236 0.42858 0.04800
C 	C 	0.05993 0.11043 0.40070 -0.03100
C 	C 	0.06370 0.11372 0.33443 -0.12200
C 	C 	0.09382 0.10803 0.30524 0.78400
H 	H 	0.03997 0.11933 0.24279 0.10000
H 	H 	0.03193 0.12166 0.48005 0.09100
C 	C 	0.98413 0.14937 0.42059 0.78600
F 	F 	0.09586 0.07769 0.28383 -0.49500
F 	F 	0.11734 0.11520 0.34985 -0.42400
F 	F 	0.09679 0.12596 0.25352 -0.40500
F 	F 	0.96241 0.12822 0.43252 -0.46300
F 	F 	0.97158 0.17088 0.38134 -0.41800
F 	F 	0.99371 0.16443 0.47844 -0.39900
C 	C 	0.85400 0.31314 0.23498 -0.00300
C 	C 	0.83060 0.29296 0.21350 -0.01600
C 	C 	0.83713 0.26345 0.18894 -0.03600
C 	C 	0.86712 0.25357 0.18772 0.02300
C 	C 	0.89074 0.27446 0.20573 0.03000
C 	C 	0.88400 0.30447 0.22738 -0.04300
C 	C 	0.92063 0.26432 0.20729 -0.04300
C 	C 	0.92687 0.23326 0.19691 0.01100
C 	C 	0.90339 0.21208 0.18308 -0.02400
C 	C 	0.87372 0.22255 0.17459 -0.02000
H 	H 	0.80736 0.29973 0.21820 0.05400
H 	H 	0.81883 0.24782 0.17406 0.06900
H 	H 	0.90206 0.32029 0.24311 0.05700
H 	H 	0.93898 0.28025 0.21950 0.06100
H 	H 	0.94987 0.22539 0.20325 0.07300
H 	H 	0.85556 0.20621 0.16371 0.07900
C 	C 	0.39710 0.00723 0.49396 -0.05000
C 	C 	0.40966 0.98223 0.45863 0.10500
C 	C 	0.44075 0.97702 0.46502 -0.08600
C 	C 	0.45891 0.99436 0.51080 -0.00400
C 	C 	0.44537 0.01599 0.55345 0.07200
C 	C 	0.41467 0.02284 0.54350 -0.05200
N 	N 	0.39190 0.96286 0.41972 -0.19900
H 	H 	0.45089 0.95964 0.43389 0.05900
C 	C 	0.49214 0.99293 0.50717 -0.00400
N 	N 	0.46175 0.03038 0.60340 -0.19400
H 	H 	0.40477 0.04114 0.57262 0.04900
C 	C 	0.50741 0.01834 0.48696 -0.08400
C 	C 	0.53800 0.01650 0.47407 0.10500
C 	C 	0.55300 0.98818 0.47722 -0.05000
C 	C 	0.53844 0.96338 0.50159 -0.05000
C 	C 	0.50816 0.96555 0.51732 0.07200
H 	H 	0.49537 0.03953 0.48073 0.05900
N 	N 	0.55298 0.04206 0.45989 -0.19900
H 	H 	0.55034 0.94198 0.50614 0.05300
N 	N 	0.49459 0.94131 0.54160 -0.19500
H 	H 	0.54144 0.06258 0.45450 0.09100
H 	H 	0.57637 0.04222 0.45758 0.09400
H 	H 	0.50650 0.92112 0.54831 0.08800
H 	H 	0.47234 0.94239 0.55503 0.08900
H 	H 	0.45199 0.04731 0.63294 0.08600
H 	H 	0.48392 0.02404 0.61494 0.09300
H 	H 	0.36845 0.96383 0.42035 0.10000
H 	H 	0.40146 0.94536 0.39128 0.09300
C 	C 	0.51545 0.00918 0.77241 -0.05100
C 	C 	0.49706 0.03315 0.79612 0.10300
C 	C 	0.46566 0.03020 0.78850 -0.08800
C 	C 	0.45254 0.00419 0.75599 -0.00300
C 	C 	0.47099 0.98237 0.72450 0.07000
C 	C 	0.50242 0.98491 0.73358 -0.05500
N 	N 	0.50942 0.05901 0.82586 -0.19900
H 	H 	0.45141 0.04766 0.80991 0.05800
C 	C 	0.42009 0.99830 0.76221 -0.00600
N 	N 	0.45867 0.95837 0.68789 -0.19400
H 	H 	0.51667 0.96728 0.71278 0.05200
C 	C 	0.39891 0.01558 0.72792 -0.08400
C 	C 	0.36840 0.01525 0.74208 0.10500
C 	C 	0.35895 0.99653 0.79037 -0.05000
C 	C 	0.37959 0.97676 0.81932 -0.05000
C 	C 	0.41026 0.97816 0.80752 0.07400
H 	H 	0.40644 0.03054 0.69249 0.05300
N 	N 	0.34857 0.03335 0.71013 -0.19900
H 	H 	0.37206 0.96169 0.85463 0.05000
N 	N 	0.43019 0.96092 0.84138 -0.19400
H 	H 	0.35582 0.04682 0.67424 0.09200
H 	H 	0.32586 0.03422 0.72014 0.10000
H 	H 	0.42258 0.94588 0.87402 0.08800
H 	H 	0.45335 0.96258 0.83679 0.09200
H 	H 	0.47224 0.94054 0.67082 0.08600
H 	H 	0.43565 0.95747 0.67509 0.09100
H 	H 	0.53262 0.06292 0.82741 0.09700
H 	H 	0.49570 0.07614 0.84542 0.09100
C 	C 	0.59096 0.99958 0.95031 -0.03900
C 	C 	0.61212 0.01953 0.98465 0.09900
C 	C 	0.61931 0.01565 0.05018 -0.06100
C 	C 	0.60387 0.99417 0.08337 -0.00900
C 	C 	0.58175 0.97514 0.04970 0.09200
C 	C 	0.57618 0.97748 0.98314 -0.06800
N 	N 	0.62449 0.04325 0.95606 -0.19600
H 	H 	0.63597 0.03042 0.07620 0.07700
C 	C 	0.60954 0.99343 0.15426 0.00100
N 	N 	0.56558 0.95487 0.08094 -0.19600
H 	H 	0.55986 0.96236 0.95699 0.05600
C 	C 	0.59787 0.01684 0.19444 -0.08100
C 	C 	0.60140 0.01614 0.26173 0.11000
C 	C 	0.61461 0.99026 0.28921 -0.04300
C 	C 	0.62771 0.96763 0.24919 -0.04700
C 	C 	0.62597 0.96936 0.18187 0.08500
H 	H 	0.58633 0.03587 0.17328 0.06300
N 	N 	0.59307 0.04074 0.29953 -0.19700
H 	H 	0.63868 0.94826 0.27028 0.06600
N 	N 	0.63983 0.94781 0.14421 -0.19300
H 	H 	0.58177 0.05900 0.27922 0.09600
H 	H 	0.59947 0.04287 0.34856 0.09900
H 	H 	0.65118 0.92967 0.16488 0.11200
H 	H 	0.64017 0.94924 0.09443 0.11300
H 	H 	0.54971 0.94058 0.05542 0.09500
H 	H 	0.56807 0.95347 0.13075 0.09500
H 	H 	0.61628 0.04981 0.91113 0.10800
H 	H 	0.64130 0.05672 0.98067 0.11600
C 	C 	0.83907 0.05316 0.42058 0.07900
C 	C 	0.83200 0.02545 0.38559 0.00100
C 	C 	0.83076 0.02462 0.31739 -0.08900
C 	C 	0.84514 0.04795 0.28733 0.06700
C 	C 	0.85697 0.07347 0.32406 0.02400
C 	C 	0.85011 0.07789 0.38946 -0.07900
C 	C 	0.85537 0.10835 0.42689 0.78500
H 	H 	0.83728 0.05503 0.47237 0.11000
H 	H 	0.84791 0.04581 0.23589 0.14000
C 	C 	0.81331 0.00009 0.27662 0.78900
F 	F 	0.83516 0.11226 0.47499 -0.40500
F 	F 	0.85149 0.13232 0.38705 -0.41200
F 	F 	0.88425 0.10935 0.45503 -0.36400
F 	F 	0.78880 0.99030 0.30817 -0.43000
F 	F 	0.83191 0.97558 0.26288 -0.45500
F 	F 	0.80253 0.01129 0.21911 -0.39200
C 	C 	0.96597 0.96644 0.50401 0.03100
C 	C 	0.94299 0.98800 0.49664 0.01600
C 	C 	0.95059 0.01928 0.49376 -0.12700
C 	C 	0.98107 0.02764 0.49020 0.03300
C 	C 	0.00389 0.00557 0.49227 -0.01400
C 	C 	0.99649 0.97510 0.50415 -0.10100
C 	C 	0.02092 0.95131 0.51233 0.78200
H 	H 	0.96007 0.94261 0.50577 0.11400
H 	H 	0.98687 0.05101 0.48179 0.03200
C 	C 	0.92626 0.04333 0.48701 0.77500
F 	F 	0.01001 0.92552 0.53845 -0.38600
F 	F 	0.04418 0.96301 0.55324 -0.42400
F 	F 	0.03200 0.94280 0.45315 -0.52500
F 	F 	0.90226 0.03734 0.52383 -0.42500
F 	F 	0.91590 0.04352 0.42336 -0.54100
F 	F 	0.93730 0.07206 0.50690 -0.41900
C 	C 	0.76789 0.95297 0.58629 -0.04500
C 	C 	0.76513 0.98332 0.56898 0.01000
C 	C 	0.73829 0.99324 0.53948 -0.05400
C 	C 	0.71265 0.97460 0.53610 0.03800
C 	C 	0.71387 0.94617 0.56455 0.01400
C 	C 	0.74163 0.93546 0.58990 -0.00800
C 	C 	0.68786 0.92794 0.56298 -0.03500
C 	C 	0.66135 0.93715 0.53039 -0.02100
C 	C 	0.66069 0.96451 0.49876 -0.00000
C 	C 	0.68606 0.98362 0.50329 -0.04700
H 	H 	0.78496 0.99772 0.56978 0.04400
H 	H 	0.73758 0.01523 0.51849 0.07700
H 	H 	0.74334 0.91245 0.60597 0.08400
H 	H 	0.68833 0.90633 0.58557 0.06100
H 	H 	0.64163 0.92255 0.52804 0.05000
H 	H 	0.68522 0.00522 0.48056 0.06400
C 	C 	0.90006 0.00066 0.66284 0.06200
C 	C 	0.89164 0.03146 0.66579 0.00700
C 	C 	0.91394 0.05423 0.66209 -0.08300
C 	C 	0.94454 0.04584 0.66475 0.05100
C 	C 	0.95296 0.01552 0.67332 0.00700
C 	C 	0.93065 0.99236 0.66697 -0.12300
C 	C 	0.93899 0.95936 0.67527 0.78100
H 	H 	0.88280 0.98327 0.66376 0.04900
H 	H 	0.96184 0.06334 0.66711 0.08200
C 	C 	0.90550 0.08769 0.66417 0.78000
F 	F 	0.91642 0.93983 0.64943 -0.42600
F 	F 	0.94347 0.95493 0.74020 -0.55000
F 	F 	0.96501 0.95207 0.64450 -0.40600
F 	F 	0.89932 0.09715 0.72658 -0.54800
F 	F 	0.88042 0.09215 0.62366 -0.40000
F 	F 	0.92864 0.10551 0.64477 -0.39500
C 	C 	0.86503 0.15517 0.73277 0.06800
C 	C 	0.83715 0.14511 0.75181 -0.00300
C 	C 	0.82825 0.15405 0.81414 -0.11600
C 	C 	0.85037 0.16306 0.86171 0.06100
C 	C 	0.88014 0.16749 0.84517 -0.02800
C 	C 	0.88636 0.16795 0.77913 -0.10200
C 	C 	0.91442 0.18307 0.75750 0.79100
H 	H 	0.87090 0.15112 0.68314 0.13700
H 	H 	0.84466 0.16555 0.91170 0.09700
C 	C 	0.79584 0.15118 0.83179 0.78400
F 	F 	0.90906 0.19407 0.69707 -0.40000
F 	F 	0.93750 0.16208 0.75425 -0.50100
F 	F 	0.92327 0.20753 0.79939 -0.43800
F 	F 	0.79171 0.12355 0.85872 -0.44000
F 	F 	0.77630 0.15292 0.77814 -0.42500
F 	F 	0.78885 0.17457 0.87610 -0.42500
C 	C 	0.62273 0.00660 0.72949 -0.00200
C 	C 	0.64709 0.98634 0.73158 -0.01800
C 	C 	0.67317 0.99258 0.70030 -0.03400
C 	C 	0.67534 0.01950 0.66780 0.01800
C 	C 	0.64985 0.03834 0.65996 0.03200
C 	C 	0.62338 0.03154 0.69023 -0.04500
C 	C 	0.65221 0.06535 0.62760 -0.05100
C 	C 	0.68039 0.07525 0.60993 0.01200
C 	C 	0.70626 0.05804 0.62372 -0.04900
C 	C 	0.70334 0.02943 0.64952 -0.01700
H 	H 	0.64629 0.96641 0.75970 0.05800
H 	H 	0.69226 0.97731 0.70424 0.06200
H 	H 	0.60422 0.04678 0.68721 0.05400
H 	H 	0.63261 0.07957 0.61953 0.05500
H 	H 	0.68238 0.09728 0.58972 0.05500
H 	H 	0.72340 0.01655 0.66202 0.05400
C 	C 	0.86546 0.42330 0.27993 -0.04800
C 	C 	0.84894 0.44161 0.23696 0.10300
C 	C 	0.85905 0.47131 0.22813 -0.08700
C 	C 	0.88532 0.48293 0.26112 -0.00600
C 	C 	0.90211 0.46437 0.30329 0.07500
C 	C 	0.89226 0.43452 0.31120 -0.05100
N 	N 	0.82318 0.43107 0.20489 -0.20000
H 	H 	0.84606 0.48571 0.19654 0.05400
C 	C 	0.89346 0.51539 0.25564 -0.00500
N 	N 	0.92721 0.47526 0.33744 -0.19400
H 	H 	0.90495 0.42032 0.34372 0.05500
C 	C 	0.87738 0.53803 0.28949 -0.08600
C 	C 	0.88742 0.56842 0.29426 0.10500
C 	C 	0.91499 0.57580 0.26814 -0.04900
C 	C 	0.92938 0.55391 0.22871 -0.05200
C 	C 	0.91850 0.52374 0.22119 0.07000
H 	H 	0.85729 0.53188 0.31309 0.05800
N 	N 	0.87037 0.59047 0.32304 -0.19900
H 	H 	0.94976 0.56000 0.20609 0.05300
N 	N 	0.93249 0.50286 0.18217 -0.19500
H 	H 	0.85083 0.58469 0.34529 0.09100
H 	H 	0.87544 0.61358 0.32039 0.09400
H 	H 	0.95129 0.50909 0.15790 0.09000
H 	H 	0.92430 0.48058 0.17394 0.09100
H 	H 	0.93965 0.46119 0.36759 0.09200
H 	H 	0.93435 0.49782 0.33555 0.09500
H 	H 	0.81489 0.40920 0.21056 0.09800
H 	H 	0.81114 0.44482 0.17338 0.09100
C 	C 	0.94673 0.61541 0.96846 -0.05200
C 	C 	0.96569 0.59001 0.97751 0.10200
C 	C 	0.95281 0.56128 0.98445 -0.08800
C 	C 	0.92143 0.55768 0.98172 -0.00300
C 	C 	0.90277 0.58380 0.98157 0.07100
C 	C 	0.91568 0.61254 0.97499 -0.05100
N 	N 	0.99616 0.59304 0.97916 -0.19900
H 	H 	0.96713 0.54138 0.98777 0.05600
C 	C 	0.90857 0.52685 0.96645 -0.01600
N 	N 	0.87247 0.58130 0.98578 -0.19400
H 	H 	0.90133 0.63240 0.97107 0.05200
C 	C 	0.89926 0.50975 0.01654 -0.07600
C 	C 	0.88727 0.48026 0.00348 0.11400
C 	C 	0.88728 0.46668 0.93998 -0.06100
C 	C 	0.89624 0.48400 0.88984 -0.05000
C 	C 	0.90629 0.51416 0.90220 0.07500
H 	H 	0.90028 0.51987 0.06542 0.05700
N 	N 	0.87461 0.46577 0.05122 -0.20000
H 	H 	0.89592 0.47379 0.84105 0.05200
N 	N 	0.91381 0.53075 0.85227 -0.19400
H 	H 	0.87633 0.47515 0.09855 0.08800
H 	H 	0.86126 0.44632 0.04120 0.10000
H 	H 	0.91262 0.52093 0.80519 0.08800
H 	H 	0.92027 0.55363 0.85924 0.09400
H 	H 	0.85875 0.60058 0.98349 0.08900
H 	H 	0.86234 0.56042 0.99307 0.08900
H 	H 	0.00637 0.61444 0.97819 0.09200
H 	H 	0.01002 0.57397 0.98364 0.08800
C 	C 	0.97941 0.66835 0.78428 -0.04300
C 	C 	0.99462 0.64390 0.75252 0.10600
C 	C 	0.99179 0.63994 0.68500 -0.08100
C 	C 	0.97660 0.66160 0.64865 -0.00500
C 	C 	0.96490 0.68818 0.68016 0.08600
C 	C 	0.96575 0.69094 0.74775 -0.05000
N 	N 	0.01282 0.62497 0.78623 -0.19800
H 	H 	0.00172 0.62014 0.66068 0.05800
C 	C 	0.97056 0.65490 0.57843 -0.00200
N 	N 	0.95283 0.71103 0.64589 -0.19400
H 	H 	0.95501 0.71030 0.77185 0.06900
C 	C 	0.94154 0.64562 0.55575 -0.08300
C 	C 	0.93412 0.64164 0.48943 0.10700
C 	C 	0.95696 0.64413 0.44516 -0.04500
C 	C 	0.98616 0.65286 0.46784 -0.04700
C 	C 	0.99310 0.65885 0.53407 0.08000
H 	H 	0.92427 0.64291 0.58981 0.06100
N 	N 	0.90489 0.63686 0.46861 -0.19800
H 	H 	0.00355 0.65511 0.43385 0.05800
N 	N 	0.02122 0.66869 0.55450 -0.19400
H 	H 	0.88851 0.63317 0.50147 0.09400
H 	H 	0.89779 0.63886 0.42052 0.09800
H 	H 	0.03777 0.67119 0.52142 0.10200
H 	H 	0.02685 0.67440 0.60303 0.10400
H 	H 	0.94330 0.73010 0.66947 0.12200
H 	H 	0.95375 0.71066 0.59588 0.11400
H 	H 	0.01902 0.63006 0.83477 0.09800
H 	H 	0.02263 0.60599 0.76293 0.09200
C 	C 	0.88998 0.02947 0.00490 0.07100
C 	C 	0.91021 0.00524 0.99540 0.00300
C 	C 	0.94136 0.01141 0.99445 -0.12100
C 	C 	0.95138 0.04196 0.99792 0.04300
C 	C 	0.93073 0.06625 0.99854 -0.00000
C 	C 	0.89998 0.06009 0.00725 -0.10400
C 	C 	0.87773 0.08595 0.01730 0.79300
H 	H 	0.86622 0.02442 0.00704 0.11500
H 	H 	0.97505 0.04686 0.99409 0.09400
C 	C 	0.96344 0.98562 0.98186 0.76100
F 	F 	0.84945 0.07524 0.02956 -0.39400
F 	F 	0.87503 0.10248 0.96284 -0.51400
F 	F 	0.88762 0.10501 0.06950 -0.44100
F 	F 	0.95742 0.97226 0.92067 -0.59200
F 	F 	0.96052 0.96376 0.02601 -0.40600
F 	F 	0.99299 0.99578 0.98658 -0.48300
C 	C 	0.80674 0.97085 0.91854 0.05400
C 	C 	0.81026 0.94229 0.88570 -0.01300
C 	C 	0.79688 0.93701 0.82291 -0.10900
C 	C 	0.78747 0.96210 0.78855 0.04800
C 	C 	0.78877 0.99171 0.81834 -0.00800
C 	C 	0.79400 0.99524 0.88618 -0.11600
C 	C 	0.78503 0.02397 0.92461 0.78900
H 	H 	0.81515 0.97447 0.96825 0.09700
H 	H 	0.78066 0.95875 0.73785 0.07600
C 	C 	0.79438 0.90511 0.79074 0.78200
F 	F 	0.77895 0.01746 0.98682 -0.40400
F 	F 	0.75930 0.03656 0.89694 -0.41800
F 	F 	0.80831 0.04499 0.92767 -0.47300
F 	F 	0.79046 0.88367 0.83566 -0.42900
F 	F 	0.82020 0.89838 0.75867 -0.45200
F 	F 	0.76990 0.90304 0.74669 -0.44600
C 	C 	0.01711 0.90372 0.84595 0.03700
C 	C 	0.00722 0.90772 0.78205 -0.00100
C 	C 	0.97868 0.89609 0.76001 -0.07200
C 	C 	0.95713 0.89181 0.80558 0.04900
C 	C 	0.96526 0.89496 0.87179 -0.01700
C 	C 	0.99639 0.89684 0.89161 -0.07700
C 	C 	0.00779 0.89052 0.95956 0.76500
H 	H 	0.04019 0.90945 0.86139 0.09600
H 	H 	0.93424 0.88559 0.78962 0.06600
C 	C 	0.97383 0.88083 0.69302 0.79000
F 	F 	0.03888 0.88827 0.96432 -0.40900
F 	F 	0.99622 0.86311 0.97687 -0.44300
F 	F 	0.99951 0.91397 0.00232 -0.36600
F 	F 	0.98968 0.89508 0.64821 -0.34500
F 	F 	0.94364 0.88115 0.67320 -0.36800
F 	F 	0.98321 0.85082 0.69413 -0.40400
C 	C 	0.90053 0.81948 0.05865 0.00500
C 	C 	0.88336 0.79441 0.07418 0.01100
C 	C 	0.89440 0.76472 0.06421 -0.03500
C 	C 	0.92238 0.75997 0.03716 0.00800
C 	C 	0.94080 0.78529 0.02724 0.06200
C 	C 	0.93042 0.81491 0.04209 -0.03700
C 	C 	0.96847 0.78073 0.99885 -0.06900
C 	C 	0.97714 0.75139 0.97762 0.00400
C 	C 	0.95826 0.72628 0.98448 -0.03000
C 	C 	0.93148 0.73047 0.01682 -0.01600
H 	H 	0.86057 0.79777 0.08905 0.07900
H 	H 	0.88049 0.74546 0.07413 0.05400
H 	H 	0.94419 0.83443 0.03298 0.10500
H 	H 	0.98295 0.79997 0.99185 0.10700
H 	H 	0.99821 0.74825 0.95432 0.05500
H 	H 	0.91702 0.71106 0.02295 0.05100
C 	C 	0.94648 0.96564 0.17120 0.04700
C 	C 	0.97772 0.96289 0.16735 0.02900
C 	C 	0.99466 0.98873 0.15291 -0.08200
C 	C 	0.98127 0.01789 0.15714 0.03400
C 	C 	0.95100 0.02110 0.17187 0.01100
C 	C 	0.93270 0.99455 0.17091 -0.10100
C 	C 	0.89900 0.99688 0.17716 0.78600
H 	H 	0.93316 0.94562 0.17883 0.08600
H 	H 	0.99497 0.03813 0.15408 0.08700
C 	C 	0.02713 0.98554 0.13557 0.78900
F 	F 	0.88449 0.97212 0.14477 -0.41900
F 	F 	0.88769 0.02312 0.15139 -0.42500
F 	F 	0.89278 0.99715 0.24149 -0.48500
F 	F 	0.03080 0.95906 0.09725 -0.34200
F 	F 	0.04547 0.98467 0.19116 -0.46800
F 	F 	0.03593 0.00984 0.10157 -0.38000
C 	C 	0.87988 0.86785 0.35295 0.02300
C 	C 	0.89023 0.87429 0.41687 -0.01600
C 	C 	0.92092 0.86967 0.43391 -0.11400
C 	C 	0.94153 0.86731 0.38500 0.02900
C 	C 	0.93144 0.86761 0.31977 -0.04200
C 	C 	0.90000 0.86826 0.30344 -0.12300
C 	C 	0.88777 0.87074 0.23443 0.77100
H 	H 	0.85583 0.86730 0.34139 0.08000
H 	H 	0.96541 0.86560 0.39752 0.05400
C 	C 	0.93166 0.86739 0.50372 0.78500
F 	F 	0.85787 0.87960 0.23190 -0.44900
F 	F 	0.88972 0.84265 0.20111 -0.44200
F 	F 	0.90375 0.89234 0.20445 -0.46700
F 	F 	0.91247 0.84869 0.53378 -0.39500
F 	F 	0.93218 0.89606 0.53513 -0.39500
F 	F 	0.96030 0.85512 0.50902 -0.39600
C 	C 	0.11280 0.95342 0.29369 0.04500
C 	C 	0.11384 0.95331 0.36127 0.00600
C 	C 	0.11199 0.92484 0.38955 -0.08500
C 	C 	0.09867 0.90011 0.35260 0.05100
C 	C 	0.09014 0.90319 0.28753 0.00700
C 	C 	0.10280 0.92731 0.25626 -0.08900
C 	C 	0.10646 0.92493 0.18440 0.78500
H 	H 	0.11810 0.97410 0.27065 0.09300
H 	H 	0.09250 0.87966 0.37556 0.09400
C 	C 	0.12478 0.92031 0.45718 0.78100
F 	F 	0.11416 0.89542 0.16447 -0.40700
F 	F 	0.12900 0.94430 0.16793 -0.41000
F 	F 	0.07985 0.93268 0.15246 -0.36800
F 	F 	0.10321 0.92748 0.50102 -0.39700
F 	F 	0.15004 0.93841 0.47155 -0.43800
F 	F 	0.13330 0.89022 0.46312 -0.42700
C 	C 	0.94898 0.67847 0.22613 -0.00400
C 	C 	0.92686 0.70124 0.22765 -0.01700
C 	C 	0.93230 0.72948 0.20297 -0.04000
C 	C 	0.96004 0.73523 0.17704 0.02000
C 	C 	0.98092 0.71125 0.16858 0.03100
C 	C 	0.97514 0.68274 0.19287 -0.04400
C 	C 	0.00851 0.71704 0.14186 -0.04900
C 	C 	0.01677 0.74704 0.13115 0.00500
C 	C 	0.99738 0.77133 0.14633 -0.03900
C 	C 	0.96833 0.76513 0.16535 -0.02200
H 	H 	0.90624 0.69772 0.25167 0.05000
H 	H 	0.91563 0.74740 0.20729 0.06400
H 	H 	0.99191 0.66481 0.19030 0.05400
H 	H 	0.02428 0.69864 0.13290 0.05600
H 	H 	0.03903 0.75158 0.11526 0.05600
H 	H 	0.95314 0.78390 0.17605 0.07000
