data_crystal

_cell_length_a 42.71162
_cell_length_b 42.49704
_cell_length_c 30.06390
_cell_angle_alpha 89.99987
_cell_angle_beta  89.99715
_cell_angle_gamma 89.99488

_symmetry_space_group_name_	'P 1'
_symmetry_space_group_name_H-M	'P 1'

loop_
_symmetry_equiv_pos_as_xyz
  x,y,z

loop_
_atom_site_label
_atom_site_type_symbol
_atom_site_fract_x
_atom_site_fract_y
_atom_site_fract_z
_atom_site_charge
Ni	Ni	0.58981 0.06890 0.66357 1.10300
O 	O 	0.60840 0.09524 0.71367 -0.70600
Ni	Ni	0.56960 0.11010 0.74392 1.10000
O 	O 	0.62873 0.07201 0.62395 -0.37700
O 	O 	0.62779 0.12553 0.62996 -0.41900
O 	O 	0.60738 0.02825 0.69180 -0.37000
Ni	Ni	0.63285 0.13238 0.69814 1.06800
O 	O 	0.54611 0.01093 0.67329 -0.40700
O 	O 	0.60207 0.16977 0.69788 -0.40000
O 	O 	0.58788 0.14467 0.78473 -0.37700
O 	O 	0.55173 0.07845 0.69966 -0.70300
O 	O 	0.56814 0.04141 0.61815 -0.38000
O 	O 	0.52665 0.11446 0.77352 -0.37300
O 	O 	0.52372 0.06135 0.78658 -0.41000
Ni	Ni	0.53692 0.03992 0.72671 1.06400
H 	H 	0.62059 0.08210 0.73459 0.15700
H 	H 	0.53519 0.08767 0.68061 0.15600
C 	C 	0.57217 0.16773 0.68808 0.30500
O 	O 	0.57898 0.03154 0.75582 -0.42200
C 	C 	0.63844 0.09981 0.61068 0.26600
C 	C 	0.61824 0.14967 0.79190 0.28500
C 	C 	0.60253 0.01994 0.73338 0.28800
C 	C 	0.51164 0.08995 0.79007 0.26700
C 	C 	0.54745 0.02017 0.63100 0.27200
O 	O 	0.55636 0.14216 0.69705 -0.40000
O 	O 	0.64009 0.13947 0.76400 -0.41900
Ni	Ni	0.43023 0.86345 0.31359 1.09900
O 	O 	0.44387 0.89079 0.36564 -0.70500
Ni	Ni	0.40239 0.90174 0.39244 1.10100
O 	O 	0.47605 0.85736 0.29557 -0.37400
O 	O 	0.48414 0.91060 0.28858 -0.41000
O 	O 	0.43404 0.82738 0.35802 -0.40300
Ni	Ni	0.46514 0.92896 0.34766 1.06400
O 	O 	0.36232 0.83968 0.27235 -0.42000
O 	O 	0.42834 0.94357 0.30969 -0.41900
O 	O 	0.41945 0.92492 0.44614 -0.37800
O 	O 	0.38906 0.87946 0.33529 -0.70400
O 	O 	0.41607 0.83279 0.26452 -0.38000
O 	O 	0.35859 0.90026 0.42090 -0.37300
O 	O 	0.35603 0.84745 0.40795 -0.41500
Ni	Ni	0.36080 0.84341 0.33949 1.07000
H 	H 	0.45682 0.87903 0.38732 0.15600
H 	H 	0.38063 0.89462 0.31335 0.15600
C 	C 	0.40297 0.95569 0.32713 0.28800
O 	O 	0.38727 0.80312 0.34485 -0.40000
C 	C 	0.49349 0.88118 0.28226 0.26800
C 	C 	0.44413 0.94334 0.44130 0.27100
C 	C 	0.41717 0.80177 0.35529 0.30700
C 	C 	0.34406 0.87315 0.42548 0.27000
C 	C 	0.38692 0.82910 0.25000 0.28900
O 	O 	0.39164 0.94506 0.36502 -0.36800
O 	O 	0.45124 0.95523 0.40164 -0.40500
Ni	Ni	0.65136 0.81392 0.92001 1.09700
O 	O 	0.63254 0.83655 0.97312 -0.71600
Ni	Ni	0.62960 0.80136 0.01637 1.10100
O 	O 	0.65083 0.85480 0.88408 -0.37100
O 	O 	0.59793 0.85962 0.89399 -0.41400
O 	O 	0.69537 0.82510 0.94414 -0.36400
Ni	Ni	0.59021 0.85129 0.96171 1.06100
O 	O 	0.70653 0.76845 0.91286 -0.41300
O 	O 	0.57393 0.80793 0.94330 -0.41800
O 	O 	0.61414 0.82846 0.06769 -0.37800
O 	O 	0.64320 0.77686 0.96049 -0.70100
O 	O 	0.67016 0.79042 0.86736 -0.38800
O 	O 	0.63891 0.76639 0.06109 -0.37200
O 	O 	0.66862 0.73005 0.02490 -0.40400
Ni	Ni	0.68325 0.75470 0.96877 1.06500
H 	H 	0.64596 0.85375 0.98452 0.15400
H 	H 	0.62686 0.76281 0.94824 0.15100
C 	C 	0.56820 0.78598 0.97276 0.28000
O 	O 	0.69947 0.79191 0.00429 -0.40600
C 	C 	0.62452 0.87011 0.87711 0.27000
C 	C 	0.58965 0.84719 0.06262 0.27300
C 	C 	0.70402 0.81968 0.98578 0.24500
C 	C 	0.64395 0.73715 0.04917 0.28900
C 	C 	0.69292 0.77019 0.87368 0.28000
O 	O 	0.58458 0.78448 0.00972 -0.37000
O 	O 	0.57292 0.84647 0.02528 -0.40500
Ni	Ni	0.85771 0.67097 0.53654 1.09800
O 	O 	0.84364 0.68942 0.59657 -0.70000
Ni	Ni	0.83532 0.64886 0.63002 1.09600
O 	O 	0.85397 0.71145 0.49989 -0.36700
O 	O 	0.81831 0.74027 0.53917 -0.41000
O 	O 	0.90329 0.68423 0.54847 -0.36500
Ni	Ni	0.80333 0.71115 0.59073 1.06500
O 	O 	0.91306 0.62565 0.51841 -0.40600
O 	O 	0.78770 0.67588 0.55024 -0.42900
O 	O 	0.81677 0.66814 0.68635 -0.38600
O 	O 	0.85347 0.63164 0.57230 -0.71000
O 	O 	0.87277 0.64902 0.48034 -0.38000
O 	O 	0.83552 0.60508 0.65935 -0.36700
O 	O 	0.88732 0.59788 0.64392 -0.41100
Ni	Ni	0.89572 0.61449 0.57998 1.06300
H 	H 	0.85951 0.70266 0.61155 0.15500
H 	H 	0.83952 0.61628 0.55746 0.15300
C 	C 	0.78000 0.64818 0.56680 0.26800
O 	O 	0.91428 0.65376 0.60874 -0.41300
C 	C 	0.83020 0.73109 0.50084 0.28600
C 	C 	0.79378 0.68851 0.68304 0.27900
C 	C 	0.91772 0.68009 0.58656 0.28200
C 	C 	0.86009 0.58647 0.65641 0.27100
C 	C 	0.89584 0.62835 0.48189 0.27500
O 	O 	0.79083 0.63912 0.60610 -0.36800
O 	O 	0.78024 0.69310 0.64425 -0.41300
Ni	Ni	0.05727 0.11145 0.78601 1.09800
O 	O 	0.03733 0.09555 0.84433 -0.69800
Ni	Ni	0.07636 0.07971 0.87518 1.09600
O 	O 	0.01679 0.11418 0.74969 -0.36700
O 	O 	0.98373 0.08088 0.78567 -0.40600
O 	O 	0.04972 0.15727 0.80489 -0.36700
Ni	Ni	0.00977 0.05907 0.83536 1.06500
O 	O 	0.10843 0.16251 0.77586 -0.40400
O 	O 	0.04093 0.04083 0.79097 -0.42500
O 	O 	0.05554 0.06044 0.92972 -0.38900
O 	O 	0.09556 0.09982 0.82013 -0.71200
O 	O 	0.08074 0.12810 0.73199 -0.38000
O 	O 	0.11971 0.07170 0.90248 -0.36800
O 	O 	0.13325 0.12345 0.89589 -0.41300
Ni	Ni	0.11745 0.13908 0.83415 1.06300
H 	H 	0.02675 0.11203 0.86203 0.15400
H 	H 	0.10909 0.08526 0.80307 0.15400
C 	C 	0.06874 0.03078 0.80348 0.26600
O 	O 	0.08073 0.15987 0.86632 -0.41400
C 	C 	0.99582 0.09163 0.74841 0.28500
C 	C 	0.03244 0.04041 0.92503 0.28100
C 	C 	0.05504 0.16778 0.84518 0.28200
C 	C 	0.14106 0.09400 0.90384 0.27200
C 	C 	0.10360 0.14880 0.73679 0.27400
O 	O 	0.07916 0.03625 0.84426 -0.36900
O 	O 	0.02491 0.03012 0.88511 -0.41200
Ni	Ni	0.91264 0.88929 0.14937 1.09700
O 	O 	0.88777 0.86822 0.19923 -0.70700
Ni	Ni	0.92218 0.85711 0.24225 1.09700
O 	O 	0.87430 0.89408 0.10843 -0.36500
O 	O 	0.86015 0.84270 0.11481 -0.41100
O 	O 	0.90088 0.93388 0.17189 -0.36900
Ni	Ni	0.86969 0.82806 0.17931 1.06200
O 	O 	0.96234 0.94186 0.15320 -0.41200
O 	O 	0.91075 0.81103 0.15388 -0.41300
O 	O 	0.89407 0.83673 0.28899 -0.37800
O 	O 	0.94751 0.87708 0.19167 -0.70300
O 	O 	0.94013 0.90909 0.10195 -0.38300
O 	O 	0.95997 0.85216 0.28406 -0.36200
O 	O 	0.97887 0.90194 0.27480 -0.41000
Ni	Ni	0.96778 0.91633 0.21057 1.06300
H 	H 	0.87188 0.88215 0.21291 0.15300
H 	H 	0.96265 0.86254 0.17756 0.15000
C 	C 	0.93420 0.80334 0.17974 0.28200
O 	O 	0.92742 0.93253 0.23757 -0.42400
C 	C 	0.85322 0.87178 0.10403 0.27700
C 	C 	0.87390 0.81464 0.27742 0.27500
C 	C 	0.90490 0.94394 0.21297 0.28300
C 	C 	0.98305 0.87257 0.28716 0.27500
C 	C 	0.96189 0.92956 0.11279 0.27700
O 	O 	0.93467 0.81271 0.22130 -0.36700
O 	O 	0.87469 0.80275 0.23675 -0.40900
Ni	Ni	0.13001 0.80321 0.54819 1.10100
O 	O 	0.14405 0.78067 0.60543 -0.70000
Ni	Ni	0.15081 0.81906 0.64388 1.09700
O 	O 	0.14226 0.76855 0.50438 -0.37500
O 	O 	0.16938 0.73206 0.54455 -0.40700
O 	O 	0.08594 0.78414 0.55532 -0.37400
Ni	Ni	0.18456 0.75989 0.59755 1.06700
O 	O 	0.07090 0.84461 0.53652 -0.40500
O 	O 	0.19775 0.79732 0.55957 -0.41900
O 	O 	0.17134 0.79763 0.69712 -0.38800
O 	O 	0.13058 0.83936 0.58984 -0.71300
O 	O 	0.11351 0.82833 0.49566 -0.37800
O 	O 	0.14806 0.86056 0.67853 -0.36900
O 	O 	0.09525 0.86374 0.66636 -0.41100
Ni	Ni	0.08731 0.85187 0.59992 1.06400
H 	H 	0.12829 0.76626 0.61835 0.15300
H 	H 	0.14306 0.85701 0.57769 0.15500
C 	C 	0.20400 0.82498 0.57758 0.26100
O 	O 	0.07275 0.80852 0.62045 -0.41600
C 	C 	0.14704 0.73924 0.51603 0.29300
C 	C 	0.19542 0.77900 0.69094 0.28000
C 	C 	0.06985 0.78483 0.59265 0.28400
C 	C 	0.12160 0.87646 0.68064 0.26900
C 	C 	0.08802 0.84575 0.49965 0.27400
O 	O 	0.19412 0.83203 0.61834 -0.36600
O 	O 	0.20815 0.77691 0.65122 -0.41400
Ni	Ni	0.34362 0.64476 0.90740 1.09700
O 	O 	0.36208 0.61798 0.95689 -0.71500
Ni	Ni	0.37090 0.65061 0.00239 1.10300
O 	O 	0.33757 0.60590 0.86817 -0.36900
O 	O 	0.38944 0.59340 0.87407 -0.41400
O 	O 	0.29970 0.63755 0.93483 -0.36900
Ni	Ni	0.40209 0.59922 0.94068 1.06100
O 	O 	0.29357 0.69637 0.90988 -0.41400
O 	O 	0.42323 0.64079 0.92314 -0.41500
O 	O 	0.38507 0.61956 0.04982 -0.37600
O 	O 	0.35816 0.67871 0.94938 -0.70100
O 	O 	0.32512 0.67263 0.85898 -0.38900
O 	O 	0.36893 0.68345 0.05299 -0.36300
O 	O 	0.34697 0.72451 0.01483 -0.41300
Ni	Ni	0.32182 0.70462 0.96326 1.06600
H 	H 	0.34730 0.60193 0.96827 0.15400
H 	H 	0.37536 0.69135 0.93647 0.15700
C 	C 	0.43053 0.66213 0.95303 0.28200
O 	O 	0.30380 0.66782 0.99801 -0.43300
C 	C 	0.36079 0.58619 0.86117 0.27100
C 	C 	0.40778 0.59918 0.04142 0.27300
C 	C 	0.29268 0.64283 0.97719 0.26600
C 	C 	0.35357 0.71039 0.05251 0.29200
C 	C 	0.30439 0.69430 0.86898 0.28200
O 	O 	0.41714 0.66182 0.99234 -0.37200
O 	O 	0.42264 0.59973 0.00249 -0.40400
Ni	Ni	0.16010 0.32472 0.39104 1.10200
O 	O 	0.13351 0.34403 0.44056 -0.70400
Ni	Ni	0.11861 0.30524 0.47109 1.09900
O 	O 	0.15778 0.36371 0.35064 -0.37100
O 	O 	0.10455 0.36395 0.35691 -0.41500
O 	O 	0.20056 0.34224 0.41961 -0.36700
Ni	Ni	0.09621 0.36836 0.42468 1.06900
O 	O 	0.21673 0.28000 0.40277 -0.40900
O 	O 	0.05855 0.33780 0.42296 -0.39600
O 	O 	0.08440 0.32467 0.51059 -0.37900
O 	O 	0.15017 0.28669 0.42774 -0.70400
O 	O 	0.18770 0.30219 0.34648 -0.37600
O 	O 	0.11325 0.26239 0.50129 -0.37200
O 	O 	0.16588 0.25874 0.51582 -0.41300
Ni	Ni	0.18795 0.27164 0.45627 1.06400
H 	H 	0.14648 0.35641 0.46148 0.15500
H 	H 	0.14099 0.26994 0.40892 0.15600
C 	C 	0.06039 0.30707 0.41819 0.30800
O 	O 	0.19651 0.31428 0.48415 -0.42400
C 	C 	0.13038 0.37541 0.33934 0.27000
C 	C 	0.08290 0.35505 0.52043 0.28100
C 	C 	0.20898 0.33721 0.46116 0.28700
C 	C 	0.13719 0.24707 0.51861 0.26700
C 	C 	0.20707 0.28013 0.36071 0.27000
O 	O 	0.08698 0.29247 0.42379 -0.40600
O 	O 	0.08731 0.37717 0.48984 -0.41400
Ni	Ni	0.36150 0.17857 0.04892 1.09800
O 	O 	0.32645 0.18671 0.09277 -0.70400
Ni	Ni	0.32672 0.14596 0.12639 1.10200
O 	O 	0.35410 0.22199 0.02246 -0.38100
O 	O 	0.30265 0.21266 0.00408 -0.40100
O 	O 	0.38898 0.19769 0.09707 -0.40700
Ni	Ni	0.28629 0.19347 0.06448 1.06500
O 	O 	0.41066 0.11901 0.02631 -0.40800
O 	O 	0.28884 0.15060 0.03435 -0.42200
O 	O 	0.29423 0.15860 0.17198 -0.37400
O 	O 	0.35763 0.13622 0.07653 -0.70500
O 	O 	0.39967 0.17106 0.00875 -0.38300
O 	O 	0.33950 0.10772 0.16411 -0.37400
O 	O 	0.39085 0.12257 0.16007 -0.41600
Ni	Ni	0.40011 0.12274 0.09210 1.06900
H 	H 	0.33125 0.20443 0.11303 0.15800
H 	H 	0.34853 0.12146 0.05460 0.15700
C 	C 	0.28146 0.12476 0.05551 0.28600
O 	O 	0.42854 0.16184 0.09679 -0.39500
C 	C 	0.32970 0.22723 0.99690 0.26200
C 	C 	0.27121 0.17735 0.15943 0.26900
C 	C 	0.41868 0.19107 0.10021 0.30800
C 	C 	0.36882 0.10436 0.17699 0.26200
C 	C 	0.41029 0.14281 0.99755 0.27000
O 	O 	0.29229 0.11937 0.09584 -0.36900
O 	O 	0.26093 0.17680 0.11766 -0.40700
Ni	Ni	0.54738 0.60076 0.30816 1.09900
O 	O 	0.52963 0.58496 0.36788 -0.69700
Ni	Ni	0.57056 0.57569 0.39987 1.09600
O 	O 	0.50802 0.59574 0.26924 -0.36500
O 	O 	0.47803 0.56325 0.31199 -0.41200
O 	O 	0.53269 0.64592 0.32151 -0.36700
Ni	Ni	0.50775 0.54482 0.35992 1.06800
O 	O 	0.59167 0.65727 0.29334 -0.40400
O 	O 	0.54169 0.53127 0.31615 -0.42600
O 	O 	0.55248 0.55430 0.45508 -0.38600
O 	O 	0.58675 0.59668 0.34354 -0.70900
O 	O 	0.56876 0.61778 0.25287 -0.37600
O 	O 	0.61468 0.57572 0.42773 -0.36600
O 	O 	0.61886 0.62881 0.41791 -0.41300
Ni	Ni	0.60243 0.63919 0.35450 1.06400
H 	H 	0.51668 0.60053 0.38401 0.15800
H 	H 	0.60254 0.58383 0.32767 0.15400
C 	C 	0.57045 0.52508 0.32957 0.26400
O 	O 	0.56220 0.65515 0.38321 -0.41600
C 	C 	0.48710 0.57312 0.27263 0.28900
C 	C 	0.53130 0.53232 0.44966 0.29000
C 	C 	0.53678 0.66025 0.35979 0.28300
C 	C 	0.63175 0.60157 0.42767 0.27100
C 	C 	0.59002 0.64011 0.25664 0.27500
O 	O 	0.57975 0.53257 0.37033 -0.36500
O 	O 	0.52720 0.51981 0.41023 -0.41100
Ni	Ni	0.40598 0.39192 0.65875 1.10200
O 	O 	0.39035 0.35650 0.69899 -0.70400
Ni	Ni	0.43021 0.34430 0.72867 1.09900
O 	O 	0.36947 0.38822 0.61462 -0.37400
O 	O 	0.37815 0.33537 0.60784 -0.41600
O 	O 	0.38060 0.42469 0.69442 -0.37100
Ni	Ni	0.37303 0.31826 0.67231 1.06800
O 	O 	0.44006 0.45294 0.68886 -0.40700
O 	O 	0.40936 0.28650 0.66455 -0.39500
O 	O 	0.41623 0.30260 0.75693 -0.38300
O 	O 	0.44397 0.38382 0.69600 -0.70400
O 	O 	0.42437 0.42846 0.62425 -0.37500
O 	O 	0.47231 0.34231 0.76105 -0.37800
O 	O 	0.46472 0.39168 0.78956 -0.41300
Ni	Ni	0.45103 0.41920 0.73526 1.06500
H 	H 	0.37561 0.36452 0.72171 0.15600
H 	H 	0.46253 0.38018 0.67694 0.15700
C 	C 	0.43928 0.29384 0.66291 0.30700
O 	O 	0.40674 0.41677 0.75939 -0.42500
C 	C 	0.36349 0.36115 0.59507 0.26500
C 	C 	0.38651 0.29536 0.76441 0.28000
C 	C 	0.38334 0.42916 0.73755 0.28900
C 	C 	0.48172 0.36574 0.78652 0.26800
C 	C 	0.44269 0.44873 0.64522 0.27000
O 	O 	0.44879 0.32169 0.67519 -0.40700
O 	O 	0.36450 0.30028 0.73392 -0.41200
Ni	Ni	0.83066 0.14944 0.39265 1.10200
O 	O 	0.85889 0.13348 0.44285 -0.70300
Ni	Ni	0.87046 0.17414 0.47144 1.09800
O 	O 	0.83552 0.10964 0.35433 -0.36900
O 	O 	0.88862 0.11265 0.36054 -0.41500
O 	O 	0.79188 0.12938 0.42230 -0.36700
Ni	Ni	0.89812 0.11183 0.42832 1.06900
O 	O 	0.77057 0.18937 0.40330 -0.40800
O 	O 	0.93305 0.14549 0.42363 -0.39400
O 	O 	0.90617 0.15860 0.51147 -0.38100
O 	O 	0.83744 0.18898 0.42762 -0.70400
O 	O 	0.80110 0.16862 0.34749 -0.37400
O 	O 	0.87210 0.21795 0.49966 -0.37500
O 	O 	0.81949 0.21695 0.51543 -0.41300
Ni	Ni	0.79868 0.20125 0.45621 1.06400
H 	H 	0.84700 0.12061 0.46444 0.15400
H 	H 	0.84508 0.20608 0.40806 0.15700
C 	C 	0.92855 0.17593 0.41843 0.30800
O 	O 	0.79396 0.15859 0.48585 -0.42400
C 	C 	0.86349 0.09848 0.34493 0.27200
C 	C 	0.90921 0.12879 0.52354 0.27900
C 	C 	0.78365 0.13410 0.46393 0.28800
C 	C 	0.84722 0.23080 0.51827 0.26800
C 	C 	0.78009 0.18931 0.36117 0.26900
O 	O 	0.90074 0.18815 0.42315 -0.40700
O 	O 	0.90807 0.10561 0.49391 -0.41200
Ni	Ni	0.61887 0.30941 0.05902 1.09900
O 	O 	0.65343 0.29426 0.10033 -0.70400
Ni	Ni	0.66146 0.33365 0.13514 1.10100
O 	O 	0.61621 0.26592 0.02999 -0.37400
O 	O 	0.66831 0.26705 0.01144 -0.41200
O 	O 	0.59014 0.29458 0.10892 -0.40400
Ni	Ni	0.69117 0.28180 0.06951 1.06400
O 	O 	0.58181 0.37821 0.04075 -0.41300
O 	O 	0.69515 0.32481 0.04008 -0.42200
O 	O 	0.69239 0.31442 0.17835 -0.37500
O 	O 	0.63157 0.34981 0.08738 -0.70500
O 	O 	0.58164 0.32531 0.02208 -0.38200
O 	O 	0.65687 0.37286 0.17475 -0.37200
O 	O 	0.60358 0.36802 0.17301 -0.41500
Ni	Ni	0.59294 0.37102 0.10565 1.06900
H 	H 	0.64635 0.27717 0.12032 0.15600
H 	H 	0.64265 0.36293 0.06520 0.15700
C 	C 	0.70681 0.34891 0.06142 0.28900
O 	O 	0.55824 0.33752 0.10989 -0.39600
C 	C 	0.64059 0.25311 0.01004 0.27200
C 	C 	0.71245 0.29323 0.16342 0.27000
C 	C 	0.56288 0.30731 0.11670 0.30700
C 	C 	0.62899 0.38148 0.18900 0.26600
C 	C 	0.57759 0.35530 0.01121 0.28400
O 	O 	0.69920 0.35424 0.10321 -0.36800
O 	O 	0.72091 0.29311 0.12084 -0.40900
Ni	Ni	0.08552 0.58328 0.15217 1.09600
O 	O 	0.10267 0.60234 0.20937 -0.71000
Ni	Ni	0.06318 0.61143 0.24238 1.09900
O 	O 	0.12979 0.57832 0.12597 -0.36600
O 	O 	0.14049 0.63031 0.13717 -0.41100
O 	O 	0.08994 0.53925 0.18118 -0.36700
Ni	Ni	0.12385 0.64252 0.19984 1.06300
O 	O 	0.03705 0.53143 0.13969 -0.41300
O 	O 	0.08699 0.66354 0.16800 -0.41300
O 	O 	0.08460 0.62642 0.29888 -0.38000
O 	O 	0.04518 0.59676 0.18228 -0.69800
O 	O 	0.06648 0.56373 0.09638 -0.38600
O 	O 	0.02196 0.61175 0.27724 -0.36600
O 	O 	0.99109 0.57781 0.23870 -0.40700
Ni	Ni	0.01945 0.55867 0.18943 1.06600
H 	H 	0.11621 0.58764 0.22620 0.15300
H 	H 	0.03415 0.61339 0.16537 0.15500
C 	C 	0.06122 0.67115 0.18905 0.28400
O 	O 	0.05098 0.54156 0.23382 -0.42800
C 	C 	0.14999 0.60174 0.12715 0.27000
C 	C 	0.10772 0.64695 0.29687 0.27600
C 	C 	0.07902 0.53216 0.22122 0.26700
C 	C 	0.00172 0.58853 0.27683 0.28500
C 	C 	0.04420 0.54261 0.10020 0.28100
O 	O 	0.05418 0.65778 0.22710 -0.36600
O 	O 	0.11307 0.66284 0.25969 -0.40600
Ni	Ni	0.92658 0.36836 0.78134 1.10000
O 	O 	0.95115 0.38399 0.83612 -0.70000
Ni	Ni	0.91452 0.39441 0.87608 1.09600
O 	O 	0.96132 0.37233 0.73428 -0.36600
O 	O 	0.99672 0.40318 0.77076 -0.41300
O 	O 	0.94144 0.32319 0.79312 -0.36800
Ni	Ni	0.97325 0.42331 0.82403 1.06600
O 	O 	0.88088 0.31162 0.77761 -0.40200
O 	O 	0.93554 0.43812 0.78804 -0.42900
O 	O 	0.93864 0.41501 0.92679 -0.38800
O 	O 	0.89175 0.37379 0.82451 -0.71300
O 	O 	0.89895 0.35122 0.73197 -0.38000
O 	O 	0.87402 0.39572 0.91266 -0.37000
O 	O 	0.86791 0.34240 0.90648 -0.41300
Ni	Ni	0.87659 0.33172 0.83966 1.06200
H 	H 	0.96522 0.36825 0.84981 0.15500
H 	H 	0.87480 0.38704 0.81210 0.15500
C 	C 	0.90918 0.44634 0.80776 0.26600
O 	O 	0.91872 0.31424 0.86040 -0.41300
C 	C 	0.98344 0.39391 0.73356 0.29000
C 	C 	0.95909 0.43725 0.91829 0.28000
C 	C 	0.94239 0.31078 0.83302 0.28300
C 	C 	0.85791 0.36996 0.92098 0.26700
C 	C 	0.88027 0.32689 0.73894 0.27400
O 	O 	0.90352 0.43802 0.84952 -0.36900
O 	O 	0.96075 0.44934 0.87805 -0.41400
C 	C 	0.03235 0.52645 0.06023 -0.07800
C 	C 	0.02778 0.54325 0.02054 0.00700
C 	C 	0.01320 0.52886 0.98417 -0.06500
C 	C 	0.00296 0.49753 0.98720 0.00700
C 	C 	0.00836 0.48028 0.02663 0.01400
C 	C 	0.02331 0.49471 0.06275 -0.02100
C 	C 	0.99813 0.44901 0.02978 -0.05200
C 	C 	0.98215 0.43508 0.99441 -0.00400
C 	C 	0.97621 0.45220 0.95533 -0.07900
C 	C 	0.98694 0.48339 0.95164 -0.02300
H 	H 	0.03474 0.56771 0.01825 0.03000
H 	H 	0.00942 0.54224 0.95396 0.04000
H 	H 	0.02744 0.48146 0.09303 0.04400
H 	H 	0.00236 0.43551 0.05979 0.04000
H 	H 	0.97447 0.41087 0.99731 0.03200
H 	H 	0.98244 0.49672 0.92154 0.04100
C 	C 	0.73280 0.36620 0.04110 -0.08000
C 	C 	0.72715 0.38506 0.00364 0.02000
C 	C 	0.75168 0.39297 0.97490 -0.07000
C 	C 	0.78197 0.38148 0.98292 0.01400
C 	C 	0.78814 0.36441 0.02235 0.01200
C 	C 	0.76360 0.35770 0.05192 -0.01800
C 	C 	0.81816 0.35212 0.02986 -0.04900
C 	C 	0.84128 0.35490 0.99723 -0.00900
C 	C 	0.83484 0.37053 0.95715 -0.06600
C 	C 	0.80561 0.38488 0.95073 -0.02900
H 	H 	0.70346 0.39206 0.99540 0.01500
H 	H 	0.74679 0.40664 0.94527 0.04100
H 	H 	0.76797 0.34342 0.08121 0.04300
H 	H 	0.82327 0.33940 0.06025 0.04000
H 	H 	0.86404 0.34433 0.00269 0.04000
H 	H 	0.80082 0.39731 0.91995 0.03200
C 	C 	0.86624 0.31093 0.69992 -0.06800
C 	C 	0.84142 0.28963 0.70575 0.00100
C 	C 	0.83080 0.27140 0.67005 -0.05800
C 	C 	0.84494 0.27419 0.62807 0.01200
C 	C 	0.86890 0.29662 0.62145 0.01400
C 	C 	0.87925 0.31511 0.65729 -0.02000
C 	C 	0.88315 0.29932 0.57955 -0.05700
C 	C 	0.87486 0.27881 0.54515 0.00300
C 	C 	0.85204 0.25554 0.55206 -0.07200
C 	C 	0.83637 0.25393 0.59316 -0.02300
H 	H 	0.83072 0.28674 0.73817 0.01900
H 	H 	0.81205 0.25462 0.67533 0.03700
H 	H 	0.89820 0.33173 0.65241 0.05200
H 	H 	0.90124 0.31676 0.57392 0.04500
H 	H 	0.88674 0.28052 0.51339 0.03300
H 	H 	0.81866 0.23605 0.59860 0.04000
C 	C 	0.76272 0.20777 0.32786 -0.07600
C 	C 	0.73139 0.21626 0.33546 0.00100
C 	C 	0.71527 0.23459 0.30444 -0.06000
C 	C 	0.73030 0.24467 0.26547 0.01100
C 	C 	0.76173 0.23602 0.25746 0.01200
C 	C 	0.77779 0.21758 0.28870 -0.02400
C 	C 	0.77673 0.24610 0.21843 -0.06000
C 	C 	0.76069 0.26476 0.18766 0.00200
C 	C 	0.72949 0.27356 0.19562 -0.07800
C 	C 	0.71433 0.26337 0.23448 -0.02300
H 	H 	0.71945 0.20855 0.36533 0.03200
H 	H 	0.69111 0.24099 0.31079 0.03900
H 	H 	0.80206 0.21125 0.28292 0.03700
H 	H 	0.80085 0.23959 0.21197 0.04000
H 	H 	0.77263 0.27263 0.15788 0.03200
H 	H 	0.69011 0.26985 0.24041 0.03500
C 	C 	0.50577 0.35962 0.82087 -0.07300
C 	C 	0.51640 0.32878 0.82879 0.00300
C 	C 	0.53463 0.32214 0.86622 -0.05800
C 	C 	0.54238 0.34619 0.89623 0.01300
C 	C 	0.53351 0.37752 0.88689 0.01100
C 	C 	0.51583 0.38417 0.84875 -0.02400
C 	C 	0.54125 0.40158 0.91683 -0.06000
C 	C 	0.55628 0.39444 0.95682 0.00300
C 	C 	0.56392 0.36311 0.96732 -0.07800
C 	C 	0.55784 0.33916 0.93618 -0.02200
H 	H 	0.50972 0.30975 0.80679 0.04300
H 	H 	0.54194 0.29812 0.87253 0.04500
H 	H 	0.50884 0.40821 0.84176 0.03000
H 	H 	0.53500 0.42578 0.90963 0.03600
H 	H 	0.56154 0.41327 0.97991 0.03000
H 	H 	0.56446 0.31506 0.94343 0.04700
C 	C 	0.59007 0.50445 0.30203 -0.07100
C 	C 	0.59771 0.51359 0.25853 -0.00200
C 	C 	0.61043 0.49182 0.22871 -0.05800
C 	C 	0.61510 0.46049 0.24191 0.01100
C 	C 	0.60889 0.45154 0.28635 0.01400
C 	C 	0.59688 0.47379 0.31646 -0.02000
C 	C 	0.61293 0.42005 0.29928 -0.05900
C 	C 	0.62122 0.39731 0.26776 0.00800
C 	C 	0.62607 0.40589 0.22325 -0.07400
C 	C 	0.62406 0.43761 0.21067 -0.02400
H 	H 	0.59276 0.53732 0.24734 0.01700
H 	H 	0.61554 0.49905 0.19492 0.03800
H 	H 	0.59105 0.46678 0.35016 0.04700
H 	H 	0.60861 0.41298 0.33337 0.04400
H 	H 	0.62294 0.37286 0.27768 0.03000
H 	H 	0.62795 0.44419 0.17624 0.02100
C 	C 	0.50967 0.52433 0.48584 -0.09500
C 	C 	0.47748 0.52223 0.47699 0.01100
C 	C 	0.45709 0.51002 0.50884 -0.06500
C 	C 	0.46872 0.49954 0.54981 0.01700
C 	C 	0.50084 0.50338 0.55999 0.00700
C 	C 	0.52118 0.51610 0.52797 -0.00900
C 	C 	0.51239 0.49285 0.60108 -0.05700
C 	C 	0.49271 0.47672 0.63045 -0.00100
C 	C 	0.46136 0.47100 0.61901 -0.07500
C 	C 	0.44909 0.48365 0.57964 -0.01900
H 	H 	0.46837 0.52933 0.44488 -0.01100
H 	H 	0.43241 0.50780 0.50108 0.04200
H 	H 	0.54601 0.51815 0.53498 0.04100
H 	H 	0.53681 0.49620 0.60966 0.03900
H 	H 	0.50219 0.46741 0.66118 0.00600
H 	H 	0.42463 0.47997 0.57140 0.04800
C 	C 	0.53613 0.28661 0.12656 -0.07700
C 	C 	0.54036 0.26019 0.15402 0.00900
C 	C 	0.51751 0.23667 0.15594 -0.05900
C 	C 	0.49022 0.23923 0.13024 0.01400
C 	C 	0.48513 0.26654 0.10434 0.01400
C 	C 	0.50797 0.29029 0.10308 -0.01500
C 	C 	0.45790 0.26915 0.07859 -0.05600
C 	C 	0.43625 0.24456 0.07760 0.00800
C 	C 	0.44146 0.21705 0.10245 -0.07600
C 	C 	0.46833 0.21452 0.12910 -0.01600
H 	H 	0.56185 0.25739 0.17275 0.02900
H 	H 	0.52144 0.21610 0.17652 0.04100
H 	H 	0.50463 0.31071 0.08193 0.04700
H 	H 	0.45370 0.29003 0.05877 0.04600
H 	H 	0.41561 0.24666 0.05685 0.04200
H 	H 	0.47222 0.19344 0.14869 0.03900
C 	C 	0.33502 0.24222 0.95343 -0.06900
C 	C 	0.31313 0.26352 0.93597 0.00100
C 	C 	0.31826 0.27751 0.89442 -0.05800
C 	C 	0.34525 0.27009 0.86982 0.01100
C 	C 	0.36701 0.24817 0.88699 0.01500
C 	C 	0.36180 0.23441 0.92869 -0.02500
C 	C 	0.39385 0.24050 0.86241 -0.05900
C 	C 	0.39959 0.25516 0.82168 0.00600
C 	C 	0.37856 0.27763 0.80494 -0.07300
C 	C 	0.35107 0.28464 0.82865 -0.02300
H 	H 	0.29229 0.26945 0.95473 0.02300
H 	H 	0.30133 0.29416 0.88151 0.03800
H 	H 	0.37842 0.21744 0.94177 0.04200
H 	H 	0.41047 0.22342 0.87506 0.04400
H 	H 	0.42060 0.24927 0.80328 0.04100
H 	H 	0.33479 0.30197 0.81573 0.03400
C 	C 	0.03168 0.28834 0.41080 -0.07600
C 	C 	0.00216 0.30107 0.42096 0.00800
C 	C 	0.97564 0.28181 0.42158 -0.05700
C 	C 	0.97834 0.24954 0.41238 0.01500
C 	C 	0.00762 0.23688 0.40001 0.01300
C 	C 	0.03405 0.25646 0.39847 -0.01600
C 	C 	0.01033 0.20454 0.39111 -0.05800
C 	C 	0.98443 0.18471 0.39611 0.00900
C 	C 	0.95545 0.19702 0.40981 -0.07500
C 	C 	0.95237 0.22962 0.41695 -0.01700
H 	H 	0.99989 0.32565 0.42993 0.03800
H 	H 	0.95316 0.29184 0.43047 0.04200
H 	H 	0.05662 0.24669 0.38930 0.04100
H 	H 	0.03264 0.19465 0.38110 0.04000
H 	H 	0.98699 0.15977 0.38967 0.03500
H 	H 	0.93004 0.23933 0.42735 0.04600
C 	C 	0.34016 0.35956 0.55909 -0.07600
C 	C 	0.34475 0.33902 0.52311 0.00000
C 	C 	0.32083 0.33404 0.49219 -0.05900
C 	C 	0.29185 0.34913 0.49740 0.01000
C 	C 	0.28762 0.37103 0.53230 0.01400
C 	C 	0.31205 0.37654 0.56257 -0.02600
C 	C 	0.25834 0.38545 0.53821 -0.06100
C 	C 	0.23284 0.37630 0.51205 0.00600
C 	C 	0.23655 0.35322 0.47914 -0.07600
C 	C 	0.26638 0.34093 0.47028 -0.02000
H 	H 	0.36666 0.32639 0.51961 0.03400
H 	H 	0.32449 0.31760 0.46513 0.04000
H 	H 	0.30859 0.39265 0.59014 0.04100
H 	H 	0.25495 0.40268 0.56436 0.04100
H 	H 	0.20989 0.38606 0.51876 0.02100
H 	H 	0.26922 0.32325 0.44454 0.04000
C 	C 	0.22327 0.26034 0.32778 -0.07600
C 	C 	0.25448 0.25115 0.33468 0.00200
C 	C 	0.26989 0.23263 0.30317 -0.06000
C 	C 	0.25427 0.22309 0.26439 0.01200
C 	C 	0.22283 0.23209 0.25738 0.01100
C 	C 	0.20745 0.25065 0.28916 -0.02300
C 	C 	0.20724 0.22252 0.21854 -0.06000
C 	C 	0.22286 0.20438 0.18671 -0.00000
C 	C 	0.25421 0.19556 0.19343 -0.07900
C 	C 	0.26979 0.20490 0.23240 -0.02300
H 	H 	0.26694 0.25866 0.36422 0.03300
H 	H 	0.29402 0.22584 0.30885 0.04100
H 	H 	0.18323 0.25746 0.28402 0.03600
H 	H 	0.18307 0.22920 0.21291 0.04000
H 	H 	0.21054 0.19712 0.15694 0.03100
H 	H 	0.29410 0.19840 0.23746 0.03800
C 	C 	0.00188 0.39643 0.69265 -0.07500
C 	C 	0.98856 0.40991 0.65452 0.00600
C 	C 	0.00343 0.40694 0.61329 -0.05900
C 	C 	0.03138 0.38973 0.60971 0.01400
C 	C 	0.04536 0.37697 0.64834 0.01200
C 	C 	0.03084 0.38099 0.68977 -0.01400
C 	C 	0.07268 0.35883 0.64466 -0.05600
C 	C 	0.08529 0.35225 0.60283 0.00500
C 	C 	0.07115 0.36431 0.56434 -0.07200
C 	C 	0.04469 0.38374 0.56787 -0.01700
H 	H 	0.96621 0.42191 0.65661 0.02400
H 	H 	0.99265 0.41707 0.58397 0.04000
H 	H 	0.04105 0.37050 0.71931 0.04100
H 	H 	0.08369 0.34910 0.67410 0.04200
H 	H 	0.10589 0.33747 0.60026 0.02600
H 	H 	0.03378 0.39304 0.53805 0.03800
C 	C 	0.09552 0.50878 0.24868 -0.07200
C 	C 	0.09602 0.51231 0.29510 -0.00200
C 	C 	0.10576 0.48752 0.32228 -0.05700
C 	C 	0.11492 0.45880 0.30333 0.00800
C 	C 	0.11628 0.45570 0.25654 0.01600
C 	C 	0.10686 0.48090 0.22936 -0.02200
C 	C 	0.12543 0.42690 0.23765 -0.06000
C 	C 	0.13157 0.40094 0.26495 0.01100
C 	C 	0.12871 0.40357 0.31127 -0.07900
C 	C 	0.12126 0.43269 0.33046 -0.02000
H 	H 	0.08781 0.53396 0.31019 0.02200
H 	H 	0.10521 0.49034 0.35810 0.03600
H 	H 	0.10669 0.47821 0.19348 0.04900
H 	H 	0.12698 0.42435 0.20185 0.04400
H 	H 	0.13759 0.37854 0.25001 0.03100
H 	H 	0.11935 0.43470 0.36635 0.00700
C 	C 	0.26677 0.62511 0.99788 -0.07900
C 	C 	0.24113 0.61538 0.97200 0.00700
C 	C 	0.21391 0.60418 0.99244 -0.06600
C 	C 	0.21198 0.60274 0.03899 0.02100
C 	C 	0.23853 0.61026 0.06500 0.00900
C 	C 	0.26594 0.62111 0.04423 -0.01700
C 	C 	0.23657 0.60892 0.11154 -0.05700
C 	C 	0.20783 0.60299 0.13211 -0.00200
C 	C 	0.18086 0.59797 0.10643 -0.07000
C 	C 	0.18331 0.59614 0.05995 -0.01900
H 	H 	0.24171 0.61786 0.93615 0.04200
H 	H 	0.19393 0.59783 0.97212 0.04400
H 	H 	0.28604 0.62780 0.06419 0.03300
H 	H 	0.25696 0.61390 0.13182 0.03800
H 	H 	0.20616 0.60399 0.16805 0.01000
H 	H 	0.16250 0.59192 0.04012 0.04500
C 	C 	0.42331 0.58342 0.07953 -0.06700
C 	C 	0.45365 0.57092 0.07460 0.00200
C 	C 	0.47123 0.56261 0.11198 -0.05600
C 	C 	0.45866 0.56642 0.15471 0.01400
C 	C 	0.42717 0.57599 0.15971 0.01600
C 	C 	0.40946 0.58404 0.12199 -0.02200
C 	C 	0.41448 0.57935 0.20250 -0.05800
C 	C 	0.43359 0.57583 0.23993 0.00800
C 	C 	0.46556 0.56882 0.23494 -0.07200
C 	C 	0.47767 0.56270 0.19245 -0.01900
H 	H 	0.46416 0.56888 0.04195 0.03300
H 	H 	0.49503 0.55427 0.10772 0.04100
H 	H 	0.38555 0.59218 0.12587 0.04500
H 	H 	0.39015 0.58595 0.20679 0.04200
H 	H 	0.42394 0.58023 0.27268 0.03300
H 	H 	0.50223 0.55673 0.18866 0.03700
C 	C 	0.36484 0.45383 0.75916 -0.07900
C 	C 	0.35313 0.44877 0.80219 0.00400
C 	C 	0.34555 0.47432 0.82939 -0.06100
C 	C 	0.35013 0.50512 0.81396 0.01100
C 	C 	0.35902 0.51023 0.76921 0.01300
C 	C 	0.36538 0.48441 0.74161 -0.02100
C 	C 	0.36432 0.54099 0.75402 -0.06000
C 	C 	0.36337 0.56617 0.78383 0.00900
C 	C 	0.35656 0.56088 0.82883 -0.07400
C 	C 	0.34854 0.53065 0.84345 -0.02500
H 	H 	0.35181 0.42512 0.81551 0.02600
H 	H 	0.33784 0.47013 0.86322 0.03800
H 	H 	0.37377 0.48825 0.70797 0.05000
H 	H 	0.37057 0.54524 0.71959 0.04400
H 	H 	0.36899 0.58966 0.77229 0.03300
H 	H 	0.34277 0.52677 0.87818 0.02200
C 	C 	0.13679 0.71483 0.48497 -0.07400
C 	C 	0.10522 0.70588 0.48386 0.00500
C 	C 	0.09376 0.68789 0.44853 -0.05600
C 	C 	0.11366 0.67945 0.41333 0.01500
C 	C 	0.14576 0.68746 0.41516 0.01200
C 	C 	0.15729 0.70454 0.45155 -0.01400
C 	C 	0.16545 0.67998 0.37932 -0.05800
C 	C 	0.15310 0.66603 0.34108 0.00100
C 	C 	0.12109 0.65882 0.33863 -0.07200
C 	C 	0.10158 0.66471 0.37529 -0.01700
H 	H 	0.08929 0.71388 0.50951 0.03200
H 	H 	0.06918 0.68161 0.44769 0.04700
H 	H 	0.18172 0.71152 0.45251 0.03900
H 	H 	0.19015 0.68577 0.38054 0.03900
H 	H 	0.16834 0.66115 0.31310 0.01200
H 	H 	0.07683 0.65911 0.37341 0.05200
C 	C 	0.28883 0.71176 0.83287 -0.07900
C 	C 	0.30557 0.71942 0.79415 0.00300
C 	C 	0.29081 0.73516 0.75919 -0.06000
C 	C 	0.25909 0.74336 0.76245 0.01200
C 	C 	0.24220 0.73613 0.80156 0.01100
C 	C 	0.25719 0.72044 0.83669 -0.02100
C 	C 	0.21043 0.74426 0.80470 -0.05900
C 	C 	0.19536 0.75885 0.76895 0.00200
C 	C 	0.21190 0.76559 0.72969 -0.07800
C 	C 	0.24392 0.75823 0.72683 -0.02300
H 	H 	0.33008 0.71319 0.79117 0.03000
H 	H 	0.30402 0.74077 0.72944 0.04000
H 	H 	0.24415 0.71448 0.86649 0.04200
H 	H 	0.19729 0.73895 0.83462 0.04000
H 	H 	0.17066 0.76436 0.77148 0.03200
H 	H 	0.25691 0.76385 0.69687 0.04200
C 	C 	0.95552 0.77796 0.16604 -0.07400
C 	C 	0.94327 0.74915 0.15120 0.01100
C 	C 	0.96254 0.72264 0.14810 -0.05900
C 	C 	0.99433 0.72474 0.15957 0.01700
C 	C 	0.00727 0.75425 0.17111 0.01200
C 	C 	0.98774 0.78076 0.17434 -0.01600
C 	C 	0.03918 0.75646 0.18174 -0.05700
C 	C 	0.05758 0.72929 0.18397 0.01000
C 	C 	0.04423 0.69967 0.17589 -0.07200
C 	C 	0.01291 0.69751 0.16218 -0.01900
H 	H 	0.91847 0.74689 0.14434 0.03000
H 	H 	0.95251 0.70027 0.13825 0.04000
H 	H 	0.99728 0.80313 0.18526 0.02600
H 	H 	0.04951 0.77906 0.18977 0.03900
H 	H 	0.08183 0.73110 0.19423 0.02900
H 	H 	0.00270 0.67461 0.15555 0.02600
C 	C 	0.86635 0.06674 0.32615 -0.08300
C 	C 	0.86820 0.04072 0.35470 0.00200
C 	C 	0.87247 0.01051 0.33745 -0.06200
C 	C 	0.87526 0.00603 0.29138 0.01500
C 	C 	0.87245 0.03203 0.26232 0.00900
C 	C 	0.86781 0.06236 0.27992 -0.01400
C 	C 	0.87559 0.02750 0.21626 -0.05600
C 	C 	0.88361 0.99783 0.19946 0.00300
C 	C 	0.88834 0.97236 0.22852 -0.07400
C 	C 	0.88250 0.97620 0.27418 -0.02400
H 	H 	0.86671 0.04399 0.39039 -0.00100
H 	H 	0.87429 0.99069 0.35999 0.03900
H 	H 	0.86607 0.08250 0.25787 0.03700
H 	H 	0.87294 0.04714 0.19357 0.04200
H 	H 	0.88774 0.99508 0.16412 0.04300
H 	H 	0.88540 0.95637 0.29656 0.03600
C 	C 	0.00855 0.86557 0.31859 -0.07200
C 	C 	0.02385 0.83637 0.31683 0.00400
C 	C 	0.04508 0.82783 0.35012 -0.05600
C 	C 	0.05085 0.84823 0.38593 0.01500
C 	C 	0.03631 0.87809 0.38706 0.01200
C 	C 	0.01555 0.88680 0.35303 -0.02000
C 	C 	0.04151 0.89821 0.42335 -0.05800
C 	C 	0.05967 0.88813 0.45931 0.00000
C 	C 	0.07331 0.85810 0.45903 -0.06900
C 	C 	0.06969 0.83856 0.42168 -0.01700
H 	H 	0.01883 0.82003 0.29009 0.03400
H 	H 	0.05637 0.80500 0.34866 0.04700
H 	H 	0.00374 0.90938 0.35445 0.04200
H 	H 	0.03074 0.92129 0.42435 0.03800
H 	H 	0.06258 0.90341 0.48787 0.01400
H 	H 	0.08019 0.81531 0.42149 0.05200
C 	C 	0.03535 0.19325 0.86246 -0.07400
C 	C 	0.00633 0.18601 0.88178 0.00500
C 	C 	0.98313 0.20910 0.88541 -0.05800
C 	C 	0.98864 0.23956 0.86916 0.01400
C 	C 	0.01869 0.24755 0.85294 0.01300
C 	C 	0.04211 0.22442 0.85051 -0.01400
C 	C 	0.02415 0.27782 0.83610 -0.05700
C 	C 	0.99944 0.29918 0.83207 0.00600
C 	C 	0.96909 0.29067 0.84539 -0.07700
C 	C 	0.96401 0.26140 0.86586 -0.01700
H 	H 	0.00113 0.16207 0.89173 0.01100
H 	H 	0.96042 0.20288 0.89889 0.03800
H 	H 	0.06470 0.23005 0.83605 0.03900
H 	H 	0.04725 0.28442 0.82444 0.04200
H 	H 	0.00369 0.32202 0.81722 0.02500
H 	H 	0.94065 0.25493 0.87667 0.03800
C 	C 	0.97732 0.08861 0.70765 -0.07200
C 	C 	0.98773 0.06873 0.67349 0.00100
C 	C 	0.97453 0.07078 0.63102 -0.05600
C 	C 	0.95114 0.09314 0.62221 0.01300
C 	C 	0.93962 0.11220 0.65712 0.01400
C 	C 	0.95246 0.10944 0.69989 -0.01400
C 	C 	0.91664 0.13492 0.64825 -0.05600
C 	C 	0.90621 0.13974 0.60476 0.00500
C 	C 	0.91836 0.12166 0.56968 -0.07300
C 	C 	0.94020 0.09776 0.57864 -0.01800
H 	H 	0.00687 0.05252 0.67941 0.02300
H 	H 	0.98327 0.05576 0.60467 0.03900
H 	H 	0.94440 0.12472 0.72644 0.04300
H 	H 	0.90738 0.14940 0.67487 0.04400
H 	H 	0.88889 0.15779 0.59822 0.02900
H 	H 	0.94952 0.08368 0.55162 0.04000
C 	C 	0.08535 0.00828 0.77467 -0.07400
C 	C 	0.08400 0.01197 0.72828 -0.00200
C 	C 	0.09342 0.98757 0.70020 -0.05900
C 	C 	0.10436 0.95918 0.71818 0.01000
C 	C 	0.10795 0.95616 0.76475 0.01400
C 	C 	0.09864 0.98089 0.79283 -0.02200
C 	C 	0.11921 0.92782 0.78266 -0.05900
C 	C 	0.12520 0.90216 0.75479 0.00900
C 	C 	0.11995 0.90458 0.70884 -0.07300
C 	C 	0.11035 0.93331 0.69046 -0.02300
H 	H 	0.07447 0.03334 0.71400 0.02200
H 	H 	0.09128 0.99041 0.66449 0.03600
H 	H 	0.10006 0.97813 0.82864 0.04900
H 	H 	0.12252 0.92537 0.81823 0.04400
H 	H 	0.13289 0.88007 0.76909 0.03600
H 	H 	0.10664 0.93520 0.65485 0.01600
C 	C 	0.97930 0.94525 0.07672 -0.07400
C 	C 	0.98894 0.92779 0.03948 0.00100
C 	C 	0.00187 0.94293 0.00255 -0.05200
C 	C 	0.00535 0.97575 0.00239 0.01400
C 	C 	0.99673 0.99336 0.04037 0.01500
C 	C 	0.98384 0.97800 0.07747 -0.02200
C 	C 	0.00052 0.02616 0.04035 -0.06200
C 	C 	0.01231 0.04142 0.00271 0.00900
C 	C 	0.02024 0.02410 0.96458 -0.08300
C 	C 	0.01696 0.99124 0.96458 -0.02200
H 	H 	0.98590 0.90249 0.03887 0.03000
H 	H 	0.00877 0.92915 0.97383 0.03700
H 	H 	0.97641 0.99158 0.10614 0.04300
H 	H 	0.99415 0.03990 0.06936 0.04200
H 	H 	0.01494 0.06677 0.00300 0.02600
H 	H 	0.02358 0.97779 0.93538 0.04400
C 	C 	0.11744 0.16334 0.69664 -0.07100
C 	C 	0.14605 0.17953 0.69974 0.00100
C 	C 	0.15718 0.19711 0.66376 -0.05900
C 	C 	0.13985 0.19872 0.62418 0.01300
C 	C 	0.11197 0.18107 0.61994 0.01400
C 	C 	0.10100 0.16325 0.65609 -0.01900
C 	C 	0.09470 0.18258 0.58029 -0.05600
C 	C 	0.10401 0.20285 0.54614 0.00300
C 	C 	0.13072 0.22183 0.55116 -0.07100
C 	C 	0.14926 0.21882 0.58958 -0.02400
H 	H 	0.15935 0.17906 0.73042 0.01700
H 	H 	0.17892 0.21006 0.66708 0.03700
H 	H 	0.07911 0.15047 0.65326 0.05200
H 	H 	0.07361 0.16868 0.57632 0.04600
H 	H 	0.08997 0.20443 0.51620 0.03700
H 	H 	0.17010 0.23315 0.59344 0.04000
C 	C 	0.25756 0.10396 0.03620 -0.06900
C 	C 	0.23108 0.09586 0.06140 -0.00100
C 	C 	0.20331 0.08698 0.04012 -0.04800
C 	C 	0.20180 0.08641 0.99347 0.00200
C 	C 	0.22938 0.09113 0.96832 0.01800
C 	C 	0.25739 0.09890 0.99006 -0.03100
C 	C 	0.22785 0.09121 0.92171 -0.06200
C 	C 	0.19884 0.08982 0.90034 0.00100
C 	C 	0.17120 0.08758 0.92528 -0.07500
C 	C 	0.17280 0.08413 0.97166 -0.01200
H 	H 	0.23124 0.09884 0.09719 0.04300
H 	H 	0.18255 0.08242 0.05982 0.04200
H 	H 	0.27826 0.10398 0.97074 0.03600
H 	H 	0.24894 0.09406 0.90207 0.03900
H 	H 	0.19775 0.09190 0.86445 0.00900
H 	H 	0.15139 0.08195 0.99085 0.04000
C 	C 	0.94252 0.70227 0.59945 -0.07300
C 	C 	0.93516 0.73407 0.60635 0.00700
C 	C 	0.95899 0.75641 0.61088 -0.05700
C 	C 	0.99048 0.74726 0.60756 0.01400
C 	C 	0.99805 0.71510 0.60202 0.01400
C 	C 	0.97397 0.69266 0.59873 -0.01500
C 	C 	0.02951 0.70604 0.59757 -0.05900
C 	C 	0.05313 0.72882 0.59655 0.00600
C 	C 	0.04563 0.76085 0.60048 -0.07600
C 	C 	0.01441 0.76996 0.60742 -0.01600
H 	H 	0.91093 0.74161 0.60702 0.01900
H 	H 	0.95291 0.78095 0.61553 0.04100
H 	H 	0.97965 0.66808 0.59326 0.03700
H 	H 	0.03563 0.68143 0.59374 0.04000
H 	H 	0.07725 0.72161 0.59196 0.01800
H 	H 	0.00863 0.79473 0.61055 0.03600
C 	C 	0.75342 0.63095 0.54693 -0.07000
C 	C 	0.73003 0.61815 0.57443 0.00200
C 	C 	0.70246 0.60611 0.55594 -0.05600
C 	C 	0.69794 0.60671 0.50972 0.01000
C 	C 	0.72218 0.61777 0.48174 0.01400
C 	C 	0.74987 0.62979 0.50051 -0.02700
C 	C 	0.71773 0.61821 0.43552 -0.06100
C 	C 	0.68869 0.61003 0.41746 0.00000
C 	C 	0.66384 0.60113 0.44530 -0.07500
C 	C 	0.66889 0.59814 0.49124 -0.01500
H 	H 	0.73264 0.61868 0.61026 0.04400
H 	H 	0.68427 0.59720 0.57768 0.04200
H 	H 	0.76815 0.63911 0.47918 0.03200
H 	H 	0.73635 0.62601 0.41366 0.03800
H 	H 	0.68501 0.61210 0.38191 0.00600
H 	H 	0.64975 0.59107 0.51276 0.04200
C 	C 	0.82690 0.75238 0.46244 -0.07100
C 	C 	0.82972 0.78509 0.46841 0.00700
C 	C 	0.83649 0.80461 0.43218 -0.05800
C 	C 	0.84060 0.79161 0.38968 0.01500
C 	C 	0.83502 0.75917 0.38293 0.01400
C 	C 	0.82764 0.73982 0.41929 -0.01800
C 	C 	0.83895 0.74613 0.34049 -0.05600
C 	C 	0.85038 0.76457 0.30568 0.00300
C 	C 	0.85799 0.79641 0.31279 -0.07000
C 	C 	0.85189 0.81017 0.35443 -0.02200
H 	H 	0.82863 0.79515 0.50148 0.03300
H 	H 	0.83989 0.82959 0.43758 0.04100
H 	H 	0.82472 0.71468 0.41451 0.03700
H 	H 	0.83412 0.72142 0.33476 0.04100
H 	H 	0.85431 0.75379 0.27352 0.03600
H 	H 	0.85678 0.83494 0.35973 0.04100
C 	C 	0.98242 0.58417 0.31671 -0.07200
C 	C 	0.99667 0.57467 0.35654 0.00500
C 	C 	0.98090 0.57805 0.39698 -0.05700
C 	C 	0.95090 0.59150 0.39802 0.01400
C 	C 	0.93567 0.59917 0.35773 0.01300
C 	C 	0.95137 0.59497 0.31712 -0.01500
C 	C 	0.90578 0.61281 0.35876 -0.05600
C 	C 	0.89205 0.62086 0.39940 0.00400
C 	C 	0.90806 0.61535 0.43955 -0.07100
C 	C 	0.93679 0.59914 0.43877 -0.02300
H 	H 	0.02052 0.56596 0.35635 0.02500
H 	H 	0.99256 0.57147 0.42762 0.03900
H 	H 	0.94027 0.60209 0.28625 0.04200
H 	H 	0.89355 0.61809 0.32806 0.04200
H 	H 	0.86930 0.63213 0.39954 0.03700
H 	H 	0.94873 0.59366 0.46965 0.03600
C 	C 	0.85923 0.55525 0.67721 -0.07400
C 	C 	0.86684 0.52869 0.65171 0.00100
C 	C 	0.87416 0.50021 0.67246 -0.06100
C 	C 	0.87438 0.49815 0.71902 0.01500
C 	C 	0.86451 0.52418 0.74476 0.01000
C 	C 	0.85653 0.55256 0.72359 -0.01500
C 	C 	0.86494 0.52216 0.79135 -0.05600
C 	C 	0.87747 0.49556 0.81220 0.00200
C 	C 	0.88952 0.47064 0.78667 -0.07100
C 	C 	0.88644 0.47131 0.74018 -0.02700
H 	H 	0.86852 0.53053 0.61584 0.00700
H 	H 	0.88102 0.48019 0.65236 0.03800
H 	H 	0.85035 0.57305 0.74326 0.04300
H 	H 	0.85679 0.54169 0.81144 0.04200
H 	H 	0.87924 0.49505 0.84814 0.04300
H 	H 	0.89495 0.45170 0.72048 0.03300
C 	C 	0.53912 0.76785 0.96934 -0.07400
C 	C 	0.51253 0.77775 0.99282 0.00200
C 	C 	0.48495 0.76015 0.99115 -0.06300
C 	C 	0.48379 0.73221 0.96635 0.01600
C 	C 	0.51037 0.72235 0.94203 0.01000
C 	C 	0.53797 0.74039 0.94346 -0.02100
C 	C 	0.50923 0.69416 0.91769 -0.05900
C 	C 	0.48244 0.67519 0.91918 0.00400
C 	C 	0.45644 0.68434 0.94476 -0.07500
C 	C 	0.45680 0.71344 0.96690 -0.02300
H 	H 	0.51332 0.79903 0.01265 0.03900
H 	H 	0.46466 0.76798 0.00977 0.04800
H 	H 	0.55857 0.73283 0.92525 0.02500
H 	H 	0.52934 0.68652 0.89852 0.03800
H 	H 	0.48236 0.65288 0.90176 0.03000
H 	H 	0.43647 0.72088 0.98584 0.04000
C 	C 	0.60563 0.65159 0.21651 -0.07400
C 	C 	0.63818 0.65578 0.21642 0.00100
C 	C 	0.65290 0.67002 0.18019 -0.05800
C 	C 	0.63506 0.68091 0.14418 0.01200
C 	C 	0.60233 0.67582 0.14352 0.01400
C 	C 	0.58786 0.66062 0.17943 -0.01500
C 	C 	0.58435 0.68774 0.10827 -0.05400
C 	C 	0.59840 0.70635 0.07558 0.00400
C 	C 	0.63063 0.71250 0.07722 -0.07300
C 	C 	0.64912 0.69864 0.11038 -0.01500
H 	H 	0.65202 0.64847 0.24482 0.00900
H 	H 	0.67804 0.67352 0.18082 0.03900
H 	H 	0.56268 0.65723 0.17954 0.05100
H 	H 	0.55931 0.68367 0.10713 0.04900
H 	H 	0.58408 0.71686 0.04980 0.03500
H 	H 	0.67408 0.70339 0.11143 0.04100
C 	C 	0.72401 0.84249 0.00894 -0.05100
C 	C 	0.71774 0.84978 0.05359 -0.01200
C 	C 	0.74102 0.86293 0.08039 -0.04800
C 	C 	0.77091 0.86862 0.06283 -0.00000
C 	C 	0.77629 0.86447 0.01678 0.03800
C 	C 	0.75251 0.85187 0.98982 -0.04400
C 	C 	0.80625 0.87004 0.99931 -0.08000
C 	C 	0.83135 0.87616 0.02792 0.02400
C 	C 	0.82663 0.87695 0.07411 -0.07900
C 	C 	0.79614 0.87533 0.09120 -0.01700
H 	H 	0.69540 0.84348 0.06819 0.02300
H 	H 	0.73633 0.86701 0.11535 0.03600
H 	H 	0.75712 0.84687 0.95504 0.05200
H 	H 	0.81048 0.86788 0.96389 0.04800
H 	H 	0.85479 0.87809 0.01443 0.03400
H 	H 	0.79245 0.87664 0.12687 0.01800
C 	C 	0.70708 0.75415 0.83499 -0.07900
C 	C 	0.68902 0.74847 0.79677 0.00300
C 	C 	0.70220 0.73353 0.75988 -0.06000
C 	C 	0.73365 0.72405 0.76068 0.01200
C 	C 	0.75190 0.72931 0.79916 0.01100
C 	C 	0.73853 0.74431 0.83621 -0.02300
C 	C 	0.78338 0.71980 0.79988 -0.05900
C 	C 	0.79682 0.70578 0.76237 0.00100
C 	C 	0.77893 0.70102 0.72373 -0.07700
C 	C 	0.74718 0.70976 0.72327 -0.02300
H 	H 	0.66465 0.75552 0.79571 0.03100
H 	H 	0.68796 0.72945 0.73061 0.04000
H 	H 	0.75261 0.74867 0.86559 0.04100
H 	H 	0.79756 0.72358 0.82930 0.04000
H 	H 	0.82131 0.69920 0.76306 0.03100
H 	H 	0.73313 0.70567 0.69378 0.04200
C 	C 	0.43244 0.77080 0.36113 -0.07700
C 	C 	0.41991 0.74397 0.34036 0.01100
C 	C 	0.43669 0.71572 0.33993 -0.05900
C 	C 	0.46635 0.71403 0.35987 0.01700
C 	C 	0.47838 0.74042 0.38277 0.01100
C 	C 	0.46117 0.76858 0.38379 -0.01500
C 	C 	0.50810 0.73874 0.40255 -0.05600
C 	C 	0.52657 0.71182 0.39723 0.00300
C 	C 	0.51543 0.68616 0.37232 -0.07200
C 	C 	0.48476 0.68683 0.35535 -0.02100
H 	H 	0.39768 0.74527 0.32309 0.03700
H 	H 	0.42704 0.69547 0.32284 0.04500
H 	H 	0.47058 0.78899 0.40086 0.04000
H 	H 	0.51734 0.75865 0.42086 0.04000
H 	H 	0.54998 0.71143 0.41106 0.03300
H 	H 	0.47572 0.66671 0.33723 0.04500
C 	C 	0.38880 0.98336 0.30599 -0.07600
C 	C 	0.35937 0.98102 0.28557 0.00800
C 	C 	0.34841 0.00539 0.25834 -0.06100
C 	C 	0.36688 0.03230 0.25133 0.01600
C 	C 	0.39579 0.03538 0.27378 0.00800
C 	C 	0.40651 0.01093 0.30118 -0.01400
C 	C 	0.41418 0.06229 0.26711 -0.05600
C 	C 	0.40475 0.08531 0.23679 -0.00400
C 	C 	0.37679 0.08174 0.21266 -0.07200
C 	C 	0.35744 0.05557 0.22090 -0.02700
H 	H 	0.34551 0.95984 0.28939 0.02200
H 	H 	0.32599 0.00294 0.24183 0.04200
H 	H 	0.42914 0.01281 0.31741 0.03200
H 	H 	0.43613 0.06513 0.28478 0.03900
H 	H 	0.41946 0.10576 0.23161 0.03500
H 	H 	0.33570 0.05281 0.20267 0.04700
C 	C 	0.57526 0.86127 0.10269 -0.06800
C 	C 	0.55801 0.88929 0.09909 0.00000
C 	C 	0.54073 0.90051 0.13531 -0.05900
C 	C 	0.54025 0.88368 0.17549 0.01300
C 	C 	0.55855 0.85616 0.17993 0.01400
C 	C 	0.57624 0.84524 0.14363 -0.01900
C 	C 	0.55780 0.83913 0.21994 -0.05600
C 	C 	0.53777 0.84836 0.25438 0.00300
C 	C 	0.51850 0.87491 0.24946 -0.07000
C 	C 	0.52058 0.89317 0.21053 -0.02400
H 	H 	0.55747 0.90206 0.06791 0.01700
H 	H 	0.52710 0.92188 0.13172 0.03800
H 	H 	0.58957 0.82361 0.14661 0.05200
H 	H 	0.57207 0.81823 0.22396 0.04500
H 	H 	0.53663 0.83439 0.28448 0.03500
H 	H 	0.50580 0.91373 0.20662 0.04100
C 	C 	0.38174 0.81171 0.20865 -0.07400
C 	C 	0.39683 0.82120 0.16947 0.00800
C 	C 	0.39336 0.80369 0.13049 -0.05700
C 	C 	0.37515 0.77622 0.13054 0.01400
C 	C 	0.35993 0.76653 0.16999 0.01300
C 	C 	0.36304 0.78458 0.20880 -0.01700
C 	C 	0.34239 0.73858 0.17028 -0.05700
C 	C 	0.34022 0.72026 0.13177 0.00400
C 	C 	0.35512 0.72996 0.09255 -0.07300
C 	C 	0.37245 0.75798 0.09193 -0.01600
H 	H 	0.41133 0.84212 0.16927 0.02900
H 	H 	0.40514 0.81129 0.10041 0.04200
H 	H 	0.35164 0.77715 0.23931 0.03300
H 	H 	0.33070 0.73089 0.20037 0.03900
H 	H 	0.32690 0.69856 0.13239 0.02800
H 	H 	0.38431 0.76520 0.06168 0.04100
C 	C 	0.31301 0.87189 0.44632 -0.08000
C 	C 	0.28704 0.86271 0.42090 0.00600
C 	C 	0.25853 0.85594 0.44154 -0.06300
C 	C 	0.25586 0.85772 0.48797 0.01800
C 	C 	0.28143 0.86867 0.51353 0.00800
C 	C 	0.30987 0.87612 0.49241 -0.01300
C 	C 	0.27884 0.87002 0.56006 -0.05400
C 	C 	0.25212 0.85816 0.58119 0.00000
C 	C 	0.22766 0.84508 0.55599 -0.06700
C 	C 	0.22884 0.84662 0.50937 -0.02800
H 	H 	0.28924 0.85986 0.38522 -0.00100
H 	H 	0.23889 0.84812 0.42155 0.04100
H 	H 	0.32991 0.88351 0.51197 0.03900
H 	H 	0.29801 0.87898 0.57997 0.04200
H 	H 	0.25123 0.85756 0.61719 0.04300
H 	H 	0.20956 0.83732 0.48986 0.03700
C 	C 	0.55490 0.19606 0.67378 -0.07800
C 	C 	0.56550 0.22611 0.68617 0.00900
C 	C 	0.54591 0.25225 0.68156 -0.05900
C 	C 	0.51540 0.24856 0.66501 0.01400
C 	C 	0.50543 0.21882 0.64959 0.01200
C 	C 	0.52554 0.19284 0.65309 -0.01600
C 	C 	0.47480 0.21507 0.63349 -0.05800
C 	C 	0.45355 0.24006 0.63564 0.00800
C 	C 	0.46279 0.26916 0.65353 -0.07600
C 	C 	0.49419 0.27372 0.66621 -0.01800
H 	H 	0.58833 0.22902 0.70131 0.03600
H 	H 	0.55402 0.27512 0.69261 0.04200
H 	H 	0.51774 0.16985 0.64197 0.03800
H 	H 	0.46712 0.19251 0.62068 0.04000
H 	H 	0.42972 0.23653 0.62438 0.03400
H 	H 	0.50169 0.29633 0.67912 0.04600
C 	C 	0.48653 0.09547 0.82315 -0.07100
C 	C 	0.47020 0.06989 0.84165 -0.00100
C 	C 	0.45024 0.07440 0.87794 -0.05900
C 	C 	0.44625 0.10456 0.89606 0.01100
C 	C 	0.46093 0.13066 0.87577 0.01400
C 	C 	0.48069 0.12606 0.83906 -0.02400
C 	C 	0.45670 0.16087 0.89360 -0.05900
C 	C 	0.43943 0.16494 0.93263 0.00200
C 	C 	0.42601 0.13886 0.95418 -0.07100
C 	C 	0.42866 0.10881 0.93503 -0.02400
H 	H 	0.47354 0.04636 0.82864 0.02300
H 	H 	0.43848 0.05432 0.89259 0.03600
H 	H 	0.49242 0.14606 0.82410 0.05200
H 	H 	0.46738 0.18114 0.87783 0.04400
H 	H 	0.43719 0.18829 0.94672 0.03900
H 	H 	0.41757 0.08876 0.95086 0.03600
C 	C 	0.61954 0.99321 0.75208 -0.07600
C 	C 	0.64153 0.99833 0.78596 0.00600
C 	C 	0.64999 0.97378 0.81451 -0.06000
C 	C 	0.63590 0.94412 0.80998 0.01400
C 	C 	0.61550 0.93835 0.77382 0.01200
C 	C 	0.60829 0.96275 0.74418 -0.02000
C 	C 	0.60055 0.90910 0.77002 -0.05900
C 	C 	0.60412 0.88653 0.80336 0.00500
C 	C 	0.62321 0.89269 0.84032 -0.07200
C 	C 	0.64009 0.92093 0.84272 -0.02500
H 	H 	0.65065 0.02176 0.79181 0.02000
H 	H 	0.66619 0.97830 0.84151 0.04000
H 	H 	0.59163 0.95878 0.71749 0.04100
H 	H 	0.58524 0.90426 0.74209 0.04100
H 	H 	0.59166 0.86439 0.80083 0.03300
H 	H 	0.65524 0.92542 0.87100 0.03300
C 	C 	0.45863 0.95706 0.48113 -0.07400
C 	C 	0.43989 0.96807 0.51622 0.00800
C 	C 	0.45369 0.98102 0.55420 -0.06000
C 	C 	0.48640 0.98295 0.55756 0.01300
C 	C 	0.50534 0.97128 0.52265 0.01100
C 	C 	0.49132 0.95856 0.48448 -0.02400
C 	C 	0.53803 0.97298 0.52609 -0.05900
C 	C 	0.55181 0.98741 0.56291 0.00800
C 	C 	0.53310 0.00027 0.59674 -0.07200
C 	C 	0.50045 0.99719 0.59470 -0.02600
H 	H 	0.41460 0.96693 0.51384 0.04000
H 	H 	0.43893 0.98975 0.58081 0.03900
H 	H 	0.50577 0.94974 0.45753 0.01500
H 	H 	0.55278 0.96368 0.49986 0.03800
H 	H 	0.57709 0.98932 0.56466 0.04100
H 	H 	0.48602 0.00698 0.62099 0.01900
C 	C 	0.62789 0.16892 0.83040 -0.07300
C 	C 	0.65455 0.18817 0.82736 0.00500
C 	C 	0.66338 0.20720 0.86308 -0.06100
C 	C 	0.64561 0.20735 0.90230 0.01300
C 	C 	0.61908 0.18765 0.90596 0.01100
C 	C 	0.61033 0.16847 0.86994 -0.02000
C 	C 	0.60134 0.18783 0.94526 -0.05500
C 	C 	0.60922 0.20823 0.98003 -0.00500
C 	C 	0.63491 0.22869 0.97594 -0.07500
C 	C 	0.65355 0.22758 0.93743 -0.02500
H 	H 	0.66818 0.18880 0.79698 0.02600
H 	H 	0.68384 0.22214 0.86000 0.03700
H 	H 	0.58994 0.15335 0.87260 0.04200
H 	H 	0.58118 0.17254 0.94868 0.04200
H 	H 	0.59501 0.20850 0.00989 0.04200
H 	H 	0.67349 0.24321 0.93412 0.03900
C 	C 	0.65923 0.10238 0.57207 -0.07500
C 	C 	0.65175 0.12310 0.53734 0.00300
C 	C 	0.67364 0.12953 0.50407 -0.05900
C 	C 	0.70352 0.11590 0.50588 0.01100
C 	C 	0.71058 0.09373 0.53950 0.01400
C 	C 	0.68805 0.08656 0.57194 -0.02500
C 	C 	0.74084 0.08098 0.54222 -0.06100
C 	C 	0.76457 0.09228 0.51444 0.00600
C 	C 	0.75804 0.11576 0.48303 -0.07600
C 	C 	0.72719 0.12611 0.47698 -0.01900
H 	H 	0.62923 0.13485 0.53678 0.03200
H 	H 	0.66781 0.14614 0.47800 0.04000
H 	H 	0.69363 0.07024 0.59855 0.03600
H 	H 	0.74639 0.06353 0.56730 0.04000
H 	H 	0.78834 0.08393 0.51885 0.02000
H 	H 	0.72217 0.14401 0.45223 0.03900
