data_crystal

_cell_length_a 44.33232
_cell_length_b 44.19297
_cell_length_c 40.64611
_cell_angle_alpha 88.28379
_cell_angle_beta  77.78112
_cell_angle_gamma 79.32502

_symmetry_space_group_name_	'P 1'
_symmetry_space_group_name_H-M	'P 1'

loop_
_symmetry_equiv_pos_as_xyz
  x,y,z

loop_
_atom_site_label
_atom_site_type_symbol
_atom_site_fract_x
_atom_site_fract_y
_atom_site_fract_z
_atom_site_charge
Ni	Ni	0.02428 0.02327 0.99661 1.09800
O 	O 	0.97709 0.02343 0.00513 -0.70300
Ni	Ni	0.97693 0.97937 0.99325 1.09800
O 	O 	0.01897 0.06988 0.00451 -0.36900
O 	O 	0.98520 0.08316 0.96913 -0.41000
O 	O 	0.02383 0.02070 0.04759 -0.37100
Ni	Ni	0.95771 0.04939 0.97237 1.06300
O 	O 	0.07551 0.97934 0.02414 -0.40900
O 	O 	0.99086 0.02919 0.93271 -0.42100
O 	O 	0.92943 0.98300 0.00198 -0.38200
O 	O 	0.02410 0.97920 0.98480 -0.70300
O 	O 	0.07171 0.01956 0.98762 -0.38500
O 	O 	0.98234 0.93270 0.98550 -0.36800
O 	O 	0.01582 0.91962 0.02126 -0.41000
Ni	Ni	0.04349 0.95325 0.01761 1.06400
H 	H 	0.96598 0.02878 0.02860 0.15300
H 	H 	0.03525 0.97382 0.96134 0.15300
C 	C 	0.99046 0.00182 0.92170 0.28900
O 	O 	0.01071 0.97341 0.05724 -0.42300
C 	C 	0.99805 0.09044 0.99337 0.28100
C 	C 	0.91231 0.00560 0.98850 0.28100
C 	C 	0.01115 0.00080 0.06817 0.29000
C 	C 	0.00298 0.91214 0.99709 0.28000
C 	C 	0.08903 0.99690 0.00078 0.28200
O 	O 	0.97774 0.98188 0.94220 -0.37200
O 	O 	0.92611 0.02309 0.96529 -0.41300
Ni	Ni	0.02513 0.02127 0.49568 1.09700
O 	O 	0.97794 0.02118 0.50611 -0.70400
Ni	Ni	0.97755 0.97728 0.49388 1.09700
O 	O 	0.01987 0.06777 0.50416 -0.37000
O 	O 	0.98433 0.08150 0.47078 -0.41100
O 	O 	0.02645 0.01797 0.54620 -0.37200
Ni	Ni	0.95687 0.04763 0.47491 1.06200
O 	O 	0.07763 0.97711 0.52084 -0.41000
O 	O 	0.98868 0.02830 0.43379 -0.42000
O 	O 	0.93010 0.98055 0.50475 -0.38600
O 	O 	0.02471 0.97735 0.48356 -0.70400
O 	O 	0.07260 0.01773 0.48499 -0.38600
O 	O 	0.98300 0.93075 0.48527 -0.37100
O 	O 	0.01777 0.91723 0.51957 -0.41100
Ni	Ni	0.04536 0.95101 0.51521 1.06300
H 	H 	0.96764 0.02611 0.52990 0.15200
H 	H 	0.03511 0.97227 0.45982 0.15300
C 	C 	0.98837 0.00092 0.42274 0.28900
O 	O 	0.01365 0.97055 0.55598 -0.42200
C 	C 	0.99830 0.08848 0.49424 0.28000
C 	C 	0.91207 0.00339 0.49269 0.28200
C 	C 	0.01416 0.99793 0.56691 0.28900
C 	C 	0.00400 0.91001 0.49606 0.28100
C 	C 	0.09049 0.99498 0.49739 0.28200
O 	O 	0.97624 0.98072 0.44334 -0.37200
O 	O 	0.92476 0.02136 0.46923 -0.41000
Ni	Ni	0.02366 0.52293 0.00152 1.09700
O 	O 	0.97636 0.52391 0.00911 -0.70400
Ni	Ni	0.97558 0.47993 0.99764 1.09700
O 	O 	0.01903 0.56957 0.00880 -0.36900
O 	O 	0.98615 0.58289 0.97250 -0.41100
O 	O 	0.02200 0.52076 0.05274 -0.37200
Ni	Ni	0.95786 0.54983 0.97574 1.06200
O 	O 	0.07321 0.47862 0.03096 -0.41300
O 	O 	0.99113 0.52886 0.93663 -0.42200
O 	O 	0.92804 0.48435 0.00572 -0.38300
O 	O 	0.02288 0.47893 0.98995 -0.70300
O 	O 	0.07118 0.51836 0.99371 -0.38400
O 	O 	0.98017 0.43328 0.99036 -0.36900
O 	O 	0.01313 0.41972 0.02654 -0.41100
Ni	Ni	0.04115 0.45298 0.02353 1.06300
H 	H 	0.96495 0.52958 0.03241 0.15200
H 	H 	0.03430 0.47323 0.96666 0.15200
C 	C 	0.99030 0.50153 0.92583 0.28900
O 	O 	0.00782 0.47390 0.06228 -0.42400
C 	C 	0.99864 0.59024 0.99701 0.28000
C 	C 	0.91142 0.50700 0.99177 0.28100
C 	C 	0.00872 0.50115 0.07324 0.28900
C 	C 	0.00059 0.41254 0.00199 0.28000
C 	C 	0.08768 0.49572 0.00781 0.28100
O 	O 	0.97708 0.48197 0.94645 -0.37200
O 	O 	0.92575 0.52415 0.96855 -0.41300
Ni	Ni	0.02375 0.52145 0.50008 1.09700
O 	O 	0.97655 0.52148 0.51075 -0.70500
Ni	Ni	0.97598 0.47757 0.49876 1.09700
O 	O 	0.01858 0.56796 0.50850 -0.37000
O 	O 	0.98316 0.58159 0.47498 -0.41100
O 	O 	0.02531 0.51813 0.55055 -0.37200
Ni	Ni	0.95550 0.54785 0.47949 1.06200
O 	O 	0.07641 0.47725 0.52495 -0.41000
O 	O 	0.98715 0.52829 0.43839 -0.42100
O 	O 	0.92850 0.48103 0.50984 -0.38600
O 	O 	0.02317 0.47753 0.48810 -0.70400
O 	O 	0.07121 0.51784 0.48909 -0.38600
O 	O 	0.98118 0.43104 0.49037 -0.37000
O 	O 	0.01648 0.41735 0.52405 -0.41100
Ni	Ni	0.04404 0.45117 0.51958 1.06300
H 	H 	0.96633 0.52653 0.53454 0.15200
H 	H 	0.03343 0.47242 0.46434 0.15300
C 	C 	0.98669 0.50088 0.42752 0.28900
O 	O 	0.01251 0.47072 0.56047 -0.42200
C 	C 	0.99720 0.58869 0.49830 0.28100
C 	C 	0.91052 0.50381 0.49763 0.28200
C 	C 	0.01305 0.49812 0.57132 0.28900
C 	C 	0.00248 0.41028 0.50068 0.28000
C 	C 	0.08917 0.49509 0.50138 0.28200
O 	O 	0.97447 0.48084 0.44828 -0.37200
O 	O 	0.92326 0.52165 0.47406 -0.41000
Ni	Ni	0.52306 0.02074 0.00650 1.09700
O 	O 	0.47588 0.02087 0.01481 -0.70400
Ni	Ni	0.47579 0.97683 0.00286 1.09700
O 	O 	0.51766 0.06739 0.01435 -0.36900
O 	O 	0.48400 0.08054 0.97882 -0.41100
O 	O 	0.52218 0.01815 0.05755 -0.37200
Ni	Ni	0.45637 0.04688 0.98218 1.06200
O 	O 	0.57373 0.97686 0.03470 -0.41300
O 	O 	0.48942 0.02684 0.94237 -0.42100
O 	O 	0.42834 0.98035 0.01173 -0.38600
O 	O 	0.52294 0.97669 0.99454 -0.70400
O 	O 	0.57052 0.01698 0.99801 -0.38400
O 	O 	0.48124 0.93021 0.99486 -0.37000
O 	O 	0.51452 0.91694 0.03078 -0.41100
Ni	Ni	0.54200 0.95071 0.02758 1.06300
H 	H 	0.46471 0.02615 0.03828 0.15200
H 	H 	0.53417 0.97129 0.97112 0.15200
C 	C 	0.48920 0.99942 0.93138 0.28900
O 	O 	0.50889 0.97090 0.06695 -0.42300
C 	C 	0.49681 0.08792 0.00306 0.28000
C 	C 	0.41104 0.00303 0.99859 0.28200
C 	C 	0.50933 0.99825 0.07800 0.28900
C 	C 	0.50181 0.90959 0.00644 0.28100
C 	C 	0.58758 0.99435 0.01152 0.28100
O 	O 	0.47647 0.97947 0.95184 -0.37200
O 	O 	0.42460 0.02065 0.97533 -0.41000
Ni	Ni	0.52268 0.02281 0.50577 1.09700
O 	O 	0.47552 0.02261 0.51608 -0.70500
Ni	Ni	0.47523 0.97871 0.50382 1.09700
O 	O 	0.51719 0.06931 0.51449 -0.37000
O 	O 	0.48213 0.08284 0.48053 -0.41100
O 	O 	0.52405 0.01928 0.55629 -0.37200
Ni	Ni	0.45463 0.04899 0.48470 1.06200
O 	O 	0.57548 0.97865 0.53050 -0.41000
O 	O 	0.48654 0.02959 0.44367 -0.42100
O 	O 	0.42776 0.98198 0.51454 -0.38600
O 	O 	0.52238 0.97889 0.49346 -0.70400
O 	O 	0.57010 0.01948 0.49499 -0.38600
O 	O 	0.48069 0.93218 0.49524 -0.37000
O 	O 	0.51589 0.91851 0.52904 -0.41100
Ni	Ni	0.54327 0.95245 0.52487 1.06300
H 	H 	0.46515 0.02757 0.53984 0.15200
H 	H 	0.53275 0.97394 0.46970 0.15300
C 	C 	0.48621 0.00220 0.43266 0.28900
O 	O 	0.51155 0.97172 0.56576 -0.42200
C 	C 	0.49592 0.09000 0.50405 0.28100
C 	C 	0.40981 0.00471 0.50222 0.28200
C 	C 	0.51191 0.99907 0.57686 0.28900
C 	C 	0.50200 0.91144 0.50556 0.28100
C 	C 	0.58814 0.99664 0.50704 0.28200
O 	O 	0.47401 0.98206 0.45328 -0.37200
O 	O 	0.42262 0.02268 0.47884 -0.41000
Ni	Ni	0.52408 0.52024 0.00240 1.09700
O 	O 	0.47678 0.52117 0.00993 -0.70400
Ni	Ni	0.47611 0.47718 0.99826 1.09700
O 	O 	0.51947 0.56686 0.00978 -0.36900
O 	O 	0.48636 0.58045 0.97378 -0.41100
O 	O 	0.52249 0.51811 0.05360 -0.37200
Ni	Ni	0.45839 0.54716 0.97654 1.06200
O 	O 	0.57376 0.47591 0.03176 -0.41300
O 	O 	0.49198 0.52634 0.93760 -0.42200
O 	O 	0.42858 0.48155 0.00597 -0.38400
O 	O 	0.52337 0.47624 0.99086 -0.70400
O 	O 	0.57157 0.51571 0.99457 -0.38400
O 	O 	0.48089 0.43051 0.99091 -0.36900
O 	O 	0.51335 0.41723 0.02767 -0.41100
Ni	Ni	0.54156 0.45033 0.02450 1.06300
H 	H 	0.46533 0.52678 0.03323 0.15200
H 	H 	0.53489 0.47053 0.96761 0.15200
C 	C 	0.49131 0.49905 0.92660 0.28900
O 	O 	0.50833 0.47127 0.06332 -0.42300
C 	C 	0.49885 0.58757 0.99838 0.28100
C 	C 	0.41209 0.50420 0.99190 0.28100
C 	C 	0.50913 0.49859 0.07415 0.29000
C 	C 	0.50101 0.40983 0.00307 0.28000
C 	C 	0.58814 0.49305 0.00856 0.28100
O 	O 	0.47799 0.47939 0.94700 -0.37200
O 	O 	0.42658 0.52135 0.96883 -0.41300
Ni	Ni	0.52323 0.52271 0.50130 1.09700
O 	O 	0.47605 0.52260 0.51194 -0.70400
Ni	Ni	0.47561 0.47870 0.49978 1.09700
O 	O 	0.51796 0.56921 0.50983 -0.37000
O 	O 	0.48237 0.58291 0.47651 -0.41100
O 	O 	0.52480 0.51932 0.55176 -0.37200
Ni	Ni	0.45492 0.54902 0.48077 1.06200
O 	O 	0.57598 0.47853 0.52603 -0.41000
O 	O 	0.48665 0.52965 0.43960 -0.42100
O 	O 	0.42815 0.48202 0.51081 -0.38600
O 	O 	0.52277 0.47879 0.48918 -0.70400
O 	O 	0.57067 0.51922 0.49032 -0.38600
O 	O 	0.48099 0.43218 0.49121 -0.37100
O 	O 	0.51610 0.41859 0.52513 -0.41100
Ni	Ni	0.54365 0.45240 0.52062 1.06300
H 	H 	0.46582 0.52757 0.53574 0.15200
H 	H 	0.53306 0.47374 0.46541 0.15300
C 	C 	0.48630 0.50225 0.42863 0.28900
O 	O 	0.51208 0.47188 0.56150 -0.42300
C 	C 	0.49640 0.58992 0.49989 0.28100
C 	C 	0.41012 0.50477 0.49861 0.28200
C 	C 	0.51262 0.49923 0.57247 0.29000
C 	C 	0.50215 0.41142 0.50176 0.28100
C 	C 	0.58867 0.49642 0.50249 0.28200
O 	O 	0.47414 0.48212 0.44930 -0.37200
O 	O 	0.42282 0.52272 0.47515 -0.41000
C 	C 	0.49505 0.52814 0.73599 -0.03900
C 	C 	0.50286 0.50199 0.71503 -0.00100
C 	C 	0.51163 0.47283 0.72846 -0.03900
H 	H 	0.51792 0.45253 0.71240 0.03800
C 	C 	0.51242 0.46984 0.76262 -0.03900
C 	C 	0.50449 0.49598 0.78361 -0.00100
C 	C 	0.49584 0.52515 0.77015 -0.03900
H 	H 	0.48949 0.54545 0.78622 0.03700
C 	C 	0.50439 0.49279 0.81985 0.02500
C 	C 	0.48298 0.47700 0.84056 -0.06700
C 	C 	0.48020 0.47717 0.87547 0.01400
C 	C 	0.49871 0.49328 0.88998 -0.09000
C 	C 	0.52151 0.50740 0.86903 0.01100
C 	C 	0.52429 0.50721 0.83413 -0.06700
C 	C 	0.50223 0.50510 0.67894 0.02500
C 	C 	0.48192 0.49067 0.66535 -0.06700
C 	C 	0.48387 0.49053 0.63058 0.01200
C 	C 	0.50623 0.50476 0.60907 -0.09000
C 	C 	0.52521 0.52083 0.62291 0.01500
C 	C 	0.52326 0.52092 0.65770 -0.06700
H 	H 	0.46869 0.47854 0.62027 0.02700
H 	H 	0.54247 0.53202 0.60665 0.04100
H 	H 	0.53885 0.53238 0.66802 0.04600
H 	H 	0.46520 0.47888 0.68163 0.04400
H 	H 	0.46772 0.46556 0.82972 0.04500
H 	H 	0.46261 0.46604 0.89128 0.04100
H 	H 	0.54130 0.51896 0.81827 0.04400
H 	H 	0.53635 0.51940 0.87986 0.02700
H 	H 	0.51918 0.44725 0.77277 0.03700
H 	H 	0.48823 0.55073 0.72586 0.03700
C 	C 	0.50485 0.47431 0.23103 -0.03900
C 	C 	0.49587 0.50321 0.21715 -0.00100
C 	C 	0.48745 0.52960 0.23778 -0.03900
H 	H 	0.48043 0.55198 0.22730 0.03700
C 	C 	0.48805 0.52713 0.27201 -0.03900
C 	C 	0.49712 0.49824 0.28588 -0.00100
C 	C 	0.50546 0.47184 0.26526 -0.03900
H 	H 	0.51253 0.44946 0.27573 0.03700
C 	C 	0.49742 0.49565 0.32207 0.02500
C 	C 	0.51719 0.51076 0.33574 -0.06700
C 	C 	0.51497 0.51123 0.37055 0.01100
C 	C 	0.49289 0.49665 0.39202 -0.09000
C 	C 	0.47443 0.47998 0.37813 0.01400
C 	C 	0.47664 0.47956 0.34331 -0.06700
C 	C 	0.49605 0.50585 0.18085 0.02500
C 	C 	0.51727 0.52168 0.15992 -0.06700
C 	C 	0.52009 0.52111 0.12502 0.01400
C 	C 	0.50179 0.50455 0.11074 -0.09100
C 	C 	0.47920 0.49033 0.13189 0.01100
C 	C 	0.47640 0.49092 0.16678 -0.06700
H 	H 	0.53751 0.53232 0.10905 0.04100
H 	H 	0.46452 0.47798 0.12124 0.02800
H 	H 	0.45954 0.47911 0.18282 0.04400
H 	H 	0.53235 0.53351 0.17060 0.04500
H 	H 	0.53371 0.52278 0.31947 0.04400
H 	H 	0.52976 0.52369 0.38089 0.02700
H 	H 	0.46147 0.46760 0.33294 0.04600
H 	H 	0.45738 0.46852 0.39435 0.04100
H 	H 	0.48135 0.54761 0.28779 0.03800
H 	H 	0.51159 0.45383 0.21524 0.03700
C 	C 	0.49385 0.76674 0.47377 -0.03900
C 	C 	0.50052 0.78215 0.50031 -0.00100
C 	C 	0.50565 0.76599 0.52949 -0.03900
H 	H 	0.51062 0.77775 0.55019 0.03800
C 	C 	0.50418 0.73466 0.53207 -0.03900
C 	C 	0.49752 0.71925 0.50553 -0.00100
C 	C 	0.49238 0.73541 0.47636 -0.03900
H 	H 	0.48741 0.72365 0.45566 0.03800
C 	C 	0.49636 0.68611 0.50803 0.02600
C 	C 	0.52357 0.66461 0.50969 -0.06700
C 	C 	0.52323 0.63306 0.50886 0.01600
C 	C 	0.49566 0.62276 0.50624 -0.08800
C 	C 	0.46808 0.64434 0.50623 0.01200
C 	C 	0.46845 0.67586 0.50707 -0.06800
C 	C 	0.50177 0.81527 0.49777 0.02600
C 	C 	0.52970 0.82546 0.49879 -0.06800
C 	C 	0.53016 0.85696 0.49954 0.01200
C 	C 	0.50265 0.87859 0.49936 -0.08800
C 	C 	0.47506 0.86836 0.49670 0.01600
C 	C 	0.47463 0.83683 0.49597 -0.06700
H 	H 	0.55170 0.86456 0.50107 0.01100
H 	H 	0.45366 0.88475 0.49649 0.03900
H 	H 	0.45299 0.82916 0.49498 0.04500
H 	H 	0.55089 0.80896 0.49966 0.04300
H 	H 	0.54519 0.67232 0.51064 0.04500
H 	H 	0.54469 0.61671 0.50896 0.03900
H 	H 	0.44721 0.69232 0.50631 0.04300
H 	H 	0.44655 0.63669 0.50474 0.01100
H 	H 	0.50811 0.72239 0.55471 0.03700
H 	H 	0.48993 0.77901 0.45113 0.03700
C 	C 	0.48051 0.27179 0.52775 -0.03900
C 	C 	0.49954 0.28228 0.49921 -0.00100
C 	C 	0.51775 0.26111 0.47450 -0.03900
H 	H 	0.53248 0.26900 0.45237 0.03700
C 	C 	0.51692 0.22972 0.47829 -0.03900
C 	C 	0.49791 0.21923 0.50684 -0.00100
C 	C 	0.47968 0.24039 0.53154 -0.03900
H 	H 	0.46496 0.23250 0.55367 0.03700
C 	C 	0.49647 0.18619 0.51038 0.02600
C 	C 	0.52355 0.16466 0.51246 -0.06700
C 	C 	0.52299 0.13313 0.51235 0.01600
C 	C 	0.49532 0.12287 0.51004 -0.08800
C 	C 	0.46784 0.14450 0.50973 0.01200
C 	C 	0.46844 0.17601 0.50983 -0.06800
C 	C 	0.50109 0.31530 0.49573 0.02600
C 	C 	0.52921 0.32535 0.49618 -0.06800
C 	C 	0.52995 0.35683 0.49622 0.01200
C 	C 	0.50253 0.37856 0.49595 -0.08800
C 	C 	0.47476 0.36843 0.49380 0.01600
C 	C 	0.47406 0.33693 0.49374 -0.06700
H 	H 	0.55162 0.36434 0.49740 0.01200
H 	H 	0.45344 0.38490 0.49348 0.03900
H 	H 	0.45233 0.32935 0.49295 0.04500
H 	H 	0.55027 0.30880 0.49743 0.04300
H 	H 	0.54520 0.17234 0.51335 0.04500
H 	H 	0.54436 0.11674 0.51272 0.03900
H 	H 	0.44734 0.19248 0.50852 0.04300
H 	H 	0.44625 0.13689 0.50845 0.01100
H 	H 	0.53088 0.21356 0.45896 0.03800
H 	H 	0.46656 0.28794 0.54708 0.03800
C 	C 	0.51990 0.72812 0.97826 -0.03900
C 	C 	0.49967 0.71691 0.00528 -0.00100
C 	C 	0.48007 0.73746 0.02980 -0.03900
H 	H 	0.46440 0.72902 0.05076 0.03700
C 	C 	0.48071 0.76897 0.02734 -0.03900
C 	C 	0.50094 0.78017 0.00032 -0.00100
C 	C 	0.52054 0.75962 0.97581 -0.03900
H 	H 	0.53620 0.76807 0.95484 0.03700
C 	C 	0.50215 0.81332 0.99821 0.02600
C 	C 	0.47541 0.83482 0.99491 -0.06700
C 	C 	0.47570 0.86637 0.99589 0.01600
C 	C 	0.50277 0.87667 0.00027 -0.08800
C 	C 	0.52994 0.85508 0.00203 0.01200
C 	C 	0.52960 0.82356 0.00107 -0.06800
C 	C 	0.49843 0.68378 0.00736 0.02600
C 	C 	0.47098 0.67356 0.00441 -0.06800
C 	C 	0.47066 0.64205 0.00326 0.01200
C 	C 	0.49784 0.62044 0.00490 -0.08800
C 	C 	0.52488 0.63070 0.00943 0.01600
C 	C 	0.52516 0.66224 0.01061 -0.06700
H 	H 	0.44953 0.63444 0.00023 0.01100
H 	H 	0.54601 0.61432 0.01083 0.04000
H 	H 	0.54635 0.66993 0.01330 0.04600
H 	H 	0.45015 0.69004 0.00215 0.04300
H 	H 	0.45421 0.82710 0.99229 0.04500
H 	H 	0.45458 0.88273 0.99443 0.03900
H 	H 	0.55043 0.80711 0.00338 0.04300
H 	H 	0.55108 0.86273 0.00495 0.01100
H 	H 	0.46566 0.78464 0.04652 0.03800
H 	H 	0.53495 0.71244 0.95908 0.03800
C 	C 	0.51820 0.25946 0.97535 -0.03900
C 	C 	0.49904 0.28055 0.99960 -0.00100
C 	C 	0.47914 0.26994 0.02736 -0.03900
H 	H 	0.46443 0.28604 0.04633 0.03800
C 	C 	0.47844 0.23850 0.03086 -0.03900
C 	C 	0.49765 0.21740 0.00665 -0.00100
C 	C 	0.51749 0.22801 0.97886 -0.03900
H 	H 	0.53222 0.21192 0.95989 0.03800
C 	C 	0.49640 0.18430 0.00989 0.02600
C 	C 	0.46875 0.17389 0.00812 -0.06800
C 	C 	0.46842 0.14233 0.00783 0.01200
C 	C 	0.49579 0.12087 0.00916 -0.08800
C 	C 	0.52303 0.13136 0.01263 0.01600
C 	C 	0.52331 0.16294 0.01295 -0.06700
C 	C 	0.50053 0.31361 0.99653 0.02600
C 	C 	0.47379 0.33516 0.99334 -0.06700
C 	C 	0.47436 0.36669 0.99362 0.01600
C 	C 	0.50170 0.37692 0.99719 -0.08800
C 	C 	0.52886 0.35526 0.99877 0.01200
C 	C 	0.52826 0.32376 0.99849 -0.06800
H 	H 	0.45323 0.38311 0.99231 0.04000
H 	H 	0.55020 0.36285 0.00110 0.01100
H 	H 	0.54909 0.30727 0.00070 0.04300
H 	H 	0.45237 0.32751 0.99140 0.04600
H 	H 	0.44777 0.19022 0.00603 0.04300
H 	H 	0.44714 0.13455 0.00562 0.01100
H 	H 	0.54466 0.17079 0.01478 0.04600
H 	H 	0.54430 0.11510 0.01380 0.04000
H 	H 	0.46306 0.23052 0.05241 0.03700
H 	H 	0.53360 0.26743 0.95383 0.03700
C 	C 	0.51045 0.96991 0.76743 -0.03900
C 	C 	0.50228 0.99611 0.78836 -0.00100
C 	C 	0.49355 0.02521 0.77478 -0.03900
H 	H 	0.48700 0.04554 0.79079 0.03800
C 	C 	0.49298 0.02808 0.74056 -0.03900
C 	C 	0.50109 0.00188 0.71964 -0.00100
C 	C 	0.50988 0.97278 0.73321 -0.03900
H 	H 	0.51639 0.95244 0.71720 0.03800
C 	C 	0.50078 0.00488 0.68347 0.02500
C 	C 	0.52181 0.02083 0.66240 -0.06700
C 	C 	0.52401 0.02073 0.62757 0.01400
C 	C 	0.50528 0.00453 0.61350 -0.09000
C 	C 	0.48294 0.99014 0.63482 0.01100
C 	C 	0.48075 0.99027 0.66963 -0.06700
C 	C 	0.50217 0.99306 0.82462 0.02500
C 	C 	0.52189 0.00775 0.83886 -0.06700
C 	C 	0.51914 0.00801 0.87376 0.01100
C 	C 	0.49656 0.99367 0.89475 -0.09000
C 	C 	0.47821 0.97731 0.88029 0.01400
C 	C 	0.48096 0.97709 0.84538 -0.06700
H 	H 	0.53386 0.02021 0.88455 0.02700
H 	H 	0.46079 0.96602 0.89614 0.04100
H 	H 	0.46583 0.96544 0.83458 0.04600
H 	H 	0.53876 0.01965 0.82297 0.04400
H 	H 	0.53719 0.03241 0.67290 0.04600
H 	H 	0.54126 0.03204 0.61146 0.04100
H 	H 	0.46403 0.97838 0.68577 0.04400
H 	H 	0.46796 0.97803 0.62433 0.02700
H 	H 	0.48612 0.05061 0.73032 0.03700
H 	H 	0.51727 0.94737 0.77767 0.03700
C 	C 	0.50616 0.97149 0.26924 -0.03900
C 	C 	0.49744 0.99792 0.28982 -0.00100
C 	C 	0.48806 0.02670 0.27590 -0.03900
H 	H 	0.48107 0.04720 0.29166 0.03800
C 	C 	0.48753 0.02904 0.24165 -0.03900
C 	C 	0.49631 0.00263 0.22105 -0.00100
C 	C 	0.50562 0.97383 0.23499 -0.03900
H 	H 	0.51264 0.95334 0.21922 0.03700
C 	C 	0.49650 0.00515 0.18474 0.02500
C 	C 	0.51737 0.02135 0.16383 -0.06700
C 	C 	0.52013 0.02083 0.12893 0.01400
C 	C 	0.50211 0.00394 0.11464 -0.09000
C 	C 	0.47991 0.98926 0.13578 0.01100
C 	C 	0.47717 0.98981 0.17066 -0.06700
C 	C 	0.49763 0.99545 0.32605 0.02500
C 	C 	0.51715 0.01084 0.33978 -0.06700
C 	C 	0.51484 0.01139 0.37460 0.01100
C 	C 	0.49290 0.99662 0.39602 -0.09000
C 	C 	0.47469 0.97969 0.38208 0.01400
C 	C 	0.47700 0.97919 0.34725 -0.06700
H 	H 	0.52944 0.02404 0.38498 0.02800
H 	H 	0.45775 0.96808 0.39827 0.04100
H 	H 	0.46202 0.96702 0.33684 0.04600
H 	H 	0.53356 0.02300 0.32353 0.04400
H 	H 	0.53222 0.03348 0.17451 0.04500
H 	H 	0.53727 0.03238 0.11298 0.04100
H 	H 	0.46058 0.97770 0.18668 0.04400
H 	H 	0.46545 0.97664 0.12512 0.02800
H 	H 	0.48025 0.05135 0.23113 0.03700
H 	H 	0.51347 0.94919 0.27975 0.03700
C 	C 	0.74352 0.48375 0.47394 -0.03900
C 	C 	0.71851 0.49943 0.49809 -0.00100
C 	C 	0.72471 0.51583 0.52419 -0.03900
H 	H 	0.70555 0.52785 0.54307 0.03800
C 	C 	0.75568 0.51656 0.52612 -0.03900
C 	C 	0.78068 0.50087 0.50197 -0.00100
C 	C 	0.77448 0.48447 0.47586 -0.03900
H 	H 	0.79365 0.47245 0.45699 0.03800
C 	C 	0.81334 0.50198 0.50370 0.02600
C 	C 	0.82416 0.53002 0.49951 -0.06800
C 	C 	0.85566 0.53077 0.49886 0.01200
C 	C 	0.87667 0.50345 0.50229 -0.09000
C 	C 	0.86555 0.47553 0.50764 0.01600
C 	C 	0.83403 0.47483 0.50831 -0.06800
C 	C 	0.68585 0.49831 0.49637 0.02600
C 	C 	0.66514 0.52546 0.49181 -0.06800
C 	C 	0.63362 0.52474 0.49250 0.01600
C 	C 	0.62252 0.49681 0.49781 -0.08900
C 	C 	0.64356 0.46949 0.50118 0.01200
C 	C 	0.67506 0.47026 0.50052 -0.06800
H 	H 	0.61770 0.54601 0.48988 0.03800
H 	H 	0.63540 0.44775 0.50488 0.01200
H 	H 	0.69094 0.44916 0.50388 0.04300
H 	H 	0.67335 0.54718 0.48826 0.04500
H 	H 	0.80830 0.55112 0.49611 0.04300
H 	H 	0.86384 0.55249 0.49514 0.01200
H 	H 	0.82579 0.45312 0.51188 0.04500
H 	H 	0.88145 0.45426 0.51030 0.03800
H 	H 	0.76025 0.52922 0.54640 0.03600
H 	H 	0.73894 0.47109 0.45366 0.03600
C 	C 	0.27021 0.50915 0.47204 -0.03900
C 	C 	0.28058 0.50123 0.50201 -0.00100
C 	C 	0.25995 0.49178 0.52988 -0.03900
H 	H 	0.26774 0.48569 0.55314 0.03700
C 	C 	0.22919 0.49030 0.52781 -0.03900
C 	C 	0.21881 0.49824 0.49784 -0.00100
C 	C 	0.23944 0.50767 0.46996 -0.03900
H 	H 	0.23166 0.51377 0.44670 0.03700
C 	C 	0.18623 0.49708 0.49584 0.02600
C 	C 	0.17550 0.46899 0.49970 -0.06800
C 	C 	0.14404 0.46819 0.50017 0.01200
C 	C 	0.12299 0.49550 0.49683 -0.08900
C 	C 	0.13404 0.52348 0.49177 0.01600
C 	C 	0.16551 0.52423 0.49131 -0.06800
C 	C 	0.31313 0.50248 0.50404 0.02600
C 	C 	0.33393 0.47536 0.50852 -0.06800
C 	C 	0.36537 0.47621 0.50811 0.01700
C 	C 	0.37632 0.50424 0.50312 -0.08900
C 	C 	0.35519 0.53151 0.49983 0.01200
C 	C 	0.32376 0.53062 0.50026 -0.06800
H 	H 	0.38137 0.45497 0.51062 0.03800
H 	H 	0.36323 0.55333 0.49643 0.01200
H 	H 	0.30776 0.55173 0.49721 0.04300
H 	H 	0.32589 0.45354 0.51155 0.04500
H 	H 	0.19144 0.44784 0.50279 0.04300
H 	H 	0.13592 0.44642 0.50364 0.01200
H 	H 	0.17362 0.54602 0.48822 0.04500
H 	H 	0.11810 0.54475 0.48923 0.03800
H 	H 	0.21336 0.48316 0.54952 0.03800
H 	H 	0.28603 0.51630 0.45033 0.03800
C 	C 	0.77378 0.48289 0.97624 -0.03900
C 	C 	0.78121 0.50187 0.99929 -0.00100
C 	C 	0.75709 0.51890 0.02334 -0.03900
H 	H 	0.76259 0.53374 0.04112 0.03600
C 	C 	0.72579 0.51699 0.02431 -0.03900
C 	C 	0.71836 0.49801 0.00125 -0.00100
C 	C 	0.74248 0.48097 0.97721 -0.03900
H 	H 	0.73698 0.46614 0.95942 0.03600
C 	C 	0.68535 0.49569 0.00258 0.02500
C 	C 	0.66785 0.48378 0.03121 -0.06700
C 	C 	0.63631 0.48241 0.03297 0.01100
C 	C 	0.62191 0.49297 0.00603 -0.08900
C 	C 	0.63964 0.50440 0.97712 0.01100
C 	C 	0.67120 0.50578 0.97543 -0.06700
C 	C 	0.81422 0.50424 0.99792 0.02500
C 	C 	0.82842 0.49414 0.02502 -0.06700
C 	C 	0.85998 0.49556 0.02328 0.01100
C 	C 	0.87765 0.50704 0.99436 -0.08900
C 	C 	0.86319 0.51762 0.96747 0.01100
C 	C 	0.83166 0.51621 0.96928 -0.06800
H 	H 	0.87070 0.48763 0.04433 0.02900
H 	H 	0.87649 0.52643 0.94494 0.03200
H 	H 	0.82082 0.52425 0.94833 0.04400
H 	H 	0.81510 0.48493 0.04727 0.04400
H 	H 	0.67864 0.47575 0.05219 0.04400
H 	H 	0.62296 0.47365 0.05550 0.03200
H 	H 	0.68457 0.51495 0.95318 0.04400
H 	H 	0.62897 0.51231 0.95603 0.02900
H 	H 	0.70731 0.53030 0.04289 0.03800
H 	H 	0.79226 0.46958 0.95765 0.03800
C 	C 	0.25774 0.51860 0.02272 -0.04000
C 	C 	0.28153 0.50097 0.99884 -0.00100
C 	C 	0.27356 0.48234 0.97584 -0.03900
H 	H 	0.29177 0.46859 0.95736 0.03800
C 	C 	0.24206 0.48136 0.97670 -0.03900
C 	C 	0.21827 0.49898 0.00059 -0.00100
C 	C 	0.22624 0.51762 0.02359 -0.03900
H 	H 	0.20802 0.53137 0.04206 0.03800
C 	C 	0.18507 0.49742 0.00202 0.02500
C 	C 	0.17104 0.50772 0.97485 -0.06700
C 	C 	0.13937 0.50680 0.97653 0.01100
C 	C 	0.12143 0.49560 0.00545 -0.08900
C 	C 	0.13568 0.48496 0.03247 0.01100
C 	C 	0.16731 0.48587 0.03072 -0.06800
C 	C 	0.31473 0.50249 0.99746 0.02500
C 	C 	0.33254 0.51405 0.96879 -0.06800
C 	C 	0.36416 0.51495 0.96711 0.01100
C 	C 	0.37836 0.50429 0.99416 -0.08900
C 	C 	0.36038 0.49306 0.02304 0.01100
C 	C 	0.32872 0.49215 0.02466 -0.06700
H 	H 	0.37771 0.52351 0.94458 0.03300
H 	H 	0.37091 0.48504 0.04419 0.02900
H 	H 	0.31513 0.48323 0.04692 0.04400
H 	H 	0.32188 0.52223 0.94776 0.04400
H 	H 	0.18460 0.51664 0.95255 0.04400
H 	H 	0.12880 0.51481 0.95540 0.02900
H 	H 	0.17800 0.47770 0.05174 0.04400
H 	H 	0.12216 0.47641 0.05503 0.03200
H 	H 	0.23615 0.46677 0.95898 0.03600
H 	H 	0.26365 0.53319 0.04045 0.03600
C 	C 	0.97536 0.51191 0.77238 -0.03900
C 	C 	0.00242 0.49690 0.78297 -0.00100
C 	C 	0.02947 0.48503 0.75896 -0.03900
H 	H 	0.05046 0.47340 0.76690 0.03700
C 	C 	0.02943 0.48805 0.72463 -0.03900
C 	C 	0.00234 0.50300 0.71405 -0.00100
C 	C 	0.97532 0.51493 0.73806 -0.03900
H 	H 	0.95432 0.52654 0.73012 0.03700
C 	C 	0.00203 0.50530 0.67784 0.02500
C 	C 	0.02260 0.52150 0.65646 -0.06700
C 	C 	0.02480 0.52084 0.62165 0.01400
C 	C 	0.00651 0.50384 0.60792 -0.09000
C 	C 	0.98463 0.48914 0.62954 0.01100
C 	C 	0.98246 0.48981 0.66433 -0.06700
C 	C 	0.00260 0.49428 0.81920 0.02500
C 	C 	0.02208 0.50962 0.83304 -0.06700
C 	C 	0.01958 0.51021 0.86789 0.01100
C 	C 	0.99743 0.49561 0.88923 -0.09000
C 	C 	0.97932 0.47866 0.87516 0.01400
C 	C 	0.98186 0.47806 0.84030 -0.06700
H 	H 	0.03412 0.52288 0.87836 0.02800
H 	H 	0.96227 0.46711 0.89127 0.04100
H 	H 	0.96709 0.46573 0.82978 0.04600
H 	H 	0.03842 0.52191 0.81689 0.04400
H 	H 	0.03747 0.53392 0.66673 0.04600
H 	H 	0.04167 0.53243 0.60532 0.04100
H 	H 	0.96627 0.47751 0.68068 0.04400
H 	H 	0.96999 0.47641 0.61931 0.02800
H 	H 	0.05034 0.47857 0.70627 0.03800
H 	H 	0.95444 0.52137 0.79075 0.03700
C 	C 	0.97014 0.51265 0.27454 -0.03900
C 	C 	0.99713 0.49707 0.28486 -0.00100
C 	C 	0.02395 0.48503 0.26065 -0.03900
H 	H 	0.04487 0.47294 0.26838 0.03700
C 	C 	0.02383 0.48858 0.22639 -0.03900
C 	C 	0.99687 0.50424 0.21606 -0.00100
C 	C 	0.97001 0.51620 0.24027 -0.03900
H 	H 	0.94911 0.52833 0.23254 0.03700
C 	C 	0.99659 0.50741 0.17990 0.02500
C 	C 	0.01761 0.52346 0.15897 -0.06700
C 	C 	0.02008 0.52326 0.12411 0.01400
C 	C 	0.00161 0.50689 0.10986 -0.09000
C 	C 	0.97916 0.49252 0.13105 0.01100
C 	C 	0.97674 0.49271 0.16589 -0.06700
C 	C 	0.99758 0.49430 0.32101 0.02500
C 	C 	0.01751 0.50924 0.33461 -0.06700
C 	C 	0.01542 0.50963 0.36940 0.01100
C 	C 	0.99325 0.49519 0.39093 -0.09000
C 	C 	0.97463 0.47867 0.37710 0.01400
C 	C 	0.97675 0.47829 0.34229 -0.06700
H 	H 	0.03030 0.52200 0.37970 0.02700
H 	H 	0.95754 0.46728 0.39337 0.04100
H 	H 	0.96161 0.46628 0.33195 0.04600
H 	H 	0.03391 0.52138 0.31833 0.04400
H 	H 	0.03268 0.53531 0.16963 0.04600
H 	H 	0.03737 0.53463 0.10813 0.04100
H 	H 	0.96016 0.48056 0.18190 0.04400
H 	H 	0.96435 0.48030 0.12043 0.02800
H 	H 	0.04459 0.47904 0.20786 0.03700
H 	H 	0.94939 0.52222 0.29307 0.03800
C 	C 	0.01954 0.75971 0.46885 -0.03900
C 	C 	0.00133 0.78088 0.49355 -0.00100
C 	C 	0.98224 0.77041 0.52206 -0.03900
H 	H 	0.96828 0.78657 0.54138 0.03800
C 	C 	0.98135 0.73902 0.52582 -0.03900
C 	C 	0.99957 0.71785 0.50112 -0.00100
C 	C 	0.01865 0.72833 0.47261 -0.03900
H 	H 	0.03261 0.71217 0.45329 0.03800
C 	C 	0.99805 0.68483 0.50462 0.02600
C 	C 	0.96996 0.67473 0.50413 -0.06800
C 	C 	0.96928 0.64325 0.50402 0.01200
C 	C 	0.99672 0.62155 0.50426 -0.08800
C 	C 	0.02446 0.63172 0.50650 0.01600
C 	C 	0.02510 0.66323 0.50663 -0.06700
C 	C 	0.00291 0.81389 0.49009 0.02600
C 	C 	0.97594 0.83553 0.48792 -0.06700
C 	C 	0.97666 0.86703 0.48797 0.01600
C 	C 	0.00440 0.87714 0.49029 -0.08800
C 	C 	0.03176 0.85540 0.49076 0.01200
C 	C 	0.03101 0.82393 0.49072 -0.06800
H 	H 	0.95537 0.88351 0.48751 0.03900
H 	H 	0.05340 0.86290 0.49208 0.01200
H 	H 	0.05202 0.80737 0.49211 0.04300
H 	H 	0.95424 0.82796 0.48699 0.04500
H 	H 	0.94889 0.69126 0.50287 0.04300
H 	H 	0.94763 0.63570 0.50279 0.01100
H 	H 	0.04679 0.67084 0.50748 0.04500
H 	H 	0.04580 0.61527 0.50682 0.03900
H 	H 	0.96658 0.73115 0.54792 0.03700
H 	H 	0.03432 0.76759 0.44675 0.03700
C 	C 	0.98074 0.23831 0.52550 -0.03900
C 	C 	0.99938 0.21780 0.50037 -0.00100
C 	C 	0.01865 0.22903 0.47254 -0.03900
H 	H 	0.03294 0.21339 0.45289 0.03800
C 	C 	0.01933 0.26052 0.46990 -0.03900
C 	C 	0.00072 0.28103 0.49504 -0.00100
C 	C 	0.98142 0.26980 0.52286 -0.03900
H 	H 	0.96714 0.28545 0.54251 0.03800
C 	C 	0.00202 0.31415 0.49272 0.02600
C 	C 	0.02992 0.32423 0.49412 -0.06800
C 	C 	0.03046 0.35572 0.49496 0.01200
C 	C 	0.00305 0.37743 0.49454 -0.08800
C 	C 	0.97549 0.36728 0.49159 0.01600
C 	C 	0.97499 0.33578 0.49073 -0.06700
C 	C 	0.99819 0.18467 0.50276 0.02600
C 	C 	0.02528 0.16313 0.50477 -0.06700
C 	C 	0.02496 0.13160 0.50378 0.01600
C 	C 	0.99750 0.12133 0.50068 -0.08800
C 	C 	0.97000 0.14293 0.50035 0.01200
C 	C 	0.97037 0.17444 0.50131 -0.06800
H 	H 	0.04634 0.11524 0.50418 0.03900
H 	H 	0.94856 0.13531 0.49847 0.01200
H 	H 	0.94926 0.19091 0.50003 0.04300
H 	H 	0.04677 0.17083 0.50633 0.04500
H 	H 	0.05097 0.30769 0.49541 0.04300
H 	H 	0.05197 0.36324 0.49676 0.01200
H 	H 	0.95344 0.32818 0.48923 0.04500
H 	H 	0.95417 0.38373 0.49116 0.03900
H 	H 	0.03426 0.26899 0.44831 0.03700
H 	H 	0.96582 0.22984 0.54709 0.03700
C 	C 	0.72592 0.01623 0.52435 -0.03900
C 	C 	0.71870 0.99928 0.49932 -0.00100
C 	C 	0.74301 0.98308 0.47482 -0.03900
H 	H 	0.73765 0.97001 0.45535 0.03600
C 	C 	0.77429 0.98384 0.47532 -0.03900
C 	C 	0.78151 0.00078 0.50035 -0.00100
C 	C 	0.75720 0.01698 0.52485 -0.03900
H 	H 	0.76256 0.03005 0.54432 0.03600
C 	C 	0.81451 0.00178 0.50068 0.02600
C 	C 	0.83523 0.97468 0.50536 -0.06800
C 	C 	0.86691 0.97530 0.50382 0.01600
C 	C 	0.87818 0.00309 0.49752 -0.08900
C 	C 	0.85719 0.03035 0.49382 0.01200
C 	C 	0.82552 0.02968 0.49534 -0.06800
C 	C 	0.68570 0.99827 0.49900 0.02600
C 	C 	0.67471 0.97037 0.50432 -0.06800
C 	C 	0.64304 0.96969 0.50585 0.01200
C 	C 	0.62203 0.99695 0.50218 -0.08900
C 	C 	0.63328 0.02475 0.49591 0.01600
C 	C 	0.66496 0.02538 0.49435 -0.06800
H 	H 	0.63476 0.94804 0.51030 0.01300
H 	H 	0.61739 0.04598 0.49308 0.03800
H 	H 	0.67332 0.04698 0.48995 0.04500
H 	H 	0.69059 0.94930 0.50779 0.04300
H 	H 	0.82687 0.95308 0.50978 0.04500
H 	H 	0.88279 0.95406 0.50668 0.03800
H 	H 	0.80964 0.05075 0.49183 0.04300
H 	H 	0.86548 0.05199 0.48935 0.01200
H 	H 	0.79291 0.97140 0.45619 0.03800
H 	H 	0.70730 0.02866 0.54348 0.03800
C 	C 	0.27109 0.00971 0.47261 -0.03900
C 	C 	0.28085 0.00110 0.50277 -0.00100
C 	C 	0.25985 0.99104 0.52987 -0.03900
H 	H 	0.26715 0.98442 0.55327 0.03700
C 	C 	0.22931 0.98963 0.52685 -0.03900
C 	C 	0.21954 0.99825 0.49669 -0.00100
C 	C 	0.24055 0.00830 0.46959 -0.03900
H 	H 	0.23325 0.01492 0.44618 0.03700
C 	C 	0.18721 0.99710 0.49368 0.02600
C 	C 	0.17666 0.96891 0.49643 -0.06800
C 	C 	0.14535 0.96810 0.49615 0.01200
C 	C 	0.12426 0.99547 0.49318 -0.08900
C 	C 	0.13516 0.02355 0.48912 0.01700
C 	C 	0.16649 0.02434 0.48941 -0.06800
C 	C 	0.31316 0.00233 0.50581 0.02600
C 	C 	0.33395 0.97513 0.51004 -0.06800
C 	C 	0.36525 0.97600 0.51038 0.01700
C 	C 	0.37606 0.00412 0.50638 -0.08900
C 	C 	0.35490 0.03146 0.50344 0.01200
C 	C 	0.32362 0.03056 0.50313 -0.06800
H 	H 	0.38128 0.95470 0.51261 0.03800
H 	H 	0.36284 0.05334 0.50079 0.01200
H 	H 	0.30762 0.05173 0.50030 0.04300
H 	H 	0.32604 0.95324 0.51225 0.04500
H 	H 	0.19261 0.94772 0.49928 0.04300
H 	H 	0.13735 0.94625 0.49886 0.01200
H 	H 	0.17446 0.04619 0.48716 0.04500
H 	H 	0.11918 0.04488 0.48686 0.03800
H 	H 	0.21318 0.98201 0.54797 0.03800
H 	H 	0.28722 0.01734 0.45148 0.03800
C 	C 	0.02016 0.73019 0.97299 -0.03900
C 	C 	0.00029 0.71956 0.00076 -0.00100
C 	C 	0.98113 0.74063 0.02502 -0.03900
H 	H 	0.96575 0.73264 0.04655 0.03700
C 	C 	0.98184 0.77208 0.02156 -0.03900
C 	C 	0.00169 0.78271 0.99378 -0.00100
C 	C 	0.02086 0.76163 0.96953 -0.03900
H 	H 	0.03624 0.76963 0.94799 0.03700
C 	C 	0.00302 0.81580 0.99063 0.02600
C 	C 	0.97615 0.83723 0.98754 -0.06700
C 	C 	0.97655 0.86879 0.98779 0.01600
C 	C 	0.00385 0.87918 0.99123 -0.08700
C 	C 	0.03114 0.85766 0.99264 0.01200
C 	C 	0.03071 0.82612 0.99241 -0.06800
C 	C 	0.99886 0.68649 0.00383 0.02600
C 	C 	0.97115 0.67627 0.00192 -0.06800
C 	C 	0.97062 0.64476 0.00157 0.01200
C 	C 	0.99785 0.62315 0.00302 -0.08800
C 	C 	0.02517 0.63343 0.00658 0.01600
C 	C 	0.02566 0.66497 0.00694 -0.06700
H 	H 	0.94930 0.63713 0.99927 0.01100
H 	H 	0.04634 0.61705 0.00781 0.04000
H 	H 	0.04705 0.67267 0.00885 0.04600
H 	H 	0.95027 0.69273 0.99978 0.04300
H 	H 	0.95477 0.82944 0.98572 0.04600
H 	H 	0.95533 0.88510 0.98658 0.04000
H 	H 	0.05164 0.80973 0.99453 0.04300
H 	H 	0.05246 0.86537 0.99483 0.01100
H 	H 	0.96714 0.78815 0.04055 0.03800
H 	H 	0.03485 0.71411 0.95400 0.03800
C 	C 	0.97873 0.24042 0.02455 -0.03900
C 	C 	0.99832 0.21994 0.99995 -0.00100
C 	C 	0.01845 0.23124 0.97291 -0.03900
H 	H 	0.03348 0.21562 0.95366 0.03800
C 	C 	0.01904 0.26275 0.97053 -0.03900
C 	C 	0.99948 0.28323 0.99515 -0.00100
C 	C 	0.97932 0.27194 0.02217 -0.03900
H 	H 	0.96430 0.28756 0.04143 0.03800
C 	C 	0.00075 0.31636 0.99321 0.02600
C 	C 	0.02824 0.32651 0.99613 -0.06800
C 	C 	0.02862 0.35801 0.99728 0.01200
C 	C 	0.00148 0.37967 0.99564 -0.08800
C 	C 	0.97438 0.36947 0.99120 0.01600
C 	C 	0.97403 0.33795 0.99004 -0.06700
C 	C 	0.99725 0.18677 0.00204 0.02600
C 	C 	0.02410 0.16535 0.00518 -0.06700
C 	C 	0.02396 0.13378 0.00407 0.01600
C 	C 	0.99693 0.12337 0.99973 -0.08800
C 	C 	0.96965 0.14486 0.99818 0.01200
C 	C 	0.96983 0.17641 0.99926 -0.06800
H 	H 	0.04517 0.11750 0.00540 0.03900
H 	H 	0.94853 0.13713 0.99531 0.01100
H 	H 	0.94892 0.19279 0.99708 0.04300
H 	H 	0.04526 0.17316 0.00775 0.04500
H 	H 	0.04905 0.31000 0.99835 0.04300
H 	H 	0.04979 0.36557 0.00025 0.01100
H 	H 	0.95280 0.33031 0.98738 0.04600
H 	H 	0.95327 0.38590 0.98983 0.04000
H 	H 	0.03464 0.27126 0.94956 0.03700
H 	H 	0.96314 0.23191 0.04552 0.03700
C 	C 	0.74179 0.98110 0.97748 -0.03900
C 	C 	0.71827 0.99868 0.00166 -0.00100
C 	C 	0.72657 0.01744 0.02429 -0.03900
H 	H 	0.70856 0.03115 0.04299 0.03800
C 	C 	0.75813 0.01860 0.02275 -0.03900
C 	C 	0.78165 0.00103 0.99856 -0.00100
C 	C 	0.77335 0.98226 0.97594 -0.03900
H 	H 	0.79136 0.96856 0.95723 0.03800
C 	C 	0.81489 0.00283 0.99637 0.02500
C 	C 	0.82957 0.99259 0.02310 -0.06700
C 	C 	0.86127 0.99381 0.02072 0.01100
C 	C 	0.87857 0.00527 0.99154 -0.08900
C 	C 	0.86369 0.01581 0.96495 0.01100
C 	C 	0.83203 0.01459 0.96740 -0.06800
C 	C 	0.68502 0.99693 0.00380 0.02500
C 	C 	0.66781 0.98522 0.03277 -0.06800
C 	C 	0.63615 0.98407 0.03517 0.01100
C 	C 	0.62132 0.99461 0.00854 -0.08900
C 	C 	0.63869 0.00601 0.97936 0.01100
C 	C 	0.67040 0.00718 0.97703 -0.06700
H 	H 	0.62306 0.97539 0.05792 0.03300
H 	H 	0.62766 0.01396 0.95853 0.02900
H 	H 	0.68353 0.01622 0.95454 0.04400
H 	H 	0.67897 0.97712 0.05348 0.04400
H 	H 	0.81648 0.98350 0.04560 0.04400
H 	H 	0.87234 0.98587 0.04152 0.02900
H 	H 	0.82083 0.02270 0.94671 0.04400
H 	H 	0.87672 0.02453 0.94219 0.03200
H 	H 	0.76431 0.03329 0.04018 0.03600
H 	H 	0.73561 0.96642 0.96004 0.03600
C 	C 	0.24378 0.98247 0.97444 -0.03900
C 	C 	0.21890 0.99918 0.99793 -0.00100
C 	C 	0.22530 0.01664 0.02306 -0.03900
H 	H 	0.20624 0.02948 0.04142 0.03800
C 	C 	0.25634 0.01740 0.02467 -0.03900
C 	C 	0.28122 0.00069 0.00117 -0.00100
C 	C 	0.27482 0.98322 0.97604 -0.03900
H 	H 	0.29389 0.97038 0.95769 0.03800
C 	C 	0.31397 0.00165 0.00269 0.02600
C 	C 	0.32524 0.02941 0.99727 -0.06800
C 	C 	0.35671 0.03002 0.99697 0.01200
C 	C 	0.37725 0.00284 0.00201 -0.08900
C 	C 	0.36570 0.97520 0.00834 0.01600
C 	C 	0.33422 0.97463 0.00866 -0.06800
C 	C 	0.18615 0.99822 0.99641 0.02600
C 	C 	0.16590 0.02523 0.99045 -0.06800
C 	C 	0.13440 0.02469 0.99084 0.01600
C 	C 	0.12284 0.99706 0.99723 -0.08900
C 	C 	0.14339 0.96986 0.00223 0.01200
C 	C 	0.17487 0.97046 0.00187 -0.06800
H 	H 	0.11887 0.04587 0.98699 0.03900
H 	H 	0.13488 0.94834 0.00679 0.01300
H 	H 	0.19038 0.94946 0.00636 0.04300
H 	H 	0.17448 0.04672 0.98593 0.04500
H 	H 	0.30973 0.05041 0.99277 0.04300
H 	H 	0.36520 0.05155 0.99246 0.01300
H 	H 	0.32565 0.95314 0.01315 0.04500
H 	H 	0.38124 0.95401 0.01221 0.03900
H 	H 	0.26106 0.03086 0.04421 0.03600
H 	H 	0.23906 0.96900 0.95489 0.03600
C 	C 	0.03006 0.98850 0.72048 -0.03900
C 	C 	0.00292 0.00306 0.70974 -0.00100
C 	C 	0.97572 0.01475 0.73364 -0.03900
H 	H 	0.95467 0.02606 0.72558 0.03700
C 	C 	0.97564 0.01189 0.76800 -0.03900
C 	C 	0.00277 0.99728 0.77874 -0.00100
C 	C 	0.02999 0.98564 0.75484 -0.03900
H 	H 	0.05102 0.97431 0.76290 0.03700
C 	C 	0.00281 0.99481 0.81500 0.02500
C 	C 	0.98235 0.97828 0.83604 -0.06700
C 	C 	0.97976 0.97886 0.87091 0.01400
C 	C 	0.99756 0.99612 0.88505 -0.09000
C 	C 	0.01940 0.01112 0.86378 0.01100
C 	C 	0.02195 0.01054 0.82892 -0.06700
C 	C 	0.00276 0.00523 0.67349 0.02500
C 	C 	0.98347 0.98945 0.65989 -0.06700
C 	C 	0.98576 0.98871 0.62508 0.01100
C 	C 	0.00750 0.00362 0.60353 -0.09000
C 	C 	0.02551 0.02088 0.61734 0.01400
C 	C 	0.02318 0.02162 0.65217 -0.06700
H 	H 	0.97133 0.97578 0.61480 0.02800
H 	H 	0.04227 0.03263 0.60107 0.04100
H 	H 	0.03783 0.03425 0.66251 0.04600
H 	H 	0.96738 0.97700 0.67619 0.04400
H 	H 	0.96783 0.96567 0.82545 0.04600
H 	H 	0.96294 0.96703 0.88696 0.04100
H 	H 	0.03807 0.02309 0.81283 0.04400
H 	H 	0.03368 0.02404 0.87432 0.02800
H 	H 	0.95459 0.02116 0.78627 0.03700
H 	H 	0.05111 0.97921 0.70221 0.03800
C 	C 	0.02632 0.98570 0.25580 -0.03900
C 	C 	0.99932 0.99748 0.27992 -0.00100
C 	C 	0.97229 0.01276 0.26946 -0.03900
H 	H 	0.95140 0.02214 0.28790 0.03800
C 	C 	0.97227 0.01621 0.23516 -0.03900
C 	C 	0.99928 0.00445 0.21104 -0.00100
C 	C 	0.02630 0.98915 0.22150 -0.03900
H 	H 	0.04719 0.97978 0.20306 0.03800
C 	C 	0.99906 0.00737 0.17483 0.02500
C 	C 	0.97943 0.99230 0.16089 -0.06700
C 	C 	0.98186 0.99196 0.12604 0.01100
C 	C 	0.00408 0.00656 0.10479 -0.09000
C 	C 	0.02234 0.02325 0.11897 0.01400
C 	C 	0.01987 0.02359 0.15383 -0.06700
C 	C 	0.99960 0.99470 0.31612 0.02500
C 	C 	0.97886 0.97850 0.33725 -0.06700
C 	C 	0.97662 0.97878 0.37208 0.01400
C 	C 	0.99504 0.99540 0.38609 -0.09000
C 	C 	0.01711 0.01007 0.36472 0.01100
C 	C 	0.01932 0.00978 0.32991 -0.06700
H 	H 	0.95960 0.96722 0.38822 0.04100
H 	H 	0.03184 0.02253 0.37516 0.02800
H 	H 	0.03565 0.02208 0.31376 0.04400
H 	H 	0.96388 0.96639 0.32676 0.04600
H 	H 	0.96303 0.98000 0.17695 0.04400
H 	H 	0.96723 0.97948 0.11548 0.02800
H 	H 	0.03477 0.03570 0.16444 0.04600
H 	H 	0.03944 0.03478 0.10293 0.04100
H 	H 	0.95131 0.02807 0.22732 0.03700
H 	H 	0.04728 0.97385 0.26364 0.03700
