data_crystal

_cell_length_a 40.82018
_cell_length_b 41.78048
_cell_length_c 32.18880
_cell_angle_alpha 90.67174
_cell_angle_beta  89.26628
_cell_angle_gamma 119.93486

_symmetry_space_group_name_	'P 1'
_symmetry_space_group_name_H-M	'P 1'

loop_
_symmetry_equiv_pos_as_xyz
  x,y,z

loop_
_atom_site_label
_atom_site_type_symbol
_atom_site_fract_x
_atom_site_fract_y
_atom_site_fract_z
_atom_site_charge
O 	O 	0.37691 0.22390 0.02563 -0.38000
C 	C 	0.39209 0.25312 0.00124 0.25300
O 	O 	0.37573 0.22868 0.53414 -0.37800
C 	C 	0.38840 0.26391 0.52596 0.24900
Ni	Ni	0.20548 0.77033 0.89291 1.09700
O 	O 	0.24262 0.82581 0.89615 -0.70800
Ni	Ni	0.24971 0.83349 0.95747 1.09800
O 	O 	0.20234 0.77165 0.82940 -0.34400
O 	O 	0.18699 0.81709 0.83236 -0.39800
O 	O 	0.24992 0.76058 0.88395 -0.35500
Ni	Ni	0.21999 0.85496 0.87773 1.06700
O 	O 	0.20644 0.70509 0.93506 -0.38900
O 	O 	0.17350 0.82864 0.91529 -0.39000
O 	O 	0.28750 0.88852 0.95474 -0.37000
O 	O 	0.21001 0.77820 0.95536 -0.69800
O 	O 	0.16828 0.71498 0.89264 -0.36800
O 	O 	0.26178 0.83564 0.01931 -0.35600
O 	O 	0.25293 0.77833 0.03092 -0.37500
Ni	Ni	0.22876 0.74667 0.97797 1.06900
H 	H 	0.26685 0.83336 0.88153 0.16300
H 	H 	0.18545 0.77222 0.96817 0.15200
C 	C 	0.17557 0.83184 0.95581 0.25600
O 	O 	0.27893 0.77500 0.94716 -0.39100
C 	C 	0.19814 0.79724 0.81093 0.24600
C 	C 	0.27950 0.91109 0.93473 0.25200
C 	C 	0.28086 0.77679 0.90642 0.24000
C 	C 	0.24844 0.80613 0.04265 0.24900
C 	C 	0.17316 0.69352 0.91819 0.25000
O 	O 	0.20830 0.84568 0.97458 -0.36500
O 	O 	0.24576 0.89869 0.91810 -0.38200
Ni	Ni	0.20352 0.80851 0.39799 1.09900
O 	O 	0.23264 0.86481 0.39897 -0.70600
Ni	Ni	0.23591 0.87544 0.45987 1.10000
O 	O 	0.20538 0.80839 0.33452 -0.35800
O 	O 	0.17764 0.84435 0.33046 -0.38800
O 	O 	0.25613 0.81318 0.39863 -0.35600
Ni	Ni	0.20660 0.88760 0.37288 1.06800
O 	O 	0.16628 0.74258 0.46720 -0.41200
O 	O 	0.15912 0.86283 0.40975 -0.39700
O 	O 	0.27072 0.93089 0.45540 -0.34700
O 	O 	0.19931 0.81949 0.45855 -0.69800
O 	O 	0.17783 0.75170 0.39684 -0.35200
O 	O 	0.24310 0.87846 0.52312 -0.34700
O 	O 	0.25661 0.83181 0.52109 -0.41200
Ni	Ni	0.20970 0.78775 0.49390 1.06800
H 	H 	0.25834 0.87495 0.38692 0.16300
H 	H 	0.17304 0.81366 0.46418 0.15600
C 	C 	0.16001 0.86875 0.44996 0.25300
O 	O 	0.24578 0.77971 0.45714 -0.38700
C 	C 	0.19217 0.82569 0.31226 0.24300
C 	C 	0.26527 0.94890 0.42528 0.24300
C 	C 	0.26909 0.80526 0.43168 0.25800
C 	C 	0.25360 0.85739 0.54197 0.24700
C 	C 	0.17001 0.73075 0.43015 0.26800
O 	O 	0.19226 0.88590 0.46965 -0.34800
O 	O 	0.23148 0.93522 0.40790 -0.39000
Ni	Ni	0.23368 0.41873 0.97260 1.10100
O 	O 	0.19832 0.44004 0.97244 -0.70600
Ni	Ni	0.20442 0.45716 0.91371 1.10000
O 	O 	0.24254 0.42519 0.03539 -0.35300
O 	O 	0.25790 0.48569 0.03173 -0.40300
O 	O 	0.18791 0.36650 0.98193 -0.35900
Ni	Ni	0.20836 0.48140 0.00886 1.07100
O 	O 	0.22573 0.35353 0.91903 -0.39200
O 	O 	0.23938 0.52664 0.97213 -0.38800
O 	O 	0.17945 0.48952 0.91750 -0.35000
O 	O 	0.23223 0.42789 0.91221 -0.70600
O 	O 	0.26671 0.39521 0.96691 -0.35300
O 	O 	0.20759 0.46154 0.85038 -0.35700
O 	O 	0.17896 0.39866 0.84259 -0.38200
Ni	Ni	0.20493 0.38041 0.88430 1.06900
H 	H 	0.17174 0.42050 0.97676 0.15700
H 	H 	0.25820 0.44243 0.90078 0.16400
C 	C 	0.26540 0.52907 0.94610 0.26900
O 	O 	0.15800 0.36210 0.92080 -0.39400
C 	C 	0.25779 0.45842 0.05208 0.23800
C 	C 	0.15776 0.48927 0.94877 0.25700
C 	C 	0.15705 0.35163 0.95924 0.25500
C 	C 	0.19562 0.43209 0.82630 0.24000
C 	C 	0.25906 0.36983 0.93788 0.24300
O 	O 	0.25734 0.50294 0.91841 -0.36700
O 	O 	0.16089 0.47934 0.98695 -0.40700
Ni	Ni	0.23849 0.42722 0.46519 1.10100
O 	O 	0.20843 0.45385 0.45718 -0.70200
Ni	Ni	0.22485 0.47456 0.39988 1.09900
O 	O 	0.23346 0.42512 0.52869 -0.36100
O 	O 	0.25483 0.48678 0.53114 -0.39300
O 	O 	0.18962 0.37658 0.46192 -0.35000
Ni	Ni	0.21739 0.49411 0.49509 1.07300
O 	O 	0.23577 0.36373 0.41150 -0.39300
O 	O 	0.26027 0.54029 0.46694 -0.38400
O 	O 	0.20468 0.51128 0.39677 -0.36300
O 	O 	0.24842 0.44125 0.40535 -0.69800
O 	O 	0.26800 0.40010 0.46738 -0.35500
O 	O 	0.23912 0.48310 0.33796 -0.34300
O 	O 	0.21348 0.42147 0.32437 -0.39800
Ni	Ni	0.22511 0.39585 0.37227 1.06800
H 	H 	0.18094 0.43619 0.45689 0.15800
H 	H 	0.27602 0.45496 0.40005 0.16000
C 	C 	0.28680 0.54021 0.44357 0.26700
O 	O 	0.17215 0.37806 0.39518 -0.40200
C 	C 	0.24305 0.45530 0.55037 0.24600
C 	C 	0.18726 0.51838 0.42772 0.26200
C 	C 	0.16320 0.36826 0.43410 0.25200
C 	C 	0.23708 0.45611 0.31461 0.24500
C 	C 	0.26485 0.37713 0.43726 0.24700
O 	O 	0.27823 0.51621 0.41322 -0.37500
O 	O 	0.17864 0.49990 0.46283 -0.39700
C 	C 	0.17741 0.42306 0.71844 0.11700
C 	C 	0.17646 0.40625 0.68022 -0.08800
C 	C 	0.19328 0.42908 0.64578 0.00800
C 	C 	0.21455 0.46690 0.64983 0.11200
C 	C 	0.21813 0.48366 0.68873 -0.08800
C 	C 	0.19679 0.46117 0.72199 0.01100
O 	O 	0.17236 0.40490 0.75586 -0.19400
C 	C 	0.19115 0.43567 0.78183 0.04700
C 	C 	0.20572 0.46920 0.76215 -0.05600
O 	O 	0.24070 0.48394 0.61793 -0.19900
C 	C 	0.23327 0.45257 0.59465 0.03600
C 	C 	0.20610 0.41980 0.61200 -0.06000
H 	H 	0.16554 0.37673 0.67812 0.06800
H 	H 	0.23837 0.51266 0.69343 0.06800
H 	H 	0.22862 0.49508 0.77382 0.06300
H 	H 	0.19186 0.39316 0.59650 0.06300
C 	C 	0.29478 0.45674 0.14951 0.11600
C 	C 	0.28703 0.43741 0.18691 -0.09000
C 	C 	0.28841 0.45599 0.22396 0.01300
C 	C 	0.29296 0.49109 0.22371 0.11300
C 	C 	0.29920 0.50988 0.18612 -0.08700
C 	C 	0.30223 0.49288 0.14955 0.01000
O 	O 	0.28123 0.43841 0.11193 -0.18500
C 	C 	0.28016 0.46643 0.08995 0.04500
C 	C 	0.29291 0.49899 0.11184 -0.06000
O 	O 	0.27673 0.49877 0.25784 -0.18400
C 	C 	0.26108 0.46466 0.27754 0.03700
C 	C 	0.26814 0.43923 0.25805 -0.07200
H 	H 	0.27678 0.40797 0.18673 0.06600
H 	H 	0.29822 0.53530 0.18491 0.06600
H 	H 	0.28493 0.51959 0.10537 0.04800
H 	H 	0.25146 0.40958 0.26215 0.03800
C 	C 	0.02798 0.29154 0.42137 -0.09000
C 	C 	0.06242 0.31534 0.44069 0.01100
C 	C 	0.07351 0.30540 0.47619 0.11400
C 	C 	0.04936 0.27161 0.49529 -0.08600
C 	C 	0.01446 0.24798 0.47655 0.01000
O 	O 	0.11236 0.32415 0.48217 -0.18600
C 	C 	0.12335 0.34556 0.44620 0.03900
C 	C 	0.09388 0.34055 0.42126 -0.06400
H 	H 	0.01970 0.29962 0.39330 0.06500
H 	H 	0.05765 0.26374 0.52351 0.06700
H 	H 	0.09618 0.34663 0.38837 0.05700
C 	C 	0.04568 0.27991 0.04360 -0.08900
C 	C 	0.07549 0.28625 0.01631 0.01200
C 	C 	0.06858 0.27138 0.97671 0.11400
C 	C 	0.03144 0.24705 0.96411 -0.08600
O 	O 	0.09757 0.29141 0.94847 -0.19000
C 	C 	0.12246 0.31962 0.97495 0.04000
C 	C 	0.10956 0.31710 0.01529 -0.05200
H 	H 	0.05061 0.29647 0.07144 0.06600
H 	H 	0.02517 0.23861 0.93189 0.06900
H 	H 	0.11892 0.34015 0.03674 0.04700
O 	O 	0.35528 0.57052 0.45926 -0.19500
C 	C 	0.32464 0.57276 0.44362 0.04500
C 	C 	0.33476 0.59995 0.41413 -0.05100
H 	H 	0.31556 0.60185 0.39268 0.05900
C 	C 	0.30161 0.56384 0.94352 0.04300
C 	C 	0.30717 0.59593 0.96246 -0.05700
H 	H 	0.28560 0.60346 0.96768 0.05800
O 	O 	0.33609 0.83363 0.40604 -0.18300
C 	C 	0.30995 0.82312 0.43873 0.03500
C 	C 	0.17620 0.59413 0.44951 0.11800
C 	C 	0.16213 0.61518 0.46867 -0.08900
C 	C 	0.17346 0.65006 0.45197 0.00800
C 	C 	0.19202 0.66078 0.41439 0.11800
C 	C 	0.20301 0.63802 0.39320 -0.08500
C 	C 	0.19747 0.60621 0.41374 0.00900
O 	O 	0.16223 0.55704 0.45768 -0.19300
C 	C 	0.17835 0.54822 0.42387 0.04300
C 	C 	0.19761 0.57702 0.39622 -0.05500
O 	O 	0.18916 0.68893 0.39538 -0.17900
C 	C 	0.16772 0.69463 0.42591 0.04000
C 	C 	0.15664 0.67013 0.45867 -0.05800
H 	H 	0.14238 0.60439 0.49449 0.06500
H 	H 	0.21428 0.64426 0.36184 0.07100
H 	H 	0.21791 0.57875 0.37305 0.06300
H 	H 	0.14567 0.67319 0.48836 0.04800
C 	C 	0.08292 0.83974 0.52000 0.11800
C 	C 	0.05936 0.81485 0.55043 -0.09000
C 	C 	0.02010 0.79899 0.54608 0.00900
C 	C 	0.00463 0.80349 0.51022 0.11600
C 	C 	0.02827 0.82602 0.47826 -0.08700
C 	C 	0.06735 0.84585 0.48520 0.01100
O 	O 	0.12021 0.84817 0.51449 -0.19600
C 	C 	0.12494 0.85867 0.47285 0.04300
C 	C 	0.09385 0.85750 0.45513 -0.05700
H 	H 	0.07113 0.80622 0.57496 0.06300
H 	H 	0.01682 0.82601 0.44808 0.07000
H 	H 	0.08835 0.85559 0.42208 0.05700
O 	O 	0.34703 0.82753 0.89807 -0.20500
C 	C 	0.31790 0.79273 0.88603 0.04300
C 	C 	0.33022 0.77050 0.86779 -0.05300
H 	H 	0.31398 0.74057 0.86743 0.05900
C 	C 	0.11411 0.53761 0.91253 0.11400
C 	C 	0.11912 0.56630 0.88627 -0.08200
C 	C 	0.11769 0.59650 0.90381 0.00500
C 	C 	0.11652 0.60054 0.94636 0.12400
C 	C 	0.11318 0.57261 0.97274 -0.09800
C 	C 	0.10956 0.54022 0.95483 0.01400
O 	O 	0.12774 0.51406 0.90183 -0.18400
C 	C 	0.13202 0.50365 0.94157 0.04600
C 	C 	0.12087 0.51873 0.97323 -0.06400
O 	O 	0.13292 0.63705 0.95957 -0.21300
C 	C 	0.14434 0.65448 0.92111 0.04200
C 	C 	0.13543 0.63067 0.88777 -0.05000
H 	H 	0.12712 0.56655 0.85400 0.07000
H 	H 	0.11666 0.57732 0.00597 0.06600
H 	H 	0.13132 0.52279 0.00477 0.05400
H 	H 	0.15055 0.63792 0.85833 0.06100
C 	C 	0.08280 0.80206 0.98746 0.11700
C 	C 	0.04730 0.79940 0.98874 -0.09200
C 	C 	0.02409 0.78272 0.02362 0.01400
C 	C 	0.03554 0.76853 0.05546 0.11600
C 	C 	0.07209 0.77311 0.05474 -0.08800
C 	C 	0.09434 0.78874 0.01923 0.00600
O 	O 	0.11153 0.82504 0.96051 -0.18600
C 	C 	0.14171 0.82413 0.97967 0.03700
C 	C 	0.13185 0.80371 0.01588 -0.05400
H 	H 	0.03768 0.80913 0.96315 0.07000
H 	H 	0.08153 0.76231 0.07942 0.06300
H 	H 	0.14834 0.79331 0.03069 0.04100
C 	C 	0.21929 0.80182 0.70440 0.11300
C 	C 	0.24699 0.80821 0.67440 -0.09300
C 	C 	0.25860 0.83829 0.64758 0.00900
C 	C 	0.24225 0.86034 0.64929 0.11400
C 	C 	0.21494 0.85418 0.67972 -0.09100
C 	C 	0.20269 0.82357 0.70573 0.00800
O 	O 	0.21669 0.78406 0.74151 -0.18700
C 	C 	0.19784 0.79806 0.76546 0.04200
C 	C 	0.18920 0.82142 0.74430 -0.06100
O 	O 	0.24335 0.87689 0.61179 -0.18400
C 	C 	0.25990 0.86115 0.58690 0.03800
C 	C 	0.26985 0.83878 0.60818 -0.06200
H 	H 	0.25970 0.79084 0.67259 0.06500
H 	H 	0.20215 0.87148 0.68155 0.06700
H 	H 	0.18462 0.84243 0.75881 0.04800
H 	H 	0.27328 0.81696 0.59398 0.04500
C 	C 	0.19401 0.82657 0.20327 0.11800
C 	C 	0.21442 0.84683 0.16840 -0.09000
C 	C 	0.23233 0.83235 0.14343 0.01200
C 	C 	0.22745 0.79774 0.15014 0.11800
C 	C 	0.20610 0.77691 0.18414 -0.09000
C 	C 	0.18894 0.79172 0.20997 0.01200
O 	O 	0.19102 0.84385 0.23909 -0.20200
C 	C 	0.18522 0.81680 0.26795 0.05100
C 	C 	0.18343 0.78554 0.25086 -0.06000
O 	O 	0.23380 0.78173 0.11520 -0.19600
C 	C 	0.24233 0.80999 0.08690 0.04500
C 	C 	0.24142 0.84019 0.10331 -0.05700
H 	H 	0.21822 0.87395 0.16252 0.06700
H 	H 	0.20258 0.74990 0.19004 0.06800
H 	H 	0.18912 0.76648 0.26759 0.06800
H 	H 	0.23716 0.85967 0.08554 0.06300
C 	C 	0.34738 0.03668 0.41463 0.11700
C 	C 	0.38049 0.06561 0.43168 -0.08800
C 	C 	0.38743 0.10182 0.42696 0.01500
C 	C 	0.36019 0.10877 0.41147 0.11500
C 	C 	0.32581 0.07946 0.39715 -0.08400
C 	C 	0.32138 0.04389 0.39617 0.01000
O 	O 	0.33232 0.00046 0.42791 -0.18900
C 	C 	0.29485 0.98690 0.41620 0.04400
C 	C 	0.28795 0.01235 0.39727 -0.06400
O 	O 	0.36343 0.14183 0.42549 -0.18000
C 	C 	0.39461 0.15352 0.45140 0.04400
C 	C 	0.40901 0.12995 0.45254 -0.06900
H 	H 	0.39878 0.05989 0.45049 0.06900
H 	H 	0.30253 0.08383 0.38976 0.06900
H 	H 	0.26057 0.01054 0.39581 0.05800
H 	H 	0.42528 0.12837 0.47799 0.04900
C 	C 	0.33039 0.35061 0.46489 0.12200
C 	C 	0.35535 0.35338 0.49599 -0.08700
C 	C 	0.34832 0.32110 0.51646 0.01600
C 	C 	0.31908 0.28693 0.50472 0.11500
C 	C 	0.29347 0.28425 0.47430 -0.08200
C 	C 	0.30063 0.31661 0.45377 0.01000
O 	O 	0.32520 0.37998 0.45508 -0.19300
C 	C 	0.28891 0.36038 0.43842 0.04000
C 	C 	0.27406 0.32256 0.43731 -0.05700
O 	O 	0.32569 0.25801 0.51264 -0.18100
C 	C 	0.36216 0.27821 0.52886 0.04300
C 	C 	0.37543 0.31566 0.53198 -0.06300
H 	H 	0.37891 0.38000 0.50475 0.06800
H 	H 	0.26992 0.25766 0.46548 0.06900
H 	H 	0.24408 0.30254 0.43736 0.06000
C 	C 	0.31616 0.00683 0.94389 0.12200
C 	C 	0.33255 0.04328 0.92987 -0.09100
C 	C 	0.35937 0.07148 0.95533 0.01200
C 	C 	0.36799 0.06406 0.99417 0.10600
C 	C 	0.35229 0.02749 0.00759 -0.07700
C 	C 	0.32528 0.99952 0.98228 0.00600
O 	O 	0.30067 0.97659 0.91708 -0.19800
C 	C 	0.30254 0.95079 0.94283 0.04700
C 	C 	0.31717 0.96433 0.98162 -0.05600
O 	O 	0.38062 0.09348 0.02194 -0.18900
C 	C 	0.37794 0.11877 0.99628 0.02800
C 	C 	0.36578 0.10621 0.95655 -0.05900
H 	H 	0.32525 0.04939 0.89990 0.06700
H 	H 	0.35932 0.02129 0.03765 0.06700
H 	H 	0.32646 0.95131 0.00385 0.06500
C 	C 	0.32518 0.28152 0.98243 0.11400
C 	C 	0.29340 0.27766 0.96166 -0.08400
C 	C 	0.29632 0.30884 0.94208 0.01100
C 	C 	0.32830 0.34312 0.94571 0.11800
C 	C 	0.36039 0.34685 0.96567 -0.08800
C 	C 	0.35760 0.31558 0.98486 0.01400
O 	O 	0.33113 0.25192 0.98838 -0.18500
C 	C 	0.37039 0.27160 0.99293 0.04300
C 	C 	0.38644 0.30943 0.99111 -0.06900
O 	O 	0.32160 0.37246 0.94165 -0.19300
C 	C 	0.28257 0.35237 0.93519 0.04600
C 	C 	0.26725 0.31454 0.93550 -0.05900
H 	H 	0.26777 0.25107 0.95966 0.06800
H 	H 	0.38600 0.37345 0.96773 0.06700
H 	H 	0.41593 0.32870 0.98438 0.05300
H 	H 	0.23798 0.29492 0.94281 0.06200
C 	C 	0.32477 0.82489 0.47748 -0.05800
H 	H 	0.30853 0.80920 0.50422 0.05500
H 	H 	0.35341 0.11748 0.93582 0.06200
O 	O 	0.33478 0.56514 0.92915 -0.19000
C 	C 	0.34440 0.61940 0.96073 0.01000
H 	H 	0.34822 0.67185 0.97580 0.06600
O 	O 	0.39713 0.18230 0.98331 -0.36500
O 	O 	0.42039 0.25918 0.97619 -0.36800
Ni	Ni	0.40557 0.21498 0.07166 1.06600
O 	O 	0.39062 0.16345 0.05030 -0.38800
C 	C 	0.38870 0.15613 0.01047 0.25800
O 	O 	0.41075 0.21506 0.47164 -0.34700
O 	O 	0.42007 0.28310 0.50480 -0.36700
Ni	Ni	0.40488 0.20970 0.56774 1.06800
O 	O 	0.40144 0.17390 0.52228 -0.39400
C 	C 	0.40399 0.18228 0.48289 0.25100
H 	H 	0.40513 0.33654 0.53271 0.05500
H 	H 	0.41084 0.25066 0.28086 0.06800
H 	H 	0.40944 0.22804 0.20040 0.04400
O 	O 	0.42133 0.20015 0.12621 -0.39400
O 	O 	0.42070 0.18016 0.60620 -0.38300
C 	C 	0.39642 0.64943 0.39172 -0.08300
C 	C 	0.37190 0.61416 0.40753 0.00900
C 	C 	0.38402 0.59744 0.43501 0.12100
C 	C 	0.42216 0.61474 0.44630 -0.09100
H 	H 	0.38560 0.66502 0.37605 0.07100
H 	H 	0.43121 0.60422 0.47164 0.06800
C 	C 	0.36055 0.60129 0.94082 0.11600
C 	C 	0.39679 0.62141 0.92311 -0.08600
C 	C 	0.39802 0.67827 0.94354 0.11800
C 	C 	0.36164 0.65798 0.96076 -0.08700
C 	C 	0.38318 0.82734 0.49674 -0.09100
C 	C 	0.36146 0.83651 0.47123 0.01500
C 	C 	0.36798 0.84127 0.42884 0.11400
C 	C 	0.39887 0.83999 0.41094 -0.08200
C 	C 	0.42022 0.83059 0.43665 0.01000
H 	H 	0.37706 0.82240 0.52963 0.06600
H 	H 	0.40474 0.84421 0.37794 0.07000
C 	C 	0.37789 0.82378 0.88695 0.12100
C 	C 	0.41276 0.84403 0.90713 -0.08800
C 	C 	0.42582 0.79453 0.89253 0.12000
C 	C 	0.39169 0.77454 0.87118 -0.08500
C 	C 	0.36819 0.79017 0.86828 0.00900
H 	H 	0.42068 0.87030 0.92191 0.06600
H 	H 	0.38345 0.74768 0.85782 0.07000
C 	C 	0.41352 0.16498 0.77054 -0.08900
O 	O 	0.41698 0.17200 0.69517 -0.20000
C 	C 	0.43046 0.18254 0.84270 -0.06000
H 	H 	0.38709 0.16514 0.77249 0.06700
H 	H 	0.40858 0.18928 0.84984 0.06400
C 	C 	0.43954 0.25578 0.27840 -0.08700
O 	O 	0.45748 0.28390 0.34718 -0.18000
C 	C 	0.43319 0.22576 0.21135 -0.05800
H 	H 	0.41021 0.60744 0.90835 0.06700
C 	C 	0.41308 0.82487 0.47842 0.12400
O 	O 	0.44787 0.22257 0.92032 -0.35300
Ni	Ni	0.44827 0.23052 0.98350 1.09700
C 	C 	0.42935 0.16438 0.73183 0.11900
C 	C 	0.43448 0.16878 0.80632 0.01000
Ni	Ni	0.45559 0.26303 0.49424 1.09800
O 	O 	0.46229 0.28105 0.43404 -0.33900
O 	O 	0.47525 0.20129 0.99596 -0.70200
Ni	Ni	0.48358 0.21028 0.05765 1.09900
O 	O 	0.45609 0.23873 0.04531 -0.70200
O 	O 	0.48402 0.21846 0.12058 -0.34400
H 	H 	0.46021 0.17462 0.98935 0.15800
H 	H 	0.47091 0.26531 0.05249 0.15700
C 	C 	0.47364 0.21733 0.90159 0.24600
C 	C 	0.45571 0.21758 0.14146 0.24800
O 	O 	0.49054 0.24105 0.48825 -0.70200
Ni	Ni	0.49270 0.22775 0.54808 1.09600
O 	O 	0.45670 0.24833 0.55331 -0.70500
O 	O 	0.48514 0.21085 0.60888 -0.35700
H 	H 	0.48083 0.21928 0.46958 0.15500
H 	H 	0.46584 0.26973 0.57249 0.15500
C 	C 	0.49295 0.29015 0.41201 0.24900
C 	C 	0.45201 0.19500 0.62784 0.24600
C 	C 	0.43514 0.66539 0.40010 0.11400
C 	C 	0.44771 0.64756 0.42586 0.01400
O 	O 	0.45957 0.70325 0.39754 -0.18000
C 	C 	0.48726 0.70671 0.42523 0.04300
C 	C 	0.48057 0.67366 0.44194 -0.06300
H 	H 	0.49199 0.67108 0.47113 0.05900
C 	C 	0.41472 0.66020 0.92426 0.01100
O 	O 	0.42364 0.71355 0.95753 -0.18500
C 	C 	0.45722 0.71453 0.94598 0.04800
C 	C 	0.45230 0.68300 0.92600 -0.05100
H 	H 	0.47312 0.67411 0.92490 0.05900
O 	O 	0.44293 0.82718 0.50099 -0.20100
C 	C 	0.46898 0.83539 0.46844 0.04800
C 	C 	0.45604 0.83896 0.43019 -0.05200
H 	H 	0.46802 0.83794 0.40031 0.06800
C 	C 	0.43520 0.82764 0.91086 0.01000
O 	O 	0.45572 0.78768 0.88871 -0.18300
C 	C 	0.48402 0.82027 0.90718 0.04200
C 	C 	0.47217 0.84490 0.91880 -0.05700
H 	H 	0.48686 0.86828 0.93963 0.05300
C 	C 	0.47174 0.17708 0.80368 0.11600
C 	C 	0.48845 0.17913 0.76480 -0.08800
C 	C 	0.46573 0.17008 0.72945 0.01100
C 	C 	0.44975 0.18384 0.67127 0.04700
C 	C 	0.47876 0.18260 0.69115 -0.05600
O 	O 	0.49314 0.19578 0.83815 -0.19900
C 	C 	0.46548 0.19869 0.86106 0.04200
C 	C 	0.46704 0.27877 0.30711 0.11500
C 	C 	0.44951 0.23743 0.24853 0.01000
C 	C 	0.48597 0.24389 0.24479 0.11600
C 	C 	0.50375 0.28564 0.30306 0.01100
C 	C 	0.49147 0.29349 0.36693 0.04400
C 	C 	0.51924 0.29494 0.34087 -0.06000
O 	O 	0.49488 0.23609 0.20564 -0.18300
C 	C 	0.46042 0.22504 0.18618 0.04400
O 	O 	0.50872 0.23524 0.91433 -0.38000
Ni	Ni	0.52544 0.22294 0.96962 1.06800
O 	O 	0.53940 0.27461 0.98978 -0.39800
O 	O 	0.51095 0.18136 0.06606 -0.36500
C 	C 	0.54606 0.28410 0.02899 0.25500
O 	O 	0.53503 0.25871 0.05790 -0.36000
O 	O 	0.52605 0.30582 0.43010 -0.39600
Ni	Ni	0.54203 0.27902 0.47230 1.06700
O 	O 	0.54214 0.31454 0.51628 -0.40900
O 	O 	0.52947 0.20857 0.53914 -0.37000
C 	C 	0.54514 0.30981 0.55591 0.25100
O 	O 	0.53682 0.27711 0.56996 -0.34900
O 	O 	0.52500 0.74457 0.94871 -0.38500
O 	O 	0.52952 0.83844 0.96201 -0.41300
O 	O 	0.53658 0.80930 0.90427 -0.36000
O 	O 	0.49426 0.76251 0.99473 -0.37700
C 	C 	0.49390 0.74343 0.96179 0.27000
C 	C 	0.51715 0.82143 0.92600 0.26200
O 	O 	0.51961 0.77295 0.42642 -0.34600
O 	O 	0.49056 0.79398 0.48769 -0.38400
O 	O 	0.52931 0.84409 0.44785 -0.37000
Ni	Ni	0.52588 0.78387 0.52292 1.06700
O 	O 	0.52106 0.74306 0.48429 -0.41000
C 	C 	0.51267 0.74236 0.44511 0.25500
C 	C 	0.49911 0.82622 0.47157 0.25500
H 	H 	0.52314 0.73015 0.72669 0.06900
H 	H 	0.52773 0.74517 0.64431 0.05400
H 	H 	0.51417 0.82253 0.22158 0.07000
H 	H 	0.51997 0.80244 0.14483 0.05600
H 	H 	0.51866 0.18997 0.76200 0.06800
H 	H 	0.50834 0.19822 0.68225 0.06400
C 	C 	0.51374 0.26765 0.27266 -0.08900
H 	H 	0.54238 0.27256 0.27024 0.06600
H 	H 	0.54249 0.29141 0.35093 0.04000
C 	C 	0.53925 0.18672 0.04158 0.25100
O 	O 	0.55442 0.21512 0.01606 -0.38800
C 	C 	0.56041 0.22800 0.51703 0.25000
O 	O 	0.57177 0.26278 0.50845 -0.38600
Ni	Ni	0.57146 0.79246 0.93003 1.09700
O 	O 	0.57052 0.76665 0.87519 -0.34600
O 	O 	0.54428 0.79198 0.06601 -0.40200
Ni	Ni	0.53772 0.81361 0.01128 1.07300
Ni	Ni	0.56551 0.82454 0.43860 1.09800
O 	O 	0.56460 0.83166 0.37589 -0.34500
O 	O 	0.57503 0.82015 0.49904 -0.70300
O 	O 	0.54780 0.76262 0.56524 -0.39800
C 	C 	0.57657 0.74382 0.75455 0.11700
C 	C 	0.55364 0.74529 0.72350 -0.08700
C 	C 	0.57119 0.76957 0.69042 0.01400
O 	O 	0.56439 0.73699 0.79556 -0.18400
C 	C 	0.55606 0.76620 0.65295 -0.06600
C 	C 	0.56676 0.85877 0.25260 0.11700
C 	C 	0.54387 0.84270 0.21781 -0.08800
C 	C 	0.56113 0.85032 0.17844 0.01200
C 	C 	0.54722 0.82760 0.14550 -0.06700
O 	O 	0.55527 0.84391 0.29202 -0.18200
O 	O 	0.59846 0.34770 0.60325 -0.18300
C 	C 	0.56637 0.34255 0.58231 0.04300
C 	C 	0.56676 0.37504 0.57368 -0.06500
H 	H 	0.55038 0.37789 0.54921 0.05300
C 	C 	0.58718 0.21459 0.51148 0.04400
O 	O 	0.57768 0.35081 0.01244 -0.19300
C 	C 	0.57307 0.32262 0.03928 0.03900
O 	O 	0.56993 0.15011 0.02091 -0.20500
C 	C 	0.56063 0.16829 0.05143 0.04800
O 	O 	0.58371 0.81814 0.98569 -0.70000
O 	O 	0.60287 0.77253 0.95670 -0.70500
Ni	Ni	0.60981 0.79319 0.01422 1.10100
O 	O 	0.63504 0.79522 0.87234 -0.40300
O 	O 	0.60671 0.81116 0.07300 -0.34300
H 	H 	0.58946 0.74520 0.95729 0.15800
H 	H 	0.60151 0.84472 0.98125 0.15300
C 	C 	0.60169 0.77088 0.85747 0.24300
C 	C 	0.57579 0.80995 0.08694 0.24800
O 	O 	0.60166 0.80426 0.43356 -0.70400
Ni	Ni	0.61092 0.79919 0.49397 1.09800
O 	O 	0.62887 0.86511 0.36922 -0.39700
O 	O 	0.61162 0.79142 0.55682 -0.34000
H 	H 	0.59069 0.78029 0.41867 0.15900
H 	H 	0.58596 0.84421 0.51373 0.16100
C 	C 	0.59506 0.84813 0.35246 0.25100
C 	C 	0.58185 0.78179 0.58071 0.24800
C 	C 	0.60982 0.78828 0.68527 0.11500
C 	C 	0.61552 0.76327 0.75001 0.01200
C 	C 	0.59927 0.75619 0.81531 0.04100
C 	C 	0.62992 0.77106 0.78844 -0.06400
O 	O 	0.62176 0.79829 0.64447 -0.18200
C 	C 	0.58631 0.78331 0.62588 0.04200
C 	C 	0.60008 0.86912 0.17409 0.11400
C 	C 	0.60556 0.87996 0.24786 0.01000
O 	O 	0.61287 0.85998 0.13822 -0.18300
C 	C 	0.57815 0.83348 0.12209 0.03000
C 	C 	0.59075 0.85734 0.30988 0.04400
C 	C 	0.62080 0.87899 0.28415 -0.05700
C 	C 	0.62007 0.43688 0.56634 -0.09400
C 	C 	0.60034 0.40253 0.58644 0.01600
C 	C 	0.61928 0.38606 0.60348 0.11200
H 	H 	0.60515 0.44899 0.55160 0.06500
C 	C 	0.63920 0.22047 0.48967 0.12300
C 	C 	0.63620 0.21128 0.53124 0.00600
O 	O 	0.60829 0.22204 0.47479 -0.20800
C 	C 	0.60333 0.20767 0.54515 -0.05100
H 	H 	0.59788 0.21186 0.57724 0.06200
C 	C 	0.61548 0.37567 0.01962 0.12000
C 	C 	0.63340 0.41270 0.00741 -0.08600
C 	C 	0.63173 0.36420 0.04856 0.00800
C 	C 	0.60474 0.33157 0.06290 -0.05300
H 	H 	0.61931 0.42295 0.98782 0.06200
H 	H 	0.61005 0.31187 0.07871 0.06300
C 	C 	0.59724 0.14653 0.04239 0.12000
C 	C 	0.60367 0.16127 0.08208 0.00800
C 	C 	0.58062 0.17525 0.08778 -0.05100
H 	H 	0.58569 0.19727 0.10949 0.06200
C 	C 	0.63294 0.78604 0.71549 -0.08600
Ni	Ni	0.65306 0.79217 0.93171 1.06500
O 	O 	0.66822 0.84658 0.93945 -0.40000
O 	O 	0.63724 0.76790 0.03698 -0.36100
Ni	Ni	0.65026 0.84090 0.40883 1.06500
O 	O 	0.65819 0.88256 0.44862 -0.39000
O 	O 	0.64659 0.77897 0.48419 -0.35500
O 	O 	0.65717 0.85043 0.50559 -0.35800
H 	H 	0.66343 0.80144 0.71225 0.06800
H 	H 	0.65741 0.79433 0.79594 0.05500
C 	C 	0.62304 0.88357 0.20911 -0.08600
H 	H 	0.65325 0.89434 0.20668 0.06800
H 	H 	0.64933 0.88400 0.28798 0.04900
C 	C 	0.65953 0.45435 0.56459 0.12400
C 	C 	0.65902 0.40505 0.60389 -0.08200
H 	H 	0.67424 0.39272 0.61742 0.06900
C 	C 	0.67489 0.24022 0.47069 -0.09200
C 	C 	0.66851 0.22302 0.55591 -0.08400
H 	H 	0.67757 0.24749 0.43815 0.06700
H 	H 	0.66603 0.21622 0.58859 0.06700
C 	C 	0.66986 0.43601 0.02252 0.01000
C 	C 	0.66559 0.38902 0.06845 -0.08500
H 	H 	0.67564 0.38095 0.09512 0.07000
C 	C 	0.62498 0.14181 0.02178 -0.08600
C 	C 	0.63916 0.17527 0.10084 -0.08400
H 	H 	0.62206 0.13427 0.98916 0.06200
H 	H 	0.64655 0.19299 0.12804 0.07000
C 	C 	0.67307 0.86154 0.97653 0.25000
C 	C 	0.66528 0.76856 0.01540 0.24700
O 	O 	0.66153 0.84067 0.00964 -0.34100
O 	O 	0.68110 0.79193 0.98413 -0.38300
C 	C 	0.66196 0.88089 0.48866 0.25200
C 	C 	0.67303 0.79375 0.45536 0.24800
O 	O 	0.68423 0.82744 0.44182 -0.39400
O 	O 	0.66297 0.93911 0.50712 -0.20000
C 	C 	0.67653 0.91478 0.51352 0.04100
C 	C 	0.69590 0.90171 0.98178 0.03900
H 	H 	0.70198 0.92042 0.91736 0.05600
O 	O 	0.67741 0.73850 0.43277 -0.19900
C 	C 	0.67814 0.43851 0.58248 0.00600
O 	O 	0.68249 0.49141 0.55498 -0.20800
C 	C 	0.70683 0.25317 0.49580 0.01600
C 	C 	0.70409 0.24363 0.53692 0.11400
C 	C 	0.68549 0.42509 0.05277 0.11700
C 	C 	0.68859 0.47280 0.02212 -0.05700
H 	H 	0.68807 0.48949 0.99688 0.03700
C 	C 	0.65816 0.15060 0.04329 0.01000
C 	C 	0.66608 0.16856 0.08127 0.11400
C 	C 	0.70309 0.92653 0.95029 -0.06200
C 	C 	0.69426 0.97181 0.51985 0.12100
C 	C 	0.72342 0.96733 0.53449 0.00700
C 	C 	0.71229 0.93125 0.53039 -0.05200
H 	H 	0.67923 0.00988 0.49262 0.06700
H 	H 	0.73156 0.92061 0.52669 0.05900
C 	C 	0.72378 0.96006 0.96769 0.00500
O 	O 	0.71104 0.91779 0.02025 -0.18000
C 	C 	0.70955 0.73549 0.42692 0.11800
C 	C 	0.70848 0.70145 0.42805 -0.08900
C 	C 	0.69488 0.77573 0.44424 0.04100
C 	C 	0.73379 0.79346 0.44547 -0.05700
H 	H 	0.68182 0.67573 0.42689 0.06600
C 	C 	0.70052 0.70950 0.04328 0.01400
C 	C 	0.73230 0.74416 0.04565 0.11300
O 	O 	0.72504 0.77291 0.03975 -0.18200
C 	C 	0.68605 0.75221 0.03368 0.04900
C 	C 	0.67121 0.71456 0.03556 -0.06500
H 	H 	0.64535 0.69445 0.02044 0.04300
C 	C 	0.71681 0.49620 0.56978 0.04700
C 	C 	0.71409 0.46501 0.58764 -0.05300
O 	O 	0.73684 0.24603 0.55276 -0.18600
C 	C 	0.74146 0.26191 0.48264 -0.06000
O 	O 	0.71620 0.45408 0.07249 -0.18300
C 	C 	0.71779 0.48349 0.05010 0.04200
O 	O 	0.70453 0.19015 0.08930 -0.18300
C 	C 	0.69145 0.16036 0.02485 -0.05800
H 	H 	0.69561 0.15974 0.99158 0.05400
C 	C 	0.70185 0.00604 0.50412 -0.09100
C 	C 	0.75395 0.51752 0.04352 0.24000
C 	C 	0.75301 0.52686 0.55548 0.24000
C 	C 	0.72888 0.95465 0.00874 0.11900
C 	C 	0.74947 0.99224 0.94653 -0.08400
H 	H 	0.74530 0.99615 0.91424 0.06700
C 	C 	0.74270 0.70180 0.43351 0.01200
C 	C 	0.74302 0.76787 0.43429 0.00800
H 	H 	0.75149 0.81826 0.46329 0.05900
C 	C 	0.70304 0.67869 0.02990 -0.09400
C 	C 	0.76828 0.74847 0.03876 -0.08300
C 	C 	0.77086 0.71659 0.03201 0.00400
H 	H 	0.79290 0.77572 0.03579 0.06900
H 	H 	0.73748 0.46044 0.59368 0.06200
C 	C 	0.75908 0.25756 0.51659 0.04200
H 	H 	0.74997 0.26233 0.45053 0.05900
C 	C 	0.71877 0.18393 0.05228 0.03700
O 	O 	0.77902 0.53030 0.07361 -0.34500
O 	O 	0.76446 0.52931 0.00515 -0.39900
O 	O 	0.75812 0.53436 0.51537 -0.39000
C 	C 	0.75843 0.20763 0.03966 0.25500
C 	C 	0.73967 0.03388 0.50011 0.01300
C 	C 	0.76128 0.99604 0.53211 -0.08600
H 	H 	0.78408 0.99224 0.54308 0.06700
H 	H 	0.73434 0.08261 0.49694 0.05200
C 	C 	0.75928 0.98230 0.03105 -0.09000
C 	C 	0.77942 0.02026 0.96914 0.11000
H 	H 	0.76336 0.97840 0.06338 0.06900
C 	C 	0.77525 0.73363 0.44474 0.11600
C 	C 	0.77552 0.76734 0.44717 -0.08400
C 	C 	0.74591 0.67338 0.44728 -0.05800
H 	H 	0.79935 0.79168 0.46035 0.07000
H 	H 	0.72279 0.64546 0.45185 0.04300
C 	C 	0.73908 0.68265 0.02577 0.11900
C 	C 	0.79938 0.71568 0.01213 -0.05100
H 	H 	0.67810 0.65329 0.02063 0.06300
H 	H 	0.82910 0.73589 0.01527 0.06000
O 	O 	0.79427 0.63338 0.96391 -0.38800
Ni	Ni	0.78261 0.58346 0.98758 1.06700
O 	O 	0.78507 0.63357 0.46106 -0.39600
O 	O 	0.78212 0.54084 0.58081 -0.35300
Ni	Ni	0.77588 0.58689 0.49160 1.06600
O 	O 	0.76747 0.21140 0.00014 -0.40200
H 	H 	0.79077 0.16552 0.05761 0.15500
O 	O 	0.78383 0.22737 0.06767 -0.34900
C 	C 	0.79929 0.26855 0.51621 0.25200
O 	O 	0.81324 0.25949 0.54755 -0.35900
C 	C 	0.76538 0.19586 0.30916 0.11600
C 	C 	0.76496 0.20900 0.26947 -0.08700
C 	C 	0.76908 0.16490 0.31355 0.01300
O 	O 	0.77730 0.21927 0.34354 -0.19600
C 	C 	0.78967 0.20022 0.36816 0.04600
H 	H 	0.76651 0.23547 0.26581 0.06900
C 	C 	0.76869 0.02985 0.51532 0.11500
C 	C 	0.75203 0.07010 0.49820 -0.05700
C 	C 	0.78503 0.01450 0.00994 0.01600
O 	O 	0.79559 0.05730 0.95869 -0.17900
O 	O 	0.80112 0.72739 0.46575 -0.17900
C 	C 	0.78061 0.68875 0.46632 0.04400
O 	O 	0.74570 0.65801 0.00287 -0.21100
C 	C 	0.78460 0.68041 0.99615 0.03200
H 	H 	0.79317 0.56362 0.78092 0.06700
H 	H 	0.79712 0.56921 0.86651 0.04700
H 	H 	0.78500 0.55547 0.28353 0.06700
H 	H 	0.78850 0.56503 0.36895 0.04900
C 	C 	0.78444 0.16768 0.35092 -0.06100
O 	O 	0.81559 0.60410 0.03540 -0.70000
H 	H 	0.80336 0.61220 0.05652 0.15800
O 	O 	0.82149 0.58093 0.94973 -0.40400
C 	C 	0.80830 0.66403 0.98652 0.24200
O 	O 	0.81100 0.61153 0.53687 -0.70500
H 	H 	0.79935 0.61980 0.55850 0.16000
O 	O 	0.81335 0.58178 0.45356 -0.40400
C 	C 	0.79792 0.66671 0.47835 0.24500
O 	O 	0.81300 0.12991 0.98188 -0.36200
O 	O 	0.81291 0.24482 0.42368 -0.39500
O 	O 	0.82197 0.29430 0.49045 -0.38600
O 	O 	0.80742 0.14652 0.48302 -0.36800
H 	H 	0.81361 0.19824 0.55447 0.15900
C 	C 	0.81471 0.21809 0.40354 0.24300
C 	C 	0.76754 0.18966 0.23485 0.01100
C 	C 	0.77445 0.16067 0.23937 0.11800
C 	C 	0.77568 0.14802 0.27906 -0.08900
C 	C 	0.79899 0.18596 0.18197 0.04200
C 	C 	0.78301 0.20562 0.19841 -0.05400
H 	H 	0.78533 0.12835 0.28309 0.06900
H 	H 	0.80044 0.15440 0.35918 0.06700
H 	H 	0.79181 0.23401 0.19076 0.07000
O 	O 	0.80146 0.06309 0.52373 -0.18900
C 	C 	0.78871 0.08724 0.51231 0.04100
C 	C 	0.81111 0.07307 0.99720 0.03600
C 	C 	0.80505 0.04786 0.02782 -0.05600
H 	H 	0.80489 0.05321 0.06084 0.03700
H 	H 	0.82473 0.40650 0.12853 0.07100
C 	C 	0.82147 0.58710 0.78338 -0.08400
C 	C 	0.82701 0.58550 0.85925 -0.05600
C 	C 	0.81341 0.57882 0.28560 -0.08300
C 	C 	0.81849 0.58003 0.36186 -0.05600
O 	O 	0.82172 0.58715 0.20956 -0.18200
Ni	Ni	0.83356 0.57113 0.06156 1.09800
C 	C 	0.84842 0.61062 0.93187 0.26100
O 	O 	0.83517 0.59690 0.11726 -0.36900
Ni	Ni	0.83404 0.58234 0.56168 1.09700
O 	O 	0.83965 0.61075 0.61638 -0.37200
O 	O 	0.80610 0.22158 0.92544 -0.40200
Ni	Ni	0.81678 0.25446 0.97813 1.06200
O 	O 	0.81831 0.18137 0.05300 -0.69900
O 	O 	0.83377 0.23047 0.12915 -0.35300
C 	C 	0.82521 0.19899 0.14650 0.25000
C 	C 	0.82297 0.11170 0.00684 0.25900
O 	O 	0.81799 0.28984 0.02340 -0.38600
Ni	Ni	0.83933 0.20242 0.48204 1.09900
O 	O 	0.83328 0.20300 0.41924 -0.37100
O 	O 	0.83979 0.20999 0.54342 -0.70500
C 	C 	0.81376 0.12746 0.51109 0.24400
H 	H 	0.83159 0.27553 0.76833 0.06700
H 	H 	0.81895 0.25649 0.84988 0.04300
O 	O 	0.79394 0.15633 0.20610 -0.19800
H 	H 	0.84287 0.41983 0.59609 0.07200
H 	H 	0.85091 0.35960 0.57217 0.06800
C 	C 	0.84664 0.41635 0.10483 -0.08500
O 	O 	0.83473 0.35454 0.08632 -0.18100
H 	H 	0.84099 0.47795 0.12497 0.06800
C 	C 	0.83962 0.60969 0.74874 0.11500
C 	C 	0.84189 0.59501 0.82074 0.01000
O 	O 	0.82900 0.59805 0.70774 -0.18200
C 	C 	0.83196 0.60016 0.25024 0.11400
C 	C 	0.83361 0.58780 0.32323 0.00900
O 	O 	0.85426 0.54118 0.09036 -0.36400
O 	O 	0.84342 0.67997 0.00014 -0.36100
O 	O 	0.86059 0.55670 0.58740 -0.35500
O 	O 	0.83150 0.68377 0.49616 -0.35000
C 	C 	0.83933 0.61013 0.43264 0.25700
Ni	Ni	0.83168 0.18450 0.99198 1.09600
Ni	Ni	0.83835 0.23647 0.06602 1.09800
O 	O 	0.84245 0.19447 0.92973 -0.34500
O 	O 	0.85009 0.12976 0.03407 -0.39500
O 	O 	0.84612 0.18383 0.13876 -0.37700
Ni	Ni	0.84660 0.16116 0.08118 1.06800
C 	C 	0.83048 0.21333 0.90867 0.24800
C 	C 	0.84668 0.30885 0.04874 0.24600
Ni	Ni	0.86676 0.26628 0.54738 1.10000
Ni	Ni	0.85941 0.28873 0.45264 1.07000
O 	O 	0.84672 0.14236 0.53049 -0.38200
O 	O 	0.86418 0.26414 0.61084 -0.34600
C 	C 	0.84525 0.25903 0.76953 -0.08900
C 	C 	0.83594 0.23261 0.80055 0.01000
C 	C 	0.83524 0.21522 0.86359 0.04100
C 	C 	0.82435 0.23491 0.83891 -0.05900
O 	O 	0.86788 0.27194 0.69814 -0.18400
C 	C 	0.85851 0.43156 0.56757 -0.08600
C 	C 	0.86967 0.41151 0.54156 0.01300
O 	O 	0.86826 0.49299 0.58425 -0.18400
C 	C 	0.87146 0.38175 0.55279 -0.05500
C 	C 	0.84945 0.39167 0.07722 0.11600
C 	C 	0.86708 0.48160 0.11142 -0.05800
C 	C 	0.85446 0.61046 0.88601 0.04400
C 	C 	0.86243 0.62365 0.68738 0.04700
C 	C 	0.84618 0.60574 0.38788 0.04400
C 	C 	0.85533 0.61211 0.18898 0.04700
C 	C 	0.86257 0.60740 0.14448 0.26800
Ni	Ni	0.86483 0.64752 0.01764 1.10000
O 	O 	0.88103 0.61057 0.03520 -0.70500
O 	O 	0.87168 0.63958 0.95458 -0.34500
Ni	Ni	0.85714 0.65492 0.51339 1.10000
O 	O 	0.85911 0.64281 0.45074 -0.34200
C 	C 	0.86836 0.62154 0.64182 0.27100
O 	O 	0.84916 0.23857 0.00490 -0.70400
O 	O 	0.85771 0.29147 0.07388 -0.35900
O 	O 	0.87269 0.25837 0.48658 -0.70400
O 	O 	0.89089 0.32289 0.55068 -0.36000
Ni	Ni	0.86720 0.18817 0.56847 1.06700
C 	C 	0.89621 0.34453 0.51853 0.26500
C 	C 	0.87801 0.24681 0.63189 0.24400
C 	C 	0.85368 0.21198 0.80301 0.11600
C 	C 	0.87946 0.21487 0.77220 -0.09000
C 	C 	0.87041 0.26145 0.73813 0.11600
O 	O 	0.85397 0.19948 0.84268 -0.18200
C 	C 	0.88399 0.25404 0.67647 0.04500
C 	C 	0.87032 0.46815 0.55683 0.11700
C 	C 	0.87360 0.45400 0.10165 0.01300
C 	C 	0.85679 0.34682 0.05895 0.05100
C 	C 	0.87734 0.62543 0.82481 0.11400
C 	C 	0.87550 0.63954 0.75249 0.01100
C 	C 	0.86932 0.61799 0.32658 0.11600
C 	C 	0.86787 0.63003 0.25357 0.01400
O 	O 	0.89482 0.60948 0.13386 -0.37900
H 	H 	0.88693 0.60004 0.01042 0.16300
C 	C 	0.88708 0.54342 0.08088 0.25500
O 	O 	0.87791 0.62157 0.53049 -0.70700
H 	H 	0.88270 0.61025 0.50567 0.15800
C 	C 	0.89188 0.55963 0.57105 0.25000
O 	O 	0.88644 0.19436 0.99631 -0.36000
H 	H 	0.87624 0.25540 0.99854 0.15400
O 	O 	0.88584 0.19629 0.47115 -0.35000
O 	O 	0.89419 0.23025 0.61246 -0.39800
H 	H 	0.89948 0.26599 0.48100 0.16100
O 	O 	0.90062 0.33501 0.48041 -0.39100
C 	C 	0.88791 0.24044 0.74027 0.01100
C 	C 	0.89645 0.23564 0.70124 -0.06000
H 	H 	0.89298 0.19823 0.77342 0.06700
H 	H 	0.89975 0.21260 0.69096 0.04700
C 	C 	0.89564 0.42816 0.50989 0.11400
C 	C 	0.89514 0.48454 0.52426 0.00800
C 	C 	0.89434 0.52601 0.56493 0.04400
C 	C 	0.89662 0.37949 0.52561 0.04600
C 	C 	0.87681 0.40458 0.04658 0.01600
C 	C 	0.88157 0.37627 0.03487 -0.07300
C 	C 	0.89131 0.51087 0.08667 0.04800
C 	C 	0.89573 0.64781 0.79007 -0.08400
O 	O 	0.88750 0.63718 0.86592 -0.18300
C 	C 	0.89049 0.64824 0.71388 -0.05700
C 	C 	0.88794 0.63916 0.29123 -0.08500
O 	O 	0.87942 0.63122 0.36715 -0.18400
C 	C 	0.88316 0.63745 0.21510 -0.05900
C 	C 	0.00318 0.25822 0.44120 0.11700
O 	O 	0.91722 0.57511 0.07000 -0.38800
O 	O 	0.90173 0.62828 0.62792 -0.37800
O 	O 	0.89697 0.20622 0.06587 -0.39300
C 	C 	0.91068 0.46599 0.50210 -0.08500
C 	C 	0.91175 0.52115 0.53020 -0.06000
O 	O 	0.91370 0.40877 0.49745 -0.19000
C 	C 	0.90122 0.46698 0.07105 0.11700
C 	C 	0.90428 0.44210 0.04381 -0.09000
H 	H 	0.91317 0.65224 0.20809 0.05700
O 	O 	0.91858 0.69212 0.01746 -0.36400
O 	O 	0.92900 0.67835 0.08279 -0.39300
Ni	Ni	0.92090 0.62527 0.07629 1.07200
C 	C 	0.93971 0.70099 0.05092 0.23900
O 	O 	0.90950 0.70065 0.50611 -0.34900
O 	O 	0.92769 0.69360 0.57078 -0.40300
Ni	Ni	0.92161 0.64098 0.56728 1.06900
O 	O 	0.92188 0.59239 0.56299 -0.39600
C 	C 	0.90956 0.21202 0.02733 0.24800
O 	O 	0.91478 0.21743 0.53374 -0.40400
C 	C 	0.91650 0.21155 0.49394 0.25900
H 	H 	0.93447 0.48062 0.48113 0.06700
H 	H 	0.92709 0.54173 0.50661 0.05000
O 	O 	0.91443 0.50361 0.06043 -0.19200
H 	H 	0.92602 0.45187 0.01994 0.06600
H 	H 	0.90575 0.37840 0.01809 0.04400
H 	H 	0.92404 0.67127 0.79254 0.06800
H 	H 	0.92041 0.66363 0.70652 0.05600
H 	H 	0.91635 0.66251 0.29331 0.06900
H 	H 	0.00103 0.74989 0.58260 0.04300
C 	C 	0.93346 0.71366 0.53715 0.23800
C 	C 	0.95061 0.23061 0.01974 0.04600
C 	C 	0.95323 0.22214 0.47463 0.04400
C 	C 	0.96586 0.22230 0.98564 -0.05700
H 	H 	0.95292 0.21385 0.95533 0.06500
C 	C 	0.97573 0.73597 0.05254 0.04500
H 	H 	0.96993 0.75895 0.99431 0.06300
C 	C 	0.00892 0.25274 0.03241 0.11900
C 	C 	0.00250 0.23590 0.99395 0.00800
O 	O 	0.96419 0.24190 0.43748 -0.19600
C 	C 	0.98294 0.22514 0.49766 -0.05600
H 	H 	0.98184 0.22073 0.53090 0.05600
O 	O 	0.97668 0.25000 0.05119 -0.19100
O 	O 	0.96825 0.77492 0.50244 -0.18000
C 	C 	0.96372 0.75244 0.53631 0.04400
C 	C 	0.99437 0.76647 0.56250 -0.05800
O 	O 	0.00579 0.73917 0.07605 -0.20400
C 	C 	0.98632 0.76223 0.02191 -0.05500
