data_crystal

_cell_length_a 28.96594
_cell_length_b 28.97251
_cell_length_c 29.22611
_cell_angle_alpha 90.00026
_cell_angle_beta  90.00507
_cell_angle_gamma 90.00016

_symmetry_space_group_name_	'P 1'
_symmetry_space_group_name_H-M	'P 1'

loop_
_symmetry_equiv_pos_as_xyz
  x,y,z

loop_
_atom_site_label
_atom_site_type_symbol
_atom_site_fract_x
_atom_site_fract_y
_atom_site_fract_z
_atom_site_charge
C 	C 	0.28728 0.42379 0.19352 0.28500
C 	C 	0.18560 0.56751 0.29722 0.30800
C 	C 	0.18925 0.41209 0.27935 0.30400
C 	C 	0.28812 0.57841 0.21911 0.28800
C 	C 	0.10235 0.50024 0.19523 0.30300
C 	C 	0.19825 0.51502 0.10561 0.28700
Ni	Ni	0.24983 0.49287 0.26367 1.11700
Ni	Ni	0.18742 0.55653 0.19712 1.12200
Ni	Ni	0.18783 0.44722 0.18335 1.12300
O 	O 	0.28172 0.43329 0.23778 -0.35800
O 	O 	0.25176 0.42534 0.16450 -0.36700
O 	O 	0.12471 0.53494 0.17640 -0.37700
O 	O 	0.22756 0.55057 0.30006 -0.36100
O 	O 	0.16023 0.56005 0.26085 -0.38200
O 	O 	0.17579 0.47866 0.12240 -0.37400
O 	O 	0.19813 0.45395 0.29369 -0.37000
O 	O 	0.19427 0.40148 0.23589 -0.36900
O 	O 	0.20789 0.55166 0.13142 -0.37400
O 	O 	0.29839 0.53702 0.23569 -0.35800
O 	O 	0.24464 0.59363 0.21693 -0.36900
O 	O 	0.12430 0.46215 0.20673 -0.38000
O 	O 	0.21752 0.49982 0.20878 -0.72100
H 	H 	0.24337 0.50308 0.18714 0.16000
C 	C 	0.72145 0.57828 0.18175 0.28600
C 	C 	0.80246 0.42138 0.28725 0.30300
C 	C 	0.80030 0.57266 0.28329 0.30500
C 	C 	0.71948 0.41567 0.18449 0.28000
C 	C 	0.90398 0.49702 0.20592 0.30800
C 	C 	0.82278 0.48987 0.10169 0.28200
Ni	Ni	0.74325 0.49568 0.24597 1.11700
Ni	Ni	0.82107 0.43944 0.18928 1.12300
Ni	Ni	0.82010 0.54962 0.18585 1.12200
O 	O 	0.71544 0.55856 0.22263 -0.35700
O 	O 	0.76057 0.57374 0.15821 -0.37500
O 	O 	0.88629 0.46274 0.18217 -0.37400
O 	O 	0.75976 0.43431 0.27920 -0.36200
O 	O 	0.83499 0.42869 0.25668 -0.37100
O 	O 	0.84267 0.52428 0.12474 -0.37300
O 	O 	0.78657 0.53023 0.29096 -0.36400
O 	O 	0.80286 0.58865 0.24127 -0.37400
O 	O 	0.81350 0.44954 0.12152 -0.36900
O 	O 	0.70320 0.45424 0.20337 -0.36100
O 	O 	0.76196 0.40095 0.19407 -0.36400
O 	O 	0.87815 0.53187 0.21899 -0.38400
O 	O 	0.78734 0.49478 0.19946 -0.72100
H 	H 	0.76665 0.49401 0.17275 0.15700
C 	C 	0.43377 0.71224 0.20248 0.28900
C 	C 	0.59150 0.81667 0.27758 0.30200
C 	C 	0.43379 0.80459 0.28533 0.30700
C 	C 	0.59472 0.72631 0.18370 0.28300
C 	C 	0.50268 0.90425 0.19485 0.30400
C 	C 	0.49980 0.81368 0.09792 0.28500
Ni	Ni	0.51695 0.75109 0.25135 1.11500
Ni	Ni	0.56186 0.82357 0.17997 1.12300
Ni	Ni	0.45236 0.81553 0.18722 1.12300
O 	O 	0.47671 0.70347 0.21616 -0.36900
O 	O 	0.41728 0.75518 0.19920 -0.37100
O 	O 	0.54098 0.88355 0.20768 -0.38100
O 	O 	0.55037 0.80170 0.28903 -0.36800
O 	O 	0.60472 0.81546 0.23454 -0.37200
O 	O 	0.46166 0.80144 0.12031 -0.36600
O 	O 	0.45643 0.76532 0.28712 -0.37100
O 	O 	0.44281 0.83488 0.25318 -0.37700
O 	O 	0.53291 0.83813 0.11827 -0.37500
O 	O 	0.58038 0.72583 0.22701 -0.36300
O 	O 	0.58984 0.76350 0.15727 -0.36600
O 	O 	0.47012 0.88128 0.17323 -0.37600
O 	O 	0.51038 0.78809 0.19947 -0.72200
H 	H 	0.51026 0.76421 0.17548 0.16100
C 	C 	0.58878 0.27679 0.18122 0.28500
C 	C 	0.43119 0.21341 0.29542 0.30300
C 	C 	0.58280 0.19383 0.28488 0.30400
C 	C 	0.43290 0.29702 0.19602 0.28500
C 	C 	0.49293 0.10283 0.20873 0.30600
C 	C 	0.48971 0.18591 0.10694 0.28100
Ni	Ni	0.51261 0.26181 0.25227 1.11600
Ni	Ni	0.44445 0.19283 0.19725 1.12400
Ni	Ni	0.55367 0.18055 0.18794 1.12200
O 	O 	0.57658 0.28126 0.22486 -0.36300
O 	O 	0.58393 0.23683 0.15922 -0.37400
O 	O 	0.45878 0.12511 0.18863 -0.37500
O 	O 	0.45170 0.25335 0.28885 -0.36900
O 	O 	0.43538 0.18015 0.26503 -0.37000
O 	O 	0.52276 0.16193 0.12804 -0.37600
O 	O 	0.54385 0.21438 0.29537 -0.36700
O 	O 	0.59660 0.19215 0.24196 -0.37400
O 	O 	0.45221 0.20035 0.12915 -0.36600
O 	O 	0.47442 0.30745 0.21255 -0.36400
O 	O 	0.41355 0.25611 0.20435 -0.36500
O 	O 	0.53052 0.12473 0.22134 -0.38200
O 	O 	0.50385 0.21924 0.20508 -0.72000
H 	H 	0.50412 0.24036 0.17870 0.15600
C 	C 	0.58267 0.19881 0.72766 0.28500
C 	C 	0.42371 0.28599 0.82420 0.30500
C 	C 	0.57588 0.28561 0.82021 0.30500
C 	C 	0.42027 0.19929 0.72419 0.28100
C 	C 	0.49899 0.18999 0.90893 0.30300
C 	C 	0.49494 0.09896 0.81287 0.28400
Ni	Ni	0.49882 0.25734 0.75951 1.11800
Ni	Ni	0.44341 0.18578 0.82430 1.12200
Ni	Ni	0.55328 0.18489 0.82444 1.12300
O 	O 	0.56216 0.24006 0.72867 -0.35700
O 	O 	0.57862 0.16853 0.76175 -0.37100
O 	O 	0.46677 0.16721 0.88664 -0.37800
O 	O 	0.43694 0.28614 0.78128 -0.36400
O 	O 	0.43102 0.24971 0.85024 -0.37700
O 	O 	0.52929 0.11954 0.83554 -0.36900
O 	O 	0.53257 0.29393 0.81041 -0.36600
O 	O 	0.59212 0.24327 0.81820 -0.36500
O 	O 	0.45530 0.12054 0.80445 -0.37600
O 	O 	0.45793 0.22266 0.71208 -0.35800
O 	O 	0.40512 0.20034 0.76725 -0.37000
O 	O 	0.53426 0.20764 0.88669 -0.37700
O 	O 	0.49860 0.20304 0.79374 -0.72200
H 	H 	0.49859 0.18033 0.76865 0.15900
C 	C 	0.81557 0.27698 0.58837 0.28600
C 	C 	0.71340 0.19348 0.43121 0.30600
C 	C 	0.72173 0.18851 0.58737 0.30600
C 	C 	0.80195 0.28787 0.43062 0.28300
C 	C 	0.80505 0.09728 0.50083 0.30500
C 	C 	0.90295 0.18662 0.49525 0.28600
Ni	Ni	0.74798 0.25061 0.51081 1.11500
Ni	Ni	0.81282 0.18460 0.44859 1.12500
Ni	Ni	0.82003 0.17928 0.55718 1.12300
O 	O 	0.77218 0.27758 0.57310 -0.36400
O 	O 	0.84269 0.24014 0.58322 -0.37000
O 	O 	0.82698 0.11905 0.46775 -0.37300
O 	O 	0.71254 0.23435 0.45071 -0.36600
O 	O 	0.74654 0.16413 0.44038 -0.37200
O 	O 	0.88225 0.16348 0.52887 -0.37600
O 	O 	0.71021 0.20101 0.54577 -0.36900
O 	O 	0.76536 0.18848 0.59985 -0.37600
O 	O 	0.88024 0.19893 0.45758 -0.36700
O 	O 	0.78337 0.29829 0.47095 -0.36300
O 	O 	0.79984 0.24501 0.41386 -0.36100
O 	O 	0.79116 0.11961 0.53745 -0.38100
O 	O 	0.80050 0.21354 0.50543 -0.72100
H 	H 	0.82471 0.23740 0.50483 0.16200
C 	C 	0.18970 0.28300 0.42703 0.29100
C 	C 	0.28485 0.19098 0.58468 0.30500
C 	C 	0.28803 0.20340 0.43244 0.30500
C 	C 	0.19062 0.27830 0.59340 0.28500
C 	C 	0.20453 0.09746 0.50026 0.30600
C 	C 	0.10084 0.18108 0.50684 0.28300
Ni	Ni	0.24957 0.25539 0.51163 1.11700
Ni	Ni	0.18670 0.17753 0.56068 1.12400
Ni	Ni	0.18847 0.18415 0.45186 1.12400
O 	O 	0.22829 0.28908 0.45136 -0.35600
O 	O 	0.16331 0.24583 0.43153 -0.37400
O 	O 	0.17851 0.11407 0.53328 -0.37300
O 	O 	0.28108 0.23428 0.57208 -0.36800
O 	O 	0.25362 0.16042 0.57266 -0.37700
O 	O 	0.12529 0.16207 0.47311 -0.36600
O 	O 	0.29484 0.21354 0.47558 -0.37300
O 	O 	0.24597 0.20200 0.41558 -0.37700
O 	O 	0.11924 0.18840 0.54795 -0.37000
O 	O 	0.20764 0.29435 0.55426 -0.36100
O 	O 	0.19187 0.23333 0.60378 -0.36600
O 	O 	0.21961 0.12434 0.46732 -0.38100
O 	O 	0.20085 0.21364 0.50846 -0.72400
H 	H 	0.17485 0.23551 0.50970 0.16300
C 	C 	0.19985 0.41434 0.73499 0.28400
C 	C 	0.29417 0.57454 0.82122 0.30800
C 	C 	0.28818 0.42477 0.83110 0.30300
C 	C 	0.21406 0.57738 0.72058 0.28500
C 	C 	0.19747 0.50961 0.90979 0.30600
C 	C 	0.10449 0.50978 0.81577 0.28300
Ni	Ni	0.26309 0.49599 0.76208 1.11400
Ni	Ni	0.19358 0.55873 0.82188 1.12500
Ni	Ni	0.18855 0.44925 0.82996 1.12400
O 	O 	0.24269 0.43131 0.73610 -0.36200
O 	O 	0.17050 0.42009 0.76958 -0.37100
O 	O 	0.17478 0.54024 0.88550 -0.37400
O 	O 	0.29487 0.55774 0.77956 -0.36800
O 	O 	0.25795 0.56866 0.84751 -0.37600
O 	O 	0.12423 0.47612 0.84013 -0.36600
O 	O 	0.29865 0.46593 0.81589 -0.37800
O 	O 	0.24604 0.40883 0.82573 -0.36500
O 	O 	0.12772 0.54744 0.80320 -0.37100
O 	O 	0.22997 0.53513 0.71235 -0.36800
O 	O 	0.21003 0.59396 0.76308 -0.36300
O 	O 	0.21201 0.47111 0.89095 -0.37900
O 	O 	0.20837 0.50098 0.79527 -0.72300
H 	H 	0.18571 0.50023 0.77012 0.16200
C 	C 	0.20834 0.71354 0.57736 0.28700
C 	C 	0.28244 0.80236 0.41148 0.30100
C 	C 	0.29582 0.80351 0.56820 0.30400
C 	C 	0.18499 0.71532 0.41998 0.28500
C 	C 	0.20656 0.89941 0.49488 0.30500
C 	C 	0.10508 0.81230 0.50851 0.28400
Ni	Ni	0.25723 0.74441 0.49172 1.11500
Ni	Ni	0.18543 0.81501 0.44351 1.12300
Ni	Ni	0.19662 0.81584 0.55210 1.12500
O 	O 	0.22157 0.70090 0.53569 -0.36800
O 	O 	0.20824 0.75771 0.59064 -0.36600
O 	O 	0.21611 0.87553 0.45778 -0.38100
O 	O 	0.29522 0.79092 0.45300 -0.37100
O 	O 	0.23860 0.80117 0.39982 -0.36700
O 	O 	0.12855 0.80317 0.54656 -0.36900
O 	O 	0.29565 0.76226 0.54951 -0.36900
O 	O 	0.26388 0.83382 0.55788 -0.37400
O 	O 	0.12477 0.83384 0.47329 -0.37000
O 	O 	0.22930 0.71490 0.43225 -0.35900
O 	O 	0.15954 0.75349 0.42272 -0.36700
O 	O 	0.18405 0.88029 0.52910 -0.37100
O 	O 	0.20630 0.78358 0.49670 -0.72100
H 	H 	0.18149 0.76056 0.49977 0.15900
C 	C 	0.80630 0.70963 0.42583 0.28900
C 	C 	0.71708 0.80977 0.57660 0.30600
C 	C 	0.72391 0.80550 0.42224 0.30700
C 	C 	0.80973 0.71639 0.58469 0.28400
C 	C 	0.80972 0.89850 0.50273 0.30400
C 	C 	0.90679 0.80812 0.50478 0.28400
Ni	Ni	0.74966 0.74671 0.50360 1.11400
Ni	Ni	0.81807 0.81516 0.55864 1.12400
Ni	Ni	0.82165 0.81223 0.44951 1.12400
O 	O 	0.78882 0.70003 0.46668 -0.36400
O 	O 	0.81265 0.75304 0.41138 -0.35900
O 	O 	0.79240 0.87586 0.53768 -0.37500
O 	O 	0.71010 0.79771 0.53400 -0.37400
O 	O 	0.75851 0.80621 0.59461 -0.36700
O 	O 	0.88758 0.79687 0.46491 -0.36700
O 	O 	0.72145 0.76410 0.44031 -0.37200
O 	O 	0.75705 0.83406 0.43376 -0.37900
O 	O 	0.88317 0.83046 0.53709 -0.37100
O 	O 	0.76714 0.71868 0.56761 -0.36100
O 	O 	0.83714 0.75336 0.58545 -0.36800
O 	O 	0.83456 0.87711 0.47152 -0.37700
O 	O 	0.80323 0.78255 0.50422 -0.72200
H 	H 	0.82709 0.75835 0.50539 0.16400
C 	C 	0.58901 0.72302 0.80926 0.28300
C 	C 	0.42512 0.80151 0.71483 0.30400
C 	C 	0.57698 0.81010 0.71498 0.30600
C 	C 	0.43102 0.70833 0.80944 0.28100
C 	C 	0.49490 0.90044 0.80315 0.30600
C 	C 	0.49746 0.81242 0.90063 0.28400
Ni	Ni	0.50539 0.74525 0.74782 1.11800
Ni	Ni	0.44533 0.81158 0.81376 1.12200
Ni	Ni	0.55508 0.81982 0.81429 1.12400
O 	O 	0.57099 0.72137 0.76734 -0.35700
O 	O 	0.58516 0.76035 0.83559 -0.36800
O 	O 	0.46347 0.87747 0.82639 -0.38100
O 	O 	0.44195 0.75958 0.71776 -0.36200
O 	O 	0.43079 0.83114 0.74846 -0.37400
O 	O 	0.53065 0.83487 0.87798 -0.37000
O 	O 	0.53440 0.79680 0.70820 -0.36600
O 	O 	0.59398 0.81161 0.75666 -0.36600
O 	O 	0.45877 0.79863 0.88009 -0.37700
O 	O 	0.46906 0.69722 0.78647 -0.35900
O 	O 	0.41202 0.74996 0.80459 -0.37000
O 	O 	0.53199 0.87940 0.78764 -0.37800
O 	O 	0.50265 0.78380 0.79895 -0.72100
H 	H 	0.50448 0.76062 0.82353 0.15700
C 	C 	0.80747 0.57372 0.71687 0.28400
C 	C 	0.71992 0.42221 0.81737 0.30500
C 	C 	0.71828 0.57610 0.81110 0.30700
C 	C 	0.81232 0.41345 0.72711 0.28500
C 	C 	0.81075 0.50239 0.90542 0.30600
C 	C 	0.90577 0.50549 0.81398 0.28300
Ni	Ni	0.74967 0.49573 0.75336 1.11400
Ni	Ni	0.82033 0.44550 0.82339 1.12400
Ni	Ni	0.81712 0.55526 0.81875 1.12300
O 	O 	0.78683 0.53417 0.70600 -0.36900
O 	O 	0.80460 0.59077 0.75920 -0.36800
O 	O 	0.79451 0.46631 0.88357 -0.37700
O 	O 	0.71157 0.46468 0.80469 -0.36800
O 	O 	0.76235 0.40588 0.81597 -0.36200
O 	O 	0.88352 0.54407 0.80277 -0.37500
O 	O 	0.71795 0.55816 0.76982 -0.36400
O 	O 	0.75143 0.56601 0.83995 -0.37700
O 	O 	0.88484 0.47117 0.83654 -0.36800
O 	O 	0.76981 0.43118 0.72690 -0.36500
O 	O 	0.84033 0.41794 0.76293 -0.36400
O 	O 	0.83262 0.53536 0.88323 -0.38000
O 	O 	0.80261 0.49856 0.78980 -0.72100
H 	H 	0.82661 0.49803 0.76595 0.16100
C 	C 	0.62408 0.68841 0.82117 -0.05300
C 	C 	0.60992 0.64420 0.83473 -0.01300
C 	C 	0.64124 0.60731 0.83429 0.01200
C 	C 	0.68741 0.61498 0.82117 -0.06600
C 	C 	0.70252 0.65998 0.81191 -0.00400
C 	C 	0.67107 0.69666 0.81146 0.00500
H 	H 	0.57416 0.63821 0.84387 0.05200
H 	H 	0.73830 0.66601 0.80267 0.04600
C 	C 	0.68680 0.74220 0.79869 0.09100
C 	C 	0.62552 0.56156 0.84626 0.09000
N 	N 	0.69939 0.77867 0.78841 -0.10600
N 	N 	0.61296 0.52488 0.85582 -0.09700
C 	C 	0.82130 0.60524 0.67907 -0.05600
C 	C 	0.80552 0.59648 0.63441 -0.01000
C 	C 	0.80637 0.63137 0.60132 0.00600
C 	C 	0.82202 0.67596 0.61315 -0.05500
C 	C 	0.84405 0.68261 0.65546 -0.00800
C 	C 	0.84501 0.64699 0.68795 0.00600
H 	H 	0.79107 0.56306 0.62580 0.05300
H 	H 	0.85915 0.71585 0.66368 0.05500
C 	C 	0.87240 0.65263 0.72888 0.08700
C 	C 	0.79180 0.62088 0.55520 0.08200
N 	N 	0.89438 0.65715 0.76164 -0.11100
N 	N 	0.78010 0.61213 0.51835 -0.10600
C 	C 	0.67711 0.81371 0.60736 -0.06400
C 	C 	0.64588 0.77688 0.61003 -0.00200
C 	C 	0.61242 0.77564 0.64446 0.01000
C 	C 	0.60881 0.81268 0.67575 -0.05800
C 	C 	0.63857 0.85068 0.67161 -0.00300
C 	C 	0.67276 0.85133 0.63767 0.01100
H 	H 	0.64924 0.74791 0.58671 0.04100
H 	H 	0.63560 0.87935 0.69532 0.05400
C 	C 	0.70300 0.89081 0.63393 0.08900
C 	C 	0.58391 0.73496 0.64912 0.08300
N 	N 	0.72725 0.92241 0.63090 -0.10300
N 	N 	0.56109 0.70239 0.65283 -0.12200
C 	C 	0.05446 0.81080 0.51039 -0.05500
C 	C 	0.03150 0.76870 0.50379 -0.00900
C 	C 	0.98313 0.76720 0.50242 0.00600
C 	C 	0.95749 0.80824 0.50785 -0.05400
C 	C 	0.98054 0.85010 0.51557 -0.00800
C 	C 	0.02877 0.85161 0.51679 0.00800
H 	H 	0.05130 0.73723 0.49922 0.05000
H 	H 	0.96084 0.88167 0.51992 0.05700
C 	C 	0.05172 0.89524 0.52451 0.09400
C 	C 	0.96008 0.72340 0.49633 0.09000
N 	N 	0.07013 0.93014 0.53065 -0.09900
N 	N 	0.94155 0.68835 0.49147 -0.10400
C 	C 	0.32944 0.81381 0.60464 -0.06300
C 	C 	0.37670 0.80960 0.59525 -0.00400
C 	C 	0.40897 0.80944 0.63095 0.00800
C 	C 	0.39385 0.81294 0.67671 -0.06100
C 	C 	0.34702 0.82108 0.68583 -0.00500
C 	C 	0.31471 0.82141 0.65011 0.00900
H 	H 	0.38823 0.80506 0.56021 0.04900
H 	H 	0.33541 0.82476 0.72094 0.04600
C 	C 	0.26638 0.82754 0.66067 0.08100
C 	C 	0.45753 0.80613 0.62025 0.08800
N 	N 	0.22768 0.83248 0.66918 -0.11500
N 	N 	0.49638 0.80357 0.61139 -0.10200
C 	C 	0.05374 0.51046 0.81279 -0.05300
C 	C 	0.03076 0.47370 0.79141 -0.01100
C 	C 	0.98240 0.47158 0.79144 0.00600
C 	C 	0.95664 0.50656 0.81331 -0.05500
C 	C 	0.97967 0.54342 0.83446 -0.00500
C 	C 	0.02791 0.54548 0.83456 0.00900
H 	H 	0.05058 0.44661 0.77492 0.04800
H 	H 	0.95993 0.57020 0.85154 0.05300
C 	C 	0.05063 0.58267 0.85863 0.09600
C 	C 	0.95963 0.43392 0.76821 0.08300
N 	N 	0.06883 0.61243 0.87793 -0.10600
N 	N 	0.94167 0.40364 0.74950 -0.10200
C 	C 	0.33250 0.60418 0.83645 -0.06400
C 	C 	0.37781 0.59070 0.82621 -0.00200
C 	C 	0.41301 0.62369 0.82329 0.00400
C 	C 	0.40234 0.67096 0.82990 -0.05300
C 	C 	0.35946 0.68251 0.84936 -0.01000
C 	C 	0.32419 0.64958 0.85191 0.01300
H 	H 	0.38510 0.55491 0.81797 0.04600
H 	H 	0.35245 0.71787 0.85941 0.05100
C 	C 	0.27899 0.66343 0.86764 0.08500
C 	C 	0.45980 0.60835 0.81565 0.09200
N 	N 	0.24279 0.67456 0.88023 -0.11000
N 	N 	0.49719 0.59575 0.80944 -0.11000
C 	C 	0.20901 0.67823 0.61346 -0.05700
C 	C 	0.24290 0.68109 0.64744 -0.00700
C 	C 	0.24604 0.64737 0.68137 0.00600
C 	C 	0.21377 0.61081 0.68256 -0.05600
C 	C 	0.18008 0.60748 0.64817 -0.01000
C 	C 	0.17769 0.64093 0.61343 0.00500
H 	H 	0.26766 0.70923 0.64681 0.05400
H 	H 	0.15547 0.57926 0.64876 0.04700
C 	C 	0.14259 0.63721 0.57851 0.08500
C 	C 	0.28385 0.64957 0.71348 0.09300
N 	N 	0.11450 0.63427 0.55050 -0.10800
N 	N 	0.31446 0.65188 0.73879 -0.10200
C 	C 	0.21141 0.95005 0.49377 -0.06000
C 	C 	0.19181 0.97487 0.45742 -0.00300
C 	C 	0.19046 0.02317 0.45849 0.01000
C 	C 	0.20977 0.04713 0.49595 -0.06000
C 	C 	0.23092 0.02241 0.53143 -0.00600
C 	C 	0.23195 0.97409 0.53055 0.00900
H 	H 	0.17593 0.95651 0.42915 0.04900
H 	H 	0.24608 0.04084 0.56006 0.05100
C 	C 	0.25464 0.94957 0.56725 0.08800
C 	C 	0.16715 0.04774 0.42218 0.08800
N 	N 	0.27288 0.93019 0.59678 -0.10300
N 	N 	0.14846 0.06742 0.39313 -0.11200
C 	C 	0.18947 0.37833 0.70107 -0.05700
C 	C 	0.17358 0.39088 0.65753 -0.01100
C 	C 	0.16954 0.35761 0.62284 0.00500
C 	C 	0.18326 0.31153 0.63137 -0.05300
C 	C 	0.19562 0.29857 0.67608 -0.01100
C 	C 	0.19877 0.33161 0.71080 0.00800
H 	H 	0.16490 0.42661 0.65047 0.04500
H 	H 	0.20489 0.26308 0.68341 0.06000
C 	C 	0.21274 0.31738 0.75610 0.09000
C 	C 	0.14998 0.37075 0.57931 0.09100
N 	N 	0.22391 0.30578 0.79232 -0.10400
N 	N 	0.13432 0.38137 0.54444 -0.10100
C 	C 	0.80492 0.04640 0.50136 -0.06100
C 	C 	0.82371 0.02315 0.53912 -0.00400
C 	C 	0.82567 0.97490 0.53985 0.01000
C 	C 	0.80800 0.94931 0.50267 -0.06000
C 	C 	0.78914 0.97249 0.46490 -0.00600
C 	C 	0.78733 0.02086 0.46410 0.00900
H 	H 	0.83769 0.04274 0.56758 0.04600
H 	H 	0.77552 0.95285 0.43631 0.05100
C 	C 	0.76628 0.04389 0.42552 0.09000
C 	C 	0.84748 0.95200 0.57810 0.08600
N 	N 	0.74941 0.06231 0.39461 -0.10300
N 	N 	0.86494 0.93364 0.60872 -0.11200
C 	C 	0.95366 0.18613 0.49396 -0.05500
C 	C 	0.97667 0.14358 0.49230 -0.00600
C 	C 	0.02471 0.14152 0.49663 0.00700
C 	C 	0.05031 0.18255 0.50225 -0.05400
C 	C 	0.02744 0.22525 0.50299 -0.00900
C 	C 	0.97923 0.22725 0.49873 0.00600
H 	H 	0.95696 0.11194 0.48862 0.05400
H 	H 	0.04716 0.25685 0.50691 0.05200
C 	C 	0.95622 0.27147 0.50014 0.08800
C 	C 	0.04736 0.09705 0.49668 0.09600
N 	N 	0.93770 0.30685 0.50127 -0.10300
N 	N 	0.06552 0.06147 0.49671 -0.10000
C 	C 	0.82863 0.31189 0.62254 -0.05600
C 	C 	0.83170 0.29874 0.66860 -0.00700
C 	C 	0.82878 0.33191 0.70334 0.00800
C 	C 	0.82410 0.37905 0.69188 -0.05300
C 	C 	0.82558 0.39250 0.64581 -0.01000
C 	C 	0.82807 0.35918 0.61112 0.00600
H 	H 	0.83282 0.26238 0.67747 0.04900
H 	H 	0.82328 0.42880 0.63695 0.04600
C 	C 	0.82943 0.37369 0.56385 0.08400
C 	C 	0.82741 0.31699 0.75050 0.09300
N 	N 	0.83056 0.38533 0.52599 -0.10400
N 	N 	0.82626 0.30504 0.78827 -0.10600
C 	C 	0.49362 0.95150 0.80404 -0.06300
C 	C 	0.47482 0.97386 0.84240 -0.00400
C 	C 	0.47616 0.02190 0.84599 0.00700
C 	C 	0.49514 0.04840 0.81026 -0.05500
C 	C 	0.51266 0.02646 0.77120 -0.01200
C 	C 	0.51174 0.97816 0.76767 0.00900
H 	H 	0.45962 0.95374 0.86982 0.06000
H 	H 	0.52651 0.04698 0.74334 0.04600
C 	C 	0.52738 0.95654 0.72589 0.09200
C 	C 	0.45830 0.04380 0.88676 0.09300
N 	N 	0.53990 0.93920 0.69244 -0.10300
N 	N 	0.44402 0.06132 0.91942 -0.10500
C 	C 	0.39438 0.32395 0.84090 -0.06300
C 	C 	0.35086 0.31400 0.85958 -0.00500
C 	C 	0.31709 0.34860 0.86241 0.00900
C 	C 	0.32618 0.39275 0.84382 -0.06100
C 	C 	0.37183 0.40419 0.83204 -0.01000
C 	C 	0.40598 0.37012 0.83098 0.00900
H 	H 	0.34273 0.27909 0.87029 0.04800
H 	H 	0.38037 0.43915 0.82183 0.05000
C 	C 	0.45283 0.38277 0.81957 0.08500
C 	C 	0.27489 0.33951 0.88712 0.09500
N 	N 	0.49032 0.39308 0.81047 -0.10300
N 	N 	0.24109 0.33222 0.90697 -0.10700
C 	C 	0.38753 0.18395 0.68787 -0.05300
C 	C 	0.34104 0.17576 0.69940 -0.01200
C 	C 	0.30728 0.17317 0.66525 0.01100
C 	C 	0.31984 0.17871 0.61903 -0.06700
C 	C 	0.36668 0.18081 0.60715 -0.00400
C 	C 	0.40073 0.18208 0.64125 0.00200
H 	H 	0.33080 0.17343 0.73501 0.05400
H 	H 	0.37655 0.18269 0.57138 0.04800
C 	C 	0.44868 0.17886 0.62811 0.09200
C 	C 	0.25955 0.16661 0.67809 0.07800
N 	N 	0.48707 0.17627 0.61746 -0.11000
N 	N 	0.22134 0.16132 0.68839 -0.11400
C 	C 	0.60883 0.32442 0.82227 -0.05600
C 	C 	0.64020 0.32707 0.85882 -0.00300
C 	C 	0.67615 0.35957 0.85821 0.01300
C 	C 	0.68088 0.38969 0.82059 -0.05900
C 	C 	0.64863 0.38804 0.78484 -0.00100
C 	C 	0.61296 0.35551 0.78524 0.01000
H 	H 	0.63709 0.30331 0.88734 0.05700
H 	H 	0.65217 0.41127 0.75592 0.04100
C 	C 	0.58212 0.35290 0.74646 0.08300
C 	C 	0.70746 0.36227 0.89659 0.09500
N 	N 	0.55744 0.35087 0.71538 -0.12200
N 	N 	0.73254 0.36448 0.92733 -0.10300
C 	C 	0.68620 0.18861 0.62369 -0.06600
C 	C 	0.69578 0.21144 0.66496 -0.00600
C 	C 	0.66320 0.21258 0.70012 0.00500
C 	C 	0.61968 0.19170 0.69389 -0.05400
C 	C 	0.61025 0.16787 0.65313 -0.01200
C 	C 	0.64332 0.16609 0.61799 0.00900
H 	H 	0.72870 0.22875 0.66956 0.05400
H 	H 	0.57709 0.15110 0.64860 0.05200
C 	C 	0.63323 0.14055 0.57673 0.09200
C 	C 	0.67513 0.23476 0.74277 0.09000
N 	N 	0.62516 0.12010 0.54366 -0.10200
N 	N 	0.68528 0.25254 0.77677 -0.10100
C 	C 	0.49670 0.19236 0.95996 -0.05900
C 	C 	0.45507 0.18038 0.98179 -0.00500
C 	C 	0.45252 0.17724 0.02951 0.00700
C 	C 	0.49108 0.18935 0.05649 -0.05400
C 	C 	0.53219 0.20299 0.03508 -0.01300
C 	C 	0.53570 0.20382 0.98723 0.00800
H 	H 	0.42484 0.17207 0.96149 0.05400
H 	H 	0.56188 0.21226 0.05580 0.04900
C 	C 	0.57973 0.21529 0.96696 0.09100
C 	C 	0.41116 0.15872 0.05019 0.09700
N 	N 	0.61509 0.22448 0.95091 -0.10900
N 	N 	0.37804 0.14383 0.06671 -0.10500
C 	C 	0.39639 0.20962 0.33269 -0.05800
C 	C 	0.37801 0.25036 0.35145 -0.01000
C 	C 	0.34467 0.24857 0.38589 0.00900
C 	C 	0.32732 0.20563 0.40058 -0.06700
C 	C 	0.34592 0.16475 0.38268 -0.00500
C 	C 	0.38121 0.16638 0.34973 0.00500
H 	H 	0.38966 0.28370 0.33913 0.05700
H 	H 	0.33320 0.13166 0.39465 0.04900
C 	C 	0.40275 0.12381 0.33537 0.09900
C 	C 	0.32915 0.29114 0.40651 0.07600
N 	N 	0.41993 0.08964 0.32392 -0.10000
N 	N 	0.31715 0.32548 0.42285 -0.11100
C 	C 	0.61623 0.18288 0.32193 -0.05900
C 	C 	0.66379 0.18339 0.31230 -0.00800
C 	C 	0.69613 0.18331 0.34789 0.01100
C 	C 	0.68098 0.18346 0.39375 -0.06200
C 	C 	0.63386 0.17854 0.40340 -0.00400
C 	C 	0.60150 0.17683 0.36776 0.00600
H 	H 	0.67565 0.18565 0.27718 0.05600
H 	H 	0.62235 0.17649 0.43867 0.05200
C 	C 	0.55376 0.16707 0.37840 0.10000
C 	C 	0.74478 0.18410 0.33698 0.08200
N 	N 	0.51553 0.15926 0.38695 -0.10100
N 	N 	0.78371 0.18466 0.32813 -0.11200
C 	C 	0.49919 0.95508 0.19858 -0.06200
C 	C 	0.51315 0.97695 0.23918 -0.00600
C 	C 	0.51043 0.02512 0.24344 0.00800
C 	C 	0.49358 0.05189 0.20664 -0.06200
C 	C 	0.47918 0.02997 0.16633 -0.00800
C 	C 	0.48213 0.98203 0.16188 0.00700
H 	H 	0.52581 0.95642 0.26759 0.05900
H 	H 	0.46671 0.05048 0.13781 0.05700
C 	C 	0.46856 0.96108 0.11907 0.09300
C 	C 	0.52424 0.04659 0.28591 0.09900
N 	N 	0.45747 0.94452 0.08476 -0.10600
N 	N 	0.53535 0.06376 0.31992 -0.09800
C 	C 	0.49871 0.81272 0.95115 -0.05700
C 	C 	0.48960 0.77180 0.97530 -0.00900
C 	C 	0.49061 0.77135 0.02333 0.00500
C 	C 	0.49923 0.81261 0.04750 -0.05300
C 	C 	0.50878 0.85327 0.02335 -0.00800
C 	C 	0.50849 0.85370 0.97558 0.00700
H 	H 	0.48269 0.74013 0.95670 0.04800
H 	H 	0.51675 0.88471 0.04187 0.06000
C 	C 	0.51828 0.89647 0.95207 0.09400
C 	C 	0.48590 0.72801 0.04731 0.08900
N 	N 	0.52639 0.93081 0.93352 -0.10800
N 	N 	0.48230 0.69328 0.06655 -0.10600
C 	C 	0.62705 0.82283 0.31364 -0.06100
C 	C 	0.67325 0.81183 0.30370 -0.01000
C 	C 	0.70610 0.80936 0.33867 0.01000
C 	C 	0.69281 0.81747 0.38434 -0.06800
C 	C 	0.64771 0.83203 0.39397 -0.00500
C 	C 	0.61498 0.83570 0.35879 0.00400
H 	H 	0.68332 0.80346 0.26893 0.06000
H 	H 	0.63787 0.83976 0.42897 0.04900
C 	C 	0.56984 0.85414 0.36908 0.09300
C 	C 	0.75323 0.79767 0.32738 0.08100
N 	N 	0.53370 0.86891 0.37743 -0.10000
N 	N 	0.79092 0.78837 0.31804 -0.10700
C 	C 	0.39114 0.80908 0.31233 -0.06800
C 	C 	0.35845 0.77353 0.31013 -0.00700
C 	C 	0.32215 0.77155 0.34150 0.00500
C 	C 	0.31779 0.80608 0.37537 -0.06200
C 	C 	0.34889 0.84327 0.37587 -0.00800
C 	C 	0.38523 0.84524 0.34411 0.00800
H 	H 	0.36234 0.74631 0.28490 0.05100
H 	H 	0.34502 0.87040 0.40116 0.05200
C 	C 	0.41584 0.88458 0.34406 0.09300
C 	C 	0.29089 0.73277 0.33976 0.09000
N 	N 	0.44026 0.91620 0.34392 -0.09900
N 	N 	0.26627 0.70139 0.33781 -0.10100
C 	C 	0.81309 0.50117 0.95577 -0.06400
C 	C 	0.85609 0.50573 0.97738 -0.00600
C 	C 	0.85987 0.50113 0.02491 0.00500
C 	C 	0.81998 0.49308 0.05148 -0.05500
C 	C 	0.77694 0.48860 0.02993 -0.01100
C 	C 	0.77325 0.49265 0.98227 0.01000
H 	H 	0.88686 0.51152 0.95699 0.05400
H 	H 	0.74626 0.48238 0.05033 0.04800
C 	C 	0.72839 0.48899 0.96094 0.09400
C 	C 	0.90505 0.50245 0.04583 0.09400
N 	N 	0.69249 0.48605 0.94380 -0.09800
N 	N 	0.94129 0.50343 0.06248 -0.10600
C 	C 	0.81239 0.39272 0.32801 -0.06000
C 	C 	0.83828 0.35201 0.32330 -0.00100
C 	C 	0.83930 0.31933 0.35877 0.00500
C 	C 	0.81234 0.32643 0.39854 -0.04800
C 	C 	0.79105 0.36955 0.40518 -0.00900
C 	C 	0.79161 0.40287 0.37049 0.01100
H 	H 	0.85655 0.34515 0.29162 0.05100
H 	H 	0.77272 0.37667 0.43675 0.05800
C 	C 	0.77143 0.44765 0.37907 0.08800
C 	C 	0.86959 0.27992 0.35494 0.09500
N 	N 	0.75528 0.48349 0.38606 -0.10500
N 	N 	0.89389 0.24836 0.35186 -0.10400
C 	C 	0.68586 0.38242 0.16438 -0.05200
C 	C 	0.63870 0.39377 0.16361 -0.01200
C 	C 	0.60537 0.35885 0.16152 0.00700
C 	C 	0.61924 0.31227 0.16160 -0.06000
C 	C 	0.66571 0.30156 0.15345 -0.00500
C 	C 	0.69901 0.33668 0.15320 0.00500
H 	H 	0.62794 0.42944 0.16668 0.06200
H 	H 	0.67623 0.26583 0.14961 0.05000
C 	C 	0.74538 0.32611 0.13838 0.09100
C 	C 	0.55719 0.37105 0.15833 0.08000
N 	N 	0.78252 0.31760 0.12646 -0.11000
N 	N 	0.51865 0.38111 0.15548 -0.10500
C 	C 	0.68895 0.61507 0.16817 -0.05600
C 	C 	0.70518 0.66055 0.16429 -0.00700
C 	C 	0.67420 0.69773 0.16512 0.00600
C 	C 	0.62632 0.68935 0.16888 -0.05500
C 	C 	0.60998 0.64381 0.16742 -0.01100
C 	C 	0.64100 0.60667 0.16716 0.00700
H 	H 	0.74205 0.66714 0.16391 0.04900
H 	H 	0.57312 0.63727 0.16896 0.04900
C 	C 	0.62334 0.56008 0.16656 0.08400
C 	C 	0.69200 0.74432 0.16517 0.08900
N 	N 	0.60906 0.52279 0.16607 -0.10900
N 	N 	0.70627 0.78163 0.16525 -0.11100
C 	C 	0.80667 0.67240 0.39145 -0.05100
C 	C 	0.76657 0.64602 0.38507 -0.00600
C 	C 	0.76424 0.61308 0.35018 0.01100
C 	C 	0.80292 0.60535 0.32183 -0.06100
C 	C 	0.84336 0.63118 0.32862 -0.00300
C 	C 	0.84544 0.66466 0.36327 0.00600
H 	H 	0.73652 0.65229 0.40637 0.05000
H 	H 	0.87309 0.62537 0.30678 0.04900
C 	C 	0.88763 0.69035 0.37008 0.09200
C 	C 	0.72121 0.58913 0.34217 0.08600
N 	N 	0.92141 0.71095 0.37554 -0.10300
N 	N 	0.68676 0.56997 0.33575 -0.11500
C 	C 	0.05130 0.50217 0.19949 -0.06000
C 	C 	0.02955 0.47714 0.23465 -0.00800
C 	C 	0.98129 0.47653 0.23823 0.00900
C 	C 	0.95435 0.50212 0.20716 -0.06500
C 	C 	0.97590 0.52890 0.17356 -0.00300
C 	C 	0.02390 0.52814 0.16854 0.00500
H 	H 	0.05020 0.45784 0.25901 0.05500
H 	H 	0.95501 0.54884 0.14991 0.04900
C 	C 	0.04420 0.55219 0.13017 0.09600
C 	C 	0.95968 0.44956 0.27388 0.08600
N 	N 	0.06022 0.57159 0.09942 -0.10700
N 	N 	0.94236 0.42796 0.30242 -0.10200
C 	C 	0.19873 0.52050 0.05572 -0.05400
C 	C 	0.15665 0.51888 0.03208 -0.00800
C 	C 	0.15586 0.51502 0.98449 0.01100
C 	C 	0.19768 0.51386 0.95984 -0.06300
C 	C 	0.23986 0.51715 0.98326 -0.00400
C 	C 	0.24058 0.52055 0.03114 0.00300
H 	H 	0.12448 0.51843 0.05105 0.06100
H 	H 	0.27204 0.51680 0.96426 0.05200
C 	C 	0.28430 0.52302 0.05480 0.08500
C 	C 	0.11202 0.50979 0.96141 0.09500
N 	N 	0.31928 0.52501 0.07384 -0.10700
N 	N 	0.07690 0.50554 0.94301 -0.10100
C 	C 	0.32990 0.39959 0.17944 -0.05300
C 	C 	0.32662 0.35871 0.15383 -0.00400
C 	C 	0.36308 0.32686 0.15401 0.00700
C 	C 	0.40249 0.33536 0.18125 -0.05200
C 	C 	0.40853 0.37935 0.20049 -0.00600
C 	C 	0.37283 0.41180 0.19881 0.00700
H 	H 	0.29481 0.35042 0.13606 0.05500
H 	H 	0.44007 0.38756 0.21876 0.05700
C 	C 	0.38084 0.45766 0.21642 0.08400
C 	C 	0.36010 0.28611 0.12571 0.08700
N 	N 	0.38786 0.49430 0.23054 -0.10300
N 	N 	0.35763 0.25351 0.10297 -0.10400
C 	C 	0.18358 0.31153 0.38612 -0.05600
C 	C 	0.21366 0.30504 0.34927 -0.00800
C 	C 	0.21441 0.33632 0.31298 0.00800
C 	C 	0.18427 0.37477 0.31327 -0.06400
C 	C 	0.15206 0.37958 0.34888 -0.00400
C 	C 	0.15124 0.34780 0.38506 0.00500
H 	H 	0.23773 0.27633 0.34964 0.05400
H 	H 	0.12815 0.40842 0.34872 0.05300
C 	C 	0.11676 0.35221 0.42047 0.09100
C 	C 	0.24736 0.32939 0.27653 0.09400
N 	N 	0.08901 0.35565 0.44874 -0.10100
N 	N 	0.27384 0.32338 0.24750 -0.10400
C 	C 	0.39996 0.67427 0.20402 -0.05800
C 	C 	0.39438 0.64984 0.24505 -0.00800
C 	C 	0.35689 0.62003 0.25101 0.00800
C 	C 	0.32592 0.61216 0.21450 -0.05200
C 	C 	0.33191 0.63584 0.17309 -0.01000
C 	C 	0.36837 0.66730 0.16784 0.00800
H 	H 	0.41777 0.65617 0.27339 0.04700
H 	H 	0.30813 0.62989 0.14501 0.05100
C 	C 	0.37270 0.69267 0.12552 0.08900
C 	C 	0.34880 0.59998 0.29558 0.09300
N 	N 	0.37600 0.71306 0.09163 -0.10300
N 	N 	0.34228 0.58396 0.33128 -0.10900
C 	C 	0.17041 0.60197 0.33101 -0.06500
C 	C 	0.15632 0.64565 0.31581 -0.00000
C 	C 	0.15510 0.68297 0.34620 0.00700
C 	C 	0.16788 0.67637 0.39242 -0.05100
C 	C 	0.17487 0.63135 0.40875 -0.01100
C 	C 	0.17638 0.59412 0.37823 0.01400
H 	H 	0.14960 0.65132 0.27972 0.04200
H 	H 	0.18230 0.62580 0.44473 0.05000
C 	C 	0.18442 0.54810 0.39551 0.08700
C 	C 	0.14420 0.72838 0.32889 0.09400
N 	N 	0.19083 0.51121 0.40931 -0.10500
N 	N 	0.13550 0.76476 0.31498 -0.11000
