data_crystal

_cell_length_a 39.12494
_cell_length_b 39.30245
_cell_length_c 39.21437
_cell_angle_alpha 90.00035
_cell_angle_beta  90.00565
_cell_angle_gamma 90.00029

_symmetry_space_group_name_	'P 1'
_symmetry_space_group_name_H-M	'P 1'

loop_
_symmetry_equiv_pos_as_xyz
  x,y,z

loop_
_atom_site_label
_atom_site_type_symbol
_atom_site_fract_x
_atom_site_fract_y
_atom_site_fract_z
_atom_site_charge
C 	C 	0.27128 0.45140 0.20608 0.30900
C 	C 	0.19103 0.56295 0.26556 0.32300
C 	C 	0.20032 0.45002 0.27111 0.32700
C 	C 	0.26083 0.56785 0.19707 0.30800
C 	C 	0.12936 0.49969 0.20267 0.33700
C 	C 	0.19819 0.49800 0.13095 0.30600
Ni	Ni	0.24181 0.50973 0.24623 1.11600
Ni	Ni	0.18911 0.54347 0.19227 1.12300
Ni	Ni	0.19479 0.46273 0.19728 1.12300
O 	O 	0.27829 0.48123 0.22050 -0.36200
O 	O 	0.23995 0.43798 0.20721 -0.37500
O 	O 	0.14421 0.52826 0.21175 -0.38900
O 	O 	0.20336 0.53312 0.27413 -0.36300
O 	O 	0.19423 0.57389 0.23400 -0.37800
O 	O 	0.20611 0.46959 0.14772 -0.36900
O 	O 	0.23072 0.46422 0.27119 -0.37000
O 	O 	0.17888 0.45574 0.24601 -0.36900
O 	O 	0.17974 0.52257 0.14560 -0.37900
O 	O 	0.26045 0.55697 0.22927 -0.36800
O 	O 	0.23377 0.56448 0.17675 -0.36700
O 	O 	0.14640 0.47625 0.18582 -0.38200
O 	O 	0.21506 0.50542 0.20693 -0.72100
H 	H 	0.23305 0.50557 0.18936 0.15700
C 	C 	0.73831 0.55992 0.20214 0.30300
C 	C 	0.80431 0.44214 0.26631 0.33200
C 	C 	0.80695 0.55628 0.26905 0.32900
C 	C 	0.73531 0.44335 0.19675 0.31200
C 	C 	0.87372 0.49618 0.20423 0.33000
C 	C 	0.80754 0.50427 0.13031 0.30700
Ni	Ni	0.76012 0.50008 0.24498 1.11600
Ni	Ni	0.80948 0.45929 0.19270 1.12300
Ni	Ni	0.81320 0.54022 0.19610 1.12400
O 	O 	0.72753 0.53189 0.21789 -0.35200
O 	O 	0.77087 0.56990 0.20427 -0.37500
O 	O 	0.85555 0.46939 0.21288 -0.38400
O 	O 	0.79528 0.47332 0.27411 -0.37900
O 	O 	0.80005 0.43076 0.23504 -0.37500
O 	O 	0.80199 0.53350 0.14656 -0.36900
O 	O 	0.77544 0.54473 0.26919 -0.37300
O 	O 	0.82841 0.54708 0.24505 -0.37600
O 	O 	0.82229 0.47782 0.14580 -0.37700
O 	O 	0.73668 0.45475 0.22875 -0.36500
O 	O 	0.76279 0.44358 0.17667 -0.38000
O 	O 	0.85992 0.52091 0.18628 -0.37100
O 	O 	0.78800 0.50040 0.20623 -0.72100
H 	H 	0.77045 0.50193 0.18830 0.15900
C 	C 	0.55527 0.80442 0.27617 0.31100
C 	C 	0.44447 0.74154 0.19704 0.33200
C 	C 	0.55815 0.73672 0.20911 0.32700
C 	C 	0.43831 0.81392 0.26134 0.30900
C 	C 	0.51076 0.80186 0.13272 0.33600
C 	C 	0.51004 0.87580 0.19847 0.30900
Ni	Ni	0.49689 0.76379 0.24711 1.11800
Ni	Ni	0.46473 0.81441 0.19030 1.12400
Ni	Ni	0.54569 0.80984 0.19912 1.12300
O 	O 	0.52447 0.79167 0.28272 -0.36600
O 	O 	0.56937 0.80211 0.24524 -0.37400
O 	O 	0.48198 0.79264 0.14728 -0.38900
O 	O 	0.47475 0.73435 0.20929 -0.37400
O 	O 	0.43358 0.77320 0.19630 -0.36800
O 	O 	0.53856 0.85977 0.20767 -0.38300
O 	O 	0.54272 0.73814 0.23884 -0.35600
O 	O 	0.55304 0.76046 0.18614 -0.38200
O 	O 	0.48621 0.86048 0.17958 -0.37100
O 	O 	0.44889 0.78176 0.26303 -0.35600
O 	O 	0.44186 0.83231 0.23306 -0.36400
O 	O 	0.53394 0.81905 0.14986 -0.38500
O 	O 	0.50207 0.80136 0.21839 -0.72000
H 	H 	0.50130 0.81985 0.23532 0.15600
C 	C 	0.55701 0.26659 0.21050 0.31200
C 	C 	0.43544 0.19453 0.25967 0.33100
C 	C 	0.54851 0.19376 0.27338 0.32800
C 	C 	0.44069 0.26644 0.19446 0.31200
C 	C 	0.49827 0.13025 0.19911 0.33200
C 	C 	0.51035 0.20210 0.13074 0.30900
Ni	Ni	0.49410 0.24100 0.24637 1.11500
Ni	Ni	0.45992 0.19352 0.18789 1.12500
Ni	Ni	0.54076 0.19220 0.19873 1.12600
O 	O 	0.52737 0.27587 0.22426 -0.37200
O 	O 	0.56806 0.23457 0.21246 -0.37600
O 	O 	0.46973 0.14663 0.20576 -0.39000
O 	O 	0.46561 0.20380 0.27081 -0.37600
O 	O 	0.42692 0.19940 0.22760 -0.36900
O 	O 	0.53843 0.20620 0.14946 -0.37800
O 	O 	0.53679 0.22509 0.27387 -0.37400
O 	O 	0.54311 0.17398 0.24699 -0.37300
O 	O 	0.48359 0.18467 0.14249 -0.36500
O 	O 	0.44957 0.26405 0.22720 -0.36000
O 	O 	0.44376 0.24025 0.17314 -0.36700
O 	O 	0.52408 0.14584 0.18435 -0.37100
O 	O 	0.49897 0.21533 0.20650 -0.72000
H 	H 	0.50147 0.23389 0.18982 0.15700
C 	C 	0.56084 0.19807 0.73857 0.31000
C 	C 	0.44528 0.26239 0.81409 0.33000
C 	C 	0.55722 0.26523 0.80749 0.33300
C 	C 	0.44018 0.19655 0.74321 0.31300
C 	C 	0.50755 0.19871 0.87689 0.33000
C 	C 	0.50305 0.12612 0.80911 0.30700
Ni	Ni	0.49941 0.24087 0.76422 1.11700
Ni	Ni	0.46289 0.18918 0.81718 1.12400
Ni	Ni	0.54425 0.19084 0.81218 1.12300
O 	O 	0.54520 0.22827 0.73914 -0.35700
O 	O 	0.55987 0.17681 0.76499 -0.38100
O 	O 	0.48385 0.17941 0.86305 -0.38500
O 	O 	0.45382 0.26164 0.78175 -0.36800
O 	O 	0.45295 0.23694 0.83446 -0.37500
O 	O 	0.52858 0.14286 0.82420 -0.38000
O 	O 	0.52558 0.27161 0.79845 -0.36800
O 	O 	0.57030 0.23475 0.80311 -0.38100
O 	O 	0.47245 0.14037 0.80480 -0.36800
O 	O 	0.46823 0.21227 0.73227 -0.36800
O 	O 	0.43133 0.19664 0.77610 -0.36700
O 	O 	0.53380 0.20919 0.85881 -0.38000
O 	O 	0.50190 0.20222 0.79171 -0.72300
H 	H 	0.50111 0.18455 0.77391 0.15800
C 	C 	0.73008 0.19565 0.44778 0.31300
C 	C 	0.81093 0.26054 0.55595 0.33000
C 	C 	0.79970 0.26071 0.44267 0.33500
C 	C 	0.74271 0.19081 0.56441 0.30900
C 	C 	0.87303 0.19666 0.49427 0.32900
C 	C 	0.80512 0.12347 0.49734 0.30600
Ni	Ni	0.76006 0.23785 0.50440 1.11500
Ni	Ni	0.81434 0.18657 0.53983 1.12700
Ni	Ni	0.80706 0.18785 0.45871 1.12200
O 	O 	0.72383 0.20985 0.47791 -0.37500
O 	O 	0.76134 0.19561 0.43405 -0.37200
O 	O 	0.85871 0.20598 0.52312 -0.37200
O 	O 	0.79872 0.26706 0.52553 -0.37500
O 	O 	0.80908 0.22954 0.56854 -0.35700
O 	O 	0.79683 0.13854 0.46805 -0.38300
O 	O 	0.76957 0.26060 0.45740 -0.36800
O 	O 	0.82179 0.23632 0.44866 -0.38500
O 	O 	0.82412 0.13931 0.52071 -0.36300
O 	O 	0.74280 0.22267 0.55280 -0.36800
O 	O 	0.77032 0.17113 0.56222 -0.36400
O 	O 	0.85594 0.17826 0.47198 -0.38700
O 	O 	0.78755 0.19910 0.50142 -0.72000
H 	H 	0.76993 0.18125 0.50264 0.15600
C 	C 	0.20343 0.26414 0.44241 0.30900
C 	C 	0.26592 0.19638 0.56026 0.32700
C 	C 	0.26790 0.19345 0.44709 0.33400
C 	C 	0.19788 0.26618 0.56060 0.31000
C 	C 	0.19926 0.12849 0.50632 0.33300
C 	C 	0.12882 0.19653 0.49880 0.30700
Ni	Ni	0.24487 0.24107 0.50271 1.11800
Ni	Ni	0.19179 0.19272 0.54355 1.12300
Ni	Ni	0.19447 0.18970 0.46247 1.12400
O 	O 	0.21811 0.27420 0.47127 -0.36000
O 	O 	0.20394 0.23160 0.43259 -0.36700
O 	O 	0.21038 0.14646 0.53231 -0.39000
O 	O 	0.27331 0.20504 0.52885 -0.36600
O 	O 	0.23470 0.20037 0.57205 -0.37900
O 	O 	0.14521 0.20220 0.46959 -0.38300
O 	O 	0.26835 0.22511 0.45780 -0.36200
O 	O 	0.24300 0.17292 0.45592 -0.38100
O 	O 	0.14421 0.18164 0.52533 -0.36300
O 	O 	0.22968 0.26453 0.54847 -0.35900
O 	O 	0.17722 0.23925 0.56040 -0.37700
O 	O 	0.18285 0.14320 0.48099 -0.38000
O 	O 	0.20534 0.21435 0.50252 -0.72200
H 	H 	0.18775 0.23225 0.50133 0.15800
C 	C 	0.21254 0.44842 0.73330 0.31200
C 	C 	0.26669 0.56158 0.81458 0.32600
C 	C 	0.27575 0.44729 0.80575 0.33400
C 	C 	0.20009 0.56349 0.74397 0.31300
C 	C 	0.20335 0.49521 0.87520 0.32800
C 	C 	0.13431 0.49185 0.80372 0.30900
Ni	Ni	0.25075 0.50720 0.76442 1.11600
Ni	Ni	0.19385 0.53901 0.81538 1.12500
Ni	Ni	0.20152 0.45844 0.80934 1.12200
O 	O 	0.22731 0.47820 0.72682 -0.36400
O 	O 	0.21352 0.43456 0.76434 -0.37800
O 	O 	0.21254 0.52387 0.86055 -0.38700
O 	O 	0.27617 0.53143 0.80394 -0.37600
O 	O 	0.23458 0.57121 0.81188 -0.36400
O 	O 	0.15206 0.46388 0.79644 -0.38000
O 	O 	0.27692 0.46243 0.77590 -0.37300
O 	O 	0.25001 0.45257 0.82651 -0.38500
O 	O 	0.14750 0.51653 0.82302 -0.36600
O 	O 	0.23272 0.55391 0.74552 -0.36400
O 	O 	0.17911 0.55983 0.77043 -0.36900
O 	O 	0.18827 0.47101 0.85749 -0.37400
O 	O 	0.21062 0.50157 0.78975 -0.72000
H 	H 	0.19365 0.50132 0.77120 0.16000
C 	C 	0.21160 0.73250 0.55933 0.30700
C 	C 	0.26954 0.81292 0.44760 0.33100
C 	C 	0.27483 0.80557 0.56121 0.33300
C 	C 	0.20473 0.74206 0.44184 0.31000
C 	C 	0.20395 0.87319 0.51050 0.32700
C 	C 	0.13471 0.80134 0.51247 0.30400
Ni	Ni	0.25190 0.76290 0.50158 1.11600
Ni	Ni	0.19581 0.81287 0.46696 1.12500
Ni	Ni	0.20081 0.80810 0.54799 1.12500
O 	O 	0.22744 0.72562 0.53012 -0.37400
O 	O 	0.21237 0.76363 0.57289 -0.35800
O 	O 	0.21295 0.85873 0.48162 -0.37500
O 	O 	0.27779 0.80254 0.47826 -0.36700
O 	O 	0.23797 0.80972 0.43649 -0.36900
O 	O 	0.15177 0.79456 0.54105 -0.37700
O 	O 	0.27604 0.77518 0.54732 -0.37000
O 	O 	0.24890 0.82589 0.55527 -0.38000
O 	O 	0.14851 0.82014 0.48767 -0.36300
O 	O 	0.23654 0.74339 0.45405 -0.36800
O 	O 	0.18262 0.76741 0.44640 -0.37100
O 	O 	0.18755 0.85569 0.53400 -0.38400
O 	O 	0.21151 0.78803 0.50538 -0.72100
H 	H 	0.19467 0.76940 0.50523 0.15600
C 	C 	0.81664 0.73994 0.43883 0.30700
C 	C 	0.73918 0.79474 0.55740 0.33300
C 	C 	0.74480 0.80543 0.44354 0.32900
C 	C 	0.80736 0.72714 0.55498 0.31000
C 	C 	0.80499 0.86948 0.50906 0.32900
C 	C 	0.87926 0.80349 0.50963 0.30600
Ni	Ni	0.76609 0.75574 0.49677 1.11400
Ni	Ni	0.81282 0.80380 0.54502 1.12500
Ni	Ni	0.81791 0.81123 0.46413 1.12400
O 	O 	0.78424 0.73888 0.44925 -0.37200
O 	O 	0.83568 0.76780 0.44252 -0.36400
O 	O 	0.82224 0.85275 0.53251 -0.38400
O 	O 	0.74029 0.76488 0.54236 -0.37300
O 	O 	0.76332 0.81732 0.55219 -0.38400
O 	O 	0.86399 0.82218 0.48568 -0.37700
O 	O 	0.73676 0.79310 0.47355 -0.38100
O 	O 	0.77672 0.80493 0.43296 -0.36300
O 	O 	0.86297 0.79464 0.53809 -0.36500
O 	O 	0.79350 0.72011 0.52480 -0.37500
O 	O 	0.80456 0.75802 0.56893 -0.35400
O 	O 	0.79626 0.85462 0.48031 -0.37600
O 	O 	0.80410 0.78413 0.50176 -0.72000
H 	H 	0.82247 0.76700 0.50139 0.15700
C 	C 	0.56739 0.73443 0.80175 0.31000
C 	C 	0.44628 0.80370 0.74706 0.33200
C 	C 	0.55999 0.80393 0.73556 0.33200
C 	C 	0.44949 0.73564 0.81555 0.31200
C 	C 	0.50778 0.87140 0.80578 0.32900
C 	C 	0.51865 0.80327 0.87774 0.31200
Ni	Ni	0.50481 0.75829 0.76390 1.11500
Ni	Ni	0.46953 0.80854 0.81910 1.12400
Ni	Ni	0.55052 0.80950 0.80992 1.12600
O 	O 	0.53769 0.72469 0.78838 -0.36900
O 	O 	0.57828 0.76652 0.79909 -0.36900
O 	O 	0.47995 0.85412 0.79847 -0.39100
O 	O 	0.47671 0.79406 0.73696 -0.37600
O 	O 	0.43724 0.80043 0.77919 -0.37300
O 	O 	0.54713 0.79812 0.85986 -0.37700
O 	O 	0.54811 0.77268 0.73653 -0.37300
O 	O 	0.55416 0.82514 0.76075 -0.37900
O 	O 	0.49225 0.82009 0.86440 -0.37500
O 	O 	0.45983 0.73600 0.78310 -0.36200
O 	O 	0.45363 0.76243 0.83594 -0.36100
O 	O 	0.53361 0.85667 0.82146 -0.37100
O 	O 	0.50895 0.78588 0.80250 -0.72200
H 	H 	0.51121 0.76819 0.82014 0.16100
C 	C 	0.80716 0.55383 0.73822 0.31300
C 	C 	0.74120 0.43695 0.80961 0.33300
C 	C 	0.74009 0.54941 0.80710 0.33000
C 	C 	0.80682 0.43457 0.73809 0.31000
C 	C 	0.80844 0.49582 0.87478 0.33000
C 	C 	0.87887 0.49230 0.80554 0.30900
Ni	Ni	0.76303 0.49288 0.76201 1.11700
Ni	Ni	0.81480 0.45343 0.81282 1.12400
Ni	Ni	0.81471 0.53451 0.81119 1.12200
O 	O 	0.77631 0.53936 0.73894 -0.35800
O 	O 	0.82856 0.55207 0.76457 -0.38100
O 	O 	0.82602 0.47166 0.85957 -0.37100
O 	O 	0.74133 0.44718 0.77776 -0.37400
O 	O 	0.76673 0.44427 0.83008 -0.37700
O 	O 	0.86279 0.51747 0.82183 -0.38100
O 	O 	0.73367 0.51789 0.79822 -0.36500
O 	O 	0.77110 0.56196 0.80394 -0.37800
O 	O 	0.86381 0.46238 0.80013 -0.36700
O 	O 	0.79066 0.46271 0.72827 -0.35800
O 	O 	0.80602 0.42415 0.77046 -0.37500
O 	O 	0.79654 0.52184 0.85739 -0.39100
O 	O 	0.80236 0.49351 0.78896 -0.72200
H 	H 	0.81988 0.49319 0.77092 0.16000
C 	C 	0.60586 0.65171 0.83298 -0.11200
C 	C 	0.63902 0.65403 0.81962 0.00500
C 	C 	0.64948 0.68400 0.80306 0.12600
C 	C 	0.62632 0.71072 0.79846 -0.03500
C 	C 	0.59260 0.70787 0.81041 -0.11200
C 	C 	0.58259 0.67844 0.82836 0.19200
C 	C 	0.66174 0.62408 0.82022 0.00900
O 	O 	0.68178 0.68645 0.78967 -0.27000
H 	H 	0.63428 0.73318 0.78453 0.07100
O 	O 	0.55044 0.67614 0.84217 -0.28600
H 	H 	0.59787 0.62887 0.84627 0.07700
C 	C 	0.68923 0.62251 0.84329 0.11900
C 	C 	0.71404 0.59703 0.83983 -0.02700
C 	C 	0.71141 0.57281 0.81366 -0.12000
C 	C 	0.68295 0.57350 0.79160 0.20300
C 	C 	0.65810 0.59884 0.79525 -0.11200
O 	O 	0.69280 0.64682 0.86813 -0.27400
H 	H 	0.73573 0.59657 0.85703 0.05900
O 	O 	0.67984 0.54997 0.76593 -0.29400
H 	H 	0.63675 0.59976 0.77765 0.07900
H 	H 	0.53646 0.66424 0.82476 0.15700
H 	H 	0.68031 0.63775 0.88818 0.15000
H 	H 	0.69160 0.56019 0.74599 0.15800
H 	H 	0.69589 0.69667 0.80802 0.15800
C 	C 	0.84428 0.67812 0.62931 -0.11200
C 	C 	0.82470 0.64828 0.62795 0.00600
C 	C 	0.80341 0.64222 0.59973 0.12400
C 	C 	0.79946 0.66726 0.57466 -0.03400
C 	C 	0.81695 0.69839 0.57737 -0.11000
C 	C 	0.84084 0.70298 0.60391 0.19500
C 	C 	0.82283 0.62582 0.65804 0.00800
O 	O 	0.78470 0.61277 0.59777 -0.26900
H 	H 	0.78154 0.66306 0.55402 0.06400
O 	O 	0.85987 0.73224 0.60577 -0.28400
H 	H 	0.86131 0.68257 0.65065 0.07600
C 	C 	0.84445 0.59734 0.66090 0.11900
C 	C 	0.83986 0.57420 0.68775 -0.03100
C 	C 	0.81382 0.57943 0.71177 -0.11600
C 	C 	0.79316 0.60866 0.70963 0.19600
C 	C 	0.79767 0.63164 0.68279 -0.11000
O 	O 	0.86905 0.59130 0.63672 -0.27200
H 	H 	0.85601 0.55185 0.68943 0.05700
O 	O 	0.76773 0.61415 0.73310 -0.28000
H 	H 	0.78109 0.65365 0.68077 0.08300
H 	H 	0.88106 0.72732 0.59280 0.16400
H 	H 	0.88981 0.60306 0.64520 0.14600
H 	H 	0.77858 0.62752 0.75162 0.15700
H 	H 	0.79943 0.59648 0.58523 0.15600
C 	C 	0.68147 0.78362 0.63382 -0.11600
C 	C 	0.66141 0.81310 0.63194 0.00600
C 	C 	0.66747 0.83707 0.60598 0.12300
C 	C 	0.69339 0.83126 0.58198 -0.02900
C 	C 	0.71287 0.80131 0.58338 -0.12600
C 	C 	0.70701 0.77756 0.60963 0.19700
C 	C 	0.63335 0.81806 0.65655 0.00900
O 	O 	0.64861 0.86645 0.60445 -0.27100
H 	H 	0.69798 0.84979 0.56203 0.05900
O 	O 	0.72725 0.74918 0.61256 -0.28100
H 	H 	0.67706 0.76524 0.65395 0.07800
C 	C 	0.60015 0.80691 0.64854 0.11700
C 	C 	0.57524 0.80506 0.67409 -0.02800
C 	C 	0.58339 0.81374 0.70784 -0.12500
C 	C 	0.61590 0.82726 0.71532 0.19800
C 	C 	0.64074 0.82929 0.68968 -0.11300
O 	O 	0.59219 0.79722 0.61587 -0.27400
H 	H 	0.55002 0.79543 0.66797 0.06000
O 	O 	0.62431 0.83595 0.74815 -0.29400
H 	H 	0.66623 0.83811 0.69592 0.08200
H 	H 	0.71499 0.73100 0.59999 0.15800
H 	H 	0.59721 0.77250 0.61486 0.14800
H 	H 	0.61885 0.86052 0.75008 0.16000
H 	H 	0.62888 0.86103 0.58952 0.15700
C 	C 	0.96793 0.76587 0.51766 -0.11200
C 	C 	0.98826 0.79358 0.50787 0.00700
C 	C 	0.97273 0.82426 0.49787 0.12500
C 	C 	0.93710 0.82715 0.49794 -0.03200
C 	C 	0.91669 0.79967 0.50835 -0.11200
C 	C 	0.93223 0.76872 0.51771 0.19300
C 	C 	0.02580 0.79120 0.51004 0.00400
O 	O 	0.99237 0.85136 0.48775 -0.26900
H 	H 	0.92536 0.85102 0.49056 0.06800
O 	O 	0.91262 0.74141 0.52733 -0.29100
H 	H 	0.97982 0.74221 0.52547 0.07300
C 	C 	0.04255 0.79836 0.54092 0.11900
C 	C 	0.07822 0.80064 0.54181 -0.03400
C 	C 	0.09747 0.79550 0.51201 -0.11200
C 	C 	0.08075 0.78633 0.48154 0.18900
C 	C 	0.04500 0.78454 0.48059 -0.10600
O 	O 	0.02400 0.80493 0.56987 -0.27000
H 	H 	0.09083 0.80744 0.56546 0.06800
O 	O 	0.09923 0.77989 0.45251 -0.28200
H 	H 	0.03218 0.77862 0.45682 0.08100
H 	H 	0.90786 0.72878 0.50594 0.15100
H 	H 	0.02116 0.78254 0.58119 0.14900
H 	H 	0.10416 0.75514 0.45312 0.15200
H 	H 	0.99691 0.86453 0.50886 0.15700
C 	C 	0.31673 0.83561 0.64267 -0.11600
C 	C 	0.34990 0.82285 0.63835 0.00700
C 	C 	0.35947 0.80851 0.60690 0.12400
C 	C 	0.33525 0.80496 0.58088 -0.02900
C 	C 	0.30137 0.81553 0.58601 -0.12200
C 	C 	0.29244 0.83208 0.61667 0.19800
C 	C 	0.37299 0.82041 0.66799 0.00800
O 	O 	0.39182 0.79582 0.60239 -0.26800
H 	H 	0.34253 0.79286 0.55713 0.06500
O 	O 	0.25947 0.84255 0.62226 -0.29300
H 	H 	0.30935 0.84699 0.66674 0.07700
C 	C 	0.40203 0.84138 0.67041 0.12000
C 	C 	0.42564 0.83628 0.69678 -0.02800
C 	C 	0.41997 0.81091 0.72131 -0.12400
C 	C 	0.39012 0.79095 0.71970 0.19700
C 	C 	0.36688 0.79567 0.69302 -0.11300
O 	O 	0.40798 0.86603 0.64637 -0.27300
H 	H 	0.44848 0.85184 0.69798 0.06200
O 	O 	0.38476 0.76534 0.74288 -0.28200
H 	H 	0.34450 0.77951 0.69129 0.08100
H 	H 	0.25880 0.86661 0.61464 0.15700
H 	H 	0.39662 0.88677 0.65526 0.14900
H 	H 	0.37101 0.77578 0.76138 0.16200
H 	H 	0.40517 0.81482 0.59243 0.16000
C 	C 	0.96769 0.48262 0.76864 -0.11100
C 	C 	0.98782 0.49502 0.79549 0.00600
C 	C 	0.97206 0.50777 0.82508 0.12400
C 	C 	0.93640 0.50773 0.82780 -0.03100
C 	C 	0.91621 0.49457 0.80130 -0.11400
C 	C 	0.93198 0.48253 0.77135 0.19200
C 	C 	0.02541 0.49302 0.79342 0.00500
O 	O 	0.99149 0.52045 0.85129 -0.27000
H 	H 	0.92449 0.51711 0.85092 0.06500
O 	O 	0.91257 0.47012 0.74499 -0.28800
H 	H 	0.97974 0.47277 0.74579 0.07400
C 	C 	0.04238 0.46265 0.80198 0.11900
C 	C 	0.07808 0.46209 0.80421 -0.03000
C 	C 	0.09711 0.49168 0.79770 -0.11200
C 	C 	0.08018 0.52155 0.78727 0.19000
C 	C 	0.04443 0.52219 0.78544 -0.10600
O 	O 	0.02402 0.43399 0.80994 -0.27000
H 	H 	0.09088 0.43891 0.81206 0.06500
O 	O 	0.09847 0.55036 0.77970 -0.28400
H 	H 	0.03147 0.54554 0.77846 0.07900
H 	H 	0.90765 0.49009 0.73031 0.14600
H 	H 	0.02125 0.42163 0.78806 0.15000
H 	H 	0.10347 0.54880 0.75495 0.15200
H 	H 	0.99607 0.50073 0.86640 0.15700
C 	C 	0.32090 0.64078 0.80741 -0.11600
C 	C 	0.34698 0.63372 0.83088 0.00500
C 	C 	0.34566 0.60370 0.85041 0.12600
C 	C 	0.31876 0.58060 0.84569 -0.03100
C 	C 	0.29308 0.58732 0.82162 -0.12100
C 	C 	0.29415 0.61768 0.80255 0.19600
C 	C 	0.37622 0.65730 0.83386 0.00900
O 	O 	0.37009 0.59734 0.87468 -0.26800
H 	H 	0.31799 0.55738 0.86059 0.06600
O 	O 	0.26915 0.62474 0.77903 -0.28100
H 	H 	0.32175 0.66393 0.79240 0.07900
C 	C 	0.40745 0.64958 0.81785 0.12100
C 	C 	0.43275 0.67460 0.81486 -0.03200
C 	C 	0.42666 0.70779 0.82660 -0.11000
C 	C 	0.39625 0.71487 0.84463 0.19800
C 	C 	0.37129 0.68958 0.84825 -0.11200
O 	O 	0.41298 0.61782 0.80441 -0.27500
H 	H 	0.45645 0.66864 0.80184 0.05800
O 	O 	0.38973 0.74707 0.85647 -0.28800
H 	H 	0.34736 0.69559 0.86081 0.08100
H 	H 	0.27753 0.61499 0.75725 0.15500
H 	H 	0.40470 0.61912 0.78053 0.14900
H 	H 	0.39816 0.74721 0.88033 0.16400
H 	H 	0.38778 0.58354 0.86298 0.16200
C 	C 	0.17972 0.59640 0.65622 -0.10800
C 	C 	0.18464 0.63146 0.66099 0.00500
C 	C 	0.19002 0.64427 0.69409 0.12400
C 	C 	0.19223 0.62190 0.72175 -0.03100
C 	C 	0.19002 0.58670 0.71653 -0.11400
C 	C 	0.18262 0.57398 0.68385 0.18800
C 	C 	0.18873 0.65400 0.63113 0.00400
O 	O 	0.19387 0.67858 0.69931 -0.26800
H 	H 	0.19747 0.63182 0.74701 0.07200
O 	O 	0.18008 0.53957 0.67854 -0.28800
H 	H 	0.17518 0.58640 0.63087 0.07200
C 	C 	0.21850 0.65206 0.61109 0.11700
C 	C 	0.22500 0.67690 0.58639 -0.03200
C 	C 	0.20199 0.70385 0.58151 -0.11400
C 	C 	0.17124 0.70467 0.60013 0.19000
C 	C 	0.16472 0.67977 0.62486 -0.10700
O 	O 	0.24238 0.62723 0.61720 -0.27000
H 	H 	0.24867 0.67600 0.57206 0.06300
O 	O 	0.14816 0.73048 0.59510 -0.28400
H 	H 	0.14154 0.68114 0.63993 0.08100
H 	H 	0.15560 0.53408 0.68210 0.15100
H 	H 	0.23623 0.60825 0.60169 0.14700
H 	H 	0.13264 0.72220 0.57689 0.14900
H 	H 	0.21875 0.68293 0.69708 0.15600
C 	C 	0.17750 0.03497 0.49649 -0.11300
C 	C 	0.20553 0.01965 0.51262 0.00600
C 	C 	0.23168 0.04005 0.52632 0.12100
C 	C 	0.22984 0.07552 0.52347 -0.03100
C 	C 	0.20160 0.09097 0.50765 -0.12200
C 	C 	0.17523 0.07043 0.49421 0.19600
C 	C 	0.20741 0.98217 0.51499 0.00700
O 	O 	0.25932 0.02535 0.54203 -0.27200
H 	H 	0.25032 0.09104 0.53372 0.06700
O 	O 	0.14642 0.08493 0.48054 -0.28400
H 	H 	0.15727 0.01935 0.48594 0.07400
C 	C 	0.18369 0.96410 0.53498 0.11700
C 	C 	0.18348 0.92849 0.53442 -0.03200
C 	C 	0.20688 0.91059 0.51397 -0.12000
C 	C 	0.23206 0.92876 0.49572 0.19500
C 	C 	0.23180 0.96438 0.49582 -0.11000
O 	O 	0.16115 0.98120 0.55559 -0.26900
H 	H 	0.16454 0.91486 0.54923 0.06700
O 	O 	0.25657 0.91180 0.47735 -0.28000
H 	H 	0.25040 0.97819 0.48072 0.08400
H 	H 	0.15080 0.08622 0.45565 0.15500
H 	H 	0.14014 0.98404 0.54172 0.15000
H 	H 	0.27576 0.90818 0.49349 0.15800
H 	H 	0.25282 0.02339 0.56640 0.15400
C 	C 	0.19012 0.35607 0.59300 -0.10800
C 	C 	0.18625 0.35027 0.62810 0.00600
C 	C 	0.18118 0.31689 0.64009 0.12200
C 	C 	0.18207 0.28952 0.61726 -0.03100
C 	C 	0.18897 0.29511 0.58262 -0.11400
C 	C 	0.19173 0.32861 0.57027 0.19100
C 	C 	0.19208 0.37834 0.65251 0.00400
O 	O 	0.17615 0.31091 0.67419 -0.27400
H 	H 	0.17936 0.26379 0.62685 0.06200
O 	O 	0.19767 0.33448 0.53629 -0.28600
H 	H 	0.19344 0.38177 0.58353 0.07500
C 	C 	0.22518 0.39163 0.65706 0.11700
C 	C 	0.23139 0.41545 0.68282 -0.02900
C 	C 	0.20484 0.42608 0.70431 -0.11400
C 	C 	0.17158 0.41343 0.69934 0.19100
C 	C 	0.16521 0.38995 0.67319 -0.10700
O 	O 	0.25186 0.37987 0.63765 -0.27000
H 	H 	0.25713 0.42489 0.68675 0.06200
O 	O 	0.14517 0.42452 0.71950 -0.29100
H 	H 	0.13959 0.38009 0.66957 0.08100
H 	H 	0.17470 0.33644 0.52577 0.15200
H 	H 	0.25327 0.39565 0.61797 0.15000
H 	H 	0.14424 0.40829 0.73885 0.15600
H 	H 	0.19933 0.30748 0.68386 0.15200
C 	C 	0.76895 0.95834 0.50052 -0.11200
C 	C 	0.79687 0.97801 0.51117 0.00700
C 	C 	0.82649 0.96194 0.52355 0.12300
C 	C 	0.82840 0.92639 0.52430 -0.03000
C 	C 	0.80106 0.90664 0.51221 -0.12000
C 	C 	0.77084 0.92275 0.50120 0.19600
C 	C 	0.79610 0.01529 0.50691 0.00500
O 	O 	0.85362 0.98096 0.53487 -0.26800
H 	H 	0.85162 0.91421 0.53315 0.06700
O 	O 	0.74349 0.90379 0.49030 -0.28000
H 	H 	0.74600 0.97063 0.49114 0.07600
C 	C 	0.80426 0.02994 0.47523 0.11900
C 	C 	0.80651 0.06533 0.47207 -0.03200
C 	C 	0.80033 0.08638 0.50033 -0.11300
C 	C 	0.79078 0.07171 0.53171 0.19100
C 	C 	0.78899 0.03626 0.53494 -0.10700
O 	O 	0.81163 0.00964 0.44773 -0.27100
H 	H 	0.81386 0.07636 0.44782 0.06500
O 	O 	0.78386 0.09193 0.55938 -0.28500
H 	H 	0.78244 0.02506 0.55934 0.08100
H 	H 	0.72958 0.89956 0.51101 0.15300
H 	H 	0.78947 0.00615 0.43595 0.15100
H 	H 	0.75896 0.09657 0.55821 0.15100
H 	H 	0.86825 0.98455 0.51453 0.15600
C 	C 	0.03496 0.17758 0.51319 -0.11100
C 	C 	0.01959 0.20350 0.49401 0.00500
C 	C 	0.04008 0.22817 0.47797 0.12200
C 	C 	0.07571 0.22659 0.48097 -0.03500
C 	C 	0.09122 0.19987 0.49905 -0.11300
C 	C 	0.07057 0.17513 0.51508 0.19500
C 	C 	0.98205 0.20421 0.49017 0.00800
O 	O 	0.02532 0.25399 0.45959 -0.27500
H 	H 	0.09131 0.24582 0.46872 0.06000
O 	O 	0.08509 0.14834 0.53221 -0.27900
H 	H 	0.01925 0.15875 0.52592 0.07600
C 	C 	0.96514 0.17804 0.47240 0.11600
C 	C 	0.92941 0.17661 0.47236 -0.03100
C 	C 	0.91026 0.20122 0.48996 -0.12200
C 	C 	0.92720 0.22892 0.50538 0.19600
C 	C 	0.96296 0.22993 0.50601 -0.11100
O 	O 	0.98352 0.15416 0.45464 -0.27100
H 	H 	0.91667 0.15572 0.45957 0.06600
O 	O 	0.90889 0.25464 0.52040 -0.28500
H 	H 	0.97586 0.25049 0.51920 0.08400
H 	H 	0.08783 0.13012 0.51492 0.16500
H 	H 	0.98667 0.13491 0.47068 0.14800
H 	H 	0.90488 0.27153 0.50204 0.16000
H 	H 	0.02345 0.24517 0.43596 0.15200
C 	C 	0.83817 0.39681 0.65502 -0.10800
C 	C 	0.82701 0.36303 0.65834 0.00700
C 	C 	0.81196 0.35221 0.68904 0.12300
C 	C 	0.80705 0.37535 0.71566 -0.03200
C 	C 	0.81646 0.40961 0.71172 -0.11100
C 	C 	0.83301 0.42010 0.68160 0.19400
C 	C 	0.82745 0.34010 0.62852 0.00600
O 	O 	0.80160 0.31907 0.69289 -0.26800
H 	H 	0.79458 0.36694 0.73886 0.06600
O 	O 	0.84321 0.45327 0.67769 -0.28400
H 	H 	0.84999 0.40522 0.63149 0.07500
C 	C 	0.80322 0.34425 0.60235 0.11600
C 	C 	0.79907 0.31886 0.57772 -0.02800
C 	C 	0.81903 0.28919 0.57889 -0.11800
C 	C 	0.84500 0.28619 0.60359 0.20000
C 	C 	0.84902 0.31157 0.62837 -0.10800
O 	O 	0.78195 0.37200 0.60221 -0.27100
H 	H 	0.77928 0.32160 0.55858 0.05800
O 	O 	0.86568 0.25801 0.60427 -0.28100
H 	H 	0.86809 0.30850 0.64819 0.08400
H 	H 	0.86698 0.45404 0.68645 0.15500
H 	H 	0.79377 0.38925 0.58802 0.14900
H 	H 	0.88559 0.26392 0.58978 0.16600
H 	H 	0.77758 0.31855 0.68479 0.15400
C 	C 	0.53693 0.96173 0.78906 -0.11300
C 	C 	0.50771 0.98018 0.79842 0.00800
C 	C 	0.47809 0.96279 0.80883 0.12200
C 	C 	0.47798 0.92722 0.81031 -0.02800
C 	C 	0.50753 0.90873 0.80195 -0.12100
C 	C 	0.53688 0.92611 0.79057 0.19800
C 	C 	0.50896 0.01767 0.79978 0.00400
O 	O 	0.44916 0.98055 0.81747 -0.27000
H 	H 	0.45518 0.91405 0.81881 0.06000
O 	O 	0.56569 0.90840 0.78146 -0.28900
H 	H 	0.55981 0.97504 0.78100 0.07500
C 	C 	0.52350 0.03414 0.82811 0.11900
C 	C 	0.52191 0.06960 0.83078 -0.03300
C 	C 	0.50610 0.08894 0.80513 -0.11300
C 	C 	0.49260 0.07252 0.77618 0.19100
C 	C 	0.49386 0.03697 0.77373 -0.10600
O 	O 	0.53788 0.01549 0.85397 -0.27000
H 	H 	0.53230 0.08199 0.85319 0.06700
O 	O 	0.47761 0.09110 0.75060 -0.28300
H 	H 	0.48275 0.02438 0.75177 0.08000
H 	H 	0.56309 0.90378 0.75672 0.15400
H 	H 	0.56237 0.01327 0.84782 0.15000
H 	H 	0.49639 0.09660 0.73453 0.14800
H 	H 	0.45120 0.98490 0.84231 0.15600
C 	C 	0.36600 0.30943 0.84089 -0.11300
C 	C 	0.37527 0.34287 0.83250 0.00700
C 	C 	0.40941 0.35025 0.82406 0.12600
C 	C 	0.43327 0.32387 0.82128 -0.02900
C 	C 	0.42318 0.29001 0.82637 -0.12000
C 	C 	0.38973 0.28293 0.83754 0.20100
C 	C 	0.34843 0.36852 0.82654 0.00500
O 	O 	0.41925 0.38314 0.81763 -0.26900
H 	H 	0.45920 0.32956 0.81337 0.06400
O 	O 	0.37987 0.25008 0.84411 -0.29100
H 	H 	0.33985 0.30368 0.84798 0.07500
C 	C 	0.33200 0.37018 0.79469 0.11500
C 	C 	0.30830 0.39597 0.78814 -0.02900
C 	C 	0.30040 0.42003 0.81337 -0.12600
C 	C 	0.31620 0.41788 0.84559 0.19600
C 	C 	0.34035 0.39228 0.85197 -0.11000
O 	O 	0.34008 0.34734 0.76948 -0.27000
H 	H 	0.29595 0.39721 0.76342 0.06400
O 	O 	0.30939 0.44173 0.87023 -0.28300
H 	H 	0.35306 0.39117 0.87650 0.08100
H 	H 	0.37076 0.24132 0.82219 0.15700
H 	H 	0.32388 0.32817 0.77251 0.14900
H 	H 	0.29043 0.43203 0.88392 0.15700
H 	H 	0.41589 0.38639 0.79277 0.15700
C 	C 	0.35681 0.19490 0.69464 -0.11300
C 	C 	0.36660 0.17795 0.66477 0.00500
C 	C 	0.39967 0.16416 0.66213 0.12300
C 	C 	0.42328 0.16905 0.68856 -0.03200
C 	C 	0.41397 0.18742 0.71782 -0.11300
C 	C 	0.38026 0.19971 0.72111 0.19500
C 	C 	0.34362 0.17844 0.63496 0.01000
O 	O 	0.40945 0.14729 0.63310 -0.26900
H 	H 	0.44904 0.15922 0.68598 0.06200
O 	O 	0.37094 0.21866 0.74899 -0.28300
H 	H 	0.33136 0.20560 0.69675 0.07300
C 	C 	0.31388 0.15833 0.63457 0.11600
C 	C 	0.28925 0.16322 0.60909 -0.02800
C 	C 	0.29386 0.18849 0.58422 -0.12200
C 	C 	0.32422 0.20783 0.58402 0.19900
C 	C 	0.34910 0.20238 0.60904 -0.11000
O 	O 	0.30895 0.13375 0.65892 -0.27000
H 	H 	0.26625 0.14784 0.60909 0.05900
O 	O 	0.32931 0.23256 0.55984 -0.28700
H 	H 	0.37201 0.21788 0.60922 0.08400
H 	H 	0.36084 0.20215 0.76525 0.15200
H 	H 	0.29607 0.14514 0.67748 0.14600
H 	H 	0.31967 0.25367 0.56984 0.15100
H 	H 	0.40366 0.12308 0.63729 0.15500
C 	C 	0.60996 0.34483 0.79651 -0.11600
C 	C 	0.63129 0.34309 0.82519 0.00600
C 	C 	0.62602 0.31748 0.84971 0.12700
C 	C 	0.60054 0.29294 0.84460 -0.03000
C 	C 	0.58029 0.29376 0.81508 -0.12100
C 	C 	0.58473 0.32017 0.79123 0.20100
C 	C 	0.66095 0.36617 0.82773 0.00900
O 	O 	0.64540 0.31668 0.87887 -0.26700
H 	H 	0.59698 0.27289 0.86325 0.06800
O 	O 	0.56476 0.32161 0.76249 -0.29300
H 	H 	0.61377 0.36466 0.77767 0.07700
C 	C 	0.69377 0.35454 0.81874 0.11800
C 	C 	0.72079 0.37767 0.81569 -0.02600
C 	C 	0.71512 0.41253 0.82058 -0.12300
C 	C 	0.68268 0.42403 0.83087 0.19800
C 	C 	0.65582 0.40078 0.83480 -0.11100
O 	O 	0.69928 0.32068 0.81220 -0.27400
H 	H 	0.74577 0.36869 0.80780 0.05800
O 	O 	0.67715 0.45798 0.83690 -0.28200
H 	H 	0.63067 0.40986 0.84199 0.08200
H 	H 	0.57733 0.30837 0.74498 0.16300
H 	H 	0.69493 0.31786 0.78744 0.14800
H 	H 	0.66958 0.46755 0.81474 0.16000
H 	H 	0.66492 0.30146 0.87358 0.16000
C 	C 	0.63546 0.21035 0.67886 -0.11700
C 	C 	0.63504 0.17971 0.66061 0.00500
C 	C 	0.61017 0.15493 0.66797 0.12400
C 	C 	0.58599 0.16093 0.69367 -0.03300
C 	C 	0.58622 0.19179 0.71167 -0.11800
C 	C 	0.61143 0.21635 0.70450 0.19700
C 	C 	0.66060 0.17400 0.63364 0.00800
O 	O 	0.60995 0.12459 0.65069 -0.27200
H 	H 	0.56694 0.14174 0.69938 0.05700
O 	O 	0.61248 0.24632 0.72244 -0.28800
H 	H 	0.65459 0.22949 0.67322 0.07700
C 	C 	0.65380 0.18460 0.60007 0.12000
C 	C 	0.68054 0.18728 0.57651 -0.03500
C 	C 	0.71421 0.17999 0.58640 -0.11600
C 	C 	0.72052 0.16656 0.61915 0.19500
C 	C 	0.69369 0.16366 0.64260 -0.11100
O 	O 	0.62116 0.19306 0.59048 -0.27300
H 	H 	0.67531 0.19658 0.55101 0.05700
O 	O 	0.75319 0.15879 0.62917 -0.27900
H 	H 	0.69898 0.15514 0.66835 0.08100
H 	H 	0.62739 0.24172 0.74237 0.15500
H 	H 	0.61905 0.21778 0.59513 0.14900
H 	H 	0.75611 0.13430 0.62378 0.16100
H 	H 	0.59482 0.12837 0.63074 0.15700
C 	C 	0.51967 0.23788 0.96418 -0.11400
C 	C 	0.51021 0.21071 0.98531 0.00800
C 	C 	0.49944 0.17980 0.97083 0.12400
C 	C 	0.49820 0.17620 0.93540 -0.03000
C 	C 	0.50801 0.20321 0.91414 -0.12100
C 	C 	0.51839 0.23434 0.92867 0.19800
C 	C 	0.51235 0.21424 0.02259 0.00500
O 	O 	0.48957 0.15327 0.99133 -0.26700
H 	H 	0.49014 0.15218 0.92446 0.06800
O 	O 	0.52764 0.26116 0.90824 -0.28200
H 	H 	0.52804 0.26172 0.97529 0.07700
C 	C 	0.54197 0.20381 0.03997 0.12000
C 	C 	0.54173 0.20130 0.07555 -0.03000
C 	C 	0.51209 0.20946 0.09399 -0.11200
C 	C 	0.48333 0.22238 0.07670 0.19300
C 	C 	0.48347 0.22445 0.04108 -0.10700
O 	O 	0.57049 0.19409 0.02210 -0.27200
H 	H 	0.56414 0.19173 0.08866 0.06700
O 	O 	0.45467 0.23188 0.09448 -0.28600
H 	H 	0.46076 0.23299 0.02776 0.08000
H 	H 	0.50621 0.27397 0.90404 0.15900
H 	H 	0.58425 0.21513 0.01947 0.15100
H 	H 	0.45796 0.25635 0.09971 0.15600
H 	H 	0.51067 0.13988 0.99543 0.15800
C 	C 	0.30701 0.16056 0.36558 -0.11700
C 	C 	0.34042 0.17309 0.36859 0.00800
C 	C 	0.35110 0.18801 0.39941 0.12500
C 	C 	0.32772 0.19247 0.42601 -0.02700
C 	C 	0.29361 0.18220 0.42211 -0.12100
C 	C 	0.28357 0.16502 0.39218 0.19900
C 	C 	0.36241 0.17509 0.33812 0.00800
O 	O 	0.38369 0.20048 0.40264 -0.26600
H 	H 	0.33579 0.20517 0.44920 0.06700
O 	O 	0.25028 0.15496 0.38779 -0.29800
H 	H 	0.29876 0.14877 0.34198 0.07500
C 	C 	0.39171 0.15454 0.33530 0.12000
C 	C 	0.41501 0.16019 0.30879 -0.02900
C 	C 	0.40880 0.18571 0.28455 -0.12300
C 	C 	0.37842 0.20486 0.28625 0.19600
C 	C 	0.35547 0.19957 0.31306 -0.11200
O 	O 	0.39833 0.12995 0.35923 -0.27300
H 	H 	0.43819 0.14515 0.30743 0.06100
O 	O 	0.37233 0.23039 0.26317 -0.27700
H 	H 	0.33280 0.21531 0.31502 0.08100
H 	H 	0.24944 0.13114 0.39609 0.15500
H 	H 	0.38722 0.10904 0.35041 0.14700
H 	H 	0.35873 0.21966 0.24473 0.16500
H 	H 	0.39716 0.18159 0.41267 0.16000
C 	C 	0.65491 0.21249 0.39020 -0.11300
C 	C 	0.64715 0.17961 0.37875 0.00500
C 	C 	0.66619 0.15168 0.39077 0.12200
C 	C 	0.69325 0.15697 0.41362 -0.03400
C 	C 	0.70093 0.18992 0.42500 -0.11700
C 	C 	0.68150 0.21771 0.41338 0.19600
C 	C 	0.62042 0.17495 0.35264 0.01000
O 	O 	0.65907 0.11943 0.37946 -0.27000
H 	H 	0.70826 0.13550 0.42238 0.05700
O 	O 	0.68966 0.25020 0.42329 -0.28600
H 	H 	0.64060 0.23412 0.38067 0.07400
C 	C 	0.58595 0.18128 0.36072 0.11600
C 	C 	0.56186 0.18503 0.33460 -0.02800
C 	C 	0.57196 0.18261 0.30039 -0.12500
C 	C 	0.60590 0.17377 0.29242 0.19900
C 	C 	0.62991 0.16969 0.31857 -0.11000
O 	O 	0.57586 0.18403 0.39412 -0.26900
H 	H 	0.53557 0.19106 0.34092 0.06000
O 	O 	0.61589 0.17013 0.25907 -0.28700
H 	H 	0.65633 0.16433 0.31222 0.08500
H 	H 	0.67547 0.25466 0.44376 0.15200
H 	H 	0.57728 0.20865 0.39954 0.14700
H 	H 	0.62364 0.19306 0.25184 0.15200
H 	H 	0.64201 0.11029 0.39578 0.15400
C 	C 	0.48219 0.96421 0.22370 -0.10800
C 	C 	0.50509 0.98423 0.20483 0.00600
C 	C 	0.53019 0.96846 0.18456 0.12300
C 	C 	0.53227 0.93294 0.18333 -0.02900
C 	C 	0.50890 0.91296 0.20158 -0.11500
C 	C 	0.48396 0.92866 0.22204 0.18900
C 	C 	0.50204 0.02166 0.20540 0.00700
O 	O 	0.55286 0.98775 0.16614 -0.26900
H 	H 	0.55160 0.92093 0.16761 0.06300
O 	O 	0.46080 0.90934 0.23980 -0.28600
H 	H 	0.46284 0.97622 0.23938 0.07300
C 	C 	0.47450 0.03782 0.18894 0.11600
C 	C 	0.47307 0.07337 0.18755 -0.02600
C 	C 	0.49902 0.09301 0.20245 -0.12100
C 	C 	0.52611 0.07687 0.21966 0.19600
C 	C 	0.52753 0.04130 0.22106 -0.10800
O 	O 	0.44988 0.01890 0.17277 -0.26800
H 	H 	0.45218 0.08565 0.17421 0.06000
O 	O 	0.55157 0.09578 0.23448 -0.27900
H 	H 	0.54868 0.02897 0.23395 0.08400
H 	H 	0.47158 0.90504 0.26228 0.14900
H 	H 	0.43165 0.01549 0.19000 0.14800
H 	H 	0.54387 0.09981 0.25824 0.16000
H 	H 	0.54177 0.99134 0.14368 0.15600
C 	C 	0.51435 0.76547 0.04358 -0.11600
C 	C 	0.51831 0.79515 0.02409 0.00800
C 	C 	0.52015 0.82698 0.04044 0.12400
C 	C 	0.51810 0.82891 0.07600 -0.02900
C 	C 	0.51390 0.79929 0.09548 -0.12500
C 	C 	0.51182 0.76746 0.07917 0.19800
C 	C 	0.51944 0.79303 0.98652 0.00600
O 	O 	0.52242 0.85631 0.02160 -0.26900
H 	H 	0.51921 0.85353 0.08841 0.06500
O 	O 	0.50855 0.73823 0.09801 -0.28700
H 	H 	0.51302 0.74089 0.03112 0.07800
C 	C 	0.55001 0.79975 0.96888 0.12300
C 	C 	0.54980 0.80235 0.93328 -0.03100
C 	C 	0.51934 0.79743 0.91495 -0.11100
C 	C 	0.48925 0.78839 0.93256 0.19400
C 	C 	0.48942 0.78631 0.96821 -0.11000
O 	O 	0.57983 0.80509 0.98649 -0.27400
H 	H 	0.57318 0.80895 0.92003 0.06800
O 	O 	0.46002 0.78042 0.91493 -0.28900
H 	H 	0.46602 0.78017 0.98166 0.07700
H 	H 	0.48358 0.73426 0.09991 0.15800
H 	H 	0.59046 0.78228 0.98872 0.15200
H 	H 	0.44659 0.80180 0.91408 0.15400
H 	H 	0.54722 0.86122 0.01983 0.16100
C 	C 	0.60589 0.79544 0.35769 -0.11300
C 	C 	0.63015 0.82132 0.35354 0.00500
C 	C 	0.62688 0.84445 0.32638 0.12300
C 	C 	0.60081 0.84013 0.30227 -0.03600
C 	C 	0.57780 0.81286 0.30515 -0.11500
C 	C 	0.57977 0.79108 0.33370 0.19500
C 	C 	0.66104 0.82151 0.37513 0.00900
O 	O 	0.65022 0.87019 0.32234 -0.26900
H 	H 	0.59923 0.85727 0.28067 0.06000
O 	O 	0.55789 0.76398 0.33681 -0.28000
H 	H 	0.60817 0.77772 0.37875 0.07400
C 	C 	0.65979 0.83457 0.40849 0.11700
C 	C 	0.68796 0.83073 0.43023 -0.02800
C 	C 	0.71724 0.81330 0.41909 -0.12100
C 	C 	0.71870 0.80094 0.38534 0.19600
C 	C 	0.69083 0.80551 0.36346 -0.11000
O 	O 	0.63121 0.85135 0.41979 -0.27000
H 	H 	0.68676 0.84068 0.45599 0.06600
O 	O 	0.74708 0.78389 0.37388 -0.28100
H 	H 	0.69190 0.79546 0.33774 0.08200
H 	H 	0.53865 0.77245 0.35091 0.15500
H 	H 	0.61663 0.83356 0.43029 0.14600
H 	H 	0.74282 0.75958 0.37921 0.15500
H 	H 	0.64069 0.88974 0.33520 0.15500
C 	C 	0.35629 0.82858 0.30897 -0.11100
C 	C 	0.36870 0.83504 0.34191 0.00600
C 	C 	0.40402 0.83964 0.34702 0.12200
C 	C 	0.42679 0.83467 0.31992 -0.03600
C 	C 	0.41446 0.82594 0.28753 -0.11200
C 	C 	0.37902 0.82430 0.28176 0.19700
C 	C 	0.34547 0.83172 0.37141 0.01100
O 	O 	0.41642 0.84697 0.37890 -0.27100
H 	H 	0.45408 0.83642 0.32438 0.05500
O 	O 	0.36666 0.81599 0.25009 -0.27900
H 	H 	0.32912 0.82519 0.30479 0.07700
C 	C 	0.31880 0.85521 0.37654 0.11800
C 	C 	0.29466 0.84957 0.40234 -0.02600
C 	C 	0.29690 0.82053 0.42302 -0.11900
C 	C 	0.32409 0.79750 0.41839 0.20100
C 	C 	0.34830 0.80328 0.39282 -0.10900
O 	O 	0.31672 0.88400 0.35687 -0.26900
H 	H 	0.27400 0.86758 0.40600 0.06700
O 	O 	0.32685 0.76914 0.43862 -0.29400
H 	H 	0.36875 0.78508 0.38896 0.08500
H 	H 	0.36319 0.83805 0.23830 0.15700
H 	H 	0.30146 0.87790 0.33761 0.14800
H 	H 	0.31394 0.75108 0.42652 0.15000
H 	H 	0.41684 0.87217 0.38020 0.15300
C 	C 	0.81549 0.52933 0.03748 -0.11500
C 	C 	0.80156 0.50073 0.02132 0.00500
C 	C 	0.78843 0.47381 0.04099 0.12600
C 	C 	0.79006 0.47531 0.07665 -0.03600
C 	C 	0.80453 0.50369 0.09287 -0.11300
C 	C 	0.81743 0.53076 0.07307 0.19600
C 	C 	0.80276 0.49816 0.98384 0.00900
O 	O 	0.77524 0.44545 0.02541 -0.26800
H 	H 	0.78021 0.45435 0.09167 0.06100
O 	O 	0.83227 0.55843 0.08844 -0.28300
H 	H 	0.82560 0.55013 0.02239 0.07500
C 	C 	0.77387 0.50632 0.96410 0.12000
C 	C 	0.77577 0.50517 0.92845 -0.02900
C 	C 	0.80654 0.49638 0.91229 -0.12100
C 	C 	0.83559 0.48874 0.93214 0.19600
C 	C 	0.83345 0.48925 0.96774 -0.11100
O 	O 	0.74365 0.51488 0.97962 -0.27100
H 	H 	0.75333 0.51112 0.91338 0.06700
O 	O 	0.86611 0.48088 0.91678 -0.27700
H 	H 	0.85583 0.48324 0.98287 0.08000
H 	H 	0.85687 0.55265 0.09048 0.15800
H 	H 	0.74448 0.53995 0.98238 0.14900
H 	H 	0.87803 0.50295 0.91377 0.15200
H 	H 	0.75048 0.45016 0.02270 0.15900
C 	C 	0.83955 0.33278 0.39286 -0.11400
C 	C 	0.81540 0.33707 0.36677 0.00600
C 	C 	0.78745 0.31471 0.36437 0.12500
C 	C 	0.78317 0.28899 0.38862 -0.03000
C 	C 	0.80657 0.28545 0.41546 -0.12400
C 	C 	0.83536 0.30687 0.41708 0.19700
C 	C 	0.81768 0.36663 0.34375 0.00600
O 	O 	0.76438 0.31788 0.33820 -0.27000
H 	H 	0.76131 0.27212 0.38688 0.07200
O 	O 	0.85830 0.30382 0.44336 -0.28800
H 	H 	0.86110 0.34999 0.39483 0.07600
C 	C 	0.79836 0.39601 0.35053 0.11700
C 	C 	0.79526 0.42133 0.32566 -0.02900
C 	C 	0.81170 0.41775 0.29401 -0.12100
C 	C 	0.83315 0.38948 0.28829 0.19900
C 	C 	0.83604 0.36406 0.31318 -0.11100
O 	O 	0.78083 0.39906 0.38067 -0.27400
H 	H 	0.77904 0.44313 0.33055 0.05900
O 	O 	0.85198 0.38712 0.25886 -0.28900
H 	H 	0.85169 0.34184 0.30825 0.07800
H 	H 	0.87604 0.28785 0.43496 0.15400
H 	H 	0.79688 0.41056 0.39650 0.14900
H 	H 	0.83804 0.37300 0.24316 0.15700
H 	H 	0.74633 0.33328 0.34697 0.15900
C 	C 	0.59795 0.34428 0.17091 -0.11400
C 	C 	0.62921 0.34532 0.18840 0.00700
C 	C 	0.63686 0.32014 0.21276 0.12400
C 	C 	0.61331 0.29424 0.21948 -0.03100
C 	C 	0.58193 0.29331 0.20224 -0.11700
C 	C 	0.57417 0.31853 0.17795 0.19300
C 	C 	0.65334 0.37357 0.18243 0.00500
O 	O 	0.66665 0.32175 0.23117 -0.27000
H 	H 	0.61921 0.27518 0.23859 0.06300
O 	O 	0.54393 0.31739 0.16027 -0.29200
H 	H 	0.59197 0.36357 0.15208 0.07700
C 	C 	0.68502 0.36737 0.16666 0.12200
C 	C 	0.71124 0.39148 0.16912 -0.03200
C 	C 	0.70581 0.42213 0.18676 -0.11200
C 	C 	0.67278 0.42995 0.19879 0.19200
C 	C 	0.64671 0.40562 0.19664 -0.10900
O 	O 	0.69111 0.33685 0.15082 -0.27500
H 	H 	0.73626 0.38555 0.15887 0.06400
O 	O 	0.66586 0.46144 0.21225 -0.28000
H 	H 	0.62184 0.41108 0.20752 0.07600
H 	H 	0.52773 0.33138 0.17376 0.15500
H 	H 	0.68419 0.34035 0.12675 0.15100
H 	H 	0.66830 0.45877 0.23729 0.15500
H 	H 	0.68325 0.30761 0.21835 0.16000
C 	C 	0.65260 0.60026 0.18323 -0.10800
C 	C 	0.66116 0.63485 0.18510 0.00500
C 	C 	0.69571 0.64457 0.18601 0.12300
C 	C 	0.72119 0.61983 0.18915 -0.03700
C 	C 	0.71245 0.58515 0.19091 -0.10900
C 	C 	0.67815 0.57539 0.18535 0.18800
C 	C 	0.63419 0.66037 0.19113 0.00800
O 	O 	0.70447 0.67837 0.18611 -0.27300
H 	H 	0.74758 0.62776 0.19174 0.06700
O 	O 	0.66943 0.54165 0.18306 -0.27100
H 	H 	0.62604 0.59263 0.18138 0.07600
C 	C 	0.61216 0.67044 0.16464 0.11800
C 	C 	0.58735 0.69546 0.17061 -0.03100
C 	C 	0.58423 0.71037 0.20302 -0.12000
C 	C 	0.60659 0.70043 0.22940 0.19500
C 	C 	0.63100 0.67515 0.22349 -0.10800
O 	O 	0.61562 0.65675 0.13264 -0.27000
H 	H 	0.57046 0.70315 0.15010 0.07200
O 	O 	0.60467 0.71545 0.26094 -0.27400
H 	H 	0.64789 0.66740 0.24399 0.08300
H 	H 	0.67138 0.53594 0.15850 0.15400
H 	H 	0.60010 0.63680 0.13226 0.14800
H 	H 	0.62016 0.73541 0.25977 0.15900
H 	H 	0.70739 0.68452 0.16175 0.15400
C 	C 	0.84401 0.69460 0.35867 -0.11100
C 	C 	0.83595 0.66090 0.36723 0.00600
C 	C 	0.82729 0.65281 0.40109 0.12400
C 	C 	0.82405 0.67872 0.42537 -0.03600
C 	C 	0.82871 0.71283 0.41593 -0.11500
C 	C 	0.83983 0.72066 0.38266 0.19700
C 	C 	0.83029 0.63575 0.33988 0.00400
O 	O 	0.82105 0.61969 0.41025 -0.27400
H 	H 	0.81619 0.67244 0.45112 0.05700
O 	O 	0.84543 0.75381 0.37320 -0.28300
H 	H 	0.85126 0.70090 0.33275 0.07600
C 	C 	0.80016 0.63701 0.32036 0.11600
C 	C 	0.79316 0.61136 0.29672 -0.03000
C 	C 	0.81608 0.58429 0.29221 -0.12500
C 	C 	0.84673 0.58346 0.31104 0.19500
C 	C 	0.85380 0.60929 0.33470 -0.11000
O 	O 	0.77673 0.66246 0.32558 -0.27300
H 	H 	0.76968 0.61233 0.28206 0.06600
O 	O 	0.86965 0.55744 0.30652 -0.28900
H 	H 	0.87716 0.60833 0.34953 0.08100
H 	H 	0.82318 0.76202 0.36426 0.16300
H 	H 	0.78306 0.68069 0.30927 0.14900
H 	H 	0.86285 0.53967 0.32315 0.15600
H 	H 	0.79620 0.61626 0.40654 0.15200
C 	C 	0.04014 0.50091 0.23949 -0.11600
C 	C 	0.02046 0.49453 0.21029 0.00700
C 	C 	0.03669 0.48882 0.17879 0.12500
C 	C 	0.07236 0.48986 0.17662 -0.02900
C 	C 	0.09206 0.49675 0.20569 -0.12300
C 	C 	0.07584 0.50229 0.23725 0.19800
C 	C 	0.98284 0.49460 0.21255 0.00700
O 	O 	0.01767 0.48370 0.14985 -0.26800
H 	H 	0.08468 0.48601 0.15217 0.06600
O 	O 	0.09487 0.50787 0.26612 -0.28300
H 	H 	0.02775 0.50502 0.26386 0.07600
C 	C 	0.96448 0.46392 0.21054 0.12100
C 	C 	0.92878 0.46451 0.20857 -0.02900
C 	C 	0.91109 0.49561 0.20938 -0.11800
C 	C 	0.92946 0.52615 0.21391 0.20000
C 	C 	0.96522 0.52556 0.21498 -0.11200
O 	O 	0.98146 0.43341 0.20914 -0.27300
H 	H 	0.91493 0.44081 0.20563 0.06700
O 	O 	0.91256 0.55662 0.21669 -0.28800
H 	H 	0.97927 0.54922 0.21723 0.07900
H 	H 	0.09719 0.53294 0.26785 0.15700
H 	H 	0.98397 0.42610 0.23322 0.15200
H 	H 	0.90830 0.55965 0.24144 0.16600
H 	H 	0.01513 0.45867 0.14789 0.16100
C 	C 	0.23149 0.47903 0.04215 -0.10800
C 	C 	0.20711 0.49566 0.02191 0.00600
C 	C 	0.18109 0.51483 0.03750 0.12300
C 	C 	0.17856 0.51587 0.07307 -0.03400
C 	C 	0.20246 0.49858 0.09346 -0.11200
C 	C 	0.22969 0.48098 0.07778 0.19200
C 	C 	0.20832 0.49237 0.98440 0.00700
O 	O 	0.15745 0.53173 0.01797 -0.27200
H 	H 	0.15764 0.52967 0.08474 0.06800
O 	O 	0.25426 0.46530 0.09718 -0.28500
H 	H 	0.25181 0.46453 0.03026 0.07500
C 	C 	0.23420 0.50858 0.96554 0.11700
C 	C 	0.23310 0.50826 0.92985 -0.03000
C 	C 	0.20609 0.49208 0.91267 -0.12100
C 	C 	0.18063 0.47509 0.93167 0.19600
C 	C 	0.18226 0.47478 0.96732 -0.10900
O 	O 	0.25961 0.52624 0.98192 -0.26900
H 	H 	0.25295 0.52113 0.91552 0.06800
O 	O 	0.15391 0.45923 0.91552 -0.28000
H 	H 	0.16251 0.46187 0.98176 0.08400
H 	H 	0.27219 0.48277 0.10080 0.15000
H 	H 	0.27851 0.50968 0.98488 0.14800
H 	H 	0.13581 0.47680 0.91352 0.16100
H 	H 	0.16729 0.55467 0.01415 0.15400
C 	C 	0.34857 0.39513 0.21726 -0.11100
C 	C 	0.35093 0.37996 0.18498 0.00400
C 	C 	0.32837 0.39003 0.15888 0.12400
C 	C 	0.30275 0.41403 0.16569 -0.03900
C 	C 	0.30000 0.42863 0.19820 -0.11300
C 	C 	0.32319 0.41925 0.22399 0.19500
C 	C 	0.37472 0.35122 0.17974 0.01000
O 	O 	0.33050 0.37552 0.12714 -0.27200
H 	H 	0.28481 0.42095 0.14582 0.06900
O 	O 	0.32073 0.43325 0.25596 -0.28500
H 	H 	0.36573 0.38734 0.23751 0.07500
C 	C 	0.41027 0.35627 0.18218 0.11700
C 	C 	0.43221 0.32819 0.18451 -0.03300
C 	C 	0.41890 0.29508 0.18428 -0.11600
C 	C 	0.38368 0.29004 0.17906 0.20000
C 	C 	0.36172 0.31807 0.17703 -0.11000
O 	O 	0.42357 0.38857 0.18226 -0.27100
H 	H 	0.45942 0.33221 0.18777 0.05200
O 	O 	0.37036 0.25775 0.17855 -0.28500
H 	H 	0.33440 0.31400 0.17493 0.08400
H 	H 	0.30513 0.41801 0.26879 0.15800
H 	H 	0.42564 0.39491 0.20665 0.14800
H 	H 	0.37046 0.25093 0.15419 0.15800
H 	H 	0.34640 0.39026 0.11411 0.15400
C 	C 	0.17010 0.36951 0.31469 -0.11500
C 	C 	0.18439 0.37363 0.34721 0.00700
C 	C 	0.20034 0.40454 0.35583 0.12500
C 	C 	0.20369 0.43023 0.33132 -0.03100
C 	C 	0.19147 0.42526 0.29802 -0.11800
C 	C 	0.17395 0.39493 0.28995 0.19600
C 	C 	0.18683 0.34409 0.37036 0.00700
O 	O 	0.21466 0.40882 0.38748 -0.26700
H 	H 	0.21675 0.45365 0.33794 0.06600
O 	O 	0.16131 0.38971 0.25773 -0.28500
H 	H 	0.15742 0.34590 0.30807 0.07500
C 	C 	0.16722 0.34265 0.40042 0.12200
C 	C 	0.17218 0.31598 0.42363 -0.03300
C 	C 	0.19594 0.29019 0.41656 -0.11300
C 	C 	0.21453 0.29096 0.38581 0.19500
C 	C 	0.21001 0.31791 0.36297 -0.11100
O 	O 	0.14406 0.36784 0.40766 -0.27400
H 	H 	0.15779 0.31552 0.44725 0.05700
O 	O 	0.23874 0.26659 0.37911 -0.27700
H 	H 	0.22513 0.31888 0.33983 0.07800
H 	H 	0.18006 0.37846 0.24497 0.14600
H 	H 	0.12223 0.36006 0.39742 0.14800
H 	H 	0.22666 0.24879 0.36583 0.15800
H 	H 	0.19657 0.41960 0.40152 0.16000
C 	C 	0.38739 0.66604 0.21411 -0.11400
C 	C 	0.36989 0.66318 0.18304 0.00800
C 	C 	0.37785 0.68539 0.15602 0.12000
C 	C 	0.40255 0.71083 0.16059 -0.02700
C 	C 	0.41987 0.71379 0.19178 -0.12200
C 	C 	0.41246 0.69100 0.21848 0.20100
C 	C 	0.34169 0.63842 0.17983 0.00800
O 	O 	0.36081 0.68294 0.12555 -0.26900
H 	H 	0.40817 0.72827 0.13993 0.05800
O 	O 	0.42829 0.69438 0.24953 -0.29200
H 	H 	0.38107 0.64927 0.23513 0.07400
C 	C 	0.34852 0.60326 0.18036 0.11800
C 	C 	0.32162 0.58001 0.18389 -0.03400
C 	C 	0.28789 0.59163 0.18694 -0.11500
C 	C 	0.28091 0.62668 0.18455 0.19700
C 	C 	0.30777 0.64989 0.18074 -0.10800
O 	O 	0.38144 0.59160 0.17734 -0.27000
H 	H 	0.32710 0.55301 0.18530 0.05800
O 	O 	0.24791 0.63833 0.18667 -0.28300
H 	H 	0.30232 0.67693 0.18004 0.08600
H 	H 	0.44845 0.67911 0.24847 0.15100
H 	H 	0.38992 0.58918 0.20106 0.14700
H 	H 	0.24383 0.64246 0.21129 0.15800
H 	H 	0.37451 0.66692 0.11158 0.15400
C 	C 	0.18053 0.60396 0.35242 -0.11300
C 	C 	0.17505 0.63791 0.34295 0.00500
C 	C 	0.16826 0.64586 0.30867 0.12000
C 	C 	0.17093 0.62063 0.28363 -0.03500
C 	C 	0.18022 0.58722 0.29260 -0.11900
C 	C 	0.18241 0.57847 0.32754 0.19200
C 	C 	0.18173 0.66537 0.36775 0.00800
O 	O 	0.16113 0.67874 0.29932 -0.26900
H 	H 	0.16711 0.62740 0.25712 0.06500
O 	O 	0.18739 0.54535 0.33738 -0.28400
H 	H 	0.18465 0.59751 0.37897 0.07300
C 	C 	0.15893 0.67161 0.39481 0.11600
C 	C 	0.16634 0.69707 0.41876 -0.03200
C 	C 	0.19666 0.71596 0.41617 -0.11600
C 	C 	0.21916 0.70999 0.38877 0.19500
C 	C 	0.21162 0.68480 0.36477 -0.11000
O 	O 	0.12900 0.65360 0.39730 -0.27200
H 	H 	0.14869 0.70184 0.43953 0.05300
O 	O 	0.24772 0.72983 0.38453 -0.27900
H 	H 	0.22912 0.68024 0.34383 0.08200
H 	H 	0.16413 0.53569 0.34009 0.15800
H 	H 	0.13443 0.63380 0.41202 0.14400
H 	H 	0.26653 0.71706 0.39565 0.15000
H 	H 	0.13590 0.68075 0.30074 0.15400
