data_crystal

_cell_length_a 68.70930
_cell_length_b 51.03252
_cell_length_c 24.79894
_cell_angle_alpha 90.00016
_cell_angle_beta  89.99949
_cell_angle_gamma 90.00009

_symmetry_space_group_name_	'P 1'
_symmetry_space_group_name_H-M	'P 1'

loop_
_symmetry_equiv_pos_as_xyz
  x,y,z

loop_
_atom_site_label
_atom_site_type_symbol
_atom_site_fract_x
_atom_site_fract_y
_atom_site_fract_z
_atom_site_charge
Cu	Cu	0.39098 0.67753 0.15359 0.92900
Cu	Cu	0.35762 0.65552 0.23650 0.86500
Cu	Cu	0.35840 0.63897 0.12694 0.88900
Cu	Cu	0.39147 0.64247 0.04900 0.89500
C 	C 	0.42654 0.66505 0.09945 0.28900
O 	O 	0.38530 0.70202 0.09105 -0.36200
C 	C 	0.32103 0.64823 0.18376 0.28800
O 	O 	0.38651 0.63919 0.12374 -0.63900
O 	O 	0.36299 0.67209 0.16758 -0.64200
O 	O 	0.39841 0.68948 0.22723 -0.36300
O 	O 	0.38303 0.65497 0.26537 -0.43900
O 	O 	0.41641 0.66215 0.05475 -0.38600
O 	O 	0.35510 0.60544 0.09071 -0.38800
C 	C 	0.36307 0.59869 0.04421 0.29200
C 	C 	0.37256 0.69616 0.05321 0.28000
O 	O 	0.36849 0.67148 0.04308 -0.40100
O 	O 	0.38009 0.60817 0.02896 -0.39700
O 	O 	0.41851 0.67574 0.14244 -0.36300
C 	C 	0.39255 0.67705 0.27059 0.29700
O 	O 	0.33027 0.63747 0.14235 -0.38800
O 	O 	0.33049 0.65946 0.22386 -0.42300
H 	H 	0.39293 0.62423 0.14194 0.15900
H 	H 	0.35413 0.68657 0.15735 0.17600
Cu	Cu	0.61150 0.65564 0.05991 0.92800
Cu	Cu	0.65241 0.62564 0.08707 0.86400
Cu	Cu	0.63955 0.67236 0.14870 0.89300
Cu	Cu	0.59989 0.69648 0.14929 0.89400
C 	C 	0.57147 0.66665 0.08359 0.29000
O 	O 	0.61062 0.69099 0.02278 -0.36200
C 	C 	0.68101 0.65937 0.13608 0.28100
O 	O 	0.61226 0.66353 0.14320 -0.63900
O 	O 	0.63969 0.65896 0.07306 -0.64300
O 	O 	0.61204 0.62097 0.02332 -0.37200
O 	O 	0.63052 0.60284 0.08946 -0.44000
O 	O 	0.57731 0.68973 0.10099 -0.38900
O 	O 	0.63872 0.68411 0.22348 -0.38500
C 	C 	0.62595 0.70077 0.24381 0.29100
C 	C 	0.61853 0.71218 0.04384 0.28200
O 	O 	0.62149 0.71357 0.09617 -0.39800
O 	O 	0.60801 0.70221 0.22496 -0.39700
O 	O 	0.58383 0.65020 0.06100 -0.36300
C 	C 	0.61929 0.60013 0.04695 0.29000
O 	O 	0.66786 0.67647 0.15298 -0.38200
O 	O 	0.67706 0.64273 0.09674 -0.42100
H 	H 	0.60776 0.64991 0.16876 0.16100
H 	H 	0.64683 0.67043 0.04763 0.17200
Cu	Cu	0.38433 0.34484 0.76721 0.92700
Cu	Cu	0.34696 0.35637 0.68625 0.87200
Cu	Cu	0.35125 0.38361 0.79241 0.89500
Cu	Cu	0.38389 0.37834 0.87373 0.89300
C 	C 	0.41986 0.36093 0.81847 0.28400
O 	O 	0.38125 0.31819 0.82720 -0.36400
C 	C 	0.31289 0.37160 0.74267 0.28900
O 	O 	0.37901 0.38240 0.79922 -0.63900
O 	O 	0.35558 0.34826 0.75855 -0.63800
O 	O 	0.39170 0.33568 0.69157 -0.36700
O 	O 	0.37121 0.36600 0.65725 -0.44300
O 	O 	0.41046 0.36308 0.86475 -0.38700
O 	O 	0.34942 0.41839 0.82383 -0.38100
C 	C 	0.35910 0.42590 0.86726 0.28700
C 	C 	0.36938 0.32220 0.86790 0.28200
O 	O 	0.36342 0.34606 0.87854 -0.39100
O 	O 	0.36805 0.40873 0.89845 -0.39600
O 	O 	0.41185 0.34885 0.77687 -0.35800
C 	C 	0.38414 0.34757 0.64955 0.29300
O 	O 	0.32368 0.38807 0.77115 -0.39000
O 	O 	0.32085 0.35403 0.71071 -0.42400
H 	H 	0.38586 0.39734 0.78218 0.15900
H 	H 	0.34784 0.33422 0.77587 0.17000
Cu	Cu	0.60375 0.37287 0.84050 0.92700
Cu	Cu	0.64663 0.39984 0.82202 0.86400
Cu	Cu	0.63393 0.35307 0.75943 0.89300
Cu	Cu	0.59332 0.33053 0.75261 0.89400
C 	C 	0.56433 0.36433 0.80647 0.28900
O 	O 	0.60047 0.33852 0.88060 -0.36300
C 	C 	0.67517 0.36418 0.77988 0.27900
O 	O 	0.60670 0.36291 0.75829 -0.63600
O 	O 	0.63219 0.36758 0.83415 -0.64200
O 	O 	0.60435 0.40826 0.87445 -0.37200
O 	O 	0.62569 0.42361 0.81223 -0.44200
O 	O 	0.56957 0.34031 0.79367 -0.38700
O 	O 	0.63472 0.33848 0.68681 -0.38500
C 	C 	0.62248 0.32060 0.66869 0.29100
C 	C 	0.60835 0.31648 0.86352 0.28200
O 	O 	0.61267 0.31362 0.81222 -0.39700
O 	O 	0.60381 0.32178 0.68062 -0.39600
O 	O 	0.57639 0.37993 0.83266 -0.36300
C 	C 	0.61354 0.42801 0.85201 0.29100
O 	O 	0.66210 0.34728 0.76188 -0.38100
O 	O 	0.67079 0.38105 0.81837 -0.42100
H 	H 	0.60326 0.37618 0.73078 0.16000
H 	H 	0.63806 0.35601 0.86177 0.17100
Cu	Cu	0.38156 0.86892 0.57288 0.92700
Cu	Cu	0.33967 0.89743 0.59652 0.86400
Cu	Cu	0.35294 0.85085 0.65987 0.89300
Cu	Cu	0.39351 0.82729 0.66085 0.89500
C 	C 	0.42154 0.86037 0.60151 0.29000
O 	O 	0.38354 0.83427 0.53333 -0.36300
C 	C 	0.31154 0.86359 0.64581 0.28000
O 	O 	0.38031 0.85983 0.65590 -0.63500
O 	O 	0.35328 0.86451 0.58429 -0.64200
O 	O 	0.38067 0.90402 0.53803 -0.37300
O 	O 	0.36112 0.92073 0.60325 -0.44100
O 	O 	0.41663 0.83656 0.61667 -0.38700
O 	O 	0.35363 0.83685 0.73295 -0.38300
C 	C 	0.36590 0.81859 0.74920 0.29000
C 	C 	0.37627 0.81234 0.55280 0.28200
O 	O 	0.37292 0.81012 0.60479 -0.39600
O 	O 	0.38431 0.81922 0.73451 -0.39500
O 	O 	0.40910 0.87539 0.57535 -0.36300
C 	C 	0.37293 0.92434 0.56236 0.29100
O 	O 	0.32460 0.84653 0.66332 -0.38200
O 	O 	0.31542 0.87931 0.60498 -0.42000
H 	H 	0.38455 0.87335 0.68203 0.16000
H 	H 	0.34669 0.85276 0.55828 0.17100
Cu	Cu	0.60270 0.84389 0.64219 0.92800
Cu	Cu	0.63448 0.86927 0.72475 0.86300
Cu	Cu	0.63382 0.88436 0.61427 0.88800
Cu	Cu	0.60006 0.87955 0.53809 0.89400
C 	C 	0.56638 0.85496 0.59091 0.28800
O 	O 	0.60921 0.82007 0.57911 -0.36200
C 	C 	0.67086 0.88124 0.67424 0.28600
O 	O 	0.60562 0.88262 0.61257 -0.63900
O 	O 	0.63040 0.85143 0.65629 -0.64300
O 	O 	0.59601 0.83121 0.71582 -0.36400
O 	O 	0.60906 0.86754 0.75329 -0.44100
O 	O 	0.57575 0.85868 0.54524 -0.38600
O 	O 	0.63628 0.91773 0.57663 -0.38700
C 	C 	0.62749 0.92393 0.53096 0.29200
C 	C 	0.62117 0.82714 0.54021 0.28100
O 	O 	0.62406 0.85213 0.53015 -0.40200
O 	O 	0.61006 0.91469 0.51928 -0.39700
O 	O 	0.57509 0.84344 0.63187 -0.36200
C 	C 	0.60075 0.84462 0.75895 0.29800
O 	O 	0.66196 0.88674 0.62817 -0.38400
O 	O 	0.66189 0.86883 0.71368 -0.42200
H 	H 	0.59893 0.89710 0.63165 0.15700
H 	H 	0.63988 0.83750 0.64723 0.17600
Cu	Cu	0.38522 0.15248 0.35798 0.92700
Cu	Cu	0.34423 0.12294 0.32788 0.86400
Cu	Cu	0.35843 0.16856 0.26532 0.89300
Cu	Cu	0.39841 0.19331 0.27014 0.89400
C 	C 	0.42566 0.16293 0.33849 0.29000
O 	O 	0.38575 0.18780 0.39556 -0.36300
C 	C 	0.31671 0.15652 0.27442 0.28100
O 	O 	0.38576 0.16038 0.27456 -0.63600
O 	O 	0.35720 0.15611 0.34157 -0.64200
O 	O 	0.38401 0.11767 0.39419 -0.37200
O 	O 	0.36607 0.10015 0.32636 -0.44200
O 	O 	0.42031 0.18613 0.32054 -0.38900
O 	O 	0.36060 0.18132 0.19157 -0.38400
C 	C 	0.37294 0.19967 0.17615 0.29000
C 	C 	0.37842 0.20911 0.37344 0.28200
O 	O 	0.37609 0.21031 0.32089 -0.39700
O 	O 	0.39096 0.19997 0.19434 -0.39500
O 	O 	0.41286 0.14678 0.36008 -0.36200
C 	C 	0.37670 0.09706 0.36984 0.29000
O 	O 	0.33025 0.17310 0.25771 -0.38300
O 	O 	0.31995 0.14047 0.31520 -0.42000
H 	H 	0.39081 0.14670 0.24994 0.16000
H 	H 	0.34984 0.16802 0.36561 0.17200
Cu	Cu	0.60474 0.17979 0.26479 0.92800
Cu	Cu	0.63682 0.16085 0.17525 0.86500
Cu	Cu	0.63783 0.14059 0.28291 0.88900
Cu	Cu	0.60675 0.14356 0.36716 0.89300
C 	C 	0.57023 0.16539 0.32261 0.28600
O 	O 	0.61100 0.20411 0.32705 -0.36300
C 	C 	0.67400 0.14872 0.22002 0.28600
O 	O 	0.60997 0.14109 0.29156 -0.64200
O 	O 	0.63262 0.17496 0.24713 -0.64200
O 	O 	0.59573 0.19237 0.19295 -0.36600
O 	O 	0.61087 0.15882 0.15083 -0.44200
O 	O 	0.58101 0.16162 0.36595 -0.38600
O 	O 	0.64136 0.10585 0.31360 -0.38600
C 	C 	0.63083 0.09566 0.35296 0.29000
C 	C 	0.62415 0.19820 0.36362 0.28200
O 	O 	0.62906 0.17361 0.37104 -0.39600
O 	O 	0.62045 0.11050 0.38573 -0.39600
O 	O 	0.57749 0.17735 0.27991 -0.36300
C 	C 	0.60053 0.18031 0.14820 0.29700
O 	O 	0.66572 0.13959 0.26452 -0.38500
O 	O 	0.66422 0.16293 0.18487 -0.42300
H 	H 	0.60298 0.12646 0.27389 0.15700
H 	H 	0.64163 0.18912 0.25812 0.17600
Cu	Cu	0.10353 0.87364 0.84956 0.92700
Cu	Cu	0.14652 0.90025 0.83030 0.86300
Cu	Cu	0.13317 0.85427 0.76661 0.89300
Cu	Cu	0.09234 0.83231 0.76025 0.89500
C 	C 	0.06393 0.86603 0.81638 0.28900
O 	O 	0.10021 0.83891 0.88821 -0.36300
C 	C 	0.17453 0.86433 0.78574 0.27900
O 	O 	0.10600 0.86445 0.76683 -0.63600
O 	O 	0.13189 0.86808 0.84191 -0.64200
O 	O 	0.10459 0.90863 0.88503 -0.37200
O 	O 	0.12571 0.92447 0.82266 -0.44200
O 	O 	0.06890 0.84203 0.80264 -0.38700
O 	O 	0.13361 0.84001 0.69370 -0.38500
C 	C 	0.12105 0.82257 0.67541 0.29100
C 	C 	0.10790 0.81698 0.86991 0.28100
O 	O 	0.11188 0.81454 0.81830 -0.39600
O 	O 	0.10244 0.82427 0.68755 -0.39600
O 	O 	0.07618 0.88113 0.84312 -0.36300
C 	C 	0.11373 0.92853 0.86302 0.29000
O 	O 	0.16118 0.84761 0.76870 -0.38200
O 	O 	0.17061 0.88128 0.82450 -0.42100
H 	H 	0.10253 0.87805 0.74003 0.16000
H 	H 	0.13784 0.85619 0.86882 0.17100
Cu	Cu	0.88517 0.84445 0.76847 0.92700
Cu	Cu	0.84854 0.85590 0.68468 0.87200
Cu	Cu	0.85130 0.88211 0.79233 0.89500
Cu	Cu	0.88287 0.87675 0.87645 0.89300
C 	C 	0.91976 0.86114 0.82367 0.28400
O 	O 	0.88179 0.81698 0.82677 -0.36400
C 	C 	0.81369 0.87028 0.73798 0.28900
O 	O 	0.87892 0.88151 0.80172 -0.64000
O 	O 	0.85646 0.84722 0.75733 -0.63700
O 	O 	0.89363 0.83638 0.69311 -0.36600
O 	O 	0.87299 0.86639 0.65856 -0.44300
O 	O 	0.90983 0.86254 0.86922 -0.38600
O 	O 	0.84872 0.91648 0.82495 -0.38200
C 	C 	0.85673 0.92332 0.87133 0.28800
C 	C 	0.86947 0.82025 0.86670 0.28300
O 	O 	0.86294 0.84380 0.87762 -0.39100
O 	O 	0.86603 0.90612 0.90174 -0.39800
O 	O 	0.91248 0.84906 0.78105 -0.35800
C 	C 	0.88614 0.84825 0.65097 0.29200
O 	O 	0.82394 0.88633 0.76889 -0.38900
O 	O 	0.82221 0.85287 0.70683 -0.42400
H 	H 	0.88574 0.89683 0.78609 0.15900
H 	H 	0.84872 0.83283 0.77338 0.17000
Cu	Cu	0.10892 0.15651 0.06906 0.92700
Cu	Cu	0.15125 0.12827 0.08829 0.86300
Cu	Cu	0.13892 0.17509 0.15174 0.89300
Cu	Cu	0.09853 0.19855 0.15769 0.89400
C 	C 	0.06951 0.16545 0.10243 0.28900
O 	O 	0.10625 0.19113 0.02964 -0.36300
C 	C 	0.18004 0.16294 0.13284 0.27900
O 	O 	0.11157 0.16592 0.15165 -0.63600
O 	O 	0.13735 0.16104 0.07663 -0.64200
O 	O 	0.10927 0.12142 0.03408 -0.37300
O 	O 	0.12998 0.10479 0.09663 -0.44100
O 	O 	0.07485 0.18935 0.11580 -0.38700
O 	O 	0.13958 0.18941 0.22461 -0.38400
C 	C 	0.12746 0.20746 0.24260 0.29100
C 	C 	0.11415 0.21297 0.04763 0.28200
O 	O 	0.11831 0.21541 0.09913 -0.39600
O 	O 	0.10883 0.20667 0.23016 -0.39600
O 	O 	0.08147 0.14998 0.07559 -0.36300
C 	C 	0.11772 0.10116 0.05675 0.29100
O 	O 	0.16713 0.18022 0.15021 -0.38100
O 	O 	0.17567 0.14639 0.09374 -0.42100
H 	H 	0.10782 0.15255 0.17864 0.16000
H 	H 	0.14351 0.17262 0.04952 0.17100
Cu	Cu	0.88918 0.17818 0.15199 0.92800
Cu	Cu	0.85407 0.15562 0.22951 0.86600
Cu	Cu	0.85642 0.14072 0.11870 0.88900
Cu	Cu	0.88936 0.14800 0.04142 0.89300
C 	C 	0.92480 0.16579 0.09798 0.28600
O 	O 	0.88473 0.20602 0.09484 -0.36300
C 	C 	0.81841 0.14997 0.17255 0.28800
O 	O 	0.88438 0.14132 0.11518 -0.64200
O 	O 	0.86083 0.17309 0.16251 -0.64100
O 	O 	0.89641 0.18656 0.22798 -0.36300
O 	O 	0.87910 0.15222 0.25958 -0.44200
O 	O 	0.91520 0.16507 0.05194 -0.38800
O 	O 	0.85380 0.10774 0.08018 -0.38700
C 	C 	0.86429 0.10036 0.03808 0.29000
C 	C 	0.87237 0.20241 0.05505 0.28300
O 	O 	0.86742 0.17853 0.04123 -0.39600
O 	O 	0.87552 0.11701 0.01170 -0.39600
O 	O 	0.91672 0.17585 0.14156 -0.36000
C 	C 	0.88926 0.17342 0.26887 0.29800
O 	O 	0.82821 0.13812 0.13345 -0.38900
O 	O 	0.82734 0.16090 0.21384 -0.42300
H 	H 	0.89090 0.12566 0.13034 0.15700
H 	H 	0.85230 0.18793 0.15233 0.17600
Cu	Cu	0.10665 0.68080 0.27035 0.92800
Cu	Cu	0.14053 0.66550 0.18263 0.86600
Cu	Cu	0.13972 0.64163 0.28941 0.89200
Cu	Cu	0.10795 0.64405 0.37180 0.89300
C 	C 	0.07162 0.66564 0.32515 0.28600
O 	O 	0.11178 0.70495 0.33362 -0.36400
C 	C 	0.17660 0.65006 0.23025 0.28600
O 	O 	0.11186 0.64206 0.29642 -0.64100
O 	O 	0.13489 0.67668 0.25582 -0.64100
O 	O 	0.09828 0.69304 0.19765 -0.36800
O 	O 	0.11497 0.66040 0.15713 -0.44300
O 	O 	0.08203 0.66161 0.36911 -0.38600
O 	O 	0.14276 0.60646 0.31817 -0.38500
C 	C 	0.13239 0.59640 0.35801 0.29100
C 	C 	0.12463 0.69913 0.37105 0.28200
O 	O 	0.12981 0.67462 0.37821 -0.39400
O 	O 	0.12210 0.61135 0.39081 -0.39600
O 	O 	0.07927 0.67766 0.28301 -0.36300
C 	C 	0.10347 0.68075 0.15348 0.29500
O 	O 	0.16779 0.64075 0.27376 -0.38400
O 	O 	0.16773 0.66628 0.19703 -0.42300
H 	H 	0.10502 0.62752 0.27798 0.15900
H 	H 	0.14351 0.69071 0.26963 0.17400
Cu	Cu	0.88651 0.65370 0.35984 0.92700
Cu	Cu	0.84634 0.62258 0.32917 0.86300
Cu	Cu	0.85939 0.66875 0.26732 0.89300
Cu	Cu	0.89890 0.69468 0.27138 0.89400
C 	C 	0.92674 0.66523 0.33961 0.28900
O 	O 	0.88646 0.68908 0.39711 -0.36200
C 	C 	0.81786 0.65529 0.27701 0.28200
O 	O 	0.88683 0.66138 0.27633 -0.63700
O 	O 	0.85845 0.65628 0.34355 -0.64300
O 	O 	0.88585 0.61906 0.39661 -0.37100
O 	O 	0.86864 0.60053 0.32845 -0.44300
O 	O 	0.92101 0.68823 0.32149 -0.38900
O 	O 	0.86131 0.68098 0.19318 -0.38500
C 	C 	0.87323 0.69971 0.17720 0.29000
C 	C 	0.87887 0.71017 0.37483 0.28200
O 	O 	0.87642 0.71116 0.32231 -0.39800
O 	O 	0.89121 0.70098 0.19557 -0.39500
O 	O 	0.91424 0.64885 0.36184 -0.36100
C 	C 	0.87926 0.59808 0.37210 0.29300
O 	O 	0.83110 0.67215 0.25965 -0.38300
O 	O 	0.82160 0.63904 0.31713 -0.42100
H 	H 	0.89206 0.64779 0.25180 0.16000
H 	H 	0.85081 0.66784 0.36764 0.17200
Cu	Cu	0.10163 0.34585 0.64668 0.92800
Cu	Cu	0.13249 0.37131 0.73219 0.86300
Cu	Cu	0.13324 0.38596 0.62132 0.88800
Cu	Cu	0.10086 0.38042 0.54124 0.89400
C 	C 	0.06620 0.35584 0.58961 0.28800
O 	O 	0.10899 0.32144 0.58536 -0.36300
C 	C 	0.16959 0.38247 0.68464 0.28600
O 	O 	0.10511 0.38427 0.61621 -0.63900
O 	O 	0.12913 0.35327 0.66368 -0.64300
O 	O 	0.09371 0.33372 0.71970 -0.36400
O 	O 	0.10672 0.36980 0.75843 -0.44000
O 	O 	0.07658 0.35925 0.54553 -0.38700
O 	O 	0.13628 0.41908 0.58312 -0.38700
C 	C 	0.12826 0.42497 0.53620 0.29200
C 	C 	0.12167 0.32803 0.54785 0.28100
O 	O 	0.12492 0.35293 0.53760 -0.40200
O 	O 	0.11115 0.41539 0.52221 -0.39700
O 	O 	0.07420 0.34564 0.63311 -0.36300
C 	C 	0.09817 0.34700 0.76323 0.29800
O 	O 	0.16117 0.38830 0.63803 -0.38500
O 	O 	0.16003 0.37051 0.72365 -0.42200
H 	H 	0.09813 0.39894 0.63375 0.15800
H 	H 	0.13867 0.33924 0.65577 0.17700
Cu	Cu	0.88092 0.36547 0.55951 0.92800
Cu	Cu	0.84192 0.39835 0.59353 0.86300
Cu	Cu	0.85440 0.35170 0.65411 0.89300
Cu	Cu	0.89318 0.32413 0.64752 0.89400
C 	C 	0.92103 0.35241 0.57741 0.28900
O 	O 	0.87963 0.33011 0.52236 -0.36200
C 	C 	0.81305 0.36664 0.64698 0.28300
O 	O 	0.88189 0.35792 0.64304 -0.63700
O 	O 	0.85300 0.36414 0.57796 -0.64400
O 	O 	0.88069 0.40011 0.52280 -0.37100
O 	O 	0.86475 0.41947 0.59238 -0.44200
O 	O 	0.91497 0.32963 0.59592 -0.38900
O 	O 	0.85679 0.33989 0.72840 -0.38500
C 	C 	0.86836 0.32068 0.74395 0.29100
C 	C 	0.87203 0.30924 0.54551 0.28300
O 	O 	0.86990 0.30859 0.59815 -0.39800
O 	O 	0.88604 0.31826 0.72393 -0.39500
O 	O 	0.90872 0.36911 0.55536 -0.36100
C 	C 	0.87506 0.42138 0.54802 0.29300
O 	O 	0.82614 0.34944 0.66387 -0.38400
O 	O 	0.81688 0.38303 0.60714 -0.42100
H 	H 	0.88765 0.37133 0.66708 0.16000
H 	H 	0.84483 0.35293 0.55452 0.17300
C 	C 	0.01276 0.34250 0.61404 -0.06300
C 	C 	0.00405 0.35964 0.57699 0.01900
C 	C 	0.01572 0.37604 0.54518 -0.06300
C 	C 	0.03600 0.37494 0.54964 0.01000
C 	C 	0.04478 0.35741 0.58598 -0.08600
C 	C 	0.03302 0.34138 0.61857 0.01400
C 	C 	0.98277 0.35944 0.56980 0.01900
H 	H 	0.00910 0.38937 0.51655 0.04400
H 	H 	0.04487 0.38770 0.52484 0.02200
H 	H 	0.03954 0.32776 0.64677 0.04100
H 	H 	0.00384 0.32984 0.63891 0.04500
C 	C 	0.97358 0.33711 0.54894 -0.06300
C 	C 	0.95330 0.33546 0.54845 0.01400
C 	C 	0.94201 0.35614 0.56882 -0.08500
C 	C 	0.95117 0.37915 0.58663 0.01000
C 	C 	0.97150 0.38077 0.58727 -0.06300
H 	H 	0.98217 0.32074 0.53453 0.04600
H 	H 	0.94636 0.31780 0.53365 0.03500
H 	H 	0.94258 0.39529 0.60208 0.02800
H 	H 	0.97849 0.39820 0.60297 0.04400
C 	C 	0.87509 0.54478 0.47677 -0.06600
C 	C 	0.88169 0.52282 0.44792 0.01900
C 	C 	0.88824 0.52593 0.39458 -0.06600
C 	C 	0.88759 0.55057 0.36987 0.01500
C 	C 	0.88083 0.57241 0.39865 -0.10000
C 	C 	0.87485 0.56948 0.45241 0.01200
C 	C 	0.88086 0.49641 0.47268 0.01900
H 	H 	0.89362 0.50923 0.37212 0.04400
H 	H 	0.89234 0.55268 0.32844 0.02600
H 	H 	0.86953 0.58622 0.47488 0.02200
H 	H 	0.86982 0.54263 0.51770 0.04100
C 	C 	0.88874 0.49207 0.52424 -0.06600
C 	C 	0.88682 0.46754 0.54896 0.01600
C 	C 	0.87742 0.44701 0.52187 -0.10000
C 	C 	0.86995 0.45114 0.46992 0.01300
C 	C 	0.87148 0.47577 0.44565 -0.06600
H 	H 	0.89621 0.50772 0.54528 0.04400
H 	H 	0.89272 0.46448 0.58899 0.02500
H 	H 	0.86260 0.43541 0.44880 0.02000
H 	H 	0.86513 0.47893 0.40620 0.04100
C 	C 	0.15616 0.53479 0.40945 -0.06500
C 	C 	0.13982 0.51883 0.41796 0.01900
C 	C 	0.12136 0.52755 0.40184 -0.06400
C 	C 	0.11911 0.55248 0.37956 0.01200
C 	C 	0.13531 0.56885 0.37281 -0.09000
C 	C 	0.15392 0.55971 0.38665 0.01600
C 	C 	0.14173 0.49376 0.44683 0.01900
H 	H 	0.10868 0.51530 0.40811 0.04400
H 	H 	0.10469 0.55937 0.36889 0.01900
H 	H 	0.16652 0.57225 0.38170 0.03300
H 	H 	0.17048 0.52815 0.42155 0.04500
C 	C 	0.13794 0.47019 0.41975 -0.06400
C 	C 	0.13501 0.44713 0.44896 0.01300
C 	C 	0.13584 0.44744 0.50552 -0.08800
C 	C 	0.14131 0.47055 0.53229 0.01500
C 	C 	0.14423 0.49364 0.50299 -0.06400
H 	H 	0.13626 0.47003 0.37630 0.04300
H 	H 	0.13121 0.42927 0.42782 0.02400
H 	H 	0.14220 0.47099 0.57589 0.03100
H 	H 	0.14736 0.51172 0.52420 0.04400
C 	C 	0.02177 0.64175 0.36731 -0.06300
C 	C 	0.00963 0.65854 0.33781 0.01900
C 	C 	0.01783 0.67695 0.30249 -0.06300
C 	C 	0.03803 0.67903 0.29767 0.01300
C 	C 	0.05026 0.66270 0.32823 -0.08500
C 	C 	0.04200 0.64379 0.36255 0.01000
C 	C 	0.98841 0.65798 0.34611 0.01900
H 	H 	0.00854 0.68992 0.27939 0.04500
H 	H 	0.04414 0.69368 0.27099 0.04100
H 	H 	0.05124 0.63078 0.38570 0.02300
H 	H 	0.01555 0.62741 0.39454 0.04400
C 	C 	0.97720 0.63755 0.32439 -0.06300
C 	C 	0.95686 0.63901 0.32551 0.01000
C 	C 	0.94766 0.66097 0.34807 -0.08500
C 	C 	0.95890 0.68056 0.37274 0.01500
C 	C 	0.97918 0.67906 0.37177 -0.06300
H 	H 	0.98423 0.62106 0.30495 0.04400
H 	H 	0.94830 0.62369 0.30672 0.02700
H 	H 	0.95191 0.69739 0.39105 0.03500
H 	H 	0.98774 0.69471 0.38937 0.04600
C 	C 	0.86722 0.20062 0.39609 -0.07000
C 	C 	0.88064 0.22037 0.40865 0.02200
C 	C 	0.89833 0.22176 0.38057 -0.06800
C 	C 	0.90192 0.20481 0.33743 0.02200
C 	C 	0.88780 0.18640 0.32189 -0.10900
C 	C 	0.87082 0.18358 0.35307 0.01400
C 	C 	0.87522 0.24144 0.44621 0.01800
H 	H 	0.90890 0.23673 0.39063 0.04800
H 	H 	0.91528 0.20678 0.31458 0.03500
H 	H 	0.85990 0.16923 0.34213 -0.00500
H 	H 	0.85364 0.19921 0.41807 0.04300
C 	C 	0.86650 0.26435 0.42646 -0.06300
C 	C 	0.86402 0.28600 0.46025 0.01400
C 	C 	0.87023 0.28490 0.51411 -0.08900
C 	C 	0.87767 0.26130 0.53482 0.01300
C 	C 	0.88025 0.23968 0.50086 -0.06400
H 	H 	0.86234 0.26571 0.38441 0.04400
H 	H 	0.85800 0.30397 0.44402 0.02700
H 	H 	0.88245 0.26014 0.57638 0.02200
H 	H 	0.88680 0.22194 0.51654 0.04400
C 	C 	0.84653 0.24117 0.94736 -0.06300
C 	C 	0.85988 0.26154 0.93860 0.01700
C 	C 	0.87561 0.26476 0.97406 -0.06300
C 	C 	0.87894 0.24643 0.01494 0.01100
C 	C 	0.86657 0.22467 0.02058 -0.08800
C 	C 	0.84985 0.22283 0.98821 0.00900
C 	C 	0.85927 0.27654 0.88782 0.02000
H 	H 	0.88588 0.28060 0.96802 0.04500
H 	H 	0.89172 0.24840 0.04021 0.03900
H 	H 	0.83984 0.20661 0.99324 0.03100
H 	H 	0.83413 0.23882 0.92084 0.04400
C 	C 	0.86273 0.26372 0.83871 -0.06400
C 	C 	0.86483 0.27817 0.79129 0.01300
C 	C 	0.86336 0.30556 0.79237 -0.08800
C 	C 	0.85900 0.31836 0.84100 0.01700
C 	C 	0.85703 0.30389 0.88867 -0.06500
H 	H 	0.86448 0.24262 0.83765 0.04400
H 	H 	0.86810 0.26812 0.75386 0.02200
H 	H 	0.85783 0.33952 0.84225 0.03000
H 	H 	0.85428 0.31395 0.92637 0.04400
C 	C 	0.13166 0.26746 0.32957 -0.06300
C 	C 	0.13904 0.25680 0.37755 0.02000
C 	C 	0.14481 0.23039 0.37886 -0.06500
C 	C 	0.14215 0.21446 0.33348 0.01600
C 	C 	0.13363 0.22483 0.28665 -0.08800
C 	C 	0.12895 0.25155 0.28442 0.01300
C 	C 	0.13837 0.27237 0.42771 0.01700
H 	H 	0.15070 0.22202 0.41555 0.04300
H 	H 	0.14591 0.19387 0.33554 0.03000
H 	H 	0.12256 0.25978 0.24824 0.02200
H 	H 	0.12721 0.28782 0.32805 0.04400
C 	C 	0.14776 0.29677 0.43021 -0.06300
C 	C 	0.14335 0.31437 0.47170 0.00800
C 	C 	0.12945 0.30773 0.51101 -0.08700
C 	C 	0.12151 0.28232 0.51125 0.01000
C 	C 	0.12590 0.26479 0.46970 -0.06200
H 	H 	0.15777 0.30257 0.39863 0.04300
H 	H 	0.15019 0.33349 0.47205 0.03100
H 	H 	0.11122 0.27655 0.54213 0.03800
H 	H 	0.11877 0.24586 0.46857 0.04500
C 	C 	0.10681 0.28176 0.99616 -0.06400
C 	C 	0.10908 0.27793 0.94053 0.01800
C 	C 	0.11537 0.25356 0.92107 -0.06300
C 	C 	0.11831 0.23272 0.95665 0.01300
C 	C 	0.11493 0.23604 0.01205 -0.08800
C 	C 	0.10977 0.26090 0.03186 0.01300
C 	C 	0.10395 0.29891 0.90234 0.02100
H 	H 	0.11751 0.25059 0.87821 0.04400
H 	H 	0.12262 0.21377 0.94098 0.02800
H 	H 	0.10718 0.26378 0.07455 0.02500
H 	H 	0.10219 0.30062 0.01156 0.04400
C 	C 	0.08768 0.29604 0.86869 -0.06800
C 	C 	0.08479 0.31329 0.82567 0.02100
C 	C 	0.09821 0.33347 0.81578 -0.10700
C 	C 	0.11353 0.33768 0.85239 0.01400
C 	C 	0.11642 0.32038 0.89539 -0.07000
H 	H 	0.07775 0.27980 0.87451 0.04800
H 	H 	0.07263 0.31022 0.79856 0.03400
H 	H 	0.12386 0.35339 0.84577 -0.00100
H 	H 	0.12885 0.32297 0.92173 0.04300
C 	C 	0.01922 0.14296 0.06209 -0.06400
C 	C 	0.00797 0.15387 0.10370 0.02000
C 	C 	0.01723 0.16593 0.14758 -0.06300
C 	C 	0.03747 0.16821 0.14863 0.01200
C 	C 	0.04868 0.15872 0.10553 -0.08700
C 	C 	0.03952 0.14539 0.06296 0.01500
C 	C 	0.98652 0.15447 0.09950 0.01900
H 	H 	0.00870 0.17431 0.18004 0.04500
H 	H 	0.04441 0.17812 0.18215 0.02100
H 	H 	0.04799 0.13782 0.02959 0.03800
H 	H 	0.01223 0.13324 0.02843 0.04400
C 	C 	0.97758 0.16692 0.05548 -0.06300
C 	C 	0.95738 0.17021 0.05446 0.01300
C 	C 	0.94596 0.16131 0.09767 -0.08600
C 	C 	0.95484 0.14833 0.14106 0.01100
C 	C 	0.97501 0.14476 0.14180 -0.06300
H 	H 	0.98632 0.17465 0.02280 0.04600
H 	H 	0.95069 0.18028 0.02075 0.03400
H 	H 	0.94613 0.14108 0.17428 0.02900
H 	H 	0.98174 0.13492 0.17573 0.04300
C 	C 	0.87070 0.82008 0.51743 -0.07000
C 	C 	0.88459 0.80023 0.51108 0.02000
C 	C 	0.90099 0.79968 0.54472 -0.06700
C 	C 	0.90255 0.81732 0.58763 0.01900
C 	C 	0.88757 0.83542 0.59764 -0.10700
C 	C 	0.87223 0.83774 0.56033 0.00700
C 	C 	0.88069 0.77812 0.47457 0.01800
H 	H 	0.91204 0.78477 0.53924 0.04800
H 	H 	0.91486 0.81595 0.61478 0.03600
H 	H 	0.86085 0.85213 0.56637 0.00200
H 	H 	0.85820 0.82098 0.49088 0.04100
C 	C 	0.87399 0.75427 0.49560 -0.06400
C 	C 	0.87209 0.73243 0.46209 0.01300
C 	C 	0.87694 0.73422 0.40723 -0.08900
C 	C 	0.88255 0.75854 0.38559 0.01200
C 	C 	0.88446 0.78040 0.41923 -0.06400
H 	H 	0.87073 0.75250 0.53820 0.04300
H 	H 	0.86745 0.71389 0.47910 0.02800
H 	H 	0.88629 0.76023 0.34329 0.02400
H 	H 	0.88941 0.79887 0.40259 0.04300
C 	C 	0.87534 0.75785 0.94683 -0.06200
C 	C 	0.86111 0.76130 0.98676 0.01700
C 	C 	0.84784 0.78207 0.98244 -0.06400
C 	C 	0.84973 0.80042 0.94092 0.00800
C 	C 	0.86503 0.79826 0.90353 -0.08900
C 	C 	0.87729 0.77621 0.90534 0.01000
C 	C 	0.86209 0.74584 0.03687 0.02000
H 	H 	0.83659 0.78464 0.01261 0.04400
H 	H 	0.83974 0.81682 0.93903 0.03100
H 	H 	0.88891 0.77393 0.87622 0.03800
H 	H 	0.88552 0.74169 0.94951 0.04500
C 	C 	0.85813 0.71886 0.03622 -0.06500
C 	C 	0.86101 0.70381 0.08277 0.01600
C 	C 	0.86804 0.71566 0.13003 -0.08800
C 	C 	0.87145 0.74275 0.13095 0.01300
C 	C 	0.86843 0.75777 0.08469 -0.06400
H 	H 	0.85320 0.70949 0.99948 0.04400
H 	H 	0.85835 0.68290 0.08161 0.03100
H 	H 	0.87677 0.75208 0.16734 0.02200
H 	H 	0.87153 0.77859 0.08553 0.04400
C 	C 	0.85343 0.99679 0.88310 -0.06400
C 	C 	0.85154 0.99982 0.93912 0.01800
C 	C 	0.84895 0.97768 0.97180 -0.06500
C 	C 	0.84952 0.95263 0.94915 0.01300
C 	C 	0.85272 0.94951 0.89356 -0.08800
C 	C 	0.85399 0.97171 0.86038 0.01100
C 	C 	0.85460 0.02570 0.96406 0.01800
H 	H 	0.84728 0.97983 0.01503 0.04400
H 	H 	0.84805 0.93564 0.97502 0.03200
H 	H 	0.85627 0.96956 0.81738 0.02700
H 	H 	0.85521 0.01381 0.85746 0.04400
C 	C 	0.87288 0.03776 0.96073 -0.06400
C 	C 	0.87612 0.06184 0.98589 0.01100
C 	C 	0.86106 0.07418 0.01457 -0.08900
C 	C 	0.84278 0.06196 0.01838 0.01300
C 	C 	0.83957 0.03779 0.99322 -0.06400
H 	H 	0.88465 0.02837 0.93898 0.04300
H 	H 	0.89034 0.07090 0.98313 0.02500
H 	H 	0.83099 0.07132 0.04005 0.03600
H 	H 	0.82543 0.02853 0.99624 0.04400
C 	C 	0.14447 0.73036 0.49778 -0.06300
C 	C 	0.13606 0.75538 0.49476 0.01700
C 	C 	0.12659 0.76315 0.44727 -0.06200
C 	C 	0.12406 0.74532 0.40506 0.01100
C 	C 	0.13083 0.71943 0.41016 -0.08700
C 	C 	0.14190 0.71247 0.45569 0.00800
C 	C 	0.13442 0.77163 0.54376 0.02000
H 	H 	0.12031 0.78257 0.44419 0.04500
H 	H 	0.11613 0.75135 0.36942 0.03600
H 	H 	0.14783 0.69289 0.45954 0.03200
H 	H 	0.15219 0.72437 0.53383 0.04300
C 	C 	0.12358 0.76245 0.58781 -0.06400
C 	C 	0.11985 0.77887 0.63161 0.01300
C 	C 	0.12694 0.80464 0.63193 -0.08900
C 	C 	0.13849 0.81354 0.58891 0.01600
C 	C 	0.14216 0.79709 0.54485 -0.06500
H 	H 	0.11753 0.74284 0.58734 0.04500
H 	H 	0.11112 0.77173 0.66489 0.02300
H 	H 	0.14409 0.83338 0.58878 0.03100
H 	H 	0.15062 0.80432 0.51112 0.04300
C 	C 	0.11036 0.77638 0.99657 -0.06400
C 	C 	0.10559 0.75144 0.97678 0.01800
C 	C 	0.10344 0.74758 0.92112 -0.06400
C 	C 	0.10522 0.76878 0.88566 0.01200
C 	C 	0.10912 0.79401 0.90573 -0.08800
C 	C 	0.11214 0.79754 0.96124 0.01300
C 	C 	0.10257 0.72957 0.01460 0.02100
H 	H 	0.09998 0.72832 0.90546 0.04300
H 	H 	0.10287 0.76575 0.84291 0.02600
H 	H 	0.11546 0.81681 0.97713 0.02800
H 	H 	0.11240 0.77941 0.03944 0.04400
C 	C 	0.11650 0.70959 0.01858 -0.06900
C 	C 	0.11580 0.69187 0.06153 0.01100
C 	C 	0.10122 0.69417 0.10111 -0.10600
C 	C 	0.08626 0.71260 0.09403 0.02000
C 	C 	0.08698 0.73029 0.05106 -0.06800
H 	H 	0.12840 0.70861 0.99001 0.04100
H 	H 	0.12724 0.67741 0.06574 0.00100
H 	H 	0.07459 0.71407 0.12328 0.03500
H 	H 	0.07590 0.74530 0.04749 0.04700
C 	C 	0.09721 0.98435 0.95251 -0.06500
C 	C 	0.11235 0.00245 0.94522 0.01800
C 	C 	0.12720 0.99705 0.90800 -0.06700
C 	C 	0.12728 0.97336 0.87963 0.00900
C 	C 	0.11248 0.95479 0.88821 -0.09800
C 	C 	0.09722 0.96068 0.92405 0.01500
C 	C 	0.11289 0.02684 0.97730 0.01800
H 	H 	0.13881 0.01106 0.90156 0.03900
H 	H 	0.13910 0.96922 0.85202 0.01400
H 	H 	0.08553 0.94678 0.93046 0.03700
H 	H 	0.08559 0.98844 0.98083 0.04500
C 	C 	0.09804 0.04553 0.97194 -0.06500
C 	C 	0.09918 0.06933 0.99973 0.01400
C 	C 	0.11527 0.07476 0.03295 -0.09700
C 	C 	0.12976 0.05560 0.03983 0.00900
C 	C 	0.12856 0.03178 0.01213 -0.06600
H 	H 	0.08579 0.04181 0.94548 0.04500
H 	H 	0.08772 0.08371 0.99474 0.03700
H 	H 	0.14222 0.05940 0.06542 0.01300
H 	H 	0.13997 0.01732 0.01709 0.03900
C 	C 	0.01164 0.86675 0.77183 -0.06300
C 	C 	0.00245 0.87753 0.81721 0.02000
C 	C 	0.01379 0.88766 0.85951 -0.06400
C 	C 	0.03409 0.88548 0.85789 0.01500
C 	C 	0.04319 0.87324 0.81384 -0.08700
C 	C 	0.03190 0.86478 0.77002 0.01200
C 	C 	0.98102 0.87617 0.82225 0.01900
H 	H 	0.00685 0.89645 0.89432 0.04400
H 	H 	0.04264 0.89228 0.89182 0.03800
H 	H 	0.03878 0.85571 0.73541 0.02100
H 	H 	0.00306 0.85900 0.73882 0.04500
C 	C 	0.96911 0.88588 0.78078 -0.06300
C 	C 	0.94907 0.88119 0.78161 0.01000
C 	C 	0.94069 0.86719 0.82439 -0.08500
C 	C 	0.95245 0.85845 0.86702 0.01300
C 	C 	0.97254 0.86279 0.86582 -0.06300
H 	H 	0.97546 0.89649 0.74726 0.04300
H 	H 	0.94007 0.88830 0.74884 0.02700
H 	H 	0.94613 0.84763 0.90028 0.03400
H 	H 	0.98158 0.85506 0.89789 0.04500
C 	C 	0.72269 0.14221 0.15116 -0.06500
C 	C 	0.73545 0.14374 0.19512 0.01900
C 	C 	0.72796 0.14497 0.24774 -0.06400
C 	C 	0.70785 0.14567 0.25617 0.01400
C 	C 	0.69507 0.14521 0.21199 -0.08800
C 	C 	0.70260 0.14291 0.15952 0.01200
C 	C 	0.75656 0.14588 0.18592 0.01800
H 	H 	0.73773 0.14593 0.28197 0.04400
H 	H 	0.70224 0.14737 0.29685 0.03400
H 	H 	0.69287 0.14209 0.12517 0.02200
H 	H 	0.72834 0.14112 0.11043 0.04300
C 	C 	0.76689 0.12497 0.16288 -0.06400
C 	C 	0.78704 0.12676 0.15587 0.01100
C 	C 	0.79701 0.14947 0.17205 -0.08900
C 	C 	0.78652 0.17074 0.19315 0.01200
C 	C 	0.76640 0.16894 0.20008 -0.06400
H 	H 	0.75936 0.10717 0.15134 0.04300
H 	H 	0.79497 0.11020 0.13959 0.03200
H 	H 	0.79401 0.18850 0.20506 0.02900
H 	H 	0.75848 0.18537 0.21694 0.04400
C 	C 	0.27096 0.18572 0.21402 -0.06400
C 	C 	0.25882 0.16366 0.21158 0.01800
C 	C 	0.26557 0.13944 0.23063 -0.06500
C 	C 	0.28437 0.13722 0.25167 0.00900
C 	C 	0.29665 0.15921 0.25373 -0.08800
C 	C 	0.28982 0.18352 0.23488 0.01300
C 	C 	0.23905 0.16581 0.18889 0.01700
H 	H 	0.25627 0.12232 0.22901 0.04000
H 	H 	0.28949 0.11833 0.26570 0.01900
H 	H 	0.29905 0.20071 0.23660 0.03700
H 	H 	0.26583 0.20452 0.19953 0.04500
C 	C 	0.22422 0.17795 0.21863 -0.06200
C 	C 	0.20507 0.17778 0.19950 0.00700
C 	C 	0.20057 0.16551 0.15026 -0.08600
C 	C 	0.21562 0.15418 0.11963 0.00700
C 	C 	0.23474 0.15429 0.13897 -0.06400
H 	H 	0.22745 0.18693 0.25720 0.04400
H 	H 	0.19367 0.18655 0.22368 0.03700
H 	H 	0.21250 0.14500 0.08122 0.03000
H 	H 	0.24615 0.14505 0.11556 0.04100
C 	C 	0.47620 0.13604 0.32101 -0.06300
C 	C 	0.48723 0.15566 0.34629 0.01900
C 	C 	0.47781 0.17553 0.37531 -0.06300
C 	C 	0.45752 0.17681 0.37602 0.01500
C 	C 	0.44646 0.15822 0.34772 -0.08500
C 	C 	0.45584 0.13728 0.32187 0.01000
C 	C 	0.50841 0.15700 0.33779 0.01900
H 	H 	0.48623 0.19054 0.39557 0.04600
H 	H 	0.45039 0.19284 0.39678 0.03500
H 	H 	0.44743 0.12273 0.30024 0.02500
H 	H 	0.48337 0.12047 0.29895 0.04300
C 	C 	0.52089 0.14027 0.36631 -0.06300
C 	C 	0.54107 0.14284 0.36096 0.01000
C 	C 	0.54893 0.16220 0.32699 -0.08500
C 	C 	0.53635 0.17858 0.29763 0.01400
C 	C 	0.51621 0.17599 0.30307 -0.06300
H 	H 	0.51497 0.12552 0.39311 0.04400
H 	H 	0.55059 0.12983 0.38325 0.02200
H 	H 	0.54216 0.19361 0.27133 0.04100
H 	H 	0.50664 0.18896 0.28084 0.04500
C 	C 	0.71954 0.89481 0.73737 -0.06400
C 	C 	0.73219 0.88566 0.69722 0.01900
C 	C 	0.72470 0.87819 0.64682 -0.06400
C 	C 	0.70460 0.87836 0.63785 0.01500
C 	C 	0.69188 0.88593 0.67928 -0.08800
C 	C 	0.69948 0.89496 0.72843 0.01300
C 	C 	0.75296 0.88172 0.70955 0.01800
H 	H 	0.73440 0.87144 0.61529 0.04400
H 	H 	0.69891 0.87148 0.59964 0.03200
H 	H 	0.68979 0.90123 0.76040 0.02000
H 	H 	0.72520 0.90085 0.77621 0.04400
C 	C 	0.76482 0.90317 0.72272 -0.06400
C 	C 	0.78450 0.89933 0.73462 0.01100
C 	C 	0.79250 0.87400 0.73323 -0.09100
C 	C 	0.78046 0.85250 0.72164 0.01200
C 	C 	0.76080 0.85635 0.70983 -0.06500
H 	H 	0.75883 0.92281 0.72310 0.04400
H 	H 	0.79364 0.91611 0.74328 0.03400
H 	H 	0.78640 0.83283 0.72107 0.02900
H 	H 	0.75165 0.83962 0.70076 0.04400
C 	C 	0.64347 0.99248 0.49656 -0.06400
C 	C 	0.64019 0.99275 0.44070 0.01900
C 	C 	0.63577 0.96931 0.41389 -0.06400
C 	C 	0.63303 0.94624 0.44324 0.01300
C 	C 	0.63470 0.94642 0.49965 -0.08800
C 	C 	0.64075 0.96938 0.52598 0.01500
C 	C 	0.63824 0.01792 0.41215 0.01900
H 	H 	0.63349 0.96926 0.37066 0.04300
H 	H 	0.62876 0.92848 0.42239 0.02400
H 	H 	0.64228 0.96971 0.56945 0.03100
H 	H 	0.64707 0.01046 0.51755 0.04400
C 	C 	0.61974 0.02680 0.39676 -0.06400
C 	C 	0.61748 0.05179 0.37474 0.01200
C 	C 	0.63371 0.06807 0.36755 -0.09000
C 	C 	0.65235 0.05877 0.38067 0.01600
C 	C 	0.65460 0.03379 0.40319 -0.06500
H 	H 	0.60704 0.01463 0.40339 0.04400
H 	H 	0.60305 0.05879 0.36460 0.01900
H 	H 	0.66498 0.07123 0.37539 0.03300
H 	H 	0.66895 0.02702 0.41470 0.04500
C 	C 	0.22944 0.87036 0.77931 -0.06400
C 	C 	0.23345 0.85820 0.72983 0.01700
C 	C 	0.21831 0.84653 0.70052 -0.06200
C 	C 	0.19917 0.84778 0.71960 0.00700
C 	C 	0.19499 0.86069 0.76839 -0.08600
C 	C 	0.21033 0.87156 0.79861 0.00700
C 	C 	0.25325 0.85927 0.70705 0.01800
H 	H 	0.22129 0.83707 0.66229 0.04400
H 	H 	0.18754 0.83935 0.69573 0.03700
H 	H 	0.20745 0.88122 0.83666 0.03000
H 	H 	0.24108 0.87927 0.80237 0.04100
C 	C 	0.26048 0.88291 0.68633 -0.06500
C 	C 	0.27937 0.88416 0.66560 0.00800
C 	C 	0.29128 0.86178 0.66551 -0.08800
C 	C 	0.28395 0.83802 0.68587 0.01300
C 	C 	0.26499 0.83678 0.70642 -0.06400
H 	H 	0.25148 0.90034 0.68653 0.04000
H 	H 	0.28486 0.90264 0.65040 0.01800
H 	H 	0.29289 0.82053 0.68568 0.03700
H 	H 	0.25949 0.81842 0.72218 0.04500
C 	C 	0.36235 0.99396 0.51918 -0.06700
C 	C 	0.37811 0.99901 0.48475 0.01800
C 	C 	0.39296 0.98033 0.47931 -0.06500
C 	C 	0.39169 0.95637 0.50650 0.01500
C 	C 	0.37551 0.95083 0.53929 -0.09700
C 	C 	0.36105 0.97002 0.54638 0.01000
C 	C 	0.37860 0.02335 0.45261 0.01800
H 	H 	0.40527 0.98415 0.45315 0.04500
H 	H 	0.40312 0.94196 0.50135 0.03800
H 	H 	0.34852 0.96611 0.57163 0.01300
H 	H 	0.35092 0.00840 0.52410 0.04000
C 	C 	0.36428 0.02802 0.41345 -0.06700
C 	C 	0.36407 0.05166 0.38499 0.00900
C 	C 	0.37818 0.07095 0.39549 -0.09800
C 	C 	0.39291 0.06586 0.43344 0.01500
C 	C 	0.39310 0.04218 0.46190 -0.06500
H 	H 	0.35316 0.01345 0.40558 0.04000
H 	H 	0.35264 0.05523 0.35582 0.01300
H 	H 	0.40407 0.08035 0.44140 0.03800
H 	H 	0.40431 0.03865 0.49175 0.04500
C 	C 	0.47336 0.86808 0.64655 -0.06300
C 	C 	0.48314 0.86794 0.59686 0.02000
C 	C 	0.47238 0.86902 0.54876 -0.06300
C 	C 	0.45203 0.86868 0.55035 0.01700
C 	C 	0.44231 0.86699 0.59999 -0.08600
C 	C 	0.45304 0.86742 0.64808 0.01100
C 	C 	0.50449 0.86460 0.59517 0.01900
H 	H 	0.47977 0.86910 0.51017 0.04600
H 	H 	0.44387 0.86837 0.51297 0.03600
H 	H 	0.44565 0.86628 0.68661 0.01800
H 	H 	0.48152 0.86779 0.68394 0.04400
C 	C 	0.51618 0.88302 0.56841 -0.06400
C 	C 	0.53637 0.87968 0.56652 0.01000
C 	C 	0.54507 0.85800 0.59175 -0.08700
C 	C 	0.53336 0.83956 0.61845 0.01600
C 	C 	0.51317 0.84278 0.61991 -0.06300
H 	H 	0.50964 0.89997 0.54934 0.04300
H 	H 	0.54527 0.89411 0.54607 0.01900
H 	H 	0.53987 0.82261 0.63761 0.04000
H 	H 	0.50425 0.82826 0.64007 0.04600
C 	C 	0.71976 0.34830 0.69643 -0.06200
C 	C 	0.73457 0.35957 0.72766 0.01700
C 	C 	0.73006 0.37071 0.77781 -0.06400
C 	C 	0.71079 0.37134 0.79590 0.00800
C 	C 	0.69579 0.36092 0.76377 -0.08600
C 	C 	0.70046 0.34899 0.71432 0.00700
C 	C 	0.75458 0.36120 0.70639 0.01800
H 	H 	0.74145 0.37926 0.80239 0.04200
H 	H 	0.70752 0.38022 0.83451 0.03000
H 	H 	0.68909 0.34091 0.68902 0.03600
H 	H 	0.72314 0.33960 0.65768 0.04400
C 	C 	0.76620 0.33865 0.70320 -0.06400
C 	C 	0.78527 0.34033 0.68362 0.01300
C 	C 	0.79283 0.36459 0.66681 -0.08700
C 	C 	0.78109 0.38709 0.66970 0.00900
C 	C 	0.76208 0.38539 0.68946 -0.06500
H 	H 	0.76049 0.31988 0.71609 0.04500
H 	H 	0.79408 0.32277 0.68123 0.03600
H 	H 	0.78678 0.40595 0.65723 0.02000
H 	H 	0.75319 0.40289 0.69169 0.04000
C 	C 	0.64285 0.29606 0.53659 -0.06500
C 	C 	0.63584 0.27021 0.53627 0.02000
C 	C 	0.62604 0.26043 0.58164 -0.06400
C 	C 	0.62246 0.27666 0.62584 0.01300
C 	C 	0.62868 0.30283 0.62527 -0.08900
C 	C 	0.63933 0.31232 0.58104 0.01600
C 	C 	0.63693 0.25421 0.48677 0.01700
H 	H 	0.62057 0.24051 0.58183 0.04400
H 	H 	0.61442 0.26908 0.66004 0.02300
H 	H 	0.64425 0.33248 0.58023 0.03100
H 	H 	0.65054 0.30375 0.50189 0.04300
C 	C 	0.62662 0.26196 0.44063 -0.06200
C 	C 	0.62365 0.24426 0.39840 0.01000
C 	C 	0.63082 0.21850 0.40217 -0.08700
C 	C 	0.64271 0.21162 0.44612 0.00800
C 	C 	0.64572 0.22940 0.48822 -0.06300
H 	H 	0.62003 0.28123 0.43871 0.04500
H 	H 	0.61506 0.25025 0.36392 0.03700
H 	H 	0.64896 0.19218 0.44882 0.03200
H 	H 	0.65410 0.22344 0.52315 0.04300
C 	C 	0.60981 0.27685 0.99161 -0.06300
C 	C 	0.60503 0.25181 0.97241 0.01800
C 	C 	0.60323 0.24754 0.91677 -0.06300
C 	C 	0.60536 0.26843 0.88072 0.01200
C 	C 	0.60927 0.29378 0.90014 -0.08800
C 	C 	0.61194 0.29772 0.95567 0.01300
C 	C 	0.60157 0.23027 0.01078 0.02100
H 	H 	0.59974 0.22820 0.90157 0.04300
H 	H 	0.60328 0.26509 0.83797 0.02600
H 	H 	0.61526 0.31708 0.97109 0.02800
H 	H 	0.61159 0.28020 0.03447 0.04400
C 	C 	0.61489 0.20954 0.01458 -0.06900
C 	C 	0.61358 0.19166 0.05714 0.01200
C 	C 	0.59900 0.19452 0.09653 -0.10700
C 	C 	0.58470 0.21393 0.08992 0.02100
C 	C 	0.58602 0.23177 0.04732 -0.06800
H 	H 	0.62677 0.20799 0.98602 0.04200
H 	H 	0.62454 0.17654 0.06113 0.00000
H 	H 	0.57306 0.21592 0.11913 0.03500
H 	H 	0.57540 0.24738 0.04393 0.04700
C 	C 	0.22356 0.37952 0.65839 -0.06400
C 	C 	0.23095 0.38613 0.70940 0.01900
C 	C 	0.21820 0.39428 0.75020 -0.06400
C 	C 	0.19814 0.39445 0.74104 0.01200
C 	C 	0.19066 0.38647 0.69097 -0.08800
C 	C 	0.20348 0.37974 0.64916 0.01400
C 	C 	0.25175 0.38237 0.72141 0.01800
H 	H 	0.22378 0.39962 0.78955 0.04300
H 	H 	0.18838 0.40007 0.77335 0.02100
H 	H 	0.19789 0.37365 0.61028 0.03200
H 	H 	0.23334 0.37347 0.62645 0.04400
C 	C 	0.25968 0.35705 0.72178 -0.06500
C 	C 	0.27950 0.35343 0.73167 0.01200
C 	C 	0.29162 0.37511 0.74108 -0.09100
C 	C 	0.28351 0.40038 0.74287 0.01100
C 	C 	0.26364 0.40398 0.73301 -0.06400
H 	H 	0.25050 0.34021 0.71392 0.04400
H 	H 	0.28552 0.33381 0.73097 0.02900
H 	H 	0.29268 0.41729 0.75006 0.03300
H 	H 	0.25758 0.42357 0.73342 0.04300
C 	C 	0.36826 0.31820 0.51755 -0.07000
C 	C 	0.38283 0.29936 0.50992 0.02000
C 	C 	0.39957 0.29992 0.54224 -0.06700
C 	C 	0.40092 0.31764 0.58505 0.01900
C 	C 	0.38542 0.33474 0.59625 -0.10600
C 	C 	0.36957 0.33594 0.56035 0.00900
C 	C 	0.37942 0.27708 0.47353 0.01800
H 	H 	0.41110 0.28577 0.53582 0.04800
H 	H 	0.41354 0.31709 0.61124 0.03600
H 	H 	0.35771 0.34948 0.56751 0.00100
H 	H 	0.35545 0.31822 0.49207 0.04100
C 	C 	0.37331 0.25296 0.49469 -0.06300
C 	C 	0.37180 0.23105 0.46121 0.01300
C 	C 	0.37644 0.23304 0.40624 -0.08800
C 	C 	0.38154 0.25756 0.38453 0.01200
C 	C 	0.38306 0.27948 0.41815 -0.06400
H 	H 	0.37018 0.25107 0.53734 0.04300
H 	H 	0.36755 0.21236 0.47828 0.02800
H 	H 	0.38511 0.25941 0.34216 0.02500
H 	H 	0.38757 0.29813 0.40142 0.04300
C 	C 	0.37391 0.25906 0.94639 -0.06200
C 	C 	0.36084 0.26361 0.98879 0.01700
C 	C 	0.34865 0.28564 0.98720 -0.06300
C 	C 	0.35054 0.30400 0.94570 0.00800
C 	C 	0.36478 0.30058 0.90556 -0.08900
C 	C 	0.37587 0.27742 0.90491 0.01000
C 	C 	0.36204 0.24769 0.03825 0.02000
H 	H 	0.33828 0.28909 0.01934 0.04400
H 	H 	0.34141 0.32131 0.94583 0.03200
H 	H 	0.38661 0.27416 0.87366 0.03800
H 	H 	0.38325 0.24195 0.94699 0.04500
C 	C 	0.35665 0.22115 0.03752 -0.06500
C 	C 	0.35956 0.20553 0.08325 0.01600
C 	C 	0.36805 0.21634 0.12974 -0.08900
C 	C 	0.37294 0.24301 0.13076 0.01300
C 	C 	0.36990 0.25862 0.08532 -0.06400
H 	H 	0.35055 0.21255 0.00134 0.04400
H 	H 	0.35574 0.18495 0.08199 0.03100
H 	H 	0.37936 0.25157 0.16659 0.02200
H 	H 	0.37412 0.27908 0.08621 0.04400
C 	C 	0.51416 0.38678 0.84789 -0.06300
C 	C 	0.50275 0.37535 0.80719 0.02000
C 	C 	0.51186 0.36319 0.76318 -0.06300
C 	C 	0.53212 0.36124 0.76126 0.01200
C 	C 	0.54350 0.37110 0.80367 -0.08600
C 	C 	0.53447 0.38463 0.84621 0.01500
C 	C 	0.48134 0.37420 0.81268 0.01900
H 	H 	0.50322 0.35443 0.73139 0.04500
H 	H 	0.53894 0.35119 0.72773 0.02100
H 	H 	0.54307 0.39252 0.87901 0.03800
H 	H 	0.50729 0.39663 0.88159 0.04400
C 	C 	0.47292 0.36223 0.85805 -0.06300
C 	C 	0.45280 0.35835 0.86047 0.01300
C 	C 	0.44092 0.36616 0.81730 -0.08500
C 	C 	0.44926 0.37865 0.77251 0.01000
C 	C 	0.46935 0.38285 0.77040 -0.06300
H 	H 	0.48203 0.35530 0.89074 0.04500
H 	H 	0.44652 0.34867 0.89524 0.03400
H 	H 	0.44018 0.38502 0.73927 0.02800
H 	H 	0.47566 0.39233 0.73543 0.04300
C 	C 	0.72454 0.67405 0.22467 -0.06300
C 	C 	0.73972 0.66315 0.19428 0.01700
C 	C 	0.73582 0.65248 0.14333 -0.06400
C 	C 	0.71678 0.65202 0.12348 0.00800
C 	C 	0.70139 0.66214 0.15460 -0.08600
C 	C 	0.70545 0.67354 0.20500 0.00700
C 	C 	0.75949 0.66146 0.21711 0.01800
H 	H 	0.74750 0.64419 0.11945 0.04200
H 	H 	0.71398 0.64356 0.08418 0.03000
H 	H 	0.69378 0.68139 0.22954 0.03600
H 	H 	0.72745 0.68238 0.26405 0.04400
C 	C 	0.77143 0.68373 0.21898 -0.06400
C 	C 	0.79043 0.68185 0.23898 0.01300
C 	C 	0.79761 0.65766 0.25750 -0.08700
C 	C 	0.78551 0.63548 0.25619 0.00900
C 	C 	0.76656 0.63738 0.23602 -0.06500
H 	H 	0.76606 0.70242 0.20456 0.04500
H 	H 	0.79952 0.69919 0.24019 0.03600
H 	H 	0.79087 0.61669 0.27001 0.02000
H 	H 	0.75741 0.62010 0.23477 0.04000
C 	C 	0.62324 0.75457 0.92092 -0.06300
C 	C 	0.61434 0.77772 0.93884 0.01800
C 	C 	0.60964 0.78062 0.99353 -0.06500
C 	C 	0.61261 0.75981 0.02935 0.01400
C 	C 	0.62016 0.73591 0.01052 -0.08800
C 	C 	0.62615 0.73377 0.95660 0.01400
C 	C 	0.60853 0.79786 0.89955 0.02100
H 	H 	0.60300 0.79858 0.00783 0.04400
H 	H 	0.60801 0.76177 0.07095 0.02400
H 	H 	0.63227 0.71557 0.94181 0.02600
H 	H 	0.62722 0.75237 0.87888 0.04400
C 	C 	0.62019 0.82006 0.89172 -0.07000
C 	C 	0.61668 0.83673 0.84804 0.01300
C 	C 	0.60154 0.83117 0.81160 -0.10600
C 	C 	0.58895 0.81011 0.82213 0.02100
C 	C 	0.59247 0.79348 0.86584 -0.06800
H 	H 	0.63247 0.82376 0.91804 0.04200
H 	H 	0.62637 0.85311 0.84093 0.00000
H 	H 	0.57693 0.80596 0.79517 0.03500
H 	H 	0.58319 0.77660 0.87223 0.04800
C 	C 	0.64999 0.74469 0.34610 -0.06300
C 	C 	0.63523 0.74671 0.38504 0.01900
C 	C 	0.61865 0.73078 0.38090 -0.06400
C 	C 	0.61623 0.71433 0.33639 0.01400
C 	C 	0.63034 0.71369 0.29547 -0.08700
C 	C 	0.64758 0.72815 0.30153 0.01000
C 	C 	0.63595 0.76758 0.42629 0.01800
H 	H 	0.60723 0.73202 0.41093 0.04600
H 	H 	0.60306 0.70280 0.33275 0.03100
H 	H 	0.65868 0.72756 0.27051 0.03100
H 	H 	0.66298 0.75662 0.34932 0.04400
C 	C 	0.63402 0.76123 0.48111 -0.06300
C 	C 	0.63041 0.78092 0.51905 0.01200
C 	C 	0.62872 0.80716 0.50250 -0.08700
C 	C 	0.63225 0.81368 0.44831 0.01100
C 	C 	0.63579 0.79397 0.41041 -0.06300
H 	H 	0.63449 0.74094 0.49396 0.04400
H 	H 	0.62829 0.77567 0.56097 0.03100
H 	H 	0.63129 0.83386 0.43501 0.02800
H 	H 	0.63742 0.79912 0.36826 0.04300
C 	C 	0.62878 0.53036 0.00262 -0.06600
C 	C 	0.61346 0.52631 0.96613 0.01800
C 	C 	0.59927 0.54579 0.95928 -0.06400
C 	C 	0.60074 0.56949 0.98733 0.01400
C 	C 	0.61648 0.57399 0.02238 -0.09600
C 	C 	0.63028 0.55406 0.03064 0.00900
C 	C 	0.61268 0.50203 0.93376 0.01800
H 	H 	0.58731 0.54276 0.93149 0.04500
H 	H 	0.58980 0.58449 0.98120 0.03900
H 	H 	0.64247 0.55717 0.05759 0.01400
H 	H 	0.63968 0.51530 0.00865 0.03900
C 	C 	0.62769 0.49620 0.89734 -0.06700
C 	C 	0.62759 0.47251 0.86898 0.00900
C 	C 	0.61245 0.45435 0.87683 -0.09900
C 	C 	0.59704 0.46070 0.91179 0.01500
C 	C 	0.59719 0.48440 0.94019 -0.06600
H 	H 	0.63958 0.50986 0.89158 0.04000
H 	H 	0.63954 0.46802 0.84204 0.01300
H 	H 	0.58510 0.44714 0.91760 0.03700
H 	H 	0.58544 0.48884 0.96787 0.04500
C 	C 	0.26924 0.66657 0.21660 -0.06400
C 	C 	0.25918 0.64411 0.19977 0.01800
C 	C 	0.26932 0.62366 0.17445 -0.06400
C 	C 	0.28947 0.62539 0.16726 0.01100
C 	C 	0.29962 0.64757 0.18550 -0.08900
C 	C 	0.28935 0.66831 0.20947 0.01200
C 	C 	0.23799 0.64231 0.20779 0.01900
H 	H 	0.26163 0.60632 0.16096 0.04400
H 	H 	0.29723 0.60922 0.14886 0.03300
H 	H 	0.29697 0.68569 0.22304 0.03000
H 	H 	0.26147 0.68265 0.23533 0.04400
C 	C 	0.23019 0.64261 0.26011 -0.06400
C 	C 	0.21006 0.64413 0.26767 0.01400
C 	C 	0.19758 0.64540 0.22290 -0.08900
C 	C 	0.20538 0.64389 0.17064 0.01200
C 	C 	0.22549 0.64238 0.16314 -0.06500
H 	H 	0.23975 0.64233 0.29485 0.04400
H 	H 	0.20423 0.64517 0.30820 0.03400
H 	H 	0.19587 0.64439 0.13580 0.02100
H 	H 	0.23138 0.64201 0.12262 0.04300
C 	C 	0.34659 0.72922 0.93739 -0.06300
C 	C 	0.35681 0.75299 0.93423 0.01700
C 	C 	0.37014 0.75956 0.97489 -0.06200
C 	C 	0.37438 0.74166 0.01588 0.01000
C 	C 	0.36540 0.71689 0.01646 -0.08700
C 	C 	0.35083 0.71127 0.97835 0.00700
C 	C 	0.35585 0.76893 0.88464 0.02000
H 	H 	0.37795 0.77798 0.97316 0.04500
H 	H 	0.38529 0.74662 0.04571 0.03800
H 	H 	0.34326 0.69265 0.97931 0.03100
H 	H 	0.33598 0.72419 0.90679 0.04300
C 	C 	0.36232 0.75832 0.83564 -0.06300
C 	C 	0.36458 0.77438 0.79052 0.01300
C 	C 	0.36032 0.80120 0.79381 -0.08800
C 	C 	0.35277 0.81159 0.84189 0.01600
C 	C 	0.35058 0.79550 0.88724 -0.06500
H 	H 	0.36638 0.73784 0.83316 0.04400
H 	H 	0.37025 0.76615 0.75342 0.02200
H 	H 	0.34938 0.83227 0.84481 0.03100
H 	H 	0.34542 0.80385 0.92477 0.04400
C 	C 	0.38402 0.74346 0.50232 -0.06400
C 	C 	0.38105 0.74691 0.44684 0.01800
C 	C 	0.37412 0.77096 0.42741 -0.06300
C 	C 	0.37124 0.79190 0.46277 0.01300
C 	C 	0.37533 0.78901 0.51791 -0.08900
C 	C 	0.38113 0.76442 0.53781 0.01300
C 	C 	0.38619 0.72592 0.40868 0.02100
H 	H 	0.37146 0.77362 0.38469 0.04400
H 	H 	0.36644 0.81063 0.44707 0.02800
H 	H 	0.38427 0.76187 0.58030 0.02500
H 	H 	0.38915 0.72483 0.51772 0.04400
C 	C 	0.40254 0.72871 0.37528 -0.06800
C 	C 	0.40555 0.71132 0.33256 0.02100
C 	C 	0.39216 0.69109 0.32264 -0.10600
C 	C 	0.37670 0.68705 0.35891 0.01300
C 	C 	0.37371 0.70448 0.40164 -0.07000
H 	H 	0.41247 0.74495 0.38114 0.04800
H 	H 	0.41783 0.71425 0.30581 0.03500
H 	H 	0.36640 0.67131 0.35235 0.00000
H 	H 	0.36121 0.70197 0.42777 0.04200
C 	C 	0.37034 0.48957 0.93736 -0.06400
C 	C 	0.35237 0.50247 0.93447 0.01900
C 	C 	0.33686 0.49094 0.90635 -0.06400
C 	C 	0.33920 0.46626 0.88250 0.01300
C 	C 	0.35707 0.45301 0.88675 -0.08900
C 	C 	0.37269 0.46500 0.91359 0.01100
C 	C 	0.34993 0.52803 0.96101 0.01800
H 	H 	0.32298 0.50090 0.90358 0.04400
H 	H 	0.32700 0.45719 0.86203 0.03600
H 	H 	0.38660 0.45510 0.91661 0.02100
H 	H 	0.38244 0.49852 0.95847 0.04400
C 	C 	0.34760 0.52923 0.01717 -0.06400
C 	C 	0.35034 0.55294 0.04439 0.01400
C 	C 	0.35551 0.57558 0.01557 -0.08700
C 	C 	0.35613 0.57479 0.95900 0.01200
C 	C 	0.35334 0.55109 0.93184 -0.06400
H 	H 	0.34476 0.51152 0.03996 0.04400
H 	H 	0.34959 0.55335 0.08802 0.03000
H 	H 	0.35969 0.59227 0.93627 0.02500
H 	H 	0.35493 0.55039 0.88839 0.04400
C 	C 	0.47666 0.64237 0.05731 -0.06300
C 	C 	0.48858 0.65874 0.08843 0.01900
C 	C 	0.48014 0.67637 0.12499 -0.06300
C 	C 	0.45991 0.67816 0.12936 0.01400
C 	C 	0.44791 0.66232 0.09707 -0.08600
C 	C 	0.45641 0.64413 0.06160 0.01000
C 	C 	0.50979 0.65880 0.08014 0.01900
H 	H 	0.48927 0.68903 0.14931 0.04500
H 	H 	0.45360 0.69224 0.15697 0.04100
H 	H 	0.44733 0.63149 0.03712 0.02200
H 	H 	0.48307 0.62865 0.02910 0.04400
C 	C 	0.52127 0.63828 0.10036 -0.06300
C 	C 	0.54160 0.64001 0.09834 0.01000
C 	C 	0.55051 0.66233 0.07638 -0.08500
C 	C 	0.53898 0.68208 0.05333 0.01500
C 	C 	0.51872 0.68032 0.05523 -0.06300
H 	H 	0.51447 0.62145 0.11918 0.04400
H 	H 	0.55037 0.62457 0.11590 0.02700
H 	H 	0.54573 0.69919 0.03545 0.03500
H 	H 	0.50995 0.69605 0.03875 0.04600
