data_crystal

_cell_length_a 17.67920
_cell_length_b 17.38175
_cell_length_c 89.28221
_cell_angle_alpha 90.07244
_cell_angle_beta  90.02601
_cell_angle_gamma 119.72604

_symmetry_space_group_name_	'P 1'
_symmetry_space_group_name_H-M	'P 1'

loop_
_symmetry_equiv_pos_as_xyz
  x,y,z

loop_
_atom_site_label
_atom_site_type_symbol
_atom_site_fract_x
_atom_site_fract_y
_atom_site_fract_z
_atom_site_charge
O 	O 	0.04611 0.02617 0.01281 -0.70900
O 	O 	0.12452 0.73841 0.01980 -0.07100
N 	N 	0.10940 0.73282 0.00547 -0.02500
Ni	Ni	0.04092 0.13203 0.01274 1.11800
H 	H 	0.10006 0.04552 0.00705 0.16300
O 	O 	0.10493 0.90489 0.01951 -0.36000
C 	C 	0.11731 0.90595 0.00472 0.29500
O 	O 	0.39736 0.26396 0.01825 -0.07100
C 	C 	0.85775 0.01217 0.00157 0.36700
C 	C 	0.91383 0.82517 0.02897 0.33200
O 	O 	0.91904 0.82177 0.01431 -0.35900
O 	O 	0.92546 0.09241 0.00092 -0.34500
O 	O 	0.86687 0.94847 0.00748 -0.39100
H 	H 	0.97055 0.70793 0.03292 0.08500
Ni	Ni	0.96523 0.92959 0.00072 1.12200
Ni	Ni	0.07689 0.99072 0.03074 1.11900
O 	O 	0.16037 0.20568 0.02435 -0.35200
O 	O 	0.19625 0.09518 0.02723 -0.36100
C 	C 	0.21151 0.17632 0.02996 0.31700
N 	N 	0.39413 0.22268 0.03059 -0.02500
O 	O 	0.43137 0.17432 0.03123 -0.06400
O 	O 	0.96792 0.10010 0.03210 -0.35800
O 	O 	0.95524 0.90047 0.03604 -0.37400
C 	C 	0.91992 0.69995 0.04064 -0.00300
C 	C 	0.87240 0.74342 0.03785 -0.08200
O 	O 	0.71755 0.75554 0.03011 -0.07300
O 	O 	0.96239 0.55732 0.04918 -0.06500
O 	O 	0.06050 0.07093 0.04558 -0.36200
C 	C 	0.26938 0.22476 0.04259 -0.08500
C 	C 	0.35289 0.23344 0.04362 0.12900
C 	C 	0.99582 0.08803 0.04497 0.33600
C 	C 	0.91089 0.65684 0.05435 0.06900
C 	C 	0.80294 0.72787 0.04745 0.13200
N 	N 	0.96554 0.61987 0.05762 -0.01700
N 	N 	0.74584 0.76162 0.04376 -0.02400
O 	O 	0.02366 0.65392 0.06819 -0.06800
H 	H 	0.17070 0.23927 0.05439 0.07100
C 	C 	0.23332 0.24243 0.05523 0.00300
C 	C 	0.39552 0.25188 0.05752 -0.06900
H 	H 	0.46025 0.25991 0.05827 0.09400
C 	C 	0.79327 0.68419 0.06113 -0.06600
C 	C 	0.85087 0.65394 0.06504 0.02700
H 	H 	0.74325 0.67689 0.06895 0.08900
H 	H 	0.79348 0.48667 0.07460 0.09300
O 	O 	0.72071 0.79684 0.05411 -0.07000
C 	C 	0.94649 0.17966 0.05859 0.01000
C 	C 	0.96484 0.10980 0.05877 -0.09400
H 	H 	0.96346 0.22259 0.04890 0.07000
O 	O 	0.03959 0.00094 0.07745 -0.05100
O 	O 	0.19539 0.30800 0.08338 -0.08300
N 	N 	0.22578 0.25363 0.08244 -0.01800
C 	C 	0.27212 0.25320 0.06931 0.06100
O 	O 	0.31781 0.07665 0.08080 -0.06600
C 	C 	0.35407 0.25820 0.07051 0.03000
N 	N 	0.39920 0.13301 0.08357 -0.01800
C 	C 	0.39862 0.27466 0.08523 0.02900
H 	H 	0.39748 0.39673 0.08898 0.09300
C 	C 	0.41670 0.35087 0.09339 -0.06900
C 	C 	0.42240 0.21431 0.09119 0.06500
O 	O 	0.45885 0.11262 0.08033 -0.06800
O 	O 	0.94305 0.34066 0.07733 -0.06600
C 	C 	0.85171 0.62475 0.08059 0.03000
C 	C 	0.88451 0.68682 0.09244 0.06300
C 	C 	0.81192 0.50538 0.09846 0.12500
C 	C 	0.81680 0.53445 0.08368 -0.06800
N 	N 	0.92981 0.77985 0.08940 -0.01400
N 	N 	0.78150 0.41383 0.10127 -0.02600
O 	O 	0.69934 0.36057 0.10391 -0.10600
O 	O 	0.91044 0.83206 0.09687 -0.07800
O 	O 	0.99789 0.81356 0.08074 -0.06800
C 	C 	0.88320 0.13852 0.08340 0.03700
C 	C 	0.90595 0.19419 0.07082 0.06500
C 	C 	0.94518 0.05631 0.07161 0.15300
C 	C 	0.90410 0.07059 0.08383 -0.07500
N 	N 	0.88975 0.26699 0.07059 -0.01700
N 	N 	0.96508 0.98628 0.07215 -0.04100
O 	O 	0.90865 0.90777 0.06735 -0.06900
O 	O 	0.82548 0.26188 0.06273 -0.06200
O 	O 	0.20648 0.19388 0.09274 -0.06900
H 	H 	0.36553 0.27578 0.15727 0.08600
Br	Br	0.18159 0.18682 0.16747 -0.15300
C 	C 	0.29125 0.23549 0.17773 0.12700
C 	C 	0.36859 0.27492 0.16939 -0.02900
C 	C 	0.29481 0.23272 0.19346 -0.07500
O 	O 	0.02453 0.16952 0.20219 -0.36200
O 	O 	0.05806 0.91115 0.21085 -0.34900
O 	O 	0.17429 0.09874 0.20277 -0.34700
C 	C 	0.21460 0.18554 0.20240 0.32300
C 	C 	0.37595 0.27169 0.20070 -0.02900
C 	C 	0.99454 0.89528 0.20148 0.31800
Ni	Ni	0.07942 0.18773 0.22245 1.12700
O 	O 	0.19796 0.23005 0.21258 -0.35900
H 	H 	0.37899 0.27046 0.21282 0.08100
O 	O 	0.04495 0.06612 0.22513 -0.71000
Ni	Ni	0.12857 0.02980 0.22269 1.12200
O 	O 	0.07604 0.95242 0.24160 -0.34400
H 	H 	0.03958 0.06395 0.23610 0.16400
O 	O 	0.14466 0.21374 0.24222 -0.34400
C 	C 	0.19035 0.17465 0.24585 0.29900
O 	O 	0.21683 0.13921 0.23537 -0.35700
O 	O 	0.11699 0.81889 0.25261 -0.07200
H 	H 	0.34406 0.21515 0.25844 0.07600
O 	O 	0.04433 0.18418 0.26861 -0.07900
N 	N 	0.05360 0.11451 0.26852 -0.02700
N 	N 	0.10300 0.86358 0.26286 -0.02200
O 	O 	0.16833 0.92591 0.27018 -0.09300
C 	C 	0.13663 0.12370 0.27198 0.12300
C 	C 	0.20649 0.16445 0.26174 -0.08000
C 	C 	0.01579 0.83710 0.26732 0.14000
C 	C 	0.29005 0.18364 0.26621 0.00300
H 	H 	0.02905 0.78451 0.28834 0.09700
C 	C 	0.15003 0.09696 0.28606 -0.06200
C 	C 	0.30463 0.16317 0.28070 0.06500
N 	N 	0.39134 0.18876 0.28534 -0.01600
H 	H 	0.09558 0.06294 0.29367 0.09100
C 	C 	0.23408 0.11864 0.29068 0.03100
H 	H 	0.28966 0.00593 0.30008 0.09700
O 	O 	0.22919 0.26714 0.30897 -0.07100
C 	C 	0.24913 0.10014 0.30628 0.02600
C 	C 	0.28731 0.04726 0.30896 -0.06600
O 	O 	0.11746 0.16893 0.32307 -0.07000
N 	N 	0.19110 0.19294 0.31635 -0.01800
C 	C 	0.23462 0.14297 0.31847 0.06600
C 	C 	0.32943 0.11195 0.33381 -0.07100
C 	C 	0.32571 0.05101 0.32295 0.12900
H 	H 	0.26196 0.17896 0.34169 0.09100
C 	C 	0.26982 0.14277 0.33250 -0.00600
O 	O 	0.33617 0.34621 0.35275 -0.07500
N 	N 	0.35437 0.33927 0.36662 -0.02500
H 	H 	0.96924 0.56148 0.38978 0.09200
O 	O 	0.12937 0.53744 0.38811 -0.05800
O 	O 	0.32099 0.26149 0.37281 -0.07400
N 	N 	0.12593 0.58285 0.39942 -0.01700
O 	O 	0.16657 0.66891 0.39874 -0.06800
O 	O 	0.29804 0.56935 0.39536 -0.05700
H 	H 	0.32096 0.37329 0.39436 0.09800
C 	C 	0.99143 0.46845 0.41180 0.02600
C 	C 	0.07859 0.53857 0.41269 0.07100
O 	O 	0.19441 0.43763 0.40422 -0.07000
N 	N 	0.27162 0.50676 0.40533 -0.01900
C 	C 	0.32927 0.51131 0.41693 0.06800
C 	C 	0.98400 0.46117 0.43904 0.13000
C 	C 	0.07207 0.52778 0.43988 -0.08700
C 	C 	0.11818 0.56748 0.42674 -0.00200
H 	H 	0.18558 0.61980 0.42741 0.07600
H 	H 	0.25112 0.52074 0.43438 0.07200
C 	C 	0.30968 0.51852 0.43184 0.00200
O 	O 	0.34167 0.77378 0.41569 -0.07000
C 	C 	0.11855 0.55029 0.45425 0.32900
O 	O 	0.16991 0.51817 0.45735 -0.37700
O 	O 	0.28664 0.74954 0.45812 -0.36700
O 	O 	0.10923 0.60293 0.46366 -0.34800
O 	O 	0.30464 0.49860 0.46801 -0.35600
Br	Br	0.94298 0.60702 0.48734 -0.18000
O 	O 	0.09210 0.48958 0.48706 -0.34600
Ni	Ni	0.21044 0.69500 0.47703 1.12100
Ni	Ni	0.20789 0.50792 0.47830 1.12800
O 	O 	0.26528 0.63073 0.48237 -0.72600
Br	Br	0.30601 0.33815 0.49090 -0.18300
C 	C 	0.99025 0.44521 0.51652 -0.02500
C 	C 	0.00119 0.50683 0.50547 -0.06400
H 	H 	0.03849 0.42449 0.51783 0.07900
C 	C 	0.07955 0.54440 0.49595 0.30300
O 	O 	0.12658 0.63196 0.49473 -0.33800
H 	H 	0.25702 0.62768 0.49331 0.16500
O 	O 	0.25170 0.48885 0.49802 -0.35900
O 	O 	0.29822 0.80443 0.48993 -0.35000
Br	Br	0.22934 0.80528 0.52646 -0.19200
O 	O 	0.30088 0.69570 0.59922 -0.05800
C 	C 	0.98617 0.49080 0.62872 0.03900
O 	O 	0.02895 0.35942 0.61422 -0.07700
C 	C 	0.06975 0.56622 0.62926 0.05200
N 	N 	0.10979 0.61531 0.61592 -0.01700
O 	O 	0.11767 0.57525 0.60421 -0.06700
O 	O 	0.14055 0.70051 0.61563 -0.06700
C 	C 	0.99534 0.46656 0.65533 0.13900
C 	C 	0.07938 0.54169 0.65581 -0.10300
C 	C 	0.11462 0.59269 0.64285 0.00700
H 	H 	0.17923 0.65041 0.64314 0.07600
C 	C 	0.13590 0.55935 0.66893 0.33400
O 	O 	0.14988 0.49660 0.67373 -0.36900
O 	O 	0.23869 0.22451 0.67905 -0.06800
O 	O 	0.19031 0.64193 0.67260 -0.34600
Ni	Ni	0.26541 0.50397 0.66976 1.12700
O 	O 	0.21977 0.38504 0.68009 -0.35600
C 	C 	0.14303 0.27969 0.69986 -0.08700
C 	C 	0.18813 0.23398 0.70315 0.12600
C 	C 	0.19259 0.37044 0.69407 0.32600
N 	N 	0.25464 0.23982 0.69330 -0.02500
O 	O 	0.32907 0.25460 0.69869 -0.08400
H 	H 	0.02554 0.28409 0.70437 0.07900
C 	C 	0.06633 0.25690 0.70779 0.00500
C 	C 	0.17304 0.18933 0.71686 -0.07300
H 	H 	0.21450 0.16299 0.72031 0.09600
O 	O 	0.10191 0.70973 0.70649 -0.07200
O 	O 	0.21916 0.43589 0.70360 -0.38300
O 	O 	0.20473 0.60983 0.70396 -0.34800
C 	C 	0.05110 0.21298 0.72159 0.05700
C 	C 	0.11107 0.18788 0.72683 0.03500
N 	N 	0.17614 0.73800 0.71329 -0.02600
C 	C 	0.23189 0.60736 0.71740 0.32500
N 	N 	0.07414 0.02557 0.74211 -0.01600
O 	O 	0.11311 0.97881 0.74253 -0.08400
C 	C 	0.12539 0.18596 0.74311 0.02500
C 	C 	0.17850 0.70629 0.72796 0.13400
C 	C 	0.20177 0.63991 0.73011 -0.08100
C 	C 	0.10930 0.10710 0.75029 0.06400
C 	C 	0.16063 0.26534 0.75130 -0.07100
H 	H 	0.17538 0.32654 0.74570 0.08200
H 	H 	0.14250 0.79443 0.73857 0.09700
C 	C 	0.16001 0.74349 0.74029 -0.06600
C 	C 	0.20192 0.60933 0.74465 0.00900
H 	H 	0.21766 0.55715 0.74640 0.07500
H 	H 	0.11218 0.04703 0.77121 0.06100
C 	C 	0.12714 0.10831 0.76561 -0.00200
C 	C 	0.16041 0.18740 0.77387 -0.08900
C 	C 	0.17882 0.26663 0.76658 0.12700
C 	C 	0.16728 0.71809 0.75484 0.03200
C 	C 	0.18683 0.64954 0.75705 0.06700
H 	H 	0.03864 0.64744 0.77537 0.09400
C 	C 	0.08072 0.71823 0.77678 -0.06700
O 	O 	0.13703 0.54439 0.77665 -0.06900
O 	O 	0.18345 0.39988 0.77390 -0.06800
C 	C 	0.15443 0.76395 0.76770 0.03100
N 	N 	0.19409 0.62256 0.77185 -0.01700
N 	N 	0.21777 0.34889 0.77461 -0.02500
C 	C 	0.21006 0.85573 0.76980 0.06600
O 	O 	0.29083 0.37567 0.78174 -0.06600
O 	O 	0.00345 0.88333 0.79989 -0.35500
H 	H 	0.04619 0.03719 0.79994 0.15200
C 	C 	0.06085 0.76354 0.78766 0.12800
C 	C 	0.08730 0.90695 0.79895 0.30400
O 	O 	0.12793 0.21738 0.79877 -0.33700
C 	C 	0.11244 0.85657 0.78885 -0.07700
C 	C 	0.16681 0.18457 0.79027 0.30500
O 	O 	0.19903 0.13710 0.79627 -0.35900
C 	C 	0.18780 0.90178 0.78014 -0.00300
O 	O 	0.25830 0.67574 0.78046 -0.06300
H 	H 	0.22887 0.97290 0.78132 0.06800
O 	O 	0.04219 0.04662 0.81071 -0.71100
Ni	Ni	0.15797 0.07815 0.81648 1.12500
O 	O 	0.14592 0.96192 0.80882 -0.37700
Ni	Ni	0.01116 0.13568 0.81009 1.12200
Br	Br	0.07880 0.35694 0.82144 -0.21100
O 	O 	0.20175 0.20345 0.82466 -0.35300
H 	H 	0.25040 0.98813 0.83451 0.05800
O 	O 	0.01314 0.89022 0.83132 -0.34400
O 	O 	0.06855 0.18501 0.83064 -0.34500
C 	C 	0.08327 0.94377 0.83919 0.31300
C 	C 	0.15339 0.23002 0.83176 0.32100
C 	C 	0.16543 0.37875 0.83642 0.13700
O 	O 	0.12191 0.02956 0.83708 -0.36600
H 	H 	0.17719 0.50384 0.84273 0.08400
C 	C 	0.13207 0.90645 0.84685 -0.07200
C 	C 	0.19564 0.31823 0.83896 -0.07200
C 	C 	0.20306 0.45936 0.84419 -0.02600
C 	C 	0.21929 0.93686 0.84290 -0.02600
C 	C 	0.09170 0.83842 0.85756 0.12700
C 	C 	0.13902 0.80233 0.86425 -0.02200
C 	C 	0.26884 0.34353 0.84808 -0.02500
C 	C 	0.22665 0.83395 0.86045 -0.07300
C 	C 	0.27397 0.48299 0.85379 -0.07100
Br	Br	0.97417 0.79787 0.86392 -0.15800
H 	H 	0.10845 0.75174 0.87277 0.07600
O 	O 	0.25045 0.55669 0.87457 -0.36100
H 	H 	0.29443 0.29888 0.84965 0.08400
C 	C 	0.26634 0.90069 0.84955 0.13000
O 	O 	0.25504 0.72005 0.86951 -0.37200
C 	C 	0.30273 0.56034 0.86371 0.31900
C 	C 	0.30920 0.42609 0.85523 0.13200
C 	C 	0.27888 0.80483 0.86916 0.32500
O 	O 	0.24690 0.80133 0.70739 -0.09900
O 	O 	0.29892 0.59472 0.71915 -0.36000
O 	O 	0.29927 0.60584 0.65484 -0.36500
Ni	Ni	0.29408 0.67959 0.68746 1.12600
N 	N 	0.28888 0.90235 0.76135 -0.01700
O 	O 	0.32090 0.58822 0.68537 -0.71800
O 	O 	0.28322 0.88122 0.60796 -0.06400
Ni	Ni	0.33977 0.53927 0.70303 1.12500
H 	H 	0.32685 0.64210 0.62715 0.08100
O 	O 	0.34771 0.87831 0.76208 -0.06200
H 	H 	0.40945 0.33292 0.67278 0.09100
O 	O 	0.30402 0.97195 0.75363 -0.07400
O 	O 	0.34055 0.86235 0.87808 -0.35600
O 	O 	0.37759 0.50568 0.66634 -0.36200
O 	O 	0.39173 0.47504 0.69121 -0.35600
Br	Br	0.38403 0.94146 0.84325 -0.19300
O 	O 	0.38404 0.62427 0.86325 -0.34100
O 	O 	0.39450 0.27287 0.63554 -0.07100
C 	C 	0.36486 0.68871 0.65653 0.30100
O 	O 	0.00675 0.30492 0.40659 -0.06300
C 	C 	0.33610 0.52641 0.50142 0.30500
O 	O 	0.37085 0.73567 0.66871 -0.33700
H 	H 	0.38088 0.62147 0.68150 0.17300
C 	C 	0.35240 0.80677 0.50057 0.30900
C 	C 	0.37041 0.80520 0.45928 0.33000
C 	C 	0.35642 0.55772 0.45820 0.32400
C 	C 	0.38237 0.70768 0.62879 0.00000
C 	C 	0.36190 0.40213 0.50885 0.13100
C 	C 	0.34424 0.89802 0.52136 0.12800
N 	N 	0.38414 0.73438 0.60178 -0.01700
N 	N 	0.35854 0.91238 0.61451 -0.01500
O 	O 	0.39638 0.74694 0.70310 -0.33100
O 	O 	0.34497 0.95820 0.34013 -0.06400
H 	H 	0.34344 0.98718 0.53801 0.07900
C 	C 	0.42207 0.49386 0.67718 0.30700
Br	Br	0.41301 0.45991 0.86668 -0.21100
N 	N 	0.35336 0.98822 0.32653 -0.02200
C 	C 	0.37950 0.42713 0.38951 -0.05900
O 	O 	0.39206 0.22833 0.40232 -0.08000
C 	C 	0.36825 0.52915 0.44331 -0.07900
O 	O 	0.36353 0.91859 0.62904 -0.07400
C 	C 	0.36420 0.48240 0.51245 -0.06600
O 	O 	0.45878 0.22737 0.65236 -0.06900
O 	O 	0.39288 0.74390 0.74604 -0.07800
O 	O 	0.43037 0.25113 0.29526 -0.09100
O 	O 	0.38650 0.75345 0.50034 -0.36400
N 	N 	0.44893 0.29042 0.64655 -0.01800
O 	O 	0.39588 0.84069 0.72906 -0.06100
Ni	Ni	0.38893 0.68844 0.48168 1.12700
H 	H 	0.40262 0.30860 0.51525 0.07800
C 	C 	0.40971 0.88543 0.44999 -0.09100
H 	H 	0.43158 0.97232 0.46881 0.07000
C 	C 	0.41720 0.76499 0.61654 0.07400
C 	C 	0.41662 0.73679 0.64323 -0.07200
O 	O 	0.40071 0.64207 0.46175 -0.36000
C 	C 	0.38010 0.97866 0.52907 -0.03000
C 	C 	0.46308 0.38874 0.66729 -0.00400
C 	C 	0.39307 0.88517 0.51021 -0.07200
C 	C 	0.40696 0.41737 0.37527 0.12600
N 	N 	0.39245 0.79659 0.42734 -0.02700
C 	C 	0.40335 0.36947 0.51820 -0.03100
O 	O 	0.43564 0.51084 0.63068 -0.08300
O 	O 	0.39763 0.59160 0.49321 -0.35400
C 	C 	0.40673 0.51142 0.41340 0.03300
O 	O 	0.41423 0.80192 0.47091 -0.36900
O 	O 	0.43732 0.74447 0.59092 -0.07100
H 	H 	0.87926 0.22715 0.21403 0.07800
O 	O 	0.37582 0.95241 0.31588 -0.07100
C 	C 	0.43954 0.96832 0.45684 0.00100
O 	O 	0.45486 0.65262 0.70425 -0.36100
N 	N 	0.42974 0.79544 0.73462 -0.02300
O 	O 	0.43348 0.15432 0.27885 -0.08500
C 	C 	0.41209 0.16902 0.34190 0.30800
H 	H 	0.42943 0.14904 0.42449 0.09200
O 	O 	0.45785 0.14519 0.46336 -0.07600
C 	C 	0.42013 0.88036 0.43445 0.13100
O 	O 	0.42794 0.42072 0.12989 -0.07700
C 	C 	0.42887 0.50578 0.39763 0.03200
H 	H 	0.40385 0.03613 0.59359 0.07700
C 	C 	0.46091 0.73085 0.70661 0.30800
C 	C 	0.49087 0.37652 0.65326 0.07000
C 	C 	0.87563 0.65727 0.10727 0.00000
C 	C 	0.83891 0.56680 0.11038 -0.08000
H 	H 	0.89894 0.70498 0.11636 0.07400
O 	O 	0.83273 0.38154 0.09877 -0.07000
C 	C 	0.46844 0.23376 0.10477 0.00100
C 	C 	0.45635 0.36651 0.10747 0.12800
H 	H 	0.49036 0.18958 0.10896 0.07200
C 	C 	0.84724 0.15800 0.09681 0.02900
N 	N 	0.69890 0.07851 0.08620 -0.01600
H 	H 	0.88880 0.02913 0.09369 0.10000
O 	O 	0.69085 0.00133 0.08340 -0.06600
O 	O 	0.64867 0.10232 0.07940 -0.05900
C 	C 	0.75873 0.13457 0.09745 0.07100
C 	C 	0.82431 0.53643 0.12607 0.29800
C 	C 	0.54648 0.33742 0.12583 0.30900
O 	O 	0.85682 0.48663 0.13099 -0.34200
O 	O 	0.60203 0.42317 0.12767 -0.34900
C 	C 	0.48707 0.31051 0.11283 -0.07800
N 	N 	0.46230 0.43724 0.11657 -0.02200
O 	O 	0.49670 0.51704 0.11116 -0.08300
C 	C 	0.90443 0.21092 0.10803 -0.06700
C 	C 	0.72930 0.16772 0.10903 0.00200
C 	C 	0.87662 0.24712 0.11923 0.13100
H 	H 	0.66128 0.14995 0.10937 0.08000
H 	H 	0.97259 0.22916 0.10747 0.09600
O 	O 	0.97540 0.39506 0.12612 -0.07700
C 	C 	0.75611 0.26254 0.13177 0.30800
O 	O 	0.78390 0.56425 0.13533 -0.35800
O 	O 	0.81086 0.31099 0.14251 -0.36600
O 	O 	0.67091 0.23317 0.13305 -0.36700
O 	O 	0.53048 0.27873 0.13675 -0.36300
H 	H 	0.70697 0.38490 0.13530 0.16100
C 	C 	0.78768 0.22490 0.11993 -0.07300
N 	N 	0.94005 0.31110 0.12918 -0.02300
Ni	Ni	0.67099 0.47705 0.14723 1.12000
Ni	Ni	0.82177 0.42393 0.15106 1.12900
O 	O 	0.70460 0.39043 0.14622 -0.71500
O 	O 	0.97097 0.28523 0.14008 -0.07400
H 	H 	0.90151 0.73127 0.15741 0.07700
Ni	Ni	0.62114 0.27038 0.15019 1.12500
O 	O 	0.55000 0.40741 0.15787 -0.34700
O 	O 	0.86333 0.54647 0.15999 -0.36200
Br	Br	0.92247 0.10275 0.16553 -0.15200
C 	C 	0.90378 0.73115 0.16955 -0.02800
Br	Br	0.00788 0.92004 0.16619 -0.16500
C 	C 	0.52965 0.34334 0.16762 0.32000
C 	C 	0.81701 0.56706 0.16894 0.32500
C 	C 	0.75247 0.28301 0.17281 0.32700
O 	O 	0.68453 0.23041 0.16442 -0.35900
O 	O 	0.57545 0.30285 0.16853 -0.35500
O 	O 	0.73198 0.52675 0.16765 -0.35200
O 	O 	0.78999 0.36944 0.17141 -0.36100
C 	C 	0.83274 0.19963 0.17132 -0.02800
C 	C 	0.88202 0.16564 0.17783 0.13100
H 	H 	0.81823 0.19004 0.15946 0.08700
C 	C 	0.44969 0.31088 0.17662 -0.07400
C 	C 	0.86168 0.65064 0.17737 -0.07800
C 	C 	0.94902 0.81148 0.17731 0.12300
C 	C 	0.93944 0.12959 0.20070 0.32400
C 	C 	0.80136 0.24505 0.18008 -0.07700
C 	C 	0.81842 0.25494 0.19555 0.12800
C 	C 	0.86796 0.22112 0.20205 -0.02800
C 	C 	0.89963 0.17612 0.19327 -0.07600
C 	C 	0.86571 0.65073 0.19310 0.12600
C 	C 	0.95265 0.81159 0.19306 -0.07700
O 	O 	0.88823 0.05523 0.20785 -0.35200
O 	O 	0.95931 0.94610 0.20135 -0.36100
Br	Br	0.76821 0.30706 0.20821 -0.15200
C 	C 	0.45320 0.31040 0.19238 0.12600
C 	C 	0.91144 0.73102 0.20087 -0.03100
Ni	Ni	0.92719 0.98473 0.22054 1.12100
O 	O 	0.72020 0.00839 0.22388 -0.07700
Br	Br	0.56278 0.36374 0.20275 -0.15500
H 	H 	0.91386 0.73087 0.21300 0.08300
Br	Br	0.81027 0.54206 0.20417 -0.15400
O 	O 	0.97263 0.18062 0.23256 -0.37400
O 	O 	0.93474 0.88775 0.23257 -0.36700
C 	C 	0.99091 0.90203 0.24366 0.29900
C 	C 	0.90750 0.11224 0.23968 0.31700
O 	O 	0.89341 0.02982 0.23860 -0.35600
C 	C 	0.84679 0.12892 0.24857 -0.08200
C 	C 	0.75628 0.06902 0.24829 0.13600
N 	N 	0.72020 0.99525 0.23821 -0.03500
O 	O 	0.68042 0.91492 0.24346 -0.08400
O 	O 	0.63641 0.24107 0.25252 -0.06600
C 	C 	0.87120 0.81468 0.26185 0.00300
C 	C 	0.95881 0.84934 0.25767 -0.08300
H 	H 	0.82721 0.82475 0.25472 0.07400
C 	C 	0.70077 0.08360 0.25756 -0.07200
C 	C 	0.87933 0.20666 0.25713 0.00400
H 	H 	0.94824 0.25489 0.25691 0.08000
H 	H 	0.63164 0.03605 0.25769 0.09300
N 	N 	0.66743 0.28112 0.26524 -0.01500
O 	O 	0.70481 0.36705 0.26597 -0.05800
O 	O 	0.98491 0.03614 0.26827 -0.09800
C 	C 	0.83962 0.76617 0.27513 0.06200
N 	N 	0.74910 0.72718 0.27872 -0.01700
O 	O 	0.70044 0.64145 0.27928 -0.07100
O 	O 	0.85583 0.57472 0.27254 -0.06200
C 	C 	0.73433 0.15827 0.26690 0.03300
C 	C 	0.82390 0.22113 0.26642 0.06800
C 	C 	0.67868 0.16327 0.27872 0.02900
N 	N 	0.85917 0.29860 0.27567 -0.01600
C 	C 	0.65612 0.23052 0.27855 0.07200
O 	O 	0.89570 0.37671 0.26955 -0.05900
C 	C 	0.98504 0.79323 0.28099 -0.08600
C 	C 	0.89679 0.75496 0.28473 0.03400
N 	N 	0.89263 0.58680 0.28561 -0.01800
O 	O 	0.71396 0.77710 0.28024 -0.07700
O 	O 	0.95384 0.56699 0.28763 -0.06700
C 	C 	0.62506 0.24986 0.29166 0.00700
C 	C 	0.66038 0.10957 0.29137 -0.06900
H 	H 	0.61220 0.30469 0.29177 0.08100
O 	O 	0.86172 0.29135 0.29013 -0.07200
C 	C 	0.86312 0.69633 0.29796 0.02600
C 	C 	0.86035 0.61385 0.29807 0.06600
H 	H 	0.81832 0.49187 0.30999 0.08000
C 	C 	0.61536 0.20186 0.30483 -0.07900
C 	C 	0.63053 0.12922 0.30452 0.13300
H 	H 	0.67527 0.05610 0.29133 0.09200
C 	C 	0.60365 0.23609 0.31921 0.32500
O 	O 	0.54238 0.25767 0.32070 -0.35800
C 	C 	0.82242 0.55622 0.31017 0.00500
C 	C 	0.78313 0.57783 0.32184 -0.08300
C 	C 	0.79001 0.66225 0.32213 0.13100
C 	C 	0.83124 0.72159 0.31031 -0.06800
H 	H 	0.83505 0.78578 0.31042 0.09000
N 	N 	0.62238 0.07976 0.31785 -0.02500
C 	C 	0.72160 0.50657 0.33174 0.33200
Ni	Ni	0.54927 0.35009 0.33572 1.12800
O 	O 	0.66164 0.43278 0.32565 -0.37800
O 	O 	0.64964 0.23743 0.33075 -0.34900
N 	N 	0.75153 0.68628 0.33402 -0.02300
O 	O 	0.66742 0.65233 0.33459 -0.07100
O 	O 	0.68584 0.06697 0.32201 -0.07300
O 	O 	0.55064 0.04506 0.32556 -0.07900
O 	O 	0.54017 0.44707 0.34727 -0.34800
O 	O 	0.46867 0.14007 0.34426 -0.32700
O 	O 	0.43523 0.25338 0.34368 -0.36000
O 	O 	0.72397 0.51924 0.34630 -0.35400
O 	O 	0.80091 0.74761 0.34351 -0.07000
O 	O 	0.95722 0.52195 0.34840 -0.06400
C 	C 	0.78975 0.33480 0.35846 0.32500
C 	C 	0.54365 0.45537 0.36217 0.30700
Ni	Ni	0.59924 0.21378 0.35213 1.12300
Ni	Ni	0.69064 0.42182 0.36161 1.12800
O 	O 	0.60706 0.45561 0.37013 -0.36200
O 	O 	0.72541 0.25322 0.36005 -0.34800
O 	O 	0.77326 0.39065 0.35163 -0.36900
O 	O 	0.59692 0.32143 0.35241 -0.71600
H 	H 	0.55115 0.30772 0.35991 0.17300
C 	C 	0.52829 0.56692 0.37661 0.00300
C 	C 	0.48793 0.48314 0.36979 -0.07200
H 	H 	0.58737 0.62033 0.37182 0.08300
C 	C 	0.86199 0.37057 0.36955 -0.08800
C 	C 	0.90829 0.46258 0.37262 0.11300
N 	N 	0.92324 0.52589 0.36110 -0.02600
O 	O 	0.90779 0.59055 0.36363 -0.09700
C 	C 	0.61089 0.26979 0.38430 0.30500
O 	O 	0.56627 0.20504 0.37452 -0.35000
O 	O 	0.68033 0.34629 0.38018 -0.36100
C 	C 	0.49996 0.57831 0.39067 0.06900
C 	C 	0.94269 0.49220 0.38690 -0.06800
C 	C 	0.87065 0.31267 0.37948 0.00300
H 	H 	0.84037 0.24267 0.37687 0.07900
N 	N 	0.54526 0.66244 0.39807 -0.01700
O 	O 	0.62922 0.70099 0.39989 -0.07200
O 	O 	0.50327 0.70256 0.40228 -0.06000
C 	C 	0.94881 0.43430 0.39709 0.03100
C 	C 	0.91601 0.34459 0.39304 0.06000
O 	O 	0.51830 0.35695 0.40040 -0.09200
N 	N 	0.92853 0.28591 0.40266 -0.01900
O 	O 	0.86235 0.21041 0.40654 -0.07300
C 	C 	0.65175 0.21199 0.40614 -0.00300
C 	C 	0.60036 0.24528 0.40017 -0.07800
C 	C 	0.52360 0.22859 0.40767 0.12200
H 	H 	0.71278 0.22771 0.40080 0.07000
N 	N 	0.47668 0.27226 0.40308 -0.02500
H 	H 	0.46854 0.95436 0.41397 0.09300
C 	C 	0.46347 0.51735 0.42491 -0.06600
C 	C 	0.44487 0.52675 0.43987 0.13400
N 	N 	0.50442 0.53501 0.45148 -0.02600
H 	H 	0.52236 0.51549 0.42224 0.09500
O 	O 	0.58706 0.59158 0.45011 -0.06900
C 	C 	0.94390 0.43240 0.42503 -0.06700
H 	H 	0.87615 0.38086 0.42442 0.09100
C 	C 	0.49126 0.16623 0.41931 -0.06600
C 	C 	0.53635 0.12254 0.42368 0.02900
C 	C 	0.61952 0.14959 0.41772 0.06600
C 	C 	0.49172 0.04125 0.43283 0.03300
N 	N 	0.66831 0.10875 0.42260 -0.01700
C 	C 	0.46022 0.95824 0.42593 -0.07300
O 	O 	0.68260 0.05917 0.41342 -0.06800
O 	O 	0.69671 0.11941 0.43630 -0.06200
O 	O 	0.42486 0.74733 0.43159 -0.07200
N 	N 	0.93527 0.42191 0.45239 -0.02400
O 	O 	0.47685 0.48237 0.46300 -0.06100
O 	O 	0.86622 0.42765 0.45535 -0.06200
C 	C 	0.48071 0.04620 0.44836 0.06500
N 	N 	0.51133 0.13017 0.45556 -0.01700
O 	O 	0.59381 0.18883 0.45532 -0.06400
O 	O 	0.95573 0.37438 0.46092 -0.07100
C 	C 	0.93770 0.53297 0.50372 0.13600
C 	C 	0.44774 0.41636 0.53107 -0.06700
C 	C 	0.40561 0.52729 0.52567 -0.03200
H 	H 	0.40749 0.58885 0.52852 0.07900
C 	C 	0.46456 0.04692 0.52573 -0.06600
C 	C 	0.51224 0.03491 0.51424 0.12900
C 	C 	0.47677 0.95394 0.50668 -0.03000
H 	H 	0.51322 0.94540 0.49769 0.07700
Br	Br	0.62428 0.12975 0.50829 -0.18200
C 	C 	0.86639 0.50026 0.51350 -0.02800
C 	C 	0.85553 0.43869 0.52460 -0.06200
C 	C 	0.91790 0.41064 0.52603 0.13300
H 	H 	0.81792 0.52060 0.51212 0.08300
C 	C 	0.50745 0.12308 0.53589 0.30600
C 	C 	0.77677 0.40025 0.53409 0.30400
C 	C 	0.49599 0.38429 0.54023 0.30300
O 	O 	0.57527 0.13172 0.54382 -0.33600
O 	O 	0.46557 0.16664 0.53944 -0.36500
O 	O 	0.45160 0.32106 0.55035 -0.35500
O 	O 	0.58266 0.43204 0.54039 -0.35600
O 	O 	0.72737 0.31304 0.53450 -0.33900
O 	O 	0.76126 0.45427 0.54275 -0.34700
H 	H 	0.59620 0.30109 0.54214 0.16800
C 	C 	0.44684 0.49449 0.53502 0.13100
Br	Br	0.90705 0.32653 0.54100 -0.19500
Ni	Ni	0.67281 0.24703 0.55422 1.12600
Ni	Ni	0.65648 0.42352 0.55676 1.12900
Ni	Ni	0.48464 0.23268 0.55903 1.12500
O 	O 	0.57203 0.42342 0.57195 -0.35900
O 	O 	0.78518 0.34684 0.56437 -0.34900
O 	O 	0.48408 0.12491 0.56829 -0.36500
O 	O 	0.60369 0.30034 0.55307 -0.72300
O 	O 	0.88225 0.60644 0.57522 -0.07800
O 	O 	0.65894 0.04561 0.56518 -0.08900
Br	Br	0.50082 0.55692 0.55319 -0.18700
C 	C 	0.78423 0.40014 0.57468 0.33300
C 	C 	0.54697 0.12927 0.57676 0.33300
C 	C 	0.54231 0.36543 0.58294 0.32000
O 	O 	0.72208 0.42009 0.57500 -0.36700
O 	O 	0.62675 0.19415 0.57513 -0.35100
O 	O 	0.49722 0.28031 0.57996 -0.35900
N 	N 	0.85141 0.57372 0.58836 -0.02300
N 	N 	0.66663 0.06057 0.57953 -0.02600
C 	C 	0.55596 0.39604 0.59870 -0.07900
H 	H 	0.51148 0.48994 0.59504 0.08300
C 	C 	0.87434 0.37201 0.59287 0.00700
C 	C 	0.84737 0.42968 0.58710 -0.08000
C 	C 	0.86914 0.50894 0.59483 0.13100
H 	H 	0.85851 0.31132 0.58696 0.08500
O 	O 	0.80770 0.60284 0.59588 -0.08100
C 	C 	0.57530 0.96068 0.59933 -0.07600
C 	C 	0.45138 0.01459 0.59505 0.01400
C 	C 	0.52919 0.05511 0.58687 -0.08400
C 	C 	0.59057 0.02617 0.58875 0.13700
O 	O 	0.74359 0.10104 0.58563 -0.07400
H 	H 	0.62252 0.93871 0.60079 0.09300
N 	N 	0.94646 0.33158 0.61224 -0.01500
O 	O 	0.88984 0.24847 0.61436 -0.07000
C 	C 	0.91867 0.39059 0.60658 0.06900
C 	C 	0.93518 0.46698 0.61471 0.02700
C 	C 	0.59874 0.38780 0.62431 -0.06800
C 	C 	0.56813 0.44404 0.62911 0.03000
C 	C 	0.53813 0.48264 0.61841 0.06500
C 	C 	0.53498 0.46058 0.60320 0.00300
C 	C 	0.58758 0.35908 0.60942 0.12900
N 	N 	0.50734 0.54118 0.62302 -0.01600
N 	N 	0.59820 0.28519 0.60570 -0.02300
H 	H 	0.62313 0.35914 0.63245 0.09000
O 	O 	0.53342 0.20558 0.60774 -0.07800
O 	O 	0.67610 0.29691 0.60384 -0.08600
O 	O 	0.54678 0.62291 0.61843 -0.08000
C 	C 	0.90950 0.52515 0.60883 -0.06700
H 	H 	0.92399 0.58498 0.61491 0.09100
C 	C 	0.49858 0.92208 0.60779 0.03500
C 	C 	0.43644 0.94958 0.60570 0.06300
C 	C 	0.48344 0.85305 0.61888 0.02700
C 	C 	0.52567 0.87779 0.63277 -0.06600
H 	H 	0.58077 0.94378 0.63431 0.09000
C 	C 	0.94899 0.44181 0.64179 -0.07700
H 	H 	0.88386 0.38491 0.64146 0.09300
C 	C 	0.55448 0.45070 0.64533 0.02400
C 	C 	0.59844 0.53303 0.65262 -0.06200
H 	H 	0.65297 0.58845 0.64718 0.09100
C 	C 	0.49405 0.81917 0.64490 0.12800
N 	N 	0.95662 0.41589 0.66860 -0.02600
O 	O 	0.92281 0.33022 0.66837 -0.06900
C 	C 	0.49030 0.47468 0.67245 -0.06800
C 	C 	0.56773 0.54476 0.66650 0.12000
O 	O 	0.66282 0.70060 0.66656 -0.07000
N 	N 	0.53993 0.84370 0.65890 -0.02200
O 	O 	0.55711 0.78843 0.66585 -0.07700
O 	O 	0.56705 0.92238 0.66444 -0.07100
O 	O 	0.95091 0.45479 0.68066 -0.06300
N 	N 	0.61128 0.62912 0.67399 -0.02400
H 	H 	0.63295 0.80441 0.70103 0.08800
O 	O 	0.60376 0.63362 0.68841 -0.07800
C 	C 	0.61899 0.81947 0.71213 -0.00200
N 	N 	0.77394 0.88608 0.71839 -0.01800
O 	O 	0.79203 0.82728 0.71312 -0.06600
O 	O 	0.83387 0.96916 0.71869 -0.05900
N 	N 	0.98022 0.20201 0.73090 -0.01000
C 	C 	0.68657 0.86048 0.72265 0.07000
C 	C 	0.53306 0.79495 0.71607 -0.07300
O 	O 	0.74191 0.07377 0.73633 -0.05500
O 	O 	0.99908 0.99401 0.73545 -0.06300
O 	O 	0.95912 0.26380 0.73151 -0.06800
C 	C 	0.66779 0.87589 0.73733 0.02500
N 	N 	0.72719 0.04931 0.75028 -0.01100
C 	C 	0.51596 0.81683 0.73043 0.12700
C 	C 	0.58288 0.85543 0.74101 -0.06600
O 	O 	0.93724 0.13056 0.73886 -0.06300
C 	C 	0.77008 0.85984 0.75459 -0.07000
C 	C 	0.73602 0.91206 0.74904 0.03900
C 	C 	0.75669 0.99226 0.75628 0.04700
H 	H 	0.75519 0.79855 0.74899 0.09400
H 	H 	0.56848 0.86856 0.75222 0.09300
O 	O 	0.68880 0.07973 0.75893 -0.06900
C 	C 	0.80522 0.01582 0.76955 0.02700
C 	C 	0.83720 0.96241 0.77536 -0.09100
C 	C 	0.82171 0.88544 0.76757 0.13000
H 	H 	0.81881 0.07638 0.77528 0.07600
N 	N 	0.86064 0.83486 0.77248 -0.02700
O 	O 	0.93761 0.85444 0.76770 -0.07500
O 	O 	0.81646 0.76507 0.78075 -0.07200
N 	N 	0.99018 0.71467 0.79779 -0.01500
C 	C 	0.89244 0.99197 0.78888 0.29600
O 	O 	0.94626 0.07826 0.79040 -0.34600
O 	O 	0.87051 0.93704 0.80060 -0.35400
O 	O 	0.91300 0.65992 0.79261 -0.06100
O 	O 	0.00457 0.71929 0.81214 -0.07700
Ni	Ni	0.95526 0.92942 0.81567 1.12900
O 	O 	0.88750 0.07317 0.81994 -0.34000
Br	Br	0.54527 0.72348 0.83353 -0.17300
H 	H 	0.72446 0.85013 0.82336 0.06800
C 	C 	0.86171 0.00946 0.82991 0.35500
O 	O 	0.90818 0.97114 0.83255 -0.37300
C 	C 	0.71026 0.88463 0.83207 -0.00800
C 	C 	0.77346 0.97071 0.83624 -0.11400
C 	C 	0.62989 0.84171 0.83943 0.11800
C 	C 	0.54480 0.83184 0.86227 0.31400
O 	O 	0.48317 0.85120 0.86522 -0.35400
C 	C 	0.75315 0.01665 0.84706 0.17300
C 	C 	0.67258 0.97355 0.85444 -0.06700
C 	C 	0.61257 0.88454 0.85122 -0.05100
H 	H 	0.65913 0.00738 0.86336 0.09600
Br	Br	0.83644 0.13608 0.85258 -0.17200
O 	O 	0.55543 0.77607 0.87073 -0.33900
Ni	Ni	0.26814 0.66048 0.88784 1.12500
Ni	Ni	0.45614 0.67260 0.88271 1.12600
Ni	Ni	0.44078 0.85054 0.88640 1.12500
O 	O 	0.39134 0.72588 0.88868 -0.71700
H 	H 	0.26718 0.37545 0.89581 0.08100
O 	O 	0.37174 0.55382 0.89373 -0.34400
O 	O 	0.55638 0.86992 0.89488 -0.36500
O 	O 	0.15362 0.19310 0.89894 -0.07500
O 	O 	0.25643 0.74517 0.90229 -0.35700
H 	H 	0.39763 0.72313 0.89958 0.15200
O 	O 	0.53497 0.73180 0.90135 -0.33500
C 	C 	0.26272 0.38113 0.90783 0.00100
O 	O 	0.27229 0.58654 0.90505 -0.35900
C 	C 	0.31546 0.54190 0.90459 0.30800
O 	O 	0.23940 0.91850 0.90926 -0.06900
O 	O 	0.39768 0.85761 0.90690 -0.36900
C 	C 	0.56234 0.81604 0.90474 0.30300
O 	O 	0.73184 0.80682 0.90617 -0.06500
N 	N 	0.20850 0.22167 0.91005 -0.01700
O 	O 	0.24551 0.17669 0.91431 -0.06000
C 	C 	0.28591 0.46371 0.91427 -0.07800
C 	C 	0.31876 0.79908 0.91175 0.30500
O 	O 	0.10915 0.81453 0.91806 -0.07500
N 	N 	0.19376 0.85525 0.91870 -0.02400
C 	C 	0.23283 0.30555 0.91683 0.06600
C 	C 	0.60061 0.85093 0.91958 -0.08300
H 	H 	0.53798 0.92995 0.92162 0.06800
N 	N 	0.68787 0.77572 0.91850 -0.02300
C 	C 	0.29570 0.80631 0.92734 -0.08000
O 	O 	0.67840 0.70252 0.92415 -0.06300
C 	C 	0.57789 0.90736 0.92713 -0.00800
C 	C 	0.65680 0.82592 0.92652 0.13300
H 	H 	0.05801 0.18117 0.93297 0.09100
C 	C 	0.22582 0.31254 0.93243 0.03000
C 	C 	0.27984 0.47067 0.92987 0.12700
N 	N 	0.30491 0.55444 0.93663 -0.02400
C 	C 	0.23625 0.83585 0.93055 0.12900
H 	H 	0.38440 0.76747 0.93667 0.07300
C 	C 	0.09699 0.17625 0.94190 -0.06500
C 	C 	0.18740 0.23286 0.94202 0.02900
C 	C 	0.24959 0.39521 0.93886 -0.06800
O 	O 	0.24589 0.57038 0.94210 -0.08000
O 	O 	0.37333 0.27619 0.94049 -0.05800
C 	C 	0.33776 0.78899 0.93912 -0.00000
O 	O 	0.38687 0.61406 0.93762 -0.08000
C 	C 	0.60468 0.93337 0.94190 0.06000
C 	C 	0.68555 0.85372 0.94119 -0.06800
H 	H 	0.17593 0.87323 0.94789 0.08700
C 	C 	0.22042 0.84886 0.94546 -0.06700
H 	H 	0.72990 0.83566 0.94642 0.09600
O 	O 	0.58357 0.05772 0.94279 -0.05800
C 	C 	0.05600 0.11772 0.95382 0.12000
C 	C 	0.23831 0.22198 0.95305 0.07000
H 	H 	0.24390 0.40072 0.95085 0.09100
N 	N 	0.33146 0.27379 0.95262 -0.01600
C 	C 	0.32030 0.79992 0.95407 0.07200
C 	C 	0.65837 0.90577 0.94906 0.03500
N 	N 	0.57817 0.98882 0.94951 -0.02700
N 	N 	0.96334 0.06202 0.95370 -0.00900
O 	O 	0.92952 0.97635 0.95364 -0.09500
O 	O 	0.91389 0.09638 0.95116 -0.08100
C 	C 	0.19730 0.16373 0.96499 -0.00300
C 	C 	0.10616 0.11737 0.96611 -0.07200
C 	C 	0.26360 0.83301 0.95724 0.02500
O 	O 	0.37465 0.31570 0.96454 -0.06700
O 	O 	0.32146 0.07290 0.96359 -0.07600
O 	O 	0.34536 0.69357 0.96624 -0.06000
N 	N 	0.35706 0.77354 0.96596 -0.01700
N 	N 	0.34149 0.01379 0.96791 -0.01000
O 	O 	0.41499 0.02049 0.96376 -0.04800
H 	H 	0.74777 0.07389 0.95966 0.10200
C 	C 	0.74041 0.02482 0.96788 -0.05100
C 	C 	0.68973 0.93426 0.96456 0.02000
O 	O 	0.53626 0.75347 0.96865 -0.05900
O 	O 	0.54524 0.96842 0.96289 -0.06900
H 	H 	0.23632 0.16032 0.97406 0.07500
C 	C 	0.25069 0.85365 0.97279 0.03200
N 	N 	0.61498 0.77902 0.97329 -0.01700
H 	H 	0.17598 0.71664 0.97952 0.09400
C 	C 	0.06716 0.09188 0.98112 0.28800
C 	C 	0.28330 0.94226 0.97735 0.05900
O 	O 	0.40028 0.82853 0.97672 -0.06500
O 	O 	0.87628 0.20436 0.97640 -0.06700
C 	C 	0.67482 0.87122 0.97577 0.06200
O 	O 	0.63819 0.72032 0.97619 -0.07600
O 	O 	0.04393 0.66166 0.99993 -0.07700
C 	C 	0.19706 0.78476 0.98254 -0.06800
O 	O 	0.99331 0.01509 0.98295 -0.33200
C 	C 	0.78298 0.05221 0.98169 0.16000
N 	N 	0.82469 0.14394 0.98580 -0.02400
C 	C 	0.25302 0.96033 0.99066 -0.02300
O 	O 	0.09676 0.15404 0.99169 -0.34900
H 	H 	0.27288 0.02839 0.99355 0.08300
C 	C 	0.72110 0.89881 0.98928 0.00900
C 	C 	0.78244 0.98862 0.99158 -0.12800
H 	H 	0.71322 0.84983 0.99756 0.07700
O 	O 	0.05991 0.90453 0.99499 -0.37500
C 	C 	0.16649 0.80352 0.99578 0.12700
C 	C 	0.18618 0.89108 0.99880 -0.07300
O 	O 	0.80765 0.16728 0.99865 -0.06100
