data_crystal

_cell_length_a 36.25345
_cell_length_b 36.11011
_cell_length_c 26.10418
_cell_angle_alpha 90.00191
_cell_angle_beta  89.99664
_cell_angle_gamma 89.99460

_symmetry_space_group_name_	'P 1'
_symmetry_space_group_name_H-M	'P 1'

loop_
_symmetry_equiv_pos_as_xyz
  x,y,z

loop_
_atom_site_label
_atom_site_type_symbol
_atom_site_fract_x
_atom_site_fract_y
_atom_site_fract_z
_atom_site_charge
Ni	Ni	0.59173 0.06739 0.65282 1.10400
O 	O 	0.61121 0.09784 0.71259 -0.70600
Ni	Ni	0.56438 0.11236 0.74662 1.10100
O 	O 	0.63894 0.07296 0.61009 -0.37000
O 	O 	0.63503 0.13579 0.61807 -0.41400
O 	O 	0.61171 0.01879 0.68489 -0.36500
Ni	Ni	0.63732 0.14396 0.69686 1.07100
O 	O 	0.53688 0.00060 0.65544 -0.40600
O 	O 	0.59946 0.18722 0.69639 -0.39400
O 	O 	0.58471 0.15149 0.79691 -0.38000
O 	O 	0.54521 0.07696 0.69239 -0.70100
O 	O 	0.56851 0.03628 0.59743 -0.37300
O 	O 	0.51292 0.11546 0.77818 -0.37500
O 	O 	0.50828 0.05259 0.79118 -0.40400
Ni	Ni	0.52544 0.03137 0.71994 1.06700
H 	H 	0.62610 0.08251 0.73624 0.16400
H 	H 	0.52658 0.08859 0.66981 0.16200
C 	C 	0.56360 0.18323 0.69091 0.31300
O 	O 	0.57397 0.01990 0.75506 -0.42000
C 	C 	0.65040 0.10628 0.59739 0.27400
C 	C 	0.62030 0.15663 0.80731 0.28700
C 	C 	0.60219 0.00612 0.73045 0.29300
C 	C 	0.49775 0.08701 0.80150 0.27700
C 	C 	0.54016 0.01511 0.60883 0.27800
O 	O 	0.54839 0.15080 0.69437 -0.40400
O 	O 	0.64646 0.15098 0.77270 -0.41100
Ni	Ni	0.43159 0.85653 0.30941 1.09800
O 	O 	0.45267 0.89479 0.35824 -0.70400
Ni	Ni	0.40769 0.90693 0.39970 1.10300
O 	O 	0.48184 0.85157 0.27408 -0.37900
O 	O 	0.48488 0.91367 0.25496 -0.40700
O 	O 	0.44780 0.82042 0.36462 -0.40800
Ni	Ni	0.47169 0.93878 0.32518 1.06600
O 	O 	0.34876 0.81513 0.29343 -0.41000
O 	O 	0.42195 0.95002 0.29241 -0.41900
O 	O 	0.43305 0.94047 0.45045 -0.37300
O 	O 	0.38585 0.87335 0.34467 -0.70400
O 	O 	0.40977 0.81444 0.26567 -0.38800
O 	O 	0.36166 0.90562 0.44517 -0.37000
O 	O 	0.36198 0.84233 0.44492 -0.41300
Ni	Ni	0.35973 0.82847 0.36741 1.07000
H 	H 	0.47195 0.88414 0.38070 0.16100
H 	H 	0.37034 0.88751 0.32039 0.16000
C 	C 	0.39475 0.96491 0.31794 0.29500
O 	O 	0.39668 0.78481 0.37311 -0.39300
C 	C 	0.49655 0.87926 0.24822 0.27600
C 	C 	0.46144 0.96033 0.43541 0.27800
C 	C 	0.43273 0.78793 0.36884 0.31200
C 	C 	0.34810 0.87398 0.46138 0.27400
C 	C 	0.37400 0.80907 0.25752 0.28800
O 	O 	0.38696 0.95413 0.36494 -0.36700
O 	O 	0.46344 0.97269 0.38750 -0.40700
Ni	Ni	0.66076 0.81617 0.90534 1.09800
O 	O 	0.63640 0.84020 0.96679 -0.71600
Ni	Ni	0.63062 0.79659 0.01278 1.10200
O 	O 	0.66174 0.86562 0.86683 -0.36800
O 	O 	0.59924 0.87250 0.87450 -0.40800
O 	O 	0.71251 0.82898 0.93398 -0.36200
Ni	Ni	0.58682 0.85739 0.95006 1.06100
O 	O 	0.72457 0.76122 0.89492 -0.41000
O 	O 	0.56984 0.80740 0.92115 -0.41500
O 	O 	0.60873 0.82579 0.07192 -0.37500
O 	O 	0.65057 0.77071 0.94859 -0.70500
O 	O 	0.68315 0.79062 0.84370 -0.38400
O 	O 	0.63804 0.75379 0.06327 -0.36600
O 	O 	0.68141 0.71659 0.02595 -0.40100
Ni	Ni	0.69763 0.74519 0.96008 1.06500
H 	H 	0.65154 0.85991 0.98271 0.15600
H 	H 	0.63263 0.75419 0.93166 0.15800
C 	C 	0.56285 0.77905 0.95102 0.28800
O 	O 	0.71653 0.78871 0.00185 -0.40800
C 	C 	0.63158 0.88499 0.85884 0.27600
C 	C 	0.57920 0.84659 0.06505 0.28100
C 	C 	0.72361 0.82116 0.98108 0.25700
C 	C 	0.65008 0.72057 0.05125 0.28800
C 	C 	0.70785 0.76467 0.85034 0.28600
O 	O 	0.57857 0.77665 0.99635 -0.37200
O 	O 	0.56234 0.84735 0.01979 -0.40600
Ni	Ni	0.86714 0.67129 0.54849 1.09800
O 	O 	0.82695 0.68692 0.59814 -0.70200
Ni	Ni	0.81869 0.63915 0.63538 1.10300
O 	O 	0.86700 0.72330 0.51851 -0.38300
O 	O 	0.80564 0.72170 0.49669 -0.40500
O 	O 	0.90102 0.68927 0.60534 -0.40700
Ni	Ni	0.78197 0.70380 0.56581 1.06700
O 	O 	0.91602 0.59305 0.52721 -0.41200
O 	O 	0.77581 0.65443 0.52944 -0.42000
O 	O 	0.78230 0.65910 0.68719 -0.37400
O 	O 	0.85464 0.62281 0.57981 -0.70600
O 	O 	0.91104 0.65500 0.50334 -0.38200
O 	O 	0.82549 0.59209 0.67776 -0.37600
O 	O 	0.88797 0.60094 0.67950 -0.41400
Ni	Ni	0.90149 0.60048 0.60174 1.06800
H 	H 	0.83562 0.70603 0.62252 0.15900
H 	H 	0.84239 0.60691 0.55402 0.15900
C 	C 	0.76187 0.62562 0.55250 0.29400
O 	O 	0.94130 0.64128 0.60900 -0.39200
C 	C 	0.83949 0.73463 0.48976 0.28200
C 	C 	0.75970 0.68607 0.67420 0.27600
C 	C 	0.93454 0.67707 0.61018 0.31200
C 	C 	0.85808 0.58410 0.69685 0.27100
C 	C 	0.91923 0.61989 0.49258 0.28400
O 	O 	0.77466 0.61472 0.59737 -0.36700
O 	O 	0.74822 0.68958 0.62607 -0.40500
Ni	Ni	0.05418 0.09390 0.77305 1.10200
O 	O 	0.02672 0.08251 0.84031 -0.70000
Ni	Ni	0.07121 0.07619 0.88550 1.09900
O 	O 	0.01417 0.07505 0.72481 -0.37800
O 	O 	0.96817 0.05184 0.77507 -0.40300
O 	O 	0.03217 0.14642 0.77491 -0.37900
Ni	Ni	0.00014 0.03551 0.83747 1.07100
O 	O 	0.10261 0.16304 0.75139 -0.39800
O 	O 	0.04329 0.01579 0.79587 -0.41800
O 	O 	0.04552 0.05682 0.94947 -0.38500
O 	O 	0.09597 0.09606 0.82130 -0.71500
O 	O 	0.08417 0.10936 0.71072 -0.37700
O 	O 	0.11980 0.08028 0.92460 -0.36900
O 	O 	0.12557 0.14168 0.90385 -0.40700
Ni	Ni	0.11069 0.14770 0.82669 1.06600
H 	H 	0.01047 0.10251 0.85297 0.15600
H 	H 	0.11663 0.08027 0.80952 0.15900
C 	C 	0.07515 0.00788 0.81773 0.26700
O 	O 	0.05987 0.16709 0.84816 -0.40600
C 	C 	0.97940 0.07376 0.73789 0.30000
C 	C 	0.02241 0.02908 0.94580 0.29100
C 	C 	0.03160 0.16719 0.81642 0.28000
C 	C 	0.13961 0.11079 0.92306 0.27800
C 	C 	0.10306 0.14073 0.71072 0.27900
O 	O 	0.08474 0.02287 0.86235 -0.36400
O 	O 	0.01931 0.01109 0.90230 -0.41300
Ni	Ni	0.90576 0.89936 0.15764 1.09700
O 	O 	0.88513 0.86748 0.21482 -0.71200
Ni	Ni	0.93024 0.85942 0.25738 1.10000
O 	O 	0.85602 0.89990 0.11936 -0.36600
O 	O 	0.85412 0.83677 0.11722 -0.40900
O 	O 	0.88890 0.94671 0.19649 -0.36600
Ni	Ni	0.86943 0.81882 0.19002 1.06500
O 	O 	0.95542 0.96746 0.16179 -0.41300
O 	O 	0.91886 0.80527 0.15689 -0.40900
O 	O 	0.90396 0.83137 0.31362 -0.37500
O 	O 	0.95292 0.88720 0.19651 -0.69800
O 	O 	0.92870 0.93082 0.10168 -0.38100
O 	O 	0.97632 0.86036 0.30242 -0.36400
O 	O 	0.00610 0.91323 0.27936 -0.40400
Ni	Ni	0.97498 0.93441 0.21875 1.06600
H 	H 	0.86540 0.87995 0.23459 0.15700
H 	H 	0.97020 0.87219 0.17576 0.15800
C 	C 	0.94798 0.79761 0.18455 0.29100
O 	O 	0.93016 0.94400 0.26333 -0.43400
C 	C 	0.83860 0.86898 0.10782 0.27900
C 	C 	0.88117 0.80418 0.30237 0.28100
C 	C 	0.89924 0.95649 0.24338 0.28100
C 	C 	0.99381 0.89072 0.31524 0.28500
C 	C 	0.95301 0.95604 0.11418 0.28900
O 	O 	0.95028 0.80937 0.23191 -0.36500
O 	O 	0.88060 0.78971 0.25566 -0.40600
Ni	Ni	0.11683 0.80183 0.55398 1.09900
O 	O 	0.15422 0.78096 0.60459 -0.70200
Ni	Ni	0.16095 0.82459 0.65111 1.10300
O 	O 	0.11778 0.75344 0.51346 -0.37400
O 	O 	0.18031 0.75653 0.50101 -0.40800
O 	O 	0.07962 0.77820 0.60238 -0.40300
Ni	Ni	0.20102 0.76766 0.57406 1.06800
O 	O 	0.06942 0.88213 0.54296 -0.41100
O 	O 	0.20768 0.81991 0.54709 -0.42100
O 	O 	0.19460 0.79933 0.70192 -0.37900
O 	O 	0.12787 0.84659 0.59558 -0.70400
O 	O 	0.07569 0.82318 0.50792 -0.38400
O 	O 	0.15335 0.86758 0.70110 -0.37100
O 	O 	0.09110 0.86073 0.69394 -0.41500
Ni	Ni	0.08006 0.86729 0.61637 1.07200
H 	H 	0.14437 0.75967 0.62418 0.15900
H 	H 	0.14147 0.86473 0.57433 0.16100
C 	C 	0.22078 0.84605 0.57622 0.29500
O 	O 	0.04003 0.82638 0.61406 -0.39200
C 	C 	0.14790 0.74175 0.49043 0.28100
C 	C 	0.22005 0.77600 0.68595 0.28100
C 	C 	0.04620 0.79070 0.60785 0.30900
C 	C 	0.11984 0.87743 0.71444 0.27900
C 	C 	0.06745 0.85899 0.50357 0.28700
O 	O 	0.20693 0.85184 0.62221 -0.36600
O 	O 	0.23244 0.77751 0.63812 -0.40500
Ni	Ni	0.33911 0.65154 0.90393 1.09700
O 	O 	0.36294 0.62419 0.96304 -0.71400
Ni	Ni	0.37289 0.66596 0.01125 1.10100
O 	O 	0.33291 0.60373 0.86280 -0.36800
O 	O 	0.39444 0.59121 0.86818 -0.41400
O 	O 	0.28761 0.64156 0.93542 -0.36400
Ni	Ni	0.41058 0.60305 0.94316 1.06300
O 	O 	0.27846 0.70963 0.90091 -0.40800
O 	O 	0.43437 0.65172 0.91801 -0.41000
O 	O 	0.39220 0.63341 0.06875 -0.36900
O 	O 	0.35448 0.69478 0.94831 -0.70300
O 	O 	0.31678 0.68044 0.84525 -0.38900
O 	O 	0.37444 0.71025 0.06045 -0.36100
O 	O 	0.33152 0.75010 0.02696 -0.39800
Ni	Ni	0.30950 0.72294 0.96356 1.06700
H 	H 	0.34658 0.60531 0.97857 0.15800
H 	H 	0.37308 0.70991 0.93032 0.16100
C 	C 	0.44062 0.67947 0.94946 0.28300
O 	O 	0.28971 0.67994 0.00547 -0.42100
C 	C 	0.36064 0.58088 0.85628 0.28000
C 	C 	0.41418 0.60533 0.05756 0.27700
C 	C 	0.27845 0.64916 0.98340 0.26100
C 	C 	0.34814 0.73498 0.06681 0.28800
C 	C 	0.29253 0.70631 0.85463 0.29200
O 	O 	0.42686 0.67874 0.99573 -0.36500
O 	O 	0.43366 0.60590 0.01452 -0.40000
Ni	Ni	0.15705 0.32502 0.38945 1.09900
O 	O 	0.13051 0.34688 0.45067 -0.71500
Ni	Ni	0.12561 0.30223 0.49414 1.10300
O 	O 	0.15759 0.37602 0.35407 -0.36200
O 	O 	0.09482 0.38007 0.36055 -0.40900
O 	O 	0.20758 0.33551 0.42440 -0.36200
Ni	Ni	0.08093 0.36363 0.43469 1.06500
O 	O 	0.22025 0.26938 0.38111 -0.41300
O 	O 	0.06410 0.31387 0.40502 -0.41400
O 	O 	0.10421 0.32992 0.55468 -0.37700
O 	O 	0.14433 0.27799 0.42799 -0.70100
O 	O 	0.18243 0.30186 0.32809 -0.38400
O 	O 	0.13656 0.25993 0.54458 -0.37100
O 	O 	0.16509 0.21538 0.49582 -0.40400
Ni	Ni	0.18913 0.24950 0.44000 1.07000
H 	H 	0.14505 0.36637 0.46811 0.15900
H 	H 	0.12575 0.26329 0.40925 0.16100
C 	C 	0.05682 0.28543 0.43468 0.28900
O 	O 	0.20539 0.29070 0.48773 -0.42500
C 	C 	0.12681 0.39520 0.34870 0.27300
C 	C 	0.07411 0.35011 0.54905 0.28100
C 	C 	0.21824 0.32237 0.46977 0.26900
C 	C 	0.14181 0.22501 0.53256 0.29900
C 	C 	0.20648 0.27534 0.33522 0.29000
O 	O 	0.07373 0.28164 0.47899 -0.37100
O 	O 	0.05703 0.35218 0.50406 -0.40800
Ni	Ni	0.37464 0.17484 0.04657 1.10000
O 	O 	0.33419 0.19216 0.09444 -0.70200
Ni	Ni	0.32232 0.14436 0.12996 1.10300
O 	O 	0.37870 0.22705 0.01753 -0.37500
O 	O 	0.31803 0.22974 0.99223 -0.40500
O 	O 	0.40778 0.18915 0.10620 -0.40600
Ni	Ni	0.29140 0.21171 0.05945 1.06800
O 	O 	0.41813 0.09391 0.02304 -0.40600
O 	O 	0.28436 0.16291 0.02202 -0.42000
O 	O 	0.28579 0.16594 0.18022 -0.37500
O 	O 	0.35824 0.12658 0.07526 -0.70600
O 	O 	0.41851 0.15665 0.00343 -0.37800
O 	O 	0.32538 0.09626 0.17180 -0.37300
O 	O 	0.38829 0.10082 0.17468 -0.41100
Ni	Ni	0.40289 0.10040 0.09744 1.06900
H 	H 	0.34318 0.21056 0.11964 0.15900
H 	H 	0.34546 0.11222 0.04828 0.16000
C 	C 	0.26756 0.13512 0.04378 0.29300
O 	O 	0.44479 0.13849 0.10726 -0.39500
C 	C 	0.35297 0.24008 0.98698 0.27400
C 	C 	0.26441 0.19359 0.16575 0.27600
C 	C 	0.44013 0.17440 0.11262 0.31400
C 	C 	0.35732 0.08533 0.19052 0.26800
C 	C 	0.42347 0.12152 0.99015 0.27300
O 	O 	0.27804 0.12312 0.08923 -0.36700
O 	O 	0.25506 0.19776 0.11683 -0.40400
Ni	Ni	0.54389 0.59548 0.28177 1.09900
O 	O 	0.51984 0.58200 0.35066 -0.69800
Ni	Ni	0.56613 0.56997 0.39091 1.09700
O 	O 	0.49670 0.59255 0.23949 -0.36500
O 	O 	0.45996 0.55231 0.28268 -0.40200
O 	O 	0.53092 0.65031 0.29165 -0.36600
Ni	Ni	0.49018 0.53640 0.34682 1.07000
O 	O 	0.60110 0.65739 0.26129 -0.39700
O 	O 	0.52958 0.51172 0.30274 -0.42000
O 	O 	0.54196 0.55266 0.45688 -0.38600
O 	O 	0.58878 0.58875 0.32481 -0.71400
O 	O 	0.57183 0.61052 0.21762 -0.37700
O 	O 	0.61692 0.56712 0.42516 -0.36900
O 	O 	0.62797 0.62843 0.40952 -0.40800
Ni	Ni	0.61067 0.63783 0.33410 1.06500
H 	H 	0.50578 0.60244 0.36667 0.15700
H 	H 	0.60640 0.57112 0.30917 0.15900
C 	C 	0.56249 0.50360 0.32075 0.27200
O 	O 	0.56437 0.66270 0.36325 -0.41100
C 	C 	0.47483 0.56367 0.23946 0.29100
C 	C 	0.51416 0.52965 0.45453 0.28900
C 	C 	0.53499 0.66828 0.33485 0.28400
C 	C 	0.63901 0.59597 0.42712 0.27800
C 	C 	0.59741 0.63654 0.21961 0.28100
O 	O 	0.57330 0.51589 0.36614 -0.36500
O 	O 	0.50786 0.51114 0.41204 -0.40500
Ni	Ni	0.39811 0.40171 0.65329 1.10300
O 	O 	0.38521 0.36067 0.70408 -0.70200
Ni	Ni	0.43452 0.35150 0.73504 1.09800
O 	O 	0.35220 0.39344 0.60862 -0.36800
O 	O 	0.36533 0.33166 0.60237 -0.41200
O 	O 	0.36863 0.44021 0.69551 -0.36700
Ni	Ni	0.36742 0.31283 0.67770 1.07000
O 	O 	0.44040 0.47620 0.67483 -0.40500
O 	O 	0.41241 0.27820 0.66526 -0.38800
O 	O 	0.42224 0.30376 0.77421 -0.38600
O 	O 	0.44611 0.39622 0.69110 -0.70100
O 	O 	0.41462 0.44393 0.60789 -0.37400
O 	O 	0.48577 0.35429 0.76729 -0.38000
O 	O 	0.47706 0.41349 0.79696 -0.40800
Ni	Ni	0.45742 0.44012 0.73082 1.06900
H 	H 	0.36823 0.36988 0.73091 0.15700
H 	H 	0.46639 0.39131 0.66660 0.16100
C 	C 	0.44715 0.28871 0.66692 0.31200
O 	O 	0.40717 0.43820 0.76424 -0.42600
C 	C 	0.34459 0.36037 0.59016 0.27300
C 	C 	0.38802 0.29388 0.78549 0.28400
C 	C 	0.37837 0.45206 0.74126 0.29600
C 	C 	0.49438 0.38123 0.79899 0.27900
C 	C 	0.43924 0.46769 0.62537 0.27700
O 	O 	0.45537 0.32324 0.67446 -0.40900
O 	O 	0.36178 0.29268 0.75004 -0.40800
Ni	Ni	0.83255 0.15543 0.39724 1.09700
O 	O 	0.85516 0.13472 0.46225 -0.71200
Ni	Ni	0.86182 0.18102 0.50317 1.10000
O 	O 	0.83150 0.10409 0.36282 -0.36400
O 	O 	0.89312 0.09545 0.37628 -0.40900
O 	O 	0.78059 0.14439 0.42667 -0.36300
Ni	Ni	0.90431 0.11413 0.45020 1.06400
O 	O 	0.76878 0.20913 0.38483 -0.41100
O 	O 	0.92583 0.16072 0.41649 -0.41100
O 	O 	0.88026 0.15504 0.56665 -0.38100
O 	O 	0.84352 0.20317 0.43570 -0.70100
O 	O 	0.80970 0.17872 0.33408 -0.38300
O 	O 	0.86111 0.22956 0.54320 -0.37100
O 	O 	0.81217 0.26120 0.50998 -0.40300
Ni	Ni	0.79631 0.22900 0.44697 1.06700
H 	H 	0.83902 0.11674 0.48005 0.15700
H 	H 	0.86163 0.21868 0.41725 0.16100
C 	C 	0.93115 0.19127 0.44259 0.28700
O 	O 	0.77886 0.18678 0.49224 -0.43100
C 	C 	0.86085 0.08255 0.36163 0.27600
C 	C 	0.90649 0.12998 0.56323 0.28200
C 	C 	0.76935 0.15452 0.47286 0.27600
C 	C 	0.83171 0.25006 0.54981 0.28900
C 	C 	0.78480 0.20461 0.34013 0.29100
O 	O 	0.91555 0.19537 0.48746 -0.36700
O 	O 	0.92607 0.12657 0.52057 -0.40500
Ni	Ni	0.62124 0.29880 0.04643 1.10100
O 	O 	0.65991 0.28513 0.09931 -0.70100
Ni	Ni	0.66309 0.33295 0.13853 1.10200
O 	O 	0.62546 0.24723 0.01535 -0.37700
O 	O 	0.68721 0.25296 0.99822 -0.41100
O 	O 	0.58515 0.27731 0.09794 -0.40300
Ni	Ni	0.70705 0.27331 0.06829 1.06700
O 	O 	0.56779 0.37376 0.02246 -0.40400
O 	O 	0.70733 0.32365 0.03383 -0.42400
O 	O 	0.69961 0.31492 0.19158 -0.37500
O 	O 	0.62821 0.34747 0.08070 -0.70400
O 	O 	0.57905 0.31302 0.99784 -0.38600
O 	O 	0.65138 0.37903 0.18193 -0.36900
O 	O 	0.58964 0.36664 0.17644 -0.41200
Ni	Ni	0.57901 0.36633 0.09806 1.07100
H 	H 	0.65181 0.26472 0.12201 0.15900
H 	H 	0.64036 0.36471 0.05653 0.16100
C 	C 	0.71948 0.35267 0.05821 0.29300
O 	O 	0.54201 0.32277 0.10242 -0.39200
C 	C 	0.65499 0.23679 0.99020 0.27800
C 	C 	0.72578 0.29180 0.17709 0.27900
C 	C 	0.55077 0.28748 0.09899 0.31100
C 	C 	0.61708 0.38641 0.19521 0.27100
C 	C 	0.56956 0.34757 0.98678 0.28100
O 	O 	0.70607 0.36129 0.10363 -0.36500
O 	O 	0.73778 0.29162 0.12913 -0.40600
Ni	Ni	0.08717 0.58181 0.14937 1.09700
O 	O 	0.10951 0.60839 0.21026 -0.71300
Ni	Ni	0.06444 0.61885 0.25182 1.10000
O 	O 	0.13756 0.57767 0.11332 -0.36500
O 	O 	0.14600 0.64017 0.11716 -0.40900
O 	O 	0.09779 0.53122 0.18426 -0.36500
Ni	Ni	0.13038 0.65629 0.19058 1.06500
O 	O 	0.03142 0.51869 0.14454 -0.40900
O 	O 	0.08353 0.67655 0.15658 -0.40700
O 	O 	0.09200 0.64140 0.31154 -0.37500
O 	O 	0.04063 0.59671 0.18752 -0.70000
O 	O 	0.06260 0.55612 0.08942 -0.38400
O 	O 	0.01731 0.62095 0.29465 -0.36300
O 	O 	0.98284 0.57271 0.26486 -0.40500
Ni	Ni	0.01364 0.55098 0.20393 1.06600
H 	H 	0.12750 0.59309 0.22940 0.15800
H 	H 	0.02537 0.61431 0.16765 0.15700
C 	C 	0.05405 0.68452 0.18338 0.28800
O 	O 	0.05568 0.53439 0.25004 -0.43000
C 	C 	0.15844 0.60700 0.10570 0.27800
C 	C 	0.11740 0.66685 0.30347 0.28200
C 	C 	0.08673 0.52149 0.23082 0.27800
C 	C 	0.99574 0.59252 0.30344 0.28700
C 	C 	0.03682 0.53150 0.09789 0.28700
O 	O 	0.05033 0.67168 0.22998 -0.36400
O 	O 	0.12006 0.68315 0.25806 -0.40700
Ni	Ni	0.92785 0.36003 0.79232 1.09900
O 	O 	0.95513 0.39053 0.84580 -0.70500
Ni	Ni	0.91400 0.40216 0.89402 1.10300
O 	O 	0.97586 0.35383 0.75275 -0.38000
O 	O 	0.98419 0.41645 0.74428 -0.40900
O 	O 	0.94403 0.31599 0.83536 -0.40100
Ni	Ni	0.97413 0.43662 0.81818 1.06500
O 	O 	0.84163 0.32693 0.77850 -0.40900
O 	O 	0.92362 0.45083 0.79058 -0.42300
O 	O 	0.94503 0.42958 0.94601 -0.38100
O 	O 	0.88613 0.37565 0.83676 -0.70400
O 	O 	0.90035 0.32593 0.74201 -0.38900
O 	O 	0.87076 0.40086 0.94429 -0.37100
O 	O 	0.86374 0.33867 0.93168 -0.41400
Ni	Ni	0.85711 0.33135 0.85311 1.07300
H 	H 	0.97488 0.37646 0.86334 0.16100
H 	H 	0.87035 0.39309 0.81749 0.16100
C 	C 	0.89794 0.46416 0.82042 0.29300
O 	O 	0.89051 0.28483 0.84885 -0.39400
C 	C 	0.99344 0.38210 0.73250 0.28100
C 	C 	0.96847 0.45525 0.93084 0.28200
C 	C 	0.92565 0.28503 0.83596 0.30700
C 	C 	0.85321 0.36983 0.95376 0.28200
C 	C 	0.86410 0.32074 0.73922 0.28900
O 	O 	0.89486 0.45282 0.86814 -0.36700
O 	O 	0.96745 0.46807 0.88318 -0.40900
C 	C 	0.98637 0.47778 0.97019 -0.08400
C 	C 	0.02446 0.47460 0.97760 -0.03200
C 	C 	0.04136 0.49175 0.01949 0.04500
C 	C 	0.01985 0.51249 0.05429 -0.07900
C 	C 	0.98193 0.51658 0.04589 -0.03200
C 	C 	0.96518 0.49982 0.00365 0.05000
S 	S 	0.08914 0.48598 0.02880 -0.02700
S 	S 	0.91792 0.50759 0.99207 -0.03500
H 	H 	0.91398 0.53711 0.95955 0.03800
H 	H 	0.09552 0.45209 0.05060 0.03600
H 	H 	0.04079 0.45786 0.95161 0.02500
H 	H 	0.96554 0.53326 0.07190 0.02100
C 	C 	0.75212 0.37180 0.03779 -0.07200
C 	C 	0.75224 0.38083 0.98548 -0.03600
C 	C 	0.78513 0.37972 0.95747 0.04700
C 	C 	0.81850 0.37122 0.98248 -0.09800
C 	C 	0.81909 0.36787 0.03590 -0.00900
C 	C 	0.78614 0.36907 0.06382 0.02700
S 	S 	0.78400 0.38778 0.89090 -0.12000
S 	S 	0.78787 0.36750 0.13108 -0.02100
H 	H 	0.78952 0.40281 0.15011 0.03800
H 	H 	0.79109 0.42441 0.88141 0.05000
H 	H 	0.72629 0.38500 0.96563 0.04200
H 	H 	0.84513 0.36426 0.05572 0.03900
C 	C 	0.82992 0.27193 0.59748 -0.07400
C 	C 	0.82335 0.25327 0.64374 -0.02600
C 	C 	0.83303 0.26948 0.69064 0.04200
C 	C 	0.84861 0.30528 0.69157 -0.07600
C 	C 	0.85246 0.32510 0.64572 -0.02400
C 	C 	0.84323 0.30872 0.59877 0.04100
S 	S 	0.82783 0.24363 0.74742 -0.05500
S 	S 	0.84987 0.33407 0.54189 -0.04900
H 	H 	0.81811 0.35278 0.53007 0.03400
H 	H 	0.85948 0.22404 0.75681 0.04400
H 	H 	0.81296 0.22512 0.64302 0.03800
H 	H 	0.86376 0.35290 0.64641 0.03600
C 	C 	0.74527 0.26997 0.21574 -0.08300
C 	C 	0.74479 0.23126 0.21190 -0.03000
C 	C 	0.75776 0.20941 0.25222 0.04100
C 	C 	0.77249 0.22650 0.29624 -0.09000
C 	C 	0.77443 0.26518 0.29909 -0.02600
C 	C 	0.76106 0.28701 0.25910 0.03900
S 	S 	0.75302 0.16092 0.24855 -0.03400
S 	S 	0.76517 0.33551 0.26323 -0.03300
H 	H 	0.79957 0.34591 0.24695 0.03400
H 	H 	0.72007 0.15070 0.27005 0.03900
H 	H 	0.73272 0.21816 0.17848 0.01400
H 	H 	0.78630 0.27829 0.33264 0.01100
C 	C 	0.51413 0.37165 0.84630 -0.07600
C 	C 	0.55037 0.38411 0.85368 -0.02500
C 	C 	0.56903 0.37618 0.89941 0.03500
C 	C 	0.55160 0.35470 0.93749 -0.07300
C 	C 	0.51563 0.34187 0.92973 -0.02200
C 	C 	0.49643 0.35115 0.88520 0.04000
S 	S 	0.61378 0.39385 0.90893 -0.06600
S 	S 	0.44947 0.33941 0.88038 -0.04800
H 	H 	0.42832 0.36768 0.89941 0.03400
H 	H 	0.63928 0.37007 0.88855 0.03400
H 	H 	0.56385 0.40035 0.82418 0.03400
H 	H 	0.50203 0.32584 0.95936 0.05000
C 	C 	0.58416 0.47482 0.29444 -0.07500
C 	C 	0.59940 0.48283 0.24632 -0.03000
C 	C 	0.61178 0.45423 0.21435 0.03600
C 	C 	0.60925 0.41711 0.23079 -0.08000
C 	C 	0.59614 0.40927 0.28015 -0.02200
C 	C 	0.58363 0.43787 0.31205 0.03600
S 	S 	0.62859 0.46514 0.15288 -0.08400
S 	S 	0.56591 0.42689 0.37300 -0.03200
H 	H 	0.59366 0.42890 0.40851 0.04300
H 	H 	0.66607 0.46977 0.15515 0.04600
H 	H 	0.59995 0.51120 0.23269 0.02700
H 	H 	0.59469 0.38080 0.29320 0.04300
C 	C 	0.49544 0.51864 0.50184 -0.08500
C 	C 	0.51584 0.50259 0.54166 -0.01800
C 	C 	0.49793 0.48865 0.58500 0.03800
C 	C 	0.45919 0.49080 0.58854 -0.08200
C 	C 	0.43921 0.50969 0.55071 -0.02100
C 	C 	0.45709 0.52346 0.50729 0.04100
S 	S 	0.52406 0.46691 0.63328 -0.10800
S 	S 	0.43125 0.54681 0.46016 -0.11100
H 	H 	0.43106 0.58399 0.47070 0.03400
H 	H 	0.52647 0.42977 0.62308 0.02600
H 	H 	0.54553 0.49984 0.53815 0.05100
H 	H 	0.40950 0.51227 0.55407 0.05000
C 	C 	0.52183 0.25876 0.10230 -0.07600
C 	C 	0.50212 0.25420 0.14813 -0.02200
C 	C 	0.47732 0.22461 0.15383 0.04000
C 	C 	0.47241 0.19903 0.11353 -0.08100
C 	C 	0.49317 0.20281 0.06869 -0.01800
C 	C 	0.51672 0.23307 0.06203 0.03600
S 	S 	0.45303 0.21955 0.21180 -0.04800
S 	S 	0.53674 0.24015 0.00147 -0.01300
H 	H 	0.56303 0.21360 0.99292 0.04600
H 	H 	0.42002 0.23786 0.20839 0.03600
H 	H 	0.50635 0.27338 0.17954 0.04400
H 	H 	0.48909 0.18349 0.03737 0.05300
C 	C 	0.37972 0.28024 0.83733 -0.07700
C 	C 	0.35362 0.29909 0.86724 -0.02700
C 	C 	0.34614 0.28762 0.91742 0.03800
C 	C 	0.36449 0.25650 0.93780 -0.07300
C 	C 	0.39142 0.23836 0.90837 -0.02600
C 	C 	0.39873 0.24965 0.85813 0.04000
S 	S 	0.31508 0.31345 0.95502 -0.06700
S 	S 	0.43022 0.22399 0.82091 -0.02000
H 	H 	0.41200 0.19574 0.79668 0.03900
H 	H 	0.28018 0.29960 0.94882 0.03100
H 	H 	0.33955 0.32309 0.85169 0.03300
H 	H 	0.40571 0.21450 0.92392 0.05000
C 	C 	0.96156 0.21649 0.42804 -0.07700
C 	C 	0.99620 0.20161 0.41548 -0.02500
C 	C 	0.02744 0.22444 0.41350 0.04100
C 	C 	0.02409 0.26259 0.42399 -0.07600
C 	C 	0.98904 0.27800 0.43110 -0.02300
C 	C 	0.95784 0.25527 0.43369 0.04200
S 	S 	0.07044 0.20494 0.39766 -0.08000
S 	S 	0.91453 0.27575 0.44480 -0.07900
H 	H 	0.90969 0.27984 0.49652 0.05800
H 	H 	0.07579 0.20737 0.34581 0.03200
H 	H 	0.99918 0.17202 0.40976 0.04200
H 	H 	0.98625 0.30756 0.43739 0.03900
C 	C 	0.24979 0.33958 0.49627 -0.06900
C 	C 	0.24526 0.35160 0.54697 -0.03000
C 	C 	0.27601 0.35927 0.57769 0.03800
C 	C 	0.31187 0.35518 0.55746 -0.08300
C 	C 	0.31642 0.34514 0.50600 -0.02000
C 	C 	0.28565 0.33755 0.47520 0.03100
S 	S 	0.26925 0.37212 0.64211 -0.08300
S 	S 	0.29254 0.32449 0.41090 -0.02600
H 	H 	0.29643 0.28681 0.40803 0.03700
H 	H 	0.26786 0.40996 0.64560 0.04900
H 	H 	0.21779 0.35339 0.56325 0.03600
H 	H 	0.34393 0.34270 0.49006 0.04200
C 	C 	0.22084 0.25486 0.29114 -0.08900
C 	C 	0.21428 0.21675 0.28792 -0.02700
C 	C 	0.22573 0.19675 0.24500 0.03800
C 	C 	0.24487 0.21490 0.20515 -0.07900
C 	C 	0.25037 0.25328 0.20763 -0.03200
C 	C 	0.23892 0.27329 0.25067 0.04200
S 	S 	0.21473 0.14934 0.24083 -0.03100
S 	S 	0.24949 0.32080 0.25488 -0.03200
H 	H 	0.28287 0.32509 0.27876 0.03800
H 	H 	0.17965 0.14552 0.22208 0.03400
H 	H 	0.19962 0.20275 0.31853 0.01400
H 	H 	0.26520 0.26726 0.17718 0.01900
C 	C 	0.05299 0.35926 0.59510 -0.07500
C 	C 	0.06828 0.38318 0.63169 -0.02800
C 	C 	0.04913 0.39108 0.67693 0.03900
C 	C 	0.01391 0.37558 0.68499 -0.07400
C 	C 	0.99837 0.35241 0.64776 -0.02800
C 	C 	0.01816 0.34302 0.60400 0.04000
S 	S 	0.07012 0.41911 0.72382 -0.07700
S 	S 	0.00019 0.30881 0.56274 -0.02400
H 	H 	0.01131 0.27455 0.57912 0.04800
H 	H 	0.06068 0.45536 0.71552 0.02900
H 	H 	0.09529 0.39522 0.62526 0.03700
H 	H 	0.97105 0.34091 0.65356 0.04700
C 	C 	0.12682 0.42883 0.31668 -0.07100
C 	C 	0.12148 0.42530 0.26373 -0.02200
C 	C 	0.11025 0.45579 0.23435 0.03600
C 	C 	0.10564 0.49081 0.25785 -0.07500
C 	C 	0.11427 0.49492 0.30999 -0.02600
C 	C 	0.12459 0.46414 0.33949 0.03000
S 	S 	0.09943 0.44891 0.16930 -0.02700
S 	S 	0.13332 0.46994 0.40534 -0.06900
H 	H 	0.10119 0.46503 0.43215 0.01200
H 	H 	0.13019 0.45552 0.14022 0.04300
H 	H 	0.12364 0.39825 0.24595 0.04600
H 	H 	0.11140 0.52179 0.32812 0.03400
C 	C 	0.24954 0.62711 0.00899 -0.06000
C 	C 	0.25579 0.61441 0.05906 -0.03200
C 	C 	0.22619 0.60313 0.08988 0.03400
C 	C 	0.18997 0.60432 0.07044 -0.07600
C 	C 	0.18438 0.61226 0.01844 -0.01100
C 	C 	0.21376 0.62429 0.98780 0.02100
S 	S 	0.23458 0.58930 0.15346 -0.06100
S 	S 	0.20473 0.63843 0.92442 -0.02400
H 	H 	0.20988 0.60908 0.89193 0.04200
H 	H 	0.23253 0.61956 0.18500 0.01600
H 	H 	0.28339 0.61535 0.07501 0.03200
H 	H 	0.15664 0.61206 0.00292 0.04500
C 	C 	0.42532 0.57974 0.09897 -0.07800
C 	C 	0.46143 0.56564 0.09988 -0.02200
C 	C 	0.47642 0.55269 0.14583 0.03800
C 	C 	0.45572 0.55537 0.19129 -0.07700
C 	C 	0.41762 0.56175 0.18795 -0.02000
C 	C 	0.40213 0.57342 0.14156 0.04100
S 	S 	0.52207 0.53604 0.14702 -0.05500
S 	S 	0.35389 0.57793 0.13652 -0.06000
H 	H 	0.34352 0.61293 0.15085 0.04100
H 	H 	0.52200 0.49835 0.14088 0.03000
H 	H 	0.47855 0.56689 0.06589 0.04500
H 	H 	0.40065 0.56051 0.22210 0.04700
C 	C 	0.35513 0.54748 0.82526 -0.07800
C 	C 	0.35572 0.55002 0.77173 -0.02100
C 	C 	0.35685 0.51786 0.74181 0.03400
C 	C 	0.35853 0.48286 0.76590 -0.08200
C 	C 	0.35181 0.48055 0.81879 -0.02200
C 	C 	0.35085 0.51268 0.84872 0.03200
S 	S 	0.35621 0.52186 0.67461 -0.02400
S 	S 	0.34572 0.50890 0.91560 -0.07400
H 	H 	0.37985 0.50717 0.93801 0.01200
H 	H 	0.39040 0.53215 0.65743 0.04500
H 	H 	0.35657 0.57697 0.75344 0.04500
H 	H 	0.35086 0.45366 0.83725 0.04000
C 	C 	0.14375 0.72298 0.44128 -0.07600
C 	C 	0.15037 0.68488 0.43777 -0.02500
C 	C 	0.14501 0.66642 0.39126 0.04000
C 	C 	0.13229 0.68628 0.34816 -0.07700
C 	C 	0.12859 0.72484 0.35093 -0.02200
C 	C 	0.13395 0.74320 0.39721 0.04300
S 	S 	0.15552 0.61889 0.38691 -0.06700
S 	S 	0.12729 0.79142 0.39983 -0.05400
H 	H 	0.09059 0.79860 0.40747 0.05200
H 	H 	0.12486 0.59846 0.39883 0.04300
H 	H 	0.15940 0.66958 0.47124 0.03300
H 	H 	0.11952 0.74033 0.31765 0.05100
C 	C 	0.24251 0.75746 0.72474 -0.07700
C 	C 	0.26213 0.77904 0.76013 -0.01900
C 	C 	0.27791 0.76271 0.80342 0.03900
C 	C 	0.27423 0.72434 0.81136 -0.08200
C 	C 	0.25563 0.70257 0.77514 -0.01600
C 	C 	0.23988 0.71891 0.73182 0.03500
S 	S 	0.30249 0.79052 0.84710 -0.09400
S 	S 	0.21622 0.69099 0.68733 -0.09200
H 	H 	0.17964 0.68945 0.70034 0.03100
H 	H 	0.27901 0.80270 0.88463 0.02500
H 	H 	0.26425 0.80873 0.75462 0.05100
H 	H 	0.25337 0.67290 0.78078 0.05100
C 	C 	0.97497 0.77002 0.16634 -0.07800
C 	C 	0.01258 0.77916 0.16726 -0.01900
C 	C 	0.03947 0.75127 0.16739 0.04400
C 	C 	0.02870 0.71374 0.16573 -0.07300
C 	C 	0.99140 0.70489 0.15845 -0.02600
C 	C 	0.96447 0.73273 0.15898 0.04600
S 	S 	0.08625 0.76362 0.17348 -0.05500
S 	S 	0.91768 0.72023 0.15353 -0.06200
H 	H 	0.90315 0.71466 0.20134 0.03700
H 	H 	0.09553 0.76458 0.22435 0.04300
H 	H 	0.02084 0.80786 0.17143 0.03400
H 	H 	0.98308 0.67611 0.15583 0.02900
C 	C 	0.87944 0.98663 0.27032 -0.07600
C 	C 	0.87201 0.98269 0.32284 -0.02500
C 	C 	0.86272 0.01360 0.35270 0.03100
C 	C 	0.86011 0.04883 0.32982 -0.07200
C 	C 	0.86370 0.05215 0.27656 -0.02100
C 	C 	0.87391 0.02153 0.24674 0.03400
S 	S 	0.85560 0.00803 0.41896 -0.07200
S 	S 	0.88213 0.02803 0.18083 -0.02600
H 	H 	0.85045 0.02086 0.15400 0.04300
H 	H 	0.88836 0.01295 0.44422 0.01300
H 	H 	0.87537 0.95590 0.34102 0.03600
H 	H 	0.86096 0.07913 0.25872 0.04600
C 	C 	0.04893 0.87193 0.45674 -0.07700
C 	C 	0.01037 0.87458 0.45584 -0.01400
C 	C 	0.99202 0.88421 0.41060 0.03100
C 	C 	0.01238 0.89099 0.36553 -0.06900
C 	C 	0.05111 0.89193 0.36789 -0.02400
C 	C 	0.06942 0.88321 0.41363 0.03600
S 	S 	0.94361 0.88843 0.41101 -0.04400
S 	S 	0.11760 0.88866 0.41733 -0.06300
H 	H 	0.12565 0.92374 0.43390 0.03500
H 	H 	0.93411 0.92444 0.42102 0.03100
H 	H 	0.99465 0.86913 0.49034 0.04300
H 	H 	0.06699 0.89840 0.33387 0.04600
C 	C 	0.94622 0.24975 0.83064 -0.07900
C 	C 	0.95932 0.23164 0.87469 -0.02000
C 	C 	0.98637 0.20379 0.87077 0.03000
C 	C 	0.00181 0.19516 0.82238 -0.07200
C 	C 	0.98756 0.21227 0.77846 -0.02700
C 	C 	0.95914 0.23829 0.78215 0.03600
S 	S 	0.99889 0.17880 0.92602 -0.05500
S 	S 	0.93922 0.25519 0.72555 -0.03000
H 	H 	0.96091 0.28284 0.70608 0.05000
H 	H 	0.97699 0.14801 0.93007 0.02200
H 	H 	0.94904 0.23969 0.91207 0.04100
H 	H 	0.99863 0.20532 0.74108 0.05100
C 	C 	0.92212 0.11592 0.61077 -0.07600
C 	C 	0.91810 0.07843 0.62307 -0.03100
C 	C 	0.93344 0.06443 0.66819 0.04300
C 	C 	0.95247 0.08843 0.70170 -0.08200
C 	C 	0.95333 0.12646 0.69143 -0.02500
C 	C 	0.93990 0.14006 0.64513 0.04200
S 	S 	0.93007 0.01668 0.68107 -0.05000
S 	S 	0.94865 0.18651 0.62836 -0.01800
H 	H 	0.98177 0.18874 0.60328 0.04200
H 	H 	0.96011 0.99887 0.66086 0.03700
H 	H 	0.90369 0.06003 0.59705 0.02600
H 	H 	0.96752 0.14496 0.71747 0.04600
C 	C 	0.09600 0.97614 0.79797 -0.07000
C 	C 	0.11137 0.97856 0.74883 -0.03100
C 	C 	0.12031 0.94643 0.72160 0.04000
C 	C 	0.11449 0.91144 0.74416 -0.08900
C 	C 	0.10221 0.90910 0.79486 -0.01800
C 	C 	0.09311 0.94123 0.82200 0.03200
S 	S 	0.13681 0.95031 0.65834 -0.10100
S 	S 	0.07662 0.93724 0.88516 -0.03200
H 	H 	0.10549 0.94030 0.91875 0.04100
H 	H 	0.17460 0.95081 0.65883 0.05000
H 	H 	0.11417 0.00538 0.73053 0.03300
H 	H 	0.09881 0.88222 0.81277 0.04100
C 	C 	0.00776 0.01227 0.99255 -0.09400
C 	C 	0.01763 0.97582 0.00478 -0.00400
C 	C 	0.00032 0.95739 0.04513 0.03100
C 	C 	0.97303 0.97568 0.07396 -0.08700
C 	C 	0.96447 0.01275 0.06350 -0.02100
C 	C 	0.98162 0.03114 0.02284 0.03700
S 	S 	0.01336 0.91157 0.05964 -0.06900
S 	S 	0.96927 0.07727 0.00920 -0.05400
H 	H 	0.94109 0.07760 0.97423 0.01800
H 	H 	0.04096 0.91201 0.09549 0.02100
H 	H 	0.03847 0.96165 0.98242 0.04300
H 	H 	0.94384 0.02699 0.08625 0.04800
C 	C 	0.13201 0.19695 0.57161 -0.07300
C 	C 	0.15986 0.18225 0.60309 -0.02100
C 	C 	0.15078 0.16255 0.64773 0.03400
C 	C 	0.11348 0.15686 0.66075 -0.06900
C 	C 	0.08571 0.16949 0.62765 -0.01800
C 	C 	0.09473 0.18951 0.58335 0.03300
S 	S 	0.18633 0.14547 0.68713 -0.07900
S 	S 	0.05911 0.20492 0.54291 -0.02900
H 	H 	0.04936 0.17688 0.51025 0.03800
H 	H 	0.19515 0.11017 0.67227 0.03600
H 	H 	0.18857 0.18759 0.59411 0.04200
H 	H 	0.05698 0.16468 0.63714 0.05000
C 	C 	0.23566 0.11847 0.01760 -0.07200
C 	C 	0.23916 0.10931 0.96553 -0.03300
C 	C 	0.20794 0.10704 0.93415 0.04000
C 	C 	0.17270 0.11293 0.95523 -0.08600
C 	C 	0.16889 0.11841 0.00807 -0.01000
C 	C 	0.20010 0.12097 0.03941 0.02900
S 	S 	0.21340 0.09774 0.86836 -0.09200
S 	S 	0.19420 0.12826 0.10552 -0.02400
H 	H 	0.19331 0.09481 0.13025 0.04100
H 	H 	0.21106 0.06032 0.86028 0.03900
H 	H 	0.26638 0.10641 0.94876 0.04000
H 	H 	0.14162 0.12117 0.02472 0.04500
C 	C 	0.96518 0.70404 0.60896 -0.07800
C 	C 	0.96802 0.72793 0.56680 -0.01900
C 	C 	0.99260 0.75782 0.56741 0.03800
C 	C 	0.01534 0.76391 0.61046 -0.07600
C 	C 	0.01273 0.73986 0.65268 -0.01900
C 	C 	0.98767 0.71012 0.65226 0.03600
S 	S 	0.99477 0.78710 0.51372 -0.02800
S 	S 	0.98451 0.68108 0.70625 -0.04900
H 	H 	0.95771 0.69419 0.73852 0.03600
H 	H 	0.01943 0.77303 0.47902 0.05400
H 	H 	0.95048 0.72364 0.53366 0.05500
H 	H 	0.03056 0.74394 0.68554 0.04000
C 	C 	0.73189 0.60513 0.52698 -0.08000
C 	C 	0.73708 0.59389 0.47595 -0.02300
C 	C 	0.70677 0.58930 0.44324 0.03500
C 	C 	0.67081 0.59475 0.46212 -0.07500
C 	C 	0.66545 0.60127 0.51453 -0.02100
C 	C 	0.69577 0.60635 0.54709 0.03300
S 	S 	0.71426 0.57800 0.37846 -0.08300
S 	S 	0.68807 0.61618 0.61220 -0.03000
H 	H 	0.68825 0.58386 0.63968 0.04100
H 	H 	0.71370 0.54028 0.37283 0.04000
H 	H 	0.76480 0.59164 0.46065 0.03700
H 	H 	0.63770 0.60388 0.52960 0.04500
C 	C 	0.84843 0.75169 0.44033 -0.07600
C 	C 	0.87615 0.73578 0.41001 -0.02300
C 	C 	0.88497 0.75083 0.36239 0.03900
C 	C 	0.86622 0.78257 0.34485 -0.07700
C 	C 	0.83761 0.79774 0.37428 -0.02900
C 	C 	0.82877 0.78267 0.42208 0.04100
S 	S 	0.92048 0.73044 0.32591 -0.00600
S 	S 	0.79476 0.80424 0.45992 -0.06600
H 	H 	0.76112 0.78861 0.44965 0.03200
H 	H 	0.90632 0.70166 0.29793 0.03400
H 	H 	0.89105 0.71171 0.42372 0.05000
H 	H 	0.82338 0.82236 0.36099 0.03100
C 	C 	0.93798 0.61127 0.44376 -0.07400
C 	C 	0.97398 0.59698 0.44468 -0.02000
C 	C 	0.99221 0.58803 0.39895 0.03400
C 	C 	0.97434 0.59328 0.35153 -0.07200
C 	C 	0.93774 0.60609 0.35073 -0.02100
C 	C 	0.91951 0.61512 0.39649 0.03600
S 	S 	0.03750 0.57043 0.40149 -0.05400
S 	S 	0.87343 0.63045 0.39406 -0.06800
H 	H 	0.85022 0.60071 0.39877 0.03100
H 	H 	0.03644 0.53250 0.40247 0.03000
H 	H 	0.98798 0.59315 0.48101 0.04300
H 	H 	0.92390 0.61033 0.31438 0.04400
C 	C 	0.86117 0.55556 0.73690 -0.07800
C 	C 	0.84365 0.52134 0.72972 -0.02900
C 	C 	0.85110 0.49176 0.76268 0.03900
C 	C 	0.87680 0.49619 0.80263 -0.08100
C 	C 	0.89001 0.53173 0.81418 -0.02400
C 	C 	0.88250 0.56147 0.78138 0.03500
S 	S 	0.82932 0.44884 0.75238 -0.06700
S 	S 	0.89919 0.60586 0.79699 -0.04700
H 	H 	0.93334 0.61076 0.77551 0.03900
H 	H 	0.85094 0.42728 0.72130 0.02800
H 	H 	0.82549 0.51725 0.69719 0.04400
H 	H 	0.90846 0.53561 0.84644 0.04400
C 	C 	0.46916 0.70761 0.93716 -0.07500
C 	C 	0.50335 0.69623 0.91724 -0.02500
C 	C 	0.53384 0.72025 0.91828 0.04000
C 	C 	0.53030 0.75584 0.94014 -0.07700
C 	C 	0.49557 0.76826 0.95579 -0.01800
C 	C 	0.46498 0.74471 0.95383 0.03700
S 	S 	0.57604 0.70546 0.89207 -0.09000
S 	S 	0.42165 0.76228 0.97189 -0.05600
H 	H 	0.40443 0.77721 0.92998 0.02000
H 	H 	0.57790 0.71594 0.84169 0.03700
H 	H 	0.50672 0.66819 0.90316 0.04300
H 	H 	0.49250 0.79608 0.97086 0.04000
C 	C 	0.63872 0.69011 0.08543 -0.07100
C 	C 	0.66350 0.67747 0.12295 -0.02300
C 	C 	0.65062 0.65790 0.16573 0.03900
C 	C 	0.61263 0.65055 0.17093 -0.07300
C 	C 	0.58853 0.65976 0.13085 -0.01600
C 	C 	0.60139 0.67935 0.08815 0.03100
S 	S 	0.68232 0.64266 0.21229 -0.09100
S 	S 	0.57048 0.69045 0.03857 -0.02000
H 	H 	0.56993 0.66227 0.00344 0.03400
H 	H 	0.69399 0.60763 0.20025 0.03400
H 	H 	0.69245 0.68476 0.12039 0.04700
H 	H 	0.55946 0.65301 0.13383 0.05900
C 	C 	0.75034 0.84569 0.00691 -0.05700
C 	C 	0.74254 0.85802 0.05676 -0.03500
C 	C 	0.77105 0.87010 0.08898 0.03800
C 	C 	0.80772 0.87011 0.07117 -0.07800
C 	C 	0.81474 0.86254 0.01936 -0.01000
C 	C 	0.78634 0.85013 0.98720 0.02000
S 	S 	0.76075 0.88342 0.15224 -0.08100
S 	S 	0.79678 0.83797 0.92347 -0.02600
H 	H 	0.80495 0.80096 0.92105 0.03700
H 	H 	0.75395 0.92073 0.15360 0.04200
H 	H 	0.71465 0.85597 0.07154 0.03200
H 	H 	0.84279 0.86373 0.00502 0.04400
C 	C 	0.72189 0.74466 0.80548 -0.08400
C 	C 	0.71323 0.70711 0.79976 -0.02900
C 	C 	0.72238 0.68831 0.75468 0.04000
C 	C 	0.74129 0.70701 0.71510 -0.07900
C 	C 	0.74895 0.74488 0.72023 -0.03100
C 	C 	0.73977 0.76369 0.76537 0.04100
S 	S 	0.70904 0.64171 0.74763 -0.03100
S 	S 	0.75250 0.81050 0.77224 -0.03100
H 	H 	0.78658 0.81252 0.79478 0.03800
H 	H 	0.67383 0.64028 0.72870 0.03500
H 	H 	0.69854 0.69271 0.82998 0.01800
H 	H 	0.76373 0.75928 0.69010 0.01900
C 	C 	0.45582 0.75493 0.35899 -0.08100
C 	C 	0.47737 0.75421 0.31436 -0.02000
C 	C 	0.50527 0.72788 0.30813 0.03700
C 	C 	0.51050 0.70011 0.34548 -0.07400
C 	C 	0.48848 0.70020 0.38979 -0.02800
C 	C 	0.46136 0.72761 0.39692 0.03800
S 	S 	0.53473 0.73121 0.25460 -0.00700
S 	S 	0.43490 0.72750 0.45344 -0.04700
H 	H 	0.40362 0.70694 0.44580 0.03600
H 	H 	0.56444 0.75296 0.26671 0.03700
H 	H 	0.47342 0.77523 0.28524 0.05500
H 	H 	0.49203 0.67868 0.41833 0.03300
C 	C 	0.37445 0.99590 0.29464 -0.08000
C 	C 	0.38290 0.03213 0.31005 -0.02500
C 	C 	0.37523 0.06215 0.27770 0.03600
C 	C 	0.35853 0.05591 0.22967 -0.07600
C 	C 	0.34611 0.02026 0.21715 -0.03200
C 	C 	0.35395 0.99026 0.24943 0.04100
S 	S 	0.38652 0.10729 0.29781 -0.04300
S 	S 	0.33886 0.94561 0.23222 -0.06600
H 	H 	0.36585 0.92816 0.20449 0.03200
H 	H 	0.35694 0.12249 0.32283 0.03700
H 	H 	0.39763 0.03673 0.34564 0.04700
H 	H 	0.33189 0.01557 0.18119 0.03900
C 	C 	0.55781 0.85745 0.11081 -0.07200
C 	C 	0.52068 0.84684 0.11442 -0.02500
C 	C 	0.50055 0.85362 0.15910 0.04200
C 	C 	0.51774 0.87072 0.20145 -0.07500
C 	C 	0.55464 0.88211 0.19761 -0.02600
C 	C 	0.57470 0.87580 0.15245 0.03600
S 	S 	0.45357 0.84151 0.16081 -0.05900
S 	S 	0.62022 0.89252 0.14776 -0.06600
H 	H 	0.64432 0.86565 0.16370 0.04300
H 	H 	0.45030 0.80508 0.17479 0.05600
H 	H 	0.50755 0.83272 0.08261 0.05400
H 	H 	0.56764 0.89618 0.22954 0.03100
C 	C 	0.34822 0.75565 0.11573 -0.07100
C 	C 	0.34689 0.73552 0.16173 -0.02600
C 	C 	0.35484 0.75276 0.20849 0.04200
C 	C 	0.36250 0.79098 0.20980 -0.07800
C 	C 	0.36106 0.81171 0.16462 -0.02600
C 	C 	0.35543 0.79428 0.11742 0.04000
S 	S 	0.35698 0.72584 0.26469 -0.04900
S 	S 	0.36057 0.82070 0.06111 -0.04400
H 	H 	0.39731 0.82355 0.04944 0.04000
H 	H 	0.39272 0.71502 0.27303 0.04800
H 	H 	0.34147 0.70599 0.16081 0.04100
H 	H 	0.36619 0.84129 0.16590 0.03500
C 	C 	0.31593 0.87407 0.49584 -0.08200
C 	C 	0.31949 0.86063 0.54596 -0.02200
C 	C 	0.28843 0.85781 0.57773 0.03100
C 	C 	0.25323 0.86678 0.55835 -0.08000
C 	C 	0.25068 0.88512 0.51110 -0.02400
C 	C 	0.28162 0.88807 0.47924 0.03600
S 	S 	0.29387 0.84250 0.64125 -0.02800
S 	S 	0.27640 0.90688 0.41738 -0.07600
H 	H 	0.28371 0.94409 0.41883 0.05000
H 	H 	0.29872 0.87242 0.67280 0.03900
H 	H 	0.34628 0.85196 0.56003 0.04200
H 	H 	0.22388 0.89363 0.49689 0.03800
C 	C 	0.53961 0.21560 0.68249 -0.08000
C 	C 	0.52239 0.21978 0.63455 -0.02000
C 	C 	0.49093 0.24218 0.62930 0.03800
C 	C 	0.47667 0.26096 0.67226 -0.07900
C 	C 	0.49479 0.25799 0.71946 -0.02000
C 	C 	0.52594 0.23560 0.72482 0.04000
S 	S 	0.46968 0.24629 0.56894 -0.04500
S 	S 	0.54701 0.23234 0.78524 -0.01700
H 	H 	0.56811 0.26330 0.79309 0.03900
H 	H 	0.48453 0.27586 0.54331 0.03600
H 	H 	0.53244 0.20421 0.60188 0.04000
H 	H 	0.48501 0.27374 0.75204 0.05700
C 	C 	0.44222 0.11332 0.94155 -0.07300
C 	C 	0.47854 0.10014 0.94258 -0.02500
C 	C 	0.49666 0.09087 0.89708 0.04000
C 	C 	0.47808 0.09406 0.84981 -0.07500
C 	C 	0.44182 0.10759 0.84865 -0.02500
C 	C 	0.42380 0.11727 0.89427 0.03400
S 	S 	0.54339 0.07777 0.89945 -0.06000
S 	S 	0.37812 0.13378 0.89173 -0.07000
H 	H 	0.35415 0.10467 0.89682 0.03100
H 	H 	0.56441 0.10876 0.89158 0.03800
H 	H 	0.49288 0.09752 0.97885 0.04100
H 	H 	0.42776 0.11088 0.81228 0.03700
C 	C 	0.62229 0.97500 0.75366 -0.08000
C 	C 	0.61417 0.93896 0.73710 -0.02500
C 	C 	0.61900 0.90880 0.77026 0.03800
C 	C 	0.63251 0.91475 0.82027 -0.07300
C 	C 	0.64519 0.94997 0.83418 -0.03000
C 	C 	0.64048 0.98004 0.80088 0.04100
S 	S 	0.60786 0.86393 0.74891 -0.04200
S 	S 	0.65630 0.02411 0.81932 -0.06700
H 	H 	0.69150 0.02922 0.80158 0.03600
H 	H 	0.63870 0.84762 0.72859 0.04200
H 	H 	0.60143 0.93472 0.69997 0.04600
H 	H 	0.65743 0.95429 0.87161 0.03500
C 	C 	0.51798 0.00043 0.56657 -0.08200
C 	C 	0.52475 0.96447 0.54890 -0.01800
C 	C 	0.50905 0.95220 0.50301 0.03400
C 	C 	0.48567 0.97584 0.47480 -0.08200
C 	C 	0.47945 0.01203 0.49199 -0.01800
C 	C 	0.49522 0.02435 0.53783 0.03400
S 	S 	0.51913 0.90726 0.48085 -0.07800
S 	S 	0.48550 0.06947 0.55962 -0.07400
H 	H 	0.45522 0.06857 0.59101 0.02600
H 	H 	0.54924 0.90858 0.44918 0.02700
H 	H 	0.54313 0.94639 0.57008 0.04700
H 	H 	0.46102 0.03009 0.47085 0.04700
C 	C 	0.63036 0.17666 0.85406 -0.07300
C 	C 	0.62999 0.21539 0.85350 -0.02300
C 	C 	0.63861 0.23536 0.89762 0.04200
C 	C 	0.64959 0.21648 0.94231 -0.07900
C 	C 	0.65269 0.17781 0.94183 -0.02500
C 	C 	0.64365 0.15779 0.89762 0.03400
S 	S 	0.63543 0.28402 0.89654 -0.05800
S 	S 	0.65186 0.10977 0.89599 -0.06000
H 	H 	0.62580 0.09152 0.92430 0.03400
H 	H 	0.66894 0.29874 0.88336 0.03500
H 	H 	0.62385 0.22999 0.81831 0.04400
H 	H 	0.66195 0.16331 0.97586 0.03100
C 	C 	0.68121 0.11074 0.56131 -0.08000
C 	C 	0.67418 0.12400 0.51182 -0.02000
C 	C 	0.70331 0.13517 0.48015 0.03400
C 	C 	0.73993 0.13341 0.49835 -0.07400
C 	C 	0.74707 0.11736 0.54625 -0.02900
C 	C 	0.71793 0.10604 0.57781 0.03700
S 	S 	0.69345 0.15288 0.41879 -0.02600
S 	S 	0.72773 0.08764 0.63879 -0.08900
H 	H 	0.73026 0.04986 0.63543 0.04700
H 	H 	0.68933 0.19054 0.42171 0.03500
H 	H 	0.64596 0.12688 0.49863 0.04200
H 	H 	0.77522 0.11538 0.56001 0.02900
