data_crystal

_cell_length_a 26.99341
_cell_length_b 24.00168
_cell_length_c 37.34154
_cell_angle_alpha 86.90629
_cell_angle_beta  88.46008
_cell_angle_gamma 122.80111

_symmetry_space_group_name_	'P 1'
_symmetry_space_group_name_H-M	'P 1'

loop_
_symmetry_equiv_pos_as_xyz
  x,y,z

loop_
_atom_site_label
_atom_site_type_symbol
_atom_site_fract_x
_atom_site_fract_y
_atom_site_fract_z
_atom_site_charge
Zn	Zn	0.95223 0.91476 0.30675 1.23100
Zn	Zn	0.06663 0.90061 0.27792 1.24500
C 	C 	0.01855 0.93219 0.42907 0.35200
Zn	Zn	0.03967 0.90338 0.35596 1.23500
Zn	Zn	0.91266 0.87668 0.38831 1.22500
H 	H 	0.07040 0.99530 0.30992 0.26200
C 	C 	0.01347 0.77767 0.33327 0.33200
O 	O 	0.84472 0.87792 0.37208 -0.33600
O 	O 	0.85971 0.87618 0.31149 -0.33500
O 	O 	0.04202 0.94669 0.30992 -0.75500
O 	O 	0.01101 0.87734 0.23933 -0.30000
O 	O 	0.96748 0.00144 0.31756 -0.41200
O 	O 	0.94384 0.90301 0.25453 -0.35300
O 	O 	0.96765 0.98561 0.37854 -0.30700
O 	O 	0.13179 0.89857 0.29980 -0.33500
H 	H 	0.92532 0.81009 0.34358 0.21500
O 	O 	0.13267 0.94707 0.35112 -0.28100
O 	O 	0.94809 0.85773 0.34816 -0.79000
O 	O 	0.96287 0.88360 0.42816 -0.40700
O 	O 	0.02945 0.81567 0.36015 -0.35700
O 	O 	0.05554 0.95016 0.40072 -0.31900
O 	O 	0.00565 0.79886 0.30197 -0.32500
C 	C 	0.83362 0.88555 0.33873 0.32500
C 	C 	0.98757 0.91228 0.23284 0.25600
C 	C 	0.96810 0.02075 0.34995 0.30200
C 	C 	0.15654 0.92507 0.32953 0.31200
Zn	Zn	0.91136 0.38588 0.32560 1.23100
Zn	Zn	0.03125 0.39682 0.28584 1.23200
C 	C 	0.00026 0.41663 0.44387 0.36000
Zn	Zn	0.01278 0.39251 0.36739 1.23500
Zn	Zn	0.89014 0.37104 0.40635 1.22300
H 	H 	0.02773 0.48142 0.32197 0.22600
C 	C 	0.99259 0.27344 0.33743 0.28900
O 	O 	0.82354 0.37832 0.39116 -0.33500
O 	O 	0.81904 0.33830 0.33675 -0.35000
O 	O 	0.00387 0.43224 0.32291 -0.76600
O 	O 	0.97440 0.37409 0.24736 -0.34300
O 	O 	0.92089 0.47230 0.33173 -0.37800
O 	O 	0.89067 0.35007 0.27877 -0.38000
O 	O 	0.95071 0.47704 0.38898 -0.35700
O 	O 	0.10233 0.40052 0.30225 -0.34700
H 	H 	0.89694 0.29211 0.36699 0.22800
O 	O 	0.10628 0.44345 0.35619 -0.31100
O 	O 	0.91942 0.34100 0.36788 -0.78900
O 	O 	0.94229 0.37767 0.44487 -0.37600
O 	O 	0.00840 0.30787 0.36596 -0.32800
O 	O 	0.03275 0.43777 0.41313 -0.36300
O 	O 	0.97693 0.29392 0.30904 -0.32600
C 	C 	0.79924 0.36156 0.36024 0.32500
C 	C 	0.92709 0.37696 0.24995 0.31600
C 	C 	0.94283 0.50542 0.36027 0.30800
C 	C 	0.12975 0.42582 0.33146 0.31400
Zn	Zn	0.47676 0.95047 0.32137 1.23200
Zn	Zn	0.60122 0.98419 0.28104 1.22400
C 	C 	0.56228 0.98364 0.44002 0.30900
Zn	Zn	0.58056 0.96459 0.36391 1.23400
Zn	Zn	0.45895 0.95606 0.40053 1.22700
H 	H 	0.58988 0.05777 0.32319 0.21800
C 	C 	0.55707 0.84955 0.32655 0.30400
O 	O 	0.38408 0.94169 0.38332 -0.35200
O 	O 	0.38388 0.89340 0.33215 -0.29800
O 	O 	0.57027 0.00924 0.32178 -0.79100
O 	O 	0.54615 0.97082 0.24238 -0.36200
O 	O 	0.47452 0.03155 0.31738 -0.37200
O 	O 	0.46095 0.90337 0.27760 -0.34200
O 	O 	0.50557 0.05600 0.37364 -0.34100
O 	O 	0.67286 0.98663 0.29445 -0.33600
H 	H 	0.46510 0.86820 0.36988 0.22800
O 	O 	0.67346 0.01489 0.35200 -0.35400
O 	O 	0.48822 0.91743 0.36721 -0.77900
O 	O 	0.52253 0.99813 0.43413 -0.36200
O 	O 	0.57374 0.88055 0.35620 -0.38600
O 	O 	0.60018 0.99247 0.41367 -0.34500
O 	O 	0.54809 0.87702 0.29788 -0.31500
C 	C 	0.35834 0.91252 0.35430 0.31100
C 	C 	0.48808 0.93384 0.24627 0.33900
C 	C 	0.48964 0.07088 0.34358 0.31300
C 	C 	0.69583 0.99862 0.32592 0.33400
Zn	Zn	0.46534 0.46655 0.29681 1.23500
Zn	Zn	0.58430 0.46010 0.26583 1.24000
C 	C 	0.53428 0.47901 0.41948 0.34200
Zn	Zn	0.55492 0.45646 0.34518 1.22700
Zn	Zn	0.43265 0.43854 0.37735 1.21900
H 	H 	0.58360 0.54919 0.29933 0.24800
C 	C 	0.53760 0.33576 0.31992 0.30500
O 	O 	0.37364 0.45599 0.36042 -0.36600
O 	O 	0.37220 0.42704 0.30292 -0.31300
O 	O 	0.55607 0.50042 0.29934 -0.76100
O 	O 	0.52393 0.42838 0.23020 -0.35200
O 	O 	0.48128 0.55438 0.30681 -0.33800
O 	O 	0.45385 0.44975 0.24547 -0.33200
O 	O 	0.49926 0.54533 0.36566 -0.34500
O 	O 	0.65442 0.46558 0.28553 -0.31700
H 	H 	0.43892 0.36254 0.33510 0.21900
O 	O 	0.64788 0.50103 0.34011 -0.33300
O 	O 	0.46280 0.41077 0.33830 -0.78300
O 	O 	0.47782 0.43494 0.41742 -0.37600
O 	O 	0.54651 0.36931 0.34831 -0.39100
O 	O 	0.57067 0.50172 0.39052 -0.37600
O 	O 	0.52918 0.35755 0.28917 -0.33200
C 	C 	0.34838 0.44004 0.32984 0.31800
C 	C 	0.49688 0.45907 0.22324 0.29900
C 	C 	0.49783 0.58049 0.33775 0.31300
C 	C 	0.67224 0.47998 0.31824 0.32200
Zn	Zn	0.06690 0.15071 0.96865 1.23600
Zn	Zn	0.05863 0.02156 0.93584 1.21600
C 	C 	0.04982 0.05318 0.09259 0.31300
Zn	Zn	0.02968 0.02217 0.01660 1.24000
Zn	Zn	0.07541 0.17260 0.04813 1.21900
H 	H 	0.12845 0.09217 0.98245 0.25900
C 	C 	0.92955 0.95735 0.97086 0.30800
O 	O 	0.08609 0.25552 0.02631 -0.38400
O 	O 	0.04667 0.22400 0.97207 -0.27600
O 	O 	0.08768 0.07739 0.97688 -0.78400
O 	O 	0.07337 0.08977 0.89700 -0.39400
O 	O 	0.15114 0.22303 0.96461 -0.34400
O 	O 	0.02469 0.13091 0.92422 -0.32500
O 	O 	0.16256 0.20315 0.02335 -0.33600
O 	O 	0.02851 0.92803 0.95141 -0.39700
H 	H 	0.98408 0.09665 0.01593 0.24000
O 	O 	0.04227 0.94293 0.01095 -0.29100
O 	O 	0.02471 0.10622 0.01507 -0.76900
O 	O 	0.08681 0.11797 0.08546 -0.36700
O 	O 	0.94692 0.96462 0.00387 -0.33000
O 	O 	0.04171 0.01206 0.06800 -0.31700
O 	O 	0.96682 0.99461 0.94327 -0.36000
C 	C 	0.05181 0.25409 0.00142 0.31400
C 	C 	0.04079 0.11501 0.89503 0.32500
C 	C 	0.18488 0.23670 0.99169 0.31500
C 	C 	0.02039 0.90335 0.98492 0.32400
Zn	Zn	0.86886 0.50089 0.98626 1.23800
Zn	Zn	0.83103 0.34566 0.96581 1.22500
C 	C 	0.85651 0.42921 0.11557 0.34100
Zn	Zn	0.83502 0.38317 0.04321 1.23600
Zn	Zn	0.85057 0.52295 0.06421 1.21600
H 	H 	0.91971 0.43235 0.99717 0.25900
C 	C 	0.71925 0.29164 0.01862 0.31000
O 	O 	0.88226 0.61173 0.04001 -0.41500
O 	O 	0.85236 0.57791 0.98429 -0.30200
O 	O 	0.87848 0.42035 0.99608 -0.77400
O 	O 	0.82226 0.39025 0.92180 -0.33500
O 	O 	0.95305 0.56616 0.99510 -0.33700
O 	O 	0.85109 0.49486 0.93522 -0.33500
O 	O 	0.93970 0.54235 0.05624 -0.35300
O 	O 	0.81915 0.26777 0.99490 -0.37600
H 	H 	0.77313 0.43887 0.02488 0.25900
O 	O 	0.85716 0.31094 0.04759 -0.28500
O 	O 	0.81463 0.45474 0.02914 -0.78200
O 	O 	0.83733 0.46876 0.11023 -0.37800
O 	O 	0.75116 0.31019 0.04677 -0.33200
O 	O 	0.87502 0.41122 0.08835 -0.35500
O 	O 	0.74342 0.32019 0.98623 -0.33500
C 	C 	0.87564 0.62491 0.00650 0.30700
C 	C 	0.85538 0.45516 0.91415 0.30700
C 	C 	0.97472 0.57483 0.02701 0.28600
C 	C 	0.85401 0.27615 0.02082 0.32000
Zn	Zn	0.37157 0.99698 0.99062 1.23700
Zn	Zn	0.33297 0.84107 0.97004 1.23000
C 	C 	0.37078 0.93314 0.11946 0.32600
Zn	Zn	0.33783 0.87810 0.04797 1.23000
Zn	Zn	0.35271 0.01741 0.06946 1.22700
H 	H 	0.42184 0.92793 0.00174 0.26600
C 	C 	0.22138 0.78597 0.02314 0.31100
O 	O 	0.38311 0.10693 0.04664 -0.36200
O 	O 	0.35787 0.07659 0.98961 -0.34000
O 	O 	0.38055 0.91567 0.00054 -0.76800
O 	O 	0.32294 0.88606 0.92696 -0.34000
O 	O 	0.45530 0.06109 0.99870 -0.37500
O 	O 	0.35659 0.99274 0.93879 -0.35400
O 	O 	0.44242 0.03860 0.05987 -0.33000
O 	O 	0.32166 0.76318 0.99867 -0.37400
H 	H 	0.27597 0.93444 0.02956 0.26200
O 	O 	0.35985 0.80532 0.05141 -0.30800
O 	O 	0.31748 0.95042 0.03384 -0.77300
O 	O 	0.34102 0.96127 0.11437 -0.33000
O 	O 	0.25323 0.80452 0.05141 -0.35700
O 	O 	0.38052 0.90527 0.09309 -0.36300
O 	O 	0.24556 0.81517 0.99088 -0.33900
C 	C 	0.38055 0.12244 0.01274 0.32100
C 	C 	0.35905 0.95044 0.91884 0.29800
C 	C 	0.47684 0.07183 0.03056 0.30900
C 	C 	0.35745 0.77202 0.02405 0.32300
Zn	Zn	0.56601 0.64733 0.95684 1.23500
Zn	Zn	0.54725 0.51242 0.92429 1.21800
C 	C 	0.57309 0.56591 0.07823 0.30200
Zn	Zn	0.54241 0.52393 0.00592 1.23700
Zn	Zn	0.58855 0.67787 0.03499 1.21700
H 	H 	0.63161 0.59187 0.96210 0.25500
C 	C 	0.42928 0.45254 0.97249 0.30900
O 	O 	0.59418 0.75750 0.01312 -0.39100
O 	O 	0.54326 0.71827 0.96312 -0.28200
O 	O 	0.58922 0.57552 0.96139 -0.77600
O 	O 	0.55017 0.57254 0.88403 -0.39400
O 	O 	0.64998 0.72241 0.94795 -0.32900
O 	O 	0.51398 0.62212 0.91669 -0.34100
O 	O 	0.67076 0.70644 0.00496 -0.35100
O 	O 	0.52186 0.42099 0.94203 -0.37900
H 	H 	0.49239 0.59416 0.00915 0.25900
O 	O 	0.55577 0.44555 0.99813 -0.32300
O 	O 	0.53353 0.60587 0.00551 -0.77600
O 	O 	0.60914 0.63013 0.06998 -0.38700
O 	O 	0.45688 0.46089 0.00220 -0.34400
O 	O 	0.56814 0.52356 0.05527 -0.33000
O 	O 	0.45844 0.48705 0.94199 -0.35700
C 	C 	0.55394 0.75150 0.99177 0.32400
C 	C 	0.52411 0.60544 0.88576 0.33200
C 	C 	0.68785 0.73927 0.97304 0.31100
C 	C 	0.52819 0.40200 0.97432 0.32600
Zn	Zn	0.97856 0.08471 0.67830 1.23300
Zn	Zn	0.11012 0.12514 0.71089 1.22500
C 	C 	0.04118 0.04565 0.56175 0.33300
Zn	Zn	0.08531 0.09942 0.63238 1.23300
Zn	Zn	0.96756 0.08671 0.59652 1.20900
H 	H 	0.03195 0.01816 0.68568 0.27500
C 	C 	0.17628 0.23294 0.64659 0.30700
O 	O 	0.88695 0.06237 0.61438 -0.40800
O 	O 	0.91580 0.10941 0.66730 -0.31700
O 	O 	0.04591 0.06556 0.68061 -0.77000
O 	O 	0.07428 0.16148 0.74044 -0.39700
O 	O 	0.91605 0.98843 0.67615 -0.30600
O 	O 	0.97988 0.11880 0.72545 -0.33000
O 	O 	0.94296 0.98838 0.61784 -0.34200
O 	O 	0.17949 0.12481 0.69475 -0.40100
H 	H 	0.04355 0.18084 0.63216 0.21800
O 	O 	0.14560 0.06974 0.64370 -0.27700
O 	O 	0.02585 0.13227 0.63291 -0.76600
O 	O 	0.01857 0.08232 0.55839 -0.38400
O 	O 	0.15472 0.19111 0.62150 -0.34600
O 	O 	0.06271 0.04034 0.59213 -0.32200
O 	O 	0.14594 0.21782 0.67764 -0.37400
C 	C 	0.87374 0.07451 0.64606 0.30000
C 	C 	0.01759 0.12772 0.74956 0.34500
C 	C 	0.90644 0.95784 0.64645 0.31200
C 	C 	0.18127 0.08826 0.67033 0.33300
Zn	Zn	0.93183 0.52020 0.69604 1.22800
Zn	Zn	0.06709 0.57239 0.72965 1.21800
C 	C 	0.01567 0.50692 0.57801 0.36000
Zn	Zn	0.04477 0.54901 0.65101 1.23100
Zn	Zn	0.92462 0.52256 0.61415 1.22300
H 	H 	0.99453 0.46311 0.70276 0.19300
C 	C 	0.12324 0.68512 0.66761 0.30200
O 	O 	0.84431 0.49614 0.63092 -0.35800
O 	O 	0.86552 0.54089 0.68527 -0.29700
O 	O 	0.00478 0.50940 0.69866 -0.75700
O 	O 	0.02176 0.59237 0.76404 -0.32400
O 	O 	0.87314 0.42352 0.69264 -0.37600
O 	O 	0.92951 0.54975 0.74416 -0.31800
O 	O 	0.90270 0.42390 0.63462 -0.33600
O 	O 	0.14476 0.59029 0.71158 -0.36400
H 	H 	0.99236 0.61876 0.65081 0.23800
O 	O 	0.11342 0.53248 0.66139 -0.33900
O 	O 	0.97895 0.57128 0.65146 -0.79000
O 	O 	0.97861 0.52627 0.57495 -0.37300
O 	O 	0.10687 0.64418 0.64202 -0.38000
O 	O 	0.02871 0.49398 0.60982 -0.38700
O 	O 	0.09185 0.66482 0.69867 -0.31200
C 	C 	0.83199 0.52061 0.65783 0.31300
C 	C 	0.96390 0.55501 0.76997 0.27400
C 	C 	0.86668 0.39206 0.66350 0.30800
C 	C 	0.15598 0.56949 0.68234 0.31800
Zn	Zn	0.45671 0.01851 0.70244 1.22700
Zn	Zn	0.56837 0.00947 0.73781 1.21000
C 	C 	0.52878 0.99750 0.58256 0.35000
Zn	Zn	0.55184 0.00976 0.65791 1.22900
Zn	Zn	0.45755 0.03993 0.62005 1.22600
H 	H 	0.48080 0.92381 0.70510 0.20500
C 	C 	0.65447 0.12883 0.68233 0.29600
O 	O 	0.38903 0.04254 0.63516 -0.38600
O 	O 	0.41255 0.06909 0.69295 -0.30000
O 	O 	0.50488 0.97303 0.70363 -0.78000
O 	O 	0.53974 0.04544 0.77474 -0.35700
O 	O 	0.38223 0.93310 0.69608 -0.40200
O 	O 	0.46264 0.04693 0.75169 -0.33300
O 	O 	0.40426 0.93312 0.63668 -0.31600
O 	O 	0.63000 0.99383 0.71948 -0.35700
H 	H 	0.53810 0.11329 0.66140 0.23600
O 	O 	0.58968 0.95323 0.66659 -0.31300
O 	O 	0.51171 0.06476 0.65963 -0.77800
O 	O 	0.49855 0.02563 0.57967 -0.35600
O 	O 	0.63249 0.09160 0.65520 -0.35000
O 	O 	0.52611 0.96546 0.61293 -0.35200
O 	O 	0.62240 0.11211 0.71293 -0.31700
C 	C 	0.38012 0.06149 0.66566 0.31700
C 	C 	0.48558 0.03244 0.77860 0.29700
C 	C 	0.36539 0.90884 0.66468 0.29200
C 	C 	0.63273 0.97232 0.68808 0.30300
Zn	Zn	0.47345 0.62091 0.66906 1.23300
Zn	Zn	0.59031 0.62038 0.70227 1.21400
C 	C 	0.53382 0.58471 0.55022 0.33500
Zn	Zn	0.56661 0.60944 0.62411 1.23300
Zn	Zn	0.46667 0.63342 0.58779 1.22800
H 	H 	0.49962 0.52725 0.67436 0.22900
C 	C 	0.66720 0.73320 0.64368 0.31600
O 	O 	0.39638 0.63349 0.60618 -0.32200
O 	O 	0.43370 0.67574 0.65912 -0.35800
O 	O 	0.52273 0.57644 0.67107 -0.77700
O 	O 	0.56445 0.66001 0.73722 -0.39800
O 	O 	0.39714 0.53378 0.66427 -0.32900
O 	O 	0.48237 0.65340 0.71745 -0.35900
O 	O 	0.41918 0.52746 0.60559 -0.36200
O 	O 	0.65393 0.60992 0.68246 -0.40100
H 	H 	0.55117 0.71229 0.62533 0.25400
O 	O 	0.60701 0.55485 0.63363 -0.31700
O 	O 	0.52546 0.66335 0.62506 -0.77500
O 	O 	0.50692 0.61698 0.54735 -0.32700
O 	O 	0.64661 0.69224 0.61809 -0.31300
O 	O 	0.53591 0.55903 0.58171 -0.38600
O 	O 	0.63487 0.71861 0.67376 -0.38000
C 	C 	0.39342 0.65931 0.63581 0.33200
C 	C 	0.50955 0.64280 0.74311 0.31200
C 	C 	0.38344 0.50121 0.63497 0.30200
C 	C 	0.64858 0.57261 0.65635 0.31600
C 	C 	0.80776 0.28027 0.69680 0.07400
C 	C 	0.82030 0.31952 0.66443 0.02300
C 	C 	0.78148 0.29218 0.63630 -0.06500
C 	C 	0.72595 0.23226 0.64381 0.06300
C 	C 	0.71240 0.19399 0.67667 0.03700
C 	C 	0.75570 0.21629 0.70255 -0.08100
C 	C 	0.74721 0.17264 0.73613 0.78600
H 	H 	0.83816 0.30036 0.71791 0.10100
H 	H 	0.69335 0.21493 0.62388 0.13500
C 	C 	0.79995 0.32405 0.59804 0.78200
F 	F 	0.79911 0.19783 0.75341 -0.38400
F 	F 	0.72989 0.10982 0.72721 -0.43300
F 	F 	0.70504 0.16864 0.75989 -0.40200
F 	F 	0.85404 0.33451 0.58739 -0.41400
F 	F 	0.80373 0.38386 0.59583 -0.42400
F 	F 	0.75975 0.28386 0.57410 -0.36500
C 	C 	0.26004 0.84861 0.68886 0.05800
C 	C 	0.30088 0.85866 0.66088 0.01000
C 	C 	0.27926 0.81975 0.63086 -0.07400
C 	C 	0.22130 0.76250 0.63386 0.05300
C 	C 	0.18124 0.75082 0.66276 0.03100
C 	C 	0.19953 0.79935 0.68810 -0.07400
C 	C 	0.15554 0.80095 0.71357 0.79000
H 	H 	0.27507 0.88074 0.71075 0.09900
H 	H 	0.20726 0.72728 0.61352 0.12800
C 	C 	0.31438 0.84182 0.59475 0.78200
F 	F 	0.17836 0.86459 0.72391 -0.38300
F 	F 	0.14323 0.75914 0.74411 -0.40100
F 	F 	0.10381 0.78186 0.69721 -0.36000
F 	F 	0.36098 0.83325 0.59641 -0.39700
F 	F 	0.33533 0.90784 0.58519 -0.41500
F 	F 	0.27969 0.80533 0.56776 -0.35400
C 	C 	0.78448 0.57325 0.62895 0.07100
C 	C 	0.78206 0.52896 0.65600 0.02800
C 	C 	0.73117 0.49127 0.67986 -0.06400
C 	C 	0.68655 0.50474 0.67875 0.06800
C 	C 	0.69009 0.55117 0.65258 0.02100
C 	C 	0.73793 0.58314 0.62613 -0.07100
C 	C 	0.74138 0.63090 0.59626 0.78800
H 	H 	0.82323 0.60071 0.61036 0.10300
H 	H 	0.64964 0.48035 0.69877 0.10300
C 	C 	0.72498 0.43804 0.70701 0.77900
F 	F 	0.78662 0.64903 0.57057 -0.38100
F 	F 	0.75166 0.68780 0.61060 -0.41000
F 	F 	0.68922 0.60169 0.57910 -0.40200
F 	F 	0.76364 0.46775 0.73362 -0.38200
F 	F 	0.73755 0.39659 0.69029 -0.41000
F 	F 	0.66820 0.39903 0.72297 -0.38500
C 	C 	0.23681 0.61655 0.63400 0.06800
C 	C 	0.21814 0.59559 0.67051 0.02600
C 	C 	0.26047 0.60692 0.69574 -0.05700
C 	C 	0.32054 0.64280 0.68405 0.06800
C 	C 	0.33784 0.65443 0.64723 0.03600
C 	C 	0.29674 0.64786 0.62216 -0.05700
C 	C 	0.31554 0.67198 0.58281 0.78400
H 	H 	0.20471 0.60921 0.61484 0.10800
H 	H 	0.35332 0.65508 0.70353 0.10900
C 	C 	0.24214 0.57877 0.73472 0.78600
F 	F 	0.27933 0.69003 0.56793 -0.36400
F 	F 	0.31130 0.62151 0.56414 -0.37100
F 	F 	0.37295 0.72693 0.57866 -0.38500
F 	F 	0.19061 0.51612 0.73726 -0.38600
F 	F 	0.23382 0.62088 0.75410 -0.41000
F 	F 	0.28518 0.57263 0.75021 -0.36600
C 	C 	0.81444 0.89312 0.61461 0.06900
C 	C 	0.84871 0.89551 0.64286 0.03600
C 	C 	0.82558 0.84048 0.66866 -0.06300
C 	C 	0.76552 0.78921 0.66907 0.07500
C 	C 	0.73024 0.78812 0.64179 0.03400
C 	C 	0.75525 0.83969 0.61365 -0.06800
C 	C 	0.72039 0.83613 0.58165 0.78500
H 	H 	0.83367 0.93370 0.59376 0.09800
H 	H 	0.74625 0.74942 0.69041 0.09400
C 	C 	0.86400 0.83647 0.69627 0.78200
F 	F 	0.74929 0.89516 0.55996 -0.37000
F 	F 	0.66569 0.82319 0.59306 -0.40000
F 	F 	0.71288 0.78608 0.56122 -0.34800
F 	F 	0.86628 0.87144 0.72504 -0.35400
F 	F 	0.92068 0.86253 0.68152 -0.37500
F 	F 	0.84124 0.77109 0.70874 -0.37700
C 	C 	0.33214 0.38213 0.62132 0.06200
C 	C 	0.32879 0.43310 0.63548 0.02900
C 	C 	0.27285 0.41958 0.64798 -0.07400
C 	C 	0.22363 0.35384 0.65088 0.06600
C 	C 	0.22700 0.30247 0.63766 0.01700
C 	C 	0.28104 0.31748 0.62048 -0.07800
C 	C 	0.28341 0.26726 0.59870 0.78800
H 	H 	0.37444 0.39314 0.61049 0.10600
H 	H 	0.18207 0.34245 0.66331 0.10400
C 	C 	0.26425 0.47518 0.65511 0.78000
F 	F 	0.33990 0.29170 0.58412 -0.38900
F 	F 	0.24664 0.25178 0.57072 -0.39500
F 	F 	0.26562 0.21015 0.62019 -0.43300
F 	F 	0.28670 0.52058 0.62547 -0.42800
F 	F 	0.29266 0.50499 0.68524 -0.40100
F 	F 	0.20517 0.45273 0.66087 -0.41300
C 	C 	0.77087 0.03274 0.63079 0.04500
C 	C 	0.81074 0.04705 0.65760 0.02100
C 	C 	0.78814 0.02500 0.69417 -0.09000
C 	C 	0.72671 0.98397 0.70179 0.08800
C 	C 	0.68801 0.97736 0.67579 0.01800
C 	C 	0.70954 0.99377 0.63917 -0.06800
C 	C 	0.66821 0.96789 0.60897 0.79100
H 	H 	0.78769 0.05021 0.60307 0.11700
H 	H 	0.70896 0.96334 0.72906 0.11800
C 	C 	0.82806 0.04871 0.72524 0.79100
F 	F 	0.69702 0.96795 0.57772 -0.37100
F 	F 	0.64739 0.00837 0.60208 -0.43700
F 	F 	0.62144 0.90317 0.61794 -0.40600
F 	F 	0.86331 0.11745 0.72278 -0.39200
F 	F 	0.86237 0.02231 0.72492 -0.41700
F 	F 	0.79606 0.02863 0.75817 -0.37600
C 	C 	0.28687 0.13332 0.67775 0.08000
C 	C 	0.23155 0.08004 0.66895 0.03500
C 	C 	0.22448 0.01887 0.66158 -0.07600
C 	C 	0.27361 0.01334 0.66249 0.06300
C 	C 	0.32913 0.06733 0.67018 0.02200
C 	C 	0.33634 0.12849 0.67715 -0.06400
C 	C 	0.39659 0.18861 0.68409 0.78200
H 	H 	0.29136 0.17909 0.68456 0.12300
H 	H 	0.26938 0.96757 0.65599 0.11000
C 	C 	0.16579 0.96062 0.65098 0.79900
F 	F 	0.39559 0.24554 0.68541 -0.39200
F 	F 	0.43791 0.20061 0.65693 -0.40200
F 	F 	0.41409 0.17706 0.71661 -0.36500
F 	F 	0.15460 0.97540 0.61704 -0.36100
F 	F 	0.12048 0.94730 0.67541 -0.37300
F 	F 	0.16624 0.90334 0.65008 -0.37600
C 	C 	0.46158 0.56086 0.83440 0.07500
C 	C 	0.49935 0.61585 0.85341 0.01500
C 	C 	0.52100 0.68075 0.83785 -0.07700
C 	C 	0.51527 0.68951 0.80100 0.07100
C 	C 	0.48738 0.63443 0.78048 0.01400
C 	C 	0.45330 0.57003 0.79813 -0.08700
C 	C 	0.41409 0.51042 0.77736 0.77900
H 	H 	0.44198 0.51104 0.84714 0.09700
H 	H 	0.53752 0.73910 0.78755 0.09800
C 	C 	0.55057 0.74019 0.86023 0.78500
F 	F 	0.37111 0.45739 0.80008 -0.38600
F 	F 	0.44800 0.49144 0.76011 -0.45300
F 	F 	0.38598 0.52597 0.75205 -0.39900
F 	F 	0.60182 0.74874 0.87280 -0.40900
F 	F 	0.51248 0.72984 0.88904 -0.37400
F 	F 	0.56509 0.79824 0.84056 -0.38600
C 	C 	0.46502 0.71802 0.02991 0.07000
C 	C 	0.51024 0.76488 0.00488 0.00200
C 	C 	0.50629 0.81581 0.98750 -0.04300
C 	C 	0.45370 0.81397 0.99209 0.06800
C 	C 	0.40739 0.76558 0.01603 0.00500
C 	C 	0.41277 0.71694 0.03518 -0.05700
C 	C 	0.36292 0.66404 0.06110 0.77900
H 	H 	0.46947 0.68029 0.04382 0.07000
H 	H 	0.44902 0.85095 0.97762 0.09100
C 	C 	0.55711 0.87042 0.96282 0.77800
F 	F 	0.37277 0.61534 0.07287 -0.36400
F 	F 	0.31027 0.63351 0.04438 -0.36600
F 	F 	0.35777 0.69319 0.09071 -0.37400
F 	F 	0.55711 0.84646 0.92999 -0.34000
F 	F 	0.61042 0.89189 0.97770 -0.36200
F 	F 	0.55244 0.92481 0.95727 -0.33200
C 	C 	0.45835 0.21712 0.97298 0.06600
C 	C 	0.41229 0.19299 0.99969 0.02500
C 	C 	0.40510 0.23831 0.01830 -0.06100
C 	C 	0.44765 0.30663 0.01218 0.05500
C 	C 	0.49418 0.33072 0.98590 0.03100
C 	C 	0.50111 0.28557 0.96701 -0.07000
C 	C 	0.55259 0.30995 0.93951 0.78100
H 	H 	0.46265 0.18214 0.95820 0.09900
H 	H 	0.44307 0.34152 0.02675 0.12700
C 	C 	0.35431 0.21448 0.04629 0.78100
F 	F 	0.56379 0.26088 0.93460 -0.39900
F 	F 	0.60361 0.36445 0.95055 -0.39200
F 	F 	0.53934 0.32747 0.90699 -0.39300
F 	F 	0.37094 0.20449 0.07950 -0.38200
F 	F 	0.30427 0.15581 0.03796 -0.39600
F 	F 	0.33966 0.26134 0.04841 -0.39200
C 	C 	0.39316 0.02231 0.86108 0.04400
C 	C 	0.39462 0.97482 0.88388 0.03700
C 	C 	0.43125 0.95207 0.87352 -0.09000
C 	C 	0.45801 0.96926 0.83842 0.08700
C 	C 	0.45674 0.01670 0.81552 -0.00300
C 	C 	0.42770 0.04750 0.82817 -0.06100
C 	C 	0.43350 0.10712 0.80736 0.78200
H 	H 	0.36584 0.04042 0.86921 0.11500
H 	H 	0.48055 0.94622 0.82895 0.08400
C 	C 	0.44352 0.91141 0.89999 0.77600
F 	F 	0.42062 0.14256 0.82964 -0.38100
F 	F 	0.39444 0.08569 0.78044 -0.38700
F 	F 	0.49055 0.15020 0.79250 -0.37100
F 	F 	0.39518 0.84662 0.90441 -0.46900
F 	F 	0.45536 0.93876 0.93274 -0.45400
F 	F 	0.49209 0.91047 0.88810 -0.36500
C 	C 	0.64319 0.17169 0.01619 0.06900
C 	C 	0.65694 0.23528 0.02308 0.03500
C 	C 	0.61178 0.24380 0.03587 -0.06600
C 	C 	0.55336 0.18795 0.04138 0.06800
C 	C 	0.53938 0.12471 0.03342 0.02800
C 	C 	0.58494 0.11584 0.02211 -0.06500
C 	C 	0.57101 0.04763 0.01410 0.77700
H 	H 	0.67806 0.16583 0.00622 0.11900
H 	H 	0.51814 0.19395 0.05041 0.10700
C 	C 	0.62582 0.31213 0.04380 0.77800
F 	F 	0.62150 0.04601 0.01210 -0.36200
F 	F 	0.54526 0.03155 0.98160 -0.38400
F 	F 	0.53255 0.00017 0.04088 -0.42000
F 	F 	0.65567 0.35686 0.01419 -0.41800
F 	F 	0.66082 0.33361 0.07273 -0.40600
F 	F 	0.57518 0.31151 0.05201 -0.40500
C 	C 	0.14188 0.66561 0.02733 0.06500
C 	C 	0.15795 0.73187 0.02757 0.02600
C 	C 	0.11352 0.74604 0.03044 -0.07500
C 	C 	0.05360 0.69347 0.03127 0.06400
C 	C 	0.03754 0.62733 0.03032 0.04200
C 	C 	0.08188 0.61286 0.02904 -0.06900
C 	C 	0.06541 0.54172 0.02752 0.77700
H 	H 	0.17627 0.65538 0.02509 0.12200
H 	H 	0.01927 0.70396 0.03186 0.10100
C 	C 	0.12994 0.81712 0.03198 0.77800
F 	F 	0.11401 0.53687 0.03028 -0.36800
F 	F 	0.04116 0.51850 0.99523 -0.38800
F 	F 	0.02459 0.50161 0.05552 -0.41000
F 	F 	0.15949 0.85350 0.99993 -0.43300
F 	F 	0.16602 0.84574 0.05989 -0.42600
F 	F 	0.08067 0.82020 0.03763 -0.40000
C 	C 	0.87328 0.52434 0.85721 0.07200
C 	C 	0.88446 0.48181 0.87756 0.03200
C 	C 	0.92590 0.46819 0.86365 -0.07800
C 	C 	0.94991 0.49123 0.82800 0.06400
C 	C 	0.93850 0.53341 0.80758 0.02200
C 	C 	0.90293 0.55385 0.82324 -0.05600
C 	C 	0.89584 0.60628 0.80400 0.78100
H 	H 	0.84196 0.53510 0.86807 0.13800
H 	H 	0.97761 0.47636 0.81601 0.08100
C 	C 	0.94414 0.42858 0.88643 0.77600
F 	F 	0.87661 0.63395 0.82788 -0.35500
F 	F 	0.85473 0.57759 0.77851 -0.36700
F 	F 	0.94912 0.65741 0.78743 -0.36500
F 	F 	0.89891 0.36212 0.88956 -0.43700
F 	F 	0.95679 0.45151 0.92031 -0.44400
F 	F 	0.99418 0.43423 0.87121 -0.37400
C 	C 	0.76234 0.86028 0.97396 0.06400
C 	C 	0.74919 0.79731 0.96604 0.03400
C 	C 	0.79540 0.78939 0.95486 -0.08000
C 	C 	0.85447 0.84351 0.95519 0.06900
C 	C 	0.86771 0.90569 0.96476 0.02200
C 	C 	0.82132 0.91522 0.97252 -0.05900
C 	C 	0.83460 0.98284 0.98135 0.78400
H 	H 	0.72663 0.86592 0.98233 0.12800
H 	H 	0.89032 0.83673 0.94927 0.08600
C 	C 	0.78208 0.72254 0.94455 0.78100
F 	F 	0.78473 0.98561 0.98048 -0.35800
F 	F 	0.87699 0.03200 0.95665 -0.41500
F 	F 	0.85520 0.99558 0.01538 -0.38600
F 	F 	0.73791 0.69655 0.92072 -0.41700
F 	F 	0.76394 0.67907 0.97503 -0.44000
F 	F 	0.83127 0.72808 0.92809 -0.38800
C 	C 	0.26465 0.35474 0.99638 0.07400
C 	C 	0.24790 0.29138 0.98675 0.03700
C 	C 	0.29016 0.28244 0.96937 -0.06500
C 	C 	0.34888 0.33728 0.96273 0.06800
C 	C 	0.36572 0.40031 0.97296 0.02300
C 	C 	0.32261 0.41008 0.98807 -0.05600
C 	C 	0.33846 0.47900 0.99613 0.77800
H 	H 	0.23202 0.36112 0.00963 0.11900
H 	H 	0.38199 0.33077 0.95036 0.09000
C 	C 	0.27235 0.21529 0.95676 0.78000
F 	F 	0.28850 0.48122 0.00074 -0.36200
F 	F 	0.37405 0.52527 0.96812 -0.41200
F 	F 	0.36814 0.49640 0.02725 -0.37400
F 	F 	0.23621 0.20110 0.92855 -0.42600
F 	F 	0.24220 0.16621 0.98453 -0.41900
F 	F 	0.32094 0.21415 0.94520 -0.41300
C 	C 	0.89464 0.73381 0.01816 0.06300
C 	C 	0.89894 0.69423 0.99376 0.03400
C 	C 	0.94212 0.72555 0.96462 -0.07500
C 	C 	0.98826 0.79239 0.96582 0.04500
C 	C 	0.98709 0.83052 0.99269 0.02100
C 	C 	0.94291 0.79851 0.02141 -0.08800
C 	C 	0.95016 0.82925 0.05696 0.76900
H 	H 	0.85784 0.71078 0.03825 0.10800
H 	H 	0.02345 0.81601 0.94468 0.13300
C 	C 	0.93850 0.68896 0.93188 0.78300
F 	F 	0.91349 0.78173 0.08428 -0.40100
F 	F 	0.93594 0.87636 0.05405 -0.41700
F 	F 	0.00751 0.85823 0.06697 -0.36300
F 	F 	0.88066 0.64975 0.92265 -0.36900
F 	F 	0.96044 0.64952 0.93901 -0.43500
F 	F 	0.97111 0.73307 0.90244 -0.38200
C 	C 	0.94762 0.30921 0.98853 0.05200
C 	C 	0.90203 0.26595 0.01433 0.01000
C 	C 	0.90871 0.22298 0.03811 -0.05400
C 	C 	0.96265 0.22719 0.03694 0.04700
C 	C 	0.00753 0.26913 0.01048 0.02400
C 	C 	0.00162 0.31369 0.98761 -0.03300
C 	C 	0.05208 0.36454 0.96137 0.77600
H 	H 	0.94180 0.34155 0.97020 0.08500
H 	H 	0.96851 0.19475 0.05514 0.07500
C 	C 	0.85899 0.17379 0.06527 0.77700
F 	F 	0.04621 0.41701 0.95149 -0.33800
F 	F 	0.05254 0.33469 0.93084 -0.33700
F 	F 	0.10562 0.39033 0.97678 -0.36300
F 	F 	0.80536 0.14358 0.04964 -0.36400
F 	F 	0.85705 0.20685 0.09392 -0.36300
F 	F 	0.86703 0.12422 0.07815 -0.36500
C 	C 	0.01188 0.17090 0.80682 0.10800
C 	C 	0.99852 0.11615 0.78775 -0.01500
C 	C 	0.98109 0.05502 0.80671 -0.07900
C 	C 	0.98771 0.05341 0.84377 0.04900
C 	C 	0.01228 0.11177 0.86157 0.04200
C 	C 	0.01892 0.16938 0.84396 -0.08400
C 	C 	0.03437 0.22915 0.86445 0.80300
H 	H 	0.02175 0.21636 0.79215 0.11500
H 	H 	0.97905 0.00823 0.85818 0.08700
C 	C 	0.96411 0.99423 0.78685 0.78300
F 	F 	0.03568 0.27865 0.84277 -0.36700
F 	F 	0.08937 0.25556 0.87792 -0.38900
F 	F 	0.99244 0.20995 0.89255 -0.38000
F 	F 	0.01450 0.00076 0.77170 -0.44800
F 	F 	0.92748 0.98749 0.76003 -0.37200
F 	F 	0.93432 0.93671 0.80977 -0.37100
C 	C 	0.57357 0.57917 0.45292 0.07800
C 	C 	0.55449 0.51201 0.45287 0.01600
C 	C 	0.54288 0.47408 0.48584 -0.06900
C 	C 	0.53729 0.49908 0.51775 0.07600
C 	C 	0.54922 0.56383 0.51741 0.02200
C 	C 	0.57334 0.60647 0.48526 -0.05600
C 	C 	0.59642 0.67994 0.48473 0.78100
H 	H 	0.58510 0.60904 0.42757 0.12800
H 	H 	0.52148 0.46728 0.54260 0.11700
C 	C 	0.53224 0.40516 0.48695 0.78300
F 	F 	0.63728 0.71530 0.45594 -0.35000
F 	F 	0.62416 0.70607 0.51575 -0.36700
F 	F 	0.55010 0.68869 0.48149 -0.35700
F 	F 	0.56717 0.40202 0.46034 -0.39200
F 	F 	0.47347 0.35902 0.48203 -0.38700
F 	F 	0.54592 0.38886 0.51973 -0.37400
C 	C 	0.58492 0.57629 0.14366 0.07400
C 	C 	0.54935 0.54186 0.11587 0.00900
C 	C 	0.49006 0.48813 0.12444 -0.07800
C 	C 	0.47165 0.46281 0.16048 0.07900
C 	C 	0.50869 0.49525 0.18797 0.02400
C 	C 	0.56315 0.55622 0.17966 -0.09400
C 	C 	0.59960 0.59812 0.20916 0.78300
H 	H 	0.62955 0.61872 0.13723 0.10800
H 	H 	0.42937 0.41668 0.16707 0.12300
C 	C 	0.44671 0.45725 0.09555 0.78600
F 	F 	0.63849 0.66371 0.19610 -0.38000
F 	F 	0.63164 0.57347 0.22298 -0.49500
F 	F 	0.56332 0.59716 0.23642 -0.44900
F 	F 	0.45763 0.41565 0.07772 -0.42200
F 	F 	0.45207 0.50623 0.07141 -0.44000
F 	F 	0.38896 0.42035 0.11014 -0.37200
C 	C 	0.53415 0.92981 0.53662 0.08700
C 	C 	0.55728 0.99232 0.54985 0.04700
C 	C 	0.60084 0.05025 0.52850 -0.07200
C 	C 	0.61104 0.04524 0.49207 0.06500
C 	C 	0.57854 0.98387 0.47722 0.04100
C 	C 	0.54621 0.92511 0.50041 -0.08000
C 	C 	0.51839 0.85755 0.48577 0.78900
H 	H 	0.50327 0.88521 0.55363 0.13200
H 	H 	0.63881 0.09001 0.47441 0.11800
C 	C 	0.63131 0.11832 0.54298 0.78800
F 	F 	0.50895 0.80982 0.51246 -0.37400
F 	F 	0.55495 0.85906 0.45849 -0.39900
F 	F 	0.46483 0.83968 0.47243 -0.42300
F 	F 	0.64186 0.11480 0.57877 -0.41800
F 	F 	0.59612 0.14361 0.53944 -0.39900
F 	F 	0.68517 0.16178 0.52420 -0.37000
C 	C 	0.50092 0.73541 0.35599 0.08500
C 	C 	0.54009 0.77969 0.32768 0.03400
C 	C 	0.57003 0.76002 0.30505 -0.05700
C 	C 	0.56114 0.69689 0.31211 0.08400
C 	C 	0.52033 0.65171 0.33961 0.04300
C 	C 	0.49223 0.67244 0.36310 -0.05500
C 	C 	0.45210 0.62741 0.39529 0.78700
H 	H 	0.47815 0.75095 0.37303 0.10600
H 	H 	0.58369 0.68121 0.29499 0.12800
C 	C 	0.60986 0.80504 0.27276 0.78200
F 	F 	0.43561 0.66023 0.41719 -0.37500
F 	F 	0.48080 0.60532 0.41595 -0.41400
F 	F 	0.40143 0.57366 0.38363 -0.41000
F 	F 	0.65604 0.86380 0.28393 -0.42600
F 	F 	0.57786 0.81858 0.24963 -0.37400
F 	F 	0.63369 0.77602 0.25375 -0.36800
C 	C 	0.54043 0.18055 0.30899 0.07400
C 	C 	0.49940 0.13725 0.33673 0.02100
C 	C 	0.46803 0.15749 0.35751 -0.07000
C 	C 	0.48249 0.22324 0.35202 0.07300
C 	C 	0.52414 0.26714 0.32452 0.02100
C 	C 	0.55291 0.24529 0.30221 -0.08000
C 	C 	0.59786 0.29091 0.27183 0.78500
H 	H 	0.56309 0.16372 0.29286 0.09100
H 	H 	0.46058 0.24020 0.36876 0.10500
C 	C 	0.41698 0.10820 0.38393 0.78500
F 	F 	0.62252 0.26088 0.25472 -0.39600
F 	F 	0.64318 0.34736 0.28533 -0.43800
F 	F 	0.57129 0.30818 0.24632 -0.40600
F 	F 	0.43746 0.08721 0.41169 -0.41200
F 	F 	0.37620 0.05401 0.36643 -0.42900
F 	F 	0.38825 0.13580 0.39868 -0.38800
C 	C 	0.38881 0.87292 0.16828 0.07100
C 	C 	0.39314 0.93154 0.15521 0.03400
C 	C 	0.42482 0.98961 0.17427 -0.05600
C 	C 	0.45515 0.98858 0.20413 0.09800
C 	C 	0.45334 0.93108 0.21581 0.02100
C 	C 	0.41940 0.87226 0.19812 -0.04900
C 	C 	0.41541 0.80876 0.21111 0.77900
H 	H 	0.36269 0.82819 0.15448 0.12500
H 	H 	0.48030 0.03269 0.21855 0.09900
C 	C 	0.42474 0.05174 0.16391 0.77700
F 	F 	0.38587 0.75920 0.18798 -0.36300
F 	F 	0.38531 0.78572 0.24458 -0.36400
F 	F 	0.47146 0.82091 0.21352 -0.37100
F 	F 	0.36788 0.03758 0.16820 -0.38800
F 	F 	0.44637 0.07454 0.12866 -0.44000
F 	F 	0.45981 0.10285 0.18516 -0.38200
C 	C 	0.01548 0.42254 0.54254 0.09600
C 	C 	0.03479 0.48920 0.54564 0.00700
C 	C 	0.06223 0.53545 0.51519 -0.06800
C 	C 	0.05644 0.51164 0.48095 0.07800
C 	C 	0.02830 0.44324 0.47747 0.01500
C 	C 	0.01485 0.39979 0.50855 -0.05400
C 	C 	0.99528 0.32805 0.50561 0.74700
H 	H 	0.99739 0.38760 0.56621 0.09200
H 	H 	0.06972 0.54561 0.45707 0.11000
C 	C 	0.09395 0.60955 0.51873 0.78400
F 	F 	0.00991 0.30440 0.53544 -0.40000
F 	F 	0.02260 0.32213 0.47547 -0.37800
F 	F 	0.93473 0.28935 0.50342 -0.39800
F 	F 	0.12239 0.62605 0.55043 -0.40600
F 	F 	0.05361 0.62814 0.51842 -0.38900
F 	F 	0.13609 0.64499 0.49053 -0.37400
C 	C 	0.78593 0.43599 0.31909 0.08400
C 	C 	0.76323 0.38716 0.34806 0.03300
C 	C 	0.71192 0.37192 0.36854 -0.05600
C 	C 	0.68804 0.41070 0.36182 0.07600
C 	C 	0.71054 0.45912 0.33262 0.04200
C 	C 	0.76276 0.47547 0.31287 -0.05800
C 	C 	0.79334 0.53396 0.28466 0.78100
H 	H 	0.82350 0.44530 0.30236 0.09900
H 	H 	0.64964 0.40055 0.37796 0.11000
C 	C 	0.68248 0.31453 0.39746 0.78000
F 	F 	0.85310 0.55866 0.28040 -0.40000
F 	F 	0.78771 0.58513 0.29454 -0.40700
F 	F 	0.76869 0.51373 0.25213 -0.38700
F 	F 	0.71223 0.33453 0.42850 -0.37100
F 	F 	0.68303 0.26077 0.38634 -0.42100
F 	F 	0.62412 0.29355 0.40515 -0.39300
C 	C 	0.23468 0.48173 0.31007 0.06800
C 	C 	0.18864 0.43695 0.33532 0.04000
C 	C 	0.19592 0.39343 0.35841 -0.06400
C 	C 	0.24458 0.38814 0.35165 0.07800
C 	C 	0.29115 0.43346 0.32694 0.02800
C 	C 	0.28668 0.48155 0.30612 -0.06000
C 	C 	0.33779 0.53392 0.28068 0.78200
H 	H 	0.22918 0.51560 0.29289 0.11400
H 	H 	0.24810 0.35114 0.36726 0.10300
C 	C 	0.15145 0.35108 0.38960 0.78800
F 	F 	0.32350 0.57372 0.26145 -0.37100
F 	F 	0.35329 0.50366 0.25629 -0.39200
F 	F 	0.38577 0.57441 0.30010 -0.40000
F 	F 	0.10327 0.29579 0.37705 -0.40000
F 	F 	0.13319 0.38681 0.40717 -0.39800
F 	F 	0.17584 0.32973 0.41465 -0.38100
C 	C 	0.85862 0.33906 0.20096 0.07300
C 	C 	0.90608 0.39151 0.21709 0.01600
C 	C 	0.93274 0.45764 0.20194 -0.08100
C 	C 	0.91483 0.46923 0.16889 0.07900
C 	C 	0.86882 0.41648 0.15209 0.01400
C 	C 	0.83806 0.35132 0.16919 -0.06500
C 	C 	0.78462 0.29457 0.15306 0.77800
H 	H 	0.83811 0.28869 0.21305 0.12000
H 	H 	0.93757 0.51904 0.15568 0.10200
C 	C 	0.98100 0.51558 0.22062 0.77000
F 	F 	0.75304 0.23952 0.17757 -0.38400
F 	F 	0.80291 0.27636 0.12350 -0.38600
F 	F 	0.74699 0.31391 0.14253 -0.39200
F 	F 	0.03089 0.51288 0.22018 -0.41700
F 	F 	0.96196 0.51246 0.25586 -0.44900
F 	F 	0.99615 0.57625 0.20397 -0.38800
C 	C 	0.07778 0.05857 0.49842 0.08300
C 	C 	0.04860 0.01657 0.52971 0.00300
C 	C 	0.02143 0.94686 0.52875 -0.03200
C 	C 	0.01779 0.92059 0.49543 0.08300
C 	C 	0.04052 0.96222 0.46347 0.04200
C 	C 	0.07562 0.03225 0.46528 -0.07500
C 	C 	0.11199 0.07887 0.43252 0.78600
H 	H 	0.10065 0.11189 0.49979 0.12100
H 	H 	0.99420 0.86724 0.49396 0.11000
C 	C 	0.99315 0.90000 0.56261 0.75400
F 	F 	0.14644 0.14435 0.44088 -0.38200
F 	F 	0.07525 0.07548 0.40649 -0.41200
F 	F 	0.14954 0.06157 0.41881 -0.37800
F 	F 	0.94592 0.90199 0.57584 -0.40500
F 	F 	0.03393 0.91799 0.58837 -0.34100
F 	F 	0.97235 0.83486 0.55605 -0.38000
C 	C 	0.94946 0.66605 0.36543 0.08500
C 	C 	0.99613 0.70795 0.33991 -0.00900
C 	C 	0.02955 0.68502 0.32401 -0.04500
C 	C 	0.01325 0.61920 0.33279 0.09200
C 	C 	0.96604 0.57707 0.35789 0.00600
C 	C 	0.93566 0.60166 0.37581 -0.07900
C 	C 	0.88757 0.55897 0.40525 0.78700
H 	H 	0.92442 0.68419 0.37755 0.08600
H 	H 	0.03669 0.60005 0.31968 0.10000
C 	C 	0.08507 0.73177 0.29999 0.78200
F 	F 	0.87026 0.59540 0.42313 -0.39800
F 	F 	0.90765 0.53252 0.43037 -0.41400
F 	F 	0.83880 0.50798 0.39042 -0.42400
F 	F 	0.12668 0.78091 0.31987 -0.41700
F 	F 	0.07248 0.76037 0.27151 -0.40000
F 	F 	0.10945 0.69900 0.28585 -0.38100
C 	C 	0.02388 0.13898 0.32770 0.09700
C 	C 	0.98213 0.08893 0.35297 0.02300
C 	C 	0.94570 0.10125 0.37467 -0.07600
C 	C 	0.94632 0.15976 0.36686 0.08000
C 	C 	0.98491 0.20749 0.33942 0.04100
C 	C 	0.02242 0.19549 0.31840 -0.04800
C 	C 	0.06346 0.24385 0.28736 0.78800
H 	H 	0.05504 0.13148 0.31340 0.11000
H 	H 	0.91778 0.16920 0.38271 0.10300
C 	C 	0.90855 0.05424 0.40707 0.77800
F 	F 	0.08139 0.21332 0.26467 -0.39300
F 	F 	0.11316 0.29618 0.30067 -0.41200
F 	F 	0.03597 0.26751 0.26674 -0.41600
F 	F 	0.94354 0.04360 0.42908 -0.40700
F 	F 	0.86401 0.99440 0.39590 -0.42700
F 	F 	0.88273 0.07974 0.42734 -0.39800
C 	C 	0.71470 0.91852 0.35564 0.07300
C 	C 	0.73673 0.97799 0.33424 0.05100
C 	C 	0.79133 0.00693 0.31404 -0.09500
C 	C 	0.81863 0.97114 0.31189 0.09700
C 	C 	0.79485 0.90987 0.33198 0.02800
C 	C 	0.74022 0.88126 0.35222 -0.04700
C 	C 	0.70943 0.81158 0.37073 0.78200
H 	H 	0.67488 0.89873 0.37289 0.11200
H 	H 	0.86012 0.99251 0.29609 0.09400
C 	C 	0.82002 0.07533 0.29430 0.78600
F 	F 	0.64920 0.78363 0.37576 -0.40100
F 	F 	0.73168 0.81415 0.40394 -0.36500
F 	F 	0.71777 0.77057 0.35026 -0.41100
F 	F 	0.81289 0.11715 0.31482 -0.43400
F 	F 	0.79429 0.07005 0.26209 -0.39300
F 	F 	0.88002 0.10396 0.28718 -0.42000
C 	C 	0.26156 0.89087 0.37540 0.08200
C 	C 	0.30145 0.90418 0.34632 0.04600
C 	C 	0.29284 0.92466 0.31198 -0.05800
C 	C 	0.25235 0.94390 0.30930 0.08100
C 	C 	0.21173 0.92974 0.33805 0.05100
C 	C 	0.21788 0.90549 0.37211 -0.05300
C 	C 	0.18039 0.89838 0.40531 0.78200
H 	H 	0.26683 0.87239 0.40119 0.12300
H 	H 	0.24906 0.96521 0.28382 0.12600
C 	C 	0.32356 0.92216 0.27796 0.78200
F 	F 	0.19686 0.87936 0.43608 -0.37100
F 	F 	0.12175 0.85058 0.40141 -0.41000
F 	F 	0.18682 0.95857 0.41038 -0.36600
F 	F 	0.31772 0.86125 0.27768 -0.38500
F 	F 	0.38259 0.97249 0.27600 -0.43700
F 	F 	0.29934 0.93010 0.24739 -0.38200
C 	C 	0.96082 0.95312 0.17844 0.04900
C 	C 	0.00487 0.95525 0.19868 0.06000
C 	C 	0.06519 0.99827 0.18594 -0.06000
C 	C 	0.07894 0.02972 0.15097 0.06100
C 	C 	0.03483 0.02611 0.13048 0.03400
C 	C 	0.97573 0.99112 0.14518 -0.07400
C 	C 	0.92847 0.99315 0.12517 0.78900
H 	H 	0.91496 0.92136 0.18840 0.12700
H 	H 	0.12409 0.05671 0.13950 0.12300
C 	C 	0.11504 0.01134 0.20929 0.75400
F 	F 	0.87762 0.96900 0.14711 -0.37100
F 	F 	0.91436 0.95490 0.09620 -0.38000
F 	F 	0.94871 0.05792 0.11288 -0.43500
F 	F 	0.12177 0.95815 0.21002 -0.44300
F 	F 	0.10342 0.02117 0.24380 -0.50600
F 	F 	0.16806 0.06797 0.19619 -0.38800
