data_crystal

_cell_length_a 32.63100
_cell_length_b 33.82681
_cell_length_c 51.83743
_cell_angle_alpha 91.20167
_cell_angle_beta  91.51504
_cell_angle_gamma 117.37742

_symmetry_space_group_name_	'P 1'
_symmetry_space_group_name_H-M	'P 1'

loop_
_symmetry_equiv_pos_as_xyz
  x,y,z

loop_
_atom_site_label
_atom_site_type_symbol
_atom_site_fract_x
_atom_site_fract_y
_atom_site_fract_z
_atom_site_charge
O 	O 	0.01131 0.93720 0.33003 -0.69300
O 	O 	0.04041 0.46345 0.65374 -0.70300
Ni	Ni	0.01927 0.93496 0.36885 1.10500
O 	O 	0.02802 0.94326 0.40840 -0.33000
Ni	Ni	0.02758 0.03496 0.37828 1.07900
C 	C 	0.02225 0.97459 0.42065 0.29600
O 	O 	0.02509 0.85629 0.34275 -0.38900
O 	O 	0.01172 0.46057 0.26952 -0.39500
Ni	Ni	0.00788 0.40667 0.28951 1.08000
O 	O 	0.01651 0.36433 0.34802 -0.35400
O 	O 	0.00686 0.35106 0.30399 -0.39000
O 	O 	0.02017 0.45014 0.94237 -0.39300
O 	O 	0.00980 0.48280 0.02266 -0.69900
H 	H 	0.01702 0.10624 0.69562 0.17500
H 	H 	0.05138 0.44083 0.65125 0.16900
C 	C 	0.05318 0.52807 0.78227 -0.01100
C 	C 	0.05127 0.53157 0.80910 0.08800
C 	C 	0.00269 0.05123 0.82106 -0.08200
C 	C 	0.01247 0.43785 0.43486 -0.09500
C 	C 	0.02218 0.47935 0.47537 0.08500
C 	C 	0.00810 0.47118 0.44926 -0.01300
Br	Br	0.01111 0.52212 0.49493 -0.18900
C 	C 	0.02607 0.95526 0.46694 0.13600
C 	C 	0.03485 0.96914 0.49303 -0.04400
H 	H 	0.02414 0.94446 0.50776 0.08700
H 	H 	0.01137 0.61363 0.34465 0.05800
H 	H 	0.00130 0.27907 0.35549 0.08100
Br	Br	0.01849 0.20181 0.36431 -0.18100
C 	C 	0.02006 0.95607 0.24596 -0.10300
C 	C 	0.00319 0.31264 0.01169 0.14300
H 	H 	0.04109 0.54643 0.77000 0.06000
C 	C 	0.00927 0.05795 0.79468 0.15300
O 	O 	0.05173 0.99927 0.28534 -0.34000
Ni	Ni	0.03711 0.90038 0.31428 1.08300
O 	O 	0.04566 0.08320 0.35154 -0.37800
C 	C 	0.03860 0.96109 0.27265 0.31000
O 	O 	0.02088 0.42481 0.38972 -0.33900
H 	H 	0.01397 0.49761 0.35639 0.16100
C 	C 	0.02730 0.35065 0.32625 0.30900
Ni	Ni	0.00125 0.02211 0.05495 1.07300
Ni	Ni	0.02473 0.51065 0.98819 1.10300
O 	O 	0.03877 0.52294 0.94984 -0.34700
Ni	Ni	0.01145 0.52613 0.04871 1.07700
C 	C 	0.03625 0.49080 0.93414 0.30200
O 	O 	0.02715 0.08281 0.69476 -0.69700
C 	C 	0.03515 0.06959 0.60375 0.29600
H 	H 	0.05139 0.54958 0.68219 0.17600
C 	C 	0.06896 0.49517 0.74293 0.29900
C 	C 	0.06037 0.49250 0.59560 0.29700
C 	C 	0.04297 0.49823 0.90634 -0.09700
C 	C 	0.05732 0.50465 0.85301 0.02900
C 	C 	0.06576 0.50685 0.82510 0.02400
C 	C 	0.07014 0.50060 0.77119 -0.09600
C 	C 	0.00773 0.69041 0.02071 0.08200
C 	C 	0.01076 0.65054 0.02219 -0.01800
Br	Br	0.00483 0.20150 0.96390 -0.17200
C 	C 	0.03195 0.41291 0.44678 0.15600
C 	C 	0.04255 0.45513 0.48714 0.02500
C 	C 	0.05342 0.46027 0.51527 0.02700
C 	C 	0.06379 0.47903 0.56884 -0.09200
Br	Br	0.03037 0.36130 0.42964 -0.17000
Br	Br	0.00858 0.40175 0.09440 -0.21400
C 	C 	0.03862 0.98733 0.44775 -0.06300
C 	C 	0.05260 0.01443 0.50021 -0.00800
C 	C 	0.04823 0.02728 0.52700 0.03700
C 	C 	0.04083 0.05669 0.57707 -0.10000
C 	C 	0.03084 0.28483 0.34416 -0.00200
C 	C 	0.02714 0.98457 0.20279 0.08900
C 	C 	0.04202 0.99041 0.22877 0.02200
H 	H 	0.00728 0.91402 0.10789 0.07100
O 	O 	0.03570 0.03706 0.74147 -0.38200
C 	C 	0.02944 0.43789 0.55878 -0.00800
C 	C 	0.02341 0.42881 0.53214 0.08000
Br	Br	0.03124 0.54663 0.22850 -0.19400
Br	Br	0.05859 0.20666 0.27605 -0.18700
Ni	Ni	0.05206 0.00405 0.32492 1.09800
O 	O 	0.05468 0.93391 0.28010 -0.36700
O 	O 	0.05761 0.00162 0.36353 -0.71200
H 	H 	0.01568 0.97135 0.02632 0.16300
H 	H 	0.03326 0.47318 0.02762 0.18000
Ni	Ni	0.05396 0.08388 0.66002 1.10100
O 	O 	0.06899 0.53244 0.68379 -0.70300
C 	C 	0.08440 0.48072 0.81408 -0.07900
C 	C 	0.08661 0.47745 0.78722 0.15100
H 	H 	0.03582 0.64862 0.03557 0.05900
H 	H 	0.02895 0.26778 0.02481 0.08900
H 	H 	0.02203 0.07845 0.83490 0.09400
H 	H 	0.01883 0.96920 0.90594 0.07100
C 	C 	0.04864 0.42300 0.47249 -0.07700
H 	H 	0.06381 0.40395 0.48156 0.09500
C 	C 	0.06778 0.04646 0.48107 0.10000
C 	C 	0.06177 0.03278 0.45504 -0.04000
Br	Br	0.03742 0.70977 0.34885 -0.18700
C 	C 	0.04931 0.32130 0.32808 -0.08300
C 	C 	0.04874 0.25443 0.34466 0.08600
H 	H 	0.07372 0.13109 0.29252 0.07900
O 	O 	0.06681 0.07714 0.62203 -0.34700
O 	O 	0.03498 0.05893 0.99343 -0.38400
Ni	Ni	0.09122 0.52691 0.64900 1.10700
C 	C 	0.08560 0.52986 0.89727 0.15300
H 	H 	0.09584 0.46186 0.82634 0.09100
Br	Br	0.05088 0.74163 0.04097 -0.17400
Br	Br	0.05064 0.11629 0.78352 -0.26100
Br	Br	0.04506 0.97975 0.85132 -0.16800
H 	H 	0.07258 0.05757 0.44036 0.05000
H 	H 	0.07120 0.02136 0.23549 0.06500
Br	Br	0.05767 0.03248 0.17988 -0.20500
Br	Br	0.04598 0.90810 0.15923 -0.17600
O 	O 	0.02894 0.47663 0.72997 -0.34900
C 	C 	0.09252 0.53297 0.87065 -0.08100
O 	O 	0.09183 0.07101 0.32331 -0.35600
H 	H 	0.09016 0.01384 0.36990 0.17700
C 	C 	0.08334 0.09852 0.33795 0.30800
O 	O 	0.07861 0.92761 0.37062 -0.35300
O 	O 	0.07522 0.44616 0.30215 -0.37100
O 	O 	0.06640 0.46090 0.34399 -0.37200
O 	O 	0.05574 0.06941 0.03670 -0.38900
C 	C 	0.05164 0.08557 0.01429 0.30200
Ni	Ni	0.07443 0.09499 0.72235 1.09300
O 	O 	0.08685 0.04683 0.66846 -0.38400
O 	O 	0.10777 0.51269 0.73057 -0.39500
O 	O 	0.09734 0.51114 0.61126 -0.33400
Br	Br	0.11019 0.43960 0.77279 -0.19300
Br	Br	0.04865 0.14715 0.06189 -0.23800
Br	Br	0.06004 0.36472 0.02100 -0.18100
C 	C 	0.09106 0.49919 0.52547 -0.07600
C 	C 	0.09578 0.50932 0.55208 0.15300
C 	C 	0.08790 0.05043 0.54308 -0.08500
C 	C 	0.08483 0.06723 0.56748 0.15300
Br	Br	0.09328 0.10893 0.48994 -0.18600
C 	C 	0.08706 0.26162 0.32989 0.02600
C 	C 	0.08885 0.15608 0.30807 -0.00400
C 	C 	0.08703 0.19639 0.30634 0.08700
Ni	Ni	0.02578 0.46735 0.69052 1.10500
O 	O 	0.10155 0.94212 0.32922 -0.38500
C 	C 	0.09051 0.45372 0.32636 0.31500
O 	O 	0.07451 0.57757 0.04055 -0.38700
O 	O 	0.08681 0.56227 0.99867 -0.36200
H 	H 	0.07315 0.64161 0.98414 0.07200
C 	C 	0.08773 0.32846 0.31332 0.14700
C 	C 	0.10253 0.22709 0.32756 0.02400
C 	C 	0.10377 0.14535 0.33126 -0.08300
Br	Br	0.02786 0.56952 0.82357 -0.17800
C 	C 	0.11170 0.94461 0.35405 0.30600
C 	C 	0.09020 0.59089 0.01725 0.30900
O 	O 	0.11449 0.06640 0.70986 -0.35100
Ni	Ni	0.12273 0.56594 0.70677 1.07900
H 	H 	0.12546 0.55698 0.86372 0.09100
C 	C 	0.07780 0.13407 0.01084 -0.09500
H 	H 	0.11490 0.52296 0.51256 0.09400
H 	H 	0.12149 0.05762 0.53600 0.09600
C 	C 	0.10749 0.29965 0.31519 -0.07600
O 	O 	0.11552 0.14173 0.66402 -0.36800
C 	C 	0.12113 0.06065 0.68552 0.31700
O 	O 	0.11750 0.15452 0.70789 -0.37300
O 	O 	0.13587 0.50323 0.66099 -0.38200
C 	C 	0.10427 0.66031 0.99606 -0.01300
C 	C 	0.08180 0.16523 0.03066 0.14400
H 	H 	0.09415 0.12633 0.97147 0.07800
Br	Br	0.11502 0.41547 0.37760 -0.18900
C 	C 	0.12590 0.21989 0.34859 -0.07400
C 	C 	0.12608 0.17880 0.35066 0.14700
Br	Br	0.11192 0.37523 0.28920 -0.22800
O 	O 	0.02050 0.48881 0.60306 -0.38700
O 	O 	0.14514 0.59006 0.64603 -0.33700
O 	O 	0.13644 0.61944 0.68518 -0.39700
Br	Br	0.15765 0.00167 0.71672 -0.17900
Br	Br	0.10145 0.73613 0.97415 -0.17100
Br	Br	0.13547 0.56753 0.92084 -0.18600
C 	C 	0.09862 0.14963 0.98726 -0.01000
Br	Br	0.14387 0.56602 0.56465 -0.15900
Br	Br	0.14107 0.10934 0.58527 -0.17900
H 	H 	0.13835 0.89518 0.38362 0.08800
C 	C 	0.13912 0.15766 0.68628 0.30100
Br	Br	0.13213 0.65941 0.60956 -0.17900
C 	C 	0.11932 0.63832 0.01356 -0.09200
C 	C 	0.11026 0.21063 0.02758 -0.08400
H 	H 	0.13708 0.30533 0.30391 0.09300
H 	H 	0.14023 0.24456 0.36435 0.09300
C 	C 	0.01455 0.47356 0.86209 0.08300
C 	C 	0.15421 0.62453 0.66206 0.31800
C 	C 	0.12797 0.70650 0.99467 0.08500
C 	C 	0.12685 0.19503 0.98432 0.08700
H 	H 	0.11522 0.23427 0.04328 0.09100
C 	C 	0.14045 0.46888 0.33180 -0.08100
Br	Br	0.15325 0.16741 0.38103 -0.22200
C 	C 	0.15906 0.95530 0.36242 -0.09000
C 	C 	0.17310 0.52665 0.67564 0.32900
C 	C 	0.16627 0.06557 0.67775 -0.09100
Br	Br	0.11880 0.30495 0.98422 -0.17200
C 	C 	0.15575 0.45069 0.35192 0.14300
C 	C 	0.16706 0.92387 0.37601 -0.00600
O 	O 	0.17680 0.56024 0.69045 -0.37800
C 	C 	0.13504 0.22537 0.00513 0.02900
H 	H 	0.16153 0.51198 0.29933 0.08100
C 	C 	0.00750 0.47070 0.88860 -0.00900
H 	H 	0.18283 0.22017 0.65160 0.08300
C 	C 	0.18846 0.04423 0.69094 0.15500
H 	H 	0.17139 0.10976 0.64715 0.07900
C 	C 	0.16129 0.66224 0.02781 0.15400
Br	Br	0.15636 0.21485 0.95220 -0.18100
C 	C 	0.18847 0.09376 0.65761 -0.01500
C 	C 	0.17260 0.49703 0.31450 -0.00400
Br	Br	0.18820 0.04077 0.33871 -0.24800
C 	C 	0.18960 0.66887 0.65550 -0.08400
C 	C 	0.18535 0.68876 0.63265 0.15400
H 	H 	0.18517 0.45763 0.69221 0.06900
C 	C 	0.18921 0.18780 0.68586 -0.08800
C 	C 	0.17013 0.73065 0.00875 0.02900
C 	C 	0.19673 0.99333 0.35349 0.15700
Br	Br	0.18578 0.63248 0.04977 -0.18700
C 	C 	0.20645 0.21731 0.66563 -0.00400
Br	Br	0.19975 0.14966 0.73421 -0.21000
C 	C 	0.18693 0.70811 0.02496 -0.07800
Br	Br	0.18869 0.79763 0.05754 -0.16900
C 	C 	0.17667 0.26869 0.00603 0.02400
C 	C 	0.17578 0.30661 0.99604 0.08900
C 	C 	0.20168 0.45819 0.35335 -0.07500
C 	C 	0.21154 0.92767 0.37816 0.09300
C 	C 	0.21401 0.51966 0.67248 -0.09400
C 	C 	0.21496 0.48198 0.68265 -0.00600
C 	C 	0.19975 0.77809 0.00401 0.03000
H 	H 	0.21294 0.44326 0.36845 0.09000
Br	Br	0.22122 0.88332 0.39600 -0.16700
H 	H 	0.21563 0.74711 0.60984 0.09500
C 	C 	0.22048 0.18469 0.70416 0.14800
H 	H 	0.20197 0.76693 0.96296 0.10100
C 	C 	0.21921 0.73155 0.62723 -0.07700
C 	C 	0.23267 0.05193 0.68414 -0.07800
C 	C 	0.21861 0.50472 0.31612 0.09100
C 	C 	0.22780 0.69197 0.67258 -0.00100
H 	H 	0.23135 0.67659 0.69006 0.06800
C 	C 	0.23306 0.10225 0.65128 0.08600
C 	C 	0.21587 0.79067 0.97918 -0.07800
C 	C 	0.21684 0.80996 0.02465 0.08300
H 	H 	0.22026 0.72618 0.03504 0.09500
C 	C 	0.21849 0.27095 0.01505 -0.08100
H 	H 	0.21903 0.24176 0.02295 0.08800
C 	C 	0.23303 0.48447 0.33531 0.02600
C 	C 	0.21709 0.34583 0.99402 -0.00900
Br	Br	0.25209 0.60165 0.64422 -0.17900
H 	H 	0.24922 0.03468 0.69388 0.09700
H 	H 	0.21638 0.37487 0.98603 0.07500
C 	C 	0.24108 0.99688 0.35543 -0.05800
C 	C 	0.24823 0.96302 0.36654 0.02200
Br	Br	0.24836 0.90205 0.31927 -0.18000
C 	C 	0.25281 0.55113 0.65997 0.15300
H 	H 	0.24583 0.82716 0.65582 0.09200
C 	C 	0.25401 0.24366 0.66362 0.09100
C 	C 	0.25503 0.08065 0.66424 0.02600
C 	C 	0.25449 0.47592 0.68084 0.08700
C 	C 	0.00476 0.01888 0.53599 0.06200
C 	C 	0.25696 0.75487 0.64458 0.02900
Br	Br	0.25467 0.42403 0.69504 -0.16800
C 	C 	0.25072 0.83344 0.97535 0.15200
C 	C 	0.26125 0.73484 0.66732 0.08900
C 	C 	0.25498 0.85124 0.02118 -0.00500
Br	Br	0.26113 0.54252 0.29174 -0.16900
H 	H 	0.26632 0.03980 0.62193 0.09500
Br	Br	0.26385 0.14421 0.62526 -0.18200
H 	H 	0.26480 0.43528 0.30899 0.09500
H 	H 	0.26974 0.02513 0.34742 0.07600
C 	C 	0.26799 0.20918 0.70118 -0.07300
C 	C 	0.25988 0.30950 0.01242 0.15000
C 	C 	0.25945 0.34730 0.00159 -0.09000
Br	Br	0.27589 0.28624 0.63692 -0.16900
Br	Br	0.26385 0.85369 0.94076 -0.22500
H 	H 	0.00546 0.41404 0.57161 0.03800
H 	H 	0.27058 0.87426 0.03759 0.08300
C 	C 	0.27945 0.83546 0.64838 -0.07900
C 	C 	0.27459 0.86150 0.99687 -0.09100
C 	C 	0.28067 0.48985 0.33635 0.02800
C 	C 	0.28501 0.23958 0.68148 0.03000
C 	C 	0.28969 0.80146 0.63997 0.02500
C 	C 	0.29230 0.54514 0.65829 -0.07900
C 	C 	0.29135 0.46104 0.32137 -0.07900
C 	C 	0.29273 0.96259 0.36355 0.02600
C 	C 	0.29342 0.50772 0.66865 0.02700
Br	Br	0.29407 0.45499 0.61755 -0.17500
H 	H 	0.29181 0.20641 0.71511 0.10500
C 	C 	0.00115 0.03238 0.56107 -0.01200
Br	Br	0.29835 0.92560 0.66081 -0.16400
C 	C 	0.29801 0.05783 0.63353 -0.07800
C 	C 	0.29884 0.08372 0.65519 0.02800
C 	C 	0.29925 0.93988 0.34223 0.08800
Br	Br	0.30175 0.56275 0.37355 -0.17900
H 	H 	0.00061 0.99906 0.65356 0.19000
C 	C 	0.30283 0.38683 0.99618 0.31300
O 	O 	0.30669 0.40543 0.97355 -0.40000
O 	O 	0.00038 0.99387 0.40908 -0.37000
C 	C 	0.99981 0.27041 0.01607 -0.05700
Br	Br	0.99974 0.74198 0.95046 -0.15800
Ni	Ni	0.99988 0.41602 0.35135 1.10400
C 	C 	0.99862 0.92340 0.14819 0.09300
C 	C 	0.99936 0.98793 0.87006 0.10100
O 	O 	0.99735 0.55517 0.98750 -0.35600
H 	H 	0.99366 0.82349 0.96564 0.08400
H 	H 	0.99570 0.50530 0.17634 0.08900
O 	O 	0.98835 0.97663 0.02753 -0.68600
C 	C 	0.98792 0.92228 0.12180 -0.00700
C 	C 	0.99579 0.97984 0.89642 0.00300
H 	H 	0.98953 0.40787 0.14952 0.09000
H 	H 	0.98474 0.11236 0.98212 0.07600
C 	C 	0.98222 0.80262 0.98220 -0.00500
C 	C 	0.98294 0.76153 0.98162 0.09200
Ni	Ni	0.97781 0.99804 0.99340 1.11000
C 	C 	0.97487 0.16884 0.99346 0.09100
Br	Br	0.99863 0.80655 0.41173 -0.15700
H 	H 	0.99287 0.49023 0.44026 0.04900
C 	C 	0.99517 0.42868 0.40772 0.30700
C 	C 	0.97040 0.12597 0.99631 -0.01200
C 	C 	0.99443 0.02775 0.74917 0.31400
O 	O 	0.99457 0.01383 0.31872 -0.36500
O 	O 	0.98046 0.86793 0.37186 -0.34900
H 	H 	0.97853 0.92661 0.32457 0.17800
O 	O 	0.96711 0.99556 0.35879 -0.37600
C 	C 	0.98778 0.84083 0.35637 0.31100
C 	C 	0.96103 0.00342 0.33483 0.30600
Ni	Ni	0.95965 0.46729 0.31708 1.10300
O 	O 	0.96903 0.41139 0.31646 -0.69800
O 	O 	0.94628 0.46552 0.27793 -0.35000
O 	O 	0.88874 0.42969 0.31908 -0.35600
O 	O 	0.91457 0.50139 0.35951 -0.37600
O 	O 	0.98564 0.46910 0.35298 -0.69400
O 	O 	0.95123 0.52296 0.32124 -0.35400
O 	O 	0.95288 0.42174 0.40192 -0.38100
Ni	Ni	0.93904 0.46286 0.37776 1.08200
H 	H 	0.93879 0.38429 0.31556 0.16700
O 	O 	0.88922 0.40693 0.35991 -0.38700
C 	C 	0.97410 0.46190 0.26132 0.31100
C 	C 	0.86655 0.41048 0.33974 0.31800
C 	C 	0.93786 0.53287 0.34319 0.29800
Ni	Ni	0.52517 0.01008 0.34977 1.09700
O 	O 	0.59163 0.04023 0.33817 -0.70700
Ni	Ni	0.58286 0.01714 0.30119 1.09800
O 	O 	0.54219 0.01820 0.38863 -0.35300
O 	O 	0.59328 0.98987 0.38461 -0.37100
O 	O 	0.52467 0.07064 0.35335 -0.35300
Ni	Ni	0.63713 0.02762 0.35626 1.08100
O 	O 	0.44381 0.02216 0.32655 -0.41200
O 	O 	0.63104 0.97146 0.33691 -0.38100
O 	O 	0.64972 0.03470 0.29108 -0.35100
O 	O 	0.51628 0.99531 0.31185 -0.68900
O 	O 	0.45719 0.98108 0.35750 -0.35300
O 	O 	0.56099 0.99902 0.26314 -0.31800
O 	O 	0.52341 0.04188 0.26306 -0.38000
Ni	Ni	0.48629 0.02784 0.29670 1.07000
H 	H 	0.60362 0.07293 0.33820 0.18200
H 	H 	0.49709 0.96285 0.30858 0.16900
C 	C 	0.59348 0.94153 0.32460 0.30800
O 	O 	0.53577 0.08750 0.31112 -0.40000
C 	C 	0.57150 0.00598 0.39913 0.28600
C 	C 	0.68565 0.04895 0.30767 0.32200
C 	C 	0.53546 0.09976 0.33515 0.32000
C 	C 	0.53483 0.01380 0.25111 0.27500
C 	C 	0.42822 0.98984 0.34338 0.32000
O 	O 	0.57063 0.95319 0.30768 -0.36200
O 	O 	0.68445 0.06502 0.33090 -0.38700
Ni	Ni	0.50806 0.53265 0.31031 1.10600
O 	O 	0.48641 0.46623 0.31564 -0.69700
Ni	Ni	0.51961 0.46809 0.34929 1.10100
O 	O 	0.48923 0.52578 0.27160 -0.33600
O 	O 	0.52535 0.48335 0.26400 -0.38800
O 	O 	0.44290 0.52532 0.31738 -0.34700
Ni	Ni	0.49975 0.43179 0.28934 1.08800
O 	O 	0.49631 0.59883 0.34747 -0.38800
O 	O 	0.56647 0.44238 0.29703 -0.35500
O 	O 	0.50634 0.40260 0.35194 -0.37400
O 	O 	0.53554 0.53366 0.34545 -0.70000
O 	O 	0.52988 0.59932 0.30902 -0.35100
O 	O 	0.55127 0.48184 0.38539 -0.35900
O 	O 	0.50606 0.51249 0.39905 -0.37800
Ni	Ni	0.50407 0.55353 0.37011 1.08300
H 	H 	0.45284 0.45082 0.31838 0.17700
H 	H 	0.56925 0.55360 0.34625 0.18200
C 	C 	0.58879 0.45533 0.31956 0.31600
O 	O 	0.44011 0.50466 0.35916 -0.40500
C 	C 	0.49983 0.50150 0.25563 0.29600
C 	C 	0.49581 0.37414 0.33192 0.30600
C 	C 	0.41909 0.50689 0.33776 0.31400
C 	C 	0.54158 0.50453 0.40301 0.29900
C 	C 	0.52429 0.62100 0.32901 0.30500
O 	O 	0.58251 0.48331 0.33475 -0.37600
O 	O 	0.47315 0.37751 0.31134 -0.38100
O 	O 	0.91965 0.93861 0.99617 -0.69700
Ni	Ni	0.93008 0.91695 0.03019 1.10500
O 	O 	0.96379 0.00510 0.95543 -0.37000
O 	O 	0.95630 0.93639 0.94484 -0.39800
O 	O 	0.93879 0.02879 0.00346 -0.37400
Ni	Ni	0.90583 0.89366 0.96862 1.08600
O 	O 	0.94799 0.86547 0.97761 -0.37500
O 	O 	0.87220 0.85638 0.03018 -0.35500
O 	O 	0.94403 0.91035 0.06829 -0.34500
O 	O 	0.95075 0.97899 0.07861 -0.36800
H 	H 	0.89244 0.94403 0.99756 0.17800
C 	C 	0.95534 0.85488 0.00091 0.30800
O 	O 	0.95864 0.04956 0.04579 -0.35900
C 	C 	0.95770 0.97411 0.93788 0.32300
C 	C 	0.85365 0.83042 0.00919 0.30700
C 	C 	0.95115 0.05906 0.02226 0.31100
C 	C 	0.94975 0.94148 0.08569 0.29500
O 	O 	0.96798 0.88483 0.02002 -0.36000
O 	O 	0.85085 0.84769 0.98693 -0.38100
O 	O 	0.96028 0.45896 0.98109 -0.69700
Ni	Ni	0.94680 0.42841 0.01480 1.10300
Ni	Ni	0.95219 0.41610 0.95309 1.08600
O 	O 	0.96508 0.36651 0.96796 -0.36000
O 	O 	0.88572 0.37239 0.00513 -0.36900
O 	O 	0.93905 0.41129 0.05286 -0.34200
O 	O 	0.95073 0.48095 0.06478 -0.39500
H 	H 	0.93795 0.47079 0.97807 0.17600
C 	C 	0.96923 0.35968 0.99258 0.31600
O 	O 	0.97276 0.54885 0.02866 -0.39300
C 	C 	0.87018 0.35691 0.98119 0.30700
C 	C 	0.98705 0.57209 0.00801 0.30600
C 	C 	0.94424 0.44113 0.07103 0.29900
O 	O 	0.98217 0.39237 0.00992 -0.36300
O 	O 	0.88475 0.38297 0.96132 -0.38300
Ni	Ni	0.46763 0.03713 0.97097 1.09700
O 	O 	0.40437 0.98434 0.97554 -0.69600
Ni	Ni	0.41136 0.96869 0.01186 1.11000
O 	O 	0.45028 0.04332 0.93340 -0.35500
O 	O 	0.43314 0.97088 0.92390 -0.36200
O 	O 	0.43984 0.07728 0.98417 -0.37300
Ni	Ni	0.39093 0.93300 0.95290 1.08600
O 	O 	0.56647 0.08753 0.00669 -0.37100
O 	O 	0.44490 0.92363 0.96664 -0.39200
O 	O 	0.34461 0.92228 0.01491 -0.35900
O 	O 	0.47739 0.01477 0.00482 -0.70600
O 	O 	0.53031 0.09223 0.96869 -0.37600
O 	O 	0.42274 0.96978 0.05121 -0.32400
O 	O 	0.45589 0.04570 0.05342 -0.39000
Ni	Ni	0.50957 0.06700 0.02810 1.08900
H 	H 	0.37927 0.99299 0.97405 0.18400
H 	H 	0.49718 0.00005 0.00228 0.18100
C 	C 	0.44152 0.90315 0.98827 0.31400
O 	O 	0.49771 0.11772 0.01437 -0.37800
C 	C 	0.43544 0.00907 0.91673 0.28100
C 	C 	0.32339 0.89446 0.99501 0.29800
C 	C 	0.46321 0.11364 0.99886 0.32000
C 	C 	0.44287 0.00762 0.06486 0.28400
C 	C 	0.56793 0.09824 0.98211 0.30800
O 	O 	0.42832 0.91638 0.00921 -0.33500
O 	O 	0.34800 0.88674 0.97746 -0.38100
Ni	Ni	0.45650 0.52880 0.97108 1.10700
O 	O 	0.39096 0.48066 0.97678 -0.70400
Ni	Ni	0.39827 0.46066 0.01193 1.10400
O 	O 	0.44911 0.52379 0.93163 -0.35400
O 	O 	0.42377 0.44864 0.93176 -0.39700
O 	O 	0.43610 0.57879 0.97028 -0.35300
Ni	Ni	0.36507 0.42813 0.95348 1.07800
O 	O 	0.51908 0.61314 0.00659 -0.38700
O 	O 	0.37778 0.37997 0.97056 -0.37700
O 	O 	0.33659 0.40341 0.01432 -0.34900
O 	O 	0.46057 0.51582 0.00823 -0.69800
O 	O 	0.52256 0.57728 0.96924 -0.34200
O 	O 	0.41325 0.45749 0.05032 -0.34000
O 	O 	0.42610 0.52920 0.05712 -0.37600
Ni	Ni	0.47118 0.56799 0.02965 1.09000
H 	H 	0.36949 0.49385 0.97755 0.17400
H 	H 	0.48632 0.50844 0.01115 0.18800
C 	C 	0.41250 0.38717 0.98672 0.32100
O 	O 	0.41969 0.57753 0.01285 -0.38700
C 	C 	0.44032 0.48616 0.91937 0.29700
C 	C 	0.42533 0.59620 0.99045 0.31100
C 	C 	0.42766 0.49343 0.06554 0.29700
C 	C 	0.54309 0.60264 0.99004 0.29900
O 	O 	0.43162 0.42361 0.00175 -0.35900
Ni	Ni	0.97103 0.02097 0.69321 1.10400
O 	O 	0.96051 0.01872 0.73218 -0.35600
O 	O 	0.92583 0.04814 0.69089 -0.35300
O 	O 	0.89140 0.98000 0.65078 -0.38800
O 	O 	0.99457 0.02464 0.65748 -0.70800
O 	O 	0.91562 0.95998 0.68797 -0.34200
O 	O 	0.99695 0.07133 0.60938 -0.39100
Ni	Ni	0.94854 0.02520 0.63288 1.07000
O 	O 	0.94705 0.07763 0.65156 -0.41000
C 	C 	0.92212 0.07137 0.67177 0.32500
C 	C 	0.89105 0.94880 0.66596 0.30200
O 	O 	0.96981 0.48046 0.68916 -0.35000
O 	O 	0.93796 0.40589 0.65786 -0.39600
O 	O 	0.98038 0.40194 0.69315 -0.34900
Ni	Ni	0.98462 0.44811 0.63280 1.07600
O 	O 	0.97672 0.50028 0.64720 -0.39400
C 	C 	0.95810 0.49781 0.66954 0.31400
C 	C 	0.94589 0.38235 0.67576 0.29600
Ni	Ni	0.46488 0.01569 0.66969 1.09900
O 	O 	0.51211 0.08172 0.67158 -0.69800
Ni	Ni	0.54698 0.08685 0.63919 1.10200
O 	O 	0.44609 0.01346 0.70754 -0.34700
O 	O 	0.52107 0.04513 0.72215 -0.40200
O 	O 	0.41184 0.03094 0.66112 -0.35300
Ni	Ni	0.55484 0.10284 0.70188 1.07900
O 	O 	0.39288 0.96539 0.62551 -0.36000
O 	O 	0.60478 0.08342 0.69471 -0.38900
O 	O 	0.60077 0.15041 0.64432 -0.34100
O 	O 	0.49542 0.02250 0.63584 -0.70300
O 	O 	0.41850 0.95053 0.66397 -0.34700
O 	O 	0.56847 0.08270 0.60264 -0.33300
O 	O 	0.49627 0.05944 0.58432 -0.37600
Ni	Ni	0.44920 0.01366 0.60856 1.07500
H 	H 	0.49645 0.10068 0.67016 0.16600
H 	H 	0.50746 0.00062 0.63375 0.16500
C 	C 	0.61860 0.07826 0.67184 0.31300
O 	O 	0.43647 0.06338 0.62265 -0.38800
C 	C 	0.47708 0.02893 0.72674 0.30300
C 	C 	0.61866 0.16917 0.66731 0.31100
C 	C 	0.41230 0.05809 0.64324 0.31000
C 	C 	0.53894 0.06547 0.58276 0.29400
C 	C 	0.39431 0.93649 0.64190 0.29700
O 	O 	0.58854 0.06055 0.65240 -0.37500
O 	O 	0.59213 0.16345 0.68705 -0.39700
Ni	Ni	0.53193 0.46816 0.68346 1.10400
O 	O 	0.56625 0.53594 0.68092 -0.70100
Ni	Ni	0.59001 0.54087 0.64485 1.10300
O 	O 	0.51862 0.46918 0.72185 -0.33800
O 	O 	0.59116 0.52086 0.73509 -0.38000
O 	O 	0.46903 0.46823 0.67792 -0.35300
Ni	Ni	0.62061 0.56269 0.70472 1.08100
O 	O 	0.45347 0.39892 0.64714 -0.38000
O 	O 	0.64244 0.51796 0.69282 -0.40600
O 	O 	0.62349 0.60850 0.64468 -0.36800
O 	O 	0.55483 0.47317 0.64752 -0.70300
O 	O 	0.49804 0.40062 0.68260 -0.36400
O 	O 	0.60375 0.53723 0.60664 -0.34700
O 	O 	0.52905 0.49060 0.59484 -0.37700
Ni	Ni	0.49918 0.44749 0.62452 1.08500
H 	H 	0.54635 0.55068 0.68270 0.18100
H 	H 	0.57419 0.45793 0.64525 0.18700
C 	C 	0.66284 0.52211 0.67095 0.31200
O 	O 	0.47749 0.49194 0.63684 -0.40700
C 	C 	0.54665 0.49967 0.73882 0.30900
C 	C 	0.65129 0.63148 0.66429 0.31000
C 	C 	0.45895 0.48844 0.65930 0.31300
C 	C 	0.57310 0.50786 0.59011 0.30700
C 	C 	0.46309 0.37835 0.66607 0.31900
O 	O 	0.65297 0.54127 0.65162 -0.34900
O 	O 	0.66454 0.61102 0.68154 -0.38400
C 	C 	0.66890 0.19699 0.67097 -0.09200
C 	C 	0.69373 0.23130 0.65409 0.15700
C 	C 	0.74195 0.25438 0.65667 -0.07600
C 	C 	0.76573 0.24335 0.67585 0.02700
C 	C 	0.74093 0.20887 0.69253 0.08400
C 	C 	0.69274 0.18717 0.69069 -0.01400
H 	H 	0.76093 0.28156 0.64412 0.09300
C 	C 	0.81579 0.27163 0.68033 0.02500
H 	H 	0.67385 0.16184 0.70426 0.05800
C 	C 	0.83156 0.30433 0.70032 -0.07600
C 	C 	0.87718 0.33801 0.70132 0.14900
C 	C 	0.90716 0.33960 0.68181 -0.08500
C 	C 	0.89291 0.30382 0.66377 -0.01600
C 	C 	0.84732 0.26985 0.66294 0.08700
H 	H 	0.80772 0.30487 0.71432 0.09700
H 	H 	0.91628 0.30408 0.64923 0.05800
Br	Br	0.77237 0.18990 0.71731 -0.19500
Br	Br	0.66245 0.24951 0.62874 -0.16900
Br	Br	0.89675 0.38353 0.72828 -0.17100
Br	Br	0.82829 0.22224 0.63739 -0.20000
C 	C 	0.31311 0.87994 0.64835 0.15400
C 	C 	0.35745 0.89060 0.63980 -0.08400
C 	C 	0.36690 0.85685 0.63003 -0.01300
C 	C 	0.33307 0.81235 0.62987 0.09100
H 	H 	0.40074 0.86511 0.62294 0.06100
Br	Br	0.31205 0.76605 0.69176 -0.17800
Br	Br	0.34697 0.76678 0.61639 -0.17000
C 	C 	0.70533 0.51696 0.67054 -0.09200
C 	C 	0.71515 0.49701 0.64900 0.15200
C 	C 	0.75711 0.49507 0.64856 -0.07800
C 	C 	0.78901 0.51203 0.66961 0.02700
C 	C 	0.77896 0.53142 0.69122 0.08600
C 	C 	0.73741 0.53392 0.69156 -0.00400
H 	H 	0.76457 0.47966 0.63202 0.09300
C 	C 	0.83222 0.50812 0.66928 0.02400
H 	H 	0.73028 0.54960 0.70810 0.06700
C 	C 	0.87308 0.54433 0.66189 -0.07600
C 	C 	0.91483 0.54197 0.66273 0.14800
C 	C 	0.91570 0.50279 0.67069 -0.09100
C 	C 	0.87478 0.46663 0.67808 -0.00900
C 	C 	0.83320 0.46913 0.67743 0.08900
H 	H 	0.87251 0.57457 0.65588 0.09300
H 	H 	0.87511 0.43616 0.68381 0.08400
Br	Br	0.82144 0.55432 0.72057 -0.17600
Br	Br	0.67087 0.47001 0.62070 -0.21100
Br	Br	0.97055 0.59326 0.65415 -0.19800
Br	Br	0.77807 0.41893 0.68780 -0.18300
C 	C 	0.41784 0.49563 0.66130 -0.09400
C 	C 	0.41177 0.51738 0.68330 0.15400
C 	C 	0.37064 0.52039 0.68573 -0.07900
C 	C 	0.33541 0.50199 0.66642 0.02800
C 	C 	0.34159 0.48066 0.64436 0.08700
C 	C 	0.38264 0.47761 0.64188 -0.00300
H 	H 	0.36622 0.53741 0.70255 0.09500
H 	H 	0.38678 0.46037 0.62508 0.07000
H 	H 	0.32208 0.56944 0.64871 0.09300
Br	Br	0.45982 0.54487 0.70971 -0.23200
C 	C 	0.85334 0.90322 0.66238 -0.09000
C 	C 	0.86240 0.86641 0.66370 0.14600
C 	C 	0.82578 0.82325 0.66274 -0.07600
C 	C 	0.78009 0.81630 0.65988 0.02600
C 	C 	0.77105 0.85297 0.65759 0.08800
C 	C 	0.80764 0.89623 0.65891 -0.00500
H 	H 	0.83282 0.79500 0.66413 0.09300
C 	C 	0.74202 0.77057 0.65986 0.02800
H 	H 	0.80050 0.92444 0.65771 0.08400
C 	C 	0.71991 0.75372 0.68288 -0.07900
C 	C 	0.68806 0.70870 0.68413 0.15000
C 	C 	0.67891 0.67993 0.66230 -0.09300
C 	C 	0.69920 0.69737 0.63890 -0.00300
C 	C 	0.73050 0.74251 0.63758 0.08500
H 	H 	0.72801 0.77551 0.69992 0.09600
H 	H 	0.69173 0.67557 0.62191 0.08000
Br	Br	0.70902 0.84457 0.65258 -0.16500
Br	Br	0.92461 0.87436 0.66576 -0.21500
Br	Br	0.65629 0.68747 0.71551 -0.25000
Br	Br	0.75767 0.76520 0.60527 -0.17500
C 	C 	0.42500 0.33720 0.67465 -0.08400
C 	C 	0.40653 0.29834 0.65864 0.15000
C 	C 	0.36181 0.26464 0.66233 -0.07300
C 	C 	0.33488 0.27027 0.68131 0.03100
C 	C 	0.35496 0.30728 0.69877 0.08700
C 	C 	0.40031 0.33987 0.69577 -0.00200
H 	H 	0.34714 0.23525 0.64956 0.10500
H 	H 	0.41486 0.36935 0.70850 0.08600
Br	Br	0.31967 0.31607 0.72534 -0.16400
Br	Br	0.44128 0.29152 0.63116 -0.19800
C 	C 	0.66348 0.07763 0.67059 -0.09200
C 	C 	0.69421 0.09914 0.65085 0.14600
C 	C 	0.73835 0.10202 0.65169 -0.07300
C 	C 	0.75180 0.08224 0.67141 0.02800
C 	C 	0.72104 0.06018 0.69088 0.08900
C 	C 	0.67728 0.05819 0.69048 -0.00600
H 	H 	0.76169 0.11828 0.63642 0.10200
C 	C 	0.79662 0.08163 0.67034 0.03200
H 	H 	0.65384 0.04128 0.70560 0.07600
C 	C 	0.83377 0.11048 0.68678 -0.07800
C 	C 	0.87570 0.10849 0.68689 0.15700
C 	C 	0.88109 0.07850 0.66979 -0.10100
C 	C 	0.84479 0.05153 0.65237 -0.00200
C 	C 	0.80236 0.05216 0.65298 0.08100
H 	H 	0.82971 0.13374 0.69986 0.10500
H 	H 	0.84898 0.02878 0.63896 0.05100
Br	Br	0.73772 0.03152 0.71782 -0.18000
Br	Br	0.67675 0.12388 0.62221 -0.18800
Br	Br	0.92527 0.14713 0.71031 -0.19800
Br	Br	0.75187 0.01079 0.63095 -0.19000
C 	C 	0.37744 0.07409 0.64369 -0.09000
C 	C 	0.33713 0.05318 0.62759 0.15900
C 	C 	0.34047 0.10830 0.66965 0.08900
C 	C 	0.37949 0.10316 0.66396 -0.00400
H 	H 	0.41070 0.12007 0.67609 0.06500
Br	Br	0.34438 0.14840 0.69746 -0.19100
Br	Br	0.33373 0.01576 0.59839 -0.22000
C 	C 	0.45583 0.48712 0.89300 -0.09200
C 	C 	0.50327 0.50754 0.88805 0.15300
C 	C 	0.51736 0.51024 0.86264 -0.07900
C 	C 	0.48455 0.49239 0.84209 0.02800
C 	C 	0.43715 0.47123 0.84707 0.08600
C 	C 	0.42303 0.46869 0.87249 -0.00800
H 	H 	0.55388 0.52593 0.85886 0.09300
C 	C 	0.50016 0.49439 0.81553 0.02700
H 	H 	0.38651 0.45277 0.87627 0.05500
C 	C 	0.50861 0.46005 0.80568 -0.07900
C 	C 	0.52421 0.46166 0.78069 0.15400
C 	C 	0.53135 0.49793 0.76529 -0.08600
C 	C 	0.52337 0.53251 0.77522 -0.01000
C 	C 	0.50777 0.53089 0.80025 0.09000
H 	H 	0.50318 0.43214 0.81751 0.09300
H 	H 	0.52909 0.56057 0.76346 0.06900
Br	Br	0.39131 0.44586 0.81940 -0.17300
Br	Br	0.54928 0.53027 0.91578 -0.19500
Br	Br	0.53675 0.41460 0.76819 -0.18400
Br	Br	0.49678 0.57861 0.81320 -0.17200
C 	C 	0.42637 0.64068 0.98861 -0.08800
C 	C 	0.39076 0.64866 0.99846 0.14600
C 	C 	0.39448 0.69183 0.99839 -0.07700
C 	C 	0.43310 0.72728 0.98819 0.02600
C 	C 	0.46827 0.71915 0.97796 0.08700
C 	C 	0.46476 0.67612 0.97819 -0.00900
H 	H 	0.36702 0.69764 0.00598 0.09300
C 	C 	0.43609 0.77280 0.98787 0.02600
H 	H 	0.49237 0.67047 0.97065 0.07800
C 	C 	0.46105 0.80447 0.00772 -0.07300
C 	C 	0.46450 0.84755 0.00761 0.14800
C 	C 	0.44205 0.85914 0.98768 -0.08300
C 	C 	0.41748 0.82748 0.96770 -0.00600
C 	C 	0.41450 0.78465 0.96769 0.08700
H 	H 	0.47828 0.79586 0.02311 0.09300
H 	H 	0.39996 0.83585 0.95235 0.06100
Br	Br	0.52136 0.76632 0.96352 -0.17100
Br	Br	0.33557 0.60080 0.01066 -0.19400
Br	Br	0.50231 0.89059 0.03395 -0.16200
Br	Br	0.38089 0.74288 0.93988 -0.17800
C 	C 	0.45594 0.15369 0.99498 -0.08600
C 	C 	0.41262 0.15243 0.99873 0.14800
C 	C 	0.40796 0.19179 0.99737 -0.07800
C 	C 	0.44623 0.23273 0.99253 0.02700
C 	C 	0.48945 0.23394 0.98881 0.08800
C 	C 	0.49401 0.19462 0.98987 -0.00600
H 	H 	0.37461 0.19051 0.00025 0.09100
C 	C 	0.44062 0.27423 0.99098 0.02500
H 	H 	0.52745 0.19604 0.98703 0.07700
C 	C 	0.44374 0.29930 0.01360 -0.07300
C 	C 	0.43788 0.33806 0.01255 0.15200
C 	C 	0.42848 0.35208 0.98847 -0.07800
C 	C 	0.42735 0.32777 0.96582 -0.00900
C 	C 	0.43276 0.28892 0.96699 0.09100
H 	H 	0.45047 0.28860 0.03209 0.09200
H 	H 	0.42082 0.33831 0.94723 0.07400
Br	Br	0.54287 0.28904 0.98258 -0.16900
Br	Br	0.35996 0.09799 0.00689 -0.21900
Br	Br	0.44215 0.37023 0.04435 -0.17100
Br	Br	0.42826 0.25587 0.93557 -0.17800
C 	C 	0.43421 0.01682 0.88887 -0.09800
C 	C 	0.39704 0.98688 0.87261 0.16000
C 	C 	0.40032 0.98934 0.84574 -0.05900
C 	C 	0.44027 0.02168 0.83489 0.01000
C 	C 	0.47598 0.05363 0.85111 0.09000
C 	C 	0.47284 0.05105 0.87798 -0.00700
H 	H 	0.37224 0.96543 0.83331 0.09400
C 	C 	0.44587 0.01999 0.80672 0.01300
H 	H 	0.50129 0.07458 0.89036 0.07600
C 	C 	0.42999 0.04291 0.79031 -0.07800
C 	C 	0.43817 0.04439 0.76384 0.14700
C 	C 	0.46234 0.02257 0.75362 -0.11100
C 	C 	0.47661 0.99823 0.76991 0.01300
C 	C 	0.46834 0.99669 0.79632 0.10000
H 	H 	0.41224 0.06047 0.79820 0.09200
H 	H 	0.49489 0.98111 0.76212 0.07600
Br	Br	0.52996 0.10010 0.83691 -0.18900
Br	Br	0.34121 0.94298 0.88672 -0.22600
Br	Br	0.41816 0.07825 0.74228 -0.21700
Br	Br	0.48877 0.96331 0.81798 -0.16800
C 	C 	0.82855 0.31378 0.97750 -0.09200
C 	C 	0.82185 0.28584 0.95542 0.14900
C 	C 	0.78096 0.24608 0.95190 -0.07600
C 	C 	0.74691 0.23358 0.97021 0.02700
C 	C 	0.75451 0.26020 0.99281 0.08900
C 	C 	0.79496 0.30021 0.99625 -0.00600
H 	H 	0.77544 0.22504 0.93477 0.09600
C 	C 	0.70236 0.19412 0.96506 0.02600
H 	H 	0.79998 0.32115 0.01336 0.08000
C 	C 	0.69585 0.15295 0.97406 -0.07800
C 	C 	0.65122 0.11890 0.97714 0.15100
C 	C 	0.61301 0.12653 0.97156 -0.09000
C 	C 	0.61963 0.16523 0.95899 -0.00600
C 	C 	0.66420 0.19893 0.95557 0.08800
H 	H 	0.72540 0.14836 0.98006 0.09700
H 	H 	0.59025 0.17043 0.95348 0.07900
Br	Br	0.70953 0.24263 0.01903 -0.18300
Br	Br	0.86888 0.29976 0.93060 -0.22400
Br	Br	0.64307 0.06214 0.98846 -0.19400
Br	Br	0.67238 0.25289 0.93993 -0.17300
H 	H 	0.97459 0.44645 0.89547 0.04100
Br	Br	0.96561 0.43409 0.83855 -0.16500
C 	C 	0.82182 0.78311 0.01252 -0.08100
C 	C 	0.81258 0.75171 0.99203 0.14800
C 	C 	0.77019 0.71325 0.99024 -0.07800
C 	C 	0.73755 0.70582 0.00896 0.02500
C 	C 	0.75091 0.73212 0.03198 0.09000
C 	C 	0.79308 0.77088 0.03369 -0.00300
H 	H 	0.76115 0.69114 0.97329 0.09200
C 	C 	0.68838 0.67870 0.00186 0.02700
H 	H 	0.80154 0.79325 0.05048 0.08800
C 	C 	0.66752 0.63260 0.00483 -0.07600
C 	C 	0.62015 0.60691 0.99960 0.14600
C 	C 	0.59336 0.62760 0.99158 -0.08900
C 	C 	0.61462 0.67336 0.98746 -0.00200
C 	C 	0.66203 0.69893 0.99229 0.08800
H 	H 	0.68797 0.61686 0.01161 0.09300
H 	H 	0.59411 0.68920 0.98090 0.07900
Br	Br	0.70991 0.71798 0.06006 -0.17200
Br	Br	0.85657 0.76141 0.96598 -0.22900
Br	Br	0.59241 0.54383 0.00419 -0.22200
Br	Br	0.69025 0.76151 0.98588 -0.17600
Br	Br	0.31645 0.30795 0.02163 -0.19200
C 	C 	0.98259 0.61354 0.00604 -0.08900
C 	C 	0.94870 0.61567 0.98949 0.15500
C 	C 	0.94411 0.65496 0.98892 -0.07800
C 	C 	0.97409 0.69278 0.00408 0.03500
H 	H 	0.91734 0.65612 0.97661 0.09800
C 	C 	0.96904 0.73431 0.00315 0.02600
C 	C 	0.95206 0.74761 0.02447 -0.07100
C 	C 	0.94999 0.78817 0.02479 0.14500
C 	C 	0.96465 0.81589 0.00334 -0.07800
H 	H 	0.94084 0.72659 0.04098 0.09300
Br	Br	0.90686 0.56479 0.96857 -0.20000
Br	Br	0.92705 0.80446 0.05476 -0.19400
C 	C 	0.96545 0.31616 0.00003 -0.07400
C 	C 	0.95934 0.23160 0.00860 0.02200
C 	C 	0.92140 0.23524 0.99754 0.09300
C 	C 	0.92450 0.27729 0.99356 -0.01100
C 	C 	0.95714 0.18724 0.01204 0.03000
H 	H 	0.89515 0.27973 0.98514 0.07300
C 	C 	0.93450 0.16208 0.03313 -0.07400
C 	C 	0.92928 0.11885 0.03577 0.15500
C 	C 	0.94890 0.10118 0.01777 -0.08200
H 	H 	0.91967 0.17561 0.04708 0.09600
Br	Br	0.86535 0.18314 0.98708 -0.18300
Br	Br	0.89120 0.08316 0.06243 -0.17000
C 	C 	0.98498 0.02233 0.77670 -0.10600
C 	C 	0.97208 0.00922 0.82971 0.01800
C 	C 	0.94624 0.97415 0.81169 0.10000
C 	C 	0.95275 0.98088 0.78529 0.01800
C 	C 	0.96938 0.00151 0.85758 0.01800
H 	H 	0.93355 0.95357 0.77147 0.07900
C 	C 	0.93661 0.00765 0.87173 -0.10100
C 	C 	0.93282 0.99932 0.89810 0.18000
C 	C 	0.96248 0.98519 0.91054 -0.10400
H 	H 	0.91358 0.01822 0.86214 0.09800
Br	Br	0.90282 0.91660 0.82286 -0.17100
Br	Br	0.88545 0.00526 0.91645 -0.21900
C 	C 	0.56285 0.51099 0.42936 -0.09200
C 	C 	0.56345 0.54396 0.44676 0.15200
C 	C 	0.57486 0.54346 0.47288 -0.07900
C 	C 	0.59008 0.51321 0.48152 0.02800
C 	C 	0.59558 0.48444 0.46350 0.08300
C 	C 	0.58087 0.48259 0.43771 -0.00700
H 	H 	0.57189 0.56665 0.48652 0.09600
C 	C 	0.59454 0.50817 0.50956 0.02800
H 	H 	0.58286 0.45861 0.42428 0.08000
C 	C 	0.56332 0.46878 0.52080 -0.07700
C 	C 	0.56049 0.46660 0.54761 0.15200
C 	C 	0.58625 0.50523 0.56334 -0.08800
C 	C 	0.62060 0.54323 0.55232 -0.00400
C 	C 	0.62547 0.54444 0.52555 0.08400
H 	H 	0.54056 0.44013 0.50866 0.09700
H 	H 	0.64240 0.57237 0.56437 0.08300
Br	Br	0.62408 0.44827 0.47365 -0.17100
Br	Br	0.55381 0.59268 0.43499 -0.25100
Br	Br	0.52311 0.41016 0.56243 -0.23900
Br	Br	0.67465 0.59559 0.51121 -0.17300
C 	C 	0.48976 0.50061 0.22758 -0.08800
C 	C 	0.44773 0.49835 0.21796 0.14300
C 	C 	0.43892 0.49649 0.19128 -0.07500
C 	C 	0.47002 0.49389 0.17402 0.02500
C 	C 	0.51108 0.49451 0.18358 0.08700
C 	C 	0.52125 0.49895 0.21016 -0.01300
H 	H 	0.40722 0.49591 0.18395 0.09400
C 	C 	0.46035 0.49256 0.14596 0.02800
H 	H 	0.55343 0.50036 0.21730 0.08300
C 	C 	0.48640 0.53018 0.13173 -0.07800
C 	C 	0.47810 0.52961 0.10512 0.15500
C 	C 	0.44092 0.49226 0.09280 -0.09000
C 	C 	0.41528 0.45431 0.10696 -0.00200
C 	C 	0.42528 0.45408 0.13336 0.08600
H 	H 	0.51403 0.55951 0.14127 0.09800
H 	H 	0.38732 0.42512 0.09751 0.08500
Br	Br	0.55286 0.48754 0.16071 -0.17100
Br	Br	0.40011 0.49380 0.24057 -0.17800
Br	Br	0.52072 0.57827 0.08569 -0.28000
Br	Br	0.39151 0.40060 0.15172 -0.17900
C 	C 	0.55574 0.06026 0.55740 -0.08800
C 	C 	0.55201 0.08382 0.53610 0.15100
C 	C 	0.56023 0.07265 0.51127 -0.08300
C 	C 	0.57267 0.03846 0.50746 0.03300
C 	C 	0.57968 0.01716 0.52895 0.07200
C 	C 	0.57119 0.02814 0.55380 -0.00900
H 	H 	0.55604 0.08998 0.49486 0.09500
C 	C 	0.57529 0.02333 0.48082 0.00700
H 	H 	0.57505 0.01056 0.57018 0.06300
C 	C 	0.61595 0.04601 0.46739 -0.07400
C 	C 	0.61644 0.03750 0.44083 0.14900
C 	C 	0.57588 0.00604 0.42750 -0.10400
C 	C 	0.53634 0.98096 0.44138 0.01300
C 	C 	0.53578 0.98959 0.46787 0.10500
H 	H 	0.64668 0.07148 0.47736 0.09400
H 	H 	0.50520 0.95632 0.43130 0.07600
Br	Br	0.59958 0.97223 0.52466 -0.15200
Br	Br	0.53722 0.13224 0.54061 -0.17100
Br	Br	0.67188 0.07131 0.42281 -0.26100
Br	Br	0.48000 0.95651 0.48578 -0.17300
C 	C 	0.58432 0.89473 0.32457 -0.09200
C 	C 	0.58571 0.87227 0.30158 0.15000
C 	C 	0.57724 0.82787 0.30218 -0.07700
C 	C 	0.56775 0.80562 0.32545 0.02600
C 	C 	0.56762 0.82834 0.34849 0.08900
C 	C 	0.57583 0.87269 0.34794 -0.01200
H 	H 	0.57787 0.81054 0.28448 0.09400
C 	C 	0.55661 0.75819 0.32540 0.02600
H 	H 	0.57543 0.89000 0.36569 0.06900
C 	C 	0.59232 0.74626 0.32813 -0.07600
C 	C 	0.58220 0.70135 0.32869 0.14500
C 	C 	0.53597 0.66805 0.32645 -0.08700
C 	C 	0.50038 0.68000 0.32315 -0.00400
C 	C 	0.51048 0.72483 0.32252 0.08900
H 	H 	0.62790 0.77191 0.33012 0.09500
H 	H 	0.46476 0.65439 0.32127 0.08200
Br	Br	0.55610 0.79923 0.38085 -0.17800
Br	Br	0.60088 0.90191 0.26937 -0.18100
Br	Br	0.63178 0.68620 0.33334 -0.21500
Br	Br	0.46084 0.73993 0.31792 -0.17700
C 	C 	0.53290 0.14112 0.34052 -0.09400
C 	C 	0.57219 0.18267 0.33926 0.15300
C 	C 	0.56772 0.22177 0.34136 -0.08000
C 	C 	0.52412 0.21964 0.34432 0.03100
C 	C 	0.48506 0.17799 0.34639 0.08800
C 	C 	0.48983 0.13909 0.34499 -0.00600
H 	H 	0.59781 0.25374 0.33965 0.10300
C 	C 	0.51870 0.26019 0.34151 0.02800
H 	H 	0.45958 0.10706 0.34620 0.07800
C 	C 	0.52011 0.27688 0.31691 -0.08000
C 	C 	0.51272 0.31393 0.31340 0.15100
C 	C 	0.50182 0.33371 0.33473 -0.09400
C 	C 	0.50076 0.31694 0.35944 -0.00700
C 	C 	0.51045 0.28122 0.36298 0.09300
H 	H 	0.52734 0.26115 0.30044 0.09300
H 	H 	0.49328 0.33225 0.37601 0.07900
Br	Br	0.42443 0.17334 0.34925 -0.18200
Br	Br	0.63206 0.18661 0.33441 -0.20300
Br	Br	0.52077 0.33815 0.27961 -0.23200
Br	Br	0.51363 0.26242 0.39735 -0.15900
C 	C 	0.45857 0.00765 0.09176 -0.09900
C 	C 	0.49930 0.00417 0.09721 0.15200
C 	C 	0.51278 0.00218 0.12283 -0.10600
C 	C 	0.48651 0.00461 0.14322 0.03800
C 	C 	0.44643 0.00934 0.13779 0.08200
C 	C 	0.43242 0.01037 0.11212 -0.00400
H 	H 	0.54407 0.99939 0.12692 0.11600
C 	C 	0.50281 0.00506 0.17022 0.00200
H 	H 	0.40129 0.01344 0.10802 0.07000
C 	C 	0.53809 0.04454 0.18145 -0.07400
C 	C 	0.55168 0.04659 0.20749 0.14800
C 	C 	0.52921 0.00909 0.22273 -0.09500
C 	C 	0.49602 0.96879 0.21110 -0.00100
C 	C 	0.48299 0.96651 0.18488 0.10800
H 	H 	0.55455 0.07385 0.17002 0.08800
H 	H 	0.47919 0.93961 0.22260 0.06700
Br	Br	0.41097 0.01536 0.16518 -0.19500
Br	Br	0.53795 0.00395 0.06997 -0.26100
Br	Br	0.60137 0.10074 0.22187 -0.18500
Br	Br	0.43774 0.91074 0.16954 -0.16700
Br	Br	0.97173 0.37480 0.51913 -0.18300
C 	C 	0.62761 0.44555 0.32527 -0.08800
C 	C 	0.66849 0.46566 0.31156 0.15500
C 	C 	0.70295 0.45233 0.31534 -0.07500
C 	C 	0.69651 0.41813 0.33220 0.02900
C 	C 	0.65565 0.39820 0.34598 0.08500
C 	C 	0.62214 0.41290 0.34301 -0.01100
H 	H 	0.73470 0.46846 0.30510 0.10400
C 	C 	0.73402 0.40549 0.33650 0.03200
H 	H 	0.59147 0.39834 0.35420 0.06700
C 	C 	0.76011 0.41798 0.35987 -0.07200
C 	C 	0.80082 0.41396 0.36262 0.16200
C 	C 	0.81701 0.39915 0.34123 -0.09000
C 	C 	0.78816 0.38214 0.31888 0.00100
C 	C 	0.74670 0.38497 0.31651 0.08600
H 	H 	0.74958 0.43228 0.37568 0.10200
H 	H 	0.79904 0.36869 0.30282 0.07500
Br	Br	0.64414 0.34977 0.36819 -0.19000
Br	Br	0.67848 0.51223 0.28818 -0.17800
Br	Br	0.83327 0.42914 0.39571 -0.24400
Br	Br	0.70787 0.36068 0.28587 -0.17300
C 	C 	0.37075 0.49869 0.33843 -0.09300
C 	C 	0.33618 0.46534 0.32231 0.15500
C 	C 	0.31504 0.52270 0.35279 0.08500
C 	C 	0.35979 0.52689 0.35380 -0.00300
H 	H 	0.38635 0.55278 0.36612 0.06500
Br	Br	0.34906 0.42441 0.30216 -0.22300
C 	C 	0.93565 0.42816 0.09800 -0.09400
C 	C 	0.96533 0.41564 0.11185 0.14400
C 	C 	0.96528 0.41562 0.13884 -0.08000
C 	C 	0.93600 0.42819 0.15217 0.02500
C 	C 	0.90366 0.43698 0.13826 0.08600
C 	C 	0.90333 0.43651 0.11128 -0.00900
C 	C 	0.94337 0.43745 0.18029 0.02600
H 	H 	0.87962 0.44507 0.10067 0.07600
C 	C 	0.97658 0.47961 0.18971 -0.08200
C 	C 	0.98558 0.48855 0.21629 0.15700
C 	C 	0.96106 0.45517 0.23369 -0.10200
C 	C 	0.92685 0.41346 0.22430 -0.01100
C 	C 	0.91818 0.40434 0.19770 0.08600
H 	H 	0.90792 0.38767 0.23767 0.05500
Br	Br	0.86130 0.45193 0.15583 -0.17000
Br	Br	0.87248 0.34628 0.18549 -0.17600
H 	H 	0.96728 0.02424 0.56806 0.04600
Br	Br	0.99234 0.89267 0.45832 -0.15000
Br	Br	0.94997 0.99070 0.51390 -0.15900
C 	C 	0.93729 0.57585 0.34597 -0.09300
C 	C 	0.89536 0.57808 0.34793 0.15800
C 	C 	0.89607 0.61923 0.35258 -0.08000
C 	C 	0.93795 0.65855 0.35328 0.02700
C 	C 	0.97965 0.65648 0.34994 0.08700
C 	C 	0.97915 0.61517 0.34671 -0.00600
H 	H 	0.86387 0.62082 0.35458 0.09600
C 	C 	0.93788 0.70186 0.35647 0.02600
C 	C 	0.95474 0.72658 0.37981 -0.07600
C 	C 	0.96765 0.77214 0.38092 0.15500
C 	C 	0.96130 0.79262 0.35883 -0.09100
C 	C 	0.93823 0.76636 0.33673 -0.01100
C 	C 	0.92730 0.72130 0.33525 0.08700
H 	H 	0.96143 0.71123 0.39645 0.09300
H 	H 	0.93224 0.78180 0.31992 0.05800
Br	Br	0.83698 0.52642 0.34124 -0.19800
Br	Br	0.90178 0.68793 0.30333 -0.17600
C 	C 	0.72535 0.04175 0.30130 -0.10700
C 	C 	0.76963 0.07799 0.29978 0.15100
C 	C 	0.80851 0.07066 0.30020 -0.07600
C 	C 	0.80360 0.02750 0.30303 0.00200
C 	C 	0.75904 0.99103 0.30279 0.10700
C 	C 	0.72027 0.99829 0.30095 0.00600
H 	H 	0.84269 0.09876 0.29983 0.09100
C 	C 	0.84442 0.02189 0.31077 0.04500
H 	H 	0.68619 0.97020 0.30115 0.08400
C 	C 	0.86436 0.03605 0.33566 -0.09700
C 	C 	0.90310 0.03138 0.34357 0.16600
C 	C 	0.92019 0.00900 0.32706 -0.12200
C 	C 	0.90032 0.99509 0.30203 0.04600
C 	C 	0.86353 0.00270 0.29357 0.04600
H 	H 	0.85049 0.05197 0.34868 0.09300
H 	H 	0.91411 0.97920 0.28894 0.06500
Br	Br	0.75033 0.93152 0.30754 -0.17600
Br	Br	0.77764 0.13766 0.29746 -0.18600
Br	Br	0.93499 0.06064 0.37554 -0.23000
Br	Br	0.84120 0.98844 0.25824 -0.14600
C 	C 	0.33034 0.98946 0.38019 -0.06100
C 	C 	0.37478 0.99630 0.37472 0.16200
C 	C 	0.38165 0.97552 0.35257 -0.09400
C 	C 	0.34360 0.94625 0.33695 -0.01000
H 	H 	0.32532 0.00664 0.39674 0.07800
H 	H 	0.34875 0.93001 0.31999 0.05700
Br	Br	0.42603 0.03666 0.39670 -0.19700
C 	C 	0.98187 0.91607 0.23713 0.15900
C 	C 	0.96740 0.91005 0.21107 -0.08200
C 	C 	0.99028 0.94384 0.19375 0.03500
H 	H 	0.93837 0.87905 0.20425 0.09700
C 	C 	0.97530 0.93653 0.16624 0.02600
C 	C 	0.93894 0.94486 0.15782 -0.07600
C 	C 	0.92782 0.94319 0.13145 0.15000
C 	C 	0.95394 0.93399 0.11325 -0.08700
H 	H 	0.91982 0.95337 0.17176 0.09700
Br	Br	0.94796 0.87004 0.26057 -0.26400
Br	Br	0.87557 0.95150 0.12077 -0.16500
