data_crystal

_cell_length_a 43.45518
_cell_length_b 36.59358
_cell_length_c 27.99665
_cell_angle_alpha 89.99958
_cell_angle_beta  90.00042
_cell_angle_gamma 89.99876

_symmetry_space_group_name_	'P 1'
_symmetry_space_group_name_H-M	'P 1'

loop_
_symmetry_equiv_pos_as_xyz
  x,y,z

loop_
_atom_site_label
_atom_site_type_symbol
_atom_site_fract_x
_atom_site_fract_y
_atom_site_fract_z
_atom_site_charge
Cu	Cu	0.16559 0.84550 0.31595 0.92700
Cu	Cu	0.20063 0.78140 0.25542 0.86400
Cu	Cu	0.17946 0.85122 0.20973 0.89400
Cu	Cu	0.15707 0.91873 0.25892 0.89200
C 	C 	0.16669 0.91473 0.36366 0.28300
O 	O 	0.11961 0.85351 0.31180 -0.36400
C 	C 	0.18663 0.78308 0.15532 0.27600
O 	O 	0.18612 0.88065 0.26567 -0.64100
O 	O 	0.16574 0.81473 0.25833 -0.64300
O 	O 	0.18662 0.81061 0.35880 -0.37700
O 	O 	0.22557 0.79909 0.30670 -0.43600
O 	O 	0.14989 0.92772 0.32827 -0.38600
O 	O 	0.19498 0.88738 0.16514 -0.38500
C 	C 	0.18511 0.92145 0.16173 0.28600
C 	C 	0.10605 0.86314 0.27171 0.27700
O 	O 	0.12198 0.87957 0.23803 -0.39500
O 	O 	0.17513 0.93959 0.19956 -0.39500
O 	O 	0.17241 0.87940 0.36688 -0.36500
C 	C 	0.21500 0.80029 0.35063 0.28800
O 	O 	0.17730 0.81751 0.15549 -0.38200
O 	O 	0.18657 0.76340 0.19485 -0.41700
H 	H 	0.20768 0.88850 0.27070 0.16300
H 	H 	0.14580 0.80311 0.25042 0.17200
Cu	Cu	0.31856 0.64155 0.81560 0.92800
Cu	Cu	0.28356 0.70426 0.75300 0.86400
Cu	Cu	0.30314 0.63342 0.71031 0.89500
Cu	Cu	0.32251 0.56547 0.76277 0.89300
C 	C 	0.31346 0.57408 0.86657 0.28400
O 	O 	0.36406 0.63086 0.80933 -0.36100
C 	C 	0.29773 0.69990 0.65251 0.27600
O 	O 	0.29572 0.60604 0.76798 -0.63900
O 	O 	0.31824 0.67062 0.75668 -0.64400
O 	O 	0.29952 0.67889 0.85694 -0.37700
O 	O 	0.25934 0.68935 0.80676 -0.43600
O 	O 	0.32954 0.55836 0.83237 -0.38600
O 	O 	0.28652 0.59688 0.66718 -0.38500
C 	C 	0.29555 0.56242 0.66568 0.28400
C 	C 	0.37622 0.61873 0.76930 0.27800
O 	O 	0.35907 0.60127 0.73805 -0.39500
O 	O 	0.30232 0.54451 0.70530 -0.39500
O 	O 	0.31153 0.60999 0.86903 -0.36400
C 	C 	0.27094 0.68897 0.85012 0.28700
O 	O 	0.30696 0.66548 0.65485 -0.38200
O 	O 	0.29690 0.72071 0.69110 -0.41800
H 	H 	0.27384 0.60011 0.77401 0.16100
H 	H 	0.33824 0.68159 0.74760 0.17200
Cu	Cu	0.30822 0.34739 0.20303 0.92800
Cu	Cu	0.27284 0.28479 0.26582 0.86400
Cu	Cu	0.29588 0.35411 0.30931 0.89500
Cu	Cu	0.31794 0.42106 0.25875 0.89300
C 	C 	0.30675 0.41625 0.15417 0.28400
O 	O 	0.35425 0.35494 0.20546 -0.36400
C 	C 	0.28875 0.28737 0.36570 0.27600
O 	O 	0.28858 0.38316 0.25337 -0.64200
O 	O 	0.30849 0.31700 0.26097 -0.64300
O 	O 	0.28673 0.31218 0.16130 -0.37600
O 	O 	0.24787 0.30175 0.21400 -0.43600
O 	O 	0.32379 0.42982 0.18896 -0.38500
O 	O 	0.28107 0.39051 0.35390 -0.38800
C 	C 	0.29170 0.42423 0.35725 0.28600
C 	C 	0.36851 0.36476 0.24485 0.27700
O 	O 	0.35330 0.38184 0.27877 -0.39400
O 	O 	0.30129 0.44228 0.31906 -0.39400
O 	O 	0.30100 0.38087 0.15184 -0.36600
C 	C 	0.25833 0.30222 0.16996 0.28800
O 	O 	0.29974 0.32104 0.36367 -0.38200
O 	O 	0.28676 0.26699 0.32684 -0.41700
H 	H 	0.26699 0.39114 0.24899 0.16200
H 	H 	0.32833 0.30497 0.26846 0.17300
Cu	Cu	0.15996 0.13834 0.70499 0.92800
Cu	Cu	0.19281 0.20393 0.76552 0.86500
Cu	Cu	0.17656 0.13216 0.81032 0.89500
Cu	Cu	0.15754 0.06301 0.75939 0.89300
C 	C 	0.16514 0.07035 0.65484 0.28400
O 	O 	0.11468 0.12647 0.71182 -0.36100
C 	C 	0.18024 0.20037 0.86610 0.27700
O 	O 	0.18368 0.10411 0.75303 -0.63800
O 	O 	0.15978 0.16807 0.76342 -0.64400
O 	O 	0.17812 0.17564 0.66239 -0.37700
O 	O 	0.21767 0.18900 0.71261 -0.43600
O 	O 	0.14981 0.05487 0.69009 -0.38600
O 	O 	0.19413 0.09620 0.85343 -0.38300
C 	C 	0.18528 0.06172 0.85599 0.28400
C 	C 	0.10288 0.11465 0.75226 0.27800
O 	O 	0.12047 0.09816 0.78382 -0.39500
O 	O 	0.17829 0.04311 0.81702 -0.39400
O 	O 	0.16747 0.10624 0.65231 -0.36500
C 	C 	0.20625 0.18740 0.66920 0.28700
O 	O 	0.17394 0.16495 0.86561 -0.38200
O 	O 	0.17860 0.22021 0.82678 -0.41700
H 	H 	0.20557 0.09851 0.74651 0.16100
H 	H 	0.13944 0.17800 0.77268 0.17100
Cu	Cu	0.65763 0.33846 0.30707 0.92800
Cu	Cu	0.69822 0.27959 0.24572 0.86400
Cu	Cu	0.67304 0.34724 0.20198 0.89500
Cu	Cu	0.64559 0.41169 0.25152 0.89300
C 	C 	0.65268 0.40662 0.35694 0.28500
O 	O 	0.61132 0.34219 0.30091 -0.36300
C 	C 	0.68431 0.28133 0.14509 0.27700
O 	O 	0.67682 0.37624 0.25887 -0.64100
O 	O 	0.66084 0.30880 0.24871 -0.64400
O 	O 	0.68043 0.30499 0.34976 -0.37500
O 	O 	0.72081 0.29870 0.29872 -0.43700
O 	O 	0.63626 0.41890 0.32067 -0.38600
O 	O 	0.68723 0.38518 0.15910 -0.38700
C 	C 	0.67489 0.41805 0.15545 0.28500
C 	C 	0.59790 0.35167 0.26060 0.27600
O 	O 	0.61364 0.36973 0.22814 -0.39600
O 	O 	0.66315 0.43488 0.19313 -0.39400
O 	O 	0.66119 0.37206 0.35913 -0.36400
C 	C 	0.70953 0.29754 0.34225 0.28700
O 	O 	0.67243 0.31461 0.14678 -0.38300
O 	O 	0.68658 0.26106 0.18402 -0.41800
H 	H 	0.69773 0.38589 0.26508 0.16300
H 	H 	0.64196 0.29540 0.23945 0.17300
Cu	Cu	0.81718 0.13629 0.80542 0.92800
Cu	Cu	0.78220 0.20044 0.74495 0.86500
Cu	Cu	0.79914 0.12852 0.70096 0.89500
Cu	Cu	0.82000 0.06044 0.75218 0.89300
C 	C 	0.81406 0.06868 0.85699 0.28400
O 	O 	0.86253 0.12545 0.79711 -0.36100
C 	C 	0.79265 0.19553 0.64397 0.27600
O 	O 	0.79331 0.10098 0.75894 -0.63800
O 	O 	0.81593 0.16542 0.74648 -0.64300
O 	O 	0.79895 0.17354 0.84800 -0.37700
O 	O 	0.75845 0.18524 0.79891 -0.43600
O 	O 	0.82895 0.05314 0.82133 -0.38600
O 	O 	0.78120 0.09193 0.65931 -0.38500
C 	C 	0.79055 0.05764 0.65671 0.28500
C 	C 	0.87392 0.11338 0.75652 0.27800
O 	O 	0.85611 0.09622 0.72587 -0.39500
O 	O 	0.79879 0.03950 0.69548 -0.39400
O 	O 	0.81108 0.10454 0.85892 -0.36500
C 	C 	0.77050 0.18444 0.84193 0.28700
O 	O 	0.80070 0.16064 0.64504 -0.38200
O 	O 	0.79478 0.21614 0.68255 -0.41700
H 	H 	0.77160 0.09496 0.76631 0.16200
H 	H 	0.83594 0.17575 0.73629 0.17100
Cu	Cu	0.81759 0.84331 0.19577 0.92800
Cu	Cu	0.78089 0.77918 0.25375 0.86500
Cu	Cu	0.80226 0.84835 0.30167 0.89500
Cu	Cu	0.82628 0.91603 0.25393 0.89300
C 	C 	0.81780 0.91293 0.14886 0.28300
O 	O 	0.86359 0.85035 0.20156 -0.36400
C 	C 	0.79267 0.77975 0.35429 0.27600
O 	O 	0.79688 0.87845 0.24591 -0.64000
O 	O 	0.81615 0.81203 0.25290 -0.64200
O 	O 	0.79681 0.80919 0.15158 -0.37700
O 	O 	0.75695 0.79791 0.20202 -0.43700
O 	O 	0.83427 0.92554 0.18488 -0.38600
O 	O 	0.78689 0.88460 0.34626 -0.38500
C 	C 	0.79765 0.91822 0.35058 0.28500
C 	C 	0.87676 0.85943 0.24218 0.27600
O 	O 	0.86066 0.87614 0.27543 -0.39500
O 	O 	0.80778 0.93665 0.31309 -0.39400
O 	O 	0.81196 0.87767 0.14505 -0.36500
C 	C 	0.76821 0.79927 0.15853 0.28800
O 	O 	0.80247 0.81400 0.35547 -0.38200
O 	O 	0.79379 0.76050 0.31448 -0.41700
H 	H 	0.77550 0.88672 0.24020 0.16200
H 	H 	0.83583 0.79999 0.26128 0.17200
Cu	Cu	0.66321 0.63345 0.69653 0.92900
Cu	Cu	0.70303 0.69462 0.75515 0.86400
Cu	Cu	0.68142 0.62637 0.80071 0.89500
Cu	Cu	0.65574 0.55965 0.75294 0.89300
C 	C 	0.65908 0.56499 0.64702 0.28600
O 	O 	0.61731 0.62720 0.70613 -0.36100
C 	C 	0.68993 0.69367 0.85639 0.27700
O 	O 	0.68509 0.59712 0.74380 -0.64000
O 	O 	0.66672 0.66364 0.75424 -0.64500
O 	O 	0.68374 0.66785 0.65230 -0.37400
O 	O 	0.72506 0.67656 0.70094 -0.43700
O 	O 	0.64447 0.55190 0.68460 -0.38700
O 	O 	0.69734 0.58941 0.84373 -0.38600
C 	C 	0.68600 0.55606 0.84781 0.28500
C 	C 	0.60558 0.61705 0.74740 0.27800
O 	O 	0.62277 0.59959 0.77860 -0.39500
O 	O 	0.67611 0.53795 0.80993 -0.39400
O 	O 	0.66673 0.59981 0.64449 -0.36400
C 	C 	0.71271 0.67682 0.65808 0.28600
O 	O 	0.68016 0.65939 0.85546 -0.38300
O 	O 	0.69168 0.71340 0.81688 -0.41800
H 	H 	0.70625 0.58884 0.73641 0.16200
H 	H 	0.64761 0.67615 0.76443 0.17300
C 	C 	0.74928 0.78812 0.11754 -0.08200
C 	C 	0.74988 0.80892 0.07556 0.00800
C 	C 	0.73678 0.79549 0.03356 -0.05500
C 	C 	0.72201 0.76105 0.03316 0.00600
C 	C 	0.72188 0.73983 0.07560 0.00400
C 	C 	0.73439 0.75418 0.11792 -0.01600
C 	C 	0.71145 0.70356 0.07445 -0.04100
C 	C 	0.70305 0.68738 0.03127 -0.04400
C 	C 	0.70290 0.70789 0.98899 0.00900
C 	C 	0.71004 0.74562 0.99029 0.00300
C 	C 	0.70456 0.76694 0.94912 -0.05300
C 	C 	0.69732 0.75008 0.90577 -0.00100
C 	C 	0.69400 0.71194 0.90321 -0.07200
C 	C 	0.69566 0.69110 0.94531 -0.02200
H 	H 	0.76175 0.83497 0.07493 0.03500
H 	H 	0.74016 0.81081 0.00100 0.04000
H 	H 	0.73438 0.73787 0.15029 0.02200
H 	H 	0.71117 0.68730 0.10681 0.03300
H 	H 	0.69657 0.65877 0.03074 0.03600
H 	H 	0.70448 0.79644 0.95083 0.03900
H 	H 	0.69409 0.76680 0.87425 0.03300
H 	H 	0.69185 0.66182 0.94401 0.04500
C 	C 	0.78516 0.76094 0.39961 -0.07400
C 	C 	0.76623 0.72991 0.39902 -0.00000
C 	C 	0.75669 0.71365 0.44163 -0.05400
C 	C 	0.76694 0.72741 0.48604 0.00400
C 	C 	0.78513 0.75959 0.48670 0.00700
C 	C 	0.79482 0.77552 0.44354 -0.01800
C 	C 	0.79202 0.77666 0.53029 -0.04200
C 	C 	0.77988 0.76323 0.57296 -0.04200
C 	C 	0.76211 0.73127 0.57317 0.00400
C 	C 	0.75733 0.71167 0.53015 0.00600
C 	C 	0.74351 0.67677 0.53249 -0.05400
C 	C 	0.72987 0.66486 0.57490 0.00700
C 	C 	0.73144 0.68641 0.61619 -0.08000
C 	C 	0.74879 0.71872 0.61591 -0.01700
H 	H 	0.75776 0.71919 0.36542 0.02300
H 	H 	0.73986 0.69198 0.43977 0.04000
H 	H 	0.80920 0.79975 0.44423 0.04500
H 	H 	0.80593 0.80125 0.53096 0.03600
H 	H 	0.78436 0.77774 0.60599 0.03300
H 	H 	0.74427 0.65826 0.50245 0.04100
H 	H 	0.71803 0.63880 0.57565 0.03800
H 	H 	0.75099 0.73468 0.64838 0.02300
C 	C 	0.79250 0.93805 0.39585 -0.07200
C 	C 	0.79388 0.91929 0.43945 0.00100
C 	C 	0.79153 0.93823 0.48265 -0.05300
C 	C 	0.78658 0.97644 0.48292 0.00400
C 	C 	0.78648 0.99551 0.43883 0.00700
C 	C 	0.78842 0.97611 0.39567 -0.01900
C 	C 	0.78603 0.03384 0.43833 -0.04100
C 	C 	0.78697 0.05349 0.48096 -0.04200
C 	C 	0.78639 0.03523 0.52495 0.00800
C 	C 	0.78410 0.99661 0.52630 0.00400
C 	C 	0.77843 0.97938 0.57059 -0.05400
C 	C 	0.77988 0.99945 0.61299 0.00200
C 	C 	0.78559 0.03720 0.61186 -0.07200
C 	C 	0.78779 0.05520 0.56775 -0.02100
H 	H 	0.79802 0.89008 0.43998 0.03600
H 	H 	0.79551 0.92339 0.51542 0.04000
H 	H 	0.78750 0.99074 0.36200 0.04000
H 	H 	0.78602 0.04851 0.40469 0.03500
H 	H 	0.78788 0.08308 0.47975 0.03600
H 	H 	0.77149 0.95106 0.57234 0.04000
H 	H 	0.77620 0.98565 0.64674 0.03400
H 	H 	0.79114 0.08457 0.56671 0.04300
C 	C 	0.80795 0.04689 0.90042 -0.07200
C 	C 	0.80532 0.06396 0.94516 0.00300
C 	C 	0.80275 0.04303 0.98669 -0.05200
C 	C 	0.80437 0.00451 0.98424 0.00600
C 	C 	0.80317 0.98748 0.93886 0.00700
C 	C 	0.80540 0.00872 0.89727 -0.01900
C 	C 	0.79966 0.94950 0.93551 -0.04200
C 	C 	0.79851 0.92810 0.97666 -0.04100
C 	C 	0.80273 0.94401 0.02177 0.00700
C 	C 	0.80652 0.98238 0.02597 0.00300
C 	C 	0.81482 0.99719 0.07077 -0.05300
C 	C 	0.81713 0.97471 0.11088 0.00100
C 	C 	0.81272 0.93684 0.10690 -0.07200
C 	C 	0.80493 0.92169 0.06242 -0.01900
H 	H 	0.80533 0.09349 0.94788 0.04100
H 	H 	0.79817 0.05682 0.02006 0.03900
H 	H 	0.80544 0.99557 0.86254 0.03200
H 	H 	0.79773 0.93647 0.90087 0.03500
H 	H 	0.79548 0.89881 0.97331 0.03700
H 	H 	0.82128 0.02556 0.07437 0.04000
H 	H 	0.82323 0.98673 0.14494 0.02900
H 	H 	0.80168 0.89242 0.05902 0.04700
C 	C 	0.67962 0.43911 0.11085 -0.07200
C 	C 	0.67619 0.47727 0.11075 0.00100
C 	C 	0.67889 0.49706 0.06831 -0.05400
C 	C 	0.68649 0.47914 0.02518 0.00400
C 	C 	0.68852 0.44046 0.02491 0.00700
C 	C 	0.68581 0.42082 0.06783 -0.02000
C 	C 	0.69177 0.42166 0.98154 -0.04100
C 	C 	0.69186 0.44063 0.93836 -0.04200
C 	C 	0.69053 0.47891 0.93783 0.00700
C 	C 	0.68984 0.49861 0.98137 0.00400
C 	C 	0.69343 0.53698 0.98004 -0.05200
C 	C 	0.69271 0.55556 0.93644 0.00000
C 	C 	0.69011 0.53616 0.89338 -0.07200
C 	C 	0.69014 0.49777 0.89415 -0.02000
H 	H 	0.67071 0.49167 0.14347 0.03500
H 	H 	0.67330 0.52581 0.06889 0.04000
H 	H 	0.68752 0.39124 0.06745 0.04300
H 	H 	0.69327 0.39210 0.98117 0.03500
H 	H 	0.69320 0.42548 0.90515 0.03500
H 	H 	0.69810 0.55239 0.01216 0.03900
H 	H 	0.69409 0.58512 0.93623 0.03800
H 	H 	0.68977 0.48260 0.86087 0.04100
C 	C 	0.65397 0.42866 0.40070 -0.07200
C 	C 	0.68185 0.43294 0.42518 0.00100
C 	C 	0.68341 0.45515 0.46575 -0.05300
C 	C 	0.65698 0.47407 0.48178 0.00400
C 	C 	0.62831 0.46675 0.45960 0.00800
C 	C 	0.62717 0.44510 0.41833 -0.01600
C 	C 	0.60101 0.48005 0.47982 -0.04100
C 	C 	0.60179 0.50017 0.52204 -0.04100
C 	C 	0.63000 0.50957 0.54297 0.00800
C 	C 	0.65797 0.49838 0.52142 0.00400
C 	C 	0.68591 0.51349 0.53817 -0.05300
C 	C 	0.68614 0.53560 0.57891 0.00100
C 	C 	0.65864 0.54354 0.60281 -0.07200
C 	C 	0.63060 0.53105 0.58441 -0.01500
H 	H 	0.70235 0.41895 0.41286 0.02900
H 	H 	0.70467 0.45597 0.48575 0.03900
H 	H 	0.60536 0.44042 0.40048 0.04400
H 	H 	0.57900 0.47402 0.46338 0.03800
H 	H 	0.58036 0.50922 0.53796 0.03900
H 	H 	0.70714 0.50982 0.51863 0.03900
H 	H 	0.70774 0.54659 0.59187 0.02700
H 	H 	0.60923 0.53855 0.60194 0.04400
C 	C 	0.75199 0.19507 0.88364 -0.08100
C 	C 	0.75293 0.17374 0.92515 0.00700
C 	C 	0.73901 0.18596 0.96716 -0.05500
C 	C 	0.72306 0.21963 0.96799 0.00700
C 	C 	0.72296 0.24165 0.92627 0.00400
C 	C 	0.73638 0.22857 0.88391 -0.01600
C 	C 	0.71140 0.27743 0.92818 -0.04100
C 	C 	0.70153 0.29226 0.97145 -0.04200
C 	C 	0.70109 0.27081 0.01294 0.00800
C 	C 	0.70963 0.23352 0.01071 0.00200
C 	C 	0.70390 0.21102 0.05071 -0.05300
C 	C 	0.69487 0.22648 0.09413 -0.00200
C 	C 	0.69006 0.26434 0.09788 -0.07300
C 	C 	0.69209 0.28621 0.05672 -0.02200
H 	H 	0.76541 0.14810 0.92533 0.03700
H 	H 	0.74253 0.17032 0.99943 0.04100
H 	H 	0.73622 0.24538 0.85198 0.02400
H 	H 	0.71124 0.29435 0.89640 0.03300
H 	H 	0.69405 0.32050 0.97263 0.03600
H 	H 	0.70502 0.18159 0.04793 0.03900
H 	H 	0.69144 0.20891 0.12480 0.03300
H 	H 	0.68722 0.31524 0.05889 0.04400
C 	C 	0.78630 0.21312 0.59724 -0.07300
C 	C 	0.78793 0.19267 0.55485 0.00000
C 	C 	0.77878 0.20795 0.51135 -0.05300
C 	C 	0.76861 0.24462 0.50914 0.00300
C 	C 	0.76618 0.26488 0.55217 0.00700
C 	C 	0.77594 0.24945 0.59551 -0.02300
C 	C 	0.75223 0.29946 0.55199 -0.04300
C 	C 	0.73898 0.31320 0.51036 -0.04100
C 	C 	0.74115 0.29367 0.46745 0.00700
C 	C 	0.75805 0.26060 0.46568 0.00500
C 	C 	0.76424 0.24479 0.42062 -0.05600
C 	C 	0.74947 0.25799 0.37972 0.00300
C 	C 	0.72944 0.28791 0.38284 -0.08000
C 	C 	0.72644 0.30672 0.42621 -0.01500
H 	H 	0.79533 0.16441 0.55569 0.03900
H 	H 	0.77784 0.19041 0.48036 0.03900
H 	H 	0.77416 0.26523 0.62820 0.03500
H 	H 	0.75050 0.31513 0.58474 0.03400
H 	H 	0.72699 0.33916 0.51150 0.03800
H 	H 	0.78119 0.22339 0.41669 0.03900
H 	H 	0.75314 0.24446 0.34577 0.01800
H 	H 	0.71218 0.33104 0.42803 0.04500
C 	C 	0.06938 0.11506 0.75877 -0.07500
C 	C 	0.05353 0.08229 0.76679 0.00600
C 	C 	0.02139 0.08156 0.76589 -0.05400
C 	C 	0.00465 0.11374 0.75584 0.00600
C 	C 	0.02063 0.14742 0.75328 0.00700
C 	C 	0.05295 0.14772 0.75308 -0.01600
C 	C 	0.00417 0.18039 0.75214 -0.04100
C 	C 	0.97207 0.18024 0.75394 -0.04100
C 	C 	0.95585 0.14710 0.75335 0.00700
C 	C 	0.97207 0.11356 0.75117 0.00600
C 	C 	0.95553 0.08114 0.74164 -0.05400
C 	C 	0.92339 0.08151 0.74114 0.00600
C 	C 	0.90733 0.11416 0.74898 -0.07500
C 	C 	0.92353 0.14706 0.75390 -0.01600
H 	H 	0.06614 0.05718 0.77289 0.02600
H 	H 	0.00975 0.05639 0.77496 0.04200
H 	H 	0.06529 0.17327 0.74854 0.03100
H 	H 	0.01628 0.20627 0.75102 0.03600
H 	H 	0.95977 0.20600 0.75470 0.03600
H 	H 	0.96733 0.05603 0.73276 0.04200
H 	H 	0.91094 0.05621 0.73558 0.02600
H 	H 	0.91102 0.17250 0.75826 0.03200
C 	C 	0.40227 0.36168 0.24750 -0.07400
C 	C 	0.41681 0.35477 0.29124 -0.00000
C 	C 	0.44884 0.35142 0.29356 -0.05300
C 	C 	0.46680 0.35383 0.25152 0.00400
C 	C 	0.45218 0.36351 0.20808 0.00800
C 	C 	0.42002 0.36633 0.20609 -0.01900
C 	C 	0.46989 0.37167 0.16757 -0.04100
C 	C 	0.50193 0.37122 0.16998 -0.04200
C 	C 	0.51685 0.36035 0.21203 0.00800
C 	C 	0.49935 0.34931 0.25223 0.00400
C 	C 	0.51464 0.33257 0.29095 -0.05300
C 	C 	0.54676 0.33215 0.29275 0.00100
C 	C 	0.56418 0.34726 0.25535 -0.07300
C 	C 	0.54914 0.35994 0.21417 -0.02200
H 	H 	0.40332 0.35227 0.32363 0.03200
H 	H 	0.45952 0.34890 0.32826 0.04100
H 	H 	0.40884 0.37306 0.17256 0.04600
H 	H 	0.45880 0.37939 0.13440 0.03900
H 	H 	0.51521 0.37891 0.13878 0.03800
H 	H 	0.50195 0.31850 0.31859 0.04100
H 	H 	0.55808 0.32010 0.32341 0.03900
H 	H 	0.56247 0.36977 0.18404 0.04100
C 	C 	0.28397 0.27021 0.41308 -0.07200
C 	C 	0.28088 0.23213 0.41715 -0.00200
C 	C 	0.27269 0.21632 0.46078 -0.05300
C 	C 	0.26603 0.23862 0.50064 0.00200
C 	C 	0.27285 0.27639 0.49803 0.00900
C 	C 	0.28108 0.29212 0.45408 -0.02300
C 	C 	0.27142 0.29803 0.53930 -0.04300
C 	C 	0.26218 0.28287 0.58270 -0.04100
C 	C 	0.25222 0.24644 0.58498 0.00400
C 	C 	0.25325 0.22413 0.54353 0.00600
C 	C 	0.23892 0.18945 0.54476 -0.05500
C 	C 	0.22535 0.17673 0.58680 0.00700
C 	C 	0.22500 0.19851 0.62794 -0.08100
C 	C 	0.23917 0.23288 0.62738 -0.01700
H 	H 	0.28502 0.21466 0.38660 0.03300
H 	H 	0.27294 0.18688 0.46381 0.03900
H 	H 	0.28462 0.32140 0.45163 0.04400
H 	H 	0.27757 0.32672 0.53781 0.03600
H 	H 	0.26152 0.29999 0.61428 0.03300
H 	H 	0.23632 0.17328 0.51274 0.04000
H 	H 	0.21404 0.15034 0.58687 0.03600
H 	H 	0.23838 0.24997 0.65904 0.02400
C 	C 	0.23829 0.29167 0.12998 -0.08100
C 	C 	0.22391 0.25745 0.13002 0.00400
C 	C 	0.21071 0.24361 0.08819 -0.05600
C 	C 	0.21070 0.26466 0.04573 0.00600
C 	C 	0.22495 0.29957 0.04621 0.00600
C 	C 	0.23775 0.31320 0.08864 -0.01400
C 	C 	0.22833 0.31934 0.00363 -0.04100
C 	C 	0.21979 0.30393 0.96013 -0.04200
C 	C 	0.20606 0.26931 0.95859 0.00800
C 	C 	0.19935 0.25050 0.00159 0.00100
C 	C 	0.18129 0.21841 0.99927 -0.05100
C 	C 	0.17460 0.20242 0.95510 0.00200
C 	C 	0.18433 0.21911 0.91253 -0.07300
C 	C 	0.19904 0.25321 0.91440 -0.02300
H 	H 	0.22466 0.24048 0.16171 0.01600
H 	H 	0.20266 0.21572 0.08840 0.03900
H 	H 	0.24891 0.33974 0.08878 0.04300
H 	H 	0.23890 0.34617 0.00400 0.03700
H 	H 	0.22396 0.31897 0.92740 0.03400
H 	H 	0.17113 0.20674 0.03100 0.03900
H 	H 	0.16151 0.17724 0.95404 0.03900
H 	H 	0.20566 0.26684 0.88156 0.03200
C 	C 	0.57215 0.61883 0.75445 -0.07500
C 	C 	0.55655 0.65188 0.74752 0.00500
C 	C 	0.52440 0.65300 0.74864 -0.05300
C 	C 	0.50732 0.62088 0.75785 0.00600
C 	C 	0.52319 0.58714 0.76165 0.00700
C 	C 	0.55548 0.58659 0.76195 -0.01400
C 	C 	0.50669 0.55422 0.76244 -0.04000
C 	C 	0.47471 0.55434 0.75874 -0.04000
C 	C 	0.45846 0.58743 0.75785 0.00700
C 	C 	0.47458 0.62108 0.76009 0.00600
C 	C 	0.45774 0.65362 0.76770 -0.05300
C 	C 	0.42558 0.65289 0.76859 0.00500
C 	C 	0.40973 0.61984 0.76306 -0.07500
C 	C 	0.42617 0.58722 0.75734 -0.01400
H 	H 	0.56932 0.67663 0.73986 0.02700
H 	H 	0.51305 0.67827 0.73923 0.04100
H 	H 	0.56761 0.56081 0.76554 0.03100
H 	H 	0.51875 0.52835 0.76455 0.03600
H 	H 	0.46245 0.52855 0.75787 0.03700
H 	H 	0.46927 0.67899 0.77601 0.04100
H 	H 	0.41298 0.67799 0.77488 0.02600
H 	H 	0.41383 0.56150 0.75483 0.03200
C 	C 	0.28743 0.44443 0.40264 -0.07200
C 	C 	0.28255 0.42530 0.44544 0.00100
C 	C 	0.28066 0.44401 0.48883 -0.05300
C 	C 	0.28544 0.48219 0.49047 0.00400
C 	C 	0.28734 0.50178 0.44694 0.00700
C 	C 	0.28887 0.48279 0.40340 -0.02000
C 	C 	0.28731 0.54009 0.44728 -0.04200
C 	C 	0.28607 0.55917 0.49034 -0.04200
C 	C 	0.28666 0.54036 0.53398 0.00800
C 	C 	0.28742 0.50162 0.53451 0.00400
C 	C 	0.29241 0.48348 0.57838 -0.05300
C 	C 	0.29377 0.50322 0.62099 0.00100
C 	C 	0.29163 0.54152 0.62072 -0.07200
C 	C 	0.28804 0.55998 0.57708 -0.02000
H 	H 	0.28008 0.39584 0.44517 0.03700
H 	H 	0.27410 0.42893 0.52041 0.03900
H 	H 	0.29114 0.49787 0.37023 0.04100
H 	H 	0.28798 0.55520 0.41399 0.03500
H 	H 	0.28559 0.58879 0.48977 0.03500
H 	H 	0.29709 0.45451 0.57959 0.03900
H 	H 	0.29738 0.48865 0.65419 0.03400
H 	H 	0.28734 0.58961 0.57646 0.04400
C 	C 	0.30125 0.43898 0.11149 -0.07200
C 	C 	0.30169 0.42317 0.06586 0.00400
C 	C 	0.30015 0.44507 0.02511 -0.05400
C 	C 	0.29688 0.48340 0.02931 0.00400
C 	C 	0.29689 0.49933 0.07550 0.00700
C 	C 	0.29808 0.47694 0.11618 -0.01900
C 	C 	0.29764 0.53748 0.08054 -0.04100
C 	C 	0.30036 0.55990 0.04049 -0.04200
C 	C 	0.30057 0.54471 0.99455 0.00800
C 	C 	0.29639 0.50660 0.98849 0.00600
C 	C 	0.29149 0.49286 0.94198 -0.05400
C 	C 	0.29634 0.51524 0.90233 0.00200
C 	C 	0.30450 0.55202 0.90838 -0.07400
C 	C 	0.30509 0.56715 0.95446 -0.01700
H 	H 	0.30470 0.39394 0.06182 0.04100
H 	H 	0.30356 0.43227 0.99076 0.04100
H 	H 	0.29765 0.48917 0.15148 0.03100
H 	H 	0.29738 0.54976 0.11577 0.03500
H 	H 	0.30235 0.58921 0.04525 0.03600
H 	H 	0.28270 0.46558 0.93633 0.03900
H 	H 	0.29363 0.50400 0.86677 0.02200
H 	H 	0.30986 0.59603 0.95920 0.04700
C 	C 	0.91041 0.85563 0.24745 -0.07400
C 	C 	0.92368 0.85278 0.29292 -0.00000
C 	C 	0.95566 0.85125 0.29804 -0.05300
C 	C 	0.97496 0.85446 0.25758 0.00400
C 	C 	0.96144 0.85382 0.21156 0.00800
C 	C 	0.92932 0.85516 0.20679 -0.02000
C 	C 	0.98010 0.85137 0.17082 -0.04200
C 	C 	0.01203 0.85004 0.17518 -0.04100
C 	C 	0.02599 0.85333 0.22012 0.00800
C 	C 	0.00757 0.85698 0.26171 0.00400
C 	C 	0.02202 0.86555 0.30549 -0.05300
C 	C 	0.05405 0.86665 0.30865 0.00200
C 	C 	0.07228 0.86093 0.26800 -0.07400
C 	C 	0.05823 0.85451 0.22375 -0.02100
H 	H 	0.90921 0.85106 0.32436 0.03200
H 	H 	0.96507 0.84574 0.33303 0.04100
H 	H 	0.91908 0.85627 0.17148 0.04700
H 	H 	0.96980 0.85006 0.13560 0.03900
H 	H 	0.02601 0.84748 0.14329 0.03700
H 	H 	0.00874 0.87347 0.33642 0.04100
H 	H 	0.06472 0.87323 0.34256 0.04000
H 	H 	0.07233 0.85082 0.19213 0.03800
C 	C 	0.18956 0.04167 0.90139 -0.07200
C 	C 	0.18737 0.06028 0.94505 -0.00000
C 	C 	0.18864 0.04117 0.98821 -0.05100
C 	C 	0.19323 0.00291 0.98850 0.00500
C 	C 	0.19406 0.98397 0.94434 0.00700
C 	C 	0.19330 0.00354 0.90121 -0.01900
C 	C 	0.19401 0.94563 0.94367 -0.04200
C 	C 	0.19187 0.92588 0.98614 -0.04100
C 	C 	0.19179 0.94402 0.03023 0.00700
C 	C 	0.19457 0.98258 0.03187 0.00400
C 	C 	0.19964 0.99960 0.07645 -0.05400
C 	C 	0.19712 0.97948 0.11866 0.00200
C 	C 	0.19092 0.94185 0.11713 -0.07300
C 	C 	0.18929 0.92398 0.07287 -0.02000
H 	H 	0.18340 0.08952 0.94558 0.03800
H 	H 	0.18408 0.05594 0.02085 0.03900
H 	H 	0.19479 0.98897 0.86755 0.04100
H 	H 	0.19455 0.93105 0.90998 0.03500
H 	H 	0.19058 0.89632 0.98474 0.03700
H 	H 	0.20693 0.02778 0.07863 0.04000
H 	H 	0.20039 0.99312 0.15262 0.03300
H 	H 	0.18558 0.89467 0.07159 0.04300
C 	C 	0.17257 0.04819 0.61218 -0.07300
C 	C 	0.17792 0.06507 0.56790 0.00300
C 	C 	0.18185 0.04398 0.52677 -0.05300
C 	C 	0.17877 0.00558 0.52894 0.00500
C 	C 	0.17727 0.98856 0.57430 0.00700
C 	C 	0.17382 0.00994 0.61557 -0.01900
C 	C 	0.17922 0.95044 0.57794 -0.04100
C 	C 	0.18124 0.92894 0.53697 -0.04200
C 	C 	0.17951 0.94500 0.49155 0.00800
C 	C 	0.17759 0.98356 0.48703 0.00400
C 	C 	0.17190 0.99880 0.44150 -0.05300
C 	C 	0.17004 0.97639 0.40128 0.00100
C 	C 	0.17226 0.93830 0.40571 -0.07200
C 	C 	0.17777 0.92276 0.45076 -0.01900
H 	H 	0.17902 0.09456 0.56520 0.04100
H 	H 	0.18858 0.05750 0.49409 0.04000
H 	H 	0.17176 0.99682 0.65018 0.03300
H 	H 	0.17914 0.93736 0.61268 0.03500
H 	H 	0.18293 0.89951 0.54056 0.03700
H 	H 	0.16703 0.02755 0.43724 0.04000
H 	H 	0.16584 0.98869 0.36669 0.02800
H 	H 	0.17939 0.89331 0.45444 0.04800
C 	C 	0.29361 0.71705 0.60498 -0.07200
C 	C 	0.29141 0.75522 0.60073 -0.00200
C 	C 	0.28357 0.77117 0.55705 -0.05300
C 	C 	0.27638 0.74897 0.51734 0.00200
C 	C 	0.28252 0.71104 0.52001 0.00900
C 	C 	0.29038 0.69515 0.56402 -0.02200
C 	C 	0.28070 0.68942 0.47878 -0.04300
C 	C 	0.27154 0.70475 0.43543 -0.04100
C 	C 	0.26203 0.74135 0.43322 0.00400
C 	C 	0.26361 0.76369 0.47460 0.00600
C 	C 	0.24969 0.79861 0.47357 -0.05500
C 	C 	0.23573 0.81138 0.43188 0.00700
C 	C 	0.23471 0.78950 0.39087 -0.08200
C 	C 	0.24872 0.75503 0.39111 -0.01600
H 	H 	0.29591 0.77263 0.63121 0.03300
H 	H 	0.28445 0.80058 0.55389 0.03900
H 	H 	0.29334 0.66578 0.56655 0.04500
H 	H 	0.28645 0.66062 0.48025 0.03600
H 	H 	0.27050 0.68762 0.40388 0.03300
H 	H 	0.24762 0.81489 0.50558 0.04000
H 	H 	0.22450 0.83783 0.43208 0.03600
H 	H 	0.24742 0.73789 0.35954 0.02200
C 	C 	0.25163 0.69839 0.89147 -0.08000
C 	C 	0.23474 0.73096 0.89160 0.00300
C 	C 	0.22088 0.74344 0.93362 -0.05500
C 	C 	0.22271 0.72255 0.97611 0.00500
C 	C 	0.23988 0.68955 0.97566 0.00800
C 	C 	0.25337 0.67722 0.93307 -0.01600
C 	C 	0.24515 0.67048 0.01833 -0.04200
C 	C 	0.23536 0.68486 0.06182 -0.04200
C 	C 	0.21852 0.71749 0.06324 0.00700
C 	C 	0.21015 0.73526 0.02018 0.00300
C 	C 	0.18919 0.76475 0.02233 -0.05500
C 	C 	0.18098 0.77983 0.06642 0.00300
C 	C 	0.19218 0.76463 0.10907 -0.07400
C 	C 	0.20998 0.73265 0.10737 -0.02200
H 	H 	0.23381 0.74776 0.85976 0.01800
H 	H 	0.21072 0.77036 0.93350 0.03900
H 	H 	0.26647 0.65196 0.93283 0.04500
H 	H 	0.25804 0.64510 0.01803 0.03700
H 	H 	0.24092 0.67054 0.09460 0.03400
H 	H 	0.17808 0.77498 0.99051 0.04000
H 	H 	0.16564 0.80315 0.06735 0.03800
H 	H 	0.21780 0.72006 0.14028 0.03100
