data_crystal

_cell_length_a 38.89214
_cell_length_b 39.55029
_cell_length_c 18.44318
_cell_angle_alpha 90.34390
_cell_angle_beta  90.34416
_cell_angle_gamma 120.00075

_symmetry_space_group_name_	'P 1'
_symmetry_space_group_name_H-M	'P 1'

loop_
_symmetry_equiv_pos_as_xyz
  x,y,z

loop_
_atom_site_label
_atom_site_type_symbol
_atom_site_fract_x
_atom_site_fract_y
_atom_site_fract_z
_atom_site_charge
H 	H 	0.99985 0.28303 0.63040 0.08800
H 	H 	0.99662 0.66409 0.89781 0.05700
C 	C 	0.01413 0.71094 0.47229 0.00300
C 	C 	0.01440 0.70896 0.01741 0.00300
H 	H 	0.02161 0.76018 0.96321 0.05900
N 	N 	0.02485 0.35312 0.32521 -0.20200
H 	H 	0.01272 0.74525 0.59579 0.08900
H 	H 	0.01176 0.27716 0.94575 0.05500
C 	C 	0.01771 0.29599 0.99274 -0.08800
C 	C 	0.02448 0.33669 0.39000 0.12800
C 	C 	0.02119 0.69635 0.40804 -0.09500
N 	N 	0.01281 0.65519 0.08202 -0.19100
C 	C 	0.02438 0.30811 0.52986 0.06000
C 	C 	0.03296 0.34474 0.11403 -0.02300
C 	C 	0.03457 0.74889 0.00149 -0.10100
H 	H 	0.03891 0.36350 0.16108 0.03600
N 	N 	0.02513 0.29563 0.59815 -0.19100
C 	C 	0.03144 0.69393 0.06652 0.05800
H 	H 	0.04085 0.67660 0.28696 0.08200
H 	H 	0.02542 0.64450 0.11905 0.08000
H 	H 	0.05140 0.37094 0.29838 0.08900
N 	N 	0.03864 0.76086 0.56593 -0.19200
C 	C 	0.04420 0.74675 0.50226 0.05900
C 	C 	0.05561 0.31457 0.02502 0.12300
C 	C 	0.05945 0.33908 0.41884 -0.10700
C 	C 	0.05737 0.71753 0.37161 0.12200
C 	C 	0.06268 0.33778 0.08813 -0.10700
C 	C 	0.05947 0.32625 0.48957 -0.02300
H 	H 	0.05153 0.29912 0.62030 0.08100
N 	N 	0.06297 0.70340 0.30799 -0.20300
H 	H 	0.07628 0.82410 0.98476 0.08500
H 	H 	0.06078 0.78765 0.58693 0.08200
C 	C 	0.07049 0.77461 0.03672 0.13000
C 	C 	0.06784 0.71954 0.10050 -0.02400
N 	N 	0.08858 0.81349 0.02259 -0.20700
C 	C 	0.08030 0.76793 0.46583 -0.02200
H 	H 	0.08896 0.71894 0.27829 0.08600
C 	C 	0.08701 0.75973 0.08723 -0.10900
H 	H 	0.08354 0.60411 0.32975 0.08100
O 	O 	0.08980 0.33031 0.31239 -0.38100
N 	N 	0.08519 0.31063 0.99447 -0.20200
H 	H 	0.07930 0.29212 0.94971 0.08400
C 	C 	0.08714 0.75369 0.40096 -0.10600
H 	H 	0.08091 0.70824 0.13853 0.03600
H 	H 	0.09242 0.51534 0.09565 0.08100
H 	H 	0.09007 0.56474 0.29828 0.08600
C 	C 	0.09448 0.35063 0.37313 0.29600
H 	H 	0.08654 0.32900 0.51234 0.04300
C 	C 	0.09968 0.35237 0.13029 0.29600
N 	N 	0.09966 0.59456 0.29917 -0.19300
H 	H 	0.10159 0.56204 0.12760 0.08500
H 	H 	0.11472 0.83358 0.04926 0.10000
N 	N 	0.10679 0.53868 0.13227 -0.19200
O 	O 	0.10810 0.32646 0.15903 -0.38700
H 	H 	0.10334 0.79546 0.48843 0.04500
H 	H 	0.98582 0.63531 0.05751 0.08400
O 	O 	0.11822 0.80148 0.19078 -0.38800
H 	H 	0.11899 0.48005 0.15612 0.03900
H 	H 	0.11455 0.32713 0.01267 0.09900
C 	C 	0.12263 0.78593 0.12990 0.29600
O 	O 	0.12700 0.38998 0.12548 -0.38900
C 	C 	0.12554 0.77671 0.36496 0.29500
H 	H 	0.12455 0.66956 0.28932 0.03800
C 	C 	0.13053 0.53775 0.18576 0.05800
O 	O 	0.13035 0.37435 0.40161 -0.37700
H 	H 	0.13429 0.38944 0.25458 0.15300
C 	C 	0.13131 0.62031 0.25964 0.05800
C 	C 	0.13451 0.50452 0.19340 -0.02600
O 	O 	0.13697 0.81336 0.34680 -0.38000
Ni	Ni	0.13564 0.33265 0.25657 1.12100
H 	H 	0.15322 0.29720 0.56418 0.08300
H 	H 	0.14528 0.28922 0.07474 0.09700
H 	H 	0.15202 0.25796 0.01301 0.08300
H 	H 	0.15355 0.32899 0.49519 0.10000
C 	C 	0.14145 0.65974 0.25786 -0.02700
O 	O 	0.15130 0.76395 0.36741 -0.37600
C 	C 	0.15416 0.60791 0.22005 0.00000
C 	C 	0.15107 0.56969 0.23429 0.00100
O 	O 	0.15540 0.44902 0.31458 -0.38200
O 	O 	0.15575 0.32625 0.35466 -0.38400
O 	O 	0.15869 0.38778 0.25734 -0.72000
N 	N 	0.16528 0.31242 0.51625 -0.20500
N 	N 	0.16439 0.28165 0.04918 -0.20600
C 	C 	0.15860 0.50278 0.24846 -0.10700
H 	H 	0.98909 0.65059 0.56308 0.05400
O 	O 	0.15816 0.79916 0.09999 -0.38900
H 	H 	0.16091 0.77991 0.24272 0.15000
C 	C 	0.16366 0.46829 0.25246 0.29800
Ni	Ni	0.16480 0.83918 0.25217 1.12000
H 	H 	0.18518 0.90501 0.95640 0.08500
C 	C 	0.17364 0.68668 0.21675 -0.10700
C 	C 	0.17333 0.56704 0.29163 -0.09800
C 	C 	0.17867 0.53464 0.29768 0.12900
Ni	Ni	0.18183 0.41209 0.16861 1.11900
O 	O 	0.18160 0.33053 0.21233 -0.39400
H 	H 	0.99812 0.66883 0.38549 0.05300
Ni	Ni	0.18031 0.41531 0.34411 1.11200
O 	O 	0.18473 0.46340 0.20070 -0.38300
O 	O 	0.18573 0.36901 0.11699 -0.39500
H 	H 	0.18626 0.87042 0.01719 0.09700
O 	O 	0.18036 0.74519 0.16407 -0.38600
C 	C 	0.19269 0.34832 0.37672 0.31700
C 	C 	0.19681 0.31218 0.48517 0.13000
H 	H 	0.19176 0.90670 0.61686 0.08100
C 	C 	0.18455 0.63428 0.17505 -0.09800
H 	H 	0.18875 0.59150 0.32898 0.05700
C 	C 	0.19686 0.34655 0.14978 0.31900
C 	C 	0.18576 0.72829 0.22183 0.29500
O 	O 	0.18692 0.87194 0.16264 -0.39300
O 	O 	0.18585 0.80511 0.24524 -0.71800
H 	H 	0.20307 0.27906 0.57159 0.05700
C 	C 	0.20422 0.30159 0.06243 0.13000
N 	N 	0.19747 0.89944 0.00217 -0.20700
H 	H 	0.19577 0.87774 0.50588 0.04500
C 	C 	0.19508 0.67378 0.17389 0.12900
H 	H 	0.21553 0.26492 0.99096 0.05900
H 	H 	0.20154 0.62447 0.14386 0.05700
N 	N 	0.20441 0.53512 0.34857 -0.20400
C 	C 	0.21514 0.29407 0.52101 -0.10000
O 	O 	0.21083 0.38630 0.36915 -0.38500
C 	C 	0.21223 0.33095 0.41827 -0.11600
C 	C 	0.22148 0.33400 0.11072 -0.11500
Ni	Ni	0.20655 0.80384 0.15294 1.11900
C 	C 	0.22860 0.28973 0.02796 -0.10200
Ni	Ni	0.20862 0.79678 0.32799 1.11200
O 	O 	0.21210 0.84063 0.39598 -0.37900
O 	O 	0.21258 0.88102 0.30754 -0.39000
O 	O 	0.20902 0.74919 0.27723 -0.37400
N 	N 	0.21586 0.93365 0.60246 -0.19200
H 	H 	0.22226 0.07217 0.53720 0.08400
H 	H 	0.21347 0.51439 0.34850 0.09900
C 	C 	0.22897 0.92914 0.03765 0.13100
H 	H 	0.23532 0.97229 0.95970 0.05900
C 	C 	0.22121 0.90547 0.49119 -0.02100
H 	H 	0.22579 0.95671 0.63968 0.08600
H 	H 	0.21745 0.55785 0.38672 0.08400
C 	C 	0.22323 0.88457 0.13933 0.31900
C 	C 	0.22231 0.87578 0.37317 0.31600
H 	H 	0.23212 0.01870 0.50906 0.05700
N 	N 	0.22644 0.69923 0.13329 -0.20500
O 	O 	0.23783 0.43130 0.20544 -0.39500
O 	O 	0.23348 0.46192 0.30734 -0.38300
C 	C 	0.23419 0.93785 0.53780 0.05600
N 	N 	0.24544 0.08310 0.57530 -0.20500
C 	C 	0.24747 0.96677 0.00833 -0.10300
C 	C 	0.24002 0.90888 0.42478 -0.11600
H 	H 	0.23616 0.72905 0.13318 0.10100
H 	H 	0.24189 0.68929 0.10168 0.08400
O 	O 	0.23899 0.86193 0.14020 -0.40000
H 	H 	0.23694 0.22396 0.47033 0.05700
C 	C 	0.24426 0.92239 0.10241 -0.11800
H 	H 	0.25046 0.10725 0.60662 0.09900
C 	C 	0.25460 0.45867 0.25532 0.32000
C 	C 	0.24961 0.29616 0.49326 0.00100
C 	C 	0.24669 0.33302 0.39051 -0.02000
C 	C 	0.26256 0.35390 0.12359 -0.02100
C 	C 	0.25661 0.03032 0.54769 -0.09900
H 	H 	0.25690 0.49530 0.14000 0.08500
H 	H 	0.24753 0.16990 0.48372 0.08400
C 	C 	0.26966 0.30944 0.04120 0.00200
C 	C 	0.25819 0.23888 0.51392 -0.10000
C 	C 	0.26615 0.97444 0.51673 -0.00000
C 	C 	0.26708 0.06507 0.58553 0.13000
O 	O 	0.25745 0.80498 0.18489 -0.38700
H 	H 	0.25861 0.34777 0.33963 0.04400
O 	O 	0.26592 0.83507 0.29448 -0.38800
C 	C 	0.26576 0.31602 0.42758 0.05700
C 	C 	0.26828 0.27710 0.53320 0.00200
N 	N 	0.26894 0.18472 0.52417 -0.20600
H 	H 	0.27560 0.37862 0.16084 0.04400
H 	H 	0.27506 0.26517 0.13524 0.08700
C 	C 	0.27390 0.94474 0.40640 0.13100
C 	C 	0.27645 0.22036 0.54846 0.13000
C 	C 	0.28694 0.34200 0.08918 0.05600
H 	H 	0.30477 0.33333 0.91232 0.05600
C 	C 	0.28229 0.99703 0.03982 0.00200
H 	H 	0.27502 0.05806 0.08238 0.05700
C 	C 	0.27732 0.01027 0.55961 0.00400
H 	H 	0.28554 0.17227 0.54235 0.10000
C 	C 	0.29420 0.29584 0.00375 -0.00100
C 	C 	0.27927 0.95251 0.13358 -0.01800
C 	C 	0.28600 0.97747 0.45177 -0.10200
N 	N 	0.28678 0.51675 0.14308 -0.20300
C 	C 	0.30895 0.31034 0.93479 -0.09800
C 	C 	0.28099 0.82773 0.23720 0.31600
O 	O 	0.29879 0.18813 0.68191 -0.39300
N 	N 	0.28844 0.25347 0.10255 -0.19100
C 	C 	0.29327 0.06450 0.03456 -0.09800
H 	H 	0.28647 0.12325 0.08045 0.08300
H 	H 	0.29024 0.92298 0.31673 0.10100
O 	O 	0.30050 0.12221 0.73079 -0.38800
N 	N 	0.29953 0.31895 0.40000 -0.19200
C 	C 	0.30073 0.26672 0.03431 0.05300
C 	C 	0.30123 0.03614 0.00636 -0.00100
N 	N 	0.29548 0.94765 0.34657 -0.20500
C 	C 	0.29975 0.08062 0.63438 -0.10900
C 	C 	0.29706 0.48770 0.25026 -0.11600
H 	H 	0.29764 0.53854 0.10381 0.08300
C 	C 	0.30355 0.23972 0.60633 -0.11700
C 	C 	0.29627 0.29691 0.58964 0.05600
H 	H 	0.29280 0.23151 0.12415 0.08000
C 	C 	0.29871 0.98980 0.10260 0.05300
H 	H 	0.29131 0.94702 0.18239 0.04100
H 	H 	0.31097 0.33336 0.35112 0.08200
C 	C 	0.30943 0.10139 0.00250 0.12600
N 	N 	0.30452 0.12966 0.03496 -0.20400
H 	H 	0.29496 0.34937 0.58275 0.08600
C 	C 	0.31500 0.11945 0.66734 0.29800
Ni	Ni	0.31495 0.17409 0.77620 1.12000
O 	O 	0.31920 0.15602 0.87812 -0.38100
H 	H 	0.31495 0.30736 0.42685 0.08700
C 	C 	0.32882 0.29526 0.89440 0.13100
H 	H 	0.34046 0.33321 0.80749 0.08100
C 	C 	0.32575 0.04469 0.94484 0.06100
H 	H 	0.32663 0.99191 0.94423 0.08500
H 	H 	0.31104 0.00537 0.43664 0.05900
C 	C 	0.30880 0.02484 0.61110 0.05800
C 	C 	0.31135 0.51665 0.19586 0.12900
H 	H 	0.31250 0.46521 0.34344 0.04100
C 	C 	0.32166 0.22058 0.64673 0.31900
O 	O 	0.32641 0.22685 0.81470 -0.39200
C 	C 	0.31353 0.27788 0.62582 -0.01800
N 	N 	0.30679 0.33413 0.60911 -0.19100
N 	N 	0.32672 0.36171 0.10286 -0.19200
C 	C 	0.31992 0.25110 0.99328 -0.01500
N 	N 	0.34480 0.31130 0.82940 -0.20500
N 	N 	0.33549 0.01839 0.91842 -0.19100
H 	H 	0.32015 0.15861 0.01797 0.09900
C 	C 	0.31983 0.06010 0.64775 -0.02300
H 	H 	0.31921 0.97467 0.33137 0.08200
C 	C 	0.33263 0.26406 0.92262 -0.11800
C 	C 	0.33180 0.10899 0.93824 -0.10600
C 	C 	0.34036 0.08091 0.91084 -0.02500
H 	H 	0.32030 0.97840 0.60081 0.08500
H 	H 	0.31251 0.86225 0.11360 0.09500
C 	C 	0.32334 0.48790 0.30286 -0.02000
H 	H 	0.32363 0.22777 0.01544 0.03900
H 	H 	0.35295 0.02468 0.87212 0.08000
N 	N 	0.32838 0.00516 0.62571 -0.19100
C 	C 	0.34547 0.14549 0.89799 0.29500
C 	C 	0.34530 0.24187 0.87615 0.31600
O 	O 	0.33592 0.15067 0.62633 -0.38900
H 	H 	0.33481 0.29283 0.66934 0.03900
H 	H 	0.32731 0.34837 0.65114 0.07900
H 	H 	0.33916 0.38564 0.13850 0.08100
H 	H 	0.34569 0.35356 0.07851 0.08600
H 	H 	0.35818 0.08714 0.86243 0.03700
C 	C 	0.32274 0.83668 0.24009 -0.11600
H 	H 	0.32279 0.83038 0.35634 0.03900
H 	H 	0.36301 0.30337 0.80154 0.09700
N 	N 	0.33308 0.01834 0.13311 -0.19000
N 	N 	0.33438 0.85429 0.11380 -0.20500
H 	H 	0.34451 0.07188 0.68602 0.03800
C 	C 	0.33881 0.83367 0.30654 -0.02100
C 	C 	0.35131 0.54625 0.19748 -0.09800
H 	H 	0.34895 0.04601 0.11026 0.08600
C 	C 	0.34507 0.84352 0.17603 0.12900
O 	O 	0.35995 0.23388 0.64079 -0.39700
H 	H 	0.34462 0.01285 0.18003 0.08100
H 	H 	0.35182 0.01637 0.66331 0.08100
H 	H 	0.35362 0.75926 0.23836 0.09000
H 	H 	0.34977 0.85729 0.06580 0.08200
O 	O 	0.37263 0.23422 0.89986 -0.37800
O 	O 	0.36934 0.19122 0.75975 -0.71800
H 	H 	0.36864 0.16616 0.76548 0.15100
C 	C 	0.36343 0.51736 0.30388 0.05600
H 	H 	0.36209 0.56920 0.15740 0.05700
O 	O 	0.38425 0.16964 0.89149 -0.37600
H 	H 	0.37060 0.72518 0.25154 0.08300
C 	C 	0.37705 0.54764 0.25239 0.00200
Ni	Ni	0.38460 0.20084 0.66109 1.12000
N 	N 	0.37721 0.75410 0.24600 -0.19200
H 	H 	0.37817 0.49447 0.39313 0.08100
C 	C 	0.37444 0.83286 0.30878 0.05700
C 	C 	0.37955 0.84052 0.17769 -0.10000
H 	H 	0.37492 0.82871 0.42188 0.08100
N 	N 	0.38868 0.51630 0.35397 -0.19200
Ni	Ni	0.40685 0.22064 0.83181 1.11200
H 	H 	0.39708 0.60500 0.35004 0.05700
N 	N 	0.38989 0.83068 0.37381 -0.19200
C 	C 	0.39344 0.83365 0.24315 0.00200
H 	H 	0.39532 0.84307 0.12789 0.05600
O 	O 	0.41604 0.17344 0.67900 -0.38500
H 	H 	0.41803 0.32960 0.71918 0.09400
C 	C 	0.41631 0.58336 0.26083 0.00100
H 	H 	0.41910 0.53633 0.35315 0.08600
O 	O 	0.42630 0.27314 0.77870 -0.38500
H 	H 	0.44138 0.12680 0.81319 0.03700
C 	C 	0.41561 0.78372 0.24644 0.06000
C 	C 	0.42071 0.61166 0.31189 -0.09800
H 	H 	0.42213 0.53458 0.16922 0.08500
H 	H 	0.41742 0.83219 0.37752 0.08700
O 	O 	0.43779 0.25107 0.67230 -0.38800
C 	C 	0.42500 0.82315 0.24148 -0.00100
C 	C 	0.44442 0.28013 0.71617 0.31600
C 	C 	0.44255 0.18335 0.73257 0.29600
H 	H 	0.46619 0.08715 0.86168 0.08100
N 	N 	0.44527 0.35362 0.73433 -0.20400
H 	H 	0.44559 0.37879 0.75297 0.08300
H 	H 	0.43486 0.66936 0.39851 0.08300
O 	O 	0.44988 0.21203 0.77949 -0.37300
H 	H 	0.43928 0.74486 0.25433 0.04800
N 	N 	0.44543 0.56339 0.16662 -0.19200
C 	C 	0.44747 0.59149 0.21227 0.05700
C 	C 	0.44638 0.77505 0.25081 -0.02400
C 	C 	0.46681 0.14016 0.77764 -0.02600
C 	C 	0.45447 0.64902 0.31203 0.12800
N 	N 	0.45766 0.67609 0.36162 -0.20200
C 	C 	0.47088 0.16908 0.72923 -0.10700
N 	N 	0.49073 0.10002 0.82749 -0.19200
C 	C 	0.47983 0.35360 0.72388 0.12900
C 	C 	0.47964 0.31890 0.70405 -0.11600
H 	H 	0.46803 0.56992 0.12939 0.08100
C 	C 	0.46482 0.85295 0.23865 -0.09700
C 	C 	0.49569 0.12878 0.78134 0.05800
H 	H 	0.51046 0.08936 0.82836 0.08600
H 	H 	0.47187 0.88312 0.23516 0.05400
C 	C 	0.48427 0.65814 0.25956 -0.11400
C 	C 	0.48099 0.62908 0.21144 -0.02000
H 	H 	0.48295 0.70364 0.36537 0.08300
C 	C 	0.48618 0.80479 0.24763 -0.10500
C 	C 	0.51717 0.79392 0.24329 0.29800
C 	C 	0.62884 0.74858 0.12890 0.31600
C 	C 	0.51672 0.69847 0.24997 0.31700
C 	C 	0.63395 0.84997 0.12377 0.29400
C 	C 	0.63283 0.75280 0.35874 0.32000
C 	C 	0.63343 0.85086 0.36268 0.29600
Ni	Ni	0.56502 0.76821 0.15516 1.11200
Ni	Ni	0.64934 0.80891 0.24269 1.12000
Ni	Ni	0.56857 0.77085 0.33121 1.11900
O 	O 	0.53402 0.79690 0.17940 -0.37800
O 	O 	0.51882 0.77161 0.29558 -0.38400
O 	O 	0.64624 0.76258 0.29255 -0.39800
O 	O 	0.59036 0.73384 0.13401 -0.38300
O 	O 	0.65335 0.78511 0.14735 -0.38700
O 	O 	0.59468 0.82612 0.36915 -0.38800
O 	O 	0.51529 0.71885 0.19519 -0.37600
O 	O 	0.54524 0.71449 0.29879 -0.39200
O 	O 	0.65787 0.83925 0.33709 -0.38900
O 	O 	0.60896 0.81488 0.09581 -0.37700
O 	O 	0.65623 0.85427 0.18190 -0.38400
O 	O 	0.60974 0.76467 0.38761 -0.39200
O 	O 	0.59389 0.79017 0.24120 -0.71700
H 	H 	0.59436 0.81528 0.24118 0.14800
C 	C 	0.86787 0.63809 0.62969 0.29600
C 	C 	0.71174 0.51681 0.74033 0.31600
C 	C 	0.76376 0.62978 0.63536 0.31600
C 	C 	0.81096 0.51900 0.73874 0.29400
C 	C 	0.76267 0.62594 0.86344 0.31900
C 	C 	0.86333 0.62812 0.87118 0.29900
Ni	Ni	0.78512 0.56753 0.65452 1.11200
Ni	Ni	0.78314 0.56477 0.83039 1.11900
Ni	Ni	0.82318 0.64718 0.75149 1.12000
O 	O 	0.83277 0.61329 0.59996 -0.37300
O 	O 	0.87083 0.65614 0.69254 -0.38100
O 	O 	0.77480 0.60290 0.89039 -0.39200
O 	O 	0.73483 0.51694 0.68855 -0.37700
O 	O 	0.72632 0.54199 0.79440 -0.39300
O 	O 	0.85189 0.65275 0.84734 -0.38900
O 	O 	0.74955 0.59192 0.63476 -0.38400
O 	O 	0.80053 0.65361 0.65640 -0.38500
O 	O 	0.83822 0.58983 0.87352 -0.39400
O 	O 	0.81516 0.53765 0.67677 -0.38200
O 	O 	0.78613 0.51782 0.78969 -0.38000
O 	O 	0.77485 0.64232 0.79991 -0.39900
O 	O 	0.80479 0.59299 0.74397 -0.71900
H 	H 	0.83059 0.59398 0.74494 0.14800
C 	C 	0.77514 0.25555 0.75109 0.29800
C 	C 	0.74489 0.10293 0.64453 0.31400
C 	C 	0.68131 0.15815 0.75081 0.31600
C 	C 	0.84309 0.20348 0.64819 0.29500
C 	C 	0.73754 0.10463 0.87317 0.31800
C 	C 	0.83397 0.20688 0.88615 0.29800
Ni	Ni	0.75656 0.18311 0.66603 1.11300
Ni	Ni	0.79972 0.14734 0.76593 1.12000
Ni	Ni	0.75226 0.18394 0.84221 1.11900
O 	O 	0.78051 0.24223 0.68836 -0.37800
O 	O 	0.75103 0.23143 0.80140 -0.38600
O 	O 	0.75256 0.10181 0.81128 -0.39600
O 	O 	0.72695 0.12360 0.64327 -0.38300
O 	O 	0.78150 0.11848 0.66936 -0.38800
O 	O 	0.80626 0.21717 0.88750 -0.38800
O 	O 	0.70264 0.17856 0.69552 -0.37800
O 	O 	0.69710 0.14749 0.80243 -0.40000
O 	O 	0.82582 0.17160 0.86315 -0.38600
O 	O 	0.80802 0.19027 0.61542 -0.37200
O 	O 	0.84674 0.18828 0.70999 -0.38100
O 	O 	0.74737 0.13898 0.90129 -0.39400
O 	O 	0.77656 0.17945 0.75676 -0.71800
H 	H 	0.80091 0.20518 0.75863 0.15000
C 	C 	0.63996 0.14940 0.75699 -0.11700
C 	C 	0.62906 0.16870 0.80929 0.12600
C 	C 	0.59133 0.16504 0.80509 -0.09800
C 	C 	0.56452 0.14277 0.74980 0.00100
C 	C 	0.57412 0.12091 0.70142 0.05600
C 	C 	0.61200 0.12475 0.70506 -0.02000
N 	N 	0.65485 0.19145 0.86246 -0.20200
H 	H 	0.58342 0.18099 0.84316 0.05700
C 	C 	0.52950 0.14733 0.73664 0.00100
N 	N 	0.54719 0.09630 0.65152 -0.19200
H 	H 	0.62002 0.10916 0.66636 0.03900
C 	C 	0.53231 0.17453 0.68525 -0.09800
C 	C 	0.50342 0.18579 0.68118 0.12900
H 	H 	0.55795 0.18816 0.65023 0.05700
N 	N 	0.50753 0.21312 0.63214 -0.20500
H 	H 	0.53212 0.22583 0.59806 0.08200
H 	H 	0.48635 0.22177 0.62666 0.09900
H 	H 	0.55487 0.08110 0.61455 0.08100
H 	H 	0.51808 0.09107 0.65041 0.08600
H 	H 	0.68246 0.19356 0.86955 0.07700
H 	H 	0.64694 0.20670 0.89888 0.08300
C 	C 	0.66919 0.48739 0.73844 -0.11400
C 	C 	0.65206 0.45815 0.79207 0.12800
C 	C 	0.61216 0.42874 0.78477 -0.09800
C 	C 	0.58993 0.42665 0.72307 0.00100
C 	C 	0.60646 0.45676 0.67115 0.05700
C 	C 	0.64595 0.48700 0.67966 -0.02200
N 	N 	0.67402 0.45722 0.84900 -0.20300
H 	H 	0.59910 0.40596 0.82505 0.05700
C 	C 	0.55165 0.39043 0.70908 0.00100
N 	N 	0.58486 0.45652 0.61264 -0.19200
H 	H 	0.65891 0.50985 0.63950 0.04200
C 	C 	0.51617 0.38879 0.72955 -0.10100
C 	C 	0.51481 0.32100 0.67985 -0.02100
C 	C 	0.55071 0.35662 0.68077 0.05800
H 	H 	0.51677 0.41503 0.74887 0.05500
H 	H 	0.51455 0.29465 0.66241 0.04600
N 	N 	0.58415 0.35811 0.65502 -0.19200
H 	H 	0.58340 0.33274 0.63630 0.08200
H 	H 	0.61086 0.38446 0.65128 0.08900
H 	H 	0.59756 0.47852 0.57393 0.08100
H 	H 	0.55519 0.43493 0.60542 0.08600
H 	H 	0.70448 0.47663 0.85330 0.08600
H 	H 	0.66078 0.43600 0.88896 0.08300
C 	C 	0.78726 0.29712 0.75650 -0.11000
C 	C 	0.75879 0.30952 0.75587 0.13100
C 	C 	0.77165 0.34951 0.75999 -0.09900
C 	C 	0.81222 0.37730 0.75974 0.00300
C 	C 	0.84070 0.36499 0.76123 0.05600
C 	C 	0.82785 0.32489 0.75983 -0.02300
N 	N 	0.71928 0.28340 0.74860 -0.20500
H 	H 	0.74998 0.35914 0.75945 0.05800
C 	C 	0.82414 0.41889 0.75116 -0.00100
N 	N 	0.88026 0.39139 0.76321 -0.19200
H 	H 	0.84954 0.31527 0.76054 0.03500
C 	C 	0.83132 0.44221 0.81322 -0.09700
C 	C 	0.83301 0.47843 0.80832 0.12500
C 	C 	0.82403 0.48972 0.74141 -0.10700
C 	C 	0.82148 0.46857 0.67819 -0.02400
C 	C 	0.82210 0.43348 0.68241 0.05900
H 	H 	0.83495 0.43190 0.86547 0.05500
N 	N 	0.84450 0.50271 0.86700 -0.20500
H 	H 	0.81701 0.47834 0.62600 0.04600
N 	N 	0.82000 0.41359 0.62056 -0.19200
H 	H 	0.84905 0.49343 0.91726 0.08400
H 	H 	0.85172 0.53178 0.86197 0.09400
H 	H 	0.81706 0.42383 0.57011 0.08100
H 	H 	0.82261 0.38858 0.62173 0.08800
H 	H 	0.90106 0.38200 0.76323 0.07800
H 	H 	0.89079 0.42138 0.76547 0.08400
H 	H 	0.70883 0.25402 0.73657 0.10700
H 	H 	0.69850 0.29276 0.75158 0.08600
C 	C 	0.87193 0.23197 0.92372 -0.11200
C 	C 	0.88174 0.22035 0.98951 0.13700
C 	C 	0.91959 0.24367 0.02043 -0.10800
C 	C 	0.94705 0.27901 0.98853 0.01000
C 	C 	0.93648 0.29159 0.92475 0.05400
C 	C 	0.89904 0.26771 0.89266 -0.02000
N 	N 	0.85478 0.18740 0.02398 -0.20700
H 	H 	0.92765 0.23441 0.06981 0.05900
C 	C 	0.98742 0.30157 0.02050 -0.00900
N 	N 	0.96198 0.32652 0.89436 -0.19100
H 	H 	0.89110 0.27683 0.84296 0.03600
C 	C 	0.99532 0.32696 0.08062 0.05800
N 	N 	0.96702 0.33438 0.10641 -0.19200
H 	H 	0.97286 0.35247 0.15181 0.07900
H 	H 	0.93930 0.32295 0.08103 0.08600
H 	H 	0.95415 0.33523 0.84659 0.07900
H 	H 	0.98941 0.34566 0.91834 0.08600
H 	H 	0.82534 0.17125 0.00605 0.10100
H 	H 	0.86277 0.17841 0.07120 0.08300
C 	C 	0.87918 0.22870 0.60729 -0.10800
C 	C 	0.89402 0.21286 0.55529 0.13000
C 	C 	0.92928 0.23777 0.51896 -0.09900
C 	C 	0.95000 0.27797 0.53394 0.00200
C 	C 	0.93464 0.29395 0.58462 0.05700
C 	C 	0.89941 0.26900 0.62118 -0.02400
N 	N 	0.87483 0.17384 0.54049 -0.20500
H 	H 	0.94103 0.22574 0.47972 0.05700
C 	C 	0.98862 0.30264 0.49843 -0.00200
N 	N 	0.95366 0.33300 0.59881 -0.19200
H 	H 	0.88779 0.28100 0.66078 0.03600
C 	C 	0.98914 0.31773 0.42958 -0.09900
H 	H 	0.96190 0.31440 0.40648 0.05600
H 	H 	0.99855 0.34965 0.30262 0.08100
H 	H 	0.94236 0.34442 0.63705 0.07900
H 	H 	0.97954 0.35243 0.57176 0.08500
H 	H 	0.84878 0.15437 0.56700 0.10200
H 	H 	0.88603 0.16251 0.50190 0.08300
C 	C 	0.90324 0.65327 0.58404 -0.10600
C 	C 	0.93122 0.64068 0.59310 0.12200
C 	C 	0.96696 0.65926 0.55464 -0.09600
C 	C 	0.97456 0.68930 0.50607 -0.00200
C 	C 	0.94532 0.69998 0.49333 0.05900
C 	C 	0.91006 0.68208 0.53315 -0.02200
N 	N 	0.92378 0.61056 0.63773 -0.20400
N 	N 	0.95101 0.72747 0.44344 -0.19200
H 	H 	0.88809 0.69100 0.52522 0.04400
H 	H 	0.92962 0.73577 0.43561 0.08100
H 	H 	0.97620 0.74029 0.41095 0.08700
H 	H 	0.89635 0.59430 0.66283 0.08800
H 	H 	0.94516 0.60229 0.64596 0.08200
C 	C 	0.97440 0.68375 0.98557 0.00400
C 	C 	0.97071 0.66356 0.92058 -0.09900
C 	C 	0.93396 0.64320 0.88422 0.12500
C 	C 	0.90074 0.64422 0.91251 -0.11100
C 	C 	0.90408 0.66310 0.97890 -0.01400
C 	C 	0.94051 0.68244 0.01636 0.05100
N 	N 	0.93087 0.62307 0.82215 -0.20400
H 	H 	0.87831 0.66305 0.00118 0.03800
N 	N 	0.94275 0.69968 0.08165 -0.19100
H 	H 	0.95583 0.62339 0.80058 0.08300
H 	H 	0.90363 0.60616 0.79570 0.08500
H 	H 	0.91779 0.69941 0.10306 0.08000
H 	H 	0.96887 0.71263 0.11262 0.08700
C 	C 	0.72795 0.06621 0.60199 -0.11200
C 	C 	0.68798 0.03611 0.61055 0.12700
C 	C 	0.67301 0.00210 0.56770 -0.09200
C 	C 	0.69758 0.99683 0.51921 -0.00500
C 	C 	0.73750 0.02675 0.51080 0.06100
C 	C 	0.75217 0.06126 0.55191 -0.02200
N 	N 	0.66423 0.03910 0.66101 -0.20400
H 	H 	0.64243 0.97907 0.57382 0.05300
C 	C 	0.68148 0.95928 0.47934 0.00200
N 	N 	0.76193 0.02248 0.46372 -0.19100
H 	H 	0.78261 0.08443 0.54479 0.04400
C 	C 	0.66543 0.95595 0.40963 -0.09800
C 	C 	0.65081 0.92112 0.36944 0.12300
C 	C 	0.65074 0.88858 0.40108 -0.10700
C 	C 	0.66669 0.89185 0.47079 -0.02100
C 	C 	0.68237 0.92701 0.51021 0.05700
H 	H 	0.66508 0.98083 0.38602 0.05500
N 	N 	0.63774 0.91940 0.30018 -0.20400
H 	H 	0.66683 0.86690 0.49457 0.04100
N 	N 	0.69832 0.92963 0.57733 -0.19200
H 	H 	0.63713 0.94330 0.27773 0.08200
H 	H 	0.62904 0.89480 0.26739 0.08600
H 	H 	0.69867 0.90558 0.59968 0.08100
H 	H 	0.71073 0.95546 0.60780 0.08700
H 	H 	0.79138 0.04474 0.45804 0.08100
H 	H 	0.75209 0.99717 0.43241 0.08600
H 	H 	0.67515 0.06233 0.69784 0.10200
H 	H 	0.63454 0.01717 0.66547 0.08300
C 	C 	0.71619 0.06963 0.91800 -0.11700
C 	C 	0.67865 0.03851 0.89612 0.13000
C 	C 	0.66310 0.00235 0.93064 -0.09500
C 	C 	0.68308 0.99769 0.98980 0.00200
C 	C 	0.71873 0.03001 0.01626 0.05400
C 	C 	0.73526 0.06559 0.97930 -0.01600
N 	N 	0.65690 0.04356 0.84382 -0.20600
H 	H 	0.63522 0.97785 0.91183 0.05400
C 	C 	0.66789 0.95831 0.02038 -0.00500
N 	N 	0.73715 0.02705 0.07685 -0.19100
H 	H 	0.76352 0.08989 0.99724 0.04100
C 	C 	0.68498 0.93606 0.99832 -0.09200
C 	C 	0.67295 0.89947 0.02897 0.12600
C 	C 	0.64284 0.88478 0.08192 -0.10900
C 	C 	0.62421 0.90602 0.10091 -0.02700
C 	C 	0.63688 0.94304 0.07165 0.05900
H 	H 	0.70824 0.94759 0.95808 0.05500
N 	N 	0.69052 0.87875 0.00761 -0.20600
H 	H 	0.60064 0.89428 0.14046 0.03500
N 	N 	0.61975 0.96400 0.09404 -0.19300
H 	H 	0.71304 0.89007 0.96905 0.08500
H 	H 	0.68179 0.85114 0.02829 0.10000
H 	H 	0.59694 0.95244 0.13202 0.07800
H 	H 	0.62905 0.99198 0.07470 0.08500
H 	H 	0.76398 0.05077 0.09489 0.08100
H 	H 	0.72458 0.00167 0.10772 0.08800
H 	H 	0.66540 0.07120 0.82363 0.10000
H 	H 	0.63001 0.02001 0.82558 0.08400
C 	C 	0.64415 0.72622 0.09069 -0.11300
C 	C 	0.65843 0.73552 0.01894 0.12300
C 	C 	0.67534 0.71525 0.98612 -0.09100
C 	C 	0.67696 0.68509 0.02263 -0.00700
C 	C 	0.66114 0.67467 0.09322 0.05900
C 	C 	0.64514 0.69564 0.12678 -0.02200
N 	N 	0.65545 0.76337 0.98098 -0.20300
H 	H 	0.68716 0.72287 0.93180 0.05500
C 	C 	0.69722 0.66611 0.98772 0.01000
N 	N 	0.66101 0.64456 0.12877 -0.19200
H 	H 	0.63364 0.68825 0.18136 0.04300
C 	C 	0.73724 0.67973 0.00464 -0.10700
C 	C 	0.75902 0.66617 0.96604 0.13500
C 	C 	0.74014 0.63829 0.90952 -0.11800
C 	C 	0.69976 0.62363 0.89437 -0.01700
C 	C 	0.67793 0.63702 0.93340 0.05400
H 	H 	0.75176 0.70172 0.04685 0.05800
N 	N 	0.79807 0.68052 0.98268 -0.20600
H 	H 	0.68527 0.60183 0.85186 0.04000
N 	N 	0.63855 0.62174 0.91874 -0.19100
H 	H 	0.81165 0.70113 0.02442 0.08200
H 	H 	0.81536 0.67153 0.95467 0.10300
H 	H 	0.62480 0.60102 0.87725 0.08100
H 	H 	0.62102 0.62951 0.94932 0.08700
H 	H 	0.65000 0.63762 0.18144 0.08100
H 	H 	0.67108 0.62731 0.10422 0.08600
H 	H 	0.64030 0.77685 0.00149 0.09600
H 	H 	0.66727 0.77091 0.92895 0.08300
C 	C 	0.64762 0.73216 0.40389 -0.11600
C 	C 	0.67145 0.75004 0.46644 0.13000
C 	C 	0.68584 0.72966 0.50671 -0.10000
C 	C 	0.67888 0.69296 0.48344 0.00200
C 	C 	0.65453 0.67480 0.42174 0.05600
C 	C 	0.63918 0.69468 0.38250 -0.01900
N 	N 	0.68187 0.78716 0.48650 -0.20600
H 	H 	0.70428 0.74329 0.55434 0.05700
C 	C 	0.70017 0.67557 0.52025 0.00100
N 	N 	0.64612 0.63854 0.39960 -0.19200
H 	H 	0.62085 0.68105 0.33474 0.04300
C 	C 	0.68304 0.65214 0.58108 -0.10000
C 	C 	0.70355 0.63729 0.62035 0.13000
C 	C 	0.74169 0.64569 0.59730 -0.11500
C 	C 	0.75871 0.66901 0.53631 -0.02000
C 	C 	0.73833 0.68403 0.49737 0.05700
H 	H 	0.65391 0.64596 0.59860 0.05600
N 	N 	0.68690 0.61589 0.68087 -0.20500
H 	H 	0.78784 0.67522 0.51866 0.04500
N 	N 	0.75550 0.70642 0.43812 -0.19200
H 	H 	0.65856 0.60954 0.69689 0.08400
H 	H 	0.70207 0.60605 0.71344 0.10300
H 	H 	0.78378 0.71266 0.42200 0.08100
H 	H 	0.74102 0.71767 0.40722 0.08800
H 	H 	0.62890 0.62577 0.35297 0.08000
H 	H 	0.65602 0.62246 0.42881 0.08600
H 	H 	0.67546 0.80478 0.45385 0.10300
H 	H 	0.69820 0.79945 0.53419 0.08300
C 	C 	0.49561 0.84420 0.24250 0.12300
N 	N 	0.53402 0.87372 0.24318 -0.20300
H 	H 	0.54078 0.90267 0.23731 0.08000
H 	H 	0.55739 0.86836 0.25171 0.08700
H 	H 	0.50430 0.63589 0.17250 0.04100
