data_crystal

_cell_length_a 36.26683
_cell_length_b 36.03804
_cell_length_c 20.83367
_cell_angle_alpha 91.03167
_cell_angle_beta  90.31893
_cell_angle_gamma 89.98566

_symmetry_space_group_name_	'P 1'
_symmetry_space_group_name_H-M	'P 1'

loop_
_symmetry_equiv_pos_as_xyz
  x,y,z

loop_
_atom_site_label
_atom_site_type_symbol
_atom_site_fract_x
_atom_site_fract_y
_atom_site_fract_z
_atom_site_charge
Cd	Cd	0.91835 0.88827 0.23267 1.23800
Cd	Cd	0.91976 0.92809 0.39040 1.16100
O 	O 	0.89177 0.82649 0.20574 -0.31900
O 	O 	0.91187 0.86430 0.13262 -0.38500
C 	C 	0.89855 0.83174 0.14512 0.27900
O 	O 	0.93840 0.94639 0.22038 -0.39700
O 	O 	0.95895 0.95603 0.32386 -0.42600
C 	C 	0.95152 0.96869 0.26625 0.28700
C 	C 	0.85337 0.92197 0.28293 0.29600
O 	O 	0.94674 0.87484 0.34742 -0.46200
O 	O 	0.85038 0.91560 0.22128 -0.30000
O 	O 	0.88178 0.90666 0.31002 -0.54200
C 	C 	0.97857 0.87220 0.31844 0.29800
O 	O 	0.97689 0.86906 0.25621 -0.36900
Cd	Cd	0.06710 0.89698 0.89322 1.23900
Cd	Cd	0.97937 0.90466 0.96915 1.17600
O 	O 	0.09489 0.83510 0.87698 -0.31100
O 	O 	0.11753 0.88456 0.83163 -0.33500
C 	C 	0.11828 0.84856 0.83636 0.27500
O 	O 	0.05007 0.95871 0.88741 -0.37300
O 	O 	0.00600 0.96016 0.96666 -0.42600
C 	C 	0.02238 0.97580 0.91813 0.28400
C 	C 	0.00377 0.87672 0.81895 0.30100
O 	O 	0.03772 0.88692 0.00988 -0.43900
O 	O 	0.03336 0.87919 0.78539 -0.30000
O 	O 	0.00889 0.87908 0.88140 -0.52500
C 	C 	0.06744 0.90555 0.02859 0.29500
O 	O 	0.09371 0.90757 0.98724 -0.35600
C 	C 	0.17195 0.76087 0.62147 0.12400
N 	N 	0.16459 0.76965 0.55953 -0.13900
C 	C 	0.16344 0.74252 0.51342 0.13200
N 	N 	0.16933 0.70666 0.52953 -0.14200
C 	C 	0.17852 0.69800 0.59082 0.13200
N 	N 	0.18169 0.72561 0.63568 -0.14000
C 	C 	0.99135 0.72811 0.04713 0.12300
N 	N 	0.99522 0.69907 0.00541 -0.13700
C 	C 	0.02745 0.67987 0.00314 0.13200
N 	N 	0.05579 0.68995 0.04274 -0.14200
C 	C 	0.05191 0.71897 0.08469 0.13200
N 	N 	0.01957 0.73785 0.08695 -0.13900
Cd	Cd	0.85221 0.99499 0.77681 1.23400
Cd	Cd	0.88712 0.96536 0.62231 1.16200
O 	O 	0.79040 0.97527 0.81109 -0.31300
O 	O 	0.82992 0.00168 0.87812 -0.34400
C 	C 	0.79782 0.98608 0.86974 0.27000
O 	O 	0.91634 0.00819 0.77232 -0.36300
O 	O 	0.92832 0.00311 0.66419 -0.42600
C 	C 	0.94017 0.00314 0.72364 0.27400
C 	C 	0.87351 0.91990 0.75974 0.31300
O 	O 	0.84587 0.01286 0.65339 -0.43100
O 	O 	0.87062 0.93015 0.81951 -0.32300
O 	O 	0.86334 0.94480 0.71803 -0.54300
C 	C 	0.84595 0.04562 0.68369 0.28400
O 	O 	0.82712 0.04647 0.73528 -0.35100
Cd	Cd	0.83335 0.12429 0.45188 1.24200
Cd	Cd	0.85014 0.09202 0.29274 1.17800
O 	O 	0.77416 0.15245 0.48531 -0.31400
O 	O 	0.81791 0.13964 0.55442 -0.35000
C 	C 	0.78454 0.15182 0.54533 0.27600
O 	O 	0.88537 0.09182 0.45632 -0.39700
O 	O 	0.90226 0.09828 0.35082 -0.41700
C 	C 	0.90860 0.08553 0.40881 0.29600
C 	C 	0.80406 0.05498 0.41003 0.30000
O 	O 	0.83724 0.15075 0.33502 -0.44200
O 	O 	0.79954 0.05974 0.47173 -0.28800
O 	O 	0.81328 0.08462 0.37958 -0.53900
C 	C 	0.86118 0.17493 0.35702 0.29400
O 	O 	0.86541 0.17595 0.41931 -0.35600
C 	C 	0.71785 0.92757 0.08480 0.12200
N 	N 	0.73019 0.92901 0.14641 -0.13600
C 	C 	0.71017 0.91335 0.19372 0.13100
N 	N 	0.67849 0.89492 0.17873 -0.14400
C 	C 	0.66543 0.89468 0.11744 0.13100
N 	N 	0.68519 0.91100 0.07066 -0.13900
C 	C 	0.68706 0.07109 0.66735 0.12500
N 	N 	0.69980 0.04168 0.63244 -0.13600
C 	C 	0.68051 0.00944 0.62959 0.13900
N 	N 	0.64872 0.00647 0.66318 -0.14200
C 	C 	0.63536 0.03602 0.69705 0.13300
N 	N 	0.65467 0.06834 0.69933 -0.13700
Cd	Cd	0.05237 0.18015 0.15490 1.24100
Cd	Cd	0.03756 0.17191 0.32269 1.18000
O 	O 	0.08570 0.23422 0.11379 -0.31600
O 	O 	0.06756 0.18863 0.05023 -0.36100
C 	C 	0.08279 0.22122 0.05533 0.27500
O 	O 	0.02981 0.12297 0.16510 -0.38600
O 	O 	0.00120 0.13582 0.26058 -0.41600
C 	C 	0.01294 0.11170 0.21730 0.29400
C 	C 	0.11159 0.15696 0.23572 0.30900
O 	O 	0.01899 0.21588 0.24960 -0.44400
O 	O 	0.11918 0.15061 0.17517 -0.30900
O 	O 	0.08180 0.17599 0.24608 -0.53300
C 	C 	0.98883 0.21490 0.21510 0.29700
O 	O 	0.99304 0.20365 0.15565 -0.35200
Cd	Cd	0.99951 0.20261 0.77275 1.23900
Cd	Cd	0.02280 0.12432 0.67762 1.18700
O 	O 	0.99673 0.26292 0.71995 -0.31800
O 	O 	0.98237 0.25729 0.82162 -0.34100
C 	C 	0.98597 0.27902 0.77279 0.27800
O 	O 	0.98930 0.15336 0.83802 -0.36200
O 	O 	0.03052 0.11712 0.78366 -0.41000
C 	C 	0.00420 0.12033 0.82632 0.27000
C 	C 	0.94423 0.16979 0.69197 0.30700
O 	O 	0.05409 0.17887 0.69955 -0.44600
O 	O 	0.93045 0.19538 0.73013 -0.28400
O 	O 	0.98000 0.17020 0.68909 -0.53500
C 	C 	0.07632 0.18500 0.74794 0.29700
O 	O 	0.06159 0.20131 0.79804 -0.35500
C 	C 	0.01026 0.41650 0.68098 0.12000
N 	N 	0.03074 0.44737 0.69360 -0.14200
C 	C 	0.04274 0.46848 0.64461 0.13000
N 	N 	0.03345 0.45933 0.58321 -0.14300
C 	C 	0.01238 0.42899 0.57042 0.13000
N 	N 	0.00117 0.40731 0.61926 -0.13700
C 	C 	0.05980 0.35866 0.00894 0.12200
N 	N 	0.04874 0.36079 0.07106 -0.13700
C 	C 	0.04374 0.39427 0.10028 0.13200
N 	N 	0.04931 0.42577 0.06702 -0.14200
C 	C 	0.06065 0.42380 0.00494 0.13000
N 	N 	0.06582 0.39018 0.97581 -0.13500
Cd	Cd	0.16710 0.00714 0.87268 1.23900
Cd	Cd	0.10987 0.07822 0.92740 1.18800
O 	O 	0.22549 0.99682 0.93068 -0.31900
O 	O 	0.20684 0.95899 0.85301 -0.34300
C 	C 	0.23184 0.96732 0.89599 0.27600
O 	O 	0.11457 0.99923 0.81500 -0.38200
O 	O 	0.09497 0.05974 0.82455 -0.40000
C 	C 	0.08995 0.02543 0.80268 0.30300
C 	C 	0.12415 0.99393 0.98594 0.29100
O 	O 	0.16930 0.07890 0.89091 -0.45700
O 	O 	0.13633 0.96379 0.95778 -0.29100
O 	O 	0.13707 0.02456 0.96207 -0.51200
C 	C 	0.17844 0.08260 0.83111 0.30200
O 	O 	0.18644 0.05165 0.80082 -0.35200
Cd	Cd	0.12742 0.00119 0.51489 1.24200
Cd	Cd	0.11229 0.99633 0.34603 1.18100
O 	O 	0.18872 0.98447 0.55573 -0.31900
O 	O 	0.14601 0.00761 0.61973 -0.35000
C 	C 	0.17937 0.99484 0.61336 0.27300
O 	O 	0.07247 0.02751 0.50166 -0.39600
O 	O 	0.06033 0.99905 0.40431 -0.41800
C 	C 	0.05225 0.02417 0.44887 0.29900
C 	C 	0.15424 0.05913 0.43600 0.30100
O 	O 	0.12838 0.95211 0.42068 -0.44700
O 	O 	0.15575 0.06874 0.49679 -0.29400
O 	O 	0.14621 0.02456 0.42467 -0.52900
C 	C 	0.10501 0.93207 0.45251 0.29900
O 	O 	0.09930 0.94328 0.51165 -0.35500
C 	C 	0.35107 0.89304 0.01224 0.11800
N 	N 	0.34589 0.90087 0.07567 -0.13900
C 	C 	0.37262 0.89283 0.11909 0.13000
N 	N 	0.40509 0.87841 0.09885 -0.14400
C 	C 	0.41087 0.87148 0.03555 0.13000
N 	N 	0.38354 0.87799 0.99220 -0.13700
C 	C 	0.31682 0.97224 0.67705 0.12600
N 	N 	0.34726 0.97892 0.71364 -0.13500
C 	C 	0.38130 0.97210 0.68921 0.13400
N 	N 	0.38481 0.95991 0.62740 -0.14400
C 	C 	0.35434 0.95279 0.59111 0.13200
N 	N 	0.32044 0.95875 0.61627 -0.13700
C 	C 	0.36801 0.90321 0.18724 -0.05000
C 	C 	0.34199 0.88504 0.22627 0.10300
C 	C 	0.34005 0.89439 0.29190 -0.08600
C 	C 	0.36441 0.92040 0.31949 -0.00400
C 	C 	0.39081 0.93810 0.28070 0.07000
C 	C 	0.39190 0.92974 0.21471 -0.05200
N 	N 	0.31950 0.85807 0.20156 -0.20000
H 	H 	0.31988 0.88090 0.32185 0.05700
C 	C 	0.36181 0.92903 0.38907 -0.00600
N 	N 	0.41524 0.96295 0.30645 -0.19400
H 	H 	0.41192 0.94344 0.18476 0.05000
C 	C 	0.37887 0.90528 0.43280 -0.08500
C 	C 	0.37642 0.91214 0.49924 0.10200
C 	C 	0.35789 0.94438 0.52193 -0.04700
C 	C 	0.34123 0.96834 0.47803 -0.05200
C 	C 	0.34239 0.96065 0.41185 0.07400
H 	H 	0.39352 0.88096 0.41509 0.05600
N 	N 	0.39093 0.88721 0.54068 -0.19900
H 	H 	0.32692 0.99291 0.49556 0.05500
N 	N 	0.32477 0.98364 0.37058 -0.19700
H 	H 	0.40555 0.86416 0.52336 0.08800
H 	H 	0.38676 0.88959 0.59010 0.09600
H 	H 	0.31089 0.00715 0.38789 0.09600
H 	H 	0.32421 0.97825 0.32120 0.09200
H 	H 	0.43432 0.97619 0.27722 0.08500
H 	H 	0.41592 0.96908 0.35560 0.09000
H 	H 	0.32190 0.84857 0.15418 0.10100
H 	H 	0.29983 0.84550 0.23050 0.08900
C 	C 	0.20676 0.99666 0.66556 -0.07200
C 	C 	0.21640 0.96358 0.69643 0.01200
C 	C 	0.25362 0.95703 0.71262 -0.01900
C 	C 	0.28023 0.98418 0.69941 -0.00900
C 	C 	0.26848 0.02054 0.68676 -0.01600
C 	C 	0.23160 0.02675 0.66817 0.02200
C 	C 	0.18879 0.93515 0.70542 0.08600
C 	C 	0.29491 0.05068 0.68758 0.10100
C 	C 	0.22042 0.06263 0.64456 0.09000
C 	C 	0.26518 0.92140 0.73668 0.10300
N 	N 	0.21161 0.09129 0.62550 -0.10300
N 	N 	0.27480 0.89302 0.75573 -0.10400
N 	N 	0.31607 0.07471 0.68827 -0.11200
N 	N 	0.16658 0.91257 0.71235 -0.10100
C 	C 	0.26217 0.94180 0.91212 -0.06000
C 	C 	0.29874 0.95116 0.89621 0.01500
C 	C 	0.32824 0.92954 0.91888 -0.02400
C 	C 	0.32177 0.90233 0.96530 -0.00500
C 	C 	0.28529 0.89068 0.97645 -0.02200
C 	C 	0.25543 0.91117 0.95172 0.01700
C 	C 	0.30625 0.98540 0.86319 0.07900
C 	C 	0.27857 0.85775 0.01356 0.09400
C 	C 	0.21808 0.90264 0.97127 0.09200
C 	C 	0.36475 0.93436 0.89253 0.09400
N 	N 	0.18831 0.89581 0.98691 -0.10100
N 	N 	0.39373 0.93830 0.87075 -0.11800
N 	N 	0.27319 0.83144 0.04314 -0.11800
N 	N 	0.31227 0.01291 0.83746 -0.10100
C 	C 	0.03515 0.39638 0.16932 -0.04800
C 	C 	0.06182 0.40864 0.21490 0.10300
C 	C 	0.05227 0.41126 0.28003 -0.08500
C 	C 	0.01730 0.40026 0.30077 -0.00400
C 	C 	0.99101 0.38683 0.25550 0.07100
C 	C 	0.00015 0.38534 0.19002 -0.04900
N 	N 	0.09679 0.41702 0.19678 -0.19900
H 	H 	0.07240 0.42127 0.31494 0.05700
C 	C 	0.00850 0.40349 0.37006 -0.00400
N 	N 	0.95723 0.37501 0.27452 -0.19500
H 	H 	0.97999 0.37542 0.15510 0.05400
C 	C 	0.99169 0.43602 0.39342 -0.08600
C 	C 	0.98894 0.44300 0.45976 0.10400
C 	C 	0.00483 0.41773 0.50318 -0.04800
C 	C 	0.01867 0.38373 0.47997 -0.05100
C 	C 	0.02036 0.37618 0.41363 0.07100
H 	H 	0.98135 0.45626 0.35991 0.05700
N 	N 	0.97073 0.47369 0.48148 -0.19900
H 	H 	0.02966 0.36377 0.51341 0.05300
N 	N 	0.03358 0.34292 0.39214 -0.19400
H 	H 	0.96033 0.49300 0.44920 0.08900
H 	H 	0.96526 0.47779 0.53026 0.09700
H 	H 	0.04306 0.32324 0.42458 0.08300
H 	H 	0.03357 0.33581 0.34333 0.09000
H 	H 	0.93797 0.36527 0.24071 0.09000
H 	H 	0.94989 0.37481 0.32289 0.09100
H 	H 	0.10589 0.41203 0.14999 0.09500
H 	H 	0.11585 0.42734 0.23042 0.08700
C 	C 	0.11283 0.16664 0.75270 -0.08500
C 	C 	0.13563 0.17538 0.80552 -0.02400
C 	C 	0.16201 0.14990 0.82634 0.02300
C 	C 	0.16472 0.11488 0.79547 -0.09700
C 	C 	0.14673 0.10914 0.73623 -0.01000
C 	C 	0.12207 0.13571 0.71318 0.02400
S 	S 	0.19125 0.16200 0.89111 -0.04600
S 	S 	0.10811 0.13296 0.63214 -0.06900
H 	H 	0.08213 0.10573 0.62365 -0.04400
H 	H 	0.22240 0.17858 0.86824 0.05100
H 	H 	0.13146 0.20103 0.83251 0.05500
H 	H 	0.15039 0.08328 0.70972 0.06100
C 	C 	0.98908 0.31955 0.78095 -0.06100
C 	C 	0.02441 0.33572 0.78677 0.01300
C 	C 	0.03016 0.37208 0.76519 -0.02500
C 	C 	0.00143 0.39060 0.73305 -0.00900
C 	C 	0.96503 0.37760 0.73963 -0.02300
C 	C 	0.95881 0.34204 0.76469 0.01200
C 	C 	0.05541 0.31361 0.80805 0.08300
C 	C 	0.93433 0.40032 0.71913 0.09400
C 	C 	0.92164 0.32780 0.77032 0.09100
C 	C 	0.06531 0.39027 0.77609 0.09100
N 	N 	0.89196 0.31639 0.77483 -0.10100
N 	N 	0.09337 0.40478 0.78513 -0.11400
N 	N 	0.90983 0.41848 0.70271 -0.11200
N 	N 	0.08019 0.29589 0.82469 -0.10800
C 	C 	0.15035 0.08730 0.38557 -0.10300
C 	C 	0.13467 0.12194 0.40105 -0.03300
C 	C 	0.12612 0.14705 0.35272 0.01900
C 	C 	0.13008 0.13617 0.28764 -0.11500
C 	C 	0.14931 0.10331 0.27260 -0.01100
C 	C 	0.16029 0.07932 0.32133 -0.00000
S 	S 	0.11508 0.19317 0.37449 -0.18500
S 	S 	0.18871 0.04116 0.30182 -0.06300
H 	H 	0.16770 0.01246 0.27794 -0.05000
H 	H 	0.14681 0.21370 0.37885 0.06700
H 	H 	0.12916 0.12941 0.45071 0.04200
H 	H 	0.15494 0.09590 0.22297 0.04200
C 	C 	0.08144 0.24722 0.00159 -0.07000
C 	C 	0.11161 0.27106 0.99284 0.01600
C 	C 	0.10511 0.30910 0.98259 -0.02100
C 	C 	0.06851 0.32218 0.98010 -0.00300
C 	C 	0.03979 0.29645 0.96955 -0.02200
C 	C 	0.04670 0.25838 0.97831 0.01600
C 	C 	0.14882 0.25700 0.99911 0.08200
C 	C 	0.00297 0.30941 0.95464 0.10200
C 	C 	0.01772 0.23128 0.96794 0.08700
C 	C 	0.13557 0.33494 0.97904 0.09800
N 	N 	0.99455 0.20961 0.95967 -0.10600
N 	N 	0.15988 0.35563 0.97621 -0.11200
N 	N 	0.97356 0.31982 0.94281 -0.10700
N 	N 	0.17856 0.24573 0.00411 -0.11000
C 	C 	0.59672 0.03566 0.71779 -0.04700
C 	C 	0.56796 0.04433 0.67430 0.10600
C 	C 	0.53128 0.03803 0.69182 -0.08300
C 	C 	0.52289 0.02192 0.75068 -0.00500
C 	C 	0.55136 0.01558 0.79587 0.07300
C 	C 	0.58816 0.02243 0.77883 -0.05000
N 	N 	0.57542 0.05758 0.61498 -0.19900
H 	H 	0.50926 0.04362 0.65789 0.05900
C 	C 	0.48532 0.00700 0.75998 0.00400
N 	N 	0.54357 0.00303 0.85546 -0.18800
H 	H 	0.61021 0.01646 0.81247 0.05400
C 	C 	0.47917 0.96904 0.74844 -0.09400
C 	C 	0.44373 0.95603 0.73280 0.11200
C 	C 	0.41444 0.98168 0.72708 -0.05300
C 	C 	0.41955 0.01848 0.74831 -0.04000
C 	C 	0.45485 0.03128 0.76564 0.07100
H 	H 	0.50233 0.95000 0.74783 0.05800
N 	N 	0.43793 0.91905 0.72341 -0.19900
H 	H 	0.39653 0.03769 0.74773 0.06000
N 	N 	0.45950 0.06696 0.78637 -0.19300
H 	H 	0.45995 0.90038 0.72523 0.08900
H 	H 	0.41134 0.90839 0.71719 0.09800
H 	H 	0.43711 0.08521 0.78822 0.09300
H 	H 	0.48509 0.07646 0.80301 0.09300
H 	H 	0.56482 0.99736 0.88794 0.08300
H 	H 	0.51640 0.99983 0.87075 0.08400
H 	H 	0.60242 0.06126 0.59929 0.10300
H 	H 	0.55396 0.06406 0.58341 0.09300
C 	C 	0.62964 0.87724 0.10144 -0.04800
C 	C 	0.59705 0.88678 0.13533 0.10200
C 	C 	0.56329 0.87148 0.11517 -0.08500
C 	C 	0.56063 0.85143 0.05704 -0.00500
C 	C 	0.59309 0.84076 0.02440 0.07100
C 	C 	0.62743 0.85310 0.04781 -0.05200
N 	N 	0.59751 0.91241 0.18413 -0.19900
H 	H 	0.53831 0.87874 0.14092 0.05600
C 	C 	0.52419 0.84889 0.02508 -0.00600
N 	N 	0.59148 0.81887 0.97060 -0.19400
H 	H 	0.65241 0.84502 0.02282 0.05700
C 	C 	0.51088 0.88023 0.99363 -0.08400
C 	C 	0.47290 0.88744 0.99131 0.10400
C 	C 	0.44791 0.86049 0.01409 -0.04900
C 	C 	0.46144 0.82576 0.03255 -0.05200
C 	C 	0.49953 0.82000 0.03982 0.07200
H 	H 	0.53015 0.90134 0.97861 0.05600
N 	N 	0.46087 0.92117 0.97167 -0.19900
H 	H 	0.44227 0.80442 0.04702 0.05100
N 	N 	0.51217 0.78719 0.06248 -0.19400
H 	H 	0.47939 0.94029 0.95283 0.08800
H 	H 	0.43351 0.92937 0.97725 0.10300
H 	H 	0.49373 0.76632 0.07520 0.08700
H 	H 	0.54039 0.78176 0.06598 0.09000
H 	H 	0.61554 0.81180 0.94584 0.08900
H 	H 	0.56650 0.80798 0.95369 0.09000
H 	H 	0.61969 0.93047 0.19112 0.09500
H 	H 	0.57403 0.91679 0.21213 0.08500
C 	C 	0.71874 0.92253 0.26137 -0.04700
C 	C 	0.72470 0.89437 0.30675 0.10400
C 	C 	0.72402 0.90349 0.37262 -0.08700
C 	C 	0.71819 0.94025 0.39335 -0.00300
C 	C 	0.71707 0.96889 0.34783 0.07300
C 	C 	0.71667 0.95968 0.28216 -0.05200
N 	N 	0.73133 0.85875 0.28746 -0.19900
H 	H 	0.72646 0.88176 0.40772 0.05300
C 	C 	0.70744 0.94776 0.46078 -0.00600
N 	N 	0.71581 0.00516 0.36694 -0.19100
H 	H 	0.71353 0.98141 0.24720 0.05400
C 	C 	0.73493 0.95429 0.50719 -0.08500
C 	C 	0.72600 0.97061 0.56691 0.10600
C 	C 	0.68916 0.98159 0.57900 -0.05500
C 	C 	0.66121 0.97067 0.53580 -0.05100
C 	C 	0.66999 0.95342 0.47698 0.07200
H 	H 	0.76337 0.94770 0.49613 0.05200
N 	N 	0.75258 0.97495 0.61274 -0.19600
H 	H 	0.63272 0.97747 0.54632 0.05000
N 	N 	0.64249 0.94304 0.43578 -0.19400
H 	H 	0.77987 0.96754 0.60307 0.07600
H 	H 	0.74605 0.98384 0.65929 0.10100
H 	H 	0.61496 0.94859 0.44706 0.08500
H 	H 	0.64802 0.92832 0.39329 0.09000
H 	H 	0.71371 0.02611 0.33306 0.09000
H 	H 	0.71862 0.01300 0.41521 0.10100
H 	H 	0.73473 0.85170 0.23901 0.10000
H 	H 	0.73456 0.83789 0.32125 0.08900
C 	C 	0.95215 0.21267 0.24613 -0.09300
C 	C 	0.92374 0.19241 0.21556 -0.01100
C 	C 	0.89135 0.18391 0.24846 0.01900
C 	C 	0.88846 0.19317 0.31463 -0.08000
C 	C 	0.91477 0.21729 0.34250 -0.02200
C 	C 	0.94605 0.22781 0.30815 0.02700
S 	S 	0.85338 0.16674 0.20399 -0.06500
S 	S 	0.97566 0.26187 0.34151 -0.09000
H 	H 	0.96414 0.29632 0.32315 0.04800
H 	H 	0.85798 0.12954 0.19188 -0.04900
H 	H 	0.92682 0.18312 0.16612 0.05300
H 	H 	0.91124 0.22740 0.39140 0.05300
C 	C 	0.01546 0.04099 0.44773 -0.08500
C 	C 	0.01181 0.07840 0.43170 -0.04300
C 	C 	0.97694 0.09350 0.41979 0.04900
C 	C 	0.94533 0.07089 0.42395 -0.08500
C 	C 	0.94890 0.03386 0.44234 -0.03700
C 	C 	0.98372 0.01891 0.45495 0.05400
S 	S 	0.97324 0.14064 0.39965 -0.15800
S 	S 	0.98721 0.97278 0.48102 -0.16800
H 	H 	0.98624 0.97230 0.54675 0.02600
H 	H 	0.98187 0.16333 0.45096 0.01200
H 	H 	0.03618 0.09558 0.42717 -0.00300
H 	H 	0.92464 0.01647 0.44562 -0.01600
C 	C 	0.70533 0.10737 0.66156 -0.00600
C 	C 	0.74061 0.11260 0.68874 -0.02100
C 	C 	0.76637 0.13518 0.65729 0.01500
C 	C 	0.75677 0.15060 0.59768 -0.06200
C 	C 	0.71901 0.15444 0.58283 0.01300
C 	C 	0.69308 0.13209 0.61430 -0.02300
C 	C 	0.75027 0.09451 0.74802 0.10400
C 	C 	0.70698 0.18190 0.53732 0.09400
C 	C 	0.65438 0.13376 0.59716 0.09400
C 	C 	0.80109 0.14478 0.68792 0.09900
N 	N 	0.62347 0.13526 0.58342 -0.11500
N 	N 	0.82878 0.15260 0.71251 -0.10000
N 	N 	0.69736 0.20385 0.50097 -0.10500
N 	N 	0.75786 0.08008 0.79549 -0.10400
C 	C 	0.98116 0.00745 0.73448 -0.05300
C 	C 	0.00222 0.97744 0.75707 -0.04400
C 	C 	0.04106 0.98091 0.76150 0.04200
C 	C 	0.05640 0.01645 0.76248 -0.06900
C 	C 	0.03753 0.04404 0.72902 -0.01400
C 	C 	0.00098 0.03737 0.70753 -0.00600
S 	S 	0.06929 0.94342 0.73927 -0.02400
S 	S 	0.98851 0.05335 0.63109 -0.11200
H 	H 	0.97465 0.08829 0.63362 -0.04900
H 	H 	0.07399 0.94291 0.67404 0.04800
H 	H 	0.98912 0.95133 0.76710 0.03200
H 	H 	0.05286 0.06729 0.71093 -0.03300
C 	C 	0.87816 0.07135 0.68276 -0.09300
C 	C 	0.88738 0.08907 0.62537 -0.01400
C 	C 	0.90886 0.12181 0.62724 0.04400
C 	C 	0.92463 0.13429 0.68566 -0.11500
C 	C 	0.91849 0.11479 0.74111 -0.02400
C 	C 	0.89282 0.08650 0.74221 0.05100
S 	S 	0.91716 0.14588 0.55646 -0.05000
S 	S 	0.87533 0.07533 0.81900 -0.08600
H 	H 	0.84693 0.09888 0.83440 0.07100
H 	H 	0.95127 0.13492 0.53613 0.02400
H 	H 	0.87561 0.07924 0.58032 0.04000
H 	H 	0.92960 0.12542 0.78612 0.04400
C 	C 	0.77707 0.97124 0.92478 -0.06000
C 	C 	0.76968 0.93275 0.92813 0.00800
C 	C 	0.75307 0.91826 0.98318 -0.02300
C 	C 	0.74069 0.94235 0.03257 -0.00700
C 	C 	0.74747 0.98084 0.02901 -0.03000
C 	C 	0.76613 0.99520 0.97558 0.00300
C 	C 	0.77804 0.90820 0.87421 0.09000
C 	C 	0.73447 0.00575 0.07948 0.09500
C 	C 	0.77302 0.03476 0.97193 0.09200
C 	C 	0.74906 0.87841 0.98942 0.09300
N 	N 	0.77854 0.06631 0.96898 -0.10900
N 	N 	0.74585 0.84665 0.99443 -0.11400
N 	N 	0.72410 0.02560 0.11977 -0.12300
N 	N 	0.78443 0.88865 0.83103 -0.11200
C 	C 	0.02901 0.64406 0.96811 -0.04700
C 	C 	0.05814 0.63582 0.92533 0.10300
C 	C 	0.06544 0.59865 0.90819 -0.08500
C 	C 	0.04397 0.56991 0.93295 -0.00500
C 	C 	0.01188 0.57878 0.96873 0.07600
C 	C 	0.00456 0.61591 0.98533 -0.05100
N 	N 	0.07897 0.66338 0.90047 -0.19900
H 	H 	0.08906 0.59196 0.87847 0.05300
C 	C 	0.05958 0.53199 0.93406 -0.00500
N 	N 	0.98883 0.55173 0.98936 -0.19400
H 	H 	0.98118 0.62259 0.01567 0.05600
C 	C 	0.08475 0.52327 0.98278 -0.08300
C 	C 	0.09024 0.48627 0.99999 0.10500
C 	C 	0.06860 0.45815 0.97043 -0.04600
C 	C 	0.04856 0.46617 0.91452 -0.05100
C 	C 	0.04479 0.50312 0.89488 0.07400
H 	H 	0.09846 0.54539 0.00962 0.05600
N 	N 	0.11606 0.47784 0.04496 -0.19900
H 	H 	0.03403 0.44415 0.88882 0.05800
N 	N 	0.02593 0.51081 0.84017 -0.19400
H 	H 	0.13073 0.49888 0.06900 0.08800
H 	H 	0.12308 0.45030 0.05394 0.09500
H 	H 	0.01381 0.48947 0.81275 0.09600
H 	H 	0.02435 0.53787 0.82320 0.09200
H 	H 	0.96581 0.55856 0.01714 0.09100
H 	H 	0.99303 0.52385 0.97734 0.09400
H 	H 	0.07235 0.69128 0.90845 0.10000
H 	H 	0.10127 0.65706 0.87066 0.08700
C 	C 	0.17620 0.65885 0.61182 -0.04900
C 	C 	0.17645 0.62916 0.56644 0.10400
C 	C 	0.15779 0.59620 0.58051 -0.08500
C 	C 	0.14278 0.59113 0.64162 -0.00500
C 	C 	0.15018 0.61746 0.69113 0.07200
C 	C 	0.16629 0.65153 0.67562 -0.05200
N 	N 	0.19597 0.63152 0.51119 -0.19800
H 	H 	0.15474 0.57466 0.54386 0.05600
C 	C 	0.11683 0.56009 0.65151 -0.00400
N 	N 	0.14114 0.61056 0.75304 -0.19400
H 	H 	0.16923 0.67293 0.71249 0.05600
C 	C 	0.13081 0.52397 0.65581 -0.08700
C 	C 	0.10691 0.49340 0.65782 0.10600
C 	C 	0.06831 0.49934 0.65722 -0.05000
C 	C 	0.05441 0.53559 0.65820 -0.05300
C 	C 	0.07820 0.56610 0.65347 0.07300
H 	H 	0.16039 0.51955 0.65559 0.05700
N 	N 	0.12116 0.45848 0.65903 -0.19900
H 	H 	0.02482 0.53999 0.65870 0.04900
N 	N 	0.06376 0.60084 0.64897 -0.19400
H 	H 	0.14970 0.45438 0.65905 0.09200
H 	H 	0.10421 0.43511 0.66020 0.10200
H 	H 	0.03528 0.60496 0.65193 0.08900
H 	H 	0.08034 0.62393 0.64101 0.09600
H 	H 	0.14591 0.63054 0.78910 0.08400
H 	H 	0.13055 0.58488 0.76631 0.08900
H 	H 	0.21481 0.65302 0.50458 0.09500
H 	H 	0.19446 0.61035 0.47632 0.08700
C 	C 	0.15287 0.75136 0.44697 -0.05000
C 	C 	0.11546 0.75732 0.42995 0.10400
C 	C 	0.10499 0.75591 0.36499 -0.08500
C 	C 	0.13116 0.74912 0.31699 -0.00400
C 	C 	0.16901 0.74722 0.33351 0.07000
C 	C 	0.17947 0.74792 0.39858 -0.05200
N 	N 	0.08946 0.76390 0.47554 -0.20000
H 	H 	0.07616 0.75882 0.35190 0.05900
C 	C 	0.11816 0.74033 0.25087 -0.00500
N 	N 	0.19526 0.74399 0.28737 -0.19400
H 	H 	0.20824 0.74439 0.41162 0.04900
C 	C 	0.10966 0.76951 0.20968 -0.08500
C 	C 	0.09145 0.76256 0.15099 0.10500
C 	C 	0.08017 0.72595 0.13479 -0.04900
C 	C 	0.09151 0.69647 0.17328 -0.05100
C 	C 	0.11037 0.70327 0.23135 0.07300
H 	H 	0.11671 0.79776 0.22379 0.05700
N 	N 	0.08530 0.79094 0.11013 -0.19900
H 	H 	0.08388 0.66828 0.15984 0.05300
N 	N 	0.12018 0.67422 0.26865 -0.19400
H 	H 	0.09175 0.81821 0.12388 0.09100
H 	H 	0.07568 0.78602 0.06341 0.10100
H 	H 	0.11372 0.64704 0.25433 0.08600
H 	H 	0.13473 0.67816 0.31159 0.09100
H 	H 	0.22307 0.74152 0.30003 0.08600
H 	H 	0.18848 0.74482 0.23865 0.09100
H 	H 	0.09652 0.76740 0.52380 0.10200
H 	H 	0.06177 0.76709 0.46255 0.08900
C 	C 	0.99963 0.08971 0.87261 -0.04200
C 	C 	0.97299 0.06205 0.86113 -0.04100
C 	C 	0.97822 0.02615 0.88543 0.05800
C 	C 	0.01369 0.01562 0.90571 -0.07500
C 	C 	0.03828 0.04390 0.92416 -0.02100
C 	C 	0.02877 0.08145 0.91412 -0.01500
S 	S 	0.93968 0.99894 0.90502 -0.07800
S 	S 	0.04711 0.11694 0.96356 -0.14100
H 	H 	0.07175 0.13754 0.92948 -0.00900
H 	H 	0.93938 0.96701 0.86824 0.01400
H 	H 	0.94943 0.06779 0.83183 0.05400
H 	H 	0.06384 0.03692 0.94716 -0.05100
C 	C 	0.96741 0.87269 0.78670 -0.08800
C 	C 	0.93737 0.85759 0.81882 -0.04400
C 	C 	0.90206 0.86176 0.79245 0.05700
C 	C 	0.89676 0.88795 0.74369 -0.13600
C 	C 	0.92605 0.89357 0.70215 -0.00300
C 	C 	0.96178 0.88497 0.72251 0.01600
S 	S 	0.86426 0.83914 0.82665 -0.03300
S 	S 	0.99721 0.88408 0.66510 -0.03600
H 	H 	0.00613 0.91962 0.64896 0.02700
H 	H 	0.85186 0.85933 0.87850 0.05600
H 	H 	0.94132 0.84286 0.86309 0.03400
H 	H 	0.92169 0.90770 0.65731 -0.07400
C 	C 	0.06887 0.93124 0.08459 -0.09700
C 	C 	0.05015 0.96498 0.07758 -0.02100
C 	C 	0.07090 0.99660 0.06095 0.02700
C 	C 	0.10922 0.99199 0.05245 -0.09300
C 	C 	0.12579 0.96579 0.09307 -0.02300
C 	C 	0.10435 0.93520 0.11215 0.04100
S 	S 	0.05338 0.04089 0.07875 -0.06500
S 	S 	0.12550 0.89766 0.15030 -0.07100
H 	H 	0.14098 0.87450 0.10506 0.05400
H 	H 	0.07240 0.05615 0.12955 0.04000
H 	H 	0.02089 0.96695 0.08709 0.03200
H 	H 	0.15548 0.96532 0.09907 0.04400
C 	C 	0.13236 0.82502 0.78261 -0.05700
C 	C 	0.10800 0.80169 0.74701 0.01000
C 	C 	0.12112 0.78092 0.69407 -0.02400
C 	C 	0.15788 0.78510 0.67364 -0.00900
C 	C 	0.18209 0.80853 0.70861 -0.02100
C 	C 	0.16979 0.82696 0.76491 0.01300
C 	C 	0.06966 0.79824 0.76553 0.09400
C 	C 	0.21968 0.81340 0.68699 0.09700
C 	C 	0.19608 0.84543 0.80705 0.09700
C 	C 	0.09733 0.75365 0.66265 0.08700
N 	N 	0.21714 0.86000 0.84084 -0.10000
N 	N 	0.07840 0.73181 0.63785 -0.11900
N 	N 	0.24968 0.81727 0.66968 -0.10900
N 	N 	0.03907 0.79513 0.78007 -0.10200
C 	C 	0.96785 0.00440 0.24811 -0.08000
C 	C 	0.00491 0.01168 0.26332 -0.02300
C 	C 	0.02067 0.04594 0.24927 0.05000
C 	C 	0.99926 0.07351 0.21993 -0.08300
C 	C 	0.96229 0.06623 0.20421 -0.02500
C 	C 	0.94632 0.03206 0.21895 0.04600
S 	S 	0.06705 0.05433 0.26996 -0.19300
S 	S 	0.89882 0.02549 0.20547 -0.17200
H 	H 	0.89362 0.01033 0.14533 0.05500
H 	H 	0.06920 0.07207 0.32849 0.00700
H 	H 	0.02129 0.99096 0.28740 0.03000
H 	H 	0.94546 0.08782 0.18331 0.03600
C 	C 	0.83231 0.95198 0.31630 -0.10500
C 	C 	0.83528 0.95515 0.38331 -0.06100
C 	C 	0.82566 0.98810 0.41543 0.03700
C 	C 	0.80975 0.01765 0.38068 -0.11200
C 	C 	0.80267 0.01270 0.31485 -0.04600
C 	C 	0.81359 0.98023 0.28237 0.02100
S 	S 	0.83582 0.99224 0.49808 -0.16800
S 	S 	0.80100 0.97465 0.20097 -0.02400
H 	H 	0.82712 0.98955 0.16196 0.02700
H 	H 	0.86895 0.00977 0.50736 -0.00800
H 	H 	0.84723 0.93264 0.41028 -0.04300
H 	H 	0.78904 0.03451 0.28850 -0.00000
C 	C 	0.07676 0.90980 0.41705 -0.09400
C 	C 	0.07355 0.91388 0.35050 -0.02200
C 	C 	0.04162 0.90285 0.31793 0.03800
C 	C 	0.01335 0.88391 0.35117 -0.09400
C 	C 	0.01855 0.87597 0.41643 -0.03700
C 	C 	0.05042 0.88813 0.44921 0.04200
S 	S 	0.03687 0.91531 0.23689 -0.06400
S 	S 	0.05892 0.87233 0.52738 -0.03400
H 	H 	0.07923 0.84030 0.52432 0.04300
H 	H 	0.04602 0.88550 0.19846 0.04800
H 	H 	0.09507 0.92785 0.32434 -0.03300
H 	H 	0.99806 0.85995 0.44154 0.02400
C 	C 	0.90542 0.79980 0.10037 -0.07000
C 	C 	0.92315 0.80606 0.04139 0.00600
C 	C 	0.94983 0.78056 0.01907 -0.03000
C 	C 	0.95574 0.74750 0.05270 -0.00700
C 	C 	0.93055 0.73715 0.10048 -0.02500
C 	C 	0.90451 0.76323 0.12332 0.01200
C 	C 	0.91410 0.83857 0.00457 0.04300
C 	C 	0.93240 0.70043 0.12751 0.09300
C 	C 	0.87605 0.75217 0.16754 0.09200
C 	C 	0.97281 0.78928 0.96471 0.06600
N 	N 	0.85330 0.74331 0.20285 -0.10800
N 	N 	0.99136 0.79606 0.92146 -0.11700
N 	N 	0.93393 0.67108 0.14905 -0.11500
N 	N 	0.90680 0.86470 0.97566 -0.17400
