data_crystal

_cell_length_a 22.16202
_cell_length_b 21.36692
_cell_length_c 49.02736
_cell_angle_alpha 89.85300
_cell_angle_beta  89.85597
_cell_angle_gamma 119.79536

_symmetry_space_group_name_	'P 1'
_symmetry_space_group_name_H-M	'P 1'

loop_
_symmetry_equiv_pos_as_xyz
  x,y,z

loop_
_atom_site_label
_atom_site_type_symbol
_atom_site_fract_x
_atom_site_fract_y
_atom_site_fract_z
_atom_site_charge
C 	C 	0.85453 0.41011 0.91652 0.30000
C 	C 	0.54721 0.29986 0.91640 0.32800
C 	C 	0.75700 0.49369 0.93265 0.32300
C 	C 	0.64596 0.20014 0.89530 0.30400
C 	C 	0.63665 0.33582 0.99672 0.31600
C 	C 	0.72484 0.22242 0.97832 0.29700
Ni	Ni	0.69871 0.35738 0.90317 1.11800
Ni	Ni	0.61542 0.23878 0.95051 1.12200
Ni	Ni	0.76242 0.37625 0.96438 1.12200
O 	O 	0.80837 0.41393 0.90005 -0.36200
O 	O 	0.83646 0.37617 0.94041 -0.38800
O 	O 	0.61585 0.26883 0.98958 -0.38700
O 	O 	0.59205 0.31018 0.89695 -0.35000
O 	O 	0.55808 0.28624 0.94146 -0.38300
O 	O 	0.75036 0.29010 0.98710 -0.38200
O 	O 	0.69860 0.44217 0.92303 -0.36900
O 	O 	0.79520 0.47708 0.94837 -0.36300
O 	O 	0.66816 0.19034 0.96297 -0.38400
O 	O 	0.68730 0.26499 0.88480 -0.35300
O 	O 	0.59628 0.18896 0.91324 -0.35800
O 	O 	0.69352 0.38977 0.98640 -0.38000
O 	O 	0.69988 0.31648 0.93691 -0.71600
H 	H 	0.72346 0.28967 0.93152 0.15600
C 	C 	0.74646 0.39701 0.51553 0.30000
C 	C 	0.55598 0.16245 0.58728 0.32300
C 	C 	0.56106 0.32910 0.53026 0.31900
C 	C 	0.74663 0.23084 0.57988 0.31000
C 	C 	0.58462 0.35962 0.61531 0.32800
C 	C 	0.78405 0.45777 0.60991 0.31500
Ni	Ni	0.64717 0.26026 0.54440 1.11500
Ni	Ni	0.67519 0.29732 0.60863 1.12800
Ni	Ni	0.67684 0.41415 0.56741 1.12200
O 	O 	0.73399 0.33168 0.52251 -0.37000
O 	O 	0.71539 0.42942 0.52799 -0.37900
O 	O 	0.59049 0.30216 0.61916 -0.37600
O 	O 	0.55653 0.19982 0.56614 -0.38900
O 	O 	0.61003 0.18899 0.60361 -0.36900
O 	O 	0.77133 0.46927 0.58442 -0.37400
O 	O 	0.59405 0.29759 0.52012 -0.37900
O 	O 	0.57774 0.36002 0.55411 -0.39300
O 	O 	0.74128 0.39754 0.62370 -0.36000
O 	O 	0.69471 0.20492 0.56180 -0.36600
O 	O 	0.75263 0.27744 0.59906 -0.36000
O 	O 	0.63493 0.41778 0.60361 -0.37300
O 	O 	0.68297 0.32970 0.57190 -0.72300
H 	H 	0.73335 0.35026 0.56902 0.17400
C 	C 	0.94194 0.04823 0.71111 0.31800
C 	C 	0.98391 0.88616 0.79814 0.31800
C 	C 	0.90668 0.03638 0.78695 0.33900
C 	C 	0.02344 0.88931 0.72055 0.31100
C 	C 	0.13295 0.10987 0.80381 0.32500
C 	C 	0.16716 0.13209 0.72861 0.29900
Ni	Ni	0.93399 0.93859 0.75152 1.11700
Ni	Ni	0.09683 0.99721 0.76397 1.12100
Ni	Ni	0.04226 0.10948 0.75894 1.13100
O 	O 	0.92445 0.97946 0.71434 -0.35800
O 	O 	0.96523 0.09448 0.73194 -0.34500
O 	O 	0.10274 0.04006 0.80068 -0.36400
O 	O 	0.93811 0.90475 0.79081 -0.36600
O 	O 	0.03648 0.89946 0.78201 -0.34900
O 	O 	0.11609 0.14786 0.72985 -0.35200
O 	O 	0.88170 0.98900 0.76719 -0.36700
O 	O 	0.97408 0.07567 0.79061 -0.36500
O 	O 	0.17428 0.09140 0.74773 -0.35600
O 	O 	0.96562 0.86897 0.73495 -0.34900
O 	O 	0.08492 0.94125 0.72916 -0.36300
O 	O 	0.12054 0.14963 0.78663 -0.36300
O 	O 	0.02617 0.01512 0.75142 -0.70900
H 	H 	0.03671 0.01966 0.73174 0.17100
C 	C 	0.20933 0.74990 0.42178 0.30000
C 	C 	0.28935 0.53629 0.45966 0.31600
C 	C 	0.36649 0.77685 0.46096 0.31800
C 	C 	0.12675 0.51401 0.42418 0.29900
C 	C 	0.41973 0.67950 0.39128 0.32900
C 	C 	0.26090 0.63779 0.35354 0.31100
Ni	Ni	0.23626 0.64149 0.45384 1.11400
Ni	Ni	0.27236 0.56819 0.40314 1.12400
Ni	Ni	0.32960 0.73760 0.40234 1.12400
O 	O 	0.21909 0.72910 0.44637 -0.35500
O 	O 	0.25162 0.76006 0.40091 -0.36300
O 	O 	0.36626 0.61736 0.38374 -0.37100
O 	O 	0.24328 0.55316 0.46863 -0.36700
O 	O 	0.32207 0.56267 0.43663 -0.37600
O 	O 	0.31258 0.70087 0.36270 -0.36800
O 	O 	0.33757 0.70791 0.46557 -0.37800
O 	O 	0.35952 0.79988 0.43687 -0.36400
O 	O 	0.22949 0.58000 0.36933 -0.37300
O 	O 	0.13753 0.56505 0.44195 -0.37300
O 	O 	0.17582 0.49692 0.41882 -0.37400
O 	O 	0.41034 0.72203 0.40766 -0.38300
O 	O 	0.26412 0.64628 0.41732 -0.71400
H 	H 	0.22182 0.63879 0.40795 0.16200
C 	C 	0.42388 0.57581 0.07552 0.29400
C 	C 	0.22864 0.69095 0.09032 0.32700
C 	C 	0.23773 0.49389 0.05674 0.32600
C 	C 	0.41680 0.76686 0.11020 0.30100
C 	C 	0.27756 0.67483 0.00537 0.31700
C 	C 	0.47588 0.77483 0.02443 0.29300
Ni	Ni	0.31377 0.61583 0.09408 1.12100
Ni	Ni	0.35203 0.75346 0.05494 1.12100
Ni	Ni	0.36151 0.61971 0.03107 1.12300
O 	O 	0.36606 0.55668 0.08996 -0.36100
O 	O 	0.43447 0.60753 0.05119 -0.38400
O 	O 	0.32253 0.73831 0.01537 -0.38800
O 	O 	0.25546 0.66285 0.10687 -0.34000
O 	O 	0.24994 0.70554 0.06495 -0.38500
O 	O 	0.43417 0.71226 0.01214 -0.38300
O 	O 	0.23059 0.54041 0.07169 -0.35600
O 	O 	0.29504 0.51517 0.04238 -0.37100
O 	O 	0.45140 0.80335 0.04232 -0.38600
O 	O 	0.39262 0.69788 0.11625 -0.35300
O 	O 	0.38129 0.78787 0.09432 -0.36200
O 	O 	0.28123 0.61692 0.01137 -0.38100
O 	O 	0.35752 0.66942 0.06253 -0.71600
H 	H 	0.40658 0.69211 0.06807 0.15300
C 	C 	0.08525 0.19918 0.26919 0.30600
C 	C 	0.05247 0.94643 0.20616 0.32900
C 	C 	0.05098 0.14087 0.19850 0.32700
C 	C 	0.07064 0.96523 0.28496 0.28400
C 	C 	0.85336 0.95997 0.21482 0.31200
C 	C 	0.86315 0.95931 0.28503 0.28700
Ni	Ni	0.10041 0.07657 0.24187 1.12500
Ni	Ni	0.94993 0.93064 0.24806 1.12200
Ni	Ni	0.95578 0.08306 0.24600 1.11800
O 	O 	0.12752 0.17640 0.25989 -0.33600
O 	O 	0.01860 0.15368 0.27444 -0.36900
O 	O 	0.86089 0.91296 0.22973 -0.35200
O 	O 	0.10068 0.98905 0.22333 -0.34800
O 	O 	0.98730 0.92849 0.21044 -0.36900
O 	O 	0.87826 0.02278 0.27371 -0.35800
O 	O 	0.09062 0.11236 0.20340 -0.33600
O 	O 	0.02251 0.15699 0.21882 -0.37500
O 	O 	0.90592 0.93291 0.28343 -0.37200
O 	O 	0.11384 0.03325 0.27789 -0.32700
O 	O 	0.02591 0.91878 0.26707 -0.34500
O 	O 	0.90233 0.02749 0.21341 -0.37600
O 	O 	0.00509 0.03289 0.25108 -0.70500
H 	H 	0.00956 0.03800 0.27106 0.16300
C 	C 	0.08573 0.32550 0.08389 -0.07100
C 	C 	0.12167 0.29552 0.09710 0.02800
C 	C 	0.19123 0.31895 0.08971 0.05600
C 	C 	0.22637 0.37802 0.07211 -0.00100
C 	C 	0.19408 0.41666 0.06324 -0.09200
C 	C 	0.12188 0.38681 0.06725 0.12700
C 	C 	0.09133 0.25087 0.12192 0.02700
N 	N 	0.22795 0.28669 0.10175 -0.01900
H 	H 	0.28091 0.39820 0.06767 0.05900
N 	N 	0.08593 0.42057 0.05552 -0.02300
H 	H 	0.03101 0.30465 0.08818 0.08600
C 	C 	0.08080 0.28152 0.14563 0.06300
C 	C 	0.06024 0.24179 0.16991 0.00400
C 	C 	0.05527 0.17379 0.17145 -0.07900
C 	C 	0.05983 0.14049 0.14727 0.13100
C 	C 	0.07794 0.17938 0.12261 -0.06700
N 	N 	0.09437 0.35437 0.14544 -0.01600
H 	H 	0.05238 0.26588 0.18802 0.07700
N 	N 	0.04321 0.06650 0.14746 -0.02000
H 	H 	0.08281 0.15448 0.10413 0.09100
O 	O 	0.04165 0.42949 0.07009 -0.08100
O 	O 	0.09643 0.44109 0.03011 -0.09700
O 	O 	0.24495 0.24733 0.08698 -0.09900
O 	O 	0.24918 0.30134 0.12685 -0.08900
O 	O 	0.98497 0.01732 0.15819 -0.07600
O 	O 	0.08278 0.04744 0.13450 -0.06400
O 	O 	0.04420 0.36782 0.15027 -0.07900
O 	O 	0.15774 0.40742 0.14266 -0.08400
C 	C 	0.53797 0.85792 0.16811 -0.07300
C 	C 	0.60176 0.87946 0.15508 0.02900
C 	C 	0.60475 0.87785 0.12641 0.05200
C 	C 	0.54338 0.84929 0.11123 -0.01000
C 	C 	0.47887 0.82096 0.12444 -0.08800
C 	C 	0.47647 0.82924 0.15289 0.12700
C 	C 	0.66434 0.89856 0.17155 0.02900
N 	N 	0.66951 0.90037 0.11281 -0.01700
H 	H 	0.54552 0.84411 0.08931 0.04900
N 	N 	0.41126 0.80556 0.16648 -0.02400
H 	H 	0.53586 0.86148 0.19011 0.09200
C 	C 	0.69690 0.96335 0.18641 0.05500
C 	C 	0.75758 0.98175 0.20105 -0.01600
C 	C 	0.78753 0.93726 0.20034 -0.08000
C 	C 	0.75504 0.87248 0.18538 0.13100
C 	C 	0.69268 0.85262 0.17169 -0.06800
N 	N 	0.66907 0.01115 0.18634 -0.01100
H 	H 	0.78213 0.03139 0.21265 0.07100
N 	N 	0.78690 0.82862 0.18289 -0.02300
H 	H 	0.66760 0.80265 0.16030 0.08600
O 	O 	0.39662 0.76752 0.18878 -0.07600
O 	O 	0.36749 0.82408 0.15708 -0.07700
O 	O 	0.68068 0.85303 0.10066 -0.12100
O 	O 	0.71896 0.96725 0.11416 -0.10400
O 	O 	0.84721 0.85429 0.17101 -0.07700
O 	O 	0.75271 0.76104 0.19006 -0.07500
O 	O 	0.65239 0.02937 0.20923 -0.07900
O 	O 	0.66527 0.04059 0.16363 -0.07900
C 	C 	0.11509 0.72267 0.13956 -0.07200
C 	C 	0.12336 0.78807 0.12956 0.03500
C 	C 	0.15630 0.81478 0.10415 0.05600
C 	C 	0.18682 0.77990 0.09045 0.00100
C 	C 	0.18328 0.71741 0.10152 -0.09000
C 	C 	0.14304 0.68609 0.12527 0.13300
C 	C 	0.10383 0.83187 0.14698 0.02700
N 	N 	0.15998 0.87812 0.09246 -0.01600
H 	H 	0.21514 0.80280 0.07163 0.05700
N 	N 	0.12924 0.61658 0.13460 -0.02400
H 	H 	0.08750 0.70054 0.15859 0.09400
C 	C 	0.03392 0.80639 0.15439 0.06900
C 	C 	0.01746 0.84511 0.17317 0.00800
C 	C 	0.06996 0.91032 0.18415 -0.07600
C 	C 	0.13939 0.93826 0.17506 0.12000
C 	C 	0.15599 0.89796 0.15720 -0.06400
N 	N 	0.97946 0.74116 0.14292 -0.02000
H 	H 	0.96383 0.82393 0.17941 0.07700
N 	N 	0.19290 0.00807 0.18345 -0.01500
H 	H 	0.20965 0.91836 0.15113 0.08700
O 	O 	0.14020 0.60725 0.15995 -0.07200
O 	O 	0.10173 0.56169 0.11817 -0.06900
O 	O 	0.21941 0.93108 0.08422 -0.09700
O 	O 	0.10349 0.88143 0.08886 -0.07700
O 	O 	0.19106 0.06540 0.17575 -0.06800
O 	O 	0.24656 0.01470 0.19667 -0.06700
O 	O 	0.93494 0.69015 0.15881 -0.08600
O 	O 	0.97177 0.73460 0.11659 -0.08200
C 	C 	0.69210 0.80597 0.31094 -0.06600
C 	C 	0.67731 0.83882 0.33259 0.02400
C 	C 	0.72358 0.91196 0.33863 0.06700
C 	C 	0.78383 0.95141 0.32273 -0.02400
C 	C 	0.79815 0.91853 0.30084 -0.07300
C 	C 	0.75164 0.84533 0.29491 0.11800
C 	C 	0.61104 0.79741 0.34770 0.03000
N 	N 	0.70965 0.94628 0.36087 -0.01800
H 	H 	0.81951 0.00746 0.32749 0.08200
N 	N 	0.76305 0.81162 0.27188 -0.02400
H 	H 	0.65641 0.74992 0.30614 0.08700
C 	C 	0.54760 0.78082 0.33526 0.05900
C 	C 	0.48488 0.73786 0.34906 -0.00300
C 	C 	0.48435 0.71070 0.37517 -0.09400
C 	C 	0.54772 0.72639 0.38753 0.12300
C 	C 	0.61077 0.76972 0.37372 -0.07300
N 	N 	0.54673 0.80840 0.30869 -0.01700
H 	H 	0.43686 0.72960 0.34018 0.06300
N 	N 	0.54832 0.69914 0.41420 -0.02500
H 	H 	0.65943 0.78125 0.38312 0.08500
O 	O 	0.72405 0.79759 0.25044 -0.07600
O 	O 	0.80377 0.78428 0.27409 -0.09800
O 	O 	0.75497 0.97601 0.38027 -0.10100
O 	O 	0.65409 0.95237 0.36072 -0.09200
O 	O 	0.51013 0.63059 0.41946 -0.09300
O 	O 	0.58970 0.74227 0.43282 -0.09500
O 	O 	0.50967 0.76448 0.28941 -0.08300
O 	O 	0.57857 0.87766 0.30438 -0.08200
C 	C 	0.15599 0.53367 0.29764 -0.06300
C 	C 	0.19726 0.50256 0.29148 0.02600
C 	C 	0.26959 0.54311 0.29603 0.06300
C 	C 	0.29677 0.60736 0.31085 -0.00200
C 	C 	0.25133 0.62522 0.32412 -0.07900
C 	C 	0.18327 0.59602 0.31386 0.12400
C 	C 	0.16375 0.42459 0.28486 0.02900
N 	N 	0.31424 0.51570 0.28822 -0.01800
H 	H 	0.35120 0.63495 0.31626 0.06900
N 	N 	0.13898 0.62291 0.32317 -0.02400
H 	H 	0.10166 0.50631 0.29188 0.08900
C 	C 	0.11977 0.37189 0.30401 0.05700
C 	C 	0.09341 0.29848 0.29846 -0.00300
C 	C 	0.11433 0.27700 0.27492 -0.08200
C 	C 	0.16083 0.33019 0.25636 0.12500
C 	C 	0.18136 0.40285 0.26062 -0.06900
N 	N 	0.10412 0.39282 0.32959 -0.01500
H 	H 	0.05868 0.25833 0.31301 0.06900
N 	N 	0.19114 0.31147 0.23430 -0.02300
H 	H 	0.21514 0.44302 0.24587 0.09400
O 	O 	0.07324 0.57872 0.32768 -0.08700
O 	O 	0.16473 0.69150 0.32767 -0.08400
O 	O 	0.36043 0.54791 0.26911 -0.07900
O 	O 	0.31364 0.46339 0.30208 -0.08500
O 	O 	0.18016 0.32395 0.20937 -0.08500
O 	O 	0.24113 0.29787 0.23925 -0.07300
O 	O 	0.04047 0.37579 0.33540 -0.09500
O 	O 	0.15239 0.42359 0.34790 -0.10300
C 	C 	0.16067 0.88434 0.40192 -0.07200
C 	C 	0.10682 0.84140 0.38391 0.03100
C 	C 	0.07171 0.76587 0.38710 0.05900
C 	C 	0.09844 0.73409 0.40482 -0.00700
C 	C 	0.16070 0.77722 0.41879 -0.08400
C 	C 	0.18701 0.85233 0.41980 0.12000
C 	C 	0.09755 0.87397 0.35866 0.02900
N 	N 	0.01294 0.72126 0.37049 -0.01600
H 	H 	0.07559 0.67594 0.40514 0.05000
N 	N 	0.24526 0.89678 0.43683 -0.02300
H 	H 	0.18517 0.94258 0.40073 0.08400
C 	C 	0.06958 0.92053 0.35958 0.06000
C 	C 	0.06342 0.95233 0.33542 -0.00700
C 	C 	0.08380 0.93710 0.31032 -0.07600
C 	C 	0.11254 0.89129 0.30947 0.12600
C 	C 	0.11942 0.86020 0.33360 -0.07000
N 	N 	0.04666 0.93501 0.38490 -0.02100
H 	H 	0.04097 0.98727 0.33609 0.06000
N 	N 	0.13512 0.87645 0.28411 -0.02300
H 	H 	0.14233 0.82568 0.33291 0.09400
O 	O 	0.29713 0.95591 0.42717 -0.10300
O 	O 	0.24621 0.87840 0.46208 -0.09400
O 	O 	0.01764 0.68058 0.35189 -0.08600
O 	O 	0.95633 0.72502 0.37267 -0.09400
O 	O 	0.11253 0.81008 0.27669 -0.07000
O 	O 	0.18198 0.92908 0.26944 -0.07400
O 	O 	0.07017 0.00125 0.39270 -0.07800
O 	O 	0.99874 0.88229 0.39922 -0.09200
C 	C 	0.46592 0.93632 0.50814 -0.08800
C 	C 	0.42409 0.91205 0.53167 0.00100
C 	C 	0.36324 0.84393 0.53180 0.03400
C 	C 	0.34365 0.80226 0.50803 -0.00300
C 	C 	0.38625 0.82549 0.48466 -0.10600
C 	C 	0.44842 0.89275 0.48481 0.11500
C 	C 	0.44315 0.95988 0.55569 0.02000
C 	C 	0.31840 0.81598 0.55704 -0.18000
H 	H 	0.29542 0.75111 0.50778 0.03100
C 	C 	0.49584 0.91864 0.46023 -0.21600
H 	H 	0.51239 0.98902 0.50810 0.05300
C 	C 	0.50176 0.97448 0.57160 0.00800
C 	C 	0.53289 0.03694 0.58767 0.01800
C 	C 	0.50647 0.08450 0.58736 -0.12400
C 	C 	0.43862 0.05945 0.57739 0.14500
C 	C 	0.40868 0.99891 0.56039 -0.12300
C 	C 	0.53475 0.92770 0.56960 -0.17400
H 	H 	0.58135 0.05215 0.59802 0.05500
C 	C 	0.40194 0.10193 0.58199 -0.22800
H 	H 	0.36098 0.98488 0.54960 0.06800
H 	H 	0.50640 0.87582 0.45294 0.09700
H 	H 	0.54672 0.96672 0.46506 0.08100
H 	H 	0.47125 0.93354 0.44364 0.09800
H 	H 	0.29009 0.84605 0.56026 0.07900
H 	H 	0.35091 0.82249 0.57518 0.07700
H 	H 	0.27955 0.75771 0.55528 0.07600
H 	H 	0.56601 0.93327 0.58803 0.08600
H 	H 	0.56935 0.94375 0.55143 0.07400
H 	H 	0.49433 0.86996 0.56789 0.07700
H 	H 	0.41205 0.13910 0.56453 0.09700
H 	H 	0.42006 0.13385 0.60108 0.10800
H 	H 	0.34496 0.06506 0.58391 0.10200
C 	C 	0.94454 0.38862 0.43602 -0.10100
C 	C 	0.92066 0.43542 0.42778 0.01200
C 	C 	0.95737 0.48693 0.40722 0.03000
C 	C 	0.02475 0.50188 0.40020 0.00100
C 	C 	0.05548 0.46794 0.41446 -0.10100
C 	C 	0.01166 0.40355 0.42867 0.12600
C 	C 	0.87008 0.44249 0.44536 0.00500
C 	C 	0.92876 0.53163 0.39516 -0.18500
H 	H 	0.05659 0.54719 0.38689 0.05600
C 	C 	0.03901 0.35618 0.43904 -0.20800
H 	H 	0.91379 0.34501 0.45015 0.06600
C 	C 	0.79846 0.39205 0.44380 0.03400
C 	C 	0.75499 0.38489 0.46586 -0.01200
C 	C 	0.78262 0.42643 0.48948 -0.10400
C 	C 	0.85162 0.48426 0.48913 0.11100
C 	C 	0.89506 0.49191 0.46697 -0.08900
C 	C 	0.76958 0.34075 0.42012 -0.18100
H 	H 	0.70112 0.34216 0.46575 0.04000
C 	C 	0.88121 0.53272 0.51354 -0.21900
H 	H 	0.94964 0.53272 0.46753 0.06200
H 	H 	0.99582 0.30070 0.44327 0.08100
H 	H 	0.06851 0.37900 0.45816 0.09000
H 	H 	0.07342 0.35211 0.42350 0.09500
H 	H 	0.94466 0.58031 0.40783 0.08400
H 	H 	0.87114 0.50042 0.39410 0.08100
H 	H 	0.94853 0.54851 0.37405 0.09800
H 	H 	0.71237 0.31745 0.41854 0.07600
H 	H 	0.78101 0.29610 0.42292 0.07900
H 	H 	0.79293 0.36899 0.40060 0.07800
H 	H 	0.89073 0.50323 0.53012 0.10900
H 	H 	0.84444 0.55010 0.52092 0.09600
H 	H 	0.93105 0.58209 0.50845 0.09100
C 	C 	0.47368 0.40091 0.48498 -0.09300
C 	C 	0.40988 0.37396 0.49865 0.00800
C 	C 	0.38990 0.31829 0.51813 0.03400
C 	C 	0.43810 0.29751 0.52629 -0.00700
C 	C 	0.50504 0.33057 0.51482 -0.11400
C 	C 	0.52109 0.37861 0.49261 0.11100
C 	C 	0.36617 0.40713 0.49340 0.00800
C 	C 	0.31933 0.28452 0.53157 -0.18400
H 	H 	0.42506 0.25890 0.54278 0.04300
C 	C 	0.59057 0.41036 0.47837 -0.21500
H 	H 	0.48757 0.44144 0.46917 0.06700
C 	C 	0.37958 0.47130 0.50679 0.03500
C 	C 	0.34810 0.51027 0.49725 -0.00600
C 	C 	0.30285 0.48522 0.47494 -0.10500
C 	C 	0.28310 0.41668 0.46390 0.11000
C 	C 	0.31610 0.37888 0.47281 -0.09000
C 	C 	0.43110 0.50104 0.52983 -0.17900
H 	H 	0.36214 0.56220 0.50610 0.04800
C 	C 	0.22959 0.38550 0.44164 -0.21200
H 	H 	0.30453 0.32860 0.46310 0.06300
H 	H 	0.63171 0.45105 0.49169 0.08800
H 	H 	0.59063 0.43705 0.45889 0.08400
H 	H 	0.60291 0.36730 0.47343 0.09200
H 	H 	0.27810 0.26957 0.51603 0.08300
H 	H 	0.31748 0.32315 0.54619 0.08400
H 	H 	0.30766 0.23450 0.54280 0.09000
H 	H 	0.42769 0.54463 0.54079 0.07700
H 	H 	0.48470 0.52336 0.52166 0.07900
H 	H 	0.42073 0.45794 0.54492 0.07700
H 	H 	0.25253 0.41355 0.42204 0.07700
H 	H 	0.18441 0.39199 0.44698 0.08800
H 	H 	0.21014 0.32693 0.43895 0.08600
C 	C 	0.84319 0.10865 0.66534 -0.06700
C 	C 	0.86957 0.10594 0.63960 0.02700
C 	C 	0.91967 0.08392 0.63737 0.07200
C 	C 	0.94198 0.06387 0.66085 -0.00100
C 	C 	0.91671 0.06803 0.68663 -0.07300
C 	C 	0.86613 0.08948 0.68881 0.12800
C 	C 	0.84655 0.12944 0.61536 0.03300
N 	N 	0.94908 0.08330 0.61139 -0.02000
H 	H 	0.97890 0.04503 0.65900 0.09200
N 	N 	0.83644 0.08981 0.71474 -0.02200
H 	H 	0.80450 0.12541 0.66709 0.08700
C 	C 	0.77841 0.08677 0.60543 0.05600
C 	C 	0.74917 0.11832 0.58893 -0.00200
C 	C 	0.78595 0.19270 0.58365 -0.08700
C 	C 	0.85750 0.23219 0.58976 0.12200
C 	C 	0.88747 0.20020 0.60568 -0.07400
N 	N 	0.73687 0.01320 0.61398 -0.00300
H 	H 	0.69572 0.08635 0.58236 0.05900
N 	N 	0.89885 0.30575 0.58095 -0.02300
H 	H 	0.94125 0.23176 0.61198 0.08900
O 	O 	0.84080 0.14905 0.72382 -0.07300
O 	O 	0.79920 0.02961 0.72793 -0.06700
O 	O 	0.01620 0.11816 0.60804 -0.07000
O 	O 	0.90918 0.04380 0.59171 -0.07400
O 	O 	0.94651 0.35307 0.59685 -0.08200
O 	O 	0.89086 0.32475 0.55658 -0.09400
O 	O 	0.67658 0.99147 0.62539 -0.11600
O 	O 	0.75893 0.96773 0.61010 -0.09400
C 	C 	0.27772 0.25810 0.67144 -0.06600
C 	C 	0.34216 0.26305 0.67640 0.02400
C 	C 	0.34903 0.22406 0.69827 0.06500
C 	C 	0.29186 0.18176 0.71517 -0.00600
C 	C 	0.22651 0.17480 0.70973 -0.07100
C 	C 	0.21926 0.21157 0.68701 0.12300
C 	C 	0.40061 0.30365 0.65716 0.03000
N 	N 	0.41365 0.22601 0.70301 -0.01700
H 	H 	0.29831 0.15361 0.73234 0.08300
N 	N 	0.15203 0.19665 0.67818 -0.02100
H 	H 	0.27199 0.28703 0.65436 0.08600
C 	C 	0.39760 0.27848 0.63037 0.05100
C 	C 	0.45784 0.30816 0.61430 0.00000
C 	C 	0.52197 0.35893 0.62537 -0.09400
C 	C 	0.52334 0.39055 0.65072 0.12800
C 	C 	0.46237 0.36302 0.66645 -0.07300
N 	N 	0.33488 0.21901 0.62022 -0.01700
H 	H 	0.45620 0.28552 0.59437 0.05300
N 	N 	0.58746 0.44703 0.66137 -0.02600
H 	H 	0.46404 0.38496 0.68653 0.08900
O 	O 	0.10953 0.13429 0.66763 -0.07800
O 	O 	0.13650 0.24789 0.67773 -0.08200
O 	O 	0.44537 0.24914 0.72619 -0.07800
O 	O 	0.43808 0.19971 0.68498 -0.08000
O 	O 	0.62371 0.50611 0.64742 -0.08100
O 	O 	0.60782 0.44091 0.68560 -0.07500
O 	O 	0.30267 0.22845 0.59988 -0.10900
O 	O 	0.31271 0.15455 0.63002 -0.09200
C 	C 	0.94914 0.62741 0.63000 -0.08000
C 	C 	0.92578 0.64859 0.65290 0.03200
C 	C 	0.85735 0.60461 0.66254 0.06500
C 	C 	0.81292 0.54033 0.64913 -0.00200
C 	C 	0.83519 0.52013 0.62566 -0.08100
C 	C 	0.90411 0.56353 0.61618 0.12200
C 	C 	0.97065 0.71971 0.66531 0.01300
N 	N 	0.83165 0.62716 0.68507 -0.01700
H 	H 	0.75992 0.50743 0.65638 0.08500
N 	N 	0.92840 0.54328 0.59250 -0.02500
H 	H 	0.00194 0.66106 0.62269 0.08900
C 	C 	0.01262 0.72652 0.68790 0.07700
C 	C 	0.03738 0.78737 0.70465 -0.00300
C 	C 	0.02141 0.84171 0.69866 -0.06900
C 	C 	0.98895 0.83984 0.67382 0.11000
C 	C 	0.96283 0.77835 0.65739 -0.06300
N 	N 	0.02902 0.67125 0.69420 -0.01500
H 	H 	0.06488 0.78998 0.72325 0.08000
N 	N 	0.98210 0.90019 0.66536 -0.02800
H 	H 	0.93383 0.77486 0.63914 0.08000
O 	O 	0.91964 0.47857 0.59059 -0.08200
O 	O 	0.96455 0.59134 0.57400 -0.11000
O 	O 	0.78011 0.63916 0.68159 -0.07500
O 	O 	0.85635 0.63065 0.70940 -0.06700
O 	O 	0.92288 0.89028 0.65629 -0.08900
O 	O 	0.03608 0.96468 0.66541 -0.09300
O 	O 	0.09340 0.68583 0.69377 -0.08300
O 	O 	0.98055 0.60838 0.70267 -0.07500
C 	C 	0.04352 0.48565 0.92665 -0.08000
C 	C 	0.06296 0.55884 0.92776 0.00200
C 	C 	0.02121 0.58262 0.91474 0.05000
C 	C 	0.95366 0.53152 0.90667 -0.02200
C 	C 	0.92907 0.45772 0.91100 -0.09700
C 	C 	0.97701 0.43477 0.91760 0.10400
C 	C 	0.11770 0.60613 0.94711 0.01000
C 	C 	0.04575 0.66190 0.91183 -0.18800
H 	H 	0.91840 0.54936 0.89951 0.05500
C 	C 	0.95558 0.35590 0.91746 -0.22100
H 	H 	0.07786 0.46778 0.93486 0.06700
C 	C 	0.10190 0.60611 0.97509 0.04100
C 	C 	0.15617 0.63782 0.99403 -0.00700
C 	C 	0.22551 0.66872 0.98546 -0.10500
C 	C 	0.24116 0.67618 0.95728 0.11200
C 	C 	0.18696 0.64415 0.93828 -0.09100
C 	C 	0.02769 0.56567 0.98515 -0.17800
H 	H 	0.14431 0.63336 0.01567 0.06000
C 	C 	0.31541 0.71619 0.94751 -0.21200
H 	H 	0.19877 0.64613 0.91671 0.06400
H 	H 	0.93482 0.33186 0.93782 0.09500
H 	H 	0.00076 0.34874 0.91259 0.10100
H 	H 	0.91516 0.32644 0.90178 0.09900
H 	H 	0.10127 0.69171 0.90553 0.08400
H 	H 	0.03975 0.68350 0.93159 0.08900
H 	H 	0.01551 0.67168 0.89603 0.08300
H 	H 	0.02308 0.58226 0.00616 0.08900
H 	H 	0.00899 0.50687 0.98526 0.08500
H 	H 	0.99349 0.57656 0.97187 0.08200
H 	H 	0.34326 0.68787 0.95439 0.08400
H 	H 	0.34130 0.77172 0.95580 0.08500
H 	H 	0.31891 0.72039 0.92490 0.08400
C 	C 	0.70060 0.07360 0.02306 -0.09700
C 	C 	0.71370 0.03387 0.00356 0.02900
C 	C 	0.75851 0.07074 0.98149 0.03200
C 	C 	0.77457 0.14182 0.97561 -0.01200
C 	C 	0.74692 0.17557 0.99183 -0.10400
C 	C 	0.71854 0.14530 0.01757 0.11700
C 	C 	0.66613 0.95489 0.00226 -0.01600
C 	C 	0.78316 0.03245 0.96270 -0.16600
H 	H 	0.80258 0.16794 0.95706 0.04800
C 	C 	0.69931 0.18565 0.03765 -0.21700
H 	H 	0.67046 0.04676 0.04116 0.07100
C 	C 	0.66574 0.90925 0.02316 0.04700
C 	C 	0.60416 0.84428 0.02876 -0.02000
C 	C 	0.54502 0.82295 0.01253 -0.09900
C 	C 	0.55098 0.86159 0.98828 0.10700
C 	C 	0.61129 0.92805 0.98355 -0.08200
C 	C 	0.72902 0.93162 0.04055 -0.19200
H 	H 	0.60096 0.81285 0.04666 0.04400
C 	C 	0.49065 0.83625 0.96900 -0.21100
H 	H 	0.61316 0.96158 0.96655 0.05600
H 	H 	0.69236 0.16241 0.05849 0.08800
H 	H 	0.64993 0.18277 0.03131 0.09100
H 	H 	0.74117 0.24292 0.03868 0.09200
H 	H 	0.74382 0.00429 0.94657 0.09600
H 	H 	0.79137 0.99237 0.97414 0.07000
H 	H 	0.83346 0.07132 0.95301 0.09600
H 	H 	0.72971 0.88366 0.04894 0.09300
H 	H 	0.72903 0.96565 0.05760 0.09400
H 	H 	0.77729 0.96271 0.02831 0.07900
H 	H 	0.50645 0.86664 0.94943 0.08200
H 	H 	0.44945 0.84414 0.97854 0.08500
H 	H 	0.46970 0.77840 0.96417 0.09100
C 	C 	0.56711 0.53505 0.06780 -0.08800
C 	C 	0.52820 0.45991 0.07083 0.00500
C 	C 	0.46541 0.42914 0.08578 0.04300
C 	C 	0.43427 0.47111 0.09126 -0.01600
C 	C 	0.46706 0.54358 0.08280 -0.09700
C 	C 	0.53758 0.57766 0.07468 0.11000
C 	C 	0.54594 0.41432 0.05383 0.00900
C 	C 	0.42857 0.35052 0.09362 -0.19100
H 	H 	0.38243 0.44601 0.10000 0.06300
C 	C 	0.57964 0.65841 0.07133 -0.21100
H 	H 	0.61806 0.55961 0.05827 0.06700
C 	C 	0.51617 0.39168 0.02769 0.03700
C 	C 	0.54207 0.35886 0.01008 -0.00900
C 	C 	0.59848 0.35065 0.01784 -0.10500
C 	C 	0.62507 0.36881 0.04459 0.11300
C 	C 	0.59849 0.40059 0.06241 -0.09100
C 	C 	0.45983 0.40638 0.01789 -0.18100
H 	H 	0.52112 0.34374 0.98967 0.05400
C 	C 	0.68292 0.35621 0.05389 -0.21300
H 	H 	0.62042 0.41706 0.08262 0.06600
H 	H 	0.57656 0.67344 0.04990 0.08800
H 	H 	0.63504 0.67816 0.07641 0.09100
H 	H 	0.56046 0.68593 0.08516 0.09000
H 	H 	0.46668 0.33367 0.09968 0.08800
H 	H 	0.39761 0.31728 0.07615 0.09000
H 	H 	0.39314 0.34004 0.11125 0.10200
H 	H 	0.44229 0.38536 0.99699 0.08200
H 	H 	0.47947 0.46537 0.01749 0.08000
H 	H 	0.41389 0.37989 0.03160 0.07900
H 	H 	0.73139 0.39199 0.04243 0.08700
H 	H 	0.66812 0.29917 0.05034 0.08400
H 	H 	0.69359 0.36715 0.07601 0.08700
C 	C 	0.66050 0.07638 0.84605 -0.07100
C 	C 	0.71936 0.07690 0.85675 0.03000
C 	C 	0.73997 0.10024 0.88372 0.05400
C 	C 	0.70621 0.13002 0.89848 -0.00800
C 	C 	0.65449 0.13977 0.88615 -0.08900
C 	C 	0.62784 0.10779 0.86065 0.12700
C 	C 	0.76607 0.06592 0.83833 0.04400
N 	N 	0.79946 0.10029 0.89514 -0.01800
H 	H 	0.72520 0.15244 0.91848 0.04900
N 	N 	0.57047 0.11122 0.84881 -0.02400
H 	H 	0.64268 0.05553 0.82574 0.09400
C 	C 	0.75003 0.99613 0.83025 0.04900
C 	C 	0.79633 0.98712 0.81341 -0.00900
C 	C 	0.85851 0.04718 0.80450 -0.07200
C 	C 	0.87342 0.11716 0.81199 0.12800
C 	C 	0.82750 0.12600 0.82903 -0.07100
N 	N 	0.68676 0.93432 0.83905 -0.01500
H 	H 	0.78438 0.93325 0.80759 0.07300
N 	N 	0.93397 0.17944 0.80161 -0.02500
H 	H 	0.83929 0.17981 0.83487 0.08500
O 	O 	0.57280 0.12954 0.82334 -0.07600
O 	O 	0.51497 0.09380 0.86326 -0.07500
O 	O 	0.85019 0.15942 0.90509 -0.11700
O 	O 	0.80399 0.04189 0.89478 -0.08900
O 	O 	0.93997 0.19365 0.77561 -0.08800
O 	O 	0.98022 0.22504 0.81838 -0.09000
O 	O 	0.64348 0.89010 0.82114 -0.08600
O 	O 	0.67482 0.91943 0.86492 -0.09000
C 	C 	0.40997 0.31189 0.87555 -0.07300
C 	C 	0.35096 0.24734 0.88350 0.03300
C 	C 	0.35401 0.21036 0.90686 0.05600
C 	C 	0.41816 0.23235 0.91947 0.00100
C 	C 	0.47898 0.29131 0.90910 -0.09300
C 	C 	0.47388 0.33459 0.88847 0.12700
C 	C 	0.29262 0.21076 0.86417 0.02900
N 	N 	0.29274 0.14792 0.91681 -0.01600
H 	H 	0.42117 0.20105 0.93630 0.06000
N 	N 	0.53360 0.40116 0.88046 -0.02600
H 	H 	0.40705 0.34243 0.85842 0.09100
C 	C 	0.24721 0.23775 0.85885 0.06200
C 	C 	0.19535 0.20472 0.83895 0.00300
C 	C 	0.18843 0.14500 0.82437 -0.08600
C 	C 	0.23466 0.11887 0.82960 0.12800
C 	C 	0.28567 0.15129 0.84958 -0.06800
N 	N 	0.25365 0.29864 0.87352 -0.01600
H 	H 	0.15996 0.22497 0.83512 0.07500
N 	N 	0.23194 0.06142 0.81378 -0.02100
H 	H 	0.32136 0.13132 0.85328 0.09200
O 	O 	0.56973 0.44933 0.89873 -0.08900
O 	O 	0.54980 0.41512 0.85478 -0.08200
O 	O 	0.29416 0.08907 0.92231 -0.08800
O 	O 	0.23606 0.15050 0.92108 -0.07600
O 	O 	0.26171 0.07492 0.78993 -0.09900
O 	O 	0.20645 0.99736 0.82441 -0.10300
O 	O 	0.25862 0.35390 0.86032 -0.08900
O 	O 	0.25001 0.29692 0.90002 -0.08300
C 	C 	0.89076 0.68465 0.91281 -0.07700
C 	C 	0.87138 0.68623 0.88570 0.02400
C 	C 	0.80785 0.63001 0.87591 0.06100
C 	C 	0.76779 0.56965 0.89230 -0.00600
C 	C 	0.78992 0.56481 0.91868 -0.09100
C 	C 	0.84910 0.62515 0.92969 0.11700
C 	C 	0.91806 0.74583 0.86729 0.02200
N 	N 	0.78454 0.63347 0.84902 -0.01600
H 	H 	0.72057 0.52533 0.88407 0.06900
N 	N 	0.86459 0.62800 0.95818 -0.02100
H 	H 	0.93774 0.72976 0.92084 0.07900
C 	C 	0.92095 0.81308 0.86874 0.06300
C 	C 	0.94828 0.86150 0.84681 0.00100
C 	C 	0.97132 0.84273 0.82314 -0.08400
C 	C 	0.97412 0.77817 0.82273 0.12700
C 	C 	0.94924 0.73109 0.84514 -0.07200
N 	N 	0.89293 0.83086 0.89184 -0.01700
H 	H 	0.94813 0.91213 0.84760 0.06900
N 	N 	0.99749 0.75776 0.79891 -0.02600
H 	H 	0.94881 0.68017 0.84431 0.07700
O 	O 	0.81571 0.61122 0.97624 -0.09000
O 	O 	0.92858 0.65413 0.96612 -0.11500
O 	O 	0.77099 0.58224 0.83166 -0.08300
O 	O 	0.77285 0.68550 0.84244 -0.07400
O 	O 	0.05490 0.75526 0.79962 -0.07800
O 	O 	0.95828 0.73540 0.77738 -0.07100
O 	O 	0.93386 0.88380 0.90764 -0.09200
O 	O 	0.82602 0.79832 0.89572 -0.08000
