data_crystal

_cell_length_a 69.61075
_cell_length_b 49.22233
_cell_length_c 24.09132
_cell_angle_alpha 90.00013
_cell_angle_beta  89.99947
_cell_angle_gamma 90.00018

_symmetry_space_group_name_	'P 1'
_symmetry_space_group_name_H-M	'P 1'

loop_
_symmetry_equiv_pos_as_xyz
  x,y,z

loop_
_atom_site_label
_atom_site_type_symbol
_atom_site_fract_x
_atom_site_fract_y
_atom_site_fract_z
_atom_site_charge
Cu	Cu	0.38951 0.68485 0.19280 0.93200
Cu	Cu	0.35291 0.66965 0.27185 0.88200
Cu	Cu	0.35782 0.64483 0.16131 0.90100
Cu	Cu	0.39295 0.64513 0.09021 0.91400
C 	C 	0.42577 0.66764 0.15073 0.30900
O 	O 	0.38706 0.70858 0.12431 -0.34100
C 	C 	0.31979 0.65199 0.21194 0.30900
O 	O 	0.38543 0.64440 0.16569 -0.63500
O 	O 	0.36132 0.68081 0.19834 -0.63700
O 	O 	0.39435 0.69786 0.26974 -0.34200
O 	O 	0.37706 0.66314 0.30512 -0.41800
O 	O 	0.41767 0.66443 0.10184 -0.34500
O 	O 	0.35545 0.60875 0.12950 -0.35600
C 	C 	0.36452 0.59998 0.08481 0.31500
C 	C 	0.37597 0.70181 0.08228 0.30300
O 	O 	0.37154 0.67619 0.07369 -0.37100
O 	O 	0.38163 0.60938 0.07083 -0.36200
O 	O 	0.41692 0.68148 0.18995 -0.33600
C 	C 	0.38865 0.68374 0.31287 0.31800
O 	O 	0.32975 0.64474 0.16759 -0.35700
O 	O 	0.32676 0.66946 0.24813 -0.38800
H 	H 	0.39085 0.62935 0.18802 0.18700
H 	H 	0.35358 0.69558 0.18165 0.18400
Cu	Cu	0.60656 0.65044 0.11472 0.93500
Cu	Cu	0.65008 0.62497 0.11889 0.88100
Cu	Cu	0.63695 0.66563 0.20038 0.89900
Cu	Cu	0.59634 0.68413 0.22152 0.90600
C 	C 	0.56779 0.65363 0.15440 0.31200
O 	O 	0.60128 0.68890 0.08935 -0.33900
C 	C 	0.67748 0.66169 0.16865 0.30600
O 	O 	0.61063 0.65292 0.20117 -0.63600
O 	O 	0.63439 0.65761 0.11956 -0.63800
O 	O 	0.60783 0.61805 0.06537 -0.33300
O 	O 	0.63067 0.59780 0.11861 -0.42000
O 	O 	0.57256 0.67674 0.17820 -0.36300
O 	O 	0.63879 0.67418 0.27927 -0.36400
C 	C 	0.62608 0.68865 0.30721 0.31300
C 	C 	0.60912 0.71010 0.11382 0.30100
O 	O 	0.61378 0.70888 0.16664 -0.36800
O 	O 	0.60755 0.68663 0.29664 -0.36100
O 	O 	0.58015 0.64023 0.12324 -0.33900
C 	C 	0.61823 0.59667 0.07778 0.31400
O 	O 	0.66404 0.67560 0.19505 -0.35600
O 	O 	0.67331 0.64585 0.12605 -0.38000
H 	H 	0.60834 0.63653 0.22407 0.17700
H 	H 	0.63931 0.67229 0.09533 0.20200
Cu	Cu	0.38462 0.36281 0.71448 0.93400
Cu	Cu	0.34757 0.38452 0.64438 0.89100
Cu	Cu	0.35318 0.40078 0.75571 0.89500
Cu	Cu	0.38978 0.40026 0.81972 0.90700
C 	C 	0.42193 0.37746 0.75466 0.30800
O 	O 	0.38303 0.33795 0.78151 -0.33100
C 	C 	0.31413 0.39172 0.71226 0.30900
O 	O 	0.38075 0.40253 0.74584 -0.63900
O 	O 	0.35649 0.36689 0.71182 -0.63900
O 	O 	0.38803 0.35026 0.63648 -0.34000
O 	O 	0.37087 0.38594 0.60385 -0.39700
O 	O 	0.41420 0.38060 0.80411 -0.34900
O 	O 	0.35042 0.43534 0.79403 -0.36100
C 	C 	0.36097 0.44374 0.83623 0.31400
C 	C 	0.37222 0.34380 0.82476 0.30200
O 	O 	0.36840 0.36924 0.83701 -0.38400
O 	O 	0.37893 0.43573 0.84258 -0.36300
O 	O 	0.41209 0.36613 0.71401 -0.33600
C 	C 	0.38034 0.36342 0.59463 0.31100
O 	O 	0.32501 0.39908 0.75480 -0.36700
O 	O 	0.32153 0.38025 0.66764 -0.37500
H 	H 	0.38536 0.41829 0.72407 0.18000
H 	H 	0.34865 0.35140 0.72510 0.19100
Cu	Cu	0.60266 0.37596 0.80855 0.93100
Cu	Cu	0.64711 0.39872 0.80364 0.89100
Cu	Cu	0.63340 0.35359 0.73016 0.90300
Cu	Cu	0.59201 0.33715 0.70883 0.91000
C 	C 	0.56442 0.37410 0.76357 0.31400
O 	O 	0.59580 0.33950 0.84213 -0.35000
C 	C 	0.67377 0.35995 0.75929 0.30100
O 	O 	0.60753 0.36807 0.72351 -0.63100
O 	O 	0.63041 0.36695 0.80805 -0.63400
O 	O 	0.60442 0.41061 0.85118 -0.34500
O 	O 	0.62848 0.42662 0.79663 -0.40800
O 	O 	0.56821 0.34916 0.74723 -0.36200
O 	O 	0.63561 0.33914 0.65504 -0.34200
C 	C 	0.62247 0.32383 0.63112 0.31000
C 	C 	0.60294 0.31652 0.82320 0.30200
O 	O 	0.60790 0.31439 0.77074 -0.37100
O 	O 	0.60410 0.32943 0.63656 -0.35600
O 	O 	0.57661 0.38743 0.79545 -0.34700
C 	C 	0.61587 0.43046 0.83626 0.31700
O 	O 	0.66040 0.34362 0.73935 -0.34100
O 	O 	0.66989 0.37669 0.80054 -0.38400
H 	H 	0.60617 0.38324 0.69680 0.18400
H 	H 	0.63451 0.35352 0.83626 0.19400
Cu	Cu	0.39124 0.88623 0.60346 0.93600
Cu	Cu	0.34897 0.91505 0.61938 0.88000
Cu	Cu	0.36188 0.87131 0.69273 0.89900
Cu	Cu	0.40205 0.84846 0.70419 0.90400
C 	C 	0.43039 0.87933 0.63776 0.31000
O 	O 	0.39429 0.84817 0.57255 -0.32700
C 	C 	0.32093 0.87878 0.66736 0.30400
O 	O 	0.38879 0.88142 0.69017 -0.63500
O 	O 	0.36323 0.88133 0.61264 -0.63900
O 	O 	0.39044 0.92004 0.55798 -0.32800
O 	O 	0.36944 0.94048 0.61689 -0.42300
O 	O 	0.42527 0.85562 0.65826 -0.36400
O 	O 	0.36130 0.86013 0.77040 -0.35700
C 	C 	0.37373 0.84321 0.79308 0.31200
C 	C 	0.38598 0.82701 0.59584 0.30100
O 	O 	0.38243 0.82711 0.64943 -0.37300
O 	O 	0.39212 0.84457 0.78055 -0.37700
O 	O 	0.41822 0.89397 0.60831 -0.33700
C 	C 	0.38065 0.94157 0.57322 0.31300
O 	O 	0.33432 0.86362 0.69105 -0.34600
O 	O 	0.32506 0.89587 0.62681 -0.38800
H 	H 	0.39234 0.89687 0.71442 0.17100
H 	H 	0.35707 0.86778 0.58806 0.20800
Cu	Cu	0.60808 0.85063 0.69860 0.93700
Cu	Cu	0.64340 0.87055 0.78049 0.88100
Cu	Cu	0.64082 0.88909 0.66848 0.89700
Cu	Cu	0.60709 0.88794 0.59199 0.90900
C 	C 	0.57281 0.86663 0.64781 0.31200
O 	O 	0.61217 0.82548 0.63280 -0.33400
C 	C 	0.67848 0.87635 0.71950 0.31500
O 	O 	0.61309 0.89035 0.66850 -0.63600
O 	O 	0.63608 0.85468 0.70977 -0.63700
O 	O 	0.60132 0.83821 0.77480 -0.32600
O 	O 	0.61904 0.87149 0.81459 -0.42000
O 	O 	0.58207 0.86895 0.60046 -0.35900
O 	O 	0.64451 0.92402 0.63236 -0.36200
C 	C 	0.63611 0.93198 0.58600 0.31500
C 	C 	0.62436 0.83125 0.59268 0.30600
O 	O 	0.62883 0.85667 0.58222 -0.38200
O 	O 	0.61888 0.92319 0.57186 -0.35600
O 	O 	0.58079 0.85395 0.69008 -0.34200
C 	C 	0.60917 0.84899 0.81910 0.32000
O 	O 	0.66881 0.88871 0.67943 -0.36200
O 	O 	0.66981 0.86532 0.76264 -0.39000
H 	H 	0.60746 0.90605 0.68841 0.18700
H 	H 	0.64425 0.83943 0.69717 0.21400
Cu	Cu	0.38108 0.16324 0.30199 0.93300
Cu	Cu	0.33812 0.13590 0.29890 0.88800
Cu	Cu	0.35021 0.17814 0.21698 0.90100
Cu	Cu	0.39076 0.19793 0.19581 0.91000
C 	C 	0.41968 0.16716 0.26073 0.31200
O 	O 	0.38574 0.20167 0.32890 -0.34400
C 	C 	0.30992 0.17001 0.24717 0.30000
O 	O 	0.37683 0.16629 0.21547 -0.63300
O 	O 	0.35306 0.16932 0.29752 -0.63600
O 	O 	0.38046 0.13024 0.34983 -0.34300
O 	O 	0.35812 0.10971 0.29547 -0.41000
O 	O 	0.41470 0.19047 0.23799 -0.36700
O 	O 	0.34812 0.18855 0.13894 -0.35600
C 	C 	0.36081 0.20375 0.11267 0.31400
C 	C 	0.37791 0.22288 0.30450 0.30200
O 	O 	0.37300 0.22166 0.25186 -0.36000
O 	O 	0.37931 0.20047 0.12123 -0.37300
O 	O 	0.40768 0.15403 0.29350 -0.33500
C 	C 	0.37091 0.10841 0.33534 0.31900
O 	O 	0.32268 0.18563 0.22205 -0.34600
O 	O 	0.31452 0.15571 0.29149 -0.38100
H 	H 	0.37932 0.15009 0.19221 0.17800
H 	H 	0.34800 0.18368 0.32232 0.19000
Cu	Cu	0.59732 0.16640 0.23911 0.93600
Cu	Cu	0.63444 0.15648 0.15733 0.88100
Cu	Cu	0.63152 0.12957 0.26270 0.89900
Cu	Cu	0.59641 0.12120 0.33195 0.90400
C 	C 	0.56181 0.14461 0.27957 0.31000
O 	O 	0.59899 0.18604 0.31275 -0.34300
C 	C 	0.66909 0.14530 0.21744 0.30900
O 	O 	0.60394 0.12549 0.25695 -0.63700
O 	O 	0.62560 0.16603 0.23130 -0.63600
O 	O 	0.59122 0.18380 0.16659 -0.32400
O 	O 	0.61054 0.15443 0.12067 -0.42000
O 	O 	0.57074 0.13863 0.32621 -0.37300
O 	O 	0.63677 0.09305 0.28938 -0.36100
C 	C 	0.62799 0.08148 0.33176 0.31700
C 	C 	0.61119 0.17866 0.35168 0.30100
O 	O 	0.61637 0.15307 0.35628 -0.36900
O 	O 	0.60964 0.08598 0.34160 -0.37700
O 	O 	0.57021 0.16008 0.24205 -0.33100
C 	C 	0.59932 0.17574 0.12028 0.32200
O 	O 	0.65937 0.13445 0.25906 -0.34800
O 	O 	0.66066 0.16049 0.17948 -0.38200
H 	H 	0.59961 0.11108 0.23113 0.17800
H 	H 	0.63269 0.18111 0.24917 0.21100
Cu	Cu	0.10978 0.87289 0.80717 0.93200
Cu	Cu	0.15296 0.89954 0.80037 0.89000
Cu	Cu	0.14070 0.85519 0.72454 0.90200
Cu	Cu	0.10029 0.83485 0.70531 0.90900
C 	C 	0.07164 0.86841 0.76338 0.31400
O 	O 	0.10499 0.83529 0.83842 -0.34800
C 	C 	0.18107 0.86318 0.75437 0.30100
O 	O 	0.11418 0.86708 0.72127 -0.63300
O 	O 	0.13779 0.86639 0.80382 -0.63700
O 	O 	0.11045 0.90714 0.85126 -0.34600
O 	O 	0.13311 0.92589 0.79523 -0.40900
O 	O 	0.07637 0.84398 0.74602 -0.36400
O 	O 	0.14281 0.84370 0.64726 -0.35400
C 	C 	0.13040 0.82762 0.62206 0.31200
C 	C 	0.11313 0.81342 0.81741 0.30000
O 	O 	0.11782 0.81273 0.76456 -0.36500
O 	O 	0.11183 0.83005 0.63116 -0.36900
O 	O 	0.08316 0.88203 0.79678 -0.34700
C 	C 	0.12054 0.92829 0.83547 0.31600
O 	O 	0.16815 0.84727 0.73077 -0.34300
O 	O 	0.17650 0.87930 0.79609 -0.37200
H 	H 	0.11176 0.88251 0.69582 0.18100
H 	H 	0.14282 0.85282 0.83046 0.20000
Cu	Cu	0.89286 0.84289 0.70501 0.93400
Cu	Cu	0.85568 0.86744 0.63997 0.89000
Cu	Cu	0.86066 0.87492 0.75736 0.89900
Cu	Cu	0.89855 0.87797 0.81499 0.90900
C 	C 	0.93002 0.85835 0.74481 0.31000
O 	O 	0.89189 0.81637 0.76962 -0.32900
C 	C 	0.82220 0.87010 0.71050 0.30900
O 	O 	0.88796 0.88078 0.74332 -0.63800
O 	O 	0.86471 0.84567 0.70211 -0.64100
O 	O 	0.89618 0.83327 0.62548 -0.33900
O 	O 	0.87877 0.86989 0.59834 -0.39600
O 	O 	0.92273 0.85904 0.79504 -0.35400
O 	O 	0.85652 0.90132 0.81731 -0.34900
C 	C 	0.86919 0.91886 0.83664 0.31100
C 	C 	0.88152 0.82082 0.81463 0.29500
O 	O 	0.87794 0.84580 0.83124 -0.38200
O 	O 	0.88771 0.91350 0.83516 -0.37700
O 	O 	0.92027 0.84746 0.70361 -0.33600
C 	C 	0.88824 0.84771 0.58584 0.31100
O 	O 	0.83283 0.87067 0.75597 -0.35700
O 	O 	0.82942 0.86248 0.66226 -0.37400
H 	H 	0.89091 0.89765 0.72260 0.17000
H 	H 	0.85739 0.82884 0.70986 0.19200
Cu	Cu	0.09888 0.14756 0.11392 0.93200
Cu	Cu	0.14380 0.12762 0.10745 0.88100
Cu	Cu	0.12994 0.16569 0.19480 0.90100
Cu	Cu	0.08839 0.17414 0.23090 0.91100
C 	C 	0.06046 0.15014 0.15290 0.31200
O 	O 	0.09076 0.18546 0.09303 -0.35400
C 	C 	0.16982 0.16592 0.15813 0.30400
O 	O 	0.10520 0.14793 0.20009 -0.63300
O 	O 	0.12621 0.15815 0.11427 -0.63800
O 	O 	0.10078 0.11609 0.06224 -0.33700
O 	O 	0.12607 0.09827 0.10956 -0.42000
O 	O 	0.06432 0.15684 0.20457 -0.35200
O 	O 	0.13366 0.17109 0.27391 -0.36500
C 	C 	0.12116 0.18340 0.30639 0.31400
C 	C 	0.09542 0.20715 0.12183 0.30600
O 	O 	0.09983 0.20528 0.17486 -0.36000
O 	O 	0.10260 0.17873 0.30154 -0.35500
O 	O 	0.07291 0.13587 0.12380 -0.35000
C 	C 	0.11281 0.09603 0.07115 0.31300
O 	O 	0.15613 0.17884 0.18539 -0.35400
O 	O 	0.16591 0.15094 0.11406 -0.37900
H 	H 	0.10551 0.13026 0.21970 0.18000
H 	H 	0.12948 0.17383 0.09029 0.19800
Cu	Cu	0.88166 0.16698 0.17243 0.93700
Cu	Cu	0.84760 0.14557 0.25657 0.88400
Cu	Cu	0.84992 0.12665 0.14413 0.89700
Cu	Cu	0.88453 0.12748 0.06980 0.90600
C 	C 	0.91777 0.15500 0.12087 0.31200
O 	O 	0.87648 0.18993 0.10409 -0.33100
C 	C 	0.81242 0.13507 0.19831 0.31100
O 	O 	0.87792 0.12650 0.14577 -0.63600
O 	O 	0.85396 0.16129 0.18496 -0.63800
O 	O 	0.88793 0.18174 0.24717 -0.32600
O 	O 	0.87199 0.14765 0.29042 -0.41700
O 	O 	0.90825 0.14975 0.07495 -0.35900
O 	O 	0.84549 0.09359 0.10030 -0.34900
C 	C 	0.85687 0.08331 0.06171 0.31400
C 	C 	0.86447 0.18224 0.06480 0.30300
O 	O 	0.86136 0.15623 0.05599 -0.38500
O 	O 	0.87501 0.09046 0.05787 -0.37500
O 	O 	0.90901 0.16554 0.16428 -0.34400
C 	C 	0.88085 0.17108 0.29267 0.31800
O 	O 	0.82195 0.12789 0.15305 -0.36000
O 	O 	0.82088 0.14811 0.23944 -0.38000
H 	H 	0.88371 0.11159 0.16772 0.17500
H 	H 	0.84533 0.17609 0.17277 0.21200
Cu	Cu	0.10742 0.66808 0.23164 0.93500
Cu	Cu	0.14469 0.64867 0.15643 0.88200
Cu	Cu	0.13791 0.62655 0.26591 0.89600
Cu	Cu	0.10172 0.62946 0.33519 0.91000
C 	C 	0.07016 0.65446 0.27262 0.30700
O 	O 	0.11030 0.69169 0.30018 -0.32900
C 	C 	0.17713 0.63894 0.22584 0.31300
O 	O 	0.11013 0.62766 0.26033 -0.63500
O 	O 	0.13546 0.66226 0.22717 -0.63700
O 	O 	0.10343 0.68271 0.15537 -0.32600
O 	O 	0.12150 0.64960 0.11600 -0.42200
O 	O 	0.07788 0.65066 0.32180 -0.35100
O 	O 	0.13919 0.59149 0.30331 -0.36400
C 	C 	0.12963 0.58540 0.34893 0.31600
C 	C 	0.12126 0.68448 0.34220 0.30100
O 	O 	0.12429 0.65864 0.35266 -0.36600
O 	O 	0.11170 0.59328 0.35557 -0.36900
O 	O 	0.07993 0.66656 0.23286 -0.33300
C 	C 	0.11207 0.67250 0.11172 0.31900
O 	O 	0.16596 0.62347 0.25715 -0.37000
O 	O 	0.17033 0.65232 0.18272 -0.38600
H 	H 	0.10442 0.61287 0.23789 0.17100
H 	H 	0.14349 0.67675 0.24380 0.19900
Cu	Cu	0.88936 0.64872 0.30106 0.93300
Cu	Cu	0.84566 0.62366 0.30287 0.88100
Cu	Cu	0.85834 0.66294 0.21611 0.90100
Cu	Cu	0.89916 0.68062 0.19143 0.91300
C 	C 	0.92770 0.65000 0.25763 0.31400
O 	O 	0.89506 0.68754 0.32376 -0.34300
C 	C 	0.81804 0.65818 0.24948 0.30200
O 	O 	0.88469 0.65002 0.21463 -0.63200
O 	O 	0.86148 0.65612 0.29734 -0.63600
O 	O 	0.88825 0.61685 0.35182 -0.33800
O 	O 	0.86497 0.59649 0.30057 -0.42300
O 	O 	0.92313 0.67317 0.23371 -0.35500
O 	O 	0.85610 0.67122 0.13715 -0.35600
C 	C 	0.86887 0.68535 0.10884 0.31400
C 	C 	0.88723 0.70839 0.29805 0.30100
O 	O 	0.88211 0.70627 0.24572 -0.35900
O 	O 	0.88737 0.68180 0.11710 -0.36600
O 	O 	0.91564 0.63797 0.29195 -0.34700
C 	C 	0.87790 0.59534 0.34005 0.31500
O 	O 	0.83108 0.67216 0.22162 -0.34700
O 	O 	0.82259 0.64463 0.29483 -0.38900
H 	H 	0.88675 0.63323 0.19280 0.17900
H 	H 	0.85692 0.67134 0.32078 0.19000
Cu	Cu	0.10127 0.34386 0.70136 0.93500
Cu	Cu	0.13868 0.35531 0.78514 0.89300
Cu	Cu	0.13265 0.38612 0.67793 0.90300
Cu	Cu	0.10087 0.38024 0.59384 0.90900
C 	C 	0.06588 0.35916 0.64866 0.30800
O 	O 	0.10522 0.31751 0.63762 -0.33500
C 	C 	0.17100 0.37385 0.72368 0.31300
O 	O 	0.10539 0.38354 0.67075 -0.63800
O 	O 	0.12954 0.34878 0.71050 -0.63000
O 	O 	0.09417 0.33276 0.77856 -0.32900
O 	O 	0.11472 0.36285 0.81774 -0.42100
O 	O 	0.07528 0.36233 0.60149 -0.35500
O 	O 	0.13353 0.42254 0.64758 -0.36300
C 	C 	0.12559 0.43016 0.60025 0.31700
C 	C 	0.11708 0.32293 0.59670 0.30700
O 	O 	0.12212 0.34813 0.58681 -0.37200
O 	O 	0.11521 0.41334 0.56965 -0.36000
O 	O 	0.07397 0.34659 0.69116 -0.34000
C 	C 	0.10235 0.34301 0.82299 0.31700
O 	O 	0.15943 0.39213 0.70145 -0.37600
O 	O 	0.16441 0.35515 0.75778 -0.37900
H 	H 	0.09823 0.39845 0.68904 0.18800
H 	H 	0.13746 0.33514 0.69090 0.20300
Cu	Cu	0.88390 0.37082 0.59807 0.93300
Cu	Cu	0.84083 0.39782 0.60720 0.89500
Cu	Cu	0.85382 0.35337 0.68308 0.90200
Cu	Cu	0.89416 0.33273 0.69876 0.90600
C 	C 	0.92286 0.36496 0.63582 0.31100
O 	O 	0.88825 0.33333 0.56591 -0.34200
C 	C 	0.81320 0.36268 0.65837 0.30500
O 	O 	0.88035 0.36512 0.68409 -0.63500
O 	O 	0.85588 0.36455 0.60356 -0.63500
O 	O 	0.88301 0.40525 0.55475 -0.34400
O 	O 	0.86087 0.42382 0.61266 -0.40500
O 	O 	0.91789 0.34110 0.65591 -0.36200
O 	O 	0.85261 0.34348 0.76108 -0.36000
C 	C 	0.86475 0.32675 0.78554 0.31300
C 	C 	0.88047 0.31139 0.58768 0.30100
O 	O 	0.87604 0.31088 0.64071 -0.37000
O 	O 	0.88325 0.32730 0.77381 -0.35900
O 	O 	0.91065 0.37960 0.60649 -0.34000
C 	C 	0.87325 0.42642 0.57200 0.31500
O 	O 	0.82614 0.34626 0.68044 -0.35600
O 	O 	0.81737 0.37764 0.61460 -0.37300
H 	H 	0.88309 0.38050 0.70939 0.18000
H 	H 	0.85062 0.35089 0.57749 0.19400
C 	C 	0.04489 0.36307 0.64875 -0.08700
C 	C 	0.03680 0.38807 0.63226 0.14600
C 	C 	0.01682 0.39090 0.62903 -0.07600
C 	C 	0.00477 0.36916 0.64306 0.02600
C 	C 	0.01281 0.34439 0.66085 0.08800
C 	C 	0.03279 0.34145 0.66360 -0.00500
H 	H 	0.01066 0.41008 0.61593 0.09400
C 	C 	0.98374 0.37228 0.63811 0.02600
H 	H 	0.03891 0.32221 0.67646 0.08200
C 	C 	0.97447 0.36386 0.58939 -0.07800
C 	C 	0.95440 0.36322 0.58669 0.15300
C 	C 	0.94342 0.37146 0.63285 -0.08800
C 	C 	0.95270 0.38159 0.68017 -0.01000
C 	C 	0.97278 0.38201 0.68305 0.08800
H 	H 	0.98288 0.35679 0.55437 0.09300
H 	H 	0.94431 0.38807 0.71569 0.06400
Br	Br	0.99673 0.31434 0.68147 -0.17600
Br	Br	0.05274 0.41894 0.61642 -0.21700
Br	Br	0.94223 0.34944 0.52090 -0.18300
Br	Br	0.98500 0.39480 0.74954 -0.17900
C 	C 	0.87446 0.45214 0.54112 -0.10000
C 	C 	0.85864 0.46169 0.51020 0.15300
C 	C 	0.86039 0.48535 0.47845 -0.08100
C 	C 	0.87787 0.49945 0.47652 0.02700
C 	C 	0.89366 0.49000 0.50753 0.08600
C 	C 	0.89191 0.46636 0.53947 -0.00100
H 	H 	0.84822 0.49259 0.45463 0.09000
C 	C 	0.87940 0.52426 0.44237 0.02700
H 	H 	0.90416 0.45897 0.56280 0.07300
C 	C 	0.87437 0.54940 0.46548 -0.08100
C 	C 	0.87400 0.57280 0.43253 0.14800
C 	C 	0.87897 0.57119 0.37587 -0.10200
C 	C 	0.88424 0.54609 0.35293 -0.00500
C 	C 	0.88447 0.52265 0.38587 0.08500
H 	H 	0.87030 0.55065 0.50883 0.09100
H 	H 	0.88804 0.54474 0.30939 0.07000
Br	Br	0.91776 0.50895 0.50623 -0.17300
Br	Br	0.83483 0.44197 0.50834 -0.27100
Br	Br	0.86546 0.60637 0.46489 -0.22500
Br	Br	0.89158 0.48859 0.35292 -0.17800
C 	C 	0.13083 0.45658 0.57649 -0.08900
C 	C 	0.11672 0.47667 0.56857 0.14800
C 	C 	0.12044 0.49872 0.53362 -0.07800
C 	C 	0.13822 0.50100 0.50668 0.02500
C 	C 	0.15294 0.48228 0.51864 0.08900
C 	C 	0.14917 0.46011 0.55340 -0.00600
H 	H 	0.10929 0.51361 0.52591 0.09000
C 	C 	0.14069 0.52169 0.46298 0.02800
H 	H 	0.16022 0.44497 0.56034 0.07300
C 	C 	0.14481 0.54857 0.47804 -0.07900
C 	C 	0.14287 0.56954 0.43923 0.14600
C 	C 	0.13686 0.56361 0.38479 -0.09200
C 	C 	0.13446 0.53650 0.36844 -0.00400
C 	C 	0.13620 0.51554 0.40734 0.08600
H 	H 	0.14864 0.55332 0.52054 0.09200
H 	H 	0.13012 0.53183 0.32631 0.07000
Br	Br	0.17799 0.48615 0.48632 -0.17500
Br	Br	0.09227 0.47421 0.60498 -0.19600
Br	Br	0.14764 0.60632 0.46188 -0.20800
Br	Br	0.13122 0.47883 0.38457 -0.18000
C 	C 	0.04933 0.65112 0.26644 -0.08900
C 	C 	0.03702 0.67382 0.26664 0.15400
C 	C 	0.01713 0.67004 0.26401 -0.07800
C 	C 	0.00937 0.64376 0.26204 0.02600
C 	C 	0.02168 0.62109 0.26132 0.08800
C 	C 	0.04158 0.62487 0.26360 -0.01100
H 	H 	0.00767 0.68752 0.26450 0.09400
C 	C 	0.98835 0.64023 0.26160 0.02800
H 	H 	0.05103 0.60736 0.26371 0.05700
C 	C 	0.97861 0.63878 0.21078 -0.07800
C 	C 	0.95853 0.63953 0.20931 0.14900
C 	C 	0.94806 0.64218 0.25905 -0.08900
C 	C 	0.95777 0.64150 0.31007 -0.00300
C 	C 	0.97785 0.64060 0.31154 0.08700
H 	H 	0.98666 0.63772 0.17233 0.09300
H 	H 	0.94978 0.64304 0.34854 0.08200
Br	Br	0.01155 0.58484 0.25833 -0.18100
Br	Br	0.04703 0.71005 0.27296 -0.16600
Br	Br	0.94563 0.63679 0.13908 -0.22400
Br	Br	0.99072 0.64073 0.38202 -0.17000
C 	C 	0.88040 0.28604 0.55539 -0.09000
C 	C 	0.86357 0.27036 0.54992 0.14600
C 	C 	0.86336 0.24802 0.51392 -0.08000
C 	C 	0.87966 0.24158 0.48224 0.02600
C 	C 	0.89665 0.25673 0.48917 0.09000
C 	C 	0.89702 0.27855 0.52620 -0.00900
H 	H 	0.85025 0.23644 0.50858 0.09000
C 	C 	0.87795 0.22199 0.43617 0.02600
H 	H 	0.91009 0.29030 0.53094 0.08500
C 	C 	0.86929 0.23029 0.38650 -0.08100
C 	C 	0.86949 0.21333 0.34003 0.14800
C 	C 	0.87897 0.18804 0.34258 -0.10900
C 	C 	0.88668 0.17906 0.39314 -0.00200
C 	C 	0.88601 0.19580 0.44012 0.08700
H 	H 	0.86257 0.25011 0.38384 0.09000
H 	H 	0.89340 0.15924 0.39579 0.07200
Br	Br	0.91916 0.24901 0.44582 -0.16700
Br	Br	0.84029 0.28032 0.58767 -0.21900
Br	Br	0.85584 0.22447 0.27452 -0.22600
Br	Br	0.89616 0.18266 0.50916 -0.17400
C 	C 	0.85843 0.20211 0.02281 -0.09000
C 	C 	0.84674 0.22437 0.03739 0.15000
C 	C 	0.84404 0.24566 0.99969 -0.07800
C 	C 	0.85304 0.24507 0.94766 0.02800
C 	C 	0.86403 0.22226 0.93220 0.08900
C 	C 	0.86644 0.20077 0.96950 -0.00400
H 	H 	0.83539 0.26304 0.01146 0.09300
C 	C 	0.85267 0.26950 0.91221 0.02600
H 	H 	0.87538 0.18363 0.95803 0.06800
C 	C 	0.86554 0.29075 0.92300 -0.08000
C 	C 	0.86815 0.31149 0.88409 0.15300
C 	C 	0.85817 0.31062 0.83324 -0.08900
C 	C 	0.84376 0.29106 0.82531 -0.00900
C 	C 	0.84089 0.27059 0.86477 0.09100
H 	H 	0.87397 0.29067 0.96083 0.09300
H 	H 	0.83550 0.29090 0.78716 0.07600
Br	Br	0.87683 0.22081 0.86161 -0.17800
Br	Br	0.83430 0.22604 0.10836 -0.21100
Br	Br	0.88487 0.34129 0.90186 -0.19100
Br	Br	0.82138 0.24373 0.85226 -0.17000
C 	C 	0.12811 0.19822 0.35553 -0.08800
C 	C 	0.12016 0.19306 0.40832 0.15200
C 	C 	0.12153 0.21272 0.45003 -0.08000
C 	C 	0.13138 0.23708 0.44013 0.02500
C 	C 	0.14183 0.24026 0.39049 0.09200
C 	C 	0.14000 0.22094 0.34815 -0.01000
H 	H 	0.11436 0.20950 0.48941 0.09100
C 	C 	0.12877 0.26014 0.47863 0.02700
H 	H 	0.14690 0.22443 0.30844 0.07700
C 	C 	0.13812 0.26000 0.53020 -0.07800
C 	C 	0.13449 0.28050 0.56913 0.15000
C 	C 	0.12169 0.30171 0.55596 -0.09100
C 	C 	0.11261 0.30211 0.50406 -0.00600
C 	C 	0.11579 0.28123 0.46582 0.08800
H 	H 	0.14796 0.24368 0.54044 0.09300
H 	H 	0.10263 0.31828 0.49401 0.06500
Br	Br	0.15799 0.27136 0.37909 -0.17200
Br	Br	0.10798 0.15898 0.42467 -0.19200
Br	Br	0.14698 0.27901 0.64007 -0.19600
Br	Br	0.10156 0.28114 0.39749 -0.18100
C 	C 	0.09524 0.23385 0.09428 -0.08800
C 	C 	0.11201 0.24987 0.09145 0.14600
C 	C 	0.11275 0.27205 0.05507 -0.07900
C 	C 	0.09709 0.27802 0.02050 0.02700
C 	C 	0.07992 0.26319 0.02623 0.08900
C 	C 	0.07903 0.24137 0.06324 -0.00700
H 	H 	0.12594 0.28361 0.05120 0.09100
C 	C 	0.09998 0.29587 0.97197 0.02600
H 	H 	0.06606 0.22927 0.06550 0.08400
C 	C 	0.10885 0.28530 0.92445 -0.08100
C 	C 	0.11017 0.30086 0.87612 0.14500
C 	C 	0.10216 0.32715 0.87466 -0.11100
C 	C 	0.09403 0.33822 0.92290 -0.00200
C 	C 	0.09305 0.32277 0.97170 0.08600
H 	H 	0.11457 0.26482 0.92494 0.09100
H 	H 	0.08832 0.35870 0.92238 0.07100
Br	Br	0.05796 0.27114 0.98077 -0.16900
Br	Br	0.13461 0.24048 0.13299 -0.21700
Br	Br	0.12368 0.28625 0.81325 -0.24100
Br	Br	0.08224 0.33866 0.03741 -0.17300
C 	C 	0.04034 0.15165 0.13428 -0.08800
C 	C 	0.02948 0.17539 0.14384 0.15000
C 	C 	0.00959 0.17497 0.13668 -0.07900
C 	C 	0.00036 0.15127 0.11874 0.02600
C 	C 	0.01135 0.12830 0.10426 0.09000
C 	C 	0.03126 0.12847 0.11263 -0.00400
H 	H 	0.00122 0.19297 0.14600 0.09300
C 	C 	0.97918 0.15046 0.11734 0.02800
H 	H 	0.03955 0.11032 0.10401 0.08200
C 	C 	0.96938 0.16431 0.07512 -0.08100
C 	C 	0.94938 0.16683 0.07681 0.15100
C 	C 	0.93890 0.15428 0.11995 -0.09100
C 	C 	0.94872 0.14041 0.16212 -0.00900
C 	C 	0.96877 0.13874 0.16141 0.08800
H 	H 	0.97740 0.17402 0.04203 0.09300
H 	H 	0.94076 0.13098 0.19563 0.06800
Br	Br	0.99938 0.09652 0.07365 -0.17300
Br	Br	0.04160 0.20874 0.16603 -0.22400
Br	Br	0.93695 0.18972 0.02305 -0.18400
Br	Br	0.98173 0.12117 0.22197 -0.17800
C 	C 	0.88893 0.83774 0.52797 -0.09600
C 	C 	0.87210 0.83639 0.49499 0.15100
C 	C 	0.87177 0.81975 0.44791 -0.07700
C 	C 	0.88768 0.80363 0.43452 0.02600
C 	C 	0.90502 0.80721 0.46360 0.08600
C 	C 	0.90566 0.82459 0.50949 -0.00200
H 	H 	0.85861 0.81779 0.42416 0.09500
C 	C 	0.88517 0.78029 0.39672 0.02600
H 	H 	0.91885 0.82639 0.53312 0.08000
C 	C 	0.89199 0.78183 0.34205 -0.07600
C 	C 	0.89192 0.75875 0.30804 0.15400
C 	C 	0.88436 0.73404 0.32835 -0.08800
C 	C 	0.87631 0.73316 0.38167 -0.00600
C 	C 	0.87692 0.75596 0.41613 0.08800
H 	H 	0.89810 0.80065 0.32678 0.09400
H 	H 	0.87027 0.71434 0.39723 0.06600
Br	Br	0.92760 0.78700 0.44384 -0.17600
Br	Br	0.84900 0.85541 0.51484 -0.26300
Br	Br	0.90352 0.76102 0.23582 -0.20400
Br	Br	0.86736 0.75303 0.49070 -0.18500
C 	C 	0.86267 0.70074 0.05989 -0.09100
C 	C 	0.85562 0.72736 0.06609 0.14500
C 	C 	0.85532 0.74494 0.02046 -0.07700
C 	C 	0.86188 0.73606 0.96848 0.02800
C 	C 	0.86679 0.70855 0.96103 0.08500
C 	C 	0.86727 0.69105 0.00678 -0.00500
H 	H 	0.85104 0.76592 0.02609 0.09300
C 	C 	0.86689 0.75636 0.92577 0.02600
H 	H 	0.87216 0.67030 0.00153 0.07400
C 	C 	0.88609 0.76454 0.92011 -0.07700
C 	C 	0.89105 0.78520 0.88301 0.14800
C 	C 	0.87669 0.79800 0.85124 -0.08800
C 	C 	0.85751 0.78961 0.85629 -0.01000
C 	C 	0.85257 0.76876 0.89319 0.08700
H 	H 	0.89714 0.75509 0.94527 0.09300
H 	H 	0.84644 0.79935 0.83170 0.06200
Br	Br	0.87362 0.69489 0.88907 -0.17500
Br	Br	0.84777 0.74068 0.13751 -0.19400
Br	Br	0.91743 0.79640 0.87796 -0.18100
Br	Br	0.82627 0.75728 0.89810 -0.17800
C 	C 	0.86253 0.94215 0.87027 -0.08900
C 	C 	0.84603 0.95727 0.85539 0.15000
C 	C 	0.84038 0.97946 0.88796 -0.07500
C 	C 	0.85176 0.98799 0.93275 0.02500
C 	C 	0.86821 0.97298 0.94743 0.08600
C 	C 	0.87320 0.94987 0.91716 -0.00800
H 	H 	0.82773 0.99101 0.87654 0.09600
C 	C 	0.84742 0.01391 0.96099 0.02600
H 	H 	0.88570 0.93820 0.92945 0.07200
C 	C 	0.84091 0.01355 0.01612 -0.07700
C 	C 	0.84268 0.03674 0.04943 0.15400
C 	C 	0.84992 0.06102 0.02625 -0.09100
C 	C 	0.85369 0.06223 0.96911 -0.00600
C 	C 	0.85288 0.03874 0.93667 0.08600
H 	H 	0.83608 0.99464 0.03444 0.09400
H 	H 	0.85862 0.08108 0.95069 0.06500
Br	Br	0.88470 0.98457 0.00688 -0.18700
Br	Br	0.83211 0.94989 0.78812 -0.19900
Br	Br	0.83684 0.03392 0.12714 -0.19400
Br	Br	0.86093 0.04055 0.86050 -0.18500
C 	C 	0.13676 0.81157 0.57396 -0.09000
C 	C 	0.14876 0.78882 0.58150 0.14300
C 	C 	0.15011 0.76913 0.53973 -0.07800
C 	C 	0.13950 0.77190 0.49057 0.02800
C 	C 	0.12915 0.79601 0.48080 0.08600
C 	C 	0.12794 0.81580 0.52231 -0.00600
H 	H 	0.15848 0.75090 0.54686 0.09300
C 	C 	0.13635 0.74788 0.45507 0.02500
H 	H 	0.11918 0.83371 0.51563 0.07700
C 	C 	0.12158 0.72967 0.46853 -0.07700
C 	C 	0.11695 0.70835 0.43266 0.15400
C 	C 	0.12723 0.70501 0.38282 -0.08500
C 	C 	0.14248 0.72260 0.37024 -0.00700
C 	C 	0.14718 0.74389 0.40637 0.09300
H 	H 	0.11334 0.73256 0.50626 0.09100
H 	H 	0.15052 0.71994 0.33211 0.07400
Br	Br	0.11546 0.80139 0.41247 -0.16800
Br	Br	0.16216 0.78315 0.65022 -0.18900
Br	Br	0.09598 0.68469 0.45131 -0.20400
Br	Br	0.16821 0.76749 0.38825 -0.16500
C 	C 	0.11356 0.78829 0.85046 -0.09000
C 	C 	0.13073 0.77352 0.85753 0.14400
C 	C 	0.13115 0.75124 0.89369 -0.07800
C 	C 	0.11470 0.74394 0.92392 0.02600
C 	C 	0.09744 0.75831 0.91570 0.08900
C 	C 	0.09689 0.78008 0.87855 -0.00900
H 	H 	0.14448 0.74031 0.90013 0.09100
C 	C 	0.11635 0.72406 0.96954 0.02600
H 	H 	0.08359 0.79118 0.87274 0.07600
C 	C 	0.12424 0.73234 0.02030 -0.08100
C 	C 	0.12369 0.71511 0.06635 0.14900
C 	C 	0.11469 0.68954 0.06219 -0.11000
C 	C 	0.10787 0.68056 0.01057 -0.00200
C 	C 	0.10886 0.69760 0.96408 0.08700
H 	H 	0.13054 0.75239 0.02418 0.09200
H 	H 	0.10151 0.66054 0.00675 0.07000
Br	Br	0.07472 0.74950 0.95728 -0.17200
Br	Br	0.15411 0.78468 0.82180 -0.19500
Br	Br	0.13611 0.72637 0.13380 -0.23000
Br	Br	0.09985 0.68453 0.89368 -0.17900
C 	C 	0.11905 0.95395 0.86663 -0.10000
C 	C 	0.13489 0.96413 0.89665 0.15300
C 	C 	0.13287 0.98764 0.92877 -0.08100
C 	C 	0.11509 0.00090 0.93221 0.02700
C 	C 	0.09927 0.99082 0.90216 0.08600
C 	C 	0.10130 0.96740 0.86966 -0.00200
H 	H 	0.14506 0.99535 0.95190 0.09000
C 	C 	0.11321 0.02537 0.96734 0.02700
H 	H 	0.08904 0.95953 0.84706 0.07500
C 	C 	0.11676 0.05104 0.94431 -0.08000
C 	C 	0.11648 0.07428 0.97777 0.14700
C 	C 	0.11246 0.07194 0.03495 -0.10100
C 	C 	0.10875 0.04629 0.05789 -0.00500
C 	C 	0.10907 0.02304 0.02438 0.08500
H 	H 	0.12008 0.05287 0.90052 0.09100
H 	H 	0.10566 0.04439 0.10181 0.07000
Br	Br	0.07473 0.00852 0.90572 -0.17200
Br	Br	0.15908 0.94537 0.89716 -0.26900
Br	Br	0.12273 0.10879 0.94520 -0.22400
Br	Br	0.10391 0.98826 0.05723 -0.17900
C 	C 	0.05145 0.87676 0.75857 -0.09200
C 	C 	0.04284 0.87892 0.70586 0.14700
C 	C 	0.02281 0.87918 0.70108 -0.07900
C 	C 	0.01126 0.87758 0.74861 0.02800
C 	C 	0.01987 0.87786 0.80152 0.08700
C 	C 	0.03991 0.87757 0.80628 -0.00400
H 	H 	0.01623 0.87972 0.66033 0.09300
C 	C 	0.99045 0.87278 0.74259 0.02500
H 	H 	0.04647 0.87641 0.84701 0.07900
C 	C 	0.98349 0.84605 0.74157 -0.07800
C 	C 	0.96371 0.84104 0.73969 0.15300
C 	C 	0.95072 0.86296 0.73820 -0.08900
C 	C 	0.95772 0.88968 0.73711 -0.01200
C 	C 	0.97750 0.89468 0.73923 0.08800
H 	H 	0.99344 0.82915 0.74353 0.09200
H 	H 	0.94776 0.90659 0.73603 0.05900
Br	Br	0.00447 0.87755 0.86762 -0.17300
Br	Br	0.05825 0.88099 0.63990 -0.23100
Br	Br	0.95471 0.80417 0.74150 -0.16500
Br	Br	0.98655 0.93152 0.73910 -0.18000
C 	C 	0.69005 0.14258 0.21651 -0.08700
C 	C 	0.70199 0.16533 0.22460 0.15400
C 	C 	0.72192 0.16249 0.22042 -0.07700
C 	C 	0.73005 0.13722 0.20737 0.02700
C 	C 	0.71811 0.11445 0.19969 0.08700
C 	C 	0.69821 0.11718 0.20486 -0.00900
H 	H 	0.73111 0.17998 0.22695 0.09400
C 	C 	0.75108 0.13469 0.20292 0.02700
H 	H 	0.68904 0.09965 0.19860 0.06600
C 	C 	0.76154 0.12413 0.24767 -0.07700
C 	C 	0.78158 0.12277 0.24531 0.15100
C 	C 	0.79136 0.13295 0.19848 -0.08700
C 	C 	0.78084 0.14274 0.15299 -0.00500
C 	C 	0.76077 0.14350 0.15490 0.08700
H 	H 	0.75408 0.11684 0.28424 0.09600
H 	H 	0.78827 0.15029 0.11660 0.07800
Br	Br	0.72871 0.07967 0.18053 -0.18000
Br	Br	0.69141 0.20029 0.24235 -0.17700
Br	Br	0.79523 0.10565 0.30513 -0.21600
Br	Br	0.74682 0.15653 0.09150 -0.18100
C 	C 	0.28956 0.17240 0.23185 -0.08700
C 	C 	0.27927 0.19661 0.24143 0.15300
C 	C 	0.25969 0.19794 0.22825 -0.07700
C 	C 	0.25025 0.17524 0.20604 0.02600
C 	C 	0.26063 0.15124 0.19557 0.08900
C 	C 	0.28017 0.14989 0.20874 -0.01200
H 	H 	0.25173 0.21645 0.23634 0.09400
C 	C 	0.22934 0.17627 0.19622 0.02600
H 	H 	0.28806 0.13127 0.20117 0.05700
C 	C 	0.22236 0.18437 0.14417 -0.07900
C 	C 	0.20274 0.18234 0.13198 0.15200
C 	C 	0.18999 0.17173 0.17199 -0.08800
C 	C 	0.19683 0.16523 0.22509 -0.01200
C 	C 	0.21640 0.16744 0.23737 0.08900
H 	H 	0.23222 0.19184 0.11289 0.09200
H 	H 	0.18700 0.15769 0.25641 0.06600
Br	Br	0.24829 0.11996 0.16398 -0.19500
Br	Br	0.29145 0.22762 0.27464 -0.17900
Br	Br	0.19354 0.19545 0.06176 -0.18600
Br	Br	0.22531 0.15760 0.31007 -0.18300
C 	C 	0.54074 0.14122 0.27719 -0.08800
C 	C 	0.53124 0.13693 0.22615 0.15000
C 	C 	0.51116 0.13806 0.22386 -0.07900
C 	C 	0.50044 0.14240 0.27229 0.02500
C 	C 	0.50982 0.14358 0.32395 0.08900
C 	C 	0.52987 0.14346 0.32616 -0.00800
H 	H 	0.50391 0.13608 0.18425 0.09000
C 	C 	0.47979 0.14872 0.26802 0.02600
H 	H 	0.53699 0.14585 0.36585 0.07800
C 	C 	0.46645 0.12763 0.26128 -0.07900
C 	C 	0.44676 0.13334 0.25822 0.14900
C 	C 	0.44030 0.16041 0.26342 -0.08700
C 	C 	0.45375 0.18145 0.26981 -0.00700
C 	C 	0.47339 0.17579 0.27102 0.08900
H 	H 	0.47138 0.10681 0.25799 0.09100
H 	H 	0.44893 0.20230 0.27366 0.08300
Br	Br	0.49544 0.14609 0.39178 -0.17400
Br	Br	0.54524 0.12779 0.15999 -0.20700
Br	Br	0.42916 0.10416 0.24343 -0.21300
Br	Br	0.49130 0.20539 0.27584 -0.17100
C 	C 	0.69954 0.87640 0.71776 -0.09200
C 	C 	0.70951 0.86165 0.67680 0.15200
C 	C 	0.72960 0.86117 0.67720 -0.07900
C 	C 	0.73984 0.87518 0.71836 0.02700
C 	C 	0.72987 0.89011 0.75899 0.08700
C 	C 	0.70979 0.89054 0.75866 -0.00600
H 	H 	0.73727 0.84971 0.64582 0.09300
C 	C 	0.76100 0.87436 0.71827 0.02700
H 	H 	0.70215 0.90189 0.79026 0.06300
C 	C 	0.77126 0.89362 0.68741 -0.07700
C 	C 	0.79133 0.89291 0.68607 0.15100
C 	C 	0.80129 0.87265 0.71565 -0.08500
C 	C 	0.79103 0.85370 0.74745 -0.00400
C 	C 	0.77095 0.85437 0.74865 0.08900
H 	H 	0.76363 0.90919 0.66446 0.09300
H 	H 	0.79865 0.83808 0.77028 0.07500
Br	Br	0.74344 0.90992 0.81535 -0.18000
Br	Br	0.69594 0.84122 0.62131 -0.19200
Br	Br	0.80492 0.92016 0.64469 -0.20500
Br	Br	0.75733 0.82770 0.79147 -0.17300
C 	C 	0.63718 0.05823 0.35913 -0.09300
C 	C 	0.65226 0.06234 0.39719 0.14500
C 	C 	0.65741 0.04151 0.43387 -0.07900
C 	C 	0.64759 0.01664 0.43289 0.02700
C 	C 	0.63375 0.01177 0.39139 0.08600
C 	C 	0.62874 0.03248 0.35449 -0.00600
H 	H 	0.66834 0.04516 0.46504 0.09200
C 	C 	0.64932 0.99793 0.48044 0.02400
H 	H 	0.61748 0.02904 0.32424 0.07100
C 	C 	0.63794 0.00241 0.52756 -0.08000
C 	C 	0.63504 0.98155 0.56601 0.15300
C 	C 	0.64362 0.95602 0.55741 -0.08800
C 	C 	0.65684 0.95266 0.51403 -0.00900
C 	C 	0.65982 0.97361 0.47566 0.09100
H 	H 	0.63040 0.02152 0.53248 0.08900
H 	H 	0.66397 0.93329 0.50829 0.07100
Br	Br	0.62044 0.97764 0.38726 -0.18400
Br	Br	0.66502 0.09683 0.40228 -0.19200
Br	Br	0.61849 0.98780 0.62848 -0.19900
Br	Br	0.67741 0.96815 0.41536 -0.17400
C 	C 	0.30064 0.87364 0.68070 -0.08600
C 	C 	0.29199 0.84843 0.66849 0.15400
C 	C 	0.27256 0.84422 0.68106 -0.07700
C 	C 	0.26159 0.86509 0.70488 0.02600
C 	C 	0.27027 0.89021 0.71724 0.08800
C 	C 	0.28969 0.89437 0.70501 -0.01100
H 	H 	0.26589 0.82491 0.67125 0.09500
C 	C 	0.24087 0.86091 0.71493 0.02600
H 	H 	0.29629 0.91379 0.71437 0.05800
C 	C 	0.23461 0.85193 0.76715 -0.07700
C 	C 	0.21497 0.85118 0.77968 0.15300
C 	C 	0.20144 0.85968 0.73974 -0.08200
C 	C 	0.20767 0.86692 0.68641 -0.01100
C 	C 	0.22729 0.86765 0.67388 0.09000
H 	H 	0.24502 0.84608 0.79839 0.09300
H 	H 	0.19728 0.87290 0.65519 0.06700
Br	Br	0.25575 0.91920 0.75016 -0.19300
Br	Br	0.30612 0.82011 0.63187 -0.17300
Br	Br	0.20689 0.83758 0.85063 -0.17700
Br	Br	0.23530 0.87878 0.60110 -0.18200
C 	C 	0.38037 0.96577 0.53732 -0.10200
C 	C 	0.37360 0.96410 0.48225 0.14600
C 	C 	0.37318 0.98737 0.44893 -0.08000
C 	C 	0.37920 0.01248 0.47015 0.02600
C 	C 	0.38589 0.01421 0.52523 0.08500
C 	C 	0.38646 0.99088 0.55850 -0.00500
H 	H 	0.36782 0.98604 0.40678 0.09100
C 	C 	0.37724 0.03713 0.43560 0.02600
H 	H 	0.39161 0.99230 0.60086 0.06900
C 	C 	0.35992 0.05165 0.43627 -0.08100
C 	C 	0.35764 0.07481 0.40325 0.15200
C 	C 	0.37276 0.08347 0.36858 -0.09800
C 	C 	0.39010 0.06897 0.36795 -0.00300
C 	C 	0.39238 0.04579 0.40106 0.08800
H 	H 	0.34826 0.04504 0.46285 0.08900
H 	H 	0.40184 0.07571 0.34179 0.08300
Br	Br	0.39419 0.04827 0.55574 -0.17900
Br	Br	0.36369 0.93061 0.45287 -0.21500
Br	Br	0.33409 0.09500 0.40804 -0.27000
Br	Br	0.41626 0.02633 0.39882 -0.17100
C 	C 	0.45096 0.88567 0.63490 -0.08900
C 	C 	0.46172 0.87877 0.58741 0.15300
C 	C 	0.48180 0.87875 0.58980 -0.07800
C 	C 	0.49127 0.88523 0.63943 0.02500
C 	C 	0.48056 0.89393 0.68569 0.08800
C 	C 	0.46048 0.89412 0.68321 -0.01100
H 	H 	0.49004 0.87257 0.55377 0.09200
C 	C 	0.51216 0.88070 0.64398 0.02600
H 	H 	0.45225 0.89968 0.71968 0.06000
C 	C 	0.52489 0.90190 0.63163 -0.07700
C 	C 	0.54475 0.89771 0.63436 0.14700
C 	C 	0.55201 0.87192 0.64877 -0.09000
C 	C 	0.53926 0.85084 0.66207 -0.00400
C 	C 	0.51940 0.85510 0.65969 0.08800
H 	H 	0.51935 0.92169 0.62013 0.09300
H 	H 	0.54476 0.83100 0.67335 0.08200
Br	Br	0.49309 0.90441 0.75336 -0.18400
Br	Br	0.44925 0.86770 0.52000 -0.17700
Br	Br	0.56172 0.92774 0.62051 -0.22900
Br	Br	0.50238 0.82571 0.67776 -0.17800
C 	C 	0.69402 0.35509 0.74417 -0.08500
C 	C 	0.70010 0.35727 0.68848 0.14300
C 	C 	0.71967 0.35563 0.67557 -0.07700
C 	C 	0.73333 0.35205 0.71768 0.02600
C 	C 	0.72724 0.34890 0.77305 0.08800
C 	C 	0.70765 0.35037 0.78602 -0.00700
H 	H 	0.72432 0.35800 0.63291 0.09100
C 	C 	0.75399 0.35433 0.70419 0.02600
H 	H 	0.70307 0.34832 0.82881 0.08000
C 	C 	0.76290 0.37985 0.70635 -0.07800
C 	C 	0.78228 0.38269 0.69213 0.14700
C 	C 	0.79293 0.35982 0.67497 -0.08700
C 	C 	0.78407 0.33420 0.67342 -0.00600
C 	C 	0.76466 0.33138 0.68778 0.08800
H 	H 	0.75475 0.39752 0.71926 0.08900
H 	H 	0.79220 0.31652 0.66046 0.08200
Br	Br	0.74549 0.34302 0.83156 -0.17600
Br	Br	0.68207 0.36437 0.62986 -0.21000
Br	Br	0.79415 0.41778 0.69852 -0.23300
Br	Br	0.75298 0.29609 0.68481 -0.16900
C 	C 	0.62837 0.30384 0.58932 -0.08300
C 	C 	0.62661 0.30967 0.53237 0.15500
C 	C 	0.62727 0.28854 0.49355 -0.07600
C 	C 	0.62943 0.26155 0.51128 0.02500
C 	C 	0.63310 0.25611 0.56765 0.09100
C 	C 	0.63265 0.27729 0.60635 -0.01100
H 	H 	0.62501 0.29290 0.44994 0.09300
C 	C 	0.62489 0.23921 0.47262 0.02600
H 	H 	0.63450 0.27284 0.65010 0.07300
C 	C 	0.63972 0.22613 0.44361 -0.07500
C 	C 	0.63549 0.20545 0.40556 0.14600
C 	C 	0.61622 0.19809 0.39568 -0.08800
C 	C 	0.60147 0.21081 0.42559 -0.00800
C 	C 	0.60570 0.23117 0.46409 0.08800
H 	H 	0.65451 0.23209 0.45050 0.09600
H 	H 	0.58664 0.20499 0.41857 0.07600
Br	Br	0.63750 0.21965 0.59294 -0.17700
Br	Br	0.62275 0.34624 0.50709 -0.17900
Br	Br	0.65616 0.18797 0.36675 -0.19500
Br	Br	0.58508 0.24779 0.50475 -0.18200
C 	C 	0.60200 0.29205 0.85811 -0.09300
C 	C 	0.61834 0.27564 0.86657 0.14600
C 	C 	0.61749 0.25394 0.90407 -0.08000
C 	C 	0.60060 0.24876 0.93405 0.02600
C 	C 	0.58413 0.26465 0.92429 0.08800
C 	C 	0.58485 0.28597 0.88609 -0.00800
H 	H 	0.63020 0.24178 0.91162 0.09000
C 	C 	0.60106 0.22936 0.98066 0.02600
H 	H 	0.57217 0.29829 0.87911 0.07600
C 	C 	0.60857 0.23772 0.03182 -0.08200
C 	C 	0.60826 0.22024 0.07748 0.14700
C 	C 	0.59988 0.19428 0.07252 -0.10900
C 	C 	0.59282 0.18561 0.02094 -0.00200
C 	C 	0.59352 0.20295 0.97489 0.08700
H 	H 	0.61469 0.25786 0.03606 0.09000
H 	H 	0.58681 0.16541 0.01661 0.07400
Br	Br	0.56076 0.25830 0.96466 -0.17100
Br	Br	0.64230 0.28368 0.83057 -0.21900
Br	Br	0.62044 0.23162 0.14521 -0.23600
Br	Br	0.58427 0.19021 0.90449 -0.17600
C 	C 	0.19185 0.37812 0.72035 -0.09300
C 	C 	0.20394 0.35795 0.69808 0.14900
C 	C 	0.22387 0.36157 0.69891 -0.07700
C 	C 	0.23188 0.38516 0.72195 0.02600
C 	C 	0.21978 0.40551 0.74342 0.08600
C 	C 	0.19985 0.40196 0.74235 -0.00700
H 	H 	0.23315 0.34604 0.68167 0.09300
C 	C 	0.25291 0.38866 0.72218 0.02700
H 	H 	0.19059 0.41751 0.75962 0.06900
C 	C 	0.26177 0.40278 0.67865 -0.07700
C 	C 	0.28177 0.40510 0.67659 0.15000
C 	C 	0.29312 0.39275 0.71793 -0.08800
C 	C 	0.28422 0.37945 0.76255 -0.00600
C 	C 	0.26419 0.37735 0.76484 0.08700
H 	H 	0.25308 0.41192 0.64631 0.09400
H 	H 	0.29289 0.37011 0.79470 0.07200
Br	Br	0.23024 0.43804 0.77536 -0.18100
Br	Br	0.19348 0.32577 0.66470 -0.18900
Br	Br	0.29328 0.42605 0.61810 -0.20400
Br	Br	0.25249 0.35881 0.82625 -0.17800
C 	C 	0.38090 0.35134 0.53838 -0.09700
C 	C 	0.36424 0.35019 0.50454 0.15100
C 	C 	0.36392 0.33310 0.45815 -0.07700
C 	C 	0.37958 0.31625 0.44631 0.02600
C 	C 	0.39668 0.31905 0.47692 0.08600
C 	C 	0.39736 0.33686 0.52212 -0.00300
H 	H 	0.35094 0.33155 0.43349 0.09600
C 	C 	0.37708 0.29337 0.40735 0.02700
H 	H 	0.41039 0.33829 0.54657 0.08000
C 	C 	0.38436 0.29529 0.35324 -0.07600
C 	C 	0.38386 0.27275 0.31779 0.15400
C 	C 	0.37543 0.24823 0.33607 -0.08800
C 	C 	0.36702 0.24701 0.38890 -0.00600
C 	C 	0.36802 0.26926 0.42479 0.08800
H 	H 	0.39110 0.31396 0.33948 0.09500
H 	H 	0.36038 0.22832 0.40298 0.06600
Br	Br	0.41887 0.29744 0.45981 -0.17500
Br	Br	0.34128 0.37006 0.52224 -0.26400
Br	Br	0.39602 0.27539 0.24639 -0.20900
Br	Br	0.35780 0.26585 0.49854 -0.18500
C 	C 	0.36736 0.32231 0.86460 -0.09100
C 	C 	0.38138 0.31212 0.90118 0.15000
C 	C 	0.37668 0.29130 0.93820 -0.07700
C 	C 	0.35809 0.28033 0.93893 0.02600
C 	C 	0.34401 0.29059 0.90256 0.08700
C 	C 	0.34869 0.31159 0.86568 -0.00900
H 	H 	0.38751 0.28357 0.96642 0.09200
C 	C 	0.35355 0.25836 0.97854 0.02800
H 	H 	0.33786 0.31940 0.83757 0.06000
C 	C 	0.34597 0.26500 0.03075 -0.07700
C 	C 	0.34641 0.24602 0.07401 0.14500
C 	C 	0.35460 0.22023 0.06515 -0.09200
C 	C 	0.36030 0.21269 0.01146 -0.00500
C 	C 	0.35974 0.23161 0.96813 0.08500
H 	H 	0.34072 0.28537 0.03857 0.09400
H 	H 	0.36611 0.19259 0.00406 0.07200
Br	Br	0.31848 0.27587 0.90204 -0.17900
Br	Br	0.40699 0.32666 0.90173 -0.18600
Br	Br	0.33716 0.25638 0.14607 -0.19400
Br	Br	0.36830 0.22098 0.89557 -0.17700
C 	C 	0.54442 0.38361 0.75990 -0.09000
C 	C 	0.53514 0.38489 0.70801 0.14700
C 	C 	0.51510 0.38681 0.70545 -0.07800
C 	C 	0.50420 0.38778 0.75434 0.02800
C 	C 	0.51357 0.38875 0.80612 0.08700
C 	C 	0.53362 0.38677 0.80867 -0.00400
H 	H 	0.50796 0.38678 0.66547 0.09300
C 	C 	0.48309 0.38518 0.75122 0.02600
H 	H 	0.54070 0.38623 0.84872 0.07900
C 	C 	0.47466 0.35935 0.75461 -0.07700
C 	C 	0.45466 0.35651 0.75408 0.15300
C 	C 	0.44290 0.37968 0.74942 -0.08600
C 	C 	0.45134 0.40546 0.74476 -0.01200
C 	C 	0.47135 0.40831 0.74555 0.08900
H 	H 	0.48367 0.34150 0.75865 0.09300
H 	H 	0.44233 0.42335 0.74143 0.06300
Br	Br	0.49918 0.39182 0.87379 -0.17100
Br	Br	0.54962 0.38377 0.64022 -0.21900
Br	Br	0.44366 0.32093 0.76187 -0.16600
Br	Br	0.48239 0.44395 0.74011 -0.17700
C 	C 	0.69776 0.66702 0.18191 -0.08700
C 	C 	0.71059 0.67652 0.14101 0.15200
C 	C 	0.73031 0.67759 0.15236 -0.07800
C 	C 	0.73731 0.66961 0.20445 0.02500
C 	C 	0.72433 0.66207 0.24655 0.08900
C 	C 	0.70465 0.66081 0.23511 -0.01200
H 	H 	0.74022 0.68413 0.12035 0.09200
C 	C 	0.75822 0.66712 0.21322 0.02600
H 	H 	0.69478 0.65414 0.26711 0.06600
C 	C 	0.76869 0.68941 0.23324 -0.07800
C 	C 	0.78833 0.68686 0.24474 0.15400
C 	C 	0.79764 0.66181 0.23575 -0.08900
C 	C 	0.78721 0.63969 0.21494 -0.01200
C 	C 	0.76762 0.64225 0.20340 0.08800
H 	H 	0.76149 0.70858 0.24079 0.09400
H 	H 	0.79435 0.62042 0.20788 0.05600
Br	Br	0.73331 0.65261 0.31939 -0.18600
Br	Br	0.70143 0.68926 0.07047 -0.18300
Br	Br	0.80198 0.71742 0.27472 -0.18200
Br	Br	0.75385 0.61149 0.17475 -0.19700
C 	C 	0.60916 0.73639 0.08493 -0.08900
C 	C 	0.62628 0.75129 0.07812 0.14500
C 	C 	0.62658 0.77385 0.04270 -0.07900
C 	C 	0.61006 0.78124 0.01287 0.02600
C 	C 	0.59272 0.76722 0.02209 0.09000
C 	C 	0.59230 0.74520 0.05862 -0.00800
H 	H 	0.63992 0.78469 0.03593 0.09100
C 	C 	0.61187 0.80000 0.96541 0.02600
H 	H 	0.57900 0.73411 0.06462 0.08400
C 	C 	0.61960 0.79035 0.91548 -0.08100
C 	C 	0.61945 0.80661 0.86800 0.14800
C 	C 	0.61093 0.83258 0.86981 -0.11100
C 	C 	0.60415 0.84284 0.92048 -0.00300
C 	C 	0.60480 0.82678 0.96845 0.08700
H 	H 	0.62556 0.77003 0.91346 0.09200
H 	H 	0.59819 0.86316 0.92250 0.07100
Br	Br	0.56980 0.77654 0.98200 -0.16500
Br	Br	0.64975 0.73991 0.11305 -0.20600
Br	Br	0.63194 0.79355 0.80204 -0.22400
Br	Br	0.59603 0.84167 0.03758 -0.17600
C 	C 	0.62932 0.81014 0.55196 -0.08900
C 	C 	0.64062 0.78758 0.56717 0.15100
C 	C 	0.64351 0.76637 0.52933 -0.07800
C 	C 	0.63502 0.76730 0.47657 0.02700
C 	C 	0.62395 0.79005 0.46113 0.08800
C 	C 	0.62142 0.81148 0.49851 -0.00600
H 	H 	0.65205 0.74893 0.54131 0.09400
C 	C 	0.63639 0.74348 0.43950 0.02500
H 	H 	0.61268 0.82877 0.48669 0.06500
C 	C 	0.62414 0.72127 0.44809 -0.08000
C 	C 	0.62229 0.70118 0.40736 0.15200
C 	C 	0.63231 0.70378 0.35677 -0.09000
C 	C 	0.64620 0.72425 0.35108 -0.01000
C 	C 	0.64839 0.74398 0.39246 0.09100
H 	H 	0.61561 0.72006 0.48563 0.09100
H 	H 	0.65454 0.72572 0.31320 0.07600
Br	Br	0.61138 0.79162 0.39022 -0.18400
Br	Br	0.65230 0.78540 0.63917 -0.19400
Br	Br	0.60667 0.66988 0.42243 -0.19500
Br	Br	0.66727 0.77203 0.38313 -0.17100
C 	C 	0.61756 0.57256 0.04173 -0.10100
C 	C 	0.62373 0.57410 0.98607 0.14900
C 	C 	0.62271 0.55111 0.95202 -0.08000
C 	C 	0.61572 0.52646 0.97300 0.02700
C 	C 	0.60968 0.52485 0.02873 0.08500
C 	C 	0.61065 0.54787 0.06281 -0.00400
H 	H 	0.62757 0.55233 0.90935 0.09100
C 	C 	0.61574 0.50209 0.93718 0.02700
H 	H 	0.60594 0.54659 0.10561 0.06900
C 	C 	0.63191 0.48513 0.93644 -0.08200
C 	C 	0.63221 0.46189 0.90301 0.15300
C 	C 	0.61630 0.45569 0.86907 -0.10200
C 	C 	0.60016 0.47275 0.86957 -0.00100
C 	C 	0.59983 0.49593 0.90330 0.08500
H 	H 	0.64416 0.48982 0.96250 0.09000
H 	H 	0.58781 0.46792 0.84400 0.07400
Br	Br	0.60005 0.49143 0.05890 -0.18000
Br	Br	0.63445 0.60703 0.95656 -0.22400
Br	Br	0.65407 0.43815 0.90672 -0.28200
Br	Br	0.57746 0.51874 0.90314 -0.17200
C 	C 	0.19796 0.63800 0.23403 -0.09200
C 	C 	0.20815 0.66169 0.24823 0.15200
C 	C 	0.22822 0.66176 0.24626 -0.07800
C 	C 	0.23823 0.63835 0.23000 0.02600
C 	C 	0.22808 0.61425 0.21871 0.08700
C 	C 	0.20801 0.61415 0.22101 -0.00600
H 	H 	0.23604 0.68016 0.25623 0.09200
C 	C 	0.25923 0.63952 0.22325 0.02700
H 	H 	0.20020 0.59581 0.21055 0.06900
C 	C 	0.27113 0.63216 0.26766 -0.07800
C 	C 	0.29106 0.63483 0.26326 0.15000
C 	C 	0.29921 0.64549 0.21434 -0.08900
C 	C 	0.28735 0.65184 0.16910 -0.00400
C 	C 	0.26742 0.64890 0.17336 0.08800
H 	H 	0.26487 0.62443 0.30571 0.09400
H 	H 	0.29356 0.65974 0.13115 0.07900
Br	Br	0.24136 0.58159 0.19809 -0.17700
Br	Br	0.19486 0.69407 0.27077 -0.20200
Br	Br	0.30695 0.62291 0.32372 -0.22600
Br	Br	0.25157 0.65806 0.11086 -0.17900
C 	C 	0.37129 0.72223 0.03996 -0.09200
C 	C 	0.38115 0.72257 0.98890 0.15400
C 	C 	0.37813 0.74386 0.95151 -0.08000
C 	C 	0.36545 0.76503 0.96466 0.02600
C 	C 	0.35500 0.76416 0.01469 0.08900
C 	C 	0.35808 0.74289 0.05229 -0.00700
H 	H 	0.38606 0.74436 0.91281 0.09100
C 	C 	0.36409 0.78868 0.92718 0.02700
H 	H 	0.35039 0.74262 0.09142 0.06100
C 	C 	0.35248 0.78707 0.87973 -0.07900
C 	C 	0.35438 0.80622 0.83711 0.14300
C 	C 	0.36794 0.82735 0.84211 -0.09200
C 	C 	0.37824 0.83034 0.89180 -0.00700
C 	C 	0.37649 0.81103 0.93409 0.08600
H 	H 	0.34268 0.77014 0.87470 0.09200
H 	H 	0.38834 0.84694 0.89646 0.07300
Br	Br	0.33676 0.79205 0.03268 -0.18000
Br	Br	0.39953 0.69487 0.97068 -0.21800
Br	Br	0.33944 0.80190 0.77068 -0.19300
Br	Br	0.39197 0.81464 0.99964 -0.17800
C 	C 	0.39011 0.69594 0.36866 -0.10600
C 	C 	0.40663 0.71061 0.38438 0.15500
C 	C 	0.40574 0.72865 0.42922 -0.08200
C 	C 	0.38867 0.73156 0.45955 0.03000
C 	C 	0.37301 0.71439 0.44819 0.08000
C 	C 	0.37378 0.69667 0.40290 -0.00800
H 	H 	0.41811 0.74107 0.43934 0.09600
C 	C 	0.38633 0.75505 0.49694 0.02600
H 	H 	0.36125 0.68464 0.39248 0.04300
C 	C 	0.37725 0.77855 0.47716 -0.07500
C 	C 	0.37591 0.80168 0.51056 0.15200
C 	C 	0.38407 0.80160 0.56411 -0.08600
C 	C 	0.39237 0.77765 0.58483 -0.00500
C 	C 	0.39356 0.75442 0.55147 0.08900
H 	H 	0.37130 0.77886 0.43559 0.09000
H 	H 	0.39849 0.77735 0.62619 0.06800
Br	Br	0.35019 0.71566 0.49285 -0.18000
Br	Br	0.43061 0.70573 0.34621 -0.17800
Br	Br	0.36231 0.83281 0.48293 -0.20300
Br	Br	0.40518 0.72212 0.58086 -0.17500
C 	C 	0.35787 0.57484 0.05829 -0.08800
C 	C 	0.34163 0.57497 0.02345 0.14700
C 	C 	0.33804 0.55276 0.98861 -0.07800
C 	C 	0.35052 0.53039 0.98844 0.02700
C 	C 	0.36590 0.52944 0.02639 0.08800
C 	C 	0.36942 0.55156 0.06127 -0.00500
H 	H 	0.32601 0.55338 0.96009 0.09300
C 	C 	0.34908 0.51000 0.94379 0.02500
H 	H 	0.38171 0.55116 0.08890 0.07700
C 	C 	0.35863 0.51469 0.89345 -0.08000
C 	C 	0.36135 0.49347 0.85568 0.15400
C 	C 	0.35440 0.46733 0.86818 -0.08900
C 	C 	0.34327 0.46329 0.91599 -0.00800
C 	C 	0.34051 0.48456 0.95373 0.09000
H 	H 	0.36478 0.53449 0.88495 0.09100
H 	H 	0.33749 0.44333 0.92505 0.06900
Br	Br	0.38292 0.49875 0.02881 -0.17900
Br	Br	0.32481 0.60585 0.02073 -0.19800
Br	Br	0.37509 0.50035 0.78802 -0.20100
Br	Br	0.32574 0.47822 0.01975 -0.17400
C 	C 	0.54730 0.64709 0.14986 -0.08800
C 	C 	0.53674 0.65549 0.10302 0.15300
C 	C 	0.51667 0.65545 0.10472 -0.07800
C 	C 	0.50701 0.64756 0.15315 0.02600
C 	C 	0.51751 0.63742 0.19855 0.08800
C 	C 	0.53759 0.63717 0.19665 -0.01000
H 	H 	0.50858 0.66276 0.06929 0.09400
C 	C 	0.48613 0.65206 0.15750 0.02700
H 	H 	0.54567 0.63048 0.23261 0.06400
C 	C 	0.47343 0.63119 0.14272 -0.07700
C 	C 	0.45360 0.63575 0.14285 0.14900
C 	C 	0.44636 0.66162 0.15671 -0.08600
C 	C 	0.45904 0.68219 0.17349 -0.00200
C 	C 	0.47885 0.67752 0.17398 0.08900
H 	H 	0.47898 0.61144 0.13101 0.09500
H 	H 	0.45353 0.70201 0.18492 0.08600
Br	Br	0.50469 0.62510 0.26446 -0.17700
Br	Br	0.54948 0.66903 0.03791 -0.18000
Br	Br	0.43661 0.60607 0.12623 -0.23500
Br	Br	0.49580 0.70621 0.19675 -0.17300
