data_crystal

_cell_length_a 37.72175
_cell_length_b 37.68322
_cell_length_c 19.66167
_cell_angle_alpha 91.56414
_cell_angle_beta  90.51833
_cell_angle_gamma 90.05498

_symmetry_space_group_name_	'P 1'
_symmetry_space_group_name_H-M	'P 1'

loop_
_symmetry_equiv_pos_as_xyz
  x,y,z

loop_
_atom_site_label
_atom_site_type_symbol
_atom_site_fract_x
_atom_site_fract_y
_atom_site_fract_z
_atom_site_charge
Cd	Cd	0.06633 0.90284 0.29060 1.25000
Cd	Cd	0.04584 0.97694 0.40115 1.23400
O 	O 	0.09032 0.85111 0.34932 -0.29400
O 	O 	0.07663 0.84810 0.24060 -0.32400
C 	C 	0.08834 0.83178 0.29384 0.28100
O 	O 	0.03630 0.94131 0.22371 -0.31400
O 	O 	0.04956 0.99016 0.29151 -0.35400
C 	C 	0.03061 0.97502 0.24232 0.40400
C 	C 	0.00206 0.90198 0.36540 0.40200
O 	O 	0.09850 0.94696 0.37661 -0.42200
O 	O 	0.00379 0.87608 0.32044 -0.27000
O 	O 	0.03153 0.91946 0.37500 -0.49800
C 	C 	0.12090 0.95373 0.32822 0.38700
O 	O 	0.11814 0.93373 0.27330 -0.30300
Cd	Cd	0.01193 0.85566 0.06766 1.24700
Cd	Cd	0.04193 0.89217 0.91406 1.20300
O 	O 	0.04011 0.79986 0.09994 -0.29200
O 	O 	0.99970 0.82515 0.16393 -0.31900
C 	C 	0.01974 0.79747 0.15242 0.27700
O 	O 	0.98703 0.91003 0.06842 -0.33300
O 	O 	0.99132 0.91670 0.95325 -0.42300
C 	C 	0.98770 0.93066 0.01502 0.38300
C 	C 	0.07852 0.89023 0.06539 0.43100
O 	O 	0.01616 0.83771 0.93720 -0.40700
O 	O 	0.06843 0.88705 0.12827 -0.29400
O 	O 	0.05869 0.87504 0.01944 -0.53900
C 	C 	0.98258 0.82979 0.93891 0.36200
O 	O 	0.96758 0.83303 0.99831 -0.34300
C 	C 	0.99344 0.66796 0.06560 0.13400
N 	N 	0.97133 0.63952 0.06809 -0.14500
C 	C 	0.96607 0.61846 0.01162 0.13200
N 	N 	0.98337 0.62557 0.95329 -0.13600
C 	C 	0.00578 0.65364 0.95099 0.13000
N 	N 	0.01102 0.67466 0.00727 -0.13800
C 	C 	0.09903 0.68913 0.37706 0.12600
N 	N 	0.09940 0.68799 0.44604 -0.13600
C 	C 	0.09823 0.65633 0.47729 0.13100
N 	N 	0.09702 0.62578 0.43908 -0.14300
C 	C 	0.09488 0.62682 0.37013 0.12900
N 	N 	0.09570 0.65862 0.33931 -0.14500
Cd	Cd	0.85305 0.87680 0.69820 1.24800
Cd	Cd	0.89520 0.88421 0.86158 1.21500
O 	O 	0.79136 0.85672 0.70198 -0.30300
O 	O 	0.81395 0.87672 0.60833 -0.33600
C 	C 	0.78558 0.86692 0.64047 0.28300
O 	O 	0.90490 0.90500 0.67806 -0.32300
O 	O 	0.93334 0.88538 0.77388 -0.37300
C 	C 	0.93172 0.90702 0.72230 0.41200
C 	C 	0.83682 0.93582 0.78590 0.42800
O 	O 	0.86940 0.83718 0.80022 -0.43700
O 	O 	0.82606 0.94091 0.72389 -0.28100
O 	O 	0.84976 0.90465 0.79696 -0.51800
C 	C 	0.88546 0.81539 0.75826 0.38800
O 	O 	0.88147 0.82200 0.69374 -0.31900
Cd	Cd	0.80790 0.00530 0.43068 1.24600
Cd	Cd	0.87061 0.00089 0.29454 1.26100
O 	O 	0.76484 0.95655 0.42735 -0.30100
O 	O 	0.76461 0.99703 0.50971 -0.33800
C 	C 	0.74968 0.96883 0.48201 0.27500
O 	O 	0.84840 0.04709 0.46058 -0.33600
O 	O 	0.86816 0.05293 0.35203 -0.42400
C 	C 	0.87412 0.05491 0.41808 0.36600
C 	C 	0.86679 0.95903 0.43862 0.41500
O 	O 	0.80949 0.00473 0.29724 -0.39600
O 	O 	0.85089 0.96103 0.49747 -0.26500
O 	O 	0.85023 0.97317 0.38831 -0.49600
C 	C 	0.79073 0.03372 0.29908 0.37600
O 	O 	0.77912 0.04356 0.35905 -0.32400
C 	C 	0.65281 0.91592 0.70842 0.12800
N 	N 	0.64968 0.90327 0.77227 -0.13500
C 	C 	0.62408 0.91615 0.81433 0.13200
N 	N 	0.60177 0.94170 0.79258 -0.14100
C 	C 	0.60513 0.95476 0.72940 0.13300
N 	N 	0.63086 0.94212 0.68746 -0.14100
C 	C 	0.60924 0.94577 0.42242 0.12900
N 	N 	0.61392 0.93788 0.35526 -0.13700
C 	C 	0.58550 0.93425 0.31288 0.13100
N 	N 	0.55234 0.93973 0.33721 -0.14300
C 	C 	0.54751 0.94755 0.40438 0.13000
N 	N 	0.57595 0.94967 0.44724 -0.14500
Cd	Cd	0.92220 0.16978 0.14538 1.24500
Cd	Cd	0.90211 0.13106 0.30275 1.21600
O 	O 	0.90444 0.23182 0.13718 -0.29900
O 	O 	0.93707 0.20611 0.05811 -0.34100
C 	C 	0.92140 0.23487 0.08069 0.29100
O 	O 	0.94960 0.11676 0.13995 -0.33400
O 	O 	0.91407 0.09102 0.21897 -0.38300
C 	C 	0.94283 0.09039 0.18126 0.38000
C 	C 	0.96564 0.18698 0.26137 0.36100
O 	O 	0.86679 0.15686 0.22019 -0.42600
O 	O 	0.98111 0.19416 0.20428 -0.26500
O 	O 	0.93310 0.17600 0.25497 -0.49800
C 	C 	0.85234 0.14114 0.16698 0.39900
O 	O 	0.86960 0.14350 0.11012 -0.32900
Cd	Cd	0.90368 0.13496 0.91950 1.24600
Cd	Cd	0.93819 0.06850 0.80488 1.25000
O 	O 	0.86195 0.17700 0.86833 -0.29300
O 	O 	0.87579 0.18073 0.97657 -0.34100
C 	C 	0.86004 0.19535 0.92501 0.28600
O 	O 	0.93265 0.09726 0.98828 -0.32900
O 	O 	0.96873 0.07637 0.90298 -0.37200
C 	C 	0.95444 0.07268 0.96330 0.41200
C 	C 	0.86181 0.07420 0.88615 0.41000
O 	O 	0.93977 0.12961 0.80618 -0.40100
O 	O 	0.84767 0.09262 0.93638 -0.22400
O 	O 	0.88761 0.08960 0.85525 -0.49900
C 	C 	0.96430 0.14927 0.83520 0.39200
O 	O 	0.95635 0.16267 0.89490 -0.33000
C 	C 	0.84287 0.33814 0.84278 0.12500
N 	N 	0.84788 0.33971 0.77450 -0.13700
C 	C 	0.85652 0.37098 0.74610 0.13100
N 	N 	0.85807 0.40107 0.78546 -0.14300
C 	C 	0.85028 0.40022 0.85274 0.12900
N 	N 	0.84319 0.36859 0.88150 -0.14400
C 	C 	0.94209 0.37073 0.15001 0.12700
N 	N 	0.96242 0.39916 0.13487 -0.14400
C 	C 	0.96743 0.42580 0.18186 0.13000
N 	N 	0.95117 0.42453 0.24305 -0.14400
C 	C 	0.93107 0.39603 0.25869 0.13200
N 	N 	0.92728 0.36874 0.21260 -0.13300
Cd	Cd	0.13460 0.02015 0.77383 1.24400
Cd	Cd	0.07135 0.02567 0.90614 1.24700
O 	O 	0.19279 0.04390 0.80634 -0.29800
O 	O 	0.18398 0.01819 0.70592 -0.34400
C 	C 	0.20602 0.03400 0.74835 0.28200
O 	O 	0.08731 0.98831 0.73363 -0.34400
O 	O 	0.04709 0.01771 0.80190 -0.39200
C 	C 	0.05461 0.99191 0.75768 0.36900
C 	C 	0.13933 0.97213 0.88226 0.38600
O 	O 	0.10370 0.06872 0.85168 -0.39200
O 	O 	0.15871 0.96118 0.83115 -0.25500
O 	O 	0.12466 0.00286 0.87562 -0.50900
C 	C 	0.09492 0.08480 0.79614 0.39300
O 	O 	0.10791 0.07160 0.73983 -0.33700
Cd	Cd	0.08901 0.13388 0.51196 1.25100
Cd	Cd	0.05742 0.14053 0.34423 1.20000
O 	O 	0.14513 0.16448 0.53736 -0.29700
O 	O 	0.11751 0.13499 0.61493 -0.31100
C 	C 	0.14705 0.14968 0.59605 0.28000
O 	O 	0.03435 0.10939 0.51497 -0.30500
O 	O 	0.03353 0.09544 0.40072 -0.39900
C 	C 	0.01714 0.09770 0.45967 0.36000
C 	C 	0.05406 0.19667 0.47318 0.40700
O 	O 	0.11038 0.11786 0.38620 -0.41400
O 	O 	0.05700 0.19589 0.53947 -0.25000
O 	O 	0.07195 0.17265 0.44013 -0.54100
C 	C 	0.11599 0.08588 0.40790 0.38100
O 	O 	0.11094 0.08124 0.47241 -0.35600
C 	C 	0.33671 0.08355 0.81394 0.12700
N 	N 	0.32987 0.09466 0.87888 -0.13600
C 	C 	0.35701 0.10245 0.92277 0.12700
N 	N 	0.39105 0.09856 0.90166 -0.14300
C 	C 	0.39785 0.08582 0.83771 0.12900
N 	N 	0.37066 0.07873 0.79379 -0.14300
C 	C 	0.28035 0.10741 0.52690 0.12900
N 	N 	0.28131 0.11937 0.46221 -0.13500
C 	C 	0.30670 0.10743 0.41864 0.13300
N 	N 	0.33160 0.08434 0.44034 -0.14300
C 	C 	0.33085 0.07246 0.50482 0.13100
N 	N 	0.30484 0.08349 0.54773 -0.14100
C 	C 	0.34960 0.10996 0.99565 -0.04200
C 	C 	0.32479 0.13628 0.01626 0.10400
C 	C 	0.31456 0.13895 0.08486 -0.08100
C 	C 	0.33021 0.11734 0.13374 -0.00300
C 	C 	0.35631 0.09222 0.11369 0.07600
C 	C 	0.36561 0.08872 0.04478 -0.05200
N 	N 	0.31167 0.15979 0.97117 -0.19600
H 	H 	0.29498 0.15851 0.10051 0.06500
C 	C 	0.31893 0.12107 0.20584 0.00000
N 	N 	0.37233 0.07123 0.16009 -0.19300
H 	H 	0.38481 0.06878 0.02914 0.05100
C 	C 	0.29140 0.09956 0.22882 -0.08500
C 	C 	0.28445 0.09732 0.29873 0.11500
C 	C 	0.30562 0.11696 0.34634 -0.04900
C 	C 	0.33088 0.14095 0.32286 -0.04900
C 	C 	0.33770 0.14332 0.25292 0.07200
H 	H 	0.27624 0.08344 0.19242 0.07300
N 	N 	0.25790 0.07586 0.31977 -0.20100
H 	H 	0.34648 0.15662 0.35929 0.05100
N 	N 	0.36270 0.16645 0.23155 -0.19300
H 	H 	0.24299 0.06080 0.28441 0.11600
H 	H 	0.25118 0.07456 0.37102 0.12400
H 	H 	0.37707 0.18212 0.26678 0.08900
H 	H 	0.36761 0.16968 0.17992 0.09200
H 	H 	0.39145 0.05271 0.14472 0.08800
H 	H 	0.36616 0.07310 0.21170 0.09300
H 	H 	0.32195 0.16147 0.92225 0.09700
H 	H 	0.29219 0.17803 0.98604 0.09900
C 	C 	0.21016 0.15809 0.62515 -0.03200
C 	C 	0.18154 0.13448 0.61622 -0.08800
C 	C 	0.18899 0.09853 0.59833 0.14300
C 	C 	0.22253 0.08943 0.57304 -0.06500
C 	C 	0.24920 0.11506 0.56946 -0.02600
C 	C 	0.24398 0.14892 0.60050 0.08600
N 	N 	0.27110 0.17260 0.60675 -0.19500
H 	H 	0.20528 0.18492 0.64411 0.05600
H 	H 	0.22758 0.06254 0.55461 0.09500
N 	N 	0.16387 0.07294 0.60354 -0.20400
H 	H 	0.26686 0.19787 0.62836 0.09200
H 	H 	0.29686 0.16571 0.59254 0.09300
H 	H 	0.14066 0.07760 0.63041 0.12800
H 	H 	0.16871 0.04709 0.58546 0.14500
C 	C 	0.30344 0.03808 0.74566 -0.06700
C 	C 	0.30726 0.07364 0.76760 -0.03200
C 	C 	0.27952 0.09776 0.75531 0.09100
C 	C 	0.24611 0.08464 0.73545 -0.03000
C 	C 	0.24045 0.04794 0.72726 -0.08800
C 	C 	0.27009 0.02515 0.72415 0.12500
N 	N 	0.26639 0.99062 0.70360 -0.20000
H 	H 	0.32564 0.01999 0.74985 0.06000
H 	H 	0.22368 0.10257 0.73393 0.05700
N 	N 	0.28464 0.13332 0.76380 -0.19500
H 	H 	0.28813 0.97345 0.70403 0.10400
H 	H 	0.24222 0.98096 0.68450 0.12400
H 	H 	0.30987 0.14380 0.77375 0.09200
H 	H 	0.26356 0.15097 0.75769 0.09400
C 	C 	0.91732 0.39282 0.32875 -0.04400
C 	C 	0.88295 0.37921 0.34107 0.10800
C 	C 	0.87276 0.37269 0.40823 -0.08100
C 	C 	0.89437 0.38353 0.46345 -0.00200
C 	C 	0.92770 0.39941 0.45130 0.07800
C 	C 	0.93929 0.40278 0.38412 -0.04800
N 	N 	0.85905 0.37424 0.28946 -0.19700
H 	H 	0.84708 0.36094 0.41768 0.06400
C 	C 	0.88176 0.37836 0.53390 0.00100
N 	N 	0.94852 0.41178 0.50369 -0.19300
H 	H 	0.96549 0.41343 0.37494 0.05900
C 	C 	0.89668 0.35115 0.57213 -0.08400
C 	C 	0.89022 0.34925 0.64223 0.11200
C 	C 	0.86486 0.37234 0.67274 -0.04900
C 	C 	0.84822 0.39812 0.63334 -0.04900
C 	C 	0.85713 0.40205 0.56471 0.07200
H 	H 	0.91548 0.33305 0.54837 0.07400
N 	N 	0.90985 0.32678 0.68030 -0.19900
H 	H 	0.82886 0.41579 0.65662 0.05100
N 	N 	0.84242 0.42892 0.52923 -0.19300
H 	H 	0.92658 0.30818 0.65675 0.11200
H 	H 	0.91094 0.32936 0.73324 0.10300
H 	H 	0.82409 0.44607 0.55235 0.08900
H 	H 	0.84925 0.43343 0.47889 0.09100
H 	H 	0.97345 0.42262 0.49422 0.09400
H 	H 	0.93987 0.41177 0.55395 0.09500
H 	H 	0.86309 0.38497 0.24177 0.09500
H 	H 	0.83473 0.36195 0.29829 0.09700
C 	C 	0.02900 0.15066 0.86278 0.27900
C 	C 	0.00155 0.14533 0.81461 -0.21300
C 	C 	0.00944 0.12910 0.75135 0.24900
C 	C 	0.04174 0.11171 0.74227 0.28500
C 	C 	0.06668 0.11149 0.79582 -0.21700
C 	C 	0.06141 0.13348 0.85359 0.27200
F 	F 	0.08707 0.13683 0.90221 -0.37900
F 	F 	0.02370 0.17093 0.91993 -0.38400
F 	F 	0.04775 0.09310 0.68339 -0.38400
F 	F 	0.98489 0.12815 0.70041 -0.35900
C 	C 	0.88135 0.28893 0.87743 -0.06900
C 	C 	0.84748 0.30388 0.87599 -0.03100
C 	C 	0.81843 0.28501 0.90245 0.08900
C 	C 	0.82364 0.25023 0.92523 -0.03100
C 	C 	0.85726 0.23435 0.92209 -0.08600
C 	C 	0.88663 0.25452 0.90047 0.12600
N 	N 	0.91996 0.24094 0.90181 -0.20100
H 	H 	0.90376 0.30404 0.85959 0.05900
H 	H 	0.80119 0.23499 0.94241 0.06200
N 	N 	0.78555 0.29973 0.90514 -0.19500
H 	H 	0.94116 0.25505 0.88185 0.11200
H 	H 	0.92553 0.21775 0.92721 0.11600
H 	H 	0.78095 0.32560 0.88959 0.09800
H 	H 	0.76418 0.28541 0.92388 0.09900
C 	C 	0.96969 0.18738 0.38875 0.25200
C 	C 	0.97955 0.20188 0.32656 -0.23800
C 	C 	0.00645 0.22790 0.32664 0.24500
C 	C 	0.02815 0.23291 0.38404 0.25400
C 	C 	0.02292 0.21202 0.44086 -0.24200
C 	C 	0.99049 0.19428 0.44686 0.25700
F 	F 	0.98150 0.18003 0.50681 -0.35600
F 	F 	0.94137 0.16535 0.39224 -0.50400
F 	F 	0.05708 0.25424 0.38096 -0.40300
F 	F 	0.01259 0.24698 0.27034 -0.39600
C 	C 	0.90090 0.29421 0.05201 -0.02900
C 	C 	0.92929 0.27030 0.05522 -0.09300
C 	C 	0.96391 0.28419 0.06296 0.13800
C 	C 	0.96841 0.31921 0.08800 -0.06700
C 	C 	0.93870 0.34061 0.10119 -0.02800
C 	C 	0.90496 0.32910 0.07756 0.08800
N 	N 	0.87626 0.35081 0.08182 -0.19500
H 	H 	0.87455 0.28424 0.03998 0.05500
H 	H 	0.99472 0.32899 0.10103 0.07000
N 	N 	0.99267 0.26389 0.04803 -0.19900
H 	H 	0.85142 0.34203 0.06433 0.09200
H 	H 	0.87840 0.37670 0.10156 0.08600
H 	H 	0.98994 0.23953 0.02196 0.14300
H 	H 	0.01824 0.27347 0.05822 0.11700
C 	C 	0.51236 0.95893 0.42849 -0.05500
C 	C 	0.49521 0.94146 0.48189 0.10500
C 	C 	0.46438 0.95639 0.51026 -0.09500
C 	C 	0.44868 0.98636 0.48186 0.01100
C 	C 	0.46460 0.00237 0.42529 0.05900
C 	C 	0.49667 0.98886 0.40011 -0.03800
N 	N 	0.50720 0.90969 0.50391 -0.20100
H 	H 	0.45186 0.94389 0.55290 0.05600
C 	C 	0.41534 0.00060 0.51093 -0.02100
N 	N 	0.44927 0.03063 0.39492 -0.19200
H 	H 	0.50962 0.00187 0.35851 0.04600
C 	C 	0.41688 0.03093 0.55387 -0.07800
C 	C 	0.38714 0.05312 0.56093 0.09800
C 	C 	0.35561 0.04441 0.52481 -0.04400
C 	C 	0.35236 0.01086 0.49276 -0.06100
C 	C 	0.38211 0.98884 0.48500 0.08900
H 	H 	0.44191 0.03873 0.57744 0.05400
N 	N 	0.38935 0.08320 0.60049 -0.19800
H 	H 	0.32742 0.00323 0.46865 0.06300
N 	N 	0.37894 0.95721 0.45050 -0.19600
H 	H 	0.41338 0.09068 0.62346 0.08700
H 	H 	0.36702 0.09877 0.61048 0.09500
H 	H 	0.35457 0.94933 0.42933 0.09800
H 	H 	0.40028 0.93973 0.44603 0.09500
H 	H 	0.46156 0.04254 0.35393 0.08700
H 	H 	0.42482 0.04068 0.41062 0.09200
H 	H 	0.52859 0.89678 0.48080 0.09300
H 	H 	0.49419 0.89684 0.54299 0.08500
C 	C 	0.58295 0.98477 0.70935 -0.04500
C 	C 	0.54905 0.97849 0.68040 0.10700
C 	C 	0.52235 0.00406 0.68942 -0.09400
C 	C 	0.52904 0.03518 0.72813 -0.00500
C 	C 	0.56432 0.04393 0.74671 0.07600
C 	C 	0.59119 0.01863 0.73639 -0.05600
N 	N 	0.54151 0.94727 0.64723 -0.20000
H 	H 	0.49564 0.99841 0.67128 0.06000
C 	C 	0.49897 0.05305 0.76244 -0.00400
N 	N 	0.57231 0.07604 0.77612 -0.19500
H 	H 	0.61782 0.02416 0.75504 0.06100
C 	C 	0.48644 0.03908 0.82304 -0.08500
C 	C 	0.45353 0.04957 0.84932 0.10300
C 	C 	0.43435 0.07700 0.81751 -0.05000
C 	C 	0.44861 0.09331 0.76054 -0.05100
C 	C 	0.48036 0.08100 0.73157 0.06800
H 	H 	0.50119 0.01808 0.84714 0.05800
N 	N 	0.43991 0.03214 0.90295 -0.19900
H 	H 	0.43432 0.11487 0.73728 0.04700
N 	N 	0.49273 0.09604 0.67430 -0.19500
H 	H 	0.45505 0.01315 0.92781 0.08800
H 	H 	0.41377 0.03580 0.91841 0.09700
H 	H 	0.47849 0.11630 0.65121 0.08400
H 	H 	0.51676 0.08820 0.65272 0.09000
H 	H 	0.59825 0.08191 0.79189 0.09800
H 	H 	0.55310 0.09583 0.78163 0.09500
H 	H 	0.56149 0.92911 0.63483 0.09400
H 	H 	0.51550 0.94122 0.63242 0.08800
C 	C 	0.62339 0.90603 0.88619 -0.04300
C 	C 	0.59241 0.89127 0.91403 0.10100
C 	C 	0.58779 0.89236 0.98487 -0.07800
C 	C 	0.61391 0.90724 0.02810 -0.00900
C 	C 	0.64660 0.91822 0.00066 0.08400
C 	C 	0.65101 0.91749 0.92973 -0.05100
N 	N 	0.56710 0.87605 0.87305 -0.19800
H 	H 	0.56335 0.88262 0.00625 0.05500
C 	C 	0.60553 0.91407 0.10085 -0.00100
N 	N 	0.67350 0.93008 0.04188 -0.19500
H 	H 	0.67522 0.92777 0.90832 0.07400
C 	C 	0.61215 0.88745 0.14774 -0.08500
C 	C 	0.60463 0.89301 0.21709 0.10600
C 	C 	0.59077 0.92615 0.23987 -0.04700
C 	C 	0.58341 0.95247 0.19274 -0.04900
C 	C 	0.59063 0.94681 0.12334 0.07600
H 	H 	0.62308 0.86225 0.13018 0.06100
N 	N 	0.61012 0.86628 0.26112 -0.19900
H 	H 	0.57252 0.97770 0.21029 0.05500
N 	N 	0.58336 0.97290 0.07877 -0.19300
H 	H 	0.62124 0.84227 0.24416 0.09200
H 	H 	0.60249 0.86858 0.31195 0.09500
H 	H 	0.57253 0.99700 0.09597 0.09300
H 	H 	0.58820 0.96960 0.02681 0.09600
H 	H 	0.69720 0.93899 0.02110 0.11700
H 	H 	0.67151 0.92988 0.09479 0.10700
H 	H 	0.57100 0.87256 0.82077 0.09400
H 	H 	0.54370 0.86631 0.89368 0.09000
C 	C 	0.78080 0.09424 0.25442 0.27000
C 	C 	0.79310 0.05933 0.24391 -0.20900
C 	C 	0.81458 0.05167 0.18721 0.25600
C 	C 	0.83051 0.07939 0.15303 0.27900
C 	C 	0.82453 0.11460 0.17504 -0.22100
C 	C 	0.79678 0.12194 0.22029 0.26800
F 	F 	0.78777 0.15605 0.23594 -0.39300
F 	F 	0.75520 0.10156 0.30081 -0.38500
F 	F 	0.85441 0.07199 0.10347 -0.35000
F 	F 	0.82195 0.01756 0.16838 -0.39900
C 	C 	0.91954 0.08543 0.49345 0.28200
C 	C 	0.91105 0.05945 0.44317 -0.22700
C 	C 	0.93858 0.04080 0.41038 0.26500
C 	C 	0.97388 0.05070 0.42184 0.26000
C 	C 	0.98224 0.07968 0.46579 -0.18100
C 	C 	0.95516 0.09495 0.50579 0.28100
F 	F 	0.96320 0.11891 0.55627 -0.32000
F 	F 	0.89339 0.10239 0.52835 -0.38000
F 	F 	0.99995 0.03304 0.38797 -0.48100
F 	F 	0.93103 0.01389 0.36529 -0.48500
C 	C 	0.68802 0.98600 0.51159 -0.03100
C 	C 	0.71261 0.95904 0.49660 -0.08700
C 	C 	0.70003 0.92436 0.48012 0.12500
C 	C 	0.66371 0.91894 0.46809 -0.06900
C 	C 	0.64032 0.94777 0.46845 -0.03400
C 	C 	0.65178 0.98075 0.49725 0.09600
N 	N 	0.62843 0.00750 0.51013 -0.19800
H 	H 	0.69729 0.01189 0.52939 0.06200
H 	H 	0.65426 0.89289 0.45151 0.05500
N 	N 	0.72280 0.89655 0.47339 -0.20000
H 	H 	0.63741 0.03226 0.52832 0.09800
H 	H 	0.60115 0.00352 0.50579 0.10000
H 	H 	0.74969 0.89929 0.48546 0.11700
H 	H 	0.71344 0.87135 0.45872 0.09800
C 	C 	0.99721 0.91312 0.70652 0.28000
C 	C 	0.96336 0.92886 0.70738 -0.17900
C 	C 	0.96077 0.96604 0.70877 0.28000
C 	C 	0.99135 0.98704 0.71755 0.28200
C 	C 	0.02481 0.97099 0.72654 -0.20000
C 	C 	0.02775 0.93399 0.71733 0.24700
F 	F 	0.05985 0.91801 0.72278 -0.41000
F 	F 	0.00043 0.87748 0.69727 -0.35300
F 	F 	0.98829 0.02296 0.72021 -0.43400
F 	F 	0.92847 0.98183 0.70591 -0.39200
C 	C 	0.81308 0.98894 0.84587 0.29800
C 	C 	0.84159 0.96570 0.83379 -0.24900
C 	C 	0.87597 0.97645 0.85179 0.29100
C 	C 	0.88259 0.01167 0.87062 0.27700
C 	C 	0.85452 0.03609 0.87588 -0.20700
C 	C 	0.81954 0.02407 0.86718 0.28100
F 	F 	0.79200 0.04698 0.87480 -0.38000
F 	F 	0.77936 0.97820 0.83176 -0.39900
F 	F 	0.91640 0.02229 0.88090 -0.50200
F 	F 	0.90356 0.95369 0.84409 -0.49000
C 	C 	0.71112 0.92986 0.65956 -0.06800
C 	C 	0.68351 0.90552 0.66675 -0.02700
C 	C 	0.68779 0.87017 0.64229 0.08600
C 	C 	0.72147 0.85856 0.62108 -0.03000
C 	C 	0.75057 0.88183 0.62395 -0.09300
C 	C 	0.74434 0.91851 0.63613 0.13600
N 	N 	0.77021 0.94283 0.62607 -0.20100
H 	H 	0.70711 0.95753 0.67404 0.07700
H 	H 	0.72561 0.83078 0.60772 0.05100
N 	N 	0.65988 0.84731 0.63938 -0.19500
H 	H 	0.76680 0.96925 0.64224 0.13300
H 	H 	0.79243 0.93649 0.59705 0.12700
H 	H 	0.63422 0.85585 0.65079 0.09200
H 	H 	0.66343 0.82093 0.62314 0.09100
C 	C 	0.99359 0.45386 0.17016 -0.04800
C 	C 	0.02975 0.44851 0.18683 0.10000
C 	C 	0.05123 0.47796 0.20355 -0.08700
C 	C 	0.03693 0.51226 0.20436 -0.00200
C 	C 	0.00292 0.51779 0.17582 0.05900
C 	C 	0.98139 0.48837 0.15912 -0.04400
N 	N 	0.04355 0.41524 0.18936 -0.19900
H 	H 	0.07815 0.47395 0.22154 0.06000
C 	C 	0.05355 0.53988 0.24901 -0.00500
N 	N 	0.99023 0.55117 0.16781 -0.18600
H 	H 	0.95426 0.49244 0.14267 0.04500
C 	C 	0.08179 0.55991 0.22443 -0.08600
C 	C 	0.09789 0.58652 0.26561 0.10200
C 	C 	0.08380 0.59468 0.33077 -0.04900
C 	C 	0.05631 0.57380 0.35599 -0.05200
C 	C 	0.04155 0.54600 0.31637 0.07400
H 	H 	0.09165 0.55438 0.17361 0.05500
N 	N 	0.12752 0.60306 0.24350 -0.19900
H 	H 	0.04583 0.57967 0.40623 0.05100
N 	N 	0.01591 0.52529 0.34330 -0.19400
H 	H 	0.13658 0.59834 0.19399 0.08800
H 	H 	0.14302 0.61899 0.27633 0.09400
H 	H 	0.00655 0.53072 0.39236 0.08600
H 	H 	0.00573 0.50308 0.31693 0.09200
H 	H 	0.96399 0.55517 0.15235 0.09000
H 	H 	0.00656 0.57337 0.17518 0.08700
H 	H 	0.02871 0.39295 0.17432 0.10300
H 	H 	0.06990 0.41147 0.20443 0.09800
C 	C 	0.94467 0.58586 0.01507 -0.05100
C 	C 	0.90722 0.58727 0.01970 0.10600
C 	C 	0.88727 0.55625 0.00687 -0.08900
C 	C 	0.90388 0.52445 0.98652 -0.00300
C 	C 	0.94144 0.52275 0.98491 0.07500
C 	C 	0.96136 0.55319 0.00199 -0.05400
N 	N 	0.89021 0.61831 0.03468 -0.20000
H 	H 	0.85858 0.55727 0.00970 0.05800
C 	C 	0.88166 0.49423 0.96136 -0.00400
N 	N 	0.95850 0.49246 0.96486 -0.19400
H 	H 	0.99008 0.55201 0.00051 0.05200
C 	C 	0.86365 0.49684 0.89902 -0.08500
C 	C 	0.84773 0.46677 0.86813 0.10500
C 	C 	0.85377 0.43299 0.89587 -0.05000
C 	C 	0.86842 0.43104 0.96171 -0.05400
C 	C 	0.88073 0.46190 0.99614 0.07300
H 	H 	0.86211 0.52222 0.87449 0.06000
N 	N 	0.82570 0.47056 0.81372 -0.19800
H 	H 	0.87130 0.40553 0.98520 0.05400
N 	N 	0.89218 0.46029 0.06170 -0.19400
H 	H 	0.82295 0.49519 0.79108 0.09000
H 	H 	0.80926 0.44979 0.79665 0.09500
H 	H 	0.89416 0.43595 0.08552 0.08600
H 	H 	0.89748 0.48338 0.09055 0.08800
H 	H 	0.98614 0.49099 0.96770 0.09100
H 	H 	0.94487 0.47073 0.94355 0.09500
H 	H 	0.90406 0.64194 0.04390 0.10700
H 	H 	0.86256 0.61904 0.03737 0.09700
C 	C 	0.02604 0.65978 0.88873 -0.04700
C 	C 	0.01569 0.68621 0.84269 0.11300
C 	C 	0.03188 0.68732 0.77869 -0.08200
C 	C 	0.05769 0.66227 0.75976 0.00100
C 	C 	0.06979 0.63752 0.80763 0.07300
C 	C 	0.05373 0.63650 0.87169 -0.04900
N 	N 	0.98984 0.71007 0.85891 -0.19600
H 	H 	0.02328 0.70678 0.74242 0.07800
C 	C 	0.06874 0.65953 0.68765 -0.00000
N 	N 	0.09635 0.61437 0.79207 -0.19300
H 	H 	0.06211 0.61680 0.90766 0.05000
C 	C 	0.09864 0.67842 0.66691 -0.08200
C 	C 	0.11038 0.67564 0.59931 0.11100
C 	C 	0.09040 0.65537 0.55077 -0.04800
C 	C 	0.06070 0.63621 0.57181 -0.04900
C 	C 	0.04976 0.63790 0.63982 0.07500
H 	H 	0.11340 0.69452 0.70393 0.06900
N 	N 	0.14139 0.69134 0.58206 -0.19800
H 	H 	0.04549 0.62057 0.53472 0.05100
N 	N 	0.02093 0.61889 0.65869 -0.19300
H 	H 	0.15514 0.70752 0.61738 0.10200
H 	H 	0.15309 0.68616 0.53491 0.10100
H 	H 	0.00705 0.60312 0.62288 0.08900
H 	H 	0.01205 0.61937 0.70882 0.09400
H 	H 	0.10452 0.59562 0.82715 0.08900
H 	H 	0.10961 0.61513 0.74576 0.09300
H 	H 	0.97767 0.71044 0.90638 0.13000
H 	H 	0.98187 0.72893 0.82390 0.11800
C 	C 	0.94523 0.98130 0.03154 0.29100
C 	C 	0.98019 0.96911 0.02314 -0.18900
C 	C 	0.00729 0.99373 0.01184 0.24100
C 	C 	0.99924 0.02968 0.00390 0.26000
C 	C 	0.96383 0.04108 0.00299 -0.17900
C 	C 	0.93716 0.01734 0.02249 0.28500
F 	F 	0.90306 0.02848 0.02732 -0.34100
F 	F 	0.91884 0.95805 0.04479 -0.38100
F 	F 	0.02575 0.05324 0.99353 -0.45100
F 	F 	0.04116 0.98248 0.00446 -0.47700
C 	C 	0.97482 0.81402 0.81568 0.26400
C 	C 	0.96604 0.80814 0.88379 -0.22900
C 	C 	0.93681 0.78629 0.89726 0.25100
C 	C 	0.91220 0.77863 0.84540 0.25400
C 	C 	0.91582 0.79511 0.78275 -0.21800
C 	C 	0.94984 0.80621 0.76436 0.26400
F 	F 	0.95646 0.81517 0.69932 -0.36000
F 	F 	0.00596 0.82975 0.80007 -0.40600
F 	F 	0.88172 0.76133 0.85988 -0.39900
F 	F 	0.93133 0.77427 0.96079 -0.40300
C 	C 	0.10880 0.94756 0.05535 0.29000
C 	C 	0.10963 0.91058 0.04674 -0.24500
C 	C 	0.13261 0.89546 0.99836 0.26400
C 	C 	0.14576 0.91629 0.94670 0.25600
C 	C 	0.13744 0.95264 0.94611 -0.23000
C 	C 	0.12259 0.96877 0.00470 0.26300
F 	F 	0.11990 0.00464 0.01083 -0.40900
F 	F 	0.09018 0.96270 0.10720 -0.33400
F 	F 	0.16421 0.90074 0.89496 -0.38700
F 	F 	0.13756 0.85977 0.99534 -0.39800
C 	C 	0.03637 0.73601 0.17772 -0.02600
C 	C 	0.00960 0.76186 0.17535 -0.09700
C 	C 	0.97420 0.75017 0.16652 0.14300
C 	C 	0.96774 0.71634 0.13702 -0.07000
C 	C 	0.99616 0.69329 0.12370 -0.02300
C 	C 	0.02965 0.70138 0.15269 0.08200
N 	N 	0.05560 0.67643 0.15452 -0.19300
H 	H 	0.06335 0.74395 0.18979 0.05700
H 	H 	0.94114 0.70892 0.12083 0.07200
N 	N 	0.94666 0.77105 0.18634 -0.20300
H 	H 	0.08063 0.68274 0.17470 0.09500
H 	H 	0.05057 0.65019 0.13872 0.09200
H 	H 	0.95084 0.79343 0.21791 0.13800
H 	H 	0.92057 0.76339 0.17517 0.11800
C 	C 	0.00106 0.05919 0.16559 0.26300
C 	C 	0.96442 0.05738 0.17730 -0.18700
C 	C 	0.94919 0.02433 0.19237 0.27700
C 	C 	0.97091 0.99491 0.20482 0.27300
C 	C 	0.00790 0.99796 0.20050 -0.17500
C 	C 	0.02241 0.02925 0.17474 0.28100
F 	F 	0.05760 0.03128 0.16218 -0.30800
F 	F 	0.01623 0.09019 0.14758 -0.38200
F 	F 	0.95612 0.96422 0.22549 -0.39000
F 	F 	0.91344 0.02068 0.19462 -0.44100
C 	C 	0.93661 0.90623 0.34954 0.29200
C 	C 	0.96731 0.91606 0.38698 -0.21300
C 	C 	0.96398 0.93713 0.44679 0.27300
C 	C 	0.93047 0.94925 0.46720 0.29100
C 	C 	0.90018 0.93998 0.42838 -0.21700
C 	C 	0.90338 0.91724 0.37139 0.26500
F 	F 	0.87410 0.90706 0.33512 -0.40100
F 	F 	0.93906 0.88662 0.29077 -0.37500
F 	F 	0.92761 0.97116 0.52287 -0.37500
F 	F 	0.99300 0.94566 0.48519 -0.44600
C 	C 	0.15862 0.03619 0.40119 0.27500
C 	C 	0.13563 0.05931 0.36737 -0.22200
C 	C 	0.12300 0.04907 0.30245 0.27600
C 	C 	0.12615 0.01355 0.28062 0.26100
C 	C 	0.13847 0.98836 0.32646 -0.20000
C 	C 	0.15861 0.00015 0.38279 0.25000
F 	F 	0.17504 0.97647 0.42320 -0.39400
F 	F 	0.17764 0.04790 0.45611 -0.42000
F 	F 	0.11444 0.00314 0.21790 -0.32500
F 	F 	0.10454 0.07228 0.26423 -0.40300
C 	C 	0.11918 0.77396 0.28560 -0.03200
C 	C 	0.08772 0.79287 0.29714 -0.08500
C 	C 	0.05852 0.77565 0.32660 0.12900
C 	C 	0.06263 0.74141 0.35130 -0.07000
C 	C 	0.09484 0.72341 0.34424 -0.03100
C 	C 	0.12301 0.73914 0.30862 0.08600
N 	N 	0.15392 0.72140 0.29764 -0.19500
H 	H 	0.14132 0.78692 0.26169 0.06100
H 	H 	0.04060 0.72866 0.37601 0.06500
N 	N 	0.02627 0.79155 0.32959 -0.20300
H 	H 	0.17468 0.73341 0.27194 0.09700
H 	H 	0.15758 0.69548 0.31376 0.09400
H 	H 	0.02095 0.81402 0.30166 0.12700
H 	H 	0.00533 0.77973 0.35506 0.11100
