data_crystal

_cell_length_a 31.26771
_cell_length_b 29.49779
_cell_length_c 29.31563
_cell_angle_alpha 90.02568
_cell_angle_beta  89.12696
_cell_angle_gamma 90.53062

_symmetry_space_group_name_	'P 1'
_symmetry_space_group_name_H-M	'P 1'

loop_
_symmetry_equiv_pos_as_xyz
  x,y,z

loop_
_atom_site_label
_atom_site_type_symbol
_atom_site_fract_x
_atom_site_fract_y
_atom_site_fract_z
_atom_site_charge
C 	C 	0.11234 0.02782 0.09635 0.29600
C 	C 	0.98041 0.10874 0.98257 0.30500
C 	C 	0.04618 0.97492 0.00985 0.31000
C 	C 	0.04702 0.17464 0.05090 0.29100
C 	C 	0.08726 0.05654 0.89995 0.31900
C 	C 	0.16968 0.11924 0.97681 0.29000
Ni	Ni	0.03643 0.06848 0.05106 1.11500
Ni	Ni	0.07367 0.12915 0.96630 1.12500
Ni	Ni	0.11848 0.03599 0.99136 1.12200
O 	O 	0.08301 0.05984 0.09946 -0.37200
O 	O 	0.12427 0.00958 0.05629 -0.37200
O 	O 	0.06105 0.08867 0.91305 -0.37800
O 	O 	0.99226 0.07010 0.99960 -0.37900
O 	O 	0.00910 0.14001 0.97182 -0.36700
O 	O 	0.16778 0.07937 0.99803 -0.37500
O 	O 	0.03497 0.99732 0.04694 -0.35700
O 	O 	0.06836 0.99511 0.97766 -0.37700
O 	O 	0.13762 0.13398 0.95120 -0.36400
O 	O 	0.02657 0.13781 0.06745 -0.35400
O 	O 	0.07795 0.17175 0.01965 -0.37600
O 	O 	0.12151 0.04769 0.92364 -0.38300
O 	O 	0.08161 0.08298 0.01093 -0.72100
H 	H 	0.10089 0.09871 0.03213 0.16700
C 	C 	0.11503 0.84216 0.52945 0.29200
C 	C 	0.97214 0.96156 0.49656 0.30300
C 	C 	0.03675 0.89657 0.60752 0.30700
C 	C 	0.05251 0.91527 0.40427 0.29000
C 	C 	0.92488 0.83054 0.52521 0.31300
C 	C 	0.99928 0.76961 0.46060 0.29000
Ni	Ni	0.05757 0.92007 0.50919 1.11800
Ni	Ni	0.98001 0.87113 0.45486 1.12200
Ni	Ni	0.01908 0.82309 0.54251 1.12400
O 	O 	0.11040 0.87858 0.50338 -0.36600
O 	O 	0.08333 0.82633 0.55620 -0.36800
O 	O 	0.93349 0.86754 0.50205 -0.39400
O 	O 	0.00476 0.95926 0.52389 -0.35900
O 	O 	0.97253 0.93949 0.45761 -0.37000
O 	O 	0.02748 0.77683 0.49331 -0.38200
O 	O 	0.06603 0.91260 0.57906 -0.36300
O 	O 	0.00705 0.86850 0.59301 -0.36800
O 	O 	0.97770 0.80322 0.44088 -0.37200
O 	O 	0.05820 0.94139 0.44074 -0.35600
O 	O 	0.02354 0.88205 0.40401 -0.36700
O 	O 	0.95581 0.80659 0.54323 -0.37600
O 	O 	0.02554 0.86762 0.49621 -0.71900
H 	H 	0.04589 0.85209 0.47567 0.16000
C 	C 	0.92447 0.66807 0.94862 0.29200
C 	C 	0.86855 0.55145 0.09927 0.30900
C 	C 	0.98425 0.60013 0.01601 0.30800
C 	C 	0.79352 0.61679 0.02229 0.29200
C 	C 	0.91739 0.47446 0.99517 0.31900
C 	C 	0.84830 0.53191 0.90134 0.29100
Ni	Ni	0.89186 0.62493 0.03389 1.11500
Ni	Ni	0.84218 0.53260 0.00488 1.12200
Ni	Ni	0.92592 0.56292 0.94922 1.12600
O 	O 	0.89236 0.66818 0.97852 -0.36600
O 	O 	0.94136 0.62944 0.93243 -0.36000
O 	O 	0.88498 0.48547 0.02179 -0.38600
O 	O 	0.89952 0.57893 0.08642 -0.36500
O 	O 	0.83553 0.54503 0.07284 -0.37700
O 	O 	0.88332 0.55785 0.89882 -0.36800
O 	O 	0.95858 0.63220 0.03061 -0.37200
O 	O 	0.96838 0.56234 0.00023 -0.38500
O 	O 	0.83731 0.50955 0.93946 -0.37200
O 	O 	0.82584 0.63090 0.04818 -0.36100
O 	O 	0.79590 0.57918 0.99731 -0.36700
O 	O 	0.92340 0.49474 0.95558 -0.37900
O 	O 	0.88130 0.58013 0.98967 -0.71700
H 	H 	0.86375 0.59702 0.96794 0.16800
C 	C 	0.84640 0.40275 0.59320 0.29700
C 	C 	0.97097 0.32078 0.46541 0.30300
C 	C 	0.91429 0.45387 0.50126 0.31200
C 	C 	0.89491 0.25817 0.54531 0.29200
C 	C 	0.86326 0.37908 0.39478 0.31000
C 	C 	0.78185 0.31752 0.47529 0.28900
Ni	Ni	0.91882 0.36001 0.54099 1.11600
Ni	Ni	0.87674 0.30429 0.45778 1.12500
Ni	Ni	0.83607 0.39841 0.48889 1.12400
O 	O 	0.87398 0.36887 0.59283 -0.37000
O 	O 	0.83397 0.42300 0.55479 -0.36400
O 	O 	0.89008 0.34725 0.40635 -0.38100
O 	O 	0.96311 0.35829 0.48773 -0.37400
O 	O 	0.94063 0.29007 0.46031 -0.36600
O 	O 	0.78542 0.35674 0.49758 -0.36900
O 	O 	0.92209 0.43062 0.53842 -0.37000
O 	O 	0.88563 0.43987 0.47218 -0.38800
O 	O 	0.81243 0.30361 0.44625 -0.36900
O 	O 	0.92491 0.28987 0.55233 -0.36000
O 	O 	0.87024 0.25882 0.50873 -0.37000
O 	O 	0.83022 0.38841 0.42129 -0.38000
O 	O 	0.87198 0.34941 0.50387 -0.72200
H 	H 	0.85269 0.33378 0.52572 0.16500
C 	C 	0.58456 0.01911 0.11256 0.25600
C 	C 	0.47629 0.11549 0.98171 0.31400
C 	C 	0.51755 0.97730 0.01506 0.30600
C 	C 	0.54126 0.17299 0.06418 0.29300
C 	C 	0.58450 0.05327 0.91505 0.30700
C 	C 	0.66455 0.09842 0.99985 0.29800
Ni	Ni	0.51786 0.06947 0.05999 1.11400
Ni	Ni	0.57180 0.12517 0.98234 1.12400
Ni	Ni	0.60034 0.02564 0.00934 1.11800
O 	O 	0.55646 0.05264 0.11426 -0.35600
O 	O 	0.59420 0.99796 0.07346 -0.35400
O 	O 	0.56079 0.08810 0.92631 -0.38400
O 	O 	0.47831 0.07754 0.00467 -0.38000
O 	O 	0.50900 0.14391 0.98065 -0.38000
O 	O 	0.65274 0.06213 0.02400 -0.38300
O 	O 	0.50856 0.99953 0.05288 -0.35400
O 	O 	0.54836 0.99125 0.98758 -0.37400
O 	O 	0.63694 0.12192 0.97482 -0.36800
O 	O 	0.51496 0.13914 0.07745 -0.35500
O 	O 	0.57506 0.16585 0.03736 -0.38100
O 	O 	0.61342 0.03806 0.94304 -0.38100
O 	O 	0.56818 0.07734 0.02565 -0.72600
H 	H 	0.58665 0.08967 0.04970 0.16700
C 	C 	0.47719 0.74965 0.49582 0.29100
C 	C 	0.54376 0.88928 0.61859 0.30900
C 	C 	0.42271 0.82591 0.55798 0.31400
C 	C 	0.61271 0.81440 0.53971 0.29000
C 	C 	0.48092 0.94754 0.51154 0.30800
C 	C 	0.54472 0.88207 0.41797 0.29400
Ni	Ni	0.51680 0.80630 0.56799 1.11400
Ni	Ni	0.55963 0.89485 0.51934 1.12500
Ni	Ni	0.47368 0.85361 0.47936 1.12500
O 	O 	0.51164 0.75415 0.52119 -0.36800
O 	O 	0.45981 0.78490 0.47409 -0.36000
O 	O 	0.51548 0.94150 0.53557 -0.37200
O 	O 	0.51350 0.85849 0.61538 -0.36500
O 	O 	0.57348 0.89257 0.58674 -0.37300
O 	O 	0.51246 0.85288 0.42403 -0.37100
O 	O 	0.45033 0.79785 0.57563 -0.37000
O 	O 	0.43633 0.86113 0.53527 -0.38600
O 	O 	0.55777 0.90940 0.45138 -0.36800
O 	O 	0.58405 0.80378 0.57245 -0.36100
O 	O 	0.60735 0.84950 0.51177 -0.36200
O 	O 	0.47337 0.92194 0.47577 -0.37600
O 	O 	0.52188 0.84394 0.51623 -0.71900
H 	H 	0.53815 0.82415 0.49528 0.16700
C 	C 	0.48929 0.60454 0.02095 0.28800
C 	C 	0.37572 0.52437 0.88360 0.30800
C 	C 	0.42191 0.66483 0.94178 0.30800
C 	C 	0.43780 0.46835 0.97776 0.28400
C 	C 	0.30184 0.59854 0.99747 0.31600
C 	C 	0.37333 0.53937 0.08366 0.28900
Ni	Ni	0.44406 0.56474 0.93952 1.11500
Ni	Ni	0.35751 0.52068 0.98490 1.12300
Ni	Ni	0.39261 0.61560 0.02234 1.12300
O 	O 	0.49131 0.57398 0.98767 -0.36600
O 	O 	0.45624 0.63241 0.02537 -0.37300
O 	O 	0.31437 0.56748 0.96813 -0.38200
O 	O 	0.39706 0.56189 0.89086 -0.37000
O 	O 	0.36102 0.50002 0.91823 -0.36800
O 	O 	0.39442 0.57854 0.07977 -0.37300
O 	O 	0.44981 0.63452 0.92765 -0.35600
O 	O 	0.38753 0.65192 0.96453 -0.38000
O 	O 	0.34473 0.52661 0.05292 -0.37300
O 	O 	0.44861 0.49351 0.94152 -0.36200
O 	O 	0.39883 0.46986 0.99630 -0.37200
O 	O 	0.32812 0.61447 0.02842 -0.37600
O 	O 	0.40449 0.56224 0.98816 -0.70900
H 	H 	0.42219 0.54670 0.01067 0.14600
C 	C 	0.40046 0.35918 0.37234 0.29100
C 	C 	0.40737 0.37868 0.57373 0.30800
C 	C 	0.47104 0.29523 0.45527 0.30900
C 	C 	0.35335 0.44267 0.49659 0.29300
C 	C 	0.36175 0.24397 0.52659 0.30900
C 	C 	0.28273 0.30668 0.44814 0.28800
Ni	Ni	0.42342 0.37963 0.47144 1.11300
Ni	Ni	0.33735 0.34136 0.52199 1.12500
Ni	Ni	0.37759 0.28655 0.43785 1.12300
O 	O 	0.43180 0.37001 0.40076 -0.36400
O 	O 	0.37514 0.32339 0.37981 -0.36900
O 	O 	0.33087 0.27356 0.53371 -0.36800
O 	O 	0.42596 0.40087 0.53983 -0.37100
O 	O 	0.38661 0.34110 0.56548 -0.38100
O 	O 	0.31272 0.27540 0.44043 -0.37100
O 	O 	0.46229 0.32559 0.48637 -0.37300
O 	O 	0.44209 0.28415 0.42498 -0.36100
O 	O 	0.28680 0.33766 0.48078 -0.36900
O 	O 	0.38028 0.43116 0.46355 -0.37500
O 	O 	0.33466 0.41187 0.52450 -0.35900
O 	O 	0.38927 0.24916 0.49287 -0.38000
O 	O 	0.37421 0.34252 0.47014 -0.71600
H 	H 	0.35569 0.35930 0.44928 0.16400
C 	C 	0.43350 0.44739 0.67930 -0.04000
C 	C 	0.39448 0.44522 0.70402 0.02500
C 	C 	0.35961 0.42170 0.68582 -0.05900
C 	C 	0.36334 0.39953 0.64373 0.03200
C 	C 	0.40282 0.40068 0.61917 -0.08700
C 	C 	0.43748 0.42517 0.63709 0.01600
C 	C 	0.39026 0.46566 0.75016 0.02300
C 	C 	0.37885 0.51136 0.75456 -0.05600
C 	C 	0.37204 0.53053 0.79788 0.02800
C 	C 	0.37714 0.50382 0.83744 -0.08000
C 	C 	0.38745 0.45778 0.83281 0.01500
C 	C 	0.39436 0.43874 0.78956 -0.03800
C 	C 	0.35827 0.57704 0.80132 0.08700
C 	C 	0.40601 0.39159 0.78587 0.10000
C 	C 	0.46963 0.47219 0.69706 0.09900
C 	C 	0.32611 0.37684 0.62566 0.06200
N 	N 	0.34724 0.61430 0.80407 -0.09800
N 	N 	0.41535 0.35383 0.78289 -0.10800
N 	N 	0.29620 0.35868 0.61135 -0.12700
N 	N 	0.49856 0.49209 0.71133 -0.10900
H 	H 	0.46759 0.42682 0.61824 0.04500
H 	H 	0.32950 0.42040 0.70469 0.06000
H 	H 	0.37480 0.53185 0.72423 0.06100
H 	H 	0.39105 0.43699 0.86299 0.05500
C 	C 	0.35239 0.42443 0.27559 -0.03600
C 	C 	0.38867 0.43368 0.24785 0.02400
C 	C 	0.42877 0.41739 0.26050 -0.05600
C 	C 	0.43298 0.39194 0.30047 0.02800
C 	C 	0.39687 0.38399 0.32901 -0.07400
C 	C 	0.35673 0.39985 0.31602 0.01300
C 	C 	0.38499 0.46067 0.20558 0.02300
C 	C 	0.37917 0.50765 0.20869 -0.05500
C 	C 	0.37425 0.53368 0.16925 0.03000
C 	C 	0.37690 0.51277 0.12593 -0.07200
C 	C 	0.38264 0.46575 0.12290 0.00700
C 	C 	0.38647 0.43960 0.16241 -0.03600
C 	C 	0.36429 0.58123 0.17365 0.09100
C 	C 	0.39125 0.39109 0.15840 0.09600
C 	C 	0.31055 0.43975 0.26257 0.10100
C 	C 	0.47389 0.37227 0.31064 0.08800
N 	N 	0.35627 0.61931 0.17720 -0.10100
N 	N 	0.39512 0.35223 0.15518 -0.10800
N 	N 	0.50668 0.35649 0.31866 -0.10200
N 	N 	0.27705 0.45203 0.25213 -0.10400
H 	H 	0.32887 0.39316 0.33754 0.05000
H 	H 	0.45658 0.42407 0.23887 0.06300
H 	H 	0.37757 0.52375 0.24196 0.06000
H 	H 	0.38415 0.44952 0.08971 0.04400
C 	C 	0.39046 0.66342 0.52184 -0.03700
C 	C 	0.41084 0.62235 0.51126 0.02200
C 	C 	0.45303 0.62310 0.49405 -0.05500
C 	C 	0.47481 0.66453 0.48734 0.02500
C 	C 	0.45376 0.70573 0.49669 -0.07200
C 	C 	0.41115 0.70465 0.51233 0.01100
C 	C 	0.38646 0.57894 0.51267 0.02300
C 	C 	0.36197 0.56634 0.47506 -0.05500
C 	C 	0.34373 0.52288 0.47266 0.02700
C 	C 	0.35068 0.49127 0.50790 -0.07300
C 	C 	0.36929 0.50647 0.54853 0.01000
C 	C 	0.38824 0.54975 0.55069 -0.03800
C 	C 	0.32059 0.50992 0.43241 0.08400
C 	C 	0.41040 0.56335 0.59140 0.09300
C 	C 	0.34935 0.66349 0.54493 0.09700
C 	C 	0.51808 0.66447 0.46936 0.08400
N 	N 	0.30219 0.49984 0.39995 -0.09900
N 	N 	0.42815 0.57419 0.62405 -0.11200
N 	N 	0.55275 0.66444 0.45497 -0.10000
N 	N 	0.31655 0.66348 0.56375 -0.10600
H 	H 	0.39454 0.73587 0.51848 0.04600
H 	H 	0.46870 0.59150 0.48545 0.05600
H 	H 	0.35855 0.58974 0.44683 0.06000
H 	H 	0.37262 0.48319 0.57681 0.04600
C 	C 	0.42375 0.05900 0.49822 -0.03600
C 	C 	0.40803 0.06644 0.54300 0.02700
C 	C 	0.41319 0.03293 0.57631 -0.07200
C 	C 	0.43555 0.99312 0.56596 0.04300
C 	C 	0.45315 0.98669 0.52174 -0.06300
C 	C 	0.44613 0.01921 0.48785 -0.00000
C 	C 	0.38914 0.11075 0.55601 0.02100
C 	C 	0.34733 0.12097 0.54291 -0.05400
C 	C 	0.33371 0.16618 0.54232 0.02500
C 	C 	0.36279 0.20135 0.55272 -0.07500
C 	C 	0.40110 0.19025 0.57426 0.01700
C 	C 	0.41468 0.14508 0.57549 -0.03400
C 	C 	0.29024 0.17626 0.53042 0.08400
C 	C 	0.45587 0.13463 0.59427 0.09900
C 	C 	0.41763 0.09237 0.46292 0.09800
C 	C 	0.43932 0.95862 0.60058 0.08600
N 	N 	0.25527 0.18421 0.52115 -0.10500
N 	N 	0.48888 0.12621 0.60928 -0.11000
N 	N 	0.44216 0.93106 0.62842 -0.09500
N 	N 	0.41268 0.11912 0.43467 -0.11100
H 	H 	0.45908 0.01412 0.45370 0.04800
H 	H 	0.40050 0.03824 0.61052 0.05900
H 	H 	0.32633 0.09415 0.53097 0.05600
H 	H 	0.42249 0.21713 0.58529 0.04900
C 	C 	0.46651 0.88778 0.94153 -0.04000
C 	C 	0.45931 0.85259 0.97321 0.03100
C 	C 	0.46602 0.86050 0.01975 -0.06300
C 	C 	0.48264 0.90219 0.03457 0.03100
C 	C 	0.49236 0.93664 0.00240 -0.08200
C 	C 	0.48306 0.92943 0.95618 0.02400
C 	C 	0.44974 0.80594 0.95751 0.02300
C 	C 	0.48349 0.77584 0.95012 -0.05300
C 	C 	0.47531 0.73009 0.94068 0.03000
C 	C 	0.43241 0.71401 0.93868 -0.07700
C 	C 	0.39888 0.74541 0.94149 0.01200
C 	C 	0.40729 0.79104 0.95157 -0.03600
C 	C 	0.51115 0.70007 0.93418 0.08900
C 	C 	0.37213 0.82215 0.95660 0.10000
C 	C 	0.45795 0.88101 0.89371 0.10500
C 	C 	0.49138 0.90841 0.08243 0.08500
N 	N 	0.53998 0.67617 0.92904 -0.10600
N 	N 	0.34399 0.84711 0.96063 -0.10400
N 	N 	0.49831 0.91330 0.12079 -0.09900
N 	N 	0.45104 0.87553 0.85543 -0.10300
H 	H 	0.49051 0.95565 0.93132 0.05300
H 	H 	0.45989 0.83353 0.04421 0.06400
H 	H 	0.51625 0.78783 0.95314 0.05900
H 	H 	0.36605 0.73387 0.93795 0.05100
C 	C 	0.49188 0.39393 0.06203 -0.03500
C 	C 	0.50085 0.35568 0.03488 0.01800
C 	C 	0.49700 0.35842 0.98734 -0.05100
C 	C 	0.48065 0.39755 0.96715 0.02500
C 	C 	0.46762 0.43418 0.99487 -0.07100
C 	C 	0.47575 0.43310 0.04184 0.00500
C 	C 	0.51078 0.31149 0.05600 0.02500
C 	C 	0.47761 0.28014 0.06428 -0.05800
C 	C 	0.48690 0.23498 0.07475 0.02500
C 	C 	0.52999 0.22062 0.07508 -0.07200
C 	C 	0.56271 0.25368 0.07406 0.01100
C 	C 	0.55338 0.29885 0.06364 -0.03900
C 	C 	0.45219 0.20411 0.08579 0.08600
C 	C 	0.58779 0.33163 0.05929 0.09600
C 	C 	0.49824 0.39289 0.11072 0.09500
C 	C 	0.47683 0.39951 0.91817 0.08400
N 	N 	0.42432 0.17941 0.09465 -0.10200
N 	N 	0.61534 0.35793 0.05581 -0.10800
N 	N 	0.47397 0.40100 0.87890 -0.10500
N 	N 	0.50337 0.39205 0.14972 -0.11000
H 	H 	0.46723 0.46192 0.06302 0.03500
H 	H 	0.50537 0.32950 0.96625 0.05600
H 	H 	0.44460 0.29057 0.06105 0.06200
H 	H 	0.59575 0.24356 0.07776 0.05000
C 	C 	0.53082 0.99412 0.81725 -0.01600
C 	C 	0.56619 0.98289 0.78921 0.01600
C 	C 	0.60743 0.99678 0.80153 -0.03400
C 	C 	0.61373 0.02137 0.84173 0.00700
C 	C 	0.57851 0.03102 0.87071 -0.07000
C 	C 	0.53720 0.01792 0.85787 -0.01000
C 	C 	0.56016 0.95863 0.74566 0.02200
C 	C 	0.56152 0.98314 0.70477 -0.03600
C 	C 	0.55649 0.96098 0.66300 0.01900
C 	C 	0.54929 0.91360 0.66205 -0.07100
C 	C 	0.54774 0.88914 0.70312 0.01600
C 	C 	0.55361 0.91130 0.74480 -0.03600
C 	C 	0.55867 0.98728 0.62147 0.10100
C 	C 	0.55349 0.88521 0.78650 0.10000
C 	C 	0.48788 0.98177 0.80429 0.09800
C 	C 	0.65591 0.03886 0.85158 0.08800
N 	N 	0.56062 0.00879 0.58848 -0.11800
N 	N 	0.55343 0.86434 0.81992 -0.10900
N 	N 	0.68969 0.05295 0.85936 -0.10400
N 	N 	0.45347 0.97189 0.79388 -0.09900
H 	H 	0.51008 0.02600 0.87974 0.05300
H 	H 	0.63450 0.98905 0.77937 0.05700
H 	H 	0.56668 0.01956 0.70554 0.04400
H 	H 	0.54266 0.85270 0.70251 0.04400
C 	C 	0.53768 0.91887 0.29519 -0.03900
C 	C 	0.58079 0.92947 0.28463 0.03400
C 	C 	0.61255 0.92034 0.31654 -0.05800
C 	C 	0.60150 0.90224 0.35944 0.02900
C 	C 	0.55811 0.89337 0.37070 -0.06900
C 	C 	0.52665 0.90058 0.33787 0.01600
C 	C 	0.59262 0.95154 0.24070 0.00200
C 	C 	0.59741 0.99884 0.23896 -0.00500
C 	C 	0.59936 0.02131 0.19682 -0.02500
C 	C 	0.59529 0.99631 0.15595 -0.02300
C 	C 	0.59544 0.94867 0.15781 -0.00700
C 	C 	0.59413 0.92624 0.19993 -0.01900
C 	C 	0.60633 0.06978 0.19578 0.09700
C 	C 	0.59278 0.87730 0.20103 0.09400
C 	C 	0.50443 0.92780 0.26279 0.10200
C 	C 	0.63485 0.89252 0.39147 0.08300
N 	N 	0.61192 0.10861 0.19495 -0.10700
N 	N 	0.59167 0.83809 0.20194 -0.10600
N 	N 	0.66161 0.88481 0.41711 -0.10100
N 	N 	0.47783 0.93496 0.23681 -0.10300
H 	H 	0.49330 0.89374 0.34627 0.04900
H 	H 	0.64579 0.92776 0.30815 0.06000
H 	H 	0.59815 0.01823 0.27039 0.03700
H 	H 	0.59423 0.92906 0.12654 0.05800
C 	C 	0.68192 0.26743 0.42423 -0.03500
C 	C 	0.65194 0.27500 0.45972 0.02100
C 	C 	0.66629 0.28791 0.50295 -0.05400
C 	C 	0.70963 0.29794 0.50971 0.02600
C 	C 	0.73885 0.29613 0.47250 -0.06700
C 	C 	0.72512 0.27834 0.43060 0.01100
C 	C 	0.60552 0.27608 0.45030 0.02500
C 	C 	0.57883 0.24068 0.46592 -0.05700
C 	C 	0.53422 0.24463 0.46380 0.02900
C 	C 	0.51616 0.28446 0.44619 -0.07800
C 	C 	0.54291 0.31815 0.42733 0.01700
C 	C 	0.58738 0.31436 0.42952 -0.03800
C 	C 	0.50723 0.20808 0.48043 0.08100
C 	C 	0.61419 0.35080 0.41216 0.09900
C 	C 	0.66834 0.24997 0.38070 0.09700
C 	C 	0.72389 0.30928 0.55498 0.09100
N 	N 	0.48561 0.17875 0.49369 -0.10300
N 	N 	0.63569 0.37996 0.39826 -0.10800
N 	N 	0.73529 0.31832 0.59127 -0.09900
N 	N 	0.65743 0.23600 0.34583 -0.10600
H 	H 	0.74763 0.27498 0.40232 0.05300
H 	H 	0.64344 0.29186 0.53086 0.05800
H 	H 	0.59275 0.21074 0.48095 0.05800
H 	H 	0.52903 0.34866 0.41343 0.04200
C 	C 	0.17392 0.25476 0.43274 -0.03600
C 	C 	0.14986 0.29397 0.42395 0.02300
C 	C 	0.17121 0.33435 0.41195 -0.05300
C 	C 	0.21593 0.33723 0.41381 0.02600
C 	C 	0.23961 0.29975 0.42888 -0.06900
C 	C 	0.21873 0.25775 0.43466 0.01200
C 	C 	0.10310 0.29498 0.43406 0.02500
C 	C 	0.08893 0.29683 0.47963 -0.05500
C 	C 	0.04560 0.30352 0.49025 0.02900
C 	C 	0.01586 0.30883 0.45490 -0.07200
C 	C 	0.02965 0.30489 0.40930 0.01400
C 	C 	0.07311 0.29803 0.39869 -0.03700
C 	C 	0.03195 0.30475 0.53753 0.07400
C 	C 	0.08664 0.29422 0.35154 0.09700
C 	C 	0.15285 0.21170 0.44088 0.10000
C 	C 	0.23729 0.37875 0.40033 0.08100
N 	N 	0.02113 0.30574 0.57545 -0.11200
N 	N 	0.09751 0.29117 0.31377 -0.10700
N 	N 	0.25431 0.41207 0.38941 -0.10100
N 	N 	0.13594 0.17720 0.44742 -0.10700
H 	H 	0.23706 0.22799 0.44303 0.05600
H 	H 	0.15290 0.36407 0.40316 0.06000
H 	H 	0.11185 0.29397 0.50688 0.06100
H 	H 	0.00676 0.30816 0.38207 0.04900
C 	C 	0.60138 0.58891 0.05881 -0.03600
C 	C 	0.61669 0.63396 0.05616 0.02200
C 	C 	0.58757 0.66967 0.05459 -0.05500
C 	C 	0.54376 0.66064 0.05029 0.02700
C 	C 	0.52928 0.61526 0.04527 -0.07200
C 	C 	0.55770 0.57986 0.05395 0.01200
C 	C 	0.66275 0.64337 0.04854 0.02700
C 	C 	0.67868 0.64666 0.00368 -0.06700
C 	C 	0.72262 0.64310 0.99476 0.03800
C 	C 	0.75083 0.63585 0.03104 -0.07800
C 	C 	0.73539 0.63870 0.07619 0.01600
C 	C 	0.69144 0.64241 0.08509 -0.04000
C 	C 	0.73847 0.64611 0.94830 0.08100
C 	C 	0.67586 0.64320 0.13171 0.09800
C 	C 	0.63059 0.55169 0.06413 0.09700
C 	C 	0.51410 0.69783 0.05276 0.08600
N 	N 	0.75118 0.64850 0.91110 -0.09700
N 	N 	0.66334 0.64381 0.16905 -0.10700
N 	N 	0.49041 0.72771 0.05491 -0.11100
N 	N 	0.65403 0.52191 0.06839 -0.10800
H 	H 	0.54628 0.54500 0.05333 0.04300
H 	H 	0.59915 0.70445 0.05523 0.05700
H 	H 	0.65665 0.64950 0.97560 0.06500
H 	H 	0.75723 0.63488 0.10432 0.05100
C 	C 	0.09564 0.64238 0.04297 -0.03900
C 	C 	0.11988 0.62328 0.00689 0.02200
C 	C 	0.09907 0.59941 0.97225 -0.05500
C 	C 	0.05473 0.59323 0.97384 0.03300
C 	C 	0.03080 0.60897 0.01199 -0.08600
C 	C 	0.05139 0.63457 0.04570 0.01600
C 	C 	0.16728 0.62323 0.00791 0.02300
C 	C 	0.18765 0.59853 0.04198 -0.05700
C 	C 	0.23182 0.59186 0.03992 0.03100
C 	C 	0.25593 0.60837 0.00219 -0.08700
C 	C 	0.23588 0.63439 0.96886 0.02100
C 	C 	0.19187 0.64279 0.97208 -0.03700
C 	C 	0.25201 0.56814 0.07679 0.08400
C 	C 	0.17225 0.67189 0.93894 0.09900
C 	C 	0.11590 0.67027 0.07706 0.10100
C 	C 	0.03394 0.57257 0.93523 0.06700
N 	N 	0.26775 0.54922 0.10666 -0.09500
N 	N 	0.15648 0.69521 0.91241 -0.10600
N 	N 	0.01737 0.55602 0.90427 -0.12100
N 	N 	0.13215 0.69262 0.10436 -0.10500
H 	H 	0.03301 0.64821 0.07415 0.05000
H 	H 	0.11758 0.58521 0.94418 0.06000
H 	H 	0.16887 0.58370 0.06970 0.06000
H 	H 	0.25456 0.64828 0.94058 0.04600
C 	C 	0.81151 0.45517 0.80697 -0.03600
C 	C 	0.81509 0.48472 0.76931 0.02200
C 	C 	0.81931 0.53149 0.77681 -0.05400
C 	C 	0.82555 0.54822 0.82103 0.02700
C 	C 	0.82837 0.51772 0.85801 -0.06800
C 	C 	0.81831 0.47171 0.85109 0.01100
C 	C 	0.82324 0.46637 0.72293 0.02500
C 	C 	0.78911 0.45953 0.69308 -0.05500
C 	C 	0.79615 0.43938 0.65021 0.02700
C 	C 	0.83777 0.42555 0.63729 -0.07000
C 	C 	0.87190 0.43342 0.66690 0.01800
C 	C 	0.86493 0.45391 0.70932 -0.03700
C 	C 	0.76051 0.43267 0.62011 0.08500
C 	C 	0.90077 0.46193 0.73891 0.09900
C 	C 	0.80313 0.40741 0.80033 0.09600
C 	C 	0.82916 0.59656 0.82816 0.08800
N 	N 	0.73193 0.42742 0.59598 -0.10200
N 	N 	0.92943 0.46837 0.76265 -0.10800
N 	N 	0.83209 0.63528 0.83386 -0.09500
N 	N 	0.79643 0.36914 0.79496 -0.10600
H 	H 	0.81843 0.44831 0.87961 0.05200
H 	H 	0.82014 0.55456 0.74800 0.05900
H 	H 	0.75706 0.46939 0.70343 0.05800
H 	H 	0.90408 0.42386 0.65668 0.04500
C 	C 	0.84978 0.46205 0.18989 -0.03900
C 	C 	0.87548 0.47823 0.22561 0.02400
C 	C 	0.89911 0.51846 0.21984 -0.05600
C 	C 	0.89548 0.54405 0.17995 0.03200
C 	C 	0.87074 0.52716 0.14341 -0.07600
C 	C 	0.84837 0.48592 0.14876 0.01700
C 	C 	0.87600 0.45454 0.27013 0.02400
C 	C 	0.89400 0.41129 0.27289 -0.05600
C 	C 	0.89020 0.38598 0.31316 0.02900
C 	C 	0.87029 0.40530 0.35224 -0.08000
C 	C 	0.85509 0.44991 0.35013 0.01600
C 	C 	0.85685 0.47409 0.30919 -0.04000
C 	C 	0.90509 0.33975 0.31324 0.08300
C 	C 	0.83779 0.51848 0.30718 0.09500
C 	C 	0.82401 0.42146 0.19552 0.09600
C 	C 	0.91507 0.58859 0.17809 0.08800
N 	N 	0.91705 0.30273 0.31321 -0.10700
N 	N 	0.82253 0.55402 0.30556 -0.10900
N 	N 	0.93080 0.62424 0.17671 -0.10600
N 	N 	0.80337 0.38896 0.20006 -0.10700
H 	H 	0.82962 0.47251 0.12091 0.04600
H 	H 	0.91889 0.53088 0.24736 0.06100
H 	H 	0.90940 0.39660 0.24301 0.05800
H 	H 	0.84094 0.46544 0.38027 0.04300
C 	C 	0.01968 0.64572 0.44860 -0.03300
C 	C 	0.97745 0.62880 0.44889 0.01900
C 	C 	0.94350 0.65826 0.44082 -0.05400
C 	C 	0.95076 0.70509 0.43850 0.02700
C 	C 	0.99252 0.72258 0.44484 -0.07700
C 	C 	0.02707 0.69249 0.44578 0.01700
C 	C 	0.96795 0.58193 0.46379 0.02600
C 	C 	0.95629 0.57390 0.50947 -0.06000
C 	C 	0.94120 0.53115 0.52319 0.02900
C 	C 	0.93864 0.49565 0.49100 -0.08400
C 	C 	0.95354 0.50292 0.44612 0.01700
C 	C 	0.96745 0.54600 0.43218 -0.04100
C 	C 	0.92628 0.52479 0.56966 0.08300
C 	C 	0.97974 0.55343 0.38506 0.09500
C 	C 	0.05544 0.61548 0.45304 0.09800
C 	C 	0.91502 0.73479 0.43128 0.08300
N 	N 	0.91434 0.51981 0.60689 -0.10500
N 	N 	0.98955 0.55939 0.34730 -0.11100
N 	N 	0.88632 0.75852 0.42550 -0.10900
N 	N 	0.08407 0.59122 0.45660 -0.10600
H 	H 	0.05951 0.70567 0.44767 0.04700
H 	H 	0.91113 0.64489 0.43884 0.05700
H 	H 	0.95735 0.60151 0.53392 0.06200
H 	H 	0.95229 0.47548 0.42148 0.04600
C 	C 	0.92170 0.07467 0.49519 -0.03700
C 	C 	0.90832 0.07714 0.54134 0.02600
C 	C 	0.90385 0.03735 0.56686 -0.07400
C 	C 	0.91860 0.99636 0.54898 0.04200
C 	C 	0.93931 0.99559 0.50592 -0.06600
C 	C 	0.93733 0.03380 0.47770 -0.00100
C 	C 	0.90455 0.12136 0.56437 0.01900
C 	C 	0.86411 0.14058 0.57037 -0.05500
C 	C 	0.86048 0.18759 0.57481 0.02700
C 	C 	0.89739 0.21518 0.57038 -0.07100
C 	C 	0.93758 0.19518 0.57539 0.01100
C 	C 	0.94134 0.14808 0.57220 -0.03400
C 	C 	0.81876 0.20750 0.58047 0.08100
C 	C 	0.98311 0.12769 0.57356 0.09000
C 	C 	0.92140 0.11443 0.46645 0.09500
C 	C 	0.91379 0.95551 0.57558 0.07800
N 	N 	0.78526 0.22335 0.58503 -0.10300
N 	N 	0.01656 0.11130 0.57460 -0.10600
N 	N 	0.90973 0.92280 0.59696 -0.09600
N 	N 	0.92116 0.14634 0.44350 -0.11100
H 	H 	0.95126 0.03277 0.44361 0.05100
H 	H 	0.89104 0.03873 0.60143 0.05700
H 	H 	0.83561 0.11948 0.56817 0.05500
H 	H 	0.96615 0.21628 0.57640 0.05400
C 	C 	0.80491 0.84260 0.53656 -0.03700
C 	C 	0.79136 0.79732 0.54255 0.02500
C 	C 	0.82175 0.76294 0.54619 -0.05600
C 	C 	0.86564 0.77321 0.54286 0.02900
C 	C 	0.87932 0.81866 0.53530 -0.07400
C 	C 	0.84850 0.85299 0.53295 0.01700
C 	C 	0.74515 0.78585 0.54445 0.02200
C 	C 	0.72333 0.77880 0.50355 -0.05400
C 	C 	0.67876 0.78313 0.50238 0.02700
C 	C 	0.65590 0.79498 0.54241 -0.06900
C 	C 	0.67710 0.79568 0.58428 0.01200
C 	C 	0.72162 0.79103 0.58548 -0.03600
C 	C 	0.65675 0.77575 0.46001 0.08700
C 	C 	0.74319 0.79416 0.62859 0.09600
C 	C 	0.77410 0.87864 0.53336 0.09900
C 	C 	0.89598 0.73683 0.54677 0.08500
N 	N 	0.63907 0.76983 0.42610 -0.10000
N 	N 	0.76052 0.79667 0.66311 -0.10600
N 	N 	0.92018 0.70758 0.54999 -0.11000
N 	N 	0.74938 0.90745 0.53079 -0.10700
H 	H 	0.85845 0.88785 0.52715 0.05300
H 	H 	0.81124 0.72814 0.55133 0.05700
H 	H 	0.74129 0.77278 0.47220 0.06000
H 	H 	0.65938 0.80290 0.61551 0.05000
C 	C 	0.21400 0.77106 0.53688 -0.03800
C 	C 	0.24202 0.80080 0.55982 0.02400
C 	C 	0.22688 0.84252 0.57582 -0.05600
C 	C 	0.18612 0.85718 0.56439 0.02900
C 	C 	0.15862 0.82816 0.53994 -0.07400
C 	C 	0.17218 0.78462 0.52784 0.01200
C 	C 	0.28869 0.79447 0.55673 0.02700
C 	C 	0.30976 0.80744 0.51636 -0.06100
C 	C 	0.35320 0.81847 0.51638 0.03200
C 	C 	0.37684 0.81377 0.55698 -0.09200
C 	C 	0.35660 0.79595 0.59618 0.01900
C 	C 	0.31257 0.78643 0.59627 -0.04100
C 	C 	0.37314 0.83435 0.47447 0.05900
C 	C 	0.29198 0.76906 0.63714 0.10200
C 	C 	0.22848 0.72749 0.52076 0.09800
C 	C 	0.17388 0.90310 0.57527 0.08000
N 	N 	0.38887 0.84714 0.44082 -0.12900
N 	N 	0.27544 0.75512 0.66988 -0.10500
N 	N 	0.16435 0.94000 0.58381 -0.10600
N 	N 	0.23988 0.69258 0.50761 -0.10500
H 	H 	0.15060 0.76182 0.51016 0.04100
H 	H 	0.24834 0.86529 0.59370 0.06100
H 	H 	0.29148 0.81236 0.48560 0.06100
H 	H 	0.37484 0.79060 0.62687 0.04800
C 	C 	0.97706 0.86879 0.00838 -0.05100
C 	C 	0.00005 0.84172 0.97675 0.04300
C 	C 	0.03980 0.85707 0.95990 -0.06200
C 	C 	0.05760 0.89761 0.97581 0.03800
C 	C 	0.03273 0.92701 0.00336 -0.07800
C 	C 	0.99290 0.91183 0.02040 0.01600
C 	C 	0.98343 0.79652 0.96217 0.00700
C 	C 	0.94431 0.79341 0.93934 -0.04600
C 	C 	0.92614 0.75084 0.92976 0.02200
C 	C 	0.94813 0.71100 0.94125 -0.06600
C 	C 	0.99003 0.71452 0.95723 -0.00200
C 	C 	0.00681 0.75661 0.97035 -0.02200
C 	C 	0.88485 0.74826 0.90844 0.08900
C 	C 	0.04676 0.75821 0.99447 0.09500
C 	C 	0.93773 0.85239 0.02923 0.09600
C 	C 	0.10240 0.90696 0.96691 0.07800
N 	N 	0.85176 0.74617 0.89137 -0.09600
N 	N 	0.07877 0.75950 0.01375 -0.10800
N 	N 	0.13829 0.91440 0.95981 -0.10800
N 	N 	0.90622 0.83923 0.04593 -0.11200
H 	H 	0.97404 0.93358 0.04256 0.04700
H 	H 	0.05776 0.83636 0.93591 0.06800
H 	H 	0.92738 0.82404 0.93051 0.05800
H 	H 	0.00825 0.68413 0.96300 0.05500
C 	C 	0.96775 0.26918 0.05607 -0.03200
C 	C 	0.99518 0.30676 0.04846 0.01500
C 	C 	0.03942 0.30167 0.05320 -0.04800
C 	C 	0.05667 0.25868 0.06069 0.02100
C 	C 	0.02960 0.22004 0.06134 -0.06500
C 	C 	0.98507 0.22598 0.06210 0.00400
C 	C 	0.97806 0.35093 0.03316 0.02400
C 	C 	0.97830 0.38801 0.06307 -0.06000
C 	C 	0.96134 0.42967 0.04968 0.03200
C 	C 	0.94251 0.43397 0.00644 -0.08700
C 	C 	0.94410 0.39754 0.97571 0.02100
C 	C 	0.96217 0.35624 0.98864 -0.03700
C 	C 	0.96522 0.46836 0.07960 0.08000
C 	C 	0.96422 0.31948 0.95613 0.09800
C 	C 	0.92190 0.27458 0.05701 0.09400
C 	C 	0.10206 0.25446 0.06791 0.08600
N 	N 	0.96856 0.49933 0.10357 -0.10000
N 	N 	0.96586 0.28997 0.93014 -0.10900
N 	N 	0.13843 0.25107 0.07368 -0.10400
N 	N 	0.88516 0.27896 0.05779 -0.10500
H 	H 	0.96392 0.19673 0.06463 0.05100
H 	H 	0.06046 0.33098 0.04993 0.05600
H 	H 	0.99182 0.38446 0.09674 0.05600
H 	H 	0.93032 0.40096 0.94215 0.04800
C 	C 	0.77083 0.16018 0.99468 -0.02800
C 	C 	0.79853 0.12524 0.98060 0.02000
C 	C 	0.78175 0.08229 0.97041 -0.05500
C 	C 	0.73810 0.07311 0.97652 0.03300
C 	C 	0.71061 0.10742 0.99292 -0.06900
C 	C 	0.72702 0.15111 0.00074 0.00400
C 	C 	0.84545 0.13111 0.98288 0.03000
C 	C 	0.86582 0.12105 0.02377 -0.06300
C 	C 	0.91008 0.11508 0.02452 0.02700
C 	C 	0.93468 0.12052 0.98396 -0.08200
C 	C 	0.91473 0.13474 0.94395 0.01700
C 	C 	0.87016 0.13968 0.94311 -0.04100
C 	C 	0.92977 0.10235 0.06685 0.05900
C 	C 	0.84995 0.15271 0.90121 0.09900
C 	C 	0.78708 0.20541 0.00267 0.09200
C 	C 	0.72175 0.02851 0.96550 0.06800
N 	N 	0.94531 0.09207 0.10085 -0.12600
N 	N 	0.83371 0.16315 0.86764 -0.10700
N 	N 	0.70872 0.99277 0.95667 -0.09500
N 	N 	0.80007 0.24169 0.00902 -0.10300
H 	H 	0.70577 0.17788 0.01203 0.04600
H 	H 	0.80303 0.05557 0.95904 0.05700
H 	H 	0.84683 0.11547 0.05459 0.05800
H 	H 	0.93365 0.14020 0.91308 0.04500
C 	C 	0.37703 0.18583 0.97277 -0.03800
C 	C 	0.34693 0.15219 0.96058 0.02400
C 	C 	0.36122 0.10963 0.94600 -0.05800
C 	C 	0.40460 0.09882 0.94779 0.03000
C 	C 	0.43413 0.13052 0.96551 -0.08300
C 	C 	0.42055 0.17491 0.97489 0.01700
C 	C 	0.30027 0.15971 0.96588 0.02600
C 	C 	0.27503 0.16055 0.92676 -0.05700
C 	C 	0.23110 0.15090 0.92986 0.02500
C 	C 	0.21181 0.14217 0.97299 -0.06700
C 	C 	0.23606 0.14778 0.01248 0.00900
C 	C 	0.28022 0.15579 0.00919 -0.03800
C 	C 	0.20686 0.14704 0.88844 0.08900
C 	C 	0.30508 0.15714 0.05028 0.09700
C 	C 	0.36348 0.23119 0.98405 0.09700
C 	C 	0.41853 0.05530 0.93100 0.08200
N 	N 	0.18748 0.14393 0.85525 -0.09900
N 	N 	0.32493 0.15819 0.08326 -0.10500
N 	N 	0.42932 0.02033 0.91745 -0.11200
N 	N 	0.35265 0.26754 0.99313 -0.11000
H 	H 	0.44347 0.20029 0.98594 0.04500
H 	H 	0.33829 0.08440 0.93457 0.05800
H 	H 	0.29021 0.16503 0.89351 0.05800
H 	H 	0.22104 0.14283 0.04574 0.04700
C 	C 	0.06587 0.95465 0.82561 -0.05200
C 	C 	0.05636 0.97514 0.78362 0.04900
C 	C 	0.05631 0.02256 0.78004 -0.08300
C 	C 	0.06701 0.04962 0.81754 0.04500
C 	C 	0.07735 0.02903 0.85937 -0.10100
C 	C 	0.07684 0.98162 0.86297 0.04300
C 	C 	0.05204 0.94741 0.74188 0.01600
C 	C 	0.01156 0.93174 0.72875 -0.04700
C 	C 	0.00666 0.90871 0.68722 0.02900
C 	C 	0.04215 0.90456 0.65709 -0.07500
C 	C 	0.08319 0.91512 0.67306 0.01400
C 	C 	0.08825 0.93710 0.71485 -0.03200
C 	C 	0.96740 0.88411 0.67920 0.08700
C 	C 	0.13066 0.94973 0.72943 0.10000
C 	C 	0.06487 0.90592 0.83047 0.10200
C 	C 	0.06937 0.09826 0.81214 0.08000
N 	N 	0.93601 0.86401 0.67324 -0.09500
N 	N 	0.16461 0.95986 0.74113 -0.10300
N 	N 	0.07128 0.13723 0.80781 -0.10000
N 	N 	0.06406 0.86688 0.83437 -0.11200
H 	H 	0.08487 0.96573 0.89489 0.04500
H 	H 	0.04935 0.03831 0.74758 0.06300
H 	H 	0.98408 0.93682 0.75116 0.05500
H 	H 	0.11109 0.90760 0.65216 0.05500
C 	C 	0.12884 0.93355 0.30455 -0.03200
C 	C 	0.10373 0.95980 0.27515 0.01800
C 	C 	0.06221 0.97202 0.28873 -0.04900
C 	C 	0.04535 0.95793 0.33096 0.02500
C 	C 	0.07015 0.93110 0.36011 -0.06700
C 	C 	0.11193 0.91939 0.34691 0.00900
C 	C 	0.11983 0.97335 0.22922 0.04600
C 	C 	0.11422 0.94368 0.19240 -0.06800
C 	C 	0.11756 0.95972 0.14745 0.04800
C 	C 	0.12605 0.00623 0.13922 -0.09400
C 	C 	0.13752 0.03418 0.17596 0.02400
C 	C 	0.13422 0.01805 0.22089 -0.06000
C 	C 	0.11101 0.92848 0.11025 0.08600
C 	C 	0.14411 0.04802 0.25831 0.09900
C 	C 	0.17192 0.92121 0.29161 0.09700
C 	C 	0.00258 0.97127 0.34421 0.09200
N 	N 	0.10585 0.90318 0.08063 -0.10000
N 	N 	0.15202 0.07200 0.28833 -0.11000
N 	N 	0.96831 0.98197 0.35477 -0.10600
N 	N 	0.20645 0.91134 0.28120 -0.10500
H 	H 	0.13118 0.89909 0.36947 0.04300
H 	H 	0.04293 0.99231 0.26618 0.06100
H 	H 	0.10501 0.90868 0.19877 0.06300
H 	H 	0.14602 0.06941 0.16976 0.04300
