data_crystal

_cell_length_a 24.78800
_cell_length_b 21.59435
_cell_length_c 53.24334
_cell_angle_alpha 90.55589
_cell_angle_beta  91.25272
_cell_angle_gamma 110.69367

_symmetry_space_group_name_	'P 1'
_symmetry_space_group_name_H-M	'P 1'

loop_
_symmetry_equiv_pos_as_xyz
  x,y,z

loop_
_atom_site_label
_atom_site_type_symbol
_atom_site_fract_x
_atom_site_fract_y
_atom_site_fract_z
_atom_site_charge
C 	C 	0.00294 0.80720 0.66011 -0.08500
C 	C 	0.00007 0.31836 0.11214 0.00000
C 	C 	0.00790 0.81114 0.31073 0.00100
H 	H 	0.01251 0.12113 0.69632 0.05300
N 	N 	0.01145 0.64004 0.64792 -0.02100
O 	O 	0.01801 0.88705 0.79308 -0.35300
O 	O 	0.01397 0.99267 0.69734 -0.36200
C 	C 	0.01461 0.85393 0.68148 0.28000
O 	O 	0.01287 0.81873 0.11510 -0.07000
O 	O 	0.01222 0.84524 0.36595 -0.07400
O 	O 	0.01594 0.61566 0.66978 -0.07800
C 	C 	0.01263 0.58631 0.02388 0.01500
Ni	Ni	0.01358 0.15595 0.20489 1.07400
N 	N 	0.00928 0.24462 0.07810 -0.02600
C 	C 	0.02198 0.20030 0.83249 -0.08400
N 	N 	0.01741 0.82982 0.13925 -0.02200
N 	N 	0.01790 0.88557 0.34738 -0.02200
C 	C 	0.01972 0.75178 0.66187 -0.02100
C 	C 	0.02033 0.03775 0.17888 0.29700
C 	C 	0.02172 0.93159 0.16118 -0.01500
O 	O 	0.02670 0.61595 0.62792 -0.07900
C 	C 	0.02738 0.16741 0.26099 0.28600
C 	C 	0.03248 0.51919 0.52279 0.10400
C 	C 	0.02824 0.61765 0.04851 0.10400
H 	H 	0.03450 0.25079 0.83956 0.09300
C 	C 	0.03243 0.26584 0.28722 0.11000
C 	C 	0.03191 0.42621 0.08932 0.05100
C 	C 	0.03982 0.53480 0.45442 -0.04200
O 	O 	0.04244 0.90312 0.73935 -0.71000
C 	C 	0.04324 0.48588 0.47104 0.01900
N 	N 	0.04069 0.64271 0.06817 -0.08100
O 	O 	0.04085 0.07841 0.19807 -0.39000
O 	O 	0.03724 0.20410 0.07576 -0.07700
C 	C 	0.04069 0.56680 0.98173 0.01000
C 	C 	0.04690 0.11281 0.81226 -0.10100
O 	O 	0.04402 0.94888 0.35117 -0.08100
C 	C 	0.04578 0.37577 0.10138 0.03800
H 	H 	0.04667 0.35870 0.30649 0.08700
C 	C 	0.05005 0.89450 0.14908 0.06900
C 	C 	0.04989 0.73592 0.33285 0.05700
H 	H 	0.05102 0.75060 0.67622 0.06100
C 	C 	0.05237 0.99680 0.16943 -0.08500
H 	H 	0.05705 0.05205 0.74097 0.15900
O 	O 	0.05339 0.16389 0.24010 -0.39000
C 	C 	0.05741 0.21965 0.27953 -0.07900
C 	C 	0.05781 0.79472 0.31982 0.03400
C 	C 	0.05598 0.58796 0.00684 -0.06400
Ni	Ni	0.06054 0.96413 0.77028 1.09900
H 	H 	0.05973 0.86831 0.74055 0.16700
C 	C 	0.06358 0.17792 0.82220 0.13600
H 	H 	0.06496 0.51897 0.07035 0.07300
C 	C 	0.06588 0.32306 0.30070 -0.06400
O 	O 	0.06667 0.89983 0.68444 -0.35700
N 	N 	0.06889 0.56309 0.53238 -0.09400
O 	O 	0.99919 0.27465 0.05846 -0.06400
Ni	Ni	0.70736 0.30094 0.89047 1.10300
O 	O 	0.66138 0.25711 0.85860 -0.70000
Ni	Ni	0.58481 0.26418 0.86521 1.10700
O 	O 	0.77936 0.28549 0.87795 -0.34600
O 	O 	0.72931 0.17489 0.87168 -0.38100
O 	O 	0.72946 0.38593 0.87012 -0.36700
Ni	Ni	0.64995 0.16401 0.85459 1.08600
O 	O 	0.67848 0.36196 0.94315 -0.39600
O 	O 	0.61297 0.14204 0.88877 -0.40200
O 	O 	0.54817 0.22893 0.83105 -0.36000
O 	O 	0.62723 0.29441 0.89915 -0.69600
O 	O 	0.75487 0.35218 0.92122 -0.36100
O 	O 	0.51807 0.29672 0.87309 -0.34600
O 	O 	0.58316 0.39676 0.88496 -0.39700
Ni	Ni	0.63222 0.37932 0.91406 1.08200
H 	H 	0.67769 0.28130 0.84322 0.18900
H 	H 	0.61267 0.25965 0.91183 0.17200
C 	C 	0.55832 0.13344 0.89114 0.29400
O 	O 	0.70661 0.44631 0.90074 -0.38800
C 	C 	0.77590 0.22753 0.86857 0.29900
C 	C 	0.55158 0.17322 0.82182 0.29500
C 	C 	0.72759 0.44234 0.87864 0.32300
C 	C 	0.52932 0.35725 0.88192 0.28700
C 	C 	0.73382 0.37084 0.94149 0.29900
O 	O 	0.53649 0.17342 0.87972 -0.35500
O 	O 	0.57077 0.13526 0.83638 -0.37400
Ni	Ni	0.63250 0.33340 0.56609 1.10400
O 	O 	0.69754 0.33484 0.54267 -0.69900
Ni	Ni	0.75224 0.31516 0.56687 1.10400
O 	O 	0.60151 0.39080 0.54364 -0.35700
O 	O 	0.69232 0.46661 0.54039 -0.39800
O 	O 	0.57744 0.25024 0.54742 -0.35900
Ni	Ni	0.73938 0.41448 0.52452 1.08000
O 	O 	0.55737 0.21299 0.59552 -0.37700
O 	O 	0.80845 0.46224 0.54798 -0.37400
O 	O 	0.82593 0.33643 0.54605 -0.35400
O 	O 	0.68108 0.29928 0.58829 -0.70100
O 	O 	0.56852 0.32268 0.59093 -0.36100
O 	O 	0.78965 0.27703 0.59446 -0.34300
O 	O 	0.71146 0.18069 0.59410 -0.39000
Ni	Ni	0.63775 0.20615 0.59383 1.08200
H 	H 	0.68382 0.29804 0.53021 0.16700
H 	H 	0.69044 0.32444 0.60443 0.18100
C 	C 	0.80672 0.46268 0.57252 0.31300
O 	O 	0.62645 0.18102 0.55663 -0.39900
C 	C 	0.63655 0.44818 0.53572 0.27900
C 	C 	0.83194 0.35892 0.52275 0.30000
C 	C 	0.59005 0.19728 0.54224 0.29200
C 	C 	0.76125 0.21911 0.60423 0.29800
C 	C 	0.54677 0.26628 0.60307 0.29900
O 	O 	0.78417 0.40667 0.58451 -0.37300
O 	O 	0.78826 0.36595 0.50988 -0.39500
Ni	Ni	0.08037 0.96796 0.71283 1.10000
O 	O 	0.93617 0.85956 0.76819 -0.38200
O 	O 	0.13395 0.94154 0.77398 -0.36800
Ni	Ni	0.96075 0.86495 0.73077 1.08000
O 	O 	0.12077 0.13093 0.78125 -0.37000
O 	O 	0.95041 0.95463 0.72893 -0.39100
O 	O 	0.08588 0.03025 0.74275 -0.69800
O 	O 	0.08537 0.02916 0.80016 -0.35300
O 	O 	0.13789 0.03969 0.69151 -0.35200
O 	O 	0.20339 0.07317 0.72436 -0.38900
Ni	Ni	0.15911 0.09898 0.75293 1.08800
C 	C 	0.96900 0.99363 0.70980 0.31400
O 	O 	0.19083 0.04961 0.77817 -0.36200
C 	C 	0.96605 0.84550 0.78667 0.29800
C 	C 	0.18517 0.98774 0.77432 0.31000
C 	C 	0.18956 0.07627 0.70051 0.29300
C 	C 	0.08734 0.09085 0.79795 0.30400
O 	O 	0.96971 0.86110 0.69266 -0.36600
Ni	Ni	0.25481 0.69389 0.39134 1.10100
O 	O 	0.31703 0.73216 0.36522 -0.70100
Ni	Ni	0.38717 0.72704 0.38388 1.10100
O 	O 	0.19159 0.71477 0.37155 -0.35400
O 	O 	0.24669 0.82036 0.36238 -0.36900
O 	O 	0.22216 0.60490 0.37152 -0.36100
Ni	Ni	0.33213 0.82656 0.35973 1.08000
O 	O 	0.22040 0.55984 0.41772 -0.37400
O 	O 	0.33997 0.84793 0.39736 -0.40200
O 	O 	0.44523 0.76735 0.35673 -0.36600
O 	O 	0.32444 0.68761 0.40969 -0.70100
O 	O 	0.19799 0.65379 0.41901 -0.36700
O 	O 	0.44926 0.70607 0.40477 -0.34500
O 	O 	0.39316 0.59883 0.41096 -0.37800
Ni	Ni	0.30825 0.59244 0.41422 1.08400
H 	H 	0.30932 0.70636 0.34924 0.16600
H 	H 	0.33174 0.71233 0.42589 0.17300
C 	C 	0.38659 0.85144 0.41023 0.29300
O 	O 	0.30036 0.57446 0.37670 -0.39900
C 	C 	0.20194 0.76654 0.35715 0.29700
C 	C 	0.44988 0.82462 0.34677 0.29900
C 	C 	0.25204 0.56809 0.36485 0.31000
C 	C 	0.43663 0.65187 0.41795 0.28600
C 	C 	0.19135 0.59454 0.42760 0.28800
O 	O 	0.41808 0.81697 0.40303 -0.35300
O 	O 	0.41995 0.85970 0.35571 -0.37500
Ni	Ni	0.33443 0.65506 0.04171 1.10300
O 	O 	0.25796 0.63953 0.02265 -0.70200
Ni	Ni	0.21734 0.67853 0.04721 1.10200
O 	O 	0.36323 0.60382 0.01572 -0.34800
O 	O 	0.28076 0.51323 0.01509 -0.38000
O 	O 	0.37682 0.73499 0.01956 -0.35700
Ni	Ni	0.21123 0.54526 0.01837 1.07700
O 	O 	0.41919 0.78458 0.06451 -0.39200
O 	O 	0.21462 0.52841 0.05575 -0.39600
O 	O 	0.14411 0.66076 0.02598 -0.36700
O 	O 	0.29352 0.69411 0.06634 -0.70000
O 	O 	0.40888 0.67538 0.06252 -0.35100
O 	O 	0.18837 0.73166 0.07240 -0.34300
O 	O 	0.27060 0.82248 0.07293 -0.39300
Ni	Ni	0.33907 0.78941 0.06882 1.07800
H 	H 	0.26287 0.66257 0.00644 0.17100
H 	H 	0.28884 0.67229 0.08283 0.18500
C 	C 	0.17902 0.54203 0.07066 0.31900
O 	O 	0.32936 0.80271 0.03154 -0.40800
C 	C 	0.32939 0.54850 0.00476 0.28500
C 	C 	0.11550 0.60170 0.01618 0.29000
C 	C 	0.35953 0.78485 0.01505 0.29500
C 	C 	0.22137 0.78800 0.08288 0.30700
C 	C 	0.43501 0.73537 0.07205 0.30500
O 	O 	0.17331 0.60035 0.06990 -0.35400
O 	O 	0.13074 0.55049 0.02176 -0.39700
Ni	Ni	0.94303 0.03856 0.24342 1.10200
O 	O 	0.93680 0.10050 0.21584 -0.70600
Ni	Ni	0.90153 0.03645 0.18756 1.10100
O 	O 	0.98202 0.11721 0.26765 -0.33000
O 	O 	0.86465 0.03279 0.25847 -0.34200
O 	O 	0.86691 0.89751 0.26130 -0.37900
O 	O 	0.89532 0.10573 0.16281 -0.34800
O 	O 	0.91581 0.97370 0.21393 -0.69000
O 	O 	0.95420 0.97712 0.26995 -0.36300
O 	O 	0.84846 0.96445 0.16355 -0.34300
O 	O 	0.81778 0.87230 0.18729 -0.37000
Ni	Ni	0.84832 0.89863 0.22387 1.08600
H 	H 	0.91269 0.12679 0.22034 0.18200
H 	H 	0.94677 0.95712 0.20936 0.17100
O 	O 	0.80498 0.96139 0.22885 -0.41900
C 	C 	0.94148 0.15923 0.15953 0.29400
C 	C 	0.81228 0.99640 0.24978 0.30500
C 	C 	0.80631 0.91254 0.17149 0.30100
C 	C 	0.92002 0.91508 0.27043 0.30800
O 	O 	0.97100 0.03293 0.16798 -0.34900
O 	O 	0.99263 0.16115 0.16790 -0.37900
C 	C 	0.10384 0.38162 0.10442 -0.07500
C 	C 	0.07605 0.48149 0.08030 0.00500
C 	C 	0.13413 0.48708 0.08300 -0.08900
C 	C 	0.14808 0.43713 0.09545 0.12700
N 	N 	0.97301 0.42122 0.08597 -0.01300
N 	N 	0.20705 0.44327 0.09958 -0.02400
H 	H 	0.11469 0.34354 0.11414 0.08900
C 	C 	0.98765 0.25408 0.10202 0.08700
C 	C 	0.95663 0.19892 0.11614 -0.00900
C 	C 	0.94000 0.20755 0.14057 -0.06800
C 	C 	0.94369 0.27129 0.14867 0.10300
C 	C 	0.97451 0.32662 0.13456 -0.04700
H 	H 	0.95092 0.14958 0.10920 0.08600
N 	N 	0.92043 0.28035 0.17227 -0.02800
H 	H 	0.98112 0.37602 0.14169 0.08900
O 	O 	0.22408 0.39510 0.09300 -0.07500
O 	O 	0.24269 0.49491 0.11150 -0.08000
O 	O 	0.95725 0.46995 0.09308 -0.07600
O 	O 	0.93639 0.37072 0.07383 -0.07200
O 	O 	0.86938 0.24100 0.17839 -0.08800
O 	O 	0.95000 0.32834 0.18754 -0.09100
C 	C 	0.70316 0.82358 0.11858 -0.07000
C 	C 	0.65127 0.82765 0.12700 0.03000
C 	C 	0.65080 0.86108 0.14984 0.06400
C 	C 	0.70197 0.88917 0.16414 -0.00600
C 	C 	0.75385 0.88554 0.15562 -0.08300
C 	C 	0.75447 0.85259 0.13270 0.13400
C 	C 	0.59799 0.79911 0.11134 0.02700
N 	N 	0.59852 0.86714 0.15844 -0.01700
H 	H 	0.70142 0.91429 0.18182 0.06100
N 	N 	0.80716 0.84862 0.12369 -0.02400
H 	H 	0.70368 0.79803 0.10101 0.09200
C 	C 	0.59119 0.82912 0.08871 0.06300
C 	C 	0.53891 0.80461 0.07505 0.00000
C 	C 	0.49243 0.75177 0.08416 -0.08200
C 	C 	0.49997 0.71991 0.10624 0.12000
C 	C 	0.55300 0.74323 0.11954 -0.06600
N 	N 	0.63673 0.88582 0.07994 -0.01700
H 	H 	0.53368 0.82843 0.05780 0.07600
N 	N 	0.45340 0.66538 0.11568 -0.02300
H 	H 	0.55845 0.71941 0.13675 0.08900
O 	O 	0.82649 0.87403 0.10219 -0.06300
O 	O 	0.83316 0.81490 0.13592 -0.06600
O 	O 	0.57984 0.84603 0.18054 -0.07800
O 	O 	0.57213 0.89838 0.14505 -0.07800
O 	O 	0.45920 0.60830 0.11853 -0.07300
O 	O 	0.40726 0.67431 0.12347 -0.09900
O 	O 	0.65819 0.88389 0.05800 -0.07800
O 	O 	0.65354 0.94092 0.09298 -0.07400
C 	C 	0.14628 0.82962 0.13813 -0.06700
C 	C 	0.13935 0.88797 0.12993 0.02800
C 	C 	0.15991 0.91360 0.10632 0.06200
C 	C 	0.18809 0.88145 0.09144 0.00100
C 	C 	0.19449 0.82275 0.09949 -0.08400
C 	C 	0.17331 0.79653 0.12293 0.12200
C 	C 	0.11012 0.92195 0.14594 0.02600
N 	N 	0.15122 0.97163 0.09722 -0.01800
H 	H 	0.20359 0.90116 0.07325 0.07300
N 	N 	0.17937 0.73653 0.13140 -0.02300
H 	H 	0.13061 0.80991 0.15630 0.08800
C 	C 	0.11283 0.02340 0.16707 0.12800
C 	C 	0.14146 0.98510 0.15597 -0.07000
H 	H 	0.97541 0.91044 0.16337 0.07600
N 	N 	0.14480 0.09049 0.17448 -0.02300
H 	H 	0.18777 0.00604 0.15379 0.08900
O 	O 	0.13418 0.68725 0.13798 -0.07200
O 	O 	0.23037 0.73262 0.13401 -0.10500
O 	O 	0.19523 0.02283 0.09102 -0.07900
O 	O 	0.09918 0.97159 0.09344 -0.07000
O 	O 	0.18450 0.10317 0.19214 -0.08100
O 	O 	0.13818 0.13884 0.16195 -0.08500
O 	O 	0.98816 0.78365 0.15430 -0.06700
C 	C 	0.70478 0.93903 0.30146 -0.07000
C 	C 	0.65543 0.94436 0.28981 0.02700
C 	C 	0.66005 0.97650 0.26659 0.06500
C 	C 	0.71288 0.99761 0.25428 -0.00200
C 	C 	0.76161 0.98875 0.26528 -0.08500
C 	C 	0.75797 0.96201 0.28959 0.12500
C 	C 	0.59900 0.91548 0.30198 0.03000
N 	N 	0.61157 0.98869 0.25564 -0.01700
H 	H 	0.71556 0.01923 0.23585 0.06600
N 	N 	0.80785 0.95670 0.30206 -0.02500
H 	H 	0.70177 0.91649 0.31973 0.08900
C 	C 	0.56661 0.84729 0.29926 0.06400
C 	C 	0.51678 0.81898 0.31324 -0.00400
C 	C 	0.49995 0.85735 0.33072 -0.08100
C 	C 	0.53313 0.92562 0.33370 0.12500
C 	C 	0.58127 0.95443 0.31877 -0.07200
N 	N 	0.58575 0.80594 0.28325 -0.01700
H 	H 	0.49179 0.76667 0.31085 0.06800
N 	N 	0.52069 0.96476 0.35302 -0.02300
H 	H 	0.60675 0.00658 0.32126 0.09000
O 	O 	0.80756 0.89901 0.30901 -0.07800
O 	O 	0.84912 0.00993 0.31010 -0.06600
O 	O 	0.61536 0.04895 0.25074 -0.07700
O 	O 	0.56534 0.93940 0.24879 -0.07100
O 	O 	0.52899 0.95367 0.37650 -0.07600
O 	O 	0.50781 0.01624 0.34708 -0.07800
O 	O 	0.59510 0.75491 0.29240 -0.08000
O 	O 	0.59046 0.81691 0.25927 -0.07600
C 	C 	0.12412 0.33463 0.30656 0.02500
C 	C 	0.14856 0.28739 0.29958 0.06400
C 	C 	0.11489 0.22984 0.28641 -0.00300
C 	C 	0.15858 0.39470 0.32109 0.03100
N 	N 	0.20796 0.29841 0.30537 -0.01700
H 	H 	0.13420 0.19430 0.28058 0.07500
N 	N 	0.97376 0.25608 0.28050 -0.02600
C 	C 	0.17568 0.45762 0.31007 0.06000
C 	C 	0.20740 0.51409 0.32441 0.00200
C 	C 	0.22331 0.50815 0.34944 -0.08900
C 	C 	0.20677 0.44499 0.36031 0.12900
C 	C 	0.17421 0.38887 0.34614 -0.07000
N 	N 	0.16089 0.46433 0.28435 -0.01700
H 	H 	0.21973 0.56254 0.31604 0.05800
N 	N 	0.22117 0.43789 0.38601 -0.02800
H 	H 	0.16098 0.34056 0.35466 0.09100
O 	O 	0.96196 0.29782 0.26591 -0.08300
O 	O 	0.93207 0.20865 0.29057 -0.06900
O 	O 	0.22193 0.25470 0.31793 -0.07800
O 	O 	0.24820 0.34975 0.29657 -0.07300
O 	O 	0.18053 0.41844 0.40232 -0.08700
O 	O 	0.27305 0.44082 0.39225 -0.10500
O 	O 	0.13303 0.50342 0.27856 -0.08500
O 	O 	0.17855 0.43485 0.26661 -0.07900
C 	C 	0.11377 0.83885 0.31563 -0.07100
C 	C 	0.09773 0.72466 0.34346 -0.00100
C 	C 	0.15359 0.77206 0.34140 -0.07900
C 	C 	0.16178 0.82688 0.32568 0.12100
N 	N 	0.99339 0.68739 0.33529 -0.01200
H 	H 	0.09117 0.67973 0.35378 0.08100
N 	N 	0.21850 0.86830 0.31882 -0.02300
H 	H 	0.12001 0.88226 0.30436 0.08500
C 	C 	0.99319 0.86072 0.32311 0.08600
C 	C 	0.95717 0.88895 0.31087 -0.00400
C 	C 	0.93695 0.86929 0.28620 -0.07700
C 	C 	0.94588 0.81426 0.27515 0.10700
C 	C 	0.98116 0.78521 0.28754 -0.04800
H 	H 	0.94825 0.92943 0.31987 0.08800
N 	N 	0.92249 0.79068 0.25063 -0.02800
H 	H 	0.99091 0.74555 0.27834 0.08700
O 	O 	0.23501 0.93214 0.32210 -0.08600
O 	O 	0.25185 0.84273 0.30745 -0.12800
O 	O 	0.98225 0.62725 0.32691 -0.07500
O 	O 	0.95450 0.70188 0.34757 -0.06600
O 	O 	0.94434 0.82495 0.23098 -0.13900
O 	O 	0.88308 0.73218 0.24778 -0.08700
C 	C 	0.46733 0.08014 0.50193 -0.03400
C 	C 	0.49800 0.06135 0.48314 0.02400
C 	C 	0.55868 0.09015 0.48288 -0.03400
C 	C 	0.58884 0.13567 0.50198 0.02400
C 	C 	0.55834 0.15195 0.52153 -0.07300
C 	C 	0.49742 0.12436 0.52140 0.02700
C 	C 	0.46669 0.00732 0.46476 0.02600
C 	C 	0.59002 0.07238 0.46305 0.11000
C 	C 	0.46584 0.13957 0.54175 0.10300
C 	C 	0.44876 0.02268 0.44106 -0.03200
C 	C 	0.42146 0.97165 0.42331 0.02900
C 	C 	0.41075 0.90481 0.42951 -0.06800
C 	C 	0.42733 0.88963 0.45355 0.02400
C 	C 	0.45557 0.94081 0.47104 -0.03500
C 	C 	0.45884 0.09108 0.43491 0.11200
C 	C 	0.41528 0.82141 0.46035 0.08400
C 	C 	0.40612 0.98810 0.39845 0.09900
C 	C 	0.47363 0.92513 0.49554 0.10700
C 	C 	0.40478 0.05323 0.50136 0.11000
C 	C 	0.65118 0.16601 0.50145 0.08000
N 	N 	0.39382 0.00124 0.37863 -0.09500
N 	N 	0.46693 0.14568 0.43003 -0.09500
N 	N 	0.40593 0.76711 0.46597 -0.11200
N 	N 	0.48807 0.91272 0.51508 -0.09900
N 	N 	0.61494 0.05814 0.44721 -0.09300
N 	N 	0.70092 0.19015 0.50103 -0.10600
N 	N 	0.44063 0.15167 0.55798 -0.08400
N 	N 	0.35487 0.03171 0.50088 -0.09500
C 	C 	0.98687 0.46419 0.51076 -0.02400
C 	C 	0.99170 0.44681 0.48554 0.03000
C 	C 	0.94745 0.39291 0.47396 -0.03400
C 	C 	0.89624 0.36038 0.48683 0.02500
C 	C 	0.88980 0.38092 0.51149 -0.06700
C 	C 	0.93725 0.42897 0.52411 0.02600
C 	C 	0.95450 0.37144 0.44875 0.11300
C 	C 	0.93599 0.44058 0.55092 0.11400
C 	C 	0.09538 0.47419 0.47411 -0.03100
C 	C 	0.14462 0.51260 0.46112 0.02400
C 	C 	0.14076 0.55958 0.44339 -0.06400
C 	C 	0.08735 0.56923 0.43967 0.02700
C 	C 	0.09825 0.42222 0.49057 0.10900
C 	C 	0.08004 0.61150 0.41988 0.10400
C 	C 	0.19907 0.50333 0.46594 0.08800
C 	C 	0.98713 0.54948 0.45241 0.12100
C 	C 	0.85088 0.30481 0.47499 0.09800
N 	N 	0.24226 0.49537 0.46979 -0.10600
N 	N 	0.10047 0.38077 0.50371 -0.09500
N 	N 	0.07389 0.64519 0.40415 -0.09000
N 	N 	0.94506 0.56111 0.45083 -0.09800
N 	N 	0.96019 0.35438 0.42862 -0.09300
N 	N 	0.81471 0.26047 0.46551 -0.09000
N 	N 	0.93541 0.44983 0.57234 -0.08400
C 	C 	0.56833 0.63478 0.45001 -0.03500
C 	C 	0.54390 0.60432 0.47241 0.02500
C 	C 	0.48875 0.60271 0.47902 -0.03400
C 	C 	0.45510 0.62356 0.46181 0.02400
C 	C 	0.47679 0.64650 0.43801 -0.07100
C 	C 	0.53459 0.65533 0.43262 0.02900
C 	C 	0.57273 0.56639 0.48735 0.02400
C 	C 	0.46593 0.57740 0.50321 0.10900
C 	C 	0.55849 0.68279 0.40885 0.10500
C 	C 	0.60553 0.59502 0.50920 -0.03500
C 	C 	0.62525 0.55590 0.52541 0.02600
C 	C 	0.61413 0.48867 0.51923 -0.07900
C 	C 	0.58418 0.46115 0.49658 0.02100
C 	C 	0.56288 0.49974 0.48084 -0.03500
C 	C 	0.61847 0.66459 0.51507 0.11000
C 	C 	0.57654 0.39362 0.48918 0.07700
C 	C 	0.65586 0.58435 0.54870 0.09800
C 	C 	0.53024 0.47081 0.45802 0.10700
C 	C 	0.62756 0.64324 0.44461 0.10900
C 	C 	0.39747 0.61958 0.46827 0.06500
N 	N 	0.68031 0.60703 0.56727 -0.09100
N 	N 	0.62874 0.72010 0.51972 -0.09600
N 	N 	0.57047 0.33978 0.48330 -0.10300
N 	N 	0.50419 0.44784 0.43982 -0.09600
N 	N 	0.44780 0.55719 0.52251 -0.09600
N 	N 	0.35151 0.61648 0.47346 -0.12300
N 	N 	0.57759 0.70471 0.38989 -0.08600
N 	N 	0.67485 0.64995 0.44033 -0.09700
C 	C 	0.83804 0.19158 0.66280 -0.06600
C 	C 	0.84925 0.13463 0.65579 0.02800
C 	C 	0.83216 0.10605 0.63165 0.06400
C 	C 	0.80275 0.13364 0.61506 0.00000
C 	C 	0.79149 0.19052 0.62205 -0.08400
C 	C 	0.80940 0.21983 0.64602 0.12200
C 	C 	0.87810 0.10431 0.67385 0.03100
N 	N 	0.84502 0.04922 0.62388 -0.01600
H 	H 	0.78958 0.11149 0.59653 0.07200
N 	N 	0.79772 0.27761 0.65352 -0.02400
H 	H 	0.85107 0.21355 0.68136 0.09100
C 	C 	0.93774 0.13381 0.67919 0.06100
C 	C 	0.96633 0.09900 0.69281 0.01300
C 	C 	0.93628 0.03426 0.70056 -0.09000
C 	C 	0.87596 0.00639 0.69651 0.13600
C 	C 	0.84710 0.04221 0.68367 -0.07000
N 	N 	0.96979 0.19803 0.66995 -0.01600
N 	N 	0.84451 0.94015 0.70389 -0.02700
H 	H 	0.80101 0.01995 0.67997 0.09100
O 	O 	0.83975 0.33053 0.66127 -0.06800
O 	O 	0.74476 0.27580 0.65429 -0.10500
O 	O 	0.80363 0.99563 0.61622 -0.08000
O 	O 	0.89835 0.05246 0.62293 -0.06400
O 	O 	0.80760 0.92958 0.72178 -0.08000
O 	O 	0.84871 0.89038 0.69118 -0.08700
O 	O 	0.99641 0.24625 0.68565 -0.07600
O 	O 	0.97634 0.20688 0.64592 -0.06600
C 	C 	0.31639 0.21183 0.67364 -0.06300
C 	C 	0.33513 0.17597 0.65592 0.03000
C 	C 	0.30235 0.10859 0.65109 0.06900
C 	C 	0.25229 0.07741 0.66460 0.00300
C 	C 	0.23506 0.11249 0.68317 -0.07600
C 	C 	0.26657 0.18052 0.68729 0.12200
C 	C 	0.39180 0.20737 0.64423 0.02800
N 	N 	0.32106 0.07102 0.63319 -0.01700
H 	H 	0.22814 0.02517 0.66135 0.07300
N 	N 	0.24845 0.21776 0.70554 -0.03000
H 	H 	0.34112 0.26379 0.67718 0.09000
C 	C 	0.39786 0.24947 0.62356 0.06600
C 	C 	0.45077 0.27391 0.61141 0.00100
C 	C 	0.49767 0.25661 0.61970 -0.07700
C 	C 	0.49284 0.21918 0.64167 0.11800
C 	C 	0.43982 0.19420 0.65362 -0.06500
N 	N 	0.35023 0.26676 0.61464 -0.01700
H 	H 	0.45432 0.30330 0.59472 0.07800
N 	N 	0.54162 0.20566 0.65168 -0.02900
H 	H 	0.43582 0.16396 0.67010 0.09400
O 	O 	0.19640 0.21910 0.70426 -0.11400
O 	O 	0.28491 0.25309 0.72265 -0.09000
O 	O 	0.32854 0.01681 0.63992 -0.07500
O 	O 	0.32766 0.08906 0.60988 -0.07100
O 	O 	0.59058 0.25380 0.65573 -0.11100
O 	O 	0.53633 0.14569 0.65784 -0.09300
O 	O 	0.35524 0.32868 0.61351 -0.07800
O 	O 	0.30360 0.22107 0.60581 -0.07000
C 	C 	0.93691 0.75364 0.62549 -0.07300
C 	C 	0.94952 0.69585 0.62884 0.02500
C 	C 	0.99368 0.69622 0.64609 0.08100
C 	C 	0.96419 0.80971 0.64070 0.13500
C 	C 	0.91490 0.63477 0.61477 0.03200
N 	N 	0.95090 0.86851 0.63704 -0.02300
H 	H 	0.90492 0.75452 0.61142 0.08700
C 	C 	0.87572 0.58052 0.62719 0.06700
C 	C 	0.84063 0.52485 0.61325 -0.00100
C 	C 	0.84230 0.52368 0.58686 -0.08000
C 	C 	0.87975 0.58001 0.57448 0.12600
C 	C 	0.91718 0.63350 0.58856 -0.07100
N 	N 	0.87063 0.58226 0.65390 -0.01600
H 	H 	0.81121 0.48310 0.62299 0.07600
N 	N 	0.87763 0.58485 0.54774 -0.02100
H 	H 	0.94639 0.67574 0.57896 0.08800
O 	O 	0.89747 0.86467 0.63457 -0.06600
O 	O 	0.99226 0.92564 0.63542 -0.05900
O 	O 	0.83662 0.60025 0.53693 -0.09600
O 	O 	0.92058 0.58263 0.53462 -0.08800
O 	O 	0.85483 0.62752 0.66443 -0.08900
O 	O 	0.87667 0.53515 0.66741 -0.06600
C 	C 	0.86061 0.41650 0.98661 -0.03500
C 	C 	0.87823 0.48608 0.98580 0.02900
C 	C 	0.83988 0.51577 0.97632 -0.03500
C 	C 	0.78702 0.47606 0.96492 0.02700
C 	C 	0.77435 0.40737 0.96173 -0.07300
C 	C 	0.80876 0.37704 0.97434 0.03000
C 	C 	0.93902 0.52754 0.99239 0.01800
C 	C 	0.85585 0.58715 0.97745 0.11300
C 	C 	0.79124 0.30549 0.97426 0.09400
C 	C 	0.98210 0.53741 0.97440 -0.02000
C 	C 	0.95416 0.55403 0.01691 -0.02000
C 	C 	0.96601 0.51632 0.94850 0.10900
C 	C 	0.08529 0.57497 0.96354 0.08000
C 	C 	0.90969 0.54635 0.03512 0.11500
C 	C 	0.89666 0.38587 0.99944 0.11400
C 	C 	0.74618 0.50584 0.95615 0.08600
N 	N 	0.12090 0.58153 0.94904 -0.10000
N 	N 	0.95304 0.49947 0.92784 -0.09100
N 	N 	0.87417 0.54016 0.04964 -0.08800
N 	N 	0.86865 0.64413 0.97835 -0.09000
N 	N 	0.71362 0.52975 0.94922 -0.10600
N 	N 	0.77724 0.24837 0.97418 -0.09300
N 	N 	0.92550 0.36154 0.00969 -0.08800
C 	C 	0.39389 0.85943 0.95039 -0.03400
C 	C 	0.43666 0.92132 0.95652 0.02600
C 	C 	0.45534 0.93749 0.98172 -0.03800
C 	C 	0.42994 0.89292 0.00090 0.02900
C 	C 	0.38683 0.83105 0.99483 -0.07200
C 	C 	0.36989 0.81372 0.96948 0.02400
C 	C 	0.46176 0.97012 0.93644 0.02100
C 	C 	0.50077 0.00015 0.98788 0.11100
C 	C 	0.32805 0.74888 0.96300 0.08100
C 	C 	0.44029 0.02150 0.93194 -0.03100
C 	C 	0.46794 0.07174 0.91491 0.02200
C 	C 	0.51932 0.07252 0.90348 -0.06900
C 	C 	0.53490 0.01555 0.90503 0.02700
C 	C 	0.50810 0.96618 0.92246 -0.03600
C 	C 	0.38989 0.02276 0.94497 0.10900
C 	C 	0.57404 0.00466 0.88711 0.09300
C 	C 	0.44007 0.11752 0.90721 0.10600
C 	C 	0.52862 0.91177 0.92625 0.11000
C 	C 	0.37440 0.84306 0.92448 0.10900
C 	C 	0.44834 0.91071 0.02686 0.08600
N 	N 	0.41736 0.15359 0.90100 -0.08600
N 	N 	0.34969 0.02371 0.95538 -0.09600
N 	N 	0.60521 0.99591 0.87279 -0.10600
N 	N 	0.54495 0.86831 0.92929 -0.09600
N 	N 	0.53700 0.05017 0.99276 -0.09900
N 	N 	0.46318 0.92530 0.04753 -0.10500
N 	N 	0.29476 0.69717 0.95771 -0.11200
N 	N 	0.35890 0.83007 0.90379 -0.09600
C 	C 	0.42878 0.36525 0.93341 -0.03700
C 	C 	0.41873 0.42348 0.92700 0.02400
C 	C 	0.43660 0.45270 0.90356 -0.03700
C 	C 	0.46740 0.42580 0.88740 0.02800
C 	C 	0.48441 0.37326 0.89552 -0.08400
C 	C 	0.46544 0.34339 0.91878 0.02200
C 	C 	0.39643 0.45853 0.94627 0.02300
C 	C 	0.42496 0.51150 0.89647 0.11000
C 	C 	0.48902 0.29605 0.92902 0.05500
C 	C 	0.43243 0.49168 0.96677 -0.03500
C 	C 	0.40958 0.51718 0.98670 0.02800
C 	C 	0.35268 0.51763 0.98463 -0.06800
C 	C 	0.31787 0.48836 0.96321 0.02300
C 	C 	0.33876 0.45590 0.94474 -0.03200
C 	C 	0.49298 0.49930 0.96736 0.10400
C 	C 	0.26127 0.49322 0.95985 0.07100
C 	C 	0.44345 0.53939 0.00979 0.10500
C 	C 	0.30081 0.41919 0.92436 0.11100
C 	C 	0.40307 0.32934 0.95558 0.10900
C 	C 	0.48284 0.45315 0.86269 0.09800
N 	N 	0.47050 0.55708 0.02820 -0.08600
N 	N 	0.54128 0.50530 0.96780 -0.10800
N 	N 	0.21614 0.49714 0.95717 -0.12100
N 	N 	0.27056 0.38988 0.90809 -0.09200
N 	N 	0.41563 0.55844 0.89083 -0.09700
N 	N 	0.49519 0.47496 0.84298 -0.08700
N 	N 	0.50807 0.25863 0.93734 -0.11700
N 	N 	0.38253 0.30074 0.97328 -0.09600
C 	C 	0.96434 0.15768 0.83367 0.04200
C 	C 	0.94846 0.09156 0.82507 0.05800
C 	C 	0.98957 0.06979 0.81418 0.01100
C 	C 	0.92002 0.18340 0.84246 0.02300
N 	N 	0.89023 0.04674 0.82695 -0.01500
H 	H 	0.97652 0.01978 0.80654 0.05900
N 	N 	0.12278 0.22089 0.82240 -0.02400
C 	C 	0.91637 0.19725 0.86817 0.06800
C 	C 	0.87066 0.21548 0.87640 0.00200
C 	C 	0.82802 0.21874 0.85927 -0.08000
C 	C 	0.83295 0.20755 0.83347 0.11700
C 	C 	0.87910 0.19036 0.82518 -0.06200
N 	N 	0.95808 0.19110 0.88605 -0.01800
H 	H 	0.86709 0.22450 0.89626 0.07300
N 	N 	0.79064 0.21268 0.81565 -0.03300
H 	H 	0.88248 0.18102 0.80534 0.08700
O 	O 	0.13675 0.28003 0.81331 -0.07900
O 	O 	0.16212 0.20273 0.83331 -0.06600
O 	O 	0.86183 0.01600 0.80696 -0.07300
O 	O 	0.86681 0.03372 0.84881 -0.06500
O 	O 	0.78007 0.26742 0.81414 -0.10100
O 	O 	0.76514 0.16400 0.79997 -0.09100
O 	O 	0.98814 0.24175 0.90006 -0.07600
O 	O 	0.96276 0.13372 0.88970 -0.06600
C 	C 	0.32757 0.98668 0.79540 -0.08100
C 	C 	0.35675 0.00746 0.77298 0.03700
C 	C 	0.32504 0.99528 0.75006 0.05700
C 	C 	0.26474 0.97548 0.75037 0.00100
C 	C 	0.23686 0.97001 0.77332 -0.09400
C 	C 	0.26749 0.96861 0.79573 0.13600
C 	C 	0.41554 0.05713 0.77453 0.02500
N 	N 	0.35408 0.00756 0.72662 -0.01000
H 	H 	0.24026 0.97042 0.73287 0.05200
N 	N 	0.23831 0.95435 0.81909 -0.02500
H 	H 	0.35193 0.99126 0.81291 0.08700
C 	C 	0.42304 0.12438 0.77830 0.06600
C 	C 	0.47293 0.16667 0.79074 -0.00400
C 	C 	0.51523 0.14202 0.79940 -0.07500
C 	C 	0.51331 0.07949 0.79033 0.11900
C 	C 	0.46247 0.03637 0.77865 -0.06300
N 	N 	0.37742 0.14797 0.77195 -0.01700
H 	H 	0.47652 0.21698 0.79536 0.08000
N 	N 	0.56256 0.05976 0.79309 -0.02300
H 	H 	0.45843 0.98592 0.77401 0.08700
O 	O 	0.25966 0.99163 0.83885 -0.07300
O 	O 	0.19113 0.90310 0.82077 -0.06900
O 	O 	0.39656 0.98678 0.72279 -0.08500
O 	O 	0.33675 0.03739 0.70876 -0.08300
O 	O 	0.61340 0.10024 0.78725 -0.09700
O 	O 	0.55635 0.00062 0.80071 -0.08500
O 	O 	0.35026 0.16590 0.78961 -0.08100
O 	O 	0.36455 0.15399 0.74851 -0.07900
C 	C 	0.79537 0.56607 0.82820 -0.06900
C 	C 	0.83450 0.61803 0.84257 0.02900
C 	C 	0.83682 0.61331 0.86894 0.06300
C 	C 	0.80041 0.55649 0.88059 0.00300
C 	C 	0.76186 0.50397 0.86620 -0.08600
C 	C 	0.75875 0.50931 0.83986 0.12600
C 	C 	0.87161 0.67821 0.82995 0.02900
N 	N 	0.87642 0.66594 0.88392 -0.01700
H 	H 	0.80334 0.55243 0.90082 0.07200
N 	N 	0.71760 0.45785 0.82495 -0.02500
H 	H 	0.79284 0.57013 0.80796 0.08800
C 	C 	0.91882 0.67714 0.81586 0.06300
C 	C 	0.95109 0.73332 0.80261 -0.00500
C 	C 	0.93680 0.79056 0.80332 -0.08500
C 	C 	0.89106 0.79248 0.81819 0.13000
C 	C 	0.85837 0.73613 0.83122 -0.07100
N 	N 	0.93350 0.61874 0.81466 -0.01700
H 	H 	0.98662 0.73196 0.79137 0.06000
N 	N 	0.87835 0.85194 0.82044 -0.02400
H 	H 	0.82266 0.73741 0.84235 0.09100
O 	O 	0.73461 0.43140 0.80607 -0.08000
O 	O 	0.66280 0.44046 0.82924 -0.10200
O 	O 	0.85765 0.69213 0.90232 -0.07800
O 	O 	0.93160 0.68394 0.88048 -0.06900
O 	O 	0.82714 0.85156 0.81432 -0.07000
O 	O 	0.91631 0.90482 0.83065 -0.06900
O 	O 	0.93704 0.59236 0.79298 -0.08200
O 	O 	0.94682 0.59435 0.83513 -0.06900
