data_crystal

_cell_length_a 42.32939
_cell_length_b 39.89944
_cell_length_c 20.89346
_cell_angle_alpha 93.26914
_cell_angle_beta  92.54437
_cell_angle_gamma 90.09302

_symmetry_space_group_name_	'P 1'
_symmetry_space_group_name_H-M	'P 1'

loop_
_symmetry_equiv_pos_as_xyz
  x,y,z

loop_
_atom_site_label
_atom_site_type_symbol
_atom_site_fract_x
_atom_site_fract_y
_atom_site_fract_z
_atom_site_charge
Cd	Cd	0.83491 0.85994 0.10718 1.24000
Cd	Cd	0.81130 0.86929 0.26698 1.16100
O 	O 	0.84132 0.80315 0.05756 -0.32600
O 	O 	0.84961 0.84780 0.00497 -0.35700
C 	C 	0.85393 0.81558 0.00839 0.26300
O 	O 	0.82616 0.91491 0.12191 -0.39300
O 	O 	0.83247 0.91630 0.23161 -0.44200
C 	C 	0.82352 0.93078 0.17863 0.27000
C 	C 	0.77033 0.85160 0.13376 0.29400
O 	O 	0.85480 0.84288 0.22297 -0.45800
O 	O 	0.77326 0.85511 0.07237 -0.29800
O 	O 	0.79650 0.84780 0.16677 -0.54800
C 	C 	0.88173 0.85673 0.21146 0.28800
O 	O 	0.88446 0.86691 0.15388 -0.37700
Cd	Cd	0.03593 0.98907 0.15471 1.23600
Cd	Cd	0.99974 0.00897 0.00311 1.16700
O 	O 	0.08588 0.95928 0.14455 -0.33100
O 	O 	0.06653 0.96984 0.23878 -0.35600
C 	C 	0.08783 0.95408 0.20522 0.28000
O 	O 	0.99751 0.02611 0.18047 -0.40100
O 	O 	0.96866 0.01349 0.08683 -0.44900
C 	C 	0.97531 0.03397 0.13714 0.26400
C 	C 	0.06063 0.04230 0.08779 0.28900
O 	O 	0.01188 0.95875 0.04817 -0.46300
O 	O 	0.07330 0.04294 0.14612 -0.29800
O 	O 	0.04353 0.01626 0.07016 -0.54000
C 	C 	0.99372 0.94190 0.08377 0.31000
O 	O 	0.99982 0.94561 0.14548 -0.41700
C 	C 	0.07304 0.77868 0.92681 0.12200
N 	N 	0.07907 0.78438 0.86486 -0.14300
C 	C 	0.06364 0.76620 0.81598 0.12700
N 	N 	0.04155 0.74318 0.82906 -0.14300
C 	C 	0.03513 0.73795 0.89071 0.12800
N 	N 	0.05111 0.75539 0.93947 -0.14000
C 	C 	0.02345 0.73227 0.24129 0.12200
N 	N 	0.02966 0.74927 0.29883 -0.14100
C 	C 	0.04397 0.73337 0.34813 0.12700
N 	N 	0.05191 0.70051 0.33983 -0.14400
C 	C 	0.04543 0.68339 0.28272 0.12700
N 	N 	0.03103 0.69928 0.23374 -0.14300
Cd	Cd	0.82840 0.96541 0.88965 1.23900
Cd	Cd	0.85768 0.00331 0.03907 1.17500
O 	O 	0.77965 0.93159 0.88635 -0.32000
O 	O 	0.80376 0.94189 0.79847 -0.36100
C 	C 	0.78007 0.92776 0.82417 0.27900
O 	O 	0.86693 0.00020 0.86353 -0.39700
O 	O 	0.89306 0.00165 0.96220 -0.43500
C 	C 	0.88863 0.01363 0.90502 0.26200
C 	C 	0.79804 0.02400 0.94192 0.28900
O 	O 	0.84964 0.94770 0.00306 -0.45800
O 	O 	0.78931 0.01750 0.88169 -0.31100
O 	O 	0.81521 0.00100 0.96779 -0.52300
C 	C 	0.86992 0.92846 0.97344 0.31800
O 	O 	0.86533 0.92485 0.91129 -0.36400
Cd	Cd	0.71124 0.94999 0.45552 1.23700
Cd	Cd	0.72937 0.98540 0.30956 1.17300
O 	O 	0.65593 0.93651 0.47718 -0.32700
O 	O 	0.69554 0.92083 0.53938 -0.36900
C 	C 	0.66521 0.91946 0.52579 0.27800
O 	O 	0.76417 0.94820 0.45342 -0.40000
O 	O 	0.76914 0.99104 0.38526 -0.42700
C 	C 	0.78191 0.96719 0.41922 0.27100
C 	C 	0.71016 0.90795 0.34031 0.29300
O 	O 	0.69858 0.00422 0.39353 -0.45500
O 	O 	0.71080 0.89028 0.39102 -0.32100
O 	O 	0.70688 0.94008 0.35129 -0.54100
C 	C 	0.70857 0.02203 0.44472 0.29000
O 	O 	0.71419 0.00525 0.49590 -0.36100
C 	C 	0.57698 0.82569 0.70225 0.12300
N 	N 	0.57018 0.80880 0.75453 -0.14300
C 	C 	0.53974 0.80465 0.77019 0.12800
N 	N 	0.51595 0.81738 0.73334 -0.14400
C 	C 	0.52251 0.83421 0.68067 0.12400
N 	N 	0.55310 0.83820 0.66525 -0.14400
C 	C 	0.52520 0.76538 0.31786 0.12300
N 	N 	0.49458 0.77166 0.33054 -0.14300
C 	C 	0.47131 0.76466 0.28497 0.12700
N 	N 	0.47892 0.75222 0.22577 -0.14500
C 	C 	0.50954 0.74545 0.21285 0.12600
N 	N 	0.53253 0.75115 0.25982 -0.14200
Cd	Cd	0.82566 0.14562 0.28049 1.24000
Cd	Cd	0.84304 0.08356 0.39427 1.17200
O 	O 	0.84217 0.20350 0.31209 -0.32700
O 	O 	0.82412 0.18927 0.21422 -0.34700
C 	C 	0.83596 0.21270 0.25428 0.27700
O 	O 	0.81460 0.09662 0.22585 -0.38400
O 	O 	0.80749 0.06757 0.31577 -0.42500
C 	C 	0.81288 0.06787 0.25423 0.27800
C 	C 	0.88805 0.11989 0.29371 0.30000
O 	O 	0.81217 0.13145 0.39755 -0.45400
O 	O 	0.88465 0.13685 0.24231 -0.29900
O 	O 	0.86471 0.12175 0.33182 -0.54100
C 	C 	0.78229 0.13291 0.37969 0.29100
O 	O 	0.77635 0.14533 0.32385 -0.36100
Cd	Cd	0.87129 0.20519 0.00260 1.23500
Cd	Cd	0.87279 0.12755 0.91073 1.16500
O 	O 	0.83477 0.24963 0.96784 -0.31000
O 	O 	0.86376 0.25535 0.05719 -0.35900
C 	C 	0.84350 0.26882 0.01789 0.27200
O 	O 	0.90135 0.17249 0.06419 -0.38300
O 	O 	0.91390 0.13487 0.98251 -0.42400
C 	C 	0.91123 0.14245 0.04427 0.26000
C 	C 	0.82218 0.15741 0.01253 0.28400
O 	O 	0.88285 0.18235 0.88483 -0.45400
O 	O 	0.82182 0.17980 0.06068 -0.28700
O 	O 	0.84153 0.16317 0.96832 -0.53700
C 	C 	0.90977 0.19833 0.89096 0.28300
O 	O 	0.91429 0.21765 0.94321 -0.36700
C 	C 	0.87589 0.49297 0.91286 0.12100
N 	N 	0.87899 0.52672 0.92454 -0.14000
C 	C 	0.89690 0.54474 0.88625 0.13000
N 	N 	0.91197 0.52890 0.83717 -0.14500
C 	C 	0.90905 0.49523 0.82586 0.12900
N 	N 	0.89080 0.47735 0.86334 -0.14100
C 	C 	0.98488 0.39600 0.30696 0.12100
N 	N 	0.00064 0.41851 0.27356 -0.14300
C 	C 	0.01471 0.44574 0.30494 0.12700
N 	N 	0.01258 0.45062 0.36943 -0.14400
C 	C 	0.99612 0.42874 0.40259 0.12600
N 	N 	0.98211 0.40158 0.37119 -0.14200
Cd	Cd	0.04475 0.11532 0.73732 1.24000
Cd	Cd	0.02776 0.16500 0.87953 1.17000
O 	O 	0.09443 0.12401 0.68258 -0.32500
O 	O 	0.06245 0.08187 0.65481 -0.35600
C 	C 	0.08971 0.09606 0.64815 0.27700
O 	O 	0.00368 0.08922 0.77548 -0.39300
O 	O 	0.98615 0.13273 0.84185 -0.42300
C 	C 	0.98615 0.10052 0.82294 0.28200
C 	C 	0.07665 0.10271 0.85675 0.31200
O 	O 	0.03297 0.17756 0.77366 -0.46100
O 	O 	0.08079 0.07824 0.81381 -0.31300
O 	O 	0.06326 0.12917 0.83498 -0.54400
C 	C 	0.00966 0.17716 0.73084 0.28900
O 	O 	0.01006 0.15197 0.68791 -0.35800
Cd	Cd	0.99136 0.96464 0.42686 1.23900
Cd	Cd	0.95001 0.95795 0.27369 1.17900
O 	O 	0.04878 0.97026 0.42306 -0.32200
O 	O 	0.02522 0.97544 0.51489 -0.35700
C 	C 	0.05153 0.97577 0.48480 0.27700
O 	O 	0.93983 0.96817 0.44984 -0.38500
O 	O 	0.92135 0.94179 0.35471 -0.42400
C 	C 	0.91614 0.95956 0.40834 0.27800
C 	C 	0.97989 0.02339 0.35824 0.31100
O 	O 	0.98870 0.92555 0.32205 -0.44700
O 	O 	0.99005 0.03101 0.41720 -0.30600
O 	O 	0.98141 0.99182 0.34046 -0.54100
C 	C 	0.98360 0.90027 0.35713 0.29300
O 	O 	0.98720 0.90664 0.41903 -0.36100
C 	C 	0.30291 0.01296 0.71616 0.12300
N 	N 	0.32795 0.00121 0.68317 -0.13900
C 	C 	0.35378 0.98921 0.71531 0.12300
N 	N 	0.35472 0.98968 0.78049 -0.14500
C 	C 	0.33017 0.00247 0.81350 0.12600
N 	N 	0.30405 0.01342 0.78119 -0.14100
C 	C 	0.25714 0.95729 0.35671 0.12100
N 	N 	0.27550 0.93164 0.37656 -0.14300
C 	C 	0.30046 0.92130 0.34206 0.12800
N 	N 	0.30650 0.93593 0.28687 -0.14500
C 	C 	0.28778 0.96102 0.26620 0.12700
N 	N 	0.26338 0.97208 0.30167 -0.14300
C 	C 	0.29298 0.97479 0.20369 -0.05100
C 	C 	0.27252 0.96646 0.14953 0.10100
C 	C 	0.28088 0.97581 0.08878 -0.09200
C 	C 	0.30978 0.99189 0.08079 0.00400
C 	C 	0.32955 0.00152 0.13518 0.06900
C 	C 	0.32076 0.99309 0.19625 -0.05600
N 	N 	0.24540 0.94867 0.15512 -0.20000
H 	H 	0.26552 0.96911 0.04706 0.05300
C 	C 	0.32008 0.99609 0.01495 -0.05100
N 	N 	0.35719 0.01826 0.12904 -0.19400
H 	H 	0.33617 0.99975 0.23791 0.04600
C 	C 	0.31443 0.02665 0.98668 -0.03900
C 	C 	0.32095 0.03033 0.92217 0.08300
C 	C 	0.33083 0.00208 0.88412 -0.03400
C 	C 	0.33813 0.97208 0.91327 -0.07400
C 	C 	0.33335 0.96897 0.97872 0.10700
H 	H 	0.30521 0.04771 0.01512 0.03500
N 	N 	0.31865 0.06113 0.89764 -0.19500
H 	H 	0.34665 0.95074 0.88457 0.05600
N 	N 	0.34138 0.93992 0.00633 -0.21200
H 	H 	0.30979 0.08148 0.92497 0.08600
H 	H 	0.32735 0.06562 0.85292 0.09100
H 	H 	0.35035 0.91971 0.97880 0.09200
H 	H 	0.33965 0.93738 0.05551 0.08800
H 	H 	0.37179 0.02491 0.16945 0.08200
H 	H 	0.36440 0.02505 0.08442 0.08500
H 	H 	0.23914 0.93982 0.19885 0.09400
H 	H 	0.23035 0.94304 0.11491 0.08300
C 	C 	0.20106 0.00319 0.46653 -0.05400
C 	C 	0.17389 0.98318 0.45672 0.00200
C 	C 	0.17323 0.95658 0.40907 0.00500
C 	C 	0.20080 0.94798 0.37761 -0.03400
C 	C 	0.22865 0.96659 0.39093 -0.02900
C 	C 	0.22869 0.99454 0.43530 0.02200
C 	C 	0.14586 0.99081 0.49485 0.01200
S 	S 	0.13757 0.93575 0.38482 -0.02000
H 	H 	0.20048 0.92711 0.34198 0.04500
S 	S 	0.26323 0.01859 0.45275 -0.03500
H 	H 	0.20079 0.02527 0.49886 0.04900
C 	C 	0.13414 0.96691 0.53505 -0.00300
C 	C 	0.10160 0.96558 0.54457 -0.00700
C 	C 	0.08134 0.98851 0.51532 -0.08100
C 	C 	0.09465 0.01767 0.49246 0.06100
C 	C 	0.12685 0.01826 0.48007 -0.06400
S 	S 	0.15961 0.93787 0.57073 -0.04600
H 	H 	0.09180 0.94468 0.56820 0.03800
S 	S 	0.07050 0.05162 0.47215 -0.02800
H 	H 	0.13647 0.03861 0.45463 0.05300
H 	H 	0.26418 0.04401 0.41147 0.03700
H 	H 	0.16233 0.90988 0.53029 0.03500
H 	H 	0.05960 0.04689 0.40954 0.04800
H 	H 	0.13417 0.90787 0.41926 0.03400
C 	C 	0.22474 0.01258 0.62253 -0.05900
C 	C 	0.21313 0.04444 0.64101 0.00400
C 	C 	0.23235 0.06667 0.68091 0.00800
C 	C 	0.26314 0.05732 0.69920 -0.03300
C 	C 	0.27442 0.02517 0.68193 -0.03100
C 	C 	0.25536 0.00308 0.64163 0.03300
C 	C 	0.17939 0.05227 0.62630 0.01600
S 	S 	0.21707 0.10452 0.71423 -0.03700
H 	H 	0.27765 0.07429 0.73054 0.04400
S 	S 	0.26877 0.96271 0.61767 -0.04200
H 	H 	0.20935 0.99452 0.59608 0.04900
C 	C 	0.17058 0.07948 0.58917 -0.00500
C 	C 	0.13958 0.09171 0.59039 -0.00600
C 	C 	0.11702 0.07618 0.62623 -0.07900
C 	C 	0.12466 0.04528 0.65321 0.05700
C 	C 	0.15590 0.03394 0.65417 -0.07000
S 	S 	0.19808 0.09863 0.54187 -0.04400
H 	H 	0.13343 0.11428 0.56619 0.04000
S 	S 	0.09554 0.02024 0.68494 -0.03000
H 	H 	0.16214 0.01149 0.67868 0.05500
H 	H 	0.26150 0.94070 0.66286 0.03700
H 	H 	0.19491 0.08551 0.47988 0.03400
H 	H 	0.09845 0.02247 0.75055 0.04500
H 	H 	0.22410 0.13033 0.67668 0.03700
C 	C 	0.92482 0.47834 0.77162 -0.05100
C 	C 	0.95797 0.48076 0.76637 0.10100
C 	C 	0.97142 0.47041 0.70837 -0.08700
C 	C 	0.95250 0.45665 0.65667 -0.00600
C 	C 	0.91989 0.45101 0.66434 0.07000
C 	C 	0.90629 0.46225 0.72170 -0.05300
N 	N 	0.97697 0.49241 0.81705 -0.20000
H 	H 	0.99660 0.47363 0.70303 0.05300
C 	C 	0.96644 0.45115 0.59326 -0.00600
N 	N 	0.90151 0.43522 0.61668 -0.19400
H 	H 	0.88104 0.45942 0.72668 0.04900
C 	C 	0.98249 0.42111 0.57908 -0.08700
C 	C 	0.99452 0.41433 0.51814 0.09900
C 	C 	0.98905 0.43742 0.46990 -0.05100
C 	C 	0.97428 0.46811 0.48505 -0.05300
C 	C 	0.96320 0.47540 0.54653 0.07000
H 	H 	0.98571 0.40303 0.61562 0.05300
N 	N 	0.01202 0.38622 0.50688 -0.19900
H 	H 	0.97070 0.48608 0.44837 0.04800
N 	N 	0.94936 0.50558 0.56024 -0.19400
H 	H 	0.01474 0.36855 0.54176 0.08300
H 	H 	0.02431 0.38243 0.46487 0.09000
H 	H 	0.94652 0.52303 0.52498 0.08200
H 	H 	0.94186 0.51235 0.60609 0.08900
H 	H 	0.87728 0.43201 0.62208 0.08400
H 	H 	0.91116 0.42522 0.57464 0.08900
H 	H 	0.96812 0.49714 0.86253 0.09300
H 	H 	0.00125 0.49539 0.81199 0.08500
C 	C 	0.95590 0.22291 0.83894 -0.02500
C 	C 	0.93086 0.19967 0.83663 -0.08700
C 	C 	0.92757 0.17597 0.78430 -0.00900
C 	C 	0.95142 0.17254 0.74014 -0.01000
C 	C 	0.97923 0.19183 0.74968 -0.09000
C 	C 	0.97963 0.21943 0.79462 -0.04400
H 	H 	0.95783 0.24261 0.87678 0.03100
H 	H 	0.90764 0.15881 0.78011 0.00200
H 	H 	0.94983 0.15237 0.70316 0.03800
H 	H 	0.00004 0.23593 0.79981 0.01700
C 	C 	0.86246 0.43176 0.03639 -0.05300
C 	C 	0.83877 0.41232 0.00299 -0.01300
C 	C 	0.82039 0.42667 0.95389 0.02500
C 	C 	0.82997 0.45702 0.93026 -0.04300
C 	C 	0.85778 0.47291 0.95526 -0.01300
C 	C 	0.87232 0.46190 0.01226 0.01200
C 	C 	0.83963 0.37546 0.00665 0.00800
S 	S 	0.78730 0.40524 0.91761 -0.03800
H 	H 	0.81759 0.46649 0.88852 0.04700
S 	S 	0.90465 0.48396 0.05030 -0.05300
H 	H 	0.87538 0.42178 0.07695 0.04600
C 	C 	0.86007 0.35599 0.96823 0.00100
C 	C 	0.86116 0.32123 0.97281 0.00800
C 	C 	0.84195 0.30546 0.01503 -0.09400
C 	C 	0.82123 0.32479 0.05302 0.05400
C 	C 	0.82021 0.35973 0.04871 -0.07300
S 	S 	0.88456 0.37491 0.91445 -0.03300
H 	H 	0.87708 0.30637 0.94352 0.03800
S 	S 	0.79646 0.30563 0.10573 -0.04100
H 	H 	0.80442 0.37464 0.07814 0.05200
H 	H 	0.89381 0.50779 0.09370 0.03400
H 	H 	0.91210 0.38538 0.94643 0.03900
H 	H 	0.81000 0.30891 0.16641 0.04400
H 	H 	0.79699 0.38369 0.86899 0.04000
C 	C 	0.94433 0.10303 0.30318 -0.00700
C 	C 	0.91226 0.09407 0.29914 -0.10500
C 	C 	0.90341 0.06043 0.30287 -0.03800
C 	C 	0.92635 0.03622 0.31418 -0.01800
C 	C 	0.95810 0.04576 0.32535 -0.11600
C 	C 	0.96720 0.07900 0.31711 0.00400
H 	H 	0.95141 0.12885 0.29839 0.03700
H 	H 	0.87871 0.05323 0.29908 -0.02700
H 	H 	0.91918 0.01046 0.31862 -0.04500
H 	H 	0.99178 0.08648 0.32427 0.03500
C 	C 	0.94947 0.30987 0.27408 -0.06200
C 	C 	0.92415 0.31703 0.23150 0.00500
C 	C 	0.92265 0.34861 0.20461 0.00500
C 	C 	0.94442 0.37377 0.22571 -0.03500
C 	C 	0.96794 0.36753 0.27296 -0.03200
C 	C 	0.97162 0.33476 0.29413 0.02900
C 	C 	0.89742 0.29305 0.22229 0.01600
S 	S 	0.89368 0.35685 0.14469 -0.04200
H 	H 	0.94216 0.39862 0.20757 0.04400
S 	S 	0.00397 0.32456 0.34518 -0.05000
H 	H 	0.95131 0.28522 0.29323 0.04900
C 	C 	0.90106 0.26181 0.18855 0.00600
C 	C 	0.87852 0.23643 0.19323 -0.00400
C 	C 	0.85239 0.24188 0.23147 -0.07500
C 	C 	0.84732 0.27410 0.26022 0.05300
C 	C 	0.86976 0.29951 0.25538 -0.06900
S 	S 	0.93388 0.25405 0.14105 -0.05100
H 	H 	0.88231 0.21181 0.17025 0.04800
S 	S 	0.81341 0.28258 0.30418 -0.04900
H 	H 	0.86647 0.32383 0.28000 0.05300
H 	H 	0.99550 0.32844 0.40769 0.03800
H 	H 	0.95803 0.24120 0.17790 0.03300
H 	H 	0.81957 0.27566 0.36699 0.04400
H 	H 	0.90527 0.34843 0.08577 0.03600
C 	C 	0.43881 0.77625 0.29606 -0.05100
C 	C 	0.42479 0.77174 0.35525 0.10000
C 	C 	0.39892 0.79168 0.37277 -0.08800
C 	C 	0.38564 0.81430 0.33036 -0.00600
C 	C 	0.39718 0.81560 0.26792 0.07000
C 	C 	0.42378 0.79661 0.25148 -0.05400
N 	N 	0.43565 0.74792 0.39464 -0.19900
H 	H 	0.38926 0.78979 0.41965 0.05200
C 	C 	0.36213 0.83891 0.35383 -0.00600
N 	N 	0.38324 0.83550 0.22410 -0.19400
H 	H 	0.43379 0.79910 0.20509 0.04900
C 	C 	0.37270 0.87060 0.37833 -0.08700
C 	C 	0.35164 0.89766 0.38272 0.09900
C 	C 	0.31969 0.89277 0.36172 -0.05200
C 	C 	0.30833 0.86013 0.34641 -0.05400
C 	C 	0.32935 0.83297 0.34252 0.06800
H 	H 	0.39764 0.87464 0.39053 0.05300
N 	N 	0.36224 0.92833 0.40614 -0.20000
H 	H 	0.28347 0.85621 0.33326 0.04700
N 	N 	0.31809 0.80157 0.32608 -0.19400
H 	H 	0.38614 0.93211 0.41940 0.08400
H 	H 	0.34666 0.94829 0.41380 0.09100
H 	H 	0.29396 0.79757 0.31561 0.08200
H 	H 	0.33301 0.78075 0.32535 0.08600
H 	H 	0.39240 0.83688 0.17868 0.08100
H 	H 	0.36290 0.84923 0.23401 0.08900
H 	H 	0.45235 0.73025 0.37965 0.09000
H 	H 	0.42617 0.74575 0.43958 0.08300
C 	C 	0.49711 0.85315 0.64734 -0.05200
C 	C 	0.46497 0.84390 0.65080 0.10100
C 	C 	0.44148 0.86841 0.64429 -0.08600
C 	C 	0.44929 0.90058 0.62583 -0.00600
C 	C 	0.48050 0.90709 0.60815 0.06900
C 	C 	0.50445 0.88382 0.62131 -0.05400
N 	N 	0.45657 0.81145 0.65747 -0.19800
H 	H 	0.41723 0.86258 0.65429 0.05500
C 	C 	0.42648 0.92847 0.63596 -0.00600
N 	N 	0.48755 0.93556 0.57889 -0.19500
H 	H 	0.52884 0.89019 0.61363 0.05000
C 	C 	0.43438 0.95473 0.68148 -0.08500
C 	C 	0.41151 0.97807 0.70105 0.09800
C 	C 	0.37960 0.97306 0.67965 -0.04900
C 	C 	0.37219 0.94866 0.63012 -0.05400
C 	C 	0.39567 0.92697 0.60656 0.06900
H 	H 	0.45829 0.95677 0.70227 0.05500
N 	N 	0.42037 0.00553 0.73921 -0.19700
H 	H 	0.34799 0.94582 0.61127 0.05200
N 	N 	0.38859 0.90498 0.55581 -0.19500
H 	H 	0.44368 0.00823 0.75747 0.08600
H 	H 	0.40472 0.02531 0.74787 0.09300
H 	H 	0.36541 0.90270 0.53663 0.08600
H 	H 	0.40623 0.89108 0.53318 0.08500
H 	H 	0.51086 0.94089 0.56826 0.08300
H 	H 	0.46977 0.95186 0.56388 0.08500
H 	H 	0.47295 0.79207 0.65183 0.09100
H 	H 	0.43297 0.80506 0.66353 0.08400
C 	C 	0.53283 0.78936 0.83058 -0.05200
C 	C 	0.52047 0.80868 0.88271 0.10300
C 	C 	0.51582 0.79356 0.94058 -0.08900
C 	C 	0.52526 0.76038 0.94882 0.00700
C 	C 	0.53695 0.74082 0.89642 0.06600
C 	C 	0.54047 0.75553 0.83761 -0.05100
N 	N 	0.51420 0.84196 0.87848 -0.20000
H 	H 	0.50653 0.80831 0.98069 0.05900
C 	C 	0.52596 0.74782 0.01421 -0.01700
N 	N 	0.54521 0.70817 0.90243 -0.19300
H 	H 	0.54977 0.74076 0.79754 0.04700
C 	C 	0.49993 0.72980 0.03364 -0.10000
C 	C 	0.49684 0.72381 0.09869 0.10200
C 	C 	0.51844 0.73905 0.14529 -0.05100
C 	C 	0.54634 0.75348 0.12504 -0.05600
C 	C 	0.55046 0.75763 0.05970 0.07200
H 	H 	0.48200 0.72062 0.99823 0.06400
N 	N 	0.47401 0.70251 0.11584 -0.19900
H 	H 	0.56423 0.76293 0.16022 0.05300
N 	N 	0.57771 0.77150 0.04105 -0.20200
H 	H 	0.45713 0.69271 0.08177 0.08100
H 	H 	0.47416 0.69375 0.16202 0.09000
H 	H 	0.59522 0.77982 0.07515 0.08400
H 	H 	0.58223 0.77315 0.99260 0.09800
H 	H 	0.55428 0.69409 0.86375 0.08400
H 	H 	0.54240 0.69631 0.94508 0.09000
H 	H 	0.52047 0.85496 0.83899 0.09500
H 	H 	0.50404 0.85562 0.91644 0.08600
C 	C 	0.71228 0.07538 0.38919 -0.02800
C 	C 	0.72285 0.05538 0.43891 -0.08600
C 	C 	0.74989 0.06518 0.47681 -0.01200
C 	C 	0.76788 0.09266 0.46099 -0.02700
C 	C 	0.75918 0.11042 0.40678 -0.08800
C 	C 	0.73028 0.10285 0.37333 -0.00700
H 	H 	0.69089 0.06871 0.36090 0.02200
H 	H 	0.75799 0.05043 0.51623 0.03700
H 	H 	0.78949 0.09898 0.48881 -0.00600
H 	H 	0.72254 0.11711 0.33297 0.03900
C 	C 	0.83493 0.99553 0.42649 -0.01700
C 	C 	0.81679 0.96606 0.42867 -0.08000
C 	C 	0.83220 0.93521 0.43493 -0.02500
C 	C 	0.86526 0.93353 0.43468 -0.02200
C 	C 	0.88327 0.96268 0.42832 -0.06600
C 	C 	0.86801 0.99382 0.42661 -0.04100
H 	H 	0.82343 0.01964 0.42306 -0.02900
H 	H 	0.81857 0.91232 0.43703 0.00300
H 	H 	0.87676 0.90933 0.43608 0.02600
H 	H 	0.88162 0.01650 0.42186 -0.01400
C 	C 	0.59396 0.86530 0.52924 -0.07100
C 	C 	0.60735 0.83502 0.50650 0.01800
C 	C 	0.64021 0.83046 0.51560 -0.00300
C 	C 	0.65963 0.85807 0.53449 -0.00400
C 	C 	0.64643 0.89023 0.54234 -0.08600
C 	C 	0.61340 0.89308 0.54675 0.05700
C 	C 	0.58932 0.81394 0.45696 0.00600
S 	S 	0.65745 0.79115 0.49774 -0.04000
H 	H 	0.68510 0.85509 0.53646 0.04300
S 	S 	0.59621 0.93146 0.57173 -0.05700
H 	H 	0.56849 0.86821 0.52710 0.05400
C 	C 	0.57120 0.78623 0.47310 0.00500
C 	C 	0.55223 0.76871 0.42571 -0.03300
C 	C 	0.55041 0.77913 0.36267 -0.03200
C 	C 	0.56931 0.80626 0.34620 0.03100
C 	C 	0.58898 0.82304 0.39311 -0.06100
S 	S 	0.57132 0.77372 0.55233 -0.03600
H 	H 	0.53779 0.74785 0.43852 0.04300
S 	S 	0.56696 0.82101 0.26824 -0.04600
H 	H 	0.60318 0.84413 0.38049 0.05400
H 	H 	0.58895 0.94951 0.51923 0.04300
H 	H 	0.54359 0.78348 0.57895 0.04000
H 	H 	0.54275 0.84362 0.26376 0.03700
H 	H 	0.65988 0.77352 0.55206 0.03700
C 	C 	0.91813 0.03862 0.81751 -0.03400
C 	C 	0.91249 0.03710 0.88309 -0.10600
C 	C 	0.93074 0.05711 0.92846 -0.07100
C 	C 	0.95466 0.07786 0.90868 -0.04900
C 	C 	0.96062 0.07894 0.84337 -0.09200
C 	C 	0.94212 0.05941 0.79779 -0.02800
H 	H 	0.90434 0.02339 0.78189 0.03600
H 	H 	0.92652 0.05647 0.97913 0.00600
H 	H 	0.96873 0.09287 0.94424 0.01300
H 	H 	0.94626 0.06038 0.74712 0.03600
C 	C 	0.77972 0.08325 0.93863 -0.02500
C 	C 	0.79501 0.05809 0.97257 -0.10000
C 	C 	0.81051 0.06680 0.03211 -0.03600
C 	C 	0.81528 0.10066 0.05158 -0.03100
C 	C 	0.80474 0.12572 0.01146 -0.11600
C 	C 	0.78455 0.11697 0.95815 -0.01300
H 	H 	0.76584 0.07685 0.89480 0.04000
H 	H 	0.81994 0.04760 0.06186 -0.05700
H 	H 	0.82932 0.10729 0.09506 0.03200
H 	H 	0.77510 0.13626 0.92834 0.02800
C 	C 	0.72272 0.89056 0.69403 -0.07700
C 	C 	0.70489 0.86977 0.73064 0.01800
C 	C 	0.71592 0.86310 0.79324 -0.00500
C 	C 	0.74287 0.87954 0.82022 -0.00500
C 	C 	0.75783 0.90444 0.78734 -0.08100
C 	C 	0.74825 0.90914 0.72259 0.05600
C 	C 	0.67259 0.85958 0.70737 0.00400
S 	S 	0.69503 0.83592 0.83996 -0.03000
H 	H 	0.75109 0.87444 0.86858 0.05500
S 	S 	0.76645 0.93925 0.67778 -0.03600
H 	H 	0.71513 0.89436 0.64485 0.06600
C 	C 	0.64755 0.88285 0.70987 0.00900
C 	C 	0.61631 0.87153 0.70201 -0.03200
C 	C 	0.60959 0.83709 0.69474 -0.03000
C 	C 	0.63463 0.81394 0.68879 0.03000
C 	C 	0.66592 0.82554 0.69209 -0.05900
S 	S 	0.65492 0.92601 0.72653 -0.03500
H 	H 	0.59712 0.88941 0.70550 0.04700
S 	S 	0.62731 0.77042 0.68172 -0.04600
H 	H 	0.68515 0.80774 0.68812 0.04900
H 	H 	0.79085 0.92459 0.64564 0.04000
H 	H 	0.65988 0.94101 0.67046 0.04200
H 	H 	0.62636 0.75838 0.74173 0.04000
H 	H 	0.67180 0.85358 0.87051 0.04100
C 	C 	0.04869 0.64655 0.27769 -0.05000
C 	C 	0.06418 0.63012 0.22603 0.09900
C 	C 	0.06194 0.59503 0.21655 -0.08800
C 	C 	0.04552 0.57614 0.25897 -0.00600
C 	C 	0.03188 0.59242 0.31308 0.07100
C 	C 	0.03346 0.62750 0.32158 -0.05400
N 	N 	0.08184 0.64772 0.18658 -0.19900
H 	H 	0.07310 0.58238 0.17620 0.05100
C 	C 	0.04274 0.53934 0.24659 -0.00700
N 	N 	0.01714 0.57457 0.35681 -0.19400
H 	H 	0.02199 0.64010 0.36162 0.04900
C 	C 	0.06576 0.51867 0.27400 -0.08700
C 	C 	0.05860 0.48514 0.28470 0.10000
C 	C 	0.02784 0.47262 0.26861 -0.05300
C 	C 	0.00712 0.49139 0.23069 -0.05300
C 	C 	0.01439 0.52483 0.21926 0.07000
H 	H 	0.08837 0.52930 0.29119 0.05300
N 	N 	0.08097 0.46531 0.31172 -0.19900
H 	H 	0.98422 0.48101 0.21476 0.04700
N 	N 	0.99371 0.54315 0.18407 -0.19500
H 	H 	0.10332 0.47501 0.32582 0.08300
H 	H 	0.07671 0.43982 0.31675 0.08900
H 	H 	0.97225 0.53267 0.16601 0.08100
H 	H 	0.99920 0.56755 0.17254 0.08500
H 	H 	0.00670 0.58691 0.39592 0.08300
H 	H 	0.01629 0.54839 0.35322 0.09000
H 	H 	0.08680 0.67319 0.19642 0.09100
H 	H 	0.09205 0.63561 0.14696 0.08100
C 	C 	0.90171 0.58107 0.89992 -0.05600
C 	C 	0.90125 0.60292 0.84896 0.10400
C 	C 	0.91922 0.63256 0.85544 -0.08700
C 	C 	0.93574 0.64156 0.91347 -0.00600
C 	C 	0.93032 0.62346 0.96828 0.07500
C 	C 	0.91396 0.59270 0.96072 -0.04000
N 	N 	0.88385 0.59535 0.79377 -0.19900
H 	H 	0.92144 0.64783 0.81455 0.05400
C 	C 	0.96156 0.66672 0.91389 -0.00200
N 	N 	0.94150 0.63496 0.02749 -0.20000
H 	H 	0.91258 0.57691 0.00108 0.03600
C 	C 	0.95386 0.70037 0.90526 -0.08700
C 	C 	0.97767 0.72449 0.90034 0.10300
C 	C 	0.00977 0.71464 0.90446 -0.05000
C 	C 	0.01752 0.68136 0.91585 -0.05000
C 	C 	0.99378 0.65694 0.91806 0.07000
H 	H 	0.92922 0.70769 0.90111 0.05700
N 	N 	0.96958 0.75694 0.89143 -0.19900
H 	H 	0.04218 0.67404 0.91937 0.04800
N 	N 	0.00205 0.62411 0.92158 -0.19200
H 	H 	0.94583 0.76368 0.88530 0.09100
H 	H 	0.98662 0.77593 0.89234 0.09400
H 	H 	0.02582 0.61742 0.92751 0.08400
H 	H 	0.98533 0.60484 0.91538 0.09000
H 	H 	0.93862 0.62076 0.06736 0.08100
H 	H 	0.95207 0.65863 0.03480 0.08500
H 	H 	0.86831 0.57489 0.78989 0.09200
H 	H 	0.88463 0.61084 0.75517 0.08400
C 	C 	0.07027 0.77172 0.74868 -0.05000
C 	C 	0.08564 0.74674 0.71079 0.10100
C 	C 	0.08331 0.74738 0.64357 -0.08600
C 	C 	0.06667 0.77304 0.61383 -0.00500
C 	C 	0.05439 0.80004 0.65192 0.06900
C 	C 	0.05608 0.79897 0.71918 -0.05300
N 	N 	0.10249 0.72203 0.73863 -0.19900
H 	H 	0.09369 0.72732 0.61432 0.05500
C 	C 	0.05906 0.76925 0.54366 -0.00500
N 	N 	0.04090 0.82691 0.62433 -0.19400
H 	H 	0.04512 0.81864 0.74842 0.04700
C 	C 	0.02926 0.75671 0.52211 -0.08500
C 	C 	0.02291 0.74738 0.45693 0.10200
C 	C 	0.04707 0.75025 0.41276 -0.04900
C 	C 	0.07614 0.76492 0.43358 -0.05200
C 	C 	0.08228 0.77483 0.49866 0.07000
H 	H 	0.01122 0.75328 0.55646 0.05500
N 	N 	0.99378 0.73531 0.43729 -0.20000
H 	H 	0.09438 0.76776 0.39942 0.04800
N 	N 	0.11039 0.78966 0.51750 -0.19400
H 	H 	0.97636 0.73243 0.47049 0.08300
H 	H 	0.98786 0.72946 0.38890 0.09100
H 	H 	0.12775 0.79285 0.48430 0.08300
H 	H 	0.11491 0.79906 0.56468 0.08700
H 	H 	0.03104 0.84627 0.65266 0.08400
H 	H 	0.04098 0.82934 0.57485 0.09000
H 	H 	0.10635 0.72215 0.78837 0.09200
H 	H 	0.11289 0.70298 0.71039 0.08500
C 	C 	0.97394 0.09610 0.13630 -0.02300
C 	C 	0.95790 0.06581 0.14367 -0.08500
C 	C 	0.92483 0.06498 0.13481 -0.01200
C 	C 	0.90883 0.09179 0.10778 -0.02900
C 	C 	0.92568 0.12001 0.09094 -0.06700
C 	C 	0.95799 0.12295 0.10879 -0.01400
H 	H 	0.99928 0.09766 0.14569 0.02800
H 	H 	0.91201 0.04208 0.14200 -0.01700
H 	H 	0.88383 0.08940 0.09521 -0.00600
H 	H 	0.97117 0.14497 0.09744 0.02200
C 	C 	0.93684 0.92948 0.09760 0.02300
C 	C 	0.96286 0.92913 0.05813 -0.13300
C 	C 	0.95820 0.92125 0.99213 -0.00400
C 	C 	0.92761 0.91781 0.96484 -0.00300
C 	C 	0.90142 0.92258 0.00335 -0.10700
C 	C 	0.90623 0.92649 0.07022 -0.04900
H 	H 	0.94017 0.93414 0.14903 -0.05200
H 	H 	0.97821 0.91935 0.96156 0.01600
H 	H 	0.92431 0.91329 0.91337 0.03800
H 	H 	0.88629 0.92891 0.10069 0.02200
C 	C 	0.04421 0.08637 0.01572 -0.07900
C 	C 	0.06848 0.06700 0.04216 -0.08100
C 	C 	0.09777 0.06521 0.01332 -0.04400
C 	C 	0.10145 0.07941 0.95445 0.02500
C 	C 	0.07603 0.09600 0.92493 -0.14500
C 	C 	0.04800 0.10095 0.95754 0.00800
H 	H 	0.02146 0.08774 0.03742 -0.00000
H 	H 	0.11680 0.05054 0.03381 0.04300
H 	H 	0.12339 0.07590 0.93016 0.02800
H 	H 	0.02823 0.11366 0.93543 -0.07400
C 	C 	0.13198 0.88148 0.16337 -0.07100
C 	C 	0.10551 0.86017 0.15563 0.01400
C 	C 	0.08069 0.86524 0.19791 -0.00300
C 	C 	0.07856 0.89609 0.23340 -0.00900
C 	C 	0.10053 0.92162 0.22415 -0.08100
C 	C 	0.12994 0.91177 0.20051 0.05400
C 	C 	0.09981 0.84042 0.09382 0.00700
S 	S 	0.05098 0.83466 0.20198 -0.03100
H 	H 	0.05746 0.90191 0.25935 0.04700
S 	S 	0.16211 0.93984 0.20642 -0.05200
H 	H 	0.15264 0.87626 0.13568 0.04900
C 	C 	0.08053 0.85334 0.04406 -0.00700
C 	C 	0.07377 0.83369 0.98756 -0.02100
C 	C 	0.08614 0.80131 0.97950 -0.02300
C 	C 	0.10713 0.78922 0.02718 0.02100
C 	C 	0.11365 0.80872 0.08434 -0.06100
S 	S 	0.06462 0.89399 0.05194 -0.03700
H 	H 	0.05787 0.84317 0.95072 0.04300
S 	S 	0.12569 0.75004 0.01542 -0.06200
H 	H 	0.12917 0.79907 0.12158 0.04900
H 	H 	0.16100 0.95940 0.15456 0.04200
H 	H 	0.08537 0.91640 0.02935 0.03800
H 	H 	0.15343 0.75426 0.98540 0.04500
H 	H 	0.02806 0.83886 0.15474 0.03700
C 	C 	0.84269 0.98946 0.17205 -0.07100
C 	C 	0.81798 0.96716 0.18219 -0.07200
C 	C 	0.78939 0.97972 0.20468 -0.04800
C 	C 	0.78621 0.01400 0.22085 -0.01600
C 	C 	0.81179 0.03593 0.21564 -0.07500
C 	C 	0.83935 0.02384 0.18763 -0.05400
H 	H 	0.86498 0.98003 0.15511 -0.04100
H 	H 	0.77027 0.96275 0.21294 -0.03900
H 	H 	0.76463 0.02313 0.24164 -0.04600
H 	H 	0.85900 0.04067 0.18218 0.00100
C 	C 	0.73527 0.89759 0.16990 -0.04500
C 	C 	0.74219 0.86315 0.16651 -0.10100
C 	C 	0.72977 0.84273 0.21173 -0.04300
C 	C 	0.71650 0.85729 0.26660 -0.01800
C 	C 	0.71493 0.89238 0.27564 -0.13200
C 	C 	0.72156 0.91221 0.22445 -0.00700
H 	H 	0.74346 0.91350 0.13366 0.03400
H 	H 	0.73362 0.81586 0.20800 0.02600
H 	H 	0.70937 0.84140 0.30380 0.03200
H 	H 	0.71770 0.93902 0.22816 -0.06900
C 	C 	0.93980 0.85156 0.22902 -0.01200
C 	C 	0.90971 0.85348 0.25459 -0.09400
C 	C 	0.90720 0.85848 0.32114 -0.00900
C 	C 	0.93406 0.86745 0.35976 -0.01500
C 	C 	0.96291 0.87287 0.33109 -0.08600
C 	C 	0.96643 0.86082 0.26754 -0.02600
H 	H 	0.94223 0.84558 0.17830 0.04100
H 	H 	0.88422 0.85848 0.34202 -0.00400
H 	H 	0.93149 0.87456 0.41008 0.04300
H 	H 	0.98901 0.86305 0.24577 0.03600
C 	C 	0.91594 0.75287 0.01486 -0.09200
C 	C 	0.94045 0.77504 0.03638 0.02100
C 	C 	0.93939 0.80834 0.01731 -0.01900
C 	C 	0.91109 0.82082 0.99077 0.00300
C 	C 	0.88377 0.80055 0.98642 -0.07800
C 	C 	0.88778 0.76555 0.98807 0.06600
C 	C 	0.96232 0.76578 0.08979 0.00100
S 	S 	0.97298 0.83451 0.02714 -0.04600
H 	H 	0.90936 0.84716 0.98127 0.05200
S 	S 	0.85677 0.73791 0.96259 -0.03600
H 	H 	0.91768 0.72647 0.02419 0.05200
C 	C 	0.95177 0.76519 0.15294 0.00400
C 	C 	0.97284 0.75700 0.20311 -0.03500
C 	C 	0.00403 0.74783 0.19080 -0.03000
C 	C 	0.01473 0.74894 0.12789 0.03000
C 	C 	0.99385 0.75789 0.07784 -0.06400
S 	S 	0.91188 0.77296 0.16927 -0.03400
H 	H 	0.96451 0.75611 0.25132 0.04500
S 	S 	0.05427 0.73964 0.11143 -0.03700
H 	H 	0.00213 0.75874 0.02965 0.05500
H 	H 	0.83886 0.73171 0.01369 0.03700
H 	H 	0.89493 0.74368 0.16003 0.03400
H 	H 	0.05677 0.70625 0.09324 0.03700
H 	H 	0.97318 0.85208 0.08538 0.03700
