data_crystal

_cell_length_a 18.22788
_cell_length_b 18.08951
_cell_length_c 48.17570
_cell_angle_alpha 89.64124
_cell_angle_beta  89.64664
_cell_angle_gamma 119.40159

_symmetry_space_group_name_	'P 1'
_symmetry_space_group_name_H-M	'P 1'

loop_
_symmetry_equiv_pos_as_xyz
  x,y,z

loop_
_atom_site_label
_atom_site_type_symbol
_atom_site_fract_x
_atom_site_fract_y
_atom_site_fract_z
_atom_site_charge
H 	H 	0.01573 0.01869 0.24243 0.13100
H 	H 	0.04932 0.03454 0.36257 0.05400
H 	H 	0.00787 0.40667 0.51185 0.04900
H 	H 	0.02080 0.24043 0.57421 0.05800
H 	H 	0.00881 0.77191 0.66977 0.04900
C 	C 	0.05096 0.50617 0.96164 0.04800
H 	H 	0.00068 0.60425 0.04995 0.04300
H 	H 	0.09126 0.78523 0.95520 0.05400
Ni	Ni	0.00329 0.91700 0.74242 1.09400
Ni	Ni	0.99577 0.09186 0.73142 1.12800
H 	H 	0.03137 0.32705 0.01628 0.06300
C 	C 	0.00112 0.62263 0.07137 -0.04200
C 	C 	0.98742 0.67914 0.37436 -0.10300
H 	H 	0.97789 0.65673 0.39629 0.05300
C 	C 	0.03810 0.46092 0.49791 -0.08900
C 	C 	0.03539 0.57600 0.47230 0.00200
H 	H 	0.04079 0.69305 0.45842 0.03100
H 	H 	0.01120 0.98817 0.62342 0.04100
H 	H 	0.01544 0.14460 0.56080 0.06000
C 	C 	0.10344 0.67870 0.97018 0.10200
H 	H 	0.08056 0.40631 0.95168 0.06900
H 	H 	0.81530 0.60741 0.81110 0.06300
H 	H 	0.90387 0.69506 0.79425 0.07700
O 	O 	0.03473 0.12311 0.17507 -0.39000
O 	O 	0.00786 0.86558 0.22967 -0.41400
H 	H 	0.04014 0.23235 0.53787 0.05600
Ni	Ni	0.05723 0.97210 0.20514 1.10200
H 	H 	0.07023 0.25487 0.05526 0.05000
H 	H 	0.04292 0.97803 0.12500 0.05000
C 	C 	0.00832 0.69853 0.31288 -0.04600
C 	C 	0.13265 0.77239 0.96886 -0.20100
C 	C 	0.09133 0.10797 0.16351 0.30900
H 	H 	0.06998 0.41255 0.04098 0.08000
C 	C 	0.00293 0.67221 0.12644 -0.12600
H 	H 	0.00440 0.69342 0.14755 0.05100
C 	C 	0.02563 0.63808 0.32849 0.02700
C 	C 	0.02993 0.64037 0.35772 -0.02000
H 	H 	0.02671 0.74933 0.37395 0.02900
H 	H 	0.13108 0.79586 0.98998 0.06800
O 	O 	0.05940 0.99146 0.77682 -0.41100
O 	O 	0.06577 0.08084 0.70058 -0.40700
C 	C 	0.08784 0.38581 0.02316 -0.20600
C 	C 	0.13217 0.15258 0.13738 -0.10500
H 	H 	0.17093 0.27583 0.15460 0.03100
H 	H 	0.18971 0.39673 0.09887 0.05800
C 	C 	0.06012 0.83323 0.28818 -0.06300
C 	C 	0.13566 0.56359 0.96744 -0.02800
O 	O 	0.09170 0.12464 0.75933 -0.39700
O 	O 	0.12411 0.06892 0.17762 -0.37900
O 	O 	0.15228 0.16633 0.22227 -0.37900
C 	C 	0.16718 0.24095 0.13594 -0.01500
C 	C 	0.13062 0.10742 0.11332 0.08400
C 	C 	0.10577 0.01481 0.11509 -0.15400
H 	H 	0.10945 0.43195 0.00570 0.07700
C 	C 	0.07163 0.64257 0.08796 -0.11500
C 	C 	0.05507 0.59091 0.31394 -0.11000
C 	C 	0.08127 0.61352 0.37108 -0.00100
H 	H 	0.04613 0.58336 0.29169 0.05000
C 	C 	0.07414 0.78160 0.30680 0.04800
C 	C 	0.11532 0.59939 0.46108 -0.01100
C 	C 	0.11890 0.48566 0.48719 0.09700
C 	C 	0.16074 0.64823 0.97426 -0.10600
H 	H 	0.19726 0.80843 0.95992 0.07700
C 	C 	0.07044 0.66376 0.11627 0.10500
C 	C 	0.00165 0.19679 0.55628 -0.19500
C 	C 	0.11051 0.07440 0.77474 0.31600
O 	O 	0.11563 0.00067 0.72163 -0.38500
C 	C 	0.13465 0.29419 0.04809 -0.09500
H 	H 	0.10263 0.98758 0.09424 0.03700
H 	H 	0.13111 0.05490 0.28708 0.07100
H 	H 	0.09309 0.62439 0.39313 0.02500
H 	H 	0.13093 0.39356 0.51331 0.06100
C 	C 	0.12657 0.06304 0.70475 0.31000
O 	O 	0.15263 0.04045 0.23179 -0.37700
C 	C 	0.19551 0.28433 0.11051 0.02500
C 	C 	0.15528 0.15032 0.08759 -0.08800
H 	H 	0.24507 0.40700 0.13066 0.05200
C 	C 	0.10482 0.56249 0.32739 0.10600
H 	H 	0.11092 0.89616 0.28298 0.03500
H 	H 	0.14472 0.65217 0.44649 0.02900
H 	H 	0.18112 0.54140 0.96794 0.04400
H 	H 	0.09892 0.48021 0.29418 0.06100
H 	H 	0.15478 0.47602 0.32397 0.08100
C 	C 	0.18127 0.12268 0.23631 0.29200
C 	C 	0.15588 0.36645 0.03171 0.09900
C 	C 	0.18534 0.23798 0.08595 0.00100
C 	C 	0.23325 0.37961 0.10951 -0.17200
H 	H 	0.15021 0.11541 0.06883 0.04800
C 	C 	0.12741 0.58494 0.35536 -0.11600
C 	C 	0.15594 0.55293 0.46764 -0.10900
H 	H 	0.12955 0.09264 0.64988 0.03700
H 	H 	0.22541 0.43356 0.27051 0.05400
C 	C 	0.14875 0.64953 0.07483 0.31700
O 	O 	0.17170 0.68320 0.05001 -0.39600
H 	H 	0.15265 0.00703 0.12753 0.06800
C 	C 	0.14259 0.51925 0.31077 -0.20800
C 	C 	0.16297 0.43693 0.49542 -0.20300
H 	H 	0.16367 0.39840 0.47767 0.07400
H 	H 	0.15615 0.94274 0.80290 0.06800
C 	C 	0.19821 0.27986 0.05846 0.00200
C 	C 	0.14112 0.67911 0.13572 -0.20900
H 	H 	0.12993 0.69592 0.15687 0.06300
H 	H 	0.21039 0.33148 0.28105 0.06500
H 	H 	0.14638 0.62078 0.13793 0.07800
C 	C 	0.19314 0.08859 0.29735 -0.20000
C 	C 	0.16030 0.81408 0.31922 -0.18300
H 	H 	0.15570 0.81139 0.34222 0.06400
H 	H 	0.17386 0.22529 0.79985 0.03600
C 	C 	0.24274 0.69969 0.98829 0.31200
C 	C 	0.25689 0.39452 0.27241 -0.17100
H 	H 	0.27602 0.38656 0.25121 0.06200
H 	H 	0.22102 0.04614 0.29809 0.07300
H 	H 	0.18192 0.10199 0.31897 0.06300
C 	C 	0.19165 0.11154 0.65781 -0.01400
C 	C 	0.20189 0.10248 0.68627 -0.11400
H 	H 	0.18354 0.14190 0.60485 0.05600
C 	C 	0.18672 0.11468 0.79234 -0.11600
H 	H 	0.18655 0.97321 0.76696 0.05800
C 	C 	0.02522 0.41614 0.95381 -0.24100
O 	O 	0.21709 0.52229 0.42797 -0.39000
O 	O 	0.19789 0.63008 0.08922 -0.38600
H 	H 	0.18827 0.77498 0.31209 0.07000
C 	C 	0.20828 0.98559 0.78872 -0.21600
H 	H 	0.20197 0.56827 0.30091 0.07300
H 	H 	0.29455 0.40915 0.09822 0.06000
C 	C 	0.21343 0.60991 0.36440 0.29400
C 	C 	0.22981 0.56688 0.45099 0.29300
O 	O 	0.25799 0.76810 0.00221 -0.39900
O 	O 	0.23601 0.54392 0.04535 -0.39000
C 	C 	0.24186 0.42517 0.02650 -0.11300
H 	H 	0.20124 0.73279 0.12806 0.08800
H 	H 	0.20387 0.88103 0.31304 0.05500
H 	H 	0.22871 0.48142 0.50161 0.07800
C 	C 	0.21296 0.19613 0.80282 -0.01400
Ni	Ni	0.02478 0.13021 0.21780 1.10300
O 	O 	0.23642 0.55069 0.36788 -0.38300
C 	C 	0.25792 0.17057 0.25268 -0.10300
C 	C 	0.25229 0.16905 0.28191 0.09200
C 	C 	0.23823 0.07680 0.79635 0.10900
C 	C 	0.27064 0.51721 0.02707 0.30500
C 	C 	0.24879 0.15541 0.60914 -0.17000
H 	H 	0.26130 0.15749 0.73868 0.07900
O 	O 	0.30324 0.68185 0.98389 -0.39600
C 	C 	0.27962 0.32483 0.04659 0.02800
C 	C 	0.26122 0.14522 0.63956 0.02100
H 	H 	0.25008 0.13928 0.87094 0.06400
H 	H 	0.25948 0.96937 0.79058 0.05600
H 	H 	0.29626 0.24503 0.31888 0.04900
H 	H 	0.26072 0.90086 0.42773 0.06600
H 	H 	0.26110 0.11091 0.59682 0.06300
O 	O 	0.26991 0.69203 0.36348 -0.37900
Ni	Ni	0.28814 0.78189 0.04271 1.11700
C 	C 	0.30516 0.24277 0.29669 -0.09100
H 	H 	0.28334 0.07013 0.73494 0.07800
H 	H 	0.30514 0.53238 0.30482 0.03700
C 	C 	0.98171 0.80333 0.27559 -0.07000
C 	C 	0.97141 0.85673 0.25452 0.30900
C 	C 	0.93515 0.65732 0.10942 0.02800
C 	C 	0.77789 0.56653 0.95622 0.27800
C 	C 	0.65312 0.23849 0.01060 0.28600
C 	C 	0.90157 0.47239 0.96957 0.30100
C 	C 	0.57173 0.40850 0.00885 0.29400
C 	C 	0.64905 0.21723 0.92681 0.30100
C 	C 	0.58303 0.34213 0.90931 0.29500
Ni	Ni	0.74310 0.42978 0.00129 1.10700
Ni	Ni	0.57405 0.28915 0.96722 1.11700
Ni	Ni	0.75339 0.40083 0.93420 1.11700
O 	O 	0.76497 0.54713 0.98356 -0.37000
O 	O 	0.80632 0.52865 0.93913 -0.38500
O 	O 	0.58743 0.20084 0.94488 -0.39500
O 	O 	0.72600 0.30974 0.01339 -0.36000
O 	O 	0.58482 0.24111 0.00396 -0.37800
O 	O 	0.66577 0.39172 0.90612 -0.39900
O 	O 	0.87003 0.47389 0.99370 -0.37600
O 	O 	0.85759 0.41141 0.95234 -0.38600
O 	O 	0.54655 0.33536 0.93350 -0.40200
O 	O 	0.63181 0.40231 0.02145 -0.38600
O 	O 	0.52876 0.35485 0.98902 -0.37800
O 	O 	0.72500 0.28042 0.93055 -0.40100
O 	O 	0.68740 0.38266 0.96714 -0.69800
H 	H 	0.66645 0.42194 0.96275 0.13200
C 	C 	0.77653 0.24010 0.51970 0.27600
C 	C 	0.64313 0.41869 0.45053 0.31800
C 	C 	0.90306 0.46388 0.49594 0.30000
C 	C 	0.56292 0.18060 0.46884 0.29400
C 	C 	0.68759 0.50121 0.52620 0.30000
C 	C 	0.58676 0.29519 0.56298 0.30900
Ni	Ni	0.74126 0.33662 0.47114 1.10900
Ni	Ni	0.57806 0.32686 0.50271 1.12100
Ni	Ni	0.75616 0.38851 0.53519 1.11800
O 	O 	0.79221 0.26957 0.49318 -0.36900
O 	O 	0.75669 0.27775 0.54005 -0.38200
O 	O 	0.61386 0.44759 0.51493 -0.38900
O 	O 	0.71338 0.41666 0.44740 -0.37000
O 	O 	0.57887 0.35597 0.46252 -0.39700
O 	O 	0.66249 0.36218 0.56299 -0.40700
O 	O 	0.85083 0.45102 0.47605 -0.37900
O 	O 	0.87464 0.42804 0.52007 -0.38500
O 	O 	0.53955 0.27517 0.54072 -0.39900
O 	O 	0.63360 0.23305 0.45530 -0.37900
O 	O 	0.52758 0.20695 0.48784 -0.37600
O 	O 	0.75496 0.49298 0.52232 -0.39500
O 	O 	0.68507 0.33207 0.50426 -0.71400
H 	H 	0.66105 0.27201 0.50946 0.14800
C 	C 	0.87599 0.80288 0.70124 0.30900
C 	C 	0.84930 0.83240 0.78117 0.29200
C 	C 	0.88872 0.02858 0.68246 0.32700
C 	C 	0.83883 0.05983 0.76037 0.29600
Ni	Ni	0.82555 0.91158 0.73028 1.11600
O 	O 	0.84524 0.94827 0.69009 -0.40600
O 	O 	0.95724 0.84988 0.70548 -0.37800
O 	O 	0.82292 0.80259 0.71956 -0.39200
O 	O 	0.92232 0.10929 0.75953 -0.37700
O 	O 	0.79987 0.00481 0.74042 -0.38500
O 	O 	0.90542 0.82127 0.76648 -0.36800
O 	O 	0.80242 0.86133 0.76925 -0.38700
O 	O 	0.91841 0.08846 0.70128 -0.38900
O 	O 	0.94152 0.97480 0.74056 -0.71300
H 	H 	0.93477 0.98183 0.76049 0.15300
C 	C 	0.55749 0.80234 0.40399 0.31600
C 	C 	0.40887 0.59253 0.34842 0.31400
C 	C 	0.38651 0.84831 0.42211 0.29200
C 	C 	0.45085 0.57113 0.43525 0.30900
Ni	Ni	0.39494 0.73816 0.37369 1.11200
Ni	Ni	0.40622 0.70557 0.43999 1.11900
Ni	Ni	0.30897 0.54679 0.39997 1.11700
O 	O 	0.47564 0.64889 0.44302 -0.40500
O 	O 	0.52027 0.77433 0.38010 -0.38700
O 	O 	0.51466 0.80638 0.42541 -0.39500
O 	O 	0.39178 0.65404 0.34343 -0.37900
O 	O 	0.40287 0.56316 0.37369 -0.40100
O 	O 	0.30655 0.61267 0.46147 -0.38800
O 	O 	0.40530 0.84453 0.39545 -0.37100
O 	O 	0.35362 0.78042 0.43824 -0.39600
O 	O 	0.37112 0.51931 0.42934 -0.39200
O 	O 	0.35599 0.66519 0.40498 -0.71600
H 	H 	0.30335 0.66640 0.40844 0.14900
C 	C 	0.47193 0.64386 0.05104 0.30000
C 	C 	0.36011 0.80290 0.10058 0.28300
C 	C 	0.46264 0.89189 0.02060 0.30100
Ni	Ni	0.30720 0.63317 0.07433 1.11000
Ni	Ni	0.39057 0.70192 0.01221 1.11800
O 	O 	0.40938 0.60931 0.06963 -0.38100
O 	O 	0.48405 0.71010 0.03615 -0.39600
O 	O 	0.45494 0.82963 0.00382 -0.38800
O 	O 	0.34049 0.57164 0.01365 -0.38100
O 	O 	0.39650 0.88838 0.03369 -0.39900
O 	O 	0.36863 0.73379 0.10138 -0.37700
O 	O 	0.30279 0.80697 0.08450 -0.38800
O 	O 	0.34236 0.71580 0.04569 -0.71200
H 	H 	0.39552 0.75917 0.05376 0.14700
C 	C 	0.93194 0.07189 0.27211 0.32200
C 	C 	0.84720 0.05762 0.19796 0.33300
C 	C 	0.89669 0.85310 0.17909 0.31600
Ni	Ni	0.87901 0.93551 0.22942 1.11500
O 	O 	0.00104 0.13330 0.26006 -0.40200
O 	O 	0.86853 0.01538 0.25703 -0.38400
O 	O 	0.97414 0.91476 0.17462 -0.39100
O 	O 	0.91348 0.87996 0.25892 -0.39600
O 	O 	0.90688 0.11967 0.21203 -0.37800
O 	O 	0.84091 0.98214 0.19770 -0.41000
O 	O 	0.86205 0.84030 0.20396 -0.39300
O 	O 	0.99454 0.01589 0.22350 -0.67700
C 	C 	0.30119 0.39806 0.03057 -0.02000
C 	C 	0.34579 0.30103 0.05347 -0.17800
H 	H 	0.36546 0.43771 0.02374 0.04800
H 	H 	0.31708 0.23175 0.05743 0.06600
H 	H 	0.38061 0.33584 0.07216 0.06500
H 	H 	0.39064 0.31691 0.03582 0.07400
C 	C 	0.66198 0.08472 0.18010 -0.10600
C 	C 	0.63686 0.03586 0.15599 0.03100
C 	C 	0.69551 0.02049 0.14144 0.03000
C 	C 	0.77205 0.04027 0.15395 -0.00600
C 	C 	0.78946 0.07330 0.18082 -0.11900
C 	C 	0.73819 0.10342 0.19283 0.10800
C 	C 	0.54621 0.98511 0.14994 -0.04700
C 	C 	0.67225 0.97281 0.11447 -0.18500
H 	H 	0.81452 0.02266 0.14387 0.04600
C 	C 	0.76075 0.14904 0.22011 -0.21000
H 	H 	0.61870 0.10092 0.19035 0.05600
C 	C 	0.49888 0.90178 0.16071 0.04200
C 	C 	0.42647 0.84326 0.14677 -0.03000
C 	C 	0.40214 0.86744 0.12229 -0.09500
C 	C 	0.43673 0.95503 0.11625 0.06600
C 	C 	0.51094 0.01335 0.12957 -0.04200
C 	C 	0.52987 0.87296 0.18521 -0.18000
H 	H 	0.39372 0.77735 0.15347 0.04000
C 	C 	0.39330 0.98681 0.09700 -0.21800
H 	H 	0.54302 0.07954 0.12325 0.03800
H 	H 	0.71774 0.17406 0.22552 0.06700
H 	H 	0.82573 0.20374 0.21910 0.08300
H 	H 	0.75610 0.10439 0.23675 0.07800
H 	H 	0.63903 0.99601 0.10079 0.06200
H 	H 	0.63076 0.90402 0.11870 0.06700
H 	H 	0.72913 0.98164 0.10301 0.05900
H 	H 	0.48001 0.81108 0.19363 0.05800
H 	H 	0.54875 0.91984 0.20219 0.06000
H 	H 	0.58472 0.86586 0.17884 0.06400
H 	H 	0.41605 0.05550 0.10009 0.07900
H 	H 	0.32434 0.95270 0.10109 0.07400
H 	H 	0.40605 0.97796 0.07516 0.07900
C 	C 	0.88098 0.75894 0.11044 -0.09000
C 	C 	0.87336 0.68178 0.11974 -0.00300
C 	C 	0.83138 0.64770 0.14527 0.02800
C 	C 	0.82644 0.70248 0.16478 -0.01500
C 	C 	0.85608 0.78791 0.15763 -0.11300
C 	C 	0.87002 0.81168 0.12931 0.10400
C 	C 	0.80416 0.55734 0.15334 -0.17400
H 	H 	0.80756 0.68092 0.18601 0.04000
C 	C 	0.86446 0.88748 0.11888 -0.20800
H 	H 	0.90347 0.78157 0.08954 0.05000
C 	C 	0.93189 0.62792 0.08213 0.04100
C 	C 	0.85654 0.60501 0.06408 -0.17100
H 	H 	0.79736 0.86891 0.11564 0.06900
H 	H 	0.89906 0.91137 0.09886 0.07000
H 	H 	0.89169 0.94053 0.13381 0.08500
H 	H 	0.85571 0.55456 0.16460 0.06700
H 	H 	0.78800 0.51675 0.13466 0.06300
H 	H 	0.74742 0.53129 0.16700 0.05900
H 	H 	0.85303 0.56245 0.04699 0.05000
H 	H 	0.86105 0.66345 0.05482 0.06300
H 	H 	0.79721 0.57104 0.07640 0.05900
C 	C 	0.77292 0.87463 0.37728 -0.09200
C 	C 	0.80510 0.96257 0.37950 -0.00900
C 	C 	0.77007 0.99274 0.39971 0.01000
C 	C 	0.69041 0.93690 0.41105 -0.01100
C 	C 	0.65013 0.85057 0.40426 -0.11700
C 	C 	0.69674 0.81815 0.39056 0.10400
C 	C 	0.85575 0.01858 0.35610 0.02000
C 	C 	0.81341 0.08509 0.40734 -0.15800
H 	H 	0.65717 0.96168 0.42311 0.03300
C 	C 	0.66914 0.72484 0.39204 -0.21000
H 	H 	0.80344 0.85035 0.36363 0.04900
C 	C 	0.93260 0.02361 0.34780 0.02900
C 	C 	0.96221 0.04878 0.32047 0.01700
C 	C 	0.91916 0.07446 0.30221 -0.12300
C 	C 	0.85257 0.08559 0.31249 0.11300
C 	C 	0.81937 0.05472 0.33901 -0.10000
C 	C 	0.98074 0.99805 0.36731 -0.19200
H 	H 	0.01547 0.04343 0.31299 0.01200
C 	C 	0.81180 0.12335 0.29455 -0.21000
H 	H 	0.76207 0.05399 0.34566 0.05800
H 	H 	0.70062 0.70697 0.37568 0.06800
H 	H 	0.60020 0.68533 0.38927 0.08400
H 	H 	0.68589 0.70975 0.41260 0.07600
H 	H 	0.78669 0.11845 0.39518 0.06100
H 	H 	0.88229 0.11583 0.40326 0.06500
H 	H 	0.80431 0.09185 0.42981 0.06100
H 	H 	0.95935 0.92943 0.36506 0.06600
H 	H 	0.97168 0.01111 0.38919 0.07900
H 	H 	0.75711 0.07152 0.28391 0.07600
H 	H 	0.85688 0.16853 0.27894 0.08100
H 	H 	0.78914 0.15900 0.30742 0.06900
C 	C 	0.45843 0.44194 0.31061 -0.09800
C 	C 	0.38606 0.40009 0.29436 0.00500
C 	C 	0.33277 0.43571 0.29097 0.02100
C 	C 	0.34795 0.50744 0.30627 -0.01400
C 	C 	0.41420 0.54277 0.32514 -0.11800
C 	C 	0.47481 0.51564 0.32506 0.10100
C 	C 	0.36311 0.31650 0.28237 0.00100
C 	C 	0.55711 0.56570 0.33982 -0.20900
H 	H 	0.50147 0.41690 0.31218 0.04900
C 	C 	0.38212 0.31052 0.25434 0.02500
C 	C 	0.32858 0.23725 0.23951 -0.01600
C 	C 	0.45255 0.38538 0.23942 -0.17100
H 	H 	0.33657 0.23593 0.21722 0.04100
H 	H 	0.60553 0.55067 0.33181 0.06400
H 	H 	0.54800 0.55074 0.36230 0.07700
H 	H 	0.58152 0.63479 0.33665 0.07300
H 	H 	0.47245 0.36506 0.22043 0.05800
H 	H 	0.50835 0.41753 0.25301 0.06100
H 	H 	0.43138 0.43117 0.23337 0.06000
C 	C 	0.91530 0.72091 0.28208 0.07900
C 	C 	0.92896 0.66964 0.30103 -0.04900
C 	C 	0.83049 0.68683 0.26853 -0.19400
H 	H 	0.87864 0.60606 0.30584 0.04200
H 	H 	0.92455 0.66095 0.36568 0.05300
H 	H 	0.78876 0.61847 0.27345 0.06200
H 	H 	0.83802 0.69346 0.24560 0.07900
H 	H 	0.79887 0.72213 0.27604 0.07200
C 	C 	0.50005 0.95571 0.45082 -0.06900
C 	C 	0.42656 0.93135 0.43564 -0.07800
C 	C 	0.39303 0.98677 0.43360 0.05000
C 	C 	0.43601 0.06702 0.44607 -0.00900
C 	C 	0.51446 0.09381 0.45861 -0.10300
C 	C 	0.54908 0.03929 0.45920 0.10100
C 	C 	0.64158 0.07290 0.46431 -0.20500
H 	H 	0.52043 0.91037 0.45558 0.04600
H 	H 	0.41020 0.10970 0.44509 0.04000
C 	C 	0.31186 0.96059 0.41850 -0.20500
H 	H 	0.65498 0.02104 0.46986 0.07100
H 	H 	0.66395 0.11864 0.48148 0.07100
H 	H 	0.67791 0.10523 0.44522 0.07500
H 	H 	0.31979 0.95033 0.39624 0.06900
H 	H 	0.29229 0.00976 0.41983 0.07400
C 	C 	0.99420 0.50274 0.48944 -0.02600
C 	C 	0.99356 0.62768 0.46508 -0.11700
H 	H 	0.95924 0.63331 0.48336 0.06300
H 	H 	0.94881 0.59716 0.44784 0.06800
C 	C 	0.64380 0.55269 0.45283 -0.04200
C 	C 	0.63056 0.48352 0.43674 -0.10000
C 	C 	0.57075 0.45793 0.41537 0.08200
C 	C 	0.50886 0.48273 0.41618 -0.04300
C 	C 	0.51148 0.53916 0.43653 -0.09500
C 	C 	0.57959 0.57359 0.45552 0.08100
C 	C 	0.58111 0.62663 0.47983 -0.19300
H 	H 	0.69593 0.57900 0.46720 0.04600
H 	H 	0.45893 0.45821 0.40100 0.04500
C 	C 	0.56533 0.39481 0.39414 -0.19700
H 	H 	0.62191 0.62535 0.49665 0.07000
H 	H 	0.51710 0.60172 0.48898 0.07400
H 	H 	0.60649 0.69364 0.47305 0.07500
H 	H 	0.52347 0.32936 0.40205 0.07900
H 	H 	0.62874 0.40285 0.38968 0.07600
H 	H 	0.53970 0.40383 0.37433 0.06400
C 	C 	0.89731 0.03111 0.60368 -0.07900
C 	C 	0.86958 0.08913 0.59763 0.00400
C 	C 	0.85564 0.13293 0.61942 0.02700
C 	C 	0.86197 0.11200 0.64701 -0.01300
C 	C 	0.88752 0.05225 0.65318 -0.11000
C 	C 	0.91078 0.01561 0.63125 0.10500
C 	C 	0.84816 0.09877 0.56878 -0.00100
C 	C 	0.82997 0.19902 0.61338 -0.17400
H 	H 	0.84596 0.14155 0.66374 0.04400
C 	C 	0.95356 0.96367 0.63658 -0.18900
H 	H 	0.90966 0.99887 0.58691 0.03800
C 	C 	0.90907 0.16150 0.55103 0.04800
C 	C 	0.88276 0.19768 0.53016 -0.02500
C 	C 	0.79736 0.17430 0.52799 -0.09600
C 	C 	0.73654 0.10033 0.54217 0.08900
C 	C 	0.76317 0.06091 0.56166 -0.08700
H 	H 	0.92931 0.25066 0.51792 0.04700
C 	C 	0.64377 0.06211 0.53646 -0.20100
H 	H 	0.71689 0.00693 0.57364 0.05000
H 	H 	0.91109 0.89710 0.63062 0.07500
H 	H 	0.97298 0.96527 0.65842 0.08900
H 	H 	0.76326 0.16764 0.60673 0.06700
H 	H 	0.87061 0.24338 0.59678 0.07000
H 	H 	0.83634 0.23757 0.63200 0.06200
H 	H 	0.62543 0.01252 0.52045 0.06700
H 	H 	0.62640 0.10999 0.52949 0.06700
H 	H 	0.60625 0.03123 0.55551 0.06400
C 	C 	0.35254 0.16042 0.67828 -0.09600
C 	C 	0.34198 0.16823 0.64986 0.00400
C 	C 	0.28394 0.13177 0.69677 0.10000
C 	C 	0.41617 0.20157 0.63100 0.00400
C 	C 	0.29929 0.13436 0.72748 -0.20800
H 	H 	0.41479 0.17894 0.68613 0.05000
C 	C 	0.47126 0.28982 0.62808 0.02100
C 	C 	0.53608 0.31973 0.60805 -0.01400
C 	C 	0.54307 0.26312 0.58989 -0.11300
C 	C 	0.49441 0.17503 0.59497 0.10100
C 	C 	0.43038 0.14474 0.61528 -0.09500
C 	C 	0.45923 0.35215 0.64548 -0.17000
H 	H 	0.57781 0.38738 0.60548 0.03800
C 	C 	0.51004 0.11345 0.57861 -0.20900
H 	H 	0.39016 0.07698 0.61835 0.05100
H 	H 	0.36635 0.17843 0.73238 0.06700
H 	H 	0.29243 0.22151 0.60215 0.06100
H 	H 	0.50574 0.41887 0.63996 0.05600
H 	H 	0.46708 0.34201 0.66777 0.06100
H 	H 	0.39526 0.34362 0.64226 0.05900
H 	H 	0.48123 0.05012 0.58894 0.06700
H 	H 	0.57884 0.13742 0.57686 0.07100
H 	H 	0.48312 0.10599 0.55754 0.07900
C 	C 	0.66742 0.59534 0.59149 -0.09600
C 	C 	0.74914 0.66496 0.59292 0.00300
C 	C 	0.79826 0.69574 0.56840 0.02200
C 	C 	0.77143 0.64700 0.54419 -0.01600
C 	C 	0.69470 0.57039 0.54407 -0.11600
C 	C 	0.63769 0.55213 0.56641 0.10000
C 	C 	0.78383 0.70295 0.62024 0.00100
C 	C 	0.88071 0.77786 0.56829 -0.17100
H 	H 	0.81288 0.66530 0.52618 0.03800
C 	C 	0.54524 0.49025 0.56320 -0.20600
H 	H 	0.62729 0.57474 0.60984 0.04800
C 	C 	0.75035 0.74671 0.63509 0.02100
C 	C 	0.77613 0.77174 0.66237 -0.01300
C 	C 	0.84413 0.76579 0.67359 -0.11100
C 	C 	0.87916 0.72343 0.65854 0.09100
C 	C 	0.84799 0.69158 0.63204 -0.09000
C 	C 	0.68786 0.76776 0.62192 -0.17000
H 	H 	0.74490 0.79846 0.67456 0.03400
C 	C 	0.94858 0.71099 0.67056 -0.17000
H 	H 	0.87341 0.65763 0.62060 0.05000
H 	H 	0.52163 0.50543 0.54400 0.07400
H 	H 	0.50773 0.49329 0.58099 0.06300
H 	H 	0.53441 0.42454 0.56198 0.08100
H 	H 	0.93038 0.76747 0.57770 0.06300
H 	H 	0.87463 0.82704 0.58017 0.06000
H 	H 	0.90069 0.80273 0.54681 0.05900
H 	H 	0.68453 0.81940 0.63323 0.05800
H 	H 	0.62430 0.71081 0.62222 0.05700
H 	H 	0.70674 0.79009 0.60016 0.06000
H 	H 	0.95727 0.66323 0.65876 0.06100
H 	H 	0.93345 0.68789 0.69239 0.06700
C 	C 	0.01796 0.62026 0.96625 -0.11000
C 	C 	0.99073 0.53336 0.96372 -0.03600
H 	H 	0.97215 0.64190 0.96623 0.07500
H 	H 	0.99239 0.40098 0.93358 0.09800
H 	H 	0.98250 0.37139 0.96996 0.10100
C 	C 	0.63290 0.10355 0.99182 -0.07200
C 	C 	0.64636 0.15421 0.01514 -0.06700
C 	C 	0.62166 0.11401 0.04139 0.05500
C 	C 	0.56987 0.02504 0.04302 0.01600
C 	C 	0.54017 0.97655 0.01872 -0.14400
C 	C 	0.57354 0.01643 0.99273 0.13900
C 	C 	0.54143 0.96902 0.96589 -0.25000
H 	H 	0.65923 0.13379 0.97221 0.05900
H 	H 	0.54741 0.99457 0.06310 0.01600
C 	C 	0.64296 0.16568 0.06745 -0.18500
H 	H 	0.56553 0.01213 0.94758 0.09200
H 	H 	0.47169 0.93814 0.96517 0.09100
H 	H 	0.56180 0.92067 0.96385 0.08400
H 	H 	0.59183 0.18014 0.07246 0.07100
H 	H 	0.70332 0.22600 0.06496 0.07700
H 	H 	0.65038 0.13037 0.08513 0.06600
C 	C 	0.54475 0.48030 0.04842 -0.04300
C 	C 	0.54523 0.46849 0.01959 -0.09500
C 	C 	0.53113 0.52170 0.00135 0.07300
C 	C 	0.51782 0.58591 0.01220 -0.03300
C 	C 	0.51012 0.59294 0.04096 -0.09600
C 	C 	0.52782 0.54243 0.05927 0.07600
C 	C 	0.52818 0.55361 0.09026 -0.19200
H 	H 	0.55692 0.44055 0.06246 0.04400
H 	H 	0.50655 0.62614 0.99810 0.03000
C 	C 	0.52117 0.50500 0.97066 -0.19200
H 	H 	0.56792 0.53098 0.10063 0.06200
H 	H 	0.46299 0.51656 0.09863 0.07000
H 	H 	0.55441 0.62159 0.09556 0.07200
H 	H 	0.45774 0.45055 0.96657 0.07900
H 	H 	0.56960 0.49035 0.96287 0.07600
H 	H 	0.52849 0.56117 0.95881 0.06500
C 	C 	0.72062 0.10809 0.87752 -0.09800
C 	C 	0.67600 0.11037 0.85436 0.00800
C 	C 	0.60405 0.11972 0.85806 0.02300
C 	C 	0.58338 0.13480 0.88480 -0.01900
C 	C 	0.63944 0.15188 0.90672 -0.11600
C 	C 	0.70418 0.13013 0.90370 0.10500
C 	C 	0.70658 0.10463 0.82641 -0.00400
C 	C 	0.55226 0.11842 0.83359 -0.17200
H 	H 	0.52808 0.14116 0.88793 0.03600
C 	C 	0.75264 0.12543 0.92836 -0.21200
H 	H 	0.77105 0.09316 0.87489 0.05300
C 	C 	0.78180 0.17240 0.81544 0.02800
C 	C 	0.82350 0.15756 0.79339 -0.01800
C 	C 	0.78782 0.07754 0.78084 -0.10200
C 	C 	0.70539 0.01383 0.78924 0.10300
C 	C 	0.66805 0.02678 0.81286 -0.07700
C 	C 	0.82036 0.25925 0.82820 -0.17300
H 	H 	0.88395 0.20820 0.78616 0.04500
C 	C 	0.65508 0.93419 0.77270 -0.21500
H 	H 	0.60925 0.97554 0.82100 0.03400
H 	H 	0.77502 0.18143 0.94190 0.09100
H 	H 	0.80973 0.12290 0.92158 0.07100
H 	H 	0.71280 0.06686 0.94057 0.07200
H 	H 	0.52530 0.05616 0.82311 0.06200
H 	H 	0.59231 0.16969 0.81862 0.06300
H 	H 	0.49921 0.12846 0.84004 0.06200
H 	H 	0.86502 0.30881 0.81353 0.06000
H 	H 	0.85497 0.26050 0.84723 0.06500
H 	H 	0.77080 0.27567 0.83364 0.06100
H 	H 	0.59044 0.89508 0.78137 0.06200
H 	H 	0.68544 0.89424 0.77318 0.07300
H 	H 	0.64796 0.95056 0.75101 0.07200
C 	C 	0.48569 0.30129 0.83698 -0.09500
C 	C 	0.40487 0.23397 0.84324 -0.00000
C 	C 	0.38612 0.19854 0.87020 0.02300
C 	C 	0.44794 0.23120 0.89056 -0.01800
C 	C 	0.52735 0.30213 0.88514 -0.11200
C 	C 	0.54699 0.33722 0.85785 0.09600
C 	C 	0.33904 0.20147 0.82167 0.00500
C 	C 	0.30024 0.12496 0.87734 -0.17200
H 	H 	0.43388 0.20188 0.91103 0.03100
C 	C 	0.63209 0.41150 0.85061 -0.20100
H 	H 	0.50021 0.32704 0.81603 0.04700
C 	C 	0.28858 0.23975 0.81744 0.01900
C 	C 	0.31588 0.12270 0.80974 -0.10000
C 	C 	0.31322 0.32538 0.82959 -0.16900
H 	H 	0.35516 0.09386 0.81296 0.05000
H 	H 	0.64609 0.46594 0.86425 0.07800
H 	H 	0.63468 0.43352 0.82886 0.06200
H 	H 	0.68141 0.39279 0.85278 0.07300
H 	H 	0.29136 0.06696 0.86667 0.06300
H 	H 	0.29253 0.11145 0.90002 0.05900
H 	H 	0.27028 0.34918 0.82290 0.05500
H 	H 	0.37792 0.37249 0.82269 0.06000
H 	H 	0.31097 0.32092 0.85262 0.06100
C 	C 	0.82204 0.71319 0.84933 -0.09300
C 	C 	0.80526 0.76277 0.86786 0.00500
C 	C 	0.80458 0.83611 0.85801 0.02300
C 	C 	0.82101 0.85877 0.82974 -0.01600
C 	C 	0.83453 0.80728 0.81096 -0.10500
C 	C 	0.83209 0.73208 0.82077 0.09700
C 	C 	0.77980 0.73176 0.89688 0.00100
C 	C 	0.78568 0.88986 0.87743 -0.17000
H 	H 	0.82248 0.91618 0.82226 0.03700
C 	C 	0.83754 0.67042 0.80104 -0.20200
H 	H 	0.82260 0.65696 0.85700 0.05200
C 	C 	0.70283 0.65725 0.90212 0.02800
C 	C 	0.69618 0.60528 0.92480 -0.02500
C 	C 	0.76165 0.63218 0.94415 -0.10400
C 	C 	0.82760 0.71718 0.94266 0.09800
C 	C 	0.83940 0.76473 0.91814 -0.09200
C 	C 	0.63114 0.62840 0.88201 -0.17300
H 	H 	0.64666 0.53975 0.92493 0.03500
C 	C 	0.88881 0.75549 0.96605 -0.20600
H 	H 	0.89649 0.82502 0.91514 0.05000
H 	H 	0.79718 0.66014 0.78269 0.08000
H 	H 	0.83508 0.91758 0.89350 0.06000
H 	H 	0.72342 0.85056 0.88767 0.05900
H 	H 	0.78378 0.94283 0.86626 0.05700
H 	H 	0.57070 0.58100 0.89186 0.05900
H 	H 	0.64340 0.59928 0.86363 0.06100
H 	H 	0.62394 0.68315 0.87507 0.06000
H 	H 	0.94938 0.75917 0.96025 0.07200
H 	H 	0.86449 0.71809 0.98559 0.08000
H 	H 	0.90031 0.82069 0.97010 0.06800
