data_crystal

_cell_length_a 16.89487
_cell_length_b 17.02911
_cell_length_c 75.11824
_cell_angle_alpha 90.06184
_cell_angle_beta  89.95145
_cell_angle_gamma 119.77627

_symmetry_space_group_name_	'P 1'
_symmetry_space_group_name_H-M	'P 1'

loop_
_symmetry_equiv_pos_as_xyz
  x,y,z

loop_
_atom_site_label
_atom_site_type_symbol
_atom_site_fract_x
_atom_site_fract_y
_atom_site_fract_z
_atom_site_charge
Ni	Ni	0.92255 0.95501 0.99981 1.11700
C 	C 	0.93036 0.25575 0.00208 0.35400
H 	H 	0.83360 0.30236 0.00471 0.12800
O 	O 	0.91877 0.83577 0.00026 -0.37000
C 	C 	0.12440 0.03596 0.00964 0.34500
O 	O 	0.04061 0.01762 0.01473 -0.35900
C 	C 	0.81114 0.55500 0.01201 0.34500
C 	C 	0.73601 0.66806 0.00824 0.35700
F 	F 	0.70595 0.72847 0.00808 -0.41400
F 	F 	0.84836 0.50084 0.01389 -0.43100
F 	F 	0.24904 0.96945 0.00720 -0.42500
C 	C 	0.86615 0.26926 0.01130 -0.08000
C 	C 	0.96863 0.20806 0.01016 -0.12600
C 	C 	0.70288 0.60106 0.02126 -0.08600
C 	C 	0.74391 0.54816 0.02396 -0.11400
H 	H 	0.64996 0.59529 0.03023 0.10700
C 	C 	0.34766 0.07987 0.02814 -0.09600
C 	C 	0.19408 0.05417 0.02331 -0.12000
C 	C 	0.26272 0.03247 0.01972 0.37700
H 	H 	0.40136 0.06575 0.02448 0.12300
C 	C 	0.84229 0.23796 0.02884 -0.11200
C 	C 	0.95593 0.19054 0.02851 -0.08200
C 	C 	0.72071 0.49095 0.03994 0.32900
C 	C 	0.77980 0.25794 0.03880 0.33800
O 	O 	0.79991 0.34308 0.03993 -0.35700
C 	C 	0.36384 0.14712 0.04078 -0.10600
C 	C 	0.20656 0.11384 0.03729 -0.08100
H 	H 	0.15326 0.12923 0.04057 0.10200
C 	C 	0.89058 0.20241 0.03769 0.34100
H 	H 	0.98852 0.15749 0.03511 0.09700
C 	C 	0.45700 0.20435 0.04834 0.32600
O 	O 	0.63451 0.44883 0.04550 -0.35900
O 	O 	0.78797 0.50086 0.05068 -0.34700
O 	O 	0.69973 0.18977 0.04448 -0.34100
O 	O 	0.52140 0.18303 0.04499 -0.36700
H 	H 	0.65678 0.32454 0.04883 0.16400
C 	C 	0.29060 0.15985 0.04608 0.33400
F 	F 	0.87353 0.17847 0.05510 -0.43900
Ni	Ni	0.59530 0.37644 0.06918 1.11800
Ni	Ni	0.61513 0.19634 0.06340 1.12600
Ni	Ni	0.79352 0.39636 0.06309 1.12700
O 	O 	0.47098 0.27082 0.05952 -0.32700
O 	O 	0.66471 0.32377 0.06180 -0.72000
F 	F 	0.30090 0.21756 0.05951 -0.43600
O 	O 	0.68808 0.18803 0.08358 -0.36600
O 	O 	0.51660 0.17232 0.08181 -0.36600
O 	O 	0.69695 0.49504 0.08070 -0.37000
O 	O 	0.82401 0.31039 0.07579 -0.35800
C 	C 	0.98222 0.14510 0.99920 0.36200
C 	C 	0.52828 0.22570 0.09547 0.30200
C 	C 	0.75822 0.49532 0.09141 0.30600
C 	C 	0.76979 0.25319 0.08793 0.30100
O 	O 	0.57377 0.31392 0.09368 -0.37600
O 	O 	0.79719 0.44749 0.08759 -0.38600
H 	H 	0.88010 0.18315 0.09458 0.07900
H 	H 	0.34640 0.11185 0.09649 0.06700
C 	C 	0.80734 0.24719 0.10515 -0.05300
C 	C 	0.85504 0.19967 0.10648 0.00900
C 	C 	0.47125 0.18813 0.11130 -0.06500
C 	C 	0.37624 0.13757 0.10947 -0.01000
H 	H 	0.19433 0.04163 0.10988 0.05800
C 	C 	0.78287 0.54862 0.10801 -0.07100
H 	H 	0.91358 0.55530 0.11048 0.04600
H 	H 	0.65443 0.54653 0.11010 0.04600
C 	C 	0.86750 0.17011 0.12308 -0.03700
C 	C 	0.77894 0.27193 0.12065 -0.02000
H 	H 	0.90951 0.13879 0.12385 0.05500
H 	H 	0.74514 0.31178 0.11963 0.04500
C 	C 	0.31983 0.12596 0.12411 0.01900
C 	C 	0.22476 0.07436 0.12240 -0.03400
C 	C 	0.86602 0.57290 0.11643 0.00700
C 	C 	0.72028 0.56843 0.11624 -0.01400
C 	C 	0.82856 0.18453 0.13854 0.00500
C 	C 	0.78992 0.24161 0.13737 0.01900
C 	C 	0.50983 0.21791 0.12818 0.01100
C 	C 	0.16853 0.06312 0.13692 -0.03400
H 	H 	0.58320 0.25320 0.12981 0.03600
H 	H 	0.09532 0.02061 0.13554 0.04700
C 	C 	0.88716 0.61722 0.13283 -0.04900
C 	C 	0.74085 0.61298 0.13275 0.01200
H 	H 	0.94738 0.62677 0.13974 0.04800
H 	H 	0.60811 0.60118 0.13576 0.04400
C 	C 	0.76259 0.26767 0.15287 -0.03800
H 	H 	0.73397 0.31215 0.15204 0.04500
H 	H 	0.85601 0.04114 0.14538 0.06400
C 	C 	0.45433 0.20599 0.14285 -0.04800
C 	C 	0.35923 0.16712 0.14061 0.00900
C 	C 	0.20624 0.10768 0.15304 0.01300
C 	C 	0.82717 0.64246 0.14072 0.00400
C 	C 	0.67468 0.62487 0.14168 -0.04100
C 	C 	0.83069 0.14683 0.15537 0.02300
C 	C 	0.85149 0.07634 0.15697 -0.06800
C 	C 	0.30173 0.16463 0.15464 0.01000
C 	C 	0.14973 0.09537 0.16767 -0.01300
H 	H 	0.48527 0.22485 0.15589 0.05000
H 	H 	0.07717 0.04748 0.16688 0.04600
C 	C 	0.69278 0.66489 0.15848 -0.03500
C 	C 	0.77929 0.69891 0.16618 0.00300
C 	C 	0.84881 0.69197 0.15697 0.01500
C 	C 	0.93883 0.73881 0.16370 -0.06700
H 	H 	0.63986 0.67130 0.16537 0.04200
H 	H 	0.99580 0.74636 0.15585 0.05100
C 	C 	0.77360 0.23817 0.16953 -0.03100
C 	C 	0.80753 0.17813 0.17093 0.01300
C 	C 	0.86327 0.04853 0.17380 0.07000
H 	H 	0.75444 0.26115 0.18138 0.05700
H 	H 	0.88512 0.99866 0.17484 -0.00700
C 	C 	0.33665 0.22006 0.16987 -0.04800
H 	H 	0.40653 0.27463 0.17036 0.04900
C 	C 	0.95680 0.78294 0.18012 0.04500
C 	C 	0.79813 0.74318 0.18268 -0.00400
C 	C 	0.85099 0.08765 0.18921 -0.07300
C 	C 	0.81902 0.14920 0.18777 -0.00100
C 	C 	0.27994 0.20668 0.18443 0.00900
C 	C 	0.18751 0.14049 0.18373 -0.06800
C 	C 	0.88671 0.78511 0.18968 -0.08800
H 	H 	0.02628 0.81917 0.18501 0.00600
H 	H 	0.74437 0.74683 0.18990 0.04300
C 	C 	0.90791 0.84003 0.20593 0.31200
C 	C 	0.13554 0.10580 0.20025 0.29600
C 	C 	0.89168 0.08113 0.20600 0.31400
O 	O 	0.86795 0.88798 0.20872 -0.40100
O 	O 	0.09417 0.01832 0.20308 -0.36700
O 	O 	0.97591 0.14385 0.20944 -0.36100
H 	H 	0.80726 0.17772 0.19974 0.08000
H 	H 	0.30878 0.24503 0.19654 0.04900
O 	O 	0.83880 0.02751 0.21872 -0.34700
O 	O 	0.96780 0.84231 0.21730 -0.36500
O 	O 	0.14708 0.16226 0.21332 -0.37500
Ni	Ni	0.06826 0.96310 0.22833 1.08700
Ni	Ni	0.86932 0.94425 0.23253 1.10600
Ni	Ni	0.04656 0.14325 0.23079 1.11400
O 	O 	0.19095 0.07160 0.23791 -0.35500
O 	O 	0.99787 0.01701 0.23401 -0.66600
H 	H 	0.36294 0.15133 0.23820 0.10400
F 	F 	0.79224 0.17244 0.23973 -0.43500
C 	C 	0.20293 0.14055 0.24820 0.33200
O 	O 	0.13840 0.16303 0.25014 -0.33600
O 	O 	0.95920 0.15457 0.24836 -0.32200
O 	O 	0.02626 0.89649 0.25259 -0.40200
O 	O 	0.87344 0.84223 0.24627 -0.35900
H 	H 	0.00502 0.01982 0.24704 0.14600
C 	C 	0.37027 0.19346 0.24959 -0.08600
F 	F 	0.52324 0.22456 0.25310 -0.43200
C 	C 	0.93923 0.85401 0.25762 0.36200
C 	C 	0.88218 0.08754 0.25544 0.33700
O 	O 	0.86233 0.00229 0.25500 -0.33400
C 	C 	0.45417 0.23810 0.25845 0.34000
C 	C 	0.29506 0.19981 0.25590 -0.11600
H 	H 	0.01253 0.75413 0.26870 0.07500
C 	C 	0.82185 0.10948 0.26566 -0.10600
C 	C 	0.77534 0.14777 0.25710 0.34700
C 	C 	0.71157 0.16113 0.26652 -0.08400
H 	H 	0.68037 0.19611 0.26015 0.12300
O 	O 	0.61863 0.32742 0.28175 -0.33800
C 	C 	0.39309 0.30690 0.27836 -0.09100
C 	C 	0.46429 0.29075 0.27359 -0.10700
C 	C 	0.30820 0.26017 0.26989 0.34900
F 	F 	0.23807 0.27045 0.27588 -0.41800
C 	C 	0.95682 0.74635 0.27707 -0.04100
C 	C 	0.91410 0.79705 0.27368 -0.13800
F 	F 	0.80399 0.83964 0.28232 -0.44400
C 	C 	0.79805 0.07754 0.28316 -0.07500
C 	C 	0.69786 0.14121 0.28478 -0.11600
C 	C 	0.68224 0.20170 0.29609 0.37100
C 	C 	0.53414 0.30583 0.28704 0.32900
Ni	Ni	0.73662 0.39060 0.29668 1.12900
O 	O 	0.73675 0.50810 0.29686 -0.36800
O 	O 	0.59913 0.18117 0.30088 -0.35100
O 	O 	0.75061 0.28219 0.29904 -0.37500
H 	H 	0.40116 0.34994 0.28964 0.13600
C 	C 	0.84315 0.78759 0.28487 0.35400
C 	C 	0.81058 0.72210 0.29840 -0.09400
C 	C 	0.92197 0.67852 0.28991 0.34200
F 	F 	0.95412 0.61991 0.29052 -0.40400
C 	C 	0.73511 0.09204 0.29260 0.35900
H 	H 	0.82956 0.04290 0.28956 0.14200
C 	C 	0.78830 0.57325 0.30806 0.33700
O 	O 	0.86970 0.46334 0.30561 -0.30100
O 	O 	0.50486 0.27762 0.30344 -0.35900
C 	C 	0.84647 0.66378 0.30040 -0.08800
H 	H 	0.75255 0.71177 0.30632 0.10800
F 	F 	0.71822 0.06739 0.30997 -0.39300
C 	C 	0.89796 0.44770 0.32086 0.32900
Ni	Ni	0.57496 0.24763 0.32079 1.12900
O 	O 	0.80250 0.55583 0.32491 -0.31500
O 	O 	0.67125 0.36900 0.31836 -0.71800
H 	H 	0.63637 0.40030 0.31617 0.17800
F 	F 	0.41887 0.40498 0.32578 -0.43400
C 	C 	0.99323 0.50497 0.32664 -0.03400
C 	C 	0.02362 0.59560 0.33140 0.27800
F 	F 	0.98464 0.64080 0.32421 -0.39200
H 	H 	0.01944 0.39380 0.32965 0.12600
C 	C 	0.54178 0.37016 0.34561 0.33600
Ni	Ni	0.73727 0.42935 0.33883 1.12000
O 	O 	0.65312 0.21628 0.33598 -0.34400
O 	O 	0.83860 0.40043 0.33294 -0.35300
O 	O 	0.62566 0.44007 0.34591 -0.36400
O 	O 	0.52565 0.28613 0.34234 -0.35500
C 	C 	0.42854 0.42029 0.34359 0.34500
H 	H 	0.37683 0.51313 0.34297 0.11600
C 	C 	0.08582 0.63589 0.34528 -0.06200
C 	C 	0.10018 0.50187 0.34790 0.36600
C 	C 	0.03888 0.46208 0.33375 -0.13600
H 	H 	0.10330 0.70329 0.34963 0.09500
C 	C 	0.66728 0.23962 0.35266 0.34500
O 	O 	0.68781 0.32220 0.35735 -0.35400
C 	C 	0.47123 0.38339 0.35394 -0.11500
C 	C 	0.40577 0.48150 0.35121 -0.07600
C 	C 	0.11857 0.58654 0.35455 -0.13800
F 	F 	0.13869 0.45669 0.35552 -0.43500
C 	C 	0.66515 0.10002 0.36280 0.30700
F 	F 	0.73663 0.11745 0.35204 -0.38200
C 	C 	0.16553 0.62037 0.37181 0.33200
C 	C 	0.40089 0.56927 0.37721 0.33600
O 	O 	0.48171 0.83068 0.38069 -0.38100
O 	O 	0.31459 0.54891 0.37707 -0.35400
O 	O 	0.20294 0.70787 0.37548 -0.36500
C 	C 	0.47500 0.39512 0.37248 -0.08200
C 	C 	0.42405 0.50466 0.36925 -0.11600
C 	C 	0.57303 0.15070 0.37835 -0.12100
C 	C 	0.64220 0.16778 0.36605 -0.09000
C 	C 	0.60891 0.01187 0.36910 0.03900
C 	C 	0.53156 0.99166 0.37934 -0.22900
H 	H 	0.62330 0.95883 0.36531 0.06200
C 	C 	0.46161 0.89609 0.38310 0.36100
O 	O 	0.37618 0.87683 0.38585 -0.34300
O 	O 	0.46803 0.65052 0.38248 -0.35100
O 	O 	0.15208 0.56152 0.38465 -0.34500
O 	O 	0.32966 0.69053 0.39636 -0.71500
H 	H 	0.33373 0.69368 0.38326 0.15300
C 	C 	0.45467 0.45804 0.38005 0.34200
H 	H 	0.50428 0.36384 0.38072 0.10100
C 	C 	0.51824 0.06320 0.38511 0.41200
F 	F 	0.45074 0.04754 0.39682 -0.43400
H 	H 	0.55685 0.20319 0.38157 0.11300
Ni	Ni	0.27397 0.76294 0.39901 1.11700
Ni	Ni	0.25527 0.56249 0.39895 1.12800
Ni	Ni	0.45700 0.73764 0.39990 1.12200
O 	O 	0.33702 0.53239 0.41340 -0.36100
O 	O 	0.15698 0.66812 0.41213 -0.36900
O 	O 	0.47208 0.83543 0.41721 -0.37500
F 	F 	0.46725 0.47558 0.39777 -0.44400
C 	C 	0.16088 0.61836 0.42501 0.29200
C 	C 	0.40913 0.82308 0.42894 0.29200
C 	C 	0.39279 0.58658 0.42568 0.30500
O 	O 	0.19934 0.56864 0.42244 -0.37600
O 	O 	0.33198 0.81654 0.42356 -0.36300
O 	O 	0.45767 0.66848 0.42150 -0.37700
H 	H 	0.38260 0.42419 0.43159 0.08300
H 	H 	0.99523 0.60230 0.43111 0.07000
C 	C 	0.39968 0.54850 0.44282 -0.05600
C 	C 	0.39958 0.46604 0.44342 -0.01000
H 	H 	0.39647 0.30934 0.44884 0.06100
C 	C 	0.43479 0.84258 0.44788 -0.06700
H 	H 	0.56852 0.85650 0.44460 0.04500
C 	C 	0.03048 0.60266 0.44318 -0.03700
C 	C 	0.11880 0.61504 0.44231 -0.05100
C 	C 	0.41668 0.59984 0.45840 0.00400
C 	C 	0.42489 0.43939 0.45916 0.02000
C 	C 	0.42099 0.35526 0.46009 -0.03400
H 	H 	0.41095 0.66042 0.45833 0.03500
C 	C 	0.52243 0.86392 0.45357 0.00700
C 	C 	0.37204 0.84098 0.46036 -0.01800
H 	H 	0.30213 0.81797 0.45644 0.05000
C 	C 	0.98669 0.58927 0.45961 -0.00200
C 	C 	0.16626 0.62164 0.45804 -0.02900
H 	H 	0.92127 0.58621 0.46006 0.04000
H 	H 	0.23619 0.63542 0.45738 0.04500
C 	C 	0.44229 0.57411 0.47404 -0.04600
C 	C 	0.45425 0.49773 0.47412 0.00900
C 	C 	0.44734 0.32925 0.47562 -0.03400
H 	H 	0.44192 0.26315 0.47623 0.05300
C 	C 	0.40060 0.87291 0.47770 0.01000
C 	C 	0.55092 0.89490 0.47088 -0.05400
H 	H 	0.61574 0.90412 0.47538 0.04600
C 	C 	0.12338 0.60985 0.47461 0.03000
C 	C 	0.03008 0.58494 0.47536 -0.02900
H 	H 	0.84573 0.49038 0.48090 0.05500
C 	C 	0.48395 0.38939 0.49001 0.01600
C 	C 	0.49183 0.47613 0.48903 0.01000
H 	H 	0.44935 0.61169 0.48611 0.05000
C 	C 	0.33839 0.87216 0.49013 -0.04200
C 	C 	0.49333 0.90913 0.48243 0.01200
H 	H 	0.67100 0.02170 0.49218 0.05400
H 	H 	0.26636 0.83969 0.48695 0.04400
C 	C 	0.88683 0.50903 0.49283 -0.06000
C 	C 	0.98316 0.55716 0.49192 0.03800
C 	C 	0.17257 0.62244 0.49038 -0.05000
H 	H 	0.24503 0.64564 0.48990 0.04800
C 	C 	0.54293 0.54107 0.50218 -0.04200
C 	C 	0.51623 0.36522 0.50512 -0.01600
H 	H 	0.56075 0.61106 0.50067 0.05300
H 	H 	0.50738 0.29778 0.50621 0.04900
C 	C 	0.62053 0.01770 0.50151 -0.01700
C 	C 	0.52614 0.96096 0.49832 -0.01100
C 	C 	0.46261 0.96421 0.51026 -0.00800
C 	C 	0.36895 0.91536 0.50649 -0.03000
C 	C 	0.84279 0.47721 0.50914 0.01800
C 	C 	0.03401 0.56951 0.50774 -0.00600
C 	C 	0.12879 0.60542 0.50683 -0.02500
H 	H 	0.76896 0.43821 0.50954 0.04100
C 	C 	0.57648 0.51695 0.51693 0.01500
C 	C 	0.56186 0.42878 0.51863 -0.05900
H 	H 	0.61389 0.56706 0.52709 0.06900
C 	C 	0.58725 0.08133 0.52741 -0.07400
C 	C 	0.65031 0.07629 0.51609 0.01300
C 	C 	0.49384 0.02257 0.52498 0.02000
H 	H 	0.72270 0.12180 0.51795 0.05000
H 	H 	0.32005 0.91539 0.51584 0.04200
C 	C 	0.89329 0.49116 0.52474 -0.07300
C 	C 	0.98867 0.53931 0.52412 0.00100
H 	H 	0.16807 0.61609 0.51889 0.04900
C 	C 	0.61806 0.15504 0.54036 0.30600
C 	C 	0.84650 0.44468 0.54112 0.30300
C 	C 	0.59228 0.40266 0.53480 0.30800
O 	O 	0.53020 0.33704 0.54470 -0.37500
O 	O 	0.58545 0.21033 0.53951 -0.39100
O 	O 	0.81683 0.35794 0.54277 -0.36600
O 	O 	0.67468 0.45866 0.54094 -0.37900
H 	H 	0.44532 0.02603 0.53396 0.04200
H 	H 	0.02745 0.54855 0.53622 0.05000
Ni	Ni	0.55149 0.25618 0.56136 1.12200
O 	O 	0.68497 0.17075 0.55125 -0.36600
O 	O 	0.84096 0.49102 0.55454 -0.37000
F 	F 	0.52708 0.54507 0.56278 -0.44100
H 	H 	0.54377 0.98683 0.56630 0.09200
C 	C 	0.52803 0.39494 0.57951 0.33200
Ni	Ni	0.75743 0.28902 0.56613 1.12200
Ni	Ni	0.71929 0.45927 0.56580 1.12700
O 	O 	0.61324 0.46292 0.57783 -0.34000
O 	O 	0.53838 0.14969 0.57696 -0.35500
O 	O 	0.67404 0.33240 0.56827 -0.72000
C 	C 	0.40851 0.53192 0.58190 -0.09200
C 	C 	0.46312 0.49780 0.57535 0.34400
H 	H 	0.42180 0.59827 0.57772 0.12300
C 	C 	0.55199 0.97765 0.58031 -0.10700
F 	F 	0.49642 0.82075 0.57521 -0.43600
C 	C 	0.82867 0.43636 0.59413 0.33600
C 	C 	0.60319 0.14030 0.58549 0.33200
O 	O 	0.85205 0.39559 0.58188 -0.34200
O 	O 	0.78255 0.47788 0.58969 -0.36100
O 	O 	0.50959 0.30954 0.58060 -0.36800
O 	O 	0.68738 0.20795 0.58742 -0.31800
H 	H 	0.66358 0.32820 0.58124 0.17100
C 	C 	0.34424 0.48521 0.59529 -0.11700
C 	C 	0.38078 0.36388 0.59364 -0.08200
C 	C 	0.45455 0.41720 0.58240 -0.11700
C 	C 	0.53097 0.89208 0.58660 0.34700
C 	C 	0.58159 0.05055 0.59217 -0.09500
C 	C 	0.32288 0.53679 0.60833 0.35400
C 	C 	0.45991 0.79364 0.61248 0.32700
O 	O 	0.30299 0.59876 0.60313 -0.34800
O 	O 	0.37670 0.78231 0.61167 -0.35000
O 	O 	0.47414 0.72464 0.61623 -0.35100
C 	C 	0.32424 0.39680 0.59969 0.34900
H 	H 	0.37008 0.29939 0.59846 0.12200
F 	F 	0.25586 0.34669 0.61128 -0.39200
C 	C 	0.87411 0.45560 0.61160 -0.12300
H 	H 	0.89957 0.59278 0.61284 0.10400
C 	C 	0.57648 0.95310 0.61627 -0.10300
C 	C 	0.53330 0.87764 0.60497 -0.11000
C 	C 	0.59921 0.03924 0.60998 0.36900
Ni	Ni	0.26484 0.66858 0.62125 1.12200
O 	O 	0.21145 0.74327 0.63451 -0.31300
O 	O 	0.34045 0.53207 0.62499 -0.34700
O 	O 	0.15983 0.54600 0.62952 -0.35900
C 	C 	0.91449 0.54322 0.61858 -0.07100
C 	C 	0.89000 0.39086 0.61994 0.35700
C 	C 	0.98256 0.57055 0.63148 0.30900
F 	F 	0.84523 0.30340 0.61442 -0.41400
F 	F 	0.63380 0.11051 0.62139 -0.39900
H 	H 	0.58258 0.94352 0.63036 0.10600
C 	C 	0.23236 0.78141 0.65078 0.34500
C 	C 	0.10656 0.54420 0.64215 0.34400
Ni	Ni	0.42641 0.64367 0.63871 1.12700
O 	O 	0.33557 0.67736 0.64129 -0.71700
H 	H 	0.37435 0.74345 0.64238 0.17100
F 	F 	0.28737 0.96865 0.65116 -0.42300
C 	C 	0.95661 0.41769 0.63323 -0.10100
C 	C 	0.00990 0.50957 0.63771 -0.08900
F 	F 	0.03014 0.65893 0.63594 -0.42800
H 	H 	0.97395 0.36895 0.63852 0.12100
C 	C 	0.31836 0.50163 0.66531 0.36800
Ni	Ni	0.27728 0.64741 0.66389 1.12600
O 	O 	0.28569 0.76866 0.66182 -0.37300
O 	O 	0.40146 0.55800 0.65954 -0.35000
O 	O 	0.14238 0.59394 0.65652 -0.35300
O 	O 	0.50528 0.74659 0.65472 -0.38000
O 	O 	0.25308 0.52073 0.66349 -0.37700
H 	H 	0.62329 0.92200 0.66772 0.10500
C 	C 	0.26497 0.33841 0.66728 0.34900
H 	H 	0.17254 0.19491 0.66900 0.11900
F 	F 	0.28509 0.33489 0.64991 -0.39600
C 	C 	0.09895 0.75677 0.66850 -0.08600
C 	C 	0.17614 0.81632 0.65854 -0.08800
C 	C 	0.21320 0.90999 0.66074 0.34300
C 	C 	0.48322 0.75135 0.67145 0.33400
O 	O 	0.39840 0.69822 0.67773 -0.34300
C 	C 	0.71705 0.92201 0.68705 0.32900
C 	C 	0.63153 0.88648 0.67889 -0.08000
C 	C 	0.55902 0.80185 0.68405 -0.11800
F 	F 	0.78756 0.00058 0.68087 -0.40600
C 	C 	0.29972 0.42231 0.67591 -0.11300
C 	C 	0.20209 0.25897 0.67601 -0.07500
C 	C 	0.17854 0.94310 0.67390 -0.08800
C 	C 	0.10583 0.88272 0.68473 -0.12800
C 	C 	0.06311 0.78968 0.68128 0.37400
H 	H 	0.07178 0.68458 0.66754 0.13800
H 	H 	0.21062 0.01536 0.67619 0.11800
C 	C 	0.10741 0.17949 0.70251 0.35700
C 	C 	0.08235 0.91550 0.70088 0.37000
O 	O 	0.12079 0.11048 0.70281 -0.37900
O 	O 	0.99620 0.87867 0.70565 -0.36400
C 	C 	0.73029 0.87454 0.70102 -0.11400
C 	C 	0.57040 0.75725 0.69872 0.34300
C 	C 	0.28267 0.42404 0.69415 -0.08700
C 	C 	0.17458 0.26292 0.69347 -0.12700
C 	C 	0.21822 0.34529 0.70278 0.34900
H 	H 	0.31182 0.48817 0.70113 0.11600
F 	F 	0.99210 0.73034 0.69148 -0.44400
C 	C 	0.82171 0.90948 0.70939 0.34100
O 	O 	0.14776 0.96767 0.71198 -0.38900
O 	O 	0.04271 0.17941 0.71235 -0.31600
O 	O 	0.88387 0.99481 0.70744 -0.34500
O 	O 	0.83401 0.85854 0.72103 -0.36700
C 	C 	0.65535 0.79353 0.70718 -0.08900
F 	F 	0.50101 0.67587 0.70407 -0.43400
H 	H 	0.66323 0.75751 0.71829 0.10600
F 	F 	0.19689 0.34950 0.72005 -0.43600
Ni	Ni	0.95536 0.07261 0.72917 1.11400
Ni	Ni	0.14588 0.06763 0.72593 1.12700
Ni	Ni	0.95726 0.88257 0.73076 1.11800
O 	O 	0.06149 0.87261 0.74226 -0.34800
O 	O 	0.17001 0.18402 0.73865 -0.34600
O 	O 	0.02087 0.01114 0.73258 -0.69500
C 	C 	0.86438 0.93026 0.75878 0.27600
C 	C 	0.11887 0.18624 0.75190 0.28800
C 	C 	0.12322 0.93477 0.75313 0.26200
O 	O 	0.85315 0.98073 0.74655 -0.36900
O 	O 	0.90247 0.88034 0.75480 -0.38100
O 	O 	0.17456 0.01990 0.74791 -0.36000
O 	O 	0.03120 0.15912 0.74960 -0.34000
H 	H 	0.02898 0.01705 0.74557 0.15300
H 	H 	0.24569 0.36220 0.75676 0.08500
C 	C 	0.14657 0.90596 0.76987 -0.05200
C 	C 	0.23810 0.94432 0.77506 0.00300
C 	C 	0.07738 0.84892 0.78163 -0.02100
H 	H 	0.29191 0.99074 0.76627 0.04700
H 	H 	0.00653 0.82196 0.77788 0.05600
C 	C 	0.16181 0.23090 0.76859 -0.05200
C 	C 	0.21945 0.32487 0.76907 -0.01400
H 	H 	0.33239 0.50182 0.77415 0.05800
C 	C 	0.81518 0.91243 0.77570 -0.06500
C 	C 	0.72136 0.88127 0.77575 -0.01500
H 	H 	0.54417 0.82388 0.77954 0.04900
H 	H 	0.68713 0.87940 0.76341 0.05400
C 	C 	0.26083 0.92621 0.79185 -0.04600
C 	C 	0.09935 0.83043 0.79860 0.01300
H 	H 	0.33116 0.96408 0.79603 0.04600
C 	C 	0.29849 0.46474 0.78611 -0.03800
C 	C 	0.23866 0.37107 0.78539 0.02400
C 	C 	0.13190 0.18205 0.78450 0.00500
H 	H 	0.09131 0.10886 0.78421 0.04000
C 	C 	0.57775 0.82157 0.79165 -0.03900
C 	C 	0.67103 0.84957 0.79157 0.01400
C 	C 	0.85994 0.91671 0.79167 0.00200
H 	H 	0.93306 0.94338 0.79177 0.02400
C 	C 	0.19198 0.86530 0.80351 0.00700
C 	C 	0.02981 0.78085 0.81092 -0.02000
H 	H 	0.95910 0.75596 0.80736 0.03000
H 	H 	0.35590 0.88610 0.81507 0.04500
C 	C 	0.31612 0.51078 0.80230 -0.03100
C 	C 	0.19680 0.32272 0.80117 0.00700
C 	C 	0.15048 0.22734 0.80076 -0.04100
H 	H 	0.36456 0.58271 0.80272 0.04400
H 	H 	0.13085 0.18816 0.81291 0.05300
C 	C 	0.52777 0.79281 0.80739 -0.03800
C 	C 	0.71490 0.84709 0.80749 0.00600
C 	C 	0.81089 0.88664 0.80755 -0.05000
H 	H 	0.45636 0.77416 0.80730 0.04100
C 	C 	0.05077 0.76482 0.82799 -0.01800
C 	C 	0.14134 0.79367 0.83280 0.01100
C 	C 	0.21285 0.84170 0.82042 0.01000
C 	C 	0.30198 0.86015 0.82485 -0.04600
H 	H 	0.99596 0.72772 0.83740 0.03400
C 	C 	0.14781 0.33002 0.83185 -0.04700
C 	C 	0.20534 0.37128 0.81706 0.01400
C 	C 	0.26947 0.46494 0.81776 0.01100
C 	C 	0.28513 0.51183 0.83390 -0.01000
H 	H 	0.08936 0.26273 0.83091 0.05600
H 	H 	0.33760 0.58237 0.83475 0.04200
C 	C 	0.66167 0.80932 0.82314 0.00900
C 	C 	0.56898 0.78709 0.82315 0.00900
H 	H 	0.84824 0.89772 0.81983 0.04200
C 	C 	0.32013 0.83752 0.84167 0.00300
C 	C 	0.24949 0.79130 0.85392 -0.05300
C 	C 	0.16060 0.77090 0.84959 -0.00200
H 	H 	0.38855 0.85162 0.84479 0.04000
C 	C 	0.23451 0.46718 0.84908 -0.06600
C 	C 	0.16347 0.37747 0.84781 0.01400
C 	C 	0.55843 0.75179 0.85471 -0.07100
C 	C 	0.64673 0.76395 0.85431 0.00900
C 	C 	0.69751 0.79044 0.83854 -0.05000
C 	C 	0.51841 0.75936 0.83895 -0.01300
H 	H 	0.76250 0.79261 0.83824 0.04700
H 	H 	0.44843 0.74550 0.83910 0.04100
C 	C 	0.26382 0.51016 0.86656 0.29900
C 	C 	0.51046 0.73950 0.87170 0.30200
C 	C 	0.26517 0.75085 0.86985 0.30700
O 	O 	0.21475 0.66304 0.87213 -0.37900
O 	O 	0.34862 0.53905 0.87134 -0.37200
O 	O 	0.46243 0.77996 0.87406 -0.38400
H 	H 	0.10576 0.73398 0.85903 0.06900
H 	H 	0.12189 0.34360 0.85934 0.05400
H 	H 	0.67663 0.75416 0.86626 0.04700
O 	O 	0.20168 0.49769 0.87851 -0.37300
O 	O 	0.51554 0.68859 0.88427 -0.36600
O 	O 	0.31599 0.80375 0.88285 -0.35700
O 	O 	0.91239 0.06517 0.99655 -0.36800
Ni	Ni	0.39903 0.58675 0.89656 1.11600
Ni	Ni	0.20992 0.59752 0.89465 1.12700
Ni	Ni	0.40258 0.77988 0.89734 1.12900
O 	O 	0.33629 0.65161 0.89945 -0.72000
H 	H 	0.22745 0.29644 0.90638 0.10500
F 	F 	0.17483 0.84604 0.89860 -0.43800
O 	O 	0.29696 0.46653 0.90837 -0.35800
C 	C 	0.49755 0.72812 0.92453 0.32400
C 	C 	0.21249 0.44601 0.91299 0.32700
C 	C 	0.25040 0.75934 0.91874 0.33900
O 	O 	0.46468 0.64135 0.92060 -0.36100
O 	O 	0.50814 0.78689 0.91185 -0.34200
O 	O 	0.33776 0.78402 0.91916 -0.36000
O 	O 	0.18786 0.68306 0.91068 -0.33600
O 	O 	0.18917 0.50958 0.91464 -0.33000
H 	H 	0.33033 0.64645 0.91250 0.16000
C 	C 	0.02980 0.17179 0.92940 -0.11300
C 	C 	0.10811 0.19235 0.91944 0.33900
C 	C 	0.16547 0.28094 0.91346 -0.08900
C 	C 	0.14484 0.34989 0.91725 -0.11200
C 	C 	0.06012 0.32618 0.92514 0.34300
F 	F 	0.13310 0.12870 0.91696 -0.42800
C 	C 	0.22231 0.81979 0.92694 -0.11800
C 	C 	0.18965 0.86504 0.91624 0.34900
C 	C 	0.17150 0.92955 0.92378 -0.09200
H 	H 	0.14113 0.96011 0.91563 0.12400
C 	C 	0.11304 0.96226 0.95098 0.31400
C 	C 	0.99805 0.10039 0.94305 0.33400
O 	O 	0.02798 0.89453 0.95117 -0.35300
O 	O 	0.97249 0.01602 0.93879 -0.32300
C 	C 	0.54211 0.76247 0.94200 -0.11500
C 	C 	0.56237 0.84866 0.94810 0.34100
F 	F 	0.52592 0.89448 0.93994 -0.43700
C 	C 	0.00243 0.23717 0.93084 -0.07100
F 	F 	0.03497 0.38950 0.92794 -0.41500
H 	H 	0.94038 0.22120 0.93796 0.11600
C 	C 	0.24346 0.84504 0.94484 -0.07000
C 	C 	0.17989 0.94479 0.94223 -0.09700
Ni	Ni	0.91960 0.91126 0.95788 1.11300
O 	O 	0.13328 0.04779 0.95413 -0.30700
O 	O 	0.82149 0.94521 0.96352 -0.38200
O 	O 	0.01158 0.12492 0.95964 -0.35300
O 	O 	0.85114 0.78680 0.97238 -0.31900
C 	C 	0.57125 0.71218 0.95204 -0.09100
C 	C 	0.62333 0.88912 0.96227 -0.08500
C 	C 	0.63228 0.75282 0.96610 0.34700
H 	H 	0.55152 0.64346 0.94826 0.11000
H 	H 	0.64483 0.95851 0.96586 0.10500
C 	C 	0.22319 0.90807 0.95242 0.33500
H 	H 	0.27403 0.81459 0.95296 0.11700
C 	C 	0.76172 0.90028 0.97573 0.34500
C 	C 	0.86662 0.77011 0.98918 0.34300
Ni	Ni	0.08651 0.09154 0.97532 1.13400
O 	O 	0.98726 0.97212 0.97816 -0.73800
H 	H 	0.02031 0.93918 0.98056 0.18500
H 	H 	0.89764 0.62841 0.98990 0.11100
F 	F 	0.94691 0.27900 0.98464 -0.41800
C 	C 	0.66604 0.84487 0.97007 -0.11400
F 	F 	0.66665 0.70583 0.97436 -0.41300
F 	F 	0.23680 0.92620 0.97010 -0.40400
O 	O 	0.78924 0.88412 0.99101 -0.31700
O 	O 	0.15376 0.06011 0.99310 -0.33700
O 	O 	0.06475 0.16243 0.99468 -0.36200
C 	C 	0.84214 0.62002 0.99841 -0.08600
C 	C 	0.80834 0.68031 0.99705 -0.09700
