data_crystal

_cell_length_a 45.57765
_cell_length_b 41.50056
_cell_length_c 44.63359
_cell_angle_alpha 89.95701
_cell_angle_beta  89.94600
_cell_angle_gamma 90.54690

_symmetry_space_group_name_	'P 1'
_symmetry_space_group_name_H-M	'P 1'

loop_
_symmetry_equiv_pos_as_xyz
  x,y,z

loop_
_atom_site_label
_atom_site_type_symbol
_atom_site_fract_x
_atom_site_fract_y
_atom_site_fract_z
_atom_site_charge
Zn	Zn	0.50610 0.50705 0.96982 1.21700
C 	C 	0.55648 0.46689 0.97117 0.33000
O 	O 	0.51977 0.54358 0.94522 -0.47500
O 	O 	0.54486 0.45413 0.94689 -0.45500
O 	O 	0.55351 0.51719 0.91758 -0.49700
C 	C 	0.47639 0.45378 0.94259 0.34400
O 	O 	0.48824 0.46448 0.96737 -0.45700
O 	O 	0.48616 0.46414 0.91661 -0.50500
C 	C 	0.54532 0.54313 0.93184 0.33500
O 	O 	0.45823 0.52610 0.96603 -0.33600
Zn	Zn	0.52649 0.48073 0.91287 1.16700
O 	O 	0.54433 0.49195 0.98418 -0.43500
C 	C 	0.46164 0.53613 0.99325 0.29100
O 	O 	0.48710 0.53077 0.00516 -0.38000
Zn	Zn	0.30332 0.19518 0.99962 1.21900
C 	C 	0.32263 0.19854 0.06129 0.33900
O 	O 	0.26062 0.18633 0.00112 -0.46500
O 	O 	0.31507 0.22903 0.06129 -0.45100
O 	O 	0.25396 0.20704 0.04776 -0.49700
C 	C 	0.32212 0.26127 0.99619 0.34100
O 	O 	0.33103 0.23139 0.99790 -0.45500
O 	O 	0.29633 0.26912 0.00676 -0.51000
C 	C 	0.24574 0.18745 0.02630 0.33100
O 	O 	0.30114 0.19850 0.94675 -0.32800
Zn	Zn	0.27802 0.24490 0.03938 1.16900
O 	O 	0.31409 0.17924 0.03959 -0.43900
C 	C 	0.31345 0.17045 0.94716 0.29700
O 	O 	0.31900 0.15900 0.97349 -0.38400
C 	C 	0.51717 0.00138 0.65721 0.14500
C 	C 	0.53908 0.98473 0.67277 -0.11300
H 	H 	0.55591 0.97206 0.66043 0.07400
C 	C 	0.53907 0.98438 0.70416 0.07200
C 	C 	0.51727 0.00076 0.71998 -0.09900
C 	C 	0.49539 0.01739 0.70455 0.07200
C 	C 	0.49530 0.01772 0.67314 -0.11200
H 	H 	0.47839 0.03055 0.66110 0.07400
N 	N 	0.51703 0.00152 0.62499 -0.18200
C 	C 	0.50356 0.97671 0.60986 0.19700
C 	C 	0.50351 0.97622 0.57830 -0.08100
C 	C 	0.51727 0.00146 0.56249 0.06100
C 	C 	0.53085 0.02676 0.57830 -0.08100
C 	C 	0.53053 0.02637 0.60986 0.19700
C 	C 	0.49031 0.95067 0.56244 0.01000
C 	C 	0.48984 0.95087 0.53114 -0.05800
C 	C 	0.50172 0.97725 0.51504 0.01600
C 	C 	0.51745 0.00138 0.53081 -0.02900
C 	C 	0.53335 0.02544 0.51506 0.01600
C 	C 	0.54423 0.05224 0.56243 0.01000
C 	C 	0.54506 0.05190 0.53113 -0.05800
C 	C 	0.49940 0.97941 0.48336 0.01600
C 	C 	0.51780 0.00123 0.46763 -0.02900
C 	C 	0.53602 0.02313 0.48342 0.01600
O 	O 	0.54339 0.04986 0.62494 -0.20400
O 	O 	0.49054 0.95328 0.62494 -0.20300
H 	H 	0.55368 0.07262 0.57424 0.04300
H 	H 	0.55353 0.07291 0.51957 0.04500
H 	H 	0.48073 0.93034 0.57427 0.04300
H 	H 	0.48151 0.92979 0.51961 0.04500
C 	C 	0.55732 0.04112 0.46738 -0.05800
C 	C 	0.55788 0.04038 0.43608 0.01000
C 	C 	0.53788 0.02089 0.42017 -0.08100
C 	C 	0.51797 0.00116 0.43595 0.06100
C 	C 	0.47828 0.96135 0.46723 -0.05800
C 	C 	0.47806 0.96193 0.43592 0.01000
C 	C 	0.49824 0.98134 0.42010 -0.08100
C 	C 	0.53773 0.02049 0.38861 0.19700
N 	N 	0.51833 0.00098 0.37345 -0.18200
C 	C 	0.49875 0.98157 0.38854 0.19700
C 	C 	0.51854 0.00084 0.34123 0.14600
C 	C 	0.50046 0.02198 0.32527 -0.11200
C 	C 	0.50049 0.02161 0.29387 0.07200
C 	C 	0.51865 0.00022 0.27845 -0.09900
C 	C 	0.53671 0.97910 0.29430 0.07200
C 	C 	0.53668 0.97939 0.32569 -0.11200
O 	O 	0.55624 0.03899 0.37356 -0.20300
O 	O 	0.48041 0.96298 0.37342 -0.20300
H 	H 	0.48641 0.03848 0.33730 0.07300
H 	H 	0.55059 0.96303 0.33805 0.07300
H 	H 	0.57435 0.05445 0.47897 0.04500
H 	H 	0.57420 0.05470 0.42429 0.04300
H 	H 	0.46112 0.94808 0.47873 0.04500
H 	H 	0.46187 0.94756 0.42406 0.04300
H 	H 	0.51866 0.99995 0.25414 0.06000
H 	H 	0.51731 0.00051 0.74430 0.06000
Zn	Zn	0.72223 0.79676 0.99822 1.21800
C 	C 	0.70396 0.79364 0.06032 0.33900
O 	O 	0.76502 0.80500 0.99926 -0.46700
O 	O 	0.71104 0.76302 0.06010 -0.45100
O 	O 	0.77228 0.78370 0.04557 -0.49600
C 	C 	0.70184 0.73108 0.99516 0.34000
O 	O 	0.69370 0.76124 0.99673 -0.45500
O 	O 	0.72767 0.72258 0.00518 -0.50900
C 	C 	0.77999 0.80389 0.02434 0.33200
O 	O 	0.72410 0.79361 0.94531 -0.32800
Zn	Zn	0.74728 0.74651 0.03719 1.16900
O 	O 	0.71212 0.81281 0.03832 -0.43900
C 	C 	0.71254 0.82203 0.94597 0.29800
O 	O 	0.70717 0.83345 0.97234 -0.38400
Zn	Zn	0.21581 0.69690 0.01073 1.22200
C 	C 	0.20418 0.69364 0.07435 0.34000
O 	O 	0.20458 0.74031 0.99766 -0.46700
O 	O 	0.22996 0.70716 0.07899 -0.45100
O 	O 	0.20853 0.76288 0.04384 -0.50000
C 	C 	0.27551 0.68837 0.02851 0.34500
O 	O 	0.25001 0.67397 0.02523 -0.45700
O 	O 	0.27711 0.71970 0.03176 -0.51400
C 	C 	0.19685 0.76232 0.01705 0.33500
O 	O 	0.23225 0.68571 0.96156 -0.32600
Zn	Zn	0.24614 0.74333 0.05173 1.17100
O 	O 	0.19227 0.69382 0.04755 -0.43900
C 	C 	0.20860 0.66822 0.95954 0.29800
O 	O 	0.19206 0.66781 0.98309 -0.38400
C 	C 	0.98807 0.50005 0.34299 0.14700
C 	C 	0.96922 0.47968 0.32673 -0.11300
H 	H 	0.95401 0.46390 0.33849 0.07400
C 	C 	0.97034 0.47951 0.29535 0.07300
C 	C 	0.99013 0.49982 0.28028 -0.09900
C 	C 	0.00895 0.52016 0.29648 0.07200
C 	C 	0.00792 0.52030 0.32782 -0.11500
H 	H 	0.02260 0.53587 0.34044 0.07300
N 	N 	0.98756 0.49971 0.37516 -0.18300
C 	C 	0.00378 0.47734 0.39035 0.19700
C 	C 	0.00604 0.47877 0.42177 -0.08200
C 	C 	0.99192 0.50363 0.43732 0.06200
C 	C 	0.97365 0.52484 0.42165 -0.08200
C 	C 	0.97177 0.52254 0.39024 0.19800
C 	C 	0.02149 0.45531 0.43780 0.01000
C 	C 	0.02403 0.45742 0.46888 -0.05800
C 	C 	0.01325 0.48459 0.48439 0.01500
C 	C 	0.99558 0.50683 0.46868 -0.02800
C 	C 	0.98062 0.53146 0.48424 0.01500
C 	C 	0.95699 0.54739 0.43755 0.01000
C 	C 	0.95955 0.54981 0.46862 -0.05800
C 	C 	0.01855 0.48918 0.51550 0.01600
C 	C 	0.00365 0.51387 0.53104 -0.03000
C 	C 	0.98599 0.53611 0.51533 0.01700
O 	O 	0.95519 0.54277 0.37519 -0.20300
O 	O 	0.01784 0.45486 0.37539 -0.20400
H 	H 	0.94136 0.56249 0.42602 0.04300
H 	H 	0.94407 0.56471 0.48045 0.04500
H 	H 	0.03080 0.43478 0.42636 0.04200
H 	H 	0.03299 0.43711 0.48079 0.04500
C 	C 	0.97535 0.56339 0.53078 -0.05800
C 	C 	0.97810 0.56568 0.56183 0.01000
C 	C 	0.99354 0.54223 0.57790 -0.08100
C 	C 	0.00738 0.51715 0.56239 0.06100
C 	C 	0.03951 0.47071 0.53116 -0.05800
C 	C 	0.04200 0.47308 0.56223 0.01000
C 	C 	0.02548 0.49578 0.57810 -0.08100
C 	C 	0.99607 0.54389 0.60929 0.19800
N 	N 	0.01203 0.52133 0.62452 -0.18300
C 	C 	0.02737 0.49809 0.60950 0.19800
C 	C 	0.01176 0.52126 0.65669 0.14600
C 	C 	0.03443 0.53657 0.67268 -0.11200
C 	C 	0.03448 0.53569 0.70406 0.07300
C 	C 	0.01181 0.51974 0.71942 -0.10000
C 	C 	0.98920 0.50445 0.70351 0.07400
C 	C 	0.98915 0.50522 0.67216 -0.11300
O 	O 	0.98264 0.56689 0.62418 -0.20300
O 	O 	0.04343 0.47742 0.62460 -0.20300
H 	H 	0.05197 0.54881 0.66069 0.07400
H 	H 	0.97180 0.49318 0.65975 0.07300
H 	H 	0.96632 0.58363 0.51882 0.04500
H 	H 	0.96893 0.58632 0.57323 0.04300
H 	H 	0.05496 0.45576 0.51936 0.04500
H 	H 	0.05753 0.45788 0.57378 0.04300
H 	H 	0.01193 0.51894 0.74373 0.06100
H 	H 	0.99106 0.49959 0.25598 0.06000
Zn	Zn	0.80254 0.29980 0.98749 1.22100
C 	C 	0.80512 0.31500 0.92440 0.34000
O 	O 	0.76179 0.30657 0.00030 -0.46600
O 	O 	0.79578 0.28557 0.91876 -0.45100
O 	O 	0.74238 0.30105 0.95372 -0.50000
C 	C 	0.81766 0.23646 0.96791 0.34500
O 	O 	0.82752 0.26586 0.97209 -0.45800
O 	O 	0.78956 0.23100 0.96412 -0.51400
C 	C 	0.74118 0.31300 0.98083 0.33400
O 	O 	0.81403 0.28099 0.03611 -0.32600
Zn	Zn	0.76466 0.26270 0.94498 1.17000
O 	O 	0.80308 0.32712 0.95151 -0.43900
C 	C 	0.82723 0.30861 0.03920 0.29800
O 	O 	0.82593 0.32780 0.01643 -0.38300
Zn	Zn	0.00336 0.00426 0.02604 1.21800
C 	C 	0.03823 0.94750 0.02855 0.33100
O 	O 	0.96817 0.99186 0.04918 -0.47400
O 	O 	0.04840 0.96013 0.05355 -0.45600
O 	O 	0.98909 0.95485 0.07944 -0.49800
C 	C 	0.05184 0.03539 0.05489 0.34400
O 	O 	0.04260 0.02249 0.02985 -0.45600
O 	O 	0.04019 0.02636 0.08049 -0.50700
C 	C 	0.96660 0.96456 0.06380 0.33500
O 	O 	0.98787 0.05770 0.02629 -0.33500
Zn	Zn	0.02305 0.98309 0.08497 1.16700
O 	O 	0.01649 0.96118 0.01399 -0.43500
C 	C 	0.97908 0.05260 0.99912 0.29200
O 	O 	0.98381 0.02384 0.98888 -0.38000
C 	C 	0.91665 0.13106 0.94294 -0.07900
C 	C 	0.91662 0.11721 0.97523 0.02900
C 	C 	0.90000 0.17190 0.99450 -0.07600
C 	C 	0.87703 0.16283 0.97029 0.02100
C 	C 	0.89328 0.15798 0.94003 -0.07500
H 	H 	0.93871 0.14111 0.93735 0.04500
H 	H 	0.91180 0.11154 0.92653 0.04500
C 	C 	0.93889 0.09218 0.97933 0.02200
H 	H 	0.88903 0.17542 0.01655 0.04700
H 	H 	0.91108 0.19508 0.98858 0.04600
C 	C 	0.85514 0.18855 0.96823 0.03500
H 	H 	0.90421 0.18088 0.93300 0.04400
H 	H 	0.87729 0.15136 0.92218 0.04200
C 	C 	0.86223 0.13042 0.97930 -0.07500
H 	H 	0.84563 0.12326 0.96221 0.04200
H 	H 	0.85046 0.13308 0.00102 0.04400
C 	C 	0.88552 0.10357 0.98219 -0.07900
H 	H 	0.88483 0.09342 0.00529 0.04700
H 	H 	0.88008 0.08357 0.96648 0.04500
C 	C 	0.92321 0.14517 0.99738 -0.07800
H 	H 	0.92333 0.13600 0.02085 0.04800
H 	H 	0.94539 0.15560 0.99286 0.04600
C 	C 	0.95736 0.07306 0.98631 -0.08900
C 	C 	0.83774 0.21018 0.96774 -0.11800
C 	C 	0.84606 0.36663 0.85860 -0.01200
C 	C 	0.82998 0.38293 0.83664 -0.02900
C 	C 	0.84461 0.40003 0.81402 -0.04600
C 	C 	0.87539 0.40086 0.81325 0.01100
C 	C 	0.89141 0.38463 0.83535 -0.04500
C 	C 	0.87678 0.36757 0.85793 -0.02800
C 	C 	0.89092 0.41906 0.78966 0.00400
C 	C 	0.88964 0.45283 0.78907 -0.03700
C 	C 	0.90759 0.47034 0.76940 -0.04200
C 	C 	0.92686 0.45419 0.75022 0.01600
C 	C 	0.92704 0.42044 0.74970 -0.04200
C 	C 	0.90911 0.40291 0.76935 -0.03700
C 	C 	0.94853 0.47209 0.73351 -0.00500
C 	C 	0.96674 0.48691 0.71944 -0.03500
C 	C 	0.83112 0.34863 0.88165 0.05400
C 	C 	0.81904 0.33341 0.90115 -0.11700
H 	H 	0.80621 0.38229 0.83704 0.03600
H 	H 	0.83207 0.41254 0.79707 0.04100
H 	H 	0.91518 0.38535 0.83506 0.04200
H 	H 	0.88933 0.35506 0.87487 0.04000
H 	H 	0.87554 0.46550 0.80457 0.03900
H 	H 	0.90722 0.49644 0.76979 0.04200
H 	H 	0.94176 0.40780 0.73479 0.04300
H 	H 	0.91000 0.37683 0.76943 0.04000
C 	C 	0.91940 0.41917 0.24484 0.01600
C 	C 	0.89512 0.43136 0.22945 -0.04200
C 	C 	0.88152 0.41297 0.20711 -0.03700
C 	C 	0.89212 0.38223 0.20007 0.00400
C 	C 	0.91517 0.36925 0.21690 -0.03700
C 	C 	0.92880 0.38770 0.23919 -0.04200
C 	C 	0.88131 0.36531 0.17315 0.01000
C 	C 	0.85147 0.35711 0.17048 -0.04400
C 	C 	0.84075 0.34406 0.14372 -0.03100
C 	C 	0.85979 0.33908 0.11952 -0.00600
C 	C 	0.88972 0.34633 0.12244 -0.03100
C 	C 	0.90046 0.35943 0.14915 -0.04300
C 	C 	0.84835 0.32817 0.09120 0.04400
C 	C 	0.83876 0.31903 0.06750 -0.09500
C 	C 	0.93702 0.44030 0.26313 -0.00500
C 	C 	0.95181 0.45797 0.27846 -0.03400
H 	H 	0.88760 0.45559 0.23386 0.04200
H 	H 	0.86361 0.42314 0.19440 0.03900
H 	H 	0.92323 0.34536 0.21194 0.03900
H 	H 	0.94742 0.37803 0.25117 0.04300
H 	H 	0.83654 0.36140 0.18892 0.04100
H 	H 	0.81759 0.33838 0.14164 0.04100
H 	H 	0.90457 0.34245 0.10384 0.04000
H 	H 	0.92351 0.36578 0.15094 0.04100
C 	C 	0.14591 0.86188 0.00997 -0.07500
C 	C 	0.13160 0.82817 0.00574 0.02200
C 	C 	0.08606 0.84842 0.03257 -0.07600
C 	C 	0.09112 0.87313 0.00693 0.02400
C 	C 	0.12218 0.88824 0.01066 -0.07500
H 	H 	0.15865 0.86267 0.03125 0.04000
H 	H 	0.16160 0.86697 0.99138 0.04100
C 	C 	0.15455 0.80351 0.00647 0.03400
H 	H 	0.06397 0.83698 0.03034 0.04200
H 	H 	0.08667 0.86080 0.05470 0.04000
C 	C 	0.06923 0.89880 0.00939 0.03000
H 	H 	0.12368 0.90158 0.03226 0.04300
H 	H 	0.12652 0.90597 0.99240 0.04400
C 	C 	0.09006 0.85486 0.97661 -0.07700
H 	H 	0.09373 0.87201 0.95776 0.04500
H 	H 	0.06802 0.84362 0.97337 0.04400
C 	C 	0.11402 0.82824 0.97590 -0.07700
H 	H 	0.10342 0.80429 0.97230 0.04500
H 	H 	0.12912 0.83266 0.95669 0.04400
C 	C 	0.10981 0.82207 0.03188 -0.07600
H 	H 	0.09909 0.79800 0.02934 0.04500
H 	H 	0.12171 0.82195 0.05367 0.04300
C 	C 	0.17383 0.78427 0.01001 -0.11600
C 	C 	0.05352 0.92087 0.01585 -0.10800
C 	C 	0.09986 0.57627 0.75420 0.01600
C 	C 	0.11645 0.55619 0.77274 -0.04200
C 	C 	0.13436 0.56952 0.79500 -0.03700
C 	C 	0.13581 0.60306 0.79881 0.00500
C 	C 	0.12080 0.62319 0.77882 -0.03700
C 	C 	0.10283 0.60980 0.75662 -0.04200
C 	C 	0.14987 0.61679 0.82574 0.01100
C 	C 	0.17982 0.61180 0.83121 -0.04300
C 	C 	0.19250 0.62261 0.85797 -0.03100
C 	C 	0.17532 0.63845 0.87934 -0.00500
C 	C 	0.14556 0.64394 0.87366 -0.03100
C 	C 	0.13287 0.63313 0.84699 -0.04300
C 	C 	0.18796 0.64855 0.90738 0.04400
C 	C 	0.19778 0.65734 0.93110 -0.09400
C 	C 	0.07698 0.56260 0.73587 -0.00500
C 	C 	0.05796 0.55061 0.72069 -0.03400
H 	H 	0.11445 0.53023 0.77082 0.04300
H 	H 	0.14601 0.55377 0.81016 0.04000
H 	H 	0.12212 0.64913 0.78129 0.04000
H 	H 	0.09027 0.62549 0.74217 0.04300
H 	H 	0.19315 0.59924 0.81493 0.04100
H 	H 	0.21556 0.61839 0.86218 0.04000
H 	H 	0.13218 0.65623 0.89007 0.04100
H 	H 	0.10969 0.63689 0.84308 0.04200
C 	C 	0.15942 0.65199 0.14357 -0.01300
C 	C 	0.15258 0.61904 0.14240 -0.02800
C 	C 	0.13587 0.60478 0.16516 -0.04500
C 	C 	0.12591 0.62341 0.18928 0.01100
C 	C 	0.13323 0.65630 0.19070 -0.04600
C 	C 	0.14994 0.67054 0.16788 -0.02900
C 	C 	0.10660 0.60881 0.21216 0.00400
C 	C 	0.11657 0.58301 0.22963 -0.03700
C 	C 	0.09721 0.56667 0.24875 -0.04300
C 	C 	0.06781 0.57606 0.25056 0.01600
C 	C 	0.05814 0.60271 0.23414 -0.04300
C 	C 	0.07747 0.61904 0.21498 -0.03700
C 	C 	0.04707 0.55662 0.26702 -0.00600
C 	C 	0.02976 0.54028 0.28083 -0.03500
C 	C 	0.17529 0.66692 0.11931 0.05400
C 	C 	0.18859 0.67918 0.09888 -0.11700
H 	H 	0.15987 0.60456 0.12366 0.03900
H 	H 	0.13021 0.57940 0.16380 0.04100
H 	H 	0.12572 0.67085 0.20928 0.04000
H 	H 	0.15522 0.69603 0.16895 0.03600
H 	H 	0.13910 0.57513 0.22782 0.03900
H 	H 	0.10486 0.54617 0.26151 0.04200
H 	H 	0.03546 0.61017 0.23553 0.04200
H 	H 	0.06959 0.63899 0.20164 0.03900
C 	C 	0.87283 0.90568 0.07596 -0.07600
C 	C 	0.89536 0.90429 0.04992 0.02300
C 	C 	0.87932 0.84607 0.04036 -0.07600
C 	C 	0.85028 0.86526 0.03922 0.02300
C 	C 	0.84637 0.88278 0.06968 -0.07600
H 	H 	0.88349 0.89862 0.09738 0.04100
H 	H 	0.86482 0.93075 0.07878 0.04300
C 	C 	0.92064 0.92605 0.05573 0.03200
H 	H 	0.88286 0.83334 0.01872 0.04200
H 	H 	0.87804 0.82734 0.05820 0.04100
C 	C 	0.82511 0.84339 0.03333 0.03100
H 	H 	0.84441 0.86482 0.08814 0.04300
H 	H 	0.82575 0.89694 0.06953 0.04500
C 	C 	0.85309 0.89115 0.01425 -0.07500
H 	H 	0.83260 0.90548 0.01296 0.04600
H 	H 	0.85608 0.87935 0.99208 0.04500
C 	C 	0.87954 0.91405 0.02052 -0.07600
H 	H 	0.89513 0.91317 0.00133 0.04600
H 	H 	0.87165 0.93930 0.02222 0.04600
C 	C 	0.90576 0.86896 0.04663 -0.07600
H 	H 	0.92190 0.86713 0.02799 0.04400
H 	H 	0.91708 0.86114 0.06746 0.04200
C 	C 	0.94149 0.94369 0.05988 -0.11400
C 	C 	0.80455 0.82540 0.02891 -0.11200
C 	C 	0.67965 0.86514 0.87114 -0.00500
C 	C 	0.66539 0.89475 0.87392 -0.03100
C 	C 	0.65207 0.90877 0.84898 -0.04300
C 	C 	0.65296 0.89328 0.82104 0.01000
C 	C 	0.66788 0.86401 0.81814 -0.04300
C 	C 	0.68117 0.84998 0.84314 -0.03100
C 	C 	0.63670 0.90673 0.79540 0.00500
C 	C 	0.64323 0.93790 0.78497 -0.03700
C 	C 	0.62513 0.95245 0.76370 -0.04200
C 	C 	0.60046 0.93591 0.75269 0.01600
C 	C 	0.59486 0.90412 0.76182 -0.04200
C 	C 	0.61290 0.88957 0.78312 -0.03700
C 	C 	0.57906 0.95280 0.73509 -0.00500
C 	C 	0.56117 0.96698 0.72035 -0.03400
C 	C 	0.69150 0.84967 0.89731 0.04400
C 	C 	0.70132 0.83702 0.91941 -0.09500
H 	H 	0.66417 0.90662 0.89550 0.04100
H 	H 	0.64051 0.93130 0.85150 0.04100
H 	H 	0.66882 0.85194 0.79665 0.04100
H 	H 	0.69225 0.82713 0.84081 0.04100
H 	H 	0.66177 0.95121 0.79403 0.03900
H 	H 	0.62970 0.97698 0.75662 0.04200
H 	H 	0.57590 0.89113 0.75329 0.04300
H 	H 	0.60773 0.86544 0.79092 0.04000
C 	C 	0.58779 0.91754 0.24611 0.01600
C 	C 	0.61493 0.92809 0.23482 -0.04200
C 	C 	0.63012 0.90918 0.21416 -0.03700
C 	C 	0.61825 0.87956 0.20470 0.00400
C 	C 	0.59174 0.86835 0.21712 -0.03700
C 	C 	0.57656 0.88731 0.23774 -0.04200
C 	C 	0.63236 0.86158 0.18016 0.01100
C 	C 	0.66113 0.85032 0.18342 -0.04500
C 	C 	0.67520 0.83534 0.15938 -0.02900
C 	C 	0.66060 0.83150 0.13196 -0.01200
C 	C 	0.63167 0.84210 0.12886 -0.02800
C 	C 	0.61759 0.85711 0.15286 -0.04500
C 	C 	0.67575 0.81798 0.10665 0.05300
C 	C 	0.68850 0.80665 0.08551 -0.11500
C 	C 	0.57004 0.93910 0.26354 -0.00500
C 	C 	0.55512 0.95708 0.27814 -0.03400
H 	H 	0.62380 0.95139 0.24127 0.04300
H 	H 	0.65061 0.91801 0.20479 0.03900
H 	H 	0.58255 0.84536 0.21021 0.03900
H 	H 	0.55564 0.87894 0.24647 0.04200
H 	H 	0.67268 0.85353 0.20443 0.04100
H 	H 	0.69756 0.82713 0.16195 0.03700
H 	H 	0.62024 0.83918 0.10774 0.04000
H 	H 	0.59542 0.86582 0.15008 0.04100
C 	C 	0.17192 0.11628 0.07133 -0.07600
C 	C 	0.17223 0.13034 0.03907 0.02300
C 	C 	0.14378 0.08056 0.02168 -0.07600
C 	C 	0.12494 0.09402 0.04776 0.02200
C 	C 	0.14414 0.09494 0.07644 -0.07600
H 	H 	0.19190 0.10160 0.07514 0.04400
H 	H 	0.17232 0.13618 0.08805 0.04200
C 	C 	0.19863 0.15065 0.03417 0.03100
H 	H 	0.13063 0.07969 0.00068 0.04700
H 	H 	0.15055 0.05544 0.02677 0.04400
C 	C 	0.09853 0.07359 0.05216 0.03200
H 	H 	0.15088 0.07011 0.08265 0.04100
H 	H 	0.13128 0.10469 0.09555 0.04100
C 	C 	0.11620 0.12905 0.03980 -0.07600
H 	H 	0.10279 0.13948 0.05819 0.04300
H 	H 	0.10245 0.12920 0.01920 0.04500
C 	C 	0.14396 0.15037 0.03470 -0.07600
H 	H 	0.14343 0.16066 0.01166 0.04200
H 	H 	0.14377 0.17097 0.05065 0.04000
C 	C 	0.17152 0.10187 0.01658 -0.07500
H 	H 	0.17156 0.11117 0.99317 0.04500
H 	H 	0.19150 0.08691 0.01927 0.04500
C 	C 	0.22016 0.16735 0.03033 -0.11400
C 	C 	0.07708 0.05644 0.05437 -0.11400
C 	C 	0.35380 0.13371 0.87318 -0.00500
C 	C 	0.38445 0.13150 0.87322 -0.03100
C 	C 	0.39906 0.11889 0.84838 -0.04300
C 	C 	0.38310 0.10843 0.82326 0.01000
C 	C 	0.35239 0.11079 0.82318 -0.04300
C 	C 	0.33778 0.12341 0.84809 -0.03100
C 	C 	0.39855 0.09406 0.79752 0.00400
C 	C 	0.41971 0.11212 0.78177 -0.03700
C 	C 	0.43731 0.09725 0.76024 -0.04200
C 	C 	0.43383 0.06429 0.75429 0.01600
C 	C 	0.41163 0.04662 0.76881 -0.04200
C 	C 	0.39404 0.06145 0.79038 -0.03700
C 	C 	0.45522 0.04788 0.73626 -0.00500
C 	C 	0.47314 0.03416 0.72115 -0.03400
C 	C 	0.33885 0.14652 0.89896 0.04400
C 	C 	0.32693 0.15733 0.92084 -0.09400
H 	H 	0.39696 0.13942 0.89254 0.04100
H 	H 	0.42275 0.11695 0.84875 0.04100
H 	H 	0.33987 0.10280 0.80390 0.04100
H 	H 	0.31407 0.12509 0.84789 0.04000
H 	H 	0.42313 0.13740 0.78686 0.03900
H 	H 	0.45433 0.11110 0.74899 0.04200
H 	H 	0.40872 0.02115 0.76423 0.04300
H 	H 	0.37767 0.04733 0.80231 0.04000
C 	C 	0.44830 0.08092 0.24448 0.01600
C 	C 	0.41995 0.07091 0.23638 -0.04300
C 	C 	0.40388 0.08873 0.21557 -0.03700
C 	C 	0.41609 0.11671 0.20276 0.00400
C 	C 	0.44398 0.12744 0.21188 -0.03700
C 	C 	0.46004 0.10957 0.23266 -0.04200
C 	C 	0.40057 0.13343 0.17834 0.01100
C 	C 	0.37281 0.14673 0.18342 -0.04600
C 	C 	0.35741 0.16089 0.15980 -0.02900
C 	C 	0.36968 0.16187 0.13100 -0.01200
C 	C 	0.39760 0.14910 0.12599 -0.02800
C 	C 	0.41301 0.13490 0.14957 -0.04500
C 	C 	0.35317 0.17494 0.10638 0.05300
C 	C 	0.33932 0.18589 0.08580 -0.11600
C 	C 	0.46645 0.06018 0.26234 -0.00600
C 	C 	0.48173 0.04290 0.27729 -0.03400
H 	H 	0.41070 0.04882 0.24548 0.04200
H 	H 	0.38234 0.08028 0.20874 0.03900
H 	H 	0.45348 0.14918 0.20236 0.03900
H 	H 	0.48191 0.11751 0.23889 0.04300
H 	H 	0.36307 0.14584 0.20556 0.04100
H 	H 	0.33584 0.17078 0.16384 0.03600
H 	H 	0.40723 0.14978 0.10378 0.04000
H 	H 	0.43437 0.12459 0.14538 0.04100
C 	C 	0.41153 0.32247 0.97453 -0.07600
C 	C 	0.37940 0.33326 0.96952 0.02300
C 	C 	0.39560 0.39104 0.98057 -0.07700
C 	C 	0.41656 0.38018 0.95515 0.02300
C 	C 	0.43332 0.34999 0.96609 -0.07600
H 	H 	0.41485 0.31558 0.99839 0.04500
H 	H 	0.41625 0.30081 0.96069 0.04500
C 	C 	0.35871 0.30716 0.97803 0.03200
H 	H 	0.38309 0.41260 0.97334 0.04400
H 	H 	0.40848 0.39813 0.00075 0.04700
C 	C 	0.43749 0.40649 0.94790 0.03200
H 	H 	0.44703 0.35618 0.98595 0.04500
H 	H 	0.44845 0.34146 0.94824 0.04200
C 	C 	0.39770 0.37042 0.92761 -0.07600
H 	H 	0.41214 0.36233 0.90900 0.04200
H 	H 	0.38527 0.39159 0.91931 0.04300
C 	C 	0.37585 0.34282 0.93606 -0.07600
H 	H 	0.35299 0.35083 0.93177 0.04300
H 	H 	0.37985 0.32157 0.92147 0.04500
C 	C 	0.37384 0.36355 0.98900 -0.07600
H 	H 	0.35094 0.37199 0.98578 0.04100
H 	H 	0.37637 0.35753 0.01317 0.04300
C 	C 	0.34195 0.28608 0.98592 -0.11300
C 	C 	0.45503 0.42812 0.94413 -0.11400
C 	C 	0.40512 0.63254 0.01652 -0.07800
C 	C 	0.39606 0.59644 0.01816 0.02900
C 	C 	0.35365 0.61185 0.05237 -0.07500
C 	C 	0.34966 0.63336 0.02418 0.02100
C 	C 	0.37779 0.65428 0.02006 -0.07400
H 	H 	0.42126 0.63828 0.03450 0.04400
H 	H 	0.41600 0.63782 0.99469 0.04500
C 	C 	0.42151 0.57551 0.01351 0.02200
H 	H 	0.33381 0.59646 0.05588 0.04400
H 	H 	0.35626 0.62721 0.07266 0.04200
C 	C 	0.32356 0.65370 0.02688 0.03600
H 	H 	0.38086 0.67045 0.03972 0.04100
H 	H 	0.37564 0.66992 0.99991 0.04200
C 	C 	0.34621 0.61116 0.99649 -0.07500
H 	H 	0.34341 0.62591 0.97585 0.04600
H 	H 	0.32621 0.59574 0.99886 0.04600
C 	C 	0.37339 0.58953 0.99296 -0.07800
H 	H 	0.36635 0.56376 0.99361 0.04600
H 	H 	0.38353 0.59392 0.97059 0.04700
C 	C 	0.38102 0.59008 0.04882 -0.07900
H 	H 	0.37423 0.56432 0.05061 0.04500
H 	H 	0.39673 0.59504 0.06737 0.04400
C 	C 	0.44092 0.55770 0.00622 -0.08800
C 	C 	0.30177 0.66980 0.02795 -0.11800
C 	C 	0.63569 0.40298 0.95998 -0.07500
C 	C 	0.62930 0.41616 0.99183 0.02200
C 	C 	0.64947 0.36392 0.01339 -0.07500
C 	C 	0.67433 0.37675 0.99267 0.02100
C 	C 	0.66201 0.37994 0.96047 -0.07500
H 	H 	0.61609 0.38991 0.95109 0.04100
H 	H 	0.64048 0.42326 0.94429 0.04000
C 	C 	0.60374 0.43739 0.98962 0.03000
H 	H 	0.65771 0.36153 0.03675 0.04300
H 	H 	0.64218 0.33953 0.00596 0.04100
C 	C 	0.69913 0.35437 0.99177 0.03300
H 	H 	0.65494 0.35590 0.95187 0.04000
H 	H 	0.67937 0.38923 0.94505 0.04300
C 	C 	0.68375 0.41080 0.00376 -0.07500
H 	H 	0.70157 0.42067 0.98925 0.04400
H 	H 	0.69261 0.40925 0.02694 0.04500
C 	C 	0.65714 0.43407 0.00326 -0.07500
H 	H 	0.65325 0.44364 0.02620 0.04400
H 	H 	0.66227 0.45502 0.98850 0.04200
C 	C 	0.62293 0.38715 0.01290 -0.07600
H 	H 	0.61846 0.39589 0.03602 0.04400
H 	H 	0.60301 0.37380 0.00524 0.04400
C 	C 	0.58214 0.45244 0.98346 -0.11000
C 	C 	0.71870 0.33551 0.98809 -0.11700
C 	C 	0.63170 0.66687 0.93536 -0.07600
C 	C 	0.64290 0.66096 0.96774 0.02300
C 	C 	0.59375 0.63385 0.97976 -0.07600
C 	C 	0.60489 0.61546 0.95176 0.02300
C 	C 	0.60938 0.64015 0.92598 -0.07600
H 	H 	0.62103 0.69084 0.93390 0.04600
H 	H 	0.65049 0.66716 0.91941 0.04400
C 	C 	0.66412 0.68629 0.97693 0.03200
H 	H 	0.59042 0.61680 0.99876 0.04600
H 	H 	0.57213 0.64498 0.97494 0.04500
C 	C 	0.58362 0.58990 0.94323 0.03200
H 	H 	0.58807 0.65139 0.92006 0.04300
H 	H 	0.61754 0.62770 0.90556 0.04200
C 	C 	0.63510 0.60060 0.95942 -0.07600
H 	H 	0.64379 0.58735 0.93967 0.04200
H 	H 	0.63264 0.58283 0.97798 0.04400
C 	C 	0.65738 0.62727 0.96879 -0.07600
H 	H 	0.66553 0.62221 0.99181 0.04100
H 	H 	0.67670 0.62675 0.95351 0.04200
C 	C 	0.61603 0.66052 0.98913 -0.07700
H 	H 	0.62330 0.65615 0.01258 0.04400
H 	H 	0.60502 0.68435 0.98877 0.04600
C 	C 	0.68139 0.70680 0.98499 -0.11200
C 	C 	0.56617 0.56872 0.93734 -0.11400
