data_crystal

_cell_length_a 41.41895
_cell_length_b 40.42114
_cell_length_c 19.92046
_cell_angle_alpha 91.55930
_cell_angle_beta  90.01102
_cell_angle_gamma 90.09366

_symmetry_space_group_name_	'P 1'
_symmetry_space_group_name_H-M	'P 1'

loop_
_symmetry_equiv_pos_as_xyz
  x,y,z

loop_
_atom_site_label
_atom_site_type_symbol
_atom_site_fract_x
_atom_site_fract_y
_atom_site_fract_z
_atom_site_charge
Cd	Cd	0.02475 0.90217 0.25600 1.24500
Cd	Cd	0.04081 0.95581 0.39890 1.16500
O 	O 	0.99888 0.85075 0.28925 -0.30100
O 	O 	0.00665 0.86131 0.18275 -0.33800
C 	C 	0.99552 0.84107 0.22721 0.32400
O 	O 	0.03865 0.95106 0.21080 -0.37400
O 	O 	0.06591 0.97038 0.30430 -0.45700
C 	C 	0.05061 0.97604 0.24778 0.29300
C 	C 	0.97376 0.93843 0.31712 0.33100
O 	O 	0.05810 0.90326 0.36732 -0.45000
O 	O 	0.96443 0.92605 0.25902 -0.28500
O 	O 	0.00187 0.92931 0.33751 -0.53900
C 	C 	0.08377 0.89604 0.33226 0.31600
O 	O 	0.07863 0.88816 0.26913 -0.33100
Cd	Cd	0.05529 0.84898 0.00655 1.24900
Cd	Cd	0.09406 0.89383 0.87968 1.16700
O 	O 	0.06499 0.78888 0.00931 -0.29000
O 	O 	0.03488 0.81449 0.08448 -0.31900
C 	C 	0.04502 0.78634 0.05914 0.31600
O 	O 	0.04407 0.90192 0.03545 -0.36900
O 	O 	0.05354 0.92205 0.93090 -0.45700
C 	C 	0.05116 0.92687 0.99651 0.26000
C 	C 	0.12119 0.86621 0.02139 0.34200
O 	O 	0.05995 0.84785 0.87426 -0.43100
O 	O 	0.10990 0.85696 0.07930 -0.27300
O 	O 	0.10221 0.86213 0.97054 -0.56000
C 	C 	0.02854 0.84705 0.87168 0.26900
O 	O 	0.01382 0.84706 0.92963 -0.39800
C 	C 	0.98407 0.67094 0.97750 0.14900
N 	N 	0.97930 0.67952 0.91277 -0.13400
C 	C 	0.96846 0.65680 0.86678 0.13700
N 	N 	0.96258 0.62533 0.88530 -0.14200
C 	C 	0.96730 0.61656 0.94992 0.13100
N 	N 	0.97783 0.63947 0.99624 -0.13200
C 	C 	0.95511 0.71346 0.27500 0.17200
N 	N 	0.95744 0.68253 0.24715 -0.12800
C 	C 	0.95180 0.65572 0.28507 0.14200
N 	N 	0.94329 0.65992 0.35057 -0.14300
C 	C 	0.94090 0.69078 0.37865 0.14000
N 	N 	0.94675 0.71753 0.34067 -0.13400
Cd	Cd	0.91336 0.92985 0.71652 1.24400
Cd	Cd	0.96162 0.90211 0.85277 1.19000
O 	O 	0.85502 0.92025 0.72791 -0.30600
O 	O 	0.87423 0.95102 0.64811 -0.31700
C 	C 	0.84883 0.94004 0.67936 0.31200
O 	O 	0.96242 0.95220 0.69716 -0.36700
O 	O 	0.99041 0.91534 0.76089 -0.42000
C 	C 	0.98931 0.94318 0.72786 0.31800
C 	C 	0.91433 0.96698 0.84005 0.33500
O 	O 	0.92751 0.87546 0.77627 -0.44100
O 	O 	0.90170 0.98371 0.79180 -0.27500
O 	O 	0.92093 0.93642 0.82496 -0.52700
C 	C 	0.93639 0.86212 0.71910 0.31900
O 	O 	0.93010 0.87962 0.66633 -0.34300
Cd	Cd	0.89711 0.09644 0.55269 1.24400
Cd	Cd	0.94768 0.09849 0.40638 1.17400
O 	O 	0.84064 0.09067 0.51804 -0.30300
O 	O 	0.85435 0.08690 0.62412 -0.31100
C 	C 	0.83146 0.08550 0.57890 0.31200
O 	O 	0.94828 0.09236 0.59380 -0.36200
O 	O 	0.97208 0.11516 0.50179 -0.44200
C 	C 	0.97419 0.09724 0.55580 0.29200
C 	C 	0.91245 0.03669 0.48227 0.32500
O 	O 	0.90603 0.13186 0.44672 -0.44000
O 	O 	0.90015 0.03089 0.54101 -0.26700
O 	O 	0.91237 0.06729 0.46488 -0.52600
C 	C 	0.90858 0.15797 0.48618 0.32300
O 	O 	0.90179 0.15353 0.54928 -0.34700
C 	C 	0.73270 0.99045 0.78097 0.16700
N 	N 	0.73884 0.99743 0.84696 -0.13200
C 	C 	0.71481 0.00847 0.88816 0.13600
N 	N 	0.68437 0.01129 0.86383 -0.14200
C 	C 	0.67805 0.00433 0.79806 0.13900
N 	N 	0.70224 0.99381 0.75663 -0.13100
C 	C 	0.71222 0.04771 0.49855 0.16800
N 	N 	0.72097 0.04422 0.43291 -0.13300
C 	C 	0.69894 0.03459 0.38585 0.14100
N 	N 	0.66786 0.02935 0.40422 -0.14200
C 	C 	0.65905 0.03241 0.46976 0.13800
N 	N 	0.68115 0.04211 0.51682 -0.13500
Cd	Cd	0.04987 0.19302 0.21802 1.24500
Cd	Cd	0.07878 0.16079 0.36888 1.16100
O 	O 	0.04924 0.25354 0.20844 -0.30300
O 	O 	0.03398 0.22064 0.12521 -0.31500
C 	C 	0.03654 0.25087 0.14902 0.31800
O 	O 	0.05263 0.13810 0.19658 -0.37700
O 	O 	0.04927 0.12384 0.30717 -0.48500
C 	C 	0.05378 0.11546 0.24332 0.29800
C 	C 	0.11717 0.19246 0.24297 0.32800
O 	O 	0.03715 0.19748 0.34768 -0.43200
O 	O 	0.11203 0.19639 0.17885 -0.27000
O 	O 	0.09183 0.19245 0.28050 -0.55000
C 	C 	0.00731 0.19018 0.33309 0.28600
O 	O 	0.00065 0.18672 0.26928 -0.35400
Cd	Cd	0.01065 0.12859 0.97661 1.23900
Cd	Cd	0.02637 0.06310 0.85586 1.18900
O 	O 	0.97453 0.17105 0.93343 -0.29900
O 	O 	0.99310 0.17442 0.03653 -0.31100
C 	C 	0.97638 0.18817 0.98921 0.30000
O 	O 	0.03535 0.08876 0.03654 -0.36500
O 	O 	0.05995 0.06576 0.94362 -0.45000
C 	C 	0.04950 0.06316 0.00555 0.31900
C 	C 	0.96393 0.07816 0.95592 0.31600
O 	O 	0.03616 0.11929 0.85672 -0.43700
O 	O 	0.95665 0.09673 0.00850 -0.27000
O 	O 	0.98704 0.08915 0.91860 -0.52200
C 	C 	0.06204 0.13422 0.87944 0.32100
O 	O 	0.05938 0.14807 0.93903 -0.34400
C 	C 	0.95202 0.31730 0.90167 0.17200
N 	N 	0.94610 0.31387 0.83470 -0.13400
C 	C 	0.94525 0.34095 0.79589 0.13900
N 	N 	0.94951 0.37149 0.82433 -0.14300
C 	C 	0.95552 0.37501 0.89112 0.14200
N 	N 	0.95655 0.34792 0.92987 -0.13000
C 	C 	0.96523 0.36010 0.19323 0.16400
N 	N 	0.95961 0.35241 0.25823 -0.13500
C 	C 	0.94673 0.37526 0.30159 0.13800
N 	N 	0.94100 0.40637 0.28067 -0.14200
C 	C 	0.94764 0.41456 0.21646 0.13600
N 	N 	0.95919 0.39121 0.17232 -0.12900
Cd	Cd	0.19304 0.99650 0.77233 1.24200
Cd	Cd	0.14214 0.00933 0.91363 1.18100
O 	O 	0.25108 0.00152 0.79444 -0.30100
O 	O 	0.23291 0.98653 0.69438 -0.31800
C 	C 	0.25774 0.99275 0.73294 0.31300
O 	O 	0.14298 0.98174 0.73572 -0.37700
O 	O 	0.11649 0.01386 0.81500 -0.44700
C 	C 	0.11575 0.99164 0.76533 0.28100
C 	C 	0.18841 0.94575 0.86863 0.28600
O 	O 	0.17927 0.04327 0.86176 -0.44000
O 	O 	0.20095 0.93461 0.81229 -0.29300
O 	O 	0.18317 0.97740 0.87195 -0.52600
C 	C 	0.17358 0.06276 0.81203 0.32600
O 	O 	0.18128 0.05104 0.75259 -0.34500
Cd	Cd	0.17860 0.05708 0.49810 1.24400
Cd	Cd	0.12155 0.05753 0.36510 1.16300
O 	O 	0.23531 0.05446 0.46329 -0.30300
O 	O 	0.22200 0.05921 0.56988 -0.32300
C 	C 	0.24491 0.05672 0.52514 0.31800
O 	O 	0.13081 0.06836 0.54916 -0.37100
O 	O 	0.10029 0.04398 0.46502 -0.47300
C 	C 	0.10229 0.06195 0.52118 0.28700
C 	C 	0.17079 0.11553 0.42339 0.29800
O 	O 	0.16109 0.01980 0.39388 -0.44600
O 	O 	0.18627 0.12211 0.47941 -0.27300
O 	O 	0.16428 0.08460 0.41210 -0.55100
C 	C 	0.15815 0.99536 0.43474 0.29500
O 	O 	0.16740 0.00118 0.49655 -0.33400
C 	C 	0.38664 0.00214 0.76551 0.16900
N 	N 	0.38380 0.99985 0.83318 -0.13500
C 	C 	0.41045 0.00124 0.87281 0.13500
N 	N 	0.44001 0.00482 0.84450 -0.14200
C 	C 	0.44301 0.00669 0.77675 0.13700
N 	N 	0.41619 0.00627 0.73738 -0.13400
C 	C 	0.37246 0.02277 0.48074 0.17200
N 	N 	0.37279 0.02393 0.41264 -0.13400
C 	C 	0.40072 0.01881 0.37834 0.14000
N 	N 	0.42840 0.01280 0.41241 -0.14200
C 	C 	0.42822 0.01204 0.48063 0.14100
N 	N 	0.40000 0.01592 0.51458 -0.13200
C 	C 	0.40699 0.00208 0.94679 -0.03100
C 	C 	0.42402 0.97966 0.98726 0.08100
C 	C 	0.42284 0.98360 0.05758 -0.05800
C 	C 	0.40348 0.00815 0.08812 -0.01600
C 	C 	0.38533 0.02964 0.04769 0.10300
C 	C 	0.38753 0.02655 0.97738 -0.07700
N 	N 	0.44056 0.95373 0.95920 -0.19500
H 	H 	0.43636 0.96692 0.08867 0.05700
C 	C 	0.40224 0.01095 0.16262 0.00200
N 	N 	0.36576 0.05319 0.07590 -0.19800
H 	H 	0.37430 0.04352 0.94638 0.06900
C 	C 	0.42258 0.03371 0.19619 -0.08600
C 	C 	0.42127 0.03795 0.26644 0.10700
C 	C 	0.40055 0.01753 0.30403 -0.04400
C 	C 	0.38021 0.99475 0.27040 -0.05000
C 	C 	0.38062 0.99143 0.19997 0.07600
H 	H 	0.43884 0.04887 0.16739 0.06200
N 	N 	0.43906 0.06235 0.29703 -0.19900
H 	H 	0.36419 0.97931 0.29917 0.06600
N 	N 	0.36017 0.96959 0.16869 -0.19400
H 	H 	0.45530 0.07632 0.26929 0.09400
H 	H 	0.43582 0.06883 0.34766 0.10400
H 	H 	0.34445 0.95516 0.19674 0.10200
H 	H 	0.35941 0.96686 0.11647 0.10200
H 	H 	0.35268 0.06909 0.04564 0.10500
H 	H 	0.36303 0.05577 0.12786 0.10100
H 	H 	0.43882 0.94774 0.90802 0.10100
H 	H 	0.45416 0.93817 0.98925 0.08800
C 	C 	0.30209 0.07143 0.54731 0.11200
C 	C 	0.27788 0.04699 0.54272 -0.09700
C 	C 	0.28671 0.01340 0.53558 0.10900
C 	C 	0.31914 0.00486 0.52366 0.08200
C 	C 	0.34245 0.02988 0.51758 -0.05500
C 	C 	0.33449 0.06282 0.53498 0.08600
Br	Br	0.36767 0.09632 0.53730 -0.17900
Br	Br	0.29033 0.11706 0.56369 -0.15500
Br	Br	0.33139 0.95915 0.51076 -0.16500
Br	Br	0.25377 0.97962 0.53313 -0.16200
C 	C 	0.30530 0.02818 0.71176 0.10500
C 	C 	0.29054 0.99676 0.70637 -0.09700
C 	C 	0.30994 0.96856 0.69558 0.11000
C 	C 	0.34362 0.97103 0.70413 0.08600
C 	C 	0.35746 0.00160 0.72350 -0.05400
C 	C 	0.33900 0.03055 0.71891 0.08200
Br	Br	0.35968 0.07313 0.72807 -0.17500
Br	Br	0.27893 0.06735 0.72020 -0.16100
Br	Br	0.37060 0.93249 0.69369 -0.18400
Br	Br	0.29007 0.92618 0.67694 -0.15200
C 	C 	0.94187 0.33722 0.72247 -0.04600
C 	C 	0.96824 0.32683 0.68172 0.10900
C 	C 	0.96605 0.32930 0.61166 -0.08400
C 	C 	0.93866 0.34306 0.58202 -0.00200
C 	C 	0.91159 0.35151 0.62233 0.07600
C 	C 	0.91346 0.34833 0.69225 -0.04800
N 	N 	0.99597 0.31540 0.70944 -0.19900
H 	H 	0.98643 0.32211 0.58039 0.06400
C 	C 	0.94005 0.35192 0.51035 -0.00200
N 	N 	0.88402 0.36321 0.59445 -0.19400
H 	H 	0.89312 0.35572 0.72349 0.05800
C 	C 	0.92772 0.32972 0.46142 -0.08500
C 	C 	0.92747 0.33795 0.39333 0.11000
C 	C 	0.94265 0.36758 0.37333 -0.04700
C 	C 	0.95527 0.38961 0.42235 -0.04900
C 	C 	0.95363 0.38237 0.49077 0.07500
H 	H 	0.91705 0.30659 0.47667 0.06200
N 	N 	0.91137 0.31821 0.34818 -0.19800
H 	H 	0.96668 0.41238 0.40716 0.05600
N 	N 	0.96515 0.40470 0.53726 -0.19400
H 	H 	0.90228 0.29528 0.36232 0.10000
H 	H 	0.90568 0.32639 0.30039 0.11700
H 	H 	0.97544 0.42693 0.52219 0.09100
H 	H 	0.96370 0.40053 0.58864 0.09400
H 	H 	0.86439 0.36999 0.62477 0.09400
H 	H 	0.88156 0.36525 0.54259 0.09500
H 	H 	0.99875 0.31378 0.76127 0.11600
H 	H 	0.01530 0.30800 0.67885 0.10000
C 	C 	0.09409 0.12526 0.85268 -0.11100
C 	C 	0.12109 0.12695 0.89534 -0.05300
C 	C 	0.14877 0.10870 0.87954 0.16100
C 	C 	0.14997 0.08959 0.81961 -0.12100
C 	C 	0.12524 0.09257 0.77193 -0.04500
C 	C 	0.09719 0.11016 0.78842 0.14400
H 	H 	0.11985 0.14055 0.94290 0.07900
O 	O 	0.17453 0.10934 0.92291 -0.26500
H 	H 	0.12677 0.07939 0.72391 0.07500
O 	O 	0.07312 0.11295 0.74157 -0.25400
H 	H 	0.06036 0.09222 0.74398 0.09500
H 	H 	0.16967 0.09234 0.95648 0.13000
C 	C 	0.93989 0.23687 0.98982 0.09900
C 	C 	0.97157 0.22421 0.98834 -0.08900
C 	C 	0.99733 0.24468 0.96846 0.10700
C 	C 	0.99105 0.27669 0.94594 0.08300
C 	C 	0.95904 0.28784 0.94075 -0.05700
C 	C 	0.93361 0.26866 0.96576 0.08900
Br	Br	0.89008 0.28543 0.96426 -0.17700
Br	Br	0.90487 0.20966 0.02049 -0.13500
Br	Br	0.02613 0.30446 0.91733 -0.18600
Br	Br	0.04070 0.22744 0.96408 -0.17900
C 	C 	0.14786 0.18073 0.26918 -0.13800
C 	C 	0.15817 0.19439 0.33108 -0.07800
C 	C 	0.16805 0.17346 0.38195 0.14600
C 	C 	0.17006 0.13917 0.36836 -0.15100
C 	C 	0.16793 0.12736 0.30139 -0.08600
C 	C 	0.15774 0.14854 0.25124 0.16000
H 	H 	0.15353 0.22025 0.34319 0.06400
O 	O 	0.17265 0.18610 0.44584 -0.29800
H 	H 	0.17232 0.10149 0.28897 0.03800
O 	O 	0.15309 0.13640 0.18704 -0.29000
H 	H 	0.17364 0.14078 0.16329 0.16500
H 	H 	0.19585 0.19217 0.44812 0.17600
C 	C 	0.02814 0.30816 0.11093 0.11300
C 	C 	0.01488 0.27712 0.12615 -0.09900
C 	C 	0.98133 0.27463 0.13833 0.10900
C 	C 	0.96260 0.30352 0.14301 0.08200
C 	C 	0.97790 0.33449 0.14608 -0.04900
C 	C 	0.00963 0.33707 0.12142 0.08400
Br	Br	0.02768 0.37982 0.10312 -0.18500
Br	Br	0.07254 0.31112 0.08288 -0.14600
Br	Br	0.91636 0.30090 0.15049 -0.17500
Br	Br	0.96237 0.23300 0.16213 -0.18500
C 	C 	0.45839 0.00485 0.51678 -0.04600
C 	C 	0.47341 0.02941 0.55824 0.10900
C 	C 	0.50716 0.02940 0.56481 -0.08500
C 	C 	0.52573 0.00511 0.53139 -0.00500
C 	C 	0.51015 0.97726 0.50133 0.07300
C 	C 	0.47639 0.97716 0.49547 -0.05100
N 	N 	0.45574 0.05296 0.59149 -0.20000
H 	H 	0.51909 0.04942 0.59243 0.06000
C 	C 	0.55994 0.01249 0.51620 -0.00200
N 	N 	0.52743 0.95126 0.47574 -0.19400
H 	H 	0.46445 0.95696 0.46840 0.06000
C 	C 	0.58439 0.99728 0.55293 -0.09100
C 	C 	0.61704 0.00271 0.53765 0.10800
C 	C 	0.62526 0.02630 0.48899 -0.05000
C 	C 	0.60073 0.04264 0.45460 -0.04900
C 	C 	0.56819 0.03504 0.46572 0.07500
H 	H 	0.57800 0.97990 0.59124 0.05700
N 	N 	0.64012 0.98435 0.56786 -0.20100
H 	H 	0.60705 0.06058 0.41724 0.05700
N 	N 	0.54507 0.04893 0.42692 -0.19400
H 	H 	0.63392 0.96852 0.60647 0.10200
H 	H 	0.66399 0.98416 0.55120 0.11600
H 	H 	0.55137 0.06635 0.39134 0.09200
H 	H 	0.52089 0.04182 0.42977 0.09500
H 	H 	0.51571 0.93126 0.45187 0.09400
H 	H 	0.55248 0.95023 0.48053 0.09400
H 	H 	0.43069 0.05133 0.59457 0.12500
H 	H 	0.46723 0.07198 0.61895 0.10200
C 	C 	0.47508 0.01249 0.74726 -0.04700
C 	C 	0.49131 0.98710 0.71039 0.10400
C 	C 	0.52509 0.98835 0.70453 -0.08600
C 	C 	0.54270 0.01424 0.73547 -0.00500
C 	C 	0.52603 0.04175 0.76410 0.07300
C 	C 	0.49223 0.04083 0.76838 -0.05300
N 	N 	0.47477 0.96142 0.68117 -0.20100
H 	H 	0.53782 0.96801 0.67986 0.05700
C 	C 	0.57769 0.00956 0.74782 -0.00300
N 	N 	0.54230 0.06851 0.78973 -0.19400
H 	H 	0.47947 0.06114 0.79316 0.05700
C 	C 	0.60023 0.02656 0.70899 -0.08900
C 	C 	0.63344 0.02473 0.72310 0.10800
C 	C 	0.64427 0.00380 0.77453 -0.04600
C 	C 	0.62182 0.98482 0.80952 -0.05000
C 	C 	0.58860 0.98846 0.79871 0.07300
H 	H 	0.59179 0.04257 0.66988 0.06000
N 	N 	0.65451 0.04361 0.68823 -0.20000
H 	H 	0.63020 0.96841 0.84801 0.05600
N 	N 	0.56735 0.97236 0.83855 -0.19400
H 	H 	0.64627 0.05819 0.64923 0.10900
H 	H 	0.67902 0.04464 0.70007 0.11800
H 	H 	0.57570 0.95610 0.87458 0.09000
H 	H 	0.54254 0.97657 0.83598 0.09300
H 	H 	0.52975 0.08840 0.81181 0.09200
H 	H 	0.56741 0.07008 0.78751 0.09400
H 	H 	0.44962 0.96047 0.68197 0.11500
H 	H 	0.48708 0.94259 0.65492 0.09700
C 	C 	0.72143 0.01605 0.96005 -0.03100
C 	C 	0.70758 0.04409 0.99303 0.08500
C 	C 	0.70740 0.04620 0.06351 -0.05800
C 	C 	0.72403 0.02288 0.10125 -0.01600
C 	C 	0.74149 0.99723 0.06776 0.10100
C 	C 	0.73915 0.99343 0.99754 -0.07600
N 	N 	0.69566 0.06958 0.95742 -0.19500
H 	H 	0.69485 0.06644 0.08903 0.05900
C 	C 	0.72108 0.02422 0.17570 0.00400
N 	N 	0.76075 0.97650 0.10248 -0.19800
H 	H 	0.75075 0.97254 0.97224 0.06400
C 	C 	0.70344 0.99948 0.20754 -0.08900
C 	C 	0.69894 0.00073 0.27742 0.11300
C 	C 	0.70891 0.02924 0.31497 -0.04600
C 	C 	0.72711 0.05369 0.28345 -0.04700
C 	C 	0.73427 0.05086 0.21453 0.07500
H 	H 	0.69401 0.97867 0.17807 0.06400
N 	N 	0.68649 0.97399 0.30841 -0.20000
H 	H 	0.73565 0.07504 0.31250 0.06200
N 	N 	0.75414 0.07343 0.18631 -0.19400
H 	H 	0.67737 0.95392 0.28010 0.09700
H 	H 	0.68794 0.97177 0.36042 0.10900
H 	H 	0.76282 0.09366 0.21476 0.10000
H 	H 	0.76223 0.07043 0.13690 0.10200
H 	H 	0.77259 0.95689 0.07772 0.10200
H 	H 	0.76524 0.98044 0.15365 0.10000
H 	H 	0.70003 0.07123 0.90599 0.10800
H 	H 	0.68383 0.08929 0.98190 0.09200
C 	C 	0.92918 0.18533 0.46621 -0.12800
C 	C 	0.96021 0.18756 0.49392 -0.05800
C 	C 	0.98673 0.19132 0.45131 0.15300
C 	C 	0.98146 0.19647 0.38243 -0.11500
C 	C 	0.95010 0.20366 0.36033 -0.07300
C 	C 	0.92387 0.19881 0.40300 0.16600
H 	H 	0.96416 0.18100 0.54567 0.07500
O 	O 	0.01745 0.18831 0.47619 -0.29300
H 	H 	0.94589 0.21080 0.30907 0.09100
O 	O 	0.89303 0.20221 0.37915 -0.27800
H 	H 	0.88683 0.22530 0.39132 0.15600
H 	H 	0.02266 0.16441 0.47159 0.08900
C 	C 	0.00676 0.08746 0.57892 -0.11300
C 	C 	0.03112 0.11173 0.58361 -0.06400
C 	C 	0.06358 0.10323 0.57164 0.14100
C 	C 	0.07208 0.06999 0.55832 -0.11700
C 	C 	0.04849 0.04527 0.56580 -0.06500
C 	C 	0.01585 0.05390 0.57496 0.12800
H 	H 	0.02457 0.13757 0.58993 0.06600
O 	O 	0.08660 0.12763 0.56975 -0.25600
H 	H 	0.05500 0.01943 0.55899 0.02700
O 	O 	0.99275 0.02956 0.57534 -0.28400
H 	H 	0.98729 0.02520 0.52745 0.10200
H 	H 	0.08674 0.13504 0.52267 0.07100
C 	C 	0.77337 0.09087 0.60706 0.10900
C 	C 	0.79981 0.07015 0.59126 -0.08700
C 	C 	0.79375 0.03768 0.56569 0.10700
C 	C 	0.76194 0.02768 0.55210 0.08400
C 	C 	0.73749 0.05146 0.55017 -0.05700
C 	C 	0.74223 0.08213 0.58381 0.08400
Br	Br	0.70675 0.11249 0.59481 -0.19400
Br	Br	0.78050 0.13238 0.65448 -0.16600
Br	Br	0.75228 0.98221 0.52853 -0.18300
Br	Br	0.82862 0.01004 0.53388 -0.16100
C 	C 	0.02019 0.96007 0.71290 -0.10600
C 	C 	0.04663 0.94120 0.68987 -0.08100
C 	C 	0.07837 0.95170 0.70380 0.14600
C 	C 	0.08383 0.98301 0.73471 -0.12200
C 	C 	0.05729 0.00427 0.74608 -0.06900
C 	C 	0.02557 0.99267 0.73665 0.14900
H 	H 	0.04257 0.91726 0.66559 0.05900
O 	O 	0.10350 0.93016 0.69299 -0.32200
H 	H 	0.06115 0.02912 0.76626 -0.01900
O 	O 	0.00006 0.01224 0.75631 -0.35800
H 	H 	0.99424 0.02489 0.71613 0.16300
H 	H 	0.11069 0.93392 0.64638 0.16500
C 	C 	0.92788 0.98408 0.89891 -0.15000
C 	C 	0.90773 0.00582 0.93545 -0.04400
C 	C 	0.91990 0.03612 0.95975 0.17900
C 	C 	0.95257 0.04390 0.94912 -0.14000
C 	C 	0.97362 0.01918 0.92520 -0.05100
C 	C 	0.96142 0.98880 0.90232 0.17100
H 	H 	0.88196 0.00121 0.93722 0.06600
O 	O 	0.89928 0.05923 0.98746 -0.28100
H 	H 	0.99926 0.02386 0.92219 -0.03900
O 	O 	0.98199 0.96551 0.87541 -0.35400
H 	H 	0.98829 0.95163 0.91351 0.09600
H 	H 	0.89928 0.05503 0.03628 0.17000
C 	C 	0.78907 0.93922 0.67084 0.11300
C 	C 	0.81766 0.95781 0.67849 -0.08900
C 	C 	0.81578 0.99066 0.70442 0.10900
C 	C 	0.78651 0.00270 0.73123 0.08300
C 	C 	0.75960 0.98156 0.73518 -0.05400
C 	C 	0.76026 0.95042 0.70144 0.08800
Br	Br	0.72257 0.92232 0.70052 -0.18400
Br	Br	0.78993 0.89779 0.62075 -0.16300
Br	Br	0.78332 0.04801 0.76366 -0.17400
Br	Br	0.85327 0.01887 0.70547 -0.15600
C 	C 	0.95671 0.62213 0.25645 -0.04300
C 	C 	0.97550 0.59873 0.29063 0.11100
C 	C 	0.97334 0.56516 0.27166 -0.08400
C 	C 	0.95539 0.55503 0.21501 -0.00200
C 	C 	0.93959 0.57902 0.17619 0.07800
C 	C 	0.93997 0.61235 0.19802 -0.04700
N 	N 	0.99640 0.60847 0.34004 -0.19600
H 	H 	0.98609 0.54689 0.30039 0.06100
C 	C 	0.95179 0.51912 0.19952 -0.00700
N 	N 	0.92407 0.57026 0.11823 -0.19300
H 	H 	0.92657 0.63055 0.17035 0.06700
C 	C 	0.92205 0.50380 0.21192 -0.08600
C 	C 	0.91931 0.46918 0.21008 0.10100
C 	C 	0.94712 0.44962 0.19819 -0.04400
C 	C 	0.97616 0.46489 0.18024 -0.05400
C 	C 	0.97886 0.49952 0.18121 0.07900
H 	H 	0.90113 0.51887 0.22433 0.05900
N 	N 	0.88991 0.45486 0.21850 -0.20000
H 	H 	0.99722 0.44983 0.16909 0.07100
N 	N 	0.00770 0.51376 0.16670 -0.19600
H 	H 	0.86964 0.46939 0.22958 0.09300
H 	H 	0.88663 0.42940 0.21108 0.10100
H 	H 	0.02822 0.49916 0.15865 0.09700
H 	H 	0.00975 0.53923 0.16030 0.09900
H 	H 	0.91158 0.58795 0.09115 0.09900
H 	H 	0.92515 0.54617 0.09832 0.09300
H 	H 	0.00196 0.63342 0.34880 0.10900
H 	H 	0.00892 0.59091 0.36744 0.09500
C 	C 	0.96221 0.40806 0.92077 -0.04500
C 	C 	0.98576 0.42885 0.89238 0.11300
C 	C 	0.98587 0.46272 0.90944 -0.08500
C 	C 	0.96476 0.47561 0.95861 -0.00100
C 	C 	0.94353 0.45403 0.99216 0.06300
C 	C 	0.94234 0.42043 0.97248 -0.04300
N 	N 	0.00870 0.41630 0.85005 -0.20000
H 	H 	0.00254 0.47911 0.88463 0.05900
C 	C 	0.96325 0.51203 0.97017 -0.01000
N 	N 	0.92399 0.46545 0.04242 -0.18500
H 	H 	0.92512 0.40413 0.99596 0.06000
C 	C 	0.93573 0.52914 0.94927 -0.08600
C 	C 	0.93525 0.56385 0.95015 0.09800
C 	C 	0.96351 0.58167 0.96813 -0.04200
C 	C 	0.99020 0.56475 0.99348 -0.07100
C 	C 	0.99040 0.53002 0.99463 0.07100
H 	H 	0.91471 0.51537 0.93184 0.05600
N 	N 	0.90745 0.57993 0.93522 -0.20000
H 	H 	0.01149 0.57853 0.00931 0.08000
N 	N 	0.01695 0.51413 0.01756 -0.18900
H 	H 	0.88701 0.56666 0.91944 0.08900
H 	H 	0.90538 0.60552 0.94251 0.09700
H 	H 	0.03767 0.52748 0.03127 0.09900
H 	H 	0.01676 0.48868 0.02525 0.10300
H 	H 	0.90714 0.44975 0.06426 0.09700
H 	H 	0.92606 0.48955 0.06187 0.09200
H 	H 	0.01161 0.39079 0.84267 0.10900
H 	H 	0.02510 0.43201 0.82686 0.09600
C 	C 	0.96278 0.66638 0.79698 -0.04700
C 	C 	0.98252 0.65412 0.74389 0.10800
C 	C 	0.97507 0.66212 0.67753 -0.08400
C 	C 	0.94896 0.68286 0.66350 -0.00300
C 	C 	0.92967 0.69576 0.71672 0.07300
C 	C 	0.93682 0.68735 0.78305 -0.05100
N 	N 	0.00893 0.63526 0.75630 -0.20000
H 	H 	0.98990 0.65247 0.63664 0.06100
C 	C 	0.94205 0.69065 0.59267 -0.00500
N 	N 	0.90442 0.71626 0.70460 -0.19600
H 	H 	0.92196 0.69696 0.82394 0.06200
C 	C 	0.91855 0.67219 0.55743 -0.08400
C 	C 	0.91502 0.67516 0.48774 0.10800
C 	C 	0.93710 0.69495 0.45223 -0.04500
C 	C 	0.95884 0.71540 0.48819 -0.04900
C 	C 	0.96100 0.71396 0.55842 0.07900
H 	H 	0.90309 0.65537 0.58424 0.05900
N 	N 	0.89002 0.65973 0.45556 -0.19900
H 	H 	0.97495 0.73158 0.46136 0.06700
N 	N 	0.98127 0.73491 0.59258 -0.19400
H 	H 	0.87474 0.64389 0.48142 0.09400
H 	H 	0.88440 0.66480 0.40578 0.10500
H 	H 	0.99590 0.75138 0.56676 0.10000
H 	H 	0.98184 0.73593 0.64500 0.09600
H 	H 	0.89004 0.72524 0.74415 0.09900
H 	H 	0.89913 0.72396 0.65624 0.09800
H 	H 	0.01647 0.63072 0.80519 0.10200
H 	H 	0.02287 0.62567 0.71663 0.09400
C 	C 	0.05226 0.96115 0.02500 -0.08900
C 	C 	0.08140 0.97880 0.02379 -0.10100
C 	C 	0.08152 0.01337 0.03267 0.16400
C 	C 	0.05213 0.03068 0.03784 -0.12300
C 	C 	0.02386 0.01272 0.05111 -0.05900
C 	C 	0.02374 0.97792 0.04401 0.16100
H 	H 	0.10370 0.96597 0.01221 -0.00200
O 	O 	0.11006 0.03044 0.02898 -0.40000
H 	H 	0.00139 0.02573 0.06045 0.05800
O 	O 	0.99537 0.96081 0.05071 -0.29600
H 	H 	0.99434 0.95506 0.09874 0.15900
H 	H 	0.11817 0.03208 0.07579 0.15900
C 	C 	0.01215 0.83375 0.81102 -0.12800
C 	C 	0.98505 0.81313 0.81724 -0.07500
C 	C 	0.96103 0.81352 0.76783 0.16400
C 	C 	0.96265 0.83780 0.71880 -0.12500
C 	C 	0.99356 0.84873 0.70061 -0.05400
C 	C 	0.01859 0.84723 0.74804 0.15100
H 	H 	0.98146 0.79906 0.86218 0.08000
O 	O 	0.93314 0.79583 0.77622 -0.28000
H 	H 	0.99675 0.86310 0.65596 0.06900
O 	O 	0.04865 0.85937 0.73352 -0.28300
H 	H 	0.04969 0.88152 0.75595 0.10300
H 	H 	0.93662 0.77477 0.75061 0.15300
C 	C 	0.15284 0.88155 0.01343 -0.13300
C 	C 	0.15642 0.91503 0.03221 -0.03600
C 	C 	0.17224 0.93652 0.98876 0.08300
C 	C 	0.18375 0.92403 0.92648 -0.12200
C 	C 	0.18730 0.88967 0.91736 -0.08600
C 	C 	0.17303 0.86837 0.96284 0.15300
H 	H 	0.14423 0.92495 0.07648 0.05500
O 	O 	0.17983 0.96808 0.01045 -0.24900
H 	H 	0.19923 0.87946 0.87307 0.07600
O 	O 	0.17411 0.83484 0.95071 -0.28700
H 	H 	0.19285 0.82705 0.97689 0.16500
H 	H 	0.15945 0.98073 0.00839 0.03700
C 	C 	0.04148 0.72542 0.07361 0.11400
C 	C 	0.02558 0.75587 0.06509 -0.10300
C 	C 	0.99248 0.75580 0.04702 0.11100
C 	C 	0.97660 0.72557 0.03432 0.07800
C 	C 	0.99460 0.69633 0.02739 -0.03500
C 	C 	0.02621 0.69560 0.05327 0.08000
Br	Br	0.04902 0.65421 0.05759 -0.17900
Br	Br	0.08500 0.72493 0.10791 -0.14300
Br	Br	0.93056 0.72431 0.02092 -0.16800
Br	Br	0.97066 0.79639 0.02617 -0.19300
C 	C 	0.05234 0.07993 0.22313 -0.12500
C 	C 	0.02261 0.06319 0.22340 -0.06400
C 	C 	0.02162 0.02840 0.22248 0.14300
C 	C 	0.05054 0.01011 0.22232 -0.11800
C 	C 	0.08003 0.02684 0.21491 -0.09300
C 	C 	0.08100 0.06160 0.21510 0.12700
H 	H 	0.00033 0.07708 0.22811 0.03600
O 	O 	0.99253 0.01252 0.22820 -0.31900
H 	H 	0.10243 0.01300 0.21332 0.03400
O 	O 	0.11019 0.07752 0.21238 -0.37600
H 	H 	0.11414 0.08086 0.16393 0.17800
H 	H 	0.98513 0.00819 0.18145 0.15700
C 	C 	0.95336 0.96036 0.35804 -0.12900
C 	C 	0.93742 0.98677 0.32835 -0.06500
C 	C 	0.92361 0.01180 0.36854 0.16400
C 	C 	0.92526 0.01004 0.43898 -0.14900
C 	C 	0.93837 0.98194 0.46824 -0.04800
C 	C 	0.95270 0.95732 0.42818 0.13100
H 	H 	0.93655 0.98838 0.27418 0.07200
O 	O 	0.90890 0.03809 0.33902 -0.35700
H 	H 	0.93837 0.97969 0.52235 0.06800
O 	O 	0.96533 0.92984 0.45744 -0.25300
H 	H 	0.98757 0.93618 0.47115 0.06900
H 	H 	0.88597 0.03143 0.33339 0.17600
C 	C 	0.15069 0.96168 0.40938 -0.10900
C 	C 	0.15186 0.95460 0.33999 -0.06900
C 	C 	0.13402 0.92813 0.31264 0.17400
C 	C 	0.11528 0.90856 0.35522 -0.11800
C 	C 	0.12097 0.91073 0.42462 -0.07000
C 	C 	0.13736 0.93811 0.45220 0.15100
H 	H 	0.16460 0.97097 0.30686 0.06300
O 	O 	0.13394 0.92226 0.24445 -0.26400
H 	H 	0.10886 0.89383 0.45768 0.06000
O 	O 	0.13875 0.94268 0.52061 -0.26000
H 	H 	0.11893 0.95523 0.53279 0.11800
H 	H 	0.11759 0.93756 0.22635 0.14900
C 	C 	0.01052 0.78185 0.22617 0.11000
C 	C 	0.98775 0.80639 0.21069 -0.09400
C 	C 	0.95525 0.79741 0.19996 0.11500
C 	C 	0.94490 0.76506 0.21328 0.08600
C 	C 	0.96697 0.74200 0.23806 -0.05100
C 	C 	0.00012 0.74951 0.23900 0.07900
Br	Br	0.03091 0.71623 0.26375 -0.17300
Br	Br	0.05529 0.79378 0.23904 -0.16600
Br	Br	0.90029 0.75272 0.20107 -0.16400
Br	Br	0.92441 0.83047 0.17449 -0.16500
