data_crystal

_cell_length_a 38.54427
_cell_length_b 38.28556
_cell_length_c 20.58537
_cell_angle_alpha 90.00345
_cell_angle_beta  90.00283
_cell_angle_gamma 119.99798

_symmetry_space_group_name_	'P 1'
_symmetry_space_group_name_H-M	'P 1'

loop_
_symmetry_equiv_pos_as_xyz
  x,y,z

loop_
_atom_site_label
_atom_site_type_symbol
_atom_site_fract_x
_atom_site_fract_y
_atom_site_fract_z
_atom_site_charge
Zn	Zn	0.48365 0.24610 0.05084 1.21100
Zn	Zn	0.41879 0.15591 0.04859 1.22400
Zn	Zn	0.41633 0.26440 0.01788 1.23100
P 	P 	0.41810 0.21856 0.13584 0.32200
P 	P 	0.42751 0.20819 0.93941 0.32000
C 	C 	0.34977 0.27562 0.02850 0.29900
C 	C 	0.50163 0.32526 0.02511 0.32800
C 	C 	0.50675 0.18768 0.05101 0.31400
O 	O 	0.46169 0.22455 0.13493 -0.37400
O 	O 	0.47091 0.24352 0.95867 -0.42300
O 	O 	0.39005 0.18007 0.09188 -0.38500
O 	O 	0.39380 0.21279 0.97664 -0.37700
O 	O 	0.41878 0.25841 0.11013 -0.31900
O 	O 	0.42418 0.16591 0.95561 -0.31200
O 	O 	0.38693 0.29259 0.00803 -0.31400
O 	O 	0.34085 0.09903 0.99484 -0.11300
O 	O 	0.33241 0.23898 0.05262 -0.13600
O 	O 	0.47001 0.30918 0.98662 -0.34300
O 	O 	0.47259 0.16601 0.08275 -0.33800
O 	O 	0.50520 0.30294 0.06991 -0.35900
O 	O 	0.52065 0.22630 0.04126 -0.37300
C 	C 	0.35706 0.07870 0.01870 0.28000
O 	O 	0.39070 0.09787 0.05142 -0.30300
Zn	Zn	0.48577 0.24235 0.51563 1.21300
Zn	Zn	0.41780 0.15527 0.54554 1.22700
Zn	Zn	0.42004 0.26664 0.52142 1.22800
P 	P 	0.43468 0.22504 0.62934 0.31800
P 	P 	0.41396 0.20233 0.43574 0.31900
C 	C 	0.35433 0.27895 0.53768 0.28700
C 	C 	0.50669 0.32416 0.50262 0.30700
C 	C 	0.50246 0.17842 0.52310 0.30600
O 	O 	0.47621 0.22971 0.60761 -0.35700
O 	O 	0.45889 0.23829 0.43375 -0.39600
O 	O 	0.39893 0.18549 0.59652 -0.38600
O 	O 	0.38935 0.21227 0.48744 -0.38000
O 	O 	0.43253 0.26461 0.61128 -0.34200
O 	O 	0.41345 0.16133 0.45271 -0.33500
O 	O 	0.39219 0.29690 0.52048 -0.31100
O 	O 	0.33015 0.09741 0.54542 -0.12100
O 	O 	0.33723 0.24247 0.56240 -0.15200
O 	O 	0.47071 0.30841 0.47592 -0.33300
O 	O 	0.47273 0.16348 0.56548 -0.33800
O 	O 	0.51982 0.30052 0.52392 -0.35700
O 	O 	0.51174 0.21180 0.49154 -0.37800
C 	C 	0.34950 0.07766 0.55403 0.29300
O 	O 	0.38873 0.09752 0.55779 -0.31800
Zn	Zn	0.23262 0.73770 0.00121 1.20700
Zn	Zn	0.25401 0.82611 0.97576 1.24500
Zn	Zn	0.14473 0.71822 0.00996 1.23500
P 	P 	0.19530 0.75873 0.89641 0.32200
P 	P 	0.20980 0.77970 0.09151 0.32500
C 	C 	0.06813 0.70918 0.99311 0.29700
C 	C 	0.17051 0.65705 0.01885 0.29200
C 	C 	0.31349 0.79977 0.98373 0.30000
O 	O 	0.23150 0.75125 0.91007 -0.38200
O 	O 	0.21481 0.74120 0.08871 -0.37700
O 	O 	0.20175 0.79771 0.93478 -0.33500
O 	O 	0.17275 0.77233 0.04722 -0.34000
O 	O 	0.15448 0.71962 0.91792 -0.38400
O 	O 	0.25065 0.81771 0.06764 -0.39700
O 	O 	0.08685 0.69084 0.01505 -0.30000
O 	O 	0.24769 0.88764 0.05368 -0.12000
O 	O 	0.08884 0.74570 0.96898 -0.12500
O 	O 	0.15256 0.67406 0.04958 -0.31600
O 	O 	0.29750 0.81550 0.94505 -0.30900
O 	O 	0.20564 0.67948 0.99133 -0.37100
O 	O 	0.29034 0.76646 0.01629 -0.38700
C 	C 	0.27376 0.90561 0.00680 0.27700
O 	O 	0.28254 0.88418 0.96732 -0.28500
Zn	Zn	0.23853 0.73968 0.48400 1.21000
Zn	Zn	0.14882 0.71556 0.48730 1.23900
Zn	Zn	0.25764 0.82878 0.49517 1.23800
P 	P 	0.20566 0.76614 0.58869 0.31800
P 	P 	0.20590 0.77336 0.39268 0.31700
C 	C 	0.26742 0.90460 0.53105 0.29200
C 	C 	0.31876 0.80320 0.49498 0.30000
C 	C 	0.17750 0.65809 0.47018 0.29600
O 	O 	0.21528 0.73148 0.57149 -0.36400
O 	O 	0.24312 0.76682 0.40104 -0.36100
O 	O 	0.17069 0.76284 0.54293 -0.37300
O 	O 	0.20839 0.80548 0.44460 -0.35700
O 	O 	0.24594 0.80892 0.58266 -0.38800
O 	O 	0.16553 0.73076 0.39909 -0.37700
O 	O 	0.28568 0.88696 0.50455 -0.28900
O 	O 	0.08765 0.73390 0.43051 -0.13100
O 	O 	0.23120 0.88260 0.55490 -0.15800
O 	O 	0.30506 0.82405 0.46373 -0.30300
O 	O 	0.15821 0.66961 0.50981 -0.30100
O 	O 	0.29448 0.76517 0.50974 -0.37500
O 	O 	0.21410 0.68437 0.45170 -0.37500
C 	C 	0.07011 0.69656 0.45165 0.28300
O 	O 	0.09131 0.68335 0.48185 -0.29400
Zn	Zn	0.73094 0.49082 0.96245 1.22000
Zn	Zn	0.81916 0.55729 0.96864 1.22900
Zn	Zn	0.70900 0.55622 0.98385 1.23300
P 	P 	0.75945 0.55531 0.87501 0.31700
P 	P 	0.76458 0.54943 0.07207 0.32000
C 	C 	0.66443 0.58971 0.03763 0.28300
C 	C 	0.65088 0.46958 0.98099 0.31200
C 	C 	0.78943 0.46902 0.97208 0.29800
O 	O 	0.75557 0.51232 0.87865 -0.38900
O 	O 	0.73067 0.50504 0.05367 -0.37200
O 	O 	0.79398 0.58424 0.92408 -0.37100
O 	O 	0.75897 0.58157 0.03101 -0.36200
O 	O 	0.71685 0.55055 0.89253 -0.33300
O 	O 	0.80765 0.55401 0.06033 -0.30200
O 	O 	0.68053 0.58554 0.98415 -0.32100
O 	O 	0.87666 0.64443 0.98107 -0.11800
O 	O 	0.66118 0.56790 0.08893 -0.12500
O 	O 	0.66439 0.50258 0.01651 -0.37800
O 	O 	0.81098 0.50282 0.93898 -0.36500
O 	O 	0.67465 0.46644 0.93890 -0.34600
O 	O 	0.75096 0.45477 0.97970 -0.30700
C 	C 	0.89639 0.62518 0.97117 0.29300
O 	O 	0.87676 0.58583 0.96489 -0.31500
Zn	Zn	0.72841 0.48625 0.48956 1.21300
Zn	Zn	0.81608 0.55102 0.45698 1.22900
Zn	Zn	0.70996 0.55629 0.49597 1.22600
P 	P 	0.74716 0.54200 0.38100 0.32000
P 	P 	0.77319 0.55453 0.57483 0.31900
C 	C 	0.65841 0.58469 0.54437 0.28600
C 	C 	0.64886 0.46915 0.50984 0.31800
C 	C 	0.78773 0.46436 0.47145 0.31900
O 	O 	0.73957 0.49829 0.39727 -0.37600
O 	O 	0.73504 0.51073 0.57517 -0.37600
O 	O 	0.78798 0.57506 0.41444 -0.39900
O 	O 	0.76459 0.58296 0.52894 -0.39400
O 	O 	0.70986 0.54617 0.40442 -0.31700
O 	O 	0.81121 0.55168 0.55073 -0.29900
O 	O 	0.68351 0.58812 0.49831 -0.31400
O 	O 	0.88444 0.63483 0.48593 -0.12100
O 	O 	0.65536 0.56416 0.59724 -0.12400
O 	O 	0.66658 0.50481 0.53883 -0.34300
O 	O 	0.80236 0.49479 0.43004 -0.37600
O 	O 	0.67042 0.45524 0.48292 -0.35700
O 	O 	0.75589 0.45605 0.50608 -0.35100
C 	C 	0.89826 0.61256 0.46128 0.29700
O 	O 	0.87325 0.57589 0.44077 -0.32000
Zn	Zn	0.46947 0.73653 0.01522 1.20900
Zn	Zn	0.53309 0.71001 0.01982 1.23900
Zn	Zn	0.54094 0.82502 0.01364 1.22400
P 	P 	0.53102 0.76305 0.91711 0.31900
P 	P 	0.53297 0.76687 0.11441 0.31500
C 	C 	0.59840 0.90297 0.96537 0.30200
C 	C 	0.45572 0.80234 0.01223 0.30300
C 	C 	0.44552 0.65433 0.02952 0.28200
O 	O 	0.48630 0.72854 0.92980 -0.35900
O 	O 	0.48947 0.75986 0.10063 -0.39800
O 	O 	0.56042 0.75821 0.96619 -0.35300
O 	O 	0.56475 0.80035 0.06621 -0.37100
O 	O 	0.53370 0.80604 0.92463 -0.36900
O 	O 	0.53214 0.72478 0.10897 -0.34100
O 	O 	0.56973 0.88348 0.00806 -0.35000
O 	O 	0.61871 0.73317 0.03809 -0.11800
O 	O 	0.61207 0.88347 0.93118 -0.13100
O 	O 	0.48938 0.82047 0.04577 -0.35300
O 	O 	0.47782 0.66500 0.99404 -0.28600
O 	O 	0.44283 0.76605 0.98861 -0.37000
O 	O 	0.43522 0.68131 0.04406 -0.37800
C 	C 	0.59688 0.69400 0.02984 0.29200
O 	O 	0.55791 0.67709 0.02373 -0.26800
Zn	Zn	0.47039 0.73551 0.52389 1.21300
Zn	Zn	0.53551 0.71305 0.49257 1.22800
Zn	Zn	0.54031 0.82353 0.53891 1.23700
P 	P 	0.52918 0.77616 0.42014 0.31900
P 	P 	0.53554 0.75571 0.61321 0.32200
C 	C 	0.60878 0.90000 0.53096 0.30200
C 	C 	0.45443 0.79887 0.54632 0.30700
C 	C 	0.44948 0.65459 0.49886 0.31500
O 	O 	0.48520 0.73989 0.43235 -0.38200
O 	O 	0.49225 0.75073 0.61136 -0.37600
O 	O 	0.56100 0.76646 0.45335 -0.39600
O 	O 	0.56548 0.79391 0.57094 -0.34500
O 	O 	0.53335 0.81728 0.44672 -0.34500
O 	O 	0.53287 0.71532 0.58605 -0.33800
O 	O 	0.57097 0.88125 0.54817 -0.29400
O 	O 	0.61589 0.72677 0.53551 -0.12000
O 	O 	0.62559 0.87902 0.51289 -0.13000
O 	O 	0.48854 0.81483 0.57897 -0.32700
O 	O 	0.48085 0.67174 0.45986 -0.38800
O 	O 	0.44018 0.76347 0.51836 -0.35400
O 	O 	0.44001 0.67702 0.53466 -0.35300
C 	C 	0.59383 0.69014 0.51236 0.28900
O 	O 	0.56066 0.68067 0.48080 -0.34500
Zn	Zn	0.72039 0.24750 0.97173 1.21700
Zn	Zn	0.80593 0.26099 0.99762 1.23400
Zn	Zn	0.69420 0.15581 0.95181 1.22800
P 	P 	0.73561 0.20095 0.07055 0.32300
P 	P 	0.75939 0.22260 0.87712 0.31800
C 	C 	0.68037 0.07617 0.94557 0.28200
C 	C 	0.63868 0.18823 0.95635 0.30800
C 	C 	0.78606 0.32585 0.99620 0.33800
O 	O 	0.73131 0.23980 0.06155 -0.38300
O 	O 	0.72362 0.23158 0.88338 -0.36500
O 	O 	0.77497 0.20730 0.03410 -0.39900
O 	O 	0.74802 0.18186 0.91507 -0.39300
O 	O 	0.69658 0.16145 0.04482 -0.32100
O 	O 	0.80008 0.25975 0.90427 -0.30300
O 	O 	0.66283 0.09789 0.93947 -0.32500
O 	O 	0.86523 0.23508 0.96437 -0.12900
O 	O 	0.71949 0.09414 0.95126 -0.13200
O 	O 	0.65325 0.17032 0.91921 -0.34700
O 	O 	0.79796 0.30571 0.03340 -0.37600
O 	O 	0.66268 0.22411 0.98091 -0.33900
O 	O 	0.75302 0.30623 0.96189 -0.34300
C 	C 	0.88393 0.27160 0.98902 0.29500
O 	O 	0.86328 0.28791 0.01085 -0.32600
Zn	Zn	0.72237 0.23661 0.47702 1.21200
Zn	Zn	0.81104 0.25744 0.47576 1.22900
Zn	Zn	0.70097 0.14744 0.47358 1.22800
P 	P 	0.75322 0.20347 0.57355 0.31700
P 	P 	0.75346 0.20656 0.37593 0.31800
C 	C 	0.69262 0.07086 0.48587 0.29400
C 	C 	0.64137 0.17443 0.47962 0.30800
C 	C 	0.78462 0.31765 0.47461 0.31700
O 	O 	0.74518 0.23976 0.56243 -0.41400
O 	O 	0.71795 0.21503 0.39032 -0.38500
O 	O 	0.78745 0.20752 0.52525 -0.37200
O 	O 	0.74965 0.17130 0.42200 -0.35900
O 	O 	0.71220 0.16191 0.56419 -0.34300
O 	O 	0.79539 0.24733 0.38517 -0.30200
O 	O 	0.67241 0.08954 0.47579 -0.31500
O 	O 	0.87002 0.22884 0.47025 -0.11200
O 	O 	0.73168 0.09178 0.49273 -0.11400
O 	O 	0.65480 0.15468 0.44474 -0.34400
O 	O 	0.80364 0.30310 0.50854 -0.38100
O 	O 	0.66635 0.21052 0.50234 -0.38100
O 	O 	0.74808 0.29336 0.45376 -0.35700
C 	C 	0.88908 0.26840 0.47194 0.29300
O 	O 	0.86878 0.28750 0.47390 -0.32100
Zn	Zn	0.22215 0.48676 0.01524 1.20900
Zn	Zn	0.24558 0.42154 0.00522 1.23500
Zn	Zn	0.13554 0.42036 0.98930 1.22700
P 	P 	0.18415 0.41599 0.09733 0.31900
P 	P 	0.20138 0.43461 0.90102 0.31800
C 	C 	0.05619 0.35557 0.00536 0.29500
C 	C 	0.16129 0.50719 0.00724 0.29800
C 	C 	0.30313 0.50874 0.02877 0.29900
O 	O 	0.22044 0.46086 0.09835 -0.35300
O 	O 	0.20791 0.47711 0.92321 -0.38800
O 	O 	0.19271 0.39054 0.04475 -0.35100
O 	O 	0.16363 0.39962 0.93826 -0.36700
O 	O 	0.14407 0.41715 0.08110 -0.37200
O 	O 	0.24160 0.43346 0.91509 -0.32600
O 	O 	0.07786 0.39179 0.98050 -0.33100
O 	O 	0.22147 0.33622 0.97375 -0.08300
O 	O 	0.07383 0.33709 0.03102 -0.13600
O 	O 	0.14394 0.47578 0.96775 -0.33700
O 	O 	0.28776 0.47172 0.05160 -0.31800
O 	O 	0.19300 0.51396 0.04092 -0.36400
O 	O 	0.27963 0.52085 0.00382 -0.36200
C 	C 	0.25990 0.35657 0.98709 0.30700
O 	O 	0.27685 0.39496 0.00196 -0.30900
Zn	Zn	0.22676 0.48863 0.47410 1.21300
Zn	Zn	0.24520 0.42180 0.50999 1.22600
Zn	Zn	0.13791 0.42395 0.47889 1.23800
P 	P 	0.19187 0.43919 0.58965 0.32000
P 	P 	0.19589 0.41640 0.39555 0.32200
C 	C 	0.06001 0.36025 0.50371 0.30200
C 	C 	0.16826 0.51086 0.45273 0.30600
C 	C 	0.30699 0.50695 0.48710 0.31200
O 	O 	0.22892 0.48073 0.56743 -0.37800
O 	O 	0.20485 0.46144 0.39127 -0.35600
O 	O 	0.19548 0.40293 0.55821 -0.38900
O 	O 	0.16086 0.39219 0.44677 -0.35600
O 	O 	0.15105 0.43742 0.56893 -0.32500
O 	O 	0.23607 0.41676 0.41676 -0.36300
O 	O 	0.08023 0.39654 0.47866 -0.30100
O 	O 	0.22702 0.33909 0.47067 -0.15200
O 	O 	0.07922 0.34317 0.52867 -0.11900
O 	O 	0.14733 0.47386 0.42941 -0.31600
O 	O 	0.29145 0.47749 0.53034 -0.38100
O 	O 	0.20349 0.52323 0.47907 -0.34600
O 	O 	0.28333 0.51487 0.45196 -0.34200
C 	C 	0.26028 0.35658 0.50467 0.29400
O 	O 	0.27400 0.39336 0.52666 -0.32300
C 	C 	0.17844 0.45385 0.78533 0.04400
C 	C 	0.19140 0.42935 0.81438 0.06300
C 	C 	0.20029 0.40452 0.77464 -0.07800
C 	C 	0.20311 0.41052 0.70696 0.05400
C 	C 	0.19242 0.43690 0.67775 0.05900
C 	C 	0.18079 0.45980 0.71767 -0.06600
C 	C 	0.16906 0.48925 0.68936 0.78100
H 	H 	0.16752 0.46931 0.81587 0.14000
H 	H 	0.21310 0.39406 0.67678 0.11900
C 	C 	0.20679 0.37161 0.80299 0.78600
F 	F 	0.16990 0.51546 0.73649 -0.35200
F 	F 	0.13051 0.46820 0.66504 -0.37300
F 	F 	0.19515 0.51278 0.64102 -0.41000
F 	F 	0.18192 0.35314 0.85554 -0.39100
F 	F 	0.24628 0.38798 0.82182 -0.36500
F 	F 	0.19852 0.34189 0.75730 -0.34700
C 	C 	0.14557 0.38995 0.21611 0.05900
C 	C 	0.17795 0.39476 0.17829 0.07700
C 	C 	0.20861 0.39050 0.20853 -0.08000
C 	C 	0.21227 0.39363 0.27660 0.06500
C 	C 	0.18257 0.39471 0.31458 0.07100
C 	C 	0.14642 0.38705 0.28414 -0.07900
C 	C 	0.10845 0.37394 0.32272 0.78000
H 	H 	0.12016 0.38951 0.19286 0.14200
H 	H 	0.23874 0.39635 0.29975 0.13100
C 	C 	0.23497 0.37921 0.16990 0.78100
F 	F 	0.07503 0.35713 0.28284 -0.36600
F 	F 	0.11051 0.40691 0.35342 -0.45700
F 	F 	0.10323 0.34503 0.36799 -0.42000
F 	F 	0.26401 0.41261 0.13765 -0.44200
F 	F 	0.21220 0.34914 0.12573 -0.42700
F 	F 	0.25385 0.36476 0.20997 -0.38200
C 	C 	0.94906 0.30183 0.54205 0.06300
C 	C 	0.93281 0.29106 0.47947 0.03700
C 	C 	0.95834 0.30323 0.42466 -0.05000
C 	C 	0.00001 0.32614 0.43385 0.05300
C 	C 	0.01627 0.33697 0.49640 0.03600
C 	C 	0.99068 0.32569 0.55114 -0.04900
C 	C 	0.00767 0.33845 0.61919 0.76200
H 	H 	0.92911 0.29185 0.58358 0.11800
H 	H 	0.01999 0.33558 0.39239 0.15400
C 	C 	0.94111 0.29288 0.35648 0.77800
F 	F 	0.97791 0.33044 0.66424 -0.35100
F 	F 	0.03466 0.37946 0.62081 -0.37400
F 	F 	0.02695 0.31774 0.63740 -0.37600
F 	F 	0.91857 0.31118 0.34477 -0.35300
F 	F 	0.91702 0.25155 0.35025 -0.35000
F 	F 	0.97083 0.30588 0.30971 -0.33600
C 	C 	0.94655 0.30352 0.05366 0.04100
C 	C 	0.92802 0.29421 0.99255 0.06200
C 	C 	0.95170 0.30708 0.93546 -0.08200
C 	C 	0.99363 0.32609 0.94091 0.11300
C 	C 	0.01216 0.33515 0.00200 -0.00800
C 	C 	0.98858 0.32539 0.05908 -0.03100
C 	C 	0.00800 0.33724 0.12575 0.76000
H 	H 	0.92812 0.29362 0.09700 0.13300
H 	H 	0.01201 0.33390 0.89759 0.10800
C 	C 	0.93240 0.30013 0.86882 0.78400
F 	F 	0.98057 0.33295 0.17300 -0.34100
F 	F 	0.03831 0.37716 0.12590 -0.39600
F 	F 	0.02377 0.31296 0.14203 -0.36800
F 	F 	0.90423 0.31244 0.86844 -0.35300
F 	F 	0.91396 0.25959 0.85342 -0.37800
F 	F 	0.96036 0.32162 0.82110 -0.35300
C 	C 	0.75176 0.17896 0.76475 0.05500
C 	C 	0.76635 0.21771 0.79103 0.06400
C 	C 	0.78554 0.25200 0.74921 -0.07800
C 	C 	0.79073 0.24610 0.68344 0.05400
C 	C 	0.77033 0.20766 0.65630 0.05600
C 	C 	0.75522 0.17372 0.69783 -0.08200
C 	C 	0.74498 0.13245 0.67265 0.78300
H 	H 	0.73768 0.15283 0.79629 0.09600
H 	H 	0.80710 0.27183 0.65170 0.10000
C 	C 	0.80090 0.29476 0.77338 0.79100
F 	F 	0.75459 0.11224 0.71862 -0.38500
F 	F 	0.76623 0.13541 0.61677 -0.40400
F 	F 	0.70438 0.10998 0.66002 -0.41500
F 	F 	0.83643 0.30778 0.80650 -0.33700
F 	F 	0.77314 0.29700 0.81298 -0.38900
F 	F 	0.80835 0.32113 0.72226 -0.37300
C 	C 	0.77683 0.20590 0.18400 0.06300
C 	C 	0.73914 0.19454 0.15717 0.06000
C 	C 	0.70487 0.17865 0.19867 -0.05800
C 	C 	0.70963 0.17329 0.26489 0.05300
C 	C 	0.74776 0.19028 0.29232 0.07500
C 	C 	0.78122 0.20222 0.25109 -0.08000
C 	C 	0.82135 0.21023 0.27707 0.78800
H 	H 	0.80289 0.21780 0.15270 0.09500
H 	H 	0.68368 0.15919 0.29646 0.13600
C 	C 	0.66327 0.16707 0.17371 0.78000
F 	F 	0.84045 0.19897 0.23172 -0.36900
F 	F 	0.81700 0.18855 0.33323 -0.38200
F 	F 	0.84529 0.25095 0.28946 -0.36200
F 	F 	0.64691 0.13052 0.14165 -0.36600
F 	F 	0.66451 0.19630 0.13289 -0.41900
F 	F 	0.63780 0.16287 0.22431 -0.33900
C 	C 	0.36921 0.55119 0.54855 0.06800
C 	C 	0.35027 0.53645 0.48847 0.02300
C 	C 	0.37114 0.55520 0.43053 -0.07400
C 	C 	0.40560 0.59352 0.43422 0.07100
C 	C 	0.42149 0.61088 0.49479 0.01700
C 	C 	0.40599 0.58746 0.55180 -0.07300
C 	C 	0.42727 0.60190 0.61655 0.78100
H 	H 	0.35429 0.53572 0.59292 0.11600
H 	H 	0.41882 0.61059 0.39018 0.11100
C 	C 	0.35582 0.53573 0.36470 0.78400
F 	F 	0.41756 0.56960 0.65746 -0.37000
F 	F 	0.41590 0.62713 0.64585 -0.39300
F 	F 	0.46842 0.62248 0.60819 -0.40200
F 	F 	0.32947 0.54708 0.34044 -0.36400
F 	F 	0.33653 0.49410 0.36929 -0.40000
F 	F 	0.38725 0.54781 0.32137 -0.37600
C 	C 	0.63147 0.95831 0.45739 0.06400
C 	C 	0.62990 0.94372 0.52037 0.03600
C 	C 	0.64911 0.97091 0.57220 -0.05500
C 	C 	0.66959 0.01257 0.55967 0.05600
C 	C 	0.67129 0.02715 0.49663 0.03900
C 	C 	0.65270 0.99992 0.44458 -0.05900
C 	C 	0.65483 0.01522 0.37574 0.77300
H 	H 	0.61614 0.93706 0.41839 0.12100
H 	H 	0.68412 0.03385 0.59893 0.14500
C 	C 	0.64744 0.95549 0.64075 0.78400
F 	F 	0.63963 0.98409 0.33090 -0.36400
F 	F 	0.69422 0.04190 0.35908 -0.38100
F 	F 	0.63285 0.03469 0.37167 -0.37300
F 	F 	0.66328 0.93009 0.64159 -0.34600
F 	F 	0.60808 0.93453 0.66158 -0.33800
F 	F 	0.66901 0.98658 0.68417 -0.35700
C 	C 	0.38967 0.60284 0.09623 0.06600
C 	C 	0.41789 0.61137 0.04667 0.03400
C 	C 	0.41331 0.57931 0.00630 -0.07600
C 	C 	0.37530 0.54454 0.00171 0.06000
C 	C 	0.34467 0.53887 0.04453 0.03500
C 	C 	0.35332 0.56604 0.09666 -0.06900
C 	C 	0.32287 0.55719 0.15002 0.78400
H 	H 	0.39484 0.62595 0.13156 0.11400
H 	H 	0.36944 0.52224 0.96444 0.12200
C 	C 	0.44891 0.57994 0.97398 0.80100
F 	F 	0.34050 0.58158 0.20364 -0.36500
F 	F 	0.30604 0.51750 0.17006 -0.36900
F 	F 	0.29299 0.56393 0.12716 -0.40700
F 	F 	0.48237 0.59884 0.01347 -0.38700
F 	F 	0.45663 0.59981 0.91520 -0.33400
F 	F 	0.44140 0.54112 0.96257 -0.36000
C 	C 	0.63315 0.97082 0.01590 0.07100
C 	C 	0.61731 0.94724 0.95987 0.03700
C 	C 	0.61866 0.96607 0.89982 -0.05800
C 	C 	0.63961 0.00849 0.89614 0.05500
C 	C 	0.65609 0.03200 0.95200 0.05300
C 	C 	0.65120 0.01307 0.01306 -0.08500
C 	C 	0.66639 0.03787 0.07488 0.78300
H 	H 	0.63162 0.95614 0.06170 0.11900
H 	H 	0.64360 0.02331 0.84963 0.12800
C 	C 	0.59928 0.94129 0.83916 0.78200
F 	F 	0.65166 0.01399 0.12979 -0.36600
F 	F 	0.65435 0.06636 0.07719 -0.38200
F 	F 	0.70776 0.05719 0.07647 -0.38600
F 	F 	0.56142 0.90952 0.85302 -0.39200
F 	F 	0.62277 0.92635 0.81515 -0.34500
F 	F 	0.59521 0.96438 0.79125 -0.35400
C 	C 	0.56787 0.79603 0.79958 0.06400
C 	C 	0.54554 0.76006 0.83441 0.07000
C 	C 	0.53103 0.72272 0.80164 -0.07800
C 	C 	0.53136 0.72238 0.73353 0.06700
C 	C 	0.54931 0.75842 0.69803 0.08300
C 	C 	0.57161 0.79553 0.73162 -0.08400
C 	C 	0.60035 0.83408 0.69662 0.79500
H 	H 	0.58144 0.82453 0.82524 0.13400
H 	H 	0.51570 0.69386 0.70794 0.15700
C 	C 	0.51370 0.68304 0.83764 0.80500
F 	F 	0.62603 0.86347 0.73966 -0.33900
F 	F 	0.57890 0.84866 0.66410 -0.42200
F 	F 	0.62379 0.82715 0.65353 -0.37700
F 	F 	0.47346 0.66851 0.84917 -0.37600
F 	F 	0.53355 0.68751 0.89546 -0.42800
F 	F 	0.51753 0.65476 0.80114 -0.32500
C 	C 	0.52411 0.80104 0.22615 0.04200
C 	C 	0.54538 0.78453 0.19705 0.06200
C 	C 	0.56888 0.77405 0.23639 -0.08900
C 	C 	0.56246 0.77059 0.30385 0.05400
C 	C 	0.53671 0.78200 0.33302 0.04900
C 	C 	0.51736 0.79795 0.29356 -0.06900
C 	C 	0.49105 0.81341 0.32227 0.78200
H 	H 	0.51041 0.81382 0.19555 0.13400
H 	H 	0.57777 0.75919 0.33370 0.09500
C 	C 	0.60155 0.76758 0.20788 0.78500
F 	F 	0.46915 0.81922 0.27450 -0.34700
F 	F 	0.51480 0.85011 0.35239 -0.39700
F 	F 	0.46370 0.78627 0.36602 -0.41900
F 	F 	0.61707 0.78963 0.15149 -0.40300
F 	F 	0.58638 0.72708 0.19490 -0.41400
F 	F 	0.63286 0.77991 0.25155 -0.38800
C 	C 	0.80102 0.41625 0.41124 0.07000
C 	C 	0.80205 0.43523 0.47002 0.02200
C 	C 	0.81009 0.42113 0.52850 -0.06700
C 	C 	0.80758 0.38324 0.52902 0.06800
C 	C 	0.80075 0.36144 0.47119 0.02200
C 	C 	0.80219 0.38016 0.41119 -0.07000
C 	C 	0.80205 0.36043 0.34725 0.77900
H 	H 	0.79682 0.42819 0.36601 0.12200
H 	H 	0.80841 0.36964 0.57478 0.12700
C 	C 	0.81874 0.44496 0.59105 0.78000
F 	F 	0.81905 0.38896 0.29843 -0.37200
F 	F 	0.76307 0.33286 0.33002 -0.39400
F 	F 	0.82393 0.34084 0.35231 -0.39800
F 	F 	0.78310 0.43591 0.62095 -0.38500
F 	F 	0.84055 0.48593 0.57870 -0.36300
F 	F 	0.84090 0.43557 0.63316 -0.35200
C 	C 	0.63419 0.62828 0.59195 0.06200
C 	C 	0.63577 0.60632 0.53857 0.04500
C 	C 	0.61770 0.60728 0.47905 -0.07500
C 	C 	0.60535 0.63590 0.47085 0.07000
C 	C 	0.60554 0.65929 0.52341 0.03400
C 	C 	0.61661 0.65267 0.58601 -0.06300
C 	C 	0.61027 0.67169 0.64633 0.78000
H 	H 	0.64714 0.62679 0.63789 0.14000
H 	H 	0.59563 0.64003 0.42348 0.11800
C 	C 	0.61202 0.57855 0.42385 0.78600
F 	F 	0.61015 0.65121 0.70186 -0.34600
F 	F 	0.57386 0.67058 0.64353 -0.38500
F 	F 	0.64085 0.71127 0.65157 -0.37100
F 	F 	0.60248 0.54092 0.44743 -0.39800
F 	F 	0.64681 0.59406 0.38758 -0.37100
F 	F 	0.58111 0.57341 0.38338 -0.37000
C 	C 	0.79346 0.38525 0.05575 0.08500
C 	C 	0.80475 0.36991 0.00317 0.00700
C 	C 	0.82562 0.39585 0.95057 -0.05600
C 	C 	0.82445 0.43173 0.94300 0.06700
C 	C 	0.80656 0.44360 0.99069 0.04600
C 	C 	0.79650 0.42331 0.05125 -0.08200
C 	C 	0.78650 0.44070 0.10965 0.78100
H 	H 	0.77992 0.36658 0.09826 0.11800
H 	H 	0.83540 0.44905 0.89853 0.13100
C 	C 	0.84861 0.38575 0.90185 0.78600
F 	F 	0.79614 0.42823 0.16659 -0.37400
F 	F 	0.74599 0.42772 0.11001 -0.37300
F 	F 	0.80793 0.48241 0.10830 -0.41600
F 	F 	0.85469 0.35495 0.92315 -0.38700
F 	F 	0.88576 0.41941 0.89111 -0.35700
F 	F 	0.82779 0.37476 0.84393 -0.34200
C 	C 	0.63823 0.66983 0.08438 0.06500
C 	C 	0.61592 0.66891 0.02998 0.04200
C 	C 	0.61095 0.64308 0.97723 -0.05600
C 	C 	0.62394 0.61496 0.98386 0.07900
C 	C 	0.64688 0.61621 0.03760 0.03500
C 	C 	0.65572 0.64522 0.08728 -0.06400
C 	C 	0.68286 0.64950 0.14399 0.78000
H 	H 	0.64182 0.68966 0.12456 0.13700
H 	H 	0.61708 0.59259 0.94628 0.13000
C 	C 	0.59153 0.64499 0.91416 0.78500
F 	F 	0.69448 0.68479 0.17823 -0.37100
F 	F 	0.71730 0.65051 0.12210 -0.39000
F 	F 	0.66271 0.61736 0.18606 -0.36500
F 	F 	0.60495 0.68463 0.89671 -0.36300
F 	F 	0.55040 0.62490 0.92168 -0.32500
F 	F 	0.60076 0.62709 0.86373 -0.34700
C 	C 	0.74972 0.57834 0.68564 0.06400
C 	C 	0.78018 0.57367 0.65730 0.06500
C 	C 	0.81184 0.57736 0.69731 -0.07600
C 	C 	0.80602 0.57323 0.76479 0.06200
C 	C 	0.77354 0.57415 0.79309 0.06800
C 	C 	0.74874 0.58289 0.75326 -0.08100
C 	C 	0.72459 0.60085 0.78066 0.78900
H 	H 	0.72694 0.57865 0.65519 0.08800
H 	H 	0.82693 0.56956 0.79526 0.11200
C 	C 	0.85300 0.59067 0.67039 0.79100
F 	F 	0.72265 0.62689 0.73604 -0.38800
F 	F 	0.74203 0.62279 0.83656 -0.39900
F 	F 	0.68598 0.57043 0.79380 -0.38600
F 	F 	0.86102 0.61621 0.61803 -0.38100
F 	F 	0.85544 0.55724 0.65217 -0.33600
F 	F 	0.88210 0.61162 0.71689 -0.33500
C 	C 	0.72066 0.53304 0.18496 0.05700
C 	C 	0.75854 0.55656 0.15728 0.07400
C 	C 	0.79167 0.58078 0.19797 -0.07500
C 	C 	0.78777 0.57399 0.26537 0.05900
C 	C 	0.75036 0.54780 0.29336 0.06000
C 	C 	0.71600 0.52697 0.25250 -0.06300
C 	C 	0.67401 0.50017 0.27980 0.78300
H 	H 	0.69482 0.51812 0.15334 0.12000
H 	H 	0.81388 0.58971 0.29624 0.09700
C 	C 	0.83084 0.61463 0.17110 0.78500
F 	F 	0.64742 0.47689 0.23153 -0.37000
F 	F 	0.66002 0.52389 0.30665 -0.36400
F 	F 	0.67352 0.47375 0.32595 -0.41000
F 	F 	0.82459 0.63183 0.11652 -0.39300
F 	F 	0.85610 0.59993 0.15590 -0.39700
F 	F 	0.84972 0.64495 0.21682 -0.38100
C 	C 	0.42665 0.83265 0.48040 0.06100
C 	C 	0.43150 0.81999 0.54190 0.03200
C 	C 	0.40566 0.81706 0.59288 -0.07000
C 	C 	0.37057 0.81812 0.57789 0.06600
C 	C 	0.36144 0.82202 0.51323 0.02400
C 	C 	0.39160 0.83374 0.46523 -0.06200
C 	C 	0.38525 0.84414 0.39689 0.78500
H 	H 	0.44821 0.83757 0.44263 0.13900
H 	H 	0.34841 0.81179 0.61533 0.10900
C 	C 	0.41343 0.80899 0.66192 0.78100
F 	F 	0.42026 0.86061 0.36084 -0.34500
F 	F 	0.37266 0.87219 0.39894 -0.34700
F 	F 	0.35678 0.80959 0.36583 -0.35900
F 	F 	0.45287 0.83533 0.67862 -0.36700
F 	F 	0.40591 0.76979 0.66701 -0.39800
F 	F 	0.38918 0.81423 0.70576 -0.36200
C 	C 	0.17627 0.60668 0.39504 0.07000
C 	C 	0.15950 0.61531 0.44904 0.03100
C 	C 	0.13211 0.58279 0.48865 -0.06400
C 	C 	0.13276 0.54642 0.48675 0.06900
C 	C 	0.15553 0.54042 0.43973 0.03600
C 	C 	0.17349 0.56879 0.38905 -0.06800
C 	C 	0.19309 0.56030 0.33205 0.78200
H 	H 	0.19392 0.63036 0.36045 0.12200
H 	H 	0.11687 0.52347 0.52333 0.12800
C 	C 	0.10020 0.58516 0.52815 0.78700
F 	F 	0.19826 0.58548 0.28019 -0.36700
F 	F 	0.16947 0.52090 0.31117 -0.38000
F 	F 	0.23015 0.56628 0.35062 -0.39500
F 	F 	0.08554 0.60640 0.49474 -0.39500
F 	F 	0.11600 0.60365 0.58694 -0.34100
F 	F 	0.06817 0.54700 0.54037 -0.36500
C 	C 	0.00625 0.64969 0.50619 0.05000
C 	C 	0.02603 0.67129 0.45023 0.05700
C 	C 	0.00346 0.66821 0.39390 -0.08900
C 	C 	0.96145 0.64918 0.39869 0.08500
C 	C 	0.94180 0.62892 0.45571 0.02900
C 	C 	0.96432 0.62641 0.50806 -0.04800
C 	C 	0.94420 0.60220 0.56856 0.78200
H 	H 	0.02360 0.65155 0.54886 0.14500
H 	H 	0.94403 0.65024 0.35818 0.11900
C 	C 	0.02368 0.68520 0.32908 0.78500
F 	F 	0.96921 0.59182 0.60108 -0.34000
F 	F 	0.90947 0.56681 0.55345 -0.35600
F 	F 	0.93548 0.62534 0.60943 -0.33700
F 	F 	0.05524 0.67821 0.31949 -0.37500
F 	F 	0.03774 0.72623 0.32738 -0.36000
F 	F 	0.99704 0.66721 0.27825 -0.34000
C 	C 	0.37236 0.82120 0.05470 0.05200
C 	C 	0.35733 0.81958 0.99201 0.03400
C 	C 	0.38297 0.82774 0.93799 -0.07600
C 	C 	0.41859 0.82658 0.94638 0.07900
C 	C 	0.42975 0.82019 0.00812 0.01200
C 	C 	0.40886 0.82186 0.06346 -0.06700
C 	C 	0.42418 0.82203 0.13147 0.78500
H 	H 	0.35390 0.81833 0.09634 0.11300
H 	H 	0.43613 0.82769 0.90446 0.11800
C 	C 	0.37233 0.83699 0.87173 0.78700
F 	F 	0.40187 0.82800 0.17831 -0.35500
F 	F 	0.46345 0.85290 0.13713 -0.37400
F 	F 	0.42220 0.78556 0.14375 -0.39900
F 	F 	0.36164 0.86640 0.87725 -0.37000
F 	F 	0.34082 0.80242 0.84542 -0.38100
F 	F 	0.40451 0.85131 0.82946 -0.35600
C 	C 	0.14432 0.55230 0.06834 0.06400
C 	C 	0.14851 0.53776 0.00792 0.02200
C 	C 	0.14817 0.55794 0.95027 -0.06700
C 	C 	0.14891 0.59496 0.95535 0.07200
C 	C 	0.15194 0.61277 0.01612 0.01500
C 	C 	0.14602 0.58983 0.07318 -0.06500
C 	C 	0.14276 0.60572 0.13915 0.78200
H 	H 	0.14257 0.53563 0.11193 0.12600
H 	H 	0.15072 0.61178 0.91191 0.10700
C 	C 	0.14905 0.54130 0.88363 0.78500
F 	F 	0.13367 0.57742 0.18772 -0.37200
F 	F 	0.11264 0.61535 0.13784 -0.37100
F 	F 	0.17870 0.63975 0.15470 -0.39000
F 	F 	0.11596 0.50328 0.87613 -0.38100
F 	F 	0.18367 0.53921 0.87687 -0.40300
F 	F 	0.14828 0.56538 0.83410 -0.36400
C 	C 	0.00624 0.67167 0.92800 0.04900
C 	C 	0.02415 0.68725 0.98838 0.05400
C 	C 	0.00004 0.68334 0.04283 -0.08500
C 	C 	0.95815 0.66231 0.03614 0.07300
C 	C 	0.94028 0.64697 0.97578 0.04500
C 	C 	0.96439 0.65250 0.92061 -0.05800
C 	C 	0.94557 0.63778 0.85412 0.78300
H 	H 	0.02505 0.67484 0.88673 0.11800
H 	H 	0.93924 0.65768 0.07796 0.14000
C 	C 	0.01886 0.70085 0.10818 0.78200
F 	F 	0.97412 0.65124 0.80536 -0.35600
F 	F 	0.91950 0.65182 0.84063 -0.37700
F 	F 	0.92469 0.59608 0.85315 -0.37600
F 	F 	0.04669 0.74135 0.10154 -0.35000
F 	F 	0.03747 0.68057 0.13176 -0.34000
F 	F 	0.99065 0.69741 0.15324 -0.33900
C 	C 	0.17296 0.72596 0.77386 0.06100
C 	C 	0.19193 0.76222 0.80906 0.06200
C 	C 	0.20862 0.79962 0.77512 -0.08300
C 	C 	0.20438 0.79901 0.70721 0.05500
C 	C 	0.19011 0.76301 0.67235 0.06400
C 	C 	0.17006 0.72592 0.70596 -0.09500
C 	C 	0.14530 0.68623 0.67081 0.79900
H 	H 	0.16077 0.69753 0.79958 0.11300
H 	H 	0.21498 0.82699 0.68080 0.11400
C 	C 	0.23226 0.83997 0.80945 0.78600
F 	F 	0.11544 0.65830 0.71088 -0.36800
F 	F 	0.16972 0.67108 0.65263 -0.37800
F 	F 	0.12678 0.69100 0.61679 -0.44900
F 	F 	0.26159 0.84009 0.84809 -0.45000
F 	F 	0.20677 0.84752 0.84638 -0.38700
F 	F 	0.25143 0.87142 0.76567 -0.38500
C 	C 	0.24079 0.81481 0.21037 0.06600
C 	C 	0.20533 0.79053 0.17572 0.06700
C 	C 	0.16824 0.77180 0.20942 -0.07600
C 	C 	0.16859 0.77233 0.27777 0.05800
C 	C 	0.20490 0.79117 0.31193 0.07400
C 	C 	0.24050 0.81717 0.27817 -0.08900
C 	C 	0.27852 0.84666 0.31311 0.79800
H 	H 	0.26904 0.83076 0.18470 0.11500
H 	H 	0.14077 0.75613 0.30449 0.13900
C 	C 	0.12862 0.75291 0.17369 0.79100
F 	F 	0.30107 0.88043 0.27504 -0.35600
F 	F 	0.30092 0.82841 0.32545 -0.36700
F 	F 	0.27027 0.85958 0.37058 -0.42800
F 	F 	0.12324 0.71946 0.13965 -0.42700
F 	F 	0.12798 0.78080 0.13179 -0.37000
F 	F 	0.09669 0.74060 0.21600 -0.33100
C 	C 	0.55077 0.38463 0.56790 0.06300
C 	C 	0.53302 0.36839 0.50758 0.03000
C 	C 	0.54734 0.39282 0.45131 -0.06600
C 	C 	0.58358 0.42988 0.45485 0.07000
C 	C 	0.60503 0.44263 0.51337 0.03400
C 	C 	0.58664 0.42195 0.57152 -0.06600
C 	C 	0.60645 0.43825 0.63682 0.78200
H 	H 	0.53825 0.36669 0.61138 0.14000
H 	H 	0.59686 0.44722 0.41108 0.14700
C 	C 	0.52466 0.37921 0.38756 0.78700
F 	F 	0.58152 0.41659 0.68785 -0.36900
F 	F 	0.61576 0.47796 0.64337 -0.38200
F 	F 	0.64116 0.43614 0.64137 -0.39800
F 	F 	0.48575 0.37102 0.39662 -0.34900
F 	F 	0.52427 0.34487 0.36555 -0.37700
F 	F 	0.54195 0.40857 0.34001 -0.34600
C 	C 	0.53719 0.15443 0.45062 0.06500
C 	C 	0.52763 0.15976 0.51428 0.02300
C 	C 	0.54922 0.15601 0.56694 -0.07100
C 	C 	0.58449 0.15490 0.55397 0.06500
C 	C 	0.59811 0.15751 0.49002 0.02100
C 	C 	0.57250 0.15337 0.43773 -0.06900
C 	C 	0.58388 0.15031 0.36820 0.78500
H 	H 	0.51890 0.15465 0.41082 0.11700
H 	H 	0.60325 0.15552 0.59369 0.11000
C 	C 	0.53565 0.15462 0.63665 0.78300
F 	F 	0.55338 0.14291 0.32506 -0.35200
F 	F 	0.59180 0.11895 0.36290 -0.36200
F 	F 	0.61755 0.18602 0.35039 -0.38100
F 	F 	0.49647 0.12378 0.64366 -0.37400
F 	F 	0.53832 0.19096 0.65282 -0.38200
F 	F 	0.55894 0.14759 0.68005 -0.36300
C 	C 	0.29601 0.96667 0.59801 0.07200
C 	C 	0.28798 0.94893 0.53614 0.03500
C 	C 	0.29890 0.97361 0.47993 -0.05500
C 	C 	0.31984 0.01578 0.48717 0.05300
C 	C 	0.32792 0.03345 0.54893 0.04800
C 	C 	0.31565 0.00888 0.60508 -0.07500
C 	C 	0.32391 0.02769 0.67234 0.77900
H 	H 	0.28717 0.94746 0.64057 0.12800
H 	H 	0.33006 0.03506 0.44465 0.14200
C 	C 	0.29030 0.95532 0.41228 0.78100
F 	F 	0.30800 0.99880 0.72082 -0.35900
F 	F 	0.30707 0.05210 0.67794 -0.37100
F 	F 	0.36481 0.05070 0.68209 -0.37500
F 	F 	0.25142 0.92340 0.40819 -0.37700
F 	F 	0.31676 0.94190 0.39836 -0.34700
F 	F 	0.29473 0.98329 0.36556 -0.36000
C 	C 	0.31477 0.30797 0.58319 0.06500
C 	C 	0.33083 0.29931 0.52848 0.03700
C 	C 	0.32253 0.30821 0.46548 -0.06500
C 	C 	0.29997 0.32772 0.45905 0.06400
C 	C 	0.28374 0.33616 0.51375 0.03600
C 	C 	0.29009 0.32512 0.57642 -0.06800
C 	C 	0.27148 0.33250 0.63621 0.78300
H 	H 	0.32144 0.30113 0.63109 0.12400
H 	H 	0.29509 0.33657 0.41143 0.12700
C 	C 	0.33850 0.29794 0.40523 0.77700
F 	F 	0.27439 0.31243 0.69003 -0.34900
F 	F 	0.23125 0.31894 0.62572 -0.38200
F 	F 	0.29097 0.37331 0.64992 -0.38300
F 	F 	0.32997 0.25830 0.40774 -0.40700
F 	F 	0.37952 0.32317 0.40142 -0.36800
F 	F 	0.32145 0.30254 0.34902 -0.35500
C 	C 	0.40603 0.18330 0.74511 0.05400
C 	C 	0.43223 0.22087 0.71706 0.06500
C 	C 	0.45421 0.25512 0.75796 -0.07600
C 	C 	0.44637 0.25114 0.82492 0.04800
C 	C 	0.42237 0.21326 0.85305 0.05300
C 	C 	0.39888 0.17960 0.81249 -0.07300
C 	C 	0.36476 0.14056 0.83930 0.78200
H 	H 	0.39032 0.15703 0.71421 0.11900
H 	H 	0.46067 0.27749 0.85594 0.10500
C 	C 	0.48542 0.29623 0.73156 0.78500
F 	F 	0.33629 0.11986 0.79181 -0.36300
F 	F 	0.34566 0.14809 0.88963 -0.39800
F 	F 	0.37932 0.11614 0.86078 -0.36900
F 	F 	0.46662 0.31594 0.70638 -0.40400
F 	F 	0.50906 0.29283 0.68446 -0.41000
F 	F 	0.51101 0.32015 0.78039 -0.38400
C 	C 	0.38595 0.17269 0.24751 0.06000
C 	C 	0.40299 0.21162 0.22078 0.06300
C 	C 	0.41203 0.24497 0.26288 -0.06400
C 	C 	0.40198 0.23733 0.32887 0.06000
C 	C 	0.39358 0.20070 0.35611 0.06900
C 	C 	0.38001 0.16669 0.31508 -0.08300
C 	C 	0.35649 0.12415 0.34151 0.78600
H 	H 	0.37820 0.14716 0.21595 0.09900
H 	H 	0.40632 0.26166 0.36088 0.12500
C 	C 	0.43368 0.28858 0.23963 0.78600
F 	F 	0.32736 0.09935 0.29751 -0.38100
F 	F 	0.33737 0.12309 0.39901 -0.40500
F 	F 	0.38200 0.10909 0.35188 -0.40100
F 	F 	0.40812 0.29570 0.20219 -0.34200
F 	F 	0.46781 0.29722 0.20503 -0.38300
F 	F 	0.44594 0.31532 0.29123 -0.33300
C 	C 	0.57755 0.43567 0.00062 0.04200
C 	C 	0.61277 0.43339 0.99782 0.06200
C 	C 	0.61038 0.39538 0.00302 -0.09900
C 	C 	0.57303 0.36051 0.99790 0.11200
C 	C 	0.53790 0.36231 0.00544 0.00100
C 	C 	0.53989 0.40028 0.00699 -0.03900
C 	C 	0.50213 0.40305 0.01406 0.76900
H 	H 	0.57951 0.46483 0.99691 0.13000
H 	H 	0.57120 0.33136 0.99442 0.09000
C 	C 	0.64716 0.39164 0.01613 0.78200
F 	F 	0.51058 0.44268 0.01677 -0.36900
F 	F 	0.48225 0.38401 0.07059 -0.36100
F 	F 	0.47723 0.38466 0.96149 -0.37500
F 	F 	0.67391 0.42262 0.05572 -0.41100
F 	F 	0.66554 0.39239 0.95808 -0.40800
F 	F 	0.63670 0.35571 0.04753 -0.38700
C 	C 	0.58246 0.15449 0.03371 0.04800
C 	C 	0.59539 0.16845 0.97035 0.04800
C 	C 	0.56947 0.17364 0.92803 -0.07600
C 	C 	0.53584 0.17395 0.95408 0.09100
C 	C 	0.52773 0.16834 0.02099 0.00900
C 	C 	0.54847 0.15418 0.05969 -0.04200
C 	C 	0.53609 0.14132 0.12948 0.78100
H 	H 	0.60075 0.14716 0.06429 0.14800
H 	H 	0.51823 0.18236 0.92365 0.10300
C 	C 	0.57958 0.18263 0.85664 0.78800
F 	F 	0.55571 0.12252 0.15533 -0.33500
F 	F 	0.49537 0.11436 0.13248 -0.35900
F 	F 	0.54507 0.17474 0.16706 -0.36500
F 	F 	0.59220 0.15732 0.83150 -0.37300
F 	F 	0.60979 0.22224 0.84933 -0.38800
F 	F 	0.54659 0.17683 0.82116 -0.36200
C 	C 	0.33626 0.97145 0.99439 0.08600
C 	C 	0.29441 0.94983 0.00046 0.04200
C 	C 	0.27306 0.97093 0.00507 -0.06600
C 	C 	0.29437 0.01269 0.01566 0.06600
C 	C 	0.33630 0.03445 0.01112 0.04600
C 	C 	0.35731 0.01389 0.99530 -0.06000
C 	C 	0.40189 0.03663 0.98024 0.78600
H 	H 	0.35245 0.95518 0.98981 0.12700
H 	H 	0.27827 0.02848 0.02658 0.12500
C 	C 	0.22770 0.94925 0.99980 0.79500
F 	F 	0.41335 0.01215 0.94836 -0.36900
F 	F 	0.42343 0.04982 0.03744 -0.38100
F 	F 	0.41154 0.06935 0.94037 -0.37700
F 	F 	0.21090 0.93365 0.05973 -0.37200
F 	F 	0.21402 0.91831 0.95475 -0.36100
F 	F 	0.21487 0.97548 0.97991 -0.36000
C 	C 	0.31374 0.29811 0.95579 0.08600
C 	C 	0.32650 0.29603 0.01865 0.02500
C 	C 	0.31783 0.31427 0.07115 -0.05200
C 	C 	0.29475 0.33275 0.05985 0.04900
C 	C 	0.28218 0.33509 0.99693 0.06400
C 	C 	0.29256 0.31856 0.94391 -0.07900
C 	C 	0.28309 0.32466 0.87464 0.78900
H 	H 	0.32089 0.28423 0.91604 0.11200
H 	H 	0.28703 0.34600 0.09979 0.15500
C 	C 	0.33505 0.31604 0.13821 0.78000
F 	F 	0.29762 0.30819 0.82976 -0.36600
F 	F 	0.30056 0.36547 0.86189 -0.35500
F 	F 	0.24209 0.30653 0.86634 -0.34800
F 	F 	0.37641 0.33610 0.13454 -0.34000
F 	F 	0.32133 0.27741 0.16138 -0.36200
F 	F 	0.32427 0.33623 0.18236 -0.34600
