data_crystal

_cell_length_a 16.66397
_cell_length_b 16.54164
_cell_length_c 76.55284
_cell_angle_alpha 90.08093
_cell_angle_beta  89.94080
_cell_angle_gamma 120.16027

_symmetry_space_group_name_	'P 1'
_symmetry_space_group_name_H-M	'P 1'

loop_
_symmetry_equiv_pos_as_xyz
  x,y,z

loop_
_atom_site_label
_atom_site_type_symbol
_atom_site_fract_x
_atom_site_fract_y
_atom_site_fract_z
_atom_site_charge
Ni	Ni	0.92475 0.01260 0.00470 1.08700
O 	O 	0.06044 0.93039 0.00977 -0.33300
H 	H 	0.81896 0.55047 0.01144 0.03900
C 	C 	0.71911 0.15421 0.00754 -0.01200
C 	C 	0.85610 0.30793 0.00871 -0.01000
C 	C 	0.12303 0.12937 0.01687 0.30300
C 	C 	0.97280 0.86715 0.01401 0.26000
O 	O 	0.90643 0.88881 0.01438 -0.35100
C 	C 	0.85046 0.61243 0.01960 -0.00300
C 	C 	0.91510 0.69852 0.01234 -0.02000
H 	H 	0.27014 0.30563 0.01666 0.04400
C 	C 	0.77040 0.24108 0.01582 -0.06800
H 	H 	0.65134 0.10301 0.01246 0.03400
H 	H 	0.89453 0.37714 0.01442 0.03800
O 	O 	0.03718 0.07487 0.02220 -0.37200
C 	C 	0.95265 0.78000 0.02252 -0.05100
C 	C 	0.27693 0.25945 0.02580 -0.00700
C 	C 	0.20006 0.17102 0.02947 -0.07500
H 	H 	0.42418 0.35037 0.02859 0.04600
C 	C 	0.74201 0.25604 0.03321 0.29900
O 	O 	0.65344 0.21269 0.03731 -0.37500
C 	C 	0.82457 0.60691 0.03721 -0.07500
C 	C 	0.36466 0.28438 0.03241 -0.01400
C 	C 	0.46989 0.24271 0.04846 0.29800
C 	C 	0.76118 0.51544 0.04501 0.30500
O 	O 	0.53932 0.32926 0.04834 -0.38400
O 	O 	0.80522 0.29663 0.04544 -0.37800
O 	O 	0.77816 0.44760 0.04257 -0.40100
C 	C 	0.87066 0.68635 0.04786 -0.00200
C 	C 	0.93615 0.77209 0.04061 -0.01200
C 	C 	0.29697 0.13852 0.04849 -0.01300
C 	C 	0.37594 0.22199 0.04312 -0.06900
C 	C 	0.20943 0.11337 0.04173 -0.01300
H 	H 	0.15044 0.04572 0.04495 0.03600
O 	O 	0.69827 0.50700 0.05654 -0.37500
O 	O 	0.48104 0.17518 0.05487 -0.37300
H 	H 	0.96706 0.83418 0.04874 0.05000
H 	H 	0.30369 0.09167 0.05746 0.04000
Ni	Ni	0.60770 0.19075 0.06309 1.11000
Ni	Ni	0.80316 0.38849 0.06279 1.12000
H 	H 	0.85560 0.68183 0.06172 0.04600
Ni	Ni	0.61377 0.38826 0.07024 1.12000
O 	O 	0.71818 0.17307 0.07131 -0.37300
O 	O 	0.67598 0.31832 0.06920 -0.71200
C 	C 	0.78034 0.22707 0.08319 0.28300
O 	O 	0.83161 0.31888 0.08109 -0.37900
O 	O 	0.82877 0.49432 0.07977 -0.38300
O 	O 	0.54938 0.16832 0.08785 -0.37700
O 	O 	0.51002 0.28396 0.08494 -0.37400
H 	H 	0.68426 0.31296 0.08179 0.14800
C 	C 	0.51808 0.22132 0.09464 0.27900
C 	C 	0.77550 0.48531 0.09351 0.28200
O 	O 	0.68527 0.45372 0.09177 -0.38100
H 	H 	0.94780 0.25978 0.09409 0.03800
C 	C 	0.89165 0.21423 0.10275 0.00600
C 	C 	0.79958 0.18398 0.09809 -0.07200
H 	H 	0.65627 0.10416 0.10587 0.03800
H 	H 	0.34101 0.17504 0.10079 0.04400
H 	H 	0.90461 0.66712 0.09938 0.04100
C 	C 	0.72743 0.12648 0.10944 -0.02400
C 	C 	0.46849 0.19241 0.11139 -0.06600
C 	C 	0.37522 0.16863 0.11232 -0.01800
H 	H 	0.19412 0.10272 0.11643 0.03600
C 	C 	0.87694 0.62620 0.11118 0.00900
C 	C 	0.81915 0.52901 0.11016 -0.06700
C 	C 	0.74725 0.10518 0.12604 0.00800
C 	C 	0.91242 0.19162 0.11903 -0.05400
H 	H 	0.98441 0.22418 0.12284 0.04400
C 	C 	0.51131 0.17901 0.12596 -0.00100
C 	C 	0.32480 0.13257 0.12785 0.00900
C 	C 	0.22927 0.10010 0.12814 -0.04400
H 	H 	0.58222 0.19341 0.12508 0.03100
C 	C 	0.89543 0.67151 0.12737 -0.04900
C 	C 	0.78788 0.47618 0.12553 -0.01500
H 	H 	0.94445 0.74572 0.12794 0.05100
H 	H 	0.74605 0.40054 0.12473 0.03700
C 	C 	0.67585 0.06076 0.13834 -0.04400
C 	C 	0.84039 0.13493 0.13078 0.00400
H 	H 	0.60476 0.03866 0.13480 0.03600
C 	C 	0.85925 0.11367 0.14777 0.00300
H 	H 	0.99950 0.14138 0.14256 0.04000
C 	C 	0.46221 0.14442 0.14159 -0.05100
C 	C 	0.36986 0.12595 0.14303 0.00300
C 	C 	0.17818 0.06271 0.14338 -0.04200
H 	H 	0.10411 0.03686 0.14326 0.03100
C 	C 	0.80544 0.52094 0.14182 0.01100
C 	C 	0.85286 0.61983 0.14268 0.01000
H 	H 	0.89490 0.80069 0.14847 0.05100
C 	C 	0.94727 0.12680 0.15236 -0.05200
C 	C 	0.69595 0.04870 0.15546 -0.04300
C 	C 	0.22262 0.06308 0.15895 0.00500
C 	C 	0.31963 0.09733 0.15909 0.00600
H 	H 	0.49438 0.12692 0.15202 0.03900
C 	C 	0.85838 0.66405 0.15896 0.00800
C 	C 	0.77507 0.46794 0.15720 -0.03800
H 	H 	0.74045 0.39228 0.15662 0.04100
C 	C 	0.96558 0.11336 0.16958 -0.00100
C 	C 	0.78702 0.07542 0.16033 0.00800
H 	H 	0.64019 0.01746 0.16495 0.03500
C 	C 	0.88536 0.75970 0.16007 -0.04500
C 	C 	0.80618 0.06166 0.17754 -0.02200
H 	H 	0.03337 0.12398 0.17295 0.02700
C 	C 	0.36477 0.10960 0.17536 -0.05500
C 	C 	0.17226 0.03648 0.17463 -0.01800
H 	H 	0.43947 0.14405 0.17621 0.04200
H 	H 	0.09805 0.01023 0.17447 0.02400
C 	C 	0.89574 0.80200 0.17637 0.00600
C 	C 	0.83029 0.60942 0.17442 0.01200
C 	C 	0.78989 0.51197 0.17339 -0.03800
H 	H 	0.92028 0.87628 0.17708 0.04200
C 	C 	0.89540 0.08122 0.18219 -0.06000
H 	H 	0.75122 0.03375 0.18724 0.04000
H 	H 	0.76765 0.46989 0.18516 0.04200
C 	C 	0.91142 0.05549 0.19956 0.24300
C 	C 	0.31386 0.08580 0.19093 0.00600
C 	C 	0.21818 0.05199 0.19063 -0.07500
C 	C 	0.87646 0.74943 0.19171 -0.06400
C 	C 	0.84147 0.65290 0.19073 -0.01300
C 	C 	0.17032 0.05326 0.20662 0.27700
C 	C 	0.90707 0.79764 0.20852 0.28200
O 	O 	0.14444 0.11688 0.20795 -0.37800
O 	O 	0.96639 0.12319 0.21063 -0.35900
O 	O 	0.85619 0.96802 0.20487 -0.34400
H 	H 	0.35001 0.09972 0.20331 0.03300
H 	H 	0.82485 0.61208 0.20264 0.04500
O 	O 	0.16742 0.00227 0.22032 -0.39400
O 	O 	0.99374 0.82860 0.21352 -0.36900
O 	O 	0.84574 0.80083 0.21923 -0.37400
H 	H 	0.99689 0.97820 0.21387 0.15600
Ni	Ni	0.06081 0.11662 0.22804 1.10100
Ni	Ni	0.86120 0.92253 0.22908 1.12600
O 	O 	0.99305 0.98541 0.22654 -0.69300
Ni	Ni	0.04859 0.91504 0.23396 1.11900
O 	O 	0.84226 0.02981 0.23710 -0.38800
H 	H 	0.34375 0.15551 0.24134 0.04500
H 	H 	0.73466 0.09465 0.24088 0.04200
C 	C 	0.89846 0.09984 0.24732 0.29700
O 	O 	0.98552 0.12194 0.24914 -0.37800
O 	O 	0.17171 0.13966 0.24438 -0.36600
O 	O 	0.94603 0.81858 0.24898 -0.37700
C 	C 	0.34011 0.13402 0.25482 -0.01300
H 	H 	0.48678 0.18621 0.25657 0.03300
C 	C 	0.77877 0.14920 0.24998 -0.00900
H 	H 	0.67531 0.18745 0.25523 0.04200
C 	C 	0.17025 0.07609 0.25495 0.27600
C 	C 	0.89816 0.83996 0.25983 0.30500
O 	O 	0.85730 0.88560 0.25423 -0.37500
O 	O 	0.09736 0.99292 0.25567 -0.37400
C 	C 	0.42070 0.14872 0.26329 -0.00900
C 	C 	0.86686 0.16303 0.25442 -0.06600
C 	C 	0.74571 0.20342 0.25783 -0.01100
C 	C 	0.25549 0.09311 0.26386 -0.06700
C 	C 	0.92439 0.23745 0.26556 -0.01000
C 	C 	0.79956 0.27110 0.27037 -0.06100
C 	C 	0.89126 0.29185 0.27330 -0.00900
H 	H 	0.99353 0.25136 0.26872 0.04700
C 	C 	0.75276 0.29566 0.28394 0.28600
O 	O 	0.69427 0.32554 0.27923 -0.37600
C 	C 	0.25066 0.05864 0.28081 -0.01600
C 	C 	0.41802 0.12702 0.28108 -0.07400
C 	C 	0.78530 0.76183 0.28408 0.00000
C 	C 	0.87481 0.79637 0.27727 -0.06900
H 	H 	0.73722 0.77876 0.27786 0.04500
H 	H 	0.00833 0.80754 0.28153 0.02600
H 	H 	0.93429 0.34520 0.28270 0.04100
C 	C 	0.49772 0.18921 0.29186 0.30700
Ni	Ni	0.63656 0.38458 0.29501 1.12100
O 	O 	0.51077 0.27207 0.29531 -0.39000
O 	O 	0.56012 0.16629 0.29636 -0.38500
C 	C 	0.33160 0.07455 0.28931 -0.00600
H 	H 	0.18478 0.02238 0.28762 0.03600
C 	C 	0.93736 0.77726 0.28605 0.01900
O 	O 	0.57366 0.45538 0.30483 -0.37300
O 	O 	0.75498 0.26785 0.30003 -0.39000
O 	O 	0.75626 0.50606 0.29735 -0.38100
H 	H 	0.32818 0.05466 0.30289 0.03600
C 	C 	0.90617 0.71278 0.29979 -0.01800
C 	C 	0.81192 0.66526 0.30444 -0.05500
C 	C 	0.75401 0.69661 0.29765 -0.01600
H 	H 	0.68122 0.66097 0.30105 0.04500
C 	C 	0.52244 0.42918 0.31912 0.30100
C 	C 	0.76923 0.56719 0.30976 0.28300
Ni	Ni	0.64973 0.22781 0.31664 1.12000
O 	O 	0.67471 0.35296 0.31606 -0.71500
H 	H 	0.74254 0.38674 0.31449 0.16800
H 	H 	0.95266 0.69189 0.30540 0.04600
O 	O 	0.53141 0.37460 0.33008 -0.37800
O 	O 	0.72596 0.54078 0.32529 -0.36400
C 	C 	0.39198 0.43857 0.33213 -0.00800
C 	C 	0.48375 0.48552 0.32593 -0.07000
H 	H 	0.34235 0.37078 0.32682 0.04000
H 	H 	0.61599 0.61319 0.32771 0.04600
H 	H 	0.96611 0.40071 0.32537 0.03700
Ni	Ni	0.66286 0.40568 0.33698 1.11400
O 	O 	0.73682 0.26141 0.33801 -0.37300
O 	O 	0.53649 0.18771 0.33151 -0.38900
C 	C 	0.54542 0.57535 0.33241 -0.01600
C 	C 	0.97111 0.40794 0.33946 0.00000
H 	H 	0.11627 0.51242 0.33892 0.04100
C 	C 	0.80396 0.34781 0.34232 0.28200
C 	C 	0.54492 0.20472 0.34819 0.30200
O 	O 	0.78684 0.41730 0.34418 -0.36900
C 	C 	0.52127 0.60966 0.34697 -0.00700
C 	C 	0.36790 0.47222 0.34684 -0.00700
H 	H 	0.57236 0.67556 0.35272 0.04500
H 	H 	0.29887 0.43181 0.35234 0.03800
C 	C 	0.05550 0.47347 0.34707 -0.01900
C 	C 	0.89068 0.36212 0.34975 -0.06300
H 	H 	0.36744 0.06270 0.34996 0.04100
O 	O 	0.60376 0.28946 0.35378 -0.36600
C 	C 	0.43464 0.55502 0.35500 -0.06500
C 	C 	0.38727 0.96209 0.36415 0.00300
C 	C 	0.41522 0.05162 0.35778 -0.02500
C 	C 	0.50676 0.12486 0.36024 -0.07100
H 	H 	0.31732 0.90582 0.36160 0.04100
C 	C 	0.14781 0.56100 0.37307 0.30600
C 	C 	0.41609 0.58131 0.37235 0.29900
O 	O 	0.21526 0.54317 0.37349 -0.39000
O 	O 	0.45782 0.67005 0.37689 -0.37400
C 	C 	0.05991 0.49170 0.36504 -0.08300
C 	C 	0.89961 0.36822 0.36800 -0.01000
C 	C 	0.45022 0.94502 0.37334 -0.05400
C 	C 	0.56739 0.10971 0.37058 -0.00900
H 	H 	0.63812 0.16565 0.37264 0.04400
C 	C 	0.42143 0.84981 0.37990 0.29700
O 	O 	0.33495 0.78240 0.37797 -0.38800
O 	O 	0.14976 0.62631 0.38327 -0.37400
O 	O 	0.36494 0.51578 0.38366 -0.37300
C 	C 	0.98292 0.43549 0.37560 0.00300
H 	H 	0.83882 0.32966 0.37617 0.04000
C 	C 	0.53967 0.02024 0.37699 -0.02600
H 	H 	0.58850 0.00920 0.38445 0.04600
Ni	Ni	0.25737 0.51757 0.39702 1.11100
Ni	Ni	0.25903 0.71543 0.39892 1.12000
O 	O 	0.47868 0.83794 0.39007 -0.37400
H 	H 	0.98688 0.44527 0.38963 0.04600
Ni	Ni	0.45171 0.71572 0.40127 1.12100
O 	O 	0.13773 0.49917 0.41000 -0.37800
O 	O 	0.31927 0.64497 0.40278 -0.71000
C 	C 	0.13884 0.55719 0.42222 0.28200
O 	O 	0.31141 0.49246 0.41929 -0.37600
O 	O 	0.46097 0.60932 0.41308 -0.37100
O 	O 	0.34858 0.81959 0.41519 -0.38100
O 	O 	0.17320 0.64752 0.41906 -0.37800
H 	H 	0.31310 0.63883 0.41555 0.14500
C 	C 	0.39830 0.54866 0.42423 0.28100
C 	C 	0.39869 0.80986 0.42771 0.28700
O 	O 	0.45353 0.77480 0.42433 -0.38500
H 	H 	0.42183 0.98203 0.43244 0.04400
H 	H 	0.95444 0.47557 0.42721 0.03400
C 	C 	0.42875 0.53086 0.44111 -0.06700
H 	H 	0.33916 0.38109 0.43949 0.03900
C 	C 	0.41096 0.85876 0.44435 -0.08000
C 	C 	0.42545 0.94987 0.44454 0.01000
C 	C 	0.99323 0.48793 0.43924 0.01700
C 	C 	0.08837 0.51952 0.43860 -0.07800
C 	C 	0.38691 0.43931 0.44759 0.00400
C 	C 	0.48811 0.60585 0.45187 -0.02300
H 	H 	0.51819 0.67688 0.44704 0.04400
H 	H 	0.44813 0.12018 0.44869 0.03300
C 	C 	0.94954 0.48140 0.45520 -0.05600
C 	C 	0.13896 0.53904 0.45416 -0.01300
H 	H 	0.87924 0.46821 0.45494 0.04500
H 	H 	0.21314 0.56524 0.45359 0.03400
C 	C 	0.50446 0.58978 0.46919 0.01100
C 	C 	0.40169 0.42246 0.46480 -0.05200
H 	H 	0.35959 0.35263 0.46987 0.04200
C 	C 	0.45799 0.09016 0.46051 -0.02100
C 	C 	0.44720 0.00047 0.46022 -0.03100
C 	C 	0.41212 0.81584 0.46002 0.01600
H 	H 	0.39615 0.74371 0.46006 0.02800
C 	C 	0.55704 0.66564 0.48033 -0.04200
C 	C 	0.46436 0.49692 0.47560 0.00500
H 	H 	0.58579 0.73664 0.47560 0.04200
C 	C 	0.48018 0.14112 0.47602 -0.05700
C 	C 	0.45757 0.96047 0.47580 0.04800
C 	C 	0.43263 0.86518 0.47574 -0.07000
H 	H 	0.48641 0.20959 0.47605 0.04200
C 	C 	0.09640 0.53368 0.47029 0.00400
C 	C 	0.99990 0.50151 0.47105 0.01400
H 	H 	0.81388 0.41155 0.47905 0.04200
C 	C 	0.48516 0.48173 0.49296 0.00400
H 	H 	0.42982 0.33135 0.49067 0.04000
C 	C 	0.48975 0.01628 0.49117 -0.03700
C 	C 	0.49716 0.10554 0.49131 0.03000
H 	H 	0.42493 0.82792 0.48778 0.04800
C 	C 	0.86010 0.44911 0.48971 -0.04500
C 	C 	0.95760 0.49510 0.48763 -0.00300
C 	C 	0.15059 0.56581 0.48547 -0.03400
H 	H 	0.22468 0.59212 0.48486 0.03900
C 	C 	0.45936 0.39132 0.49923 -0.05000
C 	C 	0.53734 0.55983 0.50403 0.00900
C 	C 	0.57151 0.65080 0.49767 -0.04000
C 	C 	0.01459 0.53075 0.50270 0.02300
C 	C 	0.11056 0.56685 0.50139 -0.04600
C 	C 	0.47938 0.37900 0.51640 -0.00400
H 	H 	0.61144 0.71057 0.50610 0.04000
C 	C 	0.52031 0.98796 0.50592 -0.01300
C 	C 	0.52465 0.15965 0.50661 -0.03300
H 	H 	0.52828 0.92708 0.50546 0.03400
H 	H 	0.53021 0.22782 0.50674 0.04100
C 	C 	0.82117 0.44297 0.50615 0.00000
H 	H 	0.74628 0.40469 0.50756 0.03100
H 	H 	0.15417 0.59361 0.51288 0.04300
C 	C 	0.53222 0.45632 0.52714 -0.06700
C 	C 	0.55894 0.54636 0.52111 -0.01600
H 	H 	0.45885 0.30935 0.52098 0.03600
H 	H 	0.59996 0.60628 0.52948 0.04500
C 	C 	0.54758 0.12712 0.52160 -0.05500
C 	C 	0.54666 0.04194 0.52110 -0.02200
C 	C 	0.87753 0.47689 0.52100 -0.06300
C 	C 	0.97416 0.52401 0.51917 -0.03100
C 	C 	0.83583 0.44068 0.53815 0.27700
C 	C 	0.57294 0.18240 0.53779 0.27700
H 	H 	0.56700 0.01765 0.53248 0.04300
H 	H 	0.01763 0.54901 0.53073 0.04900
C 	C 	0.57386 0.44477 0.54317 0.28100
O 	O 	0.84366 0.49978 0.55079 -0.37400
O 	O 	0.80289 0.35054 0.54129 -0.37800
O 	O 	0.63290 0.17737 0.54862 -0.38300
O 	O 	0.52112 0.21868 0.54284 -0.38500
O 	O 	0.66327 0.50260 0.54608 -0.37400
H 	H 	0.66546 0.35758 0.54859 0.14700
Ni	Ni	0.53778 0.28224 0.56608 1.12000
Ni	Ni	0.73140 0.28528 0.56305 1.12000
O 	O 	0.51953 0.38581 0.55548 -0.37300
O 	O 	0.66785 0.35370 0.56139 -0.71100
Ni	Ni	0.73198 0.48195 0.56654 1.11100
O 	O 	0.51907 0.16260 0.57710 -0.38100
O 	O 	0.84908 0.37801 0.57635 -0.37800
H 	H 	0.01871 0.54184 0.57045 0.04400
H 	H 	0.43455 0.98564 0.57524 0.04800
C 	C 	0.85537 0.44205 0.58743 0.30600
C 	C 	0.58358 0.15197 0.58500 0.30100
O 	O 	0.63341 0.48606 0.58260 -0.37200
O 	O 	0.54925 0.33273 0.59075 -0.37700
O 	O 	0.78855 0.46065 0.58869 -0.38900
O 	O 	0.67018 0.22054 0.58526 -0.39200
C 	C 	0.02396 0.55531 0.58438 0.01000
C 	C 	0.10977 0.61885 0.59168 -0.01000
H 	H 	0.17103 0.65042 0.58346 0.04200
C 	C 	0.56114 0.05700 0.59047 -0.07800
C 	C 	0.47954 0.97797 0.58445 0.00300
C 	C 	0.45407 0.88897 0.59080 -0.01100
H 	H 	0.38781 0.82976 0.58704 0.04700
C 	C 	0.58852 0.42221 0.59461 0.29800
C 	C 	0.94562 0.50798 0.59512 -0.08600
C 	C 	0.62131 0.04456 0.60149 -0.02800
C 	C 	0.50941 0.87809 0.60329 -0.07500
C 	C 	0.46641 0.79848 0.61538 0.30500
C 	C 	0.20518 0.64947 0.61795 0.28200
O 	O 	0.41058 0.71336 0.60956 -0.36600
O 	O 	0.22516 0.58157 0.61704 -0.37000
C 	C 	0.57248 0.45054 0.61197 -0.06700
H 	H 	0.43652 0.32869 0.61526 0.04200
H 	H 	0.70727 0.57584 0.61362 0.03800
C 	C 	0.95203 0.53148 0.61287 -0.02600
C 	C 	0.11868 0.63187 0.60985 -0.06300
C 	C 	0.59615 0.95532 0.60765 0.00700
H 	H 	0.68590 0.10417 0.60581 0.04300
Ni	Ni	0.34779 0.59747 0.62640 1.11300
O 	O 	0.26944 0.73677 0.62235 -0.37200
C 	C 	0.48746 0.39608 0.62052 -0.00800
C 	C 	0.63926 0.53533 0.61952 -0.00800
C 	C 	0.03835 0.59385 0.62020 0.00700
H 	H 	0.89087 0.49900 0.62111 0.04000
H 	H 	0.64062 0.94739 0.61697 0.03900
O 	O 	0.28436 0.46275 0.63845 -0.36500
O 	O 	0.46740 0.81597 0.63196 -0.38700
O 	O 	0.47788 0.63412 0.63522 -0.37900
C 	C 	0.61627 0.57070 0.63414 -0.00900
C 	C 	0.52509 0.52396 0.64069 -0.07100
C 	C 	0.46411 0.43236 0.63489 -0.01800
H 	H 	0.66573 0.63974 0.63898 0.04000
H 	H 	0.39421 0.39434 0.63984 0.04600
H 	H 	0.04395 0.60550 0.63419 0.03600
C 	C 	0.24114 0.43704 0.65402 0.28500
C 	C 	0.48537 0.58099 0.64671 0.30000
Ni	Ni	0.34796 0.77374 0.64493 1.12100
O 	O 	0.32718 0.65023 0.64648 -0.71400
H 	H 	0.25895 0.61443 0.64724 0.16700
H 	H 	0.06311 0.29525 0.65705 0.04100
Ni	Ni	0.36083 0.62297 0.66849 1.12000
O 	O 	0.24514 0.49885 0.66543 -0.38300
O 	O 	0.42832 0.83844 0.66611 -0.37900
O 	O 	0.43186 0.55624 0.66070 -0.37500
O 	O 	0.23616 0.73186 0.65991 -0.38700
H 	H 	0.66200 0.95622 0.66042 0.04600
C 	C 	0.11349 0.28439 0.66402 -0.00700
C 	C 	0.20862 0.34226 0.66062 -0.06200
C 	C 	0.27250 0.32518 0.66950 -0.01500
H 	H 	0.34612 0.37076 0.66754 0.04400
H 	H 	0.06219 0.68257 0.66896 0.05000
C 	C 	0.49304 0.82122 0.67169 0.30300
C 	C 	0.23017 0.69953 0.67597 0.28200
O 	O 	0.29247 0.67785 0.68222 -0.37600
O 	O 	0.48439 0.73898 0.66953 -0.38800
C 	C 	0.57023 0.88965 0.68231 -0.06100
C 	C 	0.65739 0.94278 0.67434 -0.01900
C 	C 	0.73835 0.96783 0.68383 0.02400
H 	H 	0.80506 0.00352 0.67730 0.01400
C 	C 	0.24300 0.26066 0.68316 -0.00800
C 	C 	0.14978 0.21388 0.68831 -0.05900
C 	C 	0.08420 0.22166 0.67806 -0.01200
H 	H 	0.01130 0.18309 0.68153 0.04600
C 	C 	0.08956 0.71202 0.68171 -0.02500
H 	H 	0.99623 0.76539 0.68493 0.01600
H 	H 	0.29405 0.25365 0.69074 0.04200
C 	C 	0.16833 0.71146 0.68826 -0.05100
C 	C 	0.05199 0.75902 0.69077 0.03200
C 	C 	0.81555 0.95638 0.71080 0.32100
C 	C 	0.12325 0.16758 0.70546 0.27900
O 	O 	0.89024 0.04068 0.71038 -0.42000
O 	O 	0.16187 0.11822 0.71076 -0.38100
C 	C 	0.56564 0.87601 0.70045 -0.01500
C 	C 	0.73232 0.94097 0.70137 -0.08200
C 	C 	0.64625 0.89964 0.70990 0.00200
H 	H 	0.49877 0.83785 0.70687 0.03700
C 	C 	0.19926 0.74509 0.70520 -0.01700
C 	C 	0.09067 0.80276 0.70673 -0.07900
C 	C 	0.06590 0.86903 0.71465 0.32100
O 	O 	0.81249 0.88538 0.71977 -0.37200
O 	O 	0.07796 0.19258 0.71661 -0.36600
O 	O 	0.97778 0.84876 0.71429 -0.39800
O 	O 	0.12928 0.93681 0.72477 -0.37300
H 	H 	0.00461 0.00257 0.71712 0.15800
C 	C 	0.16029 0.79005 0.71443 0.00300
H 	H 	0.25778 0.74255 0.71072 0.04600
Ni	Ni	0.91830 0.88379 0.73476 1.10900
Ni	Ni	0.13259 0.05441 0.73422 1.11700
Ni	Ni	0.96908 0.10103 0.73165 1.10400
O 	O 	0.00461 0.00870 0.72992 -0.71300
H 	H 	0.64141 0.88296 0.72368 0.03900
H 	H 	0.18731 0.81892 0.72723 0.04400
O 	O 	0.17049 0.17900 0.74528 -0.38800
O 	O 	0.00001 0.85133 0.75043 -0.36700
O 	O 	0.85019 0.02600 0.74573 -0.41600
C 	C 	0.06046 0.90999 0.76173 0.34300
C 	C 	0.84383 0.97344 0.75912 0.31100
C 	C 	0.11990 0.18913 0.75726 0.30300
O 	O 	0.10680 0.00028 0.75863 -0.41700
O 	O 	0.86818 0.90967 0.75763 -0.38200
O 	O 	0.03220 0.16121 0.75428 -0.37900
H 	H 	0.13691 0.35416 0.76662 0.04300
H 	H 	0.66024 0.86320 0.76381 0.04700
C 	C 	0.08589 0.87324 0.77674 -0.09500
H 	H 	0.23298 0.95546 0.77167 0.03300
C 	C 	0.16472 0.24382 0.77307 -0.07200
C 	C 	0.16561 0.32761 0.77625 -0.01200
C 	C 	0.78987 0.97034 0.77451 -0.00800
C 	C 	0.69583 0.90199 0.77548 -0.04500
C 	C 	0.17930 0.90282 0.77992 0.02300
C 	C 	0.01685 0.80749 0.78776 0.03000
H 	H 	0.94474 0.78693 0.78554 0.01300
C 	C 	0.20626 0.21201 0.78503 0.00300
C 	C 	0.20420 0.37763 0.79177 0.00900
C 	C 	0.21190 0.46516 0.79426 -0.03900
H 	H 	0.20981 0.14966 0.78222 0.03400
H 	H 	0.19036 0.49569 0.78408 0.04200
C 	C 	0.83638 0.02003 0.78953 -0.11500
C 	C 	0.65031 0.87667 0.79170 0.03700
C 	C 	0.56138 0.79757 0.79291 -0.05200
H 	H 	0.90958 0.07192 0.78889 0.05100
H 	H 	0.52480 0.76042 0.78121 0.04200
C 	C 	0.20408 0.86496 0.79370 -0.05900
C 	C 	0.13492 0.79502 0.80436 0.01500
C 	C 	0.04114 0.77078 0.80196 0.02300
H 	H 	0.27697 0.89373 0.79654 0.04900
C 	C 	0.24340 0.26036 0.80068 -0.05200
C 	C 	0.23671 0.34013 0.80478 0.00600
C 	C 	0.97381 0.71437 0.81431 -0.05900
C 	C 	0.15801 0.75532 0.81848 -0.00500
C 	C 	0.24530 0.76166 0.81966 -0.04500
H 	H 	0.90200 0.69578 0.81256 0.04000
H 	H 	0.29097 0.78105 0.80846 0.04100
C 	C 	0.24787 0.51416 0.80978 -0.04000
C 	C 	0.26382 0.38532 0.82140 0.00600
H 	H 	0.28108 0.23825 0.80901 0.03900
H 	H 	0.25413 0.58221 0.81137 0.04000
C 	C 	0.79131 0.99777 0.80572 0.06800
C 	C 	0.69734 0.92599 0.80705 -0.03300
C 	C 	0.52155 0.76246 0.80918 -0.03500
H 	H 	0.83198 0.03146 0.81723 -0.01400
H 	H 	0.45478 0.69859 0.80986 0.03700
C 	C 	0.99958 0.68596 0.82942 -0.07800
C 	C 	0.09181 0.70798 0.83179 0.05000
C 	C 	0.27060 0.47372 0.82360 0.00900
H 	H 	0.26265 0.27010 0.83543 0.04000
C 	C 	0.56709 0.80936 0.82451 0.00600
C 	C 	0.65173 0.89553 0.82353 0.00900
C 	C 	0.27291 0.74033 0.83529 -0.00100
H 	H 	0.94772 0.64680 0.83930 0.04000
H 	H 	0.34248 0.75143 0.83643 0.03800
C 	C 	0.27553 0.34083 0.83618 -0.05300
C 	C 	0.29278 0.51740 0.84001 -0.01600
H 	H 	0.29657 0.58421 0.84170 0.03800
C 	C 	0.68723 0.94944 0.83892 -0.00200
C 	C 	0.52816 0.77167 0.84085 -0.01700
H 	H 	0.74260 0.02142 0.83837 -0.00100
H 	H 	0.46582 0.70363 0.84162 0.04300
C 	C 	0.21214 0.70758 0.84961 -0.06400
C 	C 	0.11961 0.68549 0.84747 -0.02800
H 	H 	0.07080 0.65518 0.85819 0.05700
C 	C 	0.29540 0.38455 0.85256 0.00700
C 	C 	0.30153 0.47163 0.85460 -0.07200
C 	C 	0.64651 0.91215 0.85513 -0.01300
C 	C 	0.56846 0.82226 0.85619 -0.06700
C 	C 	0.52630 0.78210 0.87326 0.30000
C 	C 	0.24884 0.70775 0.86707 0.29400
C 	C 	0.29790 0.50618 0.87213 0.29700
O 	O 	0.33569 0.77005 0.87047 -0.37700
O 	O 	0.22426 0.51164 0.87632 -0.38800
H 	H 	0.30015 0.34785 0.86387 0.03400
H 	H 	0.67552 0.95347 0.86686 0.05000
O 	O 	0.35635 0.51164 0.88426 -0.39300
O 	O 	0.51789 0.83459 0.88509 -0.37300
O 	O 	0.49027 0.69209 0.87593 -0.38600
O 	O 	0.19139 0.65954 0.87981 -0.37800
Ni	Ni	0.38912 0.79894 0.89551 1.11500
Ni	Ni	0.43045 0.62776 0.89881 1.11800
Ni	Ni	0.21752 0.58212 0.89708 1.12100
O 	O 	0.34499 0.67169 0.90026 -0.71700
H 	H 	0.20240 0.30167 0.90807 0.03900
H 	H 	0.15651 0.86136 0.90386 0.05200
C 	C 	0.20398 0.73493 0.91504 0.28800
O 	O 	0.26912 0.79680 0.90444 -0.36600
O 	O 	0.18643 0.64728 0.91626 -0.37500
O 	O 	0.21479 0.48594 0.91432 -0.37000
O 	O 	0.52485 0.73996 0.91325 -0.36800
H 	H 	0.34039 0.67332 0.91307 0.15100
C 	C 	0.12879 0.83296 0.91664 -0.00600
H 	H 	0.08120 0.93023 0.92114 0.05600
C 	C 	0.50247 0.78660 0.92463 0.27300
C 	C 	0.28712 0.47939 0.92017 0.28600
O 	O 	0.37253 0.55180 0.92026 -0.39300
O 	O 	0.45537 0.82778 0.91958 -0.36200
C 	C 	0.22293 0.30757 0.92166 -0.01400
C 	C 	0.26916 0.39523 0.92981 -0.06000
C 	C 	0.20005 0.22687 0.93123 -0.00700
H 	H 	0.15856 0.15897 0.92516 0.02600
C 	C 	0.14125 0.76161 0.92376 -0.05800
C 	C 	0.08463 0.87117 0.92634 -0.00700
C 	C 	0.55014 0.81286 0.94158 -0.04200
H 	H 	0.58931 0.95818 0.93935 0.06300
C 	C 	0.21896 0.23311 0.94922 -0.07500
C 	C 	0.09992 0.72195 0.93985 -0.00900
C 	C 	0.05175 0.83799 0.94322 -0.05300
C 	C 	0.15228 0.15803 0.96047 0.30500
C 	C 	0.03432 0.89626 0.95562 0.28500
Ni	Ni	0.95562 0.02588 0.96280 1.08700
O 	O 	0.01250 0.95866 0.94935 -0.34600
O 	O 	0.07101 0.15002 0.96264 -0.38500
C 	C 	0.59625 0.90653 0.94686 -0.03600
C 	C 	0.55797 0.74646 0.95168 -0.02300
C 	C 	0.65995 0.93583 0.96054 0.06600
H 	H 	0.51989 0.67317 0.94810 0.04400
H 	H 	0.70562 0.00993 0.96246 -0.00900
C 	C 	0.30067 0.40237 0.94705 -0.01100
C 	C 	0.27623 0.32140 0.95668 -0.00400
H 	H 	0.34008 0.47021 0.95324 0.04400
C 	C 	0.05432 0.75919 0.94943 -0.00900
H 	H 	0.10663 0.66526 0.94531 0.04900
O 	O 	0.83230 0.90890 0.96537 -0.37600
O 	O 	0.16935 0.09340 0.96644 -0.39700
O 	O 	0.88775 0.09655 0.96991 -0.39700
O 	O 	0.06114 0.89925 0.97202 -0.36800
C 	C 	0.61960 0.77549 0.96582 0.00600
C 	C 	0.67629 0.87119 0.96944 -0.08500
H 	H 	0.29369 0.32727 0.97043 0.04000
H 	H 	0.02612 0.73051 0.96217 0.04800
C 	C 	0.76940 0.90409 0.97647 0.29800
C 	C 	0.90988 0.15066 0.98383 0.30100
Ni	Ni	0.10129 0.01091 0.98729 1.09900
O 	O 	0.97949 0.99137 0.98505 -0.68200
H 	H 	0.94386 0.92264 0.98428 0.16000
C 	C 	0.89586 0.28292 0.99514 -0.00800
C 	C 	0.85173 0.19019 0.98909 -0.07800
C 	C 	0.75972 0.12866 0.99429 -0.01900
H 	H 	0.96554 0.33244 0.99079 0.03600
H 	H 	0.72451 0.05704 0.98997 0.03200
H 	H 	0.63030 0.72458 0.97274 0.03500
O 	O 	0.79291 0.94840 0.99199 -0.33900
O 	O 	0.14297 0.13082 0.00042 -0.39200
O 	O 	0.96088 0.14361 0.99582 -0.39200
H 	H 	0.92914 0.70321 0.99844 0.03500
