data_crystal

_cell_length_a 39.47684
_cell_length_b 71.68081
_cell_length_c 27.35577
_cell_angle_alpha 90.00190
_cell_angle_beta  89.99995
_cell_angle_gamma 90.00060

_symmetry_space_group_name_	'P 1'
_symmetry_space_group_name_H-M	'P 1'

loop_
_symmetry_equiv_pos_as_xyz
  x,y,z

loop_
_atom_site_label
_atom_site_type_symbol
_atom_site_fract_x
_atom_site_fract_y
_atom_site_fract_z
_atom_site_charge
C 	C 	0.02066 0.00185 0.07674 -0.03900
C 	C 	0.49029 0.00393 0.57584 -0.03800
H 	H 	0.45821 0.00609 0.46018 0.03900
C 	C 	0.99414 0.00588 0.99738 -0.04700
H 	H 	0.03104 0.00769 0.11004 0.04000
C 	C 	0.47902 0.01178 0.53175 0.00000
C 	C 	0.00769 0.01362 0.04025 0.00900
H 	H 	0.49967 0.01281 0.60490 0.03800
H 	H 	0.98419 0.01486 0.96894 0.03700
C 	C 	0.00751 0.03400 0.04750 0.02400
C 	C 	0.48017 0.03215 0.52458 0.02600
H 	H 	0.53482 0.03367 0.52686 0.04400
H 	H 	0.06207 0.03645 0.04917 0.04700
H 	H 	0.95292 0.03619 0.04751 0.04500
H 	H 	0.42579 0.03525 0.52077 0.04600
C 	C 	0.45004 0.04230 0.51914 -0.06600
C 	C 	0.51142 0.04142 0.52282 -0.06700
C 	C 	0.03814 0.04378 0.05204 -0.06500
C 	C 	0.97669 0.04364 0.05083 -0.06500
C 	C 	0.45113 0.06158 0.51155 0.01500
C 	C 	0.51258 0.06069 0.51515 0.01100
C 	C 	0.03795 0.06301 0.06054 0.01500
C 	C 	0.97644 0.06287 0.05934 0.01100
H 	H 	0.06179 0.07037 0.06406 0.04100
H 	H 	0.95243 0.07007 0.06278 0.02300
H 	H 	0.20738 0.07112 0.30946 0.03700
H 	H 	0.26546 0.07150 0.34306 0.03800
C 	C 	0.48245 0.07090 0.50930 -0.08700
H 	H 	0.42765 0.06923 0.50747 0.04100
H 	H 	0.53692 0.06763 0.51302 0.02300
C 	C 	0.00706 0.07267 0.06456 -0.08600
C 	C 	0.22605 0.08055 0.29418 -0.03900
C 	C 	0.25893 0.08077 0.31324 -0.03900
H 	H 	0.34581 0.08945 0.25614 0.04400
H 	H 	0.18980 0.08748 0.16672 0.04600
C 	C 	0.48384 0.09113 0.49901 0.28700
C 	C 	0.34613 0.09430 0.29365 -0.07000
C 	C 	0.28294 0.09345 0.29506 -0.00200
C 	C 	0.21695 0.09298 0.25677 -0.00100
C 	C 	0.18115 0.09499 0.24220 0.02600
C 	C 	0.17169 0.09270 0.19313 -0.06900
C 	C 	0.00662 0.09279 0.07639 0.28800
C 	C 	0.31579 0.09584 0.32007 0.02600
C 	C 	0.13930 0.09795 0.17762 0.01600
H 	H 	0.39990 0.09900 0.29368 0.02700
H 	H 	0.13263 0.09655 0.13939 0.03800
O 	O 	0.50979 0.10091 0.51531 -0.38600
O 	O 	0.45658 0.09961 0.48223 -0.36300
O 	O 	0.03438 0.10077 0.09319 -0.36300
C 	C 	0.37678 0.09978 0.31489 0.01200
C 	C 	0.31666 0.10175 0.36896 -0.06900
C 	C 	0.15722 0.10134 0.27626 -0.07000
H 	H 	0.29340 0.10291 0.38977 0.04400
H 	H 	0.16418 0.10299 0.31433 0.04200
O 	O 	0.98083 0.10305 0.06174 -0.38500
C 	C 	0.37735 0.10684 0.36281 -0.09900
C 	C 	0.34728 0.10716 0.39030 0.01300
C 	C 	0.27430 0.10519 0.25593 -0.03900
C 	C 	0.24148 0.10494 0.23686 -0.03900
C 	C 	0.11613 0.10565 0.21107 -0.09900
C 	C 	0.12485 0.10658 0.26086 0.01000
H 	H 	0.50669 0.11095 0.39864 0.16300
H 	H 	0.98533 0.11087 0.17958 0.16300
H 	H 	0.63335 0.11013 0.40414 0.03000
H 	H 	0.85911 0.11059 0.17809 0.03100
C 	C 	0.40851 0.11543 0.38243 0.29100
C 	C 	0.08427 0.11425 0.19349 0.29100
H 	H 	0.34735 0.11237 0.42747 0.03200
H 	H 	0.29263 0.11502 0.24160 0.03500
H 	H 	0.23473 0.11459 0.20797 0.03600
H 	H 	0.10706 0.11204 0.28739 0.02000
H 	H 	0.69033 0.11337 0.36846 0.04400
H 	H 	0.80232 0.11367 0.21451 0.04500
O 	O 	0.41219 0.11761 0.42978 -0.37500
O 	O 	0.07991 0.11737 0.14663 -0.37400
O 	O 	0.06270 0.12129 0.22494 -0.44200
Cu	Cu	0.53517 0.11978 0.47618 0.89300
O 	O 	0.50426 0.12090 0.42351 -0.64000
O 	O 	0.43033 0.12317 0.35248 -0.44300
Cu	Cu	0.95627 0.12128 0.10383 0.89300
O 	O 	0.98776 0.12123 0.15588 -0.63900
C 	C 	0.63956 0.12256 0.38350 0.01300
C 	C 	0.85306 0.12289 0.19937 0.01400
Cu	Cu	0.45686 0.12461 0.45783 0.92800
O 	O 	0.57694 0.12384 0.43647 -0.39600
Cu	Cu	0.03497 0.12525 0.12107 0.92800
O 	O 	0.91510 0.12470 0.14507 -0.39600
C 	C 	0.67188 0.12438 0.36322 -0.06800
C 	C 	0.82086 0.12462 0.22007 -0.06700
C 	C 	0.58097 0.13465 0.39759 0.29200
C 	C 	0.91152 0.13507 0.18483 0.29200
C 	C 	0.61520 0.13661 0.37643 -0.08800
C 	C 	0.87750 0.13687 0.20674 -0.08800
O 	O 	0.46620 0.13696 0.52307 -0.36500
O 	O 	0.55485 0.14141 0.37307 -0.38800
O 	O 	0.02523 0.13899 0.05788 -0.36300
O 	O 	0.93793 0.14139 0.20952 -0.38800
C 	C 	0.68024 0.14024 0.33574 0.02600
C 	C 	0.71414 0.14189 0.31341 -0.00100
C 	C 	0.74317 0.14203 0.34304 -0.03900
C 	C 	0.77538 0.14202 0.32178 -0.03900
C 	C 	0.77882 0.14194 0.27071 -0.00100
C 	C 	0.74979 0.14239 0.24110 -0.03900
C 	C 	0.71758 0.14233 0.26236 -0.03900
C 	C 	0.81269 0.14033 0.24829 0.02600
H 	H 	0.74077 0.14182 0.38249 0.03700
H 	H 	0.79763 0.14169 0.34494 0.03700
H 	H 	0.75219 0.14246 0.20165 0.03800
H 	H 	0.69533 0.14225 0.23919 0.03800
Cu	Cu	0.50993 0.14581 0.39902 0.89400
Cu	Cu	0.05245 0.14712 0.22261 0.86600
Cu	Cu	0.98289 0.14574 0.18348 0.89400
Cu	Cu	0.44115 0.14885 0.35943 0.86600
O 	O 	0.46252 0.14853 0.42313 -0.64400
C 	C 	0.49146 0.14879 0.52838 0.28000
O 	O 	0.51869 0.14714 0.50098 -0.39700
O 	O 	0.03035 0.14845 0.15935 -0.64300
O 	O 	0.97309 0.14898 0.08236 -0.39700
C 	C 	0.62364 0.15252 0.34901 0.01300
C 	C 	0.86929 0.15260 0.23502 0.01300
C 	C 	0.00005 0.15097 0.05458 0.28500
C 	C 	0.65602 0.15432 0.32878 -0.06700
C 	C 	0.83702 0.15432 0.25568 -0.06600
H 	H 	0.45863 0.15996 0.44267 0.17300
H 	H 	0.03456 0.16022 0.14141 0.17300
H 	H 	0.66229 0.16666 0.30775 0.04500
H 	H 	0.60521 0.16353 0.34361 0.03400
H 	H 	0.88779 0.16356 0.24068 0.03500
H 	H 	0.83091 0.16653 0.27730 0.04500
C 	C 	0.48863 0.16437 0.56366 -0.09000
H 	H 	0.44477 0.15303 0.60088 0.03600
O 	O 	0.51202 0.17033 0.36680 -0.38600
O 	O 	0.98190 0.16973 0.21830 -0.38300
O 	O 	0.03872 0.17211 0.23676 -0.42100
C 	C 	0.00229 0.16680 0.02025 -0.09900
H 	H 	0.05703 0.16844 0.02273 0.02600
H 	H 	0.94810 0.16891 0.00960 0.02600
C 	C 	0.46270 0.16444 0.59892 0.01100
O 	O 	0.45497 0.17416 0.35063 -0.42300
C 	C 	0.00699 0.17721 0.24382 0.28500
C 	C 	0.03402 0.17422 0.00738 0.03000
C 	C 	0.97271 0.17459 0.00032 0.03100
C 	C 	0.51177 0.17927 0.56206 0.01000
H 	H 	0.53180 0.17950 0.53501 0.03100
C 	C 	0.48675 0.17966 0.34627 0.28600
H 	H 	0.03964 0.18681 0.32705 0.01900
H 	H 	0.54490 0.18996 0.30029 0.03300
C 	C 	0.45991 0.17925 0.63197 -0.06700
C 	C 	0.03608 0.18933 0.97516 -0.08500
C 	C 	0.97481 0.18966 0.96805 -0.08500
C 	C 	0.01987 0.19658 0.31709 0.01200
C 	C 	0.00013 0.19352 0.27515 -0.08900
C 	C 	0.50902 0.19401 0.59528 -0.06700
H 	H 	0.48695 0.19223 0.72919 0.03700
H 	H 	0.43974 0.17920 0.65884 0.04400
H 	H 	0.98968 0.19855 0.85943 0.03600
H 	H 	0.06064 0.19502 0.96566 0.04700
H 	H 	0.95182 0.19563 0.95311 0.04700
C 	C 	0.52516 0.20042 0.29813 0.01100
C 	C 	0.49393 0.19757 0.32165 -0.08900
C 	C 	0.48305 0.19408 0.63029 0.02500
C 	C 	0.00648 0.19712 0.95545 0.03600
C 	C 	0.97429 0.20621 0.26310 0.01500
H 	H 	0.95895 0.20407 0.23075 0.03500
H 	H 	0.52714 0.20535 0.59388 0.04400
C 	C 	0.01414 0.21222 0.34637 -0.06800
H 	H 	0.02970 0.21450 0.37845 0.04400
C 	C 	0.53050 0.21649 0.27014 -0.06700
C 	C 	0.46871 0.21136 0.31860 0.01200
H 	H 	0.55440 0.21837 0.25131 0.04500
H 	H 	0.44475 0.20954 0.33732 0.03000
C 	C 	0.48364 0.20632 0.71572 -0.04000
C 	C 	0.99789 0.21189 0.87384 -0.03800
C 	C 	0.00854 0.21339 0.92263 -0.00600
C 	C 	0.48030 0.20965 0.66538 -0.00100
C 	C 	0.98864 0.22499 0.33405 0.02600
C 	C 	0.96866 0.22192 0.29239 -0.06800
H 	H 	0.96448 0.22651 0.42665 0.03700
H 	H 	0.51659 0.22838 0.16785 0.03700
C 	C 	0.48366 0.22124 0.74866 -0.03900
H 	H 	0.48682 0.21856 0.78737 0.03600
C 	C 	0.99701 0.22769 0.84392 -0.04000
H 	H 	0.98791 0.22650 0.80668 0.03700
C 	C 	0.50469 0.22983 0.26538 0.02600
C 	C 	0.47402 0.22736 0.29047 -0.06800
C 	C 	0.97193 0.24002 0.41256 -0.03900
H 	H 	0.94889 0.23172 0.28263 0.04600
C 	C 	0.47591 0.22797 0.64842 -0.04000
C 	C 	0.01941 0.23069 0.94076 -0.03800
H 	H 	0.02777 0.23197 0.97834 0.03500
C 	C 	0.98346 0.24177 0.36426 -0.00100
C 	C 	0.51381 0.24249 0.18146 -0.03900
H 	H 	0.45398 0.23761 0.28718 0.04400
H 	H 	0.47296 0.23067 0.60968 0.03700
H 	H 	0.96247 0.25408 0.48066 0.03700
C 	C 	0.50880 0.24572 0.23155 -0.00100
C 	C 	0.48054 0.23962 0.73150 -0.00100
H 	H 	0.53487 0.24741 0.78842 0.04300
C 	C 	0.00673 0.24512 0.86259 -0.00100
C 	C 	0.01849 0.24650 0.91087 -0.04100
C 	C 	0.97090 0.25562 0.44318 -0.03900
C 	C 	0.51416 0.25743 0.14862 -0.03900
H 	H 	0.51759 0.25476 0.10994 0.03800
C 	C 	0.47613 0.24289 0.68131 -0.03900
H 	H 	0.04087 0.25538 0.78078 0.04500
C 	C 	0.99283 0.25937 0.34630 -0.03900
H 	H 	0.00177 0.26084 0.30905 0.03800
C 	C 	0.48457 0.25548 0.76545 0.02500
C 	C 	0.51501 0.25779 0.79123 -0.06800
C 	C 	0.02138 0.26525 0.79120 -0.06800
C 	C 	0.00173 0.26212 0.83315 0.02600
H 	H 	0.02617 0.25989 0.92552 0.03600
C 	C 	0.50519 0.26408 0.24868 -0.03900
H 	H 	0.50156 0.26673 0.28731 0.03700
H 	H 	0.47374 0.25702 0.66767 0.03600
C 	C 	0.98147 0.27310 0.42578 -0.00000
C 	C 	0.99187 0.27497 0.37695 -0.03900
H 	H 	0.02018 0.27632 0.50710 0.04400
C 	C 	0.50930 0.27572 0.16552 -0.00000
H 	H 	0.96128 0.27265 0.87864 0.04300
C 	C 	0.50534 0.27901 0.21578 -0.03900
C 	C 	0.45898 0.26898 0.76961 -0.06800
C 	C 	0.52036 0.27378 0.81936 0.01200
H 	H 	0.43524 0.26723 0.75027 0.04400
H 	H 	0.54416 0.27548 0.83858 0.02900
C 	C 	0.01575 0.28110 0.76244 0.01600
C 	C 	0.97659 0.27499 0.84633 -0.06900
H 	H 	0.03081 0.28328 0.72984 0.03300
C 	C 	0.00499 0.28862 0.49999 -0.06600
C 	C 	0.98336 0.28919 0.45932 0.02500
H 	H 	0.00002 0.28841 0.36314 0.03800
H 	H 	0.46320 0.27983 0.09296 0.04500
C 	C 	0.50670 0.29129 0.13041 0.02500
C 	C 	0.48112 0.29126 0.09481 -0.06600
H 	H 	0.50165 0.29309 0.22921 0.03800
C 	C 	0.49540 0.28774 0.82175 -0.09000
C 	C 	0.46436 0.28504 0.79762 0.01100
C 	C 	0.99023 0.29387 0.77531 -0.09100
C 	C 	0.97085 0.29077 0.81758 0.01200
H 	H 	0.02381 0.30323 0.56292 0.03000
C 	C 	0.52960 0.30623 0.13267 -0.06600
H 	H 	0.54946 0.30635 0.15999 0.04500
C 	C 	0.00722 0.30393 0.53144 0.01000
C 	C 	0.96394 0.30522 0.45034 -0.06700
H 	H 	0.94713 0.30578 0.41906 0.04500
H 	H 	0.44481 0.29564 0.79928 0.03300
C 	C 	0.50277 0.30565 0.84619 0.28600
C 	C 	0.98325 0.31028 0.74440 0.28400
H 	H 	0.95134 0.30060 0.82817 0.01900
C 	C 	0.52695 0.32103 0.09960 0.01100
C 	C 	0.47852 0.30600 0.06158 0.01000
H 	H 	0.45881 0.30568 0.03405 0.03300
O 	O 	0.47754 0.31524 0.86604 -0.38700
O 	O 	0.53460 0.31104 0.85059 -0.42400
O 	O 	0.00823 0.31779 0.71872 -0.38400
O 	O 	0.95149 0.31542 0.73779 -0.42100
C 	C 	0.98790 0.32004 0.52243 -0.09000
C 	C 	0.96619 0.32057 0.48171 0.01200
C 	C 	0.50140 0.32101 0.06375 -0.08800
H 	H 	0.15900 0.32059 0.77668 0.04500
H 	H 	0.53108 0.32524 0.94244 0.17100
H 	H 	0.95558 0.32712 0.64216 0.17300
H 	H 	0.54467 0.33253 0.10201 0.03700
H 	H 	0.38447 0.32258 0.84290 0.03300
H 	H 	0.32735 0.31986 0.80692 0.04400
H 	H 	0.10208 0.32378 0.74031 0.03400
C 	C 	0.99034 0.33626 0.55556 0.28000
H 	H 	0.95128 0.33292 0.47411 0.03600
C 	C 	0.33381 0.33208 0.82829 -0.06700
C 	C 	0.15292 0.33288 0.75538 -0.06700
O 	O 	0.52736 0.33669 0.92293 -0.64500
C 	C 	0.49873 0.33658 0.02847 0.28000
O 	O 	0.47147 0.33834 0.00118 -0.39100
O 	O 	0.95970 0.33894 0.65991 -0.64300
O 	O 	0.01730 0.33846 0.58325 -0.39700
C 	C 	0.36621 0.33366 0.84858 0.01200
C 	C 	0.12063 0.33472 0.73486 0.01200
Cu	Cu	0.54868 0.33631 0.85921 0.86600
Cu	Cu	0.47999 0.33964 0.89887 0.89300
O 	O 	0.52419 0.34826 0.02293 -0.36000
Cu	Cu	0.93766 0.34037 0.72320 0.86500
Cu	Cu	0.00710 0.34179 0.68407 0.89400
O 	O 	0.96513 0.34824 0.55836 -0.36400
O 	O 	0.05201 0.34622 0.71015 -0.38800
C 	C 	0.30980 0.34624 0.83563 0.02600
C 	C 	0.27587 0.34483 0.81328 -0.00100
C 	C 	0.27241 0.34460 0.76222 -0.03900
C 	C 	0.24020 0.34473 0.74099 -0.03900
C 	C 	0.21118 0.34513 0.77063 -0.00100
C 	C 	0.21464 0.34484 0.82169 -0.03900
C 	C 	0.24685 0.34467 0.84292 -0.03900
C 	C 	0.17731 0.34686 0.74828 0.02500
H 	H 	0.29466 0.34472 0.73903 0.03700
H 	H 	0.23778 0.34481 0.70154 0.03700
H 	H 	0.19240 0.34514 0.84488 0.03700
H 	H 	0.24927 0.34470 0.88237 0.03600
O 	O 	0.43514 0.34431 0.87303 -0.38900
C 	C 	0.40913 0.35114 0.89767 0.29200
C 	C 	0.07839 0.35252 0.68535 0.29200
C 	C 	0.37487 0.34942 0.87645 -0.08900
C 	C 	0.11246 0.35057 0.70702 -0.08800
Cu	Cu	0.53346 0.36057 0.95765 0.92600
Cu	Cu	0.95498 0.36205 0.62130 0.92800
O 	O 	0.07473 0.36313 0.64607 -0.39600
Cu	Cu	0.45524 0.36574 0.97633 0.88900
O 	O 	0.48603 0.36450 0.92355 -0.64100
O 	O 	0.57807 0.36743 0.92920 -0.37700
O 	O 	0.55947 0.36198 0.85211 -0.44200
O 	O 	0.41330 0.36172 0.93695 -0.39800
Cu	Cu	0.03369 0.36628 0.60442 0.89300
O 	O 	0.00206 0.36628 0.65632 -0.63900
O 	O 	0.90989 0.36980 0.64650 -0.37400
O 	O 	0.92687 0.36616 0.72507 -0.44400
C 	C 	0.31839 0.36196 0.86354 -0.06800
C 	C 	0.35073 0.36355 0.88388 0.01300
C 	C 	0.13697 0.36453 0.69990 0.01300
C 	C 	0.16919 0.36268 0.72047 -0.06800
H 	H 	0.78991 0.37500 0.83365 0.03400
H 	H 	0.73199 0.37438 0.86718 0.03500
H 	H 	0.60499 0.36823 0.78831 0.01800
C 	C 	0.58144 0.36972 0.88184 0.29000
C 	C 	0.90538 0.37303 0.69327 0.29100
H 	H 	0.30010 0.37303 0.86908 0.04400
H 	H 	0.18778 0.37362 0.71513 0.04400
C 	C 	0.77039 0.38350 0.81693 -0.04000
C 	C 	0.73756 0.38314 0.83592 -0.04000
H 	H 	0.48372 0.37448 0.89875 0.16300
O 	O 	0.00902 0.38439 0.56210 -0.38500
H 	H 	0.00431 0.37666 0.67999 0.16200
H 	H 	0.35712 0.37587 0.90488 0.02900
H 	H 	0.13096 0.37692 0.67895 0.03000
C 	C 	0.87346 0.38150 0.71049 -0.10000
C 	C 	0.87201 0.39011 0.75658 0.01200
C 	C 	0.61242 0.37853 0.86199 -0.09900
C 	C 	0.62172 0.37564 0.81295 0.01000
C 	C 	0.65342 0.38148 0.79617 -0.07000
H 	H 	0.89494 0.39225 0.77760 0.02600
H 	H 	0.66092 0.37841 0.75893 0.04200
O 	O 	0.48088 0.38463 0.01506 -0.37500
O 	O 	0.53418 0.38555 0.98215 -0.36000
O 	O 	0.95535 0.38648 0.59316 -0.36300
C 	C 	0.84079 0.39536 0.77643 -0.07000
C 	C 	0.81074 0.39199 0.75047 0.02600
C 	C 	0.84360 0.37940 0.68309 0.01300
C 	C 	0.77761 0.39404 0.77495 -0.00200
C 	C 	0.71159 0.39326 0.81306 -0.00200
C 	C 	0.67610 0.39034 0.82808 0.02600
H 	H 	0.83984 0.40141 0.81269 0.04300
H 	H 	0.84434 0.37297 0.64726 0.03100
C 	C 	0.50700 0.39421 0.99853 0.26500
C 	C 	0.98307 0.39456 0.57659 0.28700
C 	C 	0.81240 0.38455 0.70307 -0.06900
C 	C 	0.66598 0.39439 0.87608 -0.06900
C 	C 	0.63425 0.38858 0.89295 0.01500
H 	H 	0.62704 0.39144 0.93042 0.03700
H 	H 	0.78937 0.38198 0.68259 0.04400
H 	H 	0.68312 0.40150 0.90077 0.04500
C 	C 	0.98244 0.41469 0.56487 -0.08800
C 	C 	0.71915 0.40458 0.77263 -0.04000
C 	C 	0.75206 0.40499 0.75369 -0.03900
H 	H 	0.47364 0.41396 0.06877 0.03600
H 	H 	0.92768 0.41681 0.56436 0.04100
H 	H 	0.03704 0.41747 0.56310 0.02200
H 	H 	0.69934 0.41259 0.75502 0.03700
C 	C 	0.50879 0.41447 0.00797 -0.06400
C 	C 	0.95144 0.42425 0.56102 0.01500
C 	C 	0.01296 0.42460 0.55982 0.01100
H 	H 	0.75746 0.41336 0.72163 0.03700
C 	C 	0.52924 0.42589 0.97842 -0.00300
C 	C 	0.48927 0.42258 0.04535 0.00500
H 	H 	0.54428 0.41985 0.94931 0.03600
C 	C 	0.95104 0.44351 0.55301 -0.06600
C 	C 	0.01249 0.44386 0.55175 -0.06700
C 	C 	0.48988 0.44188 0.05259 -0.06300
H 	H 	0.92703 0.45077 0.55033 0.04600
H 	H 	0.03617 0.45140 0.54854 0.04400
C 	C 	0.52980 0.44519 0.98570 -0.07100
H 	H 	0.47452 0.44801 0.08121 0.04400
C 	C 	0.98155 0.45340 0.54873 0.02600
C 	C 	0.50996 0.45327 0.02259 0.03000
H 	H 	0.54549 0.45387 0.96251 0.04400
C 	C 	0.98112 0.47381 0.54193 -0.00100
H 	H 	0.00351 0.47283 0.46986 0.03800
H 	H 	0.53248 0.47269 0.10114 0.03900
C 	C 	0.99366 0.48169 0.49862 -0.03900
H 	H 	0.95878 0.47945 0.61257 0.03800
C 	C 	0.50978 0.47367 0.02926 0.00700
C 	C 	0.52234 0.48155 0.07257 -0.03900
C 	C 	0.96839 0.48542 0.57893 -0.03900
C 	C 	0.49682 0.48529 0.99244 -0.04700
H 	H 	0.48700 0.47932 0.95892 0.03700
C 	C 	0.99340 0.50104 0.49230 -0.03900
C 	C 	0.96814 0.50477 0.57261 -0.03900
H 	H 	0.00315 0.50702 0.45875 0.03700
C 	C 	0.52183 0.50089 0.07909 -0.04000
H 	H 	0.53141 0.50685 0.11277 0.03900
C 	C 	0.98061 0.51266 0.52925 -0.00100
C 	C 	0.50875 0.51250 0.04235 0.00900
C 	C 	0.49630 0.50463 0.99896 -0.04900
H 	H 	0.95814 0.51363 0.60127 0.03800
H 	H 	0.48622 0.51349 0.97037 0.03700
C 	C 	0.97994 0.53305 0.52229 0.02600
H 	H 	0.94406 0.53205 0.46269 0.04600
C 	C 	0.50769 0.53287 0.04960 0.02400
H 	H 	0.45301 0.53435 0.04967 0.04500
C 	C 	0.95964 0.54090 0.48561 -0.06600
C 	C 	0.99988 0.54465 0.55193 -0.06700
H 	H 	0.01560 0.53869 0.58039 0.04400
C 	C 	0.53788 0.54303 0.05410 -0.06500
C 	C 	0.47646 0.54211 0.05301 -0.06500
H 	H 	0.56211 0.53602 0.05116 0.04700
C 	C 	0.95953 0.56019 0.47822 0.01200
C 	C 	0.99982 0.56395 0.54458 0.01200
H 	H 	0.94411 0.56606 0.44928 0.03400
H 	H 	0.70364 0.56937 0.31051 0.03700
H 	H 	0.76167 0.56952 0.34429 0.03800
C 	C 	0.53689 0.56224 0.06269 0.01500
C 	C 	0.47540 0.56132 0.06166 0.01100
C 	C 	0.97974 0.57184 0.50749 -0.08700
C 	C 	0.72262 0.57846 0.29467 -0.03900
C 	C 	0.75548 0.57855 0.31382 -0.03900
C 	C 	0.50561 0.57150 0.06689 -0.08600
H 	H 	0.56043 0.56989 0.06620 0.04100
H 	H 	0.45110 0.56821 0.06521 0.02400
H 	H 	0.01532 0.57275 0.56774 0.03300
H 	H 	0.68597 0.58532 0.16693 0.04600
H 	H 	0.78964 0.60138 0.38910 0.04400
C 	C 	0.50439 0.59159 0.07902 0.28800
C 	C 	0.98057 0.59212 0.49812 0.28700
C 	C 	0.63609 0.59660 0.17825 0.01600
C 	C 	0.66828 0.59088 0.19347 -0.06900
C 	C 	0.67814 0.59313 0.24241 0.02600
C 	C 	0.71393 0.59068 0.25657 -0.00100
C 	C 	0.77986 0.59087 0.29501 -0.00200
C 	C 	0.81252 0.59341 0.32042 0.02600
C 	C 	0.84348 0.60578 0.38992 0.01300
C 	C 	0.81304 0.59997 0.36875 -0.06900
H 	H 	0.62913 0.59521 0.14013 0.03700
H 	H 	0.84326 0.61154 0.42653 0.03200
O 	O 	0.53202 0.59990 0.09511 -0.36300
O 	O 	0.00644 0.60205 0.51405 -0.38700
O 	O 	0.95287 0.60043 0.48234 -0.36200
C 	C 	0.61350 0.60471 0.21186 -0.09800
C 	C 	0.65473 0.59993 0.27663 -0.07000
C 	C 	0.84306 0.59152 0.29462 -0.07000
C 	C 	0.87351 0.59739 0.31569 0.01200
C 	C 	0.87370 0.60519 0.36281 -0.09900
H 	H 	0.84301 0.58614 0.25759 0.04400
O 	O 	0.47803 0.60153 0.06493 -0.38500
C 	C 	0.58191 0.61367 0.19458 0.29100
H 	H 	0.48361 0.60981 0.18250 0.16300
C 	C 	0.90451 0.61440 0.38161 0.29100
H 	H 	0.00264 0.61132 0.39742 0.16200
H 	H 	0.28149 0.61255 0.30959 0.03700
H 	H 	0.22400 0.61299 0.34502 0.03700
C 	C 	0.62256 0.60563 0.26152 0.01000
C 	C 	0.77167 0.60227 0.25500 -0.03900
C 	C 	0.73888 0.60217 0.23587 -0.03900
H 	H 	0.66199 0.60157 0.31458 0.04200
H 	H 	0.60520 0.61142 0.28816 0.02000
H 	H 	0.89678 0.59638 0.29486 0.02700
Cu	Cu	0.45343 0.61972 0.10719 0.89300
O 	O 	0.48549 0.62011 0.15852 -0.63900
O 	O 	0.57743 0.61686 0.14778 -0.37400
O 	O 	0.56058 0.62078 0.22626 -0.44300
O 	O 	0.41264 0.62295 0.14942 -0.39500
Cu	Cu	0.03108 0.62102 0.47428 0.89300
O 	O 	0.00002 0.62147 0.42170 -0.63900
O 	O 	0.90802 0.61734 0.42868 -0.37500
O 	O 	0.92596 0.62203 0.35097 -0.44400
O 	O 	0.07265 0.62514 0.43420 -0.39500
Cu	Cu	0.53221 0.62442 0.12265 0.92800
C 	C 	0.40920 0.63384 0.18821 0.29200
Cu	Cu	0.95250 0.62511 0.45593 0.92800
C 	C 	0.26494 0.62430 0.30248 -0.03900
C 	C 	0.23238 0.62455 0.32254 -0.03900
H 	H 	0.79031 0.61181 0.24014 0.03500
H 	H 	0.73245 0.61163 0.20640 0.03600
Cu	Cu	0.55012 0.64660 0.22353 0.86600
Cu	Cu	0.48033 0.64468 0.18578 0.89400
O 	O 	0.52150 0.63794 0.05947 -0.36200
O 	O 	0.43574 0.64010 0.21270 -0.38800
Cu	Cu	0.93558 0.64791 0.35567 0.86600
O 	O 	0.96149 0.63824 0.52021 -0.36500
O 	O 	0.05007 0.64208 0.37000 -0.38800
C 	C 	0.07637 0.63578 0.39497 0.29200
C 	C 	0.37517 0.63601 0.20989 -0.08800
C 	C 	0.37125 0.63758 0.26080 0.01500
C 	C 	0.33889 0.63889 0.28128 -0.06800
C 	C 	0.31015 0.63865 0.25113 0.02600
C 	C 	0.31402 0.63740 0.20027 -0.06700
C 	C 	0.34636 0.63610 0.17972 0.01400
C 	C 	0.27598 0.63909 0.27291 -0.00100
C 	C 	0.21060 0.63961 0.31327 -0.00100
C 	C 	0.17613 0.63977 0.33415 0.02600
C 	C 	0.17159 0.63955 0.38501 -0.06800
C 	C 	0.13900 0.63861 0.40483 0.01400
C 	C 	0.11059 0.63790 0.37396 -0.08800
C 	C 	0.11514 0.63856 0.32303 0.01500
C 	C 	0.14776 0.63946 0.30325 -0.06800
H 	H 	0.39320 0.63748 0.28457 0.03300
H 	H 	0.33613 0.63993 0.32060 0.04500
H 	H 	0.29196 0.63723 0.17671 0.04500
H 	H 	0.34901 0.63511 0.14039 0.02900
H 	H 	0.19333 0.63996 0.40917 0.04400
H 	H 	0.13584 0.63837 0.44417 0.02800
H 	H 	0.09349 0.63796 0.29874 0.03200
H 	H 	0.15102 0.63960 0.26392 0.04500
O 	O 	0.52745 0.64766 0.16067 -0.64300
O 	O 	0.46931 0.64750 0.08489 -0.39600
Cu	Cu	0.00495 0.64621 0.39559 0.89400
O 	O 	0.95734 0.64865 0.41924 -0.64300
O 	O 	0.01386 0.64845 0.49760 -0.39700
C 	C 	0.49592 0.64969 0.05649 0.27900
H 	H 	0.53121 0.65942 0.14249 0.17400
C 	C 	0.98661 0.65019 0.52494 0.28000
H 	H 	0.95300 0.66025 0.43790 0.17300
H 	H 	0.53782 0.65379 0.97810 0.03600
C 	C 	0.22166 0.65444 0.28381 -0.03900
C 	C 	0.25423 0.65418 0.26368 -0.03900
C 	C 	0.50429 0.67649 0.24491 0.28400
O 	O 	0.47913 0.66876 0.22008 -0.38300
O 	O 	0.53606 0.67154 0.23749 -0.42100
C 	C 	0.98097 0.67823 0.33706 0.28400
O 	O 	0.00607 0.67045 0.36194 -0.38300
O 	O 	0.94924 0.67305 0.34366 -0.42100
C 	C 	0.98379 0.66586 0.55998 -0.09000
H 	H 	0.93959 0.65477 0.59689 0.03600
C 	C 	0.52068 0.66543 0.98302 0.00100
C 	C 	0.49738 0.66553 0.02192 -0.08200
H 	H 	0.20507 0.66616 0.27660 0.03800
H 	H 	0.26258 0.66568 0.24100 0.03800
H 	H 	0.94925 0.68824 0.25347 0.01900
C 	C 	0.95773 0.66608 0.59505 0.01100
C 	C 	0.00716 0.68066 0.55850 0.01000
H 	H 	0.02727 0.68079 0.53158 0.03100
H 	H 	0.53700 0.68639 0.32785 0.01900
C 	C 	0.98783 0.69484 0.30689 -0.09000
C 	C 	0.96856 0.69811 0.26461 0.01300
C 	C 	0.95511 0.68089 0.62812 -0.06700
C 	C 	0.52157 0.68028 0.94986 -0.06600
C 	C 	0.47526 0.68076 0.02745 0.01900
H 	H 	0.53942 0.68000 0.91978 0.04400
H 	H 	0.45745 0.68118 0.05755 0.03000
C 	C 	0.51712 0.69608 0.31779 0.01300
C 	C 	0.49737 0.69288 0.27593 -0.09000
C 	C 	0.01307 0.70766 0.32052 0.01600
C 	C 	0.97415 0.71408 0.23656 -0.06800
H 	H 	0.02803 0.70536 0.35317 0.03400
H 	H 	0.95893 0.71653 0.20422 0.04400
C 	C 	0.97854 0.69559 0.62665 0.02400
C 	C 	0.00457 0.69540 0.59174 -0.06600
H 	H 	0.98223 0.69349 0.72555 0.03700
H 	H 	0.93487 0.68094 0.65488 0.04400
H 	H 	0.02289 0.70664 0.59048 0.04400
C 	C 	0.49916 0.69531 0.95515 0.02600
C 	C 	0.47613 0.69554 0.99417 -0.07700
C 	C 	0.51120 0.71174 0.34691 -0.06800
C 	C 	0.47142 0.70547 0.26372 0.01600
H 	H 	0.52673 0.71413 0.37896 0.04400
H 	H 	0.45610 0.70322 0.23140 0.03500
C 	C 	0.97918 0.70763 0.71230 -0.04000
H 	H 	0.45119 0.70292 0.88735 0.03600
H 	H 	0.45887 0.70717 0.99866 0.04400
C 	C 	0.48553 0.72440 0.33448 0.02700
C 	C 	0.46560 0.72120 0.29284 -0.06800
H 	H 	0.46082 0.72584 0.42677 0.03700
C 	C 	0.01856 0.72371 0.29246 -0.06800
C 	C 	0.99903 0.72699 0.25047 0.02600
H 	H 	0.02395 0.72977 0.15850 0.03800
C 	C 	0.97924 0.72246 0.74550 -0.03900
C 	C 	0.97608 0.71110 0.66199 -0.00100
H 	H 	0.98217 0.71967 0.78419 0.03600
C 	C 	0.47171 0.71296 0.88748 -0.03900
C 	C 	0.49925 0.71065 0.91931 -0.00200
H 	H 	0.54731 0.72190 0.94313 0.03600
H 	H 	0.44572 0.73092 0.28298 0.04600
C 	C 	0.00392 0.74415 0.22165 -0.00000
C 	C 	0.01586 0.74304 0.17342 -0.03900
H 	H 	0.03784 0.73361 0.30345 0.04600
C 	C 	0.97206 0.72949 0.64531 -0.04000
C 	C 	0.47019 0.72848 0.85667 -0.04000
C 	C 	0.52587 0.72362 0.91881 -0.03900
C 	C 	0.48006 0.74116 0.36463 -0.00100
C 	C 	0.46826 0.73937 0.41278 -0.03900
Cu	Cu	0.44899 0.86089 0.62234 0.92800
Cu	Cu	0.43104 0.83886 0.72327 0.86600
Cu	Cu	0.50085 0.84058 0.68564 0.89400
Cu	Cu	0.52777 0.86551 0.60682 0.89300
C 	C 	0.47694 0.89372 0.57926 0.28700
O 	O 	0.45971 0.84734 0.55924 -0.36400
C 	C 	0.47630 0.80870 0.74453 0.28500
O 	O 	0.49576 0.86515 0.65822 -0.63900
O 	O 	0.45371 0.83768 0.66048 -0.64300
O 	O 	0.40374 0.86845 0.64726 -0.37500
O 	O 	0.42045 0.86466 0.72584 -0.44300
O 	O 	0.50326 0.88382 0.56486 -0.38700
O 	O 	0.54557 0.84512 0.71239 -0.38800
C 	C 	0.57204 0.85151 0.68797 0.29100
C 	C 	0.48514 0.83550 0.55645 0.28100
O 	O 	0.51188 0.83772 0.58457 -0.39700
O 	O 	0.56853 0.86229 0.64897 -0.39600
O 	O 	0.44920 0.88537 0.59470 -0.36200
C 	C 	0.39916 0.87171 0.69400 0.29000
O 	O 	0.50182 0.81663 0.72085 -0.38500
O 	O 	0.44466 0.81385 0.73689 -0.42200
H 	H 	0.49767 0.87546 0.68214 0.16200
H 	H 	0.44986 0.82591 0.64237 0.17300
Cu	Cu	0.02754 0.86167 0.95691 0.92600
Cu	Cu	0.04335 0.83715 0.85905 0.86600
Cu	Cu	0.97439 0.84023 0.89873 0.89300
Cu	Cu	0.94928 0.86644 0.97577 0.88900
C 	C 	0.00057 0.89528 0.99752 0.26800
O 	O 	0.01860 0.84952 0.02249 -0.35900
C 	C 	0.99771 0.80642 0.84579 0.28500
O 	O 	0.98000 0.86521 0.92288 -0.64100
O 	O 	0.02189 0.83765 0.92269 -0.64500
O 	O 	0.07206 0.86867 0.92845 -0.37700
O 	O 	0.05383 0.86284 0.85135 -0.44300
O 	O 	0.97463 0.88557 0.01415 -0.37400
O 	O 	0.92935 0.84454 0.87308 -0.38900
C 	C 	0.90328 0.85127 0.89777 0.29200
C 	C 	0.99338 0.83772 0.02837 0.28100
O 	O 	0.96602 0.83921 0.00120 -0.39100
O 	O 	0.90737 0.86210 0.93660 -0.39800
O 	O 	0.02781 0.88674 0.98083 -0.36200
C 	C 	0.07555 0.87079 0.88106 0.29100
O 	O 	0.97238 0.81573 0.86630 -0.38600
O 	O 	0.02948 0.81183 0.85080 -0.42400
H 	H 	0.97745 0.87510 0.89789 0.16200
H 	H 	0.02585 0.82629 0.94250 0.17000
C 	C 	0.99332 0.98653 0.99120 -0.04900
C 	C 	0.00604 0.97475 0.02785 0.01000
C 	C 	0.01984 0.98249 0.07056 -0.04000
C 	C 	0.00467 0.95433 0.02165 0.02200
C 	C 	0.03472 0.94393 0.01904 -0.06100
C 	C 	0.03345 0.92463 0.01200 0.01000
C 	C 	0.00205 0.91552 0.00747 -0.07200
C 	C 	0.97199 0.92595 0.01066 0.00500
C 	C 	0.97331 0.94525 0.01776 -0.06200
H 	H 	0.98282 0.98068 0.95797 0.03700
H 	H 	0.02965 0.97351 0.09909 0.03900
H 	H 	0.05905 0.95083 0.02206 0.04700
H 	H 	0.05686 0.91678 0.01003 0.04500
H 	H 	0.94762 0.91916 0.00688 0.02600
H 	H 	0.94998 0.95316 0.01998 0.04400
C 	C 	0.10645 0.87957 0.86117 -0.10000
C 	C 	0.13656 0.87955 0.88856 0.01300
C 	C 	0.16701 0.88515 0.86704 -0.07000
C 	C 	0.16765 0.89094 0.81804 0.02600
C 	C 	0.13723 0.89219 0.79170 -0.07000
C 	C 	0.10676 0.88651 0.81313 0.01200
C 	C 	0.20041 0.89345 0.79285 -0.00200
C 	C 	0.22433 0.90619 0.81098 -0.03900
C 	C 	0.25728 0.90638 0.79215 -0.04000
C 	C 	0.26650 0.89386 0.75500 -0.00200
C 	C 	0.24202 0.88190 0.73497 -0.04000
C 	C 	0.20915 0.88169 0.75382 -0.03900
C 	C 	0.30239 0.89169 0.74107 0.02500
C 	C 	0.32592 0.88522 0.77555 -0.07000
C 	C 	0.35829 0.87975 0.76069 0.01000
C 	C 	0.36739 0.88056 0.71103 -0.09900
C 	C 	0.34465 0.88839 0.67717 0.01500
C 	C 	0.31227 0.89387 0.69214 -0.06900
H 	H 	0.13669 0.87444 0.92582 0.03100
H 	H 	0.19033 0.88421 0.88778 0.04300
H 	H 	0.13737 0.89695 0.75411 0.04300
H 	H 	0.08358 0.88706 0.79198 0.02600
H 	H 	0.21772 0.91550 0.84068 0.03700
H 	H 	0.27591 0.91581 0.80749 0.03600
H 	H 	0.24886 0.87220 0.70624 0.03600
H 	H 	0.19087 0.87182 0.73951 0.03400
H 	H 	0.31864 0.88366 0.81351 0.04200
H 	H 	0.37575 0.87419 0.78753 0.01900
H 	H 	0.35164 0.88971 0.63904 0.03800
H 	H 	0.29447 0.89918 0.66540 0.04600
C 	C 	0.60603 0.84952 0.70990 -0.08800
C 	C 	0.63055 0.86351 0.70318 0.01300
C 	C 	0.66278 0.86156 0.72361 -0.06800
C 	C 	0.67092 0.84562 0.75093 0.02500
C 	C 	0.64649 0.83164 0.75778 -0.06700
C 	C 	0.61418 0.83358 0.73737 0.01200
C 	C 	0.70487 0.84374 0.77295 -0.00100
C 	C 	0.73375 0.84340 0.74303 -0.03900
C 	C 	0.76606 0.84337 0.76395 -0.03900
C 	C 	0.76976 0.84364 0.81497 -0.00100
C 	C 	0.74087 0.84335 0.84489 -0.03900
C 	C 	0.70856 0.84342 0.82396 -0.03900
C 	C 	0.80374 0.84537 0.83697 0.02600
C 	C 	0.81206 0.86123 0.86451 -0.06800
C 	C 	0.84447 0.86315 0.88441 0.01300
C 	C 	0.86897 0.84921 0.87691 -0.08900
C 	C 	0.86059 0.83331 0.84942 0.01200
C 	C 	0.82811 0.83140 0.82956 -0.06700
H 	H 	0.62454 0.87598 0.68256 0.03000
H 	H 	0.68139 0.87251 0.71851 0.04400
H 	H 	0.65257 0.81926 0.77874 0.04400
H 	H 	0.59562 0.82262 0.74254 0.03400
H 	H 	0.73115 0.84350 0.70360 0.03700
H 	H 	0.78820 0.84357 0.74055 0.03700
H 	H 	0.74348 0.84340 0.88432 0.03600
H 	H 	0.68642 0.84366 0.84736 0.03700
H 	H 	0.79349 0.87216 0.87008 0.04300
H 	H 	0.85063 0.87558 0.90510 0.02900
H 	H 	0.87913 0.82238 0.84370 0.03400
H 	H 	0.82189 0.81907 0.80846 0.04400
C 	C 	0.47587 0.91391 0.56865 -0.08800
C 	C 	0.45471 0.92565 0.59621 0.01200
C 	C 	0.45487 0.94490 0.58810 -0.06600
C 	C 	0.47615 0.95261 0.55238 0.02600
C 	C 	0.49691 0.94090 0.52426 -0.06700
C 	C 	0.49681 0.92164 0.53234 0.01200
C 	C 	0.47724 0.97298 0.54518 -0.00100
C 	C 	0.46599 0.98082 0.50107 -0.03900
C 	C 	0.46686 0.00015 0.49439 -0.03900
C 	C 	0.48940 0.98461 0.58253 -0.03900
H 	H 	0.43856 0.91991 0.62449 0.03400
H 	H 	0.43864 0.95384 0.60981 0.04500
H 	H 	0.51338 0.94674 0.49652 0.04500
H 	H 	0.51301 0.91276 0.51043 0.03300
H 	H 	0.45649 0.97194 0.47209 0.03900
H 	H 	0.49821 0.97867 0.61665 0.03600
C 	C 	0.99368 0.76143 0.24069 -0.03900
C 	C 	0.99410 0.77733 0.21112 -0.03900
C 	C 	0.00482 0.77608 0.16231 -0.00000
C 	C 	0.01631 0.75894 0.14387 -0.03900
C 	C 	0.00205 0.79239 0.12970 0.02700
C 	C 	0.03123 0.80029 0.10903 -0.06700
C 	C 	0.02845 0.81520 0.07632 0.01300
C 	C 	0.99642 0.82232 0.06391 -0.08900
C 	C 	0.96726 0.81451 0.08506 0.01400
C 	C 	0.97008 0.79963 0.11780 -0.06700
H 	H 	0.98446 0.76241 0.27791 0.03800
H 	H 	0.98545 0.79054 0.22578 0.03800
H 	H 	0.02473 0.75785 0.10628 0.03800
H 	H 	0.05602 0.79478 0.11804 0.04500
H 	H 	0.05115 0.82100 0.06008 0.02900
H 	H 	0.94242 0.81998 0.07620 0.03000
H 	H 	0.94740 0.79358 0.13350 0.04600
C 	C 	0.99057 0.78862 0.82061 -0.09000
C 	C 	0.95969 0.78603 0.79597 0.01100
C 	C 	0.95456 0.77011 0.76730 -0.06700
C 	C 	0.98023 0.75665 0.76301 0.02500
C 	C 	0.01050 0.75887 0.78923 -0.06800
C 	C 	0.01562 0.77472 0.81800 0.01200
C 	C 	0.97638 0.74090 0.72866 -0.00100
C 	C 	0.97230 0.74432 0.67848 -0.03900
H 	H 	0.94010 0.79658 0.79777 0.03200
H 	H 	0.93094 0.76843 0.74761 0.04400
H 	H 	0.03042 0.74852 0.78633 0.04300
H 	H 	0.03929 0.77634 0.83757 0.02900
H 	H 	0.96931 0.73229 0.60660 0.03700
H 	H 	0.97012 0.75850 0.66509 0.03600
C 	C 	0.48273 0.79203 0.77477 -0.09000
C 	C 	0.50940 0.77977 0.76338 0.01500
C 	C 	0.51413 0.76350 0.79086 -0.06800
C 	C 	0.49230 0.75939 0.82990 0.02600
C 	C 	0.46622 0.77184 0.84195 -0.06900
C 	C 	0.46145 0.78806 0.81457 0.01200
C 	C 	0.49614 0.74186 0.85754 -0.00200
C 	C 	0.52432 0.73919 0.88802 -0.04000
H 	H 	0.52601 0.78265 0.73277 0.03300
H 	H 	0.53441 0.75398 0.78139 0.04500
H 	H 	0.44950 0.76887 0.87239 0.04300
H 	H 	0.44114 0.79753 0.82422 0.01900
H 	H 	0.44847 0.73035 0.83296 0.03700
H 	H 	0.54450 0.74942 0.88889 0.03600
C 	C 	0.48307 0.81933 0.52311 -0.09000
C 	C 	0.50250 0.80327 0.53219 0.01000
C 	C 	0.50056 0.78798 0.50062 -0.06700
C 	C 	0.47912 0.78854 0.45974 0.02500
C 	C 	0.45962 0.80453 0.45065 -0.06700
C 	C 	0.46158 0.81986 0.48215 0.01200
C 	C 	0.47749 0.77246 0.42614 -0.00100
C 	C 	0.48815 0.77437 0.37744 -0.03900
C 	C 	0.48939 0.75877 0.34679 -0.03900
C 	C 	0.46693 0.75497 0.44340 -0.03900
H 	H 	0.51893 0.80257 0.56385 0.03000
H 	H 	0.51582 0.77572 0.50781 0.04400
H 	H 	0.44297 0.80508 0.41920 0.04500
H 	H 	0.44660 0.83218 0.47448 0.03600
H 	H 	0.49629 0.78783 0.36375 0.03800
H 	H 	0.49854 0.76027 0.30966 0.03800
H 	H 	0.45830 0.75340 0.48077 0.03700
