data_crystal

_cell_length_a 28.45132
_cell_length_b 36.15692
_cell_length_c 35.74330
_cell_angle_alpha 88.02794
_cell_angle_beta  91.30125
_cell_angle_gamma 89.42194

_symmetry_space_group_name_	'P 1'
_symmetry_space_group_name_H-M	'P 1'

loop_
_symmetry_equiv_pos_as_xyz
  x,y,z

loop_
_atom_site_label
_atom_site_type_symbol
_atom_site_fract_x
_atom_site_fract_y
_atom_site_fract_z
_atom_site_charge
Zn	Zn	0.98687 0.05899 0.94466 1.18700
Zn	Zn	0.99392 0.05038 0.03033 1.20300
Zn	Zn	0.98238 0.97444 0.94403 1.20500
P 	P 	0.91618 0.01923 0.98564 0.29500
P 	P 	0.05984 0.01420 0.98063 0.29900
C 	C 	0.95440 0.90138 0.95718 0.26400
C 	C 	0.98031 0.02357 0.87505 0.26800
C 	C 	0.99056 0.12321 0.98817 0.25600
O 	O 	0.92590 0.05922 0.96851 -0.44800
O 	O 	0.04832 0.03502 0.94187 -0.42700
O 	O 	0.95342 0.00925 0.01858 -0.44500
O 	O 	0.02371 0.98131 0.98718 -0.40900
O 	O 	0.91850 0.99032 0.95289 -0.40900
O 	O 	0.05744 0.04342 0.01309 -0.38900
O 	O 	0.97540 0.92290 0.93244 -0.42500
O 	O 	0.04191 0.00018 0.08335 -0.23500
O 	O 	0.93472 0.91615 0.98611 -0.24600
O 	O 	0.00208 0.99553 0.89333 -0.37900
O 	O 	0.97133 0.10238 0.01490 -0.42100
O 	O 	0.96456 0.05195 0.89343 -0.44300
O 	O 	0.00809 0.10787 0.95855 -0.38600
C 	C 	0.02480 0.02770 0.10209 0.26900
O 	O 	0.00333 0.05539 0.08371 -0.38300
Zn	Zn	0.97958 0.03914 0.43776 1.19500
Zn	Zn	0.99502 0.95587 0.45338 1.20600
Zn	Zn	0.98443 0.04714 0.52357 1.20900
P 	P 	0.05956 0.01217 0.48224 0.30900
P 	P 	0.91840 0.99787 0.48590 0.31200
C 	C 	0.01551 0.04815 0.59883 0.32100
C 	C 	0.97031 0.11006 0.46837 0.31000
C 	C 	0.98815 0.99179 0.37687 0.29000
O 	O 	0.04581 0.02453 0.44053 -0.42300
O 	O 	0.91900 0.03530 0.46179 -0.44500
O 	O 	0.03176 0.97574 0.49429 -0.39700
O 	O 	0.95594 0.99905 0.51957 -0.44600
O 	O 	0.04940 0.04571 0.50908 -0.39000
O 	O 	0.92833 0.96437 0.45905 -0.42000
O 	O 	0.98629 0.06443 0.57427 -0.45000
O 	O 	0.98653 0.90142 0.51408 -0.26200
O 	O 	0.04838 0.02578 0.58725 -0.23700
O 	O 	0.95226 0.09141 0.49712 -0.43700
O 	O 	0.01381 0.97022 0.40031 -0.38800
O 	O 	0.98834 0.09231 0.44042 -0.45100
O 	O 	0.96214 0.01862 0.38969 -0.44900
C 	C 	0.99146 0.88365 0.48293 0.31000
O 	O 	0.99840 0.90257 0.45149 -0.43900
Zn	Zn	0.98832 0.55692 0.94946 1.18900
Zn	Zn	0.99383 0.56110 0.03520 1.20300
Zn	Zn	0.98604 0.47251 0.96131 1.20400
P 	P 	0.91828 0.52195 0.99549 0.29700
P 	P 	0.06131 0.51855 0.99214 0.30200
C 	C 	0.96796 0.39930 0.98464 0.25800
C 	C 	0.98235 0.51175 0.88656 0.27800
C 	C 	0.98975 0.62704 0.98237 0.25500
O 	O 	0.92712 0.55929 0.97254 -0.45000
O 	O 	0.05021 0.53335 0.95076 -0.42600
O 	O 	0.95503 0.51765 0.02978 -0.44700
O 	O 	0.02601 0.48620 0.00318 -0.40400
O 	O 	0.92159 0.48800 0.96811 -0.41700
O 	O 	0.05782 0.55237 0.01966 -0.38400
O 	O 	0.98177 0.41965 0.95581 -0.42600
O 	O 	0.06152 0.53500 0.09569 -0.22600
O 	O 	0.95479 0.41554 0.01508 -0.24400
O 	O 	0.00564 0.48730 0.90858 -0.38700
O 	O 	0.96997 0.60993 0.01134 -0.42100
O 	O 	0.96646 0.54269 0.90015 -0.44500
O 	O 	0.00828 0.60770 0.95578 -0.38700
C 	C 	0.02956 0.55673 0.10959 0.27600
O 	O 	0.00037 0.57548 0.08683 -0.38100
Zn	Zn	0.97273 0.54327 0.44951 1.19400
Zn	Zn	0.97812 0.45910 0.45092 1.21000
Zn	Zn	0.97629 0.53800 0.53508 1.21000
P 	P 	0.04840 0.50454 0.48945 0.31200
P 	P 	0.90542 0.49990 0.48978 0.31000
C 	C 	0.00444 0.52087 0.60888 0.32000
C 	C 	0.96916 0.60910 0.49019 0.31100
C 	C 	0.97576 0.50655 0.38088 0.32000
O 	O 	0.03726 0.52378 0.44982 -0.41500
O 	O 	0.91075 0.54024 0.47209 -0.44000
O 	O 	0.01598 0.46918 0.49524 -0.40500
O 	O 	0.94261 0.49344 0.52339 -0.45000
O 	O 	0.04108 0.53432 0.52089 -0.38900
O 	O 	0.91242 0.47100 0.45750 -0.41500
O 	O 	0.98080 0.54576 0.58818 -0.45100
O 	O 	0.94249 0.39889 0.49679 -0.25100
O 	O 	0.02817 0.49487 0.59246 -0.23600
O 	O 	0.94984 0.58809 0.51669 -0.43300
O 	O 	0.99896 0.48014 0.40051 -0.45300
O 	O 	0.98771 0.59404 0.46088 -0.45400
O 	O 	0.95389 0.53302 0.39818 -0.45100
C 	C 	0.95793 0.38506 0.46578 0.27900
O 	O 	0.97591 0.40727 0.44011 -0.42600
Zn	Zn	0.48937 0.92596 0.07929 1.20300
Zn	Zn	0.49680 0.92815 0.99407 1.21300
Zn	Zn	0.48551 0.01106 0.07379 1.21500
P 	P 	0.41925 0.96443 0.03273 0.31100
P 	P 	0.56271 0.96700 0.04318 0.31300
C 	C 	0.46292 0.08483 0.05398 0.28600
C 	C 	0.48206 0.96650 0.14548 0.31300
C 	C 	0.49446 0.85841 0.04130 0.31100
O 	O 	0.42861 0.92541 0.05299 -0.44200
O 	O 	0.55099 0.94899 0.08274 -0.44000
O 	O 	0.45676 0.97116 0.00079 -0.42600
O 	O 	0.52692 0.00028 0.03301 -0.43800
O 	O 	0.42157 0.99589 0.06308 -0.40600
O 	O 	0.56036 0.93563 0.01277 -0.40400
O 	O 	0.47923 0.06356 0.08205 -0.41400
O 	O 	0.54717 0.97135 0.93819 -0.24400
O 	O 	0.44812 0.06951 0.02311 -0.24600
O 	O 	0.50463 0.99270 0.12646 -0.42800
O 	O 	0.47436 0.87765 0.01285 -0.42700
O 	O 	0.46623 0.93728 0.12843 -0.44000
O 	O 	0.51033 0.87546 0.07091 -0.43900
C 	C 	0.52740 0.94343 0.92154 0.28700
O 	O 	0.50552 0.91823 0.94185 -0.41600
Zn	Zn	0.48392 0.92374 0.58020 1.20300
Zn	Zn	0.49378 0.00818 0.57016 1.21600
Zn	Zn	0.49016 0.92191 0.49396 1.21800
P 	P 	0.56225 0.95539 0.54098 0.31100
P 	P 	0.42020 0.96683 0.53204 0.31000
C 	C 	0.52331 0.92524 0.42027 0.28900
C 	C 	0.47874 0.85531 0.54380 0.31200
C 	C 	0.48757 0.96810 0.64419 0.31300
O 	O 	0.54912 0.93994 0.58128 -0.44100
O 	O 	0.42324 0.92815 0.55396 -0.43800
O 	O 	0.53145 0.99127 0.52970 -0.43300
O 	O 	0.45777 0.96865 0.49964 -0.43300
O 	O 	0.55500 0.92346 0.51163 -0.40400
O 	O 	0.42775 0.99883 0.56127 -0.40800
O 	O 	0.49361 0.90804 0.44232 -0.41300
O 	O 	0.47359 0.06331 0.51250 -0.24900
O 	O 	0.55790 0.94408 0.43499 -0.23600
O 	O 	0.45993 0.87579 0.51578 -0.43400
O 	O 	0.51258 0.99118 0.62319 -0.42800
O 	O 	0.49570 0.87105 0.57387 -0.43700
O 	O 	0.46483 0.94067 0.62893 -0.43800
C 	C 	0.48386 0.08064 0.54330 0.28400
O 	O 	0.49480 0.06130 0.57414 -0.41300
Zn	Zn	0.49706 0.42539 0.08671 1.20300
Zn	Zn	0.49404 0.51130 0.08424 1.21800
Zn	Zn	0.48825 0.43163 0.00067 1.21900
P 	P 	0.56298 0.46794 0.04302 0.31200
P 	P 	0.42034 0.46623 0.05039 0.31100
C 	C 	0.50332 0.45071 0.92566 0.28600
C 	C 	0.49294 0.35997 0.04493 0.31200
C 	C 	0.50463 0.46451 0.15429 0.31200
O 	O 	0.55863 0.44793 0.08279 -0.44100
O 	O 	0.43212 0.42645 0.06804 -0.43700
O 	O 	0.52650 0.50168 0.03848 -0.43200
O 	O 	0.45143 0.47420 0.01449 -0.43200
O 	O 	0.55475 0.43826 0.01143 -0.40600
O 	O 	0.42889 0.49623 0.08160 -0.40800
O 	O 	0.48587 0.42429 0.94726 -0.41700
O 	O 	0.43218 0.57016 0.05094 -0.23700
O 	O 	0.52510 0.47842 0.94108 -0.24900
O 	O 	0.46824 0.38077 0.02014 -0.42800
O 	O 	0.52351 0.49091 0.13298 -0.43200
O 	O 	0.51456 0.37519 0.07343 -0.43800
O 	O 	0.48534 0.43547 0.13903 -0.43700
C 	C 	0.46198 0.58502 0.07451 0.28700
O 	O 	0.49070 0.56351 0.09505 -0.41100
Zn	Zn	0.48176 0.51465 0.49686 1.20600
Zn	Zn	0.46953 0.51094 0.58317 1.21800
Zn	Zn	0.49089 0.42918 0.50353 1.21900
P 	P 	0.40962 0.47014 0.53079 0.31500
P 	P 	0.55114 0.47880 0.54683 0.31000
C 	C 	0.47100 0.35547 0.51998 0.28500
C 	C 	0.49656 0.47286 0.43188 0.31200
C 	C 	0.47012 0.58049 0.53680 0.31100
O 	O 	0.41724 0.50992 0.51234 -0.44100
O 	O 	0.54542 0.49684 0.50603 -0.44200
O 	O 	0.43900 0.46549 0.56926 -0.42500
O 	O 	0.52034 0.44231 0.55057 -0.43700
O 	O 	0.42401 0.43964 0.50173 -0.41300
O 	O 	0.53699 0.50833 0.57705 -0.42000
O 	O 	0.49336 0.37660 0.49574 -0.41400
O 	O 	0.39438 0.49194 0.63900 -0.24200
O 	O 	0.44724 0.37082 0.54657 -0.24400
O 	O 	0.51895 0.44919 0.45539 -0.43300
O 	O 	0.44488 0.55911 0.55928 -0.43100
O 	O 	0.47339 0.50137 0.44467 -0.43700
O 	O 	0.49196 0.56632 0.50843 -0.43400
C 	C 	0.43159 0.50579 0.65558 0.28800
O 	O 	0.46357 0.52248 0.63530 -0.41200
C 	C 	0.46056 0.47432 0.76963 0.06600
N 	N 	0.49561 0.47596 0.74428 -0.11200
C 	C 	0.48713 0.48688 0.70792 0.07000
C 	C 	0.44147 0.49687 0.69554 -0.09400
C 	C 	0.40498 0.49572 0.72116 0.03500
C 	C 	0.41453 0.48482 0.75842 -0.07500
H 	H 	0.51577 0.48714 0.68847 0.03400
H 	H 	0.36946 0.50350 0.71232 0.04000
H 	H 	0.38661 0.48519 0.77851 0.05600
C 	C 	0.49482 0.45144 0.88476 -0.09400
C 	C 	0.45354 0.43682 0.86941 0.03300
C 	C 	0.44242 0.44338 0.83149 -0.07600
C 	C 	0.47243 0.46511 0.80932 0.06600
N 	N 	0.51358 0.47736 0.82437 -0.11200
C 	C 	0.52533 0.47094 0.86113 0.06900
H 	H 	0.42950 0.42142 0.88694 0.03600
H 	H 	0.41064 0.43195 0.81953 0.05600
H 	H 	0.55795 0.48177 0.87221 0.03900
C 	C 	0.51515 0.46635 0.27300 0.06700
N 	N 	0.51023 0.49840 0.25199 -0.11300
C 	C 	0.50854 0.49845 0.21388 0.07300
C 	C 	0.51091 0.46500 0.19528 -0.10500
C 	C 	0.51691 0.43185 0.21637 0.04100
C 	C 	0.51899 0.43247 0.25532 -0.07900
H 	H 	0.50393 0.52439 0.19811 0.03300
H 	H 	0.51936 0.40566 0.20266 0.03500
H 	H 	0.52211 0.40674 0.27168 0.05600
C 	C 	0.50147 0.46974 0.39106 -0.10400
C 	C 	0.53898 0.44982 0.37650 0.03700
C 	C 	0.54385 0.44860 0.33780 -0.07800
C 	C 	0.51094 0.46721 0.31390 0.06700
N 	N 	0.47482 0.48649 0.32859 -0.11300
C 	C 	0.46928 0.48793 0.36620 0.07300
H 	H 	0.56462 0.43582 0.39500 0.04000
H 	H 	0.57317 0.43365 0.32645 0.05500
H 	H 	0.43980 0.50325 0.37677 0.03900
C 	C 	0.46905 0.73805 0.54496 0.06700
N 	N 	0.50559 0.75484 0.56257 -0.11300
C 	C 	0.50909 0.79233 0.56254 0.07400
C 	C 	0.47506 0.81474 0.54366 -0.10600
C 	C 	0.43737 0.79801 0.52516 0.04000
C 	C 	0.43431 0.75954 0.52578 -0.07800
H 	H 	0.53868 0.80471 0.57681 0.03700
H 	H 	0.41046 0.81469 0.51055 0.03800
H 	H 	0.40561 0.74649 0.51099 0.05700
C 	C 	0.46952 0.62083 0.54073 -0.10600
C 	C 	0.42896 0.63912 0.55216 0.04000
C 	C 	0.42842 0.67762 0.55360 -0.07800
C 	C 	0.46858 0.69751 0.54356 0.06700
N 	N 	0.50805 0.67913 0.53344 -0.11300
C 	C 	0.50925 0.64163 0.53165 0.07400
H 	H 	0.39780 0.62368 0.55930 0.04000
H 	H 	0.39714 0.69190 0.56247 0.05800
H 	H 	0.54116 0.62796 0.52322 0.03600
C 	C 	0.48090 0.19785 0.53319 0.06600
N 	N 	0.44628 0.17743 0.51736 -0.11100
C 	C 	0.44563 0.13995 0.52177 0.07000
C 	C 	0.48086 0.12126 0.54324 -0.09300
C 	C 	0.51586 0.14178 0.56090 0.03300
C 	C 	0.51592 0.18027 0.55595 -0.07600
H 	H 	0.41798 0.12459 0.50819 0.03900
H 	H 	0.54351 0.12797 0.57757 0.03600
H 	H 	0.54280 0.19628 0.56971 0.05500
C 	C 	0.47332 0.31493 0.51835 -0.09300
C 	C 	0.51629 0.29678 0.51332 0.03400
C 	C 	0.51928 0.25834 0.51827 -0.07600
C 	C 	0.47911 0.23842 0.52837 0.06700
N 	N 	0.43726 0.25650 0.53159 -0.11100
C 	C 	0.43362 0.29390 0.52695 0.07100
H 	H 	0.54749 0.31242 0.50675 0.03500
H 	H 	0.55245 0.24418 0.51437 0.05500
H 	H 	0.39997 0.30741 0.53063 0.03900
C 	C 	0.48242 0.74141 0.05361 0.06800
N 	N 	0.51669 0.75969 0.07244 -0.11300
C 	C 	0.52235 0.79687 0.06752 0.07200
C 	C 	0.49250 0.81751 0.04268 -0.10300
C 	C 	0.45851 0.79893 0.02170 0.03800
C 	C 	0.45364 0.76074 0.02694 -0.07700
H 	H 	0.54966 0.81048 0.08334 0.03900
H 	H 	0.43529 0.81404 0.00206 0.04100
H 	H 	0.42755 0.74632 0.01059 0.05800
C 	C 	0.46666 0.62555 0.07452 -0.09200
C 	C 	0.42657 0.64828 0.07094 0.03500
C 	C 	0.43136 0.68629 0.06458 -0.07400
C 	C 	0.47642 0.70133 0.06114 0.06700
N 	N 	0.51509 0.67898 0.06632 -0.11100
C 	C 	0.51116 0.64180 0.07291 0.07000
H 	H 	0.39181 0.63644 0.07247 0.04100
H 	H 	0.40034 0.70391 0.06225 0.05700
H 	H 	0.54263 0.62472 0.07555 0.03500
C 	C 	0.47993 0.24290 0.05122 0.06800
N 	N 	0.44296 0.26488 0.03926 -0.11100
C 	C 	0.44691 0.30236 0.03578 0.07400
C 	C 	0.48973 0.31933 0.04446 -0.10400
C 	C 	0.52844 0.29716 0.05580 0.03800
C 	C 	0.52375 0.25883 0.05888 -0.07800
H 	H 	0.41646 0.31899 0.02714 0.04000
H 	H 	0.56202 0.30958 0.06228 0.03600
H 	H 	0.55399 0.24165 0.06685 0.05500
C 	C 	0.46460 0.12569 0.05570 -0.09100
C 	C 	0.48974 0.14265 0.08449 0.03100
C 	C 	0.49429 0.18108 0.08365 -0.07500
C 	C 	0.47420 0.20233 0.05362 0.06600
N 	N 	0.44837 0.18547 0.02672 -0.11000
C 	C 	0.44312 0.14809 0.02714 0.06800
H 	H 	0.50620 0.12620 0.10714 0.04000
H 	H 	0.51328 0.19423 0.10609 0.05400
H 	H 	0.42261 0.13576 0.00504 0.04400
C 	C 	0.51226 0.95102 0.80286 0.06600
N 	N 	0.54478 0.97158 0.82108 -0.11100
C 	C 	0.55170 0.96815 0.85883 0.06800
C 	C 	0.52487 0.94315 0.88017 -0.09200
C 	C 	0.49297 0.92037 0.86169 0.03200
C 	C 	0.48689 0.92404 0.82289 -0.07600
H 	H 	0.57752 0.98533 0.87232 0.04300
H 	H 	0.47232 0.90040 0.87730 0.04000
H 	H 	0.46255 0.90623 0.80855 0.05500
C 	C 	0.49256 0.96842 0.68517 -0.10400
C 	C 	0.45335 0.96251 0.70744 0.04000
C 	C 	0.45934 0.95712 0.74605 -0.07700
C 	C 	0.50485 0.95687 0.76209 0.06800
N 	N 	0.54244 0.96402 0.74009 -0.11300
C 	C 	0.53726 0.96979 0.70236 0.07400
H 	H 	0.41841 0.96163 0.69480 0.03800
H 	H 	0.42890 0.95324 0.76335 0.05700
H 	H 	0.56808 0.97416 0.68560 0.03800
C 	C 	0.48908 0.95561 0.26399 0.06700
N 	N 	0.52223 0.97524 0.24506 -0.11200
C 	C 	0.51905 0.98120 0.20724 0.07300
C 	C 	0.48135 0.96667 0.18668 -0.10400
C 	C 	0.44602 0.94775 0.20585 0.03900
C 	C 	0.45008 0.94179 0.24446 -0.07800
H 	H 	0.54682 0.99588 0.19303 0.03900
H 	H 	0.41634 0.93650 0.19067 0.03800
H 	H 	0.42404 0.92536 0.25889 0.05600
C 	C 	0.51297 0.92917 0.37984 -0.09500
C 	C 	0.46733 0.93793 0.36681 0.03600
C 	C 	0.45918 0.94698 0.32899 -0.07600
C 	C 	0.49673 0.94628 0.30418 0.06700
N 	N 	0.54085 0.93736 0.31738 -0.11200
C 	C 	0.54964 0.92892 0.35430 0.07100
H 	H 	0.43860 0.93914 0.38613 0.03400
H 	H 	0.42419 0.95522 0.31919 0.05600
H 	H 	0.58527 0.92252 0.36390 0.03700
C 	C 	0.75705 0.47775 0.53068 0.06400
N 	N 	0.76492 0.48607 0.49389 -0.10900
C 	C 	0.80863 0.49435 0.48163 0.05700
C 	C 	0.84699 0.49415 0.50685 -0.05200
C 	C 	0.83971 0.48582 0.54480 0.01300
C 	C 	0.79462 0.47744 0.55680 -0.06800
H 	H 	0.81368 0.50044 0.45214 0.04300
H 	H 	0.86885 0.48530 0.56483 0.03700
H 	H 	0.78898 0.47040 0.58605 0.05200
C 	C 	0.61248 0.46742 0.55258 -0.05500
C 	C 	0.64077 0.48750 0.57697 0.01700
C 	C 	0.68916 0.48877 0.57190 -0.06800
C 	C 	0.70896 0.46955 0.54257 0.06300
N 	N 	0.68134 0.44747 0.52135 -0.10900
C 	C 	0.63408 0.44558 0.52615 0.05500
H 	H 	0.62509 0.50403 0.59818 0.04700
H 	H 	0.71062 0.50643 0.58903 0.05300
H 	H 	0.61288 0.42928 0.50748 0.02600
C 	C 	0.25120 0.47134 0.52762 0.06600
N 	N 	0.27518 0.49974 0.54298 -0.11100
C 	C 	0.32247 0.49767 0.54938 0.05700
C 	C 	0.34786 0.46638 0.53910 -0.04600
C 	C 	0.32322 0.43553 0.52697 0.01700
C 	C 	0.27463 0.43798 0.52113 -0.06200
H 	H 	0.34075 0.52139 0.56000 0.04100
H 	H 	0.34188 0.41054 0.51995 0.05300
H 	H 	0.25581 0.41494 0.50959 0.06200
C 	C 	0.10911 0.49077 0.49302 -0.04700
C 	C 	0.14371 0.51535 0.48106 0.01700
C 	C 	0.19052 0.50871 0.49167 -0.06100
C 	C 	0.20243 0.47732 0.51412 0.06500
N 	N 	0.16855 0.45275 0.52409 -0.10900
C 	C 	0.12255 0.45883 0.51413 0.05300
H 	H 	0.13414 0.54033 0.46496 0.05100
H 	H 	0.21729 0.52812 0.48304 0.06200
H 	H 	0.09627 0.43955 0.52385 0.05300
C 	C 	0.76500 0.51447 0.02881 0.06100
N 	N 	0.77837 0.53897 0.00138 -0.10100
C 	C 	0.82442 0.54366 0.99308 0.03200
C 	C 	0.85943 0.52274 0.01250 -0.03400
C 	C 	0.84662 0.49833 0.04159 0.00600
C 	C 	0.79926 0.49412 0.04986 -0.06200
H 	H 	0.83360 0.56258 0.97035 0.04900
H 	H 	0.87302 0.48155 0.05669 0.04800
H 	H 	0.78912 0.47403 0.07129 0.05300
C 	C 	0.62144 0.48568 0.03920 -0.05400
C 	C 	0.64762 0.49409 0.07133 0.01200
C 	C 	0.69453 0.50433 0.06818 -0.06800
C 	C 	0.71481 0.50607 0.03276 0.06500
N 	N 	0.68802 0.49946 0.00165 -0.10800
C 	C 	0.64220 0.48939 0.00415 0.06600
H 	H 	0.63196 0.49224 0.09865 0.04300
H 	H 	0.71506 0.51057 0.09302 0.05300
H 	H 	0.62217 0.48374 0.97892 0.04300
C 	C 	0.21448 0.48113 0.00702 0.07500
N 	N 	0.18072 0.46689 0.02965 -0.10700
C 	C 	0.13450 0.47617 0.02427 0.06700
C 	C 	0.12061 0.50114 0.99520 -0.06100
C 	C 	0.15453 0.51549 0.97119 0.02200
C 	C 	0.20163 0.50552 0.97705 -0.07900
H 	H 	0.10877 0.46501 0.04332 0.05200
H 	H 	0.14472 0.53524 0.94884 0.04900
H 	H 	0.22815 0.51784 0.95942 0.05700
C 	C 	0.35912 0.46774 0.03706 -0.04100
C 	C 	0.34481 0.46333 0.99982 0.00600
C 	C 	0.29725 0.46668 0.98977 -0.07400
C 	C 	0.26443 0.47468 0.01721 0.07200
N 	N 	0.27898 0.47734 0.05358 -0.10600
C 	C 	0.32517 0.47402 0.06394 0.05800
H 	H 	0.37033 0.45755 0.97870 0.03100
H 	H 	0.28599 0.46331 0.96095 0.05400
H 	H 	0.33554 0.47665 0.09305 0.04800
C 	C 	0.98686 0.51182 0.76824 0.04500
N 	N 	0.02327 0.49725 0.78960 -0.09600
C 	C 	0.02147 0.49503 0.82764 0.12700
C 	C 	0.98154 0.50777 0.84577 -0.14900
C 	C 	0.94292 0.52108 0.82419 0.04600
C 	C 	0.94542 0.52298 0.78532 -0.08500
H 	H 	0.05172 0.48459 0.84380 0.03300
H 	H 	0.91142 0.53061 0.83755 0.03200
H 	H 	0.91555 0.53328 0.76859 0.05400
C 	C 	0.00046 0.51956 0.65003 -0.03900
C 	C 	0.98290 0.55001 0.66870 -0.03300
C 	C 	0.97830 0.54773 0.70747 -0.05000
C 	C 	0.99097 0.51481 0.72731 0.02200
N 	N 	0.00879 0.48576 0.70877 -0.08000
C 	C 	0.01361 0.48736 0.67099 0.06000
H 	H 	0.97312 0.57538 0.65335 0.04900
H 	H 	0.96540 0.57144 0.72204 0.04300
H 	H 	0.02727 0.46346 0.65721 0.05300
C 	C 	0.00636 0.53697 0.22515 0.15600
N 	N 	0.96940 0.54090 0.20034 -0.13700
C 	C 	0.97593 0.54970 0.16348 0.01400
C 	C 	0.02145 0.55490 0.15012 -0.04300
C 	C 	0.05965 0.55274 0.17550 0.03400
C 	C 	0.05215 0.54413 0.21319 -0.09500
H 	H 	0.94590 0.55118 0.14431 0.03600
H 	H 	0.09511 0.55701 0.16592 0.04300
H 	H 	0.08166 0.54289 0.23289 0.06700
C 	C 	0.98121 0.51026 0.33988 -0.14800
C 	C 	0.01921 0.49350 0.32255 0.07300
C 	C 	0.02725 0.50149 0.28477 -0.01700
C 	C 	0.99755 0.52674 0.26469 -0.03100
N 	N 	0.95947 0.54130 0.28154 -0.10700
C 	C 	0.95067 0.53358 0.31823 0.07500
H 	H 	0.04305 0.47504 0.33838 0.04400
H 	H 	0.05641 0.48834 0.27128 0.04700
H 	H 	0.92035 0.54608 0.33075 0.03400
C 	C 	0.97476 0.76667 0.48500 0.11200
N 	N 	0.95776 0.78734 0.51290 -0.13100
C 	C 	0.96247 0.82476 0.51246 0.09900
C 	C 	0.98573 0.84309 0.48304 -0.18600
C 	C 	0.00386 0.82226 0.45427 0.19000
C 	C 	0.99859 0.78393 0.45528 -0.22700
H 	H 	0.94793 0.84029 0.53492 0.02900
H 	H 	0.02247 0.83559 0.43149 0.01500
H 	H 	0.01332 0.76770 0.43339 0.12400
C 	C 	0.96347 0.64953 0.49025 -0.10600
C 	C 	0.95019 0.66914 0.45717 0.03600
C 	C 	0.95281 0.70758 0.45546 -0.07400
C 	C 	0.96917 0.72622 0.48686 0.04400
N 	N 	0.97960 0.70683 0.51945 -0.11400
C 	C 	0.97706 0.66920 0.52175 0.06800
H 	H 	0.93885 0.65456 0.43263 0.03100
H 	H 	0.94273 0.72277 0.42982 0.04800
H 	H 	0.98725 0.65454 0.54765 0.02400
C 	C 	0.96000 0.22748 0.46030 0.05700
N 	N 	0.95834 0.20916 0.49421 -0.11500
C 	C 	0.96079 0.17156 0.49730 0.06900
C 	C 	0.96470 0.15064 0.46516 -0.10800
C 	C 	0.96519 0.16901 0.42999 0.03600
C 	C 	0.96274 0.20749 0.42751 -0.08000
H 	H 	0.96045 0.15798 0.52477 0.03000
H 	H 	0.96738 0.15354 0.40465 0.03300
H 	H 	0.96274 0.22171 0.40033 0.04900
C 	C 	0.95609 0.34487 0.46057 -0.08400
C 	C 	0.98982 0.32719 0.43934 -0.00800
C 	C 	0.99065 0.28868 0.43830 -0.11600
C 	C 	0.95741 0.26811 0.45838 0.07400
N 	N 	0.92428 0.28585 0.47823 -0.11400
C 	C 	0.92269 0.32338 0.47946 0.06300
H 	H 	0.01620 0.34310 0.42470 0.07900
H 	H 	0.01766 0.27486 0.42290 0.09700
H 	H 	0.89588 0.33652 0.49562 0.04000
C 	C 	0.76929 0.98407 0.52795 0.06400
N 	N 	0.78812 0.01840 0.52323 -0.11700
C 	C 	0.83325 0.02296 0.51230 0.04000
C 	C 	0.86134 0.99208 0.50527 -0.04600
C 	C 	0.84355 0.95664 0.51182 0.01400
C 	C 	0.79734 0.95252 0.52317 -0.06200
H 	H 	0.84693 0.05062 0.50838 0.03900
H 	H 	0.86504 0.93237 0.50730 0.04800
H 	H 	0.78291 0.92506 0.52688 0.06100
C 	C 	0.62313 0.96754 0.54119 -0.05800
C 	C 	0.63822 0.99788 0.51955 0.03300
C 	C 	0.68613 0.00444 0.51642 -0.08300
C 	C 	0.71869 0.98029 0.53478 0.07300
N 	N 	0.70318 0.95150 0.55667 -0.11700
C 	C 	0.65650 0.94475 0.56022 0.05900
H 	H 	0.61306 0.01571 0.50435 0.04000
H 	H 	0.69791 0.02727 0.49871 0.06400
H 	H 	0.64542 0.92110 0.57707 0.04200
C 	C 	0.21752 0.98848 0.48868 0.07200
N 	N 	0.19643 0.00897 0.51493 -0.11000
C 	C 	0.14931 0.01555 0.51383 0.05900
C 	C 	0.12128 0.00175 0.48490 -0.05500
C 	C 	0.14211 0.98044 0.45776 0.02400
C 	C 	0.19050 0.97375 0.45956 -0.07000
H 	H 	0.13376 0.03168 0.53538 0.05700
H 	H 	0.12101 0.96936 0.43524 0.03700
H 	H 	0.20695 0.95764 0.43836 0.05500
C 	C 	0.36266 0.97263 0.51114 -0.04500
C 	C 	0.33499 0.94183 0.50392 0.01000
C 	C 	0.28770 0.94687 0.49376 -0.06400
C 	C 	0.26863 0.98281 0.49081 0.06700
N 	N 	0.29697 0.01247 0.49578 -0.11000
C 	C 	0.34328 0.00813 0.50533 0.04800
H 	H 	0.34954 0.91411 0.50745 0.04400
H 	H 	0.26552 0.92303 0.49003 0.05500
H 	H 	0.36456 0.03231 0.50978 0.04900
C 	C 	0.97450 0.74388 0.96613 0.07700
N 	N 	0.96923 0.72749 0.00069 -0.11500
C 	C 	0.97405 0.69018 0.00650 0.07500
C 	C 	0.98415 0.66755 0.97652 -0.10400
C 	C 	0.98900 0.68397 0.94070 0.03200
C 	C 	0.98406 0.72214 0.93546 -0.09100
H 	H 	0.97028 0.67819 0.03443 0.03200
H 	H 	0.99611 0.66719 0.91690 0.02700
H 	H 	0.98711 0.73473 0.90769 0.04900
C 	C 	0.95738 0.86075 0.95506 -0.04100
C 	C 	0.99619 0.84386 0.93898 -0.11900
C 	C 	0.00178 0.80550 0.94206 0.07600
C 	C 	0.96822 0.78421 0.96100 -0.01500
N 	N 	0.93023 0.80107 0.97579 -0.09700
C 	C 	0.92398 0.83843 0.97298 0.03800
H 	H 	0.02274 0.86042 0.92533 0.10400
H 	H 	0.03250 0.79248 0.93062 0.03200
H 	H 	0.89348 0.85086 0.98530 0.04400
C 	C 	0.97892 0.24076 0.98722 0.07500
N 	N 	0.98140 0.22238 0.95468 -0.12900
C 	C 	0.98459 0.18483 0.95453 0.06400
C 	C 	0.98550 0.16388 0.98837 -0.10300
C 	C 	0.98243 0.18221 0.02213 0.03900
C 	C 	0.97910 0.22077 0.02161 -0.07600
H 	H 	0.98623 0.17126 0.92806 0.02500
H 	H 	0.98331 0.16674 0.04864 0.03000
H 	H 	0.97741 0.23504 0.04772 0.05900
C 	C 	0.96970 0.35847 0.98377 -0.04900
C 	C 	0.99802 0.34067 0.95820 -0.12000
C 	C 	0.00135 0.30215 0.95929 0.08200
C 	C 	0.97625 0.28156 0.98602 -0.02300
N 	N 	0.94849 0.29932 0.01042 -0.09800
C 	C 	0.94469 0.33690 0.00984 0.04700
H 	H 	0.01801 0.35658 0.93798 0.10700
H 	H 	0.02373 0.28841 0.93984 0.03800
H 	H 	0.92224 0.35000 0.02966 0.04200
C 	C 	0.76482 0.01026 0.02514 0.07500
N 	N 	0.77425 0.02057 0.98908 -0.11300
C 	C 	0.81914 0.02483 0.97741 0.04400
C 	C 	0.85712 0.01862 0.00254 -0.03600
C 	C 	0.84828 0.00958 0.04007 0.01100
C 	C 	0.80194 0.00567 0.05158 -0.07700
H 	H 	0.82534 0.03229 0.94836 0.04400
H 	H 	0.87702 0.00517 0.06015 0.03600
H 	H 	0.79496 0.99880 0.08065 0.05900
C 	C 	0.62217 0.98340 0.04451 -0.04100
C 	C 	0.65782 0.96141 0.06155 0.01100
C 	C 	0.70475 0.97100 0.05702 -0.05400
C 	C 	0.71573 0.00290 0.03556 0.05200
N 	N 	0.68035 0.02455 0.02011 -0.10400
C 	C 	0.63429 0.01562 0.02423 0.04200
H 	H 	0.64932 0.93612 0.07696 0.04800
H 	H 	0.73235 0.95289 0.06859 0.05300
H 	H 	0.60724 0.03291 0.01066 0.04900
C 	C 	0.26571 0.97330 0.99336 0.06600
N 	N 	0.28287 0.94143 0.01030 -0.11000
C 	C 	0.32931 0.93719 0.01978 0.05100
C 	C 	0.36083 0.96595 0.01232 -0.04600
C 	C 	0.34436 0.99813 0.99336 0.02100
C 	C 	0.29670 0.00190 0.98376 -0.07800
H 	H 	0.34139 0.91189 0.03411 0.04600
H 	H 	0.36803 0.02075 0.98737 0.04400
H 	H 	0.28367 0.02742 0.97035 0.06400
C 	C 	0.11896 0.99602 0.98083 -0.04400
C 	C 	0.13525 0.97279 0.01050 0.01800
C 	C 	0.18304 0.96394 0.01397 -0.05000
C 	C 	0.21434 0.97863 0.98766 0.05700
N 	N 	0.19742 0.00003 0.95809 -0.11500
C 	C 	0.15087 0.00889 0.95418 0.04200
H 	H 	0.11128 0.96267 0.03153 0.05900
H 	H 	0.19588 0.94701 0.03770 0.06200
H 	H 	0.13899 0.02685 0.93095 0.05000
C 	C 	0.98685 0.03578 0.75638 0.04300
N 	N 	0.01611 0.01157 0.77581 -0.09300
C 	C 	0.01339 0.00617 0.81360 0.11600
C 	C 	0.98025 0.02602 0.83367 -0.14100
C 	C 	0.94930 0.05051 0.81404 0.04100
C 	C 	0.95286 0.05571 0.77542 -0.08300
H 	H 	0.03780 0.98719 0.82811 0.04300
H 	H 	0.92314 0.06599 0.82875 0.03500
H 	H 	0.93010 0.07570 0.76052 0.05300
C 	C 	0.00719 0.05032 0.63922 -0.04000
C 	C 	0.96137 0.04911 0.65264 -0.02900
C 	C 	0.95428 0.04485 0.69102 -0.05000
C 	C 	0.99324 0.04248 0.71587 0.02300
N 	N 	0.03753 0.04459 0.70230 -0.08100
C 	C 	0.04521 0.04857 0.66493 0.06100
H 	H 	0.93142 0.04984 0.63335 0.04500
H 	H 	0.91888 0.04229 0.70128 0.04500
H 	H 	0.08093 0.04954 0.65513 0.04500
C 	C 	0.01896 0.01317 0.22044 0.07300
N 	N 	0.98892 0.03722 0.20155 -0.12600
C 	C 	0.99177 0.04381 0.16390 0.00300
C 	C 	0.02589 0.02545 0.14345 -0.02700
C 	C 	0.05794 0.00152 0.16261 -0.00400
C 	C 	0.05416 0.99496 0.20103 -0.04200
H 	H 	0.96653 0.06236 0.14975 0.04100
H 	H 	0.08488 0.98719 0.14759 0.05800
H 	H 	0.07749 0.97503 0.21539 0.05200
C 	C 	0.99689 0.99155 0.33652 -0.16500
C 	C 	0.04290 0.99350 0.32363 0.11600
C 	C 	0.05056 0.00045 0.28566 -0.11800
C 	C 	0.01195 0.00454 0.26059 0.11700
N 	N 	0.96743 0.00177 0.27363 -0.14900
C 	C 	0.95923 0.99540 0.31066 0.09300
H 	H 	0.07256 0.99139 0.34318 0.02600
H 	H 	0.08612 0.00372 0.27597 0.06600
H 	H 	0.92337 0.99426 0.32014 0.02800
