data_crystal

_cell_length_a 44.56556
_cell_length_b 46.21727
_cell_length_c 20.18533
_cell_angle_alpha 93.88693
_cell_angle_beta  93.52878
_cell_angle_gamma 90.06199

_symmetry_space_group_name_	'P 1'
_symmetry_space_group_name_H-M	'P 1'

loop_
_symmetry_equiv_pos_as_xyz
  x,y,z

loop_
_atom_site_label
_atom_site_type_symbol
_atom_site_fract_x
_atom_site_fract_y
_atom_site_fract_z
_atom_site_charge
Cd	Cd	0.93706 0.00693 0.90595 1.19100
C 	C 	0.93919 0.05917 0.80410 0.31200
O 	O 	0.92900 0.06460 0.74403 -0.27400
O 	O 	0.92347 0.04109 0.83397 -0.52200
O 	O 	0.75568 0.02997 0.34686 -0.44000
C 	C 	0.76016 0.05783 0.35613 0.28700
O 	O 	0.76392 0.06814 0.41788 -0.34500
Cd	Cd	0.86206 0.09873 0.11224 1.24200
Cd	Cd	0.84969 0.08495 0.28009 1.20200
O 	O 	0.87930 0.14783 0.09486 -0.31200
O 	O 	0.87784 0.11367 0.01400 -0.32100
C 	C 	0.88482 0.14040 0.03376 0.26600
O 	O 	0.85459 0.05059 0.10784 -0.36300
O 	O 	0.82991 0.05136 0.20403 -0.42300
C 	C 	0.84598 0.03742 0.15967 0.30600
C 	C 	0.91298 0.08762 0.20055 0.30000
O 	O 	0.82999 0.11817 0.20908 -0.45000
O 	O 	0.91920 0.08555 0.13802 -0.29100
O 	O 	0.88628 0.09760 0.21155 -0.50100
C 	C 	0.80588 0.11445 0.16975 0.30400
O 	O 	0.81050 0.10712 0.10756 -0.33100
Cd	Cd	0.11072 0.08099 0.99623 1.23900
Cd	Cd	0.08352 0.03626 0.85456 1.19800
O 	O 	0.13160 0.12818 0.97396 -0.32300
O 	O 	0.12493 0.11703 0.07615 -0.34300
C 	C 	0.13398 0.13611 0.03694 0.28200
O 	O 	0.08809 0.04371 0.03953 -0.36600
O 	O 	0.09217 0.01228 0.94735 -0.41800
C 	C 	0.08091 0.01893 0.00532 0.30500
C 	C 	0.05342 0.09256 0.93307 0.31700
O 	O 	0.13013 0.05696 0.88588 -0.43000
O 	O 	0.05683 0.10674 0.99134 -0.30000
O 	O 	0.07706 0.07918 0.91315 -0.52400
C 	C 	0.15174 0.04519 0.92098 0.31200
O 	O 	0.15379 0.05330 0.98440 -0.35400
C 	C 	0.07896 0.31532 0.88328 0.10800
N 	N 	0.07395 0.30774 0.81725 -0.14000
C 	C 	0.05560 0.32408 0.77878 0.12800
N 	N 	0.04226 0.34796 0.80636 -0.14400
C 	C 	0.04767 0.35593 0.87203 0.12600
N 	N 	0.06661 0.33994 0.91000 -0.14100
C 	C 	0.00036 0.29813 0.17599 0.11300
N 	N 	0.00563 0.29235 0.24088 -0.14000
C 	C 	0.01034 0.31440 0.28836 0.12700
N 	N 	0.01005 0.34224 0.27095 -0.14300
C 	C 	0.00515 0.34815 0.20623 0.12600
N 	N 	0.00022 0.32609 0.15879 -0.14400
Cd	Cd	0.11906 0.90389 0.66244 1.24400
Cd	Cd	0.10580 0.89299 0.82924 1.19000
O 	O 	0.16517 0.88484 0.61459 -0.31300
O 	O 	0.13099 0.90722 0.55511 -0.34100
C 	C 	0.15818 0.89684 0.55928 0.26800
O 	O 	0.07203 0.91905 0.67299 -0.35600
O 	O 	0.07622 0.92780 0.78660 -0.41900
C 	C 	0.05977 0.92612 0.72977 0.29000
O 	O 	0.14461 0.91636 0.78247 -0.42600
O 	O 	0.11379 0.86998 0.72913 -0.54200
C 	C 	0.14512 0.94336 0.76783 0.30500
O 	O 	0.13706 0.94835 0.70647 -0.35200
Cd	Cd	0.03017 0.03123 0.48323 1.24400
O 	O 	0.08370 0.04233 0.47960 -0.31100
O 	O 	0.05957 0.05358 0.56937 -0.32400
C 	C 	0.08484 0.05371 0.54021 0.26800
O 	O 	0.98129 0.03017 0.50623 -0.35200
C 	C 	0.96037 0.01593 0.46736 0.29300
C 	C 	0.01160 0.07103 0.38732 0.32800
O 	O 	0.01940 0.08460 0.44467 -0.28100
O 	O 	0.01820 0.04373 0.38280 -0.53300
C 	C 	0.31924 0.01812 0.69076 0.11000
N 	N 	0.30609 0.03300 0.74153 -0.13700
C 	C 	0.32320 0.04831 0.78978 0.12600
N 	N 	0.35357 0.04907 0.78646 -0.14400
C 	C 	0.36682 0.03435 0.73552 0.12600
N 	N 	0.34960 0.01869 0.68798 -0.14100
C 	C 	0.24695 0.13294 0.34241 0.11300
N 	N 	0.26926 0.15137 0.36690 -0.14200
C 	C 	0.29277 0.15668 0.32973 0.12800
N 	N 	0.29341 0.14411 0.26701 -0.14300
C 	C 	0.27065 0.12642 0.24145 0.12800
N 	N 	0.24775 0.12025 0.27976 -0.13900
C 	C 	0.30913 0.06142 0.84930 -0.04500
C 	C 	0.31819 0.08907 0.87832 0.09900
C 	C 	0.30926 0.09806 0.94200 -0.07900
C 	C 	0.28950 0.08105 0.97460 -0.02300
C 	C 	0.27757 0.05507 0.94207 0.08400
C 	C 	0.28804 0.04515 0.88033 -0.05300
N 	N 	0.33428 0.10750 0.84432 -0.19800
H 	H 	0.31744 0.11853 0.96592 0.05000
C 	C 	0.28248 0.09013 0.04387 0.01300
N 	N 	0.25626 0.03951 0.96986 -0.20100
H 	H 	0.28023 0.02443 0.85713 0.05900
C 	C 	0.25998 0.11081 0.05461 -0.09000
C 	C 	0.25466 0.12202 0.11932 0.10700
C 	C 	0.27216 0.11214 0.17419 -0.05000
C 	C 	0.29371 0.09051 0.16362 -0.04800
C 	C 	0.29921 0.07947 0.09895 0.06900
H 	H 	0.24693 0.11863 0.01238 0.06700
N 	N 	0.23310 0.14251 0.12818 -0.20000
H 	H 	0.30689 0.08281 0.20581 0.05000
N 	N 	0.32074 0.05895 0.09015 -0.19200
H 	H 	0.22058 0.14988 0.08727 0.09000
H 	H 	0.22839 0.15119 0.17546 0.09600
H 	H 	0.33304 0.05133 0.13113 0.08800
H 	H 	0.32547 0.05027 0.04287 0.09500
H 	H 	0.24783 0.02019 0.94579 0.09900
H 	H 	0.24728 0.04677 0.01452 0.11000
H 	H 	0.33715 0.10347 0.79358 0.09400
H 	H 	0.34234 0.12714 0.86744 0.08400
C 	C 	0.22434 0.12383 0.38663 -0.00400
C 	C 	0.22586 0.09614 0.41066 -0.02800
C 	C 	0.20552 0.08777 0.45577 -0.03200
C 	C 	0.18332 0.10729 0.47815 -0.00300
C 	C 	0.18095 0.13481 0.45114 0.02700
C 	C 	0.20221 0.14330 0.40755 -0.04900
C 	C 	0.15615 0.15261 0.46409 -0.04300
C 	C 	0.13241 0.14227 0.49809 -0.03400
C 	C 	0.13408 0.11479 0.52347 0.01700
C 	C 	0.16094 0.09868 0.52014 0.01200
C 	C 	0.16371 0.07344 0.55549 -0.04300
C 	C 	0.13799 0.06062 0.57724 0.00500
C 	C 	0.10975 0.07305 0.56407 -0.04700
C 	C 	0.10849 0.10195 0.54674 -0.01600
H 	H 	0.24281 0.08097 0.39410 0.04500
H 	H 	0.20605 0.06564 0.46988 0.04000
H 	H 	0.20098 0.16466 0.38833 0.04800
H 	H 	0.15444 0.17383 0.44441 0.04400
H 	H 	0.11241 0.15535 0.50323 0.04800
H 	H 	0.18541 0.06379 0.56605 0.04700
H 	H 	0.13958 0.03946 0.59723 0.04500
H 	H 	0.08692 0.11273 0.54228 0.05800
C 	C 	0.18227 0.91071 0.52553 -0.05600
C 	C 	0.21065 0.89758 0.52517 0.00500
C 	C 	0.23667 0.91477 0.53084 -0.04800
C 	C 	0.23425 0.94525 0.53894 0.01400
C 	C 	0.20602 0.95795 0.52325 0.01100
C 	C 	0.18013 0.94039 0.51490 -0.01900
C 	C 	0.20360 0.98814 0.52230 -0.03000
C 	C 	0.22795 0.00591 0.54458 -0.05200
C 	C 	0.25455 0.99387 0.57118 0.03600
C 	C 	0.25839 0.96330 0.56724 -0.00800
C 	C 	0.28446 0.95165 0.59891 -0.02900
C 	C 	0.30545 0.96992 0.63520 -0.03200
C 	C 	0.30072 0.99988 0.64157 0.00300
C 	C 	0.27608 0.01191 0.60708 -0.05800
H 	H 	0.21257 0.87426 0.52635 0.04500
H 	H 	0.25829 0.90435 0.52808 0.04700
H 	H 	0.15819 0.95031 0.50849 0.05600
H 	H 	0.18243 0.99792 0.50686 0.04600
H 	H 	0.22547 0.02922 0.54522 0.04300
H 	H 	0.28781 0.92854 0.59929 0.04100
H 	H 	0.32460 0.96055 0.66151 0.04600
H 	H 	0.27274 0.03520 0.61142 0.05300
C 	C 	0.05174 0.31712 0.70646 -0.05000
C 	C 	0.03336 0.29363 0.67951 0.10400
C 	C 	0.02779 0.28959 0.61020 -0.08700
C 	C 	0.03981 0.30877 0.56772 -0.00300
C 	C 	0.05889 0.33173 0.59460 0.07000
C 	C 	0.06476 0.33555 0.66377 -0.05200
N 	N 	0.02052 0.27530 0.71969 -0.20000
H 	H 	0.01338 0.27191 0.58937 0.06000
C 	C 	0.03020 0.30609 0.49594 -0.00600
N 	N 	0.07138 0.35032 0.55447 -0.19400
H 	H 	0.07902 0.35336 0.68458 0.04800
C 	C 	0.00341 0.31938 0.47443 -0.08000
C 	C 	0.99513 0.32002 0.40634 0.09900
C 	C 	0.01473 0.30827 0.35901 -0.04700
C 	C 	0.04050 0.29329 0.38047 -0.05400
C 	C 	0.04830 0.29180 0.44870 0.07300
H 	H 	0.98908 0.32946 0.51082 0.05400
N 	N 	0.96816 0.33146 0.38675 -0.19800
H 	H 	0.05505 0.28358 0.34407 0.05000
N 	N 	0.07331 0.27703 0.46842 -0.19400
H 	H 	0.95437 0.34117 0.42187 0.08700
H 	H 	0.96002 0.32964 0.33701 0.09500
H 	H 	0.08691 0.26710 0.43319 0.08700
H 	H 	0.07920 0.27475 0.51865 0.09100
H 	H 	0.08523 0.36733 0.57489 0.08400
H 	H 	0.06769 0.34806 0.50282 0.08900
H 	H 	0.02369 0.27794 0.77140 0.09600
H 	H 	0.00699 0.25806 0.69923 0.09200
C 	C 	0.15735 0.99231 0.92402 -0.02900
C 	C 	0.16502 0.01795 0.89576 -0.09800
C 	C 	0.17589 0.01622 0.83158 0.08300
C 	C 	0.17200 0.99044 0.79120 -0.02500
C 	C 	0.15786 0.96646 0.81526 -0.09100
C 	C 	0.15251 0.96676 0.88349 0.09000
N 	N 	0.13906 0.94235 0.90994 -0.03000
H 	H 	0.15132 0.99307 0.97528 0.08200
H 	H 	0.17859 0.98953 0.74030 0.06600
N 	N 	0.18885 0.04122 0.80578 -0.02100
O 	O 	0.15583 0.92147 0.93114 -0.15000
O 	O 	0.11024 0.94186 0.91668 -0.19900
O 	O 	0.20751 0.05777 0.84331 -0.10700
O 	O 	0.18241 0.04719 0.74445 -0.11500
C 	C 	0.13796 0.16686 0.05882 -0.06600
C 	C 	0.16111 0.18237 0.03283 0.01300
C 	C 	0.15696 0.21142 0.01966 -0.06100
C 	C 	0.12922 0.22484 0.03121 0.04300
C 	C 	0.10938 0.21139 0.07190 -0.00500
C 	C 	0.11381 0.18219 0.08545 -0.00700
C 	C 	0.08427 0.22652 0.09402 -0.01900
C 	C 	0.07695 0.25340 0.06998 -0.06600
C 	C 	0.09322 0.26438 0.01974 0.07100
C 	C 	0.11978 0.25023 0.99987 -0.05000
C 	C 	0.13363 0.25933 0.94351 -0.01500
C 	C 	0.12107 0.28161 0.90761 -0.04300
C 	C 	0.09466 0.29523 0.92696 0.00800
C 	C 	0.08159 0.28753 0.98476 -0.08100
H 	H 	0.18097 0.17117 0.01657 0.03400
H 	H 	0.17521 0.22323 0.00081 0.05100
H 	H 	0.09684 0.17071 0.10988 0.05100
H 	H 	0.07010 0.21723 0.12888 0.03700
H 	H 	0.05749 0.26489 0.08747 0.05200
H 	H 	0.15283 0.24803 0.92448 0.03300
H 	H 	0.13138 0.28762 0.86324 0.04700
H 	H 	0.06108 0.29809 0.99960 0.05200
C 	C 	0.95734 0.07762 0.36378 -0.03500
C 	C 	0.98666 0.08173 0.34541 -0.12200
C 	C 	0.99154 0.09143 0.28244 0.08600
C 	C 	0.96699 0.09508 0.23702 -0.02900
C 	C 	0.93761 0.08841 0.25337 -0.09600
C 	C 	0.93286 0.08030 0.31807 0.08200
N 	N 	0.90346 0.07399 0.33728 -0.05300
H 	H 	0.95365 0.07055 0.41251 0.06300
H 	H 	0.97085 0.10259 0.18851 0.06900
N 	N 	0.02141 0.09720 0.26403 -0.02600
O 	O 	0.89079 0.09190 0.37943 -0.20600
O 	O 	0.89236 0.04805 0.32438 -0.20200
O 	O 	0.03021 0.08677 0.20700 -0.11400
O 	O 	0.03916 0.11431 0.30246 -0.09800
C 	C 	0.90783 0.15635 0.00218 -0.02700
C 	C 	0.90003 0.18295 0.97694 -0.01200
C 	C 	0.92029 0.20624 0.98490 -0.05700
C 	C 	0.94890 0.20289 0.01807 0.02600
C 	C 	0.95819 0.17456 0.03326 0.01700
C 	C 	0.93802 0.15118 0.02095 -0.01700
C 	C 	0.98550 0.17067 0.06984 -0.03300
C 	C 	0.00097 0.19449 0.10136 -0.03800
C 	C 	0.99043 0.22263 0.09298 0.02700
C 	C 	0.96636 0.22720 0.04573 -0.01000
C 	C 	0.95932 0.25595 0.03099 -0.01400
C 	C 	0.97151 0.27927 0.07171 -0.03600
C 	C 	0.99191 0.27432 0.12555 -0.00800
C 	C 	0.00260 0.24614 0.13365 -0.04900
H 	H 	0.87712 0.18662 0.95832 0.04100
H 	H 	0.91263 0.22706 0.96985 0.04500
H 	H 	0.94443 0.13000 0.03702 0.06900
H 	H 	0.99340 0.14900 0.07869 0.05600
H 	H 	0.02052 0.19097 0.13443 0.04800
H 	H 	0.94544 0.26047 0.98721 0.02600
H 	H 	0.96457 0.30113 0.06213 0.04600
H 	H 	0.01979 0.24244 0.17256 0.04900
H 	H 	0.41794 0.22555 0.45357 0.05400
C 	C 	0.37996 0.18336 0.40378 -0.00600
C 	C 	0.36782 0.19436 0.34496 -0.08600
C 	C 	0.33751 0.18939 0.32430 0.10200
C 	C 	0.31982 0.17167 0.36118 -0.05100
C 	C 	0.33082 0.16430 0.42452 -0.05400
C 	C 	0.36073 0.17052 0.44672 0.07000
H 	H 	0.38222 0.20585 0.31406 0.05600
N 	N 	0.32540 0.20200 0.26998 -0.19900
H 	H 	0.31671 0.15223 0.45488 0.05200
H 	H 	0.33891 0.21397 0.24116 0.08700
H 	H 	0.30225 0.20138 0.25811 0.09300
H 	H 	0.46558 0.24824 0.48243 0.08500
C 	C 	0.39969 0.03667 0.72979 -0.05000
C 	C 	0.42004 0.03542 0.78626 0.10100
C 	C 	0.45005 0.04403 0.78224 -0.08600
C 	C 	0.46074 0.05112 0.72144 -0.00500
C 	C 	0.44128 0.04880 0.66314 0.06900
C 	C 	0.41070 0.04239 0.66822 -0.05400
N 	N 	0.41127 0.02476 0.84324 -0.19900
C 	C 	0.49229 0.06127 0.71995 -0.00600
N 	N 	0.45166 0.05310 0.60256 -0.19400
H 	H 	0.39535 0.04244 0.62440 0.05000
C 	C 	0.51559 0.04104 0.72541 -0.08700
C 	C 	0.49933 0.09122 0.72124 0.07000
H 	H 	0.51028 0.01806 0.72169 0.05500
N 	N 	0.47739 0.11134 0.71279 -0.19400
H 	H 	0.48285 0.13339 0.71426 0.08300
H 	H 	0.45481 0.10543 0.70456 0.08800
H 	H 	0.43696 0.05209 0.56005 0.08400
H 	H 	0.47442 0.05685 0.59677 0.08800
H 	H 	0.39083 0.01381 0.84440 0.09300
C 	C 	0.75499 0.06445 0.23451 -0.04400
C 	C 	0.75706 0.07689 0.30017 -0.09500
C 	C 	0.76141 0.10718 0.31065 0.07900
C 	C 	0.77119 0.12273 0.25876 -0.04100
C 	C 	0.77731 0.10794 0.19816 -0.09800
C 	C 	0.76394 0.08055 0.18265 0.09900
N 	N 	0.76002 0.06897 0.11499 -0.02000
H 	H 	0.74784 0.04209 0.22426 0.05800
H 	H 	0.77764 0.14533 0.26824 0.06000
N 	N 	0.75548 0.12213 0.37289 -0.01700
O 	O 	0.76428 0.04151 0.10025 -0.08200
O 	O 	0.75016 0.08548 0.06876 -0.08400
O 	O 	0.77577 0.13922 0.40375 -0.12000
O 	O 	0.72905 0.12026 0.39634 -0.09800
C 	C 	0.88305 0.04650 0.49208 -0.01600
C 	C 	0.91443 0.04369 0.50282 0.09600
N 	N 	0.93154 0.06694 0.53724 -0.02100
H 	H 	0.87248 0.06722 0.50330 0.06600
O 	O 	0.92829 0.09322 0.51863 -0.09400
O 	O 	0.94633 0.06270 0.59331 -0.08300
C 	C 	0.99824 0.98263 0.72993 -0.04200
C 	C 	0.97272 0.96524 0.73433 -0.07300
C 	C 	0.00405 0.92219 0.72728 -0.07500
C 	C 	0.02981 0.93965 0.72777 -0.07700
C 	C 	0.02674 0.96996 0.72563 0.08700
N 	N 	0.05230 0.98783 0.71719 -0.01700
H 	H 	0.99618 0.00605 0.73286 0.04200
O 	O 	0.05256 0.00365 0.66634 -0.10900
O 	O 	0.07460 0.98946 0.76200 -0.21100
C 	C 	0.99245 0.07420 0.79750 -0.03100
C 	C 	0.96731 0.07197 0.83531 -0.11000
C 	C 	0.96991 0.07954 0.90433 0.05900
C 	C 	0.99801 0.08710 0.93547 -0.03100
C 	C 	0.02354 0.08779 0.89830 -0.11600
C 	C 	0.02046 0.08254 0.82839 0.06300
N 	N 	0.04543 0.08657 0.78847 -0.03500
H 	H 	0.99038 0.06911 0.74419 0.07000
H 	H 	0.00000 0.09212 0.98881 0.05800
N 	N 	0.94392 0.07997 0.94274 -0.03300
O 	O 	0.05255 0.06627 0.74447 -0.16900
O 	O 	0.05914 0.11154 0.79155 -0.10100
O 	O 	0.94453 0.06730 0.99843 -0.16800
O 	O 	0.91986 0.09359 0.92278 -0.09900
C 	C 	0.80102 0.08919 0.69201 0.00400
H 	H 	0.81667 0.10625 0.68314 0.04400
H 	H 	0.76323 0.11765 0.69243 0.04500
H 	H 	0.72863 0.12763 0.76094 0.04300
C 	C 	0.00268 0.37857 0.18854 -0.05300
C 	C 	0.02363 0.39969 0.21636 0.10000
C 	C 	0.01590 0.42911 0.21742 -0.08500
C 	C 	0.97690 0.38737 0.15181 -0.05900
N 	N 	0.05133 0.39186 0.24083 -0.19900
H 	H 	0.03096 0.44522 0.24304 0.05500
H 	H 	0.96154 0.37120 0.12751 0.04900
H 	H 	0.05895 0.37058 0.23369 0.09300
H 	H 	0.06621 0.40744 0.26407 0.08600
C 	C 	0.02600 0.38580 0.96710 0.09600
C 	C 	0.03483 0.38319 0.90066 -0.05000
C 	C 	0.03308 0.40743 0.86233 -0.05200
C 	C 	0.02333 0.43427 0.88942 0.06800
N 	N 	0.02199 0.36193 0.00146 -0.18700
H 	H 	0.03950 0.40547 0.81126 0.05000
N 	N 	0.02004 0.45693 0.84986 -0.19400
H 	H 	0.01983 0.34130 0.97714 0.08400
H 	H 	0.02532 0.45452 0.80005 0.08400
C 	C 	0.06140 0.94377 0.04202 -0.03700
C 	C 	0.02999 0.94543 0.03340 -0.07700
C 	C 	0.01616 0.97280 0.04089 0.07800
C 	C 	0.03356 0.99811 0.03983 -0.03800
C 	C 	0.06482 0.99618 0.03711 -0.08100
C 	C 	0.07892 0.96936 0.04766 0.10600
N 	N 	0.11049 0.96828 0.06715 -0.01900
H 	H 	0.07218 0.92277 0.04203 0.06600
H 	H 	0.02267 0.01903 0.03798 0.04500
O 	O 	0.12497 0.94390 0.06099 -0.08600
O 	O 	0.12387 0.99079 0.09813 -0.09100
O 	O 	0.96830 0.99449 0.02513 -0.22000
O 	O 	0.04037 0.81585 0.61337 -0.08100
C 	C 	0.85662 0.00786 0.17151 -0.09200
N 	N 	0.80640 0.98705 0.14058 -0.01800
H 	H 	0.90246 0.02164 0.19480 0.05300
O 	O 	0.78320 0.98314 0.17509 -0.17500
Cd	Cd	0.88822 0.86275 0.28633 1.24400
Cd	Cd	0.88577 0.91566 0.42071 1.20000
O 	O 	0.89123 0.81154 0.31204 -0.31000
O 	O 	0.88772 0.82414 0.20906 -0.33700
C 	C 	0.89043 0.80326 0.24920 0.26900
O 	O 	0.87751 0.90388 0.23727 -0.35800
O 	O 	0.89695 0.93416 0.32440 -0.38800
C 	C 	0.88150 0.93024 0.26648 0.29900
C 	C 	0.83356 0.87193 0.35041 0.31100
O 	O 	0.92109 0.88088 0.39358 -0.44300
O 	O 	0.82870 0.85658 0.29389 -0.27000
O 	O 	0.86155 0.87635 0.36936 -0.53200
C 	C 	0.94348 0.88408 0.35618 0.30500
O 	O 	0.93889 0.87485 0.29383 -0.32800
Cd	Cd	0.98290 0.85729 0.99847 1.23800
Cd	Cd	0.98731 0.89696 0.85573 1.18400
O 	O 	0.95820 0.80950 0.98528 -0.32300
O 	O 	0.98143 0.82532 0.08028 -0.33400
C 	C 	0.96587 0.80479 0.04664 0.28300
O 	O 	0.01262 0.89558 0.03241 -0.36600
O 	O 	0.99296 0.92439 0.95232 -0.44300
C 	C 	0.01253 0.92022 0.00247 0.30700
C 	C 	0.02622 0.84116 0.90462 0.29500
O 	O 	0.94661 0.87831 0.90598 -0.42700
O 	O 	0.03213 0.82903 0.96055 -0.27600
O 	O 	0.00099 0.85497 0.90072 -0.53900
C 	C 	0.93189 0.89118 0.95334 0.27700
O 	O 	0.94039 0.88515 0.01389 -0.31100
C 	C 	0.96393 0.59928 0.98569 0.09200
N 	N 	0.96127 0.60052 0.91855 -0.13900
C 	C 	0.96914 0.57748 0.87830 0.12700
N 	N 	0.97995 0.55322 0.90522 -0.14400
C 	C 	0.98192 0.55156 0.97219 0.11900
N 	N 	0.97407 0.57467 0.01266 -0.12700
C 	C 	0.96276 0.60580 0.28455 0.11200
N 	N 	0.96327 0.58046 0.24626 -0.14200
C 	C 	0.96869 0.55512 0.27541 0.12800
N 	N 	0.97141 0.55501 0.34278 -0.14400
C 	C 	0.96942 0.58011 0.38098 0.12900
N 	N 	0.96596 0.60555 0.35182 -0.14000
Cd	Cd	0.89056 0.02132 0.76112 1.24400
O 	O 	0.85322 0.05986 0.77581 -0.30400
O 	O 	0.85816 0.03681 0.67871 -0.33500
C 	C 	0.84312 0.05569 0.71422 0.26700
O 	O 	0.92604 0.99163 0.72154 -0.35300
O 	O 	0.93877 0.97285 0.82165 -0.43100
C 	C 	0.94557 0.97842 0.76119 0.28500
O 	O 	0.88564 0.00398 0.88135 -0.43800
C 	C 	0.87082 0.98141 0.85422 0.30800
O 	O 	0.86364 0.98204 0.79070 -0.32900
Cd	Cd	0.76416 0.02695 0.47659 1.24300
Cd	Cd	0.79193 0.99458 0.32903 1.19000
O 	O 	0.70996 0.02545 0.49674 -0.31000
O 	O 	0.74358 0.04478 0.57021 -0.35500
C 	C 	0.71525 0.04029 0.55335 0.27100
O 	O 	0.81394 0.03035 0.49537 -0.37600
O 	O 	0.82426 0.02665 0.38520 -0.43800
C 	C 	0.83317 0.02596 0.44864 0.30800
C 	C 	0.77119 0.96569 0.46296 0.31800
O 	O 	0.76775 0.97414 0.52524 -0.26900
O 	O 	0.76737 0.98550 0.42103 -0.53300
C 	C 	0.63182 0.09957 0.79429 0.11300
N 	N 	0.60670 0.08912 0.75885 -0.14200
C 	C 	0.57957 0.09107 0.78610 0.12800
N 	N 	0.57752 0.10406 0.84800 -0.14400
C 	C 	0.60245 0.11493 0.88288 0.13000
N 	N 	0.62953 0.11290 0.85582 -0.14100
C 	C 	0.55710 0.16534 0.45345 0.11300
N 	N 	0.56668 0.16784 0.39148 -0.13900
C 	C 	0.54738 0.17630 0.34192 0.12800
N 	N 	0.51843 0.18233 0.35467 -0.14300
C 	C 	0.50854 0.17917 0.41604 0.12800
N 	N 	0.52788 0.17052 0.46538 -0.14300
C 	C 	0.09834 0.84921 0.69748 0.30900
O 	O 	0.09463 0.85100 0.63301 -0.26900
Cd	Cd	0.99271 0.00541 0.33024 1.19500
O 	O 	0.96821 0.99640 0.42099 -0.39200
O 	O 	0.03300 0.98789 0.39266 -0.44000
C 	C 	0.03112 0.97022 0.43986 0.30200
O 	O 	0.03412 0.98236 0.50032 -0.32200
C 	C 	0.47613 0.17922 0.42474 -0.05100
C 	C 	0.46113 0.20501 0.44477 0.10000
C 	C 	0.42958 0.20572 0.43926 -0.08700
C 	C 	0.41297 0.18115 0.41429 -0.00500
C 	C 	0.42805 0.15500 0.39681 0.07100
C 	C 	0.45949 0.15420 0.40375 -0.05300
N 	N 	0.47683 0.22907 0.46917 -0.20000
N 	N 	0.41255 0.13088 0.37172 -0.19400
H 	H 	0.47116 0.13439 0.38930 0.04800
N 	N 	0.37112 0.16328 0.50814 -0.19400
H 	H 	0.35711 0.15272 0.53857 0.08400
H 	H 	0.39282 0.16894 0.52709 0.08700
H 	H 	0.42392 0.11162 0.36004 0.08400
H 	H 	0.38928 0.13105 0.36231 0.09100
H 	H 	0.50022 0.22882 0.47667 0.09100
H 	H 	0.46531 0.04465 0.82631 0.05500
C 	C 	0.54550 0.05027 0.73964 0.10000
C 	C 	0.55205 0.08034 0.74794 -0.05100
C 	C 	0.52935 0.10034 0.73340 -0.05300
N 	N 	0.56758 0.03020 0.74659 -0.20000
H 	H 	0.53468 0.12331 0.73681 0.04900
H 	H 	0.56234 0.00808 0.74242 0.08700
H 	H 	0.59015 0.03622 0.75421 0.09300
H 	H 	0.42588 0.02552 0.88587 0.08400
C 	C 	0.60015 0.12822 0.95064 -0.06000
C 	C 	0.60877 0.11286 0.00713 0.11800
C 	C 	0.60261 0.12473 0.07068 -0.08600
C 	C 	0.58743 0.15117 0.07852 -0.00400
C 	C 	0.58059 0.16737 0.02253 0.08300
C 	C 	0.58692 0.15562 0.95898 -0.06300
N 	N 	0.62228 0.08650 0.00066 -0.19400
H 	H 	0.60838 0.11270 0.11394 0.06200
C 	C 	0.57569 0.15985 0.14392 -0.00300
N 	N 	0.56757 0.19393 0.02933 -0.18900
H 	H 	0.58089 0.16755 0.91570 0.04900
C 	C 	0.59351 0.17734 0.19035 -0.08600
C 	C 	0.58353 0.18499 0.25384 0.10400
C 	C 	0.55608 0.17337 0.27237 -0.04900
C 	C 	0.53789 0.15660 0.22517 -0.05200
C 	C 	0.54729 0.14989 0.16092 0.07300
H 	H 	0.61498 0.18540 0.17666 0.05900
N 	N 	0.59984 0.20418 0.29574 -0.19900
H 	H 	0.51667 0.14802 0.23907 0.05100
N 	N 	0.52909 0.13369 0.11609 -0.19400
H 	H 	0.62072 0.21162 0.28289 0.09000
H 	H 	0.59128 0.21307 0.33958 0.09400
H 	H 	0.50834 0.12615 0.12946 0.08700
H 	H 	0.53508 0.12870 0.06748 0.09300
H 	H 	0.56193 0.20543 0.98751 0.07600
H 	H 	0.56348 0.20370 0.07604 0.09000
H 	H 	0.62679 0.07678 0.95419 0.09200
H 	H 	0.62843 0.07534 0.04271 0.09700
C 	C 	0.86541 0.02251 0.46749 -0.07300
C 	C 	0.87873 0.99510 0.46002 0.07500
C 	C 	0.91004 0.99243 0.46801 -0.01400
C 	C 	0.92830 0.01706 0.48422 -0.06900
H 	H 	0.92021 0.97133 0.45917 0.02200
N 	N 	0.86037 0.96969 0.44959 -0.04700
O 	O 	0.84593 0.96369 0.39232 -0.25000
O 	O 	0.85601 0.95396 0.49913 -0.19800
C 	C 	0.69272 0.06095 0.57752 -0.05900
C 	C 	0.69985 0.09060 0.58549 0.00600
C 	C 	0.67717 0.11111 0.59240 -0.04700
C 	C 	0.64679 0.10230 0.58511 0.01300
C 	C 	0.63996 0.07250 0.58801 0.01100
C 	C 	0.66301 0.05186 0.58324 -0.01700
C 	C 	0.61001 0.06364 0.59074 -0.03300
C 	C 	0.58671 0.08327 0.58025 -0.04300
C 	C 	0.59307 0.11153 0.56347 0.02600
C 	C 	0.62322 0.12185 0.56878 -0.00300
C 	C 	0.62925 0.14982 0.54805 -0.03300
C 	C 	0.60655 0.16551 0.51634 -0.02700
C 	C 	0.57757 0.15387 0.50503 -0.00700
C 	C 	0.57029 0.12813 0.53349 -0.04900
H 	H 	0.72297 0.09780 0.58506 0.04600
H 	H 	0.68339 0.13347 0.60527 0.04600
H 	H 	0.65769 0.02888 0.58064 0.04600
H 	H 	0.60472 0.04126 0.59837 0.04200
H 	H 	0.56363 0.07586 0.58029 0.04300
H 	H 	0.65169 0.15878 0.55201 0.04300
H 	H 	0.61200 0.18597 0.49658 0.04300
H 	H 	0.54753 0.11961 0.52639 0.04900
C 	C 	0.97540 0.93482 0.72752 0.04800
H 	H 	0.00624 0.89887 0.72671 0.01200
N 	N 	0.94904 0.91683 0.71757 -0.01800
O 	O 	0.92758 0.92328 0.67452 -0.08300
O 	O 	0.94764 0.89274 0.74705 -0.20100
C 	C 	0.81121 0.06074 0.69737 -0.04900
C 	C 	0.77095 0.09604 0.70143 -0.04300
C 	C 	0.75101 0.07458 0.71976 0.01400
C 	C 	0.76043 0.04529 0.71647 0.02700
C 	C 	0.79047 0.03856 0.70502 -0.01900
C 	C 	0.73968 0.02304 0.72337 -0.03200
C 	C 	0.70974 0.02955 0.73402 -0.03900
C 	C 	0.70042 0.05847 0.74214 0.02800
C 	C 	0.72134 0.08133 0.73817 -0.00000
C 	C 	0.71245 0.11009 0.75521 -0.03500
C 	C 	0.68272 0.11606 0.76954 -0.02700
C 	C 	0.66168 0.09353 0.76974 -0.00600
C 	C 	0.67050 0.06480 0.75566 -0.04700
H 	H 	0.79817 0.01634 0.70657 0.05900
H 	H 	0.74662 0.00055 0.71913 0.05900
H 	H 	0.69384 0.01201 0.73723 0.04700
H 	H 	0.67625 0.13821 0.78254 0.04400
H 	H 	0.65437 0.04732 0.75763 0.04600
C 	C 	0.98868 0.43784 0.18642 -0.00800
C 	C 	0.97013 0.41698 0.14891 0.07000
C 	C 	0.97928 0.46858 0.19680 -0.00300
N 	N 	0.94552 0.42514 0.11166 -0.19400
C 	C 	0.99745 0.49040 0.17492 -0.08700
C 	C 	0.99306 0.51967 0.19549 0.10400
C 	C 	0.96870 0.52734 0.23497 -0.04900
C 	C 	0.94815 0.50587 0.24869 -0.05100
C 	C 	0.95440 0.47643 0.23468 0.07100
H 	H 	0.01624 0.48443 0.14531 0.05800
N 	N 	0.01305 0.53999 0.17971 -0.19900
H 	H 	0.92899 0.51191 0.27719 0.04900
N 	N 	0.93743 0.45597 0.26058 -0.19400
H 	H 	0.03253 0.53375 0.15637 0.08800
H 	H 	0.00938 0.56209 0.18956 0.09800
H 	H 	0.91825 0.46198 0.28539 0.08500
H 	H 	0.94390 0.43429 0.25992 0.09000
H 	H 	0.93159 0.40956 0.08534 0.08500
H 	H 	0.94043 0.44697 0.10694 0.09300
C 	C 	0.99005 0.52389 0.99983 -0.06400
C 	C 	0.02064 0.51649 0.01022 0.11100
C 	C 	0.02900 0.48719 0.00533 -0.07600
C 	C 	0.00731 0.46553 0.98806 -0.01900
C 	C 	0.97643 0.47276 0.98758 0.06800
C 	C 	0.96815 0.50199 0.99609 -0.05200
N 	N 	0.04208 0.53744 0.02237 -0.20200
H 	H 	0.05259 0.48143 0.00945 0.05500
C 	C 	0.01704 0.43736 0.95751 0.00200
N 	N 	0.95478 0.45201 0.97504 -0.19500
H 	H 	0.94456 0.50780 0.99209 0.04400
C 	C 	0.01943 0.41333 0.99625 -0.10500
H 	H 	0.01445 0.41573 0.04819 0.06900
H 	H 	0.01840 0.36410 0.05217 0.09300
H 	H 	0.01165 0.47688 0.86741 0.09100
H 	H 	0.93207 0.45770 0.97223 0.07900
H 	H 	0.96017 0.43004 0.96982 0.08500
H 	H 	0.03627 0.55927 0.02963 0.09500
H 	H 	0.06480 0.53192 0.02737 0.08600
C 	C 	0.96881 0.57948 0.45369 -0.05000
C 	C 	0.94331 0.58911 0.48741 0.10300
C 	C 	0.94442 0.59022 0.55712 -0.08600
C 	C 	0.96967 0.58017 0.59336 -0.00400
C 	C 	0.99464 0.56926 0.55950 0.07000
C 	C 	0.99407 0.56939 0.48990 -0.05400
N 	N 	0.91742 0.59633 0.45322 -0.19900
H 	H 	0.92520 0.59816 0.58323 0.05700
C 	C 	0.96915 0.58018 0.66658 -0.00600
N 	N 	0.01914 0.55869 0.59337 -0.19300
H 	H 	0.01339 0.56166 0.46385 0.05100
C 	C 	0.95366 0.55793 0.69405 -0.08600
C 	C 	0.95161 0.55776 0.76309 0.10000
C 	C 	0.96711 0.57923 0.80555 -0.05000
C 	C 	0.98220 0.60176 0.77804 -0.05300
C 	C 	0.98304 0.60270 0.70882 0.07200
H 	H 	0.94248 0.54110 0.66142 0.05400
N 	N 	0.93390 0.53764 0.78805 -0.19900
H 	H 	0.99369 0.61841 0.81063 0.05200
N 	N 	0.99729 0.62512 0.68336 -0.19500
H 	H 	0.92376 0.52104 0.75667 0.08400
H 	H 	0.92864 0.53920 0.83785 0.09200
H 	H 	0.00775 0.64145 0.71502 0.09100
H 	H 	0.99790 0.62678 0.63215 0.09300
H 	H 	0.03754 0.55093 0.56792 0.08500
H 	H 	0.02013 0.55783 0.64499 0.09000
H 	H 	0.91449 0.59241 0.40170 0.09500
H 	H 	0.89923 0.60464 0.47859 0.08900
N 	N 	0.98483 0.97485 0.05253 -0.01400
O 	O 	0.97343 0.95863 0.09490 -0.08800
C 	C 	0.89042 0.90444 0.87350 -0.04000
C 	C 	0.90424 0.90762 0.93802 -0.07400
C 	C 	0.89545 0.93084 0.98145 0.07800
C 	C 	0.87988 0.95421 0.95516 -0.04100
C 	C 	0.87209 0.95374 0.88669 -0.09300
C 	C 	0.87345 0.92716 0.84830 0.11000
N 	N 	0.85677 0.92284 0.78542 -0.01900
H 	H 	0.89389 0.88491 0.84213 0.07700
H 	H 	0.87539 0.97332 0.98714 0.05900
N 	N 	0.90105 0.93022 0.05191 -0.01100
O 	O 	0.86933 0.91032 0.73459 -0.07700
O 	O 	0.82831 0.92916 0.78049 -0.07400
O 	O 	0.91084 0.95342 0.08655 -0.08700
O 	O 	0.89175 0.90827 0.08232 -0.07200
C 	C 	0.02986 0.83723 0.78114 -0.05600
C 	C 	0.04347 0.83423 0.84515 -0.11900
C 	C 	0.07369 0.82506 0.85143 0.05800
C 	C 	0.09043 0.82206 0.79498 -0.05600
C 	C 	0.07856 0.83156 0.73433 -0.11100
C 	C 	0.04723 0.83484 0.72526 0.08500
N 	N 	0.03302 0.83506 0.65961 -0.02000
H 	H 	0.00598 0.84149 0.77481 0.03400
H 	H 	0.11414 0.81691 0.80078 0.04800
N 	N 	0.08822 0.82137 0.91540 -0.02000
O 	O 	0.01115 0.85291 0.64737 -0.10400
O 	O 	0.09490 0.79547 0.93293 -0.09700
O 	O 	0.09759 0.84393 0.95302 -0.16000
C 	C 	0.96119 0.77629 0.07215 -0.05500
C 	C 	0.93290 0.76303 0.06146 0.00700
C 	C 	0.92986 0.73312 0.06435 -0.04600
C 	C 	0.95553 0.71582 0.07604 0.01200
C 	C 	0.98321 0.72980 0.09658 0.01200
C 	C 	0.98593 0.76001 0.09402 -0.01900
C 	C 	0.00791 0.71346 0.11829 -0.03500
C 	C 	0.00637 0.68327 0.11401 -0.04300
C 	C 	0.98061 0.66886 0.08497 0.02700
C 	C 	0.95453 0.68493 0.06714 -0.00100
C 	C 	0.92938 0.66992 0.03507 -0.03700
C 	C 	0.93110 0.64033 0.01710 -0.01500
C 	C 	0.95798 0.62535 0.02843 0.00600
C 	C 	0.98166 0.63894 0.06751 -0.05200
H 	H 	0.91329 0.77588 0.04896 0.05000
H 	H 	0.90751 0.72396 0.06098 0.04800
H 	H 	0.00761 0.77052 0.10508 0.05900
H 	H 	0.02860 0.72418 0.13751 0.04800
H 	H 	0.02589 0.67100 0.13009 0.04500
H 	H 	0.90919 0.68113 0.01982 0.04500
H 	H 	0.91229 0.62958 0.98894 0.03200
H 	H 	0.00211 0.62695 0.07829 0.05100
C 	C 	0.84497 0.95863 0.19847 -0.04900
C 	C 	0.87406 0.95579 0.22801 -0.06400
C 	C 	0.89509 0.97850 0.22505 0.10500
C 	C 	0.88637 0.00408 0.19564 -0.02800
C 	C 	0.83609 0.98459 0.17065 0.07700
H 	H 	0.82898 0.94098 0.19853 0.06600
N 	N 	0.92499 0.97618 0.25402 -0.01200
O 	O 	0.80258 0.99064 0.07727 -0.07200
O 	O 	0.94223 0.95505 0.23412 -0.11200
O 	O 	0.93577 0.99656 0.29634 -0.22100
C 	C 	0.77196 0.92626 0.37333 -0.04900
C 	C 	0.77818 0.93545 0.44053 -0.09900
C 	C 	0.79580 0.91763 0.48142 0.10600
C 	C 	0.81228 0.89486 0.45199 -0.05100
C 	C 	0.80954 0.88852 0.38279 -0.10300
C 	C 	0.78710 0.90253 0.34458 0.08800
N 	N 	0.77944 0.89264 0.27696 -0.02100
H 	H 	0.75624 0.93827 0.34269 0.03100
H 	H 	0.82774 0.88260 0.48265 0.04700
N 	N 	0.79574 0.92151 0.55241 -0.02000
O 	O 	0.76654 0.86748 0.26365 -0.08100
O 	O 	0.78150 0.91027 0.22990 -0.12000
O 	O 	0.82104 0.92308 0.58824 -0.08500
O 	O 	0.77061 0.91942 0.58137 -0.07900
C 	C 	0.97290 0.91180 0.44821 -0.03600
C 	C 	0.97075 0.90070 0.38159 -0.08700
C 	C 	0.99353 0.90751 0.33935 0.10100
C 	C 	0.01532 0.92847 0.36137 -0.04500
C 	C 	0.01515 0.94216 0.42563 -0.08800
C 	C 	0.99523 0.93197 0.47071 0.10200
N 	N 	0.99816 0.94137 0.53967 -0.02000
H 	H 	0.95693 0.90505 0.48258 0.04700
H 	H 	0.03181 0.93477 0.32768 0.05600
N 	N 	0.99533 0.89257 0.27529 -0.01900
O 	O 	0.97626 0.95517 0.56734 -0.09400
O 	O 	0.02160 0.93388 0.57599 -0.07000
O 	O 	0.99371 0.90703 0.22211 -0.09200
O 	O 	0.00180 0.86510 0.27070 -0.08300
C 	C 	0.90360 0.77542 0.22790 -0.05400
C 	C 	0.93467 0.77163 0.23774 0.00500
C 	C 	0.94689 0.74384 0.23617 -0.04500
C 	C 	0.92792 0.71922 0.22581 0.01100
C 	C 	0.89711 0.72330 0.20711 0.01100
C 	C 	0.88499 0.75141 0.20974 -0.02000
C 	C 	0.87888 0.69938 0.18535 -0.03800
C 	C 	0.89046 0.67136 0.18508 -0.04600
C 	C 	0.91993 0.66659 0.21040 0.02600
C 	C 	0.93900 0.69052 0.23156 -0.00300
C 	C 	0.96759 0.68514 0.26260 -0.03300
C 	C 	0.97680 0.65681 0.27202 -0.02800
C 	C 	0.95737 0.63342 0.25400 -0.00600
C 	C 	0.92976 0.63817 0.21961 -0.04900
H 	H 	0.94933 0.79030 0.24840 0.05000
H 	H 	0.97105 0.74178 0.23936 0.04900
H 	H 	0.86104 0.75449 0.19988 0.04800
H 	H 	0.85563 0.70249 0.16836 0.04400
H 	H 	0.87604 0.65317 0.16767 0.04400
H 	H 	0.98188 0.70264 0.28395 0.04400
H 	H 	0.99831 0.65319 0.29813 0.04400
H 	H 	0.91486 0.61995 0.20506 0.05000
