data_crystal

_cell_length_a 42.40004
_cell_length_b 42.66413
_cell_length_c 19.96344
_cell_angle_alpha 89.97950
_cell_angle_beta  89.24005
_cell_angle_gamma 90.02049

_symmetry_space_group_name_	'P 1'
_symmetry_space_group_name_H-M	'P 1'

loop_
_symmetry_equiv_pos_as_xyz
  x,y,z

loop_
_atom_site_label
_atom_site_type_symbol
_atom_site_fract_x
_atom_site_fract_y
_atom_site_fract_z
_atom_site_charge
Cd	Cd	0.16817 0.96543 0.19182 1.24000
Cd	Cd	0.15340 0.03681 0.28169 1.18600
O 	O 	0.19065 0.92300 0.25859 -0.32300
O 	O 	0.17467 0.91467 0.15610 -0.35000
C 	C 	0.18597 0.90282 0.21114 0.26500
O 	O 	0.14040 0.99578 0.12039 -0.35300
O 	O 	0.15677 0.04094 0.17034 -0.40800
C 	C 	0.13701 0.02625 0.13138 0.31300
C 	C 	0.11252 0.97005 0.27246 0.32200
O 	O 	0.19876 0.00741 0.26202 -0.44900
O 	O 	0.11262 0.94468 0.23606 -0.27700
O 	O 	0.13916 0.98517 0.27374 -0.52900
C 	C 	0.21828 0.01052 0.21121 0.30700
O 	O 	0.21451 0.99071 0.16219 -0.34300
Cd	Cd	0.91781 0.81931 0.21538 1.24300
Cd	Cd	0.88239 0.83342 0.05541 1.18700
O 	O 	0.93262 0.76489 0.23973 -0.31700
O 	O 	0.94757 0.80354 0.30409 -0.33800
C 	C 	0.94983 0.77379 0.28961 0.26900
O 	O 	0.91633 0.87194 0.20684 -0.35400
O 	O 	0.87709 0.87266 0.12908 -0.39500
C 	C 	0.90122 0.88631 0.15787 0.30700
C 	C 	0.95669 0.82319 0.09834 0.32200
O 	O 	0.86808 0.80293 0.14737 -0.45000
O 	O 	0.97345 0.82271 0.15267 -0.28100
O 	O 	0.92701 0.81675 0.10694 -0.53000
C 	C 	0.85054 0.81186 0.19802 0.30800
O 	O 	0.86572 0.81873 0.25266 -0.33200
C 	C 	0.10293 0.70692 0.15320 0.11400
N 	N 	0.11485 0.72509 0.10288 -0.14100
C 	C 	0.12826 0.71170 0.04768 0.12900
N 	N 	0.12993 0.67996 0.04323 -0.14300
C 	C 	0.11914 0.66174 0.09437 0.12800
N 	N 	0.10564 0.67522 0.14926 -0.14200
C 	C 	0.14692 0.76972 0.46255 0.11500
N 	N 	0.13296 0.74272 0.44251 -0.14100
C 	C 	0.12004 0.72297 0.48849 0.13000
N 	N 	0.12134 0.72999 0.55451 -0.14400
C 	C 	0.13392 0.75759 0.57480 0.13100
N 	N 	0.14718 0.77733 0.52883 -0.13800
Cd	Cd	0.76221 0.96805 0.73841 1.24500
Cd	Cd	0.78693 0.01072 0.87878 1.18700
O 	O 	0.70613 0.95670 0.71731 -0.30800
O 	O 	0.74367 0.94285 0.64696 -0.34200
C 	C 	0.71383 0.94168 0.66277 0.26700
O 	O 	0.81313 0.97743 0.72045 -0.36900
O 	O 	0.82627 0.98221 0.83135 -0.41200
C 	C 	0.83451 0.98097 0.76735 0.31700
C 	C 	0.75515 0.03432 0.73912 0.32000
O 	O 	0.75855 0.96441 0.87040 -0.44200
O 	O 	0.75209 0.02334 0.67834 -0.28600
O 	O 	0.75655 0.01331 0.78580 -0.52500
C 	C 	0.77048 0.93635 0.86539 0.30500
O 	O 	0.77408 0.92546 0.80473 -0.33400
Cd	Cd	0.83208 0.01922 0.45977 1.24400
Cd	Cd	0.88434 0.05858 0.34451 1.19700
O 	O 	0.80940 0.96834 0.42663 -0.29700
O 	O 	0.80069 0.98849 0.52631 -0.33300
C 	C 	0.79535 0.96570 0.48460 0.27500
O 	O 	0.85189 0.05821 0.52068 -0.35100
O 	O 	0.86810 0.08816 0.43151 -0.41000
C 	C 	0.87118 0.07933 0.49437 0.30400
C 	C 	0.89578 0.99847 0.44492 0.33100
O 	O 	0.83193 0.04337 0.33916 -0.43800
O 	O 	0.88240 0.98602 0.49804 -0.25800
O 	O 	0.87715 0.01391 0.40600 -0.51500
C 	C 	0.80758 0.06018 0.35696 0.30700
O 	O 	0.79516 0.05331 0.41535 -0.33000
C 	C 	0.62294 0.79373 0.74497 0.11600
N 	N 	0.62766 0.79249 0.81209 -0.13800
C 	C 	0.60473 0.78130 0.85380 0.12900
N 	N 	0.57669 0.77212 0.82816 -0.14400
C 	C 	0.57166 0.77347 0.76108 0.12900
N 	N 	0.59532 0.78331 0.71958 -0.14100
C 	C 	0.63166 0.88851 0.41316 0.11400
N 	N 	0.63787 0.86956 0.35984 -0.13800
C 	C 	0.61393 0.85883 0.32153 0.12900
N 	N 	0.58367 0.86622 0.33787 -0.14400
C 	C 	0.57731 0.88500 0.39122 0.12800
N 	N 	0.60129 0.89587 0.42916 -0.14200
Cd	Cd	0.97865 0.27434 0.21139 1.24300
Cd	Cd	0.98213 0.22685 0.35558 1.19700
O 	O 	0.95786 0.32834 0.21708 -0.30200
O 	O 	0.98102 0.30982 0.12692 -0.35300
C 	C 	0.96906 0.33410 0.15735 0.27000
O 	O 	0.00707 0.23282 0.18059 -0.38700
O 	O 	0.98662 0.19871 0.25947 -0.38300
C 	C 	0.00460 0.20435 0.20616 0.31100
C 	C 	0.02560 0.28658 0.30903 0.31200
O 	O 	0.93990 0.25024 0.30160 -0.41100
O 	O 	0.03283 0.30018 0.25230 -0.29500
O 	O 	0.99823 0.27313 0.31118 -0.52800
C 	C 	0.92395 0.23818 0.25261 0.30700
O 	O 	0.93237 0.24693 0.19225 -0.34000
Cd	Cd	0.97392 0.17079 0.96180 1.24400
Cd	Cd	0.95998 0.11447 0.83503 1.20900
O 	O 	0.98793 0.22435 0.92640 -0.29300
O 	O 	0.98180 0.21213 0.03272 -0.32800
C 	C 	0.98864 0.23355 0.98832 0.25900
O 	O 	0.95486 0.12890 0.01681 -0.35300
O 	O 	0.96961 0.09350 0.93573 -0.40600
C 	C 	0.95467 0.10005 0.99230 0.29700
C 	C 	0.91548 0.17229 0.89268 0.31800
O 	O 	0.00428 0.14416 0.86037 -0.40700
O 	O 	0.91420 0.18950 0.94681 -0.27700
O 	O 	0.94314 0.16110 0.87759 -0.50800
C 	C 	0.02616 0.13691 0.90302 0.31100
O 	O 	0.02314 0.14849 0.96302 -0.34700
C 	C 	0.07828 0.39246 0.94688 0.11400
N 	N 	0.08705 0.39436 0.88134 -0.13700
C 	C 	0.10555 0.41832 0.85954 0.13000
N 	N 	0.11482 0.44070 0.90321 -0.14300
C 	C 	0.10619 0.43900 0.96885 0.12600
N 	N 	0.08775 0.41487 0.99067 -0.14100
C 	C 	0.06851 0.46629 0.27170 0.11400
N 	N 	0.08157 0.45090 0.32411 -0.13800
C 	C 	0.08751 0.46639 0.38191 0.13000
N 	N 	0.08239 0.49769 0.38579 -0.14400
C 	C 	0.07049 0.51337 0.33271 0.12900
N 	N 	0.06273 0.49754 0.27629 -0.14400
Cd	Cd	0.12324 0.93807 0.63003 1.24200
Cd	Cd	0.09543 0.96725 0.78896 1.19900
O 	O 	0.16296 0.89663 0.63515 -0.31300
O 	O 	0.14531 0.91333 0.53899 -0.34600
C 	C 	0.16514 0.89536 0.57032 0.27300
O 	O 	0.08094 0.96669 0.60385 -0.36300
O 	O 	0.08118 0.99568 0.70003 -0.38400
C 	C 	0.06568 0.98318 0.65008 0.30900
C 	C 	0.08009 0.90168 0.70776 0.32300
O 	O 	0.14443 0.96760 0.73589 -0.43400
O 	O 	0.08238 0.89087 0.64658 -0.27600
O 	O 	0.09989 0.92357 0.72317 -0.53100
C 	C 	0.15545 0.98917 0.69556 0.32300
O 	O 	0.15433 0.98250 0.63188 -0.36100
Cd	Cd	0.15662 0.15947 0.53118 1.24600
Cd	Cd	0.11811 0.22261 0.45669 1.19000
O 	O 	0.21464 0.15479 0.54082 -0.30400
O 	O 	0.18223 0.11992 0.58352 -0.34000
C 	C 	0.21130 0.12750 0.56952 0.26900
O 	O 	0.10587 0.15105 0.55186 -0.36400
O 	O 	0.08783 0.17908 0.46216 -0.41800
C 	C 	0.08243 0.16144 0.51542 0.31400
C 	C 	0.14843 0.21591 0.60465 0.31500
O 	O 	0.15737 0.18963 0.41561 -0.43700
O 	O 	0.15631 0.19314 0.64515 -0.26300
O 	O 	0.15092 0.20949 0.54161 -0.52800
C 	C 	0.15352 0.16279 0.38574 0.30700
O 	O 	0.15204 0.13844 0.42539 -0.34900
C 	C 	0.32329 0.89743 0.69470 0.11400
N 	N 	0.34942 0.87934 0.68750 -0.14200
C 	C 	0.36875 0.87469 0.74020 0.12700
N 	N 	0.36153 0.88754 0.80074 -0.14400
C 	C 	0.33509 0.90523 0.80849 0.12800
N 	N 	0.31617 0.91045 0.75520 -0.13700
C 	C 	0.32168 0.00838 0.37999 0.11300
N 	N 	0.31511 0.00448 0.31400 -0.13900
C 	C 	0.33134 0.98298 0.27702 0.13000
N 	N 	0.35436 0.96570 0.30589 -0.14300
C 	C 	0.36104 0.96959 0.37171 0.12800
N 	N 	0.34459 0.99089 0.40870 -0.14000
C 	C 	0.32697 0.91880 0.87469 -0.04800
C 	C 	0.32537 0.89984 0.93291 0.10500
C 	C 	0.32299 0.91411 0.99618 -0.09200
C 	C 	0.31969 0.94672 0.00207 0.00300
C 	C 	0.31841 0.96543 0.94349 0.07500
C 	C 	0.32263 0.95131 0.88036 -0.04900
N 	N 	0.32506 0.86803 0.92833 -0.19900
H 	H 	0.32334 0.89975 0.04100 0.05900
C 	C 	0.31991 0.96113 0.06989 -0.00400
N 	N 	0.31298 0.99681 0.94742 -0.19100
H 	H 	0.32301 0.96574 0.83563 0.05600
C 	C 	0.34709 0.97689 0.09080 -0.08300
C 	C 	0.34990 0.98711 0.15731 0.10800
C 	C 	0.32574 0.97997 0.20451 -0.04700
C 	C 	0.29774 0.96597 0.18282 -0.04800
C 	C 	0.29444 0.95672 0.11563 0.08400
H 	H 	0.36626 0.98095 0.05534 0.05900
N 	N 	0.37566 0.00395 0.17542 -0.19900
H 	H 	0.27884 0.96138 0.21864 0.05500
N 	N 	0.26694 0.94350 0.09554 -0.19000
H 	H 	0.39397 0.00812 0.14098 0.09100
H 	H 	0.37716 0.01418 0.22279 0.09800
H 	H 	0.24913 0.93824 0.13044 0.09500
H 	H 	0.26261 0.93918 0.04501 0.10300
H 	H 	0.31270 0.01051 0.90403 0.09900
H 	H 	0.30822 0.00777 0.99316 0.10800
H 	H 	0.32251 0.85674 0.88233 0.09400
H 	H 	0.32547 0.85422 0.97158 0.08600
C 	C 	0.30701 0.03413 0.41790 -0.00600
C 	C 	0.31695 0.06506 0.40663 -0.02000
C 	C 	0.30346 0.08970 0.44313 -0.03100
C 	C 	0.27900 0.08378 0.48947 0.01700
C 	C 	0.26975 0.05254 0.50290 0.02900
C 	C 	0.28405 0.02777 0.46734 -0.04900
C 	C 	0.24545 0.04664 0.54963 -0.05600
C 	C 	0.22843 0.07157 0.57781 0.00600
C 	C 	0.23531 0.10266 0.55897 -0.05300
C 	C 	0.26219 0.10871 0.51892 -0.01200
H 	H 	0.33519 0.06999 0.36958 0.04900
H 	H 	0.31135 0.11349 0.43379 0.06000
H 	H 	0.27687 0.00376 0.47696 0.04600
H 	H 	0.23892 0.02277 0.56224 0.05100
H 	H 	0.20877 0.06661 0.61138 0.05400
H 	H 	0.26858 0.13268 0.50669 0.06400
C 	C 	0.30108 0.90027 0.63925 -0.00500
C 	C 	0.29311 0.92997 0.61453 -0.02500
C 	C 	0.26729 0.93345 0.57235 -0.03700
C 	C 	0.24843 0.90742 0.55712 0.00600
C 	C 	0.25810 0.87710 0.57696 0.03000
C 	C 	0.28505 0.87364 0.61636 -0.05000
C 	C 	0.23806 0.85146 0.56584 -0.06000
C 	C 	0.20672 0.85669 0.54783 0.00600
C 	C 	0.19568 0.88744 0.54003 -0.05900
C 	C 	0.21781 0.91172 0.53288 -0.01600
H 	H 	0.30610 0.95051 0.63026 0.04600
H 	H 	0.26055 0.95669 0.55593 0.04200
H 	H 	0.29177 0.85060 0.63428 0.04700
H 	H 	0.24569 0.82788 0.57770 0.04300
H 	H 	0.19011 0.83740 0.54975 0.04000
H 	H 	0.20967 0.93518 0.52114 0.04400
C 	C 	0.11105 0.42293 0.78722 -0.05100
C 	C 	0.12626 0.39981 0.74746 0.11100
C 	C 	0.12748 0.40346 0.67755 -0.08700
C 	C 	0.11443 0.43000 0.64714 0.00100
C 	C 	0.10139 0.45418 0.68740 0.07100
C 	C 	0.09964 0.45027 0.75706 -0.04900
N 	N 	0.14028 0.37453 0.77604 -0.19900
H 	H 	0.13875 0.38569 0.64679 0.08100
C 	C 	0.11164 0.43090 0.57337 0.00300
N 	N 	0.09034 0.48108 0.65948 -0.19400
H 	H 	0.08868 0.46828 0.78782 0.05100
C 	C 	0.08313 0.42159 0.54479 -0.07700
C 	C 	0.07549 0.43092 0.47960 0.11000
C 	C 	0.09739 0.44908 0.44184 -0.04700
C 	C 	0.12748 0.45480 0.46751 -0.04800
C 	C 	0.13490 0.44576 0.53308 0.07600
H 	H 	0.06593 0.40893 0.57504 0.06800
N 	N 	0.04679 0.42325 0.45456 -0.19900
H 	H 	0.14464 0.46769 0.43759 0.05100
N 	N 	0.16400 0.45207 0.55753 -0.19300
H 	H 	0.03081 0.41000 0.48314 0.10200
H 	H 	0.04004 0.43008 0.40671 0.10500
H 	H 	0.18072 0.46398 0.52817 0.09000
H 	H 	0.17060 0.44450 0.60506 0.09400
H 	H 	0.08009 0.49846 0.68952 0.08700
H 	H 	0.09241 0.48535 0.60813 0.09100
H 	H 	0.14238 0.37259 0.82791 0.10000
H 	H 	0.15038 0.35701 0.74613 0.10200
C 	C 	0.15507 0.05520 0.81636 -0.07700
C 	C 	0.13152 0.07320 0.78634 0.02600
C 	C 	0.12694 0.07047 0.71682 0.05900
C 	C 	0.13961 0.04462 0.68265 0.00200
C 	C 	0.15669 0.02194 0.71784 -0.11800
C 	C 	0.16752 0.02912 0.78249 0.11400
C 	C 	0.10716 0.08827 0.82883 0.03200
N 	N 	0.10946 0.09375 0.68115 -0.01600
H 	H 	0.13397 0.04086 0.63047 0.06900
N 	N 	0.18987 0.00916 0.81482 -0.02700
H 	H 	0.16163 0.05975 0.86761 0.10200
C 	C 	0.07988 0.07143 0.84893 0.06400
C 	C 	0.05361 0.08770 0.87389 -0.00500
C 	C 	0.05476 0.12022 0.88207 -0.09900
C 	C 	0.08315 0.13653 0.86930 0.13400
C 	C 	0.10922 0.12041 0.84253 -0.06800
N 	N 	0.07900 0.03782 0.84524 -0.01700
H 	H 	0.03230 0.07498 0.88735 0.05300
N 	N 	0.08539 0.16950 0.88207 -0.02600
H 	H 	0.13068 0.13310 0.83021 0.09200
O 	O 	0.18612 0.00189 0.87772 -0.09600
O 	O 	0.21440 0.99884 0.78176 -0.10000
O 	O 	0.11512 0.12333 0.69117 -0.08900
O 	O 	0.09098 0.08546 0.63277 -0.07200
O 	O 	0.08035 0.18025 0.94220 -0.08000
O 	O 	0.09585 0.18826 0.83549 -0.06900
O 	O 	0.10095 0.02140 0.87349 -0.18100
O 	O 	0.05357 0.02383 0.82506 -0.14900
C 	C 	0.05523 0.36867 0.96799 -0.00200
C 	C 	0.02372 0.37161 0.94840 -0.02500
C 	C 	0.00300 0.34630 0.95490 -0.03400
C 	C 	0.01359 0.31777 0.98131 0.01300
C 	C 	0.04463 0.31543 0.00580 0.04000
C 	C 	0.06543 0.34093 0.99869 -0.06000
C 	C 	0.05465 0.28733 0.03526 -0.05300
C 	C 	0.03487 0.26105 0.03565 0.00800
C 	C 	0.00500 0.26259 0.00626 -0.04500
C 	C 	0.99403 0.29123 0.98115 -0.01200
H 	H 	0.01563 0.39316 0.92560 0.04600
H 	H 	0.97897 0.34864 0.93777 0.05000
H 	H 	0.08968 0.33886 0.01477 0.05600
H 	H 	0.07808 0.28550 0.05596 0.05700
H 	H 	0.04350 0.23900 0.05514 0.05600
H 	H 	0.97081 0.29250 0.95910 0.05500
C 	C 	0.04353 0.30183 0.49134 -0.09100
C 	C 	0.07609 0.29592 0.49174 0.02400
C 	C 	0.09277 0.29486 0.42991 -0.02300
C 	C 	0.07607 0.29258 0.36998 -0.00800
C 	C 	0.04304 0.29354 0.37080 -0.13400
C 	C 	0.02687 0.30055 0.43126 0.10100
C 	C 	0.09018 0.28249 0.55326 -0.02100
N 	N 	0.12611 0.29986 0.42727 -0.00600
H 	H 	0.08885 0.28995 0.32292 0.04000
N 	N 	0.99368 0.30672 0.43172 -0.03000
H 	H 	0.03082 0.30529 0.53824 0.08100
C 	C 	0.11944 0.29313 0.57756 0.05600
C 	C 	0.13834 0.27222 0.61416 -0.01700
C 	C 	0.12759 0.24156 0.62629 -0.11200
C 	C 	0.09479 0.23637 0.62366 0.09100
C 	C 	0.07668 0.25550 0.58199 -0.11600
N 	N 	0.12954 0.32488 0.56659 -0.01200
H 	H 	0.16248 0.27839 0.62552 0.06400
N 	N 	0.07988 0.21219 0.66312 -0.02900
H 	H 	0.05290 0.24858 0.56936 0.05900
O 	O 	0.98253 0.32991 0.39695 -0.09300
O 	O 	0.97485 0.29035 0.47000 -0.13400
O 	O 	0.14530 0.27629 0.43290 -0.22400
O 	O 	0.13711 0.32724 0.41036 -0.08500
O 	O 	0.09678 0.19124 0.69342 -0.07200
O 	O 	0.04955 0.21292 0.67392 -0.08900
O 	O 	0.10883 0.34727 0.56239 -0.10300
O 	O 	0.15946 0.33156 0.56269 -0.10000
C 	C 	0.98116 0.36558 0.14191 -0.06000
C 	C 	0.96222 0.39182 0.15568 0.01100
C 	C 	0.97617 0.42077 0.16961 -0.05900
C 	C 	0.00916 0.42344 0.17068 0.03200
C 	C 	0.02800 0.39824 0.14757 0.00700
C 	C 	0.01375 0.36960 0.13183 -0.01200
C 	C 	0.06097 0.40055 0.15008 -0.03400
C 	C 	0.07488 0.42529 0.18465 -0.02400
C 	C 	0.05596 0.44821 0.21551 -0.00700
C 	C 	0.02345 0.44885 0.20304 -0.05400
H 	H 	0.93690 0.38919 0.16112 0.04400
H 	H 	0.96142 0.44036 0.18454 0.05100
H 	H 	0.02840 0.34936 0.12133 0.05300
H 	H 	0.07571 0.38203 0.12968 0.04900
H 	H 	0.10021 0.42554 0.19122 0.04800
H 	H 	0.00896 0.46726 0.22482 0.05000
C 	C 	0.38912 0.95429 0.39997 -0.04900
C 	C 	0.39491 0.92198 0.38953 0.10200
C 	C 	0.42540 0.91007 0.39904 -0.08500
C 	C 	0.44957 0.92954 0.42219 -0.00600
C 	C 	0.44256 0.96070 0.44143 0.07300
C 	C 	0.41244 0.97295 0.42929 -0.05300
N 	N 	0.37126 0.90229 0.37158 -0.19900
H 	H 	0.43051 0.88580 0.38696 0.05500
C 	C 	0.48266 0.91870 0.41640 -0.00300
N 	N 	0.46469 0.97901 0.47085 -0.19300
H 	H 	0.40762 0.99742 0.43994 0.05400
C 	C 	0.50058 0.92767 0.36009 -0.08600
C 	C 	0.53210 0.91822 0.35271 0.10400
C 	C 	0.54534 0.89784 0.40079 -0.05100
C 	C 	0.52760 0.88915 0.45761 -0.05200
C 	C 	0.49641 0.89971 0.46639 0.06800
H 	H 	0.49010 0.94262 0.32248 0.05800
N 	N 	0.54970 0.92940 0.30041 -0.19900
H 	H 	0.53801 0.87400 0.49495 0.04600
N 	N 	0.48004 0.89194 0.52310 -0.19400
H 	H 	0.53936 0.94341 0.26378 0.09000
H 	H 	0.57398 0.92554 0.29708 0.09600
H 	H 	0.49060 0.87840 0.56022 0.08400
H 	H 	0.45697 0.89966 0.53152 0.08900
H 	H 	0.45968 0.00234 0.48289 0.08800
H 	H 	0.48664 0.97001 0.48407 0.09200
H 	H 	0.34781 0.90977 0.37122 0.09400
H 	H 	0.37597 0.87873 0.36113 0.08600
C 	C 	0.39674 0.85455 0.73238 -0.05100
C 	C 	0.42745 0.86633 0.74349 0.10200
C 	C 	0.45329 0.84588 0.73988 -0.08600
C 	C 	0.44927 0.81443 0.72139 -0.00500
C 	C 	0.41874 0.80297 0.70726 0.06900
C 	C 	0.39268 0.82308 0.71398 -0.05200
N 	N 	0.43239 0.89733 0.75557 -0.19900
H 	H 	0.47677 0.85463 0.74998 0.05600
C 	C 	0.47736 0.79393 0.71699 -0.00600
N 	N 	0.41432 0.77293 0.68645 -0.19400
H 	H 	0.36916 0.81423 0.70467 0.04700
C 	C 	0.48366 0.77326 0.76980 -0.08700
C 	C 	0.51397 0.76056 0.77691 0.10200
C 	C 	0.53889 0.77179 0.73558 -0.05000
C 	C 	0.53134 0.78797 0.67651 -0.05300
C 	C 	0.50051 0.79877 0.66645 0.07000
H 	H 	0.46521 0.76754 0.80588 0.05500
N 	N 	0.51876 0.73685 0.82104 -0.19800
H 	H 	0.54970 0.79379 0.64031 0.05200
N 	N 	0.49335 0.81410 0.60891 -0.19500
H 	H 	0.50070 0.72973 0.85381 0.08600
H 	H 	0.53965 0.72388 0.81979 0.09500
H 	H 	0.51083 0.81866 0.57281 0.08300
H 	H 	0.47017 0.82057 0.59845 0.08700
H 	H 	0.39162 0.76457 0.67721 0.08300
H 	H 	0.43329 0.75781 0.67790 0.08800
H 	H 	0.41425 0.91374 0.75172 0.09500
H 	H 	0.45501 0.90557 0.76610 0.08700
C 	C 	0.60783 0.78502 0.92717 -0.04800
C 	C 	0.63622 0.77736 0.96009 0.10500
C 	C 	0.64060 0.78723 0.02651 -0.08000
C 	C 	0.61626 0.80240 0.06201 -0.00400
C 	C 	0.58688 0.80757 0.03094 0.07600
C 	C 	0.58308 0.79910 0.96362 -0.05500
N 	N 	0.65876 0.75964 0.92923 -0.19800
H 	H 	0.66282 0.78267 0.05094 0.07000
C 	C 	0.62237 0.81453 0.13018 0.00000
N 	N 	0.56237 0.82092 0.06516 -0.19400
H 	H 	0.56108 0.80438 0.93895 0.05300
C 	C 	0.63203 0.84575 0.13738 -0.08100
C 	C 	0.63087 0.86047 0.20025 0.11100
C 	C 	0.62088 0.84311 0.25733 -0.04900
C 	C 	0.61395 0.81113 0.25090 -0.05000
C 	C 	0.61470 0.79657 0.18777 0.07200
H 	H 	0.63876 0.85916 0.09329 0.07100
N 	N 	0.63848 0.89139 0.20504 -0.19900
H 	H 	0.60696 0.79774 0.29485 0.05000
N 	N 	0.60754 0.76559 0.18268 -0.19300
H 	H 	0.64593 0.90387 0.16262 0.10600
H 	H 	0.63698 0.90343 0.25044 0.10100
H 	H 	0.60108 0.75270 0.22523 0.08800
H 	H 	0.60898 0.75384 0.13688 0.09200
H 	H 	0.54096 0.82511 0.04140 0.08700
H 	H 	0.56405 0.82681 0.11572 0.09100
H 	H 	0.65440 0.74823 0.88404 0.09800
H 	H 	0.68032 0.75552 0.95245 0.10000
C 	C 	0.86959 0.17699 0.32883 -0.07200
C 	C 	0.84503 0.17659 0.28266 0.02100
C 	C 	0.84492 0.19847 0.22968 0.06800
C 	C 	0.87074 0.21871 0.22048 0.00300
C 	C 	0.89610 0.21803 0.26508 -0.08700
C 	C 	0.89494 0.19755 0.32067 0.12000
C 	C 	0.82216 0.15049 0.28539 0.03000
N 	N 	0.81879 0.20005 0.18496 -0.01500
H 	H 	0.87091 0.23513 0.17902 0.07400
N 	N 	0.91968 0.19720 0.36850 -0.04500
H 	H 	0.86955 0.16043 0.37009 0.07200
C 	C 	0.82548 0.12508 0.24077 0.04500
C 	C 	0.81421 0.09551 0.25954 -0.02100
C 	C 	0.80188 0.09073 0.32430 -0.10700
C 	C 	0.79271 0.11712 0.36252 0.12700
C 	C 	0.80297 0.14700 0.34273 -0.08100
N 	N 	0.84331 0.12841 0.17993 -0.01700
H 	H 	0.81875 0.07558 0.22712 0.05100
N 	N 	0.77342 0.11368 0.42142 -0.02300
H 	H 	0.79826 0.16702 0.37473 0.08800
O 	O 	0.91906 0.21702 0.41799 -0.13900
O 	O 	0.93957 0.17400 0.36902 -0.16500
O 	O 	0.79013 0.20189 0.20874 -0.08400
O 	O 	0.82376 0.20159 0.12060 -0.07100
O 	O 	0.78252 0.12555 0.47799 -0.07800
O 	O 	0.74577 0.10064 0.41748 -0.07900
O 	O 	0.87391 0.13025 0.18176 -0.09600
O 	O 	0.82929 0.12607 0.12261 -0.07100
C 	C 	0.99991 0.13037 0.48716 -0.07000
C 	C 	0.98797 0.12924 0.55295 0.02600
C 	C 	0.00782 0.13665 0.60677 0.07400
C 	C 	0.03896 0.14615 0.59399 -0.00000
C 	C 	0.05040 0.14884 0.52796 -0.08700
C 	C 	0.03112 0.13955 0.47444 0.11400
C 	C 	0.95484 0.11961 0.56454 0.03400
N 	N 	0.99638 0.13501 0.67435 -0.01000
H 	H 	0.05426 0.15131 0.63554 0.09200
N 	N 	0.04403 0.13648 0.40828 -0.02000
H 	H 	0.98503 0.12360 0.44584 0.08500
C 	C 	0.92987 0.13973 0.54674 0.05900
C 	C 	0.90051 0.12682 0.53009 0.00100
C 	C 	0.89535 0.09443 0.53610 -0.09100
C 	C 	0.91802 0.07596 0.56874 0.11000
C 	C 	0.94825 0.08814 0.57930 -0.07300
N 	N 	0.93353 0.17314 0.54985 -0.00700
H 	H 	0.88227 0.14176 0.50991 0.07400
N 	N 	0.91044 0.04502 0.59139 -0.02700
H 	H 	0.96681 0.07291 0.59681 0.09000
O 	O 	0.03075 0.15071 0.35839 -0.11800
O 	O 	0.06699 0.11690 0.39696 -0.06000
O 	O 	0.99149 0.10785 0.70216 -0.16000
O 	O 	0.99588 0.16018 0.71105 -0.09600
O 	O 	0.92958 0.02200 0.57814 -0.10700
O 	O 	0.88720 0.04082 0.63362 -0.09800
O 	O 	0.95744 0.18674 0.52047 -0.12400
O 	O 	0.91204 0.19013 0.57951 -0.07100
C 	C 	0.76729 0.94583 0.49197 -0.04600
C 	C 	0.77011 0.91320 0.48558 0.01600
C 	C 	0.74329 0.89466 0.47640 -0.05100
C 	C 	0.71346 0.90873 0.47202 0.03400
C 	C 	0.71037 0.94138 0.48208 0.01300
C 	C 	0.73730 0.95970 0.49304 -0.01100
C 	C 	0.68061 0.95548 0.47780 -0.04000
C 	C 	0.65445 0.93774 0.45930 -0.02500
C 	C 	0.65770 0.90563 0.44513 -0.00500
C 	C 	0.68696 0.89090 0.45439 -0.04800
H 	H 	0.79320 0.90232 0.48524 0.05900
H 	H 	0.74587 0.86956 0.47022 0.05800
H 	H 	0.73513 0.98491 0.49855 0.05600
H 	H 	0.67786 0.98038 0.48696 0.05200
H 	H 	0.63189 0.94925 0.45329 0.04700
H 	H 	0.68934 0.86593 0.44538 0.05600
C 	C 	0.91061 0.96390 0.67186 -0.06500
C 	C 	0.93281 0.97967 0.71121 0.04100
C 	C 	0.92264 0.99515 0.77026 0.05300
C 	C 	0.89049 0.99567 0.78752 0.00900
C 	C 	0.86844 0.97934 0.74893 -0.09000
C 	C 	0.87897 0.96199 0.69263 0.14000
C 	C 	0.96656 0.98048 0.68956 0.03200
N 	N 	0.94488 0.01030 0.81291 -0.01200
H 	H 	0.88271 0.00860 0.83147 0.04400
N 	N 	0.85835 0.94038 0.66009 -0.02300
H 	H 	0.91815 0.95213 0.62634 0.10700
C 	C 	0.98341 0.95248 0.67631 0.06000
C 	C 	0.01500 0.95405 0.65480 -0.00900
C 	C 	0.03090 0.98284 0.65278 -0.09500
C 	C 	0.01386 0.01079 0.66352 0.12800
C 	C 	0.98179 0.00949 0.68083 -0.06900
N 	N 	0.96902 0.92246 0.68733 -0.01900
H 	H 	0.02775 0.93259 0.64419 0.06100
N 	N 	0.02888 0.04058 0.65545 -0.02400
H 	H 	0.96881 0.03110 0.68857 0.08100
O 	O 	0.85431 0.94213 0.59575 -0.07600
O 	O 	0.84601 0.91718 0.69370 -0.07400
O 	O 	0.94086 0.03950 0.82969 -0.16600
O 	O 	0.96786 0.99434 0.83869 -0.08100
O 	O 	0.02881 0.05436 0.59737 -0.06800
O 	O 	0.03790 0.05603 0.70791 -0.07800
O 	O 	0.97229 0.90042 0.64276 -0.07500
O 	O 	0.95540 0.91617 0.74453 -0.06900
C 	C 	0.78695 0.10259 0.83389 -0.07700
C 	C 	0.80412 0.11801 0.78304 0.02400
C 	C 	0.79780 0.11088 0.71537 0.05500
C 	C 	0.77939 0.08455 0.70008 -0.00100
C 	C 	0.76525 0.06692 0.75177 -0.11200
C 	C 	0.76589 0.07855 0.81789 0.06700
C 	C 	0.83173 0.13766 0.80096 0.02400
N 	N 	0.81024 0.13013 0.66239 -0.01600
H 	H 	0.77685 0.07739 0.64835 0.07400
N 	N 	0.74454 0.06664 0.86818 -0.04000
H 	H 	0.79047 0.10878 0.88588 0.08100
C 	C 	0.82936 0.16038 0.85219 0.05900
C 	C 	0.85687 0.17218 0.88122 0.00400
C 	C 	0.88668 0.16395 0.85508 -0.10200
C 	C 	0.88845 0.14630 0.79529 0.08400
C 	C 	0.86142 0.13104 0.77232 -0.06800
N 	N 	0.79916 0.17183 0.87407 -0.01700
H 	H 	0.85499 0.18788 0.92375 0.08000
N 	N 	0.91615 0.14721 0.75348 -0.05000
H 	H 	0.86346 0.11451 0.73130 0.08200
O 	O 	0.71511 0.06172 0.85379 -0.09800
O 	O 	0.75382 0.06333 0.92965 -0.19700
O 	O 	0.82355 0.11729 0.61013 -0.08400
O 	O 	0.80737 0.16045 0.66544 -0.07300
O 	O 	0.92912 0.17403 0.73884 -0.08200
O 	O 	0.92487 0.12222 0.72086 -0.17700
O 	O 	0.79270 0.17434 0.93773 -0.08000
O 	O 	0.77872 0.18125 0.83038 -0.07600
C 	C 	0.69457 0.91502 0.64134 -0.05800
C 	C 	0.66223 0.91927 0.63066 0.00800
C 	C 	0.64165 0.89370 0.63420 -0.05700
C 	C 	0.65313 0.86400 0.65185 0.02900
C 	C 	0.68602 0.85913 0.65625 0.01000
C 	C 	0.70667 0.88454 0.64755 -0.01800
C 	C 	0.69748 0.82998 0.67768 -0.03900
C 	C 	0.67656 0.80727 0.70226 -0.02200
C 	C 	0.64399 0.81301 0.70297 -0.00600
C 	C 	0.63226 0.84037 0.67311 -0.04800
H 	H 	0.65281 0.94262 0.62347 0.04100
H 	H 	0.61657 0.89745 0.62816 0.04900
H 	H 	0.73184 0.88114 0.65335 0.05500
H 	H 	0.72265 0.82571 0.67960 0.05200
H 	H 	0.68573 0.78583 0.72366 0.04600
H 	H 	0.60701 0.84449 0.67244 0.04900
C 	C 	0.10460 0.69400 0.46691 -0.05100
C 	C 	0.07569 0.69471 0.43232 0.10500
C 	C 	0.06369 0.66681 0.40547 -0.08700
C 	C 	0.07857 0.63809 0.41797 -0.00400
C 	C 	0.10521 0.63711 0.45995 0.07200
C 	C 	0.11858 0.66521 0.48219 -0.05100
N 	N 	0.05870 0.72165 0.42760 -0.20000
H 	H 	0.04273 0.66741 0.37504 0.05500
C 	C 	0.06907 0.61002 0.37981 -0.00500
N 	N 	0.11798 0.60929 0.47898 -0.19400
H 	H 	0.13991 0.66466 0.51157 0.04900
C 	C 	0.08892 0.59961 0.32783 -0.08500
C 	C 	0.08875 0.56807 0.30828 0.10100
C 	C 	0.06610 0.54745 0.33671 -0.05300
C 	C 	0.04287 0.55930 0.38048 -0.05200
C 	C 	0.04442 0.59037 0.40333 0.07100
H 	H 	0.10673 0.61531 0.30739 0.05800
N 	N 	0.11172 0.55732 0.26611 -0.20100
H 	H 	0.02487 0.54370 0.40048 0.05000
N 	N 	0.02286 0.60086 0.44911 -0.19400
H 	H 	0.13047 0.57190 0.25221 0.08900
H 	H 	0.11132 0.53456 0.24702 0.09400
H 	H 	0.00528 0.58588 0.46764 0.08800
H 	H 	0.02287 0.62406 0.46564 0.09000
H 	H 	0.13838 0.60879 0.50780 0.08500
H 	H 	0.10715 0.58798 0.46771 0.09100
H 	H 	0.06699 0.74280 0.44684 0.09800
H 	H 	0.03608 0.72131 0.40759 0.09400
C 	C 	0.11866 0.62744 0.08681 -0.05000
C 	C 	0.09519 0.61245 0.04850 0.10300
C 	C 	0.09602 0.57978 0.04075 -0.08600
C 	C 	0.11894 0.56167 0.07293 -0.00400
C 	C 	0.14244 0.57672 0.11131 0.06800
C 	C 	0.14218 0.60954 0.11727 -0.05300
N 	N 	0.07172 0.62921 0.01944 -0.19800
H 	H 	0.07851 0.56832 0.01010 0.05800
C 	C 	0.11897 0.52712 0.06287 -0.00600
N 	N 	0.16491 0.55986 0.14342 -0.19500
H 	H 	0.16013 0.62115 0.14650 0.04600
C 	C 	0.14411 0.51319 0.02749 -0.08600
C 	C 	0.14231 0.48181 0.00704 0.10500
C 	C 	0.11339 0.46551 0.01385 -0.04800
C 	C 	0.08914 0.47849 0.05353 -0.05300
C 	C 	0.09219 0.50881 0.08024 0.07200
H 	H 	0.16507 0.52682 0.01573 0.05700
N 	N 	0.16839 0.46733 0.98159 -0.20000
H 	H 	0.06730 0.46566 0.06108 0.05500
N 	N 	0.06920 0.52037 0.12144 -0.19400
H 	H 	0.18928 0.47988 0.97360 0.08800
H 	H 	0.16866 0.44316 0.97328 0.09500
H 	H 	0.04850 0.50765 0.13026 0.09100
H 	H 	0.07219 0.54147 0.14708 0.09300
H 	H 	0.18329 0.57125 0.16790 0.08300
H 	H 	0.16325 0.53556 0.14830 0.08700
H 	H 	0.06968 0.65339 0.02610 0.09700
H 	H 	0.05478 0.61794 0.99048 0.08600
C 	C 	0.13654 0.73132 0.98858 -0.05000
C 	C 	0.16134 0.72261 0.94417 0.10200
C 	C 	0.16210 0.73488 0.87886 -0.08400
C 	C 	0.14062 0.75817 0.85979 -0.00700
C 	C 	0.11960 0.77086 0.90834 0.07700
C 	C 	0.11696 0.75660 0.97162 -0.05700
N 	N 	0.18498 0.70350 0.96466 -0.20000
H 	H 	0.17921 0.72609 0.84267 0.05500
C 	C 	0.13678 0.76524 0.78740 0.00100
N 	N 	0.10194 0.79659 0.89440 -0.19600
H 	H 	0.09901 0.76462 0.00681 0.05900
C 	C 	0.10866 0.75653 0.75620 -0.08100
C 	C 	0.10586 0.75848 0.68645 0.11900
C 	C 	0.13267 0.76612 0.64666 -0.04500
C 	C 	0.16000 0.77717 0.67785 -0.04500
C 	C 	0.16194 0.77767 0.74819 0.07500
H 	H 	0.08889 0.74823 0.78633 0.06200
N 	N 	0.07729 0.75373 0.65801 -0.19500
H 	H 	0.18010 0.78449 0.64755 0.05000
N 	N 	0.18772 0.79033 0.77762 -0.19300
H 	H 	0.05807 0.74611 0.68705 0.10100
H 	H 	0.07332 0.75981 0.60814 0.10900
H 	H 	0.20664 0.79851 0.74840 0.08800
H 	H 	0.18865 0.79341 0.82944 0.09100
H 	H 	0.08531 0.80493 0.92916 0.09200
H 	H 	0.10561 0.80937 0.85039 0.10400
H 	H 	0.18768 0.69799 0.01524 0.09500
H 	H 	0.20224 0.69578 0.93065 0.08600
C 	C 	0.91466 0.96129 0.05954 -0.06900
C 	C 	0.91962 0.98301 0.11091 0.03000
C 	C 	0.91777 0.97314 0.17834 0.05800
C 	C 	0.91284 0.94129 0.19339 0.00600
C 	C 	0.90821 0.91949 0.14178 -0.08400
C 	C 	0.90852 0.92982 0.07454 0.11800
C 	C 	0.92895 0.01552 0.09336 0.02200
N 	N 	0.92112 0.99529 0.23156 -0.00300
H 	H 	0.91173 0.93375 0.24523 0.07800
N 	N 	0.90252 0.90838 0.02127 -0.03500
H 	H 	0.91579 0.96883 0.00768 0.08700
C 	C 	0.96096 0.02304 0.08205 0.06600
C 	C 	0.96917 0.05230 0.05520 -0.00300
C 	C 	0.94580 0.07376 0.03654 -0.07900
C 	C 	0.91374 0.06645 0.04851 0.10900
C 	C 	0.90558 0.03762 0.07813 -0.07000
N 	N 	0.98503 0.00010 0.09270 -0.01700
H 	H 	0.99379 0.05756 0.04485 0.06500
N 	N 	0.88936 0.08682 0.02496 -0.02600
H 	H 	0.88093 0.03179 0.08625 0.07000
O 	O 	0.92595 0.89513 0.98968 -0.12700
O 	O 	0.87399 0.90501 0.99928 -0.14700
O 	O 	0.90253 0.01948 0.23534 -0.20200
O 	O 	0.94099 0.98991 0.27920 -0.11700
O 	O 	0.86642 0.07554 0.98964 -0.13300
O 	O 	0.88958 0.11644 0.04036 -0.07500
O 	O 	0.00474 0.99307 0.04453 -0.07000
O 	O 	0.98850 0.98773 0.15162 -0.07300
C 	C 	0.79345 0.87283 0.15451 -0.08300
C 	C 	0.78066 0.85779 0.09860 0.02700
C 	C 	0.78068 0.82478 0.09611 0.03700
C 	C 	0.79963 0.80794 0.14050 -0.01600
C 	C 	0.81861 0.82403 0.18611 -0.11300
C 	C 	0.81176 0.85577 0.19971 0.12200
C 	C 	0.77592 0.87600 0.03663 0.01600
N 	N 	0.76375 0.80858 0.04494 -0.01500
H 	H 	0.80234 0.78284 0.13436 0.05400
N 	N 	0.82417 0.87087 0.25778 -0.02200
H 	H 	0.79117 0.89800 0.16004 0.08600
C 	C 	0.75164 0.89842 0.03249 0.06000
C 	C 	0.75018 0.91821 0.97650 -0.01500
C 	C 	0.77256 0.91558 0.92421 -0.09800
C 	C 	0.79657 0.89282 0.92813 0.11200
C 	C 	0.79797 0.87310 0.98397 -0.06300
N 	N 	0.72846 0.90122 0.08504 -0.01700
H 	H 	0.73135 0.93530 0.97327 0.05900
N 	N 	0.82018 0.89031 0.87646 -0.02300
H 	H 	0.81699 0.85621 0.98757 0.02700
O 	O 	0.81951 0.85861 0.31676 -0.08200
O 	O 	0.83744 0.89828 0.25247 -0.08900
O 	O 	0.77727 0.78606 0.01132 -0.12200
O 	O 	0.73465 0.81605 0.03261 -0.09700
O 	O 	0.82418 0.86390 0.84497 -0.09500
O 	O 	0.83950 0.91346 0.86515 -0.08200
O 	O 	0.72260 0.92844 0.11173 -0.11000
O 	O 	0.71183 0.87696 0.10323 -0.09800
C 	C 	0.02815 0.84897 0.81398 -0.08200
C 	C 	0.01259 0.87104 0.85470 0.03500
C 	C 	0.01691 0.90335 0.84217 0.04500
C 	C 	0.03875 0.91309 0.79331 0.00200
C 	C 	0.05545 0.89099 0.75494 -0.13200
C 	C 	0.04930 0.85878 0.76382 0.13200
C 	C 	0.99632 0.86044 0.91668 0.02800
N 	N 	0.00003 0.92632 0.88087 -0.01400
H 	H 	0.04264 0.93790 0.78510 -0.02500
N 	N 	0.06492 0.83591 0.72283 -0.02500
H 	H 	0.02494 0.82413 0.82333 0.08000
C 	C 	0.97055 0.83951 0.91424 0.05100
C 	C 	0.95745 0.82768 0.97398 -0.00800
C 	C 	0.96890 0.83761 0.03610 -0.13000
C 	C 	0.99319 0.86026 0.03816 0.13700
C 	C 	0.00766 0.87030 0.97880 -0.07900
N 	N 	0.95748 0.83049 0.85136 -0.01900
H 	H 	0.93828 0.81089 0.97201 0.00500
N 	N 	0.00220 0.87417 0.10022 -0.02300
H 	H 	0.02741 0.88640 0.98096 0.08200
O 	O 	0.04851 0.81750 0.68485 -0.09400
O 	O 	0.09539 0.83274 0.72524 -0.10900
O 	O 	0.01510 0.94956 0.90792 -0.10400
O 	O 	0.96952 0.92452 0.88745 -0.06400
O 	O 	0.03085 0.87082 0.12154 -0.08400
O 	O 	0.98268 0.89252 0.13218 -0.07900
O 	O 	0.95441 0.80096 0.83662 -0.10900
O 	O 	0.94663 0.85170 0.81094 -0.07200
C 	C 	0.97880 0.75616 0.30427 -0.05700
C 	C 	0.97757 0.72326 0.30390 0.00400
C 	C 	0.00384 0.70585 0.28300 -0.06100
C 	C 	0.03187 0.72121 0.26440 0.02700
C 	C 	0.03466 0.75384 0.27489 0.01000
C 	C 	0.00820 0.77111 0.29663 -0.01800
C 	C 	0.06291 0.76912 0.25757 -0.03900
C 	C 	0.08677 0.75290 0.22315 -0.02500
C 	C 	0.08260 0.72126 0.20574 -0.00600
C 	C 	0.05615 0.70492 0.23088 -0.05000
H 	H 	0.95535 0.71137 0.31315 0.04200
H 	H 	0.00186 0.68063 0.27804 0.04600
H 	H 	0.00966 0.79644 0.30008 0.06100
H 	H 	0.06580 0.79389 0.26782 0.04900
H 	H 	0.10783 0.76532 0.20712 0.04400
H 	H 	0.05338 0.68015 0.22016 0.05100
C 	C 	0.01507 0.12413 0.12732 -0.07000
C 	C 	0.04796 0.12327 0.11795 0.03100
C 	C 	0.06556 0.15122 0.12632 0.06500
C 	C 	0.05062 0.17818 0.15159 -0.00200
C 	C 	0.01848 0.17767 0.16887 -0.08600
C 	C 	0.00029 0.15091 0.15388 0.12100
C 	C 	0.06413 0.09239 0.10991 0.02700
N 	N 	0.09844 0.15248 0.10881 -0.01500
H 	H 	0.06441 0.19914 0.16051 0.05600
N 	N 	0.96694 0.15058 0.16668 -0.02000
H 	H 	0.00121 0.10335 0.11797 0.08600
C 	C 	0.06224 0.06973 0.16127 0.05900
C 	C 	0.08384 0.04498 0.16248 -0.00300
C 	C 	0.10757 0.04242 0.11329 -0.09700
C 	C 	0.10715 0.06290 0.05761 0.13000
C 	C 	0.08455 0.08707 0.05507 -0.06900
N 	N 	0.03909 0.07232 0.21366 -0.02100
H 	H 	0.08436 0.02987 0.20585 0.03200
N 	N 	0.13144 0.06120 0.00711 -0.02200
H 	H 	0.08482 0.10332 0.01336 0.09000
O 	O 	0.94910 0.17234 0.14168 -0.08800
O 	O 	0.95416 0.12738 0.19950 -0.08600
O 	O 	0.10916 0.17538 0.07202 -0.08500
O 	O 	0.11815 0.13337 0.13677 -0.09100
O 	O 	0.14090 0.03412 0.98471 -0.08000
O 	O 	0.14467 0.08673 0.98477 -0.09300
O 	O 	0.01631 0.05197 0.21787 -0.08100
O 	O 	0.04223 0.09337 0.26018 -0.06000
C 	C 	0.02542 0.98455 0.30096 -0.08200
C 	C 	0.02536 0.99781 0.36499 0.04000
C 	C 	0.05430 0.00493 0.39581 0.05100
C 	C 	0.08284 0.99843 0.36214 0.00000
C 	C 	0.08282 0.98309 0.30005 -0.13700
C 	C 	0.05377 0.97689 0.26851 0.13900
C 	C 	0.99497 0.00044 0.40207 0.03500
N 	N 	0.05485 0.01685 0.46274 -0.01100
H 	H 	0.10501 0.00330 0.38652 0.01600
N 	N 	0.05291 0.96148 0.20481 -0.02400
H 	H 	0.00329 0.97866 0.27771 0.10400
C 	C 	0.97704 0.02828 0.39908 0.05000
C 	C 	0.94503 0.02772 0.41759 0.00800
C 	C 	0.93034 0.99946 0.43588 -0.11400
C 	C 	0.94870 0.97215 0.44310 0.14000
C 	C 	0.98107 0.97308 0.42810 -0.07500
N 	N 	0.99082 0.05677 0.37443 -0.01400
H 	H 	0.93146 0.04922 0.41654 -0.03100
N 	N 	0.93423 0.94294 0.46097 -0.02600
H 	H 	0.99489 0.95177 0.43137 0.08600
O 	O 	0.06499 0.97497 0.15197 -0.08100
O 	O 	0.03798 0.93501 0.19879 -0.06400
O 	O 	0.03956 0.00230 0.51019 -0.08500
O 	O 	0.07331 0.04014 0.47749 -0.08600
O 	O 	0.91327 0.93054 0.42204 -0.07700
O 	O 	0.94481 0.92698 0.51143 -0.07800
O 	O 	0.97548 0.07407 0.33220 -0.11100
O 	O 	0.01675 0.06728 0.40019 -0.06900
C 	C 	0.17233 0.11962 0.22989 -0.08000
C 	C 	0.20380 0.12915 0.22177 0.02000
C 	C 	0.21303 0.15832 0.24807 0.06700
C 	C 	0.19376 0.17281 0.29680 -0.00400
C 	C 	0.16515 0.15867 0.31660 -0.09400
C 	C 	0.15285 0.13445 0.27718 0.10300
C 	C 	0.22762 0.10483 0.20713 0.02800
N 	N 	0.24239 0.17242 0.22771 -0.01300
H 	H 	0.20207 0.19349 0.32263 0.06700
N 	N 	0.12081 0.12456 0.28603 -0.01300
H 	H 	0.16398 0.09899 0.20415 0.05300
C 	C 	0.24144 0.08892 0.26136 0.03700
C 	C 	0.24561 0.05644 0.25761 -0.01600
C 	C 	0.23540 0.04022 0.20089 -0.11200
C 	C 	0.23123 0.05728 0.14111 0.12500
C 	C 	0.22699 0.08986 0.14462 -0.08200
N 	N 	0.24580 0.10457 0.32380 -0.01500
H 	H 	0.25237 0.04354 0.30198 0.05100
N 	N 	0.22997 0.04157 0.07781 -0.02200
H 	H 	0.21966 0.10273 0.10069 0.09300
O 	O 	0.09820 0.14514 0.28481 -0.08800
O 	O 	0.11403 0.09485 0.28920 -0.17800
O 	O 	0.25285 0.16898 0.16657 -0.09000
O 	O 	0.25801 0.18979 0.26935 -0.08800
O 	O 	0.25192 0.02170 0.06086 -0.09400
O 	O 	0.20805 0.04860 0.03537 -0.07400
O 	O 	0.22682 0.09888 0.37407 -0.13100
O 	O 	0.26822 0.12512 0.32990 -0.09500
C 	C 	0.18147 0.86959 0.22858 -0.06000
C 	C 	0.15301 0.85468 0.21249 0.00900
C 	C 	0.14161 0.82999 0.25213 -0.05500
C 	C 	0.15872 0.81985 0.30786 0.03000
C 	C 	0.18895 0.83249 0.31964 0.00800
C 	C 	0.20070 0.85642 0.27798 -0.01600
C 	C 	0.20588 0.82287 0.37600 -0.03900
C 	C 	0.19228 0.80203 0.42209 -0.02600
C 	C 	0.16163 0.79066 0.41247 -0.00500
C 	C 	0.14528 0.79875 0.35416 -0.04800
H 	H 	0.13837 0.86399 0.17312 0.05200
H 	H 	0.11866 0.82011 0.24185 0.05100
H 	H 	0.22331 0.86712 0.28868 0.04400
H 	H 	0.22923 0.83215 0.38511 0.04200
H 	H 	0.20555 0.79481 0.46545 0.04000
H 	H 	0.12180 0.78948 0.34606 0.05200
