data_crystal

_cell_length_a 25.40595
_cell_length_b 21.50514
_cell_length_c 54.92709
_cell_angle_alpha 90.53415
_cell_angle_beta  91.12993
_cell_angle_gamma 110.65971

_symmetry_space_group_name_	'P 1'
_symmetry_space_group_name_H-M	'P 1'

loop_
_symmetry_equiv_pos_as_xyz
  x,y,z

loop_
_atom_site_label
_atom_site_type_symbol
_atom_site_fract_x
_atom_site_fract_y
_atom_site_fract_z
_atom_site_charge
C 	C 	0.03909 0.85767 0.69673 0.31000
C 	C 	0.00973 0.50176 0.51156 -0.02500
C 	C 	0.01930 0.09328 0.79424 -0.10000
C 	C 	0.00749 0.45811 0.46325 -0.02500
H 	H 	0.00619 0.44159 0.44447 0.03800
H 	H 	0.00025 0.71838 0.29165 0.06400
C 	C 	0.00867 0.52472 0.97235 -0.02900
H 	H 	0.05264 0.05787 0.72081 0.15800
H 	H 	0.01051 0.51961 0.53013 0.03700
C 	C 	0.01592 0.84455 0.31006 0.01600
C 	C 	0.00824 0.91933 0.27828 0.10200
O 	O 	0.06164 0.01675 0.72046 -0.71000
O 	O 	0.01633 0.11395 0.28142 -0.41500
C 	C 	0.02735 0.12252 0.81761 -0.00800
C 	C 	0.03194 0.79587 0.68292 -0.11400
C 	C 	0.06952 0.85815 0.64414 -0.20200
Ni	Ni	0.08195 0.00137 0.68774 1.06100
O 	O 	0.06902 0.01706 0.79939 -0.41200
C 	C 	0.05840 0.06097 0.78575 0.29700
H 	H 	0.02278 0.85134 0.12349 0.05800
H 	H 	0.00562 0.93823 0.23992 0.05600
O 	O 	0.05775 0.93021 0.75280 -0.69000
Ni	Ni	0.04749 0.92066 0.78800 1.07200
C 	C 	0.03176 0.46568 0.14467 0.03000
C 	C 	0.03280 0.90064 0.11494 -0.14800
O 	O 	0.08524 0.90964 0.69487 -0.41600
H 	H 	0.01477 0.30548 0.11821 0.07200
H 	H 	0.11269 0.87809 0.65229 0.07100
H 	H 	0.07054 0.89466 0.74663 0.15100
C 	C 	0.03576 0.98977 0.14550 0.03100
C 	C 	0.03882 0.88523 0.29030 -0.09500
C 	C 	0.05261 0.81883 0.32503 0.00200
H 	H 	0.05786 0.88657 0.35491 0.05400
C 	C 	0.05718 0.52840 0.49730 -0.03700
C 	C 	0.05000 0.56306 0.01304 0.03900
C 	C 	0.05567 0.50774 0.47295 -0.00900
C 	C 	0.03102 0.06689 0.17857 0.30300
C 	C 	0.04925 0.16448 0.26917 0.28700
C 	C 	0.04092 0.41182 0.15607 0.01000
C 	C 	0.05404 0.26309 0.29529 0.09100
C 	C 	0.03242 0.96008 0.25625 -0.17800
C 	C 	0.04668 0.73185 0.29244 -0.17300
H 	H 	0.05033 0.53414 0.96536 0.03400
O 	O 	0.05014 0.16105 0.24526 -0.37100
H 	H 	0.05835 0.90274 0.09859 0.06300
H 	H 	0.06519 0.34889 0.31835 0.05200
H 	H 	0.05558 0.68500 0.29074 0.05900
H 	H 	0.07353 0.84745 0.62458 0.06800
O 	O 	0.04681 0.08225 0.20164 -0.38800
H 	H 	0.06552 0.54639 0.11988 0.05000
C 	C 	0.07276 0.84874 0.34777 -0.09300
C 	C 	0.07094 0.76838 0.31595 0.02500
H 	H 	0.04057 0.18782 0.85935 0.06500
C 	C 	0.06444 0.95473 0.13304 -0.00400
C 	C 	0.07414 0.50855 0.13042 -0.01900
H 	H 	0.03452 0.01206 0.25899 0.03300
H 	H 	0.06451 0.12578 0.82838 0.03600
O 	O 	0.08513 0.07920 0.76538 -0.38400
C 	C 	0.06427 0.03976 0.16263 -0.15600
H 	H 	0.06535 0.76371 0.27678 0.05900
H 	H 	0.09751 0.87684 0.39442 0.07000
C 	C 	0.08923 0.57612 0.02730 -0.10700
H 	H 	0.09445 0.56647 0.50496 0.03600
C 	C 	0.08164 0.22740 0.28200 -0.11200
C 	C 	0.08598 0.32273 0.30736 -0.08900
H 	H 	0.08103 0.89153 0.28465 0.05000
H 	H 	0.04163 0.08224 0.65540 0.02600
C 	C 	0.03464 0.79649 0.65720 0.09800
H 	H 	0.07568 0.96140 0.25267 0.06400
Ni	Ni	0.11879 0.01874 0.74719 1.09400
C 	C 	0.09507 0.40855 0.15681 -0.09500
C 	C 	0.11242 0.83071 0.36120 0.10300
H 	H 	0.11235 0.46235 0.28760 0.06300
C 	C 	0.10162 0.54107 0.45742 0.04500
H 	H 	0.04959 0.89640 0.64534 0.06200
H 	H 	0.10280 0.36920 0.16678 0.05700
H 	H 	0.10960 0.85086 0.15887 0.05000
H 	H 	0.11138 0.74243 0.16240 0.06500
C 	C 	0.11374 0.75388 0.32857 -0.01900
C 	C 	0.13006 0.85982 0.38644 -0.20400
H 	H 	0.03437 0.16185 0.65863 0.05900
O 	O 	0.12779 0.92307 0.79321 -0.42200
H 	H 	0.13587 0.82214 0.39885 0.08200
C 	C 	0.13429 0.58523 0.04468 0.29300
C 	C 	0.12670 0.50072 0.12889 -0.11000
C 	C 	0.12180 0.96771 0.13870 0.03700
H 	H 	0.13037 0.70615 0.13604 0.08400
C 	C 	0.13605 0.78654 0.35068 -0.10900
O 	O 	0.13615 0.53234 0.05622 -0.41200
H 	H 	0.03063 0.11252 0.68510 0.03100
C 	C 	0.12346 0.05925 0.16551 0.12200
H 	H 	0.13052 0.71825 0.32092 0.03000
C 	C 	0.01927 0.11015 0.66541 -0.18700
C 	C 	0.13885 0.45471 0.14421 0.09500
C 	C 	0.13736 0.86085 0.14350 -0.09300
C 	C 	0.13945 0.56931 0.44414 -0.11400
H 	H 	0.16451 0.15231 0.66194 0.04200
H 	H 	0.15756 0.02413 0.83670 0.06800
H 	H 	0.16359 0.20173 0.68868 0.05800
O 	O 	0.16817 0.04295 0.69573 -0.42100
C 	C 	0.14542 0.74855 0.14923 -0.20600
C 	C 	0.14900 0.92048 0.13098 0.00100
H 	H 	0.13974 0.16041 0.17804 0.08700
C 	C 	0.14465 0.34875 0.30545 0.00200
C 	C 	0.14026 0.25400 0.27976 -0.01200
O 	O 	0.16287 0.64553 0.05335 -0.37500
C 	C 	0.15904 0.48236 0.28746 -0.17000
O 	O 	0.17346 0.02579 0.77605 -0.39500
C 	C 	0.17337 0.97660 0.79040 0.30900
O 	O 	0.16139 0.59018 0.10058 -0.37600
C 	C 	0.15136 0.02117 0.15428 -0.13300
H 	H 	0.15796 0.00307 0.09062 0.04000
H 	H 	0.16995 0.90310 0.38564 0.08000
O 	O 	0.17730 0.09981 0.73195 -0.37400
C 	C 	0.16035 0.81358 0.13605 0.10400
C 	C 	0.16574 0.53578 0.10969 0.29500
H 	H 	0.17296 0.53568 0.28260 0.05500
C 	C 	0.15710 0.12007 0.18042 -0.21400
H 	H 	0.15669 0.10716 0.19995 0.08000
C 	C 	0.18899 0.19700 0.67301 -0.19500
H 	H 	0.16122 0.22722 0.26917 0.03500
H 	H 	0.17371 0.45600 0.27312 0.06000
C 	C 	0.19134 0.09772 0.70905 0.28000
H 	H 	0.19614 0.09978 0.82105 0.08300
H 	H 	0.19667 0.24167 0.66164 0.06200
C 	C 	0.19975 0.06256 0.83422 -0.19600
O 	O 	0.17987 0.71886 0.37107 -0.37100
O 	O 	0.18290 0.65669 0.41732 -0.38500
C 	C 	0.17199 0.31488 0.29117 0.02200
C 	C 	0.18380 0.60267 0.42802 0.30300
C 	C 	0.18509 0.93387 0.11092 0.01700
H 	H 	0.18290 0.74655 0.15946 0.07300
C 	C 	0.17744 0.40897 0.31998 0.00500
C 	C 	0.18240 0.47306 0.31205 0.02200
C 	C 	0.18573 0.77711 0.36194 0.28700
O 	O 	0.19683 0.73227 0.09375 -0.37000
H 	H 	0.21424 0.08798 0.85212 0.06400
O 	O 	0.19640 0.50612 0.09889 -0.42300
C 	C 	0.19767 0.82766 0.11641 -0.11100
C 	C 	0.19786 0.45433 0.14724 -0.19800
C 	C 	0.19775 0.99756 0.09710 -0.12500
H 	H 	0.20373 0.43387 0.16517 0.06300
H 	H 	0.19587 0.03241 0.15798 0.05300
Ni	Ni	0.20791 0.51172 0.06213 1.06400
H 	H 	0.20604 0.42292 0.13270 0.07500
C 	C 	0.20964 0.88744 0.10393 -0.01200
H 	H 	0.20154 0.13984 0.17462 0.06600
H 	H 	0.21017 0.57744 0.32182 0.03000
C 	C 	0.20039 0.40145 0.34265 -0.09400
C 	C 	0.20774 0.52843 0.32758 -0.01400
H 	H 	0.19712 0.35220 0.34847 0.05000
C 	C 	0.22431 0.98474 0.80526 -0.08700
O 	O 	0.21403 0.56951 0.41905 -0.41900
Ni	Ni	0.22217 0.65746 0.08038 1.10100
O 	O 	0.21724 0.61264 0.37262 -0.36900
C 	C 	0.22484 0.78054 0.10919 0.30600
H 	H 	0.22135 0.04056 0.10912 0.04000
H 	H 	0.22356 0.99847 0.08092 0.05500
O 	O 	0.22878 0.83009 0.36862 -0.41800
H 	H 	0.22932 0.50554 0.14651 0.06000
C 	C 	0.24005 0.03099 0.82491 0.07500
C 	C 	0.22916 0.52079 0.35067 -0.10900
C 	C 	0.22589 0.45656 0.35819 0.10100
C 	C 	0.24399 0.14730 0.70087 -0.10300
C 	C 	0.24346 0.19084 0.68188 0.08600
H 	H 	0.23810 0.89785 0.08881 0.03100
C 	C 	0.00219 0.54238 0.99644 0.00200
H 	H 	0.00664 0.73351 0.71423 0.02900
Ni	Ni	0.24103 0.70184 0.39211 1.09700
C 	C 	0.23498 0.34253 0.28857 -0.17000
H 	H 	0.23062 0.46778 0.39743 0.06300
H 	H 	0.24877 0.91715 0.78289 0.03400
C 	C 	0.00623 0.73501 0.69450 -0.00100
H 	H 	0.23748 0.39240 0.38672 0.06400
H 	H 	0.24885 0.39549 0.28325 0.06000
C 	C 	0.25022 0.57901 0.36751 0.29900
H 	H 	0.24897 0.31513 0.27434 0.05600
C 	C 	0.26132 0.95344 0.79771 -0.02900
O 	O 	0.26070 0.60310 0.06390 -0.70900
C 	C 	0.24860 0.44607 0.38281 -0.20400
O 	O 	0.26370 0.77427 0.12408 -0.42000
H 	H 	0.25589 0.33863 0.30613 0.06000
H 	H 	0.26694 0.63563 0.12164 0.15500
O 	O 	0.27087 0.47129 0.06626 -0.41900
H 	H 	0.27285 0.62001 0.04747 0.15400
H 	H 	0.00411 0.39439 0.20209 0.05800
O 	O 	0.28218 0.65999 0.10666 -0.69900
H 	H 	0.29303 0.25591 0.65459 0.05000
C 	C 	0.29455 0.04978 0.83520 -0.07800
C 	C 	0.29531 0.14463 0.70964 -0.01400
C 	C 	0.29370 0.22543 0.67013 -0.08900
H 	H 	0.29570 0.11272 0.72476 0.03600
O 	O 	0.29672 0.58945 0.38014 -0.42900
Ni	Ni	0.29963 0.60760 0.41651 1.06300
H 	H 	0.29909 0.72384 0.35261 0.15100
H 	H 	0.29520 0.46910 0.38341 0.06800
H 	H 	0.30485 0.14604 0.62881 0.06100
H 	H 	0.30765 0.08747 0.84954 0.04700
O 	O 	0.30364 0.74733 0.36853 -0.70600
O 	O 	0.30955 0.70153 0.41152 -0.70100
C 	C 	0.31544 0.97105 0.80844 0.05200
Ni	Ni	0.31304 0.84144 0.36497 1.06200
H 	H 	0.31393 0.72635 0.42714 0.15200
C 	C 	0.00182 0.73994 0.64361 -0.07100
O 	O 	0.31880 0.86047 0.40161 -0.42100
C 	C 	0.32116 0.49974 0.05723 0.29500
Ni	Ni	0.32649 0.61566 0.08761 1.09600
O 	O 	0.32940 0.77043 0.07784 -0.43400
C 	C 	0.33285 0.02165 0.82659 -0.02800
Ni	Ni	0.33244 0.75063 0.11383 1.06700
H 	H 	0.33264 0.10083 0.65010 0.06000
H 	H 	0.33383 0.89606 0.78681 0.06200
O 	O 	0.00041 0.96305 0.67466 -0.39800
C 	C 	0.34230 0.13344 0.63399 -0.17100
C 	C 	0.34079 0.46503 0.03922 -0.11900
C 	C 	0.34392 0.21629 0.67698 0.00200
C 	C 	0.34548 0.17884 0.69781 0.02200
C 	C 	0.99079 0.23744 0.29703 -0.19600
Ni	Ni	0.98851 0.08886 0.22529 1.09500
H 	H 	0.99074 0.97633 0.14257 -0.00500
O 	O 	0.98643 0.07794 0.16927 -0.42100
C 	C 	0.99709 0.17857 0.85235 -0.18000
H 	H 	0.99090 0.22716 0.85191 0.06300
C 	C 	0.99350 0.35552 0.16530 -0.00200
H 	H 	0.96716 0.14540 0.86519 0.05900
O 	O 	0.98227 0.16478 0.20439 -0.37900
H 	H 	0.99281 0.90611 0.10870 0.04500
C 	C 	0.98454 0.35107 0.19041 -0.10300
C 	C 	0.97203 0.30436 0.12271 -0.18400
H 	H 	0.98617 0.27329 0.23594 0.07000
H 	H 	0.96617 0.34971 0.11568 0.06200
C 	C 	0.96501 0.30027 0.14992 0.02600
Ni	Ni	0.61114 0.24095 0.90787 1.09800
O 	O 	0.64631 0.32505 0.88825 -0.70500
Ni	Ni	0.71538 0.31196 0.87619 1.10000
O 	O 	0.54596 0.27121 0.91707 -0.37500
O 	O 	0.60729 0.36808 0.93376 -0.41500
O 	O 	0.56967 0.20043 0.87612 -0.40600
Ni	Ni	0.66942 0.40594 0.90800 1.06400
O 	O 	0.64254 0.10766 0.92048 -0.42600
O 	O 	0.72027 0.37566 0.93043 -0.42100
O 	O 	0.74120 0.39369 0.85500 -0.38200
O 	O 	0.68526 0.23425 0.89948 -0.70300
O 	O 	0.57250 0.15264 0.92523 -0.39000
O 	O 	0.77355 0.27795 0.86087 -0.37400
O 	O 	0.70747 0.17493 0.85397 -0.41400
Ni	Ni	0.67115 0.14382 0.88737 1.07000
H 	H 	0.62181 0.32808 0.87441 0.15400
H 	H 	0.70913 0.24210 0.91447 0.15500
C 	C 	0.76999 0.37838 0.92360 0.31100
O 	O 	0.59128 0.10642 0.87201 -0.40700
C 	C 	0.55538 0.32828 0.92854 0.29100
C 	C 	0.74030 0.45095 0.86359 0.28300
C 	C 	0.55466 0.13705 0.87067 0.31700
C 	C 	0.75989 0.21616 0.85301 0.28000
C 	C 	0.59353 0.10512 0.92907 0.30300
O 	O 	0.77807 0.36369 0.90103 -0.37300
O 	O 	0.73605 0.45985 0.88733 -0.41100
Ni	Ni	0.62023 0.37043 0.58169 1.10100
O 	O 	0.68583 0.38356 0.55888 -0.70300
Ni	Ni	0.73650 0.35190 0.57956 1.09800
O 	O 	0.59228 0.43802 0.56465 -0.37700
O 	O 	0.68082 0.51503 0.56705 -0.42400
O 	O 	0.56777 0.29631 0.55885 -0.37100
Ni	Ni	0.72967 0.47246 0.54804 1.07000
O 	O 	0.54548 0.23776 0.60347 -0.41300
O 	O 	0.79674 0.50941 0.57233 -0.40200
O 	O 	0.80949 0.38416 0.55997 -0.39000
O 	O 	0.66585 0.32643 0.59996 -0.70400
O 	O 	0.55604 0.34841 0.60535 -0.38100
O 	O 	0.77088 0.30065 0.60224 -0.38100
O 	O 	0.69476 0.20482 0.59616 -0.42000
Ni	Ni	0.62386 0.23161 0.59990 1.06300
H 	H 	0.67357 0.35385 0.54439 0.15700
H 	H 	0.67389 0.34431 0.61685 0.15300
C 	C 	0.79712 0.49258 0.59524 0.31400
O 	O 	0.61576 0.22499 0.56302 -0.42500
C 	C 	0.62723 0.49888 0.56115 0.29500
C 	C 	0.81454 0.41069 0.53803 0.31200
C 	C 	0.57885 0.24400 0.55133 0.30800
C 	C 	0.74433 0.23721 0.60658 0.28300
C 	C 	0.53487 0.28773 0.61413 0.28000
O 	O 	0.76620 0.43317 0.60244 -0.40300
O 	O 	0.77563 0.43117 0.52826 -0.42400
Ni	Ni	0.99522 0.93946 0.73044 1.10300
O 	O 	0.93986 0.95421 0.70610 -0.37500
O 	O 	0.92977 0.87004 0.74767 -0.37100
O 	O 	0.96384 0.91266 0.78526 -0.42100
C 	C 	0.95856 0.97723 0.68449 0.30200
C 	C 	0.92781 0.86605 0.77151 0.28700
O 	O 	0.99551 0.86224 0.70806 -0.38300
Ni	Ni	0.37205 0.74580 0.38742 1.09700
O 	O 	0.42936 0.79168 0.36199 -0.38300
O 	O 	0.43440 0.72864 0.40775 -0.36500
O 	O 	0.38432 0.62089 0.41579 -0.41600
C 	C 	0.36393 0.86486 0.41436 0.31200
C 	C 	0.42981 0.84776 0.35233 0.28600
C 	C 	0.42357 0.67731 0.42203 0.29900
O 	O 	0.39744 0.83451 0.40688 -0.37200
O 	O 	0.39865 0.87974 0.36160 -0.41200
O 	O 	0.35581 0.55638 0.06646 -0.37300
O 	O 	0.37292 0.69683 0.06759 -0.37600
O 	O 	0.41020 0.74398 0.11079 -0.41900
O 	O 	0.39267 0.63253 0.11158 -0.39500
C 	C 	0.35676 0.74733 0.06205 0.28900
C 	C 	0.42339 0.69339 0.11850 0.29500
Ni	Ni	0.86597 0.00081 0.23725 1.08800
O 	O 	0.92575 0.00948 0.21219 -0.72700
O 	O 	0.81170 0.91939 0.21890 -0.37200
O 	O 	0.81860 0.97880 0.18387 -0.40700
O 	O 	0.90113 0.94122 0.25495 -0.38400
Ni	Ni	0.90518 0.02801 0.17961 1.05800
O 	O 	0.84909 0.08825 0.28539 -0.42100
O 	O 	0.89290 0.11379 0.18948 -0.42400
O 	O 	0.92321 0.09017 0.24649 -0.70600
O 	O 	0.80931 0.98777 0.26453 -0.36800
Ni	Ni	0.93060 0.09523 0.28202 1.06800
H 	H 	0.93748 0.97021 0.21180 0.16800
H 	H 	0.90841 0.12470 0.24111 0.14900
C 	C 	0.93517 0.16814 0.19535 0.30200
O 	O 	0.91291 0.99810 0.29087 -0.39300
C 	C 	0.79586 0.92337 0.19614 0.27900
C 	C 	0.92510 0.95617 0.27660 0.30100
C 	C 	0.80477 0.03589 0.27852 0.28300
C 	C 	0.97631 0.47597 0.14682 -0.18000
C 	C 	0.93543 0.23884 0.16034 -0.01200
C 	C 	0.93618 0.23190 0.18567 -0.11500
C 	C 	0.95516 0.28945 0.20073 0.10100
H 	H 	0.91778 0.19498 0.14873 0.02700
C 	C 	0.94998 0.28432 0.22798 -0.20400
H 	H 	0.96252 0.46999 0.16599 0.06000
H 	H 	0.94380 0.43931 0.13506 0.06000
H 	H 	0.97974 0.52674 0.14121 0.05700
H 	H 	0.94054 0.26099 0.11314 0.05700
H 	H 	0.94955 0.33159 0.23615 0.06100
H 	H 	0.91016 0.24438 0.23283 0.05500
C 	C 	0.58078 0.76900 0.12817 -0.09800
C 	C 	0.58623 0.75396 0.15265 0.00400
C 	C 	0.53948 0.70936 0.16457 0.02100
C 	C 	0.48642 0.68700 0.15271 -0.01800
C 	C 	0.48025 0.70636 0.12884 -0.11400
C 	C 	0.52843 0.74366 0.11590 0.10600
C 	C 	0.63886 0.79133 0.16640 0.00300
C 	C 	0.54530 0.68844 0.19030 -0.17100
H 	H 	0.44968 0.65649 0.16235 0.02500
C 	C 	0.52397 0.75882 0.08933 -0.20900
H 	H 	0.61702 0.80196 0.11886 0.05100
C 	C 	0.68872 0.77779 0.16279 0.02300
C 	C 	0.73993 0.82106 0.17292 -0.01900
C 	C 	0.74137 0.87567 0.18739 -0.10600
C 	C 	0.69083 0.88615 0.19252 0.10200
C 	C 	0.64009 0.84451 0.18163 -0.09400
C 	C 	0.68788 0.71885 0.14749 -0.17100
H 	H 	0.77872 0.81265 0.16931 0.02300
C 	C 	0.69104 0.94245 0.20917 -0.20900
H 	H 	0.60160 0.85422 0.18460 0.04900
H 	H 	0.49434 0.71484 0.07934 0.09200
H 	H 	0.56540 0.77200 0.08052 0.06900
H 	H 	0.50905 0.80129 0.08753 0.08500
H 	H 	0.54668 0.72904 0.20321 0.05900
H 	H 	0.58437 0.67687 0.19262 0.06200
H 	H 	0.50937 0.64310 0.19492 0.05600
H 	H 	0.72705 0.70773 0.15031 0.05600
H 	H 	0.68383 0.72927 0.12793 0.06000
H 	H 	0.65200 0.67384 0.15245 0.06200
H 	H 	0.71549 0.99080 0.20099 0.07600
H 	H 	0.71021 0.93842 0.22715 0.08200
H 	H 	0.64778 0.94179 0.21233 0.06900
C 	C 	0.54786 0.88811 0.30748 -0.08200
C 	C 	0.58230 0.95130 0.31603 -0.01300
C 	C 	0.56239 0.98458 0.33387 0.05000
C 	C 	0.51102 0.95104 0.34491 -0.02500
C 	C 	0.47851 0.88563 0.33773 -0.10000
C 	C 	0.49543 0.85546 0.31787 0.08600
C 	C 	0.64113 0.97921 0.30803 0.03700
C 	C 	0.59717 0.05440 0.34210 -0.19500
H 	H 	0.49738 0.97491 0.35974 0.05100
C 	C 	0.45890 0.78774 0.30824 -0.19500
H 	H 	0.56270 0.86347 0.29328 0.04900
C 	C 	0.68407 0.96355 0.32036 0.01000
C 	C 	0.73872 0.98646 0.31133 0.01800
C 	C 	0.75097 0.02472 0.29029 -0.13400
C 	C 	0.70891 0.04365 0.27880 0.10400
C 	C 	0.65396 0.02000 0.28761 -0.12600
C 	C 	0.67121 0.92008 0.34247 -0.16600
H 	H 	0.77133 0.97241 0.32016 0.03400
C 	C 	0.72243 0.08863 0.25713 -0.20500
H 	H 	0.62105 0.03282 0.27847 0.04900
H 	H 	0.47036 0.77911 0.28941 0.06000
H 	H 	0.41392 0.78303 0.30762 0.05200
H 	H 	0.46426 0.74876 0.32009 0.07300
H 	H 	0.61044 0.08696 0.32609 0.06200
H 	H 	0.63508 0.05425 0.35246 0.06100
H 	H 	0.57301 0.07615 0.35399 0.05800
H 	H 	0.70996 0.91602 0.35089 0.06200
H 	H 	0.64244 0.86930 0.33721 0.06700
H 	H 	0.65106 0.94119 0.35647 0.06800
H 	H 	0.68566 0.10140 0.25093 0.06000
H 	H 	0.73533 0.06387 0.24174 0.05400
H 	H 	0.75734 0.13565 0.26200 0.06500
H 	H 	0.97725 0.19457 0.30947 0.00900
H 	H 	0.97054 0.22178 0.27879 0.01100
H 	H 	0.97548 0.27630 0.30421 0.05600
C 	C 	0.96037 0.83478 0.31705 0.01000
C 	C 	0.93099 0.87168 0.30591 -0.00400
C 	C 	0.95495 0.91466 0.28686 -0.11900
C 	C 	0.93312 0.78714 0.33694 -0.16600
H 	H 	0.88951 0.86704 0.31209 0.04000
H 	H 	0.94885 0.81075 0.35499 0.06000
H 	H 	0.94266 0.74076 0.33507 0.06000
H 	H 	0.88661 0.77292 0.33610 0.05900
C 	C 	0.42759 0.01454 0.46491 -0.02300
C 	C 	0.41469 0.00544 0.48962 -0.05400
C 	C 	0.44212 0.05573 0.50670 -0.03100
C 	C 	0.48261 0.11529 0.49915 -0.00900
C 	C 	0.49424 0.12515 0.47436 -0.03800
C 	C 	0.46676 0.07491 0.45727 -0.03200
C 	C 	0.40334 0.96067 0.44760 0.06600
C 	C 	0.38445 0.91626 0.43272 -0.11700
C 	C 	0.51593 0.16328 0.51704 0.04300
C 	C 	0.54442 0.20153 0.53241 -0.11300
H 	H 	0.38436 0.95901 0.49566 0.05100
H 	H 	0.43291 0.04770 0.52584 0.03100
H 	H 	0.52551 0.17099 0.46837 0.03500
H 	H 	0.47684 0.08238 0.43819 0.03200
C 	C 	0.96062 0.45443 0.50150 -0.01700
C 	C 	0.96003 0.43151 0.47750 -0.04500
C 	C 	0.90916 0.43609 0.51463 0.04400
C 	C 	0.86589 0.42308 0.52541 -0.11800
H 	H 	0.92222 0.39483 0.46962 0.03700
C 	C 	0.57790 0.61539 0.51463 -0.01000
C 	C 	0.60114 0.62547 0.49142 -0.03500
C 	C 	0.57618 0.65049 0.47288 -0.03600
C 	C 	0.52795 0.66561 0.47750 -0.00700
C 	C 	0.50747 0.66050 0.50120 -0.03700
C 	C 	0.53232 0.63528 0.51972 -0.03400
C 	C 	0.59558 0.57646 0.53193 0.04300
C 	C 	0.60993 0.54185 0.54570 -0.12600
C 	C 	0.49394 0.67416 0.45748 0.04300
C 	C 	0.46316 0.67760 0.44101 -0.11500
H 	H 	0.63679 0.61086 0.48742 0.03000
H 	H 	0.59254 0.65475 0.45466 0.03900
H 	H 	0.47044 0.67258 0.50496 0.03400
H 	H 	0.51447 0.62828 0.53769 0.03800
C 	C 	0.92544 0.11127 0.65035 -0.10400
C 	C 	0.86691 0.08218 0.64752 0.02300
C 	C 	0.83901 0.01614 0.65485 -0.03400
C 	C 	0.86993 0.98149 0.66626 0.04800
C 	C 	0.92826 0.01157 0.67002 -0.15700
C 	C 	0.95647 0.07667 0.66166 0.09100
C 	C 	0.83506 0.12178 0.63721 -0.00600
C 	C 	0.77633 0.98293 0.65082 -0.11500
H 	H 	0.84854 0.93134 0.67249 0.03000
H 	H 	0.94667 0.16157 0.64423 0.05000
C 	C 	0.81561 0.16205 0.65240 0.02500
C 	C 	0.78634 0.20011 0.64204 -0.02200
C 	C 	0.77671 0.19869 0.61682 -0.11100
C 	C 	0.79775 0.16004 0.60156 0.09800
C 	C 	0.82610 0.12109 0.61196 -0.09300
C 	C 	0.82663 0.16518 0.67956 -0.17200
H 	H 	0.77081 0.23065 0.65362 0.02300
C 	C 	0.78959 0.15965 0.57426 -0.20300
H 	H 	0.84153 0.09044 0.60039 0.04700
H 	H 	0.76534 0.98299 0.63115 0.05700
H 	H 	0.75383 0.00986 0.66127 0.03900
H 	H 	0.76124 0.93047 0.65680 0.05100
H 	H 	0.80734 0.19756 0.68894 0.05500
H 	H 	0.87265 0.18551 0.68351 0.06100
H 	H 	0.80865 0.11471 0.68728 0.05900
H 	H 	0.81514 0.13457 0.56485 0.06400
H 	H 	0.80271 0.21132 0.56753 0.07400
H 	H 	0.74465 0.13283 0.56925 0.07500
C 	C 	0.43802 0.29448 0.66519 -0.09100
C 	C 	0.39160 0.23648 0.66016 0.00200
C 	C 	0.39171 0.19626 0.63970 0.02400
C 	C 	0.43808 0.21509 0.62445 -0.01900
C 	C 	0.48561 0.27164 0.62996 -0.10400
C 	C 	0.48598 0.31118 0.65078 0.08900
H 	H 	0.43736 0.18537 0.60830 0.04300
C 	C 	0.53712 0.37084 0.65777 -0.19700
H 	H 	0.43750 0.32546 0.68081 0.04900
C 	C 	0.39971 0.17149 0.70639 -0.16900
H 	H 	0.53453 0.38832 0.67666 0.06100
H 	H 	0.54056 0.41222 0.64524 0.07600
H 	H 	0.57587 0.35825 0.65697 0.05400
H 	H 	0.35103 0.10467 0.61867 0.05600
H 	H 	0.39462 0.14452 0.72385 0.05500
H 	H 	0.43270 0.22121 0.70942 0.05900
H 	H 	0.41393 0.14333 0.69254 0.05700
C 	C 	0.93469 0.57920 0.62975 -0.09900
C 	C 	0.92308 0.63090 0.64148 0.00800
C 	C 	0.86901 0.63531 0.63890 0.02300
C 	C 	0.82764 0.58832 0.62427 -0.01300
C 	C 	0.83954 0.53731 0.61221 -0.11500
C 	C 	0.89322 0.53207 0.61518 0.10600
C 	C 	0.96860 0.68243 0.65543 -0.00700
C 	C 	0.85586 0.69111 0.65109 -0.17300
H 	H 	0.78642 0.59217 0.62190 0.03200
C 	C 	0.90710 0.47794 0.60216 -0.21300
H 	H 	0.97624 0.57612 0.63173 0.05000
C 	C 	0.97454 0.67797 0.68089 0.01600
C 	C 	0.94350 0.61439 0.69378 -0.16800
H 	H 	0.99970 0.74191 0.62391 0.04100
H 	H 	0.87585 0.42852 0.60648 0.08900
H 	H 	0.94938 0.47788 0.60769 0.06900
H 	H 	0.90664 0.48543 0.58219 0.08700
H 	H 	0.88289 0.73955 0.64376 0.07000
H 	H 	0.86349 0.69097 0.67106 0.06800
H 	H 	0.81123 0.68622 0.64796 0.06200
H 	H 	0.95981 0.61539 0.71276 0.05300
H 	H 	0.94871 0.57140 0.68413 0.06000
H 	H 	0.89805 0.60707 0.69437 0.06000
C 	C 	0.90725 0.47710 0.96675 -0.00700
C 	C 	0.90070 0.49707 0.99051 -0.03500
C 	C 	0.94807 0.52964 0.00532 -0.04600
C 	C 	0.96131 0.49217 0.95754 -0.04700
C 	C 	0.85855 0.44089 0.95186 0.04200
C 	C 	0.81797 0.41137 0.93917 -0.11300
H 	H 	0.85902 0.48629 0.99766 0.03600
H 	H 	0.94266 0.54288 0.02395 0.03900
H 	H 	0.96668 0.47758 0.93908 0.03800
C 	C 	0.50431 0.95654 0.97362 0.01700
C 	C 	0.53105 0.92973 0.99095 -0.04400
C 	C 	0.49917 0.88450 0.00784 -0.03000
C 	C 	0.44043 0.86598 0.00749 -0.01000
C 	C 	0.41356 0.89149 0.98977 -0.03100
C 	C 	0.44545 0.93665 0.97284 -0.04400
C 	C 	0.53726 0.00783 0.95779 0.01400
C 	C 	0.56387 0.05178 0.94467 -0.10700
C 	C 	0.40827 0.82352 0.02609 0.04100
C 	C 	0.38331 0.78848 0.04220 -0.10900
H 	H 	0.57652 0.94484 0.99165 0.04300
H 	H 	0.52020 0.86480 0.02147 0.03600
H 	H 	0.36816 0.87725 0.98935 0.03700
H 	H 	0.42450 0.95712 0.95943 0.04300
C 	C 	0.37903 0.40635 0.00490 -0.00900
C 	C 	0.39860 0.35485 0.01066 -0.03500
C 	C 	0.42699 0.33151 0.99331 -0.03600
C 	C 	0.43605 0.35972 0.97015 -0.00600
C 	C 	0.41364 0.40854 0.96396 -0.03700
C 	C 	0.38515 0.43180 0.98130 -0.03600
C 	C 	0.35772 0.43739 0.02369 0.04100
C 	C 	0.47548 0.34638 0.95438 0.04000
C 	C 	0.51074 0.33712 0.94201 -0.10900
H 	H 	0.39362 0.33456 0.02881 0.03700
H 	H 	0.44406 0.29359 0.99821 0.03800
H 	H 	0.42033 0.43047 0.94608 0.03400
H 	H 	0.36970 0.47126 0.97666 0.03400
C 	C 	0.93033 0.11193 0.79010 -0.08700
C 	C 	0.93789 0.13989 0.81360 0.00100
C 	C 	0.98740 0.14685 0.82727 0.01500
C 	C 	0.97065 0.08882 0.78021 0.07400
C 	C 	0.89288 0.16028 0.82396 -0.00000
C 	C 	0.96226 0.06163 0.75447 -0.16700
H 	H 	0.89274 0.10789 0.77951 0.04700
C 	C 	0.88654 0.22044 0.81713 0.02500
C 	C 	0.84111 0.23622 0.82585 -0.01700
C 	C 	0.80337 0.19424 0.84213 -0.10300
C 	C 	0.81087 0.13495 0.84957 0.08100
C 	C 	0.85466 0.11764 0.83984 -0.08700
C 	C 	0.92757 0.26743 0.80029 -0.17200
H 	H 	0.83554 0.28175 0.82023 0.04200
C 	C 	0.77281 0.09023 0.86794 -0.18500
H 	H 	0.85946 0.07124 0.84486 0.04400
H 	H 	0.97068 0.01456 0.75343 -0.00500
H 	H 	0.99082 0.09883 0.74233 0.04900
H 	H 	0.91835 0.05060 0.74770 0.05700
H 	H 	0.92127 0.31592 0.79930 0.05900
H 	H 	0.92192 0.24524 0.78166 0.06100
H 	H 	0.97146 0.27746 0.80688 0.06200
H 	H 	0.78936 0.05169 0.87438 0.05300
H 	H 	0.73044 0.06456 0.85955 0.04100
H 	H 	0.76927 0.11955 0.88418 0.01500
C 	C 	0.40577 0.01836 0.85697 -0.12800
C 	C 	0.39168 0.04710 0.83622 0.02200
C 	C 	0.43234 0.10307 0.82587 0.01100
C 	C 	0.48600 0.13079 0.83700 -0.00400
C 	C 	0.49966 0.10324 0.85820 -0.12100
C 	C 	0.45946 0.04587 0.86809 0.11800
C 	C 	0.41795 0.13498 0.80360 -0.16500
H 	H 	0.51693 0.17450 0.82937 0.03100
C 	C 	0.47197 0.01681 0.89143 -0.23800
H 	H 	0.37436 0.97548 0.86484 0.06900
C 	C 	0.35494 0.93739 0.79994 -0.18300
H 	H 	0.51114 0.00546 0.88991 0.08200
H 	H 	0.43764 0.96969 0.89581 0.08500
H 	H 	0.47645 0.05255 0.90671 0.08900
H 	H 	0.38636 0.15781 0.80820 0.06300
H 	H 	0.40052 0.09727 0.78883 0.05700
H 	H 	0.45559 0.17442 0.79650 0.05500
H 	H 	0.37047 0.91627 0.81572 0.06900
H 	H 	0.39132 0.97386 0.79085 0.06900
C 	C 	0.82869 0.74685 0.81474 -0.09800
C 	C 	0.83157 0.68624 0.80651 0.00400
C 	C 	0.86083 0.68394 0.78514 0.02000
C 	C 	0.89071 0.74321 0.77346 -0.02000
C 	C 	0.89087 0.80443 0.78258 -0.12400
C 	C 	0.85744 0.80605 0.80269 0.09800
C 	C 	0.80796 0.62647 0.82148 0.00100
C 	C 	0.86217 0.61876 0.77533 -0.17000
H 	H 	0.91534 0.74195 0.75768 0.03100
C 	C 	0.85336 0.87062 0.81175 -0.20500
H 	H 	0.80525 0.74813 0.83091 0.05000
C 	C 	0.84066 0.61270 0.84032 0.02300
C 	C 	0.81803 0.55454 0.85373 -0.01500
C 	C 	0.76338 0.51014 0.84859 -0.10400
C 	C 	0.73057 0.52393 0.82982 0.08400
C 	C 	0.75311 0.58234 0.81644 -0.08900
C 	C 	0.89955 0.65996 0.84618 -0.16900
H 	H 	0.84293 0.54376 0.86825 0.04400
C 	C 	0.67157 0.47683 0.82413 -0.19500
H 	H 	0.72822 0.59321 0.80195 0.04800
H 	H 	0.89182 0.89890 0.82262 0.07500
H 	H 	0.81629 0.86169 0.82344 0.06700
H 	H 	0.84853 0.90114 0.79624 0.08100
H 	H 	0.81863 0.58286 0.77246 0.06300
H 	H 	0.88516 0.59790 0.78841 0.05900
H 	H 	0.88350 0.62484 0.75758 0.05500
H 	H 	0.91976 0.64159 0.86121 0.05700
H 	H 	0.89843 0.70915 0.85186 0.05800
H 	H 	0.92610 0.66601 0.82993 0.05500
H 	H 	0.65107 0.49542 0.80926 0.06100
H 	H 	0.64547 0.47063 0.84054 0.04600
H 	H 	0.67256 0.42768 0.81830 0.06400
