data_crystal

_cell_length_a 17.26747
_cell_length_b 16.50468
_cell_length_c 73.67253
_cell_angle_alpha 90.07901
_cell_angle_beta  89.93956
_cell_angle_gamma 120.16609

_symmetry_space_group_name_	'P 1'
_symmetry_space_group_name_H-M	'P 1'

loop_
_symmetry_equiv_pos_as_xyz
  x,y,z

loop_
_atom_site_label
_atom_site_type_symbol
_atom_site_fract_x
_atom_site_fract_y
_atom_site_fract_z
_atom_site_charge
C 	C 	0.84777 0.43247 0.54282 0.30500
C 	C 	0.58254 0.42469 0.59442 0.29800
C 	C 	0.83913 0.43375 0.59324 0.30200
C 	C 	0.59660 0.45494 0.54085 0.30500
C 	C 	0.56682 0.15124 0.58784 0.30000
C 	C 	0.58558 0.18339 0.53798 0.30300
Ni	Ni	0.73451 0.48003 0.56844 1.11800
Ni	Ni	0.54259 0.28648 0.56489 1.12300
Ni	Ni	0.72359 0.27784 0.56725 1.12400
O 	O 	0.84824 0.49286 0.55499 -0.35600
O 	O 	0.80369 0.34056 0.54573 -0.36800
O 	O 	0.51311 0.16373 0.57691 -0.37700
O 	O 	0.63492 0.48928 0.58269 -0.35900
O 	O 	0.54400 0.33535 0.59020 -0.37500
O 	O 	0.63261 0.17281 0.55114 -0.37700
O 	O 	0.77701 0.45631 0.59292 -0.38100
O 	O 	0.83252 0.36563 0.58280 -0.37000
O 	O 	0.53683 0.22383 0.54113 -0.36800
O 	O 	0.68268 0.50481 0.54512 -0.33700
O 	O 	0.53679 0.39542 0.55272 -0.36500
O 	O 	0.65133 0.21663 0.58945 -0.38700
O 	O 	0.67013 0.35235 0.56286 -0.71700
H 	H 	0.67550 0.35731 0.54956 0.16300
C 	C 	0.42392 0.55206 0.41641 0.30600
C 	C 	0.13400 0.54328 0.37475 0.30300
C 	C 	0.39478 0.56859 0.36335 0.29800
C 	C 	0.16599 0.54756 0.42496 0.30400
C 	C 	0.39751 0.84101 0.37518 0.29800
C 	C 	0.42223 0.81003 0.42312 0.30700
Ni	Ni	0.26314 0.50851 0.39416 1.11400
Ni	Ni	0.26158 0.70439 0.39876 1.12300
Ni	Ni	0.44847 0.71035 0.39261 1.12500
O 	O 	0.33723 0.49176 0.41451 -0.34600
O 	O 	0.47117 0.60873 0.40290 -0.36000
O 	O 	0.31404 0.77187 0.37549 -0.38400
O 	O 	0.19831 0.52486 0.37224 -0.38200
O 	O 	0.14476 0.61074 0.38594 -0.36700
O 	O 	0.47125 0.77477 0.41674 -0.36600
O 	O 	0.35387 0.50457 0.37599 -0.36000
O 	O 	0.42786 0.65784 0.36706 -0.37300
O 	O 	0.35997 0.81347 0.41301 -0.37600
O 	O 	0.15845 0.48873 0.41174 -0.36500
O 	O 	0.19982 0.63859 0.42198 -0.37000
O 	O 	0.46260 0.82912 0.38150 -0.36600
O 	O 	0.32468 0.63760 0.39902 -0.71400
H 	H 	0.33079 0.63455 0.41224 0.15300
C 	C 	0.21921 0.40959 0.65428 0.28500
C 	C 	0.43428 0.79135 0.62054 0.30600
C 	C 	0.45644 0.56349 0.64864 0.30200
C 	C 	0.18217 0.63670 0.62292 0.27800
C 	C 	0.45806 0.78445 0.67941 0.30700
C 	C 	0.20380 0.66145 0.68343 0.28700
Ni	Ni	0.32248 0.58490 0.62877 1.11500
Ni	Ni	0.31924 0.75013 0.65190 1.12100
Ni	Ni	0.32993 0.58798 0.67281 1.12200
O 	O 	0.26350 0.44461 0.63861 -0.36200
O 	O 	0.22015 0.46431 0.66749 -0.38000
O 	O 	0.39652 0.80508 0.67445 -0.37600
O 	O 	0.38166 0.70855 0.61330 -0.35900
O 	O 	0.43479 0.80176 0.63804 -0.38700
O 	O 	0.26174 0.63438 0.68888 -0.37000
O 	O 	0.44816 0.62005 0.63768 -0.37500
O 	O 	0.40156 0.52866 0.66263 -0.37100
O 	O 	0.21021 0.69991 0.66736 -0.38800
O 	O 	0.20350 0.57115 0.61989 -0.36500
O 	O 	0.24330 0.72247 0.62862 -0.36700
O 	O 	0.44877 0.70272 0.67581 -0.38700
O 	O 	0.30035 0.62670 0.65091 -0.71500
H 	H 	0.23450 0.58988 0.65148 0.16600
C 	C 	0.78948 0.90964 0.71157 0.29000
C 	C 	0.03117 0.90705 0.76828 0.31300
C 	C 	0.82557 0.95946 0.76016 0.33500
C 	C 	0.04160 0.83450 0.72052 0.27100
C 	C 	0.08782 0.18046 0.75442 0.32500
C 	C 	0.08935 0.12334 0.70265 0.27500
Ni	Ni	0.89486 0.85451 0.73847 1.11600
Ni	Ni	0.10038 0.02968 0.73592 1.11800
Ni	Ni	0.94001 0.06862 0.72947 1.12100
O 	O 	0.79282 0.84115 0.72064 -0.35400
O 	O 	0.86188 0.99194 0.70871 -0.37400
O 	O 	0.13618 0.16162 0.74333 -0.37100
O 	O 	0.97591 0.83905 0.75746 -0.34900
O 	O 	0.07640 0.99423 0.76255 -0.35200
O 	O 	0.04340 0.15201 0.71272 -0.37600
O 	O 	0.83774 0.88711 0.76003 -0.36900
O 	O 	0.82801 0.00214 0.74499 -0.38600
O 	O 	0.12530 0.07581 0.70999 -0.37600
O 	O 	0.95526 0.80895 0.71968 -0.35400
O 	O 	0.09959 0.90745 0.73048 -0.35400
O 	O 	0.00148 0.14322 0.75176 -0.39500
O 	O 	0.97604 0.97749 0.73111 -0.70700
H 	H 	0.97605 0.96333 0.71811 0.15800
C 	C 	0.75488 0.25617 0.08817 0.30300
C 	C 	0.47793 0.23696 0.03706 0.30400
C 	C 	0.74564 0.22987 0.03835 0.29900
C 	C 	0.48633 0.24191 0.08777 0.30200
C 	C 	0.72922 0.48194 0.03128 0.30100
C 	C 	0.73868 0.51422 0.08523 0.30300
Ni	Ni	0.59556 0.19836 0.06196 1.11600
Ni	Ni	0.59464 0.39448 0.06009 1.12300
Ni	Ni	0.78173 0.39834 0.06045 1.12600
O 	O 	0.69638 0.19110 0.07679 -0.36000
O 	O 	0.79620 0.34717 0.08427 -0.36100
O 	O 	0.68539 0.49790 0.04414 -0.37100
O 	O 	0.48079 0.17446 0.04768 -0.35300
O 	O 	0.54395 0.32304 0.03688 -0.39000
O 	O 	0.79490 0.51554 0.07269 -0.36100
O 	O 	0.66124 0.20678 0.03798 -0.37500
O 	O 	0.80232 0.29780 0.04908 -0.35800
O 	O 	0.65190 0.47659 0.08180 -0.36600
O 	O 	0.52276 0.18878 0.08496 -0.35700
O 	O 	0.48543 0.29827 0.07486 -0.36700
O 	O 	0.77456 0.43976 0.03519 -0.37600
O 	O 	0.65606 0.32872 0.06509 -0.71700
H 	H 	0.65633 0.33213 0.07843 0.15400
C 	C 	0.18473 0.07353 0.20820 0.29600
C 	C 	0.92200 0.10471 0.25287 0.30800
C 	C 	0.18919 0.07621 0.25821 0.29600
C 	C 	0.93946 0.07979 0.20317 0.29100
C 	C 	0.92356 0.84367 0.26224 0.30000
C 	C 	0.92968 0.81378 0.20806 0.31600
Ni	Ni	0.08055 0.12774 0.23311 1.11300
Ni	Ni	0.88754 0.93379 0.23158 1.12700
Ni	Ni	0.06764 0.92295 0.23503 1.12200
O 	O 	0.16543 0.13977 0.21214 -0.36100
O 	O 	0.18129 0.01371 0.22079 -0.36400
O 	O 	0.88188 0.88823 0.25711 -0.37300
O 	O 	0.00472 0.12366 0.25521 -0.38200
O 	O 	0.86830 0.03750 0.24169 -0.37000
O 	O 	0.01332 0.84279 0.21298 -0.37800
O 	O 	0.18593 0.14515 0.24995 -0.35700
O 	O 	0.11952 0.99227 0.25836 -0.38500
O 	O 	0.87133 0.81471 0.21972 -0.36000
O 	O 	0.99187 0.14229 0.21560 -0.34300
O 	O 	0.88639 0.98966 0.20724 -0.35900
O 	O 	0.96852 0.82362 0.25031 -0.36700
O 	O 	0.01521 0.99726 0.22937 -0.71200
H 	H 	0.01986 0.99558 0.21609 0.14300
C 	C 	0.78419 0.34320 0.34782 0.27800
C 	C 	0.53181 0.43029 0.31456 0.30200
C 	C 	0.52933 0.20269 0.34738 0.30400
C 	C 	0.78255 0.57013 0.31250 0.28200
C 	C 	0.52181 0.19748 0.28899 0.30800
C 	C 	0.77492 0.30299 0.28716 0.28700
Ni	Ni	0.65475 0.40528 0.33809 1.11500
Ni	Ni	0.65939 0.39259 0.29420 1.12500
Ni	Ni	0.65226 0.22913 0.31811 1.12000
O 	O 	0.76658 0.41222 0.34955 -0.36300
O 	O 	0.72132 0.25759 0.34238 -0.36800
O 	O 	0.53748 0.28322 0.29051 -0.38500
O 	O 	0.53394 0.37733 0.32735 -0.37300
O 	O 	0.59452 0.46286 0.30196 -0.36700
O 	O 	0.76397 0.26973 0.30388 -0.39000
O 	O 	0.58389 0.28554 0.35439 -0.35600
O 	O 	0.53382 0.18865 0.33015 -0.39000
O 	O 	0.72297 0.33443 0.28026 -0.36700
O 	O 	0.72560 0.54216 0.32663 -0.35900
O 	O 	0.77391 0.51238 0.29912 -0.37400
O 	O 	0.57948 0.17375 0.29512 -0.38100
O 	O 	0.67899 0.35519 0.31732 -0.71600
H 	H 	0.74490 0.38811 0.31754 0.16500
C 	C 	0.14781 0.11284 0.00281 0.30800
C 	C 	0.89433 0.03448 0.00277 0.28200
O 	O 	0.93847 0.99693 0.01082 -0.35900
O 	O 	0.11806 0.02294 0.00428 -0.38900
C 	C 	0.27926 0.05984 0.28282 -0.00800
C 	C 	0.27467 0.09070 0.26533 -0.06500
C 	C 	0.35066 0.12907 0.25418 -0.00300
C 	C 	0.43257 0.14527 0.26111 0.00200
C 	C 	0.44029 0.12961 0.27957 -0.06700
C 	C 	0.36191 0.07847 0.28987 -0.00400
H 	H 	0.21981 0.02538 0.29124 0.04200
H 	H 	0.34687 0.14866 0.24033 0.06900
H 	H 	0.49213 0.18088 0.25275 0.05300
H 	H 	0.36634 0.06251 0.30396 0.04100
C 	C 	0.95777 0.76391 0.28725 0.00500
C 	C 	0.90552 0.80044 0.28050 -0.05900
C 	C 	0.83052 0.78680 0.29054 -0.00400
C 	C 	0.79967 0.72379 0.30510 -0.00800
C 	C 	0.84044 0.67063 0.30891 -0.05500
C 	C 	0.92617 0.70079 0.30177 -0.01000
H 	H 	0.01970 0.77960 0.28057 0.04100
H 	H 	0.79289 0.81995 0.28639 0.05200
H 	H 	0.73816 0.70819 0.31186 0.04500
H 	H 	0.96224 0.66552 0.30567 0.04600
C 	C 	0.82039 0.17177 0.25180 0.00200
C 	C 	0.89453 0.17117 0.25958 -0.06100
C 	C 	0.94116 0.23344 0.27381 -0.00600
C 	C 	0.90903 0.28907 0.28123 -0.00500
C 	C 	0.82884 0.28119 0.27480 -0.05600
C 	C 	0.78849 0.22738 0.25925 -0.00200
H 	H 	0.78546 0.12671 0.24039 0.06600
H 	H 	0.99999 0.23610 0.27962 0.05000
H 	H 	0.94232 0.33250 0.29294 0.04200
H 	H 	0.72774 0.22216 0.25388 0.05900
C 	C 	0.69186 0.57019 0.00862 -0.00300
C 	C 	0.73983 0.52505 0.01315 -0.05800
H 	H 	0.63689 0.56180 0.01706 0.04900
H 	H 	0.83659 0.48842 0.00318 0.05400
C 	C 	0.39088 0.21615 0.00895 -0.00600
C 	C 	0.39438 0.21507 0.02794 -0.06300
C 	C 	0.32183 0.20594 0.03813 -0.00600
C 	C 	0.24298 0.18821 0.02941 0.00100
C 	C 	0.23550 0.17734 0.01050 -0.06700
H 	H 	0.32628 0.21196 0.05277 0.06300
H 	H 	0.18514 0.17469 0.03746 0.04800
C 	C 	0.76963 0.06782 0.00561 -0.00800
C 	C 	0.83828 0.05895 0.01393 -0.05600
C 	C 	0.86616 0.09457 0.03151 -0.00300
C 	C 	0.83328 0.14750 0.03976 -0.00300
C 	C 	0.77219 0.16526 0.03052 -0.06200
C 	C 	0.73737 0.12158 0.01379 -0.00700
H 	H 	0.91754 0.08654 0.03829 0.06100
H 	H 	0.85681 0.17643 0.05316 0.06900
H 	H 	0.68798 0.13215 0.00680 0.04700
C 	C 	0.88583 0.20941 0.16770 -0.07000
C 	C 	0.87678 0.15593 0.15224 0.02800
C 	C 	0.89627 0.08274 0.15320 0.06800
C 	C 	0.92163 0.06192 0.16980 -0.00100
C 	C 	0.92729 0.11305 0.18548 -0.08200
C 	C 	0.91053 0.18824 0.18432 0.12700
C 	C 	0.84535 0.17602 0.13518 0.03000
N 	N 	0.88614 0.02653 0.13756 -0.01500
H 	H 	0.93470 0.00427 0.17061 0.06200
N 	N 	0.91379 0.23998 0.20015 -0.02200
H 	H 	0.87158 0.26624 0.16692 0.09100
C 	C 	0.75307 0.13336 0.13140 0.06200
C 	C 	0.72424 0.15821 0.11571 -0.00400
C 	C 	0.78668 0.22580 0.10382 -0.08400
C 	C 	0.87921 0.26729 0.10750 0.12700
C 	C 	0.90778 0.24287 0.12324 -0.06900
N 	N 	0.68839 0.06736 0.14381 -0.01900
H 	H 	0.65315 0.12637 0.11297 0.06500
N 	N 	0.94431 0.33366 0.09520 -0.01600
H 	H 	0.97879 0.27573 0.12617 0.09500
O 	O 	0.83970 0.22457 0.20780 -0.09000
O 	O 	0.98965 0.31092 0.20534 -0.08300
O 	O 	0.93087 0.06553 0.12281 -0.07100
O 	O 	0.83768 0.93569 0.13853 -0.07300
O 	O 	0.00023 0.41833 0.10069 -0.09900
O 	O 	0.95225 0.30744 0.07898 -0.09000
O 	O 	0.63067 0.08510 0.15150 -0.08700
O 	O 	0.68299 0.98675 0.14641 -0.07100
C 	C 	0.34814 0.12453 0.17010 -0.07000
C 	C 	0.29990 0.13292 0.15562 0.03000
C 	C 	0.20965 0.10754 0.15810 0.06100
C 	C 	0.16903 0.07522 0.17502 -0.00100
C 	C 	0.21881 0.07346 0.18990 -0.08900
C 	C 	0.30828 0.09552 0.18727 0.12700
C 	C 	0.34276 0.16416 0.13762 0.02900
N 	N 	0.16029 0.11889 0.14371 -0.01800
H 	H 	0.10053 0.05915 0.17700 0.04600
N 	N 	0.35990 0.09203 0.20211 -0.02400
H 	H 	0.41698 0.14178 0.16811 0.09000
C 	C 	0.40926 0.25839 0.13459 0.06300
C 	C 	0.45090 0.28555 0.11755 -0.00600
C 	C 	0.42678 0.21964 0.10353 -0.08300
C 	C 	0.35650 0.12682 0.10629 0.12500
C 	C 	0.31577 0.09945 0.12334 -0.07000
N 	N 	0.43570 0.32624 0.14886 -0.01600
H 	H 	0.50448 0.35707 0.11545 0.06500
N 	N 	0.32813 0.05945 0.09189 -0.02400
H 	H 	0.26308 0.02759 0.12551 0.09300
O 	O 	0.33932 0.01184 0.20935 -0.09100
O 	O 	0.43340 0.16720 0.20690 -0.09200
O 	O 	0.08428 0.04824 0.13854 -0.07900
O 	O 	0.18727 0.20156 0.13691 -0.08100
O 	O 	0.30183 0.07603 0.07651 -0.09200
O 	O 	0.32343 0.97918 0.09453 -0.08300
O 	O 	0.51967 0.37631 0.15338 -0.08900
O 	O 	0.37684 0.34261 0.15644 -0.07700
C 	C 	0.77370 0.67225 0.12529 -0.06800
C 	C 	0.82383 0.64890 0.13687 0.02800
C 	C 	0.84999 0.58476 0.13104 0.06700
C 	C 	0.82568 0.54471 0.11371 -0.00700
C 	C 	0.77492 0.56750 0.10216 -0.08200
C 	C 	0.75058 0.63339 0.10785 0.12900
C 	C 	0.84951 0.69269 0.15502 0.03300
N 	N 	0.89876 0.55783 0.14291 -0.01600
H 	H 	0.84431 0.49396 0.10942 0.07200
N 	N 	0.70409 0.66247 0.09581 -0.02200
H 	H 	0.75441 0.72236 0.12968 0.09600
C 	C 	0.92986 0.77842 0.15745 0.06200
C 	C 	0.95430 0.81760 0.17483 0.01600
C 	C 	0.89971 0.77219 0.18987 -0.09400
C 	C 	0.81929 0.68623 0.18744 0.13200
C 	C 	0.79412 0.64768 0.16998 -0.07400
N 	N 	0.98874 0.82387 0.14243 -0.00800
H 	H 	0.01627 0.88329 0.17665 0.04900
N 	N 	0.76513 0.63584 0.20269 -0.02300
H 	H 	0.73260 0.58141 0.16813 0.09200
O 	O 	0.73796 0.69736 0.08000 -0.08000
O 	O 	0.63108 0.65998 0.10114 -0.08300
O 	O 	0.86559 0.47024 0.14731 -0.08600
O 	O 	0.97958 0.61929 0.14795 -0.06900
O 	O 	0.68173 0.61455 0.20339 -0.08400
O 	O 	0.79674 0.60391 0.21502 -0.07800
O 	O 	0.96040 0.84883 0.12834 -0.06500
O 	O 	0.07266 0.84732 0.14351 -0.08700
C 	C 	0.14300 0.85329 0.80670 -0.07900
C 	C 	0.08304 0.83636 0.82098 0.04300
C 	C 	0.00559 0.84268 0.81792 0.03000
C 	C 	0.98958 0.86658 0.80062 0.04700
C 	C 	0.04995 0.88400 0.78638 -0.10700
C 	C 	0.12675 0.87669 0.78942 0.14300
N 	N 	0.94148 0.82147 0.83212 -0.00300
H 	H 	0.93009 0.87148 0.79825 0.06000
N 	N 	0.18684 0.88987 0.77484 -0.02700
H 	H 	0.20225 0.84789 0.80901 0.09400
N 	N 	0.03401 0.64595 0.82990 -0.02500
O 	O 	0.20146 0.82249 0.77034 -0.08700
O 	O 	0.23413 0.97209 0.76746 -0.08200
O 	O 	0.85779 0.75895 0.82949 -0.07600
O 	O 	0.06815 0.59665 0.82380 -0.07500
O 	O 	0.95339 0.62453 0.82514 -0.05900
C 	C 	0.25949 0.51464 0.81824 -0.06900
C 	C 	0.19753 0.41867 0.81655 0.03100
C 	C 	0.15092 0.36636 0.83198 0.05800
C 	C 	0.18477 0.37190 0.79882 0.02600
N 	N 	0.08405 0.26939 0.83034 -0.01600
H 	H 	0.29392 0.55539 0.80632 0.08900
C 	C 	0.13231 0.38099 0.78525 0.06000
C 	C 	0.10699 0.32300 0.76993 0.00200
C 	C 	0.13220 0.25464 0.76819 -0.09300
C 	C 	0.19057 0.25073 0.78110 0.12400
C 	C 	0.21698 0.30989 0.79626 -0.07000
N 	N 	0.10100 0.44586 0.78741 -0.01700
H 	H 	0.06413 0.32810 0.75981 0.06200
N 	N 	0.21939 0.18358 0.77939 -0.02500
H 	H 	0.25929 0.30454 0.80649 0.08600
O 	O 	0.41744 0.69372 0.82953 -0.08500
O 	O 	0.01656 0.24394 0.81941 -0.07600
O 	O 	0.27854 0.19541 0.76716 -0.09300
O 	O 	0.19761 0.11973 0.79181 -0.08600
O 	O 	0.12889 0.51692 0.77647 -0.08800
O 	O 	0.03928 0.42974 0.79933 -0.07100
C 	C 	0.67089 0.93665 0.82892 0.02700
C 	C 	0.71555 0.96840 0.81111 0.04500
N 	N 	0.63414 0.06314 0.82927 -0.02300
H 	H 	0.69949 0.82386 0.83082 0.09300
C 	C 	0.80858 0.00407 0.80947 0.05300
C 	C 	0.84592 0.00957 0.79228 -0.01000
C 	C 	0.79140 0.97983 0.77679 -0.08100
C 	C 	0.70039 0.95382 0.77827 0.12900
C 	C 	0.66299 0.94816 0.79543 -0.07300
N 	N 	0.86451 0.03075 0.82529 -0.01300
H 	H 	0.91670 0.03296 0.79107 0.07000
N 	N 	0.64470 0.92850 0.76250 -0.02500
H 	H 	0.59191 0.92323 0.79663 0.09400
O 	O 	0.56201 0.06660 0.82580 -0.08600
O 	O 	0.71237 0.13683 0.82659 -0.07200
O 	O 	0.57339 0.84596 0.76146 -0.09800
O 	O 	0.65850 0.99171 0.75041 -0.08200
O 	O 	0.92672 0.00861 0.82666 -0.07500
C 	C 	0.62506 0.84475 0.71492 -0.00100
C 	C 	0.70296 0.89310 0.70442 -0.05200
C 	C 	0.69868 0.93057 0.68759 -0.00800
C 	C 	0.61563 0.91019 0.68046 0.00100
C 	C 	0.53645 0.85059 0.68991 -0.06500
C 	C 	0.54261 0.82677 0.70793 0.00400
H 	H 	0.62794 0.81886 0.72825 0.06700
H 	H 	0.75894 0.97167 0.67967 0.05000
H 	H 	0.61221 0.93200 0.66675 0.04500
H 	H 	0.48215 0.78407 0.71570 0.04900
C 	C 	0.24650 0.29076 0.66842 -0.01200
C 	C 	0.18783 0.31142 0.65895 -0.06100
C 	C 	0.09534 0.24878 0.66014 -0.00400
C 	C 	0.06184 0.17713 0.67313 -0.02000
C 	C 	0.12094 0.16696 0.68472 -0.05400
C 	C 	0.21304 0.21820 0.68115 -0.00800
H 	H 	0.31794 0.33865 0.66786 0.04600
H 	H 	0.04918 0.26200 0.65253 0.03800
H 	H 	0.99015 0.13515 0.67524 0.04500
H 	H 	0.25939 0.20911 0.68961 0.04900
C 	C 	0.18436 0.72295 0.71278 0.00400
C 	C 	0.14585 0.67136 0.69690 -0.06300
C 	C 	0.06209 0.65732 0.69122 0.00300
C 	C 	0.02545 0.70731 0.69939 -0.02600
C 	C 	0.07057 0.76897 0.71378 -0.04000
C 	C 	0.14728 0.77194 0.72113 -0.01300
H 	H 	0.24749 0.73230 0.71768 0.05600
H 	H 	0.02985 0.61486 0.67934 0.03800
H 	H 	0.96465 0.70152 0.69393 0.05900
H 	H 	0.18062 0.81557 0.73280 0.07500
C 	C 	0.49153 0.60396 0.33583 -0.00800
C 	C 	0.41398 0.54143 0.34552 -0.06000
C 	C 	0.35963 0.45025 0.33882 -0.00500
C 	C 	0.39033 0.41785 0.32453 -0.00400
C 	C 	0.47761 0.47452 0.31779 -0.06600
C 	C 	0.52192 0.57069 0.32163 -0.00700
H 	H 	0.53147 0.67639 0.34007 0.04900
H 	H 	0.29638 0.40300 0.34531 0.04500
H 	H 	0.35194 0.34479 0.32058 0.04700
H 	H 	0.58546 0.61726 0.31527 0.04600
C 	C 	0.97130 0.43587 0.38032 0.00000
C 	C 	0.04359 0.47583 0.36816 -0.07000
C 	C 	0.02964 0.44791 0.34990 -0.00700
C 	C 	0.94255 0.38884 0.34347 -0.01200
C 	C 	0.86906 0.35832 0.35524 -0.05600
C 	C 	0.88461 0.37577 0.37392 -0.00600
H 	H 	0.98189 0.45315 0.39463 0.05200
H 	H 	0.08557 0.47515 0.34053 0.04300
H 	H 	0.93166 0.37412 0.32907 0.04000
H 	H 	0.82859 0.35034 0.38323 0.05300
C 	C 	0.48987 0.01399 0.37990 -0.01900
C 	C 	0.41725 0.93733 0.37128 -0.05300
C 	C 	0.36773 0.95386 0.35825 0.00000
C 	C 	0.39690 0.04544 0.35241 -0.01600
C 	C 	0.47751 0.12060 0.35909 -0.06600
C 	C 	0.51983 0.10526 0.37383 -0.00100
H 	H 	0.52557 0.00259 0.39077 0.06200
H 	H 	0.30960 0.89579 0.35197 0.04700
H 	H 	0.36154 0.05693 0.34149 0.04500
H 	H 	0.58042 0.16282 0.37952 0.05600
C 	C 	0.47723 0.39181 0.62025 -0.00700
C 	C 	0.55931 0.45216 0.61178 -0.06100
C 	C 	0.61770 0.53905 0.61982 -0.00500
C 	C 	0.58959 0.56943 0.63490 -0.00400
C 	C 	0.50172 0.51491 0.64153 -0.06800
C 	C 	0.44888 0.42287 0.63510 -0.01300
H 	H 	0.43270 0.32303 0.61463 0.04700
H 	H 	0.68337 0.58438 0.61405 0.04700
H 	H 	0.63250 0.63950 0.64015 0.04700
H 	H 	0.38130 0.37971 0.64000 0.04600
C 	C 	0.93607 0.51777 0.61975 0.00100
C 	C 	0.92661 0.50081 0.60101 -0.06700
C 	C 	0.00032 0.55193 0.58955 -0.01100
C 	C 	0.08436 0.61341 0.59690 -0.00300
C 	C 	0.09648 0.61999 0.61577 -0.05600
C 	C 	0.02093 0.57750 0.62713 -0.01800
H 	H 	0.87869 0.48174 0.62866 0.04100
H 	H 	0.99320 0.54196 0.57499 0.05900
H 	H 	0.14187 0.64805 0.58797 0.05000
H 	H 	0.02906 0.58383 0.64174 0.04000
C 	C 	0.58887 0.04190 0.60786 -0.02800
C 	C 	0.53676 0.05612 0.59504 -0.07700
C 	C 	0.45763 0.97840 0.58848 0.01200
C 	C 	0.42847 0.88881 0.59546 -0.00600
C 	C 	0.47771 0.87583 0.60912 -0.07000
C 	C 	0.55994 0.95218 0.61471 0.01500
H 	H 	0.65080 0.10049 0.61283 0.04900
H 	H 	0.41798 0.98741 0.57815 0.05700
H 	H 	0.36502 0.83057 0.59099 0.05500
H 	H 	0.59904 0.94286 0.62513 0.04400
C 	C 	0.60089 0.57965 0.49757 -0.06500
C 	C 	0.52600 0.50950 0.48835 0.03200
C 	C 	0.46747 0.42500 0.49744 0.06700
C 	C 	0.48925 0.40851 0.51490 0.00200
C 	C 	0.56512 0.47834 0.52397 -0.07500
C 	C 	0.61620 0.56740 0.51577 0.13500
C 	C 	0.50853 0.52559 0.46926 0.03000
N 	N 	0.38534 0.35662 0.48913 -0.01800
H 	H 	0.44754 0.34110 0.52131 0.06900
N 	N 	0.67816 0.64703 0.52628 -0.01900
H 	H 	0.64495 0.64551 0.49086 0.09600
C 	C 	0.50193 0.60499 0.46465 0.06900
C 	C 	0.48700 0.61963 0.44656 -0.00000
C 	C 	0.46927 0.55139 0.43332 -0.07800
C 	C 	0.47891 0.47377 0.43771 0.12800
C 	C 	0.50054 0.46248 0.45556 -0.06600
N 	N 	0.50446 0.66753 0.47845 -0.01600
H 	H 	0.48015 0.67952 0.44324 0.07500
N 	N 	0.46602 0.40586 0.42413 -0.02400
H 	H 	0.50957 0.40373 0.45882 0.09400
O 	O 	0.75533 0.70771 0.51943 -0.06700
O 	O 	0.65321 0.66466 0.54175 -0.07900
O 	O 	0.36663 0.27006 0.48772 -0.07800
O 	O 	0.32644 0.37937 0.48420 -0.06800
O 	O 	0.50841 0.43272 0.40873 -0.08800
O 	O 	0.41577 0.31689 0.42755 -0.08300
O 	O 	0.55955 0.75717 0.47696 -0.07400
O 	O 	0.44668 0.63581 0.49167 -0.06300
C 	C 	0.54361 0.11183 0.48874 -0.05100
C 	C 	0.52043 0.01759 0.48994 -0.01700
C 	C 	0.52598 0.98005 0.50670 0.10600
C 	C 	0.54908 0.03551 0.52232 -0.03200
C 	C 	0.56928 0.12903 0.52126 -0.07300
C 	C 	0.57033 0.16858 0.50424 0.11300
C 	C 	0.49407 0.95986 0.47345 0.05800
N 	N 	0.51026 0.88632 0.50783 -0.02200
H 	H 	0.54980 0.00534 0.53534 0.07000
N 	N 	0.60267 0.26707 0.50252 -0.02200
H 	H 	0.54296 0.14156 0.47566 0.08200
C 	C 	0.40516 0.91648 0.46715 0.05700
C 	C 	0.38234 0.86625 0.45087 0.00700
C 	C 	0.44811 0.86185 0.44041 -0.08600
C 	C 	0.53795 0.90823 0.44650 0.13300
C 	C 	0.55962 0.95437 0.46323 -0.07800
N 	N 	0.33868 0.92657 0.47689 -0.01400
H 	H 	0.31329 0.83079 0.44631 0.06800
N 	N 	0.60811 0.91431 0.43520 -0.02200
H 	H 	0.62844 0.98958 0.46792 0.09700
O 	O 	0.67936 0.32751 0.50959 -0.09200
O 	O 	0.56126 0.29615 0.49197 -0.08800
O 	O 	0.57206 0.87131 0.51426 -0.07100
O 	O 	0.43204 0.81570 0.50374 -0.06500
O 	O 	0.63022 0.96423 0.42044 -0.09200
O 	O 	0.65537 0.87744 0.44053 -0.08100
O 	O 	0.29665 0.96369 0.46897 -0.07800
O 	O 	0.31602 0.89315 0.49324 -0.07500
C 	C 	0.94785 0.52839 0.49707 -0.06700
C 	C 	0.99527 0.48102 0.49415 0.03100
C 	C 	0.00621 0.43151 0.50855 0.05700
C 	C 	0.96843 0.42863 0.52551 0.00100
C 	C 	0.91332 0.46774 0.52790 -0.08300
C 	C 	0.90611 0.52127 0.51381 0.12500
C 	C 	0.03754 0.48765 0.47628 0.02800
N 	N 	0.05215 0.38049 0.50577 -0.01700
H 	H 	0.97571 0.38899 0.53643 0.06400
N 	N 	0.85418 0.56596 0.51624 -0.02500
H 	H 	0.94225 0.56963 0.48626 0.09000
C 	C 	0.98517 0.45201 0.46041 0.05900
C 	C 	0.02747 0.46506 0.44350 0.00000
C 	C 	0.12115 0.50976 0.44242 -0.08700
C 	C 	0.17213 0.53679 0.45844 0.12600
C 	C 	0.13087 0.52961 0.47515 -0.06700
N 	N 	0.88936 0.40308 0.46141 -0.01600
H 	H 	0.98764 0.44274 0.43120 0.06100
N 	N 	0.26530 0.56707 0.45786 -0.02900
H 	H 	0.17138 0.55506 0.48733 0.09400
O 	O 	0.87891 0.63292 0.52810 -0.08100
O 	O 	0.78869 0.54746 0.50517 -0.07500
O 	O 	0.11921 0.39623 0.51615 -0.08700
O 	O 	0.02285 0.31361 0.49377 -0.07700
O 	O 	0.32393 0.65246 0.46244 -0.08900
O 	O 	0.29071 0.50624 0.45493 -0.08200
O 	O 	0.84409 0.42937 0.45135 -0.09100
O 	O 	0.84721 0.32884 0.47154 -0.08100
H 	H 	0.44847 0.22850 0.00093 0.04300
C 	C 	0.31187 0.19821 0.00025 -0.00500
C 	C 	0.80415 0.52912 0.00085 -0.00500
C 	C 	0.27717 0.55821 0.83529 0.12800
N 	N 	0.33807 0.65698 0.83674 -0.02400
C 	C 	0.66531 0.85701 0.83697 -0.06500
C 	C 	0.62736 0.98036 0.83707 0.07200
O 	O 	0.85659 0.08158 0.83786 -0.06800
C 	C 	0.10194 0.81168 0.83906 0.02300
C 	C 	0.08278 0.71959 0.84273 0.06300
O 	O 	0.08811 0.20719 0.84048 -0.08500
O 	O 	0.96504 0.87063 0.84700 -0.07000
O 	O 	0.31118 0.71118 0.84367 -0.08400
C 	C 	0.15015 0.88301 0.85174 -0.06800
H 	H 	0.16373 0.95356 0.84909 0.09200
C 	C 	0.17044 0.40930 0.84906 0.00600
C 	C 	0.23436 0.50448 0.85084 -0.09300
O 	O 	0.57598 0.65933 0.85096 -0.08400
C 	C 	0.57561 0.94143 0.85275 0.00200
C 	C 	0.61394 0.81830 0.85262 0.12700
C 	C 	0.11589 0.70096 0.85858 -0.00100
H 	H 	0.10355 0.63074 0.86105 0.06900
H 	H 	0.13621 0.36841 0.86098 0.06000
C 	C 	0.56675 0.85918 0.86032 -0.08700
H 	H 	0.54020 0.97366 0.85871 0.07500
N 	N 	0.60814 0.73608 0.86043 -0.02600
C 	C 	0.25952 0.54562 0.86901 0.33100
C 	C 	0.18307 0.86428 0.86761 0.12600
O 	O 	0.44520 0.72104 0.87363 -0.36400
C 	C 	0.16937 0.77364 0.87063 -0.08700
C 	C 	0.50147 0.81103 0.87500 0.32600
O 	O 	0.31872 0.53454 0.87820 -0.38000
O 	O 	0.20695 0.57010 0.87728 -0.38500
O 	O 	0.29585 0.01864 0.87527 -0.09600
O 	O 	0.64127 0.73996 0.87647 -0.10200
C 	C 	0.22162 0.75808 0.88452 0.32700
O 	O 	0.30891 0.81123 0.88472 -0.35400
N 	N 	0.23094 0.93759 0.88058 -0.02100
Ni	Ni	0.40976 0.63271 0.89495 1.12600
O 	O 	0.49474 0.86001 0.88835 -0.37000
O 	O 	0.18043 0.69620 0.89741 -0.37300
H 	H 	0.68457 0.88879 0.89860 0.06300
H 	H 	0.14608 0.29989 0.90049 0.05300
O 	O 	0.20647 0.92499 0.89753 -0.09400
Ni	Ni	0.38566 0.80938 0.90613 1.11700
Ni	Ni	0.21387 0.59797 0.90397 1.12200
O 	O 	0.34039 0.67904 0.90568 -0.71900
H 	H 	0.84163 0.98694 0.90841 0.06000
C 	C 	0.27975 0.46300 0.91447 0.28700
O 	O 	0.21127 0.47697 0.91102 -0.37400
O 	O 	0.36464 0.53209 0.91404 -0.37600
O 	O 	0.52392 0.72309 0.90940 -0.35400
C 	C 	0.69975 0.90307 0.91291 -0.00200
C 	C 	0.78849 0.96113 0.91843 0.00000
C 	C 	0.18354 0.28943 0.91111 -0.00800
C 	C 	0.15268 0.19911 0.91792 -0.00200
H 	H 	0.09018 0.14144 0.91292 0.05400
C 	C 	0.53899 0.79519 0.92020 0.28500
O 	O 	0.28740 0.79056 0.92515 -0.35300
O 	O 	0.47463 0.81185 0.92507 -0.37600
H 	H 	0.34874 0.66750 0.91846 0.16000
C 	C 	0.63127 0.86173 0.92589 -0.05500
C 	C 	0.25935 0.36668 0.91877 -0.05500
O 	O 	0.20590 0.63030 0.93025 -0.36900
C 	C 	0.80955 0.97603 0.93697 -0.05600
C 	C 	0.31007 0.35115 0.93169 -0.01100
C 	C 	0.19708 0.18534 0.93249 -0.06800
C 	C 	0.24641 0.71803 0.93643 0.27800
C 	C 	0.14662 0.10510 0.94478 0.30400
C 	C 	0.89488 0.98680 0.94300 0.28300
O 	O 	0.09125 0.02121 0.93825 -0.36000
O 	O 	0.90602 0.91334 0.94152 -0.35200
C 	C 	0.65080 0.88754 0.94418 -0.00600
C 	C 	0.27959 0.26062 0.93836 -0.00200
H 	H 	0.37018 0.40958 0.93732 0.05100
Ni	Ni	0.00725 0.90662 0.95494 1.10800
O 	O 	0.96160 0.07048 0.94837 -0.36300
C 	C 	0.73970 0.94540 0.94967 -0.01100
H 	H 	0.59783 0.85943 0.95424 0.04400
H 	H 	0.31606 0.25043 0.94923 0.04400
C 	C 	0.22514 0.73578 0.95489 -0.05400
H 	H 	0.35137 0.86395 0.95889 0.04400
H 	H 	0.09568 0.60902 0.95664 0.04600
Ni	Ni	0.02588 0.09508 0.97311 1.11100
O 	O 	0.92043 0.77248 0.96647 -0.34900
O 	O 	0.14259 0.12220 0.96186 -0.39600
O 	O 	0.11904 0.91782 0.96739 -0.37300
O 	O 	0.98707 0.96599 0.97476 -0.70100
H 	H 	0.92206 0.94040 0.97377 0.15900
H 	H 	0.88426 0.59815 0.97736 0.05000
H 	H 	0.75489 0.95790 0.96401 0.04000
C 	C 	0.28268 0.82153 0.96344 -0.00900
C 	C 	0.13922 0.67825 0.96217 -0.01100
C 	C 	0.10573 0.71471 0.97516 -0.00700
C 	C 	0.86165 0.75184 0.98012 0.28300
C 	C 	0.11033 0.86392 0.98109 0.30200
O 	O 	0.91494 0.07048 0.98622 -0.38300
C 	C 	0.83129 0.59134 0.98618 -0.00700
C 	C 	0.79835 0.65317 0.98450 -0.05500
H 	H 	0.30756 0.19212 0.98559 0.04500
C 	C 	0.15616 0.80959 0.98000 -0.06600
C 	C 	0.24828 0.85791 0.97622 -0.00100
H 	H 	0.03695 0.67329 0.97954 0.03900
H 	H 	0.29013 0.92900 0.98108 0.04600
Ni	Ni	0.99266 0.92505 0.99860 1.13200
O 	O 	0.87245 0.81454 0.99261 -0.37400
O 	O 	0.09637 0.14414 0.99644 -0.38800
O 	O 	0.04447 0.84010 0.99274 -0.37700
C 	C 	0.71973 0.63234 0.99396 -0.00700
H 	H 	0.68813 0.67391 0.99165 0.04600
H 	H 	0.74546 0.03817 0.99228 0.04100
