data_crystal

_cell_length_a 19.28564
_cell_length_b 16.92453
_cell_length_c 48.43536
_cell_angle_alpha 89.63626
_cell_angle_beta  89.64182
_cell_angle_gamma 119.48733

_symmetry_space_group_name_	'P 1'
_symmetry_space_group_name_H-M	'P 1'

loop_
_symmetry_equiv_pos_as_xyz
  x,y,z

loop_
_atom_site_label
_atom_site_type_symbol
_atom_site_fract_x
_atom_site_fract_y
_atom_site_fract_z
_atom_site_charge
F 	F 	0.04245 0.55744 0.09627 -0.38300
C 	C 	0.04017 0.64572 0.00577 0.03400
O 	O 	0.00755 0.10818 0.23291 -0.69600
H 	H 	0.99494 0.11219 0.25241 0.17100
C 	C 	0.99671 0.09562 0.08517 0.75700
F 	F 	0.12821 0.92243 0.10496 -0.40000
C 	C 	0.00617 0.52939 0.50698 0.04000
C 	C 	0.05268 0.68265 0.03329 0.16400
O 	O 	0.07117 0.01410 0.20203 -0.33600
C 	C 	0.04607 0.61498 0.11704 0.79800
H 	H 	0.08596 0.77456 0.14195 0.13100
F 	F 	0.01313 0.99324 0.35913 -0.38700
F 	F 	0.04052 0.33381 0.58393 -0.36900
N 	N 	0.06241 0.71305 0.05518 -0.02000
Ni	Ni	0.03478 0.90447 0.74682 1.14400
H 	H 	0.03480 0.11751 0.13962 0.10400
F 	F 	0.01463 0.07973 0.32372 -0.41700
Ni	Ni	0.06515 0.08010 0.70982 1.14900
O 	O 	0.00110 0.23916 0.19181 -0.24600
C 	C 	0.02857 0.18226 0.10179 -0.06000
C 	C 	0.03474 0.01496 0.33164 0.81300
C 	C 	0.01373 0.35001 0.02079 0.15100
F 	F 	0.02191 0.56620 0.14156 -0.33600
C 	C 	0.04248 0.17963 0.13023 0.08400
C 	C 	0.03288 0.59895 0.45261 0.05000
C 	C 	0.04992 0.64114 0.42542 0.15400
F 	F 	0.05671 0.03022 0.63248 -0.38400
F 	F 	0.13590 0.39681 0.81426 -0.34300
O 	O 	0.08309 0.02496 0.26290 -0.26900
C 	C 	0.08594 0.67288 0.95816 0.01400
C 	C 	0.04695 0.26644 0.08918 0.07500
C 	C 	0.04415 0.27621 0.05856 0.14300
C 	C 	0.10370 0.68174 0.98654 -0.02600
F 	F 	0.05949 0.09087 0.07296 -0.37300
C 	C 	0.00949 0.26745 0.25662 0.31400
F 	F 	0.04143 0.41335 0.16742 -0.34300
C 	C 	0.06225 0.25517 0.14691 0.03300
C 	C 	0.06088 0.24453 0.17733 0.31800
C 	C 	0.01602 0.28455 0.28686 0.03800
C 	C 	0.01717 0.31926 0.39348 -0.07800
H 	H 	0.03922 0.37762 0.43444 0.09600
C 	C 	0.06910 0.53309 0.49103 0.01500
O 	O 	0.07353 0.98777 0.68580 -0.30000
C 	C 	0.07301 0.34400 0.10566 0.04800
C 	C 	0.08014 0.33898 0.13453 -0.05400
H 	H 	0.08770 0.40823 0.09591 0.11600
C 	C 	0.02970 0.27315 0.34459 0.14300
C 	C 	0.08875 0.37486 0.00925 -0.00400
C 	C 	0.05263 0.33892 0.41976 0.06300
N 	N 	0.06356 0.67484 0.40373 -0.02300
C 	C 	0.13815 0.77041 0.13570 0.04300
C 	C 	0.12912 0.69525 0.12059 -0.04600
C 	C 	0.08405 0.57021 0.46402 -0.04200
O 	O 	0.13037 0.01198 0.76648 -0.28300
O 	O 	0.07530 0.29303 0.24142 -0.30000
C 	C 	0.03556 0.26641 0.37519 0.08600
O 	O 	0.16984 0.10828 0.72795 -0.31100
O 	O 	0.12092 0.92608 0.71700 -0.28200
C 	C 	0.11611 0.09893 0.27877 0.31400
O 	O 	0.11483 0.23042 0.18924 -0.32200
C 	C 	0.10578 0.42259 0.15209 0.78600
C 	C 	0.10380 0.27576 0.04178 0.00500
C 	C 	0.14459 0.73448 0.93834 0.18100
Ni	Ni	0.99662 0.99036 0.23370 1.12300
F 	F 	0.16733 0.19682 0.79737 -0.38400
C 	C 	0.14794 0.06917 0.20386 0.30400
Ni	Ni	0.11506 0.20487 0.23045 1.13500
C 	C 	0.11986 0.31717 0.01546 -0.06700
F 	F 	0.13444 0.50041 0.13612 -0.40000
F 	F 	0.09747 0.20337 0.98335 -0.35600
C 	C 	0.20393 0.98759 0.11258 0.78400
H 	H 	0.18062 0.09340 0.14952 0.09400
C 	C 	0.09126 0.32383 0.29901 0.09500
C 	C 	0.12297 0.05029 0.32726 -0.07800
F 	F 	0.11655 0.70960 0.34192 -0.37600
C 	C 	0.11681 0.49595 0.50217 0.11800
F 	F 	0.11622 0.78722 0.68505 -0.34700
C 	C 	0.18124 0.08948 0.75367 0.31000
C 	C 	0.12211 0.95703 0.69202 0.33300
C 	C 	0.14581 0.47297 0.00874 0.28900
O 	O 	0.12760 0.17898 0.26994 -0.33700
F 	F 	0.21755 0.07129 0.10294 -0.38000
C 	C 	0.07522 0.22204 0.38591 0.06500
C 	C 	0.09879 0.32501 0.32787 -0.10900
H 	H 	0.13386 0.98209 0.36343 0.13100
F 	F 	0.20108 0.73784 0.30637 -0.33800
C 	C 	0.18563 0.70521 0.99533 0.29300
O 	O 	0.15822 0.51396 0.03234 -0.35400
H 	H 	0.13870 0.24613 0.04935 0.13400
C 	C 	0.21078 0.98730 0.14378 -0.11100
C 	C 	0.19957 0.04977 0.15951 0.09900
H 	H 	0.08273 0.17416 0.37325 0.13900
O 	O 	0.22001 0.76209 0.01586 -0.32100
O 	O 	0.19849 0.68171 0.06452 -0.35200
O 	O 	0.17648 0.14062 0.21999 -0.30300
C 	C 	0.15549 0.28621 0.99309 0.78700
F 	F 	0.16582 0.43336 0.16978 -0.39700
C 	C 	0.21416 0.84007 0.14296 0.10000
C 	C 	0.19783 0.68961 0.11345 0.01400
C 	C 	0.22142 0.92008 0.15769 0.10200
C 	C 	0.20197 0.04758 0.18841 0.02900
C 	C 	0.11788 0.32599 0.42434 0.02800
C 	C 	0.16490 0.02577 0.34591 0.06000
C 	C 	0.16175 0.09799 0.30285 0.03100
N 	N 	0.15475 0.46624 0.51111 -0.05900
N 	N 	0.19139 0.78371 0.92251 -0.04200
F 	F 	0.21034 0.28115 0.75828 -0.39800
H 	H 	0.08057 0.26594 0.78103 0.15800
C 	C 	0.15719 0.58619 0.44879 0.30200
O 	O 	0.15069 0.54284 0.42557 -0.32600
C 	C 	0.20064 0.64532 0.08774 0.35000
C 	C 	0.11662 0.25153 0.41099 -0.06000
H 	H 	0.14412 0.35462 0.28600 0.11000
C 	C 	0.19424 0.73431 0.33488 0.78600
H 	H 	0.21698 0.89381 0.31514 0.14400
C 	C 	0.23475 0.92669 0.18619 0.05000
F 	F 	0.18691 0.96029 0.24767 -0.42700
F 	F 	0.21301 0.84614 0.71707 -0.37800
C 	C 	0.23364 0.26103 0.78306 0.77200
O 	O 	0.05249 0.17234 0.73222 -0.26300
F 	F 	0.18419 0.34758 0.97130 -0.40800
O 	O 	0.20064 0.50917 0.98870 -0.29800
C 	C 	0.23168 0.99536 0.20126 -0.08100
H 	H 	0.24537 0.87696 0.19670 0.14600
F 	F 	0.25925 0.96960 0.10003 -0.40300
F 	F 	0.16474 0.45180 0.35629 -0.44200
C 	C 	0.19756 0.83628 0.68909 0.77500
F 	F 	0.12812 0.12017 0.41851 -0.36600
O 	O 	0.22796 0.58872 0.08802 -0.31600
O 	O 	0.22944 0.68966 0.97791 -0.35500
C 	C 	0.17714 0.39206 0.34057 0.80200
C 	C 	0.24596 0.90172 0.33486 0.03700
F 	F 	0.20929 0.66717 0.34409 -0.38300
C 	C 	0.18982 0.97667 0.67314 0.00700
C 	C 	0.26267 0.14022 0.76404 0.01900
F 	F 	0.26901 0.33921 0.79866 -0.36000
C 	C 	0.19536 0.40940 0.42683 0.30000
F 	F 	0.21737 0.27620 0.00349 -0.42300
C 	C 	0.16876 0.21375 0.42063 0.78500
C 	C 	0.24290 0.04487 0.33971 0.11000
C 	C 	0.24937 0.82788 0.34655 -0.03300
H 	H 	0.18801 0.09137 0.65414 0.12500
F 	F 	0.23056 0.78681 0.67806 -0.36000
O 	O 	0.22593 0.62980 0.46109 -0.35000
C 	C 	0.27036 0.74919 0.12574 0.08800
C 	C 	0.25433 0.00794 0.23140 0.81100
F 	F 	0.19025 0.23584 0.44791 -0.39200
C 	C 	0.24406 0.13336 0.29981 0.08800
C 	C 	0.23312 0.92904 0.67535 -0.04000
C 	C 	0.28979 0.22428 0.77742 -0.04900
C 	C 	0.21825 0.05194 0.65518 0.11900
Ni	Ni	0.24066 0.57842 0.39699 1.16000
O 	O 	0.21832 0.44953 0.45145 -0.30600
O 	O 	0.22782 0.45429 0.40372 -0.28700
O 	O 	0.24688 0.69985 0.39589 -0.32300
C 	C 	0.28160 0.82984 0.13775 -0.10500
F 	F 	0.20670 0.34800 0.35664 -0.42600
C 	C 	0.26828 0.98069 0.34999 0.09700
N 	N 	0.30373 0.80425 0.52435 -0.05700
H 	H 	0.29687 0.05065 0.74438 0.11800
C 	C 	0.05831 0.35412 0.82424 0.78400
F 	F 	0.05147 0.29469 0.84513 -0.34900
Ni	Ni	0.26305 0.54963 0.05197 1.12300
F 	F 	0.23431 0.44148 0.32067 -0.39500
F 	F 	0.24315 0.04751 0.40693 -0.38300
C 	C 	0.31741 0.11295 0.75587 0.08800
Ni	Ni	0.29848 0.75417 0.04205 1.13200
C 	C 	0.28527 0.10576 0.31774 -0.08300
H 	H 	0.27447 0.17570 0.28200 0.13500
F 	F 	0.27848 0.61238 0.30733 -0.33100
Ni	Ni	0.29865 0.63933 0.98940 1.13300
O 	O 	0.30337 0.65314 0.02826 -0.72600
F 	F 	0.29116 0.09893 0.23802 -0.39000
C 	C 	0.29169 0.84084 0.37158 0.00400
F 	F 	0.03606 0.19947 0.58716 -0.36900
F 	F 	0.23680 0.24866 0.40437 -0.37500
O 	O 	0.29140 0.47494 0.02392 -0.33500
F 	F 	0.30697 0.97667 0.23709 -0.35400
C 	C 	0.30384 0.99092 0.37620 -0.10700
C 	C 	0.30560 0.76967 0.38343 0.33300
H 	H 	0.31974 0.73664 0.12374 0.09200
C 	C 	0.31073 0.96883 0.66423 0.01900
F 	F 	0.52519 0.95661 0.59538 -0.36700
O 	O 	0.30673 0.60030 0.36130 -0.21900
C 	C 	0.31899 0.92238 0.38600 0.08600
C 	C 	0.31565 0.06754 0.39527 0.79800
F 	F 	0.36864 0.06129 0.29444 -0.35000
C 	C 	0.37015 0.27458 0.78499 0.03300
Ni	Ni	0.30879 0.58597 0.45889 1.12400
C 	C 	0.35868 0.85275 0.51106 0.15700
N 	N 	0.38383 0.07375 0.52454 -0.03900
C 	C 	0.28821 0.07988 0.63967 -0.10200
H 	H 	0.34843 0.93965 0.66881 0.14000
H 	H 	0.40148 0.96883 0.61341 0.10600
N 	N 	0.33526 0.50817 0.93078 -0.04400
C 	C 	0.37004 0.12924 0.31053 0.79300
C 	C 	0.36503 0.90265 0.14565 0.79300
O 	O 	0.32835 0.61348 0.42072 -0.72000
F 	F 	0.37575 0.98897 0.14162 -0.37900
H 	H 	0.38996 0.33431 0.79761 0.14400
C 	C 	0.35067 0.50863 0.00564 0.33400
O 	O 	0.38996 0.84858 0.01963 -0.34500
O 	O 	0.37171 0.75354 0.07373 -0.32400
H 	H 	0.36096 0.67622 0.02849 0.19200
C 	C 	0.35399 0.68579 0.30388 0.79100
F 	F 	0.35940 0.71848 0.27721 -0.35100
F 	F 	0.36521 0.75358 0.32203 -0.39600
F 	F 	0.34638 0.14927 0.38110 -0.37000
C 	C 	0.33940 0.04526 0.64684 0.12800
C 	C 	0.39850 0.16643 0.76179 -0.09600
F 	F 	0.04377 0.42028 0.83492 -0.36400
C 	C 	0.36257 0.48073 0.94684 0.17900
H 	H 	0.34633 0.57049 0.41533 0.17600
F 	F 	0.37797 0.89150 0.17308 -0.36400
H 	H 	0.34839 0.93028 0.40562 0.08100
O 	O 	0.37149 0.58581 0.99261 -0.31600
O 	O 	0.37224 0.61520 0.07034 -0.30300
F 	F 	0.35339 0.14099 0.59606 -0.39900
F 	F 	0.24123 0.14369 0.60560 -0.35400
O 	O 	0.37638 0.77614 0.38115 -0.31900
F 	F 	0.40865 0.21042 0.29592 -0.34700
F 	F 	0.36790 0.07849 0.41629 -0.41200
C 	C 	0.38315 0.45023 0.99554 -0.00000
C 	C 	0.42319 0.24255 0.77912 0.11400
C 	C 	0.38124 0.61467 0.35885 0.28800
C 	C 	0.41700 0.04501 0.51166 0.16600
C 	C 	0.30964 0.15100 0.61713 0.79500
C 	C 	0.44171 0.04054 0.61662 0.07200
C 	C 	0.39682 0.44628 0.96696 0.04700
F 	F 	0.43260 0.09055 0.72741 -0.35900
O 	O 	0.39758 0.76476 0.98286 -0.31400
F 	F 	0.41364 0.13837 0.33401 -0.36100
C 	C 	0.53587 0.03385 0.58167 0.80100
N 	N 	0.37773 0.40446 0.06717 -0.05400
H 	H 	0.43116 0.13613 0.81771 0.12900
C 	C 	0.38823 0.40200 0.04371 0.16900
C 	C 	0.40947 0.70387 0.07511 0.28300
C 	C 	0.40142 0.39892 0.01432 0.04800
O 	O 	0.39274 0.78958 0.43740 -0.37600
F 	F 	0.42196 0.89672 0.12969 -0.40400
O 	O 	0.39232 0.71178 0.47559 -0.32000
C 	C 	0.43218 0.83401 0.00070 0.30500
C 	C 	0.42247 0.08764 0.63622 0.09000
C 	C 	0.41045 0.60212 0.33182 0.04600
C 	C 	0.41606 0.65754 0.30889 -0.06000
C 	C 	0.44081 0.40501 0.95786 0.03200
C 	C 	0.42746 0.91341 0.49440 0.02300
C 	C 	0.43444 0.34614 0.00449 0.03100
C 	C 	0.43910 0.28051 0.02266 0.15700
N 	N 	0.44279 0.22812 0.03717 -0.04400
C 	C 	0.45664 0.13599 0.75219 0.79600
C 	C 	0.41021 0.78906 0.46319 0.30200
Ni	Ni	0.41958 0.72233 0.40922 1.12800
O 	O 	0.40168 0.55723 0.45807 -0.31700
F 	F 	0.49003 0.00805 0.55825 -0.42000
C 	C 	0.51042 0.08690 0.60011 -0.06200
C 	C 	0.46904 0.41793 0.92948 0.15900
F 	F 	0.45994 0.07774 0.77160 -0.38000
O 	O 	0.43446 0.65385 0.37855 -0.35200
H 	H 	0.44494 0.76504 0.12627 0.12300
C 	C 	0.46037 0.35502 0.97670 -0.02100
N 	N 	0.49145 0.42871 0.90682 -0.04300
H 	H 	0.45008 0.51270 0.34795 0.10700
C 	C 	0.45833 0.00874 0.49556 0.05600
C 	C 	0.45886 0.56169 0.33193 0.07900
C 	C 	0.48245 0.20381 0.81803 0.04800
C 	C 	0.49031 0.26754 0.79805 0.09100
C 	C 	0.46194 0.87710 0.47623 -0.02900
F 	F 	0.35271 0.23626 0.62839 -0.34200
F 	F 	0.53834 0.23217 0.68578 -0.34400
F 	F 	0.47264 0.44370 0.57121 -0.38800
F 	F 	0.45137 0.43876 0.61685 -0.33600
O 	O 	0.50371 0.27661 0.94477 -0.30600
C 	C 	0.48391 0.69237 0.29175 0.03700
C 	C 	0.48792 0.74232 0.08791 0.01800
N 	N 	0.50057 0.80404 0.93069 -0.03900
C 	C 	0.47953 0.17889 0.64235 -0.07300
C 	C 	0.51610 0.32228 0.96829 0.27700
C 	C 	0.46863 0.60906 0.44410 0.27900
C 	C 	0.49362 0.76280 0.11598 0.08500
H 	H 	0.49461 0.74460 0.27657 0.14700
C 	C 	0.51442 0.91233 0.99436 0.00900
H 	H 	0.02135 0.02894 0.75351 0.20200
F 	F 	0.50185 0.61926 0.04111 -0.43000
F 	F 	0.52728 0.46892 0.78171 -0.38800
F 	F 	0.48830 0.76374 0.17321 -0.35000
N 	N 	0.53274 0.93449 0.06714 -0.05400
F 	F 	0.53213 0.20953 0.74831 -0.34000
O 	O 	0.48726 0.69272 0.43577 -0.34000
F 	F 	0.51290 0.75382 0.02918 -0.46200
C 	C 	0.51980 0.86096 0.94686 0.18100
F 	F 	0.55017 0.38522 0.75078 -0.35100
F 	F 	0.48519 0.34165 0.59776 -0.38800
C 	C 	0.55466 0.18247 0.60129 0.03900
C 	C 	0.49745 0.42909 0.59656 0.79000
C 	C 	0.54280 0.95315 0.04390 0.16100
N 	N 	0.38802 0.42488 0.39571 -0.03400
C 	C 	0.44266 0.45756 0.41005 0.13800
C 	C 	0.54393 0.93258 0.96699 -0.00100
F 	F 	0.51974 0.14640 0.88113 -0.47400
F 	F 	0.40645 0.17694 0.68364 -0.38900
C 	C 	0.47731 0.22406 0.66910 0.79800
F 	F 	0.49715 0.06816 0.84210 -0.37500
O 	O 	0.53924 0.21397 0.49179 -0.33100
C 	C 	0.52547 0.06741 0.47910 -0.01600
C 	C 	0.02521 0.26713 0.77958 0.10300
C 	C 	0.55604 0.35704 0.79899 -0.08600
C 	C 	0.51072 0.49815 0.42819 0.02500
C 	C 	0.55607 0.97822 0.01492 0.00100
F 	F 	0.53445 0.68682 0.22906 -0.35800
C 	C 	0.53306 0.93713 0.46224 0.01700
C 	C 	0.53905 0.22685 0.83860 -0.07300
C 	C 	0.52914 0.57902 0.44229 -0.03300
C 	C 	0.52704 0.59625 0.31486 -0.09800
N 	N 	0.51953 0.30240 0.40839 -0.01300
C 	C 	0.54656 0.71215 0.04419 0.78900
C 	C 	0.00596 0.51781 0.53666 0.13800
N 	N 	0.00612 0.50883 0.56036 -0.03100
C 	C 	0.53505 0.36927 0.41956 0.16400
C 	C 	0.54454 0.15189 0.85403 0.78900
C 	C 	0.54489 0.22603 0.62432 0.10900
O 	O 	0.55447 0.21443 0.55288 -0.30700
C 	C 	0.55045 0.73526 0.07457 -0.07500
F 	F 	0.48917 0.31006 0.66338 -0.36200
F 	F 	0.02861 0.07142 0.82138 -0.37200
C 	C 	0.57107 0.42607 0.77632 0.78700
O 	O 	0.56799 0.31768 0.89150 -0.32300
C 	C 	0.54281 0.66840 0.29630 0.10400
C 	C 	0.55450 0.45296 0.43357 0.02800
F 	F 	0.55983 0.61253 0.67132 -0.36700
C 	C 	0.55567 0.02913 0.46004 0.05300
C 	C 	0.01007 0.60691 0.94922 0.07900
C 	C 	0.55883 0.77372 0.13138 -0.09600
F 	F 	0.55404 0.58021 0.24983 -0.35500
F 	F 	0.00699 0.81962 0.94249 -0.39900
C 	C 	0.56373 0.79947 0.16160 0.79300
O 	O 	0.57566 0.18074 0.95588 -0.34900
O 	O 	0.57290 0.33218 0.98561 -0.33000
Ni	Ni	0.57418 0.30644 0.52315 1.13900
C 	C 	0.57445 0.16565 0.48553 0.31000
F 	F 	0.55037 0.47603 0.32894 -0.37000
H 	H 	0.57797 0.48997 0.64529 0.16500
O 	O 	0.58035 0.39148 0.55328 -0.29500
F 	F 	0.58148 0.63578 0.92939 -0.41600
C 	C 	0.59324 0.31998 0.84330 0.01400
F 	F 	0.99114 0.40769 0.36103 -0.38100
C 	C 	0.99193 0.30324 0.04645 -0.16700
C 	C 	0.99131 0.24251 0.58982 0.75800
F 	F 	0.96521 0.23480 0.61688 -0.37800
F 	F 	0.61530 0.08476 0.57410 -0.37600
C 	C 	0.95474 0.23089 0.33211 0.03800
C 	C 	0.96281 0.35617 0.38496 0.76800
F 	F 	0.99259 0.93786 0.31603 -0.40500
F 	F 	0.95364 0.66799 0.69132 -0.35100
F 	F 	0.98917 0.91993 0.60204 -0.36700
C 	C 	0.94745 0.24923 0.30427 -0.04400
F 	F 	0.95797 0.41089 0.40515 -0.42700
F 	F 	0.99954 0.91979 0.91403 -0.39700
H 	H 	0.98084 0.38208 0.01309 0.06300
H 	H 	0.90182 0.18921 0.34443 0.16400
O 	O 	0.93900 0.21224 0.24612 -0.25600
F 	F 	0.88690 0.28501 0.38062 -0.39200
C 	C 	0.72136 0.57742 0.94946 0.28500
C 	C 	0.63369 0.18350 0.96978 0.31500
C 	C 	0.86427 0.50416 0.95850 0.32000
C 	C 	0.74418 0.29486 0.89610 0.30800
C 	C 	0.61989 0.35169 0.87165 0.29200
Ni	Ni	0.69336 0.38879 0.97479 1.12100
Ni	Ni	0.58955 0.26241 0.92395 1.14900
Ni	Ni	0.74965 0.46134 0.91219 1.14700
O 	O 	0.71749 0.52757 0.97218 -0.30200
O 	O 	0.70802 0.54349 0.92418 -0.28600
O 	O 	0.66904 0.23474 0.90343 -0.27900
O 	O 	0.68568 0.26028 0.98165 -0.30400
O 	O 	0.68845 0.42607 0.87581 -0.30300
O 	O 	0.81439 0.43090 0.97198 -0.33000
O 	O 	0.83853 0.53621 0.93903 -0.34600
O 	O 	0.78575 0.37047 0.90954 -0.34100
O 	O 	0.66821 0.37743 0.93731 -0.71500
H 	H 	0.63221 0.40262 0.93714 0.16600
C 	C 	0.80693 0.27501 0.52932 0.29200
C 	C 	0.62190 0.42055 0.47216 0.30100
C 	C 	0.86579 0.50603 0.50651 0.31300
C 	C 	0.64280 0.47189 0.55734 0.29800
C 	C 	0.59486 0.23695 0.57635 0.32400
Ni	Ni	0.72874 0.34180 0.48621 1.12800
Ni	Ni	0.74558 0.39366 0.55115 1.13400
O 	O 	0.81371 0.31300 0.50437 -0.31500
O 	O 	0.78545 0.30360 0.55163 -0.30600
O 	O 	0.65312 0.37166 0.46275 -0.32600
O 	O 	0.59291 0.40895 0.49731 -0.34300
O 	O 	0.65851 0.31896 0.57974 -0.33000
O 	O 	0.80538 0.47855 0.49001 -0.35900
O 	O 	0.85324 0.48144 0.53276 -0.34200
O 	O 	0.65130 0.20630 0.47923 -0.30000
O 	O 	0.71338 0.48898 0.54849 -0.36000
O 	O 	0.68100 0.32867 0.52080 -0.72500
H 	H 	0.67048 0.26703 0.52546 0.18800
C 	C 	0.87263 0.77552 0.72541 0.32400
C 	C 	0.92608 0.90912 0.79383 0.29600
C 	C 	0.91802 0.99782 0.67741 0.31700
C 	C 	0.98164 0.15637 0.74157 0.28000
Ni	Ni	0.89432 0.95429 0.73723 1.12800
O 	O 	0.87594 0.93452 0.69606 -0.33100
O 	O 	0.94864 0.80093 0.72255 -0.26800
O 	O 	0.85163 0.81970 0.74235 -0.34400
O 	O 	0.91486 0.08327 0.73406 -0.29400
O 	O 	0.95794 0.86357 0.78158 -0.30600
O 	O 	0.90089 0.95719 0.77920 -0.30300
O 	O 	0.98013 0.07414 0.68478 -0.30200
O 	O 	0.00458 0.99077 0.73693 -0.72700
C 	C 	0.84122 0.95686 0.25551 0.28900
C 	C 	0.89571 0.96316 0.18457 0.29800
Ni	Ni	0.92890 0.12385 0.21521 1.15300
O 	O 	0.83629 0.00746 0.23505 -0.24500
O 	O 	0.90912 0.95926 0.26185 -0.28900
O 	O 	0.93515 0.05052 0.18272 -0.31800
O 	O 	0.90563 0.92314 0.20633 -0.34200
C 	C 	0.91803 0.29029 0.06157 0.80600
F 	F 	0.94501 0.09220 0.06495 -0.37600
F 	F 	0.95517 0.01996 0.10205 -0.39500
F 	F 	0.86121 0.28333 0.04294 -0.40800
F 	F 	0.93751 0.36390 0.07835 -0.38800
F 	F 	0.88484 0.21189 0.07755 -0.37200
C 	C 	0.74323 0.91012 0.12891 0.05400
C 	C 	0.70242 0.81578 0.12951 0.08800
C 	C 	0.73225 0.76868 0.14527 -0.07700
C 	C 	0.79633 0.81833 0.16314 0.08800
C 	C 	0.82714 0.91237 0.16622 0.01400
C 	C 	0.79449 0.95732 0.15029 -0.06000
C 	C 	0.62217 0.76916 0.11783 0.10600
C 	C 	0.69629 0.66658 0.14290 0.79200
H 	H 	0.82167 0.78413 0.17485 0.11500
C 	C 	0.80442 0.04940 0.15806 0.80000
H 	H 	0.72489 0.94557 0.11453 0.12400
C 	C 	0.61491 0.74441 0.09012 0.03600
H 	H 	0.66275 0.73879 0.08015 0.13900
F 	F 	0.74368 0.06112 0.14728 -0.34500
F 	F 	0.87552 0.11805 0.14755 -0.41500
F 	F 	0.80170 0.05723 0.18635 -0.45300
F 	F 	0.70001 0.64437 0.11571 -0.39600
F 	F 	0.61753 0.62356 0.15155 -0.35200
F 	F 	0.73646 0.63416 0.15882 -0.36100
F 	F 	0.62193 0.74117 0.03329 -0.39000
F 	F 	0.60173 0.89287 0.16371 -0.36700
F 	F 	0.60472 0.76679 0.17679 -0.36900
F 	F 	0.99312 0.64529 0.11077 -0.39700
C 	C 	0.67704 0.79781 0.30489 0.04200
C 	C 	0.62484 0.73174 0.28659 0.09800
C 	C 	0.64596 0.73728 0.25832 -0.08700
C 	C 	0.71557 0.81378 0.24858 0.08300
C 	C 	0.76658 0.88162 0.26674 0.03100
C 	C 	0.74661 0.87447 0.29526 -0.05000
C 	C 	0.59158 0.66602 0.23797 0.79200
H 	H 	0.73044 0.82063 0.22674 0.11200
C 	C 	0.80026 0.94407 0.31617 0.77600
H 	H 	0.66136 0.79156 0.32664 0.12000
C 	C 	0.58764 0.56513 0.31957 0.79000
F 	F 	0.85003 0.02830 0.30455 -0.38600
F 	F 	0.84578 0.91245 0.32893 -0.36000
F 	F 	0.75442 0.95576 0.33610 -0.39500
F 	F 	0.63456 0.66347 0.21533 -0.34900
F 	F 	0.64155 0.61946 0.33918 -0.40900
F 	F 	0.62843 0.56970 0.29549 -0.35500
C 	C 	0.87026 0.24315 0.29462 0.78600
F 	F 	0.82133 0.15875 0.28350 -0.36100
F 	F 	0.88513 0.30978 0.27505 -0.35700
F 	F 	0.83029 0.25560 0.31653 -0.34300
C 	C 	0.57861 0.90299 0.44771 0.13400
C 	C 	0.60355 0.08220 0.43662 0.15500
N 	N 	0.64171 0.12449 0.41791 -0.03400
N 	N 	0.61583 0.87719 0.43592 -0.06700
C 	C 	0.94845 0.54607 0.49435 -0.06300
C 	C 	0.96556 0.58776 0.46780 0.00000
C 	C 	0.91713 0.62410 0.45682 0.14100
N 	N 	0.87875 0.65325 0.44789 -0.06200
C 	C 	0.61356 0.48608 0.45399 -0.03600
C 	C 	0.59797 0.62035 0.45877 0.02300
C 	C 	0.64194 0.57520 0.46368 0.02100
C 	C 	0.61864 0.70403 0.47304 0.13700
C 	C 	0.71059 0.61553 0.48159 0.12900
N 	N 	0.76510 0.64769 0.49600 -0.06900
N 	N 	0.63521 0.77053 0.48461 -0.04400
C 	C 	0.80163 0.06724 0.55361 0.06700
C 	C 	0.86086 0.10728 0.57372 0.09100
C 	C 	0.92053 0.19967 0.57054 -0.09200
C 	C 	0.91219 0.25242 0.54959 0.07500
C 	C 	0.84247 0.21657 0.53401 0.02100
C 	C 	0.79366 0.12136 0.53304 -0.06400
C 	C 	0.85754 0.05391 0.59872 0.10300
H 	H 	0.95471 0.32409 0.54775 0.08400
C 	C 	0.72921 0.07818 0.51162 0.78700
H 	H 	0.75961 0.99512 0.55481 0.12600
C 	C 	0.81046 0.04825 0.62206 -0.08100
C 	C 	0.82412 0.01767 0.64751 0.11600
C 	C 	0.88404 0.99409 0.64988 0.02700
C 	C 	0.92227 0.98703 0.62563 -0.04000
C 	C 	0.90801 0.01665 0.60021 0.07000
C 	C 	0.74240 0.06840 0.61941 0.79400
H 	H 	0.79188 0.01784 0.66589 0.13400
C 	C 	0.98360 0.95616 0.62695 0.76700
H 	H 	0.94050 0.01658 0.58187 0.13700
F 	F 	0.66167 0.07940 0.52062 -0.41000
F 	F 	0.71021 0.98912 0.50705 -0.42000
F 	F 	0.75466 0.12509 0.48679 -0.43200
F 	F 	0.96388 0.89013 0.64715 -0.39000
F 	F 	0.70623 0.06340 0.64464 -0.36000
F 	F 	0.68588 0.00520 0.60214 -0.36100
F 	F 	0.76952 0.15464 0.60859 -0.38800
H 	H 	0.58543 0.29774 0.62738 0.11000
C 	C 	0.61285 0.52706 0.62733 0.03100
C 	C 	0.68618 0.60642 0.63062 0.10700
C 	C 	0.72863 0.65774 0.60694 -0.11300
C 	C 	0.70385 0.61976 0.58071 0.08400
C 	C 	0.63827 0.53255 0.57819 0.00400
C 	C 	0.58471 0.49588 0.60077 -0.05900
C 	C 	0.72060 0.63198 0.65851 0.09600
C 	C 	0.80447 0.74764 0.60964 0.79800
H 	H 	0.74068 0.65309 0.56269 0.09800
C 	C 	0.70025 0.68405 0.67606 -0.08300
C 	C 	0.74753 0.72524 0.69919 0.09200
C 	C 	0.81331 0.71364 0.70524 0.02300
C 	C 	0.82292 0.64701 0.69085 -0.03700
C 	C 	0.77922 0.61052 0.66662 0.05300
C 	C 	0.62855 0.69600 0.67011 0.78900
H 	H 	0.73536 0.76952 0.71188 0.10000
C 	C 	0.87731 0.61268 0.70134 0.77900
H 	H 	0.79192 0.56698 0.65370 0.12200
F 	F 	0.86622 0.73212 0.61653 -0.39200
F 	F 	0.79550 0.79929 0.62979 -0.41200
F 	F 	0.82377 0.79685 0.58514 -0.41000
F 	F 	0.85164 0.52500 0.69251 -0.35200
F 	F 	0.87815 0.61139 0.72992 -0.36100
F 	F 	0.62081 0.75205 0.68911 -0.37500
F 	F 	0.63569 0.73401 0.64416 -0.37300
C 	C 	0.94722 0.56159 0.96860 -0.06900
C 	C 	0.96209 0.58346 0.99700 0.00800
C 	C 	0.99742 0.58347 0.92022 0.12300
C 	C 	0.89732 0.54437 0.01703 0.14000
N 	N 	0.84570 0.51321 0.03305 -0.04600
N 	N 	0.98726 0.56474 0.89709 -0.02800
C 	C 	0.62411 0.09398 0.97896 -0.03000
C 	C 	0.59877 0.02329 0.95928 0.05100
C 	C 	0.61034 0.06927 0.00714 0.04800
C 	C 	0.62224 0.04429 0.93058 0.16200
C 	C 	0.64831 0.13775 0.02810 0.15700
N 	N 	0.67844 0.19234 0.04489 -0.02000
N 	N 	0.63919 0.05812 0.90741 -0.01100
C 	C 	0.87202 0.23695 0.84986 0.03000
C 	C 	0.88313 0.29474 0.82732 0.12000
C 	C 	0.84709 0.34976 0.82788 -0.11400
C 	C 	0.78905 0.33261 0.84798 0.09300
C 	C 	0.78149 0.28009 0.87157 0.02100
C 	C 	0.82828 0.23628 0.87327 -0.04300
C 	C 	0.92107 0.28621 0.80171 0.07900
C 	C 	0.86897 0.42623 0.80706 0.79000
H 	H 	0.75500 0.36716 0.84649 0.08600
C 	C 	0.83386 0.18893 0.89930 0.77800
H 	H 	0.89876 0.19379 0.84947 0.16400
C 	C 	0.00058 0.30244 0.80136 -0.05300
C 	C 	0.97532 0.22716 0.75696 0.02700
C 	C 	0.90669 0.23618 0.75426 -0.05400
C 	C 	0.87536 0.25519 0.77773 0.05900
C 	C 	0.86508 0.22264 0.72685 0.78300
H 	H 	0.81514 0.24445 0.77750 0.14200
F 	F 	0.80038 0.20409 0.92254 -0.42200
F 	F 	0.91330 0.21925 0.90483 -0.37000
F 	F 	0.79701 0.09652 0.89476 -0.39700
F 	F 	0.81730 0.39474 0.78506 -0.36900
F 	F 	0.94636 0.46123 0.79740 -0.36700
F 	F 	0.86309 0.49660 0.81919 -0.37500
F 	F 	0.83747 0.28382 0.72407 -0.33700
F 	F 	0.80096 0.13556 0.72570 -0.38200
F 	F 	0.91646 0.23648 0.70495 -0.37400
C 	C 	0.60473 0.38374 0.82252 0.08000
H 	H 	0.64801 0.45464 0.82540 0.14300
F 	F 	0.62178 0.16786 0.85299 -0.42700
F 	F 	0.65100 0.49094 0.77504 -0.36500
C 	C 	0.75168 0.77863 0.91743 0.05300
C 	C 	0.82899 0.80317 0.90817 0.09300
C 	C 	0.87877 0.78631 0.92587 -0.09100
C 	C 	0.84332 0.72452 0.94817 0.07600
C 	C 	0.76002 0.67695 0.95109 0.03500
C 	C 	0.71828 0.71871 0.94015 -0.06400
C 	C 	0.85148 0.83012 0.87856 0.10000
C 	C 	0.96725 0.82827 0.91997 0.77400
H 	H 	0.87839 0.70262 0.96003 0.08900
C 	C 	0.63413 0.68917 0.94944 0.78400
H 	H 	0.71559 0.79954 0.90574 0.11700
C 	C 	0.83323 0.76373 0.85789 -0.09400
C 	C 	0.85583 0.79176 0.83028 0.07700
C 	C 	0.89778 0.88407 0.82293 0.02500
C 	C 	0.91524 0.95055 0.84348 -0.06800
C 	C 	0.88916 0.92239 0.87098 0.04200
C 	C 	0.78755 0.66298 0.86495 0.78600
H 	H 	0.84107 0.74156 0.81432 0.12600
C 	C 	0.96021 0.05093 0.83619 0.77700
H 	H 	0.89918 0.97227 0.88663 0.14200
F 	F 	0.62576 0.76482 0.95352 -0.40500
F 	F 	0.61563 0.64025 0.97399 -0.40300
F 	F 	0.97964 0.78592 0.89768 -0.40000
F 	F 	0.91240 0.07291 0.82048 -0.43000
F 	F 	0.98259 0.10412 0.85958 -0.36500
F 	F 	0.77806 0.61000 0.84210 -0.40100
F 	F 	0.71261 0.64000 0.87496 -0.42400
F 	F 	0.82805 0.64231 0.88455 -0.45200
