data_crystal

_cell_length_a 44.97764
_cell_length_b 44.69543
_cell_length_c 24.53459
_cell_angle_alpha 94.28489
_cell_angle_beta  93.82654
_cell_angle_gamma 90.05588

_symmetry_space_group_name_	'P 1'
_symmetry_space_group_name_H-M	'P 1'

loop_
_symmetry_equiv_pos_as_xyz
  x,y,z

loop_
_atom_site_label
_atom_site_type_symbol
_atom_site_fract_x
_atom_site_fract_y
_atom_site_fract_z
_atom_site_charge
C 	C 	0.06930 0.67185 0.87934 0.17300
N 	N 	0.07842 0.67033 0.82742 -0.14200
C 	C 	0.07160 0.64592 0.79252 0.13800
N 	N 	0.05779 0.62199 0.81079 -0.14300
C 	C 	0.04945 0.62293 0.86305 0.13600
N 	N 	0.05427 0.64828 0.89668 -0.11700
C 	C 	0.05555 0.64276 0.29933 0.18000
N 	N 	0.06371 0.64514 0.35386 -0.12100
C 	C 	0.06219 0.62081 0.38365 0.14100
N 	N 	0.05138 0.59442 0.35914 -0.14200
C 	C 	0.04295 0.59197 0.30477 0.13900
N 	N 	0.04547 0.61610 0.27484 -0.14000
Cd	Cd	0.86276 0.97431 0.88253 1.25600
C 	C 	0.80514 0.00644 0.82091 0.39100
O 	O 	0.79452 0.00823 0.77046 -0.23900
O 	O 	0.82073 0.98264 0.82953 -0.49800
O 	O 	0.81416 0.95483 0.34400 -0.38700
C 	C 	0.80166 0.97994 0.36030 0.37500
O 	O 	0.80257 0.98602 0.41324 -0.29200
Cd	Cd	0.87093 0.11472 0.21413 1.25100
Cd	Cd	0.88313 0.07904 0.33810 1.22000
O 	O 	0.84855 0.16474 0.22131 -0.27700
O 	O 	0.86611 0.14632 0.14472 -0.29900
C 	C 	0.85409 0.16907 0.17132 0.32600
O 	O 	0.89733 0.07347 0.19070 -0.32300
O 	O 	0.88364 0.04745 0.26239 -0.37900
C 	C 	0.90038 0.05010 0.22085 0.38000
C 	C 	0.92073 0.13304 0.28742 0.36800
O 	O 	0.84033 0.09680 0.29313 -0.40900
O 	O 	0.92301 0.14224 0.23865 -0.21100
O 	O 	0.89547 0.12033 0.29487 -0.48700
C 	C 	0.82302 0.08194 0.25578 0.39500
O 	O 	0.82756 0.08652 0.20509 -0.29800
Cd	Cd	0.88839 0.14566 0.97152 1.24900
Cd	Cd	0.88151 0.09531 0.85248 1.21500
O 	O 	0.85876 0.19193 0.97139 -0.27000
O 	O 	0.88744 0.18131 0.04291 -0.31000
C 	C 	0.87029 0.20088 0.01980 0.33600
O 	O 	0.91287 0.10492 0.99779 -0.34400
O 	O 	0.92059 0.08562 0.91076 -0.41100
C 	C 	0.91860 0.08187 0.96321 0.39300
C 	C 	0.83729 0.10817 0.95193 0.39900
O 	O 	0.89660 0.14531 0.86584 -0.38600
O 	O 	0.83909 0.11932 0.00290 -0.22900
O 	O 	0.85619 0.11854 0.92064 -0.51900
C 	C 	0.92337 0.15569 0.87940 0.36300
O 	O 	0.92978 0.16199 0.93165 -0.32100
C 	C 	0.91168 0.39066 0.88490 0.17600
N 	N 	0.92831 0.41485 0.90545 -0.12400
C 	C 	0.93546 0.43634 0.87210 0.13800
N 	N 	0.92724 0.43285 0.81776 -0.14300
C 	C 	0.91139 0.40834 0.79680 0.13900
N 	N 	0.90285 0.38770 0.83064 -0.13900
C 	C 	0.88731 0.37518 0.29784 0.17800
N 	N 	0.88661 0.37493 0.35316 -0.13900
C 	C 	0.89472 0.39978 0.38609 0.13900
N 	N 	0.90529 0.42425 0.36387 -0.14200
C 	C 	0.90651 0.42447 0.30874 0.14000
N 	N 	0.89698 0.40012 0.27577 -0.11500
Cd	Cd	0.05274 0.10015 0.73908 1.25100
Cd	Cd	0.01727 0.11174 0.86473 1.21900
O 	O 	0.10264 0.12211 0.73703 -0.27200
O 	O 	0.08399 0.09108 0.67016 -0.31900
C 	C 	0.10722 0.10617 0.69196 0.32400
O 	O 	0.01234 0.07003 0.72695 -0.32700
O 	O 	0.98583 0.09540 0.79269 -0.37500
C 	C 	0.98956 0.07157 0.75867 0.42100
C 	C 	0.07087 0.06543 0.82827 0.42100
O 	O 	0.03469 0.14406 0.80440 -0.42600
O 	O 	0.08116 0.05426 0.78267 -0.26000
O 	O 	0.05763 0.09108 0.82553 -0.51200
C 	C 	0.01902 0.15419 0.76330 0.38800
O 	O 	0.02373 0.14097 0.71528 -0.29400
Cd	Cd	0.05858 0.08640 0.45725 1.25200
O 	O 	0.10311 0.11788 0.48178 -0.28700
O 	O 	0.08453 0.08974 0.54043 -0.29500
C 	C 	0.10672 0.10640 0.52884 0.32000
O 	O 	0.01624 0.06015 0.46065 -0.32600
C 	C 	0.99969 0.04963 0.41673 0.37000
C 	C 	0.02080 0.13510 0.43308 0.40500
O 	O 	0.02618 0.13457 0.48608 -0.23400
O 	O 	0.03680 0.11713 0.40352 -0.52600
C 	C 	0.28524 0.02665 0.85690 0.18100
N 	N 	0.30949 0.01195 0.83858 -0.14100
C 	C 	0.32858 0.99845 0.87427 0.13800
N 	N 	0.32388 0.00069 0.92852 -0.14200
C 	C 	0.30069 0.01685 0.94736 0.13000
N 	N 	0.28146 0.02999 0.91153 -0.12300
C 	C 	0.30205 0.05390 0.44687 0.18200
N 	N 	0.32791 0.04149 0.46619 -0.14100
C 	C 	0.34735 0.02953 0.43047 0.13800
N 	N 	0.34044 0.02923 0.37572 -0.14200
C 	C 	0.31394 0.04008 0.35649 0.14300
N 	N 	0.29495 0.05275 0.39204 -0.12200
C 	C 	0.29860 0.02299 0.00686 -0.03100
C 	C 	0.27331 0.01416 0.03338 0.12300
C 	C 	0.27276 0.01976 0.09042 -0.08200
C 	C 	0.29756 0.03238 0.12159 0.00200
C 	C 	0.32288 0.04107 0.09508 0.07900
C 	C 	0.32286 0.03678 0.03785 -0.05000
N 	N 	0.25005 0.99938 0.00485 -0.19200
H 	H 	0.25343 0.01312 0.11091 0.07900
C 	C 	0.29771 0.03399 0.18215 -0.00200
N 	N 	0.34736 0.05318 0.12426 -0.19400
H 	H 	0.34212 0.04366 0.01740 0.06100
C 	C 	0.30396 0.00797 0.20923 -0.07900
C 	C 	0.30676 0.00906 0.26663 0.11100
C 	C 	0.30536 0.03712 0.29724 -0.03900
C 	C 	0.29749 0.06287 0.27034 -0.04900
C 	C 	0.29303 0.06145 0.21297 0.08700
H 	H 	0.30650 0.98676 0.18552 0.06600
N 	N 	0.30983 0.98310 0.29206 -0.19800
H 	H 	0.29543 0.08417 0.29397 0.08100
N 	N 	0.28461 0.08651 0.18782 -0.19400
H 	H 	0.31245 0.96269 0.26923 0.10200
H 	H 	0.30784 0.98265 0.33414 0.10600
H 	H 	0.28197 0.10686 0.21081 0.11300
H 	H 	0.27993 0.08591 0.14550 0.11000
H 	H 	0.36584 0.05966 0.10420 0.09800
H 	H 	0.34848 0.05608 0.16694 0.09800
H 	H 	0.25095 0.99211 0.96359 0.13800
H 	H 	0.23110 0.99390 0.02456 0.13400
C 	C 	0.17860 0.06501 0.54258 -0.13400
C 	C 	0.19881 0.08896 0.55408 0.02200
C 	C 	0.18794 0.11765 0.56958 0.29100
C 	C 	0.15722 0.12304 0.56594 -0.05600
C 	C 	0.13713 0.09953 0.54962 -0.12700
C 	C 	0.14796 0.07020 0.54066 0.37000
C 	C 	0.23004 0.08522 0.53894 0.01900
F 	F 	0.20716 0.14059 0.58529 -0.40000
H 	H 	0.14911 0.14565 0.57395 0.11800
F 	F 	0.12881 0.04707 0.52583 -0.40800
H 	H 	0.18660 0.04270 0.53133 0.15500
C 	C 	0.24696 0.06068 0.55591 0.30900
C 	C 	0.27227 0.05177 0.52871 -0.07900
C 	C 	0.28108 0.06756 0.48505 -0.08400
C 	C 	0.26637 0.09422 0.47296 0.35100
C 	C 	0.24082 0.10281 0.49933 -0.12500
F 	F 	0.23776 0.04433 0.59616 -0.39500
H 	H 	0.28395 0.03162 0.53944 0.10500
F 	F 	0.27594 0.11094 0.43351 -0.42800
H 	H 	0.22833 0.12206 0.48645 0.13900
C 	C 	0.20973 0.04036 0.78701 -0.12500
C 	C 	0.21730 0.05725 0.74390 0.01800
C 	C 	0.24742 0.06347 0.73719 0.30900
C 	C 	0.26966 0.05316 0.77378 -0.08100
C 	C 	0.26195 0.03682 0.81754 -0.08600
C 	C 	0.23188 0.03004 0.82342 0.35600
C 	C 	0.19340 0.07075 0.70960 0.03000
F 	F 	0.25509 0.08000 0.69601 -0.39900
H 	H 	0.29281 0.05832 0.76870 0.10200
F 	F 	0.22415 0.01326 0.86420 -0.42200
H 	H 	0.18656 0.03572 0.79291 0.15000
C 	C 	0.17050 0.05247 0.68334 0.30000
C 	C 	0.14250 0.06474 0.67081 -0.06000
C 	C 	0.13758 0.09550 0.68273 -0.12500
C 	C 	0.16203 0.11437 0.69963 0.37100
C 	C 	0.18979 0.10198 0.71352 -0.13300
F 	F 	0.17460 0.02247 0.67448 -0.39000
H 	H 	0.12422 0.05004 0.65522 0.13000
F 	F 	0.15829 0.14451 0.70670 -0.41300
H 	H 	0.20774 0.11647 0.73145 0.14600
C 	C 	0.90447 0.40372 0.73708 -0.04600
C 	C 	0.91545 0.37854 0.70598 0.11500
C 	C 	0.90983 0.37607 0.64880 -0.08200
C 	C 	0.89594 0.39942 0.62185 0.00100
C 	C 	0.88460 0.42435 0.65287 0.07700
C 	C 	0.88858 0.42595 0.71027 -0.04700
N 	N 	0.93249 0.35747 0.73024 -0.19900
H 	H 	0.91814 0.35686 0.62488 0.07500
C 	C 	0.89606 0.39890 0.56134 0.00000
N 	N 	0.87029 0.44696 0.62789 -0.19300
H 	H 	0.87999 0.44505 0.73413 0.05900
C 	C 	0.87045 0.38922 0.52908 -0.08200
C 	C 	0.86894 0.39072 0.47194 0.11400
C 	C 	0.89463 0.39937 0.44629 -0.04500
C 	C 	0.92058 0.40805 0.47855 -0.04600
C 	C 	0.92137 0.40856 0.53589 0.07900
H 	H 	0.85109 0.38193 0.54875 0.07100
N 	N 	0.84253 0.38523 0.44252 -0.19800
H 	H 	0.94021 0.41472 0.45894 0.06100
N 	N 	0.94638 0.41854 0.56616 -0.19300
H 	H 	0.82422 0.37724 0.46131 0.11000
H 	H 	0.83928 0.39062 0.40191 0.10900
H 	H 	0.96505 0.42527 0.54691 0.09700
H 	H 	0.94747 0.42018 0.60890 0.09700
H 	H 	0.86224 0.46537 0.65118 0.09800
H 	H 	0.86691 0.44654 0.58535 0.09800
H 	H 	0.94063 0.36055 0.77108 0.11100
H 	H 	0.93918 0.33831 0.70727 0.11600
C 	C 	0.96567 0.18702 0.85381 0.26300
C 	C 	0.94221 0.16671 0.83798 -0.20400
C 	C 	0.93980 0.15377 0.78381 0.27400
C 	C 	0.96397 0.15546 0.75102 0.28200
C 	C 	0.99064 0.16912 0.77339 -0.20700
C 	C 	0.98956 0.18880 0.82055 0.26300
F 	F 	0.01360 0.20612 0.83830 -0.37900
F 	F 	0.96595 0.20397 0.90213 -0.36600
F 	F 	0.96271 0.14086 0.70038 -0.33500
F 	F 	0.91480 0.13851 0.76401 -0.37900
C 	C 	0.89037 0.34777 0.00407 -0.08900
C 	C 	0.89517 0.31812 0.98373 -0.02300
C 	C 	0.90588 0.31247 0.93150 0.32600
C 	C 	0.91153 0.33621 0.89974 -0.09200
C 	C 	0.90644 0.36589 0.91961 -0.07100
C 	C 	0.89602 0.37164 0.97219 0.32500
C 	C 	0.88731 0.29279 0.01531 0.02800
F 	F 	0.91027 0.28384 0.91115 -0.39900
H 	H 	0.91983 0.33155 0.85953 0.10800
F 	F 	0.89064 0.40020 0.99175 -0.43300
H 	H 	0.88197 0.35229 0.04423 0.11900
C 	C 	0.90993 0.27447 0.03654 0.30600
C 	C 	0.90357 0.24472 0.04589 -0.05800
C 	C 	0.87457 0.23324 0.03425 -0.12500
C 	C 	0.85125 0.25309 0.02218 0.37500
C 	C 	0.85764 0.28283 0.01273 -0.12600
F 	F 	0.93850 0.28459 0.04302 -0.39100
H 	H 	0.92161 0.22999 0.05767 0.13000
F 	F 	0.82272 0.24288 0.01486 -0.40200
H 	H 	0.83984 0.29727 0.99870 0.11900
C 	C 	0.94111 0.13085 0.38520 0.26100
C 	C 	0.94314 0.14167 0.33308 -0.21800
C 	C 	0.96810 0.15921 0.32359 0.26100
C 	C 	0.99257 0.16136 0.36181 0.25200
C 	C 	0.99244 0.14598 0.40948 -0.22700
C 	C 	0.96567 0.13333 0.42347 0.26300
F 	F 	0.96407 0.12175 0.47275 -0.34500
F 	F 	0.91555 0.11811 0.39889 -0.47700
F 	F 	0.01753 0.17607 0.35016 -0.38900
F 	F 	0.96905 0.17341 0.27671 -0.35900
C 	C 	0.88949 0.24419 0.17755 -0.14300
C 	C 	0.86401 0.26224 0.17544 0.01000
C 	C 	0.83637 0.24928 0.15678 0.31900
C 	C 	0.83366 0.21808 0.14764 -0.05200
C 	C 	0.85858 0.19977 0.15636 -0.11600
C 	C 	0.88685 0.21311 0.16731 0.37400
C 	C 	0.86565 0.29328 0.20082 0.01200
F 	F 	0.81188 0.26674 0.15057 -0.38600
H 	H 	0.81185 0.20805 0.13762 0.12400
F 	F 	0.91143 0.19573 0.17288 -0.40100
H 	H 	0.91111 0.25407 0.19009 0.13500
C 	C 	0.85123 0.30073 0.24907 0.31500
C 	C 	0.85723 0.32812 0.27903 -0.08500
C 	C 	0.87826 0.34810 0.26204 -0.07800
C 	C 	0.89173 0.34120 0.21237 0.34900
C 	C 	0.88509 0.31408 0.18170 -0.13600
F 	F 	0.83260 0.28072 0.26846 -0.39600
H 	H 	0.84611 0.33345 0.31636 0.10700
F 	F 	0.91227 0.36001 0.19514 -0.42800
H 	H 	0.89616 0.30862 0.14437 0.12100
C 	C 	0.37386 0.01325 0.45048 -0.04800
C 	C 	0.39997 0.02892 0.47175 0.11000
C 	C 	0.42755 0.01414 0.47163 -0.08400
C 	C 	0.42940 0.98450 0.44887 -0.00300
C 	C 	0.40289 0.96781 0.43457 0.07600
C 	C 	0.37529 0.98231 0.43655 -0.04900
N 	N 	0.39887 0.05823 0.49082 -0.20000
H 	H 	0.44783 0.02645 0.48519 0.06700
H 	H 	0.35502 0.97000 0.42285 0.05600
N 	N 	0.45326 0.00004 0.34840 -0.19300
H 	H 	0.46158 0.00618 0.31202 0.09500
H 	H 	0.43240 0.00817 0.35824 0.09800
H 	H 	0.37865 0.06951 0.49330 0.11500
H 	H 	0.41840 0.06988 0.50480 0.10500
C 	C 	0.35639 0.98465 0.85553 -0.04800
C 	C 	0.35707 0.96764 0.80444 0.11200
C 	C 	0.38466 0.95878 0.78507 -0.08600
C 	C 	0.41093 0.96278 0.81900 -0.00100
C 	C 	0.40990 0.97750 0.87199 0.07600
C 	C 	0.38287 0.98932 0.88876 -0.04900
N 	N 	0.33146 0.95816 0.77567 -0.19900
H 	H 	0.38547 0.94716 0.74479 0.06300
C 	C 	0.43955 0.95207 0.79849 -0.00300
N 	N 	0.43471 0.98024 0.90701 -0.19300
H 	H 	0.38244 0.00210 0.92806 0.05400
C 	C 	0.45978 0.97326 0.78312 -0.08500
C 	C 	0.49042 0.96706 0.78478 0.11000
H 	H 	0.45204 0.99557 0.77503 0.06500
N 	N 	0.50995 0.98900 0.77502 -0.20100
H 	H 	0.50223 0.01022 0.76586 0.10500
H 	H 	0.43387 0.99199 0.94534 0.09100
H 	H 	0.45474 0.96999 0.89750 0.09500
H 	H 	0.31109 0.95877 0.79373 0.11600
H 	H 	0.33214 0.94757 0.73632 0.10600
C 	C 	0.79018 0.05745 0.31631 0.27300
C 	C 	0.80646 0.05558 0.26939 -0.21100
C 	C 	0.81225 0.02728 0.24358 0.28300
C 	C 	0.80693 0.00140 0.27010 0.26500
C 	C 	0.79596 0.00388 0.32267 -0.20000
C 	C 	0.78459 0.03159 0.34259 0.27700
F 	F 	0.76967 0.03368 0.38903 -0.35600
F 	F 	0.78175 0.08459 0.33862 -0.36900
F 	F 	0.81367 0.97417 0.24588 -0.41600
F 	F 	0.82522 0.02498 0.19504 -0.34900
C 	C 	0.97257 0.03162 0.42343 -0.19800
C 	C 	0.95238 0.04099 0.46266 0.27200
C 	C 	0.92426 0.02716 0.46174 0.27100
F 	F 	0.90431 0.03751 0.49771 -0.36100
F 	F 	0.95967 0.06381 0.50082 -0.33600
C 	C 	0.91577 0.01113 0.75589 -0.18000
C 	C 	0.91153 0.03986 0.73709 0.25400
C 	C 	0.93612 0.05867 0.73262 0.27200
C 	C 	0.96505 0.04933 0.74861 -0.18300
C 	C 	0.96951 0.01979 0.76297 0.27500
F 	F 	0.93183 0.08600 0.71304 -0.33500
F 	F 	0.88358 0.05009 0.72550 -0.40200
C 	C 	0.81458 0.02926 0.91721 0.26700
C 	C 	0.80360 0.03198 0.86271 -0.22400
C 	C 	0.79382 0.06023 0.84724 0.27200
C 	C 	0.80033 0.08586 0.88208 0.26000
C 	C 	0.81709 0.08350 0.93182 -0.22000
C 	C 	0.82144 0.05509 0.95170 0.27200
F 	F 	0.83473 0.05252 0.00246 -0.34900
F 	F 	0.81897 0.00180 0.93643 -0.43900
F 	F 	0.79318 0.11331 0.86497 -0.37500
F 	F 	0.77926 0.06306 0.79763 -0.36200
F 	F 	0.68366 0.98803 0.65945 -0.38400
H 	H 	0.74134 0.98200 0.65594 0.13200
C 	C 	0.02646 0.56499 0.28066 -0.04400
C 	C 	0.03431 0.53612 0.29667 0.10900
C 	C 	0.01322 0.51279 0.28862 -0.08500
C 	C 	0.98557 0.51718 0.26045 -0.00100
C 	C 	0.97987 0.54457 0.23643 0.08300
C 	C 	0.00006 0.56854 0.24790 -0.05200
N 	N 	0.06219 0.53054 0.31831 -0.19900
H 	H 	0.01818 0.49129 0.30480 0.06400
C 	C 	0.96157 0.49464 0.26252 -0.00400
N 	N 	0.95512 0.54796 0.20251 -0.19500
H 	H 	0.99462 0.59026 0.23309 0.07200
C 	C 	0.93756 0.50167 0.29478 -0.08000
C 	C 	0.91689 0.47951 0.30456 0.10800
C 	C 	0.92178 0.44937 0.28554 -0.03500
C 	C 	0.94437 0.44279 0.24974 -0.05000
C 	C 	0.96391 0.46537 0.23696 0.08700
H 	H 	0.93509 0.52441 0.31257 0.06400
N 	N 	0.89208 0.48736 0.33093 -0.19800
H 	H 	0.94741 0.41988 0.23323 0.09200
N 	N 	0.98470 0.45889 0.20012 -0.19500
H 	H 	0.88932 0.50939 0.34720 0.10100
H 	H 	0.87458 0.47216 0.33266 0.10600
H 	H 	0.98699 0.43697 0.18290 0.11500
H 	H 	0.99793 0.47568 0.18660 0.10300
H 	H 	0.95047 0.56861 0.18656 0.10700
H 	H 	0.94098 0.52986 0.18990 0.10400
H 	H 	0.07936 0.54627 0.31801 0.10300
H 	H 	0.06740 0.50959 0.33257 0.09900
C 	C 	0.95537 0.46136 0.89306 -0.04500
C 	C 	0.94477 0.48612 0.92559 0.11300
C 	C 	0.96159 0.51283 0.93257 -0.08700
C 	C 	0.98803 0.51544 0.90600 0.00300
C 	C 	0.00002 0.48977 0.87823 0.07300
C 	C 	0.98367 0.46285 0.87269 -0.04600
N 	N 	0.91825 0.48472 0.94893 -0.20100
H 	H 	0.95306 0.53223 0.95564 0.06600
C 	C 	0.00051 0.54570 0.90067 -0.00700
N 	N 	0.02679 0.49101 0.85568 -0.19300
H 	H 	0.99224 0.44346 0.84960 0.05900
C 	C 	0.02472 0.55604 0.93609 -0.08100
C 	C 	0.04107 0.58149 0.92516 0.11300
C 	C 	0.03143 0.59814 0.88026 -0.03900
C 	C 	0.00545 0.58935 0.84824 -0.05300
C 	C 	0.99020 0.56298 0.85723 0.08400
H 	H 	0.03212 0.54307 0.97004 0.06300
N 	N 	0.06647 0.58903 0.95650 -0.19700
H 	H 	0.99769 0.60254 0.81480 0.06200
N 	N 	0.96601 0.55417 0.82350 -0.19400
H 	H 	0.07288 0.57704 0.99029 0.10700
H 	H 	0.08060 0.60609 0.94683 0.12800
H 	H 	0.95879 0.56696 0.79124 0.09700
H 	H 	0.95405 0.53472 0.82892 0.09700
H 	H 	0.03511 0.47210 0.83418 0.09700
H 	H 	0.03983 0.51047 0.85994 0.09600
H 	H 	0.90540 0.46514 0.94528 0.12800
H 	H 	0.91038 0.50333 0.97191 0.10500
C 	C 	0.06822 0.62405 0.44386 -0.04000
C 	C 	0.09416 0.63890 0.46849 0.11500
C 	C 	0.09709 0.64475 0.52571 -0.08100
C 	C 	0.07608 0.63358 0.55888 -0.00000
C 	C 	0.05120 0.61694 0.53446 0.07900
C 	C 	0.04721 0.61294 0.47716 -0.04600
N 	N 	0.11682 0.64634 0.43792 -0.19700
H 	H 	0.11633 0.65712 0.54459 0.06800
C 	C 	0.07976 0.64025 0.61909 0.00100
N 	N 	0.03114 0.60473 0.56569 -0.19300
H 	H 	0.02753 0.60126 0.45841 0.06200
C 	C 	0.06307 0.66350 0.64328 -0.08300
C 	C 	0.06027 0.66611 0.70010 0.11400
C 	C 	0.07648 0.64642 0.73372 -0.04700
C 	C 	0.09524 0.62487 0.70982 -0.04800
C 	C 	0.09685 0.62135 0.65271 0.07600
H 	H 	0.05049 0.67829 0.61738 0.07400
N 	N 	0.04109 0.68664 0.72161 -0.19900
H 	H 	0.10791 0.61009 0.73564 0.05700
N 	N 	0.11441 0.59953 0.63049 -0.19300
H 	H 	0.03013 0.70169 0.69666 0.11300
H 	H 	0.03587 0.68714 0.76243 0.11200
H 	H 	0.12653 0.58536 0.65560 0.09600
H 	H 	0.11653 0.59663 0.58833 0.09600
H 	H 	0.01252 0.59303 0.54722 0.09600
H 	H 	0.03407 0.60609 0.60836 0.09600
H 	H 	0.11753 0.63822 0.39702 0.10700
H 	H 	0.13507 0.65876 0.45599 0.10600
C 	C 	0.91046 0.02708 0.96800 0.27000
C 	C 	0.92759 0.05287 0.98424 -0.20700
C 	C 	0.95521 0.04996 0.01379 0.30900
C 	C 	0.96704 0.02129 0.02097 0.30600
C 	C 	0.95150 0.99559 0.99764 -0.18600
C 	C 	0.92187 0.99864 0.97718 0.26900
F 	F 	0.90520 0.97384 0.96100 -0.47000
F 	F 	0.88382 0.02947 0.93945 -0.48600
F 	F 	0.99476 0.01867 0.04555 -0.33200
F 	F 	0.97149 0.07473 0.03196 -0.36500
F 	F 	0.12022 0.03782 0.88177 -0.37900
C 	C 	0.07470 0.72806 0.00356 -0.08100
C 	C 	0.07300 0.75521 0.97844 -0.03100
C 	C 	0.07185 0.75500 0.92112 0.32300
C 	C 	0.07129 0.72783 0.88907 -0.09500
C 	C 	0.07214 0.70048 0.91388 -0.06900
C 	C 	0.07453 0.70073 0.97153 0.32900
H 	H 	0.06940 0.72806 0.84485 0.10700
F 	F 	0.07685 0.67464 0.99644 -0.41600
H 	H 	0.07574 0.72811 0.04781 0.13800
F 	F 	0.01697 0.77672 0.00995 -0.39400
C 	C 	0.94730 0.02890 0.18449 0.27000
C 	C 	0.91874 0.02417 0.20239 -0.18100
F 	F 	0.88151 0.98914 0.22374 -0.40500
F 	F 	0.95592 0.05677 0.17325 -0.37700
C 	C 	0.04979 0.74724 0.17545 0.02100
C 	C 	0.02229 0.75991 0.15945 0.30100
C 	C 	0.02058 0.79057 0.15174 -0.05300
C 	C 	0.05044 0.72001 0.20596 0.00900
F 	F 	0.99695 0.74320 0.15668 -0.39200
H 	H 	0.99898 0.80078 0.14436 0.12500
C 	C 	0.06338 0.69349 0.18450 0.30500
C 	C 	0.06543 0.66838 0.21540 -0.08300
C 	C 	0.05471 0.66966 0.26803 -0.08400
C 	C 	0.04171 0.69623 0.28933 0.35000
C 	C 	0.03970 0.72126 0.25848 -0.12400
F 	F 	0.07395 0.69204 0.13384 -0.40900
H 	H 	0.07539 0.64796 0.19852 0.10300
F 	F 	0.03038 0.69758 0.33937 -0.42300
H 	H 	0.02991 0.74174 0.27548 0.13100
Cd	Cd	0.02108 0.89602 0.21500 1.25000
Cd	Cd	0.01130 0.94370 0.33501 1.24400
O 	O 	0.05039 0.85029 0.22701 -0.27800
O 	O 	0.02651 0.85820 0.14846 -0.32500
C 	C 	0.04349 0.84053 0.17663 0.33200
O 	O 	0.98796 0.93050 0.18714 -0.33100
O 	O 	0.00296 0.96581 0.25612 -0.34000
C 	C 	0.98365 0.95622 0.21594 0.39900
C 	C 	0.97749 0.88042 0.28738 0.40200
O 	O 	0.05350 0.92635 0.29328 -0.41100
O 	O 	0.97461 0.86418 0.24083 -0.23500
O 	O 	0.00129 0.89709 0.29427 -0.49400
C 	C 	0.06680 0.93924 0.25555 0.39600
O 	O 	0.05987 0.92894 0.20510 -0.30000
Cd	Cd	0.01876 0.91975 0.98409 1.24700
Cd	Cd	0.99778 0.95732 0.86481 1.24700
O 	O 	0.06061 0.88459 0.97801 -0.28600
O 	O 	0.03782 0.89282 0.05364 -0.32800
C 	C 	0.05714 0.87677 0.02709 0.35600
O 	O 	0.98607 0.95464 0.01327 -0.30400
O 	O 	0.96347 0.95784 0.92740 -0.36300
C 	C 	0.96823 0.96874 0.97864 0.39500
C 	C 	0.05363 0.96894 0.95724 0.40400
O 	O 	0.99952 0.90707 0.88129 -0.39300
O 	O 	0.06070 0.96241 0.00756 -0.21100
O 	O 	0.03578 0.95019 0.92868 -0.50800
C 	C 	0.97795 0.89166 0.89881 0.38700
O 	O 	0.98001 0.88802 0.95122 -0.30800
Cd	Cd	0.82729 0.95940 0.74982 1.24900
O 	O 	0.78016 0.93140 0.74311 -0.28000
O 	O 	0.79635 0.95171 0.67183 -0.30900
C 	C 	0.77550 0.93641 0.69185 0.32900
O 	O 	0.86581 0.99012 0.73791 -0.32800
O 	O 	0.89377 0.97773 0.81491 -0.36400
C 	C 	0.89002 0.99371 0.77187 0.36900
O 	O 	0.84893 0.92986 0.83210 -0.39100
C 	C 	0.86489 0.91450 0.79754 0.39100
O 	O 	0.85906 0.91893 0.74596 -0.30000
Cd	Cd	0.83418 0.95013 0.44643 1.25300
Cd	Cd	0.86159 0.94911 0.31307 1.24800
O 	O 	0.79743 0.91149 0.46209 -0.28600
O 	O 	0.81343 0.94466 0.52752 -0.28500
C 	C 	0.79418 0.92349 0.51118 0.31800
O 	O 	0.87178 0.98346 0.45713 -0.32200
O 	O 	0.87143 0.99154 0.36602 -0.39200
C 	C 	0.88555 0.99198 0.41486 0.37200
C 	C 	0.87813 0.90780 0.41537 0.41000
O 	O 	0.87590 0.90900 0.46842 -0.23700
O 	O 	0.85813 0.92234 0.38792 -0.50400
C 	C 	0.58239 0.92882 0.80200 0.18000
N 	N 	0.58864 0.92283 0.85510 -0.12100
C 	C 	0.56639 0.92211 0.88977 0.13700
N 	N 	0.53804 0.92820 0.87168 -0.14200
C 	C 	0.53164 0.93367 0.81852 0.13800
N 	N 	0.55372 0.93321 0.78333 -0.14300
C 	C 	0.59090 0.92582 0.38619 0.17800
N 	N 	0.59262 0.92120 0.33107 -0.11800
C 	C 	0.56769 0.92245 0.29695 0.14100
N 	N 	0.54118 0.92932 0.31793 -0.14200
C 	C 	0.53955 0.93566 0.37268 0.13900
N 	N 	0.56455 0.93416 0.40676 -0.14100
Cd	Cd	0.02366 0.08911 0.32436 1.21600
O 	O 	0.01027 0.04918 0.36777 -0.38200
O 	O 	0.07153 0.07552 0.35388 -0.39800
C 	C 	0.08039 0.04912 0.36741 0.38300
O 	O 	0.08098 0.04459 0.41929 -0.30300
C 	C 	0.45845 0.97333 0.43073 -0.00100
N 	N 	0.40383 0.93822 0.41717 -0.19400
C 	C 	0.47500 0.95357 0.46251 -0.08400
C 	C 	0.50045 0.93939 0.44269 0.11100
C 	C 	0.51170 0.94827 0.39363 -0.04600
C 	C 	0.49608 0.96954 0.36373 -0.04700
C 	C 	0.46904 0.98133 0.38066 0.07700
H 	H 	0.46683 0.94752 0.50084 0.06300
N 	N 	0.51276 0.91622 0.46902 -0.19800
H 	H 	0.50477 0.97660 0.32650 0.05700
H 	H 	0.50564 0.91123 0.50703 0.10300
H 	H 	0.52762 0.90149 0.45025 0.11200
H 	H 	0.38416 0.92632 0.40522 0.09700
H 	H 	0.42391 0.92658 0.41629 0.09700
C 	C 	0.50049 0.93839 0.79879 -0.05000
C 	C 	0.47960 0.91572 0.80450 -0.04900
C 	C 	0.44915 0.92237 0.80527 0.07500
H 	H 	0.48727 0.89336 0.81248 0.05400
N 	N 	0.42946 0.90047 0.81440 -0.19400
H 	H 	0.53284 0.98527 0.77581 0.11700
H 	H 	0.43690 0.87883 0.82116 0.09400
H 	H 	0.40659 0.90446 0.81360 0.09700
C 	C 	0.57310 0.91598 0.94763 -0.02700
C 	C 	0.55584 0.89508 0.97282 0.08600
C 	C 	0.55732 0.89527 0.03017 -0.05700
C 	C 	0.57709 0.91459 0.06243 -0.01600
C 	C 	0.59710 0.93267 0.03685 0.11000
C 	C 	0.59452 0.93362 0.97959 -0.07400
N 	N 	0.53842 0.87439 0.94218 -0.19500
H 	H 	0.54290 0.88051 0.04977 0.06000
C 	C 	0.57514 0.91718 0.12274 0.00700
N 	N 	0.61850 0.94937 0.06696 -0.19700
H 	H 	0.60852 0.94885 0.96011 0.09000
C 	C 	0.58698 0.89426 0.15355 -0.08600
C 	C 	0.58355 0.89476 0.21014 0.12300
C 	C 	0.56990 0.91984 0.23694 -0.04500
C 	C 	0.55842 0.94294 0.20616 -0.04500
C 	C 	0.56023 0.94154 0.14913 0.07600
H 	H 	0.59796 0.87541 0.13309 0.07400
N 	N 	0.59223 0.87064 0.23784 -0.19700
H 	H 	0.54783 0.96204 0.22664 0.05800
N 	N 	0.54740 0.96346 0.12003 -0.19300
H 	H 	0.60362 0.85295 0.21835 0.11900
H 	H 	0.58630 0.86834 0.27772 0.13300
H 	H 	0.53698 0.98162 0.14007 0.09800
H 	H 	0.54701 0.96244 0.07736 0.10100
H 	H 	0.63257 0.96337 0.04791 0.12300
H 	H 	0.62196 0.94799 0.10920 0.11400
H 	H 	0.53962 0.87126 0.89978 0.10100
H 	H 	0.52464 0.86002 0.96102 0.09300
C 	C 	0.96530 0.00661 0.38661 0.26100
C 	C 	0.91641 0.00351 0.42232 -0.20500
C 	C 	0.93746 0.99269 0.38612 0.25400
F 	F 	0.93063 0.96901 0.34944 -0.45400
F 	F 	0.98506 0.99614 0.35057 -0.48600
C 	C 	0.71654 0.94979 0.51992 -0.13700
C 	C 	0.70168 0.92202 0.51649 0.02000
C 	C 	0.71782 0.89621 0.52908 0.29200
C 	C 	0.74897 0.89741 0.53578 -0.05400
C 	C 	0.76409 0.92449 0.53119 -0.11800
C 	C 	0.74758 0.95111 0.52822 0.36600
C 	C 	0.67137 0.91913 0.48883 0.01500
F 	F 	0.70349 0.86961 0.53114 -0.40000
H 	H 	0.76141 0.87690 0.54038 0.12100
F 	F 	0.76176 0.97787 0.52734 -0.40600
H 	H 	0.70430 0.97006 0.51217 0.15300
C 	C 	0.64820 0.93785 0.50633 0.31000
C 	C 	0.62161 0.93945 0.47355 -0.07800
C 	C 	0.61768 0.92192 0.42353 -0.08100
C 	C 	0.63994 0.90139 0.40844 0.35000
C 	C 	0.66674 0.90040 0.44042 -0.12200
F 	F 	0.65177 0.95513 0.55421 -0.39400
H 	H 	0.60442 0.95489 0.48637 0.10900
F 	F 	0.63566 0.88244 0.36267 -0.43100
H 	H 	0.68434 0.88574 0.42663 0.13700
C 	C 	0.94504 0.00067 0.76620 0.26900
F 	F 	0.99745 0.00997 0.77610 -0.42100
F 	F 	0.94975 0.97223 0.78061 -0.42600
C 	C 	0.69831 0.90798 0.66944 -0.13300
C 	C 	0.68324 0.93546 0.67241 0.03400
C 	C 	0.69842 0.96163 0.66152 0.30600
C 	C 	0.72938 0.96117 0.65868 -0.06200
C 	C 	0.74512 0.93455 0.66625 -0.12500
C 	C 	0.72922 0.90752 0.66643 0.37100
C 	C 	0.65536 0.93787 0.70095 0.01800
F 	F 	0.74403 0.88120 0.66961 -0.41500
H 	H 	0.68656 0.88737 0.67501 0.14500
C 	C 	0.62998 0.92120 0.68052 0.30700
C 	C 	0.60579 0.91881 0.71310 -0.08300
C 	C 	0.60682 0.93306 0.76621 -0.08600
C 	C 	0.63147 0.95111 0.78528 0.35100
C 	C 	0.65560 0.95340 0.75289 -0.12600
F 	F 	0.62913 0.90664 0.62985 -0.40500
H 	H 	0.58662 0.90528 0.69764 0.10000
F 	F 	0.63212 0.96629 0.83540 -0.42800
H 	H 	0.67504 0.96635 0.76899 0.13700
C 	C 	0.92292 0.88194 0.89259 0.28600
C 	C 	0.94896 0.88840 0.86672 -0.19900
C 	C 	0.94643 0.89616 0.81206 0.26600
C 	C 	0.91853 0.90249 0.78728 0.29100
C 	C 	0.89283 0.90030 0.81646 -0.20400
C 	C 	0.89499 0.88804 0.86761 0.27400
F 	F 	0.87005 0.88300 0.89392 -0.37100
F 	F 	0.92466 0.87057 0.94248 -0.36000
F 	F 	0.91668 0.91229 0.73610 -0.35400
F 	F 	0.97111 0.89867 0.78367 -0.39000
C 	C 	0.03495 0.01635 0.92194 0.25900
C 	C 	0.05917 0.99877 0.93882 -0.21300
C 	C 	0.08811 0.00715 0.92786 0.28300
C 	C 	0.09234 0.03102 0.89529 0.29100
C 	C 	0.06764 0.04674 0.87413 -0.24100
C 	C 	0.03914 0.04023 0.89000 0.27400
F 	F 	0.01504 0.05499 0.86983 -0.50200
F 	F 	0.00695 0.00859 0.93216 -0.46600
F 	F 	0.11186 0.99081 0.94525 -0.37000
C 	C 	0.06975 0.78377 0.01149 0.04000
F 	F 	0.07028 0.78121 0.89645 -0.41400
C 	C 	0.04115 0.79502 0.01945 0.29400
C 	C 	0.03722 0.82566 0.03253 -0.04900
C 	C 	0.06186 0.84524 0.03812 -0.12500
C 	C 	0.09070 0.83328 0.03754 0.39500
C 	C 	0.09462 0.80258 0.02417 -0.13500
H 	H 	0.01485 0.83453 0.03398 0.11600
F 	F 	0.11483 0.85175 0.04504 -0.40300
H 	H 	0.11687 0.79388 0.01963 0.13700
C 	C 	0.93043 0.97124 0.20899 0.27600
C 	C 	0.96002 0.97682 0.19769 -0.17500
C 	C 	0.96779 0.00527 0.18189 0.28600
C 	C 	0.90981 0.99473 0.21104 0.28000
F 	F 	0.92227 0.94359 0.22232 -0.40500
F 	F 	0.99578 0.01051 0.16735 -0.32400
C 	C 	0.95736 0.89791 0.37736 0.26800
C 	C 	0.95270 0.88376 0.32419 -0.20900
C 	C 	0.92395 0.87322 0.30582 0.28800
C 	C 	0.90002 0.87868 0.33843 0.26100
C 	C 	0.90422 0.89522 0.38919 -0.22000
C 	C 	0.93312 0.90403 0.40936 0.28800
F 	F 	0.93754 0.91974 0.45878 -0.37400
F 	F 	0.98529 0.90547 0.39821 -0.45800
F 	F 	0.87232 0.86901 0.31956 -0.39000
F 	F 	0.91897 0.85841 0.25567 -0.35800
C 	C 	0.06838 0.99399 0.24548 0.27500
C 	C 	0.08109 0.96865 0.26813 -0.20500
C 	C 	0.10175 0.97266 0.31345 0.27200
C 	C 	0.10499 0.00078 0.34212 0.28000
C 	C 	0.08692 0.02472 0.32631 -0.20700
C 	C 	0.07059 0.02194 0.27523 0.28200
F 	F 	0.05528 0.04563 0.25633 -0.43500
F 	F 	0.05195 0.99106 0.19695 -0.34100
F 	F 	0.12393 0.00422 0.38764 -0.36200
F 	F 	0.11662 0.94876 0.33258 -0.37200
C 	C 	0.07596 0.76416 0.17411 -0.14200
C 	C 	0.04631 0.80854 0.15978 -0.13100
C 	C 	0.07425 0.79479 0.16629 0.36700
F 	F 	0.09954 0.81163 0.17026 -0.41800
H 	H 	0.09743 0.75423 0.18399 0.13100
