data_crystal

_cell_length_a 44.59902
_cell_length_b 22.18588
_cell_length_c 22.76826
_cell_angle_alpha 90.00197
_cell_angle_beta  89.99495
_cell_angle_gamma 89.99937

_symmetry_space_group_name_	'P 1'
_symmetry_space_group_name_H-M	'P 1'

loop_
_symmetry_equiv_pos_as_xyz
  x,y,z

loop_
_atom_site_label
_atom_site_type_symbol
_atom_site_fract_x
_atom_site_fract_y
_atom_site_fract_z
_atom_site_charge
C 	C 	0.64670 0.27753 0.31193 0.29600
C 	C 	0.63533 0.25135 0.57261 0.32300
C 	C 	0.69000 0.18887 0.42047 0.31700
C 	C 	0.59857 0.36405 0.48191 0.30600
C 	C 	0.60464 0.09808 0.47776 0.31900
C 	C 	0.55995 0.19474 0.37126 0.30100
Ni	Ni	0.65081 0.28834 0.44837 1.12800
Ni	Ni	0.58821 0.22639 0.48424 1.12600
Ni	Ni	0.62699 0.16990 0.37935 1.12900
O 	O 	0.66353 0.29235 0.35843 -0.33300
O 	O 	0.62993 0.22797 0.31128 -0.34900
O 	O 	0.58237 0.13662 0.47953 -0.37300
O 	O 	0.64500 0.29575 0.53928 -0.33600
O 	O 	0.61731 0.21015 0.55102 -0.37500
O 	O 	0.58238 0.15542 0.36347 -0.34600
O 	O 	0.67702 0.21418 0.46477 -0.35200
O 	O 	0.67325 0.16931 0.37691 -0.35000
O 	O 	0.55926 0.23230 0.41696 -0.35700
O 	O 	0.62031 0.35808 0.44290 -0.34900
O 	O 	0.58472 0.31649 0.50577 -0.34800
O 	O 	0.62817 0.10837 0.44432 -0.35500
O 	O 	0.61896 0.23854 0.42793 -0.72200
H 	H 	0.60840 0.26493 0.39993 0.17700
C 	C 	0.60822 0.23824 0.98355 0.25300
C 	C 	0.68855 0.43535 0.91104 0.31100
C 	C 	0.64667 0.34978 0.07117 0.31200
C 	C 	0.64358 0.32592 0.80967 0.30100
C 	C 	0.60684 0.50393 0.98122 0.29500
C 	C 	0.55892 0.39600 0.88726 0.30100
Ni	Ni	0.65750 0.32020 0.94223 1.11300
Ni	Ni	0.62397 0.43235 0.87871 1.13000
Ni	Ni	0.59524 0.37394 0.99349 1.11700
O 	O 	0.62901 0.24627 0.94257 -0.34300
O 	O 	0.59672 0.28406 0.01424 -0.32700
O 	O 	0.62713 0.49684 0.93996 -0.36000
O 	O 	0.68501 0.39502 0.95261 -0.36700
O 	O 	0.66915 0.43858 0.86769 -0.34800
O 	O 	0.56177 0.36250 0.93549 -0.36500
O 	O 	0.65728 0.30967 0.03379 -0.33500
O 	O 	0.62800 0.39168 0.05295 -0.35800
O 	O 	0.57853 0.43932 0.87403 -0.34800
O 	O 	0.66475 0.31759 0.85044 -0.35100
O 	O 	0.62516 0.37300 0.81145 -0.34700
O 	O 	0.58625 0.46273 0.99036 -0.37800
O 	O 	0.62269 0.36552 0.93075 -0.72800
H 	H 	0.61118 0.33725 0.90621 0.16900
C 	C 	0.84288 0.36166 0.48385 0.30000
C 	C 	0.84031 0.34646 0.22314 0.32000
C 	C 	0.81413 0.24492 0.37890 0.32700
C 	C 	0.86665 0.47903 0.32353 0.29800
C 	C 	0.90685 0.22629 0.30499 0.32200
C 	C 	0.93751 0.34361 0.39037 0.31200
Ni	Ni	0.82871 0.37057 0.35077 1.11600
Ni	Ni	0.89501 0.35837 0.29526 1.12600
Ni	Ni	0.87762 0.27848 0.40747 1.13200
O 	O 	0.82173 0.36223 0.44230 -0.35300
O 	O 	0.86799 0.33005 0.47797 -0.35100
O 	O 	0.91782 0.27930 0.29015 -0.37400
O 	O 	0.82691 0.38329 0.26000 -0.34400
O 	O 	0.86610 0.32193 0.23681 -0.37200
O 	O 	0.92242 0.29795 0.41499 -0.34100
O 	O 	0.81673 0.28217 0.33513 -0.36900
O 	O 	0.83557 0.24240 0.41853 -0.34100
O 	O 	0.92415 0.38406 0.35679 -0.36700
O 	O 	0.84373 0.45924 0.35547 -0.35600
O 	O 	0.87883 0.44417 0.28221 -0.34500
O 	O 	0.88363 0.22190 0.34012 -0.36200
O 	O 	0.86864 0.34691 0.35993 -0.71700
H 	H 	0.87532 0.37914 0.38663 0.16700
C 	C 	0.87698 0.24728 0.80359 0.30300
C 	C 	0.80919 0.45472 0.89150 0.31400
C 	C 	0.84695 0.38657 0.72795 0.31600
C 	C 	0.83635 0.33241 0.98496 0.28000
C 	C 	0.89988 0.50614 0.84175 0.32800
C 	C 	0.93546 0.37405 0.91595 0.30200
Ni	Ni	0.83221 0.33771 0.84804 1.11800
Ni	Ni	0.87221 0.42734 0.92850 1.12700
Ni	Ni	0.89880 0.37735 0.80829 1.12700
O 	O 	0.85382 0.25517 0.83959 -0.34600
O 	O 	0.88952 0.29344 0.77526 -0.35200
O 	O 	0.87654 0.49899 0.87600 -0.36600
O 	O 	0.81406 0.42312 0.84412 -0.37200
O 	O 	0.82770 0.45025 0.93648 -0.35800
O 	O 	0.92876 0.34570 0.86609 -0.36100
O 	O 	0.83511 0.34106 0.75680 -0.35200
O 	O 	0.86988 0.41596 0.75037 -0.35700
O 	O 	0.91767 0.41695 0.93882 -0.35900
O 	O 	0.81931 0.32611 0.93695 -0.35000
O 	O 	0.86297 0.35873 0.98338 -0.36700
O 	O 	0.91596 0.45974 0.82467 -0.37500
O 	O 	0.86972 0.36858 0.86827 -0.72400
H 	H 	0.87802 0.33351 0.88923 0.17300
C 	C 	0.13545 0.47436 0.31657 0.29700
C 	C 	0.18958 0.23866 0.35878 0.33300
C 	C 	0.16716 0.35471 0.21239 0.32900
C 	C 	0.15471 0.34406 0.46908 0.30100
C 	C 	0.10011 0.21968 0.27361 0.32300
C 	C 	0.06498 0.32883 0.36705 0.30400
Ni	Ni	0.17363 0.36566 0.34178 1.11700
Ni	Ni	0.12514 0.26412 0.38257 1.12900
Ni	Ni	0.10997 0.35294 0.27650 1.13000
O 	O 	0.15624 0.45199 0.35236 -0.35700
O 	O 	0.12436 0.44142 0.27238 -0.34600
O 	O 	0.12263 0.21399 0.30997 -0.36300
O 	O 	0.18723 0.28001 0.31862 -0.35900
O 	O 	0.16728 0.23019 0.39546 -0.34700
O 	O 	0.07746 0.37130 0.33413 -0.35300
O 	O 	0.17813 0.38882 0.25403 -0.36000
O 	O 	0.14255 0.32388 0.22138 -0.35700
O 	O 	0.07991 0.27974 0.38489 -0.36300
O 	O 	0.17770 0.34783 0.43206 -0.35100
O 	O 	0.13169 0.30739 0.45920 -0.36000
O 	O 	0.08883 0.27319 0.26179 -0.34700
O 	O 	0.13390 0.33848 0.34396 -0.71700
H 	H 	0.12529 0.36738 0.37217 0.16800
C 	C 	0.15520 0.36366 0.97242 0.27700
C 	C 	0.14522 0.38527 0.71252 0.32400
C 	C 	0.18449 0.46516 0.87478 0.32100
C 	C 	0.11613 0.25450 0.79604 0.30200
C 	C 	0.09385 0.51608 0.80805 0.32700
C 	C 	0.05767 0.38821 0.89932 0.29500
Ni	Ni	0.16012 0.34839 0.83637 1.11600
Ni	Ni	0.09357 0.38475 0.79064 1.13000
Ni	Ni	0.11905 0.44756 0.90522 1.13100
O 	O 	0.17116 0.34268 0.92694 -0.35700
O 	O 	0.12777 0.38461 0.96590 -0.35800
O 	O 	0.07687 0.46886 0.79809 -0.36500
O 	O 	0.15905 0.34468 0.74470 -0.36100
O 	O 	0.12467 0.41956 0.73600 -0.36500
O 	O 	0.07358 0.43727 0.91348 -0.34000
O 	O 	0.17943 0.43234 0.82841 -0.36300
O 	O 	0.16331 0.47232 0.91465 -0.35300
O 	O 	0.06270 0.35841 0.84946 -0.36200
O 	O 	0.13848 0.26570 0.83305 -0.35100
O 	O 	0.10346 0.29825 0.76432 -0.35300
O 	O 	0.11587 0.51354 0.84592 -0.36000
O 	O 	0.12228 0.38180 0.85195 -0.71800
H 	H 	0.11369 0.34880 0.87552 0.17200
C 	C 	0.40610 0.35263 0.47542 0.31300
C 	C 	0.31219 0.18476 0.41240 0.31900
C 	C 	0.36156 0.25563 0.56763 0.31400
C 	C 	0.36101 0.26021 0.30473 0.29800
C 	C 	0.39122 0.08798 0.48718 0.32100
C 	C 	0.44251 0.17719 0.38250 0.29200
Ni	Ni	0.35307 0.28224 0.43870 1.12800
Ni	Ni	0.37575 0.15641 0.38198 1.12800
Ni	Ni	0.41130 0.21489 0.49048 1.12500
O 	O 	0.38665 0.34567 0.43223 -0.35300
O 	O 	0.41761 0.30565 0.50457 -0.36200
O 	O 	0.36938 0.10147 0.45085 -0.36000
O 	O 	0.32396 0.21298 0.45648 -0.35500
O 	O 	0.32997 0.16085 0.37264 -0.34600
O 	O 	0.44421 0.21125 0.43056 -0.36100
O 	O 	0.35589 0.29801 0.52890 -0.34600
O 	O 	0.37906 0.21002 0.55374 -0.37400
O 	O 	0.42044 0.13720 0.37511 -0.34400
O 	O 	0.34327 0.28026 0.34773 -0.33000
O 	O 	0.37719 0.21019 0.31035 -0.36100
O 	O 	0.41417 0.12435 0.49379 -0.36900
O 	O 	0.38384 0.22683 0.42763 -0.72000
H 	H 	0.39664 0.24924 0.39995 0.16700
C 	C 	0.34626 0.32986 0.80307 0.29700
C 	C 	0.35446 0.33998 0.06385 0.31700
C 	C 	0.30834 0.43935 0.91205 0.31300
C 	C 	0.38326 0.22747 0.96430 0.31600
C 	C 	0.39857 0.49351 0.97306 0.32800
C 	C 	0.43692 0.38462 0.87225 0.30300
Ni	Ni	0.33633 0.32032 0.93661 1.11200
Ni	Ni	0.40267 0.35983 0.98022 1.12600
Ni	Ni	0.37239 0.42955 0.87343 1.13000
O 	O 	0.32606 0.32345 0.84597 -0.35300
O 	O 	0.36621 0.37440 0.80377 -0.35000
O 	O 	0.41633 0.44681 0.98108 -0.37500
O 	O 	0.33892 0.30558 0.02773 -0.34000
O 	O 	0.37241 0.38123 0.04271 -0.34600
O 	O 	0.41775 0.42968 0.86164 -0.35500
O 	O 	0.31360 0.39974 0.95337 -0.36500
O 	O 	0.32727 0.44522 0.86800 -0.36200
O 	O 	0.43259 0.34559 0.91584 -0.35400
O 	O 	0.36067 0.24138 0.92901 -0.36000
O 	O 	0.39700 0.26914 0.99722 -0.35700
O 	O 	0.37467 0.48927 0.93949 -0.36700
O 	O 	0.37269 0.35953 0.92146 -0.72500
H 	H 	0.38186 0.33064 0.89399 0.17200
C 	C 	0.64968 0.83599 0.25632 0.30600
C 	C 	0.63491 0.82806 0.99573 0.27200
C 	C 	0.69143 0.90726 0.13970 0.33000
C 	C 	0.59834 0.73317 0.09708 0.31500
C 	C 	0.60813 0.99797 0.07537 0.31800
C 	C 	0.56100 0.91584 0.18727 0.29400
Ni	Ni	0.65080 0.80775 0.12300 1.11600
Ni	Ni	0.58910 0.86991 0.07927 1.12700
Ni	Ni	0.62872 0.93430 0.17828 1.13100
O 	O 	0.66500 0.81335 0.21110 -0.35900
O 	O 	0.63106 0.88247 0.25072 -0.35800
O 	O 	0.58524 0.96067 0.07158 -0.35800
O 	O 	0.64459 0.78853 0.03421 -0.34400
O 	O 	0.61880 0.87429 0.01247 -0.33500
O 	O 	0.58419 0.95400 0.19174 -0.34000
O 	O 	0.67838 0.87709 0.09831 -0.36200
O 	O 	0.67478 0.93251 0.18056 -0.33700
O 	O 	0.55956 0.87442 0.14517 -0.36200
O 	O 	0.61808 0.74453 0.13849 -0.37100
O 	O 	0.58363 0.77768 0.06962 -0.34500
O 	O 	0.63206 0.98282 0.10495 -0.35500
O 	O 	0.61957 0.86180 0.13734 -0.71700
H 	H 	0.60824 0.84044 0.16809 0.17200
C 	C 	0.68532 0.73194 0.65143 0.30100
C 	C 	0.57971 0.86967 0.58603 0.32200
C 	C 	0.63098 0.78157 0.74844 0.32200
C 	C 	0.62943 0.78622 0.48864 0.29500
C 	C 	0.55430 0.69038 0.67236 0.31600
C 	C 	0.60346 0.60686 0.56617 0.31200
Ni	Ni	0.63593 0.81443 0.61904 1.12300
Ni	Ni	0.58098 0.73608 0.56420 1.12800
Ni	Ni	0.62094 0.68042 0.66850 1.12700
O 	O 	0.67561 0.76818 0.60991 -0.35300
O 	O 	0.66716 0.69206 0.67817 -0.34200
O 	O 	0.55503 0.73634 0.63597 -0.36700
O 	O 	0.59577 0.85729 0.63217 -0.35700
O 	O 	0.57038 0.82511 0.55265 -0.36000
O 	O 	0.62520 0.61817 0.60474 -0.36400
O 	O 	0.64421 0.81606 0.70936 -0.34500
O 	O 	0.61174 0.74049 0.73228 -0.36700
O 	O 	0.58048 0.64443 0.55897 -0.34900
O 	O 	0.63220 0.82949 0.52865 -0.36300
O 	O 	0.60713 0.74615 0.49161 -0.34300
O 	O 	0.57757 0.65387 0.67737 -0.35100
O 	O 	0.61746 0.73947 0.60866 -0.71500
H 	H 	0.63140 0.72073 0.58056 0.16900
C 	C 	0.91841 0.98913 0.24394 0.30100
C 	C 	0.81247 0.84318 0.20039 0.32800
C 	C 	0.86347 0.91665 0.34597 0.31900
C 	C 	0.86144 0.88630 0.08609 0.28400
C 	C 	0.88414 0.73254 0.28665 0.32100
C 	C 	0.94213 0.79535 0.18086 0.30000
Ni	Ni	0.85966 0.93205 0.21599 1.11800
Ni	Ni	0.87403 0.79471 0.17650 1.12900
Ni	Ni	0.91178 0.85514 0.28013 1.12500
O 	O 	0.89739 0.98402 0.20319 -0.35000
O 	O 	0.92305 0.94575 0.28413 -0.35200
O 	O 	0.86339 0.75117 0.25036 -0.36300
O 	O 	0.82542 0.87564 0.24033 -0.37400
O 	O 	0.82895 0.80996 0.16494 -0.34000
O 	O 	0.94486 0.83618 0.22340 -0.36100
O 	O 	0.86309 0.95680 0.30381 -0.35300
O 	O 	0.87838 0.86600 0.33978 -0.36300
O 	O 	0.91717 0.76247 0.17439 -0.35700
O 	O 	0.84927 0.92366 0.12563 -0.34700
O 	O 	0.87929 0.84111 0.10122 -0.34300
O 	O 	0.90869 0.76472 0.29488 -0.36600
O 	O 	0.88623 0.86708 0.21419 -0.72000
H 	H 	0.90090 0.88202 0.18532 0.17600
C 	C 	0.88019 0.00293 0.73172 0.31000
C 	C 	0.81017 0.78443 0.68938 0.32300
C 	C 	0.85250 0.88906 0.83788 0.32800
C 	C 	0.84168 0.89279 0.57752 0.29900
C 	C 	0.90072 0.74079 0.74722 0.32700
C 	C 	0.93688 0.85318 0.64691 0.29400
Ni	Ni	0.83455 0.90538 0.71139 1.11700
Ni	Ni	0.87320 0.80048 0.64795 1.13100
Ni	Ni	0.90174 0.87426 0.75437 1.12700
O 	O 	0.85611 0.98723 0.70085 -0.36800
O 	O 	0.89331 0.96429 0.76872 -0.34900
O 	O 	0.87622 0.74467 0.71613 -0.36300
O 	O 	0.81735 0.82146 0.73157 -0.36900
O 	O 	0.82849 0.77819 0.64443 -0.33700
O 	O 	0.93164 0.89108 0.69095 -0.36700
O 	O 	0.83765 0.92348 0.80117 -0.35200
O 	O 	0.87268 0.85108 0.81854 -0.37800
O 	O 	0.91881 0.80613 0.63558 -0.34200
O 	O 	0.82246 0.89777 0.62214 -0.34900
O 	O 	0.86441 0.85414 0.57879 -0.36000
O 	O 	0.91748 0.78860 0.75695 -0.36700
O 	O 	0.87203 0.87140 0.69484 -0.71900
H 	H 	0.88030 0.90084 0.66678 0.16500
C 	C 	0.13613 0.87222 0.06273 0.33000
C 	C 	0.14368 0.92298 0.32070 0.31800
C 	C 	0.19085 0.83534 0.17339 0.32100
C 	C 	0.08611 0.98279 0.21857 0.29400
C 	C 	0.12277 0.72913 0.27452 0.31800
C 	C 	0.06098 0.78670 0.17509 0.29300
Ni	Ni	0.14422 0.92474 0.18887 1.12700
Ni	Ni	0.09512 0.85262 0.26565 1.12500
Ni	Ni	0.12872 0.78526 0.16005 1.12500
O 	O 	0.15166 0.90839 0.09849 -0.33400
O 	O 	0.12011 0.82624 0.08281 -0.37000
O 	O 	0.09936 0.76346 0.28722 -0.36000
O 	O 	0.14373 0.95824 0.27448 -0.33900
O 	O 	0.13058 0.86999 0.31875 -0.36500
O 	O 	0.08559 0.75321 0.16627 -0.35000
O 	O 	0.17900 0.86973 0.21308 -0.35700
O 	O 	0.17333 0.80042 0.14137 -0.35700
O 	O 	0.05973 0.82861 0.21684 -0.36300
O 	O 	0.10583 0.97438 0.17597 -0.35300
O 	O 	0.08341 0.94341 0.26327 -0.33900
O 	O 	0.14210 0.74602 0.23453 -0.36700
O 	O 	0.11787 0.85965 0.19538 -0.72000
H 	H 	0.10196 0.87214 0.16800 0.16900
C 	C 	0.15976 0.91734 0.55254 0.30100
C 	C 	0.14833 0.87452 0.81173 0.32200
C 	C 	0.18750 0.78957 0.65138 0.31800
C 	C 	0.12168 0.00693 0.72596 0.31300
C 	C 	0.09815 0.74683 0.70368 0.33000
C 	C 	0.06165 0.87000 0.62181 0.30700
Ni	Ni	0.16637 0.91207 0.68874 1.11800
Ni	Ni	0.09856 0.87759 0.72804 1.12400
Ni	Ni	0.12566 0.82015 0.61196 1.12900
O 	O 	0.17819 0.91965 0.59892 -0.34100
O 	O 	0.13476 0.88482 0.55256 -0.36000
O 	O 	0.08169 0.79401 0.71698 -0.38200
O 	O 	0.16372 0.91388 0.78067 -0.35500
O 	O 	0.12751 0.84183 0.78671 -0.36900
O 	O 	0.08037 0.82875 0.59927 -0.35700
O 	O 	0.18693 0.82817 0.69510 -0.34800
O 	O 	0.16996 0.79788 0.60560 -0.36000
O 	O 	0.06940 0.90511 0.66660 -0.36300
O 	O 	0.14595 0.99629 0.69349 -0.35400
O 	O 	0.10831 0.96315 0.75643 -0.37400
O 	O 	0.12131 0.75174 0.66851 -0.36700
O 	O 	0.12841 0.88184 0.66919 -0.72300
H 	H 	0.12064 0.91614 0.64631 0.17100
C 	C 	0.41713 0.72630 0.07072 0.30000
C 	C 	0.31517 0.87985 0.12050 0.32200
C 	C 	0.37379 0.82130 0.97437 0.29300
C 	C 	0.36129 0.81147 0.23512 0.30200
C 	C 	0.39322 0.98776 0.05725 0.31000
C 	C 	0.44421 0.90947 0.17100 0.30000
Ni	Ni	0.36082 0.78892 0.10026 1.12400
Ni	Ni	0.37651 0.91729 0.16070 1.12700
Ni	Ni	0.41890 0.86518 0.05940 1.13200
O 	O 	0.39628 0.73060 0.11156 -0.35100
O 	O 	0.42859 0.77521 0.04440 -0.34000
O 	O 	0.37097 0.97327 0.09237 -0.35700
O 	O 	0.32899 0.85182 0.07854 -0.35000
O 	O 	0.33080 0.90583 0.16256 -0.34900
O 	O 	0.44829 0.87223 0.12579 -0.35600
O 	O 	0.36800 0.77661 0.01053 -0.33900
O 	O 	0.38897 0.86836 0.99246 -0.36200
O 	O 	0.41980 0.94421 0.17533 -0.35700
O 	O 	0.34697 0.78773 0.18903 -0.33800
O 	O 	0.37677 0.86262 0.23155 -0.35000
O 	O 	0.41816 0.95615 0.05742 -0.36300
O 	O 	0.38895 0.84871 0.11653 -0.71900
H 	H 	0.40121 0.82791 0.14627 0.17300
C 	C 	0.36689 0.75594 0.47693 0.29600
C 	C 	0.35003 0.77015 0.73618 0.32400
C 	C 	0.40436 0.85187 0.58623 0.32800
C 	C 	0.30216 0.69390 0.62914 0.30500
C 	C 	0.43251 0.68376 0.68398 0.32100
C 	C 	0.39199 0.58677 0.57516 0.30500
Ni	Ni	0.34834 0.78719 0.60441 1.11700
Ni	Ni	0.36703 0.66264 0.66883 1.12900
Ni	Ni	0.40981 0.71842 0.57017 1.12700
O 	O 	0.35754 0.79866 0.51419 -0.36100
O 	O 	0.38909 0.71841 0.49114 -0.35100
O 	O 	0.41059 0.64405 0.68861 -0.35000
O 	O 	0.33396 0.79075 0.69207 -0.36000
O 	O 	0.37092 0.72991 0.72759 -0.36100
O 	O 	0.41413 0.62698 0.57173 -0.36800
O 	O 	0.38485 0.83890 0.62679 -0.36400
O 	O 	0.41626 0.80817 0.55508 -0.36300
O 	O 	0.36877 0.59437 0.61115 -0.35200
O 	O 	0.31225 0.73173 0.58906 -0.35700
O 	O 	0.32042 0.66787 0.66872 -0.34600
O 	O 	0.43003 0.72913 0.64762 -0.36800
O 	O 	0.37073 0.71609 0.60393 -0.71800
H 	H 	0.35991 0.69248 0.57402 0.17300
C 	C 	0.33959 0.77860 0.89846 -0.02300
C 	C 	0.36297 0.81832 0.91278 -0.06100
C 	C 	0.37666 0.85244 0.86753 0.11100
C 	C 	0.36793 0.84361 0.80907 -0.01600
C 	C 	0.34766 0.79775 0.79447 -0.07100
C 	C 	0.33244 0.76693 0.83969 0.10800
N 	N 	0.31114 0.72078 0.82611 -0.02400
H 	H 	0.32799 0.75415 0.93285 0.08000
H 	H 	0.37945 0.86791 0.77443 0.08900
N 	N 	0.40105 0.89224 0.87999 -0.01800
O 	O 	0.32025 0.67018 0.80342 -0.09500
O 	O 	0.28390 0.72501 0.84605 -0.07700
O 	O 	0.42787 0.87056 0.88763 -0.08400
O 	O 	0.39714 0.95024 0.87682 -0.07100
C 	C 	0.34114 0.81032 0.39482 -0.02200
C 	C 	0.35780 0.76029 0.41416 -0.06100
C 	C 	0.36856 0.71857 0.37201 0.11000
C 	C 	0.36819 0.73393 0.31226 -0.02200
C 	C 	0.35475 0.78767 0.29388 -0.05700
C 	C 	0.33880 0.82301 0.33468 0.10900
N 	N 	0.31948 0.87051 0.31497 -0.02100
H 	H 	0.33030 0.83973 0.42632 0.08100
H 	H 	0.37863 0.70437 0.28033 0.08400
N 	N 	0.37808 0.65955 0.38926 -0.01900
O 	O 	0.29947 0.85982 0.27471 -0.07400
O 	O 	0.31994 0.92264 0.34105 -0.07800
O 	O 	0.36003 0.62493 0.41889 -0.08000
O 	O 	0.40352 0.63831 0.37046 -0.07500
C 	C 	0.25721 0.70236 0.69321 -0.02700
C 	C 	0.26927 0.69086 0.63744 -0.05900
C 	C 	0.25029 0.69511 0.58792 0.10700
C 	C 	0.22220 0.72342 0.59314 -0.02000
C 	C 	0.21240 0.74480 0.64795 -0.06600
C 	C 	0.22861 0.72828 0.69872 0.11200
N 	N 	0.21551 0.73493 0.75555 -0.01900
H 	H 	0.27055 0.69423 0.73207 0.09400
H 	H 	0.20845 0.72985 0.55448 0.09200
N 	N 	0.26011 0.67328 0.53184 -0.02000
O 	O 	0.19109 0.70583 0.76860 -0.05500
O 	O 	0.22762 0.77094 0.79386 -0.06600
O 	O 	0.27324 0.62107 0.52777 -0.07000
O 	O 	0.25586 0.70548 0.48481 -0.06700
C 	C 	0.14507 0.92970 0.90671 -0.02600
C 	C 	0.15026 0.87548 0.87643 -0.07400
C 	C 	0.15323 0.82133 0.90838 0.10400
C 	C 	0.14931 0.82141 0.96929 -0.01600
C 	C 	0.14218 0.87478 0.99911 -0.09400
C 	C 	0.14067 0.92956 0.96781 0.10600
N 	N 	0.13366 0.98470 0.99742 -0.03600
H 	H 	0.14300 0.97157 0.88252 0.07100
H 	H 	0.15161 0.77955 0.99348 0.06500
N 	N 	0.16120 0.76644 0.87948 -0.02000
O 	O 	0.15224 0.02981 0.99507 -0.07500
O 	O 	0.10779 0.99130 0.02302 -0.06400
O 	O 	0.18648 0.74040 0.89238 -0.06500
O 	O 	0.14092 0.73663 0.85052 -0.07100
C 	C 	0.18124 0.90273 0.39813 -0.01600
C 	C 	0.15952 0.94142 0.37457 -0.06300
C 	C 	0.14827 0.98873 0.40971 0.11000
C 	C 	0.15388 0.98834 0.47044 -0.02900
C 	C 	0.17004 0.94077 0.49574 -0.05900
C 	C 	0.18692 0.90273 0.45877 0.10500
N 	N 	0.20749 0.85990 0.48324 -0.02100
H 	H 	0.19196 0.86953 0.37020 0.08800
H 	H 	0.14305 0.02126 0.49851 0.08800
N 	N 	0.13040 0.03584 0.38450 -0.02100
O 	O 	0.20866 0.80533 0.46247 -0.07700
O 	O 	0.22653 0.87665 0.52333 -0.08100
O 	O 	0.10713 0.05607 0.41273 -0.08200
O 	O 	0.13992 0.06448 0.33827 -0.06300
C 	C 	0.24010 0.80054 0.13484 -0.01300
C 	C 	0.22189 0.84790 0.15416 -0.07000
C 	C 	0.23403 0.90687 0.15822 0.11000
C 	C 	0.26441 0.91664 0.14660 -0.01200
C 	C 	0.28283 0.86901 0.12901 -0.06600
C 	C 	0.27039 0.81063 0.12195 0.11000
N 	N 	0.28857 0.76123 0.10300 -0.03200
H 	H 	0.23095 0.75545 0.13098 0.08300
H 	H 	0.27364 0.96163 0.15092 0.08300
N 	N 	0.21541 0.95715 0.17284 -0.03200
O 	O 	0.29665 0.72023 0.14062 -0.09500
O 	O 	0.29245 0.75174 0.04715 -0.08900
O 	O 	0.21627 0.97957 0.22560 -0.08000
O 	O 	0.20118 0.98578 0.13154 -0.09600
C 	C 	0.98018 0.91218 0.60891 -0.02500
C 	C 	0.96689 0.85564 0.61901 -0.06200
C 	C 	0.98479 0.80330 0.61495 0.10400
C 	C 	0.01584 0.80852 0.60784 -0.02500
C 	C 	0.02952 0.86538 0.60697 -0.06500
C 	C 	0.01146 0.91740 0.60344 0.10500
N 	N 	0.02480 0.97558 0.59537 -0.02200
H 	H 	0.96641 0.95246 0.60886 0.07900
H 	H 	0.02955 0.76817 0.60843 0.08500
N 	N 	0.97203 0.74511 0.62401 -0.01900
O 	O 	0.04437 0.98402 0.55380 -0.07100
O 	O 	0.01661 0.02064 0.62824 -0.06800
O 	O 	0.95937 0.71705 0.58044 -0.06500
O 	O 	0.97669 0.71702 0.67330 -0.07400
C 	C 	0.98450 0.72402 0.17307 -0.02000
C 	C 	0.96980 0.77534 0.15161 -0.06000
C 	C 	0.98592 0.81634 0.11646 0.10600
C 	C 	0.01732 0.81235 0.11381 -0.02200
C 	C 	0.03251 0.76893 0.14731 -0.05900
C 	C 	0.01596 0.72046 0.17098 0.10700
N 	N 	0.03100 0.66980 0.19656 -0.02200
H 	H 	0.97185 0.68975 0.19628 0.07900
H 	H 	0.02998 0.84706 0.09126 0.07600
N 	N 	0.97069 0.86477 0.08730 -0.02300
O 	O 	0.02159 0.64746 0.24608 -0.08100
O 	O 	0.05202 0.64222 0.16744 -0.06500
O 	O 	0.98175 0.91901 0.08868 -0.07100
O 	O 	0.94607 0.85440 0.05840 -0.07400
C 	C 	0.83910 0.84205 0.93266 0.01000
C 	C 	0.84710 0.89390 0.90133 -0.09800
C 	C 	0.85483 0.94693 0.93219 0.13400
C 	C 	0.85783 0.94519 0.99353 -0.10500
C 	C 	0.85246 0.89153 0.02418 0.01700
C 	C 	0.84133 0.84088 0.99386 0.03800
N 	N 	0.83190 0.78848 0.02524 -0.00700
H 	H 	0.83209 0.80185 0.90930 0.06700
H 	H 	0.86529 0.98500 0.01697 0.11800
N 	N 	0.86063 0.00195 0.90136 -0.02600
O 	O 	0.80454 0.78492 0.04468 -0.06500
O 	O 	0.84940 0.74171 0.02823 -0.07100
O 	O 	0.83924 0.02787 0.87188 -0.07500
O 	O 	0.88569 0.03053 0.91007 -0.07600
C 	C 	0.85167 0.96759 0.50062 -0.02300
C 	C 	0.83404 0.91962 0.52082 -0.06600
C 	C 	0.81793 0.88487 0.47980 0.11000
C 	C 	0.82524 0.88879 0.42001 -0.01800
C 	C 	0.84767 0.92871 0.40132 -0.06800
C 	C 	0.85889 0.97191 0.44089 0.10500
N 	N 	0.87981 0.01651 0.42163 -0.02100
H 	H 	0.86257 0.99718 0.53193 0.06800
H 	H 	0.81491 0.85828 0.38881 0.08700
N 	N 	0.79619 0.84167 0.49935 -0.02100
O 	O 	0.87135 0.05826 0.38511 -0.06700
O 	O 	0.90664 0.01804 0.44395 -0.08500
O 	O 	0.77565 0.85738 0.53691 -0.07400
O 	O 	0.79663 0.78693 0.47891 -0.06600
C 	C 	0.51003 0.71495 0.73355 -0.02000
C 	C 	0.52527 0.67310 0.69830 -0.06600
C 	C 	0.50954 0.62281 0.67619 0.10600
C 	C 	0.47818 0.62074 0.68085 -0.02500
C 	C 	0.46253 0.66890 0.70648 -0.06700
C 	C 	0.47864 0.71277 0.73820 0.10800
N 	N 	0.46304 0.75777 0.77157 -0.02100
H 	H 	0.52229 0.75167 0.75379 0.08000
H 	H 	0.46590 0.58490 0.65916 0.08300
N 	N 	0.52500 0.57667 0.64436 -0.02100
O 	O 	0.44072 0.74247 0.80526 -0.07300
O 	O 	0.47117 0.81399 0.76844 -0.07000
O 	O 	0.54386 0.54159 0.67138 -0.07100
O 	O 	0.51868 0.56703 0.58939 -0.08200
C 	C 	0.73839 0.69605 0.65889 -0.02300
C 	C 	0.71662 0.73999 0.67191 -0.05600
C 	C 	0.72601 0.79701 0.69262 0.09800
C 	C 	0.75642 0.81023 0.69772 -0.01100
C 	C 	0.77822 0.76748 0.68321 -0.07200
C 	C 	0.76923 0.70941 0.66470 0.11400
N 	N 	0.79110 0.66397 0.65210 -0.02200
H 	H 	0.73150 0.65224 0.64272 0.08200
H 	H 	0.76312 0.85488 0.71199 0.05700
N 	N 	0.70469 0.84264 0.70689 -0.01900
O 	O 	0.81024 0.64775 0.69222 -0.07000
O 	O 	0.79051 0.63582 0.60200 -0.07000
O 	O 	0.69983 0.85573 0.76174 -0.08500
O 	O 	0.69576 0.87970 0.66622 -0.11100
C 	C 	0.51703 0.88206 0.24375 -0.02000
C 	C 	0.53289 0.92998 0.21818 -0.05700
C 	C 	0.51686 0.98215 0.20210 0.10300
C 	C 	0.48563 0.97903 0.19551 -0.02500
C 	C 	0.47060 0.92468 0.20664 -0.05600
C 	C 	0.48576 0.87865 0.23720 0.10800
N 	N 	0.46986 0.82633 0.25713 -0.02300
H 	H 	0.52919 0.84406 0.26185 0.07700
H 	H 	0.47361 0.01671 0.17640 0.08400
N 	N 	0.53243 0.03632 0.18702 -0.01700
O 	O 	0.48103 0.77283 0.24877 -0.07000
O 	O 	0.44422 0.83218 0.28382 -0.07900
O 	O 	0.52979 0.05902 0.13460 -0.07400
O 	O 	0.54795 0.06469 0.22667 -0.06800
C 	C 	0.63803 0.85253 0.83179 -0.01500
C 	C 	0.63572 0.79304 0.81142 -0.07000
C 	C 	0.63698 0.74483 0.85180 0.10600
C 	C 	0.63808 0.75673 0.91203 -0.02700
C 	C 	0.63891 0.81629 0.93258 -0.06400
C 	C 	0.64043 0.86435 0.89200 0.10100
N 	N 	0.64500 0.92499 0.91173 -0.01900
H 	H 	0.63793 0.88969 0.80087 0.08900
H 	H 	0.63767 0.71950 0.94288 0.07200
N 	N 	0.63769 0.68375 0.83172 -0.02500
O 	O 	0.66809 0.93811 0.94421 -0.07900
O 	O 	0.62713 0.96770 0.89422 -0.08400
O 	O 	0.66119 0.66356 0.80418 -0.09100
O 	O 	0.61644 0.64667 0.84675 -0.09400
C 	C 	0.65205 0.75738 0.33311 -0.02200
C 	C 	0.65767 0.81684 0.31564 -0.06800
C 	C 	0.66459 0.86044 0.35838 0.11000
C 	C 	0.65782 0.84876 0.41718 -0.02400
C 	C 	0.64651 0.79210 0.43348 -0.06300
C 	C 	0.64823 0.74400 0.39294 0.10700
N 	N 	0.64971 0.68251 0.41287 -0.01600
H 	H 	0.64978 0.72225 0.30035 0.07700
H 	H 	0.66033 0.88418 0.44957 0.08100
N 	N 	0.67853 0.91627 0.34198 -0.02100
O 	O 	0.64498 0.63858 0.37613 -0.07100
O 	O 	0.65991 0.67037 0.46512 -0.08300
O 	O 	0.67109 0.96609 0.36834 -0.08200
O 	O 	0.70037 0.91647 0.30408 -0.07400
C 	C 	0.73157 0.83087 0.15229 -0.01000
C 	C 	0.72268 0.89174 0.15356 -0.07700
C 	C 	0.74348 0.93645 0.16935 0.11500
C 	C 	0.77288 0.91998 0.18368 -0.01600
C 	C 	0.78163 0.85900 0.18342 -0.07500
C 	C 	0.76071 0.81420 0.16823 0.11300
N 	N 	0.76853 0.75163 0.17142 -0.02100
H 	H 	0.71550 0.79620 0.14069 0.04400
H 	H 	0.78902 0.95474 0.19464 0.05500
N 	N 	0.73497 0.99869 0.17032 -0.02600
O 	O 	0.76281 0.71617 0.12732 -0.06300
O 	O 	0.77828 0.72893 0.22051 -0.06400
O 	O 	0.73918 0.03064 0.21750 -0.06600
O 	O 	0.72494 0.02441 0.12287 -0.05800
C 	C 	0.41553 0.66071 0.98277 -0.06600
C 	C 	0.42157 0.66697 0.04298 -0.02300
C 	C 	0.42415 0.61492 0.07820 0.08900
C 	C 	0.41698 0.55829 0.05461 0.02300
C 	C 	0.40786 0.55295 0.99588 -0.11000
C 	C 	0.40845 0.60416 0.95909 0.12700
N 	N 	0.40193 0.59900 0.89774 -0.02500
H 	H 	0.41453 0.70032 0.95494 0.08800
H 	H 	0.41806 0.51860 0.08228 0.08000
N 	N 	0.43346 0.61966 0.13829 -0.01800
O 	O 	0.38037 0.63069 0.87480 -0.08700
O 	O 	0.41954 0.56779 0.86384 -0.09300
O 	O 	0.41897 0.59077 0.17912 -0.06800
O 	O 	0.45702 0.65129 0.15195 -0.06000
C 	C 	0.41715 0.08406 0.02623 -0.04200
C 	C 	0.39217 0.04554 0.02526 -0.02100
C 	C 	0.36566 0.06425 0.99701 0.06900
C 	C 	0.36358 0.12274 0.97434 -0.00100
C 	C 	0.38787 0.16295 0.97883 -0.09900
C 	C 	0.41529 0.14234 0.00255 0.14900
N 	N 	0.44140 0.17993 0.00178 -0.01200
H 	H 	0.43792 0.06918 0.04629 0.08900
H 	H 	0.34269 0.13737 0.95461 0.07100
N 	N 	0.34067 0.02406 0.99158 -0.02600
O 	O 	0.45688 0.18791 0.04957 -0.06700
O 	O 	0.45092 0.20255 0.95249 -0.08000
O 	O 	0.31448 0.03991 0.01140 -0.05800
O 	O 	0.34371 0.97317 0.96383 -0.08000
C 	C 	0.40223 0.41845 0.56247 -0.01700
C 	C 	0.40850 0.41241 0.50238 -0.07000
C 	C 	0.41143 0.46430 0.46715 0.11300
C 	C 	0.40584 0.52117 0.49147 -0.02500
C 	C 	0.39738 0.52668 0.55052 -0.06100
C 	C 	0.39668 0.47515 0.58671 0.10600
N 	N 	0.39097 0.48037 0.64836 -0.02000
H 	H 	0.40046 0.37873 0.59001 0.07600
H 	H 	0.40835 0.56110 0.46458 0.08900
N 	N 	0.42019 0.45937 0.40677 -0.02100
O 	O 	0.36770 0.45397 0.67125 -0.08800
O 	O 	0.41068 0.50584 0.68237 -0.08800
O 	O 	0.40528 0.48804 0.36640 -0.06300
O 	O 	0.44393 0.42859 0.39249 -0.07300
C 	C 	0.39554 0.02068 0.57344 -0.01800
C 	C 	0.39289 0.02724 0.51237 -0.06800
C 	C 	0.39649 0.97661 0.47564 0.10300
C 	C 	0.40251 0.92026 0.50026 -0.02000
C 	C 	0.40433 0.91318 0.56144 -0.08000
C 	C 	0.40147 0.96406 0.59819 0.10000
N 	N 	0.40515 0.95860 0.66050 -0.02100
H 	H 	0.39373 0.05989 0.60166 0.07200
H 	H 	0.40456 0.88138 0.47170 0.08100
N 	N 	0.39465 0.98239 0.41311 -0.02400
O 	O 	0.42922 0.93381 0.68193 -0.06800
O 	O 	0.38526 0.98154 0.69582 -0.08400
O 	O 	0.41695 0.96460 0.38064 -0.07100
O 	O 	0.36909 0.99511 0.38860 -0.09300
C 	C 	0.36591 0.23208 0.67513 -0.02000
C 	C 	0.35141 0.26345 0.62959 -0.07100
C 	C 	0.32889 0.30580 0.64416 0.10900
C 	C 	0.32518 0.32400 0.70269 -0.02200
C 	C 	0.34202 0.29708 0.74747 -0.06200
C 	C 	0.36037 0.24726 0.73407 0.10000
N 	N 	0.37203 0.21009 0.78009 -0.02400
H 	H 	0.38148 0.19606 0.66498 0.07600
H 	H 	0.30967 0.36009 0.71309 0.07800
N 	N 	0.30826 0.32660 0.60070 -0.02100
O 	O 	0.35377 0.18549 0.81762 -0.08400
O 	O 	0.40006 0.19400 0.77949 -0.07000
O 	O 	0.28735 0.29069 0.58172 -0.06500
O 	O 	0.30769 0.38337 0.58650 -0.06700
C 	C 	0.38381 0.30993 0.21801 -0.02200
C 	C 	0.35820 0.28701 0.24566 -0.06000
C 	C 	0.33082 0.28454 0.21455 0.10800
C 	C 	0.32958 0.30426 0.15594 -0.01900
C 	C 	0.35551 0.32526 0.12751 -0.06600
C 	C 	0.38275 0.32867 0.15931 0.10800
N 	N 	0.40968 0.34884 0.13154 -0.02700
H 	H 	0.40489 0.31171 0.24168 0.07400
H 	H 	0.30856 0.30174 0.13213 0.08300
N 	N 	0.30459 0.25949 0.24131 -0.01900
O 	O 	0.41844 0.40432 0.13826 -0.08200
O 	O 	0.42734 0.31007 0.10629 -0.09400
O 	O 	0.28039 0.29185 0.24586 -0.07100
O 	O 	0.30374 0.20242 0.25429 -0.07400
C 	C 	0.09184 0.57850 0.71853 -0.02000
C 	C 	0.08718 0.57328 0.77907 -0.06700
C 	C 	0.08092 0.62505 0.81272 0.11000
C 	C 	0.08228 0.68195 0.78646 -0.01300
C 	C 	0.08992 0.68749 0.72702 -0.07300
C 	C 	0.09271 0.63532 0.69202 0.11300
N 	N 	0.09624 0.63997 0.62963 -0.02100
H 	H 	0.09621 0.53863 0.69254 0.08600
H 	H 	0.07869 0.72194 0.81290 0.07500
N 	N 	0.07371 0.61994 0.87381 -0.02300
O 	O 	0.11752 0.61032 0.60329 -0.08000
O 	O 	0.07703 0.67069 0.59876 -0.09000
O 	O 	0.08763 0.65308 0.91226 -0.08100
O 	O 	0.05217 0.58442 0.89066 -0.07200
C 	C 	0.11016 0.08486 0.80148 -0.02000
C 	C 	0.11493 0.07001 0.74217 -0.06800
C 	C 	0.11558 0.11621 0.69964 0.10700
C 	C 	0.11409 0.17671 0.71743 -0.02400
C 	C 	0.11149 0.19157 0.77722 -0.06200
C 	C 	0.10824 0.14529 0.81912 0.10100
N 	N 	0.10308 0.15950 0.87969 -0.02000
H 	H 	0.10863 0.04951 0.83419 0.07500
H 	H 	0.11587 0.21217 0.68485 0.08300
N 	N 	0.11764 0.10191 0.63839 -0.02100
O 	O 	0.08119 0.19524 0.89435 -0.08700
O 	O 	0.11920 0.13412 0.92037 -0.07700
O 	O 	0.09829 0.06549 0.61453 -0.07500
O 	O 	0.13779 0.12796 0.60581 -0.08400
C 	C 	0.22694 0.46825 0.94572 -0.01800
C 	C 	0.21592 0.48074 0.88930 -0.07600
C 	C 	0.23637 0.49536 0.84412 0.10700
C 	C 	0.26727 0.48717 0.85322 -0.02700
C 	C 	0.27798 0.46686 0.90785 -0.06500
C 	C 	0.25787 0.46383 0.95576 0.08100
N 	N 	0.26876 0.45655 0.01456 -0.00500
H 	H 	0.21157 0.45847 0.98107 0.07100
H 	H 	0.28271 0.49452 0.81720 0.08300
N 	N 	0.22578 0.51713 0.78858 -0.02100
O 	O 	0.28926 0.49270 0.03485 -0.06000
O 	O 	0.25689 0.41622 0.04892 -0.08200
O 	O 	0.20643 0.56098 0.78658 -0.06500
O 	O 	0.23629 0.49461 0.74000 -0.08300
C 	C 	0.15592 0.57947 0.32155 -0.02400
C 	C 	0.13107 0.54099 0.31524 -0.06000
C 	C 	0.10252 0.56626 0.30459 0.10500
C 	C 	0.09954 0.62884 0.29608 -0.02200
C 	C 	0.12475 0.66678 0.29834 -0.06800
C 	C 	0.15285 0.64210 0.31392 0.10600
N 	N 	0.17836 0.68051 0.32197 -0.02000
H 	H 	0.17779 0.56075 0.33140 0.08000
H 	H 	0.07773 0.64763 0.28624 0.09100
N 	N 	0.07643 0.52882 0.30356 -0.02300
O 	O 	0.17668 0.72675 0.35696 -0.07300
O 	O 	0.20365 0.66773 0.29635 -0.07500
O 	O 	0.06725 0.50290 0.35153 -0.07600
O 	O 	0.06064 0.52422 0.25576 -0.06100
C 	C 	0.07138 0.12621 0.29553 -0.01200
C 	C 	0.08424 0.16516 0.25380 -0.06800
C 	C 	0.08571 0.14690 0.19470 0.11900
C 	C 	0.07949 0.08680 0.18013 -0.02800
C 	C 	0.07352 0.04452 0.22474 -0.04700
C 	C 	0.06459 0.06627 0.28021 0.10800
N 	N 	0.04597 0.03022 0.31782 -0.01500
H 	H 	0.06716 0.14215 0.33976 0.07600
H 	H 	0.08238 0.07180 0.13517 0.09600
N 	N 	0.09521 0.18812 0.15001 -0.02300
O 	O 	0.04724 0.03691 0.37453 -0.06900
O 	O 	0.02564 0.99517 0.29514 -0.08500
O 	O 	0.11732 0.17391 0.11540 -0.05800
O 	O 	0.08006 0.23723 0.14046 -0.06100
C 	C 	0.13052 0.39913 0.54942 -0.02100
C 	C 	0.15661 0.37322 0.52659 -0.06900
C 	C 	0.18099 0.36156 0.56424 0.10800
C 	C 	0.17759 0.36914 0.62492 -0.01800
C 	C 	0.14971 0.38613 0.64840 -0.07300
C 	C 	0.12588 0.40103 0.60995 0.10600
N 	N 	0.09608 0.41019 0.63171 -0.02200
H 	H 	0.11210 0.40995 0.52014 0.07300
H 	H 	0.19629 0.35955 0.65388 0.07800
N 	N 	0.20864 0.33896 0.54139 -0.02100
O 	O 	0.08115 0.45782 0.61578 -0.08700
O 	O 	0.08207 0.36603 0.65740 -0.11600
O 	O 	0.22789 0.37574 0.51779 -0.06800
O 	O 	0.21525 0.28216 0.54691 -0.07300
C 	C 	0.17247 0.41787 0.12508 -0.01200
C 	C 	0.17771 0.36256 0.15230 -0.07700
C 	C 	0.18452 0.31171 0.11771 0.12000
C 	C 	0.18036 0.31438 0.05670 -0.03000
C 	C 	0.16893 0.36693 0.03090 -0.03800
C 	C 	0.16624 0.42001 0.06520 0.09600
N 	N 	0.15449 0.47454 0.04069 -0.02200
H 	H 	0.16895 0.45783 0.15166 0.07800
H 	H 	0.18404 0.27452 0.03013 0.09000
N 	N 	0.19450 0.25683 0.14471 -0.02300
O 	O 	0.12560 0.48232 0.03850 -0.08900
O 	O 	0.17205 0.52093 0.03470 -0.07400
O 	O 	0.18463 0.20511 0.12597 -0.05800
O 	O 	0.21428 0.25846 0.18669 -0.06200
C 	C 	0.23901 0.26798 0.39557 -0.00600
C 	C 	0.21982 0.22199 0.37729 -0.07500
C 	C 	0.23105 0.16317 0.36914 0.11700
C 	C 	0.26147 0.15121 0.38033 -0.01600
C 	C 	0.28079 0.19803 0.39729 -0.06600
C 	C 	0.26943 0.25734 0.40291 0.11300
N 	N 	0.28904 0.30778 0.41049 -0.03500
H 	H 	0.23062 0.31358 0.39990 0.06200
H 	H 	0.27005 0.10580 0.37525 0.08300
N 	N 	0.21193 0.11592 0.34842 -0.02200
O 	O 	0.29221 0.34601 0.36762 -0.08300
O 	O 	0.29699 0.32363 0.46316 -0.11300
O 	O 	0.19934 0.12027 0.29705 -0.05500
O 	O 	0.20987 0.06582 0.37780 -0.07500
C 	C 	0.91503 0.57469 0.76192 -0.01600
C 	C 	0.90786 0.56657 0.82108 -0.07000
C 	C 	0.90526 0.61712 0.85825 0.10800
C 	C 	0.90591 0.67512 0.83401 -0.01800
C 	C 	0.90882 0.68278 0.77316 -0.07100
C 	C 	0.91435 0.63213 0.73704 0.11500
N 	N 	0.91890 0.63859 0.67502 -0.01700
H 	H 	0.91917 0.53587 0.73426 0.08700
H 	H 	0.90267 0.71403 0.86213 0.07400
N 	N 	0.90224 0.60972 0.92048 -0.02200
O 	O 	0.94176 0.61224 0.65050 -0.06000
O 	O 	0.89716 0.65825 0.64211 -0.08500
O 	O 	0.92157 0.57729 0.94937 -0.09200
O 	O 	0.88111 0.63792 0.94868 -0.08100
C 	C 	0.90322 0.14839 0.80332 -0.02200
C 	C 	0.88160 0.18694 0.77909 -0.06000
C 	C 	0.86541 0.16867 0.72920 0.10800
C 	C 	0.86815 0.10978 0.70850 -0.02200
C 	C 	0.88658 0.06827 0.73791 -0.06200
C 	C 	0.90688 0.08982 0.78083 0.11600
N 	N 	0.93294 0.05544 0.79640 -0.01800
H 	H 	0.91771 0.16437 0.83822 0.08700
H 	H 	0.85476 0.09555 0.67127 0.08000
N 	N 	0.84614 0.21000 0.69939 -0.02000
O 	O 	0.94248 0.05516 0.85039 -0.07000
O 	O 	0.94895 0.02997 0.75556 -0.08100
O 	O 	0.85622 0.24048 0.65479 -0.07800
O 	O 	0.81783 0.21236 0.71281 -0.08600
C 	C 	0.98140 0.41974 0.95963 -0.02600
C 	C 	0.96651 0.36842 0.93830 -0.06300
C 	C 	0.98342 0.31611 0.92605 0.10500
C 	C 	0.01475 0.32023 0.92170 -0.02500
C 	C 	0.02917 0.37572 0.93097 -0.06000
C 	C 	0.01285 0.42276 0.95807 0.10600
N 	N 	0.02803 0.47079 0.98786 -0.02900
H 	H 	0.96864 0.45805 0.97534 0.08400
H 	H 	0.02760 0.28142 0.90750 0.08600
N 	N 	0.96881 0.25938 0.91640 -0.01900
O 	O 	0.01808 0.52572 0.98344 -0.07200
O 	O 	0.04901 0.45848 0.02572 -0.04300
O 	O 	0.97719 0.22481 0.87325 -0.08100
O 	O 	0.94759 0.24164 0.95161 -0.08200
C 	C 	0.85070 0.58617 0.33946 -0.02400
C 	C 	0.87318 0.54497 0.32307 -0.05700
C 	C 	0.90137 0.56720 0.30463 0.10200
C 	C 	0.90565 0.62945 0.29708 -0.01800
C 	C 	0.88239 0.67017 0.30936 -0.07200
C 	C 	0.85537 0.64851 0.33372 0.11200
N 	N 	0.83266 0.68978 0.35293 -0.02000
H 	H 	0.82942 0.56992 0.35610 0.08500
H 	H 	0.92678 0.64588 0.27983 0.07600
N 	N 	0.92598 0.52706 0.29542 -0.02300
O 	O 	0.80468 0.68009 0.33978 -0.06500
O 	O 	0.83975 0.73517 0.38633 -0.07400
O 	O 	0.93475 0.51483 0.24227 -0.08200
O 	O 	0.94197 0.50926 0.33990 -0.07600
C 	C 	0.92251 0.15481 0.22679 -0.01600
C 	C 	0.92232 0.17101 0.28624 -0.07300
C 	C 	0.93262 0.12946 0.32836 0.11500
C 	C 	0.93651 0.06882 0.31267 -0.02100
C 	C 	0.93075 0.05022 0.25475 -0.05200
C 	C 	0.92818 0.09479 0.21065 0.10400
N 	N 	0.93041 0.07876 0.14979 -0.01900
H 	H 	0.91714 0.18800 0.19348 0.07800
H 	H 	0.94209 0.03595 0.34610 0.09200
N 	N 	0.93978 0.14906 0.38648 -0.02200
O 	O 	0.91187 0.10162 0.11173 -0.06400
O 	O 	0.95114 0.04158 0.13237 -0.05900
O 	O 	0.91953 0.14740 0.42752 -0.08400
O 	O 	0.96588 0.17274 0.39727 -0.07400
C 	C 	0.98318 0.34001 0.33015 -0.01400
C 	C 	0.97011 0.33904 0.38601 -0.06500
C 	C 	0.98826 0.33209 0.43624 0.11400
C 	C 	0.01945 0.32743 0.42974 -0.02000
C 	C 	0.03240 0.32978 0.37362 -0.06300
C 	C 	0.01400 0.33433 0.32363 0.11000
N 	N 	0.02648 0.33040 0.26592 -0.02400
H 	H 	0.96923 0.34431 0.29139 0.06900
H 	H 	0.03359 0.32342 0.46828 0.07800
N 	N 	0.97524 0.33112 0.49372 -0.02100
O 	O 	0.02468 0.27998 0.23699 -0.07200
O 	O 	0.03491 0.37921 0.23894 -0.07900
O 	O 	0.98113 0.28686 0.52936 -0.07000
O 	O 	0.95931 0.37655 0.51195 -0.07300
C 	C 	0.85297 0.42943 0.56783 -0.02000
C 	C 	0.83541 0.38371 0.54293 -0.06500
C 	C 	0.81570 0.35070 0.57896 0.11300
C 	C 	0.81648 0.35857 0.63997 -0.01700
C 	C 	0.83793 0.39683 0.66566 -0.06300
C 	C 	0.85385 0.43723 0.62902 0.10800
N 	N 	0.86950 0.48778 0.65323 -0.02000
H 	H 	0.86677 0.45759 0.53983 0.07600
H 	H 	0.80198 0.33136 0.66744 0.08800
N 	N 	0.79648 0.30588 0.55423 -0.02300
O 	O 	0.89619 0.50113 0.63425 -0.08000
O 	O 	0.85557 0.52496 0.68801 -0.06900
O 	O 	0.80708 0.25278 0.54180 -0.06800
O 	O 	0.76778 0.31557 0.55128 -0.06300
C 	C 	0.80946 0.37091 0.07138 -0.03600
C 	C 	0.82296 0.32196 0.04289 -0.03300
C 	C 	0.83250 0.27238 0.07650 0.09900
C 	C 	0.83402 0.27758 0.13787 -0.01300
C 	C 	0.82674 0.33246 0.16536 -0.07500
C 	C 	0.81201 0.37738 0.13241 0.11700
N 	N 	0.80154 0.43129 0.15991 -0.02000
H 	H 	0.80018 0.40727 0.04561 0.09400
H 	H 	0.84297 0.24063 0.16363 0.08000
N 	N 	0.84280 0.21849 0.04823 -0.02000
O 	O 	0.81746 0.48031 0.15710 -0.06400
O 	O 	0.77542 0.43215 0.18528 -0.06800
O 	O 	0.86730 0.19235 0.06589 -0.06800
O 	O 	0.82759 0.19533 0.00502 -0.06200
C 	C 	0.57626 0.58880 0.01983 -0.02900
C 	C 	0.60452 0.56204 0.01159 -0.03900
C 	C 	0.63041 0.59100 0.03267 0.10000
C 	C 	0.62794 0.64661 0.06069 -0.01200
C 	C 	0.59976 0.67363 0.06898 -0.07700
C 	C 	0.57372 0.64431 0.04880 0.11700
N 	N 	0.54467 0.66978 0.05902 -0.02200
H 	H 	0.55623 0.56630 0.00414 0.09900
H 	H 	0.64807 0.66900 0.07607 0.06000
N 	N 	0.65927 0.56337 0.02679 -0.00600
O 	O 	0.52614 0.67701 0.01547 -0.06700
O 	O 	0.53583 0.68093 0.11238 -0.06800
O 	O 	0.68024 0.59014 0.99686 -0.10400
O 	O 	0.66523 0.51370 0.05483 -0.07500
C 	C 	0.59244 0.07169 0.99903 -0.03600
C 	C 	0.60504 0.06039 0.05444 -0.03700
C 	C 	0.61634 0.10882 0.08814 0.11600
C 	C 	0.61641 0.16692 0.06481 -0.03600
C 	C 	0.60502 0.17782 0.00855 -0.00200
C 	C 	0.59220 0.13035 0.97604 0.07700
N 	N 	0.57815 0.14176 0.92062 -0.01700
H 	H 	0.58314 0.03490 0.97354 0.08300
H 	H 	0.62579 0.20369 0.09028 0.08600
N 	N 	0.62788 0.09907 0.14605 -0.02400
O 	O 	0.58540 0.10973 0.87492 -0.06400
O 	O 	0.55608 0.17997 0.91719 -0.07300
O 	O 	0.65548 0.11334 0.15818 -0.07400
O 	O 	0.61008 0.08128 0.18782 -0.09200
C 	C 	0.48162 0.44566 0.84772 -0.02500
C 	C 	0.46734 0.38934 0.84772 -0.06100
C 	C 	0.48467 0.33700 0.83906 0.11000
C 	C 	0.51590 0.34010 0.84553 -0.02300
C 	C 	0.52977 0.39558 0.85716 -0.06000
C 	C 	0.51282 0.44909 0.85232 0.10600
N 	N 	0.52697 0.50679 0.85625 -0.01800
H 	H 	0.46844 0.48665 0.84951 0.08800
H 	H 	0.52914 0.29915 0.84496 0.09300
N 	N 	0.47062 0.28120 0.82303 -0.01900
O 	O 	0.54214 0.52757 0.81187 -0.07200
O 	O 	0.52196 0.54116 0.90147 -0.09000
O 	O 	0.44814 0.28118 0.78664 -0.07400
O 	O 	0.48191 0.23022 0.84060 -0.06100
C 	C 	0.76156 0.49040 0.84767 -0.02300
C 	C 	0.77960 0.48471 0.89790 -0.06700
C 	C 	0.76569 0.48940 0.95336 0.09200
C 	C 	0.73475 0.47730 0.95782 -0.05100
C 	C 	0.71758 0.46785 0.90675 -0.05600
C 	C 	0.73060 0.48097 0.85158 0.10100
N 	N 	0.71274 0.48314 0.79949 -0.01800
H 	H 	0.77188 0.49567 0.80486 0.08200
H 	H 	0.72418 0.47479 0.00059 0.11500
N 	N 	0.78151 0.51517 0.00234 0.00000
O 	O 	0.69539 0.52921 0.78978 -0.07500
O 	O 	0.71577 0.44175 0.75947 -0.08300
O 	O 	0.80369 0.55215 0.99320 -0.08500
O 	O 	0.77113 0.50860 0.05538 -0.06700
C 	C 	0.58500 0.47183 0.46993 -0.01900
C 	C 	0.59327 0.42428 0.50709 -0.06100
C 	C 	0.60196 0.43705 0.56539 0.10700
C 	C 	0.60668 0.49670 0.58277 -0.01600
C 	C 	0.60000 0.54440 0.54473 -0.05800
C 	C 	0.58700 0.53175 0.48933 0.11300
N 	N 	0.57387 0.57872 0.45472 -0.02000
H 	H 	0.57717 0.46236 0.42579 0.08800
H 	H 	0.61414 0.50598 0.62718 0.08100
N 	N 	0.60500 0.38988 0.60774 -0.02000
O 	O 	0.59034 0.62264 0.43516 -0.07000
O 	O 	0.54580 0.57541 0.43955 -0.07100
O 	O 	0.62850 0.38874 0.64152 -0.08300
O 	O 	0.58178 0.35723 0.62127 -0.08000
C 	C 	0.60143 0.03326 0.56576 -0.01900
C 	C 	0.60038 0.03848 0.50442 -0.06600
C 	C 	0.58911 0.99035 0.47055 0.09900
C 	C 	0.58017 0.93691 0.49817 -0.01900
C 	C 	0.58222 0.93065 0.55955 -0.07600
C 	C 	0.59156 0.98049 0.59362 0.09500
N 	N 	0.58978 0.97868 0.65641 -0.02100
H 	H 	0.60854 0.07140 0.59210 0.07400
H 	H 	0.57248 0.89956 0.47146 0.08000
N 	N 	0.58550 0.99642 0.40826 -0.02400
O 	O 	0.61308 0.99264 0.68797 -0.08500
O 	O 	0.56440 0.96666 0.68201 -0.07000
O 	O 	0.60860 0.00796 0.37529 -0.08500
O 	O 	0.55993 0.98318 0.38398 -0.08800
C 	C 	0.51830 0.12649 0.34463 -0.02400
C 	C 	0.53154 0.18367 0.34040 -0.05500
C 	C 	0.51362 0.23284 0.32332 0.10700
C 	C 	0.48233 0.22775 0.32602 -0.02200
C 	C 	0.46925 0.17365 0.34498 -0.06400
C 	C 	0.48700 0.12117 0.34590 0.10800
N 	N 	0.47340 0.06299 0.35047 -0.01900
H 	H 	0.53214 0.08711 0.35208 0.09500
H 	H 	0.46844 0.26727 0.31929 0.07400
N 	N 	0.52717 0.28848 0.30577 -0.02100
O 	O 	0.45457 0.04514 0.31047 -0.07200
O 	O 	0.48183 0.02587 0.39150 -0.07200
O 	O 	0.54771 0.28872 0.26522 -0.07200
O 	O 	0.51811 0.33911 0.32847 -0.07000
C 	C 	0.66984 0.29049 0.71964 -0.02000
C 	C 	0.64422 0.28951 0.75540 -0.05800
C 	C 	0.61745 0.26399 0.73356 0.10700
C 	C 	0.61590 0.24502 0.67486 -0.01200
C 	C 	0.64030 0.25373 0.63694 -0.06500
C 	C 	0.66807 0.27267 0.66045 0.11400
N 	N 	0.69438 0.27424 0.62446 -0.02100
H 	H 	0.69076 0.30805 0.73682 0.08200
H 	H 	0.59495 0.22754 0.65778 0.07500
N 	N 	0.59125 0.26058 0.76989 -0.02100
O 	O 	0.71181 0.32125 0.62546 -0.06400
O 	O 	0.70239 0.22664 0.59501 -0.06700
O 	O 	0.56530 0.27678 0.74915 -0.08200
O 	O 	0.59314 0.23908 0.82289 -0.08200
C 	C 	0.67291 0.28206 0.21579 -0.02200
C 	C 	0.65238 0.30772 0.25518 -0.05600
C 	C 	0.63391 0.35548 0.23619 0.10200
C 	C 	0.63349 0.37175 0.17646 -0.02000
C 	C 	0.65204 0.34192 0.13564 -0.06600
C 	C 	0.67358 0.30028 0.15670 0.10700
N 	N 	0.69686 0.27837 0.11906 -0.02000
H 	H 	0.68815 0.24725 0.23084 0.08200
H 	H 	0.61813 0.40645 0.16176 0.07900
N 	N 	0.61638 0.38907 0.27758 -0.02200
O 	O 	0.71573 0.31592 0.09541 -0.07600
O 	O 	0.70061 0.22067 0.11214 -0.07200
O 	O 	0.61898 0.44741 0.28019 -0.07300
O 	O 	0.59654 0.36194 0.31002 -0.07900
C 	C 	0.74175 0.15647 0.39192 -0.01700
C 	C 	0.72209 0.20234 0.41020 -0.07100
C 	C 	0.73364 0.26070 0.42171 0.11000
C 	C 	0.76406 0.27207 0.41484 -0.01400
C 	C 	0.78363 0.22705 0.39585 -0.07100
C 	C 	0.77254 0.16863 0.38447 0.11000
N 	N 	0.79233 0.12163 0.36560 -0.02100
H 	H 	0.73323 0.11155 0.38347 0.08300
H 	H 	0.77224 0.31742 0.42151 0.06800
N 	N 	0.71434 0.30962 0.43753 -0.04100
O 	O 	0.79404 0.07174 0.39541 -0.07600
O 	O 	0.80684 0.12680 0.31629 -0.07700
O 	O 	0.70689 0.31682 0.49228 -0.10500
O 	O 	0.71128 0.35460 0.40137 -0.10000
