data_crystal

_cell_length_a 31.08883
_cell_length_b 29.43927
_cell_length_c 29.27606
_cell_angle_alpha 90.02588
_cell_angle_beta  89.12087
_cell_angle_gamma 90.53446

_symmetry_space_group_name_	'P 1'
_symmetry_space_group_name_H-M	'P 1'

loop_
_symmetry_equiv_pos_as_xyz
  x,y,z

loop_
_atom_site_label
_atom_site_type_symbol
_atom_site_fract_x
_atom_site_fract_y
_atom_site_fract_z
_atom_site_charge
C 	C 	0.09559 0.02182 0.07842 0.33300
C 	C 	0.98555 0.11986 0.95081 0.35700
C 	C 	0.02309 0.98046 0.98613 0.37800
C 	C 	0.05619 0.17686 0.02851 0.35100
C 	C 	0.08687 0.05145 0.88056 0.35800
C 	C 	0.17412 0.09678 0.96261 0.33900
Ni	Ni	0.02882 0.07402 0.02760 1.12700
Ni	Ni	0.08167 0.12613 0.94627 1.13000
Ni	Ni	0.10753 0.02545 0.97409 1.13300
O 	O 	0.07001 0.05772 0.08003 -0.32000
O 	O 	0.10369 0.99960 0.03938 -0.34100
O 	O 	0.06666 0.08900 0.89121 -0.34800
O 	O 	0.98864 0.08134 0.97257 -0.35900
O 	O 	0.01905 0.14735 0.94691 -0.33000
O 	O 	0.16282 0.05909 0.98508 -0.33200
O 	O 	0.01722 0.00410 0.02378 -0.33500
O 	O 	0.05302 0.99224 0.95636 -0.36400
O 	O 	0.14662 0.11906 0.93610 -0.35700
O 	O 	0.02814 0.14456 0.04223 -0.29700
O 	O 	0.08884 0.16764 0.00044 -0.36900
O 	O 	0.11733 0.03602 0.90680 -0.36400
O 	O 	0.07817 0.07909 0.99075 -0.72300
H 	H 	0.09842 0.09109 0.01344 0.17400
C 	C 	0.12191 0.80143 0.52984 0.34500
C 	C 	0.00876 0.94403 0.47236 0.35600
C 	C 	0.04628 0.88853 0.58550 0.35600
C 	C 	0.07113 0.88001 0.38614 0.34600
C 	C 	0.93361 0.83022 0.51411 0.36000
C 	C 	0.00670 0.74808 0.45353 0.35100
Ni	Ni	0.08435 0.88601 0.49062 1.12800
Ni	Ni	0.99581 0.85017 0.44115 1.13000
Ni	Ni	0.02404 0.80510 0.53445 1.13200
O 	O 	0.12659 0.83256 0.49746 -0.34500
O 	O 	0.08634 0.79912 0.55566 -0.32300
O 	O 	0.94816 0.86176 0.48631 -0.38500
O 	O 	0.04716 0.94373 0.48994 -0.32500
O 	O 	0.00027 0.91884 0.43653 -0.32400
O 	O 	0.02860 0.75176 0.49216 -0.34400
O 	O 	0.08248 0.88897 0.56164 -0.32400
O 	O 	0.01511 0.85970 0.57568 -0.36800
O 	O 	0.98265 0.78198 0.43753 -0.35600
O 	O 	0.09678 0.89264 0.42007 -0.33800
O 	O 	0.04173 0.84746 0.39157 -0.33000
O 	O 	0.95930 0.79855 0.52934 -0.35000
O 	O 	0.04018 0.84252 0.48372 -0.72000
H 	H 	0.05747 0.82063 0.46602 0.16600
C 	C 	0.90803 0.66869 0.96472 0.34800
C 	C 	0.86886 0.52551 0.09816 0.37300
C 	C 	0.97936 0.59335 0.02534 0.35200
C 	C 	0.78759 0.60324 0.03856 0.34300
C 	C 	0.91468 0.47102 0.98583 0.35300
C 	C 	0.84857 0.53030 0.90020 0.34100
Ni	Ni	0.88596 0.61143 0.04703 1.12400
Ni	Ni	0.83623 0.52361 0.00377 1.13400
Ni	Ni	0.92036 0.56520 0.95351 1.13500
O 	O 	0.88141 0.66391 0.00039 -0.33300
O 	O 	0.93184 0.63423 0.94854 -0.34800
O 	O 	0.87783 0.47215 0.00828 -0.33400
O 	O 	0.89749 0.55783 0.09091 -0.34800
O 	O 	0.83411 0.52314 0.07321 -0.33100
O 	O 	0.87579 0.56488 0.90481 -0.34000
O 	O 	0.95212 0.62337 0.04133 -0.33200
O 	O 	0.96570 0.55866 0.00162 -0.37000
O 	O 	0.82598 0.51323 0.93560 -0.35400
O 	O 	0.82054 0.61157 0.06589 -0.31900
O 	O 	0.78864 0.56998 0.00782 -0.35300
O 	O 	0.92125 0.49687 0.94976 -0.36000
O 	O 	0.87550 0.57332 0.99673 -0.72000
H 	H 	0.85689 0.59299 0.97850 0.16900
C 	C 	0.84858 0.38957 0.59234 0.34400
C 	C 	0.96478 0.30327 0.45825 0.35300
C 	C 	0.91678 0.43623 0.49316 0.36000
C 	C 	0.90003 0.24079 0.54488 0.35300
C 	C 	0.85479 0.35759 0.39461 0.35700
C 	C 	0.77525 0.30677 0.48178 0.34800
Ni	Ni	0.91988 0.34497 0.53852 1.12400
Ni	Ni	0.86991 0.28611 0.46166 1.12900
Ni	Ni	0.83547 0.38400 0.48921 1.13500
O 	O 	0.87911 0.35829 0.59363 -0.32400
O 	O 	0.83939 0.41130 0.55368 -0.34900
O 	O 	0.87961 0.32342 0.40506 -0.35200
O 	O 	0.96057 0.34059 0.48212 -0.36200
O 	O 	0.93426 0.27193 0.45912 -0.34200
O 	O 	0.78449 0.34451 0.50477 -0.33900
O 	O 	0.92452 0.41537 0.53180 -0.33200
O 	O 	0.88587 0.42208 0.46661 -0.36600
O 	O 	0.80437 0.28568 0.45530 -0.35400
O 	O 	0.92707 0.27527 0.55392 -0.34100
O 	O 	0.86726 0.24527 0.51682 -0.34200
O 	O 	0.82422 0.37075 0.42297 -0.35800
O 	O 	0.87037 0.33426 0.50475 -0.72700
H 	H 	0.85206 0.32079 0.52901 0.17700
C 	C 	0.59619 0.03019 0.11837 0.34100
C 	C 	0.48699 0.12125 0.98468 0.37200
C 	C 	0.52926 0.98575 0.02429 0.37500
C 	C 	0.55594 0.18354 0.06115 0.34000
C 	C 	0.59337 0.05345 0.91864 0.36200
C 	C 	0.67636 0.10754 0.99934 0.34200
Ni	Ni	0.53134 0.08006 0.06358 1.12200
Ni	Ni	0.58288 0.13041 0.98066 1.13500
Ni	Ni	0.61351 0.03301 0.01415 1.13000
O 	O 	0.57259 0.06740 0.11677 -0.35700
O 	O 	0.61080 0.00941 0.08053 -0.32900
O 	O 	0.56967 0.08896 0.92828 -0.35200
O 	O 	0.49054 0.08408 0.00863 -0.36200
O 	O 	0.51977 0.14949 0.98005 -0.35700
O 	O 	0.66687 0.07063 0.02401 -0.36500
O 	O 	0.52279 0.00970 0.06158 -0.35700
O 	O 	0.56176 0.99488 0.99662 -0.35000
O 	O 	0.64794 0.12561 0.97086 -0.31500
O 	O 	0.52855 0.15089 0.07555 -0.35300
O 	O 	0.58840 0.17499 0.03255 -0.33100
O 	O 	0.62384 0.04079 0.94644 -0.34000
O 	O 	0.58091 0.08558 0.02738 -0.72600
H 	H 	0.60023 0.09975 0.04975 0.17400
C 	C 	0.46736 0.76487 0.49450 0.33600
C 	C 	0.54946 0.89027 0.62229 0.36500
C 	C 	0.42180 0.82595 0.57256 0.34000
C 	C 	0.61217 0.83383 0.52786 0.33600
C 	C 	0.46958 0.95973 0.53361 0.37300
C 	C 	0.52528 0.90530 0.42516 0.34100
Ni	Ni	0.51871 0.81277 0.56493 1.12800
Ni	Ni	0.55062 0.90985 0.52353 1.13200
Ni	Ni	0.46081 0.86895 0.49113 1.13000
O 	O 	0.50589 0.76667 0.51330 -0.31600
O 	O 	0.44949 0.80157 0.47608 -0.35400
O 	O 	0.50705 0.95166 0.55208 -0.38000
O 	O 	0.52179 0.85656 0.62041 -0.32300
O 	O 	0.57416 0.89996 0.58696 -0.35900
O 	O 	0.49110 0.87821 0.43042 -0.35800
O 	O 	0.45449 0.80048 0.58390 -0.31500
O 	O 	0.42814 0.86458 0.55119 -0.35800
O 	O 	0.53877 0.93158 0.45908 -0.33900
O 	O 	0.58655 0.81135 0.55761 -0.30200
O 	O 	0.59828 0.86815 0.50268 -0.34000
O 	O 	0.45733 0.93719 0.49713 -0.35200
O 	O 	0.51420 0.85764 0.51950 -0.72200
H 	H 	0.52816 0.84153 0.49381 0.16900
C 	C 	0.48626 0.61871 0.03696 0.33800
C 	C 	0.37648 0.53345 0.89927 0.35300
C 	C 	0.42021 0.67717 0.95365 0.35300
C 	C 	0.43871 0.48159 0.99549 0.34300
C 	C 	0.29912 0.60914 0.00845 0.35600
C 	C 	0.36997 0.55558 0.09872 0.33900
Ni	Ni	0.44351 0.57726 0.95479 1.12600
Ni	Ni	0.35692 0.53246 0.00042 1.13100
Ni	Ni	0.38944 0.62999 0.03485 1.13100
O 	O 	0.49008 0.58835 0.00359 -0.34500
O 	O 	0.45332 0.64726 0.03900 -0.33000
O 	O 	0.31387 0.57810 0.98020 -0.37000
O 	O 	0.39680 0.57195 0.90561 -0.36000
O 	O 	0.36238 0.50946 0.93455 -0.31900
O 	O 	0.38996 0.59544 0.09410 -0.35100
O 	O 	0.44909 0.64694 0.94126 -0.30700
O 	O 	0.38523 0.66405 0.97547 -0.37300
O 	O 	0.34204 0.54102 0.06786 -0.32500
O 	O 	0.44890 0.50610 0.95855 -0.31300
O 	O 	0.39987 0.48363 0.01495 -0.34900
O 	O 	0.32449 0.62835 0.03869 -0.33000
O 	O 	0.40311 0.57542 0.00311 -0.71500
H 	H 	0.42074 0.56111 0.02663 0.14800
C 	C 	0.39844 0.37458 0.38660 0.33700
C 	C 	0.40452 0.39018 0.58834 0.36000
C 	C 	0.46485 0.30418 0.47202 0.35500
C 	C 	0.35047 0.45773 0.50815 0.33500
C 	C 	0.35148 0.25801 0.53787 0.36800
C 	C 	0.27587 0.32135 0.46393 0.34600
Ni	Ni	0.42125 0.39245 0.48619 1.12100
Ni	Ni	0.33283 0.35721 0.53522 1.13900
Ni	Ni	0.37187 0.30176 0.45083 1.13400
O 	O 	0.43021 0.38321 0.41544 -0.33800
O 	O 	0.37178 0.33943 0.39296 -0.31100
O 	O 	0.32264 0.28967 0.54639 -0.35000
O 	O 	0.42326 0.41296 0.55482 -0.34600
O 	O 	0.38190 0.35381 0.57921 -0.33200
O 	O 	0.30647 0.29192 0.45145 -0.34100
O 	O 	0.45938 0.33734 0.50129 -0.35900
O 	O 	0.43659 0.29718 0.43975 -0.31900
O 	O 	0.28350 0.35593 0.49193 -0.36500
O 	O 	0.38065 0.44662 0.47786 -0.36800
O 	O 	0.33370 0.42774 0.53835 -0.31400
O 	O 	0.38112 0.26382 0.50619 -0.37300
O 	O 	0.37038 0.35742 0.48380 -0.72000
H 	H 	0.35284 0.37538 0.46283 0.16900
C 	C 	0.39226 0.44693 0.80487 -0.13400
C 	C 	0.38857 0.47414 0.76587 0.02200
C 	C 	0.37902 0.52045 0.77065 0.30900
C 	C 	0.37369 0.53945 0.81424 -0.05100
C 	C 	0.37776 0.51234 0.85341 -0.12900
C 	C 	0.38702 0.46581 0.84844 0.38400
C 	C 	0.39262 0.45349 0.72003 0.02900
F 	F 	0.37480 0.54698 0.73311 -0.38800
H 	H 	0.36666 0.57529 0.81757 0.11500
F 	F 	0.39238 0.43924 0.88577 -0.39200
H 	H 	0.39943 0.41113 0.80141 0.14100
C 	C 	0.43136 0.45719 0.69487 0.31100
C 	C 	0.43541 0.43608 0.65211 -0.03600
C 	C 	0.40087 0.41098 0.63426 -0.11900
C 	C 	0.36195 0.40776 0.65946 0.39600
C 	C 	0.35806 0.42878 0.70212 -0.13300
F 	F 	0.46510 0.48095 0.71197 -0.38800
H 	H 	0.46540 0.43911 0.63297 0.11600
F 	F 	0.32750 0.38541 0.64204 -0.43600
H 	H 	0.32803 0.42598 0.72126 0.13700
C 	C 	0.38509 0.40483 0.26217 -0.13400
C 	C 	0.38889 0.45230 0.26374 0.02400
C 	C 	0.39673 0.47407 0.30550 0.31100
C 	C 	0.40043 0.44849 0.34545 -0.05300
C 	C 	0.39615 0.40100 0.34405 -0.12100
C 	C 	0.38877 0.37919 0.30210 0.39000
C 	C 	0.38403 0.47918 0.22174 0.02400
F 	F 	0.40024 0.52003 0.30741 -0.38600
H 	H 	0.40592 0.46563 0.37763 0.10500
F 	F 	0.38588 0.33320 0.29990 -0.39400
H 	H 	0.37931 0.38782 0.22998 0.14600
C 	C 	0.42039 0.49718 0.19895 0.31200
C 	C 	0.41560 0.52269 0.15911 -0.05200
C 	C 	0.37450 0.53011 0.14155 -0.12600
C 	C 	0.33809 0.51221 0.16450 0.38700
C 	C 	0.34292 0.48682 0.20442 -0.13600
F 	F 	0.46035 0.48963 0.21522 -0.38400
H 	H 	0.44387 0.53611 0.14147 0.09800
F 	F 	0.29804 0.52013 0.14863 -0.39200
H 	H 	0.31472 0.47320 0.22200 0.14000
C 	C 	0.37113 0.57350 0.55212 -0.14300
C 	C 	0.36971 0.59758 0.51078 0.02300
C 	C 	0.34893 0.57794 0.47324 0.30900
C 	C 	0.33439 0.53286 0.47554 -0.05400
C 	C 	0.34231 0.50648 0.51444 -0.12400
C 	C 	0.35709 0.52816 0.55411 0.37900
C 	C 	0.39482 0.64026 0.50507 0.02200
F 	F 	0.34602 0.60120 0.43340 -0.37800
H 	H 	0.32146 0.51694 0.44525 0.11300
F 	F 	0.36228 0.50403 0.59308 -0.41700
H 	H 	0.38553 0.58898 0.58187 0.14400
C 	C 	0.37406 0.68119 0.49542 0.32100
C 	C 	0.39810 0.72122 0.48921 -0.04300
C 	C 	0.44314 0.72109 0.49381 -0.11000
C 	C 	0.46400 0.67963 0.50192 0.38300
C 	C 	0.43988 0.63958 0.50766 -0.13000
F 	F 	0.33053 0.68238 0.49294 -0.37400
H 	H 	0.38147 0.75272 0.48291 0.11700
F 	F 	0.50756 0.67793 0.50363 -0.40900
H 	H 	0.45623 0.60789 0.51392 0.13100
C 	C 	0.38522 0.15636 0.60153 -0.12400
C 	C 	0.37429 0.12301 0.56926 0.01600
C 	C 	0.34394 0.13324 0.53575 0.29800
C 	C 	0.32937 0.17779 0.53099 -0.04900
C 	C 	0.34650 0.21267 0.55808 -0.13300
C 	C 	0.37154 0.20120 0.59581 0.38400
C 	C 	0.39953 0.08056 0.56594 0.02600
F 	F 	0.33161 0.10110 0.50524 -0.40300
H 	H 	0.30868 0.18607 0.50278 0.10600
F 	F 	0.38645 0.23423 0.62396 -0.40900
H 	H 	0.40694 0.14834 0.62891 0.14700
C 	C 	0.44426 0.08266 0.55781 0.29200
C 	C 	0.46730 0.04288 0.54922 -0.03600
C 	C 	0.44587 0.00079 0.54737 -0.15200
C 	C 	0.40136 0.99852 0.55632 0.40100
C 	C 	0.37847 0.03814 0.56639 -0.13900
F 	F 	0.46505 0.12340 0.55626 -0.39900
H 	H 	0.50160 0.04500 0.54229 0.10900
F 	F 	0.38019 0.95808 0.55462 -0.42900
H 	H 	0.34415 0.03603 0.57312 0.15100
C 	C 	0.48588 0.78526 0.96281 -0.12300
C 	C 	0.45361 0.81660 0.97351 0.01900
C 	C 	0.41024 0.80359 0.97061 0.30600
C 	C 	0.39929 0.75865 0.95998 -0.05300
C 	C 	0.43162 0.72616 0.95283 -0.12800
C 	C 	0.47511 0.74033 0.95223 0.39500
C 	C 	0.46549 0.86253 0.98911 0.02900
F 	F 	0.37873 0.83410 0.97951 -0.39500
H 	H 	0.36568 0.74867 0.95911 0.11400
F 	F 	0.50701 0.71028 0.94334 -0.39500
H 	H 	0.51943 0.79548 0.96388 0.14300
C 	C 	0.47917 0.86946 0.03413 0.30000
C 	C 	0.49701 0.91132 0.04683 -0.04300
C 	C 	0.50160 0.94631 0.01457 -0.13800
C 	C 	0.48506 0.94035 0.97053 0.38600
C 	C 	0.46718 0.89856 0.95787 -0.13900
F 	F 	0.47679 0.83505 0.06494 -0.38600
H 	H 	0.50920 0.91577 0.08103 0.13400
F 	F 	0.48763 0.97463 0.93958 -0.42200
H 	H 	0.45604 0.89367 0.92331 0.14100
C 	C 	0.56490 0.31086 0.05937 -0.13700
C 	C 	0.52130 0.32240 0.05853 0.02500
C 	C 	0.48978 0.28922 0.06827 0.30600
C 	C 	0.50163 0.24400 0.07441 -0.05100
C 	C 	0.54502 0.23147 0.07022 -0.12500
C 	C 	0.57683 0.26564 0.06581 0.37900
C 	C 	0.50845 0.36753 0.04234 0.01800
F 	F 	0.44750 0.30036 0.06905 -0.38800
H 	H 	0.47683 0.21835 0.07945 0.11100
F 	F 	0.61917 0.25478 0.06591 -0.40600
H 	H 	0.58945 0.33661 0.05331 0.14000
C 	C 	0.49391 0.40032 0.07355 0.31200
C 	C 	0.47394 0.43953 0.05781 -0.04900
C 	C 	0.46811 0.44611 0.01081 -0.13000
C 	C 	0.48547 0.41485 0.97947 0.39000
C 	C 	0.50566 0.37574 0.99526 -0.13300
F 	F 	0.49735 0.39320 0.11915 -0.38600
H 	H 	0.46135 0.46391 0.08221 0.09700
F 	F 	0.48046 0.42089 0.93390 -0.39300
H 	H 	0.51726 0.35074 0.97097 0.13500
C 	C 	0.56400 0.91223 0.74824 -0.13400
C 	C 	0.56943 0.95954 0.74865 0.02100
C 	C 	0.56866 0.98398 0.70755 0.31300
C 	C 	0.56225 0.96120 0.66630 -0.04800
C 	C 	0.55646 0.91387 0.66583 -0.12800
C 	C 	0.55758 0.88938 0.70702 0.38800
C 	C 	0.57559 0.98346 0.79215 0.02600
F 	F 	0.57398 0.02980 0.70765 -0.39300
H 	H 	0.56136 0.98036 0.63474 0.11000
F 	F 	0.55336 0.84343 0.70699 -0.40500
H 	H 	0.56480 0.89320 0.77989 0.13600
C 	C 	0.54014 0.00149 0.81590 0.30500
C 	C 	0.54612 0.02455 0.85705 -0.04300
C 	C 	0.58754 0.02955 0.87496 -0.12100
C 	C 	0.62309 0.01161 0.85096 0.37600
C 	C 	0.61701 0.98857 0.80978 -0.12700
F 	F 	0.49992 0.99662 0.79907 -0.38200
H 	H 	0.51852 0.03825 0.87522 0.15500
F 	F 	0.66354 0.01747 0.86692 -0.40500
H 	H 	0.64451 0.97494 0.79139 0.14000
C 	C 	0.58451 0.93907 0.20836 -0.13400
C 	C 	0.58533 0.96534 0.24832 0.02700
C 	C 	0.59631 0.01166 0.24560 0.29200
C 	C 	0.60354 0.03210 0.20299 -0.04800
C 	C 	0.59953 0.00658 0.16269 -0.13400
C 	C 	0.59151 0.95949 0.16569 0.38500
C 	C 	0.57059 0.94545 0.29224 0.01700
F 	F 	0.59793 0.03731 0.28409 -0.40000
H 	H 	0.61040 0.06822 0.20119 0.11200
F 	F 	0.58783 0.93404 0.12725 -0.42300
H 	H 	0.57670 0.90317 0.21024 0.14000
C 	C 	0.52675 0.93564 0.29981 0.30200
C 	C 	0.51224 0.92047 0.34268 -0.04900
C 	C 	0.54135 0.91520 0.37847 -0.12400
C 	C 	0.58547 0.92335 0.37034 0.37600
C 	C 	0.59996 0.93845 0.32740 -0.12500
F 	F 	0.49801 0.94223 0.26605 -0.39900
H 	H 	0.47818 0.91436 0.34850 0.11700
F 	F 	0.61422 0.91698 0.40414 -0.42200
H 	H 	0.63390 0.94541 0.32166 0.14100
C 	C 	0.65734 0.31704 0.45687 -0.14100
C 	C 	0.64200 0.27349 0.46821 0.01700
C 	C 	0.67093 0.24008 0.48233 0.31600
C 	C 	0.71475 0.25073 0.48618 -0.05000
C 	C 	0.72971 0.29480 0.47622 -0.12500
C 	C 	0.70092 0.32765 0.46071 0.38200
C 	C 	0.59531 0.26441 0.46837 0.02600
F 	F 	0.65654 0.19761 0.49277 -0.38100
H 	H 	0.73688 0.22503 0.49758 0.12300
F 	F 	0.71531 0.36986 0.44914 -0.42400
H 	H 	0.63524 0.34293 0.44582 0.13100
C 	C 	0.57230 0.26363 0.51001 0.30900
C 	C 	0.52807 0.27172 0.51075 -0.04800
C 	C 	0.50665 0.28107 0.47000 -0.12800
C 	C 	0.52865 0.27589 0.42800 0.38100
C 	C 	0.57280 0.26724 0.42729 -0.14100
F 	F 	0.59342 0.25916 0.54999 -0.38100
H 	H 	0.51103 0.27383 0.54324 0.12500
F 	F 	0.50814 0.28300 0.38805 -0.40300
H 	H 	0.59015 0.26652 0.39492 0.13800
C 	C 	0.17381 0.29202 0.40092 -0.12500
C 	C 	0.14342 0.29213 0.43693 0.01900
C 	C 	0.15704 0.29987 0.48180 0.30000
C 	C 	0.20039 0.30856 0.49043 -0.05000
C 	C 	0.23068 0.30972 0.45441 -0.12600
C 	C 	0.21738 0.30064 0.40962 0.37800
C 	C 	0.09696 0.28833 0.42747 0.01700
F 	F 	0.12797 0.30034 0.51688 -0.40400
H 	H 	0.21044 0.31480 0.52518 0.11000
F 	F 	0.24634 0.30153 0.37444 -0.40800
H 	H 	0.16357 0.28615 0.36618 0.14300
C 	C 	0.07498 0.32607 0.41056 0.30500
C 	C 	0.03022 0.32841 0.41537 -0.05000
C 	C 	0.00715 0.29330 0.43745 -0.11500
C 	C 	0.02852 0.25297 0.44855 0.37800
C 	C 	0.07334 0.25061 0.44370 -0.12400
F 	F 	0.09728 0.36209 0.39308 -0.39800
H 	H 	0.01387 0.35906 0.40519 0.13500
F 	F 	0.00639 0.21743 0.46718 -0.41500
H 	H 	0.08995 0.22072 0.45548 0.14200
C 	C 	0.58727 0.67925 0.06832 -0.12400
C 	C 	0.61279 0.64171 0.07870 0.01800
C 	C 	0.59293 0.59969 0.08843 0.30200
C 	C 	0.54901 0.59372 0.08090 -0.04900
C 	C 	0.52489 0.62945 0.06316 -0.12400
C 	C 	0.54332 0.67322 0.06064 0.39100
C 	C 	0.65949 0.64372 0.06971 0.01800
F 	F 	0.61694 0.56355 0.10078 -0.39900
H 	H 	0.53458 0.56026 0.08490 0.10300
F 	F 	0.51961 0.70902 0.04680 -0.40000
H 	H 	0.60209 0.71226 0.06260 0.14300
C 	C 	0.67506 0.64553 0.02441 0.29900
C 	C 	0.71804 0.63560 0.01461 -0.05000
C 	C 	0.74577 0.62364 0.04984 -0.12200
C 	C 	0.73109 0.62573 0.09554 0.38200
C 	C 	0.68813 0.63602 0.10533 -0.12500
F 	F 	0.64779 0.65377 0.98965 -0.39500
H 	H 	0.72930 0.63509 0.97940 0.11800
F 	F 	0.75759 0.61471 0.13018 -0.40600
H 	H 	0.67650 0.63528 0.14040 0.14500
C 	C 	0.18781 0.61850 0.06054 -0.13000
C 	C 	0.16240 0.61698 0.02151 0.02000
C 	C 	0.18201 0.61657 0.97800 0.30600
C 	C 	0.22684 0.61582 0.97371 -0.04600
C 	C 	0.25235 0.61549 0.01284 -0.13300
C 	C 	0.23258 0.61755 0.05639 0.38700
C 	C 	0.11554 0.61154 0.02635 0.02200
F 	F 	0.15757 0.61547 0.93998 -0.39500
H 	H 	0.24174 0.61460 0.94003 0.11300
F 	F 	0.25663 0.61622 0.09468 -0.39400
H 	H 	0.17280 0.61882 0.09419 0.14400
C 	C 	0.09740 0.56819 0.03295 0.30500
C 	C 	0.05278 0.56268 0.03526 -0.05000
C 	C 	0.02588 0.60041 0.03086 -0.12400
C 	C 	0.04418 0.64413 0.02634 0.38000
C 	C 	0.08887 0.64954 0.02395 -0.13200
F 	F 	0.12307 0.53130 0.03613 -0.39200
H 	H 	0.03904 0.52893 0.03938 0.12600
F 	F 	0.01871 0.68110 0.02258 -0.41800
H 	H 	0.10278 0.68316 0.01947 0.14200
C 	C 	0.87136 0.48616 0.78109 -0.13300
C 	C 	0.83045 0.47116 0.76795 0.02100
C 	C 	0.79519 0.47618 0.79802 0.30300
C 	C 	0.80095 0.49607 0.84102 -0.04900
C 	C 	0.84199 0.51109 0.85421 -0.12700
C 	C 	0.87722 0.50588 0.82398 0.37800
C 	C 	0.82493 0.45003 0.72271 0.02300
F 	F 	0.75543 0.46187 0.78559 -0.39200
H 	H 	0.77356 0.49991 0.86397 0.11600
F 	F 	0.91736 0.51867 0.83671 -0.42900
H 	H 	0.89873 0.48211 0.75814 0.13700
C 	C 	0.82575 0.47714 0.68328 0.30500
C 	C 	0.83019 0.45705 0.64019 -0.05000
C 	C 	0.83395 0.40965 0.63612 -0.11900
C 	C 	0.82935 0.38237 0.67537 0.37700
C 	C 	0.82505 0.40256 0.71849 -0.13100
F 	F 	0.82451 0.52308 0.68690 -0.39200
H 	H 	0.83305 0.47851 0.61023 0.12800
F 	F 	0.83040 0.33641 0.67187 -0.40800
H 	H 	0.82366 0.38138 0.74874 0.13900
C 	C 	0.90303 0.40918 0.28736 -0.13100
C 	C 	0.86595 0.42226 0.26431 0.02100
C 	C 	0.82519 0.41281 0.28346 0.30100
C 	C 	0.82159 0.39101 0.32571 -0.04800
C 	C 	0.85869 0.37850 0.34918 -0.13500
C 	C 	0.89950 0.38747 0.32969 0.38000
C 	C 	0.86985 0.44772 0.22123 0.02300
F 	F 	0.78910 0.42552 0.26147 -0.39300
H 	H 	0.78999 0.38397 0.34031 0.12300
F 	F 	0.93569 0.37640 0.35240 -0.43300
H 	H 	0.93459 0.41650 0.27278 0.14100
C 	C 	0.88294 0.49346 0.22159 0.30300
C 	C 	0.88368 0.51851 0.18110 -0.03900
C 	C 	0.87114 0.49813 0.13998 -0.11800
C 	C 	0.85923 0.45197 0.13944 0.39200
C 	C 	0.85864 0.42690 0.17995 -0.13000
F 	F 	0.89388 0.51390 0.26139 -0.38700
H 	H 	0.89293 0.55408 0.18188 0.11800
F 	F 	0.84837 0.43143 0.09967 -0.41700
H 	H 	0.84896 0.39145 0.17941 0.13700
C 	C 	0.02564 0.62454 0.43636 -0.11800
C 	C 	0.98302 0.60867 0.43641 0.01000
C 	C 	0.94943 0.63932 0.42949 0.31800
C 	C 	0.95800 0.68599 0.42861 -0.06300
C 	C 	0.00007 0.70217 0.43515 -0.10700
C 	C 	0.03423 0.67120 0.43522 0.37200
C 	C 	0.97314 0.56213 0.45163 0.02200
F 	F 	0.90817 0.62407 0.42736 -0.38800
H 	H 	0.93149 0.70954 0.42693 0.13900
F 	F 	0.07546 0.68642 0.43808 -0.41500
H 	H 	0.05186 0.60091 0.44011 0.13700
C 	C 	0.96729 0.52733 0.41959 0.30900
C 	C 	0.95178 0.48487 0.43382 -0.04900
C 	C 	0.94155 0.47708 0.48011 -0.13300
C 	C 	0.94995 0.51113 0.51250 0.38300
C 	C 	0.96582 0.55343 0.49823 -0.13700
F 	F 	0.97510 0.53518 0.37452 -0.38500
H 	H 	0.94616 0.45853 0.40868 0.12700
F 	F 	0.94031 0.50420 0.55736 -0.41600
H 	H 	0.97076 0.58012 0.52317 0.13400
C 	C 	0.95355 0.05622 0.47689 -0.13200
C 	C 	0.94453 0.05927 0.52392 0.02100
C 	C 	0.94907 0.02093 0.55173 0.29900
C 	C 	0.96578 0.98093 0.53325 -0.03600
C 	C 	0.97872 0.97927 0.48712 -0.13400
C 	C 	0.97066 0.01634 0.45851 0.38400
C 	C 	0.93412 0.10355 0.54431 0.02500
F 	F 	0.93946 0.02317 0.59705 -0.40300
H 	H 	0.97117 0.95211 0.55538 0.09700
F 	F 	0.98228 0.01488 0.41364 -0.41100
H 	H 	0.94919 0.08548 0.45505 0.13700
C 	C 	0.96652 0.13664 0.54923 0.30000
C 	C 	0.95546 0.18194 0.55682 -0.04100
C 	C 	0.91198 0.19445 0.55840 -0.12500
C 	C 	0.88012 0.16022 0.56098 0.38000
C 	C 	0.89116 0.11493 0.55317 -0.13500
F 	F 	0.00851 0.12541 0.54345 -0.37700
H 	H 	0.98054 0.20772 0.55737 0.13000
F 	F 	0.83817 0.17128 0.56749 -0.40700
H 	H 	0.86613 0.08915 0.55144 0.14300
C 	C 	0.72568 0.81621 0.56839 -0.12800
C 	C 	0.74904 0.81951 0.52717 0.01800
C 	C 	0.72709 0.82346 0.48582 0.31000
C 	C 	0.68214 0.82582 0.48591 -0.05200
C 	C 	0.65872 0.82421 0.52731 -0.11300
C 	C 	0.68073 0.81861 0.56859 0.37700
C 	C 	0.79649 0.82161 0.52759 0.02400
F 	F 	0.74939 0.82623 0.44567 -0.39500
H 	H 	0.66556 0.82993 0.45391 0.12800
F 	F 	0.65879 0.81786 0.60904 -0.40400
H 	H 	0.74242 0.81302 0.60040 0.13800
C 	C 	0.81778 0.86345 0.53335 0.30100
C 	C 	0.86273 0.86584 0.53093 -0.04500
C 	C 	0.88683 0.82646 0.52284 -0.13800
C 	C 	0.86549 0.78433 0.51842 0.38300
C 	C 	0.82050 0.78202 0.52082 -0.13500
F 	F 	0.79485 0.90192 0.54036 -0.39500
H 	H 	0.87882 0.89844 0.53454 0.10800
F 	F 	0.88817 0.74600 0.50981 -0.42000
H 	H 	0.80427 0.74961 0.51651 0.14000
C 	C 	0.32306 0.75225 0.58887 -0.12400
C 	C 	0.29081 0.78498 0.58551 0.01600
C 	C 	0.30181 0.83128 0.58731 0.30800
C 	C 	0.34495 0.84471 0.58776 -0.06000
C 	C 	0.37754 0.81205 0.58587 -0.12100
C 	C 	0.36634 0.76570 0.59004 0.36900
C 	C 	0.24652 0.77132 0.57443 0.02100
F 	F 	0.27069 0.86329 0.58586 -0.39600
H 	H 	0.35305 0.88053 0.58760 0.14700
F 	F 	0.39724 0.73370 0.59362 -0.42400
H 	H 	0.31472 0.71643 0.58896 0.14400
C 	C 	0.23584 0.76287 0.52876 0.30700
C 	C 	0.19319 0.76667 0.51495 -0.04800
C 	C 	0.16115 0.77961 0.54651 -0.11800
C 	C 	0.17098 0.78133 0.59331 0.38300
C 	C 	0.21360 0.77705 0.60711 -0.12600
F 	F 	0.26730 0.75560 0.49701 -0.38200
H 	H 	0.18567 0.76336 0.47907 0.12400
F 	F 	0.14006 0.79135 0.62487 -0.40700
H 	H 	0.22147 0.78208 0.64270 0.14200
C 	C 	0.97117 0.86545 0.00514 -0.13400
C 	C 	0.96067 0.85333 0.96030 0.02000
C 	C 	0.96705 0.88469 0.92474 0.31000
C 	C 	0.98541 0.92724 0.93374 -0.04500
C 	C 	0.99773 0.93872 0.97831 -0.13800
C 	C 	0.98973 0.90790 0.01420 0.37500
C 	C 	0.94578 0.80677 0.95039 0.02700
F 	F 	0.95651 0.87348 0.88132 -0.38500
H 	H 	0.99105 0.95091 0.90589 0.12700
F 	F 	0.00189 0.91812 0.05737 -0.41000
H 	H 	0.96614 0.84140 0.03277 0.13500
C 	C 	0.97579 0.77246 0.94145 0.30300
C 	C 	0.96254 0.72694 0.94093 -0.03900
C 	C 	0.91931 0.71536 0.95012 -0.12100
C 	C 	0.88866 0.75010 0.95407 0.38000
C 	C 	0.90198 0.79561 0.95465 -0.13500
F 	F 	0.01812 0.78305 0.93575 -0.37800
H 	H 	0.98635 0.70062 0.93640 0.13000
F 	F 	0.84626 0.73966 0.95942 -0.41500
H 	H 	0.87848 0.82207 0.96023 0.13900
C 	C 	0.98356 0.38930 0.05055 -0.13300
C 	C 	0.99126 0.35594 0.01730 0.00500
C 	C 	0.97659 0.36234 0.97258 0.31700
C 	C 	0.95351 0.40131 0.96162 -0.05200
C 	C 	0.94448 0.43388 0.99531 -0.12400
C 	C 	0.96030 0.42816 0.03963 0.37800
C 	C 	0.01296 0.31340 0.02973 0.05100
F 	F 	0.98353 0.33010 0.94019 -0.39300
H 	H 	0.94132 0.40539 0.92740 0.11700
F 	F 	0.95274 0.46005 0.07220 -0.43000
H 	H 	0.99508 0.38481 0.08498 0.12700
C 	C 	0.05357 0.30336 0.01105 0.30600
C 	C 	0.07022 0.25965 0.01529 -0.04600
C 	C 	0.04606 0.22532 0.03762 -0.12000
C 	C 	0.00821 0.23736 0.06172 0.42200
C 	C 	0.99143 0.28104 0.05706 -0.16100
F 	F 	0.07602 0.33537 0.98703 -0.38300
H 	H 	0.10081 0.25189 0.99904 0.11600
F 	F 	0.98690 0.20647 0.08823 -0.41600
H 	H 	0.96087 0.28918 0.07321 0.14000
C 	C 	0.88042 0.17602 0.97074 -0.13700
C 	C 	0.85311 0.14336 0.95136 0.01900
C 	C 	0.87026 0.11133 0.92070 0.31500
C 	C 	0.91483 0.10773 0.91505 -0.05100
C 	C 	0.94244 0.13620 0.93980 -0.12500
C 	C 	0.92502 0.17288 0.96439 0.38200
C 	C 	0.80863 0.13777 0.96893 0.01800
F 	F 	0.84391 0.08136 0.89932 -0.38700
H 	H 	0.92793 0.08034 0.89455 0.13500
F 	F 	0.95132 0.20303 0.98545 -0.41900
H 	H 	0.86735 0.20201 0.99304 0.13200
C 	C 	0.79762 0.10018 0.99635 0.31600
C 	C 	0.75473 0.09199 0.00890 -0.05800
C 	C 	0.72226 0.12136 0.99431 -0.11000
C 	C 	0.73398 0.16135 0.97042 0.37900
C 	C 	0.77694 0.16909 0.95732 -0.13200
F 	F 	0.82846 0.07096 0.00988 -0.40200
H 	H 	0.74664 0.06193 0.02866 0.11800
F 	F 	0.70385 0.19254 0.95977 -0.40700
H 	H 	0.78546 0.19902 0.93752 0.13500
C 	C 	0.29470 0.08461 0.95152 -0.14100
C 	C 	0.30852 0.12998 0.95455 0.01800
C 	C 	0.27795 0.16475 0.95804 0.31500
C 	C 	0.23398 0.15391 0.96029 -0.05100
C 	C 	0.22029 0.10835 0.95883 -0.12400
C 	C 	0.25089 0.07380 0.95332 0.38200
C 	C 	0.35497 0.14035 0.95773 0.02500
F 	F 	0.29085 0.20888 0.95981 -0.38100
H 	H 	0.21064 0.18085 0.96383 0.11200
F 	F 	0.23815 0.02977 0.94914 -0.41800
H 	H 	0.31804 0.05762 0.94852 0.13500
C 	C 	0.37201 0.15515 0.99940 0.31100
C 	C 	0.41631 0.15325 0.00654 -0.04900
C 	C 	0.44385 0.13620 0.97238 -0.13900
C 	C 	0.42736 0.12533 0.92936 0.38900
C 	C 	0.38305 0.12769 0.92198 -0.14200
F 	F 	0.34538 0.16795 0.03417 -0.38500
H 	H 	0.42888 0.16202 0.03974 0.10000
F 	F 	0.45384 0.10965 0.89571 -0.41400
H 	H 	0.37028 0.11700 0.88943 0.13800
C 	C 	0.02633 0.00101 0.78168 -0.13300
C 	C 	0.06021 0.98499 0.75415 0.03000
C 	C 	0.10288 0.99055 0.76834 0.30600
C 	C 	0.11154 0.01221 0.80970 -0.05300
C 	C 	0.07768 0.02858 0.83713 -0.13500
C 	C 	0.03495 0.02266 0.82307 0.38200
C 	C 	0.05105 0.96207 0.71068 0.02100
F 	F 	0.13587 0.97474 0.74211 -0.39200
H 	H 	0.14457 0.01660 0.82026 0.11800
F 	F 	0.00180 0.03706 0.84994 -0.42600
H 	H 	0.99333 0.99651 0.77104 0.14300
C 	C 	0.03632 0.91686 0.71049 0.30800
C 	C 	0.03246 0.89350 0.66916 -0.03900
C 	C 	0.04356 0.91507 0.62785 -0.12900
C 	C 	0.05605 0.96104 0.62793 0.38500
C 	C 	0.05975 0.98442 0.66923 -0.11400
F 	F 	0.02729 0.89511 0.75042 -0.38300
H 	H 	0.02254 0.85812 0.66939 0.11900
F 	F 	0.06526 0.98279 0.58803 -0.41100
H 	H 	0.07041 0.01957 0.66914 0.13800
C 	C 	0.11264 0.00337 0.20435 -0.13300
C 	C 	0.10489 0.95647 0.20790 0.02700
C 	C 	0.10040 0.93035 0.16812 0.30800
C 	C 	0.10066 0.95144 0.12533 -0.05100
C 	C 	0.10523 0.99888 0.12190 -0.10500
C 	C 	0.11298 0.02454 0.16153 0.37100
C 	C 	0.09663 0.93574 0.25310 0.02200
F 	F 	0.09395 0.88477 0.17108 -0.39000
H 	H 	0.09504 0.93116 0.09507 0.13400
F 	F 	0.11961 0.07010 0.15868 -0.40800
H 	H 	0.11685 0.02364 0.23488 0.14200
C 	C 	0.13081 0.92640 0.28233 0.30500
C 	C 	0.12256 0.90742 0.32547 -0.04700
C 	C 	0.08008 0.89768 0.33973 -0.12100
C 	C 	0.04595 0.90690 0.31025 0.38500
C 	C 	0.05428 0.92574 0.26716 -0.12700
F 	F 	0.17195 0.93568 0.26894 -0.39200
H 	H 	0.14916 0.90026 0.34775 0.12000
F 	F 	0.00463 0.89890 0.32389 -0.41500
H 	H 	0.02774 0.93305 0.24482 0.14400
