data_crystal

_cell_length_a 42.33270
_cell_length_b 43.38172
_cell_length_c 35.40059
_cell_angle_alpha 88.27252
_cell_angle_beta  91.83951
_cell_angle_gamma 90.05897

_symmetry_space_group_name_	'P 1'
_symmetry_space_group_name_H-M	'P 1'

loop_
_symmetry_equiv_pos_as_xyz
  x,y,z

loop_
_atom_site_label
_atom_site_type_symbol
_atom_site_fract_x
_atom_site_fract_y
_atom_site_fract_z
_atom_site_charge
Zn	Zn	0.02383 0.01322 0.25598 1.20600
Zn	Zn	0.96823 0.96398 0.27533 1.21900
Zn	Zn	0.00954 0.99813 0.17184 1.21800
P 	P 	0.96027 0.01838 0.22261 0.30100
P 	P 	0.02313 0.94964 0.22938 0.30000
C 	C 	0.98702 0.00700 0.09563 0.26100
C 	C 	0.05896 0.04214 0.19772 0.27600
C 	C 	0.00831 0.99710 0.33137 0.27800
O 	O 	0.98137 0.03036 0.25690 -0.41400
O 	O 	0.04634 0.97737 0.23857 -0.41900
O 	O 	0.95285 0.98225 0.22735 -0.40700
O 	O 	0.99974 0.95830 0.19441 -0.41700
O 	O 	0.97699 0.02733 0.18377 -0.38800
O 	O 	0.00482 0.93879 0.26648 -0.39200
O 	O 	0.01193 0.00043 0.11741 -0.37900
O 	O 	0.90310 0.93650 0.25688 -0.20000
O 	O 	0.95882 0.00725 0.11001 -0.19400
O 	O 	0.05356 0.01553 0.18150 -0.39900
O 	O 	0.97951 0.99398 0.31632 -0.40100
O 	O 	0.04640 0.04752 0.23043 -0.39600
O 	O 	0.03184 0.00575 0.31004 -0.39700
C 	C 	0.91271 0.92701 0.29090 0.25500
O 	O 	0.94005 0.93676 0.30498 -0.36600
Zn	Zn	0.04329 0.05526 0.75577 1.20600
Zn	Zn	0.99003 0.00444 0.77182 1.22500
Zn	Zn	0.04245 0.02790 0.67501 1.22000
P 	P 	0.98501 0.04891 0.70815 0.30200
P 	P 	0.05354 0.99034 0.74572 0.30200
C 	C 	0.03334 0.99773 0.60693 0.25500
C 	C 	0.08229 0.08113 0.69878 0.27700
C 	C 	0.01313 0.04881 0.82673 0.27800
O 	O 	0.00028 0.06790 0.74169 -0.41900
O 	O 	0.07293 0.02122 0.75114 -0.41300
O 	O 	0.98181 0.01310 0.71899 -0.41900
O 	O 	0.03479 0.99102 0.70588 -0.40900
O 	O 	0.00535 0.05432 0.67130 -0.38400
O 	O 	0.03067 0.98492 0.78043 -0.39100
O 	O 	0.04992 0.01972 0.62282 -0.37500
O 	O 	0.98372 0.93677 0.76935 -0.19700
O 	O 	0.01482 0.98033 0.62765 -0.20000
O 	O 	0.08218 0.05247 0.68695 -0.40000
O 	O 	0.98854 0.04083 0.80530 -0.40100
O 	O 	0.06600 0.08825 0.72844 -0.39700
O 	O 	0.04047 0.05536 0.81142 -0.39300
C 	C 	0.96163 0.94738 0.79069 0.25700
O 	O 	0.96015 0.97711 0.79670 -0.37300
Zn	Zn	0.30121 0.18452 0.13299 1.20500
Zn	Zn	0.26050 0.24388 0.13903 1.22200
Zn	Zn	0.27538 0.18650 0.04707 1.22000
P 	P 	0.30819 0.23866 0.08196 0.30600
P 	P 	0.23307 0.18522 0.11386 0.30400
C 	C 	0.25908 0.20300 0.97142 0.25400
C 	C 	0.32087 0.14110 0.07927 0.27900
C 	C 	0.29776 0.21541 0.20227 0.27600
O 	O 	0.32293 0.22300 0.11955 -0.41600
O 	O 	0.26145 0.16251 0.12495 -0.41600
O 	O 	0.27232 0.24809 0.08724 -0.42100
O 	O 	0.23760 0.20047 0.07245 -0.40200
O 	O 	0.31064 0.21532 0.04829 -0.38900
O 	O 	0.23024 0.21084 0.14530 -0.39400
O 	O 	0.27116 0.18034 0.99282 -0.37000
O 	O 	0.22560 0.29400 0.09798 -0.19700
O 	O 	0.24335 0.22501 0.98721 -0.19900
O 	O 	0.29187 0.14493 0.06494 -0.40300
O 	O 	0.29529 0.23966 0.17897 -0.40200
O 	O 	0.33026 0.15585 0.10971 -0.39600
O 	O 	0.30071 0.18766 0.18863 -0.39300
C 	C 	0.22832 0.30033 0.13398 0.25700
O 	O 	0.24101 0.28001 0.15812 -0.37700
Zn	Zn	0.32396 0.22161 0.63338 1.20600
Zn	Zn	0.28550 0.28002 0.65696 1.22100
Zn	Zn	0.29086 0.23417 0.55230 1.22100
P 	P 	0.32910 0.28101 0.59322 0.30600
P 	P 	0.25391 0.22739 0.62179 0.30400
C 	C 	0.28726 0.25222 0.47394 0.25800
C 	C 	0.33506 0.18423 0.57092 0.27800
C 	C 	0.32262 0.23893 0.70928 0.27500
O 	O 	0.34579 0.26114 0.62653 -0.41500
O 	O 	0.28197 0.20314 0.62673 -0.41600
O 	O 	0.29465 0.29116 0.60497 -0.41500
O 	O 	0.25646 0.24742 0.58315 -0.41200
O 	O 	0.32751 0.26151 0.55548 -0.38700
O 	O 	0.25307 0.24873 0.65788 -0.39100
O 	O 	0.28252 0.22933 0.49831 -0.37500
O 	O 	0.27820 0.34761 0.63905 -0.20000
O 	O 	0.29278 0.28005 0.48618 -0.19600
O 	O 	0.30519 0.19075 0.56293 -0.40600
O 	O 	0.32111 0.26690 0.69342 -0.40100
O 	O 	0.34927 0.19580 0.60092 -0.39600
O 	O 	0.32779 0.21507 0.68832 -0.39300
C 	C 	0.26564 0.34063 0.67164 0.25800
O 	O 	0.26878 0.31262 0.68642 -0.37500
Zn	Zn	0.18549 0.75824 0.37213 1.20700
Zn	Zn	0.23204 0.70767 0.40598 1.22300
Zn	Zn	0.22282 0.75064 0.29713 1.22200
P 	P 	0.19415 0.69842 0.33683 0.30400
P 	P 	0.25392 0.76532 0.37027 0.30000
C 	C 	0.24546 0.73210 0.22729 0.26100
C 	C 	0.16748 0.79046 0.30460 0.27900
C 	C 	0.18284 0.73734 0.44822 0.27800
O 	O 	0.17192 0.71592 0.36434 -0.41800
O 	O 	0.22234 0.78498 0.36752 -0.41400
O 	O 	0.22911 0.69484 0.35449 -0.41600
O 	O 	0.25690 0.74413 0.33438 -0.41600
O 	O 	0.19393 0.71583 0.29637 -0.38300
O 	O 	0.25558 0.74569 0.40932 -0.39400
O 	O 	0.23491 0.75579 0.24531 -0.37900
O 	O 	0.23326 0.63880 0.41012 -0.19900
O 	O 	0.25058 0.70573 0.24566 -0.20100
O 	O 	0.19820 0.79016 0.29950 -0.40400
O 	O 	0.19151 0.71119 0.43357 -0.40100
O 	O 	0.15603 0.77822 0.33570 -0.39800
O 	O 	0.17855 0.76209 0.42631 -0.39600
C 	C 	0.25409 0.65008 0.43427 0.26100
O 	O 	0.25383 0.67965 0.44100 -0.37700
Zn	Zn	0.22018 0.76918 0.87889 1.20600
Zn	Zn	0.25734 0.70688 0.88628 1.22300
Zn	Zn	0.22826 0.76235 0.79198 1.22200
P 	P 	0.19935 0.71476 0.83982 0.30300
P 	P 	0.28233 0.76106 0.84668 0.30300
C 	C 	0.22585 0.74202 0.71828 0.25700
C 	C 	0.19566 0.81405 0.82551 0.28000
C 	C 	0.23531 0.74160 0.95098 0.27900
O 	O 	0.19366 0.73263 0.87730 -0.41800
O 	O 	0.25908 0.78684 0.86010 -0.41900
O 	O 	0.23451 0.70190 0.83905 -0.42000
O 	O 	0.26805 0.74437 0.81028 -0.40600
O 	O 	0.19175 0.73716 0.80413 -0.38800
O 	O 	0.29028 0.73722 0.88100 -0.38800
O 	O 	0.22353 0.76707 0.73786 -0.37600
O 	O 	0.30513 0.67319 0.84848 -0.20000
O 	O 	0.23463 0.71605 0.73554 -0.20100
O 	O 	0.22035 0.80612 0.80611 -0.40200
O 	O 	0.23255 0.71564 0.93250 -0.40000
O 	O 	0.18968 0.79974 0.85787 -0.39800
O 	O 	0.23158 0.76843 0.93292 -0.39800
C 	C 	0.29927 0.65832 0.88037 0.25700
O 	O 	0.27944 0.67015 0.90374 -0.37500
Zn	Zn	0.47557 0.91488 0.00367 1.20700
Zn	Zn	0.52998 0.96073 0.02944 1.22300
Zn	Zn	0.48142 0.94907 0.92379 1.22200
P 	P 	0.53568 0.92070 0.96474 0.30400
P 	P 	0.47014 0.98217 0.99371 0.30100
C 	C 	0.49858 0.96809 0.85040 0.26000
C 	C 	0.44001 0.89653 0.93944 0.27800
C 	C 	0.49829 0.91661 0.07932 0.27800
O 	O 	0.51854 0.90065 0.99621 -0.41600
O 	O 	0.44935 0.95175 0.99611 -0.41500
O 	O 	0.54117 0.95524 0.97773 -0.41300
O 	O 	0.49031 0.98341 0.95626 -0.41500
O 	O 	0.51595 0.91964 0.92550 -0.38600
O 	O 	0.49194 0.98497 0.03125 -0.39400
O 	O 	0.47474 0.95874 0.87060 -0.37800
O 	O 	0.60010 0.96644 0.02416 -0.20100
O 	O 	0.52603 0.97365 0.86716 -0.20100
O 	O 	0.44059 0.92638 0.93131 -0.40400
O 	O 	0.52513 0.92277 0.06272 -0.40200
O 	O 	0.45313 0.88572 0.97130 -0.39600
O 	O 	0.47291 0.91005 0.05871 -0.39400
C 	C 	0.58993 0.98426 0.05053 0.25900
O 	O 	0.56038 0.98234 0.06054 -0.37600
Zn	Zn	0.45347 0.95105 0.50210 1.20700
Zn	Zn	0.51280 0.99366 0.51100 1.22400
Zn	Zn	0.45835 0.96725 0.41502 1.22100
P 	P 	0.51140 0.94212 0.46035 0.30200
P 	P 	0.45352 0.01447 0.47355 0.30200
C 	C 	0.47433 0.97921 0.33989 0.25700
C 	C 	0.41238 0.92397 0.44782 0.27900
C 	C 	0.48197 0.96163 0.57415 0.27800
O 	O 	0.49383 0.93041 0.49695 -0.42000
O 	O 	0.42987 0.98771 0.48501 -0.41600
O 	O 	0.52007 0.97777 0.46212 -0.41900
O 	O 	0.47154 0.00637 0.43606 -0.40300
O 	O 	0.49002 0.93522 0.42363 -0.38700
O 	O 	0.47724 0.02123 0.50846 -0.39300
O 	O 	0.45206 0.96729 0.36078 -0.37600
O 	O 	0.54332 0.04879 0.47922 -0.19800
O 	O 	0.49711 0.99528 0.35590 -0.20000
O 	O 	0.41575 0.95079 0.42972 -0.40300
O 	O 	0.50795 0.96331 0.55452 -0.40200
O 	O 	0.42646 0.91886 0.48111 -0.39800
O 	O 	0.45440 0.95719 0.55686 -0.39700
C 	C 	0.55772 0.04090 0.51149 0.25900
O 	O 	0.54709 0.01754 0.53178 -0.37600
Zn	Zn	0.78422 0.70971 0.47862 1.20500
Zn	Zn	0.73699 0.76395 0.48630 1.21900
Zn	Zn	0.75416 0.70447 0.39729 1.22100
P 	P 	0.78403 0.76177 0.42558 0.30600
P 	P 	0.71440 0.70321 0.46412 0.30400
C 	C 	0.73022 0.70692 0.32140 0.26000
C 	C 	0.80204 0.66219 0.43073 0.28200
C 	C 	0.77778 0.73769 0.54840 0.27800
O 	O 	0.80157 0.74998 0.46353 -0.41100
O 	O 	0.74567 0.68488 0.47651 -0.42000
O 	O 	0.74782 0.76899 0.43330 -0.41600
O 	O 	0.71671 0.71780 0.42217 -0.41300
O 	O 	0.78691 0.73596 0.39452 -0.39600
O 	O 	0.70815 0.72945 0.49378 -0.38400
O 	O 	0.74911 0.69175 0.34551 -0.37500
O 	O 	0.73928 0.83150 0.46578 -0.20200
O 	O 	0.71195 0.72880 0.33334 -0.20200
O 	O 	0.77249 0.66480 0.41818 -0.40500
O 	O 	0.77208 0.76241 0.52654 -0.40100
O 	O 	0.81376 0.68194 0.45494 -0.40000
O 	O 	0.78696 0.71202 0.53341 -0.39700
C 	C 	0.71607 0.82541 0.48860 0.26100
O 	O 	0.71444 0.79819 0.50562 -0.37700
Zn	Zn	0.70550 0.70058 0.88473 1.20700
Zn	Zn	0.75553 0.75590 0.88039 1.22300
Zn	Zn	0.72357 0.69879 0.97201 1.22100
P 	P 	0.70167 0.75501 0.93083 0.30100
P 	P 	0.77136 0.69456 0.91326 0.30500
C 	C 	0.74654 0.68769 0.04793 0.26000
C 	C 	0.67690 0.65762 0.93572 0.27700
C 	C 	0.72154 0.72990 0.81482 0.27700
O 	O 	0.68841 0.74153 0.89234 -0.41700
O 	O 	0.74196 0.67486 0.89903 -0.41700
O 	O 	0.73878 0.76126 0.92971 -0.42300
O 	O 	0.76456 0.71022 0.95257 -0.40200
O 	O 	0.69306 0.73205 0.96514 -0.39100
O 	O 	0.78107 0.71915 0.88101 -0.38900
O 	O 	0.72120 0.68873 0.02553 -0.37600
O 	O 	0.81811 0.77458 0.91011 -0.20000
O 	O 	0.77470 0.68934 0.03349 -0.20000
O 	O 	0.70487 0.65912 0.95320 -0.40100
O 	O 	0.72467 0.75451 0.83578 -0.40000
O 	O 	0.67092 0.67479 0.90492 -0.39400
O 	O 	0.71211 0.70347 0.83004 -0.39400
C 	C 	0.81050 0.79257 0.88072 0.25700
O 	O 	0.78338 0.78847 0.86241 -0.37300
Zn	Zn	0.81720 0.25345 0.14182 1.20700
Zn	Zn	0.76367 0.20460 0.12536 1.22400
Zn	Zn	0.78905 0.25465 0.22271 1.22200
P 	P 	0.80927 0.19757 0.18911 0.30200
P 	P 	0.75020 0.26587 0.15320 0.30100
C 	C 	0.76948 0.24403 0.29676 0.26100
C 	C 	0.84493 0.28897 0.19938 0.27800
C 	C 	0.80807 0.22841 0.06959 0.27800
O 	O 	0.82859 0.21072 0.15454 -0.41800
O 	O 	0.78276 0.28307 0.14664 -0.41400
O 	O 	0.77254 0.19541 0.17819 -0.41600
O 	O 	0.75060 0.24773 0.19315 -0.41000
O 	O 	0.81566 0.21828 0.22518 -0.38800
O 	O 	0.74221 0.24369 0.11885 -0.38900
O 	O 	0.78396 0.26400 0.27483 -0.37900
O 	O 	0.69789 0.18803 0.14082 -0.19900
O 	O 	0.75525 0.22014 0.28189 -0.20100
O 	O 	0.81522 0.29169 0.20888 -0.40500
O 	O 	0.79971 0.20372 0.08961 -0.40100
O 	O 	0.85188 0.27368 0.16927 -0.39700
O 	O 	0.81797 0.25327 0.08673 -0.39800
C 	C 	0.70830 0.17015 0.11463 0.25800
O 	O 	0.73634 0.17521 0.10093 -0.37500
Zn	Zn	0.81592 0.26592 0.64309 1.20700
Zn	Zn	0.76735 0.21372 0.62064 1.22500
Zn	Zn	0.78599 0.25883 0.72330 1.22100
P 	P 	0.81128 0.20635 0.68514 0.30300
P 	P 	0.74814 0.27213 0.65283 0.30000
C 	C 	0.76763 0.24026 0.79600 0.26000
C 	C 	0.83915 0.30014 0.70467 0.27900
C 	C 	0.81168 0.24282 0.56943 0.27800
O 	O 	0.83068 0.22399 0.65358 -0.41800
O 	O 	0.77932 0.29218 0.64964 -0.41500
O 	O 	0.77501 0.20235 0.67279 -0.41700
O 	O 	0.74857 0.25190 0.69140 -0.41200
O 	O 	0.81501 0.22406 0.72391 -0.38200
O 	O 	0.74350 0.25156 0.61623 -0.39500
O 	O 	0.77889 0.26364 0.77624 -0.37800
O 	O 	0.75910 0.14576 0.63093 -0.20100
O 	O 	0.75655 0.21605 0.77851 -0.20100
O 	O 	0.80930 0.29884 0.71434 -0.40300
O 	O 	0.80530 0.21712 0.58843 -0.40400
O 	O 	0.84794 0.28722 0.67355 -0.39900
O 	O 	0.81770 0.26827 0.58764 -0.39500
C 	C 	0.74188 0.15589 0.60164 0.26100
O 	O 	0.74360 0.18497 0.59059 -0.37700
Zn	Zn	0.53614 0.41452 0.98902 1.20700
Zn	Zn	0.47511 0.45174 0.96335 1.22200
Zn	Zn	0.52621 0.44328 0.06853 1.22000
P 	P 	0.47683 0.40757 0.02813 0.30500
P 	P 	0.53050 0.48180 0.99827 0.30300
C 	C 	0.50608 0.45492 0.14233 0.25900
C 	C 	0.57720 0.40052 0.05191 0.28000
C 	C 	0.51450 0.41676 0.91301 0.27700
O 	O 	0.49632 0.39254 0.99591 -0.41500
O 	O 	0.55570 0.45497 0.99535 -0.41700
O 	O 	0.46575 0.44153 0.01536 -0.41500
O 	O 	0.51128 0.47778 0.03636 -0.41300
O 	O 	0.49783 0.40788 0.06653 -0.38700
O 	O 	0.50753 0.48303 0.96141 -0.39200
O 	O 	0.53116 0.45066 0.12219 -0.37600
O 	O 	0.40561 0.45200 0.97628 -0.20000
O 	O 	0.47799 0.45643 0.12550 -0.20000
O 	O 	0.57074 0.42913 0.06066 -0.40300
O 	O 	0.48668 0.41766 0.92880 -0.40100
O 	O 	0.56373 0.38843 0.02181 -0.40000
O 	O 	0.54023 0.41253 0.93428 -0.39400
C 	C 	0.41189 0.46893 0.94608 0.25900
O 	O 	0.44053 0.46893 0.93290 -0.37500
Zn	Zn	0.55392 0.45318 0.49243 1.20400
Zn	Zn	0.49804 0.49875 0.47829 1.22100
Zn	Zn	0.55353 0.47657 0.57595 1.22100
P 	P 	0.49741 0.44977 0.53756 0.30700
P 	P 	0.55974 0.51913 0.50910 0.30600
C 	C 	0.53720 0.48870 0.65025 0.25700
C 	C 	0.59608 0.42903 0.55026 0.27900
C 	C 	0.52506 0.46094 0.41918 0.27700
O 	O 	0.51234 0.43535 0.50162 -0.41700
O 	O 	0.58015 0.48951 0.50118 -0.41800
O 	O 	0.49035 0.48556 0.52989 -0.42100
O 	O 	0.54235 0.51497 0.54852 -0.40700
O 	O 	0.52113 0.44485 0.57316 -0.39200
O 	O 	0.53487 0.52518 0.47471 -0.38700
O 	O 	0.56049 0.47880 0.63015 -0.37400
O 	O 	0.47998 0.56215 0.49397 -0.19800
O 	O 	0.51325 0.50310 0.63311 -0.20200
O 	O 	0.59471 0.45737 0.56272 -0.40300
O 	O 	0.49962 0.46619 0.43875 -0.39900
O 	O 	0.57993 0.42154 0.51942 -0.39600
O 	O 	0.55237 0.45513 0.43686 -0.39700
C 	C 	0.45898 0.55046 0.47032 0.25800
O 	O 	0.46420 0.52343 0.45603 -0.37600
Zn	Zn	0.98404 0.49968 0.27592 1.20800
Zn	Zn	0.04777 0.46882 0.25622 1.22300
Zn	Zn	0.00020 0.47542 0.35937 1.22100
P 	P 	0.04368 0.51357 0.31561 0.30300
P 	P 	0.99759 0.43449 0.29389 0.30000
C 	C 	0.02297 0.47236 0.43519 0.26000
C 	C 	0.94411 0.51204 0.33583 0.28100
C 	C 	0.00438 0.50027 0.20129 0.27900
O 	O 	0.02103 0.52603 0.28205 -0.41700
O 	O 	0.96927 0.45813 0.28735 -0.41800
O 	O 	0.05762 0.48051 0.30708 -0.41800
O 	O 	0.01756 0.44154 0.33186 -0.41000
O 	O 	0.02512 0.51291 0.35421 -0.38400
O 	O 	0.01889 0.43440 0.25726 -0.39300
O 	O 	0.99743 0.46980 0.41349 -0.37700
O 	O 	0.11735 0.47747 0.26873 -0.20000
O 	O 	0.05088 0.47256 0.42000 -0.19800
O 	O 	0.95421 0.48489 0.34884 -0.40400
O 	O 	0.03230 0.50170 0.21875 -0.40300
O 	O 	0.95429 0.52363 0.30374 -0.40100
O 	O 	0.97862 0.49963 0.22097 -0.39700
C 	C 	0.11178 0.46175 0.23811 0.26100
O 	O 	0.08260 0.45541 0.22737 -0.37800
Zn	Zn	0.97416 0.53460 0.76840 1.20700
Zn	Zn	0.03748 0.49671 0.76061 1.22400
Zn	Zn	0.97834 0.50904 0.85306 1.22300
P 	P 	0.02987 0.54306 0.81828 0.30200
P 	P 	0.97939 0.46848 0.78760 0.30200
C 	C 	0.99135 0.48545 0.92615 0.25600
C 	C 	0.92965 0.55141 0.82243 0.27800
C 	C 	0.00462 0.53071 0.69855 0.27700
O 	O 	0.01280 0.55698 0.78108 -0.41700
O 	O 	0.95417 0.49454 0.77667 -0.41700
O 	O 	0.04208 0.50888 0.81230 -0.41500
O 	O 	0.99596 0.47427 0.82791 -0.40600
O 	O 	0.00661 0.54427 0.85286 -0.38800
O 	O 	0.00462 0.46612 0.75511 -0.39000
O 	O 	0.97066 0.50196 0.90594 -0.37600
O 	O 	0.07811 0.44987 0.79669 -0.20000
O 	O 	0.01431 0.47158 0.90925 -0.19900
O 	O 	0.93492 0.52303 0.83555 -0.40300
O 	O 	0.03027 0.53017 0.72078 -0.40200
O 	O 	0.94382 0.56173 0.79196 -0.39500
O 	O 	0.97660 0.53397 0.71309 -0.39400
C 	C 	0.08950 0.45735 0.76357 0.25600
O 	O 	0.07459 0.47774 0.74141 -0.37400
C 	C 	0.01502 0.49783 0.54696 0.11300
N 	N 	0.98871 0.49231 0.52527 -0.05700
N 	N 	0.99125 0.48314 0.48990 -0.04600
C 	C 	0.02017 0.47913 0.47527 0.07000
N 	N 	0.04647 0.48426 0.49713 -0.04500
N 	N 	0.04393 0.49340 0.53251 -0.05600
C 	C 	0.00728 0.52572 0.65801 0.05600
N 	N 	0.03615 0.52183 0.64323 -0.04700
N 	N 	0.03861 0.51343 0.60756 -0.05700
C 	C 	0.01227 0.50851 0.58570 0.11200
N 	N 	0.98339 0.51296 0.60023 -0.05800
N 	N 	0.98092 0.52139 0.63592 -0.04500
C 	C 	0.99484 0.49149 0.04326 0.11300
N 	N 	0.01839 0.47730 0.02535 -0.05700
N 	N 	0.01669 0.47444 0.98801 -0.04500
C 	C 	0.99152 0.48588 0.96747 0.07200
N 	N 	0.96776 0.49978 0.98541 -0.04500
N 	N 	0.96931 0.50239 0.02285 -0.05800
C 	C 	0.00215 0.50066 0.15996 0.05800
N 	N 	0.97361 0.50347 0.14157 -0.04400
N 	N 	0.97132 0.50123 0.10411 -0.05800
C 	C 	0.99746 0.49571 0.08413 0.11300
N 	N 	0.02601 0.49319 0.10251 -0.05700
N 	N 	0.02833 0.49573 0.13988 -0.04700
C 	C 	0.52398 0.44374 0.80005 0.11300
N 	N 	0.49547 0.44560 0.81639 -0.05700
N 	N 	0.49204 0.43553 0.85197 -0.04900
C 	C 	0.51702 0.42336 0.87228 0.05600
N 	N 	0.54539 0.42100 0.85571 -0.04400
N 	N 	0.54878 0.43089 0.82004 -0.05800
C 	C 	0.53521 0.47929 0.69034 0.07100
N 	N 	0.55826 0.46163 0.70755 -0.04700
N 	N 	0.55486 0.45055 0.74275 -0.05800
C 	C 	0.52816 0.45653 0.76155 0.11300
N 	N 	0.50531 0.47445 0.74447 -0.05600
N 	N 	0.50879 0.48568 0.70941 -0.04500
C 	C 	0.51715 0.45746 0.30158 0.11300
N 	N 	0.49118 0.46226 0.32218 -0.05700
N 	N 	0.49366 0.46289 0.35977 -0.04600
C 	C 	0.52213 0.45859 0.37789 0.06000
N 	N 	0.54809 0.45363 0.35734 -0.04500
N 	N 	0.54563 0.45303 0.31971 -0.05800
C 	C 	0.50919 0.45653 0.18370 0.07100
N 	N 	0.53784 0.45269 0.20161 -0.04700
N 	N 	0.54042 0.45306 0.23924 -0.05800
C 	C 	0.51442 0.45723 0.26002 0.11200
N 	N 	0.48581 0.46121 0.24207 -0.05600
N 	N 	0.48324 0.46082 0.20447 -0.04600
C 	C 	0.92261 0.38274 0.77560 0.11200
N 	N 	0.95375 0.38276 0.76763 -0.05700
N 	N 	0.97158 0.40737 0.77465 -0.04900
C 	C 	0.95877 0.43264 0.78981 0.09100
N 	N 	0.92811 0.43196 0.79978 -0.05600
N 	N 	0.91028 0.40731 0.79288 -0.05700
C 	C 	0.86126 0.32014 0.72508 0.05900
N 	N 	0.85072 0.33914 0.75171 -0.04500
N 	N 	0.87061 0.35831 0.76909 -0.05800
C 	C 	0.90168 0.35873 0.76064 0.11300
N 	N 	0.91235 0.33906 0.73480 -0.05800
N 	N 	0.89242 0.32006 0.71724 -0.04500
C 	C 	0.67128 0.34025 0.62973 0.11200
N 	N 	0.69863 0.34922 0.64721 -0.05700
N 	N 	0.72044 0.32838 0.65810 -0.05400
C 	C 	0.71540 0.29801 0.65205 0.09000
N 	N 	0.68716 0.28890 0.63701 -0.05200
N 	N 	0.66542 0.30972 0.62590 -0.05700
C 	C 	0.61603 0.40601 0.57048 0.05800
N 	N 	0.61248 0.37563 0.56336 -0.04500
N 	N 	0.62943 0.35452 0.58315 -0.05800
C 	C 	0.65044 0.36321 0.61062 0.11200
N 	N 	0.65392 0.39361 0.61781 -0.05800
N 	N 	0.63675 0.41469 0.59825 -0.04600
C 	C 	0.79292 0.23227 0.95294 0.11300
N 	N 	0.78482 0.20662 0.97333 -0.05700
N 	N 	0.79089 0.20480 0.01050 -0.04800
C 	C 	0.80536 0.22853 0.02827 0.05700
N 	N 	0.81400 0.25391 0.00775 -0.04400
N 	N 	0.80794 0.25572 0.97060 -0.05800
C 	C 	0.77153 0.23934 0.83726 0.07000
N 	N 	0.78606 0.26296 0.85514 -0.04600
N 	N 	0.79263 0.26081 0.89217 -0.05800
C 	C 	0.78495 0.23492 0.91235 0.11200
N 	N 	0.76995 0.21149 0.89459 -0.05600
N 	N 	0.76339 0.21365 0.85754 -0.04500
C 	C 	0.78710 0.24590 0.41280 0.11200
N 	N 	0.79463 0.27058 0.39039 -0.05800
N 	N 	0.78788 0.27051 0.35337 -0.04600
C 	C 	0.77314 0.24589 0.33784 0.07000
N 	N 	0.76487 0.22159 0.36043 -0.04500
N 	N 	0.77182 0.22156 0.39737 -0.05600
C 	C 	0.80977 0.24327 0.52812 0.05500
N 	N 	0.80288 0.21691 0.50990 -0.04700
N 	N 	0.79625 0.21772 0.47290 -0.05800
C 	C 	0.79640 0.24491 0.45299 0.11200
N 	N 	0.80422 0.27121 0.47095 -0.05800
N 	N 	0.81065 0.27042 0.50808 -0.04500
C 	C 	0.91638 0.33092 0.26319 0.11200
N 	N 	0.92353 0.31418 0.23280 -0.05800
N 	N 	0.90069 0.30075 0.21241 -0.04400
C 	C 	0.87003 0.30385 0.22168 0.05700
N 	N 	0.86292 0.31981 0.25267 -0.04700
N 	N 	0.88576 0.33327 0.27304 -0.05800
C 	C 	0.97984 0.39731 0.29822 0.09000
N 	N 	0.98955 0.37450 0.27592 -0.05100
N 	N 	0.97022 0.35129 0.26748 -0.05700
C 	C 	0.94066 0.35023 0.28122 0.11200
N 	N 	0.93228 0.37124 0.30674 -0.05700
N 	N 	0.95165 0.39443 0.31516 -0.05600
C 	C 	0.64509 0.35001 0.11472 0.11300
N 	N 	0.64706 0.38124 0.11212 -0.05800
N 	N 	0.62505 0.39748 0.09251 -0.04500
C 	C 	0.60095 0.38287 0.07421 0.05800
N 	N 	0.59894 0.35169 0.07692 -0.04600
N 	N 	0.62059 0.33550 0.09711 -0.05800
C 	C 	0.71916 0.29361 0.15264 0.09000
N 	N 	0.68889 0.28393 0.15595 -0.04900
N 	N 	0.66498 0.30276 0.14622 -0.05600
C 	C 	0.67069 0.33189 0.13315 0.11200
N 	N 	0.70095 0.34216 0.13199 -0.05700
N 	N 	0.72488 0.32321 0.14138 -0.05200
C 	C 	0.87200 0.60898 0.88231 0.11300
N 	N 	0.86980 0.57789 0.88699 -0.05800
N 	N 	0.88797 0.55944 0.86749 -0.04500
C 	C 	0.90830 0.57156 0.84212 0.05700
N 	N 	0.91045 0.60264 0.83740 -0.04500
N 	N 	0.89261 0.62109 0.85726 -0.05800
C 	C 	0.80414 0.66881 0.91926 0.09400
N 	N 	0.83356 0.67937 0.91196 -0.04700
N 	N 	0.85619 0.65989 0.90280 -0.05600
C 	C 	0.85011 0.62924 0.90117 0.11300
N 	N 	0.82157 0.61840 0.91190 -0.05600
N 	N 	0.79887 0.63794 0.92074 -0.05300
C 	C 	0.59042 0.56586 0.98276 0.11200
N 	N 	0.56050 0.56528 0.96780 -0.05700
N 	N 	0.54153 0.54147 0.97535 -0.05100
C 	C 	0.55190 0.51754 0.99805 0.09100
N 	N 	0.58142 0.51865 0.01409 -0.05700
N 	N 	0.60036 0.54254 0.00672 -0.05800
C 	C 	0.65429 0.63371 0.94771 0.06100
N 	N 	0.62495 0.63227 0.93116 -0.04600
N 	N 	0.60437 0.61093 0.94273 -0.05800
C 	C 	0.61254 0.59045 0.97121 0.11200
N 	N 	0.64184 0.59200 0.98781 -0.05800
N 	N 	0.66234 0.61339 0.97634 -0.04600
C 	C 	0.74569 0.73544 0.70156 0.11200
N 	N 	0.74252 0.76155 0.72133 -0.05800
N 	N 	0.73403 0.75988 0.75731 -0.04700
C 	C 	0.72806 0.73208 0.77433 0.05800
N 	N 	0.73072 0.70606 0.75434 -0.04500
N 	N 	0.73951 0.70770 0.71853 -0.05800
C 	C 	0.77307 0.73843 0.58930 0.05700
N 	N 	0.77680 0.71224 0.61093 -0.04400
N 	N 	0.76859 0.71151 0.64695 -0.05800
C 	C 	0.75655 0.73699 0.66251 0.11200
N 	N 	0.75351 0.76345 0.64117 -0.05800
N 	N 	0.76148 0.76411 0.60498 -0.04800
C 	C 	0.73489 0.69277 0.20575 0.11300
N 	N 	0.71003 0.70810 0.21959 -0.05700
N 	N 	0.70829 0.71226 0.25662 -0.04600
C 	C 	0.73117 0.70086 0.28090 0.07100
N 	N 	0.75577 0.68510 0.26712 -0.04600
N 	N 	0.75769 0.68125 0.23005 -0.05700
C 	C 	0.74321 0.68698 0.08909 0.07000
N 	N 	0.76882 0.68224 0.11261 -0.04600
N 	N 	0.76603 0.68336 0.14995 -0.05700
C 	C 	0.73761 0.68959 0.16478 0.11300
N 	N 	0.71197 0.69411 0.14125 -0.05800
N 	N 	0.71470 0.69267 0.10396 -0.04600
C 	C 	0.87528 0.56323 0.38580 0.11300
N 	N 	0.87232 0.55655 0.34866 -0.05700
N 	N 	0.89374 0.53904 0.33292 -0.04400
C 	C 	0.91830 0.52712 0.35409 0.06100
N 	N 	0.92058 0.53273 0.39157 -0.05100
N 	N 	0.89949 0.55079 0.40717 -0.05800
C 	C 	0.82012 0.63495 0.42156 0.05900
N 	N 	0.84875 0.62915 0.43862 -0.04500
N 	N 	0.86574 0.60502 0.42872 -0.05800
C 	C 	0.85458 0.58616 0.40142 0.11200
N 	N 	0.82565 0.59161 0.38504 -0.05800
N 	N 	0.80859 0.61556 0.39513 -0.04500
C 	C 	0.64339 0.62766 0.48208 0.11300
N 	N 	0.63868 0.65584 0.49671 -0.05700
N 	N 	0.65839 0.67913 0.48905 -0.05000
C 	C 	0.68302 0.67508 0.46597 0.09100
N 	N 	0.68706 0.64719 0.45040 -0.05800
N 	N 	0.66762 0.62382 0.45841 -0.05700
C 	C 	0.58639 0.55162 0.50929 0.09200
N 	N 	0.61690 0.54760 0.49975 -0.05200
N 	N 	0.63520 0.57185 0.49186 -0.05800
C 	C 	0.62361 0.60095 0.49342 0.11200
N 	N 	0.59335 0.60508 0.50405 -0.05600
N 	N 	0.57491 0.58075 0.51149 -0.05000
C 	C 	0.63417 0.87766 0.47909 0.11300
N 	N 	0.63631 0.85342 0.50415 -0.05800
N 	N 	0.66334 0.83800 0.50920 -0.04600
C 	C 	0.68898 0.84626 0.48920 0.06900
N 	N 	0.68720 0.87127 0.46520 -0.04600
N 	N 	0.66018 0.88684 0.46033 -0.05700
C 	C 	0.54724 0.92080 0.45908 0.08800
N 	N 	0.57423 0.93505 0.44844 -0.05500
N 	N 	0.60203 0.92096 0.45392 -0.05800
C 	C 	0.60357 0.89243 0.47069 0.11100
N 	N 	0.57650 0.87792 0.48046 -0.05700
N 	N 	0.54873 0.89191 0.47470 -0.05000
C 	C 	0.64060 0.08573 0.54470 0.11300
N 	N 	0.62379 0.09572 0.51341 -0.05600
N 	N 	0.59718 0.08148 0.50294 -0.04500
C 	C 	0.58653 0.05698 0.52360 0.07100
N 	N 	0.60335 0.04693 0.55485 -0.04500
N 	N 	0.63001 0.06113 0.56528 -0.05700
C 	C 	0.71819 0.13580 0.58412 0.07000
N 	N 	0.71070 0.10841 0.60110 -0.04600
N 	N 	0.68642 0.09193 0.58785 -0.05600
C 	C 	0.66903 0.10236 0.55721 0.11300
N 	N 	0.67712 0.12930 0.53959 -0.05700
N 	N 	0.70130 0.14584 0.55293 -0.04500
C 	C 	0.49048 0.96821 0.73284 0.11200
N 	N 	0.51844 0.97536 0.75032 -0.05700
N 	N 	0.52082 0.97610 0.78790 -0.04600
C 	C 	0.49532 0.96971 0.80905 0.07000
N 	N 	0.46727 0.96291 0.79157 -0.04600
N 	N 	0.46486 0.96223 0.75397 -0.05800
C 	C 	0.48426 0.96223 0.61550 0.05900
N 	N 	0.45799 0.95883 0.63623 -0.04500
N 	N 	0.45996 0.96069 0.67375 -0.05800
C 	C 	0.48822 0.96620 0.69152 0.11200
N 	N 	0.51447 0.96957 0.67076 -0.05700
N 	N 	0.51251 0.96762 0.63328 -0.04600
C 	C 	0.48411 0.95006 0.22988 0.11200
N 	N 	0.45789 0.94237 0.24921 -0.05800
N 	N 	0.45426 0.95243 0.28403 -0.04700
C 	C 	0.47656 0.97073 0.30029 0.07100
N 	N 	0.50247 0.97883 0.28068 -0.04600
N 	N 	0.50621 0.96861 0.24601 -0.05700
C 	C 	0.49580 0.92119 0.11996 0.05400
N 	N 	0.52047 0.93337 0.13990 -0.04900
N 	N 	0.51690 0.94192 0.17533 -0.05700
C 	C 	0.48859 0.93848 0.19189 0.11200
N 	N 	0.46415 0.92547 0.17235 -0.05800
N 	N 	0.46767 0.91707 0.13681 -0.04400
C 	C 	0.64710 0.84192 0.94574 0.11200
N 	N 	0.65816 0.82521 0.97643 -0.05700
N 	N 	0.67557 0.80007 0.97208 -0.05100
C 	C 	0.68246 0.79101 0.93696 0.08800
N 	N 	0.67235 0.80825 0.90635 -0.05600
N 	N 	0.65487 0.83334 0.91066 -0.05700
C 	C 	0.57332 0.90338 0.95878 0.09500
N 	N 	0.58262 0.89658 0.92369 -0.04800
N 	N 	0.60754 0.87843 0.91943 -0.05600
C 	C 	0.62372 0.86640 0.95017 0.11300
N 	N 	0.61522 0.87434 0.98523 -0.05500
N 	N 	0.59036 0.89257 0.98946 -0.05400
C 	C 	0.64296 0.06044 0.08246 0.11300
N 	N 	0.61490 0.05431 0.09862 -0.05700
N 	N 	0.59861 0.02912 0.08973 -0.04500
C 	C 	0.60996 0.00928 0.06453 0.07100
N 	N 	0.63842 0.01498 0.04913 -0.04600
N 	N 	0.65471 0.04019 0.05801 -0.05600
C 	C 	0.69038 0.14261 0.10424 0.07100
N 	N 	0.70276 0.12197 0.08072 -0.04500
N 	N 	0.68761 0.09572 0.07370 -0.05700
C 	C 	0.65973 0.08930 0.09018 0.11300
N 	N 	0.64722 0.11007 0.11341 -0.05600
N 	N 	0.66236 0.13632 0.12040 -0.04500
C 	C 	0.13264 0.63452 0.83760 0.11100
N 	N 	0.13126 0.65538 0.86531 -0.05700
N 	N 	0.15109 0.67921 0.86589 -0.05200
C 	C 	0.17275 0.68291 0.83874 0.08800
N 	N 	0.17436 0.66198 0.81119 -0.05100
N 	N 	0.15452 0.63811 0.81057 -0.05600
C 	C 	0.06334 0.56683 0.82788 0.09100
N 	N 	0.08732 0.56815 0.80337 -0.06100
N 	N 	0.11011 0.58913 0.80721 -0.05700
C 	C 	0.10945 0.60943 0.83561 0.11300
N 	N 	0.08585 0.60760 0.86066 -0.05600
N 	N 	0.06303 0.58666 0.85673 -0.04900
C 	C 	0.33761 0.57088 0.90137 0.11300
N 	N 	0.31825 0.58337 0.92670 -0.05700
N 	N 	0.30600 0.61139 0.92010 -0.04600
C 	C 	0.31294 0.62772 0.88812 0.07200
N 	N 	0.33202 0.61511 0.86269 -0.04500
N 	N 	0.34423 0.58713 0.86925 -0.05600
C 	C 	0.38879 0.49156 0.93108 0.07000
N 	N 	0.39394 0.50697 0.89793 -0.04500
N 	N 	0.37643 0.53143 0.88749 -0.05600
C 	C 	0.35345 0.54136 0.91007 0.11300
N 	N 	0.34743 0.52522 0.94248 -0.05600
N 	N 	0.36481 0.50060 0.95279 -0.04600
C 	C 	0.36902 0.81646 0.84861 0.11200
N 	N 	0.34257 0.82827 0.83100 -0.05700
N 	N 	0.31757 0.81028 0.82451 -0.05500
C 	C 	0.31836 0.78006 0.83552 0.09100
N 	N 	0.34612 0.76756 0.84859 -0.04800
N 	N 	0.37110 0.78553 0.85519 -0.05600
C 	C 	0.42319 0.87565 0.91402 0.05700
N 	N 	0.42655 0.84469 0.91887 -0.04500
N 	N 	0.41089 0.82567 0.89612 -0.05800
C 	C 	0.39135 0.83707 0.86791 0.11200
N 	N 	0.38881 0.86809 0.86232 -0.05800
N 	N 	0.40470 0.88712 0.88489 -0.04600
C 	C 	0.18590 0.74088 0.56515 0.11200
N 	N 	0.18541 0.76741 0.54378 -0.05800
N 	N 	0.18220 0.76646 0.50624 -0.04600
C 	C 	0.17945 0.73896 0.48909 0.05700
N 	N 	0.17857 0.71258 0.51059 -0.04500
N 	N 	0.18165 0.71353 0.54807 -0.05700
C 	C 	0.21516 0.74196 0.67855 0.07200
N 	N 	0.21104 0.71483 0.66098 -0.04500
N 	N 	0.20083 0.71452 0.62505 -0.05600
C 	C 	0.19454 0.74134 0.60558 0.11200
N 	N 	0.19852 0.76854 0.62318 -0.05800
N 	N 	0.20851 0.76883 0.65928 -0.04600
C 	C 	0.24571 0.73842 0.06844 0.11200
N 	N 	0.24660 0.71205 0.04879 -0.05700
N 	N 	0.24312 0.71306 0.01124 -0.04700
C 	C 	0.23862 0.74045 0.99230 0.06100
N 	N 	0.23794 0.76683 0.01190 -0.04500
N 	N 	0.24134 0.76582 0.04946 -0.05800
C 	C 	0.24856 0.73425 0.18622 0.07000
N 	N 	0.24360 0.76157 0.16728 -0.04600
N 	N 	0.24348 0.76304 0.12964 -0.05800
C 	C 	0.24816 0.73720 0.10988 0.11200
N 	N 	0.25368 0.70997 0.12884 -0.05700
N 	N 	0.25390 0.70852 0.16650 -0.04600
C 	C 	0.14466 0.60796 0.32646 0.11400
N 	N 	0.15518 0.61747 0.36079 -0.05300
N 	N 	0.17156 0.64355 0.36360 -0.05200
C 	C 	0.17802 0.66076 0.33219 0.09500
N 	N 	0.16833 0.65085 0.29776 -0.04800
N 	N 	0.15194 0.62474 0.29491 -0.05500
C 	C 	0.07613 0.53956 0.31905 0.09500
N 	N 	0.08883 0.55171 0.28723 -0.05500
N 	N 	0.11170 0.57272 0.28960 -0.05500
C 	C 	0.12260 0.58201 0.32389 0.11400
N 	N 	0.11046 0.56916 0.35575 -0.05400
N 	N 	0.08751 0.54821 0.35334 -0.04700
C 	C 	0.36901 0.58893 0.46192 0.11300
N 	N 	0.39275 0.60351 0.48087 -0.05600
N 	N 	0.42180 0.59173 0.48241 -0.04500
C 	C 	0.42799 0.56511 0.46490 0.07000
N 	N 	0.40433 0.55065 0.44563 -0.04600
N 	N 	0.37525 0.56247 0.44403 -0.05700
C 	C 	0.28119 0.63132 0.44742 0.06900
N 	N 	0.28648 0.60364 0.43185 -0.04500
N 	N 	0.31414 0.58939 0.43776 -0.05600
C 	C 	0.33726 0.60243 0.45941 0.11300
N 	N 	0.33143 0.62936 0.47641 -0.05700
N 	N 	0.30381 0.64363 0.47045 -0.04600
C 	C 	0.33156 0.83352 0.38754 0.11100
N 	N 	0.30441 0.84224 0.36874 -0.05700
N 	N 	0.28212 0.82146 0.36093 -0.05400
C 	C 	0.28649 0.79139 0.37143 0.08900
N 	N 	0.31420 0.78247 0.38865 -0.05200
N 	N 	0.33642 0.80324 0.39664 -0.05700
C 	C 	0.39128 0.90056 0.43206 0.05800
N 	N 	0.39288 0.87102 0.44566 -0.04500
N 	N 	0.37438 0.84943 0.43070 -0.05800
C 	C 	0.35362 0.85681 0.40184 0.11200
N 	N 	0.35205 0.88637 0.38816 -0.05800
N 	N 	0.37084 0.90790 0.40285 -0.04600
C 	C 	0.17214 0.41563 0.72987 0.11300
N 	N 	0.16056 0.40894 0.76446 -0.05600
N 	N 	0.13433 0.42256 0.77532 -0.04500
C 	C 	0.11886 0.44318 0.75186 0.07200
N 	N 	0.13064 0.45023 0.71744 -0.04500
N 	N 	0.15692 0.43661 0.70657 -0.05600
C 	C 	0.24478 0.36267 0.68899 0.07100
N 	N 	0.23384 0.38774 0.66875 -0.04600
N 	N 	0.21137 0.40537 0.68237 -0.05600
C 	C 	0.19933 0.39849 0.71670 0.11300
N 	N 	0.21107 0.37406 0.73748 -0.05600
N 	N 	0.23339 0.35632 0.72376 -0.04500
C 	C 	0.39199 0.36287 0.57006 0.11300
N 	N 	0.38744 0.35266 0.60618 -0.05600
N 	N 	0.36802 0.32904 0.61315 -0.05600
C 	C 	0.35252 0.31499 0.58423 0.09500
N 	N 	0.35669 0.32543 0.54819 -0.04800
N 	N 	0.37612 0.34903 0.54119 -0.05500
C 	C 	0.46159 0.42897 0.54735 0.09100
N 	N 	0.44436 0.41650 0.51860 -0.05600
N 	N 	0.42145 0.39620 0.52586 -0.05600
C 	C 	0.41523 0.38759 0.56211 0.11300
N 	N 	0.43191 0.40069 0.59088 -0.05600
N 	N 	0.45479 0.42101 0.58360 -0.05000
C 	C 	0.38210 0.12385 0.50280 0.11300
N 	N 	0.39870 0.14235 0.52654 -0.05800
N 	N 	0.38367 0.16136 0.54877 -0.04600
C 	C 	0.35163 0.16243 0.54781 0.05700
N 	N 	0.33506 0.14447 0.52347 -0.04500
N 	N 	0.35006 0.12521 0.50158 -0.05800
C 	C 	0.43139 0.04911 0.46556 0.09100
N 	N 	0.39940 0.04804 0.46650 -0.05300
N 	N 	0.38308 0.07302 0.47493 -0.05700
C 	C 	0.39837 0.09968 0.48290 0.11200
N 	N 	0.43002 0.10151 0.47834 -0.05600
N 	N 	0.44625 0.07661 0.46948 -0.04900
C 	C 	0.28748 0.21716 0.86028 0.11300
N 	N 	0.26750 0.23724 0.87593 -0.05600
N 	N 	0.25754 0.23202 0.91088 -0.04500
C 	C 	0.26734 0.20662 0.93136 0.07300
N 	N 	0.28712 0.18633 0.91562 -0.04700
N 	N 	0.29690 0.19143 0.88047 -0.05800
C 	C 	0.31689 0.23427 0.74990 0.05700
N 	N 	0.32131 0.20602 0.76692 -0.04400
N 	N 	0.31265 0.20073 0.80245 -0.05800
C 	C 	0.29896 0.22344 0.82185 0.11300
N 	N 	0.29491 0.25178 0.80500 -0.05700
N 	N 	0.30380 0.25713 0.76958 -0.05000
C 	C 	0.29379 0.23547 0.35885 0.11200
N 	N 	0.28845 0.21181 0.38387 -0.05800
N 	N 	0.28582 0.21719 0.42057 -0.04700
C 	C 	0.28833 0.24638 0.43324 0.07100
N 	N 	0.29352 0.27001 0.40818 -0.04600
N 	N 	0.29615 0.26465 0.37154 -0.05600
C 	C 	0.29985 0.21993 0.24331 0.06000
N 	N 	0.30300 0.24884 0.25661 -0.04500
N 	N 	0.30157 0.25365 0.29350 -0.05700
C 	C 	0.29671 0.22974 0.31825 0.11300
N 	N 	0.29395 0.20071 0.30506 -0.05800
N 	N 	0.29545 0.19588 0.26808 -0.04600
C 	C 	0.19637 0.38441 0.17140 0.11300
N 	N 	0.19250 0.37722 0.13449 -0.05600
N 	N 	0.20330 0.35058 0.12237 -0.04500
C 	C 	0.21804 0.33027 0.14689 0.07100
N 	N 	0.22288 0.33787 0.18352 -0.04500
N 	N 	0.21218 0.36457 0.19562 -0.05700
C 	C 	0.13790 0.44817 0.21851 0.07100
N 	N 	0.16360 0.43726 0.23853 -0.04600
N 	N 	0.18384 0.41851 0.22258 -0.05600
C 	C 	0.17909 0.41045 0.18607 0.11300
N 	N 	0.15467 0.42319 0.16535 -0.05600
N 	N 	0.13422 0.44160 0.18142 -0.04500
C 	C 	0.37134 0.31945 0.05636 0.11300
N 	N 	0.36141 0.31394 0.09206 -0.05600
N 	N 	0.34150 0.29081 0.09933 -0.05800
C 	C 	0.33090 0.27257 0.07113 0.09100
N 	N 	0.34037 0.27837 0.03534 -0.05000
N 	N 	0.36024 0.30153 0.02803 -0.05600
C 	C 	0.44256 0.38409 0.03590 0.09500
N 	N 	0.42877 0.36877 0.00684 -0.05500
N 	N 	0.40547 0.34873 0.01321 -0.05600
C 	C 	0.39533 0.34341 0.04886 0.11400
N 	N 	0.40877 0.35919 0.07781 -0.05500
N 	N 	0.43210 0.37919 0.07142 -0.04800
C 	C 	0.40372 0.05943 0.01138 0.11100
N 	N 	0.39249 0.03230 0.99827 -0.05700
N 	N 	0.41243 0.01011 0.98932 -0.05300
C 	C 	0.44411 0.01455 0.99287 0.09000
N 	N 	0.45527 0.04231 0.00383 -0.05200
N 	N 	0.43538 0.06441 0.01306 -0.05700
C 	C 	0.34227 0.11938 0.06221 0.05800
N 	N 	0.37383 0.12078 0.06996 -0.04500
N 	N 	0.39353 0.10214 0.05295 -0.05800
C 	C 	0.38222 0.08148 0.02784 0.11300
N 	N 	0.35064 0.08003 0.02013 -0.05800
N 	N 	0.33097 0.09894 0.03681 -0.04600
C 	C 	0.86600 0.11868 0.69376 0.11400
N 	N 	0.85222 0.12811 0.66029 -0.05500
N 	N 	0.83347 0.15275 0.65843 -0.05500
C 	C 	0.82825 0.16885 0.68988 0.09500
N 	N 	0.84088 0.15868 0.72365 -0.04900
N 	N 	0.85931 0.13376 0.72562 -0.05600
C 	C 	0.94601 0.06362 0.70066 0.08900
N 	N 	0.92629 0.06421 0.73006 -0.06100
N 	N 	0.89956 0.08035 0.72712 -0.05700
C 	C 	0.89164 0.09608 0.69451 0.11300
N 	N 	0.91062 0.09421 0.66444 -0.05600
N 	N 	0.93759 0.07839 0.66758 -0.05000
C 	C 	0.89695 0.88375 0.83300 0.11300
N 	N 	0.92788 0.87609 0.83068 -0.05600
N 	N 	0.94867 0.89674 0.81810 -0.04600
C 	C 	0.93930 0.92587 0.80830 0.07300
N 	N 	0.90845 0.93377 0.81125 -0.04800
N 	N 	0.88751 0.91294 0.82329 -0.05700
C 	C 	0.83288 0.81625 0.86777 0.07200
N 	N 	0.82277 0.84065 0.84564 -0.04700
N 	N 	0.84308 0.86261 0.83513 -0.05700
C 	C 	0.87406 0.86063 0.84626 0.11300
N 	N 	0.88411 0.83617 0.86823 -0.05600
N 	N 	0.86377 0.81445 0.87910 -0.04600
C 	C 	0.11869 0.91075 0.76701 0.11200
N 	N 	0.13069 0.93938 0.76050 -0.05700
N 	N 	0.11148 0.96290 0.75111 -0.05300
C 	C 	0.07985 0.95829 0.74737 0.09100
N 	N 	0.06807 0.92940 0.75211 -0.04700
N 	N 	0.08719 0.90598 0.76198 -0.05600
C 	C 	0.17625 0.84029 0.81230 0.05900
N 	N 	0.18825 0.86210 0.78848 -0.04500
N 	N 	0.16994 0.88486 0.77427 -0.05800
C 	C 	0.13896 0.88599 0.78283 0.11300
N 	N 	0.12696 0.86416 0.80663 -0.05700
N 	N 	0.14541 0.84172 0.82133 -0.04600
C 	C 	0.14595 0.14501 0.65353 0.11200
N 	N 	0.12510 0.15372 0.67960 -0.05800
N 	N 	0.10475 0.13337 0.69400 -0.04600
C 	C 	0.10465 0.10371 0.68275 0.06100
N 	N 	0.12524 0.09508 0.65637 -0.04600
N 	N 	0.14568 0.11539 0.64210 -0.05800
C 	C 	0.21780 0.20560 0.62159 0.09000
N 	N 	0.21777 0.17601 0.61010 -0.05500
N 	N 	0.19410 0.15701 0.61879 -0.05700
C 	C 	0.16985 0.16700 0.63949 0.11100
N 	N 	0.16917 0.19696 0.64951 -0.05800
N 	N 	0.19279 0.21596 0.64067 -0.05100
C 	C 	0.02644 0.99378 0.48966 0.11200
N 	N 	0.04831 0.01231 0.50635 -0.05700
N 	N 	0.05113 0.01303 0.54393 -0.04600
C 	C 	0.03235 0.99503 0.56579 0.07100
N 	N 	0.01097 0.97605 0.54907 -0.04600
N 	N 	0.00798 0.97550 0.51154 -0.05700
C 	C 	0.01291 0.99644 0.37252 0.05900
N 	N 	0.99073 0.98358 0.39489 -0.04800
N 	N 	0.99519 0.98249 0.43233 -0.05700
C 	C 	0.02188 0.99442 0.44843 0.11200
N 	N 	0.04403 0.00735 0.42605 -0.05800
N 	N 	0.03969 0.00818 0.38860 -0.04400
C 	C 	0.99875 0.03402 0.98300 0.11300
N 	N 	0.96936 0.03227 0.99723 -0.05600
N 	N 	0.96556 0.02336 0.03315 -0.04600
C 	C 	0.99102 0.01576 0.05577 0.06900
N 	N 	0.02041 0.01759 0.04159 -0.04700
N 	N 	0.02422 0.02654 0.00569 -0.05900
C 	C 	0.00978 0.05033 0.86765 0.05800
N 	N 	0.03555 0.04746 0.89131 -0.04600
N 	N 	0.03209 0.04338 0.92843 -0.05800
C 	C 	0.00276 0.04208 0.94288 0.11200
N 	N 	0.97707 0.04609 0.91935 -0.05700
N 	N 	0.98053 0.05004 0.88227 -0.04500
C 	C 	0.87494 0.07883 0.21771 0.11200
N 	N 	0.88220 0.06208 0.18738 -0.05500
N 	N 	0.90626 0.04228 0.18964 -0.04700
C 	C 	0.92362 0.03859 0.22232 0.09200
N 	N 	0.91536 0.05410 0.25318 -0.05400
N 	N 	0.89133 0.07393 0.25093 -0.05700
C 	C 	0.82329 0.15951 0.19994 0.09100
N 	N 	0.83619 0.15239 0.23465 -0.04900
N 	N 	0.85096 0.12556 0.24112 -0.05600
C 	C 	0.85335 0.10519 0.21297 0.11300
N 	N 	0.83929 0.11184 0.17868 -0.05600
N 	N 	0.82447 0.13865 0.17227 -0.06000
C 	C 	0.83777 0.84071 0.37242 0.11300
N 	N 	0.80815 0.83363 0.35937 -0.05500
N 	N 	0.79144 0.81148 0.37655 -0.05100
C 	C 	0.80372 0.79586 0.40745 0.09600
N 	N 	0.83316 0.80319 0.42080 -0.05100
N 	N 	0.84987 0.82538 0.40368 -0.05600
C 	C 	0.89287 0.90526 0.31302 0.07300
N 	N 	0.90396 0.89226 0.34627 -0.04700
N 	N 	0.88635 0.87190 0.36539 -0.05700
C 	C 	0.85707 0.86402 0.35186 0.11300
N 	N 	0.84594 0.87721 0.31876 -0.05600
N 	N 	0.86358 0.89745 0.29961 -0.04700
C 	C 	0.10738 0.84455 0.23530 0.11200
N 	N 	0.09570 0.82077 0.25639 -0.05800
N 	N 	0.11506 0.80286 0.27774 -0.04600
C 	C 	0.14666 0.80801 0.27826 0.05800
N 	N 	0.15854 0.83056 0.25543 -0.04500
N 	N 	0.13915 0.84872 0.23442 -0.05800
C 	C 	0.04666 0.91783 0.21664 0.08700
N 	N 	0.07805 0.92183 0.21173 -0.05400
N 	N 	0.09747 0.89767 0.21347 -0.05700
C 	C 	0.08602 0.86889 0.22048 0.11100
N 	N 	0.05429 0.86468 0.22177 -0.05800
N 	N 	0.03488 0.88885 0.21992 -0.05200
C 	C 	0.14986 0.12457 0.13732 0.11200
N 	N 	0.17439 0.11360 0.11781 -0.05700
N 	N 	0.19783 0.13235 0.10743 -0.05600
C 	C 	0.19726 0.16271 0.11579 0.09200
N 	N 	0.17202 0.17390 0.13381 -0.05100
N 	N 	0.14872 0.15513 0.14448 -0.05700
C 	C 	0.08275 0.06363 0.18210 0.06200
N 	N 	0.08547 0.09276 0.19492 -0.04600
N 	N 	0.10655 0.11229 0.18029 -0.05800
C 	C 	0.12569 0.10323 0.15256 0.11200
N 	N 	0.12300 0.07408 0.13979 -0.05800
N 	N 	0.10170 0.05465 0.15415 -0.04500
