data_crystal

_cell_length_a 42.66481
_cell_length_b 41.68088
_cell_length_c 25.03408
_cell_angle_alpha 94.47868
_cell_angle_beta  94.22047
_cell_angle_gamma 90.00345

_symmetry_space_group_name_	'P 1'
_symmetry_space_group_name_H-M	'P 1'

loop_
_symmetry_equiv_pos_as_xyz
  x,y,z

loop_
_atom_site_label
_atom_site_type_symbol
_atom_site_fract_x
_atom_site_fract_y
_atom_site_fract_z
_atom_site_charge
C 	C 	0.02335 0.81327 0.20084 0.27500
C 	C 	0.07400 0.63857 0.90974 0.12100
N 	N 	0.05215 0.61815 0.92505 -0.14400
C 	C 	0.04390 0.59104 0.89370 0.12800
N 	N 	0.05770 0.58422 0.84707 -0.14400
C 	C 	0.07924 0.60474 0.83106 0.12600
N 	N 	0.08787 0.63159 0.86310 -0.14200
C 	C 	0.06958 0.61576 0.35988 0.12300
N 	N 	0.04691 0.59281 0.34901 -0.14200
C 	C 	0.04332 0.56992 0.38378 0.12800
N 	N 	0.06180 0.57062 0.43036 -0.14400
C 	C 	0.08421 0.59377 0.44189 0.12800
N 	N 	0.08815 0.61625 0.40643 -0.14200
C 	C 	0.77315 0.98816 0.81516 0.29700
O 	O 	0.76118 0.98379 0.76560 -0.29000
O 	O 	0.78860 0.96407 0.83318 -0.54300
C 	C 	0.78817 0.97637 0.40585 0.29000
O 	O 	0.79099 0.97768 0.45820 -0.34800
Cd	Cd	0.84748 0.11118 0.21789 1.24200
Cd	Cd	0.88327 0.07581 0.33176 1.16200
O 	O 	0.82397 0.16433 0.23470 -0.31500
O 	O 	0.82814 0.14308 0.15251 -0.34300
C 	C 	0.81917 0.16738 0.18360 0.27800
O 	O 	0.87132 0.06688 0.18316 -0.36800
O 	O 	0.87119 0.04058 0.26042 -0.45400
C 	C 	0.88030 0.04250 0.21155 0.27800
C 	C 	0.90796 0.13301 0.26153 0.29300
O 	O 	0.83252 0.09359 0.31148 -0.44000
O 	O 	0.90164 0.14330 0.21401 -0.28500
O 	O 	0.88509 0.11834 0.28081 -0.54300
C 	C 	0.80933 0.07702 0.28606 0.28600
O 	O 	0.80458 0.08050 0.23471 -0.34400
Cd	Cd	0.85399 0.14038 0.98844 1.24400
Cd	Cd	0.86902 0.08246 0.88152 1.15900
O 	O 	0.81817 0.18465 0.96731 -0.31100
O 	O 	0.83826 0.17968 0.04936 -0.34400
C 	C 	0.82071 0.19635 0.01704 0.27600
O 	O 	0.88026 0.10102 0.02913 -0.37000
O 	O 	0.90379 0.08187 0.95353 -0.45700
C 	C 	0.89644 0.07849 0.00303 0.27600
C 	C 	0.80715 0.09361 0.95159 0.29000
O 	O 	0.87767 0.13761 0.89369 -0.44200
O 	O 	0.80058 0.10777 0.99786 -0.27900
O 	O 	0.83098 0.10539 0.93052 -0.54400
C 	C 	0.90245 0.15246 0.91729 0.28400
O 	O 	0.90060 0.16260 0.96757 -0.34800
C 	C 	0.82547 0.40398 0.88072 0.12300
N 	N 	0.84851 0.42431 0.90323 -0.14100
C 	C 	0.85966 0.44764 0.87470 0.12900
N 	N 	0.84759 0.45078 0.82374 -0.14300
C 	C 	0.82490 0.43027 0.80073 0.12700
N 	N 	0.81403 0.40670 0.82918 -0.14300
C 	C 	0.82006 0.38324 0.32581 0.12300
N 	N 	0.80375 0.38913 0.37012 -0.14200
C 	C 	0.81238 0.41384 0.40691 0.12800
N 	N 	0.83706 0.43298 0.39866 -0.14400
C 	C 	0.85289 0.42765 0.35379 0.12800
N 	N 	0.84438 0.40278 0.31739 -0.14200
Cd	Cd	0.03329 0.07420 0.74163 1.24300
Cd	Cd	0.00813 0.06479 0.87237 1.16100
O 	O 	0.08494 0.09932 0.73722 -0.31600
O 	O 	0.05852 0.07807 0.66442 -0.34200
C 	C 	0.08399 0.09270 0.68562 0.27700
O 	O 	0.98924 0.04417 0.72647 -0.36800
O 	O 	0.96896 0.06074 0.80656 -0.45500
C 	C 	0.96838 0.04108 0.76251 0.27500
C 	C 	0.05887 0.02389 0.80181 0.29600
O 	O 	0.02249 0.10936 0.82968 -0.44400
O 	O 	0.06541 0.01931 0.75164 -0.28500
O 	O 	0.04535 0.05086 0.81471 -0.54100
C 	C 	0.00403 0.12716 0.80073 0.29200
O 	O 	0.00348 0.12069 0.74873 -0.34400
Cd	Cd	0.05391 0.08148 0.45402 1.24200
Cd	Cd	0.01010 0.05533 0.33203 1.16100
O 	O 	0.09878 0.11735 0.44722 -0.31500
O 	O 	0.08523 0.10407 0.52545 -0.34500
C 	C 	0.10483 0.11943 0.49892 0.27600
O 	O 	0.01142 0.05699 0.48077 -0.36600
O 	O 	0.00120 0.02599 0.40144 -0.45400
C 	C 	0.99243 0.03773 0.44848 0.27300
C 	C 	0.01177 0.12473 0.40383 0.29800
O 	O 	0.02015 0.13605 0.45303 -0.28200
O 	O 	0.02609 0.09898 0.38710 -0.54300
C 	C 	0.29257 0.09587 0.81292 0.12400
N 	N 	0.29433 0.11169 0.86267 -0.14200
C 	C 	0.31753 0.10472 0.90004 0.12900
N 	N 	0.33915 0.08200 0.88743 -0.14300
C 	C 	0.33848 0.06730 0.83697 0.12800
N 	N 	0.31472 0.07370 0.80022 -0.14300
C 	C 	0.30664 0.13424 0.38120 0.12100
N 	N 	0.33064 0.11700 0.40313 -0.14300
C 	C 	0.35491 0.10759 0.37362 0.12900
N 	N 	0.35517 0.11538 0.32206 -0.14300
C 	C 	0.33114 0.13232 0.29964 0.12700
N 	N 	0.30730 0.14250 0.32978 -0.14100
C 	C 	0.31699 0.11889 0.95598 -0.05100
C 	C 	0.34478 0.13105 0.98494 0.10500
C 	C 	0.34549 0.13652 0.04110 -0.08900
C 	C 	0.31842 0.13190 0.06819 -0.00400
C 	C 	0.28960 0.12398 0.03837 0.07000
C 	C 	0.28928 0.11696 0.98253 -0.04900
N 	N 	0.37047 0.13830 0.95901 -0.19900
H 	H 	0.36725 0.14392 0.06383 0.05600
C 	C 	0.32130 0.13187 0.12759 -0.00600
N 	N 	0.26237 0.12257 0.06317 -0.19400
H 	H 	0.26765 0.10886 0.96003 0.05200
C 	C 	0.32216 0.16130 0.15898 -0.08500
C 	C 	0.32569 0.16216 0.21540 0.10100
C 	C 	0.32737 0.13287 0.24064 -0.04800
C 	C 	0.32600 0.10348 0.20916 -0.05200
C 	C 	0.32365 0.10264 0.15290 0.07300
H 	H 	0.32055 0.18363 0.13944 0.05500
N 	N 	0.32819 0.19105 0.24476 -0.19900
H 	H 	0.32717 0.08110 0.22860 0.05000
N 	N 	0.32399 0.07376 0.12351 -0.19400
H 	H 	0.32627 0.21249 0.22576 0.08700
H 	H 	0.33286 0.19259 0.28639 0.09500
H 	H 	0.32511 0.05233 0.14262 0.08600
H 	H 	0.32383 0.07222 0.08169 0.09100
H 	H 	0.24137 0.11566 0.04113 0.09000
H 	H 	0.26158 0.12926 0.10412 0.09300
H 	H 	0.36930 0.13861 0.91725 0.09000
H 	H 	0.39144 0.14561 0.98077 0.08600
C 	C 	0.19125 0.11006 0.51968 -0.07200
C 	C 	0.19997 0.14113 0.50861 0.01600
C 	C 	0.17840 0.16640 0.51558 -0.00200
C 	C 	0.14702 0.15936 0.52332 -0.00500
C 	C 	0.13688 0.12726 0.52148 -0.07900
C 	C 	0.15957 0.10264 0.52369 0.05500
C 	C 	0.22659 0.14465 0.47484 0.00600
S 	S 	0.18989 0.20655 0.51097 -0.02800
H 	H 	0.12992 0.17859 0.52482 0.04500
S 	S 	0.14812 0.06200 0.52252 -0.03900
H 	H 	0.20837 0.09086 0.51793 0.05300
C 	C 	0.25671 0.15372 0.49777 0.00600
C 	C 	0.28235 0.15240 0.46572 -0.03400
C 	C 	0.27847 0.14083 0.41132 -0.03000
C 	C 	0.24806 0.13213 0.38835 0.02900
C 	C 	0.22233 0.13519 0.41981 -0.05800
S 	S 	0.26280 0.16576 0.56673 -0.04000
H 	H 	0.30555 0.15925 0.48356 0.04700
S 	S 	0.24214 0.11449 0.32203 -0.02800
H 	H 	0.19909 0.12830 0.40216 0.05800
H 	H 	0.14308 0.04959 0.47028 0.04800
H 	H 	0.26876 0.13916 0.59454 0.03700
H 	H 	0.24680 0.08196 0.32192 0.03800
H 	H 	0.20057 0.21964 0.56090 0.03800
C 	C 	0.16364 0.06479 0.66318 -0.06600
C 	C 	0.17878 0.09474 0.67332 0.01400
C 	C 	0.16177 0.12277 0.66280 0.00100
C 	C 	0.12894 0.12121 0.65484 -0.00200
C 	C 	0.11326 0.09192 0.65819 -0.06800
C 	C 	0.13080 0.06327 0.65536 0.05000
C 	C 	0.20799 0.09703 0.70910 0.00700
S 	S 	0.18105 0.16016 0.66422 -0.03300
H 	H 	0.11554 0.14321 0.65228 0.04800
S 	S 	0.11186 0.02554 0.64670 -0.00800
H 	H 	0.17700 0.04285 0.66691 0.05500
C 	C 	0.20662 0.09729 0.76527 0.00300
C 	C 	0.23436 0.09756 0.79861 -0.03100
C 	C 	0.26372 0.09836 0.77688 -0.03100
C 	C 	0.26507 0.09990 0.72082 0.02900
C 	C 	0.23721 0.09853 0.68721 -0.06100
S 	S 	0.17023 0.09724 0.79435 -0.01700
H 	H 	0.23311 0.09662 0.84157 0.04900
S 	S 	0.30112 0.10544 0.69262 -0.04300
H 	H 	0.23825 0.09895 0.64413 0.04900
H 	H 	0.10684 0.01648 0.59294 0.05200
H 	H 	0.15978 0.06619 0.79496 0.04600
H 	H 	0.31371 0.07603 0.67843 0.04000
H 	H 	0.18383 0.17383 0.71594 0.04100
C 	C 	0.81679 0.42963 0.74240 -0.04900
C 	C 	0.78532 0.43282 0.72115 0.10200
C 	C 	0.77856 0.43002 0.66516 -0.08600
C 	C 	0.80272 0.42522 0.63035 -0.00500
C 	C 	0.83431 0.42356 0.65166 0.07300
C 	C 	0.84093 0.42527 0.70749 -0.05200
N 	N 	0.76172 0.43936 0.75400 -0.19900
H 	H 	0.75445 0.43176 0.64865 0.05500
C 	C 	0.79472 0.42142 0.57164 -0.00500
N 	N 	0.85837 0.42049 0.61882 -0.19400
H 	H 	0.86502 0.42311 0.72388 0.05000
C 	C 	0.79207 0.44896 0.54290 -0.08600
C 	C 	0.79343 0.44648 0.48685 0.10200
C 	C 	0.79903 0.41615 0.45989 -0.05000
C 	C 	0.79723 0.38830 0.48767 -0.05300
C 	C 	0.79472 0.39067 0.54343 0.07200
H 	H 	0.79025 0.47243 0.56436 0.05500
N 	N 	0.78896 0.47308 0.45912 -0.19900
H 	H 	0.79961 0.36484 0.46652 0.05100
N 	N 	0.79317 0.36346 0.56979 -0.19400
H 	H 	0.78620 0.49566 0.47944 0.08700
H 	H 	0.78658 0.47131 0.41716 0.09300
H 	H 	0.79441 0.34081 0.54899 0.08900
H 	H 	0.78969 0.36452 0.61075 0.09200
H 	H 	0.88153 0.41856 0.63498 0.08600
H 	H 	0.85453 0.42073 0.57720 0.09200
H 	H 	0.76625 0.44432 0.79536 0.09400
H 	H 	0.73847 0.44070 0.73798 0.08700
C 	C 	0.92952 0.16079 0.88677 -0.08000
C 	C 	0.92578 0.16120 0.83022 -0.01000
C 	C 	0.95199 0.15548 0.79966 0.00200
C 	C 	0.98147 0.14955 0.82620 -0.08300
C 	C 	0.98628 0.15894 0.88150 -0.01700
C 	C 	0.96017 0.16362 0.91244 -0.00900
C 	C 	0.89565 0.16922 0.80412 0.08500
C 	C 	0.01788 0.16427 0.90603 0.07500
C 	C 	0.96491 0.17192 0.96978 0.09200
C 	C 	0.94917 0.15829 0.74220 0.10200
N 	N 	0.96876 0.17860 0.01554 -0.10200
N 	N 	0.94688 0.16057 0.69630 -0.09800
N 	N 	0.04312 0.16853 0.92561 -0.11000
N 	N 	0.87160 0.17562 0.78326 -0.10700
C 	C 	0.80148 0.35259 0.98905 -0.05900
C 	C 	0.80965 0.32192 0.96753 0.00700
C 	C 	0.81919 0.31794 0.91467 0.00500
C 	C 	0.82290 0.34487 0.88570 -0.03200
C 	C 	0.81693 0.37582 0.90871 -0.03000
C 	C 	0.80517 0.37957 0.96003 0.02900
C 	C 	0.81015 0.29439 0.00145 0.01300
S 	S 	0.82693 0.27940 0.88465 -0.02000
H 	H 	0.83136 0.34185 0.84583 0.04900
S 	S 	0.79417 0.41769 0.98766 -0.03900
H 	H 	0.79261 0.35553 0.02851 0.04800
C 	C 	0.83889 0.28332 0.02447 -0.00500
C 	C 	0.84128 0.25155 0.03865 -0.00600
C 	C 	0.81521 0.23081 0.02982 -0.07700
C 	C 	0.78541 0.24383 0.01681 0.05500
C 	C 	0.78300 0.27553 0.00209 -0.07100
S 	S 	0.87246 0.30828 0.03200 -0.03200
H 	H 	0.86404 0.24213 0.05158 0.04700
S 	S 	0.75129 0.22002 0.01563 -0.03600
H 	H 	0.76044 0.28467 0.98753 0.05700
H 	H 	0.76335 0.42321 0.97179 0.03700
H 	H 	0.87350 0.32556 0.08095 0.03700
H 	H 	0.74581 0.20423 0.96573 0.05300
H 	H 	0.85757 0.27152 0.89771 0.04400
C 	C 	0.93650 0.14351 0.29559 -0.10500
C 	C 	0.93438 0.15405 0.35027 -0.01800
C 	C 	0.96156 0.15439 0.38594 -0.00600
C 	C 	0.98972 0.14172 0.36746 -0.10000
C 	C 	0.99319 0.13882 0.31168 -0.02900
C 	C 	0.96642 0.13999 0.27545 -0.01400
C 	C 	0.90469 0.16520 0.36927 0.06300
C 	C 	0.02418 0.13507 0.29191 0.05300
C 	C 	0.96975 0.13873 0.21813 0.08100
C 	C 	0.96111 0.16962 0.43990 0.09700
N 	N 	0.97244 0.13784 0.17237 -0.09700
N 	N 	0.96073 0.18182 0.48299 -0.09900
N 	N 	0.04892 0.13206 0.27614 -0.11300
N 	N 	0.88098 0.17408 0.38443 -0.10900
C 	C 	0.82028 0.29490 0.27853 -0.06000
C 	C 	0.81032 0.29592 0.22406 0.00600
C 	C 	0.80172 0.32552 0.20387 0.00700
C 	C 	0.80393 0.35386 0.23798 -0.03300
C 	C 	0.81490 0.35294 0.29206 -0.03000
C 	C 	0.82320 0.32321 0.31233 0.03000
C 	C 	0.81058 0.26597 0.18835 0.01600
S 	S 	0.78973 0.32763 0.13560 -0.04100
H 	H 	0.79776 0.37670 0.22219 0.04600
S 	S 	0.83895 0.32128 0.37906 -0.03700
H 	H 	0.82680 0.27209 0.29415 0.05800
C 	C 	0.83940 0.25224 0.17493 -0.00200
C 	C 	0.84129 0.21899 0.16270 -0.00100
C 	C 	0.81465 0.19947 0.16431 -0.06700
C 	C 	0.78500 0.21411 0.16654 0.05100
C 	C 	0.78306 0.24737 0.17904 -0.06600
S 	S 	0.87359 0.27608 0.17731 -0.03200
H 	H 	0.86400 0.20800 0.15748 0.05500
S 	S 	0.75047 0.19064 0.15862 -0.02900
H 	H 	0.76048 0.25824 0.18596 0.05500
H 	H 	0.81524 0.31502 0.41087 0.03900
H 	H 	0.88774 0.27800 0.22840 0.04300
H 	H 	0.74368 0.18090 0.20753 0.04600
H 	H 	0.81593 0.33273 0.10895 0.03700
C 	C 	0.37763 0.08412 0.39377 -0.05000
C 	C 	0.37421 0.05097 0.37728 0.10200
C 	C 	0.39917 0.03003 0.38820 -0.08600
C 	C 	0.42714 0.04154 0.41601 -0.00500
C 	C 	0.42932 0.07403 0.43708 0.07000
C 	C 	0.40461 0.09518 0.42512 -0.05200
N 	N 	0.34716 0.03919 0.35063 -0.20000
N 	N 	0.45496 0.08500 0.46875 -0.19400
H 	H 	0.40672 0.12043 0.43910 0.04800
H 	H 	0.45684 0.10925 0.48280 0.08500
H 	H 	0.47271 0.06940 0.48119 0.08900
H 	H 	0.32756 0.05379 0.34431 0.09300
C 	C 	0.40328 0.98983 0.81325 -0.00500
N 	N 	0.45983 0.98337 0.75602 -0.19400
C 	C 	0.41365 0.01900 0.84059 -0.08600
C 	C 	0.39383 0.04586 0.84288 0.10200
C 	C 	0.36188 0.04227 0.82355 -0.05000
C 	C 	0.35176 0.01340 0.79473 -0.05300
C 	C 	0.37255 0.98754 0.78765 0.07000
H 	H 	0.43750 0.02106 0.85879 0.05600
N 	N 	0.40592 0.07522 0.86107 -0.19800
H 	H 	0.32759 0.01091 0.77819 0.05200
H 	H 	0.42889 0.07736 0.87862 0.08600
H 	H 	0.39359 0.09630 0.85405 0.09100
H 	H 	0.48168 0.98350 0.73969 0.08500
H 	H 	0.44311 0.00007 0.74374 0.08800
C 	C 	0.77884 0.00487 0.37618 -0.08200
C 	C 	0.77163 0.00134 0.31999 -0.01400
C 	C 	0.77609 0.02765 0.28918 -0.00500
C 	C 	0.78882 0.05656 0.31477 -0.07900
C 	C 	0.78730 0.06226 0.37078 -0.00900
C 	C 	0.78193 0.03629 0.40177 0.00200
C 	C 	0.75808 0.97155 0.29468 0.07000
C 	C 	0.79010 0.09477 0.39589 0.08600
C 	C 	0.77734 0.04219 0.45848 0.10100
C 	C 	0.76454 0.02620 0.23318 0.09700
N 	N 	0.77366 0.04696 0.50375 -0.10000
N 	N 	0.75512 0.02510 0.18851 -0.09700
N 	N 	0.79235 0.12072 0.41594 -0.10600
N 	N 	0.74725 0.94777 0.27445 -0.11300
C 	C 	0.96418 0.02384 0.46944 -0.07600
C 	C 	0.93597 0.04144 0.46934 -0.02600
C 	C 	0.90697 0.02529 0.47075 -0.01200
C 	C 	0.93675 0.07605 0.46784 0.02700
C 	C 	0.87788 0.04330 0.46957 0.04300
N 	N 	0.85471 0.05773 0.46861 -0.12400
N 	N 	0.93718 0.10372 0.46689 -0.12700
C 	C 	0.88296 0.01517 0.74570 -0.02400
C 	C 	0.91009 0.03427 0.74295 -0.01500
C 	C 	0.94021 0.02032 0.74823 -0.07800
C 	C 	0.94283 0.98658 0.74822 -0.02400
C 	C 	0.85211 0.02962 0.74145 0.03000
C 	C 	0.90700 0.06818 0.73467 0.05500
N 	N 	0.90440 0.09523 0.72799 -0.11500
N 	N 	0.82751 0.04124 0.73791 -0.12400
C 	C 	0.76776 0.01781 0.84980 -0.10500
C 	C 	0.76916 0.04822 0.82901 -0.00800
C 	C 	0.77860 0.07524 0.86376 -0.02100
C 	C 	0.78458 0.07178 0.91920 -0.09800
C 	C 	0.77375 0.04395 0.94055 -0.01700
C 	C 	0.76637 0.01632 0.90578 -0.02500
C 	C 	0.75908 0.05202 0.77333 0.09300
C 	C 	0.76761 0.04468 0.99675 0.09200
C 	C 	0.75661 0.98687 0.92714 0.04600
C 	C 	0.78171 0.10649 0.84294 0.06700
N 	N 	0.78421 0.13143 0.82634 -0.10700
N 	N 	0.76253 0.04530 0.04160 -0.09800
N 	N 	0.75097 0.05509 0.72889 -0.10100
S 	S 	0.69032 0.95582 0.70605 -0.02300
C 	C 	0.01636 0.54756 0.37512 -0.04800
C 	C 	0.01284 0.52529 0.32932 0.10200
C 	C 	0.98575 0.50585 0.32099 -0.08800
C 	C 	0.96273 0.50759 0.35831 -0.00500
C 	C 	0.96658 0.52940 0.40464 0.07200
C 	C 	0.99334 0.54924 0.41242 -0.05400
N 	N 	0.03566 0.52181 0.29411 -0.20000
H 	H 	0.98285 0.48887 0.28586 0.05500
C 	C 	0.93541 0.48540 0.34973 -0.00500
N 	N 	0.94472 0.53144 0.44170 -0.19400
H 	H 	0.99613 0.56630 0.44747 0.05000
C 	C 	0.93788 0.45497 0.36980 -0.08600
C 	C 	0.91134 0.43506 0.36953 0.10300
C 	C 	0.88183 0.44590 0.34852 -0.05000
C 	C 	0.87969 0.47556 0.32577 -0.05300
C 	C 	0.90631 0.49538 0.32572 0.07100
H 	H 	0.96037 0.44718 0.38720 0.05600
N 	N 	0.91429 0.40580 0.38998 -0.20000
H 	H 	0.85713 0.48352 0.30892 0.04800
N 	N 	0.90371 0.52400 0.30311 -0.19400
H 	H 	0.93611 0.39823 0.40605 0.08800
H 	H 	0.89518 0.39014 0.38966 0.09700
H 	H 	0.88198 0.53149 0.28657 0.08500
H 	H 	0.92324 0.53877 0.30075 0.09000
H 	H 	0.94780 0.54764 0.47573 0.08500
H 	H 	0.92453 0.51706 0.43732 0.09000
H 	H 	0.05726 0.53369 0.30157 0.09200
H 	H 	0.03236 0.50610 0.25951 0.08500
C 	C 	0.01617 0.57251 0.90491 -0.04900
C 	C 	0.98671 0.57683 0.87655 0.10100
C 	C 	0.96167 0.55612 0.88339 -0.08500
C 	C 	0.96535 0.53170 0.91875 -0.00400
C 	C 	0.99410 0.52893 0.95006 0.06900
C 	C 	0.01941 0.54920 0.94233 -0.05100
N 	N 	0.98233 0.60078 0.84281 -0.19900
H 	H 	0.93941 0.55854 0.86023 0.05700
C 	C 	0.94025 0.50712 0.91800 -0.00500
N 	N 	0.99745 0.50709 0.98769 -0.19400
H 	H 	0.04179 0.54654 0.96502 0.04800
C 	C 	0.94347 0.47778 0.88761 -0.08600
C 	C 	0.91781 0.45669 0.87637 0.10300
C 	C 	0.88828 0.46554 0.89511 -0.04900
C 	C 	0.88568 0.49365 0.92900 -0.05200
C 	C 	0.91159 0.51441 0.94124 0.07100
H 	H 	0.96576 0.47183 0.87116 0.05600
N 	N 	0.92159 0.42814 0.84733 -0.19900
H 	H 	0.86325 0.49984 0.94470 0.04900
N 	N 	0.90884 0.54120 0.97520 -0.19400
H 	H 	0.94323 0.42226 0.83222 0.08700
H 	H 	0.90346 0.41114 0.84082 0.09500
H 	H 	0.88733 0.54696 0.99090 0.08600
H 	H 	0.92820 0.55596 0.98770 0.08900
H 	H 	0.01900 0.50460 0.00961 0.08400
H 	H 	0.97852 0.49309 0.99667 0.08900
H 	H 	0.99989 0.61771 0.83897 0.09300
H 	H 	0.96074 0.60320 0.82093 0.08700
C 	C 	0.08725 0.60191 0.77458 -0.04900
C 	C 	0.11886 0.60206 0.76071 0.10200
C 	C 	0.12517 0.60221 0.70638 -0.08600
C 	C 	0.10055 0.60094 0.66589 -0.00500
C 	C 	0.06904 0.59906 0.67970 0.07300
C 	C 	0.06273 0.60023 0.73394 -0.05200
N 	N 	0.14314 0.60112 0.79896 -0.19900
H 	H 	0.14929 0.60305 0.69557 0.05500
C 	C 	0.10790 0.60187 0.60916 -0.00600
N 	N 	0.04478 0.59600 0.64112 -0.19400
H 	H 	0.03855 0.59997 0.74463 0.05000
C 	C 	0.11420 0.57295 0.57954 -0.08600
C 	C 	0.11094 0.57092 0.52316 0.10200
C 	C 	0.09996 0.59792 0.49654 -0.05100
C 	C 	0.09848 0.62792 0.52588 -0.05400
C 	C 	0.10282 0.63020 0.58219 0.07300
H 	H 	0.12002 0.55163 0.60036 0.05600
N 	N 	0.11847 0.54319 0.49482 -0.19900
H 	H 	0.09192 0.64912 0.50526 0.05200
N 	N 	0.10110 0.65937 0.61017 -0.19400
H 	H 	0.12530 0.52288 0.51467 0.08700
H 	H 	0.11907 0.54205 0.45308 0.09300
H 	H 	0.09610 0.68005 0.59012 0.08900
H 	H 	0.10576 0.66192 0.65184 0.09200
H 	H 	0.02157 0.59550 0.65183 0.08600
H 	H 	0.04860 0.59324 0.60033 0.09200
H 	H 	0.13932 0.59784 0.83888 0.09500
H 	H 	0.16636 0.60234 0.78851 0.08700
C 	C 	0.94128 0.99217 0.03672 -0.07500
C 	C 	0.95930 0.02071 0.04422 -0.02000
C 	C 	0.94435 0.05080 0.04018 -0.00600
C 	C 	0.91132 0.05215 0.03222 -0.07400
C 	C 	0.89356 0.02450 0.03893 -0.02100
C 	C 	0.90836 0.99419 0.03901 -0.00800
C 	C 	0.86024 0.02721 0.04519 0.04800
C 	C 	0.88967 0.96513 0.03838 0.05300
C 	C 	0.96284 0.08009 0.04275 0.06500
N 	N 	0.97765 0.10347 0.04478 -0.11500
N 	N 	0.83362 0.02937 0.05048 -0.11700
C 	C 	0.08595 0.04435 0.91087 0.03900
N 	N 	0.09534 0.07023 0.92212 -0.11700
C 	C 	0.03529 0.76246 0.04221 -0.07000
C 	C 	0.06743 0.75605 0.04005 0.01700
C 	C 	0.08939 0.78046 0.05806 -0.00200
C 	C 	0.02496 0.79416 0.05079 0.06100
C 	C 	0.07706 0.72727 0.00696 0.00400
S 	S 	0.12981 0.77201 0.06487 -0.02900
S 	S 	0.98443 0.80226 0.04270 -0.02300
H 	H 	0.01829 0.74327 0.03158 0.05600
C 	C 	0.08397 0.69817 0.03017 0.00400
C 	C 	0.08628 0.66966 0.99728 -0.02800
C 	C 	0.08034 0.66957 0.94138 -0.03100
C 	C 	0.07533 0.69911 0.91794 0.02900
C 	C 	0.07455 0.72778 0.95087 -0.05600
S 	S 	0.08745 0.69667 0.10019 -0.03900
H 	H 	0.09078 0.64717 0.01543 0.04400
S 	S 	0.06746 0.70042 0.84805 -0.02900
H 	H 	0.06981 0.75029 0.93291 0.05800
H 	H 	0.05808 0.69128 0.11637 0.03700
H 	H 	0.03595 0.69564 0.83515 0.03900
H 	H 	0.13753 0.76312 0.11570 0.03900
C 	C 	0.89392 0.01343 0.18442 -0.07300
C 	C 	0.92674 0.01127 0.18173 -0.01600
C 	C 	0.94548 0.04026 0.18244 0.03900
N 	N 	0.96056 0.06336 0.18298 -0.13600
N 	N 	0.98243 0.82701 0.41042 -0.10700
C 	C 	0.06884 0.66380 0.23772 -0.06100
C 	C 	0.06227 0.69467 0.26043 0.00600
C 	C 	0.06088 0.69995 0.31656 0.00300
C 	C 	0.06519 0.67425 0.34901 -0.03100
C 	C 	0.07032 0.64309 0.32607 -0.03100
C 	C 	0.07310 0.63805 0.27023 0.03100
C 	C 	0.05448 0.72081 0.22511 0.01400
S 	S 	0.05252 0.73838 0.34640 -0.02000
H 	H 	0.06330 0.67826 0.39198 0.04700
S 	S 	0.08264 0.59988 0.24076 -0.04500
H 	H 	0.07016 0.65969 0.19472 0.05000
C 	C 	0.07679 0.74482 0.21843 -0.00300
C 	C 	0.06673 0.77429 0.20017 -0.00500
C 	C 	0.03455 0.78024 0.19029 -0.07600
C 	C 	0.01315 0.75430 0.18781 0.05400
C 	C 	0.02321 0.72469 0.20545 -0.07100
S 	S 	0.11703 0.73878 0.23513 -0.03600
S 	S 	0.97328 0.75938 0.16715 -0.03000
H 	H 	0.00629 0.70552 0.20759 0.05500
H 	H 	0.05558 0.58263 0.22642 0.03900
H 	H 	0.12400 0.74835 0.28828 0.03800
H 	H 	0.95689 0.76719 0.21135 0.05500
H 	H 	0.08000 0.75524 0.35877 0.04000
Cd	Cd	0.98933 0.86967 0.21973 1.24200
Cd	Cd	0.96087 0.91699 0.33484 1.16300
O 	O 	0.02374 0.82637 0.24971 -0.31500
O 	O 	0.00660 0.82813 0.16480 -0.34300
O 	O 	0.95395 0.90365 0.18279 -0.35600
O 	O 	0.92847 0.91990 0.25925 -0.44600
C 	C 	0.93740 0.92539 0.21096 0.28700
C 	C 	0.94299 0.84646 0.28339 0.29900
O 	O 	0.99808 0.92474 0.27556 -0.47900
O 	O 	0.94152 0.83171 0.23520 -0.29200
O 	O 	0.96571 0.86728 0.29453 -0.53200
C 	C 	0.02762 0.92052 0.26893 0.29900
O 	O 	0.03377 0.90209 0.22662 -0.34300
Cd	Cd	0.99965 0.90104 0.00838 1.24100
Cd	Cd	0.97087 0.93947 0.89254 1.16100
O 	O 	0.03523 0.85568 0.99218 -0.31200
O 	O 	0.02401 0.87221 0.07387 -0.34900
C 	C 	0.03866 0.85146 0.04306 0.27800
O 	O 	0.97533 0.94544 0.04179 -0.36700
O 	O 	0.94342 0.95041 0.96495 -0.45200
C 	C 	0.95532 0.96241 0.01242 0.27400
C 	C 	0.04000 0.94289 0.96019 0.29200
O 	O 	0.96635 0.88708 0.91643 -0.44200
O 	O 	0.05204 0.93678 0.00786 -0.28000
O 	O 	0.01475 0.92689 0.94335 -0.54300
C 	C 	0.94481 0.87558 0.94415 0.28800
O 	O 	0.95222 0.87410 0.99535 -0.35000
Cd	Cd	0.79338 0.92851 0.76644 1.24200
Cd	Cd	0.83237 0.96070 0.88963 1.16100
O 	O 	0.74212 0.90300 0.77240 -0.31600
O 	O 	0.75999 0.91043 0.69407 -0.34700
C 	C 	0.73755 0.89958 0.72048 0.27600
O 	O 	0.83492 0.95550 0.74144 -0.36900
O 	O 	0.86414 0.95301 0.82186 -0.45600
C 	C 	0.85966 0.96459 0.77434 0.27400
O 	O 	0.81479 0.90923 0.85971 -0.44200
C 	C 	0.83034 0.88692 0.83367 0.29000
O 	O 	0.82487 0.88442 0.78148 -0.34600
Cd	Cd	0.81717 0.93083 0.47569 1.24300
Cd	Cd	0.84527 0.93854 0.34701 1.16200
O 	O 	0.77181 0.89521 0.48030 -0.31400
O 	O 	0.79534 0.91955 0.55312 -0.34300
C 	C 	0.77203 0.90144 0.53195 0.27700
O 	O 	0.86239 0.95862 0.49314 -0.36800
O 	O 	0.86217 0.97771 0.40947 -0.45700
C 	C 	0.87676 0.97335 0.45665 0.27500
C 	C 	0.85343 0.88051 0.42836 0.29400
O 	O 	0.79690 0.94954 0.38101 -0.44200
O 	O 	0.85109 0.87657 0.47924 -0.28100
O 	O 	0.83664 0.90341 0.40933 -0.54200
C 	C 	0.53860 0.86026 0.83336 0.12400
N 	N 	0.51458 0.87916 0.81596 -0.14100
C 	C 	0.49215 0.88895 0.84937 0.12800
N 	N 	0.49463 0.88103 0.90111 -0.14200
C 	C 	0.51801 0.86139 0.91834 0.12600
N 	N 	0.53973 0.85074 0.88419 -0.14200
C 	C 	0.56646 0.91539 0.39570 0.12300
N 	N 	0.56107 0.90008 0.34589 -0.14200
C 	C 	0.53564 0.90787 0.31365 0.12700
N 	N 	0.51546 0.93073 0.33163 -0.14300
C 	C 	0.52084 0.94612 0.38125 0.12900
N 	N 	0.54624 0.93833 0.41336 -0.14200
O 	O 	0.06256 0.04971 0.36140 -0.44500
C 	C 	0.07479 0.02654 0.38797 0.29100
O 	O 	0.07831 0.03222 0.44008 -0.35200
H 	H 	0.39725 0.00489 0.37341 0.05600
C 	C 	0.45516 0.02060 0.41620 -0.00400
C 	C 	0.47766 0.02511 0.37937 -0.08600
C 	C 	0.50103 0.00206 0.37042 0.10300
C 	C 	0.50115 0.97356 0.39765 -0.05100
C 	C 	0.48021 0.97022 0.43749 -0.05200
C 	C 	0.45740 0.99378 0.44759 0.06900
H 	H 	0.47646 0.04620 0.35654 0.05700
N 	N 	0.52332 0.00747 0.33593 -0.19900
H 	H 	0.48111 0.94887 0.45967 0.04800
N 	N 	0.43783 0.99057 0.48736 -0.19400
H 	H 	0.52236 0.02803 0.31448 0.08700
H 	H 	0.54241 0.99206 0.33161 0.09500
H 	H 	0.43897 0.97020 0.50926 0.08400
H 	H 	0.42206 0.00870 0.49810 0.08800
H 	H 	0.34521 0.01485 0.33718 0.08600
C 	C 	0.46714 0.91116 0.83130 -0.04900
C 	C 	0.43652 0.90946 0.84926 0.10200
C 	C 	0.41607 0.93555 0.84367 -0.08600
C 	C 	0.42416 0.96135 0.81448 -0.00500
C 	C 	0.45302 0.96077 0.78987 0.07000
C 	C 	0.47473 0.93627 0.80013 -0.05200
N 	N 	0.42617 0.88236 0.86948 -0.19800
H 	H 	0.39351 0.93544 0.86097 0.05600
H 	H 	0.49773 0.93705 0.78449 0.05300
N 	N 	0.36303 0.96087 0.75578 -0.19400
H 	H 	0.33994 0.95889 0.73871 0.08500
H 	H 	0.37872 0.94255 0.74572 0.08800
H 	H 	0.43851 0.86078 0.86530 0.09100
H 	H 	0.40435 0.88201 0.88589 0.08600
C 	C 	0.52266 0.85593 0.97600 -0.04300
C 	C 	0.49687 0.84893 0.00572 0.09600
C 	C 	0.49993 0.85358 0.06202 -0.08300
C 	C 	0.52879 0.86317 0.08892 -0.00700
C 	C 	0.55570 0.86527 0.05948 0.07500
C 	C 	0.55228 0.86219 0.00311 -0.06000
N 	N 	0.46948 0.83710 0.98054 -0.19500
H 	H 	0.47967 0.85042 0.08486 0.05400
C 	C 	0.52972 0.87478 0.14647 -0.00400
N 	N 	0.58465 0.87084 0.08505 -0.19400
H 	H 	0.57243 0.86611 0.98037 0.05500
C 	C 	0.53082 0.85231 0.18544 -0.08700
C 	C 	0.53165 0.86252 0.24040 0.10100
C 	C 	0.53296 0.89590 0.25646 -0.05000
C 	C 	0.53185 0.91830 0.21739 -0.05200
C 	C 	0.52949 0.90812 0.16252 0.07200
H 	H 	0.53051 0.82680 0.17295 0.05500
N 	N 	0.53020 0.84028 0.27715 -0.19900
H 	H 	0.53265 0.94384 0.22976 0.05000
N 	N 	0.52679 0.93043 0.12555 -0.19400
H 	H 	0.53041 0.81571 0.26503 0.08700
H 	H 	0.52747 0.84702 0.31756 0.09400
H 	H 	0.52745 0.95499 0.13784 0.08600
H 	H 	0.52318 0.92377 0.08450 0.09200
H 	H 	0.60424 0.87352 0.06301 0.08900
H 	H 	0.58817 0.87152 0.12684 0.09200
H 	H 	0.46788 0.82955 0.93966 0.09000
H 	H 	0.45000 0.83357 0.00243 0.08400
C 	C 	0.90629 0.99155 0.47283 -0.07900
C 	C 	0.93476 0.97492 0.48169 -0.02200
C 	C 	0.96374 0.99114 0.48028 -0.01300
C 	C 	0.93427 0.94113 0.49131 0.03900
C 	C 	0.99299 0.97443 0.49114 0.06500
N 	N 	0.01624 0.96095 0.50010 -0.10500
N 	N 	0.93400 0.91416 0.49914 -0.11900
C 	C 	0.69221 0.92758 0.55619 -0.06900
C 	C 	0.67706 0.89870 0.53676 0.01700
C 	C 	0.69356 0.86959 0.54038 -0.00100
C 	C 	0.72614 0.87033 0.55279 -0.00400
C 	C 	0.74231 0.89985 0.55802 -0.06900
C 	C 	0.72489 0.92829 0.56716 0.05300
C 	C 	0.64849 0.90012 0.49974 0.00600
S 	S 	0.67426 0.83240 0.52464 -0.02800
H 	H 	0.73927 0.84805 0.55086 0.04700
S 	S 	0.74391 0.96535 0.58612 -0.01600
H 	H 	0.67914 0.94989 0.55729 0.05400
C 	C 	0.61827 0.89664 0.51780 0.00700
C 	C 	0.59167 0.90023 0.48261 -0.03400
C 	C 	0.59483 0.90815 0.42980 -0.03000
C 	C 	0.62514 0.91156 0.41169 0.03000
C 	C 	0.65168 0.90690 0.44639 -0.05800
S 	S 	0.61337 0.88862 0.58449 -0.04300
H 	H 	0.56844 0.89760 0.49670 0.04600
S 	S 	0.63028 0.92373 0.34703 -0.02900
H 	H 	0.67494 0.90960 0.43244 0.05900
H 	H 	0.74873 0.96940 0.64093 0.05500
H 	H 	0.60998 0.91717 0.61447 0.03700
H 	H 	0.63072 0.89712 0.31131 0.04300
H 	H 	0.66187 0.82262 0.56964 0.03900
C 	C 	0.88596 0.98215 0.75361 -0.07800
C 	C 	0.91569 0.96747 0.75075 -0.01400
C 	C 	0.97340 0.97160 0.74677 0.02900
C 	C 	0.91836 0.93281 0.75062 0.05200
N 	N 	0.92060 0.90514 0.75046 -0.11700
N 	N 	0.99777 0.95953 0.74550 -0.12600
N 	N 	0.74883 0.96335 0.94419 -0.11400
C 	C 	0.65170 0.90391 0.70946 -0.06900
C 	C 	0.64541 0.87101 0.71105 0.01400
C 	C 	0.66788 0.84844 0.69399 -0.00200
C 	C 	0.69807 0.85900 0.68473 -0.00800
C 	C 	0.70617 0.89163 0.69504 -0.07600
C 	C 	0.68196 0.91432 0.70099 0.05100
C 	C 	0.61931 0.86117 0.74202 0.00600
S 	S 	0.65944 0.80696 0.68911 -0.03800
H 	H 	0.71617 0.84150 0.67609 0.04300
H 	H 	0.63385 0.92141 0.71952 0.05300
C 	C 	0.62293 0.86285 0.79858 0.00400
C 	C 	0.59658 0.86054 0.82810 -0.03200
C 	C 	0.56651 0.85592 0.80179 -0.03100
C 	C 	0.56346 0.85051 0.74518 0.03000
C 	C 	0.58978 0.85378 0.71560 -0.06100
S 	S 	0.66029 0.86872 0.83288 -0.02300
H 	H 	0.59934 0.86369 0.87160 0.04800
S 	S 	0.52745 0.83778 0.71122 -0.03900
H 	H 	0.58722 0.85087 0.67212 0.05200
H 	H 	0.68260 0.96827 0.65784 0.03900
H 	H 	0.66693 0.90101 0.83996 0.04700
H 	H 	0.52570 0.80486 0.70828 0.03800
H 	H 	0.66611 0.79518 0.73824 0.04200
C 	C 	0.99292 0.01912 0.05610 0.05600
N 	N 	0.87464 0.94197 0.03772 -0.12700
N 	N 	0.01978 0.01786 0.06591 -0.11100
C 	C 	0.91413 0.86370 0.91827 -0.08300
C 	C 	0.91108 0.85467 0.86256 -0.00900
C 	C 	0.88155 0.85694 0.83395 0.00100
C 	C 	0.85564 0.86859 0.86148 -0.08100
C 	C 	0.85722 0.86834 0.91794 -0.01500
C 	C 	0.88669 0.86622 0.94668 -0.00100
C 	C 	0.93778 0.84177 0.83553 0.08300
C 	C 	0.82864 0.86918 0.94593 0.07700
C 	C 	0.88858 0.86526 0.00459 0.09300
C 	C 	0.87738 0.84506 0.77792 0.10200
N 	N 	0.89003 0.86446 0.05082 -0.09500
N 	N 	0.87409 0.83554 0.73317 -0.10000
N 	N 	0.80583 0.86986 0.96830 -0.10800
N 	N 	0.95910 0.83148 0.81394 -0.10800
C 	C 	0.05814 0.95971 0.92264 -0.09900
C 	C 	0.06984 0.99099 0.93720 -0.01800
C 	C 	0.07417 0.01194 0.89676 -0.02700
C 	C 	0.06792 0.00079 0.84226 -0.10300
C 	C 	0.06519 0.96737 0.82875 -0.00600
C 	C 	0.05938 0.94680 0.86899 -0.02000
C 	C 	0.07951 0.00069 0.99277 0.08500
C 	C 	0.07027 0.95409 0.77486 0.09500
C 	C 	0.05527 0.91250 0.85564 0.06800
N 	N 	0.05198 0.88513 0.84501 -0.10700
N 	N 	0.07436 0.94344 0.73185 -0.09900
N 	N 	0.08749 0.00842 0.03710 -0.10100
C 	C 	0.07906 0.81207 0.06891 -0.00600
C 	C 	0.04712 0.81950 0.06017 -0.07200
H 	H 	0.09611 0.83128 0.07897 0.04600
H 	H 	0.97624 0.80687 0.98991 0.04800
C 	C 	0.92318 0.95294 0.18417 -0.07300
C 	C 	0.89024 0.95478 0.17559 -0.00900
C 	C 	0.87560 0.98515 0.17487 -0.00800
C 	C 	0.94137 0.98081 0.18063 -0.01300
C 	C 	0.87149 0.92559 0.16834 0.07000
C 	C 	0.97500 0.97822 0.17731 0.06200
C 	C 	0.84186 0.98732 0.16486 0.07500
N 	N 	0.00187 0.97619 0.17451 -0.11200
N 	N 	0.81490 0.98891 0.15661 -0.10600
N 	N 	0.85641 0.90234 0.16243 -0.11000
C 	C 	0.87251 0.85915 0.39356 -0.10100
C 	C 	0.90257 0.84913 0.41260 -0.00900
C 	C 	0.92564 0.84226 0.37590 -0.02400
C 	C 	0.91780 0.84339 0.32029 -0.10800
C 	C 	0.88590 0.84558 0.30151 -0.00900
C 	C 	0.86317 0.85350 0.33836 -0.02900
C 	C 	0.90907 0.84381 0.46883 0.09600
C 	C 	0.87639 0.83909 0.24491 0.08300
C 	C 	0.83023 0.85513 0.31985 0.04700
C 	C 	0.95722 0.83378 0.39511 0.06200
N 	N 	0.80395 0.85646 0.30507 -0.11500
N 	N 	0.86878 0.83375 0.19976 -0.09800
N 	N 	0.91428 0.83947 0.51371 -0.09700
C 	C 	0.05188 0.94079 0.29998 -0.09300
C 	C 	0.06884 0.96361 0.27468 0.00200
C 	C 	0.08224 0.99050 0.30567 -0.01500
C 	C 	0.07862 0.99400 0.36132 -0.08400
C 	C 	0.07024 0.96681 0.38708 -0.00300
C 	C 	0.05494 0.94084 0.35650 -0.00700
C 	C 	0.07256 0.95941 0.21748 0.09200
C 	C 	0.08034 0.96418 0.44303 0.10000
C 	C 	0.04166 0.91482 0.38288 0.03300
C 	C 	0.09962 0.01443 0.28074 0.07800
N 	N 	0.03101 0.89405 0.40391 -0.13000
N 	N 	0.11350 0.03355 0.26083 -0.10900
N 	N 	0.08857 0.96208 0.48772 -0.10300
N 	N 	0.07559 0.95607 0.17182 -0.09600
H 	H 	0.08361 0.79359 0.19866 0.04300
