data_crystal

_cell_length_a 47.67042
_cell_length_b 46.86530
_cell_length_c 24.38192
_cell_angle_alpha 94.46647
_cell_angle_beta  93.67628
_cell_angle_gamma 90.08694

_symmetry_space_group_name_	'P 1'
_symmetry_space_group_name_H-M	'P 1'

loop_
_symmetry_equiv_pos_as_xyz
  x,y,z

loop_
_atom_site_label
_atom_site_type_symbol
_atom_site_fract_x
_atom_site_fract_y
_atom_site_fract_z
_atom_site_charge
C 	C 	0.96454 0.79152 0.18183 0.29100
C 	C 	0.95709 0.68671 0.87540 0.14800
N 	N 	0.94507 0.66309 0.89319 -0.13000
C 	C 	0.94390 0.63819 0.86077 0.13700
N 	N 	0.95367 0.63722 0.80964 -0.14200
C 	C 	0.96508 0.66091 0.79115 0.13400
N 	N 	0.96726 0.68557 0.82444 -0.13800
C 	C 	0.01449 0.61981 0.30887 0.14600
N 	N 	0.01009 0.62841 0.36219 -0.12800
C 	C 	0.00829 0.60881 0.40000 0.13500
N 	N 	0.00856 0.58048 0.38364 -0.14300
C 	C 	0.01222 0.57168 0.33018 0.13300
N 	N 	0.01576 0.59140 0.29313 -0.14100
Cd	Cd	0.84816 0.06253 0.85321 1.18000
C 	C 	0.83554 0.09639 0.74102 0.32600
O 	O 	0.82811 0.09021 0.68888 -0.27800
O 	O 	0.82708 0.07876 0.77485 -0.53500
O 	O 	0.85146 0.01574 0.38907 -0.44800
C 	C 	0.85772 0.03819 0.42261 0.31200
O 	O 	0.85578 0.03511 0.47496 -0.34200
Cd	Cd	0.97491 0.09861 0.23466 1.24300
Cd	Cd	0.98809 0.07336 0.36756 1.16900
O 	O 	0.98557 0.14925 0.22697 -0.30000
O 	O 	0.97003 0.12152 0.15496 -0.34500
C 	C 	0.97715 0.14729 0.17516 0.29900
O 	O 	0.97061 0.05075 0.21967 -0.37600
O 	O 	0.96139 0.04368 0.30885 -0.43100
C 	C 	0.96827 0.03344 0.25962 0.30100
C 	C 	0.03093 0.08822 0.27405 0.32400
O 	O 	0.95798 0.10798 0.33527 -0.44700
O 	O 	0.02980 0.09056 0.22085 -0.28000
O 	O 	0.00801 0.09402 0.29805 -0.54500
C 	C 	0.93230 0.10404 0.31423 0.32100
O 	O 	0.92932 0.10166 0.26052 -0.35100
Cd	Cd	0.95677 0.16301 0.96242 1.24300
Cd	Cd	0.96476 0.12143 0.83602 1.18000
O 	O 	0.96370 0.21518 0.96477 -0.30200
O 	O 	0.94714 0.19490 0.03418 -0.33400
C 	C 	0.95380 0.21850 0.01322 0.29600
O 	O 	0.94141 0.11927 0.97770 -0.36700
O 	O 	0.96596 0.09557 0.91019 -0.42500
C 	C 	0.94694 0.09555 0.94721 0.29500
C 	C 	0.91280 0.16269 0.87721 0.32200
O 	O 	0.99543 0.15098 0.89248 -0.45100
O 	O 	0.90451 0.17319 0.92450 -0.27600
O 	O 	0.93953 0.15753 0.87649 -0.53000
C 	C 	0.01172 0.14317 0.93363 0.32000
O 	O 	0.00252 0.14888 0.98256 -0.34200
C 	C 	0.89052 0.38856 0.86688 0.14500
N 	N 	0.88367 0.37971 0.81324 -0.14100
C 	C 	0.87849 0.39916 0.77545 0.13300
N 	N 	0.87946 0.42750 0.79174 -0.14300
C 	C 	0.88682 0.43653 0.84496 0.13400
N 	N 	0.89288 0.41701 0.88229 -0.13100
C 	C 	0.91525 0.33222 0.29430 0.14700
N 	N 	0.90254 0.33235 0.34267 -0.13800
C 	C 	0.90146 0.35687 0.37604 0.13300
N 	N 	0.91334 0.38122 0.36120 -0.14400
C 	C 	0.92548 0.38135 0.31233 0.13600
N 	N 	0.92686 0.35672 0.27943 -0.13000
Cd	Cd	0.05327 0.00014 0.75571 1.24200
Cd	Cd	0.01497 0.99915 0.87569 1.18300
O 	O 	0.09979 0.97756 0.75801 -0.29800
O 	O 	0.08215 0.99656 0.68431 -0.34700
C 	C 	0.10394 0.98517 0.70908 0.30000
O 	O 	0.01021 0.01580 0.72879 -0.37600
O 	O 	0.99997 0.03096 0.81672 -0.43700
C 	C 	0.99168 0.02432 0.76474 0.29700
C 	C 	0.02513 0.94912 0.77770 0.32900
O 	O 	0.05815 0.01922 0.86115 -0.42700
O 	O 	0.03271 0.94752 0.72695 -0.28300
O 	O 	0.03510 0.97092 0.80885 -0.53500
C 	C 	0.06280 0.04454 0.84447 0.31300
O 	O 	0.06574 0.04539 0.79183 -0.36300
Cd	Cd	0.09901 0.97565 0.49315 1.24400
Cd	Cd	0.06542 0.96107 0.35896 1.17100
O 	O 	0.15006 0.98317 0.49773 -0.29800
O 	O 	0.12593 0.99089 0.57118 -0.32800
C 	C 	0.15029 0.99121 0.54985 0.29300
O 	O 	0.05279 0.97715 0.50710 -0.37200
O 	O 	0.03898 0.94974 0.42764 -0.44200
C 	C 	0.03269 0.96683 0.47073 0.29400
C 	C 	0.08909 0.02132 0.42400 0.31600
O 	O 	0.09520 0.03098 0.47502 -0.27100
O 	O 	0.09144 0.99391 0.41397 -0.53500
C 	C 	0.28858 0.05006 0.85401 0.14500
N 	N 	0.28545 0.06323 0.90494 -0.13900
C 	C 	0.30830 0.06961 0.93996 0.13400
N 	N 	0.33441 0.06344 0.92335 -0.14400
C 	C 	0.33768 0.05103 0.87202 0.13400
N 	N 	0.31475 0.04349 0.83806 -0.13000
C 	C 	0.31582 0.06184 0.43120 0.14600
N 	N 	0.31158 0.07103 0.37976 -0.14100
C 	C 	0.33317 0.07138 0.34602 0.13200
N 	N 	0.35898 0.06241 0.36386 -0.14200
C 	C 	0.36302 0.05206 0.41418 0.13600
N 	N 	0.34147 0.05188 0.44788 -0.13000
C 	C 	0.30462 0.07903 0.99837 -0.05500
C 	C 	0.32296 0.09959 0.02737 0.11300
C 	C 	0.32514 0.10142 0.08526 -0.08800
C 	C 	0.30808 0.08432 0.11432 -0.00200
C 	C 	0.28659 0.06731 0.08532 0.07500
C 	C 	0.28539 0.06437 0.02745 -0.04600
N 	N 	0.33797 0.11795 0.99994 -0.20200
H 	H 	0.34063 0.11561 0.10766 0.05900
C 	C 	0.31539 0.08136 0.17362 -0.00400
N 	N 	0.26750 0.05333 0.11276 -0.19300
H 	H 	0.27034 0.04963 0.00521 0.05800
C 	C 	0.30749 0.10289 0.21278 -0.08500
C 	C 	0.31407 0.10068 0.26935 0.10700
C 	C 	0.32744 0.07567 0.28697 -0.04900
C 	C 	0.33533 0.05421 0.24767 -0.05000
C 	C 	0.33015 0.05714 0.19115 0.07400
H 	H 	0.29662 0.12164 0.19914 0.06100
N 	N 	0.30836 0.12295 0.30607 -0.19900
H 	H 	0.34573 0.03516 0.26117 0.05200
N 	N 	0.33963 0.03679 0.15399 -0.19400
H 	H 	0.29752 0.14081 0.29289 0.09500
H 	H 	0.31573 0.12342 0.34738 0.10400
H 	H 	0.34977 0.01858 0.16740 0.08900
H 	H 	0.33787 0.03916 0.11171 0.09300
H 	H 	0.25234 0.03994 0.09114 0.09600
H 	H 	0.26692 0.05638 0.15556 0.09700
H 	H 	0.33425 0.11939 0.95757 0.10000
H 	H 	0.35244 0.13217 0.02143 0.09400
C 	C 	0.29158 0.05763 0.46439 -0.03900
C 	C 	0.29249 0.06693 0.52098 0.12500
C 	C 	0.27062 0.05953 0.55307 -0.07200
C 	C 	0.24770 0.04325 0.52907 0.01800
C 	C 	0.24614 0.03529 0.47200 0.09400
C 	C 	0.26805 0.04240 0.44012 -0.04000
H 	H 	0.27150 0.06635 0.59663 0.09400
C 	C 	0.22556 0.03409 0.56362 0.02100
H 	H 	0.26710 0.03542 0.39660 0.07000
C 	C 	0.20114 0.05053 0.56761 -0.07800
C 	C 	0.17546 0.03718 0.57460 0.14600
C 	C 	0.17439 0.00726 0.57705 -0.08100
C 	C 	0.19962 0.99248 0.58599 -0.01800
C 	C 	0.22530 0.00587 0.57939 0.08800
H 	H 	0.20157 0.07294 0.55957 0.08600
H 	H 	0.19912 0.96982 0.59197 0.07100
Br	Br	0.21432 0.01436 0.43690 -0.20900
Br	Br	0.32258 0.09087 0.55454 -0.21800
Br	Br	0.14173 0.05943 0.57342 -0.20500
Br	Br	0.25947 0.98458 0.58651 -0.20700
C 	C 	0.26355 0.03914 0.81992 -0.03700
C 	C 	0.26023 0.04324 0.76307 0.12400
C 	C 	0.23612 0.03273 0.73207 -0.06500
C 	C 	0.21470 0.01930 0.75758 0.01500
C 	C 	0.21796 0.01539 0.81434 0.09500
C 	C 	0.24244 0.02488 0.84489 -0.04000
H 	H 	0.23347 0.03623 0.68868 0.08400
C 	C 	0.18810 0.01113 0.72578 0.02400
H 	H 	0.24491 0.02150 0.88841 0.06900
C 	C 	0.18189 0.98208 0.71196 -0.08000
C 	C 	0.15414 0.97327 0.69754 0.14700
C 	C 	0.13246 0.99360 0.69711 -0.07800
C 	C 	0.13946 0.02282 0.70205 -0.00800
C 	C 	0.16708 0.03169 0.71725 0.08700
H 	H 	0.19831 0.96625 0.71559 0.08700
H 	H 	0.12300 0.03867 0.69937 0.07500
Br	Br	0.18861 0.99826 0.85147 -0.20900
Br	Br	0.28694 0.06520 0.72790 -0.21900
Br	Br	0.14594 0.93335 0.68099 -0.20500
Br	Br	0.17519 0.07186 0.73066 -0.20000
C 	C 	0.87828 0.39001 0.71621 -0.04900
C 	C 	0.85640 0.37266 0.68930 0.10700
C 	C 	0.85744 0.36412 0.63289 -0.08600
C 	C 	0.87962 0.37301 0.60297 -0.00300
C 	C 	0.90125 0.39074 0.62976 0.07300
C 	C 	0.90044 0.39884 0.68622 -0.05000
N 	N 	0.83412 0.36463 0.71690 -0.19900
H 	H 	0.84083 0.35072 0.61211 0.06100
C 	C 	0.87977 0.36409 0.54335 -0.00400
N 	N 	0.92275 0.40014 0.60155 -0.19400
H 	H 	0.91716 0.41213 0.70697 0.05100
C 	C 	0.86584 0.38104 0.50541 -0.08400
C 	C 	0.87046 0.37701 0.44904 0.10600
C 	C 	0.89017 0.35637 0.43090 -0.04700
C 	C 	0.90189 0.33756 0.46800 -0.05100
C 	C 	0.89660 0.34102 0.52413 0.07600
H 	H 	0.85202 0.39795 0.51998 0.05900
N 	N 	0.85567 0.39266 0.41253 -0.19900
H 	H 	0.91614 0.32100 0.45365 0.05700
N 	N 	0.90813 0.32253 0.55943 -0.19400
H 	H 	0.84210 0.40876 0.42643 0.09200
H 	H 	0.85644 0.38805 0.37006 0.09800
H 	H 	0.92127 0.30611 0.54523 0.09400
H 	H 	0.90355 0.32376 0.60085 0.09700
H 	H 	0.93872 0.41300 0.62189 0.08900
H 	H 	0.92375 0.39510 0.55928 0.09300
H 	H 	0.83189 0.37185 0.75797 0.10300
H 	H 	0.81833 0.35142 0.69687 0.09600
C 	C 	0.05827 0.07120 0.87941 -0.10800
C 	C 	0.06336 0.09766 0.85839 -0.05800
C 	C 	0.05044 0.12242 0.87999 0.15800
C 	C 	0.03301 0.12099 0.92405 -0.12100
C 	C 	0.03217 0.09572 0.95134 -0.04700
C 	C 	0.04483 0.07078 0.92926 0.14800
H 	H 	0.07582 0.09872 0.82295 0.07600
O 	O 	0.05451 0.14794 0.85749 -0.26700
H 	H 	0.02021 0.09488 0.98751 0.07200
O 	O 	0.04512 0.04661 0.95757 -0.27000
H 	H 	0.02657 0.03735 0.94804 0.05200
H 	H 	0.04035 0.14814 0.82589 0.13000
C 	C 	0.94170 0.24607 0.03199 -0.08500
C 	C 	0.91288 0.25105 0.02025 0.14200
C 	C 	0.90387 0.27843 0.00853 -0.07700
C 	C 	0.92335 0.30096 0.01053 0.02600
C 	C 	0.95056 0.29720 0.03477 0.09300
C 	C 	0.95982 0.26961 0.04463 -0.01700
H 	H 	0.88223 0.28171 0.99405 0.08400
C 	C 	0.91729 0.32519 0.97642 0.01800
H 	H 	0.98167 0.26621 0.05745 0.06900
C 	C 	0.89812 0.34623 0.99344 -0.07800
C 	C 	0.88911 0.36706 0.95811 0.12500
C 	C 	0.90007 0.36744 0.90572 -0.04000
C 	C 	0.91982 0.34684 0.88946 -0.04000
C 	C 	0.92799 0.32545 0.92384 0.09500
H 	H 	0.88942 0.34577 0.03335 0.09600
H 	H 	0.92840 0.34707 0.84939 0.07100
Br	Br	0.97589 0.32906 0.04999 -0.20100
Br	Br	0.88575 0.22073 0.01849 -0.19200
Br	Br	0.86020 0.39314 0.98045 -0.22800
Br	Br	0.95238 0.29568 0.89670 -0.20600
C 	C 	0.05431 0.07435 0.30297 -0.13900
C 	C 	0.06493 0.08693 0.35407 -0.08600
C 	C 	0.07832 0.07019 0.39271 0.16500
C 	C 	0.08083 0.04041 0.38032 -0.15000
C 	C 	0.07381 0.02876 0.32630 -0.06300
C 	C 	0.06086 0.04576 0.28746 0.14700
H 	H 	0.06103 0.10935 0.36532 0.05700
O 	O 	0.08773 0.08275 0.44326 -0.28300
H 	H 	0.07755 0.00637 0.31485 -0.03400
O 	O 	0.05265 0.03380 0.23580 -0.30700
H 	H 	0.06877 0.03681 0.21307 0.16200
H 	H 	0.10744 0.08854 0.43893 0.17000
C 	C 	0.92032 0.30483 0.26268 -0.03700
C 	C 	0.91411 0.30137 0.20516 0.12400
C 	C 	0.92130 0.27594 0.17551 -0.06900
C 	C 	0.93442 0.25378 0.20267 0.01600
C 	C 	0.93977 0.25688 0.26032 0.09500
C 	C 	0.93276 0.28231 0.28994 -0.04000
H 	H 	0.91632 0.27328 0.13156 0.08400
C 	C 	0.94279 0.22745 0.17080 0.02600
H 	H 	0.93746 0.28477 0.33415 0.06900
C 	C 	0.97092 0.22411 0.15797 -0.07700
C 	C 	0.98189 0.19667 0.14772 0.14800
C 	C 	0.96476 0.17251 0.15135 -0.08500
C 	C 	0.93558 0.17622 0.15259 -0.00700
C 	C 	0.92457 0.20361 0.16351 0.09600
H 	H 	0.98471 0.24262 0.16011 0.08200
H 	H 	0.92192 0.15768 0.15194 0.07100
Br	Br	0.95660 0.22651 0.29937 -0.21000
Br	Br	0.89454 0.33040 0.16671 -0.21600
Br	Br	0.02081 0.19235 0.13368 -0.20800
Br	Br	0.88526 0.20769 0.17474 -0.18700
H 	H 	0.48490 0.05059 0.41259 0.06000
C 	C 	0.44437 0.01639 0.44266 -0.00500
C 	C 	0.42545 0.00319 0.40205 -0.08300
C 	C 	0.39773 0.01289 0.39560 0.10500
C 	C 	0.38932 0.03722 0.42847 -0.04500
C 	C 	0.40749 0.04900 0.47186 -0.05000
C 	C 	0.43487 0.03841 0.47996 0.07700
H 	H 	0.43251 0.98567 0.37468 0.05800
N 	N 	0.37923 0.99867 0.35825 -0.19900
H 	H 	0.40058 0.06689 0.49847 0.06300
N 	N 	0.45187 0.04934 0.52350 -0.19400
H 	H 	0.38594 0.98153 0.33239 0.09000
H 	H 	0.35785 0.00357 0.35631 0.09800
H 	H 	0.44505 0.06624 0.54980 0.09500
H 	H 	0.53047 0.06251 0.38563 0.09500
C 	C 	0.47063 0.05258 0.86149 -0.08300
C 	C 	0.45349 0.03275 0.82887 -0.00500
H 	H 	0.46110 0.07006 0.88532 0.05800
C 	C 	0.42268 0.03394 0.83346 -0.00300
C 	C 	0.40708 0.05406 0.80489 -0.08600
C 	C 	0.37896 0.05961 0.81588 0.11000
C 	C 	0.36603 0.04392 0.85488 -0.04700
C 	C 	0.38114 0.02259 0.88092 -0.05000
C 	C 	0.40945 0.01756 0.87101 0.07400
H 	H 	0.41722 0.06634 0.77577 0.06100
N 	N 	0.36484 0.08052 0.79008 -0.19900
H 	H 	0.37104 0.01037 0.91021 0.05300
N 	N 	0.42385 0.99732 0.89821 -0.19400
H 	H 	0.37447 0.09169 0.76085 0.10200
H 	H 	0.34443 0.08625 0.79928 0.11500
H 	H 	0.41394 0.98557 0.92623 0.08900
H 	H 	0.50717 0.08699 0.91646 0.09000
C 	C 	0.87239 0.06274 0.40340 -0.11400
C 	C 	0.86412 0.07211 0.35167 -0.06800
C 	C 	0.88270 0.08797 0.32377 0.17500
C 	C 	0.90986 0.09455 0.34790 -0.12100
C 	C 	0.91633 0.08895 0.40306 -0.06300
C 	C 	0.89769 0.07308 0.43087 0.16300
H 	H 	0.84388 0.06569 0.33167 0.06300
O 	O 	0.87413 0.09737 0.27351 -0.26600
H 	H 	0.93636 0.09569 0.42357 0.01400
O 	O 	0.90428 0.06764 0.48464 -0.27600
H 	H 	0.91601 0.05019 0.48277 0.14200
H 	H 	0.87714 0.08100 0.24624 0.15200
C 	C 	0.96275 0.99886 0.50726 -0.07100
C 	C 	0.99197 0.99506 0.50671 0.15500
C 	C 	0.00283 0.96898 0.48455 -0.11400
H 	H 	0.95455 0.01948 0.52152 0.04900
O 	O 	0.00968 0.01754 0.52390 -0.31400
H 	H 	0.01385 0.01583 0.56388 0.16200
C 	C 	0.96234 0.03075 0.74599 -0.12400
C 	C 	0.94817 0.05252 0.77557 -0.05700
C 	C 	0.91895 0.05153 0.77735 0.15800
C 	C 	0.90323 0.03020 0.74503 -0.11400
C 	C 	0.94659 0.01126 0.70903 0.16300
H 	H 	0.96003 0.06865 0.80164 -0.02800
O 	O 	0.90585 0.07091 0.81204 -0.36100
H 	H 	0.90667 0.06247 0.84813 0.09500
C 	C 	0.85354 0.12088 0.76027 -0.13000
C 	C 	0.84405 0.14081 0.80050 -0.07500
C 	C 	0.86331 0.15679 0.83603 0.17000
C 	C 	0.89243 0.15267 0.83133 -0.14400
C 	C 	0.90158 0.13644 0.78499 -0.04700
C 	C 	0.88211 0.12068 0.74915 0.15600
H 	H 	0.82178 0.14241 0.80684 0.06300
O 	O 	0.85368 0.17659 0.87475 -0.26300
H 	H 	0.92372 0.13509 0.77790 -0.03900
O 	O 	0.89136 0.10306 0.70655 -0.29200
H 	H 	0.89075 0.11488 0.67448 0.15800
H 	H 	0.84938 0.16559 0.90639 0.15500
Br	Br	0.68904 0.05418 0.79710 -0.20800
C 	C 	0.93924 0.40761 0.29729 -0.04400
C 	C 	0.92550 0.43436 0.30194 0.10700
C 	C 	0.94107 0.45957 0.29925 -0.08400
C 	C 	0.96945 0.45841 0.28721 -0.00300
C 	C 	0.98231 0.43153 0.27628 0.07600
C 	C 	0.96726 0.40636 0.28276 -0.04900
N 	N 	0.89729 0.43590 0.30714 -0.19800
H 	H 	0.93102 0.48018 0.30600 0.05900
C 	C 	0.98587 0.48541 0.28988 -0.00500
N 	N 	0.00890 0.42976 0.25913 -0.19400
H 	H 	0.97755 0.38580 0.27745 0.06100
C 	C 	0.00545 0.49181 0.33460 -0.08400
C 	C 	0.01752 0.51923 0.34389 0.10500
C 	C 	0.00787 0.54120 0.31086 -0.04700
C 	C 	0.99033 0.53411 0.26323 -0.05200
C 	C 	0.97979 0.50615 0.25171 0.07600
H 	H 	0.01112 0.47550 0.36244 0.05800
N 	N 	0.03879 0.52416 0.38339 -0.19900
H 	H 	0.98396 0.55058 0.23624 0.05800
N 	N 	0.96388 0.49935 0.20416 -0.19400
H 	H 	0.04487 0.50827 0.40945 0.09100
H 	H 	0.05057 0.54308 0.38631 0.09800
H 	H 	0.95860 0.51504 0.17714 0.09500
H 	H 	0.95758 0.47828 0.19251 0.09800
H 	H 	0.01856 0.40987 0.25289 0.09700
H 	H 	0.01982 0.44792 0.24987 0.09600
H 	H 	0.88455 0.41764 0.30137 0.10100
H 	H 	0.88756 0.45574 0.31359 0.09200
C 	C 	0.93011 0.61283 0.87906 -0.04700
C 	C 	0.94417 0.59542 0.91694 0.11100
C 	C 	0.93391 0.56771 0.92212 -0.08400
C 	C 	0.91052 0.55702 0.88903 -0.00300
C 	C 	0.89458 0.57564 0.85649 0.07500
C 	C 	0.90458 0.60346 0.85186 -0.04900
N 	N 	0.96784 0.60480 0.94716 -0.20000
H 	H 	0.94538 0.55373 0.94889 0.06200
C 	C 	0.90622 0.52567 0.88067 -0.00200
N 	N 	0.87013 0.56671 0.82856 -0.19400
H 	H 	0.89321 0.61732 0.82468 0.05400
C 	C 	0.88729 0.51240 0.91250 -0.08600
C 	C 	0.88014 0.48334 0.90099 0.10900
C 	C 	0.89369 0.46697 0.85918 -0.04800
C 	C 	0.91369 0.47998 0.82938 -0.04900
C 	C 	0.91987 0.50924 0.83916 0.07400
H 	H 	0.87704 0.52504 0.94451 0.06200
N 	N 	0.85963 0.47168 0.92869 -0.19900
H 	H 	0.92428 0.46731 0.79787 0.05200
N 	N 	0.93880 0.52142 0.80839 -0.19400
H 	H 	0.85048 0.48367 0.96074 0.09900
H 	H 	0.85174 0.45115 0.91734 0.11400
H 	H 	0.94861 0.50909 0.77767 0.08800
H 	H 	0.94403 0.54311 0.81453 0.09300
H 	H 	0.85897 0.58029 0.80314 0.09200
H 	H 	0.86157 0.54656 0.83293 0.09400
H 	H 	0.97589 0.62533 0.94469 0.12300
H 	H 	0.97828 0.59160 0.97435 0.10600
C 	C 	0.00428 0.61820 0.45818 -0.04600
C 	C 	0.02357 0.63715 0.48916 0.11000
C 	C 	0.01764 0.64758 0.54273 -0.08500
C 	C 	0.99451 0.63708 0.56790 -0.00300
C 	C 	0.97596 0.61703 0.53787 0.07400
C 	C 	0.98074 0.60827 0.48288 -0.05100
N 	N 	0.04839 0.64417 0.46896 -0.19700
H 	H 	0.03193 0.66272 0.56600 0.06300
C 	C 	0.99042 0.64655 0.62630 -0.00400
N 	N 	0.95371 0.60595 0.56160 -0.19400
H 	H 	0.96614 0.59355 0.45931 0.05400
C 	C 	0.97040 0.66765 0.63819 -0.08300
C 	C 	0.96245 0.67371 0.69237 0.10400
C 	C 	0.97600 0.65937 0.73577 -0.04600
C 	C 	0.99779 0.64018 0.72433 -0.05200
C 	C 	0.00483 0.63318 0.66991 0.07600
H 	H 	0.95988 0.67830 0.60477 0.06100
N 	N 	0.94131 0.69257 0.70201 -0.19900
H 	H 	0.00844 0.62960 0.75772 0.05600
N 	N 	0.02495 0.61323 0.65980 -0.19400
H 	H 	0.93160 0.70308 0.66967 0.09400
H 	H 	0.93402 0.69679 0.74123 0.10100
H 	H 	0.03535 0.60341 0.69230 0.09100
H 	H 	0.03051 0.60722 0.61985 0.09300
H 	H 	0.93997 0.59144 0.53885 0.08900
H 	H 	0.95001 0.61122 0.60287 0.09200
H 	H 	0.05545 0.63340 0.43340 0.11200
H 	H 	0.06178 0.65934 0.49078 0.10300
C 	C 	0.91622 0.01183 0.96976 -0.11500
C 	C 	0.89776 0.03520 0.97150 -0.06200
C 	C 	0.90796 0.06309 0.96838 0.12800
C 	C 	0.93681 0.06774 0.96314 -0.09300
C 	C 	0.95545 0.04461 0.96546 -0.07800
C 	C 	0.94530 0.01678 0.96905 0.16400
H 	H 	0.87538 0.03166 0.97321 0.04100
O 	O 	0.88962 0.08564 0.96936 -0.27000
H 	H 	0.97775 0.04807 0.96255 0.03900
O 	O 	0.96365 0.99424 0.96763 -0.36500
H 	H 	0.96954 0.99184 0.00674 0.16400
H 	H 	0.88340 0.08768 0.93027 0.04700
C 	C 	0.96204 0.81109 0.02520 -0.07400
C 	C 	0.94367 0.78753 0.02029 0.02900
C 	C 	0.91778 0.78992 0.04499 0.08900
C 	C 	0.90832 0.81696 0.06410 -0.01000
H 	H 	0.98296 0.80891 0.01048 0.09200
C 	C 	0.94912 0.76282 0.98106 0.01500
C 	C 	0.96741 0.74122 0.99724 -0.07400
C 	C 	0.97156 0.71697 0.96155 0.12600
C 	C 	0.95689 0.71399 0.90940 -0.03800
C 	C 	0.93983 0.73632 0.89198 -0.03900
C 	C 	0.93608 0.76081 0.92731 0.09700
H 	H 	0.97842 0.74325 0.03737 0.08900
H 	H 	0.92895 0.73437 0.85142 0.06700
Br	Br	0.89397 0.75709 0.04760 -0.20000
Br	Br	0.99841 0.68892 0.98355 -0.21300
Br	Br	0.91324 0.79135 0.90140 -0.21200
C 	C 	0.96693 0.00213 0.24618 -0.11500
C 	C 	0.99070 0.98757 0.22781 -0.07300
O 	O 	0.91984 0.00002 0.27618 -0.39800
H 	H 	0.00817 0.99945 0.21445 0.06400
C 	C 	0.97012 0.76351 0.15353 -0.08600
C 	C 	0.99791 0.75605 0.14230 0.13500
C 	C 	0.00684 0.72778 0.14627 -0.08100
C 	C 	0.98860 0.70737 0.16416 0.02700
C 	C 	0.95973 0.71383 0.16582 0.09100
C 	C 	0.95053 0.74157 0.15741 -0.01500
H 	H 	0.02868 0.72246 0.14119 0.08800
C 	C 	0.00072 0.68397 0.19535 0.01700
H 	H 	0.92870 0.74693 0.16259 0.07900
C 	C 	0.01582 0.69081 0.24598 -0.07400
C 	C 	0.02355 0.66936 0.28058 0.12400
C 	C 	0.01403 0.64103 0.26678 -0.03800
C 	C 	0.00139 0.63378 0.21371 -0.03900
C 	C 	0.99565 0.65504 0.17730 0.09900
H 	H 	0.02141 0.71289 0.25858 0.08300
H 	H 	0.99539 0.61181 0.20121 0.07000
Br	Br	0.93336 0.68676 0.18857 -0.19500
Br	Br	0.02426 0.78430 0.12424 -0.21000
Br	Br	0.04965 0.67867 0.34273 -0.22600
Br	Br	0.98136 0.64419 0.10321 -0.19700
Cd	Cd	0.97032 0.84511 0.24044 1.24500
Cd	Cd	0.96368 0.88196 0.37270 1.17600
O 	O 	0.96076 0.79356 0.23417 -0.31100
O 	O 	0.97020 0.81549 0.16107 -0.32800
O 	O 	0.97290 0.89146 0.22394 -0.36100
O 	O 	0.98537 0.90765 0.31340 -0.44300
C 	C 	0.97480 0.91244 0.26367 0.29100
C 	C 	0.91618 0.85769 0.27757 0.31900
O 	O 	0.99238 0.84494 0.34205 -0.44900
O 	O 	0.91435 0.85037 0.22457 -0.27800
O 	O 	0.94061 0.85483 0.30249 -0.54500
C 	C 	0.01700 0.84725 0.32249 0.31200
O 	O 	0.01743 0.84531 0.26886 -0.34200
Cd	Cd	0.89964 0.91693 0.98481 1.24200
Cd	Cd	0.88169 0.94307 0.85301 1.18900
O 	O 	0.89648 0.86494 0.98889 -0.30800
O 	O 	0.91506 0.89240 0.05889 -0.33200
C 	C 	0.90904 0.86651 0.03785 0.29500
O 	O 	0.91195 0.96334 0.99612 -0.37300
O 	O 	0.88366 0.97741 0.92322 -0.41700
C 	C 	0.90483 0.98242 0.96036 0.31100
C 	C 	0.93967 0.91283 0.90261 0.32400
O 	O 	0.85697 0.91777 0.91222 -0.45200
O 	O 	0.95110 0.90758 0.95077 -0.28600
O 	O 	0.91248 0.91506 0.89956 -0.52100
C 	C 	0.84184 0.92894 0.95093 0.31100
O 	O 	0.85351 0.92925 0.00094 -0.33900
Cd	Cd	0.81025 0.04132 0.72585 1.24400
O 	O 	0.76300 0.06133 0.71221 -0.29700
O 	O 	0.78077 0.03253 0.64873 -0.34400
C 	C 	0.75875 0.04633 0.66538 0.29900
O 	O 	0.85396 0.02536 0.71292 -0.37600
O 	O 	0.86569 0.02467 0.80517 -0.44300
C 	C 	0.87324 0.02600 0.75445 0.29900
O 	O 	0.80568 0.03851 0.83296 -0.44400
C 	C 	0.80185 0.01100 0.82265 0.31300
O 	O 	0.80003 0.00156 0.77081 -0.36200
Cd	Cd	0.84873 0.98634 0.47601 1.24200
Cd	Cd	0.88284 0.98383 0.34943 1.18400
O 	O 	0.79744 0.98398 0.46468 -0.31000
O 	O 	0.81934 0.98381 0.54690 -0.33800
C 	C 	0.79556 0.98267 0.51721 0.30000
O 	O 	0.89458 0.98072 0.50159 -0.37300
O 	O 	0.91069 0.99844 0.42414 -0.43100
C 	C 	0.91503 0.98402 0.46816 0.29500
C 	C 	0.85306 0.93339 0.41195 0.32400
O 	O 	0.84551 0.92920 0.46131 -0.27400
O 	O 	0.85389 0.95982 0.40032 -0.54000
C 	C 	0.58803 0.01078 0.82742 0.14600
N 	N 	0.59544 0.00466 0.88003 -0.13900
C 	C 	0.57585 0.00514 0.91813 0.13400
N 	N 	0.54869 0.01105 0.90330 -0.14200
C 	C 	0.54124 0.01744 0.85103 0.13400
N 	N 	0.56095 0.01760 0.81326 -0.13100
C 	C 	0.60388 0.97321 0.41069 0.14400
N 	N 	0.60755 0.97272 0.35576 -0.13900
C 	C 	0.58536 0.97692 0.31956 0.13200
N 	N 	0.55973 0.98300 0.33862 -0.14300
C 	C 	0.55595 0.98333 0.39340 0.13500
N 	N 	0.57777 0.97724 0.42904 -0.12700
O 	O 	0.10048 0.93786 0.40844 -0.45100
C 	C 	0.09677 0.91797 0.44176 0.31100
O 	O 	0.09829 0.92635 0.49422 -0.33500
C 	C 	0.52928 0.99349 0.41467 -0.04400
C 	C 	0.52012 0.02184 0.40852 0.11100
C 	C 	0.49257 0.02940 0.42029 -0.08400
C 	C 	0.47464 0.00964 0.44089 -0.00200
C 	C 	0.48494 0.98235 0.45292 0.07500
C 	C 	0.51205 0.97432 0.43863 -0.04800
N 	N 	0.53775 0.04194 0.39217 -0.19800
N 	N 	0.46900 0.96393 0.47838 -0.19400
H 	H 	0.51957 0.95296 0.44536 0.05700
H 	H 	0.47153 0.04050 0.53283 0.09800
H 	H 	0.47636 0.94346 0.48548 0.09400
H 	H 	0.44966 0.97010 0.49314 0.09500
H 	H 	0.55907 0.03781 0.38826 0.10800
C 	C 	0.51211 0.02569 0.83639 -0.04500
C 	C 	0.49994 0.04966 0.86445 0.10400
C 	C 	0.46591 0.01086 0.79530 0.07600
C 	C 	0.49522 0.00732 0.79996 -0.05100
N 	N 	0.51631 0.07007 0.89361 -0.19800
N 	N 	0.44986 0.99296 0.75950 -0.19500
H 	H 	0.50474 0.98955 0.77688 0.06400
H 	H 	0.44487 0.99288 0.89171 0.09400
H 	H 	0.45914 0.97636 0.73602 0.09500
H 	H 	0.42818 0.99573 0.75364 0.09700
H 	H 	0.53812 0.07012 0.89159 0.09400
C 	C 	0.58951 0.97676 0.25996 -0.04700
C 	C 	0.57125 0.96110 0.22036 0.10500
C 	C 	0.57257 0.96555 0.16428 -0.08400
C 	C 	0.59325 0.98348 0.14677 -0.00400
C 	C 	0.61334 0.99680 0.18591 0.07600
C 	C 	0.61086 0.99384 0.24230 -0.05100
N 	N 	0.55317 0.94114 0.23566 -0.19900
H 	H 	0.55765 0.95479 0.13410 0.05900
C 	C 	0.59222 0.98999 0.08807 -0.00500
N 	N 	0.63509 0.01224 0.16964 -0.19400
H 	H 	0.62536 0.00519 0.27252 0.06100
C 	C 	0.58206 0.01665 0.07373 -0.08400
C 	C 	0.57911 0.02294 0.01834 0.10700
C 	C 	0.58434 0.00136 0.97636 -0.04900
C 	C 	0.59547 0.97506 0.99064 -0.05400
C 	C 	0.60001 0.96935 0.04627 0.07800
H 	H 	0.57679 0.03268 0.10587 0.05900
N 	N 	0.57204 0.04988 0.00578 -0.19700
H 	H 	0.60020 0.95883 0.95844 0.05900
N 	N 	0.61200 0.94421 0.05920 -0.19500
H 	H 	0.56676 0.06528 0.03671 0.09100
H 	H 	0.57332 0.05627 0.96595 0.09300
H 	H 	0.61697 0.92878 0.02808 0.09600
H 	H 	0.61731 0.94008 0.10002 0.09600
H 	H 	0.64932 0.02274 0.19887 0.09600
H 	H 	0.63868 0.01315 0.12802 0.09600
H 	H 	0.55436 0.93447 0.27560 0.09900
H 	H 	0.53879 0.93076 0.20657 0.09100
C 	C 	0.94420 0.97689 0.48562 -0.10300
C 	C 	0.98425 0.94605 0.46846 -0.06300
C 	C 	0.95508 0.95005 0.46822 0.14000
H 	H 	0.99236 0.92550 0.45344 0.00100
O 	O 	0.93724 0.92796 0.44910 -0.33900
H 	H 	0.93423 0.92966 0.40884 0.05900
C 	C 	0.76823 0.98561 0.54134 -0.08300
C 	C 	0.75593 0.96178 0.56241 0.14600
C 	C 	0.72664 0.95827 0.55766 -0.07900
C 	C 	0.70974 0.97820 0.53103 0.02500
C 	C 	0.72186 0.00405 0.51781 0.08400
C 	C 	0.75091 0.00809 0.52556 -0.00700
H 	H 	0.71724 0.93914 0.57106 0.09400
C 	C 	0.68078 0.97025 0.50991 0.01400
H 	H 	0.76029 0.02736 0.51269 0.07400
C 	C 	0.65808 0.98533 0.53142 -0.06500
C 	C 	0.63236 0.98619 0.50050 0.12200
C 	C 	0.62834 0.96915 0.44991 -0.03400
C 	C 	0.64979 0.95050 0.43334 -0.04100
C 	C 	0.67618 0.95164 0.46192 0.09600
H 	H 	0.66133 0.99892 0.56925 0.08000
H 	H 	0.64652 0.93640 0.39607 0.07300
Br	Br	0.69966 0.03270 0.48342 -0.19800
Br	Br	0.77887 0.93287 0.59375 -0.21400
Br	Br	0.60480 0.01336 0.52532 -0.21600
Br	Br	0.70626 0.92946 0.43195 -0.20600
C 	C 	0.91704 0.01094 0.70892 -0.05800
H 	H 	0.90509 0.99485 0.68289 0.06100
O 	O 	0.95994 0.99131 0.67589 -0.28600
H 	H 	0.96210 0.00044 0.64103 0.15400
C 	C 	0.73045 0.03478 0.65024 -0.08600
C 	C 	0.70820 0.05371 0.63988 0.15000
C 	C 	0.68112 0.04708 0.65442 -0.07700
C 	C 	0.67633 0.02168 0.67937 0.02100
C 	C 	0.69726 0.00056 0.67940 0.08500
C 	C 	0.72425 0.00717 0.66469 -0.01700
H 	H 	0.66453 0.06274 0.65099 0.08900
C 	C 	0.65290 0.02029 0.71593 0.01600
H 	H 	0.74106 0.99193 0.67038 0.07100
C 	C 	0.62853 0.00459 0.69788 -0.06800
C 	C 	0.60732 0.00091 0.73404 0.12500
C 	C 	0.61003 0.01402 0.78834 -0.03700
C 	C 	0.63415 0.03028 0.80574 -0.04100
C 	C 	0.65564 0.03320 0.77018 0.09500
H 	H 	0.62649 0.99439 0.65636 0.08800
H 	H 	0.63630 0.04054 0.84721 0.07000
Br	Br	0.69012 0.96357 0.70432 -0.20500
Br	Br	0.71509 0.08992 0.61151 -0.19600
Br	Br	0.57608 0.97615 0.70977 -0.21700
C 	C 	0.81978 0.94949 0.93692 -0.12300
C 	C 	0.80093 0.94211 0.89154 -0.07200
C 	C 	0.79229 0.96291 0.85600 0.16400
C 	C 	0.80201 0.99133 0.86710 -0.12900
C 	C 	0.81547 0.99952 0.91889 -0.05900
C 	C 	0.82355 0.97863 0.95472 0.16000
H 	H 	0.79563 0.91983 0.88034 0.06400
O 	O 	0.77441 0.95547 0.81074 -0.26200
H 	H 	0.82131 0.02168 0.92984 0.01800
O 	O 	0.83806 0.98654 0.00396 -0.27800
H 	H 	0.82352 0.98902 0.03122 0.15400
H 	H 	0.78659 0.94738 0.78196 0.15100
C 	C 	0.95695 0.91726 0.85608 -0.15000
C 	C 	0.98036 0.89963 0.84772 -0.04800
C 	C 	0.00192 0.90835 0.81623 0.16500
C 	C 	0.99977 0.93452 0.79200 -0.13400
C 	C 	0.97465 0.94983 0.79361 -0.10300
C 	C 	0.95374 0.94206 0.82724 0.17300
H 	H 	0.98274 0.88014 0.86874 0.07400
O 	O 	0.02599 0.89249 0.81309 -0.27900
H 	H 	0.97254 0.96944 0.77338 0.05000
O 	O 	0.93121 0.95973 0.83461 -0.42100
H 	H 	0.93780 0.97466 0.86363 0.13700
H 	H 	0.02268 0.87910 0.77974 0.16200
C 	C 	0.92419 0.84147 0.05684 -0.08100
C 	C 	0.95259 0.83797 0.04512 0.15000
H 	H 	0.88719 0.81922 0.07772 0.07200
Br	Br	0.97815 0.86984 0.05324 -0.20600
C 	C 	0.97068 0.94230 0.24989 -0.10300
C 	C 	0.94607 0.95661 0.26424 -0.08800
C 	C 	0.94391 0.98630 0.26133 0.17300
C 	C 	0.99282 0.95778 0.23035 0.14800
H 	H 	0.92907 0.94494 0.27995 -0.00300
O 	O 	0.01678 0.94400 0.21491 -0.26200
H 	H 	0.02955 0.94473 0.24876 0.07700
H 	H 	0.90771 0.00021 0.24161 0.13500
C 	C 	0.89325 0.87174 0.30622 -0.13400
C 	C 	0.88987 0.86615 0.36108 -0.08400
C 	C 	0.87560 0.88546 0.39564 0.16800
C 	C 	0.86359 0.91017 0.37467 -0.13900
C 	C 	0.86407 0.91386 0.31809 -0.07800
C 	C 	0.87894 0.89481 0.28390 0.15500
H 	H 	0.90006 0.84781 0.37799 0.04500
O 	O 	0.87395 0.88045 0.45004 -0.26800
H 	H 	0.85380 0.93211 0.30103 0.01300
O 	O 	0.87966 0.89893 0.22889 -0.27100
H 	H 	0.89610 0.91160 0.22608 0.13200
H 	H 	0.89116 0.88928 0.46931 0.14100
C 	C 	0.04164 0.85740 0.35855 -0.12100
C 	C 	0.03843 0.86483 0.41475 -0.06700
C 	C 	0.05876 0.88171 0.44593 0.16600
C 	C 	0.08253 0.89112 0.42083 -0.11600
C 	C 	0.08813 0.87914 0.36819 -0.07300
C 	C 	0.06764 0.86265 0.33656 0.16600
H 	H 	0.01950 0.85888 0.43351 0.02800
O 	O 	0.05521 0.88919 0.50058 -0.26700
H 	H 	0.10741 0.88460 0.35003 0.06200
O 	O 	0.07318 0.85152 0.28468 -0.26200
H 	H 	0.06879 0.86707 0.26016 0.14900
H 	H 	0.04312 0.90639 0.50114 0.15000
