data_crystal

_cell_length_a 17.16655
_cell_length_b 16.54384
_cell_length_c 72.40715
_cell_angle_alpha 90.06934
_cell_angle_beta  89.94639
_cell_angle_gamma 119.92243

_symmetry_space_group_name_	'P 1'
_symmetry_space_group_name_H-M	'P 1'

loop_
_symmetry_equiv_pos_as_xyz
  x,y,z

loop_
_atom_site_label
_atom_site_type_symbol
_atom_site_fract_x
_atom_site_fract_y
_atom_site_fract_z
_atom_site_charge
C 	C 	0.82683 0.39749 0.59849 0.30100
C 	C 	0.64507 0.17691 0.53272 0.32600
C 	C 	0.90133 0.40915 0.54778 0.32500
C 	C 	0.54178 0.13648 0.57877 0.30700
C 	C 	0.68407 0.45279 0.52909 0.33500
C 	C 	0.61484 0.45970 0.57712 0.31100
Ni	Ni	0.74561 0.25511 0.56820 1.12100
Ni	Ni	0.58862 0.29392 0.55351 1.12900
Ni	Ni	0.77894 0.46535 0.56395 1.12900
O 	O 	0.78391 0.30647 0.59492 -0.34900
O 	O 	0.85688 0.45911 0.58472 -0.35300
O 	O 	0.64581 0.36202 0.53015 -0.37000
O 	O 	0.72398 0.21246 0.54073 -0.35300
O 	O 	0.57812 0.17822 0.54121 -0.36000
O 	O 	0.69915 0.48473 0.58127 -0.35500
O 	O 	0.87940 0.34704 0.56098 -0.34800
O 	O 	0.85103 0.44601 0.54425 -0.36900
O 	O 	0.56872 0.39807 0.56374 -0.36100
O 	O 	0.62101 0.14053 0.57623 -0.34500
O 	O 	0.52979 0.20838 0.57525 -0.34800
O 	O 	0.72544 0.50513 0.54348 -0.37500
O 	O 	0.69783 0.33516 0.56628 -0.72200
H 	H 	0.67666 0.33209 0.57906 0.17500
C 	C 	0.43589 0.82583 0.36936 0.30700
C 	C 	0.20380 0.62792 0.43120 0.32300
C 	C 	0.47196 0.80013 0.41725 0.31700
C 	C 	0.13250 0.60125 0.37801 0.30300
C 	C 	0.37991 0.53651 0.42026 0.31700
C 	C 	0.30779 0.47970 0.36845 0.30800
Ni	Ni	0.29873 0.74628 0.39853 1.11600
Ni	Ni	0.22401 0.52302 0.40076 1.12600
Ni	Ni	0.42918 0.65764 0.38783 1.12600
O 	O 	0.34989 0.79451 0.37249 -0.36000
O 	O 	0.47010 0.76925 0.37030 -0.33000
O 	O 	0.29553 0.51590 0.42207 -0.37200
O 	O 	0.26094 0.71305 0.42598 -0.36500
O 	O 	0.15975 0.56307 0.41885 -0.36500
O 	O 	0.37712 0.56605 0.36665 -0.34500
O 	O 	0.42788 0.83296 0.40815 -0.37000
O 	O 	0.49761 0.74651 0.40894 -0.36500
O 	O 	0.26296 0.45087 0.38427 -0.36500
O 	O 	0.16457 0.67199 0.38988 -0.35100
O 	O 	0.14157 0.52694 0.38106 -0.35200
O 	O 	0.41798 0.55341 0.40390 -0.37000
O 	O 	0.31399 0.64412 0.39281 -0.71800
H 	H 	0.29658 0.63762 0.37972 0.15900
C 	C 	0.43108 0.63942 0.60458 0.30300
C 	C 	0.10334 0.55176 0.64337 0.31700
C 	C 	0.31736 0.78418 0.60744 0.31800
C 	C 	0.22098 0.41315 0.64053 0.30500
C 	C 	0.32576 0.78205 0.66800 0.32300
C 	C 	0.47969 0.67776 0.66600 0.30700
Ni	Ni	0.24430 0.58066 0.61665 1.11800
Ni	Ni	0.27485 0.58807 0.66096 1.12600
Ni	Ni	0.41889 0.75324 0.63610 1.12500
O 	O 	0.34564 0.57461 0.60251 -0.34800
O 	O 	0.45469 0.72513 0.61065 -0.34600
O 	O 	0.25875 0.69681 0.66637 -0.38200
O 	O 	0.15045 0.60424 0.62960 -0.37000
O 	O 	0.14017 0.51896 0.65490 -0.35100
O 	O 	0.49653 0.71288 0.64908 -0.36700
O 	O 	0.28249 0.69979 0.60052 -0.33900
O 	O 	0.34053 0.79880 0.62480 -0.37200
O 	O 	0.39815 0.64335 0.67380 -0.36500
O 	O 	0.18705 0.44358 0.62735 -0.35400
O 	O 	0.27113 0.46811 0.65422 -0.35900
O 	O 	0.40461 0.80725 0.66035 -0.36100
O 	O 	0.32326 0.62834 0.63697 -0.71800
H 	H 	0.35731 0.59522 0.63573 0.16600
C 	C 	0.86678 0.93520 0.75194 0.27300
C 	C 	0.07077 0.14142 0.68815 0.31100
C 	C 	0.81402 0.87377 0.70310 0.31900
C 	C 	0.09659 0.21359 0.74155 0.30600
C 	C 	0.12945 0.92819 0.70169 0.28800
C 	C 	0.11733 0.95741 0.75102 0.28400
Ni	Ni	0.93956 0.06596 0.71939 1.12600
Ni	Ni	0.14055 0.08822 0.72008 1.12700
Ni	Ni	0.96535 0.88364 0.72410 1.11900
O 	O 	0.88497 0.01843 0.74559 -0.30700
O 	O 	0.86254 0.86987 0.74057 -0.35700
O 	O 	0.14456 0.01304 0.69904 -0.36800
O 	O 	0.98468 0.09898 0.69225 -0.32900
O 	O 	0.13080 0.17393 0.70148 -0.36600
O 	O 	0.03603 0.88750 0.74664 -0.36100
O 	O 	0.82148 0.95086 0.70999 -0.34700
O 	O 	0.88462 0.86239 0.70195 -0.37100
O 	O 	0.17251 0.01538 0.73821 -0.33500
O 	O 	0.03733 0.19879 0.72842 -0.33800
O 	O 	0.15127 0.17883 0.74016 -0.35100
O 	O 	0.05009 0.86229 0.70769 -0.34500
O 	O 	0.01504 0.01532 0.72433 -0.70400
H 	H 	0.02046 0.02478 0.73776 0.15300
C 	C 	0.23842 0.54237 0.86179 0.30200
C 	C 	0.51655 0.78159 0.86895 0.30900
C 	C 	0.27038 0.81342 0.87307 0.30700
Ni	Ni	0.38490 0.60958 0.89040 1.12500
Ni	Ni	0.41403 0.81693 0.89757 1.12800
Ni	Ni	0.21362 0.64096 0.89502 1.12400
O 	O 	0.32360 0.56547 0.86478 -0.33700
O 	O 	0.18479 0.53845 0.87560 -0.34800
O 	O 	0.20787 0.72440 0.87550 -0.35800
O 	O 	0.27415 0.48677 0.89919 -0.34000
O 	O 	0.33418 0.86039 0.88555 -0.36100
O 	O 	0.50786 0.71308 0.87978 -0.34700
O 	O 	0.48647 0.83804 0.87416 -0.36000
O 	O 	0.33836 0.69113 0.89049 -0.72000
H 	H 	0.33908 0.70291 0.87716 0.15700
C 	C 	0.73454 0.52227 0.04444 0.29500
C 	C 	0.51105 0.25098 0.09942 0.32600
C 	C 	0.75357 0.49988 0.09863 0.32400
C 	C 	0.44797 0.24493 0.05050 0.30600
C 	C 	0.74315 0.23231 0.08802 0.32300
C 	C 	0.74613 0.26187 0.03941 0.31100
Ni	Ni	0.59647 0.41187 0.07305 1.12100
Ni	Ni	0.59005 0.21300 0.06628 1.12400
Ni	Ni	0.77972 0.40240 0.06707 1.13200
O 	O 	0.65024 0.49385 0.04947 -0.34300
O 	O 	0.79205 0.52270 0.05665 -0.33500
O 	O 	0.65682 0.20398 0.08813 -0.38900
O 	O 	0.55541 0.34222 0.09804 -0.36100
O 	O 	0.49420 0.19824 0.08469 -0.36500
O 	O 	0.77551 0.35145 0.04190 -0.35900
O 	O 	0.70463 0.51802 0.08728 -0.34600
O 	O 	0.78398 0.44456 0.09353 -0.35700
O 	O 	0.66952 0.19555 0.04713 -0.35600
O 	O 	0.47075 0.31896 0.06130 -0.33000
O 	O 	0.50456 0.21370 0.04695 -0.35900
O 	O 	0.79896 0.29944 0.07694 -0.36800
O 	O 	0.65213 0.34442 0.06516 -0.71800
H 	H 	0.64534 0.34851 0.05176 0.16300
C 	C 	0.16145 0.14652 0.25470 0.31000
C 	C 	0.89062 0.78631 0.22448 0.31600
C 	C 	0.13476 0.04790 0.21170 0.33200
C 	C 	0.86636 0.86049 0.27297 0.30800
C 	C 	0.87334 0.00166 0.19942 0.40400
C 	C 	0.86697 0.10807 0.24767 0.30100
Ni	Ni	0.03343 0.94544 0.24634 1.09400
Ni	Ni	0.83836 0.92202 0.23652 1.12600
Ni	Ni	0.01499 0.11314 0.22631 1.11500
O 	O 	0.10963 0.06356 0.26237 -0.35700
O 	O 	0.13252 0.17934 0.24112 -0.36000
O 	O 	0.83878 0.92359 0.20880 -0.39400
O 	O 	0.97715 0.83479 0.22779 -0.35100
O 	O 	0.83453 0.79768 0.23494 -0.35400
O 	O 	0.95314 0.16060 0.24317 -0.33800
O 	O 	0.13932 0.01232 0.22763 -0.36200
O 	O 	0.06834 0.06273 0.20781 -0.38800
O 	O 	0.81384 0.02957 0.23864 -0.33500
O 	O 	0.94265 0.86349 0.26755 -0.34700
O 	O 	0.83245 0.90576 0.26410 -0.35200
O 	O 	0.91609 0.08224 0.20795 -0.37700
O 	O 	0.96429 0.00031 0.24008 -0.69500
H 	H 	0.96480 0.02696 0.25229 0.17500
C 	C 	0.69502 0.57671 0.32098 0.29900
C 	C 	0.61519 0.20537 0.35130 0.32700
C 	C 	0.83306 0.47622 0.33091 0.33200
C 	C 	0.45471 0.29880 0.34423 0.30400
C 	C 	0.68394 0.24695 0.29195 0.33100
C 	C 	0.50267 0.31189 0.28525 0.29900
Ni	Ni	0.65351 0.40189 0.34537 1.12900
Ni	Ni	0.54021 0.22921 0.31726 1.12700
Ni	Ni	0.69372 0.42204 0.30122 1.12700
O 	O 	0.70261 0.54376 0.33741 -0.32100
O 	O 	0.66473 0.52308 0.30619 -0.37500
O 	O 	0.59681 0.20306 0.29514 -0.35700
O 	O 	0.61514 0.27667 0.35928 -0.32700
O 	O 	0.62003 0.20272 0.33337 -0.37900
O 	O 	0.59171 0.35922 0.28190 -0.33800
O 	O 	0.77124 0.40449 0.33947 -0.36000
O 	O 	0.81236 0.50413 0.31553 -0.35300
O 	O 	0.46816 0.25773 0.29987 -0.37400
O 	O 	0.52489 0.37351 0.35125 -0.34400
O 	O 	0.46069 0.22501 0.33887 -0.34700
O 	O 	0.73625 0.33072 0.29835 -0.37300
O 	O 	0.61389 0.35972 0.32114 -0.71300
H 	H 	0.57022 0.38113 0.31937 0.16300
C 	C 	0.96214 0.14108 0.00489 0.33700
C 	C 	0.10560 0.04151 0.01773 0.31800
Ni	Ni	0.91096 0.94650 0.00282 1.12100
O 	O 	0.89671 0.05800 0.00090 -0.35900
O 	O 	0.13753 0.06039 0.00080 -0.36600
O 	O 	0.01748 0.00597 0.02133 -0.33500
O 	O 	0.91054 0.82534 0.00192 -0.35900
O 	O 	0.04657 0.16417 0.00168 -0.37600
C 	C 	0.31582 0.16967 0.25438 -0.03300
C 	C 	0.25704 0.20074 0.25996 -0.07400
C 	C 	0.29211 0.28823 0.26869 0.13100
C 	C 	0.38364 0.33863 0.27337 -0.03400
C 	C 	0.43897 0.29953 0.27053 -0.06200
C 	C 	0.40685 0.21989 0.25919 0.12700
Br	Br	0.48295 0.17036 0.25262 -0.16400
H 	H 	0.29061 0.10547 0.24661 0.07800
H 	H 	0.40876 0.40237 0.28133 0.07700
Br	Br	0.21512 0.33628 0.27573 -0.18500
C 	C 	0.87001 0.79913 0.30429 -0.02900
C 	C 	0.81976 0.80737 0.28987 -0.06500
C 	C 	0.72471 0.76230 0.29167 0.13300
C 	C 	0.68306 0.70420 0.30687 -0.02800
C 	C 	0.73242 0.67761 0.31821 -0.06300
C 	C 	0.82622 0.73648 0.31880 0.12800
Br	Br	0.89396 0.73789 0.33981 -0.17300
H 	H 	0.94272 0.84058 0.30419 0.08300
H 	H 	0.61030 0.66621 0.30771 0.08700
Br	Br	0.64888 0.76613 0.27253 -0.19100
C 	C 	0.79510 0.20447 0.25124 -0.02600
C 	C 	0.82519 0.14818 0.25930 -0.05900
C 	C 	0.80730 0.12353 0.27806 0.12700
C 	C 	0.75246 0.14798 0.28805 -0.01800
C 	C 	0.72274 0.20481 0.28005 -0.07700
C 	C 	0.74728 0.23607 0.26172 0.13900
Br	Br	0.72392 0.32865 0.25136 -0.18200
H 	H 	0.81039 0.22519 0.23690 0.09200
H 	H 	0.73812 0.12819 0.30246 0.08100
Br	Br	0.86736 0.06900 0.29090 -0.17100
C 	C 	0.70523 0.56645 0.01330 -0.03100
C 	C 	0.76482 0.55764 0.02532 -0.06500
C 	C 	0.85309 0.58558 0.01885 0.13800
C 	C 	0.88311 0.63598 0.00234 -0.02700
H 	H 	0.63465 0.53525 0.01677 0.09000
Br	Br	0.93282 0.55334 0.03129 -0.18700
C 	C 	0.30864 0.09190 0.04445 -0.02900
C 	C 	0.35318 0.18998 0.04405 -0.06000
C 	C 	0.30388 0.23453 0.03933 0.13100
C 	C 	0.21232 0.18096 0.03500 -0.02800
C 	C 	0.17192 0.08405 0.03271 -0.06500
C 	C 	0.21848 0.03909 0.03880 0.14900
Br	Br	0.16120 0.90563 0.03857 -0.20000
H 	H 	0.34403 0.05659 0.04900 0.08400
H 	H 	0.17617 0.21603 0.03080 0.08600
Br	Br	0.36229 0.36735 0.03589 -0.19000
C 	C 	0.84946 0.19861 0.04121 -0.02800
C 	C 	0.80696 0.23549 0.03040 -0.06800
C 	C 	0.83751 0.26507 0.01224 0.13400
C 	C 	0.90465 0.25032 0.00468 -0.02100
C 	C 	0.93987 0.20385 0.01490 -0.07700
C 	C 	0.91841 0.18689 0.03378 0.12900
Br	Br	0.97825 0.14107 0.04930 -0.17800
H 	H 	0.83030 0.18085 0.05553 0.08000
C 	C 	0.87132 0.18409 0.12448 -0.06300
C 	C 	0.81526 0.08766 0.12681 0.02000
C 	C 	0.74454 0.03725 0.11426 0.08600
C 	C 	0.72600 0.08494 0.10056 -0.00300
C 	C 	0.77638 0.18254 0.09948 -0.09000
C 	C 	0.85179 0.23190 0.11100 0.12900
C 	C 	0.81975 0.04415 0.14424 0.06000
N 	N 	0.68835 0.93824 0.11604 -0.03000
H 	H 	0.67011 0.04635 0.09121 0.07200
N 	N 	0.90489 0.33119 0.10992 -0.02500
H 	H 	0.92663 0.22288 0.13395 0.09400
C 	C 	0.89362 0.03174 0.14808 0.04000
C 	C 	0.90634 0.00913 0.16606 0.06500
C 	C 	0.84653 0.99969 0.18019 -0.19400
C 	C 	0.76927 0.00532 0.17602 0.20800
C 	C 	0.75603 0.02693 0.15805 -0.10300
N 	N 	0.95756 0.04551 0.13394 -0.00300
H 	H 	0.96496 0.00307 0.16920 0.06900
N 	N 	0.70718 0.99515 0.19029 -0.05700
H 	H 	0.69837 0.03492 0.15504 0.10800
O 	O 	0.97131 0.36966 0.09828 -0.06500
O 	O 	0.89134 0.38287 0.12156 -0.07300
O 	O 	0.60133 0.90095 0.11607 -0.09100
O 	O 	0.72404 0.88507 0.11699 -0.07600
O 	O 	0.66493 0.91750 0.19948 -0.07400
O 	O 	0.68888 0.06143 0.19332 -0.04800
O 	O 	0.04310 0.09891 0.13703 -0.09900
O 	O 	0.93065 0.00046 0.11839 -0.05000
C 	C 	0.26616 0.03199 0.17159 -0.04200
C 	C 	0.32813 0.12655 0.16867 0.02300
C 	C 	0.33265 0.19391 0.18124 0.06600
C 	C 	0.27242 0.16630 0.19605 0.00100
C 	C 	0.20590 0.07274 0.19806 -0.09700
C 	C 	0.20334 0.00503 0.18591 0.14000
C 	C 	0.37467 0.15577 0.15077 0.03600
N 	N 	0.39450 0.29095 0.17831 -0.01700
H 	H 	0.27510 0.21825 0.20558 0.06300
N 	N 	0.13233 0.91033 0.18707 -0.03500
H 	H 	0.26225 0.98015 0.16188 0.06800
C 	C 	0.45169 0.14855 0.14711 0.06600
C 	C 	0.49391 0.17605 0.12985 0.00300
C 	C 	0.45926 0.20951 0.11623 -0.08900
C 	C 	0.38026 0.21293 0.11966 0.13400
C 	C 	0.33895 0.18699 0.13694 -0.07200
N 	N 	0.48678 0.11282 0.16081 -0.01600
H 	H 	0.55489 0.17358 0.12721 0.06800
N 	N 	0.34199 0.24310 0.10558 -0.02600
H 	H 	0.27839 0.19025 0.13960 0.09400
O 	O 	0.05085 0.88897 0.18265 -0.10900
O 	O 	0.15081 0.84447 0.19038 -0.08600
O 	O 	0.36521 0.34970 0.17720 -0.08100
O 	O 	0.48041 0.32129 0.17776 -0.06400
O 	O 	0.31217 0.19527 0.09039 -0.07100
O 	O 	0.33052 0.31402 0.10855 -0.07500
O 	O 	0.50225 0.04561 0.15663 -0.07100
O 	O 	0.50989 0.15225 0.17696 -0.05700
C 	C 	0.75134 0.64427 0.18362 -0.06800
C 	C 	0.81605 0.63365 0.17379 0.02900
C 	C 	0.89928 0.65896 0.18213 0.07600
C 	C 	0.91773 0.69702 0.19995 0.00500
C 	C 	0.85716 0.71757 0.20901 -0.07700
C 	C 	0.77064 0.68456 0.20130 0.12700
C 	C 	0.79725 0.59838 0.15457 0.03200
N 	N 	0.96618 0.64823 0.17236 0.00700
H 	H 	0.98189 0.71616 0.20625 0.09300
N 	N 	0.70095 0.68707 0.21169 -0.02500
H 	H 	0.68582 0.62110 0.17756 0.09200
C 	C 	0.76188 0.50272 0.15075 0.06700
C 	C 	0.74693 0.47142 0.13241 0.00700
C 	C 	0.76764 0.53456 0.11779 -0.08400
C 	C 	0.80252 0.63011 0.12161 0.13200
C 	C 	0.81578 0.66121 0.13998 -0.06700
N 	N 	0.73949 0.43686 0.16545 -0.01700
H 	H 	0.71935 0.39777 0.12953 0.07300
N 	N 	0.82757 0.69620 0.10688 -0.02400
H 	H 	0.84299 0.73477 0.14289 0.09100
O 	O 	0.66837 0.63501 0.22628 -0.06500
O 	O 	0.66204 0.73128 0.20519 -0.07700
O 	O 	0.00047 0.69441 0.15718 -0.09200
O 	O 	0.00006 0.60094 0.17975 -0.08700
O 	O 	0.79411 0.75142 0.10612 -0.06700
O 	O 	0.88928 0.70643 0.09515 -0.06100
O 	O 	0.65968 0.36369 0.16617 -0.06700
O 	O 	0.80198 0.44303 0.17648 -0.06100
C 	C 	0.15552 0.88558 0.83786 -0.07600
C 	C 	0.22511 0.93039 0.82494 0.04000
C 	C 	0.31363 0.95489 0.82991 0.04600
C 	C 	0.32927 0.92331 0.84668 0.00800
C 	C 	0.25719 0.86630 0.85830 -0.08100
C 	C 	0.17111 0.85351 0.85457 0.13300
C 	C 	0.20272 0.93797 0.80558 -0.00000
N 	N 	0.38739 0.01015 0.81781 0.00700
H 	H 	0.39673 0.93882 0.85018 0.07300
N 	N 	0.09993 0.80912 0.86779 -0.02300
H 	H 	0.08840 0.87176 0.83453 0.09400
C 	C 	0.15485 0.85725 0.79466 0.07400
C 	C 	0.13112 0.86502 0.77656 -0.00100
C 	C 	0.15537 0.95271 0.76904 -0.08500
C 	C 	0.20752 0.03386 0.77971 0.14100
C 	C 	0.22920 0.02574 0.79800 -0.03600
N 	N 	0.12897 0.76699 0.80206 -0.01700
H 	H 	0.09267 0.80246 0.76839 0.08900
N 	N 	0.23632 0.12440 0.77228 -0.02400
H 	H 	0.26709 0.08796 0.80631 0.09300
O 	O 	0.02109 0.74304 0.86259 -0.07000
O 	O 	0.11245 0.83846 0.88480 -0.07800
O 	O 	0.45491 0.08786 0.82371 -0.06200
O 	O 	0.39062 0.97912 0.80147 -0.08400
O 	O 	0.21241 0.17863 0.78045 -0.07500
O 	O 	0.30074 0.15929 0.76014 -0.07400
O 	O 	0.04588 0.70007 0.80089 -0.07100
O 	O 	0.18887 0.75101 0.80951 -0.07100
C 	C 	0.05744 0.33735 0.78139 -0.06300
C 	C 	0.14292 0.38186 0.78952 0.03100
C 	C 	0.21600 0.38467 0.78006 0.07000
C 	C 	0.20153 0.33721 0.76325 0.00400
C 	C 	0.11422 0.28401 0.75609 -0.07100
C 	C 	0.04293 0.28986 0.76455 0.13000
C 	C 	0.15427 0.41899 0.80852 0.02900
N 	N 	0.30429 0.43194 0.78792 -0.01800
H 	H 	0.25774 0.33805 0.75623 0.08300
N 	N 	0.95638 0.24926 0.75601 -0.02700
H 	H 	0.00177 0.33813 0.78830 0.09500
C 	C 	0.17188 0.51061 0.81166 0.07300
C 	C 	0.19254 0.54837 0.82953 -0.00200
C 	C 	0.19701 0.49578 0.84425 -0.07100
C 	C 	0.17428 0.40228 0.84128 0.12900
C 	C 	0.15319 0.36447 0.82343 -0.06700
N 	N 	0.17374 0.56714 0.79656 -0.01500
H 	H 	0.20802 0.61961 0.83183 0.08100
N 	N 	0.17485 0.34630 0.85630 -0.02400
H 	H 	0.13790 0.29329 0.82110 0.09500
O 	O 	0.88684 0.18258 0.76433 -0.06800
O 	O 	0.94485 0.28883 0.74157 -0.07400
O 	O 	0.34683 0.38666 0.79103 -0.06300
O 	O 	0.34444 0.52139 0.79084 -0.06100
O 	O 	0.12343 0.33167 0.87058 -0.07000
O 	O 	0.22239 0.30510 0.85517 -0.06900
O 	O 	0.09943 0.54914 0.78835 -0.06800
O 	O 	0.24996 0.63566 0.79080 -0.05600
C 	C 	0.82044 0.94566 0.80270 -0.05900
C 	C 	0.74097 0.86013 0.80491 0.02400
C 	C 	0.70980 0.79453 0.79042 0.07000
C 	C 	0.75343 0.81861 0.77334 -0.00800
C 	C 	0.82900 0.90710 0.77064 -0.06100
C 	C 	0.86653 0.96839 0.78581 0.09700
C 	C 	0.68558 0.84363 0.82155 0.03000
N 	N 	0.63270 0.70390 0.79295 -0.01800
H 	H 	0.72782 0.76874 0.76210 0.08800
N 	N 	0.95384 0.05008 0.78451 -0.00800
H 	H 	0.84651 0.99436 0.81414 0.08200
C 	C 	0.71486 0.83108 0.83893 0.06300
C 	C 	0.66011 0.81372 0.85445 0.00100
C 	C 	0.57527 0.80612 0.85271 -0.08200
C 	C 	0.54574 0.81789 0.83525 0.12500
C 	C 	0.60216 0.83899 0.81991 -0.06800
N 	N 	0.79943 0.83435 0.84080 -0.01700
H 	H 	0.68287 0.80439 0.86782 0.08100
N 	N 	0.45723 0.80465 0.83288 -0.02400
H 	H 	0.57970 0.84848 0.80652 0.09500
O 	O 	0.97150 0.12455 0.79385 -0.08300
O 	O 	0.01898 0.04529 0.77638 -0.09400
O 	O 	0.56663 0.67244 0.78120 -0.06600
O 	O 	0.63055 0.65101 0.80645 -0.06500
O 	O 	0.38779 0.72865 0.83878 -0.10000
O 	O 	0.44531 0.86074 0.82222 -0.07800
O 	O 	0.85887 0.89197 0.85245 -0.08400
O 	O 	0.81434 0.77511 0.83187 -0.07200
C 	C 	0.71932 0.75585 0.67933 -0.02800
C 	C 	0.72505 0.80071 0.69612 -0.07600
C 	C 	0.64474 0.78401 0.70498 0.13100
C 	C 	0.56226 0.73474 0.69576 -0.03300
C 	C 	0.55809 0.69936 0.67796 -0.06700
C 	C 	0.63610 0.70340 0.67047 0.12800
Br	Br	0.62982 0.63370 0.64887 -0.18200
H 	H 	0.77969 0.76375 0.67287 0.08400
H 	H 	0.50218 0.72814 0.70212 0.08300
Br	Br	0.64520 0.82538 0.72978 -0.19600
C 	C 	0.08861 0.25465 0.64291 -0.02700
C 	C 	0.18246 0.31197 0.64302 -0.06900
C 	C 	0.23395 0.27894 0.65194 0.12900
C 	C 	0.19288 0.20697 0.66484 -0.02700
C 	C 	0.10121 0.16920 0.66885 -0.07100
C 	C 	0.04721 0.18253 0.65590 0.13500
Br	Br	0.92079 0.09573 0.65383 -0.16800
H 	H 	0.04786 0.27063 0.63387 0.08400
H 	H 	0.23374 0.18777 0.67311 0.07700
Br	Br	0.36142 0.33964 0.64859 -0.17500
C 	C 	0.27336 0.81373 0.69731 -0.02300
C 	C 	0.31302 0.84659 0.67995 -0.08300
C 	C 	0.30835 0.92146 0.67202 0.13900
C 	C 	0.24778 0.94739 0.67906 -0.06400
C 	C 	0.19613 0.90295 0.69485 -0.06200
C 	C 	0.21366 0.83991 0.70464 0.12200
Br	Br	0.15897 0.78982 0.72812 -0.19900
H 	H 	0.28198 0.76068 0.70424 0.07300
H 	H 	0.24068 0.00157 0.67222 0.10200
Br	Br	0.38768 0.99209 0.65236 -0.20900
C 	C 	0.37774 0.37551 0.33094 -0.02700
C 	C 	0.37175 0.30142 0.34148 -0.07900
C 	C 	0.30521 0.26290 0.35515 0.13500
C 	C 	0.26874 0.31579 0.36210 -0.03200
C 	C 	0.30005 0.40687 0.35540 -0.06200
C 	C 	0.34480 0.43107 0.33823 0.12700
Br	Br	0.36046 0.53745 0.32458 -0.16800
H 	H 	0.41984 0.39847 0.31873 0.06200
H 	H 	0.22404 0.29037 0.37390 0.08900
Br	Br	0.27507 0.14620 0.36645 -0.16900
C 	C 	0.98488 0.58573 0.37163 -0.01100
C 	C 	0.06367 0.59208 0.36484 -0.07800
C 	C 	0.07272 0.58222 0.34576 0.09100
C 	C 	0.99916 0.55677 0.33395 0.03800
C 	C 	0.91599 0.53826 0.34120 -0.09300
C 	C 	0.91052 0.55683 0.36019 0.14900
Br	Br	0.80022 0.53508 0.37144 -0.24400
H 	H 	0.97912 0.59686 0.38621 0.09700
H 	H 	0.00491 0.54471 0.31943 0.04800
Br	Br	0.18459 0.60345 0.33563 -0.18600
C 	C 	0.47506 0.98760 0.37755 -0.05600
C 	C 	0.49660 0.92767 0.36784 -0.05800
C 	C 	0.57467 0.96626 0.35675 0.10200
C 	C 	0.62618 0.06314 0.35476 0.00700
C 	C 	0.59528 0.12118 0.36190 -0.09100
C 	C 	0.52469 0.08389 0.37488 0.15900
Br	Br	0.49550 0.16231 0.38945 -0.16200
H 	H 	0.41827 0.95913 0.38691 0.06800
H 	H 	0.68418 0.09232 0.34569 0.08000
Br	Br	0.60593 0.88929 0.34218 -0.18000
C 	C 	0.58065 0.58846 0.57529 -0.02600
C 	C 	0.57707 0.51390 0.58520 -0.06900
C 	C 	0.54278 0.49572 0.60323 0.13600
C 	C 	0.50182 0.54400 0.61033 -0.02400
C 	C 	0.49982 0.61471 0.59999 -0.07000
C 	C 	0.54393 0.64022 0.58279 0.13200
Br	Br	0.55436 0.74492 0.56937 -0.17300
H 	H 	0.61229 0.60651 0.56181 0.07700
H 	H 	0.46752 0.52347 0.62351 0.08400
Br	Br	0.55259 0.40610 0.61838 -0.14800
C 	C 	0.88320 0.37256 0.62862 -0.03500
C 	C 	0.86491 0.42993 0.61720 -0.06300
C 	C 	0.90012 0.52419 0.62232 0.12500
C 	C 	0.97069 0.56447 0.63507 -0.02200
C 	C 	0.00490 0.51059 0.64270 -0.08200
C 	C 	0.95014 0.41318 0.64218 0.13100
Br	Br	0.95479 0.33806 0.66172 -0.18600
H 	H 	0.84748 0.29762 0.62671 0.08700
H 	H 	0.00523 0.63913 0.63740 0.07700
Br	Br	0.85005 0.59681 0.61292 -0.19400
C 	C 	0.44911 0.96635 0.57274 -0.05000
C 	C 	0.46258 0.04485 0.58284 -0.05300
C 	C 	0.40333 0.03329 0.59740 0.14300
C 	C 	0.34031 0.94317 0.60324 -0.04700
C 	C 	0.33971 0.86513 0.59541 -0.07500
C 	C 	0.38578 0.87657 0.57864 0.13100
Br	Br	0.35622 0.77258 0.56267 -0.15900
H 	H 	0.48852 0.97506 0.56043 0.08400
H 	H 	0.29709 0.93413 0.61489 0.08900
Br	Br	0.40998 0.13854 0.61010 -0.15300
C 	C 	0.64600 0.50370 0.48053 -0.07000
C 	C 	0.57696 0.52437 0.48340 0.03300
C 	C 	0.55455 0.53679 0.50150 0.06400
C 	C 	0.59645 0.52113 0.51653 0.00500
C 	C 	0.66015 0.49305 0.51367 -0.09300
C 	C 	0.68811 0.48854 0.49560 0.13800
C 	C 	0.52573 0.52860 0.46746 0.02900
N 	N 	0.48734 0.56247 0.50469 -0.01600
H 	H 	0.57629 0.52649 0.53047 0.06800
N 	N 	0.76094 0.47129 0.49254 -0.02700
H 	H 	0.66553 0.49732 0.46660 0.09500
C 	C 	0.56494 0.60464 0.45520 0.06700
C 	C 	0.51702 0.60557 0.43970 -0.00600
C 	C 	0.42965 0.53198 0.43638 -0.08900
C 	C 	0.39143 0.45429 0.44830 0.13100
C 	C 	0.43908 0.45386 0.46398 -0.06700
N 	N 	0.65421 0.68038 0.45828 -0.01900
H 	H 	0.54814 0.66353 0.43021 0.07400
N 	N 	0.30770 0.37300 0.44378 -0.02500
H 	H 	0.40988 0.39410 0.47314 0.09500
O 	O 	0.83522 0.53554 0.48513 -0.07300
O 	O 	0.75050 0.38912 0.49575 -0.06700
O 	O 	0.42488 0.51784 0.51694 -0.06700
O 	O 	0.49376 0.63601 0.49672 -0.05800
O 	O 	0.24324 0.33724 0.45591 -0.07100
O 	O 	0.29881 0.33004 0.42819 -0.07100
O 	O 	0.71433 0.70564 0.44531 -0.06900
O 	O 	0.67359 0.72822 0.47353 -0.06300
C 	C 	0.54428 0.05244 0.48745 -0.06900
C 	C 	0.58821 0.00094 0.48509 0.04300
C 	C 	0.65281 0.00926 0.49808 0.08100
C 	C 	0.67156 0.06756 0.51348 0.00300
C 	C 	0.62676 0.11840 0.51601 -0.07800
C 	C 	0.56322 0.11115 0.50276 0.13300
C 	C 	0.56675 0.93921 0.46883 0.02200
N 	N 	0.69884 0.95783 0.49580 -0.03400
H 	H 	0.71973 0.07178 0.52365 0.08500
N 	N 	0.51883 0.16436 0.50462 -0.02500
H 	H 	0.49530 0.04699 0.47735 0.09600
C 	C 	0.48430 0.85467 0.46784 0.06400
C 	C 	0.45754 0.80546 0.45115 -0.00000
C 	C 	0.51064 0.84100 0.43529 -0.09500
C 	C 	0.59561 0.92211 0.43655 0.13900
C 	C 	0.62368 0.97032 0.45337 -0.09100
N 	N 	0.42527 0.82144 0.48347 -0.01900
H 	H 	0.39372 0.74135 0.45035 0.05900
N 	N 	0.65268 0.95689 0.42070 -0.02700
H 	H 	0.68782 0.03442 0.45416 0.11100
O 	O 	0.55114 0.24440 0.49632 -0.07800
O 	O 	0.43992 0.12703 0.51231 -0.07700
O 	O 	0.78589 0.00179 0.49416 -0.05000
O 	O 	0.65468 0.86733 0.49691 -0.06000
O 	O 	0.63185 0.99426 0.40717 -0.08200
O 	O 	0.72910 0.95832 0.42048 -0.07000
O 	O 	0.34205 0.80129 0.48178 -0.07800
O 	O 	0.45325 0.80646 0.49909 -0.05800
C 	C 	0.04357 0.42268 0.50789 -0.08100
C 	C 	0.09539 0.51993 0.50622 0.03300
C 	C 	0.10054 0.57691 0.52117 0.06600
C 	C 	0.04666 0.53652 0.53677 -0.00600
C 	C 	0.98418 0.44067 0.53711 -0.08100
C 	C 	0.98769 0.38264 0.52326 0.14100
C 	C 	0.13235 0.56122 0.48799 0.03200
N 	N 	0.15545 0.67622 0.52001 -0.01700
H 	H 	0.04700 0.58098 0.54782 0.06500
N 	N 	0.92930 0.28369 0.52402 -0.02500
H 	H 	0.04246 0.37843 0.49671 0.09300
C 	C 	0.20586 0.55667 0.48055 0.06700
C 	C 	0.22869 0.57864 0.46192 0.00100
C 	C 	0.18055 0.60800 0.45081 -0.09100
C 	C 	0.11031 0.61764 0.45854 0.13400
C 	C 	0.08667 0.59435 0.47709 -0.07000
N 	N 	0.25774 0.53030 0.49191 -0.01700
H 	H 	0.28437 0.57363 0.45616 0.06500
N 	N 	0.06234 0.65033 0.44756 -0.02600
H 	H 	0.03060 0.59877 0.48285 0.09600
O 	O 	0.87913 0.23963 0.50990 -0.07400
O 	O 	0.93190 0.23679 0.53818 -0.07800
O 	O 	0.11990 0.72889 0.52242 -0.08000
O 	O 	0.24172 0.71418 0.51757 -0.05200
O 	O 	0.01429 0.60117 0.43361 -0.07500
O 	O 	0.06012 0.72474 0.45252 -0.07300
O 	O 	0.27376 0.46504 0.48650 -0.07400
O 	O 	0.29144 0.57362 0.50740 -0.05100
C 	C 	0.21994 0.48188 0.91241 0.32200
O 	O 	0.43188 0.64361 0.91738 -0.33700
O 	O 	0.50841 0.79886 0.91073 -0.36000
O 	O 	0.20482 0.55157 0.91542 -0.36600
O 	O 	0.20816 0.72716 0.91464 -0.35400
Br	Br	0.63613 0.67306 0.91637 -0.18700
H 	H 	0.03981 0.38644 0.91779 0.07500
Br	Br	0.38890 0.01620 0.91361 -0.16900
C 	C 	0.48745 0.73020 0.92240 0.31500
C 	C 	0.27766 0.79530 0.92345 0.31200
O 	O 	0.35761 0.80487 0.92214 -0.38000
C 	C 	0.02072 0.25639 0.92864 0.12300
C 	C 	0.07276 0.34890 0.92252 -0.02300
C 	C 	0.16693 0.39213 0.92213 -0.07400
C 	C 	0.20860 0.34111 0.92770 0.13100
Br	Br	0.33704 0.40043 0.93006 -0.18700
Br	Br	0.89244 0.20090 0.92975 -0.16500
O 	O 	0.99260 0.04088 0.94100 -0.32200
C 	C 	0.54534 0.74770 0.93851 -0.06800
C 	C 	0.62165 0.73792 0.93693 0.13300
C 	C 	0.15632 0.24733 0.93270 -0.03500
C 	C 	0.06268 0.20561 0.93412 -0.07200
H 	H 	0.18925 0.20919 0.93705 0.07700
C 	C 	0.25905 0.00088 0.94038 0.05000
C 	C 	0.26377 0.85753 0.93595 -0.05500
C 	C 	0.29415 0.95148 0.93116 0.07000
H 	H 	0.27406 0.06889 0.93538 0.07000
C 	C 	0.01553 0.12549 0.94661 0.31800
O 	O 	0.04366 0.91341 0.95290 -0.35600
C 	C 	0.69116 0.78116 0.94970 -0.01700
H 	H 	0.75328 0.78108 0.94727 0.05400
C 	C 	0.21549 0.82217 0.95235 -0.04200
C 	C 	0.12554 0.97971 0.95743 0.28800
Ni	Ni	0.93242 0.92471 0.95876 1.11400
O 	O 	0.14342 0.06688 0.96091 -0.34500
O 	O 	0.83280 0.95528 0.96426 -0.37400
O 	O 	0.01752 0.14218 0.96416 -0.37400
C 	C 	0.53487 0.79176 0.95416 -0.03100
C 	C 	0.68380 0.83038 0.96482 -0.07900
H 	H 	0.47546 0.79845 0.95557 0.07900
C 	C 	0.19874 0.95913 0.95502 -0.11600
C 	C 	0.18782 0.87550 0.96249 0.14400
H 	H 	0.19826 0.75307 0.95707 0.08200
C 	C 	0.76677 0.89695 0.97448 0.32800
O 	O 	0.86124 0.78999 0.97132 -0.34000
C 	C 	0.60361 0.83252 0.96740 0.13600
C 	C 	0.87288 0.76457 0.98828 0.30700
Ni	Ni	0.08285 0.10231 0.98165 1.12600
O 	O 	0.98623 0.97744 0.98159 -0.71900
H 	H 	0.01799 0.94305 0.98425 0.17100
Br	Br	0.65312 0.61546 0.97946 -0.18100
Br	Br	0.12860 0.83013 0.98573 -0.21600
Br	Br	0.58947 0.89639 0.98813 -0.19600
O 	O 	0.78536 0.87426 0.99069 -0.34800
C 	C 	0.82975 0.66532 0.99319 -0.06400
C 	C 	0.73707 0.61708 0.99690 0.13100
H 	H 	0.95204 0.66268 0.99802 0.09700
H 	H 	0.92282 0.26652 0.99026 0.08600
Br	Br	0.78492 0.32090 0.99720 -0.17100
