data_crystal

_cell_length_a 37.17481
_cell_length_b 39.77370
_cell_length_c 25.10378
_cell_angle_alpha 92.59832
_cell_angle_beta  92.38813
_cell_angle_gamma 90.01222

_symmetry_space_group_name_	'P 1'
_symmetry_space_group_name_H-M	'P 1'

loop_
_symmetry_equiv_pos_as_xyz
  x,y,z

loop_
_atom_site_label
_atom_site_type_symbol
_atom_site_fract_x
_atom_site_fract_y
_atom_site_fract_z
_atom_site_charge
Cd	Cd	0.04728 0.92629 0.24462 1.24000
Cd	Cd	0.07233 0.97701 0.36205 1.17400
O 	O 	0.07045 0.86827 0.23925 -0.32500
O 	O 	0.02842 0.88567 0.18370 -0.35600
C 	C 	0.04527 0.86004 0.20356 0.27300
O 	O 	0.01136 0.97108 0.23781 -0.38200
O 	O 	0.04172 0.00618 0.29930 -0.41900
C 	C 	0.01153 0.99698 0.27286 0.27800
C 	C 	0.01320 0.91532 0.34189 0.29500
O 	O 	0.10442 0.95267 0.29312 -0.46600
O 	O 	0.99608 0.90053 0.30105 -0.30900
O 	O 	0.04406 0.92853 0.33241 -0.53700
C 	C 	0.11184 0.96696 0.24926 0.30000
O 	O 	0.09309 0.95588 0.20684 -0.35900
Cd	Cd	0.01116 0.91294 0.97272 1.23800
Cd	Cd	0.01172 0.92338 0.83244 1.16400
O 	O 	0.05632 0.87508 0.01146 -0.32100
O 	O 	0.01724 0.90154 0.06032 -0.35700
C 	C 	0.03954 0.87633 0.05590 0.27100
O 	O 	0.97194 0.95488 0.95961 -0.38400
O 	O 	0.96117 0.94123 0.87073 -0.45100
C 	C 	0.96106 0.96346 0.91126 0.28600
C 	C 	0.06298 0.95594 0.93106 0.31000
O 	O 	0.00399 0.87667 0.88258 -0.47100
O 	O 	0.06236 0.96073 0.98294 -0.30800
O 	O 	0.04451 0.93048 0.91102 -0.54700
C 	C 	0.97363 0.86550 0.89916 0.31500
O 	O 	0.96700 0.87384 0.94862 -0.36900
C 	C 	0.94473 0.72681 0.95249 0.11700
N 	N 	0.92741 0.69767 0.96139 -0.14300
C 	C 	0.91702 0.67648 0.91964 0.12600
N 	N 	0.92190 0.68549 0.86892 -0.14400
C 	C 	0.93809 0.71514 0.85982 0.12700
N 	N 	0.95039 0.73540 0.90169 -0.14200
C 	C 	0.94976 0.73423 0.37594 0.11200
N 	N 	0.95122 0.74325 0.42895 -0.14300
C 	C 	0.94447 0.71999 0.46538 0.12600
N 	N 	0.93424 0.68839 0.44843 -0.14400
C 	C 	0.93038 0.68006 0.39548 0.12800
N 	N 	0.93900 0.70273 0.35929 -0.14100
Cd	Cd	0.80724 0.91418 0.69813 1.24100
Cd	Cd	0.85703 0.96446 0.80350 1.16900
O 	O 	0.76941 0.87292 0.73956 -0.32600
O 	O 	0.76313 0.88267 0.65417 -0.35100
C 	C 	0.75185 0.86648 0.69437 0.26900
O 	O 	0.83599 0.95449 0.65426 -0.37000
O 	O 	0.84958 0.99151 0.72666 -0.43800
C 	C 	0.85721 0.97805 0.67912 0.28900
C 	C 	0.77472 0.96667 0.76021 0.30600
O 	O 	0.87026 0.92165 0.74369 -0.48500
O 	O 	0.75547 0.95813 0.71695 -0.30600
O 	O 	0.80213 0.94733 0.77085 -0.53400
C 	C 	0.87487 0.88954 0.73770 0.31100
O 	O 	0.85371 0.87459 0.70140 -0.35800
Cd	Cd	0.82841 0.93902 0.48953 1.24000
Cd	Cd	0.87212 0.96821 0.37639 1.17500
O 	O 	0.79492 0.88606 0.47472 -0.32600
O 	O 	0.79793 0.91255 0.55315 -0.37000
C 	C 	0.78395 0.88783 0.52315 0.27300
O 	O 	0.86447 0.98117 0.52346 -0.37700
O 	O 	0.86718 0.00678 0.44379 -0.43700
C 	C 	0.88030 0.00230 0.49246 0.29100
C 	C 	0.89399 0.90843 0.45859 0.31200
O 	O 	0.81249 0.95844 0.39253 -0.45900
O 	O 	0.88575 0.89988 0.50632 -0.30600
O 	O 	0.86895 0.92448 0.43266 -0.53500
C 	C 	0.78989 0.97980 0.41345 0.30000
O 	O 	0.78475 0.97691 0.46413 -0.37000
C 	C 	0.57889 0.81823 0.83238 0.11100
N 	N 	0.54807 0.83360 0.81552 -0.14300
C 	C 	0.52063 0.83837 0.84908 0.12700
N 	N 	0.52362 0.82675 0.89905 -0.14500
C 	C 	0.55459 0.81208 0.91672 0.12700
N 	N 	0.58239 0.80828 0.88349 -0.14200
C 	C 	0.60631 0.83159 0.39700 0.11000
N 	N 	0.57909 0.85388 0.40497 -0.14300
C 	C 	0.55492 0.86020 0.36466 0.12700
N 	N 	0.55810 0.84441 0.31607 -0.14400
C 	C 	0.58512 0.82214 0.30773 0.12700
N 	N 	0.60878 0.81521 0.34846 -0.14300
Cd	Cd	0.84710 0.15803 0.29309 1.23900
Cd	Cd	0.87027 0.11993 0.41552 1.17500
O 	O 	0.80663 0.20677 0.29655 -0.32400
O 	O 	0.83343 0.19147 0.22306 -0.35400
C 	C 	0.81194 0.21255 0.24701 0.27100
O 	O 	0.88927 0.11977 0.27146 -0.38300
O 	O 	0.88037 0.08704 0.34274 -0.44200
C 	C 	0.89974 0.09506 0.30232 0.26900
C 	C 	0.89979 0.18941 0.36514 0.30300
O 	O 	0.81544 0.12892 0.37062 -0.45700
O 	O 	0.90009 0.20214 0.31810 -0.31100
O 	O 	0.87400 0.16813 0.37114 -0.54400
C 	C 	0.79945 0.10895 0.33437 0.30200
O 	O 	0.80395 0.11616 0.28487 -0.36400
Cd	Cd	0.83621 0.14967 0.87474 1.23900
Cd	Cd	0.83746 0.09856 0.75420 1.16900
O 	O 	0.79065 0.19438 0.87876 -0.32400
O 	O 	0.82680 0.18478 0.94766 -0.35700
C 	C 	0.80114 0.20318 0.92738 0.27100
O 	O 	0.87395 0.10778 0.89548 -0.38800
O 	O 	0.88579 0.09234 0.80908 -0.44800
C 	C 	0.88477 0.08489 0.85967 0.27800
C 	C 	0.78356 0.09835 0.85386 0.30600
O 	O 	0.84740 0.15569 0.77223 -0.45500
O 	O 	0.78362 0.10911 0.90384 -0.30900
O 	O 	0.80320 0.11554 0.82344 -0.54700
C 	C 	0.87764 0.17071 0.78697 0.30000
O 	O 	0.88254 0.17777 0.83801 -0.37300
C 	C 	0.80051 0.39091 0.88173 0.11100
N 	N 	0.81187 0.42115 0.90356 -0.14200
C 	C 	0.80854 0.44923 0.87491 0.12600
N 	N 	0.79480 0.44677 0.82394 -0.14400
C 	C 	0.78517 0.41638 0.80101 0.12600
N 	N 	0.78776 0.38848 0.83015 -0.14100
C 	C 	0.80686 0.39632 0.32425 0.11200
N 	N 	0.82296 0.42644 0.31774 -0.14200
C 	C 	0.82050 0.45169 0.35568 0.12700
N 	N 	0.80324 0.44633 0.40112 -0.14400
C 	C 	0.78745 0.41616 0.40814 0.12600
N 	N 	0.78902 0.39129 0.36941 -0.14100
Cd	Cd	0.05702 0.08901 0.68029 1.23900
Cd	Cd	0.00280 0.08768 0.79369 1.17300
O 	O 	0.11546 0.11776 0.69253 -0.32500
O 	O 	0.10129 0.08714 0.61996 -0.36100
C 	C 	0.12604 0.10432 0.64774 0.28000
O 	O 	0.01159 0.05397 0.65421 -0.39300
O 	O 	0.97254 0.07501 0.71592 -0.42700
C 	C 	0.98100 0.05186 0.67923 0.29600
C 	C 	0.07324 0.04272 0.76084 0.30600
O 	O 	0.02526 0.13139 0.74633 -0.45900
O 	O 	0.09163 0.03588 0.71859 -0.30700
O 	O 	0.05613 0.07111 0.76112 -0.54600
C 	C 	0.00968 0.14479 0.70491 0.29300
O 	O 	0.02085 0.13417 0.65848 -0.35700
Cd	Cd	0.08233 0.10821 0.46818 1.24000
Cd	Cd	0.01410 0.10517 0.36608 1.16900
O 	O 	0.13162 0.14912 0.46190 -0.32300
O 	O 	0.12938 0.11572 0.52833 -0.35300
C 	C 	0.14837 0.13697 0.50319 0.26700
O 	O 	0.04083 0.07439 0.50004 -0.39500
O 	O 	0.01384 0.06059 0.41834 -0.45500
C 	C 	0.01260 0.06323 0.47077 0.27700
C 	C 	0.02788 0.15791 0.46873 0.29700
O 	O 	0.07641 0.09854 0.36327 -0.45000
O 	O 	0.04571 0.15912 0.51483 -0.29500
O 	O 	0.04114 0.13869 0.43167 -0.55300
C 	C 	0.09530 0.07115 0.36840 0.27600
O 	O 	0.10544 0.06445 0.41717 -0.40400
C 	C 	0.30215 0.06338 0.79090 0.11200
N 	N 	0.32096 0.03499 0.77844 -0.14200
C 	C 	0.33939 0.01872 0.81735 0.12900
N 	N 	0.33935 0.03103 0.86867 -0.14400
C 	C 	0.32122 0.05973 0.88121 0.12500
N 	N 	0.30239 0.07574 0.84238 -0.14200
C 	C 	0.31604 0.06957 0.36603 0.11100
N 	N 	0.30969 0.07883 0.31498 -0.14200
C 	C 	0.33220 0.06854 0.27620 0.12600
N 	N 	0.36097 0.04898 0.28860 -0.14300
C 	C 	0.36708 0.03921 0.33928 0.12600
N 	N 	0.34431 0.04919 0.37782 -0.14200
C 	C 	0.32215 0.07347 0.21965 -0.04900
C 	C 	0.32714 0.10488 0.19654 0.09900
C 	C 	0.32344 0.10697 0.14080 -0.08700
C 	C 	0.31530 0.07826 0.10794 -0.00400
C 	C 	0.30880 0.04717 0.13131 0.07100
C 	C 	0.31173 0.04530 0.18702 -0.05200
N 	N 	0.33599 0.13292 0.22736 -0.20000
H 	H 	0.32789 0.13083 0.12283 0.05300
C 	C 	0.31664 0.08041 0.04918 -0.00900
N 	N 	0.30049 0.01894 0.10057 -0.19200
H 	H 	0.30739 0.02140 0.20495 0.04800
C 	C 	0.35013 0.07866 0.02554 -0.08000
C 	C 	0.35224 0.07562 0.96981 0.09500
C 	C 	0.32020 0.07224 0.93749 -0.04800
C 	C 	0.28677 0.07681 0.96081 -0.06100
C 	C 	0.28472 0.08152 0.01646 0.07500
H 	H 	0.37462 0.07928 0.05060 0.05400
N 	N 	0.38493 0.07670 0.94756 -0.19800
H 	H 	0.26224 0.07548 0.93587 0.05100
N 	N 	0.25213 0.08648 0.03820 -0.19500
H 	H 	0.40856 0.07762 0.97168 0.08300
H 	H 	0.38714 0.07849 0.90645 0.09100
H 	H 	0.22859 0.08623 0.01390 0.08500
H 	H 	0.24990 0.09151 0.07910 0.08900
H 	H 	0.29569 0.99617 0.11829 0.08100
H 	H 	0.29890 0.01913 0.05900 0.09100
H 	H 	0.33853 0.13238 0.26887 0.09100
H 	H 	0.34009 0.15588 0.20984 0.08400
C 	C 	0.18779 0.13336 0.50273 -0.06700
C 	C 	0.20840 0.15992 0.48489 0.00700
C 	C 	0.24049 0.15320 0.45921 -0.06200
C 	C 	0.25237 0.11990 0.45179 0.02900
C 	C 	0.23441 0.09379 0.47639 0.00100
C 	C 	0.20280 0.10093 0.50341 -0.01900
C 	C 	0.24627 0.06047 0.46923 -0.04200
C 	C 	0.27386 0.05278 0.43456 -0.03000
C 	C 	0.29004 0.07832 0.40703 -0.00700
C 	C 	0.28017 0.11202 0.41709 -0.05300
H 	H 	0.19787 0.18532 0.48641 0.03500
H 	H 	0.25489 0.17365 0.44246 0.04500
H 	H 	0.18768 0.08052 0.51901 0.04200
H 	H 	0.23314 0.04033 0.48873 0.03400
H 	H 	0.28177 0.02678 0.42763 0.04000
H 	H 	0.29326 0.13184 0.39670 0.04600
C 	C 	0.27879 0.07891 0.74980 -0.00700
C 	C 	0.27276 0.11381 0.75253 -0.02800
C 	C 	0.24510 0.12776 0.72126 -0.04000
C 	C 	0.22279 0.10687 0.68764 0.00400
C 	C 	0.23094 0.07227 0.68085 0.03000
C 	C 	0.25936 0.05852 0.71141 -0.05200
C 	C 	0.20819 0.05134 0.64791 -0.06200
C 	C 	0.17498 0.06345 0.62883 0.00700
C 	C 	0.16452 0.09662 0.64225 -0.05900
C 	C 	0.19023 0.11915 0.66590 -0.01400
H 	H 	0.28863 0.12996 0.78038 0.04200
H 	H 	0.23979 0.15452 0.72546 0.04000
H 	H 	0.26452 0.03168 0.70822 0.05000
H 	H 	0.21500 0.02512 0.64024 0.04300
H 	H 	0.15619 0.04625 0.60773 0.03600
H 	H 	0.18300 0.14533 0.67333 0.04500
C 	C 	0.77977 0.41286 0.74247 -0.04900
C 	C 	0.74717 0.40022 0.71802 0.09900
C 	C 	0.74351 0.39720 0.66200 -0.08700
C 	C 	0.77136 0.40742 0.63028 -0.00600
C 	C 	0.80356 0.42085 0.65482 0.07100
C 	C 	0.80762 0.42290 0.71064 -0.05300
N 	N 	0.71909 0.39168 0.74781 -0.19900
H 	H 	0.71878 0.38719 0.64305 0.05300
C 	C 	0.76651 0.40416 0.57137 -0.00600
N 	N 	0.83054 0.43207 0.62508 -0.19400
H 	H 	0.83251 0.43264 0.72948 0.04800
C 	C 	0.74945 0.43018 0.54426 -0.08600
C 	C 	0.75226 0.43225 0.48887 0.10000
C 	C 	0.77392 0.40875 0.46090 -0.05000
C 	C 	0.78733 0.38058 0.48696 -0.05500
C 	C 	0.78333 0.37781 0.54197 0.07100
H 	H 	0.73499 0.44947 0.56652 0.05300
N 	N 	0.73377 0.45643 0.46271 -0.19900
H 	H 	0.80250 0.36166 0.46503 0.05200
N 	N 	0.79637 0.35028 0.56651 -0.19400
H 	H 	0.71908 0.47461 0.48388 0.08400
H 	H 	0.73231 0.45637 0.42107 0.09100
H 	H 	0.80992 0.33149 0.54491 0.08400
H 	H 	0.79219 0.34675 0.60675 0.08900
H 	H 	0.85444 0.44136 0.64362 0.08300
H 	H 	0.82791 0.43234 0.58356 0.09000
H 	H 	0.72000 0.39559 0.78923 0.09100
H 	H 	0.69545 0.38173 0.72938 0.08300
C 	C 	0.94403 0.14741 0.68394 -0.04500
C 	C 	0.97486 0.16196 0.70964 -0.10700
C 	C 	0.97092 0.18851 0.74819 0.09700
C 	C 	0.93681 0.19526 0.76797 -0.04500
C 	C 	0.90695 0.17570 0.74972 -0.10900
C 	C 	0.90973 0.15516 0.70248 0.08300
N 	N 	0.87992 0.14499 0.67298 -0.21700
H 	H 	0.94676 0.12939 0.65064 0.05100
H 	H 	0.93403 0.21397 0.80030 0.05100
N 	N 	0.99978 0.20723 0.76670 -0.19700
H 	H 	0.85528 0.15707 0.67779 0.05900
H 	H 	0.88207 0.12763 0.64075 0.05100
H 	H 	0.02491 0.20414 0.75002 0.08600
H 	H 	0.99696 0.22603 0.79669 0.08200
C 	C 	0.79489 0.23774 0.94793 -0.06500
C 	C 	0.75957 0.25023 0.94677 0.00800
C 	C 	0.75329 0.28461 0.94158 -0.06200
C 	C 	0.78235 0.30671 0.93758 0.03000
C 	C 	0.81791 0.29489 0.94604 0.00400
C 	C 	0.82392 0.26044 0.95275 -0.01600
C 	C 	0.84701 0.31700 0.94210 -0.04000
C 	C 	0.84106 0.34953 0.92477 -0.02700
C 	C 	0.80600 0.36026 0.91149 -0.00700
C 	C 	0.77657 0.33948 0.92048 -0.05200
H 	H 	0.73696 0.23297 0.94508 0.03500
H 	H 	0.72586 0.29364 0.93730 0.04500
H 	H 	0.85125 0.25090 0.95556 0.04300
H 	H 	0.87435 0.30850 0.94990 0.04000
H 	H 	0.86384 0.36577 0.91896 0.04200
H 	H 	0.74942 0.34811 0.91130 0.04500
C 	C 	0.96376 0.17130 0.48052 -0.05400
C 	C 	0.99637 0.17899 0.45769 -0.12400
C 	C 	0.99609 0.19989 0.41372 0.09700
C 	C 	0.96347 0.20614 0.38602 -0.05600
C 	C 	0.93115 0.19304 0.40343 -0.12700
C 	C 	0.93088 0.17956 0.45469 0.05600
N 	N 	0.89971 0.17679 0.48057 -0.22700
H 	H 	0.96392 0.15773 0.51704 0.04200
H 	H 	0.96351 0.21976 0.34958 0.05200
N 	N 	0.02721 0.21311 0.39715 -0.20800
H 	H 	0.89956 0.16550 0.51736 0.05100
H 	H 	0.87610 0.18825 0.46661 0.05900
H 	H 	0.05148 0.21036 0.41902 0.09300
H 	H 	0.02713 0.22741 0.36322 0.07700
C 	C 	0.81309 0.36775 0.28652 -0.00700
C 	C 	0.84846 0.35811 0.27558 -0.02700
C 	C 	0.85524 0.32627 0.25229 -0.04000
C 	C 	0.82670 0.30373 0.24019 0.00500
C 	C 	0.79083 0.31479 0.24560 0.03000
C 	C 	0.78420 0.34699 0.26829 -0.05200
C 	C 	0.76235 0.29217 0.23380 -0.06000
C 	C 	0.76949 0.25793 0.22473 0.00800
C 	C 	0.80508 0.24616 0.22737 -0.06300
C 	C 	0.83354 0.26944 0.22915 -0.01500
H 	H 	0.87086 0.37441 0.28825 0.04300
H 	H 	0.88280 0.31844 0.24669 0.04200
H 	H 	0.75680 0.35491 0.27526 0.04800
H 	H 	0.73469 0.30063 0.23548 0.04600
H 	H 	0.74731 0.24018 0.22099 0.03300
H 	H 	0.86109 0.26044 0.22893 0.04700
C 	C 	0.39467 0.01354 0.35023 -0.04800
C 	C 	0.42263 0.01930 0.38974 0.10200
C 	C 	0.44809 0.99388 0.39899 -0.09100
C 	C 	0.44737 0.96388 0.36740 -0.00500
C 	C 	0.41925 0.95802 0.32830 0.07000
C 	C 	0.39306 0.98286 0.32040 -0.05700
N 	N 	0.42601 0.04943 0.41740 -0.20000
H 	H 	0.46960 0.99817 0.42906 0.05300
C 	C 	0.47774 0.94002 0.37254 -0.00600
N 	N 	0.41733 0.92873 0.29808 -0.19400
H 	H 	0.37138 0.97837 0.29065 0.04800
C 	C 	0.47469 0.91283 0.40575 -0.08700
C 	C 	0.49989 0.88651 0.40449 0.09800
C 	C 	0.52937 0.88825 0.37070 -0.05100
C 	C 	0.53363 0.91655 0.34021 -0.05300
C 	C 	0.50807 0.94246 0.34065 0.07000
H 	H 	0.45169 0.91135 0.43074 0.05300
N 	N 	0.49504 0.85938 0.43456 -0.20000
H 	H 	0.55665 0.91811 0.31524 0.04800
N 	N 	0.51262 0.96940 0.31002 -0.19400
H 	H 	0.47333 0.85851 0.45962 0.08300
H 	H 	0.51233 0.83873 0.43294 0.09200
H 	H 	0.53477 0.97065 0.28588 0.08300
H 	H 	0.49462 0.98953 0.31034 0.08800
H 	H 	0.39670 0.92485 0.26887 0.08200
H 	H 	0.43597 0.90943 0.30345 0.08800
H 	H 	0.40990 0.06997 0.40793 0.09200
H 	H 	0.44603 0.05300 0.44762 0.08500
C 	C 	0.49183 0.86244 0.83603 -0.05100
C 	C 	0.46626 0.85573 0.79346 0.09800
C 	C 	0.43976 0.87986 0.78195 -0.08700
C 	C 	0.43807 0.91011 0.81273 -0.00600
C 	C 	0.46347 0.91662 0.85560 0.07000
C 	C 	0.49021 0.89277 0.86652 -0.05300
N 	N 	0.46644 0.82603 0.76435 -0.20000
H 	H 	0.42010 0.87489 0.74941 0.05200
C 	C 	0.40867 0.93417 0.80130 -0.00600
N 	N 	0.46223 0.94558 0.88653 -0.19400
H 	H 	0.50991 0.89785 0.89899 0.04700
C 	C 	0.37599 0.93073 0.82642 -0.08700
C 	C 	0.35098 0.95716 0.82749 0.10000
C 	C 	0.35940 0.98774 0.80412 -0.05400
C 	C 	0.39018 0.98975 0.77399 -0.05800
C 	C 	0.41482 0.96300 0.77187 0.07000
H 	H 	0.37065 0.90798 0.84700 0.05300
N 	N 	0.31898 0.95302 0.85075 -0.19900
H 	H 	0.39584 0.01274 0.75423 0.05100
N 	N 	0.44460 0.96541 0.74257 -0.19400
H 	H 	0.31350 0.93084 0.86971 0.08300
H 	H 	0.29872 0.97114 0.84831 0.09000
H 	H 	0.44957 0.98724 0.72238 0.08200
H 	H 	0.46250 0.94534 0.73827 0.08700
H 	H 	0.48124 0.95017 0.91789 0.08200
H 	H 	0.44243 0.96372 0.88017 0.08900
H 	H 	0.48441 0.80680 0.77372 0.09100
H 	H 	0.44783 0.82159 0.73243 0.08200
C 	C 	0.56024 0.80630 0.97436 -0.05500
C 	C 	0.57736 0.77684 0.99259 0.09600
C 	C 	0.58607 0.77445 0.04736 -0.08400
C 	C 	0.57495 0.79935 0.08448 -0.00500
C 	C 	0.55587 0.82779 0.06651 0.06900
C 	C 	0.54947 0.83131 0.01160 -0.04400
N 	N 	0.58398 0.75029 0.95836 -0.19900
H 	H 	0.60032 0.75253 0.06132 0.05200
C 	C 	0.58415 0.79593 0.14204 -0.00600
N 	N 	0.54367 0.85180 0.10168 -0.19400
H 	H 	0.53621 0.85379 0.99778 0.04500
C 	C 	0.61353 0.81411 0.16529 -0.08600
C 	C 	0.61649 0.82061 0.22078 0.09900
C 	C 	0.59011 0.80756 0.25351 -0.05100
C 	C 	0.56373 0.78548 0.23073 -0.05300
C 	C 	0.56034 0.77964 0.17513 0.07000
H 	H 	0.63265 0.82534 0.13986 0.05400
N 	N 	0.64394 0.84025 0.24202 -0.20000
H 	H 	0.54437 0.77448 0.25604 0.04700
N 	N 	0.53364 0.75918 0.15378 -0.19400
H 	H 	0.66270 0.85040 0.21733 0.08400
H 	H 	0.64735 0.84523 0.28306 0.09400
H 	H 	0.51549 0.74807 0.17841 0.08300
H 	H 	0.53116 0.75344 0.11281 0.08700
H 	H 	0.53023 0.87300 0.08791 0.08300
H 	H 	0.54668 0.84944 0.14286 0.09000
H 	H 	0.57284 0.74896 0.91946 0.09000
H 	H 	0.59843 0.72951 0.97161 0.08200
C 	C 	0.79184 0.04757 0.31436 -0.04300
C 	C 	0.78547 0.07590 0.34802 -0.11600
C 	C 	0.77029 0.07154 0.39796 0.09100
C 	C 	0.76889 0.03922 0.41785 -0.04500
C 	C 	0.78004 0.01115 0.38682 -0.11000
C 	C 	0.78712 0.01510 0.33251 0.08100
N 	N 	0.78756 0.98812 0.29735 -0.21100
H 	H 	0.80095 0.05073 0.27442 0.05000
H 	H 	0.76002 0.03609 0.45792 0.04900
N 	N 	0.75633 0.09807 0.42621 -0.20400
H 	H 	0.79531 0.99092 0.25825 0.06800
H 	H 	0.77728 0.96486 0.30716 0.08500
H 	H 	0.75260 0.12138 0.40926 0.09000
H 	H 	0.74692 0.09499 0.46435 0.07400
C 	C 	0.94481 0.00325 0.52312 -0.04900
C 	C 	0.91306 0.02112 0.51174 -0.09300
C 	C 	0.91540 0.05603 0.50453 0.07400
C 	C 	0.94900 0.07050 0.49547 -0.05300
C 	C 	0.98038 0.05090 0.49682 -0.10100
C 	C 	0.97868 0.01773 0.51503 0.12100
N 	N 	0.00912 0.99947 0.52354 -0.20900
H 	H 	0.94316 0.97728 0.53414 0.05200
H 	H 	0.95044 0.09655 0.48478 -0.00700
N 	N 	0.88567 0.07575 0.50725 -0.20900
H 	H 	0.00754 0.97469 0.53545 0.07400
H 	H 	0.03459 0.00989 0.51959 0.07900
H 	H 	0.86052 0.06551 0.51428 0.06300
H 	H 	0.88786 0.10186 0.50554 -0.02300
C 	C 	0.74824 0.87420 0.53338 -0.06000
C 	C 	0.72079 0.89651 0.54845 0.01200
C 	C 	0.68490 0.88919 0.53351 -0.06300
C 	C 	0.67631 0.85978 0.50264 0.03100
C 	C 	0.70315 0.83524 0.49391 0.00300
C 	C 	0.73886 0.84206 0.51163 -0.01300
C 	C 	0.69482 0.80615 0.46206 -0.04000
C 	C 	0.66167 0.80344 0.43374 -0.03000
C 	C 	0.63639 0.82966 0.43748 -0.00700
C 	C 	0.64267 0.85643 0.47539 -0.05400
H 	H 	0.72752 0.92080 0.56754 0.03900
H 	H 	0.66421 0.90751 0.54263 0.04500
H 	H 	0.75993 0.82413 0.50229 0.04200
H 	H 	0.71476 0.78653 0.45673 0.04000
H 	H 	0.65633 0.78168 0.40706 0.04300
H 	H 	0.62264 0.87599 0.48045 0.05100
C 	C 	0.92109 0.97585 0.65660 -0.05000
C 	C 	0.88769 0.99210 0.65182 -0.10100
C 	C 	0.88680 0.02619 0.63848 0.09800
C 	C 	0.91887 0.04497 0.64080 -0.04900
C 	C 	0.95177 0.03001 0.65564 -0.09000
C 	C 	0.95331 0.99461 0.65948 0.08400
N 	N 	0.98531 0.97866 0.66723 -0.19900
H 	H 	0.92190 0.94913 0.66350 0.03700
H 	H 	0.91794 0.07167 0.63398 0.03800
N 	N 	0.85506 0.04123 0.62526 -0.20700
H 	H 	0.98609 0.95273 0.67234 0.05200
H 	H 	0.00970 0.99154 0.66630 0.07100
H 	H 	0.83134 0.02720 0.61967 0.08000
H 	H 	0.85410 0.06695 0.61846 0.04300
C 	C 	0.77508 0.00495 0.84104 -0.07400
C 	C 	0.77241 0.00083 0.78521 -0.13200
C 	C 	0.76590 0.02931 0.75411 0.08800
C 	C 	0.76037 0.06072 0.77985 -0.07600
C 	C 	0.76816 0.06551 0.83472 -0.13200
C 	C 	0.77137 0.03695 0.86624 0.10000
N 	N 	0.76832 0.03975 0.91998 -0.20300
H 	H 	0.77870 0.98308 0.86497 0.01400
H 	H 	0.75527 0.08246 0.75608 0.01100
N 	N 	0.76814 0.02727 0.70009 -0.20600
H 	H 	0.77446 0.01933 0.94349 0.07500
H 	H 	0.75606 0.06068 0.93798 0.10400
H 	H 	0.78128 0.00732 0.68084 0.09200
H 	H 	0.76019 0.04757 0.67735 0.05800
C 	C 	0.71527 0.85243 0.69399 -0.06300
C 	C 	0.68600 0.87200 0.67655 0.00800
C 	C 	0.65153 0.86598 0.69436 -0.06200
C 	C 	0.64619 0.84073 0.73053 0.03000
C 	C 	0.67477 0.81881 0.74372 0.00300
C 	C 	0.70899 0.82422 0.72401 -0.01600
C 	C 	0.66958 0.79371 0.78017 -0.04100
C 	C 	0.63741 0.79228 0.80691 -0.02900
C 	C 	0.60998 0.81585 0.79733 -0.00700
C 	C 	0.61374 0.83892 0.75700 -0.05300
H 	H 	0.69048 0.89377 0.65333 0.04000
H 	H 	0.62954 0.88233 0.68269 0.04600
H 	H 	0.73144 0.80851 0.73624 0.04100
H 	H 	0.69097 0.77613 0.78942 0.03900
H 	H 	0.63422 0.77342 0.83618 0.04100
H 	H 	0.59236 0.85668 0.74844 0.05100
C 	C 	0.84023 0.48341 0.35070 -0.05000
C 	C 	0.82924 0.50691 0.31251 0.09900
C 	C 	0.84673 0.53822 0.31260 -0.08600
C 	C 	0.87398 0.54684 0.35111 -0.00600
C 	C 	0.88575 0.52292 0.38811 0.07100
C 	C 	0.86893 0.49130 0.38711 -0.05300
N 	N 	0.80137 0.50004 0.27677 -0.20000
H 	H 	0.83806 0.55651 0.28401 0.05400
C 	C 	0.88685 0.58211 0.35632 -0.00500
N 	N 	0.91279 0.53025 0.42503 -0.19400
H 	H 	0.87763 0.47304 0.41574 0.04900
C 	C 	0.86640 0.60595 0.38455 -0.08600
C 	C 	0.87893 0.63902 0.39395 0.10100
C 	C 	0.91355 0.64777 0.37749 -0.05100
C 	C 	0.93317 0.62449 0.34676 -0.05300
C 	C 	0.91986 0.59178 0.33522 0.06900
H 	H 	0.84059 0.59873 0.39915 0.05400
N 	N 	0.85731 0.66241 0.41754 -0.19900
H 	H 	0.95920 0.63158 0.33280 0.04800
N 	N 	0.93902 0.56976 0.30460 -0.19400
H 	H 	0.83256 0.65537 0.43192 0.08300
H 	H 	0.86392 0.68796 0.41929 0.09100
H 	H 	0.96374 0.57690 0.29020 0.08400
H 	H 	0.92934 0.54565 0.29393 0.08800
H 	H 	0.92102 0.51251 0.45247 0.08300
H 	H 	0.92609 0.55341 0.42675 0.08900
H 	H 	0.78670 0.47768 0.27700 0.09200
H 	H 	0.79372 0.51748 0.24854 0.08400
C 	C 	0.89879 0.64451 0.92897 -0.05000
C 	C 	0.91659 0.61852 0.95657 0.09900
C 	C 	0.89955 0.58716 0.95927 -0.08700
C 	C 	0.86674 0.58049 0.93120 -0.00600
C 	C 	0.84807 0.60696 0.90632 0.07000
C 	C 	0.86417 0.63883 0.90602 -0.05300
N 	N 	0.95052 0.62290 0.97834 -0.20000
H 	H 	0.91329 0.56700 0.97946 0.05300
C 	C 	0.85527 0.54508 0.92086 -0.00500
N 	N 	0.81504 0.60177 0.88189 -0.19400
H 	H 	0.85020 0.65902 0.88619 0.04800
C 	C 	0.82949 0.53139 0.95295 -0.08700
C 	C 	0.81411 0.49968 0.93943 0.09900
C 	C 	0.82638 0.48072 0.89460 -0.05000
C 	C 	0.85423 0.49337 0.86524 -0.05300
C 	C 	0.86838 0.52560 0.87722 0.07100
H 	H 	0.82004 0.54615 0.98694 0.05200
N 	N 	0.78705 0.48816 0.96866 -0.20200
H 	H 	0.86409 0.47847 0.83164 0.04800
N 	N 	0.89411 0.53787 0.84623 -0.19400
H 	H 	0.77848 0.50226 0.00191 0.08600
H 	H 	0.77386 0.46549 0.95838 0.09200
H 	H 	0.90348 0.52327 0.81403 0.08300
H 	H 	0.90504 0.56188 0.85351 0.08900
H 	H 	0.80185 0.62127 0.86252 0.08300
H 	H 	0.80184 0.57865 0.88261 0.08800
H 	H 	0.96553 0.64447 0.97248 0.09300
H 	H 	0.96285 0.60388 0.99993 0.08400
C 	C 	0.94400 0.72428 0.80447 -0.05100
C 	C 	0.92628 0.75218 0.78181 0.10200
C 	C 	0.92955 0.75762 0.72723 -0.08900
C 	C 	0.94705 0.73402 0.69411 -0.00600
C 	C 	0.96523 0.70649 0.71695 0.07000
C 	C 	0.96438 0.70256 0.77217 -0.05300
N 	N 	0.90477 0.77277 0.81131 -0.20000
H 	H 	0.91630 0.77905 0.70981 0.05700
C 	C 	0.94348 0.73669 0.63525 -0.00600
N 	N 	0.98283 0.68335 0.68607 -0.19400
H 	H 	0.97826 0.68150 0.78971 0.04800
C 	C 	0.97286 0.74832 0.60788 -0.08800
C 	C 	0.97396 0.74350 0.55208 0.10300
C 	C 	0.94335 0.72996 0.52283 -0.05100
C 	C 	0.91236 0.72225 0.54998 -0.05200
C 	C 	0.91246 0.72438 0.60594 0.07100
H 	H 	0.99618 0.75858 0.63041 0.05100
N 	N 	0.00484 0.75052 0.52747 -0.20500
H 	H 	0.88860 0.71285 0.52751 0.04800
N 	N 	0.88304 0.71385 0.63117 -0.19400
H 	H 	0.02662 0.76174 0.54919 0.07600
H 	H 	0.00831 0.74359 0.48748 0.08800
H 	H 	0.86034 0.70479 0.60908 0.08400
H 	H 	0.88237 0.71430 0.67269 0.09000
H 	H 	0.99633 0.66328 0.70344 0.08300
H 	H 	0.98301 0.68469 0.64468 0.08900
H 	H 	0.90116 0.76926 0.85165 0.09600
H 	H 	0.89059 0.79228 0.79353 0.09400
C 	C 	0.91387 0.00604 0.93141 -0.06200
C 	C 	0.94449 0.99674 0.90339 -0.11600
C 	C 	0.95640 0.01743 0.86316 0.04500
C 	C 	0.93725 0.04670 0.85136 -0.04700
C 	C 	0.90576 0.05541 0.87765 -0.12600
C 	C 	0.89339 0.03437 0.91737 0.07400
N 	N 	0.86119 0.04002 0.94000 -0.20500
H 	H 	0.90454 0.98997 0.96178 0.03400
H 	H 	0.94648 0.06243 0.82059 -0.04800
N 	N 	0.98599 0.00915 0.83529 -0.18600
H 	H 	0.85305 0.02514 0.97061 0.07300
H 	H 	0.84304 0.05774 0.92558 0.08300
H 	H 	0.99272 0.02285 0.80257 -0.00200
H 	H 	0.00311 0.98971 0.84655 -0.00000
C 	C 	0.90866 0.86567 0.87290 -0.04000
C 	C 	0.94388 0.85637 0.86061 -0.12000
C 	C 	0.95111 0.84644 0.80740 0.08000
C 	C 	0.92658 0.85491 0.76627 -0.05200
C 	C 	0.89406 0.87064 0.77852 -0.12600
C 	C 	0.88352 0.87294 0.83197 0.07700
N 	N 	0.84961 0.88252 0.84406 -0.21300
H 	H 	0.90167 0.86981 0.91417 0.04500
H 	H 	0.93335 0.85045 0.72495 0.03400
N 	N 	0.98099 0.82829 0.79597 -0.20600
H 	H 	0.84248 0.88565 0.88382 0.06300
H 	H 	0.82967 0.88562 0.81415 0.06100
H 	H 	0.99752 0.81880 0.82642 0.09000
H 	H 	0.98672 0.82178 0.75642 0.07100
C 	C 	0.08964 0.96767 0.84608 -0.07000
C 	C 	0.07895 0.98022 0.89598 -0.13200
C 	C 	0.07250 0.01519 0.90329 0.10600
C 	C 	0.06971 0.03515 0.85846 -0.05700
C 	C 	0.07430 0.02084 0.80695 -0.12700
C 	C 	0.08290 0.98621 0.80068 0.07700
N 	N 	0.08106 0.96994 0.75181 -0.20700
H 	H 	0.09718 0.94140 0.84124 0.01500
H 	H 	0.06456 0.06190 0.86384 -0.00200
N 	N 	0.07070 0.02995 0.95295 -0.20200
H 	H 	0.09075 0.94537 0.74697 0.05100
H 	H 	0.06628 0.97982 0.71994 0.07000
H 	H 	0.08142 0.01819 0.98633 0.10400
H 	H 	0.06215 0.05488 0.95793 0.07100
C 	C 	0.02966 0.84398 0.07771 -0.06400
C 	C 	0.05398 0.81705 0.07352 0.00100
C 	C 	0.04129 0.78483 0.05775 -0.05000
C 	C 	0.00427 0.77962 0.04717 -0.00200
C 	C 	0.97971 0.80502 0.06266 0.02400
C 	C 	0.99290 0.83656 0.08162 -0.01400
C 	C 	0.94276 0.80037 0.05099 -0.05000
C 	C 	0.93084 0.77309 0.01786 -0.01000
C 	C 	0.95567 0.74986 0.99742 -0.02800
C 	C 	0.99197 0.75182 0.01500 -0.01500
H 	H 	0.08269 0.82189 0.07555 0.03800
H 	H 	0.06034 0.76487 0.04930 0.04000
H 	H 	0.97418 0.85665 0.09108 0.05100
H 	H 	0.92356 0.81914 0.06421 0.04300
H 	H 	0.90260 0.77106 0.00563 0.03700
H 	H 	0.01095 0.73327 0.00025 0.03100
C 	C 	0.98882 0.05554 0.26461 -0.06400
C 	C 	0.98128 0.02135 0.27079 -0.08200
C 	C 	0.94537 0.01133 0.27906 0.07700
C 	C 	0.91833 0.03591 0.28318 -0.05100
C 	C 	0.92674 0.07037 0.28309 -0.09500
C 	C 	0.96226 0.08030 0.27234 0.03300
N 	N 	0.97140 0.11338 0.27077 -0.22400
H 	H 	0.01582 0.06308 0.25585 0.01400
H 	H 	0.89091 0.02823 0.28969 0.01200
N 	N 	0.93678 0.97844 0.28470 -0.19700
H 	H 	0.99731 0.12026 0.26069 0.02700
H 	H 	0.95373 0.13255 0.28183 0.05900
H 	H 	0.95636 0.95974 0.28610 0.08200
H 	H 	0.91006 0.97135 0.28935 -0.00900
C 	C 	0.98872 0.88785 0.41777 -0.03600
C 	C 	0.99704 0.91804 0.39406 -0.12500
C 	C 	0.97679 0.94692 0.40697 0.07000
C 	C 	0.94347 0.94335 0.42938 -0.04700
C 	C 	0.93175 0.91194 0.44464 -0.13800
C 	C 	0.95529 0.88397 0.44110 0.11200
N 	N 	0.94531 0.85316 0.45687 -0.20400
H 	H 	0.00576 0.86604 0.41125 0.03300
H 	H 	0.92600 0.96487 0.43291 -0.04500
N 	N 	0.98818 0.97790 0.39479 -0.18000
H 	H 	0.96275 0.83264 0.45311 0.09000
H 	H 	0.92020 0.84909 0.47246 0.10100
H 	H 	0.01472 0.98192 0.38555 -0.03200
H 	H 	0.97113 0.99871 0.39824 0.06200
C 	C 	0.09742 0.05519 0.27152 -0.04900
C 	C 	0.11444 0.05621 0.32248 -0.12100
C 	C 	0.14579 0.03659 0.33037 0.08100
C 	C 	0.15181 0.00913 0.29468 -0.05700
C 	C 	0.12633 0.00152 0.25305 -0.12000
C 	C 	0.10423 0.02806 0.23552 0.11200
N 	N 	0.08883 0.02703 0.18552 -0.19900
H 	H 	0.07761 0.07401 0.26121 0.03200
H 	H 	0.17309 0.99135 0.30356 0.03500
N 	N 	0.17084 0.04516 0.36957 -0.19900
H 	H 	0.07046 0.04551 0.17409 0.08600
H 	H 	0.09667 0.00900 0.15677 0.10600
H 	H 	0.16969 0.06836 0.39068 0.09700
H 	H 	0.19317 0.02976 0.37654 0.07900
C 	C 	0.95956 0.75854 0.33662 -0.00900
C 	C 	0.93934 0.78800 0.33090 -0.03000
C 	C 	0.94842 0.81111 0.29331 -0.03600
C 	C 	0.97862 0.80551 0.26234 -0.00200
C 	C 	0.99906 0.77583 0.26787 0.04000
C 	C 	0.98887 0.75205 0.30415 -0.04600
C 	C 	0.03078 0.77154 0.23978 -0.07600
C 	C 	0.04418 0.79808 0.21156 0.01500
C 	C 	0.02531 0.82860 0.20964 -0.07800
C 	C 	0.99063 0.83057 0.22975 -0.00100
H 	H 	0.91654 0.79300 0.35558 0.04000
H 	H 	0.93274 0.83393 0.28968 0.03900
H 	H 	0.00441 0.72918 0.30853 0.03800
H 	H 	0.04623 0.74853 0.24257 0.04600
H 	H 	0.07040 0.79578 0.19446 0.03000
H 	H 	0.97494 0.85333 0.22534 0.04700
