data_crystal

_cell_length_a 39.58134
_cell_length_b 38.23817
_cell_length_c 20.18367
_cell_angle_alpha 91.58328
_cell_angle_beta  90.30512
_cell_angle_gamma 90.02426

_symmetry_space_group_name_	'P 1'
_symmetry_space_group_name_H-M	'P 1'

loop_
_symmetry_equiv_pos_as_xyz
  x,y,z

loop_
_atom_site_label
_atom_site_type_symbol
_atom_site_fract_x
_atom_site_fract_y
_atom_site_fract_z
_atom_site_charge
Cd	Cd	0.89952 0.88405 0.22996 1.24300
Cd	Cd	0.88779 0.92295 0.38755 1.16800
O 	O 	0.88298 0.82239 0.21760 -0.31700
O 	O 	0.90442 0.85030 0.13458 -0.34800
C 	C 	0.89512 0.82031 0.15801 0.28000
O 	O 	0.90909 0.94107 0.21464 -0.36700
O 	O 	0.92348 0.95299 0.32333 -0.45900
C 	C 	0.91863 0.96354 0.26216 0.27100
C 	C 	0.83385 0.90429 0.27002 0.30500
O 	O 	0.91950 0.87458 0.35340 -0.43500
O 	O 	0.83398 0.89862 0.20573 -0.28600
O 	O 	0.86112 0.89590 0.30102 -0.54800
C 	C 	0.95050 0.87458 0.33177 0.27700
O 	O 	0.95379 0.87782 0.26799 -0.35000
Cd	Cd	0.06265 0.89640 0.00697 1.24100
Cd	Cd	0.02934 0.94686 0.87468 1.19200
O 	O 	0.09091 0.84366 0.96591 -0.32000
O 	O 	0.08744 0.85539 0.07247 -0.35000
C 	C 	0.09660 0.83333 0.02548 0.28500
O 	O 	0.05033 0.94766 0.05834 -0.36300
O 	O 	0.01365 0.96486 0.97752 -0.41700
C 	C 	0.03566 0.97285 0.02494 0.28200
C 	C 	0.10742 0.93879 0.93412 0.29900
O 	O 	0.01851 0.89190 0.91104 -0.45700
O 	O 	0.12220 0.92614 0.98643 -0.28500
O 	O 	0.07816 0.92528 0.91905 -0.51700
C 	C 	0.99551 0.88419 0.95388 0.30500
O 	O 	0.00675 0.87808 0.01329 -0.35700
C 	C 	0.08980 0.70849 0.90349 0.12400
N 	N 	0.10381 0.67652 0.91041 -0.14400
C 	C 	0.10715 0.65437 0.85733 0.12700
N 	N 	0.09600 0.66409 0.79675 -0.14500
C 	C 	0.08127 0.69591 0.78951 0.12600
N 	N 	0.07833 0.71820 0.84298 -0.13900
C 	C 	0.97666 0.71257 0.21876 0.12500
N 	N 	0.99034 0.68256 0.19313 -0.14200
C 	C 	0.00827 0.66112 0.23283 0.12600
N 	N 	0.01344 0.67027 0.29752 -0.14300
C 	C 	0.00013 0.70035 0.32331 0.12600
N 	N 	0.98161 0.72149 0.28395 -0.13500
Cd	Cd	0.89810 0.04650 0.79097 1.24100
Cd	Cd	0.95816 0.05848 0.91960 1.16600
O 	O 	0.83920 0.04406 0.82752 -0.31300
O 	O 	0.85206 0.04109 0.72174 -0.35000
C 	C 	0.82859 0.04096 0.76685 0.28400
O 	O 	0.94724 0.05636 0.73752 -0.37000
O 	O 	0.98085 0.03875 0.82353 -0.44900
C 	C 	0.97755 0.05327 0.76532 0.26900
C 	C 	0.90537 0.11430 0.85092 0.28600
O 	O 	0.91824 0.01430 0.89877 -0.43300
O 	O 	0.88828 0.11566 0.79556 -0.28600
O 	O 	0.91243 0.08305 0.87041 -0.54200
C 	C 	0.92112 0.98589 0.86149 0.27300
O 	O 	0.91209 0.98887 0.79980 -0.35500
Cd	Cd	0.83055 0.06585 0.53668 1.24300
Cd	Cd	0.87523 0.05432 0.38571 1.16700
O 	O 	0.77075 0.08316 0.53235 -0.31200
O 	O 	0.79488 0.06692 0.62409 -0.35000
C 	C 	0.76690 0.07468 0.59371 0.28000
O 	O 	0.88030 0.04237 0.56650 -0.37500
O 	O 	0.90953 0.05980 0.47492 -0.44100
C 	C 	0.90799 0.04186 0.52978 0.27400
C 	C 	0.81809 0.00433 0.45648 0.27300
O 	O 	0.84870 0.10298 0.43453 -0.43800
O 	O 	0.80727 0.00136 0.51688 -0.29500
O 	O 	0.82964 0.03519 0.44310 -0.53300
C 	C 	0.86127 0.12553 0.47786 0.29100
O 	O 	0.85418 0.12035 0.53971 -0.35100
C 	C 	0.70412 0.98227 0.81979 0.12400
N 	N 	0.67367 0.97600 0.79035 -0.14400
C 	C 	0.64596 0.97034 0.82815 0.12600
N 	N 	0.64920 0.96927 0.89514 -0.14500
C 	C 	0.68000 0.97319 0.92426 0.12900
N 	N 	0.70733 0.98023 0.88661 -0.13800
C 	C 	0.65434 0.00524 0.52357 0.12600
N 	N 	0.66509 0.00059 0.46009 -0.13900
C 	C 	0.64443 0.98547 0.41369 0.12800
N 	N 	0.61263 0.97600 0.43056 -0.14300
C 	C 	0.60163 0.98132 0.49363 0.12800
N 	N 	0.62254 0.99584 0.54021 -0.14600
Cd	Cd	0.01568 0.16953 0.26571 1.24200
Cd	Cd	0.00416 0.12064 0.41267 1.18800
O 	O 	0.05853 0.21554 0.27777 -0.31500
O 	O 	0.03214 0.20580 0.18309 -0.34600
C 	C 	0.05406 0.22462 0.21699 0.28000
O 	O 	0.98278 0.12367 0.23299 -0.35500
O 	O 	0.96286 0.11404 0.33741 -0.43300
C 	C 	0.96860 0.10279 0.27640 0.28200
C 	C 	0.06345 0.11729 0.29772 0.30300
O 	O 	0.99622 0.17912 0.38950 -0.43200
O 	O 	0.06800 0.12775 0.23737 -0.28700
O 	O 	0.04217 0.13541 0.33326 -0.52700
C 	C 	0.96884 0.19360 0.36630 0.29500
O 	O 	0.96904 0.19948 0.30307 -0.34800
Cd	Cd	0.06090 0.19932 0.98291 1.24200
Cd	Cd	0.02016 0.15123 0.85500 1.16400
O 	O 	0.06117 0.26359 0.97718 -0.31500
O 	O 	0.08422 0.23646 0.06020 -0.35700
C 	C 	0.07832 0.26608 0.03207 0.28500
O 	O 	0.06013 0.14475 0.02142 -0.37400
O 	O 	0.05308 0.11758 0.91972 -0.44500
C 	C 	0.05225 0.11663 0.98502 0.26500
C 	C 	0.98934 0.19682 0.98054 0.29800
O 	O 	0.06406 0.19232 0.85275 -0.43100
O 	O 	0.99960 0.20858 0.03870 -0.27800
O 	O 	0.01256 0.19239 0.93643 -0.55200
C 	C 	0.09662 0.18781 0.85835 0.25000
O 	O 	0.10799 0.18730 0.91922 -0.38000
C 	C 	0.16129 0.37095 0.95798 0.12400
N 	N 	0.17546 0.40208 0.97652 -0.14600
C 	C 	0.18682 0.42412 0.92983 0.12600
N 	N 	0.18437 0.41452 0.86471 -0.14300
C 	C 	0.16932 0.38400 0.84589 0.13000
N 	N 	0.15820 0.36200 0.89261 -0.13800
C 	C 	0.08815 0.36168 0.26359 0.12600
N 	N 	0.10144 0.35709 0.32481 -0.14000
C 	C 	0.11126 0.38502 0.36293 0.12900
N 	N 	0.10755 0.41781 0.33986 -0.14400
C 	C 	0.09417 0.42273 0.27855 0.12500
N 	N 	0.08459 0.39451 0.24031 -0.14500
Cd	Cd	0.18903 0.08007 0.66438 1.24200
Cd	Cd	0.15220 0.11492 0.81333 1.18700
O 	O 	0.25035 0.07196 0.67311 -0.31900
O 	O 	0.22188 0.05045 0.58825 -0.34800
C 	C 	0.25066 0.05204 0.62011 0.27800
O 	O 	0.13312 0.07451 0.64429 -0.35500
O 	O 	0.11736 0.11557 0.72313 -0.40500
C 	C 	0.11002 0.08801 0.68479 0.28300
C 	C 	0.17566 0.03423 0.76967 0.30900
O 	O 	0.19331 0.13424 0.74365 -0.45700
O 	O 	0.18381 0.01698 0.71544 -0.28900
O 	O 	0.18000 0.06784 0.76870 -0.52700
C 	C 	0.18762 0.15478 0.69485 0.29700
O 	O 	0.18731 0.13935 0.63606 -0.34000
Cd	Cd	0.10440 0.94085 0.51745 1.24200
Cd	Cd	0.04709 0.95427 0.38369 1.18700
O 	O 	0.16000 0.92051 0.48190 -0.31800
O 	O 	0.15106 0.93719 0.58493 -0.34500
C 	C 	0.17282 0.92687 0.54012 0.27900
O 	O 	0.05851 0.96562 0.56559 -0.36900
O 	O 	0.02239 0.94719 0.48234 -0.42600
C 	C 	0.02870 0.96694 0.53539 0.28400
C 	C 	0.11018 0.00305 0.44336 0.30200
O 	O 	0.07792 0.90604 0.41647 -0.43700
O 	O 	0.12741 0.00542 0.49855 -0.28800
O 	O 	0.09659 0.97268 0.43072 -0.52400
C 	C 	0.06821 0.88237 0.45755 0.29600
O 	O 	0.07861 0.88653 0.51875 -0.35400
C 	C 	0.34430 0.96688 0.73355 0.12400
N 	N 	0.37810 0.96403 0.72298 -0.14600
C 	C 	0.39913 0.95520 0.77325 0.12600
N 	N 	0.38639 0.94984 0.83447 -0.14400
C 	C 	0.35268 0.95262 0.84545 0.12700
N 	N 	0.33172 0.96166 0.79518 -0.13800
C 	C 	0.30162 0.94418 0.44190 0.12500
N 	N 	0.29803 0.94817 0.37544 -0.14000
C 	C 	0.32573 0.94828 0.33588 0.12600
N 	N 	0.35691 0.94386 0.36285 -0.14400
C 	C 	0.36043 0.93917 0.42906 0.12700
N 	N 	0.33275 0.93936 0.46838 -0.14400
C 	C 	0.33931 0.94876 0.91331 -0.04600
C 	C 	0.34922 0.92031 0.95249 0.10000
C 	C 	0.34310 0.92166 0.02103 -0.08300
C 	C 	0.32484 0.94947 0.05011 -0.00600
C 	C 	0.31160 0.97591 0.00957 0.07500
C 	C 	0.31958 0.97569 0.94171 -0.05200
N 	N 	0.36363 0.89127 0.92435 -0.19800
H 	H 	0.35230 0.90084 0.05175 0.05500
C 	C 	0.32166 0.95177 0.12352 -0.00500
N 	N 	0.29112 0.00137 0.03527 -0.19400
H 	H 	0.31108 0.99697 0.91138 0.05800
C 	C 	0.34179 0.97583 0.15961 -0.08500
C 	C 	0.34112 0.97720 0.22925 0.10100
C 	C 	0.32192 0.95220 0.26342 -0.04800
C 	C 	0.30090 0.92892 0.22739 -0.05300
C 	C 	0.30004 0.92894 0.15769 0.07300
H 	H 	0.35770 0.99387 0.13338 0.05500
N 	N 	0.35802 0.00318 0.26282 -0.19800
H 	H 	0.28555 0.91035 0.25355 0.05400
N 	N 	0.27829 0.90726 0.12407 -0.19400
H 	H 	0.37345 0.02047 0.23749 0.08600
H 	H 	0.35450 0.00774 0.31355 0.09300
H 	H 	0.26312 0.88981 0.14957 0.09000
H 	H 	0.27541 0.90826 0.07272 0.09400
H 	H 	0.28217 0.02129 0.00540 0.09000
H 	H 	0.28295 0.00100 0.08435 0.09300
H 	H 	0.36447 0.88750 0.87295 0.09200
H 	H 	0.37238 0.87113 0.95391 0.08500
C 	C 	0.21725 0.96913 0.51578 -0.03400
C 	C 	0.20830 0.93749 0.54470 -0.08800
C 	C 	0.23339 0.91193 0.55430 0.11500
C 	C 	0.26494 0.91543 0.52362 -0.06800
C 	C 	0.27176 0.94459 0.48513 -0.03600
C 	C 	0.24880 0.97288 0.48544 0.09500
N 	N 	0.25713 0.00381 0.45808 -0.19500
H 	H 	0.19859 0.98975 0.51206 0.06800
H 	H 	0.28357 0.89478 0.52733 0.05400
N 	N 	0.22696 0.88356 0.59130 -0.20300
H 	H 	0.23942 0.02401 0.45572 0.10200
H 	H 	0.28173 0.00882 0.44244 0.09500
H 	H 	0.20426 0.88135 0.61703 0.09600
H 	H 	0.24521 0.86409 0.59672 0.08700
C 	C 	0.26388 0.99110 0.64708 -0.03700
C 	C 	0.27413 0.02223 0.61781 -0.08700
C 	C 	0.30894 0.02825 0.60851 0.11500
C 	C 	0.33268 0.00757 0.64163 -0.06800
C 	C 	0.32185 0.97982 0.68051 -0.03600
C 	C 	0.28773 0.96907 0.67626 0.09500
N 	N 	0.27785 0.93773 0.69971 -0.19400
H 	H 	0.23720 0.98536 0.65157 0.06600
H 	H 	0.35924 0.01442 0.64033 0.05200
N 	N 	0.31959 0.05450 0.56973 -0.20200
H 	H 	0.25227 0.93095 0.70055 0.09800
H 	H 	0.29559 0.91911 0.71384 0.09400
H 	H 	0.30236 0.06906 0.54244 0.09200
H 	H 	0.34536 0.05965 0.56450 0.08600
C 	C 	0.15861 0.37858 0.77645 -0.04800
C 	C 	0.13424 0.40078 0.74786 0.10300
C 	C 	0.12855 0.39885 0.67925 -0.08500
C 	C 	0.14531 0.37391 0.63933 -0.00400
C 	C 	0.16809 0.35016 0.66850 0.07300
C 	C 	0.17476 0.35299 0.73693 -0.05200
N 	N 	0.11585 0.42353 0.78614 -0.19900
H 	H 	0.11059 0.41647 0.65691 0.05600
C 	C 	0.13853 0.37291 0.56707 -0.00600
N 	N 	0.18342 0.32457 0.63138 -0.19400
H 	H 	0.19293 0.33559 0.75922 0.05300
C 	C 	0.16032 0.39080 0.52513 -0.08500
C 	C 	0.15277 0.39359 0.45738 0.10100
C 	C 	0.12185 0.37989 0.43221 -0.04800
C 	C 	0.10053 0.36122 0.47388 -0.05200
C 	C 	0.10889 0.35700 0.54082 0.07500
H 	H 	0.18329 0.40247 0.54523 0.05500
N 	N 	0.17565 0.40845 0.41669 -0.19900
H 	H 	0.07722 0.35009 0.45422 0.05600
N 	N 	0.08847 0.33758 0.57947 -0.19400
H 	H 	0.19772 0.41978 0.43620 0.08600
H 	H 	0.17266 0.40739 0.36526 0.09300
H 	H 	0.06617 0.32668 0.56010 0.09400
H 	H 	0.09494 0.33224 0.62838 0.09600
H 	H 	0.20033 0.30732 0.65332 0.09200
H 	H 	0.17836 0.32116 0.58081 0.09400
H 	H 	0.11701 0.42326 0.83781 0.09400
H 	H 	0.09897 0.44085 0.76431 0.08600
C 	C 	0.11945 0.19866 0.80366 -0.09500
C 	C 	0.15291 0.21014 0.81715 -0.02800
C 	C 	0.17747 0.20610 0.76711 -0.00900
C 	C 	0.16887 0.18744 0.70855 -0.09300
C 	C 	0.13501 0.18909 0.68799 0.00200
C 	C 	0.10961 0.19404 0.73644 -0.01000
C 	C 	0.16101 0.22904 0.87830 0.08500
C 	C 	0.12678 0.18686 0.61827 0.10000
C 	C 	0.07477 0.19911 0.71688 0.07900
C 	C 	0.21215 0.21657 0.77902 0.07600
N 	N 	0.04689 0.20345 0.70161 -0.12100
N 	N 	0.23989 0.22494 0.78853 -0.11500
N 	N 	0.12037 0.18526 0.56230 -0.10000
N 	N 	0.16761 0.24416 0.92709 -0.11800
C 	C 	0.13518 0.29197 0.04838 -0.03200
C 	C 	0.10006 0.29677 0.04529 -0.09300
C 	C 	0.08713 0.33083 0.03714 0.12400
C 	C 	0.10904 0.35759 0.01820 -0.07100
C 	C 	0.14327 0.35039 0.00695 -0.03400
C 	C 	0.15703 0.31866 0.02877 0.08700
N 	N 	0.19098 0.31339 0.02921 -0.19500
H 	H 	0.14538 0.26658 0.06023 0.05400
H 	H 	0.09891 0.38304 0.00638 0.05300
N 	N 	0.05369 0.33764 0.04532 -0.20000
H 	H 	0.20101 0.28943 0.04337 0.09100
H 	H 	0.20769 0.33344 0.01763 0.09300
H 	H 	0.03707 0.31830 0.06076 0.10200
H 	H 	0.04417 0.36275 0.03821 0.09100
C 	C 	0.10891 0.03214 0.39568 -0.08600
C 	C 	0.11727 0.06675 0.41658 0.00300
C 	C 	0.10368 0.09512 0.38231 -0.00400
C 	C 	0.08361 0.08877 0.32556 -0.09700
C 	C 	0.08217 0.05479 0.29674 0.00500
C 	C 	0.09567 0.02643 0.33118 -0.01400
C 	C 	0.14247 0.07312 0.46781 0.10600
C 	C 	0.06421 0.04860 0.23497 0.07600
C 	C 	0.09862 0.99241 0.29826 0.02300
C 	C 	0.11175 0.13075 0.40312 0.07600
N 	N 	0.10098 0.96528 0.27183 -0.12800
N 	N 	0.11820 0.15925 0.41925 -0.10100
N 	N 	0.04957 0.04371 0.18594 -0.10200
N 	N 	0.16271 0.07840 0.50842 -0.12300
C 	C 	0.10579 0.30593 0.21057 -0.07000
C 	C 	0.08019 0.33074 0.22120 -0.03400
C 	C 	0.04622 0.32107 0.20783 0.08600
C 	C 	0.03829 0.28567 0.19497 -0.03700
C 	C 	0.06353 0.26002 0.19748 -0.08300
C 	C 	0.09777 0.27043 0.20057 0.12700
N 	N 	0.12296 0.24638 0.19492 -0.19900
H 	H 	0.13202 0.31378 0.21601 0.05600
H 	H 	0.01211 0.27781 0.18881 0.05600
N 	N 	0.02113 0.34535 0.20858 -0.19900
H 	H 	0.14824 0.25408 0.19906 0.09100
H 	H 	0.11769 0.22010 0.18379 0.10600
H 	H 	0.02635 0.37201 0.21357 0.09700
H 	H 	0.99599 0.33774 0.20122 0.09400
C 	C 	0.39442 0.93744 0.45914 -0.05100
C 	C 	0.42038 0.91724 0.42912 0.10100
C 	C 	0.45399 0.92300 0.44879 -0.08700
C 	C 	0.46171 0.94630 0.50163 -0.00600
C 	C 	0.43524 0.96274 0.53758 0.07100
C 	C 	0.40182 0.95864 0.51525 -0.05400
N 	N 	0.41310 0.89163 0.38316 -0.19900
H 	H 	0.47424 0.90953 0.42262 0.05500
C 	C 	0.49727 0.95712 0.51236 -0.00400
N 	N 	0.44181 0.98277 0.59292 -0.19400
H 	H 	0.38170 0.97291 0.54023 0.05200
C 	C 	0.50702 0.99086 0.49469 -0.08800
C 	C 	0.54120 0.00032 0.49371 0.10200
C 	C 	0.56604 0.97525 0.50920 -0.05300
C 	C 	0.55629 0.94244 0.53167 -0.05100
C 	C 	0.52204 0.93304 0.53340 0.06900
H 	H 	0.48795 0.00949 0.47991 0.05500
N 	N 	0.55002 0.03336 0.47726 -0.20000
H 	H 	0.57546 0.92369 0.54546 0.04800
N 	N 	0.51316 0.90082 0.55434 -0.19500
H 	H 	0.53153 0.05141 0.46398 0.08500
H 	H 	0.57511 0.04176 0.47928 0.09200
H 	H 	0.53167 0.88293 0.56822 0.08200
H 	H 	0.48788 0.89361 0.55912 0.08300
H 	H 	0.42222 0.99566 0.61807 0.08800
H 	H 	0.46615 0.98469 0.61288 0.09000
H 	H 	0.38828 0.88336 0.37449 0.09300
H 	H 	0.43252 0.87811 0.35868 0.08500
C 	C 	0.43604 0.95645 0.76418 -0.05100
C 	C 	0.45292 0.93240 0.72110 0.09900
C 	C 	0.48839 0.93311 0.71775 -0.08900
C 	C 	0.50720 0.95586 0.75931 -0.00500
C 	C 	0.49026 0.98012 0.80183 0.07100
C 	C 	0.45485 0.98064 0.80257 -0.05300
N 	N 	0.43542 0.90814 0.68412 -0.19900
H 	H 	0.50144 0.91450 0.68562 0.05500
C 	C 	0.54454 0.95263 0.76113 -0.00600
N 	N 	0.50779 0.00248 0.84293 -0.19400
H 	H 	0.44183 0.99929 0.83486 0.05000
C 	C 	0.56417 0.97760 0.72924 -0.08500
C 	C 	0.59773 0.98401 0.74945 0.10000
C 	C 	0.61291 0.96197 0.79681 -0.05000
C 	C 	0.59468 0.93329 0.81989 -0.05300
C 	C 	0.56040 0.92888 0.80389 0.07100
H 	H 	0.55227 0.99460 0.69385 0.05600
N 	N 	0.61438 0.01217 0.72579 -0.19900
H 	H 	0.60677 0.91536 0.85334 0.04800
N 	N 	0.54272 0.90233 0.83093 -0.19400
H 	H 	0.60412 0.02612 0.68668 0.09000
H 	H 	0.63611 0.02213 0.74878 0.09600
H 	H 	0.55448 0.88547 0.86377 0.08400
H 	H 	0.51740 0.89776 0.81893 0.08800
H 	H 	0.49499 0.02048 0.87356 0.08500
H 	H 	0.53410 0.00200 0.84578 0.09000
H 	H 	0.40922 0.90586 0.68731 0.09200
H 	H 	0.44814 0.89066 0.65236 0.08200
C 	C 	0.68342 0.97170 0.99711 -0.04800
C 	C 	0.66959 0.94358 0.03232 0.10400
C 	C 	0.66704 0.94639 0.10164 -0.08300
C 	C 	0.67977 0.97581 0.13645 -0.00500
C 	C 	0.69719 0.00195 0.10187 0.07900
C 	C 	0.69831 0.99996 0.03227 -0.05100
N 	N 	0.65960 0.91356 0.00016 -0.19800
H 	H 	0.65482 0.92577 0.12852 0.05600
C 	C 	0.67188 0.98050 0.20789 -0.00200
N 	N 	0.71252 0.02910 0.13502 -0.19300
H 	H 	0.71000 0.02091 0.00541 0.05700
C 	C 	0.69271 0.96466 0.25483 -0.08600
C 	C 	0.68412 0.96553 0.32238 0.10700
C 	C 	0.65467 0.98377 0.34338 -0.04900
C 	C 	0.63445 0.00047 0.29653 -0.05000
C 	C 	0.64259 0.99886 0.22894 0.07100
H 	H 	0.71514 0.95069 0.23850 0.06500
N 	N 	0.70361 0.94795 0.36614 -0.19900
H 	H 	0.61214 0.01471 0.31276 0.05000
N 	N 	0.62214 0.01486 0.18460 -0.19300
H 	H 	0.72601 0.93591 0.35055 0.09800
H 	H 	0.69617 0.94479 0.41511 0.10000
H 	H 	0.60053 0.02823 0.20067 0.08600
H 	H 	0.62742 0.01434 0.13398 0.09000
H 	H 	0.72458 0.04877 0.10904 0.09700
H 	H 	0.71351 0.03043 0.18673 0.10000
H 	H 	0.66509 0.90887 0.95016 0.09300
H 	H 	0.64786 0.89366 0.02605 0.08700
C 	C 	0.88300 0.15500 0.45796 -0.07900
C 	C 	0.87896 0.16960 0.39497 -0.00600
C 	C 	0.90551 0.18911 0.36817 0.00600
C 	C 	0.93651 0.19192 0.40300 -0.08000
C 	C 	0.93687 0.18546 0.47130 -0.01400
C 	C 	0.91015 0.16656 0.49901 -0.00000
C 	C 	0.84725 0.16571 0.35918 0.08400
C 	C 	0.96416 0.19889 0.51293 0.07600
C 	C 	0.91077 0.15889 0.56887 0.10100
C 	C 	0.90008 0.20842 0.30825 0.10000
N 	N 	0.91127 0.15255 0.62457 -0.09300
N 	N 	0.89566 0.22385 0.26044 -0.09900
N 	N 	0.98594 0.20958 0.54621 -0.10400
N 	N 	0.82196 0.16261 0.33059 -0.10600
C 	C 	0.93970 0.02625 0.55632 -0.07400
C 	C 	0.97081 0.04417 0.55072 0.00100
C 	C 	0.00149 0.02535 0.55161 -0.01300
C 	C 	0.00122 0.98920 0.56298 -0.07500
C 	C 	0.97101 0.97349 0.58396 0.00200
C 	C 	0.93996 0.99134 0.57751 -0.01200
C 	C 	0.97138 0.08179 0.54498 0.04800
C 	C 	0.97207 0.93984 0.61485 0.09000
C 	C 	0.90845 0.97330 0.58953 0.05900
C 	C 	0.03298 0.04272 0.53693 0.04700
N 	N 	0.88328 0.95891 0.59903 -0.11800
N 	N 	0.05809 0.05665 0.52508 -0.12600
N 	N 	0.97269 0.91311 0.64024 -0.10400
N 	N 	0.97226 0.11184 0.54040 -0.16700
C 	C 	0.73488 0.02092 0.61338 -0.03500
C 	C 	0.73531 0.05760 0.61241 -0.09000
C 	C 	0.70444 0.07572 0.60669 0.11800
C 	C 	0.67536 0.05726 0.58612 -0.07000
C 	C 	0.67702 0.02107 0.57355 -0.03600
C 	C 	0.70559 0.00244 0.59498 0.09200
N 	N 	0.70546 0.96691 0.59515 -0.19600
H 	H 	0.75823 0.00678 0.62076 0.06300
H 	H 	0.65240 0.07138 0.57464 0.05200
N 	N 	0.70298 0.11084 0.61823 -0.20100
H 	H 	0.72719 0.95315 0.60829 0.09600
H 	H 	0.68340 0.95275 0.58464 0.09400
H 	H 	0.72405 0.12466 0.63623 0.09500
H 	H 	0.68037 0.12443 0.61157 0.08900
C 	C 	0.00860 0.05920 0.72531 -0.08200
C 	C 	0.03312 0.03241 0.71804 0.00400
C 	C 	0.06628 0.04068 0.69742 -0.00500
C 	C 	0.07431 0.07533 0.68098 -0.06000
C 	C 	0.04780 0.09945 0.67339 -0.01600
C 	C 	0.01597 0.09280 0.70171 -0.01900
C 	C 	0.02414 0.99650 0.73080 0.06900
C 	C 	0.05117 0.12685 0.62602 0.08300
C 	C 	0.99197 0.12107 0.71061 0.01000
C 	C 	0.09148 0.01340 0.69068 0.08300
N 	N 	0.97291 0.14375 0.71800 -0.13400
N 	N 	0.11148 0.99146 0.68517 -0.11300
N 	N 	0.05350 0.14845 0.58729 -0.12000
N 	N 	0.01700 0.96781 0.74098 -0.18200
C 	C 	0.91268 0.14610 0.89229 -0.10500
C 	C 	0.92246 0.17746 0.86225 -0.02000
C 	C 	0.94345 0.20111 0.89778 -0.02000
C 	C 	0.95341 0.19332 0.96268 -0.09600
C 	C 	0.93330 0.17021 0.99781 -0.00900
C 	C 	0.91457 0.14447 0.96218 -0.02100
C 	C 	0.90840 0.18690 0.79890 0.09400
C 	C 	0.92891 0.17568 0.06842 0.10400
C 	C 	0.89676 0.11743 0.99674 0.05700
C 	C 	0.95645 0.23203 0.86681 0.07300
N 	N 	0.88257 0.09576 0.02428 -0.10600
N 	N 	0.96687 0.25672 0.84207 -0.10600
N 	N 	0.92545 0.18016 0.12492 -0.09800
N 	N 	0.89704 0.19476 0.74852 -0.09700
C 	C 	0.78965 0.99176 0.74300 -0.03500
C 	C 	0.79435 0.02791 0.75273 -0.08200
C 	C 	0.76619 0.04940 0.76761 0.12700
C 	C 	0.73501 0.03391 0.78175 -0.07000
C 	C 	0.73174 0.99745 0.78168 -0.03300
C 	C 	0.75841 0.97626 0.75732 0.08700
N 	N 	0.75426 0.94117 0.74812 -0.19600
H 	H 	0.81090 0.97539 0.72862 0.05800
H 	H 	0.71384 0.05023 0.79682 0.05400
N 	N 	0.76913 0.08484 0.76926 -0.20000
H 	H 	0.77434 0.92551 0.73167 0.09500
H 	H 	0.73077 0.92936 0.75476 0.09400
H 	H 	0.79161 0.09703 0.75590 0.10800
H 	H 	0.74840 0.10062 0.78150 0.09200
C 	C 	0.02099 0.62723 0.20686 -0.05600
C 	C 	0.99942 0.59769 0.20150 0.11000
C 	C 	0.01359 0.56401 0.19764 -0.09600
C 	C 	0.04870 0.55946 0.20087 -0.00200
C 	C 	0.07012 0.58898 0.19726 0.06800
C 	C 	0.05599 0.62269 0.20033 -0.05000
N 	N 	0.96524 0.60137 0.20210 -0.20100
H 	H 	0.99721 0.54126 0.19723 0.06000
C 	C 	0.06222 0.52521 0.22139 -0.00700
N 	N 	0.10419 0.58518 0.19259 -0.19400
H 	H 	0.07242 0.64541 0.20165 0.05000
C 	C 	0.07409 0.50123 0.17305 -0.08700
C 	C 	0.08762 0.46885 0.19132 0.09700
C 	C 	0.08539 0.45866 0.25826 -0.04900
C 	C 	0.07312 0.48261 0.30636 -0.05500
C 	C 	0.06245 0.51611 0.28893 0.07300
H 	H 	0.07424 0.50843 0.12146 0.05100
N 	N 	0.10424 0.44873 0.14542 -0.19900
H 	H 	0.07161 0.47508 0.35768 0.05300
N 	N 	0.05243 0.53934 0.33726 -0.19400
H 	H 	0.10330 0.45492 0.09532 0.08200
H 	H 	0.12039 0.42865 0.15948 0.09400
H 	H 	0.05197 0.53205 0.38678 0.08500
H 	H 	0.04577 0.56499 0.32664 0.09100
H 	H 	0.11992 0.60713 0.19206 0.08500
H 	H 	0.11532 0.56052 0.18748 0.08600
H 	H 	0.95387 0.62597 0.20282 0.09100
H 	H 	0.94957 0.57936 0.20024 0.08600
C 	C 	0.12721 0.62231 0.86410 -0.05100
C 	C 	0.11176 0.58890 0.86058 0.10000
C 	C 	0.12979 0.55971 0.88209 -0.08500
C 	C 	0.16232 0.56350 0.90939 -0.00500
C 	C 	0.17814 0.59669 0.91101 0.06900
C 	C 	0.16080 0.62553 0.88609 -0.05200
N 	N 	0.07953 0.58473 0.83785 -0.20000
H 	H 	0.11815 0.53403 0.87913 0.05400
C 	C 	0.17960 0.53223 0.93469 -0.00500
N 	N 	0.20941 0.60131 0.93828 -0.19400
H 	H 	0.17272 0.65109 0.88780 0.04700
C 	C 	0.20542 0.51660 0.89693 -0.08700
C 	C 	0.21385 0.48143 0.90581 0.10300
C 	C 	0.19387 0.46111 0.94795 -0.05200
C 	C 	0.17300 0.47835 0.99448 -0.05400
C 	C 	0.16605 0.51413 0.98864 0.06800
H 	H 	0.21774 0.53125 0.85868 0.05500
N 	N 	0.24053 0.46704 0.87296 -0.19900
H 	H 	0.16005 0.46351 0.03163 0.04900
N 	N 	0.14590 0.53078 0.03379 -0.19400
H 	H 	0.25438 0.48172 0.83963 0.08600
H 	H 	0.24862 0.44167 0.88265 0.09200
H 	H 	0.13518 0.51705 0.07250 0.08100
H 	H 	0.14188 0.55775 0.03241 0.08800
H 	H 	0.22113 0.62580 0.93795 0.08300
H 	H 	0.22199 0.58104 0.96164 0.08700
H 	H 	0.06532 0.60579 0.82143 0.09400
H 	H 	0.06831 0.55996 0.83615 0.08500
C 	C 	0.06873 0.70632 0.72344 -0.04700
C 	C 	0.08927 0.70267 0.66633 0.10200
C 	C 	0.07465 0.70597 0.60313 -0.08400
C 	C 	0.04069 0.71580 0.59611 -0.00600
C 	C 	0.02111 0.72307 0.65346 0.07200
C 	C 	0.03511 0.71742 0.71659 -0.05200
N 	N 	0.12311 0.69725 0.67186 -0.19800
H 	H 	0.08989 0.70130 0.55928 0.05600
C 	C 	0.02530 0.71593 0.52851 -0.00200
N 	N 	0.98914 0.73577 0.64838 -0.19200
H 	H 	0.01961 0.72124 0.76034 0.05200
C 	C 	0.00363 0.68851 0.50866 -0.09500
C 	C 	0.99211 0.68521 0.44276 0.11100
C 	C 	0.00399 0.70869 0.39504 -0.05200
C 	C 	0.02392 0.73740 0.41564 -0.05000
C 	C 	0.03435 0.74153 0.48227 0.07300
H 	H 	0.99592 0.66949 0.54448 0.06000
N 	N 	0.96943 0.65973 0.42576 -0.20000
H 	H 	0.03216 0.75602 0.37951 0.05500
N 	N 	0.05306 0.76992 0.50137 -0.19400
H 	H 	0.96180 0.64161 0.46051 0.08700
H 	H 	0.95805 0.65863 0.37895 0.09300
H 	H 	0.06176 0.78729 0.46626 0.09600
H 	H 	0.05833 0.77555 0.55127 0.09800
H 	H 	0.97452 0.74013 0.69078 0.09400
H 	H 	0.97893 0.74263 0.60274 0.09600
H 	H 	0.13549 0.69963 0.71758 0.09500
H 	H 	0.13778 0.69275 0.62957 0.08700
C 	C 	0.04187 0.01039 0.04319 -0.06000
C 	C 	0.07468 0.02468 0.03847 -0.00100
C 	C 	0.07872 0.06010 0.02106 0.00600
C 	C 	0.05012 0.08201 0.01706 -0.06400
C 	C 	0.01877 0.06954 0.03919 -0.05000
C 	C 	0.01425 0.03344 0.04942 -0.01800
C 	C 	0.10376 0.00428 0.05737 0.09000
C 	C 	0.99286 0.09400 0.05949 0.01700
C 	C 	0.98191 0.02041 0.07087 0.04700
C 	C 	0.11207 0.07397 0.00855 0.08600
N 	N 	0.95609 0.01006 0.08827 -0.10700
N 	N 	0.13872 0.08504 0.99853 -0.14100
N 	N 	0.97209 0.11329 0.07686 -0.11800
N 	N 	0.12713 0.98828 0.07307 -0.10200
C 	C 	0.96042 0.89564 0.94264 -0.09800
C 	C 	0.94560 0.92053 0.98656 0.00500
C 	C 	0.92586 0.94764 0.96050 -0.01100
C 	C 	0.92364 0.95072 0.89123 -0.07600
C 	C 	0.92957 0.92051 0.85094 -0.01800
C 	C 	0.94722 0.89225 0.87794 -0.00800
C 	C 	0.95200 0.91928 0.05711 0.10100
C 	C 	0.91519 0.91727 0.78491 0.09700
C 	C 	0.95424 0.86107 0.83797 0.07900
C 	C 	0.90360 0.96794 0.00315 0.09600
N 	N 	0.95986 0.83617 0.80603 -0.10900
N 	N 	0.88562 0.98412 0.03703 -0.09900
N 	N 	0.90366 0.91456 0.73221 -0.10300
N 	N 	0.95737 0.91823 0.11342 -0.10800
C 	C 	0.12496 0.96383 0.89138 -0.09300
C 	C 	0.15951 0.95857 0.87640 0.00800
C 	C 	0.17837 0.98551 0.84785 0.01500
C 	C 	0.16207 0.01610 0.82723 -0.10700
C 	C 	0.12864 0.02248 0.84740 0.01200
C 	C 	0.10950 0.99581 0.87491 0.00200
C 	C 	0.17515 0.92486 0.88702 0.09100
C 	C 	0.11321 0.05639 0.84070 -0.00500
C 	C 	0.07386 0.00211 0.88474 -0.00800
C 	C 	0.21455 0.98174 0.83917 0.07900
N 	N 	0.04576 0.00978 0.89068 -0.19900
N 	N 	0.24343 0.97876 0.83230 -0.11100
N 	N 	0.09893 0.08262 0.83740 -0.19200
N 	N 	0.18763 0.89797 0.89547 -0.11000
C 	C 	0.06706 0.77760 0.03327 -0.03000
C 	C 	0.09790 0.79572 0.03636 -0.09400
C 	C 	0.12741 0.77765 0.01730 0.12300
C 	C 	0.12462 0.74749 0.97639 -0.07100
C 	C 	0.09261 0.73450 0.95834 -0.03000
C 	C 	0.06373 0.74773 0.99148 0.08400
N 	N 	0.03300 0.73227 0.98303 -0.19500
H 	H 	0.04471 0.78959 0.05482 0.04500
H 	H 	0.14715 0.73535 0.95582 0.05500
N 	N 	0.15832 0.79082 0.03343 -0.20200
H 	H 	0.01163 0.74292 0.00613 0.08700
H 	H 	0.03020 0.70909 0.95495 0.09300
H 	H 	0.16067 0.81316 0.06415 0.10000
H 	H 	0.18029 0.77827 0.01686 0.09000
C 	C 	0.93423 0.99718 0.24367 -0.07000
C 	C 	0.91409 0.02523 0.22219 -0.03600
C 	C 	0.92700 0.05989 0.22600 -0.01500
C 	C 	0.95863 0.06653 0.25686 -0.08900
C 	C 	0.97753 0.03810 0.28055 -0.00200
C 	C 	0.96780 0.00393 0.26250 -0.01000
C 	C 	0.88069 0.01860 0.19540 0.05700
C 	C 	0.00041 0.04331 0.33603 -0.01100
C 	C 	0.99216 0.97574 0.26336 0.06200
C 	C 	0.90667 0.08876 0.20332 0.06400
N 	N 	0.01153 0.95309 0.26344 -0.18400
N 	N 	0.89037 0.11182 0.18543 -0.10100
N 	N 	0.01825 0.04721 0.38119 -0.19400
N 	N 	0.85399 0.01354 0.17365 -0.10500
C 	C 	0.80784 0.92529 0.30417 -0.10500
C 	C 	0.80348 0.96015 0.28653 -0.01100
C 	C 	0.80545 0.98691 0.33622 -0.02400
C 	C 	0.80918 0.97760 0.40367 -0.11700
C 	C 	0.80362 0.94212 0.42031 -0.03700
C 	C 	0.80021 0.91654 0.36926 -0.02500
C 	C 	0.79346 0.96788 0.21951 0.09100
C 	C 	0.80287 0.93168 0.48884 0.05900
C 	C 	0.79281 0.88053 0.38424 0.06700
C 	C 	0.80152 0.02315 0.31851 0.03900
N 	N 	0.78690 0.85174 0.39619 -0.11300
N 	N 	0.79839 0.05208 0.30421 -0.12600
N 	N 	0.80223 0.92324 0.54346 -0.11200
N 	N 	0.78523 0.97396 0.16594 -0.10300
C 	C 	0.04013 0.85880 0.43974 -0.09100
C 	C 	0.01022 0.86125 0.47616 0.00000
C 	C 	0.97935 0.86511 0.44215 -0.00700
C 	C 	0.97863 0.86019 0.37214 -0.07500
C 	C 	0.00739 0.84523 0.34062 -0.01000
C 	C 	0.03842 0.84490 0.37486 -0.00600
C 	C 	0.01095 0.85495 0.54641 0.09500
C 	C 	0.00502 0.82979 0.27449 0.09500
C 	C 	0.06877 0.83206 0.34267 0.07700
C 	C 	0.94922 0.87505 0.47846 0.05900
N 	N 	0.09303 0.82178 0.31699 -0.11000
N 	N 	0.92518 0.88301 0.50758 -0.15300
N 	N 	0.00343 0.81761 0.22150 -0.11300
N 	N 	0.01177 0.84949 0.60250 -0.10700
C 	C 	0.89687 0.75585 0.15845 -0.03100
C 	C 	0.91086 0.78691 0.13505 -0.09300
C 	C 	0.94510 0.78630 0.11527 0.12500
C 	C 	0.96658 0.76002 0.13901 -0.07000
C 	C 	0.95350 0.73344 0.17798 -0.03000
C 	C 	0.91805 0.72957 0.18290 0.08500
N 	N 	0.90430 0.70129 0.21203 -0.19500
H 	H 	0.86983 0.75428 0.16629 0.05200
H 	H 	0.99344 0.76088 0.12885 0.06000
N 	N 	0.95707 0.80993 0.07222 -0.20000
H 	H 	0.87812 0.69908 0.21690 0.08800
H 	H 	0.91937 0.68091 0.22876 0.08900
H 	H 	0.94059 0.82574 0.04576 0.11500
H 	H 	0.98278 0.81070 0.06086 0.10100
