data_crystal

_cell_length_a 34.95309
_cell_length_b 31.98091
_cell_length_c 46.34104
_cell_angle_alpha 86.85039
_cell_angle_beta  88.43719
_cell_angle_gamma 122.18683

_symmetry_space_group_name_	'P 1'
_symmetry_space_group_name_H-M	'P 1'

loop_
_symmetry_equiv_pos_as_xyz
  x,y,z

loop_
_atom_site_label
_atom_site_type_symbol
_atom_site_fract_x
_atom_site_fract_y
_atom_site_fract_z
_atom_site_charge
Zn	Zn	0.94753 0.87064 0.33376 1.22600
Zn	Zn	0.04055 0.88973 0.29614 1.19700
C 	C 	0.03351 0.91844 0.42243 0.28700
Zn	Zn	0.03683 0.89422 0.36144 1.22100
Zn	Zn	0.94296 0.86557 0.39938 1.20200
H 	H 	0.03270 0.95117 0.32419 0.18300
C 	C 	0.02591 0.80545 0.34041 0.27600
O 	O 	0.88464 0.85889 0.39132 -0.43000
O 	O 	0.87775 0.82556 0.34804 -0.37500
O 	O 	0.01871 0.91481 0.32650 -0.79600
O 	O 	0.99126 0.86166 0.26871 -0.41200
O 	O 	0.94532 0.92994 0.33902 -0.41200
O 	O 	0.92789 0.84031 0.29695 -0.40100
O 	O 	0.97761 0.94385 0.38275 -0.38400
O 	O 	0.10037 0.90198 0.30590 -0.43400
H 	H 	0.95235 0.80989 0.36730 0.19500
O 	O 	0.10703 0.93996 0.34755 -0.37300
O 	O 	0.96543 0.84605 0.36674 -0.78900
O 	O 	0.99118 0.88123 0.42653 -0.42800
O 	O 	0.04271 0.83621 0.36095 -0.41100
O 	O 	0.05432 0.93327 0.39631 -0.40400
O 	O 	0.00903 0.81565 0.31795 -0.39600
C 	C 	0.86051 0.83723 0.36935 0.28700
C 	C 	0.95201 0.85803 0.27202 0.27900
C 	C 	0.96464 0.95899 0.36005 0.27400
C 	C 	0.12529 0.92940 0.32617 0.28500
Zn	Zn	0.96335 0.39653 0.31921 1.22600
Zn	Zn	0.03507 0.36294 0.29369 1.19500
C 	C 	0.02949 0.41754 0.41383 0.28800
Zn	Zn	0.02994 0.38198 0.35626 1.22100
Zn	Zn	0.94717 0.38985 0.38533 1.20300
H 	H 	0.05455 0.44417 0.31378 0.18500
C 	C 	0.99295 0.28069 0.34432 0.29400
O 	O 	0.90529 0.40956 0.37225 -0.43000
O 	O 	0.89593 0.37999 0.32740 -0.37200
O 	O 	0.02926 0.40919 0.31759 -0.79500
O 	O 	0.98691 0.34431 0.26615 -0.41500
O 	O 	0.98710 0.46720 0.32300 -0.40100
O 	O 	0.94478 0.37602 0.27987 -0.39100
O 	O 	0.00297 0.46505 0.37055 -0.39200
O 	O 	0.08315 0.35459 0.30944 -0.43600
H 	H 	0.93752 0.32234 0.35463 0.19200
O 	O 	0.09811 0.40177 0.34810 -0.37100
O 	O 	0.96031 0.35825 0.35474 -0.78600
O 	O 	0.98529 0.38752 0.41575 -0.42700
O 	O 	0.01322 0.31288 0.36364 -0.42300
O 	O 	0.05309 0.42456 0.38941 -0.40000
O 	O 	0.98482 0.29478 0.31925 -0.39000
C 	C 	0.88382 0.39779 0.34827 0.28800
C 	C 	0.97006 0.37175 0.26007 0.26800
C 	C 	0.00401 0.48992 0.34656 0.26800
C 	C 	0.10930 0.37868 0.33027 0.28300
Zn	Zn	0.46335 0.89653 0.31921 1.22400
Zn	Zn	0.53507 0.86294 0.29369 1.19800
C 	C 	0.52949 0.91754 0.41383 0.30200
Zn	Zn	0.52994 0.88198 0.35626 1.22300
Zn	Zn	0.44717 0.88985 0.38533 1.20100
H 	H 	0.55455 0.94417 0.31378 0.18500
C 	C 	0.49295 0.78069 0.34432 0.28000
O 	O 	0.40529 0.90956 0.37225 -0.43400
O 	O 	0.39593 0.87999 0.32740 -0.37300
O 	O 	0.52926 0.90919 0.31759 -0.78900
O 	O 	0.48691 0.84431 0.26615 -0.41900
O 	O 	0.48710 0.96720 0.32300 -0.41400
O 	O 	0.44478 0.87601 0.27987 -0.39300
O 	O 	0.50297 0.96505 0.37056 -0.38900
O 	O 	0.58315 0.85459 0.30944 -0.43200
H 	H 	0.43752 0.82234 0.35463 0.19200
O 	O 	0.59811 0.90177 0.34810 -0.37000
O 	O 	0.46031 0.85825 0.35474 -0.79100
O 	O 	0.48528 0.88752 0.41575 -0.44100
O 	O 	0.51323 0.81288 0.36364 -0.41000
O 	O 	0.55309 0.92456 0.38941 -0.40100
O 	O 	0.48482 0.79479 0.31925 -0.39200
C 	C 	0.38382 0.89779 0.34827 0.28800
C 	C 	0.47006 0.87175 0.26007 0.26700
C 	C 	0.50401 0.98992 0.34656 0.28000
C 	C 	0.60930 0.87868 0.33027 0.28300
Zn	Zn	0.44753 0.37064 0.33376 1.22500
Zn	Zn	0.54055 0.38973 0.29614 1.20000
C 	C 	0.53351 0.41844 0.42243 0.30200
Zn	Zn	0.53683 0.39422 0.36144 1.22300
Zn	Zn	0.44296 0.36557 0.39938 1.20100
H 	H 	0.53270 0.45117 0.32419 0.18600
C 	C 	0.52591 0.30545 0.34041 0.27700
O 	O 	0.38464 0.35890 0.39132 -0.43100
O 	O 	0.37775 0.32557 0.34804 -0.37600
O 	O 	0.51871 0.41481 0.32650 -0.79000
O 	O 	0.49126 0.36166 0.26871 -0.41800
O 	O 	0.44532 0.42995 0.33902 -0.41400
O 	O 	0.42789 0.34031 0.29695 -0.40300
O 	O 	0.47761 0.44385 0.38275 -0.38800
O 	O 	0.60037 0.40198 0.30590 -0.43200
H 	H 	0.45235 0.30989 0.36730 0.19300
O 	O 	0.60703 0.43996 0.34755 -0.37100
O 	O 	0.46543 0.34605 0.36674 -0.79400
O 	O 	0.49118 0.38123 0.42653 -0.44000
O 	O 	0.54270 0.33621 0.36095 -0.40900
O 	O 	0.55432 0.43327 0.39631 -0.40300
O 	O 	0.50902 0.31565 0.31795 -0.39100
C 	C 	0.36051 0.33723 0.36935 0.28700
C 	C 	0.45201 0.35803 0.27202 0.27900
C 	C 	0.46464 0.45900 0.36005 0.27600
C 	C 	0.62528 0.42940 0.32617 0.28500
Zn	Zn	0.83552 0.98967 0.99701 1.22400
Zn	Zn	0.81554 0.88199 0.97032 1.19800
C 	C 	0.83930 0.91962 0.09472 0.30000
Zn	Zn	0.82065 0.89734 0.03443 1.22400
Zn	Zn	0.82256 0.99075 0.06307 1.20000
H 	H 	0.88281 0.94580 0.99615 0.18600
C 	C 	0.73193 0.82778 0.01534 0.27900
O 	O 	0.83655 0.05766 0.05044 -0.43200
O 	O 	0.81808 0.04293 0.00355 -0.37700
O 	O 	0.85017 0.93383 0.99717 -0.79200
O 	O 	0.80185 0.91809 0.93998 -0.41600
O 	O 	0.89887 0.04008 0.00362 -0.41200
O 	O 	0.81999 0.99210 0.95652 -0.39500
O 	O 	0.89424 0.01690 0.05209 -0.37800
O 	O 	0.81220 0.82138 0.98704 -0.43000
H 	H 	0.76481 0.93213 0.02911 0.19000
O 	O 	0.84532 0.85013 0.02952 -0.36600
O 	O 	0.79756 0.94658 0.03113 -0.79200
O 	O 	0.81992 0.94529 0.09578 -0.43200
O 	O 	0.75806 0.83853 0.03717 -0.40900
O 	O 	0.85424 0.91406 0.06982 -0.41200
O 	O 	0.74798 0.85463 0.99034 -0.39000
C 	C 	0.83517 0.07369 0.02398 0.29100
C 	C 	0.82445 0.96686 0.93656 0.26500
C 	C 	0.91821 0.04434 0.02823 0.27800
C 	C 	0.83706 0.82181 0.00805 0.28100
Zn	Zn	0.03530 0.59898 0.96551 1.22300
Zn	Zn	0.03149 0.50323 0.93795 1.19800
C 	C 	0.03766 0.53239 0.06398 0.27100
Zn	Zn	0.02528 0.50926 0.00329 1.22200
Zn	Zn	0.03867 0.61375 0.02970 1.19900
H 	H 	0.09273 0.56606 0.96879 0.19000
C 	C 	0.93984 0.44952 0.97602 0.27500
O 	O 	0.04242 0.67415 0.01262 -0.43200
O 	O 	0.00883 0.64447 0.97054 -0.36900
O 	O 	0.05966 0.55099 0.96805 -0.79300
O 	O 	0.03013 0.54455 0.90449 -0.43700
O 	O 	0.09803 0.65884 0.96399 -0.40600
O 	O 	0.00194 0.58246 0.93022 -0.41900
O 	O 	0.10663 0.64067 0.01082 -0.39000
O 	O 	0.01919 0.43763 0.95249 -0.43800
H 	H 	0.97337 0.54781 0.00381 0.19700
O 	O 	0.04670 0.45915 0.99704 -0.38000
O 	O 	0.00638 0.56163 0.00286 -0.80400
O 	O 	0.05116 0.57964 0.06202 -0.41800
O 	O 	0.96216 0.45487 0.99944 -0.40600
O 	O 	0.04769 0.51370 0.04251 -0.40000
O 	O 	0.96097 0.47737 0.95171 -0.37500
C 	C 	0.01730 0.67327 0.99172 0.26900
C 	C 	0.01559 0.57490 0.90550 0.30200
C 	C 	0.12362 0.66822 0.98609 0.27600
C 	C 	0.03000 0.42667 0.97749 0.28900
Zn	Zn	0.53530 0.09898 0.96551 1.22300
Zn	Zn	0.53149 0.00323 0.93795 1.20000
C 	C 	0.53766 0.03239 0.06398 0.27100
Zn	Zn	0.52528 0.00926 0.00329 1.22500
Zn	Zn	0.53867 0.11375 0.02970 1.20000
H 	H 	0.59273 0.06606 0.96879 0.19100
C 	C 	0.43984 0.94952 0.97602 0.27600
O 	O 	0.54242 0.17415 0.01262 -0.43100
O 	O 	0.50882 0.14447 0.97054 -0.36800
O 	O 	0.55966 0.05099 0.96805 -0.79100
O 	O 	0.53012 0.04455 0.90449 -0.43200
O 	O 	0.59803 0.15884 0.96399 -0.40500
O 	O 	0.50194 0.08246 0.93022 -0.41400
O 	O 	0.60663 0.14067 0.01083 -0.38900
O 	O 	0.51919 0.93763 0.95250 -0.43500
H 	H 	0.47337 0.04781 0.00381 0.18600
O 	O 	0.54670 0.95915 0.99704 -0.37900
O 	O 	0.50638 0.06163 0.00286 -0.79200
O 	O 	0.55116 0.07964 0.06202 -0.41500
O 	O 	0.46216 0.95486 0.99944 -0.41500
O 	O 	0.54769 0.01370 0.04251 -0.39700
O 	O 	0.46097 0.97737 0.95171 -0.38300
C 	C 	0.51730 0.17327 0.99172 0.28200
C 	C 	0.51559 0.07490 0.90551 0.30000
C 	C 	0.62362 0.16822 0.98609 0.27600
C 	C 	0.53000 0.92667 0.97749 0.29000
Zn	Zn	0.33552 0.48967 0.99701 1.22400
Zn	Zn	0.31554 0.38199 0.97032 1.19800
C 	C 	0.33930 0.41962 0.09472 0.29900
Zn	Zn	0.32065 0.39734 0.03443 1.22400
Zn	Zn	0.32256 0.49075 0.06307 1.20000
H 	H 	0.38281 0.44580 0.99615 0.18500
C 	C 	0.23193 0.32778 0.01534 0.27900
O 	O 	0.33655 0.55766 0.05044 -0.43400
O 	O 	0.31808 0.54293 0.00355 -0.37900
O 	O 	0.35017 0.43383 0.99717 -0.79200
O 	O 	0.30185 0.41809 0.93998 -0.41600
O 	O 	0.39887 0.54008 0.00362 -0.41400
O 	O 	0.31999 0.49210 0.95652 -0.39400
O 	O 	0.39424 0.51690 0.05209 -0.38000
O 	O 	0.31220 0.32138 0.98704 -0.43000
H 	H 	0.26481 0.43213 0.02911 0.19000
O 	O 	0.34532 0.35013 0.02952 -0.36700
O 	O 	0.29756 0.44658 0.03113 -0.79100
O 	O 	0.31992 0.44529 0.09578 -0.43200
O 	O 	0.25806 0.33853 0.03717 -0.41000
O 	O 	0.35424 0.41406 0.06982 -0.41200
O 	O 	0.24798 0.35463 0.99034 -0.39000
C 	C 	0.33517 0.57369 0.02398 0.29100
C 	C 	0.32445 0.46686 0.93656 0.26500
C 	C 	0.41821 0.54434 0.02823 0.27800
C 	C 	0.33706 0.32181 0.00805 0.28000
Zn	Zn	0.98541 0.08488 0.69156 1.22700
Zn	Zn	0.07637 0.09182 0.72252 1.19700
C 	C 	0.04265 0.06084 0.59752 0.29800
Zn	Zn	0.06400 0.08487 0.65776 1.22300
Zn	Zn	0.98070 0.08615 0.62613 1.20400
H 	H 	0.01337 0.02077 0.69713 0.18300
C 	C 	0.13032 0.18082 0.67644 0.27600
O 	O 	0.92257 0.07778 0.63926 -0.42900
O 	O 	0.94473 0.11490 0.68161 -0.36500
O 	O 	0.02851 0.05729 0.69483 -0.79000
O 	O 	0.04564 0.10852 0.75302 -0.41200
O 	O 	0.93216 0.01741 0.68926 -0.40600
O 	O 	0.99208 0.11369 0.72882 -0.38700
O 	O 	0.95377 0.00981 0.64365 -0.37900
O 	O 	0.13248 0.09496 0.70832 -0.42900
H 	H 	0.04038 0.15333 0.65496 0.19000
O 	O 	0.10454 0.05508 0.66731 -0.37400
O 	O 	0.02443 0.11674 0.65604 -0.80000
O 	O 	0.01763 0.08014 0.59473 -0.43500
O 	O 	0.11965 0.15143 0.65525 -0.41300
O 	O 	0.04857 0.04630 0.62322 -0.41100
O 	O 	0.10428 0.16566 0.70072 -0.39100
C 	C 	0.91782 0.10129 0.66007 0.28300
C 	C 	0.00418 0.09937 0.75213 0.24800
C 	C 	0.92658 0.99025 0.66748 0.27100
C 	C 	0.13715 0.07540 0.68519 0.28500
Zn	Zn	0.01959 0.66995 0.65471 1.22200
Zn	Zn	0.11701 0.69478 0.68450 1.19800
C 	C 	0.07131 0.62921 0.56559 0.29900
Zn	Zn	0.09895 0.66882 0.62262 1.22300
Zn	Zn	0.01445 0.66479 0.58877 1.19500
H 	H 	0.05404 0.61348 0.66679 0.18400
C 	C 	0.16516 0.77002 0.63147 0.28000
O 	O 	0.95380 0.65353 0.60061 -0.42200
O 	O 	0.97645 0.69440 0.64168 -0.37200
O 	O 	0.06682 0.64899 0.66102 -0.79000
O 	O 	0.08919 0.72240 0.70862 -0.42000
O 	O 	0.96886 0.60011 0.65436 -0.40600
O 	O 	0.02090 0.69963 0.69115 -0.40000
O 	O 	0.99064 0.59128 0.60926 -0.38500
O 	O 	0.17157 0.69450 0.67131 -0.43000
H 	H 	0.07315 0.73587 0.61610 0.19100
O 	O 	0.14041 0.64148 0.63552 -0.36700
O 	O 	0.05800 0.69936 0.61850 -0.79000
O 	O 	0.05315 0.65564 0.56009 -0.43400
O 	O 	0.15476 0.73490 0.61407 -0.40900
O 	O 	0.08009 0.62172 0.59216 -0.40800
O 	O 	0.13985 0.76042 0.65535 -0.39600
C 	C 	0.94536 0.67131 0.62325 0.28500
C 	C 	0.04514 0.70120 0.71278 0.27200
C 	C 	0.96269 0.57268 0.63264 0.28000
C 	C 	0.17098 0.66192 0.65479 0.27900
Zn	Zn	0.51958 0.16995 0.65471 1.22500
Zn	Zn	0.61700 0.19478 0.68450 1.19800
C 	C 	0.57131 0.12921 0.56559 0.30000
Zn	Zn	0.59895 0.16882 0.62262 1.22400
Zn	Zn	0.51445 0.16479 0.58877 1.19900
H 	H 	0.55403 0.11348 0.66679 0.18700
C 	C 	0.66516 0.27002 0.63147 0.28100
O 	O 	0.45380 0.15353 0.60061 -0.42600
O 	O 	0.47645 0.19440 0.64168 -0.37800
O 	O 	0.56681 0.14899 0.66102 -0.78900
O 	O 	0.58919 0.22240 0.70862 -0.41800
O 	O 	0.46886 0.10011 0.65436 -0.41100
O 	O 	0.52090 0.19963 0.69115 -0.39500
O 	O 	0.49064 0.09128 0.60926 -0.39100
O 	O 	0.67157 0.19450 0.67131 -0.43000
H 	H 	0.57315 0.23587 0.61610 0.19200
O 	O 	0.64041 0.14148 0.63553 -0.36600
O 	O 	0.55800 0.19936 0.61851 -0.78700
O 	O 	0.55315 0.15564 0.56009 -0.43100
O 	O 	0.65476 0.23490 0.61408 -0.40900
O 	O 	0.58009 0.12172 0.59216 -0.40600
O 	O 	0.63984 0.26042 0.65535 -0.39500
C 	C 	0.44536 0.17131 0.62325 0.28600
C 	C 	0.54514 0.20119 0.71278 0.27000
C 	C 	0.46269 0.07268 0.63264 0.28000
C 	C 	0.67098 0.16192 0.65479 0.27900
Zn	Zn	0.48541 0.58488 0.69156 1.22400
Zn	Zn	0.57637 0.59183 0.72252 1.19800
C 	C 	0.54265 0.56084 0.59753 0.29800
Zn	Zn	0.56400 0.58487 0.65776 1.22400
Zn	Zn	0.48070 0.58614 0.62613 1.20100
H 	H 	0.51337 0.52077 0.69713 0.18500
C 	C 	0.63032 0.68083 0.67644 0.27600
O 	O 	0.42257 0.57778 0.63926 -0.43200
O 	O 	0.44473 0.61490 0.68161 -0.36800
O 	O 	0.52851 0.55729 0.69483 -0.78700
O 	O 	0.54564 0.60851 0.75302 -0.41300
O 	O 	0.43216 0.51741 0.68926 -0.41200
O 	O 	0.49208 0.61369 0.72882 -0.40200
O 	O 	0.45377 0.50980 0.64365 -0.38700
O 	O 	0.63249 0.59496 0.70832 -0.42800
H 	H 	0.54038 0.65333 0.65496 0.19200
O 	O 	0.60454 0.55508 0.66731 -0.37300
O 	O 	0.52443 0.61674 0.65604 -0.79500
O 	O 	0.51762 0.58014 0.59473 -0.43000
O 	O 	0.61965 0.65143 0.65525 -0.41300
O 	O 	0.54857 0.54630 0.62322 -0.40900
O 	O 	0.60428 0.66566 0.70072 -0.38900
C 	C 	0.41782 0.60129 0.66007 0.28200
C 	C 	0.50418 0.59937 0.75213 0.27300
C 	C 	0.42658 0.49025 0.66748 0.27600
C 	C 	0.63715 0.57541 0.68519 0.28500
C 	C 	0.83742 0.44256 0.62884 0.10800
N 	N 	0.84733 0.46832 0.65272 -0.06300
N 	N 	0.88850 0.50820 0.65474 -0.04900
C 	C 	0.92092 0.52371 0.63287 0.05200
N 	N 	0.91140 0.49717 0.60929 -0.05100
N 	N 	0.87027 0.45693 0.60738 -0.06300
C 	C 	0.70727 0.31855 0.62595 0.04700
N 	N 	0.74189 0.32369 0.60877 -0.05000
N 	N 	0.78326 0.36441 0.60865 -0.06400
C 	C 	0.79114 0.40087 0.62588 0.10700
N 	N 	0.75614 0.39660 0.64207 -0.06300
N 	N 	0.71482 0.35608 0.64207 -0.05300
C 	C 	0.29113 0.90087 0.62587 0.10600
N 	N 	0.25613 0.89660 0.64206 -0.06400
N 	N 	0.21482 0.85608 0.64206 -0.05400
C 	C 	0.20727 0.81854 0.62594 0.04600
N 	N 	0.24189 0.82369 0.60876 -0.05100
N 	N 	0.28326 0.86441 0.60865 -0.06400
C 	C 	0.42092 0.02371 0.63287 0.05200
N 	N 	0.41140 0.99717 0.60929 -0.05500
N 	N 	0.37027 0.95694 0.60738 -0.06500
C 	C 	0.33742 0.94256 0.62883 0.10600
N 	N 	0.34733 0.96832 0.65272 -0.06400
N 	N 	0.38850 0.00820 0.65474 -0.04900
C 	C 	0.81341 0.62961 0.64782 0.10800
N 	N 	0.84877 0.66408 0.66191 -0.06200
N 	N 	0.89112 0.67924 0.65309 -0.04800
C 	C 	0.89943 0.66042 0.62989 0.05200
N 	N 	0.86410 0.62657 0.61542 -0.05100
N 	N 	0.82167 0.61154 0.62419 -0.06300
C 	C 	0.68156 0.58310 0.67717 0.05100
N 	N 	0.68951 0.57098 0.65099 -0.05000
N 	N 	0.73146 0.58470 0.64187 -0.06300
C 	C 	0.76666 0.61131 0.65856 0.10800
N 	N 	0.75852 0.62245 0.68497 -0.06300
N 	N 	0.71662 0.60854 0.69413 -0.05100
C 	C 	0.27406 0.63329 0.65868 0.10600
N 	N 	0.27157 0.66316 0.67734 -0.06500
N 	N 	0.23852 0.67214 0.67614 -0.05500
C 	C 	0.20698 0.65146 0.65629 0.04900
N 	N 	0.20933 0.62140 0.63773 -0.05000
N 	N 	0.24243 0.61249 0.63888 -0.06400
C 	C 	0.38001 0.60896 0.66022 0.04900
N 	N 	0.34937 0.58998 0.63974 -0.05300
N 	N 	0.31536 0.59745 0.63941 -0.06500
C 	C 	0.31107 0.62425 0.65950 0.10600
N 	N 	0.34166 0.64317 0.68006 -0.06400
N 	N 	0.37565 0.63556 0.68044 -0.05000
C 	C 	0.75830 0.81046 0.67178 0.10700
N 	N 	0.74212 0.78514 0.64791 -0.06400
N 	N 	0.70042 0.74475 0.64907 -0.05200
C 	C 	0.67354 0.72887 0.67403 0.05000
N 	N 	0.68944 0.75474 0.69772 -0.05300
N 	N 	0.73120 0.79496 0.69661 -0.06400
C 	C 	0.88707 0.93931 0.66891 0.05400
N 	N 	0.86316 0.91729 0.69465 -0.05300
N 	N 	0.82262 0.87539 0.69560 -0.06400
C 	C 	0.80469 0.85423 0.67084 0.10700
N 	N 	0.82926 0.87520 0.64516 -0.06400
N 	N 	0.86984 0.91726 0.64420 -0.05300
C 	C 	0.25830 0.31046 0.67178 0.10700
N 	N 	0.23120 0.29495 0.69661 -0.06400
N 	N 	0.18944 0.25474 0.69772 -0.05400
C 	C 	0.17354 0.22886 0.67403 0.04900
N 	N 	0.20042 0.24475 0.64907 -0.05200
N 	N 	0.24212 0.28514 0.64791 -0.06400
C 	C 	0.38707 0.43930 0.66891 0.05100
N 	N 	0.36984 0.41726 0.64420 -0.05300
N 	N 	0.32926 0.37520 0.64516 -0.06400
C 	C 	0.30469 0.35423 0.67085 0.10700
N 	N 	0.32262 0.37538 0.69561 -0.06400
N 	N 	0.36316 0.41729 0.69465 -0.05300
C 	C 	0.81107 0.12425 0.65950 0.10700
N 	N 	0.84166 0.14317 0.68006 -0.06300
N 	N 	0.87565 0.13556 0.68044 -0.04900
C 	C 	0.88002 0.10896 0.66022 0.05000
N 	N 	0.84937 0.08999 0.63974 -0.05200
N 	N 	0.81536 0.09745 0.63941 -0.06400
C 	C 	0.70698 0.15146 0.65629 0.05000
N 	N 	0.70933 0.12140 0.63773 -0.04900
N 	N 	0.74243 0.11249 0.63888 -0.06300
C 	C 	0.77406 0.13329 0.65868 0.10600
N 	N 	0.77157 0.16316 0.67734 -0.06400
N 	N 	0.73852 0.17214 0.67614 -0.05400
C 	C 	0.26665 0.11131 0.65856 0.10800
N 	N 	0.25851 0.12245 0.68497 -0.06300
N 	N 	0.21661 0.10854 0.69413 -0.05200
C 	C 	0.18156 0.08310 0.67717 0.05100
N 	N 	0.18951 0.07097 0.65099 -0.05000
N 	N 	0.23145 0.08470 0.64187 -0.06300
C 	C 	0.39943 0.16042 0.62989 0.05000
N 	N 	0.36410 0.12657 0.61543 -0.05100
N 	N 	0.32167 0.11154 0.62419 -0.06300
C 	C 	0.31340 0.12960 0.64782 0.10800
N 	N 	0.34877 0.16408 0.66191 -0.06300
N 	N 	0.39112 0.17923 0.65309 -0.04900
C 	C 	0.42376 0.55397 0.82954 0.10500
N 	N 	0.46965 0.58054 0.82987 -0.06700
N 	N 	0.49544 0.59582 0.80512 -0.05300
C 	C 	0.47608 0.58584 0.77933 0.04600
N 	N 	0.43022 0.56015 0.77899 -0.05700
N 	N 	0.40442 0.54405 0.80375 -0.06400
C 	C 	0.34667 0.49212 0.90807 0.04200
N 	N 	0.33286 0.46726 0.88384 -0.05500
N 	N 	0.35656 0.48786 0.85851 -0.06700
C 	C 	0.39536 0.53340 0.85683 0.10400
N 	N 	0.40896 0.55847 0.88099 -0.06500
N 	N 	0.38474 0.53828 0.90620 -0.05900
C 	C 	0.45974 0.77634 0.99846 0.10700
N 	N 	0.47679 0.79469 0.97087 -0.06300
N 	N 	0.50390 0.84338 0.96452 -0.05200
C 	C 	0.51468 0.87508 0.98557 0.04800
N 	N 	0.50052 0.85642 0.01350 -0.05000
N 	N 	0.47334 0.80770 0.01987 -0.06300
C 	C 	0.35958 0.62705 0.01638 0.04700
N 	N 	0.37351 0.65843 0.03779 -0.05100
N 	N 	0.40515 0.70626 0.03200 -0.06300
C 	C 	0.42398 0.72405 0.00466 0.10800
N 	N 	0.40863 0.69321 0.98300 -0.06200
N 	N 	0.37694 0.64535 0.98879 -0.05000
C 	C 	0.44244 0.23865 0.99818 0.10400
N 	N 	0.44739 0.22282 0.97261 -0.06400
N 	N 	0.47381 0.20475 0.97000 -0.04800
C 	C 	0.49623 0.20225 0.99283 0.04500
N 	N 	0.49254 0.21971 0.01811 -0.05900
N 	N 	0.46607 0.23776 0.02074 -0.06600
C 	C 	0.35772 0.29242 0.00693 0.04600
N 	N 	0.37970 0.28932 0.02985 -0.04800
N 	N 	0.40596 0.27105 0.02725 -0.06400
C 	C 	0.41117 0.25559 0.00160 0.10500
N 	N 	0.38792 0.25700 0.97896 -0.06700
N 	N 	0.36162 0.27527 0.98158 -0.06000
C 	C 	0.50205 0.15481 0.79863 0.10300
N 	N 	0.47601 0.12712 0.77765 -0.06600
N 	N 	0.48708 0.14451 0.74992 -0.06200
C 	C 	0.52497 0.18960 0.74238 0.04300
N 	N 	0.54920 0.21858 0.76349 -0.05200
N 	N 	0.53761 0.20161 0.79125 -0.06600
C 	C 	0.50732 0.09373 0.87852 0.04600
N 	N 	0.51406 0.13970 0.87608 -0.05200
N 	N 	0.51001 0.15844 0.85079 -0.06300
C 	C 	0.49792 0.13120 0.82746 0.10600
N 	N 	0.48938 0.08444 0.83027 -0.06700
N 	N 	0.49437 0.06611 0.85538 -0.05200
C 	C 	0.80434 0.33288 0.97890 0.10700
N 	N 	0.82646 0.34691 0.00358 -0.06300
N 	N 	0.86912 0.38534 0.00269 -0.05200
C 	C 	0.89109 0.41102 0.97709 0.05400
N 	N 	0.86885 0.39748 0.95236 -0.05100
N 	N 	0.82598 0.35903 0.95327 -0.06300
C 	C 	0.67163 0.20919 0.98326 0.04900
N 	N 	0.68955 0.23965 0.95847 -0.05200
N 	N 	0.73215 0.27874 0.95682 -0.06400
C 	C 	0.75786 0.28863 0.98001 0.10600
N 	N 	0.73997 0.25792 0.00466 -0.06400
N 	N 	0.69756 0.21882 0.00625 -0.05300
C 	C 	0.30434 0.83288 0.97890 0.10600
N 	N 	0.32646 0.84690 0.00358 -0.06500
N 	N 	0.36912 0.88533 0.00269 -0.05300
C 	C 	0.39109 0.91102 0.97709 0.05100
N 	N 	0.36885 0.89748 0.95236 -0.05300
N 	N 	0.32598 0.85903 0.95327 -0.06400
C 	C 	0.17163 0.70919 0.98326 0.04800
N 	N 	0.18955 0.73965 0.95847 -0.05300
N 	N 	0.23215 0.77874 0.95682 -0.06500
C 	C 	0.25786 0.78863 0.98001 0.10500
N 	N 	0.23997 0.75792 0.00466 -0.06500
N 	N 	0.19756 0.71882 0.00625 -0.05400
C 	C 	0.00205 0.65481 0.79863 0.08000
N 	N 	0.97602 0.62712 0.77764 -0.05700
N 	N 	0.98708 0.64452 0.74992 -0.05400
C 	C 	0.02498 0.68960 0.74238 0.03300
N 	N 	0.04921 0.71858 0.76349 -0.05300
N 	N 	0.03761 0.70161 0.79124 -0.06500
C 	C 	0.00732 0.59373 0.87851 0.03300
N 	N 	0.01406 0.63970 0.87608 -0.05200
N 	N 	0.01001 0.65845 0.85079 -0.07300
C 	C 	0.99792 0.63120 0.82746 0.13000
N 	N 	0.98938 0.58444 0.83026 -0.06800
N 	N 	0.99437 0.56611 0.85538 -0.04300
C 	C 	0.55397 0.65830 0.02616 0.10700
N 	N 	0.53593 0.63460 0.00207 -0.06400
N 	N 	0.49337 0.59594 0.00328 -0.05400
C 	C 	0.46739 0.57973 0.02859 0.05300
N 	N 	0.48577 0.60251 0.05294 -0.05300
N 	N 	0.52857 0.64116 0.05177 -0.06400
C 	C 	0.68442 0.78579 0.01877 0.04900
N 	N 	0.66604 0.76017 0.04501 -0.05300
N 	N 	0.62400 0.72005 0.04758 -0.06500
C 	C 	0.59941 0.70413 0.02391 0.10600
N 	N 	0.61774 0.72997 0.99777 -0.06400
N 	N 	0.65951 0.77027 0.99526 -0.05400
C 	C 	0.05397 0.15830 0.02616 0.10500
N 	N 	0.03594 0.13459 0.00207 -0.07000
N 	N 	0.99337 0.09594 0.00328 -0.04800
C 	C 	0.96739 0.07973 0.02859 0.05500
N 	N 	0.98577 0.10251 0.05294 -0.04700
N 	N 	0.02857 0.14116 0.05177 -0.07000
C 	C 	0.18441 0.28579 0.01877 0.04800
N 	N 	0.16604 0.26017 0.04501 -0.05300
N 	N 	0.12400 0.22005 0.04758 -0.06600
C 	C 	0.09941 0.20413 0.02391 0.10500
N 	N 	0.11774 0.22997 0.99777 -0.06500
N 	N 	0.15951 0.27027 0.99526 -0.05500
C 	C 	0.91117 0.75559 0.00160 0.10600
N 	N 	0.90596 0.77105 0.02725 -0.06300
N 	N 	0.87970 0.78932 0.02985 -0.04800
C 	C 	0.85772 0.79242 0.00693 0.04600
N 	N 	0.86162 0.77527 0.98157 -0.05900
N 	N 	0.88792 0.75700 0.97896 -0.06600
C 	C 	0.99624 0.70225 0.99283 0.05900
N 	N 	0.97381 0.70475 0.97000 -0.04700
N 	N 	0.94739 0.72282 0.97261 -0.06300
C 	C 	0.94244 0.73865 0.99818 0.10500
N 	N 	0.96607 0.73776 0.02073 -0.06500
N 	N 	0.99254 0.71971 0.01811 -0.05800
C 	C 	0.92398 0.22404 0.00466 0.11000
N 	N 	0.90864 0.19321 0.98300 -0.06100
N 	N 	0.87695 0.14535 0.98880 -0.04900
C 	C 	0.85958 0.12705 0.01638 0.04800
N 	N 	0.87350 0.15843 0.03779 -0.05000
N 	N 	0.90515 0.20626 0.03200 -0.06200
C 	C 	0.01468 0.37508 0.98557 0.04500
N 	N 	0.00051 0.35642 0.01350 -0.05600
N 	N 	0.97333 0.30770 0.01986 -0.05600
C 	C 	0.95974 0.27634 0.99847 0.11000
N 	N 	0.97679 0.29469 0.97087 -0.05700
N 	N 	0.00390 0.34337 0.96452 -0.05800
C 	C 	0.92376 0.05397 0.82954 0.10600
N 	N 	0.90442 0.04405 0.80375 -0.06300
N 	N 	0.93022 0.06016 0.77899 -0.05800
C 	C 	0.97608 0.08584 0.77933 0.06200
N 	N 	0.99544 0.09582 0.80512 -0.05200
N 	N 	0.96965 0.08054 0.82987 -0.06400
C 	C 	0.84667 0.99212 0.90807 0.04100
N 	N 	0.88474 0.03828 0.90620 -0.05600
N 	N 	0.90896 0.05847 0.88099 -0.06400
C 	C 	0.89536 0.03340 0.85683 0.10700
N 	N 	0.85656 0.98786 0.85851 -0.06800
N 	N 	0.83285 0.96726 0.88384 -0.05500
C 	C 	0.57509 0.51699 0.52257 0.10600
N 	N 	0.57000 0.55627 0.52119 -0.06400
N 	N 	0.56124 0.57144 0.54529 -0.05400
C 	C 	0.55778 0.54810 0.57149 0.04600
N 	N 	0.56485 0.51024 0.57301 -0.04800
N 	N 	0.57307 0.49467 0.54887 -0.06500
C 	C 	0.55635 0.44625 0.44707 0.04500
N 	N 	0.55044 0.42145 0.47318 -0.05600
N 	N 	0.56017 0.44511 0.49728 -0.06700
C 	C 	0.57537 0.49410 0.49602 0.10600
N 	N 	0.58379 0.51951 0.46975 -0.06400
N 	N 	0.57466 0.49595 0.44560 -0.05000
C 	C 	0.39310 0.36940 0.19753 0.10600
N 	N 	0.37658 0.37126 0.22397 -0.06400
N 	N 	0.39438 0.36588 0.24791 -0.05400
C 	C 	0.42939 0.35887 0.24603 0.04700
N 	N 	0.44556 0.35653 0.21962 -0.05300
N 	N 	0.42748 0.36140 0.19573 -0.06500
C 	C 	0.35044 0.40340 0.12165 0.04500
N 	N 	0.37524 0.38218 0.12065 -0.04700
N 	N 	0.38781 0.37010 0.14497 -0.06300
C 	C 	0.37572 0.37860 0.17103 0.10600
N 	N 	0.35010 0.39889 0.17211 -0.06500
N 	N 	0.33768 0.41118 0.14774 -0.05300
C 	C 	0.57248 0.01408 0.47859 0.10900
N 	N 	0.54977 0.96443 0.48554 -0.06600
N 	N 	0.53869 0.93333 0.46483 -0.05400
C 	C 	0.55097 0.95102 0.43663 0.04200
N 	N 	0.57573 0.00079 0.42982 -0.04700
N 	N 	0.58601 0.03188 0.45048 -0.06400
C 	C 	0.57605 0.10216 0.54263 0.04700
N 	N 	0.57513 0.11514 0.51439 -0.05400
N 	N 	0.57629 0.08834 0.49372 -0.06400
C 	C 	0.57787 0.04752 0.50076 0.10600
N 	N 	0.57945 0.03501 0.52897 -0.06300
N 	N 	0.57896 0.06220 0.54958 -0.04700
C 	C 	0.47267 0.59397 0.35647 0.10600
N 	N 	0.45862 0.56547 0.33374 -0.06500
N 	N 	0.45737 0.52310 0.33467 -0.05300
C 	C 	0.47008 0.50785 0.35837 0.04900
N 	N 	0.48447 0.53645 0.38113 -0.05200
N 	N 	0.48594 0.57910 0.38013 -0.06400
C 	C 	0.48209 0.72978 0.34984 0.04700
N 	N 	0.49881 0.71760 0.37270 -0.05000
N 	N 	0.49463 0.67358 0.37538 -0.06400
C 	C 	0.47374 0.64061 0.35521 0.10600
N 	N 	0.45600 0.65232 0.33280 -0.06500
N 	N 	0.46018 0.69627 0.33013 -0.05400
C 	C 	0.53426 0.13413 0.34506 0.10700
N 	N 	0.52801 0.10814 0.37081 -0.06400
N 	N 	0.52176 0.06314 0.37145 -0.05100
C 	C 	0.52168 0.04300 0.34638 0.05300
N 	N 	0.53029 0.07012 0.32077 -0.05300
N 	N 	0.53650 0.11500 0.32012 -0.06400
C 	C 	0.52702 0.26025 0.34202 0.05000
N 	N 	0.52078 0.23536 0.31805 -0.05300
N 	N 	0.52391 0.19562 0.31896 -0.06400
C 	C 	0.53306 0.17936 0.34392 0.10600
N 	N 	0.53909 0.20408 0.36799 -0.06500
N 	N 	0.53651 0.24427 0.36698 -0.05400
C 	C 	0.48502 0.92892 0.17477 0.10300
N 	N 	0.46760 0.94286 0.19603 -0.06500
N 	N 	0.46044 0.92255 0.22309 -0.05500
C 	C 	0.47061 0.88782 0.22969 0.04300
N 	N 	0.48706 0.87308 0.20829 -0.05900
N 	N 	0.49393 0.89314 0.18120 -0.06700
C 	C 	0.52403 0.00532 0.09278 0.04900
N 	N 	0.52228 0.96200 0.09733 -0.05200
N 	N 	0.50932 0.93726 0.12344 -0.06500
C 	C 	0.49715 0.95481 0.14563 0.10400
N 	N 	0.49839 0.99780 0.14096 -0.06800
N 	N 	0.51167 0.02271 0.11492 -0.05900
C 	C 	0.07248 0.51407 0.47859 0.10500
N 	N 	0.04977 0.46443 0.48554 -0.06600
N 	N 	0.03869 0.43332 0.46483 -0.05600
C 	C 	0.05097 0.45102 0.43663 0.04600
N 	N 	0.07573 0.50078 0.42982 -0.05000
N 	N 	0.08602 0.53188 0.45048 -0.06400
C 	C 	0.07605 0.60216 0.54263 0.04500
N 	N 	0.07513 0.61514 0.51439 -0.05500
N 	N 	0.07629 0.58834 0.49372 -0.06600
C 	C 	0.07787 0.54752 0.50076 0.10500
N 	N 	0.07945 0.53500 0.52897 -0.06400
N 	N 	0.07896 0.56220 0.54958 -0.04800
C 	C 	0.78420 0.42994 0.33629 0.10700
N 	N 	0.79847 0.41416 0.31422 -0.06200
N 	N 	0.82978 0.40304 0.31816 -0.04800
C 	C 	0.84755 0.40720 0.34429 0.05000
N 	N 	0.83344 0.42319 0.36629 -0.05200
N 	N 	0.80206 0.43418 0.36239 -0.06400
C 	C 	0.67169 0.44090 0.32741 0.05000
N 	N 	0.69095 0.44795 0.35319 -0.05000
N 	N 	0.72837 0.44699 0.35572 -0.06300
C 	C 	0.74751 0.43885 0.33255 0.10700
N 	N 	0.72960 0.43440 0.30646 -0.06300
N 	N 	0.69223 0.43539 0.30393 -0.05300
C 	C 	0.24761 0.34509 0.35572 0.10700
N 	N 	0.26120 0.32445 0.33635 -0.06300
N 	N 	0.29572 0.31910 0.34152 -0.04900
C 	C 	0.31747 0.33401 0.36627 0.04900
N 	N 	0.30279 0.35298 0.38610 -0.05100
N 	N 	0.26832 0.35842 0.38091 -0.06400
C 	C 	0.14806 0.37423 0.33577 0.04900
N 	N 	0.16873 0.38770 0.36098 -0.05000
N 	N 	0.20060 0.37844 0.36738 -0.06300
C 	C 	0.21249 0.35523 0.34879 0.10700
N 	N 	0.19225 0.34241 0.32342 -0.06500
N 	N 	0.16040 0.35162 0.31705 -0.05400
C 	C 	0.99715 0.45481 0.14563 0.11600
N 	N 	0.99839 0.49780 0.14095 -0.06100
N 	N 	0.01167 0.52271 0.11492 -0.06600
C 	C 	0.02403 0.50532 0.09278 0.04300
N 	N 	0.02228 0.46200 0.09733 -0.05200
N 	N 	0.00932 0.43726 0.12344 -0.07300
C 	C 	0.97061 0.38782 0.22969 0.04500
N 	N 	0.98707 0.37308 0.20829 -0.05700
N 	N 	0.99393 0.39314 0.18120 -0.06400
C 	C 	0.98502 0.42892 0.17477 0.10300
N 	N 	0.96760 0.44286 0.19603 -0.06400
N 	N 	0.96044 0.42255 0.22309 -0.05300
C 	C 	0.07537 0.99409 0.49601 0.10000
N 	N 	0.06017 0.94511 0.49728 -0.06800
N 	N 	0.05044 0.92145 0.47318 -0.05800
C 	C 	0.05635 0.94625 0.44707 0.04600
N 	N 	0.07465 0.99595 0.44560 -0.05300
N 	N 	0.08379 0.01950 0.46975 -0.06200
C 	C 	0.05778 0.04811 0.57149 0.04500
N 	N 	0.06124 0.07144 0.54529 -0.05500
N 	N 	0.07000 0.05627 0.52119 -0.06600
C 	C 	0.07509 0.01699 0.52257 0.11000
N 	N 	0.07307 0.99467 0.54887 -0.06900
N 	N 	0.06485 0.01024 0.57301 -0.04800
C 	C 	0.03306 0.67936 0.34392 0.10500
N 	N 	0.02391 0.69562 0.31896 -0.06500
N 	N 	0.02078 0.73537 0.31805 -0.05400
C 	C 	0.02702 0.76025 0.34202 0.04800
N 	N 	0.03651 0.74426 0.36698 -0.05500
N 	N 	0.03909 0.70408 0.36798 -0.06600
C 	C 	0.02168 0.54300 0.34638 0.05200
N 	N 	0.02176 0.56314 0.37145 -0.05300
N 	N 	0.02801 0.60814 0.37081 -0.06500
C 	C 	0.03427 0.63413 0.34506 0.10500
N 	N 	0.03650 0.61500 0.32012 -0.06500
N 	N 	0.03029 0.57012 0.32077 -0.05500
C 	C 	0.97374 0.14060 0.35521 0.10800
N 	N 	0.99463 0.17358 0.37538 -0.06200
N 	N 	0.99881 0.21760 0.37270 -0.04700
C 	C 	0.98209 0.22977 0.34983 0.04600
N 	N 	0.96018 0.19627 0.33013 -0.05300
N 	N 	0.95600 0.15232 0.33280 -0.06400
C 	C 	0.97008 0.00785 0.35837 0.05400
N 	N 	0.95736 0.02310 0.33467 -0.05200
N 	N 	0.95861 0.06547 0.33374 -0.06400
C 	C 	0.97266 0.09396 0.35647 0.10800
N 	N 	0.98594 0.07910 0.38013 -0.06100
N 	N 	0.98446 0.03645 0.38112 -0.05000
C 	C 	0.74761 0.84509 0.35572 0.10700
N 	N 	0.76832 0.85842 0.38091 -0.06300
N 	N 	0.80279 0.85298 0.38610 -0.05100
C 	C 	0.81747 0.83400 0.36627 0.05000
N 	N 	0.79572 0.81910 0.34152 -0.04900
N 	N 	0.76120 0.82445 0.33635 -0.06300
C 	C 	0.64807 0.87424 0.33577 0.05000
N 	N 	0.66040 0.85163 0.31705 -0.05300
N 	N 	0.69226 0.84241 0.32342 -0.06400
C 	C 	0.71249 0.85523 0.34879 0.10700
N 	N 	0.70060 0.87844 0.36738 -0.06300
N 	N 	0.66873 0.88770 0.36098 -0.04900
C 	C 	0.28420 0.92994 0.33629 0.10600
N 	N 	0.30206 0.93418 0.36239 -0.06500
N 	N 	0.33344 0.92319 0.36630 -0.05300
C 	C 	0.34755 0.90720 0.34429 0.04900
N 	N 	0.32978 0.90303 0.31816 -0.04900
N 	N 	0.29846 0.91416 0.31422 -0.06300
C 	C 	0.17169 0.94090 0.32741 0.04900
N 	N 	0.19222 0.93538 0.30394 -0.05400
N 	N 	0.22959 0.93440 0.30646 -0.06400
C 	C 	0.24751 0.93885 0.33255 0.10600
N 	N 	0.22837 0.94699 0.35572 -0.06400
N 	N 	0.19095 0.94795 0.35319 -0.05100
C 	C 	0.87572 0.87860 0.17103 0.10700
N 	N 	0.88782 0.87011 0.14497 -0.06200
N 	N 	0.87524 0.88218 0.12065 -0.04600
C 	C 	0.85045 0.90339 0.12165 0.04600
N 	N 	0.83768 0.91118 0.14774 -0.05300
N 	N 	0.85010 0.89889 0.17211 -0.06500
C 	C 	0.92939 0.85887 0.24603 0.04900
N 	N 	0.89438 0.86588 0.24791 -0.05400
N 	N 	0.87658 0.87126 0.22397 -0.06300
C 	C 	0.89310 0.86940 0.19753 0.10600
N 	N 	0.92749 0.86140 0.19573 -0.06400
N 	N 	0.94557 0.85653 0.21961 -0.05200
