data_crystal

_cell_length_a 33.65306
_cell_length_b 32.07303
_cell_length_c 33.93058
_cell_angle_alpha 89.99942
_cell_angle_beta  69.16101
_cell_angle_gamma 118.37994

_symmetry_space_group_name_	'P 1'
_symmetry_space_group_name_H-M	'P 1'

loop_
_symmetry_equiv_pos_as_xyz
  x,y,z

loop_
_atom_site_label
_atom_site_type_symbol
_atom_site_fract_x
_atom_site_fract_y
_atom_site_fract_z
_atom_site_charge
O 	O 	0.02124 0.23922 0.35706 -0.22800
C 	C 	0.00578 0.26973 0.54352 -0.03100
C 	C 	0.01095 0.31840 0.47176 0.07900
H 	H 	0.00410 0.25123 0.57129 0.07200
I 	I 	0.01672 0.36851 0.42603 -0.06700
C 	C 	0.01694 0.23461 0.28727 -0.07900
C 	C 	0.00908 0.20366 0.22310 -0.04300
H 	H 	0.02269 0.19063 0.19483 0.07100
O 	O 	0.02124 0.23922 0.85706 -0.22800
C 	C 	0.00578 0.26973 0.04352 -0.03100
C 	C 	0.01095 0.31841 0.97176 0.08100
H 	H 	0.00410 0.25123 0.07129 0.07200
I 	I 	0.01672 0.36851 0.92603 -0.06600
C 	C 	0.01694 0.23461 0.78727 -0.08000
C 	C 	0.00908 0.20366 0.72310 -0.04400
H 	H 	0.02269 0.19063 0.69483 0.07000
O 	O 	0.02124 0.73922 0.35706 -0.22900
C 	C 	0.00578 0.76973 0.54352 -0.03200
C 	C 	0.01095 0.81841 0.47176 0.07800
H 	H 	0.00410 0.75123 0.57129 0.07100
I 	I 	0.01672 0.86850 0.42603 -0.06800
C 	C 	0.01694 0.73461 0.28727 -0.08000
C 	C 	0.00908 0.70366 0.22310 -0.04400
H 	H 	0.02269 0.69063 0.19483 0.07000
O 	O 	0.02124 0.73922 0.85706 -0.22900
C 	C 	0.00578 0.76973 0.04352 -0.03200
C 	C 	0.01095 0.81841 0.97176 0.08000
H 	H 	0.00410 0.75123 0.07129 0.07100
I 	I 	0.01672 0.86851 0.92603 -0.06700
C 	C 	0.01694 0.73461 0.78727 -0.08000
C 	C 	0.00908 0.70365 0.72310 -0.04400
H 	H 	0.02269 0.69063 0.69483 0.07000
C 	C 	0.04476 0.25269 0.31496 0.29100
C 	C 	0.05081 0.29702 0.50850 0.00800
C 	C 	0.05287 0.31783 0.47101 -0.04800
C 	C 	0.03406 0.21702 0.25059 0.08000
C 	C 	0.04476 0.25269 0.81496 0.29100
C 	C 	0.05081 0.29702 0.00850 0.00500
C 	C 	0.05287 0.31783 0.97101 -0.04700
C 	C 	0.03406 0.21702 0.75059 0.08000
C 	C 	0.04476 0.75269 0.31496 0.29100
C 	C 	0.05081 0.79702 0.50850 0.00800
C 	C 	0.05287 0.81783 0.47101 -0.04800
C 	C 	0.03406 0.71702 0.25059 0.08000
C 	C 	0.04476 0.75269 0.81496 0.29100
C 	C 	0.05081 0.79702 0.00850 0.00500
C 	C 	0.05287 0.81783 0.97101 -0.04700
C 	C 	0.03406 0.71702 0.75059 0.08000
P 	P 	0.10359 0.33120 0.42117 0.31400
O 	O 	0.08676 0.32675 0.38188 -0.39700
O 	O 	0.09221 0.28545 0.29759 -0.39800
H 	H 	0.08360 0.29910 0.50931 0.03100
I 	I 	0.09498 0.20650 0.23753 -0.08700
P 	P 	0.10359 0.33120 0.92117 0.31400
O 	O 	0.08676 0.32675 0.88188 -0.39700
O 	O 	0.09221 0.28545 0.79760 -0.39800
H 	H 	0.08360 0.29910 0.00931 0.03100
I 	I 	0.09498 0.20650 0.73754 -0.08700
P 	P 	0.10359 0.83120 0.42117 0.31400
O 	O 	0.08676 0.82675 0.38188 -0.39700
O 	O 	0.09221 0.78545 0.29759 -0.39800
H 	H 	0.08360 0.79910 0.50931 0.03100
I 	I 	0.09498 0.70650 0.23753 -0.08700
P 	P 	0.10359 0.83120 0.92117 0.31400
O 	O 	0.08676 0.82675 0.88188 -0.39700
O 	O 	0.09221 0.78545 0.79760 -0.39800
H 	H 	0.08360 0.79910 0.00931 0.03100
I 	I 	0.09498 0.70650 0.73754 -0.08700
Zn	Zn	0.13034 0.31774 0.33181 1.21800
O 	O 	0.14657 0.38462 0.41525 -0.43200
O 	O 	0.12028 0.29324 0.42642 -0.43100
Zn	Zn	0.13034 0.31774 0.83181 1.21800
O 	O 	0.14657 0.38462 0.91525 -0.43200
O 	O 	0.12028 0.29324 0.92642 -0.43100
Zn	Zn	0.13034 0.81775 0.33181 1.21800
O 	O 	0.14657 0.88462 0.41525 -0.43300
O 	O 	0.12028 0.79324 0.42642 -0.43100
Zn	Zn	0.13034 0.81775 0.83181 1.21800
O 	O 	0.14657 0.88462 0.91525 -0.43200
O 	O 	0.12028 0.79324 0.92642 -0.43100
Zn	Zn	0.18329 0.32299 0.43090 1.21700
C 	C 	0.18970 0.25066 0.47155 0.27200
C 	C 	0.18402 0.42332 0.29403 0.30000
O 	O 	0.15940 0.28671 0.35134 -0.43300
O 	O 	0.18799 0.29060 0.47574 -0.40900
O 	O 	0.17921 0.22818 0.44113 -0.23400
O 	O 	0.17797 0.38046 0.28747 -0.42700
O 	O 	0.19118 0.43816 0.32822 -0.43100
C 	C 	0.18541 0.49540 0.26543 -0.00400
H 	H 	0.15923 0.49246 0.29684 0.05100
H 	H 	0.17355 0.15996 0.48977 0.06000
H 	H 	0.18172 0.22365 0.32322 0.06100
Zn	Zn	0.18329 0.32299 0.93090 1.21700
C 	C 	0.18970 0.25066 0.97155 0.27100
C 	C 	0.18402 0.42332 0.79403 0.30000
O 	O 	0.15940 0.28671 0.85134 -0.43300
O 	O 	0.18799 0.29060 0.97574 -0.40700
O 	O 	0.17921 0.22818 0.94113 -0.23300
O 	O 	0.17797 0.38046 0.78747 -0.42700
O 	O 	0.19118 0.43816 0.82822 -0.43100
C 	C 	0.18541 0.49540 0.76543 -0.00400
H 	H 	0.15923 0.49246 0.79684 0.05100
H 	H 	0.17355 0.15996 0.98977 0.06300
H 	H 	0.18172 0.22365 0.82322 0.06100
Zn	Zn	0.18329 0.82299 0.43090 1.21700
C 	C 	0.18970 0.75066 0.47155 0.27200
C 	C 	0.18402 0.92332 0.29403 0.29900
O 	O 	0.15940 0.78671 0.35134 -0.43300
O 	O 	0.18799 0.79060 0.47574 -0.40900
O 	O 	0.17921 0.72818 0.44113 -0.23400
O 	O 	0.17797 0.88045 0.28747 -0.42700
O 	O 	0.19118 0.93816 0.32822 -0.43100
C 	C 	0.18541 0.99540 0.26543 -0.00600
H 	H 	0.15923 0.99246 0.29684 0.05200
H 	H 	0.17355 0.65996 0.48977 0.06000
H 	H 	0.18172 0.72365 0.32322 0.06100
Zn	Zn	0.18329 0.82299 0.93090 1.21700
C 	C 	0.18970 0.75066 0.97155 0.27100
C 	C 	0.18402 0.92332 0.79403 0.29900
O 	O 	0.15940 0.78671 0.85134 -0.43300
O 	O 	0.18799 0.79060 0.97574 -0.40700
O 	O 	0.17921 0.72818 0.94113 -0.23300
O 	O 	0.17797 0.88045 0.78747 -0.42700
O 	O 	0.19118 0.93816 0.82822 -0.43100
C 	C 	0.18541 0.99540 0.76543 -0.00500
H 	H 	0.15923 0.99246 0.79684 0.05200
H 	H 	0.17355 0.65996 0.98977 0.06300
H 	H 	0.18172 0.72365 0.82322 0.06100
Zn	Zn	0.20422 0.40160 0.36234 1.20400
P 	P 	0.21736 0.32097 0.33872 0.31100
C 	C 	0.24816 0.42916 0.42241 0.29300
O 	O 	0.23510 0.37427 0.31792 -0.42200
O 	O 	0.23221 0.32353 0.37892 -0.40700
O 	O 	0.20793 0.38878 0.44769 -0.42600
O 	O 	0.25777 0.43861 0.38125 -0.42700
Zn	Zn	0.30291 0.19700 0.13308 1.20700
Zn	Zn	0.36300 0.17716 0.17568 1.21700
Zn	Zn	0.32987 0.14121 0.06330 1.21700
P 	P 	0.28239 0.09992 0.15668 0.31000
P 	P 	0.40440 0.22368 0.08429 0.29900
C 	C 	0.34445 0.07821 0.00636 0.28900
C 	C 	0.27092 0.18822 0.06584 0.31600
C 	C 	0.31061 0.23145 0.20770 0.29700
O 	O 	0.26439 0.13607 0.17534 -0.43500
O 	O 	0.36519 0.23739 0.08389 -0.42900
O 	O 	0.33791 0.11991 0.15157 -0.42800
O 	O 	0.38903 0.17028 0.07519 -0.41700
O 	O 	0.27534 0.09124 0.11251 -0.41000
O 	O 	0.41211 0.23145 0.12835 -0.40900
O 	O 	0.32756 0.10811 0.01509 -0.39800
O 	O 	0.46871 0.20381 0.16007 -0.23500
O 	O 	0.37363 0.07797 0.02361 -0.22800
O 	O 	0.31173 0.18736 0.04405 -0.42400
O 	O 	0.31274 0.19247 0.21599 -0.42800
O 	O 	0.25600 0.18574 0.10761 -0.42800
O 	O 	0.31191 0.24372 0.17022 -0.42600
C 	C 	0.44218 0.19561 0.20149 0.27000
O 	O 	0.39446 0.17937 0.21531 -0.40100
C 	C 	0.96271 0.26437 0.54190 0.00500
C 	C 	0.96550 0.29002 0.50664 -0.05500
H 	H 	0.93268 0.28841 0.50647 0.07800
C 	C 	0.96638 0.20651 0.23229 -0.03000
C 	C 	0.94823 0.22196 0.26980 -0.02100
C 	C 	0.97338 0.23600 0.29702 0.01300
H 	H 	0.95950 0.24889 0.32529 0.05200
H 	H 	0.91533 0.22429 0.27739 0.05700
C 	C 	0.19807 0.45948 0.25778 -0.05500
C 	C 	0.20853 0.53649 0.23339 -0.01800
C 	C 	0.24492 0.54229 0.19353 -0.03900
C 	C 	0.25495 0.50436 0.18476 0.06000
C 	C 	0.23087 0.46296 0.21674 -0.02600
H 	H 	0.19960 0.56469 0.24026 0.05900
H 	H 	0.24010 0.43484 0.21048 0.07000
I 	I 	0.30796 0.50878 0.12486 -0.07200
C 	C 	0.27692 0.46745 0.44188 -0.04400
C 	C 	0.27570 0.45519 0.48220 -0.01400
C 	C 	0.29961 0.49144 0.50221 0.00600
C 	C 	0.32506 0.54047 0.48228 -0.07500
C 	C 	0.32853 0.55290 0.44079 0.07500
C 	C 	0.30426 0.51644 0.42092 -0.03400
H 	H 	0.29723 0.48139 0.53377 0.05300
H 	H 	0.30628 0.52634 0.38945 0.06700
H 	H 	0.25576 0.41759 0.49833 0.05400
I 	I 	0.37249 0.62594 0.40627 -0.07400
C 	C 	0.20863 0.23420 0.49759 -0.03300
C 	C 	0.19782 0.18600 0.50290 -0.02200
C 	C 	0.21845 0.17125 0.52507 0.01600
C 	C 	0.24990 0.20437 0.54233 -0.08900
C 	C 	0.26078 0.25277 0.53720 0.08400
C 	C 	0.23989 0.26736 0.51514 -0.04100
H 	H 	0.20992 0.13400 0.52888 0.04100
H 	H 	0.24897 0.30477 0.51076 0.06800
I 	I 	0.31039 0.30519 0.56061 -0.08700
C 	C 	0.29133 0.25128 0.24349 -0.05500
C 	C 	0.24196 0.22384 0.27254 0.00100
C 	C 	0.22020 0.24534 0.30134 -0.01700
C 	C 	0.24770 0.29457 0.30179 -0.03500
C 	C 	0.29869 0.32143 0.27485 0.06200
C 	C 	0.31982 0.29986 0.24499 -0.02500
H 	H 	0.35834 0.32091 0.22291 0.05800
H 	H 	0.21981 0.18620 0.27163 0.05000
I 	I 	0.34597 0.39252 0.28036 -0.06700
Zn	Zn	0.20422 0.40160 0.86234 1.20400
P 	P 	0.21736 0.32097 0.83872 0.31100
C 	C 	0.24816 0.42916 0.92241 0.29400
O 	O 	0.23510 0.37427 0.81792 -0.42200
O 	O 	0.23221 0.32353 0.87892 -0.40700
O 	O 	0.20793 0.38878 0.94769 -0.42600
O 	O 	0.25777 0.43861 0.88125 -0.42700
Zn	Zn	0.30291 0.19700 0.63308 1.20700
Zn	Zn	0.36300 0.17716 0.67568 1.21700
Zn	Zn	0.32987 0.14121 0.56330 1.21700
P 	P 	0.28239 0.09992 0.65668 0.31000
P 	P 	0.40440 0.22368 0.58429 0.29900
C 	C 	0.34445 0.07821 0.50636 0.29200
C 	C 	0.27092 0.18822 0.56584 0.31500
C 	C 	0.31061 0.23145 0.70770 0.29700
O 	O 	0.26439 0.13607 0.67534 -0.43500
O 	O 	0.36519 0.23740 0.58389 -0.42900
O 	O 	0.33791 0.11991 0.65157 -0.42800
O 	O 	0.38903 0.17028 0.57519 -0.41700
O 	O 	0.27534 0.09124 0.61251 -0.41000
O 	O 	0.41211 0.23146 0.62835 -0.40900
O 	O 	0.32756 0.10811 0.51509 -0.39800
O 	O 	0.46870 0.20381 0.66007 -0.23500
O 	O 	0.37363 0.07797 0.52361 -0.22800
O 	O 	0.31173 0.18736 0.54405 -0.42400
O 	O 	0.31274 0.19247 0.71599 -0.42800
O 	O 	0.25600 0.18574 0.60761 -0.42800
O 	O 	0.31191 0.24372 0.67022 -0.42600
C 	C 	0.44218 0.19561 0.70149 0.27000
O 	O 	0.39446 0.17937 0.71531 -0.40100
C 	C 	0.96271 0.26437 0.04189 0.00500
C 	C 	0.96550 0.29002 0.00664 -0.05700
H 	H 	0.93268 0.28841 0.00647 0.07800
C 	C 	0.96638 0.20651 0.73229 -0.03000
C 	C 	0.94823 0.22196 0.76980 -0.02100
C 	C 	0.97338 0.23600 0.79702 0.01300
H 	H 	0.95950 0.24889 0.82529 0.05200
H 	H 	0.91533 0.22429 0.77739 0.05700
C 	C 	0.19807 0.45948 0.75778 -0.05500
C 	C 	0.20853 0.53649 0.73339 -0.01800
C 	C 	0.24492 0.54229 0.69353 -0.03900
C 	C 	0.25495 0.50436 0.68476 0.06000
C 	C 	0.23087 0.46296 0.71674 -0.02600
H 	H 	0.19960 0.56469 0.74026 0.05900
H 	H 	0.24010 0.43484 0.71048 0.07000
I 	I 	0.30796 0.50878 0.62486 -0.07100
C 	C 	0.27692 0.46745 0.94188 -0.04600
C 	C 	0.27570 0.45519 0.98220 -0.00900
C 	C 	0.29961 0.49144 0.00221 -0.00100
C 	C 	0.32506 0.54047 0.98227 -0.07000
C 	C 	0.32853 0.55290 0.94079 0.07300
C 	C 	0.30426 0.51644 0.92092 -0.03300
H 	H 	0.29723 0.48139 0.03377 0.05500
H 	H 	0.30628 0.52634 0.88945 0.06700
H 	H 	0.25576 0.41759 0.99833 0.05300
I 	I 	0.37249 0.62594 0.90627 -0.07300
C 	C 	0.20863 0.23420 0.99760 -0.02600
C 	C 	0.19782 0.18600 0.00290 -0.02900
C 	C 	0.21845 0.17125 0.02507 0.01800
C 	C 	0.24990 0.20437 0.04233 -0.09100
C 	C 	0.26078 0.25277 0.03720 0.08500
C 	C 	0.23989 0.26736 0.01514 -0.04600
H 	H 	0.20992 0.13400 0.02888 0.03900
H 	H 	0.24897 0.30477 0.01076 0.06800
I 	I 	0.31039 0.30519 0.06061 -0.08800
C 	C 	0.29133 0.25128 0.74349 -0.05500
C 	C 	0.24196 0.22384 0.77254 0.00100
C 	C 	0.22020 0.24534 0.80134 -0.01700
C 	C 	0.24770 0.29457 0.80179 -0.03500
C 	C 	0.29869 0.32143 0.77485 0.06200
C 	C 	0.31982 0.29986 0.74499 -0.02500
H 	H 	0.35834 0.32091 0.72291 0.05800
H 	H 	0.21981 0.18620 0.77163 0.05000
I 	I 	0.34597 0.39252 0.78036 -0.06700
Zn	Zn	0.20422 0.90160 0.36234 1.20400
P 	P 	0.21736 0.82097 0.33872 0.31100
C 	C 	0.24816 0.92916 0.42241 0.29300
O 	O 	0.23510 0.87427 0.31792 -0.42200
O 	O 	0.23221 0.82353 0.37892 -0.40700
O 	O 	0.20793 0.88878 0.44769 -0.42600
O 	O 	0.25777 0.93861 0.38125 -0.42700
Zn	Zn	0.30291 0.69700 0.13308 1.20700
Zn	Zn	0.36300 0.67716 0.17568 1.21700
Zn	Zn	0.32987 0.64121 0.06330 1.21700
P 	P 	0.28239 0.59992 0.15668 0.31000
P 	P 	0.40440 0.72368 0.08429 0.29900
C 	C 	0.34445 0.57821 0.00636 0.28900
C 	C 	0.27092 0.68822 0.06584 0.31600
C 	C 	0.31061 0.73145 0.20770 0.29700
O 	O 	0.26439 0.63607 0.17534 -0.43500
O 	O 	0.36519 0.73740 0.08389 -0.42900
O 	O 	0.33791 0.61991 0.15157 -0.42800
O 	O 	0.38903 0.67028 0.07519 -0.41700
O 	O 	0.27534 0.59124 0.11251 -0.41000
O 	O 	0.41211 0.73146 0.12835 -0.40900
O 	O 	0.32756 0.60811 0.01509 -0.39800
O 	O 	0.46871 0.70381 0.16007 -0.23500
O 	O 	0.37363 0.57797 0.02361 -0.22800
O 	O 	0.31173 0.68736 0.04405 -0.42400
O 	O 	0.31274 0.69247 0.21599 -0.42900
O 	O 	0.25600 0.68574 0.10761 -0.42800
O 	O 	0.31191 0.74372 0.17022 -0.42600
C 	C 	0.44218 0.69561 0.20149 0.27000
O 	O 	0.39446 0.67937 0.21531 -0.40100
C 	C 	0.96271 0.76437 0.54190 0.00500
C 	C 	0.96550 0.79002 0.50664 -0.05500
H 	H 	0.93268 0.78841 0.50647 0.07800
C 	C 	0.96637 0.70651 0.23229 -0.03000
C 	C 	0.94823 0.72196 0.26980 -0.02100
C 	C 	0.97338 0.73600 0.29702 0.01300
H 	H 	0.95950 0.74889 0.32529 0.05200
H 	H 	0.91533 0.72429 0.27739 0.05700
C 	C 	0.19807 0.95948 0.25778 -0.05400
C 	C 	0.20853 0.03648 0.23339 -0.01600
C 	C 	0.24492 0.04229 0.19353 -0.04000
C 	C 	0.25495 0.00436 0.18476 0.06100
C 	C 	0.23087 0.96296 0.21674 -0.02800
H 	H 	0.19960 0.06469 0.24026 0.05900
H 	H 	0.24010 0.93484 0.21048 0.07000
I 	I 	0.30796 0.00878 0.12486 -0.07100
C 	C 	0.27692 0.96745 0.44188 -0.04500
C 	C 	0.27570 0.95519 0.48220 -0.01300
C 	C 	0.29961 0.99144 0.50221 0.00400
C 	C 	0.32506 0.04047 0.48228 -0.07400
C 	C 	0.32853 0.05290 0.44079 0.07400
C 	C 	0.30426 0.01644 0.42092 -0.03300
H 	H 	0.29723 0.98138 0.53377 0.05300
H 	H 	0.30628 0.02634 0.38945 0.06700
H 	H 	0.25576 0.91759 0.49833 0.05300
I 	I 	0.37249 0.12594 0.40627 -0.07400
C 	C 	0.20863 0.73420 0.49759 -0.03300
C 	C 	0.19782 0.68600 0.50290 -0.02200
C 	C 	0.21845 0.67125 0.52507 0.01600
C 	C 	0.24990 0.70437 0.54233 -0.08900
C 	C 	0.26078 0.75277 0.53720 0.08400
C 	C 	0.23989 0.76736 0.51514 -0.04100
H 	H 	0.20992 0.63400 0.52888 0.04100
H 	H 	0.24897 0.80477 0.51076 0.06700
I 	I 	0.31039 0.80519 0.56061 -0.08700
C 	C 	0.29133 0.75128 0.24349 -0.05500
C 	C 	0.24196 0.72384 0.27254 0.00100
C 	C 	0.22020 0.74534 0.30134 -0.01700
C 	C 	0.24770 0.79457 0.30179 -0.03500
C 	C 	0.29869 0.82143 0.27485 0.06200
C 	C 	0.31982 0.79986 0.24499 -0.02600
H 	H 	0.35834 0.82091 0.22291 0.05800
H 	H 	0.21981 0.68620 0.27163 0.05000
I 	I 	0.34597 0.89252 0.28036 -0.06800
Zn	Zn	0.20422 0.90160 0.86234 1.20400
P 	P 	0.21736 0.82097 0.83872 0.31100
C 	C 	0.24816 0.92916 0.92241 0.29400
O 	O 	0.23510 0.87427 0.81792 -0.42200
O 	O 	0.23221 0.82353 0.87892 -0.40700
O 	O 	0.20793 0.88878 0.94769 -0.42600
O 	O 	0.25777 0.93861 0.88125 -0.42700
Zn	Zn	0.30291 0.69700 0.63308 1.20700
Zn	Zn	0.36300 0.67716 0.67568 1.21700
Zn	Zn	0.32987 0.64121 0.56330 1.21700
P 	P 	0.28239 0.59992 0.65668 0.31000
P 	P 	0.40440 0.72368 0.58429 0.29900
C 	C 	0.34445 0.57821 0.50636 0.29300
C 	C 	0.27092 0.68822 0.56584 0.31500
C 	C 	0.31061 0.73145 0.70770 0.29700
O 	O 	0.26439 0.63607 0.67534 -0.43500
O 	O 	0.36519 0.73740 0.58389 -0.42900
O 	O 	0.33791 0.61991 0.65157 -0.42800
O 	O 	0.38903 0.67028 0.57519 -0.41700
O 	O 	0.27534 0.59124 0.61251 -0.41000
O 	O 	0.41211 0.73146 0.62835 -0.40900
O 	O 	0.32756 0.60811 0.51509 -0.39800
O 	O 	0.46871 0.70381 0.66007 -0.23500
O 	O 	0.37363 0.57797 0.52361 -0.22800
O 	O 	0.31173 0.68736 0.54405 -0.42400
O 	O 	0.31274 0.69247 0.71599 -0.42900
O 	O 	0.25600 0.68574 0.60761 -0.42800
O 	O 	0.31191 0.74372 0.67022 -0.42600
C 	C 	0.44218 0.69561 0.70149 0.27000
O 	O 	0.39446 0.67937 0.71531 -0.40100
C 	C 	0.96271 0.76437 0.04189 0.00500
C 	C 	0.96550 0.79002 0.00664 -0.05700
H 	H 	0.93268 0.78841 0.00647 0.07800
C 	C 	0.96638 0.70651 0.73229 -0.03000
C 	C 	0.94823 0.72196 0.76980 -0.02100
C 	C 	0.97339 0.73600 0.79702 0.01300
H 	H 	0.95950 0.74889 0.82529 0.05200
H 	H 	0.91533 0.72429 0.77739 0.05700
C 	C 	0.19807 0.95948 0.75778 -0.05400
C 	C 	0.20853 0.03648 0.73339 -0.01600
C 	C 	0.24492 0.04229 0.69353 -0.04000
C 	C 	0.25495 0.00436 0.68476 0.06100
C 	C 	0.23087 0.96296 0.71674 -0.02800
H 	H 	0.19960 0.06469 0.74026 0.05900
H 	H 	0.24010 0.93484 0.71048 0.07000
I 	I 	0.30796 0.00878 0.62486 -0.07100
C 	C 	0.27692 0.96745 0.94188 -0.04700
C 	C 	0.27570 0.95519 0.98220 -0.00900
C 	C 	0.29961 0.99144 0.00221 -0.00200
C 	C 	0.32506 0.04047 0.98227 -0.06800
C 	C 	0.32853 0.05290 0.94079 0.07300
C 	C 	0.30426 0.01644 0.92092 -0.03100
H 	H 	0.29723 0.98138 0.03377 0.05500
H 	H 	0.30628 0.02634 0.88945 0.06700
H 	H 	0.25576 0.91759 0.99833 0.05300
I 	I 	0.37249 0.12594 0.90627 -0.07300
C 	C 	0.20863 0.73420 0.99760 -0.02600
C 	C 	0.19782 0.68600 0.00290 -0.02900
C 	C 	0.21845 0.67125 0.02507 0.01800
C 	C 	0.24990 0.70437 0.04233 -0.09100
C 	C 	0.26078 0.75277 0.03720 0.08500
C 	C 	0.23989 0.76736 0.01514 -0.04600
H 	H 	0.20992 0.63400 0.02888 0.03900
H 	H 	0.24897 0.80477 0.01076 0.06800
I 	I 	0.31039 0.80519 0.06061 -0.08800
C 	C 	0.29133 0.75128 0.74349 -0.05500
C 	C 	0.24196 0.72384 0.77254 0.00100
C 	C 	0.22020 0.74534 0.80134 -0.01700
C 	C 	0.24770 0.79457 0.80179 -0.03500
C 	C 	0.29869 0.82143 0.77485 0.06200
C 	C 	0.31982 0.79986 0.74499 -0.02500
H 	H 	0.35834 0.82091 0.72291 0.05800
H 	H 	0.21981 0.68620 0.77163 0.05000
I 	I 	0.34597 0.89252 0.78036 -0.06700
Zn	Zn	0.70422 0.40160 0.36234 1.20400
Zn	Zn	0.63034 0.31774 0.33181 1.21800
Zn	Zn	0.68329 0.32299 0.43090 1.21700
P 	P 	0.71736 0.32097 0.33872 0.31100
P 	P 	0.60359 0.33120 0.42117 0.31400
C 	C 	0.68970 0.25066 0.47155 0.27300
C 	C 	0.74816 0.42916 0.42241 0.29300
C 	C 	0.68402 0.42332 0.29403 0.30000
O 	O 	0.73510 0.37427 0.31792 -0.42200
O 	O 	0.64657 0.38462 0.41525 -0.43200
O 	O 	0.65940 0.28671 0.35134 -0.43300
O 	O 	0.62028 0.29324 0.42642 -0.43100
O 	O 	0.73221 0.32353 0.37892 -0.40700
O 	O 	0.58676 0.32675 0.38188 -0.39700
O 	O 	0.68799 0.29060 0.47574 -0.40800
O 	O 	0.52124 0.23922 0.35706 -0.22800
O 	O 	0.67921 0.22818 0.44113 -0.23400
O 	O 	0.70793 0.38878 0.44769 -0.42600
O 	O 	0.67797 0.38046 0.28747 -0.42700
O 	O 	0.75777 0.43861 0.38125 -0.42700
O 	O 	0.69117 0.43816 0.32822 -0.43100
C 	C 	0.54476 0.25269 0.31496 0.29000
O 	O 	0.59221 0.28545 0.29759 -0.39700
Zn	Zn	0.80291 0.19700 0.13308 1.20700
Zn	Zn	0.86300 0.17716 0.17568 1.21700
Zn	Zn	0.82987 0.14121 0.06330 1.21700
P 	P 	0.78239 0.09992 0.15668 0.31000
P 	P 	0.90440 0.22368 0.08429 0.29800
C 	C 	0.84445 0.07821 0.00636 0.28900
C 	C 	0.77092 0.18822 0.06584 0.31600
C 	C 	0.81061 0.23145 0.20770 0.29700
O 	O 	0.76439 0.13607 0.17534 -0.43500
O 	O 	0.86519 0.23739 0.08389 -0.42900
O 	O 	0.83791 0.11991 0.15157 -0.42800
O 	O 	0.88903 0.17028 0.07519 -0.41700
O 	O 	0.77534 0.09124 0.11251 -0.41000
O 	O 	0.91211 0.23145 0.12835 -0.40800
O 	O 	0.82756 0.10811 0.01509 -0.39800
O 	O 	0.96871 0.20381 0.16007 -0.23400
O 	O 	0.87363 0.07797 0.02361 -0.22700
O 	O 	0.81173 0.18736 0.04405 -0.42400
O 	O 	0.81274 0.19247 0.21599 -0.42800
O 	O 	0.75600 0.18574 0.10761 -0.42800
O 	O 	0.81191 0.24372 0.17022 -0.42600
C 	C 	0.94218 0.19561 0.20149 0.26900
O 	O 	0.89446 0.17937 0.21531 -0.40000
C 	C 	0.46271 0.26437 0.54190 0.00300
C 	C 	0.50578 0.26973 0.54352 -0.02900
C 	C 	0.55082 0.29702 0.50850 0.00700
C 	C 	0.55287 0.31783 0.47101 -0.04800
C 	C 	0.51095 0.31840 0.47176 0.08000
C 	C 	0.46550 0.29002 0.50664 -0.05700
H 	H 	0.58360 0.29910 0.50931 0.03100
H 	H 	0.43268 0.28841 0.50647 0.07900
H 	H 	0.50410 0.25123 0.57129 0.07100
I 	I 	0.51672 0.36851 0.42603 -0.06600
C 	C 	0.46638 0.20651 0.23229 -0.03400
C 	C 	0.44823 0.22196 0.26980 -0.01900
C 	C 	0.47339 0.23600 0.29702 0.00900
C 	C 	0.51694 0.23461 0.28727 -0.07600
C 	C 	0.53406 0.21702 0.25059 0.07800
C 	C 	0.50908 0.20366 0.22310 -0.04000
H 	H 	0.45950 0.24889 0.32529 0.05300
H 	H 	0.52269 0.19063 0.19483 0.07000
H 	H 	0.41533 0.22429 0.27739 0.05700
I 	I 	0.59498 0.20650 0.23753 -0.08600
C 	C 	0.69807 0.45948 0.25778 -0.05500
C 	C 	0.68541 0.49540 0.26543 -0.00400
C 	C 	0.70853 0.53649 0.23339 -0.01800
C 	C 	0.74492 0.54229 0.19353 -0.03900
C 	C 	0.75495 0.50436 0.18476 0.06000
C 	C 	0.73087 0.46296 0.21674 -0.02600
H 	H 	0.69960 0.56469 0.24026 0.05900
H 	H 	0.74010 0.43484 0.21048 0.07000
H 	H 	0.65923 0.49246 0.29684 0.05200
I 	I 	0.80796 0.50878 0.12486 -0.07100
C 	C 	0.77692 0.46745 0.44188 -0.04400
C 	C 	0.77570 0.45519 0.48220 -0.01400
C 	C 	0.79961 0.49144 0.50221 0.00600
C 	C 	0.82506 0.54047 0.48228 -0.07500
C 	C 	0.82853 0.55290 0.44079 0.07500
C 	C 	0.80426 0.51644 0.42092 -0.03400
H 	H 	0.79723 0.48139 0.53377 0.05300
H 	H 	0.80628 0.52634 0.38945 0.06700
H 	H 	0.75576 0.41759 0.49833 0.05400
I 	I 	0.87249 0.62594 0.40627 -0.07400
C 	C 	0.70863 0.23420 0.49759 -0.03300
C 	C 	0.69782 0.18600 0.50290 -0.02200
C 	C 	0.71845 0.17125 0.52507 0.01600
C 	C 	0.74990 0.20437 0.54233 -0.08900
C 	C 	0.76078 0.25277 0.53720 0.08400
C 	C 	0.73989 0.26736 0.51514 -0.04100
H 	H 	0.70992 0.13400 0.52888 0.04100
H 	H 	0.74897 0.30477 0.51076 0.06800
H 	H 	0.67355 0.15996 0.48977 0.06000
I 	I 	0.81039 0.30519 0.56061 -0.08700
C 	C 	0.79133 0.25128 0.24349 -0.05500
C 	C 	0.74196 0.22384 0.27254 0.00100
C 	C 	0.72020 0.24534 0.30134 -0.01700
C 	C 	0.74770 0.29457 0.30179 -0.03500
C 	C 	0.79869 0.32143 0.27485 0.06200
C 	C 	0.81982 0.29986 0.24499 -0.02500
H 	H 	0.68172 0.22365 0.32322 0.06100
H 	H 	0.85834 0.32091 0.22291 0.05900
H 	H 	0.71981 0.18620 0.27163 0.05000
I 	I 	0.84597 0.39252 0.28036 -0.06700
Zn	Zn	0.70422 0.40160 0.86234 1.20400
Zn	Zn	0.63034 0.31774 0.83181 1.21800
Zn	Zn	0.68329 0.32299 0.93090 1.21700
P 	P 	0.71736 0.32097 0.83872 0.31100
P 	P 	0.60359 0.33120 0.92117 0.31400
C 	C 	0.68970 0.25066 0.97155 0.27100
C 	C 	0.74816 0.42916 0.92241 0.29400
C 	C 	0.68402 0.42332 0.79403 0.30000
O 	O 	0.73510 0.37427 0.81792 -0.42200
O 	O 	0.64657 0.38462 0.91525 -0.43200
O 	O 	0.65940 0.28671 0.85134 -0.43300
O 	O 	0.62028 0.29324 0.92642 -0.43100
O 	O 	0.73221 0.32353 0.87892 -0.40600
O 	O 	0.58676 0.32675 0.88188 -0.39700
O 	O 	0.68799 0.29060 0.97574 -0.40700
O 	O 	0.52124 0.23922 0.85706 -0.22800
O 	O 	0.67921 0.22818 0.94113 -0.23300
O 	O 	0.70793 0.38878 0.94769 -0.42600
O 	O 	0.67797 0.38046 0.78747 -0.42700
O 	O 	0.75777 0.43861 0.88125 -0.42700
O 	O 	0.69118 0.43816 0.82822 -0.43100
C 	C 	0.54476 0.25269 0.81496 0.29000
O 	O 	0.59221 0.28545 0.79760 -0.39700
Zn	Zn	0.80291 0.19700 0.63308 1.20700
Zn	Zn	0.86300 0.17716 0.67568 1.21700
Zn	Zn	0.82987 0.14121 0.56330 1.21700
P 	P 	0.78239 0.09992 0.65668 0.31000
P 	P 	0.90440 0.22368 0.58429 0.29900
C 	C 	0.84445 0.07821 0.50636 0.29200
C 	C 	0.77092 0.18822 0.56584 0.31500
C 	C 	0.81061 0.23145 0.70770 0.29700
O 	O 	0.76439 0.13607 0.67534 -0.43500
O 	O 	0.86519 0.23740 0.58389 -0.42900
O 	O 	0.83791 0.11991 0.65157 -0.42800
O 	O 	0.88903 0.17028 0.57519 -0.41700
O 	O 	0.77534 0.09124 0.61251 -0.41000
O 	O 	0.91211 0.23146 0.62835 -0.40800
O 	O 	0.82756 0.10811 0.51509 -0.39800
O 	O 	0.96871 0.20381 0.66007 -0.23400
O 	O 	0.87363 0.07797 0.52361 -0.22800
O 	O 	0.81173 0.18736 0.54405 -0.42400
O 	O 	0.81274 0.19247 0.71599 -0.42800
O 	O 	0.75600 0.18574 0.60761 -0.42800
O 	O 	0.81191 0.24372 0.67022 -0.42600
C 	C 	0.94218 0.19561 0.70149 0.26900
O 	O 	0.89446 0.17937 0.71531 -0.40000
C 	C 	0.46271 0.26437 0.04189 0.00300
C 	C 	0.50578 0.26973 0.04352 -0.02900
C 	C 	0.55082 0.29702 0.00850 0.00500
C 	C 	0.55287 0.31783 0.97101 -0.04700
C 	C 	0.51095 0.31841 0.97176 0.08200
C 	C 	0.46550 0.29002 0.00664 -0.05900
H 	H 	0.58360 0.29910 0.00931 0.03100
H 	H 	0.43268 0.28841 0.00647 0.07900
H 	H 	0.50410 0.25123 0.07129 0.07100
I 	I 	0.51672 0.36851 0.92603 -0.06500
C 	C 	0.46638 0.20651 0.73229 -0.03400
C 	C 	0.44823 0.22196 0.76980 -0.01900
C 	C 	0.47339 0.23600 0.79702 0.00900
C 	C 	0.51694 0.23461 0.78727 -0.07600
C 	C 	0.53406 0.21702 0.75059 0.07800
C 	C 	0.50908 0.20366 0.72310 -0.04000
H 	H 	0.45950 0.24889 0.82529 0.05300
H 	H 	0.52269 0.19063 0.69483 0.07000
H 	H 	0.41533 0.22429 0.77739 0.05700
I 	I 	0.59498 0.20650 0.73754 -0.08600
C 	C 	0.69807 0.45948 0.75778 -0.05500
C 	C 	0.68541 0.49540 0.76543 -0.00400
C 	C 	0.70853 0.53649 0.73339 -0.01800
C 	C 	0.74492 0.54229 0.69353 -0.03900
C 	C 	0.75495 0.50436 0.68476 0.06000
C 	C 	0.73087 0.46296 0.71674 -0.02600
H 	H 	0.69960 0.56469 0.74026 0.05900
H 	H 	0.74010 0.43484 0.71048 0.07000
H 	H 	0.65923 0.49246 0.79684 0.05200
I 	I 	0.80796 0.50878 0.62486 -0.07100
C 	C 	0.77692 0.46745 0.94188 -0.04500
C 	C 	0.77570 0.45519 0.98220 -0.01000
C 	C 	0.79961 0.49144 0.00221 -0.00000
C 	C 	0.82506 0.54047 0.98227 -0.07000
C 	C 	0.82853 0.55290 0.94079 0.07300
C 	C 	0.80426 0.51644 0.92092 -0.03300
H 	H 	0.79723 0.48139 0.03377 0.05500
H 	H 	0.80628 0.52634 0.88945 0.06700
H 	H 	0.75576 0.41759 0.99833 0.05300
I 	I 	0.87249 0.62594 0.90627 -0.07200
C 	C 	0.70863 0.23420 0.99760 -0.02700
C 	C 	0.69782 0.18600 0.00290 -0.02800
C 	C 	0.71845 0.17125 0.02507 0.01800
C 	C 	0.74990 0.20437 0.04233 -0.09100
C 	C 	0.76078 0.25277 0.03720 0.08500
C 	C 	0.73989 0.26736 0.01514 -0.04500
H 	H 	0.70992 0.13400 0.02888 0.04000
H 	H 	0.74897 0.30477 0.01076 0.06800
H 	H 	0.67355 0.15996 0.98977 0.06300
I 	I 	0.81039 0.30519 0.06061 -0.08800
C 	C 	0.79133 0.25128 0.74349 -0.05500
C 	C 	0.74196 0.22384 0.77254 0.00100
C 	C 	0.72020 0.24534 0.80134 -0.01700
C 	C 	0.74770 0.29457 0.80179 -0.03500
C 	C 	0.79869 0.32143 0.77485 0.06200
C 	C 	0.81982 0.29986 0.74499 -0.02500
H 	H 	0.68172 0.22365 0.82322 0.06100
H 	H 	0.85834 0.32091 0.72291 0.05900
H 	H 	0.71981 0.18620 0.77163 0.05000
I 	I 	0.84597 0.39252 0.78036 -0.06600
Zn	Zn	0.70422 0.90160 0.36234 1.20400
Zn	Zn	0.63034 0.81775 0.33181 1.21800
Zn	Zn	0.68329 0.82299 0.43090 1.21700
P 	P 	0.71736 0.82097 0.33872 0.31100
P 	P 	0.60359 0.83120 0.42117 0.31400
C 	C 	0.68970 0.75066 0.47155 0.27300
C 	C 	0.74816 0.92916 0.42241 0.29300
C 	C 	0.68402 0.92332 0.29403 0.29900
O 	O 	0.73510 0.87427 0.31792 -0.42200
O 	O 	0.64657 0.88462 0.41525 -0.43300
O 	O 	0.65940 0.78671 0.35134 -0.43300
O 	O 	0.62028 0.79324 0.42642 -0.43100
O 	O 	0.73221 0.82353 0.37892 -0.40700
O 	O 	0.58676 0.82675 0.38188 -0.39700
O 	O 	0.68799 0.79060 0.47574 -0.40800
O 	O 	0.52124 0.73922 0.35706 -0.22800
O 	O 	0.67921 0.72818 0.44113 -0.23400
O 	O 	0.70793 0.88878 0.44769 -0.42600
O 	O 	0.67797 0.88045 0.28747 -0.42700
O 	O 	0.75777 0.93861 0.38125 -0.42700
O 	O 	0.69117 0.93816 0.32822 -0.43100
C 	C 	0.54476 0.75269 0.31496 0.29000
O 	O 	0.59221 0.78545 0.29759 -0.39700
Zn	Zn	0.80291 0.69700 0.13308 1.20700
Zn	Zn	0.86300 0.67716 0.17568 1.21700
Zn	Zn	0.82987 0.64121 0.06330 1.21700
P 	P 	0.78239 0.59992 0.15668 0.31000
P 	P 	0.90440 0.72368 0.08429 0.29800
C 	C 	0.84445 0.57821 0.00636 0.29000
C 	C 	0.77092 0.68822 0.06584 0.31600
C 	C 	0.81061 0.73145 0.20770 0.29700
O 	O 	0.76439 0.63607 0.17534 -0.43500
O 	O 	0.86519 0.73740 0.08389 -0.42900
O 	O 	0.83791 0.61991 0.15157 -0.42800
O 	O 	0.88903 0.67028 0.07519 -0.41700
O 	O 	0.77534 0.59124 0.11251 -0.41000
O 	O 	0.91211 0.73146 0.12835 -0.40800
O 	O 	0.82756 0.60811 0.01509 -0.39800
O 	O 	0.96871 0.70381 0.16007 -0.23400
O 	O 	0.87363 0.57797 0.02361 -0.22800
O 	O 	0.81173 0.68736 0.04405 -0.42400
O 	O 	0.81274 0.69247 0.21599 -0.42900
O 	O 	0.75600 0.68574 0.10761 -0.42800
O 	O 	0.81191 0.74372 0.17022 -0.42600
C 	C 	0.94218 0.69561 0.20149 0.26900
O 	O 	0.89446 0.67937 0.21531 -0.40000
C 	C 	0.46271 0.76437 0.54190 0.00300
C 	C 	0.50578 0.76973 0.54352 -0.03000
C 	C 	0.55082 0.79702 0.50850 0.00700
C 	C 	0.55287 0.81783 0.47101 -0.04800
C 	C 	0.51095 0.81841 0.47176 0.08000
C 	C 	0.46550 0.79002 0.50664 -0.05700
H 	H 	0.58360 0.79910 0.50931 0.03100
H 	H 	0.43268 0.78841 0.50647 0.07800
H 	H 	0.50410 0.75123 0.57129 0.07100
I 	I 	0.51672 0.86850 0.42603 -0.06600
C 	C 	0.46638 0.70651 0.23229 -0.03400
C 	C 	0.44823 0.72196 0.26980 -0.01900
C 	C 	0.47339 0.73600 0.29702 0.00900
C 	C 	0.51694 0.73461 0.28727 -0.07600
C 	C 	0.53406 0.71702 0.25059 0.07800
C 	C 	0.50908 0.70366 0.22310 -0.04000
H 	H 	0.45950 0.74889 0.32529 0.05300
H 	H 	0.52269 0.69063 0.19483 0.07000
H 	H 	0.41533 0.72429 0.27739 0.05700
I 	I 	0.59498 0.70650 0.23753 -0.08600
C 	C 	0.69807 0.95948 0.25778 -0.05400
C 	C 	0.68541 0.99540 0.26543 -0.00500
C 	C 	0.70853 0.03648 0.23339 -0.01600
C 	C 	0.74492 0.04229 0.19353 -0.04000
C 	C 	0.75495 0.00436 0.18476 0.06100
C 	C 	0.73087 0.96296 0.21674 -0.02800
H 	H 	0.69960 0.06469 0.24026 0.05900
H 	H 	0.74010 0.93484 0.21048 0.07000
H 	H 	0.65923 0.99246 0.29684 0.05200
I 	I 	0.80796 0.00878 0.12486 -0.07100
C 	C 	0.77692 0.96745 0.44188 -0.04500
C 	C 	0.77570 0.95519 0.48220 -0.01300
C 	C 	0.79961 0.99144 0.50221 0.00400
C 	C 	0.82506 0.04047 0.48228 -0.07400
C 	C 	0.82853 0.05290 0.44079 0.07400
C 	C 	0.80426 0.01644 0.42092 -0.03300
H 	H 	0.79723 0.98138 0.53377 0.05300
H 	H 	0.80628 0.02634 0.38945 0.06700
H 	H 	0.75576 0.91759 0.49833 0.05400
I 	I 	0.87249 0.12594 0.40627 -0.07300
C 	C 	0.70863 0.73420 0.49759 -0.03300
C 	C 	0.69782 0.68600 0.50290 -0.02200
C 	C 	0.71845 0.67125 0.52507 0.01600
C 	C 	0.74990 0.70437 0.54233 -0.08900
C 	C 	0.76078 0.75277 0.53720 0.08400
C 	C 	0.73989 0.76736 0.51514 -0.04100
H 	H 	0.70992 0.63400 0.52888 0.04100
H 	H 	0.74897 0.80477 0.51076 0.06800
H 	H 	0.67355 0.65996 0.48977 0.06000
I 	I 	0.81039 0.80519 0.56061 -0.08700
C 	C 	0.79133 0.75128 0.24349 -0.05500
C 	C 	0.74196 0.72384 0.27254 0.00100
C 	C 	0.72020 0.74534 0.30134 -0.01700
C 	C 	0.74770 0.79457 0.30179 -0.03500
C 	C 	0.79869 0.82143 0.27485 0.06200
C 	C 	0.81982 0.79986 0.24499 -0.02500
H 	H 	0.68172 0.72365 0.32322 0.06100
H 	H 	0.85834 0.82091 0.22291 0.05800
H 	H 	0.71981 0.68620 0.27163 0.05000
I 	I 	0.84597 0.89252 0.28036 -0.06700
Zn	Zn	0.70422 0.90160 0.86234 1.20400
Zn	Zn	0.63034 0.81775 0.83181 1.21800
Zn	Zn	0.68329 0.82299 0.93090 1.21700
P 	P 	0.71736 0.82097 0.83872 0.31100
P 	P 	0.60359 0.83120 0.92117 0.31400
C 	C 	0.68970 0.75066 0.97155 0.27100
C 	C 	0.74816 0.92916 0.92241 0.29400
C 	C 	0.68402 0.92332 0.79403 0.29900
O 	O 	0.73510 0.87427 0.81792 -0.42200
O 	O 	0.64657 0.88462 0.91525 -0.43200
O 	O 	0.65940 0.78671 0.85134 -0.43300
O 	O 	0.62028 0.79324 0.92642 -0.43100
O 	O 	0.73221 0.82353 0.87892 -0.40600
O 	O 	0.58676 0.82675 0.88188 -0.39700
O 	O 	0.68799 0.79060 0.97574 -0.40700
O 	O 	0.52124 0.73922 0.85706 -0.22800
O 	O 	0.67921 0.72818 0.94113 -0.23300
O 	O 	0.70793 0.88878 0.94769 -0.42600
O 	O 	0.67797 0.88045 0.78747 -0.42700
O 	O 	0.75777 0.93861 0.88125 -0.42700
O 	O 	0.69117 0.93816 0.82822 -0.43100
C 	C 	0.54476 0.75269 0.81496 0.29000
O 	O 	0.59221 0.78545 0.79760 -0.39700
Zn	Zn	0.80291 0.69700 0.63308 1.20700
Zn	Zn	0.86300 0.67716 0.67568 1.21700
Zn	Zn	0.82987 0.64121 0.56330 1.21700
P 	P 	0.78239 0.59992 0.65668 0.31000
P 	P 	0.90440 0.72368 0.58429 0.29900
C 	C 	0.84445 0.57821 0.50636 0.29300
C 	C 	0.77092 0.68822 0.56584 0.31500
C 	C 	0.81061 0.73145 0.70770 0.29700
O 	O 	0.76439 0.63607 0.67534 -0.43500
O 	O 	0.86519 0.73740 0.58389 -0.42900
O 	O 	0.83791 0.61991 0.65157 -0.42800
O 	O 	0.88903 0.67028 0.57519 -0.41700
O 	O 	0.77534 0.59124 0.61251 -0.41000
O 	O 	0.91211 0.73146 0.62835 -0.40800
O 	O 	0.82756 0.60811 0.51509 -0.39800
O 	O 	0.96871 0.70381 0.66007 -0.23400
O 	O 	0.87363 0.57797 0.52361 -0.22800
O 	O 	0.81173 0.68736 0.54405 -0.42400
O 	O 	0.81274 0.69247 0.71599 -0.42800
O 	O 	0.75600 0.68574 0.60761 -0.42800
O 	O 	0.81191 0.74372 0.67022 -0.42600
C 	C 	0.94218 0.69561 0.70149 0.26900
O 	O 	0.89446 0.67937 0.71531 -0.40000
C 	C 	0.46271 0.76437 0.04189 0.00300
C 	C 	0.50578 0.76973 0.04352 -0.02900
C 	C 	0.55082 0.79702 0.00850 0.00500
C 	C 	0.55287 0.81783 0.97101 -0.04700
C 	C 	0.51095 0.81841 0.97176 0.08200
C 	C 	0.46550 0.79002 0.00664 -0.05900
H 	H 	0.58360 0.79910 0.00931 0.03100
H 	H 	0.43268 0.78841 0.00647 0.07900
H 	H 	0.50410 0.75123 0.07129 0.07100
I 	I 	0.51672 0.86851 0.92603 -0.06500
C 	C 	0.46638 0.70651 0.73229 -0.03400
C 	C 	0.44823 0.72196 0.76980 -0.01900
C 	C 	0.47339 0.73600 0.79702 0.00900
C 	C 	0.51694 0.73461 0.78727 -0.07600
C 	C 	0.53406 0.71702 0.75059 0.07800
C 	C 	0.50908 0.70365 0.72310 -0.04000
H 	H 	0.45950 0.74889 0.82529 0.05300
H 	H 	0.52269 0.69063 0.69483 0.07000
H 	H 	0.41533 0.72429 0.77739 0.05700
I 	I 	0.59498 0.70650 0.73754 -0.08600
C 	C 	0.69807 0.95948 0.75778 -0.05400
C 	C 	0.68541 0.99540 0.76543 -0.00500
C 	C 	0.70853 0.03648 0.73339 -0.01600
C 	C 	0.74492 0.04229 0.69353 -0.04000
C 	C 	0.75495 0.00436 0.68476 0.06100
C 	C 	0.73087 0.96296 0.71674 -0.02800
H 	H 	0.69960 0.06469 0.74026 0.05900
H 	H 	0.74010 0.93484 0.71048 0.07000
H 	H 	0.65923 0.99246 0.79684 0.05200
I 	I 	0.80796 0.00878 0.62486 -0.07100
C 	C 	0.77692 0.96745 0.94188 -0.04700
C 	C 	0.77570 0.95519 0.98220 -0.00900
C 	C 	0.79961 0.99144 0.00221 -0.00200
C 	C 	0.82506 0.04047 0.98227 -0.06900
C 	C 	0.82853 0.05290 0.94079 0.07300
C 	C 	0.80426 0.01644 0.92092 -0.03100
H 	H 	0.79723 0.98138 0.03377 0.05500
H 	H 	0.80628 0.02634 0.88945 0.06700
H 	H 	0.75576 0.91759 0.99833 0.05300
I 	I 	0.87249 0.12594 0.90627 -0.07200
C 	C 	0.70863 0.73420 0.99760 -0.02700
C 	C 	0.69782 0.68600 0.00290 -0.02800
C 	C 	0.71845 0.67125 0.02507 0.01800
C 	C 	0.74990 0.70437 0.04233 -0.09100
C 	C 	0.76078 0.75277 0.03720 0.08500
C 	C 	0.73989 0.76736 0.01514 -0.04500
H 	H 	0.70992 0.63400 0.02888 0.04000
H 	H 	0.74897 0.80477 0.01076 0.06800
H 	H 	0.67355 0.65996 0.98977 0.06300
I 	I 	0.81039 0.80519 0.06061 -0.08800
C 	C 	0.79133 0.75128 0.74349 -0.05500
C 	C 	0.74196 0.72384 0.77254 0.00100
C 	C 	0.72020 0.74534 0.80134 -0.01700
C 	C 	0.74770 0.79457 0.80179 -0.03500
C 	C 	0.79869 0.82143 0.77485 0.06200
C 	C 	0.81982 0.79986 0.74499 -0.02500
H 	H 	0.68172 0.72365 0.82322 0.06100
H 	H 	0.85834 0.82091 0.72291 0.05800
H 	H 	0.71981 0.68620 0.77163 0.05000
I 	I 	0.84597 0.89252 0.78036 -0.06700
