data_crystal

_cell_length_a 49.66522
_cell_length_b 45.32193
_cell_length_c 27.80569
_cell_angle_alpha 92.21257
_cell_angle_beta  88.50256
_cell_angle_gamma 89.99658

_symmetry_space_group_name_	'P 1'
_symmetry_space_group_name_H-M	'P 1'

loop_
_symmetry_equiv_pos_as_xyz
  x,y,z

loop_
_atom_site_label
_atom_site_type_symbol
_atom_site_fract_x
_atom_site_fract_y
_atom_site_fract_z
_atom_site_charge
Cd	Cd	0.00150 0.83404 0.19253 1.24600
Cd	Cd	0.94280 0.86689 0.24077 1.17100
O 	O 	0.01146 0.78102 0.19960 -0.29600
O 	O 	0.03766 0.81016 0.15813 -0.31600
C 	C 	0.03376 0.78405 0.17474 0.31500
O 	O 	0.00143 0.87940 0.16528 -0.38200
O 	O 	0.97560 0.90075 0.22715 -0.41900
C 	C 	0.99205 0.90304 0.18929 0.32000
C 	C 	0.95275 0.82621 0.14268 0.33200
O 	O 	0.97643 0.84064 0.27738 -0.45000
O 	O 	0.97335 0.81883 0.11452 -0.27000
O 	O 	0.95830 0.83102 0.18751 -0.54300
C 	C 	0.99883 0.85132 0.29430 0.31500
O 	O 	0.01923 0.85143 0.26381 -0.34900
Cd	Cd	0.01013 0.88608 0.01275 1.24200
Cd	Cd	0.99870 0.94235 0.92838 1.19200
O 	O 	0.04313 0.84763 0.98814 -0.28800
O 	O 	0.02360 0.84853 0.05991 -0.33200
C 	C 	0.04039 0.83531 0.02936 0.31000
O 	O 	0.98563 0.92073 0.05479 -0.37000
O 	O 	0.96741 0.93829 0.98715 -0.41100
C 	C 	0.97357 0.94217 0.03253 0.31100
C 	C 	0.04891 0.93188 0.00197 0.30600
O 	O 	0.99260 0.89170 0.92483 -0.42100
O 	O 	0.05317 0.91727 0.04071 -0.27700
O 	O 	0.03058 0.92100 0.97400 -0.50800
C 	C 	0.97075 0.87783 0.93806 0.32200
O 	O 	0.97161 0.86595 0.98006 -0.34000
C 	C 	0.13981 0.68212 0.86487 0.17300
N 	N 	0.13978 0.69119 0.81884 -0.13000
C 	C 	0.15437 0.67628 0.78379 0.14200
N 	N 	0.16812 0.65161 0.79448 -0.14300
C 	C 	0.16744 0.64176 0.84001 0.14100
N 	N 	0.15349 0.65728 0.87531 -0.13000
C 	C 	0.14338 0.64908 0.35055 0.17300
N 	N 	0.14151 0.66156 0.39575 -0.13200
C 	C 	0.15132 0.64717 0.43347 0.14000
N 	N 	0.16370 0.62066 0.42576 -0.14300
C 	C 	0.16556 0.60810 0.38072 0.13900
N 	N 	0.15552 0.62237 0.34305 -0.13100
Cd	Cd	0.81112 0.06932 0.90238 1.24500
Cd	Cd	0.85165 0.04594 0.99708 1.17400
O 	O 	0.76225 0.07617 0.91655 -0.29800
O 	O 	0.78250 0.08929 0.84939 -0.32800
C 	C 	0.76016 0.08761 0.87465 0.31700
O 	O 	0.85336 0.07408 0.87432 -0.38100
O 	O 	0.87198 0.04045 0.92379 -0.40900
C 	C 	0.87464 0.06044 0.89069 0.32200
C 	C 	0.82528 0.11046 0.97761 0.34400
O 	O 	0.81571 0.02393 0.95759 -0.44500
O 	O 	0.81627 0.12405 0.94074 -0.28300
O 	O 	0.82332 0.08198 0.97511 -0.54100
C 	C 	0.81754 0.00694 0.91866 0.32400
O 	O 	0.81219 0.01977 0.87870 -0.33400
Cd	Cd	0.85444 0.02371 0.33012 1.24400
Cd	Cd	0.90055 0.03284 0.23281 1.16800
O 	O 	0.80629 0.03625 0.32356 -0.30200
O 	O 	0.82199 0.01533 0.38734 -0.33000
C 	C 	0.80132 0.02565 0.36568 0.31700
O 	O 	0.89199 0.00175 0.35187 -0.38200
O 	O 	0.92143 0.02719 0.30317 -0.43400
C 	C 	0.91677 0.00778 0.33671 0.33600
C 	C 	0.85461 0.98191 0.25089 0.33100
O 	O 	0.87383 0.06661 0.27773 -0.46100
O 	O 	0.84123 0.97187 0.28782 -0.28400
O 	O 	0.86212 0.00926 0.25522 -0.54500
C 	C 	0.88003 0.08034 0.31807 0.32000
O 	O 	0.87135 0.06851 0.35751 -0.33600
C 	C 	0.57453 0.14049 0.93136 0.17400
N 	N 	0.57548 0.14484 0.97991 -0.12700
C 	C 	0.55253 0.14428 0.00744 0.13000
N 	N 	0.52858 0.13935 0.98625 -0.13600
C 	C 	0.52745 0.13521 0.93775 0.14100
N 	N 	0.55036 0.13677 0.91014 -0.13200
C 	C 	0.60791 0.05520 0.38742 0.17600
N 	N 	0.58487 0.04163 0.40186 -0.13100
C 	C 	0.56073 0.05096 0.38628 0.14000
N 	N 	0.55981 0.07278 0.35426 -0.14200
C 	C 	0.58283 0.08618 0.33929 0.14100
N 	N 	0.60675 0.07783 0.35693 -0.13200
Cd	Cd	0.08849 0.16157 0.22870 1.24400
Cd	Cd	0.04787 0.12208 0.31424 1.17200
O 	O 	0.12351 0.19398 0.26242 -0.29600
O 	O 	0.11997 0.18646 0.18405 -0.32300
C 	C 	0.13257 0.19944 0.21948 0.31600
O 	O 	0.06575 0.12880 0.18273 -0.37200
O 	O 	0.03259 0.12217 0.23946 -0.43700
C 	C 	0.04745 0.11171 0.20289 0.31700
C 	C 	0.10930 0.10991 0.26939 0.32800
O 	O 	0.05456 0.17187 0.30159 -0.45100
O 	O 	0.12465 0.11836 0.23358 -0.26800
O 	O 	0.09076 0.12852 0.28423 -0.53000
C 	C 	0.04066 0.18826 0.27370 0.31900
O 	O 	0.05221 0.19375 0.23224 -0.33000
Cd	Cd	0.00360 0.22020 0.03594 1.24400
Cd	Cd	0.93795 0.21402 0.99107 1.17100
O 	O 	0.02677 0.26839 0.04050 -0.29900
O 	O 	0.04454 0.22851 0.06896 -0.32500
C 	C 	0.04742 0.25629 0.05981 0.31800
O 	O 	0.99166 0.17395 0.05008 -0.37600
O 	O 	0.95935 0.17029 0.99267 -0.42600
C 	C 	0.97172 0.15931 0.02947 0.31000
C 	C 	0.95853 0.23489 0.09677 0.32600
O 	O 	0.97798 0.22992 0.95562 -0.45200
O 	O 	0.98049 0.23393 0.12168 -0.26700
O 	O 	0.96259 0.23569 0.05062 -0.54000
C 	C 	0.99612 0.21312 0.93356 0.31800
O 	O 	0.01635 0.20530 0.95908 -0.34500
C 	C 	0.17918 0.37943 0.89672 0.17600
N 	N 	0.18183 0.40880 0.90715 -0.13200
C 	C 	0.19146 0.42700 0.87304 0.14000
N 	N 	0.19948 0.41560 0.82914 -0.14300
C 	C 	0.19724 0.38621 0.81877 0.14000
N 	N 	0.18713 0.36813 0.85262 -0.13100
C 	C 	0.22209 0.35186 0.39172 0.17500
N 	N 	0.22082 0.38104 0.38261 -0.13200
C 	C 	0.22710 0.40164 0.41728 0.14100
N 	N 	0.23337 0.39298 0.46183 -0.14300
C 	C 	0.23382 0.36387 0.47167 0.14000
N 	N 	0.22862 0.34329 0.43627 -0.13100
Cd	Cd	0.12509 0.09394 0.74757 1.24500
Cd	Cd	0.10288 0.14757 0.83815 1.18900
O 	O 	0.17365 0.08923 0.72922 -0.29400
O 	O 	0.14454 0.05764 0.69937 -0.31800
C 	C 	0.16975 0.06448 0.70513 0.31400
O 	O 	0.08164 0.08311 0.75995 -0.36400
O 	O 	0.06935 0.12827 0.79385 -0.41100
C 	C 	0.06452 0.09989 0.78601 0.32100
C 	C 	0.13124 0.08190 0.84683 0.33800
O 	O 	0.12491 0.15115 0.76401 -0.44600
O 	O 	0.13506 0.05838 0.81894 -0.28000
O 	O 	0.12875 0.10643 0.82469 -0.51900
C 	C 	0.11317 0.15393 0.72300 0.31600
O 	O 	0.11301 0.13002 0.69516 -0.33000
Cd	Cd	0.13204 0.92440 0.55336 1.24600
Cd	Cd	0.11530 0.88820 0.44118 1.17600
O 	O 	0.17793 0.91919 0.58327 -0.29500
O 	O 	0.14911 0.95061 0.61701 -0.31700
C 	C 	0.17398 0.94157 0.61341 0.31300
O 	O 	0.09241 0.94404 0.53631 -0.36600
O 	O 	0.07971 0.90643 0.48424 -0.42500
C 	C 	0.07697 0.93381 0.50146 0.32100
C 	C 	0.15040 0.94814 0.46475 0.34300
O 	O 	0.12757 0.87108 0.51503 -0.44900
O 	O 	0.15371 0.96676 0.50104 -0.26400
O 	O 	0.14325 0.92178 0.47626 -0.53400
C 	C 	0.11067 0.86497 0.54992 0.31500
O 	O 	0.11011 0.88425 0.58621 -0.33000
C 	C 	0.30526 0.03035 0.91559 0.17600
N 	N 	0.30053 0.02445 0.96263 -0.13200
C 	C 	0.31903 0.03217 0.99601 0.14900
N 	N 	0.34240 0.04520 0.98202 -0.14200
C 	C 	0.34792 0.04929 0.93467 0.14300
N 	N 	0.32911 0.04235 0.90157 -0.13200
C 	C 	0.32549 0.98541 0.42511 0.17200
N 	N 	0.31763 0.98874 0.37915 -0.13200
C 	C 	0.33641 0.99098 0.34305 0.13800
N 	N 	0.36295 0.99147 0.35340 -0.14300
C 	C 	0.37082 0.98943 0.39951 0.14000
N 	N 	0.35212 0.98553 0.43513 -0.12900
C 	C 	0.31573 0.02254 0.04586 -0.05500
C 	C 	0.29527 0.03442 0.07746 0.11500
C 	C 	0.29481 0.02700 0.12610 -0.08600
C 	C 	0.31530 0.00961 0.14416 -0.00100
C 	C 	0.33512 0.99686 0.11223 0.07500
C 	C 	0.33484 0.00312 0.06326 -0.04600
N 	N 	0.27666 0.05366 0.06193 -0.20100
H 	H 	0.27938 0.03626 0.15055 0.06700
C 	C 	0.31727 0.00714 0.19693 -0.00300
N 	N 	0.35468 0.97899 0.12843 -0.19300
H 	H 	0.35015 0.99361 0.03880 0.05300
C 	C 	0.30701 0.98191 0.21857 -0.08400
C 	C 	0.31320 0.97592 0.26624 0.11100
C 	C 	0.32807 0.99689 0.29384 -0.04500
C 	C 	0.33648 0.02321 0.27321 -0.04900
C 	C 	0.33159 0.02840 0.22481 0.07700
H 	H 	0.29574 0.96590 0.19723 0.06500
N 	N 	0.30587 0.94957 0.28440 -0.20000
H 	H 	0.34750 0.03941 0.29463 0.05600
N 	N 	0.34097 0.05360 0.20523 -0.19300
H 	H 	0.29400 0.93479 0.26444 0.10300
H 	H 	0.31288 0.94286 0.31727 0.11800
H 	H 	0.35177 0.06898 0.22602 0.09500
H 	H 	0.33754 0.05834 0.16947 0.09700
H 	H 	0.36938 0.96997 0.10461 0.09300
H 	H 	0.35547 0.97371 0.16457 0.09500
H 	H 	0.27754 0.06136 0.02708 0.11900
H 	H 	0.26137 0.06180 0.08534 0.10800
C 	C 	0.19626 0.96258 0.62137 -0.09600
C 	C 	0.19657 0.98889 0.59591 0.11900
C 	C 	0.22027 0.99714 0.57118 0.07000
C 	C 	0.24409 0.98087 0.57668 0.01900
C 	C 	0.24503 0.96006 0.61301 0.07000
C 	C 	0.22093 0.95143 0.63633 0.12100
C 	C 	0.26572 0.98135 0.53897 0.01300
C 	C 	0.26579 0.96023 0.50039 0.07300
C 	C 	0.28639 0.96048 0.46477 0.10200
C 	C 	0.30514 0.98383 0.46453 -0.06300
C 	C 	0.30431 0.00575 0.50199 0.10300
C 	C 	0.28560 0.00349 0.54052 0.07400
Br	Br	0.27858 0.94107 0.62630 -0.13100
Br	Br	0.16465 0.01287 0.59355 -0.15200
Br	Br	0.28996 0.92790 0.41835 -0.19500
Br	Br	0.28735 0.03042 0.59558 -0.12200
Br	Br	0.22114 0.92197 0.68424 -0.13700
Br	Br	0.21936 0.02803 0.52550 -0.13700
Br	Br	0.23707 0.93166 0.49543 -0.17000
Br	Br	0.32739 0.03992 0.49882 -0.17700
C 	C 	0.19084 0.04147 0.70412 -0.09400
C 	C 	0.18651 0.01580 0.73043 0.11900
C 	C 	0.20714 0.00551 0.75922 0.06800
C 	C 	0.23210 0.02024 0.75959 0.02000
C 	C 	0.23817 0.04046 0.72363 0.06900
C 	C 	0.21753 0.05006 0.69425 0.12000
C 	C 	0.24865 0.01998 0.80311 0.01000
C 	C 	0.24409 0.04144 0.84050 0.07300
C 	C 	0.26227 0.04437 0.87825 0.10200
C 	C 	0.28424 0.02484 0.88007 -0.06400
C 	C 	0.28750 0.00184 0.84487 0.10200
C 	C 	0.27002 0.99975 0.80586 0.07600
Br	Br	0.27335 0.05828 0.72015 -0.13800
Br	Br	0.15269 0.99511 0.72749 -0.15100
Br	Br	0.25810 0.07635 0.92570 -0.18800
Br	Br	0.27574 0.96982 0.75557 -0.12000
Br	Br	0.22490 0.07780 0.64499 -0.13800
Br	Br	0.20044 0.97369 0.80188 -0.14200
Br	Br	0.21320 0.06725 0.83923 -0.17400
Br	Br	0.31592 0.97323 0.85029 -0.16700
C 	C 	0.23522 0.35509 0.52225 -0.04200
C 	C 	0.25330 0.36927 0.55415 0.10700
C 	C 	0.24809 0.36883 0.60401 -0.08300
C 	C 	0.22625 0.35278 0.62240 -0.00500
C 	C 	0.21087 0.33479 0.59075 0.08200
C 	C 	0.21522 0.33647 0.54079 -0.05100
N 	N 	0.27579 0.38290 0.53714 -0.19800
H 	H 	0.26069 0.38151 0.62846 0.06000
C 	C 	0.21730 0.35833 0.67328 -0.00200
N 	N 	0.19185 0.31610 0.60806 -0.19400
H 	H 	0.20216 0.32438 0.51641 0.07500
C 	C 	0.19457 0.37612 0.68321 -0.08400
C 	C 	0.18657 0.38374 0.73084 0.11000
C 	C 	0.20247 0.37466 0.76914 -0.04400
C 	C 	0.22462 0.35598 0.75940 -0.04800
C 	C 	0.23198 0.34732 0.71175 0.07700
H 	H 	0.18304 0.38402 0.65371 0.06200
N 	N 	0.16340 0.39931 0.73958 -0.19900
H 	H 	0.23638 0.34847 0.78890 0.06300
N 	N 	0.25291 0.32829 0.70327 -0.19400
H 	H 	0.15232 0.40683 0.71105 0.09800
H 	H 	0.15557 0.40303 0.77450 0.11100
H 	H 	0.26405 0.32086 0.73180 0.09900
H 	H 	0.25784 0.32003 0.66859 0.09900
H 	H 	0.17989 0.30367 0.58447 0.10500
H 	H 	0.18947 0.31291 0.64492 0.10100
H 	H 	0.28166 0.38081 0.50082 0.10400
H 	H 	0.28844 0.39445 0.56069 0.09500
C 	C 	0.01495 0.17829 0.81408 -0.12600
C 	C 	0.02107 0.20378 0.78886 0.00100
C 	C 	0.00999 0.23098 0.80561 0.12700
C 	C 	0.99810 0.23350 0.85190 -0.03000
C 	C 	0.99717 0.20885 0.88098 -0.14300
C 	C 	0.00342 0.18078 0.86042 0.19600
C 	C 	0.04430 0.20298 0.75449 0.00900
O 	O 	0.01108 0.25506 0.77718 -0.26800
H 	H 	0.99167 0.25495 0.86646 0.06200
O 	O 	0.00107 0.15618 0.88749 -0.29700
H 	H 	0.02162 0.15688 0.79982 0.07800
C 	C 	0.06932 0.21427 0.76954 0.10100
C 	C 	0.09322 0.20196 0.75011 -0.05300
C 	C 	0.09223 0.17688 0.71907 -0.13500
C 	C 	0.06776 0.17012 0.69643 0.19800
C 	C 	0.04381 0.18338 0.71417 -0.11500
O 	O 	0.07043 0.23529 0.80630 -0.26300
H 	H 	0.11232 0.20928 0.76428 0.04900
O 	O 	0.06686 0.14898 0.65988 -0.27500
H 	H 	0.02470 0.17613 0.69996 0.07700
H 	H 	0.98261 0.14866 0.88207 0.15700
H 	H 	0.07120 0.22414 0.83625 0.12800
H 	H 	0.06963 0.15984 0.62987 0.16000
H 	H 	0.02721 0.26635 0.78727 0.17100
C 	C 	0.16321 0.36110 0.92943 -0.06900
C 	C 	0.13570 0.35618 0.92097 0.10700
C 	C 	0.12034 0.33871 0.95205 0.06600
C 	C 	0.13255 0.32561 0.99115 0.03000
C 	C 	0.15993 0.33100 0.00022 0.05700
C 	C 	0.17526 0.34880 0.96937 0.11400
C 	C 	0.11699 0.30450 0.02030 0.01100
C 	C 	0.10070 0.31497 0.05950 0.07500
C 	C 	0.07945 0.29740 0.07679 0.12700
C 	C 	0.07439 0.26960 0.05448 -0.09900
C 	C 	0.09312 0.25757 0.01991 0.12300
C 	C 	0.11473 0.27493 0.00362 0.06700
Br	Br	0.17643 0.31363 0.05445 -0.12400
Br	Br	0.11915 0.37315 0.86639 -0.19900
Br	Br	0.05694 0.31145 0.13036 -0.14400
Br	Br	0.14027 0.25896 0.95606 -0.17000
Br	Br	0.21283 0.35594 0.98118 -0.16400
Br	Br	0.08254 0.33235 0.94085 -0.15800
Br	Br	0.10666 0.35388 0.08758 -0.13600
Br	Br	0.08805 0.21839 0.99190 -0.21400
C 	C 	0.15712 0.99813 0.36213 -0.12000
C 	C 	0.13050 0.99776 0.34655 0.01300
C 	C 	0.11308 0.97503 0.36059 0.11700
C 	C 	0.12118 0.95543 0.39516 -0.01700
C 	C 	0.14640 0.95891 0.41637 -0.17200
C 	C 	0.16514 0.97872 0.39692 0.21500
C 	C 	0.11970 0.02411 0.32446 0.01000
O 	O 	0.08795 0.97241 0.34148 -0.27700
H 	H 	0.10702 0.93930 0.40836 -0.03200
O 	O 	0.19046 0.98110 0.41526 -0.26700
H 	H 	0.17095 0.01498 0.35008 0.08900
C 	C 	0.10807 0.04693 0.35387 0.11300
C 	C 	0.10334 0.07453 0.33494 -0.03900
C 	C 	0.11043 0.07967 0.28687 -0.15700
C 	C 	0.11963 0.05598 0.25632 0.20700
C 	C 	0.12459 0.02844 0.27542 -0.11400
O 	O 	0.10176 0.04239 0.40135 -0.27900
H 	H 	0.09519 0.09228 0.35820 0.00500
O 	O 	0.12431 0.05985 0.20813 -0.27500
H 	H 	0.13298 0.01072 0.25241 0.08400
H 	H 	0.20175 0.96706 0.39530 0.16200
H 	H 	0.11816 0.04799 0.41916 0.16400
H 	H 	0.10709 0.05473 0.19256 0.15400
H 	H 	0.07591 0.98469 0.36308 0.16200
C 	C 	0.15558 0.21929 0.21215 -0.10200
C 	C 	0.17999 0.21276 0.23390 0.12400
C 	C 	0.19578 0.23584 0.25327 0.06700
C 	C 	0.18754 0.26530 0.24861 0.02100
C 	C 	0.16691 0.27151 0.21665 0.06800
C 	C 	0.15088 0.24830 0.19819 0.12400
C 	C 	0.19605 0.28830 0.28442 0.01100
C 	C 	0.18057 0.29338 0.32718 0.07200
C 	C 	0.18879 0.31472 0.36177 0.10400
C 	C 	0.21335 0.32975 0.35511 -0.06400
C 	C 	0.22903 0.32441 0.31265 0.10300
C 	C 	0.21996 0.30433 0.27669 0.07600
Br	Br	0.15941 0.31176 0.20153 -0.12500
Br	Br	0.19037 0.17221 0.24054 -0.16400
Br	Br	0.16579 0.32437 0.41719 -0.18500
Br	Br	0.24008 0.29894 0.21673 -0.13800
Br	Br	0.12151 0.25629 0.15680 -0.15100
Br	Br	0.22708 0.22722 0.28979 -0.15000
Br	Br	0.14828 0.27070 0.33863 -0.15600
Br	Br	0.26336 0.34375 0.30462 -0.18400
C 	C 	0.39872 0.99676 0.41173 -0.04300
C 	C 	0.40898 0.02549 0.40516 0.11100
C 	C 	0.43679 0.03039 0.40740 -0.08300
C 	C 	0.45430 0.00745 0.41807 -0.00300
C 	C 	0.44371 0.97954 0.42980 0.07900
C 	C 	0.41594 0.97433 0.42581 -0.04900
N 	N 	0.39223 0.04845 0.39716 -0.19900
H 	H 	0.44489 0.05204 0.40015 0.06100
C 	C 	0.48369 0.01250 0.41360 -0.00200
N 	N 	0.46006 0.95763 0.44406 -0.19400
H 	H 	0.40786 0.95258 0.43238 0.06200
C 	C 	0.49665 0.02795 0.45104 -0.08400
C 	C 	0.52269 0.03935 0.44392 0.11200
C 	C 	0.53600 0.03478 0.39860 -0.04500
C 	C 	0.52398 0.01712 0.36270 -0.04700
C 	C 	0.49786 0.00601 0.36960 0.07600
H 	H 	0.48595 0.03229 0.48509 0.06600
N 	N 	0.53447 0.05514 0.48028 -0.20000
H 	H 	0.53458 0.01297 0.32850 0.06000
N 	N 	0.48634 0.98966 0.33358 -0.19300
H 	H 	0.52428 0.05876 0.51335 0.10500
H 	H 	0.55389 0.06368 0.47641 0.11700
H 	H 	0.49678 0.98550 0.30090 0.09500
H 	H 	0.46717 0.98054 0.33778 0.09600
H 	H 	0.45217 0.93687 0.45146 0.10000
H 	H 	0.48060 0.96115 0.44894 0.10100
H 	H 	0.37132 0.04613 0.39943 0.11300
H 	H 	0.40006 0.06935 0.39050 0.09900
C 	C 	0.50150 0.12749 0.91582 -0.04400
C 	C 	0.49788 0.10042 0.88926 0.11300
C 	C 	0.47174 0.09142 0.87750 -0.08400
C 	C 	0.44923 0.10651 0.89749 -0.00200
C 	C 	0.45279 0.13437 0.92133 0.07800
C 	C 	0.47896 0.14510 0.92838 -0.04800
N 	N 	0.51902 0.08220 0.87742 -0.20000
H 	H 	0.46887 0.07069 0.85749 0.06600
C 	C 	0.42357 0.09010 0.90274 -0.00200
N 	N 	0.43131 0.15051 0.93872 -0.19400
H 	H 	0.48176 0.16630 0.94703 0.06000
C 	C 	0.42212 0.06724 0.93528 -0.08300
C 	C 	0.39834 0.05104 0.94124 0.11100
C 	C 	0.37462 0.06041 0.91916 -0.04300
C 	C 	0.37629 0.08233 0.88484 -0.04800
C 	C 	0.40091 0.09648 0.87501 0.07900
H 	H 	0.43986 0.06140 0.95478 0.06200
N 	N 	0.39872 0.02573 0.96595 -0.19800
H 	H 	0.35837 0.08875 0.86637 0.06800
N 	N 	0.40255 0.11633 0.83958 -0.19400
H 	H 	0.41575 0.02001 0.98484 0.09600
H 	H 	0.38306 0.01042 0.96345 0.10500
H 	H 	0.38555 0.12140 0.82009 0.10400
H 	H 	0.42075 0.12643 0.83034 0.10100
H 	H 	0.43422 0.17086 0.95678 0.09800
H 	H 	0.41158 0.14320 0.93437 0.09900
H 	H 	0.53772 0.08497 0.89304 0.12100
H 	H 	0.51628 0.06349 0.85493 0.10600
C 	C 	0.55420 0.14291 0.06015 -0.04400
C 	C 	0.56743 0.16519 0.08772 0.11000
C 	C 	0.57260 0.16060 0.13632 -0.08400
C 	C 	0.56413 0.13461 0.15790 -0.00100
C 	C 	0.54882 0.11358 0.13141 0.07800
C 	C 	0.54425 0.11782 0.08263 -0.04900
N 	N 	0.57469 0.19115 0.06813 -0.19800
H 	H 	0.58367 0.17705 0.15714 0.06500
C 	C 	0.57343 0.12832 0.20659 -0.00400
N 	N 	0.53870 0.08918 0.15247 -0.19300
H 	H 	0.53357 0.10109 0.06170 0.05900
C 	C 	0.55775 0.13785 0.24692 -0.08300
C 	C 	0.56247 0.12670 0.29240 0.10700
C 	C 	0.58249 0.10481 0.29687 -0.04200
C 	C 	0.60001 0.09785 0.25764 -0.05100
C 	C 	0.59582 0.10965 0.21256 0.08500
H 	H 	0.54135 0.15324 0.24264 0.06100
N 	N 	0.54819 0.13747 0.33161 -0.19800
H 	H 	0.61616 0.08209 0.26155 0.07600
N 	N 	0.61300 0.10253 0.17498 -0.19400
H 	H 	0.53265 0.15269 0.32776 0.09600
H 	H 	0.55329 0.13203 0.36638 0.10500
H 	H 	0.62896 0.08791 0.17930 0.10900
H 	H 	0.61120 0.11205 0.14163 0.10600
H 	H 	0.52805 0.07338 0.13227 0.09400
H 	H 	0.54066 0.08598 0.18919 0.09600
H 	H 	0.56890 0.19635 0.03364 0.10800
H 	H 	0.58531 0.20702 0.08823 0.10200
C 	C 	0.96806 0.17255 0.25327 -0.11500
C 	C 	0.95846 0.17197 0.30116 -0.00000
C 	C 	0.97377 0.18543 0.33785 0.11500
C 	C 	0.00032 0.19412 0.32781 -0.04800
C 	C 	0.01121 0.19070 0.28085 -0.13600
C 	C 	0.99403 0.18288 0.24293 0.20000
C 	C 	0.93599 0.15194 0.31354 0.00700
O 	O 	0.96365 0.18770 0.38422 -0.27800
H 	H 	0.01294 0.20171 0.35699 0.05700
O 	O 	0.00271 0.18478 0.19592 -0.26800
H 	H 	0.95625 0.16291 0.22452 0.07200
C 	C 	0.91102 0.15415 0.29107 0.11200
C 	C 	0.89267 0.13068 0.29273 -0.03300
C 	C 	0.89842 0.10578 0.31916 -0.13900
C 	C 	0.92197 0.10522 0.34619 0.18800
C 	C 	0.94083 0.12796 0.34262 -0.11400
O 	O 	0.90390 0.17984 0.27010 -0.25600
H 	H 	0.87390 0.13196 0.27389 0.05900
O 	O 	0.92644 0.08267 0.37656 -0.27800
H 	H 	0.95973 0.12638 0.36100 0.05900
H 	H 	0.01095 0.16535 0.18716 0.16400
H 	H 	0.90878 0.17691 0.23548 0.14300
H 	H 	0.93939 0.06929 0.35894 0.14100
H 	H 	0.95457 0.20721 0.38698 0.16500
C 	C 	0.98365 0.97561 0.37010 -0.12000
C 	C 	0.98394 0.98278 0.41959 0.00400
C 	C 	0.96188 0.99771 0.44202 0.12400
C 	C 	0.93978 0.00545 0.41485 -0.03100
C 	C 	0.93948 0.99825 0.36532 -0.12800
C 	C 	0.96162 0.98341 0.34289 0.18900
C 	C 	0.00666 0.97307 0.44821 0.00600
O 	O 	0.96223 0.00548 0.49018 -0.26900
H 	H 	0.92305 0.01739 0.43217 0.07000
O 	O 	0.96134 0.97558 0.29479 -0.29300
H 	H 	0.00047 0.96379 0.35278 0.08200
C 	C 	0.00465 0.94692 0.47367 0.12100
C 	C 	0.02726 0.93588 0.49594 -0.03000
C 	C 	0.05228 0.94992 0.49092 -0.12300
C 	C 	0.05387 0.97719 0.46853 0.18900
C 	C 	0.03113 0.98854 0.44681 -0.10900
O 	O 	0.98072 0.93187 0.47613 -0.27200
H 	H 	0.02567 0.91554 0.51494 0.06500
O 	O 	0.07798 0.99183 0.46521 -0.29200
H 	H 	0.03272 0.00887 0.42764 0.07000
H 	H 	0.97033 0.99209 0.27843 0.13100
H 	H 	0.98125 0.91769 0.44803 0.15100
H 	H 	0.07836 0.00524 0.49421 0.17000
H 	H 	0.95362 0.98877 0.50669 0.16400
C 	C 	0.77442 0.02789 0.38910 -0.10600
C 	C 	0.76123 0.05541 0.39289 0.12400
C 	C 	0.73327 0.05663 0.40182 0.06600
C 	C 	0.71888 0.03050 0.41054 0.02000
C 	C 	0.73292 0.00377 0.41483 0.06800
C 	C 	0.76055 0.00218 0.40245 0.12300
C 	C 	0.68914 0.03038 0.40811 0.01100
C 	C 	0.67323 0.04034 0.44821 0.07500
C 	C 	0.64582 0.04691 0.44247 0.10400
C 	C 	0.63416 0.04208 0.39723 -0.06400
C 	C 	0.64914 0.02798 0.35934 0.10300
C 	C 	0.67684 0.02307 0.36412 0.07200
Br	Br	0.71395 0.96923 0.43570 -0.14100
Br	Br	0.78163 0.09136 0.38707 -0.16700
Br	Br	0.62455 0.06360 0.49578 -0.17000
Br	Br	0.69826 0.00804 0.30968 -0.15900
Br	Br	0.77884 0.96459 0.40054 -0.16300
Br	Br	0.71442 0.09372 0.39914 -0.15000
Br	Br	0.68924 0.04569 0.51035 -0.13200
Br	Br	0.63158 0.01541 0.30097 -0.18800
C 	C 	0.99038 0.08500 0.77115 -0.11000
C 	C 	0.98273 0.07723 0.81793 0.00300
C 	C 	0.00249 0.07451 0.85286 0.12200
C 	C 	0.02957 0.07974 0.84095 -0.03900
C 	C 	0.03704 0.08904 0.79501 -0.11700
C 	C 	0.01739 0.09127 0.75978 0.19300
C 	C 	0.95401 0.07234 0.83056 0.00500
O 	O 	0.99537 0.06664 0.89861 -0.28400
H 	H 	0.04466 0.07709 0.86777 0.06100
O 	O 	0.02457 0.09929 0.71415 -0.27400
H 	H 	0.97532 0.08669 0.74386 0.07600
C 	C 	0.93594 0.09629 0.83481 0.11700
C 	C 	0.90959 0.09198 0.85233 -0.03200
C 	C 	0.90108 0.06389 0.86590 -0.12100
C 	C 	0.91866 0.03957 0.85853 0.19500
C 	C 	0.94504 0.04394 0.84127 -0.10600
O 	O 	0.94437 0.12415 0.82404 -0.29000
H 	H 	0.89601 0.11067 0.85655 0.05500
O 	O 	0.91031 0.01164 0.86914 -0.29600
H 	H 	0.95871 0.02532 0.83710 0.06700
H 	H 	0.02230 0.12103 0.71453 0.15700
H 	H 	0.94021 0.12625 0.78965 0.14900
H 	H 	0.90245 0.00335 0.83910 0.15600
H 	H 	0.99208 0.08555 0.91699 0.16100
C 	C 	0.88717 0.21240 0.09371 -0.12900
C 	C 	0.89055 0.18227 0.10187 -0.01300
C 	C 	0.91365 0.17299 0.12537 0.11300
C 	C 	0.93499 0.19271 0.13248 -0.04700
C 	C 	0.93363 0.22131 0.11497 -0.14300
C 	C 	0.90872 0.23194 0.10010 0.14600
C 	C 	0.87415 0.16040 0.07496 -0.00200
O 	O 	0.91686 0.14381 0.13539 -0.28700
H 	H 	0.95382 0.18460 0.14560 0.07800
O 	O 	0.90598 0.26094 0.08858 -0.26400
H 	H 	0.86891 0.22006 0.07771 0.06200
C 	C 	0.84618 0.15845 0.08381 0.10500
C 	C 	0.83033 0.14106 0.05282 -0.02300
C 	C 	0.84226 0.12565 0.01306 -0.18500
C 	C 	0.87032 0.12657 0.00557 0.17200
C 	C 	0.88613 0.14382 0.03648 -0.13900
O 	O 	0.83442 0.17300 0.12313 -0.26500
H 	H 	0.80873 0.14004 0.05917 0.05700
O 	O 	0.88231 0.11093 0.96764 -0.34700
H 	H 	0.90763 0.14530 0.02936 0.05200
H 	H 	0.91004 0.26140 0.05349 0.09100
H 	H 	0.82819 0.19214 0.11130 0.15300
H 	H 	0.88306 0.12478 0.94089 0.15200
H 	H 	0.90898 0.14180 0.16821 0.13300
C 	C 	0.59949 0.13296 0.90394 -0.06500
C 	C 	0.61149 0.15349 0.87328 0.10200
C 	C 	0.63775 0.14842 0.85441 0.07600
C 	C 	0.65238 0.12363 0.86826 0.01100
C 	C 	0.63947 0.10192 0.89554 0.07200
C 	C 	0.61277 0.10625 0.91217 0.10200
C 	C 	0.68191 0.12208 0.85947 0.02000
C 	C 	0.69268 0.10296 0.82272 0.06900
C 	C 	0.71959 0.09335 0.82476 0.12200
C 	C 	0.73584 0.10398 0.86238 -0.10400
C 	C 	0.72642 0.12722 0.89340 0.12400
C 	C 	0.69923 0.13575 0.89288 0.06600
Br	Br	0.65893 0.06711 0.91247 -0.15300
Br	Br	0.59241 0.18898 0.85885 -0.16900
Br	Br	0.73369 0.06452 0.77794 -0.15300
Br	Br	0.68523 0.16446 0.94011 -0.15400
Br	Br	0.59433 0.07570 0.94653 -0.18900
Br	Br	0.65404 0.17567 0.81079 -0.14000
Br	Br	0.67014 0.08881 0.77142 -0.13400
Br	Br	0.75077 0.14716 0.93662 -0.17100
C 	C 	0.17754 0.57854 0.37326 -0.04500
C 	C 	0.16131 0.55342 0.36323 0.11100
C 	C 	0.17281 0.52515 0.36386 -0.08300
C 	C 	0.19962 0.52150 0.37704 -0.00100
C 	C 	0.21622 0.54659 0.38426 0.07600
C 	C 	0.20501 0.57491 0.38184 -0.04800
N 	N 	0.13457 0.55618 0.35469 -0.20000
H 	H 	0.16036 0.50584 0.35719 0.06800
C 	C 	0.20888 0.49176 0.38943 -0.00100
N 	N 	0.24272 0.54368 0.39447 -0.19400
H 	H 	0.21749 0.59420 0.38854 0.06000
C 	C 	0.22354 0.47448 0.35499 -0.08500
C 	C 	0.23202 0.44590 0.36531 0.11400
C 	C 	0.22320 0.43335 0.40888 -0.04700
C 	C 	0.20889 0.45084 0.44360 -0.04800
C 	C 	0.20221 0.48016 0.43478 0.07600
H 	H 	0.22915 0.48367 0.32072 0.06600
N 	N 	0.24957 0.43127 0.33452 -0.19900
H 	H 	0.20257 0.44146 0.47737 0.05800
N 	N 	0.18938 0.49702 0.46991 -0.19300
H 	H 	0.25470 0.43988 0.30118 0.10700
H 	H 	0.25973 0.41244 0.34475 0.11700
H 	H 	0.18396 0.48802 0.50282 0.09200
H 	H 	0.18529 0.51933 0.46552 0.09400
H 	H 	0.25467 0.56235 0.40066 0.09500
H 	H 	0.25182 0.52298 0.39574 0.09500
H 	H 	0.12498 0.57667 0.35628 0.11400
H 	H 	0.12290 0.53748 0.34701 0.10500
C 	C 	0.17792 0.61187 0.84902 -0.04500
C 	C 	0.18856 0.60495 0.89406 0.11600
C 	C 	0.19234 0.57521 0.90486 -0.08300
C 	C 	0.18873 0.55269 0.86959 -0.00100
C 	C 	0.18131 0.55998 0.82270 0.07700
C 	C 	0.17526 0.58937 0.81327 -0.04800
N 	N 	0.19652 0.62662 0.92574 -0.19800
H 	H 	0.19883 0.56965 0.94034 0.06800
C 	C 	0.19047 0.52144 0.88300 -0.00000
N 	N 	0.17977 0.53885 0.78673 -0.19300
H 	H 	0.16791 0.59462 0.77823 0.05800
C 	C 	0.16650 0.50588 0.89111 -0.08200
C 	C 	0.16623 0.47490 0.88836 0.11300
C 	C 	0.19092 0.45928 0.88192 -0.04600
C 	C 	0.21521 0.47499 0.87929 -0.04800
C 	C 	0.21525 0.50599 0.87941 0.07600
H 	H 	0.14765 0.51790 0.89519 0.07000
N 	N 	0.14221 0.46046 0.88953 -0.20000
H 	H 	0.23411 0.46303 0.87543 0.05900
N 	N 	0.23902 0.52069 0.87514 -0.19300
H 	H 	0.12428 0.47217 0.89618 0.10900
H 	H 	0.14085 0.43785 0.88168 0.11900
H 	H 	0.25717 0.50907 0.87124 0.09600
H 	H 	0.23979 0.54372 0.87665 0.09600
H 	H 	0.17343 0.54431 0.75264 0.09200
H 	H 	0.18563 0.51709 0.79167 0.09400
H 	H 	0.19876 0.64839 0.91533 0.11300
H 	H 	0.20269 0.62141 0.96006 0.10900
C 	C 	0.15310 0.68505 0.73325 -0.04300
C 	C 	0.17649 0.68455 0.70303 0.11000
C 	C 	0.17380 0.68360 0.65287 -0.08400
C 	C 	0.14831 0.68563 0.63268 -0.00300
C 	C 	0.12538 0.69083 0.66313 0.07900
C 	C 	0.12788 0.68977 0.71324 -0.04800
N 	N 	0.20145 0.68565 0.72195 -0.19900
H 	H 	0.19153 0.68090 0.62952 0.06200
C 	C 	0.14545 0.67830 0.58060 -0.00200
N 	N 	0.10102 0.69680 0.64449 -0.19400
H 	H 	0.11004 0.69154 0.73650 0.06600
C 	C 	0.13344 0.65143 0.56656 -0.08400
C 	C 	0.13294 0.64221 0.51785 0.11000
C 	C 	0.14658 0.65909 0.48304 -0.04400
C 	C 	0.15747 0.68662 0.49667 -0.04800
C 	C 	0.15645 0.69675 0.54511 0.07700
H 	H 	0.12437 0.63769 0.59365 0.06200
N 	N 	0.11879 0.61764 0.50462 -0.19900
H 	H 	0.16709 0.70000 0.46968 0.06200
N 	N 	0.16575 0.72420 0.55718 -0.19400
H 	H 	0.10984 0.60455 0.53072 0.09700
H 	H 	0.11525 0.61223 0.46850 0.10900
H 	H 	0.17462 0.73730 0.53101 0.09800
H 	H 	0.16337 0.73324 0.59214 0.10000
H 	H 	0.08396 0.69953 0.66706 0.10200
H 	H 	0.09899 0.69997 0.60776 0.10000
H 	H 	0.20403 0.69002 0.75870 0.10900
H 	H 	0.21864 0.68385 0.69952 0.09800
C 	C 	0.94775 0.01679 0.07291 -0.11600
C 	C 	0.96897 0.03436 0.05626 -0.00000
C 	C 	0.99325 0.02105 0.04008 0.11900
C 	C 	0.99613 0.99040 0.04059 -0.05400
C 	C 	0.97418 0.97255 0.05290 -0.13200
C 	C 	0.95023 0.98595 0.07114 0.18500
C 	C 	0.96530 0.06645 0.05300 0.00100
O 	O 	0.01393 0.03793 0.02238 -0.28000
H 	H 	0.01447 0.98037 0.02646 0.02200
O 	O 	0.92872 0.96899 0.08460 -0.29100
H 	H 	0.92903 0.02696 0.08579 0.02300
C 	C 	0.95533 0.07809 0.01084 0.10200
C 	C 	0.95692 0.10844 0.00380 -0.04200
C 	C 	0.96810 0.12754 0.03907 -0.12000
C 	C 	0.97635 0.11594 0.08277 0.20200
C 	C 	0.97486 0.08552 0.08949 -0.11400
O 	O 	0.94544 0.05961 0.97524 -0.26500
H 	H 	0.95006 0.11698 0.97037 0.06300
O 	O 	0.98547 0.13426 0.11916 -0.29500
H 	H 	0.98205 0.07665 0.12246 0.07400
H 	H 	0.93064 0.96661 0.11961 0.13900
H 	H 	0.92581 0.05835 0.98232 0.12000
H 	H 	0.00537 0.13407 0.11507 0.17100
H 	H 	0.01109 0.03853 0.98725 0.15200
C 	C 	0.91804 0.92101 0.87619 -0.12100
C 	C 	0.89513 0.91312 0.90322 0.00800
C 	C 	0.89596 0.88803 0.93136 0.12400
C 	C 	0.92060 0.87398 0.93832 -0.02400
C 	C 	0.94443 0.88496 0.91729 -0.13000
C 	C 	0.94255 0.90653 0.88218 0.18800
C 	C 	0.87270 0.93431 0.90989 0.01500
O 	O 	0.87282 0.87752 0.95263 -0.26100
H 	H 	0.92138 0.85580 0.96244 0.07600
O 	O 	0.96477 0.91436 0.85528 -0.37800
H 	H 	0.91721 0.93946 0.85260 0.07300
C 	C 	0.87117 0.95303 0.95141 0.10400
C 	C 	0.85142 0.97494 0.95589 -0.01100
C 	C 	0.83413 0.97979 0.91779 -0.14300
C 	C 	0.83482 0.96013 0.87713 0.20800
C 	C 	0.85424 0.93765 0.87319 -0.11600
O 	O 	0.88927 0.95017 0.98739 -0.27300
H 	H 	0.85046 0.98911 0.98816 -0.02900
O 	O 	0.81696 0.96322 0.84084 -0.27200
H 	H 	0.85524 0.92317 0.84126 0.08700
H 	H 	0.96472 0.90098 0.82620 0.17400
H 	H 	0.90458 0.96320 0.97890 0.14800
H 	H 	0.80122 0.95093 0.84973 0.16600
H 	H 	0.87153 0.88760 0.98491 0.16000
C 	C 	0.07677 0.99762 0.93729 -0.12400
C 	C 	0.08610 0.01534 0.97580 0.01100
C 	C 	0.08350 0.00554 0.02302 0.11800
C 	C 	0.07163 0.97808 0.03140 -0.03500
C 	C 	0.06252 0.96016 0.99269 -0.13700
C 	C 	0.06547 0.96998 0.94538 0.18500
C 	C 	0.10082 0.04270 0.96548 0.01600
O 	O 	0.09188 0.02305 0.06110 -0.27600
H 	H 	0.06907 0.97099 0.06800 0.06600
O 	O 	0.05739 0.95255 0.90697 -0.37300
H 	H 	0.07901 0.00499 0.90077 0.07900
C 	C 	0.12887 0.04141 0.95713 0.11900
C 	C 	0.14103 0.06028 0.92430 -0.01000
C 	C 	0.12500 0.07928 0.89849 -0.16400
C 	C 	0.09881 0.08568 0.91635 0.21100
C 	C 	0.08650 0.06690 0.94924 -0.12200
O 	O 	0.14395 0.02014 0.97772 -0.26200
H 	H 	0.16206 0.05714 0.91402 0.07800
O 	O 	0.08443 0.10842 0.89860 -0.38300
H 	H 	0.06524 0.06941 0.95828 0.08500
H 	H 	0.07338 0.94047 0.89700 0.18000
H 	H 	0.14395 0.00294 0.95454 0.16200
H 	H 	0.08770 0.12556 0.92095 0.11000
H 	H 	0.11074 0.01699 0.06633 0.16300
C 	C 	0.04772 0.80407 0.03351 -0.09400
C 	C 	0.07245 0.79666 0.05365 0.12000
C 	C 	0.08498 0.76966 0.03978 0.07400
C 	C 	0.07492 0.75259 0.00085 0.00300
C 	C 	0.04858 0.75803 0.98555 0.09000
C 	C 	0.03433 0.78276 0.00486 0.10700
C 	C 	0.09368 0.73409 0.96996 0.02100
C 	C 	0.11258 0.74766 0.93912 0.07000
C 	C 	0.12980 0.73018 0.90895 0.10300
C 	C 	0.12532 0.69953 0.90353 -0.06300
C 	C 	0.10599 0.68597 0.93361 0.10300
C 	C 	0.09176 0.70305 0.96920 0.07800
Br	Br	0.03330 0.73379 0.93473 -0.14400
Br	Br	0.09091 0.82510 0.09411 -0.14900
Br	Br	0.16067 0.74790 0.87792 -0.17000
Br	Br	0.06980 0.68396 0.01682 -0.12300
Br	Br	0.99726 0.78887 0.98912 -0.15400
Br	Br	0.11641 0.75669 0.07209 -0.13900
Br	Br	0.11368 0.79010 0.93582 -0.14600
Br	Br	0.09710 0.64479 0.92332 -0.16400
C 	C 	0.03995 0.03735 0.13840 -0.12100
C 	C 	0.03716 0.01904 0.17775 0.01400
C 	C 	0.04232 0.03047 0.22430 0.09400
C 	C 	0.04795 0.06051 0.23166 -0.01800
C 	C 	0.04806 0.07950 0.19290 -0.16200
C 	C 	0.04520 0.06760 0.14578 0.21200
C 	C 	0.02561 0.98914 0.17117 0.00100
O 	O 	0.04154 0.01236 0.26275 -0.26900
H 	H 	0.05110 0.06929 0.26787 -0.03300
O 	O 	0.04586 0.08567 0.10732 -0.29100
H 	H 	0.03748 0.02826 0.10230 0.09800
C 	C 	0.99750 0.98526 0.17324 0.11800
C 	C 	0.98660 0.95691 0.17733 -0.02800
C 	C 	0.00358 0.93223 0.17880 -0.11600
C 	C 	0.03171 0.93600 0.17402 0.19600
C 	C 	0.04257 0.96439 0.16995 -0.10400
O 	O 	0.98066 0.00913 0.17089 -0.29500
H 	H 	0.96496 0.95420 0.18032 0.04500
O 	O 	0.04865 0.91209 0.17441 -0.27100
H 	H 	0.06423 0.96723 0.16789 0.08200
H 	H 	0.06490 0.08554 0.09564 0.17000
H 	H 	0.97787 0.01666 0.20459 0.11300
H 	H 	0.05284 0.90978 0.20875 0.15800
H 	H 	0.02267 0.01321 0.27532 0.12900
C 	C 	0.88539 0.86000 0.15051 -0.13300
C 	C 	0.89191 0.88623 0.12778 -0.00300
C 	C 	0.91317 0.88587 0.09333 0.10900
C 	C 	0.93167 0.86255 0.09153 -0.03300
C 	C 	0.92857 0.83952 0.12346 -0.14800
C 	C 	0.90381 0.83658 0.14861 0.15800
C 	C 	0.88344 0.91455 0.15141 -0.00400
O 	O 	0.91773 0.90981 0.06574 -0.25700
H 	H 	0.94996 0.86420 0.06974 0.06200
O 	O 	0.89855 0.81186 0.17425 -0.26400
H 	H 	0.86782 0.85914 0.17434 0.06600
C 	C 	0.85655 0.92413 0.14991 0.11500
C 	C 	0.84758 0.94775 0.18029 -0.02900
C 	C 	0.86534 0.96185 0.21222 -0.16500
C 	C 	0.89258 0.95340 0.21149 0.16000
C 	C 	0.90141 0.92959 0.18173 -0.12200
O 	O 	0.83902 0.91045 0.11892 -0.26900
H 	H 	0.82662 0.95440 0.18024 0.05500
O 	O 	0.91018 0.96694 0.24239 -0.30400
H 	H 	0.92208 0.92209 0.18349 0.03000
H 	H 	0.90455 0.81673 0.20737 0.10100
H 	H 	0.83026 0.89472 0.13758 0.15300
H 	H 	0.91978 0.98176 0.22302 0.05900
H 	H 	0.90862 0.90509 0.03516 0.15800
C 	C 	0.02925 0.87055 0.41360 -0.12900
C 	C 	0.02576 0.84389 0.43704 -0.00100
C 	C 	0.00900 0.82191 0.41701 0.12800
C 	C 	0.99787 0.82568 0.37183 -0.03100
C 	C 	0.00376 0.85112 0.34620 -0.13100
C 	C 	0.01844 0.87417 0.36828 0.19100
C 	C 	0.04309 0.83744 0.47773 0.00900
O 	O 	0.00365 0.79670 0.44128 -0.26700
H 	H 	0.98601 0.80808 0.35554 0.06600
O 	O 	0.02235 0.90021 0.34548 -0.30200
H 	H 	0.04172 0.88777 0.42914 0.06200
C 	C 	0.06733 0.82183 0.46895 0.09400
C 	C 	0.08863 0.82583 0.50053 -0.05400
C 	C 	0.08653 0.84714 0.53845 -0.13800
C 	C 	0.06063 0.85755 0.55282 0.20100
C 	C 	0.03897 0.85278 0.52208 -0.11400
O 	O 	0.07085 0.80427 0.42794 -0.26000
H 	H 	0.10789 0.81547 0.49170 0.04700
O 	O 	0.05700 0.87471 0.59418 -0.27800
H 	H 	0.01966 0.86301 0.53087 0.08300
H 	H 	0.03978 0.89785 0.32748 0.15300
H 	H 	0.07846 0.81743 0.40333 0.12200
H 	H 	0.05245 0.86065 0.61960 0.16300
H 	H 	0.01748 0.78221 0.42940 0.17000
C 	C 	0.05662 0.76421 0.18197 -0.10100
C 	C 	0.05626 0.73524 0.16192 0.12300
C 	C 	0.07367 0.71375 0.17913 0.07300
C 	C 	0.09069 0.72109 0.21753 0.02000
C 	C 	0.09307 0.75074 0.23390 0.06900
C 	C 	0.07626 0.77238 0.21574 0.12700
C 	C 	0.10308 0.69745 0.24496 0.01200
C 	C 	0.08810 0.68416 0.28203 0.07200
C 	C 	0.10108 0.66585 0.31387 0.10300
C 	C 	0.12928 0.66269 0.31107 -0.06500
C 	C 	0.14400 0.67430 0.27209 0.10200
C 	C 	0.13065 0.69078 0.23803 0.07500
Br	Br	0.11809 0.76129 0.28368 -0.17400
Br	Br	0.03078 0.72478 0.11304 -0.14500
Br	Br	0.08023 0.64441 0.36049 -0.18700
Br	Br	0.15010 0.70496 0.18264 -0.13500
Br	Br	0.07886 0.81279 0.23974 -0.19500
Br	Br	0.07324 0.67393 0.15224 -0.12600
Br	Br	0.05013 0.69238 0.29076 -0.15500
Br	Br	0.18252 0.66906 0.26691 -0.17500
