data_crystal

_cell_length_a 21.11226
_cell_length_b 22.65663
_cell_length_c 85.49803
_cell_angle_alpha 90.04811
_cell_angle_beta  90.02236
_cell_angle_gamma 119.53518

_symmetry_space_group_name_	'P 1'
_symmetry_space_group_name_H-M	'P 1'

loop_
_symmetry_equiv_pos_as_xyz
  x,y,z

loop_
_atom_site_label
_atom_site_type_symbol
_atom_site_fract_x
_atom_site_fract_y
_atom_site_fract_z
_atom_site_charge
C 	C 	0.75978 0.39744 0.58631 0.28900
C 	C 	0.64789 0.20263 0.53332 0.34700
C 	C 	0.81115 0.42267 0.54253 0.34800
C 	C 	0.60259 0.17498 0.57563 0.29000
C 	C 	0.58883 0.36708 0.53080 0.35100
C 	C 	0.52365 0.33202 0.57164 0.29600
Ni	Ni	0.73081 0.29340 0.56037 1.12100
Ni	Ni	0.56501 0.25169 0.55123 1.13000
Ni	Ni	0.67878 0.40584 0.55884 1.12900
O 	O 	0.78902 0.37177 0.57652 -0.35100
O 	O 	0.71431 0.41816 0.58127 -0.37000
O 	O 	0.54033 0.31110 0.53778 -0.36300
O 	O 	0.68988 0.21015 0.54534 -0.35100
O 	O 	0.61443 0.23820 0.53235 -0.35100
O 	O 	0.57764 0.38799 0.56520 -0.36200
O 	O 	0.78455 0.35684 0.54163 -0.34400
O 	O 	0.78610 0.44841 0.55301 -0.35800
O 	O 	0.51471 0.27058 0.56887 -0.37900
O 	O 	0.67263 0.22100 0.57725 -0.36600
O 	O 	0.56557 0.17210 0.56268 -0.35800
O 	O 	0.65600 0.40040 0.53595 -0.35700
O 	O 	0.65474 0.31372 0.56066 -0.71900
H 	H 	0.64050 0.30572 0.57176 0.15400
C 	C 	0.45124 0.82090 0.42087 0.30200
C 	C 	0.23950 0.65791 0.47119 0.35000
C 	C 	0.47933 0.80708 0.46326 0.34700
C 	C 	0.20294 0.67622 0.42913 0.29500
C 	C 	0.39140 0.58514 0.45851 0.35200
C 	C 	0.34502 0.59536 0.41500 0.29200
Ni	Ni	0.33729 0.76437 0.44780 1.11700
Ni	Ni	0.27386 0.60198 0.44391 1.13100
Ni	Ni	0.44195 0.70293 0.43806 1.12800
O 	O 	0.42240 0.83460 0.43336 -0.35400
O 	O 	0.45677 0.76512 0.41993 -0.38500
O 	O 	0.33125 0.55572 0.45013 -0.35800
O 	O 	0.25113 0.71292 0.46360 -0.35100
O 	O 	0.27178 0.62416 0.46672 -0.35100
O 	O 	0.40598 0.62095 0.42351 -0.35800
O 	O 	0.40968 0.78221 0.46589 -0.35200
O 	O 	0.50194 0.79009 0.45057 -0.35300
O 	O 	0.28133 0.57840 0.42161 -0.37600
O 	O 	0.25610 0.73962 0.43118 -0.37400
O 	O 	0.19506 0.62683 0.43871 -0.35500
O 	O 	0.43601 0.65066 0.45744 -0.36200
O 	O 	0.34748 0.69254 0.43974 -0.71600
H 	H 	0.33727 0.69593 0.42864 0.15300
C 	C 	0.21738 0.70789 0.66940 0.29800
C 	C 	0.29807 0.55034 0.62557 0.32100
C 	C 	0.12308 0.52035 0.66058 0.30800
C 	C 	0.38858 0.74008 0.63371 0.29300
C 	C 	0.31194 0.50803 0.67484 0.32200
C 	C 	0.42262 0.69773 0.68334 0.29800
Ni	Ni	0.23779 0.63059 0.64170 1.11400
Ni	Ni	0.38139 0.62545 0.65317 1.12000
Ni	Ni	0.26043 0.60569 0.67810 1.12300
O 	O 	0.18947 0.67251 0.65625 -0.37400
O 	O 	0.25223 0.69061 0.67984 -0.38000
O 	O 	0.37409 0.55748 0.66946 -0.39100
O 	O 	0.27181 0.59155 0.62342 -0.37000
O 	O 	0.32144 0.54457 0.63932 -0.39300
O 	O 	0.35961 0.64835 0.68895 -0.38100
O 	O 	0.16133 0.53257 0.64777 -0.37900
O 	O 	0.15197 0.55872 0.67298 -0.37400
O 	O 	0.44110 0.69956 0.66842 -0.39000
O 	O 	0.31894 0.72371 0.63385 -0.37000
O 	O 	0.40840 0.69263 0.63485 -0.38000
O 	O 	0.25410 0.51516 0.67586 -0.39300
O 	O 	0.30092 0.63762 0.65797 -0.71700
H 	H 	0.32646 0.68688 0.65992 0.15300
C 	C 	0.11251 0.13413 0.74868 0.30000
C 	C 	0.87567 0.94152 0.79102 0.35200
C 	C 	0.09194 0.12906 0.79303 0.34100
C 	C 	0.87438 0.94254 0.74779 0.29800
C 	C 	0.07502 0.92727 0.79403 0.35500
C 	C 	0.08010 0.92516 0.74907 0.29100
Ni	Ni	0.97484 0.05452 0.76928 1.10300
Ni	Ni	0.96274 0.90629 0.77044 1.11600
Ni	Ni	0.11872 0.03861 0.77190 1.13000
O 	O 	0.06145 0.13606 0.75757 -0.35600
O 	O 	0.14116 0.09490 0.75221 -0.37000
O 	O 	0.03110 0.88666 0.78313 -0.35400
O 	O 	0.87911 0.98657 0.78088 -0.36500
O 	O 	0.92464 0.92200 0.79082 -0.36300
O 	O 	0.12577 0.96345 0.76030 -0.36400
O 	O 	0.02136 0.09328 0.79088 -0.33900
O 	O 	0.13716 0.12483 0.78314 -0.35200
O 	O 	0.00842 0.89158 0.75129 -0.36100
O 	O 	0.91794 0.00905 0.74896 -0.38800
O 	O 	0.87494 0.89946 0.75837 -0.36200
O 	O 	0.10311 0.99328 0.79283 -0.35600
O 	O 	0.01891 0.00111 0.76678 -0.70600
H 	H 	0.02178 0.00132 0.75528 0.16000
C 	C 	0.46934 0.69404 0.91305 0.29500
C 	C 	0.24727 0.51087 0.86969 0.35100
C 	C 	0.46923 0.70468 0.86863 0.35200
C 	C 	0.25732 0.51197 0.91430 0.29300
C 	C 	0.25761 0.70801 0.87063 0.34900
C 	C 	0.27247 0.72681 0.91299 0.30700
Ni	Ni	0.37527 0.58736 0.88998 1.12300
Ni	Ni	0.22782 0.59918 0.89312 1.12600
Ni	Ni	0.38331 0.73367 0.89136 1.12300
O 	O 	0.43983 0.62874 0.90958 -0.37000
O 	O 	0.47206 0.73883 0.90258 -0.35700
O 	O 	0.22847 0.64203 0.87251 -0.35700
O 	O 	0.31697 0.55455 0.86936 -0.34400
O 	O 	0.20635 0.51312 0.88106 -0.35500
O 	O 	0.34227 0.74538 0.91151 -0.39400
O 	O 	0.46740 0.65698 0.87765 -0.35200
O 	O 	0.42083 0.72462 0.87018 -0.36400
O 	O 	0.21966 0.67202 0.90580 -0.36000
O 	O 	0.29384 0.50531 0.90244 -0.34600
O 	O 	0.21990 0.54471 0.91264 -0.37000
O 	O 	0.30978 0.75121 0.87998 -0.37600
O 	O 	0.33070 0.63924 0.89493 -0.71600
H 	H 	0.33373 0.63955 0.90642 0.15300
C 	C 	0.78008 0.49909 0.08803 0.28900
C 	C 	0.57263 0.31484 0.13605 0.35000
C 	C 	0.79252 0.50126 0.13220 0.35100
C 	C 	0.54344 0.31339 0.09361 0.29500
C 	C 	0.76868 0.29741 0.13174 0.34900
C 	C 	0.74486 0.28959 0.08664 0.28900
Ni	Ni	0.65988 0.42529 0.11282 1.12300
Ni	Ni	0.64404 0.27587 0.11189 1.12900
Ni	Ni	0.80153 0.40632 0.10925 1.12800
O 	O 	0.74016 0.50485 0.09941 -0.35100
O 	O 	0.81143 0.46084 0.08975 -0.37200
O 	O 	0.71861 0.25633 0.12183 -0.36200
O 	O 	0.57143 0.36003 0.12664 -0.35400
O 	O 	0.61840 0.29243 0.13366 -0.35200
O 	O 	0.79793 0.32848 0.09658 -0.36300
O 	O 	0.72206 0.46111 0.13294 -0.34500
O 	O 	0.83041 0.49497 0.12077 -0.35900
O 	O 	0.67553 0.25699 0.09116 -0.37100
O 	O 	0.58915 0.37972 0.09425 -0.37200
O 	O 	0.55053 0.26971 0.10296 -0.35700
O 	O 	0.79994 0.36356 0.12997 -0.35400
O 	O 	0.69919 0.37002 0.10750 -0.71900
H 	H 	0.69387 0.36898 0.09604 0.15200
C 	C 	0.96728 0.88399 0.20876 0.31100
C 	C 	0.13143 0.07427 0.26018 0.31700
C 	C 	0.94703 0.87573 0.25228 0.29400
C 	C 	0.17351 0.09718 0.21556 0.33000
C 	C 	0.91822 0.05583 0.25200 0.33600
C 	C 	0.95461 0.08444 0.20921 0.31400
Ni	Ni	0.07714 0.97280 0.23431 1.11100
Ni	Ni	0.05771 0.10589 0.23477 1.13200
Ni	Ni	0.91902 0.96035 0.22935 1.11500
O 	O 	0.01270 0.88822 0.22010 -0.34100
O 	O 	0.92832 0.91556 0.20963 -0.35300
O 	O 	0.96959 0.10607 0.24394 -0.37800
O 	O 	0.15171 0.04619 0.24934 -0.35500
O 	O 	0.08520 0.09552 0.25696 -0.37400
O 	O 	0.90442 0.03057 0.21711 -0.35500
O 	O 	0.01450 0.92428 0.25370 -0.37500
O 	O 	0.90663 0.87558 0.24053 -0.35900
O 	O 	0.02366 0.11933 0.21386 -0.33100
O 	O 	0.14778 0.03070 0.21661 -0.33400
O 	O 	0.15928 0.13085 0.22654 -0.35300
O 	O 	0.90541 0.99346 0.25014 -0.41600
O 	O 	0.02167 0.01364 0.22914 -0.71100
H 	H 	0.02969 0.01842 0.21775 0.17900
C 	C 	0.52945 0.37807 0.35016 0.30200
C 	C 	0.67861 0.26284 0.31153 0.32000
C 	C 	0.48507 0.20737 0.34102 0.32300
C 	C 	0.73738 0.45073 0.31652 0.29500
C 	C 	0.68721 0.23332 0.36073 0.32500
C 	C 	0.75881 0.42270 0.36861 0.29900
Ni	Ni	0.59404 0.32740 0.32387 1.11400
Ni	Ni	0.74470 0.34996 0.33909 1.12000
Ni	Ni	0.60723 0.30772 0.36101 1.12200
O 	O 	0.52234 0.35200 0.33579 -0.37300
O 	O 	0.57765 0.37981 0.36041 -0.38300
O 	O 	0.74527 0.29034 0.35664 -0.39100
O 	O 	0.64981 0.30065 0.30775 -0.37400
O 	O 	0.70454 0.26582 0.32559 -0.39200
O 	O 	0.70002 0.36636 0.37353 -0.37900
O 	O 	0.53148 0.22604 0.32950 -0.39000
O 	O 	0.50283 0.24299 0.35402 -0.38700
O 	O 	0.78558 0.42746 0.35430 -0.39500
O 	O 	0.66591 0.42631 0.31731 -0.37300
O 	O 	0.76726 0.41216 0.31989 -0.37700
O 	O 	0.62241 0.22752 0.36038 -0.39300
O 	O 	0.65275 0.34467 0.34156 -0.72000
H 	H 	0.66862 0.39300 0.34329 0.16100
C 	C 	0.92553 0.10972 0.00631 0.29600
C 	C 	0.05236 0.96635 0.97000 0.31800
C 	C 	0.84106 0.93133 0.99166 0.32000
C 	C 	0.14110 0.14883 0.98243 0.29900
C 	C 	0.99199 0.89344 0.01743 0.30000
C 	C 	0.09799 0.07746 0.03254 0.30100
Ni	Ni	0.98174 0.04670 0.98114 1.10000
Ni	Ni	0.09536 0.02058 0.00145 1.12300
Ni	Ni	0.94925 0.99831 0.01732 1.10800
O 	O 	0.92068 0.08717 0.99164 -0.38100
O 	O 	0.94852 0.08688 0.01808 -0.39300
O 	O 	0.05982 0.94333 0.01692 -0.37600
O 	O 	0.03553 0.01296 0.96604 -0.35100
O 	O 	0.05010 0.94939 0.98464 -0.38900
O 	O 	0.02853 0.02896 0.03405 -0.36300
O 	O 	0.89356 0.94941 0.98146 -0.39400
O 	O 	0.85354 0.96221 0.00527 -0.39000
O 	O 	0.13567 0.08453 0.01957 -0.38700
O 	O 	0.07531 0.13977 0.97930 -0.36300
O 	O 	0.15190 0.09655 0.98542 -0.38100
O 	O 	0.93768 0.90540 0.01541 -0.39900
O 	O 	0.01671 0.03829 0.00072 -0.69900
H 	H 	0.04205 0.08604 0.00413 0.16200
C 	C 	0.40771 0.16155 0.33755 -0.12100
C 	C 	0.38676 0.10252 0.32854 0.13600
C 	C 	0.32607 0.07901 0.31863 -0.09800
C 	C 	0.28597 0.11319 0.31797 0.00500
C 	C 	0.29790 0.16268 0.32942 0.06000
C 	C 	0.35882 0.18626 0.33926 -0.01800
N 	N 	0.42576 0.06952 0.32909 -0.20500
H 	H 	0.31351 0.03759 0.31059 0.06600
C 	C 	0.24483 0.10802 0.30356 0.00300
N 	N 	0.25307 0.18965 0.33054 -0.19100
H 	H 	0.37199 0.22840 0.34711 0.05000
C 	C 	0.17073 0.05959 0.30274 -0.09500
C 	C 	0.13112 0.05089 0.28891 0.13400
C 	C 	0.16744 0.08949 0.27551 -0.10400
C 	C 	0.24101 0.13898 0.27645 -0.01700
C 	C 	0.28010 0.14918 0.29039 0.06900
H 	H 	0.14376 0.02879 0.31290 0.06300
N 	N 	0.05855 0.00551 0.28859 -0.19700
H 	H 	0.26833 0.16899 0.26621 0.06400
N 	N 	0.35149 0.19803 0.29100 -0.19100
H 	H 	0.03292 0.97525 0.29833 0.08300
H 	H 	0.02638 0.00150 0.27894 0.11700
H 	H 	0.37714 0.22737 0.28114 0.09800
H 	H 	0.38205 0.20803 0.30123 0.09000
H 	H 	0.26404 0.22832 0.33858 0.08900
H 	H 	0.20582 0.17105 0.32379 0.09300
H 	H 	0.46818 0.08367 0.33712 0.09700
H 	H 	0.41216 0.02767 0.32187 0.09200
C 	C 	0.92051 0.81476 0.26216 -0.09600
C 	C 	0.95799 0.77724 0.26288 0.11800
C 	C 	0.93287 0.72146 0.27299 -0.09100
C 	C 	0.86843 0.69945 0.28148 0.00100
C 	C 	0.83059 0.73647 0.28071 0.06500
C 	C 	0.85717 0.79391 0.27103 -0.02300
N 	N 	0.01610 0.79265 0.25348 -0.19000
H 	H 	0.96157 0.69287 0.27363 0.05900
C 	C 	0.83817 0.63455 0.29013 -0.00000
N 	N 	0.76889 0.71719 0.28917 -0.19200
H 	H 	0.82856 0.82258 0.27046 0.04800
C 	C 	0.85894 0.63508 0.30573 -0.09500
C 	C 	0.83077 0.57452 0.31433 0.12200
C 	C 	0.77993 0.51262 0.30720 -0.10100
C 	C 	0.76219 0.51177 0.29136 -0.02200
C 	C 	0.79049 0.57216 0.28274 0.06900
H 	H 	0.89700 0.68279 0.31121 0.05400
N 	N 	0.85295 0.57618 0.32933 -0.20600
H 	H 	0.72425 0.46406 0.28586 0.05300
N 	N 	0.77103 0.56993 0.26748 -0.19300
H 	H 	0.88890 0.62234 0.33464 0.08400
H 	H 	0.83674 0.53175 0.33567 0.09700
H 	H 	0.73562 0.52358 0.26217 0.10400
H 	H 	0.79066 0.61382 0.26072 0.11000
H 	H 	0.74082 0.74431 0.28836 0.08800
H 	H 	0.74860 0.67577 0.29675 0.09100
H 	H 	0.03049 0.82753 0.24438 0.10000
H 	H 	0.04530 0.76672 0.25466 0.10300
C 	C 	0.86783 0.06863 0.26136 -0.11200
C 	C 	0.79796 0.05179 0.25555 0.14500
C 	C 	0.75790 0.07799 0.26300 -0.09700
C 	C 	0.78609 0.12020 0.27609 0.00800
C 	C 	0.85362 0.13326 0.28253 0.06100
C 	C 	0.89395 0.10744 0.27503 -0.01300
N 	N 	0.76947 0.01138 0.24275 -0.19200
H 	H 	0.70527 0.06672 0.25837 0.07200
C 	C 	0.74572 0.15245 0.28263 0.00300
N 	N 	0.88027 0.17095 0.29577 -0.19100
H 	H 	0.94695 0.11942 0.27957 0.04200
C 	C 	0.69258 0.11788 0.29405 -0.09700
C 	C 	0.66258 0.15134 0.30247 0.13600
C 	C 	0.68772 0.22090 0.29962 -0.11400
C 	C 	0.73440 0.25303 0.28698 -0.01900
C 	C 	0.76378 0.21936 0.27840 0.06800
H 	H 	0.67631 0.06554 0.29674 0.06100
N 	N 	0.60994 0.11667 0.31329 -0.20500
H 	H 	0.75148 0.30568 0.28443 0.05200
N 	N 	0.81013 0.25182 0.26635 -0.19200
H 	H 	0.59353 0.06598 0.31578 0.08800
H 	H 	0.58315 0.13900 0.31893 0.10500
H 	H 	0.82467 0.30186 0.26360 0.10200
H 	H 	0.83079 0.22736 0.25939 0.11000
H 	H 	0.93081 0.18135 0.30025 0.08500
H 	H 	0.85081 0.18932 0.30190 0.09000
H 	H 	0.79514 0.98717 0.23754 0.08400
H 	H 	0.71938 0.00186 0.23817 0.11000
C 	C 	0.80558 0.54942 0.07517 -0.09300
C 	C 	0.82395 0.53437 0.06031 0.12200
C 	C 	0.86260 0.58715 0.04963 -0.08900
C 	C 	0.87633 0.65309 0.05284 -0.01600
C 	C 	0.85000 0.66637 0.06689 0.07400
C 	C 	0.81743 0.61508 0.07817 -0.03000
N 	N 	0.80151 0.46930 0.05598 -0.20000
H 	H 	0.88017 0.57646 0.03858 0.05200
C 	C 	0.91736 0.70765 0.04133 0.03100
N 	N 	0.85515 0.72783 0.06955 -0.19400
H 	H 	0.80178 0.62655 0.08935 0.07300
C 	C 	0.88306 0.70872 0.02738 -0.12300
C 	C 	0.91351 0.76684 0.01793 0.15300
C 	C 	0.97615 0.82613 0.02317 -0.16800
C 	C 	0.01547 0.82197 0.03597 0.06900
C 	C 	0.98724 0.76240 0.04492 -0.01500
H 	H 	0.83169 0.66501 0.02409 0.06200
N 	N 	0.88319 0.76533 0.00380 -0.20800
H 	H 	0.06615 0.86603 0.03943 0.03000
N 	N 	0.02655 0.75849 0.05708 -0.16600
H 	H 	0.83502 0.72246 0.00029 0.08400
H 	H 	0.90920 0.80519 0.99585 0.10000
H 	H 	0.07674 0.80015 0.06007 0.09400
H 	H 	0.00897 0.71339 0.06328 0.10800
H 	H 	0.83839 0.73801 0.08023 0.10100
H 	H 	0.87264 0.76491 0.06087 0.09300
H 	H 	0.76263 0.42866 0.06247 0.09300
H 	H 	0.81878 0.45880 0.04540 0.08500
C 	C 	0.13907 0.11268 0.04662 -0.10100
C 	C 	0.16700 0.08119 0.05663 0.13900
C 	C 	0.22753 0.12153 0.06607 -0.09400
C 	C 	0.25926 0.19232 0.06592 0.00700
C 	C 	0.22534 0.22296 0.05754 0.06500
C 	C 	0.16555 0.18271 0.04786 -0.01900
N 	N 	0.13726 0.01254 0.05692 -0.19400
H 	H 	0.25179 0.09795 0.07307 0.07200
C 	C 	0.33196 0.23367 0.07308 -0.00100
N 	N 	0.25012 0.29076 0.05864 -0.19100
H 	H 	0.14235 0.20649 0.04059 0.04500
C 	C 	0.39365 0.26122 0.06341 -0.09000
C 	C 	0.46387 0.29029 0.06987 0.12500
C 	C 	0.47197 0.29031 0.08630 -0.09200
C 	C 	0.41045 0.26588 0.09597 -0.02000
C 	C 	0.34053 0.23863 0.08951 0.07700
H 	H 	0.38687 0.25841 0.05081 0.05900
N 	N 	0.52284 0.31721 0.06025 -0.20300
H 	H 	0.41707 0.26792 0.10858 0.07100
N 	N 	0.28198 0.21769 0.09912 -0.19200
H 	H 	0.51609 0.31505 0.04811 0.08600
H 	H 	0.57577 0.34195 0.06468 0.09200
H 	H 	0.28853 0.21947 0.11126 0.11900
H 	H 	0.22992 0.20161 0.09467 0.11100
H 	H 	0.22625 0.31339 0.05202 0.09200
H 	H 	0.29159 0.32120 0.06645 0.09800
H 	H 	0.08957 0.98088 0.05081 0.10500
H 	H 	0.16034 0.98994 0.06380 0.09000
C 	C 	0.76477 0.26780 0.07209 -0.09300
C 	C 	0.73827 0.27439 0.05732 0.12100
C 	C 	0.76293 0.25742 0.04370 -0.09400
C 	C 	0.80924 0.22966 0.04464 -0.00100
C 	C 	0.83424 0.22147 0.05943 0.07000
C 	C 	0.81264 0.24172 0.07297 -0.02400
N 	N 	0.68883 0.29617 0.05612 -0.20300
H 	H 	0.74383 0.26345 0.03235 0.05500
C 	C 	0.82796 0.20573 0.03018 0.00200
N 	N 	0.87847 0.19380 0.06072 -0.19300
H 	H 	0.83239 0.23622 0.08429 0.06800
C 	C 	0.89640 0.24630 0.02332 -0.10100
C 	C 	0.92663 0.21715 0.01341 0.12700
C 	C 	0.88715 0.14679 0.01033 -0.11200
C 	C 	0.81436 0.10919 0.01512 -0.02300
C 	C 	0.78421 0.13806 0.02504 0.06200
H 	H 	0.92833 0.29928 0.02661 0.05300
N 	N 	0.99410 0.25640 0.00727 -0.24000
H 	H 	0.78342 0.05555 0.01241 0.04600
N 	N 	0.71443 0.09982 0.03011 -0.19200
H 	H 	0.02422 0.30797 0.01004 0.11200
H 	H 	0.01624 0.23649 0.99932 0.11800
H 	H 	0.68338 0.04910 0.02668 0.09100
H 	H 	0.68966 0.12039 0.03710 0.09500
H 	H 	0.89693 0.18846 0.07169 0.09800
H 	H 	0.89454 0.17679 0.05096 0.09500
H 	H 	0.66984 0.30997 0.06593 0.08800
H 	H 	0.66926 0.30021 0.04517 0.08300
C 	C 	0.79898 0.26884 0.14312 -0.11000
C 	C 	0.75445 0.22557 0.15512 0.12600
C 	C 	0.78061 0.19235 0.16488 0.06800
C 	C 	0.85288 0.20566 0.16338 0.02000
C 	C 	0.89809 0.25011 0.15166 0.06700
C 	C 	0.87060 0.28023 0.14126 0.13100
C 	C 	0.88255 0.17615 0.17478 0.01800
C 	C 	0.90868 0.20797 0.18934 0.06700
C 	C 	0.92946 0.17652 0.20084 0.12400
C 	C 	0.92944 0.11559 0.19738 -0.10100
C 	C 	0.90577 0.08493 0.18260 0.12100
C 	C 	0.88103 0.11452 0.17140 0.07100
Br	Br	0.99784 0.27006 0.14996 -0.14500
Br	Br	0.65878 0.21390 0.15865 -0.14300
Br	Br	0.95355 0.21471 0.22160 -0.19200
Br	Br	0.84407 0.07038 0.15154 -0.14100
Br	Br	0.92969 0.33403 0.12400 -0.19500
Br	Br	0.71742 0.12824 0.18032 -0.14000
Br	Br	0.91586 0.29480 0.19351 -0.14200
Br	Br	0.90838 0.00308 0.17764 -0.14200
C 	C 	0.51849 0.28545 0.14871 -0.11500
C 	C 	0.46789 0.21534 0.14878 0.13200
C 	C 	0.41550 0.18764 0.16071 0.06500
C 	C 	0.41000 0.23050 0.17191 0.02100
C 	C 	0.45986 0.30064 0.17174 0.06800
C 	C 	0.51564 0.32771 0.16048 0.12800
C 	C 	0.35074 0.20185 0.18365 0.01800
C 	C 	0.28074 0.19011 0.17963 0.07200
C 	C 	0.22243 0.15566 0.19008 0.12200
C 	C 	0.23484 0.13607 0.20489 -0.10500
C 	C 	0.30572 0.15141 0.20926 0.12800
C 	C 	0.36330 0.18285 0.19851 0.06800
Br	Br	0.45074 0.35961 0.18675 -0.13800
Br	Br	0.46739 0.15783 0.13206 -0.19000
Br	Br	0.12529 0.13327 0.18393 -0.13400
Br	Br	0.45898 0.19821 0.20394 -0.13600
Br	Br	0.59006 0.42188 0.16161 -0.14400
Br	Br	0.35108 0.09088 0.16178 -0.12400
Br	Br	0.26489 0.22079 0.15972 -0.14100
Br	Br	0.32379 0.12959 0.23001 -0.17800
C 	C 	0.94741 0.83103 0.19682 -0.10400
C 	C 	0.98731 0.84584 0.18280 0.10700
C 	C 	0.97013 0.79432 0.17166 0.05600
C 	C 	0.91221 0.72831 0.17445 0.02100
C 	C 	0.87299 0.71339 0.18857 0.06400
C 	C 	0.89087 0.76451 0.19978 0.12300
C 	C 	0.88923 0.67561 0.16218 0.01500
C 	C 	0.83580 0.66791 0.15126 0.06500
C 	C 	0.80476 0.61130 0.14127 0.13100
C 	C 	0.82687 0.56188 0.14227 -0.11500
C 	C 	0.88253 0.57108 0.15276 0.12600
C 	C 	0.91451 0.62854 0.16253 0.06700
Br	Br	0.79385 0.62282 0.19237 -0.13800
Br	Br	0.06537 0.93670 0.17891 -0.13300
Br	Br	0.73253 0.60201 0.12615 -0.20800
Br	Br	0.99194 0.64233 0.17664 -0.15400
Br	Br	0.83843 0.74311 0.21930 -0.18500
Br	Br	0.02546 0.81390 0.15257 -0.11400
Br	Br	0.80381 0.73432 0.15033 -0.14500
Br	Br	0.91233 0.50329 0.15428 -0.15100
C 	C 	0.76566 0.88636 0.98655 -0.11700
C 	C 	0.72583 0.91320 0.97892 0.13300
C 	C 	0.66554 0.87053 0.96970 -0.09900
C 	C 	0.64349 0.80153 0.96825 0.00500
C 	C 	0.67717 0.77311 0.97753 0.05700
C 	C 	0.73881 0.81611 0.98647 -0.01700
N 	N 	0.74595 0.97994 0.98017 -0.21300
H 	H 	0.63777 0.89173 0.96304 0.06200
C 	C 	0.59432 0.76282 0.95521 0.00200
N 	N 	0.65080 0.70495 0.97786 -0.19100
H 	H 	0.76767 0.79520 0.99282 0.04000
C 	C 	0.62392 0.74848 0.94203 -0.09700
C 	C 	0.58383 0.72554 0.92811 0.14100
C 	C 	0.51355 0.71880 0.92729 -0.10200
C 	C 	0.48282 0.73042 0.94065 -0.02600
C 	C 	0.52182 0.75051 0.95476 0.06200
H 	H 	0.67921 0.75714 0.94246 0.06300
N 	N 	0.61322 0.71045 0.91561 -0.20200
H 	H 	0.42780 0.72248 0.94015 0.04300
N 	N 	0.48923 0.75704 0.96785 -0.19300
H 	H 	0.66561 0.71671 0.91629 0.10400
H 	H 	0.58433 0.69163 0.90520 0.12700
H 	H 	0.43651 0.75009 0.96733 0.08600
H 	H 	0.51475 0.76649 0.97875 0.08900
H 	H 	0.67745 0.68447 0.98430 0.08200
H 	H 	0.60226 0.67158 0.97220 0.08700
H 	H 	0.78703 0.01185 0.98779 0.11100
H 	H 	0.71815 0.99991 0.97396 0.08800
C 	C 	0.25115 0.47519 0.92890 -0.10100
C 	C 	0.18644 0.41467 0.93273 0.14000
C 	C 	0.18721 0.37425 0.94508 -0.09400
C 	C 	0.25185 0.39158 0.95318 0.00400
C 	C 	0.31530 0.45392 0.94998 0.06400
C 	C 	0.31403 0.49551 0.93796 -0.02500
N 	N 	0.12420 0.39397 0.92433 -0.20300
H 	H 	0.13822 0.32715 0.94784 0.06800
C 	C 	0.25422 0.34020 0.96349 0.00500
N 	N 	0.37746 0.47401 0.95835 -0.19200
H 	H 	0.36301 0.54270 0.93525 0.04700
C 	C 	0.26417 0.28906 0.95667 -0.09700
C 	C 	0.23982 0.22686 0.96437 0.13700
C 	C 	0.20372 0.21580 0.97891 -0.10800
C 	C 	0.20869 0.27180 0.98703 -0.02200
C 	C 	0.23199 0.33380 0.97928 0.06100
H 	H 	0.28612 0.29588 0.94493 0.07000
N 	N 	0.24895 0.17738 0.95754 -0.20400
H 	H 	0.18618 0.26481 0.99872 0.04000
N 	N 	0.23084 0.38602 0.98686 -0.19200
H 	H 	0.27127 0.18428 0.94634 0.10000
H 	H 	0.23811 0.13352 0.96363 0.10700
H 	H 	0.21183 0.38012 0.99836 0.08600
H 	H 	0.25065 0.43343 0.98158 0.09000
H 	H 	0.42446 0.51965 0.95573 0.08800
H 	H 	0.37939 0.44538 0.96771 0.08900
H 	H 	0.12199 0.42158 0.91479 0.11800
H 	H 	0.07688 0.34916 0.92727 0.10600
C 	C 	0.25212 0.76983 0.92229 -0.09800
C 	C 	0.27177 0.83669 0.91744 0.14400
C 	C 	0.23875 0.87042 0.92457 -0.08900
C 	C 	0.19054 0.84093 0.93708 0.00600
C 	C 	0.17480 0.77625 0.94267 0.06700
C 	C 	0.20478 0.74083 0.93501 -0.01800
N 	N 	0.32077 0.86818 0.90574 -0.19800
H 	H 	0.25144 0.92039 0.92049 0.07200
C 	C 	0.15743 0.87872 0.94433 0.01100
N 	N 	0.13140 0.74808 0.95537 -0.19200
H 	H 	0.19056 0.69017 0.93885 0.04800
C 	C 	0.08530 0.86049 0.94060 -0.10300
C 	C 	0.05112 0.89309 0.94785 0.16700
C 	C 	0.09038 0.94538 0.95882 -0.11800
C 	C 	0.16436 0.96759 0.96142 -0.02100
C 	C 	0.19786 0.93362 0.95464 0.05800
H 	H 	0.05524 0.81987 0.93230 0.08300
N 	N 	0.98065 0.87358 0.94433 -0.22300
H 	H 	0.19456 0.00834 0.96968 0.03800
N 	N 	0.26796 0.95259 0.95846 -0.19100
H 	H 	0.95140 0.83368 0.93652 0.09100
H 	H 	0.95478 0.89874 0.94901 0.09600
H 	H 	0.29764 0.99397 0.96587 0.08300
H 	H 	0.29324 0.92587 0.95443 0.09000
H 	H 	0.11896 0.69975 0.95920 0.09300
H 	H 	0.11094 0.77423 0.96177 0.09500
H 	H 	0.35022 0.84718 0.90082 0.10200
H 	H 	0.33167 0.91590 0.90177 0.10800
C 	C 	0.22373 0.73415 0.85947 -0.11300
C 	C 	0.19085 0.77117 0.86501 0.12600
C 	C 	0.17375 0.80889 0.85453 0.06600
C 	C 	0.17590 0.79927 0.83831 0.01800
C 	C 	0.19988 0.75506 0.83269 0.07000
C 	C 	0.22674 0.72481 0.84324 0.12600
C 	C 	0.15038 0.83360 0.82724 0.02200
C 	C 	0.07528 0.80942 0.82528 0.06200
C 	C 	0.05135 0.84493 0.81569 0.15000
C 	C 	0.10163 0.89891 0.80630 -0.11800
C 	C 	0.17678 0.92108 0.80770 0.13100
C 	C 	0.20115 0.89124 0.81889 0.06500
Br	Br	0.19453 0.73503 0.81064 -0.14000
Br	Br	0.15669 0.75993 0.88621 -0.18400
Br	Br	0.95065 0.82256 0.81619 -0.17900
Br	Br	0.30387 0.92987 0.82300 -0.14200
Br	Br	0.26734 0.67087 0.83546 -0.12400
Br	Br	0.14914 0.87486 0.86238 -0.14200
Br	Br	0.00528 0.72649 0.83535 -0.11400
Br	Br	0.24570 0.98756 0.79339 -0.19200
C 	C 	0.21878 0.44965 0.85978 -0.11300
C 	C 	0.25071 0.40760 0.86046 0.13300
C 	C 	0.22675 0.35191 0.85029 0.06600
C 	C 	0.16943 0.33665 0.83978 0.02100
C 	C 	0.13436 0.37584 0.83979 0.06800
C 	C 	0.15973 0.43298 0.84961 0.12900
C 	C 	0.15044 0.28315 0.82783 0.01900
C 	C 	0.18675 0.29991 0.81334 0.06500
C 	C 	0.17333 0.24872 0.80239 0.12400
C 	C 	0.12051 0.18059 0.80565 -0.10900
C 	C 	0.08847 0.16351 0.82062 0.12600
C 	C 	0.10120 0.21494 0.83146 0.07000
Br	Br	0.05231 0.35161 0.82616 -0.12900
Br	Br	0.32574 0.42477 0.87560 -0.20900
Br	Br	0.23116 0.27206 0.78356 -0.17800
Br	Br	0.05067 0.19225 0.85122 -0.12500
Br	Br	0.11548 0.48981 0.84870 -0.14000
Br	Br	0.27368 0.29719 0.85045 -0.13800
Br	Br	0.25515 0.39348 0.80855 -0.13600
Br	Br	0.03226 0.06948 0.82671 -0.11400
C 	C 	0.52733 0.73723 0.85685 -0.11800
C 	C 	0.51158 0.72115 0.84091 0.12700
C 	C 	0.56439 0.75868 0.82955 0.06900
C 	C 	0.63665 0.80359 0.83418 0.01800
C 	C 	0.65427 0.81416 0.85021 0.06600
C 	C 	0.59876 0.78491 0.86147 0.12600
C 	C 	0.69438 0.83828 0.82226 0.02000
C 	C 	0.72191 0.80190 0.81404 0.06600
C 	C 	0.77505 0.83454 0.80246 0.13600
C 	C 	0.81116 0.90597 0.80123 -0.11900
C 	C 	0.78590 0.94303 0.81003 0.12900
C 	C 	0.72393 0.90835 0.81955 0.06600
Br	Br	0.75460 0.86658 0.85672 -0.14500
Br	Br	0.42186 0.64249 0.83481 -0.12900
Br	Br	0.79128 0.78086 0.78713 -0.20200
Br	Br	0.67884 0.95635 0.82869 -0.14500
Br	Br	0.61991 0.81314 0.88298 -0.19400
Br	Br	0.53734 0.75035 0.80779 -0.14200
Br	Br	0.68960 0.70843 0.81916 -0.13400
Br	Br	0.83929 0.04091 0.81015 -0.17200
C 	C 	0.48077 0.73954 0.69452 -0.10400
C 	C 	0.52584 0.80991 0.69199 0.12900
C 	C 	0.59241 0.84494 0.69996 -0.09500
C 	C 	0.61253 0.81170 0.71106 0.00100
C 	C 	0.56425 0.74269 0.71465 0.06700
C 	C 	0.49889 0.70718 0.70625 -0.02200
N 	N 	0.50450 0.84431 0.68227 -0.20200
H 	H 	0.62820 0.89846 0.69769 0.05800
C 	C 	0.68269 0.85063 0.71939 0.00500
N 	N 	0.58056 0.71016 0.72598 -0.19200
H 	H 	0.46347 0.65353 0.70844 0.05100
C 	C 	0.68640 0.89087 0.73216 -0.09700
C 	C 	0.75031 0.92512 0.74103 0.13900
C 	C 	0.81135 0.91756 0.73720 -0.10300
C 	C 	0.80847 0.87915 0.72409 -0.02200
C 	C 	0.74492 0.84625 0.71497 0.06000
H 	H 	0.63901 0.89509 0.73529 0.06800
N 	N 	0.75247 0.96468 0.75323 -0.20200
H 	H 	0.85540 0.87394 0.72110 0.03800
N 	N 	0.74387 0.81031 0.70212 -0.19200
H 	H 	0.70587 0.96679 0.75645 0.10600
H 	H 	0.80066 0.99597 0.75917 0.10900
H 	H 	0.78960 0.80628 0.69914 0.08300
H 	H 	0.69837 0.78708 0.69482 0.08900
H 	H 	0.54507 0.65893 0.72835 0.09700
H 	H 	0.62790 0.73532 0.73269 0.10400
H 	H 	0.45175 0.82145 0.67775 0.09000
H 	H 	0.53941 0.89560 0.67984 0.08700
C 	C 	0.14491 0.18259 0.73542 -0.09700
C 	C 	0.14327 0.24460 0.73471 0.14000
C 	C 	0.16904 0.28505 0.72127 -0.09500
C 	C 	0.20696 0.27113 0.70973 0.00400
C 	C 	0.21124 0.21085 0.71061 0.06200
C 	C 	0.17779 0.16600 0.72314 -0.02200
N 	N 	0.12252 0.26812 0.74720 -0.20300
H 	H 	0.16576 0.33126 0.72050 0.06700
C 	C 	0.24910 0.32416 0.69796 0.00400
N 	N 	0.24674 0.19544 0.69945 -0.19200
H 	H 	0.17819 0.11832 0.72341 0.05100
C 	C 	0.31374 0.38158 0.70268 -0.09800
C 	C 	0.34269 0.44191 0.69399 0.13400
C 	C 	0.30666 0.44393 0.68018 -0.11500
C 	C 	0.24988 0.38316 0.67414 -0.01600
C 	C 	0.21912 0.32358 0.68312 0.05900
H 	H 	0.33881 0.38072 0.71369 0.06700
N 	N 	0.40351 0.49790 0.69921 -0.20700
H 	H 	0.22491 0.38386 0.66309 0.04500
N 	N 	0.15988 0.26682 0.67764 -0.19200
H 	H 	0.42696 0.49695 0.70991 0.09300
H 	H 	0.43012 0.54167 0.69245 0.10600
H 	H 	0.13699 0.26740 0.66684 0.08600
H 	H 	0.13676 0.22136 0.68389 0.09100
H 	H 	0.24960 0.15077 0.70021 0.08700
H 	H 	0.27145 0.22724 0.68990 0.09000
H 	H 	0.12787 0.25472 0.75857 0.13300
H 	H 	0.11100 0.30770 0.74580 0.10700
C 	C 	0.20001 0.76133 0.67378 -0.10700
C 	C 	0.12719 0.74528 0.67688 0.13400
C 	C 	0.11411 0.78614 0.68723 -0.09600
C 	C 	0.17211 0.84391 0.69394 0.00300
C 	C 	0.24387 0.86582 0.68881 0.06100
C 	C 	0.25729 0.82398 0.67884 -0.02000
N 	N 	0.06988 0.69074 0.67013 -0.20500
H 	H 	0.05871 0.77140 0.69057 0.06500
C 	C 	0.15842 0.87308 0.70814 0.00500
N 	N 	0.30011 0.92617 0.69365 -0.19200
H 	H 	0.31290 0.83759 0.67608 0.03700
C 	C 	0.16528 0.84897 0.72278 -0.09500
C 	C 	0.14030 0.86557 0.73637 0.14200
C 	C 	0.10977 0.90878 0.73527 -0.10000
C 	C 	0.10630 0.93567 0.72074 -0.02200
C 	C 	0.13088 0.91861 0.70713 0.06100
H 	H 	0.18732 0.81476 0.72350 0.06800
N 	N 	0.14408 0.83850 0.75032 -0.20400
H 	H 	0.08423 0.96987 0.72002 0.04200
N 	N 	0.12862 0.94655 0.69321 -0.19200
H 	H 	0.16769 0.80744 0.75100 0.11100
H 	H 	0.12270 0.84686 0.76055 0.12800
H 	H 	0.10708 0.97927 0.69253 0.08600
H 	H 	0.14994 0.93759 0.68304 0.09000
H 	H 	0.35344 0.94104 0.69024 0.08500
H 	H 	0.29114 0.95986 0.70038 0.09100
H 	H 	0.07657 0.66710 0.66032 0.10700
H 	H 	0.01674 0.67544 0.67376 0.09200
C 	C 	0.34513 0.56872 0.39924 -0.09900
C 	C 	0.40435 0.60471 0.38899 0.13000
C 	C 	0.41865 0.56928 0.37736 -0.09200
C 	C 	0.36993 0.50026 0.37477 0.00100
C 	C 	0.30229 0.46894 0.38266 0.06600
C 	C 	0.29142 0.50258 0.39528 -0.02100
N 	N 	0.44451 0.67331 0.38967 -0.20400
H 	H 	0.46851 0.59488 0.37062 0.06100
C 	C 	0.39702 0.45847 0.36710 0.00600
N 	N 	0.24866 0.40624 0.37838 -0.19200
H 	H 	0.24285 0.47624 0.40239 0.05800
C 	C 	0.40668 0.41222 0.37624 -0.09700
C 	C 	0.44333 0.37990 0.37027 0.13600
C 	C 	0.47688 0.39898 0.35537 -0.10900
C 	C 	0.46333 0.44190 0.34583 -0.02100
C 	C 	0.42178 0.47040 0.35143 0.05900
H 	H 	0.38589 0.40165 0.38810 0.07100
N 	N 	0.44426 0.32938 0.37866 -0.20400
H 	H 	0.48615 0.45410 0.33415 0.04600
N 	N 	0.40527 0.50842 0.34172 -0.19200
H 	H 	0.42383 0.31903 0.39006 0.10000
H 	H 	0.45983 0.29668 0.37360 0.09700
H 	H 	0.42584 0.51896 0.33033 0.08700
H 	H 	0.36962 0.52550 0.34517 0.08900
H 	H 	0.19985 0.38211 0.38463 0.09400
H 	H 	0.25392 0.38218 0.36843 0.09100
H 	H 	0.42459 0.70130 0.39545 0.09900
H 	H 	0.49184 0.69939 0.38299 0.09100
C 	C 	0.80686 0.47167 0.38042 -0.10200
C 	C 	0.84074 0.54220 0.37755 0.12600
C 	C 	0.90448 0.58635 0.38574 -0.09100
C 	C 	0.93315 0.56103 0.39700 -0.01200
C 	C 	0.89337 0.49185 0.40138 0.07200
C 	C 	0.83017 0.44782 0.39306 -0.02200
N 	N 	0.81187 0.56769 0.36712 -0.20300
H 	H 	0.93309 0.64002 0.38297 0.05400
C 	C 	0.00756 0.60547 0.40306 0.01700
N 	N 	0.91633 0.46723 0.41330 -0.19300
H 	H 	0.80176 0.39416 0.39581 0.05200
C 	C 	0.01655 0.64236 0.41683 -0.08200
C 	C 	0.08276 0.67121 0.42503 0.14000
C 	C 	0.14117 0.66388 0.41910 -0.10200
C 	C 	0.13450 0.63337 0.40449 -0.02300
C 	C 	0.06814 0.60412 0.39635 0.06400
H 	H 	0.97067 0.64533 0.42164 0.05900
N 	N 	0.08932 0.70435 0.43873 -0.20200
H 	H 	0.18000 0.62945 0.39978 0.04300
N 	N 	0.06254 0.57381 0.38228 -0.19100
H 	H 	0.04521 0.70773 0.44325 0.11500
H 	H 	0.13842 0.72820 0.44488 0.11900
H 	H 	0.10690 0.57117 0.37765 0.08900
H 	H 	0.01495 0.55416 0.37562 0.09600
H 	H 	0.88772 0.41568 0.41613 0.10000
H 	H 	0.96164 0.49900 0.42008 0.10300
H 	H 	0.76169 0.53655 0.36177 0.09400
H 	H 	0.83829 0.61963 0.36469 0.08600
C 	C 	0.49444 0.87606 0.40972 -0.09600
C 	C 	0.46776 0.91733 0.40341 0.13500
C 	C 	0.51462 0.97483 0.39462 -0.10200
C 	C 	0.58608 0.98955 0.39134 -0.00400
C 	C 	0.61115 0.94577 0.39676 0.06900
C 	C 	0.56496 0.88930 0.40585 -0.01500
N 	N 	0.39684 0.90066 0.40520 -0.20300
H 	H 	0.49516 0.00778 0.39013 0.07400
C 	C 	0.63465 0.05213 0.38263 0.01700
N 	N 	0.67937 0.95764 0.39331 -0.19200
H 	H 	0.58487 0.85675 0.41038 0.05800
C 	C 	0.67622 0.11254 0.39095 -0.10100
C 	C 	0.70767 0.17520 0.38319 0.14000
C 	C 	0.69465 0.17696 0.36704 -0.11800
C 	C 	0.66447 0.11649 0.35841 -0.01700
C 	C 	0.63323 0.05365 0.36610 0.06500
H 	H 	0.68119 0.11098 0.40355 0.07900
N 	N 	0.74797 0.23350 0.39136 -0.20700
H 	H 	0.65874 0.11811 0.34584 0.04500
N 	N 	0.60077 0.99527 0.35761 -0.19700
H 	H 	0.75450 0.23221 0.40345 0.10100
H 	H 	0.77568 0.28022 0.38568 0.10500
H 	H 	0.59790 0.99691 0.34543 0.07700
H 	H 	0.57995 0.94791 0.36296 0.08600
H 	H 	0.69768 0.92540 0.39755 0.09300
H 	H 	0.71456 0.99826 0.38626 0.08900
H 	H 	0.35848 0.85383 0.40980 0.09800
H 	H 	0.37849 0.93311 0.40113 0.09300
C 	C 	0.30005 0.50886 0.61258 -0.11400
C 	C 	0.35644 0.53743 0.60134 0.13900
C 	C 	0.37550 0.49502 0.59304 -0.09700
C 	C 	0.33802 0.42475 0.59555 0.00900
C 	C 	0.27531 0.39558 0.60511 0.06200
C 	C 	0.25703 0.43809 0.61363 -0.01200
N 	N 	0.39363 0.60551 0.59877 -0.20700
H 	H 	0.42159 0.51701 0.58513 0.07300
C 	C 	0.37038 0.38390 0.58976 -0.00100
N 	N 	0.23295 0.32709 0.60627 -0.19100
H 	H 	0.21189 0.41614 0.62179 0.04700
C 	C 	0.41067 0.36728 0.60015 -0.08900
C 	C 	0.45580 0.34272 0.59452 0.12600
C 	C 	0.46213 0.33682 0.57822 -0.09300
C 	C 	0.41656 0.34711 0.56798 -0.01900
C 	C 	0.36993 0.36984 0.57364 0.07700
H 	H 	0.40883 0.37572 0.61259 0.05800
N 	N 	0.49299 0.32521 0.60477 -0.20300
H 	H 	0.41971 0.34021 0.55550 0.06800
N 	N 	0.32537 0.37855 0.56355 -0.19300
H 	H 	0.49068 0.33259 0.61678 0.08700
H 	H 	0.52178 0.30139 0.60097 0.09100
H 	H 	0.32734 0.37055 0.55156 0.11900
H 	H 	0.28675 0.39106 0.56756 0.11100
H 	H 	0.18807 0.30589 0.61377 0.09100
H 	H 	0.24268 0.29437 0.59935 0.09700
H 	H 	0.37773 0.63782 0.60397 0.11300
H 	H 	0.43745 0.62652 0.59098 0.10100
C 	C 	0.79384 0.42047 0.60175 -0.09400
C 	C 	0.75629 0.38784 0.61560 0.12000
C 	C 	0.79592 0.39626 0.62942 -0.09300
C 	C 	0.87142 0.43982 0.62976 -0.00400
C 	C 	0.90719 0.47917 0.61640 0.07100
C 	C 	0.86804 0.46844 0.60246 -0.02400
N 	N 	0.68256 0.34899 0.61574 -0.20400
H 	H 	0.76819 0.36800 0.63982 0.05400
C 	C 	0.91386 0.43768 0.64329 0.00200
N 	N 	0.97925 0.52623 0.61681 -0.21500
H 	H 	0.89608 0.49557 0.59196 0.06300
C 	C 	0.94854 0.39865 0.64210 -0.12100
C 	C 	0.01334 0.41792 0.65034 0.15100
C 	C 	0.04349 0.47739 0.65955 -0.08400
C 	C 	0.99955 0.50552 0.66359 -0.08300
C 	C 	0.93463 0.48634 0.65538 0.06900
H 	H 	0.92892 0.35735 0.63373 0.06300
N 	N 	0.04775 0.38089 0.64896 -0.20500
H 	H 	0.01916 0.54673 0.67198 0.07900
N 	N 	0.89443 0.51671 0.65862 -0.19500
H 	H 	0.02694 0.33852 0.64161 0.09600
H 	H 	0.09398 0.39254 0.65562 0.10000
H 	H 	0.91138 0.55431 0.66722 0.07700
H 	H 	0.84480 0.50160 0.65301 0.08700
H 	H 	0.00561 0.55336 0.60674 0.11400
H 	H 	0.00935 0.53774 0.62714 0.10700
H 	H 	0.65148 0.34444 0.60586 0.08900
H 	H 	0.65534 0.32405 0.62595 0.08200
C 	C 	0.57199 0.11474 0.58604 -0.09300
C 	C 	0.59658 0.11972 0.60166 0.12600
C 	C 	0.58129 0.06048 0.60985 -0.09000
C 	C 	0.53314 0.99635 0.60364 -0.00300
C 	C 	0.50103 0.99154 0.58878 0.07100
C 	C 	0.52349 0.05051 0.57983 -0.02200
N 	N 	0.63071 0.18056 0.60913 -0.20100
H 	H 	0.60355 0.06436 0.62148 0.05600
C 	C 	0.51108 0.93535 0.61351 0.00300
N 	N 	0.44800 0.93094 0.58315 -0.19200
H 	H 	0.50297 0.04623 0.56802 0.07300
C 	C 	0.47006 0.92720 0.62701 -0.09600
C 	C 	0.43781 0.86563 0.63518 0.12800
C 	C 	0.44277 0.80985 0.62913 -0.10500
C 	C 	0.49030 0.82018 0.61664 -0.02300
C 	C 	0.52638 0.88341 0.60903 0.06400
H 	H 	0.46167 0.96834 0.63096 0.05800
N 	N 	0.40174 0.86007 0.64874 -0.20200
H 	H 	0.49677 0.77836 0.61238 0.05000
N 	N 	0.57449 0.89358 0.59738 -0.19200
H 	H 	0.39636 0.90078 0.65290 0.08400
H 	H 	0.38120 0.81633 0.65557 0.08400
H 	H 	0.58337 0.85421 0.59373 0.09700
H 	H 	0.60539 0.94120 0.59223 0.10000
H 	H 	0.42723 0.92756 0.57188 0.11000
H 	H 	0.42436 0.88746 0.59009 0.10300
H 	H 	0.63019 0.22289 0.60450 0.09400
H 	H 	0.65281 0.18463 0.62028 0.08600
C 	C 	0.41492 0.54291 0.46714 -0.11300
C 	C 	0.37620 0.50631 0.48047 0.12700
C 	C 	0.40320 0.47183 0.48959 0.06900
C 	C 	0.47055 0.47658 0.48582 0.01900
C 	C 	0.50775 0.51094 0.47217 0.06700
C 	C 	0.47870 0.54216 0.46258 0.13000
C 	C 	0.50484 0.45008 0.49683 0.02000
C 	C 	0.54472 0.48966 0.50973 0.06500
C 	C 	0.57208 0.46259 0.52093 0.13200
C 	C 	0.56461 0.39770 0.51860 -0.11300
C 	C 	0.52914 0.36013 0.50509 0.12700
C 	C 	0.49688 0.38518 0.49454 0.06800
Br	Br	0.59983 0.51728 0.46697 -0.14200
Br	Br	0.28800 0.50574 0.48661 -0.14100
Br	Br	0.61525 0.51266 0.53991 -0.19900
Br	Br	0.44049 0.33017 0.47712 -0.14300
Br	Br	0.52460 0.58156 0.44288 -0.19800
Br	Br	0.34885 0.41906 0.50742 -0.15100
Br	Br	0.56168 0.58110 0.51201 -0.13600
Br	Br	0.52746 0.27579 0.50073 -0.14300
C 	C 	0.63217 0.14844 0.52183 -0.11400
C 	C 	0.69005 0.14228 0.51533 0.12700
C 	C 	0.67559 0.08321 0.50710 0.06600
C 	C 	0.60332 0.03464 0.50343 0.02500
C 	C 	0.54542 0.04336 0.50881 0.06800
C 	C 	0.55949 0.09813 0.51869 0.13100
C 	C 	0.58827 0.97676 0.49306 0.01200
C 	C 	0.59449 0.98597 0.47675 0.06000
C 	C 	0.57080 0.92954 0.46685 0.12600
C 	C 	0.53202 0.86351 0.47311 -0.11500
C 	C 	0.53215 0.85446 0.48940 0.12600
C 	C 	0.56194 0.91133 0.49938 0.07100
Br	Br	0.44686 0.98065 0.50245 -0.14600
Br	Br	0.78855 0.21665 0.51679 -0.14900
Br	Br	0.59584 0.94306 0.44502 -0.19000
Br	Br	0.56468 0.89985 0.52166 -0.15400
Br	Br	0.47921 0.10109 0.52875 -0.19800
Br	Br	0.75449 0.06800 0.50113 -0.13700
Br	Br	0.63052 0.07529 0.46794 -0.14100
Br	Br	0.49106 0.76424 0.49793 -0.13500
C 	C 	0.87951 0.46803 0.53425 -0.11100
C 	C 	0.94466 0.46910 0.53847 0.11500
C 	C 	0.00818 0.50708 0.52958 0.08000
C 	C 	0.00708 0.54525 0.51670 0.03500
C 	C 	0.94392 0.54925 0.51341 0.05300
C 	C 	0.87989 0.51009 0.52206 0.12600
C 	C 	0.06841 0.57344 0.50543 0.01500
C 	C 	0.12724 0.63972 0.50739 0.07200
C 	C 	0.18461 0.66655 0.49645 0.12600
C 	C 	0.18150 0.62828 0.48316 -0.11200
C 	C 	0.12263 0.56152 0.48132 0.13200
C 	C 	0.06705 0.53397 0.49259 0.07800
Br	Br	0.94485 0.60691 0.49672 -0.15600
Br	Br	0.94737 0.42010 0.55667 -0.20400
Br	Br	0.26933 0.75392 0.50015 -0.14300
Br	Br	0.98844 0.44178 0.49045 -0.15000
Br	Br	0.79247 0.51283 0.51693 -0.15000
Br	Br	0.09614 0.50512 0.53467 -0.13400
Br	Br	0.12876 0.69374 0.52498 -0.14000
Br	Br	0.11652 0.50801 0.46320 -0.20400
