data_crystal

_cell_length_a 30.37034
_cell_length_b 27.88382
_cell_length_c 29.81844
_cell_angle_alpha 90.79401
_cell_angle_beta  89.82120
_cell_angle_gamma 89.23211

_symmetry_space_group_name_	'P 1'
_symmetry_space_group_name_H-M	'P 1'

loop_
_symmetry_equiv_pos_as_xyz
  x,y,z

loop_
_atom_site_label
_atom_site_type_symbol
_atom_site_fract_x
_atom_site_fract_y
_atom_site_fract_z
_atom_site_charge
Ni	Ni	0.49410 0.47283 0.53703 1.10500
O 	O 	0.52724 0.53588 0.52907 -0.69900
Ni	Ni	0.51224 0.54778 0.46434 1.10100
O 	O 	0.52641 0.44922 0.59358 -0.33900
O 	O 	0.58778 0.49497 0.59361 -0.38300
O 	O 	0.44882 0.50897 0.57732 -0.34000
Ni	Ni	0.59121 0.52781 0.53190 1.08100
O 	O 	0.39401 0.45828 0.52611 -0.38900
O 	O 	0.58662 0.46497 0.49621 -0.38700
O 	O 	0.54970 0.60692 0.45715 -0.36200
O 	O 	0.47567 0.48875 0.47487 -0.71400
O 	O 	0.45670 0.41355 0.54008 -0.36200
O 	O 	0.48609 0.55663 0.40167 -0.34500
O 	O 	0.41530 0.55834 0.42843 -0.39400
Ni	Ni	0.41308 0.50492 0.47710 1.06900
H 	H 	0.51682 0.56254 0.54879 0.16900
H 	H 	0.48202 0.46211 0.45343 0.16400
C 	C 	0.57654 0.46491 0.45323 0.25200
O 	O 	0.42137 0.55831 0.52334 -0.41400
C 	C 	0.56921 0.45328 0.59915 0.32300
C 	C 	0.59242 0.60403 0.46261 0.32200
C 	C 	0.42875 0.54907 0.56567 0.32300
C 	C 	0.44341 0.55997 0.39457 0.25900
C 	C 	0.41349 0.41723 0.53743 0.32200
O 	O 	0.56001 0.50404 0.43460 -0.35200
O 	O 	0.61045 0.56358 0.47636 -0.40200
Ni	Ni	0.04678 0.52736 0.50795 1.09700
O 	O 	0.02073 0.46702 0.53556 -0.72400
Ni	Ni	0.96633 0.46093 0.49824 1.11400
O 	O 	0.08500 0.54420 0.56270 -0.34700
O 	O 	0.02782 0.53307 0.61135 -0.43300
O 	O 	0.09927 0.48805 0.48284 -0.36400
Ni	Ni	0.00329 0.46505 0.59824 1.05700
O 	O 	0.07503 0.53663 0.40975 -0.38800
O 	O 	0.93930 0.48977 0.59771 -0.37800
O 	O 	0.93022 0.41179 0.53295 -0.35200
O 	O 	0.99829 0.51297 0.46517 -0.67700
O 	O 	0.07057 0.58395 0.47350 -0.37100
O 	O 	0.92295 0.45812 0.44659 -0.35900
O 	O 	0.97597 0.43750 0.39451 -0.36200
Ni	Ni	0.02334 0.48996 0.40884 1.06700
H 	H 	0.03971 0.43860 0.52939 0.17300
H 	H 	0.97958 0.54179 0.46041 0.18700
C 	C 	0.92398 0.52151 0.56952 0.33900
O 	O 	0.05983 0.43737 0.43833 -0.41500
C 	C 	0.06961 0.54283 0.60410 0.30500
C 	C 	0.94399 0.38689 0.56786 0.27900
C 	C 	0.09557 0.44703 0.46117 0.33100
C 	C 	0.93445 0.43727 0.40855 0.32400
C 	C 	0.07417 0.57983 0.42922 0.30900
O 	O 	0.93065 0.51631 0.52629 -0.36800
O 	O 	0.98125 0.39706 0.58890 -0.38000
Ni	Ni	0.47639 0.52404 0.94393 1.10400
O 	O 	0.51080 0.47013 0.97405 -0.70500
Ni	Ni	0.49009 0.47753 0.03755 1.10200
O 	O 	0.51734 0.52636 0.88944 -0.36400
O 	O 	0.57725 0.53508 0.93425 -0.39600
O 	O 	0.43921 0.47568 0.90770 -0.35900
Ni	Ni	0.57498 0.47354 0.97274 1.07500
O 	O 	0.37501 0.53804 0.94140 -0.40500
O 	O 	0.59538 0.51409 0.02706 -0.36800
O 	O 	0.53234 0.43178 0.07047 -0.35400
O 	O 	0.45018 0.52538 0.00533 -0.70500
O 	O 	0.43745 0.57663 0.91852 -0.36000
O 	O 	0.45474 0.48775 0.09557 -0.33400
O 	O 	0.39125 0.46642 0.06023 -0.40800
Ni	Ni	0.38959 0.50423 0.00032 1.07100
H 	H 	0.50171 0.43843 0.96228 0.15800
H 	H 	0.45144 0.55805 0.01867 0.17500
C 	C 	0.57063 0.53488 0.05828 0.34300
O 	O 	0.40514 0.44171 0.96748 -0.40700
C 	C 	0.55875 0.53788 0.89451 0.25600
C 	C 	0.57066 0.41544 0.05476 0.33100
C 	C 	0.41574 0.44104 0.92478 0.27300
C 	C 	0.41187 0.48135 0.09671 0.29900
C 	C 	0.39466 0.57713 0.92685 0.32000
O 	O 	0.52745 0.53575 0.05476 -0.38400
O 	O 	0.57922 0.41440 0.01121 -0.41700
Ni	Ni	0.52130 0.03929 0.53000 1.09600
O 	O 	0.55771 0.01250 0.47642 -0.70500
Ni	Ni	0.52416 0.95204 0.46362 1.10500
O 	O 	0.56727 0.08679 0.55297 -0.35800
O 	O 	0.63173 0.05662 0.52461 -0.39900
O 	O 	0.49607 0.09359 0.49040 -0.35900
Ni	Ni	0.61775 0.99172 0.49230 1.07300
O 	O 	0.42030 0.06125 0.53334 -0.39800
O 	O 	0.59369 0.96149 0.54912 -0.41400
O 	O 	0.56428 0.92496 0.41402 -0.36700
O 	O 	0.48650 0.98086 0.51408 -0.69500
O 	O 	0.48024 0.06282 0.58034 -0.37200
O 	O 	0.47991 0.89849 0.45238 -0.35000
O 	O 	0.42362 0.95172 0.43994 -0.38800
Ni	Ni	0.42944 0.00257 0.49151 1.06700
H 	H 	0.55758 0.03384 0.45017 0.16400
H 	H 	0.48324 0.95932 0.53996 0.16600
C 	C 	0.57265 0.92054 0.54691 0.25900
O 	O 	0.46016 0.04208 0.44487 -0.42400
C 	C 	0.60892 0.07500 0.55854 0.26600
C 	C 	0.60537 0.91283 0.42256 0.32200
C 	C 	0.47148 0.08572 0.45493 0.28400
C 	C 	0.43906 0.90740 0.44042 0.32400
C 	C 	0.43732 0.06776 0.57387 0.26500
O 	O 	0.55355 0.90682 0.50917 -0.34900
O 	O 	0.62350 0.92544 0.46121 -0.40100
Ni	Ni	0.04817 0.44729 0.99556 1.09600
O 	O 	0.02111 0.49921 0.95678 -0.72700
Ni	Ni	0.96415 0.51184 0.98894 1.11100
O 	O 	0.08982 0.42088 0.94619 -0.34500
O 	O 	0.03313 0.41455 0.89614 -0.43200
O 	O 	0.09758 0.49346 0.01600 -0.34800
Ni	Ni	0.00804 0.48460 0.89433 1.05800
O 	O 	0.07093 0.45665 0.09593 -0.40800
O 	O 	0.94339 0.46320 0.89457 -0.37400
O 	O 	0.93234 0.55241 0.94158 -0.36000
O 	O 	0.99550 0.46721 0.03239 -0.67600
O 	O 	0.07215 0.39922 0.03956 -0.37200
O 	O 	0.91598 0.52844 0.03573 -0.35500
O 	O 	0.96723 0.55316 0.08722 -0.36700
Ni	Ni	0.01613 0.49961 0.08608 1.05300
H 	H 	0.03888 0.52867 0.95815 0.17500
H 	H 	0.97770 0.43900 0.04013 0.16800
C 	C 	0.92475 0.43920 0.92693 0.28200
O 	O 	0.05088 0.54699 0.04988 -0.42200
C 	C 	0.07453 0.40580 0.90718 0.30500
C 	C 	0.95178 0.57262 0.90672 0.27400
C 	C 	0.09012 0.53574 0.03503 0.33200
C 	C 	0.92573 0.54761 0.07530 0.25500
C 	C 	0.07631 0.41126 0.08231 0.31100
O 	O 	0.93079 0.45161 0.96909 -0.37400
O 	O 	0.98762 0.55368 0.88741 -0.37800
Ni	Ni	0.00974 0.00953 0.47815 1.08200
O 	O 	0.97495 0.96756 0.52087 -0.68000
Ni	Ni	0.01037 0.90651 0.51751 1.08400
O 	O 	0.95747 0.05392 0.46366 -0.34300
O 	O 	0.91515 0.98886 0.44837 -0.39500
O 	O 	0.02571 0.05567 0.53062 -0.38400
Ni	Ni	0.91383 0.95238 0.50837 1.07600
O 	O 	0.10663 0.03850 0.48930 -0.40700
O 	O 	0.91781 0.88813 0.47423 -0.38100
O 	O 	0.96829 0.86007 0.54888 -0.32900
O 	O 	0.04971 0.95245 0.48343 -0.70800
O 	O 	0.05038 0.04812 0.43860 -0.37900
O 	O 	0.05997 0.85608 0.51879 -0.36000
O 	O 	0.10436 0.90975 0.55457 -0.39100
Ni	Ni	0.10116 0.97198 0.51702 1.07400
H 	H 	0.97681 0.98053 0.55186 0.18400
H 	H 	0.05816 0.93979 0.45339 0.15900
C 	C 	0.94847 0.87825 0.44447 0.33200
O 	O 	0.06522 0.99996 0.56869 -0.39000
C 	C 	0.92077 0.03546 0.44825 0.23700
C 	C 	0.93194 0.87302 0.57112 0.32500
C 	C 	0.04872 0.04331 0.56615 0.31300
C 	C 	0.09755 0.86618 0.53855 0.25300
C 	C 	0.09279 0.05061 0.44874 0.25700
O 	O 	0.99028 0.88206 0.45526 -0.34100
O 	O 	0.91338 0.91592 0.56658 -0.40700
Ni	Ni	0.49947 0.99472 0.97778 1.10500
O 	O 	0.46947 0.05270 0.00829 -0.71100
Ni	Ni	0.49123 0.04333 0.07115 1.09400
O 	O 	0.46336 0.99894 0.92038 -0.34500
O 	O 	0.39655 0.02862 0.94301 -0.40400
O 	O 	0.54576 0.03986 0.95014 -0.36700
Ni	Ni	0.40485 0.04867 0.01039 1.07100
O 	O 	0.59727 0.96737 0.97440 -0.38400
O 	O 	0.40914 0.97899 0.03048 -0.39600
O 	O 	0.45989 0.10134 0.09862 -0.38800
O 	O 	0.52189 0.98615 0.04046 -0.69600
O 	O 	0.53185 0.93702 0.95096 -0.36000
O 	O 	0.52667 0.03638 0.12859 -0.36800
O 	O 	0.59572 0.01491 0.10483 -0.37400
Ni	Ni	0.58635 0.99246 0.03825 1.08900
H 	H 	0.47915 0.08377 0.99628 0.16100
H 	H 	0.51313 0.95487 0.05272 0.17000
C 	C 	0.42014 0.96820 0.07185 0.31700
O 	O 	0.58005 0.06071 0.01586 -0.41400
C 	C 	0.42033 0.99573 0.92145 0.33100
C 	C 	0.41715 0.10658 0.09488 0.31900
C 	C 	0.57221 0.06841 0.97317 0.31800
C 	C 	0.56917 0.04358 0.12826 0.31600
C 	C 	0.57473 0.93288 0.95490 0.32800
O 	O 	0.44391 0.99798 0.09651 -0.34100
O 	O 	0.39381 0.07307 0.07463 -0.37900
Ni	Ni	0.02243 0.98353 0.09533 1.08500
O 	O 	0.06444 0.02895 0.06413 -0.71500
Ni	Ni	0.03717 0.03302 0.00239 1.08100
O 	O 	0.06351 0.96910 0.14868 -0.37700
O 	O 	0.11916 0.94807 0.10128 -0.39100
O 	O 	0.99511 0.03830 0.13507 -0.34200
Ni	Ni	0.12576 0.00601 0.05920 1.07800
O 	O 	0.92081 0.98960 0.10099 -0.37200
O 	O 	0.12186 0.95269 0.01183 -0.37100
O 	O 	0.08389 0.07293 0.97188 -0.37900
O 	O 	0.99322 0.99110 0.03480 -0.66900
O 	O 	0.97699 0.93939 0.12108 -0.35900
O 	O 	0.99743 0.04031 0.94706 -0.31800
O 	O 	0.94005 0.06971 0.98897 -0.38400
Ni	Ni	0.93668 0.02447 0.04357 1.08000
H 	H 	0.06359 0.06106 0.07872 0.15400
H 	H 	0.98934 0.95961 0.01969 0.17800
C 	C 	0.10265 0.95677 0.97292 0.33200
O 	O 	0.96605 0.07893 0.07674 -0.40700
C 	C 	0.10328 0.95118 0.14203 0.32100
C 	C 	0.12592 0.06143 0.97447 0.32700
C 	C 	0.97347 0.07578 0.11949 0.28200
C 	C 	0.95707 0.05780 0.94982 0.25900
C 	C 	0.93564 0.94594 0.10939 0.31300
O 	O 	0.06147 0.97187 0.97091 -0.37700
O 	O 	0.14469 0.05591 0.01408 -0.40200
Ni	Ni	0.79217 0.75931 0.23699 1.09900
O 	O 	0.77730 0.70012 0.27196 -0.71000
Ni	Ni	0.71509 0.68911 0.25246 1.10000
O 	O 	0.85009 0.77183 0.27119 -0.35300
O 	O 	0.81334 0.77124 0.33790 -0.40300
O 	O 	0.82507 0.71516 0.19038 -0.35100
Ni	Ni	0.78351 0.70454 0.33707 1.07800
O 	O 	0.78839 0.77602 0.13477 -0.39600
O 	O 	0.72516 0.73677 0.35661 -0.37900
O 	O 	0.70254 0.63139 0.29192 -0.35500
O 	O 	0.72984 0.74988 0.21727 -0.69700
O 	O 	0.80214 0.81768 0.19955 -0.39100
O 	O 	0.65916 0.67320 0.21668 -0.34800
O 	O 	0.66985 0.70951 0.14957 -0.38400
Ni	Ni	0.73136 0.74177 0.15179 1.07300
H 	H 	0.79543 0.67252 0.26133 0.18600
H 	H 	0.71134 0.77792 0.22626 0.16400
C 	C 	0.69696 0.75785 0.32960 0.25100
O 	O 	0.76468 0.67878 0.15915 -0.42500
C 	C 	0.84947 0.77923 0.31495 0.25900
C 	C 	0.71598 0.63150 0.33392 0.28400
C 	C 	0.80703 0.67832 0.16866 0.31400
C 	C 	0.65943 0.67124 0.17248 0.26500
C 	C 	0.80538 0.81336 0.15597 0.28300
O 	O 	0.67985 0.73348 0.29572 -0.36400
O 	O 	0.75781 0.63845 0.34296 -0.38800
Ni	Ni	0.75069 0.26192 0.72645 1.10600
O 	O 	0.79518 0.22126 0.76113 -0.70000
Ni	Ni	0.76385 0.21430 0.81984 1.10400
O 	O 	0.79229 0.26312 0.67183 -0.32600
O 	O 	0.84657 0.29513 0.71533 -0.40100
O 	O 	0.72596 0.19744 0.70547 -0.37900
Ni	Ni	0.85079 0.25248 0.77187 1.07100
O 	O 	0.65464 0.31363 0.75039 -0.40000
O 	O 	0.82106 0.30858 0.80462 -0.40400
O 	O 	0.80805 0.16810 0.84760 -0.34800
O 	O 	0.72441 0.26302 0.78809 -0.70400
O 	O 	0.70269 0.29817 0.69098 -0.33900
O 	O 	0.71813 0.19912 0.86866 -0.35900
O 	O 	0.66543 0.18520 0.81560 -0.40100
Ni	Ni	0.66180 0.24991 0.78176 1.07300
H 	H 	0.80022 0.18938 0.74685 0.16900
H 	H 	0.72798 0.29545 0.80138 0.17400
C 	C 	0.81030 0.30547 0.84683 0.33200
O 	O 	0.65374 0.21576 0.72087 -0.39300
C 	C 	0.83269 0.27946 0.67608 0.30300
C 	C 	0.85066 0.17463 0.84085 0.30500
C 	C 	0.68383 0.19009 0.69921 0.34100
C 	C 	0.67878 0.18334 0.85760 0.25200
C 	C 	0.66772 0.32091 0.70855 0.27300
O 	O 	0.78943 0.26751 0.86134 -0.36700
O 	O 	0.86502 0.21790 0.83039 -0.41100
Ni	Ni	0.25877 0.80103 0.78894 1.10000
O 	O 	0.22353 0.74087 0.77853 -0.71300
Ni	Ni	0.25393 0.71385 0.72444 1.10300
O 	O 	0.21998 0.81837 0.84284 -0.36900
O 	O 	0.15737 0.82025 0.80010 -0.39500
O 	O 	0.29966 0.76243 0.83090 -0.36300
Ni	Ni	0.16306 0.75618 0.76227 1.06500
O 	O 	0.35933 0.81727 0.79487 -0.38800
O 	O 	0.18163 0.79709 0.70940 -0.41800
O 	O 	0.21718 0.65326 0.72128 -0.36700
O 	O 	0.28520 0.77894 0.73021 -0.69800
O 	O 	0.29517 0.86090 0.79844 -0.38000
O 	O 	0.29682 0.68107 0.67939 -0.34400
O 	O 	0.35532 0.73169 0.68215 -0.38100
Ni	Ni	0.34872 0.77341 0.74001 1.07600
H 	H 	0.22485 0.71846 0.80398 0.16100
H 	H 	0.27802 0.80156 0.70593 0.18500
C 	C 	0.19369 0.77702 0.67122 0.34100
O 	O 	0.33797 0.71614 0.77948 -0.41100
C 	C 	0.17817 0.83001 0.83806 0.26200
C 	C 	0.17356 0.65636 0.71948 0.26400
C 	C 	0.31902 0.72137 0.81904 0.25500
C 	C 	0.33970 0.68802 0.67773 0.27300
C 	C 	0.33794 0.85792 0.80393 0.27500
O 	O 	0.21876 0.73840 0.67056 -0.35800
O 	O 	0.15320 0.69893 0.71948 -0.40200
Ni	Ni	0.28407 0.27093 0.72874 1.10000
O 	O 	0.27532 0.21008 0.76609 -0.69600
Ni	Ni	0.21380 0.19262 0.74642 1.10000
O 	O 	0.33560 0.29996 0.76475 -0.34300
O 	O 	0.33156 0.25965 0.83031 -0.40300
O 	O 	0.32762 0.23299 0.68823 -0.37500
Ni	Ni	0.27276 0.22311 0.83066 1.07100
O 	O 	0.25203 0.30166 0.62464 -0.39800
O 	O 	0.23388 0.28177 0.81858 -0.41900
O 	O 	0.20540 0.13575 0.78758 -0.37000
O 	O 	0.22530 0.25006 0.70703 -0.70800
O 	O 	0.28965 0.32722 0.68687 -0.36500
O 	O 	0.15733 0.17458 0.71234 -0.36300
O 	O 	0.19579 0.17131 0.64662 -0.38600
Ni	Ni	0.22644 0.23737 0.64224 1.07200
H 	H 	0.29669 0.18405 0.75859 0.16900
H 	H 	0.20347 0.27595 0.71339 0.15500
C 	C 	0.19166 0.27705 0.80927 0.25700
O 	O 	0.28486 0.20137 0.63232 -0.37900
C 	C 	0.33670 0.29986 0.80893 0.32200
C 	C 	0.21286 0.14106 0.83063 0.27000
C 	C 	0.31727 0.19688 0.66133 0.30900
C 	C 	0.15873 0.16587 0.66882 0.25500
C 	C 	0.28766 0.32000 0.64316 0.28000
O 	O 	0.17705 0.23724 0.78947 -0.36200
O 	O 	0.21966 0.18409 0.84729 -0.40600
Ni	Ni	0.22538 0.69670 0.22420 1.10000
O 	O 	0.25770 0.74109 0.26775 -0.70500
Ni	Ni	0.31164 0.75641 0.23181 1.09900
O 	O 	0.17568 0.68480 0.26982 -0.35700
O 	O 	0.22457 0.66065 0.32266 -0.39600
O 	O 	0.18728 0.75345 0.20179 -0.36300
Ni	Ni	0.27758 0.70656 0.32078 1.06800
O 	O 	0.20284 0.70761 0.12466 -0.39800
O 	O 	0.30786 0.65606 0.28133 -0.41200
O 	O 	0.33881 0.80053 0.27880 -0.36900
O 	O 	0.28123 0.70905 0.18875 -0.69400
O 	O 	0.19643 0.65169 0.17897 -0.36900
O 	O 	0.35580 0.78288 0.18638 -0.35500
O 	O 	0.32308 0.77080 0.11883 -0.38300
Ni	Ni	0.26316 0.73817 0.13162 1.07100
H 	H 	0.24057 0.77038 0.27599 0.15600
H 	H 	0.29838 0.67902 0.18368 0.17000
C 	C 	0.34792 0.66303 0.26728 0.33400
O 	O 	0.23870 0.79725 0.16459 -0.41000
C 	C 	0.18457 0.67417 0.31174 0.26000
C 	C 	0.34226 0.78683 0.32081 0.26500
C 	C 	0.20310 0.79530 0.18984 0.25800
C 	C 	0.34291 0.79945 0.14747 0.26800
C 	C 	0.19503 0.66313 0.13640 0.26300
O 	O 	0.35775 0.70398 0.24830 -0.36700
O 	O 	0.33525 0.74177 0.33150 -0.40200
Ni	Ni	0.78663 0.21965 0.28390 1.10600
O 	O 	0.75629 0.25883 0.23581 -0.70500
Ni	Ni	0.69887 0.27306 0.26626 1.10700
O 	O 	0.84119 0.21085 0.24404 -0.35400
O 	O 	0.80065 0.17720 0.18703 -0.39300
O 	O 	0.80916 0.28450 0.30604 -0.37700
Ni	Ni	0.74567 0.22349 0.18092 1.07300
O 	O 	0.75802 0.17652 0.38371 -0.40800
O 	O 	0.71086 0.17248 0.21346 -0.40300
O 	O 	0.67558 0.31756 0.21888 -0.35000
O 	O 	0.72578 0.22486 0.30910 -0.70500
O 	O 	0.81757 0.18553 0.33561 -0.36500
O 	O 	0.65121 0.29690 0.31085 -0.35400
O 	O 	0.70310 0.31023 0.36482 -0.40200
Ni	Ni	0.73068 0.24210 0.37246 1.07600
H 	H 	0.77189 0.28895 0.22945 0.17400
H 	H 	0.71152 0.19327 0.30627 0.16700
C 	C 	0.66959 0.17982 0.22455 0.27300
O 	O 	0.79217 0.27032 0.37903 -0.38300
C 	C 	0.83919 0.18829 0.20499 0.31900
C 	C 	0.67791 0.30528 0.17588 0.25700
C 	C 	0.81140 0.29643 0.34858 0.29100
C 	C 	0.66278 0.31643 0.34954 0.30700
C 	C 	0.79706 0.16233 0.36785 0.33300
O 	O 	0.65657 0.22150 0.24165 -0.35800
O 	O 	0.68896 0.26046 0.16343 -0.39300
Ni	Ni	0.27413 0.24791 0.34046 1.10300
O 	O 	0.30136 0.30639 0.31188 -0.70600
Ni	Ni	0.27031 0.30636 0.25298 1.10100
O 	O 	0.32555 0.23843 0.38381 -0.38200
O 	O 	0.37575 0.23846 0.32664 -0.39200
O 	O 	0.24357 0.29045 0.38881 -0.36300
Ni	Ni	0.36444 0.30624 0.29985 1.07900
O 	O 	0.17574 0.23386 0.36046 -0.38300
O 	O 	0.37021 0.27946 0.23540 -0.38000
O 	O 	0.30839 0.35386 0.21843 -0.37000
O 	O 	0.23639 0.25527 0.28609 -0.70200
O 	O 	0.24103 0.19179 0.36594 -0.38100
O 	O 	0.22500 0.30550 0.20238 -0.36300
O 	O 	0.16898 0.32334 0.25168 -0.39600
Ni	Ni	0.17806 0.27619 0.30473 1.08100
H 	H 	0.29334 0.33613 0.32862 0.16100
H 	H 	0.23496 0.22461 0.26904 0.17100
C 	C 	0.34479 0.24599 0.21879 0.28400
O 	O 	0.20239 0.33288 0.33938 -0.41300
C 	C 	0.36533 0.22836 0.36845 0.30800
C 	C 	0.33734 0.38348 0.23678 0.27400
C 	C 	0.21823 0.32754 0.37966 0.27600
C 	C 	0.18303 0.31517 0.21027 0.25900
C 	C 	0.19747 0.19245 0.36427 0.31300
O 	O 	0.30201 0.24902 0.22354 -0.38300
O 	O 	0.35782 0.37340 0.27491 -0.40000
Ni	Ni	0.68775 0.75804 0.74890 1.10400
O 	O 	0.71678 0.70411 0.71204 -0.70100
Ni	Ni	0.77719 0.70338 0.73841 1.10200
O 	O 	0.63854 0.77091 0.70361 -0.36500
O 	O 	0.68857 0.77716 0.64698 -0.40200
O 	O 	0.64747 0.70877 0.77850 -0.34600
Ni	Ni	0.72033 0.71057 0.64715 1.07900
O 	O 	0.67608 0.75947 0.85123 -0.38400
O 	O 	0.77806 0.74487 0.63266 -0.38300
O 	O 	0.81059 0.65823 0.69483 -0.37400
O 	O 	0.74550 0.75115 0.77993 -0.70500
O 	O 	0.66201 0.80854 0.79143 -0.36000
O 	O 	0.83139 0.70620 0.77882 -0.37400
O 	O 	0.79113 0.68083 0.83864 -0.38800
Ni	Ni	0.73464 0.72440 0.83866 1.07700
H 	H 	0.70291 0.67302 0.71840 0.16200
H 	H 	0.76064 0.78231 0.78231 0.16900
C 	C 	0.80752 0.76018 0.66157 0.28800
O 	O 	0.70255 0.66703 0.81285 -0.41900
C 	C 	0.64830 0.78359 0.66257 0.31700
C 	C 	0.79646 0.64365 0.65496 0.27600
C 	C 	0.66142 0.67076 0.80014 0.32500
C 	C 	0.82931 0.69257 0.82086 0.31700
C 	C 	0.66436 0.80191 0.83521 0.26500
O 	O 	0.79912 0.76162 0.70469 -0.39000
O 	O 	0.75447 0.64751 0.64341 -0.40400
C 	C 	0.87885 0.16226 0.18883 -0.12000
C 	C 	0.90811 0.18362 0.15865 0.20300
C 	C 	0.94281 0.15640 0.13972 -0.08100
C 	C 	0.94826 0.10770 0.15034 -0.02100
C 	C 	0.92131 0.08780 0.18339 -0.03100
C 	C 	0.88667 0.11489 0.20238 0.03500
H 	H 	0.96398 0.17235 0.11485 0.09000
H 	H 	0.86493 0.09848 0.22645 0.05400
Cl	Cl	0.90076 0.24385 0.14298 -0.33800
H 	H 	0.92527 0.05041 0.19216 0.06800
C 	C 	0.12333 0.92005 0.17596 -0.12800
C 	C 	0.16845 0.92507 0.18557 0.20300
C 	C 	0.19440 0.88438 0.19440 -0.08700
C 	C 	0.17518 0.83891 0.19512 -0.02300
C 	C 	0.12904 0.83556 0.19413 -0.04100
C 	C 	0.10316 0.87624 0.18516 0.03200
H 	H 	0.22972 0.88781 0.19808 0.08300
H 	H 	0.06808 0.87233 0.18005 0.03100
Cl	Cl	0.19364 0.98134 0.18148 -0.32800
H 	H 	0.11345 0.80100 0.19679 0.06100
C 	C 	0.15396 0.06812 0.93475 -0.12300
C 	C 	0.13703 0.06184 0.89092 0.20500
C 	C 	0.16017 0.07972 0.85443 -0.08000
C 	C 	0.19989 0.10353 0.86138 -0.02600
C 	C 	0.22036 0.10116 0.90335 -0.03500
C 	C 	0.19716 0.08445 0.94016 0.04100
H 	H 	0.14555 0.07852 0.82133 0.09300
H 	H 	0.21181 0.08676 0.97317 0.04600
Cl	Cl	0.08719 0.03193 0.88100 -0.33600
H 	H 	0.25243 0.11692 0.90833 0.03000
C 	C 	0.12147 0.92862 0.93476 -0.11500
C 	C 	0.16753 0.92672 0.92762 0.20700
C 	C 	0.18547 0.89540 0.89531 -0.08200
C 	C 	0.15827 0.86497 0.87019 -0.01700
C 	C 	0.11241 0.86797 0.87601 -0.03700
C 	C 	0.09409 0.89978 0.90797 0.04100
H 	H 	0.22080 0.89455 0.88998 0.09200
H 	H 	0.05873 0.90076 0.91292 0.04100
Cl	Cl	0.20357 0.96261 0.95942 -0.32900
H 	H 	0.09101 0.84502 0.85651 0.04500
C 	C 	0.88276 0.13906 0.85862 -0.12800
C 	C 	0.87069 0.09109 0.86662 0.21000
C 	C 	0.89758 0.06209 0.89343 -0.09000
C 	C 	0.93747 0.07954 0.91009 -0.00200
C 	C 	0.95247 0.12419 0.89612 -0.03300
C 	C 	0.92517 0.15404 0.87093 0.03400
H 	H 	0.88674 0.02664 0.90254 0.08400
H 	H 	0.93619 0.18972 0.86298 0.03700
Cl	Cl	0.82416 0.06570 0.84086 -0.33000
H 	H 	0.98384 0.13741 0.90790 0.06900
C 	C 	0.90451 0.90650 0.11423 -0.13400
C 	C 	0.86415 0.90609 0.09065 0.21100
C 	C 	0.83213 0.87276 0.10194 -0.08500
C 	C 	0.84112 0.83855 0.13461 -0.01800
C 	C 	0.88345 0.83463 0.15274 -0.03200
C 	C 	0.91472 0.86891 0.14333 0.04000
H 	H 	0.80000 0.87432 0.08626 0.08200
H 	H 	0.94630 0.86733 0.16009 0.05300
Cl	Cl	0.85454 0.94429 0.04498 -0.37800
H 	H 	0.89100 0.80691 0.17678 0.07000
C 	C 	0.58805 0.07659 0.16182 -0.12400
C 	C 	0.62187 0.06127 0.19080 0.19800
C 	C 	0.64633 0.09525 0.21470 -0.08500
C 	C 	0.63680 0.14437 0.21050 -0.02400
C 	C 	0.59996 0.15902 0.18567 -0.03600
C 	C 	0.57570 0.12526 0.16142 0.02800
H 	H 	0.67373 0.08357 0.23525 0.08400
H 	H 	0.54893 0.13728 0.14023 0.03100
Cl	Cl	0.63315 0.99979 0.19845 -0.30300
H 	H 	0.59190 0.19681 0.18270 0.06200
C 	C 	0.39484 0.14234 0.12398 -0.13000
C 	C 	0.36677 0.12802 0.15904 0.20600
C 	C 	0.35072 0.16212 0.19007 -0.08300
C 	C 	0.36325 0.21020 0.18719 -0.02300
C 	C 	0.39110 0.22438 0.15239 -0.03400
C 	C 	0.40661 0.19069 0.12085 0.02800
H 	H 	0.32906 0.15108 0.21688 0.08000
H 	H 	0.42854 0.20198 0.09439 0.02400
Cl	Cl	0.35344 0.06723 0.16613 -0.29300
H 	H 	0.40038 0.26160 0.14950 0.05800
C 	C 	0.39991 0.92626 0.09320 -0.11800
C 	C 	0.35385 0.91993 0.09226 0.21300
C 	C 	0.33554 0.87852 0.11031 -0.08600
C 	C 	0.36253 0.84384 0.13046 -0.01600
C 	C 	0.40814 0.85103 0.13298 -0.03000
C 	C 	0.42673 0.89200 0.11435 0.03400
H 	H 	0.30021 0.87358 0.10906 0.08400
H 	H 	0.46206 0.89671 0.11575 0.03500
Cl	Cl	0.31845 0.96461 0.07081 -0.30400
H 	H 	0.42928 0.82449 0.14853 0.06500
C 	C 	0.59807 0.89910 0.92503 -0.12800
C 	C 	0.59133 0.84949 0.92837 0.20800
C 	C 	0.61263 0.81788 0.89851 -0.08400
C 	C 	0.64063 0.83545 0.86514 -0.01000
C 	C 	0.64696 0.88489 0.86158 -0.04100
C 	C 	0.62593 0.91659 0.89153 0.04400
H 	H 	0.60747 0.77966 0.90128 0.11000
H 	H 	0.63092 0.95482 0.88847 0.05600
Cl	Cl	0.55715 0.82639 0.97054 -0.32900
H 	H 	0.66856 0.89871 0.83597 0.05600
C 	C 	0.59998 0.10239 0.94847 -0.13200
C 	C 	0.64649 0.09886 0.95003 0.20900
C 	C 	0.67212 0.12701 0.92168 -0.08800
C 	C 	0.65194 0.15786 0.89091 -0.01900
C 	C 	0.60584 0.16210 0.89011 -0.04300
C 	C 	0.58006 0.13467 0.91879 0.03200
H 	H 	0.70769 0.12338 0.92237 0.09900
H 	H 	0.54450 0.13763 0.91714 0.02800
Cl	Cl	0.67317 0.05701 0.98481 -0.35300
H 	H 	0.58991 0.18618 0.86682 0.03600
C 	C 	0.39816 0.96271 0.88972 -0.12500
C 	C 	0.41375 0.95544 0.84530 0.20800
C 	C 	0.39461 0.92031 0.81770 -0.08300
C 	C 	0.35896 0.89377 0.83327 -0.01700
C 	C 	0.34250 0.90229 0.87670 -0.02700
C 	C 	0.36207 0.93637 0.90477 0.03100
H 	H 	0.40679 0.91455 0.78381 0.07800
H 	H 	0.34961 0.94174 0.93859 0.04900
Cl	Cl	0.45451 0.99242 0.82247 -0.30300
H 	H 	0.31480 0.88207 0.88891 0.06300
C 	C 	0.06629 0.08123 0.59609 -0.13400
C 	C 	0.07347 0.07243 0.64204 0.20000
C 	C 	0.10143 0.10227 0.66698 -0.08600
C 	C 	0.12189 0.14121 0.64649 -0.02300
C 	C 	0.11111 0.15261 0.60215 -0.04300
C 	C 	0.08333 0.12297 0.57717 0.02700
H 	H 	0.10859 0.09398 0.70162 0.09100
H 	H 	0.07749 0.13076 0.54218 0.04500
Cl	Cl	0.04748 0.02446 0.66880 -0.34800
H 	H 	0.12588 0.18326 0.58633 0.03500
C 	C 	0.17334 0.15030 0.37981 -0.13300
C 	C 	0.13091 0.14015 0.36328 0.20700
C 	C 	0.10512 0.10583 0.38443 -0.08800
C 	C 	0.12184 0.08062 0.42125 -0.02400
C 	C 	0.16588 0.08703 0.43410 -0.04400
C 	C 	0.19123 0.12202 0.41392 0.03400
H 	H 	0.07202 0.09935 0.37256 0.08800
H 	H 	0.22427 0.12839 0.42604 0.03900
Cl	Cl	0.11040 0.16858 0.31507 -0.38700
H 	H 	0.18001 0.06614 0.46095 0.04300
C 	C 	0.90982 0.83783 0.59930 -0.12200
C 	C 	0.89673 0.79335 0.58102 0.19900
C 	C 	0.86597 0.76590 0.60379 -0.08200
C 	C 	0.84740 0.78277 0.64422 -0.02800
C 	C 	0.86354 0.82464 0.66445 -0.03100
C 	C 	0.89477 0.85196 0.64214 0.02900
H 	H 	0.85460 0.73272 0.58871 0.08200
H 	H 	0.90537 0.88556 0.65696 0.04600
Cl	Cl	0.91544 0.77341 0.52789 -0.28800
H 	H 	0.85015 0.83748 0.69620 0.05800
C 	C 	0.82186 0.12586 0.39197 -0.13800
C 	C 	0.83376 0.08245 0.37029 0.20700
C 	C 	0.86605 0.05281 0.38895 -0.09400
C 	C 	0.88689 0.06650 0.42893 -0.01900
C 	C 	0.87375 0.10878 0.45138 -0.04700
C 	C 	0.84104 0.13810 0.43318 0.04000
H 	H 	0.87555 0.01963 0.37194 0.08200
H 	H 	0.83212 0.17156 0.44999 0.03700
Cl	Cl	0.80911 0.06543 0.31918 -0.35600
H 	H 	0.88900 0.11901 0.48283 0.05700
C 	C 	0.17078 0.79039 0.63019 -0.13800
C 	C 	0.19313 0.81328 0.59531 0.21300
C 	C 	0.16929 0.83100 0.55894 -0.09100
C 	C 	0.12325 0.82722 0.55816 -0.01300
C 	C 	0.10256 0.79725 0.58890 -0.04100
C 	C 	0.12609 0.77968 0.62538 0.04200
H 	H 	0.18585 0.85210 0.53388 0.07400
H 	H 	0.10919 0.75955 0.65089 0.02400
Cl	Cl	0.25030 0.82272 0.59817 -0.33100
H 	H 	0.06727 0.79216 0.58741 0.05800
C 	C 	0.93566 0.85516 0.40155 -0.12000
C 	C 	0.94211 0.80540 0.39458 0.21200
C 	C 	0.91665 0.78083 0.36260 -0.08400
C 	C 	0.88542 0.80573 0.33687 -0.01400
C 	C 	0.88286 0.85590 0.34024 -0.03300
C 	C 	0.90783 0.88047 0.37237 0.02900
H 	H 	0.91958 0.74215 0.35946 0.08900
H 	H 	0.90320 0.91886 0.37667 0.03800
Cl	Cl	0.98059 0.77310 0.42676 -0.26400
H 	H 	0.85930 0.87558 0.32012 0.05500
C 	C 	0.12723 0.56555 0.04946 -0.12800
C 	C 	0.12668 0.61499 0.04027 0.20400
C 	C 	0.15035 0.64680 0.06752 -0.08900
C 	C 	0.17513 0.62947 0.10370 -0.02800
C 	C 	0.17950 0.57975 0.10958 -0.04000
C 	C 	0.15596 0.54796 0.08234 0.02700
H 	H 	0.14809 0.68499 0.06153 0.08600
H 	H 	0.15733 0.50992 0.08922 0.05800
Cl	Cl	0.09482 0.63769 0.99589 -0.35400
H 	H 	0.19996 0.56578 0.13623 0.05200
C 	C 	0.10272 0.37957 0.11047 -0.13200
C 	C 	0.14847 0.37481 0.10337 0.20700
C 	C 	0.17441 0.35037 0.13441 -0.09100
C 	C 	0.15511 0.33110 0.17292 -0.02000
C 	C 	0.10914 0.33290 0.17810 -0.04200
C 	C 	0.08313 0.35737 0.14716 0.02600
H 	H 	0.20978 0.34851 0.12968 0.09200
H 	H 	0.04787 0.36031 0.15246 0.01600
Cl	Cl	0.17407 0.40169 0.05708 -0.31700
H 	H 	0.09374 0.31696 0.20702 0.04400
C 	C 	0.10281 0.37511 0.87765 -0.13400
C 	C 	0.14524 0.39006 0.86499 0.20200
C 	C 	0.17332 0.35874 0.84079 -0.09200
C 	C 	0.15958 0.31230 0.82896 -0.02200
C 	C 	0.11652 0.29836 0.83975 -0.04600
C 	C 	0.08832 0.32962 0.86386 0.02700
H 	H 	0.20603 0.37037 0.83170 0.08200
H 	H 	0.05568 0.31785 0.87299 0.02300
Cl	Cl	0.16332 0.44833 0.87823 -0.33800
H 	H 	0.10528 0.26280 0.83079 0.05600
C 	C 	0.83588 0.64208 0.14592 -0.12600
C 	C 	0.86967 0.61798 0.16930 0.20900
C 	C 	0.89701 0.58463 0.14662 -0.08400
C 	C 	0.89147 0.57540 0.10048 -0.00900
C 	C 	0.85680 0.59815 0.07769 -0.03800
C 	C 	0.82919 0.63116 0.10025 0.03900
H 	H 	0.92322 0.56667 0.16470 0.08900
H 	H 	0.80321 0.64918 0.08191 0.03600
Cl	Cl	0.87788 0.62845 0.22704 -0.32700
H 	H 	0.85216 0.59167 0.04212 0.06600
C 	C 	0.86976 0.67472 0.84228 -0.12700
C 	C 	0.87397 0.67651 0.88933 0.20900
C 	C 	0.90339 0.64528 0.91055 -0.08300
C 	C 	0.92939 0.61309 0.88498 -0.01500
C 	C 	0.92959 0.61633 0.83807 -0.03600
C 	C 	0.89999 0.64713 0.81682 0.03400
H 	H 	0.90495 0.64490 0.94686 0.09000
H 	H 	0.89822 0.64666 0.78053 0.04300
Cl	Cl	0.84234 0.71740 0.92197 -0.35400
H 	H 	0.95055 0.59273 0.81797 0.05400
C 	C 	0.82912 0.34017 0.87898 -0.13400
C 	C 	0.82293 0.38972 0.87217 0.20600
C 	C 	0.85304 0.42246 0.89000 -0.08400
C 	C 	0.88881 0.40622 0.91555 -0.02000
C 	C 	0.89207 0.35758 0.92657 -0.03900
C 	C 	0.86223 0.32467 0.90847 0.03000
H 	H 	0.84937 0.46030 0.88282 0.09100
H 	H 	0.86701 0.28673 0.91455 0.04300
Cl	Cl	0.77859 0.41099 0.83976 -0.34100
H 	H 	0.91906 0.34483 0.94710 0.05100
C 	C 	0.39307 0.19434 0.39338 -0.12600
C 	C 	0.43909 0.20022 0.39673 0.20200
C 	C 	0.46482 0.16541 0.41839 -0.07900
C 	C 	0.44484 0.12515 0.43685 -0.03100
C 	C 	0.39895 0.12076 0.43528 -0.02600
C 	C 	0.37331 0.15493 0.41359 0.02700
H 	H 	0.50024 0.16932 0.42017 0.08100
H 	H 	0.33800 0.15019 0.41158 0.03900
Cl	Cl	0.46463 0.25157 0.37552 -0.36000
H 	H 	0.38318 0.09011 0.45007 0.02800
C 	C 	0.62699 0.87432 0.39499 -0.12500
C 	C 	0.60608 0.82994 0.38709 0.20900
C 	C 	0.62809 0.79321 0.36291 -0.08400
C 	C 	0.67152 0.79932 0.34806 -0.01200
C 	C 	0.69237 0.84321 0.35612 -0.04500
C 	C 	0.67014 0.88059 0.37912 0.03300
H 	H 	0.61207 0.75916 0.35748 0.10600
H 	H 	0.68679 0.91415 0.38531 0.02600
Cl	Cl	0.55410 0.81807 0.41059 -0.29500
H 	H 	0.72607 0.84815 0.34525 0.04400
C 	C 	0.66972 0.15628 0.66366 -0.12900
C 	C 	0.68327 0.16209 0.61871 0.20100
C 	C 	0.66525 0.13329 0.58468 -0.08200
C 	C 	0.63297 0.09953 0.59486 -0.02300
C 	C 	0.62030 0.09309 0.63960 -0.04000
C 	C 	0.63872 0.12111 0.67382 0.03200
H 	H 	0.67488 0.13875 0.55011 0.08200
H 	H 	0.62800 0.11636 0.70815 0.03500
Cl	Cl	0.72000 0.20769 0.60396 -0.30200
H 	H 	0.59542 0.06709 0.64778 0.04400
C 	C 	0.61832 0.81584 0.63877 -0.13400
C 	C 	0.59937 0.80109 0.59801 0.21100
C 	C 	0.58065 0.83514 0.56963 -0.09200
C 	C 	0.58147 0.88417 0.58132 -0.01500
C 	C 	0.59633 0.89810 0.62401 -0.04600
C 	C 	0.61459 0.86401 0.65266 0.04000
H 	H 	0.56772 0.82368 0.53745 0.11100
H 	H 	0.62829 0.87548 0.68450 0.03400
Cl	Cl	0.60052 0.74023 0.58129 -0.36500
H 	H 	0.59562 0.93556 0.63418 0.05400
C 	C 	0.35172 0.16012 0.65078 -0.12300
C 	C 	0.33990 0.11206 0.64237 0.19900
C 	C 	0.36936 0.08062 0.61998 -0.08700
C 	C 	0.41114 0.09631 0.60690 -0.01800
C 	C 	0.42442 0.14272 0.61921 -0.03300
C 	C 	0.39487 0.17449 0.64092 0.03100
H 	H 	0.35917 0.04453 0.61147 0.07000
H 	H 	0.40467 0.21113 0.64751 0.05200
Cl	Cl	0.28808 0.09095 0.65919 -0.35400
H 	H 	0.45666 0.15521 0.60953 0.06400
C 	C 	0.41638 0.87134 0.41314 -0.11900
C 	C 	0.37345 0.85717 0.42436 0.20400
C 	C 	0.34919 0.82957 0.39392 -0.08600
C 	C 	0.36731 0.81660 0.35213 -0.02100
C 	C 	0.41055 0.82937 0.34164 -0.02700
C 	C 	0.43506 0.85634 0.37210 0.04100
H 	H 	0.31617 0.81860 0.40259 0.06600
H 	H 	0.46803 0.86718 0.36312 0.05800
Cl	Cl	0.34989 0.87342 0.47654 -0.34500
H 	H 	0.42517 0.81835 0.30987 0.06600
C 	C 	0.36753 0.61437 0.90585 -0.13200
C 	C 	0.37335 0.66308 0.91710 0.20300
C 	C 	0.35363 0.69860 0.89092 -0.08300
C 	C 	0.32863 0.68573 0.85328 -0.02100
C 	C 	0.31996 0.63731 0.84441 -0.04200
C 	C 	0.33914 0.60177 0.87072 0.03800
H 	H 	0.35982 0.73608 0.89832 0.09500
H 	H 	0.33393 0.56437 0.86223 0.04500
Cl	Cl	0.40593 0.68001 0.96331 -0.34000
H 	H 	0.30019 0.62715 0.81570 0.04100
C 	C 	0.38942 0.47654 0.14068 -0.11800
C 	C 	0.41371 0.46853 0.18035 0.20700
C 	C 	0.39532 0.44114 0.21447 -0.07300
C 	C 	0.35202 0.42465 0.21043 -0.01600
C 	C 	0.32525 0.44239 0.17598 -0.02600
C 	C 	0.34385 0.46856 0.14135 0.03400
H 	H 	0.41504 0.43172 0.24334 0.08800
H 	H 	0.32360 0.47889 0.11314 0.02900
Cl	Cl	0.46425 0.49707 0.19022 -0.27300
H 	H 	0.29077 0.43304 0.17435 0.05700
C 	C 	0.59206 0.56704 0.09200 -0.11100
C 	C 	0.63535 0.55748 0.10770 0.21600
C 	C 	0.65607 0.59052 0.13630 -0.08600
C 	C 	0.63452 0.63319 0.14941 -0.01200
C 	C 	0.59116 0.64191 0.13536 -0.02800
C 	C 	0.56994 0.60898 0.10712 0.03900
H 	H 	0.68952 0.58358 0.14727 0.08400
H 	H 	0.53681 0.61692 0.09582 0.05000
Cl	Cl	0.66422 0.50440 0.09244 -0.30900
H 	H 	0.57426 0.67485 0.14531 0.06300
C 	C 	0.60017 0.38900 0.08533 -0.12400
C 	C 	0.60537 0.40413 0.13043 0.21800
C 	C 	0.63312 0.37837 0.15877 -0.08600
C 	C 	0.65439 0.33612 0.14356 -0.00800
C 	C 	0.65030 0.32189 0.09844 -0.04300
C 	C 	0.62345 0.34821 0.06950 0.03600
H 	H 	0.63723 0.39071 0.19307 0.12200
H 	H 	0.61999 0.33624 0.03499 0.03300
Cl	Cl	0.57764 0.45536 0.15231 -0.26700
H 	H 	0.66729 0.29003 0.08586 0.05000
C 	C 	0.62977 0.63445 0.81446 -0.13300
C 	C 	0.58791 0.64802 0.83190 0.20700
C 	C 	0.56263 0.61433 0.85422 -0.08500
C 	C 	0.57919 0.56794 0.86091 -0.01600
C 	C 	0.61899 0.55348 0.84088 -0.04000
C 	C 	0.64382 0.58637 0.81709 0.03300
H 	H 	0.53139 0.62523 0.86913 0.09400
H 	H 	0.67524 0.57516 0.80284 0.03700
Cl	Cl	0.56805 0.70767 0.82958 -0.30200
H 	H 	0.63157 0.51731 0.84531 0.04400
C 	C 	0.35553 0.34087 0.83376 -0.12800
C 	C 	0.39975 0.35425 0.82732 0.20700
C 	C 	0.41944 0.38666 0.85739 -0.08400
C 	C 	0.39555 0.40542 0.89423 -0.02400
C 	C 	0.35132 0.39294 0.89986 -0.03300
C 	C 	0.33141 0.36117 0.86969 0.02600
H 	H 	0.45343 0.39672 0.85240 0.08100
H 	H 	0.29744 0.35118 0.87500 0.02900
Cl	Cl	0.43130 0.32974 0.78271 -0.31000
H 	H 	0.33218 0.40813 0.92743 0.05000
C 	C 	0.13477 0.41649 0.45481 -0.13500
C 	C 	0.13255 0.36661 0.46074 0.20800
C 	C 	0.16509 0.33661 0.44183 -0.09200
C 	C 	0.19902 0.35622 0.41619 -0.02700
C 	C 	0.20473 0.40597 0.41648 -0.03900
C 	C 	0.17271 0.43609 0.43585 0.03600
H 	H 	0.16169 0.29802 0.44345 0.08800
H 	H 	0.17554 0.47459 0.43268 0.04500
Cl	Cl	0.08850 0.34128 0.49035 -0.37000
H 	H 	0.23175 0.42140 0.39802 0.04100
C 	C 	0.89009 0.55555 0.58510 -0.13000
C 	C 	0.84531 0.54292 0.58484 0.20900
C 	C 	0.81396 0.57341 0.60523 -0.08400
C 	C 	0.82716 0.61622 0.62611 -0.02400
C 	C 	0.87143 0.62984 0.62397 -0.03500
C 	C 	0.90270 0.59963 0.60359 0.03400
H 	H 	0.77978 0.56280 0.60651 0.08800
H 	H 	0.93702 0.60978 0.60346 0.03900
Cl	Cl	0.82835 0.48828 0.56056 -0.30000
H 	H 	0.88186 0.66306 0.63966 0.05700
C 	C 	0.09692 0.56145 0.64144 -0.13600
C 	C 	0.14327 0.55605 0.64067 0.20300
C 	C 	0.16906 0.58350 0.67002 -0.08400
C 	C 	0.14889 0.61522 0.70108 -0.01900
C 	C 	0.10292 0.61442 0.70640 -0.04400
C 	C 	0.07704 0.58838 0.67629 0.02400
H 	H 	0.20462 0.58177 0.66716 0.09900
H 	H 	0.04149 0.59125 0.67867 0.02300
Cl	Cl	0.16937 0.51382 0.60459 -0.31900
H 	H 	0.08702 0.63702 0.73166 0.03300
C 	C 	0.85832 0.29214 0.63602 -0.12200
C 	C 	0.84082 0.32471 0.60474 0.21100
C 	C 	0.86921 0.35319 0.57980 -0.08700
C 	C 	0.91500 0.34961 0.58591 -0.01200
C 	C 	0.93230 0.31262 0.61219 -0.04000
C 	C 	0.90402 0.28340 0.63642 0.03000
H 	H 	0.85554 0.37973 0.55740 0.11700
H 	H 	0.91784 0.25698 0.65887 0.01900
Cl	Cl	0.78357 0.33226 0.59810 -0.28400
H 	H 	0.96760 0.30772 0.61533 0.06200
C 	C 	0.09178 0.62010 0.40362 -0.12400
C 	C 	0.07920 0.62609 0.35851 0.20300
C 	C 	0.10793 0.64799 0.32845 -0.08200
C 	C 	0.14844 0.66542 0.34365 -0.02500
C 	C 	0.15692 0.66706 0.38995 -0.03700
C 	C 	0.12878 0.64430 0.41981 0.03400
H 	H 	0.09980 0.64903 0.29312 0.09100
H 	H 	0.13786 0.64189 0.45482 0.04900
Cl	Cl	0.02846 0.60436 0.33898 -0.37700
H 	H 	0.18698 0.68288 0.40240 0.03400
C 	C 	0.90548 0.40018 0.39075 -0.12100
C 	C 	0.88205 0.40693 0.35064 0.20800
C 	C 	0.85125 0.37287 0.33680 -0.07700
C 	C 	0.84370 0.33222 0.36292 -0.01800
C 	C 	0.86780 0.32531 0.40239 -0.02800
C 	C 	0.89850 0.35904 0.41613 0.04000
H 	H 	0.83286 0.37831 0.30616 0.09000
H 	H 	0.91655 0.35357 0.44699 0.04000
Cl	Cl	0.89034 0.45821 0.31800 -0.30800
H 	H 	0.86289 0.29363 0.42234 0.06500
C 	C 	0.38350 0.63278 0.28583 -0.13400
C 	C 	0.37723 0.58302 0.29039 0.21300
C 	C 	0.39900 0.55812 0.32452 -0.09000
C 	C 	0.42843 0.58218 0.35278 -0.00700
C 	C 	0.43930 0.62984 0.34390 -0.03700
C 	C 	0.41735 0.65486 0.31018 0.04300
H 	H 	0.39194 0.52063 0.32993 0.07100
H 	H 	0.42362 0.69272 0.30611 0.05300
Cl	Cl	0.34103 0.55203 0.25461 -0.33900
H 	H 	0.46235 0.64855 0.36525 0.08600
C 	C 	0.59312 0.41680 0.62536 -0.12400
C 	C 	0.63583 0.40154 0.61239 0.20800
C 	C 	0.66011 0.37081 0.63988 -0.08700
C 	C 	0.64206 0.35430 0.68014 -0.00800
C 	C 	0.59906 0.36859 0.69246 -0.03600
C 	C 	0.57479 0.39969 0.66525 0.03900
H 	H 	0.69304 0.35983 0.62984 0.12400
H 	H 	0.54209 0.41122 0.67568 0.06700
Cl	Cl	0.65903 0.41965 0.56122 -0.33100
H 	H 	0.58435 0.35564 0.72306 0.06000
C 	C 	0.38694 0.38254 0.56169 -0.12300
C 	C 	0.39492 0.37386 0.60757 0.22100
C 	C 	0.36296 0.35175 0.63338 -0.08300
C 	C 	0.32236 0.33953 0.61451 -0.01300
C 	C 	0.31563 0.34508 0.56832 -0.03400
C 	C 	0.34795 0.36613 0.54202 0.03700
H 	H 	0.36930 0.34527 0.66855 0.11100
H 	H 	0.34166 0.37215 0.50677 0.02300
Cl	Cl	0.44324 0.39363 0.63427 -0.28400
H 	H 	0.28496 0.33435 0.55296 0.05800
C 	C 	0.62053 0.63709 0.43811 -0.12200
C 	C 	0.60822 0.65102 0.39466 0.21300
C 	C 	0.63933 0.64870 0.36021 -0.08100
C 	C 	0.68345 0.63766 0.37013 -0.02500
C 	C 	0.69682 0.63593 0.41515 -0.03300
C 	C 	0.66533 0.63779 0.44922 0.03800
H 	H 	0.62931 0.65588 0.32609 0.09800
H 	H 	0.67549 0.63242 0.48361 0.02800
Cl	Cl	0.55497 0.67336 0.38354 -0.30300
H 	H 	0.73123 0.63107 0.42364 0.05200
C 	C 	0.41151 0.58235 0.60039 -0.12800
C 	C 	0.37801 0.56812 0.63005 0.20800
C 	C 	0.35625 0.60248 0.65711 -0.08300
C 	C 	0.36730 0.65114 0.65452 -0.01500
C 	C 	0.40253 0.66466 0.62697 -0.03500
C 	C 	0.42439 0.63045 0.60006 0.03400
H 	H 	0.32990 0.59152 0.67916 0.09000
H 	H 	0.45038 0.64166 0.57769 0.03100
Cl	Cl	0.36123 0.50790 0.63187 -0.29000
H 	H 	0.41192 0.70191 0.62503 0.06300
C 	C 	0.63311 0.35118 0.37251 -0.12500
C 	C 	0.62311 0.39585 0.35310 0.21200
C 	C 	0.60255 0.43221 0.37890 -0.08700
C 	C 	0.59218 0.42455 0.42422 -0.00900
C 	C 	0.59988 0.37912 0.44260 -0.03800
C 	C 	0.62030 0.34276 0.41694 0.04000
H 	H 	0.59629 0.46692 0.36413 0.10500
H 	H 	0.62759 0.30849 0.43213 0.02600
Cl	Cl	0.63846 0.40783 0.29739 -0.30800
H 	H 	0.59110 0.37232 0.47716 0.06700
