data_crystal

_cell_length_a 22.36654
_cell_length_b 24.54173
_cell_length_c 37.65162
_cell_angle_alpha 89.98678
_cell_angle_beta  89.75492
_cell_angle_gamma 90.46461

_symmetry_space_group_name_	'P 1'
_symmetry_space_group_name_H-M	'P 1'

loop_
_symmetry_equiv_pos_as_xyz
  x,y,z

loop_
_atom_site_label
_atom_site_type_symbol
_atom_site_fract_x
_atom_site_fract_y
_atom_site_fract_z
_atom_site_charge
Zn	Zn	0.55776 0.53756 0.94891 1.22100
C 	C 	0.56780 0.43949 0.99061 0.32200
O 	O 	0.62889 0.53795 0.91819 -0.46700
O 	O 	0.54376 0.41340 0.96368 -0.44400
O 	O 	0.64924 0.44787 0.92119 -0.48300
C 	C 	0.45389 0.48064 0.92455 0.32100
O 	O 	0.47508 0.51170 0.94996 -0.44500
O 	O 	0.48989 0.46438 0.89914 -0.49700
C 	C 	0.66802 0.49850 0.91948 0.31200
O 	O 	0.52294 0.61656 0.91996 -0.32300
Zn	Zn	0.56551 0.43041 0.91161 1.17400
O 	O 	0.58691 0.49001 0.98679 -0.43900
C 	C 	0.54065 0.64184 0.94835 0.27500
O 	O 	0.56394 0.61141 0.97262 -0.38100
Zn	Zn	0.20648 0.27760 0.99722 1.22300
C 	C 	0.15534 0.24953 0.93008 0.31900
O 	O 	0.23860 0.35169 0.99372 -0.47300
O 	O 	0.10617 0.27462 0.93986 -0.43900
O 	O 	0.18124 0.37614 0.94689 -0.48800
C 	C 	0.09006 0.26875 0.02532 0.32700
O 	O 	0.13303 0.24122 0.01032 -0.46200
O 	O 	0.07988 0.31904 0.01537 -0.50400
C 	C 	0.23147 0.38010 0.96461 0.31500
O 	O 	0.23085 0.27354 0.05812 -0.33400
Zn	Zn	0.10899 0.34625 0.96929 1.16900
O 	O 	0.20570 0.25864 0.94690 -0.44400
C 	C 	0.27152 0.23936 0.04813 0.29900
O 	O 	0.27529 0.23188 0.01424 -0.39800
C 	C 	0.40469 0.85634 0.68134 0.14300
C 	C 	0.45486 0.83606 0.69906 -0.10800
H 	H 	0.48917 0.81496 0.68416 0.07100
C 	C 	0.46279 0.84653 0.73536 0.05700
C 	C 	0.41895 0.87523 0.75415 -0.09400
C 	C 	0.36783 0.89397 0.73684 0.06900
C 	C 	0.36050 0.88428 0.70045 -0.11000
H 	H 	0.32236 0.90090 0.68659 0.07400
N 	N 	0.40328 0.85582 0.64320 -0.18200
C 	C 	0.38033 0.81132 0.62579 0.19800
C 	C 	0.38454 0.80768 0.58850 -0.08000
C 	C 	0.41059 0.85091 0.56927 0.06200
C 	C 	0.43413 0.89604 0.58762 -0.08100
C 	C 	0.42869 0.89838 0.62481 0.19800
C 	C 	0.36616 0.76036 0.57055 0.01100
C 	C 	0.37286 0.75630 0.53378 -0.05700
C 	C 	0.39349 0.80141 0.51360 0.01600
C 	C 	0.41510 0.84815 0.53175 -0.02900
C 	C 	0.44395 0.89091 0.51286 0.01600
C 	C 	0.46567 0.93656 0.56890 0.01100
C 	C 	0.47287 0.93280 0.53222 -0.05800
C 	C 	0.39632 0.79960 0.47581 0.01600
C 	C 	0.42594 0.84203 0.45709 -0.02900
C 	C 	0.44633 0.88917 0.47515 0.01600
O 	O 	0.44906 0.94131 0.64216 -0.20400
O 	O 	0.35489 0.77153 0.64406 -0.20200
H 	H 	0.48699 0.96998 0.58290 0.04300
H 	H 	0.50361 0.96079 0.51942 0.04600
H 	H 	0.34886 0.72559 0.58518 0.04400
H 	H 	0.36518 0.71707 0.52160 0.04600
C 	C 	0.46645 0.93438 0.45495 -0.05800
C 	C 	0.47621 0.92936 0.41851 0.01100
C 	C 	0.46090 0.88092 0.40085 -0.08200
C 	C 	0.43306 0.83834 0.41977 0.06200
C 	C 	0.36810 0.75754 0.45618 -0.05700
C 	C 	0.37750 0.75301 0.41961 0.01000
C 	C 	0.41097 0.79276 0.40130 -0.08100
C 	C 	0.47071 0.87522 0.36414 0.19800
N 	N 	0.45067 0.82963 0.34663 -0.18200
C 	C 	0.42068 0.78887 0.36438 0.19700
C 	C 	0.46025 0.82529 0.30897 0.14000
C 	C 	0.42538 0.85614 0.28569 -0.10600
C 	C 	0.44273 0.86228 0.25004 0.05300
C 	C 	0.49226 0.83361 0.23712 -0.08800
C 	C 	0.52598 0.80109 0.26004 0.05300
C 	C 	0.50983 0.79683 0.29595 -0.10600
O 	O 	0.49974 0.91368 0.34651 -0.20500
O 	O 	0.40094 0.74593 0.34681 -0.20400
H 	H 	0.38732 0.87836 0.29592 0.06800
H 	H 	0.53724 0.77359 0.31406 0.07200
H 	H 	0.47163 0.97418 0.46684 0.04600
H 	H 	0.49366 0.96405 0.40386 0.04200
H 	H 	0.33633 0.73008 0.46856 0.04700
H 	H 	0.35687 0.71943 0.40541 0.04400
H 	H 	0.50619 0.83853 0.20967 0.05200
H 	H 	0.42638 0.88585 0.78163 0.05600
Zn	Zn	0.94035 0.68581 0.97757 1.22100
C 	C 	0.91642 0.65265 0.04934 0.33900
O 	O 	0.02651 0.69933 0.97571 -0.47100
O 	O 	0.93169 0.60308 0.03970 -0.44500
O 	O 	0.05273 0.64406 0.02091 -0.48100
C 	C 	0.89493 0.58151 0.95880 0.32600
O 	O 	0.88118 0.62896 0.97202 -0.45800
O 	O 	0.94882 0.56193 0.96347 -0.49500
C 	C 	0.05906 0.69035 0.00393 0.31600
O 	O 	0.93495 0.69794 0.91579 -0.33500
Zn	Zn	0.99883 0.58709 0.00332 1.16900
O 	O 	0.92832 0.69468 0.02871 -0.44700
C 	C 	0.90814 0.74325 0.92302 0.29700
O 	O 	0.90380 0.75446 0.95658 -0.38700
Zn	Zn	0.35119 0.92512 0.97137 1.22500
C 	C 	0.34939 0.88731 0.04472 0.34400
O 	O 	0.36599 0.00319 0.97528 -0.47900
O 	O 	0.40810 0.88982 0.04564 -0.45700
O 	O 	0.40265 0.00787 0.03071 -0.49500
C 	C 	0.45438 0.85824 0.97030 0.32900
O 	O 	0.39607 0.85884 0.96729 -0.45400
O 	O 	0.48382 0.90253 0.97959 -0.50800
C 	C 	0.36428 0.02469 0.00701 0.31300
O 	O 	0.35159 0.93119 0.90827 -0.32700
Zn	Zn	0.45693 0.94860 0.01891 1.16700
O 	O 	0.31948 0.91132 0.01924 -0.44900
C 	C 	0.29406 0.92604 0.91183 0.28400
O 	O 	0.27455 0.92032 0.94389 -0.39300
C 	C 	0.02008 0.60324 0.33477 0.14100
C 	C 	0.00954 0.55274 0.31848 -0.10700
H 	H 	0.99076 0.51935 0.33385 0.07000
C 	C 	0.02366 0.54531 0.28252 0.05400
C 	C 	0.04787 0.58858 0.26279 -0.08900
C 	C 	0.05829 0.63923 0.27890 0.05400
C 	C 	0.04449 0.64653 0.31498 -0.10500
H 	H 	0.05293 0.68546 0.32767 0.07100
N 	N 	0.00719 0.61008 0.37192 -0.18200
C 	C 	0.04850 0.59403 0.39652 0.19800
C 	C 	0.03419 0.59453 0.43297 -0.08100
C 	C 	0.97841 0.61441 0.44405 0.06100
C 	C 	0.93652 0.63055 0.41849 -0.08100
C 	C 	0.95225 0.62896 0.38223 0.19700
C 	C 	0.07340 0.57261 0.45810 0.01100
C 	C 	0.05793 0.57174 0.49401 -0.05800
C 	C 	0.00529 0.59756 0.50610 0.01700
C 	C 	0.96374 0.61638 0.48070 -0.02900
C 	C 	0.90657 0.63468 0.49151 0.01600
C 	C 	0.87867 0.64511 0.42928 0.01000
C 	C 	0.86306 0.64487 0.46520 -0.05800
C 	C 	0.99199 0.60256 0.54293 0.01600
C 	C 	0.93492 0.62108 0.55378 -0.02800
C 	C 	0.89327 0.63976 0.52838 0.01600
O 	O 	0.91371 0.64502 0.35806 -0.20400
O 	O 	0.10162 0.57747 0.38595 -0.20300
H 	H 	0.84481 0.65457 0.40978 0.04300
H 	H 	0.81649 0.64957 0.47212 0.04600
H 	H 	0.11491 0.55401 0.44976 0.04300
H 	H 	0.08535 0.54833 0.51184 0.04600
C 	C 	0.84069 0.66572 0.54047 -0.05800
C 	C 	0.82576 0.66578 0.57650 0.01000
C 	C 	0.86521 0.64429 0.60167 -0.08100
C 	C 	0.92054 0.62350 0.59046 0.06100
C 	C 	0.03553 0.59220 0.56919 -0.05700
C 	C 	0.02000 0.59189 0.60508 0.01100
C 	C 	0.96238 0.60697 0.61593 -0.08100
C 	C 	0.85170 0.64614 0.63825 0.19700
N 	N 	0.89304 0.62969 0.66272 -0.18200
C 	C 	0.94704 0.60894 0.65219 0.19800
C 	C 	0.88195 0.63858 0.69989 0.14600
C 	C 	0.90115 0.68726 0.71574 -0.11400
C 	C 	0.90200 0.69221 0.75277 0.07200
C 	C 	0.88034 0.64943 0.77402 -0.09900
C 	C 	0.85984 0.60106 0.75824 0.07200
C 	C 	0.86016 0.59586 0.72116 -0.11200
O 	O 	0.79946 0.66451 0.64904 -0.20300
O 	O 	0.98525 0.59176 0.67623 -0.20100
H 	H 	0.91951 0.71963 0.69927 0.07300
H 	H 	0.84642 0.55781 0.70892 0.07400
H 	H 	0.81293 0.68860 0.52254 0.04600
H 	H 	0.78443 0.68470 0.58486 0.04400
H 	H 	0.08207 0.58739 0.56224 0.04600
H 	H 	0.05386 0.58220 0.62452 0.04400
H 	H 	0.88224 0.65270 0.80274 0.06200
H 	H 	0.05876 0.58282 0.23494 0.05300
Zn	Zn	0.74657 0.17951 0.03709 1.22300
C 	C 	0.71209 0.22091 0.96784 0.31700
O 	O 	0.71090 0.24818 0.04883 -0.45500
O 	O 	0.65486 0.21700 0.97561 -0.45200
O 	O 	0.61605 0.21472 0.04988 -0.50400
C 	C 	0.70817 0.07747 0.01075 0.30700
O 	O 	0.72719 0.10280 0.03905 -0.48300
O 	O 	0.66476 0.09852 0.99216 -0.48900
C 	C 	0.65353 0.25629 0.05226 0.32700
O 	O 	0.77579 0.17098 0.09671 -0.32500
Zn	Zn	0.62132 0.16140 0.01098 1.16500
O 	O 	0.75140 0.19116 0.98512 -0.43900
C 	C 	0.82842 0.18584 0.08568 0.30200
O 	O 	0.83291 0.19297 0.05171 -0.38800
Zn	Zn	0.01757 0.01219 0.04645 1.21500
C 	C 	0.12873 0.09660 0.04266 0.29400
O 	O 	0.05548 0.92536 0.04432 -0.31700
O 	O 	0.12530 0.10738 0.07698 -0.38000
O 	O 	0.13637 0.91819 0.08710 -0.18200
C 	C 	0.01203 0.09565 0.10537 0.29700
O 	O 	0.98301 0.05786 0.08686 -0.40100
O 	O 	0.04821 0.08093 0.13170 -0.42400
C 	C 	0.10035 0.89637 0.06076 0.22900
O 	O 	0.92494 0.96616 0.05120 -0.31600
Zn	Zn	0.12676 0.04613 0.12057 1.19100
O 	O 	0.07986 0.07592 0.02612 -0.36800
C 	C 	0.91563 0.98216 0.01887 0.27700
O 	O 	0.95862 0.01108 0.00517 -0.40000
C 	C 	0.85447 0.98326 0.00381 -0.07200
C 	C 	0.80531 0.96157 0.02305 0.02200
C 	C 	0.74908 0.98596 0.01954 -0.02000
H 	H 	0.71262 0.97383 0.03698 0.02500
C 	C 	0.74249 0.03115 0.99716 -0.08400
C 	C 	0.78633 0.04056 0.97072 0.02200
C 	C 	0.84293 0.01679 0.97449 -0.01700
H 	H 	0.87866 0.02705 0.95606 0.04700
C 	C 	0.77366 0.07570 0.93964 0.01700
C 	C 	0.72215 0.06646 0.91917 -0.04100
C 	C 	0.71145 0.09821 0.88905 -0.02300
C 	C 	0.75279 0.13819 0.87861 -0.03600
C 	C 	0.80476 0.14670 0.89837 -0.01600
C 	C 	0.81465 0.11648 0.92924 -0.04300
C 	C 	0.81213 0.91341 0.04628 0.02200
C 	C 	0.83139 0.86367 0.03197 -0.04200
C 	C 	0.83911 0.81855 0.05412 -0.01700
C 	C 	0.82775 0.82285 0.09055 -0.03400
C 	C 	0.80820 0.87216 0.10488 -0.01800
C 	C 	0.80033 0.91741 0.08286 -0.04200
H 	H 	0.85383 0.78025 0.04304 0.04900
H 	H 	0.83423 0.78806 0.10769 0.04200
H 	H 	0.79934 0.87537 0.13309 0.03400
H 	H 	0.78582 0.95567 0.09422 0.04800
H 	H 	0.84047 0.86007 0.00378 0.05200
H 	H 	0.69067 0.03458 0.92650 0.04200
H 	H 	0.67141 0.09142 0.87357 0.02900
H 	H 	0.85385 0.12489 0.94514 0.04700
H 	H 	0.83708 0.17720 0.89000 0.03300
H 	H 	0.74461 0.16248 0.85516 0.03700
C 	C 	0.73212 0.26003 0.94022 -0.09200
C 	C 	0.79330 0.26876 0.93363 0.01200
C 	C 	0.81182 0.30711 0.90829 -0.06700
C 	C 	0.76955 0.33890 0.89045 0.02600
C 	C 	0.70845 0.33045 0.89719 -0.06200
C 	C 	0.68983 0.29112 0.92172 0.00900
C 	C 	0.78929 0.38230 0.86559 -0.00200
C 	C 	0.83248 0.42079 0.87617 -0.03200
C 	C 	0.84790 0.46413 0.85377 -0.04500
C 	C 	0.82047 0.46926 0.82059 0.01700
C 	C 	0.77870 0.43006 0.80946 -0.04800
C 	C 	0.76329 0.38660 0.83180 -0.03700
C 	C 	0.83365 0.51574 0.79849 -0.00700
C 	C 	0.84505 0.55472 0.78012 -0.03300
H 	H 	0.82648 0.24576 0.94797 0.03800
H 	H 	0.85895 0.31216 0.90250 0.04100
H 	H 	0.67533 0.35467 0.88362 0.01700
H 	H 	0.64251 0.28547 0.92672 0.02200
H 	H 	0.85324 0.41767 0.90197 0.03600
H 	H 	0.88052 0.49413 0.86244 0.04400
H 	H 	0.75756 0.43364 0.78373 0.04000
H 	H 	0.73081 0.35659 0.82301 0.03200
C 	C 	0.01155 0.49271 0.26515 -0.00900
C 	C 	0.95240 0.47508 0.26021 -0.03200
C 	C 	0.94046 0.42840 0.24020 -0.04300
C 	C 	0.98761 0.39884 0.22507 0.00900
C 	C 	0.04688 0.41547 0.23095 -0.04400
C 	C 	0.05882 0.46227 0.25094 -0.03200
C 	C 	0.97453 0.35240 0.20151 0.00800
C 	C 	0.94086 0.30802 0.21426 -0.04200
C 	C 	0.91805 0.26943 0.19060 -0.03200
C 	C 	0.92980 0.27429 0.15417 -0.00700
C 	C 	0.96695 0.31639 0.14167 -0.03300
C 	C 	0.98926 0.35542 0.16527 -0.04200
C 	C 	0.89771 0.24055 0.12949 0.04300
C 	C 	0.86782 0.21415 0.10923 -0.09600
H 	H 	0.91566 0.49843 0.27101 0.04200
H 	H 	0.89453 0.41594 0.23570 0.04200
H 	H 	0.08356 0.39268 0.21958 0.04100
H 	H 	0.10467 0.47551 0.25477 0.04000
H 	H 	0.93021 0.30480 0.24229 0.04100
H 	H 	0.88987 0.23659 0.20048 0.04000
H 	H 	0.97642 0.32025 0.11353 0.03800
H 	H 	0.01559 0.38933 0.15519 0.03700
C 	C 	0.18779 0.07663 0.03141 -0.08300
C 	C 	0.21583 0.03680 0.05289 0.01600
C 	C 	0.27590 0.02418 0.04700 -0.01000
H 	H 	0.29700 0.99303 0.06284 0.05000
C 	C 	0.30796 0.04939 0.01920 -0.09900
C 	C 	0.28101 0.09155 0.99935 0.03900
C 	C 	0.22075 0.10457 0.00550 -0.02600
H 	H 	0.20021 0.13756 0.99090 0.04600
C 	C 	0.31663 0.12485 0.97396 0.01600
C 	C 	0.36787 0.15314 0.98558 -0.03400
C 	C 	0.39709 0.18990 0.96288 -0.02400
C 	C 	0.37561 0.19841 0.92854 -0.03800
C 	C 	0.32528 0.16980 0.91667 -0.01600
C 	C 	0.29607 0.13274 0.93914 -0.04100
C 	C 	0.17873 0.00595 0.07945 -0.04900
C 	C 	0.20235 0.98678 0.11376 -0.15500
C 	C 	0.16146 0.96658 0.14205 -0.12600
C 	C 	0.09584 0.96460 0.13717 -0.11400
C 	C 	0.06958 0.98292 0.10319 -0.17400
C 	C 	0.11323 0.00315 0.07340 -0.23900
H 	H 	0.17990 0.95436 0.16729 0.04500
H 	H 	0.06733 0.94825 0.15792 0.05700
H 	H 	0.02374 0.97189 0.09779 0.02600
H 	H 	0.10445 0.99818 0.04616 0.02000
H 	H 	0.24985 0.98823 0.11872 0.06200
H 	H 	0.38370 0.14808 0.01253 0.03300
H 	H 	0.43594 0.21230 0.97207 0.01700
H 	H 	0.25693 0.11090 0.92976 0.04400
H 	H 	0.30872 0.17662 0.89011 0.03600
H 	H 	0.39794 0.22716 0.91110 0.04000
C 	C 	0.25348 0.92374 0.88149 -0.08400
C 	C 	0.25791 0.88096 0.85700 0.01700
C 	C 	0.20915 0.86764 0.83549 -0.06500
C 	C 	0.15563 0.89682 0.83861 0.03000
C 	C 	0.15354 0.94301 0.86043 -0.06500
C 	C 	0.20265 0.95678 0.88145 0.02100
C 	C 	0.10014 0.87437 0.82340 -0.00200
C 	C 	0.09432 0.86912 0.78650 -0.03300
C 	C 	0.04706 0.83862 0.77233 -0.04300
C 	C 	0.00547 0.81315 0.79498 0.01900
C 	C 	0.00891 0.82149 0.83172 -0.04300
C 	C 	0.05604 0.85212 0.84591 -0.03200
C 	C 	0.96569 0.77213 0.78104 -0.00400
C 	C 	0.93507 0.73633 0.76867 -0.03300
H 	H 	0.29720 0.85548 0.85656 0.03100
H 	H 	0.21160 0.83251 0.81814 0.05000
H 	H 	0.11310 0.96688 0.86217 0.04600
H 	H 	0.20030 0.99179 0.89888 0.02900
H 	H 	0.12772 0.88675 0.76890 0.03900
H 	H 	0.04440 0.83267 0.74385 0.04500
H 	H 	0.97674 0.80220 0.84938 0.04900
H 	H 	0.05993 0.85632 0.87446 0.04200
C 	C 	0.08605 0.68365 0.25816 -0.00900
C 	C 	0.14472 0.70053 0.26572 -0.03100
C 	C 	0.17642 0.73278 0.24138 -0.04200
C 	C 	0.14962 0.74836 0.20938 0.00800
C 	C 	0.08952 0.73499 0.20309 -0.04300
C 	C 	0.05780 0.70282 0.22741 -0.03100
C 	C 	0.18620 0.77257 0.18085 0.01200
C 	C 	0.20027 0.74166 0.15067 -0.04500
C 	C 	0.23435 0.76461 0.12326 -0.02700
C 	C 	0.25553 0.81825 0.12618 -0.01100
C 	C 	0.24283 0.84871 0.15671 -0.02300
C 	C 	0.20791 0.82609 0.18390 -0.04400
C 	C 	0.28939 0.84232 0.09763 0.06100
C 	C 	0.31727 0.86265 0.07357 -0.12200
H 	H 	0.16680 0.68622 0.28948 0.04500
H 	H 	0.22267 0.74342 0.24659 0.04400
H 	H 	0.06821 0.74767 0.17869 0.04200
H 	H 	0.01229 0.69047 0.22151 0.03800
H 	H 	0.18520 0.69978 0.14868 0.04400
H 	H 	0.24413 0.74076 0.09975 0.03900
H 	H 	0.25970 0.88993 0.15930 0.03800
H 	H 	0.19769 0.85010 0.20726 0.04100
C 	C 	0.09443 0.73601 0.01953 -0.09300
C 	C 	0.09715 0.74415 0.05687 0.03400
C 	C 	0.10798 0.79671 0.07034 -0.03700
H 	H 	0.10734 0.80350 0.09881 0.05100
C 	C 	0.11298 0.84126 0.04725 -0.03600
C 	C 	0.11746 0.83204 0.01021 0.00200
C 	C 	0.11243 0.77876 0.99704 0.00100
H 	H 	0.11497 0.77189 0.96861 0.04400
C 	C 	0.11715 0.87846 0.98496 0.03200
C 	C 	0.06770 0.88593 0.96258 -0.04900
C 	C 	0.06015 0.93545 0.94487 -0.01600
C 	C 	0.10191 0.97751 0.94918 -0.04200
C 	C 	0.15278 0.96930 0.96985 -0.01200
C 	C 	0.16063 0.91987 0.98762 -0.03800
C 	C 	0.08687 0.69882 0.08206 0.01800
C 	C 	0.03533 0.69787 0.10349 -0.04800
C 	C 	0.02634 0.65567 0.12794 -0.02000
C 	C 	0.06872 0.61443 0.13118 -0.04100
C 	C 	0.12010 0.61520 0.10988 -0.02700
C 	C 	0.12950 0.65752 0.08555 -0.04400
H 	H 	0.98663 0.65508 0.14449 0.03200
H 	H 	0.06182 0.58195 0.15025 0.03400
H 	H 	0.15289 0.58327 0.11244 0.02900
H 	H 	0.16975 0.65824 0.06944 0.04400
H 	H 	0.00232 0.72972 0.10114 0.04900
H 	H 	0.03369 0.85444 0.96034 0.05200
H 	H 	0.02131 0.94156 0.92833 0.03500
H 	H 	0.19882 0.91476 0.00485 0.06200
H 	H 	0.18626 0.00113 0.97196 0.04400
H 	H 	0.09518 0.01628 0.93621 0.03700
C 	C 	0.51987 0.83306 0.75281 -0.01000
C 	C 	0.51989 0.80282 0.78449 -0.03000
C 	C 	0.57313 0.79542 0.80314 -0.04200
C 	C 	0.62688 0.81750 0.79001 0.00800
C 	C 	0.62722 0.84644 0.75792 -0.04200
C 	C 	0.57392 0.85442 0.73946 -0.03000
C 	C 	0.68239 0.81177 0.81041 0.00800
C 	C 	0.69225 0.84420 0.84051 -0.04400
C 	C 	0.74238 0.83558 0.86172 -0.03200
C 	C 	0.78335 0.79496 0.85269 -0.00800
C 	C 	0.77505 0.76427 0.82167 -0.02900
C 	C 	0.72472 0.77269 0.80054 -0.04400
C 	C 	0.82922 0.78004 0.87739 0.04400
C 	C 	0.86620 0.76505 0.89829 -0.10200
H 	H 	0.47848 0.78614 0.79504 0.04000
H 	H 	0.57251 0.77314 0.82800 0.04100
H 	H 	0.66858 0.86362 0.74763 0.04300
H 	H 	0.57437 0.87831 0.71525 0.04400
H 	H 	0.66082 0.87562 0.84764 0.04000
H 	H 	0.74855 0.85953 0.88562 0.03900
H 	H 	0.80636 0.73256 0.81465 0.04200
H 	H 	0.71768 0.74774 0.77717 0.04500
C 	C 	0.58085 0.77509 0.24688 -0.00900
C 	C 	0.62904 0.80746 0.23522 -0.03200
C 	C 	0.67671 0.78382 0.21697 -0.04200
C 	C 	0.67680 0.72752 0.21046 0.00800
C 	C 	0.63059 0.69465 0.22432 -0.04200
C 	C 	0.58268 0.71840 0.24240 -0.03200
C 	C 	0.72081 0.70434 0.18552 0.01000
C 	C 	0.70132 0.68069 0.15362 -0.04500
C 	C 	0.74278 0.66578 0.12763 -0.02900
C 	C 	0.80396 0.67446 0.13327 -0.01400
C 	C 	0.82379 0.69601 0.16565 -0.03000
C 	C 	0.78234 0.71080 0.19178 -0.04500
C 	C 	0.84553 0.66613 0.10462 0.05000
C 	C 	0.87876 0.65982 0.07976 -0.12000
H 	H 	0.62831 0.85122 0.23900 0.04000
H 	H 	0.71224 0.80955 0.20651 0.04000
H 	H 	0.63066 0.65104 0.21985 0.04200
H 	H 	0.54593 0.69304 0.25165 0.04200
H 	H 	0.65397 0.67573 0.14844 0.04000
H 	H 	0.72720 0.64909 0.10265 0.04000
H 	H 	0.87110 0.70275 0.17019 0.03600
H 	H 	0.79788 0.72869 0.21640 0.04300
C 	C 	0.05007 0.24126 0.05078 -0.08800
C 	C 	0.00406 0.20676 0.03833 0.03800
C 	C 	0.98286 0.16440 0.06011 -0.01800
H 	H 	0.94866 0.13691 0.05015 0.04800
C 	C 	0.01105 0.15325 0.09265 -0.07400
C 	C 	0.04886 0.19390 0.10762 0.02500
C 	C 	0.06735 0.23821 0.08642 -0.00900
H 	H 	0.09883 0.26793 0.09684 0.03900
C 	C 	0.07095 0.18985 0.14469 0.01600
C 	C 	0.13236 0.19542 0.15184 -0.06900
C 	C 	0.15274 0.19455 0.18689 -0.02600
C 	C 	0.11223 0.18744 0.21491 -0.04400
C 	C 	0.05133 0.18055 0.20793 -0.02100
C 	C 	0.03071 0.18119 0.17295 -0.04300
C 	C 	0.98218 0.21169 0.00131 0.00900
C 	C 	0.96395 0.26254 0.98833 -0.04000
C 	C 	0.95311 0.26957 0.95214 -0.03500
C 	C 	0.95721 0.22529 0.92895 -0.03000
C 	C 	0.97310 0.17404 0.94188 -0.02200
C 	C 	0.98570 0.16715 0.97794 -0.03500
H 	H 	0.94210 0.30950 0.94205 0.01800
H 	H 	0.94816 0.23070 0.90096 0.03300
H 	H 	0.97624 0.13977 0.92390 0.03500
H 	H 	0.99939 0.12762 0.98752 0.05200
H 	H 	0.96121 0.29718 0.00601 0.03600
H 	H 	0.16419 0.20033 0.13028 0.04800
H 	H 	0.19995 0.19940 0.19234 0.03000
H 	H 	0.98391 0.17331 0.16773 0.05300
H 	H 	0.02012 0.17432 0.22963 0.03400
H 	H 	0.12811 0.18687 0.24202 0.03700
C 	C 	0.15408 0.21012 0.90089 -0.09700
C 	C 	0.18509 0.22191 0.86934 0.02000
C 	C 	0.19841 0.18021 0.84538 -0.07000
C 	C 	0.18117 0.12637 0.85293 0.02800
C 	C 	0.14564 0.11539 0.88291 -0.07000
C 	C 	0.13232 0.15713 0.90694 0.01800
C 	C 	0.20918 0.08124 0.83342 -0.00400
C 	C 	0.17892 0.05532 0.80546 -0.03400
C 	C 	0.20745 0.01458 0.78575 -0.04200
C 	C 	0.26622 0.99977 0.79398 0.01900
C 	C 	0.29579 0.02486 0.82238 -0.04100
C 	C 	0.26743 0.06537 0.84202 -0.03300
C 	C 	0.29774 0.96101 0.77238 -0.00600
C 	C 	0.32781 0.92976 0.75545 -0.03400
H 	H 	0.20198 0.26274 0.86442 0.02800
H 	H 	0.22543 0.18915 0.82212 0.04800
H 	H 	0.13133 0.07408 0.88863 0.04300
H 	H 	0.10851 0.14756 0.93131 0.03200
H 	H 	0.13372 0.06698 0.79884 0.03900
H 	H 	0.18409 0.99494 0.76402 0.04200
H 	H 	0.34093 0.01308 0.82917 0.04700
H 	H 	0.29070 0.08446 0.86391 0.03900
C 	C 	0.41461 0.90439 0.22771 -0.00900
C 	C 	0.41200 0.95849 0.23975 -0.03300
C 	C 	0.39160 0.99956 0.21732 -0.04400
C 	C 	0.37444 0.98716 0.18245 0.00600
C 	C 	0.37657 0.93312 0.17042 -0.04800
C 	C 	0.39558 0.89173 0.19315 -0.03300
C 	C 	0.35588 0.03102 0.15831 0.00600
C 	C 	0.30544 0.06238 0.16642 -0.05400
C 	C 	0.28923 0.10538 0.14425 -0.04600
C 	C 	0.32402 0.11803 0.11431 -0.01000
C 	C 	0.37413 0.08658 0.10601 -0.03200
C 	C 	0.38984 0.04295 0.12781 -0.04300
C 	C 	0.30707 0.16206 0.09145 0.03900
C 	C 	0.29181 0.19820 0.07199 -0.10300
H 	H 	0.42731 0.96893 0.26617 0.04500
H 	H 	0.39044 0.04125 0.22674 0.04100
H 	H 	0.36380 0.92328 0.14344 0.04000
H 	H 	0.39680 0.85007 0.18366 0.03800
H 	H 	0.27844 0.05297 0.18962 0.02800
H 	H 	0.24954 0.12865 0.15025 0.01500
H 	H 	0.40075 0.09578 0.08262 0.03300
H 	H 	0.42874 0.01887 0.12127 0.02700
C 	C 	0.39247 0.45744 0.92789 -0.08300
C 	C 	0.38006 0.40212 0.91938 0.02400
C 	C 	0.32558 0.37837 0.92987 -0.01700
H 	H 	0.31709 0.33556 0.92446 0.04200
C 	C 	0.28323 0.40858 0.94875 -0.08100
C 	C 	0.29367 0.46442 0.95537 0.01900
C 	C 	0.34799 0.48857 0.94467 -0.01100
H 	H 	0.35661 0.53113 0.95071 0.04600
C 	C 	0.24958 0.49695 0.97549 0.02000
C 	C 	0.26289 0.51491 0.00997 -0.06100
C 	C 	0.21886 0.53991 0.03061 -0.01300
C 	C 	0.16160 0.54745 0.01685 -0.06500
C 	C 	0.14884 0.53182 0.98197 -0.02100
C 	C 	0.19283 0.50697 0.96117 -0.06500
C 	C 	0.42436 0.36798 0.90079 0.00600
C 	C 	0.42805 0.36871 0.86358 -0.05400
C 	C 	0.47053 0.33677 0.84611 -0.03600
C 	C 	0.50870 0.30343 0.86566 -0.06200
C 	C 	0.50409 0.30161 0.90268 -0.05000
C 	C 	0.46180 0.33357 0.92023 -0.08000
H 	H 	0.47385 0.33784 0.81743 0.03000
H 	H 	0.54158 0.27877 0.85211 0.03100
H 	H 	0.53277 0.27497 0.91774 0.02300
H 	H 	0.45810 0.33160 0.94880 0.05100
H 	H 	0.39865 0.39450 0.84831 0.04800
H 	H 	0.30687 0.50860 0.02094 0.04300
H 	H 	0.22890 0.55277 0.05744 0.02700
H 	H 	0.18243 0.49426 0.93433 0.04200
H 	H 	0.10464 0.53828 0.97123 -0.02900
H 	H 	0.12698 0.56480 0.03333 0.01700
C 	C 	0.52426 0.69894 0.95531 -0.06200
C 	C 	0.50051 0.71472 0.98862 0.01800
C 	C 	0.48387 0.76891 0.99418 -0.00900
H 	H 	0.46524 0.78089 0.01964 0.03400
C 	C 	0.48595 0.80651 0.96623 -0.09400
C 	C 	0.50856 0.79068 0.93282 0.03200
C 	C 	0.52909 0.73741 0.92782 -0.02700
H 	H 	0.54672 0.72535 0.90213 0.04600
C 	C 	0.50494 0.82792 0.90217 0.00900
C 	C 	0.55068 0.86619 0.89587 -0.04500
C 	C 	0.54325 0.90661 0.87009 -0.02300
C 	C 	0.49052 0.90860 0.85037 -0.03500
C 	C 	0.44511 0.87020 0.85638 -0.01600
C 	C 	0.45247 0.82955 0.88192 -0.04200
C 	C 	0.48769 0.67393 0.01661 0.02200
C 	C 	0.52436 0.67088 0.04669 -0.04300
C 	C 	0.51448 0.63002 0.07200 -0.01700
C 	C 	0.46794 0.59229 0.06745 -0.03800
C 	C 	0.43085 0.59562 0.03775 -0.01600
C 	C 	0.44031 0.63658 0.01248 -0.05100
H 	H 	0.54311 0.62742 0.09504 0.03200
H 	H 	0.46062 0.56048 0.08695 0.03600
H 	H 	0.39497 0.56636 0.03423 0.03200
H 	H 	0.41171 0.63863 0.98937 0.05300
H 	H 	0.56098 0.69953 0.05012 0.04300
H 	H 	0.59121 0.86545 0.91151 0.04000
H 	H 	0.57802 0.93683 0.86574 0.02900
H 	H 	0.41657 0.80063 0.88693 0.05000
H 	H 	0.40369 0.87259 0.84179 0.03700
H 	H 	0.48465 0.94015 0.83063 0.03800
C 	C 	0.58548 0.40825 0.02196 -0.08800
C 	C 	0.54582 0.36955 0.03687 0.02500
C 	C 	0.56875 0.32183 0.05199 -0.02200
H 	H 	0.53844 0.29037 0.06159 0.03800
C 	C 	0.63070 0.31317 0.05224 -0.08600
C 	C 	0.66950 0.35827 0.04499 0.02300
C 	C 	0.64606 0.40578 0.03033 -0.01700
H 	H 	0.67610 0.43816 0.02167 0.04400
C 	C 	0.73480 0.35459 0.04934 0.02700
C 	C 	0.76003 0.35477 0.08337 -0.04200
C 	C 	0.82105 0.34483 0.08748 -0.01500
C 	C 	0.85656 0.33336 0.05778 -0.03200
C 	C 	0.83191 0.33535 0.02374 -0.01100
C 	C 	0.77151 0.34727 0.01943 -0.05100
C 	C 	0.48070 0.37925 0.03710 0.01300
C 	C 	0.45782 0.42692 0.05247 -0.04300
C 	C 	0.39619 0.43565 0.05321 -0.02000
C 	C 	0.35725 0.39743 0.03810 -0.03400
C 	C 	0.37989 0.35029 0.02232 -0.01600
C 	C 	0.44135 0.34069 0.02234 -0.04400
H 	H 	0.37858 0.47185 0.06573 0.03000
H 	H 	0.30955 0.40419 0.03887 0.04900
H 	H 	0.34989 0.32113 0.01016 0.04200
H 	H 	0.45841 0.30349 0.01076 0.03300
H 	H 	0.48772 0.45679 0.06418 0.04400
H 	H 	0.73224 0.36155 0.10656 0.04700
H 	H 	0.84065 0.34554 0.11369 0.03700
H 	H 	0.75269 0.34880 0.99300 0.05100
H 	H 	0.85963 0.32821 0.00067 0.03200
H 	H 	0.90341 0.32409 0.06110 0.04100
C 	C 	0.84814 0.54914 0.94083 -0.08400
C 	C 	0.82458 0.50167 0.95701 0.02300
C 	C 	0.76732 0.48266 0.94758 -0.01700
H 	H 	0.74846 0.44735 0.96101 0.04500
C 	C 	0.73267 0.51152 0.92287 -0.08000
C 	C 	0.75848 0.55656 0.90470 0.02400
C 	C 	0.81688 0.57344 0.91289 -0.01600
H 	H 	0.83594 0.60882 0.89961 0.04500
C 	C 	0.72329 0.58912 0.87922 0.02200
C 	C 	0.70414 0.56607 0.84706 -0.04700
C 	C 	0.67094 0.59706 0.82314 -0.02000
C 	C 	0.65595 0.65080 0.83142 -0.03600
C 	C 	0.67437 0.67376 0.86358 -0.01600
C 	C 	0.70837 0.64324 0.88734 -0.04200
C 	C 	0.85721 0.47500 0.98620 0.01500
C 	C 	0.90830 0.44406 0.97870 -0.05300
C 	C 	0.94634 0.42842 0.00619 -0.03700
C 	C 	0.93316 0.44290 0.04125 -0.05800
C 	C 	0.88091 0.47155 0.04901 -0.01800
C 	C 	0.84280 0.48739 0.02160 -0.05300
H 	H 	0.98625 0.40541 0.00029 -0.00900
H 	H 	0.96270 0.43084 0.06250 0.03000
H 	H 	0.87020 0.48185 0.07624 0.03500
H 	H 	0.80338 0.51103 0.02770 0.05000
H 	H 	0.91994 0.43433 0.95151 0.03100
H 	H 	0.71383 0.52398 0.84100 0.04100
H 	H 	0.65640 0.57927 0.79830 0.03300
H 	H 	0.72261 0.66136 0.91218 0.05100
H 	H 	0.66248 0.71528 0.87003 0.03600
H 	H 	0.62998 0.67462 0.81295 0.04000
