data_crystal

_cell_length_a 21.12129
_cell_length_b 18.86190
_cell_length_c 53.61772
_cell_angle_alpha 90.68436
_cell_angle_beta  91.43924
_cell_angle_gamma 111.12105

_symmetry_space_group_name_	'P 1'
_symmetry_space_group_name_H-M	'P 1'

loop_
_symmetry_equiv_pos_as_xyz
  x,y,z

loop_
_atom_site_label
_atom_site_type_symbol
_atom_site_fract_x
_atom_site_fract_y
_atom_site_fract_z
_atom_site_charge
O 	O 	0.02231 0.89557 0.71010 -0.71900
Ni	Ni	0.04904 0.94934 0.67815 1.10400
O 	O 	0.10264 0.01199 0.74633 -0.29200
O 	O 	0.09209 0.14691 0.74102 -0.29600
O 	O 	0.06649 0.86243 0.66060 -0.28800
O 	O 	0.02459 0.02992 0.69780 -0.70800
O 	O 	0.09481 0.01813 0.64950 -0.28100
O 	O 	0.12751 0.13738 0.66651 -0.30900
Ni	Ni	0.10102 0.12604 0.70381 1.11300
H 	H 	0.05875 0.87989 0.71728 0.22000
O 	O 	0.16078 0.06548 0.71173 -0.30800
C 	C 	0.01714 0.79588 0.65695 0.29000
C 	C 	0.15948 0.03601 0.73382 0.28900
C 	C 	0.14166 0.08574 0.65341 0.31000
C 	C 	0.03441 0.12930 0.75280 0.27500
O 	O 	0.16382 0.67914 0.38205 -0.31000
O 	O 	0.19684 0.57837 0.46373 -0.35900
O 	O 	0.14134 0.60538 0.42934 -0.31700
C 	C 	0.14029 0.57459 0.45156 0.30000
O 	O 	0.11605 0.63805 0.00380 -0.32900
O 	O 	0.19998 0.72321 0.04612 -0.29400
C 	C 	0.17915 0.52384 0.02067 0.32100
C 	C 	0.08825 0.59565 0.98357 0.31600
C 	C 	0.23131 0.79401 0.05400 0.29200
O 	O 	0.22282 0.59092 0.02700 -0.37300
O 	O 	0.12466 0.59377 0.96401 -0.36300
O 	O 	0.06628 0.10547 0.25443 -0.29900
Ni	Ni	0.04967 0.15394 0.22140 1.12400
O 	O 	0.10867 0.10307 0.20425 -0.27500
C 	C 	0.09388 0.06878 0.18226 0.29100
C 	C 	0.01812 0.07822 0.27063 0.27300
C 	C 	0.11616 0.35099 0.12359 0.05100
C 	C 	0.06495 0.34798 0.10609 0.06500
C 	C 	0.03208 0.26447 0.15032 0.01500
C 	C 	0.10131 0.30746 0.14526 -0.05900
C 	C 	0.08427 0.39000 0.08268 0.10600
C 	C 	0.15945 0.30876 0.16285 0.78300
H 	H 	0.16810 0.38643 0.11994 0.13300
C 	C 	0.09085 0.46723 0.08135 -0.10000
C 	C 	0.11599 0.50720 0.05963 0.07800
C 	C 	0.14067 0.47408 0.04041 -0.00700
C 	C 	0.13494 0.39694 0.04189 -0.05300
C 	C 	0.10392 0.35493 0.06265 0.02600
C 	C 	0.07866 0.50945 0.10401 0.78900
H 	H 	0.11988 0.56586 0.05815 0.10700
C 	C 	0.16135 0.35910 0.02152 0.77600
H 	H 	0.09758 0.29546 0.06383 0.13500
F 	F 	0.22213 0.34758 0.15293 -0.37100
F 	F 	0.15653 0.23567 0.16727 -0.42500
F 	F 	0.15619 0.34493 0.18511 -0.37000
F 	F 	0.12099 0.34960 0.00011 -0.40600
F 	F 	0.16044 0.28829 0.02847 -0.38500
F 	F 	0.07880 0.58064 0.09795 -0.37500
F 	F 	0.12948 0.51874 0.12190 -0.39100
C 	C 	0.17914 0.93416 0.16444 0.06100
C 	C 	0.19288 0.95379 0.13942 0.06800
C 	C 	0.19123 0.02406 0.13095 -0.06400
C 	C 	0.16405 0.06602 0.14632 0.06900
C 	C 	0.14371 0.04203 0.17045 0.05800
C 	C 	0.15955 0.98143 0.18060 -0.09400
C 	C 	0.19900 0.89637 0.12147 0.10400
C 	C 	0.21127 0.05048 0.10467 0.78300
H 	H 	0.15456 0.11466 0.13895 0.13300
C 	C 	0.16104 0.97121 0.20862 0.78500
H 	H 	0.18158 0.88112 0.17102 0.15800
C 	C 	0.26224 0.88849 0.11770 -0.09400
C 	C 	0.21650 0.81880 0.07863 0.01000
C 	C 	0.15134 0.81984 0.08380 -0.03800
C 	C 	0.14296 0.85657 0.10579 0.03800
C 	C 	0.09124 0.78325 0.06579 0.77800
H 	H 	0.09381 0.85905 0.10986 0.11800
F 	F 	0.18381 0.91327 0.21488 -0.37500
F 	F 	0.09688 0.95427 0.21789 -0.47800
F 	F 	0.15853 0.01253 0.08801 -0.39500
F 	F 	0.26877 0.03688 0.09804 -0.37600
F 	F 	0.03378 0.79568 0.07330 -0.38300
F 	F 	0.07619 0.70561 0.06445 -0.38800
F 	F 	0.10638 0.81307 0.04229 -0.40500
F 	F 	0.33773 0.99910 0.13920 -0.37100
C 	C 	0.02381 0.23359 0.31585 -0.00100
C 	C 	0.06989 0.22607 0.33393 0.11100
C 	C 	0.08463 0.15858 0.33451 -0.09900
C 	C 	0.06309 0.10664 0.31418 0.10400
C 	C 	0.02304 0.11870 0.29461 -0.01800
C 	C 	0.99822 0.17881 0.29656 0.00100
C 	C 	0.10429 0.29057 0.35150 0.09800
H 	H 	0.07975 0.05872 0.31298 0.12200
C 	C 	0.94855 0.18785 0.27707 0.76900
H 	H 	0.01028 0.28382 0.31624 0.13900
C 	C 	0.16533 0.34951 0.34519 -0.09600
C 	C 	0.16126 0.41888 0.38354 0.00000
C 	C 	0.09767 0.36238 0.38890 -0.04900
C 	C 	0.07180 0.29693 0.37342 0.03400
C 	C 	0.05697 0.37158 0.41086 0.75600
H 	H 	0.02500 0.25164 0.37795 0.12900
F 	F 	0.91813 0.23731 0.28536 -0.35800
F 	F 	0.05433 0.44377 0.41149 -0.43700
F 	F 	0.08672 0.35923 0.43282 -0.42600
F 	F 	0.15360 0.35800 0.30130 -0.38700
C 	C 	0.06660 0.73573 0.25182 0.06300
C 	C 	0.04275 0.71538 0.27589 0.06400
C 	C 	0.97298 0.69779 0.28035 -0.05400
C 	C 	0.09215 0.72953 0.29710 0.10100
C 	C 	0.94272 0.66507 0.30491 0.78100
H 	H 	0.11922 0.74596 0.24798 0.15100
C 	C 	0.12036 0.67478 0.30403 -0.09700
C 	C 	0.15490 0.68312 0.32727 0.08100
C 	C 	0.15911 0.74295 0.34386 -0.00800
C 	C 	0.13380 0.79970 0.33630 -0.05000
C 	C 	0.10439 0.79451 0.31224 0.03100
H 	H 	0.17728 0.64206 0.33284 0.08300
H 	H 	0.08643 0.83845 0.30586 0.11500
F 	F 	0.95417 0.72328 0.32235 -0.39100
F 	F 	0.97101 0.61422 0.31378 -0.36400
C 	C 	0.02054 0.56203 0.45812 -0.02600
C 	C 	0.07394 0.53584 0.46287 0.02000
C 	C 	0.06012 0.46521 0.47419 -0.00900
H 	H 	0.03065 0.61732 0.45007 0.10300
H 	H 	0.10091 0.44470 0.47831 0.11300
F 	F 	0.22551 0.01740 0.67346 -0.41300
C 	C 	0.03016 0.78506 0.61152 0.11200
H 	H 	0.04882 0.84659 0.61080 0.11900
F 	F 	0.07663 0.63043 0.56476 -0.38000
F 	F 	0.06785 0.85188 0.56591 -0.38500
C 	C 	0.99197 0.47280 0.97732 0.12100
C 	C 	0.01487 0.55119 0.98250 -0.11100
H 	H 	0.02788 0.44391 0.97636 0.05900
C 	C 	0.03144 0.17499 0.77482 -0.00800
C 	C 	0.22396 0.04377 0.74710 0.06300
H 	H 	0.18528 0.92816 0.75932 0.10900
F 	F 	0.34744 0.23838 0.73538 -0.36200
F 	F 	0.23451 0.20486 0.73225 -0.43000
Ni	Ni	0.72784 0.33523 0.91521 1.11300
O 	O 	0.64613 0.27329 0.89316 -0.70200
Ni	Ni	0.57142 0.29163 0.91095 1.10900
O 	O 	0.73155 0.17992 0.89698 -0.34200
Ni	Ni	0.62919 0.16538 0.89102 1.08700
O 	O 	0.61458 0.15185 0.92831 -0.37400
O 	O 	0.49697 0.23897 0.88487 -0.30000
O 	O 	0.65119 0.33769 0.93590 -0.70100
O 	O 	0.51031 0.34050 0.92783 -0.32700
O 	O 	0.59459 0.45782 0.92775 -0.38000
Ni	Ni	0.67424 0.44254 0.94787 1.08900
H 	H 	0.64910 0.29376 0.87613 0.18800
H 	H 	0.64718 0.30413 0.95029 0.18500
C 	C 	0.55578 0.14565 0.93733 0.30100
O 	O 	0.74285 0.50934 0.92361 -0.32800
C 	C 	0.49657 0.17614 0.87340 0.28600
C 	C 	0.53072 0.41476 0.93124 0.27500
O 	O 	0.52998 0.19859 0.93319 -0.33000
O 	O 	0.52656 0.13262 0.88396 -0.34900
Ni	Ni	0.60434 0.28574 0.49162 1.11100
O 	O 	0.69711 0.30984 0.47647 -0.69500
O 	O 	0.56924 0.33601 0.46377 -0.34000
O 	O 	0.65760 0.44866 0.46934 -0.34500
O 	O 	0.56282 0.18573 0.47080 -0.33300
Ni	Ni	0.73852 0.41227 0.46308 1.08900
O 	O 	0.51816 0.14252 0.52133 -0.32500
O 	O 	0.65710 0.26148 0.51964 -0.69000
O 	O 	0.51474 0.25742 0.50918 -0.31200
O 	O 	0.71192 0.14585 0.53366 -0.33300
Ni	Ni	0.61765 0.15303 0.52607 1.12200
H 	H 	0.69514 0.27146 0.46342 0.18600
H 	H 	0.65495 0.29098 0.53478 0.22900
O 	O 	0.62377 0.12298 0.49010 -0.37900
C 	C 	0.59482 0.40990 0.46140 0.28000
C 	C 	0.57765 0.12410 0.47354 0.29200
C 	C 	0.49669 0.19977 0.52447 0.29500
Ni	Ni	0.22535 0.65517 0.40812 1.10800
O 	O 	0.30767 0.69647 0.38573 -0.69900
Ni	Ni	0.37972 0.67994 0.40702 1.10800
O 	O 	0.23731 0.80131 0.37838 -0.32000
O 	O 	0.20953 0.55472 0.38935 -0.36300
Ni	Ni	0.33647 0.80382 0.37812 1.09100
O 	O 	0.35060 0.83639 0.41486 -0.37800
O 	O 	0.45364 0.71062 0.38133 -0.31200
O 	O 	0.30129 0.65450 0.43105 -0.70100
O 	O 	0.43623 0.63525 0.42894 -0.33700
O 	O 	0.34708 0.52267 0.43104 -0.37700
Ni	Ni	0.27264 0.55553 0.44692 1.08900
H 	H 	0.30106 0.66622 0.37001 0.18100
H 	H 	0.30990 0.69512 0.44395 0.18300
C 	C 	0.40605 0.83947 0.42716 0.29500
O 	O 	0.19960 0.48080 0.42373 -0.32800
C 	C 	0.18623 0.74218 0.36937 0.29600
C 	C 	0.46144 0.77031 0.36739 0.28700
C 	C 	0.19213 0.48777 0.39958 0.31800
C 	C 	0.41225 0.56298 0.43460 0.27700
O 	O 	0.42920 0.78344 0.42507 -0.33300
O 	O 	0.43752 0.82305 0.37451 -0.34200
Ni	Ni	0.35810 0.70087 0.98911 1.10900
O 	O 	0.25812 0.67264 0.97927 -0.69600
Ni	Ni	0.21946 0.68780 0.01175 1.11000
O 	O 	0.37767 0.64283 0.95962 -0.34500
O 	O 	0.29278 0.53269 0.96955 -0.34800
O 	O 	0.38424 0.79618 0.96721 -0.33700
Ni	Ni	0.20974 0.56816 0.96699 1.09400
O 	O 	0.45693 0.85147 0.01548 -0.34500
O 	O 	0.16659 0.50241 0.99708 -0.32100
O 	O 	0.32153 0.72929 0.02021 -0.69600
O 	O 	0.45659 0.73564 0.00131 -0.32400
O 	O 	0.27081 0.84494 0.03903 -0.34500
Ni	Ni	0.36091 0.83851 0.02618 1.08700
H 	H 	0.25211 0.70884 0.96705 0.18900
H 	H 	0.33284 0.70311 0.03460 0.18500
O 	O 	0.33462 0.85988 0.99135 -0.38900
C 	C 	0.35034 0.56826 0.95836 0.27200
C 	C 	0.37376 0.85911 0.97293 0.31300
C 	C 	0.48253 0.79678 0.01592 0.28700
F 	F 	0.22774 0.40304 0.01642 -0.42200
C 	C 	0.71351 0.94285 0.09587 0.05700
C 	C 	0.72315 0.89521 0.07728 0.08400
C 	C 	0.78357 0.87899 0.07750 -0.07900
C 	C 	0.82737 0.89984 0.09871 0.07200
C 	C 	0.66750 0.85869 0.05878 0.10500
C 	C 	0.80127 0.83996 0.05522 0.78600
H 	H 	0.87091 0.88246 0.10020 0.11100
C 	C 	0.61136 0.79325 0.06493 -0.10500
C 	C 	0.55210 0.77133 0.04970 0.07300
C 	C 	0.54890 0.81195 0.02835 -0.00200
C 	C 	0.60771 0.87113 0.02056 -0.05600
C 	C 	0.66560 0.89619 0.03651 0.03000
C 	C 	0.61141 0.75206 0.08913 0.79000
H 	H 	0.50699 0.72513 0.05518 0.08300
C 	C 	0.60786 0.91055 0.99602 0.77500
H 	H 	0.70834 0.94675 0.03212 0.13500
F 	F 	0.80449 0.88260 0.03417 -0.39300
F 	F 	0.75242 0.76839 0.05119 -0.37800
F 	F 	0.86351 0.83198 0.05876 -0.37000
F 	F 	0.67348 0.94807 0.98840 -0.39900
F 	F 	0.57667 0.96310 0.99885 -0.43800
F 	F 	0.57381 0.85824 0.97742 -0.42600
F 	F 	0.55997 0.68125 0.08878 -0.38500
F 	F 	0.60179 0.79443 0.10890 -0.39400
F 	F 	0.67214 0.74103 0.09295 -0.38000
C 	C 	0.27031 0.84976 0.09613 0.08700
C 	C 	0.32091 0.92138 0.13656 0.79100
H 	H 	0.31920 0.84605 0.09237 0.07400
F 	F 	0.20459 0.03772 0.21999 -0.36100
F 	F 	0.37827 0.90820 0.12935 -0.38300
F 	F 	0.30251 0.88818 0.15940 -0.37500
C 	C 	0.62389 0.83736 0.33143 0.03400
C 	C 	0.59777 0.82559 0.30679 0.10000
C 	C 	0.52662 0.79361 0.30209 -0.09600
C 	C 	0.48324 0.77294 0.32236 0.07500
C 	C 	0.50929 0.78689 0.34695 0.00500
C 	C 	0.58021 0.82046 0.35167 -0.05300
C 	C 	0.64575 0.84149 0.28609 0.09600
C 	C 	0.49698 0.77665 0.27559 0.79000
H 	H 	0.42887 0.74611 0.31907 0.08200
C 	C 	0.60934 0.83722 0.37822 0.77900
H 	H 	0.67843 0.85962 0.33473 0.13100
C 	C 	0.67837 0.91633 0.27761 -0.08400
C 	C 	0.72734 0.92949 0.25921 0.08100
C 	C 	0.66082 0.78134 0.27564 0.04100
C 	C 	0.66491 0.98307 0.28940 0.77400
H 	H 	0.63509 0.72445 0.28232 0.13600
F 	F 	0.58114 0.88299 0.39055 -0.42200
F 	F 	0.67910 0.87450 0.37881 -0.39500
F 	F 	0.59500 0.76990 0.39080 -0.41800
F 	F 	0.50764 0.71360 0.26606 -0.38100
F 	F 	0.52698 0.83779 0.26044 -0.36300
F 	F 	0.42781 0.76190 0.27487 -0.37500
F 	F 	0.69089 0.04790 0.27542 -0.34300
F 	F 	0.69524 0.99848 0.31299 -0.39800
F 	F 	0.59591 0.96684 0.29122 -0.37400
C 	C 	0.12310 0.14214 0.35664 0.79200
C 	C 	0.19421 0.41196 0.36176 0.08600
C 	C 	0.19649 0.34921 0.31992 0.79000
H 	H 	0.24180 0.45640 0.35751 0.08900
F 	F 	0.09007 0.14485 0.37838 -0.39700
F 	F 	0.18831 0.19550 0.35840 -0.37500
F 	F 	0.12739 0.07080 0.35454 -0.35500
F 	F 	0.25876 0.40771 0.31830 -0.38300
F 	F 	0.20650 0.28159 0.31580 -0.37700
C 	C 	0.13785 0.86552 0.35371 0.78000
F 	F 	0.09940 0.90591 0.34452 -0.38100
F 	F 	0.20455 0.91475 0.35640 -0.40100
F 	F 	0.11360 0.83901 0.37685 -0.39100
C 	C 	0.51793 0.92469 0.44585 0.03500
C 	C 	0.44923 0.91147 0.43994 -0.03600
C 	C 	0.42345 0.96920 0.44470 -0.00600
C 	C 	0.46588 0.03934 0.45493 0.03700
C 	C 	0.53454 0.05251 0.46074 -0.00500
C 	C 	0.56025 0.99477 0.45612 -0.04200
H 	H 	0.53889 0.88111 0.44219 0.10400
H 	H 	0.37059 0.95988 0.44048 0.09900
H 	H 	0.44500 0.08290 0.45878 0.11700
H 	H 	0.61305 0.00409 0.46049 0.11700
C 	C 	0.48031 0.41966 0.46147 0.01200
C 	C 	0.54886 0.45044 0.45509 -0.02800
C 	C 	0.57280 0.51919 0.44239 0.01600
C 	C 	0.52837 0.55618 0.43576 0.01100
C 	C 	0.45955 0.52479 0.44187 -0.03500
C 	C 	0.43598 0.45661 0.45491 0.01300
H 	H 	0.46144 0.36727 0.47167 0.10000
H 	H 	0.62552 0.54337 0.43732 0.08400
H 	H 	0.54727 0.60862 0.42560 0.10400
H 	H 	0.38336 0.43240 0.46009 0.07700
C 	C 	0.32669 0.14605 0.55508 0.03500
C 	C 	0.34710 0.17648 0.57923 0.10200
C 	C 	0.41670 0.21773 0.58503 -0.09000
C 	C 	0.46470 0.22440 0.56668 0.07800
C 	C 	0.44431 0.19350 0.54265 0.00900
C 	C 	0.37462 0.15546 0.53647 -0.05200
C 	C 	0.29639 0.15670 0.59902 0.09700
C 	C 	0.44066 0.24873 0.61129 0.79000
H 	H 	0.51841 0.25235 0.57121 0.10800
C 	C 	0.35167 0.12202 0.51042 0.77700
H 	H 	0.27353 0.11326 0.55106 0.14000
C 	C 	0.25174 0.19676 0.60212 -0.08300
C 	C 	0.20196 0.17303 0.62030 0.08700
C 	C 	0.19743 0.11185 0.63573 0.03100
C 	C 	0.24399 0.07381 0.63318 -0.05400
C 	C 	0.29109 0.09490 0.61411 0.05300
C 	C 	0.25328 0.26057 0.58480 0.78900
H 	H 	0.16524 0.20062 0.62201 0.12800
C 	C 	0.24000 0.00628 0.64906 0.81100
H 	H 	0.32372 0.06284 0.61082 0.13800
F 	F 	0.37661 0.17759 0.49286 -0.41300
F 	F 	0.28158 0.09276 0.50755 -0.38300
F 	F 	0.37559 0.06396 0.50588 -0.41700
F 	F 	0.43988 0.18978 0.62650 -0.36800
F 	F 	0.39919 0.28391 0.62100 -0.36200
F 	F 	0.50612 0.30192 0.61155 -0.36000
F 	F 	0.19012 0.94177 0.63909 -0.42800
F 	F 	0.30109 0.99459 0.64951 -0.38400
F 	F 	0.21513 0.30110 0.59372 -0.37200
F 	F 	0.22699 0.23025 0.56153 -0.39600
F 	F 	0.31903 0.31121 0.58243 -0.37600
F 	F 	0.70845 0.50991 0.54438 -0.40900
F 	F 	0.03066 0.73959 0.54566 -0.39400
C 	C 	0.45793 0.07035 0.96280 0.01400
C 	C 	0.51224 0.07280 0.94782 -0.02400
C 	C 	0.51934 0.00449 0.94032 0.05400
C 	C 	0.47236 0.93468 0.94748 0.01700
C 	C 	0.41809 0.93218 0.96257 -0.06100
C 	C 	0.41090 0.00061 0.96996 0.07500
H 	H 	0.45165 0.12251 0.96868 0.09500
H 	H 	0.56033 0.00527 0.92845 0.08000
H 	H 	0.47875 0.88266 0.94154 0.10600
H 	H 	0.36931 0.99993 0.98148 0.05700
C 	C 	0.48915 0.52235 0.92662 0.01100
C 	C 	0.48047 0.45061 0.93619 -0.03700
C 	C 	0.42507 0.41452 0.95127 0.01700
C 	C 	0.38066 0.45137 0.95767 0.00400
C 	C 	0.39114 0.52468 0.94898 -0.02800
C 	C 	0.44459 0.55898 0.93286 0.00700
H 	H 	0.53073 0.55006 0.91448 0.08600
H 	H 	0.41753 0.35893 0.95864 0.08900
H 	H 	0.33950 0.42386 0.96999 0.10900
H 	H 	0.45241 0.61468 0.92553 0.08900
H 	H 	0.75843 0.12701 0.85163 0.09000
F 	F 	0.77303 0.03518 0.82312 -0.37100
F 	F 	0.15224 0.14266 0.78648 -0.40700
C 	C 	0.32323 0.12881 0.77039 0.04600
C 	C 	0.32182 0.06969 0.78616 0.12500
C 	C 	0.27501 0.99506 0.78104 -0.10500
C 	C 	0.22546 0.98333 0.76182 0.06700
C 	C 	0.27766 0.11553 0.74983 -0.04200
C 	C 	0.36600 0.08811 0.80903 0.10100
C 	C 	0.27315 0.92932 0.79747 0.79100
C 	C 	0.28705 0.17773 0.73097 0.78300
H 	H 	0.35923 0.18564 0.77450 0.13900
C 	C 	0.43693 0.10535 0.80776 -0.09500
C 	C 	0.47868 0.13669 0.82893 0.07700
C 	C 	0.45059 0.14546 0.85163 0.00400
C 	C 	0.37917 0.12134 0.85351 -0.04900
C 	C 	0.33790 0.09679 0.83178 0.03700
C 	C 	0.46906 0.09618 0.78346 0.78900
H 	H 	0.53340 0.15487 0.82777 0.07800
C 	C 	0.34691 0.12424 0.87833 0.77800
H 	H 	0.28388 0.08543 0.83240 0.15000
F 	F 	0.28884 0.14969 0.70715 -0.36900
F 	F 	0.24038 0.93273 0.81920 -0.40100
F 	F 	0.33806 0.93198 0.80344 -0.38300
F 	F 	0.23870 0.86014 0.78549 -0.37700
F 	F 	0.35645 0.19880 0.88457 -0.40300
F 	F 	0.37555 0.09409 0.89693 -0.41100
F 	F 	0.27782 0.08267 0.87720 -0.37500
F 	F 	0.53290 0.09313 0.78784 -0.37200
F 	F 	0.47550 0.15737 0.76848 -0.37800
F 	F 	0.43005 0.02976 0.77086 -0.35500
C 	C 	0.72882 0.55787 0.86221 0.08500
C 	C 	0.70719 0.60769 0.82049 0.79000
H 	H 	0.67652 0.51882 0.86148 0.08400
F 	F 	0.71379 0.68063 0.81392 -0.37500
F 	F 	0.63961 0.56892 0.82555 -0.39200
F 	F 	0.78183 0.78277 0.85245 -0.37900
O 	O 	0.04856 0.22540 0.19254 -0.26200
O 	O 	0.04385 0.07381 0.16832 -0.35300
F 	F 	0.22541 0.12782 0.10283 -0.37500
F 	F 	0.98254 0.21613 0.25555 -0.45000
F 	F 	0.61705 0.10776 0.57305 -0.48900
F 	F 	0.77959 0.82482 0.60126 -0.37600
C 	C 	0.01976 0.75014 0.63480 0.00200
C 	C 	0.01609 0.78130 0.56457 0.78200
C 	C 	0.75345 0.60927 0.84286 -0.10200
F 	F 	0.72397 0.57171 0.80049 -0.39000
C 	C 	0.00974 0.74140 0.58933 -0.13000
F 	F 	0.04975 0.67296 0.67608 -0.40200
F 	F 	0.12364 0.12077 0.82626 -0.38900
C 	C 	0.74584 0.49251 0.89997 0.31800
O 	O 	0.73128 0.42213 0.89224 -0.35300
C 	C 	0.70850 0.79382 0.25679 -0.05500
F 	F 	0.04590 0.52419 0.54128 -0.41500
C 	C 	0.09788 0.11378 0.80197 0.77200
C 	C 	0.78191 0.23549 0.88707 0.28500
F 	F 	0.10293 0.74107 0.20291 -0.36700
C 	C 	0.02645 0.55964 0.56083 0.76300
F 	F 	0.68678 0.65944 0.25703 -0.37200
F 	F 	0.04304 0.81573 0.19528 -0.44100
C 	C 	0.02365 0.74813 0.23329 -0.09400
C 	C 	0.77180 0.55398 0.88206 -0.00100
H 	H 	0.66841 0.95756 0.09495 0.11800
F 	F 	0.74856 0.63440 0.55419 -0.37200
H 	H 	0.75388 0.98688 0.25310 0.12600
F 	F 	0.81158 0.79051 0.63785 -0.39300
C 	C 	0.75910 0.57871 0.53966 0.77800
O 	O 	0.79086 0.30703 0.89204 -0.28000
O 	O 	0.75439 0.43583 0.96835 -0.35500
O 	O 	0.81085 0.40540 0.93563 -0.28700
C 	C 	0.81070 0.43375 0.95838 0.29200
Ni	Ni	0.75315 0.29811 0.50584 1.10800
O 	O 	0.79221 0.48457 0.49183 -0.32800
O 	O 	0.79098 0.26573 0.53764 -0.31300
C 	C 	0.80265 0.46442 0.51452 0.30600
C 	C 	0.75853 0.19880 0.54713 0.29800
O 	O 	0.76447 0.39888 0.52314 -0.33900
O 	O 	0.82313 0.38978 0.45581 -0.36200
O 	O 	0.82069 0.91011 0.16172 -0.31000
Ni	Ni	0.86667 0.85526 0.18553 1.10900
O 	O 	0.79346 0.84517 0.21117 -0.27900
C 	C 	0.80042 0.88776 0.23139 0.31200
C 	C 	0.85165 0.94798 0.14232 0.25900
C 	C 	0.81351 0.94036 0.11859 0.03600
C 	C 	0.75963 0.96788 0.11624 -0.08100
C 	C 	0.74347 0.86944 0.24889 0.02300
C 	C 	0.71871 0.72591 0.24441 0.78500
F 	F 	0.78685 0.73678 0.24404 -0.43000
F 	F 	0.69183 0.71595 0.22028 -0.37000
C 	C 	0.74196 0.10751 0.60936 0.04900
C 	C 	0.80592 0.10155 0.61232 0.09300
C 	C 	0.85920 0.14305 0.59664 -0.09200
C 	C 	0.84410 0.17995 0.57596 0.08600
C 	C 	0.77848 0.18038 0.57194 0.01100
C 	C 	0.72931 0.15125 0.59028 -0.06200
H 	H 	0.88220 0.20432 0.56219 0.11100
C 	C 	0.66181 0.16265 0.58878 0.77300
H 	H 	0.70126 0.07553 0.62129 0.14300
C 	C 	0.82910 0.92169 0.63257 -0.02900
C 	C 	0.81035 0.97331 0.61836 0.00100
C 	C 	0.82776 0.84786 0.62060 0.77200
H 	H 	0.79674 0.96131 0.59871 0.12800
F 	F 	0.67007 0.23395 0.57992 -0.44900
F 	F 	0.63395 0.15695 0.61211 -0.36000
F 	F 	0.93233 0.07461 0.59026 -0.39100
F 	F 	0.89074 0.85803 0.61121 -0.38500
F 	F 	0.75409 0.59621 0.51490 -0.40400
C 	C 	0.85828 0.15403 0.83658 -0.07900
C 	C 	0.81179 0.16207 0.85369 0.07700
C 	C 	0.83342 0.21744 0.87290 0.02500
C 	C 	0.83638 0.08763 0.81793 0.78600
F 	F 	0.89478 0.27508 0.92048 -0.41700
F 	F 	0.88208 0.05046 0.81877 -0.38100
F 	F 	0.83338 0.11345 0.79409 -0.37300
C 	C 	0.86538 0.65475 0.86369 0.03300
C 	C 	0.82281 0.65724 0.84354 0.10600
C 	C 	0.84080 0.60332 0.88303 -0.04400
C 	C 	0.85309 0.70500 0.82211 0.09500
C 	C 	0.86280 0.78333 0.82207 -0.08200
C 	C 	0.89075 0.82611 0.80110 0.08500
C 	C 	0.87527 0.67226 0.80214 0.04800
C 	C 	0.84700 0.82219 0.84484 0.78800
H 	H 	0.86844 0.61251 0.80260 0.13800
F 	F 	0.85174 0.89579 0.83994 -0.36600
F 	F 	0.89264 0.82505 0.86411 -0.39200
C 	C 	0.11586 0.60925 0.28641 0.79000
F 	F 	0.02208 0.51707 0.58197 -0.39800
C 	C 	0.04949 0.15624 0.79881 -0.03500
F 	F 	0.88757 0.66204 0.74080 -0.39800
C 	C 	0.82821 0.57354 0.54520 -0.04900
O 	O 	0.85039 0.34286 0.49245 -0.34500
H 	H 	0.89664 0.88555 0.80045 0.13300
C 	C 	0.86780 0.39058 0.47364 0.30200
O 	O 	0.84922 0.95455 0.23337 -0.35200
F 	F 	0.87801 0.24738 0.09855 -0.37000
C 	C 	0.81343 0.04288 0.62892 0.12900
C 	C 	0.93027 0.14159 0.60028 0.78900
C 	C 	0.84947 0.52129 0.53188 0.00600
C 	C 	0.90371 0.26057 0.87643 -0.06500
F 	F 	0.86483 0.26826 0.79303 -0.37000
C 	C 	0.88857 0.60015 0.90433 0.77400
C 	C 	0.91027 0.79242 0.78066 0.03000
C 	C 	0.90620 0.71596 0.78175 -0.05500
F 	F 	0.88983 0.52755 0.90588 -0.40000
F 	F 	0.86696 0.62007 0.92656 -0.41600
F 	F 	0.14104 0.55859 0.29756 -0.38100
F 	F 	0.15334 0.63736 0.26559 -0.38000
H 	H 	0.86295 0.57616 0.97915 0.11700
F 	F 	0.06393 0.03754 0.79630 -0.40600
F 	F 	0.94175 0.61437 0.76868 -0.35700
O 	O 	0.89663 0.81357 0.73716 -0.30000
O 	O 	0.91145 0.00233 0.14520 -0.28300
F 	F 	0.97751 0.20198 0.58857 -0.37000
C 	C 	0.92542 0.20823 0.83722 0.07300
H 	H 	0.91833 0.69168 0.86385 0.14200
C 	C 	0.93305 0.68016 0.76097 0.77700
C 	C 	0.04078 0.74869 0.20599 0.77900
H 	H 	0.85459 0.65787 0.57517 0.14600
C 	C 	0.87642 0.46952 0.97187 0.01900
O 	O 	0.90429 0.78771 0.20591 -0.27500
O 	O 	0.88536 0.87297 0.68977 -0.34700
C 	C 	0.93269 0.83694 0.75804 0.29900
H 	H 	0.92800 0.23563 0.13756 0.14000
C 	C 	0.74915 0.02059 0.13599 0.81800
F 	F 	0.72084 0.97928 0.15666 -0.39800
F 	F 	0.70625 0.05615 0.12719 -0.36600
C 	C 	0.82677 0.05701 0.65490 -0.11300
C 	C 	0.85376 0.94212 0.65736 -0.02700
C 	C 	0.87129 0.61986 0.56408 0.04300
C 	C 	0.91396 0.51844 0.53683 0.06900
C 	C 	0.89847 0.54665 0.97918 0.00300
C 	C 	0.94828 0.25913 0.85759 0.08900
C 	C 	0.93161 0.30836 0.89997 0.78200
F 	F 	0.92921 0.38008 0.89703 -0.38500
C 	C 	0.90065 0.90979 0.66888 0.30600
H 	H 	0.91273 0.53553 0.45794 0.06300
F 	F 	0.75385 0.12216 0.66600 -0.37400
C 	C 	0.93450 0.30397 0.79230 0.79800
C 	C 	0.94185 0.28924 0.09012 0.78300
F 	F 	0.94017 0.35743 0.08160 -0.36500
H 	H 	0.88343 0.71791 0.26773 0.14700
Ni	Ni	0.93859 0.80851 0.70269 1.13000
Ni	Ni	0.94659 0.04760 0.17998 1.12700
O 	O 	0.95399 0.15199 0.16886 -0.28400
O 	O 	0.94572 0.94700 0.19373 -0.70600
O 	O 	0.92873 0.86071 0.24249 -0.32000
H 	H 	0.92501 0.09134 0.22177 0.24500
F 	F 	0.81044 0.07665 0.14299 -0.41200
C 	C 	0.93913 0.44205 0.47158 -0.06100
C 	C 	0.84587 0.00517 0.66901 0.11500
F 	F 	0.94902 0.14691 0.62534 -0.39200
H 	H 	0.92893 0.47692 0.52689 0.08600
C 	C 	0.92308 0.43210 0.97219 -0.01200
H 	H 	0.90656 0.37238 0.96693 0.13000
F 	F 	0.95442 0.64958 0.90101 -0.38900
C 	C 	0.93463 0.80537 0.22838 0.30600
F 	F 	0.93553 0.62221 0.67196 -0.38100
F 	F 	0.94998 0.34369 0.77035 -0.36100
C 	C 	0.97255 0.21082 0.81699 0.14500
F 	F 	0.95652 0.35598 0.81198 -0.39200
Ni	Ni	0.94893 0.96875 0.23025 1.11600
O 	O 	0.96100 0.07331 0.21615 -0.67200
F 	F 	0.99137 0.68868 0.19353 -0.35300
C 	C 	0.95357 0.51532 0.46234 0.07600
C 	C 	0.82065 0.12680 0.66749 0.79400
C 	C 	0.93553 0.61639 0.56929 0.08600
H 	H 	0.94858 0.56522 0.61487 0.14800
C 	C 	0.96847 0.24567 0.79411 -0.11100
O 	O 	0.97521 0.90763 0.76060 -0.28500
O 	O 	0.95701 0.78171 0.66697 -0.27200
F 	F 	0.86101 0.19211 0.65598 -0.36900
C 	C 	0.95809 0.56660 0.55511 -0.06700
F 	F 	0.99542 0.72978 0.75355 -0.41500
F 	F 	0.95531 0.24934 0.07043 -0.39200
F 	F 	0.95586 0.79131 0.55858 -0.36700
F 	F 	0.01658 0.46949 0.11406 -0.37300
F 	F 	0.87337 0.62654 0.30195 -0.36800
O 	O 	0.96841 0.01268 0.26609 -0.25600
H 	H 	0.85957 0.01667 0.68865 0.07600
C 	C 	0.93337 0.71957 0.26287 0.06300
C 	C 	0.96760 0.58743 0.98446 0.09700
O 	O 	0.95842 0.91948 0.65833 -0.30700
H 	H 	0.98713 0.93745 0.18926 0.22100
C 	C 	0.98064 0.26622 0.13337 0.09800
F 	F 	0.89767 0.11842 0.27166 -0.41200
C 	C 	0.96085 0.75141 0.24030 0.07200
H 	H 	0.98255 0.36252 0.48612 0.09900
C 	C 	0.97330 0.62638 0.61387 0.02600
F 	F 	0.99844 0.31572 0.90477 -0.39200
C 	C 	0.97650 0.66157 0.59077 0.15000
H 	H 	0.00075 0.29772 0.85873 0.09300
F 	F 	0.99965 0.55983 0.65680 -0.34900
F 	F 	0.84072 0.13298 0.69246 -0.38600
C 	C 	0.99568 0.63088 0.66048 0.79000
H 	H 	0.98431 0.24157 0.75448 0.11300
H 	H 	0.98466 0.64777 0.98883 0.10700
H 	H 	0.98460 0.03948 0.69096 0.21700
O 	O 	0.98716 0.06168 0.74979 -0.27800
C 	C 	0.99667 0.30313 0.11051 -0.05500
F 	F 	0.04909 0.56934 0.27899 -0.36800
C 	C 	0.99287 0.41827 0.47843 0.09200
Ni	Ni	0.00509 0.97760 0.73079 1.08800
C 	C 	0.99522 0.22414 0.77278 0.13000
C 	C 	0.01745 0.17183 0.81971 -0.00500
H 	H 	0.02387 0.14943 0.83773 0.13600
F 	F 	0.99074 0.32026 0.40926 -0.38400
C 	C 	0.99779 0.67009 0.63584 -0.01700
C 	C 	0.01256 0.20947 0.17103 0.26900
