data_crystal

_cell_length_a 38.75288
_cell_length_b 36.69413
_cell_length_c 31.86840
_cell_angle_alpha 104.42464
_cell_angle_beta  116.12416
_cell_angle_gamma 110.56074

_symmetry_space_group_name_	'P 1'
_symmetry_space_group_name_H-M	'P 1'

loop_
_symmetry_equiv_pos_as_xyz
  x,y,z

loop_
_atom_site_label
_atom_site_type_symbol
_atom_site_fract_x
_atom_site_fract_y
_atom_site_fract_z
_atom_site_charge
C 	C 	0.25772 0.11473 0.89013 0.00100
C 	C 	0.27372 0.15674 0.89292 -0.06000
C 	C 	0.31249 0.17690 0.89332 0.00000
C 	C 	0.33405 0.15349 0.88934 -0.06000
C 	C 	0.31879 0.11202 0.88792 -0.00100
C 	C 	0.27662 0.09043 0.87959 -0.06100
H 	H 	0.25680 0.17389 0.89651 0.03400
H 	H 	0.36474 0.16905 0.89174 0.03200
H 	H 	0.25881 0.05516 0.86517 0.03200
C 	C 	0.28061 0.12757 0.40856 0.00000
C 	C 	0.29424 0.16723 0.40532 -0.06100
C 	C 	0.33362 0.18735 0.40703 0.00000
C 	C 	0.35567 0.16423 0.40485 -0.06100
C 	C 	0.34265 0.12471 0.40833 -0.00100
C 	C 	0.30252 0.10471 0.40493 -0.06100
H 	H 	0.27399 0.18179 0.40050 0.03300
H 	H 	0.38401 0.17815 0.40272 0.03200
H 	H 	0.29128 0.07358 0.40556 0.03100
C 	C 	0.23661 0.38900 0.00147 0.00500
C 	C 	0.21391 0.41125 0.00469 -0.05500
C 	C 	0.17225 0.38941 0.99750 -0.00700
C 	C 	0.15923 0.34989 0.00049 -0.05000
C 	C 	0.18109 0.32664 0.99756 -0.00400
C 	C 	0.22037 0.34695 0.99905 -0.06300
H 	H 	0.22893 0.44548 0.01395 0.03500
H 	H 	0.13096 0.33671 0.00284 0.03300
H 	H 	0.23763 0.32969 0.99709 0.03300
C 	C 	0.25951 0.40090 0.51539 0.00000
C 	C 	0.23551 0.42221 0.51638 -0.06000
C 	C 	0.19611 0.40169 0.51417 0.00100
C 	C 	0.18620 0.36438 0.52200 -0.06000
C 	C 	0.20658 0.34020 0.51633 0.00000
C 	C 	0.24416 0.35938 0.51453 -0.06000
H 	H 	0.24624 0.45384 0.51713 0.03400
H 	H 	0.16360 0.35494 0.53351 0.03400
H 	H 	0.26064 0.34156 0.51105 0.03300
Zn	Zn	0.10308 0.58500 0.00674 1.18300
Zn	Zn	0.02765 0.55489 0.89668 1.19400
O 	O 	0.01289 0.47297 0.80781 -0.46500
O 	O 	0.00654 0.53404 0.81939 -0.44000
O 	O 	0.00793 0.41965 0.88008 -0.49500
C 	C 	0.13649 0.56027 0.94965 0.27200
O 	O 	0.98184 0.49607 0.87717 -0.88100
C 	C 	0.10868 0.64918 0.96795 0.28800
O 	O 	0.14918 0.58214 0.99835 -0.46900
O 	O 	0.09384 0.52874 0.91256 -0.36500
O 	O 	0.04237 0.56224 0.96963 -0.77600
O 	O 	0.05340 0.48137 0.96087 -0.45300
O 	O 	0.07739 0.61483 0.91928 -0.45700
O 	O 	0.11970 0.64376 0.01036 -0.46400
Zn	Zn	0.90069 0.42839 0.90417 1.17000
Zn	Zn	0.97987 0.44885 0.99917 1.17900
Zn	Zn	0.99910 0.50287 0.94674 1.21300
C 	C 	0.89929 0.35718 0.93516 0.29500
C 	C 	0.87978 0.45560 0.97507 0.28300
O 	O 	0.94488 0.52683 0.93249 -0.46000
Zn	Zn	0.98771 0.53203 0.03853 1.19600
O 	O 	0.94220 0.38560 0.97624 -0.46800
O 	O 	0.87663 0.36880 0.90177 -0.47100
O 	O 	0.86858 0.44771 0.92707 -0.49400
O 	O 	0.92200 0.47053 0.01330 -0.45900
C 	C 	0.01254 0.50235 0.11514 0.29100
O 	O 	0.95709 0.44312 0.92460 -0.81300
C 	C 	0.94385 0.55600 0.96536 0.28500
O 	O 	0.00189 0.46574 0.07796 -0.42400
O 	O 	0.01754 0.53735 0.10854 -0.46800
O 	O 	0.96189 0.56344 0.01466 -0.49600
O 	O 	0.01556 0.50934 0.01558 -0.89100
Zn	Zn	0.98930 0.45152 0.84616 1.18000
C 	C 	0.00995 0.50297 0.79326 0.28300
C 	C 	0.04312 0.44219 0.93009 0.29200
H 	H 	0.04841 0.52349 0.04273 0.16100
H 	H 	0.95053 0.48922 0.85455 0.14300
Zn	Zn	0.12531 0.59640 0.52182 1.18200
Zn	Zn	0.04979 0.56761 0.41311 1.19300
O 	O 	0.03456 0.48709 0.32304 -0.48200
O 	O 	0.02700 0.54741 0.33521 -0.43900
O 	O 	0.03441 0.43445 0.39677 -0.49700
C 	C 	0.15747 0.56802 0.46449 0.27900
O 	O 	0.00469 0.50847 0.39365 -0.86400
C 	C 	0.13142 0.66185 0.48407 0.29000
O 	O 	0.17041 0.59079 0.51309 -0.46700
O 	O 	0.11405 0.53997 0.42678 -0.37400
O 	O 	0.06478 0.57470 0.48618 -0.77400
O 	O 	0.07847 0.49597 0.47760 -0.45700
O 	O 	0.09827 0.62814 0.43536 -0.45500
O 	O 	0.14390 0.65575 0.52616 -0.46600
Zn	Zn	0.92437 0.43956 0.41919 1.17000
Zn	Zn	0.00343 0.45877 0.51363 1.18900
Zn	Zn	0.02225 0.51477 0.46301 1.21800
C 	C 	0.92219 0.36761 0.44915 0.29600
C 	C 	0.90348 0.46642 0.49008 0.29000
O 	O 	0.96687 0.53723 0.44951 -0.46000
Zn	Zn	0.01134 0.54189 0.55573 1.20400
O 	O 	0.96567 0.39512 0.48892 -0.46700
O 	O 	0.89975 0.37978 0.41639 -0.47000
O 	O 	0.89243 0.45909 0.44225 -0.49300
O 	O 	0.94520 0.47946 0.52760 -0.46900
C 	C 	0.03399 0.50907 0.62931 0.35300
O 	O 	0.98094 0.45446 0.43988 -0.81600
C 	C 	0.96294 0.56286 0.48238 0.29300
O 	O 	0.02453 0.47363 0.59164 -0.43900
O 	O 	0.04003 0.54500 0.62462 -0.47800
O 	O 	0.98468 0.57274 0.53265 -0.50600
O 	O 	0.03903 0.52000 0.53164 -0.89600
Zn	Zn	0.01298 0.46478 0.36234 1.18700
C 	C 	0.02719 0.51476 0.30636 0.33800
C 	C 	0.07022 0.45816 0.44641 0.29500
H 	H 	0.07190 0.53406 0.55860 0.16300
H 	H 	0.97320 0.50121 0.37112 0.13700
C 	C 	0.01587 0.50472 0.75120 -0.01100
C 	C 	0.99278 0.46559 0.70388 -0.09100
C 	C 	0.00075 0.46653 0.66534 0.07300
C 	C 	0.03247 0.50655 0.67403 -0.17400
C 	C 	0.05714 0.54553 0.72272 0.20900
C 	C 	0.04783 0.54466 0.76031 -0.11700
H 	H 	0.98115 0.43642 0.62797 0.00700
H 	H 	0.06630 0.57490 0.79715 0.06800
H 	H 	0.96822 0.43450 0.69666 0.03400
O 	O 	0.09155 0.58397 0.73447 -0.30700
H 	H 	0.07796 0.60168 0.72533 0.14500
C 	C 	0.01419 0.50261 0.16210 -0.02200
C 	C 	0.04240 0.49186 0.19522 -0.05000
C 	C 	0.04703 0.49638 0.24261 0.02900
C 	C 	0.02318 0.51146 0.25712 -0.15300
C 	C 	0.99412 0.52141 0.22318 0.18600
C 	C 	0.98979 0.51696 0.17596 -0.11400
H 	H 	0.06930 0.48837 0.26816 0.02400
H 	H 	0.96764 0.52500 0.15023 0.06100
H 	H 	0.06149 0.48091 0.18489 0.03800
O 	O 	0.96837 0.53347 0.23479 -0.31100
H 	H 	0.98638 0.56639 0.25414 0.14300
C 	C 	0.17063 0.25898 0.45255 -0.08800
C 	C 	0.18616 0.29215 0.50785 0.03700
C 	C 	0.12358 0.22757 0.49965 -0.04400
C 	C 	0.15162 0.20880 0.49218 -0.05200
C 	C 	0.15111 0.21070 0.44373 -0.04400
H 	H 	0.14444 0.26053 0.42035 0.04100
H 	H 	0.19943 0.26813 0.44905 0.03900
H 	H 	0.12291 0.22645 0.53391 0.02900
H 	H 	0.08781 0.20676 0.46365 0.02800
H 	H 	0.11591 0.18925 0.40670 0.04200
H 	H 	0.17144 0.19773 0.43757 0.03300
C 	C 	0.20156 0.23974 0.54266 -0.04300
H 	H 	0.22261 0.22688 0.53856 0.02800
H 	H 	0.20337 0.24014 0.57862 0.03300
C 	C 	0.22172 0.28797 0.55141 -0.08900
H 	H 	0.23335 0.31107 0.59150 0.03300
H 	H 	0.25215 0.29756 0.55109 0.03500
C 	C 	0.14385 0.27590 0.50958 -0.08800
H 	H 	0.15358 0.29736 0.54930 0.03700
H 	H 	0.11704 0.27795 0.47884 0.03900
C 	C 	0.34247 0.42545 0.55462 -0.08800
C 	C 	0.29880 0.41978 0.50955 0.03600
C 	C 	0.35180 0.48368 0.50603 -0.04500
C 	C 	0.36612 0.44965 0.49798 -0.05200
C 	C 	0.38123 0.44200 0.54736 -0.04400
H 	H 	0.35385 0.44949 0.59405 0.03800
H 	H 	0.33569 0.39358 0.55515 0.03700
H 	H 	0.34116 0.49047 0.47170 0.03300
H 	H 	0.38111 0.51573 0.54238 0.02900
H 	H 	0.41146 0.47335 0.58403 0.04100
H 	H 	0.39133 0.41717 0.54259 0.03600
C 	C 	0.32374 0.40498 0.44812 -0.04500
H 	H 	0.33315 0.37993 0.44092 0.03200
H 	H 	0.31094 0.40932 0.41202 0.03400
C 	C 	0.28513 0.38733 0.45519 -0.08800
H 	H 	0.25402 0.38261 0.42206 0.03900
H 	H 	0.27692 0.35409 0.45198 0.03900
C 	C 	0.31223 0.46611 0.51159 -0.08800
H 	H 	0.28275 0.46355 0.47853 0.03800
H 	H 	0.32246 0.49075 0.54993 0.03800
C 	C 	0.18321 0.46520 0.53886 -0.09100
C 	C 	0.16207 0.41695 0.49721 0.03800
C 	C 	0.08335 0.40218 0.47063 -0.04000
C 	C 	0.10399 0.44402 0.46573 -0.06100
C 	C 	0.14919 0.48073 0.52095 -0.04000
H 	H 	0.19322 0.46701 0.57820 0.03800
H 	H 	0.21448 0.48851 0.54450 0.03900
H 	H 	0.05151 0.37476 0.43142 0.03400
H 	H 	0.07425 0.40925 0.49905 0.01800
H 	H 	0.14243 0.48923 0.55142 0.02000
H 	H 	0.16476 0.51147 0.51882 0.03200
C 	C 	0.11536 0.43240 0.42512 -0.04200
H 	H 	0.13085 0.46217 0.42128 0.03300
H 	H 	0.08394 0.40616 0.38492 0.03400
C 	C 	0.14826 0.41588 0.44276 -0.08900
H 	H 	0.13196 0.38144 0.41178 0.04100
H 	H 	0.17847 0.43709 0.44512 0.04000
C 	C 	0.11730 0.38701 0.49006 -0.09000
H 	H 	0.10082 0.35183 0.46086 0.04100
H 	H 	0.12504 0.38850 0.52869 0.03800
C 	C 	0.17696 0.22797 0.02738 -0.04000
C 	C 	0.12807 0.19582 0.97519 -0.05400
C 	C 	0.11700 0.26089 0.98742 -0.09100
C 	C 	0.16115 0.27869 0.98944 0.03600
C 	C 	0.19616 0.27600 0.03556 -0.08700
H 	H 	0.17712 0.22819 0.06246 0.03400
H 	H 	0.19955 0.21635 0.02587 0.03000
H 	H 	0.09038 0.26131 0.95428 0.03900
H 	H 	0.12421 0.28241 0.02544 0.04000
H 	H 	0.20528 0.29875 0.07425 0.03700
H 	H 	0.22801 0.28697 0.03819 0.03800
C 	C 	0.14887 0.24581 0.93611 -0.08900
H 	H 	0.17912 0.25592 0.93536 0.03900
H 	H 	0.12328 0.24643 0.90214 0.04100
C 	C 	0.12992 0.19772 0.92799 -0.04300
H 	H 	0.09547 0.17549 0.88978 0.04100
H 	H 	0.15169 0.18566 0.92449 0.03300
C 	C 	0.09786 0.21298 0.97887 -0.04600
H 	H 	0.06269 0.19103 0.94173 0.02700
H 	H 	0.09579 0.21209 0.01240 0.03100
C 	C 	0.28812 0.45374 0.99644 -0.09000
C 	C 	0.27569 0.40786 0.99534 0.03100
C 	C 	0.30114 0.39239 0.93447 -0.04600
C 	C 	0.34250 0.43823 0.98305 -0.05300
C 	C 	0.32595 0.47063 0.98815 -0.04900
H 	H 	0.25775 0.45096 0.96451 0.03800
H 	H 	0.29998 0.47900 0.03545 0.04200
H 	H 	0.31176 0.36807 0.92983 0.03200
H 	H 	0.28807 0.39483 0.89707 0.03400
H 	H 	0.31239 0.47386 0.95131 0.03400
H 	H 	0.35473 0.50418 0.02213 0.03300
C 	C 	0.35871 0.43269 0.03397 -0.04200
H 	H 	0.38760 0.46518 0.06982 0.04200
H 	H 	0.37112 0.40962 0.03160 0.04000
C 	C 	0.31978 0.41452 0.04072 -0.08500
H 	H 	0.31374 0.38268 0.04102 0.03900
H 	H 	0.33047 0.43801 0.08004 0.04200
C 	C 	0.26228 0.37508 0.94125 -0.08700
H 	H 	0.25393 0.34188 0.93825 0.03800
H 	H 	0.23132 0.37032 0.90783 0.04000
C 	C 	0.11947 0.45919 0.95255 -0.04200
C 	C 	0.07736 0.42841 0.94832 -0.06400
C 	C 	0.09284 0.36667 0.92630 -0.09100
C 	C 	0.13854 0.40499 0.98023 0.03900
C 	C 	0.15527 0.44615 0.97171 -0.09400
H 	H 	0.10927 0.45716 0.91309 0.03600
H 	H 	0.13488 0.49423 0.98111 0.03400
H 	H 	0.07843 0.33630 0.92954 0.04000
H 	H 	0.09875 0.35765 0.89511 0.04200
H 	H 	0.16287 0.43899 0.94183 0.04100
H 	H 	0.18692 0.47519 0.00974 0.04100
C 	C 	0.12858 0.41760 0.02226 -0.09000
H 	H 	0.16054 0.44537 0.06106 0.03900
H 	H 	0.11545 0.38926 0.02928 0.04000
C 	C 	0.09315 0.43144 0.00378 -0.03700
H 	H 	0.06346 0.40956 0.00193 0.01800
H 	H 	0.10840 0.46593 0.03378 0.01900
C 	C 	0.05729 0.38004 0.90820 -0.03800
H 	H 	0.02704 0.35682 0.90449 0.03200
H 	H 	0.04585 0.37661 0.86791 0.03400
C 	C 	0.45196 0.11695 0.45076 -0.04000
C 	C 	0.43121 0.07907 0.46154 -0.05900
C 	C 	0.39001 0.11352 0.48276 -0.09000
C 	C 	0.37568 0.10846 0.42673 0.03800
C 	C 	0.42025 0.13473 0.43161 -0.09000
H 	H 	0.48571 0.14450 0.48765 0.02500
H 	H 	0.45745 0.10476 0.41998 0.02000
H 	H 	0.35996 0.09414 0.48175 0.03800
H 	H 	0.40661 0.14891 0.51145 0.04000
H 	H 	0.43909 0.17050 0.46066 0.03900
H 	H 	0.41185 0.13209 0.39237 0.03700
C 	C 	0.35279 0.05856 0.38787 -0.09000
H 	H 	0.34365 0.05432 0.34789 0.03600
H 	H 	0.32083 0.03747 0.38239 0.03500
C 	C 	0.38468 0.04128 0.40883 -0.04300
H 	H 	0.36844 0.01382 0.41552 0.02900
H 	H 	0.38937 0.02728 0.37791 0.01800
C 	C 	0.42269 0.09735 0.50325 -0.03900
H 	H 	0.40829 0.07109 0.51255 0.03200
H 	H 	0.45525 0.12551 0.54119 0.03700
C 	C 	0.36162 0.23899 0.37316 -0.08900
C 	C 	0.35605 0.23596 0.41797 0.03700
C 	C 	0.42853 0.31323 0.48368 -0.04200
C 	C 	0.39842 0.32012 0.43833 -0.05300
C 	C 	0.38651 0.28785 0.38526 -0.04300
H 	H 	0.38117 0.22428 0.36854 0.03700
H 	H 	0.32768 0.21970 0.33434 0.03600
H 	H 	0.43731 0.33569 0.52233 0.03800
H 	H 	0.46094 0.32188 0.48809 0.03800
H 	H 	0.41803 0.29612 0.38754 0.02600
H 	H 	0.36458 0.29165 0.35177 0.02700
C 	C 	0.35378 0.30722 0.43364 -0.04400
H 	H 	0.33089 0.31112 0.40103 0.03400
H 	H 	0.36112 0.32973 0.47123 0.03000
C 	C 	0.32919 0.25849 0.42193 -0.08800
H 	H 	0.32503 0.25819 0.45428 0.03800
H 	H 	0.29480 0.23987 0.38385 0.03700
C 	C 	0.40399 0.26457 0.47195 -0.08900
H 	H 	0.40090 0.26374 0.50486 0.04000
H 	H 	0.42544 0.25096 0.47169 0.03900
C 	C 	0.22656 0.14173 0.42824 -0.08600
C 	C 	0.24676 0.11208 0.42298 0.03600
C 	C 	0.23775 0.09571 0.49269 -0.04400
C 	C 	0.18978 0.08343 0.44943 -0.05000
C 	C 	0.19366 0.12508 0.44365 -0.04900
H 	H 	0.25427 0.17665 0.45924 0.03800
H 	H 	0.20774 0.14153 0.38978 0.03900
H 	H 	0.23600 0.06621 0.49750 0.02800
H 	H 	0.25114 0.12202 0.53190 0.03600
H 	H 	0.20600 0.15200 0.48176 0.03500
H 	H 	0.15968 0.11727 0.41266 0.03900
C 	C 	0.17303 0.04715 0.39548 -0.04600
H 	H 	0.13877 0.03779 0.36328 0.04300
H 	H 	0.17001 0.01668 0.39829 0.02900
C 	C 	0.20597 0.06383 0.37999 -0.08800
H 	H 	0.21769 0.04054 0.37469 0.03600
H 	H 	0.18744 0.06267 0.34081 0.03900
C 	C 	0.27088 0.11255 0.47753 -0.08800
H 	H 	0.28533 0.09127 0.47632 0.03700
H 	H 	0.29973 0.14686 0.50928 0.03900
C 	C 	0.42910 0.11756 0.98517 -0.04700
C 	C 	0.41107 0.07076 0.94313 -0.05800
C 	C 	0.33085 0.05192 0.90879 -0.08800
C 	C 	0.35192 0.09602 0.90703 0.03800
C 	C 	0.39458 0.13190 0.96457 -0.08700
H 	H 	0.43574 0.11780 0.02299 0.04200
H 	H 	0.46189 0.14221 0.99475 0.02600
H 	H 	0.30111 0.02469 0.86806 0.03400
H 	H 	0.31899 0.05591 0.93476 0.03700
H 	H 	0.38424 0.13787 0.99187 0.03900
H 	H 	0.41176 0.16409 0.96595 0.03800
C 	C 	0.36815 0.08784 0.87064 -0.09200
H 	H 	0.38476 0.11854 0.86901 0.03700
H 	H 	0.33843 0.06207 0.82920 0.03500
C 	C 	0.40236 0.07271 0.89143 -0.03800
H 	H 	0.38857 0.03951 0.85994 0.01600
H 	H 	0.43487 0.09614 0.89942 0.01600
C 	C 	0.36533 0.03788 0.93029 -0.04300
H 	H 	0.35132 0.00391 0.90024 0.02700
H 	H 	0.37068 0.03676 0.96707 0.03300
C 	C 	0.33114 0.29610 0.91904 -0.04400
C 	C 	0.37615 0.30970 0.92455 -0.05200
C 	C 	0.38253 0.25448 0.95859 -0.08700
C 	C 	0.33469 0.22559 0.90454 0.03700
C 	C 	0.30738 0.24761 0.90824 -0.08900
H 	H 	0.33789 0.31871 0.95612 0.03000
H 	H 	0.30799 0.29923 0.88573 0.03400
H 	H 	0.40436 0.24138 0.95843 0.03800
H 	H 	0.37943 0.25331 0.99140 0.03900
H 	H 	0.30401 0.24798 0.94125 0.03800
H 	H 	0.27270 0.22831 0.87046 0.03900
C 	C 	0.34033 0.22881 0.85981 -0.08900
H 	H 	0.30640 0.20944 0.82094 0.03600
H 	H 	0.36000 0.21423 0.85526 0.03700
C 	C 	0.36502 0.27767 0.87192 -0.04300
H 	H 	0.39686 0.28628 0.87487 0.02500
H 	H 	0.34323 0.28130 0.83815 0.02600
C 	C 	0.40642 0.30325 0.97035 -0.04700
H 	H 	0.43919 0.31265 0.97547 0.03800
H 	H 	0.41446 0.32537 0.00865 0.04300
C 	C 	0.21354 0.11986 0.97979 -0.04900
C 	C 	0.16907 0.07463 0.93465 -0.04700
C 	C 	0.17923 0.09395 0.86728 -0.08700
C 	C 	0.22493 0.09899 0.90579 0.03700
C 	C 	0.24621 0.13370 0.96336 -0.08700
H 	H 	0.20560 0.14591 0.98898 0.03400
H 	H 	0.23072 0.11767 0.01688 0.03900
H 	H 	0.16298 0.06906 0.82581 0.05100
H 	H 	0.18472 0.12572 0.86712 0.04600
H 	H 	0.25456 0.16695 0.96654 0.03800
H 	H 	0.27857 0.13729 0.99201 0.03800
C 	C 	0.21352 0.05336 0.90520 -0.08700
H 	H 	0.24520 0.05515 0.93234 0.03700
H 	H 	0.19648 0.02689 0.86431 0.03800
C 	C 	0.18168 0.03969 0.92273 -0.04600
H 	H 	0.15051 0.00672 0.89054 0.03300
H 	H 	0.19859 0.03603 0.95872 0.02600
C 	C 	0.14670 0.07933 0.88376 -0.05000
H 	H 	0.11535 0.04703 0.85023 0.04900
H 	H 	0.13666 0.10392 0.89080 0.03900
C 	C 	0.25772 0.61473 0.89013 0.00300
C 	C 	0.27372 0.65674 0.89292 -0.05900
C 	C 	0.31249 0.67690 0.89332 0.00100
C 	C 	0.33405 0.65349 0.88934 -0.05900
C 	C 	0.31879 0.61202 0.88792 0.00100
C 	C 	0.27662 0.59043 0.87959 -0.05900
H 	H 	0.25680 0.67389 0.89651 0.03500
H 	H 	0.36474 0.66905 0.89174 0.03300
H 	H 	0.25881 0.55516 0.86517 0.03500
C 	C 	0.28061 0.62757 0.40856 0.00200
C 	C 	0.29424 0.66723 0.40532 -0.06000
C 	C 	0.33362 0.68735 0.40703 0.00100
C 	C 	0.35567 0.66423 0.40485 -0.06000
C 	C 	0.34265 0.62471 0.40833 0.00100
C 	C 	0.30252 0.60471 0.40493 -0.05900
H 	H 	0.27399 0.68179 0.40050 0.03400
H 	H 	0.38401 0.67815 0.40272 0.03400
H 	H 	0.29128 0.57359 0.40556 0.03400
C 	C 	0.23661 0.88900 0.00147 0.00700
C 	C 	0.21391 0.91125 0.00469 -0.05400
C 	C 	0.17225 0.88941 0.99750 -0.00800
C 	C 	0.15923 0.84989 0.00049 -0.04900
C 	C 	0.18109 0.82664 0.99756 -0.00400
C 	C 	0.22037 0.84695 0.99905 -0.06200
H 	H 	0.22893 0.94547 0.01395 0.03600
H 	H 	0.13096 0.83671 0.00284 0.03300
H 	H 	0.23763 0.82969 0.99709 0.03300
C 	C 	0.25951 0.90090 0.51539 0.00000
C 	C 	0.23551 0.92221 0.51638 -0.05900
C 	C 	0.19611 0.90168 0.51417 0.00100
C 	C 	0.18620 0.86438 0.52200 -0.06000
C 	C 	0.20658 0.84020 0.51633 0.00000
C 	C 	0.24416 0.85938 0.51453 -0.05900
H 	H 	0.24624 0.95384 0.51713 0.03500
H 	H 	0.16360 0.85494 0.53351 0.03400
H 	H 	0.26064 0.84156 0.51105 0.03300
Zn	Zn	0.10308 0.08500 0.00674 1.18200
Zn	Zn	0.02765 0.05489 0.89668 1.19200
O 	O 	0.01289 0.97297 0.80781 -0.45100
O 	O 	0.00654 0.03404 0.81939 -0.44100
O 	O 	0.00793 0.91965 0.88008 -0.49300
C 	C 	0.13649 0.06027 0.94965 0.27200
O 	O 	0.98184 0.99607 0.87717 -0.87200
C 	C 	0.10868 0.14918 0.96795 0.28800
O 	O 	0.14918 0.08214 0.99835 -0.47200
O 	O 	0.09384 0.02874 0.91256 -0.37200
O 	O 	0.04237 0.06225 0.96963 -0.77900
O 	O 	0.05340 0.98137 0.96087 -0.44600
O 	O 	0.07739 0.11483 0.91928 -0.45700
O 	O 	0.11970 0.14376 0.01036 -0.46400
Zn	Zn	0.90069 0.92839 0.90417 1.17100
Zn	Zn	0.97987 0.94885 0.99917 1.18100
Zn	Zn	0.99910 0.00286 0.94674 1.20700
C 	C 	0.89929 0.85718 0.93516 0.29500
C 	C 	0.87978 0.95560 0.97507 0.28600
O 	O 	0.94488 0.02683 0.93249 -0.46600
Zn	Zn	0.98771 0.03203 0.03853 1.19400
O 	O 	0.94220 0.88560 0.97624 -0.46800
O 	O 	0.87662 0.86880 0.90177 -0.47000
O 	O 	0.86858 0.94771 0.92707 -0.48900
O 	O 	0.92200 0.97053 0.01330 -0.45200
C 	C 	0.01254 0.00235 0.11514 0.27700
O 	O 	0.95709 0.94312 0.92460 -0.80800
C 	C 	0.94385 0.05600 0.96536 0.28600
O 	O 	0.00189 0.96574 0.07796 -0.41100
O 	O 	0.01754 0.03735 0.10854 -0.46800
O 	O 	0.96189 0.06344 0.01466 -0.49900
O 	O 	0.01556 0.00934 0.01558 -0.89800
Zn	Zn	0.98930 0.95152 0.84616 1.18100
C 	C 	0.00995 0.00297 0.79326 0.26900
C 	C 	0.04312 0.94219 0.93009 0.29100
H 	H 	0.04841 0.02349 0.04273 0.15800
H 	H 	0.95053 0.98922 0.85455 0.14700
Zn	Zn	0.12531 0.09640 0.52182 1.18100
Zn	Zn	0.04979 0.06761 0.41311 1.19200
O 	O 	0.03456 0.98709 0.32304 -0.46500
O 	O 	0.02700 0.04741 0.33521 -0.43800
O 	O 	0.03441 0.93445 0.39677 -0.49500
C 	C 	0.15747 0.06802 0.46449 0.27900
O 	O 	0.00469 0.00847 0.39365 -0.87000
C 	C 	0.13142 0.16185 0.48407 0.29000
O 	O 	0.17041 0.09079 0.51309 -0.46900
O 	O 	0.11405 0.03997 0.42678 -0.38000
O 	O 	0.06478 0.07470 0.48618 -0.77600
O 	O 	0.07847 0.99597 0.47760 -0.44800
O 	O 	0.09827 0.12814 0.43536 -0.45600
O 	O 	0.14390 0.15575 0.52616 -0.46700
Zn	Zn	0.92437 0.93956 0.41919 1.17200
Zn	Zn	0.00343 0.95877 0.51363 1.19100
Zn	Zn	0.02225 0.01477 0.46301 1.21500
C 	C 	0.92219 0.86761 0.44915 0.29500
C 	C 	0.90348 0.96642 0.49008 0.29300
O 	O 	0.96687 0.03723 0.44951 -0.46400
Zn	Zn	0.01134 0.04189 0.55573 1.20200
O 	O 	0.96566 0.89512 0.48892 -0.46700
O 	O 	0.89975 0.87978 0.41639 -0.47000
O 	O 	0.89243 0.95909 0.44225 -0.48800
O 	O 	0.94520 0.97946 0.52760 -0.46300
C 	C 	0.03399 0.00907 0.62931 0.33800
O 	O 	0.98094 0.95446 0.43988 -0.80900
C 	C 	0.96294 0.06286 0.48238 0.29300
O 	O 	0.02453 0.97363 0.59164 -0.42500
O 	O 	0.04003 0.04500 0.62462 -0.47800
O 	O 	0.98469 0.07274 0.53265 -0.50800
O 	O 	0.03903 0.02000 0.53164 -0.90300
Zn	Zn	0.01298 0.96478 0.36234 1.19100
C 	C 	0.02719 0.01476 0.30636 0.32400
C 	C 	0.07022 0.95816 0.44641 0.29700
H 	H 	0.07190 0.03406 0.55860 0.16000
H 	H 	0.97320 0.00121 0.37112 0.13400
C 	C 	0.01587 0.00472 0.75120 -0.02500
C 	C 	0.99278 0.96559 0.70388 -0.07600
C 	C 	0.00075 0.96653 0.66534 0.08500
C 	C 	0.03247 0.00655 0.67403 -0.18700
C 	C 	0.05714 0.04553 0.72272 0.20900
C 	C 	0.04783 0.04466 0.76031 -0.11600
H 	H 	0.98115 0.93642 0.62797 0.00600
H 	H 	0.06631 0.07490 0.79715 0.06700
H 	H 	0.96822 0.93450 0.69666 0.03200
O 	O 	0.09155 0.08397 0.73447 -0.30800
H 	H 	0.07796 0.10168 0.72533 0.14500
C 	C 	0.01419 0.00261 0.16210 -0.03600
C 	C 	0.04240 0.99186 0.19522 -0.03500
C 	C 	0.04703 0.99638 0.24261 0.04300
C 	C 	0.02318 0.01146 0.25712 -0.16500
C 	C 	0.99412 0.02141 0.22318 0.18600
C 	C 	0.98979 0.01696 0.17596 -0.11500
H 	H 	0.06930 0.98837 0.26816 0.02500
H 	H 	0.96764 0.02500 0.15023 0.05700
H 	H 	0.06149 0.98091 0.18489 0.03900
O 	O 	0.96837 0.03347 0.23479 -0.31400
H 	H 	0.98638 0.06639 0.25414 0.14300
C 	C 	0.17063 0.75898 0.45255 -0.08800
C 	C 	0.18616 0.79215 0.50785 0.03700
C 	C 	0.12358 0.72757 0.49965 -0.04400
C 	C 	0.15162 0.70880 0.49218 -0.05200
C 	C 	0.15111 0.71069 0.44373 -0.04400
H 	H 	0.14444 0.76053 0.42035 0.04200
H 	H 	0.19943 0.76813 0.44905 0.03900
H 	H 	0.12291 0.72646 0.53391 0.02900
H 	H 	0.08781 0.70676 0.46365 0.02900
H 	H 	0.11591 0.68925 0.40670 0.04200
H 	H 	0.17144 0.69773 0.43757 0.03400
C 	C 	0.20156 0.73974 0.54266 -0.04300
H 	H 	0.22261 0.72688 0.53856 0.02900
H 	H 	0.20337 0.74014 0.57862 0.03300
C 	C 	0.22172 0.78797 0.55141 -0.08900
H 	H 	0.23335 0.81107 0.59150 0.03400
H 	H 	0.25215 0.79756 0.55109 0.03600
C 	C 	0.14385 0.77590 0.50958 -0.08800
H 	H 	0.15358 0.79736 0.54930 0.03700
H 	H 	0.11704 0.77795 0.47884 0.04000
C 	C 	0.34247 0.92545 0.55462 -0.08900
C 	C 	0.29880 0.91978 0.50955 0.03900
C 	C 	0.35180 0.98368 0.50603 -0.02400
C 	C 	0.36612 0.94965 0.49798 -0.05600
C 	C 	0.38123 0.94200 0.54736 -0.04300
H 	H 	0.35385 0.94949 0.59405 0.04100
H 	H 	0.33569 0.89358 0.55515 0.03700
H 	H 	0.34116 0.99047 0.47170 0.03400
H 	H 	0.38111 0.01573 0.54238 0.01300
H 	H 	0.41146 0.97335 0.58403 0.04400
H 	H 	0.39133 0.91717 0.54259 0.03600
C 	C 	0.32374 0.90498 0.44812 -0.04400
H 	H 	0.33315 0.87993 0.44092 0.03200
H 	H 	0.31094 0.90932 0.41202 0.03500
C 	C 	0.28513 0.88733 0.45519 -0.08900
H 	H 	0.25402 0.88261 0.42206 0.04100
H 	H 	0.27692 0.85409 0.45198 0.03900
C 	C 	0.31223 0.96611 0.51159 -0.09400
H 	H 	0.28275 0.96355 0.47853 0.04200
H 	H 	0.32246 0.99075 0.54993 0.04400
C 	C 	0.18321 0.96520 0.53886 -0.09700
C 	C 	0.16207 0.91695 0.49721 0.04100
C 	C 	0.08335 0.90218 0.47063 -0.03900
C 	C 	0.10399 0.94402 0.46573 -0.06500
C 	C 	0.14919 0.98072 0.52095 -0.02000
H 	H 	0.19322 0.96701 0.57820 0.04200
H 	H 	0.21448 0.98851 0.54450 0.04400
H 	H 	0.05151 0.87476 0.43142 0.03400
H 	H 	0.07425 0.90924 0.49905 0.01900
H 	H 	0.14243 0.98923 0.55142 0.02000
H 	H 	0.16476 0.01147 0.51882 0.01600
C 	C 	0.11536 0.93240 0.42512 -0.04100
H 	H 	0.13085 0.96217 0.42128 0.03800
H 	H 	0.08394 0.90616 0.38492 0.03500
C 	C 	0.14826 0.91588 0.44276 -0.09000
H 	H 	0.13196 0.88144 0.41178 0.04200
H 	H 	0.17847 0.93709 0.44512 0.04200
C 	C 	0.11730 0.88701 0.49006 -0.09100
H 	H 	0.10082 0.85183 0.46086 0.04100
H 	H 	0.12503 0.88850 0.52869 0.03900
C 	C 	0.17696 0.72797 0.02738 -0.04000
C 	C 	0.12807 0.69582 0.97519 -0.05400
C 	C 	0.11700 0.76089 0.98742 -0.09100
C 	C 	0.16115 0.77869 0.98944 0.03600
C 	C 	0.19616 0.77600 0.03556 -0.08700
H 	H 	0.17712 0.72819 0.06246 0.03400
H 	H 	0.19955 0.71635 0.02587 0.03000
H 	H 	0.09038 0.76131 0.95428 0.03900
H 	H 	0.12421 0.78241 0.02544 0.04100
H 	H 	0.20528 0.79875 0.07425 0.03800
H 	H 	0.22801 0.78697 0.03819 0.03800
C 	C 	0.14887 0.74581 0.93611 -0.08900
H 	H 	0.17912 0.75592 0.93536 0.03900
H 	H 	0.12328 0.74643 0.90214 0.04200
C 	C 	0.12992 0.69772 0.92799 -0.04300
H 	H 	0.09547 0.67549 0.88978 0.04100
H 	H 	0.15169 0.68566 0.92449 0.03300
C 	C 	0.09786 0.71298 0.97887 -0.04600
H 	H 	0.06269 0.69103 0.94173 0.02800
H 	H 	0.09579 0.71209 0.01240 0.03200
C 	C 	0.28812 0.95374 0.99644 -0.09700
C 	C 	0.27569 0.90786 0.99534 0.03300
C 	C 	0.30114 0.89239 0.93447 -0.04500
C 	C 	0.34250 0.93823 0.98305 -0.05700
C 	C 	0.32595 0.97063 0.98815 -0.02900
H 	H 	0.25775 0.95096 0.96451 0.04200
H 	H 	0.29998 0.97900 0.03545 0.04800
H 	H 	0.31176 0.86808 0.92983 0.03200
H 	H 	0.28807 0.89483 0.89707 0.03500
H 	H 	0.31239 0.97386 0.95131 0.03500
H 	H 	0.35473 0.00418 0.02213 0.01800
C 	C 	0.35871 0.93269 0.03397 -0.04000
H 	H 	0.38760 0.96518 0.06982 0.04700
H 	H 	0.37112 0.90962 0.03160 0.04100
C 	C 	0.31978 0.91452 0.04072 -0.08500
H 	H 	0.31374 0.88268 0.04102 0.04000
H 	H 	0.33047 0.93801 0.08004 0.04500
C 	C 	0.26228 0.87508 0.94125 -0.08800
H 	H 	0.25393 0.84188 0.93825 0.03800
H 	H 	0.23132 0.87032 0.90783 0.04100
C 	C 	0.11947 0.95919 0.95255 -0.04200
C 	C 	0.07736 0.92841 0.94832 -0.06300
C 	C 	0.09284 0.86667 0.92630 -0.09100
C 	C 	0.13854 0.90499 0.98023 0.04000
C 	C 	0.15527 0.94615 0.97171 -0.09400
H 	H 	0.10927 0.95716 0.91309 0.04000
H 	H 	0.13488 0.99423 0.98111 0.03900
H 	H 	0.07843 0.83630 0.92954 0.04000
H 	H 	0.09875 0.85765 0.89511 0.04300
H 	H 	0.16287 0.93899 0.94183 0.04300
H 	H 	0.18692 0.97519 0.00974 0.04500
C 	C 	0.12858 0.91760 0.02226 -0.09000
H 	H 	0.16054 0.94537 0.06106 0.04100
H 	H 	0.11545 0.88926 0.02928 0.04000
C 	C 	0.09315 0.93144 0.00378 -0.03700
H 	H 	0.06346 0.90956 0.00193 0.01900
H 	H 	0.10840 0.96593 0.03378 0.02200
C 	C 	0.05729 0.88004 0.90820 -0.03800
H 	H 	0.02704 0.85682 0.90449 0.03200
H 	H 	0.04585 0.87660 0.86791 0.03500
C 	C 	0.45196 0.61695 0.45076 -0.04000
C 	C 	0.43121 0.57907 0.46154 -0.05700
C 	C 	0.39001 0.61352 0.48276 -0.09000
C 	C 	0.37568 0.60846 0.42673 0.03800
C 	C 	0.42025 0.63473 0.43161 -0.09000
H 	H 	0.48571 0.64450 0.48765 0.02500
H 	H 	0.45745 0.60476 0.41998 0.02000
H 	H 	0.35996 0.59414 0.48175 0.04000
H 	H 	0.40661 0.64891 0.51145 0.04100
H 	H 	0.43909 0.67050 0.46066 0.03900
H 	H 	0.41185 0.63209 0.39237 0.03700
C 	C 	0.35279 0.55856 0.38787 -0.09000
H 	H 	0.34365 0.55432 0.34789 0.03800
H 	H 	0.32083 0.53747 0.38239 0.03800
C 	C 	0.38468 0.54128 0.40883 -0.04400
H 	H 	0.36844 0.51382 0.41552 0.03400
H 	H 	0.38937 0.52728 0.37791 0.02100
C 	C 	0.42269 0.59735 0.50325 -0.03900
H 	H 	0.40829 0.57109 0.51255 0.03400
H 	H 	0.45525 0.62551 0.54119 0.03700
C 	C 	0.36162 0.73899 0.37316 -0.08900
C 	C 	0.35605 0.73596 0.41797 0.03700
C 	C 	0.42853 0.81323 0.48368 -0.04200
C 	C 	0.39842 0.82012 0.43833 -0.05300
C 	C 	0.38651 0.78785 0.38526 -0.04300
H 	H 	0.38117 0.72428 0.36854 0.03800
H 	H 	0.32768 0.71970 0.33434 0.03700
H 	H 	0.43731 0.83569 0.52233 0.03900
H 	H 	0.46094 0.82188 0.48809 0.03900
H 	H 	0.41803 0.79612 0.38754 0.02600
H 	H 	0.36458 0.79165 0.35177 0.02800
C 	C 	0.35378 0.80722 0.43364 -0.04400
H 	H 	0.33089 0.81112 0.40103 0.03400
H 	H 	0.36112 0.82973 0.47123 0.03000
C 	C 	0.32919 0.75849 0.42193 -0.08800
H 	H 	0.32503 0.75819 0.45428 0.03800
H 	H 	0.29480 0.73987 0.38385 0.03700
C 	C 	0.40399 0.76457 0.47195 -0.08900
H 	H 	0.40090 0.76374 0.50486 0.04000
H 	H 	0.42544 0.75096 0.47169 0.03900
C 	C 	0.22656 0.64173 0.42824 -0.08600
C 	C 	0.24676 0.61208 0.42298 0.03600
C 	C 	0.23775 0.59571 0.49269 -0.04500
C 	C 	0.18978 0.58343 0.44943 -0.04800
C 	C 	0.19366 0.62508 0.44365 -0.05000
H 	H 	0.25427 0.67665 0.45924 0.03800
H 	H 	0.20774 0.64153 0.38978 0.04000
H 	H 	0.23600 0.56621 0.49750 0.03100
H 	H 	0.25114 0.62202 0.53190 0.03700
H 	H 	0.20600 0.65200 0.48176 0.03500
H 	H 	0.15967 0.61726 0.41266 0.03900
C 	C 	0.17303 0.54715 0.39548 -0.04700
H 	H 	0.13877 0.53779 0.36328 0.04700
H 	H 	0.17001 0.51669 0.39829 0.03400
C 	C 	0.20597 0.56383 0.37999 -0.08700
H 	H 	0.21769 0.54054 0.37469 0.03900
H 	H 	0.18744 0.56267 0.34081 0.04100
C 	C 	0.27088 0.61255 0.47753 -0.08800
H 	H 	0.28533 0.59127 0.47632 0.03800
H 	H 	0.29973 0.64686 0.50928 0.03900
C 	C 	0.42910 0.61756 0.98517 -0.04700
C 	C 	0.41107 0.57076 0.94313 -0.05700
C 	C 	0.33085 0.55192 0.90879 -0.08800
C 	C 	0.35192 0.59602 0.90703 0.03800
C 	C 	0.39458 0.63190 0.96457 -0.08700
H 	H 	0.43574 0.61780 0.02299 0.04300
H 	H 	0.46189 0.64221 0.99475 0.02600
H 	H 	0.30111 0.52469 0.86806 0.03700
H 	H 	0.31899 0.55591 0.93476 0.03900
H 	H 	0.38424 0.63787 0.99187 0.04000
H 	H 	0.41176 0.66409 0.96595 0.03800
C 	C 	0.36815 0.58784 0.87064 -0.09200
H 	H 	0.38476 0.61854 0.86901 0.03700
H 	H 	0.33843 0.56207 0.82920 0.03700
C 	C 	0.40236 0.57271 0.89143 -0.03900
H 	H 	0.38856 0.53951 0.85994 0.01900
H 	H 	0.43487 0.59614 0.89942 0.01700
C 	C 	0.36533 0.53787 0.93029 -0.04400
H 	H 	0.35132 0.50391 0.90024 0.03200
H 	H 	0.37068 0.53676 0.96707 0.03600
C 	C 	0.33114 0.79610 0.91904 -0.04400
C 	C 	0.37615 0.80970 0.92455 -0.05200
C 	C 	0.38253 0.75448 0.95859 -0.08700
C 	C 	0.33469 0.72559 0.90454 0.03700
C 	C 	0.30738 0.74761 0.90824 -0.08900
H 	H 	0.33789 0.81871 0.95612 0.03000
H 	H 	0.30799 0.79922 0.88573 0.03400
H 	H 	0.40436 0.74138 0.95843 0.03800
H 	H 	0.37943 0.75331 0.99140 0.03900
H 	H 	0.30401 0.74798 0.94125 0.03800
H 	H 	0.27270 0.72831 0.87046 0.03900
C 	C 	0.34033 0.72881 0.85981 -0.08900
H 	H 	0.30640 0.70944 0.82094 0.03700
H 	H 	0.36000 0.71423 0.85526 0.03700
C 	C 	0.36502 0.77768 0.87192 -0.04300
H 	H 	0.39686 0.78628 0.87487 0.02500
H 	H 	0.34323 0.78130 0.83815 0.02700
C 	C 	0.40642 0.80325 0.97035 -0.04800
H 	H 	0.43919 0.81265 0.97547 0.03800
H 	H 	0.41446 0.82537 0.00865 0.04400
C 	C 	0.21354 0.61986 0.97979 -0.05000
C 	C 	0.16907 0.57463 0.93465 -0.04500
C 	C 	0.17923 0.59395 0.86728 -0.08700
C 	C 	0.22493 0.59899 0.90579 0.03700
C 	C 	0.24621 0.63370 0.96336 -0.08700
H 	H 	0.20560 0.64591 0.98898 0.03500
H 	H 	0.23072 0.61767 0.01688 0.04000
H 	H 	0.16298 0.56906 0.82581 0.05200
H 	H 	0.18472 0.62572 0.86712 0.04600
H 	H 	0.25456 0.66695 0.96654 0.03800
H 	H 	0.27857 0.63729 0.99201 0.03900
C 	C 	0.21352 0.55336 0.90520 -0.08700
H 	H 	0.24520 0.55515 0.93234 0.03800
H 	H 	0.19648 0.52689 0.86431 0.04000
C 	C 	0.18168 0.53969 0.92273 -0.04700
H 	H 	0.15051 0.50672 0.89054 0.03800
H 	H 	0.19859 0.53603 0.95872 0.03100
C 	C 	0.14670 0.57933 0.88376 -0.05100
H 	H 	0.11535 0.54703 0.85023 0.05100
H 	H 	0.13666 0.60392 0.89080 0.03900
C 	C 	0.75772 0.11473 0.89013 0.00200
C 	C 	0.77372 0.15674 0.89292 -0.05900
C 	C 	0.81249 0.17690 0.89332 0.00000
C 	C 	0.83405 0.15349 0.88934 -0.05900
C 	C 	0.81879 0.11202 0.88792 0.00000
C 	C 	0.77662 0.09043 0.87959 -0.06000
H 	H 	0.75680 0.17389 0.89651 0.03500
H 	H 	0.86474 0.16905 0.89174 0.03200
H 	H 	0.75881 0.05516 0.86517 0.03300
C 	C 	0.78061 0.12757 0.40856 0.00100
C 	C 	0.79424 0.16723 0.40532 -0.06000
C 	C 	0.83362 0.18735 0.40703 0.00000
C 	C 	0.85567 0.16423 0.40485 -0.06000
C 	C 	0.84265 0.12471 0.40833 -0.00000
C 	C 	0.80252 0.10471 0.40493 -0.06000
H 	H 	0.77399 0.18179 0.40050 0.03400
H 	H 	0.88401 0.17815 0.40272 0.03300
H 	H 	0.79128 0.07358 0.40556 0.03200
C 	C 	0.73661 0.38900 0.00147 0.00800
C 	C 	0.71391 0.41125 0.00469 -0.05300
C 	C 	0.67225 0.38941 0.99750 -0.01200
C 	C 	0.65923 0.34989 0.00049 -0.04600
C 	C 	0.68109 0.32664 0.99756 -0.00600
C 	C 	0.72037 0.34695 0.99905 -0.06300
H 	H 	0.72893 0.44548 0.01395 0.03400
H 	H 	0.63096 0.33671 0.00284 0.03200
H 	H 	0.73763 0.32969 0.99709 0.03300
C 	C 	0.75951 0.40090 0.51539 0.00000
C 	C 	0.73551 0.42221 0.51638 -0.06000
C 	C 	0.69611 0.40169 0.51417 0.00100
C 	C 	0.68620 0.36438 0.52200 -0.06000
C 	C 	0.70658 0.34020 0.51633 0.00000
C 	C 	0.74416 0.35938 0.51453 -0.06000
H 	H 	0.74624 0.45384 0.51713 0.03400
H 	H 	0.66360 0.35494 0.53351 0.03400
H 	H 	0.76064 0.34156 0.51105 0.03300
Zn	Zn	0.60309 0.58500 0.00674 1.18400
Zn	Zn	0.52765 0.55489 0.89668 1.19200
O 	O 	0.51289 0.47297 0.80781 -0.47200
O 	O 	0.50654 0.53404 0.81939 -0.44600
O 	O 	0.50793 0.41965 0.88008 -0.50100
C 	C 	0.63649 0.56027 0.94965 0.27200
O 	O 	0.48184 0.49607 0.87717 -0.87400
C 	C 	0.60868 0.64918 0.96795 0.28600
O 	O 	0.64918 0.58214 0.99835 -0.47000
O 	O 	0.59384 0.52874 0.91256 -0.36600
O 	O 	0.54237 0.56224 0.96963 -0.78200
O 	O 	0.55340 0.48137 0.96087 -0.45700
O 	O 	0.57739 0.61483 0.91928 -0.45700
O 	O 	0.61970 0.64376 0.01036 -0.46300
Zn	Zn	0.40069 0.42839 0.90417 1.17000
Zn	Zn	0.47987 0.44885 0.99917 1.18200
Zn	Zn	0.49910 0.50287 0.94674 1.21600
C 	C 	0.39929 0.35718 0.93516 0.29500
C 	C 	0.37978 0.45560 0.97507 0.28300
O 	O 	0.44488 0.52683 0.93249 -0.45700
Zn	Zn	0.48771 0.53203 0.03853 1.19900
O 	O 	0.44220 0.38560 0.97624 -0.46500
O 	O 	0.37663 0.36880 0.90177 -0.47000
O 	O 	0.36858 0.44771 0.92707 -0.49300
O 	O 	0.42200 0.47053 0.01330 -0.45700
C 	C 	0.51254 0.50235 0.11514 0.29300
O 	O 	0.45709 0.44312 0.92460 -0.80900
C 	C 	0.44385 0.55600 0.96536 0.28600
O 	O 	0.50189 0.46574 0.07796 -0.43000
O 	O 	0.51754 0.53735 0.10854 -0.47400
O 	O 	0.46189 0.56344 0.01466 -0.49400
O 	O 	0.51556 0.50934 0.01558 -0.89800
Zn	Zn	0.48930 0.45152 0.84616 1.18500
C 	C 	0.50995 0.50297 0.79326 0.29100
C 	C 	0.54312 0.44219 0.93009 0.29200
H 	H 	0.54841 0.52349 0.04273 0.16100
H 	H 	0.45053 0.48922 0.85455 0.14400
Zn	Zn	0.62531 0.59640 0.52182 1.18200
Zn	Zn	0.54979 0.56761 0.41311 1.19200
O 	O 	0.53456 0.48709 0.32304 -0.48400
O 	O 	0.52700 0.54741 0.33521 -0.44400
O 	O 	0.53441 0.43445 0.39677 -0.50000
C 	C 	0.65747 0.56802 0.46449 0.27900
O 	O 	0.50469 0.50847 0.39365 -0.87500
C 	C 	0.63142 0.66185 0.48407 0.29000
O 	O 	0.67041 0.59079 0.51309 -0.46800
O 	O 	0.61405 0.53997 0.42678 -0.37400
O 	O 	0.56478 0.57470 0.48618 -0.77600
O 	O 	0.57847 0.49597 0.47760 -0.45800
O 	O 	0.59827 0.62814 0.43536 -0.45600
O 	O 	0.64390 0.65575 0.52616 -0.46700
Zn	Zn	0.42438 0.43956 0.41919 1.17100
Zn	Zn	0.50343 0.45877 0.51363 1.18500
Zn	Zn	0.52225 0.51477 0.46301 1.21600
C 	C 	0.42219 0.36761 0.44915 0.29500
C 	C 	0.40348 0.46642 0.49008 0.28900
O 	O 	0.46687 0.53723 0.44951 -0.45600
Zn	Zn	0.51134 0.54189 0.55573 1.20000
O 	O 	0.46566 0.39512 0.48892 -0.46300
O 	O 	0.39975 0.37978 0.41639 -0.46900
O 	O 	0.39243 0.45909 0.44225 -0.49200
O 	O 	0.44520 0.47946 0.52760 -0.46500
C 	C 	0.53399 0.50907 0.62931 0.34600
O 	O 	0.48094 0.45446 0.43988 -0.80800
C 	C 	0.46294 0.56286 0.48238 0.29300
O 	O 	0.52453 0.47363 0.59164 -0.44200
O 	O 	0.54003 0.54500 0.62462 -0.47900
O 	O 	0.48468 0.57274 0.53265 -0.50000
O 	O 	0.53903 0.52000 0.53164 -0.89900
Zn	Zn	0.51298 0.46478 0.36234 1.18600
C 	C 	0.52719 0.51476 0.30636 0.34000
C 	C 	0.57022 0.45816 0.44641 0.29500
H 	H 	0.57190 0.53406 0.55860 0.16300
H 	H 	0.47320 0.50121 0.37112 0.14600
C 	C 	0.51587 0.50472 0.75120 -0.04000
C 	C 	0.49278 0.46559 0.70388 -0.04600
C 	C 	0.50075 0.46653 0.66534 0.02900
C 	C 	0.53246 0.50655 0.67403 -0.15800
C 	C 	0.55714 0.54553 0.72272 0.19600
C 	C 	0.54783 0.54466 0.76031 -0.10300
H 	H 	0.48115 0.43642 0.62797 0.02500
H 	H 	0.56630 0.57490 0.79715 0.06400
H 	H 	0.46822 0.43450 0.69666 0.02600
O 	O 	0.59155 0.58397 0.73447 -0.30400
H 	H 	0.57796 0.60168 0.72533 0.14300
C 	C 	0.51419 0.50261 0.16210 -0.03500
C 	C 	0.54240 0.49186 0.19522 -0.04800
C 	C 	0.54703 0.49638 0.24261 0.03000
C 	C 	0.52318 0.51146 0.25712 -0.16400
C 	C 	0.49412 0.52141 0.22318 0.19600
C 	C 	0.48979 0.51696 0.17596 -0.10300
H 	H 	0.56930 0.48837 0.26816 0.02300
H 	H 	0.46764 0.52500 0.15023 0.06000
H 	H 	0.56149 0.48091 0.18489 0.03700
O 	O 	0.46837 0.53347 0.23479 -0.31100
H 	H 	0.48638 0.56639 0.25414 0.14600
C 	C 	0.67063 0.25898 0.45255 -0.08800
C 	C 	0.68616 0.29215 0.50785 0.03700
C 	C 	0.62358 0.22757 0.49965 -0.04400
C 	C 	0.65162 0.20880 0.49218 -0.05300
C 	C 	0.65111 0.21070 0.44373 -0.04400
H 	H 	0.64444 0.26053 0.42035 0.04100
H 	H 	0.69943 0.26813 0.44905 0.03900
H 	H 	0.62291 0.22645 0.53391 0.02700
H 	H 	0.58781 0.20676 0.46365 0.02600
H 	H 	0.61591 0.18925 0.40670 0.04100
H 	H 	0.67144 0.19773 0.43757 0.03300
C 	C 	0.70156 0.23974 0.54266 -0.04300
H 	H 	0.72261 0.22688 0.53856 0.02800
H 	H 	0.70337 0.24014 0.57862 0.03200
C 	C 	0.72172 0.28797 0.55141 -0.08900
H 	H 	0.73335 0.31107 0.59150 0.03300
H 	H 	0.75215 0.29756 0.55109 0.03500
C 	C 	0.64385 0.27590 0.50958 -0.08800
H 	H 	0.65358 0.29736 0.54930 0.03600
H 	H 	0.61704 0.27795 0.47884 0.03800
C 	C 	0.84247 0.42545 0.55462 -0.08800
C 	C 	0.79880 0.41978 0.50955 0.03600
C 	C 	0.85180 0.48368 0.50603 -0.04500
C 	C 	0.86612 0.44965 0.49798 -0.05300
C 	C 	0.88124 0.44200 0.54736 -0.04400
H 	H 	0.85385 0.44949 0.59405 0.03800
H 	H 	0.83569 0.39358 0.55515 0.03600
H 	H 	0.84116 0.49047 0.47170 0.03300
H 	H 	0.88111 0.51573 0.54238 0.02800
H 	H 	0.91146 0.47335 0.58403 0.03900
H 	H 	0.89133 0.41717 0.54259 0.03600
C 	C 	0.82374 0.40498 0.44812 -0.04500
H 	H 	0.83315 0.37993 0.44092 0.03200
H 	H 	0.81094 0.40932 0.41202 0.03400
C 	C 	0.78513 0.38733 0.45519 -0.08800
H 	H 	0.75402 0.38261 0.42206 0.03900
H 	H 	0.77692 0.35409 0.45198 0.03800
C 	C 	0.81223 0.46611 0.51159 -0.08800
H 	H 	0.78275 0.46355 0.47853 0.03800
H 	H 	0.82246 0.49075 0.54993 0.03800
C 	C 	0.68321 0.46520 0.53886 -0.09100
C 	C 	0.66207 0.41695 0.49721 0.03800
C 	C 	0.58335 0.40218 0.47063 -0.03900
C 	C 	0.60399 0.44402 0.46573 -0.06200
C 	C 	0.64919 0.48073 0.52095 -0.04000
H 	H 	0.69322 0.46701 0.57820 0.03800
H 	H 	0.71448 0.48851 0.54450 0.03900
H 	H 	0.55151 0.37476 0.43142 0.03100
H 	H 	0.57425 0.40925 0.49905 0.01600
H 	H 	0.64243 0.48923 0.55142 0.01900
H 	H 	0.66476 0.51147 0.51882 0.03200
C 	C 	0.61536 0.43240 0.42512 -0.04200
H 	H 	0.63085 0.46217 0.42128 0.03300
H 	H 	0.58394 0.40616 0.38492 0.03300
C 	C 	0.64826 0.41588 0.44276 -0.08900
H 	H 	0.63196 0.38144 0.41178 0.04100
H 	H 	0.67847 0.43709 0.44512 0.04000
C 	C 	0.61730 0.38701 0.49006 -0.09000
H 	H 	0.60082 0.35183 0.46086 0.03900
H 	H 	0.62504 0.38850 0.52869 0.03700
C 	C 	0.67696 0.22797 0.02738 -0.03900
C 	C 	0.62807 0.19582 0.97519 -0.05500
C 	C 	0.61700 0.26089 0.98742 -0.09300
C 	C 	0.66115 0.27869 0.98944 0.03600
C 	C 	0.69616 0.27600 0.03556 -0.08600
H 	H 	0.67712 0.22819 0.06246 0.03300
H 	H 	0.69955 0.21635 0.02587 0.03000
H 	H 	0.59038 0.26131 0.95428 0.03800
H 	H 	0.62421 0.28241 0.02544 0.04100
H 	H 	0.70528 0.29875 0.07425 0.03600
H 	H 	0.72801 0.28697 0.03819 0.03800
C 	C 	0.64887 0.24581 0.93611 -0.08900
H 	H 	0.67912 0.25592 0.93536 0.03900
H 	H 	0.62328 0.24643 0.90214 0.04000
C 	C 	0.62992 0.19772 0.92799 -0.04300
H 	H 	0.59547 0.17549 0.88978 0.04000
H 	H 	0.65169 0.18566 0.92449 0.03300
C 	C 	0.59786 0.21298 0.97887 -0.04700
H 	H 	0.56269 0.19103 0.94173 0.02500
H 	H 	0.59579 0.21209 0.01240 0.03100
C 	C 	0.78812 0.45374 0.99644 -0.09000
C 	C 	0.77569 0.40786 0.99534 0.03000
C 	C 	0.80114 0.39239 0.93447 -0.04600
C 	C 	0.84250 0.43823 0.98305 -0.05400
C 	C 	0.82595 0.47063 0.98815 -0.05000
H 	H 	0.75775 0.45096 0.96451 0.03800
H 	H 	0.79998 0.47900 0.03545 0.04200
H 	H 	0.81176 0.36807 0.92983 0.03200
H 	H 	0.78807 0.39483 0.89707 0.03400
H 	H 	0.81240 0.47386 0.95131 0.03400
H 	H 	0.85473 0.50418 0.02213 0.03300
C 	C 	0.85871 0.43269 0.03397 -0.04100
H 	H 	0.88760 0.46518 0.06982 0.04100
H 	H 	0.87112 0.40962 0.03160 0.03900
C 	C 	0.81978 0.41452 0.04072 -0.08400
H 	H 	0.81374 0.38268 0.04102 0.03900
H 	H 	0.83047 0.43801 0.08004 0.04200
C 	C 	0.76228 0.37508 0.94125 -0.08600
H 	H 	0.75393 0.34188 0.93825 0.03800
H 	H 	0.73132 0.37032 0.90783 0.03900
C 	C 	0.61947 0.45919 0.95255 -0.04000
C 	C 	0.57736 0.42841 0.94832 -0.06700
C 	C 	0.59284 0.36667 0.92630 -0.09200
C 	C 	0.63854 0.40499 0.98023 0.04000
C 	C 	0.65527 0.44615 0.97171 -0.09600
H 	H 	0.60927 0.45716 0.91309 0.03500
H 	H 	0.63488 0.49423 0.98111 0.03400
H 	H 	0.57843 0.33630 0.92954 0.03800
H 	H 	0.59875 0.35765 0.89511 0.04100
H 	H 	0.66287 0.43899 0.94183 0.04100
H 	H 	0.68692 0.47519 0.00974 0.04200
C 	C 	0.62858 0.41760 0.02226 -0.09000
H 	H 	0.66054 0.44537 0.06106 0.03800
H 	H 	0.61545 0.38926 0.02928 0.03900
C 	C 	0.59315 0.43144 0.00378 -0.03500
H 	H 	0.56346 0.40956 0.00193 0.01600
H 	H 	0.60840 0.46593 0.03378 0.01800
C 	C 	0.55729 0.38004 0.90820 -0.03700
H 	H 	0.52704 0.35682 0.90449 0.02900
H 	H 	0.54585 0.37661 0.86791 0.03200
C 	C 	0.95196 0.11695 0.45076 -0.03900
C 	C 	0.93121 0.07907 0.46154 -0.06000
C 	C 	0.89001 0.11352 0.48276 -0.09000
C 	C 	0.87568 0.10846 0.42673 0.03800
C 	C 	0.92025 0.13473 0.43161 -0.09100
H 	H 	0.98571 0.14450 0.48765 0.02200
H 	H 	0.95745 0.10476 0.41998 0.01800
H 	H 	0.85996 0.09414 0.48175 0.03800
H 	H 	0.90661 0.14891 0.51145 0.03900
H 	H 	0.93909 0.17050 0.46066 0.03700
H 	H 	0.91185 0.13209 0.39237 0.03600
C 	C 	0.85279 0.05856 0.38787 -0.09000
H 	H 	0.84365 0.05432 0.34789 0.03500
H 	H 	0.82083 0.03747 0.38239 0.03500
C 	C 	0.88469 0.04128 0.40883 -0.04300
H 	H 	0.86844 0.01382 0.41552 0.02900
H 	H 	0.88937 0.02728 0.37791 0.01700
C 	C 	0.92269 0.09735 0.50325 -0.03800
H 	H 	0.90829 0.07109 0.51255 0.03100
H 	H 	0.95525 0.12551 0.54119 0.03500
C 	C 	0.86162 0.23899 0.37316 -0.08900
C 	C 	0.85605 0.23596 0.41797 0.03700
C 	C 	0.92853 0.31323 0.48368 -0.04100
C 	C 	0.89842 0.32012 0.43833 -0.05400
C 	C 	0.88651 0.28785 0.38526 -0.04200
H 	H 	0.88117 0.22428 0.36854 0.03600
H 	H 	0.82768 0.21970 0.33434 0.03600
H 	H 	0.93731 0.33569 0.52233 0.03700
H 	H 	0.96094 0.32188 0.48809 0.03600
H 	H 	0.91803 0.29612 0.38754 0.02400
H 	H 	0.86458 0.29165 0.35177 0.02600
C 	C 	0.85378 0.30722 0.43364 -0.04300
H 	H 	0.83089 0.31112 0.40103 0.03400
H 	H 	0.86112 0.32973 0.47123 0.03000
C 	C 	0.82919 0.25849 0.42193 -0.08800
H 	H 	0.82503 0.25819 0.45428 0.03800
H 	H 	0.79480 0.23987 0.38385 0.03600
C 	C 	0.90399 0.26457 0.47195 -0.08900
H 	H 	0.90090 0.26374 0.50486 0.03900
H 	H 	0.92544 0.25096 0.47169 0.03800
C 	C 	0.72656 0.14173 0.42824 -0.08600
C 	C 	0.74676 0.11208 0.42298 0.03600
C 	C 	0.73775 0.09571 0.49269 -0.04400
C 	C 	0.68978 0.08343 0.44943 -0.05000
C 	C 	0.69366 0.12508 0.44365 -0.04900
H 	H 	0.75427 0.17665 0.45924 0.03800
H 	H 	0.70774 0.14153 0.38978 0.03900
H 	H 	0.73600 0.06621 0.49750 0.02700
H 	H 	0.75114 0.12202 0.53190 0.03600
H 	H 	0.70600 0.15200 0.48176 0.03500
H 	H 	0.65968 0.11727 0.41266 0.03900
C 	C 	0.67303 0.04715 0.39548 -0.04600
H 	H 	0.63877 0.03779 0.36328 0.04300
H 	H 	0.67001 0.01668 0.39829 0.02900
C 	C 	0.70597 0.06383 0.37999 -0.08800
H 	H 	0.71769 0.04054 0.37469 0.03600
H 	H 	0.68744 0.06267 0.34081 0.03800
C 	C 	0.77088 0.11255 0.47753 -0.08800
H 	H 	0.78533 0.09127 0.47632 0.03700
H 	H 	0.79973 0.14686 0.50928 0.03800
C 	C 	0.92910 0.11756 0.98517 -0.04700
C 	C 	0.91107 0.07076 0.94313 -0.05900
C 	C 	0.83085 0.05192 0.90879 -0.08800
C 	C 	0.85192 0.09602 0.90703 0.03800
C 	C 	0.89458 0.13190 0.96457 -0.08700
H 	H 	0.93574 0.11780 0.02299 0.04200
H 	H 	0.96189 0.14221 0.99475 0.02400
H 	H 	0.80111 0.02469 0.86806 0.03400
H 	H 	0.81899 0.05591 0.93476 0.03700
H 	H 	0.88424 0.13787 0.99187 0.03900
H 	H 	0.91176 0.16409 0.96595 0.03700
C 	C 	0.86815 0.08784 0.87064 -0.09200
H 	H 	0.88475 0.11854 0.86901 0.03600
H 	H 	0.83843 0.06207 0.82920 0.03400
C 	C 	0.90236 0.07271 0.89143 -0.03800
H 	H 	0.88857 0.03951 0.85994 0.01500
H 	H 	0.93487 0.09614 0.89942 0.01400
C 	C 	0.86533 0.03788 0.93029 -0.04300
H 	H 	0.85132 0.00391 0.90024 0.02700
H 	H 	0.87068 0.03676 0.96707 0.03300
C 	C 	0.83114 0.29610 0.91904 -0.04300
C 	C 	0.87615 0.30970 0.92455 -0.05300
C 	C 	0.88253 0.25448 0.95859 -0.08700
C 	C 	0.83469 0.22559 0.90454 0.03700
C 	C 	0.80738 0.24761 0.90824 -0.08900
H 	H 	0.83789 0.31871 0.95612 0.02900
H 	H 	0.80799 0.29923 0.88573 0.03400
H 	H 	0.90436 0.24138 0.95843 0.03700
H 	H 	0.87943 0.25331 0.99140 0.03800
H 	H 	0.80401 0.24798 0.94125 0.03800
H 	H 	0.77270 0.22831 0.87046 0.03800
C 	C 	0.84033 0.22881 0.85981 -0.08900
H 	H 	0.80640 0.20944 0.82094 0.03600
H 	H 	0.86000 0.21423 0.85526 0.03600
C 	C 	0.86503 0.27767 0.87192 -0.04300
H 	H 	0.89686 0.28628 0.87487 0.02300
H 	H 	0.84323 0.28130 0.83815 0.02600
C 	C 	0.90642 0.30325 0.97035 -0.04700
H 	H 	0.93919 0.31265 0.97547 0.03500
H 	H 	0.91446 0.32537 0.00865 0.04300
C 	C 	0.71355 0.11986 0.97979 -0.05000
C 	C 	0.66907 0.07463 0.93465 -0.04600
C 	C 	0.67923 0.09395 0.86728 -0.08700
C 	C 	0.72493 0.09899 0.90579 0.03600
C 	C 	0.74621 0.13370 0.96336 -0.08600
H 	H 	0.70560 0.14591 0.98898 0.03400
H 	H 	0.73072 0.11767 0.01688 0.04000
H 	H 	0.66298 0.06906 0.82581 0.05000
H 	H 	0.68472 0.12572 0.86712 0.04500
H 	H 	0.75456 0.16695 0.96654 0.03800
H 	H 	0.77857 0.13729 0.99201 0.03700
C 	C 	0.71352 0.05336 0.90520 -0.08700
H 	H 	0.74520 0.05515 0.93234 0.03600
H 	H 	0.69648 0.02689 0.86431 0.03700
C 	C 	0.68168 0.03969 0.92273 -0.04600
H 	H 	0.65051 0.00672 0.89054 0.03300
H 	H 	0.69859 0.03603 0.95872 0.02600
C 	C 	0.64670 0.07933 0.88376 -0.05000
H 	H 	0.61536 0.04703 0.85023 0.04900
H 	H 	0.63666 0.10392 0.89080 0.03900
C 	C 	0.75772 0.61473 0.89013 0.00300
C 	C 	0.77372 0.65674 0.89292 -0.05900
C 	C 	0.81249 0.67690 0.89332 0.00100
C 	C 	0.83405 0.65349 0.88934 -0.05900
C 	C 	0.81879 0.61202 0.88792 0.00100
C 	C 	0.77662 0.59043 0.87959 -0.05900
H 	H 	0.75680 0.67389 0.89651 0.03500
H 	H 	0.86474 0.66905 0.89174 0.03200
H 	H 	0.75881 0.55516 0.86517 0.03500
C 	C 	0.78061 0.62757 0.40856 0.00100
C 	C 	0.79424 0.66723 0.40532 -0.06000
C 	C 	0.83362 0.68735 0.40703 0.00100
C 	C 	0.85567 0.66423 0.40485 -0.06000
C 	C 	0.84265 0.62471 0.40833 0.00100
C 	C 	0.80252 0.60471 0.40493 -0.06000
H 	H 	0.77399 0.68179 0.40050 0.03400
H 	H 	0.88401 0.67815 0.40272 0.03300
H 	H 	0.79128 0.57359 0.40556 0.03400
C 	C 	0.73661 0.88900 0.00147 0.00800
C 	C 	0.71391 0.91125 0.00469 -0.05200
C 	C 	0.67225 0.88941 0.99750 -0.01200
C 	C 	0.65923 0.84989 0.00049 -0.04500
C 	C 	0.68109 0.82664 0.99756 -0.00700
C 	C 	0.72037 0.84695 0.99905 -0.06300
H 	H 	0.72893 0.94547 0.01395 0.03600
H 	H 	0.63096 0.83671 0.00284 0.03200
H 	H 	0.73763 0.82969 0.99709 0.03300
C 	C 	0.75951 0.90090 0.51539 -0.00000
C 	C 	0.73551 0.92221 0.51638 -0.05900
C 	C 	0.69611 0.90168 0.51417 0.00100
C 	C 	0.68620 0.86438 0.52200 -0.06000
C 	C 	0.70658 0.84020 0.51633 0.00000
C 	C 	0.74416 0.85938 0.51453 -0.05900
H 	H 	0.74624 0.95384 0.51713 0.03500
H 	H 	0.66360 0.85494 0.53351 0.03400
H 	H 	0.76064 0.84156 0.51105 0.03300
Zn	Zn	0.60309 0.08500 0.00674 1.18300
Zn	Zn	0.52765 0.05489 0.89668 1.18900
O 	O 	0.51289 0.97297 0.80781 -0.45700
O 	O 	0.50654 0.03404 0.81939 -0.44700
O 	O 	0.50793 0.91965 0.88008 -0.49900
C 	C 	0.63649 0.06027 0.94965 0.27200
O 	O 	0.48184 0.99607 0.87717 -0.86500
C 	C 	0.60868 0.14918 0.96795 0.28600
O 	O 	0.64918 0.08214 0.99835 -0.47400
O 	O 	0.59384 0.02874 0.91256 -0.37300
O 	O 	0.54237 0.06225 0.96963 -0.78500
O 	O 	0.55340 0.98137 0.96087 -0.45000
O 	O 	0.57739 0.11483 0.91928 -0.45800
O 	O 	0.61970 0.14376 0.01036 -0.46300
Zn	Zn	0.40069 0.92839 0.90417 1.17200
Zn	Zn	0.47987 0.94885 0.99917 1.18400
Zn	Zn	0.49910 0.00286 0.94674 1.21100
C 	C 	0.39929 0.85718 0.93516 0.29500
C 	C 	0.37978 0.95560 0.97507 0.28600
O 	O 	0.44488 0.02683 0.93249 -0.46400
Zn	Zn	0.48771 0.03203 0.03853 1.19700
O 	O 	0.44220 0.88560 0.97624 -0.46400
O 	O 	0.37663 0.86880 0.90177 -0.47000
O 	O 	0.36858 0.94771 0.92707 -0.48900
O 	O 	0.42200 0.97053 0.01330 -0.45000
C 	C 	0.51254 0.00235 0.11514 0.27900
O 	O 	0.45709 0.94312 0.92460 -0.80300
C 	C 	0.44385 0.05600 0.96536 0.28700
O 	O 	0.50189 0.96574 0.07796 -0.41600
O 	O 	0.51754 0.03735 0.10854 -0.47400
O 	O 	0.46189 0.06344 0.01466 -0.49700
O 	O 	0.51556 0.00934 0.01558 -0.90600
Zn	Zn	0.48930 0.95152 0.84616 1.18600
C 	C 	0.50995 0.00297 0.79326 0.27600
C 	C 	0.54312 0.94219 0.93009 0.29100
H 	H 	0.54841 0.02349 0.04273 0.15800
H 	H 	0.45053 0.98922 0.85455 0.14800
Zn	Zn	0.62531 0.09640 0.52182 1.18100
Zn	Zn	0.54979 0.06761 0.41311 1.19200
O 	O 	0.53456 0.98709 0.32304 -0.46700
O 	O 	0.52700 0.04741 0.33521 -0.44200
O 	O 	0.53441 0.93445 0.39677 -0.49800
C 	C 	0.65747 0.06802 0.46449 0.27900
O 	O 	0.50469 0.00847 0.39365 -0.88100
C 	C 	0.63142 0.16185 0.48407 0.29000
O 	O 	0.67041 0.09079 0.51309 -0.47000
O 	O 	0.61405 0.03997 0.42678 -0.38000
O 	O 	0.56478 0.07470 0.48618 -0.77800
O 	O 	0.57847 0.99597 0.47760 -0.44900
O 	O 	0.59827 0.12814 0.43536 -0.45700
O 	O 	0.64390 0.15575 0.52616 -0.46800
Zn	Zn	0.42438 0.93956 0.41919 1.17300
Zn	Zn	0.50343 0.95877 0.51363 1.18700
Zn	Zn	0.52225 0.01477 0.46301 1.21300
C 	C 	0.42219 0.86761 0.44915 0.29500
C 	C 	0.40348 0.96642 0.49008 0.29200
O 	O 	0.46687 0.03723 0.44951 -0.45900
Zn	Zn	0.51134 0.04189 0.55573 1.19800
O 	O 	0.46566 0.89512 0.48892 -0.46200
O 	O 	0.39975 0.87978 0.41639 -0.46800
O 	O 	0.39243 0.95909 0.44225 -0.48700
O 	O 	0.44520 0.97946 0.52760 -0.45800
C 	C 	0.53399 0.00907 0.62931 0.33100
O 	O 	0.48094 0.95446 0.43988 -0.80100
C 	C 	0.46294 0.06286 0.48238 0.29200
O 	O 	0.52453 0.97363 0.59164 -0.42800
O 	O 	0.54003 0.04500 0.62462 -0.47900
O 	O 	0.48468 0.07274 0.53265 -0.50300
O 	O 	0.53903 0.02000 0.53164 -0.90700
Zn	Zn	0.51298 0.96478 0.36234 1.19000
C 	C 	0.52719 0.01476 0.30636 0.32600
C 	C 	0.57021 0.95816 0.44641 0.29700
H 	H 	0.57190 0.03406 0.55860 0.16000
H 	H 	0.47320 0.00121 0.37112 0.14400
C 	C 	0.51587 0.00472 0.75120 -0.05300
C 	C 	0.49278 0.96559 0.70388 -0.03200
C 	C 	0.50075 0.96653 0.66534 0.04300
C 	C 	0.53246 0.00655 0.67403 -0.17200
C 	C 	0.55714 0.04553 0.72272 0.19700
C 	C 	0.54783 0.04466 0.76031 -0.10300
H 	H 	0.48115 0.93642 0.62797 0.02400
H 	H 	0.56630 0.07490 0.79715 0.06300
H 	H 	0.46822 0.93450 0.69666 0.02500
O 	O 	0.59155 0.08397 0.73447 -0.30500
H 	H 	0.57796 0.10168 0.72533 0.14300
C 	C 	0.51419 0.00261 0.16210 -0.05000
C 	C 	0.54240 0.99186 0.19522 -0.03300
C 	C 	0.54703 0.99638 0.24261 0.04500
C 	C 	0.52318 0.01146 0.25712 -0.17700
C 	C 	0.49412 0.02141 0.22318 0.19600
C 	C 	0.48979 0.01696 0.17596 -0.10300
H 	H 	0.56930 0.98837 0.26816 0.02400
H 	H 	0.46764 0.02500 0.15023 0.05700
H 	H 	0.56149 0.98091 0.18489 0.03700
O 	O 	0.46837 0.03347 0.23479 -0.31400
H 	H 	0.48638 0.06639 0.25414 0.14600
C 	C 	0.67063 0.75898 0.45255 -0.08800
C 	C 	0.68616 0.79215 0.50785 0.03700
C 	C 	0.62358 0.72757 0.49965 -0.04400
C 	C 	0.65162 0.70880 0.49218 -0.05300
C 	C 	0.65111 0.71069 0.44373 -0.04400
H 	H 	0.64444 0.76053 0.42035 0.04100
H 	H 	0.69943 0.76813 0.44905 0.03900
H 	H 	0.62291 0.72646 0.53391 0.02800
H 	H 	0.58781 0.70676 0.46365 0.02700
H 	H 	0.61591 0.68925 0.40670 0.04100
H 	H 	0.67144 0.69773 0.43757 0.03300
C 	C 	0.70156 0.73974 0.54266 -0.04300
H 	H 	0.72261 0.72688 0.53856 0.02800
H 	H 	0.70337 0.74014 0.57862 0.03300
C 	C 	0.72172 0.78797 0.55141 -0.08900
H 	H 	0.73335 0.81107 0.59150 0.03400
H 	H 	0.75215 0.79756 0.55109 0.03500
C 	C 	0.64385 0.77590 0.50958 -0.08800
H 	H 	0.65358 0.79736 0.54930 0.03700
H 	H 	0.61704 0.77795 0.47884 0.03900
C 	C 	0.84247 0.92545 0.55462 -0.08900
C 	C 	0.79881 0.91978 0.50955 0.03900
C 	C 	0.85180 0.98368 0.50603 -0.02400
C 	C 	0.86612 0.94965 0.49798 -0.05700
C 	C 	0.88124 0.94200 0.54736 -0.04200
H 	H 	0.85385 0.94949 0.59405 0.04000
H 	H 	0.83569 0.89358 0.55515 0.03700
H 	H 	0.84116 0.99047 0.47170 0.03400
H 	H 	0.88111 0.01573 0.54238 0.01200
H 	H 	0.91146 0.97335 0.58403 0.04200
H 	H 	0.89133 0.91717 0.54259 0.03600
C 	C 	0.82374 0.90498 0.44812 -0.04400
H 	H 	0.83315 0.87993 0.44092 0.03200
H 	H 	0.81094 0.90932 0.41202 0.03500
C 	C 	0.78513 0.88733 0.45519 -0.08900
H 	H 	0.75402 0.88261 0.42206 0.04000
H 	H 	0.77692 0.85409 0.45198 0.03900
C 	C 	0.81223 0.96611 0.51159 -0.09400
H 	H 	0.78275 0.96355 0.47853 0.04200
H 	H 	0.82246 0.99075 0.54993 0.04300
C 	C 	0.68321 0.96520 0.53886 -0.09800
C 	C 	0.66207 0.91695 0.49721 0.04100
C 	C 	0.58335 0.90218 0.47063 -0.03800
C 	C 	0.60399 0.94402 0.46573 -0.06500
C 	C 	0.64919 0.98072 0.52095 -0.01900
H 	H 	0.69322 0.96701 0.57820 0.04200
H 	H 	0.71448 0.98851 0.54450 0.04400
H 	H 	0.55151 0.87476 0.43142 0.03200
H 	H 	0.57425 0.90924 0.49905 0.01700
H 	H 	0.64243 0.98923 0.55142 0.01900
H 	H 	0.66476 0.01147 0.51882 0.01600
C 	C 	0.61536 0.93240 0.42512 -0.04000
H 	H 	0.63085 0.96217 0.42128 0.03700
H 	H 	0.58394 0.90616 0.38492 0.03400
C 	C 	0.64826 0.91588 0.44276 -0.09000
H 	H 	0.63196 0.88144 0.41178 0.04100
H 	H 	0.67847 0.93709 0.44512 0.04200
C 	C 	0.61730 0.88701 0.49006 -0.09100
H 	H 	0.60082 0.85183 0.46086 0.04000
H 	H 	0.62503 0.88850 0.52869 0.03900
C 	C 	0.67696 0.72797 0.02738 -0.03900
C 	C 	0.62807 0.69582 0.97519 -0.05500
C 	C 	0.61700 0.76089 0.98742 -0.09300
C 	C 	0.66115 0.77869 0.98944 0.03600
C 	C 	0.69616 0.77600 0.03556 -0.08600
H 	H 	0.67712 0.72819 0.06246 0.03400
H 	H 	0.69955 0.71635 0.02587 0.03000
H 	H 	0.59038 0.76131 0.95428 0.03800
H 	H 	0.62421 0.78241 0.02544 0.04100
H 	H 	0.70528 0.79875 0.07425 0.03700
H 	H 	0.72801 0.78697 0.03819 0.03800
C 	C 	0.64887 0.74581 0.93611 -0.08900
H 	H 	0.67912 0.75592 0.93536 0.03900
H 	H 	0.62328 0.74643 0.90214 0.04100
C 	C 	0.62992 0.69772 0.92799 -0.04300
H 	H 	0.59547 0.67549 0.88978 0.04000
H 	H 	0.65169 0.68566 0.92449 0.03300
C 	C 	0.59786 0.71298 0.97887 -0.04700
H 	H 	0.56269 0.69103 0.94173 0.02600
H 	H 	0.59579 0.71209 0.01240 0.03200
C 	C 	0.78812 0.95374 0.99644 -0.09700
C 	C 	0.77569 0.90786 0.99534 0.03200
C 	C 	0.80114 0.89239 0.93447 -0.04500
C 	C 	0.84250 0.93823 0.98305 -0.05700
C 	C 	0.82595 0.97063 0.98815 -0.02900
H 	H 	0.75775 0.95096 0.96451 0.04200
H 	H 	0.79998 0.97900 0.03545 0.04800
H 	H 	0.81176 0.86808 0.92983 0.03100
H 	H 	0.78807 0.89483 0.89707 0.03500
H 	H 	0.81240 0.97386 0.95131 0.03500
H 	H 	0.85473 0.00418 0.02213 0.01800
C 	C 	0.85871 0.93269 0.03397 -0.04000
H 	H 	0.88760 0.96518 0.06982 0.04600
H 	H 	0.87112 0.90962 0.03160 0.04000
C 	C 	0.81978 0.91452 0.04072 -0.08400
H 	H 	0.81374 0.88268 0.04102 0.04000
H 	H 	0.83047 0.93801 0.08004 0.04500
C 	C 	0.76228 0.87508 0.94125 -0.08700
H 	H 	0.75393 0.84188 0.93825 0.03800
H 	H 	0.73132 0.87032 0.90783 0.04000
C 	C 	0.61947 0.95919 0.95255 -0.04100
C 	C 	0.57736 0.92841 0.94832 -0.06600
C 	C 	0.59284 0.86667 0.92630 -0.09200
C 	C 	0.63854 0.90499 0.98023 0.04000
C 	C 	0.65527 0.94615 0.97171 -0.09600
H 	H 	0.60927 0.95716 0.91309 0.03900
H 	H 	0.63488 0.99423 0.98111 0.03900
H 	H 	0.57843 0.83630 0.92954 0.03900
H 	H 	0.59875 0.85765 0.89511 0.04200
H 	H 	0.66287 0.93899 0.94183 0.04300
H 	H 	0.68692 0.97519 0.00974 0.04600
C 	C 	0.62858 0.91760 0.02226 -0.09000
H 	H 	0.66054 0.94537 0.06106 0.04100
H 	H 	0.61545 0.88926 0.02928 0.04000
C 	C 	0.59315 0.93144 0.00378 -0.03500
H 	H 	0.56346 0.90956 0.00193 0.01700
H 	H 	0.60840 0.96593 0.03378 0.02100
C 	C 	0.55729 0.88004 0.90820 -0.03700
H 	H 	0.52704 0.85682 0.90449 0.02900
H 	H 	0.54585 0.87660 0.86791 0.03300
C 	C 	0.95196 0.61695 0.45076 -0.04000
C 	C 	0.93121 0.57907 0.46154 -0.05800
C 	C 	0.89001 0.61352 0.48276 -0.09000
C 	C 	0.87568 0.60846 0.42673 0.03800
C 	C 	0.92025 0.63473 0.43161 -0.09000
H 	H 	0.98571 0.64450 0.48765 0.02200
H 	H 	0.95745 0.60476 0.41998 0.01800
H 	H 	0.85996 0.59414 0.48175 0.03900
H 	H 	0.90661 0.64891 0.51145 0.04000
H 	H 	0.93909 0.67050 0.46066 0.03800
H 	H 	0.91185 0.63209 0.39237 0.03600
C 	C 	0.85279 0.55856 0.38787 -0.09000
H 	H 	0.84365 0.55432 0.34789 0.03700
H 	H 	0.82083 0.53747 0.38239 0.03800
C 	C 	0.88469 0.54128 0.40883 -0.04300
H 	H 	0.86844 0.51382 0.41552 0.03400
H 	H 	0.88937 0.52728 0.37791 0.02000
C 	C 	0.92269 0.59735 0.50325 -0.03900
H 	H 	0.90829 0.57109 0.51255 0.03400
H 	H 	0.95525 0.62551 0.54119 0.03600
C 	C 	0.86162 0.73899 0.37316 -0.08900
C 	C 	0.85605 0.73596 0.41797 0.03700
C 	C 	0.92853 0.81323 0.48368 -0.04200
C 	C 	0.89842 0.82012 0.43833 -0.05400
C 	C 	0.88651 0.78785 0.38526 -0.04300
H 	H 	0.88116 0.72428 0.36854 0.03700
H 	H 	0.82768 0.71970 0.33434 0.03700
H 	H 	0.93731 0.83569 0.52233 0.03700
H 	H 	0.96094 0.82188 0.48809 0.03600
H 	H 	0.91803 0.79612 0.38754 0.02500
H 	H 	0.86458 0.79165 0.35177 0.02700
C 	C 	0.85378 0.80722 0.43364 -0.04300
H 	H 	0.83089 0.81112 0.40103 0.03400
H 	H 	0.86112 0.82973 0.47123 0.03000
C 	C 	0.82919 0.75849 0.42193 -0.08900
H 	H 	0.82503 0.75819 0.45428 0.03800
H 	H 	0.79480 0.73987 0.38385 0.03700
C 	C 	0.90399 0.76457 0.47195 -0.08900
H 	H 	0.90090 0.76374 0.50486 0.04000
H 	H 	0.92544 0.75096 0.47169 0.03800
C 	C 	0.72656 0.64173 0.42824 -0.08600
C 	C 	0.74676 0.61208 0.42298 0.03600
C 	C 	0.73775 0.59571 0.49269 -0.04500
C 	C 	0.68978 0.58343 0.44943 -0.04800
C 	C 	0.69366 0.62508 0.44365 -0.05000
H 	H 	0.75427 0.67665 0.45924 0.03800
H 	H 	0.70774 0.64153 0.38978 0.03900
H 	H 	0.73600 0.56621 0.49750 0.03000
H 	H 	0.75114 0.62202 0.53190 0.03700
H 	H 	0.70600 0.65200 0.48176 0.03500
H 	H 	0.65968 0.61726 0.41266 0.03900
C 	C 	0.67303 0.54715 0.39548 -0.04700
H 	H 	0.63877 0.53779 0.36328 0.04600
H 	H 	0.67001 0.51669 0.39829 0.03400
C 	C 	0.70597 0.56383 0.37999 -0.08700
H 	H 	0.71769 0.54054 0.37469 0.03800
H 	H 	0.68744 0.56267 0.34081 0.04100
C 	C 	0.77088 0.61255 0.47753 -0.08700
H 	H 	0.78533 0.59127 0.47632 0.03800
H 	H 	0.79973 0.64686 0.50928 0.03900
C 	C 	0.92910 0.61756 0.98517 -0.04700
C 	C 	0.91107 0.57076 0.94313 -0.05700
C 	C 	0.83085 0.55192 0.90879 -0.08800
C 	C 	0.85192 0.59602 0.90703 0.03800
C 	C 	0.89458 0.63190 0.96457 -0.08700
H 	H 	0.93574 0.61780 0.02299 0.04200
H 	H 	0.96189 0.64221 0.99475 0.02400
H 	H 	0.80111 0.52469 0.86806 0.03700
H 	H 	0.81899 0.55591 0.93476 0.03900
H 	H 	0.88424 0.63787 0.99187 0.03900
H 	H 	0.91176 0.66409 0.96595 0.03700
C 	C 	0.86815 0.58784 0.87064 -0.09200
H 	H 	0.88476 0.61854 0.86901 0.03600
H 	H 	0.83843 0.56207 0.82920 0.03700
C 	C 	0.90236 0.57271 0.89143 -0.03900
H 	H 	0.88857 0.53951 0.85994 0.01800
H 	H 	0.93487 0.59614 0.89942 0.01500
C 	C 	0.86533 0.53787 0.93029 -0.04400
H 	H 	0.85132 0.50391 0.90024 0.03200
H 	H 	0.87068 0.53676 0.96707 0.03600
C 	C 	0.83114 0.79610 0.91904 -0.04300
C 	C 	0.87615 0.80970 0.92455 -0.05300
C 	C 	0.88253 0.75448 0.95859 -0.08700
C 	C 	0.83469 0.72559 0.90454 0.03700
C 	C 	0.80738 0.74761 0.90824 -0.08900
H 	H 	0.83789 0.81871 0.95612 0.02900
H 	H 	0.80799 0.79922 0.88573 0.03400
H 	H 	0.90436 0.74138 0.95843 0.03700
H 	H 	0.87943 0.75331 0.99140 0.03800
H 	H 	0.80401 0.74798 0.94125 0.03800
H 	H 	0.77270 0.72831 0.87046 0.03900
C 	C 	0.84033 0.72881 0.85981 -0.08900
H 	H 	0.80640 0.70944 0.82094 0.03700
H 	H 	0.86000 0.71423 0.85526 0.03600
C 	C 	0.86502 0.77768 0.87192 -0.04300
H 	H 	0.89686 0.78628 0.87487 0.02400
H 	H 	0.84323 0.78130 0.83815 0.02600
C 	C 	0.90642 0.80325 0.97035 -0.04800
H 	H 	0.93919 0.81265 0.97547 0.03600
H 	H 	0.91446 0.82537 0.00865 0.04300
C 	C 	0.71354 0.61986 0.97979 -0.05100
C 	C 	0.66907 0.57463 0.93465 -0.04500
C 	C 	0.67923 0.59395 0.86728 -0.08700
C 	C 	0.72493 0.59899 0.90579 0.03600
C 	C 	0.74621 0.63370 0.96336 -0.08600
H 	H 	0.70560 0.64591 0.98898 0.03400
H 	H 	0.73072 0.61767 0.01688 0.04200
H 	H 	0.66298 0.56906 0.82581 0.05200
H 	H 	0.68472 0.62572 0.86712 0.04600
H 	H 	0.75456 0.66695 0.96654 0.03800
H 	H 	0.77857 0.63729 0.99201 0.03800
C 	C 	0.71352 0.55336 0.90520 -0.08700
H 	H 	0.74520 0.55515 0.93234 0.03800
H 	H 	0.69648 0.52689 0.86431 0.04000
C 	C 	0.68168 0.53969 0.92273 -0.04700
H 	H 	0.65051 0.50672 0.89054 0.03800
H 	H 	0.69859 0.53603 0.95872 0.03000
C 	C 	0.64670 0.57933 0.88376 -0.05100
H 	H 	0.61536 0.54703 0.85023 0.05100
H 	H 	0.63666 0.60392 0.89080 0.03900
