data_crystal

_cell_length_a 69.16995
_cell_length_b 50.37763
_cell_length_c 24.25873
_cell_angle_alpha 90.00013
_cell_angle_beta  89.99933
_cell_angle_gamma 90.00024

_symmetry_space_group_name_	'P 1'
_symmetry_space_group_name_H-M	'P 1'

loop_
_symmetry_equiv_pos_as_xyz
  x,y,z

loop_
_atom_site_label
_atom_site_type_symbol
_atom_site_fract_x
_atom_site_fract_y
_atom_site_fract_z
_atom_site_charge
Cu	Cu	0.39377 0.67493 0.16927 0.94600
Cu	Cu	0.36406 0.65257 0.26446 0.90800
Cu	Cu	0.36290 0.63297 0.15105 0.91700
Cu	Cu	0.39497 0.63620 0.06631 0.92600
C 	C 	0.42891 0.66359 0.11177 0.29300
O 	O 	0.38555 0.69696 0.10326 -0.27000
C 	C 	0.32726 0.64162 0.20858 0.30800
O 	O 	0.39085 0.63492 0.14353 -0.63100
O 	O 	0.36679 0.66714 0.19004 -0.63600
O 	O 	0.40165 0.69060 0.24087 -0.26400
O 	O 	0.39015 0.65518 0.28803 -0.36500
O 	O 	0.41872 0.65840 0.06728 -0.30100
O 	O 	0.35811 0.60022 0.11006 -0.30200
C 	C 	0.36649 0.59415 0.06287 0.30900
C 	C 	0.37290 0.68837 0.06684 0.29300
O 	O 	0.37044 0.66279 0.05959 -0.30600
O 	O 	0.38468 0.60032 0.05387 -0.32000
O 	O 	0.42096 0.67574 0.15415 -0.26100
C 	C 	0.39890 0.67826 0.28775 0.31400
O 	O 	0.33532 0.63625 0.16056 -0.28800
O 	O 	0.33743 0.64075 0.25468 -0.31100
H 	H 	0.39805 0.62097 0.16365 0.20100
H 	H 	0.35726 0.68107 0.18061 0.27500
Cu	Cu	0.61287 0.65564 0.08559 0.94800
Cu	Cu	0.65445 0.62557 0.10484 0.93100
Cu	Cu	0.64091 0.66766 0.17961 0.92200
Cu	Cu	0.60029 0.69046 0.18775 0.93800
C 	C 	0.57305 0.66149 0.11610 0.31000
O 	O 	0.61098 0.69357 0.05767 -0.28100
C 	C 	0.68223 0.65881 0.16091 0.30100
O 	O 	0.61375 0.65847 0.17251 -0.62500
O 	O 	0.64084 0.65920 0.09937 -0.62700
O 	O 	0.61416 0.62327 0.03862 -0.26200
O 	O 	0.63336 0.60146 0.09978 -0.34800
O 	O 	0.57765 0.68435 0.13883 -0.30500
O 	O 	0.64037 0.67771 0.25729 -0.27300
C 	C 	0.62761 0.69422 0.27864 0.30000
C 	C 	0.61849 0.71372 0.08488 0.29100
O 	O 	0.62120 0.71194 0.13833 -0.30700
O 	O 	0.60925 0.69269 0.26483 -0.29500
O 	O 	0.58559 0.64870 0.08496 -0.29900
C 	C 	0.62234 0.60127 0.05577 0.30500
O 	O 	0.66871 0.67444 0.18169 -0.26600
O 	O 	0.67868 0.64322 0.11831 -0.30200
H 	H 	0.60967 0.64287 0.19445 0.23300
H 	H 	0.64762 0.67252 0.07651 0.26600
Cu	Cu	0.38703 0.36151 0.75273 0.95400
Cu	Cu	0.34752 0.35750 0.67305 0.93400
Cu	Cu	0.35325 0.40108 0.75774 0.91700
Cu	Cu	0.38633 0.40919 0.83667 0.94300
C 	C 	0.42204 0.38660 0.78897 0.30200
O 	O 	0.38556 0.34431 0.82788 -0.25600
C 	C 	0.31502 0.37996 0.72755 0.30600
O 	O 	0.38077 0.40224 0.76192 -0.63500
O 	O 	0.35825 0.36209 0.74611 -0.60800
O 	O 	0.39409 0.34169 0.68407 -0.23100
O 	O 	0.37063 0.36130 0.63310 -0.35800
O 	O 	0.41308 0.39471 0.83401 -0.28000
O 	O 	0.35056 0.43911 0.76783 -0.30700
C 	C 	0.35881 0.45279 0.80790 0.31000
C 	C 	0.37386 0.35320 0.86621 0.29400
O 	O 	0.36727 0.37754 0.86368 -0.31400
O 	O 	0.36981 0.44127 0.84543 -0.28500
O 	O 	0.41428 0.36809 0.75731 -0.24800
C 	C 	0.38401 0.34312 0.63834 0.31400
O 	O 	0.32587 0.40113 0.73597 -0.33100
O 	O 	0.32217 0.35859 0.70393 -0.29900
H 	H 	0.38678 0.41477 0.73557 0.25200
H 	H 	0.35146 0.35099 0.77365 0.23400
Cu	Cu	0.60343 0.37991 0.80319 0.94900
Cu	Cu	0.64473 0.40935 0.78020 0.92500
Cu	Cu	0.63446 0.36309 0.72166 0.90800
Cu	Cu	0.59491 0.34128 0.70357 0.94000
C 	C 	0.56490 0.37216 0.76253 0.30600
O 	O 	0.60049 0.34331 0.83683 -0.27000
C 	C 	0.67477 0.37053 0.75554 0.29700
O 	O 	0.60761 0.37376 0.71791 -0.63400
O 	O 	0.63175 0.37627 0.79841 -0.62600
O 	O 	0.60310 0.41377 0.84546 -0.25000
O 	O 	0.62366 0.43346 0.78488 -0.34600
O 	O 	0.57057 0.34884 0.74397 -0.28900
O 	O 	0.63718 0.35205 0.64502 -0.30500
C 	C 	0.62515 0.33592 0.61926 0.31000
C 	C 	0.60859 0.32205 0.81537 0.28800
O 	O 	0.61352 0.32170 0.76305 -0.30400
O 	O 	0.60646 0.33650 0.62966 -0.31200
O 	O 	0.57629 0.38634 0.79469 -0.26100
C 	C 	0.61304 0.43458 0.82960 0.31500
O 	O 	0.66185 0.35525 0.73073 -0.30200
O 	O 	0.66984 0.39283 0.78073 -0.28300
H 	H 	0.60486 0.38838 0.69178 0.22200
H 	H 	0.63817 0.36505 0.82647 0.24900
Cu	Cu	0.38294 0.87594 0.60859 0.94100
Cu	Cu	0.33977 0.89993 0.60349 0.95300
Cu	Cu	0.35115 0.84746 0.67207 0.93000
Cu	Cu	0.39072 0.82596 0.68327 0.93100
C 	C 	0.42123 0.86511 0.65010 0.30400
O 	O 	0.38994 0.84639 0.55493 -0.25800
C 	C 	0.31294 0.86374 0.65370 0.30700
O 	O 	0.37724 0.85834 0.68566 -0.63500
O 	O 	0.35507 0.86742 0.60187 -0.62300
O 	O 	0.38208 0.91543 0.59561 -0.29400
O 	O 	0.35375 0.91748 0.54767 -0.28100
O 	O 	0.41610 0.84006 0.65705 -0.29100
O 	O 	0.34735 0.83081 0.74299 -0.31600
C 	C 	0.36056 0.81676 0.76930 0.31100
C 	C 	0.38318 0.82216 0.56135 0.30000
O 	O 	0.37552 0.81524 0.60868 -0.33400
O 	O 	0.37631 0.80812 0.74413 -0.28300
O 	O 	0.40913 0.88296 0.62993 -0.28500
C 	C 	0.37109 0.92678 0.55795 0.30100
O 	O 	0.32403 0.84270 0.65741 -0.31300
O 	O 	0.32083 0.88746 0.65691 -0.30000
H 	H 	0.37909 0.86896 0.71961 0.23400
H 	H 	0.35193 0.85670 0.56889 0.24900
Cu	Cu	0.60283 0.84404 0.68648 0.94600
Cu	Cu	0.64281 0.86091 0.74849 0.90800
Cu	Cu	0.63240 0.88336 0.64221 0.91600
Cu	Cu	0.59427 0.88172 0.58555 0.94700
C 	C 	0.56436 0.85955 0.65868 0.30200
O 	O 	0.60229 0.82001 0.61957 -0.27600
C 	C 	0.67307 0.87585 0.67328 0.30700
O 	O 	0.60515 0.88332 0.65689 -0.63300
O 	O 	0.63109 0.84844 0.68050 -0.63200
O 	O 	0.60204 0.83296 0.76497 -0.28100
O 	O 	0.62023 0.86823 0.79016 -0.36000
O 	O 	0.57013 0.86292 0.60741 -0.26500
O 	O 	0.63290 0.91857 0.61044 -0.29100
C 	C 	0.62174 0.92717 0.57006 0.31100
C 	C 	0.61138 0.82633 0.57376 0.28900
O 	O 	0.61502 0.85132 0.56221 -0.31700
O 	O 	0.60471 0.91638 0.55936 -0.28000
O 	O 	0.57534 0.84674 0.69425 -0.26300
C 	C 	0.60873 0.84861 0.80374 0.31100
O 	O 	0.66057 0.88308 0.63486 -0.29100
O 	O 	0.66790 0.86071 0.71515 -0.33000
H 	H 	0.60065 0.89817 0.68036 0.24600
H 	H 	0.63828 0.83407 0.66164 0.20900
Cu	Cu	0.38397 0.14525 0.30249 0.94300
Cu	Cu	0.34267 0.11797 0.28128 0.93400
Cu	Cu	0.35472 0.17503 0.23263 0.93400
Cu	Cu	0.39411 0.19817 0.23838 0.92800
C 	C 	0.42333 0.15913 0.27684 0.29400
O 	O 	0.38658 0.17381 0.36145 -0.26900
C 	C 	0.31663 0.15607 0.23438 0.30300
O 	O 	0.38155 0.16547 0.22665 -0.63500
O 	O 	0.35582 0.15125 0.29822 -0.62700
O 	O 	0.38387 0.10548 0.31089 -0.29200
O 	O 	0.35307 0.09912 0.34154 -0.31700
O 	O 	0.41782 0.18416 0.27480 -0.29200
O 	O 	0.35357 0.19610 0.16613 -0.30300
C 	C 	0.36548 0.21572 0.15408 0.31600
C 	C 	0.37897 0.19768 0.35535 0.28800
O 	O 	0.37453 0.20632 0.30582 -0.29900
O 	O 	0.38364 0.21568 0.17111 -0.31000
O 	O 	0.41125 0.14024 0.29219 -0.26700
C 	C 	0.37148 0.09280 0.34270 0.30200
O 	O 	0.32700 0.17782 0.23783 -0.28100
O 	O 	0.32540 0.13320 0.22646 -0.31600
H 	H 	0.38501 0.15611 0.19213 0.20400
H 	H 	0.35043 0.15951 0.33187 0.25300
Cu	Cu	0.60562 0.17363 0.22754 0.93600
Cu	Cu	0.64434 0.15837 0.16239 0.95400
Cu	Cu	0.63485 0.13773 0.28527 0.92600
Cu	Cu	0.59764 0.14702 0.34394 0.95000
C 	C 	0.56706 0.16221 0.26476 0.30600
O 	O 	0.60604 0.20439 0.28160 -0.28200
C 	C 	0.67112 0.13363 0.23513 0.30800
O 	O 	0.60749 0.13809 0.27384 -0.63300
O 	O 	0.63396 0.16892 0.23421 -0.61900
O 	O 	0.60354 0.17592 0.14497 -0.29100
O 	O 	0.63447 0.18760 0.12346 -0.28400
O 	O 	0.57317 0.16315 0.31625 -0.25600
O 	O 	0.63521 0.10578 0.32916 -0.32100
C 	C 	0.62196 0.09911 0.36582 0.30900
C 	C 	0.61450 0.20246 0.33002 0.29500
O 	O 	0.61850 0.17905 0.35085 -0.33200
O 	O 	0.60948 0.11670 0.38517 -0.27100
O 	O 	0.57793 0.17135 0.22420 -0.28700
C 	C 	0.61583 0.18966 0.11482 0.29300
O 	O 	0.66268 0.13646 0.28310 -0.31800
O 	O 	0.66052 0.13021 0.19081 -0.30900
H 	H 	0.60229 0.12154 0.25761 0.25800
H 	H 	0.64070 0.18471 0.24909 0.21800
Cu	Cu	0.10320 0.86846 0.83487 0.94400
Cu	Cu	0.14459 0.89823 0.81504 0.90500
Cu	Cu	0.13246 0.85182 0.74779 0.91700
Cu	Cu	0.09224 0.83038 0.73593 0.95000
C 	C 	0.06409 0.86246 0.79831 0.30700
O 	O 	0.10042 0.83181 0.86836 -0.28600
C 	C 	0.17304 0.86490 0.76309 0.30300
O 	O 	0.10563 0.86255 0.74891 -0.62800
O 	O 	0.13141 0.86430 0.82573 -0.62900
O 	O 	0.10392 0.90232 0.87670 -0.28600
O 	O 	0.12311 0.92167 0.81257 -0.35200
O 	O 	0.06874 0.83875 0.77980 -0.26000
O 	O 	0.13319 0.84177 0.67051 -0.25400
C 	C 	0.12083 0.82557 0.64643 0.29200
C 	C 	0.10786 0.81049 0.84527 0.29100
O 	O 	0.11171 0.81021 0.79222 -0.32700
O 	O 	0.10239 0.82541 0.66021 -0.26000
O 	O 	0.07605 0.87570 0.83042 -0.26700
C 	C 	0.11161 0.92372 0.85529 0.31600
O 	O 	0.16044 0.84646 0.74875 -0.28700
O 	O 	0.16920 0.88133 0.80405 -0.34500
H 	H 	0.10242 0.87737 0.72371 0.25500
H 	H 	0.13782 0.85215 0.85213 0.20900
Cu	Cu	0.88612 0.83881 0.72534 0.94600
Cu	Cu	0.85058 0.84780 0.63519 0.92000
Cu	Cu	0.85414 0.88019 0.73980 0.92500
Cu	Cu	0.88524 0.87720 0.82791 0.92500
C 	C 	0.92087 0.85430 0.78081 0.29500
O 	O 	0.88109 0.81527 0.79151 -0.27300
C 	C 	0.81658 0.86736 0.68780 0.31400
O 	O 	0.88154 0.87827 0.75072 -0.63200
O 	O 	0.85802 0.84318 0.71138 -0.63000
O 	O 	0.89435 0.82564 0.65151 -0.29200
O 	O 	0.87529 0.85487 0.60564 -0.33600
O 	O 	0.91058 0.85845 0.82573 -0.29900
O 	O 	0.85217 0.91571 0.76970 -0.30900
C 	C 	0.85717 0.92232 0.82040 0.31300
C 	C 	0.86847 0.82161 0.82980 0.29500
O 	O 	0.86339 0.84652 0.83648 -0.30000
O 	O 	0.87240 0.91166 0.84484 -0.30500
O 	O 	0.91338 0.84182 0.73803 -0.27500
C 	C 	0.88832 0.83599 0.60487 0.31100
O 	O 	0.82760 0.88533 0.71207 -0.30600
O 	O 	0.82411 0.84828 0.65750 -0.30300
H 	H 	0.88893 0.89232 0.73144 0.20900
H 	H 	0.84975 0.83010 0.73055 0.26200
Cu	Cu	0.10114 0.14396 0.11484 0.94400
Cu	Cu	0.14386 0.11597 0.11762 0.90900
Cu	Cu	0.13407 0.16251 0.18828 0.92300
Cu	Cu	0.09200 0.17540 0.22737 0.94900
C 	C 	0.06268 0.15077 0.15894 0.31100
O 	O 	0.09656 0.18009 0.08242 -0.27800
C 	C 	0.17373 0.15137 0.15708 0.29700
O 	O 	0.10834 0.14846 0.19973 -0.62600
O 	O 	0.12939 0.14914 0.11227 -0.63000
O 	O 	0.10027 0.11066 0.07127 -0.29700
O 	O 	0.12329 0.09108 0.12416 -0.33100
O 	O 	0.06852 0.15513 0.20953 -0.27200
O 	O 	0.13850 0.17368 0.26375 -0.25800
C 	C 	0.12667 0.18931 0.29117 0.30000
C 	C 	0.09587 0.20226 0.11089 0.30700
O 	O 	0.10167 0.20274 0.16265 -0.29400
O 	O 	0.10802 0.18422 0.29254 -0.29700
O 	O 	0.07386 0.13741 0.12468 -0.29100
C 	C 	0.10996 0.08942 0.08582 0.30700
O 	O 	0.16142 0.16949 0.17491 -0.26300
O 	O 	0.16845 0.13402 0.11907 -0.33800
H 	H 	0.10822 0.13190 0.22172 0.21800
H 	H 	0.13402 0.16145 0.08330 0.22500
Cu	Cu	0.88054 0.16103 0.17115 0.94600
Cu	Cu	0.84436 0.15008 0.25051 0.94300
Cu	Cu	0.84953 0.12296 0.13040 0.92900
Cu	Cu	0.88438 0.12872 0.06089 0.93100
C 	C 	0.91798 0.15056 0.12405 0.30300
O 	O 	0.87850 0.18854 0.11056 -0.24500
C 	C 	0.81499 0.12301 0.19046 0.31100
O 	O 	0.87714 0.12323 0.13477 -0.63800
O 	O 	0.85218 0.15656 0.17393 -0.62100
O 	O 	0.88517 0.16862 0.25107 -0.29900
O 	O 	0.85522 0.18144 0.27949 -0.29600
O 	O 	0.90954 0.14686 0.07574 -0.28100
O 	O 	0.84755 0.08908 0.09341 -0.31700
C 	C 	0.85842 0.08109 0.05180 0.31300
C 	C 	0.86809 0.18435 0.06614 0.29700
O 	O 	0.86310 0.16006 0.05295 -0.32200
O 	O 	0.87166 0.09659 0.02908 -0.28300
O 	O 	0.90807 0.15829 0.16776 -0.28100
C 	C 	0.87398 0.18514 0.27840 0.29900
O 	O 	0.82190 0.12252 0.14016 -0.30400
O 	O 	0.82689 0.12134 0.23253 -0.32000
H 	H 	0.88292 0.10750 0.15285 0.22500
H 	H 	0.84498 0.17161 0.15762 0.26900
Cu	Cu	0.11557 0.66115 0.24913 0.93700
Cu	Cu	0.15502 0.64779 0.18472 0.95400
Cu	Cu	0.14686 0.63067 0.31118 0.93100
Cu	Cu	0.10953 0.63878 0.36915 0.92300
C 	C 	0.07742 0.65021 0.29073 0.29600
O 	O 	0.11443 0.69370 0.29850 -0.27600
C 	C 	0.18360 0.63154 0.26207 0.30500
O 	O 	0.11948 0.62775 0.30055 -0.63700
O 	O 	0.14407 0.65961 0.25505 -0.62300
O 	O 	0.11316 0.66016 0.16677 -0.29700
O 	O 	0.14320 0.67423 0.14150 -0.27000
O 	O 	0.08430 0.65271 0.34125 -0.29700
O 	O 	0.14906 0.60077 0.36091 -0.29600
C 	C 	0.13618 0.59430 0.39884 0.30000
C 	C 	0.12375 0.69452 0.34573 0.29700
O 	O 	0.12915 0.67234 0.36955 -0.31200
O 	O 	0.12251 0.61098 0.41472 -0.29300
O 	O 	0.08816 0.65572 0.24719 -0.28700
C 	C 	0.12441 0.67437 0.13446 0.29800
O 	O 	0.17475 0.63323 0.30976 -0.28100
O 	O 	0.17382 0.62438 0.21810 -0.31200
H 	H 	0.11501 0.61016 0.28757 0.20200
H 	H 	0.14992 0.67653 0.26718 0.27100
Cu	Cu	0.89451 0.65156 0.30721 0.94500
Cu	Cu	0.85017 0.62809 0.30611 0.93800
Cu	Cu	0.86464 0.66402 0.21864 0.91400
Cu	Cu	0.90578 0.68041 0.19651 0.94700
C 	C 	0.93365 0.65107 0.26721 0.31100
O 	O 	0.90037 0.68966 0.32811 -0.27500
C 	C 	0.82354 0.66115 0.24676 0.30300
O 	O 	0.89091 0.65112 0.22100 -0.62900
O 	O 	0.86659 0.65929 0.30006 -0.62300
O 	O 	0.89233 0.62088 0.35857 -0.27800
O 	O 	0.86933 0.60112 0.30581 -0.33700
O 	O 	0.92966 0.67307 0.24006 -0.25900
O 	O 	0.86360 0.66704 0.13922 -0.28100
C 	C 	0.87564 0.68179 0.11034 0.29600
C 	C 	0.89357 0.70986 0.29967 0.29300
O 	O 	0.88869 0.70679 0.24775 -0.32900
O 	O 	0.89433 0.68208 0.12143 -0.25600
O 	O 	0.92098 0.64057 0.30158 -0.29800
C 	C 	0.88201 0.59990 0.34588 0.30500
O 	O 	0.83723 0.67373 0.21918 -0.29700
O 	O 	0.82738 0.64900 0.29368 -0.31800
H 	H 	0.89312 0.63428 0.20093 0.24100
H 	H 	0.86186 0.67481 0.32118 0.21800
Cu	Cu	0.10053 0.33617 0.69228 0.94400
Cu	Cu	0.13959 0.34608 0.76686 0.91400
Cu	Cu	0.13218 0.37617 0.66426 0.91700
Cu	Cu	0.09654 0.37736 0.59551 0.93600
C 	C 	0.06335 0.35409 0.65572 0.29400
O 	O 	0.10162 0.31419 0.62236 -0.26300
C 	C 	0.17145 0.36614 0.70445 0.31000
O 	O 	0.10459 0.37625 0.66989 -0.63600
O 	O 	0.12909 0.33937 0.69388 -0.62800
O 	O 	0.09656 0.32179 0.76798 -0.29000
O 	O 	0.11629 0.35287 0.80484 -0.34000
O 	O 	0.07103 0.35966 0.60730 -0.25800
O 	O 	0.13398 0.41284 0.64091 -0.30000
C 	C 	0.12298 0.42440 0.60340 0.30900
C 	C 	0.11227 0.32145 0.58008 0.29200
O 	O 	0.11709 0.34646 0.57383 -0.33400
O 	O 	0.10993 0.41102 0.57479 -0.28300
O 	O 	0.07299 0.34017 0.69272 -0.26400
C 	C 	0.10394 0.33346 0.81151 0.31400
O 	O 	0.16046 0.37550 0.66433 -0.30800
O 	O 	0.16523 0.34726 0.73757 -0.33100
H 	H 	0.09918 0.39031 0.69389 0.23500
H 	H 	0.13634 0.32583 0.67273 0.20700
Cu	Cu	0.88278 0.38272 0.60511 0.94400
Cu	Cu	0.84042 0.40841 0.62397 0.91600
Cu	Cu	0.85362 0.35102 0.67205 0.93900
Cu	Cu	0.89302 0.32766 0.66065 0.93900
C 	C 	0.92154 0.36989 0.63743 0.30600
O 	O 	0.88650 0.35727 0.54101 -0.27900
C 	C 	0.81639 0.37169 0.68392 0.30400
O 	O 	0.88040 0.35974 0.67762 -0.63300
O 	O 	0.85462 0.37561 0.60756 -0.62200
O 	O 	0.88170 0.42234 0.60196 -0.31200
O 	O 	0.85150 0.42932 0.56735 -0.31500
O 	O 	0.91720 0.34448 0.63291 -0.29900
O 	O 	0.85304 0.32961 0.73796 -0.25700
C 	C 	0.86660 0.31274 0.75334 0.31100
C 	C 	0.87951 0.33299 0.54225 0.29500
O 	O 	0.87447 0.32236 0.58948 -0.31300
O 	O 	0.88086 0.30580 0.71998 -0.28100
O 	O 	0.90988 0.38827 0.61730 -0.29200
C 	C 	0.87008 0.43469 0.56751 0.30500
O 	O 	0.82584 0.34999 0.67128 -0.27000
O 	O 	0.82567 0.39450 0.68608 -0.34500
H 	H 	0.88412 0.36792 0.71319 0.25900
H 	H 	0.84966 0.36725 0.57350 0.24900
C 	C 	0.00913 0.34706 0.64126 0.04500
C 	C 	0.00287 0.37078 0.66559 0.09600
C 	C 	0.01634 0.38755 0.69252 -0.07800
C 	C 	0.03611 0.38096 0.69099 0.08200
C 	C 	0.04246 0.35810 0.66349 0.03200
C 	C 	0.02881 0.34021 0.64087 -0.04500
C 	C 	0.98205 0.37755 0.66300 0.10500
C 	C 	0.00961 0.41165 0.72502 0.78900
H 	H 	0.04667 0.39383 0.71032 0.11800
C 	C 	0.03523 0.31465 0.61327 0.78300
H 	H 	0.99862 0.33420 0.62169 0.13800
C 	C 	0.97371 0.38741 0.61365 -0.09100
C 	C 	0.95352 0.38640 0.60714 0.08800
C 	C 	0.94168 0.37709 0.64983 0.02000
C 	C 	0.94986 0.37108 0.70175 -0.05500
C 	C 	0.97007 0.37012 0.70701 0.04400
C 	C 	0.98626 0.39619 0.56562 0.79100
H 	H 	0.94708 0.39138 0.56772 0.12100
C 	C 	0.93716 0.36398 0.75054 0.78100
H 	H 	0.97652 0.36244 0.74447 0.14700
F 	F 	0.01984 0.29755 0.60489 -0.35600
F 	F 	0.04864 0.30154 0.64565 -0.36200
F 	F 	0.04336 0.32051 0.56271 -0.33600
F 	F 	0.99969 0.40338 0.77141 -0.37100
F 	F 	0.99758 0.42735 0.69324 -0.35200
F 	F 	0.02501 0.42722 0.74186 -0.35400
F 	F 	0.93097 0.33799 0.74555 -0.40000
F 	F 	0.92124 0.38059 0.75275 -0.39900
F 	F 	0.94713 0.36661 0.79973 -0.34700
F 	F 	0.97592 0.41196 0.52936 -0.35400
F 	F 	0.99285 0.37411 0.53747 -0.37700
F 	F 	0.00193 0.41081 0.58381 -0.35800
C 	C 	0.87903 0.48053 0.44710 0.04000
C 	C 	0.88495 0.50369 0.47437 0.10200
C 	C 	0.88846 0.50307 0.53197 -0.09200
C 	C 	0.88407 0.47987 0.56173 0.08400
C 	C 	0.87739 0.45709 0.53458 0.01300
C 	C 	0.87623 0.45677 0.47637 -0.05100
C 	C 	0.88505 0.52910 0.44352 0.09800
C 	C 	0.89511 0.52772 0.56270 0.79000
H 	H 	0.88510 0.47983 0.60632 0.11200
C 	C 	0.87105 0.43154 0.44552 0.77900
H 	H 	0.87611 0.48125 0.40323 0.13900
C 	C 	0.90041 0.53579 0.40735 -0.08600
C 	C 	0.89900 0.55902 0.37535 0.08700
C 	C 	0.88308 0.57603 0.38072 0.01600
C 	C 	0.86827 0.57006 0.41907 -0.05200
C 	C 	0.86903 0.54600 0.44825 0.04400
C 	C 	0.91757 0.51731 0.39963 0.79000
H 	H 	0.91017 0.56375 0.34558 0.11600
C 	C 	0.85123 0.58869 0.42718 0.77300
H 	H 	0.85712 0.54026 0.47470 0.13300
F 	F 	0.88077 0.41002 0.46765 -0.40600
F 	F 	0.87608 0.43334 0.39040 -0.36100
F 	F 	0.85136 0.42719 0.44911 -0.38600
F 	F 	0.87952 0.54439 0.57115 -0.38200
F 	F 	0.90917 0.54113 0.53321 -0.35700
F 	F 	0.90294 0.52117 0.61344 -0.36200
F 	F 	0.84060 0.58202 0.47352 -0.36700
F 	F 	0.83920 0.58735 0.38176 -0.44400
F 	F 	0.85761 0.61452 0.43384 -0.41800
F 	F 	0.93271 0.53004 0.37324 -0.35700
F 	F 	0.91205 0.49578 0.36802 -0.37700
F 	F 	0.92437 0.50838 0.44993 -0.35400
C 	C 	0.14469 0.54636 0.51616 0.04000
C 	C 	0.13769 0.52270 0.49322 0.10400
C 	C 	0.13171 0.52211 0.43729 -0.09300
C 	C 	0.13209 0.54572 0.40636 0.08300
C 	C 	0.13877 0.56943 0.42971 0.01500
C 	C 	0.14618 0.56951 0.48409 -0.04400
C 	C 	0.13508 0.49927 0.52944 0.09600
C 	C 	0.12323 0.49705 0.41205 0.79000
H 	H 	0.12647 0.54595 0.36466 0.09900
C 	C 	0.15478 0.59452 0.50891 0.77900
H 	H 	0.14872 0.54678 0.55932 0.14700
C 	C 	0.15034 0.48103 0.53852 -0.08200
C 	C 	0.14637 0.45703 0.56597 0.08900
C 	C 	0.12774 0.45164 0.58594 0.02800
C 	C 	0.11338 0.47162 0.58398 -0.05000
C 	C 	0.11700 0.49493 0.55395 0.04800
C 	C 	0.17081 0.48728 0.51974 0.79000
H 	H 	0.15753 0.44206 0.57004 0.12200
C 	C 	0.09390 0.46773 0.61166 0.77900
H 	H 	0.10561 0.50946 0.54833 0.13600
F 	F 	0.16523 0.58895 0.55620 -0.35100
F 	F 	0.14011 0.61201 0.52231 -0.37600
F 	F 	0.16720 0.60654 0.47179 -0.37400
F 	F 	0.10498 0.49266 0.43348 -0.38600
F 	F 	0.13480 0.47534 0.42327 -0.36900
F 	F 	0.12167 0.49916 0.35532 -0.37000
F 	F 	0.08487 0.49184 0.62104 -0.36200
F 	F 	0.09608 0.45522 0.66207 -0.40000
F 	F 	0.08214 0.45248 0.57817 -0.38100
F 	F 	0.18345 0.46670 0.53124 -0.35800
F 	F 	0.17740 0.50973 0.54662 -0.37200
F 	F 	0.17117 0.49171 0.46349 -0.35900
C 	C 	0.02414 0.66695 0.27959 0.04000
C 	C 	0.01596 0.64148 0.27865 0.10000
C 	C 	0.02809 0.61880 0.27763 -0.08700
C 	C 	0.04828 0.62225 0.27966 0.08100
C 	C 	0.05638 0.64768 0.28347 0.01800
C 	C 	0.04429 0.67035 0.28256 -0.04400
C 	C 	0.99460 0.63893 0.27797 0.10300
C 	C 	0.01965 0.59109 0.27144 0.78900
H 	H 	0.05776 0.60514 0.27871 0.10100
C 	C 	0.05286 0.69812 0.28510 0.78100
H 	H 	0.01469 0.68409 0.27878 0.14400
C 	C 	0.98358 0.64237 0.32679 -0.08500
C 	C 	0.96339 0.64503 0.32277 0.09200
C 	C 	0.95406 0.64291 0.27164 0.02800
C 	C 	0.96486 0.63624 0.22411 -0.05100
C 	C 	0.98515 0.63578 0.22723 0.04700
C 	C 	0.99337 0.64582 0.38243 0.79100
H 	H 	0.95499 0.65006 0.35901 0.13100
C 	C 	0.95494 0.63101 0.16939 0.77800
H 	H 	0.99366 0.63359 0.18999 0.14300
F 	F 	0.06286 0.70137 0.33399 -0.38400
F 	F 	0.03873 0.71755 0.28242 -0.35800
F 	F 	0.06537 0.70189 0.24131 -0.39200
F 	F 	0.01224 0.58811 0.21888 -0.37700
F 	F 	0.00504 0.58698 0.30944 -0.35600
F 	F 	0.03349 0.57165 0.27971 -0.36700
F 	F 	0.95027 0.65489 0.14466 -0.38800
F 	F 	0.93826 0.61630 0.17712 -0.40100
F 	F 	0.96685 0.61685 0.13417 -0.35200
F 	F 	0.98041 0.64204 0.42522 -0.35500
F 	F 	0.00083 0.67121 0.38635 -0.37400
F 	F 	0.00817 0.62764 0.38904 -0.36400
C 	C 	0.86700 0.28233 0.43363 0.04600
C 	C 	0.88553 0.27423 0.41732 0.09600
C 	C 	0.90196 0.28880 0.43478 -0.08400
C 	C 	0.89952 0.30949 0.47315 0.08400
C 	C 	0.88109 0.31598 0.49313 0.02500
C 	C 	0.86457 0.30370 0.47018 -0.05000
C 	C 	0.88748 0.25034 0.38211 0.10600
C 	C 	0.92189 0.28285 0.41142 0.78900
H 	H 	0.91201 0.31994 0.48919 0.11300
C 	C 	0.84441 0.31314 0.48505 0.77900
H 	H 	0.85450 0.27157 0.41856 0.13800
C 	C 	0.88609 0.22450 0.40503 -0.09300
C 	C 	0.88320 0.20273 0.36970 0.08800
C 	C 	0.88252 0.20623 0.31245 0.02000
C 	C 	0.88647 0.23146 0.28954 -0.04800
C 	C 	0.88812 0.25352 0.32472 0.04200
C 	C 	0.88551 0.22036 0.46706 0.79100
H 	H 	0.88031 0.18325 0.38681 0.11100
C 	C 	0.88767 0.23514 0.22756 0.77400
H 	H 	0.88905 0.27333 0.30757 0.14800
F 	F 	0.83067 0.30314 0.44910 -0.36500
F 	F 	0.84354 0.34055 0.48248 -0.40400
F 	F 	0.83983 0.30492 0.53783 -0.39500
F 	F 	0.92218 0.28882 0.35581 -0.37500
F 	F 	0.92640 0.25632 0.41845 -0.36000
F 	F 	0.93613 0.29769 0.43708 -0.36500
F 	F 	0.89455 0.26008 0.21376 -0.35700
F 	F 	0.86951 0.23203 0.20459 -0.38600
F 	F 	0.90010 0.21654 0.20517 -0.39800
F 	F 	0.88918 0.19414 0.48060 -0.36600
F 	F 	0.86741 0.22709 0.48680 -0.38700
F 	F 	0.89929 0.23578 0.49311 -0.37200
C 	C 	0.84895 0.24102 0.97930 0.04400
C 	C 	0.86390 0.24372 0.94065 0.10000
C 	C 	0.88090 0.22819 0.94581 -0.07900
C 	C 	0.88200 0.20910 0.98790 0.08200
C 	C 	0.86659 0.20538 0.02452 0.03400
C 	C 	0.84998 0.22164 0.02097 -0.04200
C 	C 	0.86165 0.26292 0.89488 0.10100
C 	C 	0.89816 0.23277 0.90812 0.78800
H 	H 	0.89482 0.19693 0.99222 0.13400
C 	C 	0.83345 0.21834 0.06155 0.77700
H 	H 	0.83636 0.25372 0.97606 0.14700
C 	C 	0.85279 0.25533 0.84464 -0.08100
C 	C 	0.85403 0.27244 0.79900 0.09600
C 	C 	0.86341 0.29699 0.80341 0.03800
C 	C 	0.87045 0.30570 0.85505 -0.04200
C 	C 	0.86941 0.28848 0.90058 0.04900
C 	C 	0.84197 0.22917 0.83983 0.79100
H 	H 	0.84807 0.26651 0.75957 0.13300
C 	C 	0.87970 0.33288 0.86100 0.77800
H 	H 	0.87539 0.29442 0.93997 0.14500
F 	F 	0.81861 0.23616 0.05163 -0.35700
F 	F 	0.84011 0.22247 0.11462 -0.37700
F 	F 	0.82599 0.19293 0.05757 -0.39700
F 	F 	0.90568 0.25780 0.91741 -0.37100
F 	F 	0.89266 0.23069 0.85350 -0.36800
F 	F 	0.91271 0.21441 0.91734 -0.34600
F 	F 	0.88436 0.33851 0.91526 -0.35500
F 	F 	0.86707 0.35224 0.84262 -0.38200
F 	F 	0.89646 0.33389 0.82998 -0.36500
F 	F 	0.83432 0.22554 0.78762 -0.35600
F 	F 	0.82687 0.22870 0.87714 -0.37700
F 	F 	0.85429 0.20819 0.85067 -0.36800
C 	C 	0.13895 0.25200 0.36666 0.04400
C 	C 	0.13711 0.24324 0.42130 0.10700
C 	C 	0.13676 0.21563 0.43262 -0.09000
C 	C 	0.13528 0.19764 0.38850 0.09100
C 	C 	0.13470 0.20677 0.33397 0.03700
C 	C 	0.13822 0.23387 0.32266 -0.04900
C 	C 	0.13120 0.26270 0.46390 0.09700
C 	C 	0.13539 0.20538 0.49134 0.79100
H 	H 	0.13309 0.17670 0.39669 0.12400
C 	C 	0.13879 0.24398 0.26377 0.77800
H 	H 	0.13937 0.27313 0.35831 0.14600
C 	C 	0.14488 0.27937 0.49032 -0.08900
C 	C 	0.13832 0.29856 0.52822 0.08000
C 	C 	0.11851 0.30161 0.53904 0.01400
C 	C 	0.10486 0.28614 0.50971 -0.05100
C 	C 	0.11143 0.26592 0.47462 0.04100
C 	C 	0.16618 0.27832 0.47497 0.78900
H 	H 	0.14859 0.31132 0.54909 0.09400
C 	C 	0.08331 0.29121 0.51534 0.78300
H 	H 	0.10114 0.25303 0.45417 0.13600
F 	F 	0.14706 0.26897 0.26091 -0.34900
F 	F 	0.12016 0.24539 0.24328 -0.41200
F 	F 	0.14961 0.22714 0.23096 -0.38800
F 	F 	0.11636 0.20634 0.50864 -0.38500
F 	F 	0.14662 0.22039 0.52672 -0.36300
F 	F 	0.14179 0.17938 0.49461 -0.35900
F 	F 	0.07294 0.27898 0.47364 -0.35600
F 	F 	0.07952 0.31815 0.51246 -0.38100
F 	F 	0.07689 0.28138 0.56528 -0.34700
F 	F 	0.17745 0.29183 0.51287 -0.37100
F 	F 	0.16878 0.28987 0.42383 -0.37500
F 	F 	0.17270 0.25238 0.47315 -0.35200
C 	C 	0.08231 0.25051 0.99804 0.04100
C 	C 	0.09599 0.27049 0.00718 0.10000
C 	C 	0.10615 0.27136 0.05776 -0.07800
C 	C 	0.10526 0.24927 0.09325 0.08300
C 	C 	0.09319 0.22762 0.08082 0.03500
C 	C 	0.08018 0.22954 0.03560 -0.04500
C 	C 	0.10066 0.28893 0.96152 0.10500
C 	C 	0.11807 0.29552 0.07342 0.78900
H 	H 	0.11460 0.24834 0.12904 0.14300
C 	C 	0.06473 0.20875 0.02514 0.78600
H 	H 	0.07392 0.25068 0.96029 0.13400
C 	C 	0.11368 0.28127 0.91923 -0.09900
C 	C 	0.11478 0.29662 0.87099 0.08500
C 	C 	0.10344 0.31943 0.86462 -0.00400
C 	C 	0.09119 0.32786 0.90781 -0.04000
C 	C 	0.08976 0.31228 0.95581 0.03500
C 	C 	0.12487 0.25532 0.92274 0.79000
H 	H 	0.12406 0.29040 0.83738 0.08100
C 	C 	0.07912 0.35287 0.90184 0.77600
H 	H 	0.07964 0.31767 0.98799 0.14900
F 	F 	0.04941 0.21956 0.99603 -0.37300
F 	F 	0.05743 0.19894 0.07399 -0.40500
F 	F 	0.07244 0.18815 0.99458 -0.38400
F 	F 	0.10670 0.31805 0.07079 -0.37600
F 	F 	0.13348 0.29829 0.03760 -0.35800
F 	F 	0.12528 0.29352 0.12651 -0.34800
F 	F 	0.06860 0.35830 0.94908 -0.35800
F 	F 	0.06630 0.34992 0.85849 -0.38600
F 	F 	0.09105 0.37432 0.89148 -0.37200
F 	F 	0.13933 0.25413 0.88334 -0.38200
F 	F 	0.11241 0.23426 0.91427 -0.39500
F 	F 	0.13356 0.25261 0.97374 -0.38200
C 	C 	0.00979 0.17081 0.16779 0.04900
C 	C 	0.00126 0.15187 0.13332 0.10100
C 	C 	0.01303 0.13494 0.10108 -0.08000
C 	C 	0.03316 0.13506 0.10954 0.09400
C 	C 	0.04171 0.15310 0.14653 0.04300
C 	C 	0.02996 0.17272 0.17233 -0.04000
C 	C 	0.97991 0.15061 0.13012 0.10500
C 	C 	0.00426 0.11756 0.05636 0.79100
H 	H 	0.04217 0.12089 0.08797 0.13000
C 	C 	0.03857 0.19516 0.20644 0.78200
H 	H 	0.00061 0.18412 0.19121 0.14100
C 	C 	0.96912 0.13503 0.16781 -0.08900
C 	C 	0.94881 0.13527 0.16470 0.08600
C 	C 	0.93924 0.15152 0.12657 0.02300
C 	C 	0.95005 0.16882 0.09224 -0.04100
C 	C 	0.97032 0.16715 0.09258 0.04100
C 	C 	0.97912 0.11979 0.21382 0.79000
H 	H 	0.94035 0.12295 0.19225 0.11000
C 	C 	0.94014 0.18879 0.05465 0.77700
H 	H 	0.97876 0.17919 0.06442 0.15000
F 	F 	0.04182 0.18638 0.25964 -0.38600
F 	F 	0.02602 0.21655 0.20870 -0.36200
F 	F 	0.05571 0.20427 0.18407 -0.42000
F 	F 	0.99549 0.13340 0.01709 -0.37500
F 	F 	0.99060 0.10067 0.07875 -0.35900
F 	F 	0.01809 0.10221 0.03019 -0.36200
F 	F 	0.95284 0.20846 0.03794 -0.35300
F 	F 	0.92495 0.20110 0.08159 -0.38100
F 	F 	0.93327 0.17597 0.00824 -0.37000
F 	F 	0.96631 0.10378 0.24243 -0.36900
F 	F 	0.98725 0.13750 0.25066 -0.38300
F 	F 	0.99348 0.10366 0.19264 -0.36400
C 	C 	0.89526 0.82060 0.45292 0.04100
C 	C 	0.89395 0.79282 0.45359 0.10000
C 	C 	0.89367 0.77912 0.50457 -0.09300
C 	C 	0.89189 0.79372 0.55359 0.08400
C 	C 	0.89221 0.82159 0.55292 0.00400
C 	C 	0.89538 0.83514 0.50247 -0.05000
C 	C 	0.89340 0.77814 0.40074 0.09800
C 	C 	0.89573 0.74906 0.50689 0.79000
H 	H 	0.88988 0.78345 0.59240 0.11600
C 	C 	0.89854 0.86495 0.50085 0.77900
H 	H 	0.89610 0.83087 0.41373 0.14100
C 	C 	0.87568 0.76904 0.37860 -0.09000
C 	C 	0.87585 0.74727 0.34231 0.09200
C 	C 	0.89344 0.73646 0.32446 0.01900
C 	C 	0.91098 0.74957 0.33726 -0.04500
C 	C 	0.91083 0.77002 0.37664 0.04800
C 	C 	0.85666 0.78162 0.39556 0.79100
H 	H 	0.86240 0.73788 0.33023 0.09700
C 	C 	0.92996 0.74059 0.31215 0.78000
H 	H 	0.92434 0.77823 0.39157 0.13800
F 	F 	0.88088 0.87777 0.50302 -0.38600
F 	F 	0.90788 0.87245 0.45282 -0.36700
F 	F 	0.90987 0.87311 0.54471 -0.38900
F 	F 	0.91271 0.74142 0.48139 -0.38700
F 	F 	0.88029 0.73707 0.48065 -0.38100
F 	F 	0.89628 0.73983 0.56063 -0.36700
F 	F 	0.92757 0.73479 0.25681 -0.40600
F 	F 	0.93650 0.71820 0.33935 -0.38500
F 	F 	0.94390 0.76021 0.31633 -0.36400
F 	F 	0.84176 0.77396 0.36094 -0.37000
F 	F 	0.85810 0.80898 0.39319 -0.38800
F 	F 	0.85204 0.77414 0.44877 -0.37400
C 	C 	0.85072 0.75883 0.89770 0.04600
C 	C 	0.86138 0.75919 0.94683 0.10500
C 	C 	0.87295 0.78157 0.96000 -0.09100
C 	C 	0.87396 0.80281 0.92248 0.09300
C 	C 	0.86372 0.80204 0.87269 0.02700
C 	C 	0.85119 0.78055 0.86139 -0.04600
C 	C 	0.86176 0.73505 0.98164 0.09400
C 	C 	0.88573 0.78170 0.01103 0.79400
H 	H 	0.88355 0.81938 0.93050 0.11100
C 	C 	0.83876 0.78043 0.80995 0.77900
H 	H 	0.84231 0.74136 0.88744 0.14800
C 	C 	0.84843 0.73156 0.02531 -0.07800
C 	C 	0.85234 0.71231 0.06580 0.08900
C 	C 	0.86846 0.69558 0.06076 0.03500
C 	C 	0.87908 0.69540 0.01082 -0.03900
C 	C 	0.87626 0.71608 0.97289 0.04400
C 	C 	0.83033 0.74853 0.02918 0.79200
H 	H 	0.84355 0.71130 0.10272 0.12400
C 	C 	0.89361 0.67372 0.99806 0.77400
H 	H 	0.88572 0.71793 0.93745 0.13800
F 	F 	0.82943 0.80455 0.80469 -0.37500
F 	F 	0.82478 0.76078 0.81199 -0.34800
F 	F 	0.85024 0.77615 0.76416 -0.40400
F 	F 	0.90067 0.76377 0.00418 -0.38100
F 	F 	0.87519 0.77482 0.05729 -0.37700
F 	F 	0.89366 0.80652 0.02045 -0.36500
F 	F 	0.88810 0.64985 0.02156 -0.36600
F 	F 	0.91158 0.68094 0.01802 -0.35200
F 	F 	0.89503 0.66984 0.94170 -0.35800
F 	F 	0.81850 0.74055 0.07214 -0.35600
F 	F 	0.81985 0.74648 0.98083 -0.37000
F 	F 	0.83530 0.77480 0.03760 -0.35500
C 	C 	0.83640 0.96746 0.92752 0.04100
C 	C 	0.84444 0.99177 0.91111 0.10500
C 	C 	0.85288 0.99416 0.85804 -0.09500
C 	C 	0.85539 0.97122 0.82578 0.08700
C 	C 	0.84891 0.94650 0.84470 0.01400
C 	C 	0.83774 0.94504 0.89333 -0.05200
C 	C 	0.84685 0.01301 0.95279 0.09700
C 	C 	0.86129 0.02036 0.83837 0.79100
H 	H 	0.86360 0.97224 0.78778 0.11000
C 	C 	0.82862 0.91906 0.91121 0.77700
H 	H 	0.83000 0.96571 0.96814 0.14400
C 	C 	0.83177 0.03119 0.96454 -0.08800
C 	C 	0.83548 0.05266 0.00016 0.09100
C 	C 	0.85372 0.05579 0.02456 0.01900
C 	C 	0.86788 0.03576 0.01823 -0.04700
C 	C 	0.86452 0.01499 0.98084 0.04000
C 	C 	0.81162 0.02719 0.94089 0.79000
H 	H 	0.82442 0.06745 0.00761 0.11700
C 	C 	0.88690 0.03703 0.04936 0.77700
H 	H 	0.87578 0.00056 0.97262 0.13200
F 	F 	0.81382 0.92335 0.94858 -0.35400
F 	F 	0.84248 0.90320 0.93571 -0.39300
F 	F 	0.82092 0.90588 0.86621 -0.38500
F 	F 	0.87916 0.02429 0.86257 -0.38700
F 	F 	0.84926 0.04130 0.85185 -0.36400
F 	F 	0.86359 0.02045 0.78167 -0.36500
F 	F 	0.89574 0.01239 0.05127 -0.36900
F 	F 	0.88391 0.04527 0.10312 -0.41000
F 	F 	0.89921 0.05464 0.02333 -0.38400
F 	F 	0.79955 0.04834 0.95294 -0.36000
F 	F 	0.80354 0.00447 0.96303 -0.37500
F 	F 	0.81244 0.02467 0.88417 -0.35500
C 	C 	0.12446 0.80537 0.49701 0.04800
C 	C 	0.12958 0.77860 0.50306 0.10100
C 	C 	0.13598 0.76913 0.55492 -0.08400
C 	C 	0.13411 0.78558 0.60144 0.09200
C 	C 	0.12681 0.81139 0.59629 0.04300
C 	C 	0.12325 0.82210 0.54332 -0.03800
C 	C 	0.12681 0.76021 0.45600 0.09800
C 	C 	0.14447 0.74145 0.56078 0.79100
H 	H 	0.13754 0.77800 0.64208 0.11600
C 	C 	0.11720 0.85087 0.53642 0.78000
H 	H 	0.12046 0.81273 0.45661 0.14400
C 	C 	0.10901 0.74678 0.44817 -0.08300
C 	C 	0.10803 0.72605 0.40947 0.08500
C 	C 	0.12418 0.71934 0.37755 0.02900
C 	C 	0.14115 0.73491 0.38060 -0.05000
C 	C 	0.14234 0.75521 0.42033 0.05000
C 	C 	0.09114 0.75454 0.48089 0.78900
H 	H 	0.09492 0.71444 0.40540 0.13100
C 	C 	0.15813 0.72940 0.34269 0.78000
H 	H 	0.15559 0.76644 0.42514 0.14400
F 	F 	0.09846 0.85411 0.55512 -0.35700
F 	F 	0.11799 0.85873 0.48178 -0.35700
F 	F 	0.12939 0.86725 0.56621 -0.36200
F 	F 	0.16003 0.73859 0.52550 -0.37900
F 	F 	0.13065 0.72258 0.54809 -0.37100
F 	F 	0.15094 0.73667 0.61387 -0.36400
F 	F 	0.17219 0.74887 0.34670 -0.36000
F 	F 	0.15187 0.72858 0.28855 -0.39600
F 	F 	0.16638 0.70527 0.35630 -0.39400
F 	F 	0.07516 0.73963 0.46589 -0.35400
F 	F 	0.08681 0.78096 0.47157 -0.37600
F 	F 	0.09434 0.75072 0.53658 -0.37200
C 	C 	0.09451 0.74814 0.92294 0.04500
C 	C 	0.11101 0.74476 0.95566 0.09500
C 	C 	0.12767 0.76044 0.94573 -0.09000
C 	C 	0.12663 0.78124 0.90713 0.08400
C 	C 	0.10957 0.78595 0.87763 0.01500
C 	C 	0.09360 0.76860 0.88364 -0.04900
C 	C 	0.11064 0.72486 0.00060 0.10700
C 	C 	0.14658 0.75469 0.97537 0.78700
H 	H 	0.13890 0.79427 0.90095 0.09500
C 	C 	0.07522 0.77283 0.85052 0.78000
H 	H 	0.08214 0.73534 0.92959 0.14100
C 	C 	0.10438 0.73177 0.05436 -0.08700
C 	C 	0.10756 0.71382 0.09787 0.09000
C 	C 	0.11611 0.68908 0.08787 0.02700
C 	C 	0.11939 0.68069 0.03301 -0.04200
C 	C 	0.11706 0.69900 0.98983 0.03800
C 	C 	0.09443 0.75815 0.06528 0.79100
H 	H 	0.10430 0.71954 0.13992 0.12100
C 	C 	0.12656 0.65286 0.02071 0.77800
H 	H 	0.12098 0.69353 0.94809 0.14200
F 	F 	0.06248 0.75183 0.85646 -0.36600
F 	F 	0.07958 0.77517 0.79508 -0.41700
F 	F 	0.06611 0.79573 0.86822 -0.39100
F 	F 	0.15277 0.72933 0.96260 -0.37900
F 	F 	0.14405 0.75669 0.03175 -0.36400
F 	F 	0.16101 0.77228 0.96018 -0.37300
F 	F 	0.12325 0.64609 0.96620 -0.36500
F 	F 	0.11707 0.63451 0.05343 -0.39400
F 	F 	0.14620 0.65145 0.03086 -0.37200
F 	F 	0.08897 0.76071 0.11993 -0.36100
F 	F 	0.07797 0.76010 0.03322 -0.38100
F 	F 	0.10673 0.77890 0.05262 -0.37000
C 	C 	0.09209 0.98433 0.92916 0.03800
C 	C 	0.10906 0.99471 0.95229 0.10500
C 	C 	0.12696 0.98170 0.94351 -0.09600
C 	C 	0.12750 0.95894 0.90995 0.09100
C 	C 	0.11059 0.94896 0.88575 0.00200
C 	C 	0.09276 0.96214 0.89402 -0.03600
C 	C 	0.10790 0.01924 0.98587 0.09400
C 	C 	0.14520 0.99094 0.97284 0.78900
H 	H 	0.14100 0.94844 0.90379 0.07800
C 	C 	0.07432 0.95206 0.86715 0.77500
H 	H 	0.07838 0.99383 0.93808 0.14500
C 	C 	0.10908 0.04461 0.96095 -0.08500
C 	C 	0.10972 0.06728 0.99467 0.07800
C 	C 	0.10829 0.06510 0.05219 0.01200
C 	C 	0.10509 0.03992 0.07660 -0.04900
C 	C 	0.10558 0.01711 0.04314 0.04700
C 	C 	0.10895 0.04757 0.89854 0.78900
H 	H 	0.11150 0.08674 0.97633 0.11000
C 	C 	0.10164 0.03716 0.13817 0.78000
H 	H 	0.10434 0.99759 0.06160 0.13800
F 	F 	0.05974 0.97086 0.86941 -0.35300
F 	F 	0.06807 0.92947 0.89417 -0.38600
F 	F 	0.07756 0.94614 0.81221 -0.37600
F 	F 	0.14318 0.98708 0.02897 -0.39100
F 	F 	0.14847 0.01757 0.96272 -0.37800
F 	F 	0.16135 0.97706 0.95537 -0.38200
F 	F 	0.09384 0.01261 0.15100 -0.36600
F 	F 	0.08883 0.05634 0.15644 -0.39100
F 	F 	0.11898 0.03983 0.16594 -0.38000
F 	F 	0.11108 0.07378 0.88249 -0.36800
F 	F 	0.09158 0.03837 0.87778 -0.37600
F 	F 	0.12392 0.03319 0.87543 -0.36800
C 	C 	0.01365 0.87301 0.74499 0.04900
C 	C 	0.00303 0.87228 0.79419 0.10200
C 	C 	0.01283 0.87278 0.84555 -0.08300
C 	C 	0.03312 0.87107 0.84621 0.09600
C 	C 	0.04363 0.87037 0.79684 0.03900
C 	C 	0.03394 0.87362 0.74599 -0.05100
C 	C 	0.98185 0.86806 0.79136 0.10100
C 	C 	0.00175 0.87248 0.89963 0.79100
H 	H 	0.04070 0.86888 0.88506 0.13600
C 	C 	0.04513 0.87622 0.69247 0.77900
H 	H 	0.00608 0.87237 0.70589 0.14200
C 	C 	0.96906 0.88925 0.77918 -0.08900
C 	C 	0.94918 0.88398 0.77409 0.08100
C 	C 	0.94188 0.85841 0.78316 0.01600
C 	C 	0.95460 0.83734 0.79635 -0.04200
C 	C 	0.97459 0.84230 0.79857 0.03900
C 	C 	0.97664 0.91708 0.76800 0.78900
H 	H 	0.93928 0.89978 0.76305 0.09500
C 	C 	0.94696 0.80950 0.80668 0.77900
H 	H 	0.98460 0.82617 0.80611 0.14300
F 	F 	0.03382 0.88747 0.65158 -0.34900
F 	F 	0.05107 0.85139 0.67510 -0.39900
F 	F 	0.06116 0.89228 0.69974 -0.39100
F 	F 	0.99523 0.84704 0.91016 -0.37600
F 	F 	0.98611 0.88956 0.89761 -0.36200
F 	F 	0.01339 0.88045 0.94302 -0.35400
F 	F 	0.96141 0.79243 0.82407 -0.35800
F 	F 	0.93912 0.79945 0.75857 -0.38000
F 	F 	0.93286 0.81005 0.84711 -0.38000
F 	F 	0.96187 0.93563 0.76869 -0.36900
F 	F 	0.98532 0.91776 0.71670 -0.37500
F 	F 	0.98998 0.92450 0.80756 -0.35300
C 	C 	0.72275 0.14069 0.18536 0.04400
C 	C 	0.73240 0.12325 0.22089 0.10100
C 	C 	0.72209 0.11026 0.26359 -0.08800
C 	C 	0.70200 0.11414 0.26783 0.08900
C 	C 	0.69233 0.13138 0.23172 0.01400
C 	C 	0.70301 0.14612 0.19235 -0.05100
C 	C 	0.75367 0.12104 0.21648 0.10300
C 	C 	0.73262 0.09395 0.30696 0.79000
H 	H 	0.69381 0.10379 0.29925 0.11700
C 	C 	0.69349 0.16753 0.15751 0.77200
H 	H 	0.73084 0.15065 0.15315 0.14400
C 	C 	0.76237 0.10369 0.17774 -0.08900
C 	C 	0.78253 0.10450 0.17040 0.09100
C 	C 	0.79392 0.12274 0.19962 0.01500
C 	C 	0.78502 0.14105 0.23606 -0.05000
C 	C 	0.76511 0.13893 0.24628 0.04200
C 	C 	0.75010 0.08602 0.14086 0.79100
H 	H 	0.78941 0.09119 0.14131 0.11700
C 	C 	0.79658 0.16296 0.26386 0.77100
H 	H 	0.75826 0.15201 0.27589 0.14300
F 	F 	0.68342 0.15587 0.11463 -0.40300
F 	F 	0.70710 0.18463 0.13536 -0.36100
F 	F 	0.68093 0.18260 0.18904 -0.44500
F 	F 	0.74318 0.11070 0.34062 -0.38100
F 	F 	0.74502 0.07597 0.28239 -0.35800
F 	F 	0.71986 0.07976 0.33959 -0.35800
F 	F 	0.78461 0.18242 0.28530 -0.36500
F 	F 	0.80882 0.17510 0.22643 -0.43600
F 	F 	0.80732 0.15237 0.30660 -0.42300
F 	F 	0.76124 0.06734 0.11363 -0.35900
F 	F 	0.74082 0.10147 0.10189 -0.37700
F 	F 	0.73641 0.07250 0.17147 -0.35900
C 	C 	0.26355 0.13719 0.23158 0.04800
C 	C 	0.25553 0.15911 0.20434 0.09700
C 	C 	0.26709 0.18175 0.19384 -0.07900
C 	C 	0.28715 0.18028 0.20323 0.08500
C 	C 	0.29532 0.15790 0.22888 0.03000
C 	C 	0.28301 0.13733 0.24807 -0.05500
C 	C 	0.23467 0.15871 0.19043 0.10300
C 	C 	0.25793 0.20784 0.17629 0.79000
H 	H 	0.29644 0.19649 0.19055 0.14000
C 	C 	0.29031 0.11575 0.28656 0.77600
H 	H 	0.25446 0.12027 0.24109 0.13400
C 	C 	0.22815 0.14962 0.13842 -0.08800
C 	C 	0.20818 0.14927 0.12737 0.08400
C 	C 	0.19465 0.15454 0.16929 0.02600
C 	C 	0.20135 0.16088 0.22313 -0.05200
C 	C 	0.22124 0.16492 0.23164 0.04300
C 	C 	0.24227 0.13808 0.09672 0.79000
H 	H 	0.20307 0.14417 0.08652 0.12100
C 	C 	0.18758 0.16332 0.27165 0.77800
H 	H 	0.22640 0.17185 0.27129 0.14400
F 	F 	0.29903 0.09586 0.25618 -0.40700
F 	F 	0.27522 0.10472 0.31627 -0.37000
F 	F 	0.30340 0.12594 0.32416 -0.43500
F 	F 	0.24510 0.21621 0.21642 -0.37300
F 	F 	0.24808 0.20471 0.12715 -0.35500
F 	F 	0.27162 0.22758 0.16899 -0.35000
F 	F 	0.17400 0.14315 0.27082 -0.42500
F 	F 	0.17840 0.18766 0.26965 -0.37200
F 	F 	0.19735 0.16154 0.32133 -0.37100
F 	F 	0.23316 0.13120 0.04794 -0.36900
F 	F 	0.25071 0.11549 0.11837 -0.39000
F 	F 	0.25657 0.15627 0.08436 -0.36300
C 	C 	0.47653 0.16113 0.31096 0.04300
C 	C 	0.48448 0.15214 0.26119 0.10000
C 	C 	0.47226 0.14143 0.21987 -0.08600
C 	C 	0.45209 0.14221 0.22757 0.08200
C 	C 	0.44415 0.15325 0.27549 0.02600
C 	C 	0.45643 0.16122 0.31917 -0.04100
C 	C 	0.50568 0.15392 0.25314 0.10200
C 	C 	0.48068 0.12849 0.16858 0.78900
H 	H 	0.44250 0.13506 0.19555 0.10400
C 	C 	0.44816 0.17139 0.37321 0.77900
H 	H 	0.48606 0.16865 0.34281 0.14300
C 	C 	0.51459 0.17824 0.23818 -0.08700
C 	C 	0.53487 0.18032 0.24043 0.08900
C 	C 	0.54625 0.15836 0.25477 0.02900
C 	C 	0.53741 0.13348 0.26445 -0.05500
C 	C 	0.51714 0.13184 0.26613 0.04800
C 	C 	0.50256 0.20266 0.22489 0.79000
H 	H 	0.54180 0.19930 0.23319 0.13000
C 	C 	0.54952 0.10901 0.27602 0.78100
H 	H 	0.51021 0.11353 0.27878 0.14600
F 	F 	0.44186 0.19723 0.36639 -0.37600
F 	F 	0.46192 0.17099 0.41465 -0.35100
F 	F 	0.43284 0.15574 0.39017 -0.36900
F 	F 	0.49045 0.10562 0.18325 -0.37700
F 	F 	0.49336 0.14563 0.14254 -0.36200
F 	F 	0.46643 0.12170 0.13106 -0.37100
F 	F 	0.55705 0.11064 0.32866 -0.38600
F 	F 	0.56451 0.10718 0.23843 -0.39900
F 	F 	0.53865 0.08601 0.27206 -0.34800
F 	F 	0.51359 0.22204 0.19940 -0.35900
F 	F 	0.49507 0.21308 0.27309 -0.37800
F 	F 	0.48753 0.19632 0.18969 -0.37000
C 	C 	0.72431 0.89917 0.69282 0.04400
C 	C 	0.73442 0.88041 0.66131 0.10300
C 	C 	0.72410 0.86231 0.62754 -0.08800
C 	C 	0.70379 0.86197 0.62996 0.08900
C 	C 	0.69378 0.88004 0.66327 0.02200
C 	C 	0.70402 0.89992 0.69219 -0.04900
C 	C 	0.75558 0.87793 0.66896 0.10000
C 	C 	0.73463 0.84164 0.59316 0.79000
H 	H 	0.69576 0.84686 0.60786 0.11800
C 	C 	0.69333 0.92087 0.72521 0.77800
H 	H 	0.73231 0.91265 0.71915 0.14600
C 	C 	0.76863 0.89510 0.64141 -0.08500
C 	C 	0.78860 0.89196 0.65008 0.08600
C 	C 	0.79562 0.87197 0.68493 0.02200
C 	C 	0.78257 0.85586 0.71475 -0.04500
C 	C 	0.76261 0.85881 0.70586 0.04400
C 	C 	0.76130 0.91764 0.60530 0.79000
H 	H 	0.79879 0.90483 0.62918 0.11200
C 	C 	0.78992 0.83532 0.75540 0.78100
H 	H 	0.75244 0.84616 0.72741 0.14000
F 	F 	0.70545 0.94150 0.74030 -0.35300
F 	F 	0.68580 0.90952 0.77246 -0.40300
F 	F 	0.67841 0.93146 0.69422 -0.38900
F 	F 	0.74106 0.82141 0.62703 -0.37800
F 	F 	0.75027 0.85277 0.56621 -0.35900
F 	F 	0.72258 0.83084 0.55348 -0.34900
F 	F 	0.80284 0.84699 0.79158 -0.36700
F 	F 	0.79909 0.81511 0.72705 -0.35500
F 	F 	0.77506 0.82438 0.78614 -0.35200
F 	F 	0.77612 0.92916 0.57530 -0.36200
F 	F 	0.75302 0.93699 0.63809 -0.37400
F 	F 	0.74767 0.90847 0.56819 -0.35300
C 	C 	0.63525 0.97812 0.46277 0.04300
C 	C 	0.62920 0.00159 0.48866 0.10400
C 	C 	0.62255 0.00085 0.54394 -0.08700
C 	C 	0.62090 0.97621 0.57072 0.08900
C 	C 	0.62641 0.95272 0.54412 0.02500
C 	C 	0.63461 0.95373 0.49082 -0.04800
C 	C 	0.62780 0.02620 0.45550 0.09800
C 	C 	0.61542 0.02584 0.57260 0.79100
H 	H 	0.61460 0.97511 0.61157 0.12000
C 	C 	0.64170 0.92863 0.46274 0.77800
H 	H 	0.63995 0.97884 0.42018 0.14400
C 	C 	0.64411 0.04270 0.44693 -0.08500
C 	C 	0.64190 0.06633 0.41667 0.08500
C 	C 	0.62390 0.07339 0.39436 0.02200
C 	C 	0.60801 0.05580 0.39934 -0.05200
C 	C 	0.61003 0.03273 0.43132 0.04400
C 	C 	0.66402 0.03450 0.46740 0.78900
H 	H 	0.65414 0.07944 0.41073 0.11600
C 	C 	0.58863 0.06209 0.37292 0.78200
H 	H 	0.59772 0.01978 0.43782 0.13900
F 	F 	0.65351 0.91443 0.49811 -0.38600
F 	F 	0.65226 0.93429 0.41568 -0.35500
F 	F 	0.62604 0.91309 0.44812 -0.39000
F 	F 	0.59737 0.03252 0.55246 -0.38100
F 	F 	0.62799 0.04675 0.56382 -0.36200
F 	F 	0.61397 0.02212 0.62900 -0.35900
F 	F 	0.57705 0.03972 0.36971 -0.35800
F 	F 	0.59113 0.07157 0.31985 -0.39200
F 	F 	0.57915 0.08095 0.40426 -0.36000
F 	F 	0.67742 0.05468 0.46109 -0.35800
F 	F 	0.67036 0.01274 0.43777 -0.37300
F 	F 	0.66335 0.02799 0.52275 -0.35300
C 	C 	0.25948 0.88014 0.65488 0.04700
C 	C 	0.25224 0.85922 0.68686 0.09900
C 	C 	0.26417 0.83715 0.69869 -0.08600
C 	C 	0.28411 0.83894 0.68782 0.09000
C 	C 	0.29167 0.86077 0.65877 0.02300
C 	C 	0.27879 0.88005 0.63697 -0.05100
C 	C 	0.23204 0.86050 0.70700 0.10100
C 	C 	0.25560 0.81146 0.72060 0.79100
H 	H 	0.29378 0.82357 0.70251 0.11800
C 	C 	0.28532 0.90030 0.59452 0.77600
H 	H 	0.25001 0.89643 0.64370 0.13500
C 	C 	0.22771 0.87010 0.76042 -0.08900
C 	C 	0.20847 0.86928 0.77911 0.08500
C 	C 	0.19328 0.86300 0.74285 0.02000
C 	C 	0.19758 0.85683 0.68693 -0.05400
C 	C 	0.21699 0.85369 0.67104 0.04300
C 	C 	0.24327 0.88293 0.79583 0.79000
H 	H 	0.20522 0.87416 0.82160 0.11900
C 	C 	0.18174 0.85364 0.64400 0.78000
H 	H 	0.22047 0.84664 0.63001 0.14000
F 	F 	0.29331 0.92200 0.62094 -0.37900
F 	F 	0.26984 0.90893 0.56308 -0.36300
F 	F 	0.29878 0.88942 0.55884 -0.41700
F 	F 	0.24096 0.80297 0.68600 -0.38100
F 	F 	0.24812 0.81536 0.77279 -0.35800
F 	F 	0.26930 0.79147 0.72353 -0.36000
F 	F 	0.16787 0.87324 0.64984 -0.40800
F 	F 	0.17328 0.82893 0.64950 -0.39800
F 	F 	0.18911 0.85568 0.59109 -0.37200
F 	F 	0.23588 0.89232 0.84515 -0.37200
F 	F 	0.25130 0.90416 0.76788 -0.38900
F 	F 	0.25764 0.86479 0.80788 -0.36700
C 	C 	0.39300 0.04418 0.44497 0.03800
C 	C 	0.38251 0.02116 0.43211 0.10600
C 	C 	0.37012 0.02092 0.38554 -0.09300
C 	C 	0.36769 0.04434 0.35481 0.08600
C 	C 	0.37730 0.06778 0.36960 0.01700
C 	C 	0.39059 0.06760 0.41401 -0.05000
C 	C 	0.38236 0.99889 0.47213 0.09400
C 	C 	0.35785 0.99670 0.37206 0.79000
H 	H 	0.35760 0.04473 0.32064 0.10700
C 	C 	0.40217 0.09228 0.42839 0.77900
H 	H 	0.40248 0.04405 0.48053 0.14600
C 	C 	0.39573 0.97768 0.46810 -0.08000
C 	C 	0.39233 0.95432 0.49857 0.08500
C 	C 	0.37670 0.95281 0.53525 0.02900
C 	C 	0.36554 0.97579 0.54621 -0.05100
C 	C 	0.36799 0.99830 0.51281 0.04900
C 	C 	0.41360 0.98005 0.43203 0.78900
H 	H 	0.40141 0.93704 0.49253 0.12800
C 	C 	0.35040 0.97605 0.59153 0.77600
H 	H 	0.35829 0.01507 0.51709 0.13400
F 	F 	0.41424 0.09868 0.38494 -0.37700
F 	F 	0.41351 0.08852 0.47479 -0.36000
F 	F 	0.38985 0.11334 0.43864 -0.39800
F 	F 	0.34299 0.99460 0.40991 -0.38200
F 	F 	0.36886 0.97382 0.37359 -0.36500
F 	F 	0.34985 0.99854 0.31988 -0.36700
F 	F 	0.34627 0.00176 0.60789 -0.36600
F 	F 	0.35688 0.96236 0.63741 -0.41600
F 	F 	0.33358 0.96443 0.57244 -0.38000
F 	F 	0.42520 0.95772 0.43560 -0.36100
F 	F 	0.42443 0.00170 0.44858 -0.38200
F 	F 	0.40829 0.98336 0.37751 -0.35800
C 	C 	0.47435 0.86642 0.61576 0.04300
C 	C 	0.48221 0.87205 0.66771 0.09700
C 	C 	0.46993 0.88007 0.71143 -0.08200
C 	C 	0.44978 0.87962 0.70345 0.08300
C 	C 	0.44191 0.87166 0.65287 0.02300
C 	C 	0.45424 0.86643 0.60760 -0.04800
C 	C 	0.50333 0.86913 0.67580 0.10300
C 	C 	0.47828 0.88970 0.76585 0.78900
H 	H 	0.44013 0.88455 0.73712 0.11600
C 	C 	0.44597 0.85957 0.55135 0.78200
H 	H 	0.48396 0.86119 0.58220 0.13900
C 	C 	0.51181 0.84376 0.68366 -0.08300
C 	C 	0.53202 0.84113 0.68005 0.09300
C 	C 	0.54377 0.86341 0.67159 0.03800
C 	C 	0.53542 0.88902 0.67013 -0.05400
C 	C 	0.51519 0.89148 0.66926 0.04800
C 	C 	0.49935 0.81913 0.69047 0.79100
H 	H 	0.53858 0.82161 0.68144 0.14000
C 	C 	0.54800 0.91366 0.66731 0.77900
H 	H 	0.50861 0.91070 0.66219 0.14200
F 	F 	0.43739 0.83479 0.55329 -0.39500
F 	F 	0.46015 0.85918 0.51108 -0.36500
F 	F 	0.43231 0.87823 0.53607 -0.39400
F 	F 	0.48835 0.91305 0.75741 -0.37600
F 	F 	0.49068 0.87088 0.78762 -0.34900
F 	F 	0.46397 0.89454 0.80445 -0.36000
F 	F 	0.53757 0.93631 0.68006 -0.36000
F 	F 	0.55542 0.91637 0.61469 -0.42300
F 	F 	0.56308 0.91174 0.70457 -0.41000
F 	F 	0.51004 0.79802 0.71067 -0.34900
F 	F 	0.49172 0.81195 0.63995 -0.37600
F 	F 	0.48440 0.82375 0.72709 -0.36000
C 	C 	0.72801 0.36919 0.78874 0.05000
C 	C 	0.73557 0.36123 0.73777 0.09600
C 	C 	0.72316 0.34994 0.69776 -0.08200
C 	C 	0.70304 0.35233 0.70472 0.08500
C 	C 	0.69539 0.36278 0.75379 0.03400
C 	C 	0.70801 0.36822 0.79849 -0.05200
C 	C 	0.75643 0.36506 0.72660 0.10500
C 	C 	0.73130 0.33499 0.64860 0.79000
H 	H 	0.69337 0.34688 0.67146 0.13300
C 	C 	0.70041 0.37294 0.85635 0.78200
H 	H 	0.73769 0.37633 0.82061 0.13400
C 	C 	0.76319 0.38769 0.69779 -0.09300
C 	C 	0.78283 0.38909 0.68301 0.08900
C 	C 	0.79606 0.37018 0.70254 0.01600
C 	C 	0.78965 0.35018 0.73952 -0.04300
C 	C 	0.76970 0.34663 0.74756 0.04100
C 	C 	0.74978 0.41087 0.68553 0.79100
H 	H 	0.78789 0.40492 0.65642 0.09700
C 	C 	0.80384 0.33329 0.77194 0.77500
H 	H 	0.76446 0.32984 0.77118 0.14300
F 	F 	0.69648 0.39963 0.86343 -0.36100
F 	F 	0.71400 0.36535 0.89518 -0.36000
F 	F 	0.68380 0.35833 0.86596 -0.38500
F 	F 	0.74438 0.31607 0.66639 -0.37800
F 	F 	0.74056 0.35237 0.61333 -0.36300
F 	F 	0.71690 0.32207 0.61941 -0.35600
F 	F 	0.81920 0.34854 0.79018 -0.39600
F 	F 	0.81062 0.31287 0.73914 -0.38500
F 	F 	0.79512 0.32228 0.81796 -0.37300
F 	F 	0.75956 0.43186 0.66149 -0.38100
F 	F 	0.74157 0.41992 0.73399 -0.39400
F 	F 	0.73526 0.40303 0.64996 -0.37400
C 	C 	0.60879 0.26015 0.42869 0.04000
C 	C 	0.62795 0.26899 0.43307 0.09900
C 	C 	0.64256 0.25719 0.40017 -0.09000
C 	C 	0.63774 0.23560 0.36596 0.08200
C 	C 	0.61862 0.22655 0.36230 0.01300
C 	C 	0.60388 0.23921 0.39305 -0.05100
C 	C 	0.63272 0.28886 0.47616 0.10400
C 	C 	0.66353 0.26594 0.40473 0.78900
H 	H 	0.64895 0.22539 0.34302 0.09900
C 	C 	0.58307 0.22968 0.38958 0.77900
H 	H 	0.59781 0.26921 0.45440 0.13600
C 	C 	0.62700 0.31575 0.47044 -0.09500
C 	C 	0.62606 0.33190 0.51766 0.08800
C 	C 	0.63176 0.32210 0.56924 0.01500
C 	C 	0.64038 0.29673 0.57300 -0.05300
C 	C 	0.64007 0.27991 0.52676 0.04100
C 	C 	0.61990 0.32653 0.41562 0.79100
H 	H 	0.61979 0.35159 0.51492 0.11100
C 	C 	0.64849 0.28682 0.62733 0.77800
H 	H 	0.64449 0.25936 0.53081 0.14000
F 	F 	0.57661 0.23129 0.33573 -0.38600
F 	F 	0.57083 0.24481 0.42203 -0.36700
F 	F 	0.58192 0.20363 0.40726 -0.41600
F 	F 	0.67167 0.25496 0.45150 -0.38100
F 	F 	0.66493 0.29329 0.40766 -0.35500
F 	F 	0.67412 0.25775 0.35939 -0.36500
F 	F 	0.63349 0.28157 0.66343 -0.40700
F 	F 	0.66050 0.30582 0.65016 -0.39800
F 	F 	0.65921 0.26384 0.62039 -0.36200
F 	F 	0.62161 0.35390 0.41388 -0.36400
F 	F 	0.60066 0.31990 0.40858 -0.38300
F 	F 	0.63053 0.31631 0.37225 -0.35700
C 	C 	0.61133 0.21216 0.96777 0.04500
C 	C 	0.60670 0.23896 0.97582 0.09800
C 	C 	0.60069 0.24783 0.02854 -0.08300
C 	C 	0.60229 0.23050 0.07380 0.08600
C 	C 	0.60895 0.20447 0.06650 0.02700
C 	C 	0.61198 0.19454 0.01263 -0.04500
C 	C 	0.60835 0.25761 0.92884 0.10000
C 	C 	0.59250 0.27557 0.03644 0.78900
H 	H 	0.59925 0.23754 0.11510 0.11300
C 	C 	0.61717 0.16563 0.00321 0.77800
H 	H 	0.61508 0.20530 0.92680 0.14200
C 	C 	0.62583 0.27136 0.91811 -0.08400
C 	C 	0.62595 0.29164 0.87822 0.08600
C 	C 	0.60926 0.29743 0.84780 0.02900
C 	C 	0.59258 0.28140 0.85382 -0.04800
C 	C 	0.59223 0.26182 0.89505 0.04700
C 	C 	0.64432 0.26420 0.94854 0.78800
H 	H 	0.63881 0.30356 0.87196 0.11500
C 	C 	0.57470 0.28632 0.81894 0.78100
H 	H 	0.57918 0.25045 0.90234 0.14200
F 	F 	0.63646 0.16167 0.01563 -0.37800
F 	F 	0.61404 0.15829 0.94893 -0.36300
F 	F 	0.60595 0.14937 0.03623 -0.39000
F 	F 	0.57636 0.27884 0.00352 -0.37800
F 	F 	0.60619 0.29439 0.02229 -0.36200
F 	F 	0.58704 0.28008 0.09054 -0.36100
F 	F 	0.57975 0.28894 0.76403 -0.42000
F 	F 	0.56566 0.30928 0.83652 -0.39200
F 	F 	0.56168 0.26554 0.82294 -0.36400
F 	F 	0.65981 0.27952 0.93133 -0.35900
F 	F 	0.64886 0.23788 0.93894 -0.37800
F 	F 	0.64195 0.26807 0.00456 -0.36000
C 	C 	0.26281 0.36412 0.75816 0.04400
C 	C 	0.25348 0.38157 0.72181 0.09800
C 	C 	0.26426 0.40140 0.69404 -0.08700
C 	C 	0.28450 0.40150 0.69907 0.08500
C 	C 	0.29392 0.38258 0.73186 0.01700
C 	C 	0.28297 0.36495 0.76477 -0.05000
C 	C 	0.23239 0.37893 0.71334 0.10100
C 	C 	0.25419 0.42277 0.66032 0.79000
H 	H 	0.29305 0.41570 0.67606 0.11200
C 	C 	0.29276 0.34637 0.80539 0.78100
H 	H 	0.25433 0.34954 0.78044 0.13800
C 	C 	0.22478 0.36014 0.67558 -0.08900
C 	C 	0.20463 0.35685 0.67203 0.08800
C 	C 	0.19216 0.37235 0.70415 0.01500
C 	C 	0.19973 0.39201 0.73965 -0.05100
C 	C 	0.21986 0.39438 0.74544 0.04400
C 	C 	0.23806 0.34212 0.64250 0.79000
H 	H 	0.19859 0.34166 0.64548 0.11600
C 	C 	0.18635 0.40968 0.77305 0.77700
H 	H 	0.22587 0.40812 0.77523 0.14400
F 	F 	0.30069 0.32512 0.77728 -0.36800
F 	F 	0.27975 0.33673 0.84384 -0.35500
F 	F 	0.30724 0.35954 0.83373 -0.41400
F 	F 	0.24308 0.43846 0.69471 -0.37600
F 	F 	0.24240 0.41135 0.62086 -0.36000
F 	F 	0.26729 0.43901 0.63343 -0.36600
F 	F 	0.17709 0.39467 0.81281 -0.40900
F 	F 	0.17267 0.42111 0.73888 -0.39800
F 	F 	0.19634 0.42995 0.79903 -0.35900
F 	F 	0.22803 0.32849 0.60200 -0.35800
F 	F 	0.24655 0.32377 0.67729 -0.38300
F 	F 	0.25236 0.35674 0.61675 -0.36900
C 	C 	0.38003 0.27454 0.57425 0.04200
C 	C 	0.38493 0.28001 0.51942 0.10200
C 	C 	0.38979 0.30627 0.50354 -0.09000
C 	C 	0.38960 0.32655 0.54348 0.09000
C 	C 	0.38480 0.32103 0.59844 0.00800
C 	C 	0.37950 0.29484 0.61395 -0.05900
C 	C 	0.38348 0.25836 0.47820 0.09600
C 	C 	0.39378 0.31307 0.44354 0.79000
H 	H 	0.39295 0.34680 0.53177 0.12400
C 	C 	0.37359 0.28831 0.67283 0.78200
H 	H 	0.37633 0.25438 0.58568 0.14400
C 	C 	0.39861 0.23965 0.47143 -0.07600
C 	C 	0.39628 0.21881 0.43338 0.07600
C 	C 	0.37932 0.21655 0.40198 0.03400
C 	C 	0.36360 0.23390 0.41235 -0.05500
C 	C 	0.36616 0.25526 0.44890 0.04800
C 	C 	0.41677 0.24099 0.50670 0.78800
H 	H 	0.40785 0.20465 0.42708 0.15200
C 	C 	0.34419 0.23007 0.38414 0.78100
H 	H 	0.35458 0.26944 0.45513 0.13700
F 	F 	0.38966 0.28922 0.70670 -0.37100
F 	F 	0.36559 0.26318 0.67673 -0.36400
F 	F 	0.35992 0.30620 0.69156 -0.46900
F 	F 	0.37671 0.31198 0.41396 -0.38500
F 	F 	0.40686 0.29539 0.42096 -0.36100
F 	F 	0.40146 0.33831 0.43810 -0.36200
F 	F 	0.32955 0.24268 0.41296 -0.36600
F 	F 	0.33950 0.20342 0.38114 -0.41700
F 	F 	0.34490 0.24060 0.33155 -0.36400
F 	F 	0.43096 0.22394 0.48756 -0.33900
F 	F 	0.41231 0.23393 0.56027 -0.37200
F 	F 	0.42437 0.26638 0.50641 -0.35300
C 	C 	0.35000 0.27824 0.08116 0.03900
C 	C 	0.35748 0.27363 0.02826 0.11000
C 	C 	0.36487 0.24821 0.01456 -0.09400
C 	C 	0.36647 0.22887 0.05605 0.08900
C 	C 	0.36009 0.23412 0.10973 0.01300
C 	C 	0.35065 0.25831 0.12170 -0.04900
C 	C 	0.36055 0.29656 0.99111 0.09100
C 	C 	0.37306 0.24256 0.95762 0.78900
H 	H 	0.37353 0.21013 0.04732 0.10900
C 	C 	0.34247 0.26356 0.17872 0.77900
H 	H 	0.34456 0.29779 0.09139 0.14800
C 	C 	0.34576 0.30563 0.95534 -0.07500
C 	C 	0.35019 0.32519 0.91586 0.08200
C 	C 	0.36879 0.33616 0.91311 0.02700
C 	C 	0.38277 0.32938 0.95324 -0.04800
C 	C 	0.37865 0.30906 0.99101 0.04500
C 	C 	0.32521 0.29521 0.96048 0.78600
H 	H 	0.33937 0.33146 0.88632 0.12700
C 	C 	0.40235 0.34303 0.95446 0.77800
H 	H 	0.38967 0.30241 0.01962 0.13600
F 	F 	0.33136 0.28642 0.17983 -0.35000
F 	F 	0.35745 0.26637 0.21600 -0.38000
F 	F 	0.33084 0.24261 0.19488 -0.37800
F 	F 	0.39128 0.25366 0.95330 -0.38100
F 	F 	0.36131 0.25299 0.91694 -0.35900
F 	F 	0.37455 0.21552 0.94827 -0.36500
F 	F 	0.41196 0.33825 0.00353 -0.36300
F 	F 	0.40012 0.37021 0.94924 -0.41000
F 	F 	0.41363 0.33372 0.91156 -0.37200
F 	F 	0.31329 0.30527 0.91967 -0.34200
F 	F 	0.31766 0.30254 0.01100 -0.37000
F 	F 	0.32500 0.26783 0.95633 -0.35200
C 	C 	0.51708 0.40932 0.75728 0.04800
C 	C 	0.50402 0.38841 0.76542 0.09900
C 	C 	0.51080 0.36194 0.76685 -0.08400
C 	C 	0.53079 0.35728 0.76848 0.08400
C 	C 	0.54399 0.37821 0.76163 0.03200
C 	C 	0.53703 0.40436 0.75251 -0.05400
C 	C 	0.48323 0.39441 0.77225 0.09700
C 	C 	0.49680 0.33866 0.76498 0.78900
H 	H 	0.53615 0.33732 0.77492 0.14900
C 	C 	0.55070 0.42708 0.73914 0.78100
H 	H 	0.51167 0.42949 0.75498 0.14100
C 	C 	0.47477 0.39562 0.82522 -0.08100
C 	C 	0.45463 0.39298 0.83013 0.09100
C 	C 	0.44286 0.39252 0.78293 0.03700
C 	C 	0.45127 0.39698 0.73039 -0.05200
C 	C 	0.47151 0.39657 0.72536 0.05200
C 	C 	0.48717 0.39933 0.87630 0.79000
H 	H 	0.44814 0.39060 0.87048 0.14200
C 	C 	0.43891 0.40147 0.67952 0.78100
H 	H 	0.47815 0.39691 0.68489 0.13500
F 	F 	0.55965 0.43565 0.78690 -0.38700
F 	F 	0.54084 0.44832 0.71627 -0.37000
F 	F 	0.56458 0.41914 0.70149 -0.42300
F 	F 	0.48493 0.34087 0.71936 -0.38200
F 	F 	0.48554 0.33826 0.81204 -0.35600
F 	F 	0.50640 0.31460 0.76137 -0.35300
F 	F 	0.44928 0.41455 0.63894 -0.37000
F 	F 	0.42296 0.41690 0.69198 -0.41800
F 	F 	0.43286 0.37730 0.65876 -0.38400
F 	F 	0.47601 0.40492 0.92224 -0.35600
F 	F 	0.49981 0.42028 0.86864 -0.37800
F 	F 	0.49766 0.37652 0.88663 -0.35300
C 	C 	0.73125 0.65003 0.22782 0.04600
C 	C 	0.74205 0.66971 0.20090 0.09800
C 	C 	0.73289 0.68686 0.16257 -0.08200
C 	C 	0.71321 0.68298 0.15020 0.08700
C 	C 	0.70247 0.66329 0.17717 0.03400
C 	C 	0.71134 0.64720 0.21764 -0.05500
C 	C 	0.76327 0.67067 0.20998 0.10200
C 	C 	0.74432 0.70787 0.13157 0.79000
H 	H 	0.70628 0.69495 0.11877 0.13500
C 	C 	0.69973 0.62639 0.24854 0.77900
H 	H 	0.73849 0.63670 0.25613 0.13700
C 	C 	0.77117 0.68188 0.25864 -0.08700
C 	C 	0.79103 0.67884 0.26943 0.08600
C 	C 	0.80315 0.66583 0.23174 0.02200
C 	C 	0.79539 0.65564 0.18200 -0.05500
C 	C 	0.77544 0.65810 0.17185 0.04200
C 	C 	0.75829 0.69520 0.30123 0.79000
H 	H 	0.79708 0.68617 0.30773 0.12100
C 	C 	0.80836 0.64248 0.13942 0.78100
H 	H 	0.76921 0.64973 0.13475 0.14000
F 	F 	0.71044 0.61456 0.29003 -0.36600
F 	F 	0.69378 0.60685 0.21226 -0.41200
F 	F 	0.68365 0.63800 0.27242 -0.39700
F 	F 	0.75514 0.69590 0.09061 -0.37400
F 	F 	0.75656 0.72143 0.16677 -0.34900
F 	F 	0.73219 0.72636 0.10733 -0.34600
F 	F 	0.81913 0.62250 0.16367 -0.42000
F 	F 	0.82069 0.66121 0.11707 -0.39400
F 	F 	0.79779 0.63130 0.09686 -0.37000
F 	F 	0.76902 0.71044 0.33756 -0.35400
F 	F 	0.74854 0.67602 0.33103 -0.37700
F 	F 	0.74501 0.71179 0.27615 -0.35100
C 	C 	0.62790 0.76631 0.97779 0.04200
C 	C 	0.61521 0.78638 0.99508 0.09400
C 	C 	0.60561 0.78405 0.04652 -0.08500
C 	C 	0.60736 0.76027 0.07649 0.08800
C 	C 	0.61959 0.73989 0.05808 0.02500
C 	C 	0.63115 0.74386 0.01079 -0.04700
C 	C 	0.61112 0.80870 0.95706 0.10600
C 	C 	0.59227 0.80577 0.06754 0.78900
H 	H 	0.59867 0.75717 0.11311 0.10700
C 	C 	0.64703 0.72440 0.99576 0.77400
H 	H 	0.63509 0.76816 0.93828 0.13000
C 	C 	0.62556 0.82772 0.94449 -0.10000
C 	C 	0.62394 0.84256 0.89567 0.08400
C 	C 	0.60751 0.84013 0.86202 0.00500
C 	C 	0.59139 0.82563 0.88163 -0.04400
C 	C 	0.59384 0.80850 0.92673 0.03600
C 	C 	0.64362 0.83042 0.97962 0.78900
H 	H 	0.63598 0.85467 0.88210 0.09000
C 	C 	0.57178 0.82758 0.85400 0.77700
H 	H 	0.58262 0.79432 0.93696 0.14100
F 	F 	0.65939 0.73485 0.95644 -0.36200
F 	F 	0.63897 0.70137 0.97496 -0.40000
F 	F 	0.65791 0.71842 0.04197 -0.40400
F 	F 	0.57446 0.80356 0.04209 -0.37900
F 	F 	0.59984 0.83067 0.05706 -0.35200
F 	F 	0.58962 0.80368 0.12395 -0.36100
F 	F 	0.57031 0.80845 0.81334 -0.38200
F 	F 	0.56904 0.85243 0.83089 -0.37800
F 	F 	0.55717 0.82351 0.89210 -0.34800
F 	F 	0.65154 0.85552 0.97405 -0.36100
F 	F 	0.65717 0.81190 0.96303 -0.38400
F 	F 	0.63950 0.82662 0.03486 -0.34900
C 	C 	0.63882 0.75360 0.36660 0.04400
C 	C 	0.63236 0.74469 0.41818 0.10400
C 	C 	0.62803 0.71742 0.42588 -0.09100
C 	C 	0.62784 0.70043 0.37983 0.08900
C 	C 	0.63291 0.70991 0.32748 0.02600
C 	C 	0.63988 0.73614 0.32153 -0.05500
C 	C 	0.62717 0.76466 0.46061 0.10000
C 	C 	0.62163 0.70689 0.48163 0.79100
H 	H 	0.62272 0.68020 0.38412 0.12200
C 	C 	0.64670 0.74627 0.26592 0.77900
H 	H 	0.64199 0.77448 0.36095 0.14600
C 	C 	0.64153 0.77748 0.49275 -0.09000
C 	C 	0.63604 0.79811 0.52863 0.08400
C 	C 	0.61660 0.80545 0.53404 0.01600
C 	C 	0.60230 0.79287 0.50152 -0.04800
C 	C 	0.60776 0.77233 0.46554 0.04000
C 	C 	0.66281 0.77059 0.48614 0.79000
H 	H 	0.64690 0.80855 0.55244 0.09200
C 	C 	0.58122 0.80121 0.50537 0.77900
H 	H 	0.59696 0.76246 0.44050 0.13800
F 	F 	0.65664 0.77000 0.27100 -0.35200
F 	F 	0.63092 0.75026 0.23193 -0.41200
F 	F 	0.65903 0.72805 0.24170 -0.39300
F 	F 	0.60224 0.71239 0.48931 -0.38200
F 	F 	0.63217 0.71835 0.52382 -0.36300
F 	F 	0.62428 0.67969 0.48484 -0.36000
F 	F 	0.57003 0.78919 0.46517 -0.36700
F 	F 	0.57961 0.82840 0.49867 -0.40600
F 	F 	0.57389 0.79417 0.55635 -0.37900
F 	F 	0.67367 0.78029 0.52966 -0.36800
F 	F 	0.66973 0.78165 0.43788 -0.37000
F 	F 	0.66545 0.74339 0.48440 -0.35400
C 	C 	0.62624 0.48448 0.94038 0.04400
C 	C 	0.61333 0.50516 0.92857 0.10000
C 	C 	0.60023 0.50270 0.88386 -0.08500
C 	C 	0.60056 0.47947 0.85155 0.08800
C 	C 	0.61326 0.45865 0.86403 0.01900
C 	C 	0.62619 0.46100 0.90902 -0.05600
C 	C 	0.61476 0.53015 0.96077 0.09600
C 	C 	0.58691 0.52546 0.86800 0.79000
H 	H 	0.59103 0.47760 0.81629 0.13600
C 	C 	0.64025 0.43878 0.92268 0.78100
H 	H 	0.63648 0.48691 0.97379 0.13800
C 	C 	0.60622 0.53246 0.01373 -0.08400
C 	C 	0.60926 0.55577 0.04461 0.08300
C 	C 	0.62028 0.57672 0.02323 0.01900
C 	C 	0.62925 0.57409 0.97102 -0.05900
C 	C 	0.62609 0.55093 0.93994 0.04400
C 	C 	0.59501 0.50952 0.03894 0.78900
H 	H 	0.60305 0.55769 0.08542 0.11700
C 	C 	0.64193 0.59610 0.94798 0.78200
H 	H 	0.63265 0.54881 0.89962 0.13700
F 	F 	0.65140 0.44465 0.96851 -0.36000
F 	F 	0.65256 0.43463 0.87860 -0.44100
F 	F 	0.63019 0.41564 0.93350 -0.38900
F 	F 	0.59761 0.54541 0.84352 -0.38200
F 	F 	0.57764 0.53554 0.91396 -0.35800
F 	F 	0.57281 0.51732 0.83118 -0.35300
F 	F 	0.65534 0.60405 0.98697 -0.43900
F 	F 	0.63054 0.61753 0.93346 -0.37300
F 	F 	0.65200 0.58787 0.90170 -0.37000
F 	F 	0.58479 0.51744 0.08519 -0.36100
F 	F 	0.60773 0.48969 0.05429 -0.37800
F 	F 	0.58185 0.49935 0.00157 -0.35400
C 	C 	0.27691 0.65989 0.25634 0.04600
C 	C 	0.26594 0.63970 0.23184 0.10300
C 	C 	0.27475 0.62204 0.19392 -0.08500
C 	C 	0.29488 0.62335 0.18587 0.08900
C 	C 	0.30598 0.64289 0.21230 0.03000
C 	C 	0.29669 0.66259 0.24450 -0.04700
C 	C 	0.24488 0.63868 0.24271 0.10100
C 	C 	0.26263 0.60293 0.15986 0.79100
H 	H 	0.30201 0.60896 0.15963 0.12800
C 	C 	0.30777 0.68624 0.26710 0.77800
H 	H 	0.26992 0.67372 0.28417 0.14400
C 	C 	0.23725 0.62349 0.28680 -0.08400
C 	C 	0.21705 0.62161 0.29298 0.09100
C 	C 	0.20464 0.63600 0.25836 0.02500
C 	C 	0.21248 0.65397 0.21935 -0.05000
C 	C 	0.23251 0.65403 0.21000 0.04800
C 	C 	0.25057 0.61041 0.32860 0.79000
H 	H 	0.21093 0.60877 0.32425 0.12900
C 	C 	0.19964 0.67280 0.18695 0.77200
H 	H 	0.23855 0.66611 0.17729 0.14500
F 	F 	0.31749 0.67887 0.31449 -0.39000
F 	F 	0.29539 0.70695 0.27988 -0.35700
F 	F 	0.32091 0.69558 0.22870 -0.39300
F 	F 	0.25055 0.61716 0.12536 -0.37500
F 	F 	0.25155 0.58702 0.19387 -0.36300
F 	F 	0.27401 0.58652 0.12757 -0.35900
F 	F 	0.21020 0.69380 0.16571 -0.35500
F 	F 	0.18539 0.68338 0.22040 -0.42700
F 	F 	0.19118 0.65932 0.14358 -0.41600
F 	F 	0.24034 0.59612 0.36767 -0.35800
F 	F 	0.26116 0.62968 0.35572 -0.37900
F 	F 	0.26312 0.59317 0.30246 -0.36400
C 	C 	0.36753 0.79028 0.91222 0.04800
C 	C 	0.35352 0.77019 0.91231 0.09600
C 	C 	0.33834 0.77089 0.87323 -0.08300
C 	C 	0.33994 0.78808 0.82774 0.09200
C 	C 	0.35570 0.80549 0.82344 0.02400
C 	C 	0.36838 0.80861 0.86870 -0.05000
C 	C 	0.35628 0.74693 0.94875 0.10100
C 	C 	0.32097 0.75267 0.87874 0.79000
H 	H 	0.32967 0.78680 0.79412 0.12000
C 	C 	0.38368 0.83015 0.86896 0.77900
H 	H 	0.37850 0.79054 0.94415 0.13500
C 	C 	0.36874 0.72584 0.93318 -0.08700
C 	C 	0.37335 0.70619 0.97210 0.09000
C 	C 	0.36542 0.70688 0.02518 0.03300
C 	C 	0.35170 0.72655 0.03907 -0.05100
C 	C 	0.34796 0.74717 0.00148 0.05000
C 	C 	0.37860 0.72559 0.87711 0.79000
H 	H 	0.38378 0.69088 0.96199 0.11400
C 	C 	0.34126 0.72579 0.09404 0.78100
H 	H 	0.33882 0.76367 0.01339 0.14600
F 	F 	0.38946 0.83597 0.92224 -0.36500
F 	F 	0.37656 0.85326 0.84570 -0.41100
F 	F 	0.39960 0.82172 0.83929 -0.38800
F 	F 	0.31294 0.75533 0.93064 -0.37400
F 	F 	0.32657 0.72658 0.87106 -0.35100
F 	F 	0.30680 0.75867 0.84039 -0.35400
F 	F 	0.32591 0.74342 0.09535 -0.35400
F 	F 	0.35397 0.73237 0.13583 -0.39800
F 	F 	0.33398 0.70060 0.10341 -0.39500
F 	F 	0.38743 0.70142 0.86677 -0.36400
F 	F 	0.39259 0.74517 0.87538 -0.38400
F 	F 	0.36534 0.72995 0.83547 -0.37200
C 	C 	0.41515 0.73188 0.38449 0.03800
C 	C 	0.39939 0.73289 0.42080 0.10700
C 	C 	0.38554 0.71214 0.42047 -0.09700
C 	C 	0.38639 0.69281 0.37871 0.09000
C 	C 	0.40146 0.69297 0.33994 0.00200
C 	C 	0.41706 0.71086 0.34690 -0.03900
C 	C 	0.39654 0.75692 0.45514 0.09700
C 	C 	0.36878 0.71191 0.46095 0.79100
H 	H 	0.37469 0.67868 0.37419 0.08200
C 	C 	0.43541 0.70840 0.31307 0.77600
H 	H 	0.42576 0.74772 0.38489 0.14800
C 	C 	0.40698 0.76066 0.50482 -0.08200
C 	C 	0.40317 0.78323 0.53713 0.09300
C 	C 	0.38869 0.80129 0.52198 0.02700
C 	C 	0.37876 0.79808 0.47149 -0.04700
C 	C 	0.38310 0.77608 0.43796 0.04600
C 	C 	0.42271 0.74131 0.52230 0.79000
H 	H 	0.41118 0.78657 0.57489 0.11400
C 	C 	0.36306 0.81748 0.45441 0.77900
H 	H 	0.37566 0.77335 0.39907 0.13800
F 	F 	0.45107 0.71821 0.34220 -0.35200
F 	F 	0.43349 0.72280 0.26487 -0.36100
F 	F 	0.43926 0.68214 0.30033 -0.38500
F 	F 	0.35483 0.72976 0.44385 -0.38100
F 	F 	0.37492 0.71873 0.51333 -0.36700
F 	F 	0.36047 0.68696 0.46415 -0.36600
F 	F 	0.37055 0.84291 0.45212 -0.39100
F 	F 	0.34816 0.81679 0.49239 -0.40100
F 	F 	0.35550 0.81144 0.40308 -0.36100
F 	F 	0.42874 0.74596 0.57586 -0.35900
F 	F 	0.43850 0.74400 0.48785 -0.36800
F 	F 	0.41605 0.71545 0.51974 -0.36000
C 	C 	0.36402 0.52202 0.85536 0.05000
C 	C 	0.34756 0.52336 0.88893 0.09200
C 	C 	0.33168 0.50649 0.87776 -0.08400
C 	C 	0.33453 0.48438 0.84320 0.09000
C 	C 	0.35255 0.48019 0.81810 0.02600
C 	C 	0.36634 0.50087 0.81829 -0.05300
C 	C 	0.34825 0.53968 0.93970 0.10600
C 	C 	0.31220 0.51119 0.90476 0.79100
H 	H 	0.32348 0.46922 0.84002 0.11400
C 	C 	0.38456 0.49890 0.78395 0.78000
H 	H 	0.37563 0.53620 0.86126 0.12700
C 	C 	0.35756 0.53011 0.98795 -0.10000
C 	C 	0.36215 0.54807 0.03035 0.09100
C 	C 	0.35712 0.57490 0.02604 0.01400
C 	C 	0.34581 0.58369 0.98105 -0.05500
C 	C 	0.34214 0.56619 0.93717 0.04100
C 	C 	0.36453 0.50153 0.99186 0.78900
H 	H 	0.37066 0.54154 0.06534 0.11100
C 	C 	0.33911 0.61232 0.97750 0.77600
H 	H 	0.33531 0.57343 0.89989 0.14800
F 	F 	0.39837 0.48461 0.81252 -0.39000
F 	F 	0.39183 0.52390 0.77247 -0.36800
F 	F 	0.38079 0.48637 0.73432 -0.39200
F 	F 	0.30658 0.53727 0.89714 -0.37500
F 	F 	0.31338 0.50600 0.96062 -0.35700
F 	F 	0.29804 0.49505 0.88229 -0.36700
F 	F 	0.35464 0.62843 0.96440 -0.41400
F 	F 	0.33140 0.62035 0.02742 -0.39300
F 	F 	0.32498 0.61552 0.93762 -0.35500
F 	F 	0.36954 0.49495 0.04541 -0.37200
F 	F 	0.38061 0.49817 0.95873 -0.39700
F 	F 	0.35023 0.48412 0.97528 -0.38100
C 	C 	0.48231 0.68003 0.10228 0.04100
C 	C 	0.49050 0.65461 0.10567 0.10300
C 	C 	0.47839 0.63205 0.11091 -0.08900
C 	C 	0.45825 0.63565 0.11395 0.08300
C 	C 	0.45008 0.66100 0.10928 0.02000
C 	C 	0.46214 0.68340 0.10155 -0.03700
C 	C 	0.51185 0.65205 0.10650 0.10100
C 	C 	0.48687 0.60437 0.11723 0.78900
H 	H 	0.44885 0.61872 0.12042 0.09200
C 	C 	0.45360 0.71098 0.09441 0.77700
H 	H 	0.49175 0.69717 0.10014 0.14100
C 	C 	0.52288 0.65425 0.05739 -0.09000
C 	C 	0.54313 0.65608 0.06111 0.08800
C 	C 	0.55245 0.65437 0.11230 0.01700
C 	C 	0.54155 0.64912 0.16039 -0.05300
C 	C 	0.52127 0.64949 0.15740 0.04400
C 	C 	0.51311 0.65712 0.00159 0.79500
H 	H 	0.55162 0.66006 0.02447 0.11900
C 	C 	0.55142 0.64451 0.21543 0.77700
H 	H 	0.51275 0.64824 0.19481 0.14200
F 	F 	0.43916 0.71062 0.05494 -0.37500
F 	F 	0.46743 0.72912 0.07758 -0.35400
F 	F 	0.44596 0.71953 0.14398 -0.35500
F 	F 	0.49448 0.60157 0.16960 -0.38000
F 	F 	0.50130 0.60002 0.07881 -0.35900
F 	F 	0.47294 0.58497 0.10965 -0.37200
F 	F 	0.55715 0.66858 0.23741 -0.41600
F 	F 	0.56746 0.62837 0.20888 -0.41500
F 	F 	0.53910 0.63219 0.25244 -0.36000
F 	F 	0.52595 0.65221 0.95901 -0.36200
F 	F 	0.50610 0.68267 0.99591 -0.38100
F 	F 	0.49798 0.63935 0.99635 -0.36400
