data_crystal

_cell_length_a 36.32893
_cell_length_b 36.79340
_cell_length_c 24.94163
_cell_angle_alpha 90.00306
_cell_angle_beta  89.99986
_cell_angle_gamma 120.00273

_symmetry_space_group_name_	'P 1'
_symmetry_space_group_name_H-M	'P 1'

loop_
_symmetry_equiv_pos_as_xyz
  x,y,z

loop_
_atom_site_label
_atom_site_type_symbol
_atom_site_fract_x
_atom_site_fract_y
_atom_site_fract_z
_atom_site_charge
C 	C 	0.57138 0.45026 0.75205 0.29400
C 	C 	0.73287 0.59766 0.69610 0.31100
C 	C 	0.60954 0.55624 0.79696 0.31500
C 	C 	0.69276 0.49626 0.63866 0.29700
C 	C 	0.62501 0.60908 0.63457 0.31200
C 	C 	0.57100 0.49674 0.57864 0.29300
Ni	Ni	0.66004 0.52305 0.73902 1.11300
Ni	Ni	0.66144 0.55503 0.61743 1.12100
Ni	Ni	0.57943 0.52649 0.69001 1.12000
O 	O 	0.61205 0.46149 0.74709 -0.37400
O 	O 	0.55728 0.47728 0.74413 -0.37400
O 	O 	0.66031 0.60759 0.63419 -0.38800
O 	O 	0.70265 0.58621 0.73135 -0.38100
O 	O 	0.72255 0.58479 0.64626 -0.37400
O 	O 	0.55345 0.48801 0.62712 -0.38300
O 	O 	0.63015 0.53560 0.80268 -0.36800
O 	O 	0.60632 0.56885 0.74931 -0.38900
O 	O 	0.60863 0.53109 0.56946 -0.38100
O 	O 	0.69816 0.50760 0.69041 -0.36800
O 	O 	0.67051 0.50594 0.60519 -0.38100
O 	O 	0.58799 0.57479 0.64244 -0.38200
O 	O 	0.62986 0.52437 0.67872 -0.71700
H 	H 	0.61747 0.49533 0.66554 0.16500
C 	C 	0.38454 0.49525 0.25240 0.29400
C 	C 	0.22417 0.34627 0.19752 0.31400
C 	C 	0.34863 0.38893 0.29568 0.31400
C 	C 	0.26097 0.44751 0.14208 0.29600
C 	C 	0.33284 0.33858 0.13176 0.31400
C 	C 	0.38447 0.45030 0.07769 0.29400
Ni	Ni	0.29638 0.42141 0.24039 1.11300
Ni	Ni	0.29437 0.39094 0.11785 1.12200
Ni	Ni	0.37741 0.42039 0.18860 1.12000
O 	O 	0.34360 0.48328 0.24874 -0.37400
O 	O 	0.39914 0.46876 0.24368 -0.37500
O 	O 	0.29704 0.33902 0.13295 -0.38600
O 	O 	0.25489 0.35805 0.23210 -0.38000
O 	O 	0.23364 0.35964 0.14777 -0.37700
O 	O 	0.40160 0.45978 0.12635 -0.38500
O 	O 	0.32777 0.40924 0.30244 -0.37100
O 	O 	0.35229 0.37730 0.24751 -0.38900
O 	O 	0.34655 0.41623 0.06862 -0.38000
O 	O 	0.25675 0.43612 0.19376 -0.36900
O 	O 	0.28380 0.43929 0.10775 -0.38200
O 	O 	0.36944 0.37341 0.13893 -0.38700
O 	O 	0.32621 0.42133 0.17911 -0.71700
H 	H 	0.33782 0.45042 0.16645 0.16600
C 	C 	0.52255 0.11666 0.03831 0.29500
C 	C 	0.35691 0.09702 0.99424 0.30700
C 	C 	0.41872 0.03458 0.08894 0.31200
C 	C 	0.45545 0.17223 0.93122 0.29200
C 	C 	0.36655 0.99052 0.92899 0.31400
C 	C 	0.47489 0.06300 0.86798 0.29400
Ni	Ni	0.43932 0.11510 0.03160 1.11400
Ni	Ni	0.40625 0.08067 0.91107 1.12100
Ni	Ni	0.45080 0.04098 0.98062 1.12000
O 	O 	0.50436 0.14019 0.03685 -0.37600
O 	O 	0.49986 0.07490 0.03347 -0.37700
O 	O 	0.36020 0.02257 0.92881 -0.38600
O 	O 	0.37418 0.08221 0.02649 -0.37700
O 	O 	0.36745 0.10097 0.94319 -0.37000
O 	O 	0.48896 0.06199 0.91677 -0.39100
O 	O 	0.43585 0.07547 0.09415 -0.37300
O 	O 	0.40867 0.01784 0.04125 -0.38600
O 	O 	0.43714 0.06055 0.86042 -0.37700
O 	O 	0.44362 0.16435 0.98278 -0.36900
O 	O 	0.44715 0.14183 0.89619 -0.38000
O 	O 	0.40530 0.99635 0.93339 -0.38800
O 	O 	0.44213 0.08712 0.97052 -0.71800
H 	H 	0.47002 0.10814 0.95605 0.16500
C 	C 	0.43061 0.82880 0.53417 0.29500
C 	C 	0.59888 0.84556 0.51396 0.31100
C 	C 	0.53220 0.90314 0.59784 0.31300
C 	C 	0.50221 0.77241 0.43407 0.29300
C 	C 	0.59810 0.95409 0.44334 0.31600
C 	C 	0.49943 0.89321 0.36942 0.29400
Ni	Ni	0.51076 0.82464 0.53597 1.11300
Ni	Ni	0.55715 0.86456 0.42310 1.12100
Ni	Ni	0.50994 0.90490 0.48567 1.12100
O 	O 	0.44650 0.80345 0.52899 -0.37900
O 	O 	0.45498 0.87060 0.52984 -0.37500
O 	O 	0.60180 0.92078 0.44965 -0.39200
O 	O 	0.57569 0.85369 0.54618 -0.37800
O 	O 	0.58956 0.84016 0.46243 -0.37600
O 	O 	0.47964 0.89031 0.41536 -0.38900
O 	O 	0.50949 0.86195 0.59844 -0.37600
O 	O 	0.54628 0.92298 0.55232 -0.38500
O 	O 	0.53366 0.88831 0.36643 -0.37500
O 	O 	0.50976 0.77740 0.48682 -0.37200
O 	O 	0.51649 0.80485 0.40076 -0.37700
O 	O 	0.56048 0.95107 0.44609 -0.38600
O 	O 	0.51618 0.85719 0.47567 -0.72000
H 	H 	0.48978 0.83845 0.45611 0.16700
C 	C 	0.11263 0.55075 0.90675 0.29600
C 	C 	0.12633 0.70646 0.82899 0.31400
C 	C 	0.05309 0.59969 0.95090 0.31700
C 	C 	0.18006 0.66082 0.76985 0.29700
C 	C 	0.99989 0.59862 0.79378 0.31600
C 	C 	0.04277 0.53356 0.73872 0.30000
Ni	Ni	0.13104 0.63788 0.87975 1.11300
Ni	Ni	0.08802 0.62836 0.76170 1.12100
Ni	Ni	0.04084 0.55697 0.84955 1.12000
O 	O 	0.14274 0.58897 0.89254 -0.37300
O 	O 	0.07131 0.53863 0.90365 -0.38100
O 	O 	0.03626 0.63163 0.78084 -0.38900
O 	O 	0.11109 0.68076 0.86932 -0.38200
O 	O 	0.12244 0.69110 0.78035 -0.37900
O 	O 	0.04865 0.52607 0.78890 -0.39000
O 	O 	0.09466 0.61699 0.95011 -0.37100
O 	O 	0.03235 0.59135 0.90578 -0.39100
O 	O 	0.05449 0.57237 0.72130 -0.37800
O 	O 	0.18046 0.66839 0.82251 -0.36800
O 	O 	0.14485 0.63422 0.74394 -0.38100
O 	O 	0.99764 0.56250 0.80436 -0.39100
O 	O 	0.09263 0.60360 0.82689 -0.71600
H 	H 	0.10761 0.58922 0.81381 0.16900
C 	C 	0.83838 0.38326 0.41191 0.29100
C 	C 	0.82574 0.23000 0.32171 0.31500
C 	C 	0.88527 0.32229 0.46012 0.31200
C 	C 	0.78112 0.28749 0.25916 0.29800
C 	C 	0.95550 0.33616 0.30925 0.31400
C 	C 	0.91665 0.40856 0.25721 0.29400
Ni	Ni	0.81680 0.29665 0.37581 1.11300
Ni	Ni	0.87189 0.31349 0.26721 1.12100
Ni	Ni	0.91250 0.37560 0.36577 1.12100
O 	O 	0.80793 0.34704 0.39205 -0.37200
O 	O 	0.87841 0.39135 0.41720 -0.37900
O 	O 	0.91856 0.30469 0.29493 -0.38800
O 	O 	0.83204 0.24992 0.36711 -0.38200
O 	O 	0.83226 0.25027 0.27610 -0.38300
O 	O 	0.91615 0.41598 0.30927 -0.38500
O 	O 	0.84477 0.30870 0.45170 -0.37300
O 	O 	0.91138 0.33401 0.41935 -0.39000
O 	O 	0.91262 0.37253 0.23909 -0.37900
O 	O 	0.77435 0.27422 0.31011 -0.37100
O 	O 	0.81968 0.31378 0.24038 -0.38200
O 	O 	0.95887 0.37163 0.32591 -0.38900
O 	O 	0.86203 0.33398 0.33230 -0.71900
H 	H 	0.85065 0.35152 0.31850 0.16500
C 	C 	0.90693 0.37872 0.59027 -0.07700
C 	C 	0.95070 0.39384 0.59452 0.01400
C 	C 	0.96917 0.37458 0.56451 -0.00500
C 	C 	0.94550 0.34592 0.52407 -0.00400
C 	C 	0.90307 0.33523 0.51485 -0.09800
C 	C 	0.88251 0.34728 0.55323 0.06200
C 	C 	0.97650 0.42919 0.63127 0.01500
S 	S 	0.02130 0.38539 0.57783 -0.03700
H 	H 	0.96067 0.33372 0.49801 0.04200
S 	S 	0.82692 0.31863 0.56147 -0.04300
H 	H 	0.89173 0.39070 0.61666 0.05300
C 	C 	0.00580 0.46935 0.61122 -0.00500
C 	C 	0.02831 0.50274 0.64684 -0.00300
C 	C 	0.01922 0.49752 0.70195 -0.09000
C 	C 	0.98690 0.45805 0.72117 0.06300
C 	C 	0.96801 0.42376 0.68633 -0.07500
S 	S 	0.01241 0.47892 0.54171 -0.04500
H 	H 	0.05215 0.53305 0.63145 0.04400
S 	S 	0.96555 0.45230 0.78617 -0.06200
H 	H 	0.94445 0.39326 0.70157 0.05400
H 	H 	0.80797 0.33588 0.53144 0.04400
H 	H 	0.98228 0.48793 0.52346 0.03700
H 	H 	0.98663 0.44005 0.82074 0.04000
H 	H 	0.04935 0.41725 0.54529 0.03700
C 	C 	0.01038 0.57560 0.09291 -0.07600
C 	C 	0.98963 0.53155 0.09260 0.01700
C 	C 	0.98833 0.51027 0.04504 -0.00500
C 	C 	0.00688 0.53299 0.99837 -0.00000
C 	C 	0.02979 0.57698 0.99930 -0.10300
C 	C 	0.03118 0.59845 0.04674 0.06400
C 	C 	0.97141 0.50787 0.14275 0.01100
S 	S 	0.96571 0.45530 0.04423 -0.03400
H 	H 	0.00455 0.51636 0.96155 0.02500
S 	S 	0.05791 0.65365 0.04854 -0.04300
H 	H 	0.01127 0.59205 0.12939 0.05300
C 	C 	0.99748 0.50205 0.17951 -0.00500
C 	C 	0.97906 0.47044 0.21819 -0.00200
C 	C 	0.93481 0.44472 0.22090 -0.08500
C 	C 	0.90861 0.45286 0.18733 0.05200
C 	C 	0.92704 0.48478 0.14885 -0.06900
S 	S 	0.05319 0.53335 0.17646 -0.03800
H 	H 	0.99921 0.46497 0.24517 0.04100
S 	S 	0.85286 0.42278 0.19234 -0.04200
H 	H 	0.90690 0.48990 0.12147 0.05400
H 	H 	0.03051 0.66720 0.03343 0.04200
H 	H 	0.06598 0.56880 0.20663 0.03600
H 	H 	0.83892 0.44032 0.22990 0.03800
H 	H 	0.99604 0.44540 0.05865 0.03700
C 	C 	0.28171 0.70271 0.68983 -0.07200
C 	C 	0.28388 0.73837 0.66619 0.01200
C 	C 	0.25286 0.74936 0.67879 -0.00300
C 	C 	0.22044 0.72497 0.71511 -0.00600
C 	C 	0.21768 0.68881 0.73780 -0.08600
C 	C 	0.24865 0.67778 0.72534 0.05400
C 	C 	0.31958 0.76478 0.62968 0.01300
S 	S 	0.25370 0.79299 0.64843 -0.03800
H 	H 	0.19668 0.73356 0.72470 0.04500
S 	S 	0.24638 0.63293 0.75384 -0.04300
H 	H 	0.30573 0.69440 0.68058 0.05200
C 	C 	0.35493 0.80214 0.64815 -0.00500
C 	C 	0.38843 0.82649 0.61317 -0.00400
C 	C 	0.38934 0.81183 0.56159 -0.08700
C 	C 	0.35334 0.77529 0.54235 0.05600
C 	C 	0.31851 0.75216 0.57633 -0.07200
S 	S 	0.35919 0.81693 0.71592 -0.04300
H 	H 	0.41532 0.85536 0.62745 0.04300
S 	S 	0.35140 0.75852 0.47577 -0.04800
H 	H 	0.29097 0.72391 0.56163 0.05400
H 	H 	0.26761 0.64344 0.80181 0.04000
H 	H 	0.37848 0.79908 0.74410 0.03600
H 	H 	0.36814 0.73243 0.47333 0.04200
H 	H 	0.27719 0.82796 0.67924 0.03900
C 	C 	0.67651 0.06827 0.41229 -0.07600
C 	C 	0.70159 0.06403 0.37282 0.01400
C 	C 	0.69299 0.02381 0.35711 -0.00800
C 	C 	0.65956 0.98828 0.38106 0.00200
C 	C 	0.63431 0.99235 0.42066 -0.09700
C 	C 	0.64318 0.03278 0.43660 0.05900
C 	C 	0.73741 0.10205 0.34921 0.01300
S 	S 	0.72323 0.01754 0.30662 -0.03600
H 	H 	0.65257 0.95735 0.36806 0.03400
S 	S 	0.61441 0.03963 0.48861 -0.04500
H 	H 	0.68335 0.09930 0.42456 0.05200
C 	C 	0.73065 0.12308 0.30653 -0.00700
C 	C 	0.76220 0.16385 0.29307 -0.00200
C 	C 	0.80044 0.18385 0.32206 -0.09700
C 	C 	0.80917 0.16059 0.35979 0.05900
C 	C 	0.77744 0.12001 0.37363 -0.07300
S 	S 	0.68229 0.09925 0.27108 -0.04000
H 	H 	0.75582 0.18100 0.26266 0.04500
S 	S 	0.85955 0.18199 0.38999 -0.03700
H 	H 	0.78334 0.10303 0.40483 0.05500
H 	H 	0.63772 0.04969 0.53492 0.04000
H 	H 	0.65311 0.10506 0.29886 0.03600
H 	H 	0.86044 0.20302 0.43576 0.04700
H 	H 	0.70556 0.01634 0.25765 0.03800
C 	C 	0.49861 0.95343 0.24615 -0.07200
C 	C 	0.45558 0.94211 0.24490 0.01200
C 	C 	0.42654 0.91017 0.27925 -0.00400
C 	C 	0.44104 0.89086 0.31516 -0.00500
C 	C 	0.48475 0.90550 0.32084 -0.08400
C 	C 	0.51378 0.93703 0.28546 0.05500
C 	C 	0.44161 0.96502 0.20887 0.01400
S 	S 	0.37252 0.89608 0.28044 -0.03900
H 	H 	0.41850 0.86623 0.34133 0.04600
S 	S 	0.56915 0.95901 0.29251 -0.03800
H 	H 	0.52080 0.97717 0.21873 0.05200
C 	C 	0.45550 0.00792 0.21716 -0.00800
C 	C 	0.44554 0.02996 0.17956 -0.00100
C 	C 	0.42023 0.00928 0.13464 -0.09600
C 	C 	0.40171 0.96511 0.13067 0.05500
C 	C 	0.41479 0.94395 0.16552 -0.07400
S 	S 	0.48485 0.03426 0.27470 -0.03900
H 	H 	0.45837 0.06341 0.18469 0.04500
S 	S 	0.35867 0.93535 0.08726 -0.03600
H 	H 	0.40288 0.91067 0.16002 0.05500
H 	H 	0.58475 0.99421 0.32390 0.04300
H 	H 	0.52733 0.05061 0.26466 0.03400
H 	H 	0.32140 0.92394 0.11372 0.03800
H 	H 	0.36721 0.92199 0.31509 0.03800
C 	C 	0.48934 0.02270 0.73505 -0.07200
C 	C 	0.51992 0.01195 0.75009 0.01100
C 	C 	0.54285 0.02810 0.79801 -0.00300
C 	C 	0.53230 0.05143 0.83247 -0.00700
C 	C 	0.49674 0.05600 0.82184 -0.08400
C 	C 	0.47822 0.04545 0.77011 0.05600
C 	C 	0.52609 0.98209 0.71687 0.01400
S 	S 	0.58295 0.01707 0.81704 -0.04100
H 	H 	0.54979 0.06331 0.86960 0.04800
S 	S 	0.44640 0.06550 0.74581 -0.04300
H 	H 	0.47383 0.01287 0.69636 0.05200
C 	C 	0.49576 0.93887 0.71712 -0.00800
C 	C 	0.50033 0.91174 0.68192 -0.00200
C 	C 	0.53494 0.92737 0.64645 -0.09700
C 	C 	0.56833 0.96912 0.65242 0.05800
C 	C 	0.56282 0.99678 0.68544 -0.07400
S 	S 	0.45226 0.91842 0.76154 -0.03800
H 	H 	0.47640 0.87877 0.68114 0.04300
S 	S 	0.61837 0.98573 0.62320 -0.03400
H 	H 	0.58744 0.02951 0.68752 0.05400
H 	H 	0.40440 0.03646 0.75373 0.04000
H 	H 	0.41924 0.92054 0.73820 0.03700
H 	H 	0.64231 0.97660 0.65711 0.03900
H 	H 	0.56493 0.97968 0.84412 0.03800
C 	C 	0.67468 0.24211 0.18963 -0.07200
C 	C 	0.67677 0.21323 0.15479 0.01300
C 	C 	0.71433 0.21105 0.15186 -0.00500
C 	C 	0.74919 0.23746 0.18389 -0.00300
C 	C 	0.74653 0.26509 0.22035 -0.08800
C 	C 	0.70926 0.26786 0.22264 0.05500
C 	C 	0.63924 0.18500 0.12209 0.01300
S 	S 	0.71742 0.17409 0.11008 -0.03500
H 	H 	0.77788 0.23535 0.18199 0.04000
S 	S 	0.70587 0.30398 0.26572 -0.04500
H 	H 	0.64593 0.24411 0.19153 0.05300
C 	C 	0.60627 0.14730 0.14366 -0.00500
C 	C 	0.56972 0.12248 0.11331 -0.00300
C 	C 	0.56520 0.13543 0.06202 -0.08800
C 	C 	0.59935 0.17166 0.03916 0.05900
C 	C 	0.63608 0.19633 0.06934 -0.07200
S 	S 	0.60968 0.13165 0.20927 -0.04400
H 	H 	0.54365 0.09444 0.13090 0.04300
S 	S 	0.59630 0.18651 0.97292 -0.05100
H 	H 	0.66192 0.22473 0.05215 0.05500
H 	H 	0.69120 0.28571 0.31483 0.04100
H 	H 	0.59357 0.14868 0.24457 0.03500
H 	H 	0.57923 0.21233 0.97328 0.04100
H 	H 	0.70312 0.13725 0.13770 0.03900
C 	C 	0.25629 0.89593 0.91613 -0.07300
C 	C 	0.26255 0.87370 0.87493 0.01200
C 	C 	0.30315 0.88978 0.85186 -0.00400
C 	C 	0.33732 0.92708 0.87137 -0.00300
C 	C 	0.33131 0.94899 0.91334 -0.09300
C 	C 	0.29041 0.93312 0.93592 0.05600
C 	C 	0.22820 0.83083 0.86202 0.01600
S 	S 	0.31162 0.86318 0.79898 -0.04100
H 	H 	0.36842 0.93955 0.85311 0.04500
S 	S 	0.28177 0.95852 0.99031 -0.02700
H 	H 	0.22514 0.88333 0.93427 0.05300
C 	C 	0.22420 0.79624 0.89101 -0.01000
C 	C 	0.19079 0.75603 0.87981 0.00900
C 	C 	0.16090 0.74962 0.83982 -0.10400
C 	C 	0.16504 0.78423 0.81035 0.06100
C 	C 	0.19870 0.82466 0.82164 -0.07600
S 	S 	0.26093 0.80294 0.94161 -0.03900
H 	H 	0.18819 0.72951 0.90202 0.01500
S 	S 	0.12784 0.77766 0.76060 -0.04800
H 	H 	0.20180 0.85132 0.79929 0.05400
H 	H 	0.28279 0.93985 0.03731 0.04000
H 	H 	0.24817 0.81178 0.98914 0.03500
H 	H 	0.14092 0.77031 0.71231 0.04100
H 	H 	0.31957 0.83336 0.81995 0.04000
C 	C 	0.03528 0.29909 0.29855 -0.07100
C 	C 	0.06443 0.32818 0.26197 0.01200
C 	C 	0.05841 0.36078 0.24235 -0.00600
C 	C 	0.02334 0.36382 0.25934 -0.00300
C 	C 	0.99420 0.33475 0.29599 -0.09300
C 	C 	0.00071 0.30267 0.31642 0.05500
C 	C 	0.10364 0.32721 0.24927 0.01600
S 	S 	0.09491 0.39829 0.19716 -0.04100
H 	H 	0.01838 0.38849 0.24348 0.04300
S 	S 	0.96751 0.26865 0.36690 -0.03000
H 	H 	0.04039 0.27457 0.31455 0.05400
C 	C 	0.13934 0.34730 0.28304 -0.00800
C 	C 	0.17767 0.35024 0.26766 0.00300
C 	C 	0.18125 0.33398 0.21811 -0.09800
C 	C 	0.14457 0.31109 0.18615 0.06100
C 	C 	0.10608 0.30811 0.20176 -0.07400
S 	S 	0.13699 0.37072 0.34359 -0.04000
H 	H 	0.20537 0.36717 0.29305 0.02200
S 	S 	0.14588 0.28461 0.12802 -0.04100
H 	H 	0.07824 0.29161 0.17647 0.05400
H 	H 	0.98217 0.28680 0.41607 0.03900
H 	H 	0.14574 0.41088 0.33354 0.03500
H 	H 	0.15468 0.31043 0.08453 0.04100
H 	H 	0.12749 0.43019 0.22516 0.03800
C 	C 	0.22159 0.51368 0.07614 -0.07000
C 	C 	0.18338 0.48235 0.05363 0.01300
C 	C 	0.16832 0.43991 0.06656 -0.00400
C 	C 	0.19210 0.42927 0.10060 -0.00400
C 	C 	0.23183 0.46033 0.11977 -0.08600
C 	C 	0.24606 0.50284 0.10867 0.05400
C 	C 	0.16081 0.49421 0.01417 0.01600
S 	S 	0.12108 0.39972 0.03798 -0.03900
H 	H 	0.18085 0.39654 0.10967 0.04400
S 	S 	0.29484 0.54266 0.13434 -0.04600
H 	H 	0.23287 0.54639 0.06697 0.05500
C 	C 	0.12746 0.50086 0.03029 -0.00100
C 	C 	0.10960 0.51635 0.99348 -0.01200
C 	C 	0.12517 0.52602 0.94079 -0.08500
C 	C 	0.15689 0.51714 0.92391 0.05400
C 	C 	0.17452 0.50132 0.96064 -0.07400
S 	S 	0.10869 0.49113 0.09678 -0.03600
H 	H 	0.08497 0.52280 0.00656 0.05100
S 	S 	0.17433 0.52514 0.85681 -0.04100
H 	H 	0.19951 0.49530 0.94789 0.05400
H 	H 	0.28835 0.55471 0.18379 0.04000
H 	H 	0.07412 0.45156 0.10046 0.03500
H 	H 	0.14914 0.48961 0.82769 0.03900
H 	H 	0.08726 0.39125 0.07033 0.03600
C 	C 	0.42338 0.57743 0.36017 -0.07400
C 	C 	0.44650 0.61385 0.32965 0.01300
C 	C 	0.45509 0.61069 0.27524 -0.00400
C 	C 	0.43777 0.57109 0.25109 -0.00500
C 	C 	0.41193 0.53470 0.28079 -0.08500
C 	C 	0.40595 0.53798 0.33613 0.05800
C 	C 	0.46104 0.65506 0.35506 0.01300
S 	S 	0.48642 0.65598 0.23673 -0.03400
H 	H 	0.44269 0.56871 0.20865 0.04000
S 	S 	0.37496 0.49300 0.37522 -0.04600
H 	H 	0.41786 0.57986 0.40241 0.05200
C 	C 	0.43600 0.67447 0.35285 -0.00500
C 	C 	0.44899 0.71212 0.38047 -0.00500
C 	C 	0.48662 0.73051 0.41059 -0.08700
C 	C 	0.51140 0.71080 0.41298 0.05600
C 	C 	0.49832 0.67316 0.38561 -0.07300
S 	S 	0.38834 0.65186 0.31586 -0.03800
H 	H 	0.43002 0.72731 0.37815 0.03800
S 	S 	0.55939 0.73344 0.44882 -0.03700
H 	H 	0.51725 0.65793 0.38795 0.05300
H 	H 	0.40068 0.48027 0.39853 0.04200
H 	H 	0.35566 0.62376 0.34760 0.03600
H 	H 	0.55053 0.72824 0.50255 0.04200
H 	H 	0.46091 0.66958 0.21462 0.03900
C 	C 	0.30522 0.16384 0.01184 -0.06400
C 	C 	0.33144 0.19167 0.05182 0.01400
C 	C 	0.36209 0.18486 0.07705 -0.00600
C 	C 	0.36810 0.15214 0.06003 0.00800
C 	C 	0.34409 0.12598 0.01743 -0.09200
C 	C 	0.31105 0.13064 0.99498 0.05400
C 	C 	0.32727 0.22829 0.06672 0.01400
S 	S 	0.39409 0.21797 0.12910 -0.03700
H 	H 	0.39284 0.14810 0.07850 0.00700
S 	S 	0.27604 0.09453 0.94745 -0.04300
H 	H 	0.28069 0.16829 0.99355 0.04900
C 	C 	0.35466 0.26804 0.04418 -0.00400
C 	C 	0.35708 0.30399 0.06671 -0.00200
C 	C 	0.33246 0.30081 0.11166 -0.09400
C 	C 	0.30458 0.26097 0.13371 0.05700
C 	C 	0.30156 0.22496 0.11048 -0.07200
S 	S 	0.38693 0.27328 0.98871 -0.04000
H 	H 	0.37786 0.33444 0.04894 0.04300
S 	S 	0.27541 0.25599 0.19239 -0.02400
H 	H 	0.28090 0.19449 0.12828 0.05500
H 	H 	0.29147 0.10801 0.89682 0.04000
H 	H 	0.36495 0.26903 0.94230 0.03500
H 	H 	0.29971 0.25985 0.23636 0.04300
H 	H 	0.42925 0.25167 0.10742 0.03900
C 	C 	0.72815 0.42583 0.57512 -0.07200
C 	C 	0.76597 0.45567 0.55024 0.01300
C 	C 	0.78175 0.49875 0.55954 -0.00500
C 	C 	0.75939 0.51147 0.59307 -0.00500
C 	C 	0.72023 0.48176 0.61521 -0.08500
C 	C 	0.70499 0.43868 0.60706 0.05400
C 	C 	0.78803 0.44150 0.51310 0.01200
S 	S 	0.82802 0.53704 0.52695 -0.03800
H 	H 	0.77131 0.54466 0.59963 0.04500
S 	S 	0.65660 0.40062 0.63572 -0.04800
H 	H 	0.71626 0.39266 0.56858 0.05200
C 	C 	0.82174 0.43608 0.53109 -0.00600
C 	C 	0.84075 0.42072 0.49593 -0.00700
C 	C 	0.82525 0.40886 0.44346 -0.08600
C 	C 	0.79343 0.41690 0.42446 0.05400
C 	C 	0.77478 0.43286 0.45947 -0.07100
S 	S 	0.83948 0.44706 0.59797 -0.04300
H 	H 	0.86614 0.41589 0.51030 0.04500
S 	S 	0.77815 0.40909 0.35651 -0.04100
H 	H 	0.74981 0.43834 0.44511 0.05400
H 	H 	0.66406 0.39056 0.68590 0.04100
H 	H 	0.81688 0.41166 0.62839 0.03600
H 	H 	0.80424 0.44470 0.32804 0.03700
H 	H 	0.86328 0.54399 0.55521 0.03600
C 	C 	0.84910 0.62807 0.69591 -0.07500
C 	C 	0.85182 0.61148 0.74543 0.01500
C 	C 	0.81779 0.59688 0.78187 -0.00600
C 	C 	0.78035 0.59615 0.76708 -0.00200
C 	C 	0.77601 0.60928 0.71560 -0.09700
C 	C 	0.81170 0.62775 0.68114 0.06000
C 	C 	0.88961 0.60783 0.75794 0.01300
S 	S 	0.82100 0.57769 0.84537 -0.03800
H 	H 	0.75379 0.58333 0.79474 0.02800
S 	S 	0.81108 0.65311 0.62157 -0.04300
H 	H 	0.87595 0.64084 0.66866 0.05300
C 	C 	0.89147 0.57190 0.74258 -0.00700
C 	C 	0.92699 0.56844 0.75613 -0.00100
C 	C 	0.96041 0.60011 0.78599 -0.09300
C 	C 	0.95738 0.63498 0.80381 0.05800
C 	C 	0.92256 0.63910 0.78859 -0.07200
S 	S 	0.84923 0.53081 0.70710 -0.03400
H 	H 	0.92896 0.54145 0.74264 0.04500
S 	S 	0.99558 0.67229 0.84776 -0.02800
H 	H 	0.92054 0.66612 0.80178 0.05400
H 	H 	0.82386 0.69424 0.63245 0.03800
H 	H 	0.85457 0.53952 0.65340 0.03700
H 	H 	0.02767 0.70377 0.81863 0.04700
H 	H 	0.80833 0.53591 0.84121 0.03700
C 	C 	0.55556 0.54090 0.93190 -0.07700
C 	C 	0.51365 0.52720 0.91554 0.01500
C 	C 	0.50520 0.53046 0.86120 -0.00700
C 	C 	0.53744 0.54237 0.82305 0.00500
C 	C 	0.57865 0.55229 0.83868 -0.09900
C 	C 	0.58825 0.55411 0.89383 0.06000
C 	C 	0.47851 0.50735 0.95499 0.01300
S 	S 	0.45432 0.51947 0.84041 -0.03700
H 	H 	0.53006 0.54243 0.78095 0.02200
S 	S 	0.64093 0.57390 0.91580 -0.04300
H 	H 	0.56254 0.54031 0.97404 0.05300
C 	C 	0.45217 0.46330 0.95708 -0.00500
C 	C 	0.41936 0.44519 0.99484 -0.00700
C 	C 	0.41295 0.47039 0.03157 -0.08300
C 	C 	0.43821 0.51448 0.02815 0.05800
C 	C 	0.47090 0.53268 0.99007 -0.07500
S 	S 	0.46046 0.43038 0.91350 -0.03900
H 	H 	0.40004 0.41130 0.99727 0.04300
S 	S 	0.42843 0.54719 0.07024 -0.04300
H 	H 	0.49044 0.56655 0.98772 0.05400
H 	H 	0.65976 0.61643 0.92284 0.03900
H 	H 	0.48378 0.41577 0.93931 0.03400
H 	H 	0.39859 0.55453 0.04701 0.04000
H 	H 	0.43029 0.47778 0.82766 0.03800
C 	C 	0.40120 0.40350 0.43128 -0.07700
C 	C 	0.44307 0.41640 0.41554 0.01500
C 	C 	0.45163 0.41214 0.36154 -0.00700
C 	C 	0.41971 0.40041 0.32292 0.00300
C 	C 	0.37866 0.39146 0.33785 -0.09800
C 	C 	0.36875 0.39008 0.39285 0.06100
C 	C 	0.47812 0.43692 0.45508 0.01200
S 	S 	0.50222 0.42164 0.34178 -0.03700
H 	H 	0.42728 0.39983 0.28100 0.02600
S 	S 	0.31584 0.36966 0.41426 -0.04300
H 	H 	0.39405 0.40469 0.47322 0.05300
C 	C 	0.50522 0.48088 0.45502 -0.00600
C 	C 	0.53814 0.49961 0.49257 -0.00400
C 	C 	0.54305 0.47539 0.53232 -0.08500
C 	C 	0.51699 0.43129 0.53119 0.05500
C 	C 	0.48467 0.41233 0.49267 -0.07100
S 	S 	0.49740 0.51300 0.40945 -0.03900
H 	H 	0.55882 0.53333 0.49229 0.04400
S 	S 	0.52555 0.39943 0.57634 -0.04400
H 	H 	0.46457 0.37848 0.49202 0.05400
H 	H 	0.30685 0.40152 0.41889 0.04100
H 	H 	0.47415 0.52837 0.43368 0.03500
H 	H 	0.55523 0.39080 0.55548 0.04000
H 	H 	0.52712 0.46303 0.32806 0.03800
C 	C 	0.52977 0.36861 0.86107 -0.07200
C 	C 	0.50933 0.33188 0.83047 0.01300
C 	C 	0.50353 0.33450 0.77495 -0.00300
C 	C 	0.52014 0.37391 0.75042 -0.00600
C 	C 	0.54381 0.41071 0.78036 -0.08300
C 	C 	0.54823 0.40787 0.83625 0.05500
C 	C 	0.49579 0.29100 0.85662 0.01300
S 	S 	0.47764 0.28888 0.73532 -0.03800
H 	H 	0.51687 0.37588 0.70747 0.04000
S 	S 	0.58000 0.45292 0.87482 -0.03900
H 	H 	0.53339 0.36660 0.90394 0.05100
C 	C 	0.52583 0.27915 0.87138 -0.00600
C 	C 	0.51253 0.24127 0.89859 -0.00500
C 	C 	0.46937 0.21444 0.90986 -0.08500
C 	C 	0.43929 0.22595 0.89389 0.05600
C 	C 	0.45281 0.26460 0.86889 -0.07200
S 	S 	0.57986 0.31073 0.85442 -0.03700
H 	H 	0.53561 0.23207 0.90950 0.03600
S 	S 	0.38454 0.19119 0.90157 -0.03600
H 	H 	0.42971 0.27372 0.85777 0.05300
H 	H 	0.55469 0.46525 0.90000 0.04200
H 	H 	0.60029 0.33962 0.89423 0.03500
H 	H 	0.36947 0.16538 0.85774 0.03700
H 	H 	0.50673 0.27803 0.71834 0.03900
C 	C 	0.60393 0.69132 0.57292 -0.07200
C 	C 	0.63864 0.72832 0.59256 0.01300
C 	C 	0.66725 0.72589 0.62845 -0.00600
C 	C 	0.66082 0.68661 0.64427 -0.00100
C 	C 	0.62705 0.64949 0.62292 -0.09100
C 	C 	0.59863 0.65210 0.58644 0.05600
C 	C 	0.64403 0.76937 0.57595 0.01300
S 	S 	0.71224 0.77168 0.65197 -0.03800
H 	H 	0.68285 0.68491 0.67210 0.04900
S 	S 	0.55851 0.60721 0.55392 -0.03700
H 	H 	0.58178 0.69312 0.54559 0.05200
C 	C 	0.65406 0.78319 0.52243 -0.00700
C 	C 	0.64557 0.81407 0.50315 -0.00100
C 	C 	0.62704 0.83095 0.53714 -0.09300
C 	C 	0.62733 0.82444 0.59303 0.05300
C 	C 	0.63333 0.79194 0.61179 -0.07400
S 	S 	0.67606 0.76133 0.47909 -0.03800
H 	H 	0.65028 0.82246 0.46105 0.04600
S 	S 	0.62566 0.85965 0.63948 -0.03700
H 	H 	0.62913 0.78387 0.65402 0.05400
H 	H 	0.57259 0.60462 0.50391 0.03600
H 	H 	0.71944 0.78326 0.48383 0.03600
H 	H 	0.66605 0.89213 0.64836 0.03900
H 	H 	0.74494 0.78343 0.61628 0.03600
