data_crystal

_cell_length_a 42.33661
_cell_length_b 42.40393
_cell_length_c 21.77246
_cell_angle_alpha 90.43769
_cell_angle_beta  89.51747
_cell_angle_gamma 89.97533

_symmetry_space_group_name_	'P 1'
_symmetry_space_group_name_H-M	'P 1'

loop_
_symmetry_equiv_pos_as_xyz
  x,y,z

loop_
_atom_site_label
_atom_site_type_symbol
_atom_site_fract_x
_atom_site_fract_y
_atom_site_fract_z
_atom_site_charge
Cd	Cd	0.03687 0.86060 0.12937 1.24600
Cd	Cd	0.08247 0.91393 0.22125 1.19800
O 	O 	0.99428 0.83312 0.18402 -0.30600
O 	O 	0.00186 0.82605 0.08507 -0.32800
C 	C 	0.98570 0.81867 0.13417 0.27300
O 	O 	0.06516 0.88719 0.05982 -0.33500
O 	O 	0.10226 0.90126 0.12912 -0.41500
C 	C 	0.08594 0.90793 0.07991 0.33400
C 	C 	0.01060 0.92052 0.16248 0.35800
O 	O 	0.07368 0.85995 0.22636 -0.45500
O 	O 	0.99465 0.90668 0.11867 -0.26000
O 	O 	0.03246 0.90325 0.18681 -0.51000
C 	C 	0.08986 0.83732 0.19987 0.33500
O 	O 	0.07874 0.82717 0.14760 -0.31800
Cd	Cd	0.81770 0.93543 0.11021 1.24500
Cd	Cd	0.81753 0.99240 0.98850 1.18000
O 	O 	0.79223 0.88488 0.08667 -0.31400
O 	O 	0.81941 0.89156 0.17101 -0.33300
C 	C 	0.80401 0.87209 0.13543 0.26700
O 	O 	0.85057 0.97425 0.14250 -0.31500
O 	O 	0.82687 0.01106 0.08254 -0.38500
C 	C 	0.85151 0.00162 0.11349 0.35800
C 	C 	0.86323 0.92992 0.01374 0.36900
O 	O 	0.77772 0.96680 0.04253 -0.43000
O 	O 	0.86838 0.90989 0.05773 -0.27000
O 	O 	0.83584 0.94378 0.01642 -0.53400
C 	C 	0.76429 0.97712 0.09304 0.34800
O 	O 	0.77392 0.96384 0.14353 -0.35200
C 	C 	0.85377 0.71366 0.98247 0.09800
N 	N 	0.85655 0.71490 0.92021 -0.13600
C 	C 	0.87095 0.69098 0.88884 0.12700
N 	N 	0.88343 0.66643 0.92003 -0.14000
C 	C 	0.88122 0.66540 0.98220 0.11300
N 	N 	0.86646 0.68909 0.01343 -0.12900
C 	C 	0.93218 0.68388 0.33778 0.11600
N 	N 	0.95079 0.65803 0.32924 -0.14100
C 	C 	0.95712 0.63867 0.37692 0.13100
N 	N 	0.94445 0.64484 0.43321 -0.14300
C 	C 	0.92579 0.67053 0.44214 0.13000
N 	N 	0.91905 0.68961 0.39409 -0.14100
Cd	Cd	0.82542 0.13523 0.74837 1.24500
Cd	Cd	0.86824 0.18685 0.84408 1.20200
O 	O 	0.77234 0.14903 0.71041 -0.30000
O 	O 	0.79680 0.10577 0.68126 -0.34000
C 	C 	0.77134 0.12290 0.67869 0.26900
O 	O 	0.87326 0.11364 0.75304 -0.37200
O 	O 	0.88757 0.13715 0.84379 -0.37700
C 	C 	0.89488 0.12002 0.79478 0.34900
C 	C 	0.85682 0.18793 0.69632 0.36300
O 	O 	0.81933 0.16276 0.85740 -0.42600
O 	O 	0.84838 0.16789 0.65362 -0.27500
O 	O 	0.84513 0.18252 0.75031 -0.53600
C 	C 	0.81432 0.13475 0.87966 0.34300
O 	O 	0.81176 0.11192 0.83959 -0.36500
Cd	Cd	0.88089 0.12425 0.52106 1.24900
Cd	Cd	0.95190 0.13794 0.43344 1.18100
O 	O 	0.82885 0.12955 0.47156 -0.27800
O 	O 	0.83385 0.11078 0.56478 -0.33200
C 	C 	0.81508 0.11810 0.52011 0.27000
O 	O 	0.91921 0.10816 0.58291 -0.34800
O 	O 	0.95961 0.13421 0.53500 -0.40000
C 	C 	0.94927 0.11000 0.56685 0.35400
C 	C 	0.90319 0.07740 0.43621 0.35400
O 	O 	0.90889 0.16956 0.46000 -0.41700
O 	O 	0.88176 0.06595 0.47342 -0.28800
O 	O 	0.90745 0.10761 0.43989 -0.50100
C 	C 	0.90561 0.18747 0.50854 0.33300
O 	O 	0.88815 0.17609 0.55266 -0.29900
C 	C 	0.60438 0.07340 0.75437 0.11600
N 	N 	0.58668 0.04803 0.73800 -0.14100
C 	C 	0.56981 0.03224 0.78125 0.12900
N 	N 	0.57111 0.04147 0.84106 -0.14200
C 	C 	0.58843 0.06708 0.85750 0.12800
N 	N 	0.60476 0.08316 0.81393 -0.13800
C 	C 	0.64612 0.07250 0.40592 0.11700
N 	N 	0.62661 0.05117 0.43295 -0.14100
C 	C 	0.60424 0.03620 0.39920 0.12900
N 	N 	0.60149 0.04249 0.33841 -0.14300
C 	C 	0.62126 0.06340 0.31113 0.13100
N 	N 	0.64336 0.07863 0.34502 -0.13500
Cd	Cd	0.07612 0.17568 0.26155 1.24600
Cd	Cd	0.00773 0.12750 0.28141 1.19100
O 	O 	0.09716 0.20310 0.35267 -0.29700
O 	O 	0.11983 0.20723 0.26242 -0.32300
C 	C 	0.11853 0.21699 0.31933 0.27000
O 	O 	0.07250 0.15030 0.17182 -0.35700
O 	O 	0.02028 0.13930 0.18448 -0.38700
C 	C 	0.04809 0.13178 0.16148 0.33600
C 	C 	0.08278 0.11420 0.31147 0.35900
O 	O 	0.01690 0.18095 0.29868 -0.46900
O 	O 	0.11030 0.12602 0.29628 -0.25700
O 	O 	0.05920 0.13369 0.31014 -0.54100
C 	C 	0.01373 0.20417 0.26012 0.34200
O 	O 	0.03938 0.21233 0.23084 -0.33100
Cd	Cd	0.05903 0.22217 0.04603 1.24500
Cd	Cd	0.05883 0.18490 0.89977 1.20000
O 	O 	0.08892 0.27139 0.05965 -0.30100
O 	O 	0.05786 0.25311 0.13232 -0.32300
C 	C 	0.07736 0.27501 0.11469 0.26700
O 	O 	0.02348 0.18344 0.05509 -0.38200
O 	O 	0.04363 0.15274 0.97671 -0.38000
C 	C 	0.02157 0.15835 0.01865 0.33800
C 	C 	0.02013 0.24665 0.95167 0.35000
O 	O 	0.09950 0.19841 0.96602 -0.44700
O 	O 	0.01172 0.25812 0.00521 -0.29000
O 	O 	0.04565 0.22986 0.95110 -0.51700
C 	C 	0.11072 0.18136 0.01031 0.37400
O 	O 	0.09940 0.18703 0.06518 -0.33400
C 	C 	0.05216 0.44650 0.07175 0.11800
N 	N 	0.03671 0.47330 0.08842 -0.14200
C 	C 	0.03350 0.49717 0.04768 0.13500
N 	N 	0.04592 0.49412 0.99011 -0.14700
C 	C 	0.06189 0.46753 0.97358 0.12300
N 	N 	0.06445 0.44355 0.01419 -0.13300
C 	C 	0.09841 0.39160 0.43502 0.11600
N 	N 	0.08492 0.41686 0.40731 -0.14100
C 	C 	0.07529 0.44211 0.44118 0.13100
N 	N 	0.07970 0.44250 0.50276 -0.14300
C 	C 	0.09353 0.41766 0.53073 0.13000
N 	N 	0.10319 0.39229 0.49682 -0.14000
Cd	Cd	0.13933 0.94317 0.81278 1.24500
Cd	Cd	0.10345 0.98329 0.94075 1.20700
O 	O 	0.16181 0.89026 0.82889 -0.30400
O 	O 	0.16175 0.91230 0.73822 -0.34400
C 	C 	0.17104 0.88880 0.77184 0.26900
O 	O 	0.11591 0.98516 0.77049 -0.34400
O 	O 	0.11384 0.01411 0.85961 -0.37500
C 	C 	0.10296 0.00782 0.80438 0.33600
C 	C 	0.07691 0.92631 0.85016 0.37700
O 	O 	0.15396 0.96409 0.92275 -0.41500
O 	O 	0.08416 0.91378 0.79674 -0.23500
O 	O 	0.10023 0.93943 0.87902 -0.52200
C 	C 	0.17738 0.97944 0.89773 0.34400
O 	O 	0.18247 0.97350 0.83959 -0.35700
Cd	Cd	0.12887 0.86895 0.58118 1.24600
Cd	Cd	0.06074 0.86215 0.47947 1.18600
O 	O 	0.17743 0.84857 0.53216 -0.26300
O 	O 	0.17827 0.87510 0.61967 -0.33600
C 	C 	0.19404 0.85994 0.57715 0.26800
O 	O 	0.09025 0.89667 0.62736 -0.34500
O 	O 	0.04782 0.89375 0.56050 -0.35700
C 	C 	0.06721 0.91051 0.59591 0.33500
C 	C 	0.12014 0.91040 0.48047 0.36100
O 	O 	0.07886 0.83486 0.56204 -0.45000
O 	O 	0.13980 0.92171 0.52091 -0.27700
O 	O 	0.11025 0.88171 0.48985 -0.52600
C 	C 	0.09631 0.81087 0.57547 0.34400
O 	O 	0.11889 0.81774 0.61363 -0.31000
C 	C 	0.34791 0.85774 0.80303 0.11400
N 	N 	0.37422 0.87204 0.78045 -0.14100
C 	C 	0.39955 0.87700 0.81699 0.12900
N 	N 	0.39908 0.86653 0.87575 -0.14300
C 	C 	0.37331 0.85124 0.89819 0.12500
N 	N 	0.34777 0.84684 0.86165 -0.14000
C 	C 	0.36338 0.88970 0.44904 0.11500
N 	N 	0.36074 0.87802 0.39102 -0.13700
C 	C 	0.38509 0.88091 0.35050 0.13000
N 	N 	0.41249 0.89454 0.36875 -0.14200
C 	C 	0.41513 0.90652 0.42651 0.12800
N 	N 	0.39035 0.90453 0.46632 -0.14200
C 	C 	0.37084 0.84483 0.96482 -0.04200
C 	C 	0.39690 0.83280 0.99763 0.09000
C 	C 	0.39739 0.83568 0.06195 -0.07200
C 	C 	0.37130 0.84807 0.09411 -0.01200
C 	C 	0.34359 0.85603 0.06178 0.08800
C 	C 	0.34381 0.85489 0.99729 -0.06600
N 	N 	0.42100 0.81778 0.96786 -0.19700
H 	H 	0.41816 0.82841 0.08699 0.05500
C 	C 	0.37453 0.85605 0.16023 -0.00000
N 	N 	0.31683 0.86492 0.09232 -0.19600
H 	H 	0.32332 0.86299 0.97236 0.05800
C 	C 	0.37985 0.88755 0.17721 -0.08500
C 	C 	0.38173 0.89640 0.23930 0.10600
C 	C 	0.38043 0.87287 0.28515 -0.04800
C 	C 	0.37521 0.84133 0.26825 -0.05000
C 	C 	0.37182 0.83268 0.20616 0.07200
H 	H 	0.38158 0.90541 0.14194 0.06000
N 	N 	0.38374 0.92751 0.25460 -0.19900
H 	H 	0.37378 0.82343 0.30348 0.05200
N 	N 	0.36570 0.80210 0.19114 -0.19400
H 	H 	0.38616 0.94455 0.22043 0.09200
H 	H 	0.38131 0.93526 0.30001 0.09800
H 	H 	0.36409 0.78498 0.22532 0.09000
H 	H 	0.36203 0.79504 0.14573 0.09300
H 	H 	0.29679 0.87178 0.06810 0.09900
H 	H 	0.31528 0.86405 0.14016 0.09900
H 	H 	0.41942 0.81176 0.92139 0.09400
H 	H 	0.44086 0.81029 0.99196 0.08600
C 	C 	0.33589 0.88928 0.49061 -0.00500
C 	C 	0.32172 0.91775 0.50929 -0.02100
C 	C 	0.29216 0.91761 0.53841 -0.03900
C 	C 	0.27650 0.88897 0.54897 0.01300
C 	C 	0.29191 0.86019 0.53489 0.03000
C 	C 	0.32162 0.86051 0.50580 -0.04700
C 	C 	0.27642 0.83156 0.54614 -0.05100
C 	C 	0.24488 0.83151 0.56551 0.00700
C 	C 	0.22865 0.86005 0.57440 -0.04400
C 	C 	0.24493 0.88872 0.56927 -0.01800
H 	H 	0.33294 0.94004 0.49866 0.04800
H 	H 	0.28096 0.93980 0.55062 0.05300
H 	H 	0.33294 0.83851 0.49246 0.05100
H 	H 	0.28832 0.80933 0.53724 0.05200
H 	H 	0.23257 0.80928 0.57068 0.06200
H 	H 	0.23250 0.91078 0.57731 0.05800
C 	C 	0.31781 0.86011 0.76919 -0.00500
C 	C 	0.31257 0.88582 0.73008 -0.02600
C 	C 	0.28192 0.89364 0.71252 -0.03800
C 	C 	0.25623 0.87573 0.73342 0.00800
C 	C 	0.26171 0.84765 0.76621 0.03200
C 	C 	0.29263 0.83968 0.78319 -0.05000
C 	C 	0.23594 0.82967 0.78675 -0.05400
C 	C 	0.20522 0.84147 0.78164 0.01100
C 	C 	0.20003 0.87125 0.75579 -0.05000
C 	C 	0.22531 0.88713 0.72748 -0.01200
H 	H 	0.33194 0.90101 0.71658 0.04800
H 	H 	0.27805 0.91465 0.68557 0.04600
H 	H 	0.29679 0.81889 0.81068 0.05300
H 	H 	0.23977 0.80748 0.80992 0.05400
H 	H 	0.18569 0.82851 0.80169 0.05300
H 	H 	0.22127 0.90967 0.70567 0.05700
C 	C 	0.07289 0.46310 0.90925 -0.04700
C 	C 	0.10158 0.44719 0.89546 0.10300
C 	C 	0.10770 0.43698 0.83498 -0.08400
C 	C 	0.08759 0.44557 0.78705 -0.00400
C 	C 	0.06061 0.46436 0.79991 0.07500
C 	C 	0.05311 0.47226 0.86108 -0.05200
N 	N 	0.12388 0.44302 0.93925 -0.19800
H 	H 	0.12878 0.42330 0.82482 0.06000
C 	C 	0.09440 0.43396 0.72383 -0.00200
N 	N 	0.04187 0.47489 0.75389 -0.19400
H 	H 	0.03150 0.48508 0.87125 0.05400
C 	C 	0.07666 0.40874 0.70037 -0.08400
C 	C 	0.07775 0.40113 0.63744 0.10700
C 	C 	0.09793 0.41844 0.59784 -0.04900
C 	C 	0.11820 0.44128 0.62269 -0.05000
C 	C 	0.11627 0.44968 0.68515 0.07200
H 	H 	0.06068 0.39609 0.73057 0.06600
N 	N 	0.05880 0.37784 0.61528 -0.20000
H 	H 	0.13418 0.45398 0.59253 0.05200
N 	N 	0.13481 0.47334 0.70716 -0.19400
H 	H 	0.04359 0.36564 0.64476 0.10300
H 	H 	0.05913 0.37134 0.56898 0.10500
H 	H 	0.15064 0.48498 0.67805 0.08900
H 	H 	0.13385 0.48038 0.75316 0.09100
H 	H 	0.02155 0.48801 0.76397 0.08900
H 	H 	0.04770 0.47101 0.70777 0.09300
H 	H 	0.12252 0.45488 0.98140 0.09300
H 	H 	0.14409 0.42963 0.92972 0.09000
C 	C 	0.17512 0.12049 0.02553 -0.14800
C 	C 	0.16922 0.10125 0.97421 0.02800
C 	C 	0.14445 0.10887 0.93432 0.29800
C 	C 	0.12586 0.13539 0.94573 -0.02700
C 	C 	0.13131 0.15428 0.99760 -0.18900
C 	C 	0.15615 0.14687 0.03742 0.39800
C 	C 	0.18601 0.07108 0.96639 -0.00100
F 	F 	0.13747 0.08963 0.88618 -0.41200
H 	H 	0.10654 0.14074 0.91518 0.03300
F 	F 	0.16193 0.16525 0.08740 -0.43400
H 	H 	0.19398 0.11463 0.05680 0.12400
C 	C 	0.20063 0.06390 0.90984 0.30800
C 	C 	0.20192 0.03262 0.88941 -0.05500
C 	C 	0.18939 0.00859 0.92640 -0.15200
C 	C 	0.18220 0.01534 0.98824 0.34500
C 	C 	0.18003 0.04667 0.00799 -0.12000
F 	F 	0.20987 0.08741 0.87174 -0.41500
H 	H 	0.21010 0.02745 0.84315 0.10200
F 	F 	0.17532 0.99173 0.02786 -0.43900
H 	H 	0.17092 0.05198 0.05355 0.14900
C 	C 	0.07792 0.30605 0.14451 -0.04700
C 	C 	0.10682 0.32204 0.14920 0.00300
C 	C 	0.10749 0.35497 0.14952 -0.05400
C 	C 	0.07924 0.37199 0.14458 0.02900
C 	C 	0.05002 0.35602 0.14970 0.01200
C 	C 	0.04959 0.32295 0.15142 -0.01300
C 	C 	0.02175 0.37303 0.14453 -0.03800
C 	C 	0.02247 0.40443 0.12555 -0.02100
C 	C 	0.05144 0.41902 0.11216 -0.00700
C 	C 	0.07975 0.40368 0.12657 -0.04700
H 	H 	0.12882 0.30900 0.14722 0.04800
H 	H 	0.13002 0.36709 0.14885 0.05100
H 	H 	0.02722 0.31046 0.15076 0.06900
H 	H 	0.99920 0.36136 0.15090 0.05400
H 	H 	0.00049 0.41660 0.11662 0.04600
H 	H 	0.10213 0.41543 0.11828 0.05000
C 	C 	0.12022 0.97467 0.36469 -0.18100
C 	C 	0.08819 0.98326 0.36538 0.00800
C 	C 	0.06589 0.96281 0.39216 0.27400
C 	C 	0.07611 0.93649 0.42517 -0.06500
C 	C 	0.10853 0.93005 0.43011 -0.20200
C 	C 	0.13027 0.94797 0.39613 0.37600
C 	C 	0.07893 0.01520 0.34465 0.01600
F 	F 	0.03453 0.96912 0.38843 -0.40600
H 	H 	0.05902 0.92230 0.44975 0.01100
F 	F 	0.16152 0.94086 0.39748 -0.44200
H 	H 	0.13759 0.98968 0.34269 0.12100
C 	C 	0.06436 0.03652 0.38604 0.28800
C 	C 	0.06357 0.06874 0.37278 -0.06200
C 	C 	0.07813 0.08008 0.31930 -0.19000
C 	C 	0.09039 0.05865 0.27573 0.38300
C 	C 	0.09000 0.02630 0.28772 -0.15700
F 	F 	0.05273 0.02631 0.44063 -0.38900
H 	H 	0.05326 0.08508 0.40581 0.06000
F 	F 	0.10376 0.06923 0.22290 -0.43200
H 	H 	0.10019 0.01001 0.25444 0.12600
C 	C 	0.12753 0.24952 0.33490 -0.04600
C 	C 	0.14603 0.25543 0.38693 0.01000
C 	C 	0.14660 0.28558 0.41374 -0.05000
C 	C 	0.12788 0.30985 0.38979 0.03100
C 	C 	0.11035 0.30431 0.33584 0.02200
C 	C 	0.11122 0.27448 0.30746 -0.01300
C 	C 	0.09045 0.32790 0.31342 -0.03500
C 	C 	0.08748 0.35662 0.34458 -0.01900
C 	C 	0.10418 0.36219 0.39920 -0.00400
C 	C 	0.12504 0.33897 0.42091 -0.04500
H 	H 	0.15878 0.23633 0.40833 0.04900
H 	H 	0.16046 0.28960 0.45468 0.05500
H 	H 	0.09699 0.26995 0.26711 0.07200
H 	H 	0.07618 0.32352 0.27330 0.06900
H 	H 	0.07131 0.37417 0.32724 0.05000
H 	H 	0.13841 0.34324 0.46242 0.05600
C 	C 	0.58318 0.01287 0.42803 -0.05000
C 	C 	0.57995 0.98235 0.40222 0.10300
C 	C 	0.55295 0.96451 0.41593 -0.08500
C 	C 	0.53003 0.97616 0.45699 -0.00500
C 	C 	0.53605 0.00418 0.49059 0.07200
C 	C 	0.56245 0.02265 0.47505 -0.05300
N 	N 	0.60272 0.97010 0.36465 -0.19800
H 	H 	0.54915 0.94211 0.39277 0.05700
C 	C 	0.49826 0.96162 0.45712 -0.00500
N 	N 	0.51626 0.01378 0.53656 -0.19400
H 	H 	0.56589 0.04536 0.49724 0.05200
C 	C 	0.49287 0.93468 0.49268 -0.08600
C 	C 	0.46523 0.91676 0.48518 0.10100
C 	C 	0.44245 0.92644 0.44186 -0.04900
C 	C 	0.44691 0.95454 0.40950 -0.05100
C 	C 	0.47465 0.97220 0.41638 0.07400
H 	H 	0.51075 0.92700 0.52467 0.05400
N 	N 	0.46108 0.89008 0.51866 -0.19900
H 	H 	0.42905 0.96225 0.37747 0.05000
N 	N 	0.47869 0.99895 0.38305 -0.19400
H 	H 	0.47804 0.88322 0.55052 0.08500
H 	H 	0.44115 0.87587 0.51347 0.09500
H 	H 	0.46129 0.00627 0.35250 0.08900
H 	H 	0.49885 0.01291 0.38738 0.09400
H 	H 	0.52045 0.03486 0.56029 0.08600
H 	H 	0.49714 0.99993 0.55040 0.08900
H 	H 	0.62439 0.98149 0.35870 0.09300
H 	H 	0.59953 0.94816 0.34338 0.08900
C 	C 	0.55011 0.00511 0.76349 -0.05000
C 	C 	0.55435 0.97535 0.79119 0.10300
C 	C 	0.53036 0.95264 0.78683 -0.08600
C 	C 	0.50290 0.95884 0.75347 -0.00500
C 	C 	0.50077 0.98684 0.71882 0.07000
C 	C 	0.52432 0.00995 0.72470 -0.05200
N 	N 	0.58142 0.96841 0.82146 -0.19900
H 	H 	0.53253 0.93057 0.81128 0.05600
C 	C 	0.47472 0.93888 0.76386 -0.00400
N 	N 	0.47605 0.99178 0.68061 -0.19500
H 	H 	0.52188 0.03224 0.70106 0.04900
C 	C 	0.45150 0.94937 0.80545 -0.08500
C 	C 	0.42596 0.92997 0.82134 0.10400
C 	C 	0.42447 0.89891 0.79715 -0.05000
C 	C 	0.44709 0.88875 0.75395 -0.05200
C 	C 	0.47200 0.90869 0.73618 0.07000
H 	H 	0.45338 0.97274 0.82569 0.05800
N 	N 	0.40277 0.94142 0.85906 -0.19900
H 	H 	0.44535 0.86527 0.73414 0.04800
N 	N 	0.49284 0.89895 0.69207 -0.19400
H 	H 	0.40465 0.96400 0.87827 0.09000
H 	H 	0.38220 0.92863 0.86790 0.09800
H 	H 	0.49108 0.87635 0.67290 0.08200
H 	H 	0.51033 0.91396 0.67506 0.08700
H 	H 	0.47370 0.01321 0.65770 0.08500
H 	H 	0.45958 0.97404 0.67169 0.09000
H 	H 	0.60076 0.98368 0.82063 0.09700
H 	H 	0.58387 0.94685 0.84390 0.09000
C 	C 	0.62011 0.06794 0.24418 -0.04700
C 	C 	0.62776 0.04302 0.20299 0.10900
C 	C 	0.62235 0.04675 0.13996 -0.08600
C 	C 	0.61111 0.07542 0.11706 0.00100
C 	C 	0.60534 0.10102 0.15784 0.07400
C 	C 	0.60956 0.09686 0.22122 -0.04800
N 	N 	0.64097 0.01584 0.22344 -0.19800
H 	H 	0.62736 0.02742 0.10845 0.06700
C 	C 	0.60504 0.07810 0.05034 -0.01200
N 	N 	0.59602 0.12961 0.13652 -0.19300
H 	H 	0.60429 0.11609 0.25280 0.05400
C 	C 	0.57402 0.07496 0.02902 -0.07000
C 	C 	0.56776 0.07452 0.96576 0.09200
C 	C 	0.59328 0.07454 0.92326 -0.04000
C 	C 	0.62417 0.07914 0.94460 -0.06300
C 	C 	0.63021 0.08165 0.00776 0.09200
H 	H 	0.55466 0.07326 0.06177 0.05600
N 	N 	0.53734 0.07528 0.94621 -0.19700
H 	H 	0.64368 0.08006 0.91206 0.06300
N 	N 	0.66011 0.08763 0.02711 -0.19100
H 	H 	0.51866 0.07359 0.97771 0.08800
H 	H 	0.53195 0.07956 0.90033 0.09600
H 	H 	0.67853 0.09011 0.99528 0.09300
H 	H 	0.66519 0.09093 0.07354 0.10200
H 	H 	0.59127 0.14818 0.16707 0.09300
H 	H 	0.59403 0.13392 0.08957 0.09600
H 	H 	0.64824 0.01350 0.26887 0.09800
H 	H 	0.64543 0.99712 0.19306 0.09600
C 	C 	0.90252 0.26052 0.42653 -0.13000
C 	C 	0.93518 0.26102 0.41459 -0.00200
C 	C 	0.95538 0.25104 0.46175 0.27900
C 	C 	0.94357 0.23094 0.50704 -0.07800
C 	C 	0.91201 0.22125 0.50429 -0.13700
C 	C 	0.89075 0.24002 0.47141 0.37800
C 	C 	0.94642 0.25790 0.35019 0.00400
F 	F 	0.98697 0.25616 0.45762 -0.43700
H 	H 	0.95981 0.21909 0.53740 0.08600
F 	F 	0.85927 0.23418 0.47474 -0.42600
H 	H 	0.88639 0.27143 0.39470 0.12900
C 	C 	0.93608 0.23190 0.31492 0.27200
C 	C 	0.95726 0.21648 0.27544 -0.07000
C 	C 	0.98839 0.22730 0.27036 -0.15500
C 	C 	0.99578 0.25757 0.29304 0.37500
C 	C 	0.97444 0.27313 0.33235 -0.13900
F 	F 	0.90720 0.21901 0.32528 -0.42600
H 	H 	0.95059 0.19423 0.25444 0.07000
F 	F 	0.02488 0.27010 0.28317 -0.44800
H 	H 	0.98154 0.29476 0.35516 0.12400
C 	C 	0.01884 0.06006 0.61468 -0.12700
C 	C 	0.00955 0.03021 0.59286 0.04000
C 	C 	0.98114 0.02717 0.56038 0.30200
C 	C 	0.96105 0.05302 0.55449 -0.04900
C 	C 	0.97012 0.08276 0.57642 -0.16100
C 	C 	0.99937 0.08638 0.60575 0.38400
C 	C 	0.02785 0.00169 0.60868 0.02300
F 	F 	0.97264 0.99890 0.53595 -0.40000
H 	H 	0.93826 0.04988 0.53340 0.07800
F 	F 	0.00824 0.11498 0.62802 -0.43000
H 	H 	0.04059 0.06268 0.64007 0.13600
C 	C 	0.05923 0.99806 0.58825 0.30600
C 	C 	0.07384 0.96847 0.59097 -0.05400
C 	C 	0.05717 0.94240 0.61377 -0.12700
C 	C 	0.02718 0.94690 0.64033 0.40400
C 	C 	0.01263 0.97642 0.63792 -0.12100
F 	F 	0.07495 0.02267 0.56280 -0.40000
H 	H 	0.09725 0.96536 0.57142 0.09700
F 	F 	0.01150 0.92225 0.66578 -0.40600
H 	H 	0.98897 0.97936 0.65647 0.15600
C 	C 	0.78277 0.10574 0.51714 -0.04500
C 	C 	0.77744 0.07323 0.52271 0.01000
C 	C 	0.74792 0.06046 0.50863 -0.05300
C 	C 	0.72348 0.08010 0.48849 0.03300
C 	C 	0.72830 0.11306 0.48577 0.01500
C 	C 	0.75791 0.12574 0.50065 -0.01500
C 	C 	0.70410 0.13263 0.46430 -0.03600
C 	C 	0.67634 0.11941 0.44127 -0.02100
C 	C 	0.67218 0.08658 0.44082 -0.00300
C 	C 	0.69509 0.06709 0.46716 -0.04700
H 	H 	0.79649 0.05771 0.53602 0.05400
H 	H 	0.74433 0.03523 0.51194 0.05400
H 	H 	0.76201 0.15091 0.49693 0.06100
H 	H 	0.70728 0.15798 0.46317 0.05400
H 	H 	0.65845 0.13462 0.42202 0.04800
H 	H 	0.69166 0.04173 0.46750 0.05300
C 	C 	0.97773 0.09167 0.83346 -0.12900
C 	C 	0.98372 0.07017 0.78527 0.02600
C 	C 	0.95968 0.06370 0.74269 0.29400
C 	C 	0.93105 0.08011 0.74579 -0.04500
C 	C 	0.92540 0.10246 0.79269 -0.12600
C 	C 	0.94903 0.10806 0.83683 0.37500
C 	C 	0.01530 0.05467 0.77939 0.01600
F 	F 	0.96370 0.04107 0.69907 -0.43700
H 	H 	0.91315 0.07521 0.71178 0.10900
F 	F 	0.94445 0.12954 0.88260 -0.45200
H 	H 	0.99545 0.09588 0.86816 0.14700
C 	C 	0.04323 0.07256 0.78457 0.29500
C 	C 	0.07257 0.05738 0.78825 -0.05700
C 	C 	0.07453 0.02443 0.78282 -0.14000
C 	C 	0.04724 0.00718 0.76890 0.35600
C 	C 	0.01761 0.02182 0.77109 -0.13300
F 	F 	0.04192 0.10454 0.78691 -0.44000
H 	H 	0.09365 0.07115 0.79676 0.12500
F 	F 	0.04919 0.97577 0.75767 -0.44600
H 	H 	0.99650 0.00752 0.76797 0.14900
C 	C 	0.99182 0.24580 0.78774 -0.15100
C 	C 	0.95908 0.24319 0.79655 0.00300
C 	C 	0.94636 0.24449 0.85642 0.28700
C 	C 	0.96632 0.24707 0.90688 -0.06100
C 	C 	0.99915 0.24788 0.89826 -0.18000
C 	C 	0.01183 0.24806 0.83835 0.34100
C 	C 	0.93871 0.23411 0.74479 -0.00300
F 	F 	0.91476 0.24139 0.86577 -0.50000
H 	H 	0.95630 0.24706 0.95284 0.08700
F 	F 	0.04353 0.25005 0.82921 -0.48800
H 	H 	0.00181 0.24497 0.74177 0.11200
C 	C 	0.91211 0.25245 0.73093 0.28800
C 	C 	0.88578 0.23820 0.70416 -0.06900
C 	C 	0.88623 0.20581 0.69071 -0.18000
C 	C 	0.91508 0.18950 0.69243 0.35900
C 	C 	0.94126 0.20359 0.71995 -0.16800
F 	F 	0.91046 0.28300 0.74977 -0.41900
H 	H 	0.86403 0.25146 0.69997 0.08900
F 	F 	0.91654 0.15873 0.67520 -0.45000
H 	H 	0.96232 0.18969 0.72765 0.11700
C 	C 	0.62766 0.08630 0.71101 -0.00600
C 	C 	0.62925 0.11901 0.70216 -0.02400
C 	C 	0.65696 0.13271 0.67936 -0.03700
C 	C 	0.68359 0.11387 0.66729 0.01000
C 	C 	0.68091 0.08067 0.66998 0.03100
C 	C 	0.65244 0.06702 0.68978 -0.04900
C 	C 	0.70780 0.06188 0.66057 -0.05800
C 	C 	0.73765 0.07582 0.65767 0.00500
C 	C 	0.74074 0.10879 0.66157 -0.05500
C 	C 	0.71351 0.12771 0.66040 -0.01600
H 	H 	0.60977 0.13398 0.71661 0.04600
H 	H 	0.65841 0.15814 0.67544 0.04900
H 	H 	0.65082 0.04164 0.69506 0.05100
H 	H 	0.70585 0.03639 0.65995 0.04900
H 	H 	0.75842 0.06092 0.65573 0.04700
H 	H 	0.71576 0.15319 0.65997 0.05700
C 	C 	0.97882 0.61176 0.36829 -0.04900
C 	C 	0.00576 0.60829 0.40572 0.10500
C 	C 	0.02209 0.57950 0.40547 -0.08500
C 	C 	0.01318 0.55494 0.36580 -0.00500
C 	C 	0.98863 0.55982 0.32316 0.07200
C 	C 	0.97126 0.58807 0.32556 -0.05200
N 	N 	0.01645 0.63269 0.44075 -0.19900
H 	H 	0.04164 0.57609 0.43660 0.05900
C 	C 	0.02739 0.52334 0.37399 -0.00400
N 	N 	0.98180 0.53768 0.27975 -0.19400
H 	H 	0.95143 0.59131 0.29501 0.05000
C 	C 	0.01053 0.50063 0.40731 -0.08600
C 	C 	0.02518 0.47259 0.42566 0.10500
C 	C 	0.05759 0.46778 0.41210 -0.05000
C 	C 	0.07382 0.48940 0.37509 -0.05100
C 	C 	0.05886 0.51703 0.35512 0.07200
H 	H 	0.98612 0.50512 0.42017 0.05900
N 	N 	0.00801 0.45035 0.45583 -0.20000
H 	H 	0.09837 0.48513 0.36307 0.05100
N 	N 	0.07473 0.53730 0.31786 -0.19400
H 	H 	0.98439 0.45456 0.46755 0.09300
H 	H 	0.01753 0.42828 0.46587 0.09900
H 	H 	0.09827 0.53296 0.30562 0.08900
H 	H 	0.06360 0.55693 0.29910 0.09200
H 	H 	0.96307 0.54109 0.24955 0.08700
H 	H 	0.99563 0.51745 0.27416 0.09100
H 	H 	0.00718 0.65538 0.43650 0.10100
H 	H 	0.03547 0.62949 0.47038 0.09300
C 	C 	0.89715 0.63996 0.01576 -0.02600
C 	C 	0.89328 0.60807 0.99780 0.07800
C 	C 	0.91535 0.58554 0.01672 -0.05900
C 	C 	0.93977 0.59395 0.05676 -0.01500
C 	C 	0.94091 0.62489 0.08141 0.08000
C 	C 	0.91995 0.64785 0.05968 -0.06100
N 	N 	0.86823 0.59894 0.96328 -0.19400
H 	H 	0.91378 0.56151 0.99961 0.04700
C 	C 	0.96597 0.57140 0.06664 0.00100
N 	N 	0.96214 0.63268 0.12547 -0.19500
H 	H 	0.92213 0.67208 0.07538 0.05600
C 	C 	0.99568 0.57767 0.04045 -0.08600
C 	C 	0.01966 0.55483 0.04119 0.10600
C 	C 	0.01270 0.52421 0.06286 -0.05300
C 	C 	0.98381 0.51872 0.09315 -0.04900
C 	C 	0.96069 0.54241 0.09675 0.06800
H 	H 	0.00016 0.60039 0.01957 0.06000
N 	N 	0.04944 0.56272 0.02325 -0.19900
H 	H 	0.97892 0.49571 0.11243 0.05200
N 	N 	0.93361 0.53725 0.12920 -0.19500
H 	H 	0.05404 0.58481 0.00420 0.09300
H 	H 	0.06858 0.54790 0.03188 0.09700
H 	H 	0.92937 0.51535 0.14936 0.08600
H 	H 	0.91725 0.55529 0.13710 0.08900
H 	H 	0.96465 0.65609 0.13969 0.08700
H 	H 	0.97556 0.61549 0.14733 0.09100
H 	H 	0.84970 0.61444 0.95416 0.09300
H 	H 	0.86626 0.57562 0.94788 0.08800
C 	C 	0.87635 0.69324 0.82180 -0.04600
C 	C 	0.85099 0.69690 0.78018 0.10200
C 	C 	0.85735 0.69736 0.71667 -0.08300
C 	C 	0.88788 0.69124 0.69397 -0.00400
C 	C 	0.91316 0.68747 0.73551 0.07600
C 	C 	0.90722 0.68945 0.79892 -0.05100
N 	N 	0.82054 0.69859 0.80047 -0.19900
H 	H 	0.83812 0.70056 0.68471 0.05800
C 	C 	0.89287 0.68732 0.62675 -0.00300
N 	N 	0.94303 0.68145 0.71496 -0.19400
H 	H 	0.92663 0.68701 0.83073 0.05600
C 	C 	0.90652 0.71210 0.59349 -0.08600
C 	C 	0.91827 0.70703 0.53364 0.10500
C 	C 	0.91292 0.67756 0.50413 -0.05000
C 	C 	0.89677 0.65369 0.53575 -0.05100
C 	C 	0.88731 0.65797 0.59723 0.07200
H 	H 	0.91038 0.73465 0.61604 0.06400
N 	N 	0.93603 0.72981 0.50640 -0.20000
H 	H 	0.89235 0.63130 0.51296 0.05200
N 	N 	0.87340 0.63370 0.62779 -0.19400
H 	H 	0.93817 0.75206 0.52696 0.09600
H 	H 	0.94958 0.72515 0.46714 0.10200
H 	H 	0.86958 0.61210 0.60563 0.08800
H 	H 	0.86624 0.63592 0.67358 0.09100
H 	H 	0.96154 0.67905 0.74605 0.09200
H 	H 	0.94820 0.67863 0.66830 0.09400
H 	H 	0.81447 0.69417 0.84612 0.09400
H 	H 	0.80225 0.70273 0.76960 0.08800
C 	C 	0.92305 0.05287 0.14039 -0.12900
C 	C 	0.93152 0.06040 0.07963 0.02000
C 	C 	0.91584 0.04558 0.03072 0.29000
C 	C 	0.89124 0.02448 0.04242 -0.03300
C 	C 	0.88186 0.01784 0.10302 -0.12900
C 	C 	0.89810 0.03190 0.15211 0.39900
C 	C 	0.95553 0.08509 0.06711 0.02200
F 	F 	0.92341 0.05281 0.97175 -0.42400
H 	H 	0.87855 0.01417 0.00420 0.01600
F 	F 	0.88829 0.02713 0.21080 -0.39600
H 	H 	0.93486 0.06429 0.17839 0.13300
C 	C 	0.95052 0.11630 0.08716 0.28700
C 	C 	0.97190 0.14007 0.07083 -0.05100
C 	C 	0.99848 0.13305 0.03401 -0.13300
C 	C 	0.00313 0.10176 0.01307 0.37200
C 	C 	0.98210 0.07795 0.03060 -0.13400
F 	F 	0.92449 0.12378 0.12108 -0.41700
H 	H 	0.96765 0.16401 0.08656 0.09400
F 	F 	0.02821 0.09423 0.97660 -0.44600
H 	H 	0.98626 0.05394 0.01514 0.14000
C 	C 	0.75525 0.12186 0.00439 -0.14500
C 	C 	0.77197 0.09984 0.03937 0.01200
C 	C 	0.80508 0.09823 0.03291 0.29300
C 	C 	0.82003 0.11348 0.98407 -0.07900
C 	C 	0.80218 0.13071 0.94220 -0.15600
C 	C 	0.77025 0.13701 0.95529 0.36000
C 	C 	0.75486 0.07290 0.06659 -0.01000
F 	F 	0.82223 0.07910 0.06957 -0.41500
H 	H 	0.84501 0.10962 0.97571 0.09200
F 	F 	0.75305 0.15519 0.91689 -0.44700
H 	H 	0.73001 0.12462 0.01103 0.10700
C 	C 	0.76229 0.06273 0.12602 0.30700
C 	C 	0.76026 0.03063 0.14004 -0.05700
C 	C 	0.75050 0.00901 0.09473 -0.16300
C 	C 	0.73565 0.02051 0.04206 0.34000
C 	C 	0.73818 0.05242 0.02757 -0.15900
F 	F 	0.77499 0.08315 0.16726 -0.39700
H 	H 	0.76957 0.02229 0.18318 0.10900
F 	F 	0.72241 0.00022 0.00121 -0.46400
H 	H 	0.73048 0.06042 0.98298 0.08700
C 	C 	0.94607 0.95632 0.98568 -0.17100
C 	C 	0.94870 0.95117 0.92222 0.03300
C 	C 	0.92128 0.94600 0.88753 0.27100
C 	C 	0.89200 0.94264 0.91725 -0.04700
C 	C 	0.89013 0.94418 0.98152 -0.22600
C 	C 	0.91705 0.95262 0.01529 0.40500
C 	C 	0.98025 0.94640 0.89451 0.03200
F 	F 	0.92328 0.94257 0.82558 -0.41400
H 	H 	0.87128 0.93667 0.89071 0.05700
F 	F 	0.91552 0.95474 0.07750 -0.44800
H 	H 	0.96697 0.96097 0.01269 0.15300
C 	C 	0.00327 0.97004 0.89988 0.27500
C 	C 	0.03497 0.96303 0.88813 -0.01400
C 	C 	0.04384 0.93282 0.86743 -0.15900
C 	C 	0.02061 0.90962 0.85894 0.40700
C 	C 	0.98901 0.91632 0.87290 -0.13200
F 	F 	0.99496 0.99962 0.91811 -0.42900
H 	H 	0.05248 0.98138 0.89318 -0.01300
F 	F 	0.02877 0.88032 0.83886 -0.42200
H 	H 	0.97148 0.89781 0.86912 0.13400
C 	C 	0.81068 0.83788 0.13535 -0.05600
C 	C 	0.83903 0.82657 0.16017 0.00900
C 	C 	0.85158 0.79771 0.14000 -0.05800
C 	C 	0.83613 0.78013 0.09436 0.03900
C 	C 	0.80614 0.78994 0.07386 0.00100
C 	C 	0.79289 0.81800 0.09694 -0.01200
C 	C 	0.79108 0.77307 0.02676 -0.02000
C 	C 	0.80651 0.74789 0.99756 -0.05100
C 	C 	0.83679 0.73876 0.01619 0.02100
C 	C 	0.85112 0.75417 0.06607 -0.05800
H 	H 	0.85242 0.84104 0.19181 0.05500
H 	H 	0.87411 0.78993 0.15733 0.05000
H 	H 	0.77020 0.82595 0.08016 0.05100
H 	H 	0.76790 0.78016 0.01121 0.04300
H 	H 	0.79504 0.73565 0.96000 0.04700
H 	H 	0.87439 0.74688 0.08093 0.05700
C 	C 	0.03988 0.04440 0.12931 -0.15000
C 	C 	0.06375 0.03942 0.08536 0.02900
C 	C 	0.08135 0.06522 0.06362 0.31200
C 	C 	0.07619 0.09541 0.08837 -0.01900
C 	C 	0.05294 0.10017 0.13391 -0.14900
C 	C 	0.03459 0.07445 0.15379 0.37800
C 	C 	0.07236 0.00680 0.06731 -0.02500
F 	F 	0.10338 0.06102 0.01867 -0.43300
H 	H 	0.09004 0.11508 0.07183 0.10500
F 	F 	0.01230 0.07835 0.19825 -0.54700
H 	H 	0.02587 0.02479 0.14562 0.11900
C 	C 	0.10201 0.99462 0.08314 0.26000
C 	C 	0.10784 0.96227 0.07822 -0.12000
C 	C 	0.08351 0.94142 0.06161 -0.18900
C 	C 	0.05475 0.95388 0.04050 0.32700
C 	C 	0.04928 0.98644 0.04335 -0.20000
F 	F 	0.12424 0.01374 0.10818 -0.39900
H 	H 	0.13052 0.95312 0.09236 0.10800
F 	F 	0.03157 0.93448 0.02007 -0.45300
H 	H 	0.02648 0.99567 0.03012 0.12900
C 	C 	0.00385 0.99351 0.26212 -0.13900
C 	C 	0.97120 0.99421 0.27354 0.02000
C 	C 	0.95138 0.97276 0.24314 0.30600
C 	C 	0.96428 0.94975 0.20434 -0.04300
C 	C 	0.99713 0.94760 0.19613 -0.16300
C 	C 	0.01688 0.97007 0.22399 0.36300
C 	C 	0.95789 0.01624 0.31958 0.03000
F 	F 	0.91971 0.97344 0.25321 -0.37900
H 	H 	0.94881 0.93270 0.18271 0.12300
F 	F 	0.04852 0.96945 0.21352 -0.54200
H 	H 	0.01911 0.01079 0.28347 0.11900
C 	C 	0.94379 0.00458 0.37336 0.31700
C 	C 	0.92630 0.02466 0.41167 -0.04000
C 	C 	0.92344 0.05681 0.39762 -0.17300
C 	C 	0.93908 0.06880 0.34546 0.34900
C 	C 	0.95645 0.04856 0.30704 -0.16400
F 	F 	0.94631 0.97355 0.38750 -0.38700
H 	H 	0.91473 0.01515 0.45204 0.11400
F 	F 	0.93630 0.09968 0.33041 -0.55800
H 	H 	0.96787 0.05780 0.26642 0.10300
C 	C 	0.10996 0.76705 0.29302 -0.13700
C 	C 	0.12245 0.78271 0.34434 0.00100
C 	C 	0.13442 0.81346 0.33728 0.26700
C 	C 	0.12809 0.83023 0.28384 -0.06300
C 	C 	0.10946 0.81660 0.23784 -0.15400
C 	C 	0.10320 0.78399 0.23983 0.37300
C 	C 	0.11474 0.77133 0.40660 -0.00100
F 	F 	0.14862 0.82838 0.38503 -0.44200
H 	H 	0.13467 0.85488 0.28116 0.05500
F 	F 	0.08772 0.76952 0.19313 -0.43800
H 	H 	0.10239 0.74272 0.29669 0.12100
C 	C 	0.08310 0.77215 0.42692 0.25900
C 	C 	0.07630 0.77902 0.48847 -0.08400
C 	C 	0.10102 0.78577 0.52897 -0.17000
C 	C 	0.13189 0.77654 0.51200 0.36700
C 	C 	0.13874 0.76940 0.45048 -0.13900
F 	F 	0.05920 0.77072 0.38582 -0.45400
H 	H 	0.05204 0.78325 0.50255 0.05700
F 	F 	0.15566 0.77760 0.55342 -0.44200
H 	H 	0.16306 0.76612 0.43595 0.12100
C 	C 	0.92974 0.70783 0.28853 -0.00400
C 	C 	0.90929 0.73379 0.29576 -0.02500
C 	C 	0.91182 0.75966 0.25661 -0.03900
C 	C 	0.93455 0.75974 0.20933 0.00900
C 	C 	0.95269 0.73239 0.19756 0.03000
C 	C 	0.95025 0.70653 0.23725 -0.04800
C 	C 	0.97527 0.73249 0.14993 -0.05200
C 	C 	0.98281 0.76070 0.12029 0.01200
C 	C 	0.96804 0.78895 0.13849 -0.05100
C 	C 	0.94173 0.78773 0.17814 -0.01700
H 	H 	0.89229 0.73453 0.33319 0.04900
H 	H 	0.89708 0.78019 0.26485 0.04700
H 	H 	0.96589 0.68654 0.23086 0.05300
H 	H 	0.98848 0.71130 0.13872 0.05300
H 	H 	0.00232 0.76113 0.08778 0.05800
H 	H 	0.92936 0.80936 0.19018 0.05200
