data_crystal

_cell_length_a 47.31755
_cell_length_b 47.05554
_cell_length_c 24.34442
_cell_angle_alpha 94.07405
_cell_angle_beta  93.63946
_cell_angle_gamma 90.08525

_symmetry_space_group_name_	'P 1'
_symmetry_space_group_name_H-M	'P 1'

loop_
_symmetry_equiv_pos_as_xyz
  x,y,z

loop_
_atom_site_label
_atom_site_type_symbol
_atom_site_fract_x
_atom_site_fract_y
_atom_site_fract_z
_atom_site_charge
C 	C 	0.03160 0.67673 0.90072 0.24500
N 	N 	0.02225 0.68343 0.84930 -0.12200
C 	C 	0.00850 0.66360 0.81412 0.14900
N 	N 	0.00436 0.63695 0.83016 -0.14300
C 	C 	0.01312 0.63035 0.88188 0.14900
N 	N 	0.02700 0.65017 0.91696 -0.12100
C 	C 	0.98174 0.66225 0.32263 0.23700
N 	N 	0.97335 0.63607 0.30016 -0.12300
C 	C 	0.95984 0.61789 0.33085 0.14500
N 	N 	0.95584 0.62553 0.38461 -0.14200
C 	C 	0.96571 0.65090 0.40816 0.14800
N 	N 	0.97819 0.66944 0.37684 -0.12200
Cd	Cd	0.89667 0.95941 0.76344 1.24900
Cd	Cd	0.93590 0.97388 0.89227 1.19600
O 	O 	0.84816 0.94179 0.76794 -0.27800
O 	O 	0.86410 0.95315 0.68953 -0.30500
C 	C 	0.84306 0.94383 0.71542 0.39200
O 	O 	0.93701 0.98046 0.74168 -0.34600
O 	O 	0.96304 0.96826 0.81944 -0.42700
C 	C 	0.96051 0.98243 0.77456 0.29600
C 	C 	0.88572 0.01032 0.82897 0.31900
O 	O 	0.91382 0.93314 0.85067 -0.41300
O 	O 	0.87458 0.01150 0.77869 -0.23300
O 	O 	0.89691 0.98614 0.84005 -0.50700
Cd	Cd	0.90404 0.96077 0.48014 1.24900
Cd	Cd	0.93553 0.95197 0.35205 1.20300
O 	O 	0.86052 0.93363 0.49026 -0.27800
O 	O 	0.87994 0.96122 0.55853 -0.30700
C 	C 	0.85825 0.94553 0.53954 0.38400
O 	O 	0.94601 0.98353 0.49596 -0.35000
O 	O 	0.95078 0.99066 0.40488 -0.41300
C 	C 	0.96163 0.99126 0.45623 0.29600
O 	O 	0.89150 0.96877 0.37507 -0.40500
C 	C 	0.88492 0.99488 0.39083 0.30200
O 	O 	0.88466 0.00066 0.44396 -0.32000
C 	C 	0.65606 0.95763 0.82779 0.23600
N 	N 	0.66004 0.96423 0.88306 -0.12100
C 	C 	0.63746 0.96672 0.91476 0.14600
N 	N 	0.61082 0.96428 0.89079 -0.14300
C 	C 	0.60670 0.95827 0.83547 0.14400
N 	N 	0.62933 0.95467 0.80409 -0.12100
C 	C 	0.66866 0.98994 0.41615 0.23600
N 	N 	0.66990 0.98959 0.36042 -0.12100
C 	C 	0.64708 0.99744 0.32842 0.14700
N 	N 	0.62293 0.00552 0.35219 -0.14300
C 	C 	0.62162 0.00624 0.40782 0.14700
N 	N 	0.64436 0.99806 0.43972 -0.11700
Cd	Cd	0.95553 0.11882 0.21694 1.24700
Cd	Cd	0.97533 0.09079 0.34535 1.20300
O 	O 	0.93290 0.16565 0.22183 -0.28500
O 	O 	0.94533 0.14558 0.14297 -0.32400
C 	C 	0.93437 0.16760 0.16923 0.39700
O 	O 	0.98026 0.07930 0.19421 -0.35600
O 	O 	0.97212 0.05782 0.27364 -0.41300
C 	C 	0.98512 0.05841 0.22737 0.29200
C 	C 	0.00563 0.13968 0.27793 0.32200
O 	O 	0.93200 0.10461 0.30609 -0.41900
O 	O 	0.00485 0.14708 0.22721 -0.23300
O 	O 	0.98290 0.12735 0.29189 -0.50900
C 	C 	0.91437 0.08867 0.27405 0.31500
O 	O 	0.91562 0.09085 0.22113 -0.33000
Cd	Cd	0.98092 0.14153 0.98025 1.24900
Cd	Cd	0.98361 0.08845 0.86846 1.19400
O 	O 	0.95064 0.18273 0.96336 -0.27200
O 	O 	0.97328 0.17848 0.04374 -0.29100
C 	C 	0.95709 0.19405 0.01273 0.38200
O 	O 	0.00385 0.10518 0.01806 -0.34300
O 	O 	0.01798 0.08513 0.93574 -0.42700
C 	C 	0.01325 0.08302 0.98808 0.28000
C 	C 	0.93505 0.10279 0.95649 0.30300
O 	O 	0.99507 0.13643 0.87730 -0.41000
O 	O 	0.93269 0.11633 0.00480 -0.24700
O 	O 	0.95488 0.11174 0.92789 -0.51700
C 	C 	0.01947 0.14779 0.89423 0.30500
O 	O 	0.02227 0.15699 0.94616 -0.31500
C 	C 	0.96745 0.37723 0.86338 0.24600
N 	N 	0.95868 0.37288 0.80919 -0.12500
C 	C 	0.96009 0.39438 0.77511 0.14700
N 	N 	0.97048 0.42022 0.79522 -0.14300
C 	C 	0.97947 0.42459 0.84928 0.14700
N 	N 	0.97780 0.40311 0.88339 -0.12600
C 	C 	0.92156 0.36371 0.27314 0.24300
N 	N 	0.92032 0.39000 0.25331 -0.12200
C 	C 	0.92556 0.41356 0.28810 0.14600
N 	N 	0.93086 0.41087 0.34294 -0.14300
C 	C 	0.93195 0.38467 0.36287 0.14800
N 	N 	0.92730 0.36113 0.32796 -0.12500
Cd	Cd	0.13094 0.05144 0.73233 1.24800
Cd	Cd	0.10863 0.05660 0.86953 1.19500
O 	O 	0.08803 0.03002 0.72592 -0.35000
O 	O 	0.07251 0.05378 0.80414 -0.43500
C 	C 	0.06872 0.03407 0.76291 0.28800
O 	O 	0.12584 0.08994 0.81416 -0.40900
C 	C 	0.11079 0.10502 0.78040 0.31300
O 	O 	0.10944 0.09547 0.72854 -0.33100
C 	C 	0.09911 0.10635 0.40749 0.32100
O 	O 	0.10862 0.11160 0.45890 -0.25500
F 	F 	0.21966 0.09492 0.64013 -0.35900
F 	F 	0.27519 0.07839 0.65072 -0.32800
C 	C 	0.95266 0.38899 0.71550 -0.03700
C 	C 	0.93331 0.40668 0.68729 0.11100
C 	C 	0.93031 0.40388 0.62941 -0.08100
C 	C 	0.94492 0.38265 0.59959 -0.00300
C 	C 	0.96266 0.36360 0.62805 0.09000
C 	C 	0.96660 0.36719 0.68578 -0.04800
N 	N 	0.91700 0.42572 0.71548 -0.19800
H 	H 	0.91625 0.41803 0.60751 0.06500
C 	C 	0.94229 0.38130 0.53849 -0.00200
N 	N 	0.97587 0.34184 0.60031 -0.19400
H 	H 	0.98100 0.35330 0.70755 0.08900
C 	C 	0.96320 0.39428 0.51034 -0.08100
C 	C 	0.96118 0.39394 0.45252 0.11200
C 	C 	0.93687 0.38186 0.42266 -0.03700
C 	C 	0.91626 0.36833 0.45072 -0.04700
C 	C 	0.91887 0.36763 0.50840 0.08900
H 	H 	0.98136 0.40425 0.53348 0.06600
N 	N 	0.98295 0.40441 0.42593 -0.19900
H 	H 	0.89790 0.35866 0.42769 0.08700
N 	N 	0.89894 0.35376 0.53449 -0.19400
H 	H 	0.00022 0.41440 0.44836 0.10500
H 	H 	0.98368 0.40148 0.38314 0.11300
H 	H 	0.88150 0.34413 0.51198 0.11900
H 	H 	0.90075 0.35193 0.57705 0.11200
H 	H 	0.98935 0.32822 0.62161 0.12100
H 	H 	0.97247 0.33782 0.55768 0.11400
H 	H 	0.91626 0.42601 0.75828 0.11300
H 	H 	0.90369 0.43953 0.69431 0.10300
C 	C 	0.06304 0.12677 0.77418 -0.01800
C 	C 	0.08989 0.12538 0.80172 -0.08800
C 	C 	0.09454 0.13900 0.85505 0.09400
C 	C 	0.07142 0.14864 0.88409 -0.02500
C 	C 	0.04388 0.14588 0.85935 -0.07600
C 	C 	0.04008 0.13759 0.80242 0.08300
N 	N 	0.01317 0.14062 0.77308 -0.02500
H 	H 	0.05968 0.11830 0.73169 0.08100
H 	H 	0.07483 0.15725 0.92647 0.09700
N 	N 	0.12266 0.14233 0.88030 -0.02400
O 	O 	0.00090 0.16535 0.77361 -0.04900
O 	O 	0.00182 0.11911 0.74301 -0.11500
O 	O 	0.14254 0.15322 0.85363 -0.04500
O 	O 	0.12818 0.13529 0.93057 -0.08100
C 	C 	0.98234 0.26930 0.02384 0.25700
C 	C 	0.95896 0.28202 0.99708 0.00900
C 	C 	0.93279 0.26770 0.99162 0.23400
C 	C 	0.93110 0.23938 0.00507 0.31800
C 	C 	0.95562 0.22516 0.02353 -0.20400
C 	C 	0.98066 0.24094 0.03725 0.31400
C 	C 	0.96318 0.30725 0.96569 -0.00400
F 	F 	0.90958 0.28039 0.96877 -0.33100
F 	F 	0.00408 0.22810 0.05889 -0.34800
C 	C 	0.97774 0.30447 0.91707 0.23400
C 	C 	0.97965 0.32753 0.88434 0.29200
C 	C 	0.96688 0.35357 0.89969 -0.16000
C 	C 	0.95286 0.35659 0.94896 0.29100
C 	C 	0.95095 0.33348 0.98177 0.24400
F 	F 	0.98941 0.27914 0.90088 -0.34900
F 	F 	0.94035 0.38164 0.96412 -0.38000
F 	F 	0.99388 0.32458 0.83756 -0.38000
F 	F 	0.93662 0.33636 0.02839 -0.31200
F 	F 	0.00724 0.28374 0.03311 -0.32300
F 	F 	0.90624 0.22491 0.99521 -0.35200
C 	C 	0.05630 0.13691 0.40334 -0.01100
C 	C 	0.08016 0.12581 0.37820 -0.08800
C 	C 	0.08209 0.12778 0.32105 0.08200
C 	C 	0.05779 0.13375 0.28818 -0.02000
C 	C 	0.03229 0.14001 0.31264 -0.09100
C 	C 	0.03236 0.14462 0.37059 0.08700
N 	N 	0.00885 0.15823 0.39591 -0.03000
H 	H 	0.05573 0.13810 0.44787 0.08700
H 	H 	0.05856 0.13278 0.24368 0.09300
N 	N 	0.10872 0.12368 0.29654 -0.02700
O 	O 	0.00037 0.14967 0.44182 -0.10100
O 	O 	0.99756 0.18075 0.37570 -0.05500
O 	O 	0.13171 0.13500 0.32103 -0.04800
C 	C 	0.90496 0.23706 0.13176 0.23900
C 	C 	0.92695 0.25502 0.15529 -0.00700
C 	C 	0.95383 0.24343 0.16704 0.22300
C 	C 	0.95762 0.21394 0.16193 0.31800
C 	C 	0.93436 0.19579 0.14737 -0.20500
C 	C 	0.90862 0.20746 0.12822 0.32100
C 	C 	0.92062 0.28436 0.17699 -0.00900
F 	F 	0.97567 0.26055 0.18766 -0.33100
F 	F 	0.88644 0.19011 0.11062 -0.35600
C 	C 	0.90252 0.28862 0.22044 0.23800
C 	C 	0.90103 0.31535 0.24901 0.29100
C 	C 	0.91802 0.33795 0.23520 -0.15700
C 	C 	0.93446 0.33430 0.18913 0.29700
C 	C 	0.93570 0.30762 0.16009 0.25300
F 	F 	0.88771 0.26640 0.23716 -0.34100
F 	F 	0.95064 0.35608 0.17467 -0.36900
F 	F 	0.88392 0.31902 0.29164 -0.37700
F 	F 	0.95310 0.30386 0.11806 -0.32700
F 	F 	0.87954 0.24819 0.11583 -0.31700
F 	F 	0.98320 0.20285 0.17692 -0.36100
C 	C 	0.53726 0.01842 0.45408 -0.00200
N 	N 	0.50026 0.06007 0.50593 -0.19400
C 	C 	0.54993 0.03884 0.42410 -0.08100
C 	C 	0.57892 0.03752 0.41535 0.11400
C 	C 	0.59488 0.01406 0.43294 -0.03500
C 	C 	0.58300 0.99545 0.46787 -0.04500
H 	H 	0.53707 0.05538 0.40647 0.06600
N 	N 	0.59140 0.05893 0.39083 -0.19800
H 	H 	0.59564 0.97833 0.48389 0.08000
H 	H 	0.57927 0.07552 0.37561 0.10600
H 	H 	0.61339 0.06011 0.38945 0.11600
H 	H 	0.48791 0.07743 0.51856 0.11100
H 	H 	0.52099 0.05895 0.52311 0.10600
C 	C 	0.57777 0.95771 0.80918 -0.03600
C 	C 	0.55618 0.94141 0.82975 0.11000
C 	C 	0.52774 0.94757 0.81581 -0.08100
C 	C 	0.52067 0.96867 0.77949 -0.00300
C 	C 	0.54230 0.98187 0.75264 0.08500
C 	C 	0.57076 0.97661 0.76845 -0.04900
N 	N 	0.56263 0.91969 0.86227 -0.19800
H 	H 	0.51107 0.93654 0.83450 0.06400
C 	C 	0.49138 0.97973 0.77667 -0.00300
N 	N 	0.53586 0.99957 0.71192 -0.19500
H 	H 	0.58741 0.98813 0.75070 0.08800
C 	C 	0.48580 0.00579 0.80542 -0.08100
C 	C 	0.45788 0.01398 0.81432 0.11200
H 	H 	0.50328 0.01932 0.82237 0.06500
N 	N 	0.45283 0.03990 0.84013 -0.19800
H 	H 	0.46964 0.05321 0.85546 0.10400
H 	H 	0.43224 0.04757 0.84308 0.11200
H 	H 	0.55192 0.00996 0.69345 0.10900
H 	H 	0.51496 0.00233 0.69682 0.10300
H 	H 	0.58347 0.91279 0.86872 0.11000
H 	H 	0.54659 0.90854 0.87925 0.10200
C 	C 	0.64179 0.97233 0.97511 -0.04600
C 	C 	0.65608 0.95260 0.00831 0.13300
C 	C 	0.65944 0.95869 0.06569 -0.08300
C 	C 	0.64715 0.98299 0.09072 0.00300
C 	C 	0.63300 0.00278 0.05757 0.08500
C 	C 	0.63067 0.99731 1.00000 -0.04900
N 	N 	0.66560 0.92737 0.98580 -0.20200
H 	H 	0.67036 0.94367 0.09124 0.08000
C 	C 	0.64721 0.98625 0.15175 0.00200
N 	N 	0.62143 0.02687 0.08069 -0.19400
H 	H 	0.61986 0.01243 0.97449 0.06400
C 	C 	0.66836 0.00293 0.18151 -0.08000
C 	C 	0.66811 0.00785 0.23910 0.12300
C 	C 	0.64739 0.99413 0.26768 -0.03900
C 	C 	0.62660 0.97698 0.23792 -0.04300
C 	C 	0.62604 0.97318 0.18016 0.08100
H 	H 	0.68445 0.01299 0.15955 0.07700
N 	N 	0.68705 0.02653 0.26622 -0.19700
H 	H 	0.61072 0.96656 0.25983 0.06400
N 	N 	0.60510 0.95711 0.15232 -0.19300
H 	H 	0.70297 0.03559 0.24512 0.11900
H 	H 	0.68534 0.03337 0.30760 0.12200
H 	H 	0.58968 0.94744 0.17375 0.10000
H 	H 	0.60372 0.95419 0.10934 0.09900
H 	H 	0.61080 0.04120 0.05587 0.10400
H 	H 	0.62296 0.03176 0.12327 0.10100
H 	H 	0.66066 0.92063 0.94455 0.13700
H 	H 	0.67708 0.91352 0.01036 0.13000
C 	C 	0.87797 0.04586 0.37332 -0.02800
C 	C 	0.88417 0.01808 0.35270 -0.06900
C 	C 	0.89363 0.01378 0.29881 0.07700
C 	C 	0.90181 0.03731 0.27117 -0.01400
C 	C 	0.89921 0.06502 0.29560 -0.09400
C 	C 	0.88544 0.06932 0.34506 0.10400
N 	N 	0.87944 0.09756 0.36714 -0.02400
H 	H 	0.86836 0.04930 0.41248 0.10100
H 	H 	0.91086 0.03397 0.23144 0.07500
N 	N 	0.89337 0.98596 0.27090 -0.03200
O 	O 	0.88634 0.10513 0.41869 -0.07400
O 	O 	0.86585 0.11523 0.33644 -0.05000
O 	O 	0.86972 0.97171 0.26254 -0.07000
O 	O 	0.91597 0.97629 0.24839 -0.16300
C 	C 	0.98794 0.00806 0.47044 -0.07300
C 	C 	0.01114 0.99649 0.50073 0.10500
H 	H 	0.97461 0.04297 0.42216 0.01100
N 	N 	0.00659 0.97829 0.54420 -0.02400
O 	O 	0.02316 0.95666 0.55152 -0.07400
C 	C 	0.72462 0.98744 0.53448 0.25200
C 	C 	0.74369 0.96765 0.51197 -0.00900
C 	C 	0.73702 0.95380 0.45963 0.23700
C 	C 	0.71180 0.95990 0.42990 0.28700
C 	C 	0.69353 0.98102 0.45078 -0.15300
C 	C 	0.69988 0.99446 0.50376 0.29300
C 	C 	0.77180 0.96331 0.54054 -0.00200
F 	F 	0.75549 0.93506 0.43677 -0.34200
F 	F 	0.68269 0.01504 0.52463 -0.36200
C 	C 	0.78093 0.93561 0.55037 0.22600
C 	C 	0.80990 0.92988 0.55738 0.31000
C 	C 	0.82981 0.95208 0.55777 -0.19600
C 	C 	0.82021 0.98038 0.55842 0.31400
C 	C 	0.79140 0.98595 0.54827 0.23000
F 	F 	0.76187 0.91391 0.54863 -0.32500
F 	F 	0.83909 0.00230 0.56249 -0.36600
F 	F 	0.81874 0.90254 0.55980 -0.34900
F 	F 	0.78288 0.01304 0.54103 -0.32900
F 	F 	0.73057 0.00066 0.58531 -0.29800
F 	F 	0.70518 0.94534 0.38058 -0.37400
C 	C 	0.00968 0.97895 0.74398 -0.03400
C 	C 	0.98613 0.99593 0.75582 -0.06700
C 	C 	0.98918 0.02583 0.76049 0.05900
C 	C 	0.01604 0.03824 0.75766 -0.03400
C 	C 	0.04012 0.02109 0.75160 -0.07900
H 	H 	0.01837 0.06120 0.76335 0.03400
N 	N 	0.96538 0.04365 0.77136 -0.03400
O 	O 	0.95270 0.04204 0.81691 -0.24400
O 	O 	0.95816 0.06333 0.73837 -0.10700
C 	C 	0.89038 0.06287 0.84525 -0.01900
C 	C 	0.88977 0.03607 0.86688 -0.08200
C 	C 	0.89631 0.03393 0.92389 0.05900
C 	C 	0.90880 0.05724 0.95559 -0.02400
C 	C 	0.91335 0.08285 0.93139 -0.09700
C 	C 	0.90184 0.08637 0.87749 0.09900
N 	N 	0.90304 0.11355 0.85456 -0.02600
H 	H 	0.88334 0.06519 0.80257 0.10200
H 	H 	0.91600 0.05505 0.99824 0.06500
N 	N 	0.88916 0.00873 0.94997 -0.03800
O 	O 	0.91244 0.11552 0.80589 -0.08000
O 	O 	0.89425 0.13624 0.88192 -0.03400
O 	O 	0.90679 0.99862 0.98678 -0.16100
O 	O 	0.86402 0.99748 0.94071 -0.06300
C 	C 	0.76868 0.91963 0.69083 0.24300
C 	C 	0.75521 0.94573 0.70260 0.00300
C 	C 	0.77020 0.97122 0.69860 0.23300
C 	C 	0.79944 0.97051 0.69287 0.30300
C 	C 	0.81378 0.94439 0.69222 -0.20200
C 	C 	0.79802 0.91894 0.68666 0.32100
C 	C 	0.72885 0.94625 0.73214 -0.00900
F 	F 	0.75705 0.99669 0.70615 -0.31800
F 	F 	0.81147 0.89348 0.68242 -0.34700
C 	C 	0.72925 0.93697 0.78579 0.23500
C 	C 	0.70520 0.93972 0.81610 0.28800
C 	C 	0.68074 0.95282 0.79398 -0.15500
C 	C 	0.68019 0.96168 0.73982 0.28900
C 	C 	0.70400 0.95793 0.70877 0.24700
F 	F 	0.75322 0.92580 0.80898 -0.34600
F 	F 	0.65690 0.97460 0.71784 -0.37600
F 	F 	0.70562 0.92952 0.86694 -0.38300
F 	F 	0.70304 0.96597 0.65625 -0.32000
F 	F 	0.75385 0.89485 0.68942 -0.32600
F 	F 	0.81428 0.99531 0.69460 -0.35800
C 	C 	0.95431 0.58815 0.30943 -0.04200
C 	C 	0.93683 0.58134 0.26072 0.12200
C 	C 	0.93127 0.55259 0.24365 -0.08400
C 	C 	0.94080 0.53084 0.27666 0.00100
C 	C 	0.95834 0.53767 0.32515 0.07900
C 	C 	0.96550 0.56619 0.34011 -0.04500
N 	N 	0.92449 0.60212 0.23147 -0.19800
H 	H 	0.91814 0.54722 0.20620 0.07100
C 	C 	0.93141 0.50113 0.26149 -0.00000
N 	N 	0.96810 0.51703 0.35785 -0.19300
H 	H 	0.97925 0.57142 0.37683 0.06000
C 	C 	0.95018 0.48222 0.23582 -0.08200
C 	C 	0.94733 0.45269 0.23941 0.12000
C 	C 	0.92448 0.44212 0.26709 -0.04000
C 	C 	0.90328 0.46084 0.28448 -0.04600
C 	C 	0.90660 0.49036 0.28232 0.08200
H 	H 	0.96843 0.49056 0.21733 0.07100
N 	N 	0.96705 0.43482 0.21801 -0.20100
H 	H 	0.88509 0.45255 0.30327 0.06700
N 	N 	0.88641 0.50824 0.30184 -0.19300
H 	H 	0.98419 0.44294 0.19891 0.12100
H 	H 	0.96537 0.41278 0.21923 0.15000
H 	H 	0.86861 0.50014 0.31888 0.10500
H 	H 	0.88776 0.53022 0.29899 0.10300
H 	H 	0.98119 0.52234 0.39331 0.09700
H 	H 	0.96263 0.49563 0.34899 0.09800
H 	H 	0.92550 0.62350 0.24607 0.14000
H 	H 	0.91254 0.59683 0.19456 0.12000
C 	C 	0.00848 0.60137 0.89906 -0.03500
C 	C 	0.98164 0.58797 0.88976 0.11400
C 	C 	0.97951 0.55836 0.89215 -0.08200
C 	C 	0.00325 0.54235 0.90792 -0.00100
C 	C 	0.02918 0.55640 0.92465 0.08500
C 	C 	0.03174 0.58576 0.91884 -0.04500
N 	N 	0.95787 0.60348 0.87987 -0.19800
H 	H 	0.95937 0.54772 0.88133 0.06500
C 	C 	0.00154 0.51085 0.90060 -0.00100
N 	N 	0.05155 0.54188 0.94639 -0.19400
H 	H 	0.05207 0.59627 0.92818 0.07700
C 	C 	0.01520 0.49671 0.85715 -0.08200
C 	C 	0.01057 0.46754 0.84361 0.11400
C 	C 	0.99019 0.45286 0.87118 -0.04000
C 	C 	0.97797 0.46649 0.91696 -0.04800
C 	C 	0.98404 0.49524 0.93283 0.08400
H 	H 	0.02938 0.50849 0.83369 0.06600
N 	N 	0.02624 0.45360 0.80534 -0.19900
H 	H 	0.96319 0.45492 0.93949 0.08300
N 	N 	0.97318 0.50765 0.97901 -0.19700
H 	H 	0.04022 0.46484 0.78322 0.10500
H 	H 	0.02595 0.43140 0.79957 0.11500
H 	H 	0.95949 0.49627 0.00151 0.11300
H 	H 	0.97908 0.52827 0.99419 0.10600
H 	H 	0.07093 0.55218 0.95683 0.11300
H 	H 	0.04961 0.52058 0.95513 0.10800
H 	H 	0.95824 0.62570 0.88497 0.11400
H 	H 	0.93835 0.59332 0.87015 0.10400
C 	C 	0.99917 0.67054 0.75774 -0.03800
C 	C 	0.97081 0.66578 0.73701 0.11300
C 	C 	0.96410 0.66574 0.68000 -0.07900
C 	C 	0.98498 0.67154 0.64395 -0.00300
C 	C 	0.01248 0.67984 0.66558 0.09300
C 	C 	0.01942 0.67891 0.72237 -0.04700
N 	N 	0.94993 0.66174 0.77163 -0.19800
H 	H 	0.94275 0.66051 0.66352 0.06700
C 	C 	0.97882 0.66551 0.58385 0.00400
N 	N 	0.03234 0.68826 0.63200 -0.19400
H 	H 	0.04091 0.68365 0.73868 0.08800
C 	C 	0.96479 0.68606 0.55336 -0.08200
C 	C 	0.95881 0.68108 0.49618 0.12500
C 	C 	0.96823 0.65557 0.46887 -0.04100
C 	C 	0.98172 0.63481 0.49966 -0.04200
C 	C 	0.98675 0.63932 0.55699 0.08000
H 	H 	0.95820 0.70583 0.57429 0.07700
N 	N 	0.94331 0.70037 0.46825 -0.19700
H 	H 	0.98869 0.61517 0.47877 0.06000
N 	N 	0.99918 0.61846 0.58594 -0.19300
H 	H 	0.93741 0.71963 0.48831 0.12100
H 	H 	0.93584 0.69594 0.42726 0.12300
H 	H 	0.00544 0.59943 0.56553 0.10000
H 	H 	0.00228 0.62060 0.62886 0.10100
H 	H 	0.05286 0.69347 0.64802 0.12300
H 	H 	0.02741 0.69051 0.59013 0.12000
H 	H 	0.95366 0.66480 0.81438 0.11300
H 	H 	0.92929 0.65688 0.75586 0.10600
C 	C 	0.06184 0.02313 0.02127 -0.04000
C 	C 	0.04191 0.00109 0.02233 -0.07900
C 	C 	0.01330 0.00806 0.02915 0.09000
C 	C 	0.00429 0.03635 0.02530 -0.04000
C 	C 	0.02367 0.05765 0.01523 -0.06800
C 	C 	0.05285 0.05146 0.01800 0.08700
N 	N 	0.07327 0.07369 0.01492 -0.01000
H 	H 	0.08410 0.01806 0.01889 0.04800
H 	H 	0.98194 0.04131 0.02616 0.05100
N 	N 	0.99306 0.98617 0.03635 -0.01600
O 	O 	0.07219 0.09694 0.04696 -0.05900
O 	O 	0.09302 0.07067 0.98021 -0.19900
O 	O 	0.96926 0.98472 0.00645 -0.17900
C 	C 	0.05263 0.79439 0.03694 0.22200
C 	C 	0.07396 0.77372 0.03540 -0.00200
C 	C 	0.10194 0.78158 0.05296 0.24800
C 	C 	0.06786 0.74550 0.00630 -0.00700
F 	F 	0.12249 0.76152 0.05502 -0.32000
C 	C 	0.07815 0.73908 0.95396 0.23300
C 	C 	0.06746 0.71558 0.92066 0.28900
C 	C 	0.04614 0.69846 0.93907 -0.15500
C 	C 	0.03726 0.70372 0.99286 0.28400
C 	C 	0.04818 0.72706 0.02639 0.25600
F 	F 	0.09733 0.75657 0.93415 -0.34300
F 	F 	0.01690 0.68717 0.01149 -0.35400
F 	F 	0.07729 0.70986 0.86987 -0.37800
F 	F 	0.03831 0.73280 0.07705 -0.33500
F 	F 	0.02532 0.78698 0.02207 -0.33700
C 	C 	0.98546 0.00584 0.20889 -0.02700
C 	C 	0.99930 0.03214 0.20667 -0.06600
C 	C 	0.02851 0.03245 0.19844 0.06600
N 	N 	0.04249 0.05848 0.18882 -0.01600
H 	H 	0.96279 0.00528 0.21292 0.07300
O 	O 	0.06554 0.06624 0.21793 -0.20600
O 	O 	0.03369 0.07301 0.14764 -0.07400
C 	C 	0.99814 0.70611 0.20372 0.24600
C 	C 	0.01853 0.72522 0.22950 -0.00700
C 	C 	0.02847 0.72198 0.28431 0.23400
C 	C 	0.01769 0.70033 0.31348 0.28800
C 	C 	0.99585 0.68241 0.28908 -0.15600
C 	C 	0.98648 0.68508 0.23359 0.28800
C 	C 	0.02799 0.74991 0.20087 0.01300
F 	F 	0.04809 0.74038 0.30982 -0.34600
F 	F 	0.96544 0.66801 0.20922 -0.38100
C 	C 	0.00892 0.77192 0.18939 0.24000
C 	C 	0.01912 0.79860 0.17763 0.32200
C 	C 	0.04843 0.80369 0.17921 -0.19500
C 	C 	0.06716 0.78073 0.18361 0.30900
C 	C 	0.05693 0.75383 0.19371 0.25500
F 	F 	0.98075 0.76818 0.19418 -0.33500
F 	F 	0.09550 0.78511 0.18305 -0.36000
F 	F 	0.07533 0.73204 0.20028 -0.32400
F 	F 	0.98913 0.70836 0.15013 -0.31100
F 	F 	0.02837 0.69685 0.36566 -0.37700
Cd	Cd	0.06185 0.89079 0.22686 1.24900
Cd	Cd	0.07411 0.93974 0.34413 1.20300
O 	O 	0.07047 0.84022 0.24099 -0.28000
O 	O 	0.05068 0.85381 0.16329 -0.28700
C 	C 	0.05927 0.83280 0.19207 0.37700
O 	O 	0.04466 0.93186 0.19772 -0.34400
O 	O 	0.06933 0.96087 0.26375 -0.42000
C 	C 	0.04792 0.95667 0.22664 0.30400
C 	C 	0.02025 0.89568 0.30740 0.30200
O 	O 	0.10284 0.90755 0.29840 -0.43300
O 	O 	0.01047 0.88271 0.26084 -0.24700
O 	O 	0.04733 0.90093 0.31055 -0.49200
C 	C 	0.11818 0.91289 0.25784 0.30800
O 	O 	0.10741 0.90438 0.20868 -0.30800
Cd	Cd	0.07665 0.91084 0.00557 1.25300
Cd	Cd	0.06707 0.94733 0.88287 1.18500
O 	O 	0.10117 0.86491 0.99768 -0.28200
O 	O 	0.08628 0.88221 0.07630 -0.32800
C 	C 	0.09642 0.86031 0.04822 0.39800
O 	O 	0.06074 0.95394 0.03492 -0.35100
O 	O 	0.03969 0.96319 0.95066 -0.43800
C 	C 	0.04935 0.97213 0.00091 0.29300
C 	C 	0.12285 0.94017 0.96687 0.30400
O 	O 	0.05245 0.90280 0.90508 -0.40600
O 	O 	0.12919 0.93355 0.01747 -0.24500
O 	O 	0.09953 0.92956 0.94380 -0.52700
C 	C 	0.02918 0.89664 0.92758 0.29600
O 	O 	0.03099 0.89554 0.98106 -0.30300
C 	C 	0.92530 0.91397 0.81800 0.31400
O 	O 	0.91978 0.91615 0.76521 -0.32600
C 	C 	0.93649 0.91134 0.45490 0.32700
O 	O 	0.93204 0.91396 0.50751 -0.25700
O 	O 	0.92211 0.92849 0.42482 -0.52100
O 	O 	0.17951 0.06669 0.71989 -0.27400
O 	O 	0.15351 0.04499 0.65175 -0.30800
C 	C 	0.17806 0.05597 0.66920 0.38300
C 	C 	0.14956 0.01000 0.80622 0.31000
O 	O 	0.15379 0.00125 0.75530 -0.24000
O 	O 	0.14020 0.03574 0.81325 -0.51100
Cd	Cd	0.13222 0.05977 0.44215 1.25000
Cd	Cd	0.08779 0.05116 0.31905 1.20000
O 	O 	0.17707 0.08607 0.44002 -0.27800
O 	O 	0.16379 0.06931 0.51599 -0.30700
C 	C 	0.18366 0.08155 0.49126 0.39200
O 	O 	0.09232 0.04145 0.47020 -0.36100
O 	O 	0.07696 0.02207 0.38446 -0.43100
C 	C 	0.07173 0.03098 0.43537 0.29900
O 	O 	0.13429 0.03792 0.33959 -0.41900
O 	O 	0.10873 0.08363 0.38239 -0.51400
C 	C 	0.14283 0.01423 0.35947 0.28800
O 	O 	0.14729 0.01477 0.41302 -0.30900
C 	C 	0.35804 0.00530 0.80347 0.23600
N 	N 	0.38409 0.00248 0.78323 -0.11900
C 	C 	0.40723 0.99896 0.81793 0.14500
N 	N 	0.40442 0.99869 0.87302 -0.14300
C 	C 	0.37853 0.00175 0.89352 0.14400
N 	N 	0.35524 0.00426 0.85860 -0.12100
C 	C 	0.37256 0.03665 0.39199 0.23700
N 	N 	0.39807 0.03202 0.41869 -0.11900
C 	C 	0.41973 0.02084 0.39029 0.14700
N 	N 	0.41605 0.01489 0.33487 -0.14300
C 	C 	0.39060 0.01936 0.30800 0.14700
N 	N 	0.36897 0.03048 0.33654 -0.12100
C 	C 	0.37586 0.00268 0.95370 -0.03800
C 	C 	0.36672 0.02763 0.98351 0.11700
C 	C 	0.36626 0.02815 0.04123 -0.07400
C 	C 	0.37676 0.00518 0.06988 -0.00100
C 	C 	0.38555 0.98012 0.04011 0.08700
C 	C 	0.38462 0.97902 0.98222 -0.05200
N 	N 	0.35950 0.05147 0.95743 -0.19600
H 	H 	0.35928 0.04718 0.06418 0.07800
C 	C 	0.38069 0.00858 0.13096 0.00400
N 	N 	0.39527 0.95725 0.06675 -0.19400
H 	H 	0.39144 0.95991 0.95932 0.06500
C 	C 	0.36023 0.99737 0.16276 -0.08100
C 	C 	0.36398 0.99899 0.22065 0.12300
C 	C 	0.38732 0.01451 0.24720 -0.04000
C 	C 	0.40756 0.02609 0.21530 -0.04300
C 	C 	0.40481 0.02278 0.15744 0.08000
H 	H 	0.34195 0.98625 0.14234 0.07700
N 	N 	0.34592 0.98455 0.25011 -0.19700
H 	H 	0.42554 0.03776 0.23559 0.06300
N 	N 	0.42544 0.03312 0.12767 -0.19300
H 	H 	0.32792 0.97451 0.23049 0.12000
H 	H 	0.35049 0.98155 0.29180 0.12300
H 	H 	0.44294 0.04393 0.14762 0.10000
H 	H 	0.42464 0.03017 0.08471 0.09900
H 	H 	0.40187 0.93894 0.04438 0.10400
H 	H 	0.39635 0.95733 0.10971 0.10100
H 	H 	0.36261 0.05306 0.91572 0.14000
H 	H 	0.35178 0.06934 0.97958 0.12600
C 	C 	0.25356 0.04551 0.50132 0.22400
C 	C 	0.27174 0.06901 0.49956 0.00600
C 	C 	0.26124 0.09665 0.51016 0.24500
C 	C 	0.23212 0.10089 0.51386 0.33100
C 	C 	0.21351 0.07745 0.50878 -0.19300
C 	C 	0.22459 0.04973 0.50633 0.30000
C 	C 	0.29978 0.06493 0.47661 -0.01000
F 	F 	0.27898 0.11948 0.51272 -0.32300
F 	F 	0.20692 0.02685 0.50391 -0.37500
C 	C 	0.30442 0.07430 0.42436 0.23600
C 	C 	0.32898 0.06646 0.39824 0.28600
C 	C 	0.34871 0.04822 0.42309 -0.15400
C 	C 	0.34470 0.03993 0.47659 0.28800
C 	C 	0.32059 0.04873 0.50355 0.24800
F 	F 	0.28455 0.09012 0.39795 -0.34300
F 	F 	0.36352 0.02244 0.50153 -0.36700
F 	F 	0.33346 0.07638 0.34845 -0.37400
F 	F 	0.31694 0.04066 0.55508 -0.31800
F 	F 	0.26361 0.01860 0.49370 -0.33100
F 	F 	0.22180 0.12778 0.51884 -0.34800
C 	C 	0.25426 0.05850 0.64856 0.23200
C 	C 	0.26069 0.03035 0.66024 0.01400
C 	C 	0.23933 0.00946 0.65126 0.23400
C 	C 	0.21110 0.01764 0.64187 0.32000
C 	C 	0.20418 0.04673 0.64403 -0.18600
C 	C 	0.22597 0.06685 0.64183 0.30600
C 	C 	0.28634 0.02469 0.69567 -0.00900
F 	F 	0.24548 0.98169 0.65790 -0.33100
C 	C 	0.28937 0.03745 0.74973 0.23600
C 	C 	0.31287 0.03142 0.78450 0.28800
C 	C 	0.33323 0.01174 0.76639 -0.15300
C 	C 	0.33007 0.99872 0.71237 0.29000
C 	C 	0.30686 0.00542 0.67702 0.25500
F 	F 	0.26924 0.05548 0.76880 -0.34700
F 	F 	0.34913 0.97918 0.69453 -0.36900
F 	F 	0.31608 0.04507 0.83557 -0.38400
F 	F 	0.30413 0.99290 0.62496 -0.30500
F 	F 	0.19027 0.99761 0.63861 -0.36400
O 	O 	0.10980 0.10976 0.24861 -0.09800
C 	C 	0.44777 0.01686 0.41888 -0.03600
C 	C 	0.46377 0.99203 0.40709 0.11300
C 	C 	0.49298 0.99228 0.42115 -0.08200
C 	C 	0.50593 0.01597 0.45089 -0.00200
C 	C 	0.48899 0.03882 0.47041 0.08400
C 	C 	0.46014 0.03945 0.45289 -0.04500
N 	N 	0.45109 0.96780 0.38357 -0.19800
H 	H 	0.50575 0.97420 0.40814 0.06500
H 	H 	0.44757 0.05794 0.46432 0.07700
C 	C 	0.55442 0.99797 0.47990 0.08400
N 	N 	0.54359 0.98083 0.51613 -0.19400
H 	H 	0.55609 0.96508 0.53356 0.10900
H 	H 	0.52311 0.98378 0.52909 0.10200
H 	H 	0.42906 0.96582 0.37922 0.11500
H 	H 	0.46322 0.95001 0.37245 0.10400
C 	C 	0.43534 0.99519 0.79600 -0.03600
C 	C 	0.44071 0.97051 0.76263 -0.04600
C 	C 	0.46862 0.96278 0.75209 0.08500
H 	H 	0.42327 0.95671 0.74665 0.08400
N 	N 	0.47343 0.93916 0.71856 -0.19400
H 	H 	0.45658 0.92621 0.70202 0.11300
H 	H 	0.49379 0.93401 0.70702 0.10500
C 	C 	0.99248 0.03223 0.44149 -0.01200
C 	C 	0.03891 0.00490 0.49108 -0.02200
C 	C 	0.04333 0.02619 0.45490 -0.06700
C 	C 	0.02000 0.04122 0.43345 0.06400
N 	N 	0.02417 0.06691 0.40727 -0.03700
H 	H 	0.05689 0.99483 0.51143 0.07900
O 	O 	0.03195 0.06592 0.35688 -0.26600
O 	O 	0.01698 0.09106 0.43149 -0.19000
O 	O 	0.98898 0.98588 0.58138 -0.07100
C 	C 	0.03670 0.99128 0.74268 0.07400
N 	N 	0.06073 0.97333 0.73511 -0.01500
H 	H 	0.00733 0.95598 0.73910 0.07100
O 	O 	0.07974 0.97102 0.77553 -0.21100
O 	O 	0.06220 0.95726 0.68966 -0.06600
O 	O 	0.99839 0.96773 0.07293 -0.07300
C 	C 	0.97747 0.88643 0.92124 -0.03100
C 	C 	0.00240 0.89037 0.89438 -0.06600
C 	C 	0.00065 0.89223 0.83658 0.08100
C 	C 	0.97432 0.89658 0.80909 -0.01700
C 	C 	0.94974 0.89773 0.83847 -0.09100
C 	C 	0.95108 0.88952 0.89311 0.10000
N 	N 	0.92565 0.88562 0.92082 -0.02300
H 	H 	0.97854 0.88216 0.96448 0.10800
H 	H 	0.97320 0.90061 0.76572 0.08000
N 	N 	0.02526 0.88852 0.80561 -0.02400
O 	O 	0.92355 0.89664 0.97093 -0.07500
O 	O 	0.90485 0.87048 0.89640 -0.04500
O 	O 	0.03917 0.86470 0.80588 -0.05400
O 	O 	0.03271 0.90819 0.77441 -0.13300
C 	C 	0.14805 0.98410 0.94875 -0.03100
C 	C 	0.14253 0.95514 0.93490 -0.10000
C 	C 	0.14828 0.94339 0.88194 0.09200
C 	C 	0.15291 0.96149 0.84022 -0.03200
C 	C 	0.15330 0.99109 0.85193 -0.09200
C 	C 	0.15421 0.00215 0.90755 0.05600
N 	N 	0.16288 0.03103 0.92251 -0.04000
H 	H 	0.14587 0.99289 0.99063 0.06800
H 	H 	0.15485 0.95258 0.79834 0.09800
N 	N 	0.14709 0.91315 0.86948 -0.02400
O 	O 	0.15012 0.04609 0.96028 -0.15600
O 	O 	0.18535 0.04124 0.90259 -0.05800
O 	O 	0.13376 0.90258 0.82420 -0.08000
O 	O 	0.15942 0.89617 0.90336 -0.04400
C 	C 	0.10904 0.81038 0.06499 0.32700
C 	C 	0.08817 0.83138 0.05991 -0.20700
C 	C 	0.05969 0.82306 0.04916 0.31200
F 	F 	0.03918 0.84308 0.04499 -0.37800
F 	F 	0.13650 0.81803 0.07739 -0.35700
C 	C 	0.04423 0.00720 0.20163 -0.03300
C 	C 	0.03077 0.98139 0.21032 -0.07400
C 	C 	0.00103 0.98055 0.21111 0.09900
H 	H 	0.06699 0.00791 0.19922 0.05100
N 	N 	0.98675 0.95443 0.21852 -0.01400
O 	O 	0.97699 0.95008 0.26597 -0.18900
O 	O 	0.98193 0.93579 0.17691 -0.06100
C 	C 	0.98385 0.87326 0.36005 -0.03300
C 	C 	0.00403 0.89501 0.35724 -0.08400
C 	C 	0.00604 0.91734 0.39912 0.07000
C 	C 	0.98655 0.91880 0.43999 -0.03700
C 	C 	0.96332 0.90022 0.43615 -0.11000
C 	C 	0.96324 0.87595 0.39898 0.10400
N 	N 	0.94137 0.85480 0.39874 -0.02600
H 	H 	0.98337 0.85491 0.33043 0.10200
H 	H 	0.98724 0.93676 0.47020 0.06800
N 	N 	0.02627 0.93975 0.39804 -0.05200
O 	O 	0.92951 0.84399 0.35222 -0.06100
O 	O 	0.93379 0.84585 0.44500 -0.05300
O 	O 	0.02118 0.96031 0.36587 -0.20900
O 	O 	0.04685 0.94236 0.43611 -0.19300
C 	C 	0.15632 0.93770 0.31544 -0.03700
C 	C 	0.13942 0.93581 0.26588 -0.08300
C 	C 	0.13504 0.96070 0.23778 0.09800
C 	C 	0.13844 0.98731 0.26729 -0.03700
C 	C 	0.14881 0.98879 0.32288 -0.08900
C 	C 	0.16106 0.96425 0.34441 0.09900
N 	N 	0.17875 0.96630 0.39449 -0.02000
H 	H 	0.16303 0.91844 0.33432 0.08600
H 	H 	0.13207 0.00650 0.24785 0.05200
N 	N 	0.12711 0.95896 0.17980 -0.01900
O 	O 	0.17407 0.94986 0.43374 -0.05200
O 	O 	0.20069 0.98320 0.39931 -0.01300
O 	O 	0.10826 0.97621 0.15991 -0.10100
O 	O 	0.14013 0.94140 0.14642 -0.05700
F 	F 	0.00067 0.82031 0.17057 -0.35900
