data_crystal

_cell_length_a 36.12074
_cell_length_b 38.13300
_cell_length_c 19.52399
_cell_angle_alpha 94.32369
_cell_angle_beta  93.96790
_cell_angle_gamma 90.03565

_symmetry_space_group_name_	'P 1'
_symmetry_space_group_name_H-M	'P 1'

loop_
_symmetry_equiv_pos_as_xyz
  x,y,z

loop_
_atom_site_label
_atom_site_type_symbol
_atom_site_fract_x
_atom_site_fract_y
_atom_site_fract_z
_atom_site_charge
C 	C 	0.96210 0.73266 0.95121 0.09700
N 	N 	0.93863 0.73381 0.89382 -0.13800
C 	C 	0.94379 0.71168 0.83732 0.12900
N 	N 	0.97252 0.68870 0.83826 -0.14200
C 	C 	0.99538 0.68704 0.89607 0.13800
N 	N 	0.99047 0.70940 0.95198 -0.12900
C 	C 	0.83680 0.64738 0.24339 0.09100
N 	N 	0.84013 0.66813 0.30328 -0.13600
C 	C 	0.85574 0.65512 0.36144 0.12700
N 	N 	0.86838 0.62158 0.35913 -0.14300
C 	C 	0.86601 0.60114 0.29900 0.12800
N 	N 	0.85058 0.61424 0.24094 -0.13300
Cd	Cd	0.86836 0.17336 0.95986 1.17000
C 	C 	0.85488 0.23897 0.86238 0.29900
O 	O 	0.83913 0.24416 0.80157 -0.30300
O 	O 	0.84091 0.21372 0.89310 -0.54200
O 	O 	0.85075 0.07935 0.51274 -0.45600
C 	C 	0.87794 0.08897 0.55762 0.29400
O 	O 	0.87580 0.07824 0.61908 -0.36300
Cd	Cd	0.00077 0.05928 0.25621 1.23700
Cd	Cd	0.01345 0.01609 0.41060 1.18800
O 	O 	0.05233 0.09233 0.21448 -0.30000
O 	O 	0.99833 0.08604 0.15628 -0.34100
C 	C 	0.03096 0.10087 0.16208 0.22800
O 	O 	0.94844 0.02798 0.25898 -0.38900
O 	O 	0.95400 0.02497 0.37583 -0.44100
C 	C 	0.93909 0.01360 0.31486 0.27000
O 	O 	0.01928 0.07459 0.38793 -0.44800
O 	O 	0.03377 0.01830 0.30297 -0.53200
C 	C 	0.99272 0.09777 0.38794 0.30700
O 	O 	0.97738 0.10356 0.32738 -0.37000
Cd	Cd	0.07657 0.24637 0.96078 1.24000
Cd	Cd	0.01817 0.23033 0.80684 1.16500
O 	O 	0.10759 0.30404 0.98773 -0.30900
O 	O 	0.11147 0.26247 0.05972 -0.35000
C 	C 	0.12063 0.29413 0.04691 0.24300
O 	O 	0.04931 0.19486 0.97370 -0.38600
O 	O 	0.03127 0.18069 0.85998 -0.43500
C 	C 	0.02795 0.17673 0.92587 0.27900
C 	C 	0.00382 0.27515 0.95151 0.29000
O 	O 	0.08081 0.24434 0.82685 -0.45800
O 	O 	0.01744 0.27677 0.01553 -0.29700
O 	O 	0.02691 0.26545 0.90616 -0.54300
C 	C 	0.10809 0.22230 0.83356 0.29500
O 	O 	0.12037 0.21777 0.89673 -0.36900
C 	C 	0.22048 0.45329 0.92723 0.09400
N 	N 	0.21496 0.43474 0.86517 -0.12800
C 	C 	0.19353 0.44821 0.81367 0.12800
N 	N 	0.18003 0.48130 0.82259 -0.14300
C 	C 	0.18780 0.50096 0.88273 0.12800
N 	N 	0.20784 0.48682 0.93519 -0.13800
C 	C 	0.03676 0.32341 0.28005 0.09400
N 	N 	0.05994 0.32662 0.33808 -0.13800
C 	C 	0.05930 0.35618 0.38131 0.12800
N 	N 	0.03661 0.38310 0.36489 -0.14300
C 	C 	0.01297 0.37973 0.30769 0.12000
N 	N 	0.01248 0.34953 0.26606 -0.12900
Cd	Cd	0.06789 0.03673 0.61790 1.23600
Cd	Cd	0.08133 0.06506 0.79600 1.16900
O 	O 	0.11679 0.00036 0.56797 -0.32000
O 	O 	0.06408 0.00948 0.50939 -0.49500
C 	C 	0.09649 0.99462 0.51076 0.27400
O 	O 	0.01360 0.06152 0.64477 -0.39800
O 	O 	0.03809 0.09622 0.73831 -0.42500
C 	C 	0.00913 0.08256 0.70079 0.27400
C 	C 	0.05303 0.98916 0.71799 0.30900
O 	O 	0.11571 0.07297 0.70226 -0.45900
O 	O 	0.04051 0.97689 0.65652 -0.31700
O 	O 	0.07404 0.01682 0.71971 -0.54400
C 	C 	0.11200 0.09857 0.66177 0.29400
O 	O 	0.09235 0.09140 0.60374 -0.36700
Cd	Cd	0.02193 0.80391 0.43925 1.23700
Cd	Cd	0.95891 0.83745 0.31197 1.18700
O 	O 	0.06697 0.75991 0.39982 -0.30500
O 	O 	0.06980 0.78249 0.50699 -0.35200
C 	C 	0.08402 0.76112 0.46067 0.24000
O 	O 	0.99329 0.84810 0.49626 -0.38000
C 	C 	0.96218 0.86258 0.47231 0.28000
C 	C 	0.04662 0.85660 0.35648 0.30700
O 	O 	0.07057 0.85221 0.40828 -0.30400
O 	O 	0.01995 0.83361 0.34762 -0.53600
C 	C 	0.26451 0.87945 0.60057 0.09400
N 	N 	0.29300 0.90288 0.60146 -0.13800
C 	C 	0.31813 0.90659 0.65658 0.12900
N 	N 	0.31448 0.88719 0.71121 -0.14300
C 	C 	0.28632 0.86360 0.71038 0.12800
N 	N 	0.26157 0.85941 0.65469 -0.12900
C 	C 	0.30084 0.78694 0.29364 0.09400
N 	N 	0.33134 0.80244 0.32754 -0.12900
C 	C 	0.35947 0.81361 0.29186 0.12800
N 	N 	0.35688 0.80940 0.22204 -0.14400
C 	C 	0.32572 0.79537 0.18762 0.12700
N 	N 	0.29762 0.78425 0.22364 -0.13600
C 	C 	0.31968 0.79856 0.11252 -0.04900
C 	C 	0.30238 0.77136 0.06797 0.09800
C 	C 	0.29225 0.77765 0.99916 -0.08500
C 	C 	0.30247 0.80912 0.97247 -0.00200
C 	C 	0.32200 0.83537 0.01586 0.06700
C 	C 	0.32964 0.83013 0.08573 -0.05100
N 	N 	0.29710 0.73881 0.08982 -0.19900
H 	H 	0.27778 0.75740 0.96553 0.05400
C 	C 	0.29238 0.81454 0.89914 -0.00600
N 	N 	0.33348 0.86563 0.99084 -0.19100
H 	H 	0.34308 0.85091 0.11957 0.05000
C 	C 	0.26148 0.83530 0.88268 -0.08500
C 	C 	0.25705 0.84962 0.81840 0.10100
C 	C 	0.28350 0.84192 0.76916 -0.04900
C 	C 	0.31167 0.81761 0.78271 -0.05200
C 	C 	0.31656 0.80394 0.84750 0.07100
H 	H 	0.24221 0.84229 0.92162 0.05600
N 	N 	0.22806 0.87146 0.80521 -0.20000
H 	H 	0.33118 0.81085 0.74406 0.04900
N 	N 	0.34501 0.78147 0.86031 -0.19400
H 	H 	0.20920 0.87757 0.84253 0.08600
H 	H 	0.22358 0.88216 0.75775 0.09800
H 	H 	0.36335 0.77458 0.82246 0.08500
H 	H 	0.34879 0.77006 0.90721 0.08900
H 	H 	0.34728 0.88509 0.02362 0.08200
H 	H 	0.32954 0.86993 0.93870 0.09000
H 	H 	0.30968 0.73151 0.13633 0.09200
H 	H 	0.28239 0.71957 0.05795 0.08400
C 	C 	0.17113 0.73284 0.42138 0.11600
C 	C 	0.19042 0.72925 0.36114 -0.08900
C 	C 	0.21629 0.75530 0.35095 0.01900
C 	C 	0.22717 0.78059 0.40188 0.11900
C 	C 	0.20997 0.78304 0.46404 -0.09100
C 	C 	0.18111 0.75923 0.47215 0.01600
O 	O 	0.13426 0.72265 0.42051 -0.19000
C 	C 	0.12188 0.74757 0.46980 0.05300
C 	C 	0.14996 0.76843 0.50290 -0.06100
O 	O 	0.26127 0.79603 0.39376 -0.20200
C 	C 	0.26961 0.77711 0.33251 0.09600
C 	C 	0.24298 0.75274 0.30667 -0.08600
H 	H 	0.18267 0.70900 0.32077 0.06700
H 	H 	0.21890 0.80247 0.50497 0.08100
H 	H 	0.14551 0.79437 0.52766 0.06600
H 	H 	0.24721 0.73070 0.26972 0.05800
C 	C 	0.14890 0.93323 0.42693 0.11700
C 	C 	0.18702 0.92660 0.42523 -0.09100
C 	C 	0.20191 0.89794 0.45867 0.02300
C 	C 	0.18039 0.87836 0.49764 0.11400
C 	C 	0.14225 0.88474 0.49879 -0.07900
C 	C 	0.12673 0.91157 0.46060 0.01700
O 	O 	0.13518 0.96708 0.42318 -0.19400
C 	C 	0.10460 0.96488 0.46264 0.00300
C 	C 	0.09814 0.93133 0.48114 -0.05100
O 	O 	0.20017 0.86417 0.55250 -0.21000
C 	C 	0.23533 0.87763 0.54382 0.10000
C 	C 	0.23673 0.89738 0.48768 -0.08400
H 	H 	0.20512 0.94560 0.40564 0.06700
H 	H 	0.12604 0.87203 0.53463 0.07000
H 	H 	0.08244 0.92579 0.52455 0.04900
H 	H 	0.25760 0.91727 0.48244 0.06300
C 	C 	0.18309 0.42647 0.74946 -0.04800
C 	C 	0.16459 0.39364 0.75013 0.10200
C 	C 	0.15204 0.37562 0.68747 -0.08600
C 	C 	0.15326 0.39166 0.62536 -0.00600
C 	C 	0.17235 0.42409 0.62445 0.07200
C 	C 	0.18818 0.44049 0.68636 -0.05200
N 	N 	0.15683 0.38031 0.81032 -0.19900
H 	H 	0.13801 0.35048 0.68775 0.05300
C 	C 	0.12896 0.37763 0.56525 -0.00500
N 	N 	0.17486 0.43998 0.56480 -0.19400
H 	H 	0.20290 0.46526 0.68579 0.04900
C 	C 	0.09056 0.38263 0.56625 -0.08700
C 	C 	0.06678 0.37160 0.50893 0.09900
C 	C 	0.08206 0.35860 0.44725 -0.05100
C 	C 	0.12017 0.35137 0.44759 -0.05400
C 	C 	0.14369 0.35981 0.50697 0.06900
H 	H 	0.07912 0.39472 0.61218 0.05300
N 	N 	0.02942 0.37236 0.51407 -0.19900
H 	H 	0.13171 0.34004 0.40115 0.05200
N 	N 	0.18027 0.35132 0.50730 -0.19400
H 	H 	0.01830 0.38385 0.55838 0.07900
H 	H 	0.01128 0.35954 0.47630 0.08800
H 	H 	0.19108 0.33904 0.46340 0.08600
H 	H 	0.19810 0.35603 0.55145 0.09000
H 	H 	0.18889 0.46397 0.56488 0.08500
H 	H 	0.16297 0.42890 0.51793 0.09100
H 	H 	0.15884 0.39567 0.85693 0.10100
H 	H 	0.14575 0.35497 0.81014 0.09000
C 	C 	0.14560 0.17303 0.78483 -0.00600
C 	C 	0.09055 0.19136 0.71901 -0.00700
C 	C 	0.11840 0.13497 0.68959 -0.08600
C 	C 	0.14687 0.14243 0.74120 -0.03100
H 	H 	0.16646 0.17752 0.82721 0.03600
H 	H 	0.06842 0.21000 0.71033 -0.03600
H 	H 	0.16849 0.12334 0.75059 0.02700
C 	C 	0.18270 0.35944 0.11322 0.11900
C 	C 	0.18738 0.39595 0.11398 -0.09300
C 	C 	0.21602 0.40916 0.07796 0.02100
C 	C 	0.23728 0.38694 0.03768 0.11100
C 	C 	0.23297 0.35042 0.03780 -0.08500
C 	C 	0.20645 0.33717 0.07858 0.00900
O 	O 	0.14808 0.34470 0.12005 -0.19500
C 	C 	0.15257 0.31215 0.08402 0.05300
C 	C 	0.18753 0.30712 0.06102 -0.06000
O 	O 	0.24955 0.40208 0.98074 -0.20200
C 	C 	0.23222 0.43472 0.98827 0.10000
C 	C 	0.21339 0.43955 0.04739 -0.09000
H 	H 	0.16660 0.41343 0.13476 0.06600
H 	H 	0.24659 0.33308 0.00098 0.06600
H 	H 	0.19346 0.28900 0.01767 0.05300
H 	H 	0.19068 0.45788 0.05346 0.05900
C 	C 	0.00804 0.94075 0.29244 -0.06200
C 	C 	0.03994 0.95677 0.27222 -0.09200
C 	C 	0.07391 0.93902 0.27634 -0.01600
C 	C 	0.07588 0.90562 0.30167 0.00500
C 	C 	0.04405 0.89023 0.32443 -0.11700
C 	C 	0.01019 0.90811 0.32013 -0.01200
H 	H 	0.98164 0.95375 0.28711 0.03400
H 	H 	0.10222 0.89206 0.30492 0.03900
H 	H 	0.98564 0.89701 0.33909 -0.05200
C 	C 	0.05936 0.18596 0.13538 0.11800
C 	C 	0.07912 0.21516 0.16706 -0.09100
C 	C 	0.06053 0.24737 0.17395 0.02300
C 	C 	0.02269 0.24957 0.15991 0.12100
C 	C 	0.00230 0.21960 0.13413 -0.10100
C 	C 	0.02185 0.18864 0.11766 0.01500
O 	O 	0.07105 0.15180 0.14391 -0.19200
C 	C 	0.03691 0.13435 0.13221 0.05700
C 	C 	0.00753 0.15615 0.11627 -0.07200
O 	O 	0.00646 0.27808 0.19473 -0.20600
C 	C 	0.03814 0.29202 0.23218 0.10000
C 	C 	0.07041 0.27406 0.22018 -0.08000
H 	H 	0.10723 0.21237 0.18905 0.07300
H 	H 	0.97224 0.21981 0.13103 0.05700
H 	H 	0.97883 0.15054 0.12459 0.05300
H 	H 	0.09543 0.27524 0.25429 0.06400
C 	C 	0.44094 0.88296 0.39951 -0.00500
N 	N 	0.42741 0.93149 0.51642 -0.19400
C 	C 	0.43781 0.84838 0.41838 -0.08600
C 	C 	0.41241 0.82469 0.38201 0.10200
C 	C 	0.38883 0.83640 0.32743 -0.04800
C 	C 	0.39207 0.87096 0.30856 -0.05200
C 	C 	0.41809 0.89432 0.34360 0.07200
N 	N 	0.41164 0.79064 0.39833 -0.19900
H 	H 	0.37398 0.87982 0.26671 0.04900
N 	N 	0.42107 0.92751 0.32321 -0.19400
H 	H 	0.39571 0.77162 0.36832 0.09400
H 	H 	0.40386 0.93565 0.28219 0.08400
H 	H 	0.44055 0.94548 0.34717 0.09100
H 	H 	0.41976 0.95199 0.55112 0.08800
H 	H 	0.40967 0.90977 0.50696 0.09200
C 	C 	0.45483 0.02550 0.70577 -0.08600
C 	C 	0.42335 0.01562 0.73790 -0.00700
H 	H 	0.45980 0.01361 0.65503 0.05200
C 	C 	0.39860 0.98778 0.70304 -0.00600
C 	C 	0.40951 0.95257 0.70453 -0.08900
C 	C 	0.38468 0.92531 0.68081 0.10100
C 	C 	0.34765 0.93351 0.65965 -0.05200
C 	C 	0.33788 0.96866 0.65176 -0.05500
C 	C 	0.36336 0.99596 0.67210 0.07000
H 	H 	0.43726 0.94637 0.72474 0.05500
N 	N 	0.39668 0.89147 0.67694 -0.19900
H 	H 	0.30994 0.97490 0.63262 0.05100
N 	N 	0.35367 0.02983 0.66288 -0.19500
H 	H 	0.42368 0.88545 0.69498 0.08500
H 	H 	0.38002 0.87114 0.65276 0.09200
H 	H 	0.32717 0.03572 0.64200 0.08500
H 	H 	0.37260 0.05049 0.67438 0.08900
H 	H 	0.36896 0.00110 0.81683 0.08900
H 	H 	0.51708 0.04478 0.66074 0.09300
C 	C 	0.94341 0.13023 0.44828 -0.00300
C 	C 	0.97190 0.10521 0.44949 -0.10100
C 	C 	0.97426 0.08201 0.50213 0.00700
C 	C 	0.94472 0.07916 0.54382 -0.02300
C 	C 	0.91335 0.10031 0.53459 -0.08400
C 	C 	0.91399 0.12757 0.49039 -0.02700
H 	H 	0.94237 0.14970 0.41056 0.03500
H 	H 	0.99716 0.06382 0.50631 -0.03700
H 	H 	0.94472 0.05836 0.57865 0.05100
H 	H 	0.89040 0.14492 0.48478 0.03200
C 	C 	0.88990 0.92147 0.54773 -0.02200
C 	C 	0.94609 0.89231 0.51243 -0.06900
H 	H 	0.86055 0.92014 0.55561 0.00500
H 	H 	0.89401 0.86581 0.52246 0.01900
C 	C 	0.90683 0.12425 0.76852 -0.07200
C 	C 	0.93066 0.14544 0.73524 -0.01800
C 	C 	0.96319 0.13130 0.70933 -0.01600
C 	C 	0.97177 0.09567 0.71515 -0.05700
C 	C 	0.94679 0.07402 0.74466 -0.03100
H 	H 	0.92487 0.17317 0.73212 0.00700
H 	H 	0.98224 0.14828 0.68663 0.01500
C 	C 	0.91381 0.26964 0.84297 -0.01600
C 	C 	0.89031 0.25571 0.88846 -0.11000
C 	C 	0.90259 0.25424 0.95808 -0.03300
C 	C 	0.93912 0.26338 0.98043 -0.01900
C 	C 	0.96363 0.27420 0.93341 -0.09500
C 	C 	0.95026 0.27901 0.86546 -0.04800
H 	H 	0.90447 0.27167 0.78950 0.02700
H 	H 	0.88429 0.24464 0.99428 -0.02600
H 	H 	0.94878 0.26035 0.03339 0.03600
H 	H 	0.96867 0.28837 0.82918 -0.01700
H 	H 	0.61510 0.25352 0.86872 0.06700
H 	H 	0.68568 0.25807 0.84891 0.06200
C 	C 	0.88428 0.56651 0.29525 -0.04800
C 	C 	0.88458 0.50386 0.25979 -0.08600
C 	C 	0.92135 0.50149 0.28713 -0.00500
C 	C 	0.92143 0.56428 0.32063 -0.05200
N 	N 	0.82834 0.53638 0.24719 -0.19900
H 	H 	0.87036 0.48040 0.23654 0.05500
C 	C 	0.93955 0.46670 0.28590 -0.00400
N 	N 	0.97568 0.53045 0.34506 -0.19400
H 	H 	0.93594 0.58781 0.34280 0.05200
C 	C 	0.96319 0.45733 0.23358 -0.08700
C 	C 	0.98686 0.42827 0.23834 0.10800
C 	C 	0.98538 0.40732 0.29508 -0.04100
C 	C 	0.95945 0.41503 0.34420 -0.05300
C 	C 	0.93665 0.44468 0.34053 0.07100
N 	N 	0.01160 0.42139 0.18961 -0.20400
H 	H 	0.95788 0.39852 0.38680 0.05000
N 	N 	0.91255 0.45217 0.39013 -0.19400
H 	H 	0.01225 0.43694 0.14785 0.08600
H 	H 	0.03070 0.40098 0.19291 0.10000
H 	H 	0.91113 0.43609 0.43095 0.08400
H 	H 	0.89469 0.47363 0.38836 0.08900
H 	H 	0.98919 0.55316 0.36749 0.08800
H 	H 	0.81503 0.51401 0.22278 0.08600
C 	C 	0.02069 0.62547 0.88521 0.09600
C 	C 	0.05134 0.60290 0.88434 -0.08400
C 	C 	0.08742 0.61606 0.90015 -0.00500
C 	C 	0.09327 0.65267 0.91430 0.07100
N 	N 	0.98579 0.61161 0.87715 -0.19500
H 	H 	0.04700 0.57481 0.87384 0.05400
C 	C 	0.11870 0.59104 0.90282 -0.00500
H 	H 	0.06722 0.70358 0.92106 0.05200
C 	C 	0.14049 0.58630 0.84619 -0.08700
C 	C 	0.16697 0.55943 0.84296 0.10200
C 	C 	0.16951 0.53527 0.89466 -0.05100
C 	C 	0.14977 0.54167 0.95374 -0.05300
C 	C 	0.12482 0.56979 0.95885 0.07200
H 	H 	0.13679 0.60354 0.80456 0.05600
N 	N 	0.19040 0.55744 0.79122 -0.19900
H 	H 	0.15269 0.52393 0.99464 0.05000
N 	N 	0.10675 0.57614 0.01736 -0.19500
H 	H 	0.18722 0.57427 0.75141 0.08600
H 	H 	0.21319 0.54059 0.79212 0.09300
H 	H 	0.11051 0.55961 0.05759 0.08400
H 	H 	0.08982 0.59811 0.02447 0.08900
H 	H 	0.15101 0.64982 0.93651 0.08900
H 	H 	0.96251 0.62696 0.88645 0.09300
H 	H 	0.98176 0.58465 0.86504 0.08800
C 	C 	0.91873 0.71282 0.77450 -0.05000
C 	C 	0.90111 0.68180 0.74393 0.10200
C 	C 	0.88757 0.68042 0.67465 -0.08600
C 	C 	0.88949 0.71009 0.63677 -0.00400
C 	C 	0.90209 0.74254 0.67039 0.06800
C 	C 	0.91733 0.74346 0.73883 -0.05300
N 	N 	0.89685 0.65346 0.78102 -0.19900
H 	H 	0.87620 0.65599 0.64973 0.05600
C 	C 	0.88157 0.70587 0.56096 -0.00800
N 	N 	0.90032 0.77259 0.63701 -0.19400
H 	H 	0.92952 0.76766 0.76322 0.05100
C 	C 	0.84452 0.70460 0.53406 -0.08600
C 	C 	0.83530 0.69088 0.46608 0.09900
C 	C 	0.86390 0.67854 0.42443 -0.04600
C 	C 	0.90107 0.68353 0.44908 -0.05100
C 	C 	0.91025 0.69716 0.51690 0.07900
H 	H 	0.82264 0.71251 0.56722 0.04900
N 	N 	0.79904 0.68884 0.44202 -0.20000
H 	H 	0.92299 0.67541 0.41615 0.05300
N 	N 	0.94656 0.70113 0.53974 -0.19200
H 	H 	0.77816 0.69753 0.47361 0.08000
H 	H 	0.79117 0.67917 0.39174 0.09300
H 	H 	0.96753 0.69388 0.50725 0.09600
H 	H 	0.95440 0.71219 0.58912 0.09700
H 	H 	0.91110 0.79616 0.66114 0.08200
H 	H 	0.88706 0.77309 0.58786 0.08200
C 	C 	0.00508 0.08578 0.97736 -0.04000
C 	C 	0.96693 0.08884 0.98650 -0.05200
C 	C 	0.94919 0.12105 0.97634 -0.02200
C 	C 	0.96900 0.14943 0.95516 -0.01400
C 	C 	0.00696 0.14624 0.94532 -0.08800
C 	C 	0.02500 0.11435 0.95672 -0.00400
H 	H 	0.91991 0.12393 0.98398 -0.03300
H 	H 	0.95488 0.17401 0.94706 -0.02900
H 	H 	0.01854 0.03532 0.80298 -0.04900
C 	C 	0.91378 0.80949 0.13210 -0.09200
C 	C 	0.97501 0.79313 0.09727 0.10200
O 	O 	0.99098 0.77593 0.04143 -0.19900
C 	C 	0.95950 0.75885 0.00947 0.09600
H 	H 	0.88396 0.80595 0.12468 0.06600
H 	H 	0.89984 0.75912 0.02247 0.05800
C 	C 	0.91208 0.98434 0.30953 -0.11300
H 	H 	0.93944 0.95854 0.39372 0.00400
C 	C 	0.80385 0.68778 0.09392 0.11200
C 	C 	0.80449 0.71712 0.05493 -0.08700
C 	C 	0.77083 0.73398 0.03789 0.00800
C 	C 	0.73812 0.72392 0.06393 0.11700
C 	C 	0.77063 0.67611 0.11528 0.02000
O 	O 	0.83486 0.67800 0.13431 -0.20800
C 	C 	0.81694 0.66005 0.18225 0.09900
C 	C 	0.77895 0.65864 0.17155 -0.09000
H 	H 	0.83075 0.72884 0.04501 0.06300
H 	H 	0.71343 0.68937 0.13111 0.06700
C 	C 	0.03843 0.99353 0.25527 0.29900
O 	O 	0.02886 0.00161 0.19256 -0.29800
C 	C 	0.11586 0.19634 0.77692 -0.10000
C 	C 	0.09178 0.16070 0.67553 -0.02000
H 	H 	0.07028 0.15574 0.63441 0.03800
H 	H 	0.09885 0.95135 0.26144 0.04100
C 	C 	0.90887 0.89066 0.52875 -0.02000
C 	C 	0.86528 0.53579 0.26616 0.10100
C 	C 	0.94002 0.53199 0.31788 0.07300
H 	H 	0.96472 0.47389 0.19106 0.05800
H 	H 	0.99030 0.50685 0.34466 0.09200
H 	H 	0.81207 0.55821 0.25989 0.09300
C 	C 	0.02661 0.66222 0.89716 -0.05500
C 	C 	0.06279 0.67545 0.91146 -0.05000
N 	N 	0.12790 0.66607 0.93144 -0.19400
H 	H 	0.13194 0.69319 0.94102 0.08600
H 	H 	0.90306 0.65500 0.83420 0.09100
H 	H 	0.88543 0.63003 0.75736 0.08600
H 	H 	0.01907 0.06105 0.98435 0.03000
H 	H 	0.05437 0.11167 0.94957 -0.00400
C 	C 	0.93780 0.78546 0.10032 0.01200
C 	C 	0.92794 0.76372 0.04455 -0.08200
C 	C 	0.91660 0.95749 0.35469 -0.02500
C 	C 	0.73766 0.69483 0.10381 -0.09200
H 	H 	0.76008 0.65451 0.21105 0.05600
Cd	Cd	0.77495 0.84660 0.21556 1.24100
O 	O 	0.72175 0.81113 0.16372 -0.30100
O 	O 	0.76078 0.83566 0.10106 -0.34900
C 	C 	0.73455 0.81240 0.10326 0.23900
C 	C 	0.73400 0.89996 0.28541 0.29100
O 	O 	0.78589 0.81055 0.32576 -0.45900
O 	O 	0.73054 0.90256 0.21878 -0.29600
O 	O 	0.74863 0.87092 0.30434 -0.54300
C 	C 	0.81308 0.79498 0.29516 0.29800
O 	O 	0.81653 0.80196 0.23162 -0.37000
Cd	Cd	0.92486 0.98360 0.05159 1.24000
Cd	Cd	0.89764 0.00717 0.88184 1.17000
O 	O 	0.90575 0.92478 0.07810 -0.30500
O 	O 	0.94344 0.95724 0.14999 -0.34300
C 	C 	0.92534 0.92766 0.13642 0.24900
O 	O 	0.95392 0.03559 0.04261 -0.37300
O 	O 	0.91228 0.05310 0.95774 -0.42400
C 	C 	0.94431 0.05714 0.99410 0.27500
C 	C 	0.96648 0.95836 0.93978 0.30100
O 	O 	0.86438 0.99004 0.97118 -0.45000
O 	O 	0.98381 0.95264 0.99875 -0.29100
O 	O 	0.93263 0.96921 0.94341 -0.53900
C 	C 	0.85157 0.01089 0.01997 0.29300
O 	O 	0.87136 0.01285 0.07871 -0.36900
Cd	Cd	0.80199 0.18498 0.81983 1.24000
O 	O 	0.74885 0.22390 0.84048 -0.31500
O 	O 	0.75753 0.19948 0.73726 -0.33800
C 	C 	0.73710 0.21962 0.77596 0.24000
O 	O 	0.84884 0.15607 0.77087 -0.38200
O 	O 	0.87246 0.13304 0.86991 -0.42400
C 	C 	0.87600 0.14033 0.80568 0.27500
O 	O 	0.80523 0.16197 0.94363 -0.45400
C 	C 	0.78982 0.13286 0.91641 0.29100
O 	O 	0.77832 0.13275 0.85151 -0.35900
Cd	Cd	0.82550 0.04037 0.60470 1.23600
Cd	Cd	0.85042 0.03155 0.43128 1.17300
O 	O 	0.77675 0.08257 0.63369 -0.31600
O 	O 	0.79964 0.04677 0.70853 -0.36400
C 	C 	0.77620 0.07166 0.69503 0.24400
O 	O 	0.86386 0.99426 0.60125 -0.40800
O 	O 	0.89276 0.01010 0.50704 -0.43100
C 	C 	0.88595 0.98667 0.55094 0.28100
C 	C 	0.77891 0.99991 0.50448 0.29800
O 	O 	0.77070 0.99451 0.56694 -0.31300
O 	O 	0.80262 0.02506 0.49974 -0.53700
C 	C 	0.53483 0.14362 0.84485 0.09400
N 	N 	0.51098 0.11968 0.81078 -0.13600
C 	C 	0.49994 0.09132 0.84249 0.12800
N 	N 	0.51168 0.08768 0.90915 -0.14300
C 	C 	0.53551 0.11157 0.94340 0.13000
N 	N 	0.54680 0.13971 0.91134 -0.12800
C 	C 	0.57038 0.04257 0.54577 0.08900
N 	N 	0.55316 0.01071 0.54094 -0.14200
C 	C 	0.53876 0.99651 0.47907 0.13000
N 	N 	0.54143 0.01421 0.42190 -0.14300
C 	C 	0.55835 0.04615 0.42642 0.12700
N 	N 	0.57222 0.06068 0.48868 -0.12800
O 	O 	0.94179 0.84682 0.42030 -0.42300
O 	O 	0.97075 0.78124 0.34494 -0.44500
C 	C 	0.95421 0.76610 0.39213 0.28900
O 	O 	0.97222 0.76685 0.45261 -0.35600
C 	C 	0.51867 0.96280 0.47429 -0.05400
C 	C 	0.53020 0.93397 0.43120 0.10100
C 	C 	0.50538 0.90612 0.41175 -0.08700
C 	C 	0.46971 0.90644 0.43584 -0.00600
C 	C 	0.46028 0.93273 0.48665 0.07000
C 	C 	0.48483 0.96097 0.50499 -0.05300
N 	N 	0.56498 0.93291 0.40854 -0.19900
H 	H 	0.51317 0.88501 0.37527 0.05500
H 	H 	0.47675 0.98241 0.54046 0.04600
H 	H 	0.45574 0.83966 0.46057 0.05300
H 	H 	0.42829 0.78256 0.44010 0.08500
H 	H 	0.58494 0.95186 0.42650 0.09200
H 	H 	0.57286 0.91215 0.37464 0.08500
C 	C 	0.47400 0.06518 0.80569 -0.05000
C 	C 	0.48106 0.04901 0.74010 0.10200
C 	C 	0.41696 0.03072 0.80460 0.07100
C 	C 	0.44193 0.05600 0.83703 -0.05300
N 	N 	0.51348 0.05470 0.71115 -0.20000
N 	N 	0.38725 0.02084 0.83802 -0.19400
H 	H 	0.43658 0.06826 0.88730 0.05100
H 	H 	0.38251 0.03256 0.88674 0.08400
H 	H 	0.53614 0.06681 0.73954 0.09700
C 	C 	0.54816 0.10749 0.01604 -0.05000
C 	C 	0.56005 0.07448 0.03775 0.10100
C 	C 	0.56315 0.06923 0.10829 -0.08500
C 	C 	0.55771 0.09714 0.15747 -0.00500
C 	C 	0.55073 0.13131 0.13589 0.07100
C 	C 	0.54504 0.13598 0.06521 -0.05300
N 	N 	0.56982 0.04825 0.99145 -0.19600
H 	H 	0.57011 0.04341 0.12501 0.05600
C 	C 	0.55800 0.08986 0.23112 -0.00500
N 	N 	0.54894 0.15949 0.18256 -0.19400
H 	H 	0.53727 0.16162 0.04859 0.05400
C 	C 	0.59199 0.08324 0.26691 -0.08600
C 	C 	0.59308 0.07050 0.33272 0.10100
C 	C 	0.55944 0.06578 0.36434 -0.04700
C 	C 	0.52573 0.07519 0.33078 -0.05200
C 	C 	0.52448 0.08627 0.26371 0.07200
H 	H 	0.61762 0.08654 0.24221 0.05500
N 	N 	0.62633 0.06200 0.36418 -0.19900
H 	H 	0.50008 0.07204 0.35553 0.05000
N 	N 	0.49104 0.09256 0.23046 -0.19400
H 	H 	0.65092 0.06550 0.34019 0.08600
H 	H 	0.62823 0.05173 0.41231 0.09800
H 	H 	0.46654 0.09008 0.25526 0.08400
H 	H 	0.48886 0.09953 0.17970 0.09000
H 	H 	0.54270 0.18443 0.16625 0.08700
H 	H 	0.55469 0.15715 0.23516 0.09000
H 	H 	0.57309 0.05292 0.94019 0.09500
H 	H 	0.57663 0.02338 0.00745 0.08600
C 	C 	0.94621 0.95539 0.54140 -0.00900
C 	C 	0.90797 0.95415 0.55057 -0.08500
H 	H 	0.96067 0.98044 0.54487 0.01300
C 	C 	0.68847 0.06332 0.75199 0.11700
C 	C 	0.65739 0.04131 0.73757 -0.09200
C 	C 	0.62547 0.05483 0.70410 0.01800
C 	C 	0.62555 0.08794 0.67980 0.11100
C 	C 	0.65654 0.10996 0.69456 -0.08800
C 	C 	0.68707 0.09776 0.73418 0.01800
O 	O 	0.72410 0.04957 0.75591 -0.19600
C 	C 	0.74365 0.07795 0.73482 0.05400
C 	C 	0.72209 0.10720 0.72532 -0.05900
O 	O 	0.60188 0.09109 0.62132 -0.20800
C 	C 	0.58827 0.05671 0.61202 0.09500
C 	C 	0.60175 0.03511 0.66137 -0.09200
H 	H 	0.65956 0.01347 0.74472 0.06500
H 	H 	0.65911 0.13343 0.66740 0.07500
H 	H 	0.72929 0.12801 0.69359 0.06800
H 	H 	0.60298 0.00668 0.65368 0.06000
C 	C 	0.91481 0.08834 0.77233 0.00200
H 	H 	0.89655 0.07164 0.79752 -0.02200
H 	H 	0.95274 0.04638 0.74838 0.01000
C 	C 	0.64322 0.21806 0.71639 0.11700
C 	C 	0.61313 0.19539 0.69646 -0.09400
C 	C 	0.58240 0.19655 0.73686 0.02400
C 	C 	0.58278 0.21730 0.79802 0.11300
C 	C 	0.61272 0.24008 0.81768 -0.08600
C 	C 	0.64181 0.24142 0.77379 0.01100
O 	O 	0.67914 0.20967 0.69938 -0.19200
C 	C 	0.69909 0.22940 0.75288 0.05400
C 	C 	0.67707 0.24891 0.79628 -0.06200
O 	O 	0.56115 0.20414 0.84648 -0.20400
C 	C 	0.54845 0.17321 0.80946 0.10100
C 	C 	0.56065 0.16861 0.74400 -0.08900
H 	H 	0.61456 0.17599 0.65337 0.07200
H 	H 	0.56305 0.14323 0.71566 0.06800
C 	C 	0.82516 0.07042 0.04494 -0.00600
C 	C 	0.82548 0.03897 0.00267 -0.09300
C 	C 	0.80576 0.03699 0.93798 -0.02100
C 	C 	0.79100 0.06736 0.91161 -0.01500
C 	C 	0.79538 0.09984 0.95015 -0.08100
C 	C 	0.81011 0.10075 0.01876 -0.03400
H 	H 	0.83866 0.07196 0.09638 0.03000
H 	H 	0.80408 0.01241 0.90622 0.01600
H 	H 	0.77824 0.06593 0.85986 0.05600
H 	H 	0.81188 0.12535 0.05045 0.00800
C 	C 	0.99141 0.00036 0.86424 -0.03100
C 	C 	0.98750 0.96564 0.88128 -0.10400
C 	C 	0.00673 0.93861 0.84660 -0.02000
C 	C 	0.02916 0.94634 0.79408 -0.00100
C 	C 	0.03352 0.98129 0.77808 -0.12100
C 	C 	0.01523 0.00829 0.81459 -0.03000
H 	H 	0.00412 0.91170 0.85995 0.03500
H 	H 	0.04303 0.92526 0.76581 0.03300
C 	C 	0.92887 0.84051 0.16624 0.04800
C 	C 	0.98981 0.82470 0.12909 -0.07000
C 	C 	0.96640 0.84751 0.16559 -0.06800
O 	O 	0.90750 0.87051 0.17484 -0.20400
C 	C 	0.97013 0.88271 0.17001 -0.07300
H 	H 	0.01760 0.83291 0.11958 0.05400
H 	H 	0.99300 0.89624 0.14991 0.06600
C 	C 	0.85882 0.95313 0.25122 -0.02600
C 	C 	0.86397 0.92585 0.29556 -0.08000
C 	C 	0.88282 0.98226 0.25819 -0.02700
H 	H 	0.83630 0.95182 0.21148 0.04400
H 	H 	0.89768 0.90738 0.38134 0.02600
H 	H 	0.87874 0.00302 0.22356 0.03100
C 	C 	0.72127 0.93080 0.39710 -0.05200
C 	C 	0.73665 0.93149 0.33330 -0.10100
C 	C 	0.76197 0.95824 0.32301 -0.04000
C 	C 	0.77472 0.98173 0.37811 0.00200
C 	C 	0.76182 0.97890 0.44374 -0.12500
C 	C 	0.73371 0.95440 0.45203 -0.01400
H 	H 	0.70133 0.91056 0.40534 0.01600
H 	H 	0.77368 0.95932 0.27361 0.03500
H 	H 	0.79542 0.00124 0.37014 -0.07200
H 	H 	0.72247 0.95270 0.50170 0.03100
C 	C 	0.86306 0.75060 0.29723 0.00200
C 	C 	0.84229 0.77604 0.33313 -0.10200
C 	C 	0.85491 0.78851 0.40020 0.00300
C 	C 	0.89074 0.78031 0.42579 -0.02700
C 	C 	0.91404 0.76015 0.38386 -0.08100
C 	C 	0.89888 0.74265 0.32260 -0.02200
H 	H 	0.85274 0.73930 0.24692 0.04900
H 	H 	0.83848 0.80707 0.42981 -0.03700
H 	H 	0.90169 0.79279 0.47466 0.04100
H 	H 	0.91604 0.72549 0.29150 0.04200
C 	C 	0.73541 0.77950 0.05891 0.05000
C 	C 	0.76851 0.76886 0.03240 -0.06200
H 	H 	0.79269 0.78580 0.03290 0.05800
Cd	Cd	0.78880 0.86214 0.39702 1.16300
O 	O 	0.82108 0.88572 0.22918 -0.37900
O 	O 	0.83857 0.87434 0.34009 -0.44200
C 	C 	0.83830 0.89540 0.28950 0.27400
C 	C 	0.96521 0.92453 0.52243 -0.02500
H 	H 	0.99403 0.92610 0.51070 0.02600
H 	H 	0.97623 0.02125 0.88985 -0.01900
C 	C 	0.93480 0.89625 0.17221 0.03000
C 	C 	0.89302 0.92831 0.34733 -0.04300
O 	O 	0.71329 0.75134 0.07357 -0.19000
