data_crystal

_cell_length_a 33.19143
_cell_length_b 33.44711
_cell_length_c 26.21191
_cell_angle_alpha 90.58222
_cell_angle_beta  89.33483
_cell_angle_gamma 120.09368

_symmetry_space_group_name_	'P 1'
_symmetry_space_group_name_H-M	'P 1'

loop_
_symmetry_equiv_pos_as_xyz
  x,y,z

loop_
_atom_site_label
_atom_site_type_symbol
_atom_site_fract_x
_atom_site_fract_y
_atom_site_fract_z
_atom_site_charge
O 	O 	0.35345 0.21598 0.02620 -0.41500
C 	C 	0.36695 0.25387 0.99876 0.28500
O 	O 	0.35599 0.22793 0.56941 -0.40500
C 	C 	0.36393 0.26069 0.53582 0.28400
Ni	Ni	0.20795 0.78274 0.91671 1.09800
O 	O 	0.24746 0.85325 0.91324 -0.70300
Ni	Ni	0.24476 0.86966 0.98683 1.10000
O 	O 	0.20804 0.77291 0.83956 -0.37800
O 	O 	0.19336 0.82983 0.81701 -0.41000
O 	O 	0.26855 0.77970 0.91694 -0.37800
Ni	Ni	0.21968 0.88182 0.87177 1.06500
O 	O 	0.22122 0.71633 0.98541 -0.41000
O 	O 	0.15579 0.84690 0.90577 -0.40800
O 	O 	0.28478 0.93903 0.97898 -0.38500
O 	O 	0.20496 0.79925 0.98994 -0.70600
O 	O 	0.16975 0.71322 0.92608 -0.39700
O 	O 	0.24205 0.87828 0.06390 -0.37400
O 	O 	0.26095 0.82401 0.08527 -0.41400
Ni	Ni	0.23575 0.77280 0.02960 1.06200
H 	H 	0.27990 0.86434 0.90200 0.14700
H 	H 	0.17273 0.78774 0.00218 0.15000
C 	C 	0.15029 0.84830 0.95513 0.28600
O 	O 	0.29794 0.81217 0.99424 -0.41900
C 	C 	0.21197 0.80407 0.80683 0.28500
C 	C 	0.27791 0.96059 0.94144 0.28000
C 	C 	0.30441 0.80616 0.94608 0.28400
C 	C 	0.24175 0.84899 0.09697 0.28500
C 	C 	0.18343 0.69219 0.95765 0.29000
O 	O 	0.18580 0.87508 0.98423 -0.37800
O 	O 	0.23894 0.93961 0.91507 -0.41200
Ni	Ni	0.21714 0.79448 0.40331 1.09700
O 	O 	0.24928 0.86294 0.42359 -0.70300
Ni	Ni	0.24678 0.85820 0.50022 1.09800
O 	O 	0.21606 0.80663 0.32713 -0.37200
O 	O 	0.18887 0.85652 0.33684 -0.41600
O 	O 	0.28162 0.80117 0.38853 -0.37400
Ni	Ni	0.21315 0.89240 0.40487 1.06300
O 	O 	0.24058 0.72141 0.43675 -0.41300
O 	O 	0.15356 0.84131 0.43726 -0.42000
O 	O 	0.28000 0.92704 0.51488 -0.38700
O 	O 	0.21352 0.78964 0.48020 -0.70300
O 	O 	0.18636 0.72543 0.38814 -0.38400
O 	O 	0.24771 0.84673 0.57663 -0.37500
O 	O 	0.27272 0.79490 0.56951 -0.41800
Ni	Ni	0.25119 0.76187 0.49960 1.06300
H 	H 	0.28177 0.88102 0.41096 0.14800
H 	H 	0.18095 0.77140 0.49231 0.14900
C 	C 	0.14822 0.83676 0.48680 0.28800
O 	O 	0.30891 0.81638 0.46971 -0.43000
C 	C 	0.21223 0.84138 0.31035 0.28500
C 	C 	0.26767 0.95391 0.49171 0.28300
C 	C 	0.31675 0.81984 0.42055 0.28900
C 	C 	0.25044 0.81183 0.59494 0.28700
C 	C 	0.20101 0.70070 0.41178 0.28500
O 	O 	0.18467 0.85572 0.51665 -0.37600
O 	O 	0.22825 0.93577 0.46612 -0.41800
Ni	Ni	0.24086 0.40753 0.00399 1.10200
O 	O 	0.21427 0.45080 0.99974 -0.70300
Ni	Ni	0.23503 0.47573 0.92991 1.09900
O 	O 	0.24238 0.40766 0.08166 -0.38200
O 	O 	0.28229 0.48622 0.08113 -0.41900
O 	O 	0.17446 0.35051 0.00595 -0.37800
Ni	Ni	0.23807 0.50413 0.04559 1.07400
O 	O 	0.21773 0.32293 0.93452 -0.41400
O 	O 	0.29229 0.55870 0.00785 -0.39800
O 	O 	0.22239 0.52990 0.93259 -0.38600
O 	O 	0.25172 0.42473 0.93074 -0.70600
O 	O 	0.26605 0.36384 0.00116 -0.39200
O 	O 	0.24923 0.48558 0.85391 -0.38200
O 	O 	0.19967 0.40898 0.83708 -0.41300
Ni	Ni	0.21139 0.37028 0.89071 1.06400
H 	H 	0.17984 0.43368 0.00118 0.15400
H 	H 	0.28474 0.43625 0.92150 0.15500
C 	C 	0.31996 0.55474 0.97461 0.31000
O 	O 	0.15185 0.35878 0.92658 -0.41800
C 	C 	0.26465 0.44708 0.10625 0.28500
C 	C 	0.19483 0.53419 0.96663 0.28900
C 	C 	0.14147 0.34276 0.97319 0.29400
C 	C 	0.23218 0.45044 0.82201 0.28000
C 	C 	0.25366 0.33267 0.96449 0.28300
O 	O 	0.30434 0.51857 0.94458 -0.40400
O 	O 	0.19333 0.52175 0.01490 -0.41700
Ni	Ni	0.22777 0.41329 0.51363 1.10100
O 	O 	0.20148 0.45364 0.49051 -0.70700
Ni	Ni	0.22769 0.46953 0.42017 1.09800
O 	O 	0.22212 0.42428 0.58925 -0.38400
O 	O 	0.26219 0.50223 0.57664 -0.42400
O 	O 	0.16165 0.35577 0.51532 -0.37200
Ni	Ni	0.22018 0.51180 0.52599 1.06800
O 	O 	0.21186 0.32196 0.46449 -0.40400
O 	O 	0.27718 0.56158 0.48649 -0.40100
O 	O 	0.21461 0.52222 0.40324 -0.38700
O 	O 	0.24468 0.42085 0.43987 -0.70500
O 	O 	0.25330 0.37115 0.52996 -0.38300
O 	O 	0.24863 0.46915 0.34707 -0.38300
O 	O 	0.20073 0.39079 0.34027 -0.41300
Ni	Ni	0.20851 0.36126 0.40655 1.06500
H 	H 	0.16711 0.43575 0.48862 0.15400
H 	H 	0.27837 0.43213 0.43556 0.15500
C 	C 	0.30824 0.55424 0.46350 0.30500
O 	O 	0.14578 0.35193 0.43018 -0.41700
C 	C 	0.24405 0.46655 0.60749 0.28200
C 	C 	0.18722 0.53291 0.43047 0.29000
C 	C 	0.13146 0.34292 0.47775 0.28600
C 	C 	0.23363 0.43041 0.32123 0.28000
C 	C 	0.24629 0.33754 0.49802 0.27800
O 	O 	0.29549 0.51572 0.43840 -0.40000
O 	O 	0.17737 0.52081 0.47904 -0.42400
C 	C 	0.20332 0.46299 0.74127 -0.03200
C 	C 	0.23823 0.46027 0.76770 -0.09300
C 	C 	0.27921 0.46828 0.74218 0.06400
C 	C 	0.28276 0.47483 0.68933 -0.03200
C 	C 	0.24611 0.47375 0.66232 -0.09700
C 	C 	0.20744 0.47069 0.68871 0.06600
C 	C 	0.16907 0.47251 0.66042 -0.17900
H 	H 	0.17266 0.45847 0.76159 0.04100
H 	H 	0.31292 0.47832 0.66881 0.03600
C 	C 	0.31820 0.46791 0.77080 -0.18500
H 	H 	0.14636 0.47874 0.68686 0.05600
H 	H 	0.14732 0.43925 0.64014 0.05600
H 	H 	0.18403 0.50108 0.63228 0.02000
H 	H 	0.30565 0.43327 0.78766 0.04100
H 	H 	0.33061 0.49424 0.80175 0.06300
H 	H 	0.34836 0.47595 0.74545 0.05800
C 	C 	0.22316 0.45602 0.23754 -0.02900
C 	C 	0.24133 0.43381 0.26633 -0.09100
C 	C 	0.26971 0.41854 0.24299 0.06500
C 	C 	0.27925 0.42554 0.19065 -0.03100
C 	C 	0.26053 0.44722 0.16165 -0.09600
C 	C 	0.23215 0.46254 0.18522 0.06300
C 	C 	0.21089 0.48527 0.15466 -0.17500
H 	H 	0.20188 0.46821 0.25606 0.03800
H 	H 	0.30047 0.41328 0.17216 0.03700
C 	C 	0.28994 0.39502 0.27379 -0.18300
H 	H 	0.18683 0.49197 0.17823 0.05300
H 	H 	0.19051 0.46260 0.12240 0.00700
H 	H 	0.23877 0.51894 0.13978 0.01000
H 	H 	0.26144 0.36309 0.29134 0.04000
H 	H 	0.31245 0.41861 0.30438 0.05000
H 	H 	0.31143 0.38515 0.24980 0.05600
C 	C 	0.06649 0.27630 0.52328 -0.04400
C 	C 	0.08101 0.31287 0.48867 -0.08700
C 	C 	0.04716 0.31847 0.46225 0.06600
C 	C 	0.01888 0.24442 0.53073 0.08200
H 	H 	0.09232 0.27187 0.54347 0.05300
C 	C 	0.06115 0.35908 0.42739 -0.18300
H 	H 	0.03401 0.19836 0.57394 0.06600
H 	H 	0.07319 0.35267 0.39012 0.07200
H 	H 	0.08925 0.39137 0.44472 0.05200
H 	H 	0.03140 0.36467 0.42031 0.05100
C 	C 	0.06541 0.33362 0.99996 -0.02700
C 	C 	0.09217 0.31310 0.98780 -0.09600
C 	C 	0.07064 0.26445 0.98467 0.07900
C 	C 	0.02219 0.23714 0.99175 -0.03700
C 	C 	0.01711 0.30635 0.00794 0.06400
H 	H 	0.08205 0.37097 0.00229 0.02400
C 	C 	0.09886 0.24165 0.97196 -0.19400
H 	H 	0.12752 0.25269 0.99976 0.08000
H 	H 	0.11379 0.25151 0.93292 0.06800
H 	H 	0.07736 0.20337 0.97348 0.06500
C 	C 	0.34906 0.59734 0.36418 -0.19900
H 	H 	0.34299 0.56242 0.35424 0.08400
H 	H 	0.36753 0.62068 0.33163 0.06500
H 	H 	0.31513 0.59590 0.36919 0.07900
C 	C 	0.35194 0.59951 0.87372 -0.19800
H 	H 	0.31713 0.59498 0.88284 0.08500
H 	H 	0.34805 0.56602 0.86094 0.08100
H 	H 	0.33890 0.76764 0.36128 0.05200
C 	C 	0.20097 0.63676 0.36349 -0.03900
C 	C 	0.17992 0.65121 0.40031 -0.08900
C 	C 	0.14676 0.61844 0.43417 0.05600
C 	C 	0.14325 0.57501 0.43845 -0.03800
C 	C 	0.17221 0.56432 0.40878 -0.09600
C 	C 	0.19500 0.59216 0.36578 0.07800
C 	C 	0.21004 0.57386 0.32117 -0.19100
H 	H 	0.22346 0.66072 0.33450 0.04600
H 	H 	0.12097 0.55124 0.46768 0.03700
C 	C 	0.11890 0.63130 0.46954 -0.18200
H 	H 	0.20865 0.59028 0.28510 0.06100
H 	H 	0.18657 0.53600 0.31659 0.07300
H 	H 	0.24630 0.58154 0.32660 0.07600
H 	H 	0.10773 0.65317 0.44947 0.05500
H 	H 	0.14043 0.65061 0.50292 0.03200
H 	H 	0.08700 0.60002 0.48337 0.05300
C 	C 	0.07041 0.83009 0.48482 -0.04100
C 	C 	0.10129 0.81923 0.50885 -0.09000
C 	C 	0.08486 0.78709 0.54935 0.06400
C 	C 	0.03677 0.75983 0.55776 -0.04300
C 	C 	0.00538 0.76621 0.52831 -0.10200
C 	C 	0.02259 0.80477 0.49563 0.08100
H 	H 	0.08346 0.85736 0.45661 0.04000
H 	H 	0.02374 0.73234 0.58567 0.01300
C 	C 	0.11799 0.78152 0.58347 -0.18800
H 	H 	0.00907 0.85619 0.46306 0.06200
H 	H 	0.14403 0.81544 0.59978 0.08500
H 	H 	0.13586 0.76629 0.56173 0.04600
H 	H 	0.09946 0.75831 0.61610 0.05600
H 	H 	0.32965 0.75537 0.88829 0.05000
C 	C 	0.19005 0.59067 0.90947 -0.04500
C 	C 	0.17397 0.56291 0.95324 -0.08700
C 	C 	0.14493 0.56962 0.98809 0.07400
C 	C 	0.14424 0.61120 0.98680 -0.03900
C 	C 	0.16816 0.64339 0.94814 -0.09500
C 	C 	0.18678 0.63075 0.90637 0.08700
C 	C 	0.20680 0.66180 0.86058 -0.20200
H 	H 	0.20794 0.58294 0.87951 0.05100
H 	H 	0.12682 0.61931 0.01698 0.02300
C 	C 	0.11416 0.53277 0.02566 -0.18900
H 	H 	0.21423 0.64422 0.82873 0.06600
H 	H 	0.23982 0.69336 0.87106 0.08900
H 	H 	0.18166 0.67170 0.84630 0.08600
H 	H 	0.13265 0.53859 0.06241 0.06500
H 	H 	0.10388 0.49777 0.01068 0.06600
H 	H 	0.08161 0.53374 0.03288 0.05900
C 	C 	0.03334 0.80767 0.01868 -0.04100
C 	C 	0.01078 0.76054 0.00630 -0.09700
C 	C 	0.03586 0.74156 0.98264 0.05600
C 	C 	0.08224 0.77072 0.96807 -0.03400
C 	C 	0.10424 0.81830 0.97787 -0.10500
C 	C 	0.08008 0.83692 0.00454 0.07800
C 	C 	0.10339 0.88788 0.01655 -0.19900
H 	H 	0.10099 0.75658 0.94778 0.01500
C 	C 	0.01286 0.69043 0.97154 -0.16300
H 	H 	0.07899 0.89714 0.03539 0.06300
H 	H 	0.11632 0.90827 0.98088 0.07900
H 	H 	0.13302 0.89778 0.04272 0.08000
H 	H 	0.03812 0.68068 0.95620 0.05400
C 	C 	0.26863 0.83111 0.73606 -0.04600
C 	C 	0.22381 0.80016 0.75402 -0.09600
C 	C 	0.18981 0.76815 0.72032 0.08100
C 	C 	0.20030 0.77014 0.66819 -0.04500
C 	C 	0.24394 0.80369 0.64971 -0.09700
C 	C 	0.27919 0.83288 0.68403 0.08200
C 	C 	0.32727 0.86751 0.66499 -0.19600
H 	H 	0.29488 0.85485 0.76245 0.02300
H 	H 	0.17394 0.74677 0.64172 0.02100
C 	C 	0.14196 0.73309 0.73949 -0.19500
H 	H 	0.35223 0.88337 0.69692 0.06000
H 	H 	0.32595 0.89550 0.64401 0.07600
H 	H 	0.34085 0.85037 0.63921 0.07500
H 	H 	0.12394 0.75101 0.75511 0.07600
H 	H 	0.14482 0.71173 0.76982 0.07600
H 	H 	0.12012 0.70941 0.70857 0.05800
C 	C 	0.27352 0.87195 0.18368 -0.03500
C 	C 	0.23545 0.85602 0.15084 -0.09200
C 	C 	0.19087 0.84307 0.17062 0.06600
C 	C 	0.18421 0.84163 0.22358 -0.03500
C 	C 	0.22157 0.85331 0.25645 -0.09800
C 	C 	0.26699 0.87127 0.23650 0.06800
C 	C 	0.30815 0.88712 0.27144 -0.18900
H 	H 	0.30801 0.88340 0.16807 0.04400
H 	H 	0.14957 0.82919 0.23925 0.04300
C 	C 	0.15000 0.82840 0.13553 -0.18900
H 	H 	0.34149 0.90922 0.25092 0.06000
H 	H 	0.30882 0.85665 0.28683 0.07600
H 	H 	0.30599 0.90785 0.30362 0.04300
H 	H 	0.14257 0.79637 0.11469 0.04900
H 	H 	0.15788 0.85614 0.10758 0.07500
H 	H 	0.11805 0.82150 0.15689 0.06200
C 	C 	0.34237 0.02500 0.50920 -0.04000
C 	C 	0.29414 0.00408 0.50235 -0.09500
C 	C 	0.27203 0.03077 0.50904 0.07300
C 	C 	0.29940 0.07847 0.51808 -0.03900
C 	C 	0.34735 0.09881 0.52642 -0.08900
C 	C 	0.36860 0.07121 0.52453 0.06500
H 	H 	0.35942 0.00476 0.50400 0.03700
H 	H 	0.28304 0.09952 0.52064 0.04700
C 	C 	0.21969 0.00885 0.50841 -0.18100
H 	H 	0.20313 0.97749 0.53267 0.08000
H 	H 	0.20690 0.99984 0.46866 0.06200
H 	H 	0.20838 0.03277 0.52382 0.06200
C 	C 	0.28018 0.30542 0.55831 -0.03600
C 	C 	0.26969 0.31056 0.50779 -0.08600
C 	C 	0.28632 0.29453 0.46707 0.06200
C 	C 	0.31351 0.27434 0.47767 -0.03500
C 	C 	0.32766 0.27332 0.52772 -0.08500
C 	C 	0.31030 0.28839 0.56856 0.06500
C 	C 	0.32406 0.28697 0.62289 -0.18200
H 	H 	0.26627 0.31635 0.58965 0.05000
H 	H 	0.32536 0.26108 0.44657 0.05100
C 	C 	0.27624 0.29975 0.41225 -0.17800
H 	H 	0.31173 0.30475 0.64945 0.05600
H 	H 	0.36256 0.30457 0.62609 0.04100
H 	H 	0.30851 0.25054 0.63539 0.05700
H 	H 	0.28593 0.33609 0.40446 0.02500
H 	H 	0.23870 0.27645 0.40432 0.05100
H 	H 	0.29646 0.29065 0.38521 0.05600
C 	C 	0.38002 0.07871 0.96080 -0.03000
C 	C 	0.35708 0.10263 0.97481 -0.09900
C 	C 	0.30879 0.08254 0.96652 0.08200
C 	C 	0.28335 0.03670 0.94943 -0.04100
C 	C 	0.30567 0.01108 0.94066 -0.08600
C 	C 	0.35477 0.03339 0.94223 0.06400
C 	C 	0.38008 0.00798 0.92789 -0.17600
H 	H 	0.24578 0.01998 0.94636 0.04900
C 	C 	0.28410 0.10923 0.97769 -0.19300
H 	H 	0.36176 0.98251 0.89689 0.04300
H 	H 	0.38253 0.98983 0.96187 0.06200
H 	H 	0.29999 0.14148 0.95492 0.08500
H 	H 	0.28675 0.11805 0.01893 0.06700
H 	H 	0.24658 0.08897 0.96783 0.06500
C 	C 	0.30021 0.26356 0.02371 -0.04700
C 	C 	0.33173 0.26665 0.98575 -0.09200
C 	C 	0.32773 0.28012 0.93574 0.07700
C 	C 	0.29838 0.29839 0.92751 -0.04600
C 	C 	0.27058 0.29981 0.96731 -0.09300
C 	C 	0.26807 0.27789 0.01395 0.07900
C 	C 	0.23335 0.27254 0.05479 -0.19500
H 	H 	0.30115 0.25059 0.06118 0.02600
H 	H 	0.29863 0.31321 0.89082 0.02200
C 	C 	0.35384 0.27471 0.89117 -0.19300
H 	H 	0.22389 0.24175 0.07864 0.06100
H 	H 	0.20076 0.26771 0.03770 0.07900
H 	H 	0.24858 0.30365 0.07975 0.08000
H 	H 	0.35343 0.24136 0.89334 0.08300
H 	H 	0.39033 0.30382 0.89071 0.07700
H 	H 	0.33751 0.27471 0.85440 0.05900
C 	C 	0.35915 0.78654 0.90324 -0.04300
C 	C 	0.35180 0.81943 0.92847 -0.09000
H 	H 	0.37656 0.72572 0.86100 0.06700
Ni	Ni	0.45193 0.24939 0.98342 1.10000
O 	O 	0.49259 0.22101 0.99879 -0.70200
O 	O 	0.46623 0.25639 0.90682 -0.38200
O 	O 	0.39674 0.18482 0.96780 -0.37900
O 	O 	0.45323 0.25180 0.05926 -0.70500
O 	O 	0.40778 0.27422 0.97504 -0.39300
O 	O 	0.41549 0.19187 0.14810 -0.41400
Ni	Ni	0.39074 0.20815 0.08342 1.06300
H 	H 	0.47522 0.18719 0.99337 0.15200
H 	H 	0.46280 0.28342 0.07148 0.15200
O 	O 	0.38882 0.15342 0.04669 -0.42100
C 	C 	0.50918 0.27631 0.88934 0.28100
C 	C 	0.38378 0.14874 0.99705 0.29700
C 	C 	0.45320 0.22264 0.17227 0.27700
Ni	Ni	0.43643 0.24269 0.49634 1.09900
O 	O 	0.47651 0.21240 0.49935 -0.70700
O 	O 	0.42761 0.23565 0.41895 -0.38300
O 	O 	0.37755 0.17874 0.50520 -0.37500
O 	O 	0.45963 0.25691 0.56770 -0.70100
O 	O 	0.39627 0.27239 0.50023 -0.39300
O 	O 	0.44488 0.21579 0.66849 -0.40600
Ni	Ni	0.40577 0.22486 0.61295 1.06500
H 	H 	0.45669 0.17856 0.49911 0.15300
H 	H 	0.47502 0.29065 0.57386 0.15100
O 	O 	0.38782 0.16089 0.58608 -0.41200
C 	C 	0.46391 0.25151 0.38837 0.28100
C 	C 	0.37423 0.14828 0.53893 0.28400
C 	C 	0.48917 0.24591 0.67677 0.27800
C 	C 	0.38386 0.60809 0.50428 -0.03900
C 	C 	0.35711 0.59232 0.45988 -0.09500
C 	C 	0.37666 0.61416 0.41275 0.08100
C 	C 	0.42178 0.65307 0.41153 -0.04300
C 	C 	0.44669 0.67142 0.45681 -0.09100
C 	C 	0.42903 0.64672 0.50284 0.07100
H 	H 	0.36933 0.59062 0.54016 0.03800
H 	H 	0.43612 0.67096 0.37583 0.04500
H 	H 	0.44502 0.63379 0.57888 0.06300
C 	C 	0.39777 0.61042 0.00940 -0.03900
C 	C 	0.36789 0.59384 0.96740 -0.09400
C 	C 	0.38287 0.61692 0.91998 0.08000
C 	C 	0.42661 0.65748 0.91638 -0.04300
C 	C 	0.45398 0.67677 0.95996 -0.08800
C 	C 	0.44121 0.65114 0.00571 0.06900
C 	C 	0.47291 0.66776 0.05120 -0.19200
H 	H 	0.38684 0.59207 0.04535 0.04000
H 	H 	0.43783 0.67574 0.88042 0.04500
H 	H 	0.46483 0.63886 0.07761 0.06300
H 	H 	0.46844 0.69424 0.07227 0.07300
H 	H 	0.36671 0.62411 0.84141 0.06600
C 	C 	0.36877 0.79674 0.37887 -0.04400
C 	C 	0.36340 0.83144 0.40252 -0.09100
C 	C 	0.40299 0.87120 0.42144 0.06800
C 	C 	0.44507 0.87120 0.42619 -0.03800
C 	C 	0.44828 0.83260 0.41056 -0.09600
C 	C 	0.41031 0.79585 0.38424 0.08000
C 	C 	0.41250 0.75433 0.36487 -0.19900
H 	H 	0.47476 0.90049 0.44376 0.03900
C 	C 	0.39962 0.91216 0.44023 -0.18600
H 	H 	0.37865 0.72745 0.34897 0.06600
H 	H 	0.42098 0.73823 0.39659 0.08800
H 	H 	0.43892 0.76468 0.33394 0.08100
H 	H 	0.38768 0.90678 0.48062 0.06300
H 	H 	0.37475 0.91700 0.41675 0.04900
H 	H 	0.43398 0.94441 0.43768 0.05700
C 	C 	0.39056 0.86157 0.94446 0.06600
C 	C 	0.43503 0.86635 0.94369 -0.03600
C 	C 	0.44155 0.83060 0.92476 -0.09700
C 	C 	0.40371 0.79158 0.90120 0.08300
C 	C 	0.40996 0.75441 0.87576 -0.20200
H 	H 	0.46435 0.89737 0.95918 0.03900
C 	C 	0.38456 0.90069 0.96446 -0.18100
H 	H 	0.42332 0.73943 0.90371 0.09000
H 	H 	0.43437 0.76893 0.84290 0.08600
H 	H 	0.37614 0.89596 0.00584 0.06600
H 	H 	0.35636 0.90230 0.94390 0.04200
H 	H 	0.41700 0.93442 0.95890 0.05600
C 	C 	0.41952 0.09073 0.53635 -0.18700
H 	H 	0.42534 0.06353 0.55271 0.06200
H 	H 	0.43253 0.11907 0.56491 0.05300
H 	H 	0.44029 0.10306 0.50062 0.04800
C 	C 	0.49516 0.29982 0.80550 -0.03000
C 	C 	0.51733 0.28120 0.83398 -0.09300
C 	C 	0.50368 0.26319 0.72891 -0.08500
C 	C 	0.48834 0.29116 0.75296 0.06200
C 	C 	0.46252 0.30970 0.72344 -0.17900
H 	H 	0.48065 0.31862 0.82486 0.03800
H 	H 	0.46128 0.33800 0.74464 0.05400
H 	H 	0.42626 0.28157 0.71650 0.03100
H 	H 	0.48013 0.32396 0.68629 0.04100
C 	C 	0.45707 0.24363 0.33328 -0.09900
C 	C 	0.43469 0.19830 0.31293 0.06300
C 	C 	0.43107 0.19189 0.25990 -0.03700
C 	C 	0.45044 0.23001 0.22716 -0.09500
H 	H 	0.41478 0.15723 0.24403 0.04200
C 	C 	0.41535 0.15678 0.34751 -0.18100
H 	H 	0.46485 0.31032 0.18162 0.04700
H 	H 	0.38495 0.15360 0.36919 0.07300
H 	H 	0.44239 0.16026 0.37466 0.02900
H 	H 	0.40368 0.12424 0.32558 0.05500
H 	H 	0.41747 0.09510 0.96512 0.02400
H 	H 	0.41586 0.03240 0.91393 0.05500
C 	C 	0.45739 0.66241 0.55093 -0.19300
H 	H 	0.45445 0.69110 0.56874 0.07200
Ni	Ni	0.50196 0.23302 0.07408 1.09900
O 	O 	0.54441 0.29111 0.92093 -0.41800
Ni	Ni	0.55292 0.24472 0.96532 1.07000
O 	O 	0.49456 0.23888 0.15091 -0.37200
O 	O 	0.54843 0.30257 0.07205 -0.39400
O 	O 	0.56318 0.19924 0.00571 -0.42600
Ni	Ni	0.50606 0.23315 0.56805 1.09900
O 	O 	0.50595 0.26920 0.40732 -0.42600
Ni	Ni	0.52421 0.22751 0.44730 1.06800
O 	O 	0.52123 0.25065 0.64339 -0.36800
O 	O 	0.55397 0.29996 0.55086 -0.39000
O 	O 	0.54161 0.18530 0.48339 -0.42700
O 	O 	0.52259 0.74263 0.92531 -0.39300
O 	O 	0.50672 0.84792 0.97949 -0.42300
O 	O 	0.50465 0.81792 0.89914 -0.38500
Ni	Ni	0.53049 0.81358 0.02152 1.06600
O 	O 	0.48074 0.75474 0.98674 -0.40400
C 	C 	0.48951 0.72650 0.96030 0.29700
C 	C 	0.48596 0.83185 0.93506 0.29900
O 	O 	0.51995 0.73435 0.42606 -0.39300
O 	O 	0.50781 0.84448 0.47151 -0.42200
O 	O 	0.50650 0.81072 0.39360 -0.38900
Ni	Ni	0.52682 0.80829 0.51746 1.07000
O 	O 	0.47668 0.75028 0.48188 -0.40600
C 	C 	0.48450 0.72028 0.45794 0.29900
C 	C 	0.48923 0.82909 0.42591 0.29800
H 	H 	0.49451 0.67413 0.54233 0.07100
H 	H 	0.50979 0.68256 0.03889 0.06800
H 	H 	0.53861 0.37444 0.53063 0.05700
H 	H 	0.54393 0.36418 0.46355 0.05800
C 	C 	0.53785 0.25827 0.80855 0.06400
C 	C 	0.53062 0.24924 0.75608 -0.03200
H 	H 	0.54404 0.22940 0.73688 0.04500
C 	C 	0.56503 0.24098 0.83763 -0.17800
H 	H 	0.54181 0.21405 0.86525 0.01400
H 	H 	0.58044 0.22561 0.81176 0.05600
C 	C 	0.47472 0.28167 0.30058 -0.03600
C 	C 	0.47078 0.27521 0.24757 0.06700
C 	C 	0.48958 0.31668 0.21303 -0.18700
H 	H 	0.49172 0.31636 0.31644 0.03800
H 	H 	0.49479 0.34787 0.23415 0.05900
H 	H 	0.52358 0.32399 0.19661 0.07600
H 	H 	0.00539 0.19988 0.98793 0.04900
H 	H 	0.50934 0.80464 0.27223 0.07700
O 	O 	0.59639 0.29634 0.01395 -0.40600
O 	O 	0.55467 0.21901 0.08850 -0.37900
C 	C 	0.58363 0.32177 0.04001 0.29800
C 	C 	0.57554 0.20578 0.05430 0.29400
O 	O 	0.58142 0.28363 0.47812 -0.40600
O 	O 	0.55650 0.21389 0.56556 -0.37700
C 	C 	0.57985 0.31361 0.50948 0.30000
C 	C 	0.56868 0.19957 0.52379 0.29700
Ni	Ni	0.56288 0.81163 0.90712 1.09900
O 	O 	0.55766 0.79350 0.83243 -0.38000
O 	O 	0.58522 0.83757 0.97682 -0.70300
O 	O 	0.55020 0.77312 0.06142 -0.43300
H 	H 	0.60063 0.87168 0.97541 0.15400
C 	C 	0.59442 0.81313 0.80265 0.28400
C 	C 	0.58860 0.79209 0.08805 0.28700
Ni	Ni	0.56300 0.80262 0.40627 1.09900
O 	O 	0.56056 0.78298 0.33249 -0.38300
O 	O 	0.58313 0.82914 0.47612 -0.70300
O 	O 	0.54306 0.76701 0.56092 -0.42700
H 	H 	0.59950 0.86320 0.47361 0.15200
C 	C 	0.59778 0.80423 0.30348 0.28200
C 	C 	0.58035 0.78566 0.58943 0.28800
C 	C 	0.57782 0.83200 0.71843 -0.02900
C 	C 	0.58809 0.80408 0.74854 -0.09700
C 	C 	0.58952 0.76607 0.72700 0.06600
C 	C 	0.58318 0.75810 0.67458 -0.03100
C 	C 	0.57556 0.78764 0.64403 -0.10100
C 	C 	0.57092 0.82369 0.66617 0.06300
C 	C 	0.56042 0.85438 0.63379 -0.17400
H 	H 	0.57545 0.86034 0.73578 0.03900
H 	H 	0.58601 0.73004 0.65715 0.03500
C 	C 	0.59887 0.73473 0.75966 -0.18500
H 	H 	0.55466 0.87885 0.65743 0.05300
H 	H 	0.52836 0.83302 0.61133 0.00200
H 	H 	0.57132 0.71835 0.78940 0.06300
H 	H 	0.59925 0.70676 0.73681 0.05900
C 	C 	0.59238 0.79792 0.24883 -0.09500
C 	C 	0.56433 0.81125 0.22218 0.07600
C 	C 	0.56049 0.80549 0.16942 -0.03600
C 	C 	0.58584 0.78872 0.14307 -0.10800
H 	H 	0.53954 0.81620 0.14843 0.00700
C 	C 	0.53872 0.83183 0.24980 -0.19200
H 	H 	0.61367 0.72709 0.11230 0.06500
H 	H 	0.52427 0.84672 0.22276 0.05700
C 	C 	0.56009 0.38901 0.49563 -0.18900
H 	H 	0.55993 0.42112 0.48556 0.05700
H 	H 	0.57057 0.13274 0.58469 0.06800
H 	H 	0.60012 0.18190 0.62735 0.07900
H 	H 	0.59408 0.27006 0.85839 0.04000
H 	H 	0.57454 0.38946 0.99801 0.03000
H 	H 	0.59243 0.46770 0.98324 0.05500
H 	H 	0.58247 0.13032 0.98523 0.06700
H 	H 	0.55145 0.11343 0.04569 0.06800
H 	H 	0.56260 0.86012 0.27575 0.07000
C 	C 	0.61559 0.77863 0.22276 -0.04400
C 	C 	0.61179 0.77303 0.16990 0.08200
C 	C 	0.63643 0.75153 0.14219 -0.19600
H 	H 	0.63667 0.76806 0.24372 0.02100
C 	C 	0.60735 0.40232 0.01771 -0.03500
O 	O 	0.61816 0.80118 0.91515 -0.70500
Ni	Ni	0.63269 0.81653 0.98857 1.10100
O 	O 	0.63351 0.84861 0.81897 -0.41900
O 	O 	0.62879 0.81844 0.06583 -0.39200
H 	H 	0.60918 0.76854 0.90872 0.15200
O 	O 	0.61681 0.79085 0.41807 -0.70800
Ni	Ni	0.62852 0.80608 0.49173 1.10100
O 	O 	0.63651 0.83919 0.32147 -0.42000
O 	O 	0.62182 0.80844 0.56864 -0.38500
H 	H 	0.60776 0.75818 0.41178 0.15400
H 	H 	0.58998 0.87484 0.60733 0.03700
H 	H 	0.63326 0.75502 0.77838 0.03800
H 	H 	0.63755 0.65285 0.46930 0.05300
H 	H 	0.63428 0.70191 0.44875 0.04600
H 	H 	0.63803 0.66335 0.96243 0.05200
H 	H 	0.63608 0.71305 0.94170 0.04400
C 	C 	0.61807 0.36153 0.50795 -0.09000
C 	C 	0.60885 0.39828 0.50480 0.07100
C 	C 	0.64536 0.44385 0.51087 -0.04000
H 	H 	0.63855 0.47226 0.50812 0.02300
C 	C 	0.61641 0.20722 0.51897 -0.09400
C 	C 	0.63469 0.18953 0.55509 0.07700
H 	H 	0.62965 0.24540 0.44915 0.03100
C 	C 	0.60506 0.16000 0.59874 -0.19300
H 	H 	0.62155 0.14243 0.61799 0.06000
C 	C 	0.61634 0.37151 0.04427 -0.10000
C 	C 	0.64115 0.44937 0.01501 0.06100
C 	C 	0.63059 0.48207 0.98676 -0.17700
H 	H 	0.64604 0.48813 0.94785 0.05100
H 	H 	0.64486 0.51557 0.00741 0.03900
H 	H 	0.63684 0.33227 0.12491 0.08100
C 	C 	0.65039 0.23717 0.10027 -0.04400
C 	C 	0.61603 0.20194 0.07024 -0.09100
C 	C 	0.62398 0.16712 0.05027 0.07100
C 	C 	0.58521 0.12403 0.02620 -0.19000
H 	H 	0.64254 0.26075 0.12072 0.04700
H 	H 	0.59196 0.09478 0.02921 0.05900
H 	H 	0.64571 0.73174 0.16870 0.06000
Ni	Ni	0.67321 0.84181 0.87530 1.06400
O 	O 	0.68191 0.90159 0.90752 -0.41800
Ni	Ni	0.67345 0.83205 0.38089 1.06400
H 	H 	0.64515 0.93076 0.52721 0.04900
H 	H 	0.68242 0.98506 0.93959 0.03400
H 	H 	0.69432 0.06072 0.94179 0.06000
H 	H 	0.66891 0.77900 0.12420 0.07900
C 	C 	0.65268 0.69066 0.47499 -0.18300
H 	H 	0.64596 0.69663 0.51515 0.06800
C 	C 	0.65394 0.70126 0.96804 -0.17900
H 	H 	0.64745 0.70760 0.00815 0.06200
C 	C 	0.66362 0.37077 0.51600 -0.03600
H 	H 	0.67037 0.34233 0.51903 0.05000
C 	C 	0.64422 0.23333 0.47787 -0.03600
C 	C 	0.65833 0.38826 0.07134 0.08700
C 	C 	0.66796 0.35612 0.10199 -0.19900
H 	H 	0.67758 0.33593 0.07577 0.07800
C 	C 	0.68121 0.19978 0.55027 -0.04000
C 	C 	0.66912 0.17348 0.05156 -0.03900
O 	O 	0.68092 0.79644 0.99352 -0.38200
C 	C 	0.69807 0.91451 0.95378 0.29200
C 	C 	0.70817 0.80252 0.95382 0.27600
O 	O 	0.68727 0.88391 0.99023 -0.37600
O 	O 	0.68086 0.89187 0.41186 -0.41600
O 	O 	0.67533 0.78444 0.49999 -0.37600
C 	C 	0.69406 0.90418 0.45919 0.28800
O 	O 	0.68434 0.87274 0.49427 -0.37200
C 	C 	0.67773 0.94836 0.54964 -0.18600
H 	H 	0.68197 0.92241 0.57137 0.07700
H 	H 	0.67391 0.97146 0.57760 0.05400
C 	C 	0.71657 0.99647 0.95539 -0.04100
C 	C 	0.70441 0.71664 0.46422 0.06100
C 	C 	0.70568 0.72613 0.95730 0.06100
C 	C 	0.69093 0.45314 0.51874 -0.09100
C 	C 	0.70019 0.41633 0.52168 0.07900
C 	C 	0.69114 0.24552 0.47442 0.07600
H 	H 	0.69545 0.18641 0.57794 0.03600
H 	H 	0.70428 0.29645 0.41582 0.06200
C 	C 	0.69271 0.43480 0.06707 -0.04700
C 	C 	0.68512 0.46510 0.03751 -0.08000
H 	H 	0.69709 0.37552 0.12902 0.06500
C 	C 	0.70607 0.21416 0.07229 -0.09900
C 	C 	0.69578 0.24417 0.10096 0.07900
H 	H 	0.67621 0.14855 0.03288 0.03600
H 	H 	0.71811 0.30150 0.15454 0.06300
C 	C 	0.70513 0.79231 0.46227 0.27500
C 	C 	0.72447 0.51160 0.02703 0.26800
O 	O 	0.71990 0.83754 0.92224 -0.41600
O 	O 	0.71787 0.82808 0.43153 -0.41000
C 	C 	0.71910 0.97497 0.51472 0.06400
C 	C 	0.72970 0.07758 0.95860 -0.18900
H 	H 	0.70977 0.65506 0.46639 0.01400
H 	H 	0.70991 0.66427 0.96463 0.01500
C 	C 	0.70942 0.22717 0.50987 -0.09200
C 	C 	0.73310 0.28478 0.13010 -0.19900
H 	H 	0.75809 0.31116 0.10312 0.08600
O 	O 	0.73657 0.52399 0.97890 -0.41200
C 	C 	0.72922 0.50084 0.51464 0.27300
C 	C 	0.72630 0.95359 0.47134 -0.08400
C 	C 	0.73058 0.96398 0.96464 -0.09300
C 	C 	0.74600 0.04344 0.96749 0.06900
H 	H 	0.75386 0.10485 0.93187 0.06000
H 	H 	0.72856 0.09386 0.99532 0.05300
C 	C 	0.72817 0.69197 0.45940 -0.03800
C 	C 	0.72923 0.76530 0.45854 -0.09100
C 	C 	0.72884 0.70080 0.95555 -0.03800
C 	C 	0.73107 0.77444 0.94902 -0.09300
C 	C 	0.72151 0.27894 0.43359 -0.19300
H 	H 	0.72885 0.26017 0.40306 0.06400
H 	H 	0.72619 0.44706 0.08508 0.05000
O 	O 	0.74431 0.51756 0.46851 -0.41800
C 	C 	0.74887 0.42545 0.53140 -0.19500
H 	H 	0.75052 0.39307 0.53077 0.06900
H 	H 	0.74463 0.03862 0.55754 0.01700
O 	O 	0.75445 0.53341 0.06390 -0.38200
Ni	Ni	0.76014 0.59090 0.95174 1.06200
O 	O 	0.75581 0.52049 0.55468 -0.38500
Ni	Ni	0.76396 0.58490 0.44716 1.06300
C 	C 	0.75371 0.23004 0.05263 0.29500
C 	C 	0.75845 0.23824 0.50648 0.29300
H 	H 	0.73659 0.14671 0.84484 0.07200
C 	C 	0.75051 0.02194 0.52492 -0.03500
H 	H 	0.76068 0.44181 0.56949 0.08100
H 	H 	0.75464 0.30641 0.45011 0.06200
H 	H 	0.75167 0.27320 0.15564 0.08400
O 	O 	0.75924 0.22402 0.00430 -0.42600
H 	H 	0.73518 0.11511 0.78862 0.06000
C 	C 	0.76502 0.97944 0.43950 -0.04700
H 	H 	0.77092 0.96298 0.40668 0.03800
C 	C 	0.77551 0.97895 0.98431 0.07300
H 	H 	0.78694 0.92443 0.95617 0.07700
H 	H 	0.77328 0.44865 0.50166 0.06800
O 	O 	0.77504 0.65153 0.91703 -0.41600
O 	O 	0.77781 0.64672 0.41649 -0.41400
O 	O 	0.77612 0.23690 0.46209 -0.42800
C 	C 	0.75870 0.14106 0.81693 -0.19600
C 	C 	0.79006 0.05797 0.98919 -0.08500
C 	C 	0.77531 0.71435 0.44519 -0.10100
C 	C 	0.77657 0.78780 0.44476 -0.04800
C 	C 	0.77596 0.72187 0.94147 -0.10000
C 	C 	0.77828 0.79573 0.93500 -0.04600
H 	H 	0.79167 0.63462 0.03207 0.14600
C 	C 	0.79811 0.69294 0.93889 0.27400
H 	H 	0.79022 0.62434 0.53038 0.14700
O 	O 	0.79021 0.25357 0.08213 -0.37800
H 	H 	0.78897 0.17652 0.54575 0.15100
O 	O 	0.78580 0.25727 0.54598 -0.37500
H 	H 	0.77724 0.15729 0.71570 0.02200
H 	H 	0.80776 0.14644 0.31882 0.07700
C 	C 	0.78804 0.04809 0.49187 -0.09800
C 	C 	0.79639 0.02629 0.44988 0.08800
C 	C 	0.79285 0.94541 0.99131 -0.19200
H 	H 	0.77446 0.92228 0.02397 0.08300
H 	H 	0.79552 0.82499 0.43988 0.04600
H 	H 	0.79765 0.83265 0.92814 0.04200
H 	H 	0.78991 0.51977 0.67951 0.08200
O 	O 	0.80383 0.62015 0.00795 -0.70800
O 	O 	0.80098 0.58206 0.89880 -0.40400
O 	O 	0.80447 0.61202 0.50615 -0.70600
O 	O 	0.80868 0.58114 0.39579 -0.40700
C 	C 	0.79880 0.68682 0.44131 0.27700
H 	H 	0.80491 0.18401 0.05971 0.15200
H 	H 	0.77784 0.12661 0.83693 0.07500
H 	H 	0.82907 0.12630 0.26753 0.05700
C 	C 	0.80445 0.02569 0.99740 -0.03300
H 	H 	0.79256 0.34213 0.59159 0.08800
C 	C 	0.79925 0.76249 0.43560 0.07900
C 	C 	0.80057 0.76958 0.92921 0.07700
H 	H 	0.79624 0.49685 0.73851 0.06500
H 	H 	0.81414 0.51976 0.33171 0.07200
O 	O 	0.79014 0.22840 0.90281 -0.41800
O 	O 	0.81234 0.12430 0.46085 -0.38700
H 	H 	0.80185 0.37992 0.64473 0.06600
C 	C 	0.82033 0.10638 0.00561 0.27900
C 	C 	0.81440 0.09890 0.49763 0.28200
C 	C 	0.79296 0.18601 0.79175 0.08000
C 	C 	0.79811 0.18796 0.73859 -0.04400
C 	C 	0.83995 0.15189 0.29919 -0.19100
C 	C 	0.81418 0.52603 0.71139 -0.19600
H 	H 	0.81476 0.54309 0.81341 0.04500
Ni	Ni	0.82238 0.57889 0.04654 1.09300
O 	O 	0.83181 0.11496 0.05455 -0.41000
H 	H 	0.83020 0.07404 0.38826 0.07900
O 	O 	0.83023 0.61475 0.11514 -0.38600
Ni	Ni	0.82367 0.57080 0.54393 1.09200
O 	O 	0.82469 0.60244 0.61395 -0.38400
Ni	Ni	0.80765 0.27683 0.96123 1.06400
O 	O 	0.83330 0.24910 0.37604 -0.41500
O 	O 	0.82328 0.19432 0.54188 -0.70500
C 	C 	0.83771 0.05312 0.41499 -0.19800
H 	H 	0.83082 0.96366 0.99911 0.06400
C 	C 	0.81973 0.36936 0.61611 -0.20100
H 	H 	0.82160 0.47433 0.15613 0.07700
C 	C 	0.82656 0.57423 0.79122 -0.04500
H 	H 	0.82845 0.68563 0.17791 0.06900
H 	H 	0.01410 0.82183 0.03788 0.03800
O 	O 	0.81415 0.32577 0.01378 -0.41500
H 	H 	0.86127 0.14468 0.32583 0.08000
H 	H 	0.84566 0.02965 0.39228 0.06400
H 	H 	0.83836 0.03701 0.01382 0.04200
C 	C 	0.82805 0.57172 0.73679 0.07300
C 	C 	0.83574 0.61752 0.87554 0.27800
C 	C 	0.84341 0.61833 0.37536 0.28000
O 	O 	0.83836 0.20417 0.05162 -0.70400
O 	O 	0.84145 0.13868 0.97040 -0.37600
C 	C 	0.82140 0.22331 0.87673 0.28000
Ni	Ni	0.84038 0.28875 0.44058 1.06000
O 	O 	0.83785 0.33399 0.49219 -0.41900
O 	O 	0.84245 0.70496 0.45641 -0.38700
Ni	Ni	0.84282 0.19399 0.46890 1.09800
O 	O 	0.84217 0.71049 0.95235 -0.38600
O 	O 	0.83361 0.25565 0.63044 -0.38000
C 	C 	0.82160 0.22565 0.82125 -0.09600
C 	C 	0.84842 0.78702 0.41480 -0.19300
C 	C 	0.84054 0.61656 0.81692 -0.07800
H 	H 	0.83966 0.69840 0.83733 0.08200
C 	C 	0.84992 0.58280 0.23511 -0.04100
C 	C 	0.85057 0.62040 0.31716 -0.07700
C 	C 	0.85007 0.58326 0.28956 0.06900
C 	C 	0.84984 0.54397 0.31748 -0.18700
H 	H 	0.84947 0.55420 0.21480 0.04300
O 	O 	0.84462 0.53959 0.08312 -0.39200
O 	O 	0.84728 0.11794 0.53267 -0.41000
C 	C 	0.86798 0.20087 0.27994 0.07600
H 	H 	0.87062 0.17932 0.20281 -0.00000
H 	H 	0.84213 0.45896 0.62524 0.04500
H 	H 	0.85267 0.76616 0.38422 0.07700
C 	C 	0.85010 0.79284 0.90962 -0.19300
C 	C 	0.84419 0.61218 0.70677 -0.07800
C 	C 	0.85217 0.61960 0.20688 -0.07700
C 	C 	0.85256 0.65719 0.28898 -0.04300
C 	C 	0.83117 0.22888 0.71485 -0.09300
O 	O 	0.84726 0.53244 0.58005 -0.39300
C 	C 	0.86119 0.23304 0.36467 0.28600
H 	H 	0.83828 0.35479 0.63698 0.08300
H 	H 	0.85412 0.77141 0.87965 0.07600
H 	H 	0.84566 0.52624 0.69623 0.08000
C 	C 	0.85360 0.65720 0.23433 0.06900
H 	H 	0.85272 0.68565 0.30932 0.04500
H 	H 	0.86099 0.52445 0.29207 0.05900
H 	H 	0.85448 0.72268 0.23220 0.06200
O 	O 	0.86249 0.20219 0.39390 -0.37700
Ni	Ni	0.84711 0.20259 0.97618 1.09800
Ni	Ni	0.85066 0.26356 0.55447 1.09600
C 	C 	0.84005 0.22809 0.66028 0.28400
H 	H 	0.85737 0.82079 0.39774 0.06000
H 	H 	0.84129 0.39075 0.12481 0.04400
C 	C 	0.85710 0.69777 0.20597 -0.19100
C 	C 	0.86274 0.62258 0.14947 0.28700
O 	O 	0.84522 0.20654 0.89858 -0.37300
Ni	Ni	0.85327 0.16787 0.58328 1.06300
C 	C 	0.85506 0.47435 0.15554 -0.19400
H 	H 	0.85326 0.44980 0.18494 0.06000
H 	H 	0.86043 0.82682 0.89216 0.06200
C 	C 	0.85634 0.61230 0.65012 0.28700
C 	C 	0.88111 0.20851 0.22844 -0.03600
H 	H 	0.86927 0.07631 0.43740 0.08300
C 	C 	0.85380 0.40956 0.58384 0.08300
C 	C 	0.85533 0.65686 0.78667 0.07300
C 	C 	0.87997 0.23924 0.31256 -0.09300
C 	C 	0.85781 0.65440 0.73230 -0.04300
Ni	Ni	0.86499 0.66862 0.97983 1.09600
Ni	Ni	0.86616 0.66366 0.48294 1.09600
Ni	Ni	0.85796 0.27225 0.06207 1.09900
Ni	Ni	0.87355 0.17906 0.08476 1.06900
C 	C 	0.86009 0.45372 0.59333 -0.04700
C 	C 	0.85489 0.41585 0.09422 -0.04100
H 	H 	0.87430 0.55717 0.35009 0.06600
O 	O 	0.87122 0.26350 0.48194 -0.70700
H 	H 	0.87334 0.79360 0.44604 0.07700
O 	O 	0.86987 0.65039 0.90338 -0.36600
O 	O 	0.85747 0.26793 0.98589 -0.70300
C 	C 	0.86839 0.35621 0.52871 0.28800
H 	H 	0.87418 0.79884 0.94158 0.08000
C 	C 	0.86817 0.70247 0.81152 -0.19800
O 	O 	0.87554 0.65060 0.40566 -0.36400
O 	O 	0.87207 0.27331 0.13800 -0.38300
C 	C 	0.85318 0.35506 0.03773 0.27700
C 	C 	0.85304 0.26711 0.79742 -0.04400
H 	H 	0.87109 0.68572 0.71006 0.04000
H 	H 	0.87377 0.72906 0.78286 0.06500
C 	C 	0.86354 0.46095 0.10307 0.07800
O 	O 	0.86682 0.21161 0.64554 -0.41400
C 	C 	0.85867 0.26898 0.74437 0.08100
H 	H 	0.85924 0.39640 0.93624 0.04000
O 	O 	0.87877 0.33322 0.56150 -0.39500
C 	C 	0.87793 0.40292 0.54283 -0.09700
H 	H 	0.01167 0.36468 0.03654 0.05700
C 	C 	0.86339 0.40283 0.04605 -0.08500
O 	O 	0.88133 0.62188 0.01001 -0.70500
O 	O 	0.88371 0.61756 0.51224 -0.70500
C 	C 	0.87930 0.49292 0.06245 -0.09600
C 	C 	0.88208 0.53814 0.06811 0.28300
O 	O 	0.87480 0.33953 0.06640 -0.38700
H 	H 	0.87431 0.29759 0.82042 0.02300
H 	H 	0.87729 0.32722 0.69547 0.07600
C 	C 	0.88157 0.43549 0.00627 0.05900
H 	H 	0.88385 0.50920 0.16630 0.07300
C 	C 	0.00455 0.20430 0.56643 -0.19400
H 	H 	0.88626 0.60461 0.98207 0.15300
C 	C 	0.88676 0.53434 0.56652 0.27900
C 	C 	0.88747 0.49062 0.56046 -0.08800
H 	H 	0.88768 0.29191 0.97165 0.15200
C 	C 	0.88923 0.48032 0.01476 -0.03800
H 	H 	0.89106 0.71619 0.18554 0.06900
C 	C 	0.99971 0.28577 0.46857 -0.03900
H 	H 	0.89166 0.60264 0.48416 0.14800
C 	C 	0.89212 0.42250 0.95460 -0.18000
H 	H 	0.99764 0.67052 0.00709 -0.01700
H 	H 	0.97304 0.33291 0.98500 0.05400
O 	O 	0.93276 0.72120 0.97465 -0.37600
O 	O 	0.94470 0.70884 0.05710 -0.41900
Ni	Ni	0.93090 0.64113 0.06051 1.07100
O 	O 	0.90437 0.63089 0.13460 -0.39000
C 	C 	0.96045 0.73208 0.01428 0.27800
O 	O 	0.92261 0.57651 0.06022 -0.41100
O 	O 	0.93308 0.71814 0.48415 -0.38400
O 	O 	0.93788 0.70269 0.56759 -0.42000
Ni	Ni	0.93021 0.63710 0.56647 1.06600
O 	O 	0.89836 0.62024 0.63794 -0.38900
C 	C 	0.95592 0.72975 0.52760 0.27400
O 	O 	0.92653 0.57444 0.56445 -0.41200
O 	O 	0.91839 0.23517 0.97157 -0.38200
O 	O 	0.91717 0.24108 0.12149 -0.42200
O 	O 	0.92487 0.19158 0.03300 -0.39700
C 	C 	0.94381 0.22865 0.00460 0.29200
C 	C 	0.90009 0.25905 0.15393 0.28400
O 	O 	0.90592 0.19728 0.47888 -0.37500
H 	H 	0.90546 0.28171 0.47830 0.15100
O 	O 	0.92012 0.21450 0.56303 -0.41300
C 	C 	0.93476 0.22078 0.51568 0.28700
C 	C 	0.98515 0.25017 0.50435 -0.09600
H 	H 	0.97404 0.28874 0.44634 0.02400
H 	H 	0.97607 0.17194 0.54960 0.07400
H 	H 	0.99272 0.21151 0.60339 0.07400
C 	C 	0.99510 0.25778 0.00195 -0.08600
C 	C 	0.98920 0.32958 0.02033 -0.18000
H 	H 	0.96162 0.30958 0.04903 0.04100
C 	C 	0.89471 0.31341 0.71961 -0.19400
H 	H 	0.91584 0.34025 0.74840 0.06100
H 	H 	0.91898 0.30728 0.69573 0.07500
C 	C 	0.90718 0.28421 0.29373 -0.04400
C 	C 	0.90323 0.25330 0.20863 -0.10500
C 	C 	0.91942 0.29155 0.24196 0.08200
C 	C 	0.94714 0.34020 0.22197 -0.19600
H 	H 	0.91751 0.31354 0.31910 0.01900
H 	H 	0.96758 0.36486 0.25287 0.05900
H 	H 	0.92320 0.35078 0.20566 0.07500
H 	H 	0.97218 0.34253 0.19201 0.07000
C 	C 	0.91115 0.48377 0.51893 0.06200
C 	C 	0.90711 0.44022 0.51143 -0.04000
H 	H 	0.92536 0.43491 0.47988 0.02100
C 	C 	0.93980 0.52218 0.48183 -0.18200
H 	H 	0.97176 0.54922 0.50083 0.06200
H 	H 	0.91925 0.53756 0.46748 0.05000
H 	H 	0.95072 0.50940 0.44813 0.05400
H 	H 	0.90180 0.50507 0.98383 0.03300
H 	H 	0.90974 0.45289 0.92899 0.05600
H 	H 	0.91550 0.40792 0.95870 0.04600
H 	H 	0.90082 0.71534 0.83345 0.08500
C 	C 	0.99038 0.81859 0.47145 -0.19500
H 	H 	0.96087 0.81152 0.49742 0.07300
H 	H 	0.97670 0.79933 0.43512 0.08000
H 	H 	0.98494 0.68039 0.94292 0.05600
