data_crystal

_cell_length_a 36.10988
_cell_length_b 64.53209
_cell_length_c 24.58342
_cell_angle_alpha 90.00156
_cell_angle_beta  89.99844
_cell_angle_gamma 89.99707

_symmetry_space_group_name_	'P 1'
_symmetry_space_group_name_H-M	'P 1'

loop_
_symmetry_equiv_pos_as_xyz
  x,y,z

loop_
_atom_site_label
_atom_site_type_symbol
_atom_site_fract_x
_atom_site_fract_y
_atom_site_fract_z
_atom_site_charge
H 	H 	0.41972 0.01787 0.47012 0.04900
C 	C 	0.00093 0.02024 0.07664 0.04800
H 	H 	0.94114 0.02050 0.07458 0.04600
C 	C 	0.46219 0.01901 0.53192 0.04700
H 	H 	0.06011 0.02518 0.08168 0.05000
H 	H 	0.50353 0.02549 0.59334 0.04700
C 	C 	0.96608 0.02980 0.07682 -0.07800
C 	C 	0.03306 0.03243 0.08042 -0.07600
C 	C 	0.43848 0.02768 0.49294 -0.07600
C 	C 	0.48592 0.03193 0.56192 -0.07600
C 	C 	0.96326 0.05136 0.07994 0.01800
C 	C 	0.43935 0.04898 0.48256 0.01700
C 	C 	0.03029 0.05401 0.08347 0.02200
C 	C 	0.48680 0.05323 0.55166 0.01700
H 	H 	0.42144 0.05540 0.45149 0.03400
H 	H 	0.93611 0.05850 0.08061 0.02100
C 	C 	0.99533 0.06362 0.08337 -0.09300
H 	H 	0.05531 0.06322 0.08617 0.03900
C 	C 	0.46367 0.06188 0.51164 -0.09100
H 	H 	0.50527 0.06299 0.57508 0.03100
H 	H 	0.23289 0.07729 0.25892 0.04200
H 	H 	0.26155 0.08464 0.40027 0.04700
C 	C 	0.99208 0.08633 0.08939 0.28800
C 	C 	0.28291 0.08910 0.37163 -0.07800
C 	C 	0.23719 0.08660 0.29525 -0.05400
C 	C 	0.46540 0.08428 0.49928 0.28900
C 	C 	0.27535 0.08955 0.31560 0.04500
H 	H 	0.14105 0.09513 0.36135 0.04500
C 	C 	0.30385 0.09416 0.27887 -0.08000
C 	C 	0.31770 0.09514 0.39092 0.01900
C 	C 	0.20905 0.09775 0.31590 -0.05400
C 	C 	0.14017 0.09871 0.31831 -0.08000
H 	H 	0.32274 0.09540 0.43435 0.03600
O 	O 	0.43522 0.09371 0.48201 -0.36300
O 	O 	0.96299 0.09584 0.06877 -0.38600
O 	O 	0.02095 0.09708 0.10615 -0.36200
C 	C 	0.17294 0.09903 0.28773 0.04500
H 	H 	0.29857 0.09395 0.23548 0.04400
H 	H 	0.08138 0.10384 0.31836 0.02500
O 	O 	0.49419 0.09511 0.51601 -0.38800
C 	C 	0.33868 0.10016 0.29803 0.01500
C 	C 	0.10637 0.10379 0.29397 0.01700
C 	C 	0.34534 0.10156 0.35429 -0.10200
C 	C 	0.17138 0.10368 0.23192 -0.07800
H 	H 	0.21309 0.10673 0.35285 0.04000
H 	H 	0.19655 0.10432 0.20798 0.04600
H 	H 	0.96411 0.10987 0.19661 0.16200
C 	C 	0.10507 0.10950 0.23885 -0.10200
C 	C 	0.13761 0.10873 0.20754 0.01800
H 	H 	0.36006 0.10432 0.26913 0.02300
C 	C 	0.37977 0.11136 0.37462 0.29100
H 	H 	0.48761 0.10741 0.38643 0.16200
H 	H 	0.13706 0.11293 0.16489 0.03200
O 	O 	0.38501 0.11366 0.42710 -0.37500
Cu	Cu	0.93273 0.11673 0.10858 0.89300
C 	C 	0.07062 0.11805 0.21538 0.29200
Cu	Cu	0.52072 0.11635 0.47181 0.89300
O 	O 	0.96583 0.12040 0.16742 -0.63800
O 	O 	0.06689 0.11955 0.16242 -0.37500
O 	O 	0.88654 0.12054 0.15170 -0.39500
O 	O 	0.48553 0.11815 0.41502 -0.63800
O 	O 	0.40262 0.12026 0.34036 -0.44300
O 	O 	0.04591 0.12667 0.24730 -0.44300
Cu	Cu	0.43447 0.12165 0.45586 0.92800
O 	O 	0.56497 0.12121 0.42512 -0.39500
Cu	Cu	0.01763 0.12530 0.12959 0.92800
H 	H 	0.71139 0.12524 0.24700 0.04200
C 	C 	0.88016 0.13436 0.19034 0.29300
C 	C 	0.84184 0.13692 0.20994 -0.09200
C 	C 	0.81236 0.13674 0.17272 0.01900
C 	C 	0.77579 0.13731 0.19127 -0.07700
C 	C 	0.72958 0.13647 0.26635 -0.05300
H 	H 	0.81777 0.13588 0.12943 0.02500
H 	H 	0.75326 0.13676 0.16220 0.04600
O 	O 	0.44610 0.13509 0.52839 -0.36400
C 	C 	0.56863 0.13537 0.38658 0.29200
C 	C 	0.76827 0.13822 0.24716 0.04600
C 	C 	0.79777 0.13876 0.28447 -0.07700
C 	C 	0.83438 0.13827 0.26591 0.02000
H 	H 	0.79236 0.13892 0.32781 0.04600
H 	H 	0.85685 0.13826 0.29510 0.03000
O 	O 	0.00681 0.13733 0.05508 -0.36100
O 	O 	0.90748 0.14278 0.21850 -0.38800
C 	C 	0.60612 0.13988 0.36582 -0.09200
H 	H 	0.63190 0.13875 0.44521 0.02400
O 	O 	0.53969 0.14231 0.35921 -0.38700
C 	C 	0.63623 0.14072 0.40191 0.01900
C 	C 	0.61212 0.14289 0.30990 0.02100
H 	H 	0.58915 0.14235 0.28159 0.03200
Cu	Cu	0.49054 0.14622 0.38916 0.89400
Cu	Cu	0.95679 0.14841 0.19092 0.89400
O 	O 	0.94790 0.14700 0.07698 -0.39600
C 	C 	0.71633 0.14895 0.30556 -0.05400
C 	C 	0.67819 0.14634 0.32622 0.04600
C 	C 	0.67206 0.14407 0.38219 -0.07800
C 	C 	0.64797 0.14616 0.29022 -0.07700
H 	H 	0.69513 0.14452 0.41035 0.04500
H 	H 	0.65230 0.14844 0.24702 0.04700
Cu	Cu	0.41368 0.14885 0.34813 0.86600
O 	O 	0.43898 0.14844 0.41773 -0.64300
C 	C 	0.47417 0.14795 0.53402 0.28300
O 	O 	0.50315 0.14644 0.50184 -0.39800
Cu	Cu	0.03184 0.15465 0.23554 0.86600
O 	O 	0.00866 0.15230 0.16475 -0.64300
C 	C 	0.97758 0.14910 0.04644 0.27800
H 	H 	0.03677 0.17094 0.00947 0.03100
H 	H 	0.73437 0.16025 0.32486 0.04100
H 	H 	0.43468 0.16093 0.44025 0.17200
H 	H 	0.01197 0.16464 0.14130 0.17300
H 	H 	0.53164 0.16139 0.59551 0.02400
C 	C 	0.97809 0.16464 0.00251 -0.08100
C 	C 	0.01128 0.17463 0.98833 0.00500
C 	C 	0.47328 0.16392 0.57675 -0.09500
O 	O 	0.95196 0.17605 0.22430 -0.38300
C 	C 	0.50584 0.16922 0.60469 0.02000
O 	O 	0.49108 0.17373 0.35467 -0.38300
H 	H 	0.41463 0.17003 0.56844 0.02400
O 	O 	0.42863 0.17694 0.33713 -0.42100
O 	O 	0.01378 0.18232 0.24166 -0.42200
C 	C 	0.43994 0.17398 0.58972 0.01900
C 	C 	0.46321 0.18269 0.32865 0.28500
C 	C 	0.97851 0.18715 0.24753 0.28400
C 	C 	0.94531 0.16961 0.97467 0.01000
H 	H 	0.91962 0.16182 0.98469 0.02600
H 	H 	0.03732 0.19719 0.93651 0.04400
C 	C 	0.01155 0.18963 0.94727 -0.07000
C 	C 	0.50513 0.18452 0.64491 -0.07800
H 	H 	0.91393 0.19652 0.29895 0.03300
C 	C 	0.43932 0.18942 0.62966 -0.07700
H 	H 	0.53042 0.18850 0.66621 0.04500
H 	H 	0.42529 0.19552 0.23992 0.01800
C 	C 	0.47205 0.19490 0.65695 0.04700
C 	C 	0.97858 0.19484 0.92019 0.04000
C 	C 	0.94564 0.18453 0.93346 -0.07300
C 	C 	0.96876 0.20669 0.27544 -0.09200
C 	C 	0.47023 0.20146 0.29597 -0.09300
H 	H 	0.41348 0.19711 0.63934 0.04700
C 	C 	0.93449 0.20869 0.30199 0.01500
C 	C 	0.44759 0.20592 0.25104 0.01700
H 	H 	0.48426 0.20831 0.73791 0.04100
H 	H 	0.92018 0.18825 0.91228 0.04300
H 	H 	0.51661 0.21194 0.34454 0.03400
C 	C 	0.47188 0.21142 0.69845 -0.05500
C 	C 	0.97840 0.21087 0.87730 -0.05200
C 	C 	0.49914 0.21508 0.30968 0.02100
H 	H 	0.96462 0.20753 0.83897 0.04000
C 	C 	0.99506 0.22264 0.27993 0.01500
H 	H 	0.02140 0.22148 0.25907 0.03000
C 	C 	0.92731 0.22600 0.33464 -0.07600
H 	H 	0.00569 0.23325 0.92528 0.04100
H 	H 	0.90121 0.22709 0.35621 0.04500
C 	C 	0.45365 0.22378 0.22026 -0.07800
C 	C 	0.99132 0.23003 0.88733 -0.05600
H 	H 	0.43556 0.22721 0.18627 0.04600
C 	C 	0.50512 0.23302 0.27889 -0.07800
C 	C 	0.46078 0.23071 0.68576 -0.05300
C 	C 	0.95416 0.24154 0.34077 0.04400
C 	C 	0.98802 0.23982 0.31290 -0.07700
C 	C 	0.48266 0.23733 0.23373 0.04600
H 	H 	0.44758 0.23367 0.64676 0.04100
H 	H 	0.04185 0.25874 0.85718 0.04500
H 	H 	0.48932 0.24156 0.12660 0.04100
H 	H 	0.52286 0.23940 0.74467 0.04500
C 	C 	0.98617 0.24704 0.84767 0.04400
H 	H 	0.52723 0.24354 0.29008 0.04700
C 	C 	0.01506 0.26112 0.83832 -0.07600
H 	H 	0.00941 0.25140 0.31828 0.04600
H 	H 	0.93640 0.25423 0.42061 0.04100
C 	C 	0.46682 0.24824 0.72356 0.04500
C 	C 	0.50114 0.25082 0.74966 -0.07700
C 	C 	0.94851 0.25817 0.38145 -0.05300
H 	H 	0.92859 0.24001 0.83146 0.04500
C 	C 	0.49027 0.25631 0.14793 -0.05300
C 	C 	0.48815 0.25668 0.20253 -0.05400
C 	C 	0.95143 0.25045 0.82348 -0.07700
H 	H 	0.44713 0.26380 0.06055 0.04500
C 	C 	0.43952 0.26356 0.72897 -0.07700
H 	H 	0.41307 0.26181 0.70867 0.04500
C 	C 	0.00927 0.27855 0.80559 0.01700
C 	C 	0.50807 0.26856 0.78060 0.01600
H 	H 	0.53469 0.27031 0.80038 0.02800
H 	H 	0.03162 0.28953 0.79979 0.03300
H 	H 	0.48966 0.27132 0.22428 0.04200
C 	C 	0.95935 0.27773 0.37150 -0.05500
C 	C 	0.94569 0.26778 0.79048 0.01600
H 	H 	0.97040 0.28185 0.33182 0.04200
C 	C 	0.46467 0.27684 0.07092 -0.07700
C 	C 	0.48858 0.27565 0.11573 0.04500
C 	C 	0.97435 0.28218 0.78216 -0.09400
H 	H 	0.91872 0.27022 0.77228 0.02800
C 	C 	0.96173 0.29301 0.41603 0.04700
H 	H 	0.90377 0.29106 0.43770 0.04700
C 	C 	0.44655 0.28143 0.75952 0.01700
C 	C 	0.48116 0.28422 0.78471 -0.09400
C 	C 	0.99569 0.30259 0.42746 -0.07900
C 	C 	0.93026 0.29815 0.44675 -0.07700
H 	H 	0.02002 0.29885 0.40362 0.04700
C 	C 	0.46310 0.29487 0.03954 0.01600
C 	C 	0.51170 0.29252 0.12813 -0.07600
H 	H 	0.44454 0.29550 0.00495 0.02900
H 	H 	0.53108 0.29156 0.16168 0.04700
H 	H 	0.42546 0.29331 0.76230 0.03400
C 	C 	0.49019 0.30400 0.81210 0.28900
O 	O 	0.46300 0.31677 0.82593 -0.39100
O 	O 	0.52530 0.30917 0.81839 -0.42300
C 	C 	0.96707 0.30169 0.75250 0.28600
O 	O 	0.99501 0.31149 0.72878 -0.38400
O 	O 	0.93252 0.30788 0.74599 -0.42400
C 	C 	0.99849 0.31678 0.47020 0.02000
C 	C 	0.93296 0.31251 0.48921 0.01900
H 	H 	0.90859 0.31626 0.51296 0.02500
C 	C 	0.48569 0.31191 0.05239 -0.09500
C 	C 	0.51010 0.31060 0.09682 0.01700
H 	H 	0.51876 0.32174 0.92182 0.17000
C 	C 	0.96716 0.32179 0.50134 -0.09400
H 	H 	0.02493 0.32401 0.47877 0.02600
H 	H 	0.93694 0.32417 0.64416 0.17300
H 	H 	0.52774 0.32359 0.10721 0.03500
H 	H 	0.30317 0.32926 0.75110 0.04600
C 	C 	0.48391 0.33098 0.01919 0.28600
H 	H 	0.15662 0.32945 0.82495 0.04600
H 	H 	0.09545 0.32822 0.78068 0.03400
H 	H 	0.36466 0.32934 0.79469 0.03300
C 	C 	0.97018 0.33683 0.54618 0.28400
O 	O 	0.00005 0.33717 0.57666 -0.39200
Cu	Cu	0.54207 0.33655 0.83418 0.86800
O 	O 	0.51652 0.33528 0.90320 -0.64400
O 	O 	0.45476 0.33459 0.98852 -0.39900
Cu	Cu	0.91828 0.33619 0.73739 0.86500
Cu	Cu	0.99377 0.33881 0.69334 0.89500
O 	O 	0.94171 0.33666 0.66647 -0.64200
C 	C 	0.11569 0.33948 0.76712 0.01800
C 	C 	0.30914 0.34044 0.78281 -0.07700
C 	C 	0.34407 0.34056 0.80737 0.01800
Cu	Cu	0.46582 0.34103 0.87454 0.89500
O 	O 	0.51249 0.34363 0.01741 -0.36300
O 	O 	0.04291 0.34314 0.72255 -0.38800
C 	C 	0.15046 0.34009 0.79209 -0.07800
O 	O 	0.41811 0.34890 0.84552 -0.38800
O 	O 	0.94321 0.35008 0.55524 -0.36400
C 	C 	0.07074 0.35237 0.69732 0.29200
C 	C 	0.10730 0.35320 0.72440 -0.09200
H 	H 	0.24421 0.35324 0.72823 0.04200
C 	C 	0.38924 0.35517 0.87422 0.29200
O 	O 	0.06800 0.35875 0.64625 -0.39600
C 	C 	0.17737 0.35419 0.77425 0.04500
C 	C 	0.21387 0.35488 0.80141 -0.05400
C 	C 	0.24537 0.35463 0.77227 -0.05400
C 	C 	0.28189 0.35455 0.79946 0.04500
C 	C 	0.35227 0.35501 0.84840 -0.09200
H 	H 	0.21502 0.35431 0.84558 0.04100
Cu	Cu	0.52420 0.36002 0.94919 0.92700
O 	O 	0.55476 0.36506 0.83329 -0.44300
O 	O 	0.39296 0.36369 0.92301 -0.39600
Cu	Cu	0.93668 0.36362 0.62892 0.92800
Cu	Cu	0.02217 0.36652 0.60533 0.89200
O 	O 	0.98940 0.36635 0.66511 -0.64200
O 	O 	0.91009 0.36498 0.74738 -0.44400
C 	C 	0.13405 0.36762 0.70735 0.01700
Cu	Cu	0.43849 0.36617 0.96896 0.89200
O 	O 	0.47313 0.36685 0.91141 -0.64000
O 	O 	0.57374 0.36817 0.92087 -0.37500
C 	C 	0.16886 0.36815 0.73223 -0.07700
C 	C 	0.32507 0.36933 0.86456 0.01800
C 	C 	0.29013 0.36916 0.84006 -0.07700
C 	C 	0.57854 0.37223 0.86899 0.29100
O 	O 	0.88936 0.37272 0.66279 -0.37600
C 	C 	0.88660 0.37474 0.71577 0.29100
H 	H 	0.99341 0.37749 0.69220 0.16100
H 	H 	0.12781 0.37854 0.67517 0.02600
H 	H 	0.64480 0.37280 0.92161 0.03000
H 	H 	0.47169 0.37921 0.88763 0.16300
H 	H 	0.18908 0.37951 0.71918 0.04600
H 	H 	0.33110 0.38078 0.89554 0.02800
H 	H 	0.26964 0.38051 0.85218 0.04600
C 	C 	0.61356 0.38160 0.85009 -0.10300
C 	C 	0.64594 0.37959 0.88135 0.01700
H 	H 	0.70520 0.38221 0.88265 0.04500
H 	H 	0.86665 0.37638 0.82269 0.01900
O 	O 	0.46673 0.38508 0.01791 -0.38500
O 	O 	0.52580 0.38647 0.98429 -0.36600
O 	O 	0.99625 0.38885 0.56389 -0.38700
O 	O 	0.93845 0.39147 0.60221 -0.36300
C 	C 	0.68026 0.38508 0.85936 -0.07900
C 	C 	0.68253 0.39295 0.80614 0.04500
C 	C 	0.61562 0.39065 0.79821 0.01700
C 	C 	0.71878 0.39448 0.77844 -0.05400
C 	C 	0.85396 0.38523 0.73971 -0.10200
C 	C 	0.84674 0.38362 0.79579 0.01500
C 	C 	0.81300 0.39052 0.81697 -0.08000
H 	H 	0.59078 0.39277 0.77413 0.02500
H 	H 	0.72173 0.38771 0.73816 0.04000
H 	H 	0.80711 0.38840 0.85983 0.04300
C 	C 	0.49591 0.39592 0.00262 0.29200
C 	C 	0.96862 0.40026 0.58242 0.28800
C 	C 	0.64996 0.39619 0.77628 -0.08000
C 	C 	0.82829 0.39545 0.70604 0.02000
H 	H 	0.83400 0.39758 0.66315 0.03600
C 	C 	0.78611 0.39899 0.78243 0.04500
C 	C 	0.79456 0.40234 0.72736 -0.07800
H 	H 	0.65136 0.40232 0.73530 0.04500
C 	C 	0.74836 0.40283 0.80338 -0.05500
H 	H 	0.74518 0.41006 0.84306 0.04100
H 	H 	0.77460 0.40973 0.70078 0.04700
C 	C 	0.96793 0.42260 0.56932 -0.09100
H 	H 	0.90807 0.42482 0.56701 0.03800
H 	H 	0.02760 0.42572 0.56821 0.02100
C 	C 	0.49747 0.41832 0.01520 -0.09200
H 	H 	0.43798 0.42177 0.02160 0.02200
H 	H 	0.55729 0.42040 0.01058 0.04100
C 	C 	0.93405 0.43308 0.56311 0.02000
C 	C 	0.00128 0.43357 0.56337 0.01700
C 	C 	0.46453 0.42957 0.02258 0.01700
C 	C 	0.53160 0.42882 0.01601 0.02000
C 	C 	0.93361 0.45428 0.55123 -0.07600
C 	C 	0.00079 0.45474 0.55142 -0.07500
C 	C 	0.46563 0.45106 0.02943 -0.07700
C 	C 	0.53264 0.45033 0.02277 -0.07500
H 	H 	0.90735 0.46219 0.54632 0.04700
H 	H 	0.02671 0.46293 0.54598 0.04600
H 	H 	0.55902 0.45831 0.02159 0.04900
C 	C 	0.96692 0.46525 0.54607 0.04500
C 	C 	0.49961 0.46155 0.02944 0.04600
H 	H 	0.43999 0.45960 0.03409 0.04500
C 	C 	0.96617 0.48756 0.53240 -0.05300
H 	H 	0.94787 0.49289 0.50018 0.04200
C 	C 	0.50009 0.48443 0.03190 -0.05300
H 	H 	0.54255 0.48597 0.09076 0.04300
H 	H 	0.00485 0.49591 0.59283 0.04200
C 	C 	0.52249 0.49453 0.06660 -0.05300
H 	H 	0.48031 0.49305 0.00740 0.04200
C 	C 	0.98677 0.50125 0.56035 -0.05500
C 	C 	0.98788 0.52333 0.54456 0.04500
C 	C 	0.52111 0.51736 0.07131 0.04700
H 	H 	0.46148 0.51885 0.07933 0.04600
H 	H 	0.04763 0.52469 0.54375 0.04500
H 	H 	0.58052 0.52105 0.06756 0.04800
H 	H 	0.92837 0.52728 0.54427 0.04800
C 	C 	0.48705 0.52760 0.07765 -0.07700
C 	C 	0.02211 0.53327 0.53828 -0.07600
C 	C 	0.95497 0.53467 0.53806 -0.07500
C 	C 	0.55409 0.52884 0.07168 -0.07700
C 	C 	0.02356 0.55424 0.52429 0.01800
C 	C 	0.95635 0.55567 0.52419 0.02000
C 	C 	0.55303 0.55042 0.07686 0.02200
C 	C 	0.48595 0.54915 0.08262 0.01700
H 	H 	0.05023 0.56162 0.51863 0.02100
H 	H 	0.57869 0.55911 0.07650 0.03800
H 	H 	0.45950 0.55684 0.08775 0.01900
C 	C 	0.99070 0.56560 0.51721 -0.09100
H 	H 	0.93076 0.56424 0.51947 0.04000
C 	C 	0.51890 0.56071 0.08214 -0.09200
H 	H 	0.73823 0.57912 0.34853 0.04200
C 	C 	0.68948 0.58640 0.23237 -0.07800
C 	C 	0.73527 0.58643 0.30893 -0.05400
H 	H 	0.70975 0.57904 0.20624 0.04800
H 	H 	0.83202 0.58673 0.24004 0.04500
C 	C 	0.51750 0.58342 0.08878 0.28900
C 	C 	0.99244 0.58776 0.50213 0.28900
C 	C 	0.69764 0.59015 0.28735 0.04600
C 	C 	0.65554 0.59274 0.21060 0.02000
C 	C 	0.76500 0.59475 0.28426 -0.05400
C 	C 	0.80140 0.59572 0.31174 0.04500
C 	C 	0.83376 0.59240 0.28145 -0.08000
C 	C 	0.86837 0.59724 0.30359 0.01800
H 	H 	0.64997 0.59022 0.16781 0.03600
H 	H 	0.89307 0.59509 0.27922 0.02500
O 	O 	0.48955 0.59376 0.06753 -0.38600
O 	O 	0.54692 0.59334 0.10693 -0.36300
O 	O 	0.02130 0.59878 0.51765 -0.38600
O 	O 	0.96240 0.59699 0.48356 -0.36300
C 	C 	0.67044 0.59867 0.32131 -0.08000
C 	C 	0.80411 0.60304 0.36548 -0.07900
H 	H 	0.67616 0.60114 0.36409 0.04300
H 	H 	0.76218 0.60165 0.24412 0.04000
O 	O 	0.59346 0.61436 0.16622 -0.37600
C 	C 	0.59605 0.61243 0.21924 0.29100
H 	H 	0.48952 0.60680 0.19596 0.16300
O 	O 	0.91212 0.61677 0.42795 -0.37400
C 	C 	0.90640 0.61426 0.37563 0.29200
H 	H 	0.01451 0.60950 0.38650 0.16300
C 	C 	0.62937 0.60283 0.24370 -0.10100
C 	C 	0.63651 0.60503 0.29966 0.01500
C 	C 	0.87093 0.60564 0.35617 -0.10400
C 	C 	0.83871 0.60780 0.38770 0.01800
H 	H 	0.61631 0.61228 0.32611 0.01900
H 	H 	0.84023 0.61416 0.42842 0.03000
H 	H 	0.77934 0.60601 0.38908 0.04500
Cu	Cu	0.46020 0.61505 0.10723 0.89300
O 	O 	0.49254 0.61748 0.16739 -0.63800
O 	O 	0.57133 0.62139 0.25049 -0.44300
Cu	Cu	0.04818 0.61906 0.47099 0.89300
O 	O 	0.01272 0.62050 0.41448 -0.63700
O 	O 	0.92969 0.62237 0.34067 -0.44400
O 	O 	0.09215 0.62296 0.42326 -0.39500
Cu	Cu	0.54531 0.62147 0.13170 0.92700
O 	O 	0.41352 0.61969 0.14868 -0.39600
Cu	Cu	0.96195 0.62469 0.45561 0.92700
H 	H 	0.23824 0.62577 0.24379 0.04200
C 	C 	0.40758 0.63303 0.18865 0.29400
O 	O 	0.97438 0.63883 0.52703 -0.36400
C 	C 	0.09607 0.63695 0.38437 0.29200
C 	C 	0.25677 0.63677 0.26331 -0.05300
H 	H 	0.38392 0.63679 0.29328 0.03000
Cu	Cu	0.55960 0.64977 0.23963 0.86600
Cu	Cu	0.48509 0.64548 0.19190 0.89400
O 	O 	0.53677 0.63427 0.05738 -0.36200
O 	O 	0.53762 0.64843 0.16782 -0.64300
O 	O 	0.43510 0.64072 0.21779 -0.38800
C 	C 	0.50845 0.64665 0.04806 0.27900
O 	O 	0.47824 0.64512 0.07767 -0.39600
Cu	Cu	0.94185 0.65089 0.34581 0.86500
Cu	Cu	0.01821 0.64833 0.38706 0.89400
O 	O 	0.96678 0.65108 0.41568 -0.64400
O 	O 	0.06722 0.64399 0.35696 -0.38700
C 	C 	0.00277 0.65156 0.53129 0.28400
O 	O 	0.03138 0.64959 0.49859 -0.39900
C 	C 	0.36926 0.63594 0.20793 -0.09200
C 	C 	0.33993 0.63628 0.17044 0.01900
C 	C 	0.30332 0.63724 0.18866 -0.07700
C 	C 	0.29559 0.63806 0.24450 0.04600
C 	C 	0.32494 0.63808 0.28209 -0.07700
C 	C 	0.36159 0.63719 0.26387 0.02000
C 	C 	0.24390 0.64934 0.30259 -0.05400
C 	C 	0.20574 0.64703 0.32341 0.04600
C 	C 	0.19967 0.64486 0.37942 -0.07800
C 	C 	0.16382 0.64180 0.39932 0.01900
C 	C 	0.13361 0.64112 0.36338 -0.09200
C 	C 	0.13956 0.64402 0.30740 0.02100
C 	C 	0.17545 0.64703 0.28753 -0.07700
H 	H 	0.34550 0.63553 0.12717 0.02600
H 	H 	0.28090 0.63709 0.15936 0.04600
H 	H 	0.31934 0.63817 0.32538 0.04600
H 	H 	0.22281 0.64519 0.40747 0.04500
H 	H 	0.15953 0.63992 0.44266 0.02400
H 	H 	0.11652 0.64362 0.27920 0.03200
H 	H 	0.17974 0.64923 0.24430 0.04700
H 	H 	0.54219 0.66084 0.14512 0.17300
H 	H 	0.96267 0.66383 0.43724 0.17200
C 	C 	0.00298 0.66765 0.57376 -0.09300
H 	H 	0.06182 0.66522 0.58911 0.02400
C 	C 	0.51037 0.66204 0.00386 -0.08000
H 	H 	0.45256 0.65907 0.98205 0.02600
H 	H 	0.26230 0.66044 0.32200 0.04100
O 	O 	0.48153 0.67303 0.22597 -0.38300
O 	O 	0.01921 0.67569 0.35201 -0.38200
O 	O 	0.95695 0.67885 0.33279 -0.42100
C 	C 	0.03627 0.67305 0.59964 0.02000
C 	C 	0.96998 0.67771 0.58852 0.01800
H 	H 	0.94412 0.67367 0.56886 0.02500
C 	C 	0.47852 0.66685 0.97362 0.01000
C 	C 	0.54395 0.67202 0.99181 0.00400
H 	H 	0.56872 0.66843 0.01482 0.03100
C 	C 	0.50825 0.68331 0.25125 0.28500
O 	O 	0.54329 0.67777 0.24670 -0.42300
C 	C 	0.99162 0.68465 0.32537 0.28500
C 	C 	0.03662 0.68845 0.63958 -0.07800
C 	C 	0.48015 0.68161 0.93208 -0.07300
H 	H 	0.95578 0.69719 0.23454 0.01800
C 	C 	0.00386 0.69883 0.65344 0.04700
C 	C 	0.97041 0.69323 0.62824 -0.07800
H 	H 	0.06246 0.69251 0.65930 0.04500
C 	C 	0.51345 0.69193 0.92092 0.04200
C 	C 	0.54549 0.68690 0.95048 -0.07100
H 	H 	0.45540 0.68522 0.90903 0.04400
H 	H 	0.44343 0.69351 0.30077 0.03300
C 	C 	0.46114 0.99645 0.54241 -0.05400
C 	C 	0.99897 0.70350 0.29322 -0.09500
C 	C 	0.97738 0.70781 0.24711 0.01800
H 	H 	0.01890 0.71238 0.73320 0.04100
H 	H 	0.94481 0.70089 0.63942 0.04700
H 	H 	0.50265 0.70425 0.83829 0.04100
H 	H 	0.57153 0.69450 0.94147 0.04400
C 	C 	0.49921 0.70282 0.27979 -0.09200
C 	C 	0.46457 0.70531 0.30499 0.01500
C 	C 	0.02697 0.71741 0.30884 0.02300
H 	H 	0.04361 0.71437 0.34462 0.03300
C 	C 	0.00476 0.71534 0.69494 -0.05300
C 	C 	0.51457 0.70785 0.87778 -0.05300
H 	H 	0.55297 0.71673 0.26613 0.02900
C 	C 	0.98352 0.72586 0.21710 -0.07900
H 	H 	0.96619 0.72919 0.18219 0.04600
C 	C 	0.45768 0.72263 0.33772 -0.07600
C 	C 	0.52629 0.71828 0.28587 0.01600
H 	H 	0.43123 0.72410 0.35818 0.04600
C 	C 	0.03301 0.73554 0.27884 -0.07900
C 	C 	0.01155 0.73974 0.23257 0.04800
H 	H 	0.02093 0.74461 0.12610 0.04100
C 	C 	0.99241 0.73449 0.68342 -0.05400
H 	H 	0.97760 0.73736 0.64565 0.04100
C 	C 	0.52602 0.72722 0.88880 -0.05400
H 	H 	0.53869 0.73068 0.92790 0.04100
C 	C 	0.48518 0.73772 0.34521 0.04400
C 	C 	0.51949 0.73550 0.31883 -0.07600
H 	H 	0.05676 0.74460 0.73484 0.04500
H 	H 	0.46509 0.73572 0.82712 0.04500
H 	H 	0.05436 0.74629 0.29154 0.04700
C 	C 	0.01691 0.75931 0.20237 -0.05400
C 	C 	0.02048 0.75926 0.14793 -0.05300
C 	C 	0.99902 0.75198 0.72109 0.04300
C 	C 	0.03437 0.75529 0.74336 -0.07500
C 	C 	0.52119 0.74420 0.84891 0.04400
C 	C 	0.48728 0.74683 0.82169 -0.07700
C 	C 	0.47947 0.75445 0.38556 -0.05300
H 	H 	0.54132 0.74674 0.32527 0.04500
H 	H 	0.46681 0.75067 0.42444 0.04100
H 	H 	0.97894 0.76638 0.05871 0.04600
C 	C 	0.97074 0.76639 0.73090 -0.07600
H 	H 	0.94352 0.76412 0.71335 0.04500
C 	C 	0.54914 0.75911 0.84271 -0.07700
H 	H 	0.57530 0.75731 0.86379 0.04500
C 	C 	0.01836 0.77872 0.11630 0.04600
C 	C 	0.99537 0.77970 0.07044 -0.07800
H 	H 	0.01702 0.77386 0.22466 0.04200
C 	C 	0.04123 0.77274 0.77543 0.01600
H 	H 	0.06860 0.77503 0.79244 0.02800
C 	C 	0.48132 0.76427 0.78916 0.01600
H 	H 	0.45495 0.76613 0.76874 0.02800
C 	C 	0.49074 0.77394 0.37552 -0.05400
C 	C 	0.01303 0.78732 0.78478 -0.09100
C 	C 	0.97763 0.78394 0.76275 0.01400
C 	C 	0.50883 0.77957 0.78446 -0.09300
C 	C 	0.54310 0.77666 0.81051 0.01600
H 	H 	0.50249 0.77785 0.33613 0.04200
H 	H 	0.43461 0.78704 0.44114 0.04700
C 	C 	0.99328 0.79789 0.03977 0.01600
C 	C 	0.04009 0.79595 0.13048 -0.07600
H 	H 	0.97546 0.79836 0.00434 0.03000
H 	H 	0.05877 0.79518 0.16490 0.04700
H 	H 	0.95568 0.79512 0.76922 0.03400
H 	H 	0.56462 0.78829 0.80733 0.03500
C 	C 	0.49258 0.78940 0.41971 0.04700
C 	C 	0.46089 0.79438 0.45015 -0.07700
H 	H 	0.55069 0.79576 0.40731 0.04500
C 	C 	0.02105 0.80656 0.81519 0.28700
C 	C 	0.52620 0.79935 0.43098 -0.07800
C 	C 	0.50062 0.79931 0.75631 0.28800
O 	O 	0.52838 0.81105 0.73896 -0.38600
O 	O 	0.46579 0.80492 0.74968 -0.42400
O 	O 	0.99382 0.81585 0.84187 -0.38700
O 	O 	0.05579 0.81277 0.81976 -0.42400
C 	C 	0.01441 0.81529 0.05443 -0.09400
C 	C 	0.03795 0.81420 0.09988 0.01700
C 	C 	0.52851 0.81372 0.47336 0.02000
C 	C 	0.46309 0.80890 0.49231 0.01900
H 	H 	0.43858 0.81249 0.51591 0.02500
H 	H 	0.46949 0.82098 0.64923 0.17200
H 	H 	0.05124 0.82491 0.92669 0.17300
H 	H 	0.05449 0.82747 0.11163 0.03500
C 	C 	0.49700 0.81854 0.50435 -0.09500
H 	H 	0.55471 0.82124 0.48180 0.02400
C 	C 	0.01209 0.83451 0.02195 0.28600
O 	O 	0.98299 0.83791 0.99096 -0.40200
H 	H 	0.76870 0.83400 0.75488 0.04200
Cu	Cu	0.45022 0.83298 0.74202 0.86700
Cu	Cu	0.52559 0.83711 0.69702 0.89500
O 	O 	0.47345 0.83366 0.67112 -0.64200
C 	C 	0.49958 0.83365 0.54910 0.28500
O 	O 	0.52982 0.83465 0.57866 -0.39300
Cu	Cu	0.07101 0.84038 0.83752 0.86400
Cu	Cu	0.99613 0.84245 0.88025 0.89300
O 	O 	0.04738 0.83834 0.90803 -0.64500
C 	C 	0.77299 0.84608 0.78505 -0.05400
H 	H 	0.83851 0.84566 0.73210 0.04500
H 	H 	0.79061 0.85103 0.89208 0.04600
O 	O 	0.47183 0.84628 0.55909 -0.36400
O 	O 	0.57485 0.84291 0.72413 -0.38500
O 	O 	0.04016 0.84755 0.02120 -0.36300
O 	O 	0.94761 0.84820 0.85035 -0.39000
C 	C 	0.88138 0.85264 0.85430 -0.09300
C 	C 	0.87698 0.84985 0.79795 0.02000
C 	C 	0.84158 0.84777 0.77559 -0.07800
C 	C 	0.81022 0.84865 0.80912 0.04600
C 	C 	0.81458 0.85102 0.86556 -0.07700
C 	C 	0.84996 0.85311 0.88799 0.01800
H 	H 	0.90090 0.84948 0.77139 0.03100
H 	H 	0.85295 0.85486 0.93160 0.02600
C 	C 	0.91872 0.85502 0.87808 0.29300
C 	C 	0.70865 0.85725 0.77110 0.04600
C 	C 	0.67657 0.85800 0.80316 -0.07800
C 	C 	0.64164 0.85639 0.77894 0.01800
C 	C 	0.63846 0.85422 0.72226 -0.09300
C 	C 	0.67063 0.85387 0.69008 0.01800
C 	C 	0.70551 0.85550 0.71433 -0.07700
H 	H 	0.67870 0.85971 0.84690 0.04500
H 	H 	0.61708 0.85697 0.80421 0.02700
H 	H 	0.66866 0.85220 0.64633 0.03000
H 	H 	0.73006 0.85552 0.68900 0.04600
C 	C 	0.60159 0.85226 0.69675 0.29100
Cu	Cu	0.05317 0.86350 0.95275 0.92700
C 	C 	0.74541 0.85932 0.79698 -0.05400
Cu	Cu	0.46612 0.86024 0.63243 0.92700
O 	O 	0.59772 0.85733 0.64486 -0.39700
Cu	Cu	0.96692 0.86933 0.96949 0.89200
O 	O 	0.00241 0.86932 0.91283 -0.63800
O 	O 	0.92275 0.86711 0.92117 -0.39600
H 	H 	0.74959 0.87137 0.82729 0.04100
Cu	Cu	0.55102 0.86447 0.60543 0.89200
O 	O 	0.51929 0.86416 0.66638 -0.64100
O 	O 	0.44141 0.86171 0.75216 -0.44400
O 	O 	0.10308 0.87167 0.92604 -0.37300
O 	O 	0.08466 0.86877 0.83817 -0.44400
O 	O 	0.41911 0.86884 0.66804 -0.37700
C 	C 	0.41740 0.87129 0.72100 0.29000
C 	C 	0.10868 0.87544 0.87419 0.29200
H 	H 	0.00082 0.88107 0.88704 0.16200
H 	H 	0.17477 0.87381 0.92703 0.03000
H 	H 	0.52297 0.87569 0.69241 0.16100
O 	O 	0.99444 0.88835 0.01881 -0.38600
C 	C 	0.14452 0.88394 0.85582 -0.10400
C 	C 	0.17661 0.88081 0.88708 0.01800
H 	H 	0.39695 0.87167 0.82776 0.01800
O 	O 	0.52343 0.88637 0.56481 -0.38800
O 	O 	0.05356 0.89034 0.98595 -0.36700
C 	C 	0.21142 0.88545 0.86542 -0.07900
C 	C 	0.38538 0.88210 0.74569 -0.10200
C 	C 	0.37779 0.87983 0.80150 0.01500
H 	H 	0.23603 0.88172 0.88865 0.04500
H 	H 	0.25333 0.88783 0.74437 0.04000
O 	O 	0.46581 0.88788 0.60413 -0.36200
C 	C 	0.02325 0.89948 0.00374 0.29400
C 	C 	0.21451 0.89358 0.81255 0.04500
C 	C 	0.14749 0.89321 0.80430 0.01700
C 	C 	0.34457 0.88729 0.82316 -0.08000
H 	H 	0.12292 0.89615 0.78023 0.02500
H 	H 	0.33836 0.88473 0.86575 0.04300
C 	C 	0.49540 0.89725 0.58429 0.28700
C 	C 	0.18232 0.89791 0.78272 -0.08000
C 	C 	0.25092 0.89430 0.78505 -0.05400
C 	C 	0.28117 0.90160 0.81055 -0.05400
C 	C 	0.31855 0.89695 0.78934 0.04500
C 	C 	0.32743 0.90080 0.73464 -0.07800
C 	C 	0.36067 0.89338 0.71287 0.01900
H 	H 	0.18436 0.90423 0.74200 0.04500
H 	H 	0.30817 0.90904 0.70868 0.04700
H 	H 	0.36673 0.89598 0.67026 0.03600
C 	C 	0.02391 0.92187 0.01623 -0.09200
H 	H 	0.08370 0.92396 0.02108 0.04000
H 	H 	0.96432 0.92525 0.01298 0.02000
H 	H 	0.27858 0.90854 0.85067 0.04100
H 	H 	0.53155 0.91853 0.50459 0.03200
C 	C 	0.49344 0.91968 0.57259 -0.09000
C 	C 	0.05776 0.93236 0.02277 0.02200
C 	C 	0.99059 0.93305 0.01882 0.01700
C 	C 	0.51452 0.92832 0.53019 0.01700
H 	H 	0.45530 0.92627 0.63828 0.03300
C 	C 	0.47132 0.93266 0.60501 0.01600
C 	C 	0.05820 0.95379 0.03123 -0.07700
C 	C 	0.99107 0.95446 0.02719 -0.07800
C 	C 	0.51370 0.94968 0.52069 -0.07700
H 	H 	0.08443 0.96176 0.03571 0.04900
H 	H 	0.96521 0.96297 0.02745 0.04600
C 	C 	0.47052 0.95401 0.59544 -0.07500
H 	H 	0.53029 0.95618 0.48817 0.04600
C 	C 	0.02489 0.96492 0.03378 0.04800
C 	C 	0.49157 0.96260 0.55299 0.04500
H 	H 	0.45409 0.96390 0.62163 0.04700
H 	H 	0.98468 0.98840 0.10059 0.04100
C 	C 	0.02568 0.98771 0.03953 -0.05400
C 	C 	0.00340 0.99739 0.07522 -0.05200
C 	C 	0.49254 0.98528 0.54445 -0.05300
H 	H 	0.43445 0.98873 0.54507 0.04300
H 	H 	0.04474 0.99663 0.01456 0.04300
H 	H 	0.51902 0.99272 0.53660 0.04000
