data_crystal

_cell_length_a 47.23350
_cell_length_b 73.75513
_cell_length_c 24.78134
_cell_angle_alpha 89.99963
_cell_angle_beta  90.00030
_cell_angle_gamma 91.89855

_symmetry_space_group_name_	'P 1'
_symmetry_space_group_name_H-M	'P 1'

loop_
_symmetry_equiv_pos_as_xyz
  x,y,z

loop_
_atom_site_label
_atom_site_type_symbol
_atom_site_fract_x
_atom_site_fract_y
_atom_site_fract_z
_atom_site_charge
Cu	Cu	0.20129 0.55019 0.25790 0.92700
Cu	Cu	0.16816 0.58800 0.24520 0.86500
Cu	Cu	0.13855 0.55201 0.23038 0.89500
Cu	Cu	0.16087 0.51532 0.25751 0.89200
C 	C 	0.21314 0.51940 0.32342 0.28800
O 	O 	0.21353 0.53559 0.19354 -0.36600
C 	C 	0.11993 0.58538 0.17620 0.28300
O 	O 	0.16123 0.53959 0.28207 -0.64000
O 	O 	0.17563 0.56454 0.21365 -0.64300
O 	O 	0.22256 0.57076 0.29190 -0.37900
O 	O 	0.18258 0.58486 0.31617 -0.44100
O 	O 	0.19806 0.50899 0.29006 -0.38700
O 	O 	0.10341 0.53989 0.25214 -0.38700
C 	C 	0.09855 0.52214 0.25259 0.28900
C 	C 	0.19507 0.52840 0.15931 0.28000
O 	O 	0.16901 0.52447 0.17516 -0.39500
O 	O 	0.11898 0.51075 0.26301 -0.39500
O 	O 	0.22067 0.53617 0.30999 -0.36400
C 	C 	0.20962 0.58212 0.32341 0.29100
O 	O 	0.11527 0.56785 0.18573 -0.38300
O 	O 	0.14497 0.59330 0.18466 -0.42300
H 	H 	0.15544 0.54122 0.32012 0.16200
H 	H 	0.18006 0.56501 0.17461 0.17100
Cu	Cu	0.29255 0.44871 0.75748 0.92800
C 	C 	0.28173 0.47949 0.82376 0.28900
O 	O 	0.28080 0.46370 0.69357 -0.36500
O 	O 	0.27051 0.42834 0.79084 -0.37800
O 	O 	0.29714 0.48978 0.79059 -0.38600
O 	O 	0.27370 0.46283 0.81003 -0.36400
C 	C 	0.28298 0.41656 0.82163 0.29200
Cu	Cu	0.28831 0.94783 0.25789 0.92800
C 	C 	0.27684 0.97883 0.32322 0.28800
O 	O 	0.27540 0.96282 0.19481 -0.36500
O 	O 	0.26709 0.92725 0.29218 -0.37700
O 	O 	0.29209 0.98895 0.28928 -0.38500
C 	C 	0.29351 0.96981 0.15960 0.28000
O 	O 	0.27011 0.96176 0.31178 -0.36600
C 	C 	0.28019 0.91525 0.32111 0.29500
Cu	Cu	0.10609 0.79856 0.47478 0.92800
Cu	Cu	0.07389 0.83639 0.49662 0.86800
Cu	Cu	0.05742 0.80183 0.55467 0.89500
Cu	Cu	0.08914 0.76703 0.55521 0.89300
C 	C 	0.14618 0.77245 0.50709 0.28900
O 	O 	0.08838 0.77852 0.42880 -0.36500
C 	C 	0.01761 0.83130 0.53575 0.28200
O 	O 	0.09505 0.79251 0.55527 -0.63800
O 	O 	0.06968 0.81060 0.48175 -0.64300
O 	O 	0.12905 0.81995 0.45006 -0.37700
O 	O 	0.11278 0.83819 0.51617 -0.44100
O 	O 	0.12478 0.76097 0.51683 -0.38800
O 	O 	0.04801 0.79345 0.62687 -0.38500
C 	C 	0.04963 0.77655 0.64402 0.28900
C 	C 	0.06423 0.77030 0.44231 0.27900
O 	O 	0.05674 0.76923 0.49339 -0.39600
O 	O 	0.06951 0.76581 0.62627 -0.39500
O 	O 	0.14215 0.78788 0.48194 -0.36400
C 	C 	0.13241 0.83426 0.48105 0.29400
O 	O 	0.02192 0.81512 0.55688 -0.38200
O 	O 	0.03370 0.83787 0.49645 -0.42200
H 	H 	0.10745 0.79739 0.58441 0.16200
H 	H 	0.05571 0.80765 0.45301 0.17100
Cu	Cu	0.10327 0.29777 0.95006 0.93000
Cu	Cu	0.07583 0.33614 0.98281 0.86900
Cu	Cu	0.05949 0.30167 0.03944 0.89100
Cu	Cu	0.08857 0.26572 0.03036 0.88800
C 	C 	0.14357 0.27066 0.97338 0.28700
O 	O 	0.08198 0.27891 0.90524 -0.36400
C 	C 	0.02072 0.33242 0.02880 0.27000
O 	O 	0.09600 0.29105 0.03166 -0.64300
O 	O 	0.06852 0.31079 0.96539 -0.64000
O 	O 	0.12634 0.31888 0.92392 -0.38000
O 	O 	0.11554 0.33634 0.99582 -0.43800
O 	O 	0.12251 0.25934 0.98690 -0.38000
O 	O 	0.05329 0.29258 0.11201 -0.38700
C 	C 	0.05358 0.27530 0.12603 0.28700
C 	C 	0.05832 0.27095 0.92241 0.28100
O 	O 	0.05353 0.26918 0.97448 -0.38800
O 	O 	0.07173 0.26415 0.10410 -0.39600
O 	O 	0.13861 0.28603 0.94854 -0.36400
C 	C 	0.13301 0.33227 0.95681 0.29200
O 	O 	0.02587 0.31645 0.05074 -0.38400
O 	O 	0.03607 0.33902 0.98851 -0.41200
H 	H 	0.11028 0.29528 0.05849 0.16000
H 	H 	0.05291 0.30867 0.93924 0.17200
Cu	Cu	0.19497 0.04989 0.75959 0.92800
Cu	Cu	0.16378 0.08818 0.74101 0.86700
Cu	Cu	0.13317 0.05232 0.72544 0.89500
Cu	Cu	0.15386 0.01549 0.75538 0.89200
C 	C 	0.20435 0.01906 0.82680 0.28700
O 	O 	0.20908 0.03495 0.69754 -0.36600
C 	C 	0.11693 0.08582 0.66900 0.28200
O 	O 	0.15403 0.03979 0.77956 -0.64100
O 	O 	0.17108 0.06433 0.71186 -0.64200
O 	O 	0.21607 0.07032 0.79466 -0.37700
O 	O 	0.17619 0.08538 0.81346 -0.44100
O 	O 	0.18978 0.00878 0.79224 -0.38600
O 	O 	0.09721 0.04068 0.74442 -0.38800
C 	C 	0.09176 0.02299 0.74529 0.29000
C 	C 	0.19179 0.02765 0.66148 0.28100
O 	O 	0.16507 0.02424 0.67390 -0.39400
O 	O 	0.11177 0.01126 0.75535 -0.39300
O 	O 	0.21220 0.03587 0.81440 -0.36400
C 	C 	0.20288 0.08232 0.82346 0.29200
O 	O 	0.11149 0.06836 0.67836 -0.38200
O 	O 	0.14218 0.09329 0.67823 -0.42200
H 	H 	0.14719 0.04151 0.81692 0.16300
H 	H 	0.17662 0.06444 0.67332 0.17200
C 	C 	0.00543 0.00301 0.74266 0.01900
C 	C 	0.01229 0.02003 0.76541 -0.06400
C 	C 	0.04040 0.02666 0.76579 0.01300
C 	C 	0.06196 0.01626 0.74373 -0.08600
C 	C 	0.05504 0.99927 0.72079 0.01100
C 	C 	0.02691 0.99271 0.72013 -0.06300
H 	H 	0.04543 0.03973 0.78396 0.03200
H 	H 	0.07141 0.99120 0.70318 0.02800
H 	H 	0.02182 0.97963 0.70204 0.04300
C 	C 	0.28850 0.14542 0.88774 -0.06300
C 	C 	0.27934 0.13249 0.92599 0.01500
C 	C 	0.29336 0.13148 0.97576 -0.05500
C 	C 	0.25692 0.11894 0.91166 0.02200
H 	H 	0.28627 0.12165 0.00578 0.03200
H 	H 	0.27787 0.14628 0.84912 0.04200
C 	C 	0.23045 0.12461 0.89367 -0.06700
C 	C 	0.21166 0.11230 0.86827 0.01200
C 	C 	0.21918 0.09420 0.86085 -0.09700
C 	C 	0.24441 0.08818 0.88367 0.01600
C 	C 	0.26327 0.10051 0.90869 -0.06500
H 	H 	0.22507 0.13874 0.89693 0.04400
H 	H 	0.19200 0.11707 0.85187 0.01600
H 	H 	0.25002 0.07411 0.87986 0.03700
H 	H 	0.28345 0.09593 0.92322 0.04500
C 	C 	0.20957 0.24669 0.01542 -0.07300
C 	C 	0.22882 0.25259 0.97550 0.02700
C 	C 	0.21997 0.26424 0.93458 -0.06300
C 	C 	0.19209 0.26995 0.93348 0.01200
C 	C 	0.17273 0.26407 0.97340 -0.07300
C 	C 	0.18162 0.25239 0.01435 -0.00200
C 	C 	0.25799 0.24612 0.97542 0.02700
H 	H 	0.23469 0.26882 0.90354 0.04600
H 	H 	0.18551 0.27887 0.90143 0.04000
H 	H 	0.16699 0.24788 0.04563 0.02200
H 	H 	0.21623 0.23763 0.04706 0.04200
C 	C 	0.27721 0.25186 0.01558 -0.07300
C 	C 	0.29473 0.22887 0.93299 0.01200
C 	C 	0.26687 0.23462 0.93415 -0.06300
H 	H 	0.27054 0.26081 0.04749 0.04200
H 	H 	0.25216 0.23017 0.90291 0.04600
C 	C 	0.22463 0.77185 0.53473 -0.06400
C 	C 	0.23126 0.75458 0.51564 0.01900
C 	C 	0.20967 0.74302 0.49493 -0.06400
C 	C 	0.18175 0.74868 0.49327 0.01400
C 	C 	0.17522 0.76606 0.51156 -0.08800
C 	C 	0.19677 0.77762 0.53226 0.01200
C 	C 	0.26086 0.74869 0.51647 0.01900
H 	H 	0.21459 0.72973 0.47959 0.04500
H 	H 	0.16532 0.73972 0.47668 0.03300
H 	H 	0.19192 0.79106 0.54650 0.02600
H 	H 	0.24106 0.78082 0.55126 0.04300
C 	C 	0.28234 0.75931 0.49147 -0.06400
C 	C 	0.29511 0.72599 0.53819 0.01200
C 	C 	0.26749 0.73214 0.54059 -0.06300
H 	H 	0.27744 0.77205 0.47245 0.04500
H 	H 	0.25117 0.72396 0.56063 0.04300
C 	C 	0.25898 0.01236 0.43276 -0.06300
C 	C 	0.23607 0.00330 0.45833 0.01800
C 	C 	0.22551 0.98675 0.43752 -0.06300
C 	C 	0.23829 0.97900 0.39261 0.01100
C 	C 	0.26190 0.98772 0.36803 -0.08500
C 	C 	0.27189 0.00459 0.38795 0.00900
C 	C 	0.22486 0.01030 0.50959 0.01800
H 	H 	0.20785 0.97965 0.45700 0.04400
H 	H 	0.23004 0.96610 0.37743 0.04000
H 	H 	0.29005 0.01150 0.36956 0.02600
H 	H 	0.26719 0.02521 0.44837 0.04300
C 	C 	0.24262 0.01201 0.55476 -0.06300
C 	C 	0.23183 0.01774 0.60411 0.01000
C 	C 	0.20308 0.02180 0.60896 -0.08900
C 	C 	0.18531 0.02022 0.56361 0.00800
C 	C 	0.19617 0.01450 0.51411 -0.06300
H 	H 	0.26471 0.00863 0.55181 0.04400
H 	H 	0.24574 0.01875 0.63881 0.03700
H 	H 	0.16317 0.02348 0.56659 0.03000
H 	H 	0.18230 0.01327 0.47939 0.04300
C 	C 	0.24017 0.98478 0.91501 -0.06500
C 	C 	0.24596 0.99514 0.96147 0.02700
C 	C 	0.23737 0.01315 0.96405 -0.05100
C 	C 	0.22339 0.02081 0.92040 0.00800
C 	C 	0.21776 0.01053 0.87370 -0.08500
C 	C 	0.22608 0.99242 0.87131 0.01300
C 	C 	0.26029 0.98703 0.00810 0.00700
H 	H 	0.24142 0.02118 0.00002 0.03500
H 	H 	0.21693 0.03474 0.92287 0.03400
H 	H 	0.22209 0.98438 0.83537 0.03400
H 	H 	0.24670 0.97086 0.91267 0.04700
C 	C 	0.24742 0.97232 0.03554 -0.06000
C 	C 	0.25908 0.96609 0.08366 0.00900
C 	C 	0.28364 0.97463 0.10507 -0.08800
C 	C 	0.29734 0.98875 0.07608 0.00800
C 	C 	0.28572 0.99490 0.02779 -0.06000
H 	H 	0.22791 0.96605 0.02045 0.03900
H 	H 	0.24865 0.95491 0.10492 0.02900
H 	H 	0.29603 0.00612 0.00646 0.04000
C 	C 	0.20687 0.85275 0.46097 -0.06600
C 	C 	0.20182 0.87004 0.43992 0.02000
C 	C 	0.17393 0.87606 0.43739 -0.06700
C 	C 	0.15133 0.86467 0.45373 0.01600
C 	C 	0.15631 0.84704 0.47166 -0.09800
C 	C 	0.18416 0.84120 0.47606 0.01900
C 	C 	0.22527 0.88112 0.41584 0.02000
H 	H 	0.16970 0.88931 0.42100 0.04300
H 	H 	0.12985 0.86927 0.45031 0.00800
H 	H 	0.18819 0.82764 0.49031 0.03000
H 	H 	0.22832 0.84808 0.46414 0.04400
C 	C 	0.22838 0.89968 0.42805 -0.06600
C 	C 	0.24729 0.91078 0.39852 0.01900
C 	C 	0.26383 0.90331 0.35768 -0.09900
C 	C 	0.26219 0.88458 0.34807 0.01600
C 	C 	0.24280 0.87355 0.37660 -0.06700
H 	H 	0.21544 0.90561 0.45909 0.04400
H 	H 	0.24860 0.92523 0.40652 0.03000
H 	H 	0.27495 0.87870 0.31666 0.00700
H 	H 	0.24061 0.85926 0.36668 0.04300
C 	C 	0.00020 0.24941 0.80441 0.01900
C 	C 	0.01515 0.26583 0.79480 -0.06400
C 	C 	0.03361 0.27308 0.83387 0.01200
C 	C 	0.03725 0.26398 0.88304 -0.08800
C 	C 	0.02178 0.24774 0.89315 0.01300
H 	H 	0.01272 0.27287 0.75678 0.04400
H 	H 	0.04519 0.28572 0.82582 0.02600
C 	C 	0.03038 0.24781 0.24822 -0.06400
C 	C 	0.03775 0.26931 0.17476 -0.08600
C 	C 	0.04659 0.25432 0.20475 0.01000
H 	H 	0.06588 0.24762 0.19416 0.03100
H 	H 	0.03710 0.23605 0.27041 0.04300
C 	C 	0.02699 0.13356 0.52662 -0.06500
C 	C 	0.03406 0.13295 0.58152 0.01800
C 	C 	0.02046 0.14424 0.61824 -0.06400
C 	C 	0.00568 0.14483 0.50885 0.01100
C 	C 	0.05506 0.12011 0.60081 0.01700
H 	H 	0.02605 0.14401 0.66063 0.04300
H 	H 	0.00007 0.14495 0.46646 0.03000
H 	H 	0.03760 0.12502 0.49792 0.04300
C 	C 	0.04653 0.10545 0.63374 -0.06300
C 	C 	0.06661 0.09371 0.65396 0.00800
C 	C 	0.09543 0.09659 0.64165 -0.08900
C 	C 	0.10379 0.11091 0.60710 0.01000
C 	C 	0.08368 0.12261 0.58681 -0.06400
H 	H 	0.02440 0.10331 0.64421 0.04200
H 	H 	0.05986 0.08274 0.68055 0.03200
H 	H 	0.12590 0.11313 0.59660 0.03100
H 	H 	0.09040 0.13378 0.56093 0.04300
C 	C 	0.25520 0.37504 0.89582 -0.06700
C 	C 	0.22795 0.38043 0.90985 0.02100
C 	C 	0.22063 0.39854 0.90226 -0.06500
C 	C 	0.23954 0.41076 0.87694 0.01600
C 	C 	0.26583 0.40494 0.85839 -0.09700
C 	C 	0.27406 0.38723 0.87010 0.01100
C 	C 	0.20601 0.36673 0.92546 0.01500
H 	H 	0.19978 0.40291 0.91364 0.04500
H 	H 	0.23330 0.42456 0.86982 0.03800
H 	H 	0.29449 0.38263 0.85701 0.01800
H 	H 	0.26128 0.36119 0.90260 0.04300
C 	C 	0.19858 0.35259 0.88979 -0.06300
C 	C 	0.17539 0.34097 0.90094 0.01300
C 	C 	0.15917 0.34344 0.94777 -0.09600
C 	C 	0.16741 0.35711 0.98469 0.01900
C 	C 	0.19073 0.36869 0.97355 -0.05500
H 	H 	0.21024 0.35096 0.85255 0.04200
H 	H 	0.16963 0.33034 0.87243 0.03700
H 	H 	0.15554 0.35896 0.02156 0.01700
H 	H 	0.19652 0.37943 0.00167 0.03100
C 	C 	0.23988 0.52583 0.03350 -0.05900
C 	C 	0.22629 0.51139 0.00594 0.00300
C 	C 	0.20080 0.50379 0.02617 -0.05900
C 	C 	0.18984 0.50988 0.07511 0.00700
C 	C 	0.20425 0.52369 0.10420 -0.08700
C 	C 	0.22886 0.53201 0.08223 0.00800
C 	C 	0.24000 0.50322 0.95867 0.03400
H 	H 	0.18992 0.49281 0.00475 0.03900
H 	H 	0.17070 0.50345 0.09120 0.02900
H 	H 	0.23983 0.54298 0.10352 0.03000
H 	H 	0.25945 0.53189 0.01803 0.03800
C 	C 	0.24646 0.51377 0.91286 -0.06800
C 	C 	0.26041 0.50615 0.86896 0.01500
C 	C 	0.26790 0.48787 0.87045 -0.08800
C 	C 	0.26141 0.47736 0.91632 0.01500
C 	C 	0.24760 0.48500 0.96021 -0.06700
H 	H 	0.24065 0.52785 0.91125 0.04700
H 	H 	0.26504 0.51437 0.83362 0.03300
H 	H 	0.26720 0.46327 0.91809 0.03100
H 	H 	0.24303 0.47681 0.99564 0.04900
C 	C 	0.24898 0.48530 0.41231 -0.06400
C 	C 	0.25524 0.49585 0.45822 0.01800
C 	C 	0.24745 0.51403 0.45979 -0.06300
C 	C 	0.23359 0.52163 0.41590 0.01100
C 	C 	0.22723 0.51111 0.36998 -0.08700
C 	C 	0.23498 0.49288 0.36840 0.01200
C 	C 	0.26881 0.48768 0.50565 0.01900
H 	H 	0.25188 0.52222 0.49528 0.04400
H 	H 	0.22761 0.53567 0.41772 0.03200
H 	H 	0.23048 0.48465 0.33303 0.03300
H 	H 	0.25495 0.47125 0.41068 0.04300
C 	C 	0.25519 0.47319 0.53293 -0.06300
C 	C 	0.26605 0.46701 0.58178 0.01200
C 	C 	0.29052 0.47536 0.60416 -0.08900
C 	C 	0.29418 0.49534 0.52630 -0.06400
H 	H 	0.23572 0.46710 0.51714 0.04300
H 	H 	0.25505 0.45600 0.60287 0.03000
C 	C 	0.27119 0.60030 0.40634 -0.06500
C 	C 	0.26163 0.61742 0.42115 0.01800
C 	C 	0.23353 0.62183 0.41021 -0.06600
C 	C 	0.21589 0.60986 0.38083 0.00900
C 	C 	0.22618 0.59330 0.36241 -0.09600
C 	C 	0.25350 0.58825 0.37748 0.01300
C 	C 	0.28196 0.63143 0.44159 0.01800
H 	H 	0.22574 0.63485 0.42251 0.04200
H 	H 	0.19467 0.61381 0.37056 0.02000
H 	H 	0.26139 0.57525 0.36523 0.03800
H 	H 	0.29274 0.59666 0.41512 0.04200
C 	C 	0.28661 0.64756 0.41248 -0.06400
H 	H 	0.29494 0.61568 0.51034 0.04200
H 	H 	0.27378 0.65041 0.37744 0.04200
C 	C 	0.01229 0.50185 0.25018 0.01800
C 	C 	0.03321 0.49195 0.27606 -0.06400
C 	C 	0.06133 0.49852 0.27684 0.01000
C 	C 	0.06883 0.51509 0.25168 -0.08600
C 	C 	0.04786 0.52492 0.22549 0.00900
C 	C 	0.01974 0.51833 0.22480 -0.06300
H 	H 	0.02764 0.47925 0.29599 0.04300
H 	H 	0.07718 0.49083 0.29753 0.03100
H 	H 	0.05334 0.53760 0.20540 0.03500
H 	H 	0.00182 0.76439 0.88538 0.04400
C 	C 	0.02798 0.75279 0.77342 -0.06400
C 	C 	0.04457 0.75934 0.73051 0.01200
C 	C 	0.03294 0.77084 0.69171 -0.08600
H 	H 	0.03699 0.74367 0.80257 0.04500
H 	H 	0.06638 0.75538 0.72721 0.03200
C 	C 	0.01083 0.74734 0.31837 0.01700
C 	C 	0.01696 0.75837 0.41007 0.00800
C 	C 	0.04590 0.76199 0.40010 -0.08800
C 	C 	0.05725 0.75789 0.34925 0.00900
C 	C 	0.03977 0.75064 0.30862 -0.06300
H 	H 	0.00786 0.76149 0.44897 0.03100
H 	H 	0.07958 0.76035 0.34114 0.03700
H 	H 	0.04867 0.74774 0.26938 0.04400
C 	C 	0.02544 0.63127 0.03856 -0.05800
C 	C 	0.03450 0.63127 0.09242 0.01400
C 	C 	0.02253 0.64313 0.12964 -0.06100
C 	C 	0.00102 0.65452 0.11349 0.00500
C 	C 	0.00385 0.64259 0.02240 -0.00600
C 	C 	0.05607 0.61860 0.11015 0.01800
H 	H 	0.02963 0.64334 0.17121 0.04100
H 	H 	0.03478 0.62228 0.00946 0.03900
C 	C 	0.04842 0.60390 0.14364 -0.06500
C 	C 	0.06915 0.59249 0.16314 0.00800
C 	C 	0.09773 0.59576 0.14959 -0.09000
C 	C 	0.10518 0.61008 0.11438 0.01100
C 	C 	0.08442 0.62144 0.09476 -0.06600
H 	H 	0.02650 0.60151 0.15523 0.04200
H 	H 	0.06310 0.58148 0.19016 0.03000
H 	H 	0.12709 0.61259 0.10287 0.02900
H 	H 	0.09045 0.63265 0.06844 0.04200
C 	C 	0.01299 0.27804 0.19002 0.00800
H 	H 	0.00942 0.21956 0.74403 0.04500
C 	C 	0.00482 0.77616 0.69732 0.01000
C 	C 	0.00526 0.25623 0.26237 0.01700
H 	H 	0.02445 0.24056 0.93085 0.02900
C 	C 	0.00340 0.24045 0.85387 -0.06400
H 	H 	0.00375 0.52602 0.20449 0.04300
H 	H 	0.00586 0.28959 0.16732 0.03600
C 	C 	0.29866 0.62796 0.48704 -0.06500
C 	C 	0.29949 0.47063 0.65935 0.28100
H 	H 	0.29990 0.71302 0.55597 0.02500
H 	H 	0.30132 0.22005 0.90070 0.04100
C 	C 	0.30515 0.24613 0.01445 -0.00200
C 	C 	0.30497 0.48923 0.57537 0.01100
H 	H 	0.30508 0.50636 0.50511 0.04400
O 	O 	0.30693 0.91219 0.31177 -0.44100
H 	H 	0.30811 0.93352 0.17256 0.17000
C 	C 	0.30863 0.65969 0.42697 0.01200
O 	O 	0.30993 0.41353 0.81445 -0.44100
C 	C 	0.31008 0.75328 0.48990 0.01500
C 	C 	0.31208 0.15678 0.89826 0.01300
H 	H 	0.31223 0.67192 0.40341 0.03900
H 	H 	0.31321 0.43387 0.67370 0.17100
O 	O 	0.31305 0.93355 0.21139 -0.64300
C 	C 	0.31404 0.23457 0.97319 -0.07300
C 	C 	0.31647 0.73648 0.51261 -0.08800
O 	O 	0.31766 0.43414 0.71275 -0.64300
C 	C 	0.31705 0.14281 0.98633 0.02000
H 	H 	0.31642 0.99537 0.09179 0.02800
H 	H 	0.31921 0.16642 0.86780 0.03600
Cu	Cu	0.32004 0.90959 0.23981 0.86700
O 	O 	0.31987 0.97348 0.17408 -0.39500
H 	H 	0.31975 0.25051 0.04593 0.02200
C 	C 	0.32087 0.64002 0.50139 0.00800
Cu	Cu	0.32423 0.41045 0.74345 0.86700
H 	H 	0.32400 0.49570 0.59180 0.02900
O 	O 	0.32565 0.47422 0.67522 -0.39500
C 	C 	0.32692 0.15527 0.94713 -0.09600
H 	H 	0.32641 0.76142 0.46978 0.03300
C 	C 	0.32654 0.65571 0.47042 -0.09500
H 	H 	0.32788 0.14173 0.02466 0.01700
Cu	Cu	0.32909 0.98238 0.25620 0.89200
O 	O 	0.32878 0.95807 0.28029 -0.64000
O 	O 	0.33294 0.45867 0.78177 -0.63900
Cu	Cu	0.33406 0.48301 0.75782 0.89200
H 	H 	0.33506 0.95633 0.31801 0.16300
H 	H 	0.33402 0.63695 0.53579 0.02500
H 	H 	0.33866 0.45686 0.81979 0.16300
O 	O 	0.34257 0.90491 0.17792 -0.42200
C 	C 	0.34315 0.22790 0.97317 0.28700
C 	C 	0.34496 0.72936 0.50703 0.28900
O 	O 	0.34694 0.40503 0.68246 -0.42300
O 	O 	0.34784 0.71402 0.48074 -0.36300
O 	O 	0.34801 0.21252 0.94827 -0.36400
Cu	Cu	0.35061 0.94569 0.22714 0.89500
C 	C 	0.35205 0.66735 0.48118 0.29000
C 	C 	0.35324 0.16626 0.95626 0.29200
C 	C 	0.99919 0.15556 0.60049 0.00900
Cu	Cu	0.35520 0.44604 0.72980 0.89500
O 	O 	0.35802 0.68132 0.44999 -0.37800
O 	O 	0.36009 0.17965 0.92347 -0.38000
H 	H 	0.36039 0.88547 0.09655 0.03000
H 	H 	0.36320 0.38609 0.59885 0.03000
O 	O 	0.36428 0.23915 0.98675 -0.38000
C 	C 	0.36793 0.91247 0.17049 0.28200
O 	O 	0.36713 0.74014 0.51723 -0.38700
O 	O 	0.37005 0.66287 0.51887 -0.44200
O 	O 	0.37059 0.16209 0.99537 -0.43800
C 	C 	0.37228 0.41249 0.67402 0.28400
O 	O 	0.37107 0.98677 0.26007 -0.39400
O 	O 	0.37603 0.48699 0.76353 -0.39400
O 	O 	0.37316 0.92988 0.18092 -0.38200
O 	O 	0.37801 0.42980 0.68529 -0.38300
H 	H 	0.37622 0.20313 0.05826 0.16000
H 	H 	0.37968 0.70324 0.58582 0.16200
Cu	Cu	0.38265 0.70169 0.47627 0.92800
C 	C 	0.38228 0.88768 0.10859 0.01000
Cu	Cu	0.38325 0.20068 0.94983 0.93000
C 	C 	0.38527 0.38798 0.61004 0.01100
O 	O 	0.38615 0.95757 0.24776 -0.38700
O 	O 	0.39073 0.45768 0.75173 -0.38600
C 	C 	0.38995 0.90186 0.14415 -0.08900
C 	C 	0.39121 0.97530 0.24847 0.29000
O 	O 	0.39053 0.20734 0.03145 -0.64300
O 	O 	0.39299 0.70752 0.55733 -0.63800
C 	C 	0.39373 0.40185 0.64607 -0.08900
C 	C 	0.39613 0.47538 0.75298 0.28900
H 	H 	0.39661 0.86498 0.06272 0.04200
H 	H 	0.39839 0.36543 0.56222 0.04300
Cu	Cu	0.39814 0.23266 0.03026 0.88800
Cu	Cu	0.40160 0.73275 0.55717 0.89300
C 	C 	0.40280 0.87607 0.08933 -0.06600
O 	O 	0.40324 0.72079 0.43107 -0.36500
C 	C 	0.40521 0.37628 0.58920 -0.06500
O 	O 	0.40471 0.21950 0.90514 -0.36400
Cu	Cu	0.40949 0.66260 0.50328 0.86600
Cu	Cu	0.41037 0.16222 0.98282 0.86900
H 	H 	0.41070 0.00730 0.20645 0.02700
O 	O 	0.41496 0.23414 0.10403 -0.39600
H 	H 	0.41823 0.50601 0.80049 0.03200
O 	O 	0.41730 0.68795 0.48596 -0.64400
O 	O 	0.41788 0.18754 0.96515 -0.64100
C 	C 	0.41852 0.90474 0.15842 0.00800
O 	O 	0.42014 0.73325 0.62931 -0.39500
C 	C 	0.42087 0.98227 0.24649 -0.08600
H 	H 	0.42133 0.25080 0.19372 0.03100
C 	C 	0.42252 0.40433 0.65923 0.00800
H 	H 	0.42307 0.74367 0.73044 0.03200
C 	C 	0.42601 0.48208 0.75274 -0.08500
H 	H 	0.42934 0.41498 0.68690 0.03100
H 	H 	0.42473 0.91562 0.18577 0.03100
H 	H 	0.42809 0.72031 0.33854 0.03100
Cu	Cu	0.42943 0.69652 0.55908 0.89400
C 	C 	0.42794 0.72796 0.44580 0.28000
Cu	Cu	0.42697 0.19662 0.03918 0.89100
C 	C 	0.42843 0.22735 0.92238 0.28100
C 	C 	0.42735 0.99931 0.22343 0.01100
C 	C 	0.43387 0.49839 0.77899 0.01100
C 	C 	0.43112 0.87854 0.10540 0.01800
H 	H 	0.43197 0.68991 0.45784 0.17100
C 	C 	0.43312 0.22296 0.12577 0.28700
O 	O 	0.43319 0.22912 0.97446 -0.38800
H 	H 	0.43352 0.18958 0.93901 0.17200
C 	C 	0.43377 0.37834 0.60404 0.01700
O 	O 	0.43462 0.72897 0.49730 -0.39600
O 	O 	0.43327 0.20567 0.11176 -0.38700
O 	O 	0.43875 0.70474 0.63150 -0.38600
C 	C 	0.43868 0.72176 0.64809 0.29000
H 	H 	0.44100 0.45978 0.70488 0.03600
C 	C 	0.43900 0.89309 0.13924 -0.06400
H 	H 	0.43808 0.95891 0.28612 0.03200
C 	C 	0.44053 0.24399 0.20425 0.01000
C 	C 	0.44244 0.39259 0.63841 -0.06400
H 	H 	0.44155 0.21240 0.82604 0.02600
C 	C 	0.44446 0.73897 0.73443 0.01200
C 	C 	0.44278 0.97200 0.26781 0.01300
C 	C 	0.44674 0.47229 0.72568 0.00900
C 	C 	0.44433 0.73027 0.35010 0.01000
C 	C 	0.44769 0.73538 0.40445 -0.08800
O 	O 	0.44922 0.65874 0.50508 -0.42200
H 	H 	0.45036 0.26227 0.26974 0.04200
H 	H 	0.45081 0.37370 0.50078 0.04300
H 	H 	0.45210 0.87440 0.00463 0.03900
O 	O 	0.45013 0.15916 0.98832 -0.41200
C 	C 	0.44911 0.22892 0.17434 -0.08600
C 	C 	0.44964 0.23418 0.88306 -0.08800
H 	H 	0.45290 0.75475 0.80598 0.04400
C 	C 	0.45243 0.86566 0.08782 0.01400
C 	C 	0.45324 0.22500 0.83400 0.01200
C 	C 	0.45456 0.36547 0.58408 0.01800
C 	C 	0.45540 0.00600 0.22165 -0.06400
C 	C 	0.45690 0.25045 0.24759 -0.06400
H 	H 	0.45905 0.73404 0.26866 0.04300
C 	C 	0.45537 0.72695 0.69629 -0.08600
H 	H 	0.45732 0.85380 0.16690 0.04100
C 	C 	0.46133 0.36496 0.52903 -0.06500
C 	C 	0.46204 0.50483 0.77804 -0.06300
C 	C 	0.46129 0.74517 0.77746 -0.06400
C 	C 	0.46146 0.86550 0.03396 -0.05900
O 	O 	0.46053 0.18178 0.05034 -0.38400
H 	H 	0.46016 0.01908 0.20333 0.04300
H 	H 	0.46264 0.35404 0.66270 0.04300
C 	C 	0.46190 0.73803 0.31044 -0.06400
H 	H 	0.46090 0.89520 0.15134 0.04200
O 	O 	0.46328 0.68170 0.56334 -0.38300
H 	H 	0.46263 0.25760 0.93070 0.02900
H 	H 	0.46453 0.39442 0.64952 0.04200
C 	C 	0.46441 0.85390 0.12532 -0.06100
C 	C 	0.46527 0.25036 0.89308 0.01300
C 	C 	0.46802 0.35391 0.62020 -0.06400
H 	H 	0.46787 0.51737 0.79861 0.04400
C 	C 	0.46615 0.66519 0.54331 0.28300
C 	C 	0.46579 0.16589 0.02802 0.27000
H 	H 	0.46893 0.77570 0.24959 0.04400
C 	C 	0.46926 0.74809 0.41867 0.01000
C 	C 	0.47180 0.23214 0.79492 -0.06400
C 	C 	0.47493 0.47875 0.72482 -0.06300
H 	H 	0.47210 0.75222 0.46032 0.03000
C 	C 	0.47080 0.97875 0.26634 -0.06400
H 	H 	0.47419 0.22505 0.75697 0.04400
H 	H 	0.47799 0.27849 0.74436 0.04500
C 	C 	0.47725 0.99577 0.24321 0.01800
C 	C 	0.47378 0.22006 0.18952 0.00800
C 	C 	0.48218 0.35348 0.51051 0.01100
C 	C 	0.48268 0.49506 0.75091 0.01800
C 	C 	0.48313 0.85420 0.01811 -0.00600
C 	C 	0.48374 0.25754 0.85379 -0.06400
C 	C 	0.48313 0.75089 0.32461 0.01800
C 	C 	0.48290 0.72067 0.70284 0.01000
C 	C 	0.48603 0.84254 0.10949 0.00500
C 	C 	0.48191 0.24189 0.26169 0.01700
H 	H 	0.49187 0.22819 0.36122 0.04400
C 	C 	0.48688 0.24852 0.80441 0.01900
C 	C 	0.48886 0.34239 0.60170 0.00900
H 	H 	0.48754 0.35343 0.46800 0.03000
C 	C 	0.48692 0.75578 0.37888 -0.06400
H 	H 	0.48658 0.73371 0.89072 0.04500
H 	H 	0.49026 0.85442 0.97655 0.04300
H 	H 	0.48747 0.97080 0.28343 0.04300
H 	H 	0.48072 0.20846 0.16687 0.03600
H 	H 	0.49071 0.47114 0.70363 0.04300
C 	C 	0.49052 0.77137 0.24555 -0.06300
C 	C 	0.48916 0.73943 0.78274 0.01900
C 	C 	0.49111 0.15619 0.04488 -0.08400
H 	H 	0.48833 0.16429 0.12859 0.03100
C 	C 	0.49652 0.34243 0.54695 -0.08900
C 	C 	0.49105 0.65482 0.55873 -0.08900
H 	H 	0.49165 0.66435 0.64131 0.03200
H 	H 	0.49152 0.71134 0.67384 0.03400
C 	C 	0.49597 0.84294 0.05609 -0.08400
H 	H 	0.49569 0.83390 0.13915 0.03200
C 	C 	0.49007 0.22652 0.23304 -0.06200
H 	H 	0.49540 0.27017 0.86152 0.04500
C 	C 	0.49725 0.27179 0.73355 -0.06200
H 	H 	0.49970 0.33391 0.63022 0.03100
H 	H 	0.49823 0.78697 0.17342 0.03300
H 	H 	0.49832 0.02728 0.28624 0.04300
H 	H 	0.49630 0.64274 0.47987 0.03000
C 	C 	0.49976 0.72694 0.74579 -0.06300
C 	C 	0.49922 0.15609 0.09939 0.00600
C 	C 	0.50359 0.24079 0.35341 -0.06400
H 	H 	0.50648 0.28985 0.66732 0.03600
C 	C 	0.50102 0.65541 0.61212 0.00800
H 	H 	0.50346 0.52615 0.70521 0.04300
C 	C 	0.50153 0.75905 0.28257 0.01800
C 	C 	0.50351 0.74318 0.87905 -0.06300
H 	H 	0.49983 0.14571 0.96520 0.04000
C 	C 	0.50053 0.24976 0.30394 0.01900
C 	C 	0.50544 0.25640 0.76209 0.01800
C 	C 	0.50347 0.64314 0.52138 0.01000
H 	H 	0.50337 0.76565 0.39016 0.04300
C 	C 	0.50715 0.77778 0.20245 0.00900
C 	C 	0.50554 0.14553 0.00754 -0.00100
C 	C 	0.50690 0.00288 0.24156 0.01800
C 	C 	0.51244 0.50188 0.75009 0.01800
C 	C 	0.50785 0.74750 0.82450 0.01800
C 	C 	0.51345 0.27824 0.68990 0.00900
C 	C 	0.52144 0.83302 0.04139 0.28000
C 	C 	0.51429 0.01956 0.26598 -0.06400
C 	C 	0.52202 0.24800 0.39273 0.01300
H 	H 	0.52458 0.24081 0.43045 0.02700
C 	C 	0.51962 0.51845 0.72496 -0.06300
H 	H 	0.51781 0.74734 0.96057 0.03200
O 	O 	0.52520 0.81675 0.06247 -0.38400
C 	C 	0.52139 0.33249 0.52894 0.28400
H 	H 	0.50938 0.21984 0.24368 0.04400
C 	C 	0.52238 0.64394 0.62848 -0.06400
H 	H 	0.52122 0.72237 0.74976 0.04500
C 	C 	0.52116 0.75098 0.91866 0.01000
O 	O 	0.52640 0.31645 0.55051 -0.38400
C 	C 	0.52059 0.14479 0.11678 -0.06400
H 	H 	0.52233 0.98015 0.19639 0.04300
C 	C 	0.51568 0.26612 0.29434 -0.06400
H 	H 	0.51335 0.27316 0.25632 0.04300
H 	H 	0.52599 0.60227 0.65504 0.04200
C 	C 	0.52490 0.63173 0.53777 -0.06500
H 	H 	0.52820 0.47920 0.79498 0.04400
H 	H 	0.52474 0.10387 0.14229 0.04100
C 	C 	0.52695 0.13427 0.02494 -0.07400
H 	H 	0.52629 0.14450 0.15912 0.04200
C 	C 	0.53040 0.24782 0.74776 -0.06300
H 	H 	0.52958 0.64425 0.66999 0.04300
C 	C 	0.53358 0.49197 0.77524 -0.06300
C 	C 	0.52954 0.75361 0.27718 -0.06500
C 	C 	0.52973 0.75982 0.80981 -0.06300
H 	H 	0.53303 0.76336 0.76779 0.04400
C 	C 	0.52784 0.99295 0.21579 -0.06400
C 	C 	0.53409 0.63187 0.59155 0.01700
C 	C 	0.53486 0.77182 0.19583 -0.08700
O 	O 	0.53823 0.83966 0.00324 -0.42600
O 	O 	0.53675 0.33911 0.48868 -0.42300
C 	C 	0.53415 0.13359 0.07977 0.02000
C 	C 	0.53769 0.26417 0.38265 -0.09000
C 	C 	0.53805 0.26936 0.67447 -0.08500
H 	H 	0.53696 0.23599 0.76983 0.04400
H 	H 	0.53405 0.62257 0.50888 0.04300
H 	H 	0.53824 0.74417 0.30575 0.04300
H 	H 	0.53753 0.12581 0.99602 0.05400
C 	C 	0.53419 0.27328 0.33346 0.01200
C 	C 	0.54329 0.76324 0.90398 -0.08700
C 	C 	0.54237 0.02621 0.26479 0.01300
C 	C 	0.54770 0.52511 0.72518 0.01000
C 	C 	0.54615 0.75994 0.23400 0.01200
C 	C 	0.54730 0.76770 0.84928 0.01000
O 	O 	0.55065 0.79421 0.13088 -0.38600
C 	C 	0.55141 0.77722 0.14764 0.28900
C 	C 	0.54683 0.10604 0.13154 -0.06300
H 	H 	0.54783 0.03901 0.28424 0.03100
C 	C 	0.54668 0.25427 0.70428 0.01100
C 	C 	0.54792 0.60459 0.64332 -0.06400
H 	H 	0.55298 0.53786 0.70529 0.03600
O 	O 	0.55601 0.76994 0.99686 -0.39000
H 	H 	0.55697 0.80886 0.95707 0.17300
O 	O 	0.55379 0.29260 0.61182 -0.38500
C 	C 	0.55394 0.27531 0.62579 0.28800
O 	O 	0.55394 0.26927 0.47415 -0.39400
H 	H 	0.55352 0.30876 0.43910 0.17100
Cu	Cu	0.55968 0.80249 0.05841 0.89200
C 	C 	0.56274 0.77099 0.94538 0.27900
Cu	Cu	0.56003 0.30168 0.53928 0.89500
C 	C 	0.55878 0.27105 0.42211 0.28100
C 	C 	0.55523 0.12075 0.09867 0.01500
H 	H 	0.54592 0.28586 0.32542 0.02500
C 	C 	0.55560 0.61919 0.60947 0.01800
C 	C 	0.56166 0.49861 0.77555 0.01100
H 	H 	0.99508 0.26991 0.36186 0.04400
C 	C 	0.55595 0.99954 0.21490 0.01100
H 	H 	0.56252 0.58225 0.69026 0.03100
H 	H 	0.56401 0.77728 0.83729 0.03300
H 	H 	0.56035 0.08325 0.17783 0.03200
O 	O 	0.57153 0.81114 0.98524 -0.63700
O 	O 	0.57042 0.76602 0.12899 -0.39700
C 	C 	0.56339 0.01619 0.23947 -0.08700
H 	H 	0.56583 0.24745 0.69356 0.03300
C 	C 	0.56860 0.59318 0.66299 0.00800
C 	C 	0.56890 0.51526 0.75063 -0.08500
H 	H 	0.56767 0.75549 0.22994 0.03000
O 	O 	0.56913 0.31083 0.46529 -0.64400
O 	O 	0.57199 0.26410 0.60379 -0.39400
C 	C 	0.56699 0.09427 0.15130 0.00700
Cu	Cu	0.57815 0.83661 0.00227 0.86300
Cu	Cu	0.57650 0.33617 0.48290 0.86700
H 	H 	0.57191 0.99176 0.19481 0.02800
H 	H 	0.57768 0.49090 0.79569 0.03200
O 	O 	0.58717 0.77858 0.93072 -0.36300
O 	O 	0.58251 0.27896 0.40504 -0.36500
C 	C 	0.58396 0.62193 0.59395 -0.06500
Cu	Cu	0.58910 0.76680 0.05696 0.89100
Cu	Cu	0.58891 0.26569 0.53010 0.89300
C 	C 	0.58380 0.12327 0.08431 -0.06500
H 	H 	0.59001 0.63306 0.56737 0.04300
O 	O 	0.59661 0.79215 0.05696 -0.64200
O 	O 	0.59650 0.29101 0.53154 -0.63800
H 	H 	0.59042 0.13448 0.05848 0.04100
C 	C 	0.59858 0.52237 0.75103 0.28900
C 	C 	0.59319 0.02293 0.23931 0.29100
C 	C 	0.59718 0.59636 0.64927 -0.08900
O 	O 	0.60334 0.54013 0.75110 -0.38700
C 	C 	0.59576 0.09717 0.13858 -0.08900
Cu	Cu	0.60682 0.79806 0.97593 0.93000
Cu	Cu	0.60385 0.29776 0.45000 0.92800
O 	O 	0.59860 0.04064 0.23931 -0.38800
C 	C 	0.60467 0.61058 0.61374 0.01100
H 	H 	0.60971 0.79668 0.08548 0.16200
H 	H 	0.61077 0.29519 0.55845 0.16200
C 	C 	0.60399 0.11154 0.10414 0.01000
O 	O 	0.61464 0.56845 0.68566 -0.38300
O 	O 	0.61750 0.83703 0.01886 -0.45200
O 	O 	0.61620 0.33627 0.49592 -0.44200
O 	O 	0.61189 0.06885 0.17458 -0.38300
C 	C 	0.61936 0.58597 0.67595 0.28300
O 	O 	0.61914 0.51098 0.76045 -0.39400
O 	O 	0.61344 0.01112 0.24616 -0.39400
O 	O 	0.62394 0.75998 0.01717 -0.39100
O 	O 	0.62281 0.25925 0.48662 -0.38600
C 	C 	0.61736 0.08632 0.16533 0.28200
H 	H 	0.62658 0.61301 0.60212 0.03000
O 	O 	0.63063 0.81889 0.95007 -0.38000
O 	O 	0.62704 0.31884 0.42397 -0.38000
H 	H 	0.62605 0.11378 0.09334 0.02900
C 	C 	0.63594 0.83285 0.98165 0.30400
C 	C 	0.63365 0.33225 0.45683 0.29000
Cu	Cu	0.63828 0.55243 0.72906 0.89500
Cu	Cu	0.63426 0.05248 0.21938 0.89500
C 	C 	0.64572 0.77109 0.00676 0.28100
O 	O 	0.64219 0.78641 0.98073 -0.35400
O 	O 	0.63914 0.28594 0.44855 -0.36600
O 	O 	0.64437 0.59391 0.68458 -0.42200
C 	C 	0.64397 0.27051 0.47322 0.28800
O 	O 	0.64263 0.09378 0.17449 -0.42300
H 	H 	0.65542 0.35956 0.52025 0.02700
H 	H 	0.64945 0.86538 0.02923 0.01400
H 	H 	0.65573 0.54134 0.81803 0.16300
H 	H 	0.64940 0.04090 0.30926 0.16200
Cu	Cu	0.66099 0.51568 0.75454 0.89200
C 	C 	0.65966 0.34355 0.44752 -0.09500
C 	C 	0.66440 0.86157 0.99843 0.02100
C 	C 	0.66124 0.84476 0.97190 -0.10000
H 	H 	0.66440 0.73852 0.97389 0.03400
Cu	Cu	0.66776 0.58839 0.74465 0.86700
O 	O 	0.66131 0.53986 0.77981 -0.64000
O 	O 	0.66875 0.52511 0.67233 -0.39500
Cu	Cu	0.65552 0.01548 0.24532 0.89200
O 	O 	0.65581 0.03954 0.27148 -0.64100
H 	H 	0.66321 0.02628 0.05635 0.02300
H 	H 	0.66722 0.24769 0.54554 0.02200
H 	H 	0.67036 0.50410 0.58828 0.02900
C 	C 	0.66747 0.35755 0.48367 0.00900
C 	C 	0.99002 0.22614 0.73345 -0.06200
Cu	Cu	0.66473 0.08823 0.23621 0.86700
O 	O 	0.66589 0.02498 0.16417 -0.39500
C 	C 	0.67451 0.76436 0.01168 -0.09700
O 	O 	0.67522 0.56509 0.71203 -0.64300
O 	O 	0.67194 0.06467 0.20497 -0.64300
C 	C 	0.67306 0.26383 0.47323 -0.08600
C 	C 	0.68087 0.74717 0.99165 0.02400
O 	O 	0.68249 0.58502 0.81535 -0.44100
H 	H 	0.67944 0.56572 0.67292 0.17200
H 	H 	0.68136 0.01684 0.96757 0.06000
C 	C 	0.68186 0.25212 0.51420 0.01000
H 	H 	0.68953 0.49346 0.50179 0.04400
C 	C 	0.69054 0.36927 0.47206 -0.06500
C 	C 	0.67611 0.34090 0.40109 0.01200
H 	H 	0.69598 0.38027 0.49956 0.04200
H 	H 	0.67072 0.33001 0.37323 0.03700
C 	C 	0.68630 0.87382 0.98381 -0.05600
C 	C 	0.68140 0.83991 0.93322 0.01500
H 	H 	0.68806 0.88694 0.00343 0.03200
H 	H 	0.67982 0.82681 0.91353 0.04000
H 	H 	0.67701 0.06511 0.16621 0.17100
O 	O 	0.67777 0.08481 0.30800 -0.44100
C 	C 	0.68940 0.51060 0.57199 0.01000
H 	H 	0.69893 0.40314 0.41016 0.04300
H 	H 	0.69224 0.90260 0.90417 0.04400
C 	C 	0.68513 0.02261 0.05246 0.02500
H 	H 	0.68593 0.27853 0.40114 0.03900
H 	H 	0.69133 0.78879 0.04968 0.02400
H 	H 	0.99675 0.64229 0.98083 0.04300
C 	C 	0.69473 0.52915 0.65614 0.28100
C 	C 	0.69545 0.01734 0.00208 -0.10200
H 	H 	0.69267 0.11576 0.35150 0.01700
C 	C 	0.69244 0.26960 0.43321 0.01400
C 	C 	0.70034 0.50451 0.52303 -0.06400
H 	H 	0.69364 0.61230 0.87695 0.02200
C 	C 	0.69608 0.77552 0.03403 0.01100
C 	C 	0.69244 0.02856 0.15095 0.28500
Cu	Cu	0.70119 0.55065 0.75523 0.92800
O 	O 	0.69828 0.50934 0.78661 -0.38600
Cu	Cu	0.69647 0.04995 0.25060 0.92800
O 	O 	0.69177 0.00857 0.28061 -0.38700
C 	C 	0.70375 0.52449 0.60089 -0.08900
C 	C 	0.70602 0.36713 0.42429 0.01800
C 	C 	0.69905 0.35267 0.38947 -0.06400
C 	C 	0.70515 0.86944 0.94238 0.01600
C 	C 	0.70308 0.85223 0.91827 -0.06400
C 	C 	0.70873 0.74136 0.99293 -0.05400
C 	C 	0.70954 0.58220 0.82215 0.29100
C 	C 	0.70318 0.02322 0.09754 -0.10100
H 	H 	0.70397 0.98325 0.94058 0.04400
C 	C 	0.70976 0.24631 0.51523 -0.06400
C 	C 	0.71994 0.39891 0.39937 -0.06500
C 	C 	0.71437 0.89957 0.89914 -0.06500
H 	H 	0.71355 0.72825 0.97613 0.04500
C 	C 	0.71341 0.51975 0.81994 0.28800
O 	O 	0.71327 0.53634 0.69018 -0.36500
C 	C 	0.70656 0.01865 0.31534 0.28700
C 	C 	0.70457 0.08179 0.31690 0.29200
H 	H 	0.71635 0.23725 0.54692 0.04300
H 	H 	0.73216 0.42487 0.36591 0.03700
C 	C 	0.71524 0.60863 0.88505 0.01100
H 	H 	0.72337 0.92354 0.85225 0.03800
H 	H 	0.71763 0.84865 0.88650 0.04300
O 	O 	0.71008 0.03562 0.18683 -0.36800
C 	C 	0.71280 0.11108 0.36597 0.01000
C 	C 	0.72767 0.38094 0.40807 0.01800
H 	H 	0.71089 0.35089 0.35250 0.04200
C 	C 	0.72491 0.88346 0.92008 0.02100
O 	O 	0.72241 0.57115 0.78956 -0.37900
O 	O 	0.72096 0.53651 0.80646 -0.36400
O 	O 	0.71443 0.03551 0.30349 -0.36500
H 	H 	0.72962 0.96483 0.50674 0.04300
C 	C 	0.72008 0.00989 0.36173 -0.08700
H 	H 	0.72399 0.98386 0.32252 0.03300
C 	C 	0.72384 0.01258 0.99642 0.05500
C 	C 	0.72232 0.98985 0.92193 -0.05600
H 	H 	0.72532 0.96953 0.86043 0.04100
C 	C 	0.72026 0.26376 0.43426 -0.06300
C 	C 	0.72573 0.51219 0.50259 0.01800
C 	C 	0.73869 0.41118 0.37380 0.01400
H 	H 	0.72437 0.63270 0.93174 0.04400
C 	C 	0.73197 0.91134 0.86912 0.01400
C 	C 	0.72385 0.76959 0.03612 -0.06400
O 	O 	0.71766 0.07016 0.28660 -0.37800
C 	C 	0.72816 0.99175 0.35867 0.01200
H 	H 	0.71968 0.03394 0.41168 0.03100
H 	H 	0.72539 0.13713 0.39861 0.04200
C 	C 	0.72904 0.25211 0.47524 0.01900
C 	C 	0.72821 0.53291 0.57864 0.01200
C 	C 	0.72748 0.51145 0.86653 -0.08800
H 	H 	0.73028 0.48490 0.83003 0.03300
H 	H 	0.73528 0.46768 0.01443 0.03800
C 	C 	0.72613 0.59282 0.86246 -0.09600
C 	C 	0.73038 0.75258 0.01498 0.01000
C 	C 	0.72596 0.01998 0.40869 0.01100
C 	C 	0.73463 0.98198 0.87673 0.01000
C 	C 	0.72102 0.09331 0.35507 -0.09700
C 	C 	0.73951 0.50398 0.45546 0.01900
H 	H 	0.74276 0.47765 0.49289 0.04400
C 	C 	0.73494 0.49317 0.86525 0.01500
H 	H 	0.72829 0.53612 0.91387 0.03200
C 	C 	0.73269 0.62023 0.91607 -0.06900
C 	C 	0.73165 0.01867 0.09157 0.02300
C 	C 	0.73433 0.00578 0.94432 0.00700
C 	C 	0.73138 0.12322 0.39255 -0.06700
H 	H 	0.73501 0.26827 0.40316 0.04500
C 	C 	0.74726 0.48579 0.45732 -0.06300
H 	H 	0.73997 0.52851 0.40763 0.04300
C 	C 	0.73920 0.52673 0.52990 -0.06300
C 	C 	0.73405 0.52202 0.91226 0.01400
H 	H 	0.74033 0.77827 0.05381 0.04100
H 	H 	0.74947 0.95368 0.59199 0.03000
C 	C 	0.74222 0.98387 0.40203 -0.06400
C 	C 	0.74589 0.51446 0.40947 -0.06400
H 	H 	0.73911 0.54394 0.59978 0.03100
H 	H 	0.75441 0.45663 0.10039 0.03000
C 	C 	0.74909 0.97098 0.52232 -0.06400
C 	C 	0.74822 0.99403 0.44880 0.01900
C 	C 	0.73990 0.01208 0.45199 -0.06300
H 	H 	0.74853 0.96991 0.39921 0.04300
C 	C 	0.74189 0.01335 0.04136 -0.08900
H 	H 	0.75224 0.22944 0.40312 0.04500
C 	C 	0.76112 0.47810 0.41356 0.01100
C 	C 	0.74884 0.48558 0.90927 -0.06800
C 	C 	0.74780 0.51442 0.95626 -0.06700
H 	H 	0.75457 0.47148 0.90787 0.04700
C 	C 	0.75486 0.47367 0.03012 -0.05900
C 	C 	0.75512 0.37574 0.39476 -0.06700
C 	C 	0.75372 0.87986 0.91389 -0.06600
H 	H 	0.75035 0.72138 0.05616 0.04100
C 	C 	0.76025 0.96476 0.57088 0.01200
H 	H 	0.74409 0.01996 0.48820 0.04400
H 	H 	0.74576 0.01895 0.12604 0.03300
C 	C 	0.75990 0.50679 0.36570 0.01200
H 	H 	0.76701 0.46404 0.41555 0.03100
C 	C 	0.75528 0.49617 0.95500 0.03400
H 	H 	0.75238 0.52265 0.99161 0.04900
C 	C 	0.76021 0.90697 0.85892 -0.09600
O 	O 	0.76460 0.92858 0.78593 -0.37900
C 	C 	0.75923 0.98993 0.85351 -0.08200
C 	C 	0.75806 0.01423 0.91964 -0.05600
C 	C 	0.75817 0.24558 0.47525 0.01900
C 	C 	0.76752 0.48854 0.36751 -0.08700
C 	C 	0.76559 0.46751 0.07911 0.00800
C 	C 	0.76524 0.40552 0.35608 -0.09700
C 	C 	0.75394 0.58806 0.87492 0.01500
H 	H 	0.76223 0.86766 0.93097 0.04300
C 	C 	0.75996 0.74667 0.01480 0.01000
O 	O 	0.76995 0.42893 0.28851 -0.37800
O 	O 	0.77324 0.46346 0.30727 -0.36400
O 	O 	0.76696 0.96342 0.79932 -0.36500
C 	C 	0.76234 0.98564 0.49522 0.01900
H 	H 	0.76732 0.02664 0.93632 0.04300
C 	C 	0.74686 0.08737 0.37547 0.01500
C 	C 	0.76697 0.23394 0.43425 -0.06300
H 	H 	0.76445 0.51496 0.33022 0.03300
H 	H 	0.75869 0.53285 0.51425 0.04300
C 	C 	0.76872 0.48800 0.00256 0.00300
H 	H 	0.76151 0.36200 0.40238 0.04200
C 	C 	0.76122 0.61623 0.92436 0.02600
C 	C 	0.76665 0.72985 0.03713 -0.06400
C 	C 	0.78134 0.48010 0.32090 0.28800
O 	O 	0.78039 0.46418 0.19084 -0.36600
C 	C 	0.77415 0.98050 0.80973 0.28700
O 	O 	0.77479 0.96216 0.68305 -0.36500
C 	C 	0.77718 0.91759 0.81913 0.29100
H 	H 	0.76375 0.00952 0.03755 0.04700
C 	C 	0.77051 0.00632 0.87458 0.00600
C 	C 	0.75835 0.11773 0.40819 0.01900
H 	H 	0.77685 0.14694 0.35053 0.04200
C 	C 	0.77382 0.38796 0.36878 0.01000
H 	H 	0.76975 0.65078 0.88922 0.04100
H 	H 	0.76233 0.57559 0.85949 0.03900
C 	C 	0.77129 0.89151 0.88331 0.01000
H 	H 	0.75304 0.07352 0.36901 0.03700
H 	H 	0.77081 0.26041 0.54700 0.04300
C 	C 	0.78240 0.41715 0.31934 0.29100
C 	C 	0.77145 0.59978 0.90528 -0.06700
H 	H 	0.77647 0.77058 0.97335 0.04500
Cu	Cu	0.78638 0.94849 0.74967 0.92800
C 	C 	0.78466 0.97325 0.59309 -0.08900
C 	C 	0.76551 0.09956 0.40161 -0.06500
C 	C 	0.77743 0.25137 0.51529 -0.06400
C 	C 	0.78116 0.63018 0.94658 0.00300
C 	C 	0.78397 0.64721 0.92153 -0.05200
C 	C 	0.78142 0.75763 0.99104 -0.05400
Cu	Cu	0.79206 0.44924 0.25492 0.92800
O 	O 	0.78994 0.99014 0.77549 -0.38400
H 	H 	0.78939 0.01265 0.85710 0.02600
C 	C 	0.78822 0.14538 0.38815 -0.06400
C 	C 	0.78032 0.13140 0.42406 0.01800
C 	C 	0.79020 0.47575 0.10134 -0.08700
O 	O 	0.79682 0.49034 0.28771 -0.38700
C 	C 	0.79911 0.47105 0.15660 0.28000
C 	C 	0.79358 0.96875 0.64846 0.28200
C 	C 	0.78776 0.99335 0.51548 -0.06400
C 	C 	0.79480 0.22812 0.43320 0.01400
C 	C 	0.79420 0.49553 0.02310 -0.05900
H 	H 	0.79444 0.38349 0.35635 0.01700
H 	H 	0.79319 0.88816 0.87700 0.02200
C 	C 	0.79435 0.72384 0.03439 0.01100
H 	H 	0.79921 0.71069 0.05091 0.02400
H 	H 	0.80133 0.21921 0.40110 0.03900
H 	H 	0.79334 0.59644 0.91194 0.04500
O 	O 	0.80935 0.41412 0.31218 -0.44200
O 	O 	0.80420 0.91458 0.81280 -0.44100
H 	H 	0.80799 0.93238 0.66897 0.17200
C 	C 	0.79886 0.98720 0.56422 0.01100
H 	H 	0.79839 0.00449 0.49436 0.04400
C 	C 	0.80488 0.48946 0.07229 0.00700
C 	C 	0.79959 0.62582 0.98873 -0.02800
C 	C 	0.80601 0.65930 0.93615 0.00200
H 	H 	0.80817 0.67225 0.91570 0.04300
H 	H 	0.79724 0.61286 0.00915 0.02500
O 	O 	0.81716 0.43459 0.21036 -0.64300
H 	H 	0.81276 0.43432 0.17129 0.17100
O 	O 	0.81207 0.93333 0.70808 -0.64400
C 	C 	0.79524 0.12951 0.47259 -0.06500
C 	C 	0.81149 0.15690 0.39953 0.01200
H 	H 	0.78910 0.11890 0.50089 0.04200
H 	H 	0.81760 0.16739 0.37083 0.03600
H 	H 	0.78611 0.09510 0.41428 0.04300
C 	C 	0.80533 0.24558 0.51426 0.01000
H 	H 	0.80528 0.50643 0.00170 0.03900
C 	C 	0.80922 0.75173 0.98911 0.02400
Cu	Cu	0.82360 0.41091 0.24122 0.86700
O 	O 	0.82529 0.47460 0.17249 -0.39500
Cu	Cu	0.81881 0.91028 0.74260 0.86700
O 	O 	0.81965 0.97259 0.66445 -0.39500
C 	C 	0.81416 0.23390 0.47325 -0.08600
H 	H 	0.81997 0.25001 0.54563 0.02200
C 	C 	0.81571 0.73471 0.01022 -0.09800
Cu	Cu	0.83372 0.48346 0.25502 0.89200
O 	O 	0.83247 0.45916 0.27925 -0.63900
O 	O 	0.84630 0.40542 0.18031 -0.42300
H 	H 	0.83814 0.45740 0.31731 0.16200
Cu	Cu	0.82736 0.98298 0.74558 0.89200
O 	O 	0.82639 0.95915 0.77359 -0.64000
O 	O 	0.84181 0.90393 0.68285 -0.42300
H 	H 	0.83180 0.95811 0.81204 0.16300
H 	H 	0.81788 0.99375 0.58047 0.02800
C 	C 	0.81865 0.14099 0.48397 0.00900
C 	C 	0.82734 0.15449 0.44685 -0.09400
H 	H 	0.82402 0.49583 0.08861 0.02900
C 	C 	0.82584 0.65438 0.97538 -0.07400
C 	C 	0.82190 0.63782 0.00297 -0.02800
H 	H 	0.83655 0.63399 0.03425 0.03000
H 	H 	0.82553 0.76017 0.97000 0.03400
C 	C 	0.84436 0.72783 0.00455 0.28100
O 	O 	0.84746 0.71236 0.97904 -0.35400
C 	C 	0.84328 0.22724 0.47323 0.28800
O 	O 	0.84816 0.21184 0.44842 -0.36600
C 	C 	0.85165 0.66590 0.98443 0.29600
Cu	Cu	0.85473 0.44644 0.22753 0.89400
C 	C 	0.85356 0.16558 0.45626 0.29000
Cu	Cu	0.84928 0.94570 0.72466 0.89500
H 	H 	0.85811 0.88474 0.59906 0.03000
H 	H 	0.83024 0.13919 0.52120 0.02700
H 	H 	0.86258 0.38634 0.09710 0.02900
O 	O 	0.85774 0.67940 0.95159 -0.37800
O 	O 	0.86038 0.17899 0.42355 -0.38000
O 	O 	0.86979 0.66170 0.02217 -0.45000
O 	O 	0.86636 0.73885 0.01379 -0.39100
H 	H 	0.87947 0.70274 0.08501 0.16100
C 	C 	0.87170 0.41281 0.17199 0.28300
O 	O 	0.87571 0.48740 0.26063 -0.39500
O 	O 	0.87754 0.43011 0.18330 -0.38400
O 	O 	0.87088 0.16144 0.49546 -0.44100
O 	O 	0.86440 0.23850 0.48679 -0.38600
H 	H 	0.87638 0.20250 0.55844 0.16200
C 	C 	0.86702 0.91145 0.67329 0.28400
O 	O 	0.86928 0.98736 0.75165 -0.39300
O 	O 	0.87278 0.92882 0.68386 -0.38300
C 	C 	0.88015 0.88667 0.61037 0.01100
C 	C 	0.88464 0.38819 0.10840 0.01000
Cu	Cu	0.88233 0.70008 0.97574 0.93000
O 	O 	0.89027 0.45800 0.24967 -0.38700
Cu	Cu	0.88346 0.20004 0.45000 0.92800
O 	O 	0.88440 0.95794 0.74607 -0.38700
C 	C 	0.88851 0.90065 0.64609 -0.08900
H 	H 	0.89344 0.86400 0.56318 0.04300
C 	C 	0.89313 0.40210 0.14427 -0.08900
O 	O 	0.89280 0.70676 0.05624 -0.64100
C 	C 	0.89579 0.47569 0.25088 0.28900
O 	O 	0.89069 0.20672 0.53163 -0.63800
C 	C 	0.88957 0.97565 0.74394 0.29000
H 	H 	0.89769 0.36551 0.06105 0.04100
Cu	Cu	0.90918 0.66129 0.00602 0.86300
Cu	Cu	0.92923 0.69568 0.05893 0.89200
Cu	Cu	0.90110 0.73204 0.05381 0.89100
O 	O 	0.90275 0.71871 0.92856 -0.36300
C 	C 	0.96602 0.66421 0.04484 0.28000
O 	O 	0.91697 0.68646 0.98659 -0.63700
O 	O 	0.93899 0.70499 0.13003 -0.38600
C 	C 	0.93947 0.72233 0.14350 0.28800
C 	C 	0.92727 0.72628 0.94273 0.28000
O 	O 	0.93399 0.72775 0.99411 -0.39000
O 	O 	0.92001 0.73329 0.12549 -0.39500
O 	O 	0.96289 0.68070 0.06483 -0.38400
O 	O 	0.94890 0.65749 0.00733 -0.42600
H 	H 	0.93161 0.68817 0.95828 0.17300
Cu	Cu	0.91067 0.16162 0.48306 0.86700
Cu	Cu	0.92717 0.19605 0.53944 0.89400
Cu	Cu	0.89823 0.23205 0.53043 0.89300
O 	O 	0.90488 0.21889 0.40534 -0.36500
C 	C 	0.96599 0.16532 0.52866 0.28400
O 	O 	0.91813 0.18694 0.46539 -0.64400
O 	O 	0.93341 0.20512 0.61202 -0.38500
C 	C 	0.93315 0.22240 0.62607 0.28800
C 	C 	0.92857 0.22678 0.42261 0.28100
O 	O 	0.93332 0.22854 0.47469 -0.39400
O 	O 	0.91497 0.23355 0.60424 -0.39400
O 	O 	0.96079 0.18128 0.55063 -0.38400
O 	O 	0.95044 0.15859 0.48880 -0.42300
H 	H 	0.93377 0.18900 0.43927 0.17100
C 	C 	0.96871 0.97933 0.76792 -0.06400
C 	C 	0.97576 0.99593 0.74274 0.01900
C 	C 	0.95448 0.00577 0.71769 -0.06300
C 	C 	0.92639 0.99913 0.71807 0.01100
C 	C 	0.91930 0.98253 0.74326 -0.08600
C 	C 	0.94065 0.97264 0.76805 0.01300
H 	H 	0.95972 0.01852 0.69776 0.04300
H 	H 	0.91018 0.00683 0.69841 0.02700
H 	H 	0.93547 0.95989 0.78802 0.03300
H 	H 	0.98493 0.97169 0.78769 0.04400
H 	H 	0.99590 0.02805 0.78317 0.04400
C 	C 	0.96178 0.85212 0.62269 -0.06400
C 	C 	0.94950 0.86405 0.58608 0.01700
C 	C 	0.95777 0.86395 0.53176 -0.06500
C 	C 	0.97905 0.85255 0.51459 0.01000
C 	C 	0.99226 0.84115 0.55169 -0.08900
C 	C 	0.98300 0.84067 0.60555 0.00800
C 	C 	0.92869 0.87706 0.60502 0.01800
H 	H 	0.94815 0.87298 0.50311 0.04300
H 	H 	0.98561 0.85282 0.47270 0.03000
H 	H 	0.99294 0.83191 0.63455 0.03200
H 	H 	0.95525 0.85196 0.66460 0.04300
C 	C 	0.90017 0.87494 0.58995 -0.06500
C 	C 	0.91726 0.90318 0.65946 0.00900
C 	C 	0.93725 0.89140 0.63913 -0.06400
H 	H 	0.92400 0.91391 0.68694 0.03200
H 	H 	0.95931 0.89325 0.65048 0.04200
C 	C 	0.98166 0.24145 0.76219 0.01800
H 	H 	0.99184 0.22779 0.86169 0.04500
C 	C 	0.97382 0.21964 0.68987 0.00900
C 	C 	0.94903 0.22838 0.67473 -0.08500
C 	C 	0.94024 0.24337 0.70477 0.01100
C 	C 	0.95652 0.24988 0.74816 -0.06300
H 	H 	0.98091 0.20809 0.66713 0.03600
H 	H 	0.92095 0.25008 0.69428 0.03300
H 	H 	0.94983 0.26164 0.77039 0.04400
C 	C 	0.99685 0.27154 0.23368 -0.06200
C 	C 	0.98676 0.24826 0.30466 0.01900
H 	H 	0.97746 0.27812 0.24435 0.04400
C 	C 	0.97185 0.23182 0.29512 -0.06400
C 	C 	0.95339 0.22458 0.33420 0.01200
C 	C 	0.94971 0.23371 0.38331 -0.09000
C 	C 	0.96517 0.24996 0.39338 0.01300
C 	C 	0.98354 0.25724 0.35409 -0.06500
H 	H 	0.97430 0.22477 0.25713 0.04300
H 	H 	0.94182 0.21194 0.32619 0.02500
H 	H 	0.96246 0.25716 0.43104 0.02700
C 	C 	0.99121 0.15559 0.54590 -0.08900
H 	H 	0.98826 0.16382 0.62946 0.03100
C 	C 	0.94178 0.39269 0.13707 -0.06400
C 	C 	0.93308 0.37840 0.10289 0.01500
C 	C 	0.90453 0.37639 0.08789 -0.06500
C 	C 	0.92191 0.40453 0.15758 0.00800
C 	C 	0.95382 0.36545 0.08321 0.02000
H 	H 	0.92875 0.41520 0.18513 0.03100
H 	H 	0.96387 0.39449 0.14827 0.04100
C 	C 	0.96050 0.36475 0.02815 -0.07400
C 	C 	0.98134 0.35323 0.00987 -0.00200
C 	C 	0.99578 0.34232 0.04658 -0.08400
C 	C 	0.98818 0.34245 0.10136 0.00600
C 	C 	0.96734 0.35401 0.11961 -0.06400
H 	H 	0.94993 0.37339 0.99968 0.05300
H 	H 	0.98665 0.35303 0.96735 0.04000
H 	H 	0.99908 0.33408 0.13008 0.03100
H 	H 	0.96202 0.35429 0.16213 0.04200
C 	C 	0.97480 0.47877 0.22457 -0.06300
C 	C 	0.98249 0.49511 0.25049 0.01800
C 	C 	0.96176 0.50501 0.27690 -0.06400
C 	C 	0.93353 0.49866 0.27730 0.01000
C 	C 	0.92573 0.48231 0.25120 -0.08600
C 	C 	0.94656 0.47239 0.22487 0.00900
H 	H 	0.96754 0.51758 0.29734 0.04300
H 	H 	0.91782 0.50638 0.29825 0.03100
H 	H 	0.94085 0.45985 0.20419 0.03500
H 	H 	0.99065 0.47106 0.20392 0.04300
C 	C 	0.96035 0.73645 0.80661 -0.06300
C 	C 	0.98147 0.74944 0.82031 0.01800
C 	C 	0.98545 0.75441 0.87446 -0.06300
C 	C 	0.96811 0.74666 0.91462 0.01000
C 	C 	0.94665 0.73380 0.90090 -0.08700
C 	C 	0.94308 0.72863 0.84665 0.01000
C 	C 	0.99963 0.75763 0.77793 0.01900
H 	H 	0.97112 0.75084 0.95618 0.03200
H 	H 	0.92691 0.71857 0.83546 0.03200
H 	H 	0.95735 0.73240 0.76492 0.04400
C 	C 	0.98821 0.76953 0.74016 -0.06300
H 	H 	0.99561 0.78505 0.66776 0.03400
H 	H 	0.96635 0.77340 0.74352 0.04500
C 	C 	0.98222 0.72281 0.27274 -0.06500
C 	C 	0.99214 0.74094 0.27430 0.01900
C 	C 	0.98480 0.75288 0.23299 -0.06400
C 	C 	0.96768 0.74676 0.19032 0.01100
C 	C 	0.95775 0.72861 0.18849 -0.08700
C 	C 	0.96514 0.71664 0.22994 0.01400
H 	H 	0.99244 0.76689 0.23387 0.04300
H 	H 	0.96230 0.75610 0.15846 0.02400
H 	H 	0.95748 0.70263 0.22930 0.03300
H 	H 	0.98785 0.71349 0.30449 0.04400
C 	C 	0.99953 0.75106 0.36936 -0.06300
H 	H 	0.97716 0.74857 0.37714 0.04300
C 	C 	0.99116 0.65404 0.06003 -0.08300
H 	H 	0.99142 0.66328 0.14290 0.03200
