data_crystal

_cell_length_a 30.57193
_cell_length_b 30.37865
_cell_length_c 31.06633
_cell_angle_alpha 91.44494
_cell_angle_beta  89.99878
_cell_angle_gamma 89.71895

_symmetry_space_group_name_	'P 1'
_symmetry_space_group_name_H-M	'P 1'

loop_
_symmetry_equiv_pos_as_xyz
  x,y,z

loop_
_atom_site_label
_atom_site_type_symbol
_atom_site_fract_x
_atom_site_fract_y
_atom_site_fract_z
_atom_site_charge
C 	C 	0.95496 0.17156 0.27768 0.32400
C 	C 	0.96373 0.16823 0.08641 0.36700
C 	C 	0.03928 0.12227 0.19920 0.34900
C 	C 	0.87561 0.21395 0.16262 0.32700
C 	C 	0.06289 0.24908 0.14647 0.35200
C 	C 	0.97756 0.30605 0.21862 0.32300
Ni	Ni	0.94839 0.15055 0.18014 1.11200
Ni	Ni	0.96639 0.24742 0.14253 1.12000
Ni	Ni	0.02058 0.21591 0.22339 1.12400
O 	O 	0.95358 0.13998 0.24696 -0.37900
O 	O 	0.98046 0.20675 0.27411 -0.38900
O 	O 	0.02735 0.27279 0.14053 -0.39500
O 	O 	0.93723 0.14915 0.11349 -0.38700
O 	O 	0.98823 0.20114 0.09970 -0.40500
O 	O 	0.01381 0.28290 0.22694 -0.38500
O 	O 	0.00972 0.12360 0.16872 -0.38700
O 	O 	0.03875 0.15185 0.23084 -0.38700
O 	O 	0.95102 0.29481 0.18630 -0.39800
O 	O 	0.88665 0.17853 0.18436 -0.38500
O 	O 	0.90216 0.23010 0.13276 -0.38600
O 	O 	0.06318 0.21746 0.17454 -0.40000
O 	O 	0.97024 0.20780 0.18847 -0.72000
H 	H 	0.94775 0.22061 0.20778 0.15900
C 	C 	0.01612 0.23440 0.77536 0.33400
C 	C 	0.01172 0.22519 0.58315 0.37100
C 	C 	0.08443 0.16710 0.69344 0.34700
C 	C 	0.94129 0.29131 0.66133 0.32400
C 	C 	0.13045 0.28540 0.63506 0.34900
C 	C 	0.05793 0.35673 0.71272 0.32800
Ni	Ni	0.99901 0.21319 0.67887 1.11000
Ni	Ni	0.03530 0.30281 0.63593 1.12200
Ni	Ni	0.08612 0.26268 0.71533 1.12200
O 	O 	0.00510 0.20370 0.74576 -0.37600
O 	O 	0.04734 0.26377 0.76825 -0.39200
O 	O 	0.09967 0.31529 0.63051 -0.39700
O 	O 	0.98466 0.21115 0.61288 -0.38800
O 	O 	0.04393 0.25159 0.59386 -0.40300
O 	O 	0.09153 0.32928 0.71700 -0.39200
O 	O 	0.05158 0.17105 0.66644 -0.38400
O 	O 	0.09067 0.19684 0.72417 -0.39300
O 	O 	0.03173 0.35392 0.67848 -0.39100
O 	O 	0.94479 0.25501 0.68432 -0.38200
O 	O 	0.96893 0.29887 0.62940 -0.39400
O 	O 	0.12717 0.25552 0.66493 -0.39800
O 	O 	0.03370 0.26399 0.68279 -0.71400
H 	H 	0.01535 0.28173 0.70270 0.15300
C 	C 	0.12156 0.69106 0.22182 0.32500
C 	C 	0.12519 0.70298 0.41169 0.37200
C 	C 	0.06046 0.62275 0.30737 0.34700
C 	C 	0.19003 0.76328 0.33214 0.32300
C 	C 	0.99796 0.74404 0.35399 0.33300
C 	C 	0.06376 0.81158 0.27492 0.32300
Ni	Ni	0.13887 0.67993 0.31774 1.11300
Ni	Ni	0.09223 0.76965 0.35459 1.12000
Ni	Ni	0.04677 0.71437 0.27852 1.12200
O 	O 	0.13394 0.66286 0.25170 -0.37900
O 	O 	0.08355 0.71239 0.22466 -0.38700
O 	O 	0.02618 0.77640 0.36023 -0.38300
O 	O 	0.15391 0.68808 0.38320 -0.38600
O 	O 	0.08939 0.72218 0.39872 -0.40400
O 	O 	0.03386 0.77982 0.27180 -0.39100
O 	O 	0.09073 0.63565 0.33460 -0.38700
O 	O 	0.05001 0.64730 0.27459 -0.38700
O 	O 	0.08956 0.81563 0.30934 -0.39300
O 	O 	0.18685 0.72663 0.30820 -0.38600
O 	O 	0.15950 0.77468 0.36143 -0.38400
O 	O 	0.00879 0.70920 0.33062 -0.39500
O 	O 	0.09893 0.72628 0.30989 -0.71400
H 	H 	0.11496 0.74367 0.28880 0.15600
C 	C 	0.16046 0.72475 0.71367 0.32400
C 	C 	0.15152 0.73469 0.90438 0.36800
C 	C 	0.08414 0.66582 0.79527 0.34700
C 	C 	0.22326 0.79398 0.82473 0.32500
C 	C 	0.03503 0.78350 0.84328 0.35700
C 	C 	0.10813 0.85192 0.76496 0.32600
Ni	Ni	0.16900 0.71251 0.81048 1.11400
Ni	Ni	0.12817 0.80625 0.84558 1.12100
Ni	Ni	0.08379 0.75673 0.76507 1.12200
O 	O 	0.16703 0.69602 0.74458 -0.37800
O 	O 	0.12635 0.75234 0.71482 -0.38500
O 	O 	0.06310 0.81599 0.84659 -0.40000
O 	O 	0.18009 0.71849 0.87652 -0.38800
O 	O 	0.11987 0.76106 0.89184 -0.40300
O 	O 	0.07632 0.82268 0.75940 -0.39200
O 	O 	0.11756 0.66958 0.82179 -0.38300
O 	O 	0.08183 0.69030 0.76120 -0.39300
O 	O 	0.13211 0.85316 0.80083 -0.39200
O 	O 	0.22249 0.75435 0.80536 -0.38000
O 	O 	0.19419 0.80508 0.85490 -0.39100
O 	O 	0.03862 0.75360 0.81198 -0.40000
O 	O 	0.13326 0.76212 0.80166 -0.71500
H 	H 	0.15234 0.77817 0.78205 0.14700
C 	C 	0.62840 0.93993 0.53381 0.32400
C 	C 	0.61686 0.92057 0.34351 0.36800
C 	C 	0.55162 0.99938 0.45600 0.34900
C 	C 	0.69055 0.86849 0.42280 0.32100
C 	C 	0.49772 0.87479 0.41345 0.34500
C 	C 	0.57439 0.81105 0.48805 0.32600
Ni	Ni	0.63350 0.94902 0.43639 1.11400
Ni	Ni	0.59322 0.85403 0.40597 1.11900
Ni	Ni	0.55065 0.90704 0.48568 1.12200
O 	O 	0.63353 0.96775 0.50189 -0.38000
O 	O 	0.59425 0.91279 0.53482 -0.38600
O 	O 	0.52734 0.84368 0.40551 -0.38900
O 	O 	0.64356 0.94156 0.37003 -0.38700
O 	O 	0.58422 0.89760 0.35862 -0.40200
O 	O 	0.54301 0.84119 0.49350 -0.39500
O 	O 	0.57998 0.98957 0.42540 -0.38500
O 	O 	0.54762 0.97386 0.48928 -0.39000
O 	O 	0.59835 0.80905 0.45223 -0.39500
O 	O 	0.68741 0.90782 0.44232 -0.38300
O 	O 	0.65996 0.85393 0.39513 -0.38500
O 	O 	0.50742 0.90958 0.43736 -0.40100
O 	O 	0.59950 0.89947 0.44851 -0.71500
H 	H 	0.61930 0.88406 0.46812 0.15200
C 	C 	0.64245 0.88107 0.02072 0.32500
C 	C 	0.65683 0.88226 0.82940 0.37300
C 	C 	0.58676 0.94970 0.93649 0.34400
C 	C 	0.72089 0.81369 0.90901 0.32700
C 	C 	0.53505 0.83279 0.87265 0.35300
C 	C 	0.59461 0.75594 0.95136 0.32500
Ni	Ni	0.66744 0.89554 0.92522 1.11300
Ni	Ni	0.62730 0.80758 0.87955 1.12200
Ni	Ni	0.57489 0.85439 0.95624 1.12100
O 	O 	0.65819 0.90876 0.99176 -0.38100
O 	O 	0.60972 0.85358 0.01145 -0.38900
O 	O 	0.56261 0.79957 0.87107 -0.40200
O 	O 	0.68476 0.89350 0.86001 -0.38600
O 	O 	0.62327 0.85746 0.83804 -0.40700
O 	O 	0.56424 0.78758 0.95726 -0.38400
O 	O 	0.61781 0.93871 0.90929 -0.39000
O 	O 	0.57359 0.92157 0.96545 -0.38500
O 	O 	0.62564 0.75886 0.92168 -0.39800
O 	O 	0.71838 0.85072 0.93272 -0.38200
O 	O 	0.69399 0.80652 0.87599 -0.39200
O 	O 	0.53779 0.86288 0.90370 -0.39900
O 	O 	0.62935 0.84748 0.92738 -0.71700
H 	H 	0.64518 0.82941 0.94821 0.15800
C 	C 	0.42828 0.39061 0.98590 0.32700
C 	C 	0.47355 0.39171 0.17408 0.37000
C 	C 	0.51342 0.45023 0.04735 0.34600
C 	C 	0.38316 0.33133 0.11551 0.32400
C 	C 	0.57253 0.33101 0.09062 0.35200
C 	C 	0.48570 0.25685 0.03857 0.32700
Ni	Ni	0.43692 0.40685 0.08517 1.11400
Ni	Ni	0.48071 0.31525 0.11552 1.12100
Ni	Ni	0.50785 0.35389 0.02533 1.12100
O 	O 	0.42447 0.41900 0.01942 -0.37600
O 	O 	0.45473 0.35588 0.98683 -0.39600
O 	O 	0.54429 0.30144 0.10349 -0.40000
O 	O 	0.44050 0.40816 0.15255 -0.38500
O 	O 	0.50134 0.36495 0.15461 -0.40400
O 	O 	0.51247 0.28632 0.02092 -0.38600
O 	O 	0.49415 0.44265 0.08390 -0.39000
O 	O 	0.51232 0.42038 0.01575 -0.38600
O 	O 	0.46474 0.26532 0.07530 -0.39900
O 	O 	0.38180 0.36851 0.09379 -0.38000
O 	O 	0.41807 0.32080 0.13888 -0.38800
O 	O 	0.56115 0.36031 0.06238 -0.40100
O 	O 	0.46662 0.35416 0.07100 -0.71700
H 	H 	0.44289 0.33736 0.05699 0.16100
C 	C 	0.52658 0.41668 0.49635 0.32300
C 	C 	0.49887 0.43684 0.68556 0.36600
C 	C 	0.57871 0.49577 0.58050 0.34600
C 	C 	0.44518 0.36004 0.60379 0.32500
C 	C 	0.62931 0.38370 0.65064 0.34900
C 	C 	0.57181 0.30392 0.56923 0.32500
Ni	Ni	0.49705 0.44212 0.58838 1.11300
Ni	Ni	0.53608 0.35886 0.64047 1.12100
Ni	Ni	0.59239 0.39946 0.56502 1.12200
O 	O 	0.51024 0.44822 0.52235 -0.38000
O 	O 	0.56144 0.39291 0.50748 -0.38700
O 	O 	0.60008 0.35238 0.65435 -0.39800
O 	O 	0.47465 0.44604 0.65190 -0.38600
O 	O 	0.53420 0.41220 0.68099 -0.40100
O 	O 	0.60346 0.33362 0.56739 -0.39300
O 	O 	0.54321 0.49011 0.60366 -0.38500
O 	O 	0.59226 0.46490 0.55320 -0.39200
O 	O 	0.54238 0.30546 0.60089 -0.39100
O 	O 	0.44775 0.39542 0.57946 -0.38000
O 	O 	0.46944 0.35661 0.63899 -0.39200
O 	O 	0.62682 0.41192 0.61914 -0.39900
O 	O 	0.53677 0.39503 0.59156 -0.71600
H 	H 	0.52271 0.37476 0.57064 0.14900
C 	C 	0.48683 0.44165 0.80385 -0.00300
C 	C 	0.49379 0.40661 0.83152 -0.03500
C 	C 	0.47371 0.40654 0.87185 -0.04100
C 	C 	0.44599 0.44148 0.88494 0.00900
C 	C 	0.44033 0.47743 0.85798 -0.04300
C 	C 	0.46074 0.47762 0.81759 -0.03400
C 	C 	0.42553 0.44186 0.92820 0.01000
C 	C 	0.41187 0.40243 0.94614 -0.16400
C 	C 	0.50787 0.44055 0.76090 0.03400
C 	C 	0.48462 0.44911 0.72510 -0.20300
H 	H 	0.51466 0.37924 0.82166 0.03600
H 	H 	0.48015 0.37957 0.89314 0.04300
H 	H 	0.42016 0.50517 0.86826 0.04000
H 	H 	0.45654 0.50575 0.79723 0.03900
H 	H 	0.42801 0.47142 0.94851 0.03800
H 	H 	0.40171 0.37598 0.92419 0.08200
H 	H 	0.54095 0.42737 0.75826 0.03400
H 	H 	0.45248 0.46437 0.72823 0.09500
C 	C 	0.51662 0.38349 0.37808 0.00900
C 	C 	0.51103 0.34339 0.35549 -0.04200
C 	C 	0.50574 0.34266 0.31081 -0.03400
C 	C 	0.50585 0.38203 0.28822 -0.00400
C 	C 	0.50995 0.42237 0.31087 -0.03400
C 	C 	0.51550 0.42312 0.35562 -0.04100
C 	C 	0.50779 0.38023 0.24076 0.03500
C 	C 	0.47665 0.39970 0.21683 -0.20600
C 	C 	0.52913 0.38322 0.42407 0.01000
C 	C 	0.51159 0.41399 0.45384 -0.16200
H 	H 	0.51199 0.31265 0.37242 0.04000
H 	H 	0.50277 0.31137 0.29357 0.03600
H 	H 	0.51065 0.45294 0.29367 0.04000
H 	H 	0.52072 0.45429 0.37249 0.04200
H 	H 	0.53259 0.35925 0.22556 0.03200
H 	H 	0.45210 0.42048 0.23268 0.09600
H 	H 	0.55101 0.35745 0.43493 0.04000
H 	H 	0.48606 0.43650 0.44369 0.08200
C 	C 	0.53641 0.05821 0.97484 0.00600
C 	C 	0.49360 0.07497 0.97701 -0.03900
C 	C 	0.48635 0.12049 0.98110 -0.03900
C 	C 	0.52196 0.14959 0.98439 0.00700
C 	C 	0.56473 0.13277 0.98180 -0.04000
C 	C 	0.57195 0.08735 0.97733 -0.03800
C 	C 	0.51485 0.19770 0.99123 0.00900
C 	C 	0.48461 0.21351 0.02203 -0.16000
C 	C 	0.54406 0.01008 0.97009 0.01100
C 	C 	0.57172 0.99334 0.93753 -0.16700
H 	H 	0.46596 0.05285 0.97492 0.03900
H 	H 	0.45314 0.13306 0.98158 0.04000
H 	H 	0.59242 0.15483 0.98402 0.03900
H 	H 	0.60516 0.07478 0.97616 0.04000
H 	H 	0.53727 0.22037 0.97625 0.03900
H 	H 	0.46283 0.19031 0.03714 0.08300
H 	H 	0.52743 0.98795 0.99155 0.03900
H 	H 	0.58433 0.01574 0.91380 0.08400
C 	C 	0.53330 0.55872 0.99393 0.00400
C 	C 	0.55910 0.57482 0.96058 -0.03900
C 	C 	0.56377 0.62023 0.95574 -0.03900
C 	C 	0.54285 0.65007 0.98449 0.00600
C 	C 	0.51543 0.63400 0.01660 -0.03900
C 	C 	0.51050 0.58857 0.02124 -0.03700
C 	C 	0.54855 0.69824 0.98014 0.01200
C 	C 	0.58989 0.71563 0.97138 -0.16300
C 	C 	0.52897 0.51053 0.99917 0.01300
C 	C 	0.52918 0.49250 0.04029 -0.17200
H 	H 	0.57577 0.55218 0.93856 0.03900
H 	H 	0.58346 0.63220 0.92955 0.04200
H 	H 	0.49817 0.65666 0.03815 0.03900
H 	H 	0.48878 0.57661 0.04584 0.03900
H 	H 	0.52009 0.71976 0.98235 0.03900
H 	H 	0.61823 0.69393 0.97260 0.08200
H 	H 	0.52517 0.48930 0.97073 0.03800
H 	H 	0.53544 0.51399 0.06809 0.08600
C 	C 	0.70400 0.92379 0.72938 -0.00600
C 	C 	0.68291 0.95996 0.71118 -0.03300
C 	C 	0.67052 0.95818 0.66785 -0.04100
C 	C 	0.67976 0.92039 0.64240 0.00900
C 	C 	0.70587 0.88691 0.65923 -0.04300
C 	C 	0.71857 0.88895 0.70245 -0.03400
C 	C 	0.65629 0.91249 0.60148 0.01100
C 	C 	0.65522 0.94452 0.56995 -0.16400
C 	C 	0.69847 0.91611 0.77564 0.04000
C 	C 	0.66213 0.89563 0.78895 -0.20900
H 	H 	0.67241 0.98754 0.73150 0.04000
H 	H 	0.65100 0.98465 0.65500 0.04400
H 	H 	0.71412 0.85809 0.63956 0.03900
H 	H 	0.73591 0.86136 0.71599 0.03900
H 	H 	0.64043 0.88092 0.59572 0.03700
H 	H 	0.67676 0.97281 0.57286 0.08300
H 	H 	0.72480 0.92451 0.79783 0.03200
H 	H 	0.63702 0.88715 0.76532 0.09800
C 	C 	0.61932 0.88742 0.22841 -0.00400
C 	C 	0.61597 0.92112 0.19851 -0.03400
C 	C 	0.62593 0.91252 0.15510 -0.04000
C 	C 	0.63969 0.87016 0.14138 0.00900
C 	C 	0.64513 0.83727 0.17185 -0.04200
C 	C 	0.63472 0.84577 0.21507 -0.03400
C 	C 	0.64034 0.85767 0.09504 0.01000
C 	C 	0.65508 0.88666 0.06375 -0.16200
C 	C 	0.60319 0.89435 0.27281 0.03500
C 	C 	0.62516 0.92055 0.30094 -0.20500
H 	H 	0.60406 0.95342 0.20855 0.04100
H 	H 	0.62086 0.93810 0.13193 0.04300
H 	H 	0.65566 0.80451 0.16171 0.03900
H 	H 	0.63762 0.81964 0.23802 0.03600
H 	H 	0.62793 0.82548 0.08516 0.04000
H 	H 	0.67518 0.91467 0.07326 0.08200
H 	H 	0.57618 0.87420 0.28355 0.03000
H 	H 	0.65255 0.93975 0.28942 0.09600
C 	C 	0.54386 0.19679 0.51009 0.00700
C 	C 	0.58434 0.17629 0.50123 -0.03800
C 	C 	0.58640 0.13892 0.47419 -0.03800
C 	C 	0.54799 0.12058 0.45711 0.00500
C 	C 	0.50763 0.14140 0.46523 -0.03800
C 	C 	0.50558 0.17932 0.49168 -0.04000
C 	C 	0.54958 0.07646 0.43640 0.01400
C 	C 	0.53174 0.04080 0.45786 -0.17100
C 	C 	0.54106 0.23510 0.54041 0.01200
C 	C 	0.57323 0.26785 0.54056 -0.16500
H 	H 	0.61399 0.18843 0.51633 0.04200
H 	H 	0.61763 0.12283 0.46838 0.03900
H 	H 	0.47776 0.12747 0.45211 0.04000
H 	H 	0.47420 0.19476 0.49832 0.03900
H 	H 	0.57237 0.07065 0.40998 0.03700
H 	H 	0.50735 0.04731 0.48273 0.08700
H 	H 	0.51251 0.23871 0.56109 0.03900
H 	H 	0.59928 0.26609 0.51676 0.08200
C 	C 	0.58457 0.61808 0.57106 0.00600
C 	C 	0.58360 0.65725 0.59595 -0.03900
C 	C 	0.59135 0.69765 0.57667 -0.03900
C 	C 	0.59941 0.69917 0.53218 0.00700
C 	C 	0.60072 0.66001 0.50745 -0.03900
C 	C 	0.59274 0.61975 0.52658 -0.03800
C 	C 	0.60627 0.74161 0.51110 0.01000
C 	C 	0.57574 0.77592 0.51622 -0.16300
C 	C 	0.57468 0.57557 0.59112 0.01400
C 	C 	0.59769 0.53735 0.57858 -0.17000
H 	H 	0.57702 0.65640 0.63018 0.03900
H 	H 	0.59111 0.72767 0.59626 0.03900
H 	H 	0.60693 0.66086 0.47314 0.04000
H 	H 	0.59221 0.58994 0.50671 0.04400
H 	H 	0.63209 0.74380 0.48720 0.04000
H 	H 	0.55130 0.77437 0.54155 0.08300
H 	H 	0.54776 0.57384 0.61385 0.03800
H 	H 	0.62800 0.54059 0.56064 0.08500
C 	C 	0.42378 0.85835 0.83133 0.00600
C 	C 	0.39001 0.86097 0.86167 -0.03800
C 	C 	0.34869 0.84466 0.85139 -0.03800
C 	C 	0.34018 0.82721 0.80984 0.00700
C 	C 	0.37347 0.82670 0.77876 -0.04000
C 	C 	0.41513 0.84232 0.78942 -0.03800
C 	C 	0.29789 0.80578 0.80006 0.01300
C 	C 	0.25931 0.82117 0.81962 -0.16600
C 	C 	0.46890 0.86709 0.84523 0.01600
C 	C 	0.49965 0.83284 0.84444 -0.17400
H 	H 	0.39648 0.87332 0.89407 0.04000
H 	H 	0.32389 0.84393 0.87624 0.04300
H 	H 	0.36734 0.81333 0.74668 0.03900
H 	H 	0.44099 0.84070 0.76558 0.04000
H 	H 	0.29737 0.77664 0.77902 0.03900
H 	H 	0.25889 0.85361 0.83521 0.08200
H 	H 	0.47567 0.89748 0.86318 0.04100
H 	H 	0.49439 0.80427 0.82333 0.08700
C 	C 	0.92234 0.75934 0.88440 0.00400
C 	C 	0.91651 0.77118 0.92802 -0.03800
C 	C 	0.87513 0.78376 0.94327 -0.04100
C 	C 	0.83928 0.78433 0.91510 0.00700
C 	C 	0.84518 0.77160 0.87158 -0.03900
C 	C 	0.88632 0.75838 0.85663 -0.03800
C 	C 	0.79670 0.80221 0.93023 0.01300
C 	C 	0.75754 0.78657 0.91233 -0.16500
C 	C 	0.96644 0.75129 0.86686 0.01800
C 	C 	0.99797 0.78452 0.86946 -0.18100
H 	H 	0.94416 0.77149 0.94985 0.03900
H 	H 	0.87108 0.79370 0.97677 0.03800
H 	H 	0.81828 0.77340 0.84901 0.04300
H 	H 	0.89060 0.74930 0.82293 0.03900
H 	H 	0.79627 0.82973 0.95329 0.03800
H 	H 	0.75772 0.75527 0.89457 0.08100
H 	H 	0.97205 0.72210 0.84660 0.03700
H 	H 	0.99277 0.81262 0.89126 0.08700
C 	C 	0.19235 0.74403 0.59927 0.01000
C 	C 	0.17299 0.77233 0.56977 -0.04200
C 	C 	0.17064 0.76003 0.52628 -0.03300
C 	C 	0.18678 0.71880 0.51204 -0.00400
C 	C 	0.21062 0.69284 0.54043 -0.03400
C 	C 	0.21410 0.70573 0.58385 -0.03900
C 	C 	0.17608 0.70174 0.46837 0.04000
C 	C 	0.13462 0.70422 0.45381 -0.21100
C 	C 	0.18663 0.75346 0.64604 0.01100
C 	C 	0.18426 0.71952 0.67566 -0.16300
H 	H 	0.15801 0.80297 0.58083 0.04000
H 	H 	0.15449 0.78163 0.50397 0.03800
H 	H 	0.22526 0.66208 0.52922 0.03800
H 	H 	0.23341 0.68592 0.60525 0.03900
H 	H 	0.20233 0.68944 0.44765 0.03400
H 	H 	0.10886 0.71420 0.47626 0.09600
H 	H 	0.17722 0.78666 0.65638 0.03600
H 	H 	0.20185 0.68889 0.66969 0.08300
C 	C 	0.14126 0.73805 0.02276 -0.00200
C 	C 	0.15814 0.77299 0.04773 -0.03500
C 	C 	0.16277 0.76898 0.09217 -0.04200
C 	C 	0.14973 0.73029 0.11219 0.00900
C 	C 	0.13539 0.69423 0.08671 -0.03900
C 	C 	0.13124 0.69813 0.04212 -0.03500
C 	C 	0.14156 0.73173 0.15903 0.01300
C 	C 	0.14596 0.69434 0.18420 -0.16700
C 	C 	0.13114 0.74449 0.97703 0.03500
C 	C 	0.15602 0.72511 0.94616 -0.20500
H 	H 	0.16649 0.80373 0.03288 0.03900
H 	H 	0.17411 0.79690 0.11142 0.03900
H 	H 	0.12498 0.66418 0.10162 0.04500
H 	H 	0.11855 0.67080 0.02292 0.04200
H 	H 	0.12864 0.76204 0.17363 0.03500
H 	H 	0.16868 0.66826 0.17471 0.08300
H 	H 	0.10575 0.76808 0.96894 0.03200
H 	H 	0.18205 0.70269 0.95545 0.09600
C 	C 	0.38833 0.82333 0.38260 0.00600
C 	C 	0.37274 0.79034 0.35421 -0.03900
C 	C 	0.32769 0.78316 0.34978 -0.03800
C 	C 	0.29748 0.80969 0.37301 0.00700
C 	C 	0.31310 0.84219 0.40193 -0.04000
C 	C 	0.35818 0.84866 0.40712 -0.03700
C 	C 	0.24957 0.80084 0.37044 0.01000
C 	C 	0.23007 0.78540 0.33199 -0.16100
C 	C 	0.43641 0.82866 0.38900 0.01400
C 	C 	0.45472 0.87015 0.39842 -0.16900
H 	H 	0.39554 0.76975 0.33604 0.03900
H 	H 	0.31646 0.75623 0.32921 0.04100
H 	H 	0.29033 0.86196 0.42098 0.03900
H 	H 	0.36954 0.87254 0.43099 0.04000
H 	H 	0.22980 0.80516 0.39934 0.03800
H 	H 	0.24967 0.78346 0.30283 0.08000
H 	H 	0.45744 0.79976 0.38630 0.03900
H 	H 	0.43369 0.89909 0.39879 0.08600
C 	C 	0.88790 0.79661 0.38255 0.00600
C 	C 	0.87254 0.83251 0.40760 -0.03900
C 	C 	0.82769 0.84162 0.41032 -0.03800
C 	C 	0.79726 0.81387 0.38922 0.00700
C 	C 	0.81259 0.77811 0.36389 -0.04000
C 	C 	0.85760 0.76986 0.36001 -0.03700
C 	C 	0.74955 0.82436 0.39019 0.01000
C 	C 	0.73028 0.84584 0.42607 -0.16100
C 	C 	0.93593 0.79050 0.37641 0.01200
C 	C 	0.95458 0.74875 0.36797 -0.16700
H 	H 	0.89547 0.85415 0.42410 0.03800
H 	H 	0.81684 0.87100 0.42770 0.04100
H 	H 	0.78969 0.75722 0.34644 0.03800
H 	H 	0.86878 0.74364 0.33843 0.03900
H 	H 	0.72980 0.81647 0.36196 0.03800
H 	H 	0.74964 0.85115 0.45503 0.08000
H 	H 	0.95686 0.81931 0.37849 0.03900
H 	H 	0.93393 0.71977 0.36801 0.08300
C 	C 	0.25035 0.28064 0.60906 0.00600
C 	C 	0.25951 0.29156 0.56630 -0.03800
C 	C 	0.29937 0.31125 0.55605 -0.04000
C 	C 	0.33054 0.31963 0.58831 0.00700
C 	C 	0.32142 0.30816 0.63098 -0.03800
C 	C 	0.28187 0.28811 0.64107 -0.03800
C 	C 	0.37179 0.34240 0.57786 0.01200
C 	C 	0.41097 0.33033 0.59784 -0.16500
C 	C 	0.20664 0.26467 0.62119 0.01500
C 	C 	0.16942 0.28985 0.61213 -0.17100
H 	H 	0.23554 0.28541 0.54121 0.04100
H 	H 	0.30592 0.32010 0.52311 0.03900
H 	H 	0.34455 0.31570 0.65650 0.04400
H 	H 	0.27503 0.27992 0.67414 0.03900
H 	H 	0.37096 0.36997 0.55624 0.03900
H 	H 	0.41213 0.29973 0.61523 0.08100
H 	H 	0.20442 0.23731 0.64295 0.03900
H 	H 	0.17201 0.31644 0.58949 0.08700
C 	C 	0.74821 0.37473 0.67496 0.00600
C 	C 	0.78652 0.39950 0.68023 -0.04000
C 	C 	0.82628 0.37849 0.68892 -0.03900
C 	C 	0.82816 0.33240 0.69166 0.00700
C 	C 	0.78964 0.30783 0.68810 -0.03900
C 	C 	0.74997 0.32872 0.67919 -0.03800
C 	C 	0.87070 0.30943 0.69474 0.01000
C 	C 	0.90377 0.31756 0.66479 -0.16400
C 	C 	0.70721 0.39645 0.66123 0.01500
C 	C 	0.66669 0.38202 0.67627 -0.17100
H 	H 	0.78560 0.43492 0.67704 0.03900
H 	H 	0.85574 0.39790 0.69258 0.03900
H 	H 	0.79074 0.27231 0.69036 0.04000
H 	H 	0.72093 0.30898 0.67415 0.04400
H 	H 	0.87408 0.28261 0.71703 0.03900
H 	H 	0.89960 0.34432 0.64253 0.08200
H 	H 	0.70868 0.42149 0.63688 0.03600
H 	H 	0.66595 0.36167 0.70455 0.08500
C 	C 	0.12485 0.96581 0.72238 0.00600
C 	C 	0.08169 0.97741 0.71156 -0.03600
C 	C 	0.07309 0.01714 0.69154 -0.04000
C 	C 	0.10716 0.04643 0.68351 0.00700
C 	C 	0.15041 0.03459 0.69343 -0.04000
C 	C 	0.15917 0.99451 0.71301 -0.03800
C 	C 	0.09678 0.09107 0.66891 0.01400
C 	C 	0.10808 0.12774 0.69469 -0.17000
C 	C 	0.13381 0.92501 0.74597 0.01300
C 	C 	0.11037 0.88650 0.73635 -0.16500
H 	H 	0.05468 0.95627 0.71978 0.04300
H 	H 	0.03963 0.02607 0.68407 0.04000
H 	H 	0.17706 0.05681 0.68684 0.04000
H 	H 	0.19253 0.98599 0.72128 0.03900
H 	H 	0.07389 0.09465 0.64244 0.04000
H 	H 	0.13273 0.12409 0.71959 0.08600
H 	H 	0.15830 0.92546 0.77134 0.03900
H 	H 	0.09026 0.88490 0.70749 0.08300
C 	C 	0.04979 0.54933 0.79634 0.00700
C 	C 	0.03935 0.54582 0.75223 -0.03800
C 	C 	0.02674 0.50545 0.73395 -0.03600
C 	C 	0.02601 0.46783 0.75898 0.00500
C 	C 	0.03471 0.47147 0.80333 -0.03700
C 	C 	0.04677 0.51206 0.82188 -0.03900
C 	C 	0.02138 0.42426 0.73770 0.02000
C 	C 	0.05516 0.39324 0.74067 -0.16700
C 	C 	0.06803 0.59073 0.81476 0.01600
C 	C 	0.05471 0.63137 0.79901 -0.17000
H 	H 	0.04277 0.57389 0.73171 0.04500
H 	H 	0.01994 0.50292 0.69975 0.04200
H 	H 	0.03348 0.44263 0.82310 0.04000
H 	H 	0.05470 0.51431 0.85585 0.04000
H 	H 	0.99479 0.41900 0.71495 0.03200
H 	H 	0.08068 0.39826 0.76465 0.08500
H 	H 	0.09490 0.58909 0.83759 0.03800
H 	H 	0.02407 0.63320 0.78136 0.08400
C 	C 	0.98911 0.18612 0.88252 -0.00000
C 	C 	0.96209 0.15475 0.90154 -0.04000
C 	C 	0.96445 0.14775 0.94599 -0.03400
C 	C 	0.99321 0.17295 0.97195 -0.00700
C 	C 	0.02058 0.20369 0.95266 -0.03100
C 	C 	0.01925 0.20960 0.90831 -0.03300
C 	C 	0.99797 0.16570 0.01891 0.02900
C 	C 	0.96363 0.15612 0.04443 -0.20300
C 	C 	0.98827 0.19170 0.83506 0.01700
C 	C 	0.99936 0.23215 0.81705 -0.18000
H 	H 	0.93972 0.13538 0.88187 0.03800
H 	H 	0.94482 0.12213 0.95977 0.03600
H 	H 	0.04365 0.22251 0.97206 0.03800
H 	H 	0.04244 0.23169 0.89395 0.04100
H 	H 	0.02894 0.17503 0.03382 0.04100
H 	H 	0.93566 0.13852 0.03125 0.09300
H 	H 	0.98144 0.16330 0.81419 0.03500
H 	H 	0.00173 0.26124 0.83798 0.08900
C 	C 	0.95605 0.19596 0.48075 -0.00200
C 	C 	0.94095 0.15762 0.45954 -0.03600
C 	C 	0.93021 0.15825 0.41566 -0.03900
C 	C 	0.93485 0.19731 0.39264 0.01000
C 	C 	0.94807 0.23597 0.41450 -0.04200
C 	C 	0.95826 0.23542 0.45826 -0.03500
C 	C 	0.92552 0.19885 0.34581 0.01100
C 	C 	0.93610 0.16362 0.31762 -0.16200
C 	C 	0.96815 0.19520 0.52696 0.03000
C 	C 	0.00466 0.21580 0.54117 -0.19800
H 	H 	0.93780 0.12732 0.47690 0.03700
H 	H 	0.91786 0.12866 0.39994 0.03900
H 	H 	0.95080 0.26650 0.39741 0.04000
H 	H 	0.96793 0.26571 0.47470 0.03800
H 	H 	0.91890 0.23086 0.33220 0.03500
H 	H 	0.92941 0.13002 0.32659 0.08100
H 	H 	0.94659 0.17881 0.54926 0.03500
H 	H 	0.02754 0.22847 0.51773 0.09300
C 	C 	0.18323 0.25770 0.12430 0.00600
C 	C 	0.21326 0.26471 0.15780 -0.03800
C 	C 	0.25351 0.28430 0.14963 -0.03800
C 	C 	0.26470 0.29573 0.10748 0.00800
C 	C 	0.23467 0.28842 0.07391 -0.04000
C 	C 	0.19411 0.26939 0.08227 -0.03800
C 	C 	0.30627 0.31843 0.09878 0.01100
C 	C 	0.34497 0.30698 0.12017 -0.16300
C 	C 	0.14069 0.23765 0.13348 0.01500
C 	C 	0.10179 0.26098 0.12647 -0.17300
H 	H 	0.20500 0.25583 0.19036 0.03900
H 	H 	0.27555 0.29139 0.17617 0.04200
H 	H 	0.24275 0.29757 0.04138 0.03900
H 	H 	0.17121 0.26370 0.05612 0.04000
H 	H 	0.30678 0.34343 0.07434 0.04000
H 	H 	0.34539 0.27862 0.14081 0.08200
H 	H 	0.14018 0.20724 0.15118 0.04100
H 	H 	0.10231 0.29022 0.10700 0.08700
C 	C 	0.76902 0.27088 0.13739 0.00600
C 	C 	0.75290 0.31378 0.14393 -0.04000
C 	C 	0.70786 0.32182 0.14297 -0.03800
C 	C 	0.67868 0.28706 0.13443 0.00500
C 	C 	0.69483 0.24414 0.12823 -0.03900
C 	C 	0.73979 0.23611 0.12924 -0.03900
C 	C 	0.63140 0.29559 0.13019 0.01700
C 	C 	0.61633 0.32825 0.10277 -0.17400
C 	C 	0.81642 0.26222 0.13967 0.01300
C 	C 	0.83231 0.22826 0.16502 -0.16600
H 	H 	0.77520 0.34078 0.15034 0.03900
H 	H 	0.69565 0.35498 0.14872 0.04100
H 	H 	0.67257 0.21715 0.12167 0.04000
H 	H 	0.75197 0.20293 0.12349 0.04200
H 	H 	0.60852 0.27283 0.14438 0.03600
H 	H 	0.63959 0.35082 0.08889 0.08800
H 	H 	0.83883 0.28321 0.12250 0.03500
H 	H 	0.80991 0.21145 0.18620 0.08400
C 	C 	0.07012 0.00450 0.18790 0.00200
C 	C 	0.11271 0.98971 0.19615 -0.03400
C 	C 	0.11946 0.94846 0.21408 -0.04200
C 	C 	0.08365 0.92186 0.22422 0.00900
C 	C 	0.04099 0.93659 0.21520 -0.03900
C 	C 	0.03442 0.97737 0.19644 -0.03500
C 	C 	0.09089 0.88152 0.24907 0.01100
C 	C 	0.06256 0.84537 0.24532 -0.16300
C 	C 	0.06241 0.04950 0.17330 0.01400
C 	C 	0.06593 0.08508 0.20263 -0.17200
H 	H 	0.14049 0.01047 0.18947 0.03900
H 	H 	0.15246 0.93763 0.22110 0.03900
H 	H 	0.01287 0.91737 0.22425 0.04300
H 	H 	0.00141 0.98871 0.19023 0.04000
H 	H 	0.11880 0.88025 0.27071 0.04000
H 	H 	0.03881 0.84378 0.21931 0.08300
H 	H 	0.04611 0.05378 0.14259 0.04000
H 	H 	0.08607 0.08166 0.23121 0.08800
C 	C 	0.01654 0.50997 0.27491 0.01300
C 	C 	0.98633 0.49182 0.24556 -0.04500
C 	C 	0.98207 0.44613 0.24078 -0.04200
C 	C 	0.00667 0.41787 0.26682 0.01100
C 	C 	0.03601 0.43610 0.29698 -0.03900
C 	C 	0.04183 0.48166 0.30025 -0.03800
C 	C 	0.00681 0.36937 0.25887 0.01800
C 	C 	0.97181 0.34751 0.23838 -0.16900
C 	C 	0.02498 0.55816 0.27490 0.01400
C 	C 	0.04315 0.58052 0.31072 -0.17000
H 	H 	0.96731 0.51311 0.22518 0.03800
H 	H 	0.96109 0.43297 0.21561 0.04000
H 	H 	0.05585 0.41479 0.31659 0.03900
H 	H 	0.06728 0.49459 0.32110 0.04000
H 	H 	0.03576 0.35077 0.26779 0.03900
H 	H 	0.94091 0.36460 0.23409 0.08200
H 	H 	0.01773 0.57610 0.24588 0.04100
H 	H 	0.04726 0.56357 0.34082 0.08600
