data_crystal

_cell_length_a 31.62330
_cell_length_b 56.50279
_cell_length_c 22.27825
_cell_angle_alpha 90.00238
_cell_angle_beta  89.99847
_cell_angle_gamma 90.00129

_symmetry_space_group_name_	'P 1'
_symmetry_space_group_name_H-M	'P 1'

loop_
_symmetry_equiv_pos_as_xyz
  x,y,z

loop_
_atom_site_label
_atom_site_type_symbol
_atom_site_fract_x
_atom_site_fract_y
_atom_site_fract_z
_atom_site_charge
C 	C 	0.01911 0.00646 0.08799 0.05100
H 	H 	0.96482 0.00521 0.95530 0.05800
H 	H 	0.52637 0.01213 0.63838 0.08400
C 	C 	0.97975 0.01242 0.99514 -0.13900
N 	N 	0.54075 0.01649 0.47983 -0.19300
C 	C 	0.48048 0.01910 0.54633 0.00200
H 	H 	0.56347 0.02457 0.45260 0.07800
H 	H 	0.42815 0.02501 0.60640 0.05700
C 	C 	0.51160 0.02980 0.50951 0.05600
C 	C 	0.01836 0.03098 0.09814 -0.01500
C 	C 	0.45141 0.03327 0.57740 -0.10100
H 	H 	0.03251 0.03814 0.13860 0.03900
C 	C 	0.98260 0.03703 0.00249 0.16000
C 	C 	0.99926 0.04630 0.05665 -0.12500
H 	H 	0.95690 0.04468 0.91814 0.08000
H 	H 	0.16974 0.05407 0.34192 0.08000
C 	C 	0.51226 0.05452 0.50343 -0.02500
N 	N 	0.97182 0.05153 0.95623 -0.21400
H 	H 	0.22523 0.06053 0.34453 0.08600
H 	H 	0.33047 0.06313 0.23071 0.08100
C 	C 	0.45294 0.05802 0.57273 0.13300
H 	H 	0.27387 0.06348 0.22616 0.08700
H 	H 	0.53538 0.06276 0.47414 0.02600
N 	N 	0.19528 0.06428 0.32719 -0.19200
N 	N 	0.30165 0.07039 0.24447 -0.19200
C 	C 	0.48263 0.06864 0.53348 -0.11400
H 	H 	0.40390 0.06346 0.63433 0.08500
C 	C 	0.99525 0.07164 0.07191 0.30300
H 	H 	0.98133 0.06922 0.95536 0.09600
H 	H 	0.12309 0.07396 0.27421 0.03700
N 	N 	0.42687 0.07146 0.60736 -0.20400
C 	C 	0.18966 0.08130 0.28479 0.05500
O 	O 	0.96026 0.08305 0.05747 -0.39100
O 	O 	0.02925 0.08316 0.08973 -0.36300
H 	H 	0.36823 0.08750 0.30009 0.03800
C 	C 	0.14956 0.08460 0.25902 -0.02000
H 	H 	0.63820 0.08729 0.33690 0.07800
C 	C 	0.30061 0.08773 0.28678 0.05500
H 	H 	0.43046 0.08979 0.61016 0.10200
C 	C 	0.48118 0.09412 0.52005 0.29800
C 	C 	0.33840 0.09528 0.31384 -0.02100
C 	C 	0.26193 0.09826 0.30406 -0.00100
C 	C 	0.22367 0.09581 0.26639 -0.00100
H 	H 	0.97325 0.09938 0.19902 0.16100
O 	O 	0.44561 0.10337 0.49987 -0.36400
C 	C 	0.14302 0.10216 0.21547 -0.12200
N 	N 	0.62494 0.10380 0.34655 -0.20300
H 	H 	0.70158 0.10540 0.30149 0.05400
H 	H 	0.59376 0.10430 0.36189 0.07200
O 	O 	0.51233 0.10774 0.53897 -0.39000
Cu	Cu	0.93100 0.10744 0.10719 0.89200
O 	O 	0.08841 0.10763 0.14111 -0.36800
C 	C 	0.09938 0.10804 0.19789 0.30300
O 	O 	0.97365 0.11113 0.16606 -0.63800
C 	C 	0.33807 0.11317 0.35753 -0.12300
O 	O 	0.88260 0.11259 0.16290 -0.39500
C 	C 	0.21820 0.11148 0.21831 -0.09700
H 	H 	0.50494 0.11993 0.39715 0.15900
Cu	Cu	0.02961 0.11540 0.11562 0.92800
O 	O 	0.07382 0.11735 0.23758 -0.44700
C 	C 	0.26123 0.11456 0.35141 -0.09700
C 	C 	0.17788 0.11559 0.19423 0.11900
C 	C 	0.37866 0.12246 0.37981 0.30300
C 	C 	0.68818 0.12256 0.31218 -0.09600
O 	O 	0.38593 0.12347 0.43774 -0.37100
C 	C 	0.29900 0.12301 0.37645 0.11900
H 	H 	0.24475 0.12208 0.20321 0.05200
C 	C 	0.64754 0.12398 0.33733 0.11900
H 	H 	0.23133 0.12224 0.36524 0.05100
O 	O 	0.40452 0.13296 0.34243 -0.44700
H 	H 	0.85716 0.12949 0.31867 0.04200
O 	O 	0.50034 0.13272 0.42684 -0.64000
C 	C 	0.87889 0.12998 0.20221 0.30000
C 	C 	0.83053 0.13344 0.28968 -0.02100
H 	H 	0.81128 0.13203 0.40317 0.07900
Cu	Cu	0.44102 0.13494 0.46987 0.92700
Cu	Cu	0.53934 0.13353 0.49112 0.89200
O 	O 	0.01170 0.12913 0.03567 -0.36500
C 	C 	0.83666 0.13504 0.22741 -0.11000
N 	N 	0.78533 0.13545 0.37545 -0.19200
N 	N 	0.17262 0.13321 0.15319 -0.20400
C 	C 	0.79019 0.13653 0.31481 0.05700
H 	H 	0.75604 0.13832 0.39580 0.08600
H 	H 	0.91535 0.13517 0.96329 0.07600
O 	O 	0.91242 0.13894 0.22921 -0.38800
O 	O 	0.58977 0.14257 0.44240 -0.39700
N 	N 	0.29762 0.14139 0.41594 -0.20300
H 	H 	0.14271 0.13890 0.13985 0.07200
C 	C 	0.71182 0.14310 0.30112 -0.00000
C 	C 	0.75518 0.14078 0.27663 0.00100
C 	C 	0.76133 0.14256 0.21448 -0.09800
C 	C 	0.80196 0.14049 0.18960 0.12300
Cu	Cu	0.96700 0.14360 0.19146 0.89400
O 	O 	0.94745 0.14176 0.06933 -0.40000
H 	H 	0.19883 0.14227 0.13618 0.07900
C 	C 	0.63046 0.14641 0.35193 -0.11000
N 	N 	0.80760 0.14447 0.12988 -0.20300
C 	C 	0.59032 0.14848 0.38499 0.30000
C 	C 	0.97917 0.14355 0.03138 0.30200
H 	H 	0.73451 0.14612 0.18551 0.05500
H 	H 	0.83775 0.14572 0.11111 0.08300
Cu	Cu	0.05736 0.14928 0.22897 0.86700
O 	O 	0.02460 0.14665 0.15536 -0.64000
H 	H 	0.26860 0.14756 0.43204 0.07700
H 	H 	0.78160 0.14753 0.10197 0.08200
O 	O 	0.45052 0.15072 0.55048 -0.36800
H 	H 	0.32478 0.15069 0.42812 0.06900
N 	N 	0.91494 0.15146 0.94118 -0.20400
H 	H 	0.88973 0.15497 0.91217 0.07700
O 	O 	0.55882 0.16031 0.36008 -0.38600
Cu	Cu	0.41448 0.16578 0.35048 0.86600
Cu	Cu	0.50292 0.16419 0.39455 0.89500
O 	O 	0.44396 0.16568 0.42688 -0.64200
H 	H 	0.02751 0.16055 0.12862 0.17100
C 	C 	0.69417 0.16559 0.31391 0.05800
C 	C 	0.65344 0.16699 0.33881 -0.02100
H 	H 	0.01594 0.16841 0.35833 0.05900
O 	O 	0.51317 0.16699 0.52223 -0.39400
C 	C 	0.98056 0.16329 0.98818 -0.12400
C 	C 	0.47959 0.16713 0.55695 0.29200
C 	C 	0.94728 0.16719 0.94677 0.12400
O 	O 	0.96599 0.17560 0.22546 -0.38100
H 	H 	0.43874 0.18006 0.45109 0.17000
H 	H 	0.02610 0.18416 0.42658 0.07700
O 	O 	0.03705 0.18073 0.24199 -0.41800
N 	N 	0.01578 0.18435 0.38201 -0.20300
H 	H 	0.64010 0.18416 0.34962 0.04400
H 	H 	0.04131 0.17532 0.01981 0.04000
H 	H 	0.45360 0.19001 0.22113 0.06300
H 	H 	0.53855 0.17311 0.64144 0.03400
C 	C 	0.99741 0.18545 0.25554 0.29200
N 	N 	0.71631 0.18582 0.30330 -0.19200
H 	H 	0.74692 0.18544 0.28581 0.08700
C 	C 	0.01548 0.17860 0.98887 -0.03500
C 	C 	0.47748 0.18377 0.60800 -0.11200
C 	C 	0.94842 0.18725 0.90959 -0.09900
H 	H 	0.40581 0.18612 0.54470 0.07800
O 	O 	0.50161 0.19554 0.35644 -0.38300
H 	H 	0.92253 0.19064 0.87883 0.05300
H 	H 	0.01808 0.18867 0.81470 0.08600
C 	C 	0.51219 0.18519 0.64706 -0.02300
O 	O 	0.43016 0.19803 0.33776 -0.42200
N 	N 	0.45240 0.20651 0.20012 -0.20200
H 	H 	0.44282 0.20713 0.15524 0.07800
N 	N 	0.40776 0.19799 0.58031 -0.20300
C 	C 	0.46928 0.20485 0.32703 0.29400
H 	H 	0.70296 0.20232 0.31284 0.08200
C 	C 	0.00091 0.20469 0.35696 0.12200
C 	C 	0.44228 0.19903 0.61671 0.12100
C 	C 	0.01716 0.19828 0.95052 0.06000
C 	C 	0.98842 0.20543 0.29595 -0.11200
H 	H 	0.38218 0.20938 0.58734 0.07900
H 	H 	0.57300 0.19166 0.72405 0.07700
C 	C 	0.98297 0.20278 0.91112 -0.00300
N 	N 	0.01551 0.20430 0.79000 -0.19100
H 	H 	0.02705 0.20437 0.74603 0.08000
C 	C 	0.51353 0.20228 0.69271 0.05600
C 	C 	0.44362 0.21598 0.66278 -0.09700
N 	N 	0.54758 0.20325 0.72997 -0.19200
H 	H 	0.07646 0.20937 0.98147 0.07400
H 	H 	0.00777 0.22479 0.43869 0.05600
C 	C 	0.46463 0.22661 0.22897 0.11900
H 	H 	0.45326 0.22236 0.81303 0.05400
N 	N 	0.05161 0.21271 0.95171 -0.19300
C 	C 	0.99729 0.22512 0.39233 -0.10200
C 	C 	0.47613 0.22618 0.29040 -0.11000
C 	C 	0.47958 0.21841 0.69895 -0.00100
C 	C 	0.97004 0.22605 0.27258 -0.01900
H 	H 	0.41734 0.22810 0.66861 0.05400
H 	H 	0.54881 0.21510 0.76587 0.08400
C 	C 	0.98202 0.22432 0.87333 -0.00100
C 	C 	0.99801 0.22419 0.81392 0.05500
H 	H 	0.95995 0.22646 0.22606 0.04300
H 	H 	0.44630 0.24016 0.90960 0.07900
H 	H 	0.05439 0.22716 0.92279 0.08600
H 	H 	0.90792 0.24334 0.41889 0.08600
C 	C 	0.46840 0.23841 0.79716 -0.10100
C 	C 	0.99771 0.99705 0.03748 0.02000
C 	C 	0.46670 0.24798 0.19708 -0.09600
H 	H 	0.45743 0.24844 0.15022 0.05500
C 	C 	0.98023 0.24598 0.36848 0.00200
C 	C 	0.49143 0.24680 0.31791 -0.02100
H 	H 	0.50046 0.24638 0.36487 0.04200
C 	C 	0.48345 0.23950 0.73799 0.00100
C 	C 	0.99571 0.24491 0.77920 -0.02400
H 	H 	0.00707 0.24475 0.73327 0.04400
C 	C 	0.96561 0.24637 0.30839 0.05600
C 	C 	0.96495 0.24516 0.89727 -0.09600
N 	N 	0.46163 0.25548 0.89485 -0.20400
H 	H 	0.95330 0.24526 0.94306 0.05100
N 	N 	0.91188 0.25710 0.44965 -0.19200
H 	H 	0.88803 0.25991 0.48134 0.07800
C 	C 	0.47416 0.25754 0.83664 0.12900
H 	H 	0.55691 0.26807 0.18529 0.08700
H 	H 	0.51309 0.24843 0.62853 0.08600
C 	C 	0.48131 0.26868 0.22479 -0.00000
C 	C 	0.49415 0.26812 0.28569 0.05700
H 	H 	0.46787 0.26870 0.92634 0.09200
C 	C 	0.97943 0.26751 0.40631 -0.00200
N 	N 	0.94730 0.26610 0.28492 -0.19200
C 	C 	0.50304 0.26044 0.71688 0.05600
C 	C 	0.97783 0.26562 0.80283 -0.10900
C 	C 	0.94638 0.27149 0.44798 0.05600
H 	H 	0.93714 0.26632 0.24028 0.08200
C 	C 	0.96337 0.26596 0.86299 0.11600
N 	N 	0.55467 0.28250 0.15623 -0.19200
N 	N 	0.51703 0.26219 0.65925 -0.19200
H 	H 	0.58080 0.28646 0.12930 0.08000
H 	H 	0.03849 0.28038 0.37085 0.05500
H 	H 	0.94234 0.28125 0.31082 0.08700
C 	C 	0.49401 0.27843 0.81551 -0.11700
C 	C 	0.01358 0.28329 0.40351 -0.09600
C 	C 	0.48336 0.29077 0.18918 0.00100
N 	N 	0.50906 0.28790 0.31341 -0.19200
H 	H 	0.51837 0.28730 0.35840 0.08000
C 	C 	0.50815 0.27966 0.75599 -0.02400
H 	H 	0.19969 0.28609 0.78866 0.08000
C 	C 	0.94924 0.29059 0.48807 -0.02200
H 	H 	0.92453 0.29334 0.52111 0.03000
C 	C 	0.51931 0.29621 0.15392 0.05700
H 	H 	0.53185 0.27765 0.64436 0.07600
C 	C 	0.97146 0.28618 0.76329 0.29100
N 	N 	0.94873 0.28628 0.88841 -0.20200
H 	H 	0.42088 0.30177 0.21584 0.05500
C 	C 	0.50152 0.29886 0.85504 0.29400
O 	O 	0.93258 0.29217 0.74862 -0.42200
H 	H 	0.93695 0.28620 0.93225 0.07400
C 	C 	0.44803 0.30575 0.18786 -0.09900
H 	H 	0.51174 0.30399 0.29073 0.08700
O 	O 	0.54048 0.30369 0.87169 -0.42600
O 	O 	0.00445 0.29558 0.73563 -0.38000
C 	C 	0.01583 0.30279 0.44240 0.12700
H 	H 	0.52332 0.29569 0.74002 0.02100
N 	N 	0.21478 0.30223 0.79678 -0.19200
H 	H 	0.24537 0.30183 0.81436 0.08600
C 	C 	0.98410 0.30593 0.48655 -0.11500
O 	O 	0.46895 0.31071 0.87706 -0.38500
C 	C 	0.51839 0.31599 0.11589 -0.02400
H 	H 	0.13887 0.30581 0.75016 0.04400
H 	H 	0.94368 0.31070 0.63586 0.17100
H 	H 	0.95022 0.30246 0.86588 0.05900
H 	H 	0.54547 0.31983 0.08766 0.03200
H 	H 	0.07192 0.31577 0.40486 0.08100
C 	C 	0.44762 0.32596 0.15117 0.12600
N 	N 	0.04786 0.31869 0.43616 -0.20300
C 	C 	0.48244 0.33051 0.11287 -0.11300
C 	C 	0.19483 0.32301 0.78440 0.05700
H 	H 	0.52885 0.32849 0.97604 0.16500
C 	C 	0.98757 0.32462 0.53234 0.29200
O 	O 	0.01989 0.32484 0.56934 -0.39300
C 	C 	0.15396 0.32263 0.75970 -0.02200
Cu	Cu	0.91580 0.32417 0.73548 0.86600
O 	O 	0.94797 0.32488 0.66125 -0.64100
Cu	Cu	0.00604 0.32684 0.69685 0.89500
H 	H 	0.38810 0.33722 0.18075 0.08100
H 	H 	0.28515 0.34254 0.99424 0.07700
Cu	Cu	0.56174 0.33523 0.87542 0.86700
H 	H 	0.04830 0.33452 0.46031 0.08000
N 	N 	0.41447 0.34126 0.15438 -0.20300
N 	N 	0.31121 0.34464 0.96587 -0.20300
H 	H 	0.23789 0.34305 0.91078 0.05300
H 	H 	0.34136 0.34343 0.98469 0.07800
O 	O 	0.52715 0.34127 0.94574 -0.64300
O 	O 	0.95683 0.34005 0.53877 -0.36800
O 	O 	0.06081 0.33120 0.73454 -0.38700
H 	H 	0.77144 0.34037 0.65421 0.07700
H 	H 	0.82793 0.33934 0.65441 0.07000
Cu	Cu	0.47032 0.34352 0.90659 0.89400
C 	C 	0.48097 0.34950 0.06747 0.29100
C 	C 	0.30561 0.34740 0.90571 0.12100
C 	C 	0.26482 0.34548 0.88127 -0.09800
O 	O 	0.41628 0.34757 0.86677 -0.38800
O 	O 	0.44941 0.35038 0.02903 -0.39200
C 	C 	0.25858 0.34624 0.81901 -0.00000
C 	C 	0.21490 0.34502 0.79510 -0.00100
C 	C 	0.13315 0.34376 0.74491 -0.11000
N 	N 	0.80016 0.34750 0.66881 -0.20400
H 	H 	0.70625 0.34737 0.95542 0.07400
C 	C 	0.09326 0.34262 0.71087 0.30000
C 	C 	0.34047 0.35152 0.86714 -0.11000
H 	H 	0.65004 0.35058 0.95723 0.07000
H 	H 	0.41544 0.35777 0.13343 0.08400
C 	C 	0.29375 0.34884 0.78019 0.05700
C 	C 	0.33435 0.35169 0.80475 -0.02200
H 	H 	0.25931 0.34581 0.69972 0.08600
C 	C 	0.38261 0.35732 0.89163 0.29900
Cu	Cu	0.94529 0.35570 0.61879 0.92700
N 	N 	0.28880 0.34863 0.71951 -0.19200
N 	N 	0.67908 0.35584 0.93956 -0.20500
O 	O 	0.51399 0.36338 0.06034 -0.36000
O 	O 	0.09355 0.34927 0.65396 -0.39700
H 	H 	0.36113 0.35452 0.77518 0.04200
H 	H 	0.31487 0.35093 0.69127 0.07900
Cu	Cu	0.04400 0.35830 0.60338 0.89100
O 	O 	0.00323 0.35841 0.66526 -0.64100
O 	O 	0.90517 0.35689 0.74415 -0.44900
H 	H 	0.73311 0.36500 0.72135 0.05100
C 	C 	0.19338 0.36615 0.78260 -0.09700
H 	H 	0.74892 0.36715 0.88349 0.05000
C 	C 	0.80063 0.36591 0.70826 0.11800
O 	O 	0.57810 0.36659 0.85724 -0.44800
O 	O 	0.88905 0.36669 0.64819 -0.37100
C 	C 	0.88027 0.36749 0.70572 0.30200
C 	C 	0.15250 0.36576 0.75802 0.12000
Cu	Cu	0.53306 0.37379 0.97780 0.92400
O 	O 	0.38612 0.37592 0.92722 -0.39800
C 	C 	0.68197 0.37253 0.89565 0.11700
C 	C 	0.76252 0.37353 0.73403 -0.09800
O 	O 	0.47748 0.37664 0.92528 -0.63800
H 	H 	0.00654 0.37112 0.69551 0.15900
C 	C 	0.72130 0.37693 0.86873 -0.09800
Cu	Cu	0.43427 0.38312 0.98191 0.88700
O 	O 	0.59213 0.38005 0.95098 -0.37400
C 	C 	0.60292 0.37795 0.89437 0.30200
C 	C 	0.83914 0.37671 0.72616 -0.12200
H 	H 	0.20856 0.38297 0.79190 0.05300
H 	H 	0.47801 0.38720 0.88981 0.15800
O 	O 	0.01802 0.38403 0.55426 -0.39100
C 	C 	0.64567 0.38477 0.87469 -0.12200
O 	O 	0.94967 0.38732 0.58887 -0.36400
N 	N 	0.13177 0.38650 0.74809 -0.20300
H 	H 	0.10031 0.38681 0.73394 0.07300
C 	C 	0.72454 0.39205 0.81911 -0.00100
C 	C 	0.76246 0.39026 0.78044 -0.00100
H 	H 	0.99682 0.39800 0.45199 0.09900
C 	C 	0.98497 0.39709 0.56920 0.29600
C 	C 	0.83849 0.39508 0.76854 -0.02100
O 	O 	0.53373 0.40679 0.99647 -0.37300
C 	C 	0.64989 0.40175 0.82916 -0.02100
C 	C 	0.80041 0.40197 0.79594 0.05400
O 	O 	0.46407 0.40972 0.02254 -0.38800
H 	H 	0.14673 0.40267 0.75637 0.07800
C 	C 	0.68909 0.40552 0.80107 0.05400
H 	H 	0.86783 0.40364 0.78132 0.03500
N 	N 	0.00909 0.41515 0.45162 -0.20300
H 	H 	0.62231 0.41155 0.81426 0.03500
C 	C 	0.49918 0.41956 0.00264 0.30800
H 	H 	0.02434 0.42097 0.41269 0.08200
C 	C 	0.98441 0.42239 0.55267 -0.11300
N 	N 	0.69247 0.42201 0.75685 -0.19200
N 	N 	0.80050 0.41980 0.83696 -0.19200
H 	H 	0.72167 0.42612 0.73761 0.08600
C 	C 	0.00159 0.43043 0.49758 0.12900
H 	H 	0.82884 0.42794 0.84949 0.07800
H 	H 	0.77239 0.42620 0.85543 0.08400
H 	H 	0.66588 0.43143 0.74253 0.07900
H 	H 	0.53373 0.42967 0.89941 0.08100
H 	H 	0.95397 0.43274 0.63523 0.04000
C 	C 	0.96862 0.43889 0.59406 -0.02700
C 	C 	0.50296 0.44566 0.00310 -0.10100
H 	H 	0.46033 0.44987 0.07807 0.04500
N 	N 	0.54532 0.44616 0.91268 -0.20000
C 	C 	0.48151 0.45878 0.04717 -0.02400
C 	C 	0.00851 0.45473 0.48912 -0.09800
C 	C 	0.52959 0.45754 0.96167 0.11500
H 	H 	0.02395 0.46089 0.44855 0.05400
H 	H 	0.56721 0.45456 0.88471 0.08200
C 	C 	0.97196 0.46327 0.58299 0.05900
C 	C 	0.99417 0.47121 0.53155 -0.00400
C 	C 	0.53827 0.48167 0.96987 -0.11000
C 	C 	0.48723 0.48335 0.05176 0.05700
H 	H 	0.44245 0.48729 0.12027 0.08000
H 	H 	0.93877 0.47288 0.66056 0.08000
N 	N 	0.95377 0.47889 0.62163 -0.19200
H 	H 	0.05641 0.47941 0.60221 0.08300
N 	N 	0.46351 0.49593 0.09150 -0.19200
H 	H 	0.56785 0.49595 0.10496 0.09000
C 	C 	0.51741 0.49468 0.01453 0.01100
H 	H 	0.56032 0.49054 0.94013 0.05600
C 	C 	0.00265 0.49671 0.52157 0.00500
H 	H 	0.96004 0.49870 0.44627 0.05700
N 	N 	0.05613 0.49784 0.59909 -0.19200
H 	H 	0.95293 0.49700 0.61245 0.08800
N 	N 	0.56663 0.51418 0.11243 -0.19200
H 	H 	0.46445 0.51439 0.09273 0.08400
H 	H 	0.58121 0.52085 0.15099 0.08100
C 	C 	0.98123 0.50852 0.47535 -0.10100
C 	C 	0.03177 0.50926 0.55791 0.05500
H 	H 	0.07641 0.50738 0.62716 0.07800
C 	C 	0.52687 0.52025 0.02103 0.01000
C 	C 	0.54847 0.52910 0.07204 0.05800
H 	H 	0.49861 0.52911 0.93588 0.05400
H 	H 	0.95089 0.53363 0.38732 0.08500
C 	C 	0.51321 0.53597 0.97635 -0.11200
C 	C 	0.98801 0.53272 0.46509 0.12300
C 	C 	0.03564 0.53387 0.55109 -0.02500
N 	N 	0.97168 0.54301 0.41498 -0.20000
C 	C 	0.01335 0.54581 0.50574 -0.10900
C 	C 	0.55098 0.55366 0.08100 -0.02900
H 	H 	0.05594 0.54372 0.58132 0.04300
H 	H 	0.56471 0.56052 0.12208 0.03800
H 	H 	0.98173 0.55968 0.40068 0.08200
H 	H 	0.66429 0.56162 0.21296 0.08400
C 	C 	0.51910 0.56043 0.98302 0.11500
C 	C 	0.53471 0.56939 0.03809 -0.09800
N 	N 	0.65364 0.57907 0.20908 -0.20600
H 	H 	0.72527 0.57419 0.26766 0.05600
H 	H 	0.74019 0.60327 0.46451 0.08000
H 	H 	0.71148 0.59967 0.39573 0.08400
H 	H 	0.62555 0.58209 0.18570 0.09400
H 	H 	0.49799 0.56853 0.89638 0.07900
C 	C 	0.01515 0.57194 0.50289 0.29300
H 	H 	0.34681 0.57977 0.16645 0.07900
H 	H 	0.20034 0.57396 0.39677 0.07800
N 	N 	0.74020 0.60262 0.41762 -0.19200
N 	N 	0.51185 0.57505 0.93563 -0.20200
C 	C 	0.52997 0.59461 0.05404 0.29300
O 	O 	0.05001 0.58277 0.52109 -0.39100
O 	O 	0.97932 0.58381 0.49658 -0.35900
N 	N 	0.17784 0.58649 0.38369 -0.20200
H 	H 	0.39710 0.59423 0.17130 0.07300
H 	H 	0.14613 0.58311 0.39357 0.07100
C 	C 	0.71438 0.59232 0.26351 -0.10300
H 	H 	0.25425 0.59417 0.34152 0.05300
H 	H 	0.28590 0.59496 0.21705 0.05400
N 	N 	0.36454 0.59458 0.17900 -0.20200
C 	C 	0.67629 0.59717 0.23337 0.13200
C 	C 	0.77701 0.60460 0.38648 0.05700
H 	H 	0.81528 0.60829 0.46616 0.03900
H 	H 	0.52280 0.59248 0.93561 0.09500
C 	C 	0.81539 0.60699 0.41759 -0.02000
O 	O 	0.56301 0.60607 0.07586 -0.36200
C 	C 	0.77710 0.60491 0.32298 -0.00200
O 	O 	0.49562 0.60606 0.03659 -0.38800
H 	H 	0.03405 0.59984 0.39374 0.15200
C 	C 	0.73814 0.61068 0.28920 0.00400
H 	H 	0.49954 0.61676 0.17778 0.15900
O 	O 	0.92307 0.60493 0.42938 -0.37500
C 	C 	0.18941 0.60556 0.35024 0.12000
C 	C 	0.23074 0.60702 0.32762 -0.09700
C 	C 	0.30435 0.61031 0.22998 -0.09800
C 	C 	0.34605 0.61274 0.20930 0.12200
C 	C 	0.66195 0.62085 0.22918 -0.12800
C 	C 	0.81562 0.60402 0.29203 -0.09600
C 	C 	0.85360 0.60918 0.38622 -0.11900
C 	C 	0.62033 0.62662 0.20374 0.30400
Cu	Cu	0.07557 0.61111 0.48192 0.89300
O 	O 	0.03305 0.61294 0.42326 -0.64300
C 	C 	0.85405 0.60626 0.32305 0.11200
O 	O 	0.50153 0.63035 0.14987 -0.64200
O 	O 	0.61623 0.62879 0.14540 -0.37300
O 	O 	0.59127 0.63548 0.23901 -0.44800
Cu	Cu	0.97595 0.61610 0.47019 0.92400
C 	C 	0.89068 0.61873 0.41775 0.29900
H 	H 	0.00446 0.61699 0.66128 0.09700
C 	C 	0.72459 0.63444 0.28272 0.05200
H 	H 	0.81560 0.60319 0.24339 0.05300
Cu	Cu	0.46324 0.62961 0.08498 0.89200
C 	C 	0.15987 0.62353 0.33589 -0.10900
C 	C 	0.24182 0.62483 0.28675 -0.00100
C 	C 	0.28662 0.62730 0.26830 -0.00000
C 	C 	0.68645 0.63923 0.25309 -0.01900
Cu	Cu	0.56049 0.63725 0.10947 0.92800
O 	O 	0.41093 0.63612 0.13260 -0.39300
C 	C 	0.12029 0.62622 0.37054 0.29300
O 	O 	0.12176 0.62414 0.42969 -0.39500
H 	H 	0.97892 0.62720 0.72819 0.08200
C 	C 	0.36886 0.63367 0.22263 -0.11000
N 	N 	0.89105 0.60630 0.29186 -0.20700
H 	H 	0.92022 0.60717 0.31361 0.06000
C 	C 	0.40884 0.63931 0.19133 0.29800
O 	O 	0.98683 0.62890 0.55358 -0.36600
N 	N 	0.99357 0.63109 0.68731 -0.20600
H 	H 	0.89094 0.60488 0.24508 0.07400
H 	H 	0.77724 0.64992 0.32529 0.08200
O 	O 	0.08678 0.63538 0.34377 -0.38300
N 	N 	0.74801 0.65270 0.30477 -0.19100
H 	H 	0.67557 0.65736 0.24907 0.00600
O 	O 	0.43795 0.65167 0.22006 -0.38800
H 	H 	0.46216 0.64966 0.94698 0.07200
C 	C 	0.21051 0.64073 0.26578 0.05900
C 	C 	0.17015 0.64041 0.29198 -0.02600
C 	C 	0.31141 0.64672 0.28778 0.05900
Cu	Cu	0.03544 0.64324 0.38619 0.90100
O 	O 	0.89332 0.64154 0.42698 -0.43000
C 	C 	0.02036 0.64183 0.56566 0.29200
O 	O 	0.05200 0.64255 0.52739 -0.38600
C 	C 	0.35178 0.65015 0.26312 -0.02500
O 	O 	0.55033 0.65363 0.02994 -0.36500
Cu	Cu	0.49202 0.66054 0.18641 0.89500
O 	O 	0.98247 0.64851 0.43510 -0.63700
H 	H 	0.73730 0.67012 0.30061 0.07300
Cu	Cu	0.57747 0.66793 0.23236 0.86600
C 	C 	0.00123 0.65393 0.67137 0.13000
H 	H 	0.43379 0.66523 0.88970 0.07800
N 	N 	0.21902 0.65631 0.22080 -0.19200
H 	H 	0.14706 0.65365 0.27906 0.04900
H 	H 	0.26841 0.65892 0.35284 0.08700
H 	H 	0.24760 0.65579 0.19738 0.08800
O 	O 	0.54995 0.66700 0.15457 -0.64000
O 	O 	0.48355 0.66451 0.05608 -0.39100
N 	N 	0.45800 0.66502 0.92164 -0.20300
H 	H 	0.36971 0.66583 0.27498 0.04900
N 	N 	0.29675 0.66201 0.33013 -0.19200
C 	C 	0.51660 0.66672 0.02090 0.30700
Cu	Cu	0.93532 0.65948 0.38771 0.87400
H 	H 	0.98806 0.66062 0.46615 0.16600
C 	C 	0.01829 0.65958 0.61430 -0.11700
H 	H 	0.93194 0.67416 0.26151 0.04500
H 	H 	0.97904 0.66809 0.75574 0.05500
H 	H 	0.52973 0.68893 0.36216 0.06400
H 	H 	0.19624 0.66859 0.20722 0.08200
H 	H 	0.55204 0.68191 0.13140 0.17500
O 	O 	0.03247 0.67141 0.33427 -0.38000
C 	C 	0.99383 0.67214 0.71303 -0.10600
H 	H 	0.31461 0.67679 0.34251 0.08100
C 	C 	0.48468 0.68380 0.92706 0.12400
O 	O 	0.48499 0.69137 0.22582 -0.38300
C 	C 	0.51623 0.68430 0.97216 -0.12200
O 	O 	0.55511 0.69887 0.24640 -0.42100
C 	C 	0.99848 0.68430 0.32347 0.28700
N 	N 	0.93025 0.69025 0.23861 -0.20000
H 	H 	0.90301 0.69380 0.21360 0.07500
N 	N 	0.52737 0.70538 0.38325 -0.20200
H 	H 	0.53565 0.70647 0.42859 0.07700
C 	C 	0.51461 0.70309 0.25543 0.29500
O 	O 	0.96839 0.68605 0.36377 -0.41600
C 	C 	0.03173 0.68280 0.60253 -0.02500
H 	H 	0.04561 0.68706 0.55935 0.03800
C 	C 	0.48159 0.70271 0.88647 -0.09900
H 	H 	0.45649 0.70286 0.85329 0.05400
C 	C 	0.99954 0.70168 0.27406 -0.11200
C 	C 	0.96350 0.70553 0.23761 0.11400
C 	C 	0.00620 0.69545 0.70046 0.00600
H 	H 	0.04387 0.70301 0.80724 0.05200
C 	C 	0.54636 0.70249 0.97242 -0.03600
H 	H 	0.57113 0.70251 0.00609 0.04500
H 	H 	0.54839 0.70965 0.79186 0.08500
C 	C 	0.02711 0.70063 0.64580 0.05500
C 	C 	0.51225 0.72471 0.35381 0.11800
C 	C 	0.50250 0.72373 0.29184 -0.10900
H 	H 	0.06352 0.71259 0.29323 0.04500
C 	C 	0.99634 0.71442 0.74418 -0.00500
C 	C 	0.02173 0.71690 0.79538 -0.09700
C 	C 	0.51061 0.72144 0.88836 -0.00100
N 	N 	0.54000 0.72425 0.76576 -0.19200
H 	H 	0.54984 0.72457 0.72098 0.07900
C 	C 	0.96258 0.72504 0.19870 -0.09400
C 	C 	0.03557 0.71586 0.26627 -0.02100
H 	H 	0.93434 0.72866 0.17264 0.05400
H 	H 	0.01171 0.72284 0.08775 0.08700
H 	H 	0.06183 0.72518 0.89546 0.07600
H 	H 	0.93432 0.71206 0.66433 0.08500
C 	C 	0.54415 0.72100 0.93046 0.05900
C 	C 	0.50560 0.74583 0.38554 -0.09500
H 	H 	0.51400 0.74684 0.43267 0.05400
H 	H 	0.00308 0.73649 0.01626 0.08300
N 	N 	0.04300 0.72259 0.63479 -0.19200
C 	C 	0.48375 0.74331 0.26373 -0.02100
H 	H 	0.47571 0.74237 0.21646 0.04300
C 	C 	0.03545 0.73461 0.22486 0.05900
N 	N 	0.00370 0.73788 0.06303 -0.19100
C 	C 	0.01962 0.73757 0.83025 0.12400
C 	C 	0.96528 0.73171 0.73129 0.05800
N 	N 	0.04149 0.73887 0.88269 -0.20300
N 	N 	0.93640 0.72822 0.68693 -0.19200
H 	H 	0.05696 0.72647 0.59341 0.07900
C 	C 	0.50350 0.74229 0.84942 -0.00100
C 	C 	0.51758 0.74264 0.78907 0.05600
C 	C 	0.99806 0.73970 0.19235 -0.00400
N 	N 	0.57423 0.73822 0.93080 -0.19300
H 	H 	0.59832 0.73803 0.96292 0.07600
H 	H 	0.04317 0.73573 0.66772 0.08500
H 	H 	0.41356 0.76315 0.40041 0.08600
N 	N 	0.07127 0.74753 0.21636 -0.19200
H 	H 	0.09839 0.74401 0.24165 0.08100
H 	H 	0.03666 0.75279 0.91276 0.07900
H 	H 	0.91461 0.74145 0.67609 0.08000
H 	H 	0.51851 0.76253 0.70635 0.04300
H 	H 	0.57465 0.75159 0.89848 0.08600
C 	C 	0.48825 0.76567 0.35699 -0.00100
C 	C 	0.47632 0.76431 0.29582 0.05700
C 	C 	0.99569 0.75897 0.09025 0.05400
C 	C 	0.99382 0.75657 0.81097 -0.11800
C 	C 	0.96488 0.75292 0.76408 -0.02600
C 	C 	0.50845 0.76236 0.75290 -0.02100
N 	N 	0.41583 0.77735 0.43024 -0.19200
C 	C 	0.99495 0.76093 0.15360 0.00200
C 	C 	0.48154 0.76175 0.87281 -0.09500
H 	H 	0.47117 0.76147 0.91921 0.05200
H 	H 	0.39073 0.78025 0.45986 0.07800
H 	H 	0.05489 0.99918 0.16487 0.08200
H 	H 	0.07298 0.76068 0.18356 0.08700
H 	H 	0.94337 0.76698 0.75128 0.04500
C 	C 	0.48448 0.78805 0.39112 0.00100
N 	N 	0.45771 0.78299 0.26776 -0.19200
C 	C 	0.98879 0.77920 0.05502 -0.02300
H 	H 	0.98888 0.77772 0.00649 0.02900
C 	C 	0.48615 0.78175 0.77622 -0.11000
C 	C 	0.44971 0.79219 0.42974 0.05500
H 	H 	0.44958 0.78192 0.22236 0.08200
C 	C 	0.00137 0.78088 0.83285 0.30100
H 	H 	0.69619 0.79177 0.68838 0.08000
C 	C 	0.47349 0.78172 0.83723 0.11600
C 	C 	0.98859 0.78310 0.18045 -0.09900
H 	H 	0.98776 0.78448 0.22900 0.05600
H 	H 	0.54380 0.80150 0.35797 0.05500
H 	H 	0.45049 0.79857 0.29077 0.08700
O 	O 	0.96883 0.79549 0.83816 -0.39600
O 	O 	0.04075 0.78848 0.83715 -0.42400
H 	H 	0.74316 0.80091 0.72681 0.08500
C 	C 	0.51771 0.80444 0.38867 -0.09900
C 	C 	0.47568 0.80175 0.73651 0.29300
O 	O 	0.43565 0.80632 0.72502 -0.42000
N 	N 	0.71261 0.80481 0.71212 -0.19200
C 	C 	0.45025 0.81191 0.46809 -0.02300
H 	H 	0.42437 0.81469 0.49924 0.03000
O 	O 	0.50608 0.81182 0.70494 -0.38300
C 	C 	0.98259 0.80341 0.14520 0.12700
C 	C 	0.98306 0.80142 0.08185 -0.11500
N 	N 	0.45456 0.80098 0.86226 -0.20100
H 	H 	0.44415 0.80049 0.90677 0.07400
H 	H 	0.02698 0.80821 0.94522 0.16500
H 	H 	0.63701 0.81739 0.67553 0.03700
C 	C 	0.51763 0.82454 0.42572 0.12600
H 	H 	0.44211 0.82827 0.61285 0.16900
C 	C 	0.69445 0.82624 0.72277 0.05700
N 	N 	0.80521 0.81710 0.91997 -0.20400
H 	H 	0.77801 0.81152 0.94257 0.07800
H 	H 	0.83453 0.81327 0.93918 0.08200
H 	H 	0.45139 0.81686 0.83877 0.05600
C 	C 	0.48455 0.82765 0.46782 -0.11500
O 	O 	0.02405 0.82249 0.91988 -0.64500
C 	C 	0.97969 0.82246 0.04325 0.28900
O 	O 	0.94788 0.82436 0.00557 -0.39200
C 	C 	0.65368 0.83090 0.70080 -0.02300
C 	C 	0.80217 0.82787 0.86551 0.12300
H 	H 	0.73432 0.82417 0.86129 0.05400
N 	N 	0.97544 0.82461 0.17241 -0.20500
H 	H 	0.57392 0.83810 0.39016 0.08100
Cu	Cu	0.41459 0.83788 0.71560 0.86600
O 	O 	0.44568 0.84175 0.64080 -0.64000
C 	C 	0.48687 0.84615 0.51428 0.29300
Cu	Cu	0.05656 0.82094 0.84657 0.86700
Cu	Cu	0.96736 0.82582 0.88145 0.89300
O 	O 	0.91392 0.83142 0.84168 -0.39000
H 	H 	0.20444 0.83727 0.92832 0.07600
H 	H 	0.14797 0.83592 0.92873 0.07200
C 	C 	0.76250 0.83001 0.83782 -0.09800
H 	H 	0.97593 0.82596 0.21920 0.08300
N 	N 	0.54874 0.84100 0.41966 -0.20300
Cu	Cu	0.50421 0.84424 0.67437 0.89600
O 	O 	0.51944 0.84688 0.55093 -0.39900
H 	H 	0.32774 0.85039 0.63132 0.07000
H 	H 	0.27154 0.84714 0.62995 0.07700
C 	C 	0.75887 0.83974 0.78019 0.00000
C 	C 	0.83857 0.83654 0.83579 -0.11200
O 	O 	0.55911 0.84851 0.71095 -0.39100
O 	O 	0.01130 0.83756 0.04085 -0.35800
C 	C 	0.87905 0.83908 0.86788 0.30200
N 	N 	0.17552 0.84429 0.91423 -0.20400
C 	C 	0.71621 0.84404 0.75516 0.00000
C 	C 	0.83522 0.84509 0.77687 -0.02200
C 	C 	0.79567 0.84666 0.74853 0.05500
H 	H 	0.96842 0.83980 0.14768 0.09300
O 	O 	0.45482 0.86071 0.52200 -0.36700
N 	N 	0.29820 0.85580 0.64689 -0.20400
C 	C 	0.63452 0.85294 0.71034 -0.11200
H 	H 	0.86330 0.85124 0.75365 0.03900
N 	N 	0.79324 0.85489 0.69123 -0.19200
H 	H 	0.76454 0.85550 0.66812 0.08500
H 	H 	0.54726 0.85725 0.44188 0.08200
C 	C 	0.59265 0.85745 0.68403 0.30400
H 	H 	0.82050 0.86037 0.66865 0.07800
Cu	Cu	0.02801 0.85309 0.96249 0.92500
O 	O 	0.97167 0.85738 0.91255 -0.64200
O 	O 	0.07006 0.85341 0.83810 -0.44600
O 	O 	0.88018 0.85287 0.91590 -0.40000
H 	H 	0.22730 0.86609 0.70144 0.05100
C 	C 	0.17449 0.86296 0.87560 0.11800
H 	H 	0.24206 0.86287 0.86272 0.05000
Cu	Cu	0.44007 0.87365 0.60428 0.92600
O 	O 	0.39912 0.86975 0.72845 -0.44700
O 	O 	0.58929 0.87360 0.64130 -0.39900
Cu	Cu	0.92859 0.85880 0.97131 0.88700
O 	O 	0.08551 0.86253 0.93498 -0.37300
C 	C 	0.29403 0.87255 0.69045 0.11700
C 	C 	0.21239 0.87120 0.85041 -0.09800
C 	C 	0.65590 0.87055 0.74391 0.12600
C 	C 	0.69685 0.86599 0.76526 -0.09900
Cu	Cu	0.53900 0.88036 0.59004 0.89200
O 	O 	0.49789 0.87680 0.65128 -0.63800
O 	O 	0.38234 0.88162 0.63424 -0.36900
C 	C 	0.37266 0.87989 0.69135 0.30300
C 	C 	0.09483 0.86359 0.87759 0.30000
C 	C 	0.25430 0.87627 0.71681 -0.09700
H 	H 	0.97065 0.86996 0.88163 0.15900
C 	C 	0.32949 0.88544 0.71186 -0.12300
C 	C 	0.13566 0.87348 0.85807 -0.12100
H 	H 	0.71351 0.87948 0.79058 0.05400
H 	H 	0.49990 0.88825 0.68481 0.16000
C 	C 	0.24998 0.89104 0.76693 -0.00100
C 	C 	0.21198 0.88838 0.80510 -0.00100
O 	O 	0.95620 0.88380 0.02053 -0.38800
O 	O 	0.02575 0.88473 0.99287 -0.37000
N 	N 	0.63703 0.89158 0.75694 -0.20400
H 	H 	0.60556 0.89491 0.74564 0.08600
O 	O 	0.50888 0.90568 0.54507 -0.39200
O 	O 	0.44112 0.90631 0.58117 -0.36400
C 	C 	0.32414 0.90204 0.75809 -0.02000
C 	C 	0.13578 0.89229 0.81696 -0.02100
C 	C 	0.17367 0.89985 0.79017 0.05400
C 	C 	0.98980 0.89580 0.00315 0.30500
C 	C 	0.28463 0.90495 0.78595 0.05400
H 	H 	0.10618 0.90070 0.80468 0.03500
H 	H 	0.65352 0.90467 0.78041 0.07800
C 	C 	0.47616 0.91745 0.56609 0.29900
H 	H 	0.35107 0.91223 0.77360 0.03700
H 	H 	0.43131 0.92427 0.47231 0.10300
N 	N 	0.28017 0.92106 0.83087 -0.19200
N 	N 	0.17306 0.91807 0.75028 -0.19200
H 	H 	0.94851 0.92143 0.08645 0.04500
H 	H 	0.02179 0.91064 0.90223 0.08100
H 	H 	0.20098 0.92492 0.73228 0.08600
H 	H 	0.25069 0.92456 0.85002 0.08500
C 	C 	0.98998 0.92186 0.00945 -0.10200
H 	H 	0.14448 0.92604 0.73820 0.07900
H 	H 	0.30619 0.93081 0.84590 0.07800
N 	N 	0.43088 0.94273 0.47349 -0.20500
C 	C 	0.96705 0.93240 0.05639 -0.02500
N 	N 	0.03047 0.92730 0.91829 -0.20000
C 	C 	0.47586 0.94339 0.56132 -0.11600
H 	H 	0.41357 0.95161 0.44046 0.08600
C 	C 	0.01334 0.93635 0.96941 0.11500
C 	C 	0.45299 0.95512 0.51545 0.13300
H 	H 	0.05024 0.93768 0.89146 0.08200
H 	H 	0.51710 0.94748 0.63756 0.02400
C 	C 	0.49958 0.95656 0.60259 -0.02400
C 	C 	0.96756 0.95703 0.06457 0.05800
H 	H 	0.92386 0.95631 0.13516 0.08000
C 	C 	0.01705 0.96066 0.98118 -0.10600
N 	N 	0.94231 0.96697 0.10714 -0.19200
C 	C 	0.45395 0.97994 0.51250 -0.10100
C 	C 	0.99416 0.97115 0.02803 0.00500
H 	H 	0.03653 0.97161 0.95231 0.05500
H 	H 	0.04405 0.97407 0.11828 0.09100
C 	C 	0.50108 0.98134 0.59907 0.05500
H 	H 	0.43650 0.98904 0.47751 0.05700
H 	H 	0.93960 0.98529 0.11157 0.08500
C 	C 	0.47827 0.99308 0.55321 0.00200
H 	H 	0.54148 0.98482 0.67302 0.07700
H 	H 	0.54136 0.99808 0.48357 0.08600
N 	N 	0.04041 0.99213 0.12667 -0.19000
N 	N 	0.52461 0.99369 0.63953 -0.19200
