data_crystal

_cell_length_a 28.50427
_cell_length_b 31.86832
_cell_length_c 16.94597
_cell_angle_alpha 91.37037
_cell_angle_beta  90.05560
_cell_angle_gamma 90.05526

_symmetry_space_group_name_	'P 1'
_symmetry_space_group_name_H-M	'P 1'

loop_
_symmetry_equiv_pos_as_xyz
  x,y,z

loop_
_atom_site_label
_atom_site_type_symbol
_atom_site_fract_x
_atom_site_fract_y
_atom_site_fract_z
_atom_site_charge
Cd	Cd	0.05549 0.87232 0.19309 1.23100
Cd	Cd	0.02231 0.93642 0.35925 1.16700
O 	O 	0.99672 0.82465 0.13395 -0.30700
O 	O 	0.06739 0.82961 0.08519 -0.40200
C 	C 	0.02790 0.80893 0.08577 0.32400
O 	O 	0.11636 0.91632 0.20921 -0.40800
O 	O 	0.09999 0.93337 0.33830 -0.44900
C 	C 	0.11977 0.94250 0.27064 0.26700
C 	C 	0.00053 0.94544 0.17009 0.34100
O 	O 	0.02495 0.86404 0.33899 -0.45200
O 	O 	0.01802 0.93120 0.10342 -0.41700
O 	O 	0.00605 0.92131 0.22970 -0.55600
C 	C 	0.06056 0.83918 0.35008 0.29700
O 	O 	0.08533 0.82946 0.28769 -0.36700
Cd	Cd	0.81954 0.91852 0.99386 1.23300
Cd	Cd	0.85768 0.95649 0.80727 1.16700
O 	O 	0.75917 0.86401 0.98504 -0.33700
O 	O 	0.79559 0.87800 0.09609 -0.35900
C 	C 	0.76814 0.85229 0.05629 0.36000
O 	O 	0.88121 0.96115 0.02301 -0.34300
O 	O 	0.87561 0.99940 0.90977 -0.42600
C 	C 	0.89863 0.98914 0.97389 0.24700
C 	C 	0.88472 0.86999 0.90221 0.30600
O 	O 	0.78514 0.95545 0.87040 -0.45300
O 	O 	0.88076 0.85614 0.97357 -0.28800
O 	O 	0.85501 0.89914 0.88414 -0.54400
C 	C 	0.76851 0.98462 0.91810 0.28700
O 	O 	0.77080 0.97641 0.99312 -0.36700
C 	C 	0.83040 0.70290 0.95206 0.12100
N 	N 	0.81840 0.70136 0.87406 -0.13900
C 	C 	0.84383 0.67750 0.82207 0.13100
N 	N 	0.88133 0.65565 0.84774 -0.14300
C 	C 	0.89426 0.65795 0.92460 0.13100
N 	N 	0.86885 0.68161 0.97678 -0.12000
C 	C 	0.00249 0.64770 0.18306 0.16900
N 	N 	0.02858 0.61217 0.17726 -0.13000
C 	C 	0.02422 0.58196 0.23185 0.13700
N 	N 	0.99316 0.58712 0.29205 -0.14300
C 	C 	0.96626 0.62228 0.29740 0.13400
N 	N 	0.97129 0.65268 0.24313 -0.13700
Cd	Cd	0.91238 0.12377 0.62349 1.24100
Cd	Cd	0.95345 0.14717 0.81558 1.16300
O 	O 	0.85386 0.17081 0.56669 -0.29500
O 	O 	0.87864 0.11506 0.50225 -0.36300
C 	C 	0.84607 0.14364 0.50974 0.33100
O 	O 	0.97067 0.07765 0.63913 -0.38900
O 	O 	0.96724 0.08073 0.77421 -0.44100
C 	C 	0.98938 0.06983 0.70862 0.27200
C 	C 	0.98167 0.18684 0.64575 0.30600
O 	O 	0.87783 0.13488 0.76793 -0.45000
O 	O 	0.97781 0.17656 0.57090 -0.30900
O 	O 	0.94939 0.17194 0.69084 -0.54600
C 	C 	0.85708 0.09865 0.75719 0.28400
O 	O 	0.86300 0.08048 0.68834 -0.39100
Cd	Cd	0.98242 0.18051 0.37927 1.24500
Cd	Cd	0.07789 0.14071 0.26516 1.18000
O 	O 	0.92956 0.23117 0.31691 -0.30300
O 	O 	0.91488 0.20621 0.43382 -0.33300
C 	C 	0.90123 0.23000 0.37681 0.32000
O 	O 	0.01159 0.12787 0.45035 -0.37200
O 	O 	0.08484 0.13078 0.39517 -0.42300
C 	C 	0.05382 0.11164 0.43916 0.27600
C 	C 	0.96472 0.11550 0.26462 0.29700
O 	O 	0.05734 0.20813 0.30685 -0.44200
O 	O 	0.92855 0.12215 0.31042 -0.26500
O 	O 	0.99790 0.14346 0.27136 -0.52200
C 	C 	0.06987 0.22652 0.37320 0.28900
O 	O 	0.03919 0.22548 0.43014 -0.34600
C 	C 	0.67817 0.11096 0.63225 0.15400
N 	N 	0.65684 0.07362 0.64590 -0.12300
C 	C 	0.63247 0.06811 0.71386 0.12800
N 	N 	0.63044 0.09977 0.76886 -0.14500
C 	C 	0.65017 0.13752 0.75427 0.13000
N 	N 	0.67409 0.14307 0.68616 -0.14600
C 	C 	0.70696 0.26965 0.33287 0.18000
N 	N 	0.69026 0.28270 0.26259 -0.14200
C 	C 	0.64334 0.28327 0.24829 0.13500
N 	N 	0.61319 0.27184 0.30605 -0.13600
C 	C 	0.62972 0.25594 0.37440 0.13700
N 	N 	0.67669 0.25565 0.38810 -0.12700
Cd	Cd	0.32388 0.14883 0.26765 1.24200
Cd	Cd	0.27554 0.12084 0.45259 1.16500
O 	O 	0.39659 0.18991 0.27366 -0.30700
O 	O 	0.36472 0.17163 0.16068 -0.35000
C 	C 	0.39590 0.19479 0.19780 0.31700
O 	O 	0.26757 0.10181 0.23501 -0.37400
O 	O 	0.22669 0.11257 0.34991 -0.43800
C 	C 	0.23598 0.08925 0.28667 0.27300
C 	C 	0.36420 0.08226 0.35246 0.29600
O 	O 	0.28908 0.18539 0.39677 -0.45300
O 	O 	0.37944 0.08168 0.27966 -0.29300
O 	O 	0.34012 0.11502 0.37360 -0.54400
C 	C 	0.26119 0.20601 0.35048 0.29700
O 	O 	0.26932 0.20175 0.27506 -0.33900
Cd	Cd	0.12770 0.17261 0.04005 1.23400
Cd	Cd	0.14768 0.10839 0.86892 1.17800
O 	O 	0.18741 0.22621 0.06691 -0.30100
O 	O 	0.12148 0.22585 0.13320 -0.40000
C 	C 	0.16094 0.24508 0.11884 0.32700
O 	O 	0.06188 0.13291 0.02697 -0.40300
O 	O 	0.09788 0.07991 0.95490 -0.42600
C 	C 	0.05989 0.09624 0.98780 0.24300
C 	C 	0.10616 0.20501 0.88863 0.29900
O 	O 	0.19096 0.11973 0.98392 -0.48100
O 	O 	0.08818 0.22803 0.94555 -0.32900
O 	O 	0.13398 0.17529 0.91123 -0.54800
C 	C 	0.18699 0.09958 0.04986 0.34800
O 	O 	0.16286 0.11865 0.10533 -0.41600
C 	C 	0.18861 0.40276 0.00764 0.18600
N 	N 	0.16097 0.43739 0.00784 -0.11200
C 	C 	0.16473 0.46547 0.94928 0.09600
N 	N 	0.19673 0.45925 0.89081 -0.14000
C 	C 	0.22461 0.42472 0.89046 0.12800
N 	N 	0.22065 0.39661 0.94908 -0.15600
C 	C 	0.36908 0.35680 0.24106 0.16300
N 	N 	0.33164 0.37693 0.20950 -0.11600
C 	C 	0.30617 0.40447 0.25430 0.13500
N 	N 	0.31824 0.41209 0.33064 -0.14300
C 	C 	0.35500 0.39182 0.36317 0.13300
N 	N 	0.38051 0.36426 0.31830 -0.14400
Cd	Cd	0.16929 0.86823 0.86426 1.24100
Cd	Cd	0.07968 0.91735 0.98131 1.18200
O 	O 	0.20192 0.80063 0.90655 -0.32900
O 	O 	0.22465 0.82971 0.79728 -0.32700
C 	C 	0.23115 0.79991 0.84751 0.31500
O 	O 	0.14447 0.92216 0.79133 -0.39400
O 	O 	0.11430 0.95989 0.89590 -0.42700
C 	C 	0.11674 0.95217 0.81950 0.29000
C 	C 	0.07479 0.83985 0.85115 0.29900
O 	O 	0.15673 0.89976 0.00828 -0.39900
O 	O 	0.10038 0.82402 0.79373 -0.28600
O 	O 	0.09794 0.85896 0.90722 -0.52800
C 	C 	0.19369 0.92303 0.99628 0.23200
O 	O 	0.21834 0.91250 0.93432 -0.33800
Cd	Cd	0.22789 0.92683 0.66705 1.24400
Cd	Cd	0.21572 0.91371 0.45830 1.17100
O 	O 	0.29463 0.89245 0.72905 -0.28100
O 	O 	0.25312 0.93958 0.79318 -0.33700
C 	C 	0.29116 0.91690 0.79116 0.30100
O 	O 	0.17156 0.97218 0.63626 -0.38300
O 	O 	0.15143 0.94054 0.51792 -0.42700
C 	C 	0.15084 0.97352 0.56648 0.27000
C 	C 	0.28617 0.97405 0.56560 0.28500
O 	O 	0.21525 0.86660 0.56116 -0.44300
O 	O 	0.28633 0.98903 0.63780 -0.30400
O 	O 	0.26466 0.93844 0.55525 -0.52600
C 	C 	0.17878 0.85482 0.60148 0.30800
O 	O 	0.17399 0.87280 0.67087 -0.36200
C 	C 	0.41841 0.77894 0.94399 0.13000
N 	N 	0.42585 0.76874 0.02050 -0.09800
C 	C 	0.46520 0.78186 0.05919 0.13700
N 	N 	0.49856 0.80323 0.01945 -0.12300
C 	C 	0.49212 0.81292 0.94258 0.10900
N 	N 	0.45149 0.80156 0.90553 -0.12600
C 	C 	0.45253 0.95638 0.69158 0.16300
N 	N 	0.45236 0.92571 0.63423 -0.12600
C 	C 	0.47297 0.93241 0.56335 0.13200
N 	N 	0.49396 0.96982 0.54998 -0.14800
C 	C 	0.49305 0.00099 0.60600 0.13900
N 	N 	0.47416 0.99355 0.67795 -0.15400
C 	C 	0.46711 0.78079 0.14691 -0.03700
C 	C 	0.51040 0.78471 0.18753 0.10600
C 	C 	0.51105 0.80189 0.26472 -0.08300
C 	C 	0.46892 0.81094 0.30427 -0.00600
C 	C 	0.42592 0.79821 0.26949 0.07900
C 	C 	0.42519 0.78409 0.19032 -0.05400
N 	N 	0.55092 0.77082 0.15384 -0.19800
H 	H 	0.54426 0.80914 0.29318 0.05900
C 	C 	0.46936 0.84119 0.37225 -0.00300
N 	N 	0.38527 0.80034 0.31128 -0.19500
H 	H 	0.39184 0.77785 0.16159 0.08200
C 	C 	0.45441 0.88239 0.36009 -0.08600
C 	C 	0.45194 0.91164 0.42298 0.10300
C 	C 	0.46880 0.90061 0.49847 -0.04500
C 	C 	0.48395 0.85935 0.51084 -0.04900
C 	C 	0.48367 0.82923 0.44863 0.07300
H 	H 	0.44300 0.89130 0.30175 0.05800
N 	N 	0.43172 0.94959 0.41127 -0.20000
H 	H 	0.49628 0.85070 0.56880 0.05900
N 	N 	0.49670 0.78906 0.46285 -0.19400
H 	H 	0.42170 0.95833 0.35464 0.09200
H 	H 	0.42306 0.96953 0.45852 0.10100
H 	H 	0.50777 0.78068 0.51915 0.08900
H 	H 	0.49523 0.76562 0.41882 0.09300
H 	H 	0.35331 0.79250 0.28444 0.09100
H 	H 	0.38529 0.80821 0.37148 0.09100
H 	H 	0.55047 0.75253 0.10185 0.11200
H 	H 	0.58307 0.77579 0.18230 0.10200
C 	C 	0.37210 0.90486 0.83326 -0.08600
C 	C 	0.33484 0.93321 0.82657 -0.11900
C 	C 	0.34634 0.97545 0.81430 0.33400
C 	C 	0.38937 0.98508 0.77909 -0.12600
C 	C 	0.42118 0.95259 0.76052 -0.07600
C 	C 	0.41443 0.91329 0.79495 0.31800
F 	F 	0.44565 0.88189 0.78209 -0.45100
H 	H 	0.36545 0.87361 0.85413 0.09400
H 	H 	0.39580 0.01663 0.75945 0.08900
F 	F 	0.31331 0.00581 0.82367 -0.45800
C 	C 	0.28814 0.75812 0.92529 -0.07200
C 	C 	0.27805 0.78026 0.85660 -0.13400
C 	C 	0.31517 0.79032 0.80567 0.35300
C 	C 	0.36175 0.78621 0.83106 -0.13400
C 	C 	0.37150 0.77127 0.90690 -0.04900
C 	C 	0.33457 0.75351 0.95043 0.27500
F 	F 	0.34339 0.73246 0.01753 -0.41800
H 	H 	0.25992 0.74661 0.96170 0.08900
H 	H 	0.38995 0.79636 0.79319 0.11900
F 	F 	0.30624 0.80451 0.73233 -0.43400
C 	C 	0.25384 0.41462 0.82086 -0.04700
C 	C 	0.23373 0.39709 0.75109 0.10300
C 	C 	0.26156 0.39177 0.68331 -0.08500
C 	C 	0.30948 0.40181 0.68494 -0.00400
C 	C 	0.33025 0.41690 0.75614 0.07200
C 	C 	0.30195 0.42381 0.82319 -0.05000
N 	N 	0.18798 0.38486 0.74904 -0.19900
H 	H 	0.24587 0.37973 0.62900 0.05600
C 	C 	0.33666 0.39882 0.61026 -0.00500
N 	N 	0.37720 0.42428 0.76086 -0.19400
H 	H 	0.31744 0.43642 0.87723 0.05000
C 	C 	0.34656 0.43562 0.56968 -0.08500
C 	C 	0.36036 0.43358 0.49013 0.10400
C 	C 	0.36158 0.39425 0.44966 -0.04900
C 	C 	0.35782 0.35739 0.49294 -0.05100
C 	C 	0.34594 0.35936 0.57347 0.07100
H 	H 	0.34183 0.46591 0.59911 0.05700
N 	N 	0.37205 0.46936 0.45269 -0.19900
H 	H 	0.36114 0.32709 0.46294 0.05600
N 	N 	0.34296 0.32341 0.61479 -0.19400
H 	H 	0.36928 0.49854 0.48180 0.09000
H 	H 	0.38589 0.46831 0.39562 0.09700
H 	H 	0.34811 0.29424 0.58663 0.08200
H 	H 	0.33726 0.32418 0.67568 0.08800
H 	H 	0.39203 0.43639 0.81304 0.08700
H 	H 	0.39957 0.41698 0.71378 0.09000
H 	H 	0.16737 0.38506 0.79991 0.09500
H 	H 	0.17299 0.37338 0.69648 0.08700
C 	C 	0.23329 0.03498 0.02120 0.00300
C 	C 	0.19230 0.05387 0.05030 -0.10600
C 	C 	0.15467 0.02877 0.07393 0.01700
C 	C 	0.15629 0.98535 0.06200 -0.02300
C 	C 	0.19611 0.96648 0.02782 -0.04500
C 	C 	0.23553 0.99138 0.01134 0.01400
H 	H 	0.26294 0.05409 0.00443 0.05400
H 	H 	0.12335 0.04313 0.09838 0.02900
H 	H 	0.12597 0.96665 0.07678 -0.01700
H 	H 	0.26700 0.97716 0.98688 0.04300
C 	C 	0.12716 0.31665 0.11484 -0.07900
C 	C 	0.16571 0.29078 0.13077 -0.14100
C 	C 	0.21098 0.30831 0.12971 0.35500
C 	C 	0.21832 0.34701 0.09471 -0.11900
C 	C 	0.18024 0.36952 0.06506 -0.07000
C 	C 	0.13431 0.35579 0.08096 0.31000
F 	F 	0.09675 0.37839 0.05711 -0.44600
H 	H 	0.09179 0.30458 0.12016 0.09300
H 	H 	0.25374 0.35845 0.08683 0.13400
F 	F 	0.24847 0.28523 0.15223 -0.42900
C 	C 	0.32926 0.01228 0.37063 -0.03600
C 	C 	0.36021 0.04389 0.39711 -0.10300
C 	C 	0.37503 0.04467 0.47581 -0.04500
C 	C 	0.35385 0.01841 0.52985 -0.01000
C 	C 	0.31730 0.99153 0.50573 -0.12500
C 	C 	0.30696 0.98668 0.42511 -0.01300
H 	H 	0.31953 0.00999 0.30901 0.03400
H 	H 	0.40024 0.06795 0.49630 0.02800
H 	H 	0.36382 0.02069 0.59137 0.03700
H 	H 	0.27983 0.96509 0.40520 -0.06100
C 	C 	0.43268 0.30302 0.22661 -0.12000
C 	C 	0.39181 0.32150 0.19654 -0.06600
C 	C 	0.36765 0.30014 0.13499 0.32600
C 	C 	0.37632 0.25742 0.12041 -0.07900
C 	C 	0.40878 0.23630 0.16757 -0.12900
C 	C 	0.44187 0.26053 0.21024 0.34600
F 	F 	0.47824 0.24154 0.24675 -0.46000
H 	H 	0.45494 0.32037 0.26771 0.09900
H 	H 	0.35410 0.23995 0.07941 0.11000
F 	F 	0.33495 0.32011 0.09153 -0.42400
C 	C 	0.51282 0.04280 0.58801 -0.04900
C 	C 	0.48914 0.08083 0.60868 0.09500
C 	C 	0.50873 0.11931 0.58719 -0.08800
C 	C 	0.54814 0.12052 0.53821 -0.00600
C 	C 	0.57216 0.08291 0.51828 0.08200
C 	C 	0.55495 0.04457 0.54528 -0.05100
N 	N 	0.44717 0.08069 0.64667 -0.20100
H 	H 	0.49098 0.14834 0.60341 0.05100
C 	C 	0.56065 0.16052 0.50094 -0.00600
N 	N 	0.61158 0.08336 0.47306 -0.19300
H 	H 	0.57395 0.01585 0.53158 0.06300
C 	C 	0.58914 0.18945 0.54213 -0.08600
C 	C 	0.60681 0.22489 0.50434 0.10600
C 	C 	0.59858 0.22953 0.42258 -0.04100
C 	C 	0.56590 0.20307 0.38407 -0.05100
C 	C 	0.54621 0.16896 0.42301 0.08400
H 	H 	0.59791 0.18420 0.60334 0.05700
N 	N 	0.63050 0.25475 0.54695 -0.19700
H 	H 	0.55763 0.20765 0.32243 0.08200
N 	N 	0.51395 0.14423 0.38508 -0.19400
H 	H 	0.63858 0.25012 0.60631 0.09600
H 	H 	0.63871 0.28369 0.52283 0.11300
H 	H 	0.50433 0.15016 0.32686 0.11500
H 	H 	0.49701 0.11981 0.41360 0.09600
H 	H 	0.62884 0.05538 0.45804 0.10800
H 	H 	0.62618 0.11142 0.45406 0.10100
H 	H 	0.42627 0.05400 0.64749 0.08900
H 	H 	0.43285 0.10871 0.66903 0.07600
C 	C 	0.52543 0.84201 0.90427 -0.01700
C 	C 	0.53291 0.84066 0.82156 0.12600
C 	C 	0.55314 0.87553 0.78522 -0.06000
C 	C 	0.57147 0.90897 0.83105 -0.00800
C 	C 	0.57141 0.90657 0.91427 0.09600
C 	C 	0.54683 0.87400 0.95019 -0.09100
N 	N 	0.52197 0.80585 0.77738 -0.19100
H 	H 	0.55467 0.87658 0.72135 0.06400
C 	C 	0.58494 0.94851 0.79232 0.00300
N 	N 	0.59486 0.93538 0.95983 -0.21300
H 	H 	0.54354 0.87411 0.01393 0.08900
C 	C 	0.55642 0.98396 0.80341 -0.08800
C 	C 	0.56935 0.02280 0.77269 0.11100
C 	C 	0.61244 0.02644 0.73163 -0.03900
C 	C 	0.63920 0.99026 0.71549 -0.06300
C 	C 	0.62674 0.95155 0.74761 0.07400
H 	H 	0.52389 0.98129 0.83609 0.06500
N 	N 	0.53956 0.05597 0.78044 -0.19800
H 	H 	0.67132 0.99267 0.68166 0.06900
N 	N 	0.65586 0.91802 0.73771 -0.19400
H 	H 	0.50899 0.05351 0.81405 0.09300
H 	H 	0.54454 0.08328 0.74879 0.09700
H 	H 	0.68641 0.92055 0.70408 0.08400
H 	H 	0.64922 0.88952 0.76463 0.09400
H 	H 	0.59313 0.93441 0.02137 0.11600
H 	H 	0.61668 0.95778 0.93476 0.09300
H 	H 	0.51433 0.77739 0.80383 0.10100
H 	H 	0.52443 0.80619 0.71585 0.09800
C 	C 	0.64861 0.17137 0.81496 -0.05500
C 	C 	0.67166 0.16697 0.88831 0.11500
C 	C 	0.66314 0.19623 0.94964 -0.11800
C 	C 	0.63308 0.23034 0.93847 -0.01300
C 	C 	0.61293 0.23665 0.86329 0.06900
C 	C 	0.62070 0.20682 0.80219 -0.04900
N 	N 	0.70236 0.13507 0.89985 -0.20300
H 	H 	0.67955 0.19218 0.00674 0.08700
C 	C 	0.62112 0.25757 0.00750 0.00800
N 	N 	0.58571 0.27076 0.84971 -0.19500
H 	H 	0.60392 0.21063 0.74536 0.04300
C 	C 	0.65166 0.29041 0.02913 -0.05200
C 	C 	0.65329 0.30546 0.10770 0.09900
C 	C 	0.62636 0.28519 0.16562 -0.03900
C 	C 	0.58972 0.25840 0.14087 -0.05700
C 	C 	0.58665 0.24466 0.06173 0.08400
H 	H 	0.67583 0.30264 0.98597 0.03200
N 	N 	0.68016 0.33940 0.12710 -0.19600
H 	H 	0.56591 0.24563 0.18393 0.08400
N 	N 	0.55159 0.21813 0.03869 -0.17900
H 	H 	0.70159 0.35315 0.08487 0.09900
H 	H 	0.67797 0.35374 0.18306 0.10500
H 	H 	0.52705 0.20765 0.07960 0.10800
H 	H 	0.54738 0.20891 0.97956 0.07500
H 	H 	0.57038 0.27480 0.79435 0.08400
H 	H 	0.58003 0.29385 0.89338 0.08400
H 	H 	0.71205 0.11467 0.85377 0.10200
H 	H 	0.71819 0.13131 0.95488 0.08700
C 	C 	0.19416 0.25454 0.33448 -0.00500
C 	C 	0.21656 0.22378 0.37884 -0.09300
C 	C 	0.19153 0.20404 0.43889 0.00300
C 	C 	0.14306 0.20995 0.44523 -0.02900
C 	C 	0.11952 0.23446 0.38999 -0.07800
C 	C 	0.14557 0.25929 0.33889 -0.01600
H 	H 	0.21386 0.27233 0.29219 0.07100
H 	H 	0.20877 0.18170 0.47636 -0.04200
H 	H 	0.12341 0.19262 0.48840 0.04600
H 	H 	0.12789 0.28004 0.29880 0.04600
C 	C 	0.05347 0.03666 0.47584 -0.03700
C 	C 	0.07006 0.07764 0.48950 -0.06200
C 	C 	0.10910 0.08432 0.53885 -0.02200
C 	C 	0.13356 0.05019 0.56893 -0.02300
C 	C 	0.11964 0.00906 0.54897 -0.07300
C 	C 	0.07831 0.00245 0.50501 -0.00400
H 	H 	0.02321 0.03114 0.43823 -0.01400
H 	H 	0.12207 0.11585 0.55022 0.02100
H 	H 	0.16481 0.05574 0.60411 0.00700
H 	H 	0.06623 0.97085 0.49146 -0.03900
C 	C 	0.83158 0.27438 0.40805 -0.06000
C 	C 	0.85151 0.24020 0.36664 -0.11300
C 	C 	0.82429 0.21689 0.31215 0.36000
C 	C 	0.77746 0.22756 0.29945 -0.10600
C 	C 	0.75723 0.26131 0.34154 -0.05600
C 	C 	0.78446 0.28493 0.39565 0.33300
F 	F 	0.76515 0.31760 0.43689 -0.43600
H 	H 	0.85248 0.29268 0.44979 0.09200
H 	H 	0.75654 0.20903 0.25809 0.09800
F 	F 	0.84316 0.18357 0.27216 -0.44200
C 	C 	0.06975 0.05461 0.75581 -0.03800
C 	C 	0.02987 0.04139 0.71364 -0.06100
C 	C 	0.02551 0.99899 0.69025 -0.02400
C 	C 	0.05835 0.96953 0.71608 -0.01300
C 	C 	0.09535 0.98238 0.76590 -0.08000
C 	C 	0.10292 0.02535 0.78005 0.00300
H 	H 	0.07319 0.08703 0.77505 -0.04400
H 	H 	0.99524 0.98844 0.65651 0.01100
H 	H 	0.05291 0.93651 0.70255 0.02800
H 	H 	0.13227 0.03569 0.81616 -0.04900
C 	C 	0.02850 0.23775 0.72387 -0.03500
C 	C 	0.02658 0.20008 0.67978 -0.09800
C 	C 	0.06194 0.17003 0.68972 -0.05200
C 	C 	0.09336 0.17422 0.75297 -0.00300
C 	C 	0.08872 0.20805 0.80687 -0.13300
C 	C 	0.05964 0.24184 0.78721 -0.00900
H 	H 	0.00271 0.26206 0.71428 0.03500
H 	H 	0.06201 0.14151 0.65371 0.03500
H 	H 	0.11929 0.15015 0.76228 -0.08000
H 	H 	0.05831 0.26976 0.82488 0.03900
C 	C 	0.78264 0.09032 0.50342 -0.08400
C 	C 	0.79672 0.13217 0.49315 -0.12700
C 	C 	0.76239 0.16376 0.49910 0.35400
C 	C 	0.71932 0.15524 0.53482 -0.12400
C 	C 	0.71048 0.11524 0.56444 -0.07000
C 	C 	0.74005 0.08183 0.54108 0.30200
F 	F 	0.72977 0.04185 0.56093 -0.46000
H 	H 	0.80713 0.06492 0.49208 0.08400
H 	H 	0.69517 0.18075 0.54710 0.09900
F 	F 	0.77386 0.20402 0.48416 -0.44200
C 	C 	0.26066 0.41960 0.22571 -0.04200
C 	C 	0.25785 0.45484 0.17684 0.10600
C 	C 	0.21513 0.47646 0.17081 -0.08000
C 	C 	0.17522 0.46271 0.21116 -0.00100
C 	C 	0.17666 0.42421 0.25101 0.07800
C 	C 	0.21963 0.40330 0.25879 -0.05100
N 	N 	0.29599 0.46838 0.13654 -0.19900
H 	H 	0.21361 0.50523 0.13816 0.06000
C 	C 	0.13489 0.49165 0.22111 0.00300
N 	N 	0.13720 0.40751 0.28274 -0.19300
H 	H 	0.22147 0.37501 0.29304 0.05800
C 	C 	0.09568 0.48673 0.17169 -0.09300
C 	C 	0.05673 0.51338 0.18046 0.11400
C 	C 	0.05907 0.54796 0.23412 -0.04900
C 	C 	0.09797 0.55266 0.28413 -0.04500
C 	C 	0.13558 0.52433 0.27935 0.07200
H 	H 	0.09476 0.46117 0.12833 0.09300
N 	N 	0.01661 0.50455 0.14003 -0.20200
H 	H 	0.09932 0.57887 0.32612 0.05900
N 	N 	0.17214 0.52869 0.33065 -0.19300
H 	H 	0.01575 0.48022 0.09756 0.10500
H 	H 	0.98542 0.52042 0.15303 0.09400
H 	H 	0.17272 0.55343 0.37227 0.09200
H 	H 	0.19977 0.50723 0.33106 0.09300
H 	H 	0.13876 0.37921 0.31257 0.09100
H 	H 	0.10450 0.42170 0.27631 0.10000
H 	H 	0.32765 0.45196 0.13724 0.10700
H 	H 	0.29382 0.49497 0.10180 0.09900
C 	C 	0.93940 0.63986 0.94827 -0.04900
C 	C 	0.94123 0.60310 0.99326 0.09100
C 	C 	0.98304 0.58002 0.99574 -0.12700
C 	C 	0.02337 0.59384 0.95683 0.02400
C 	C 	0.02273 0.63274 0.91828 0.05800
C 	C 	0.98065 0.65542 0.91451 -0.04600
N 	N 	0.90292 0.58939 0.03299 -0.18800
H 	H 	0.98343 0.55003 0.02413 0.08600
C 	C 	0.06355 0.56466 0.94785 -0.06800
N 	N 	0.06207 0.64816 0.88397 -0.19300
H 	H 	0.97953 0.68450 0.88256 0.05600
C 	C 	0.06053 0.53183 0.89156 -0.05500
C 	C 	0.09338 0.49908 0.89060 0.07900
C 	C 	0.13109 0.50027 0.94515 -0.00500
C 	C 	0.13523 0.53403 0.99915 -0.15100
C 	C 	0.10196 0.56643 0.00081 0.16700
H 	H 	0.03124 0.53079 0.85063 0.04800
N 	N 	0.08771 0.46612 0.83887 -0.19300
H 	H 	0.16448 0.53516 0.03998 0.09100
N 	N 	0.10754 0.59944 0.05217 -0.20800
H 	H 	0.06028 0.46601 0.79789 0.08800
H 	H 	0.10956 0.43991 0.83991 0.09700
H 	H 	0.13424 0.59930 0.09449 0.12000
H 	H 	0.08671 0.62618 0.04847 0.13100
H 	H 	0.06111 0.67677 0.85510 0.09100
H 	H 	0.09409 0.63240 0.88673 0.09000
H 	H 	0.87160 0.60630 0.03402 0.10800
H 	H 	0.90458 0.56191 0.06534 0.09200
C 	C 	0.83461 0.67900 0.73669 -0.05100
C 	C 	0.81991 0.64224 0.69535 0.10300
C 	C 	0.83320 0.63588 0.61612 -0.08600
C 	C 	0.85984 0.66621 0.57768 -0.00400
C 	C 	0.86678 0.70602 0.61471 0.07000
C 	C 	0.85402 0.71207 0.69434 -0.05200
N 	N 	0.79439 0.61248 0.73222 -0.19900
H 	H 	0.82534 0.60628 0.58606 0.05800
C 	C 	0.88693 0.65358 0.50616 -0.00400
N 	N 	0.88691 0.73795 0.57506 -0.19300
H 	H 	0.86301 0.74124 0.72506 0.04800
C 	C 	0.86501 0.65413 0.43203 -0.08500
C 	C 	0.88954 0.64183 0.36326 0.10800
C 	C 	0.93750 0.63046 0.36876 -0.04600
C 	C 	0.95909 0.62923 0.44309 -0.05000
C 	C 	0.93419 0.64016 0.51200 0.07400
H 	H 	0.82858 0.66359 0.42792 0.05800
N 	N 	0.86652 0.63980 0.29289 -0.19700
H 	H 	0.99568 0.62020 0.44730 0.05500
N 	N 	0.95580 0.63758 0.58341 -0.19400
H 	H 	0.83174 0.64988 0.28885 0.09900
H 	H 	0.88207 0.62651 0.24246 0.10300
H 	H 	0.99090 0.62834 0.58690 0.08900
H 	H 	0.93799 0.64395 0.63611 0.09300
H 	H 	0.89360 0.76677 0.60364 0.08000
H 	H 	0.89470 0.73489 0.51500 0.09200
H 	H 	0.78224 0.61748 0.78983 0.09200
H 	H 	0.78508 0.58459 0.70247 0.08900
C 	C 	0.93466 0.05771 0.01416 0.00300
C 	C 	0.93984 0.01450 0.99703 -0.07200
C 	C 	0.98469 0.99818 0.98324 -0.03900
C 	C 	0.02383 0.02458 0.98458 -0.00600
C 	C 	0.01866 0.06817 0.99753 -0.10700
C 	C 	0.97386 0.08451 0.01388 -0.00300
H 	H 	0.90010 0.07076 0.02465 0.04000
H 	H 	0.98910 0.96520 0.96832 -0.00800
H 	H 	0.05819 0.01115 0.97458 0.00700
H 	H 	0.96913 0.11788 0.02442 0.01100
C 	C 	0.75430 0.03593 0.81467 -0.02700
C 	C 	0.76778 0.02821 0.89245 -0.08300
C 	C 	0.79606 0.05804 0.93238 -0.01400
C 	C 	0.82197 0.08669 0.88872 -0.01100
C 	C 	0.81723 0.08660 0.80641 -0.08900
C 	C 	0.77922 0.06513 0.77131 -0.02100
H 	H 	0.72934 0.01541 0.78490 0.04100
H 	H 	0.80357 0.05482 0.99462 0.04300
H 	H 	0.84907 0.10536 0.91752 0.00600
H 	H 	0.77226 0.06783 0.70881 0.05900
C 	C 	0.95915 0.89634 0.84787 -0.01800
C 	C 	0.92810 0.86280 0.85769 -0.12000
C 	C 	0.94466 0.82147 0.84761 0.00800
C 	C 	0.99276 0.81385 0.83920 -0.00300
C 	C 	0.02441 0.84751 0.84059 -0.09800
C 	C 	0.00727 0.88880 0.84180 -0.04000
H 	H 	0.94662 0.92836 0.85310 -0.03900
H 	H 	0.92079 0.79522 0.85328 0.05100
H 	H 	0.00555 0.78183 0.83710 0.04300
H 	H 	0.03127 0.91500 0.84315 -0.02300
C 	C 	0.81056 0.78963 0.10247 -0.05200
C 	C 	0.76953 0.80681 0.07074 -0.15900
C 	C 	0.74015 0.78025 0.02513 0.40800
C 	C 	0.75842 0.74328 0.99106 -0.21400
C 	C 	0.80472 0.73131 0.00784 0.01600
C 	C 	0.82836 0.75191 0.07085 0.29600
F 	F 	0.86888 0.73629 0.09977 -0.41600
H 	H 	0.83129 0.80759 0.14493 0.09600
H 	H 	0.73777 0.72555 0.94812 0.11300
F 	F 	0.69678 0.79345 0.00386 -0.44500
C 	C 	0.12978 0.01944 0.29083 -0.02100
C 	C 	0.14861 0.98077 0.26581 -0.10200
C 	C 	0.19520 0.97882 0.23897 -0.03000
C 	C 	0.22279 0.01535 0.23818 -0.01600
C 	C 	0.20442 0.05371 0.26671 -0.08000
C 	C 	0.15718 0.05574 0.28982 -0.02000
H 	H 	0.09392 0.02132 0.31173 -0.00900
H 	H 	0.21003 0.94918 0.21880 0.02600
H 	H 	0.25846 0.01365 0.21660 0.03800
H 	H 	0.14221 0.08527 0.30989 -0.02500
C 	C 	0.01701 0.06168 0.19969 -0.00100
C 	C 	0.97235 0.07381 0.22671 -0.10200
C 	C 	0.93565 0.04424 0.22517 -0.01600
C 	C 	0.94453 0.00241 0.20387 0.00500
C 	C 	0.98983 0.98994 0.18218 -0.14300
C 	C 	0.02577 0.01977 0.17859 -0.01500
H 	H 	0.04485 0.08441 0.19500 -0.07500
H 	H 	0.90054 0.05338 0.24290 0.05600
H 	H 	0.91637 0.97960 0.20552 0.02300
H 	H 	0.06065 0.01030 0.16067 0.01900
C 	C 	0.11473 0.80162 0.43868 -0.00800
C 	C 	0.07854 0.83097 0.42950 -0.09700
C 	C 	0.06668 0.85781 0.49328 -0.00600
C 	C 	0.09602 0.86042 0.55926 -0.01700
C 	C 	0.13795 0.83736 0.55997 -0.08400
C 	C 	0.14463 0.80502 0.50370 -0.02300
H 	H 	0.12225 0.77871 0.39215 0.05000
H 	H 	0.03726 0.87914 0.48897 -0.02400
H 	H 	0.08911 0.88391 0.60502 0.04500
H 	H 	0.17555 0.78535 0.50616 0.04300
C 	C 	0.06614 0.73979 0.09853 -0.08000
C 	C 	0.02791 0.76320 0.07122 -0.13200
C 	C 	0.98481 0.74269 0.05902 0.36200
C 	C 	0.97685 0.70362 0.09267 -0.11400
C 	C 	0.01318 0.68332 0.13230 -0.06900
C 	C 	0.05859 0.70053 0.13145 0.30700
F 	F 	0.09434 0.68123 0.16916 -0.44800
H 	H 	0.10051 0.75415 0.10358 0.09700
H 	H 	0.94208 0.69002 0.09107 0.13200
F 	F 	0.94910 0.76275 0.02272 -0.41600
