data_crystal

_cell_length_a 31.87859
_cell_length_b 29.87940
_cell_length_c 49.50928
_cell_angle_alpha 88.82440
_cell_angle_beta  88.92904
_cell_angle_gamma 107.34103

_symmetry_space_group_name_	'P 1'
_symmetry_space_group_name_H-M	'P 1'

loop_
_symmetry_equiv_pos_as_xyz
  x,y,z

loop_
_atom_site_label
_atom_site_type_symbol
_atom_site_fract_x
_atom_site_fract_y
_atom_site_fract_z
_atom_site_charge
O 	O 	0.60417 0.21873 0.82239 -0.46300
O 	O 	0.57700 0.27635 0.83848 -0.40100
C 	C 	0.57139 0.23694 0.82556 0.30300
C 	C 	0.50738 0.27722 0.58460 0.30300
O 	O 	0.51387 0.24221 0.52811 -0.46700
O 	O 	0.53366 0.25319 0.59268 -0.44100
O 	O 	0.52215 0.31343 0.56768 -0.41500
C 	C 	0.57284 0.40817 0.53933 0.32600
C 	C 	0.52420 0.20352 0.53337 0.31100
Zn	Zn	0.04451 0.91860 0.77310 1.19400
C 	C 	0.08403 0.01741 0.66673 0.30100
Zn	Zn	0.06462 0.97635 0.72096 1.22300
H 	H 	0.04016 0.88859 0.72441 0.18000
O 	O 	0.03113 0.91341 0.73369 -0.78500
O 	O 	0.10567 0.96049 0.77853 -0.45500
O 	O 	0.12511 0.96828 0.73385 -0.40900
O 	O 	0.04601 0.00294 0.65455 -0.44400
O 	O 	0.06940 0.02662 0.74701 -0.43900
O 	O 	0.09411 0.99070 0.68537 -0.43400
C 	C 	0.13618 0.97310 0.75923 0.30600
Zn	Zn	0.29008 0.71547 0.38922 1.22400
Zn	Zn	0.21849 0.62286 0.42150 1.19500
C 	C 	0.16168 0.75404 0.34827 0.32200
Zn	Zn	0.18910 0.68251 0.38007 1.22300
Zn	Zn	0.25949 0.77243 0.34690 1.19500
H 	H 	0.22219 0.70860 0.42462 0.17500
C 	C 	0.19973 0.59471 0.36232 0.29600
O 	O 	0.32234 0.80831 0.35030 -0.46400
O 	O 	0.34641 0.74681 0.36371 -0.40100
O 	O 	0.22909 0.68927 0.41018 -0.79300
O 	O 	0.27788 0.61995 0.43190 -0.45600
O 	O 	0.30118 0.77482 0.40835 -0.44000
O 	O 	0.32172 0.67129 0.40070 -0.43700
O 	O 	0.24666 0.79620 0.38687 -0.41500
O 	O 	0.15500 0.58905 0.41818 -0.46300
H 	H 	0.25697 0.68706 0.34491 0.17900
O 	O 	0.13288 0.65229 0.40580 -0.40100
O 	O 	0.25015 0.70697 0.35905 -0.79700
O 	O 	0.19950 0.77152 0.33500 -0.46300
O 	O 	0.17539 0.62341 0.36016 -0.43700
O 	O 	0.15915 0.73026 0.37126 -0.43700
O 	O 	0.22987 0.60127 0.38098 -0.41800
C 	C 	0.35439 0.78933 0.35309 0.30500
C 	C 	0.31626 0.64955 0.42450 0.31100
C 	C 	0.27500 0.80151 0.40658 0.30100
C 	C 	0.12408 0.60984 0.41660 0.30400
Zn	Zn	0.24656 0.70289 0.06800 1.22200
Zn	Zn	0.33903 0.77762 0.09192 1.19200
C 	C 	0.34110 0.62171 0.02109 0.32600
Zn	Zn	0.34276 0.70101 0.05493 1.22200
Zn	Zn	0.25846 0.64635 0.01872 1.19700
H 	H 	0.30799 0.68950 0.10122 0.17500
C 	C 	0.37677 0.79441 0.03282 0.31000
O 	O 	0.19392 0.62862 0.02258 -0.46900
O 	O 	0.18907 0.69387 0.04431 -0.40200
O 	O 	0.30768 0.71085 0.08571 -0.79700
O 	O 	0.29201 0.80901 0.09079 -0.45900
O 	O 	0.22069 0.63906 0.08431 -0.43700
O 	O 	0.22648 0.75070 0.08711 -0.43500
O 	O 	0.25756 0.60426 0.05540 -0.41500
O 	O 	0.40297 0.78295 0.09235 -0.46100
H 	H 	0.28722 0.73431 0.02397 0.18000
O 	O 	0.39884 0.70829 0.07935 -0.39400
O 	O 	0.28504 0.70665 0.03589 -0.79200
O 	O 	0.31171 0.63092 0.00542 -0.47100
O 	O 	0.37993 0.75182 0.03171 -0.44400
O 	O 	0.34710 0.63828 0.04563 -0.43300
O 	O 	0.34885 0.80364 0.05003 -0.41900
C 	C 	0.17104 0.65633 0.03029 0.31200
C 	C 	0.24995 0.79087 0.09715 0.30500
C 	C 	0.22884 0.60113 0.07541 0.30300
C 	C 	0.42110 0.74888 0.08935 0.30300
O 	O 	0.00916 0.10246 0.21145 -0.38800
C 	C 	0.01601 0.09400 0.18598 0.30500
C 	C 	0.00788 0.30544 0.13927 0.02800
C 	C 	0.03974 0.34849 0.12753 0.09600
N 	N 	0.03689 0.39141 0.13416 -0.08200
N 	N 	0.06814 0.43018 0.12596 -0.08300
C 	C 	0.10323 0.42724 0.11091 0.10100
N 	N 	0.10568 0.38439 0.10381 -0.08300
N 	N 	0.07446 0.34560 0.11206 -0.08100
C 	C 	0.13875 0.47020 0.10276 0.00900
C 	C 	0.18275 0.54979 0.11199 0.01300
C 	C 	0.20198 0.55452 0.08592 -0.08500
C 	C 	0.19089 0.51605 0.06877 0.01300
C 	C 	0.15943 0.47414 0.07714 -0.05000
C 	C 	0.15127 0.50794 0.12034 -0.05000
H 	H 	0.00978 0.26299 0.10462 0.06000
H 	H 	0.13635 0.50502 0.14040 0.05200
H 	H 	0.19145 0.57890 0.12560 0.03400
H 	H 	0.15021 0.44528 0.06340 0.05100
H 	H 	0.20530 0.51917 0.04857 0.03100
C 	C 	0.46852 0.75927 0.09326 -0.08400
C 	C 	0.49807 0.79151 0.07567 0.01400
C 	C 	0.54208 0.81035 0.08251 -0.05000
C 	C 	0.55694 0.79722 0.10711 0.00800
C 	C 	0.48393 0.74358 0.11687 0.01000
C 	C 	0.60108 0.82306 0.11661 0.10000
C 	C 	0.52798 0.76243 0.12379 -0.04900
H 	H 	0.48646 0.80367 0.05731 0.03400
H 	H 	0.56402 0.83681 0.06931 0.05200
H 	H 	0.53923 0.75108 0.14250 0.05100
H 	H 	0.46139 0.71847 0.13050 0.02600
C 	C 	0.05305 0.07626 0.17861 -0.09200
C 	C 	0.06894 0.05025 0.19767 0.00900
C 	C 	0.09690 0.02466 0.18945 -0.04900
C 	C 	0.10952 0.02501 0.16210 0.00700
C 	C 	0.06853 0.07966 0.15167 0.01000
C 	C 	0.13261 0.99193 0.15263 0.10100
N 	N 	0.15954 0.97739 0.16936 -0.08300
N 	N 	0.17709 0.94423 0.16175 -0.08400
C 	C 	0.16822 0.92459 0.13720 0.10000
N 	N 	0.14186 0.93964 0.12032 -0.08400
N 	N 	0.12419 0.97268 0.12796 -0.08400
C 	C 	0.18750 0.88771 0.12880 0.00900
C 	C 	0.24881 0.85522 0.12807 0.01200
C 	C 	0.22684 0.82141 0.10977 -0.09100
C 	C 	0.18426 0.81965 0.10194 0.01500
C 	C 	0.16468 0.85260 0.11143 -0.05000
C 	C 	0.09664 0.05417 0.14345 -0.05000
C 	C 	0.22933 0.88826 0.13747 -0.05200
H 	H 	0.05776 0.04779 0.21860 0.04100
H 	H 	0.10704 0.00284 0.20415 0.05400
H 	H 	0.10737 0.05607 0.12246 0.05200
H 	H 	0.05764 0.10076 0.13691 0.03700
H 	H 	0.24723 0.91498 0.15096 0.05000
H 	H 	0.28140 0.85649 0.13459 0.01700
H 	H 	0.13199 0.85113 0.10504 0.05300
H 	H 	0.16682 0.79366 0.08792 0.04300
C 	C 	0.40006 0.81781 0.34683 -0.08700
C 	C 	0.43134 0.79646 0.33790 0.01000
C 	C 	0.47413 0.82388 0.33086 -0.04900
C 	C 	0.48604 0.87292 0.33273 0.00700
C 	C 	0.41228 0.86674 0.34925 0.01200
C 	C 	0.53054 0.90214 0.32421 0.10000
N 	N 	0.56598 0.88698 0.32880 -0.08300
N 	N 	0.53646 0.94463 0.31183 -0.08400
C 	C 	0.45499 0.89411 0.34224 -0.05000
H 	H 	0.42233 0.75875 0.33593 0.03600
H 	H 	0.49772 0.80709 0.32346 0.05100
H 	H 	0.46396 0.93180 0.34425 0.05100
H 	H 	0.38871 0.88358 0.35664 0.03800
C 	C 	0.19060 0.55271 0.34548 -0.08400
C 	C 	0.21836 0.52392 0.34628 0.00600
C 	C 	0.20597 0.48028 0.33410 -0.04800
C 	C 	0.16597 0.46514 0.32074 0.00600
C 	C 	0.15191 0.53874 0.33062 0.00800
C 	C 	0.14965 0.41648 0.31167 0.10000
N 	N 	0.15243 0.38051 0.32805 -0.08300
N 	N 	0.13204 0.33629 0.32184 -0.08300
C 	C 	0.10847 0.32674 0.29898 0.10000
N 	N 	0.10717 0.36262 0.28206 -0.08300
N 	N 	0.12739 0.40686 0.28834 -0.08400
C 	C 	0.07979 0.27891 0.29451 0.01000
C 	C 	0.02094 0.21098 0.31079 0.02400
C 	C 	0.01502 0.19431 0.28442 -0.09100
C 	C 	0.04351 0.21853 0.26343 0.01200
C 	C 	0.07559 0.26083 0.26842 -0.04800
C 	C 	0.13970 0.49521 0.31831 -0.04800
C 	C 	0.05330 0.25298 0.31584 -0.05400
H 	H 	0.24894 0.53471 0.35697 0.04000
H 	H 	0.22699 0.45780 0.33559 0.05000
H 	H 	0.10887 0.48405 0.30789 0.05200
H 	H 	0.13043 0.56075 0.32942 0.04100
H 	H 	0.05642 0.26641 0.33611 0.05300
H 	H 	0.09632 0.28017 0.25188 0.05400
N 	N 	0.02516 0.84668 0.28945 -0.08100
C 	C 	0.02085 0.82422 0.31395 0.10500
C 	C 	0.05447 0.80226 0.32282 0.00900
C 	C 	0.11554 0.77211 0.31198 0.01400
C 	C 	0.12336 0.76814 0.33960 -0.09300
C 	C 	0.09568 0.77978 0.35882 0.01700
C 	C 	0.06152 0.79689 0.35051 -0.05000
C 	C 	0.08116 0.78881 0.30363 -0.05100
H 	H 	0.07558 0.79169 0.28224 0.05300
H 	H 	0.13625 0.76251 0.29697 0.02900
H 	H 	0.04134 0.80708 0.36560 0.05500
H 	H 	0.10137 0.77688 0.38020 0.04100
C 	C 	0.35903 0.03295 0.49192 -0.03700
C 	C 	0.40187 0.03298 0.49805 -0.00000
C 	C 	0.41502 0.99297 0.49330 -0.03700
H 	H 	0.44801 0.99266 0.49797 0.04100
C 	C 	0.38627 0.95405 0.48143 -0.03700
C 	C 	0.34407 0.95476 0.47423 -0.00000
C 	C 	0.33025 0.99401 0.48002 -0.03700
H 	H 	0.29763 0.99473 0.47474 0.04100
C 	C 	0.31592 0.91604 0.45876 0.03000
C 	C 	0.30628 0.92401 0.43186 -0.06800
C 	C 	0.28839 0.88611 0.41524 0.02200
C 	C 	0.28038 0.84005 0.42536 -0.09300
C 	C 	0.28612 0.83221 0.45291 0.02100
C 	C 	0.30377 0.87007 0.46956 -0.06900
C 	C 	0.43411 0.07625 0.50698 0.03000
C 	C 	0.45343 0.07739 0.53231 -0.06900
C 	C 	0.48420 0.11852 0.54061 0.02200
C 	C 	0.49574 0.15879 0.52365 -0.09700
C 	C 	0.47695 0.15727 0.49814 0.02100
C 	C 	0.44635 0.11621 0.48985 -0.06900
H 	H 	0.48582 0.18806 0.48483 0.02100
H 	H 	0.43209 0.11544 0.47010 0.04700
H 	H 	0.44430 0.04662 0.54563 0.04900
H 	H 	0.31501 0.95943 0.42341 0.04800
H 	H 	0.28367 0.89257 0.39406 0.02900
H 	H 	0.31015 0.86360 0.49047 0.04700
H 	H 	0.27919 0.79674 0.46106 0.01900
H 	H 	0.39725 0.92391 0.47702 0.04100
H 	H 	0.34846 0.06356 0.49575 0.04200
C 	C 	0.00807 0.58416 0.44474 -0.04600
C 	C 	0.04997 0.60869 0.43449 0.00700
C 	C 	0.07873 0.58417 0.42551 -0.08800
C 	C 	0.06457 0.53489 0.42606 0.01100
C 	C 	0.02275 0.51043 0.43638 -0.05400
H 	H 	0.06040 0.64668 0.43411 0.03800
H 	H 	0.01256 0.47244 0.43728 0.04600
H 	H 	0.08608 0.51551 0.41872 0.03800
C 	C 	0.49410 0.62092 0.48296 -0.03800
C 	C 	0.44811 0.60348 0.48526 -0.00000
C 	C 	0.42854 0.56296 0.50119 -0.03700
H 	H 	0.39307 0.54926 0.50312 0.03900
C 	C 	0.45459 0.53876 0.51359 -0.03700
C 	C 	0.50050 0.55480 0.51019 -0.00000
C 	C 	0.52022 0.59673 0.49545 -0.03700
H 	H 	0.55566 0.60968 0.49292 0.04000
C 	C 	0.52713 0.52458 0.51895 0.03000
C 	C 	0.52469 0.50844 0.54595 -0.06900
C 	C 	0.54209 0.47216 0.55308 0.02400
C 	C 	0.56214 0.45187 0.53325 -0.10000
C 	C 	0.56762 0.47060 0.50673 0.02200
C 	C 	0.55013 0.50670 0.49961 -0.06900
C 	C 	0.42031 0.62519 0.46934 0.03000
C 	C 	0.42179 0.62424 0.44099 -0.06900
C 	C 	0.38937 0.63549 0.42602 0.02500
C 	C 	0.35514 0.64751 0.43932 -0.09900
C 	C 	0.35553 0.65175 0.46748 0.01900
C 	C 	0.38810 0.64087 0.48242 -0.06900
H 	H 	0.38958 0.63246 0.40425 0.03700
H 	H 	0.32962 0.66175 0.47789 0.01600
H 	H 	0.38712 0.64250 0.50426 0.04600
H 	H 	0.44672 0.61250 0.43067 0.04900
H 	H 	0.50762 0.52255 0.56114 0.04900
H 	H 	0.53813 0.45838 0.57369 0.03700
H 	H 	0.55255 0.51916 0.47876 0.04700
H 	H 	0.58401 0.45600 0.49141 0.02800
H 	H 	0.43901 0.50641 0.52486 0.04000
H 	H 	0.50952 0.65248 0.47096 0.04000
C 	C 	0.11969 0.05658 0.65464 -0.09100
C 	C 	0.12536 0.06253 0.62646 0.01500
C 	C 	0.16282 0.09567 0.61525 -0.05100
C 	C 	0.19489 0.12316 0.63214 0.00900
C 	C 	0.15065 0.08563 0.67145 0.01100
C 	C 	0.23725 0.15324 0.62054 0.10000
N 	N 	0.25635 0.13867 0.59906 -0.08300
N 	N 	0.29750 0.16169 0.59124 -0.08400
C 	C 	0.32080 0.19999 0.60466 0.10000
N 	N 	0.30108 0.21577 0.62539 -0.08300
N 	N 	0.25990 0.19275 0.63321 -0.08400
C 	C 	0.36847 0.22020 0.59916 0.00800
C 	C 	0.43984 0.20920 0.59032 0.01400
C 	C 	0.45976 0.25794 0.59032 -0.08600
C 	C 	0.43375 0.28782 0.59457 0.01000
C 	C 	0.38828 0.26900 0.59916 -0.04900
C 	C 	0.18799 0.11874 0.66029 -0.04900
C 	C 	0.39452 0.19048 0.59463 -0.04900
H 	H 	0.10163 0.04046 0.61325 0.03700
H 	H 	0.16735 0.09924 0.59349 0.05200
H 	H 	0.21235 0.13967 0.67359 0.05300
H 	H 	0.14638 0.08165 0.69323 0.02600
H 	H 	0.37972 0.15279 0.59476 0.05300
H 	H 	0.45944 0.18580 0.58660 0.03800
H 	H 	0.36850 0.29232 0.60253 0.05000
H 	H 	0.44870 0.32549 0.59445 0.03600
C 	C 	0.00217 0.57225 0.98951 0.00400
C 	C 	0.00732 0.55473 0.96397 -0.03100
H 	H 	0.03963 0.56283 0.95436 0.03800
C 	C 	0.04108 0.59953 0.00399 0.02900
C 	C 	0.06704 0.64311 0.99337 -0.06800
C 	C 	0.10831 0.66465 0.00399 0.01800
C 	C 	0.12392 0.64258 0.02514 -0.09500
C 	C 	0.09637 0.60107 0.03722 0.02300
C 	C 	0.05508 0.57962 0.02670 -0.06700
H 	H 	0.05614 0.65916 0.97611 0.04700
H 	H 	0.12924 0.69689 0.99465 0.02200
H 	H 	0.03502 0.54628 0.03526 0.05100
H 	H 	0.10807 0.58393 0.05370 0.03500
C 	C 	0.51226 0.98672 0.98082 -0.03800
C 	C 	0.48972 0.94577 0.96761 -0.00000
C 	C 	0.49417 0.94369 0.93946 -0.03800
H 	H 	0.47706 0.91210 0.92912 0.04000
C 	C 	0.51957 0.98295 0.92452 -0.03700
C 	C 	0.54079 0.02451 0.93764 -0.00000
C 	C 	0.53774 0.02593 0.96590 -0.03700
H 	H 	0.55398 0.05786 0.97620 0.03900
C 	C 	0.56212 0.06780 0.92170 0.02900
C 	C 	0.60753 0.08964 0.92335 -0.06900
C 	C 	0.55587 0.13215 0.89302 0.02000
C 	C 	0.53653 0.08890 0.90614 -0.06800
C 	C 	0.45973 0.90605 0.98308 0.02800
C 	C 	0.47087 0.86449 0.98718 -0.06800
C 	C 	0.44321 0.82752 0.00280 0.01700
C 	C 	0.40406 0.83180 0.01445 -0.09600
C 	C 	0.39250 0.87310 0.00976 0.01600
C 	C 	0.42025 0.91004 0.99419 -0.06800
H 	H 	0.45272 0.79602 0.00633 0.03600
H 	H 	0.36221 0.87676 0.01832 0.03500
H 	H 	0.41124 0.94191 0.99090 0.04800
H 	H 	0.50128 0.86112 0.97862 0.04800
H 	H 	0.50148 0.07224 0.90471 0.04900
H 	H 	0.53569 0.14839 0.88130 0.03500
H 	H 	0.52187 0.98149 0.90271 0.04000
H 	H 	0.50929 0.98846 0.00259 0.04000
C 	C 	0.42056 0.43622 0.94096 -0.03800
C 	C 	0.45920 0.42929 0.95075 -0.00100
C 	C 	0.47776 0.45167 0.97423 -0.03700
H 	H 	0.50766 0.44654 0.98189 0.03900
C 	C 	0.45862 0.48192 0.98733 -0.03700
C 	C 	0.42076 0.49002 0.97708 -0.00100
C 	C 	0.40131 0.46638 0.95413 -0.03700
H 	H 	0.37182 0.47211 0.94622 0.03900
C 	C 	0.40328 0.52560 0.98918 0.03100
C 	C 	0.38738 0.52003 0.01605 -0.07000
C 	C 	0.36911 0.55294 0.02708 0.02500
C 	C 	0.36639 0.59139 0.01123 -0.10100
C 	C 	0.38379 0.59780 0.98471 0.02300
C 	C 	0.40224 0.56512 0.97376 -0.07000
C 	C 	0.48192 0.40119 0.93556 0.03000
C 	C 	0.48843 0.36112 0.94777 -0.07000
C 	C 	0.51870 0.34098 0.93644 0.02300
C 	C 	0.54260 0.36071 0.91281 -0.10100
C 	C 	0.53278 0.39780 0.89914 0.02400
C 	C 	0.50260 0.41809 0.91053 -0.07000
H 	H 	0.52540 0.31167 0.94683 0.02700
H 	H 	0.55069 0.41293 0.88069 0.03600
H 	H 	0.49726 0.44864 0.90075 0.04900
H 	H 	0.47185 0.34721 0.96680 0.04800
H 	H 	0.38839 0.48979 0.02818 0.04900
H 	H 	0.35568 0.54764 0.04757 0.03600
H 	H 	0.41523 0.57017 0.95317 0.04800
H 	H 	0.38224 0.62767 0.97242 0.02700
H 	H 	0.47385 0.50003 0.00502 0.04000
H 	H 	0.40590 0.41888 0.92293 0.04000
H 	H 	0.07995 0.11533 0.76482 0.04000
C 	C 	0.52684 0.20993 0.81741 -0.08600
C 	C 	0.51480 0.16072 0.81707 0.01000
C 	C 	0.47195 0.13485 0.81087 -0.05000
C 	C 	0.44052 0.15783 0.80498 0.00700
C 	C 	0.49555 0.23298 0.81130 0.01000
C 	C 	0.39504 0.13037 0.79877 0.10000
N 	N 	0.37665 0.08722 0.81044 -0.08400
N 	N 	0.33601 0.06203 0.80441 -0.08400
C 	C 	0.31249 0.07927 0.78656 0.10100
N 	N 	0.33076 0.12256 0.77503 -0.08300
N 	N 	0.37144 0.14771 0.78103 -0.08300
C 	C 	0.26777 0.05093 0.77938 0.00800
C 	C 	0.19754 0.99412 0.79193 0.01200
C 	C 	0.18202 0.99850 0.76593 -0.08500
C 	C 	0.20987 0.02881 0.74661 0.01200
C 	C 	0.25245 0.05478 0.75328 -0.04900
C 	C 	0.45263 0.20708 0.80512 -0.04900
C 	C 	0.24016 0.02021 0.79863 -0.04900
H 	H 	0.53840 0.14241 0.82209 0.03600
H 	H 	0.46324 0.09694 0.81059 0.05100
H 	H 	0.42869 0.22530 0.80077 0.05200
H 	H 	0.50439 0.27090 0.81142 0.03900
H 	H 	0.25146 0.01700 0.81887 0.05100
H 	H 	0.17660 0.97069 0.80700 0.03200
H 	H 	0.27352 0.07786 0.73813 0.05400
H 	H 	0.19834 0.03286 0.72652 0.04100
O 	O 	0.59939 0.23317 0.88537 -0.44200
C 	C 	0.03935 0.02116 0.76651 0.29100
O 	O 	0.00101 0.97795 0.71211 -0.79000
H 	H 	0.49815 0.11943 0.56045 0.03400
C 	C 	0.60103 0.15470 0.89526 -0.09600
Zn	Zn	0.55401 0.30688 0.52921 1.19600
O 	O 	0.56503 0.37527 0.52121 -0.47000
H 	H 	0.03941 0.20581 0.24301 0.03500
C 	C 	0.04484 0.10621 0.76881 0.00200
O 	O 	0.59066 0.34064 0.88026 -0.43600
O 	O 	0.58779 0.40136 0.56319 -0.43800
C 	C 	0.58265 0.34881 0.90556 0.32600
C 	C 	0.62037 0.20177 0.88308 0.30800
O 	O 	0.55868 0.20415 0.54782 -0.40300
N 	N 	0.57662 0.97117 0.30422 -0.08400
C 	C 	0.62697 0.13289 0.91005 0.01800
H 	H 	0.62756 0.07350 0.93524 0.04700
O 	O 	0.02073 0.97928 0.77778 -0.40600
N 	N 	0.60714 0.83264 0.14320 -0.08400
Zn	Zn	0.62334 0.29680 0.86966 1.22300
Zn	Zn	0.59081 0.25808 0.57495 1.22300
N 	N 	0.63486 0.84132 0.09858 -0.08400
O 	O 	0.61221 0.35126 0.92407 -0.47100
O 	O 	0.60962 0.30559 0.54559 -0.79200
H 	H 	0.60796 0.32404 0.61286 0.17400
N 	N 	0.60617 0.91353 0.32119 -0.08300
C 	C 	0.61207 0.95602 0.30879 0.10000
O 	O 	0.65744 0.21164 0.86891 -0.41600
Zn	Zn	0.63123 0.36707 0.56877 1.22200
O 	O 	0.62366 0.31781 0.59660 -0.79600
H 	H 	0.66190 0.14993 0.91181 0.02900
Zn	Zn	0.66748 0.24968 0.82993 1.19300
H 	H 	0.63063 0.29857 0.53259 0.18000
O 	O 	0.61834 0.21103 0.58929 -0.42800
N 	N 	0.64545 0.86041 0.15144 -0.08300
H 	H 	0.63452 0.01140 0.26343 0.05200
H 	H 	0.62457 0.12601 0.59159 0.04200
H 	H 	0.04460 0.17821 0.76904 0.04900
H 	H 	0.66898 0.33494 0.82936 0.17300
O 	O 	0.67251 0.31260 0.84355 -0.79800
N 	N 	0.67322 0.86908 0.10684 -0.08400
O 	O 	0.66227 0.42060 0.59601 -0.39900
C 	C 	0.65645 0.98500 0.29988 0.00800
C 	C 	0.66246 0.01155 0.27559 -0.04900
C 	C 	0.64608 0.13290 0.60868 0.01500
H 	H 	0.64642 0.06122 0.61269 0.05200
C 	C 	0.65419 0.21863 0.60369 0.29800
Zn	Zn	0.67647 0.36551 0.91649 1.19600
H 	H 	0.68245 0.28417 0.90667 0.18100
O 	O 	0.67796 0.31032 0.89567 -0.79300
O 	O 	0.67118 0.40745 0.88069 -0.41600
C 	C 	0.67892 0.87951 0.13336 0.10000
C 	C 	0.65877 0.09617 0.62053 -0.05100
H 	H 	0.68513 0.50122 0.62654 0.03600
O 	O 	0.68452 0.38923 0.54574 -0.44300
C 	C 	0.66259 0.17865 0.61821 -0.09000
H 	H 	0.68593 0.49883 0.88775 0.03200
Zn	Zn	0.68596 0.32270 0.60251 1.19200
O 	O 	0.68749 0.25685 0.59941 -0.45400
C 	C 	0.69304 0.98558 0.31537 -0.04900
H 	H 	0.68880 0.96580 0.33433 0.05200
C 	C 	0.70422 0.42584 0.86343 0.30100
O 	O 	0.72870 0.24535 0.83198 -0.45200
C 	C 	0.70283 0.42640 0.60386 0.30600
C 	C 	0.70471 0.03745 0.26657 0.01100
C 	C 	0.70245 0.50824 0.86821 0.01300
Zn	Zn	0.72570 0.33779 0.86923 1.22200
O 	O 	0.70830 0.32852 0.56022 -0.41800
C 	C 	0.72026 0.91311 0.14234 0.00800
H 	H 	0.70890 0.05738 0.24767 0.03900
C 	C 	0.68819 0.10484 0.64197 0.00800
C 	C 	0.69005 0.18676 0.64055 0.01000
C 	C 	0.71142 0.47373 0.85222 -0.08600
H 	H 	0.71093 0.58184 0.87257 0.05100
O 	O 	0.71866 0.39036 0.60605 -0.46500
C 	C 	0.71370 0.36632 0.54486 0.30900
H 	H 	0.73429 0.95290 0.10444 0.05200
H 	H 	0.71643 0.88133 0.18235 0.05300
H 	H 	0.72174 0.41717 0.49792 0.03000
H 	H 	0.70237 0.22174 0.64838 0.01100
C 	C 	0.71880 0.50890 0.61914 0.01100
C 	C 	0.71702 0.55542 0.85971 -0.05100
C 	C 	0.70283 0.15016 0.65234 -0.05200
O 	O 	0.73289 0.40324 0.85760 -0.44100
C 	C 	0.70627 0.06764 0.65214 0.10000
N 	N 	0.71192 0.03458 0.63521 -0.08400
C 	C 	0.73410 0.91012 0.16892 -0.04800
C 	C 	0.74447 0.95006 0.12499 -0.05100
C 	C 	0.73299 0.47414 0.60651 -0.08500
H 	H 	0.73751 0.57952 0.63338 0.05200
C 	C 	0.73246 0.48651 0.82684 0.01300
H 	H 	0.77827 0.26375 0.78149 0.01300
O 	O 	0.73653 0.40853 0.92034 -0.46700
C 	C 	0.73529 0.01148 0.30635 0.01200
C 	C 	0.74143 0.03708 0.28172 -0.08700
N 	N 	0.72200 0.06937 0.67753 -0.08500
C 	C 	0.74068 0.56855 0.83511 0.00800
H 	H 	0.73882 0.46011 0.81407 0.02900
C 	C 	0.01940 0.05895 0.77134 -0.07800
C 	C 	0.76552 0.27992 0.83412 0.30100
N 	N 	0.73428 0.00553 0.64302 -0.08400
H 	H 	0.72530 0.15744 0.66895 0.04900
C 	C 	0.74851 0.55335 0.62296 -0.04900
C 	C 	0.75233 0.41190 0.50420 0.02000
C 	C 	0.75316 0.38382 0.52718 -0.09700
C 	C 	0.74704 0.53364 0.81833 -0.05000
O 	O 	0.77002 0.31050 0.85359 -0.43100
N 	N 	0.74463 0.04056 0.68527 -0.08400
C 	C 	0.76196 0.61866 0.82805 0.10000
C 	C 	0.75200 0.00888 0.66793 0.10000
C 	C 	0.02482 0.14185 0.77121 -0.03900
O 	O 	0.77298 0.36262 0.89993 -0.40400
C 	C 	0.77025 0.94482 0.17844 0.00900
H 	H 	0.76328 0.01073 0.31823 0.03900
C 	C 	0.77301 0.39790 0.91541 0.31100
C 	C 	0.78091 0.98461 0.13452 0.01400
C 	C 	0.77664 0.48475 0.59683 0.01300
N 	N 	0.76953 0.63323 0.80175 -0.08400
N 	N 	0.77824 0.64960 0.84776 -0.08400
H 	H 	0.76484 0.54310 0.79919 0.05100
H 	H 	0.77986 0.94275 0.19920 0.02600
C 	C 	0.80583 0.26346 0.79390 0.01000
C 	C 	0.78624 0.06064 0.27091 0.30800
H 	H 	0.79043 0.45709 0.47253 0.04700
H 	H 	0.77962 0.99228 0.71799 0.05300
H 	H 	0.78766 0.45859 0.58639 0.03600
C 	C 	0.79122 0.43438 0.48973 -0.06900
C 	C 	0.80558 0.27434 0.82129 -0.08900
O 	O 	0.79350 0.06504 0.24469 -0.40800
C 	C 	0.79333 0.98265 0.16147 -0.09000
H 	H 	0.79843 0.01370 0.12123 0.03700
C 	C 	0.79297 0.37663 0.53472 0.01900
H 	H 	0.79413 0.35510 0.55240 0.02900
C 	C 	0.78336 0.98262 0.67486 0.00700
C 	C 	0.79259 0.56338 0.61408 0.00800
C 	C 	0.79605 0.97980 0.70175 -0.04900
N 	N 	0.79401 0.67686 0.79535 -0.08300
N 	N 	0.80261 0.69328 0.84135 -0.08400
H 	H 	0.79374 0.96470 0.63358 0.05200
C 	C 	0.80625 0.52905 0.60062 -0.05000
H 	H 	0.79576 0.49185 0.92160 0.03600
C 	C 	0.80374 0.96399 0.65433 -0.05000
N 	N 	0.81339 0.64908 0.61846 -0.08300
C 	C 	0.81157 0.70730 0.81505 0.10000
O 	O 	0.81700 0.04277 0.19386 -0.42900
C 	C 	0.81470 0.42827 0.92559 -0.09500
H 	H 	0.81267 0.76286 0.77062 0.05400
O 	O 	0.81936 0.07226 0.28742 -0.46200
C 	C 	0.82057 0.47642 0.92845 0.02000
C 	C 	0.82760 0.02192 0.17277 0.29500
C 	C 	0.82485 0.60883 0.61993 0.10000
H 	H 	0.84021 0.24119 0.76161 0.04900
C 	C 	0.83125 0.42885 0.49802 0.03000
C 	C 	0.83183 0.39905 0.52019 -0.07000
C 	C 	0.83120 0.96256 0.70766 0.00800
C 	C 	0.84090 0.25046 0.78267 -0.05100
C 	C 	0.84202 0.27507 0.83696 0.01700
H 	H 	0.84238 0.28387 0.85809 0.04100
C 	C 	0.83862 0.94640 0.66029 0.00800
H 	H 	0.84186 0.96269 0.72831 0.04100
N 	N 	0.84230 0.68990 0.62440 -0.08200
H 	H 	0.83988 0.53663 0.59317 0.05000
H 	H 	0.84360 0.37201 0.93178 0.03200
C 	C 	0.84040 0.77669 0.78351 -0.04800
C 	C 	0.84361 0.75335 0.80796 0.00800
C 	C 	0.84769 0.40906 0.93393 0.01700
Zn	Zn	0.85204 0.05779 0.22659 1.22200
O 	O 	0.85086 0.00612 0.25251 -0.43800
H 	H 	0.85644 0.42502 0.44570 0.03800
C 	C 	0.85383 0.94750 0.68680 -0.08900
H 	H 	0.85474 0.93337 0.64411 0.03600
C 	C 	0.85823 0.50471 0.94042 -0.06800
O 	O 	0.86305 0.04313 0.15789 -0.44700
H 	H 	0.86255 0.39417 0.52655 0.04700
H 	H 	0.86216 0.54169 0.94282 0.04800
N 	N 	0.86625 0.61069 0.62711 -0.08500
C 	C 	0.87280 0.45644 0.48456 -0.00200
C 	C 	0.87570 0.24732 0.79890 0.00900
C 	C 	0.87357 0.81736 0.77529 0.01100
H 	H 	0.87143 0.83405 0.75594 0.03600
C 	C 	0.87689 0.26157 0.82585 -0.05100
H 	H 	0.87763 0.14596 0.22829 0.17800
C 	C 	0.87926 0.77252 0.82473 -0.05200
Zn	Zn	0.87924 0.11396 0.27709 1.19300
C 	C 	0.88070 0.45031 0.45711 -0.03600
H 	H 	0.88212 0.75510 0.84371 0.05100
C 	C 	0.88133 0.01082 0.27084 0.29600
C 	C 	0.88350 0.69164 0.63198 0.10000
C 	C 	0.88545 0.43748 0.94589 -0.06800
O 	O 	0.88730 0.12055 0.23679 -0.78600
H 	H 	0.89156 0.52400 0.99860 0.03900
C 	C 	0.89050 0.48526 0.94953 0.02800
H 	H 	0.89144 0.94140 0.23925 0.01800
N 	N 	0.89516 0.19070 0.76964 -0.08400
C 	C 	0.89601 0.93814 0.69210 0.29900
C 	C 	0.89531 0.97004 0.27922 -0.08600
N 	N 	0.89509 0.65146 0.63313 -0.08500
H 	H 	0.89840 0.49466 0.52026 0.03900
H 	H 	0.89914 0.77916 0.60965 0.05100
O 	O 	0.90288 0.05269 0.27955 -0.41200
C 	C 	0.90121 0.93854 0.25990 0.00900
H 	H 	0.90302 0.98944 0.32107 0.03500
C 	C 	0.90441 0.48938 0.49912 -0.03600
H 	H 	0.90372 0.26006 0.83858 0.05300
H 	H 	0.99954 0.19219 0.32722 0.02800
N 	N 	0.99710 0.86989 0.28236 -0.08600
O 	O 	0.99969 0.90286 0.66988 -0.41500
C 	C 	0.99751 0.26335 0.12514 -0.07000
N 	N 	0.98693 0.82472 0.33086 -0.08800
H 	H 	0.97654 0.77763 0.69562 0.02400
Zn	Zn	0.98768 0.97097 0.67338 1.19300
H 	H 	0.98636 0.60337 0.45201 0.03900
C 	C 	0.97274 0.22122 0.13789 0.02400
H 	H 	0.96707 0.18864 0.12732 0.02600
C 	C 	0.99457 0.53494 0.44611 0.00800
C 	C 	0.96397 0.87150 0.29959 0.09900
H 	H 	0.92764 0.88176 0.25156 0.04800
Zn	Zn	0.96647 0.91741 0.72767 1.22200
O 	O 	0.92369 0.93905 0.67184 -0.46300
O 	O 	0.90628 0.93042 0.71708 -0.39400
O 	O 	0.98784 0.87769 0.78989 -0.45600
O 	O 	0.95274 0.86321 0.70395 -0.44000
O 	O 	0.94159 0.90620 0.76463 -0.43700
H 	H 	0.99141 0.00382 0.71966 0.16700
C 	C 	0.94819 0.87379 0.78096 0.31100
C 	C 	0.97250 0.86361 0.68032 0.30300
Zn	Zn	0.95099 0.11608 0.22633 1.22300
Zn	Zn	0.92366 0.06878 0.17269 1.19400
O 	O 	0.98787 0.09733 0.16746 -0.46800
O 	O 	0.93761 0.15371 0.28957 -0.45600
O 	O 	0.96488 0.17332 0.20341 -0.44300
O 	O 	0.97915 0.12326 0.26144 -0.43500
O 	O 	0.91562 0.13919 0.17132 -0.41300
H 	H 	0.92396 0.03063 0.21835 0.17000
O 	O 	0.91406 0.05741 0.21209 -0.79800
C 	C 	0.97580 0.15568 0.27815 0.30900
C 	C 	0.94493 0.17635 0.18076 0.30800
C 	C 	0.95838 0.22076 0.16490 -0.09400
C 	C 	0.96570 0.26333 0.17823 0.02200
C 	C 	0.99031 0.30543 0.16551 -0.06400
H 	H 	0.95433 0.26348 0.19898 0.02500
H 	H 	0.99748 0.33764 0.17657 0.05400
C 	C 	0.92201 0.90493 0.26684 -0.05100
C 	C 	0.93667 0.90221 0.29322 0.00900
C 	C 	0.90789 0.96568 0.30592 0.01500
N 	N 	0.95903 0.84818 0.32384 -0.08400
C 	C 	0.92833 0.93184 0.31292 -0.04900
H 	H 	0.93928 0.92996 0.33338 0.05200
C 	C 	0.94386 0.51553 0.48644 -0.04200
C 	C 	0.95196 0.50913 0.45905 0.00600
C 	C 	0.92012 0.47660 0.44439 -0.04200
H 	H 	0.92606 0.47150 0.42322 0.04000
H 	H 	0.96833 0.54038 0.49796 0.03900
C 	C 	0.91374 0.73583 0.64148 0.00900
C 	C 	0.96052 0.77811 0.67655 0.01500
C 	C 	0.96041 0.82092 0.66442 -0.08700
C 	C 	0.93990 0.82103 0.63959 0.01600
C 	C 	0.91640 0.77865 0.62824 -0.05000
C 	C 	0.93741 0.73575 0.66511 -0.05000
H 	H 	0.93608 0.70296 0.67537 0.05100
H 	H 	0.93976 0.85389 0.62997 0.02900
C 	C 	0.97090 0.52604 0.95099 -0.04400
C 	C 	0.92904 0.51471 0.96343 0.00100
C 	C 	0.92381 0.53250 0.98888 -0.03700
C 	C 	0.96026 0.56111 0.00189 -0.04400
H 	H 	0.91039 0.42224 0.95274 0.04700
H 	H 	0.95601 0.57433 0.02165 0.04000
H 	H 	0.97518 0.51267 0.93128 0.04000
C 	C 	0.90736 0.22363 0.78881 0.09900
N 	N 	0.91989 0.16302 0.76406 -0.08600
C 	C 	0.95761 0.16742 0.77744 0.10200
N 	N 	0.97113 0.20204 0.79551 -0.08400
N 	N 	0.94641 0.22984 0.80107 -0.08400
C 	C 	0.97921 0.13039 0.77581 -0.00500
C 	C 	0.97395 0.04773 0.77659 -0.00900
C 	C 	0.95400 0.08322 0.77874 -0.04200
H 	H 	0.91885 0.07403 0.78261 0.05000
H 	H 	0.95385 0.01143 0.77829 0.04200
C 	C 	0.91030 0.83516 0.79143 -0.09300
C 	C 	0.91237 0.81319 0.81652 0.01500
H 	H 	0.94008 0.82701 0.82942 0.03400
