data_crystal

_cell_length_a 34.05261
_cell_length_b 34.08455
_cell_length_c 20.94745
_cell_angle_alpha 92.10767
_cell_angle_beta  90.72676
_cell_angle_gamma 90.03205

_symmetry_space_group_name_	'P 1'
_symmetry_space_group_name_H-M	'P 1'

loop_
_symmetry_equiv_pos_as_xyz
  x,y,z

loop_
_atom_site_label
_atom_site_type_symbol
_atom_site_fract_x
_atom_site_fract_y
_atom_site_fract_z
_atom_site_charge
Cd	Cd	0.93224 0.88137 0.33295 1.24400
Cd	Cd	0.99295 0.93529 0.44597 1.18100
O 	O 	0.87510 0.84808 0.37689 -0.32100
O 	O 	0.88699 0.84535 0.27443 -0.35000
C 	C 	0.86602 0.83261 0.32107 0.27000
O 	O 	0.97295 0.91538 0.27155 -0.36900
O 	O 	0.02018 0.92517 0.34947 -0.42800
C 	C 	0.00344 0.93534 0.29546 0.28700
C 	C 	0.90849 0.95735 0.37817 0.30900
O 	O 	0.97635 0.86989 0.43388 -0.45500
O 	O 	0.88660 0.94500 0.32965 -0.28900
O 	O 	0.93108 0.93089 0.40226 -0.53300
C 	C 	0.99557 0.84358 0.40018 0.29100
O 	O 	0.97958 0.83358 0.34507 -0.35200
Cd	Cd	0.95995 0.92393 0.07479 1.24300
Cd	Cd	0.97427 0.97111 0.92705 1.15900
O 	O 	0.91463 0.86823 0.06560 -0.31500
O 	O 	0.94842 0.88056 0.15389 -0.34900
C 	C 	0.92318 0.85788 0.12299 0.27200
O 	O 	0.00880 0.96827 0.09586 -0.36200
O 	O 	0.99055 0.00803 0.01439 -0.42500
C 	C 	0.01641 0.99770 0.05792 0.25600
C 	C 	0.01260 0.89019 0.98424 0.29100
O 	O 	0.91892 0.95807 0.98644 -0.46000
O 	O 	0.01553 0.87303 0.03877 -0.28100
O 	O 	0.98354 0.91443 0.97920 -0.54700
C 	C 	0.90377 0.98068 0.03121 0.29500
O 	O 	0.91337 0.97257 0.08975 -0.35000
C 	C 	0.90949 0.69878 0.07233 0.11500
N 	N 	0.89131 0.69538 0.01407 -0.13300
C 	C 	0.89463 0.66164 0.97777 0.11800
N 	N 	0.91661 0.63167 0.99983 -0.14900
C 	C 	0.93754 0.63626 0.05514 0.13600
N 	N 	0.93269 0.66919 0.09246 -0.14200
C 	C 	0.84601 0.68161 0.40123 0.11100
N 	N 	0.84005 0.68440 0.46538 -0.14100
C 	C 	0.85174 0.65493 0.50325 0.12700
N 	N 	0.86717 0.62160 0.47645 -0.14400
C 	C 	0.87227 0.61815 0.41224 0.12700
N 	N 	0.86226 0.64846 0.37492 -0.14100
Cd	Cd	0.93283 0.14767 0.77388 1.24200
Cd	Cd	0.00119 0.14901 0.90205 1.16000
O 	O 	0.87769 0.19403 0.78301 -0.31800
O 	O 	0.88382 0.15379 0.69991 -0.35000
C 	C 	0.86235 0.17997 0.72998 0.27700
O 	O 	0.98210 0.10934 0.73710 -0.37900
O 	O 	0.00606 0.09521 0.83646 -0.46900
C 	C 	0.01028 0.09531 0.77394 0.27800
C 	C 	0.98837 0.20951 0.78661 0.30100
O 	O 	0.93396 0.13722 0.89780 -0.44900
O 	O 	0.97304 0.20855 0.72894 -0.29600
O 	O 	0.97297 0.18590 0.82598 -0.55100
C 	C 	0.91625 0.10384 0.88594 0.28100
O 	O 	0.90676 0.09612 0.82633 -0.37200
Cd	Cd	0.96894 0.17808 0.53977 1.24000
Cd	Cd	0.02430 0.14832 0.40268 1.18200
O 	O 	0.91010 0.21560 0.51183 -0.32000
O 	O 	0.91965 0.19515 0.60844 -0.34600
C 	C 	0.89558 0.21118 0.56795 0.27200
O 	O 	0.01418 0.13578 0.57803 -0.36400
O 	O 	0.05713 0.14454 0.49616 -0.41700
C 	C 	0.04544 0.12440 0.54492 0.28500
C 	C 	0.94383 0.11132 0.46496 0.29800
O 	O 	0.00511 0.20898 0.44523 -0.45000
O 	O 	0.92515 0.11440 0.51879 -0.30500
O 	O 	0.96537 0.14127 0.45145 -0.53000
C 	C 	0.02499 0.23109 0.48615 0.29600
O 	O 	0.01430 0.22929 0.54559 -0.34300
C 	C 	0.70812 0.17006 0.80454 0.11200
N 	N 	0.67655 0.14859 0.78372 -0.14100
C 	C 	0.64702 0.14077 0.82445 0.12600
N 	N 	0.64977 0.15362 0.88656 -0.14600
C 	C 	0.68250 0.17279 0.90851 0.13600
N 	N 	0.71117 0.18184 0.86710 -0.14200
C 	C 	0.74172 0.18167 0.48534 0.11200
N 	N 	0.71518 0.15472 0.50407 -0.14100
C 	C 	0.68763 0.14019 0.46207 0.12900
N 	N 	0.68738 0.15179 0.40079 -0.14200
C 	C 	0.71356 0.17886 0.38190 0.12800
N 	N 	0.74009 0.19458 0.42465 -0.14100
Cd	Cd	0.14017 0.14353 0.21226 1.24300
Cd	Cd	0.17017 0.09043 0.34447 1.15500
O 	O 	0.17772 0.20275 0.19011 -0.31000
O 	O 	0.12547 0.18614 0.13403 -0.36100
C 	C 	0.15023 0.21390 0.15131 0.26300
O 	O 	0.10318 0.08915 0.20439 -0.38300
O 	O 	0.10828 0.07587 0.31062 -0.47600
C 	C 	0.09771 0.06519 0.25164 0.26300
C 	C 	0.20715 0.09505 0.20170 0.30200
O 	O 	0.15352 0.15640 0.33559 -0.43800
O 	O 	0.19600 0.10452 0.14417 -0.28000
O 	O 	0.18871 0.11197 0.24836 -0.55600
C 	C 	0.11906 0.17295 0.33838 0.25100
O 	O 	0.09840 0.17095 0.28555 -0.40600
Cd	Cd	0.19221 0.17798 0.98713 1.23900
Cd	Cd	0.15053 0.12170 0.85735 1.16900
O 	O 	0.23104 0.23455 0.95622 -0.32400
O 	O 	0.21527 0.22669 0.05569 -0.34400
C 	C 	0.23013 0.24973 0.01379 0.27800
O 	O 	0.15242 0.13413 0.03306 -0.37600
O 	O 	0.15377 0.08901 0.94878 -0.45800
C 	C 	0.13953 0.10111 0.00436 0.28400
C 	C 	0.12385 0.20658 0.92406 0.27700
O 	O 	0.21509 0.13829 0.88454 -0.44300
O 	O 	0.12987 0.22452 0.97931 -0.30600
O 	O 	0.15133 0.18228 0.90651 -0.54000
C 	C 	0.23908 0.11948 0.92156 0.28600
O 	O 	0.24175 0.13230 0.98083 -0.35100
C 	C 	0.18890 0.39735 0.93647 0.11700
N 	N 	0.16563 0.42522 0.96409 -0.14600
C 	C 	0.14315 0.44863 0.92766 0.13100
N 	N 	0.14517 0.44527 0.86289 -0.14300
C 	C 	0.16834 0.41731 0.83480 0.12700
N 	N 	0.19047 0.39366 0.87169 -0.14000
C 	C 	0.09755 0.35497 0.26695 0.11500
N 	N 	0.06564 0.37763 0.25468 -0.14000
C 	C 	0.05359 0.40501 0.29905 0.13100
N 	N 	0.07244 0.40861 0.35644 -0.14100
C 	C 	0.10444 0.38626 0.36875 0.13100
N 	N 	0.11693 0.35944 0.32396 -0.14000
Cd	Cd	0.19784 0.92246 0.73549 1.24200
Cd	Cd	0.16563 0.96517 0.88337 1.16600
O 	O 	0.23793 0.86304 0.74452 -0.31600
O 	O 	0.22543 0.88804 0.65206 -0.34700
C 	C 	0.24773 0.86481 0.68504 0.26800
O 	O 	0.15437 0.96883 0.70648 -0.36500
O 	O 	0.16098 0.00496 0.80059 -0.43800
C 	C 	0.14128 0.99630 0.74735 0.25500
C 	C 	0.13385 0.88890 0.79856 0.29500
O 	O 	0.22759 0.95223 0.84328 -0.45100
O 	O 	0.13621 0.87321 0.74074 -0.28000
O 	O 	0.16292 0.91090 0.81727 -0.54900
C 	C 	0.24875 0.97528 0.80924 0.28600
O 	O 	0.24644 0.96912 0.74759 -0.35900
Cd	Cd	0.21653 0.94290 0.46554 1.24000
Cd	Cd	0.14875 0.96933 0.34568 1.15900
O 	O 	0.26769 0.89506 0.43563 -0.31400
O 	O 	0.26873 0.92672 0.52867 -0.35400
C 	C 	0.28588 0.90162 0.48977 0.27400
O 	O 	0.18071 0.99216 0.51043 -0.40400
O 	O 	0.12621 0.98179 0.44555 -0.45700
C 	C 	0.14402 0.00076 0.49389 0.28900
C 	C 	0.24120 0.99509 0.37071 0.25700
O 	O 	0.16436 0.90895 0.38760 -0.44500
O 	O 	0.26501 0.99670 0.41998 -0.30400
O 	O 	0.21360 0.96895 0.37265 -0.54800
C 	C 	0.14913 0.89346 0.43769 0.28500
O 	O 	0.16875 0.89864 0.49120 -0.34900
C 	C 	0.40516 0.88117 0.74588 0.11100
N 	N 	0.43050 0.90847 0.72445 -0.14200
C 	C 	0.45885 0.92405 0.76383 0.12700
N 	N 	0.46216 0.91206 0.82468 -0.14300
C 	C 	0.43714 0.88480 0.84651 0.12400
N 	N 	0.40901 0.86886 0.80679 -0.14100
C 	C 	0.44310 0.89155 0.42105 0.11400
N 	N 	0.47546 0.90797 0.44951 -0.14200
C 	C 	0.50654 0.91857 0.41394 0.12600
N 	N 	0.50563 0.91131 0.34958 -0.14300
C 	C 	0.47426 0.89271 0.32131 0.12800
N 	N 	0.44262 0.88380 0.35694 -0.13900
C 	C 	0.43810 0.87577 0.91495 -0.04200
C 	C 	0.41066 0.89294 0.95805 0.08500
C 	C 	0.41741 0.89093 0.02421 -0.06800
C 	C 	0.45161 0.87348 0.04802 -0.01300
C 	C 	0.47800 0.85460 0.00511 0.08600
C 	C 	0.47063 0.85552 0.93897 -0.07000
N 	N 	0.37841 0.91224 0.93644 -0.19700
H 	H 	0.39681 0.90455 0.05727 0.05600
C 	C 	0.46071 0.87753 0.11757 -0.00100
N 	N 	0.51081 0.83633 0.02686 -0.19100
H 	H 	0.49135 0.84203 0.90598 0.05000
C 	C 	0.45173 0.84649 0.15705 -0.08700
C 	C 	0.45945 0.84957 0.22315 0.10200
C 	C 	0.47290 0.88576 0.25099 -0.04900
C 	C 	0.48246 0.91660 0.21134 -0.05200
C 	C 	0.47724 0.91258 0.14473 0.07100
H 	H 	0.43985 0.81939 0.13601 0.05700
N 	N 	0.45549 0.81735 0.25898 -0.19900
H 	H 	0.49345 0.94407 0.23240 0.05200
N 	N 	0.48819 0.94239 0.10729 -0.19400
H 	H 	0.44350 0.79143 0.23887 0.08700
H 	H 	0.46659 0.81687 0.30562 0.09200
H 	H 	0.49958 0.96845 0.12787 0.08600
H 	H 	0.48643 0.93975 0.05753 0.09200
H 	H 	0.53023 0.82274 0.99477 0.07700
H 	H 	0.51738 0.83531 0.07556 0.08900
H 	H 	0.37255 0.91472 0.88777 0.09600
H 	H 	0.35861 0.92509 0.96868 0.08400
C 	C 	0.34257 0.85816 0.46635 0.00500
C 	C 	0.32802 0.89287 0.49550 -0.06500
C 	C 	0.35439 0.92294 0.51418 0.00300
C 	C 	0.39358 0.92078 0.49520 -0.03800
C 	C 	0.40652 0.88859 0.45727 -0.00300
C 	C 	0.38156 0.85623 0.44647 -0.03900
H 	H 	0.32280 0.83406 0.45401 0.04200
H 	H 	0.34388 0.94937 0.53864 0.04300
H 	H 	0.41299 0.94544 0.50575 0.04700
H 	H 	0.39168 0.83056 0.41941 0.04700
C 	C 	0.31142 0.83008 0.69300 0.00300
C 	C 	0.28992 0.86216 0.67081 -0.06400
C 	C 	0.31011 0.89694 0.65808 -0.00100
C 	C 	0.34945 0.90158 0.67636 -0.03700
C 	C 	0.36893 0.87180 0.70866 -0.00400
C 	C 	0.35060 0.83510 0.71316 -0.03900
H 	H 	0.29662 0.80262 0.70130 0.03900
H 	H 	0.29406 0.92226 0.64230 0.05400
H 	H 	0.36355 0.92973 0.67076 0.05000
H 	H 	0.36583 0.81123 0.73556 0.04700
C 	C 	0.16430 0.40821 0.76560 -0.04900
C 	C 	0.13027 0.38929 0.73998 0.10400
C 	C 	0.12507 0.38553 0.67343 -0.08600
C 	C 	0.15489 0.39675 0.63224 -0.00300
C 	C 	0.19045 0.41254 0.65815 0.07000
C 	C 	0.19430 0.41917 0.72463 -0.05200
N 	N 	0.10324 0.37350 0.77885 -0.20000
H 	H 	0.09813 0.37288 0.65363 0.06000
C 	C 	0.14769 0.39362 0.56203 -0.00600
N 	N 	0.22111 0.42071 0.61978 -0.19400
H 	H 	0.22085 0.43263 0.74448 0.04800
C 	C 	0.14176 0.42801 0.52841 -0.08500
C 	C 	0.13182 0.42608 0.46308 0.10100
C 	C 	0.12381 0.38912 0.43248 -0.04800
C 	C 	0.13110 0.35467 0.46542 -0.05200
C 	C 	0.14398 0.35656 0.52950 0.07400
H 	H 	0.14558 0.45637 0.55289 0.05500
N 	N 	0.13147 0.45952 0.42958 -0.19900
H 	H 	0.12626 0.32631 0.44148 0.05700
N 	N 	0.15301 0.32285 0.55922 -0.19400
H 	H 	0.13014 0.45853 0.37972 0.09300
H 	H 	0.13521 0.48687 0.45311 0.08600
H 	H 	0.14878 0.29558 0.53564 0.09300
H 	H 	0.16569 0.32337 0.60487 0.09300
H 	H 	0.24674 0.43349 0.63907 0.08500
H 	H 	0.22044 0.41317 0.57103 0.08900
H 	H 	0.10879 0.37093 0.82764 0.09300
H 	H 	0.07725 0.36136 0.75977 0.09000
C 	C 	0.26667 0.01121 0.83803 -0.08300
C 	C 	0.26950 0.01516 0.90485 -0.01100
C 	C 	0.26698 0.05235 0.93484 -0.01800
C 	C 	0.26157 0.08547 0.89726 -0.07400
C 	C 	0.26899 0.08201 0.83162 -0.02400
C 	C 	0.27196 0.04487 0.80169 0.00700
H 	H 	0.27032 0.98923 0.93337 0.02100
H 	H 	0.26941 0.10802 0.80328 0.04600
C 	C 	0.28115 0.04163 0.73460 0.09100
C 	C 	0.26961 0.05616 0.00364 0.10900
N 	N 	0.28854 0.03910 0.68082 -0.10900
N 	N 	0.27177 0.05916 0.05877 -0.10300
C 	C 	0.25379 0.31674 0.99486 -0.01400
C 	C 	0.22547 0.29235 0.02136 -0.05000
C 	C 	0.18765 0.30724 0.03246 -0.00800
C 	C 	0.17703 0.34391 0.01065 -0.01700
C 	C 	0.20358 0.36541 0.97524 -0.02100
C 	C 	0.24262 0.35279 0.97029 -0.02900
H 	H 	0.28331 0.30593 0.98698 0.04000
H 	H 	0.16492 0.28819 0.04913 0.05600
H 	H 	0.14691 0.35371 0.01556 0.05100
H 	H 	0.26372 0.36979 0.94461 0.04300
C 	C 	0.25013 0.01576 0.31182 -0.10800
C 	C 	0.26841 0.05268 0.31632 -0.04600
C 	C 	0.26505 0.07785 0.26521 -0.01100
C 	C 	0.23921 0.06768 0.21430 -0.09000
C 	C 	0.23209 0.02771 0.20167 -0.02500
C 	C 	0.23674 0.00137 0.25125 -0.01400
H 	H 	0.28281 0.06267 0.36046 0.03800
H 	H 	0.21941 0.01796 0.15612 0.05900
C 	C 	0.23085 0.95985 0.23856 0.04100
C 	C 	0.28247 0.11645 0.27016 0.07200
N 	N 	0.22613 0.92657 0.22842 -0.11700
N 	N 	0.29642 0.14743 0.27413 -0.11000
C 	C 	0.09631 0.26356 0.16009 0.00200
C 	C 	0.13675 0.25513 0.15754 -0.06200
C 	C 	0.16374 0.28418 0.17870 0.00100
C 	C 	0.15065 0.31869 0.20953 -0.03900
C 	C 	0.11045 0.32460 0.21974 -0.00400
C 	C 	0.08321 0.29801 0.19169 -0.04000
H 	H 	0.07499 0.24214 0.14220 0.04000
H 	H 	0.19501 0.27886 0.17494 0.05300
H 	H 	0.17192 0.33981 0.22866 0.04900
H 	H 	0.05201 0.30268 0.19790 0.04900
C 	C 	0.53795 0.94370 0.44361 -0.04900
C 	C 	0.57628 0.94425 0.41821 0.10200
C 	C 	0.60124 0.97606 0.43402 -0.09600
C 	C 	0.59027 0.00466 0.48030 0.00400
C 	C 	0.55481 0.00018 0.51367 0.07900
C 	C 	0.52837 0.97047 0.49374 -0.06400
N 	N 	0.58991 0.91355 0.38165 -0.19900
H 	H 	0.62931 0.97844 0.41057 0.05800
C 	C 	0.61347 0.04144 0.48760 -0.00500
N 	N 	0.54603 0.02429 0.56466 -0.19500
H 	H 	0.49994 0.96887 0.51621 0.05300
C 	C 	0.59740 0.07633 0.46531 -0.08500
C 	C 	0.62012 0.11063 0.46433 0.10200
C 	C 	0.66046 0.10909 0.48104 -0.05000
C 	C 	0.67579 0.07505 0.50769 -0.05100
C 	C 	0.65231 0.04140 0.51254 0.07200
H 	H 	0.56714 0.07676 0.44856 0.05700
N 	N 	0.60296 0.14503 0.44858 -0.19900
H 	H 	0.70635 0.07431 0.52281 0.05200
N 	N 	0.66705 0.00941 0.54148 -0.18900
H 	H 	0.57361 0.14563 0.43345 0.08600
H 	H 	0.61791 0.17171 0.45454 0.09200
H 	H 	0.69618 0.00913 0.55779 0.08800
H 	H 	0.64939 0.98520 0.55033 0.08000
H 	H 	0.51895 0.02207 0.58720 0.09000
H 	H 	0.56663 0.04420 0.58410 0.08800
H 	H 	0.57499 0.88675 0.37881 0.09300
H 	H 	0.61728 0.91520 0.35986 0.08700
C 	C 	0.61617 0.11211 0.80486 -0.04900
C 	C 	0.59473 0.11528 0.74679 0.10000
C 	C 	0.56876 0.08504 0.72689 -0.08600
C 	C 	0.56174 0.05334 0.76603 -0.00600
C 	C 	0.58243 0.05068 0.82479 0.07300
C 	C 	0.60963 0.07994 0.84329 -0.05300
N 	N 	0.59758 0.14787 0.71154 -0.19900
H 	H 	0.55240 0.08726 0.68243 0.05100
C 	C 	0.53099 0.02431 0.74706 0.00100
N 	N 	0.57639 0.02012 0.86361 -0.18900
H 	H 	0.62616 0.07740 0.88753 0.04900
C 	C 	0.54207 0.98897 0.71589 -0.09800
C 	C 	0.51682 0.95632 0.71461 0.09900
C 	C 	0.48020 0.95932 0.74549 -0.05000
C 	C 	0.46715 0.99605 0.76876 -0.06400
C 	C 	0.49220 0.02875 0.76961 0.08000
H 	H 	0.57115 0.98624 0.69568 0.05400
N 	N 	0.52797 0.92225 0.68426 -0.20000
H 	H 	0.43823 0.99868 0.78961 0.05000
N 	N 	0.47927 0.06396 0.79372 -0.19500
H 	H 	0.55540 0.92003 0.66260 0.08500
H 	H 	0.50904 0.89816 0.68003 0.09300
H 	H 	0.45101 0.06665 0.81229 0.08900
H 	H 	0.49664 0.08916 0.79266 0.09000
H 	H 	0.59170 0.01859 0.90701 0.08500
H 	H 	0.55664 0.99759 0.85131 0.08300
H 	H 	0.61187 0.17314 0.72934 0.09400
H 	H 	0.58340 0.14898 0.66709 0.08600
C 	C 	0.68944 0.17864 0.97803 -0.08300
C 	C 	0.68789 0.14669 0.01938 0.13200
C 	C 	0.69081 0.15387 0.08565 -0.09800
C 	C 	0.69932 0.19158 0.11107 0.00600
C 	C 	0.70355 0.22316 0.06951 0.05800
C 	C 	0.69771 0.21648 0.00338 -0.01700
N 	N 	0.68562 0.10902 0.99574 -0.21300
H 	H 	0.68832 0.12963 0.11750 0.06200
C 	C 	0.70591 0.19691 0.18107 -0.00800
N 	N 	0.71293 0.25985 0.09265 -0.19100
H 	H 	0.69968 0.24080 0.97161 0.03400
C 	C 	0.74139 0.18390 0.20756 -0.08400
C 	C 	0.74534 0.17900 0.27365 0.10300
C 	C 	0.71389 0.18995 0.31441 -0.04900
C 	C 	0.67985 0.20654 0.28831 -0.05200
C 	C 	0.67521 0.20951 0.22190 0.07200
H 	H 	0.76514 0.17504 0.17617 0.05800
N 	N 	0.77863 0.16237 0.29705 -0.19900
H 	H 	0.65609 0.21549 0.31960 0.04800
N 	N 	0.64108 0.22393 0.19776 -0.19400
H 	H 	0.80184 0.15515 0.26661 0.09000
H 	H 	0.78157 0.15541 0.34492 0.09900
H 	H 	0.61837 0.23261 0.22826 0.08600
H 	H 	0.63687 0.22713 0.14880 0.09100
H 	H 	0.71573 0.28299 0.06165 0.08700
H 	H 	0.71773 0.26576 0.14137 0.08900
H 	H 	0.69055 0.10204 0.94759 0.09500
H 	H 	0.68179 0.08589 0.02649 0.09600
C 	C 	0.06435 0.24433 0.46953 -0.08500
C 	C 	0.09623 0.22292 0.49317 -0.01900
C 	C 	0.12042 0.20269 0.44933 -0.01100
C 	C 	0.11295 0.20641 0.38364 -0.09400
C 	C 	0.09146 0.23918 0.36405 -0.02400
C 	C 	0.06854 0.25985 0.40881 -0.00600
H 	H 	0.09826 0.21702 0.54356 0.06100
H 	H 	0.09008 0.24632 0.31403 0.04400
C 	C 	0.04381 0.29162 0.38897 0.07500
C 	C 	0.15339 0.18007 0.47124 0.06300
N 	N 	0.02396 0.31710 0.37305 -0.11500
N 	N 	0.18010 0.16201 0.48810 -0.14100
C 	C 	0.07026 0.09149 0.56624 -0.06200
C 	C 	0.05524 0.05319 0.56065 -0.02300
C 	C 	0.08043 0.02152 0.54589 0.01500
C 	C 	0.12070 0.02858 0.53474 -0.07800
C 	C 	0.13643 0.06544 0.55274 -0.02300
C 	C 	0.11135 0.09645 0.57130 -0.00300
H 	H 	0.02379 0.04841 0.56263 0.03500
H 	H 	0.16782 0.07041 0.55025 0.03300
C 	C 	0.12780 0.13209 0.59949 0.08500
C 	C 	0.06509 0.98203 0.54425 0.03700
N 	N 	0.14134 0.16045 0.62254 -0.11600
N 	N 	0.05274 0.95039 0.54319 -0.18400
C 	C 	0.82776 0.23674 0.55920 0.00100
C 	C 	0.85299 0.20545 0.57270 -0.06100
C 	C 	0.83814 0.16695 0.56944 0.00300
C 	C 	0.80000 0.15956 0.54682 -0.03800
C 	C 	0.77661 0.19044 0.52565 -0.00300
C 	C 	0.78985 0.22925 0.53490 -0.03900
H 	H 	0.83866 0.26662 0.56212 0.03600
H 	H 	0.85721 0.14246 0.57939 0.05500
H 	H 	0.78978 0.12950 0.54114 0.04700
H 	H 	0.77166 0.25344 0.52017 0.04600
C 	C 	0.04211 0.07127 0.74476 -0.07500
C 	C 	0.07982 0.08756 0.74061 -0.04900
C 	C 	0.11274 0.06315 0.73213 -0.02100
C 	C 	0.10813 0.02196 0.72915 -0.06400
C 	C 	0.07009 0.00610 0.72469 -0.02500
C 	C 	0.03707 0.03051 0.73285 -0.01000
H 	H 	0.08380 0.11899 0.74745 -0.00900
H 	H 	0.06626 0.97456 0.71964 0.02700
C 	C 	0.99833 0.01326 0.73186 0.05300
C 	C 	0.15134 0.08048 0.72864 -0.00900
N 	N 	0.96727 0.99944 0.73109 -0.15400
N 	N 	0.18230 0.09429 0.72586 -0.13900
C 	C 	0.02637 0.22781 0.80174 -0.10200
C 	C 	0.02972 0.24996 0.85910 -0.03800
C 	C 	0.06302 0.24614 0.89815 -0.01300
C 	C 	0.09356 0.22024 0.87836 -0.11900
C 	C 	0.09339 0.20543 0.81478 -0.03500
C 	C 	0.06036 0.21091 0.77562 -0.01800
H 	H 	0.00465 0.26659 0.87663 0.03400
H 	H 	0.11837 0.18907 0.79636 -0.01200
C 	C 	0.06137 0.19946 0.70893 0.07500
C 	C 	0.06568 0.26928 0.95725 0.05700
N 	N 	0.06187 0.19066 0.65517 -0.10600
N 	N 	0.06772 0.28792 0.00450 -0.10500
C 	C 	0.76006 0.21201 0.76015 -0.04100
C 	C 	0.74172 0.17522 0.76227 -0.00200
C 	C 	0.76011 0.14219 0.73412 -0.04000
C 	C 	0.79892 0.14480 0.71363 0.00300
C 	C 	0.81943 0.18048 0.72133 -0.06800
C 	C 	0.79868 0.21468 0.73888 0.00600
H 	H 	0.74547 0.23804 0.77929 0.04500
H 	H 	0.74566 0.11384 0.73327 0.04800
H 	H 	0.81408 0.11840 0.69744 0.04000
H 	H 	0.81366 0.24275 0.74203 0.03900
C 	C 	0.89433 0.58430 0.38472 -0.04900
C 	C 	0.88108 0.56348 0.32862 0.09900
C 	C 	0.90494 0.53403 0.30079 -0.08700
C 	C 	0.93997 0.52276 0.33089 -0.00600
C 	C 	0.95284 0.54302 0.38763 0.07300
C 	C 	0.93002 0.57379 0.41359 -0.05300
N 	N 	0.84489 0.57026 0.30307 -0.19900
H 	H 	0.89519 0.51842 0.25739 0.05200
C 	C 	0.96176 0.48819 0.30494 -0.00700
N 	N 	0.98706 0.53319 0.41730 -0.19500
H 	H 	0.94032 0.58988 0.45620 0.05100
C 	C 	0.99328 0.49409 0.26389 -0.09000
C 	C 	0.02198 0.46485 0.25466 0.10100
C 	C 	0.01867 0.42923 0.28693 -0.04600
C 	C 	0.98418 0.42133 0.31996 -0.05600
C 	C 	0.95557 0.45054 0.32933 0.07300
H 	H 	0.99683 0.52232 0.24239 0.05400
N 	N 	0.05288 0.47143 0.21597 -0.20000
H 	H 	0.98082 0.39328 0.34212 0.05700
N 	N 	0.92286 0.44265 0.36320 -0.19400
H 	H 	0.05563 0.49819 0.19358 0.08600
H 	H 	0.07375 0.44969 0.20615 0.09500
H 	H 	0.91915 0.41519 0.38294 0.08700
H 	H 	0.90034 0.46322 0.36873 0.08900
H 	H 	0.99610 0.54814 0.45942 0.08500
H 	H 	0.00515 0.51091 0.39894 0.09400
H 	H 	0.82418 0.58741 0.32753 0.09300
H 	H 	0.83626 0.55632 0.25988 0.08500
C 	C 	0.11453 0.47546 0.95867 -0.06700
C 	C 	0.07476 0.47655 0.93800 0.11100
C 	C 	0.04955 0.50487 0.96510 -0.10500
C 	C 	0.06194 0.52882 0.01732 0.01500
C 	C 	0.10022 0.52440 0.04307 0.06000
C 	C 	0.12668 0.49889 0.01186 -0.03400
N 	N 	0.06008 0.44916 0.89529 -0.20000
H 	H 	0.01977 0.50749 0.94676 0.05800
C 	C 	0.03527 0.55988 0.04194 -0.01400
N 	N 	0.11179 0.54476 0.09715 -0.19300
H 	H 	0.15671 0.49702 0.02934 0.04900
C 	C 	0.00328 0.54931 0.07936 -0.08000
C 	C 	0.97214 0.57564 0.09015 0.09800
C 	C 	0.97333 0.61293 0.06301 -0.05100
C 	C 	0.00748 0.62514 0.03288 -0.05100
C 	C 	0.03826 0.59877 0.02089 0.08400
H 	H 	0.00187 0.52002 0.09775 0.05300
N 	N 	0.94140 0.56503 0.12660 -0.19900
H 	H 	0.00887 0.65446 0.01454 0.05500
N 	N 	0.06994 0.61057 0.98755 -0.20000
H 	H 	0.94037 0.53712 0.14558 0.08500
H 	H 	0.91898 0.58484 0.13823 0.09200
H 	H 	0.07153 0.63922 0.97156 0.08500
H 	H 	0.09337 0.59175 0.97748 0.08800
H 	H 	0.14046 0.54208 0.11489 0.08500
H 	H 	0.09224 0.56253 0.12306 0.08800
H 	H 	0.07491 0.42292 0.88548 0.09300
H 	H 	0.03177 0.45219 0.87623 0.08600
C 	C 	0.88252 0.66080 0.90933 -0.04600
C 	C 	0.84532 0.67480 0.88912 0.09700
C 	C 	0.83693 0.67692 0.82330 -0.08500
C 	C 	0.86340 0.66191 0.77772 -0.00600
C 	C 	0.89956 0.64578 0.79809 0.07200
C 	C 	0.90919 0.64647 0.86345 -0.05500
N 	N 	0.81703 0.68450 0.93215 -0.19900
H 	H 	0.80910 0.68891 0.80760 0.05300
C 	C 	0.85359 0.66422 0.70857 -0.00500
N 	N 	0.92510 0.62948 0.75526 -0.19400
H 	H 	0.93765 0.63573 0.87867 0.05100
C 	C 	0.87122 0.69363 0.67356 -0.08600
C 	C 	0.87170 0.69089 0.60645 0.10000
C 	C 	0.85057 0.66020 0.57369 -0.05000
C 	C 	0.83009 0.63270 0.60884 -0.05300
C 	C 	0.83174 0.63410 0.67602 0.07000
H 	H 	0.88746 0.71695 0.69869 0.05600
N 	N 	0.89409 0.71648 0.57423 -0.19900
H 	H 	0.81358 0.60953 0.58383 0.04900
N 	N 	0.81278 0.60618 0.70876 -0.19400
H 	H 	0.90774 0.74020 0.59855 0.08700
H 	H 	0.90023 0.71186 0.52589 0.09700
H 	H 	0.79733 0.58366 0.68430 0.08300
H 	H 	0.81269 0.60678 0.75860 0.08700
H 	H 	0.95213 0.61851 0.77068 0.08400
H 	H 	0.91812 0.62657 0.70667 0.09000
H 	H 	0.81990 0.67758 0.98010 0.08900
H 	H 	0.79055 0.69681 0.91703 0.08300
C 	C 	0.05174 0.02264 0.06910 -0.05800
C 	C 	0.08854 0.00778 0.05116 -0.02700
C 	C 	0.11941 0.03345 0.03731 -0.00400
C 	C 	0.11296 0.07452 0.03869 -0.08300
C 	C 	0.07767 0.08928 0.06368 -0.03100
C 	C 	0.04761 0.06350 0.08076 -0.00700
H 	H 	0.09261 0.97632 0.04488 0.01400
H 	H 	0.07316 0.12075 0.06834 0.01700
C 	C 	0.01350 0.07898 0.11299 0.07100
C 	C 	0.15763 0.01743 0.02270 0.03100
N 	N 	0.98637 0.09142 0.13953 -0.12500
N 	N 	0.18822 0.00446 0.01111 -0.16200
C 	C 	0.88806 0.01911 0.01572 -0.06600
C 	C 	0.90771 0.05273 0.03977 -0.02300
C 	C 	0.91270 0.08465 0.00050 0.00800
C 	C 	0.89754 0.08236 0.93738 -0.10000
C 	C 	0.86923 0.05358 0.92129 -0.01400
C 	C 	0.86392 0.02215 0.96120 -0.01200
H 	H 	0.92243 0.05238 0.08592 0.06200
H 	H 	0.85355 0.05416 0.87593 0.04600
C 	C 	0.83634 0.99140 0.94317 0.06000
C 	C 	0.93170 0.11985 0.02584 0.05200
N 	N 	0.81424 0.96674 0.92871 -0.11800
N 	N 	0.94682 0.14818 0.04600 -0.14400
C 	C 	0.04346 0.88655 0.93570 -0.11100
C 	C 	0.03322 0.88826 0.87072 -0.03800
C 	C 	0.06222 0.88547 0.82389 -0.00900
C 	C 	0.10185 0.88016 0.84215 -0.10300
C 	C 	0.11145 0.87530 0.90662 -0.03800
C 	C 	0.08312 0.88065 0.95361 -0.01500
H 	H 	0.00275 0.89228 0.85669 -0.00300
H 	H 	0.14186 0.87073 0.92063 0.01900
C 	C 	0.09566 0.88375 0.01983 0.07000
C 	C 	0.05116 0.88909 0.75757 0.06000
N 	N 	0.10577 0.88631 0.07278 -0.11400
N 	N 	0.04220 0.89199 0.70447 -0.11600
C 	C 	0.94880 0.79243 0.14892 0.00100
C 	C 	0.91641 0.81719 0.14042 -0.06000
C 	C 	0.87940 0.80040 0.12696 0.00800
C 	C 	0.87633 0.76052 0.10951 -0.03900
C 	C 	0.91009 0.73702 0.10763 -0.00300
C 	C 	0.94576 0.75243 0.13210 -0.03700
H 	H 	0.97726 0.80478 0.16169 0.05400
H 	H 	0.85373 0.81900 0.12343 0.04400
H 	H 	0.84821 0.74851 0.09386 0.04800
H 	H 	0.97180 0.73423 0.13331 0.05300
C 	C 	0.07100 0.03112 0.24156 -0.06400
C 	C 	0.03046 0.03583 0.25015 -0.01400
C 	C 	0.00601 0.00269 0.25224 0.01400
C 	C 	0.02289 0.96519 0.25733 -0.08700
C 	C 	0.06261 0.96025 0.24218 -0.01900
C 	C 	0.08612 0.99301 0.23068 -0.06400
H 	H 	0.01801 0.06503 0.25521 0.02700
H 	H 	0.07538 0.93108 0.24068 0.01900
C 	C 	0.12319 0.98722 0.19972 -0.00500
C 	C 	0.96423 0.00691 0.24285 0.07400
N 	N 	0.15256 0.98211 0.17376 -0.13300
N 	N 	0.93073 0.01036 0.23491 -0.09900
C 	C 	0.93674 0.07800 0.42009 -0.09800
C 	C 	0.89760 0.06731 0.40617 -0.01300
C 	C 	0.88781 0.02804 0.39140 0.03100
C 	C 	0.91769 0.99945 0.38839 -0.13400
C 	C 	0.95705 0.01126 0.39452 0.01500
C 	C 	0.96670 0.05040 0.40840 -0.02100
H 	H 	0.87444 0.08892 0.41252 0.04300
H 	H 	0.98024 0.99022 0.38661 -0.07800
C 	C 	0.00751 0.06175 0.41039 -0.01000
C 	C 	0.84702 0.01715 0.38300 0.07900
N 	N 	0.04045 0.07010 0.41132 -0.18700
N 	N 	0.81433 0.00846 0.37628 -0.10600
C 	C 	0.03811 0.83844 0.41187 -0.08500
C 	C 	0.05259 0.84508 0.47431 -0.03100
C 	C 	0.09050 0.86001 0.48472 -0.00300
C 	C 	0.11467 0.86702 0.43184 -0.07700
C 	C 	0.10286 0.85259 0.37096 -0.02300
C 	C 	0.06489 0.83782 0.36079 0.00700
H 	H 	0.03308 0.84218 0.51444 0.03600
H 	H 	0.12266 0.85435 0.33099 0.04100
C 	C 	0.05398 0.82185 0.29825 0.08800
C 	C 	0.10374 0.86886 0.54940 0.09000
N 	N 	0.04536 0.80906 0.24807 -0.10800
N 	N 	0.11430 0.87599 0.60124 -0.10000
C 	C 	0.87135 0.76187 0.29043 0.00100
C 	C 	0.84906 0.79283 0.31728 -0.06800
C 	C 	0.81803 0.78403 0.35790 0.00400
C 	C 	0.81430 0.74621 0.38097 -0.04100
C 	C 	0.84114 0.71678 0.36244 -0.00300
C 	C 	0.86755 0.72398 0.31313 -0.04100
H 	H 	0.89468 0.76791 0.25759 0.04500
H 	H 	0.79939 0.80735 0.37677 0.03800
H 	H 	0.79226 0.74052 0.41633 0.04800
H 	H 	0.88735 0.70116 0.29612 0.05100
