data_crystal

_cell_length_a 24.43033
_cell_length_b 24.98832
_cell_length_c 39.35946
_cell_angle_alpha 91.22243
_cell_angle_beta  91.51611
_cell_angle_gamma 116.43466

_symmetry_space_group_name_	'P 1'
_symmetry_space_group_name_H-M	'P 1'

loop_
_symmetry_equiv_pos_as_xyz
  x,y,z

loop_
_atom_site_label
_atom_site_type_symbol
_atom_site_fract_x
_atom_site_fract_y
_atom_site_fract_z
_atom_site_charge
O 	O 	0.02333 0.95204 0.31043 -0.69100
O 	O 	0.07004 0.03309 0.25294 -0.37600
O 	O 	0.00100 0.46152 0.24401 -0.41400
Ni	Ni	0.05431 0.00972 0.98003 1.09100
O 	O 	0.04583 0.02535 0.92963 -0.37500
C 	C 	0.03719 0.10949 0.01516 0.30600
O 	O 	0.04437 0.42619 0.90963 -0.40700
C 	C 	0.05537 0.61632 0.00373 0.30700
O 	O 	0.04250 0.45273 0.63449 -0.69600
H 	H 	0.13221 0.22611 0.05949 0.14400
H 	H 	0.05367 0.56637 0.13501 0.04700
O 	O 	0.04330 0.57652 0.20064 -0.28500
C 	C 	0.04316 0.93025 0.14503 -0.06400
C 	C 	0.04337 0.96932 0.20216 -0.11100
C 	C 	0.02966 0.50023 0.80546 -0.06300
C 	C 	0.02724 0.50335 0.84093 0.16300
O 	O 	0.04251 0.09528 0.04654 -0.38600
O 	O 	0.07141 0.48479 0.01758 -0.70100
C 	C 	0.07037 0.98651 0.23692 0.31300
C 	C 	0.05481 0.47868 0.89787 0.29500
C 	C 	0.06939 0.94598 0.17797 0.16300
H 	H 	0.06468 0.91441 0.12621 0.05500
Ni	Ni	0.07785 0.04188 0.30511 1.09700
Ni	Ni	0.02506 0.94525 0.36119 1.10400
O 	O 	0.02049 0.95316 0.41310 -0.37300
Ni	Ni	0.07226 0.09406 0.38142 1.07000
O 	O 	0.05258 0.97506 0.02606 -0.68900
Ni	Ni	0.07637 0.51627 0.97057 1.09900
O 	O 	0.06986 0.52515 0.91900 -0.36700
Ni	Ni	0.10385 0.55206 0.05078 1.07200
Ni	Ni	0.02704 0.07284 0.64059 1.09900
O 	O 	0.05297 0.04697 0.74820 -0.41000
H 	H 	0.04499 0.55610 0.67986 0.16100
H 	H 	0.06692 0.43041 0.63135 0.16300
C 	C 	0.07181 0.47789 0.75308 0.29500
C 	C 	0.04628 0.51187 0.56021 0.29300
C 	C 	0.06588 0.48839 0.86153 -0.10600
C 	C 	0.07143 0.48342 0.79038 -0.11500
C 	C 	0.04950 0.05746 0.82214 -0.04800
C 	C 	0.05610 0.04851 0.85668 0.14400
C 	C 	0.03277 0.43808 0.47461 -0.05500
C 	C 	0.04440 0.50536 0.52291 -0.10700
C 	C 	0.01489 0.53216 0.50358 -0.05800
H 	H 	0.03969 0.40154 0.46360 0.06600
H 	H 	0.00656 0.56762 0.51494 0.06500
C 	C 	0.03980 0.05668 0.47995 -0.04200
C 	C 	0.03565 0.06482 0.51489 0.16200
C 	C 	0.11134 0.21629 0.32015 -0.11200
H 	H 	0.07032 0.67512 0.93237 0.15100
C 	C 	0.05623 0.46031 0.50762 0.15800
H 	H 	0.07750 0.56740 0.20755 0.15100
C 	C 	0.03659 0.27548 0.32061 -0.10900
O 	O 	0.12890 0.13270 0.30117 -0.36400
H 	H 	0.06928 0.09432 0.46535 0.02100
O 	O 	0.06760 0.12066 0.53007 -0.27800
Ni	Ni	0.05826 0.90178 0.29136 1.07300
O 	O 	0.08539 0.03308 0.35569 -0.70600
C 	C 	0.13345 0.17077 0.32611 0.31100
O 	O 	0.02810 0.83668 0.32616 -0.39500
O 	O 	0.07161 0.42406 0.28694 -0.39400
O 	O 	0.05927 0.45754 0.33906 -0.38100
Ni	Ni	0.07763 0.03884 0.06169 1.06400
H 	H 	0.08124 0.95688 0.02666 0.16100
H 	H 	0.09650 0.46281 0.01900 0.15800
O 	O 	0.03572 0.05379 0.59063 -0.37000
O 	O 	0.07176 0.53592 0.67841 -0.69600
C 	C 	0.10942 0.47414 0.84650 -0.05900
C 	C 	0.11258 0.47195 0.81108 0.16500
H 	H 	0.07984 0.09961 0.81148 0.04100
H 	H 	0.08471 0.11868 0.88491 0.15400
O 	O 	0.08613 0.43443 0.52589 -0.30400
C 	C 	0.08063 0.28657 0.34724 0.16600
H 	H 	0.06212 0.30231 0.39164 0.15300
O 	O 	0.12113 0.93975 0.18622 -0.28300
C 	C 	0.00194 0.02062 0.76445 0.28000
C 	C 	0.02332 0.74117 0.96858 -0.05700
C 	C 	0.02997 0.68806 0.96979 0.16400
H 	H 	0.01558 0.75650 0.94420 0.05800
O 	O 	0.02771 0.65731 0.94007 -0.27700
C 	C 	0.07191 0.21012 0.29189 0.17200
C 	C 	0.02606 0.98148 0.90646 0.30800
C 	C 	0.00483 0.52897 0.17994 0.17100
O 	O 	0.09694 0.95686 0.25132 -0.39500
O 	O 	0.14193 0.15876 0.35767 -0.42000
C 	C 	0.09009 0.43950 0.31887 0.31800
Ni	Ni	0.06937 0.11980 0.71845 1.07100
O 	O 	0.08866 0.04213 0.65474 -0.40200
Ni	Ni	0.09783 0.54235 0.63029 1.10300
O 	O 	0.12369 0.50456 0.73751 -0.41200
O 	O 	0.09876 0.53503 0.57793 -0.36300
O 	O 	0.10229 0.09235 0.87622 -0.27700
C 	C 	0.11870 0.25820 0.34638 -0.06600
O 	O 	0.08811 0.32662 0.37345 -0.28500
C 	C 	0.01765 0.99342 0.87064 -0.07900
C 	C 	0.00467 0.01203 0.80126 -0.12900
H 	H 	0.09947 0.20170 0.24854 0.14900
H 	H 	0.13957 0.46290 0.86229 0.06000
H 	H 	0.12766 0.03955 0.36126 0.15000
O 	O 	0.09724 0.92479 0.37014 -0.36200
O 	O 	0.14007 0.08009 0.98295 -0.37500
O 	O 	0.18572 0.58266 0.02872 -0.40300
O 	O 	0.16364 0.58604 0.97202 -0.37900
O 	O 	0.09541 0.15878 0.63587 -0.36900
O 	O 	0.08953 0.19165 0.68974 -0.41800
Ni	Ni	0.14082 0.57965 0.70976 1.07500
H 	H 	0.11849 0.95196 0.63423 0.15500
H 	H 	0.16537 0.68792 0.96494 0.06600
O 	O 	0.15333 0.45502 0.79676 -0.28300
H 	H 	0.13003 0.45817 0.52127 0.15700
H 	H 	0.10784 0.12303 0.53734 0.15200
O 	O 	0.02115 0.92865 0.91421 -0.40600
Ni	Ni	0.01923 0.44602 0.68307 1.10200
O 	O 	0.01969 0.45228 0.73522 -0.37300
O 	O 	0.13993 0.17683 0.95689 -0.28400
O 	O 	0.13880 0.94853 0.31808 -0.41100
C 	C 	0.14429 0.94054 0.35049 0.32300
O 	O 	0.15901 0.08861 0.04066 -0.42100
C 	C 	0.16264 0.11348 0.01102 0.31000
C 	C 	0.19488 0.61277 0.00054 0.31000
O 	O 	0.14178 0.11076 0.69779 -0.39500
C 	C 	0.13911 0.07319 0.67304 0.32400
C 	C 	0.12015 0.19749 0.66191 0.31600
O 	O 	0.13528 0.95893 0.65801 -0.26800
H 	H 	0.16577 0.17425 0.93852 0.15900
H 	H 	0.15178 0.26639 0.36717 0.05500
O 	O 	0.06870 0.17470 0.26406 -0.27200
O 	O 	0.16973 0.52108 0.63548 -0.37500
O 	O 	0.15244 0.65430 0.68578 -0.41600
H 	H 	0.15579 0.97819 0.18056 0.15100
O 	O 	0.15765 0.63217 0.62904 -0.37100
H 	H 	0.16980 0.40475 0.63074 0.15200
C 	C 	0.20258 0.71115 0.98346 -0.05700
H 	H 	0.19146 0.49263 0.79483 0.14800
C 	C 	0.15183 0.44703 0.32971 -0.09500
H 	H 	0.14306 0.49279 0.39499 0.15900
O 	O 	0.16249 0.83574 0.34881 -0.29200
H 	H 	0.14891 0.81578 0.37065 0.16100
O 	O 	0.16188 0.51775 0.37532 -0.28000
C 	C 	0.17940 0.66833 0.65648 0.31700
H 	H 	0.18480 0.74830 0.60996 0.06700
O 	O 	0.18057 0.41053 0.65546 -0.29700
C 	C 	0.22606 0.67903 0.00289 -0.10900
C 	C 	0.18018 0.20870 0.98313 0.16600
C 	C 	0.19564 0.17906 0.00904 -0.11000
H 	H 	0.15106 0.38273 0.29172 0.06300
O 	O 	0.21180 0.57619 0.68464 -0.38900
C 	C 	0.20609 0.53328 0.66287 0.30600
C 	C 	0.18692 0.23674 0.66341 -0.10700
O 	O 	0.19129 0.23866 0.60218 -0.27800
H 	H 	0.18851 0.19959 0.59412 0.15500
C 	C 	0.19033 0.00911 0.65747 0.16300
C 	C 	0.19434 0.06596 0.66575 -0.10500
O 	O 	0.19604 0.80178 0.97233 -0.28900
H 	H 	0.16391 0.80068 0.98759 0.15700
C 	C 	0.17752 0.41496 0.31182 -0.05500
C 	C 	0.18599 0.48659 0.35697 0.17300
C 	C 	0.20076 0.94058 0.36354 -0.13400
C 	C 	0.03534 0.16793 0.00970 -0.08900
C 	C 	0.22425 0.77269 0.98912 0.16500
H 	H 	0.19302 0.24469 0.71840 0.04600
C 	C 	0.20396 0.27090 0.98477 -0.06500
H 	H 	0.19045 0.29294 0.96516 0.06300
C 	C 	0.21075 0.89003 0.35750 0.19200
C 	C 	0.06009 0.21495 0.03490 0.16400
O 	O 	0.08807 0.20856 0.06414 -0.28300
C 	C 	0.22841 0.72883 0.65319 -0.10400
C 	C 	0.22314 0.76572 0.62829 -0.05200
C 	C 	0.21824 0.25427 0.69527 -0.05600
C 	C 	0.22063 0.24995 0.63362 0.16800
H 	H 	0.24021 0.95932 0.64480 0.09100
C 	C 	0.23712 0.21274 0.03549 -0.06200
C 	C 	0.05511 0.26824 0.03049 -0.05300
H 	H 	0.07358 0.30345 0.05013 0.06000
C 	C 	0.25495 0.51382 0.66285 -0.09900
C 	C 	0.24049 0.45294 0.65807 0.16900
C 	C 	0.24335 0.00328 0.65045 -0.07700
C 	C 	0.27418 0.71000 0.02709 0.16500
H 	H 	0.25000 0.19056 0.05529 0.06500
C 	C 	0.23743 0.42455 0.31950 0.17300
C 	C 	0.24636 0.49658 0.36429 -0.05200
C 	C 	0.24987 0.99495 0.37405 0.01100
H 	H 	0.24210 0.03359 0.37981 0.02000
O 	O 	0.25970 0.86206 0.60390 -0.28600
H 	H 	0.26471 0.72000 0.72117 0.13600
C 	C 	0.25144 0.11639 0.66650 -0.05800
H 	H 	0.25482 0.16019 0.67246 0.07000
C 	C 	0.24659 0.30478 0.01075 -0.11000
C 	C 	0.27053 0.89624 0.35716 -0.08100
O 	O 	0.01671 0.06746 0.99069 -0.38500
C 	C 	0.01485 0.52910 0.14513 -0.06200
O 	O 	0.03546 0.36007 0.96801 -0.40300
O 	O 	0.09586 0.62077 0.02763 -0.39700
C 	C 	0.02729 0.27648 0.00083 -0.10600
O 	O 	0.29695 0.67946 0.04693 -0.28600
C 	C 	0.26635 0.82572 0.62763 0.16900
C 	C 	0.27773 0.75206 0.67728 0.17000
O 	O 	0.28521 0.71558 0.70063 -0.29000
H 	H 	0.27581 0.38825 0.65353 0.06700
C 	C 	0.27480 0.80440 0.01180 -0.10600
C 	C 	0.26180 0.27506 0.03682 0.16200
C 	C 	0.27281 0.46707 0.34494 -0.10700
O 	O 	0.26215 0.39392 0.30117 -0.30100
H 	H 	0.27336 0.52907 0.38417 0.05800
H 	H 	0.25240 0.35691 0.31369 0.14100
H 	H 	0.27819 0.85786 0.35052 0.07000
C 	C 	0.02642 0.77414 0.99868 -0.10600
C 	C 	0.03366 0.23815 0.29271 -0.06200
O 	O 	0.03822 0.57446 0.97912 -0.37400
C 	C 	0.03812 0.66641 0.00145 -0.09800
C 	C 	0.03947 0.69864 0.03145 -0.06300
C 	C 	0.03512 0.75261 0.03020 0.17100
H 	H 	0.04598 0.68277 0.05592 0.06700
C 	C 	0.02156 0.33280 0.99675 0.31000
C 	C 	0.28738 0.43519 0.65715 -0.05500
H 	H 	0.28183 0.85830 0.58393 0.15000
C 	C 	0.28155 0.37018 0.00759 0.30700
O 	O 	0.28206 0.39386 0.97787 -0.42000
C 	C 	0.28209 0.28076 0.69771 0.16800
C 	C 	0.28465 0.27720 0.63602 -0.05800
C 	C 	0.30044 0.05371 0.65160 -0.09900
C 	C 	0.29846 0.77240 0.03137 -0.06100
C 	C 	0.30974 0.00159 0.37333 0.10500
O 	O 	0.04252 0.78570 0.05975 -0.28400
C 	C 	0.01517 0.82811 0.99739 0.31400
H 	H 	0.32999 0.67725 0.03382 0.15500
C 	C 	0.30805 0.87066 0.01149 0.30100
O 	O 	0.29891 0.89879 0.98562 -0.39900
C 	C 	0.31648 0.55641 0.66692 -0.05800
C 	C 	0.30435 0.11054 0.65947 0.17200
H 	H 	0.27735 0.31062 0.08118 0.15400
C 	C 	0.32036 0.95268 0.36308 -0.05900
O 	O 	0.02442 0.85781 0.96940 -0.41200
C 	C 	0.31488 0.84910 0.65219 -0.10200
H 	H 	0.31002 0.28781 0.61293 0.05100
C 	C 	0.33902 0.48650 0.34816 0.30900
C 	C 	0.32058 0.81202 0.67674 -0.05400
H 	H 	0.32805 0.60346 0.67026 0.07600
C 	C 	0.31584 0.29197 0.66797 -0.10700
O 	O 	0.31119 0.29230 0.72923 -0.28000
H 	H 	0.31555 0.33225 0.73664 0.16600
H 	H 	0.32337 0.75899 0.94734 0.14800
O 	O 	0.30264 0.30681 0.06286 -0.27700
O 	O 	0.01994 0.52985 0.07213 -0.41400
O 	O 	0.31665 0.40341 0.03345 -0.36900
H 	H 	0.33685 0.79595 0.04919 0.07100
O 	O 	0.34695 0.90104 0.03692 -0.37300
C 	C 	0.35602 0.04632 0.64655 0.32400
H 	H 	0.35881 0.82951 0.69514 0.06300
C 	C 	0.34897 0.47785 0.66055 -0.10500
H 	H 	0.33178 0.24631 0.98119 0.06800
O 	O 	0.34435 0.49379 0.13995 -0.28600
O 	O 	0.35776 0.05660 0.38075 -0.25600
H 	H 	0.34664 0.53443 0.14011 0.15200
C 	C 	0.38190 0.96230 0.35373 0.29700
O 	O 	0.36357 0.48244 0.37743 -0.41600
O 	O 	0.36214 0.02295 0.61742 -0.39400
C 	C 	0.36236 0.91059 0.65048 0.31100
C 	C 	0.36341 0.53872 0.66586 0.17400
O 	O 	0.35947 0.16067 0.65895 -0.28400
O 	O 	0.33917 0.14544 0.98722 -0.29400
H 	H 	0.35101 0.14253 0.96359 0.15200
H 	H 	0.36271 0.95752 0.85577 0.05300
O 	O 	0.36348 0.95326 0.78904 -0.27500
H 	H 	0.36531 0.07785 0.35908 0.15100
O 	O 	0.38803 0.93619 0.32541 -0.41100
O 	O 	0.37355 0.51593 0.32332 -0.36300
Ni	Ni	0.36546 0.94324 0.95296 1.07700
H 	H 	0.38028 0.02640 0.99293 0.15800
Ni	Ni	0.35776 0.42488 0.95008 1.07000
H 	H 	0.36697 0.51624 0.98028 0.15800
O 	O 	0.37596 0.94630 0.67817 -0.36800
H 	H 	0.37599 0.16796 0.68280 0.15400
O 	O 	0.36537 0.77444 0.93891 -0.27400
H 	H 	0.38192 0.92518 0.78673 0.15200
H 	H 	0.36424 0.48687 0.20522 0.06700
H 	H 	0.38223 0.41207 0.32117 0.16400
O 	O 	0.39357 0.42330 0.63030 -0.39600
C 	C 	0.38344 0.32427 0.66991 0.31400
H 	H 	0.38122 0.67921 0.94935 0.06300
C 	C 	0.37220 0.25091 0.99554 -0.05700
O 	O 	0.40758 0.00818 0.98704 -0.71200
O 	O 	0.37750 0.35948 0.97019 -0.39200
O 	O 	0.40154 0.07053 0.66900 -0.39900
O 	O 	0.39693 0.92496 0.62369 -0.40200
C 	C 	0.39775 0.45882 0.65648 0.32500
H 	H 	0.38827 0.41679 0.85550 0.04700
C 	C 	0.38185 0.20009 0.00006 0.17200
C 	C 	0.39874 0.99661 0.84515 -0.04600
C 	C 	0.40390 0.99969 0.80975 0.19100
O 	O 	0.39408 0.49630 0.98029 -0.70200
O 	O 	0.41073 0.39166 0.79408 -0.27800
C 	C 	0.40009 0.76899 0.96532 0.16200
C 	C 	0.40356 0.49617 0.18996 -0.06500
C 	C 	0.39875 0.50099 0.15482 0.17500
H 	H 	0.42810 0.70550 0.36482 0.06800
H 	H 	0.43525 0.82223 0.34866 0.13500
O 	O 	0.41502 0.91055 0.13788 -0.28500
O 	O 	0.40467 0.31326 0.30844 -0.40200
C 	C 	0.40482 0.71524 0.96810 -0.05500
O 	O 	0.42996 0.99948 0.37286 -0.34500
Ni	Ni	0.42822 0.97585 0.02965 1.10300
Ni	Ni	0.40229 0.47237 0.02778 1.10000
O 	O 	0.41441 0.32265 0.64330 -0.41500
O 	O 	0.41149 0.35992 0.69670 -0.37200
O 	O 	0.42327 0.58130 0.66809 -0.28500
O 	O 	0.42693 0.43171 0.31832 -0.70100
O 	O 	0.40257 0.88421 0.95853 -0.37400
C 	C 	0.40758 0.36196 0.99900 0.31700
O 	O 	0.42646 0.03304 0.73500 -0.36400
Ni	Ni	0.43477 0.00725 0.60427 1.08100
H 	H 	0.43457 0.58716 0.69276 0.15200
H 	H 	0.42119 0.35855 0.79925 0.15100
H 	H 	0.42348 0.87784 0.12867 0.15800
Ni	Ni	0.45117 0.98097 0.29091 1.08000
O 	O 	0.44654 0.05743 0.30665 -0.40900
O 	O 	0.44474 0.60987 0.36573 -0.40600
C 	C 	0.42744 0.87521 0.98652 0.30000
C 	C 	0.41526 0.30766 0.00839 -0.09100
O 	O 	0.46060 0.82066 0.36836 -0.28700
H 	H 	0.00543 0.56161 0.85909 0.15600
O 	O 	0.43811 0.51760 0.26325 -0.37300
O 	O 	0.44888 0.48284 0.42909 -0.41100
Ni	Ni	0.44919 0.54330 0.39349 1.06800
C 	C 	0.43395 0.30299 0.33411 0.30600
O 	O 	0.42738 0.97988 0.91490 -0.38900
O 	O 	0.46762 0.14155 0.98592 -0.36500
C 	C 	0.44210 0.03361 0.90397 0.27000
O 	O 	0.42282 0.46878 0.07820 -0.36200
C 	C 	0.43269 0.44782 0.84688 -0.06100
C 	C 	0.43132 0.81706 0.98940 -0.09100
C 	C 	0.44156 0.04248 0.86684 -0.11300
O 	O 	0.46217 0.96513 0.07627 -0.34800
O 	O 	0.43472 0.44885 0.92134 -0.41200
O 	O 	0.43714 0.62540 0.02734 -0.40500
Ni	Ni	0.45112 0.02824 0.68567 1.09600
O 	O 	0.44720 0.48287 0.67648 -0.39300
C 	C 	0.43842 0.70734 0.99523 -0.10800
H 	H 	0.45230 0.91450 0.20151 0.05000
Ni	Ni	0.44563 0.38846 0.28207 1.07600
O 	O 	0.45110 0.33861 0.36179 -0.37600
C 	C 	0.44280 0.65001 0.99784 0.30800
O 	O 	0.43745 0.41296 0.01659 -0.37700
C 	C 	0.45004 0.43930 0.81447 0.17100
C 	C 	0.43481 0.20510 0.01775 -0.10200
C 	C 	0.45116 0.04970 0.79571 -0.12700
C 	C 	0.44995 0.25252 0.33149 -0.10500
H 	H 	0.45983 0.24717 0.38594 0.07300
Ni	Ni	0.45886 0.52200 0.31433 1.10300
O 	O 	0.46534 0.08005 0.92542 -0.35900
O 	O 	0.44920 0.56800 0.08666 -0.40700
C 	C 	0.44471 0.51722 0.09814 0.29600
Ni	Ni	0.45791 0.39628 0.61593 1.07200
C 	C 	0.44898 0.51123 0.13478 -0.10800
C 	C 	0.47311 0.73273 0.35543 -0.06000
C 	C 	0.46355 0.22967 0.36113 -0.06300
O 	O 	0.44448 0.25205 0.26995 -0.30000
C 	C 	0.45235 0.15529 0.01556 0.31000
O 	O 	0.45845 0.12990 0.04333 -0.41100
C 	C 	0.46987 0.95233 0.15192 0.20100
Ni	Ni	0.46862 0.42747 0.36203 1.10000
C 	C 	0.46187 0.49347 0.24191 0.29100
O 	O 	0.46083 0.92076 0.00757 -0.38300
O 	O 	0.45782 0.62719 0.97110 -0.36500
C 	C 	0.45665 0.49794 0.90404 0.28700
C 	C 	0.46772 0.04720 0.76018 0.29200
H 	H 	0.47204 0.35358 0.46879 0.14500
C 	C 	0.45853 0.50209 0.20531 -0.10600
C 	C 	0.45587 0.22962 0.29937 0.17000
C 	C 	0.00547 0.00046 0.46375 -0.16200
O 	O 	0.01164 0.10785 0.35059 -0.39700
C 	C 	0.46439 0.80862 0.01686 -0.06800
O 	O 	0.48917 0.06229 0.09279 -0.40600
O 	O 	0.47831 0.08729 0.57990 -0.40200
C 	C 	0.46843 0.75444 0.01970 0.17400
C 	C 	0.46686 0.31215 0.02777 0.16900
C 	C 	0.47215 0.18272 0.29735 -0.05800
C 	C 	0.48449 0.64016 0.34266 0.29700
C 	C 	0.48951 0.01057 0.09843 0.27800
C 	C 	0.48199 0.18416 0.35893 0.16800
C 	C 	0.48452 0.94960 0.18641 -0.08900
H 	H 	0.49553 0.93061 0.32610 0.15800
Ni	Ni	0.49131 0.07321 0.97478 1.09800
O 	O 	0.47104 0.54978 0.91959 -0.36500
O 	O 	0.47992 0.46009 0.74325 -0.36200
C 	C 	0.47286 0.49508 0.86853 -0.10200
C 	C 	0.47640 0.26099 0.03222 -0.05300
C 	C 	0.48662 0.09413 0.85258 0.16400
C 	C 	0.49543 0.79489 0.35570 0.16500
C 	C 	0.48421 0.15908 0.32693 -0.11300
H 	H 	0.47434 0.16392 0.27263 0.06200
C 	C 	0.00677 0.99398 0.42661 0.34700
C 	C 	0.48900 0.10267 0.32443 0.33000
O 	O 	0.49105 0.51679 0.36060 -0.70200
O 	O 	0.49072 0.61217 0.31529 -0.37200
Ni	Ni	0.48173 0.55687 0.97167 1.10200
C 	C 	0.49034 0.09790 0.81720 -0.05400
O 	O 	0.49595 0.98603 0.54611 -0.33200
O 	O 	0.49391 0.16159 0.38815 -0.27200
O 	O 	0.49036 0.46323 0.25333 -0.40000
C 	C 	0.49524 0.46993 0.43363 0.29000
O 	O 	0.48786 0.53975 0.02077 -0.70200
O 	O 	0.49433 0.03380 0.64250 -0.70000
Ni	Ni	0.49242 0.43692 0.69505 1.10000
H 	H 	0.48721 0.84401 0.03604 0.07300
O 	O 	0.49719 0.47193 0.58739 -0.41500
H 	H 	0.48501 0.28247 0.26311 0.14300
C 	C 	0.50926 0.00037 0.13269 -0.13100
O 	O 	0.51168 0.97333 0.32088 -0.69000
O 	O 	0.50963 0.04768 0.01994 -0.70600
H 	H 	0.50681 0.14275 0.69217 0.15800
C 	C 	0.50835 0.70572 0.34270 -0.10500
O 	O 	0.50757 0.43934 0.40999 -0.35000
O 	O 	0.50144 0.74761 0.04655 -0.30500
C 	C 	0.50413 0.51787 0.15006 -0.06200
O 	O 	0.51528 0.02667 0.25535 -0.40500
Ni	Ni	0.50694 0.61246 0.04801 1.07200
H 	H 	0.51343 0.00625 0.64376 0.15500
C 	C 	0.50734 0.47968 0.80280 -0.10500
H 	H 	0.49680 0.36995 0.06406 0.15700
Ni	Ni	0.51969 0.01946 0.36438 1.09600
O 	O 	0.51640 0.37906 0.46624 -0.26900
C 	C 	0.50936 0.51403 0.18526 0.16600
O 	O 	0.50970 0.36656 0.04075 -0.27900
H 	H 	0.52291 0.97253 0.48336 0.08500
O 	O 	0.52249 0.11250 0.69039 -0.69900
O 	O 	0.52339 0.05539 0.75398 -0.41300
H 	H 	0.51755 0.26544 0.04571 0.05700
H 	H 	0.52617 0.13705 0.80650 0.03200
C 	C 	0.52769 0.03184 0.52505 0.16400
H 	H 	0.52755 0.97860 0.55860 0.14500
H 	H 	0.52001 0.52635 0.02444 0.16400
C 	C 	0.52301 0.47494 0.76738 0.29000
O 	O 	0.52790 0.14039 0.87307 -0.27200
C 	C 	0.52475 0.47910 0.46757 -0.10400
Ni	Ni	0.53329 0.11542 0.05239 1.06600
O 	O 	0.52487 0.42608 0.65056 -0.70000
C 	C 	0.52939 0.43158 0.48388 0.17000
O 	O 	0.53233 0.09694 0.34198 -0.39600
H 	H 	0.52967 0.58792 0.54534 0.15100
C 	C 	0.53515 0.10552 0.57098 0.29600
O 	O 	0.52939 0.39089 0.29446 -0.39400
C 	C 	0.53092 0.53463 0.85728 0.16600
C 	C 	0.53851 0.99417 0.20192 -0.04800
C 	C 	0.00848 0.17684 0.97965 -0.05900
H 	H 	0.53580 0.54226 0.36268 0.16500
C 	C 	0.53939 0.01877 0.49202 -0.08300
H 	H 	0.53827 0.18603 0.39342 0.15100
H 	H 	0.54008 0.57100 0.47282 0.03800
C 	C 	0.00394 0.23048 0.97528 0.17300
C 	C 	0.54437 0.00081 0.23942 0.24000
H 	H 	0.54318 0.03593 0.01804 0.15600
C 	C 	0.54143 0.53352 0.48554 -0.06200
O 	O 	0.54588 0.06472 0.41052 -0.36400
H 	H 	0.54107 0.39639 0.65314 0.16200
C 	C 	0.54538 0.43719 0.51858 -0.06200
H 	H 	0.54314 0.52652 0.13466 0.04800
H 	H 	0.54408 0.76374 0.03898 0.14800
H 	H 	0.54598 0.39952 0.53145 0.04600
C 	C 	0.54725 0.09165 0.53624 -0.11500
C 	C 	0.54769 0.52707 0.82438 -0.06000
C 	C 	0.55044 0.48696 0.57406 0.29600
C 	C 	0.55365 0.83068 0.34345 -0.10700
O 	O 	0.55260 0.45053 0.34278 -0.38800
C 	C 	0.55593 0.53848 0.52038 0.17400
C 	C 	0.55503 0.48918 0.53726 -0.10800
H 	H 	0.00143 0.76920 0.06953 0.16400
Ni	Ni	0.56101 0.12017 0.64545 1.10100
H 	H 	0.55968 0.55060 0.69424 0.16000
H 	H 	0.56321 0.13135 0.87672 0.14700
C 	C 	0.56520 0.04262 0.14765 -0.04300
C 	C 	0.56409 0.41538 0.32208 0.32200
O 	O 	0.56394 0.52150 0.20001 -0.27800
C 	C 	0.56640 0.74164 0.33008 0.16600
O 	O 	0.56660 0.67099 0.01544 -0.41000
O 	O 	0.56956 0.59108 0.53810 -0.28700
O 	O 	0.56937 0.51618 0.69235 -0.70300
C 	C 	0.57055 0.06504 0.46988 -0.09100
O 	O 	0.57005 0.61801 0.96788 -0.36900
O 	O 	0.57121 0.58064 0.87829 -0.27400
H 	H 	0.00144 0.23056 0.27157 0.06200
C 	C 	0.57601 0.05040 0.43399 0.29000
O 	O 	0.57553 0.47407 0.76106 -0.41100
C 	C 	0.57850 0.89604 0.34486 0.30400
O 	O 	0.57733 0.13763 0.96730 -0.37200
O 	O 	0.57952 0.12383 0.59452 -0.37000
C 	C 	0.58008 0.13804 0.51454 -0.04900
C 	C 	0.58007 0.03942 0.18203 0.13100
H 	H 	0.57990 0.33126 0.37598 0.15000
O 	O 	0.58068 0.98375 0.25675 -0.34200
O 	O 	0.58115 0.92393 0.37397 -0.39600
Ni	Ni	0.58236 0.12845 0.72766 1.07300
O 	O 	0.58382 0.18121 0.02016 -0.40900
O 	O 	0.99853 0.07666 0.68753 -0.70500
O 	O 	0.99892 0.41839 0.40095 -0.36900
C 	C 	0.99802 0.46103 0.45659 -0.11200
O 	O 	0.98962 0.84144 0.02321 -0.36500
C 	C 	0.99774 0.30706 0.32001 0.30500
H 	H 	0.99332 0.56775 0.43950 0.12700
H 	H 	0.99496 0.51528 0.35442 0.15700
C 	C 	0.99182 0.51032 0.47055 0.16900
O 	O 	0.99464 0.49014 0.57603 -0.40800
O 	O 	0.96146 0.53594 0.45243 -0.32500
C 	C 	0.99608 0.01662 0.53384 -0.11500
H 	H 	0.99026 0.14201 0.95981 0.07300
O 	O 	0.97651 0.23769 0.94603 -0.30200
O 	O 	0.96876 0.75628 0.40189 -0.27700
C 	C 	0.98734 0.02566 0.56994 0.29500
C 	C 	0.96883 0.43405 0.42308 0.29300
H 	H 	0.93882 0.64270 0.39016 0.04500
O 	O 	0.98830 0.33011 0.34861 -0.37300
C 	C 	0.97567 0.81912 0.34134 0.29400
C 	C 	0.94372 0.72508 0.37180 0.17300
C 	C 	0.93057 0.66472 0.36857 -0.06100
H 	H 	0.93348 0.75357 0.41492 0.15500
H 	H 	0.95862 0.87519 0.46895 0.16000
C 	C 	0.96250 0.96014 0.51776 -0.05400
C 	C 	0.96761 0.95173 0.48290 0.20000
O 	O 	0.96712 0.85635 0.36231 -0.37000
H 	H 	0.97363 0.09885 0.68692 0.16000
H 	H 	0.93204 0.92284 0.53224 0.04200
O 	O 	0.93304 0.89674 0.46728 -0.29100
O 	O 	0.99803 0.05046 0.30232 -0.36400
O 	O 	0.99940 0.03248 0.40721 -0.43900
H 	H 	0.98096 0.93898 0.30137 0.16400
C 	C 	0.97521 0.06917 0.32724 0.29600
Ni	Ni	0.92610 0.47669 0.30181 1.10100
O 	O 	0.93382 0.39859 0.30357 -0.69700
Ni	Ni	0.97071 0.40358 0.35048 1.09800
O 	O 	0.91576 0.47515 0.24955 -0.36100
O 	O 	0.83277 0.42621 0.30221 -0.36300
Ni	Ni	0.98204 0.38365 0.26904 1.07100
O 	O 	0.86833 0.53318 0.35558 -0.40700
O 	O 	0.95609 0.47862 0.35006 -0.69500
O 	O 	0.91650 0.55378 0.30478 -0.37300
O 	O 	0.91239 0.42489 0.41556 -0.39600
Ni	Ni	0.89500 0.47851 0.38150 1.07500
H 	H 	0.89255 0.36429 0.30263 0.15600
O 	O 	0.82325 0.40736 0.35863 -0.41000
C 	C 	0.95671 0.47069 0.23028 0.29200
C 	C 	0.80006 0.41418 0.32945 0.30900
C 	C 	0.90196 0.57205 0.33347 0.29500
O 	O 	0.96830 0.30692 0.29140 -0.42400
O 	O 	0.60908 0.04435 0.35447 -0.70800
Ni	Ni	0.60115 0.00737 0.30797 1.09500
O 	O 	0.59563 0.00984 0.42715 -0.40900
Ni	Ni	0.64653 0.00924 0.38502 1.06600
O 	O 	0.69243 0.04027 0.30043 -0.37700
H 	H 	0.63361 0.08832 0.35430 0.16700
C 	C 	0.72832 0.03537 0.32480 0.29300
O 	O 	0.60021 0.92608 0.31728 -0.36600
O 	O 	0.70410 0.00024 0.35071 -0.40800
O 	O 	0.96814 0.93974 0.97936 -0.69800
Ni	Ni	0.96401 0.91003 0.02671 1.10100
Ni	Ni	0.95690 0.87406 0.94753 1.06700
O 	O 	0.87589 0.84659 0.02294 -0.37400
O 	O 	0.96521 0.89898 0.07835 -0.36700
O 	O 	0.99737 0.99812 0.08736 -0.40600
H 	H 	0.93608 0.95311 0.97524 0.16300
C 	C 	0.85415 0.81468 0.99436 0.30200
C 	C 	0.98072 0.94514 0.09940 0.30400
O 	O 	0.89138 0.80672 0.97325 -0.41200
O 	O 	0.98854 0.44934 0.97015 -0.70200
Ni	Ni	0.98048 0.42645 0.01881 1.10100
Ni	Ni	0.97373 0.37915 0.94183 1.07200
O 	O 	0.89018 0.36775 0.01527 -0.37000
O 	O 	0.97746 0.42822 0.07098 -0.37400
H 	H 	0.95839 0.46429 0.96397 0.16400
C 	C 	0.86698 0.33152 0.98815 0.29500
C 	C 	0.99120 0.47920 0.08752 0.29000
O 	O 	0.99973 0.35337 0.02148 -0.37100
O 	O 	0.90299 0.31843 0.96843 -0.40900
C 	C 	0.61059 0.17265 0.99314 0.29900
C 	C 	0.59830 0.65703 0.99315 0.30000
Ni	Ni	0.94546 0.98828 0.69552 1.11000
O 	O 	0.94896 0.99866 0.74753 -0.35400
O 	O 	0.86767 0.00097 0.69393 -0.38100
O 	O 	0.83209 0.90173 0.65226 -0.39800
O 	O 	0.96406 0.98619 0.64651 -0.69100
O 	O 	0.89034 0.89959 0.69850 -0.36600
O 	O 	0.93265 0.01680 0.57944 -0.40900
Ni	Ni	0.88873 0.96253 0.61939 1.07500
H 	H 	0.98116 0.95748 0.64242 0.16400
O 	O 	0.87313 0.03016 0.63904 -0.40800
C 	C 	0.85307 0.02855 0.66978 0.30100
C 	C 	0.84992 0.87147 0.67347 0.29600
O 	O 	0.94633 0.46563 0.68071 -0.38600
O 	O 	0.94691 0.33593 0.62717 -0.40300
O 	O 	0.96086 0.35646 0.68454 -0.38000
Ni	Ni	0.96998 0.41463 0.60446 1.08200
O 	O 	0.90436 0.43214 0.62687 -0.38200
C 	C 	0.89850 0.44179 0.65943 0.31500
C 	C 	0.92524 0.32710 0.65785 0.30700
O 	O 	0.62069 0.07614 0.70973 -0.39500
O 	O 	0.62898 0.20425 0.65313 -0.38600
C 	C 	0.65059 0.08534 0.68158 0.30700
C 	C 	0.66739 0.21593 0.67957 0.31000
O 	O 	0.62454 0.08797 0.65240 -0.38500
O 	O 	0.64727 0.20769 0.71085 -0.40200
Ni	Ni	0.59479 0.50962 0.64529 1.10400
Ni	Ni	0.63515 0.52772 0.72504 1.06600
O 	O 	0.64725 0.45686 0.70661 -0.41100
O 	O 	0.66510 0.59316 0.64472 -0.36900
O 	O 	0.59925 0.50052 0.59370 -0.36600
C 	C 	0.67622 0.46117 0.67841 0.31600
C 	C 	0.69863 0.61839 0.67272 0.29500
O 	O 	0.65756 0.47584 0.65000 -0.36900
O 	O 	0.70508 0.58522 0.69688 -0.41000
C 	C 	0.73374 0.24379 0.67429 -0.10500
C 	C 	0.75511 0.26577 0.64233 -0.06300
C 	C 	0.81681 0.28704 0.63561 0.17600
C 	C 	0.85913 0.29093 0.66184 -0.11900
C 	C 	0.83770 0.26668 0.69335 -0.05800
C 	C 	0.77539 0.24303 0.69971 0.16300
H 	H 	0.72365 0.26570 0.62238 0.07800
O 	O 	0.83601 0.30623 0.60372 -0.31200
H 	H 	0.86950 0.26704 0.71318 0.06500
O 	O 	0.75511 0.21716 0.73018 -0.29500
H 	H 	0.75875 0.25038 0.74580 0.14800
H 	H 	0.83276 0.27030 0.59085 0.15400
C 	C 	0.73613 0.46010 0.67931 -0.10500
C 	C 	0.78547 0.50616 0.66405 -0.05900
C 	C 	0.83890 0.50069 0.65804 0.17700
C 	C 	0.84435 0.44971 0.66831 -0.10100
C 	C 	0.79730 0.40598 0.68622 -0.05600
C 	C 	0.74271 0.41046 0.69128 0.16700
H 	H 	0.78145 0.54533 0.65563 0.08100
O 	O 	0.88622 0.54568 0.64251 -0.28800
H 	H 	0.80275 0.36844 0.69595 0.06000
O 	O 	0.69500 0.36495 0.70619 -0.28200
H 	H 	0.70135 0.37528 0.73092 0.14700
H 	H 	0.87804 0.53577 0.61777 0.15900
C 	C 	0.81402 0.80650 0.67412 -0.10500
C 	C 	0.81003 0.77124 0.64514 -0.06300
C 	C 	0.77356 0.70942 0.64470 0.17300
C 	C 	0.74037 0.68254 0.67344 -0.10600
C 	C 	0.74564 0.71769 0.70274 -0.06300
C 	C 	0.78242 0.77947 0.70322 0.17400
H 	H 	0.83526 0.79182 0.62291 0.04100
O 	O 	0.77254 0.67509 0.61678 -0.27700
H 	H 	0.72020 0.69723 0.72493 0.04000
O 	O 	0.78485 0.81372 0.73147 -0.28000
H 	H 	0.81879 0.81454 0.74621 0.16000
H 	H 	0.74032 0.67540 0.60102 0.16100
C 	C 	0.80466 0.04727 0.67555 -0.10100
C 	C 	0.75629 0.01351 0.69633 -0.07800
C 	C 	0.70607 0.02591 0.69871 0.15800
C 	C 	0.70444 0.07342 0.68074 -0.10000
C 	C 	0.75332 0.10785 0.66046 -0.05700
C 	C 	0.80399 0.09598 0.65850 0.16400
H 	H 	0.75642 0.97602 0.70962 0.09300
O 	O 	0.65810 0.99074 0.71804 -0.25900
H 	H 	0.75189 0.14363 0.64601 0.06600
O 	O 	0.85227 0.13135 0.63943 -0.28100
H 	H 	0.88014 0.16425 0.65524 0.14500
H 	H 	0.62998 0.95766 0.70240 0.14900
H 	H 	0.59182 0.55837 0.81558 0.04300
H 	H 	0.59565 0.56397 0.89072 0.14500
C 	C 	0.80060 0.29187 0.98618 -0.10400
C 	C 	0.77897 0.23066 0.97790 -0.06000
C 	C 	0.71643 0.19187 0.97863 0.16300
C 	C 	0.67503 0.21402 0.98812 -0.10700
C 	C 	0.69623 0.27550 0.99498 -0.05700
C 	C 	0.75870 0.31441 0.99410 0.16700
H 	H 	0.81079 0.21282 0.97181 0.06300
O 	O 	0.69636 0.13180 0.97203 -0.30200
H 	H 	0.66432 0.29308 0.00140 0.07000
O 	O 	0.77850 0.37463 0.99996 -0.29200
H 	H 	0.78500 0.38109 0.02500 0.16000
H 	H 	0.68725 0.12590 0.94714 0.14900
H 	H 	0.99874 0.51043 0.78968 0.05800
O 	O 	0.98462 0.51754 0.85531 -0.29800
C 	C 	0.78860 0.77505 0.99087 -0.11100
C 	C 	0.76801 0.71347 0.98484 -0.05600
C 	C 	0.70552 0.67471 0.98448 0.16600
C 	C 	0.66328 0.69757 0.99045 -0.10600
C 	C 	0.68375 0.75942 0.99501 -0.05800
C 	C 	0.74618 0.79810 0.99546 0.16800
H 	H 	0.80057 0.69548 0.98136 0.06800
O 	O 	0.68606 0.61424 0.98020 -0.29400
H 	H 	0.65124 0.77746 0.99852 0.06700
O 	O 	0.76565 0.85863 0.99942 -0.29800
H 	H 	0.77046 0.86711 0.02434 0.15500
H 	H 	0.67961 0.60594 0.95528 0.15300
H 	H 	0.93243 0.22149 0.95079 0.14500
C 	C 	0.97193 0.94848 0.84989 -0.07700
C 	C 	0.96524 0.95753 0.81538 0.19600
H 	H 	0.94188 0.90614 0.86047 0.04200
O 	O 	0.92263 0.91178 0.79513 -0.28800
H 	H 	0.88441 0.91629 0.79661 0.15900
H 	H 	0.58691 0.56495 0.20569 0.14700
C 	C 	0.59107 0.12495 0.48128 0.16300
H 	H 	0.59641 0.18422 0.52327 0.06200
O 	O 	0.62334 0.17074 0.46033 -0.29100
H 	H 	0.59230 0.18030 0.44888 0.15700
C 	C 	0.58869 0.80384 0.33046 -0.05700
H 	H 	0.63378 0.83131 0.32122 0.06800
O 	O 	0.60264 0.71631 0.31899 -0.29200
H 	H 	0.59422 0.70990 0.29406 0.15600
H 	H 	0.59631 0.07918 0.13295 0.03500
O 	O 	0.63328 0.08301 0.19668 -0.28000
H 	H 	0.66413 0.06774 0.19395 0.14700
C 	C 	0.62454 0.41602 0.32464 -0.10300
C 	C 	0.66388 0.43706 0.29770 -0.05600
C 	C 	0.72109 0.43716 0.29918 0.17300
C 	C 	0.73878 0.41344 0.32749 -0.10200
C 	C 	0.69910 0.39235 0.35460 -0.06000
C 	C 	0.64231 0.39391 0.35332 0.16700
H 	H 	0.65051 0.45448 0.27567 0.07100
O 	O 	0.75964 0.46057 0.27293 -0.27200
H 	H 	0.71214 0.37484 0.37667 0.06500
O 	O 	0.60486 0.37483 0.38035 -0.27200
H 	H 	0.78349 0.50377 0.27903 0.17100
C 	C 	0.97662 0.48028 0.12368 -0.10800
C 	C 	0.95594 0.48005 0.19365 -0.10600
C 	C 	0.91459 0.43367 0.17188 -0.06500
C 	C 	0.92492 0.43329 0.13701 0.16900
H 	H 	0.87618 0.39630 0.18224 0.05300
O 	O 	0.88360 0.38804 0.11597 -0.28000
H 	H 	0.89652 0.35564 0.11678 0.15300
C 	C 	0.90996 0.63368 0.33711 -0.10800
C 	C 	0.93725 0.75493 0.34325 -0.10200
C 	C 	0.90915 0.72197 0.31314 -0.06600
C 	C 	0.89627 0.66165 0.30976 0.17500
H 	H 	0.90183 0.74432 0.29143 0.04500
O 	O 	0.86929 0.62996 0.28006 -0.28400
H 	H 	0.90355 0.63691 0.26498 0.15900
C 	C 	0.79177 0.04964 0.31724 -0.09700
C 	C 	0.80520 0.00358 0.30550 -0.07300
C 	C 	0.86502 0.00981 0.30841 0.15500
C 	C 	0.91255 0.06342 0.32214 -0.09700
C 	C 	0.89975 0.11124 0.33143 -0.05700
C 	C 	0.83965 0.10450 0.32891 0.16000
H 	H 	0.76852 0.96136 0.29616 0.08400
O 	O 	0.87666 0.96304 0.29846 -0.27500
H 	H 	0.93612 0.15327 0.34117 0.07100
O 	O 	0.82734 0.15035 0.33986 -0.30300
H 	H 	0.83119 0.17447 0.31957 0.14800
H 	H 	0.87099 0.93895 0.31894 0.13300
C 	C 	0.99298 0.94035 0.13547 -0.11700
C 	C 	0.98998 0.97450 0.19330 -0.06500
C 	C 	0.96507 0.96055 0.16006 0.17300
H 	H 	0.96823 0.99013 0.21209 0.07700
O 	O 	0.91357 0.96702 0.15152 -0.26900
H 	H 	0.92863 0.00918 0.14491 0.14000
