data_crystal

_cell_length_a 27.12933
_cell_length_b 25.45636
_cell_length_c 43.31409
_cell_angle_alpha 89.92147
_cell_angle_beta  89.85571
_cell_angle_gamma 90.81777

_symmetry_space_group_name_	'P 1'
_symmetry_space_group_name_H-M	'P 1'

loop_
_symmetry_equiv_pos_as_xyz
  x,y,z

loop_
_atom_site_label
_atom_site_type_symbol
_atom_site_fract_x
_atom_site_fract_y
_atom_site_fract_z
_atom_site_charge
Zn	Zn	0.50075 0.56574 0.93303 1.22000
C 	C 	0.55206 0.47290 0.91617 0.30700
O 	O 	0.53999 0.62513 0.91803 -0.47500
O 	O 	0.53076 0.47744 0.88898 -0.44000
O 	O 	0.57812 0.58220 0.87932 -0.48500
C 	C 	0.42240 0.52617 0.89715 0.32000
O 	O 	0.45003 0.51721 0.92104 -0.46800
O 	O 	0.44246 0.54542 0.87186 -0.48600
C 	C 	0.57903 0.61809 0.90098 0.31000
O 	O 	0.43807 0.62509 0.94266 -0.33500
Zn	Zn	0.51538 0.54799 0.86764 1.16700
O 	O 	0.55150 0.51214 0.93604 -0.43800
C 	C 	0.44765 0.61811 0.97163 0.27100
O 	O 	0.48352 0.58643 0.97746 -0.37900
Zn	Zn	0.22129 0.37617 0.97020 1.22300
C 	C 	0.27204 0.30522 0.92910 0.32500
O 	O 	0.21716 0.43640 0.94193 -0.46300
O 	O 	0.22787 0.28890 0.92055 -0.44400
O 	O 	0.22001 0.39551 0.89564 -0.47600
C 	C 	0.14072 0.30288 0.96949 0.31700
O 	O 	0.18440 0.31312 0.98102 -0.44800
O 	O 	0.12692 0.32539 0.94367 -0.48800
C 	C 	0.23562 0.43302 0.91398 0.32100
O 	O 	0.17563 0.42035 0.00873 -0.32200
Zn	Zn	0.17352 0.34201 0.91024 1.17700
O 	O 	0.27673 0.34092 0.95084 -0.44200
C 	C 	0.21791 0.42636 0.02239 0.28600
O 	O 	0.25510 0.40660 0.00797 -0.38500
C 	C 	0.55505 0.19939 0.40174 0.14300
C 	C 	0.51905 0.23582 0.39321 -0.10300
H 	H 	0.51459 0.27146 0.40653 0.07800
C 	C 	0.49041 0.22720 0.36673 0.06800
C 	C 	0.49597 0.18085 0.34972 -0.08700
C 	C 	0.53018 0.14309 0.35888 0.06600
C 	C 	0.55994 0.15270 0.38481 -0.10400
H 	H 	0.58708 0.12422 0.39174 0.07200
N 	N 	0.58752 0.21020 0.42743 -0.17700
C 	C 	0.58912 0.17539 0.45169 0.18900
C 	C 	0.62407 0.18224 0.47533 -0.05900
C 	C 	0.65407 0.22762 0.47550 0.03100
C 	C 	0.65069 0.26415 0.45132 -0.06000
C 	C 	0.61775 0.25408 0.42685 0.19000
C 	C 	0.62897 0.14472 0.49899 -0.01200
C 	C 	0.66227 0.15339 0.52310 -0.01100
C 	C 	0.69036 0.20026 0.52431 -0.05800
C 	C 	0.68638 0.23728 0.50041 0.02900
C 	C 	0.71324 0.28477 0.50196 -0.05700
C 	C 	0.67986 0.31038 0.45209 -0.01200
C 	C 	0.71059 0.32082 0.47735 -0.01300
C 	C 	0.72063 0.21190 0.54979 0.19100
N 	N 	0.74275 0.26052 0.55242 -0.17800
C 	C 	0.74079 0.29629 0.52872 0.19100
C 	C 	0.76243 0.27645 0.58180 0.14400
C 	C 	0.73212 0.30285 0.60276 -0.11000
C 	C 	0.74639 0.30847 0.63368 0.06400
C 	C 	0.79324 0.29210 0.64284 -0.09300
C 	C 	0.82405 0.26612 0.62195 0.06400
C 	C 	0.80866 0.25850 0.59135 -0.10900
O 	O 	0.61615 0.28671 0.40323 -0.19500
O 	O 	0.55708 0.13602 0.45317 -0.19800
O 	O 	0.72576 0.17693 0.57200 -0.19900
O 	O 	0.76212 0.34281 0.53185 -0.18800
H 	H 	0.83095 0.23580 0.57563 0.07600
H 	H 	0.69585 0.31523 0.59554 0.07400
H 	H 	0.67846 0.33855 0.43336 0.05200
H 	H 	0.73229 0.35686 0.47765 0.06000
H 	H 	0.60705 0.10881 0.49880 0.05300
H 	H 	0.66530 0.12411 0.54115 0.05300
H 	H 	0.80403 0.29550 0.66686 0.06600
H 	H 	0.47541 0.17544 0.32850 0.06300
Zn	Zn	0.80253 0.81192 0.96494 1.22400
C 	C 	0.73270 0.80996 0.01644 0.33000
O 	O 	0.86488 0.79536 0.98507 -0.47300
O 	O 	0.73071 0.75860 0.01349 -0.45400
O 	O 	0.83599 0.76370 0.03023 -0.47700
C 	C 	0.74874 0.72079 0.94597 0.31400
O 	O 	0.74931 0.77236 0.94580 -0.44700
O 	O 	0.77990 0.69517 0.96346 -0.49800
C 	C 	0.86647 0.79485 0.01524 0.30400
O 	O 	0.84266 0.81437 0.91626 -0.32000
Zn	Zn	0.79349 0.71601 0.00633 1.17100
O 	O 	0.76564 0.83782 0.00091 -0.44400
C 	C 	0.83833 0.86496 0.91858 0.28500
O 	O 	0.81679 0.88135 0.94333 -0.38800
Zn	Zn	0.19714 0.69024 0.02744 1.22200
C 	C 	0.16186 0.65871 0.08724 0.32500
O 	O 	0.17869 0.76341 0.02088 -0.46400
O 	O 	0.20266 0.67941 0.09859 -0.44300
O 	O 	0.17248 0.78258 0.07193 -0.49300
C 	C 	0.29344 0.67543 0.04988 0.31800
O 	O 	0.25148 0.65136 0.04444 -0.46100
O 	O 	0.29344 0.72157 0.06328 -0.49800
C 	C 	0.16208 0.79320 0.04306 0.30900
O 	O 	0.24240 0.69487 0.98100 -0.33300
Zn	Zn	0.23394 0.74874 0.08277 1.17100
O 	O 	0.14834 0.66903 0.05872 -0.43600
C 	C 	0.20666 0.66706 0.96936 0.28500
O 	O 	0.17154 0.65416 0.98840 -0.38100
C 	C 	0.85388 0.26381 0.44915 0.14400
C 	C 	0.80667 0.25333 0.43723 -0.10800
H 	H 	0.77771 0.23864 0.45232 0.07600
C 	C 	0.79733 0.26146 0.40569 0.06400
C 	C 	0.83565 0.27901 0.38622 -0.09400
C 	C 	0.88237 0.29032 0.39823 0.06600
C 	C 	0.89157 0.28245 0.42961 -0.11200
H 	H 	0.92782 0.29103 0.43896 0.07400
N 	N 	0.86398 0.25566 0.48131 -0.17900
C 	C 	0.88021 0.20753 0.49087 0.19100
C 	C 	0.90901 0.20354 0.51773 -0.05900
C 	C 	0.91710 0.24857 0.53583 0.02800
C 	C 	0.89322 0.29547 0.52834 -0.05700
C 	C 	0.86639 0.29829 0.50062 0.19200
C 	C 	0.93275 0.15652 0.52547 -0.01300
C 	C 	0.96710 0.15569 0.54953 -0.01000
C 	C 	0.97774 0.20174 0.56638 -0.06300
C 	C 	0.95105 0.24748 0.56039 0.03200
C 	C 	0.96001 0.29289 0.57795 -0.06000
C 	C 	0.89936 0.33967 0.54750 -0.01100
C 	C 	0.93243 0.33834 0.57222 -0.01300
C 	C 	0.01608 0.20346 0.58823 0.19600
N 	N 	0.02639 0.24912 0.60398 -0.17600
C 	C 	0.99745 0.29259 0.60037 0.18300
C 	C 	0.06825 0.25168 0.62442 0.14500
C 	C 	0.06843 0.22149 0.65154 -0.11200
C 	C 	0.10588 0.22875 0.67348 0.06900
C 	C 	0.14364 0.26565 0.66786 -0.09400
C 	C 	0.14195 0.29834 0.64179 0.06600
C 	C 	0.10623 0.28873 0.61907 -0.11000
O 	O 	0.84756 0.34332 0.49181 -0.18900
O 	O 	0.87197 0.16570 0.47364 -0.19700
O 	O 	0.04342 0.16173 0.59267 -0.19200
O 	O 	0.00485 0.33422 0.61793 -0.20000
H 	H 	0.10521 0.31330 0.59863 0.07700
H 	H 	0.03808 0.19460 0.65628 0.09000
H 	H 	0.87937 0.37539 0.54297 0.05900
H 	H 	0.93738 0.37306 0.58636 0.05100
H 	H 	0.92588 0.12101 0.51233 0.05300
H 	H 	0.98599 0.11949 0.55459 0.05300
H 	H 	0.17098 0.27331 0.68559 0.06900
H 	H 	0.82905 0.28404 0.36171 0.06400
Zn	Zn	0.66983 0.19805 0.98269 1.22400
C 	C 	0.74194 0.24900 0.94242 0.32400
O 	O 	0.63546 0.26398 0.97581 -0.43800
O 	O 	0.70588 0.25543 0.92246 -0.45100
O 	O 	0.59839 0.23100 0.93303 -0.49700
C 	C 	0.70329 0.11649 0.94340 0.31400
O 	O 	0.67232 0.12696 0.96585 -0.46800
O 	O 	0.69617 0.13766 0.91625 -0.48200
C 	C 	0.60572 0.26995 0.95235 0.31700
O 	O 	0.60705 0.16862 0.01708 -0.32100
Zn	Zn	0.65351 0.19778 0.91224 1.17500
O 	O 	0.73454 0.22196 0.96799 -0.44400
C 	C 	0.63915 0.17894 0.03852 0.28500
O 	O 	0.68137 0.19696 0.02896 -0.38900
Zn	Zn	0.97333 0.04054 0.00727 1.22100
C 	C 	0.06017 0.97831 0.01776 0.31600
O 	O 	0.93494 0.02244 0.04390 -0.48900
O 	O 	0.07552 0.01951 0.03333 -0.45800
O 	O 	0.99279 0.98674 0.07349 -0.47900
C 	C 	0.03466 0.12930 0.01665 0.31500
O 	O 	0.02303 0.09210 0.99701 -0.44700
O 	O 	0.02722 0.12223 0.04648 -0.49100
C 	C 	0.94971 0.98269 0.06016 0.31600
O 	O 	0.91629 0.10585 0.99667 -0.32400
Zn	Zn	0.03125 0.05226 0.06631 1.16800
O 	O 	0.01640 0.97844 0.00465 -0.42900
C 	C 	0.89852 0.07402 0.97606 0.28200
O 	O 	0.92206 0.03042 0.97295 -0.38800
C 	C 	0.77653 0.04403 0.95149 -0.00200
H 	H 	0.75662 0.00698 0.94563 0.04100
C 	C 	0.80112 0.05659 0.98306 -0.01200
H 	H 	0.80230 0.02961 0.00320 0.04000
C 	C 	0.82295 0.06627 0.93453 -0.01100
H 	H 	0.84184 0.04707 0.91494 0.05800
C 	C 	0.84642 0.07914 0.96590 -0.05000
C 	C 	0.75422 0.09932 0.95137 -0.08300
C 	C 	0.79982 0.12151 0.93424 0.00500
H 	H 	0.79944 0.14829 0.91400 0.04500
C 	C 	0.82369 0.13403 0.96567 -0.00800
H 	H 	0.84371 0.17071 0.97189 0.05700
C 	C 	0.77805 0.11178 0.98275 -0.00400
H 	H 	0.75963 0.13056 0.00272 0.03400
C 	C 	0.09912 0.18692 0.76850 0.12200
C 	C 	0.13822 0.16910 0.75030 -0.07200
H 	H 	0.16915 0.14981 0.76098 0.06700
C 	C 	0.13845 0.17856 0.71844 -0.00300
H 	H 	0.16965 0.16647 0.70466 0.04000
C 	C 	0.09994 0.20673 0.70482 -0.01900
C 	C 	0.05971 0.22192 0.72295 0.00100
H 	H 	0.03044 0.24466 0.71293 0.04100
C 	C 	0.05895 0.21126 0.75449 -0.07700
H 	H 	0.02846 0.22465 0.76847 0.06500
N 	N 	0.10215 0.18544 0.80155 -0.17500
C 	C 	0.11290 0.23117 0.81699 0.18700
C 	C 	0.08876 0.24198 0.84499 -0.06300
C 	C 	0.05851 0.20273 0.85822 0.02800
C 	C 	0.05787 0.15189 0.84556 -0.06000
C 	C 	0.08137 0.14366 0.81701 0.19000
C 	C 	0.08921 0.29287 0.85772 -0.04100
C 	C 	0.05503 0.30601 0.88065 -0.03200
C 	C 	0.02057 0.26818 0.89126 -0.05400
C 	C 	0.02478 0.21574 0.88162 0.02800
C 	C 	0.99162 0.17746 0.89291 -0.06400
C 	C 	0.02922 0.11216 0.85976 -0.00800
C 	C 	0.99659 0.12484 0.88360 -0.01500
C 	C 	0.97900 0.28258 0.90866 0.18300
N 	N 	0.94287 0.24593 0.91509 -0.17800
C 	C 	0.95132 0.19343 0.91082 0.18900
C 	C 	0.89341 0.26277 0.92087 0.13600
C 	C 	0.87773 0.27256 0.95112 -0.10000
C 	C 	0.82731 0.27503 0.95778 0.04300
C 	C 	0.79246 0.26612 0.93431 -0.11300
C 	C 	0.80848 0.26322 0.90353 0.04200
C 	C 	0.85881 0.26152 0.89686 -0.10200
O 	O 	0.07897 0.09719 0.80371 -0.19500
O 	O 	0.14111 0.26738 0.80382 -0.20300
O 	O 	0.97299 0.33196 0.91675 -0.20200
O 	O 	0.91917 0.15828 0.92111 -0.19800
H 	H 	0.87088 0.25518 0.87332 0.06500
H 	H 	0.78206 0.25789 0.88505 0.01900
H 	H 	0.90434 0.27464 0.96968 0.07000
H 	H 	0.81540 0.27942 0.98152 0.03200
H 	H 	0.03064 0.07201 0.85160 0.05400
H 	H 	0.97368 0.09423 0.89374 0.05300
H 	H 	0.11416 0.32294 0.84888 0.01400
H 	H 	0.05418 0.34598 0.88916 0.03200
C 	C 	0.67948 0.21545 0.34855 0.12000
C 	C 	0.69231 0.18251 0.37327 -0.06800
H 	H 	0.67878 0.14235 0.37403 0.06100
C 	C 	0.72735 0.19950 0.39485 -0.00400
H 	H 	0.74102 0.17208 0.41184 0.04200
C 	C 	0.74809 0.25021 0.39247 -0.02000
C 	C 	0.72769 0.28602 0.37153 -0.00300
H 	H 	0.74116 0.32627 0.37077 0.03800
C 	C 	0.69481 0.26829 0.34898 -0.06700
H 	H 	0.68389 0.29461 0.33065 0.06800
N 	N 	0.65863 0.19341 0.32072 -0.17400
C 	C 	0.61502 0.21253 0.30950 0.18800
C 	C 	0.59891 0.19880 0.27963 -0.05800
C 	C 	0.62684 0.16370 0.26204 0.03300
C 	C 	0.66887 0.14087 0.27486 -0.06000
C 	C 	0.68512 0.15730 0.30414 0.18600
C 	C 	0.55693 0.22183 0.26648 -0.00900
C 	C 	0.54570 0.21346 0.23529 -0.00600
C 	C 	0.57572 0.18107 0.21706 -0.05300
C 	C 	0.61447 0.15384 0.23097 0.03600
C 	C 	0.64283 0.11920 0.21330 -0.05900
C 	C 	0.69497 0.10323 0.25779 -0.01400
C 	C 	0.68152 0.09188 0.22735 -0.01200
C 	C 	0.56987 0.17803 0.18477 0.19200
N 	N 	0.60221 0.14936 0.16741 -0.17700
C 	C 	0.63450 0.11585 0.18133 0.19100
C 	C 	0.60819 0.16093 0.13509 0.13300
C 	C 	0.57647 0.13808 0.11325 -0.09000
C 	C 	0.58605 0.14443 0.08165 0.03500
C 	C 	0.62725 0.17418 0.07174 -0.08700
C 	C 	0.65776 0.19867 0.09374 0.03600
C 	C 	0.64818 0.19215 0.12520 -0.09400
O 	O 	0.72712 0.13979 0.31509 -0.20000
O 	O 	0.58949 0.24592 0.32612 -0.19700
O 	O 	0.53528 0.20533 0.17105 -0.19800
O 	O 	0.66003 0.08284 0.16442 -0.19900
H 	H 	0.67250 0.21030 0.14200 0.06700
H 	H 	0.68917 0.22242 0.08650 0.03900
H 	H 	0.54474 0.11519 0.12076 0.06700
H 	H 	0.56190 0.12566 0.06498 0.04100
H 	H 	0.72593 0.08312 0.26791 0.05000
H 	H 	0.70241 0.06332 0.21445 0.05000
H 	H 	0.53380 0.24742 0.28005 0.05900
H 	H 	0.51437 0.23305 0.22526 0.06100
C 	C 	0.07814 0.87516 0.00569 -0.00700
H 	H 	0.05183 0.86799 0.98652 0.04400
C 	C 	0.07792 0.84655 0.03736 -0.00600
H 	H 	0.05180 0.81482 0.04452 0.03400
C 	C 	0.13488 0.86914 0.00367 -0.01000
H 	H 	0.15563 0.85608 0.98300 0.04500
C 	C 	0.13416 0.84136 0.03527 -0.07600
C 	C 	0.08598 0.92775 0.02247 -0.07400
C 	C 	0.14225 0.92242 0.02036 -0.01300
H 	H 	0.16854 0.95402 0.01323 0.03600
C 	C 	0.14188 0.89402 0.05194 -0.01300
H 	H 	0.16822 0.90149 0.07106 0.01900
C 	C 	0.08536 0.89981 0.05400 -0.01500
H 	H 	0.06499 0.91272 0.07484 0.02900
C 	C 	0.20421 0.62031 0.87447 0.13200
C 	C 	0.16056 0.61896 0.89194 -0.09100
H 	H 	0.12694 0.60303 0.88202 0.07100
C 	C 	0.16105 0.63481 0.92283 0.03600
H 	H 	0.12755 0.63168 0.93641 0.04100
C 	C 	0.20492 0.65376 0.93621 -0.09000
C 	C 	0.24745 0.65954 0.91784 0.03200
H 	H 	0.28123 0.67539 0.92759 0.03600
C 	C 	0.24713 0.64262 0.88716 -0.09700
H 	H 	0.28087 0.64419 0.87376 0.06600
N 	N 	0.20659 0.59294 0.84542 -0.17800
C 	C 	0.21533 0.62064 0.81867 0.18900
C 	C 	0.22105 0.59397 0.79041 -0.06000
C 	C 	0.21733 0.53889 0.78992 0.03200
C 	C 	0.20816 0.51117 0.81744 -0.06300
C 	C 	0.20183 0.53915 0.84507 0.19000
C 	C 	0.22999 0.62155 0.76269 -0.01200
C 	C 	0.23390 0.59441 0.73471 -0.01200
C 	C 	0.22884 0.53929 0.73401 -0.05800
C 	C 	0.22140 0.51153 0.76174 0.03000
C 	C 	0.21659 0.45654 0.76122 -0.05700
C 	C 	0.20483 0.45595 0.81689 -0.01200
C 	C 	0.20930 0.42884 0.78905 -0.01400
C 	C 	0.22916 0.51149 0.70588 0.18900
N 	N 	0.22053 0.45823 0.70562 -0.17400
C 	C 	0.21694 0.43026 0.73271 0.19000
C 	C 	0.20844 0.43237 0.67705 0.12100
C 	C 	0.16047 0.43622 0.66537 -0.07300
C 	C 	0.14028 0.39501 0.64807 -0.00500
C 	C 	0.16793 0.34964 0.64283 -0.02000
C 	C 	0.21887 0.35134 0.64858 -0.00500
C 	C 	0.23919 0.39288 0.66569 -0.07100
O 	O 	0.19050 0.51367 0.87067 -0.20800
O 	O 	0.21785 0.67238 0.81938 -0.19600
O 	O 	0.23612 0.53691 0.67966 -0.19500
O 	O 	0.21101 0.37877 0.73192 -0.19600
H 	H 	0.27710 0.39102 0.67332 0.06600
H 	H 	0.24133 0.31774 0.64312 0.03900
H 	H 	0.13711 0.46798 0.67279 0.06600
H 	H 	0.10148 0.39546 0.64224 0.04800
H 	H 	0.19845 0.43392 0.83796 0.04500
H 	H 	0.20627 0.38636 0.78913 0.05500
H 	H 	0.23358 0.66398 0.76267 0.05300
H 	H 	0.24022 0.61644 0.71362 0.05400
C 	C 	0.98088 0.35209 0.33032 0.12000
C 	C 	0.95044 0.38596 0.34697 -0.07500
H 	H 	0.94847 0.42702 0.34059 0.06400
C 	C 	0.92059 0.36632 0.37076 -0.00400
H 	H 	0.89564 0.39234 0.38265 0.04000
C 	C 	0.92089 0.31262 0.37800 -0.02400
C 	C 	0.95349 0.27930 0.36257 -0.00300
H 	H 	0.95404 0.23779 0.36809 0.03900
C 	C 	0.98352 0.29903 0.33883 -0.07700
H 	H 	0.00724 0.27279 0.32617 0.06900
N 	N 	0.00514 0.37054 0.30275 -0.17100
C 	C 	0.04752 0.40032 0.30510 0.18900
C 	C 	0.06662 0.42684 0.27905 -0.05600
C 	C 	0.04272 0.42097 0.25049 0.02700
C 	C 	0.00154 0.38718 0.24801 -0.04900
C 	C 	0.98333 0.36170 0.27462 0.18100
C 	C 	0.10810 0.46047 0.28136 -0.01400
C 	C 	0.12419 0.48957 0.25574 -0.01000
C 	C 	0.09927 0.48520 0.22735 -0.06000
C 	C 	0.05920 0.45000 0.22459 0.03300
C 	C 	0.03472 0.44485 0.19618 -0.05700
C 	C 	0.97820 0.38078 0.21923 -0.02000
C 	C 	0.99468 0.40935 0.19351 -0.01500
C 	C 	0.11302 0.51646 0.20185 0.19600
N 	N 	0.08772 0.51221 0.17452 -0.17700
C 	C 	0.04999 0.47626 0.17106 0.19100
C 	C 	0.10020 0.54694 0.14942 0.14300
C 	C 	0.08297 0.59860 0.14936 -0.10000
C 	C 	0.10042 0.63455 0.12736 0.04600
C 	C 	0.13499 0.61893 0.10521 -0.10700
C 	C 	0.14990 0.56642 0.10414 0.05000
C 	C 	0.13248 0.53051 0.12618 -0.09500
O 	O 	0.94408 0.33075 0.27275 -0.19800
O 	O 	0.06961 0.40529 0.33204 -0.19400
O 	O 	0.14958 0.55084 0.20442 -0.19100
O 	O 	0.02731 0.47191 0.14428 -0.19900
H 	H 	0.14522 0.49045 0.12586 0.07900
H 	H 	0.17661 0.55402 0.08709 0.03200
H 	H 	0.05761 0.61130 0.16710 0.06900
H 	H 	0.08874 0.67504 0.12835 0.02200
H 	H 	0.94691 0.35421 0.21677 0.05100
H 	H 	0.97584 0.40428 0.17168 0.04900
H 	H 	0.12750 0.46481 0.30306 0.05400
H 	H 	0.15565 0.51591 0.25816 0.05000
C 	C 	0.89487 0.85464 0.06575 -0.01100
H 	H 	0.88306 0.82918 0.08532 0.03800
C 	C 	0.87573 0.91078 0.05901 -0.00500
H 	H 	0.84829 0.93205 0.07315 0.03600
C 	C 	0.94855 0.87427 0.05930 -0.00800
H 	H 	0.98091 0.86534 0.07390 0.03300
C 	C 	0.92889 0.92948 0.05233 -0.08000
C 	C 	0.88919 0.84109 0.03127 -0.07400
C 	C 	0.94226 0.85975 0.02474 -0.00800
H 	H 	0.96939 0.83846 0.01040 0.03600
C 	C 	0.92278 0.91512 0.01797 -0.01000
H 	H 	0.93282 0.93885 0.99742 0.03400
C 	C 	0.86972 0.89634 0.02458 -0.01200
H 	H 	0.83755 0.90631 0.01005 0.04000
C 	C 	0.92756 0.19169 0.67824 0.11400
C 	C 	0.89482 0.16087 0.66064 -0.07200
H 	H 	0.88912 0.11975 0.66621 0.06500
C 	C 	0.86546 0.18435 0.63818 -0.00700
H 	H 	0.83749 0.16102 0.62650 0.04400
C 	C 	0.86773 0.23895 0.63381 -0.02100
C 	C 	0.90536 0.26825 0.64820 -0.00500
H 	H 	0.90822 0.31028 0.64450 0.04500
C 	C 	0.93593 0.24439 0.66987 -0.07000
H 	H 	0.96257 0.26809 0.68236 0.06500
N 	N 	0.94410 0.17261 0.70779 -0.17600
C 	C 	0.97328 0.12897 0.70906 0.19000
C 	C 	0.97723 0.10032 0.73679 -0.06800
C 	C 	0.95239 0.11801 0.76320 0.03800
C 	C 	0.92822 0.16636 0.76251 -0.06400
C 	C 	0.92488 0.19374 0.73438 0.18800
C 	C 	0.00261 0.05248 0.73794 0.01000
C 	C 	0.99926 0.02049 0.76422 -0.03100
C 	C 	0.97055 0.03598 0.78968 -0.04300
C 	C 	0.94873 0.08565 0.78958 0.02600
C 	C 	0.92047 0.10157 0.81502 -0.05700
C 	C 	0.90476 0.18470 0.78939 -0.01200
C 	C 	0.90089 0.15246 0.81549 -0.01400
C 	C 	0.96082 0.00148 0.81448 0.17600
N 	N 	0.92778 0.01506 0.83709 -0.17800
C 	C 	0.90974 0.06514 0.83864 0.18700
C 	C 	0.90799 0.97503 0.85734 0.13500
C 	C 	0.87492 0.93699 0.84582 -0.09300
C 	C 	0.85331 0.89995 0.86571 0.03600
C 	C 	0.86377 0.90137 0.89737 -0.08800
C 	C 	0.89725 0.93902 0.90888 0.03400
C 	C 	0.91981 0.97526 0.88886 -0.08200
O 	O 	0.90009 0.23786 0.73312 -0.20100
O 	O 	0.99542 0.11225 0.68388 -0.20200
O 	O 	0.98196 0.95521 0.81537 -0.18700
O 	O 	0.88019 0.07830 0.86146 -0.20300
H 	H 	0.94567 0.00408 0.89787 0.06400
H 	H 	0.90575 0.94022 0.93331 0.04300
H 	H 	0.86559 0.93665 0.82153 0.07000
H 	H 	0.82753 0.87101 0.85664 0.03300
H 	H 	0.88819 0.22315 0.78983 0.04900
H 	H 	0.88159 0.16664 0.83570 0.04900
H 	H 	0.02374 0.03924 0.71825 0.05000
H 	H 	0.01785 0.98311 0.76434 0.06900
C 	C 	0.65464 0.87600 0.09248 0.14100
C 	C 	0.63421 0.83325 0.07637 -0.10000
H 	H 	0.60019 0.81499 0.08432 0.06800
C 	C 	0.65860 0.81294 0.05064 0.04400
H 	H 	0.64303 0.77922 0.03871 0.02800
C 	C 	0.70360 0.83538 0.04082 -0.11200
C 	C 	0.72275 0.87976 0.05619 0.04800
H 	H 	0.75737 0.89753 0.04888 0.03200
C 	C 	0.69841 0.89982 0.08194 -0.10100
H 	H 	0.71421 0.93295 0.09427 0.07200
N 	N 	0.63279 0.89299 0.12094 -0.17800
C 	C 	0.64359 0.86698 0.14781 0.19000
C 	C 	0.62700 0.88637 0.17635 -0.05700
C 	C 	0.59904 0.93237 0.17697 0.02700
C 	C 	0.58644 0.95723 0.14917 -0.04500
C 	C 	0.60357 0.93655 0.12107 0.18900
C 	C 	0.63859 0.86094 0.20423 -0.01300
C 	C 	0.62320 0.88182 0.23244 -0.01000
C 	C 	0.59621 0.92863 0.23322 -0.06200
C 	C 	0.58398 0.95375 0.20544 0.04400
C 	C 	0.55702 0.00042 0.20608 -0.06900
C 	C 	0.55751 0.00266 0.14990 -0.02000
C 	C 	0.54314 0.02428 0.17814 -0.00500
C 	C 	0.58193 0.95129 0.26141 0.19200
N 	N 	0.55860 0.99877 0.26174 -0.16900
C 	C 	0.54491 0.02284 0.23473 0.18700
C 	C 	0.55176 0.02559 0.29061 0.11600
C 	C 	0.50414 0.03443 0.30194 -0.07100
C 	C 	0.49716 0.06922 0.32644 -0.00600
C 	C 	0.53782 0.09585 0.33951 -0.02100
C 	C 	0.58565 0.08172 0.33061 -0.00400
C 	C 	0.59254 0.04704 0.30612 -0.07400
O 	O 	0.59229 0.95967 0.09481 -0.19400
O 	O 	0.67058 0.82434 0.14693 -0.20100
O 	O 	0.59158 0.92719 0.28762 -0.19500
O 	O 	0.52144 0.06781 0.23565 -0.19800
H 	H 	0.62950 0.03835 0.29838 0.06500
H 	H 	0.61741 0.09930 0.34171 0.03900
H 	H 	0.47253 0.01635 0.29077 0.06300
H 	H 	0.46010 0.07747 0.33425 0.03700
H 	H 	0.54621 0.02137 0.12867 0.05000
H 	H 	0.52161 0.05979 0.17819 0.05000
H 	H 	0.65971 0.82515 0.20417 0.05200
H 	H 	0.63277 0.86180 0.25363 0.05200
C 	C 	0.05423 0.25255 0.98195 -0.00900
H 	H 	0.02831 0.28129 0.97197 0.04800
C 	C 	0.05505 0.23420 0.01614 -0.01000
H 	H 	0.02944 0.24716 0.03456 0.03800
C 	C 	0.06006 0.19497 0.97123 -0.00500
H 	H 	0.03858 0.17542 0.95266 0.04700
C 	C 	0.06134 0.17724 0.00522 -0.07300
C 	C 	0.11069 0.25861 0.98261 -0.06900
C 	C 	0.11678 0.20163 0.97175 -0.00900
H 	H 	0.14227 0.18857 0.95328 0.03700
C 	C 	0.11774 0.18345 0.00582 -0.01000
H 	H 	0.14369 0.15468 0.01577 0.03100
C 	C 	0.11195 0.24101 0.01661 -0.01000
H 	H 	0.13358 0.26042 0.03521 0.04000
C 	C 	0.64702 0.33572 0.70844 0.12200
C 	C 	0.68923 0.36763 0.70499 -0.07300
H 	H 	0.69855 0.39647 0.72245 0.06300
C 	C 	0.72024 0.36113 0.67945 -0.00600
H 	H 	0.75342 0.38507 0.67733 0.03800
C 	C 	0.70946 0.32221 0.65739 -0.02100
C 	C 	0.66602 0.29188 0.66030 -0.00500
H 	H 	0.65742 0.26151 0.64358 0.04200
C 	C 	0.63489 0.29882 0.68563 -0.07400
H 	H 	0.60215 0.27433 0.68813 0.06400
N 	N 	0.61778 0.33854 0.73609 -0.17500
C 	C 	0.58007 0.37377 0.73774 0.18800
C 	C 	0.54510 0.37015 0.76176 -0.06100
C 	C 	0.54985 0.33065 0.78422 0.02600
C 	C 	0.59079 0.29751 0.78352 -0.05900
C 	C 	0.62527 0.30283 0.75933 0.18800
C 	C 	0.50462 0.40406 0.76302 -0.01800
C 	C 	0.46824 0.39715 0.78566 -0.01800
C 	C 	0.47166 0.35602 0.80731 -0.06400
C 	C 	0.51288 0.32330 0.80685 0.03100
C 	C 	0.51650 0.28226 0.82840 -0.06600
C 	C 	0.59564 0.25836 0.80627 -0.02300
C 	C 	0.55872 0.25073 0.82851 -0.01500
C 	C 	0.43395 0.34640 0.82903 0.18900
N 	N 	0.43683 0.30456 0.84900 -0.17900
C 	C 	0.47728 0.27274 0.84910 0.18900
C 	C 	0.39713 0.29443 0.87040 0.13600
C 	C 	0.40346 0.30523 0.90185 -0.10100
C 	C 	0.36312 0.30306 0.92190 0.04400
C 	C 	0.31568 0.29160 0.91049 -0.11100
C 	C 	0.31016 0.27657 0.87945 0.04400
C 	C 	0.35082 0.27772 0.85955 -0.09900
O 	O 	0.66400 0.27216 0.75841 -0.20100
O 	O 	0.57556 0.40993 0.71615 -0.20000
O 	O 	0.39533 0.37723 0.82991 -0.20800
O 	O 	0.47892 0.23243 0.86820 -0.20900
H 	H 	0.34595 0.26821 0.83538 0.07200
H 	H 	0.27404 0.26681 0.87033 0.02300
H 	H 	0.43919 0.31758 0.91044 0.06600
H 	H 	0.36825 0.31332 0.94596 0.03500
H 	H 	0.62751 0.23322 0.80651 0.03700
H 	H 	0.56290 0.22001 0.84560 0.02100
H 	H 	0.50086 0.43539 0.74627 0.04700
H 	H 	0.43713 0.42335 0.78602 0.04500
C 	C 	0.25019 0.43765 0.11746 0.13500
C 	C 	0.27178 0.47382 0.09685 -0.09400
H 	H 	0.30213 0.49873 0.10435 0.06900
C 	C 	0.25764 0.47401 0.06583 0.03900
H 	H 	0.27715 0.49916 0.04957 0.03100
C 	C 	0.22115 0.43872 0.05541 -0.09000
C 	C 	0.19525 0.40746 0.07687 0.03700
H 	H 	0.16638 0.38074 0.06918 0.03300
C 	C 	0.21004 0.40659 0.10777 -0.09800
H 	H 	0.19254 0.37931 0.12371 0.06700
N 	N 	0.27487 0.42522 0.14583 -0.17700
C 	C 	0.25802 0.44542 0.17319 0.18800
C 	C 	0.28043 0.43136 0.20130 -0.05600
C 	C 	0.32050 0.39699 0.20089 0.03000
C 	C 	0.33782 0.37737 0.17263 -0.05900
C 	C 	0.31429 0.39199 0.14511 0.19000
C 	C 	0.26318 0.45080 0.22971 -0.01300
C 	C 	0.28558 0.43581 0.25739 -0.01100
C 	C 	0.32561 0.40113 0.25710 -0.05800
C 	C 	0.34307 0.38185 0.22879 0.03200
C 	C 	0.38278 0.34703 0.22833 -0.06000
C 	C 	0.37807 0.34308 0.17231 -0.01200
C 	C 	0.40035 0.32804 0.19992 -0.01100
C 	C 	0.34821 0.38487 0.28474 0.19000
N 	N 	0.38623 0.34984 0.28393 -0.17500
C 	C 	0.40393 0.33117 0.25638 0.19200
C 	C 	0.40641 0.33020 0.31232 0.12100
C 	C 	0.45416 0.34551 0.32127 -0.07200
C 	C 	0.48033 0.31485 0.34225 -0.00400
C 	C 	0.45868 0.26896 0.35456 -0.01900
C 	C 	0.40867 0.25796 0.34883 -0.00700
C 	C 	0.38272 0.28830 0.32761 -0.07400
O 	O 	0.32975 0.37315 0.11850 -0.19600
O 	O 	0.22069 0.47796 0.17318 -0.19200
O 	O 	0.33261 0.40308 0.31145 -0.19500
O 	O 	0.44027 0.29732 0.25624 -0.20300
H 	H 	0.34552 0.27685 0.32126 0.06400
H 	H 	0.39118 0.22337 0.35883 0.03800
H 	H 	0.47235 0.37850 0.31001 0.06600
H 	H 	0.51861 0.32440 0.34699 0.05300
H 	H 	0.39210 0.32785 0.15071 0.05400
H 	H 	0.43118 0.30147 0.19912 0.05500
H 	H 	0.23241 0.47740 0.23047 0.05600
H 	H 	0.27157 0.45104 0.27899 0.05300
C 	C 	0.31222 0.45878 0.87615 -0.00300
H 	H 	0.29982 0.43861 0.85477 0.05000
C 	C 	0.35965 0.44598 0.89439 -0.00300
H 	H 	0.38707 0.41595 0.88804 0.04900
C 	C 	0.32397 0.51854 0.87927 -0.00600
H 	H 	0.32158 0.54791 0.86038 0.03900
C 	C 	0.37075 0.50507 0.89751 -0.07300
C 	C 	0.28349 0.46038 0.90687 -0.06800
C 	C 	0.29429 0.51951 0.91004 -0.00800
H 	H 	0.26671 0.54867 0.91733 0.04800
C 	C 	0.34161 0.50663 0.92810 -0.00600
H 	H 	0.35378 0.52653 0.94964 0.04000
C 	C 	0.33042 0.44743 0.92497 -0.01400
H 	H 	0.33414 0.41907 0.94422 0.04400
C 	C 	0.40796 0.68449 0.01270 -0.01700
H 	H 	0.43627 0.71637 0.01166 0.03700
C 	C 	0.39154 0.65445 0.04232 -0.00400
H 	H 	0.40551 0.66194 0.06600 0.03400
C 	C 	0.35349 0.68941 0.00286 -0.00700
H 	H 	0.33655 0.72588 0.99400 0.04200
C 	C 	0.33756 0.65924 0.03203 -0.07800
C 	C 	0.41040 0.63197 0.99538 -0.05400
C 	C 	0.35622 0.63681 0.98543 -0.00900
H 	H 	0.34147 0.62926 0.96194 0.04400
C 	C 	0.34018 0.60664 0.01473 -0.00600
H 	H 	0.31195 0.57465 0.01547 0.04100
C 	C 	0.39476 0.60152 0.02456 -0.01700
H 	H 	0.41216 0.56519 0.03325 0.04400
C 	C 	0.56886 0.36523 0.96525 -0.00500
H 	H 	0.56069 0.35921 0.99014 0.04200
C 	C 	0.53052 0.37887 0.94012 -0.00900
H 	H 	0.49063 0.38531 0.94419 0.03900
C 	C 	0.60508 0.40693 0.95167 -0.00600
H 	H 	0.62665 0.43625 0.96518 0.03900
C 	C 	0.56697 0.41977 0.92670 -0.06700
C 	C 	0.59059 0.32390 0.94345 -0.07600
C 	C 	0.62702 0.36484 0.93001 -0.01600
H 	H 	0.66692 0.35868 0.92589 0.04000
C 	C 	0.58872 0.37836 0.90494 -0.01200
H 	H 	0.59684 0.38410 0.88001 0.03300
C 	C 	0.55251 0.33684 0.91848 -0.01300
H 	H 	0.53117 0.30750 0.90490 0.04200
C 	C 	0.65716 0.68523 0.94981 -0.01100
H 	H 	0.64998 0.69964 0.97356 0.03500
C 	C 	0.65446 0.62720 0.93946 -0.01300
H 	H 	0.64441 0.59329 0.95448 0.03300
C 	C 	0.62881 0.70182 0.92058 -0.00700
H 	H 	0.59766 0.72963 0.92003 0.04000
C 	C 	0.62644 0.64400 0.91031 -0.07300
C 	C 	0.70592 0.69202 0.93201 -0.07400
C 	C 	0.67802 0.70889 0.90282 -0.00800
H 	H 	0.68806 0.74285 0.88785 0.04100
C 	C 	0.67510 0.65060 0.89235 -0.01000
H 	H 	0.68208 0.63614 0.86859 0.03600
C 	C 	0.70380 0.63418 0.92174 -0.01000
H 	H 	0.73505 0.60652 0.92239 0.03500
