data_crystal

_cell_length_a 15.96562
_cell_length_b 15.77650
_cell_length_c 96.62872
_cell_angle_alpha 90.07129
_cell_angle_beta  90.02785
_cell_angle_gamma 119.71345

_symmetry_space_group_name_	'P 1'
_symmetry_space_group_name_H-M	'P 1'

loop_
_symmetry_equiv_pos_as_xyz
  x,y,z

loop_
_atom_site_label
_atom_site_type_symbol
_atom_site_fract_x
_atom_site_fract_y
_atom_site_fract_z
_atom_site_charge
O 	O 	0.00170 0.98664 0.80771 -0.68000
H 	H 	0.00047 0.98344 0.79755 0.16100
C 	C 	0.00413 0.34308 0.28388 -0.06800
H 	H 	0.00447 0.73645 0.39818 0.03700
C 	C 	0.00346 0.65926 0.75050 -0.00300
O 	O 	0.00745 0.06231 0.02001 -0.70600
C 	C 	0.00752 0.81864 0.10557 -0.04200
H 	H 	0.00578 0.38920 0.73396 0.04300
H 	H 	0.00407 0.35495 0.75887 0.05000
O 	O 	0.01012 0.11469 0.20704 -0.36100
O 	O 	0.00871 0.99619 0.22963 -0.72200
O 	O 	0.00968 0.85331 0.24612 -0.36600
H 	H 	0.01297 0.00375 0.23974 0.14700
O 	O 	0.01246 0.11903 0.82921 -0.34600
C 	C 	0.01483 0.94810 0.07309 -0.00200
C 	C 	0.01614 0.83447 0.93172 0.02700
Ni	Ni	0.01878 0.94854 0.01787 1.11900
C 	C 	0.01810 0.61061 0.39278 0.00600
C 	C 	0.01807 0.45894 0.52963 0.12000
C 	C 	0.01712 0.63680 0.61584 -0.00300
C 	C 	0.02110 0.31404 0.75147 -0.03900
C 	C 	0.02449 0.86023 0.29885 -0.06500
C 	C 	0.02311 0.33428 0.73733 -0.03800
O 	O 	0.02412 0.82619 0.82213 -0.34600
C 	C 	0.02333 0.96930 0.96371 0.02400
H 	H 	0.19698 0.46356 0.00113 0.04900
C 	C 	0.14148 0.27246 0.00534 0.29200
Ni	Ni	0.09585 0.16480 0.03168 1.12000
O 	O 	0.15318 0.98981 0.02689 -0.35200
O 	O 	0.14371 0.28073 0.01891 -0.37800
C 	C 	0.21817 0.08001 0.02989 0.28200
O 	O 	0.20739 0.15088 0.02504 -0.39300
C 	C 	0.28053 0.09870 0.04218 -0.05700
C 	C 	0.34452 0.19542 0.04631 -0.03400
H 	H 	0.36189 0.25509 0.03921 0.04400
O 	O 	0.07013 0.06588 0.04731 -0.37800
H 	H 	0.09128 0.00036 0.07237 0.04100
H 	H 	0.21667 0.94648 0.04786 0.06200
C 	C 	0.26284 0.02135 0.05116 -0.03700
C 	C 	0.29823 0.04063 0.06476 0.01200
C 	C 	0.35506 0.13802 0.06926 -0.00800
C 	C 	0.38037 0.21553 0.05991 0.01900
H 	H 	0.45819 0.37245 0.05732 0.04100
C 	C 	0.43772 0.31237 0.06445 -0.04300
H 	H 	0.83017 0.40367 0.05462 0.04100
H 	H 	0.86047 0.30529 0.03764 0.04500
Ni	Ni	0.94836 0.09931 0.00592 1.11200
O 	O 	0.82741 0.97285 0.00968 -0.38200
O 	O 	0.88217 0.86302 0.00852 -0.37000
C 	C 	0.81912 0.89101 0.00492 0.29300
O 	O 	0.90684 0.17173 0.01924 -0.38000
O 	O 	0.99614 0.19450 0.03917 -0.38200
C 	C 	0.91286 0.16832 0.03295 0.27500
O 	O 	0.96688 0.91228 0.03791 -0.37000
H 	H 	0.95171 0.03473 0.02628 0.13000
C 	C 	0.80071 0.25585 0.05803 0.01800
C 	C 	0.82968 0.24421 0.04477 -0.02200
C 	C 	0.83360 0.15941 0.04157 -0.05500
C 	C 	0.78785 0.07816 0.05035 -0.03000
H 	H 	0.78593 0.01072 0.04748 0.03300
C 	C 	0.99381 0.97606 0.04830 0.28300
C 	C 	0.95329 0.93773 0.06201 -0.06100
C 	C 	0.85398 0.87207 0.06311 -0.02200
H 	H 	0.80630 0.86605 0.05469 0.04100
C 	C 	0.73281 0.01431 0.07356 -0.04900
C 	C 	0.76060 0.08915 0.06374 0.02100
C 	C 	0.77157 0.17998 0.06780 -0.00600
C 	C 	0.79933 0.36300 0.07603 -0.04200
C 	C 	0.81044 0.34579 0.06211 -0.03900
H 	H 	0.72063 0.94309 0.07045 0.05100
C 	C 	0.27379 0.96378 0.07411 -0.03300
C 	C 	0.38479 0.15792 0.08318 -0.00700
H 	H 	0.22999 0.88869 0.07076 0.04300
C 	C 	0.46767 0.33216 0.07828 -0.04000
C 	C 	0.72046 0.73411 0.07459 -0.03900
C 	C 	0.81781 0.80734 0.07428 0.01300
H 	H 	0.67103 0.73107 0.06666 0.04100
H 	H 	0.51158 0.40724 0.08163 0.04000
C 	C 	0.76240 0.19793 0.08185 -0.00800
C 	C 	0.77932 0.29078 0.08603 0.02200
H 	H 	0.80976 0.43372 0.07909 0.04300
H 	H 	0.11567 0.94729 0.09527 0.04800
C 	C 	0.30407 0.98351 0.08791 -0.03600
C 	C 	0.35851 0.08034 0.09255 0.01300
C 	C 	0.04119 0.88936 0.09512 -0.02900
C 	C 	0.44068 0.25538 0.08774 0.02100
C 	C 	0.68708 0.66269 0.08491 -0.04300
H 	H 	0.61215 0.60554 0.08486 0.04200
C 	C 	0.72498 0.03250 0.08755 -0.04500
C 	C 	0.74296 0.12520 0.09183 0.02500
H 	H 	0.70738 0.97525 0.09508 0.05600
C 	C 	0.88106 0.81159 0.08479 0.00200
C 	C 	0.97911 0.88463 0.08447 0.00800
C 	C 	0.78105 0.31189 0.10016 -0.02800
C 	C 	0.84728 0.74012 0.09525 -0.01200
H 	H 	0.28395 0.92340 0.09502 0.04500
H 	H 	0.05673 0.82244 0.11360 0.05600
H 	H 	0.36967 0.04096 0.11359 0.05500
C 	C 	0.38836 0.10048 0.10639 -0.02100
C 	C 	0.44571 0.19733 0.11089 -0.04300
C 	C 	0.49374 0.21658 0.12438 0.27300
C 	C 	0.77784 0.26745 0.12499 0.27500
C 	C 	0.75038 0.66440 0.09515 0.02400
C 	C 	0.91103 0.74287 0.10558 0.03000
C 	C 	0.71795 0.59117 0.10523 -0.03000
C 	C 	0.78067 0.59434 0.11571 -0.04000
C 	C 	0.87762 0.66979 0.11574 -0.02600
H 	H 	0.64379 0.53218 0.10499 0.05000
H 	H 	0.92663 0.67206 0.12370 0.06800
C 	C 	0.47030 0.27465 0.10163 -0.03000
H 	H 	0.51556 0.34930 0.10510 0.04400
C 	C 	0.74628 0.14752 0.10597 -0.02700
C 	C 	0.76875 0.24187 0.11016 -0.04800
H 	H 	0.73429 0.09269 0.11367 0.06200
H 	H 	0.79378 0.38322 0.10339 0.04600
C 	C 	0.74306 0.52151 0.12702 0.27700
O 	O 	0.64814 0.46988 0.12877 -0.36400
O 	O 	0.80353 0.52560 0.13687 -0.35500
O 	O 	0.82962 0.36045 0.12876 -0.36800
O 	O 	0.72871 0.19844 0.13433 -0.35600
O 	O 	0.47676 0.26780 0.13383 -0.34100
O 	O 	0.54036 0.16914 0.12757 -0.36600
H 	H 	0.66817 0.33253 0.13257 0.14700
Ni	Ni	0.58469 0.38094 0.14580 1.12000
Ni	Ni	0.61691 0.19290 0.14518 1.12800
Ni	Ni	0.80061 0.40817 0.14644 1.12600
O 	O 	0.66627 0.32929 0.14274 -0.71300
Br	Br	0.71741 0.03023 0.15897 -0.18700
C 	C 	0.31575 0.17161 0.17207 0.11000
Br	Br	0.30106 0.22706 0.15509 -0.18700
O 	O 	0.49004 0.15653 0.15491 -0.35500
Br	Br	0.78077 0.93163 0.18452 -0.15200
C 	C 	0.48017 0.20980 0.16457 0.34800
C 	C 	0.73903 0.50845 0.16635 0.34500
C 	C 	0.77230 0.24737 0.16530 0.34700
O 	O 	0.67840 0.20578 0.16374 -0.35600
O 	O 	0.53037 0.30525 0.16412 -0.35000
O 	O 	0.67531 0.50488 0.15739 -0.34600
O 	O 	0.77643 0.45114 0.16507 -0.35500
O 	O 	0.83129 0.31450 0.15655 -0.35800
C 	C 	0.78930 0.10893 0.17463 0.11400
Br	Br	0.87347 0.72098 0.15521 -0.17400
Br	Br	0.13328 0.15666 0.17957 -0.15000
Br	Br	0.98438 0.87991 0.18069 -0.14100
C 	C 	0.25163 0.09407 0.19433 -0.10000
C 	C 	0.24320 0.13874 0.18221 0.10700
C 	C 	0.33213 0.08095 0.19618 0.11200
C 	C 	0.40598 0.11631 0.18620 0.10700
C 	C 	0.39865 0.16330 0.17427 -0.10200
Br	Br	0.51846 0.10295 0.18907 -0.15300
C 	C 	0.88411 0.12905 0.19542 -0.09800
C 	C 	0.82228 0.06901 0.18485 0.11300
C 	C 	0.81183 0.20724 0.17555 -0.09800
C 	C 	0.87200 0.26686 0.18630 0.10900
C 	C 	0.74621 0.55503 0.19119 0.10900
C 	C 	0.77450 0.58273 0.17737 -0.10100
C 	C 	0.84065 0.68078 0.17420 0.10900
C 	C 	0.88251 0.74983 0.18488 0.10900
C 	C 	0.85302 0.72277 0.19867 -0.10000
C 	C 	0.78437 0.62537 0.20182 0.10800
Br	Br	0.65400 0.42107 0.19549 -0.14600
O 	O 	0.11961 0.97322 0.20769 -0.35100
C 	C 	0.17944 0.06621 0.20542 0.35100
O 	O 	0.18972 0.13237 0.21461 -0.35500
Br	Br	0.34245 0.01691 0.21257 -0.18700
O 	O 	0.95344 0.79449 0.21872 -0.34600
C 	C 	0.89274 0.79667 0.20974 0.34400
C 	C 	0.91770 0.08699 0.20626 0.35400
O 	O 	0.86572 0.86287 0.21057 -0.35300
C 	C 	0.91000 0.22845 0.19602 0.11200
O 	O 	0.85717 0.03368 0.21609 -0.36200
Br	Br	0.89907 0.39993 0.18807 -0.15500
Br	Br	0.74145 0.58887 0.22065 -0.16900
Ni	Ni	0.07835 0.13084 0.22515 1.12700
Ni	Ni	0.06801 0.91932 0.22731 1.11800
Ni	Ni	0.87275 0.93734 0.22810 1.12400
Br	Br	0.99563 0.31156 0.21035 -0.18000
O 	O 	0.15967 0.15139 0.24239 -0.36200
C 	C 	0.19197 0.09083 0.24576 0.27400
O 	O 	0.19365 0.02951 0.23651 -0.34400
O 	O 	0.98670 0.16393 0.23539 -0.35200
C 	C 	0.92341 0.83699 0.25003 0.28300
C 	C 	0.92496 0.11137 0.24534 0.28000
O 	O 	0.87136 0.01479 0.24452 -0.37600
O 	O 	0.85768 0.82590 0.24063 -0.35600
C 	C 	0.22422 0.08992 0.26001 -0.04800
C 	C 	0.29712 0.06638 0.26247 -0.02800
H 	H 	0.33200 0.05253 0.25382 0.06400
H 	H 	0.03792 0.24216 0.26455 0.04100
C 	C 	0.90242 0.83572 0.26500 -0.05200
H 	H 	0.75708 0.80927 0.26195 0.05400
C 	C 	0.80192 0.14677 0.25515 -0.02200
C 	C 	0.89651 0.16237 0.25531 -0.04100
C 	C 	0.96457 0.22937 0.26463 -0.02300
H 	H 	0.62826 0.13382 0.25679 0.05400
H 	H 	0.75027 0.09658 0.24769 0.06000
C 	C 	0.97484 0.85426 0.27484 -0.02500
H 	H 	0.04600 0.87043 0.27145 0.04800
H 	H 	0.11788 0.11890 0.26935 0.04300
C 	C 	0.17710 0.10514 0.27123 -0.03000
C 	C 	0.32652 0.06303 0.27604 0.02300
C 	C 	0.40165 0.04299 0.27855 -0.04300
H 	H 	0.43386 0.02424 0.27007 0.04700
H 	H 	0.07818 0.35823 0.28378 0.04900
C 	C 	0.81195 0.82006 0.26947 -0.02600
C 	C 	0.93741 0.27825 0.27420 0.03900
C 	C 	0.84161 0.26049 0.27430 -0.01400
C 	C 	0.65108 0.22558 0.27449 -0.03500
C 	C 	0.67977 0.18085 0.26450 -0.04000
C 	C 	0.77426 0.19604 0.26456 0.03000
H 	H 	0.57865 0.21472 0.27419 0.04800
H 	H 	0.09690 0.88017 0.29559 0.04900
H 	H 	0.10027 0.13096 0.29444 0.04100
C 	C 	0.16136 0.11997 0.29611 -0.04200
C 	C 	0.20609 0.10203 0.28485 0.01900
C 	C 	0.28277 0.08358 0.28724 -0.01100
C 	C 	0.31912 0.09088 0.30074 -0.00700
C 	C 	0.40076 0.08024 0.30296 0.01600
C 	C 	0.43912 0.05232 0.29192 -0.04100
H 	H 	0.50037 0.04158 0.29358 0.04300
C 	C 	0.69978 0.79531 0.28823 -0.04300
C 	C 	0.79156 0.81594 0.28368 0.02400
C 	C 	0.86217 0.82758 0.29347 -0.01600
C 	C 	0.95476 0.84926 0.28903 0.03300
H 	H 	0.64592 0.78917 0.28085 0.04600
C 	C 	0.97501 0.38705 0.29393 -0.01200
C 	C 	0.81234 0.30455 0.28443 0.00400
C 	C 	0.87866 0.36612 0.29447 0.00700
C 	C 	0.71553 0.28338 0.28491 0.01600
C 	C 	0.84647 0.40078 0.30543 -0.01700
C 	C 	0.68326 0.31540 0.29622 -0.02100
H 	H 	0.02683 0.43537 0.30151 0.03100
C 	C 	0.67578 0.77833 0.30228 -0.03800
C 	C 	0.83781 0.80994 0.30759 0.00200
C 	C 	0.74757 0.36887 0.30694 -0.06100
H 	H 	0.60742 0.29332 0.29712 0.05100
C 	C 	0.99969 0.84091 0.31285 -0.01600
H 	H 	0.05295 0.84530 0.32021 0.03200
H 	H 	0.16358 0.14319 0.31808 0.04000
C 	C 	0.19708 0.12652 0.30954 -0.04200
C 	C 	0.27847 0.11613 0.31184 0.01600
C 	C 	0.44772 0.10577 0.31583 -0.02500
H 	H 	0.51453 0.10458 0.31723 0.04900
H 	H 	0.89698 0.44666 0.31334 0.05100
C 	C 	0.71054 0.37552 0.32064 0.30000
C 	C 	0.74297 0.78080 0.31190 0.01300
C 	C 	0.90499 0.81064 0.31716 0.00700
H 	H 	0.60343 0.75851 0.30556 0.04000
C 	C 	0.32487 0.13933 0.32476 -0.02800
H 	H 	0.29611 0.16283 0.33317 0.04600
C 	C 	0.41476 0.14401 0.32632 -0.05600
C 	C 	0.48348 0.21049 0.33681 0.28600
Ni	Ni	0.58336 0.42320 0.33770 1.12000
O 	O 	0.69838 0.54988 0.33268 -0.39100
O 	O 	0.75803 0.37511 0.33166 -0.37500
O 	O 	0.62391 0.36571 0.32178 -0.37900
C 	C 	0.71348 0.74253 0.32525 -0.02100
C 	C 	0.77436 0.72289 0.33349 -0.06400
C 	C 	0.87314 0.76943 0.33033 -0.01600
H 	H 	0.63870 0.71323 0.32827 0.03800
H 	H 	0.92195 0.76055 0.33722 0.04400
C 	C 	0.73145 0.62800 0.34040 0.30400
O 	O 	0.56290 0.20515 0.33957 -0.36700
O 	O 	0.47522 0.28615 0.34080 -0.38900
C 	C 	0.87611 0.47547 0.36141 0.30100
Ni	Ni	0.68996 0.30887 0.34991 1.11400
O 	O 	0.82482 0.38040 0.35967 -0.36600
O 	O 	0.84085 0.53043 0.35738 -0.38600
O 	O 	0.52302 0.48177 0.35046 -0.38200
O 	O 	0.72824 0.62221 0.35401 -0.38100
O 	O 	0.64448 0.39756 0.35264 -0.71200
H 	H 	0.58745 0.35704 0.35837 0.15500
H 	H 	0.38197 0.29822 0.37631 0.03700
C 	C 	0.51325 0.46703 0.36410 0.27900
Ni	Ni	0.71298 0.50520 0.36489 1.12000
O 	O 	0.63793 0.25701 0.36955 -0.36600
H 	H 	0.43580 0.58644 0.36686 0.04500
C 	C 	0.95501 0.51427 0.37171 -0.06800
H 	H 	0.94397 0.64221 0.37668 0.03300
O 	O 	0.58847 0.48843 0.37215 -0.37900
C 	C 	0.40820 0.52484 0.37388 -0.02400
C 	C 	0.42311 0.44619 0.37089 -0.05600
H 	H 	0.39118 0.67511 0.38378 0.04200
C 	C 	0.97252 0.59558 0.37986 -0.01600
C 	C 	0.37817 0.36262 0.37926 -0.02700
C 	C 	0.37561 0.53236 0.38710 0.01800
C 	C 	0.65228 0.31582 0.38024 0.27500
O 	O 	0.71475 0.41142 0.37956 -0.37000
C 	C 	0.37839 0.61899 0.39129 -0.04000
C 	C 	0.99781 0.45824 0.37544 -0.01100
H 	H 	0.98914 0.39897 0.36878 0.04600
C 	C 	0.02627 0.68496 0.40166 -0.03700
C 	C 	0.05952 0.69112 0.41524 -0.04400
C 	C 	0.04931 0.54591 0.39730 0.00000
H 	H 	0.32171 0.22757 0.39931 0.03900
C 	C 	0.32867 0.29662 0.40250 -0.03900
H 	H 	0.33398 0.07173 0.40011 0.03800
C 	C 	0.34873 0.36986 0.39268 0.01700
C 	C 	0.35327 0.45769 0.39687 -0.00600
C 	C 	0.37125 0.63627 0.40535 -0.04000
H 	H 	0.37738 0.70506 0.40852 0.04400
C 	C 	0.04278 0.47203 0.38837 0.00600
H 	H 	0.07202 0.35269 0.38604 0.04000
C 	C 	0.68219 0.27240 0.40367 -0.02200
C 	C 	0.61684 0.27073 0.39379 -0.05000
C 	C 	0.51753 0.20802 0.39556 -0.02500
H 	H 	0.75890 0.32186 0.40235 0.05200
H 	H 	0.46728 0.20824 0.38801 0.03900
C 	C 	0.07421 0.40798 0.39294 -0.03500
H 	H 	0.06376 0.74777 0.42205 0.04400
C 	C 	0.08116 0.55099 0.41103 -0.01200
C 	C 	0.08421 0.62251 0.42013 0.02200
H 	H 	0.27756 0.94045 0.41742 0.04200
C 	C 	0.32448 0.31493 0.41659 -0.04200
C 	C 	0.33897 0.40620 0.42097 0.02100
C 	C 	0.35351 0.99464 0.41699 -0.04600
C 	C 	0.34847 0.47595 0.41104 -0.00900
C 	C 	0.38548 0.06944 0.40719 -0.03600
C 	C 	0.36230 0.56747 0.41532 0.02100
C 	C 	0.10456 0.41219 0.40662 -0.04400
C 	C 	0.71487 0.19993 0.42380 -0.03500
C 	C 	0.55014 0.13546 0.41556 -0.00300
C 	C 	0.64931 0.20418 0.41451 0.02100
C 	C 	0.48386 0.13904 0.40625 0.01800
H 	H 	0.79108 0.25294 0.42317 0.04900
C 	C 	0.10542 0.48164 0.41583 0.02200
C 	C 	0.12779 0.48081 0.42982 -0.02600
H 	H 	0.14446 0.42599 0.43353 0.05600
C 	C 	0.12896 0.55063 0.43904 -0.05000
C 	C 	0.10915 0.62271 0.43409 -0.02500
H 	H 	0.11278 0.67838 0.44105 0.05100
H 	H 	0.31254 0.85630 0.43574 0.04900
H 	H 	0.31398 0.25961 0.42411 0.04900
H 	H 	0.34778 0.37932 0.44272 0.06100
C 	C 	0.35119 0.43128 0.43508 -0.02500
C 	C 	0.38815 0.91178 0.43547 -0.02600
C 	C 	0.37376 0.52568 0.43923 -0.05200
C 	C 	0.41943 0.98881 0.42602 0.02000
C 	C 	0.45403 0.90632 0.44461 -0.05000
C 	C 	0.37394 0.59159 0.42942 -0.02500
H 	H 	0.38585 0.66246 0.43273 0.05200
H 	H 	0.12569 0.36024 0.41013 0.04500
C 	C 	0.68261 0.12586 0.43376 -0.03600
C 	C 	0.58445 0.05490 0.43451 0.02800
C 	C 	0.51786 0.06028 0.42546 -0.00500
C 	C 	0.55228 0.97798 0.44407 -0.02300
H 	H 	0.73423 0.12298 0.44075 0.05600
H 	H 	0.60345 0.97377 0.45101 0.06700
C 	C 	0.15797 0.55184 0.45362 0.29500
O 	O 	0.32655 0.76458 0.45568 -0.38400
O 	O 	0.14334 0.60384 0.46291 -0.35500
O 	O 	0.19027 0.49348 0.45738 -0.37400
Ni	Ni	0.25718 0.71018 0.47433 1.11800
Ni	Ni	0.25737 0.50369 0.47556 1.12700
O 	O 	0.35670 0.49476 0.46387 -0.36500
C 	C 	0.41890 0.82725 0.45502 0.29700
C 	C 	0.39956 0.55700 0.45373 0.29400
Ni	Ni	0.45895 0.70742 0.47499 1.12600
O 	O 	0.45855 0.64951 0.45649 -0.37500
O 	O 	0.47752 0.82870 0.46473 -0.35800
Br	Br	0.61017 0.02780 0.48590 -0.17900
Br	Br	0.93723 0.53131 0.48564 -0.16700
O 	O 	0.13785 0.48741 0.48583 -0.34800
O 	O 	0.32249 0.64179 0.47775 -0.72100
C 	C 	0.06174 0.51171 0.50575 -0.08600
C 	C 	0.13450 0.55053 0.49470 0.32700
O 	O 	0.17475 0.64512 0.49183 -0.34000
H 	H 	0.32187 0.64311 0.48794 0.16300
O 	O 	0.32143 0.49242 0.49283 -0.35300
O 	O 	0.36300 0.83341 0.48502 -0.34800
C 	C 	0.42477 0.83365 0.49436 0.33000
C 	C 	0.41620 0.54312 0.49490 0.33000
C 	C 	0.97087 0.50402 0.50363 0.10300
O 	O 	0.47598 0.60440 0.48539 -0.35400
O 	O 	0.47129 0.78416 0.49240 -0.34800
C 	C 	0.45706 0.50972 0.50586 -0.09400
C 	C 	0.45926 0.90762 0.50538 -0.09500
C 	C 	0.46495 0.42552 0.50377 0.11100
C 	C 	0.54497 0.99721 0.50353 0.11900
Br	Br	0.43049 0.35953 0.48611 -0.17000
Br	Br	0.50765 0.27382 0.51172 -0.15600
Br	Br	0.70076 0.18648 0.51206 -0.15900
Br	Br	0.78117 0.46768 0.51181 -0.15700
C 	C 	0.08467 0.48764 0.51869 0.10100
Br	Br	0.47950 0.67791 0.52120 -0.15400
C 	C 	0.48542 0.55988 0.51858 0.10500
C 	C 	0.40949 0.88701 0.51805 0.10500
C 	C 	0.49934 0.39044 0.51448 0.10500
C 	C 	0.52725 0.44033 0.52721 -0.09300
C 	C 	0.58197 0.06513 0.51445 0.10200
C 	C 	0.53241 0.04425 0.52713 -0.10300
C 	C 	0.90390 0.47436 0.51453 0.10900
Br	Br	0.20621 0.49160 0.52133 -0.15400
Br	Br	0.28909 0.76718 0.52029 -0.15700
Br	Br	0.55221 0.58956 0.54704 -0.16900
C 	C 	0.51917 0.52442 0.52931 0.11100
C 	C 	0.56818 0.40698 0.53818 0.32900
O 	O 	0.51766 0.16595 0.54013 -0.35000
O 	O 	0.66254 0.45963 0.54056 -0.35300
C 	C 	0.92685 0.45028 0.52747 -0.10500
C 	C 	0.56611 0.11852 0.53811 0.33100
C 	C 	0.85296 0.40785 0.53833 0.33100
Ni	Ni	0.72579 0.44642 0.55778 1.12700
Ni	Ni	0.52754 0.24066 0.55764 1.12700
O 	O 	0.62871 0.12028 0.54742 -0.35100
O 	O 	0.50788 0.34261 0.54738 -0.35400
O 	O 	0.81286 0.31257 0.54063 -0.34400
O 	O 	0.84763 0.46787 0.54759 -0.35400
O 	O 	0.66386 0.30956 0.55489 -0.72300
H 	H 	0.66479 0.30990 0.54469 0.16600
C 	C 	0.44695 0.95449 0.52900 0.12000
Br	Br	0.38262 0.92308 0.54669 -0.17000
Br	Br	0.05247 0.43373 0.54770 -0.16100
Ni	Ni	0.73273 0.24452 0.55815 1.11800
O 	O 	0.62380 0.45187 0.56929 -0.36600
O 	O 	0.84865 0.35207 0.56926 -0.35700
O 	O 	0.51316 0.12068 0.56780 -0.36200
O 	O 	0.52427 0.29544 0.57622 -0.37600
H 	H 	0.39163 0.96918 0.58085 0.06800
C 	C 	0.44283 0.97038 0.58833 -0.00100
C 	C 	0.83778 0.40569 0.57872 0.30300
C 	C 	0.57267 0.12450 0.57754 0.29900
C 	C 	0.58011 0.38810 0.57922 0.29700
O 	O 	0.78648 0.44802 0.57622 -0.38000
O 	O 	0.66459 0.18896 0.57684 -0.38400
H 	H 	0.62193 0.56329 0.59022 0.06100
H 	H 	0.95315 0.58179 0.59005 0.04600
C 	C 	0.53922 0.04698 0.58818 -0.06700
H 	H 	0.03157 0.69731 0.60908 0.04100
H 	H 	0.26500 0.81599 0.59091 0.05700
C 	C 	0.31636 0.81923 0.59853 -0.03200
C 	C 	0.41259 0.89550 0.59820 0.02200
C 	C 	0.47913 0.89743 0.60799 -0.00300
C 	C 	0.59761 0.35255 0.60382 -0.02200
C 	C 	0.59993 0.41851 0.59384 -0.05100
C 	C 	0.61675 0.51111 0.59795 -0.02300
H 	H 	0.64405 0.67970 0.60881 0.05000
H 	H 	0.59014 0.28323 0.60059 0.05100
C 	C 	0.94022 0.52193 0.59688 -0.00500
C 	C 	0.88935 0.42552 0.59194 -0.06100
C 	C 	0.87249 0.34780 0.60073 -0.01500
H 	H 	0.83264 0.27341 0.59691 0.04200
C 	C 	0.60517 0.04816 0.59796 -0.04000
H 	H 	0.67929 0.10720 0.59795 0.04800
C 	C 	0.57584 0.97342 0.60774 0.02900
C 	C 	0.04729 0.65535 0.62964 -0.06600
H 	H 	0.08534 0.73002 0.63336 0.05400
H 	H 	0.21134 0.68924 0.60894 0.05100
H 	H 	0.24198 0.63388 0.63124 0.05400
C 	C 	0.28570 0.74741 0.60881 -0.03800
C 	C 	0.31804 0.68694 0.63026 -0.02700
C 	C 	0.35058 0.75156 0.61897 0.02400
C 	C 	0.44829 0.82510 0.61830 -0.00800
H 	H 	0.58216 0.23550 0.62493 0.04100
C 	C 	0.58550 0.30330 0.62796 -0.04100
C 	C 	0.51419 0.82918 0.62836 0.02500
C 	C 	0.97006 0.54080 0.61072 -0.01900
C 	C 	0.60788 0.46325 0.62210 -0.00700
C 	C 	0.59945 0.37364 0.61795 0.02000
C 	C 	0.62075 0.53385 0.61209 0.02300
C 	C 	0.63083 0.62361 0.61635 -0.04000
C 	C 	0.62003 0.63982 0.63032 -0.03800
H 	H 	0.62620 0.70865 0.63342 0.04100
C 	C 	0.88258 0.28833 0.62363 -0.03100
C 	C 	0.90236 0.36585 0.61462 0.00200
C 	C 	0.95098 0.46262 0.61964 0.01900
H 	H 	0.84437 0.21368 0.61992 0.03300
C 	C 	0.64191 0.97440 0.61743 -0.01400
C 	C 	0.61133 0.90254 0.62765 -0.05100
H 	H 	0.71680 0.03151 0.61716 0.01900
H 	H 	0.66282 0.90528 0.63521 0.04600
C 	C 	0.03019 0.57806 0.63854 0.06200
C 	C 	0.05613 0.51990 0.66060 -0.02500
C 	C 	0.06590 0.59680 0.65212 -0.04500
H 	H 	0.10626 0.67152 0.65579 0.06000
O 	O 	0.27219 0.56421 0.65559 -0.37000
C 	C 	0.34502 0.65614 0.65465 0.27000
O 	O 	0.35556 0.44344 0.66390 -0.37700
C 	C 	0.38230 0.69706 0.64093 -0.04700
H 	H 	0.55434 0.26068 0.64931 0.03800
C 	C 	0.53487 0.40995 0.65888 -0.02300
C 	C 	0.52175 0.48961 0.66194 -0.05400
C 	C 	0.57012 0.31775 0.64182 -0.04000
C 	C 	0.48098 0.76414 0.63952 -0.03000
C 	C 	0.56998 0.40331 0.64583 0.01700
H 	H 	0.53052 0.77078 0.64769 0.04200
C 	C 	0.56363 0.57195 0.65331 -0.02700
H 	H 	0.55840 0.63576 0.65612 0.03700
C 	C 	0.59486 0.47876 0.63610 -0.00500
C 	C 	0.59648 0.56553 0.64010 0.01900
C 	C 	0.98069 0.48124 0.63357 -0.05400
C 	C 	0.91257 0.30689 0.63747 -0.06000
C 	C 	0.96279 0.40324 0.64246 0.04300
C 	C 	0.99904 0.42281 0.65604 -0.07400
H 	H 	0.89775 0.24635 0.64424 0.03800
C 	C 	0.12000 0.54147 0.67279 0.29300
O 	O 	0.13468 0.47302 0.67763 -0.38700
O 	O 	0.20658 0.35083 0.68396 -0.38000
O 	O 	0.18229 0.63270 0.67572 -0.36300
Ni	Ni	0.25060 0.46618 0.67118 1.11900
Ni	Ni	0.31661 0.67952 0.68512 1.11400
O 	O 	0.33501 0.57017 0.68298 -0.71000
O 	O 	0.44336 0.46895 0.68406 -0.37500
O 	O 	0.37045 0.71858 0.66521 -0.36500
H 	H 	0.39116 0.60032 0.67679 0.14300
C 	C 	0.43883 0.47323 0.67035 0.27500
H 	H 	0.50695 0.34833 0.66591 0.04400
H 	H 	0.98746 0.36300 0.66277 0.04400
C 	C 	0.07723 0.32277 0.71414 -0.02600
C 	C 	0.12466 0.28786 0.70558 -0.05500
C 	C 	0.20708 0.35946 0.69751 0.29400
O 	O 	0.28882 0.41058 0.70413 -0.38400
C 	C 	0.09401 0.16139 0.72241 0.01700
C 	C 	0.12062 0.19935 0.70897 -0.02100
O 	O 	0.24683 0.62453 0.70368 -0.37500
C 	C 	0.28669 0.60817 0.71450 0.29000
H 	H 	0.15124 0.16840 0.70192 0.04500
H 	H 	0.12525 0.04390 0.71941 0.03700
O 	O 	0.36667 0.60321 0.71332 -0.37900
Ni	Ni	0.39625 0.53707 0.69726 1.12000
O 	O 	0.45065 0.76929 0.69495 -0.36700
O 	O 	0.51385 0.66651 0.69357 -0.39200
C 	C 	0.51812 0.74669 0.69828 0.29200
H 	H 	0.07386 0.38708 0.71104 0.04600
C 	C 	0.58303 0.79730 0.71008 -0.05800
C 	C 	0.55734 0.84683 0.71983 -0.02200
H 	H 	0.50151 0.86453 0.71736 0.05100
C 	C 	0.05147 0.28673 0.72767 0.02000
C 	C 	0.06564 0.20955 0.73205 -0.00500
C 	C 	0.10655 0.08355 0.72680 -0.04200
H 	H 	0.10239 0.54689 0.72132 0.04900
C 	C 	0.06154 0.18758 0.74625 -0.00700
C 	C 	0.15274 0.58783 0.72954 -0.02200
C 	C 	0.24999 0.61293 0.72829 -0.05700
C 	C 	0.10028 0.06013 0.74088 -0.04300
C 	C 	0.31435 0.66220 0.73923 -0.02500
H 	H 	0.11325 0.00198 0.74417 0.03400
H 	H 	0.38889 0.67924 0.73850 0.05100
H 	H 	0.68193 0.74480 0.70542 0.04600
H 	H 	0.79305 0.73748 0.72230 0.03800
C 	C 	0.65859 0.77859 0.71315 -0.02800
H 	H 	0.51504 0.93139 0.74065 0.04700
C 	C 	0.76653 0.76797 0.73006 -0.04100
C 	C 	0.66525 0.83655 0.73667 -0.00500
C 	C 	0.69812 0.79572 0.72652 0.01700
C 	C 	0.59737 0.86554 0.73316 0.01700
C 	C 	0.56674 0.90833 0.74325 -0.03900
C 	C 	0.60062 0.91903 0.75686 -0.04200
H 	H 	0.57543 0.95117 0.76457 0.05000
C 	C 	0.02921 0.61158 0.74061 -0.02000
C 	C 	0.04410 0.24349 0.75604 0.02300
C 	C 	0.12301 0.62521 0.74042 0.01400
C 	C 	0.08247 0.11505 0.75070 0.01800
C 	C 	0.09124 0.10251 0.76489 -0.02800
C 	C 	0.18979 0.68281 0.75070 -0.00800
C 	C 	0.28420 0.69695 0.75051 0.02200
C 	C 	0.34865 0.75039 0.76120 -0.03900
H 	H 	0.41895 0.75603 0.76170 0.05000
C 	C 	0.79971 0.77780 0.74371 -0.04200
C 	C 	0.76495 0.81555 0.75398 0.02300
C 	C 	0.69829 0.84605 0.75041 -0.00900
C 	C 	0.66468 0.88606 0.76058 0.02400
H 	H 	0.97690 0.56609 0.73288 0.01400
C 	C 	0.05488 0.23167 0.77023 -0.02400
C 	C 	0.07074 0.71984 0.76045 -0.00400
C 	C 	0.08246 0.16410 0.77463 -0.05400
C 	C 	0.16342 0.72972 0.76079 0.00500
H 	H 	0.10733 0.04670 0.76834 0.03700
C 	C 	0.04625 0.77034 0.77006 0.02800
C 	C 	0.20438 0.83689 0.78083 -0.01200
C 	C 	0.23042 0.78822 0.77100 0.02000
C 	C 	0.32235 0.79670 0.77131 -0.03300
H 	H 	0.37364 0.83941 0.77931 0.05700
C 	C 	0.69744 0.89493 0.77424 -0.02400
H 	H 	0.67325 0.92755 0.78204 0.06200
H 	H 	0.04511 0.27706 0.77776 0.06100
H 	H 	0.93132 0.64948 0.75035 0.01400
C 	C 	0.76634 0.86778 0.77773 -0.03800
C 	C 	0.79787 0.82561 0.76769 -0.03300
H 	H 	0.85227 0.75584 0.74629 0.03700
H 	H 	0.85163 0.80559 0.77039 0.04400
H 	H 	0.97551 0.76385 0.76962 0.01800
C 	C 	0.07964 0.86926 0.79157 0.31600
O 	O 	0.05335 0.17516 0.79905 -0.34500
C 	C 	0.10152 0.15672 0.78941 0.27500
C 	C 	0.11184 0.82741 0.78045 -0.06400
O 	O 	0.14497 0.93373 0.80036 -0.35200
O 	O 	0.15785 0.12019 0.79285 -0.37200
H 	H 	0.25521 0.88056 0.78883 0.07100
C 	C 	0.82130 0.90496 0.79059 0.27000
Ni	Ni	0.94280 0.06327 0.81059 1.08500
O 	O 	0.98546 0.82719 0.79405 -0.41000
O 	O 	0.86003 0.99938 0.79322 -0.35500
O 	O 	0.81471 0.84236 0.80039 -0.34900
Br	Br	0.17148 0.38138 0.81849 -0.16800
Ni	Ni	0.13693 0.04331 0.81054 1.10700
O 	O 	0.16230 0.16854 0.82042 -0.35800
C 	C 	0.10633 0.17185 0.83017 0.34300
Br	Br	0.29401 0.92334 0.82271 -0.18300
Ni	Ni	0.92988 0.85102 0.81123 1.11800
C 	C 	0.81731 0.90145 0.83031 0.35600
O 	O 	0.81929 0.96547 0.82144 -0.34100
O 	O 	0.87956 0.87038 0.82948 -0.36000
Br	Br	0.65621 0.68778 0.82341 -0.19100
Br	Br	0.22099 0.54447 0.84365 -0.14200
C 	C 	0.08889 0.88863 0.83088 0.35100
C 	C 	0.07822 0.80740 0.85349 0.13000
O 	O 	0.12676 0.98324 0.82917 -0.33700
C 	C 	0.17127 0.34478 0.83753 0.10900
C 	C 	0.13045 0.85241 0.84139 -0.09900
C 	C 	0.14757 0.24845 0.84085 -0.10100
C 	C 	0.19409 0.41420 0.84812 0.10900
C 	C 	0.22235 0.86233 0.83930 0.11400
C 	C 	0.14908 0.22246 0.85475 0.11000
C 	C 	0.26166 0.82698 0.84928 0.10900
Br	Br	0.38622 0.83829 0.84622 -0.14400
C 	C 	0.66494 0.76370 0.83958 0.11500
C 	C 	0.74142 0.86032 0.84090 -0.10900
C 	C 	0.74707 0.91610 0.85262 0.14200
C 	C 	0.59428 0.72287 0.84996 0.10800
Br	Br	0.48863 0.59124 0.84800 -0.15500
Br	Br	0.95363 0.79606 0.85654 -0.17700
C 	C 	0.11757 0.77211 0.86347 0.10900
C 	C 	0.20949 0.78207 0.86138 -0.09600
C 	C 	0.19580 0.38827 0.86201 -0.10000
Br	Br	0.12105 0.09184 0.85923 -0.16100
C 	C 	0.17224 0.29198 0.86533 0.10900
C 	C 	0.67631 0.87533 0.86299 0.10400
C 	C 	0.59998 0.77861 0.86169 -0.09700
Br	Br	0.85295 0.04760 0.85461 -0.21900
Br	Br	0.04608 0.71138 0.88008 -0.17800
O 	O 	0.18097 0.46767 0.88249 -0.35000
O 	O 	0.21403 0.65204 0.87371 -0.35900
C 	C 	0.23689 0.46491 0.87269 0.34500
C 	C 	0.25139 0.74655 0.87194 0.34800
O 	O 	0.33073 0.51852 0.87357 -0.35000
O 	O 	0.31584 0.80949 0.88067 -0.35700
Br	Br	0.17276 0.25558 0.88437 -0.17500
O 	O 	0.46167 0.76739 0.87321 -0.35300
C 	C 	0.52454 0.73715 0.87234 0.34800
O 	O 	0.52357 0.67362 0.88122 -0.35100
Br	Br	0.68469 0.95146 0.87911 -0.16800
Ni	Ni	0.20541 0.59266 0.89236 1.12700
O 	O 	0.18615 0.51646 0.91008 -0.35900
O 	O 	0.19639 0.70172 0.90252 -0.35700
C 	C 	0.26165 0.76687 0.91126 0.27900
O 	O 	0.29136 0.46260 0.90375 -0.34700
O 	O 	0.34085 0.65065 0.89507 -0.71400
H 	H 	0.34242 0.65399 0.90523 0.14700
O 	O 	0.35580 0.80953 0.90873 -0.37600
Ni	Ni	0.40084 0.57513 0.89214 1.11900
Ni	Ni	0.41138 0.78626 0.89151 1.12800
O 	O 	0.48387 0.64001 0.90946 -0.36400
O 	O 	0.52757 0.79655 0.90224 -0.34600
H 	H 	0.96462 0.79037 0.92382 0.02700
C 	C 	0.10906 0.84536 0.93188 0.00600
H 	H 	0.08476 0.75221 0.91417 0.07200
C 	C 	0.13579 0.79721 0.92207 -0.01300
C 	C 	0.22917 0.80872 0.92234 -0.04700
C 	C 	0.24291 0.48024 0.91344 0.27700
C 	C 	0.26103 0.47092 0.92819 -0.05000
H 	H 	0.29839 0.35824 0.92476 0.05800
C 	C 	0.52214 0.73447 0.91205 0.27300
C 	C 	0.57782 0.77241 0.92485 -0.04000
C 	C 	0.64264 0.74075 0.92874 -0.02400
H 	H 	0.66388 0.70368 0.92124 0.05700
C 	C 	0.98909 0.87999 0.94185 -0.09100
H 	H 	0.23552 0.58733 0.93478 0.04700
C 	C 	0.17624 0.90552 0.94197 0.00400
C 	C 	0.25186 0.53140 0.93808 -0.02700
C 	C 	0.26981 0.91759 0.94218 0.01200
C 	C 	0.28856 0.40294 0.93241 -0.02500
C 	C 	0.29501 0.86747 0.93261 -0.02100
C 	C 	0.29949 0.39001 0.94656 0.02200
H 	H 	0.36632 0.87527 0.93299 0.04700
H 	H 	0.33934 0.27867 0.94342 0.04500
H 	H 	0.50083 0.84550 0.93143 0.04700
C 	C 	0.55085 0.82120 0.93447 -0.03100
H 	H 	0.91784 0.87214 0.94149 0.06100
C 	C 	0.73398 0.71300 0.94661 -0.04400
C 	C 	0.67474 0.75085 0.94246 0.02200
H 	H 	0.75637 0.67658 0.93919 0.04400
O 	O 	0.97286 0.02964 0.98983 -0.40200
H 	H 	0.22020 0.58772 0.98376 0.04300
C 	C 	0.05093 0.02145 0.98848 0.29400
C 	C 	0.05390 0.93527 0.95240 0.03500
H 	H 	0.22999 0.63025 0.95904 0.04400
C 	C 	0.08778 0.01935 0.97461 -0.09400
C 	C 	0.23846 0.54841 0.97625 -0.03900
C 	C 	0.24348 0.57218 0.96220 -0.04100
C 	C 	0.25177 0.47072 0.98047 0.01900
C 	C 	0.14912 0.95167 0.95208 0.01500
C 	C 	0.18545 0.04639 0.97325 -0.01100
C 	C 	0.26096 0.51787 0.95223 0.02200
C 	C 	0.21591 0.01043 0.96228 -0.00900
H 	H 	0.23557 0.08719 0.98150 0.03800
C 	C 	0.28233 0.44526 0.95650 -0.00800
C 	C 	0.27932 0.42283 0.97066 -0.00500
C 	C 	0.29406 0.34567 0.97486 0.01900
C 	C 	0.31054 0.02636 0.96195 -0.07000
C 	C 	0.33716 0.97972 0.95202 -0.00700
H 	H 	0.36287 0.07288 0.96961 0.04100
C 	C 	0.32159 0.29837 0.96504 -0.03900
C 	C 	0.32272 0.31923 0.95094 -0.04100
H 	H 	0.33897 0.24319 0.96827 0.04000
H 	H 	0.41001 0.99145 0.95203 0.03800
C 	C 	0.76644 0.72392 0.96029 -0.04200
C 	C 	0.64503 0.79688 0.95224 -0.00900
C 	C 	0.67675 0.80682 0.96606 -0.00500
C 	C 	0.73923 0.77194 0.97003 0.01500
C 	C 	0.64769 0.85349 0.97583 0.01900
C 	C 	0.58466 0.88719 0.97182 -0.04000
C 	C 	0.55271 0.87686 0.95810 -0.04000
C 	C 	0.58333 0.83266 0.94822 0.02300
C 	C 	0.77730 0.78955 0.98348 -0.02200
H 	H 	0.81424 0.69664 0.96325 0.03900
H 	H 	0.56124 0.92244 0.97929 0.04400
H 	H 	0.50423 0.90330 0.95517 0.04100
H 	H 	0.82877 0.76661 0.98632 0.04700
H 	H 	0.94837 0.95068 0.96454 0.03700
C 	C 	0.22323 0.34420 0.99718 -0.05400
O 	O 	0.08683 0.99729 0.99903 -0.35700
O 	O 	0.05877 0.22317 0.99887 -0.37900
C 	C 	0.22683 0.43272 0.99393 -0.02000
C 	C 	0.26987 0.30955 0.98842 -0.02700
H 	H 	0.27410 0.24558 0.99143 0.04200
C 	C 	0.75540 0.84402 0.99287 -0.05800
C 	C 	0.68546 0.86987 0.98931 -0.02700
H 	H 	0.66501 0.90789 0.99675 0.04900
